data_functionalizedCrystal
_audit_creation_method	'EQeq! by Chris Wilmer'
_symmetry_space_group_name_H-M	'P1'
_symmetry_Int_Tables_number	1
_symmetry_cell_setting	triclinic
loop_
_symmetry_equiv_pos_as_xyz
  x,y,z
_cell_length_a	18.6162
_cell_length_b	18.6162
_cell_length_c	18.6162
_cell_angle_alpha	60
_cell_angle_beta	60
_cell_angle_gamma	60
loop_
_atom_site_label
_atom_site_type_symbol
_atom_site_fract_x
_atom_site_fract_y
_atom_site_fract_z
_atom_site_charge
Mof_Cu	Cu	6.23006e-17	0.42995	0.57005	0.797
Mof_Cu	Cu	6.23006e-17	0	0.57005	0.694
Mof_Cu	Cu	0.42995	0	0.57005	0.797
Mof_Cu	Cu	-0	0.57005	-0	0.694
Mof_Cu	Cu	0.57005	0	0.42995	0.797
Mof_Cu	Cu	1.24601e-17	0	0.42995	0.681
Mof_Cu	Cu	1.24601e-17	0.57005	0.42995	0.798
Mof_Cu	Cu	0.57005	0	-0	0.695
Mof_Cu	Cu	-0	0.42995	-0	0.682
Mof_Cu	Cu	0.42995	0	-0	0.682
Mof_Cu	Cu	0.42995	0.57005	-0	0.798
Mof_Cu	Cu	0.57005	0.42995	-0	0.798
Mof_H 	H 	0.487	0.2716	0.9698	0.077
Mof_H 	H 	0.2716	0.487	0.2716	0.006
Mof_H 	H 	0.487	0.2716	0.2716	0.006
Mof_H 	H 	0.9698	0.487	0.2716	0.077
Mof_H 	H 	0.0302	0.7284	0.7284	0.055
Mof_H 	H 	0.7284	0.7284	0.513	0.095
Mof_H 	H 	0.2716	0.2716	0.9698	0.053
Mof_H 	H 	0.513	0.7284	0.0302	0.03
Mof_H 	H 	0.7284	0.0302	0.7284	0.055
Mof_H 	H 	0.2716	0.2716	0.487	0.006
Mof_H 	H 	0.7284	0.7284	0.0302	0.055
Mof_H 	H 	0.487	0.9698	0.2716	0.077
Mof_H 	H 	0.7284	0.0302	0.513	0.03
Mof_H 	H 	0.2716	0.9698	0.487	0.077
Mof_H 	H 	0.2716	0.9698	0.2716	0.053
Mof_H 	H 	0.513	0.0302	0.7284	0.03
Mof_H 	H 	0.9698	0.2716	0.487	0.077
Mof_H 	H 	0.0302	0.7284	0.513	0.03
Mof_H 	H 	0.7284	0.513	0.0302	0.03
Mof_H 	H 	0.7284	0.513	0.7284	0.095
Mof_H 	H 	0.2716	0.487	0.9698	0.077
Mof_H 	H 	0.0302	0.513	0.7284	0.03
Mof_H 	H 	0.9698	0.2716	0.2716	0.053
Mof_H 	H 	0.513	0.7284	0.7284	0.095
Mof_C 	C 	0.43094	0.16226	0.97586	0.344
Mof_C 	C 	0.02414	0.56906	0.56906	0.367
Mof_C 	C 	0.43094	0.43094	0.97586	0.343
Mof_C 	C 	0.56906	0.02414	0.56906	0.367
Mof_C 	C 	0.42924	0.30044	0.96988	0.033
Mof_C 	C 	0.61353	0.03013	0.61353	-0.136
Mof_C 	C 	0.03012	0.69956	0.69956	0.05
Mof_C 	C 	0.69956	0.69956	0.03012	0.05
Mof_C 	C 	0.57076	0.69956	0.69956	0.02
Mof_C 	C 	0.74281	0.61353	0.03013	-0.111
Mof_C 	C 	0.38647	0.96987	0.25719	-0.078
Mof_C 	C 	0.43094	0.16226	0.43094	0.373
Mof_C 	C 	0.16226	0.97586	0.43094	0.344
Mof_C 	C 	0.03012	0.57076	0.69956	0.057
Mof_C 	C 	0.83774	0.56906	0.56906	0.34
Mof_C 	C 	0.97586	0.43094	0.43094	0.343
Mof_C 	C 	0.42924	0.30044	0.30044	0.081
Mof_C 	C 	0.03013	0.61353	0.74281	-0.111
Mof_C 	C 	0.69956	0.57076	0.03012	0.057
Mof_C 	C 	0.38647	0.38647	0.96987	-0.06
Mof_C 	C 	0.43094	0.97586	0.16226	0.344
Mof_C 	C 	0.38647	0.96987	0.38647	-0.06
Mof_C 	C 	0.30044	0.42924	0.30044	0.081
Mof_C 	C 	0.61353	0.74281	0.03013	-0.111
Mof_C 	C 	0.96988	0.30044	0.42924	0.033
Mof_C 	C 	0.03013	0.61353	0.61353	-0.136
Mof_C 	C 	0.57076	0.69956	0.03012	0.057
Mof_C 	C 	0.02414	0.83774	0.56906	0.348
Mof_C 	C 	0.42924	0.96988	0.30044	0.033
Mof_C 	C 	0.30044	0.96988	0.30044	0.036
Mof_C 	C 	0.03012	0.69956	0.57076	0.057
Mof_C 	C 	0.56906	0.83774	0.56906	0.34
Mof_C 	C 	0.61353	0.61353	0.74281	-0.034
Mof_C 	C 	0.38647	0.38647	0.25719	-0.172
Mof_C 	C 	0.69956	0.03012	0.69956	0.05
Mof_C 	C 	0.61353	0.61353	0.03013	-0.136
Mof_C 	C 	0.16226	0.43094	0.43094	0.373
Mof_C 	C 	0.83774	0.02414	0.56906	0.348
Mof_C 	C 	0.96988	0.30044	0.30044	0.036
Mof_C 	C 	0.57076	0.03012	0.69956	0.057
Mof_C 	C 	0.25719	0.38647	0.38647	-0.172
Mof_C 	C 	0.56906	0.02414	0.83774	0.348
Mof_C 	C 	0.25719	0.96987	0.38647	-0.078
Mof_C 	C 	0.69956	0.57076	0.69956	0.02
Mof_C 	C 	0.83774	0.56906	0.02414	0.348
Mof_C 	C 	0.38647	0.25719	0.96987	-0.078
Mof_C 	C 	0.30044	0.30044	0.96988	0.036
Mof_C 	C 	0.56906	0.56906	0.02414	0.367
Mof_C 	C 	0.03013	0.74281	0.61353	-0.111
Mof_C 	C 	0.96987	0.38647	0.25719	-0.078
Mof_C 	C 	0.30044	0.96988	0.42924	0.033
Mof_C 	C 	0.43094	0.43094	0.16226	0.373
Mof_C 	C 	0.96988	0.42924	0.30044	0.033
Mof_C 	C 	0.02414	0.56906	0.83774	0.348
Mof_C 	C 	0.97586	0.43094	0.16226	0.344
Mof_C 	C 	0.61353	0.03013	0.74281	-0.111
Mof_C 	C 	0.74281	0.61353	0.61353	-0.034
Mof_C 	C 	0.96987	0.25719	0.38647	-0.078
Mof_C 	C 	0.56906	0.83774	0.02414	0.348
Mof_C 	C 	0.30044	0.30044	0.42924	0.081
Mof_C 	C 	0.25719	0.38647	0.96987	-0.078
Mof_C 	C 	0.43094	0.97586	0.43094	0.343
Mof_C 	C 	0.61353	0.74281	0.61353	-0.034
Mof_C 	C 	0.69956	0.03012	0.57076	0.057
Mof_C 	C 	0.69956	0.69956	0.57076	0.02
Mof_C 	C 	0.74281	0.03013	0.61353	-0.111
Mof_C 	C 	0.16226	0.43094	0.97586	0.344
Mof_C 	C 	0.96987	0.38647	0.38647	-0.06
Mof_C 	C 	0.97586	0.16226	0.43094	0.344
Mof_C 	C 	0.30044	0.42924	0.96988	0.033
Mof_C 	C 	0.56906	0.56906	0.83774	0.34
Mof_C 	C 	0.38647	0.25719	0.38647	-0.172
Mof_O 	O 	0.38714	0.12592	0.97936	-0.351
Mof_O 	O 	0.61286	0.49242	0.87408	-0.282
Mof_O 	O 	0.49242	0.02064	0.87408	-0.364
Mof_O 	O 	0.38714	0.50758	0.97936	-0.29
Mof_O 	O 	0.50758	0.97936	0.38714	-0.29
Mof_O 	O 	0.50758	0.38714	0.12592	-0.472
Mof_O 	O 	0.38714	0.12592	0.50758	-0.472
Mof_O 	O 	0.02064	0.61286	0.49242	-0.46
Mof_O 	O 	0.50758	0.12592	0.97936	-0.332
Mof_O 	O 	0.87408	0.49242	0.02064	-0.364
Mof_O 	O 	0.50758	0.38714	0.97936	-0.29
Mof_O 	O 	0.02064	0.61286	0.87408	-0.343
Mof_O 	O 	0.97936	0.12592	0.38714	-0.351
Mof_O 	O 	0.61286	0.87408	0.02064	-0.343
Mof_O 	O 	0.97936	0.50758	0.38714	-0.29
Mof_O 	O 	0.97936	0.38714	0.12592	-0.351
Mof_O 	O 	0.61286	0.49242	0.02064	-0.46
Mof_O 	O 	0.61286	0.87408	0.49242	-0.282
Mof_O 	O 	0.87408	0.02064	0.61286	-0.343
Mof_O 	O 	0.12592	0.50758	0.38714	-0.472
Mof_O 	O 	0.50758	0.12592	0.38714	-0.472
Mof_O 	O 	0.97936	0.38714	0.50758	-0.29
Mof_O 	O 	0.87408	0.61286	0.49242	-0.282
Mof_O 	O 	0.02064	0.87408	0.49242	-0.364
Mof_O 	O 	0.12592	0.97936	0.38714	-0.351
Mof_O 	O 	0.38714	0.97936	0.12592	-0.351
Mof_O 	O 	0.87408	0.02064	0.49242	-0.364
Mof_O 	O 	0.87408	0.49242	0.61286	-0.282
Mof_O 	O 	0.12592	0.50758	0.97936	-0.332
Mof_O 	O 	0.49242	0.87408	0.61286	-0.282
Mof_O 	O 	0.49242	0.87408	0.02064	-0.364
Mof_O 	O 	0.97936	0.12592	0.50758	-0.332
Mof_O 	O 	0.02064	0.49242	0.87408	-0.364
Mof_O 	O 	0.02064	0.87408	0.61286	-0.343
Mof_O 	O 	0.49242	0.61286	0.02064	-0.46
Mof_O 	O 	0.38714	0.50758	0.12592	-0.472
Mof_O 	O 	0.12592	0.38714	0.97936	-0.351
Mof_O 	O 	0.87408	0.61286	0.02064	-0.343
Mof_O 	O 	0.49242	0.02064	0.61286	-0.46
Mof_O 	O 	0.61286	0.02064	0.49242	-0.46
Mof_O 	O 	0.38714	0.97936	0.50758	-0.29
Mof_O 	O 	0.61286	0.02064	0.87408	-0.343
Mof_O 	O 	0.02064	0.49242	0.61286	-0.46
Mof_O 	O 	0.97936	0.50758	0.12592	-0.332
Mof_O 	O 	0.12592	0.38714	0.50758	-0.472
Mof_O 	O 	0.12592	0.97936	0.50758	-0.332
Mof_O 	O 	0.49242	0.61286	0.87408	-0.282
Mof_O 	O 	0.50758	0.97936	0.12592	-0.332
_end
