data_functionalizedCrystal
_audit_creation_method	'EQeq! by Chris Wilmer'
_symmetry_space_group_name_H-M	'P1'
_symmetry_Int_Tables_number	1
_symmetry_cell_setting	triclinic
loop_
_symmetry_equiv_pos_as_xyz
  x,y,z
_cell_length_a	13.5004
_cell_length_b	17.0664
_cell_length_c	9.6715
_cell_angle_alpha	90
_cell_angle_beta	90
_cell_angle_gamma	90
loop_
_atom_site_label
_atom_site_type_symbol
_atom_site_fract_x
_atom_site_fract_y
_atom_site_fract_z
_atom_site_charge
Mof_O 	O 	0.1033	0.0834	0.1151	-0.479
Mof_C 	C 	0.219	0.2177	0.1226	0.002
Mof_H 	H 	0.1963	0.1971	0.207	0.034
Mof_C 	C 	0.0498	0.069	0.4205	-0.274
Mof_H 	H 	0.0162	0.1162	0.3868	-0.31
Mof_H 	H 	0.1182	0.0702	0.3868	0.912
Mof_H 	H 	0.1366	0.0465	0.3844	-0.887
Mof_O 	O 	0.6033	0.5834	0.1151	-0.461
Mof_C 	C 	0.719	0.7177	0.1226	-0.002
Mof_H 	H 	0.6963	0.6971	0.207	0.046
Mof_C 	C 	0.5498	0.569	0.4205	-0.025
Mof_H 	H 	0.5162	0.6162	0.3868	0.028
Mof_H 	H 	0.6182	0.5702	0.3868	0.027
Mof_H 	H 	0.6366	0.5465	0.3844	0.014
Mof_O 	O 	0.8967	0.9166	0.1151	-0.428
Mof_C 	C 	0.781	0.7823	0.1226	-0.013
Mof_H 	H 	0.8037	0.8029	0.207	0.052
Mof_C 	C 	0.9502	0.931	0.4205	-0.024
Mof_H 	H 	0.9838	0.8838	0.3868	0.303
Mof_H 	H 	0.8818	0.9298	0.3868	-0.207
Mof_H 	H 	0.8634	0.9535	0.3844	0.277
Mof_O 	O 	0.3967	0.4166	0.1151	-0.46
Mof_C 	C 	0.281	0.2823	0.1226	-0.02
Mof_H 	H 	0.3037	0.3029	0.207	0.047
Mof_C 	C 	0.4502	0.431	0.4205	-0.019
Mof_H 	H 	0.4838	0.3838	0.3868	0.008
Mof_H 	H 	0.3818	0.4298	0.3868	0.015
Mof_H 	H 	0.3634	0.4535	0.3844	0.024
Mof_O 	O 	0.8967	0.0834	0.8849	-0.438
Mof_C 	C 	0.781	0.2177	0.8774	0.067
Mof_H 	H 	0.8037	0.1971	0.793	0.017
Mof_C 	C 	0.9502	0.069	0.5795	-0.246
Mof_H 	H 	0.9838	0.1162	0.6132	0.425
Mof_H 	H 	0.8818	0.0702	0.6132	0.4
Mof_H 	H 	0.8634	0.0465	0.6156	-0.35
Mof_O 	O 	0.3967	0.5834	0.8849	-0.407
Mof_C 	C 	0.281	0.7177	0.8774	0.069
Mof_H 	H 	0.3037	0.6971	0.793	0.036
Mof_C 	C 	0.4502	0.569	0.5795	-0.026
Mof_H 	H 	0.4838	0.6162	0.6132	0.013
Mof_H 	H 	0.3818	0.5702	0.6132	0.038
Mof_H 	H 	0.3634	0.5465	0.6156	0.006
Mof_O 	O 	0.1033	0.9166	0.8849	-0.356
Mof_C 	C 	0.219	0.7823	0.8774	0.039
Mof_H 	H 	0.1963	0.8029	0.793	0.053
Mof_C 	C 	0.0498	0.931	0.5795	0.048
Mof_H 	H 	0.0162	0.8838	0.6132	-0.264
Mof_H 	H 	0.1182	0.9298	0.6132	0.017
Mof_H 	H 	0.1366	0.9535	0.6156	0.013
Mof_O 	O 	0.6033	0.4166	0.8849	-0.407
Mof_C 	C 	0.719	0.2823	0.8774	0.036
Mof_H 	H 	0.6963	0.3029	0.793	0.038
Mof_C 	C 	0.5498	0.431	0.5795	-0.021
Mof_H 	H 	0.5162	0.3838	0.6132	0.025
Mof_H 	H 	0.6182	0.4298	0.6132	0.008
Mof_H 	H 	0.6366	0.4535	0.6156	0.033
Mof_O 	O 	0.8967	0.9166	0.8849	-0.376
Mof_C 	C 	0.781	0.7823	0.8774	0.048
Mof_H 	H 	0.8037	0.8029	0.793	0.042
Mof_C 	C 	0.9502	0.931	0.5795	-0.026
Mof_H 	H 	0.9838	0.8838	0.6132	0.305
Mof_H 	H 	0.8818	0.9298	0.6132	-0.204
Mof_H 	H 	0.8634	0.9535	0.6156	0.277
Mof_O 	O 	0.3967	0.4166	0.8849	-0.407
Mof_C 	C 	0.281	0.2823	0.8774	0.042
Mof_H 	H 	0.3037	0.3029	0.793	0.037
Mof_C 	C 	0.4502	0.431	0.5795	-0.021
Mof_H 	H 	0.4838	0.3838	0.6132	0.01
Mof_H 	H 	0.3818	0.4298	0.6132	0.017
Mof_H 	H 	0.3634	0.4535	0.6156	0.024
Mof_O 	O 	0.1033	0.0834	0.8849	-0.427
Mof_C 	C 	0.219	0.2177	0.8774	0.062
Mof_H 	H 	0.1963	0.1971	0.793	0.024
Mof_C 	C 	0.0498	0.069	0.5795	-0.275
Mof_H 	H 	0.0162	0.1162	0.6132	-0.309
Mof_H 	H 	0.1182	0.0702	0.6132	0.912
Mof_H 	H 	0.1366	0.0465	0.6156	-0.885
Mof_O 	O 	0.6033	0.5834	0.8849	-0.407
Mof_C 	C 	0.719	0.7177	0.8774	0.06
Mof_H 	H 	0.6963	0.6971	0.793	0.037
Mof_C 	C 	0.5498	0.569	0.5795	-0.027
Mof_H 	H 	0.5162	0.6162	0.6132	0.029
Mof_H 	H 	0.6182	0.5702	0.6132	0.029
Mof_H 	H 	0.6366	0.5465	0.6156	0.015
Mof_O 	O 	0.1033	0.9166	0.1151	-0.408
Mof_C 	C 	0.219	0.7823	0.1226	-0.022
Mof_H 	H 	0.1963	0.8029	0.207	0.063
Mof_C 	C 	0.0498	0.931	0.4205	0.05
Mof_H 	H 	0.0162	0.8838	0.3868	-0.266
Mof_H 	H 	0.1182	0.9298	0.3868	0.014
Mof_H 	H 	0.1366	0.9535	0.3844	0.013
Mof_O 	O 	0.6033	0.4166	0.1151	-0.461
Mof_C 	C 	0.719	0.2823	0.1226	-0.026
Mof_H 	H 	0.6963	0.3029	0.207	0.047
Mof_C 	C 	0.5498	0.431	0.4205	-0.019
Mof_H 	H 	0.5162	0.3838	0.3868	0.024
Mof_H 	H 	0.6182	0.4298	0.3868	0.006
Mof_H 	H 	0.6366	0.4535	0.3844	0.033
Mof_O 	O 	0.8967	0.0834	0.1151	-0.491
Mof_C 	C 	0.781	0.2177	0.1226	0.006
Mof_H 	H 	0.8037	0.1971	0.207	0.026
Mof_C 	C 	0.9502	0.069	0.4205	-0.245
Mof_H 	H 	0.9838	0.1162	0.3868	0.424
Mof_H 	H 	0.8818	0.0702	0.3868	0.399
Mof_H 	H 	0.8634	0.0465	0.3844	-0.352
Mof_O 	O 	0.3967	0.5834	0.1151	-0.46
Mof_C 	C 	0.281	0.7177	0.1226	0.008
Mof_H 	H 	0.3037	0.6971	0.207	0.045
Mof_C 	C 	0.4502	0.569	0.4205	-0.024
Mof_H 	H 	0.4838	0.6162	0.3868	0.012
Mof_H 	H 	0.3818	0.5702	0.3868	0.037
Mof_H 	H 	0.3634	0.5465	0.3844	0.006
Mof_C 	C 	0.1267	0.1107	-0	0.33
Mof_C 	C 	0.1904	0.1833	-0	-0.154
Mof_C 	C 	0.6267	0.6107	-0	0.327
Mof_C 	C 	0.6904	0.6833	-0	-0.142
Mof_C 	C 	0.8733	0.8893	-0	0.318
Mof_C 	C 	0.8096	0.8167	-0	-0.127
Mof_C 	C 	0.3733	0.3893	-0	0.322
Mof_C 	C 	0.3096	0.3167	-0	-0.134
Mof_C 	C 	0.8733	0.1107	-0	0.335
Mof_C 	C 	0.8096	0.1833	-0	-0.163
Mof_C 	C 	0.3733	0.6107	-0	0.329
Mof_C 	C 	0.3096	0.6833	-0	-0.147
Mof_C 	C 	0.1267	0.8893	-0	0.311
Mof_C 	C 	0.1904	0.8167	-0	-0.113
Mof_C 	C 	0.6267	0.3893	-0	0.32
Mof_C 	C 	0.6904	0.3167	-0	-0.131
Mof_Zn	Zn	4.09295e-34	-7.08024e-34	0.15238	1.186
Mof_N 	N 	9.83888e-34	-1.41605e-33	0.3663	-0.222
Mof_Zn	Zn	0.5	0.5	0.15238	1.209
Mof_N 	N 	0.5	0.5	0.3663	-0.196
Mof_Zn	Zn	2.27672e-33	-5.66419e-33	0.84762	1.195
Mof_N 	N 	1.70213e-33	-5.66419e-33	0.6337	-0.222
Mof_Zn	Zn	0.5	0.5	0.84762	1.218
Mof_N 	N 	0.5	0.5	0.6337	-0.195
Mof_C 	C 	0.1017	0	0.4184	0.276
Mof_C 	C 	0.6017	0.5	0.4184	-0.033
Mof_C 	C 	0.8983	0	0.4184	0.007
Mof_C 	C 	0.3983	0.5	0.4184	-0.026
Mof_C 	C 	0.8983	-2.8321e-33	0.5816	0.009
Mof_C 	C 	0.3983	0.5	0.5816	-0.024
Mof_C 	C 	0.1017	-2.8321e-33	0.5816	0.277
Mof_C 	C 	0.6017	0.5	0.5816	-0.031
_end
