data_functionalizedCrystal
_audit_creation_method	'EQeq! by Chris Wilmer'
_symmetry_space_group_name_H-M	'P1'
_symmetry_Int_Tables_number	1
_symmetry_cell_setting	triclinic
loop_
_symmetry_equiv_pos_as_xyz
  x,y,z
_cell_length_a	10.5787
_cell_length_b	10.5787
_cell_length_c	15.828
_cell_angle_alpha	90
_cell_angle_beta	90
_cell_angle_gamma	104.376
loop_
_atom_site_label
_atom_site_type_symbol
_atom_site_fract_x
_atom_site_fract_y
_atom_site_fract_z
_atom_site_charge
Mof_Zn	Zn	0.12886	0.23752	0.92379	1.196
Mof_Zn	Zn	0.44207	0.27871	0.94336	1.144
Mof_Zn	Zn	0.87114	0.76248	0.42379	1.21
Mof_Zn	Zn	0.55793	0.72129	0.44336	1.165
Mof_Zn	Zn	0.76248	0.87114	0.57621	1.21
Mof_Zn	Zn	0.72129	0.55793	0.55664	1.163
Mof_Zn	Zn	0.23752	0.12886	0.07621	1.216
Mof_Zn	Zn	0.27871	0.44207	0.05664	1.176
Mof_H 	H 	0.5057	0.0805	0.712	0.04
Mof_H 	H 	0.2539	0.8299	0.5494	0.039
Mof_H 	H 	0.1146	0.0462	0.7163	0.046
Mof_H 	H 	0.4943	0.9195	0.212	0.045
Mof_H 	H 	0.7461	0.1701	0.0494	0.049
Mof_H 	H 	0.8854	0.9538	0.2163	0.045
Mof_H 	H 	0.9195	0.4943	0.788	0.039
Mof_H 	H 	0.1701	0.7461	0.9506	0.027
Mof_H 	H 	0.9538	0.8854	0.7837	0.044
Mof_H 	H 	0.0805	0.5057	0.288	0.044
Mof_H 	H 	0.8299	0.2539	0.4506	0.035
Mof_H 	H 	0.0462	0.1146	0.2837	0.042
Mof_C 	C 	0.3155	0.0891	0.7197	-0.106
Mof_C 	C 	0.4223	0.0507	0.6898	0.009
Mof_C 	C 	0.3893	0.9525	0.6152	-0.09
Mof_C 	C 	0.2675	0.8967	0.5892	0.028
Mof_C 	C 	0.1543	0.9399	0.6229	-0.097
Mof_C 	C 	0.1845	0.0257	0.6884	0.03
Mof_C 	C 	0.329	0.1744	0.7915	0.303
Mof_C 	C 	0.51	0.9014	0.5833	0.374
Mof_C 	C 	0.029	0.896	0.5772	0.362
Mof_C 	C 	0.6845	0.9109	0.2197	-0.104
Mof_C 	C 	0.5777	0.9493	0.1898	0.02
Mof_C 	C 	0.6107	0.0475	0.1152	-0.088
Mof_C 	C 	0.7325	0.1033	0.0892	0.032
Mof_C 	C 	0.8457	0.0601	0.1229	-0.1
Mof_C 	C 	0.8155	0.9743	0.1884	0.042
Mof_C 	C 	0.671	0.8256	0.2915	0.304
Mof_C 	C 	0.49	0.0986	0.0833	0.374
Mof_C 	C 	0.971	0.104	0.0772	0.356
Mof_C 	C 	0.9109	0.6845	0.7803	-0.11
Mof_C 	C 	0.9493	0.5777	0.8102	0.01
Mof_C 	C 	0.0475	0.6107	0.8848	-0.101
Mof_C 	C 	0.1033	0.7325	0.9108	0.032
Mof_C 	C 	0.0601	0.8457	0.8771	-0.109
Mof_C 	C 	0.9743	0.8155	0.8116	0.031
Mof_C 	C 	0.8256	0.671	0.7085	0.302
Mof_C 	C 	0.0986	0.49	0.9167	0.376
Mof_C 	C 	0.104	0.971	0.9228	0.365
Mof_C 	C 	0.0891	0.3155	0.2803	-0.11
Mof_C 	C 	0.0507	0.4223	0.3102	0.024
Mof_C 	C 	0.9525	0.3893	0.3848	-0.102
Mof_C 	C 	0.8967	0.2675	0.4108	0.037
Mof_C 	C 	0.9399	0.1543	0.3771	-0.113
Mof_C 	C 	0.0257	0.1845	0.3116	0.047
Mof_C 	C 	0.1744	0.329	0.2085	0.303
Mof_C 	C 	0.9014	0.51	0.4167	0.377
Mof_C 	C 	0.896	0.029	0.4228	0.357
Mof_O 	O 	0.25091	0.24609	0.8046	-0.441
Mof_O 	O 	0.43129	0.17551	0.84233	-0.491
Mof_O 	O 	0.61707	0.93693	0.6177	-0.49
Mof_O 	O 	0.47487	0.82913	0.5186	-0.519
Mof_O 	O 	0.94366	0.95314	0.60742	-0.457
Mof_O 	O 	0.01113	0.80159	0.5291	-0.453
Mof_O 	O 	0.74909	0.75391	0.3046	-0.432
Mof_O 	O 	0.56871	0.82449	0.34233	-0.473
Mof_O 	O 	0.38293	0.06307	0.1177	-0.479
Mof_O 	O 	0.52513	0.17087	0.0186	-0.49
Mof_O 	O 	0.05634	0.04686	0.10742	-0.438
Mof_O 	O 	0.98887	0.19841	0.0291	-0.428
Mof_O 	O 	0.75391	0.74909	0.6954	-0.438
Mof_O 	O 	0.82449	0.56871	0.65767	-0.477
Mof_O 	O 	0.06307	0.38293	0.8823	-0.502
Mof_O 	O 	0.17087	0.52513	0.9814	-0.551
Mof_O 	O 	0.04686	0.05634	0.89258	-0.475
Mof_O 	O 	0.19841	0.98887	0.9709	-0.484
Mof_O 	O 	0.24609	0.25091	0.1954	-0.433
Mof_O 	O 	0.17551	0.43129	0.15767	-0.462
Mof_O 	O 	0.93693	0.61707	0.3823	-0.489
Mof_O 	O 	0.82913	0.47487	0.4814	-0.521
Mof_O 	O 	0.95314	0.94366	0.39258	-0.452
Mof_O 	O 	0.80159	0.01113	0.4709	-0.458
Mof_O 	O 	0.2832	0.2832	-0	-0.934
Mof_O 	O 	0.7168	0.7168	0.5	-0.973
_end
