data_functionalizedCrystal
_audit_creation_method	'EQeq! by Chris Wilmer'
_symmetry_space_group_name_H-M	'P1'
_symmetry_Int_Tables_number	1
_symmetry_cell_setting	triclinic
loop_
_symmetry_equiv_pos_as_xyz
  x,y,z
_cell_length_a	9.0879
_cell_length_b	16.3372
_cell_length_c	16.3372
_cell_angle_alpha	63.3572
_cell_angle_beta	79.3141
_cell_angle_gamma	100.686
loop_
_atom_site_label
_atom_site_type_symbol
_atom_site_fract_x
_atom_site_fract_y
_atom_site_fract_z
_atom_site_charge
Mof_Fe	Fe	0.5	0.5	0.5	0.735
Mof_Fe	Fe	-0	0.5	-0	0.665
Mof_Fe	Fe	-2.80237e-17	2.80237e-17	0.5	0.66
Mof_H 	H 	0.6016	0.7248	0.4052	0.002
Mof_H 	H 	0.8347	0.8491	0.3144	0.099
Mof_H 	H 	0.0621	0.8181	0.2663	-0.023
Mof_H 	H 	0.0604	0.6599	0.3211	0.053
Mof_H 	H 	0.6959	0.1758	0.6035	0.094
Mof_H 	H 	0.7709	0.0486	0.6119	-0.01
Mof_H 	H 	0.1422	0.2164	0.3906	0.006
Mof_H 	H 	0.0783	0.3502	0.3792	0.103
Mof_H 	H 	0.0068	0.4052	0.87	0.012
Mof_H 	H 	0.1491	0.3144	0.8365	0.059
Mof_H 	H 	0.3284	0.2663	0.9156	0.039
Mof_H 	H 	0.3815	0.3211	0.019	0.021
Mof_H 	H 	0.2994	0.6035	0.2207	0.084
Mof_H 	H 	0.3828	0.6119	0.3395	-0.003
Mof_H 	H 	0.5328	0.3906	0.393	0.003
Mof_H 	H 	0.4575	0.3792	0.2706	0.095
Mof_H 	H 	0.8768	0.87	0.7248	-0.014
Mof_H 	H 	0.9856	0.8365	0.8491	0.128
Mof_H 	H 	0.244	0.9156	0.8181	0.012
Mof_H 	H 	0.4005	0.019	0.6599	0.035
Mof_H 	H 	0.5201	0.2207	0.1758	0.083
Mof_H 	H 	0.7223	0.3395	0.0486	-0.003
Mof_H 	H 	0.9258	0.393	0.2164	0.014
Mof_H 	H 	0.7281	0.2706	0.3502	0.096
Mof_H 	H 	0.3984	0.2752	0.5948	0.009
Mof_H 	H 	0.1653	0.1509	0.6856	0.064
Mof_H 	H 	0.9379	0.1819	0.7337	0.04
Mof_H 	H 	0.9396	0.3401	0.6789	0.106
Mof_H 	H 	0.3041	0.8242	0.3965	0.081
Mof_H 	H 	0.2291	0.9514	0.3881	0.011
Mof_H 	H 	0.8578	0.7836	0.6094	0.006
Mof_H 	H 	0.9217	0.6498	0.6208	0.087
Mof_H 	H 	0.9932	0.5948	0.13	0.005
Mof_H 	H 	0.8509	0.6856	0.1635	0.101
Mof_H 	H 	0.6716	0.7337	0.0844	-0.019
Mof_H 	H 	0.6185	0.6789	0.981	0.132
Mof_H 	H 	0.7006	0.3965	0.7793	0.092
Mof_H 	H 	0.6172	0.3881	0.6605	-0.003
Mof_H 	H 	0.4672	0.6094	0.607	0.003
Mof_H 	H 	0.5425	0.6208	0.7294	0.097
Mof_H 	H 	0.1232	0.13	0.2752	0.045
Mof_H 	H 	0.0144	0.1635	0.1509	0.002
Mof_H 	H 	0.756	0.0844	0.1819	0.024
Mof_H 	H 	0.5995	0.981	0.3401	0.108
Mof_H 	H 	0.4799	0.7793	0.8242	0.091
Mof_H 	H 	0.2777	0.6605	0.9514	0.004
Mof_H 	H 	0.0742	0.607	0.7836	-0.002
Mof_H 	H 	0.2719	0.7294	0.6498	0.094
Mof_C 	C 	0.69366	0.71132	0.38794	0.096
Mof_C 	C 	0.8336	0.7862	0.3328	-0.167
Mof_C 	C 	0.9695	0.7677	0.3056	0.104
Mof_C 	C 	0.9684	0.6743	0.3364	-0.102
Mof_C 	C 	0.82585	0.60164	0.39139	0.061
Mof_C 	C 	0.80736	0.49895	0.43147	0.095
Mof_C 	C 	0.82414	0.36252	0.4766	0.07
Mof_C 	C 	0.87735	0.27915	0.488	0.118
Mof_C 	C 	0.78729	0.18596	0.55879	-0.171
Mof_C 	C 	0.83224	0.11003	0.56281	0.114
Mof_C 	C 	0.05022	0.20814	0.43358	0.082
Mof_C 	C 	0.01212	0.28924	0.42618	-0.195
Mof_C 	C 	0.0816	0.38794	0.90074	0.051
Mof_C 	C 	0.1664	0.3328	0.881	-0.084
Mof_C 	C 	0.2751	0.3056	0.9267	-0.026
Mof_C 	C 	0.3048	0.3364	0.9893	-0.001
Mof_C 	C 	0.21724	0.39139	0.00697	-0.013
Mof_C 	C 	0.23883	0.43147	0.06958	0.106
Mof_C 	C 	0.30074	0.4766	0.16088	0.074
Mof_C 	C 	0.36535	0.488	0.23285	0.073
Mof_C 	C 	0.34608	0.55879	0.25525	-0.154
Mof_C 	C 	0.39505	0.56281	0.32716	0.099
Mof_C 	C 	0.4838	0.43358	0.35828	0.096
Mof_C 	C 	0.4383	0.42618	0.28458	-0.151
Mof_C 	C 	0.98234	0.90074	0.71132	0.16
Mof_C 	C 	0.0474	0.881	0.7862	-0.221
Mof_C 	C 	0.2018	0.9267	0.7677	0.06
Mof_C 	C 	0.2941	0.9893	0.6743	-0.045
Mof_C 	C 	0.22421	0.00697	0.60164	0.001
Mof_C 	C 	0.30841	0.06958	0.49895	0.102
Mof_C 	C 	0.46162	0.16088	0.36252	0.076
Mof_C 	C 	0.5982	0.23285	0.27915	0.073
Mof_C 	C 	0.60133	0.25525	0.18596	-0.151
Mof_C 	C 	0.72221	0.32716	0.11003	0.098
Mof_C 	C 	0.84208	0.35828	0.20814	0.095
Mof_C 	C 	0.72288	0.28458	0.28924	-0.147
Mof_C 	C 	0.30634	0.28868	0.61206	0.07
Mof_C 	C 	0.1664	0.2138	0.6672	-0.115
Mof_C 	C 	0.0305	0.2323	0.6944	0.011
Mof_C 	C 	0.0316	0.3257	0.6636	-0.156
Mof_C 	C 	0.17415	0.39836	0.60861	0.072
Mof_C 	C 	0.19264	0.50105	0.56853	0.082
Mof_C 	C 	0.17586	0.63748	0.5234	0.085
Mof_C 	C 	0.12265	0.72085	0.512	0.035
Mof_C 	C 	0.21271	0.81404	0.44121	-0.133
Mof_C 	C 	0.16776	0.88997	0.43719	0.084
Mof_C 	C 	0.94978	0.79186	0.56642	0.103
Mof_C 	C 	0.98788	0.71076	0.57382	-0.109
Mof_C 	C 	0.9184	0.61206	0.09926	0.109
Mof_C 	C 	0.8336	0.6672	0.119	-0.189
Mof_C 	C 	0.7249	0.6944	0.0733	0.132
Mof_C 	C 	0.6952	0.6636	0.0107	-0.241
Mof_C 	C 	0.78276	0.60861	0.99303	0.137
Mof_C 	C 	0.76117	0.56853	0.93042	0.075
Mof_C 	C 	0.69926	0.5234	0.83912	0.081
Mof_C 	C 	0.63465	0.512	0.76715	0.079
Mof_C 	C 	0.65392	0.44121	0.74475	-0.154
Mof_C 	C 	0.60495	0.43719	0.67284	0.103
Mof_C 	C 	0.5162	0.56642	0.64172	0.098
Mof_C 	C 	0.5617	0.57382	0.71542	-0.153
Mof_C 	C 	0.01766	0.09926	0.28868	-0.05
Mof_C 	C 	0.9526	0.119	0.2138	0.014
Mof_C 	C 	0.7982	0.0733	0.2323	0.003
Mof_C 	C 	0.7059	0.0107	0.3257	-0.171
Mof_C 	C 	0.77579	0.99303	0.39836	0.109
Mof_C 	C 	0.69159	0.93042	0.50105	0.083
Mof_C 	C 	0.53838	0.83912	0.63748	0.08
Mof_C 	C 	0.4018	0.76715	0.72085	0.076
Mof_C 	C 	0.39867	0.74475	0.81404	-0.152
Mof_C 	C 	0.27779	0.67284	0.88997	0.099
Mof_C 	C 	0.15792	0.64172	0.79186	0.095
Mof_C 	C 	0.27712	0.71542	0.71076	-0.152
Mof_N 	N 	0.68933	0.6187	0.41721	-0.197
Mof_N 	N 	0.66586	0.44003	0.48985	-0.17
Mof_N 	N 	0.67445	0.34863	0.52178	-0.095
Mof_N 	N 	0.9135	0.45528	0.41948	-0.121
Mof_N 	N 	0.96022	0.11853	0.49997	-0.184
Mof_N 	N 	0.10654	0.41721	0.96409	-0.162
Mof_N 	N 	0.15571	0.48985	0.07012	-0.175
Mof_N 	N 	0.19623	0.52178	0.12959	-0.104
Mof_N 	N 	0.33298	0.41948	0.12524	-0.135
Mof_N 	N 	0.46019	0.49997	0.3815	-0.204
Mof_N 	N 	0.07063	0.96409	0.6187	-0.187
Mof_N 	N 	0.22583	0.07012	0.44003	-0.171
Mof_N 	N 	0.32582	0.12959	0.34863	-0.101
Mof_N 	N 	0.45822	0.12524	0.45528	-0.134
Mof_N 	N 	0.84169	0.3815	0.11853	-0.192
Mof_N 	N 	0.31067	0.3813	0.58279	-0.194
Mof_N 	N 	0.33414	0.55997	0.51015	-0.169
Mof_N 	N 	0.32555	0.65137	0.47822	-0.098
Mof_N 	N 	0.0865	0.54472	0.58052	-0.137
Mof_N 	N 	0.03978	0.88147	0.50003	-0.202
Mof_N 	N 	0.89346	0.58279	0.03591	-0.207
Mof_N 	N 	0.84429	0.51015	0.92988	-0.148
Mof_N 	N 	0.80377	0.47822	0.87041	-0.089
Mof_N 	N 	0.66702	0.58052	0.87476	-0.124
Mof_N 	N 	0.53981	0.50003	0.6185	-0.205
Mof_N 	N 	0.92937	0.03591	0.3813	-0.168
Mof_N 	N 	0.77417	0.92988	0.55997	-0.151
Mof_N 	N 	0.67418	0.87041	0.65137	-0.092
Mof_N 	N 	0.54178	0.87476	0.54472	-0.126
Mof_N 	N 	0.15831	0.6185	0.88147	-0.197
_end
