data_functionalizedCrystal
_audit_creation_method	'EQeq! by Chris Wilmer'
_symmetry_space_group_name_H-M	'P1'
_symmetry_Int_Tables_number	1
_symmetry_cell_setting	triclinic
loop_
_symmetry_equiv_pos_as_xyz
  x,y,z
_cell_length_a	31.1292
_cell_length_b	31.1292
_cell_length_c	12.052
_cell_angle_alpha	90
_cell_angle_beta	90
_cell_angle_gamma	120
loop_
_atom_site_label
_atom_site_type_symbol
_atom_site_fract_x
_atom_site_fract_y
_atom_site_fract_z
_atom_site_charge
Mof_Tb	Tb	0.33288	0.99331	0.70039	2.027
Mof_O 	O 	0.338	0.0477	0.5429	-0.575
Mof_O 	O 	0.2782	0.0286	0.6631	-0.425
Mof_O 	O 	0.4197	0.0339	0.6501	-0.452
Mof_O 	O 	0.3737	0.9818	0.5185	-0.582
Mof_O 	O 	0.2658	0.9299	0.599	-0.522
Mof_O 	O 	0.3708	0.076	0.7736	-0.502
Mof_C 	C 	0.3062	0.0568	0.5868	0.354
Mof_C 	C 	0.4163	0.0083	0.5671	0.408
Mof_C 	C 	0.3047	0.1027	0.5556	-0.03
Mof_C 	C 	0.4591	0.0047	0.5293	-0.238
Mof_C 	C 	0.3424	0.1374	0.4895	-0.053
Mof_C 	C 	0.2698	0.1126	0.6005	-0.122
Mof_C 	C 	0.5072	0.0412	0.5597	-0.27
Mof_C 	C 	0.4525	0.9637	0.4689	0.637
Mof_H 	H 	0.367	0.1307	0.4617	0.037
Mof_C 	C 	0.3445	0.181	0.4638	0.054
Mof_C 	C 	0.2715	0.1581	0.575	0.17
Mof_H 	H 	0.2447	0.0891	0.648	0.1
Mof_H 	H 	0.5122	0.0695	0.6003	0.156
Mof_N 	N 	0.4065	0.9238	0.441	0.744
Mof_H 	H 	0.37	0.2039	0.4162	0.021
Mof_C 	C 	0.3092	0.1927	0.507	-0.196
Mof_N 	N 	0.2358	0.169	0.621	-0.229
Mof_H 	H 	0.3818	0.9294	0.453	-0.059
Mof_C 	C 	0.3918	0.8779	0.4	-0.175
Mof_C 	C 	0.3129	0.2412	0.4879	0.476
Mof_H 	H 	0.2447	0.2003	0.6326	0.163
Mof_C 	C 	0.1881	0.133	0.649	0.11
Mof_C 	C 	0.3353	0.8413	0.415	0.424
Mof_O 	O 	0.4201	0.864	0.366	-0.153
Mof_O 	O 	0.1869	0.1033	0.721	-0.232
Mof_C 	C 	0.1717	0.1713	0.687	0.245
Mof_H 	H 	0.3162	0.8421	0.3485	-0.087
Mof_C 	C 	0.3311	0.7905	0.427	-0.907
Mof_O 	O 	0.3176	0.8536	0.517	-0.437
Mof_O 	O 	0.2086	0.2037	0.767	-0.394
Mof_H 	H 	0.1438	0.1499	0.7387	-0.021
Mof_C 	C 	0.1429	0.1756	0.591	-0.611
Mof_H 	H 	0.3522	0.791	0.4862	0.31
Mof_H 	H 	0.2975	0.7654	0.4424	0.326
Mof_H 	H 	0.3416	0.7833	0.3585	0.3
Mof_H 	H 	0.3026	0.8689	0.5007	0.247
Mof_H 	H 	0.2262	0.1915	0.7857	0.226
Mof_H 	H 	0.1094	0.1466	0.5901	0.198
Mof_H 	H 	0.1598	0.1771	0.5214	0.21
Mof_H 	H 	0.1407	0.2058	0.5994	0.234
Mof_H 	H 	0.5799	0.0611	0.5527	-0.875
Mof_Tb	Tb	0.99955	0.32664	0.03372	2.017
Mof_O 	O 	0.00467	0.38103	0.87623	-0.577
Mof_O 	O 	0.94487	0.36193	0.99643	-0.425
Mof_O 	O 	0.08637	0.36723	0.98343	-0.453
Mof_O 	O 	0.04037	0.31513	0.85183	-0.583
Mof_O 	O 	0.93247	0.26323	0.93233	-0.52
Mof_O 	O 	0.03747	0.40933	0.10693	-0.502
Mof_C 	C 	0.97287	0.39013	0.92013	0.355
Mof_C 	C 	0.08297	0.34163	0.90043	0.407
Mof_C 	C 	0.97137	0.43603	0.88893	-0.028
Mof_C 	C 	0.12577	0.33803	0.86263	-0.24
Mof_C 	C 	0.00907	0.47073	0.82283	-0.057
Mof_C 	C 	0.93647	0.44593	0.93383	-0.124
Mof_C 	C 	0.17387	0.37453	0.89303	-0.271
Mof_C 	C 	0.11917	0.29703	0.80223	0.638
Mof_H 	H 	0.03367	0.46403	0.79503	0.037
Mof_C 	C 	0.01117	0.51433	0.79713	0.051
Mof_C 	C 	0.93817	0.49143	0.90833	0.17
Mof_H 	H 	0.91137	0.42243	0.98133	0.1
Mof_H 	H 	0.17887	0.40283	0.93363	0.154
Mof_N 	N 	0.07317	0.25713	0.77433	0.744
Mof_H 	H 	0.03667	0.53723	0.74953	0.02
Mof_C 	C 	0.97587	0.52603	0.84033	-0.196
Mof_N 	N 	0.90247	0.50233	0.95433	-0.231
Mof_H 	H 	0.04847	0.26273	0.78633	-0.06
Mof_C 	C 	0.05847	0.21123	0.73333	-0.172
Mof_C 	C 	0.97957	0.57453	0.82123	0.476
Mof_H 	H 	0.91137	0.53363	0.96593	0.163
Mof_C 	C 	0.85477	0.46633	0.98233	0.115
Mof_C 	C 	0.00197	0.17463	0.74833	0.407
Mof_O 	O 	0.08677	0.19733	0.69933	-0.154
Mof_O 	O 	0.85357	0.43663	0.05433	-0.236
Mof_C 	C 	0.83837	0.50463	0.02033	0.239
Mof_H 	H 	0.98287	0.17543	0.68183	-0.081
Mof_C 	C 	0.99777	0.12383	0.76033	-0.872
Mof_O 	O 	0.98427	0.18693	0.85033	-0.43
Mof_O 	O 	0.87527	0.53703	0.10033	-0.393
Mof_H 	H 	0.81047	0.48323	0.07203	-0.02
Mof_C 	C 	0.80957	0.50893	0.92433	-0.604
Mof_H 	H 	0.01887	0.12433	0.81953	0.299
Mof_H 	H 	0.96417	0.09873	0.77573	0.317
Mof_H 	H 	0.00827	0.11663	0.69183	0.289
Mof_H 	H 	0.96927	0.20223	0.83403	0.245
Mof_H 	H 	0.89287	0.52483	0.11903	0.225
Mof_H 	H 	0.77607	0.47993	0.92343	0.196
Mof_H 	H 	0.82647	0.51043	0.85473	0.208
Mof_H 	H 	0.80737	0.53913	0.93273	0.232
Mof_H 	H 	0.24657	0.39443	0.88603	-0.875
Mof_Tb	Tb	0.66621	0.65998	0.36706	2.026
Mof_O 	O 	0.67133	0.71437	0.20957	-0.576
Mof_O 	O 	0.61153	0.69527	0.32977	-0.427
Mof_O 	O 	0.75303	0.70057	0.31677	-0.453
Mof_O 	O 	0.70703	0.64847	0.18517	-0.583
Mof_O 	O 	0.59913	0.59657	0.26567	-0.523
Mof_O 	O 	0.70413	0.74267	0.44027	-0.504
Mof_C 	C 	0.63953	0.72347	0.25347	0.353
Mof_C 	C 	0.74963	0.67497	0.23377	0.406
Mof_C 	C 	0.63803	0.76937	0.22227	-0.031
Mof_C 	C 	0.79243	0.67137	0.19597	-0.239
Mof_C 	C 	0.67573	0.80407	0.15617	-0.054
Mof_C 	C 	0.60313	0.77927	0.26717	-0.123
Mof_C 	C 	0.84053	0.70787	0.22637	-0.272
Mof_C 	C 	0.78583	0.63037	0.13557	0.636
Mof_H 	H 	0.70033	0.79737	0.12837	0.036
Mof_C 	C 	0.67783	0.84767	0.13047	0.053
Mof_C 	C 	0.60483	0.82477	0.24167	0.169
Mof_H 	H 	0.57803	0.75577	0.31467	0.099
Mof_H 	H 	0.84553	0.73617	0.26697	0.155
Mof_N 	N 	0.73983	0.59047	0.10767	0.743
Mof_H 	H 	0.70333	0.87057	0.08287	0.02
Mof_C 	C 	0.64253	0.85937	0.17367	-0.197
Mof_N 	N 	0.56913	0.83567	0.28767	-0.23
Mof_H 	H 	0.71513	0.59607	0.11967	-0.06
Mof_C 	C 	0.72513	0.54457	0.06667	-0.176
Mof_C 	C 	0.64623	0.90787	0.15457	0.475
Mof_H 	H 	0.57803	0.86697	0.29927	0.162
Mof_C 	C 	0.52143	0.79967	0.31567	0.11
Mof_C 	C 	0.66863	0.50797	0.08167	0.424
Mof_O 	O 	0.75343	0.53067	0.03267	-0.153
Mof_O 	O 	0.52023	0.76997	0.38767	-0.233
Mof_C 	C 	0.50503	0.83797	0.35367	0.245
Mof_H 	H 	0.64953	0.50877	0.01517	-0.087
Mof_C 	C 	0.66443	0.45717	0.09367	-0.906
Mof_O 	O 	0.65093	0.52027	0.18367	-0.437
Mof_O 	O 	0.54193	0.87037	0.43367	-0.394
Mof_H 	H 	0.47713	0.81657	0.40537	-0.021
Mof_C 	C 	0.47623	0.84227	0.25767	-0.611
Mof_H 	H 	0.68553	0.45767	0.15287	0.31
Mof_H 	H 	0.63083	0.43207	0.10907	0.326
Mof_H 	H 	0.67493	0.44997	0.02517	0.3
Mof_H 	H 	0.63593	0.53557	0.16737	0.247
Mof_H 	H 	0.55953	0.85817	0.45237	0.226
Mof_H 	H 	0.44273	0.81327	0.25677	0.198
Mof_H 	H 	0.49313	0.84377	0.18807	0.21
Mof_H 	H 	0.47403	0.87247	0.26607	0.234
Mof_H 	H 	0.91323	0.72777	0.21937	-0.877
Mof_Tb	Tb	0.00669	0.33957	0.70039	2.025
Mof_O 	O 	0.9523	0.2903	0.5429	-0.575
Mof_O 	O 	0.9714	0.2496	0.6631	-0.426
Mof_O 	O 	0.9661	0.3858	0.6501	-0.453
Mof_O 	O 	0.0182	0.3919	0.5185	-0.583
Mof_O 	O 	0.0701	0.3359	0.599	-0.523
Mof_O 	O 	0.924	0.2948	0.7736	-0.502
Mof_C 	C 	0.9432	0.2494	0.5868	0.353
Mof_C 	C 	0.9917	0.408	0.5671	0.407
Mof_C 	C 	0.8973	0.202	0.5556	-0.031
Mof_C 	C 	0.9953	0.4544	0.5293	-0.239
Mof_C 	C 	0.8626	0.205	0.4895	-0.054
Mof_C 	C 	0.8874	0.1572	0.6005	-0.123
Mof_C 	C 	0.9588	0.466	0.5597	-0.271
Mof_C 	C 	0.0363	0.4888	0.4689	0.636
Mof_H 	H 	0.8693	0.2363	0.4617	0.036
Mof_C 	C 	0.819	0.1635	0.4638	0.053
Mof_C 	C 	0.8419	0.1134	0.575	0.169
Mof_H 	H 	0.9109	0.1556	0.648	0.099
Mof_H 	H 	0.9305	0.4427	0.6003	0.154
Mof_N 	N 	0.0762	0.4827	0.441	0.743
Mof_H 	H 	0.7961	0.1661	0.4162	0.02
Mof_C 	C 	0.8073	0.1165	0.507	-0.197
Mof_N 	N 	0.831	0.0668	0.621	-0.23
Mof_H 	H 	0.0706	0.4524	0.453	-0.06
Mof_C 	C 	0.1221	0.5139	0.4	-0.176
Mof_C 	C 	0.7588	0.0717	0.4879	0.475
Mof_H 	H 	0.7997	0.0444	0.6326	0.162
Mof_C 	C 	0.867	0.0551	0.649	0.109
Mof_C 	C 	0.1587	0.494	0.415	0.424
Mof_O 	O 	0.136	0.5561	0.366	-0.153
Mof_O 	O 	0.8967	0.0836	0.721	-0.231
Mof_C 	C 	0.8287	0.0004	0.687	0.25
Mof_H 	H 	0.1579	0.4741	0.3485	-0.087
Mof_C 	C 	0.2095	0.5406	0.427	-0.907
Mof_O 	O 	0.1464	0.464	0.517	-0.437
Mof_O 	O 	0.7963	0.0049	0.767	-0.394
Mof_H 	H 	0.8501	0.9939	0.7387	-0.024
Mof_C 	C 	0.8244	0.9673	0.591	-0.617
Mof_H 	H 	0.209	0.5612	0.4862	0.31
Mof_H 	H 	0.2346	0.5321	0.4424	0.326
Mof_H 	H 	0.2167	0.5583	0.3585	0.3
Mof_H 	H 	0.1311	0.4337	0.5007	0.247
Mof_H 	H 	0.8085	0.0347	0.7857	0.227
Mof_H 	H 	0.8534	0.9628	0.5901	0.2
Mof_H 	H 	0.8229	0.9827	0.5214	0.211
Mof_H 	H 	0.7942	0.9349	0.5994	0.235
Mof_H 	H 	0.9389	0.5188	0.5527	-0.875
Mof_Tb	Tb	0.67336	0.6729	0.03372	2.026
Mof_O 	O 	0.61897	0.62363	0.87623	-0.576
Mof_O 	O 	0.63807	0.58293	0.99643	-0.427
Mof_O 	O 	0.63277	0.71913	0.98343	-0.453
Mof_O 	O 	0.68487	0.72523	0.85183	-0.583
Mof_O 	O 	0.73677	0.66923	0.93233	-0.523
Mof_O 	O 	0.59067	0.62813	0.10693	-0.504
Mof_C 	C 	0.60987	0.58273	0.92013	0.353
Mof_C 	C 	0.65837	0.74133	0.90043	0.406
Mof_C 	C 	0.56397	0.53533	0.88893	-0.031
Mof_C 	C 	0.66197	0.78773	0.86263	-0.239
Mof_C 	C 	0.52927	0.53833	0.82283	-0.054
Mof_C 	C 	0.55407	0.49053	0.93383	-0.123
Mof_C 	C 	0.62547	0.79933	0.89303	-0.271
Mof_C 	C 	0.70297	0.82213	0.80223	0.636
Mof_H 	H 	0.53597	0.56963	0.79503	0.036
Mof_C 	C 	0.48567	0.49683	0.79713	0.053
Mof_C 	C 	0.50857	0.44673	0.90833	0.169
Mof_H 	H 	0.57757	0.48893	0.98133	0.099
Mof_H 	H 	0.59717	0.77603	0.93363	0.154
Mof_N 	N 	0.74287	0.81603	0.77433	0.743
Mof_H 	H 	0.46277	0.49943	0.74953	0.02
Mof_C 	C 	0.47397	0.44983	0.84033	-0.198
Mof_N 	N 	0.49767	0.40013	0.95433	-0.23
Mof_H 	H 	0.73727	0.78573	0.78633	-0.06
Mof_C 	C 	0.78877	0.84723	0.73333	-0.176
Mof_C 	C 	0.42547	0.40503	0.82123	0.475
Mof_H 	H 	0.46637	0.37773	0.96593	0.163
Mof_C 	C 	0.53367	0.38843	0.98233	0.112
Mof_C 	C 	0.82537	0.82733	0.74833	0.425
Mof_O 	O 	0.80267	0.88943	0.69933	-0.153
Mof_O 	O 	0.56337	0.41693	0.05433	-0.234
Mof_C 	C 	0.49537	0.33373	0.02033	0.242
Mof_H 	H 	0.82457	0.80743	0.68183	-0.087
Mof_C 	C 	0.87617	0.87393	0.76033	-0.908
Mof_O 	O 	0.81307	0.79733	0.85033	-0.437
Mof_O 	O 	0.46297	0.33823	0.10033	-0.394
Mof_H 	H 	0.51677	0.32723	0.07203	-0.021
Mof_C 	C 	0.49107	0.30063	0.92433	-0.608
Mof_H 	H 	0.87567	0.89453	0.81953	0.311
Mof_H 	H 	0.90127	0.86543	0.77573	0.327
Mof_H 	H 	0.88337	0.89163	0.69183	0.301
Mof_H 	H 	0.79777	0.76703	0.83403	0.247
Mof_H 	H 	0.47517	0.36803	0.11903	0.226
Mof_H 	H 	0.52007	0.29613	0.92343	0.197
Mof_H 	H 	0.48957	0.31603	0.85473	0.209
Mof_H 	H 	0.46087	0.26823	0.93273	0.233
Mof_H 	H 	0.60557	0.85213	0.88603	-0.875
Mof_Tb	Tb	0.34002	0.00624	0.36706	2.025
Mof_O 	O 	0.28563	0.95697	0.20957	-0.574
Mof_O 	O 	0.30473	0.91627	0.32977	-0.427
Mof_O 	O 	0.29943	0.05247	0.31677	-0.454
Mof_O 	O 	0.35153	0.05857	0.18517	-0.583
Mof_O 	O 	0.40343	0.00257	0.26567	-0.525
Mof_O 	O 	0.25733	0.96147	0.44027	-0.503
Mof_C 	C 	0.27653	0.91607	0.25347	0.353
Mof_C 	C 	0.32503	0.07467	0.23377	0.406
Mof_C 	C 	0.23063	0.86867	0.22227	-0.03
Mof_C 	C 	0.32863	0.12107	0.19597	-0.239
Mof_C 	C 	0.19593	0.87167	0.15617	-0.054
Mof_C 	C 	0.22073	0.82387	0.26717	-0.123
Mof_C 	C 	0.29213	0.13267	0.22637	-0.271
Mof_C 	C 	0.36963	0.15547	0.13557	0.636
Mof_H 	H 	0.20263	0.90297	0.12837	0.037
Mof_C 	C 	0.15233	0.83017	0.13047	0.053
Mof_C 	C 	0.17523	0.78007	0.24167	0.169
Mof_H 	H 	0.24423	0.82227	0.31467	0.099
Mof_H 	H 	0.26383	0.10937	0.26697	0.154
Mof_N 	N 	0.40953	0.14937	0.10767	0.743
Mof_H 	H 	0.12943	0.83277	0.08287	0.021
Mof_C 	C 	0.14063	0.78317	0.17367	-0.197
Mof_N 	N 	0.16433	0.73347	0.28767	-0.23
Mof_H 	H 	0.40393	0.11907	0.11967	-0.06
Mof_C 	C 	0.45543	0.18057	0.06667	-0.176
Mof_C 	C 	0.09213	0.73837	0.15457	0.475
Mof_H 	H 	0.13303	0.71107	0.29927	0.162
Mof_C 	C 	0.20033	0.72177	0.31567	0.11
Mof_C 	C 	0.49203	0.16067	0.08167	0.424
Mof_O 	O 	0.46933	0.22277	0.03267	-0.153
Mof_O 	O 	0.23003	0.75027	0.38767	-0.233
Mof_C 	C 	0.16203	0.66707	0.35367	0.245
Mof_H 	H 	0.49123	0.14077	0.01517	-0.088
Mof_C 	C 	0.54283	0.20727	0.09367	-0.907
Mof_O 	O 	0.47973	0.13067	0.18367	-0.437
Mof_O 	O 	0.12963	0.67157	0.43367	-0.394
Mof_H 	H 	0.18343	0.66057	0.40537	-0.022
Mof_C 	C 	0.15773	0.63397	0.25767	-0.611
Mof_H 	H 	0.54233	0.22787	0.15287	0.31
Mof_H 	H 	0.56793	0.19877	0.10907	0.326
Mof_H 	H 	0.55003	0.22497	0.02517	0.299
Mof_H 	H 	0.46443	0.10037	0.16737	0.246
Mof_H 	H 	0.14183	0.70137	0.45237	0.226
Mof_H 	H 	0.18673	0.62947	0.25677	0.198
Mof_H 	H 	0.15623	0.64937	0.18807	0.21
Mof_H 	H 	0.12753	0.60157	0.26607	0.234
Mof_H 	H 	0.27223	0.18547	0.21937	-0.875
Mof_Tb	Tb	0.66043	0.66712	0.70039	2.026
Mof_O 	O 	0.7097	0.662	0.5429	-0.576
Mof_O 	O 	0.7504	0.7218	0.6631	-0.427
Mof_O 	O 	0.6142	0.5803	0.6501	-0.453
Mof_O 	O 	0.6081	0.6263	0.5185	-0.583
Mof_O 	O 	0.6641	0.7342	0.599	-0.523
Mof_O 	O 	0.7052	0.6292	0.7736	-0.504
Mof_C 	C 	0.7506	0.6938	0.5868	0.353
Mof_C 	C 	0.592	0.5837	0.5671	0.406
Mof_C 	C 	0.798	0.6953	0.5556	-0.031
Mof_C 	C 	0.5456	0.5409	0.5293	-0.239
Mof_C 	C 	0.795	0.6576	0.4895	-0.054
Mof_C 	C 	0.8428	0.7302	0.6005	-0.123
Mof_C 	C 	0.534	0.4928	0.5597	-0.271
Mof_C 	C 	0.5112	0.5475	0.4689	0.636
Mof_H 	H 	0.7637	0.633	0.4617	0.036
Mof_C 	C 	0.8365	0.6555	0.4638	0.053
Mof_C 	C 	0.8866	0.7285	0.575	0.169
Mof_H 	H 	0.8444	0.7553	0.648	0.099
Mof_H 	H 	0.5573	0.4878	0.6003	0.154
Mof_N 	N 	0.5173	0.5935	0.441	0.743
Mof_H 	H 	0.8339	0.63	0.4162	0.02
Mof_C 	C 	0.8835	0.6908	0.507	-0.197
Mof_N 	N 	0.9332	0.7642	0.621	-0.23
Mof_H 	H 	0.5476	0.6182	0.453	-0.06
Mof_C 	C 	0.4861	0.6082	0.4	-0.176
Mof_C 	C 	0.9283	0.6871	0.4879	0.475
Mof_H 	H 	0.9556	0.7553	0.6326	0.162
Mof_C 	C 	0.9449	0.8119	0.649	0.109
Mof_C 	C 	0.506	0.6647	0.415	0.424
Mof_O 	O 	0.4439	0.5799	0.366	-0.153
Mof_O 	O 	0.9164	0.8131	0.721	-0.232
Mof_C 	C 	0.9996	0.8283	0.687	0.248
Mof_H 	H 	0.5259	0.6838	0.3485	-0.087
Mof_C 	C 	0.4594	0.6689	0.427	-0.907
Mof_O 	O 	0.536	0.6824	0.517	-0.437
Mof_O 	O 	0.9951	0.7914	0.767	-0.394
Mof_H 	H 	0.0061	0.8562	0.7387	-0.023
Mof_C 	C 	0.0327	0.8571	0.591	-0.614
Mof_H 	H 	0.4388	0.6478	0.4862	0.31
Mof_H 	H 	0.4679	0.7025	0.4424	0.326
Mof_H 	H 	0.4417	0.6584	0.3585	0.3
Mof_H 	H 	0.5663	0.6974	0.5007	0.247
Mof_H 	H 	0.9653	0.7738	0.7857	0.227
Mof_H 	H 	0.0372	0.8906	0.5901	0.199
Mof_H 	H 	0.0173	0.8402	0.5214	0.211
Mof_H 	H 	0.0651	0.8593	0.5994	0.235
Mof_H 	H 	0.4812	0.4201	0.5527	-0.875
Mof_Tb	Tb	0.3271	0.00045	0.03372	2.022
Mof_O 	O 	0.37637	0.99533	0.87623	-0.578
Mof_O 	O 	0.41707	0.05513	0.99643	-0.426
Mof_O 	O 	0.28087	0.91363	0.98343	-0.455
Mof_O 	O 	0.27477	0.95963	0.85183	-0.584
Mof_O 	O 	0.33077	0.06753	0.93233	-0.522
Mof_O 	O 	0.37187	0.96253	0.10693	-0.502
Mof_C 	C 	0.41727	0.02713	0.92013	0.355
Mof_C 	C 	0.25867	0.91703	0.90043	0.407
Mof_C 	C 	0.46467	0.02863	0.88893	-0.029
Mof_C 	C 	0.21227	0.87423	0.86263	-0.24
Mof_C 	C 	0.46167	0.99093	0.82283	-0.057
Mof_C 	C 	0.50947	0.06353	0.93383	-0.124
Mof_C 	C 	0.20067	0.82613	0.89303	-0.271
Mof_C 	C 	0.17787	0.88083	0.80223	0.637
Mof_H 	H 	0.43037	0.96633	0.79503	0.037
Mof_C 	C 	0.50317	0.98883	0.79713	0.051
Mof_C 	C 	0.55327	0.06183	0.90833	0.17
Mof_H 	H 	0.51107	0.08863	0.98133	0.1
Mof_H 	H 	0.22397	0.82113	0.93363	0.154
Mof_N 	N 	0.18397	0.92683	0.77433	0.743
Mof_H 	H 	0.50057	0.96333	0.74953	0.02
Mof_C 	C 	0.55017	0.02413	0.84033	-0.196
Mof_N 	N 	0.59987	0.09753	0.95433	-0.231
Mof_H 	H 	0.21427	0.95153	0.78633	-0.06
Mof_C 	C 	0.15277	0.94153	0.73333	-0.174
Mof_C 	C 	0.59497	0.02043	0.82123	0.477
Mof_H 	H 	0.62227	0.08863	0.96593	0.164
Mof_C 	C 	0.61157	0.14523	0.98233	0.116
Mof_C 	C 	0.17267	0.99803	0.74833	0.415
Mof_O 	O 	0.11057	0.91323	0.69933	-0.153
Mof_O 	O 	0.58307	0.14643	0.05433	-0.236
Mof_C 	C 	0.66627	0.16163	0.02033	0.237
Mof_H 	H 	0.19257	0.01713	0.68183	-0.084
Mof_C 	C 	0.12607	0.00223	0.76033	-0.888
Mof_O 	O 	0.20267	0.01573	0.85033	-0.434
Mof_O 	O 	0.66177	0.12473	0.10033	-0.393
Mof_H 	H 	0.67277	0.18953	0.07203	-0.02
Mof_C 	C 	0.69937	0.19043	0.92433	-0.602
Mof_H 	H 	0.10547	0.98113	0.81953	0.304
Mof_H 	H 	0.13457	0.03583	0.77573	0.321
Mof_H 	H 	0.10837	0.99173	0.69183	0.294
Mof_H 	H 	0.23297	0.03073	0.83403	0.246
Mof_H 	H 	0.63197	0.10713	0.11903	0.225
Mof_H 	H 	0.70387	0.22393	0.92343	0.196
Mof_H 	H 	0.68397	0.17353	0.85473	0.207
Mof_H 	H 	0.73177	0.19263	0.93273	0.232
Mof_H 	H 	0.14787	0.75343	0.88603	-0.875
Mof_Tb	Tb	0.99376	0.33379	0.36706	2.027
Mof_O 	O 	0.04303	0.32867	0.20957	-0.574
Mof_O 	O 	0.08373	0.38847	0.32977	-0.427
Mof_O 	O 	0.94753	0.24697	0.31677	-0.453
Mof_O 	O 	0.94143	0.29297	0.18517	-0.583
Mof_O 	O 	0.99743	0.40087	0.26567	-0.524
Mof_O 	O 	0.03853	0.29587	0.44027	-0.503
Mof_C 	C 	0.08393	0.36047	0.25347	0.353
Mof_C 	C 	0.92533	0.25037	0.23377	0.406
Mof_C 	C 	0.13133	0.36197	0.22227	-0.03
Mof_C 	C 	0.87893	0.20757	0.19597	-0.239
Mof_C 	C 	0.12833	0.32427	0.15617	-0.054
Mof_C 	C 	0.17613	0.39687	0.26717	-0.123
Mof_C 	C 	0.86733	0.15947	0.22637	-0.272
Mof_C 	C 	0.84453	0.21417	0.13557	0.635
Mof_H 	H 	0.09703	0.29967	0.12837	0.037
Mof_C 	C 	0.16983	0.32217	0.13047	0.053
Mof_C 	C 	0.21993	0.39517	0.24167	0.169
Mof_H 	H 	0.17773	0.42197	0.31467	0.099
Mof_H 	H 	0.89063	0.15447	0.26697	0.155
Mof_N 	N 	0.85063	0.26017	0.10767	0.743
Mof_H 	H 	0.16723	0.29667	0.08287	0.02
Mof_C 	C 	0.21683	0.35747	0.17367	-0.197
Mof_N 	N 	0.26653	0.43087	0.28767	-0.23
Mof_H 	H 	0.88093	0.28487	0.11967	-0.06
Mof_C 	C 	0.81943	0.27487	0.06667	-0.176
Mof_C 	C 	0.26163	0.35377	0.15457	0.475
Mof_H 	H 	0.28893	0.42197	0.29927	0.162
Mof_C 	C 	0.27823	0.47857	0.31567	0.11
Mof_C 	C 	0.83933	0.33137	0.08167	0.424
Mof_O 	O 	0.77723	0.24657	0.03267	-0.154
Mof_O 	O 	0.24973	0.47977	0.38767	-0.233
Mof_C 	C 	0.33293	0.49497	0.35367	0.245
Mof_H 	H 	0.85923	0.35047	0.01517	-0.088
Mof_C 	C 	0.79273	0.33557	0.09367	-0.906
Mof_O 	O 	0.86933	0.34907	0.18367	-0.437
Mof_O 	O 	0.32843	0.45807	0.43367	-0.394
Mof_H 	H 	0.33943	0.52287	0.40537	-0.021
Mof_C 	C 	0.36603	0.52377	0.25767	-0.611
Mof_H 	H 	0.77213	0.31447	0.15287	0.31
Mof_H 	H 	0.80123	0.36917	0.10907	0.326
Mof_H 	H 	0.77503	0.32507	0.02517	0.299
Mof_H 	H 	0.89963	0.36407	0.16737	0.246
Mof_H 	H 	0.29863	0.44047	0.45237	0.226
Mof_H 	H 	0.37053	0.55727	0.25677	0.198
Mof_H 	H 	0.35063	0.50687	0.18807	0.21
Mof_H 	H 	0.39843	0.52597	0.26607	0.234
Mof_H 	H 	0.81453	0.08677	0.21937	-0.876
Mof_Tb	Tb	0.66712	0.00669	0.29961	2.026
Mof_O 	O 	0.662	0.9523	0.4571	-0.576
Mof_O 	O 	0.7218	0.9714	0.3369	-0.426
Mof_O 	O 	0.5803	0.9661	0.3499	-0.453
Mof_O 	O 	0.6263	0.0182	0.4815	-0.583
Mof_O 	O 	0.7342	0.0701	0.401	-0.523
Mof_O 	O 	0.6292	0.924	0.2264	-0.503
Mof_C 	C 	0.6938	0.9432	0.4132	0.353
Mof_C 	C 	0.5837	0.9917	0.4329	0.407
Mof_C 	C 	0.6953	0.8973	0.4444	-0.031
Mof_C 	C 	0.5409	0.9953	0.4707	-0.239
Mof_C 	C 	0.6576	0.8626	0.5105	-0.054
Mof_C 	C 	0.7302	0.8874	0.3995	-0.123
Mof_C 	C 	0.4928	0.9588	0.4403	-0.271
Mof_C 	C 	0.5475	0.0363	0.5311	0.636
Mof_H 	H 	0.633	0.8693	0.5383	0.036
Mof_C 	C 	0.6555	0.819	0.5362	0.053
Mof_C 	C 	0.7285	0.8419	0.425	0.169
Mof_H 	H 	0.7553	0.9109	0.352	0.099
Mof_H 	H 	0.4878	0.9305	0.3997	0.155
Mof_N 	N 	0.5935	0.0762	0.559	0.743
Mof_H 	H 	0.63	0.7961	0.5838	0.02
Mof_C 	C 	0.6908	0.8073	0.493	-0.197
Mof_N 	N 	0.7642	0.831	0.379	-0.23
Mof_H 	H 	0.6182	0.0706	0.547	-0.06
Mof_C 	C 	0.6082	0.1221	0.6	-0.176
Mof_C 	C 	0.6871	0.7588	0.5121	0.475
Mof_H 	H 	0.7553	0.7997	0.3674	0.162
Mof_C 	C 	0.8119	0.867	0.351	0.11
Mof_C 	C 	0.6647	0.1587	0.585	0.424
Mof_O 	O 	0.5799	0.136	0.634	-0.153
Mof_O 	O 	0.8131	0.8967	0.279	-0.232
Mof_C 	C 	0.8283	0.8287	0.313	0.245
Mof_H 	H 	0.6838	0.1579	0.6515	-0.087
Mof_C 	C 	0.6689	0.2095	0.573	-0.907
Mof_O 	O 	0.6824	0.1464	0.483	-0.437
Mof_O 	O 	0.7914	0.7963	0.233	-0.394
Mof_H 	H 	0.8562	0.8501	0.2613	-0.021
Mof_C 	C 	0.8571	0.8244	0.409	-0.611
Mof_H 	H 	0.6478	0.209	0.5138	0.31
Mof_H 	H 	0.7025	0.2346	0.5576	0.326
Mof_H 	H 	0.6584	0.2167	0.6415	0.3
Mof_H 	H 	0.6974	0.1311	0.4993	0.247
Mof_H 	H 	0.7738	0.8085	0.2143	0.226
Mof_H 	H 	0.8906	0.8534	0.4099	0.198
Mof_H 	H 	0.8402	0.8229	0.4786	0.21
Mof_H 	H 	0.8593	0.7942	0.4006	0.234
Mof_H 	H 	0.4201	0.9389	0.4473	-0.875
Mof_Tb	Tb	0.33379	0.34002	0.63294	2.026
Mof_O 	O 	0.32867	0.28563	0.79043	-0.576
Mof_O 	O 	0.38847	0.30473	0.67023	-0.427
Mof_O 	O 	0.24697	0.29943	0.68323	-0.453
Mof_O 	O 	0.29297	0.35153	0.81483	-0.583
Mof_O 	O 	0.40087	0.40343	0.73433	-0.523
Mof_O 	O 	0.29587	0.25733	0.55973	-0.504
Mof_C 	C 	0.36047	0.27653	0.74653	0.353
Mof_C 	C 	0.25037	0.32503	0.76623	0.406
Mof_C 	C 	0.36197	0.23063	0.77773	-0.031
Mof_C 	C 	0.20757	0.32863	0.80403	-0.239
Mof_C 	C 	0.32427	0.19593	0.84383	-0.054
Mof_C 	C 	0.39687	0.22073	0.73283	-0.123
Mof_C 	C 	0.15947	0.29213	0.77363	-0.272
Mof_C 	C 	0.21417	0.36963	0.86443	0.636
Mof_H 	H 	0.29967	0.20263	0.87163	0.036
Mof_C 	C 	0.32217	0.15233	0.86953	0.053
Mof_C 	C 	0.39517	0.17523	0.75833	0.169
Mof_H 	H 	0.42197	0.24423	0.68533	0.099
Mof_H 	H 	0.15447	0.26383	0.73303	0.155
Mof_N 	N 	0.26017	0.40953	0.89233	0.743
Mof_H 	H 	0.29667	0.12943	0.91713	0.02
Mof_C 	C 	0.35747	0.14063	0.82633	-0.197
Mof_N 	N 	0.43087	0.16433	0.71233	-0.23
Mof_H 	H 	0.28487	0.40393	0.88033	-0.06
Mof_C 	C 	0.27487	0.45543	0.93333	-0.176
Mof_C 	C 	0.35377	0.09213	0.84543	0.475
Mof_H 	H 	0.42197	0.13303	0.70073	0.162
Mof_C 	C 	0.47857	0.20033	0.68433	0.11
Mof_C 	C 	0.33137	0.49203	0.91833	0.424
Mof_O 	O 	0.24657	0.46933	0.96733	-0.153
Mof_O 	O 	0.47977	0.23003	0.61233	-0.233
Mof_C 	C 	0.49497	0.16203	0.64633	0.245
Mof_H 	H 	0.35047	0.49123	0.98483	-0.087
Mof_C 	C 	0.33557	0.54283	0.90633	-0.906
Mof_O 	O 	0.34907	0.47973	0.81633	-0.437
Mof_O 	O 	0.45807	0.12963	0.56633	-0.394
Mof_H 	H 	0.52287	0.18343	0.59463	-0.021
Mof_C 	C 	0.52377	0.15773	0.74233	-0.611
Mof_H 	H 	0.31447	0.54233	0.84713	0.31
Mof_H 	H 	0.36917	0.56793	0.89093	0.326
Mof_H 	H 	0.32507	0.55003	0.97483	0.3
Mof_H 	H 	0.36407	0.46443	0.83263	0.247
Mof_H 	H 	0.44047	0.14183	0.54763	0.226
Mof_H 	H 	0.55727	0.18673	0.74323	0.198
Mof_H 	H 	0.50687	0.15623	0.81193	0.21
Mof_H 	H 	0.52597	0.12753	0.73393	0.234
Mof_H 	H 	0.08677	0.27223	0.78063	-0.877
Mof_Tb	Tb	0.00045	0.67336	0.96628	2.017
Mof_O 	O 	0.99533	0.61897	0.12377	-0.577
Mof_O 	O 	0.05513	0.63807	0.00357	-0.425
Mof_O 	O 	0.91363	0.63277	0.01657	-0.453
Mof_O 	O 	0.95963	0.68487	0.14817	-0.583
Mof_O 	O 	0.06753	0.73677	0.06767	-0.52
Mof_O 	O 	0.96253	0.59067	0.89307	-0.502
Mof_C 	C 	0.02713	0.60987	0.07987	0.355
Mof_C 	C 	0.91703	0.65837	0.09957	0.407
Mof_C 	C 	0.02863	0.56397	0.11107	-0.028
Mof_C 	C 	0.87423	0.66197	0.13737	-0.24
Mof_C 	C 	0.99093	0.52927	0.17717	-0.057
Mof_C 	C 	0.06353	0.55407	0.06617	-0.124
Mof_C 	C 	0.82613	0.62547	0.10697	-0.271
Mof_C 	C 	0.88083	0.70297	0.19777	0.638
Mof_H 	H 	0.96633	0.53597	0.20497	0.037
Mof_C 	C 	0.98883	0.48567	0.20287	0.051
Mof_C 	C 	0.06183	0.50857	0.09167	0.17
Mof_H 	H 	0.08863	0.57757	0.01867	0.1
Mof_H 	H 	0.82113	0.59717	0.06637	0.154
Mof_N 	N 	0.92683	0.74287	0.22567	0.744
Mof_H 	H 	0.96333	0.46277	0.25047	0.02
Mof_C 	C 	0.02413	0.47397	0.15967	-0.196
Mof_N 	N 	0.09753	0.49767	0.04567	-0.231
Mof_H 	H 	0.95153	0.73727	0.21367	-0.06
Mof_C 	C 	0.94153	0.78877	0.26667	-0.172
Mof_C 	C 	0.02043	0.42547	0.17877	0.476
Mof_H 	H 	0.08863	0.46637	0.03407	0.163
Mof_C 	C 	0.14523	0.53367	0.01767	0.115
Mof_C 	C 	0.99803	0.82537	0.25167	0.407
Mof_O 	O 	0.91323	0.80267	0.30067	-0.154
Mof_O 	O 	0.14643	0.56337	0.94567	-0.236
Mof_C 	C 	0.16163	0.49537	0.97967	0.239
Mof_H 	H 	0.01713	0.82457	0.31817	-0.081
Mof_C 	C 	0.00223	0.87617	0.23967	-0.872
Mof_O 	O 	0.01573	0.81307	0.14967	-0.43
Mof_O 	O 	0.12473	0.46297	0.89967	-0.393
Mof_H 	H 	0.18953	0.51677	0.92797	-0.02
Mof_C 	C 	0.19043	0.49107	0.07567	-0.604
Mof_H 	H 	0.98113	0.87567	0.18047	0.299
Mof_H 	H 	0.03583	0.90127	0.22427	0.317
Mof_H 	H 	0.99173	0.88337	0.30817	0.289
Mof_H 	H 	0.03073	0.79777	0.16597	0.245
Mof_H 	H 	0.10713	0.47517	0.88097	0.225
Mof_H 	H 	0.22393	0.52007	0.07657	0.196
Mof_H 	H 	0.17353	0.48957	0.14527	0.208
Mof_H 	H 	0.19263	0.46087	0.06727	0.232
Mof_H 	H 	0.75343	0.60557	0.11397	-0.875
Mof_Tb	Tb	0.99331	0.66043	0.29961	2.025
Mof_O 	O 	0.0477	0.7097	0.4571	-0.575
Mof_O 	O 	0.0286	0.7504	0.3369	-0.426
Mof_O 	O 	0.0339	0.6142	0.3499	-0.453
Mof_O 	O 	0.9818	0.6081	0.4815	-0.583
Mof_O 	O 	0.9299	0.6641	0.401	-0.523
Mof_O 	O 	0.076	0.7052	0.2264	-0.502
Mof_C 	C 	0.0568	0.7506	0.4132	0.353
Mof_C 	C 	0.0083	0.592	0.4329	0.407
Mof_C 	C 	0.1027	0.798	0.4444	-0.031
Mof_C 	C 	0.0047	0.5456	0.4707	-0.239
Mof_C 	C 	0.1374	0.795	0.5105	-0.054
Mof_C 	C 	0.1126	0.8428	0.3995	-0.123
Mof_C 	C 	0.0412	0.534	0.4403	-0.271
Mof_C 	C 	0.9637	0.5112	0.5311	0.636
Mof_H 	H 	0.1307	0.7637	0.5383	0.036
Mof_C 	C 	0.181	0.8365	0.5362	0.053
Mof_C 	C 	0.1581	0.8866	0.425	0.169
Mof_H 	H 	0.0891	0.8444	0.352	0.099
Mof_H 	H 	0.0695	0.5573	0.3997	0.154
Mof_N 	N 	0.9238	0.5173	0.559	0.743
Mof_H 	H 	0.2039	0.8339	0.5838	0.02
Mof_C 	C 	0.1927	0.8835	0.493	-0.197
Mof_N 	N 	0.169	0.9332	0.379	-0.23
Mof_H 	H 	0.9294	0.5476	0.547	-0.06
Mof_C 	C 	0.8779	0.4861	0.6	-0.176
Mof_C 	C 	0.2412	0.9283	0.5121	0.475
Mof_H 	H 	0.2003	0.9556	0.3674	0.162
Mof_C 	C 	0.133	0.9449	0.351	0.109
Mof_C 	C 	0.8413	0.506	0.585	0.424
Mof_O 	O 	0.864	0.4439	0.634	-0.153
Mof_O 	O 	0.1033	0.9164	0.279	-0.231
Mof_C 	C 	0.1713	0.9996	0.313	0.25
Mof_H 	H 	0.8421	0.5259	0.6515	-0.087
Mof_C 	C 	0.7905	0.4594	0.573	-0.907
Mof_O 	O 	0.8536	0.536	0.483	-0.437
Mof_O 	O 	0.2037	0.9951	0.233	-0.394
Mof_H 	H 	0.1499	0.0061	0.2613	-0.024
Mof_C 	C 	0.1756	0.0327	0.409	-0.617
Mof_H 	H 	0.791	0.4388	0.5138	0.31
Mof_H 	H 	0.7654	0.4679	0.5576	0.326
Mof_H 	H 	0.7833	0.4417	0.6415	0.3
Mof_H 	H 	0.8689	0.5663	0.4993	0.247
Mof_H 	H 	0.1915	0.9653	0.2143	0.227
Mof_H 	H 	0.1466	0.0372	0.4099	0.2
Mof_H 	H 	0.1771	0.0173	0.4786	0.211
Mof_H 	H 	0.2058	0.0651	0.4006	0.235
Mof_H 	H 	0.0611	0.4812	0.4473	-0.875
Mof_Tb	Tb	0.65998	0.99376	0.63294	2.025
Mof_O 	O 	0.71437	0.04303	0.79043	-0.574
Mof_O 	O 	0.69527	0.08373	0.67023	-0.427
Mof_O 	O 	0.70057	0.94753	0.68323	-0.454
Mof_O 	O 	0.64847	0.94143	0.81483	-0.583
Mof_O 	O 	0.59657	0.99743	0.73433	-0.525
Mof_O 	O 	0.74267	0.03853	0.55973	-0.503
Mof_C 	C 	0.72347	0.08393	0.74653	0.353
Mof_C 	C 	0.67497	0.92533	0.76623	0.406
Mof_C 	C 	0.76937	0.13133	0.77773	-0.03
Mof_C 	C 	0.67137	0.87893	0.80403	-0.239
Mof_C 	C 	0.80407	0.12833	0.84383	-0.054
Mof_C 	C 	0.77927	0.17613	0.73283	-0.123
Mof_C 	C 	0.70787	0.86733	0.77363	-0.271
Mof_C 	C 	0.63037	0.84453	0.86443	0.636
Mof_H 	H 	0.79737	0.09703	0.87163	0.037
Mof_C 	C 	0.84767	0.16983	0.86953	0.053
Mof_C 	C 	0.82477	0.21993	0.75833	0.169
Mof_H 	H 	0.75577	0.17773	0.68533	0.099
Mof_H 	H 	0.73617	0.89063	0.73303	0.154
Mof_N 	N 	0.59047	0.85063	0.89233	0.743
Mof_H 	H 	0.87057	0.16723	0.91713	0.021
Mof_C 	C 	0.85937	0.21683	0.82633	-0.197
Mof_N 	N 	0.83567	0.26653	0.71233	-0.23
Mof_H 	H 	0.59607	0.88093	0.88033	-0.06
Mof_C 	C 	0.54457	0.81943	0.93333	-0.176
Mof_C 	C 	0.90787	0.26163	0.84543	0.475
Mof_H 	H 	0.86697	0.28893	0.70073	0.162
Mof_C 	C 	0.79967	0.27823	0.68433	0.11
Mof_C 	C 	0.50797	0.83933	0.91833	0.424
Mof_O 	O 	0.53067	0.77723	0.96733	-0.153
Mof_O 	O 	0.76997	0.24973	0.61233	-0.233
Mof_C 	C 	0.83797	0.33293	0.64633	0.245
Mof_H 	H 	0.50877	0.85923	0.98483	-0.088
Mof_C 	C 	0.45717	0.79273	0.90633	-0.907
Mof_O 	O 	0.52027	0.86933	0.81633	-0.437
Mof_O 	O 	0.87037	0.32843	0.56633	-0.394
Mof_H 	H 	0.81657	0.33943	0.59463	-0.022
Mof_C 	C 	0.84227	0.36603	0.74233	-0.611
Mof_H 	H 	0.45767	0.77213	0.84713	0.31
Mof_H 	H 	0.43207	0.80123	0.89093	0.326
Mof_H 	H 	0.44997	0.77503	0.97483	0.299
Mof_H 	H 	0.53557	0.89963	0.83263	0.246
Mof_H 	H 	0.85817	0.29863	0.54763	0.226
Mof_H 	H 	0.81327	0.37053	0.74323	0.198
Mof_H 	H 	0.84377	0.35063	0.81193	0.21
Mof_H 	H 	0.87247	0.39843	0.73393	0.234
Mof_H 	H 	0.72777	0.81453	0.78063	-0.875
Mof_Tb	Tb	0.32664	0.3271	0.96628	2.026
Mof_O 	O 	0.38103	0.37637	0.12377	-0.576
Mof_O 	O 	0.36193	0.41707	0.00357	-0.427
Mof_O 	O 	0.36723	0.28087	0.01657	-0.453
Mof_O 	O 	0.31513	0.27477	0.14817	-0.583
Mof_O 	O 	0.26323	0.33077	0.06767	-0.523
Mof_O 	O 	0.40933	0.37187	0.89307	-0.504
Mof_C 	C 	0.39013	0.41727	0.07987	0.353
Mof_C 	C 	0.34163	0.25867	0.09957	0.406
Mof_C 	C 	0.43603	0.46467	0.11107	-0.031
Mof_C 	C 	0.33803	0.21227	0.13737	-0.239
Mof_C 	C 	0.47073	0.46167	0.17717	-0.054
Mof_C 	C 	0.44593	0.50947	0.06617	-0.123
Mof_C 	C 	0.37453	0.20067	0.10697	-0.271
Mof_C 	C 	0.29703	0.17787	0.19777	0.636
Mof_H 	H 	0.46403	0.43037	0.20497	0.036
Mof_C 	C 	0.51433	0.50317	0.20287	0.053
Mof_C 	C 	0.49143	0.55327	0.09167	0.169
Mof_H 	H 	0.42243	0.51107	0.01867	0.099
Mof_H 	H 	0.40283	0.22397	0.06637	0.154
Mof_N 	N 	0.25713	0.18397	0.22567	0.743
Mof_H 	H 	0.53723	0.50057	0.25047	0.02
Mof_C 	C 	0.52603	0.55017	0.15967	-0.198
Mof_N 	N 	0.50233	0.59987	0.04567	-0.23
Mof_H 	H 	0.26273	0.21427	0.21367	-0.06
Mof_C 	C 	0.21123	0.15277	0.26667	-0.176
Mof_C 	C 	0.57453	0.59497	0.17877	0.475
Mof_H 	H 	0.53363	0.62227	0.03407	0.163
Mof_C 	C 	0.46633	0.61157	0.01767	0.112
Mof_C 	C 	0.17463	0.17267	0.25167	0.425
Mof_O 	O 	0.19733	0.11057	0.30067	-0.153
Mof_O 	O 	0.43663	0.58307	0.94567	-0.234
Mof_C 	C 	0.50463	0.66627	0.97967	0.242
Mof_H 	H 	0.17543	0.19257	0.31817	-0.087
Mof_C 	C 	0.12383	0.12607	0.23967	-0.908
Mof_O 	O 	0.18693	0.20267	0.14967	-0.437
Mof_O 	O 	0.53703	0.66177	0.89967	-0.394
Mof_H 	H 	0.48323	0.67277	0.92797	-0.021
Mof_C 	C 	0.50893	0.69937	0.07567	-0.608
Mof_H 	H 	0.12433	0.10547	0.18047	0.311
Mof_H 	H 	0.09873	0.13457	0.22427	0.327
Mof_H 	H 	0.11663	0.10837	0.30817	0.301
Mof_H 	H 	0.20223	0.23297	0.16597	0.247
Mof_H 	H 	0.52483	0.63197	0.88097	0.226
Mof_H 	H 	0.47993	0.70387	0.07657	0.197
Mof_H 	H 	0.51043	0.68397	0.14527	0.209
Mof_H 	H 	0.53913	0.73177	0.06727	0.233
Mof_H 	H 	0.39443	0.14787	0.11397	-0.875
Mof_Tb	Tb	0.33957	0.33288	0.29961	2.026
Mof_O 	O 	0.2903	0.338	0.4571	-0.576
Mof_O 	O 	0.2496	0.2782	0.3369	-0.427
Mof_O 	O 	0.3858	0.4197	0.3499	-0.453
Mof_O 	O 	0.3919	0.3737	0.4815	-0.583
Mof_O 	O 	0.3359	0.2658	0.401	-0.523
Mof_O 	O 	0.2948	0.3708	0.2264	-0.504
Mof_C 	C 	0.2494	0.3062	0.4132	0.353
Mof_C 	C 	0.408	0.4163	0.4329	0.406
Mof_C 	C 	0.202	0.3047	0.4444	-0.031
Mof_C 	C 	0.4544	0.4591	0.4707	-0.239
Mof_C 	C 	0.205	0.3424	0.5105	-0.054
Mof_C 	C 	0.1572	0.2698	0.3995	-0.123
Mof_C 	C 	0.466	0.5072	0.4403	-0.271
Mof_C 	C 	0.4888	0.4525	0.5311	0.636
Mof_H 	H 	0.2363	0.367	0.5383	0.036
Mof_C 	C 	0.1635	0.3445	0.5362	0.053
Mof_C 	C 	0.1134	0.2715	0.425	0.169
Mof_H 	H 	0.1556	0.2447	0.352	0.099
Mof_H 	H 	0.4427	0.5122	0.3997	0.154
Mof_N 	N 	0.4827	0.4065	0.559	0.743
Mof_H 	H 	0.1661	0.37	0.5838	0.02
Mof_C 	C 	0.1165	0.3092	0.493	-0.197
Mof_N 	N 	0.0668	0.2358	0.379	-0.23
Mof_H 	H 	0.4524	0.3818	0.547	-0.06
Mof_C 	C 	0.5139	0.3918	0.6	-0.176
Mof_C 	C 	0.0717	0.3129	0.5121	0.475
Mof_H 	H 	0.0444	0.2447	0.3674	0.162
Mof_C 	C 	0.0551	0.1881	0.351	0.109
Mof_C 	C 	0.494	0.3353	0.585	0.424
Mof_O 	O 	0.5561	0.4201	0.634	-0.153
Mof_O 	O 	0.0836	0.1869	0.279	-0.232
Mof_C 	C 	0.0004	0.1717	0.313	0.248
Mof_H 	H 	0.4741	0.3162	0.6515	-0.087
Mof_C 	C 	0.5406	0.3311	0.573	-0.907
Mof_O 	O 	0.464	0.3176	0.483	-0.437
Mof_O 	O 	0.0049	0.2086	0.233	-0.394
Mof_H 	H 	0.9939	0.1438	0.2613	-0.023
Mof_C 	C 	0.9673	0.1429	0.409	-0.614
Mof_H 	H 	0.5612	0.3522	0.5138	0.31
Mof_H 	H 	0.5321	0.2975	0.5576	0.326
Mof_H 	H 	0.5583	0.3416	0.6415	0.3
Mof_H 	H 	0.4337	0.3026	0.4993	0.247
Mof_H 	H 	0.0347	0.2262	0.2143	0.227
Mof_H 	H 	0.9628	0.1094	0.4099	0.199
Mof_H 	H 	0.9827	0.1598	0.4786	0.211
Mof_H 	H 	0.9349	0.1407	0.4006	0.235
Mof_H 	H 	0.5188	0.5799	0.4473	-0.875
Mof_Tb	Tb	0.00624	0.66621	0.63294	2.027
Mof_O 	O 	0.95697	0.67133	0.79043	-0.574
Mof_O 	O 	0.91627	0.61153	0.67023	-0.427
Mof_O 	O 	0.05247	0.75303	0.68323	-0.453
Mof_O 	O 	0.05857	0.70703	0.81483	-0.583
Mof_O 	O 	0.00257	0.59913	0.73433	-0.524
Mof_O 	O 	0.96147	0.70413	0.55973	-0.503
Mof_C 	C 	0.91607	0.63953	0.74653	0.353
Mof_C 	C 	0.07467	0.74963	0.76623	0.406
Mof_C 	C 	0.86867	0.63803	0.77773	-0.03
Mof_C 	C 	0.12107	0.79243	0.80403	-0.239
Mof_C 	C 	0.87167	0.67573	0.84383	-0.054
Mof_C 	C 	0.82387	0.60313	0.73283	-0.123
Mof_C 	C 	0.13267	0.84053	0.77363	-0.272
Mof_C 	C 	0.15547	0.78583	0.86443	0.635
Mof_H 	H 	0.90297	0.70033	0.87163	0.037
Mof_C 	C 	0.83017	0.67783	0.86953	0.053
Mof_C 	C 	0.78007	0.60483	0.75833	0.169
Mof_H 	H 	0.82227	0.57803	0.68533	0.099
Mof_H 	H 	0.10937	0.84553	0.73303	0.155
Mof_N 	N 	0.14937	0.73983	0.89233	0.743
Mof_H 	H 	0.83277	0.70333	0.91713	0.02
Mof_C 	C 	0.78317	0.64253	0.82633	-0.197
Mof_N 	N 	0.73347	0.56913	0.71233	-0.23
Mof_H 	H 	0.11907	0.71513	0.88033	-0.06
Mof_C 	C 	0.18057	0.72513	0.93333	-0.176
Mof_C 	C 	0.73837	0.64623	0.84543	0.475
Mof_H 	H 	0.71107	0.57803	0.70073	0.162
Mof_C 	C 	0.72177	0.52143	0.68433	0.11
Mof_C 	C 	0.16067	0.66863	0.91833	0.424
Mof_O 	O 	0.22277	0.75343	0.96733	-0.154
Mof_O 	O 	0.75027	0.52023	0.61233	-0.233
Mof_C 	C 	0.66707	0.50503	0.64633	0.245
Mof_H 	H 	0.14077	0.64953	0.98483	-0.088
Mof_C 	C 	0.20727	0.66443	0.90633	-0.906
Mof_O 	O 	0.13067	0.65093	0.81633	-0.437
Mof_O 	O 	0.67157	0.54193	0.56633	-0.394
Mof_H 	H 	0.66057	0.47713	0.59463	-0.021
Mof_C 	C 	0.63397	0.47623	0.74233	-0.611
Mof_H 	H 	0.22787	0.68553	0.84713	0.31
Mof_H 	H 	0.19877	0.63083	0.89093	0.326
Mof_H 	H 	0.22497	0.67493	0.97483	0.299
Mof_H 	H 	0.10037	0.63593	0.83263	0.246
Mof_H 	H 	0.70137	0.55953	0.54763	0.226
Mof_H 	H 	0.62947	0.44273	0.74323	0.198
Mof_H 	H 	0.64937	0.49313	0.81193	0.21
Mof_H 	H 	0.60157	0.47403	0.73393	0.234
Mof_H 	H 	0.18547	0.91323	0.78063	-0.876
Mof_Tb	Tb	0.6729	0.99955	0.96628	2.022
Mof_O 	O 	0.62363	0.00467	0.12377	-0.578
Mof_O 	O 	0.58293	0.94487	0.00357	-0.426
Mof_O 	O 	0.71913	0.08637	0.01657	-0.455
Mof_O 	O 	0.72523	0.04037	0.14817	-0.584
Mof_O 	O 	0.66923	0.93247	0.06767	-0.522
Mof_O 	O 	0.62813	0.03747	0.89307	-0.502
Mof_C 	C 	0.58273	0.97287	0.07987	0.355
Mof_C 	C 	0.74133	0.08297	0.09957	0.407
Mof_C 	C 	0.53533	0.97137	0.11107	-0.029
Mof_C 	C 	0.78773	0.12577	0.13737	-0.24
Mof_C 	C 	0.53833	0.00907	0.17717	-0.057
Mof_C 	C 	0.49053	0.93647	0.06617	-0.124
Mof_C 	C 	0.79933	0.17387	0.10697	-0.271
Mof_C 	C 	0.82213	0.11917	0.19777	0.637
Mof_H 	H 	0.56963	0.03367	0.20497	0.037
Mof_C 	C 	0.49683	0.01117	0.20287	0.051
Mof_C 	C 	0.44673	0.93817	0.09167	0.17
Mof_H 	H 	0.48893	0.91137	0.01867	0.1
Mof_H 	H 	0.77603	0.17887	0.06637	0.154
Mof_N 	N 	0.81603	0.07317	0.22567	0.743
Mof_H 	H 	0.49943	0.03667	0.25047	0.02
Mof_C 	C 	0.44983	0.97587	0.15967	-0.196
Mof_N 	N 	0.40013	0.90247	0.04567	-0.231
Mof_H 	H 	0.78573	0.04847	0.21367	-0.06
Mof_C 	C 	0.84723	0.05847	0.26667	-0.174
Mof_C 	C 	0.40503	0.97957	0.17877	0.477
Mof_H 	H 	0.37773	0.91137	0.03407	0.164
Mof_C 	C 	0.38843	0.85477	0.01767	0.116
Mof_C 	C 	0.82733	0.00197	0.25167	0.415
Mof_O 	O 	0.88943	0.08677	0.30067	-0.153
Mof_O 	O 	0.41693	0.85357	0.94567	-0.236
Mof_C 	C 	0.33373	0.83837	0.97967	0.237
Mof_H 	H 	0.80743	0.98287	0.31817	-0.084
Mof_C 	C 	0.87393	0.99777	0.23967	-0.888
Mof_O 	O 	0.79733	0.98427	0.14967	-0.434
Mof_O 	O 	0.33823	0.87527	0.89967	-0.393
Mof_H 	H 	0.32723	0.81047	0.92797	-0.02
Mof_C 	C 	0.30063	0.80957	0.07567	-0.602
Mof_H 	H 	0.89453	0.01887	0.18047	0.304
Mof_H 	H 	0.86543	0.96417	0.22427	0.321
Mof_H 	H 	0.89163	0.00827	0.30817	0.294
Mof_H 	H 	0.76703	0.96927	0.16597	0.246
Mof_H 	H 	0.36803	0.89287	0.88097	0.225
Mof_H 	H 	0.29613	0.77607	0.07657	0.196
Mof_H 	H 	0.31603	0.82647	0.14527	0.207
Mof_H 	H 	0.26823	0.80737	0.06727	0.232
Mof_H 	H 	0.85213	0.24657	0.11397	-0.875
_end
