data_functionalizedCrystal
_audit_creation_method	'EQeq! by Chris Wilmer'
_symmetry_space_group_name_H-M	'P1'
_symmetry_Int_Tables_number	1
_symmetry_cell_setting	triclinic
loop_
_symmetry_equiv_pos_as_xyz
  x,y,z
_cell_length_a	34.8028
_cell_length_b	34.8028
_cell_length_c	24.2532
_cell_angle_alpha	90
_cell_angle_beta	90
_cell_angle_gamma	120
loop_
_atom_site_label
_atom_site_type_symbol
_atom_site_fract_x
_atom_site_fract_y
_atom_site_fract_z
_atom_site_charge
Mof_O 	O 	0.52637	0.55284	0.43431	-0.41
Mof_O 	O 	0.51136	0.5681	0.5192	-0.411
Mof_C 	C 	0.52467	0.57813	0.47022	0.366
Mof_C 	C 	0.54047	0.62521	0.45227	-0.132
Mof_C 	C 	0.5432	0.65639	0.48998	0.069
Mof_H 	H 	0.5349	0.6481	0.5273	0.022
Mof_C 	C 	0.55783	0.69926	0.47362	-0.148
Mof_H 	H 	0.5586	0.72	0.4997	0.093
Mof_C 	C 	0.57143	0.71289	0.42033	0.109
Mof_C 	C 	0.56894	0.68157	0.38341	-0.15
Mof_H 	H 	0.5776	0.6899	0.3462	0.081
Mof_C 	C 	0.55413	0.63828	0.39944	0.07
Mof_H 	H 	0.5535	0.6175	0.3735	0.022
Mof_C 	C 	0.58955	0.75987	0.40234	-0.066
Mof_C 	C 	0.62718	0.77949	0.36938	-0.043
Mof_H 	H 	0.6403	0.7623	0.3591	0.043
Mof_H 	H 	0.4908	0.7224	0.4035	0.071
Mof_O 	O 	0.19304	0.88617	0.76764	-0.41
Mof_O 	O 	0.17803	0.90143	0.85253	-0.411
Mof_C 	C 	0.19134	0.91146	0.80355	0.366
Mof_C 	C 	0.20714	0.95854	0.7856	-0.131
Mof_C 	C 	0.20987	0.98972	0.82331	0.069
Mof_H 	H 	0.20157	0.98143	0.86063	0.022
Mof_C 	C 	0.2245	0.03259	0.80695	-0.148
Mof_H 	H 	0.22527	0.05333	0.83303	0.093
Mof_C 	C 	0.2381	0.04622	0.75366	0.109
Mof_C 	C 	0.23561	0.0149	0.71674	-0.15
Mof_H 	H 	0.24427	0.02323	0.67953	0.081
Mof_C 	C 	0.2208	0.97161	0.73277	0.069
Mof_H 	H 	0.22017	0.95083	0.70683	0.022
Mof_C 	C 	0.25622	0.0932	0.73567	-0.065
Mof_C 	C 	0.29385	0.11282	0.70271	-0.042
Mof_H 	H 	0.30697	0.09563	0.69243	0.044
Mof_H 	H 	0.15747	0.05573	0.73683	0.072
Mof_O 	O 	0.8597	0.21951	0.10098	-0.409
Mof_O 	O 	0.84469	0.23477	0.18587	-0.41
Mof_C 	C 	0.858	0.2448	0.13689	0.367
Mof_C 	C 	0.8738	0.29188	0.11894	-0.131
Mof_C 	C 	0.87653	0.32306	0.15665	0.07
Mof_H 	H 	0.86823	0.31477	0.19397	0.023
Mof_C 	C 	0.89116	0.36593	0.14029	-0.147
Mof_H 	H 	0.89193	0.38667	0.16637	0.094
Mof_C 	C 	0.90476	0.37956	0.087	0.11
Mof_C 	C 	0.90227	0.34824	0.05008	-0.149
Mof_H 	H 	0.91093	0.35657	0.01287	0.082
Mof_C 	C 	0.88746	0.30495	0.06611	0.071
Mof_H 	H 	0.88683	0.28417	0.04017	0.023
Mof_C 	C 	0.92288	0.42654	0.06901	-0.065
Mof_C 	C 	0.96051	0.44616	0.03605	-0.042
Mof_H 	H 	0.97363	0.42897	0.02577	0.044
Mof_H 	H 	0.82413	0.38907	0.07017	0.072
Mof_O 	O 	0.44716	0.97353	0.43431	-0.409
Mof_O 	O 	0.4319	0.94326	0.5192	-0.41
Mof_C 	C 	0.42187	0.94654	0.47022	0.367
Mof_C 	C 	0.37479	0.91526	0.45227	-0.131
Mof_C 	C 	0.34361	0.88681	0.48998	0.07
Mof_H 	H 	0.3519	0.8868	0.5273	0.023
Mof_C 	C 	0.30074	0.85857	0.47362	-0.148
Mof_H 	H 	0.28	0.8386	0.4997	0.094
Mof_C 	C 	0.28711	0.85854	0.42033	0.11
Mof_C 	C 	0.31843	0.88737	0.38341	-0.149
Mof_H 	H 	0.3101	0.8877	0.3462	0.082
Mof_C 	C 	0.36172	0.91585	0.39944	0.071
Mof_H 	H 	0.3825	0.936	0.3735	0.023
Mof_C 	C 	0.24013	0.82968	0.40234	-0.065
Mof_C 	C 	0.22051	0.84769	0.36938	-0.042
Mof_H 	H 	0.2377	0.878	0.3591	0.044
Mof_H 	H 	0.2776	0.7684	0.4035	0.072
Mof_O 	O 	0.11383	0.30686	0.76764	-0.409
Mof_O 	O 	0.09857	0.27659	0.85253	-0.41
Mof_C 	C 	0.08854	0.27987	0.80355	0.367
Mof_C 	C 	0.04146	0.24859	0.7856	-0.13
Mof_C 	C 	0.01028	0.22014	0.82331	0.07
Mof_H 	H 	0.01857	0.22013	0.86063	0.023
Mof_C 	C 	0.96741	0.1919	0.80695	-0.147
Mof_H 	H 	0.94667	0.17193	0.83303	0.094
Mof_C 	C 	0.95378	0.19187	0.75366	0.109
Mof_C 	C 	0.9851	0.2207	0.71674	-0.149
Mof_H 	H 	0.97677	0.22103	0.67953	0.082
Mof_C 	C 	0.02839	0.24918	0.73277	0.07
Mof_H 	H 	0.04917	0.26933	0.70683	0.023
Mof_C 	C 	0.9068	0.16301	0.73567	-0.065
Mof_C 	C 	0.88718	0.18102	0.70271	-0.042
Mof_H 	H 	0.90437	0.21133	0.69243	0.044
Mof_H 	H 	0.94427	0.10173	0.73683	0.072
Mof_O 	O 	0.78049	0.6402	0.10098	-0.409
Mof_O 	O 	0.76523	0.60993	0.18587	-0.41
Mof_C 	C 	0.7552	0.61321	0.13689	0.367
Mof_C 	C 	0.70812	0.58193	0.11894	-0.131
Mof_C 	C 	0.67694	0.55348	0.15665	0.07
Mof_H 	H 	0.68523	0.55347	0.19397	0.023
Mof_C 	C 	0.63407	0.52524	0.14029	-0.147
Mof_H 	H 	0.61333	0.50527	0.16637	0.094
Mof_C 	C 	0.62044	0.52521	0.087	0.11
Mof_C 	C 	0.65176	0.55404	0.05008	-0.149
Mof_H 	H 	0.64343	0.55437	0.01287	0.082
Mof_C 	C 	0.69505	0.58252	0.06611	0.071
Mof_H 	H 	0.71583	0.60267	0.04017	0.023
Mof_C 	C 	0.57346	0.49635	0.06901	-0.065
Mof_C 	C 	0.55384	0.51436	0.03605	-0.042
Mof_H 	H 	0.57103	0.54467	0.02577	0.044
Mof_H 	H 	0.61093	0.43507	0.07017	0.072
Mof_O 	O 	0.02647	0.47363	0.43431	-0.409
Mof_O 	O 	0.05674	0.48864	0.5192	-0.41
Mof_C 	C 	0.05346	0.47533	0.47022	0.367
Mof_C 	C 	0.08474	0.45953	0.45227	-0.131
Mof_C 	C 	0.11319	0.4568	0.48998	0.07
Mof_H 	H 	0.1132	0.4651	0.5273	0.023
Mof_C 	C 	0.14143	0.44217	0.47362	-0.147
Mof_H 	H 	0.1614	0.4414	0.4997	0.094
Mof_C 	C 	0.14146	0.42857	0.42033	0.11
Mof_C 	C 	0.11263	0.43106	0.38341	-0.149
Mof_H 	H 	0.1123	0.4224	0.3462	0.082
Mof_C 	C 	0.08415	0.44587	0.39944	0.071
Mof_H 	H 	0.064	0.4465	0.3735	0.023
Mof_C 	C 	0.17032	0.41045	0.40234	-0.065
Mof_C 	C 	0.15231	0.37282	0.36938	-0.042
Mof_H 	H 	0.122	0.3597	0.3591	0.044
Mof_H 	H 	0.2316	0.5092	0.4035	0.072
Mof_O 	O 	0.69314	0.80696	0.76764	-0.409
Mof_O 	O 	0.72341	0.82197	0.85253	-0.41
Mof_C 	C 	0.72013	0.80866	0.80355	0.367
Mof_C 	C 	0.75141	0.79286	0.7856	-0.131
Mof_C 	C 	0.77986	0.79013	0.82331	0.07
Mof_H 	H 	0.77987	0.79843	0.86063	0.023
Mof_C 	C 	0.8081	0.7755	0.80695	-0.147
Mof_H 	H 	0.82807	0.77473	0.83303	0.094
Mof_C 	C 	0.80813	0.7619	0.75366	0.11
Mof_C 	C 	0.7793	0.76439	0.71674	-0.149
Mof_H 	H 	0.77897	0.75573	0.67953	0.082
Mof_C 	C 	0.75082	0.7792	0.73277	0.071
Mof_H 	H 	0.73067	0.77983	0.70683	0.023
Mof_C 	C 	0.83699	0.74378	0.73567	-0.065
Mof_C 	C 	0.81898	0.70615	0.70271	-0.042
Mof_H 	H 	0.78867	0.69303	0.69243	0.044
Mof_H 	H 	0.89827	0.84253	0.73683	0.072
Mof_O 	O 	0.3598	0.1403	0.10098	-0.409
Mof_O 	O 	0.39007	0.15531	0.18587	-0.41
Mof_C 	C 	0.38679	0.142	0.13689	0.367
Mof_C 	C 	0.41807	0.1262	0.11894	-0.131
Mof_C 	C 	0.44652	0.12347	0.15665	0.07
Mof_H 	H 	0.44653	0.13177	0.19397	0.023
Mof_C 	C 	0.47476	0.10884	0.14029	-0.147
Mof_H 	H 	0.49473	0.10807	0.16637	0.094
Mof_C 	C 	0.47479	0.09524	0.087	0.11
Mof_C 	C 	0.44596	0.09773	0.05008	-0.149
Mof_H 	H 	0.44563	0.08907	0.01287	0.082
Mof_C 	C 	0.41748	0.11254	0.06611	0.071
Mof_H 	H 	0.39733	0.11317	0.04017	0.023
Mof_C 	C 	0.50365	0.07712	0.06901	-0.065
Mof_C 	C 	0.48564	0.03949	0.03605	-0.042
Mof_H 	H 	0.45533	0.02637	0.02577	0.044
Mof_H 	H 	0.56493	0.17587	0.07017	0.072
Mof_O 	O 	0.55284	0.52637	0.56569	-0.409
Mof_O 	O 	0.5681	0.51136	0.4808	-0.41
Mof_C 	C 	0.57813	0.52467	0.52978	0.367
Mof_C 	C 	0.62521	0.54047	0.54773	-0.131
Mof_C 	C 	0.65639	0.5432	0.51002	0.07
Mof_H 	H 	0.6481	0.5349	0.4727	0.023
Mof_C 	C 	0.69926	0.55783	0.52638	-0.147
Mof_H 	H 	0.72	0.5586	0.5003	0.094
Mof_C 	C 	0.71289	0.57143	0.57967	0.11
Mof_C 	C 	0.68157	0.56894	0.61659	-0.149
Mof_H 	H 	0.6899	0.5776	0.6538	0.082
Mof_C 	C 	0.63828	0.55413	0.60056	0.071
Mof_H 	H 	0.6175	0.5535	0.6265	0.023
Mof_C 	C 	0.75987	0.58955	0.59766	-0.065
Mof_C 	C 	0.77949	0.62718	0.63062	-0.042
Mof_H 	H 	0.7623	0.6403	0.6409	0.044
Mof_H 	H 	0.7224	0.4908	0.5965	0.072
Mof_O 	O 	0.21951	0.8597	0.89902	-0.409
Mof_O 	O 	0.23477	0.84469	0.81413	-0.41
Mof_C 	C 	0.2448	0.858	0.86311	0.367
Mof_C 	C 	0.29188	0.8738	0.88106	-0.131
Mof_C 	C 	0.32306	0.87653	0.84335	0.07
Mof_H 	H 	0.31477	0.86823	0.80603	0.023
Mof_C 	C 	0.36593	0.89116	0.85971	-0.147
Mof_H 	H 	0.38667	0.89193	0.83363	0.094
Mof_C 	C 	0.37956	0.90476	0.913	0.11
Mof_C 	C 	0.34824	0.90227	0.94992	-0.149
Mof_H 	H 	0.35657	0.91093	0.98713	0.082
Mof_C 	C 	0.30495	0.88746	0.93389	0.071
Mof_H 	H 	0.28417	0.88683	0.95983	0.023
Mof_C 	C 	0.42654	0.92288	0.93099	-0.065
Mof_C 	C 	0.44616	0.96051	0.96395	-0.042
Mof_H 	H 	0.42897	0.97363	0.97423	0.044
Mof_H 	H 	0.38907	0.82413	0.92983	0.072
Mof_O 	O 	0.88617	0.19304	0.23236	-0.409
Mof_O 	O 	0.90143	0.17803	0.14747	-0.41
Mof_C 	C 	0.91146	0.19134	0.19645	0.367
Mof_C 	C 	0.95854	0.20714	0.2144	-0.13
Mof_C 	C 	0.98972	0.20987	0.17669	0.07
Mof_H 	H 	0.98143	0.20157	0.13937	0.023
Mof_C 	C 	0.03259	0.2245	0.19305	-0.147
Mof_H 	H 	0.05333	0.22527	0.16697	0.094
Mof_C 	C 	0.04622	0.2381	0.24634	0.11
Mof_C 	C 	0.0149	0.23561	0.28326	-0.149
Mof_H 	H 	0.02323	0.24427	0.32047	0.082
Mof_C 	C 	0.97161	0.2208	0.26723	0.07
Mof_H 	H 	0.95083	0.22017	0.29317	0.023
Mof_C 	C 	0.0932	0.25622	0.26433	-0.065
Mof_C 	C 	0.11282	0.29385	0.29729	-0.042
Mof_H 	H 	0.09563	0.30697	0.30757	0.044
Mof_H 	H 	0.05573	0.15747	0.26317	0.072
Mof_O 	O 	0.97353	0.44716	0.56569	-0.409
Mof_O 	O 	0.94326	0.4319	0.4808	-0.41
Mof_C 	C 	0.94654	0.42187	0.52978	0.367
Mof_C 	C 	0.91526	0.37479	0.54773	-0.131
Mof_C 	C 	0.88681	0.34361	0.51002	0.07
Mof_H 	H 	0.8868	0.3519	0.4727	0.023
Mof_C 	C 	0.85857	0.30074	0.52638	-0.148
Mof_H 	H 	0.8386	0.28	0.5003	0.094
Mof_C 	C 	0.85854	0.28711	0.57967	0.11
Mof_C 	C 	0.88737	0.31843	0.61659	-0.149
Mof_H 	H 	0.8877	0.3101	0.6538	0.082
Mof_C 	C 	0.91585	0.36172	0.60056	0.071
Mof_H 	H 	0.936	0.3825	0.6265	0.023
Mof_C 	C 	0.82968	0.24013	0.59766	-0.065
Mof_C 	C 	0.84769	0.22051	0.63062	-0.042
Mof_H 	H 	0.878	0.2377	0.6409	0.044
Mof_H 	H 	0.7684	0.2776	0.5965	0.072
Mof_O 	O 	0.6402	0.78049	0.89902	-0.409
Mof_O 	O 	0.60993	0.76523	0.81413	-0.41
Mof_C 	C 	0.61321	0.7552	0.86311	0.367
Mof_C 	C 	0.58193	0.70812	0.88106	-0.131
Mof_C 	C 	0.55348	0.67694	0.84335	0.07
Mof_H 	H 	0.55347	0.68523	0.80603	0.023
Mof_C 	C 	0.52524	0.63407	0.85971	-0.147
Mof_H 	H 	0.50527	0.61333	0.83363	0.094
Mof_C 	C 	0.52521	0.62044	0.913	0.11
Mof_C 	C 	0.55404	0.65176	0.94992	-0.149
Mof_H 	H 	0.55437	0.64343	0.98713	0.082
Mof_C 	C 	0.58252	0.69505	0.93389	0.071
Mof_H 	H 	0.60267	0.71583	0.95983	0.023
Mof_C 	C 	0.49635	0.57346	0.93099	-0.065
Mof_C 	C 	0.51436	0.55384	0.96395	-0.042
Mof_H 	H 	0.54467	0.57103	0.97423	0.044
Mof_H 	H 	0.43507	0.61093	0.92983	0.072
Mof_O 	O 	0.30686	0.11383	0.23236	-0.409
Mof_O 	O 	0.27659	0.09857	0.14747	-0.41
Mof_C 	C 	0.27987	0.08854	0.19645	0.367
Mof_C 	C 	0.24859	0.04146	0.2144	-0.13
Mof_C 	C 	0.22014	0.01028	0.17669	0.07
Mof_H 	H 	0.22013	0.01857	0.13937	0.023
Mof_C 	C 	0.1919	0.96741	0.19305	-0.147
Mof_H 	H 	0.17193	0.94667	0.16697	0.094
Mof_C 	C 	0.19187	0.95378	0.24634	0.109
Mof_C 	C 	0.2207	0.9851	0.28326	-0.149
Mof_H 	H 	0.22103	0.97677	0.32047	0.082
Mof_C 	C 	0.24918	0.02839	0.26723	0.07
Mof_H 	H 	0.26933	0.04917	0.29317	0.023
Mof_C 	C 	0.16301	0.9068	0.26433	-0.065
Mof_C 	C 	0.18102	0.88718	0.29729	-0.042
Mof_H 	H 	0.21133	0.90437	0.30757	0.044
Mof_H 	H 	0.10173	0.94427	0.26317	0.072
Mof_O 	O 	0.47363	0.02647	0.56569	-0.409
Mof_O 	O 	0.48864	0.05674	0.4808	-0.41
Mof_C 	C 	0.47533	0.05346	0.52978	0.367
Mof_C 	C 	0.45953	0.08474	0.54773	-0.131
Mof_C 	C 	0.4568	0.11319	0.51002	0.07
Mof_H 	H 	0.4651	0.1132	0.4727	0.023
Mof_C 	C 	0.44217	0.14143	0.52638	-0.147
Mof_H 	H 	0.4414	0.1614	0.5003	0.094
Mof_C 	C 	0.42857	0.14146	0.57967	0.11
Mof_C 	C 	0.43106	0.11263	0.61659	-0.149
Mof_H 	H 	0.4224	0.1123	0.6538	0.082
Mof_C 	C 	0.44587	0.08415	0.60056	0.071
Mof_H 	H 	0.4465	0.064	0.6265	0.023
Mof_C 	C 	0.41045	0.17032	0.59766	-0.065
Mof_C 	C 	0.37282	0.15231	0.63062	-0.042
Mof_H 	H 	0.3597	0.122	0.6409	0.044
Mof_H 	H 	0.5092	0.2316	0.5965	0.072
Mof_O 	O 	0.1403	0.3598	0.89902	-0.409
Mof_O 	O 	0.15531	0.39007	0.81413	-0.41
Mof_C 	C 	0.142	0.38679	0.86311	0.367
Mof_C 	C 	0.1262	0.41807	0.88106	-0.131
Mof_C 	C 	0.12347	0.44652	0.84335	0.07
Mof_H 	H 	0.13177	0.44653	0.80603	0.023
Mof_C 	C 	0.10884	0.47476	0.85971	-0.147
Mof_H 	H 	0.10807	0.49473	0.83363	0.094
Mof_C 	C 	0.09524	0.47479	0.913	0.11
Mof_C 	C 	0.09773	0.44596	0.94992	-0.149
Mof_H 	H 	0.08907	0.44563	0.98713	0.082
Mof_C 	C 	0.11254	0.41748	0.93389	0.071
Mof_H 	H 	0.11317	0.39733	0.95983	0.023
Mof_C 	C 	0.07712	0.50365	0.93099	-0.065
Mof_C 	C 	0.03949	0.48564	0.96395	-0.042
Mof_H 	H 	0.02637	0.45533	0.97423	0.044
Mof_H 	H 	0.17587	0.56493	0.92983	0.072
Mof_O 	O 	0.80696	0.69314	0.23236	-0.409
Mof_O 	O 	0.82197	0.72341	0.14747	-0.41
Mof_C 	C 	0.80866	0.72013	0.19645	0.367
Mof_C 	C 	0.79286	0.75141	0.2144	-0.131
Mof_C 	C 	0.79013	0.77986	0.17669	0.07
Mof_H 	H 	0.79843	0.77987	0.13937	0.023
Mof_C 	C 	0.7755	0.8081	0.19305	-0.147
Mof_H 	H 	0.77473	0.82807	0.16697	0.094
Mof_C 	C 	0.7619	0.80813	0.24634	0.11
Mof_C 	C 	0.76439	0.7793	0.28326	-0.149
Mof_H 	H 	0.75573	0.77897	0.32047	0.082
Mof_C 	C 	0.7792	0.75082	0.26723	0.071
Mof_H 	H 	0.77983	0.73067	0.29317	0.023
Mof_C 	C 	0.74378	0.83699	0.26433	-0.065
Mof_C 	C 	0.70615	0.81898	0.29729	-0.042
Mof_H 	H 	0.69303	0.78867	0.30757	0.044
Mof_H 	H 	0.84253	0.89827	0.26317	0.072
Mof_O 	O 	0.47363	0.44716	0.56569	-0.409
Mof_O 	O 	0.48864	0.4319	0.4808	-0.41
Mof_C 	C 	0.47533	0.42187	0.52978	0.367
Mof_C 	C 	0.45953	0.37479	0.54773	-0.131
Mof_C 	C 	0.4568	0.34361	0.51002	0.07
Mof_H 	H 	0.4651	0.3519	0.4727	0.023
Mof_C 	C 	0.44217	0.30074	0.52638	-0.147
Mof_H 	H 	0.4414	0.28	0.5003	0.094
Mof_C 	C 	0.42857	0.28711	0.57967	0.11
Mof_C 	C 	0.43106	0.31843	0.61659	-0.149
Mof_H 	H 	0.4224	0.3101	0.6538	0.082
Mof_C 	C 	0.44587	0.36172	0.60056	0.071
Mof_H 	H 	0.4465	0.3825	0.6265	0.023
Mof_C 	C 	0.41045	0.24013	0.59766	-0.065
Mof_C 	C 	0.37282	0.22051	0.63062	-0.042
Mof_H 	H 	0.3597	0.2377	0.6409	0.044
Mof_H 	H 	0.5092	0.2776	0.5965	0.072
Mof_O 	O 	0.1403	0.78049	0.89902	-0.409
Mof_O 	O 	0.15531	0.76523	0.81413	-0.41
Mof_C 	C 	0.142	0.7552	0.86311	0.367
Mof_C 	C 	0.1262	0.70812	0.88106	-0.131
Mof_C 	C 	0.12347	0.67694	0.84335	0.07
Mof_H 	H 	0.13177	0.68523	0.80603	0.023
Mof_C 	C 	0.10884	0.63407	0.85971	-0.147
Mof_H 	H 	0.10807	0.61333	0.83363	0.094
Mof_C 	C 	0.09524	0.62044	0.913	0.11
Mof_C 	C 	0.09773	0.65176	0.94992	-0.149
Mof_H 	H 	0.08907	0.64343	0.98713	0.082
Mof_C 	C 	0.11254	0.69505	0.93389	0.071
Mof_H 	H 	0.11317	0.71583	0.95983	0.023
Mof_C 	C 	0.07712	0.57346	0.93099	-0.065
Mof_C 	C 	0.03949	0.55384	0.96395	-0.042
Mof_H 	H 	0.02637	0.57103	0.97423	0.044
Mof_H 	H 	0.17587	0.61093	0.92983	0.072
Mof_O 	O 	0.80696	0.11383	0.23236	-0.409
Mof_O 	O 	0.82197	0.09857	0.14747	-0.41
Mof_C 	C 	0.80866	0.08854	0.19645	0.367
Mof_C 	C 	0.79286	0.04146	0.2144	-0.13
Mof_C 	C 	0.79013	0.01028	0.17669	0.07
Mof_H 	H 	0.79843	0.01857	0.13937	0.023
Mof_C 	C 	0.7755	0.96741	0.19305	-0.147
Mof_H 	H 	0.77473	0.94667	0.16697	0.094
Mof_C 	C 	0.7619	0.95378	0.24634	0.11
Mof_C 	C 	0.76439	0.9851	0.28326	-0.149
Mof_H 	H 	0.75573	0.97677	0.32047	0.082
Mof_C 	C 	0.7792	0.02839	0.26723	0.07
Mof_H 	H 	0.77983	0.04917	0.29317	0.023
Mof_C 	C 	0.74378	0.9068	0.26433	-0.065
Mof_C 	C 	0.70615	0.88718	0.29729	-0.042
Mof_H 	H 	0.69303	0.90437	0.30757	0.044
Mof_H 	H 	0.84253	0.94427	0.26317	0.072
Mof_O 	O 	0.55284	0.02647	0.56569	-0.409
Mof_O 	O 	0.5681	0.05674	0.4808	-0.41
Mof_C 	C 	0.57813	0.05346	0.52978	0.367
Mof_C 	C 	0.62521	0.08474	0.54773	-0.131
Mof_C 	C 	0.65639	0.11319	0.51002	0.07
Mof_H 	H 	0.6481	0.1132	0.4727	0.023
Mof_C 	C 	0.69926	0.14143	0.52638	-0.148
Mof_H 	H 	0.72	0.1614	0.5003	0.094
Mof_C 	C 	0.71289	0.14146	0.57967	0.11
Mof_C 	C 	0.68157	0.11263	0.61659	-0.149
Mof_H 	H 	0.6899	0.1123	0.6538	0.082
Mof_C 	C 	0.63828	0.08415	0.60056	0.071
Mof_H 	H 	0.6175	0.064	0.6265	0.023
Mof_C 	C 	0.75987	0.17032	0.59766	-0.065
Mof_C 	C 	0.77949	0.15231	0.63062	-0.042
Mof_H 	H 	0.7623	0.122	0.6409	0.044
Mof_H 	H 	0.7224	0.2316	0.5965	0.072
Mof_O 	O 	0.21951	0.3598	0.89902	-0.409
Mof_O 	O 	0.23477	0.39007	0.81413	-0.41
Mof_C 	C 	0.2448	0.38679	0.86311	0.367
Mof_C 	C 	0.29188	0.41807	0.88106	-0.131
Mof_C 	C 	0.32306	0.44652	0.84335	0.07
Mof_H 	H 	0.31477	0.44653	0.80603	0.023
Mof_C 	C 	0.36593	0.47476	0.85971	-0.147
Mof_H 	H 	0.38667	0.49473	0.83363	0.094
Mof_C 	C 	0.37956	0.47479	0.913	0.11
Mof_C 	C 	0.34824	0.44596	0.94992	-0.149
Mof_H 	H 	0.35657	0.44563	0.98713	0.082
Mof_C 	C 	0.30495	0.41748	0.93389	0.071
Mof_H 	H 	0.28417	0.39733	0.95983	0.023
Mof_C 	C 	0.42654	0.50365	0.93099	-0.065
Mof_C 	C 	0.44616	0.48564	0.96395	-0.042
Mof_H 	H 	0.42897	0.45533	0.97423	0.044
Mof_H 	H 	0.38907	0.56493	0.92983	0.072
Mof_O 	O 	0.88617	0.69314	0.23236	-0.409
Mof_O 	O 	0.90143	0.72341	0.14747	-0.41
Mof_C 	C 	0.91146	0.72013	0.19645	0.367
Mof_C 	C 	0.95854	0.75141	0.2144	-0.13
Mof_C 	C 	0.98972	0.77986	0.17669	0.07
Mof_H 	H 	0.98143	0.77987	0.13937	0.023
Mof_C 	C 	0.03259	0.8081	0.19305	-0.147
Mof_H 	H 	0.05333	0.82807	0.16697	0.094
Mof_C 	C 	0.04622	0.80813	0.24634	0.109
Mof_C 	C 	0.0149	0.7793	0.28326	-0.149
Mof_H 	H 	0.02323	0.77897	0.32047	0.082
Mof_C 	C 	0.97161	0.75082	0.26723	0.07
Mof_H 	H 	0.95083	0.73067	0.29317	0.023
Mof_C 	C 	0.0932	0.83699	0.26433	-0.065
Mof_C 	C 	0.11282	0.81898	0.29729	-0.042
Mof_H 	H 	0.09563	0.78867	0.30757	0.044
Mof_H 	H 	0.05573	0.89827	0.26317	0.072
Mof_O 	O 	0.97353	0.52637	0.56569	-0.409
Mof_O 	O 	0.94326	0.51136	0.4808	-0.41
Mof_C 	C 	0.94654	0.52467	0.52978	0.367
Mof_C 	C 	0.91526	0.54047	0.54773	-0.131
Mof_C 	C 	0.88681	0.5432	0.51002	0.07
Mof_H 	H 	0.8868	0.5349	0.4727	0.023
Mof_C 	C 	0.85857	0.55783	0.52638	-0.147
Mof_H 	H 	0.8386	0.5586	0.5003	0.094
Mof_C 	C 	0.85854	0.57143	0.57967	0.11
Mof_C 	C 	0.88737	0.56894	0.61659	-0.149
Mof_H 	H 	0.8877	0.5776	0.6538	0.082
Mof_C 	C 	0.91585	0.55413	0.60056	0.071
Mof_H 	H 	0.936	0.5535	0.6265	0.023
Mof_C 	C 	0.82968	0.58955	0.59766	-0.065
Mof_C 	C 	0.84769	0.62718	0.63062	-0.042
Mof_H 	H 	0.878	0.6403	0.6409	0.044
Mof_H 	H 	0.7684	0.4908	0.5965	0.072
Mof_O 	O 	0.6402	0.8597	0.89902	-0.409
Mof_O 	O 	0.60993	0.84469	0.81413	-0.41
Mof_C 	C 	0.61321	0.858	0.86311	0.367
Mof_C 	C 	0.58193	0.8738	0.88106	-0.131
Mof_C 	C 	0.55348	0.87653	0.84335	0.07
Mof_H 	H 	0.55347	0.86823	0.80603	0.023
Mof_C 	C 	0.52524	0.89116	0.85971	-0.147
Mof_H 	H 	0.50527	0.89193	0.83363	0.094
Mof_C 	C 	0.52521	0.90476	0.913	0.11
Mof_C 	C 	0.55404	0.90227	0.94992	-0.149
Mof_H 	H 	0.55437	0.91093	0.98713	0.082
Mof_C 	C 	0.58252	0.88746	0.93389	0.071
Mof_H 	H 	0.60267	0.88683	0.95983	0.023
Mof_C 	C 	0.49635	0.92288	0.93099	-0.065
Mof_C 	C 	0.51436	0.96051	0.96395	-0.042
Mof_H 	H 	0.54467	0.97363	0.97423	0.044
Mof_H 	H 	0.43507	0.82413	0.92983	0.072
Mof_O 	O 	0.30686	0.19304	0.23236	-0.409
Mof_O 	O 	0.27659	0.17803	0.14747	-0.41
Mof_C 	C 	0.27987	0.19134	0.19645	0.367
Mof_C 	C 	0.24859	0.20714	0.2144	-0.131
Mof_C 	C 	0.22014	0.20987	0.17669	0.07
Mof_H 	H 	0.22013	0.20157	0.13937	0.023
Mof_C 	C 	0.1919	0.2245	0.19305	-0.147
Mof_H 	H 	0.17193	0.22527	0.16697	0.094
Mof_C 	C 	0.19187	0.2381	0.24634	0.11
Mof_C 	C 	0.2207	0.23561	0.28326	-0.149
Mof_H 	H 	0.22103	0.24427	0.32047	0.082
Mof_C 	C 	0.24918	0.2208	0.26723	0.071
Mof_H 	H 	0.26933	0.22017	0.29317	0.023
Mof_C 	C 	0.16301	0.25622	0.26433	-0.065
Mof_C 	C 	0.18102	0.29385	0.29729	-0.042
Mof_H 	H 	0.21133	0.30697	0.30757	0.044
Mof_H 	H 	0.10173	0.15747	0.26317	0.072
Mof_O 	O 	0.44716	0.47363	0.43431	-0.409
Mof_O 	O 	0.4319	0.48864	0.5192	-0.41
Mof_C 	C 	0.42187	0.47533	0.47022	0.367
Mof_C 	C 	0.37479	0.45953	0.45227	-0.131
Mof_C 	C 	0.34361	0.4568	0.48998	0.07
Mof_H 	H 	0.3519	0.4651	0.5273	0.023
Mof_C 	C 	0.30074	0.44217	0.47362	-0.147
Mof_H 	H 	0.28	0.4414	0.4997	0.094
Mof_C 	C 	0.28711	0.42857	0.42033	0.11
Mof_C 	C 	0.31843	0.43106	0.38341	-0.149
Mof_H 	H 	0.3101	0.4224	0.3462	0.082
Mof_C 	C 	0.36172	0.44587	0.39944	0.071
Mof_H 	H 	0.3825	0.4465	0.3735	0.023
Mof_C 	C 	0.24013	0.41045	0.40234	-0.065
Mof_C 	C 	0.22051	0.37282	0.36938	-0.042
Mof_H 	H 	0.2377	0.3597	0.3591	0.044
Mof_H 	H 	0.2776	0.5092	0.4035	0.072
Mof_O 	O 	0.11383	0.80696	0.76764	-0.409
Mof_O 	O 	0.09857	0.82197	0.85253	-0.41
Mof_C 	C 	0.08854	0.80866	0.80355	0.367
Mof_C 	C 	0.04146	0.79286	0.7856	-0.13
Mof_C 	C 	0.01028	0.79013	0.82331	0.07
Mof_H 	H 	0.01857	0.79843	0.86063	0.023
Mof_C 	C 	0.96741	0.7755	0.80695	-0.147
Mof_H 	H 	0.94667	0.77473	0.83303	0.094
Mof_C 	C 	0.95378	0.7619	0.75366	0.11
Mof_C 	C 	0.9851	0.76439	0.71674	-0.149
Mof_H 	H 	0.97677	0.75573	0.67953	0.082
Mof_C 	C 	0.02839	0.7792	0.73277	0.07
Mof_H 	H 	0.04917	0.77983	0.70683	0.023
Mof_C 	C 	0.9068	0.74378	0.73567	-0.065
Mof_C 	C 	0.88718	0.70615	0.70271	-0.042
Mof_H 	H 	0.90437	0.69303	0.69243	0.044
Mof_H 	H 	0.94427	0.84253	0.73683	0.072
Mof_O 	O 	0.78049	0.1403	0.10098	-0.409
Mof_O 	O 	0.76523	0.15531	0.18587	-0.41
Mof_C 	C 	0.7552	0.142	0.13689	0.367
Mof_C 	C 	0.70812	0.1262	0.11894	-0.131
Mof_C 	C 	0.67694	0.12347	0.15665	0.07
Mof_H 	H 	0.68523	0.13177	0.19397	0.023
Mof_C 	C 	0.63407	0.10884	0.14029	-0.147
Mof_H 	H 	0.61333	0.10807	0.16637	0.094
Mof_C 	C 	0.62044	0.09524	0.087	0.11
Mof_C 	C 	0.65176	0.09773	0.05008	-0.149
Mof_H 	H 	0.64343	0.08907	0.01287	0.082
Mof_C 	C 	0.69505	0.11254	0.06611	0.071
Mof_H 	H 	0.71583	0.11317	0.04017	0.023
Mof_C 	C 	0.57346	0.07712	0.06901	-0.065
Mof_C 	C 	0.55384	0.03949	0.03605	-0.042
Mof_H 	H 	0.57103	0.02637	0.02577	0.044
Mof_H 	H 	0.61093	0.17587	0.07017	0.072
Mof_O 	O 	0.02647	0.55284	0.43431	-0.409
Mof_O 	O 	0.05674	0.5681	0.5192	-0.41
Mof_C 	C 	0.05346	0.57813	0.47022	0.367
Mof_C 	C 	0.08474	0.62521	0.45227	-0.131
Mof_C 	C 	0.11319	0.65639	0.48998	0.07
Mof_H 	H 	0.1132	0.6481	0.5273	0.023
Mof_C 	C 	0.14143	0.69926	0.47362	-0.148
Mof_H 	H 	0.1614	0.72	0.4997	0.094
Mof_C 	C 	0.14146	0.71289	0.42033	0.11
Mof_C 	C 	0.11263	0.68157	0.38341	-0.149
Mof_H 	H 	0.1123	0.6899	0.3462	0.082
Mof_C 	C 	0.08415	0.63828	0.39944	0.071
Mof_H 	H 	0.064	0.6175	0.3735	0.023
Mof_C 	C 	0.17032	0.75987	0.40234	-0.065
Mof_C 	C 	0.15231	0.77949	0.36938	-0.042
Mof_H 	H 	0.122	0.7623	0.3591	0.044
Mof_H 	H 	0.2316	0.7224	0.4035	0.072
Mof_O 	O 	0.69314	0.88617	0.76764	-0.409
Mof_O 	O 	0.72341	0.90143	0.85253	-0.41
Mof_C 	C 	0.72013	0.91146	0.80355	0.367
Mof_C 	C 	0.75141	0.95854	0.7856	-0.13
Mof_C 	C 	0.77986	0.98972	0.82331	0.07
Mof_H 	H 	0.77987	0.98143	0.86063	0.023
Mof_C 	C 	0.8081	0.03259	0.80695	-0.147
Mof_H 	H 	0.82807	0.05333	0.83303	0.094
Mof_C 	C 	0.80813	0.04622	0.75366	0.109
Mof_C 	C 	0.7793	0.0149	0.71674	-0.149
Mof_H 	H 	0.77897	0.02323	0.67953	0.082
Mof_C 	C 	0.75082	0.97161	0.73277	0.07
Mof_H 	H 	0.73067	0.95083	0.70683	0.023
Mof_C 	C 	0.83699	0.0932	0.73567	-0.065
Mof_C 	C 	0.81898	0.11282	0.70271	-0.042
Mof_H 	H 	0.78867	0.09563	0.69243	0.044
Mof_H 	H 	0.89827	0.05573	0.73683	0.072
Mof_O 	O 	0.3598	0.21951	0.10098	-0.409
Mof_O 	O 	0.39007	0.23477	0.18587	-0.41
Mof_C 	C 	0.38679	0.2448	0.13689	0.367
Mof_C 	C 	0.41807	0.29188	0.11894	-0.131
Mof_C 	C 	0.44652	0.32306	0.15665	0.07
Mof_H 	H 	0.44653	0.31477	0.19397	0.023
Mof_C 	C 	0.47476	0.36593	0.14029	-0.147
Mof_H 	H 	0.49473	0.38667	0.16637	0.094
Mof_C 	C 	0.47479	0.37956	0.087	0.11
Mof_C 	C 	0.44596	0.34824	0.05008	-0.149
Mof_H 	H 	0.44563	0.35657	0.01287	0.082
Mof_C 	C 	0.41748	0.30495	0.06611	0.071
Mof_H 	H 	0.39733	0.28417	0.04017	0.023
Mof_C 	C 	0.50365	0.42654	0.06901	-0.065
Mof_C 	C 	0.48564	0.44616	0.03605	-0.042
Mof_H 	H 	0.45533	0.42897	0.02577	0.044
Mof_H 	H 	0.56493	0.38907	0.07017	0.072
Mof_O 	O 	0.52637	0.97353	0.43431	-0.409
Mof_O 	O 	0.51136	0.94326	0.5192	-0.41
Mof_C 	C 	0.52467	0.94654	0.47022	0.367
Mof_C 	C 	0.54047	0.91526	0.45227	-0.131
Mof_C 	C 	0.5432	0.88681	0.48998	0.07
Mof_H 	H 	0.5349	0.8868	0.5273	0.023
Mof_C 	C 	0.55783	0.85857	0.47362	-0.147
Mof_H 	H 	0.5586	0.8386	0.4997	0.094
Mof_C 	C 	0.57143	0.85854	0.42033	0.11
Mof_C 	C 	0.56894	0.88737	0.38341	-0.149
Mof_H 	H 	0.5776	0.8877	0.3462	0.082
Mof_C 	C 	0.55413	0.91585	0.39944	0.071
Mof_H 	H 	0.5535	0.936	0.3735	0.023
Mof_C 	C 	0.58955	0.82968	0.40234	-0.065
Mof_C 	C 	0.62718	0.84769	0.36938	-0.042
Mof_H 	H 	0.6403	0.878	0.3591	0.044
Mof_H 	H 	0.4908	0.7684	0.4035	0.072
Mof_O 	O 	0.19304	0.30686	0.76764	-0.409
Mof_O 	O 	0.17803	0.27659	0.85253	-0.41
Mof_C 	C 	0.19134	0.27987	0.80355	0.367
Mof_C 	C 	0.20714	0.24859	0.7856	-0.131
Mof_C 	C 	0.20987	0.22014	0.82331	0.07
Mof_H 	H 	0.20157	0.22013	0.86063	0.023
Mof_C 	C 	0.2245	0.1919	0.80695	-0.147
Mof_H 	H 	0.22527	0.17193	0.83303	0.094
Mof_C 	C 	0.2381	0.19187	0.75366	0.11
Mof_C 	C 	0.23561	0.2207	0.71674	-0.149
Mof_H 	H 	0.24427	0.22103	0.67953	0.082
Mof_C 	C 	0.2208	0.24918	0.73277	0.071
Mof_H 	H 	0.22017	0.26933	0.70683	0.023
Mof_C 	C 	0.25622	0.16301	0.73567	-0.065
Mof_C 	C 	0.29385	0.18102	0.70271	-0.042
Mof_H 	H 	0.30697	0.21133	0.69243	0.044
Mof_H 	H 	0.15747	0.10173	0.73683	0.072
Mof_O 	O 	0.8597	0.6402	0.10098	-0.409
Mof_O 	O 	0.84469	0.60993	0.18587	-0.41
Mof_C 	C 	0.858	0.61321	0.13689	0.367
Mof_C 	C 	0.8738	0.58193	0.11894	-0.131
Mof_C 	C 	0.87653	0.55348	0.15665	0.07
Mof_H 	H 	0.86823	0.55347	0.19397	0.023
Mof_C 	C 	0.89116	0.52524	0.14029	-0.147
Mof_H 	H 	0.89193	0.50527	0.16637	0.094
Mof_C 	C 	0.90476	0.52521	0.087	0.11
Mof_C 	C 	0.90227	0.55404	0.05008	-0.149
Mof_H 	H 	0.91093	0.55437	0.01287	0.082
Mof_C 	C 	0.88746	0.58252	0.06611	0.071
Mof_H 	H 	0.88683	0.60267	0.04017	0.023
Mof_C 	C 	0.92288	0.49635	0.06901	-0.065
Mof_C 	C 	0.96051	0.51436	0.03605	-0.042
Mof_H 	H 	0.97363	0.54467	0.02577	0.044
Mof_H 	H 	0.82413	0.43507	0.07017	0.072
Mof_Cu	Cu	0.50898	0.49102	0.45028	0.904
Mof_Cu	Cu	0.17565	0.82435	0.78361	0.904
Mof_Cu	Cu	0.84231	0.15769	0.11695	0.904
Mof_Cu	Cu	0.50898	0.01796	0.45028	0.904
Mof_Cu	Cu	0.17565	0.35129	0.78361	0.904
Mof_Cu	Cu	0.84231	0.68463	0.11695	0.904
Mof_Cu	Cu	0.98204	0.49102	0.45028	0.904
Mof_Cu	Cu	0.64871	0.82435	0.78361	0.904
Mof_Cu	Cu	0.31537	0.15769	0.11695	0.904
Mof_Cu	Cu	0.49102	0.50898	0.54972	0.904
Mof_Cu	Cu	0.15769	0.84231	0.88305	0.904
Mof_Cu	Cu	0.82435	0.17565	0.21639	0.904
Mof_Cu	Cu	0.01796	0.50898	0.54972	0.904
Mof_Cu	Cu	0.68463	0.84231	0.88305	0.904
Mof_Cu	Cu	0.35129	0.17565	0.21639	0.904
Mof_Cu	Cu	0.49102	0.98204	0.54972	0.904
Mof_Cu	Cu	0.15769	0.31537	0.88305	0.904
Mof_Cu	Cu	0.82435	0.64871	0.21639	0.904
Mof_O 	O 	0.53365	0.76683	0.45246	-0.188
Mof_C 	C 	0.64672	0.82336	0.35053	0.006
Mof_C 	C 	0.5709	0.78545	0.41914	0.122
Mof_C 	C 	0.49337	0.74669	0.4266	-0.122
Mof_H 	H 	0.4697	0.73485	0.4542	0.074
Mof_O 	O 	0.20032	0.10016	0.78579	-0.188
Mof_C 	C 	0.31339	0.15669	0.68386	0.006
Mof_C 	C 	0.23757	0.11878	0.75247	0.122
Mof_C 	C 	0.16004	0.08002	0.75993	-0.122
Mof_H 	H 	0.13637	0.06818	0.78753	0.074
Mof_O 	O 	0.86698	0.43349	0.11913	-0.188
Mof_C 	C 	0.98005	0.49003	0.0172	0.006
Mof_C 	C 	0.90423	0.45212	0.08581	0.122
Mof_C 	C 	0.8267	0.41335	0.09327	-0.122
Mof_H 	H 	0.80303	0.40152	0.12087	0.074
Mof_O 	O 	0.23317	0.76683	0.45246	-0.188
Mof_C 	C 	0.17664	0.82336	0.35053	0.006
Mof_C 	C 	0.21455	0.78545	0.41914	0.122
Mof_C 	C 	0.25331	0.74669	0.4266	-0.121
Mof_H 	H 	0.26515	0.73485	0.4542	0.074
Mof_O 	O 	0.89984	0.10016	0.78579	-0.188
Mof_C 	C 	0.84331	0.15669	0.68386	0.006
Mof_C 	C 	0.88122	0.11878	0.75247	0.122
Mof_C 	C 	0.91998	0.08002	0.75993	-0.122
Mof_H 	H 	0.93182	0.06818	0.78753	0.074
Mof_O 	O 	0.56651	0.43349	0.11913	-0.188
Mof_C 	C 	0.50997	0.49003	0.0172	0.006
Mof_C 	C 	0.54788	0.45212	0.08581	0.122
Mof_C 	C 	0.58665	0.41335	0.09327	-0.122
Mof_H 	H 	0.59848	0.40152	0.12087	0.074
Mof_O 	O 	0.23317	0.46635	0.45246	-0.188
Mof_C 	C 	0.17664	0.35328	0.35053	0.006
Mof_C 	C 	0.21455	0.4291	0.41914	0.122
Mof_C 	C 	0.25331	0.50663	0.4266	-0.122
Mof_H 	H 	0.26515	0.5303	0.4542	0.074
Mof_O 	O 	0.89984	0.79968	0.78579	-0.188
Mof_C 	C 	0.84331	0.68661	0.68386	0.006
Mof_C 	C 	0.88122	0.76243	0.75247	0.122
Mof_C 	C 	0.91998	0.83996	0.75993	-0.122
Mof_H 	H 	0.93182	0.86363	0.78753	0.074
Mof_O 	O 	0.56651	0.13302	0.11913	-0.188
Mof_C 	C 	0.50997	0.01995	0.0172	0.006
Mof_C 	C 	0.54788	0.09577	0.08581	0.122
Mof_C 	C 	0.58665	0.1733	0.09327	-0.122
Mof_H 	H 	0.59848	0.19697	0.12087	0.074
Mof_O 	O 	0.76683	0.53365	0.54754	-0.188
Mof_C 	C 	0.82336	0.64672	0.64947	0.006
Mof_C 	C 	0.78545	0.5709	0.58086	0.122
Mof_C 	C 	0.74669	0.49337	0.5734	-0.122
Mof_H 	H 	0.73485	0.4697	0.5458	0.074
Mof_O 	O 	0.43349	0.86698	0.88087	-0.188
Mof_C 	C 	0.49003	0.98005	0.9828	0.006
Mof_C 	C 	0.45212	0.90423	0.91419	0.122
Mof_C 	C 	0.41335	0.8267	0.90673	-0.122
Mof_H 	H 	0.40152	0.80303	0.87913	0.074
Mof_O 	O 	0.10016	0.20032	0.21421	-0.188
Mof_C 	C 	0.15669	0.31339	0.31614	0.006
Mof_C 	C 	0.11878	0.23757	0.24753	0.122
Mof_C 	C 	0.08002	0.16004	0.24007	-0.122
Mof_H 	H 	0.06818	0.13637	0.21247	0.074
Mof_O 	O 	0.76683	0.23317	0.54754	-0.188
Mof_C 	C 	0.82336	0.17664	0.64947	0.006
Mof_C 	C 	0.78545	0.21455	0.58086	0.122
Mof_C 	C 	0.74669	0.25331	0.5734	-0.121
Mof_H 	H 	0.73485	0.26515	0.5458	0.074
Mof_O 	O 	0.43349	0.56651	0.88087	-0.188
Mof_C 	C 	0.49003	0.50997	0.9828	0.006
Mof_C 	C 	0.45212	0.54788	0.91419	0.122
Mof_C 	C 	0.41335	0.58665	0.90673	-0.122
Mof_H 	H 	0.40152	0.59848	0.87913	0.074
Mof_O 	O 	0.10016	0.89984	0.21421	-0.188
Mof_C 	C 	0.15669	0.84331	0.31614	0.006
Mof_C 	C 	0.11878	0.88122	0.24753	0.122
Mof_C 	C 	0.08002	0.91998	0.24007	-0.122
Mof_H 	H 	0.06818	0.93182	0.21247	0.074
Mof_O 	O 	0.46635	0.23317	0.54754	-0.188
Mof_C 	C 	0.35328	0.17664	0.64947	0.006
Mof_C 	C 	0.4291	0.21455	0.58086	0.122
Mof_C 	C 	0.50663	0.25331	0.5734	-0.122
Mof_H 	H 	0.5303	0.26515	0.5458	0.074
Mof_O 	O 	0.13302	0.56651	0.88087	-0.188
Mof_C 	C 	0.01995	0.50997	0.9828	0.006
Mof_C 	C 	0.09577	0.54788	0.91419	0.122
Mof_C 	C 	0.1733	0.58665	0.90673	-0.122
Mof_H 	H 	0.19697	0.59848	0.87913	0.074
Mof_O 	O 	0.79968	0.89984	0.21421	-0.188
Mof_C 	C 	0.68661	0.84331	0.31614	0.006
Mof_C 	C 	0.76243	0.88122	0.24753	0.122
Mof_C 	C 	0.83996	0.91998	0.24007	-0.122
Mof_H 	H 	0.86363	0.93182	0.21247	0.074
_end
