data_functionalizedCrystal
_audit_creation_method	'EQeq! by Chris Wilmer'
_symmetry_space_group_name_H-M	'P1'
_symmetry_Int_Tables_number	1
_symmetry_cell_setting	triclinic
loop_
_symmetry_equiv_pos_as_xyz
  x,y,z
_cell_length_a	13.785
_cell_length_b	27.11
_cell_length_c	45.814
_cell_angle_alpha	90
_cell_angle_beta	90
_cell_angle_gamma	90
loop_
_atom_site_label
_atom_site_type_symbol
_atom_site_fract_x
_atom_site_fract_y
_atom_site_fract_z
_atom_site_charge
Mof_Zn	Zn	0.34558	0.75656	0.68866	1.162
Mof_Zn	Zn	0.64312	0.03271	0.91689	1.163
Mof_Zn	Zn	0.64619	0.55103	0.92599	1.163
Mof_Zn	Zn	0.65442	0.74344	0.18866	1.162
Mof_Zn	Zn	0.35688	0.46729	0.41689	1.163
Mof_Zn	Zn	0.35381	0.94897	0.42599	1.163
Mof_Zn	Zn	0.84558	0.24344	0.81134	1.162
Mof_Zn	Zn	0.14312	0.96729	0.58311	1.163
Mof_Zn	Zn	0.14619	0.44897	0.57401	1.163
Mof_Zn	Zn	0.15442	0.25656	0.31134	1.162
Mof_Zn	Zn	0.85688	0.53271	0.08311	1.163
Mof_Zn	Zn	0.85381	0.05103	0.07401	1.162
Mof_H 	H 	0.4438	0.6954	0.7334	-0.004
Mof_H 	H 	0.5005	0.7028	0.7819	0.079
Mof_H 	H 	0.4895	0.8511	0.7718	0.081
Mof_H 	H 	0.4197	0.84	0.7273	-0.009
Mof_H 	H 	0.6061	0.9965	0.8556	-0.009
Mof_H 	H 	0.5761	0.9219	0.8305	0.08
Mof_H 	H 	0.5774	0.8531	0.9076	0.08
Mof_H 	H 	0.606	0.9268	0.931	-0.007
Mof_H 	H 	0.6302	0.6601	0.9366	-0.019
Mof_H 	H 	0.6085	0.7329	0.913	0.081
Mof_H 	H 	0.5504	0.6522	0.839	0.086
Mof_H 	H 	0.5845	0.5837	0.8665	-0.02
Mof_H 	H 	0.553	0.9538	0.451	-0.017
Mof_H 	H 	0.6407	0.9354	0.4925	0.089
Mof_H 	H 	0.3895	0.8856	0.5286	0.077
Mof_H 	H 	0.3108	0.9092	0.4858	-0.006
Mof_H 	H 	0.3125	0.7962	0.6307	-0.019
Mof_H 	H 	0.3978	0.8306	0.5908	0.087
Mof_H 	H 	0.6428	0.8178	0.6355	0.084
Mof_H 	H 	0.5581	0.784	0.6742	-0.014
Mof_H 	H 	0.9951	0.9107	0.6171	-0.014
Mof_H 	H 	0.8398	0.8803	0.6121	0.091
Mof_H 	H 	0.8319	0.9289	0.529	0.08
Mof_H 	H 	0.9968	0.9541	0.5339	0.01
Mof_H 	H 	0.5562	0.8046	0.2334	-0.003
Mof_H 	H 	0.4995	0.7972	0.2819	0.08
Mof_H 	H 	0.5105	0.6489	0.2718	0.082
Mof_H 	H 	0.5803	0.66	0.2273	-0.008
Mof_H 	H 	0.3939	0.5035	0.3556	-0.008
Mof_H 	H 	0.4239	0.5781	0.3305	0.081
Mof_H 	H 	0.4226	0.6469	0.4076	0.081
Mof_H 	H 	0.394	0.5732	0.431	-0.006
Mof_H 	H 	0.3698	0.8399	0.4366	-0.018
Mof_H 	H 	0.3915	0.7671	0.413	0.082
Mof_H 	H 	0.4496	0.8478	0.339	0.087
Mof_H 	H 	0.4155	0.9163	0.3665	-0.019
Mof_H 	H 	0.447	0.5462	0.951	-0.016
Mof_H 	H 	0.3593	0.5646	0.9925	0.09
Mof_H 	H 	0.6105	0.6144	0.0286	0.077
Mof_H 	H 	0.6892	0.5908	0.9858	-0.006
Mof_H 	H 	0.6875	0.7038	0.1307	-0.018
Mof_H 	H 	0.6022	0.6694	0.0908	0.087
Mof_H 	H 	0.3572	0.6822	0.1355	0.084
Mof_H 	H 	0.4419	0.716	0.1742	-0.014
Mof_H 	H 	0.0049	0.5893	0.1171	-0.014
Mof_H 	H 	0.1602	0.6197	0.1121	0.091
Mof_H 	H 	0.1681	0.5711	0.029	0.08
Mof_H 	H 	0.0032	0.5459	0.0339	0.01
Mof_H 	H 	0.9438	0.3046	0.7666	-0.003
Mof_H 	H 	0.0005	0.2972	0.7181	0.08
Mof_H 	H 	0.9895	0.1489	0.7282	0.081
Mof_H 	H 	0.9197	0.16	0.7727	-0.008
Mof_H 	H 	0.1061	0.0035	0.6444	-0.008
Mof_H 	H 	0.0761	0.0781	0.6695	0.081
Mof_H 	H 	0.0774	0.1469	0.5924	0.081
Mof_H 	H 	0.106	0.0732	0.569	-0.006
Mof_H 	H 	0.1302	0.3399	0.5634	-0.018
Mof_H 	H 	0.1085	0.2671	0.587	0.082
Mof_H 	H 	0.0504	0.3478	0.661	0.087
Mof_H 	H 	0.0845	0.4163	0.6335	-0.019
Mof_H 	H 	0.053	0.0462	0.049	-0.016
Mof_H 	H 	0.1407	0.0646	0.0075	0.091
Mof_H 	H 	0.8895	0.1144	0.9714	0.077
Mof_H 	H 	0.8108	0.0908	0.0142	-0.006
Mof_H 	H 	0.8125	0.2038	0.8693	-0.019
Mof_H 	H 	0.8978	0.1694	0.9092	0.087
Mof_H 	H 	0.1428	0.1822	0.8645	0.084
Mof_H 	H 	0.0581	0.216	0.8258	-0.014
Mof_H 	H 	0.4951	0.0893	0.8829	-0.013
Mof_H 	H 	0.3398	0.1197	0.8879	0.091
Mof_H 	H 	0.3319	0.0711	0.971	0.08
Mof_H 	H 	0.4968	0.0459	0.9661	0.01
Mof_H 	H 	0.0562	0.1954	0.2666	-0.002
Mof_H 	H 	0.9995	0.2028	0.2181	0.079
Mof_H 	H 	0.0105	0.3511	0.2282	0.082
Mof_H 	H 	0.0803	0.34	0.2727	-0.008
Mof_H 	H 	0.8939	0.4965	0.1444	-0.008
Mof_H 	H 	0.9239	0.4219	0.1695	0.081
Mof_H 	H 	0.9226	0.3531	0.0924	0.081
Mof_H 	H 	0.894	0.4268	0.069	-0.006
Mof_H 	H 	0.8698	0.1601	0.0634	-0.018
Mof_H 	H 	0.8915	0.2329	0.087	0.082
Mof_H 	H 	0.9496	0.1522	0.161	0.087
Mof_H 	H 	0.9155	0.0837	0.1335	-0.02
Mof_H 	H 	0.947	0.4538	0.549	-0.016
Mof_H 	H 	0.8593	0.4354	0.5075	0.09
Mof_H 	H 	0.1105	0.3856	0.4714	0.077
Mof_H 	H 	0.1892	0.4092	0.5142	-0.006
Mof_H 	H 	0.1875	0.2962	0.3693	-0.018
Mof_H 	H 	0.1022	0.3306	0.4092	0.087
Mof_H 	H 	0.8572	0.3178	0.3645	0.083
Mof_H 	H 	0.9419	0.284	0.3258	-0.014
Mof_H 	H 	0.5049	0.4107	0.3829	-0.013
Mof_H 	H 	0.6602	0.3803	0.3879	0.091
Mof_H 	H 	0.6681	0.4289	0.471	0.08
Mof_H 	H 	0.5032	0.4541	0.4661	0.01
Mof_C 	C 	0.4511	0.7274	0.7417	0.061
Mof_C 	C 	0.4857	0.7312	0.7705	-0.111
Mof_C 	C 	0.4974	0.7787	0.7817	0.052
Mof_C 	C 	0.4771	0.8188	0.7647	-0.121
Mof_C 	C 	0.4396	0.8119	0.7381	0.064
Mof_C 	C 	0.6001	0.9666	0.8663	0.071
Mof_C 	C 	0.5828	0.922	0.8511	-0.118
Mof_C 	C 	0.576	0.8791	0.8667	0.057
Mof_C 	C 	0.5837	0.8823	0.8963	-0.115
Mof_C 	C 	0.6002	0.9261	0.9103	0.066
Mof_C 	C 	0.6156	0.6593	0.9163	0.078
Mof_C 	C 	0.602	0.7025	0.9029	-0.13
Mof_C 	C 	0.577	0.7007	0.8727	0.06
Mof_C 	C 	0.5685	0.6551	0.8589	-0.137
Mof_C 	C 	0.5879	0.6149	0.8759	0.092
Mof_C 	C 	0.5275	0.7842	0.8131	0.104
Mof_C 	C 	0.5618	0.8297	0.852	0.103
Mof_C 	C 	0.5612	0.7467	0.856	0.095
Mof_C 	C 	0.5194	0.9403	0.4672	0.078
Mof_C 	C 	0.5734	0.9282	0.4915	-0.127
Mof_C 	C 	0.5255	0.9049	0.5147	0.049
Mof_C 	C 	0.4254	0.8992	0.5129	-0.115
Mof_C 	C 	0.3789	0.9141	0.4872	0.069
Mof_C 	C 	0.3804	0.8015	0.6322	0.082
Mof_C 	C 	0.431	0.8224	0.6083	-0.123
Mof_C 	C 	0.5277	0.8305	0.6108	0.077
Mof_C 	C 	0.5742	0.8149	0.6345	-0.132
Mof_C 	C 	0.5239	0.7946	0.6573	0.074
Mof_C 	C 	0.963	0.9142	0.5989	0.085
Mof_C 	C 	0.8699	0.8961	0.596	-0.128
Mof_C 	C 	0.8203	0.9007	0.5704	0.047
Mof_C 	C 	0.8657	0.924	0.5469	-0.098
Mof_C 	C 	0.9628	0.9403	0.55	0.036
Mof_C 	C 	0.5801	0.8878	0.5413	0.108
Mof_C 	C 	0.58	0.8535	0.5849	0.104
Mof_C 	C 	0.7164	0.8864	0.5668	0.098
Mof_C 	C 	0.5489	0.7726	0.2417	0.061
Mof_C 	C 	0.5143	0.7688	0.2705	-0.111
Mof_C 	C 	0.5026	0.7213	0.2817	0.052
Mof_C 	C 	0.5229	0.6812	0.2647	-0.121
Mof_C 	C 	0.5604	0.6881	0.2381	0.064
Mof_C 	C 	0.3999	0.5334	0.3663	0.071
Mof_C 	C 	0.4172	0.578	0.3511	-0.118
Mof_C 	C 	0.424	0.6209	0.3667	0.057
Mof_C 	C 	0.4163	0.6177	0.3963	-0.115
Mof_C 	C 	0.3998	0.5739	0.4103	0.066
Mof_C 	C 	0.3844	0.8407	0.4163	0.078
Mof_C 	C 	0.398	0.7975	0.4029	-0.13
Mof_C 	C 	0.423	0.7993	0.3727	0.06
Mof_C 	C 	0.4315	0.8449	0.3589	-0.137
Mof_C 	C 	0.4121	0.8851	0.3759	0.092
Mof_C 	C 	0.4725	0.7158	0.3131	0.104
Mof_C 	C 	0.4382	0.6703	0.352	0.103
Mof_C 	C 	0.4388	0.7533	0.356	0.095
Mof_C 	C 	0.4806	0.5597	0.9672	0.078
Mof_C 	C 	0.4266	0.5718	0.9915	-0.127
Mof_C 	C 	0.4745	0.5951	0.0147	0.049
Mof_C 	C 	0.5746	0.6008	0.0129	-0.115
Mof_C 	C 	0.6211	0.5859	0.9872	0.069
Mof_C 	C 	0.6196	0.6985	0.1322	0.082
Mof_C 	C 	0.569	0.6776	0.1083	-0.123
Mof_C 	C 	0.4723	0.6695	0.1108	0.077
Mof_C 	C 	0.4258	0.6851	0.1345	-0.132
Mof_C 	C 	0.4761	0.7054	0.1573	0.074
Mof_C 	C 	0.037	0.5858	0.0989	0.084
Mof_C 	C 	0.1301	0.6039	0.096	-0.127
Mof_C 	C 	0.1797	0.5993	0.0704	0.046
Mof_C 	C 	0.1343	0.576	0.0469	-0.098
Mof_C 	C 	0.0372	0.5597	0.05	0.035
Mof_C 	C 	0.4199	0.6122	0.0413	0.108
Mof_C 	C 	0.42	0.6465	0.0849	0.104
Mof_C 	C 	0.2836	0.6136	0.0668	0.098
Mof_C 	C 	0.9511	0.2726	0.7583	0.061
Mof_C 	C 	0.9857	0.2688	0.7295	-0.111
Mof_C 	C 	0.9974	0.2213	0.7183	0.052
Mof_C 	C 	0.9771	0.1812	0.7353	-0.121
Mof_C 	C 	0.9396	0.1881	0.7619	0.063
Mof_C 	C 	0.1001	0.0334	0.6337	0.071
Mof_C 	C 	0.0828	0.078	0.6489	-0.118
Mof_C 	C 	0.076	0.1209	0.6333	0.057
Mof_C 	C 	0.0837	0.1177	0.6037	-0.115
Mof_C 	C 	0.1002	0.0739	0.5897	0.066
Mof_C 	C 	0.1156	0.3407	0.5837	0.078
Mof_C 	C 	0.102	0.2975	0.5971	-0.13
Mof_C 	C 	0.077	0.2993	0.6273	0.06
Mof_C 	C 	0.0685	0.3449	0.6411	-0.137
Mof_C 	C 	0.0879	0.3851	0.6241	0.092
Mof_C 	C 	0.0275	0.2158	0.6869	0.104
Mof_C 	C 	0.0618	0.1703	0.648	0.103
Mof_C 	C 	0.0612	0.2533	0.644	0.095
Mof_C 	C 	0.0194	0.0597	0.0328	0.078
Mof_C 	C 	0.0734	0.0718	0.0085	-0.127
Mof_C 	C 	0.0255	0.0951	0.9853	0.05
Mof_C 	C 	0.9254	0.1008	0.9871	-0.116
Mof_C 	C 	0.8789	0.0859	0.0128	0.07
Mof_C 	C 	0.8804	0.1985	0.8678	0.082
Mof_C 	C 	0.931	0.1776	0.8917	-0.124
Mof_C 	C 	0.0277	0.1695	0.8892	0.077
Mof_C 	C 	0.0742	0.1851	0.8655	-0.133
Mof_C 	C 	0.0239	0.2054	0.8427	0.074
Mof_C 	C 	0.463	0.0858	0.9011	0.084
Mof_C 	C 	0.3699	0.1039	0.904	-0.127
Mof_C 	C 	0.3203	0.0993	0.9296	0.046
Mof_C 	C 	0.3657	0.076	0.9531	-0.098
Mof_C 	C 	0.4628	0.0597	0.95	0.035
Mof_C 	C 	0.0801	0.1122	0.9587	0.108
Mof_C 	C 	0.08	0.1465	0.9151	0.104
Mof_C 	C 	0.2164	0.1136	0.9332	0.098
Mof_C 	C 	0.0489	0.2274	0.2583	0.061
Mof_C 	C 	0.0143	0.2312	0.2295	-0.11
Mof_C 	C 	0.0026	0.2787	0.2183	0.052
Mof_C 	C 	0.0229	0.3188	0.2353	-0.121
Mof_C 	C 	0.0604	0.3119	0.2619	0.064
Mof_C 	C 	0.8999	0.4666	0.1337	0.071
Mof_C 	C 	0.9172	0.422	0.1489	-0.118
Mof_C 	C 	0.924	0.3791	0.1333	0.057
Mof_C 	C 	0.9163	0.3823	0.1037	-0.115
Mof_C 	C 	0.8998	0.4261	0.0897	0.066
Mof_C 	C 	0.8844	0.1593	0.0837	0.078
Mof_C 	C 	0.898	0.2025	0.0971	-0.13
Mof_C 	C 	0.923	0.2007	0.1273	0.06
Mof_C 	C 	0.9315	0.1551	0.1411	-0.137
Mof_C 	C 	0.9121	0.1149	0.1241	0.092
Mof_C 	C 	0.9725	0.2842	0.1869	0.104
Mof_C 	C 	0.9382	0.3297	0.148	0.103
Mof_C 	C 	0.9388	0.2467	0.144	0.095
Mof_C 	C 	0.9806	0.4403	0.5328	0.077
Mof_C 	C 	0.9266	0.4282	0.5085	-0.127
Mof_C 	C 	0.9745	0.4049	0.4853	0.049
Mof_C 	C 	0.0746	0.3992	0.4871	-0.114
Mof_C 	C 	0.1211	0.4141	0.5128	0.069
Mof_C 	C 	0.1196	0.3015	0.3678	0.082
Mof_C 	C 	0.069	0.3224	0.3917	-0.123
Mof_C 	C 	0.9723	0.3305	0.3892	0.076
Mof_C 	C 	0.9258	0.3149	0.3655	-0.132
Mof_C 	C 	0.9761	0.2946	0.3427	0.073
Mof_C 	C 	0.537	0.4142	0.4011	0.084
Mof_C 	C 	0.6301	0.3961	0.404	-0.127
Mof_C 	C 	0.6797	0.4007	0.4296	0.046
Mof_C 	C 	0.6343	0.424	0.4531	-0.098
Mof_C 	C 	0.5372	0.4403	0.45	0.035
Mof_C 	C 	0.9199	0.3878	0.4587	0.108
Mof_C 	C 	0.92	0.3535	0.4151	0.105
Mof_C 	C 	0.7836	0.3864	0.4332	0.098
Mof_I 	I 	0.3282	0.66364	0.67938	-0.371
Mof_I 	I 	0.19127	0.80917	0.69497	-0.365
Mof_I 	I 	0.73611	0.08519	0.88128	-0.372
Mof_I 	I 	0.71042	0.0086	0.96683	-0.39
Mof_I 	I 	0.55345	0.48341	0.8993	-0.361
Mof_I 	I 	0.82765	0.55542	0.93515	-0.38
Mof_I 	I 	0.6718	0.83636	0.17938	-0.371
Mof_I 	I 	0.80873	0.69083	0.19497	-0.365
Mof_I 	I 	0.26389	0.41481	0.38128	-0.372
Mof_I 	I 	0.28958	0.4914	0.46683	-0.39
Mof_I 	I 	0.44655	0.01659	0.3993	-0.361
Mof_I 	I 	0.17235	0.94458	0.43515	-0.381
Mof_I 	I 	0.8282	0.33636	0.82062	-0.371
Mof_I 	I 	0.69127	0.19083	0.80503	-0.365
Mof_I 	I 	0.23611	0.91481	0.61872	-0.372
Mof_I 	I 	0.21042	0.9914	0.53317	-0.39
Mof_I 	I 	0.05345	0.51659	0.6007	-0.362
Mof_I 	I 	0.32765	0.44458	0.56485	-0.38
Mof_I 	I 	0.1718	0.16364	0.32062	-0.37
Mof_I 	I 	0.30873	0.30917	0.30503	-0.365
Mof_I 	I 	0.76389	0.58519	0.11872	-0.372
Mof_I 	I 	0.78958	0.5086	0.03317	-0.39
Mof_I 	I 	0.94655	0.98341	0.1007	-0.361
Mof_I 	I 	0.67235	0.05542	0.06485	-0.381
Mof_N 	N 	0.4283	0.7661	0.7256	-0.271
Mof_N 	N 	0.6081	0.968	0.8949	-0.268
Mof_N 	N 	0.6104	0.6145	0.90339	-0.281
Mof_N 	N 	0.5391	0.8296	0.8239	-0.14
Mof_N 	N 	0.5765	0.7907	0.8692	-0.138
Mof_N 	N 	0.5367	0.7421	0.8275	-0.138
Mof_N 	N 	0.4239	0.9346	0.4648	-0.276
Mof_N 	N 	0.4252	0.7892	0.6562	-0.277
Mof_N 	N 	0.0081	0.9357	0.5776	-0.269
Mof_N 	N 	0.5291	0.8643	0.5614	-0.14
Mof_N 	N 	0.6744	0.8633	0.5891	-0.136
Mof_N 	N 	0.6715	0.8989	0.5421	-0.148
Mof_N 	N 	0.5717	0.7339	0.2256	-0.271
Mof_N 	N 	0.3919	0.532	0.3949	-0.268
Mof_N 	N 	0.3896	0.8855	0.40339	-0.281
Mof_N 	N 	0.4609	0.6704	0.3239	-0.14
Mof_N 	N 	0.4235	0.7093	0.3692	-0.138
Mof_N 	N 	0.4633	0.7579	0.3275	-0.138
Mof_N 	N 	0.5761	0.5654	0.9648	-0.276
Mof_N 	N 	0.5748	0.7108	0.1562	-0.277
Mof_N 	N 	0.9919	0.5643	0.0776	-0.268
Mof_N 	N 	0.4709	0.6357	0.0614	-0.14
Mof_N 	N 	0.3256	0.6367	0.0891	-0.136
Mof_N 	N 	0.3285	0.6011	0.0421	-0.148
Mof_N 	N 	0.9283	0.2339	0.7744	-0.272
Mof_N 	N 	0.1081	0.032	0.6051	-0.268
Mof_N 	N 	0.1104	0.3855	0.59661	-0.281
Mof_N 	N 	0.0391	0.1704	0.6761	-0.14
Mof_N 	N 	0.0765	0.2093	0.6308	-0.138
Mof_N 	N 	0.0367	0.2579	0.6725	-0.139
Mof_N 	N 	0.9239	0.0654	0.0352	-0.276
Mof_N 	N 	0.9252	0.2108	0.8438	-0.278
Mof_N 	N 	0.5081	0.0643	0.9224	-0.268
Mof_N 	N 	0.0291	0.1357	0.9386	-0.14
Mof_N 	N 	0.1744	0.1367	0.9109	-0.136
Mof_N 	N 	0.1715	0.1011	0.9579	-0.148
Mof_N 	N 	0.0717	0.2661	0.2744	-0.271
Mof_N 	N 	0.8919	0.468	0.1051	-0.268
Mof_N 	N 	0.8896	0.1145	0.09661	-0.281
Mof_N 	N 	0.9609	0.3296	0.1761	-0.14
Mof_N 	N 	0.9235	0.2907	0.1308	-0.138
Mof_N 	N 	0.9633	0.2421	0.1725	-0.139
Mof_N 	N 	0.0761	0.4346	0.5352	-0.276
Mof_N 	N 	0.0748	0.2892	0.3438	-0.277
Mof_N 	N 	0.4919	0.4357	0.4224	-0.268
Mof_N 	N 	0.9709	0.3643	0.4386	-0.141
Mof_N 	N 	0.8256	0.3633	0.4109	-0.136
Mof_N 	N 	0.8285	0.3989	0.4579	-0.148
Mof_Zn	Zn	0.65442	0.24344	0.31134	1.163
Mof_Zn	Zn	0.35688	0.96729	0.08311	1.164
Mof_Zn	Zn	0.35381	0.44897	0.07401	1.164
Mof_Zn	Zn	0.34558	0.25656	0.81134	1.163
Mof_Zn	Zn	0.64312	0.53271	0.58311	1.164
Mof_Zn	Zn	0.64619	0.05103	0.57401	1.164
Mof_Zn	Zn	0.15442	0.75656	0.18866	1.163
Mof_Zn	Zn	0.85688	0.03271	0.41689	1.164
Mof_Zn	Zn	0.85381	0.55103	0.42599	1.164
Mof_Zn	Zn	0.84558	0.74344	0.68866	1.163
Mof_Zn	Zn	0.14312	0.46729	0.91689	1.164
Mof_Zn	Zn	0.14619	0.94897	0.92599	1.163
Mof_H 	H 	0.5562	0.3046	0.2666	-0.003
Mof_H 	H 	0.4995	0.2972	0.2181	0.08
Mof_H 	H 	0.5105	0.1489	0.2282	0.082
Mof_H 	H 	0.5803	0.16	0.2727	-0.008
Mof_H 	H 	0.3939	0.0035	0.1444	-0.008
Mof_H 	H 	0.4239	0.0781	0.1695	0.081
Mof_H 	H 	0.4226	0.1469	0.0924	0.081
Mof_H 	H 	0.394	0.0732	0.069	-0.006
Mof_H 	H 	0.3698	0.3399	0.0634	-0.018
Mof_H 	H 	0.3915	0.2671	0.087	0.082
Mof_H 	H 	0.4496	0.3478	0.161	0.087
Mof_H 	H 	0.4155	0.4163	0.1335	-0.019
Mof_H 	H 	0.447	0.0462	0.549	-0.016
Mof_H 	H 	0.3593	0.0646	0.5075	0.09
Mof_H 	H 	0.6105	0.1144	0.4714	0.077
Mof_H 	H 	0.6892	0.0908	0.5142	-0.006
Mof_H 	H 	0.6875	0.2038	0.3693	-0.019
Mof_H 	H 	0.6022	0.1694	0.4092	0.087
Mof_H 	H 	0.3572	0.1822	0.3645	0.084
Mof_H 	H 	0.4419	0.216	0.3258	-0.014
Mof_H 	H 	0.0049	0.0893	0.3829	-0.014
Mof_H 	H 	0.1602	0.1197	0.3879	0.091
Mof_H 	H 	0.1681	0.0711	0.471	0.08
Mof_H 	H 	0.0032	0.0459	0.4661	0.01
Mof_H 	H 	0.4438	0.1954	0.7666	-0.003
Mof_H 	H 	0.5005	0.2028	0.7181	0.08
Mof_H 	H 	0.4895	0.3511	0.7282	0.082
Mof_H 	H 	0.4197	0.34	0.7727	-0.008
Mof_H 	H 	0.6061	0.4965	0.6444	-0.008
Mof_H 	H 	0.5761	0.4219	0.6695	0.081
Mof_H 	H 	0.5774	0.3531	0.5924	0.081
Mof_H 	H 	0.606	0.4268	0.569	-0.006
Mof_H 	H 	0.6302	0.1601	0.5634	-0.018
Mof_H 	H 	0.6085	0.2329	0.587	0.082
Mof_H 	H 	0.5504	0.1522	0.661	0.087
Mof_H 	H 	0.5845	0.0837	0.6335	-0.019
Mof_H 	H 	0.553	0.4538	0.049	-0.016
Mof_H 	H 	0.6407	0.4354	0.0075	0.09
Mof_H 	H 	0.3895	0.3856	0.9714	0.077
Mof_H 	H 	0.3108	0.4092	0.0142	-0.006
Mof_H 	H 	0.3125	0.2962	0.8693	-0.018
Mof_H 	H 	0.3978	0.3306	0.9092	0.087
Mof_H 	H 	0.6428	0.3178	0.8645	0.084
Mof_H 	H 	0.5581	0.284	0.8258	-0.014
Mof_H 	H 	0.9951	0.4107	0.8829	-0.014
Mof_H 	H 	0.8398	0.3803	0.8879	0.091
Mof_H 	H 	0.8319	0.4289	0.971	0.08
Mof_H 	H 	0.9968	0.4541	0.9661	0.01
Mof_H 	H 	0.0562	0.6954	0.2334	-0.003
Mof_H 	H 	0.9995	0.7028	0.2819	0.08
Mof_H 	H 	0.0105	0.8511	0.2718	0.081
Mof_H 	H 	0.0803	0.84	0.2273	-0.008
Mof_H 	H 	0.8939	0.9965	0.3556	-0.008
Mof_H 	H 	0.9239	0.9219	0.3305	0.081
Mof_H 	H 	0.9226	0.8531	0.4076	0.081
Mof_H 	H 	0.894	0.9268	0.431	-0.006
Mof_H 	H 	0.8698	0.6601	0.4366	-0.018
Mof_H 	H 	0.8915	0.7329	0.413	0.082
Mof_H 	H 	0.9496	0.6522	0.339	0.087
Mof_H 	H 	0.9155	0.5837	0.3665	-0.019
Mof_H 	H 	0.947	0.9538	0.951	-0.016
Mof_H 	H 	0.8593	0.9354	0.9925	0.091
Mof_H 	H 	0.1105	0.8856	0.0286	0.077
Mof_H 	H 	0.1892	0.9092	0.9858	-0.006
Mof_H 	H 	0.1875	0.7962	0.1307	-0.019
Mof_H 	H 	0.1022	0.8306	0.0908	0.087
Mof_H 	H 	0.8572	0.8178	0.1355	0.084
Mof_H 	H 	0.9419	0.784	0.1742	-0.014
Mof_H 	H 	0.5049	0.9107	0.1171	-0.013
Mof_H 	H 	0.6602	0.8803	0.1121	0.091
Mof_H 	H 	0.6681	0.9289	0.029	0.08
Mof_H 	H 	0.5032	0.9541	0.0339	0.01
Mof_H 	H 	0.9438	0.8046	0.7334	-0.002
Mof_H 	H 	0.0005	0.7972	0.7819	0.079
Mof_H 	H 	0.9895	0.6489	0.7718	0.082
Mof_H 	H 	0.9197	0.66	0.7273	-0.008
Mof_H 	H 	0.1061	0.5035	0.8556	-0.008
Mof_H 	H 	0.0761	0.5781	0.8305	0.081
Mof_H 	H 	0.0774	0.6469	0.9076	0.081
Mof_H 	H 	0.106	0.5732	0.931	-0.006
Mof_H 	H 	0.1302	0.8399	0.9366	-0.018
Mof_H 	H 	0.1085	0.7671	0.913	0.082
Mof_H 	H 	0.0504	0.8478	0.839	0.087
Mof_H 	H 	0.0845	0.9163	0.8665	-0.02
Mof_H 	H 	0.053	0.5462	0.451	-0.016
Mof_H 	H 	0.1407	0.5646	0.4925	0.09
Mof_H 	H 	0.8895	0.6144	0.5286	0.077
Mof_H 	H 	0.8108	0.5908	0.4858	-0.006
Mof_H 	H 	0.8125	0.7038	0.6307	-0.018
Mof_H 	H 	0.8978	0.6694	0.5908	0.087
Mof_H 	H 	0.1428	0.6822	0.6355	0.083
Mof_H 	H 	0.0581	0.716	0.6742	-0.014
Mof_H 	H 	0.4951	0.5893	0.6171	-0.013
Mof_H 	H 	0.3398	0.6197	0.6121	0.091
Mof_H 	H 	0.3319	0.5711	0.529	0.08
Mof_H 	H 	0.4968	0.5459	0.5339	0.01
Mof_C 	C 	0.5489	0.2726	0.2583	0.061
Mof_C 	C 	0.5143	0.2688	0.2295	-0.111
Mof_C 	C 	0.5026	0.2213	0.2183	0.052
Mof_C 	C 	0.5229	0.1812	0.2353	-0.121
Mof_C 	C 	0.5604	0.1881	0.2619	0.064
Mof_C 	C 	0.3999	0.0334	0.1337	0.071
Mof_C 	C 	0.4172	0.078	0.1489	-0.118
Mof_C 	C 	0.424	0.1209	0.1333	0.057
Mof_C 	C 	0.4163	0.1177	0.1037	-0.115
Mof_C 	C 	0.3998	0.0739	0.0897	0.066
Mof_C 	C 	0.3844	0.3407	0.0837	0.078
Mof_C 	C 	0.398	0.2975	0.0971	-0.13
Mof_C 	C 	0.423	0.2993	0.1273	0.06
Mof_C 	C 	0.4315	0.3449	0.1411	-0.137
Mof_C 	C 	0.4121	0.3851	0.1241	0.092
Mof_C 	C 	0.4725	0.2158	0.1869	0.104
Mof_C 	C 	0.4382	0.1703	0.148	0.103
Mof_C 	C 	0.4388	0.2533	0.144	0.095
Mof_C 	C 	0.4806	0.0597	0.5328	0.078
Mof_C 	C 	0.4266	0.0718	0.5085	-0.127
Mof_C 	C 	0.4745	0.0951	0.4853	0.049
Mof_C 	C 	0.5746	0.1008	0.4871	-0.115
Mof_C 	C 	0.6211	0.0859	0.5128	0.069
Mof_C 	C 	0.6196	0.1985	0.3678	0.082
Mof_C 	C 	0.569	0.1776	0.3917	-0.123
Mof_C 	C 	0.4723	0.1695	0.3892	0.077
Mof_C 	C 	0.4258	0.1851	0.3655	-0.132
Mof_C 	C 	0.4761	0.2054	0.3427	0.074
Mof_C 	C 	0.037	0.0858	0.4011	0.085
Mof_C 	C 	0.1301	0.1039	0.404	-0.128
Mof_C 	C 	0.1797	0.0993	0.4296	0.047
Mof_C 	C 	0.1343	0.076	0.4531	-0.098
Mof_C 	C 	0.0372	0.0597	0.45	0.036
Mof_C 	C 	0.4199	0.1122	0.4587	0.108
Mof_C 	C 	0.42	0.1465	0.4151	0.104
Mof_C 	C 	0.2836	0.1136	0.4332	0.098
Mof_C 	C 	0.4511	0.2274	0.7583	0.061
Mof_C 	C 	0.4857	0.2312	0.7295	-0.111
Mof_C 	C 	0.4974	0.2787	0.7183	0.052
Mof_C 	C 	0.4771	0.3188	0.7353	-0.121
Mof_C 	C 	0.4396	0.3119	0.7619	0.064
Mof_C 	C 	0.6001	0.4666	0.6337	0.071
Mof_C 	C 	0.5828	0.422	0.6489	-0.118
Mof_C 	C 	0.576	0.3791	0.6333	0.057
Mof_C 	C 	0.5837	0.3823	0.6037	-0.115
Mof_C 	C 	0.6002	0.4261	0.5897	0.066
Mof_C 	C 	0.6156	0.1593	0.5837	0.078
Mof_C 	C 	0.602	0.2025	0.5971	-0.13
Mof_C 	C 	0.577	0.2007	0.6273	0.06
Mof_C 	C 	0.5685	0.1551	0.6411	-0.137
Mof_C 	C 	0.5879	0.1149	0.6241	0.092
Mof_C 	C 	0.5275	0.2842	0.6869	0.104
Mof_C 	C 	0.5618	0.3297	0.648	0.103
Mof_C 	C 	0.5612	0.2467	0.644	0.095
Mof_C 	C 	0.5194	0.4403	0.0328	0.078
Mof_C 	C 	0.5734	0.4282	0.0085	-0.127
Mof_C 	C 	0.5255	0.4049	0.9853	0.049
Mof_C 	C 	0.4254	0.3992	0.9871	-0.115
Mof_C 	C 	0.3789	0.4141	0.0128	0.069
Mof_C 	C 	0.3804	0.3015	0.8678	0.082
Mof_C 	C 	0.431	0.3224	0.8917	-0.123
Mof_C 	C 	0.5277	0.3305	0.8892	0.077
Mof_C 	C 	0.5742	0.3149	0.8655	-0.132
Mof_C 	C 	0.5239	0.2946	0.8427	0.074
Mof_C 	C 	0.963	0.4142	0.9011	0.084
Mof_C 	C 	0.8699	0.3961	0.904	-0.127
Mof_C 	C 	0.8203	0.4007	0.9296	0.046
Mof_C 	C 	0.8657	0.424	0.9531	-0.098
Mof_C 	C 	0.9628	0.4403	0.95	0.035
Mof_C 	C 	0.5801	0.3878	0.9587	0.108
Mof_C 	C 	0.58	0.3535	0.9151	0.104
Mof_C 	C 	0.7164	0.3864	0.9332	0.098
Mof_C 	C 	0.0489	0.7274	0.2417	0.061
Mof_C 	C 	0.0143	0.7312	0.2705	-0.111
Mof_C 	C 	0.0026	0.7787	0.2817	0.052
Mof_C 	C 	0.0229	0.8188	0.2647	-0.121
Mof_C 	C 	0.0604	0.8119	0.2381	0.063
Mof_C 	C 	0.8999	0.9666	0.3663	0.071
Mof_C 	C 	0.9172	0.922	0.3511	-0.118
Mof_C 	C 	0.924	0.8791	0.3667	0.057
Mof_C 	C 	0.9163	0.8823	0.3963	-0.115
Mof_C 	C 	0.8998	0.9261	0.4103	0.066
Mof_C 	C 	0.8844	0.6593	0.4163	0.078
Mof_C 	C 	0.898	0.7025	0.4029	-0.13
Mof_C 	C 	0.923	0.7007	0.3727	0.06
Mof_C 	C 	0.9315	0.6551	0.3589	-0.137
Mof_C 	C 	0.9121	0.6149	0.3759	0.092
Mof_C 	C 	0.9725	0.7842	0.3131	0.104
Mof_C 	C 	0.9382	0.8297	0.352	0.103
Mof_C 	C 	0.9388	0.7467	0.356	0.095
Mof_C 	C 	0.9806	0.9403	0.9672	0.078
Mof_C 	C 	0.9266	0.9282	0.9915	-0.127
Mof_C 	C 	0.9745	0.9049	0.0147	0.05
Mof_C 	C 	0.0746	0.8992	0.0129	-0.116
Mof_C 	C 	0.1211	0.9141	0.9872	0.07
Mof_C 	C 	0.1196	0.8015	0.1322	0.082
Mof_C 	C 	0.069	0.8224	0.1083	-0.124
Mof_C 	C 	0.9723	0.8305	0.1108	0.077
Mof_C 	C 	0.9258	0.8149	0.1345	-0.133
Mof_C 	C 	0.9761	0.7946	0.1573	0.074
Mof_C 	C 	0.537	0.9142	0.0989	0.084
Mof_C 	C 	0.6301	0.8961	0.096	-0.127
Mof_C 	C 	0.6797	0.9007	0.0704	0.046
Mof_C 	C 	0.6343	0.924	0.0469	-0.098
Mof_C 	C 	0.5372	0.9403	0.05	0.035
Mof_C 	C 	0.9199	0.8878	0.0413	0.108
Mof_C 	C 	0.92	0.8535	0.0849	0.104
Mof_C 	C 	0.7836	0.8864	0.0668	0.098
Mof_C 	C 	0.9511	0.7726	0.7417	0.061
Mof_C 	C 	0.9857	0.7688	0.7705	-0.11
Mof_C 	C 	0.9974	0.7213	0.7817	0.052
Mof_C 	C 	0.9771	0.6812	0.7647	-0.121
Mof_C 	C 	0.9396	0.6881	0.7381	0.064
Mof_C 	C 	0.1001	0.5334	0.8663	0.071
Mof_C 	C 	0.0828	0.578	0.8511	-0.118
Mof_C 	C 	0.076	0.6209	0.8667	0.057
Mof_C 	C 	0.0837	0.6177	0.8963	-0.115
Mof_C 	C 	0.1002	0.5739	0.9103	0.066
Mof_C 	C 	0.1156	0.8407	0.9163	0.078
Mof_C 	C 	0.102	0.7975	0.9029	-0.13
Mof_C 	C 	0.077	0.7993	0.8727	0.06
Mof_C 	C 	0.0685	0.8449	0.8589	-0.137
Mof_C 	C 	0.0879	0.8851	0.8759	0.092
Mof_C 	C 	0.0275	0.7158	0.8131	0.104
Mof_C 	C 	0.0618	0.6703	0.852	0.103
Mof_C 	C 	0.0612	0.7533	0.856	0.095
Mof_C 	C 	0.0194	0.5597	0.4672	0.077
Mof_C 	C 	0.0734	0.5718	0.4915	-0.127
Mof_C 	C 	0.0255	0.5951	0.5147	0.049
Mof_C 	C 	0.9254	0.6008	0.5129	-0.114
Mof_C 	C 	0.8789	0.5859	0.4872	0.069
Mof_C 	C 	0.8804	0.6985	0.6322	0.082
Mof_C 	C 	0.931	0.6776	0.6083	-0.123
Mof_C 	C 	0.0277	0.6695	0.6108	0.076
Mof_C 	C 	0.0742	0.6851	0.6345	-0.132
Mof_C 	C 	0.0239	0.7054	0.6573	0.073
Mof_C 	C 	0.463	0.5858	0.5989	0.084
Mof_C 	C 	0.3699	0.6039	0.596	-0.127
Mof_C 	C 	0.3203	0.5993	0.5704	0.046
Mof_C 	C 	0.3657	0.576	0.5469	-0.098
Mof_C 	C 	0.4628	0.5597	0.55	0.035
Mof_C 	C 	0.0801	0.6122	0.5413	0.108
Mof_C 	C 	0.08	0.6465	0.5849	0.105
Mof_C 	C 	0.2164	0.6136	0.5668	0.098
Mof_I 	I 	0.6718	0.33636	0.32062	-0.371
Mof_I 	I 	0.80873	0.19083	0.30503	-0.365
Mof_I 	I 	0.26389	0.91481	0.11872	-0.372
Mof_I 	I 	0.28958	0.9914	0.03317	-0.39
Mof_I 	I 	0.44655	0.51659	0.1007	-0.361
Mof_I 	I 	0.17235	0.44458	0.06485	-0.38
Mof_I 	I 	0.3282	0.16364	0.82062	-0.371
Mof_I 	I 	0.19127	0.30917	0.80503	-0.365
Mof_I 	I 	0.73611	0.58519	0.61872	-0.372
Mof_I 	I 	0.71042	0.5086	0.53317	-0.39
Mof_I 	I 	0.55345	0.98341	0.6007	-0.361
Mof_I 	I 	0.82765	0.05542	0.56485	-0.381
Mof_I 	I 	0.1718	0.66364	0.17938	-0.371
Mof_I 	I 	0.30873	0.80917	0.19497	-0.365
Mof_I 	I 	0.76389	0.08519	0.38128	-0.372
Mof_I 	I 	0.78958	0.0086	0.46683	-0.39
Mof_I 	I 	0.94655	0.48341	0.3993	-0.362
Mof_I 	I 	0.67235	0.55542	0.43515	-0.38
Mof_I 	I 	0.8282	0.83636	0.67938	-0.37
Mof_I 	I 	0.69127	0.69083	0.69497	-0.365
Mof_I 	I 	0.23611	0.41481	0.88128	-0.372
Mof_I 	I 	0.21042	0.4914	0.96683	-0.39
Mof_I 	I 	0.05345	0.01659	0.8993	-0.361
Mof_I 	I 	0.32765	0.94458	0.93515	-0.381
Mof_N 	N 	0.5717	0.2339	0.2744	-0.271
Mof_N 	N 	0.3919	0.032	0.1051	-0.268
Mof_N 	N 	0.3896	0.3855	0.09661	-0.281
Mof_N 	N 	0.4609	0.1704	0.1761	-0.14
Mof_N 	N 	0.4235	0.2093	0.1308	-0.138
Mof_N 	N 	0.4633	0.2579	0.1725	-0.138
Mof_N 	N 	0.5761	0.0654	0.5352	-0.276
Mof_N 	N 	0.5748	0.2108	0.3438	-0.277
Mof_N 	N 	0.9919	0.0643	0.4224	-0.269
Mof_N 	N 	0.4709	0.1357	0.4386	-0.14
Mof_N 	N 	0.3256	0.1367	0.4109	-0.136
Mof_N 	N 	0.3285	0.1011	0.4579	-0.148
Mof_N 	N 	0.4283	0.2661	0.7744	-0.271
Mof_N 	N 	0.6081	0.468	0.6051	-0.268
Mof_N 	N 	0.6104	0.1145	0.59661	-0.281
Mof_N 	N 	0.5391	0.3296	0.6761	-0.14
Mof_N 	N 	0.5765	0.2907	0.6308	-0.138
Mof_N 	N 	0.5367	0.2421	0.6725	-0.138
Mof_N 	N 	0.4239	0.4346	0.0352	-0.276
Mof_N 	N 	0.4252	0.2892	0.8438	-0.277
Mof_N 	N 	0.0081	0.4357	0.9224	-0.268
Mof_N 	N 	0.5291	0.3643	0.9386	-0.14
Mof_N 	N 	0.6744	0.3633	0.9109	-0.136
Mof_N 	N 	0.6715	0.3989	0.9579	-0.148
Mof_N 	N 	0.0717	0.7661	0.2256	-0.272
Mof_N 	N 	0.8919	0.968	0.3949	-0.268
Mof_N 	N 	0.8896	0.6145	0.40339	-0.281
Mof_N 	N 	0.9609	0.8296	0.3239	-0.14
Mof_N 	N 	0.9235	0.7907	0.3692	-0.138
Mof_N 	N 	0.9633	0.7421	0.3275	-0.139
Mof_N 	N 	0.0761	0.9346	0.9648	-0.276
Mof_N 	N 	0.0748	0.7892	0.1562	-0.278
Mof_N 	N 	0.4919	0.9357	0.0776	-0.268
Mof_N 	N 	0.9709	0.8643	0.0614	-0.14
Mof_N 	N 	0.8256	0.8633	0.0891	-0.136
Mof_N 	N 	0.8285	0.8989	0.0421	-0.148
Mof_N 	N 	0.9283	0.7339	0.7256	-0.271
Mof_N 	N 	0.1081	0.532	0.8949	-0.268
Mof_N 	N 	0.1104	0.8855	0.90339	-0.281
Mof_N 	N 	0.0391	0.6704	0.8239	-0.14
Mof_N 	N 	0.0765	0.7093	0.8692	-0.138
Mof_N 	N 	0.0367	0.7579	0.8275	-0.139
Mof_N 	N 	0.9239	0.5654	0.4648	-0.276
Mof_N 	N 	0.9252	0.7108	0.6562	-0.277
Mof_N 	N 	0.5081	0.5643	0.5776	-0.268
Mof_N 	N 	0.0291	0.6357	0.5614	-0.141
Mof_N 	N 	0.1744	0.6367	0.5891	-0.136
Mof_N 	N 	0.1715	0.6011	0.5421	-0.148
_end
