data_functionalizedCrystal
_audit_creation_method	'EQeq! by Chris Wilmer'
_symmetry_space_group_name_H-M	'P1'
_symmetry_Int_Tables_number	1
_symmetry_cell_setting	triclinic
loop_
_symmetry_equiv_pos_as_xyz
  x,y,z
_cell_length_a	6.726
_cell_length_b	11.298
_cell_length_c	19.8076
_cell_angle_alpha	106.57
_cell_angle_beta	91.1214
_cell_angle_gamma	90
loop_
_atom_site_label
_atom_site_type_symbol
_atom_site_fract_x
_atom_site_fract_y
_atom_site_fract_z
_atom_site_charge
Mof_Y 	Y 	0.81776	0.41895	0.25722	1.477
Mof_Y 	Y 	0.68224	0.16173	0.74278	1.481
Mof_Y 	Y 	0.18224	0.58105	0.74278	1.477
Mof_Y 	Y 	0.31776	0.83827	0.25722	1.481
Mof_H 	H 	0.8173	0.5098	0.5312	0.115
Mof_H 	H 	0.6211	0.7283	0.5448	0.046
Mof_H 	H 	0.6407	0.5185	0.4242	-0.001
Mof_H 	H 	0.4889	0.747	0.4302	0.15
Mof_H 	H 	0.4743	0.3341	0.0358	0.118
Mof_H 	H 	0.5935	0.5738	0.0646	0.033
Mof_H 	H 	0.969	0.2599	0.1698	0.096
Mof_H 	H 	0.894	0.15	0.184	0.173
Mof_H 	H 	0.6827	0.9786	0.4688	0.116
Mof_H 	H 	0.8789	0.1835	0.4552	0.044
Mof_H 	H 	0.8593	0.0943	0.5758	0.004
Mof_H 	H 	0.0111	0.3168	0.5698	0.141
Mof_H 	H 	0.0257	0.2983	0.9642	0.112
Mof_H 	H 	0.9065	0.5092	0.9354	0.035
Mof_H 	H 	0.531	0.0901	0.8302	0.096
Mof_H 	H 	0.606	0.966	0.816	0.173
Mof_H 	H 	0.1827	0.4902	0.4688	0.115
Mof_H 	H 	0.3789	0.2717	0.4552	0.046
Mof_H 	H 	0.3593	0.4815	0.5758	-0.001
Mof_H 	H 	0.5111	0.253	0.5698	0.15
Mof_H 	H 	0.5257	0.6659	0.9642	0.118
Mof_H 	H 	0.4065	0.4262	0.9354	0.033
Mof_H 	H 	0.031	0.7401	0.8302	0.096
Mof_H 	H 	0.106	0.85	0.816	0.173
Mof_H 	H 	0.3173	0.0214	0.5312	0.116
Mof_H 	H 	0.1211	0.8165	0.5448	0.044
Mof_H 	H 	0.1407	0.9057	0.4242	0.004
Mof_H 	H 	0.9889	0.6832	0.4302	0.141
Mof_H 	H 	0.9743	0.7017	0.0358	0.112
Mof_H 	H 	0.0935	0.4908	0.0646	0.035
Mof_H 	H 	0.469	0.9099	0.1698	0.096
Mof_H 	H 	0.394	0.034	0.184	0.173
Mof_C 	C 	0.8369	0.6384	0.6304	0.42
Mof_C 	C 	0.7758	0.5888	0.5554	-0.225
Mof_C 	C 	0.6656	0.6501	0.5206	-0.014
Mof_C 	C 	0.6109	0.6006	0.4464	0.092
Mof_C 	C 	0.5213	0.6651	0.4084	-0.325
Mof_C 	C 	0.4711	0.6125	0.3334	0.511
Mof_C 	C 	0.6301	0.4108	0.1296	0.378
Mof_C 	C 	0.5372	0.4066	0.0616	-0.234
Mof_C 	C 	0.5393	0.5002	0.0362	0.034
Mof_C 	C 	0.6631	0.008	0.3696	0.422
Mof_C 	C 	0.7242	0.0334	0.4446	-0.229
Mof_C 	C 	0.8344	0.1295	0.4794	-0.005
Mof_C 	C 	0.8891	0.1542	0.5536	0.078
Mof_C 	C 	0.9787	0.2567	0.5916	-0.303
Mof_C 	C 	0.0289	0.2791	0.6666	0.494
Mof_C 	C 	0.8699	0.2812	0.8704	0.375
Mof_C 	C 	0.9628	0.345	0.9384	-0.224
Mof_C 	C 	0.9607	0.464	0.9638	0.031
Mof_C 	C 	0.1631	0.3616	0.3696	0.42
Mof_C 	C 	0.2242	0.4112	0.4446	-0.225
Mof_C 	C 	0.3344	0.3499	0.4794	-0.014
Mof_C 	C 	0.3891	0.3994	0.5536	0.092
Mof_C 	C 	0.4787	0.3349	0.5916	-0.325
Mof_C 	C 	0.5289	0.3875	0.6666	0.511
Mof_C 	C 	0.3699	0.5892	0.8704	0.378
Mof_C 	C 	0.4628	0.5934	0.9384	-0.234
Mof_C 	C 	0.4607	0.4998	0.9638	0.034
Mof_C 	C 	0.3369	0.992	0.6304	0.422
Mof_C 	C 	0.2758	0.9666	0.5554	-0.229
Mof_C 	C 	0.1656	0.8705	0.5206	-0.005
Mof_C 	C 	0.1109	0.8458	0.4464	0.078
Mof_C 	C 	0.0213	0.7433	0.4084	-0.303
Mof_C 	C 	0.9711	0.7209	0.3334	0.494
Mof_C 	C 	0.1301	0.7188	0.1296	0.375
Mof_C 	C 	0.0372	0.655	0.0616	-0.224
Mof_C 	C 	0.0393	0.536	0.0362	0.031
Mof_O 	O 	0.7521	0.72937	0.66894	-0.281
Mof_O 	O 	0.9801	0.58242	0.64984	-0.437
Mof_O 	O 	0.5178	0.50157	0.30234	-0.439
Mof_O 	O 	0.8775	0.62429	0.30318	-0.456
Mof_O 	O 	0.7264	0.50424	0.16368	-0.39
Mof_O 	O 	0.6186	0.31898	0.15336	-0.396
Mof_O 	O 	0.9698	0.2252	0.2112	-0.446
Mof_O 	O 	0.7479	0.06043	0.33106	-0.283
Mof_O 	O 	0.5199	0.93258	0.35016	-0.441
Mof_O 	O 	0.9822	0.19923	0.69766	-0.432
Mof_O 	O 	0.6225	0.32111	0.69682	-0.459
Mof_O 	O 	0.7736	0.34056	0.83632	-0.387
Mof_O 	O 	0.8814	0.16562	0.84664	-0.394
Mof_O 	O 	0.5302	0.014	0.7888	-0.444
Mof_O 	O 	0.2479	0.27063	0.33106	-0.281
Mof_O 	O 	0.0199	0.41758	0.35016	-0.437
Mof_O 	O 	0.4822	0.49843	0.69766	-0.439
Mof_O 	O 	0.1225	0.37571	0.69682	-0.456
Mof_O 	O 	0.2736	0.49576	0.83632	-0.39
Mof_O 	O 	0.3814	0.68102	0.84664	-0.396
Mof_O 	O 	0.0302	0.7748	0.7888	-0.446
Mof_O 	O 	0.2521	0.93957	0.66894	-0.283
Mof_O 	O 	0.4801	0.06742	0.64984	-0.441
Mof_O 	O 	0.0178	0.80077	0.30234	-0.432
Mof_O 	O 	0.3775	0.67889	0.30318	-0.459
Mof_O 	O 	0.2264	0.65944	0.16368	-0.387
Mof_O 	O 	0.1186	0.83438	0.15336	-0.394
Mof_O 	O 	0.4698	0.986	0.2112	-0.444
_end
