data_functionalizedCrystal
_audit_creation_method	'EQeq! by Chris Wilmer'
_symmetry_space_group_name_H-M	'P1'
_symmetry_Int_Tables_number	1
_symmetry_cell_setting	triclinic
loop_
_symmetry_equiv_pos_as_xyz
  x,y,z
_cell_length_a	11.7026
_cell_length_b	11.7026
_cell_length_c	9.2233
_cell_angle_alpha	90
_cell_angle_beta	90
_cell_angle_gamma	90
loop_
_atom_site_label
_atom_site_type_symbol
_atom_site_fract_x
_atom_site_fract_y
_atom_site_fract_z
_atom_site_charge
Mof_Bi	Bi	0.5	0.25	0.625	1.118
Mof_Bi	Bi	4.11653e-33	0.75	0.125	1.037
Mof_Bi	Bi	-2.41052e-33	0.25	0.875	1.037
Mof_Bi	Bi	0.5	0.75	0.375	1.118
Mof_O 	O 	0.5	0.13	0.4082	-0.249
Mof_O 	O 	0.5	0.9523	0.3213	-0.265
Mof_C 	C 	0.5	0.0245	0.4223	0.244
Mof_O 	O 	-2.22972e-32	0.63	0.9082	-0.264
Mof_O 	O 	-2.56921e-33	0.4523	0.8213	-0.284
Mof_C 	C 	-1.22631e-32	0.5245	0.9223	0.237
Mof_O 	O 	-1.7301e-32	0.87	0.9082	-0.264
Mof_O 	O 	-7.5654e-33	0.0477	0.8213	-0.284
Mof_C 	C 	-1.22631e-32	0.9755	0.9223	0.237
Mof_O 	O 	0.5	0.37	0.4082	-0.249
Mof_O 	O 	0.5	0.5477	0.3213	-0.265
Mof_C 	C 	0.5	0.4755	0.4223	0.244
Mof_O 	O 	0.12	0.25	0.6582	-0.263
Mof_O 	O 	0.2977	0.25	0.5713	-0.273
Mof_C 	C 	0.2255	0.25	0.6723	0.246
Mof_O 	O 	0.38	0.75	0.1582	-0.25
Mof_O 	O 	0.2023	0.75	0.0713	-0.261
Mof_C 	C 	0.2745	0.75	0.1723	0.24
Mof_O 	O 	1.52032e-33	0.13	0.0918	-0.264
Mof_O 	O 	-9.46432e-33	0.9523	0.1787	-0.284
Mof_C 	C 	-3.94917e-34	0.0245	0.0777	0.237
Mof_O 	O 	0.5	0.63	0.5918	-0.249
Mof_O 	O 	0.5	0.4523	0.6787	-0.265
Mof_C 	C 	0.5	0.5245	0.5777	0.244
Mof_O 	O 	0.5	0.87	0.5918	-0.249
Mof_O 	O 	0.5	0.0477	0.6787	-0.265
Mof_C 	C 	0.5	0.9755	0.5777	0.244
Mof_O 	O 	2.71274e-34	0.37	0.0918	-0.264
Mof_O 	O 	5.28068e-34	0.5477	0.1787	-0.284
Mof_C 	C 	-2.26849e-33	0.4755	0.0777	0.237
Mof_O 	O 	0.38	0.25	0.8418	-0.25
Mof_O 	O 	0.2023	0.25	0.9287	-0.261
Mof_C 	C 	0.2745	0.25	0.8277	0.24
Mof_O 	O 	0.12	0.75	0.3418	-0.263
Mof_O 	O 	0.2977	0.75	0.4287	-0.273
Mof_C 	C 	0.2255	0.75	0.3277	0.246
Mof_O 	O 	0.88	0.75	0.3418	-0.197
Mof_O 	O 	0.7023	0.75	0.4287	-0.255
Mof_C 	C 	0.7745	0.75	0.3277	0.244
Mof_O 	O 	0.62	0.25	0.8418	-0.246
Mof_O 	O 	0.7977	0.25	0.9287	-0.224
Mof_C 	C 	0.7255	0.25	0.8277	0.246
Mof_O 	O 	0.62	0.75	0.1582	-0.246
Mof_O 	O 	0.7977	0.75	0.0713	-0.224
Mof_C 	C 	0.7255	0.75	0.1723	0.246
Mof_O 	O 	0.88	0.25	0.6582	-0.197
Mof_O 	O 	0.7023	0.25	0.5713	-0.255
Mof_C 	C 	0.7745	0.25	0.6723	0.244
_end
