data_functionalizedCrystal
_audit_creation_method	'EQeq! by Chris Wilmer'
_symmetry_space_group_name_H-M	'P1'
_symmetry_Int_Tables_number	1
_symmetry_cell_setting	triclinic
loop_
_symmetry_equiv_pos_as_xyz
  x,y,z
_cell_length_a	10.8511
_cell_length_b	28.8803
_cell_length_c	19.155
_cell_angle_alpha	90
_cell_angle_beta	123.902
_cell_angle_gamma	90
loop_
_atom_site_label
_atom_site_type_symbol
_atom_site_fract_x
_atom_site_fract_y
_atom_site_fract_z
_atom_site_charge
Mof_Eu	Eu	0.21901	0.23008	0.28564	2.465
Mof_O 	O 	0.1057	0.1691	0.1824	-0.558
Mof_O 	O 	0.9201	0.2118	0.1618	-0.702
Mof_O 	O 	0.4152	0.7866	0.7622	-0.755
Mof_O 	O 	0.2908	0.2763	0.1131	-0.587
Mof_O 	O 	0.1624	0.2681	0.1677	-0.649
Mof_O 	O 	0.3759	0.6353	0.7058	-0.472
Mof_O 	O 	0.3987	0.2555	0.4263	-0.596
Mof_O 	O 	0.4177	0.2953	0.339	-0.734
Mof_O 	O 	0.8773	0.7011	0.7051	-0.575
Mof_C 	C 	0.6847	0.1068	0.9051	0.072
Mof_C 	C 	0.8303	0.0893	0.9666	-0.162
Mof_H 	H 	0.8632	0.0617	0.9574	0.082
Mof_C 	C 	0.921	0.1144	0.0399	0.11
Mof_H 	H 	0.0179	0.1046	0.0784	-0.012
Mof_C 	C 	0.8691	0.1541	0.0564	-0.21
Mof_C 	C 	0.7272	0.1706	0.9977	0.097
Mof_H 	H 	0.6934	0.1973	0.0091	-0.015
Mof_C 	C 	0.6369	0.1477	0.9233	-0.164
Mof_H 	H 	0.5428	0.1593	0.884	0.082
Mof_C 	C 	0.5912	0.0817	0.8243	0.015
Mof_C 	C 	0.968	0.1803	0.1386	0.476
Mof_C 	C 	0.6311	0.9318	0.799	-0.223
Mof_H 	H 	0.72	0.9476	0.8336	0.101
Mof_C 	C 	0.5916	0.0329	0.8241	-0.082
Mof_H 	H 	0.6538	0.0168	0.874	0.053
Mof_C 	C 	0.6323	0.8846	0.7973	0.173
Mof_H 	H 	0.7212	0.8683	0.8276	-0.033
Mof_C 	C 	0.7642	0.3189	0.8794	0.107
Mof_C 	C 	0.901	0.324	0.891	-0.178
Mof_H 	H 	0.9038	0.338	0.8481	0.094
Mof_C 	C 	0.0311	0.3102	0.9604	0.131
Mof_H 	H 	0.1202	0.3159	0.9656	-0.007
Mof_C 	C 	0.0304	0.2875	0.0233	-0.251
Mof_C 	C 	0.8957	0.2804	0.0149	0.157
Mof_H 	H 	0.892	0.2671	0.0579	-0.011
Mof_C 	C 	0.7665	0.294	0.9393	-0.192
Mof_H 	H 	0.6759	0.2853	0.9299	0.102
Mof_C 	C 	0.6259	0.3418	0.8096	0.008
Mof_C 	C 	0.169	0.2772	0.1048	0.552
Mof_C 	C 	0.3654	0.4908	0.7139	-0.095
Mof_H 	H 	0.2758	0.4749	0.6889	0.062
Mof_C 	C 	0.6264	0.3887	0.8061	-0.091
Mof_H 	H 	0.7145	0.4045	0.8426	0.065
Mof_C 	C 	0.3667	0.5381	0.7157	0.011
Mof_H 	H 	0.278	0.5541	0.6938	0.039
Mof_C 	C 	0.758	0.38	0.6124	0.107
Mof_C 	C 	0.699	0.3913	0.5299	-0.198
Mof_H 	H 	0.7283	0.4186	0.5173	0.101
Mof_C 	C 	0.5949	0.3622	0.4637	0.165
Mof_H 	H 	0.5544	0.3711	0.4083	-0.029
Mof_C 	C 	0.5534	0.3221	0.4792	-0.242
Mof_C 	C 	0.611	0.3107	0.5631	0.139
Mof_H 	H 	0.5793	0.2836	0.5747	-0.011
Mof_C 	C 	0.7116	0.3379	0.6278	-0.19
Mof_H 	H 	0.7504	0.3287	0.6829	0.096
Mof_C 	C 	0.882	0.4066	0.6827	0.006
Mof_C 	C 	0.4466	0.2883	0.4113	0.574
Mof_C 	C 	0.1331	0.5564	0.7831	-0.191
Mof_H 	H 	0.2223	0.5407	0.8053	0.097
Mof_C 	C 	0.882	0.4552	0.684	-0.063
Mof_H 	H 	0.8023	0.4715	0.6401	0.053
Mof_C 	C 	0.1324	0.6023	0.7829	0.14
Mof_H 	H 	0.222	0.6178	0.8051	-0.008
Mof_Eu	Eu	0.78099	0.23008	0.21436	2.477
Mof_O 	O 	0.8943	0.1691	0.3176	-0.539
Mof_O 	O 	0.0799	0.2118	0.3382	-0.698
Mof_O 	O 	0.5848	0.7866	0.7378	-0.757
Mof_O 	O 	0.7092	0.2763	0.3869	-0.587
Mof_O 	O 	0.8376	0.2681	0.3323	-0.646
Mof_O 	O 	0.6241	0.6353	0.7942	-0.471
Mof_O 	O 	0.6013	0.2555	0.0737	-0.597
Mof_O 	O 	0.5823	0.2953	0.161	-0.735
Mof_O 	O 	0.1227	0.7011	0.7949	-0.583
Mof_C 	C 	0.3153	0.1068	0.5949	0.054
Mof_C 	C 	0.1697	0.0893	0.5334	-0.128
Mof_H 	H 	0.1368	0.0617	0.5426	0.066
Mof_C 	C 	0.079	0.1144	0.4601	0.049
Mof_H 	H 	0.9821	0.1046	0.4216	0.021
Mof_C 	C 	0.1309	0.1541	0.4436	-0.179
Mof_C 	C 	0.2728	0.1706	0.5023	0.072
Mof_H 	H 	0.3066	0.1973	0.4909	-0.006
Mof_C 	C 	0.3631	0.1477	0.5767	-0.143
Mof_H 	H 	0.4572	0.1593	0.616	0.076
Mof_C 	C 	0.4088	0.0817	0.6757	0.021
Mof_C 	C 	0.032	0.1803	0.3614	0.444
Mof_C 	C 	0.3689	0.9318	0.701	-0.223
Mof_H 	H 	0.28	0.9476	0.6664	0.1
Mof_C 	C 	0.4084	0.0329	0.6759	-0.085
Mof_H 	H 	0.3462	0.0168	0.626	0.053
Mof_C 	C 	0.3677	0.8846	0.7027	0.172
Mof_H 	H 	0.2788	0.8683	0.6724	-0.033
Mof_C 	C 	0.2358	0.3189	0.6206	0.123
Mof_C 	C 	0.099	0.324	0.609	-0.226
Mof_H 	H 	0.0962	0.338	0.6519	0.104
Mof_C 	C 	0.9689	0.3102	0.5396	0.178
Mof_H 	H 	0.8798	0.3159	0.5344	-0.019
Mof_C 	C 	0.9696	0.2875	0.4767	-0.248
Mof_C 	C 	0.1043	0.2804	0.4851	0.144
Mof_H 	H 	0.108	0.2671	0.4421	-0.011
Mof_C 	C 	0.2335	0.294	0.5607	-0.2
Mof_H 	H 	0.3241	0.2853	0.5701	0.104
Mof_C 	C 	0.3741	0.3418	0.6904	0.001
Mof_C 	C 	0.831	0.2772	0.3952	0.555
Mof_C 	C 	0.6346	0.4908	0.7861	-0.095
Mof_H 	H 	0.7242	0.4749	0.8111	0.065
Mof_C 	C 	0.3736	0.3887	0.6939	-0.088
Mof_H 	H 	0.2855	0.4045	0.6574	0.062
Mof_C 	C 	0.6333	0.5381	0.7843	0.011
Mof_H 	H 	0.722	0.5541	0.8062	0.041
Mof_C 	C 	0.242	0.38	0.8876	0.107
Mof_C 	C 	0.301	0.3913	0.9701	-0.201
Mof_H 	H 	0.2717	0.4186	0.9827	0.1
Mof_C 	C 	0.4051	0.3622	0.0363	0.167
Mof_H 	H 	0.4456	0.3711	0.0917	-0.03
Mof_C 	C 	0.4466	0.3221	0.0208	-0.242
Mof_C 	C 	0.389	0.3107	0.9369	0.138
Mof_H 	H 	0.4207	0.2836	0.9253	-0.011
Mof_C 	C 	0.2884	0.3379	0.8722	-0.192
Mof_H 	H 	0.2496	0.3287	0.8171	0.094
Mof_C 	C 	0.118	0.4066	0.8173	-0.002
Mof_C 	C 	0.5534	0.2883	0.0887	0.574
Mof_C 	C 	0.8669	0.5564	0.7169	-0.182
Mof_H 	H 	0.7777	0.5407	0.6947	0.096
Mof_C 	C 	0.118	0.4552	0.816	-0.074
Mof_H 	H 	0.1977	0.4715	0.8599	0.055
Mof_C 	C 	0.8676	0.6023	0.7171	0.149
Mof_H 	H 	0.778	0.6178	0.6949	-0.009
Mof_Eu	Eu	0.78099	0.76992	0.71436	2.477
Mof_O 	O 	0.8943	0.8309	0.8176	-0.539
Mof_O 	O 	0.0799	0.7882	0.8382	-0.698
Mof_O 	O 	0.5848	0.2134	0.2378	-0.756
Mof_O 	O 	0.7092	0.7237	0.8869	-0.586
Mof_O 	O 	0.8376	0.7319	0.8323	-0.645
Mof_O 	O 	0.6241	0.3647	0.2942	-0.471
Mof_O 	O 	0.6013	0.7445	0.5737	-0.597
Mof_O 	O 	0.5823	0.7047	0.661	-0.735
Mof_O 	O 	0.1227	0.2989	0.2949	-0.583
Mof_C 	C 	0.3153	0.8932	0.0949	0.053
Mof_C 	C 	0.1697	0.9107	0.0334	-0.125
Mof_H 	H 	0.1368	0.9383	0.0426	0.065
Mof_C 	C 	0.079	0.8856	0.9601	0.044
Mof_H 	H 	0.9821	0.8954	0.9216	0.023
Mof_C 	C 	0.1309	0.8459	0.9436	-0.18
Mof_C 	C 	0.2728	0.8294	0.0023	0.076
Mof_H 	H 	0.3066	0.8027	0.9909	-0.008
Mof_C 	C 	0.3631	0.8523	0.0767	-0.145
Mof_H 	H 	0.4572	0.8407	0.116	0.077
Mof_C 	C 	0.4088	0.9183	0.1757	0.021
Mof_C 	C 	0.032	0.8197	0.8614	0.443
Mof_C 	C 	0.3689	0.0682	0.201	-0.223
Mof_H 	H 	0.28	0.0524	0.1664	0.1
Mof_C 	C 	0.4084	0.9671	0.1759	-0.084
Mof_H 	H 	0.3462	0.9832	0.126	0.053
Mof_C 	C 	0.3677	0.1154	0.2027	0.172
Mof_H 	H 	0.2788	0.1317	0.1724	-0.033
Mof_C 	C 	0.2358	0.6811	0.1206	0.116
Mof_C 	C 	0.099	0.676	0.109	-0.216
Mof_H 	H 	0.0962	0.662	0.1519	0.101
Mof_C 	C 	0.9689	0.6898	0.0396	0.166
Mof_H 	H 	0.8798	0.6841	0.0344	-0.015
Mof_C 	C 	0.9696	0.7125	0.9767	-0.239
Mof_C 	C 	0.1043	0.7196	0.9851	0.133
Mof_H 	H 	0.108	0.7329	0.9421	-0.008
Mof_C 	C 	0.2335	0.706	0.0607	-0.19
Mof_H 	H 	0.3241	0.7147	0.0701	0.101
Mof_C 	C 	0.3741	0.6582	0.1904	0.004
Mof_C 	C 	0.831	0.7228	0.8952	0.552
Mof_C 	C 	0.6346	0.5092	0.2861	-0.095
Mof_H 	H 	0.7242	0.5251	0.3111	0.065
Mof_C 	C 	0.3736	0.6113	0.1939	-0.089
Mof_H 	H 	0.2855	0.5955	0.1574	0.062
Mof_C 	C 	0.6333	0.4619	0.2843	0.011
Mof_H 	H 	0.722	0.4459	0.3062	0.041
Mof_C 	C 	0.242	0.62	0.3876	0.107
Mof_C 	C 	0.301	0.6087	0.4701	-0.2
Mof_H 	H 	0.2717	0.5814	0.4827	0.1
Mof_C 	C 	0.4051	0.6378	0.5363	0.166
Mof_H 	H 	0.4456	0.6289	0.5917	-0.03
Mof_C 	C 	0.4466	0.6779	0.5208	-0.243
Mof_C 	C 	0.389	0.6893	0.4369	0.139
Mof_H 	H 	0.4207	0.7164	0.4253	-0.012
Mof_C 	C 	0.2884	0.6621	0.3722	-0.192
Mof_H 	H 	0.2496	0.6713	0.3171	0.094
Mof_C 	C 	0.118	0.5934	0.3173	-0.002
Mof_C 	C 	0.5534	0.7117	0.5887	0.574
Mof_C 	C 	0.8669	0.4436	0.2169	-0.183
Mof_H 	H 	0.7777	0.4593	0.1947	0.096
Mof_C 	C 	0.118	0.5448	0.316	-0.074
Mof_H 	H 	0.1977	0.5285	0.3599	0.055
Mof_C 	C 	0.8676	0.3977	0.2171	0.148
Mof_H 	H 	0.778	0.3822	0.1949	-0.009
Mof_Eu	Eu	0.21901	0.76992	0.78564	2.465
Mof_O 	O 	0.1057	0.8309	0.6824	-0.558
Mof_O 	O 	0.9201	0.7882	0.6618	-0.701
Mof_O 	O 	0.4152	0.2134	0.2622	-0.755
Mof_O 	O 	0.2908	0.7237	0.6131	-0.588
Mof_O 	O 	0.1624	0.7319	0.6677	-0.65
Mof_O 	O 	0.3759	0.3647	0.2058	-0.472
Mof_O 	O 	0.3987	0.7445	0.9263	-0.596
Mof_O 	O 	0.4177	0.7047	0.839	-0.734
Mof_O 	O 	0.8773	0.2989	0.2051	-0.577
Mof_C 	C 	0.6847	0.8932	0.4051	0.074
Mof_C 	C 	0.8303	0.9107	0.4666	-0.165
Mof_H 	H 	0.8632	0.9383	0.4574	0.083
Mof_C 	C 	0.921	0.8856	0.5399	0.116
Mof_H 	H 	0.0179	0.8954	0.5784	-0.015
Mof_C 	C 	0.8691	0.8459	0.5564	-0.213
Mof_C 	C 	0.7272	0.8294	0.4977	0.1
Mof_H 	H 	0.6934	0.8027	0.5091	-0.016
Mof_C 	C 	0.6369	0.8523	0.4233	-0.166
Mof_H 	H 	0.5428	0.8407	0.384	0.083
Mof_C 	C 	0.5912	0.9183	0.3243	0.014
Mof_C 	C 	0.968	0.8197	0.6386	0.478
Mof_C 	C 	0.6311	0.0682	0.299	-0.223
Mof_H 	H 	0.72	0.0524	0.3336	0.101
Mof_C 	C 	0.5916	0.9671	0.3241	-0.081
Mof_H 	H 	0.6538	0.9832	0.374	0.053
Mof_C 	C 	0.6323	0.1154	0.2973	0.173
Mof_H 	H 	0.7212	0.1317	0.3276	-0.033
Mof_C 	C 	0.7642	0.6811	0.3794	0.113
Mof_C 	C 	0.901	0.676	0.391	-0.188
Mof_H 	H 	0.9038	0.662	0.3481	0.097
Mof_C 	C 	0.0311	0.6898	0.4604	0.143
Mof_H 	H 	0.1202	0.6841	0.4656	-0.01
Mof_C 	C 	0.0304	0.7125	0.5233	-0.261
Mof_C 	C 	0.8957	0.7196	0.5149	0.166
Mof_H 	H 	0.892	0.7329	0.5579	-0.014
Mof_C 	C 	0.7665	0.706	0.4393	-0.2
Mof_H 	H 	0.6759	0.7147	0.4299	0.105
Mof_C 	C 	0.6259	0.6582	0.3096	0.006
Mof_C 	C 	0.169	0.7228	0.6048	0.556
Mof_C 	C 	0.3654	0.5092	0.2139	-0.095
Mof_H 	H 	0.2758	0.5251	0.1889	0.062
Mof_C 	C 	0.6264	0.6113	0.3061	-0.09
Mof_H 	H 	0.7145	0.5955	0.3426	0.065
Mof_C 	C 	0.3667	0.4619	0.2157	0.011
Mof_H 	H 	0.278	0.4459	0.1938	0.039
Mof_C 	C 	0.758	0.62	0.1124	0.107
Mof_C 	C 	0.699	0.6087	0.0299	-0.198
Mof_H 	H 	0.7283	0.5814	0.0173	0.101
Mof_C 	C 	0.5949	0.6378	0.9637	0.166
Mof_H 	H 	0.5544	0.6289	0.9083	-0.029
Mof_C 	C 	0.5534	0.6779	0.9792	-0.243
Mof_C 	C 	0.611	0.6893	0.0631	0.14
Mof_H 	H 	0.5793	0.7164	0.0747	-0.011
Mof_C 	C 	0.7116	0.6621	0.1278	-0.191
Mof_H 	H 	0.7504	0.6713	0.1829	0.096
Mof_C 	C 	0.882	0.5934	0.1827	0.005
Mof_C 	C 	0.4466	0.7117	0.9113	0.574
Mof_C 	C 	0.1331	0.4436	0.2831	-0.191
Mof_H 	H 	0.2223	0.4593	0.3053	0.097
Mof_C 	C 	0.882	0.5448	0.184	-0.064
Mof_H 	H 	0.8023	0.5285	0.1401	0.053
Mof_C 	C 	0.1324	0.3977	0.2829	0.14
Mof_H 	H 	0.222	0.3822	0.3051	-0.008
Mof_Eu	Eu	0.5	0.70868	0.75	2.565
Mof_C 	C 	0.5	0.1051	0.75	-0.093
Mof_H 	H 	0.5	0.1373	0.75	0.061
Mof_C 	C 	0.5	0.0087	0.75	-0.002
Mof_C 	C 	0.5	0.957	0.75	0.115
Mof_C 	C 	0.5	0.8619	0.75	-0.319
Mof_C 	C 	0.5	0.81	0.75	0.596
Mof_C 	C 	0.5	0.3162	0.75	-0.081
Mof_H 	H 	0.5	0.284	0.75	0.056
Mof_C 	C 	0.5	0.414	0.75	0.034
Mof_C 	C 	0.5	0.4659	0.75	0.033
Mof_C 	C 	0.5	0.5632	0.75	-0.079
Mof_C 	C 	0.5	0.6134	0.75	0.289
Mof_Eu	Eu	0.5	0.29132	0.25	2.565
Mof_C 	C 	0.5	0.8949	0.25	-0.092
Mof_H 	H 	0.5	0.8627	0.25	0.061
Mof_C 	C 	0.5	0.9913	0.25	-0.002
Mof_C 	C 	0.5	0.043	0.25	0.116
Mof_C 	C 	0.5	0.1381	0.25	-0.32
Mof_C 	C 	0.5	0.19	0.25	0.596
Mof_C 	C 	0.5	0.6838	0.25	-0.081
Mof_H 	H 	0.5	0.716	0.25	0.056
Mof_C 	C 	0.5	0.586	0.25	0.034
Mof_C 	C 	0.5	0.5341	0.25	0.033
Mof_C 	C 	0.5	0.4368	0.25	-0.079
Mof_C 	C 	0.5	0.3866	0.25	0.289
Mof_C 	C 	7.73278e-33	0.3835	0.75	-0.09
Mof_H 	H 	7.73278e-33	0.3513	0.75	0.052
Mof_C 	C 	7.73278e-33	0.4789	0.75	-0.007
Mof_C 	C 	1.82544e-16	0.5309	0.75	0.09
Mof_C 	C 	1.82544e-16	0.6291	0.75	-0.236
Mof_C 	C 	1.82544e-16	0.68	0.75	0.535
Mof_C 	C 	2.57759e-33	0.6165	0.25	-0.088
Mof_H 	H 	4.56361e-17	0.6487	0.25	0.052
Mof_C 	C 	2.57759e-33	0.5211	0.25	-0.006
Mof_C 	C 	2.57759e-33	0.4691	0.25	0.091
Mof_C 	C 	2.57759e-33	0.3709	0.25	-0.235
Mof_C 	C 	2.57759e-33	0.32	0.25	0.536
_end
