data_functionalizedCrystal
_audit_creation_method	'EQeq! by Chris Wilmer'
_symmetry_space_group_name_H-M	'P1'
_symmetry_Int_Tables_number	1
_symmetry_cell_setting	triclinic
loop_
_symmetry_equiv_pos_as_xyz
  x,y,z
_cell_length_a	8.3493
_cell_length_b	11.7276
_cell_length_c	8.9089
_cell_angle_alpha	90
_cell_angle_beta	90
_cell_angle_gamma	90
loop_
_atom_site_label
_atom_site_type_symbol
_atom_site_fract_x
_atom_site_fract_y
_atom_site_fract_z
_atom_site_charge
Mof_O 	O 	0.25761	0.40584	0.36451	-0.409
Mof_O 	O 	0.40672	0.18209	0.41359	-0.423
Mof_O 	O 	0.56379	0.19234	0.61254	-0.4
Mof_C 	C 	0.5226	0.22178	0.4839	0.502
Mof_H 	H 	0.5833	0.2778	0.4367	-0.113
Mof_O 	O 	0.24239	0.59416	0.36451	-0.41
Mof_O 	O 	0.09328	0.81791	0.41359	-0.395
Mof_O 	O 	0.93621	0.80766	0.61254	-0.377
Mof_C 	C 	0.9774	0.77822	0.4839	0.494
Mof_H 	H 	0.9167	0.7222	0.4367	-0.108
Mof_O 	O 	0.24239	0.90584	0.13549	-0.336
Mof_O 	O 	0.09328	0.68209	0.08641	-0.402
Mof_O 	O 	0.93621	0.69234	0.88746	-0.38
Mof_C 	C 	0.9774	0.72178	0.0161	0.478
Mof_H 	H 	0.9167	0.7778	0.0633	-0.101
Mof_O 	O 	0.25761	0.09416	0.13549	-0.392
Mof_O 	O 	0.40672	0.31791	0.08641	-0.416
Mof_O 	O 	0.56379	0.30766	0.88746	-0.394
Mof_C 	C 	0.5226	0.27822	0.0161	0.502
Mof_H 	H 	0.5833	0.2222	0.0633	-0.118
Mof_O 	O 	0.74239	0.59416	0.63549	-0.41
Mof_O 	O 	0.59328	0.81791	0.58641	-0.399
Mof_O 	O 	0.43621	0.80766	0.38746	-0.378
Mof_C 	C 	0.4774	0.77822	0.5161	0.5
Mof_H 	H 	0.4167	0.7222	0.5633	-0.109
Mof_O 	O 	0.75761	0.40584	0.63549	-0.41
Mof_O 	O 	0.90672	0.18209	0.58641	-0.421
Mof_O 	O 	0.06379	0.19234	0.38746	-0.399
Mof_C 	C 	0.0226	0.22178	0.5161	0.498
Mof_H 	H 	0.0833	0.2778	0.5633	-0.113
Mof_O 	O 	0.75761	0.09416	0.86451	-0.392
Mof_O 	O 	0.90672	0.31791	0.91359	-0.406
Mof_O 	O 	0.06379	0.30766	0.11254	-0.385
Mof_C 	C 	0.0226	0.27822	0.9839	0.482
Mof_H 	H 	0.0833	0.2222	0.9367	-0.113
Mof_O 	O 	0.74239	0.90584	0.86451	-0.34
Mof_O 	O 	0.59328	0.68209	0.91359	-0.412
Mof_O 	O 	0.43621	0.69234	0.11254	-0.389
Mof_C 	C 	0.4774	0.72178	0.9839	0.5
Mof_H 	H 	0.4167	0.7778	0.9367	-0.106
Mof_Zn	Zn	0.25565	0.25	0.25	1.256
Mof_Zn	Zn	0.24435	0.75	0.25	1.257
Mof_Zn	Zn	0.74435	0.75	0.75	1.257
Mof_Zn	Zn	0.75565	0.25	0.75	1.256
Mof_C 	C 	0.25	0.5	0.3019	0.498
Mof_H 	H 	0.25	0.5	0.1975	-0.107
Mof_C 	C 	0.25	0	0.1981	0.384
Mof_H 	H 	0.25	0	0.3025	-0.09
Mof_C 	C 	0.75	0.5	0.6981	0.498
Mof_H 	H 	0.75	0.5	0.8025	-0.107
Mof_C 	C 	0.75	-7.23448e-33	0.8019	0.389
Mof_H 	H 	0.75	-3.61724e-33	0.6975	-0.091
_end
