data_functionalizedCrystal
_audit_creation_method	'EQeq! by Chris Wilmer'
_symmetry_space_group_name_H-M	'P1'
_symmetry_Int_Tables_number	1
_symmetry_cell_setting	triclinic
loop_
_symmetry_equiv_pos_as_xyz
  x,y,z
_cell_length_a	12.2473
_cell_length_b	25.914
_cell_length_c	25.9141
_cell_angle_alpha	90
_cell_angle_beta	90
_cell_angle_gamma	90
loop_
_atom_site_label
_atom_site_type_symbol
_atom_site_fract_x
_atom_site_fract_y
_atom_site_fract_z
_atom_site_charge
Mof_Cu	Cu	0.92589	0.50601	0.96326	0.908
Mof_Cu	Cu	0.07411	0.49399	0.46326	0.908
Mof_Cu	Cu	0.07411	0.00601	0.53674	0.906
Mof_Cu	Cu	0.92589	0.99399	0.03674	0.905
Mof_Cu	Cu	0.07411	0.49399	0.03674	0.909
Mof_Cu	Cu	0.92589	0.50601	0.53674	0.909
Mof_Cu	Cu	0.92589	0.99399	0.46326	0.906
Mof_Cu	Cu	0.07411	0.00601	0.96326	0.906
Mof_Cu	Cu	0.00464	0.29705	0.25	0.916
Mof_Cu	Cu	0.85425	0.22377	0.25	0.904
Mof_Cu	Cu	0.99536	0.70295	0.75	0.916
Mof_Cu	Cu	0.14575	0.77623	0.75	0.904
Mof_Cu	Cu	0.99536	0.79705	0.25	0.915
Mof_Cu	Cu	0.14575	0.72377	0.25	0.904
Mof_Cu	Cu	0.00464	0.20295	0.75	0.915
Mof_Cu	Cu	0.85425	0.27623	0.75	0.904
Mof_H 	H 	0.9023	0.3856	0.129	0.079
Mof_H 	H 	0.6619	0.2803	0.1191	0.099
Mof_H 	H 	0.6977	0.3878	0.0082	0.108
Mof_H 	H 	0.4858	0.275	0.076	0.049
Mof_H 	H 	0.5847	0.2409	0.0537	0.049
Mof_H 	H 	0.3359	0.3053	0.0117	0.053
Mof_H 	H 	0.4315	0.3254	0.9742	0.053
Mof_H 	H 	0.2112	0.2554	0.8649	0.1
Mof_H 	H 	0.9982	0.3756	0.8689	0.071
Mof_H 	H 	0.2475	0.3672	0.9728	0.092
Mof_H 	H 	0.0977	0.6144	0.629	0.079
Mof_H 	H 	0.3381	0.7197	0.6191	0.099
Mof_H 	H 	0.3023	0.6122	0.5082	0.109
Mof_H 	H 	0.5142	0.725	0.576	0.049
Mof_H 	H 	0.4153	0.7591	0.5537	0.049
Mof_H 	H 	0.6641	0.6947	0.5117	0.053
Mof_H 	H 	0.5685	0.6746	0.4742	0.053
Mof_H 	H 	0.7888	0.7446	0.3649	0.1
Mof_H 	H 	0.0018	0.6244	0.3689	0.071
Mof_H 	H 	0.7525	0.6328	0.4728	0.092
Mof_H 	H 	0.0977	0.8856	0.371	0.08
Mof_H 	H 	0.3381	0.7803	0.3809	0.099
Mof_H 	H 	0.3023	0.8878	0.4918	0.109
Mof_H 	H 	0.5142	0.775	0.424	0.049
Mof_H 	H 	0.4153	0.7409	0.4463	0.049
Mof_H 	H 	0.6641	0.8053	0.4883	0.052
Mof_H 	H 	0.5685	0.8254	0.5258	0.053
Mof_H 	H 	0.7888	0.7554	0.6351	0.101
Mof_H 	H 	0.0018	0.8756	0.6311	0.075
Mof_H 	H 	0.7525	0.8672	0.5272	0.093
Mof_H 	H 	0.9023	0.1144	0.871	0.08
Mof_H 	H 	0.6619	0.2197	0.8809	0.099
Mof_H 	H 	0.6977	0.1122	0.9918	0.109
Mof_H 	H 	0.4858	0.225	0.924	0.049
Mof_H 	H 	0.5847	0.2591	0.9463	0.049
Mof_H 	H 	0.3359	0.1947	0.9883	0.052
Mof_H 	H 	0.4315	0.1746	0.0258	0.053
Mof_H 	H 	0.2112	0.2446	0.1351	0.101
Mof_H 	H 	0.9982	0.1244	0.1311	0.075
Mof_H 	H 	0.2475	0.1328	0.0272	0.093
Mof_H 	H 	0.0977	0.6144	0.871	0.079
Mof_H 	H 	0.3381	0.7197	0.8809	0.099
Mof_H 	H 	0.3023	0.6122	0.9918	0.109
Mof_H 	H 	0.5142	0.725	0.924	0.048
Mof_H 	H 	0.4153	0.7591	0.9463	0.048
Mof_H 	H 	0.6641	0.6947	0.9883	0.054
Mof_H 	H 	0.5685	0.6746	0.0258	0.053
Mof_H 	H 	0.7888	0.7446	0.1351	0.1
Mof_H 	H 	0.0018	0.6244	0.1311	0.071
Mof_H 	H 	0.7525	0.6328	0.0272	0.092
Mof_H 	H 	0.9023	0.3856	0.371	0.079
Mof_H 	H 	0.6619	0.2803	0.3809	0.099
Mof_H 	H 	0.6977	0.3878	0.4918	0.109
Mof_H 	H 	0.4858	0.275	0.424	0.049
Mof_H 	H 	0.5847	0.2409	0.4463	0.049
Mof_H 	H 	0.3359	0.3053	0.4883	0.053
Mof_H 	H 	0.4315	0.3254	0.5258	0.053
Mof_H 	H 	0.2112	0.2554	0.6351	0.1
Mof_H 	H 	0.9982	0.3756	0.6311	0.071
Mof_H 	H 	0.2475	0.3672	0.5272	0.092
Mof_H 	H 	0.9023	0.1144	0.629	0.08
Mof_H 	H 	0.6619	0.2197	0.6191	0.099
Mof_H 	H 	0.6977	0.1122	0.5082	0.109
Mof_H 	H 	0.4858	0.225	0.576	0.049
Mof_H 	H 	0.5847	0.2591	0.5537	0.049
Mof_H 	H 	0.3359	0.1947	0.5117	0.052
Mof_H 	H 	0.4315	0.1746	0.4742	0.053
Mof_H 	H 	0.2112	0.2446	0.3649	0.101
Mof_H 	H 	0.9982	0.1244	0.3689	0.075
Mof_H 	H 	0.2475	0.1328	0.4728	0.093
Mof_H 	H 	0.0977	0.8856	0.129	0.08
Mof_H 	H 	0.3381	0.7803	0.1191	0.099
Mof_H 	H 	0.3023	0.8878	0.0082	0.108
Mof_H 	H 	0.5142	0.775	0.076	0.048
Mof_H 	H 	0.4153	0.7409	0.0537	0.048
Mof_H 	H 	0.6641	0.8053	0.0117	0.05
Mof_H 	H 	0.5685	0.8254	0.9742	0.052
Mof_H 	H 	0.7888	0.7554	0.8649	0.101
Mof_H 	H 	0.0018	0.8756	0.8689	0.075
Mof_H 	H 	0.7525	0.8672	0.9728	0.093
Mof_C 	C 	0.8725	0.43678	0.04064	0.324
Mof_C 	C 	0.8086	0.3936	0.06434	-0.004
Mof_C 	C 	0.8416	0.3716	0.11101	-0.048
Mof_C 	C 	0.7875	0.33023	0.13089	0.005
Mof_C 	C 	0.6994	0.3093	0.10532	-0.146
Mof_C 	C 	0.6662	0.33146	0.05876	0.209
Mof_C 	C 	0.7212	0.3729	0.03974	-0.145
Mof_C 	C 	0.8321	0.3042	0.17974	0.317
Mof_C 	C 	0.5309	0.268	0.04503	0.008
Mof_C 	C 	0.386	0.29527	0.98347	-0.001
Mof_C 	C 	0.2421	0.3064	0.92259	0.189
Mof_C 	C 	0.1866	0.2864	0.88059	-0.118
Mof_C 	C 	0.0948	0.3116	0.86125	-0.03
Mof_C 	C 	0.06	0.3581	0.88245	-0.025
Mof_C 	C 	0.1185	0.37861	0.92457	-0.026
Mof_C 	C 	0.2086	0.353	0.94442	-0.122
Mof_C 	C 	0.0343	0.286	0.81902	0.341
Mof_C 	C 	0.078	0.42677	0.94975	0.345
Mof_C 	C 	0.1275	0.56322	0.54064	0.325
Mof_C 	C 	0.1914	0.6064	0.56434	-0.004
Mof_C 	C 	0.1584	0.6284	0.61101	-0.048
Mof_C 	C 	0.2125	0.66977	0.63089	0.005
Mof_C 	C 	0.3006	0.6907	0.60532	-0.146
Mof_C 	C 	0.3338	0.66854	0.55876	0.209
Mof_C 	C 	0.2788	0.6271	0.53974	-0.145
Mof_C 	C 	0.1679	0.6958	0.67974	0.317
Mof_C 	C 	0.4691	0.732	0.54503	0.008
Mof_C 	C 	0.614	0.70473	0.48347	-0.001
Mof_C 	C 	0.7579	0.6936	0.42259	0.189
Mof_C 	C 	0.8134	0.7136	0.38059	-0.118
Mof_C 	C 	0.9052	0.6884	0.36125	-0.03
Mof_C 	C 	0.94	0.6419	0.38245	-0.025
Mof_C 	C 	0.8815	0.62139	0.42457	-0.026
Mof_C 	C 	0.7914	0.647	0.44442	-0.122
Mof_C 	C 	0.9657	0.714	0.31902	0.341
Mof_C 	C 	0.922	0.57323	0.44975	0.345
Mof_C 	C 	0.1275	0.93678	0.45936	0.325
Mof_C 	C 	0.1914	0.8936	0.43566	-0.003
Mof_C 	C 	0.1584	0.8716	0.38899	-0.048
Mof_C 	C 	0.2125	0.83023	0.36911	0.005
Mof_C 	C 	0.3006	0.8093	0.39468	-0.146
Mof_C 	C 	0.3338	0.83146	0.44124	0.21
Mof_C 	C 	0.2788	0.8729	0.46026	-0.145
Mof_C 	C 	0.1679	0.8042	0.32026	0.317
Mof_C 	C 	0.4691	0.768	0.45497	0.009
Mof_C 	C 	0.614	0.79527	0.51653	-0
Mof_C 	C 	0.7579	0.8064	0.57741	0.191
Mof_C 	C 	0.8134	0.7864	0.61941	-0.121
Mof_C 	C 	0.9052	0.8116	0.63875	-0.027
Mof_C 	C 	0.94	0.8581	0.61755	-0.032
Mof_C 	C 	0.8815	0.87861	0.57543	-0.022
Mof_C 	C 	0.7914	0.853	0.55558	-0.125
Mof_C 	C 	0.9657	0.786	0.68098	0.338
Mof_C 	C 	0.922	0.92677	0.55025	0.339
Mof_C 	C 	0.8725	0.06322	0.95936	0.323
Mof_C 	C 	0.8086	0.1064	0.93566	-0.003
Mof_C 	C 	0.8416	0.1284	0.88899	-0.048
Mof_C 	C 	0.7875	0.16977	0.86911	0.005
Mof_C 	C 	0.6994	0.1907	0.89468	-0.146
Mof_C 	C 	0.6662	0.16854	0.94124	0.21
Mof_C 	C 	0.7212	0.1271	0.96026	-0.145
Mof_C 	C 	0.8321	0.1958	0.82026	0.317
Mof_C 	C 	0.5309	0.232	0.95497	0.008
Mof_C 	C 	0.386	0.20473	0.01653	0
Mof_C 	C 	0.2421	0.1936	0.07741	0.191
Mof_C 	C 	0.1866	0.2136	0.11941	-0.121
Mof_C 	C 	0.0948	0.1884	0.13875	-0.027
Mof_C 	C 	0.06	0.1419	0.11755	-0.032
Mof_C 	C 	0.1185	0.12139	0.07543	-0.022
Mof_C 	C 	0.2086	0.147	0.05558	-0.125
Mof_C 	C 	0.0343	0.214	0.18098	0.338
Mof_C 	C 	0.078	0.07323	0.05025	0.339
Mof_C 	C 	0.1275	0.56322	0.95936	0.326
Mof_C 	C 	0.1914	0.6064	0.93566	-0.004
Mof_C 	C 	0.1584	0.6284	0.88899	-0.048
Mof_C 	C 	0.2125	0.66977	0.86911	0.005
Mof_C 	C 	0.3006	0.6907	0.89468	-0.146
Mof_C 	C 	0.3338	0.66854	0.94124	0.21
Mof_C 	C 	0.2788	0.6271	0.96026	-0.145
Mof_C 	C 	0.1679	0.6958	0.82026	0.317
Mof_C 	C 	0.4691	0.732	0.95497	0.011
Mof_C 	C 	0.614	0.70473	0.01653	-0.001
Mof_C 	C 	0.7579	0.6936	0.07741	0.188
Mof_C 	C 	0.8134	0.7136	0.11941	-0.118
Mof_C 	C 	0.9052	0.6884	0.13875	-0.03
Mof_C 	C 	0.94	0.6419	0.11755	-0.025
Mof_C 	C 	0.8815	0.62139	0.07543	-0.026
Mof_C 	C 	0.7914	0.647	0.05558	-0.122
Mof_C 	C 	0.9657	0.714	0.18098	0.341
Mof_C 	C 	0.922	0.57323	0.05025	0.345
Mof_C 	C 	0.8725	0.43678	0.45936	0.325
Mof_C 	C 	0.8086	0.3936	0.43566	-0.004
Mof_C 	C 	0.8416	0.3716	0.38899	-0.048
Mof_C 	C 	0.7875	0.33023	0.36911	0.005
Mof_C 	C 	0.6994	0.3093	0.39468	-0.146
Mof_C 	C 	0.6662	0.33146	0.44124	0.209
Mof_C 	C 	0.7212	0.3729	0.46026	-0.145
Mof_C 	C 	0.8321	0.3042	0.32026	0.317
Mof_C 	C 	0.5309	0.268	0.45497	0.008
Mof_C 	C 	0.386	0.29527	0.51653	-0.001
Mof_C 	C 	0.2421	0.3064	0.57741	0.189
Mof_C 	C 	0.1866	0.2864	0.61941	-0.118
Mof_C 	C 	0.0948	0.3116	0.63875	-0.03
Mof_C 	C 	0.06	0.3581	0.61755	-0.025
Mof_C 	C 	0.1185	0.37861	0.57543	-0.026
Mof_C 	C 	0.2086	0.353	0.55558	-0.122
Mof_C 	C 	0.0343	0.286	0.68098	0.341
Mof_C 	C 	0.078	0.42677	0.55025	0.345
Mof_C 	C 	0.8725	0.06322	0.54064	0.325
Mof_C 	C 	0.8086	0.1064	0.56434	-0.003
Mof_C 	C 	0.8416	0.1284	0.61101	-0.048
Mof_C 	C 	0.7875	0.16977	0.63089	0.005
Mof_C 	C 	0.6994	0.1907	0.60532	-0.146
Mof_C 	C 	0.6662	0.16854	0.55876	0.21
Mof_C 	C 	0.7212	0.1271	0.53974	-0.145
Mof_C 	C 	0.8321	0.1958	0.67974	0.317
Mof_C 	C 	0.5309	0.232	0.54503	0.009
Mof_C 	C 	0.386	0.20473	0.48347	-0
Mof_C 	C 	0.2421	0.1936	0.42259	0.191
Mof_C 	C 	0.1866	0.2136	0.38059	-0.121
Mof_C 	C 	0.0948	0.1884	0.36125	-0.027
Mof_C 	C 	0.06	0.1419	0.38245	-0.032
Mof_C 	C 	0.1185	0.12139	0.42457	-0.022
Mof_C 	C 	0.2086	0.147	0.44442	-0.125
Mof_C 	C 	0.0343	0.214	0.31902	0.338
Mof_C 	C 	0.078	0.07323	0.44975	0.339
Mof_C 	C 	0.1275	0.93678	0.04064	0.322
Mof_C 	C 	0.1914	0.8936	0.06434	-0.002
Mof_C 	C 	0.1584	0.8716	0.11101	-0.049
Mof_C 	C 	0.2125	0.83023	0.13089	0.005
Mof_C 	C 	0.3006	0.8093	0.10532	-0.147
Mof_C 	C 	0.3338	0.83146	0.05876	0.21
Mof_C 	C 	0.2788	0.8729	0.03974	-0.146
Mof_C 	C 	0.1679	0.8042	0.17974	0.317
Mof_C 	C 	0.4691	0.768	0.04503	0.01
Mof_C 	C 	0.614	0.79527	0.98347	0.005
Mof_C 	C 	0.7579	0.8064	0.92259	0.192
Mof_C 	C 	0.8134	0.7864	0.88059	-0.121
Mof_C 	C 	0.9052	0.8116	0.86125	-0.026
Mof_C 	C 	0.94	0.8581	0.88245	-0.033
Mof_C 	C 	0.8815	0.87861	0.92457	-0.021
Mof_C 	C 	0.7914	0.853	0.94442	-0.125
Mof_C 	C 	0.9657	0.786	0.81902	0.338
Mof_C 	C 	0.922	0.92677	0.94975	0.339
Mof_C 	C 	0.4577	0.25	-0	0.024
Mof_C 	C 	0.5423	0.75	0.5	0.024
Mof_C 	C 	0.5423	0.75	-0	0.021
Mof_C 	C 	0.4577	0.25	0.5	0.024
Mof_O 	O 	0.837	0.45629	0.99993	-0.396
Mof_O 	O 	0.9629	0.44782	0.0627	-0.4
Mof_O 	O 	0.917	0.3268	0.19778	-0.401
Mof_O 	O 	0.7833	0.26546	0.19596	-0.394
Mof_O 	O 	0.5849	0.31328	0.0293	-0.233
Mof_O 	O 	0.3256	0.27763	0.93969	-0.224
Mof_O 	O 	0.1246	0.43912	0.99101	-0.406
Mof_O 	O 	0.9981	0.44841	0.9293	-0.402
Mof_O 	O 	0.9471	0.30736	0.80307	-0.394
Mof_O 	O 	0.0721	0.24487	0.80191	-0.41
Mof_O 	O 	0.163	0.54371	0.49993	-0.397
Mof_O 	O 	0.0371	0.55218	0.5627	-0.4
Mof_O 	O 	0.083	0.6732	0.69778	-0.401
Mof_O 	O 	0.2167	0.73454	0.69596	-0.394
Mof_O 	O 	0.4151	0.68672	0.5293	-0.233
Mof_O 	O 	0.6744	0.72237	0.43969	-0.224
Mof_O 	O 	0.8754	0.56088	0.49101	-0.406
Mof_O 	O 	0.0019	0.55159	0.4293	-0.402
Mof_O 	O 	0.0529	0.69264	0.30307	-0.394
Mof_O 	O 	0.9279	0.75513	0.30191	-0.41
Mof_O 	O 	0.163	0.95629	0.50007	-0.395
Mof_O 	O 	0.0371	0.94782	0.4373	-0.397
Mof_O 	O 	0.083	0.8268	0.30222	-0.4
Mof_O 	O 	0.2167	0.76546	0.30404	-0.394
Mof_O 	O 	0.4151	0.81328	0.4707	-0.233
Mof_O 	O 	0.6744	0.77763	0.56031	-0.225
Mof_O 	O 	0.8754	0.93912	0.50899	-0.405
Mof_O 	O 	0.0019	0.94841	0.5707	-0.397
Mof_O 	O 	0.0529	0.80736	0.69693	-0.393
Mof_O 	O 	0.9279	0.74487	0.69809	-0.409
Mof_O 	O 	0.837	0.04371	7e-05	-0.394
Mof_O 	O 	0.9629	0.05218	0.9373	-0.398
Mof_O 	O 	0.917	0.1732	0.80222	-0.4
Mof_O 	O 	0.7833	0.23454	0.80404	-0.394
Mof_O 	O 	0.5849	0.18672	0.9707	-0.233
Mof_O 	O 	0.3256	0.22237	0.06031	-0.225
Mof_O 	O 	0.1246	0.06088	0.00899	-0.405
Mof_O 	O 	0.9981	0.05159	0.0707	-0.397
Mof_O 	O 	0.9471	0.19264	0.19693	-0.393
Mof_O 	O 	0.0721	0.25513	0.19809	-0.409
Mof_O 	O 	0.163	0.54371	7e-05	-0.398
Mof_O 	O 	0.0371	0.55218	0.9373	-0.4
Mof_O 	O 	0.083	0.6732	0.80222	-0.401
Mof_O 	O 	0.2167	0.73454	0.80404	-0.394
Mof_O 	O 	0.4151	0.68672	0.9707	-0.233
Mof_O 	O 	0.6744	0.72237	0.06031	-0.224
Mof_O 	O 	0.8754	0.56088	0.00899	-0.406
Mof_O 	O 	0.0019	0.55159	0.0707	-0.403
Mof_O 	O 	0.0529	0.69264	0.19693	-0.394
Mof_O 	O 	0.9279	0.75513	0.19809	-0.41
Mof_O 	O 	0.837	0.45629	0.50007	-0.397
Mof_O 	O 	0.9629	0.44782	0.4373	-0.4
Mof_O 	O 	0.917	0.3268	0.30222	-0.401
Mof_O 	O 	0.7833	0.26546	0.30404	-0.394
Mof_O 	O 	0.5849	0.31328	0.4707	-0.233
Mof_O 	O 	0.3256	0.27763	0.56031	-0.224
Mof_O 	O 	0.1246	0.43912	0.50899	-0.406
Mof_O 	O 	0.9981	0.44841	0.5707	-0.402
Mof_O 	O 	0.9471	0.30736	0.69693	-0.394
Mof_O 	O 	0.0721	0.24487	0.69809	-0.41
Mof_O 	O 	0.837	0.04371	0.49993	-0.395
Mof_O 	O 	0.9629	0.05218	0.5627	-0.397
Mof_O 	O 	0.917	0.1732	0.69778	-0.4
Mof_O 	O 	0.7833	0.23454	0.69596	-0.394
Mof_O 	O 	0.5849	0.18672	0.5293	-0.233
Mof_O 	O 	0.3256	0.22237	0.43969	-0.225
Mof_O 	O 	0.1246	0.06088	0.49101	-0.405
Mof_O 	O 	0.9981	0.05159	0.4293	-0.397
Mof_O 	O 	0.9471	0.19264	0.30307	-0.393
Mof_O 	O 	0.0721	0.25513	0.30191	-0.409
Mof_O 	O 	0.163	0.95629	0.99993	-0.393
Mof_O 	O 	0.0371	0.94782	0.0627	-0.397
Mof_O 	O 	0.083	0.8268	0.19778	-0.4
Mof_O 	O 	0.2167	0.76546	0.19596	-0.394
Mof_O 	O 	0.4151	0.81328	0.0293	-0.234
Mof_O 	O 	0.6744	0.77763	0.93969	-0.225
Mof_O 	O 	0.8754	0.93912	0.99101	-0.404
Mof_O 	O 	0.0019	0.94841	0.9293	-0.397
Mof_O 	O 	0.0529	0.80736	0.80307	-0.393
Mof_O 	O 	0.9279	0.74487	0.80191	-0.409
_end
