data_functionalizedCrystal
_audit_creation_method	'EQeq! by Chris Wilmer'
_symmetry_space_group_name_H-M	'P1'
_symmetry_Int_Tables_number	1
_symmetry_cell_setting	triclinic
loop_
_symmetry_equiv_pos_as_xyz
  x,y,z
_cell_length_a	18.072
_cell_length_b	21.785
_cell_length_c	12.6732
_cell_angle_alpha	90
_cell_angle_beta	90
_cell_angle_gamma	90
loop_
_atom_site_label
_atom_site_type_symbol
_atom_site_fract_x
_atom_site_fract_y
_atom_site_fract_z
_atom_site_charge
Mof_Co	Co	0.33838	0.72868	0.03295	1.158
Mof_Co	Co	0.17469	0.72211	0.0265	1.152
Mof_S 	S 	0.2453	0.60635	0.3934	0.268
Mof_S 	S 	0.20862	0.83997	0.6766	0.271
Mof_N 	N 	0.4438	0.7581	0.0529	-0.251
Mof_N 	N 	0.5629	0.7902	0.0418	-0.306
Mof_N 	N 	0.4604	0.7984	0.1357	-0.119
Mof_N 	N 	0.5145	0.7281	0.9045	-0.36
Mof_H 	H 	0.4779	0.7084	0.8773	0.182
Mof_H 	H 	0.5563	0.7293	0.8723	0.182
Mof_N 	N 	0.5653	0.8514	0.1969	-0.349
Mof_H 	H 	0.5417	0.8664	0.2499	0.178
Mof_H 	H 	0.6113	0.8602	0.1878	0.189
Mof_O 	O 	0.2106	0.3093	0.5028	-0.466
Mof_O 	O 	0.1789	0.1409	0.5742	-0.444
Mof_O 	O 	0.3449	0.7041	0.8768	-0.414
Mof_O 	O 	0.3193	0.752	0.1937	-0.388
Mof_O 	O 	0.2227	0.695	0.8937	-0.465
Mof_O 	O 	0.1952	0.7467	0.1751	-0.449
Mof_O 	O 	0.3317	0.3105	0.4722	-0.423
Mof_O 	O 	0.3026	0.1321	0.5796	-0.425
Mof_O 	O 	0.1718	0.6212	0.3598	-0.228
Mof_O 	O 	0.3062	0.6263	0.3313	-0.213
Mof_O 	O 	0.1334	0.8265	0.7088	-0.221
Mof_O 	O 	0.2694	0.8199	0.7403	-0.214
Mof_C 	C 	0.2808	0.6926	0.8412	0.397
Mof_C 	C 	0.2734	0.6747	0.728	-0.109
Mof_C 	C 	0.2039	0.6607	0.6888	0.043
Mof_H 	H 	0.1626	0.6643	0.732	0.035
Mof_C 	C 	0.1957	0.6413	0.5849	-0.092
Mof_H 	H 	0.1492	0.6322	0.5579	0.075
Mof_C 	C 	0.2564	0.6359	0.5243	0.022
Mof_C 	C 	0.3256	0.6499	0.5581	-0.09
Mof_H 	H 	0.3661	0.6467	0.5131	0.076
Mof_C 	C 	0.3343	0.6697	0.6636	0.04
Mof_H 	H 	0.3811	0.6792	0.6893	0.035
Mof_C 	C 	0.2524	0.5244	0.4104	0.022
Mof_C 	C 	0.1906	0.4936	0.4385	-0.095
Mof_H 	H 	0.1457	0.5141	0.4452	0.073
Mof_C 	C 	0.1953	0.4316	0.4568	0.042
Mof_H 	H 	0.1531	0.4094	0.4745	0.035
Mof_C 	C 	0.2629	0.4021	0.4491	-0.111
Mof_C 	C 	0.3251	0.4358	0.419	0.042
Mof_H 	H 	0.3704	0.4162	0.4113	0.038
Mof_C 	C 	0.3199	0.4977	0.4006	-0.093
Mof_H 	H 	0.3613	0.5206	0.382	0.077
Mof_C 	C 	0.2692	0.3359	0.476	0.395
Mof_C 	C 	0.2534	0.7557	0.2276	0.362
Mof_C 	C 	0.2412	0.7755	0.3419	-0.076
Mof_C 	C 	0.3011	0.7918	0.4034	0.013
Mof_H 	H 	0.3484	0.7914	0.3745	0.047
Mof_C 	C 	0.2918	0.8085	0.5059	-0.067
Mof_H 	H 	0.3325	0.8178	0.5478	0.066
Mof_C 	C 	0.2211	0.8116	0.547	-0
Mof_C 	C 	0.1603	0.7955	0.4852	-0.066
Mof_H 	H 	0.1127	0.7982	0.5127	0.067
Mof_C 	C 	0.1709	0.7754	0.383	0.014
Mof_H 	H 	0.1311	0.7621	0.3425	0.048
Mof_C 	C 	0.216	0.9204	0.6566	0.007
Mof_C 	C 	0.2843	0.9481	0.668	-0.076
Mof_H 	H 	0.3252	0.9253	0.6893	0.071
Mof_C 	C 	0.2909	0.0103	0.6471	0.025
Mof_H 	H 	0.3365	0.0295	0.6551	0.038
Mof_C 	C 	0.2311	0.0437	0.615	-0.09
Mof_C 	C 	0.1621	0.0161	0.6067	0.018
Mof_H 	H 	0.1205	0.0387	0.588	0.043
Mof_C 	C 	0.1573	0.9529	0.6275	-0.074
Mof_H 	H 	0.1118	0.9333	0.6207	0.068
Mof_C 	C 	0.2377	0.1118	0.5889	0.383
Mof_C 	C 	0.5061	0.7574	0.998	0.273
Mof_C 	C 	0.5308	0.8147	0.129	0.212
Mof_Co	Co	0.66162	0.27132	0.53295	1.166
Mof_Co	Co	0.82531	0.27789	0.5265	1.165
Mof_S 	S 	0.7547	0.39365	0.8934	0.304
Mof_S 	S 	0.79138	0.16003	0.1766	0.295
Mof_N 	N 	0.5562	0.2419	0.5529	-0.225
Mof_N 	N 	0.4371	0.2098	0.5418	-0.281
Mof_N 	N 	0.5396	0.2016	0.6357	-0.115
Mof_N 	N 	0.4855	0.2719	0.4045	-0.347
Mof_H 	H 	0.5221	0.2916	0.3773	0.173
Mof_H 	H 	0.4437	0.2707	0.3723	0.174
Mof_N 	N 	0.4347	0.1486	0.6969	-0.351
Mof_H 	H 	0.4583	0.1336	0.7499	0.184
Mof_H 	H 	0.3887	0.1398	0.6878	0.191
Mof_O 	O 	0.7894	0.6907	0.0028	-0.508
Mof_O 	O 	0.8211	0.8591	0.0742	-0.453
Mof_O 	O 	0.6551	0.2959	0.3768	-0.428
Mof_O 	O 	0.6807	0.248	0.6937	-0.382
Mof_O 	O 	0.7773	0.305	0.3937	-0.482
Mof_O 	O 	0.8048	0.2533	0.6751	-0.441
Mof_O 	O 	0.6683	0.6895	0.9722	-0.42
Mof_O 	O 	0.6974	0.8679	0.0796	-0.431
Mof_O 	O 	0.8282	0.3788	0.8598	-0.228
Mof_O 	O 	0.6938	0.3737	0.8313	-0.213
Mof_O 	O 	0.8666	0.1735	0.2088	-0.228
Mof_O 	O 	0.7306	0.1801	0.2403	-0.221
Mof_C 	C 	0.7192	0.3074	0.3412	0.394
Mof_C 	C 	0.7266	0.3253	0.228	-0.097
Mof_C 	C 	0.7961	0.3393	0.1888	0.019
Mof_H 	H 	0.8374	0.3357	0.232	0.039
Mof_C 	C 	0.8043	0.3587	0.0849	-0.063
Mof_H 	H 	0.8508	0.3678	0.0579	0.054
Mof_C 	C 	0.7436	0.3641	0.0243	-0.03
Mof_C 	C 	0.6744	0.3501	0.0581	-0.063
Mof_H 	H 	0.6339	0.3533	0.0131	0.055
Mof_C 	C 	0.6657	0.3303	0.1636	0.016
Mof_H 	H 	0.6189	0.3208	0.1893	0.04
Mof_C 	C 	0.7476	0.4756	0.9104	0.024
Mof_C 	C 	0.8094	0.5064	0.9385	-0.096
Mof_H 	H 	0.8543	0.4859	0.9452	0.081
Mof_C 	C 	0.8047	0.5684	0.9568	0.054
Mof_H 	H 	0.8469	0.5906	0.9745	0.041
Mof_C 	C 	0.7371	0.5979	0.9491	-0.121
Mof_C 	C 	0.6749	0.5642	0.919	0.053
Mof_H 	H 	0.6296	0.5838	0.9113	0.039
Mof_C 	C 	0.6801	0.5023	0.9006	-0.094
Mof_H 	H 	0.6387	0.4794	0.882	0.084
Mof_C 	C 	0.7308	0.6641	0.976	0.44
Mof_C 	C 	0.7466	0.2443	0.7276	0.355
Mof_C 	C 	0.7588	0.2245	0.8419	-0.047
Mof_C 	C 	0.6989	0.2082	0.9034	0.032
Mof_H 	H 	0.6516	0.2086	0.8745	0.049
Mof_C 	C 	0.7082	0.1915	0.0059	-0.075
Mof_H 	H 	0.6675	0.1822	0.0478	0.062
Mof_C 	C 	0.7789	0.1884	0.047	-0.072
Mof_C 	C 	0.8397	0.2045	0.9852	0.088
Mof_H 	H 	0.8873	0.2018	0.0127	-0.006
Mof_C 	C 	0.8291	0.2246	0.883	-0.059
Mof_H 	H 	0.8689	0.2379	0.8425	0.081
Mof_C 	C 	0.784	0.0796	0.1566	-0.005
Mof_C 	C 	0.7157	0.0519	0.168	-0.069
Mof_H 	H 	0.6748	0.0747	0.1893	0.066
Mof_C 	C 	0.7091	0.9897	0.1471	0.017
Mof_H 	H 	0.6635	0.9705	0.1551	0.037
Mof_C 	C 	0.7689	0.9563	0.115	-0.09
Mof_C 	C 	0.8379	0.9839	0.1067	0.01
Mof_H 	H 	0.8795	0.9613	0.088	0.04
Mof_C 	C 	0.8427	0.0471	0.1275	-0.066
Mof_H 	H 	0.8882	0.0667	0.1207	0.062
Mof_C 	C 	0.7623	0.8882	0.0889	0.381
Mof_C 	C 	0.4939	0.2426	0.498	0.214
Mof_C 	C 	0.4692	0.1853	0.629	0.22
Mof_Co	Co	0.83838	0.77132	0.03295	1.159
Mof_Co	Co	0.67469	0.77789	0.0265	1.153
Mof_S 	S 	0.7453	0.89365	0.3934	0.27
Mof_S 	S 	0.70862	0.66003	0.6766	0.27
Mof_N 	N 	0.9438	0.7419	0.0529	-0.25
Mof_N 	N 	0.0629	0.7098	0.0418	-0.305
Mof_N 	N 	0.9604	0.7016	0.1357	-0.118
Mof_N 	N 	0.0145	0.7719	0.9045	-0.36
Mof_H 	H 	0.9779	0.7916	0.8773	0.182
Mof_H 	H 	0.0563	0.7707	0.8723	0.182
Mof_N 	N 	0.0653	0.6486	0.1969	-0.349
Mof_H 	H 	0.0417	0.6336	0.2499	0.178
Mof_H 	H 	0.1113	0.6398	0.1878	0.189
Mof_O 	O 	0.7106	0.1907	0.5028	-0.466
Mof_O 	O 	0.6789	0.3591	0.5742	-0.444
Mof_O 	O 	0.8449	0.7959	0.8768	-0.414
Mof_O 	O 	0.8193	0.748	0.1937	-0.387
Mof_O 	O 	0.7227	0.805	0.8937	-0.465
Mof_O 	O 	0.6952	0.7533	0.1751	-0.449
Mof_O 	O 	0.8317	0.1895	0.4722	-0.422
Mof_O 	O 	0.8026	0.3679	0.5796	-0.425
Mof_O 	O 	0.6718	0.8788	0.3598	-0.229
Mof_O 	O 	0.8062	0.8737	0.3313	-0.213
Mof_O 	O 	0.6334	0.6735	0.7088	-0.221
Mof_O 	O 	0.7694	0.6801	0.7403	-0.214
Mof_C 	C 	0.7808	0.8074	0.8412	0.397
Mof_C 	C 	0.7734	0.8253	0.728	-0.108
Mof_C 	C 	0.7039	0.8393	0.6888	0.043
Mof_H 	H 	0.6626	0.8357	0.732	0.035
Mof_C 	C 	0.6957	0.8587	0.5849	-0.091
Mof_H 	H 	0.6492	0.8678	0.5579	0.075
Mof_C 	C 	0.7564	0.8641	0.5243	0.021
Mof_C 	C 	0.8256	0.8501	0.5581	-0.089
Mof_H 	H 	0.8661	0.8533	0.5131	0.076
Mof_C 	C 	0.8343	0.8303	0.6636	0.039
Mof_H 	H 	0.8811	0.8208	0.6893	0.035
Mof_C 	C 	0.7524	0.9756	0.4104	0.016
Mof_C 	C 	0.6906	0.0064	0.4385	-0.089
Mof_H 	H 	0.6457	0.9859	0.4452	0.07
Mof_C 	C 	0.6953	0.0684	0.4568	0.038
Mof_H 	H 	0.6531	0.0906	0.4745	0.037
Mof_C 	C 	0.7629	0.0979	0.4491	-0.107
Mof_C 	C 	0.8251	0.0642	0.419	0.037
Mof_H 	H 	0.8704	0.0838	0.4113	0.04
Mof_C 	C 	0.8199	0.0023	0.4006	-0.085
Mof_H 	H 	0.8613	0.9794	0.382	0.075
Mof_C 	C 	0.7692	0.1641	0.476	0.394
Mof_C 	C 	0.7534	0.7443	0.2276	0.362
Mof_C 	C 	0.7412	0.7245	0.3419	-0.076
Mof_C 	C 	0.8011	0.7082	0.4034	0.013
Mof_H 	H 	0.8484	0.7086	0.3745	0.047
Mof_C 	C 	0.7918	0.6915	0.5059	-0.067
Mof_H 	H 	0.8325	0.6822	0.5478	0.066
Mof_C 	C 	0.7211	0.6884	0.547	-0
Mof_C 	C 	0.6603	0.7045	0.4852	-0.066
Mof_H 	H 	0.6127	0.7018	0.5127	0.067
Mof_C 	C 	0.6709	0.7246	0.383	0.014
Mof_H 	H 	0.6311	0.7379	0.3425	0.048
Mof_C 	C 	0.716	0.5796	0.6566	0.008
Mof_C 	C 	0.7843	0.5519	0.668	-0.079
Mof_H 	H 	0.8252	0.5747	0.6893	0.072
Mof_C 	C 	0.7909	0.4897	0.6471	0.027
Mof_H 	H 	0.8365	0.4705	0.6551	0.037
Mof_C 	C 	0.7311	0.4563	0.615	-0.092
Mof_C 	C 	0.6621	0.4839	0.6067	0.02
Mof_H 	H 	0.6205	0.4613	0.588	0.043
Mof_C 	C 	0.6573	0.5471	0.6275	-0.076
Mof_H 	H 	0.6118	0.5667	0.6207	0.069
Mof_C 	C 	0.7377	0.3882	0.5889	0.384
Mof_C 	C 	0.0061	0.7426	0.998	0.272
Mof_C 	C 	0.0308	0.6853	0.129	0.211
Mof_Co	Co	0.16162	0.22868	0.53295	1.166
Mof_Co	Co	0.32531	0.22211	0.5265	1.165
Mof_S 	S 	0.2547	0.10635	0.8934	0.308
Mof_S 	S 	0.29138	0.33997	0.1766	0.294
Mof_N 	N 	0.0562	0.2581	0.5529	-0.226
Mof_N 	N 	0.9371	0.2902	0.5418	-0.281
Mof_N 	N 	0.0396	0.2984	0.6357	-0.116
Mof_N 	N 	0.9855	0.2281	0.4045	-0.346
Mof_H 	H 	0.0221	0.2084	0.3773	0.172
Mof_H 	H 	0.9437	0.2293	0.3723	0.174
Mof_N 	N 	0.9347	0.3514	0.6969	-0.351
Mof_H 	H 	0.9583	0.3664	0.7499	0.185
Mof_H 	H 	0.8887	0.3602	0.6878	0.191
Mof_O 	O 	0.2894	0.8093	0.0028	-0.509
Mof_O 	O 	0.3211	0.6409	0.0742	-0.453
Mof_O 	O 	0.1551	0.2041	0.3768	-0.428
Mof_O 	O 	0.1807	0.252	0.6937	-0.382
Mof_O 	O 	0.2773	0.195	0.3937	-0.482
Mof_O 	O 	0.3048	0.2467	0.6751	-0.441
Mof_O 	O 	0.1683	0.8105	0.9722	-0.42
Mof_O 	O 	0.1974	0.6321	0.0796	-0.432
Mof_O 	O 	0.3282	0.1212	0.8598	-0.229
Mof_O 	O 	0.1938	0.1263	0.8313	-0.214
Mof_O 	O 	0.3666	0.3265	0.2088	-0.228
Mof_O 	O 	0.2306	0.3199	0.2403	-0.221
Mof_C 	C 	0.2192	0.1926	0.3412	0.393
Mof_C 	C 	0.2266	0.1747	0.228	-0.096
Mof_C 	C 	0.2961	0.1607	0.1888	0.018
Mof_H 	H 	0.3374	0.1643	0.232	0.039
Mof_C 	C 	0.3043	0.1413	0.0849	-0.063
Mof_H 	H 	0.3508	0.1322	0.0579	0.053
Mof_C 	C 	0.2436	0.1359	0.0243	-0.031
Mof_C 	C 	0.1744	0.1499	0.0581	-0.062
Mof_H 	H 	0.1339	0.1467	0.0131	0.055
Mof_C 	C 	0.1657	0.1697	0.1636	0.016
Mof_H 	H 	0.1189	0.1792	0.1893	0.04
Mof_C 	C 	0.2476	0.0244	0.9104	0.014
Mof_C 	C 	0.3094	0.9936	0.9385	-0.084
Mof_H 	H 	0.3543	0.0141	0.9452	0.075
Mof_C 	C 	0.3047	0.9316	0.9568	0.045
Mof_H 	H 	0.3469	0.9094	0.9745	0.045
Mof_C 	C 	0.2371	0.9021	0.9491	-0.115
Mof_C 	C 	0.1749	0.9358	0.919	0.044
Mof_H 	H 	0.1296	0.9162	0.9113	0.042
Mof_C 	C 	0.1801	0.9977	0.9006	-0.081
Mof_H 	H 	0.1387	0.0206	0.882	0.078
Mof_C 	C 	0.2308	0.8359	0.976	0.439
Mof_C 	C 	0.2466	0.2557	0.7276	0.354
Mof_C 	C 	0.2588	0.2755	0.8419	-0.045
Mof_C 	C 	0.1989	0.2918	0.9034	0.032
Mof_H 	H 	0.1516	0.2914	0.8745	0.049
Mof_C 	C 	0.2082	0.3085	0.0059	-0.074
Mof_H 	H 	0.1675	0.3178	0.0478	0.062
Mof_C 	C 	0.2789	0.3116	0.047	-0.075
Mof_C 	C 	0.3397	0.2955	0.9852	0.094
Mof_H 	H 	0.3873	0.2982	0.0127	-0.009
Mof_C 	C 	0.3291	0.2754	0.883	-0.062
Mof_H 	H 	0.3689	0.2621	0.8425	0.082
Mof_C 	C 	0.284	0.4204	0.1566	-0.001
Mof_C 	C 	0.2157	0.4481	0.168	-0.075
Mof_H 	H 	0.1748	0.4253	0.1893	0.068
Mof_C 	C 	0.2091	0.5103	0.1471	0.023
Mof_H 	H 	0.1635	0.5295	0.1551	0.035
Mof_C 	C 	0.2689	0.5437	0.115	-0.094
Mof_C 	C 	0.3379	0.5161	0.1067	0.015
Mof_H 	H 	0.3795	0.5387	0.088	0.038
Mof_C 	C 	0.3427	0.4529	0.1275	-0.073
Mof_H 	H 	0.3882	0.4333	0.1207	0.063
Mof_C 	C 	0.2623	0.6118	0.0889	0.382
Mof_C 	C 	0.9939	0.2574	0.498	0.215
Mof_C 	C 	0.9692	0.3147	0.629	0.221
_end
