data_functionalizedCrystal
_audit_creation_method	'EQeq! by Chris Wilmer'
_symmetry_space_group_name_H-M	'P1'
_symmetry_Int_Tables_number	1
_symmetry_cell_setting	triclinic
loop_
_symmetry_equiv_pos_as_xyz
  x,y,z
_cell_length_a	14.0571
_cell_length_b	14.0571
_cell_length_c	14.0571
_cell_angle_alpha	108.353
_cell_angle_beta	110.033
_cell_angle_gamma	110.033
loop_
_atom_site_label
_atom_site_type_symbol
_atom_site_fract_x
_atom_site_fract_y
_atom_site_fract_z
_atom_site_charge
Mof_Cu	Cu	0.89857	0.69884	0.80027	0.855
Mof_Cu	Cu	0.10143	0.9017	0.80027	0.829
Mof_Cu	Cu	0.60143	0.55027	0.1517	0.85
Mof_Cu	Cu	0.39857	0.55027	0.94884	0.862
Mof_H 	H 	0.6571	0.5494	0.5867	0.238
Mof_H 	H 	0.6757	0.4647	0.4992	0.234
Mof_H 	H 	0.5995	0.5187	0.4548	0.254
Mof_H 	H 	0.3429	0.9296	0.8923	0.208
Mof_H 	H 	0.3243	0.8235	0.789	0.211
Mof_H 	H 	0.4005	0.8553	0.9192	0.239
Mof_H 	H 	0.5373	0.3367	0.1796	0.221
Mof_H 	H 	0.5345	0.2492	0.0735	0.211
Mof_H 	H 	0.4361	0.2048	0.1053	0.234
Mof_H 	H 	0.4627	0.6423	0.7994	0.229
Mof_H 	H 	0.4655	0.539	0.7147	0.225
Mof_H 	H 	0.5639	0.6692	0.7687	0.244
Mof_H 	H 	0.0373	0.9296	0.5867	0.177
Mof_H 	H 	0.0345	0.8235	0.4992	0.185
Mof_H 	H 	0.9361	0.8553	0.4548	0.211
Mof_H 	H 	0.9627	0.5494	0.8923	0.254
Mof_H 	H 	0.9655	0.4647	0.789	0.244
Mof_H 	H 	0.0639	0.5187	0.9192	0.271
Mof_H 	H 	0.8429	0.6423	0.1796	0.208
Mof_H 	H 	0.8243	0.539	0.0735	0.196
Mof_H 	H 	0.9005	0.6692	0.1053	0.212
Mof_H 	H 	0.1571	0.3367	0.7994	0.247
Mof_H 	H 	0.1757	0.2492	0.7147	0.244
Mof_H 	H 	0.0995	0.2048	0.7687	0.271
Mof_C 	C 	0.7751	0.6345	0.548	0.334
Mof_C 	C 	0.6674	0.5329	0.5197	-0.784
Mof_C 	C 	0.2249	0.7729	0.8594	0.324
Mof_C 	C 	0.3326	0.8523	0.8655	-0.746
Mof_C 	C 	0.4135	0.298	0.0229	0.266
Mof_C 	C 	0.4868	0.2697	0.1023	-0.721
Mof_C 	C 	0.5865	0.6094	0.8845	0.319
Mof_C 	C 	0.5132	0.6155	0.7829	-0.758
Mof_C 	C 	0.9135	0.7729	0.548	0.3
Mof_C 	C 	0.9868	0.8523	0.5197	-0.675
Mof_C 	C 	0.0865	0.6345	0.8594	0.348
Mof_C 	C 	0.0132	0.5329	0.8655	-0.811
Mof_C 	C 	0.7249	0.6094	0.0229	0.259
Mof_C 	C 	0.8326	0.6155	0.1023	-0.696
Mof_C 	C 	0.2751	0.298	0.8845	0.333
Mof_C 	C 	0.1674	0.2697	0.7829	-0.794
Mof_C 	C 	0.7992	0.677	0.4762	-0.362
Mof_C 	C 	0.7248	0.6294	0.3542	0.403
Mof_C 	C 	0.2008	0.677	0.8778	-0.372
Mof_C 	C 	0.2752	0.6294	0.9046	0.409
Mof_C 	C 	0.2992	0.2262	0.927	-0.296
Mof_C 	C 	0.2248	0.1042	0.8794	0.383
Mof_C 	C 	0.7008	0.6278	0.927	-0.306
Mof_C 	C 	0.7752	0.6546	0.8794	0.389
Mof_N 	N 	0.8682	0.7022	0.6542	-0.271
Mof_N 	N 	0.1318	0.786	0.834	-0.273
Mof_N 	N 	0.452	0.4042	0.036	-0.28
Mof_N 	N 	0.548	0.584	0.9522	-0.248
Mof_N 	N 	0.952	0.786	0.6542	-0.268
Mof_N 	N 	0.048	0.7022	0.834	-0.273
Mof_N 	N 	0.6318	0.584	0.036	-0.279
Mof_N 	N 	0.3682	0.4042	0.9522	-0.248
Mof_O 	O 	0.623	0.5397	0.2965	-0.453
Mof_O 	O 	0.377	0.6735	0.9167	-0.45
Mof_O 	O 	0.2568	0.0465	0.9235	-0.384
Mof_O 	O 	0.7432	0.6667	0.7897	-0.449
Mof_O 	O 	0.7568	0.6735	0.2965	-0.456
Mof_O 	O 	0.2432	0.5397	0.9167	-0.445
Mof_O 	O 	0.877	0.6667	0.9235	-0.436
Mof_O 	O 	0.123	0.0465	0.7897	-0.397
_end
