data_functionalizedCrystal
_audit_creation_method	'EQeq! by Chris Wilmer'
_symmetry_space_group_name_H-M	'P1'
_symmetry_Int_Tables_number	1
_symmetry_cell_setting	triclinic
loop_
_symmetry_equiv_pos_as_xyz
  x,y,z
_cell_length_a	15.9423
_cell_length_b	15.9423
_cell_length_c	16.0411
_cell_angle_alpha	90
_cell_angle_beta	90
_cell_angle_gamma	120
loop_
_atom_site_label
_atom_site_type_symbol
_atom_site_fract_x
_atom_site_fract_y
_atom_site_fract_z
_atom_site_charge
Mof_O 	O 	0.16989	0.51547	0.34002	-0.536
Mof_O 	O 	0.0546	0.3756	0.4365	-0.365
Mof_H 	H 	0.0948	0.4007	0.3993	0.268
Mof_C 	C 	0.0335	0.4413	0.46813	0.196
Mof_O 	O 	0.48453	0.65442	0.34002	-0.536
Mof_O 	O 	0.6244	0.679	0.4365	-0.365
Mof_H 	H 	0.5993	0.6941	0.3993	0.268
Mof_C 	C 	0.5587	0.5922	0.46813	0.196
Mof_O 	O 	0.34558	0.83011	0.34002	-0.536
Mof_O 	O 	0.321	0.9454	0.4365	-0.365
Mof_H 	H 	0.3059	0.9052	0.3993	0.268
Mof_C 	C 	0.4078	0.9665	0.46813	0.196
Mof_O 	O 	0.83011	0.48453	0.84002	-0.536
Mof_O 	O 	0.9454	0.6244	0.9365	-0.365
Mof_H 	H 	0.9052	0.5993	0.8993	0.268
Mof_C 	C 	0.9665	0.5587	0.96813	0.196
Mof_O 	O 	0.51547	0.34558	0.84002	-0.536
Mof_O 	O 	0.3756	0.321	0.9365	-0.365
Mof_H 	H 	0.4007	0.3059	0.8993	0.268
Mof_C 	C 	0.4413	0.4078	0.96813	0.196
Mof_O 	O 	0.65442	0.16989	0.84002	-0.536
Mof_O 	O 	0.679	0.0546	0.9365	-0.365
Mof_H 	H 	0.6941	0.0948	0.8993	0.268
Mof_C 	C 	0.5922	0.0335	0.96813	0.196
Mof_O 	O 	0.51547	0.16989	0.65998	-0.536
Mof_O 	O 	0.3756	0.0546	0.5635	-0.365
Mof_H 	H 	0.4007	0.0948	0.6007	0.268
Mof_C 	C 	0.4413	0.0335	0.53187	0.196
Mof_O 	O 	0.65442	0.48453	0.65998	-0.536
Mof_O 	O 	0.679	0.6244	0.5635	-0.365
Mof_H 	H 	0.6941	0.5993	0.6007	0.268
Mof_C 	C 	0.5922	0.5587	0.53187	0.196
Mof_O 	O 	0.83011	0.34558	0.65998	-0.536
Mof_O 	O 	0.9454	0.321	0.5635	-0.365
Mof_H 	H 	0.9052	0.3059	0.6007	0.268
Mof_C 	C 	0.9665	0.4078	0.53187	0.196
Mof_O 	O 	0.48453	0.83011	0.15998	-0.536
Mof_O 	O 	0.6244	0.9454	0.0635	-0.365
Mof_H 	H 	0.5993	0.9052	0.1007	0.268
Mof_C 	C 	0.5587	0.9665	0.03187	0.196
Mof_O 	O 	0.34558	0.51547	0.15998	-0.536
Mof_O 	O 	0.321	0.3756	0.0635	-0.365
Mof_H 	H 	0.3059	0.4007	0.1007	0.268
Mof_C 	C 	0.4078	0.4413	0.03187	0.196
Mof_O 	O 	0.16989	0.65442	0.15998	-0.536
Mof_O 	O 	0.0546	0.679	0.0635	-0.365
Mof_H 	H 	0.0948	0.6941	0.1007	0.268
Mof_C 	C 	0.0335	0.5922	0.03187	0.196
Mof_O 	O 	0.83011	0.48453	0.65998	-0.536
Mof_O 	O 	0.9454	0.6244	0.5635	-0.365
Mof_H 	H 	0.9052	0.5993	0.6007	0.268
Mof_C 	C 	0.9665	0.5587	0.53187	0.196
Mof_O 	O 	0.51547	0.34558	0.65998	-0.536
Mof_O 	O 	0.3756	0.321	0.5635	-0.365
Mof_H 	H 	0.4007	0.3059	0.6007	0.268
Mof_C 	C 	0.4413	0.4078	0.53187	0.196
Mof_O 	O 	0.65442	0.16989	0.65998	-0.536
Mof_O 	O 	0.679	0.0546	0.5635	-0.365
Mof_H 	H 	0.6941	0.0948	0.6007	0.268
Mof_C 	C 	0.5922	0.0335	0.53187	0.196
Mof_O 	O 	0.16989	0.51547	0.15998	-0.536
Mof_O 	O 	0.0546	0.3756	0.0635	-0.365
Mof_H 	H 	0.0948	0.4007	0.1007	0.268
Mof_C 	C 	0.0335	0.4413	0.03187	0.196
Mof_O 	O 	0.48453	0.65442	0.15998	-0.536
Mof_O 	O 	0.6244	0.679	0.0635	-0.365
Mof_H 	H 	0.5993	0.6941	0.1007	0.268
Mof_C 	C 	0.5587	0.5922	0.03187	0.196
Mof_O 	O 	0.34558	0.83011	0.15998	-0.536
Mof_O 	O 	0.321	0.9454	0.0635	-0.365
Mof_H 	H 	0.3059	0.9052	0.1007	0.268
Mof_C 	C 	0.4078	0.9665	0.03187	0.196
Mof_O 	O 	0.48453	0.83011	0.34002	-0.536
Mof_O 	O 	0.6244	0.9454	0.4365	-0.365
Mof_H 	H 	0.5993	0.9052	0.3993	0.268
Mof_C 	C 	0.5587	0.9665	0.46813	0.196
Mof_O 	O 	0.34558	0.51547	0.34002	-0.536
Mof_O 	O 	0.321	0.3756	0.4365	-0.365
Mof_H 	H 	0.3059	0.4007	0.3993	0.268
Mof_C 	C 	0.4078	0.4413	0.46813	0.196
Mof_O 	O 	0.16989	0.65442	0.34002	-0.536
Mof_O 	O 	0.0546	0.679	0.4365	-0.365
Mof_H 	H 	0.0948	0.6941	0.3993	0.268
Mof_C 	C 	0.0335	0.5922	0.46813	0.196
Mof_O 	O 	0.51547	0.16989	0.84002	-0.536
Mof_O 	O 	0.3756	0.0546	0.9365	-0.365
Mof_H 	H 	0.4007	0.0948	0.8993	0.268
Mof_C 	C 	0.4413	0.0335	0.96813	0.196
Mof_O 	O 	0.65442	0.48453	0.84002	-0.536
Mof_O 	O 	0.679	0.6244	0.9365	-0.365
Mof_H 	H 	0.6941	0.5993	0.8993	0.268
Mof_C 	C 	0.5922	0.5587	0.96813	0.196
Mof_O 	O 	0.83011	0.34558	0.84002	-0.536
Mof_O 	O 	0.9454	0.321	0.9365	-0.365
Mof_H 	H 	0.9052	0.3059	0.8993	0.268
Mof_C 	C 	0.9665	0.4078	0.96813	0.196
Mof_Mg	Mg	0.26183	0.52365	0.25	1.478
Mof_Mg	Mg	0.47635	0.73818	0.25	1.478
Mof_Mg	Mg	0.26183	0.73818	0.25	1.478
Mof_Mg	Mg	0.73817	0.47635	0.75	1.478
Mof_Mg	Mg	0.52365	0.26183	0.75	1.478
Mof_Mg	Mg	0.73817	0.26183	0.75	1.478
Mof_O 	O 	0.33333	0.66667	0.25	-0.756
Mof_O 	O 	0.66667	0.33333	0.75	-0.756
Mof_C 	C 	0.0692	0.5346	0.4355	-0.253
Mof_C 	C 	0.1411	0.57055	0.3675	0.514
Mof_C 	C 	0.4654	0.5346	0.4355	-0.253
Mof_C 	C 	0.42945	0.57055	0.3675	0.514
Mof_C 	C 	0.4654	0.9308	0.4355	-0.253
Mof_C 	C 	0.42945	0.8589	0.3675	0.514
Mof_C 	C 	0.9308	0.4654	0.9355	-0.253
Mof_C 	C 	0.8589	0.42945	0.8675	0.514
Mof_C 	C 	0.5346	0.4654	0.9355	-0.253
Mof_C 	C 	0.57055	0.42945	0.8675	0.514
Mof_C 	C 	0.5346	0.0692	0.9355	-0.253
Mof_C 	C 	0.57055	0.1411	0.8675	0.514
Mof_C 	C 	0.5346	0.0692	0.5645	-0.253
Mof_C 	C 	0.57055	0.1411	0.6325	0.514
Mof_C 	C 	0.5346	0.4654	0.5645	-0.253
Mof_C 	C 	0.57055	0.42945	0.6325	0.514
Mof_C 	C 	0.9308	0.4654	0.5645	-0.253
Mof_C 	C 	0.8589	0.42945	0.6325	0.514
Mof_C 	C 	0.4654	0.9308	0.0645	-0.253
Mof_C 	C 	0.42945	0.8589	0.1325	0.514
Mof_C 	C 	0.4654	0.5346	0.0645	-0.253
Mof_C 	C 	0.42945	0.57055	0.1325	0.514
Mof_C 	C 	0.0692	0.5346	0.0645	-0.253
Mof_C 	C 	0.1411	0.57055	0.1325	0.514
_end
