data_functionalizedCrystal
_audit_creation_method	'EQeq! by Chris Wilmer'
_symmetry_space_group_name_H-M	'P1'
_symmetry_Int_Tables_number	1
_symmetry_cell_setting	triclinic
loop_
_symmetry_equiv_pos_as_xyz
  x,y,z
_cell_length_a	7.5233
_cell_length_b	9.2537
_cell_length_c	27.4599
_cell_angle_alpha	90
_cell_angle_beta	90
_cell_angle_gamma	108.27
loop_
_atom_site_label
_atom_site_type_symbol
_atom_site_fract_x
_atom_site_fract_y
_atom_site_fract_z
_atom_site_charge
Mof_Cu	Cu	0.36871	0.51015	0.45256	0.905
Mof_Cu	Cu	0.8105	0.20209	0.53141	0.886
Mof_Cu	Cu	0.63129	0.98985	0.95256	0.906
Mof_Cu	Cu	0.1895	0.29791	0.03141	0.886
Mof_Cu	Cu	0.63129	0.48985	0.54744	0.905
Mof_Cu	Cu	0.1895	0.79791	0.46859	0.886
Mof_Cu	Cu	0.36871	0.01015	0.04744	0.906
Mof_Cu	Cu	0.8105	0.70209	0.96859	0.886
Mof_Mo	Mo	0.7097	0.80915	0.49294	1.394
Mof_Mo	Mo	0.85176	0.45169	0.4433	1.353
Mof_Mo	Mo	0.2903	0.69085	0.99294	1.396
Mof_Mo	Mo	0.14824	0.04831	0.9433	1.347
Mof_Mo	Mo	0.2903	0.19085	0.50706	1.394
Mof_Mo	Mo	0.14824	0.54831	0.5567	1.353
Mof_Mo	Mo	0.7097	0.30915	0.00706	1.396
Mof_Mo	Mo	0.85176	0.95169	0.0567	1.347
Mof_H 	H 	0.2251	0.3276	0.3639	-0.033
Mof_H 	H 	0.2503	0.3499	0.2811	0.106
Mof_H 	H 	0.6244	0.7634	0.2993	0.101
Mof_H 	H 	0.5997	0.7259	0.3814	-0.074
Mof_H 	H 	0.063	0.2421	0.1379	-0.076
Mof_H 	H 	0.1496	0.3537	0.2124	0.099
Mof_H 	H 	0.543	0.668	0.2237	0.152
Mof_H 	H 	0.5986	0.6477	0.1474	0.068
Mof_H 	H 	0.4992	0.5277	0.075	-0.032
Mof_H 	H 	0.7749	0.1724	0.8639	-0.033
Mof_H 	H 	0.7497	0.1501	0.7811	0.107
Mof_H 	H 	0.3756	0.7366	0.7993	0.102
Mof_H 	H 	0.4003	0.7741	0.8814	-0.074
Mof_H 	H 	0.937	0.2579	0.6379	-0.076
Mof_H 	H 	0.8504	0.1463	0.7124	0.099
Mof_H 	H 	0.457	0.832	0.7237	0.153
Mof_H 	H 	0.4014	0.8523	0.6474	0.068
Mof_H 	H 	0.5008	0.9723	0.575	-0.029
Mof_H 	H 	0.7749	0.6724	0.6361	-0.033
Mof_H 	H 	0.7497	0.6501	0.7189	0.106
Mof_H 	H 	0.3756	0.2366	0.7007	0.101
Mof_H 	H 	0.4003	0.2741	0.6186	-0.074
Mof_H 	H 	0.937	0.7579	0.8621	-0.076
Mof_H 	H 	0.8504	0.6463	0.7876	0.099
Mof_H 	H 	0.457	0.332	0.7763	0.152
Mof_H 	H 	0.4014	0.3523	0.8526	0.068
Mof_H 	H 	0.5008	0.4723	0.925	-0.032
Mof_H 	H 	0.2251	0.8276	0.1361	-0.033
Mof_H 	H 	0.2503	0.8499	0.2189	0.107
Mof_H 	H 	0.6244	0.2634	0.2007	0.102
Mof_H 	H 	0.5997	0.2259	0.1186	-0.074
Mof_H 	H 	0.063	0.7421	0.3621	-0.076
Mof_H 	H 	0.1496	0.8537	0.2876	0.099
Mof_H 	H 	0.543	0.168	0.2763	0.153
Mof_H 	H 	0.5986	0.1477	0.3526	0.068
Mof_H 	H 	0.4992	0.0277	0.425	-0.029
Mof_C 	C 	0.3061	0.4164	0.3507	0.113
Mof_C 	C 	0.319	0.4298	0.3008	-0.255
Mof_C 	C 	0.4347	0.5625	0.2799	0.216
Mof_C 	C 	0.5417	0.6738	0.3116	-0.265
Mof_C 	C 	0.5249	0.6512	0.361	0.135
Mof_C 	C 	0.1712	0.3253	0.1398	0.126
Mof_C 	C 	0.223	0.3909	0.1851	-0.239
Mof_C 	C 	0.3858	0.5128	0.1891	0.192
Mof_C 	C 	0.4895	0.5652	0.1463	-0.226
Mof_C 	C 	0.4278	0.4933	0.1028	0.113
Mof_C 	C 	0.6939	0.0836	0.8507	0.113
Mof_C 	C 	0.681	0.0702	0.8008	-0.257
Mof_C 	C 	0.5653	0.9375	0.7799	0.218
Mof_C 	C 	0.4583	0.8262	0.8116	-0.266
Mof_C 	C 	0.4751	0.8488	0.861	0.136
Mof_C 	C 	0.8288	0.1747	0.6398	0.126
Mof_C 	C 	0.777	0.1091	0.6851	-0.24
Mof_C 	C 	0.6142	0.9872	0.6891	0.192
Mof_C 	C 	0.5105	0.9348	0.6463	-0.223
Mof_C 	C 	0.5722	0.0067	0.6028	0.109
Mof_C 	C 	0.6939	0.5836	0.6493	0.113
Mof_C 	C 	0.681	0.5702	0.6992	-0.255
Mof_C 	C 	0.5653	0.4375	0.7201	0.216
Mof_C 	C 	0.4583	0.3262	0.6884	-0.265
Mof_C 	C 	0.4751	0.3488	0.639	0.135
Mof_C 	C 	0.8288	0.6747	0.8602	0.126
Mof_C 	C 	0.777	0.6091	0.8149	-0.239
Mof_C 	C 	0.6142	0.4872	0.8109	0.192
Mof_C 	C 	0.5105	0.4348	0.8537	-0.226
Mof_C 	C 	0.5722	0.5067	0.8972	0.113
Mof_C 	C 	0.3061	0.9164	0.1493	0.113
Mof_C 	C 	0.319	0.9298	0.1992	-0.257
Mof_C 	C 	0.4347	0.0625	0.2201	0.218
Mof_C 	C 	0.5417	0.1738	0.1884	-0.266
Mof_C 	C 	0.5249	0.1512	0.139	0.136
Mof_C 	C 	0.1712	0.8253	0.3602	0.126
Mof_C 	C 	0.223	0.8909	0.3149	-0.24
Mof_C 	C 	0.3858	0.0128	0.3109	0.192
Mof_C 	C 	0.4895	0.0652	0.3537	-0.223
Mof_C 	C 	0.4278	0.9933	0.3972	0.109
Mof_N 	N 	0.4052	0.526	0.3813	-0.269
Mof_N 	N 	0.4606	0.5948	0.231	-0.296
Mof_N 	N 	0.267	0.374	0.0984	-0.261
Mof_N 	N 	0.5948	0.974	0.8813	-0.269
Mof_N 	N 	0.5394	0.9052	0.731	-0.296
Mof_N 	N 	0.733	0.126	0.5984	-0.26
Mof_N 	N 	0.5948	0.474	0.6187	-0.269
Mof_N 	N 	0.5394	0.4052	0.769	-0.296
Mof_N 	N 	0.733	0.626	0.9016	-0.261
Mof_N 	N 	0.4052	0.026	0.1187	-0.269
Mof_N 	N 	0.4606	0.0948	0.269	-0.296
Mof_N 	N 	0.267	0.874	0.4016	-0.26
Mof_O 	O 	0.4881	0.7305	0.4636	-0.637
Mof_O 	O 	0.7203	0.9949	0.5075	-0.641
Mof_O 	O 	0.7265	0.7125	0.5479	-0.625
Mof_O 	O 	0.6783	0.5122	0.4751	-0.715
Mof_O 	O 	0.8384	0.2658	0.4608	-0.621
Mof_O 	O 	0.0857	0.5775	0.4527	-0.698
Mof_O 	O 	0.5119	0.7695	0.9636	-0.637
Mof_O 	O 	0.2797	0.5051	0.0075	-0.64
Mof_O 	O 	0.2735	0.7875	0.0479	-0.624
Mof_O 	O 	0.3217	0.9878	0.9751	-0.712
Mof_O 	O 	0.1616	0.2342	0.9608	-0.621
Mof_O 	O 	0.9143	0.9225	0.9527	-0.697
Mof_O 	O 	0.5119	0.2695	0.5364	-0.637
Mof_O 	O 	0.2797	0.0051	0.4925	-0.641
Mof_O 	O 	0.2735	0.2875	0.4521	-0.625
Mof_O 	O 	0.3217	0.4878	0.5249	-0.715
Mof_O 	O 	0.1616	0.7342	0.5392	-0.621
Mof_O 	O 	0.9143	0.4225	0.5473	-0.698
Mof_O 	O 	0.4881	0.2305	0.0364	-0.637
Mof_O 	O 	0.7203	0.4949	0.9925	-0.64
Mof_O 	O 	0.7265	0.2125	0.9521	-0.624
Mof_O 	O 	0.6783	0.0122	0.0249	-0.712
Mof_O 	O 	0.8384	0.7658	0.0392	-0.621
Mof_O 	O 	0.0857	0.0775	0.0473	-0.697
_end
