data_functionalizedCrystal
_audit_creation_method	'EQeq! by Chris Wilmer'
_symmetry_space_group_name_H-M	'P1'
_symmetry_Int_Tables_number	1
_symmetry_cell_setting	triclinic
loop_
_symmetry_equiv_pos_as_xyz
  x,y,z
_cell_length_a	20.7366
_cell_length_b	20.7366
_cell_length_c	20.7366
_cell_angle_alpha	90
_cell_angle_beta	90
_cell_angle_gamma	90
loop_
_atom_site_label
_atom_site_type_symbol
_atom_site_fract_x
_atom_site_fract_y
_atom_site_fract_z
_atom_site_charge
Mof_Zr	Zr	0.11941	0	-0	3.179
Mof_Zr	Zr	0.11941	0.5	0.5	3.247
Mof_Zr	Zr	0.61941	0	0.5	3.242
Mof_Zr	Zr	0.61941	0.5	-0	3.242
Mof_Zr	Zr	0.88059	0	-0	3.151
Mof_Zr	Zr	0.88059	0.5	0.5	3.216
Mof_Zr	Zr	0.38059	0	0.5	3.248
Mof_Zr	Zr	0.38059	0.5	-0	3.248
Mof_Zr	Zr	-0	0.11941	-0	3.178
Mof_Zr	Zr	7.53667e-33	0.61941	0.5	3.241
Mof_Zr	Zr	0.5	0.11941	0.5	3.246
Mof_Zr	Zr	0.5	0.61941	-0	3.241
Mof_Zr	Zr	-0	0.88059	-0	3.15
Mof_Zr	Zr	7.53667e-33	0.38059	0.5	3.248
Mof_Zr	Zr	0.5	0.88059	0.5	3.215
Mof_Zr	Zr	0.5	0.38059	-0	3.248
Mof_Zr	Zr	4.47716e-34	0	0.11941	3.178
Mof_Zr	Zr	7.98439e-33	0.5	0.61941	3.241
Mof_Zr	Zr	0.5	-5.66197e-33	0.61941	3.241
Mof_Zr	Zr	0.5	0.5	0.11941	3.246
Mof_Zr	Zr	3.30168e-33	0	0.88059	3.15
Mof_Zr	Zr	9.91994e-33	0.5	0.38059	3.248
Mof_Zr	Zr	0.5	0	0.38059	3.248
Mof_Zr	Zr	0.5	0.5	0.88059	3.215
Mof_O 	O 	0.17088	0.09373	-0	2.495
Mof_C 	C 	0.267	0.1854	-0	-3.765
Mof_H 	H 	0.2785	0.1421	-0	1.381
Mof_O 	O 	0.1964	0.0757	-0	-2.518
Mof_O 	O 	0.17088	0.59373	0.5	1.79
Mof_C 	C 	0.267	0.6854	0.5	-1.014
Mof_H 	H 	0.2785	0.6421	0.5	0.536
Mof_O 	O 	0.1964	0.5757	0.5	-1.713
Mof_O 	O 	0.67088	0.09373	0.5	3.827
Mof_C 	C 	0.767	0.1854	0.5	-1.02
Mof_H 	H 	0.7785	0.1421	0.5	0.458
Mof_O 	O 	0.6964	0.0757	0.5	-4.199
Mof_O 	O 	0.67088	0.59373	-0	-9.047
Mof_C 	C 	0.767	0.6854	-0	2.871
Mof_H 	H 	0.7785	0.6421	-0	-1.277
Mof_O 	O 	0.6964	0.5757	-0	6.757
Mof_O 	O 	0.82912	0.90627	-0	-1.212
Mof_C 	C 	0.733	0.8146	-0	-1.996
Mof_H 	H 	0.7215	0.8579	-0	0.708
Mof_O 	O 	0.8036	0.9243	-0	0.626
Mof_O 	O 	0.82912	0.40627	0.5	-0.566
Mof_C 	C 	0.733	0.3146	0.5	0.607
Mof_H 	H 	0.7215	0.3579	0.5	-0.127
Mof_O 	O 	0.8036	0.4243	0.5	0.054
Mof_O 	O 	0.32912	0.90627	0.5	0.949
Mof_C 	C 	0.233	0.8146	0.5	0.591
Mof_H 	H 	0.2215	0.8579	0.5	-0.161
Mof_O 	O 	0.3036	0.9243	0.5	-1.657
Mof_O 	O 	0.32912	0.40627	-0	-10.652
Mof_C 	C 	0.233	0.3146	-0	4.383
Mof_H 	H 	0.2215	0.3579	-0	-1.906
Mof_O 	O 	0.3036	0.4243	-0	7.983
Mof_O 	O 	0.82912	0.09373	-0	1.312
Mof_C 	C 	0.733	0.1854	-0	-3.1
Mof_H 	H 	0.7215	0.1421	-0	1.087
Mof_O 	O 	0.8036	0.0757	-0	-1.706
Mof_O 	O 	0.82912	0.59373	0.5	0.32
Mof_C 	C 	0.733	0.6854	0.5	-0.147
Mof_H 	H 	0.7215	0.6421	0.5	0.162
Mof_O 	O 	0.8036	0.5757	0.5	-0.668
Mof_O 	O 	0.32912	0.09373	0.5	3.174
Mof_C 	C 	0.233	0.1854	0.5	-0.289
Mof_H 	H 	0.2215	0.1421	0.5	0.129
Mof_O 	O 	0.3036	0.0757	0.5	-3.751
Mof_O 	O 	0.32912	0.59373	-0	-10.152
Mof_C 	C 	0.233	0.6854	-0	3.843
Mof_H 	H 	0.2215	0.6421	-0	-1.704
Mof_O 	O 	0.3036	0.5757	-0	7.574
Mof_O 	O 	0.17088	0.90627	-0	0.587
Mof_C 	C 	0.267	0.8146	-0	-3.091
Mof_H 	H 	0.2785	0.8579	-0	1.173
Mof_O 	O 	0.1964	0.9243	-0	-0.684
Mof_O 	O 	0.17088	0.40627	0.5	0.934
Mof_C 	C 	0.267	0.3146	0.5	-0.264
Mof_H 	H 	0.2785	0.3579	0.5	0.25
Mof_O 	O 	0.1964	0.4243	0.5	-1.014
Mof_O 	O 	0.67088	0.90627	0.5	1.636
Mof_C 	C 	0.767	0.8146	0.5	-0.144
Mof_H 	H 	0.7785	0.8579	0.5	0.169
Mof_O 	O 	0.6964	0.9243	0.5	-2.137
Mof_O 	O 	0.67088	0.40627	-0	-10.352
Mof_C 	C 	0.767	0.3146	-0	3.862
Mof_H 	H 	0.7785	0.3579	-0	-1.662
Mof_O 	O 	0.6964	0.4243	-0	7.82
Mof_O 	O 	-1.77181e-33	0.17088	0.09373	2.495
Mof_C 	C 	6.95139e-34	0.267	0.1854	-3.765
Mof_H 	H 	5.3279e-34	0.2785	0.1421	1.381
Mof_O 	O 	9.91576e-34	0.1964	0.0757	-2.518
Mof_O 	O 	1.35501e-32	0.67088	0.59373	-9.047
Mof_C 	C 	1.38938e-32	0.767	0.6854	2.871
Mof_H 	H 	1.37314e-32	0.7785	0.6421	-1.277
Mof_O 	O 	2.15853e-33	0.6964	0.5757	6.757
Mof_O 	O 	0.5	0.17088	0.59373	1.79
Mof_C 	C 	0.5	0.267	0.6854	-1.014
Mof_H 	H 	0.5	0.2785	0.6421	0.536
Mof_O 	O 	0.5	0.1964	0.5757	-1.713
Mof_O 	O 	0.5	0.67088	0.09373	3.827
Mof_C 	C 	0.5	0.767	0.1854	-1.02
Mof_H 	H 	0.5	0.7785	0.1421	0.458
Mof_O 	O 	0.5	0.6964	0.0757	-4.199
Mof_O 	O 	2.60459e-32	0.82912	0.90627	-1.212
Mof_C 	C 	-1.39317e-32	0.733	0.8146	-1.996
Mof_H 	H 	3.21661e-33	0.7215	0.8579	0.708
Mof_O 	O 	-1.91823e-32	0.8036	0.9243	0.626
Mof_O 	O 	-1.30772e-33	0.32912	0.40627	-10.652
Mof_C 	C 	6.84153e-33	0.233	0.3146	4.383
Mof_H 	H 	-1.48908e-33	0.2215	0.3579	-1.906
Mof_O 	O 	-4.0711e-33	0.3036	0.4243	7.983
Mof_O 	O 	0.5	0.82912	0.40627	-0.566
Mof_C 	C 	0.5	0.733	0.3146	0.607
Mof_H 	H 	0.5	0.7215	0.3579	-0.127
Mof_O 	O 	0.5	0.8036	0.4243	0.054
Mof_O 	O 	0.5	0.32912	0.90627	0.949
Mof_C 	C 	0.5	0.233	0.8146	0.591
Mof_H 	H 	0.5	0.2215	0.8579	-0.161
Mof_O 	O 	0.5	0.3036	0.9243	-1.657
Mof_O 	O 	8.13664e-33	0.82912	0.09373	1.312
Mof_C 	C 	6.95139e-34	0.733	0.1854	-3.1
Mof_H 	H 	9.02575e-33	0.7215	0.1421	1.087
Mof_O 	O 	-1.59943e-32	0.8036	0.0757	-1.706
Mof_O 	O 	-3.43584e-33	0.32912	0.59373	-10.152
Mof_C 	C 	2.56984e-33	0.233	0.6854	3.843
Mof_H 	H 	-3.25448e-33	0.2215	0.6421	-1.704
Mof_O 	O 	-3.50344e-33	0.3036	0.5757	7.574
Mof_O 	O 	0.5	0.82912	0.59373	0.32
Mof_C 	C 	0.5	0.733	0.6854	-0.147
Mof_H 	H 	0.5	0.7215	0.6421	0.162
Mof_O 	O 	0.5	0.8036	0.5757	-0.668
Mof_O 	O 	0.5	0.32912	0.09373	3.174
Mof_C 	C 	0.5	0.233	0.1854	-0.289
Mof_H 	H 	0.5	0.2215	0.1421	0.129
Mof_O 	O 	0.5	0.3036	0.0757	-3.751
Mof_O 	O 	1.47219e-32	0.17088	0.90627	0.587
Mof_C 	C 	-2.60771e-33	0.267	0.8146	-3.091
Mof_H 	H 	3.21661e-33	0.2785	0.8579	1.173
Mof_O 	O 	1.47895e-32	0.1964	0.9243	-0.684
Mof_O 	O 	-1.30772e-33	0.67088	0.40627	-10.352
Mof_C 	C 	1.17956e-33	0.767	0.3146	3.862
Mof_H 	H 	7.00388e-33	0.7785	0.3579	-1.662
Mof_O 	O 	1.59087e-33	0.6964	0.4243	7.82
Mof_O 	O 	0.5	0.17088	0.40627	0.934
Mof_C 	C 	0.5	0.267	0.3146	-0.264
Mof_H 	H 	0.5	0.2785	0.3579	0.25
Mof_O 	O 	0.5	0.1964	0.4243	-1.014
Mof_O 	O 	0.5	0.67088	0.90627	1.636
Mof_C 	C 	0.5	0.767	0.8146	-0.144
Mof_H 	H 	0.5	0.7785	0.8579	0.169
Mof_O 	O 	0.5	0.6964	0.9243	-2.137
Mof_O 	O 	0.09373	0	0.17088	2.495
Mof_C 	C 	0.1854	0	0.267	-3.765
Mof_H 	H 	0.1421	2.83099e-33	0.2785	1.381
Mof_O 	O 	0.0757	0	0.1964	-2.518
Mof_O 	O 	0.09373	0.5	0.67088	3.827
Mof_C 	C 	0.1854	0.5	0.767	-1.02
Mof_H 	H 	0.1421	0.5	0.7785	0.458
Mof_O 	O 	0.0757	0.5	0.6964	-4.199
Mof_O 	O 	0.59373	0	0.67088	-9.047
Mof_C 	C 	0.6854	5.66197e-33	0.767	2.871
Mof_H 	H 	0.6421	0	0.7785	-1.277
Mof_O 	O 	0.5757	0	0.6964	6.757
Mof_O 	O 	0.59373	0.5	0.17088	1.79
Mof_C 	C 	0.6854	0.5	0.267	-1.014
Mof_H 	H 	0.6421	0.5	0.2785	0.536
Mof_O 	O 	0.5757	0.5	0.1964	-1.713
Mof_O 	O 	0.90627	0	0.82912	-1.212
Mof_C 	C 	0.8146	-5.66197e-33	0.733	-1.996
Mof_H 	H 	0.8579	-5.66197e-33	0.7215	0.708
Mof_O 	O 	0.9243	0	0.8036	0.626
Mof_O 	O 	0.90627	0.5	0.32912	0.949
Mof_C 	C 	0.8146	0.5	0.233	0.591
Mof_H 	H 	0.8579	0.5	0.2215	-0.161
Mof_O 	O 	0.9243	0.5	0.3036	-1.657
Mof_O 	O 	0.40627	0	0.32912	-10.652
Mof_C 	C 	0.3146	2.83099e-33	0.233	4.383
Mof_H 	H 	0.3579	0	0.2215	-1.906
Mof_O 	O 	0.4243	2.83099e-33	0.3036	7.983
Mof_O 	O 	0.40627	0.5	0.82912	-0.566
Mof_C 	C 	0.3146	0.5	0.733	0.607
Mof_H 	H 	0.3579	0.5	0.7215	-0.127
Mof_O 	O 	0.4243	0.5	0.8036	0.054
Mof_O 	O 	0.09373	0	0.82912	1.312
Mof_C 	C 	0.1854	-5.66197e-33	0.733	-3.1
Mof_H 	H 	0.1421	-5.66197e-33	0.7215	1.087
Mof_O 	O 	0.0757	0	0.8036	-1.706
Mof_O 	O 	0.09373	0.5	0.32912	3.174
Mof_C 	C 	0.1854	0.5	0.233	-0.289
Mof_H 	H 	0.1421	0.5	0.2215	0.129
Mof_O 	O 	0.0757	0.5	0.3036	-3.751
Mof_O 	O 	0.59373	0	0.32912	-10.152
Mof_C 	C 	0.6854	2.83099e-33	0.233	3.843
Mof_H 	H 	0.6421	0	0.2215	-1.704
Mof_O 	O 	0.5757	2.83099e-33	0.3036	7.574
Mof_O 	O 	0.59373	0.5	0.82912	0.32
Mof_C 	C 	0.6854	0.5	0.733	-0.147
Mof_H 	H 	0.6421	0.5	0.7215	0.162
Mof_O 	O 	0.5757	0.5	0.8036	-0.668
Mof_O 	O 	0.90627	0	0.17088	0.587
Mof_C 	C 	0.8146	0	0.267	-3.091
Mof_H 	H 	0.8579	2.83099e-33	0.2785	1.173
Mof_O 	O 	0.9243	0	0.1964	-0.684
Mof_O 	O 	0.90627	0.5	0.67088	1.636
Mof_C 	C 	0.8146	0.5	0.767	-0.144
Mof_H 	H 	0.8579	0.5	0.7785	0.169
Mof_O 	O 	0.9243	0.5	0.6964	-2.137
Mof_O 	O 	0.40627	0	0.67088	-10.352
Mof_C 	C 	0.3146	5.66197e-33	0.767	3.862
Mof_H 	H 	0.3579	0	0.7785	-1.662
Mof_O 	O 	0.4243	0	0.6964	7.82
Mof_O 	O 	0.40627	0.5	0.17088	0.934
Mof_C 	C 	0.3146	0.5	0.267	-0.264
Mof_H 	H 	0.3579	0.5	0.2785	0.25
Mof_O 	O 	0.4243	0.5	0.1964	-1.014
Mof_O 	O 	0.09373	0.17088	-0	2.495
Mof_C 	C 	0.1854	0.267	-0	-3.765
Mof_H 	H 	0.1421	0.2785	-0	1.381
Mof_O 	O 	0.0757	0.1964	-0	-2.518
Mof_O 	O 	0.09373	0.67088	0.5	3.827
Mof_C 	C 	0.1854	0.767	0.5	-1.02
Mof_H 	H 	0.1421	0.7785	0.5	0.458
Mof_O 	O 	0.0757	0.6964	0.5	-4.199
Mof_O 	O 	0.59373	0.17088	0.5	1.79
Mof_C 	C 	0.6854	0.267	0.5	-1.014
Mof_H 	H 	0.6421	0.2785	0.5	0.536
Mof_O 	O 	0.5757	0.1964	0.5	-1.713
Mof_O 	O 	0.59373	0.67088	-0	-9.047
Mof_C 	C 	0.6854	0.767	-0	2.871
Mof_H 	H 	0.6421	0.7785	-0	-1.277
Mof_O 	O 	0.5757	0.6964	-0	6.757
Mof_O 	O 	0.90627	0.82912	-0	-1.212
Mof_C 	C 	0.8146	0.733	-0	-1.996
Mof_H 	H 	0.8579	0.7215	-0	0.708
Mof_O 	O 	0.9243	0.8036	-0	0.626
Mof_O 	O 	0.90627	0.32912	0.5	0.949
Mof_C 	C 	0.8146	0.233	0.5	0.591
Mof_H 	H 	0.8579	0.2215	0.5	-0.161
Mof_O 	O 	0.9243	0.3036	0.5	-1.657
Mof_O 	O 	0.40627	0.82912	0.5	-0.566
Mof_C 	C 	0.3146	0.733	0.5	0.607
Mof_H 	H 	0.3579	0.7215	0.5	-0.127
Mof_O 	O 	0.4243	0.8036	0.5	0.054
Mof_O 	O 	0.40627	0.32912	-0	-10.652
Mof_C 	C 	0.3146	0.233	-0	4.383
Mof_H 	H 	0.3579	0.2215	-0	-1.906
Mof_O 	O 	0.4243	0.3036	-0	7.983
Mof_O 	O 	0.09373	0.82912	-0	1.312
Mof_C 	C 	0.1854	0.733	-0	-3.1
Mof_H 	H 	0.1421	0.7215	-0	1.087
Mof_O 	O 	0.0757	0.8036	-0	-1.706
Mof_O 	O 	0.09373	0.32912	0.5	3.174
Mof_C 	C 	0.1854	0.233	0.5	-0.289
Mof_H 	H 	0.1421	0.2215	0.5	0.129
Mof_O 	O 	0.0757	0.3036	0.5	-3.751
Mof_O 	O 	0.59373	0.82912	0.5	0.32
Mof_C 	C 	0.6854	0.733	0.5	-0.147
Mof_H 	H 	0.6421	0.7215	0.5	0.162
Mof_O 	O 	0.5757	0.8036	0.5	-0.668
Mof_O 	O 	0.59373	0.32912	-0	-10.152
Mof_C 	C 	0.6854	0.233	-0	3.843
Mof_H 	H 	0.6421	0.2215	-0	-1.704
Mof_O 	O 	0.5757	0.3036	-0	7.574
Mof_O 	O 	0.90627	0.17088	-0	0.587
Mof_C 	C 	0.8146	0.267	-0	-3.091
Mof_H 	H 	0.8579	0.2785	-0	1.173
Mof_O 	O 	0.9243	0.1964	-0	-0.684
Mof_O 	O 	0.90627	0.67088	0.5	1.636
Mof_C 	C 	0.8146	0.767	0.5	-0.144
Mof_H 	H 	0.8579	0.7785	0.5	0.169
Mof_O 	O 	0.9243	0.6964	0.5	-2.137
Mof_O 	O 	0.40627	0.17088	0.5	0.934
Mof_C 	C 	0.3146	0.267	0.5	-0.264
Mof_H 	H 	0.3579	0.2785	0.5	0.25
Mof_O 	O 	0.4243	0.1964	0.5	-1.014
Mof_O 	O 	0.40627	0.67088	-0	-10.352
Mof_C 	C 	0.3146	0.767	-0	3.862
Mof_H 	H 	0.3579	0.7785	-0	-1.662
Mof_O 	O 	0.4243	0.6964	-0	7.82
Mof_O 	O 	0.17088	0	0.90627	0.587
Mof_C 	C 	0.267	-5.66197e-33	0.8146	-3.091
Mof_H 	H 	0.2785	0	0.8579	1.173
Mof_O 	O 	0.1964	1.13239e-32	0.9243	-0.684
Mof_O 	O 	0.17088	0.5	0.40627	0.934
Mof_C 	C 	0.267	0.5	0.3146	-0.264
Mof_H 	H 	0.2785	0.5	0.3579	0.25
Mof_O 	O 	0.1964	0.5	0.4243	-1.014
Mof_O 	O 	0.67088	0	0.40627	-10.352
Mof_C 	C 	0.767	-2.83099e-33	0.3146	3.862
Mof_H 	H 	0.7785	2.83099e-33	0.3579	-1.662
Mof_O 	O 	0.6964	0	0.4243	7.82
Mof_O 	O 	0.67088	0.5	0.90627	1.636
Mof_C 	C 	0.767	0.5	0.8146	-0.144
Mof_H 	H 	0.7785	0.5	0.8579	0.169
Mof_O 	O 	0.6964	0.5	0.9243	-2.137
Mof_O 	O 	0.82912	0	0.09373	1.312
Mof_C 	C 	0.733	1.41549e-33	0.1854	-3.1
Mof_H 	H 	0.7215	1.41549e-33	0.1421	1.087
Mof_O 	O 	0.8036	-7.07747e-34	0.0757	-1.706
Mof_O 	O 	0.82912	0.5	0.59373	0.32
Mof_C 	C 	0.733	0.5	0.6854	-0.147
Mof_H 	H 	0.7215	0.5	0.6421	0.162
Mof_O 	O 	0.8036	0.5	0.5757	-0.668
Mof_O 	O 	0.32912	-5.66197e-33	0.59373	-10.152
Mof_C 	C 	0.233	0	0.6854	3.843
Mof_H 	H 	0.2215	5.66197e-33	0.6421	-1.704
Mof_O 	O 	0.3036	0	0.5757	7.574
Mof_O 	O 	0.32912	0.5	0.09373	3.174
Mof_C 	C 	0.233	0.5	0.1854	-0.289
Mof_H 	H 	0.2215	0.5	0.1421	0.129
Mof_O 	O 	0.3036	0.5	0.0757	-3.751
Mof_O 	O 	0.82912	0	0.90627	-1.212
Mof_C 	C 	0.733	-5.66197e-33	0.8146	-1.996
Mof_H 	H 	0.7215	0	0.8579	0.708
Mof_O 	O 	0.8036	1.13239e-32	0.9243	0.626
Mof_O 	O 	0.82912	0.5	0.40627	-0.566
Mof_C 	C 	0.733	0.5	0.3146	0.607
Mof_H 	H 	0.7215	0.5	0.3579	-0.127
Mof_O 	O 	0.8036	0.5	0.4243	0.054
Mof_O 	O 	0.32912	0	0.40627	-10.652
Mof_C 	C 	0.233	-2.83099e-33	0.3146	4.383
Mof_H 	H 	0.2215	2.83099e-33	0.3579	-1.906
Mof_O 	O 	0.3036	0	0.4243	7.983
Mof_O 	O 	0.32912	0.5	0.90627	0.949
Mof_C 	C 	0.233	0.5	0.8146	0.591
Mof_H 	H 	0.2215	0.5	0.8579	-0.161
Mof_O 	O 	0.3036	0.5	0.9243	-1.657
Mof_O 	O 	0.17088	0	0.09373	2.495
Mof_C 	C 	0.267	1.41549e-33	0.1854	-3.765
Mof_H 	H 	0.2785	1.41549e-33	0.1421	1.381
Mof_O 	O 	0.1964	-7.07747e-34	0.0757	-2.518
Mof_O 	O 	0.17088	0.5	0.59373	1.79
Mof_C 	C 	0.267	0.5	0.6854	-1.014
Mof_H 	H 	0.2785	0.5	0.6421	0.536
Mof_O 	O 	0.1964	0.5	0.5757	-1.713
Mof_O 	O 	0.67088	-5.66197e-33	0.59373	-9.047
Mof_C 	C 	0.767	0	0.6854	2.871
Mof_H 	H 	0.7785	5.66197e-33	0.6421	-1.277
Mof_O 	O 	0.6964	0	0.5757	6.757
Mof_O 	O 	0.67088	0.5	0.09373	3.827
Mof_C 	C 	0.767	0.5	0.1854	-1.02
Mof_H 	H 	0.7785	0.5	0.1421	0.458
Mof_O 	O 	0.6964	0.5	0.0757	-4.199
Mof_O 	O 	8.77067e-33	0.09373	0.82912	1.312
Mof_C 	C 	-2.91366e-33	0.1854	0.733	-3.1
Mof_H 	H 	8.36716e-33	0.1421	0.7215	1.087
Mof_O 	O 	-1.39729e-32	0.0757	0.8036	-1.706
Mof_O 	O 	-1.59698e-33	0.59373	0.32912	-10.152
Mof_C 	C 	8.7361e-34	0.6854	0.233	3.843
Mof_H 	H 	8.30492e-34	0.6421	0.2215	-1.704
Mof_O 	O 	1.13832e-33	0.5757	0.3036	7.574
Mof_O 	O 	0.5	0.09373	0.32912	3.174
Mof_C 	C 	0.5	0.1854	0.233	-0.289
Mof_H 	H 	0.5	0.1421	0.2215	0.129
Mof_O 	O 	0.5	0.0757	0.3036	-3.751
Mof_O 	O 	0.5	0.59373	0.82912	0.32
Mof_C 	C 	0.5	0.6854	0.733	-0.147
Mof_H 	H 	0.5	0.6421	0.7215	0.162
Mof_O 	O 	0.5	0.5757	0.8036	-0.668
Mof_O 	O 	1.33801e-32	0.90627	0.17088	0.587
Mof_C 	C 	1.00109e-33	0.8146	0.267	-3.091
Mof_H 	H 	9.53717e-33	0.8579	0.2785	1.173
Mof_O 	O 	1.48913e-32	0.9243	0.1964	-0.684
Mof_O 	O 	-3.14658e-33	0.40627	0.67088	-10.352
Mof_C 	C 	2.87579e-33	0.3146	0.767	3.862
Mof_H 	H 	8.58088e-33	0.3579	0.7785	-1.662
Mof_O 	O 	2.61108e-33	0.4243	0.6964	7.82
Mof_O 	O 	0.5	0.90627	0.67088	1.636
Mof_C 	C 	0.5	0.8146	0.767	-0.144
Mof_H 	H 	0.5	0.8579	0.7785	0.169
Mof_O 	O 	0.5	0.9243	0.6964	-2.137
Mof_O 	O 	0.5	0.40627	0.17088	0.934
Mof_C 	C 	0.5	0.3146	0.267	-0.264
Mof_H 	H 	0.5	0.3579	0.2785	0.25
Mof_O 	O 	0.5	0.4243	0.1964	-1.014
Mof_O 	O 	-2.19029e-33	0.09373	0.17088	2.495
Mof_C 	C 	1.00109e-33	0.1854	0.267	-3.765
Mof_H 	H 	-1.78678e-33	0.1421	0.2785	1.381
Mof_O 	O 	7.36382e-34	0.0757	0.1964	-2.518
Mof_O 	O 	1.38393e-32	0.59373	0.67088	-9.047
Mof_C 	C 	8.53776e-33	0.6854	0.767	2.871
Mof_H 	H 	8.58088e-33	0.6421	0.7785	-1.277
Mof_O 	O 	2.61108e-33	0.5757	0.6964	6.757
Mof_O 	O 	0.5	0.09373	0.67088	3.827
Mof_C 	C 	0.5	0.1854	0.767	-1.02
Mof_H 	H 	0.5	0.1421	0.7785	0.458
Mof_O 	O 	0.5	0.0757	0.6964	-4.199
Mof_O 	O 	0.5	0.59373	0.17088	1.79
Mof_C 	C 	0.5	0.6854	0.267	-1.014
Mof_H 	H 	0.5	0.6421	0.2785	0.536
Mof_O 	O 	0.5	0.5757	0.1964	-1.713
Mof_O 	O 	2.00946e-32	0.90627	0.82912	-1.212
Mof_C 	C 	-8.57564e-33	0.8146	0.733	-1.996
Mof_H 	H 	2.70519e-33	0.8579	0.7215	0.708
Mof_O 	O 	-1.39729e-32	0.9243	0.8036	0.626
Mof_O 	O 	1.234e-33	0.40627	0.32912	-10.652
Mof_C 	C 	6.53558e-33	0.3146	0.233	4.383
Mof_H 	H 	8.30492e-34	0.3579	0.2215	-1.906
Mof_O 	O 	1.13832e-33	0.4243	0.3036	7.983
Mof_O 	O 	0.5	0.90627	0.32912	0.949
Mof_C 	C 	0.5	0.8146	0.233	0.591
Mof_H 	H 	0.5	0.8579	0.2215	-0.161
Mof_O 	O 	0.5	0.9243	0.3036	-1.657
Mof_O 	O 	0.5	0.40627	0.82912	-0.566
Mof_C 	C 	0.5	0.3146	0.733	0.607
Mof_H 	H 	0.5	0.3579	0.7215	-0.127
Mof_O 	O 	0.5	0.4243	0.8036	0.054
Mof_C 	C 	0.1515	0.1515	-0	-2.778
Mof_C 	C 	0.2028	0.2028	-0	3.267
Mof_C 	C 	0.1515	0.6515	0.5	-2.383
Mof_C 	C 	0.2028	0.7028	0.5	1.417
Mof_C 	C 	0.6515	0.1515	0.5	-2.383
Mof_C 	C 	0.7028	0.2028	0.5	1.417
Mof_C 	C 	0.6515	0.6515	-0	7.444
Mof_C 	C 	0.7028	0.7028	-0	-4.13
Mof_C 	C 	0.8485	0.8485	-0	0.492
Mof_C 	C 	0.7972	0.7972	-0	1.171
Mof_C 	C 	0.8485	0.3485	0.5	-0.019
Mof_C 	C 	0.7972	0.2972	0.5	-0.346
Mof_C 	C 	0.3485	0.8485	0.5	-0.019
Mof_C 	C 	0.2972	0.7972	0.5	-0.346
Mof_C 	C 	0.3485	0.3485	-0	8.973
Mof_C 	C 	0.2972	0.2972	-0	-5.612
Mof_C 	C 	0.8485	0.1515	-0	-1.421
Mof_C 	C 	0.7972	0.2028	-0	2.446
Mof_C 	C 	0.8485	0.6515	0.5	-0.769
Mof_C 	C 	0.7972	0.7028	0.5	0.383
Mof_C 	C 	0.3485	0.1515	0.5	-1.659
Mof_C 	C 	0.2972	0.2028	0.5	0.698
Mof_C 	C 	0.3485	0.6515	-0	8.563
Mof_C 	C 	0.2972	0.7028	-0	-5.126
Mof_C 	C 	0.1515	0.8485	-0	-1.421
Mof_C 	C 	0.2028	0.7972	-0	2.446
Mof_C 	C 	0.1515	0.3485	0.5	-1.659
Mof_C 	C 	0.2028	0.2972	0.5	0.698
Mof_C 	C 	0.6515	0.8485	0.5	-0.769
Mof_C 	C 	0.7028	0.7972	0.5	0.383
Mof_C 	C 	0.6515	0.3485	-0	8.563
Mof_C 	C 	0.7028	0.2972	-0	-5.126
Mof_C 	C 	5.68034e-34	0.1515	0.1515	-2.778
Mof_C 	C 	3.59136e-33	0.2028	0.2028	3.267
Mof_C 	C 	2.44273e-33	0.6515	0.6515	7.444
Mof_C 	C 	-3.02689e-33	0.7028	0.7028	-4.13
Mof_C 	C 	0.5	0.1515	0.6515	-2.383
Mof_C 	C 	0.5	0.2028	0.7028	1.417
Mof_C 	C 	0.5	0.6515	0.1515	-2.383
Mof_C 	C 	0.5	0.7028	0.2028	1.417
Mof_C 	C 	3.18137e-33	0.8485	0.8485	0.492
Mof_C 	C 	2.98902e-33	0.7972	0.7972	1.171
Mof_C 	C 	6.96864e-33	0.3485	0.3485	8.973
Mof_C 	C 	-4.54765e-33	0.2972	0.2972	-5.612
Mof_C 	C 	0.5	0.8485	0.3485	-0.019
Mof_C 	C 	0.5	0.7972	0.2972	-0.346
Mof_C 	C 	0.5	0.3485	0.8485	-0.019
Mof_C 	C 	0.5	0.2972	0.7972	-0.346
Mof_C 	C 	3.39902e-33	0.8485	0.1515	-1.421
Mof_C 	C 	3.59136e-33	0.7972	0.2028	2.446
Mof_C 	C 	2.44273e-33	0.3485	0.6515	8.563
Mof_C 	C 	-3.02689e-33	0.2972	0.7028	-5.126
Mof_C 	C 	0.5	0.8485	0.6515	-0.769
Mof_C 	C 	0.5	0.7972	0.7028	0.383
Mof_C 	C 	0.5	0.3485	0.1515	-1.659
Mof_C 	C 	0.5	0.2972	0.2028	0.698
Mof_C 	C 	3.18137e-33	0.1515	0.8485	-1.421
Mof_C 	C 	2.98902e-33	0.2028	0.7972	2.446
Mof_C 	C 	6.96864e-33	0.6515	0.3485	8.563
Mof_C 	C 	1.11432e-33	0.7028	0.2972	-5.126
Mof_C 	C 	0.5	0.1515	0.3485	-1.659
Mof_C 	C 	0.5	0.2028	0.2972	0.698
Mof_C 	C 	0.5	0.6515	0.8485	-0.769
Mof_C 	C 	0.5	0.7028	0.7972	0.383
Mof_C 	C 	0.1515	0	0.1515	-2.778
Mof_C 	C 	0.2028	0	0.2028	3.267
Mof_C 	C 	0.1515	0.5	0.6515	-2.383
Mof_C 	C 	0.2028	0.5	0.7028	1.417
Mof_C 	C 	0.6515	0	0.6515	7.444
Mof_C 	C 	0.7028	5.66197e-33	0.7028	-4.13
Mof_C 	C 	0.6515	0.5	0.1515	-2.383
Mof_C 	C 	0.7028	0.5	0.2028	1.417
Mof_C 	C 	0.8485	0	0.8485	0.492
Mof_C 	C 	0.7972	0	0.7972	1.171
Mof_C 	C 	0.8485	0.5	0.3485	-0.019
Mof_C 	C 	0.7972	0.5	0.2972	-0.346
Mof_C 	C 	0.3485	-2.83099e-33	0.3485	8.973
Mof_C 	C 	0.2972	0	0.2972	-5.612
Mof_C 	C 	0.3485	0.5	0.8485	-0.019
Mof_C 	C 	0.2972	0.5	0.7972	-0.346
Mof_C 	C 	0.1515	0	0.8485	-1.421
Mof_C 	C 	0.2028	0	0.7972	2.446
Mof_C 	C 	0.1515	0.5	0.3485	-1.659
Mof_C 	C 	0.2028	0.5	0.2972	0.698
Mof_C 	C 	0.6515	-2.83099e-33	0.3485	8.563
Mof_C 	C 	0.7028	0	0.2972	-5.126
Mof_C 	C 	0.6515	0.5	0.8485	-0.769
Mof_C 	C 	0.7028	0.5	0.7972	0.383
Mof_C 	C 	0.8485	0	0.1515	-1.421
Mof_C 	C 	0.7972	0	0.2028	2.446
Mof_C 	C 	0.8485	0.5	0.6515	-0.769
Mof_C 	C 	0.7972	0.5	0.7028	0.383
Mof_C 	C 	0.3485	0	0.6515	8.563
Mof_C 	C 	0.2972	5.66197e-33	0.7028	-5.126
Mof_C 	C 	0.3485	0.5	0.1515	-1.659
Mof_C 	C 	0.2972	0.5	0.2028	0.698
Mof_O 	O 	0.0675	0.0675	0.0675	3.142
Mof_O 	O 	0.0501	0.0501	0.0501	-4.05
Mof_H 	H 	0.0953	0.0953	0.0953	-1.05
Mof_O 	O 	0.0675	0.5675	0.5675	2.714
Mof_O 	O 	0.0501	0.5501	0.5501	-3.353
Mof_H 	H 	0.0953	0.5953	0.5953	-0.814
Mof_O 	O 	0.5675	0.0675	0.5675	2.714
Mof_O 	O 	0.5501	0.0501	0.5501	-3.353
Mof_H 	H 	0.5953	0.0953	0.5953	-0.814
Mof_O 	O 	0.5675	0.5675	0.0675	2.714
Mof_O 	O 	0.5501	0.5501	0.0501	-3.353
Mof_H 	H 	0.5953	0.5953	0.0953	-0.814
Mof_O 	O 	0.9325	0.9325	0.0675	0.695
Mof_O 	O 	0.9499	0.9499	0.0501	-1.416
Mof_H 	H 	0.9047	0.9047	0.0953	-0.083
Mof_O 	O 	0.9325	0.4325	0.5675	0.361
Mof_O 	O 	0.9499	0.4499	0.5501	-0.944
Mof_H 	H 	0.9047	0.4047	0.5953	0.017
Mof_O 	O 	0.4325	0.9325	0.5675	0.361
Mof_O 	O 	0.4499	0.9499	0.5501	-0.944
Mof_H 	H 	0.4047	0.9047	0.5953	0.017
Mof_O 	O 	0.4325	0.4325	0.0675	2.936
Mof_O 	O 	0.4499	0.4499	0.0501	-3.479
Mof_H 	H 	0.4047	0.4047	0.0953	-0.852
Mof_O 	O 	0.9325	0.0675	0.9325	0.695
Mof_O 	O 	0.9499	0.0501	0.9499	-1.416
Mof_H 	H 	0.9047	0.0953	0.9047	-0.083
Mof_O 	O 	0.9325	0.5675	0.4325	0.361
Mof_O 	O 	0.9499	0.5501	0.4499	-0.944
Mof_H 	H 	0.9047	0.5953	0.4047	0.017
Mof_O 	O 	0.4325	0.0675	0.4325	2.936
Mof_O 	O 	0.4499	0.0501	0.4499	-3.479
Mof_H 	H 	0.4047	0.0953	0.4047	-0.852
Mof_O 	O 	0.4325	0.5675	0.9325	0.361
Mof_O 	O 	0.4499	0.5501	0.9499	-0.944
Mof_H 	H 	0.4047	0.5953	0.9047	0.017
Mof_O 	O 	0.0675	0.9325	0.9325	0.695
Mof_O 	O 	0.0501	0.9499	0.9499	-1.416
Mof_H 	H 	0.0953	0.9047	0.9047	-0.083
Mof_O 	O 	0.0675	0.4325	0.4325	2.936
Mof_O 	O 	0.0501	0.4499	0.4499	-3.479
Mof_H 	H 	0.0953	0.4047	0.4047	-0.852
Mof_O 	O 	0.5675	0.9325	0.4325	0.361
Mof_O 	O 	0.5501	0.9499	0.4499	-0.944
Mof_H 	H 	0.5953	0.9047	0.4047	0.017
Mof_O 	O 	0.5675	0.4325	0.9325	0.361
Mof_O 	O 	0.5501	0.4499	0.9499	-0.944
Mof_H 	H 	0.5953	0.4047	0.9047	0.017
Mof_O 	O 	0.0675	0.0675	0.9325	2.716
Mof_O 	O 	0.0501	0.0501	0.9499	-3.468
Mof_H 	H 	0.0953	0.0953	0.9047	-0.798
Mof_O 	O 	0.0675	0.5675	0.4325	2.462
Mof_O 	O 	0.0501	0.5501	0.4499	-3.073
Mof_H 	H 	0.0953	0.5953	0.4047	-0.723
Mof_O 	O 	0.5675	0.0675	0.4325	2.462
Mof_O 	O 	0.5501	0.0501	0.4499	-3.073
Mof_H 	H 	0.5953	0.0953	0.4047	-0.723
Mof_O 	O 	0.5675	0.5675	0.9325	0.586
Mof_O 	O 	0.5501	0.5501	0.9499	-1.2
Mof_H 	H 	0.5953	0.5953	0.9047	-0.066
Mof_O 	O 	0.9325	0.9325	0.9325	-2.92
Mof_O 	O 	0.9499	0.9499	0.9499	2.106
Mof_H 	H 	0.9047	0.9047	0.9047	1.095
Mof_O 	O 	0.9325	0.4325	0.4325	0.863
Mof_O 	O 	0.9499	0.4499	0.4499	-1.374
Mof_H 	H 	0.9047	0.4047	0.4047	-0.118
Mof_O 	O 	0.4325	0.9325	0.4325	0.863
Mof_O 	O 	0.4499	0.9499	0.4499	-1.374
Mof_H 	H 	0.4047	0.9047	0.4047	-0.118
Mof_O 	O 	0.4325	0.4325	0.9325	0.863
Mof_O 	O 	0.4499	0.4499	0.9499	-1.374
Mof_H 	H 	0.4047	0.4047	0.9047	-0.118
Mof_O 	O 	0.0675	0.9325	0.0675	2.716
Mof_O 	O 	0.0501	0.9499	0.0501	-3.468
Mof_H 	H 	0.0953	0.9047	0.0953	-0.798
Mof_O 	O 	0.0675	0.4325	0.5675	2.462
Mof_O 	O 	0.0501	0.4499	0.5501	-3.073
Mof_H 	H 	0.0953	0.4047	0.5953	-0.723
Mof_O 	O 	0.5675	0.9325	0.5675	0.586
Mof_O 	O 	0.5501	0.9499	0.5501	-1.2
Mof_H 	H 	0.5953	0.9047	0.5953	-0.066
Mof_O 	O 	0.5675	0.4325	0.0675	2.462
Mof_O 	O 	0.5501	0.4499	0.0501	-3.073
Mof_H 	H 	0.5953	0.4047	0.0953	-0.723
Mof_O 	O 	0.9325	0.0675	0.0675	2.716
Mof_O 	O 	0.9499	0.0501	0.0501	-3.468
Mof_H 	H 	0.9047	0.0953	0.0953	-0.798
Mof_O 	O 	0.9325	0.5675	0.5675	0.586
Mof_O 	O 	0.9499	0.5501	0.5501	-1.2
Mof_H 	H 	0.9047	0.5953	0.5953	-0.066
Mof_O 	O 	0.4325	0.0675	0.5675	2.462
Mof_O 	O 	0.4499	0.0501	0.5501	-3.073
Mof_H 	H 	0.4047	0.0953	0.5953	-0.723
Mof_O 	O 	0.4325	0.5675	0.0675	2.462
Mof_O 	O 	0.4499	0.5501	0.0501	-3.073
Mof_H 	H 	0.4047	0.5953	0.0953	-0.723
_end
