data_functionalizedCrystal
_audit_creation_method	'EQeq! by Chris Wilmer'
_symmetry_space_group_name_H-M	'P1'
_symmetry_Int_Tables_number	1
_symmetry_cell_setting	triclinic
loop_
_symmetry_equiv_pos_as_xyz
  x,y,z
_cell_length_a	11.45
_cell_length_b	11.467
_cell_length_c	20.944
_cell_angle_alpha	90
_cell_angle_beta	90
_cell_angle_gamma	90
loop_
_atom_site_label
_atom_site_type_symbol
_atom_site_fract_x
_atom_site_fract_y
_atom_site_fract_z
_atom_site_charge
Mof_C 	C 	0.0393	0.7474	0.7001	0.061
Mof_C 	C 	0.0383	0.6275	0.6972	-0.117
Mof_C 	C 	0.7485	0.9549	0.7027	0.108
Mof_C 	C 	0.6283	0.9555	0.7005	-0.095
Mof_H 	H 	0.0688	0.7881	0.6655	0.018
Mof_H 	H 	0.0642	0.5893	0.6603	0.08
Mof_H 	H 	0.79	0.9192	0.669	0.006
Mof_H 	H 	0.5903	0.9228	0.6653	0.083
Mof_C 	C 	0.9607	0.2526	0.7001	0.1
Mof_C 	C 	0.9617	0.3725	0.6972	-0.091
Mof_C 	C 	0.2515	0.0451	0.7027	0.078
Mof_C 	C 	0.3717	0.0445	0.7005	-0.136
Mof_H 	H 	0.9312	0.2119	0.6655	0.006
Mof_H 	H 	0.9358	0.4107	0.6603	0.087
Mof_H 	H 	0.21	0.0808	0.669	-0.009
Mof_H 	H 	0.4097	0.0772	0.6653	0.078
Mof_C 	C 	0.9607	0.7474	0.7999	0.093
Mof_C 	C 	0.9617	0.6275	0.8028	-0.087
Mof_C 	C 	0.2515	0.9549	0.7973	0.116
Mof_C 	C 	0.3717	0.9555	0.7995	-0.102
Mof_H 	H 	0.9312	0.7881	0.8345	0.015
Mof_H 	H 	0.9358	0.5893	0.8397	0.084
Mof_H 	H 	0.21	0.9192	0.831	-0.009
Mof_H 	H 	0.4097	0.9228	0.8347	0.081
Mof_C 	C 	0.0393	0.2526	0.7999	0.062
Mof_C 	C 	0.0383	0.3725	0.8028	-0.122
Mof_C 	C 	0.7485	0.0451	0.7973	0.075
Mof_C 	C 	0.6283	0.0445	0.7995	-0.13
Mof_H 	H 	0.0688	0.2119	0.8345	0.004
Mof_H 	H 	0.0642	0.4107	0.8397	0.079
Mof_H 	H 	0.79	0.0808	0.831	0.003
Mof_H 	H 	0.5903	0.0772	0.8347	0.076
Mof_C 	C 	0.9607	0.2526	0.2999	0.1
Mof_C 	C 	0.9617	0.3725	0.3028	-0.091
Mof_C 	C 	0.2515	0.0451	0.2973	0.078
Mof_C 	C 	0.3717	0.0445	0.2995	-0.136
Mof_H 	H 	0.9312	0.2119	0.3345	0.006
Mof_H 	H 	0.9358	0.4107	0.3397	0.087
Mof_H 	H 	0.21	0.0808	0.331	-0.009
Mof_H 	H 	0.4097	0.0772	0.3347	0.079
Mof_C 	C 	0.0393	0.7474	0.2999	0.062
Mof_C 	C 	0.0383	0.6275	0.3028	-0.117
Mof_C 	C 	0.7485	0.9549	0.2973	0.109
Mof_C 	C 	0.6283	0.9555	0.2995	-0.095
Mof_H 	H 	0.0688	0.7881	0.3345	0.018
Mof_H 	H 	0.0642	0.5893	0.3397	0.08
Mof_H 	H 	0.79	0.9192	0.331	0.006
Mof_H 	H 	0.5903	0.9228	0.3347	0.083
Mof_C 	C 	0.0393	0.2526	0.2001	0.063
Mof_C 	C 	0.0383	0.3725	0.1972	-0.122
Mof_C 	C 	0.7485	0.0451	0.2027	0.076
Mof_C 	C 	0.6283	0.0445	0.2005	-0.129
Mof_H 	H 	0.0688	0.2119	0.1655	0.007
Mof_H 	H 	0.0642	0.4107	0.1603	0.082
Mof_H 	H 	0.79	0.0808	0.169	0.006
Mof_H 	H 	0.5903	0.0772	0.1653	0.079
Mof_C 	C 	0.9607	0.7474	0.2001	0.094
Mof_C 	C 	0.9617	0.6275	0.1972	-0.086
Mof_C 	C 	0.2515	0.9549	0.2027	0.117
Mof_C 	C 	0.3717	0.9555	0.2005	-0.102
Mof_H 	H 	0.9312	0.7881	0.1655	0.018
Mof_H 	H 	0.9358	0.5893	0.1603	0.087
Mof_H 	H 	0.21	0.9192	0.169	-0.006
Mof_H 	H 	0.4097	0.9228	0.1653	0.085
Mof_Au	Au	-5.7507e-33	0	0.5	0.17
Mof_Au	Au	-0	0	-0	0.188
Mof_Br	Br	0.0606	0.79633	0.5	-0.249
Mof_Br	Br	0.9394	0.20367	0.5	-0.236
Mof_Br	Br	0.9394	0.79633	-0	-0.202
Mof_Br	Br	0.0606	0.20367	-0	-0.275
Mof_Co	Co	5.14372e-33	0	0.75	1.106
Mof_Co	Co	-2.87535e-33	0	0.25	1.106
Mof_N 	N 	4.45309e-33	9.17985e-33	0.6493	-0.255
Mof_C 	C 	4.07725e-33	0	0.5945	0.047
Mof_N 	N 	-1.25253e-32	0	0.8507	-0.252
Mof_C 	C 	6.21018e-33	0	0.9055	0.033
Mof_N 	N 	-6.77465e-33	0	0.3507	-0.255
Mof_C 	C 	-6.39881e-33	0	0.4055	0.047
Mof_N 	N 	-1.27102e-33	-2.29496e-33	0.1493	-0.254
Mof_C 	C 	6.48108e-34	0	0.0945	0.045
Mof_N 	N 	-1.3216e-32	0.8114	0.75	-0.241
Mof_C 	C 	-1.3216e-32	0.5645	0.75	0.025
Mof_N 	N 	5.14372e-33	0.1886	0.75	-0.255
Mof_C 	C 	-1.3216e-32	0.4355	0.75	0.026
Mof_N 	N 	-7.46528e-33	0.1886	0.25	-0.255
Mof_C 	C 	-7.46528e-33	0.4355	0.25	0.027
Mof_N 	N 	-7.46528e-33	0.8114	0.25	-0.241
Mof_C 	C 	1.71457e-33	0.5645	0.25	0.026
Mof_N 	N 	0.8101	0	0.75	-0.248
Mof_C 	C 	0.5644	0	0.75	0.028
Mof_N 	N 	0.1899	0	0.75	-0.263
Mof_C 	C 	0.4356	0	0.75	0.032
Mof_N 	N 	0.1899	0	0.25	-0.263
Mof_C 	C 	0.4356	0	0.25	0.033
Mof_N 	N 	0.8101	0	0.25	-0.248
Mof_C 	C 	0.5644	0	0.25	0.029
_end
