data_functionalizedCrystal
_audit_creation_method	'EQeq! by Chris Wilmer'
_symmetry_space_group_name_H-M	'P1'
_symmetry_Int_Tables_number	1
_symmetry_cell_setting	triclinic
loop_
_symmetry_equiv_pos_as_xyz
  x,y,z
_cell_length_a	10.7459
_cell_length_b	11.8655
_cell_length_c	14.6752
_cell_angle_alpha	73.267
_cell_angle_beta	71.824
_cell_angle_gamma	66.799
loop_
_atom_site_label
_atom_site_type_symbol
_atom_site_fract_x
_atom_site_fract_y
_atom_site_fract_z
_atom_site_charge
Mof_Sm	Sm	0.01298	0.44969	0.37209	2.339
Mof_Sm	Sm	0.98702	0.55031	0.62791	2.339
Mof_P 	P 	0.85663	0.28196	0.27429	0.255
Mof_P 	P 	0.14337	0.71804	0.72571	0.255
Mof_H 	H 	0.4938	0.3657	0.5569	0.029
Mof_H 	H 	0.0461	0.1027	0.3831	0.042
Mof_H 	H 	0.7212	0.3222	0.4643	0.064
Mof_H 	H 	0.0278	0.1799	0.1068	0.028
Mof_H 	H 	0.3584	0.3831	0.323	-0.029
Mof_H 	H 	0.5892	0.3332	0.23	0.062
Mof_H 	H 	0.8125	0.0827	0.2215	0.054
Mof_H 	H 	0.7499	0.5773	0.9833	0.04
Mof_H 	H 	0.0646	0.2546	0.9386	0.058
Mof_H 	H 	0.1138	0.8866	0.4346	0.018
Mof_H 	H 	0.8896	0.8652	0.2675	0.025
Mof_H 	H 	0.7232	0.5055	0.1516	0.049
Mof_H 	H 	0.5062	0.6343	0.4431	0.029
Mof_H 	H 	0.9539	0.8973	0.6169	0.042
Mof_H 	H 	0.2788	0.6778	0.5357	0.064
Mof_H 	H 	0.9722	0.8201	0.8932	0.028
Mof_H 	H 	0.6416	0.6169	0.677	-0.029
Mof_H 	H 	0.4108	0.6668	0.77	0.062
Mof_H 	H 	0.1875	0.9173	0.7785	0.054
Mof_H 	H 	0.2501	0.4227	0.0167	0.04
Mof_H 	H 	0.9354	0.7454	0.0614	0.058
Mof_H 	H 	0.8862	0.1134	0.5654	0.018
Mof_H 	H 	0.1104	0.1348	0.7325	0.025
Mof_H 	H 	0.2768	0.4945	0.8484	0.049
Mof_C 	C 	0.8695	0.3341	0.1455	-0.048
Mof_C 	C 	0.513	0.3601	0.4903	0.048
Mof_C 	C 	0.9218	0.1137	0.2986	-0.012
Mof_C 	C 	0.6762	0.3239	0.338	-0.003
Mof_C 	C 	0.0121	0.0549	0.361	-0.087
Mof_C 	C 	0.6479	0.3337	0.4357	-0.082
Mof_C 	C 	0.4048	0.3786	0.4487	-0.171
Mof_C 	C 	0.9715	0.261	0.0818	-0.017
Mof_C 	C 	0.4322	0.3697	0.3517	0.073
Mof_C 	C 	0.5695	0.3409	0.2961	-0.11
Mof_C 	C 	0.8745	0.0426	0.2642	-0.084
Mof_C 	C 	0.9083	0.4206	0.945	-0.053
Mof_C 	C 	0.9302	0.4649	0.8359	0.302
Mof_C 	C 	0.8069	0.4966	0.0083	-0.009
Mof_C 	C 	0.9924	0.3046	0.9818	-0.038
Mof_C 	C 	0.0051	0.8554	0.3584	-0.155
Mof_C 	C 	0.0528	0.9264	0.3911	0.041
Mof_C 	C 	0.9185	0.9138	0.2927	0.035
Mof_C 	C 	0.0408	0.7173	0.3978	0.475
Mof_C 	C 	0.2583	0.4135	0.5088	0.455
Mof_C 	C 	0.7902	0.453	0.1081	-0.038
Mof_C 	C 	0.1305	0.6659	0.8545	-0.048
Mof_C 	C 	0.487	0.6399	0.5097	0.048
Mof_C 	C 	0.0782	0.8863	0.7014	-0.012
Mof_C 	C 	0.3238	0.6761	0.662	-0.003
Mof_C 	C 	0.9879	0.9451	0.639	-0.087
Mof_C 	C 	0.3521	0.6663	0.5643	-0.082
Mof_C 	C 	0.5952	0.6214	0.5513	-0.171
Mof_C 	C 	0.0285	0.739	0.9182	-0.017
Mof_C 	C 	0.5678	0.6303	0.6483	0.073
Mof_C 	C 	0.4305	0.6591	0.7039	-0.11
Mof_C 	C 	0.1255	0.9574	0.7358	-0.084
Mof_C 	C 	0.0917	0.5794	0.055	-0.053
Mof_C 	C 	0.0698	0.5351	0.1641	0.302
Mof_C 	C 	0.1931	0.5034	0.9917	-0.009
Mof_C 	C 	0.0076	0.6954	0.0182	-0.038
Mof_C 	C 	0.9949	0.1446	0.6416	-0.155
Mof_C 	C 	0.9472	0.0736	0.6089	0.041
Mof_C 	C 	0.0815	0.0862	0.7073	0.035
Mof_C 	C 	0.9592	0.2827	0.6022	0.475
Mof_C 	C 	0.7417	0.5865	0.4912	0.455
Mof_C 	C 	0.2098	0.547	0.8919	-0.038
Mof_O 	O 	0.0506	0.4229	0.7842	-0.414
Mof_O 	O 	0.2362	0.4363	0.59211	-0.489
Mof_O 	O 	0.0694	0.6802	0.48127	-0.551
Mof_O 	O 	0.8294	0.5415	0.79797	-0.441
Mof_O 	O 	0.0367	0.6504	0.34696	-0.534
Mof_O 	O 	0.1599	0.4243	0.47326	-0.654
Mof_O 	O 	0.9351	0.3301	0.31276	-0.473
Mof_O 	O 	0.9494	0.5771	0.2158	-0.414
Mof_O 	O 	0.7638	0.5637	0.40789	-0.489
Mof_O 	O 	0.9306	0.3198	0.51873	-0.551
Mof_O 	O 	0.1706	0.4585	0.20203	-0.441
Mof_O 	O 	0.9633	0.3496	0.65304	-0.534
Mof_O 	O 	0.8401	0.5757	0.52674	-0.654
Mof_O 	O 	0.0649	0.6699	0.68724	-0.473
_end
