data_functionalizedCrystal
_audit_creation_method	'EQeq! by Chris Wilmer'
_symmetry_space_group_name_H-M	'P1'
_symmetry_Int_Tables_number	1
_symmetry_cell_setting	triclinic
loop_
_symmetry_equiv_pos_as_xyz
  x,y,z
_cell_length_a	42.68
_cell_length_b	42.68
_cell_length_c	16.66
_cell_angle_alpha	90
_cell_angle_beta	90
_cell_angle_gamma	120
loop_
_atom_site_label
_atom_site_type_symbol
_atom_site_fract_x
_atom_site_fract_y
_atom_site_fract_z
_atom_site_charge
Mof_C 	C 	0.1488	0.6531	0.9609	-0.12
Mof_H 	H 	0.1313	0.6353	0.9278	0.06
Mof_C 	C 	0.2264	0.742	0.7466	-0.087
Mof_H 	H 	0.2122	0.7304	0.7021	0.064
Mof_C 	C 	0.21899	0.72969	0.8287	0.129
Mof_C 	C 	0.08625	0.59325	0.6329	0.569
Mof_O 	O 	0.05392	0.5851	0.6472	-0.793
Mof_O 	O 	0.09719	0.57946	0.5806	-0.668
Mof_C 	C 	0.14944	0.62884	0.6881	0.197
Mof_H 	H 	0.1559	0.6157	0.6543	-0.02
Mof_C 	C 	0.1147	0.6228	0.6852	-0.277
Mof_C 	C 	0.1649	0.6715	0.7909	0.192
Mof_C 	C 	0.17477	0.65347	0.7389	-0.274
Mof_H 	H 	0.1984	0.6579	0.738	0.134
Mof_C 	C 	0.1044	0.6417	0.7324	0.167
Mof_H 	H 	0.0811	0.6381	0.7292	-0.049
Mof_C 	C 	0.1812	0.6859	0.9347	0.132
Mof_C 	C 	0.1899	0.6961	0.8555	-0.151
Mof_C 	C 	0.1303	0.6677	0.7875	-0.245
Mof_H 	H 	0.1242	0.6815	0.8201	0.109
Mof_C 	C 	0.3469	0.4957	0.9609	-0.119
Mof_H 	H 	0.3647	0.496	0.9278	0.063
Mof_C 	C 	0.258	0.4844	0.7466	-0.087
Mof_H 	H 	0.2696	0.4818	0.7021	0.064
Mof_C 	C 	0.27031	0.4893	0.8287	0.128
Mof_C 	C 	0.40675	0.493	0.6329	0.567
Mof_O 	O 	0.4149	0.46882	0.6472	-0.787
Mof_O 	O 	0.42054	0.51773	0.5806	-0.668
Mof_C 	C 	0.37116	0.5206	0.6881	0.196
Mof_H 	H 	0.3843	0.5402	0.6543	-0.019
Mof_C 	C 	0.3772	0.4919	0.6852	-0.274
Mof_C 	C 	0.3285	0.4934	0.7909	0.191
Mof_C 	C 	0.34653	0.5213	0.7389	-0.272
Mof_H 	H 	0.3421	0.5405	0.738	0.134
Mof_C 	C 	0.3583	0.4627	0.7324	0.166
Mof_H 	H 	0.3619	0.443	0.7292	-0.046
Mof_C 	C 	0.3141	0.4953	0.9347	0.132
Mof_C 	C 	0.3039	0.4938	0.8555	-0.15
Mof_C 	C 	0.3323	0.4626	0.7875	-0.244
Mof_H 	H 	0.3185	0.4427	0.8201	0.109
Mof_C 	C 	0.5043	0.8512	0.9609	-0.118
Mof_H 	H 	0.504	0.8687	0.9278	0.065
Mof_C 	C 	0.5156	0.7736	0.7466	-0.086
Mof_H 	H 	0.5182	0.7878	0.7021	0.065
Mof_C 	C 	0.5107	0.78101	0.8287	0.129
Mof_C 	C 	0.507	0.91375	0.6329	0.566
Mof_O 	O 	0.53118	0.94608	0.6472	-0.777
Mof_O 	O 	0.48227	0.90281	0.5806	-0.667
Mof_C 	C 	0.4794	0.85056	0.6881	0.194
Mof_H 	H 	0.4598	0.8441	0.6543	-0.018
Mof_C 	C 	0.5081	0.8853	0.6852	-0.27
Mof_C 	C 	0.5066	0.8351	0.7909	0.191
Mof_C 	C 	0.4787	0.82523	0.7389	-0.271
Mof_H 	H 	0.4595	0.8016	0.738	0.133
Mof_C 	C 	0.5373	0.8956	0.7324	0.165
Mof_H 	H 	0.557	0.9189	0.7292	-0.04
Mof_C 	C 	0.5047	0.8188	0.9347	0.133
Mof_C 	C 	0.5062	0.8101	0.8555	-0.15
Mof_C 	C 	0.5374	0.8697	0.7875	-0.241
Mof_H 	H 	0.5573	0.8758	0.8201	0.112
Mof_C 	C 	0.8512	0.3469	0.9609	-0.118
Mof_H 	H 	0.8687	0.3647	0.9278	0.064
Mof_C 	C 	0.7736	0.258	0.7466	-0.087
Mof_H 	H 	0.7878	0.2696	0.7021	0.064
Mof_C 	C 	0.78101	0.27031	0.8287	0.129
Mof_C 	C 	0.91375	0.40675	0.6329	0.566
Mof_O 	O 	0.94608	0.4149	0.6472	-0.778
Mof_O 	O 	0.90281	0.42054	0.5806	-0.667
Mof_C 	C 	0.85056	0.37116	0.6881	0.194
Mof_H 	H 	0.8441	0.3843	0.6543	-0.018
Mof_C 	C 	0.8853	0.3772	0.6852	-0.271
Mof_C 	C 	0.8351	0.3285	0.7909	0.19
Mof_C 	C 	0.82523	0.34653	0.7389	-0.271
Mof_H 	H 	0.8016	0.3421	0.738	0.133
Mof_C 	C 	0.8956	0.3583	0.7324	0.165
Mof_H 	H 	0.9189	0.3619	0.7292	-0.041
Mof_C 	C 	0.8188	0.3141	0.9347	0.133
Mof_C 	C 	0.8101	0.3039	0.8555	-0.15
Mof_C 	C 	0.8697	0.3323	0.7875	-0.241
Mof_H 	H 	0.8758	0.3185	0.8201	0.111
Mof_C 	C 	0.6531	0.5043	0.9609	-0.119
Mof_H 	H 	0.6353	0.504	0.9278	0.063
Mof_C 	C 	0.742	0.5156	0.7466	-0.086
Mof_H 	H 	0.7304	0.5182	0.7021	0.065
Mof_C 	C 	0.72969	0.5107	0.8287	0.129
Mof_C 	C 	0.59325	0.507	0.6329	0.567
Mof_O 	O 	0.5851	0.53118	0.6472	-0.785
Mof_O 	O 	0.57946	0.48227	0.5806	-0.668
Mof_C 	C 	0.62884	0.4794	0.6881	0.196
Mof_H 	H 	0.6157	0.4598	0.6543	-0.019
Mof_C 	C 	0.6228	0.5081	0.6852	-0.274
Mof_C 	C 	0.6715	0.5066	0.7909	0.192
Mof_C 	C 	0.65347	0.4787	0.7389	-0.272
Mof_H 	H 	0.6579	0.4595	0.738	0.134
Mof_C 	C 	0.6417	0.5373	0.7324	0.167
Mof_H 	H 	0.6381	0.557	0.7292	-0.045
Mof_C 	C 	0.6859	0.5047	0.9347	0.133
Mof_C 	C 	0.6961	0.5062	0.8555	-0.15
Mof_C 	C 	0.6677	0.5374	0.7875	-0.243
Mof_H 	H 	0.6815	0.5573	0.8201	0.111
Mof_C 	C 	0.4957	0.1488	0.9609	-0.119
Mof_H 	H 	0.496	0.1313	0.9278	0.061
Mof_C 	C 	0.4844	0.2264	0.7466	-0.087
Mof_H 	H 	0.4818	0.2122	0.7021	0.063
Mof_C 	C 	0.4893	0.21899	0.8287	0.128
Mof_C 	C 	0.493	0.08625	0.6329	0.568
Mof_O 	O 	0.46882	0.05392	0.6472	-0.793
Mof_O 	O 	0.51773	0.09719	0.5806	-0.669
Mof_C 	C 	0.5206	0.14944	0.6881	0.197
Mof_H 	H 	0.5402	0.1559	0.6543	-0.02
Mof_C 	C 	0.4919	0.1147	0.6852	-0.277
Mof_C 	C 	0.4934	0.1649	0.7909	0.192
Mof_C 	C 	0.5213	0.17477	0.7389	-0.274
Mof_H 	H 	0.5405	0.1984	0.738	0.134
Mof_C 	C 	0.4627	0.1044	0.7324	0.167
Mof_H 	H 	0.443	0.0811	0.7292	-0.05
Mof_C 	C 	0.4953	0.1812	0.9347	0.132
Mof_C 	C 	0.4938	0.1899	0.8555	-0.151
Mof_C 	C 	0.4626	0.1303	0.7875	-0.246
Mof_H 	H 	0.4427	0.1242	0.8201	0.108
Mof_C 	C 	0.6531	0.1488	0.0391	-0.052
Mof_H 	H 	0.6353	0.1313	0.0722	0.044
Mof_C 	C 	0.742	0.2264	0.2534	-0.086
Mof_H 	H 	0.7304	0.2122	0.2979	0.064
Mof_C 	C 	0.72969	0.21899	0.1713	0.13
Mof_C 	C 	0.59325	0.08625	0.3671	0.569
Mof_O 	O 	0.5851	0.05392	0.3528	-0.791
Mof_O 	O 	0.57946	0.09719	0.4194	-0.668
Mof_C 	C 	0.62884	0.14944	0.3119	0.197
Mof_H 	H 	0.6157	0.1559	0.3457	-0.019
Mof_C 	C 	0.6228	0.1147	0.3148	-0.275
Mof_C 	C 	0.6715	0.1649	0.2091	0.191
Mof_C 	C 	0.65347	0.17477	0.2611	-0.272
Mof_H 	H 	0.6579	0.1984	0.262	0.135
Mof_C 	C 	0.6417	0.1044	0.2676	0.168
Mof_H 	H 	0.6381	0.0811	0.2708	-0.047
Mof_C 	C 	0.6859	0.1812	0.0653	0.129
Mof_C 	C 	0.6961	0.1899	0.1445	-0.145
Mof_C 	C 	0.6677	0.1303	0.2125	-0.243
Mof_H 	H 	0.6815	0.1242	0.1799	0.111
Mof_C 	C 	0.4957	0.3469	0.0391	-0.051
Mof_H 	H 	0.496	0.3647	0.0722	0.045
Mof_C 	C 	0.4844	0.258	0.2534	-0.086
Mof_H 	H 	0.4818	0.2696	0.2979	0.064
Mof_C 	C 	0.4893	0.27031	0.1713	0.13
Mof_C 	C 	0.493	0.40675	0.3671	0.567
Mof_O 	O 	0.46882	0.4149	0.3528	-0.785
Mof_O 	O 	0.51773	0.42054	0.4194	-0.668
Mof_C 	C 	0.5206	0.37116	0.3119	0.195
Mof_H 	H 	0.5402	0.3843	0.3457	-0.018
Mof_C 	C 	0.4919	0.3772	0.3148	-0.273
Mof_C 	C 	0.4934	0.3285	0.2091	0.19
Mof_C 	C 	0.5213	0.34653	0.2611	-0.27
Mof_H 	H 	0.5405	0.3421	0.262	0.134
Mof_C 	C 	0.4627	0.3583	0.2676	0.166
Mof_H 	H 	0.443	0.3619	0.2708	-0.044
Mof_C 	C 	0.4953	0.3141	0.0653	0.129
Mof_C 	C 	0.4938	0.3039	0.1445	-0.145
Mof_C 	C 	0.4626	0.3323	0.2125	-0.242
Mof_H 	H 	0.4427	0.3185	0.1799	0.112
Mof_C 	C 	0.8512	0.5043	0.0391	-0.051
Mof_H 	H 	0.8687	0.504	0.0722	0.047
Mof_C 	C 	0.7736	0.5156	0.2534	-0.086
Mof_H 	H 	0.7878	0.5182	0.2979	0.065
Mof_C 	C 	0.78101	0.5107	0.1713	0.131
Mof_C 	C 	0.91375	0.507	0.3671	0.566
Mof_O 	O 	0.94608	0.53118	0.3528	-0.776
Mof_O 	O 	0.90281	0.48227	0.4194	-0.667
Mof_C 	C 	0.85056	0.4794	0.3119	0.194
Mof_H 	H 	0.8441	0.4598	0.3457	-0.018
Mof_C 	C 	0.8853	0.5081	0.3148	-0.269
Mof_C 	C 	0.8351	0.5066	0.2091	0.189
Mof_C 	C 	0.82523	0.4787	0.2611	-0.269
Mof_H 	H 	0.8016	0.4595	0.262	0.134
Mof_C 	C 	0.8956	0.5373	0.2676	0.166
Mof_H 	H 	0.9189	0.557	0.2708	-0.038
Mof_C 	C 	0.8188	0.5047	0.0653	0.129
Mof_C 	C 	0.8101	0.5062	0.1445	-0.144
Mof_C 	C 	0.8697	0.5374	0.2125	-0.239
Mof_H 	H 	0.8758	0.5573	0.1799	0.115
Mof_C 	C 	0.3469	0.8512	0.0391	-0.051
Mof_H 	H 	0.3647	0.8687	0.0722	0.047
Mof_C 	C 	0.258	0.7736	0.2534	-0.086
Mof_H 	H 	0.2696	0.7878	0.2979	0.065
Mof_C 	C 	0.27031	0.78101	0.1713	0.13
Mof_C 	C 	0.40675	0.91375	0.3671	0.566
Mof_O 	O 	0.4149	0.94608	0.3528	-0.776
Mof_O 	O 	0.42054	0.90281	0.4194	-0.667
Mof_C 	C 	0.37116	0.85056	0.3119	0.194
Mof_H 	H 	0.3843	0.8441	0.3457	-0.018
Mof_C 	C 	0.3772	0.8853	0.3148	-0.269
Mof_C 	C 	0.3285	0.8351	0.2091	0.189
Mof_C 	C 	0.34653	0.82523	0.2611	-0.269
Mof_H 	H 	0.3421	0.8016	0.262	0.134
Mof_C 	C 	0.3583	0.8956	0.2676	0.165
Mof_H 	H 	0.3619	0.9189	0.2708	-0.039
Mof_C 	C 	0.3141	0.8188	0.0653	0.129
Mof_C 	C 	0.3039	0.8101	0.1445	-0.144
Mof_C 	C 	0.3323	0.8697	0.2125	-0.239
Mof_H 	H 	0.3185	0.8758	0.1799	0.114
Mof_C 	C 	0.5043	0.6531	0.0391	-0.051
Mof_H 	H 	0.504	0.6353	0.0722	0.046
Mof_C 	C 	0.5156	0.742	0.2534	-0.086
Mof_H 	H 	0.5182	0.7304	0.2979	0.065
Mof_C 	C 	0.5107	0.72969	0.1713	0.131
Mof_C 	C 	0.507	0.59325	0.3671	0.567
Mof_O 	O 	0.53118	0.5851	0.3528	-0.784
Mof_O 	O 	0.48227	0.57946	0.4194	-0.667
Mof_C 	C 	0.4794	0.62884	0.3119	0.196
Mof_H 	H 	0.4598	0.6157	0.3457	-0.018
Mof_C 	C 	0.5081	0.6228	0.3148	-0.272
Mof_C 	C 	0.5066	0.6715	0.2091	0.19
Mof_C 	C 	0.4787	0.65347	0.2611	-0.27
Mof_H 	H 	0.4595	0.6579	0.262	0.134
Mof_C 	C 	0.5373	0.6417	0.2676	0.167
Mof_H 	H 	0.557	0.6381	0.2708	-0.043
Mof_C 	C 	0.5047	0.6859	0.0653	0.129
Mof_C 	C 	0.5062	0.6961	0.1445	-0.144
Mof_C 	C 	0.5374	0.6677	0.2125	-0.241
Mof_H 	H 	0.5573	0.6815	0.1799	0.114
Mof_C 	C 	0.1488	0.4957	0.0391	-0.052
Mof_H 	H 	0.1313	0.496	0.0722	0.044
Mof_C 	C 	0.2264	0.4844	0.2534	-0.086
Mof_H 	H 	0.2122	0.4818	0.2979	0.064
Mof_C 	C 	0.21899	0.4893	0.1713	0.13
Mof_C 	C 	0.08625	0.493	0.3671	0.568
Mof_O 	O 	0.05392	0.46882	0.3528	-0.791
Mof_O 	O 	0.09719	0.51773	0.4194	-0.668
Mof_C 	C 	0.14944	0.5206	0.3119	0.197
Mof_H 	H 	0.1559	0.5402	0.3457	-0.019
Mof_C 	C 	0.1147	0.4919	0.3148	-0.276
Mof_C 	C 	0.1649	0.4934	0.2091	0.19
Mof_C 	C 	0.17477	0.5213	0.2611	-0.272
Mof_H 	H 	0.1984	0.5405	0.262	0.135
Mof_C 	C 	0.1044	0.4627	0.2676	0.167
Mof_H 	H 	0.0811	0.443	0.2708	-0.048
Mof_C 	C 	0.1812	0.4953	0.0653	0.128
Mof_C 	C 	0.1899	0.4938	0.1445	-0.145
Mof_C 	C 	0.1303	0.4626	0.2125	-0.244
Mof_H 	H 	0.1242	0.4427	0.1799	0.11
Mof_C 	C 	0.8512	0.3469	0.0391	-0.051
Mof_H 	H 	0.8687	0.3647	0.0722	0.047
Mof_C 	C 	0.7736	0.258	0.2534	-0.086
Mof_H 	H 	0.7878	0.2696	0.2979	0.065
Mof_C 	C 	0.78101	0.27031	0.1713	0.13
Mof_C 	C 	0.91375	0.40675	0.3671	0.566
Mof_O 	O 	0.94608	0.4149	0.3528	-0.776
Mof_O 	O 	0.90281	0.42054	0.4194	-0.667
Mof_C 	C 	0.85056	0.37116	0.3119	0.194
Mof_H 	H 	0.8441	0.3843	0.3457	-0.018
Mof_C 	C 	0.8853	0.3772	0.3148	-0.269
Mof_C 	C 	0.8351	0.3285	0.2091	0.189
Mof_C 	C 	0.82523	0.34653	0.2611	-0.269
Mof_H 	H 	0.8016	0.3421	0.262	0.134
Mof_C 	C 	0.8956	0.3583	0.2676	0.165
Mof_H 	H 	0.9189	0.3619	0.2708	-0.039
Mof_C 	C 	0.8188	0.3141	0.0653	0.129
Mof_C 	C 	0.8101	0.3039	0.1445	-0.144
Mof_C 	C 	0.8697	0.3323	0.2125	-0.239
Mof_H 	H 	0.8758	0.3185	0.1799	0.114
Mof_C 	C 	0.6531	0.5043	0.0391	-0.051
Mof_H 	H 	0.6353	0.504	0.0722	0.046
Mof_C 	C 	0.742	0.5156	0.2534	-0.086
Mof_H 	H 	0.7304	0.5182	0.2979	0.065
Mof_C 	C 	0.72969	0.5107	0.1713	0.131
Mof_C 	C 	0.59325	0.507	0.3671	0.567
Mof_O 	O 	0.5851	0.53118	0.3528	-0.784
Mof_O 	O 	0.57946	0.48227	0.4194	-0.667
Mof_C 	C 	0.62884	0.4794	0.3119	0.196
Mof_H 	H 	0.6157	0.4598	0.3457	-0.018
Mof_C 	C 	0.6228	0.5081	0.3148	-0.272
Mof_C 	C 	0.6715	0.5066	0.2091	0.19
Mof_C 	C 	0.65347	0.4787	0.2611	-0.27
Mof_H 	H 	0.6579	0.4595	0.262	0.134
Mof_C 	C 	0.6417	0.5373	0.2676	0.167
Mof_H 	H 	0.6381	0.557	0.2708	-0.043
Mof_C 	C 	0.6859	0.5047	0.0653	0.129
Mof_C 	C 	0.6961	0.5062	0.1445	-0.144
Mof_C 	C 	0.6677	0.5374	0.2125	-0.241
Mof_H 	H 	0.6815	0.5573	0.1799	0.114
Mof_C 	C 	0.4957	0.1488	0.0391	-0.052
Mof_H 	H 	0.496	0.1313	0.0722	0.044
Mof_C 	C 	0.4844	0.2264	0.2534	-0.086
Mof_H 	H 	0.4818	0.2122	0.2979	0.064
Mof_C 	C 	0.4893	0.21899	0.1713	0.13
Mof_C 	C 	0.493	0.08625	0.3671	0.568
Mof_O 	O 	0.46882	0.05392	0.3528	-0.791
Mof_O 	O 	0.51773	0.09719	0.4194	-0.668
Mof_C 	C 	0.5206	0.14944	0.3119	0.197
Mof_H 	H 	0.5402	0.1559	0.3457	-0.019
Mof_C 	C 	0.4919	0.1147	0.3148	-0.276
Mof_C 	C 	0.4934	0.1649	0.2091	0.19
Mof_C 	C 	0.5213	0.17477	0.2611	-0.272
Mof_H 	H 	0.5405	0.1984	0.262	0.135
Mof_C 	C 	0.4627	0.1044	0.2676	0.167
Mof_H 	H 	0.443	0.0811	0.2708	-0.048
Mof_C 	C 	0.4953	0.1812	0.0653	0.128
Mof_C 	C 	0.4938	0.1899	0.1445	-0.145
Mof_C 	C 	0.4626	0.1303	0.2125	-0.244
Mof_H 	H 	0.4427	0.1242	0.1799	0.11
Mof_C 	C 	0.1488	0.6531	0.0391	-0.052
Mof_H 	H 	0.1313	0.6353	0.0722	0.044
Mof_C 	C 	0.2264	0.742	0.2534	-0.086
Mof_H 	H 	0.2122	0.7304	0.2979	0.064
Mof_C 	C 	0.21899	0.72969	0.1713	0.13
Mof_C 	C 	0.08625	0.59325	0.3671	0.569
Mof_O 	O 	0.05392	0.5851	0.3528	-0.791
Mof_O 	O 	0.09719	0.57946	0.4194	-0.668
Mof_C 	C 	0.14944	0.62884	0.3119	0.197
Mof_H 	H 	0.1559	0.6157	0.3457	-0.019
Mof_C 	C 	0.1147	0.6228	0.3148	-0.275
Mof_C 	C 	0.1649	0.6715	0.2091	0.191
Mof_C 	C 	0.17477	0.65347	0.2611	-0.272
Mof_H 	H 	0.1984	0.6579	0.262	0.135
Mof_C 	C 	0.1044	0.6417	0.2676	0.168
Mof_H 	H 	0.0811	0.6381	0.2708	-0.047
Mof_C 	C 	0.1812	0.6859	0.0653	0.129
Mof_C 	C 	0.1899	0.6961	0.1445	-0.145
Mof_C 	C 	0.1303	0.6677	0.2125	-0.243
Mof_H 	H 	0.1242	0.6815	0.1799	0.111
Mof_C 	C 	0.3469	0.4957	0.0391	-0.051
Mof_H 	H 	0.3647	0.496	0.0722	0.045
Mof_C 	C 	0.258	0.4844	0.2534	-0.086
Mof_H 	H 	0.2696	0.4818	0.2979	0.064
Mof_C 	C 	0.27031	0.4893	0.1713	0.13
Mof_C 	C 	0.40675	0.493	0.3671	0.567
Mof_O 	O 	0.4149	0.46882	0.3528	-0.785
Mof_O 	O 	0.42054	0.51773	0.4194	-0.668
Mof_C 	C 	0.37116	0.5206	0.3119	0.195
Mof_H 	H 	0.3843	0.5402	0.3457	-0.018
Mof_C 	C 	0.3772	0.4919	0.3148	-0.273
Mof_C 	C 	0.3285	0.4934	0.2091	0.19
Mof_C 	C 	0.34653	0.5213	0.2611	-0.27
Mof_H 	H 	0.3421	0.5405	0.262	0.134
Mof_C 	C 	0.3583	0.4627	0.2676	0.166
Mof_H 	H 	0.3619	0.443	0.2708	-0.044
Mof_C 	C 	0.3141	0.4953	0.0653	0.129
Mof_C 	C 	0.3039	0.4938	0.1445	-0.145
Mof_C 	C 	0.3323	0.4626	0.2125	-0.242
Mof_H 	H 	0.3185	0.4427	0.1799	0.112
Mof_C 	C 	0.5043	0.8512	0.0391	-0.051
Mof_H 	H 	0.504	0.8687	0.0722	0.047
Mof_C 	C 	0.5156	0.7736	0.2534	-0.086
Mof_H 	H 	0.5182	0.7878	0.2979	0.065
Mof_C 	C 	0.5107	0.78101	0.1713	0.131
Mof_C 	C 	0.507	0.91375	0.3671	0.566
Mof_O 	O 	0.53118	0.94608	0.3528	-0.776
Mof_O 	O 	0.48227	0.90281	0.4194	-0.667
Mof_C 	C 	0.4794	0.85056	0.3119	0.194
Mof_H 	H 	0.4598	0.8441	0.3457	-0.018
Mof_C 	C 	0.5081	0.8853	0.3148	-0.269
Mof_C 	C 	0.5066	0.8351	0.2091	0.189
Mof_C 	C 	0.4787	0.82523	0.2611	-0.269
Mof_H 	H 	0.4595	0.8016	0.262	0.134
Mof_C 	C 	0.5373	0.8956	0.2676	0.166
Mof_H 	H 	0.557	0.9189	0.2708	-0.038
Mof_C 	C 	0.5047	0.8188	0.0653	0.129
Mof_C 	C 	0.5062	0.8101	0.1445	-0.144
Mof_C 	C 	0.5374	0.8697	0.2125	-0.239
Mof_H 	H 	0.5573	0.8758	0.1799	0.115
Mof_C 	C 	0.3469	0.8512	0.9609	-0.118
Mof_H 	H 	0.3647	0.8687	0.9278	0.064
Mof_C 	C 	0.258	0.7736	0.7466	-0.087
Mof_H 	H 	0.2696	0.7878	0.7021	0.064
Mof_C 	C 	0.27031	0.78101	0.8287	0.129
Mof_C 	C 	0.40675	0.91375	0.6329	0.566
Mof_O 	O 	0.4149	0.94608	0.6472	-0.778
Mof_O 	O 	0.42054	0.90281	0.5806	-0.667
Mof_C 	C 	0.37116	0.85056	0.6881	0.194
Mof_H 	H 	0.3843	0.8441	0.6543	-0.018
Mof_C 	C 	0.3772	0.8853	0.6852	-0.271
Mof_C 	C 	0.3285	0.8351	0.7909	0.19
Mof_C 	C 	0.34653	0.82523	0.7389	-0.271
Mof_H 	H 	0.3421	0.8016	0.738	0.133
Mof_C 	C 	0.3583	0.8956	0.7324	0.165
Mof_H 	H 	0.3619	0.9189	0.7292	-0.041
Mof_C 	C 	0.3141	0.8188	0.9347	0.133
Mof_C 	C 	0.3039	0.8101	0.8555	-0.15
Mof_C 	C 	0.3323	0.8697	0.7875	-0.241
Mof_H 	H 	0.3185	0.8758	0.8201	0.111
Mof_C 	C 	0.5043	0.6531	0.9609	-0.119
Mof_H 	H 	0.504	0.6353	0.9278	0.063
Mof_C 	C 	0.5156	0.742	0.7466	-0.086
Mof_H 	H 	0.5182	0.7304	0.7021	0.065
Mof_C 	C 	0.5107	0.72969	0.8287	0.129
Mof_C 	C 	0.507	0.59325	0.6329	0.567
Mof_O 	O 	0.53118	0.5851	0.6472	-0.785
Mof_O 	O 	0.48227	0.57946	0.5806	-0.668
Mof_C 	C 	0.4794	0.62884	0.6881	0.196
Mof_H 	H 	0.4598	0.6157	0.6543	-0.019
Mof_C 	C 	0.5081	0.6228	0.6852	-0.274
Mof_C 	C 	0.5066	0.6715	0.7909	0.192
Mof_C 	C 	0.4787	0.65347	0.7389	-0.272
Mof_H 	H 	0.4595	0.6579	0.738	0.134
Mof_C 	C 	0.5373	0.6417	0.7324	0.167
Mof_H 	H 	0.557	0.6381	0.7292	-0.045
Mof_C 	C 	0.5047	0.6859	0.9347	0.133
Mof_C 	C 	0.5062	0.6961	0.8555	-0.15
Mof_C 	C 	0.5374	0.6677	0.7875	-0.243
Mof_H 	H 	0.5573	0.6815	0.8201	0.111
Mof_C 	C 	0.1488	0.4957	0.9609	-0.119
Mof_H 	H 	0.1313	0.496	0.9278	0.061
Mof_C 	C 	0.2264	0.4844	0.7466	-0.087
Mof_H 	H 	0.2122	0.4818	0.7021	0.063
Mof_C 	C 	0.21899	0.4893	0.8287	0.128
Mof_C 	C 	0.08625	0.493	0.6329	0.568
Mof_O 	O 	0.05392	0.46882	0.6472	-0.793
Mof_O 	O 	0.09719	0.51773	0.5806	-0.669
Mof_C 	C 	0.14944	0.5206	0.6881	0.197
Mof_H 	H 	0.1559	0.5402	0.6543	-0.02
Mof_C 	C 	0.1147	0.4919	0.6852	-0.277
Mof_C 	C 	0.1649	0.4934	0.7909	0.192
Mof_C 	C 	0.17477	0.5213	0.7389	-0.274
Mof_H 	H 	0.1984	0.5405	0.738	0.134
Mof_C 	C 	0.1044	0.4627	0.7324	0.167
Mof_H 	H 	0.0811	0.443	0.7292	-0.05
Mof_C 	C 	0.1812	0.4953	0.9347	0.132
Mof_C 	C 	0.1899	0.4938	0.8555	-0.151
Mof_C 	C 	0.1303	0.4626	0.7875	-0.246
Mof_H 	H 	0.1242	0.4427	0.8201	0.108
Mof_C 	C 	0.6531	0.1488	0.9609	-0.119
Mof_H 	H 	0.6353	0.1313	0.9278	0.061
Mof_C 	C 	0.742	0.2264	0.7466	-0.087
Mof_H 	H 	0.7304	0.2122	0.7021	0.064
Mof_C 	C 	0.72969	0.21899	0.8287	0.129
Mof_C 	C 	0.59325	0.08625	0.6329	0.569
Mof_O 	O 	0.5851	0.05392	0.6472	-0.793
Mof_O 	O 	0.57946	0.09719	0.5806	-0.668
Mof_C 	C 	0.62884	0.14944	0.6881	0.197
Mof_H 	H 	0.6157	0.1559	0.6543	-0.02
Mof_C 	C 	0.6228	0.1147	0.6852	-0.277
Mof_C 	C 	0.6715	0.1649	0.7909	0.192
Mof_C 	C 	0.65347	0.17477	0.7389	-0.274
Mof_H 	H 	0.6579	0.1984	0.738	0.134
Mof_C 	C 	0.6417	0.1044	0.7324	0.167
Mof_H 	H 	0.6381	0.0811	0.7292	-0.049
Mof_C 	C 	0.6859	0.1812	0.9347	0.132
Mof_C 	C 	0.6961	0.1899	0.8555	-0.151
Mof_C 	C 	0.6677	0.1303	0.7875	-0.245
Mof_H 	H 	0.6815	0.1242	0.8201	0.109
Mof_C 	C 	0.4957	0.3469	0.9609	-0.119
Mof_H 	H 	0.496	0.3647	0.9278	0.063
Mof_C 	C 	0.4844	0.258	0.7466	-0.087
Mof_H 	H 	0.4818	0.2696	0.7021	0.064
Mof_C 	C 	0.4893	0.27031	0.8287	0.128
Mof_C 	C 	0.493	0.40675	0.6329	0.567
Mof_O 	O 	0.46882	0.4149	0.6472	-0.787
Mof_O 	O 	0.51773	0.42054	0.5806	-0.668
Mof_C 	C 	0.5206	0.37116	0.6881	0.196
Mof_H 	H 	0.5402	0.3843	0.6543	-0.019
Mof_C 	C 	0.4919	0.3772	0.6852	-0.274
Mof_C 	C 	0.4934	0.3285	0.7909	0.191
Mof_C 	C 	0.5213	0.34653	0.7389	-0.272
Mof_H 	H 	0.5405	0.3421	0.738	0.134
Mof_C 	C 	0.4627	0.3583	0.7324	0.166
Mof_H 	H 	0.443	0.3619	0.7292	-0.046
Mof_C 	C 	0.4953	0.3141	0.9347	0.132
Mof_C 	C 	0.4938	0.3039	0.8555	-0.15
Mof_C 	C 	0.4626	0.3323	0.7875	-0.244
Mof_H 	H 	0.4427	0.3185	0.8201	0.109
Mof_C 	C 	0.8512	0.5043	0.9609	-0.118
Mof_H 	H 	0.8687	0.504	0.9278	0.065
Mof_C 	C 	0.7736	0.5156	0.7466	-0.086
Mof_H 	H 	0.7878	0.5182	0.7021	0.065
Mof_C 	C 	0.78101	0.5107	0.8287	0.129
Mof_C 	C 	0.91375	0.507	0.6329	0.566
Mof_O 	O 	0.94608	0.53118	0.6472	-0.777
Mof_O 	O 	0.90281	0.48227	0.5806	-0.667
Mof_C 	C 	0.85056	0.4794	0.6881	0.194
Mof_H 	H 	0.8441	0.4598	0.6543	-0.018
Mof_C 	C 	0.8853	0.5081	0.6852	-0.27
Mof_C 	C 	0.8351	0.5066	0.7909	0.191
Mof_C 	C 	0.82523	0.4787	0.7389	-0.271
Mof_H 	H 	0.8016	0.4595	0.738	0.133
Mof_C 	C 	0.8956	0.5373	0.7324	0.165
Mof_H 	H 	0.9189	0.557	0.7292	-0.04
Mof_C 	C 	0.8188	0.5047	0.9347	0.133
Mof_C 	C 	0.8101	0.5062	0.8555	-0.15
Mof_C 	C 	0.8697	0.5374	0.7875	-0.241
Mof_H 	H 	0.8758	0.5573	0.8201	0.112
Mof_Cl	Cl	0.2774	0.7226	-0	-0.402
Mof_Fe	Fe	0.2476	0.7524	-0	0.877
Mof_Cl	Cl	0.2774	0.5548	-0	-0.402
Mof_Fe	Fe	0.2476	0.4952	-0	0.877
Mof_Cl	Cl	0.4452	0.7226	-0	-0.402
Mof_Fe	Fe	0.5048	0.7524	-0	0.877
Mof_Cl	Cl	0.7226	0.2774	-0	-0.402
Mof_Fe	Fe	0.7524	0.2476	-0	0.877
Mof_Cl	Cl	0.7226	0.4452	-0	-0.402
Mof_Fe	Fe	0.7524	0.5048	-0	0.877
Mof_Cl	Cl	0.5548	0.2774	-0	-0.402
Mof_Fe	Fe	0.4952	0.2476	-0	0.877
Mof_O 	O 	0.03176	0.47496	0.5	-1.359
Mof_O 	O 	0.52504	0.5568	0.5	-1.349
Mof_O 	O 	0.4432	0.96824	0.5	-1.337
Mof_O 	O 	0.96824	0.52504	0.5	-1.337
Mof_O 	O 	0.47496	0.4432	0.5	-1.349
Mof_O 	O 	0.5568	0.03176	0.5	-1.359
Mof_O 	O 	0.47496	0.03176	0.5	-1.359
Mof_O 	O 	0.5568	0.52504	0.5	-1.349
Mof_O 	O 	0.96824	0.4432	0.5	-1.337
Mof_O 	O 	0.52504	0.96824	0.5	-1.337
Mof_O 	O 	0.4432	0.47496	0.5	-1.349
Mof_O 	O 	0.03176	0.5568	0.5	-1.359
Mof_N 	N 	0.24655	0.75345	0.8788	-0.203
Mof_N 	N 	0.24655	0.4931	0.8788	-0.203
Mof_N 	N 	0.5069	0.75345	0.8788	-0.203
Mof_N 	N 	0.75345	0.24655	0.8788	-0.203
Mof_N 	N 	0.75345	0.5069	0.8788	-0.203
Mof_N 	N 	0.4931	0.24655	0.8788	-0.203
Mof_N 	N 	0.75345	0.24655	0.1212	-0.198
Mof_N 	N 	0.4931	0.24655	0.1212	-0.198
Mof_N 	N 	0.75345	0.5069	0.1212	-0.198
Mof_N 	N 	0.24655	0.75345	0.1212	-0.198
Mof_N 	N 	0.5069	0.75345	0.1212	-0.198
Mof_N 	N 	0.24655	0.4931	0.1212	-0.198
Mof_O 	O 	0.03303	0.51651	0.3932	-1.337
Mof_O 	O 	0.48349	0.51651	0.3932	-1.328
Mof_O 	O 	0.48349	0.96697	0.3932	-1.316
Mof_O 	O 	0.96697	0.48349	0.3932	-1.316
Mof_O 	O 	0.51651	0.48348	0.3932	-1.327
Mof_O 	O 	0.51651	0.03303	0.3932	-1.337
Mof_O 	O 	0.51651	0.03303	0.6068	-1.338
Mof_O 	O 	0.51651	0.48349	0.6068	-1.329
Mof_O 	O 	0.96697	0.48349	0.6068	-1.317
Mof_O 	O 	0.48349	0.96697	0.6068	-1.317
Mof_O 	O 	0.48349	0.51651	0.6068	-1.329
Mof_O 	O 	0.03303	0.51651	0.6068	-1.338
Mof_Zr	Zr	5.65372e-18	0.45878	0.60564	3.177
Mof_Zr	Zr	0.54122	0.54122	0.60564	3.181
Mof_Zr	Zr	0.45878	0	0.60564	3.177
Mof_Zr	Zr	4.02593e-17	0.54122	0.60564	3.177
Mof_Zr	Zr	0.45878	0.45878	0.60564	3.181
Mof_Zr	Zr	0.54122	0	0.60564	3.177
Mof_Zr	Zr	0.45878	-3.84199e-33	0.39436	3.178
Mof_Zr	Zr	0.54122	0.54122	0.39436	3.182
Mof_Zr	Zr	1.57537e-17	0.45878	0.39436	3.178
Mof_Zr	Zr	0.54122	-3.84199e-33	0.39436	3.178
Mof_Zr	Zr	0.45878	0.45878	0.39436	3.181
Mof_Zr	Zr	5.03592e-17	0.54122	0.39436	3.178
Mof_Zr	Zr	0.06648	0.53324	0.5	3.215
Mof_Zr	Zr	0.46676	0.53324	0.5	3.215
Mof_Zr	Zr	0.46676	0.93352	0.5	3.215
Mof_Zr	Zr	0.93352	0.46676	0.5	3.215
Mof_Zr	Zr	0.53324	0.46676	0.5	3.215
Mof_Zr	Zr	0.53324	0.06648	0.5	3.215
Mof_N 	N 	0.1997	0.7062	-0	-0.197
Mof_N 	N 	0.2938	0.4935	-0	-0.197
Mof_N 	N 	0.5065	0.8003	-0	-0.197
Mof_N 	N 	0.8003	0.2938	-0	-0.197
Mof_N 	N 	0.7062	0.5065	-0	-0.197
Mof_N 	N 	0.4935	0.1997	-0	-0.197
Mof_N 	N 	0.7062	0.1997	-0	-0.197
Mof_N 	N 	0.4935	0.2938	-0	-0.197
Mof_N 	N 	0.8003	0.5065	-0	-0.197
Mof_N 	N 	0.2938	0.8003	-0	-0.197
Mof_N 	N 	0.5065	0.7062	-0	-0.197
Mof_N 	N 	0.1997	0.4935	-0	-0.197
Mof_Cl	Cl	0.7852	0.5704	-0	-0.388
Mof_Cl	Cl	0.4296	0.2148	-0	-0.397
Mof_Cl	Cl	0.7852	0.2148	-0	-0.393
Mof_Cl	Cl	0.2148	0.4296	-0	-0.397
Mof_Cl	Cl	0.5704	0.7852	-0	-0.388
Mof_Cl	Cl	0.2148	0.7852	-0	-0.393
_end
