data_functionalizedCrystal
_audit_creation_method	'EQeq! by Chris Wilmer'
_symmetry_space_group_name_H-M	'P1'
_symmetry_Int_Tables_number	1
_symmetry_cell_setting	triclinic
loop_
_symmetry_equiv_pos_as_xyz
  x,y,z
_cell_length_a	6.812
_cell_length_b	16.7331
_cell_length_c	13.038
_cell_angle_alpha	90
_cell_angle_beta	90
_cell_angle_gamma	90
loop_
_atom_site_label
_atom_site_type_symbol
_atom_site_fract_x
_atom_site_fract_y
_atom_site_fract_z
_atom_site_charge
Mof_C 	C 	0.304	0.04	0.482	-0.001
Mof_O 	O 	0.65	0.166	0.343	-0.645
Mof_H 	H 	0.83962	0.42524	0.47713	0.014
Mof_C 	C 	0.804	0.54	0.982	-0.013
Mof_O 	O 	0.15	0.666	0.843	-0.643
Mof_H 	H 	0.33962	0.92524	0.97713	0.019
Mof_C 	C 	0.696	0.46	0.482	-0.002
Mof_O 	O 	0.35	0.334	0.343	-0.643
Mof_H 	H 	0.16038	0.07476	0.47713	0.022
Mof_C 	C 	0.196	0.96	0.982	-0.003
Mof_O 	O 	0.85	0.834	0.843	-0.652
Mof_H 	H 	0.66038	0.57476	0.97713	0.02
Mof_C 	C 	0.696	0.54	0.518	-0.002
Mof_O 	O 	0.35	0.666	0.657	-0.643
Mof_H 	H 	0.16038	0.92524	0.52287	0.022
Mof_C 	C 	0.196	0.04	0.018	-0.003
Mof_O 	O 	0.85	0.166	0.157	-0.652
Mof_H 	H 	0.66038	0.42524	0.02287	0.02
Mof_C 	C 	0.304	0.96	0.518	-0
Mof_O 	O 	0.65	0.834	0.657	-0.644
Mof_H 	H 	0.83962	0.57476	0.52287	0.015
Mof_C 	C 	0.804	0.46	0.018	-0.012
Mof_O 	O 	0.15	0.334	0.157	-0.643
Mof_H 	H 	0.33962	0.07476	0.02287	0.019
Mof_C 	C 	0.696	0.96	0.518	-0.002
Mof_O 	O 	0.35	0.834	0.657	-0.643
Mof_H 	H 	0.16038	0.57476	0.52287	0.022
Mof_C 	C 	0.196	0.46	0.018	-0.003
Mof_O 	O 	0.85	0.334	0.157	-0.652
Mof_H 	H 	0.66038	0.07476	0.02287	0.02
Mof_C 	C 	0.304	0.54	0.518	0
Mof_O 	O 	0.65	0.666	0.657	-0.644
Mof_H 	H 	0.83962	0.92524	0.52287	0.015
Mof_C 	C 	0.804	0.04	0.018	-0.012
Mof_O 	O 	0.15	0.166	0.157	-0.643
Mof_H 	H 	0.33962	0.42524	0.02287	0.019
Mof_C 	C 	0.304	0.46	0.482	0
Mof_O 	O 	0.65	0.334	0.343	-0.644
Mof_H 	H 	0.83962	0.07476	0.47713	0.015
Mof_C 	C 	0.804	0.96	0.982	-0.012
Mof_O 	O 	0.15	0.834	0.843	-0.643
Mof_H 	H 	0.33962	0.57476	0.97713	0.019
Mof_C 	C 	0.696	0.04	0.482	-0.002
Mof_O 	O 	0.35	0.166	0.343	-0.643
Mof_H 	H 	0.16038	0.42524	0.47713	0.022
Mof_C 	C 	0.196	0.54	0.982	-0.003
Mof_O 	O 	0.85	0.666	0.843	-0.652
Mof_H 	H 	0.66038	0.92524	0.97713	0.02
Mof_H 	H 	0.5	0.75	0.8907	0.297
Mof_H 	H 	1.12967e-32	0.25	0.3907	0.3
Mof_H 	H 	0.5	0.25	0.1093	0.297
Mof_H 	H 	-4.12045e-33	0.75	0.6093	0.3
Mof_Cr	Cr	0.25	0.75	0.75	2.677
Mof_Cr	Cr	0.75	0.75	0.75	2.662
Mof_Cr	Cr	0.75	0.25	0.25	2.662
Mof_Cr	Cr	0.25	0.25	0.25	2.677
Mof_C 	C 	0.5	0.054	0.461	-0.133
Mof_C 	C 	0.5	0.125	0.388	0.475
Mof_C 	C 	-2.70754e-32	0.554	0.961	-0.122
Mof_C 	C 	6.37252e-33	0.625	0.888	0.486
Mof_C 	C 	0.5	0.446	0.461	-0.133
Mof_C 	C 	0.5	0.375	0.388	0.475
Mof_C 	C 	-1.00895e-32	0.946	0.961	-0.122
Mof_C 	C 	2.33584e-32	0.875	0.888	0.486
Mof_C 	C 	0.5	0.554	0.539	-0.133
Mof_C 	C 	0.5	0.625	0.612	0.475
Mof_C 	C 	1.34149e-33	0.054	0.039	-0.122
Mof_C 	C 	2.92698e-33	0.125	0.112	0.486
Mof_C 	C 	0.5	0.946	0.539	-0.133
Mof_C 	C 	0.5	0.875	0.612	0.475
Mof_C 	C 	-2.90498e-33	0.446	0.039	-0.122
Mof_C 	C 	1.14199e-32	0.375	0.112	0.486
Mof_O 	O 	4.92291e-33	0.75	0.686	-1.147
Mof_O 	O 	0.5	0.25	0.186	-1.153
Mof_O 	O 	-1.99313e-33	0.25	0.314	-1.147
Mof_O 	O 	0.5	0.75	0.814	-1.153
_end
