data_functionalizedCrystal
_audit_creation_method	'EQeq! by Chris Wilmer'
_symmetry_space_group_name_H-M	'P1'
_symmetry_Int_Tables_number	1
_symmetry_cell_setting	triclinic
loop_
_symmetry_equiv_pos_as_xyz
  x,y,z
_cell_length_a	11.3184
_cell_length_b	11.0159
_cell_length_c	18.7519
_cell_angle_alpha	90
_cell_angle_beta	92.569
_cell_angle_gamma	90
loop_
_atom_site_label
_atom_site_type_symbol
_atom_site_fract_x
_atom_site_fract_y
_atom_site_fract_z
_atom_site_charge
Mof_Ga	Ga	0.25726	0.94938	0.29273	4.277
Mof_Ga	Ga	0.28187	0.9058	0.10824	3.671
Mof_Ga	Ga	0.24389	0.07338	0.79232	4.35
Mof_Ga	Ga	0.21404	0.1208	0.60747	3.784
Mof_P 	P 	0.03804	0.97096	0.1828	0.838
Mof_H 	H 	0.028	0.084	0.18	-0.168
Mof_P 	P 	0.3246	0.16643	0.1867	0.788
Mof_H 	H 	0.456	0.183	0.199	-0.13
Mof_P 	P 	0.19204	0.11854	0.43401	0.867
Mof_H 	H 	0.076	0.135	0.431	-0.235
Mof_P 	P 	0.26222	0.90919	0.93123	0.849
Mof_H 	H 	0.141	0.893	0.917	-0.14
Mof_P 	P 	0.46612	0.12111	0.69123	0.849
Mof_H 	H 	0.505	0.225	0.701	-0.19
Mof_P 	P 	0.1797	0.86079	0.68215	0.809
Mof_H 	H 	0.052	0.847	0.684	-0.165
Mof_O 	O 	0.3092	0.8664	0.20829	-1.967
Mof_H 	H 	0.309	0.7912	0.211	0.648
Mof_O 	O 	0.09	0.946	0.2579	-1.019
Mof_O 	O 	0.2741	0.1158	0.25434	-1.025
Mof_O 	O 	0.2121	0.0151	0.38341	-0.999
Mof_O 	O 	0.2674	0.2854	0.1633	-0.916
Mof_O 	O 	0.5728	0.045	0.6717	-0.889
Mof_O 	O 	0.114	0.9249	0.12306	-0.897
Mof_O 	O 	0.3167	0.0764	0.1258	-0.93
Mof_O 	O 	0.2782	0.9501	0.00837	-0.948
Mof_O 	O 	0.2534	0.2349	0.41408	-0.954
Mof_O 	O 	0.1822	0.1521	0.70516	-1.954
Mof_H 	H 	0.171	0.228	0.705	0.609
Mof_O 	O 	0.9156	0.9176	0.17037	-0.939
Mof_O 	O 	0.4073	0.0725	0.75665	-1.025
Mof_O 	O 	0.2336	0.7388	0.66554	-0.93
Mof_O 	O 	0.3062	0.0078	0.8825	-1.024
Mof_O 	O 	0.2153	0.9078	0.75597	-1.055
Mof_O 	O 	0.3828	0.1346	0.6253	-0.936
Mof_O 	O 	0.2296	0.0744	0.50895	-0.934
Mof_O 	O 	0.3233	0.7879	0.91906	-1.021
Mof_O 	O 	0.2098	0.9472	0.62288	-0.953
Mof_Ga	Ga	0.24274	0.44938	0.20727	4.299
Mof_Ga	Ga	0.21813	0.4058	0.39176	3.689
Mof_Ga	Ga	0.25611	0.57338	0.70768	4.355
Mof_Ga	Ga	0.28596	0.6208	0.89253	3.785
Mof_P 	P 	0.46196	0.47096	0.3172	0.852
Mof_H 	H 	0.472	0.584	0.32	-0.177
Mof_P 	P 	0.1754	0.66643	0.3133	0.788
Mof_H 	H 	0.044	0.683	0.301	-0.133
Mof_P 	P 	0.30796	0.61854	0.06599	0.866
Mof_H 	H 	0.424	0.635	0.069	-0.236
Mof_P 	P 	0.23778	0.40919	0.56877	0.839
Mof_H 	H 	0.359	0.393	0.583	-0.14
Mof_P 	P 	0.03388	0.62111	0.80877	0.846
Mof_H 	H 	0.995	0.725	0.799	-0.188
Mof_P 	P 	0.3203	0.36079	0.81785	0.809
Mof_H 	H 	0.448	0.347	0.816	-0.163
Mof_O 	O 	0.1908	0.3664	0.29171	-1.973
Mof_H 	H 	0.191	0.2912	0.289	0.65
Mof_O 	O 	0.41	0.446	0.2421	-1.02
Mof_O 	O 	0.2259	0.6158	0.24566	-1.032
Mof_O 	O 	0.2879	0.5151	0.11659	-1.006
Mof_O 	O 	0.2326	0.7854	0.3367	-0.915
Mof_O 	O 	0.9272	0.545	0.8283	-0.89
Mof_O 	O 	0.386	0.4249	0.37694	-0.898
Mof_O 	O 	0.1833	0.5764	0.3742	-0.941
Mof_O 	O 	0.2218	0.4501	0.49163	-0.942
Mof_O 	O 	0.2466	0.7349	0.08592	-0.953
Mof_O 	O 	0.3178	0.6521	0.79484	-1.955
Mof_H 	H 	0.329	0.728	0.795	0.609
Mof_O 	O 	0.5844	0.4176	0.32963	-0.943
Mof_O 	O 	0.0927	0.5725	0.74335	-1.025
Mof_O 	O 	0.2664	0.2388	0.83446	-0.93
Mof_O 	O 	0.1938	0.5078	0.6175	-1.02
Mof_O 	O 	0.2847	0.4078	0.74403	-1.058
Mof_O 	O 	0.1172	0.6346	0.8747	-0.936
Mof_O 	O 	0.2704	0.5744	0.99105	-0.935
Mof_O 	O 	0.1767	0.2879	0.58094	-1.021
Mof_O 	O 	0.2902	0.4472	0.87712	-0.954
Mof_Ga	Ga	0.74274	0.05062	0.70727	4.278
Mof_Ga	Ga	0.71813	0.0942	0.89176	3.672
Mof_Ga	Ga	0.75611	0.92662	0.20768	4.35
Mof_Ga	Ga	0.78596	0.8792	0.39253	3.784
Mof_P 	P 	0.96196	0.02904	0.8172	0.838
Mof_H 	H 	0.972	0.916	0.82	-0.168
Mof_P 	P 	0.6754	0.83357	0.8133	0.788
Mof_H 	H 	0.544	0.817	0.801	-0.13
Mof_P 	P 	0.80796	0.88146	0.56599	0.867
Mof_H 	H 	0.924	0.865	0.569	-0.235
Mof_P 	P 	0.73778	0.09081	0.06877	0.849
Mof_H 	H 	0.859	0.107	0.083	-0.14
Mof_P 	P 	0.53388	0.87889	0.30877	0.849
Mof_H 	H 	0.495	0.775	0.299	-0.19
Mof_P 	P 	0.8203	0.13921	0.31785	0.809
Mof_H 	H 	0.948	0.153	0.316	-0.165
Mof_O 	O 	0.6908	0.1336	0.79171	-1.967
Mof_H 	H 	0.691	0.2088	0.789	0.648
Mof_O 	O 	0.91	0.054	0.7421	-1.019
Mof_O 	O 	0.7259	0.8842	0.74566	-1.025
Mof_O 	O 	0.7879	0.9849	0.61659	-0.999
Mof_O 	O 	0.7326	0.7146	0.8367	-0.916
Mof_O 	O 	0.4272	0.955	0.3283	-0.889
Mof_O 	O 	0.886	0.0751	0.87694	-0.897
Mof_O 	O 	0.6833	0.9236	0.8742	-0.93
Mof_O 	O 	0.7218	0.0499	0.99163	-0.948
Mof_O 	O 	0.7466	0.7651	0.58592	-0.954
Mof_O 	O 	0.8178	0.8479	0.29484	-1.954
Mof_H 	H 	0.829	0.772	0.295	0.609
Mof_O 	O 	0.0844	0.0824	0.82963	-0.939
Mof_O 	O 	0.5927	0.9275	0.24335	-1.025
Mof_O 	O 	0.7664	0.2612	0.33446	-0.93
Mof_O 	O 	0.6938	0.9922	0.1175	-1.024
Mof_O 	O 	0.7847	0.0922	0.24403	-1.055
Mof_O 	O 	0.6172	0.8654	0.3747	-0.936
Mof_O 	O 	0.7704	0.9256	0.49105	-0.934
Mof_O 	O 	0.6767	0.2121	0.08094	-1.021
Mof_O 	O 	0.7902	0.0528	0.37712	-0.953
Mof_Ga	Ga	0.75726	0.55062	0.79273	4.299
Mof_Ga	Ga	0.78187	0.5942	0.60824	3.689
Mof_Ga	Ga	0.74389	0.42662	0.29232	4.355
Mof_Ga	Ga	0.71404	0.3792	0.10747	3.785
Mof_P 	P 	0.53804	0.52904	0.6828	0.852
Mof_H 	H 	0.528	0.416	0.68	-0.177
Mof_P 	P 	0.8246	0.33357	0.6867	0.788
Mof_H 	H 	0.956	0.317	0.699	-0.133
Mof_P 	P 	0.69204	0.38146	0.93401	0.866
Mof_H 	H 	0.576	0.365	0.931	-0.236
Mof_P 	P 	0.76222	0.59081	0.43123	0.839
Mof_H 	H 	0.641	0.607	0.417	-0.14
Mof_P 	P 	0.96612	0.37889	0.19123	0.846
Mof_H 	H 	0.005	0.275	0.201	-0.188
Mof_P 	P 	0.6797	0.63921	0.18215	0.809
Mof_H 	H 	0.552	0.653	0.184	-0.163
Mof_O 	O 	0.8092	0.6336	0.70829	-1.973
Mof_H 	H 	0.809	0.7088	0.711	0.65
Mof_O 	O 	0.59	0.554	0.7579	-1.02
Mof_O 	O 	0.7741	0.3842	0.75434	-1.032
Mof_O 	O 	0.7121	0.4849	0.88341	-1.006
Mof_O 	O 	0.7674	0.2146	0.6633	-0.915
Mof_O 	O 	0.0728	0.455	0.1717	-0.89
Mof_O 	O 	0.614	0.5751	0.62306	-0.898
Mof_O 	O 	0.8167	0.4236	0.6258	-0.941
Mof_O 	O 	0.7782	0.5499	0.50837	-0.942
Mof_O 	O 	0.7534	0.2651	0.91408	-0.953
Mof_O 	O 	0.6822	0.3479	0.20516	-1.955
Mof_H 	H 	0.671	0.272	0.205	0.609
Mof_O 	O 	0.4156	0.5824	0.67037	-0.943
Mof_O 	O 	0.9073	0.4275	0.25665	-1.025
Mof_O 	O 	0.7336	0.7612	0.16554	-0.93
Mof_O 	O 	0.8062	0.4922	0.3825	-1.02
Mof_O 	O 	0.7153	0.5922	0.25597	-1.058
Mof_O 	O 	0.8828	0.3654	0.1253	-0.936
Mof_O 	O 	0.7296	0.4256	0.00895	-0.935
Mof_O 	O 	0.8233	0.7121	0.41906	-1.021
Mof_O 	O 	0.7098	0.5528	0.12288	-0.954
_end
