data_functionalizedCrystal
_audit_creation_method	'EQeq! by Chris Wilmer'
_symmetry_space_group_name_H-M	'P1'
_symmetry_Int_Tables_number	1
_symmetry_cell_setting	triclinic
loop_
_symmetry_equiv_pos_as_xyz
  x,y,z
_cell_length_a	11.046
_cell_length_b	11.1046
_cell_length_c	11.1046
_cell_angle_alpha	106.766
_cell_angle_beta	117.981
_cell_angle_gamma	62.0189
loop_
_atom_site_label
_atom_site_type_symbol
_atom_site_fract_x
_atom_site_fract_y
_atom_site_fract_z
_atom_site_charge
Mof_Ni	Ni	0.55148	0.79697	0.65551	1.106
Mof_Ni	Ni	0.94852	0.65551	0.79697	1.106
Mof_Ni	Ni	0.05148	0.34449	0.20303	1.106
Mof_Ni	Ni	0.44852	0.20303	0.34449	1.106
Mof_H 	H 	0.5988	0.4008	0.4926	0.018
Mof_H 	H 	0.2809	0.967	0.4264	0.023
Mof_H 	H 	0.0988	0.5074	0.5992	0.02
Mof_H 	H 	0.0877	0.9453	0.2263	0.053
Mof_H 	H 	0.231	0.19	0.1046	0.426
Mof_H 	H 	0.769	0.81	0.8954	0.426
Mof_H 	H 	0.269	0.1046	0.19	0.427
Mof_H 	H 	0.7809	0.5736	0.033	0.026
Mof_H 	H 	0.4123	0.2263	0.9453	0.053
Mof_H 	H 	0.7191	0.033	0.5736	0.024
Mof_H 	H 	0.2191	0.4264	0.967	0.026
Mof_H 	H 	0.731	0.8954	0.81	0.427
Mof_H 	H 	0.9123	0.0547	0.7737	0.053
Mof_H 	H 	0.5877	0.7737	0.0547	0.053
Mof_H 	H 	0.4012	0.5992	0.5074	0.019
Mof_H 	H 	0.9012	0.4926	0.4008	0.02
Mof_C 	C 	0.23269	0.64257	0.32369	-0.096
Mof_C 	C 	0.84751	0.12789	0.71971	-0.073
Mof_C 	C 	0.34751	0.28029	0.87211	-0.071
Mof_C 	C 	0.01581	0.73601	0.09843	0.32
Mof_C 	C 	0.16043	0.44802	0.66818	0.064
Mof_C 	C 	0.73269	0.67631	0.35743	-0.095
Mof_C 	C 	0.7335	0.71247	0.49969	0.378
Mof_C 	C 	0.26709	0.88563	0.40237	0.058
Mof_C 	C 	0.63442	0.76156	0.25134	-0.003
Mof_C 	C 	0.2335	0.50031	0.28753	0.378
Mof_C 	C 	0.2665	0.28753	0.50031	0.378
Mof_C 	C 	0.13442	0.74866	0.23844	-0.001
Mof_C 	C 	0.7665	0.49969	0.71247	0.378
Mof_C 	C 	0.76709	0.59763	0.11437	0.057
Mof_C 	C 	0.73291	0.11437	0.59763	0.058
Mof_C 	C 	0.51581	0.90157	0.26399	0.326
Mof_C 	C 	0.86558	0.25134	0.76156	-0.001
Mof_C 	C 	0.26731	0.32369	0.64257	-0.095
Mof_C 	C 	0.15249	0.87211	0.28029	-0.073
Mof_C 	C 	0.83957	0.55198	0.33182	0.064
Mof_C 	C 	0.65249	0.71971	0.12789	-0.071
Mof_C 	C 	0.36558	0.23844	0.74866	-0.003
Mof_C 	C 	0.23291	0.40237	0.88563	0.057
Mof_C 	C 	0.48419	0.09843	0.73601	0.326
Mof_C 	C 	0.66043	0.33182	0.55198	0.065
Mof_C 	C 	0.33957	0.66818	0.44802	0.065
Mof_C 	C 	0.98419	0.26399	0.90157	0.32
Mof_C 	C 	0.76731	0.35743	0.67631	-0.096
Mof_N 	N 	0.35903	0.78583	0.48741	-0.214
Mof_N 	N 	0.64097	0.21417	0.51259	-0.214
Mof_N 	N 	0.85903	0.51259	0.21417	-0.213
Mof_N 	N 	0.14097	0.48741	0.78583	-0.213
Mof_O 	O 	0.0637	0.67353	0.00513	-0.399
Mof_O 	O 	0.11759	0.20418	0.91646	-0.303
Mof_O 	O 	0.35404	0.40921	0.35309	-0.436
Mof_O 	O 	0.3826	0.19768	0.48598	-0.4
Mof_O 	O 	0.61759	0.08354	0.79582	-0.31
Mof_O 	O 	0.14596	0.35309	0.40921	-0.436
Mof_O 	O 	0.9363	0.32647	0.99487	-0.399
Mof_O 	O 	0.4363	0.00513	0.67353	-0.398
Mof_O 	O 	0.38241	0.91646	0.20418	-0.31
Mof_O 	O 	0.25	0.18498	0.18498	-1.056
Mof_O 	O 	0.6174	0.80232	0.51402	-0.4
Mof_O 	O 	0.85404	0.64691	0.59079	-0.436
Mof_O 	O 	0.64596	0.59079	0.64691	-0.436
Mof_O 	O 	0.8826	0.51402	0.80232	-0.401
Mof_O 	O 	0.88241	0.79582	0.08354	-0.303
Mof_O 	O 	0.75	0.81502	0.81502	-1.056
Mof_O 	O 	0.1174	0.48598	0.19768	-0.401
Mof_O 	O 	0.5637	0.99487	0.32647	-0.398
_end
