data_functionalizedCrystal
_audit_creation_method	'EQeq! by Chris Wilmer'
_symmetry_space_group_name_H-M	'P1'
_symmetry_Int_Tables_number	1
_symmetry_cell_setting	triclinic
loop_
_symmetry_equiv_pos_as_xyz
  x,y,z
_cell_length_a	19.156
_cell_length_b	19.156
_cell_length_c	33.506
_cell_angle_alpha	73.3898
_cell_angle_beta	73.3898
_cell_angle_gamma	89.9999
loop_
_atom_site_label
_atom_site_type_symbol
_atom_site_fract_x
_atom_site_fract_y
_atom_site_fract_z
_atom_site_charge
Mof_Cu	Cu	0.00223	0.07093	0.49554	0.916
Mof_Cu	Cu	0.00223	0.43353	0.49554	0.916
Mof_Cu	Cu	0.57093	0.50223	0.99554	0.917
Mof_Cu	Cu	0.93353	0.50223	0.99554	0.917
Mof_Cu	Cu	0.99777	0.92907	0.50446	0.917
Mof_Cu	Cu	0.99777	0.56647	0.50446	0.917
Mof_Cu	Cu	0.06647	0.49777	0.00446	0.917
Mof_Cu	Cu	0.42907	0.49777	0.00446	0.917
Mof_Cu	Cu	0.39643	0.14643	0.70714	0.907
Mof_Cu	Cu	0.64643	0.89643	0.20714	0.907
Mof_Cu	Cu	0.60357	0.85357	0.29286	0.907
Mof_Cu	Cu	0.35357	0.10357	0.79286	0.907
Mof_H 	H 	0.8018	0.8548	0.6144	0.022
Mof_H 	H 	0.7033	0.8372	0.6762	0.079
Mof_H 	H 	0.708	0.053	0.6564	0.08
Mof_H 	H 	0.807	0.071	0.5952	0.021
Mof_H 	H 	0.5834	0.0217	0.6874	0.057
Mof_H 	H 	0.9686	0.2213	0.443	0.053
Mof_H 	H 	0.9057	0.1991	0.4874	0.052
Mof_H 	H 	0.0146	0.1662	0.552	0.054
Mof_H 	H 	0.0838	0.5308	0.6144	0.022
Mof_H 	H 	0.1205	0.4866	0.6762	0.079
Mof_H 	H 	0.1356	0.2906	0.6564	0.08
Mof_H 	H 	0.0978	0.3338	0.5952	0.021
Mof_H 	H 	0.2292	0.2909	0.6874	0.057
Mof_H 	H 	0.0884	0.3357	0.443	0.053
Mof_H 	H 	0.1069	0.3135	0.4874	0.053
Mof_H 	H 	0.9334	0.2818	0.552	0.056
Mof_H 	H 	0.3548	0.5838	0.1144	0.022
Mof_H 	H 	0.3372	0.6205	0.1762	0.079
Mof_H 	H 	0.553	0.6356	0.1564	0.08
Mof_H 	H 	0.571	0.5978	0.0952	0.021
Mof_H 	H 	0.5217	0.7292	0.1874	0.057
Mof_H 	H 	0.7213	0.5884	0.943	0.053
Mof_H 	H 	0.6991	0.6069	0.9874	0.053
Mof_H 	H 	0.6662	0.4334	0.052	0.056
Mof_H 	H 	0.0308	0.3018	0.1144	0.02
Mof_H 	H 	0.9866	0.2033	0.1762	0.08
Mof_H 	H 	0.7906	0.208	0.1564	0.081
Mof_H 	H 	0.8338	0.307	0.0952	0.021
Mof_H 	H 	0.7909	0.0834	0.1874	0.057
Mof_H 	H 	0.8357	0.4686	0.943	0.053
Mof_H 	H 	0.8135	0.4057	0.9874	0.053
Mof_H 	H 	0.7818	0.5146	0.052	0.056
Mof_H 	H 	0.9162	0.1452	0.3856	0.022
Mof_H 	H 	0.8795	0.1628	0.3238	0.08
Mof_H 	H 	0.8644	0.947	0.3436	0.081
Mof_H 	H 	0.9022	0.929	0.4048	0.021
Mof_H 	H 	0.7708	0.9783	0.3126	0.055
Mof_H 	H 	0.9116	0.7787	0.557	0.053
Mof_H 	H 	0.8931	0.8009	0.5126	0.052
Mof_H 	H 	0.0666	0.8338	0.448	0.055
Mof_H 	H 	0.1982	0.4692	0.3856	0.022
Mof_H 	H 	0.2967	0.5134	0.3238	0.079
Mof_H 	H 	0.292	0.7094	0.3436	0.08
Mof_H 	H 	0.193	0.6662	0.4048	0.021
Mof_H 	H 	0.4166	0.7091	0.3126	0.057
Mof_H 	H 	0.0314	0.6643	0.557	0.053
Mof_H 	H 	0.0943	0.6865	0.5126	0.053
Mof_H 	H 	0.9854	0.7182	0.448	0.055
Mof_H 	H 	0.9692	0.4162	0.8856	0.022
Mof_H 	H 	0.0134	0.3795	0.8238	0.079
Mof_H 	H 	0.2094	0.3644	0.8436	0.08
Mof_H 	H 	0.1662	0.4022	0.9048	0.021
Mof_H 	H 	0.2091	0.2708	0.8126	0.057
Mof_H 	H 	0.1643	0.4116	0.057	0.053
Mof_H 	H 	0.1865	0.3931	0.0126	0.053
Mof_H 	H 	0.2182	0.5666	0.948	0.056
Mof_H 	H 	0.6452	0.6982	0.8856	0.022
Mof_H 	H 	0.6628	0.7967	0.8238	0.079
Mof_H 	H 	0.447	0.792	0.8436	0.08
Mof_H 	H 	0.429	0.693	0.9048	0.021
Mof_H 	H 	0.4783	0.9166	0.8126	0.057
Mof_H 	H 	0.2787	0.5314	0.057	0.053
Mof_H 	H 	0.3009	0.5943	0.0126	0.053
Mof_H 	H 	0.3338	0.4854	0.948	0.056
Mof_H 	H 	0.1982	0.1452	0.3856	0.022
Mof_H 	H 	0.2967	0.1628	0.3238	0.079
Mof_H 	H 	0.292	0.947	0.3436	0.08
Mof_H 	H 	0.193	0.929	0.4048	0.021
Mof_H 	H 	0.4166	0.9783	0.3126	0.057
Mof_H 	H 	0.0314	0.7787	0.557	0.053
Mof_H 	H 	0.0943	0.8009	0.5126	0.052
Mof_H 	H 	0.9854	0.8338	0.448	0.054
Mof_H 	H 	0.9162	0.4692	0.3856	0.022
Mof_H 	H 	0.8795	0.5134	0.3238	0.079
Mof_H 	H 	0.8644	0.7094	0.3436	0.08
Mof_H 	H 	0.9022	0.6662	0.4048	0.021
Mof_H 	H 	0.7708	0.7091	0.3126	0.057
Mof_H 	H 	0.9116	0.6643	0.557	0.053
Mof_H 	H 	0.8931	0.6865	0.5126	0.053
Mof_H 	H 	0.0666	0.7182	0.448	0.056
Mof_H 	H 	0.6452	0.4162	0.8856	0.022
Mof_H 	H 	0.6628	0.3795	0.8238	0.079
Mof_H 	H 	0.447	0.3644	0.8436	0.08
Mof_H 	H 	0.429	0.4022	0.9048	0.021
Mof_H 	H 	0.4783	0.2708	0.8126	0.057
Mof_H 	H 	0.2787	0.4116	0.057	0.053
Mof_H 	H 	0.3009	0.3931	0.0126	0.053
Mof_H 	H 	0.3338	0.5666	0.948	0.056
Mof_H 	H 	0.9692	0.6982	0.8856	0.02
Mof_H 	H 	0.0134	0.7967	0.8238	0.08
Mof_H 	H 	0.2094	0.792	0.8436	0.081
Mof_H 	H 	0.1662	0.693	0.9048	0.021
Mof_H 	H 	0.2091	0.9166	0.8126	0.057
Mof_H 	H 	0.1643	0.5314	0.057	0.053
Mof_H 	H 	0.1865	0.5943	0.0126	0.053
Mof_H 	H 	0.2182	0.4854	0.948	0.056
Mof_H 	H 	0.0838	0.8548	0.6144	0.022
Mof_H 	H 	0.1205	0.8372	0.6762	0.08
Mof_H 	H 	0.1356	0.053	0.6564	0.081
Mof_H 	H 	0.0978	0.071	0.5952	0.021
Mof_H 	H 	0.2292	0.0217	0.6874	0.055
Mof_H 	H 	0.0884	0.2213	0.443	0.053
Mof_H 	H 	0.1069	0.1991	0.4874	0.052
Mof_H 	H 	0.9334	0.1662	0.552	0.055
Mof_H 	H 	0.8018	0.5308	0.6144	0.022
Mof_H 	H 	0.7033	0.4866	0.6762	0.079
Mof_H 	H 	0.708	0.2906	0.6564	0.08
Mof_H 	H 	0.807	0.3338	0.5952	0.021
Mof_H 	H 	0.5834	0.2909	0.6874	0.057
Mof_H 	H 	0.9686	0.3357	0.443	0.053
Mof_H 	H 	0.9057	0.3135	0.4874	0.053
Mof_H 	H 	0.0146	0.2818	0.552	0.055
Mof_H 	H 	0.0308	0.5838	0.1144	0.022
Mof_H 	H 	0.9866	0.6205	0.1762	0.079
Mof_H 	H 	0.7906	0.6356	0.1564	0.08
Mof_H 	H 	0.8338	0.5978	0.0952	0.021
Mof_H 	H 	0.7909	0.7292	0.1874	0.057
Mof_H 	H 	0.8357	0.5884	0.943	0.053
Mof_H 	H 	0.8135	0.6069	0.9874	0.053
Mof_H 	H 	0.7818	0.4334	0.052	0.056
Mof_H 	H 	0.3548	0.3018	0.1144	0.022
Mof_H 	H 	0.3372	0.2033	0.1762	0.079
Mof_H 	H 	0.553	0.208	0.1564	0.08
Mof_H 	H 	0.571	0.307	0.0952	0.021
Mof_H 	H 	0.5217	0.0834	0.1874	0.057
Mof_H 	H 	0.7213	0.4686	0.943	0.053
Mof_H 	H 	0.6991	0.4057	0.9874	0.053
Mof_H 	H 	0.6662	0.5146	0.052	0.056
Mof_H 	H 	0.6589	0.8411	0.75	0.054
Mof_H 	H 	0.0911	0.4089	0.75	0.054
Mof_H 	H 	0.3411	0.5911	0.25	0.054
Mof_H 	H 	0.9089	0.1589	0.25	0.054
Mof_H 	H 	0.3411	0.1589	0.25	0.054
Mof_H 	H 	0.9089	0.5911	0.25	0.054
Mof_H 	H 	0.6589	0.4089	0.75	0.054
Mof_H 	H 	0.0911	0.8411	0.75	0.054
Mof_C 	C 	0.8805	0.97637	0.55984	0.377
Mof_C 	C 	0.81474	0.96467	0.59856	-0.134
Mof_C 	C 	0.78316	0.8949	0.6229	0.064
Mof_C 	C 	0.72388	0.88437	0.65988	-0.136
Mof_C 	C 	0.69494	0.94335	0.67284	0.076
Mof_C 	C 	0.72685	0.0128	0.64812	-0.136
Mof_C 	C 	0.78622	0.02383	0.61136	0.066
Mof_C 	C 	0.63217	0.93375	0.7124	-0.003
Mof_C 	C 	0.58	0.98362	0.71258	-0.033
Mof_C 	C 	0.95471	0.2232	0.47278	-0.056
Mof_C 	C 	0.05966	0.46379	0.55984	0.379
Mof_C 	C 	0.0867	0.43677	0.59856	-0.133
Mof_C 	C 	0.09394	0.4822	0.6229	0.065
Mof_C 	C 	0.11624	0.45575	0.65988	-0.136
Mof_C 	C 	0.13222	0.38381	0.67284	0.077
Mof_C 	C 	0.12503	0.33908	0.64812	-0.137
Mof_C 	C 	0.10242	0.36481	0.61136	0.065
Mof_C 	C 	0.15543	0.35385	0.7124	-0.003
Mof_C 	C 	0.20742	0.3038	0.71258	-0.033
Mof_C 	C 	0.07251	0.30402	0.47278	-0.057
Mof_C 	C 	0.47637	0.55966	0.05984	0.379
Mof_C 	C 	0.46467	0.5867	0.09856	-0.133
Mof_C 	C 	0.3949	0.59394	0.1229	0.065
Mof_C 	C 	0.38437	0.61624	0.15988	-0.136
Mof_C 	C 	0.44335	0.63222	0.17284	0.077
Mof_C 	C 	0.5128	0.62503	0.14812	-0.137
Mof_C 	C 	0.52383	0.60242	0.11136	0.065
Mof_C 	C 	0.43375	0.65543	0.2124	-0.003
Mof_C 	C 	0.48362	0.70742	0.21258	-0.033
Mof_C 	C 	0.7232	0.57251	0.97278	-0.057
Mof_C 	C 	0.96379	0.3805	0.05984	0.38
Mof_C 	C 	0.93677	0.31474	0.09856	-0.135
Mof_C 	C 	0.9822	0.28316	0.1229	0.068
Mof_C 	C 	0.95575	0.22388	0.15988	-0.138
Mof_C 	C 	0.88381	0.19494	0.17284	0.078
Mof_C 	C 	0.83908	0.22685	0.14812	-0.138
Mof_C 	C 	0.86481	0.28622	0.11136	0.067
Mof_C 	C 	0.85385	0.13217	0.2124	-0.004
Mof_C 	C 	0.8038	0.08	0.21258	-0.032
Mof_C 	C 	0.80402	0.45471	0.97278	-0.057
Mof_C 	C 	0.94034	0.02363	0.44016	0.38
Mof_C 	C 	0.9133	0.03533	0.40144	-0.133
Mof_C 	C 	0.90606	0.1051	0.3771	0.065
Mof_C 	C 	0.88376	0.11563	0.34012	-0.137
Mof_C 	C 	0.86778	0.05665	0.32716	0.079
Mof_C 	C 	0.87497	0.9872	0.35188	-0.139
Mof_C 	C 	0.89758	0.97617	0.38864	0.065
Mof_C 	C 	0.84457	0.06625	0.2876	-0.005
Mof_C 	C 	0.79258	0.01638	0.28742	-0.03
Mof_C 	C 	0.92749	0.7768	0.52722	-0.057
Mof_C 	C 	0.1195	0.53621	0.44016	0.379
Mof_C 	C 	0.18526	0.56323	0.40144	-0.133
Mof_C 	C 	0.21684	0.5178	0.3771	0.065
Mof_C 	C 	0.27612	0.54425	0.34012	-0.136
Mof_C 	C 	0.30506	0.61619	0.32716	0.077
Mof_C 	C 	0.27315	0.66092	0.35188	-0.137
Mof_C 	C 	0.21378	0.63519	0.38864	0.065
Mof_C 	C 	0.36783	0.64615	0.2876	-0.003
Mof_C 	C 	0.42	0.6962	0.28742	-0.033
Mof_C 	C 	0.04529	0.69598	0.52722	-0.057
Mof_C 	C 	0.03621	0.44034	0.94016	0.379
Mof_C 	C 	0.06323	0.4133	0.90144	-0.133
Mof_C 	C 	0.0178	0.40606	0.8771	0.064
Mof_C 	C 	0.04425	0.38376	0.84012	-0.136
Mof_C 	C 	0.11619	0.36778	0.82716	0.077
Mof_C 	C 	0.16092	0.37497	0.85188	-0.137
Mof_C 	C 	0.13519	0.39758	0.88864	0.065
Mof_C 	C 	0.14615	0.34457	0.7876	-0.003
Mof_C 	C 	0.1962	0.29258	0.78742	-0.033
Mof_C 	C 	0.19598	0.42749	0.02722	-0.057
Mof_C 	C 	0.52363	0.6195	0.94016	0.379
Mof_C 	C 	0.53533	0.68526	0.90144	-0.133
Mof_C 	C 	0.6051	0.71684	0.8771	0.064
Mof_C 	C 	0.61563	0.77612	0.84012	-0.136
Mof_C 	C 	0.55665	0.80506	0.82716	0.077
Mof_C 	C 	0.4872	0.77315	0.85188	-0.136
Mof_C 	C 	0.47617	0.71378	0.88864	0.065
Mof_C 	C 	0.56625	0.86783	0.7876	-0.003
Mof_C 	C 	0.51638	0.92	0.78742	-0.033
Mof_C 	C 	0.2768	0.54529	0.02722	-0.057
Mof_C 	C 	0.1195	0.02363	0.44016	0.377
Mof_C 	C 	0.18526	0.03533	0.40144	-0.134
Mof_C 	C 	0.21684	0.1051	0.3771	0.064
Mof_C 	C 	0.27612	0.11563	0.34012	-0.136
Mof_C 	C 	0.30506	0.05665	0.32716	0.076
Mof_C 	C 	0.27315	0.9872	0.35188	-0.136
Mof_C 	C 	0.21378	0.97617	0.38864	0.066
Mof_C 	C 	0.36783	0.06625	0.2876	-0.003
Mof_C 	C 	0.42	0.01638	0.28742	-0.033
Mof_C 	C 	0.04529	0.7768	0.52722	-0.056
Mof_C 	C 	0.94034	0.53621	0.44016	0.379
Mof_C 	C 	0.9133	0.56323	0.40144	-0.133
Mof_C 	C 	0.90606	0.5178	0.3771	0.065
Mof_C 	C 	0.88376	0.54425	0.34012	-0.136
Mof_C 	C 	0.86778	0.61619	0.32716	0.077
Mof_C 	C 	0.87497	0.66092	0.35188	-0.137
Mof_C 	C 	0.89758	0.63519	0.38864	0.065
Mof_C 	C 	0.84457	0.64615	0.2876	-0.003
Mof_C 	C 	0.79258	0.6962	0.28742	-0.033
Mof_C 	C 	0.92749	0.69598	0.52722	-0.057
Mof_C 	C 	0.52363	0.44034	0.94016	0.379
Mof_C 	C 	0.53533	0.4133	0.90144	-0.133
Mof_C 	C 	0.6051	0.40606	0.8771	0.065
Mof_C 	C 	0.61563	0.38376	0.84012	-0.136
Mof_C 	C 	0.55665	0.36778	0.82716	0.077
Mof_C 	C 	0.4872	0.37497	0.85188	-0.137
Mof_C 	C 	0.47617	0.39758	0.88864	0.065
Mof_C 	C 	0.56625	0.34457	0.7876	-0.003
Mof_C 	C 	0.51638	0.29258	0.78742	-0.033
Mof_C 	C 	0.2768	0.42749	0.02722	-0.057
Mof_C 	C 	0.03621	0.6195	0.94016	0.38
Mof_C 	C 	0.06323	0.68526	0.90144	-0.135
Mof_C 	C 	0.0178	0.71684	0.8771	0.068
Mof_C 	C 	0.04425	0.77612	0.84012	-0.138
Mof_C 	C 	0.11619	0.80506	0.82716	0.078
Mof_C 	C 	0.16092	0.77315	0.85188	-0.138
Mof_C 	C 	0.13519	0.71378	0.88864	0.067
Mof_C 	C 	0.14615	0.86783	0.7876	-0.004
Mof_C 	C 	0.1962	0.92	0.78742	-0.032
Mof_C 	C 	0.19598	0.54529	0.02722	-0.057
Mof_C 	C 	0.05966	0.97637	0.55984	0.38
Mof_C 	C 	0.0867	0.96467	0.59856	-0.133
Mof_C 	C 	0.09394	0.8949	0.6229	0.065
Mof_C 	C 	0.11624	0.88437	0.65988	-0.137
Mof_C 	C 	0.13222	0.94335	0.67284	0.079
Mof_C 	C 	0.12503	0.0128	0.64812	-0.139
Mof_C 	C 	0.10242	0.02383	0.61136	0.065
Mof_C 	C 	0.15543	0.93375	0.7124	-0.005
Mof_C 	C 	0.20742	0.98362	0.71258	-0.03
Mof_C 	C 	0.07251	0.2232	0.47278	-0.057
Mof_C 	C 	0.8805	0.46379	0.55984	0.379
Mof_C 	C 	0.81474	0.43677	0.59856	-0.133
Mof_C 	C 	0.78316	0.4822	0.6229	0.065
Mof_C 	C 	0.72388	0.45575	0.65988	-0.136
Mof_C 	C 	0.69494	0.38381	0.67284	0.077
Mof_C 	C 	0.72685	0.33908	0.64812	-0.137
Mof_C 	C 	0.78622	0.36481	0.61136	0.065
Mof_C 	C 	0.63217	0.35385	0.7124	-0.003
Mof_C 	C 	0.58	0.3038	0.71258	-0.033
Mof_C 	C 	0.95471	0.30402	0.47278	-0.057
Mof_C 	C 	0.96379	0.55966	0.05984	0.379
Mof_C 	C 	0.93677	0.5867	0.09856	-0.133
Mof_C 	C 	0.9822	0.59394	0.1229	0.064
Mof_C 	C 	0.95575	0.61624	0.15988	-0.136
Mof_C 	C 	0.88381	0.63222	0.17284	0.077
Mof_C 	C 	0.83908	0.62503	0.14812	-0.137
Mof_C 	C 	0.86481	0.60242	0.11136	0.065
Mof_C 	C 	0.85385	0.65543	0.2124	-0.003
Mof_C 	C 	0.8038	0.70742	0.21258	-0.033
Mof_C 	C 	0.80402	0.57251	0.97278	-0.057
Mof_C 	C 	0.47637	0.3805	0.05984	0.379
Mof_C 	C 	0.46467	0.31474	0.09856	-0.133
Mof_C 	C 	0.3949	0.28316	0.1229	0.064
Mof_C 	C 	0.38437	0.22388	0.15988	-0.136
Mof_C 	C 	0.44335	0.19494	0.17284	0.077
Mof_C 	C 	0.5128	0.22685	0.14812	-0.136
Mof_C 	C 	0.52383	0.28622	0.11136	0.065
Mof_C 	C 	0.43375	0.13217	0.2124	-0.003
Mof_C 	C 	0.48362	0.08	0.21258	-0.033
Mof_C 	C 	0.7232	0.45471	0.97278	-0.057
Mof_C 	C 	0.98164	0.19064	0.53672	-0.061
Mof_C 	C 	0.98164	0.27264	0.53672	-0.063
Mof_C 	C 	0.69064	0.48164	0.03672	-0.064
Mof_C 	C 	0.77264	0.48164	0.03672	-0.064
Mof_C 	C 	0.01836	0.80936	0.46328	-0.061
Mof_C 	C 	0.01836	0.72736	0.46328	-0.063
Mof_C 	C 	0.22736	0.51836	0.96328	-0.064
Mof_C 	C 	0.30936	0.51836	0.96328	-0.064
Mof_C 	C 	0.62461	0.87539	0.75	-0.066
Mof_C 	C 	0.52271	0.97729	0.75	-0.059
Mof_C 	C 	0.46747	0.03253	0.75	0.349
Mof_C 	C 	0.12539	0.37461	0.75	-0.066
Mof_C 	C 	0.22729	0.27271	0.75	-0.059
Mof_C 	C 	0.28253	0.21747	0.75	0.349
Mof_C 	C 	0.37539	0.62539	0.25	-0.065
Mof_C 	C 	0.47729	0.72729	0.25	-0.059
Mof_C 	C 	0.53253	0.78253	0.25	0.349
Mof_C 	C 	0.87461	0.12461	0.25	-0.064
Mof_C 	C 	0.77271	0.02271	0.25	-0.06
Mof_C 	C 	0.71747	0.96747	0.25	0.349
Mof_C 	C 	0.37539	0.12461	0.25	-0.066
Mof_C 	C 	0.47729	0.02271	0.25	-0.059
Mof_C 	C 	0.53253	0.96747	0.25	0.349
Mof_C 	C 	0.87461	0.62539	0.25	-0.066
Mof_C 	C 	0.77271	0.72729	0.25	-0.059
Mof_C 	C 	0.71747	0.78253	0.25	0.349
Mof_C 	C 	0.62461	0.37461	0.75	-0.065
Mof_C 	C 	0.52271	0.27271	0.75	-0.059
Mof_C 	C 	0.46747	0.21747	0.75	0.349
Mof_C 	C 	0.12539	0.87539	0.75	-0.064
Mof_C 	C 	0.22729	0.97729	0.75	-0.06
Mof_C 	C 	0.28253	0.03253	0.75	0.349
Mof_N 	N 	0.00306	0.18586	0.49388	-0.138
Mof_N 	N 	0.00306	0.32026	0.49388	-0.138
Mof_N 	N 	0.68586	0.50306	0.99388	-0.137
Mof_N 	N 	0.82026	0.50306	0.99388	-0.137
Mof_N 	N 	0.99694	0.81414	0.50612	-0.138
Mof_N 	N 	0.99694	0.67974	0.50612	-0.138
Mof_N 	N 	0.17974	0.49694	0.00612	-0.137
Mof_N 	N 	0.31414	0.49694	0.00612	-0.137
Mof_O 	O 	0.90814	0.04087	0.54096	-0.414
Mof_O 	O 	0.90446	0.92106	0.54958	-0.409
Mof_O 	O 	0.46505	0.0721	0.71346	-0.407
Mof_O 	O 	0.0509	0.41817	0.54096	-0.415
Mof_O 	O 	0.04596	0.52936	0.54958	-0.409
Mof_O 	O 	0.32149	0.21444	0.71346	-0.407
Mof_O 	O 	0.54087	0.5509	0.04096	-0.415
Mof_O 	O 	0.42106	0.54596	0.04958	-0.409
Mof_O 	O 	0.5721	0.82149	0.21346	-0.407
Mof_O 	O 	0.91817	0.40814	0.04096	-0.416
Mof_O 	O 	0.02936	0.40446	0.04958	-0.41
Mof_O 	O 	0.71444	0.96505	0.21346	-0.407
Mof_O 	O 	0.9491	0.95913	0.45904	-0.417
Mof_O 	O 	0.95404	0.07894	0.45042	-0.409
Mof_O 	O 	0.67851	0.9279	0.28654	-0.407
Mof_O 	O 	0.09186	0.58183	0.45904	-0.415
Mof_O 	O 	0.09554	0.47064	0.45042	-0.409
Mof_O 	O 	0.53495	0.78556	0.28654	-0.407
Mof_O 	O 	0.08183	0.4491	0.95904	-0.415
Mof_O 	O 	0.97064	0.45404	0.95042	-0.409
Mof_O 	O 	0.28556	0.17851	0.78654	-0.407
Mof_O 	O 	0.45913	0.59186	0.95904	-0.415
Mof_O 	O 	0.57894	0.59554	0.95042	-0.409
Mof_O 	O 	0.4279	0.03495	0.78654	-0.407
Mof_O 	O 	0.09186	0.95913	0.45904	-0.414
Mof_O 	O 	0.09554	0.07894	0.45042	-0.409
Mof_O 	O 	0.53495	0.9279	0.28654	-0.407
Mof_O 	O 	0.9491	0.58183	0.45904	-0.415
Mof_O 	O 	0.95404	0.47064	0.45042	-0.409
Mof_O 	O 	0.67851	0.78556	0.28654	-0.407
Mof_O 	O 	0.45913	0.4491	0.95904	-0.415
Mof_O 	O 	0.57894	0.45404	0.95042	-0.409
Mof_O 	O 	0.4279	0.17851	0.78654	-0.407
Mof_O 	O 	0.08183	0.59186	0.95904	-0.416
Mof_O 	O 	0.97064	0.59554	0.95042	-0.41
Mof_O 	O 	0.28556	0.03495	0.78654	-0.407
Mof_O 	O 	0.0509	0.04087	0.54096	-0.417
Mof_O 	O 	0.04596	0.92106	0.54958	-0.409
Mof_O 	O 	0.32149	0.0721	0.71346	-0.407
Mof_O 	O 	0.90814	0.41817	0.54096	-0.415
Mof_O 	O 	0.90446	0.52936	0.54958	-0.409
Mof_O 	O 	0.46505	0.21444	0.71346	-0.407
Mof_O 	O 	0.91817	0.5509	0.04096	-0.415
Mof_O 	O 	0.02936	0.54596	0.04958	-0.409
Mof_O 	O 	0.71444	0.82149	0.21346	-0.407
Mof_O 	O 	0.54087	0.40814	0.04096	-0.415
Mof_O 	O 	0.42106	0.40446	0.04958	-0.409
Mof_O 	O 	0.5721	0.96505	0.21346	-0.407
_end
