data_functionalizedCrystal
_audit_creation_method	'EQeq! by Chris Wilmer'
_symmetry_space_group_name_H-M	'P1'
_symmetry_Int_Tables_number	1
_symmetry_cell_setting	triclinic
loop_
_symmetry_equiv_pos_as_xyz
  x,y,z
_cell_length_a	17.3514
_cell_length_b	9.5075
_cell_length_c	9.8065
_cell_angle_alpha	90
_cell_angle_beta	102.682
_cell_angle_gamma	90
loop_
_atom_site_label
_atom_site_type_symbol
_atom_site_fract_x
_atom_site_fract_y
_atom_site_fract_z
_atom_site_charge
Mof_Zn	Zn	0.17892	0.0795	0.37523	1.243
Mof_P 	P 	0.31043	0.32213	0.31876	0.564
Mof_O 	O 	0.2506	0.2087	0.3193	-0.442
Mof_O 	O 	0.3131	0.4381	0.4265	-0.458
Mof_O 	O 	0.297	0.3858	0.1718	-0.399
Mof_O 	O 	0.07412	0.1351	0.2653	-0.399
Mof_O 	O 	0.3936	0.2451	0.3499	-0.4
Mof_H 	H 	0.4287	0.3031	0.3508	0.213
Mof_O 	O 	0.9911	0.9457	0.1204	-0.347
Mof_H 	H 	0.0307	0.8968	0.1283	0.172
Mof_Zn	Zn	0.67892	0.5795	0.37523	1.245
Mof_P 	P 	0.81043	0.82213	0.31876	0.564
Mof_O 	O 	0.7506	0.7087	0.3193	-0.437
Mof_O 	O 	0.8131	0.9381	0.4265	-0.454
Mof_O 	O 	0.797	0.8858	0.1718	-0.392
Mof_O 	O 	0.57412	0.6351	0.2653	-0.397
Mof_O 	O 	0.8936	0.7451	0.3499	-0.388
Mof_H 	H 	0.9287	0.8031	0.3508	0.207
Mof_O 	O 	0.4911	0.4457	0.1204	-0.438
Mof_H 	H 	0.5307	0.3968	0.1283	0.231
Mof_Zn	Zn	0.82108	0.0795	0.12477	1.243
Mof_P 	P 	0.68957	0.32213	0.18124	0.565
Mof_O 	O 	0.7494	0.2087	0.1807	-0.439
Mof_O 	O 	0.6869	0.4381	0.0735	-0.455
Mof_O 	O 	0.703	0.3858	0.3282	-0.395
Mof_O 	O 	0.92588	0.1351	0.2347	-0.372
Mof_O 	O 	0.6064	0.2451	0.1501	-0.401
Mof_H 	H 	0.5713	0.3031	0.1492	0.213
Mof_O 	O 	0.0089	0.9457	0.3796	-0.487
Mof_H 	H 	0.9693	0.8968	0.3717	0.277
Mof_Zn	Zn	0.32108	0.5795	0.12477	1.245
Mof_P 	P 	0.18957	0.82213	0.18124	0.568
Mof_O 	O 	0.2494	0.7087	0.1807	-0.44
Mof_O 	O 	0.1869	0.9381	0.0735	-0.452
Mof_O 	O 	0.203	0.8858	0.3282	-0.397
Mof_O 	O 	0.42588	0.6351	0.2347	-0.397
Mof_O 	O 	0.1064	0.7451	0.1501	-0.414
Mof_H 	H 	0.0713	0.8031	0.1492	0.225
Mof_O 	O 	0.5089	0.4457	0.3796	-0.438
Mof_H 	H 	0.4693	0.3968	0.3717	0.231
Mof_Zn	Zn	0.82108	0.9205	0.62477	1.244
Mof_P 	P 	0.68957	0.67787	0.68124	0.565
Mof_O 	O 	0.7494	0.7913	0.6807	-0.439
Mof_O 	O 	0.6869	0.5619	0.5735	-0.455
Mof_O 	O 	0.703	0.6142	0.8282	-0.396
Mof_O 	O 	0.92588	0.8649	0.7347	-0.372
Mof_O 	O 	0.6064	0.7549	0.6501	-0.4
Mof_H 	H 	0.5713	0.6969	0.6492	0.213
Mof_O 	O 	0.0089	0.0543	0.8796	-0.482
Mof_H 	H 	0.9693	0.1032	0.8717	0.275
Mof_Zn	Zn	0.32108	0.4205	0.62477	1.245
Mof_P 	P 	0.18957	0.17787	0.68124	0.568
Mof_O 	O 	0.2494	0.2913	0.6807	-0.44
Mof_O 	O 	0.1869	0.0619	0.5735	-0.456
Mof_O 	O 	0.203	0.1142	0.8282	-0.395
Mof_O 	O 	0.42588	0.3649	0.7347	-0.398
Mof_O 	O 	0.1064	0.2549	0.6501	-0.414
Mof_H 	H 	0.0713	0.1969	0.6492	0.224
Mof_O 	O 	0.5089	0.5543	0.8796	-0.438
Mof_H 	H 	0.4693	0.6032	0.8717	0.231
Mof_Zn	Zn	0.17892	0.9205	0.87523	1.243
Mof_P 	P 	0.31043	0.67787	0.81876	0.565
Mof_O 	O 	0.2506	0.7913	0.8193	-0.442
Mof_O 	O 	0.3131	0.5619	0.9265	-0.457
Mof_O 	O 	0.297	0.6142	0.6718	-0.398
Mof_O 	O 	0.07412	0.8649	0.7653	-0.399
Mof_O 	O 	0.3936	0.7549	0.8499	-0.401
Mof_H 	H 	0.4287	0.6969	0.8508	0.213
Mof_O 	O 	0.9911	0.0543	0.6204	-0.351
Mof_H 	H 	0.0307	0.1032	0.6283	0.173
Mof_Zn	Zn	0.67892	0.4205	0.87523	1.245
Mof_P 	P 	0.81043	0.17787	0.81876	0.564
Mof_O 	O 	0.7506	0.2913	0.8193	-0.437
Mof_O 	O 	0.8131	0.0619	0.9265	-0.452
Mof_O 	O 	0.797	0.1142	0.6718	-0.395
Mof_O 	O 	0.57412	0.3649	0.7653	-0.398
Mof_O 	O 	0.8936	0.2549	0.8499	-0.388
Mof_H 	H 	0.9287	0.1969	0.8508	0.207
Mof_O 	O 	0.4911	0.5543	0.6204	-0.438
Mof_H 	H 	0.5307	0.6032	0.6283	0.231
Mof_P 	P 	-4.50196e-18	0.04456	0.25	0.487
Mof_P 	P 	0.5	0.54456	0.25	0.547
Mof_P 	P 	1.9382e-33	0.95544	0.75	0.486
Mof_P 	P 	0.5	0.45544	0.75	0.547
_end
