data_functionalizedCrystal
_audit_creation_method	'EQeq! by Chris Wilmer'
_symmetry_space_group_name_H-M	'P1'
_symmetry_Int_Tables_number	1
_symmetry_cell_setting	triclinic
loop_
_symmetry_equiv_pos_as_xyz
  x,y,z
_cell_length_a	24.024
_cell_length_b	24.1876
_cell_length_c	24.399
_cell_angle_alpha	84.067
_cell_angle_beta	61.943
_cell_angle_gamma	61.651
loop_
_atom_site_label
_atom_site_type_symbol
_atom_site_fract_x
_atom_site_fract_y
_atom_site_fract_z
_atom_site_charge
Mof_Dy	Dy	0.35131	0.85629	0.20968	2.08
Mof_O 	O 	0.2453	0.88	0.2105	-0.334
Mof_O 	O 	0.2838	0.969	0.2281	-0.314
Mof_O 	O 	0.3702	0.8822	0.1079	-0.313
Mof_O 	O 	0.4394	0.8868	0.1749	-0.334
Mof_O 	O 	0.39	0.7632	0.1456	-0.308
Mof_O 	O 	0.3301	0.8913	0.3063	-0.336
Mof_O 	O 	0.453	0.7717	0.2145	-0.316
Mof_O 	O 	0.3013	0.798	0.2835	-0.307
Mof_N 	N 	0.2065	0.8503	0.2393	-0.062
Mof_N 	N 	0.2217	0.0058	0.2303	-0.063
Mof_N 	N 	0.3543	0.8621	0.0711	-0.065
Mof_N 	N 	0.4572	0.9179	0.1259	-0.068
Mof_N 	N 	0.4386	0.7028	0.1459	-0.074
Mof_C 	C 	0.224	0.7966	0.2063	0.053
Mof_C 	C 	0.1443	0.8762	0.2946	0.061
Mof_C 	C 	0.2205	0.023	0.1779	0.056
Mof_C 	C 	0.1623	0.0236	0.2817	0.053
Mof_C 	C 	0.2891	0.8872	0.0806	0.057
Mof_C 	C 	0.4102	0.8151	0.0225	0.052
Mof_C 	C 	0.4173	0.981	0.1403	0.049
Mof_C 	C 	0.5098	0.8863	0.0738	0.064
Mof_C 	C 	0.4089	0.672	0.1928	0.053
Mof_C 	C 	0.5079	0.6801	0.1096	0.082
Mof_H 	H 	0.2648	0.7796	0.1656	0.031
Mof_C 	C 	0.1827	0.7681	0.2324	-0.107
Mof_C 	C 	0.1074	0.8458	0.3209	-0.107
Mof_H 	H 	0.1272	0.9169	0.3146	0.016
Mof_H 	H 	0.2646	0.0109	0.1401	0.028
Mof_C 	C 	0.1566	0.0578	0.1767	-0.105
Mof_C 	C 	0.0916	0.0605	0.2847	-0.104
Mof_H 	H 	0.1642	0.0124	0.3195	0.018
Mof_H 	H 	0.2517	0.9215	0.114	0.03
Mof_C 	C 	0.2718	0.8656	0.0437	-0.101
Mof_C 	C 	0.3963	0.7919	0.9809	-0.096
Mof_H 	H 	0.4579	0.7977	0.016	0.024
Mof_H 	H 	0.3814	0.002	0.182	0.032
Mof_C 	C 	0.433	0.0154	0.0866	-0.099
Mof_C 	C 	0.531	0.9171	0.018	-0.103
Mof_H 	H 	0.537	0.8415	0.0703	0.015
Mof_H 	H 	0.3582	0.6906	0.219	0.031
Mof_C 	C 	0.4565	0.6121	0.2003	-0.115
Mof_C 	C 	0.5538	0.6236	0.1146	-0.125
Mof_H 	H 	0.5255	0.704	0.0795	0.007
Mof_H 	H 	0.1971	0.7305	0.2087	0.066
Mof_C 	C 	0.1244	0.7877	0.2877	0.043
Mof_H 	H 	0.0686	0.8617	0.3627	0.063
Mof_H 	H 	0.1577	0.0702	0.1381	0.065
Mof_C 	C 	0.0886	0.0763	0.2314	0.036
Mof_H 	H 	0.0486	0.073	0.3237	0.063
Mof_H 	H 	0.2229	0.8843	0.0527	0.062
Mof_C 	C 	0.3254	0.8165	0.9935	0.031
Mof_H 	H 	0.4349	0.7603	0.9454	0.062
Mof_H 	H 	0.4042	0.0603	0.0932	0.063
Mof_C 	C 	0.4871	0.9853	0.0284	0.043
Mof_H 	H 	0.5697	0.8937	0.978	0.064
Mof_H 	H 	0.4385	0.5879	0.2295	0.07
Mof_C 	C 	0.5268	0.5909	0.1653	0.056
Mof_H 	H 	0.6038	0.6047	0.0854	0.071
Mof_C 	C 	0.075	0.7604	0.319	0.048
Mof_C 	C 	0.0194	0.1103	0.2325	0.06
Mof_C 	C 	0.3048	0.7902	0.9582	0.072
Mof_C 	C 	0.5806	0.534	0.1769	0.041
Mof_C 	C 	0.098	0.7001	0.2876	-0.101
Mof_C 	C 	0.0111	0.7881	0.3679	-0.115
Mof_C 	C 	0.0099	0.0922	0.1873	-0.124
Mof_C 	C 	0.9612	0.155	0.2789	-0.122
Mof_C 	C 	0.2406	0.8242	0.9619	-0.131
Mof_C 	C 	0.3471	0.7332	0.9264	-0.116
Mof_C 	C 	0.6445	0.4915	0.1288	-0.103
Mof_C 	C 	0.5645	0.5225	0.2382	-0.105
Mof_C 	C 	0.0472	0.6758	0.3172	0.059
Mof_H 	H 	0.1429	0.678	0.2504	0.064
Mof_H 	H 	0.9966	0.8282	0.3871	0.066
Mof_C 	C 	0.9631	0.7666	0.3946	0.061
Mof_C 	C 	0.9405	0.1168	0.1948	0.072
Mof_H 	H 	0.0506	0.0628	0.1509	0.071
Mof_H 	H 	0.965	0.1713	0.31	0.072
Mof_C 	C 	0.8928	0.1789	0.2827	0.06
Mof_C 	C 	0.2202	0.7991	0.9305	0.074
Mof_H 	H 	0.2086	0.8656	0.9858	0.072
Mof_H 	H 	0.3919	0.7095	0.9265	0.07
Mof_C 	C 	0.3327	0.7026	0.8912	0.048
Mof_C 	C 	0.6948	0.4385	0.1387	0.045
Mof_H 	H 	0.6549	0.4985	0.0868	0.064
Mof_H 	H 	0.5182	0.5487	0.2725	0.065
Mof_C 	C 	0.6187	0.4707	0.2485	0.057
Mof_N 	N 	0.9826	0.7106	0.3664	-0.063
Mof_H 	H 	0.0602	0.6348	0.3013	0.021
Mof_H 	H 	0.9181	0.7897	0.4313	0.026
Mof_N 	N 	0.8847	0.1597	0.241	-0.064
Mof_H 	H 	0.9347	0.1013	0.1648	0.014
Mof_H 	H 	0.8514	0.2103	0.3173	0.031
Mof_N 	N 	0.2626	0.742	0.8967	-0.062
Mof_H 	H 	0.1738	0.8241	0.9336	0.01
Mof_H 	H 	0.3657	0.6612	0.8672	0.033
Mof_N 	N 	0.6792	0.4295	0.2003	-0.053
Mof_H 	H 	0.7388	0.4091	0.1044	0.032
Mof_H 	H 	0.6114	0.4657	0.2901	0.016
Mof_O 	O 	0.9379	0.6868	0.3875	-0.315
Mof_O 	O 	0.82	0.1836	0.2453	-0.342
Mof_O 	O 	0.2413	0.7151	0.8712	-0.322
Mof_O 	O 	0.7255	0.382	0.214	-0.332
Mof_Dy	Dy	0.84516	0.71722	0.36043	2.127
Mof_Dy	Dy	0.74278	0.27976	0.23153	2.114
Mof_O 	O 	0.8709	0.6143	0.3843	-0.328
Mof_O 	O 	0.7803	0.7318	0.4736	-0.301
Mof_O 	O 	0.7926	0.794	0.3071	-0.317
Mof_O 	O 	0.824	0.8125	0.3965	-0.345
Mof_O 	O 	0.736	0.7206	0.3908	-0.334
Mof_O 	O 	0.9421	0.7206	0.2752	-0.338
Mof_O 	O 	0.8712	0.6568	0.2741	-0.325
Mof_O 	O 	0.7175	0.2025	0.2128	-0.318
Mof_O 	O 	0.7687	0.3095	0.3018	-0.32
Mof_O 	O 	0.6648	0.2742	0.3331	-0.327
Mof_O 	O 	0.6233	0.3381	0.2462	-0.313
Mof_O 	O 	0.8614	0.2646	0.1683	-0.317
Mof_N 	N 	0.9069	0.583	0.4179	-0.074
Mof_N 	N 	0.7602	0.7817	0.5132	-0.086
Mof_N 	N 	0.7466	0.7939	0.2896	-0.067
Mof_N 	N 	0.8069	0.8687	0.3676	-0.077
Mof_N 	N 	0.6865	0.7149	0.444	-0.052
Mof_N 	N 	0.9636	0.7194	0.2143	-0.056
Mof_N 	N 	0.7302	0.1479	0.2352	-0.064
Mof_N 	N 	0.7834	0.36	0.2966	-0.084
Mof_N 	N 	0.675	0.2633	0.3842	-0.06
Mof_N 	N 	0.5637	0.3381	0.298	-0.071
Mof_N 	N 	0.1076	0.7332	0.891	-0.047
Mof_C 	C 	0.975	0.5458	0.384	0.066
Mof_C 	C 	0.8727	0.5909	0.4798	0.064
Mof_C 	C 	0.8109	0.7763	0.5287	0.08
Mof_C 	C 	0.7034	0.8309	0.5274	0.107
Mof_C 	C 	0.6768	0.8331	0.3288	0.05
Mof_C 	C 	0.7702	0.7628	0.2358	0.062
Mof_C 	C 	0.8641	0.8743	0.3193	0.057
Mof_C 	C 	0.7406	0.9119	0.3902	0.091
Mof_C 	C 	0.6271	0.7637	0.4834	0.056
Mof_C 	C 	0.7081	0.649	0.4557	0.036
Mof_C 	C 	0.9338	0.7717	0.192	0.056
Mof_C 	C 	0.015	0.6661	0.1742	0.057
Mof_C 	C 	0.6826	0.1473	0.2943	0.059
Mof_C 	C 	0.7903	0.0962	0.2017	0.067
Mof_C 	C 	0.8509	0.3457	0.2601	0.069
Mof_C 	C 	0.7348	0.4134	0.3286	0.085
Mof_C 	C 	0.7203	0.2056	0.3875	0.04
Mof_C 	C 	0.63	0.3113	0.4331	0.055
Mof_C 	C 	0.5535	0.2887	0.2844	0.051
Mof_C 	C 	0.5205	0.3804	0.3507	0.087
Mof_C 	C 	0.1181	0.6734	0.9015	0.03
Mof_C 	C 	0.0726	0.7876	0.9346	0.038
Mof_H 	H 	0.9982	0.5398	0.3398	0.013
Mof_C 	C 	0.0143	0.5127	0.4199	-0.11
Mof_C 	C 	0.9118	0.556	0.5118	-0.121
Mof_H 	H 	0.8224	0.6198	0.5027	0.028
Mof_H 	H 	0.8543	0.7373	0.5172	0.019
Mof_C 	C 	0.7978	0.8256	0.5593	-0.132
Mof_C 	C 	0.6846	0.8804	0.5648	-0.139
Mof_H 	H 	0.6725	0.834	0.512	-0.001
Mof_H 	H 	0.6627	0.8608	0.3633	0.021
Mof_C 	C 	0.6211	0.8321	0.3165	-0.094
Mof_C 	C 	0.7245	0.7616	0.2181	-0.109
Mof_H 	H 	0.8207	0.7403	0.2081	0.03
Mof_H 	H 	0.9121	0.8406	0.3047	0.028
Mof_C 	C 	0.8508	0.929	0.2929	-0.109
Mof_C 	C 	0.7266	0.9642	0.3642	-0.126
Mof_H 	H 	0.7032	0.9065	0.4242	0.005
Mof_H 	H 	0.6176	0.8055	0.4747	0.016
Mof_C 	C 	0.5784	0.755	0.5372	-0.099
Mof_C 	C 	0.6602	0.6398	0.5091	-0.091
Mof_H 	H 	0.7532	0.6146	0.4274	0.038
Mof_H 	H 	0.8948	0.8095	0.2205	0.03
Mof_C 	C 	0.9584	0.7718	0.1288	-0.115
Mof_C 	C 	0.0447	0.6651	0.1084	-0.111
Mof_H 	H 	0.0332	0.6276	0.19	0.02
Mof_H 	H 	0.6394	0.1852	0.319	0.028
Mof_C 	C 	0.6979	0.0924	0.3169	-0.118
Mof_C 	C 	0.8077	0.0369	0.2231	-0.111
Mof_H 	H 	0.8235	0.0986	0.1613	0.015
Mof_H 	H 	0.8862	0.3035	0.2389	0.029
Mof_C 	C 	0.8708	0.3928	0.2526	-0.115
Mof_C 	C 	0.7497	0.464	0.325	-0.125
Mof_H 	H 	0.6873	0.4201	0.3557	0.008
Mof_H 	H 	0.7463	0.1722	0.3535	0.037
Mof_C 	C 	0.7308	0.1924	0.4432	-0.092
Mof_C 	C 	0.6401	0.3046	0.4858	-0.102
Mof_H 	H 	0.5927	0.3494	0.4315	0.021
Mof_H 	H 	0.581	0.2634	0.2442	0.033
Mof_C 	C 	0.4976	0.2806	0.3374	-0.11
Mof_C 	C 	0.472	0.3703	0.3965	-0.137
Mof_H 	H 	0.5253	0.4165	0.3542	0.004
Mof_H 	H 	0.144	0.6378	0.8698	0.039
Mof_C 	C 	0.0808	0.6727	0.9738	-0.078
Mof_C 	C 	0.0426	0.7802	0.9973	-0.086
Mof_H 	H 	0.0697	0.827	0.9219	0.018
Mof_H 	H 	0.0653	0.4872	0.3978	0.065
Mof_C 	C 	0.9783	0.5184	0.4837	0.059
Mof_H 	H 	0.8866	0.5612	0.5564	0.069
Mof_H 	H 	0.8342	0.8226	0.5673	0.074
Mof_C 	C 	0.7343	0.8817	0.5805	0.06
Mof_H 	H 	0.6371	0.9154	0.5812	0.075
Mof_H 	H 	0.5709	0.8542	0.3454	0.06
Mof_C 	C 	0.6497	0.7954	0.2582	0.037
Mof_H 	H 	0.7432	0.738	0.179	0.067
Mof_H 	H 	0.8892	0.9357	0.2626	0.067
Mof_C 	C 	0.7772	0.9757	0.3123	0.046
Mof_H 	H 	0.6778	0.997	0.3825	0.069
Mof_H 	H 	0.5345	0.7907	0.5651	0.062
Mof_C 	C 	0.5934	0.6913	0.5518	0.026
Mof_H 	H 	0.6718	0.5978	0.5181	0.061
Mof_H 	H 	0.9367	0.8105	0.1148	0.068
Mof_C 	C 	0.0127	0.7192	0.0849	0.053
Mof_H 	H 	0.086	0.6278	0.0805	0.067
Mof_H 	H 	0.663	0.0922	0.3574	0.067
Mof_C 	C 	0.7585	0.038	0.2867	0.049
Mof_H 	H 	0.8493	0.9987	0.1971	0.066
Mof_H 	H 	0.9187	0.3843	0.2239	0.068
Mof_C 	C 	0.8178	0.4532	0.2887	0.052
Mof_H 	H 	0.7121	0.5051	0.3478	0.069
Mof_H 	H 	0.7643	0.152	0.4462	0.061
Mof_C 	C 	0.6871	0.2448	0.4918	0.032
Mof_H 	H 	0.6151	0.3402	0.5172	0.062
Mof_H 	H 	0.4878	0.2478	0.334	0.069
Mof_C 	C 	0.4584	0.3219	0.3934	0.063
Mof_H 	H 	0.4436	0.3983	0.4351	0.075
Mof_H 	H 	0.0822	0.634	0.9874	0.057
Mof_C 	C 	0.046	0.724	0.0193	0.025
Mof_H 	H 	0.0175	0.8166	0.0278	0.056
Mof_C 	C 	0.7224	0.9407	0.6111	0.045
Mof_C 	C 	0.5995	0.7909	0.2433	0.047
Mof_C 	C 	0.836	0.5118	0.2804	0.069
Mof_C 	C 	0.6909	0.2372	0.552	0.064
Mof_C 	C 	0.6529	0.9774	0.662	-0.094
Mof_C 	C 	0.767	0.9627	0.5902	-0.122
Mof_C 	C 	0.6132	0.7717	0.1876	-0.117
Mof_C 	C 	0.5304	0.8054	0.2968	-0.093
Mof_C 	C 	0.9055	0.4927	0.2612	-0.122
Mof_C 	C 	0.7813	0.5689	0.2934	-0.132
Mof_C 	C 	0.6346	0.273	0.6069	-0.129
Mof_C 	C 	0.7524	0.1838	0.5522	-0.136
Mof_C 	C 	0.6309	0.0383	0.6939	0.033
Mof_H 	H 	0.6191	0.9623	0.6762	0.062
Mof_H 	H 	0.8126	0.9408	0.5538	0.071
Mof_C 	C 	0.747	0.0201	0.6224	0.071
Mof_C 	C 	0.5615	0.7671	0.1793	0.067
Mof_H 	H 	0.659	0.7606	0.1523	0.069
Mof_H 	H 	0.5186	0.8177	0.3382	0.062
Mof_C 	C 	0.4773	0.7998	0.2827	0.036
Mof_C 	C 	0.9158	0.5471	0.2621	0.056
Mof_H 	H 	0.9428	0.4497	0.2488	0.071
Mof_H 	H 	0.7345	0.5743	0.3081	0.075
Mof_C 	C 	0.7916	0.6195	0.2858	0.063
Mof_C 	C 	0.6404	0.2611	0.6622	0.072
Mof_H 	H 	0.5912	0.306	0.6084	0.072
Mof_H 	H 	0.7923	0.1553	0.5149	0.074
Mof_C 	C 	0.75	0.1765	0.6078	0.089
Mof_N 	N 	0.6858	0.0546	0.6667	-0.058
Mof_H 	H 	0.5849	0.0636	0.7288	0.037
Mof_H 	H 	0.7824	0.033	0.6094	0.014
Mof_N 	N 	0.4976	0.7796	0.225	-0.062
Mof_H 	H 	0.5737	0.7542	0.138	0.017
Mof_H 	H 	0.43	0.8109	0.3155	0.039
Mof_N 	N 	0.859	0.6081	0.2764	-0.058
Mof_H 	H 	0.9618	0.5406	0.2528	0.021
Mof_H 	H 	0.7558	0.6605	0.2867	0.028
Mof_N 	N 	0.6963	0.2132	0.6611	-0.082
Mof_H 	H 	0.6026	0.2888	0.7006	0.024
Mof_H 	H 	0.7906	0.1418	0.6091	0.009
Mof_Dy	Dy	0.64869	0.14371	0.79032	2.081
Mof_O 	O 	0.7547	0.12	0.7895	-0.333
Mof_O 	O 	0.7162	0.031	0.7719	-0.313
Mof_O 	O 	0.6298	0.1178	0.8921	-0.312
Mof_O 	O 	0.5606	0.1132	0.8251	-0.333
Mof_O 	O 	0.61	0.2368	0.8544	-0.307
Mof_O 	O 	0.6699	0.1087	0.6937	-0.335
Mof_O 	O 	0.547	0.2283	0.7855	-0.315
Mof_O 	O 	0.6987	0.202	0.7165	-0.306
Mof_N 	N 	0.7935	0.1497	0.7607	-0.061
Mof_N 	N 	0.7783	0.9942	0.7697	-0.062
Mof_N 	N 	0.6457	0.1379	0.9289	-0.064
Mof_N 	N 	0.5428	0.0821	0.8741	-0.067
Mof_N 	N 	0.5614	0.2972	0.8541	-0.073
Mof_C 	C 	0.776	0.2034	0.7937	0.054
Mof_C 	C 	0.8557	0.1238	0.7054	0.062
Mof_C 	C 	0.7795	0.977	0.8221	0.057
Mof_C 	C 	0.8377	0.9764	0.7183	0.054
Mof_C 	C 	0.7109	0.1128	0.9194	0.058
Mof_C 	C 	0.5898	0.1849	0.9775	0.053
Mof_C 	C 	0.5827	0.019	0.8597	0.05
Mof_C 	C 	0.4902	0.1137	0.9262	0.065
Mof_C 	C 	0.5911	0.328	0.8072	0.054
Mof_C 	C 	0.4921	0.3199	0.8904	0.083
Mof_H 	H 	0.7352	0.2204	0.8344	0.031
Mof_C 	C 	0.8173	0.2319	0.7676	-0.107
Mof_C 	C 	0.8926	0.1542	0.6791	-0.107
Mof_H 	H 	0.8728	0.0831	0.6854	0.016
Mof_H 	H 	0.7354	0.9891	0.8599	0.028
Mof_C 	C 	0.8434	0.9422	0.8233	-0.105
Mof_C 	C 	0.9084	0.9395	0.7153	-0.104
Mof_H 	H 	0.8358	0.9876	0.6805	0.018
Mof_H 	H 	0.7483	0.0785	0.886	0.03
Mof_C 	C 	0.7282	0.1344	0.9563	-0.101
Mof_C 	C 	0.6037	0.2081	0.0191	-0.096
Mof_H 	H 	0.5421	0.2023	0.984	0.024
Mof_H 	H 	0.6186	0.998	0.818	0.032
Mof_C 	C 	0.567	0.9846	0.9134	-0.099
Mof_C 	C 	0.469	0.0829	0.982	-0.103
Mof_H 	H 	0.463	0.1585	0.9297	0.015
Mof_H 	H 	0.6418	0.3094	0.781	0.031
Mof_C 	C 	0.5435	0.3879	0.7997	-0.115
Mof_C 	C 	0.4462	0.3764	0.8854	-0.125
Mof_H 	H 	0.4745	0.296	0.9205	0.007
Mof_H 	H 	0.8029	0.2695	0.7913	0.066
Mof_C 	C 	0.8756	0.2123	0.7123	0.043
Mof_H 	H 	0.9314	0.1383	0.6373	0.063
Mof_H 	H 	0.8423	0.9298	0.8619	0.065
Mof_C 	C 	0.9114	0.9237	0.7686	0.036
Mof_H 	H 	0.9514	0.927	0.6763	0.063
Mof_H 	H 	0.7771	0.1157	0.9473	0.062
Mof_C 	C 	0.6746	0.1835	0.0065	0.031
Mof_H 	H 	0.5651	0.2397	0.0546	0.062
Mof_H 	H 	0.5958	0.9397	0.9068	0.063
Mof_C 	C 	0.5129	0.0147	0.9716	0.043
Mof_H 	H 	0.4303	0.1063	0.022	0.064
Mof_H 	H 	0.5615	0.4121	0.7705	0.07
Mof_C 	C 	0.4732	0.4091	0.8347	0.056
Mof_H 	H 	0.3962	0.3953	0.9146	0.071
Mof_C 	C 	0.925	0.2396	0.681	0.048
Mof_C 	C 	0.9806	0.8897	0.7675	0.06
Mof_C 	C 	0.6952	0.2098	0.0418	0.072
Mof_C 	C 	0.4194	0.466	0.8231	0.041
Mof_C 	C 	0.902	0.2999	0.7124	-0.101
Mof_C 	C 	0.9889	0.2119	0.6321	-0.115
Mof_C 	C 	0.9901	0.9078	0.8127	-0.124
Mof_C 	C 	0.0388	0.845	0.7211	-0.122
Mof_C 	C 	0.7594	0.1758	0.0381	-0.131
Mof_C 	C 	0.6529	0.2668	0.0736	-0.116
Mof_C 	C 	0.3555	0.5085	0.8712	-0.103
Mof_C 	C 	0.4355	0.4775	0.7618	-0.105
Mof_C 	C 	0.9528	0.3242	0.6828	0.059
Mof_H 	H 	0.8571	0.322	0.7496	0.064
Mof_H 	H 	0.0034	0.1718	0.6129	0.066
Mof_C 	C 	0.0369	0.2334	0.6054	0.061
Mof_C 	C 	0.0595	0.8832	0.8052	0.072
Mof_H 	H 	0.9494	0.9372	0.8491	0.071
Mof_H 	H 	0.035	0.8287	0.69	0.072
Mof_C 	C 	0.1072	0.8211	0.7173	0.06
Mof_C 	C 	0.7798	0.2009	0.0695	0.074
Mof_H 	H 	0.7914	0.1344	0.0142	0.072
Mof_H 	H 	0.6081	0.2905	0.0735	0.07
Mof_C 	C 	0.6673	0.2974	0.1088	0.048
Mof_C 	C 	0.3052	0.5615	0.8613	0.045
Mof_H 	H 	0.3451	0.5015	0.9132	0.064
Mof_H 	H 	0.4818	0.4513	0.7275	0.065
Mof_C 	C 	0.3813	0.5293	0.7515	0.057
Mof_N 	N 	0.0174	0.2894	0.6336	-0.063
Mof_H 	H 	0.9398	0.3652	0.6987	0.021
Mof_H 	H 	0.0819	0.2103	0.5687	0.026
Mof_N 	N 	0.1153	0.8403	0.759	-0.064
Mof_H 	H 	0.0653	0.8987	0.8352	0.014
Mof_H 	H 	0.1486	0.7897	0.6827	0.031
Mof_N 	N 	0.7374	0.258	0.1033	-0.062
Mof_H 	H 	0.8262	0.1759	0.0664	0.01
Mof_H 	H 	0.6343	0.3388	0.1328	0.033
Mof_N 	N 	0.3208	0.5705	0.7997	-0.053
Mof_H 	H 	0.2612	0.5909	0.8956	0.032
Mof_H 	H 	0.3886	0.5343	0.7099	0.016
Mof_O 	O 	0.0621	0.3132	0.6125	-0.315
Mof_O 	O 	0.18	0.8164	0.7547	-0.342
Mof_O 	O 	0.7587	0.2849	0.1288	-0.322
Mof_O 	O 	0.2745	0.618	0.786	-0.332
Mof_Dy	Dy	0.15484	0.28278	0.63957	2.127
Mof_Dy	Dy	0.25722	0.72024	0.76847	2.114
Mof_O 	O 	0.1291	0.3857	0.6157	-0.328
Mof_O 	O 	0.2197	0.2682	0.5264	-0.301
Mof_O 	O 	0.2074	0.206	0.6929	-0.317
Mof_O 	O 	0.176	0.1875	0.6035	-0.345
Mof_O 	O 	0.264	0.2794	0.6092	-0.334
Mof_O 	O 	0.0579	0.2794	0.7248	-0.338
Mof_O 	O 	0.1288	0.3432	0.7259	-0.325
Mof_O 	O 	0.2825	0.7975	0.7872	-0.318
Mof_O 	O 	0.2313	0.6905	0.6982	-0.32
Mof_O 	O 	0.3352	0.7258	0.6669	-0.327
Mof_O 	O 	0.3767	0.6619	0.7538	-0.313
Mof_O 	O 	0.1386	0.7354	0.8317	-0.317
Mof_N 	N 	0.0931	0.417	0.5821	-0.074
Mof_N 	N 	0.2398	0.2183	0.4868	-0.086
Mof_N 	N 	0.2534	0.2061	0.7104	-0.067
Mof_N 	N 	0.1931	0.1313	0.6324	-0.077
Mof_N 	N 	0.3135	0.2851	0.556	-0.052
Mof_N 	N 	0.0364	0.2806	0.7857	-0.056
Mof_N 	N 	0.2698	0.8521	0.7648	-0.064
Mof_N 	N 	0.2166	0.64	0.7034	-0.084
Mof_N 	N 	0.325	0.7367	0.6158	-0.06
Mof_N 	N 	0.4363	0.6619	0.702	-0.071
Mof_N 	N 	0.8924	0.2668	0.109	-0.047
Mof_C 	C 	0.025	0.4542	0.616	0.066
Mof_C 	C 	0.1273	0.4091	0.5202	0.064
Mof_C 	C 	0.1891	0.2237	0.4713	0.08
Mof_C 	C 	0.2966	0.1691	0.4726	0.107
Mof_C 	C 	0.3232	0.1669	0.6712	0.05
Mof_C 	C 	0.2298	0.2372	0.7642	0.062
Mof_C 	C 	0.1359	0.1257	0.6807	0.057
Mof_C 	C 	0.2594	0.0881	0.6098	0.091
Mof_C 	C 	0.3729	0.2363	0.5166	0.056
Mof_C 	C 	0.2919	0.351	0.5443	0.036
Mof_C 	C 	0.0662	0.2283	0.808	0.056
Mof_C 	C 	0.985	0.3339	0.8258	0.057
Mof_C 	C 	0.3174	0.8527	0.7057	0.059
Mof_C 	C 	0.2097	0.9038	0.7983	0.067
Mof_C 	C 	0.1491	0.6543	0.7399	0.069
Mof_C 	C 	0.2652	0.5866	0.6714	0.085
Mof_C 	C 	0.2797	0.7944	0.6125	0.04
Mof_C 	C 	0.37	0.6887	0.5669	0.055
Mof_C 	C 	0.4465	0.7113	0.7156	0.051
Mof_C 	C 	0.4795	0.6196	0.6493	0.087
Mof_C 	C 	0.8819	0.3266	0.0985	0.03
Mof_C 	C 	0.9274	0.2124	0.0654	0.038
Mof_H 	H 	0.0018	0.4602	0.6602	0.013
Mof_C 	C 	0.9857	0.4873	0.5801	-0.11
Mof_C 	C 	0.0882	0.444	0.4882	-0.121
Mof_H 	H 	0.1776	0.3802	0.4973	0.028
Mof_H 	H 	0.1457	0.2627	0.4828	0.019
Mof_C 	C 	0.2022	0.1744	0.4407	-0.132
Mof_C 	C 	0.3154	0.1196	0.4352	-0.139
Mof_H 	H 	0.3275	0.166	0.488	-0.001
Mof_H 	H 	0.3373	0.1392	0.6367	0.021
Mof_C 	C 	0.3789	0.1679	0.6835	-0.094
Mof_C 	C 	0.2755	0.2384	0.7819	-0.109
Mof_H 	H 	0.1793	0.2597	0.7919	0.03
Mof_H 	H 	0.0879	0.1594	0.6953	0.028
Mof_C 	C 	0.1492	0.071	0.7071	-0.109
Mof_C 	C 	0.2734	0.0358	0.6358	-0.126
Mof_H 	H 	0.2968	0.0935	0.5758	0.005
Mof_H 	H 	0.3824	0.1945	0.5253	0.016
Mof_C 	C 	0.4216	0.245	0.4628	-0.099
Mof_C 	C 	0.3398	0.3602	0.4909	-0.091
Mof_H 	H 	0.2468	0.3854	0.5726	0.038
Mof_H 	H 	0.1052	0.1905	0.7795	0.03
Mof_C 	C 	0.0416	0.2282	0.8712	-0.115
Mof_C 	C 	0.9553	0.3349	0.8916	-0.111
Mof_H 	H 	0.9668	0.3724	0.81	0.02
Mof_H 	H 	0.3606	0.8148	0.681	0.028
Mof_C 	C 	0.3021	0.9076	0.6831	-0.118
Mof_C 	C 	0.1923	0.9631	0.7769	-0.111
Mof_H 	H 	0.1765	0.9014	0.8387	0.015
Mof_H 	H 	0.1138	0.6965	0.7611	0.029
Mof_C 	C 	0.1292	0.6072	0.7474	-0.115
Mof_C 	C 	0.2503	0.536	0.675	-0.125
Mof_H 	H 	0.3127	0.5799	0.6443	0.008
Mof_H 	H 	0.2537	0.8278	0.6465	0.037
Mof_C 	C 	0.2692	0.8076	0.5568	-0.092
Mof_C 	C 	0.3599	0.6954	0.5142	-0.102
Mof_H 	H 	0.4073	0.6506	0.5685	0.021
Mof_H 	H 	0.419	0.7366	0.7558	0.033
Mof_C 	C 	0.5024	0.7194	0.6626	-0.11
Mof_C 	C 	0.528	0.6297	0.6035	-0.137
Mof_H 	H 	0.4747	0.5835	0.6458	0.004
Mof_H 	H 	0.856	0.3622	0.1302	0.039
Mof_C 	C 	0.9192	0.3273	0.0262	-0.078
Mof_C 	C 	0.9574	0.2198	0.0027	-0.086
Mof_H 	H 	0.9303	0.173	0.0781	0.018
Mof_H 	H 	0.9347	0.5128	0.6022	0.065
Mof_C 	C 	0.0217	0.4816	0.5163	0.059
Mof_H 	H 	0.1134	0.4388	0.4436	0.069
Mof_H 	H 	0.1658	0.1774	0.4327	0.074
Mof_C 	C 	0.2657	0.1183	0.4195	0.06
Mof_H 	H 	0.3629	0.0846	0.4188	0.075
Mof_H 	H 	0.4291	0.1458	0.6546	0.06
Mof_C 	C 	0.3503	0.2046	0.7418	0.037
Mof_H 	H 	0.2568	0.262	0.821	0.067
Mof_H 	H 	0.1108	0.0643	0.7374	0.067
Mof_C 	C 	0.2228	0.0243	0.6877	0.046
Mof_H 	H 	0.3222	0.003	0.6175	0.069
Mof_H 	H 	0.4655	0.2093	0.4349	0.062
Mof_C 	C 	0.4066	0.3087	0.4482	0.026
Mof_H 	H 	0.3282	0.4022	0.4819	0.061
Mof_H 	H 	0.0633	0.1895	0.8852	0.068
Mof_C 	C 	0.9873	0.2808	0.9151	0.053
Mof_H 	H 	0.914	0.3722	0.9195	0.067
Mof_H 	H 	0.337	0.9078	0.6426	0.067
Mof_C 	C 	0.2415	0.962	0.7133	0.049
Mof_H 	H 	0.1507	0.0013	0.8029	0.066
Mof_H 	H 	0.0813	0.6157	0.7761	0.068
Mof_C 	C 	0.1822	0.5468	0.7113	0.052
Mof_H 	H 	0.2879	0.4949	0.6522	0.069
Mof_H 	H 	0.2357	0.848	0.5538	0.061
Mof_C 	C 	0.3129	0.7552	0.5082	0.032
Mof_H 	H 	0.3849	0.6598	0.4828	0.062
Mof_H 	H 	0.5122	0.7522	0.666	0.069
Mof_C 	C 	0.5416	0.6781	0.6066	0.063
Mof_H 	H 	0.5564	0.6017	0.5649	0.075
Mof_H 	H 	0.9178	0.366	0.0126	0.057
Mof_C 	C 	0.954	0.276	0.9807	0.025
Mof_H 	H 	0.9825	0.1834	0.9722	0.056
Mof_C 	C 	0.2776	0.0593	0.3889	0.045
Mof_C 	C 	0.4005	0.2091	0.7567	0.047
Mof_C 	C 	0.164	0.4882	0.7196	0.069
Mof_C 	C 	0.3091	0.7628	0.448	0.064
Mof_C 	C 	0.3471	0.0226	0.338	-0.094
Mof_C 	C 	0.233	0.0373	0.4098	-0.122
Mof_C 	C 	0.3868	0.2283	0.8124	-0.117
Mof_C 	C 	0.4696	0.1946	0.7032	-0.093
Mof_C 	C 	0.0945	0.5073	0.7388	-0.122
Mof_C 	C 	0.2187	0.4311	0.7066	-0.132
Mof_C 	C 	0.3654	0.727	0.3931	-0.129
Mof_C 	C 	0.2476	0.8162	0.4478	-0.136
Mof_C 	C 	0.3691	0.9617	0.3061	0.033
Mof_H 	H 	0.3809	0.0377	0.3238	0.062
Mof_H 	H 	0.1874	0.0592	0.4462	0.071
Mof_C 	C 	0.253	0.9799	0.3776	0.071
Mof_C 	C 	0.4385	0.2329	0.8207	0.067
Mof_H 	H 	0.341	0.2394	0.8477	0.069
Mof_H 	H 	0.4814	0.1823	0.6618	0.062
Mof_C 	C 	0.5227	0.2002	0.7173	0.036
Mof_C 	C 	0.0842	0.4529	0.7379	0.056
Mof_H 	H 	0.0572	0.5503	0.7512	0.071
Mof_H 	H 	0.2655	0.4257	0.6919	0.075
Mof_C 	C 	0.2084	0.3805	0.7142	0.063
Mof_C 	C 	0.3596	0.7389	0.3378	0.072
Mof_H 	H 	0.4088	0.694	0.3916	0.072
Mof_H 	H 	0.2077	0.8447	0.4851	0.074
Mof_C 	C 	0.25	0.8235	0.3922	0.089
Mof_N 	N 	0.3142	0.9454	0.3333	-0.058
Mof_H 	H 	0.4151	0.9364	0.2712	0.037
Mof_H 	H 	0.2176	0.967	0.3906	0.014
Mof_N 	N 	0.5024	0.2204	0.775	-0.062
Mof_H 	H 	0.4263	0.2458	0.862	0.017
Mof_H 	H 	0.57	0.1891	0.6845	0.039
Mof_N 	N 	0.141	0.3919	0.7236	-0.058
Mof_H 	H 	0.0382	0.4594	0.7472	0.021
Mof_H 	H 	0.2442	0.3395	0.7133	0.028
Mof_N 	N 	0.3037	0.7868	0.3389	-0.082
Mof_H 	H 	0.3974	0.7112	0.2994	0.024
Mof_H 	H 	0.2094	0.8582	0.3909	0.009
_end
