data_functionalizedCrystal
_audit_creation_method	'EQeq! by Chris Wilmer'
_symmetry_space_group_name_H-M	'P1'
_symmetry_Int_Tables_number	1
_symmetry_cell_setting	triclinic
loop_
_symmetry_equiv_pos_as_xyz
  x,y,z
_cell_length_a	10.8761
_cell_length_b	11.4866
_cell_length_c	13.4225
_cell_angle_alpha	69.499
_cell_angle_beta	79.992
_cell_angle_gamma	62.506
loop_
_atom_site_label
_atom_site_type_symbol
_atom_site_fract_x
_atom_site_fract_y
_atom_site_fract_z
_atom_site_charge
Mof_U 	U 	0.63156	0.70286	0.83306	-0.006
Mof_Nd	Nd	0.62063	0.21519	0.77498	1.709
Mof_O 	O 	0.8571	0.5283	0.907	-0.208
Mof_O 	O 	0.7742	0.4853	0.7943	-0.22
Mof_O 	O 	0.8535	0.2074	0.7612	-0.489
Mof_O 	O 	0.8983	0.3567	0.6227	-0.237
Mof_O 	O 	0.427	0.9095	0.8271	-0.226
Mof_O 	O 	0.517	0.0594	0.776	-0.447
Mof_O 	O 	0.4763	0.176	0.9315	-0.472
Mof_O 	O 	0.3121	0.2135	0.0544	-0.228
Mof_O 	O 	0.5068	0.6915	0.7124	-0.214
Mof_O 	O 	0.4252	0.7001	0.5698	-0.292
Mof_O 	O 	0.7362	0.6314	0.5318	-0.206
Mof_O 	O 	0.8575	0.7512	0.4773	-0.202
Mof_C 	C 	0.0083	0.3371	0.8459	-0.033
Mof_C 	C 	0.1172	0.3124	0.9048	-0.022
Mof_H 	H 	0.0992	0.3629	0.951	0.069
Mof_C 	C 	0.2507	0.2146	0.8957	-0.083
Mof_C 	C 	0.2773	0.1345	0.8281	-0.09
Mof_C 	C 	0.166	0.1551	0.7748	0.019
Mof_H 	H 	0.1815	0.0984	0.7342	0.041
Mof_C 	C 	0.0327	0.2576	0.7801	-0.073
Mof_C 	C 	0.6208	0.002	0.4518	-0.014
Mof_H 	H 	0.7036	0.0025	0.4198	0.053
Mof_C 	C 	0.6152	0.8755	0.5033	-0.037
Mof_C 	C 	0.4923	0.8748	0.5528	-0.042
Mof_C 	C 	0.8721	0.4555	0.85	0.275
Mof_C 	C 	0.3569	0.1986	0.9622	0.354
Mof_C 	C 	0.4188	0.0297	0.8087	0.366
Mof_C 	C 	0.9191	0.2775	0.717	0.379
Mof_C 	C 	0.4745	0.7458	0.6154	0.302
Mof_C 	C 	0.7426	0.7444	0.5056	0.273
Mof_U 	U 	0.36844	0.29714	0.16694	-0.005
Mof_Nd	Nd	0.37937	0.78481	0.22502	1.71
Mof_O 	O 	0.1429	0.4717	0.093	-0.207
Mof_O 	O 	0.2258	0.5147	0.2057	-0.22
Mof_O 	O 	0.1465	0.7926	0.2388	-0.489
Mof_O 	O 	0.1017	0.6433	0.3773	-0.237
Mof_O 	O 	0.573	0.0905	0.1729	-0.226
Mof_O 	O 	0.483	0.9406	0.224	-0.447
Mof_O 	O 	0.5237	0.824	0.0685	-0.472
Mof_O 	O 	0.6879	0.7865	0.9456	-0.228
Mof_O 	O 	0.4932	0.3085	0.2876	-0.214
Mof_O 	O 	0.5748	0.2999	0.4302	-0.292
Mof_O 	O 	0.2638	0.3686	0.4682	-0.206
Mof_O 	O 	0.1425	0.2488	0.5227	-0.203
Mof_C 	C 	0.9917	0.6629	0.1541	-0.033
Mof_C 	C 	0.8828	0.6876	0.0952	-0.022
Mof_H 	H 	0.9008	0.6371	0.049	0.069
Mof_C 	C 	0.7493	0.7854	0.1043	-0.083
Mof_C 	C 	0.7227	0.8655	0.1719	-0.09
Mof_C 	C 	0.834	0.8449	0.2252	0.019
Mof_H 	H 	0.8185	0.9016	0.2658	0.041
Mof_C 	C 	0.9673	0.7424	0.2199	-0.073
Mof_C 	C 	0.3792	0.998	0.5482	-0.014
Mof_H 	H 	0.2964	0.9975	0.5802	0.053
Mof_C 	C 	0.3848	0.1245	0.4967	-0.038
Mof_C 	C 	0.5077	0.1252	0.4472	-0.042
Mof_C 	C 	0.1279	0.5445	0.15	0.275
Mof_C 	C 	0.6431	0.8014	0.0378	0.354
Mof_C 	C 	0.5812	0.9703	0.1913	0.366
Mof_C 	C 	0.0809	0.7225	0.283	0.379
Mof_C 	C 	0.5255	0.2542	0.3846	0.302
Mof_C 	C 	0.2574	0.2556	0.4944	0.273
Mof_U 	U 	-0	0.5	0.5	0.001
_end
