data_functionalizedCrystal
_audit_creation_method	'EQeq! by Chris Wilmer'
_symmetry_space_group_name_H-M	'P1'
_symmetry_Int_Tables_number	1
_symmetry_cell_setting	triclinic
loop_
_symmetry_equiv_pos_as_xyz
  x,y,z
_cell_length_a	8.6817
_cell_length_b	34.1802
_cell_length_c	8.5822
_cell_angle_alpha	90
_cell_angle_beta	107.6
_cell_angle_gamma	90
loop_
_atom_site_label
_atom_site_type_symbol
_atom_site_fract_x
_atom_site_fract_y
_atom_site_fract_z
_atom_site_charge
Mof_Cu	Cu	0.74834	0.2034	0.47683	0.951
Mof_Cu	Cu	0.73752	0.04554	0.4982	0.95
Mof_O 	O 	0.89641	0.15347	0.60861	-0.252
Mof_O 	O 	0.84718	0.09008	0.62851	-0.289
Mof_O 	O 	0.62084	0.15997	0.35517	-0.288
Mof_O 	O 	0.61138	0.09504	0.33491	-0.246
Mof_O 	O 	0.62296	0.20571	0.63702	-0.278
Mof_O 	O 	0.58458	0.24812	0.8191	-0.24
Mof_O 	O 	0.87349	0.24638	0.61066	-0.294
Mof_O 	O 	0.85708	0.28757	0.80574	-0.292
Mof_O 	O 	0.90583	0.041	0.38567	-0.282
Mof_O 	O 	0.08819	0.00027	0.34173	-0.242
Mof_O 	O 	0.56868	0.04248	0.61159	-0.287
Mof_O 	O 	0.3776	0.00027	0.62768	-0.288
Mof_C 	C 	0.8177	0.12321	0.5609	0.227
Mof_C 	C 	0.6695	0.1259	0.4028	0.23
Mof_C 	C 	0.8097	0.2587	0.7148	0.24
Mof_C 	C 	0.6586	0.23608	0.7275	0.212
Mof_C 	C 	0.9998	0.01144	0.4211	0.23
Mof_C 	C 	0.4845	0.01237	0.5691	0.223
Mof_Cu	Cu	0.25166	0.7034	0.02317	0.943
Mof_Cu	Cu	0.26248	0.54554	0.0018	0.947
Mof_O 	O 	0.10359	0.65347	0.89139	-0.246
Mof_O 	O 	0.15282	0.59008	0.87149	-0.287
Mof_O 	O 	0.37916	0.65997	0.14483	-0.29
Mof_O 	O 	0.38862	0.59504	0.16509	-0.246
Mof_O 	O 	0.37704	0.70571	0.86298	-0.271
Mof_O 	O 	0.41542	0.74812	0.6809	-0.234
Mof_O 	O 	0.12651	0.74638	0.88934	-0.284
Mof_O 	O 	0.14292	0.78757	0.69426	-0.286
Mof_O 	O 	0.09417	0.541	0.11433	-0.284
Mof_O 	O 	0.91181	0.50027	0.15827	-0.238
Mof_O 	O 	0.43132	0.54248	0.88841	-0.283
Mof_O 	O 	0.6224	0.50027	0.87232	-0.288
Mof_C 	C 	0.1823	0.62321	0.9391	0.24
Mof_C 	C 	0.3305	0.6259	0.0972	0.218
Mof_C 	C 	0.1903	0.7587	0.7852	0.241
Mof_C 	C 	0.3414	0.73608	0.7725	0.214
Mof_C 	C 	0.0002	0.51144	0.0789	0.227
Mof_C 	C 	0.5155	0.51237	0.9309	0.223
Mof_Cu	Cu	0.25166	0.7966	0.52317	0.95
Mof_Cu	Cu	0.26248	0.95446	0.5018	0.949
Mof_O 	O 	0.10359	0.84653	0.39139	-0.252
Mof_O 	O 	0.15282	0.90992	0.37149	-0.289
Mof_O 	O 	0.37916	0.84003	0.64483	-0.288
Mof_O 	O 	0.38862	0.90496	0.66509	-0.246
Mof_O 	O 	0.37704	0.79429	0.36298	-0.278
Mof_O 	O 	0.41542	0.75188	0.1809	-0.24
Mof_O 	O 	0.12651	0.75362	0.38934	-0.294
Mof_O 	O 	0.14292	0.71243	0.19426	-0.292
Mof_O 	O 	0.09417	0.959	0.61433	-0.282
Mof_O 	O 	0.91181	0.99973	0.65827	-0.242
Mof_O 	O 	0.43132	0.95752	0.38841	-0.287
Mof_O 	O 	0.6224	0.99973	0.37232	-0.288
Mof_C 	C 	0.1823	0.87679	0.4391	0.227
Mof_C 	C 	0.3305	0.8741	0.5972	0.23
Mof_C 	C 	0.1903	0.7413	0.2852	0.24
Mof_C 	C 	0.3414	0.76392	0.2725	0.212
Mof_C 	C 	0.0002	0.98856	0.5789	0.23
Mof_C 	C 	0.5155	0.98763	0.4309	0.223
Mof_Cu	Cu	0.74834	0.2966	0.97683	0.943
Mof_Cu	Cu	0.73752	0.45446	0.9982	0.947
Mof_O 	O 	0.89641	0.34653	0.10861	-0.246
Mof_O 	O 	0.84718	0.40992	0.12851	-0.287
Mof_O 	O 	0.62084	0.34003	0.85517	-0.29
Mof_O 	O 	0.61138	0.40496	0.83491	-0.246
Mof_O 	O 	0.62296	0.29429	0.13702	-0.271
Mof_O 	O 	0.58458	0.25188	0.3191	-0.234
Mof_O 	O 	0.87349	0.25362	0.11066	-0.284
Mof_O 	O 	0.85708	0.21243	0.30574	-0.286
Mof_O 	O 	0.90583	0.459	0.88567	-0.284
Mof_O 	O 	0.08819	0.49973	0.84173	-0.238
Mof_O 	O 	0.56868	0.45752	0.11159	-0.283
Mof_O 	O 	0.3776	0.49973	0.12768	-0.288
Mof_C 	C 	0.8177	0.37679	0.0609	0.24
Mof_C 	C 	0.6695	0.3741	0.9028	0.218
Mof_C 	C 	0.8097	0.2413	0.2148	0.241
Mof_C 	C 	0.6586	0.26392	0.2275	0.214
Mof_C 	C 	0.9998	0.48856	0.9211	0.227
Mof_C 	C 	0.4845	0.48763	0.0691	0.223
_end
