data_functionalizedCrystal
_audit_creation_method	'EQeq! by Chris Wilmer'
_symmetry_space_group_name_H-M	'P1'
_symmetry_Int_Tables_number	1
_symmetry_cell_setting	triclinic
loop_
_symmetry_equiv_pos_as_xyz
  x,y,z
_cell_length_a	20.183
_cell_length_b	19.607
_cell_length_c	5.9778
_cell_angle_alpha	90
_cell_angle_beta	113.92
_cell_angle_gamma	90
loop_
_atom_site_label
_atom_site_type_symbol
_atom_site_fract_x
_atom_site_fract_y
_atom_site_fract_z
_atom_site_charge
Mof_N 	N 	0.593	0.0541	0.141	-0.31
Mof_H 	H 	0.5989	0.0732	0.285	0.072
Mof_H 	H 	0.6316	0.0272	0.1654	0.068
Mof_N 	N 	0.6439	0.2087	0.87	-0.254
Mof_H 	H 	0.6123	0.2391	0.8828	0.086
Mof_H 	H 	0.6287	0.1953	0.7131	0.074
Mof_N 	N 	0.8425	0.1935	0.608	-0.308
Mof_H 	H 	0.8797	0.2204	0.6173	0.094
Mof_H 	H 	0.8527	0.1758	0.7568	0.091
Mof_N 	N 	0.8994	0.0472	0.372	-0.263
Mof_H 	H 	0.8869	0.0624	0.218	0.068
Mof_H 	H 	0.8652	0.0179	0.3728	0.067
Mof_C 	C 	0.5854	0.1062	0.959	0.071
Mof_H 	H 	0.5441	0.1349	0.9377	-0.017
Mof_H 	H 	0.5762	0.0845	0.8032	-0.047
Mof_C 	C 	0.6527	0.1495	0.034	-0.149
Mof_H 	H 	0.6653	0.166	0.1995	0.011
Mof_H 	H 	0.6924	0.1215	0.0358	0.02
Mof_C 	C 	0.8335	0.1389	0.434	-0.002
Mof_H 	H 	0.8227	0.1566	0.271	-0.03
Mof_H 	H 	0.7954	0.1076	0.4263	-0.014
Mof_C 	C 	0.9069	0.1052	0.541	-0.081
Mof_H 	H 	0.9446	0.1364	0.5443	0.031
Mof_H 	H 	0.9181	0.0891	0.7058	0.019
Mof_N 	N 	0.093	0.5541	0.141	-0.314
Mof_H 	H 	0.0989	0.5732	0.285	0.075
Mof_H 	H 	0.1316	0.5272	0.1654	0.081
Mof_N 	N 	0.1439	0.7087	0.87	-0.251
Mof_H 	H 	0.1123	0.7391	0.8828	0.082
Mof_H 	H 	0.1287	0.6953	0.7131	0.071
Mof_N 	N 	0.3425	0.6935	0.608	-0.303
Mof_H 	H 	0.3797	0.7204	0.6173	0.088
Mof_H 	H 	0.3527	0.6758	0.7568	0.088
Mof_N 	N 	0.3994	0.5472	0.372	-0.287
Mof_H 	H 	0.3869	0.5624	0.218	0.068
Mof_H 	H 	0.3652	0.5179	0.3728	0.079
Mof_C 	C 	0.0854	0.6062	0.959	0.083
Mof_H 	H 	0.0441	0.6349	0.9377	-0.034
Mof_H 	H 	0.0762	0.5845	0.8032	-0.052
Mof_C 	C 	0.1527	0.6495	0.034	-0.159
Mof_H 	H 	0.1653	0.666	0.1995	0.014
Mof_H 	H 	0.1924	0.6215	0.0358	0.026
Mof_C 	C 	0.3335	0.6389	0.434	-0.016
Mof_H 	H 	0.3227	0.6566	0.271	-0.026
Mof_H 	H 	0.2954	0.6076	0.4263	-0.006
Mof_C 	C 	0.4069	0.6052	0.541	-0.06
Mof_H 	H 	0.4446	0.6364	0.5443	0.007
Mof_H 	H 	0.4181	0.5891	0.7058	-0.001
Mof_N 	N 	0.407	0.0541	0.359	-0.286
Mof_H 	H 	0.4011	0.0732	0.215	0.062
Mof_H 	H 	0.3684	0.0272	0.3346	0.065
Mof_N 	N 	0.3561	0.2087	0.63	-0.293
Mof_H 	H 	0.3877	0.2391	0.6172	0.087
Mof_H 	H 	0.3713	0.1953	0.7869	0.088
Mof_N 	N 	0.1575	0.1935	0.892	-0.26
Mof_H 	H 	0.1203	0.2204	0.8827	0.081
Mof_H 	H 	0.1473	0.1758	0.7432	0.071
Mof_N 	N 	0.1006	0.0472	0.128	-0.297
Mof_H 	H 	0.1131	0.0624	0.282	0.072
Mof_H 	H 	0.1348	0.0179	0.1272	0.066
Mof_C 	C 	0.4146	0.1062	0.541	-0.049
Mof_H 	H 	0.4559	0.1349	0.5623	0.009
Mof_H 	H 	0.4238	0.0845	0.6968	-0.008
Mof_C 	C 	0.3473	0.1495	0.466	-0.034
Mof_H 	H 	0.3347	0.166	0.3005	-0.019
Mof_H 	H 	0.3076	0.1215	0.4642	-0.006
Mof_C 	C 	0.1665	0.1389	0.066	-0.13
Mof_H 	H 	0.1773	0.1566	0.229	0.005
Mof_H 	H 	0.2046	0.1076	0.0737	0.017
Mof_C 	C 	0.0931	0.1052	0.959	0.054
Mof_H 	H 	0.0554	0.1364	0.9557	-0.024
Mof_H 	H 	0.0819	0.0891	0.7942	-0.04
Mof_N 	N 	0.907	0.5541	0.359	-0.278
Mof_H 	H 	0.9011	0.5732	0.215	0.073
Mof_H 	H 	0.8684	0.5272	0.3346	0.08
Mof_N 	N 	0.8561	0.7087	0.63	-0.297
Mof_H 	H 	0.8877	0.7391	0.6172	0.095
Mof_H 	H 	0.8713	0.6953	0.7869	0.094
Mof_N 	N 	0.6575	0.6935	0.892	-0.261
Mof_H 	H 	0.6203	0.7204	0.8827	0.086
Mof_H 	H 	0.6473	0.6758	0.7432	0.075
Mof_N 	N 	0.6006	0.5472	0.128	-0.309
Mof_H 	H 	0.6131	0.5624	0.282	0.078
Mof_H 	H 	0.6348	0.5179	0.1272	0.079
Mof_C 	C 	0.9146	0.6062	0.541	-0.06
Mof_H 	H 	0.9559	0.6349	0.5623	0.028
Mof_H 	H 	0.9238	0.5845	0.6968	0.011
Mof_C 	C 	0.8473	0.6495	0.466	-0.025
Mof_H 	H 	0.8347	0.666	0.3005	-0.02
Mof_H 	H 	0.8076	0.6215	0.4642	-0.005
Mof_C 	C 	0.6665	0.6389	0.066	-0.133
Mof_H 	H 	0.6773	0.6566	0.229	0.007
Mof_H 	H 	0.7046	0.6076	0.0737	0.022
Mof_C 	C 	0.5931	0.6052	0.959	0.058
Mof_H 	H 	0.5554	0.6364	0.9557	-0.018
Mof_H 	H 	0.5819	0.5891	0.7942	-0.04
Mof_N 	N 	0.407	0.9459	0.859	-0.248
Mof_H 	H 	0.4011	0.9268	0.715	0.081
Mof_H 	H 	0.3684	0.9728	0.8346	0.1
Mof_N 	N 	0.3561	0.7913	0.13	-0.308
Mof_H 	H 	0.3877	0.7609	0.1172	0.079
Mof_H 	H 	0.3713	0.8047	0.2869	0.082
Mof_N 	N 	0.1575	0.8065	0.392	-0.293
Mof_H 	H 	0.1203	0.7796	0.3827	0.075
Mof_H 	H 	0.1473	0.8242	0.2432	0.07
Mof_N 	N 	0.1006	0.9528	0.628	-0.281
Mof_H 	H 	0.1131	0.9376	0.782	0.099
Mof_H 	H 	0.1348	0.9821	0.6272	0.107
Mof_C 	C 	0.4146	0.8938	0.041	-0.142
Mof_H 	H 	0.4559	0.8651	0.0623	0.029
Mof_H 	H 	0.4238	0.9155	0.1968	0.021
Mof_C 	C 	0.3473	0.8505	0.966	0.061
Mof_H 	H 	0.3347	0.834	0.8005	-0.039
Mof_H 	H 	0.3076	0.8785	0.9642	-0.014
Mof_C 	C 	0.1665	0.8611	0.566	-0.041
Mof_H 	H 	0.1773	0.8434	0.729	-0.006
Mof_H 	H 	0.2046	0.8924	0.5737	0.01
Mof_C 	C 	0.0931	0.8948	0.459	-0.036
Mof_H 	H 	0.0554	0.8636	0.4557	-0.004
Mof_H 	H 	0.0819	0.9109	0.2942	-0.005
Mof_N 	N 	0.907	0.4459	0.859	-0.245
Mof_H 	H 	0.9011	0.4268	0.715	0.077
Mof_H 	H 	0.8684	0.4728	0.8346	0.086
Mof_N 	N 	0.8561	0.2913	0.13	-0.311
Mof_H 	H 	0.8877	0.2609	0.1172	0.086
Mof_H 	H 	0.8713	0.3047	0.2869	0.085
Mof_N 	N 	0.6575	0.3065	0.392	-0.295
Mof_H 	H 	0.6203	0.2796	0.3827	0.079
Mof_H 	H 	0.6473	0.3242	0.2432	0.07
Mof_N 	N 	0.6006	0.4528	0.628	-0.295
Mof_H 	H 	0.6131	0.4376	0.782	0.087
Mof_H 	H 	0.6348	0.4821	0.6272	0.088
Mof_C 	C 	0.9146	0.3938	0.041	-0.153
Mof_H 	H 	0.9559	0.3651	0.0623	0.046
Mof_H 	H 	0.9238	0.4155	0.1968	0.025
Mof_C 	C 	0.8473	0.3505	0.966	0.069
Mof_H 	H 	0.8347	0.334	0.8005	-0.041
Mof_H 	H 	0.8076	0.3785	0.9642	-0.021
Mof_C 	C 	0.6665	0.3611	0.566	-0.036
Mof_H 	H 	0.6773	0.3434	0.729	-0.009
Mof_H 	H 	0.7046	0.3924	0.5737	0.003
Mof_C 	C 	0.5931	0.3948	0.459	-0.04
Mof_H 	H 	0.5554	0.3636	0.4557	-0
Mof_H 	H 	0.5819	0.4109	0.2942	-0.017
Mof_N 	N 	0.593	0.9459	0.641	-0.291
Mof_H 	H 	0.5989	0.9268	0.785	0.095
Mof_H 	H 	0.6316	0.9728	0.6654	0.105
Mof_N 	N 	0.6439	0.7913	0.37	-0.285
Mof_H 	H 	0.6123	0.7609	0.3828	0.079
Mof_H 	H 	0.6287	0.8047	0.2131	0.071
Mof_N 	N 	0.8425	0.8065	0.108	-0.322
Mof_H 	H 	0.8797	0.7796	0.1173	0.086
Mof_H 	H 	0.8527	0.8242	0.2568	0.086
Mof_N 	N 	0.8994	0.9528	0.872	-0.232
Mof_H 	H 	0.8869	0.9376	0.718	0.091
Mof_H 	H 	0.8652	0.9821	0.8728	0.106
Mof_C 	C 	0.5854	0.8938	0.459	-0.026
Mof_H 	H 	0.5441	0.8651	0.4377	0.002
Mof_H 	H 	0.5762	0.9155	0.3032	-0.01
Mof_C 	C 	0.6527	0.8505	0.534	-0.057
Mof_H 	H 	0.6653	0.834	0.6995	-0.001
Mof_H 	H 	0.6924	0.8785	0.5358	0.01
Mof_C 	C 	0.8335	0.8611	0.934	0.087
Mof_H 	H 	0.8227	0.8434	0.771	-0.048
Mof_H 	H 	0.7954	0.8924	0.9263	-0.019
Mof_C 	C 	0.9069	0.8948	0.041	-0.164
Mof_H 	H 	0.9446	0.8636	0.0443	0.05
Mof_H 	H 	0.9181	0.9109	0.2058	0.047
Mof_N 	N 	0.093	0.4459	0.641	-0.3
Mof_H 	H 	0.0989	0.4268	0.785	0.084
Mof_H 	H 	0.1316	0.4728	0.6654	0.089
Mof_N 	N 	0.1439	0.2913	0.37	-0.281
Mof_H 	H 	0.1123	0.2609	0.3828	0.073
Mof_H 	H 	0.1287	0.3047	0.2131	0.065
Mof_N 	N 	0.3425	0.3065	0.108	-0.319
Mof_H 	H 	0.3797	0.2796	0.1173	0.08
Mof_H 	H 	0.3527	0.3242	0.2568	0.079
Mof_N 	N 	0.3994	0.4528	0.872	-0.255
Mof_H 	H 	0.3869	0.4376	0.718	0.073
Mof_H 	H 	0.3652	0.4821	0.8728	0.086
Mof_C 	C 	0.0854	0.3938	0.459	-0.015
Mof_H 	H 	0.0441	0.3651	0.4377	-0.017
Mof_H 	H 	0.0762	0.4155	0.3032	-0.03
Mof_C 	C 	0.1527	0.3505	0.534	-0.066
Mof_H 	H 	0.1653	0.334	0.6995	-0
Mof_H 	H 	0.1924	0.3785	0.5358	0.008
Mof_C 	C 	0.3335	0.3611	0.934	0.084
Mof_H 	H 	0.3227	0.3434	0.771	-0.049
Mof_H 	H 	0.2954	0.3924	0.9263	-0.024
Mof_C 	C 	0.4069	0.3948	0.041	-0.156
Mof_H 	H 	0.4446	0.3636	0.0443	0.026
Mof_H 	H 	0.4181	0.4109	0.2058	0.015
Mof_Ag	Ag	0.5	0	-0	0.282
Mof_Ag	Ag	5.8369e-33	0.5	-0	0.284
Mof_Ag	Ag	0.5	0	0.5	0.37
Mof_Ag	Ag	7.8038e-34	0.5	0.5	0.37
Mof_Ag	Ag	0.75	0.25	-0	0.308
Mof_Ag	Ag	0.25	0.25	0.5	0.391
Mof_Ag	Ag	0.25	0.75	-0	0.308
Mof_Ag	Ag	0.75	0.75	0.5	0.396
Mof_Ag	Ag	0.75	0.25	0.5	0.417
Mof_Ag	Ag	0.25	0.25	-0	0.328
Mof_Ag	Ag	0.25	0.75	0.5	0.418
Mof_Ag	Ag	0.75	0.75	-0	0.334
Mof_Ag	Ag	7.8038e-34	0	0.5	0.296
Mof_Ag	Ag	0.5	0.5	0.5	0.403
Mof_Ag	Ag	-0	0	-0	0.214
Mof_Ag	Ag	0.5	0.5	-0	0.315
_end
