data_functionalizedCrystal
_audit_creation_method	'EQeq! by Chris Wilmer'
_symmetry_space_group_name_H-M	'P1'
_symmetry_Int_Tables_number	1
_symmetry_cell_setting	triclinic
loop_
_symmetry_equiv_pos_as_xyz
  x,y,z
_cell_length_a	7.2891
_cell_length_b	7.2891
_cell_length_c	8.047
_cell_angle_alpha	90
_cell_angle_beta	90
_cell_angle_gamma	120
loop_
_atom_site_label
_atom_site_type_symbol
_atom_site_fract_x
_atom_site_fract_y
_atom_site_fract_z
_atom_site_charge
Mof_O 	O 	0.6903	0.1107	0.1061	-0.326
Mof_O 	O 	0.8893	0.5796	0.1061	-0.266
Mof_O 	O 	0.4204	0.3097	0.1061	-0.362
Mof_O 	O 	0.3097	0.8893	0.6061	-0.325
Mof_O 	O 	0.1107	0.4204	0.6061	-0.359
Mof_O 	O 	0.5796	0.6903	0.6061	-0.351
Mof_O 	O 	0.1107	0.6903	0.8939	-0.248
Mof_O 	O 	0.5796	0.8893	0.8939	-0.213
Mof_O 	O 	0.3097	0.4204	0.8939	-0.286
Mof_O 	O 	0.8893	0.3097	0.3939	-0.306
Mof_O 	O 	0.4204	0.1107	0.3939	-0.372
Mof_O 	O 	0.6903	0.5796	0.3939	-0.357
Mof_Ni	Ni	0.66667	0.33333	0.25	1.142
Mof_Ni	Ni	0.33333	0.66667	0.75	1.146
Mof_C 	C 	0.5586	0	-0	0.234
Mof_H 	H 	0.431	0	-0	-0.065
Mof_C 	C 	3.83802e-17	0.5586	-0	0.194
Mof_H 	H 	-0	0.431	-0	-0.057
Mof_C 	C 	0.4414	0.4414	-0	0.312
Mof_H 	H 	0.569	0.569	-0	-0.066
Mof_C 	C 	0.4414	0	0.5	0.381
Mof_H 	H 	0.569	0	0.5	-0.08
Mof_C 	C 	-2.92189e-17	0.4414	0.5	0.346
Mof_H 	H 	4.75416e-17	0.569	0.5	-0.075
Mof_C 	C 	0.5586	0.5586	0.5	0.459
Mof_H 	H 	0.431	0.431	0.5	-0.1
_end
