data_functionalizedCrystal
_audit_creation_method	'EQeq! by Chris Wilmer'
_symmetry_space_group_name_H-M	'P1'
_symmetry_Int_Tables_number	1
_symmetry_cell_setting	triclinic
loop_
_symmetry_equiv_pos_as_xyz
  x,y,z
_cell_length_a	13.984
_cell_length_b	14.792
_cell_length_c	15.364
_cell_angle_alpha	75.43
_cell_angle_beta	82.74
_cell_angle_gamma	77.74
loop_
_atom_site_label
_atom_site_type_symbol
_atom_site_fract_x
_atom_site_fract_y
_atom_site_fract_z
_atom_site_charge
Mof_Ba	Ba	0.18762	0.07141	0.05853	1.647
Mof_Ba	Ba	0.97085	0.19068	0.83363	1.847
Mof_S 	S 	0.94	0.6015	0.7001	0.649
Mof_S 	S 	0.2203	0.17123	0.82804	0.528
Mof_S 	S 	0.3078	0.8387	0.12026	0.584
Mof_S 	S 	0.06819	0.93346	0.91148	0.679
Mof_O 	O 	0.9736	0.6026	0.6202	-0.246
Mof_O 	O 	0.011	0.323	0.368	-0.154
Mof_O 	O 	0.0638	0.307	0.265	-0.17
Mof_O 	O 	0.992	0.354	0.458	-0.051
Mof_O 	O 	0.921	0.64	0.792	-0.19
Mof_O 	O 	0.2968	0.0999	0.8687	-0.367
Mof_O 	O 	0.1703	0.1482	0.7626	-0.393
Mof_O 	O 	0.1459	0.2047	0.898	-0.527
Mof_O 	O 	0.2021	0.8701	0.127	-0.558
Mof_O 	O 	0.3543	0.9231	0.088	-0.415
Mof_O 	O 	0.3446	0.7691	0.0711	-0.329
Mof_O 	O 	0.0269	0.8621	0.9814	-0.555
Mof_O 	O 	0.9912	0.9959	0.8567	-0.552
Mof_O 	O 	0.1232	0.986	0.9459	-0.506
Mof_O 	O 	0.996	0.9474	0.4983	-0.293
Mof_O 	O 	0.959	0.825	0.494	-0.324
Mof_O 	O 	0.041	0.8816	0.332	-0.348
Mof_O 	O 	0.9519	0.3544	0.7032	-0.859
Mof_H 	H 	0.1144	0.6279	0.3141	0.263
Mof_H 	H 	0.0326	0.5959	0.2742	0.363
Mof_H 	H 	0.004	0.655	0.3483	0.284
Mof_C 	C 	0.5134	0.6256	0.6254	0.268
Mof_C 	C 	0.4828	0.5288	0.6614	-0.399
Mof_H 	H 	0.4961	0.5055	0.7245	0.144
Mof_H 	H 	0.5218	0.4839	0.6285	0.143
Mof_C 	C 	0.374	0.534	0.6524	0.263
Mof_C 	C 	0.3525	0.5727	0.554	-0.392
Mof_H 	H 	0.3887	0.5286	0.5189	0.136
Mof_H 	H 	0.2831	0.5781	0.5485	0.145
Mof_C 	C 	0.3813	0.6707	0.5161	0.245
Mof_C 	C 	0.3211	0.7388	0.5745	-0.376
Mof_H 	H 	0.2517	0.7455	0.5679	0.137
Mof_H 	H 	0.3384	0.8012	0.5527	0.136
Mof_C 	C 	0.3398	0.7025	0.6738	0.249
Mof_C 	C 	0.4516	0.6933	0.6809	-0.384
Mof_H 	H 	0.4661	0.6699	0.7436	0.137
Mof_H 	H 	0.4692	0.7555	0.6596	0.138
Mof_C 	C 	0.4913	0.6618	0.5262	-0.391
Mof_H 	H 	0.5101	0.7233	0.5025	0.143
Mof_H 	H 	0.5296	0.6181	0.4916	0.139
Mof_C 	C 	0.3144	0.603	0.7091	-0.39
Mof_H 	H 	0.3291	0.5791	0.7717	0.144
Mof_H 	H 	0.2448	0.6068	0.706	0.15
Mof_C 	C 	0.6238	0.6128	0.6383	-0.083
Mof_C 	C 	0.6551	0.5811	0.725	-0.022
Mof_H 	H 	0.61	0.5675	0.7741	0.021
Mof_C 	C 	0.7538	0.5697	0.7384	-0.054
Mof_H 	H 	0.7748	0.5485	0.7964	0.043
Mof_C 	C 	0.8213	0.59	0.665	-0.031
Mof_C 	C 	0.7901	0.6217	0.5783	-0.032
Mof_H 	H 	0.8352	0.6352	0.5292	0.076
Mof_C 	C 	0.6913	0.6331	0.5649	-0.025
Mof_H 	H 	0.6704	0.6543	0.5069	0.033
Mof_C 	C 	0.3422	0.4384	0.6913	-0.049
Mof_C 	C 	0.4021	0.36	0.7361	-0.069
Mof_H 	H 	0.4675	0.3619	0.7396	0.051
Mof_C 	C 	0.3663	0.2764	0.7771	0.022
Mof_H 	H 	0.408	0.2243	0.8091	0.027
Mof_C 	C 	0.2719	0.2702	0.771	-0.133
Mof_C 	C 	0.2096	0.3491	0.7221	0.043
Mof_H 	H 	0.1446	0.3466	0.7173	-0.005
Mof_C 	C 	0.246	0.4294	0.6819	-0.081
Mof_H 	H 	0.2057	0.4802	0.6468	0.063
Mof_C 	C 	0.363	0.7103	0.4164	-0.037
Mof_C 	C 	0.3904	0.7958	0.371	-0.092
Mof_H 	H 	0.4201	0.8276	0.4019	0.047
Mof_C 	C 	0.3747	0.8351	0.2812	0.045
Mof_H 	H 	0.3914	0.8937	0.2529	-0.004
Mof_C 	C 	0.335	0.7879	0.2346	-0.166
Mof_C 	C 	0.3067	0.7027	0.2758	0.039
Mof_H 	H 	0.2793	0.6704	0.2435	-0.023
Mof_C 	C 	0.3203	0.6656	0.368	-0.099
Mof_H 	H 	0.2997	0.609	0.397	0.048
Mof_C 	C 	0.2758	0.7659	0.7299	-0.03
Mof_C 	C 	0.3111	0.8053	0.7897	-0.094
Mof_H 	H 	0.3786	0.7958	0.7934	0.052
Mof_C 	C 	0.2494	0.8582	0.8438	0.072
Mof_H 	H 	0.2751	0.8836	0.8833	0.009
Mof_C 	C 	0.1499	0.873	0.8389	-0.195
Mof_C 	C 	0.1111	0.835	0.7797	0.075
Mof_H 	H 	0.0436	0.8449	0.7762	-0.018
Mof_C 	C 	0.175	0.7824	0.7261	-0.104
Mof_H 	H 	0.1493	0.7573	0.6863	0.068
Mof_C 	C 	0.0998	0.8418	0.4102	0.23
Mof_C 	C 	0.099	0.907	0.4659	-0.288
Mof_H 	H 	0.0451	0.9615	0.462	0.329
Mof_H 	H 	0.161	0.9179	0.4785	0.113
Mof_C 	C 	0.071	0.792	0.508	-0.307
Mof_H 	H 	0.1189	0.7428	0.5409	0.129
Mof_H 	H 	0.0026	0.7865	0.5243	0.358
Mof_C 	C 	0.9455	0.9977	0.4178	-0.058
Mof_H 	H 	0.9786	0.0486	0.384	0.059
Mof_H 	H 	0.8786	0.0256	0.4348	0.059
Mof_C 	C 	0.052	0.732	0.476	0.026
Mof_C 	C 	0.9451	0.9288	0.3606	0.132
Mof_O 	O 	0.0125	0.4898	0.314	-0.08
Mof_O 	O 	0.989	0.497	0.372	0.117
Mof_O 	O 	0.957	0.498	0.78	-0.145
Mof_O 	O 	0.001	0.519	0.414	-0.164
Mof_O 	O 	0.0175	0.4858	0.265	-0.092
Mof_O 	O 	0.0516	0.5269	0.3233	-0.049
Mof_O 	O 	0.05	0.5181	0.29	-0.15
Mof_Ba	Ba	0.81238	0.92859	0.94147	1.648
Mof_Ba	Ba	0.02915	0.80932	0.16637	1.848
Mof_S 	S 	0.06	0.3985	0.2999	0.649
Mof_S 	S 	0.7797	0.82877	0.17196	0.528
Mof_S 	S 	0.6922	0.1613	0.87974	0.584
Mof_S 	S 	0.93181	0.06654	0.08852	0.679
Mof_O 	O 	0.0264	0.3974	0.3798	-0.246
Mof_O 	O 	0.989	0.677	0.632	-0.154
Mof_O 	O 	0.9362	0.693	0.735	-0.17
Mof_O 	O 	0.008	0.646	0.542	-0.051
Mof_O 	O 	0.079	0.36	0.208	-0.19
Mof_O 	O 	0.7032	0.9001	0.1313	-0.367
Mof_O 	O 	0.8297	0.8518	0.2374	-0.393
Mof_O 	O 	0.8541	0.7953	0.102	-0.527
Mof_O 	O 	0.7979	0.1299	0.873	-0.558
Mof_O 	O 	0.6457	0.0769	0.912	-0.415
Mof_O 	O 	0.6554	0.2309	0.9289	-0.329
Mof_O 	O 	0.9731	0.1379	0.0186	-0.555
Mof_O 	O 	0.0088	0.0041	0.1433	-0.552
Mof_O 	O 	0.8768	0.014	0.0541	-0.506
Mof_O 	O 	0.004	0.0526	0.5017	-0.293
Mof_O 	O 	0.041	0.175	0.506	-0.324
Mof_O 	O 	0.959	0.1184	0.668	-0.348
Mof_O 	O 	0.0481	0.6456	0.2968	-0.859
Mof_H 	H 	0.8856	0.3721	0.6859	0.263
Mof_H 	H 	0.9674	0.4041	0.7258	0.363
Mof_H 	H 	0.996	0.345	0.6517	0.284
Mof_C 	C 	0.4866	0.3744	0.3746	0.268
Mof_C 	C 	0.5172	0.4712	0.3386	-0.399
Mof_H 	H 	0.5039	0.4945	0.2755	0.144
Mof_H 	H 	0.4782	0.5161	0.3715	0.143
Mof_C 	C 	0.626	0.466	0.3476	0.263
Mof_C 	C 	0.6475	0.4273	0.446	-0.392
Mof_H 	H 	0.6113	0.4714	0.4811	0.136
Mof_H 	H 	0.7169	0.4219	0.4515	0.145
Mof_C 	C 	0.6187	0.3293	0.4839	0.245
Mof_C 	C 	0.6789	0.2612	0.4255	-0.376
Mof_H 	H 	0.7483	0.2545	0.4321	0.137
Mof_H 	H 	0.6616	0.1988	0.4473	0.136
Mof_C 	C 	0.6602	0.2975	0.3262	0.249
Mof_C 	C 	0.5484	0.3067	0.3191	-0.384
Mof_H 	H 	0.5339	0.3301	0.2564	0.137
Mof_H 	H 	0.5308	0.2445	0.3404	0.138
Mof_C 	C 	0.5087	0.3382	0.4738	-0.391
Mof_H 	H 	0.4899	0.2767	0.4975	0.143
Mof_H 	H 	0.4704	0.3819	0.5084	0.139
Mof_C 	C 	0.6856	0.397	0.2909	-0.39
Mof_H 	H 	0.6709	0.4209	0.2283	0.144
Mof_H 	H 	0.7552	0.3932	0.294	0.15
Mof_C 	C 	0.3762	0.3872	0.3617	-0.083
Mof_C 	C 	0.3449	0.4189	0.275	-0.022
Mof_H 	H 	0.39	0.4325	0.2259	0.021
Mof_C 	C 	0.2462	0.4303	0.2616	-0.054
Mof_H 	H 	0.2252	0.4515	0.2036	0.043
Mof_C 	C 	0.1787	0.41	0.335	-0.031
Mof_C 	C 	0.2099	0.3783	0.4217	-0.032
Mof_H 	H 	0.1648	0.3648	0.4708	0.076
Mof_C 	C 	0.3087	0.3669	0.4351	-0.025
Mof_H 	H 	0.3296	0.3457	0.4931	0.033
Mof_C 	C 	0.6578	0.5616	0.3087	-0.049
Mof_C 	C 	0.5979	0.64	0.2639	-0.069
Mof_H 	H 	0.5325	0.6381	0.2604	0.051
Mof_C 	C 	0.6337	0.7236	0.2229	0.022
Mof_H 	H 	0.592	0.7757	0.1909	0.027
Mof_C 	C 	0.7281	0.7298	0.229	-0.133
Mof_C 	C 	0.7904	0.6509	0.2779	0.043
Mof_H 	H 	0.8554	0.6534	0.2827	-0.005
Mof_C 	C 	0.754	0.5706	0.3181	-0.081
Mof_H 	H 	0.7943	0.5198	0.3532	0.063
Mof_C 	C 	0.637	0.2897	0.5836	-0.037
Mof_C 	C 	0.6096	0.2042	0.629	-0.092
Mof_H 	H 	0.5799	0.1724	0.5981	0.047
Mof_C 	C 	0.6253	0.1649	0.7188	0.045
Mof_H 	H 	0.6086	0.1063	0.7471	-0.004
Mof_C 	C 	0.665	0.2121	0.7654	-0.166
Mof_C 	C 	0.6933	0.2973	0.7242	0.039
Mof_H 	H 	0.7207	0.3296	0.7565	-0.023
Mof_C 	C 	0.6797	0.3344	0.632	-0.099
Mof_H 	H 	0.7003	0.391	0.603	0.048
Mof_C 	C 	0.7242	0.2341	0.2701	-0.03
Mof_C 	C 	0.6889	0.1947	0.2103	-0.094
Mof_H 	H 	0.6214	0.2042	0.2066	0.052
Mof_C 	C 	0.7506	0.1418	0.1562	0.072
Mof_H 	H 	0.7249	0.1164	0.1167	0.009
Mof_C 	C 	0.8501	0.127	0.1611	-0.195
Mof_C 	C 	0.8889	0.165	0.2203	0.075
Mof_H 	H 	0.9564	0.1551	0.2238	-0.018
Mof_C 	C 	0.825	0.2176	0.2739	-0.104
Mof_H 	H 	0.8507	0.2427	0.3137	0.068
Mof_C 	C 	0.9002	0.1582	0.5898	0.23
Mof_C 	C 	0.901	0.093	0.5341	-0.288
Mof_H 	H 	0.9549	0.0385	0.538	0.329
Mof_H 	H 	0.839	0.0821	0.5215	0.113
Mof_C 	C 	0.929	0.208	0.492	-0.307
Mof_H 	H 	0.8811	0.2572	0.4591	0.129
Mof_H 	H 	0.9974	0.2135	0.4757	0.358
Mof_C 	C 	0.0545	0.0023	0.5822	-0.058
Mof_H 	H 	0.0214	0.9514	0.616	0.059
Mof_H 	H 	0.1214	0.9744	0.5652	0.059
Mof_C 	C 	0.948	0.268	0.524	0.026
Mof_C 	C 	0.0549	0.0712	0.6394	0.132
Mof_O 	O 	0.9875	0.5102	0.686	-0.08
Mof_O 	O 	0.011	0.503	0.628	0.117
Mof_O 	O 	0.043	0.502	0.22	-0.145
Mof_O 	O 	0.999	0.481	0.586	-0.164
Mof_O 	O 	0.9825	0.5142	0.735	-0.092
Mof_O 	O 	0.9484	0.4731	0.6767	-0.049
Mof_O 	O 	0.95	0.4819	0.71	-0.15
_end
