data_functionalizedCrystal
_audit_creation_method	'EQeq! by Chris Wilmer'
_symmetry_space_group_name_H-M	'P1'
_symmetry_Int_Tables_number	1
_symmetry_cell_setting	triclinic
loop_
_symmetry_equiv_pos_as_xyz
  x,y,z
_cell_length_a	17.8736
_cell_length_b	17.8736
_cell_length_c	17.8736
_cell_angle_alpha	90
_cell_angle_beta	90
_cell_angle_gamma	90
loop_
_atom_site_label
_atom_site_type_symbol
_atom_site_fract_x
_atom_site_fract_y
_atom_site_fract_z
_atom_site_charge
Mof_Zr	Zr	0.3608	0.5112	0.0088	3.275
Mof_O 	O 	0.3095	0.6244	0.0297	-0.681
Mof_O 	O 	0.2919	0.4061	0.0072	-0.689
Mof_C 	C 	0.3368	0.6842	0.0225	0.573
Mof_C 	C 	0.3065	0.3423	0.0013	0.592
Mof_C 	C 	0.2428	0.2869	0.0027	-0.142
Mof_H 	H 	0.1902	0.3043	0.998	0.112
Mof_O 	O 	0.4071	0.7056	0.0209	-0.687
Mof_O 	O 	0.3729	0.314	0.9963	-0.629
Mof_C 	C 	0.2884	0.7541	0.0264	-0.152
Mof_H 	H 	0.316	0.7948	0.0241	0.138
Mof_O 	O 	0.4362	0.5771	0.0904	3.794
Mof_H 	H 	0.4111	0.6084	0.1239	-1.287
Mof_O 	O 	0.4499	0.5561	0.0662	-4.028
Mof_Zr	Zr	0.1392	0.9888	0.0088	3.273
Mof_O 	O 	0.1905	0.8756	0.0297	-0.683
Mof_O 	O 	0.2081	0.0939	0.0072	-0.688
Mof_C 	C 	0.1632	0.8158	0.0225	0.573
Mof_C 	C 	0.1935	0.1577	0.0013	0.596
Mof_C 	C 	0.2572	0.2131	0.0027	-0.145
Mof_H 	H 	0.3098	0.1957	0.998	0.111
Mof_O 	O 	0.0929	0.7944	0.0209	-0.687
Mof_O 	O 	0.1271	0.186	0.9963	-0.633
Mof_C 	C 	0.2116	0.7459	0.0264	-0.154
Mof_H 	H 	0.184	0.7052	0.0241	0.14
Mof_O 	O 	0.0638	0.9229	0.0904	3.802
Mof_H 	H 	0.0889	0.8916	0.1239	-1.291
Mof_O 	O 	0.0501	0.9439	0.0662	-4.035
Mof_Zr	Zr	0.1392	0.5112	0.4912	3.273
Mof_O 	O 	0.1905	0.6244	0.4703	-0.683
Mof_O 	O 	0.2081	0.4061	0.4928	-0.692
Mof_C 	C 	0.1632	0.6842	0.4775	0.572
Mof_C 	C 	0.1935	0.3423	0.4987	0.588
Mof_C 	C 	0.2572	0.2869	0.4973	-0.149
Mof_H 	H 	0.3098	0.3043	0.502	0.117
Mof_O 	O 	0.0929	0.7056	0.4791	-0.688
Mof_O 	O 	0.1271	0.314	0.5037	-0.625
Mof_C 	C 	0.2116	0.7541	0.4736	-0.153
Mof_H 	H 	0.184	0.7948	0.4759	0.138
Mof_O 	O 	0.0638	0.5771	0.4096	3.795
Mof_H 	H 	0.0889	0.6084	0.3761	-1.287
Mof_O 	O 	0.0501	0.5561	0.4338	-4.028
Mof_Zr	Zr	0.3608	0.9888	0.4912	3.273
Mof_O 	O 	0.3095	0.8756	0.4703	-0.683
Mof_O 	O 	0.2919	0.0939	0.4928	-0.69
Mof_C 	C 	0.3368	0.8158	0.4775	0.572
Mof_C 	C 	0.3065	0.1577	0.4987	0.588
Mof_C 	C 	0.2428	0.2131	0.4973	-0.149
Mof_H 	H 	0.1902	0.1957	0.502	0.117
Mof_O 	O 	0.4071	0.7944	0.4791	-0.688
Mof_O 	O 	0.3729	0.186	0.5037	-0.626
Mof_C 	C 	0.2884	0.7459	0.4736	-0.153
Mof_H 	H 	0.316	0.7052	0.4759	0.139
Mof_O 	O 	0.4362	0.9229	0.4096	3.791
Mof_H 	H 	0.4111	0.8916	0.3761	-1.287
Mof_O 	O 	0.4499	0.9439	0.4338	-4.026
Mof_Zr	Zr	0.0088	0.3608	0.5112	3.274
Mof_O 	O 	0.0297	0.3095	0.6244	-0.682
Mof_O 	O 	0.0072	0.2919	0.4061	-0.69
Mof_C 	C 	0.0225	0.3368	0.6842	0.572
Mof_C 	C 	0.0013	0.3065	0.3423	0.591
Mof_C 	C 	0.0027	0.2428	0.2869	-0.143
Mof_H 	H 	0.998	0.1902	0.3043	0.111
Mof_O 	O 	0.0209	0.4071	0.7056	-0.688
Mof_O 	O 	0.9963	0.3729	0.314	-0.629
Mof_C 	C 	0.0264	0.2884	0.7541	-0.152
Mof_H 	H 	0.0241	0.316	0.7948	0.138
Mof_O 	O 	0.0904	0.4362	0.5771	3.794
Mof_H 	H 	0.1239	0.4111	0.6084	-1.287
Mof_O 	O 	0.0662	0.4499	0.5561	-4.028
Mof_Zr	Zr	0.0088	0.1392	0.9888	3.273
Mof_O 	O 	0.0297	0.1905	0.8756	-0.683
Mof_O 	O 	0.0072	0.2081	0.0939	-0.688
Mof_C 	C 	0.0225	0.1632	0.8158	0.573
Mof_C 	C 	0.0013	0.1935	0.1577	0.596
Mof_C 	C 	0.0027	0.2572	0.2131	-0.145
Mof_H 	H 	0.998	0.3098	0.1957	0.111
Mof_O 	O 	0.0209	0.0929	0.7944	-0.687
Mof_O 	O 	0.9963	0.1271	0.186	-0.633
Mof_C 	C 	0.0264	0.2116	0.7459	-0.154
Mof_H 	H 	0.0241	0.184	0.7052	0.14
Mof_O 	O 	0.0904	0.0638	0.9229	3.802
Mof_H 	H 	0.1239	0.0889	0.8916	-1.291
Mof_O 	O 	0.0662	0.0501	0.9439	-4.035
Mof_Zr	Zr	0.4912	0.1392	0.5112	3.273
Mof_O 	O 	0.4703	0.1905	0.6244	-0.683
Mof_O 	O 	0.4928	0.2081	0.4061	-0.692
Mof_C 	C 	0.4775	0.1632	0.6842	0.572
Mof_C 	C 	0.4987	0.1935	0.3423	0.588
Mof_C 	C 	0.4973	0.2572	0.2869	-0.149
Mof_H 	H 	0.502	0.3098	0.3043	0.117
Mof_O 	O 	0.4791	0.0929	0.7056	-0.688
Mof_O 	O 	0.5037	0.1271	0.314	-0.625
Mof_C 	C 	0.4736	0.2116	0.7541	-0.153
Mof_H 	H 	0.4759	0.184	0.7948	0.138
Mof_O 	O 	0.4096	0.0638	0.5771	3.795
Mof_H 	H 	0.3761	0.0889	0.6084	-1.287
Mof_O 	O 	0.4338	0.0501	0.5561	-4.028
Mof_Zr	Zr	0.4912	0.3608	0.9888	3.273
Mof_O 	O 	0.4703	0.3095	0.8756	-0.683
Mof_O 	O 	0.4928	0.2919	0.0939	-0.69
Mof_C 	C 	0.4775	0.3368	0.8158	0.572
Mof_C 	C 	0.4987	0.3065	0.1577	0.588
Mof_C 	C 	0.4973	0.2428	0.2131	-0.149
Mof_H 	H 	0.502	0.1902	0.1957	0.117
Mof_O 	O 	0.4791	0.4071	0.7944	-0.688
Mof_O 	O 	0.5037	0.3729	0.186	-0.626
Mof_C 	C 	0.4736	0.2884	0.7459	-0.153
Mof_H 	H 	0.4759	0.316	0.7052	0.139
Mof_O 	O 	0.4096	0.4362	0.9229	3.791
Mof_H 	H 	0.3761	0.4111	0.8916	-1.287
Mof_O 	O 	0.4338	0.4499	0.9439	-4.026
Mof_Zr	Zr	0.5112	0.0088	0.3608	3.274
Mof_O 	O 	0.6244	0.0297	0.3095	-0.682
Mof_O 	O 	0.4061	0.0072	0.2919	-0.69
Mof_C 	C 	0.6842	0.0225	0.3368	0.572
Mof_C 	C 	0.3423	0.0013	0.3065	0.591
Mof_C 	C 	0.2869	0.0027	0.2428	-0.143
Mof_H 	H 	0.3043	0.998	0.1902	0.111
Mof_O 	O 	0.7056	0.0209	0.4071	-0.688
Mof_O 	O 	0.314	0.9963	0.3729	-0.629
Mof_C 	C 	0.7541	0.0264	0.2884	-0.152
Mof_H 	H 	0.7948	0.0241	0.316	0.138
Mof_O 	O 	0.5771	0.0904	0.4362	3.794
Mof_H 	H 	0.6084	0.1239	0.4111	-1.287
Mof_O 	O 	0.5561	0.0662	0.4499	-4.028
Mof_Zr	Zr	0.9888	0.0088	0.1392	3.273
Mof_O 	O 	0.8756	0.0297	0.1905	-0.683
Mof_O 	O 	0.0939	0.0072	0.2081	-0.688
Mof_C 	C 	0.8158	0.0225	0.1632	0.573
Mof_C 	C 	0.1577	0.0013	0.1935	0.596
Mof_C 	C 	0.2131	0.0027	0.2572	-0.145
Mof_H 	H 	0.1957	0.998	0.3098	0.111
Mof_O 	O 	0.7944	0.0209	0.0929	-0.687
Mof_O 	O 	0.186	0.9963	0.1271	-0.633
Mof_C 	C 	0.7459	0.0264	0.2116	-0.154
Mof_H 	H 	0.7052	0.0241	0.184	0.14
Mof_O 	O 	0.9229	0.0904	0.0638	3.802
Mof_H 	H 	0.8916	0.1239	0.0889	-1.291
Mof_O 	O 	0.9439	0.0662	0.0501	-4.035
Mof_Zr	Zr	0.5112	0.4912	0.1392	3.273
Mof_O 	O 	0.6244	0.4703	0.1905	-0.683
Mof_O 	O 	0.4061	0.4928	0.2081	-0.692
Mof_C 	C 	0.6842	0.4775	0.1632	0.572
Mof_C 	C 	0.3423	0.4987	0.1935	0.588
Mof_C 	C 	0.2869	0.4973	0.2572	-0.149
Mof_H 	H 	0.3043	0.502	0.3098	0.117
Mof_O 	O 	0.7056	0.4791	0.0929	-0.688
Mof_O 	O 	0.314	0.5037	0.1271	-0.625
Mof_C 	C 	0.7541	0.4736	0.2116	-0.153
Mof_H 	H 	0.7948	0.4759	0.184	0.138
Mof_O 	O 	0.5771	0.4096	0.0638	3.795
Mof_H 	H 	0.6084	0.3761	0.0889	-1.287
Mof_O 	O 	0.5561	0.4338	0.0501	-4.028
Mof_Zr	Zr	0.9888	0.4912	0.3608	3.273
Mof_O 	O 	0.8756	0.4703	0.3095	-0.683
Mof_O 	O 	0.0939	0.4928	0.2919	-0.69
Mof_C 	C 	0.8158	0.4775	0.3368	0.572
Mof_C 	C 	0.1577	0.4987	0.3065	0.588
Mof_C 	C 	0.2131	0.4973	0.2428	-0.149
Mof_H 	H 	0.1957	0.502	0.1902	0.117
Mof_O 	O 	0.7944	0.4791	0.4071	-0.688
Mof_O 	O 	0.186	0.5037	0.3729	-0.626
Mof_C 	C 	0.7459	0.4736	0.2884	-0.153
Mof_H 	H 	0.7052	0.4759	0.316	0.139
Mof_O 	O 	0.9229	0.4096	0.4362	3.791
Mof_H 	H 	0.8916	0.3761	0.4111	-1.287
Mof_O 	O 	0.9439	0.4338	0.4499	-4.026
Mof_Zr	Zr	0.6392	0.4888	0.9912	3.274
Mof_O 	O 	0.6905	0.3756	0.9703	-0.682
Mof_O 	O 	0.7081	0.5939	0.9928	-0.69
Mof_C 	C 	0.6632	0.3158	0.9775	0.572
Mof_C 	C 	0.6935	0.6577	0.9987	0.591
Mof_C 	C 	0.7572	0.7131	0.9973	-0.143
Mof_H 	H 	0.8098	0.6957	0.002	0.111
Mof_O 	O 	0.5929	0.2944	0.9791	-0.688
Mof_O 	O 	0.6271	0.686	0.0037	-0.629
Mof_C 	C 	0.7116	0.2459	0.9736	-0.152
Mof_H 	H 	0.684	0.2052	0.9759	0.138
Mof_O 	O 	0.5638	0.4229	0.9096	3.794
Mof_H 	H 	0.5889	0.3916	0.8761	-1.287
Mof_O 	O 	0.5501	0.4439	0.9338	-4.028
Mof_Zr	Zr	0.8608	0.0112	0.9912	3.273
Mof_O 	O 	0.8095	0.1244	0.9703	-0.683
Mof_O 	O 	0.7919	0.9061	0.9928	-0.688
Mof_C 	C 	0.8368	0.1842	0.9775	0.573
Mof_C 	C 	0.8065	0.8423	0.9987	0.596
Mof_C 	C 	0.7428	0.7869	0.9973	-0.145
Mof_H 	H 	0.6902	0.8043	0.002	0.111
Mof_O 	O 	0.9071	0.2056	0.9791	-0.687
Mof_O 	O 	0.8729	0.814	0.0037	-0.633
Mof_C 	C 	0.7884	0.2541	0.9736	-0.154
Mof_H 	H 	0.816	0.2948	0.9759	0.14
Mof_O 	O 	0.9362	0.0771	0.9096	3.802
Mof_H 	H 	0.9111	0.1084	0.8761	-1.291
Mof_O 	O 	0.9499	0.0561	0.9338	-4.035
Mof_Zr	Zr	0.8608	0.4888	0.5088	3.273
Mof_O 	O 	0.8095	0.3756	0.5297	-0.683
Mof_O 	O 	0.7919	0.5939	0.5072	-0.692
Mof_C 	C 	0.8368	0.3158	0.5225	0.572
Mof_C 	C 	0.8065	0.6577	0.5013	0.588
Mof_C 	C 	0.7428	0.7131	0.5027	-0.149
Mof_H 	H 	0.6902	0.6957	0.498	0.117
Mof_O 	O 	0.9071	0.2944	0.5209	-0.688
Mof_O 	O 	0.8729	0.686	0.4963	-0.625
Mof_C 	C 	0.7884	0.2459	0.5264	-0.153
Mof_H 	H 	0.816	0.2052	0.5241	0.138
Mof_O 	O 	0.9362	0.4229	0.5904	3.795
Mof_H 	H 	0.9111	0.3916	0.6239	-1.287
Mof_O 	O 	0.9499	0.4439	0.5662	-4.028
Mof_Zr	Zr	0.6392	0.0112	0.5088	3.273
Mof_O 	O 	0.6905	0.1244	0.5297	-0.683
Mof_O 	O 	0.7081	0.9061	0.5072	-0.69
Mof_C 	C 	0.6632	0.1842	0.5225	0.572
Mof_C 	C 	0.6935	0.8423	0.5013	0.588
Mof_C 	C 	0.7572	0.7869	0.5027	-0.149
Mof_H 	H 	0.8098	0.8043	0.498	0.117
Mof_O 	O 	0.5929	0.2056	0.5209	-0.688
Mof_O 	O 	0.6271	0.814	0.4963	-0.626
Mof_C 	C 	0.7116	0.2541	0.5264	-0.153
Mof_H 	H 	0.684	0.2948	0.5241	0.139
Mof_O 	O 	0.5638	0.0771	0.5904	3.791
Mof_H 	H 	0.5889	0.1084	0.6239	-1.287
Mof_O 	O 	0.5501	0.0561	0.5662	-4.026
Mof_Zr	Zr	0.9912	0.6392	0.4888	3.274
Mof_O 	O 	0.9703	0.6905	0.3756	-0.682
Mof_O 	O 	0.9928	0.7081	0.5939	-0.69
Mof_C 	C 	0.9775	0.6632	0.3158	0.572
Mof_C 	C 	0.9987	0.6935	0.6577	0.591
Mof_C 	C 	0.9973	0.7572	0.7131	-0.143
Mof_H 	H 	0.002	0.8098	0.6957	0.111
Mof_O 	O 	0.9791	0.5929	0.2944	-0.688
Mof_O 	O 	0.0037	0.6271	0.686	-0.629
Mof_C 	C 	0.9736	0.7116	0.2459	-0.152
Mof_H 	H 	0.9759	0.684	0.2052	0.138
Mof_O 	O 	0.9096	0.5638	0.4229	3.794
Mof_H 	H 	0.8761	0.5889	0.3916	-1.287
Mof_O 	O 	0.9338	0.5501	0.4439	-4.028
Mof_Zr	Zr	0.9912	0.8608	0.0112	3.273
Mof_O 	O 	0.9703	0.8095	0.1244	-0.683
Mof_O 	O 	0.9928	0.7919	0.9061	-0.688
Mof_C 	C 	0.9775	0.8368	0.1842	0.573
Mof_C 	C 	0.9987	0.8065	0.8423	0.596
Mof_C 	C 	0.9973	0.7428	0.7869	-0.145
Mof_H 	H 	0.002	0.6902	0.8043	0.111
Mof_O 	O 	0.9791	0.9071	0.2056	-0.687
Mof_O 	O 	0.0037	0.8729	0.814	-0.633
Mof_C 	C 	0.9736	0.7884	0.2541	-0.154
Mof_H 	H 	0.9759	0.816	0.2948	0.14
Mof_O 	O 	0.9096	0.9362	0.0771	3.802
Mof_H 	H 	0.8761	0.9111	0.1084	-1.291
Mof_O 	O 	0.9338	0.9499	0.0561	-4.035
Mof_Zr	Zr	0.5088	0.8608	0.4888	3.273
Mof_O 	O 	0.5297	0.8095	0.3756	-0.683
Mof_O 	O 	0.5072	0.7919	0.5939	-0.692
Mof_C 	C 	0.5225	0.8368	0.3158	0.572
Mof_C 	C 	0.5013	0.8065	0.6577	0.588
Mof_C 	C 	0.5027	0.7428	0.7131	-0.149
Mof_H 	H 	0.498	0.6902	0.6957	0.117
Mof_O 	O 	0.5209	0.9071	0.2944	-0.688
Mof_O 	O 	0.4963	0.8729	0.686	-0.625
Mof_C 	C 	0.5264	0.7884	0.2459	-0.153
Mof_H 	H 	0.5241	0.816	0.2052	0.138
Mof_O 	O 	0.5904	0.9362	0.4229	3.795
Mof_H 	H 	0.6239	0.9111	0.3916	-1.287
Mof_O 	O 	0.5662	0.9499	0.4439	-4.028
Mof_Zr	Zr	0.5088	0.6392	0.0112	3.273
Mof_O 	O 	0.5297	0.6905	0.1244	-0.683
Mof_O 	O 	0.5072	0.7081	0.9061	-0.69
Mof_C 	C 	0.5225	0.6632	0.1842	0.572
Mof_C 	C 	0.5013	0.6935	0.8423	0.588
Mof_C 	C 	0.5027	0.7572	0.7869	-0.149
Mof_H 	H 	0.498	0.8098	0.8043	0.117
Mof_O 	O 	0.5209	0.5929	0.2056	-0.688
Mof_O 	O 	0.4963	0.6271	0.814	-0.626
Mof_C 	C 	0.5264	0.7116	0.2541	-0.153
Mof_H 	H 	0.5241	0.684	0.2948	0.139
Mof_O 	O 	0.5904	0.5638	0.0771	3.791
Mof_H 	H 	0.6239	0.5889	0.1084	-1.287
Mof_O 	O 	0.5662	0.5501	0.0561	-4.026
Mof_Zr	Zr	0.4888	0.9912	0.6392	3.274
Mof_O 	O 	0.3756	0.9703	0.6905	-0.682
Mof_O 	O 	0.5939	0.9928	0.7081	-0.69
Mof_C 	C 	0.3158	0.9775	0.6632	0.572
Mof_C 	C 	0.6577	0.9987	0.6935	0.591
Mof_C 	C 	0.7131	0.9973	0.7572	-0.143
Mof_H 	H 	0.6957	0.002	0.8098	0.111
Mof_O 	O 	0.2944	0.9791	0.5929	-0.688
Mof_O 	O 	0.686	0.0037	0.6271	-0.629
Mof_C 	C 	0.2459	0.9736	0.7116	-0.152
Mof_H 	H 	0.2052	0.9759	0.684	0.138
Mof_O 	O 	0.4229	0.9096	0.5638	3.794
Mof_H 	H 	0.3916	0.8761	0.5889	-1.287
Mof_O 	O 	0.4439	0.9338	0.5501	-4.028
Mof_Zr	Zr	0.0112	0.9912	0.8608	3.273
Mof_O 	O 	0.1244	0.9703	0.8095	-0.683
Mof_O 	O 	0.9061	0.9928	0.7919	-0.688
Mof_C 	C 	0.1842	0.9775	0.8368	0.573
Mof_C 	C 	0.8423	0.9987	0.8065	0.596
Mof_C 	C 	0.7869	0.9973	0.7428	-0.145
Mof_H 	H 	0.8043	0.002	0.6902	0.111
Mof_O 	O 	0.2056	0.9791	0.9071	-0.687
Mof_O 	O 	0.814	0.0037	0.8729	-0.633
Mof_C 	C 	0.2541	0.9736	0.7884	-0.154
Mof_H 	H 	0.2948	0.9759	0.816	0.14
Mof_O 	O 	0.0771	0.9096	0.9362	3.802
Mof_H 	H 	0.1084	0.8761	0.9111	-1.291
Mof_O 	O 	0.0561	0.9338	0.9499	-4.035
Mof_Zr	Zr	0.4888	0.5088	0.8608	3.273
Mof_O 	O 	0.3756	0.5297	0.8095	-0.683
Mof_O 	O 	0.5939	0.5072	0.7919	-0.692
Mof_C 	C 	0.3158	0.5225	0.8368	0.572
Mof_C 	C 	0.6577	0.5013	0.8065	0.588
Mof_C 	C 	0.7131	0.5027	0.7428	-0.149
Mof_H 	H 	0.6957	0.498	0.6902	0.117
Mof_O 	O 	0.2944	0.5209	0.9071	-0.688
Mof_O 	O 	0.686	0.4963	0.8729	-0.625
Mof_C 	C 	0.2459	0.5264	0.7884	-0.153
Mof_H 	H 	0.2052	0.5241	0.816	0.138
Mof_O 	O 	0.4229	0.5904	0.9362	3.795
Mof_H 	H 	0.3916	0.6239	0.9111	-1.287
Mof_O 	O 	0.4439	0.5662	0.9499	-4.028
Mof_Zr	Zr	0.0112	0.5088	0.6392	3.273
Mof_O 	O 	0.1244	0.5297	0.6905	-0.683
Mof_O 	O 	0.9061	0.5072	0.7081	-0.69
Mof_C 	C 	0.1842	0.5225	0.6632	0.572
Mof_C 	C 	0.8423	0.5013	0.6935	0.588
Mof_C 	C 	0.7869	0.5027	0.7572	-0.149
Mof_H 	H 	0.8043	0.498	0.8098	0.117
Mof_O 	O 	0.2056	0.5209	0.5929	-0.688
Mof_O 	O 	0.814	0.4963	0.6271	-0.626
Mof_C 	C 	0.2541	0.5264	0.7116	-0.153
Mof_H 	H 	0.2948	0.5241	0.684	0.139
Mof_O 	O 	0.0771	0.5904	0.5638	3.791
Mof_H 	H 	0.1084	0.6239	0.5889	-1.287
Mof_O 	O 	0.0561	0.5662	0.5501	-4.026
Mof_O 	O 	0.4382	0.4382	0.0618	-0.527
Mof_H 	H 	0.393	0.393	0.107	-0.021
Mof_O 	O 	0.426	0.426	0.074	0.008
Mof_O 	O 	0.0618	0.0618	0.0618	-0.529
Mof_H 	H 	0.107	0.107	0.107	-0.021
Mof_O 	O 	0.074	0.074	0.074	0.018
Mof_O 	O 	0.0618	0.4382	0.4382	-0.527
Mof_H 	H 	0.107	0.393	0.393	-0.021
Mof_O 	O 	0.074	0.426	0.426	0.008
Mof_O 	O 	0.4382	0.0618	0.4382	-0.527
Mof_H 	H 	0.393	0.107	0.393	-0.021
Mof_O 	O 	0.426	0.074	0.426	0.008
Mof_O 	O 	0.5618	0.5618	0.9382	-0.527
Mof_H 	H 	0.607	0.607	0.893	-0.021
Mof_O 	O 	0.574	0.574	0.926	0.008
Mof_O 	O 	0.9382	0.9382	0.9382	-0.529
Mof_H 	H 	0.893	0.893	0.893	-0.021
Mof_O 	O 	0.926	0.926	0.926	0.018
Mof_O 	O 	0.9382	0.5618	0.5618	-0.527
Mof_H 	H 	0.893	0.607	0.607	-0.021
Mof_O 	O 	0.926	0.574	0.574	0.008
Mof_O 	O 	0.5618	0.9382	0.5618	-0.527
Mof_H 	H 	0.607	0.893	0.607	-0.021
Mof_O 	O 	0.574	0.926	0.574	0.008
_end
