data_functionalizedCrystal
_audit_creation_method	'EQeq! by Chris Wilmer'
_symmetry_space_group_name_H-M	'P1'
_symmetry_Int_Tables_number	1
_symmetry_cell_setting	triclinic
loop_
_symmetry_equiv_pos_as_xyz
  x,y,z
_cell_length_a	6.9575
_cell_length_b	7.4383
_cell_length_c	8.2578
_cell_angle_alpha	90.3665
_cell_angle_beta	109.803
_cell_angle_gamma	93.2398
loop_
_atom_site_label
_atom_site_type_symbol
_atom_site_fract_x
_atom_site_fract_y
_atom_site_fract_z
_atom_site_charge
Mof_Co	Co	0.49749	0.5005	0.0004	1.042
Mof_Co	Co	-0	0	-0	0.968
Mof_H 	H 	0.41906	0.29548	0.54038	-0.011
Mof_H 	H 	0.57101	0.70531	0.45781	0.096
Mof_C 	C 	0.45988	0.9337	0.33472	0.115
Mof_C 	C 	0.44993	0.17539	0.52409	0.161
Mof_C 	C 	0.41483	0.10799	0.35901	-0.31
Mof_C 	C 	0.34895	0.24118	0.21653	0.398
Mof_C 	C 	0.41952	0.84379	0.15953	0.317
Mof_C 	C 	0.53228	0.0691	0.66758	-0.263
Mof_C 	C 	0.57952	0.89091	0.64229	0.142
Mof_C 	C 	0.54174	0.82571	0.47511	-0.136
Mof_C 	C 	0.64479	0.75922	0.78577	0.281
Mof_C 	C 	0.57194	0.15771	0.83946	0.386
Mof_O 	O 	0.50863	0.64285	0.78782	-0.302
Mof_O 	O 	0.48222	0.36185	0.21458	-0.475
Mof_O 	O 	0.44084	0.26165	0.85102	-0.33
Mof_O 	O 	0.55281	0.74135	0.14938	-0.456
Mof_O 	O 	0.73193	0.12825	0.96428	-0.291
Mof_O 	O 	0.82647	0.76866	0.89049	-0.23
Mof_O 	O 	0.16518	0.23344	0.11291	-0.582
Mof_O 	O 	0.25763	0.86865	0.03902	-0.52
_end
