data_functionalizedCrystal
_audit_creation_method	'EQeq! by Chris Wilmer'
_symmetry_space_group_name_H-M	'P1'
_symmetry_Int_Tables_number	1
_symmetry_cell_setting	triclinic
loop_
_symmetry_equiv_pos_as_xyz
  x,y,z
_cell_length_a	17.4132
_cell_length_b	30.0058
_cell_length_c	30.0058
_cell_angle_alpha	85.1702
_cell_angle_beta	73.1322
_cell_angle_gamma	73.1322
loop_
_atom_site_label
_atom_site_type_symbol
_atom_site_fract_x
_atom_site_fract_y
_atom_site_fract_z
_atom_site_charge
Mof_Mn	Mn	0.37312	0.87948	0.02894	1.009
Mof_Mn	Mn	0.29325	0.00181	0.92077	1.059
Mof_Mn	Mn	0.49675	0.91596	0.14278	1.058
Mof_Mn	Mn	0.78154	0.62052	0.47106	1.01
Mof_Mn	Mn	0.71583	0.49819	0.57923	1.06
Mof_Mn	Mn	0.05549	0.58404	0.35722	1.058
Mof_Mn	Mn	0.40206	0.97106	0.37948	1.01
Mof_Mn	Mn	0.21402	0.07923	0.50181	1.06
Mof_Mn	Mn	0.63953	0.85722	0.41596	1.058
Mof_Mn	Mn	0.2526	0.52894	0.12052	1.01
Mof_Mn	Mn	0.29506	0.42077	0.99819	1.06
Mof_Mn	Mn	0.41271	0.64278	0.08404	1.058
Mof_Mn	Mn	0.62688	0.12052	0.97106	1.009
Mof_Mn	Mn	0.70675	0.99819	0.07923	1.059
Mof_Mn	Mn	0.50325	0.08404	0.85722	1.058
Mof_Mn	Mn	0.21846	0.37948	0.52894	1.01
Mof_Mn	Mn	0.28417	0.50181	0.42077	1.06
Mof_Mn	Mn	0.94451	0.41596	0.64278	1.058
Mof_Mn	Mn	0.59794	0.02894	0.62052	1.01
Mof_Mn	Mn	0.78598	0.92077	0.49819	1.06
Mof_Mn	Mn	0.36047	0.14278	0.58404	1.058
Mof_Mn	Mn	0.7474	0.47106	0.87948	1.01
Mof_Mn	Mn	0.70494	0.57923	0.00181	1.06
Mof_Mn	Mn	0.58729	0.35722	0.91596	1.058
Mof_H 	H 	0.1463	0.8908	0.143	0.144
Mof_H 	H 	0.0132	0.9342	0.151	-0.041
Mof_H 	H 	0.9727	0.9786	0.0914	0.115
Mof_H 	H 	0.0781	0.9832	0.0204	-0.004
Mof_H 	H 	0.523	0.9517	0.9071	0.069
Mof_H 	H 	0.4871	0.9268	0.876	0.059
Mof_H 	H 	0.5826	0.8597	0.8763	0.1
Mof_H 	H 	0.6332	0.8976	0.8702	0.097
Mof_H 	H 	0.6053	0.8742	0.92	0.107
Mof_H 	H 	0.2812	0.9278	0.806	0.139
Mof_H 	H 	0.3443	0.9276	0.7274	-0.042
Mof_H 	H 	0.4407	0.9711	0.6973	0.116
Mof_H 	H 	0.4747	0.0107	0.7481	-0.008
Mof_H 	H 	0.3809	0.1256	0.9584	0.056
Mof_H 	H 	0.3949	0.0866	0.9972	0.061
Mof_H 	H 	0.244	0.1051	0.0255	0.111
Mof_H 	H 	0.2851	0.1435	0.0347	0.096
Mof_H 	H 	0.2422	0.1505	0.9931	0.102
Mof_H 	H 	0.1334	0.0688	0.9804	-0.016
Mof_H 	H 	0.0269	0.1379	0.9779	0.107
Mof_H 	H 	0.11	0.1331	0.8421	0.133
Mof_H 	H 	0.2126	0.0671	0.8489	-0.041
Mof_H 	H 	0.9665	0.1748	0.8704	0.082
Mof_H 	H 	0.9999	0.2079	0.8945	0.079
Mof_H 	H 	0.6165	0.7843	0.1969	0.142
Mof_H 	H 	0.6126	0.7098	0.1884	-0.035
Mof_H 	H 	0.545	0.6939	0.1363	0.117
Mof_H 	H 	0.4838	0.7542	0.0946	0.004
Mof_H 	H 	0.3456	0.9916	0.0358	0.08
Mof_H 	H 	0.3782	0.0271	0.0577	0.083
Mof_H 	H 	0.2404	0.993	0.1196	0.104
Mof_H 	H 	0.2161	0.0363	0.0865	0.102
Mof_H 	H 	0.2592	0.0409	0.1257	0.103
Mof_H 	H 	0.6568	0.248	0.9106	-0.002
Mof_H 	H 	0.7659	0.1864	0.9208	0.102
Mof_H 	H 	0.8843	0.2802	0.9306	0.091
Mof_H 	H 	0.7724	0.3378	0.9224	-0.014
Mof_H 	H 	0.8917	0.1584	0.94	0.063
Mof_H 	H 	0.9233	0.1932	0.963	0.055
Mof_H 	H 	0.6801	0.6092	0.357	0.143
Mof_H 	H 	0.5984	0.5658	0.349	-0.042
Mof_H 	H 	0.5427	0.5214	0.4086	0.115
Mof_H 	H 	0.5817	0.5168	0.4796	-0.005
Mof_H 	H 	0.8818	0.5483	0.5929	0.069
Mof_H 	H 	0.7899	0.5732	0.624	0.059
Mof_H 	H 	0.8186	0.6403	0.6237	0.1
Mof_H 	H 	0.901	0.6024	0.6298	0.097
Mof_H 	H 	0.8995	0.6258	0.58	0.107
Mof_H 	H 	0.515	0.5722	0.694	0.139
Mof_H 	H 	0.4993	0.5724	0.7726	-0.042
Mof_H 	H 	0.6091	0.5289	0.8027	0.116
Mof_H 	H 	0.7335	0.4893	0.7519	-0.007
Mof_H 	H 	0.9649	0.3744	0.5416	0.055
Mof_H 	H 	0.9787	0.4134	0.5028	0.06
Mof_H 	H 	0.8746	0.3949	0.4745	0.113
Mof_H 	H 	0.9633	0.3565	0.4653	0.099
Mof_H 	H 	0.8858	0.3495	0.5069	0.105
Mof_H 	H 	0.6826	0.4312	0.5196	-0.016
Mof_H 	H 	0.6427	0.3621	0.5221	0.107
Mof_H 	H 	0.5852	0.3669	0.6579	0.133
Mof_H 	H 	0.6286	0.4329	0.6511	-0.041
Mof_H 	H 	0.5117	0.3252	0.6296	0.083
Mof_H 	H 	0.6023	0.2921	0.6055	0.08
Mof_H 	H 	0.0977	0.7157	0.3031	0.142
Mof_H 	H 	0.0108	0.7902	0.3116	-0.034
Mof_H 	H 	0.8752	0.8061	0.3637	0.117
Mof_H 	H 	0.8326	0.7458	0.4054	0.004
Mof_H 	H 	0.873	0.5084	0.4642	0.081
Mof_H 	H 	0.963	0.4729	0.4423	0.084
Mof_H 	H 	0.853	0.507	0.3804	0.105
Mof_H 	H 	0.8389	0.4637	0.4135	0.102
Mof_H 	H 	0.9258	0.4591	0.3743	0.102
Mof_H 	H 	0.3154	0.252	0.5894	-0.002
Mof_H 	H 	0.3731	0.3136	0.5792	0.102
Mof_H 	H 	0.5951	0.2198	0.5694	0.09
Mof_H 	H 	0.5326	0.1622	0.5776	-0.014
Mof_H 	H 	0.4901	0.3416	0.56	0.062
Mof_H 	H 	0.5795	0.3068	0.537	0.054
Mof_H 	H 	0.2893	0.857	0.3908	0.143
Mof_H 	H 	0.1642	0.849	0.4342	-0.042
Mof_H 	H 	0.0641	0.9086	0.4786	0.115
Mof_H 	H 	0.0985	0.9796	0.4832	-0.005
Mof_H 	H 	0.4301	0.0929	0.4517	0.069
Mof_H 	H 	0.3631	0.124	0.4268	0.059
Mof_H 	H 	0.4589	0.1237	0.3597	0.1
Mof_H 	H 	0.5034	0.1298	0.3976	0.097
Mof_H 	H 	0.5253	0.08	0.3742	0.107
Mof_H 	H 	0.0872	0.194	0.4278	0.139
Mof_H 	H 	0.0717	0.2726	0.4276	-0.042
Mof_H 	H 	0.138	0.3027	0.4711	0.116
Mof_H 	H 	0.2228	0.2519	0.5107	-0.007
Mof_H 	H 	0.3393	0.0416	0.6256	0.056
Mof_H 	H 	0.3921	0.0028	0.5866	0.061
Mof_H 	H 	0.2695	0.9745	0.6051	0.113
Mof_H 	H 	0.3198	0.9653	0.6435	0.098
Mof_H 	H 	0.2353	0.0069	0.6505	0.103
Mof_H 	H 	0.1138	0.0196	0.5688	-0.016
Mof_H 	H 	0.0048	0.0221	0.6379	0.107
Mof_H 	H 	0.9521	0.1579	0.6331	0.133
Mof_H 	H 	0.0615	0.1511	0.5671	-0.041
Mof_H 	H 	0.8369	0.1296	0.6748	0.083
Mof_H 	H 	0.8944	0.1055	0.7079	0.08
Mof_H 	H 	0.8134	0.8031	0.2843	0.142
Mof_H 	H 	0.801	0.8116	0.2098	-0.035
Mof_H 	H 	0.6813	0.8637	0.1939	0.117
Mof_H 	H 	0.5784	0.9054	0.2542	0.004
Mof_H 	H 	0.3814	0.9642	0.4916	0.081
Mof_H 	H 	0.4359	0.9423	0.5271	0.084
Mof_H 	H 	0.36	0.8804	0.493	0.105
Mof_H 	H 	0.3026	0.9135	0.5363	0.102
Mof_H 	H 	0.3849	0.8743	0.5409	0.102
Mof_H 	H 	0.5674	0.0894	0.748	-0.002
Mof_H 	H 	0.6867	0.0792	0.6864	0.102
Mof_H 	H 	0.8149	0.0694	0.7802	0.09
Mof_H 	H 	0.6948	0.0776	0.8378	-0.014
Mof_H 	H 	0.8317	0.06	0.6584	0.062
Mof_H 	H 	0.8863	0.037	0.6932	0.054
Mof_H 	H 	0.0371	0.643	0.1092	0.143
Mof_H 	H 	0.9474	0.651	0.0658	-0.042
Mof_H 	H 	0.9513	0.5914	0.0214	0.115
Mof_H 	H 	0.0613	0.5204	0.0168	-0.005
Mof_H 	H 	0.4747	0.4071	0.0483	0.069
Mof_H 	H 	0.4139	0.376	0.0732	0.059
Mof_H 	H 	0.4423	0.3763	0.1403	0.1
Mof_H 	H 	0.5308	0.3702	0.1024	0.097
Mof_H 	H 	0.4795	0.42	0.1258	0.107
Mof_H 	H 	0.209	0.306	0.0722	0.139
Mof_H 	H 	0.2719	0.2274	0.0724	-0.042
Mof_H 	H 	0.4118	0.1973	0.0289	0.116
Mof_H 	H 	0.4854	0.2481	0.9893	-0.008
Mof_H 	H 	0.5065	0.4584	0.8744	0.055
Mof_H 	H 	0.4815	0.4972	0.9134	0.06
Mof_H 	H 	0.3491	0.5255	0.8949	0.113
Mof_H 	H 	0.4286	0.5347	0.8565	0.099
Mof_H 	H 	0.3927	0.4931	0.8495	0.105
Mof_H 	H 	0.2022	0.4804	0.9312	-0.016
Mof_H 	H 	0.1648	0.4779	0.8621	0.107
Mof_H 	H 	0.2431	0.3421	0.8669	0.133
Mof_H 	H 	0.2797	0.3489	0.9329	-0.042
Mof_H 	H 	0.1413	0.3704	0.8252	0.083
Mof_H 	H 	0.2078	0.3945	0.7921	0.08
Mof_H 	H 	0.4008	0.6969	0.2157	0.142
Mof_H 	H 	0.3224	0.6884	0.2902	-0.035
Mof_H 	H 	0.2389	0.6363	0.3061	0.117
Mof_H 	H 	0.238	0.5946	0.2458	0.004
Mof_H 	H 	0.3372	0.5358	0.0084	0.081
Mof_H 	H 	0.4053	0.5577	0.9729	0.084
Mof_H 	H 	0.2334	0.6196	0.007	0.105
Mof_H 	H 	0.2524	0.5865	0.9637	0.102
Mof_H 	H 	0.3001	0.6257	0.9591	0.102
Mof_H 	H 	0.9048	0.4106	0.752	-0.002
Mof_H 	H 	0.9523	0.4208	0.8136	0.102
Mof_H 	H 	0.1645	0.4306	0.7198	0.09
Mof_H 	H 	0.1102	0.4224	0.6622	-0.014
Mof_H 	H 	0.0501	0.44	0.8416	0.062
Mof_H 	H 	0.1165	0.463	0.8068	0.054
Mof_H 	H 	0.8537	0.1092	0.857	0.143
Mof_H 	H 	0.9868	0.0658	0.849	-0.042
Mof_H 	H 	0.0273	0.0214	0.9086	0.114
Mof_H 	H 	0.9219	0.0168	0.9796	-0.005
Mof_H 	H 	0.477	0.0483	0.0929	0.069
Mof_H 	H 	0.5129	0.0732	0.124	0.059
Mof_H 	H 	0.4174	0.1403	0.1237	0.1
Mof_H 	H 	0.3668	0.1024	0.1298	0.097
Mof_H 	H 	0.3947	0.1258	0.08	0.107
Mof_H 	H 	0.7188	0.0722	0.194	0.139
Mof_H 	H 	0.6557	0.0724	0.2726	-0.042
Mof_H 	H 	0.5593	0.0289	0.3027	0.116
Mof_H 	H 	0.5253	0.9893	0.2519	-0.008
Mof_H 	H 	0.6191	0.8744	0.0416	0.056
Mof_H 	H 	0.6051	0.9134	0.0028	0.061
Mof_H 	H 	0.756	0.8949	0.9745	0.111
Mof_H 	H 	0.7149	0.8565	0.9653	0.096
Mof_H 	H 	0.7578	0.8495	0.0069	0.102
Mof_H 	H 	0.8666	0.9312	0.0196	-0.016
Mof_H 	H 	0.9731	0.8621	0.0221	0.107
Mof_H 	H 	0.89	0.8669	0.1579	0.133
Mof_H 	H 	0.7874	0.9329	0.1511	-0.041
Mof_H 	H 	0.0335	0.8252	0.1296	0.082
Mof_H 	H 	0.0001	0.7921	0.1055	0.079
Mof_H 	H 	0.3835	0.2157	0.8031	0.142
Mof_H 	H 	0.3874	0.2902	0.8116	-0.035
Mof_H 	H 	0.455	0.3061	0.8637	0.117
Mof_H 	H 	0.5162	0.2458	0.9054	0.004
Mof_H 	H 	0.6544	0.0084	0.9642	0.08
Mof_H 	H 	0.6218	0.9729	0.9423	0.083
Mof_H 	H 	0.7596	0.007	0.8804	0.104
Mof_H 	H 	0.7839	0.9637	0.9135	0.102
Mof_H 	H 	0.7408	0.9591	0.8743	0.103
Mof_H 	H 	0.3432	0.752	0.0894	-0.002
Mof_H 	H 	0.2341	0.8136	0.0792	0.102
Mof_H 	H 	0.1157	0.7198	0.0694	0.091
Mof_H 	H 	0.2276	0.6622	0.0776	-0.014
Mof_H 	H 	0.1083	0.8416	0.06	0.063
Mof_H 	H 	0.0767	0.8068	0.037	0.055
Mof_H 	H 	0.3199	0.3908	0.643	0.143
Mof_H 	H 	0.4016	0.4342	0.651	-0.042
Mof_H 	H 	0.4573	0.4786	0.5914	0.115
Mof_H 	H 	0.4183	0.4832	0.5204	-0.005
Mof_H 	H 	0.1182	0.4517	0.4071	0.069
Mof_H 	H 	0.2101	0.4268	0.376	0.059
Mof_H 	H 	0.1814	0.3597	0.3763	0.1
Mof_H 	H 	0.099	0.3976	0.3702	0.097
Mof_H 	H 	0.1005	0.3742	0.42	0.107
Mof_H 	H 	0.485	0.4278	0.306	0.139
Mof_H 	H 	0.5007	0.4276	0.2274	-0.042
Mof_H 	H 	0.3909	0.4711	0.1973	0.116
Mof_H 	H 	0.2665	0.5107	0.2481	-0.007
Mof_H 	H 	0.0351	0.6256	0.4584	0.055
Mof_H 	H 	0.0213	0.5866	0.4972	0.06
Mof_H 	H 	0.1254	0.6051	0.5255	0.113
Mof_H 	H 	0.0367	0.6435	0.5347	0.099
Mof_H 	H 	0.1142	0.6505	0.4931	0.105
Mof_H 	H 	0.3174	0.5688	0.4804	-0.016
Mof_H 	H 	0.3573	0.6379	0.4779	0.107
Mof_H 	H 	0.4148	0.6331	0.3421	0.133
Mof_H 	H 	0.3714	0.5671	0.3489	-0.041
Mof_H 	H 	0.4883	0.6748	0.3704	0.083
Mof_H 	H 	0.3977	0.7079	0.3945	0.08
Mof_H 	H 	0.9023	0.2843	0.6969	0.142
Mof_H 	H 	0.9892	0.2098	0.6884	-0.034
Mof_H 	H 	0.1248	0.1939	0.6363	0.117
Mof_H 	H 	0.1674	0.2542	0.5946	0.004
Mof_H 	H 	0.127	0.4916	0.5358	0.081
Mof_H 	H 	0.037	0.5271	0.5577	0.084
Mof_H 	H 	0.147	0.493	0.6196	0.105
Mof_H 	H 	0.1611	0.5363	0.5865	0.102
Mof_H 	H 	0.0742	0.5409	0.6257	0.102
Mof_H 	H 	0.6846	0.748	0.4106	-0.002
Mof_H 	H 	0.6269	0.6864	0.4208	0.102
Mof_H 	H 	0.4049	0.7802	0.4306	0.09
Mof_H 	H 	0.4674	0.8378	0.4224	-0.014
Mof_H 	H 	0.5099	0.6584	0.44	0.062
Mof_H 	H 	0.4205	0.6932	0.463	0.054
Mof_H 	H 	0.7107	0.143	0.6092	0.143
Mof_H 	H 	0.8358	0.151	0.5658	-0.042
Mof_H 	H 	0.9359	0.0914	0.5214	0.115
Mof_H 	H 	0.9015	0.0204	0.5168	-0.005
Mof_H 	H 	0.5699	0.9071	0.5483	0.069
Mof_H 	H 	0.6369	0.876	0.5732	0.059
Mof_H 	H 	0.5411	0.8763	0.6403	0.1
Mof_H 	H 	0.4966	0.8702	0.6024	0.097
Mof_H 	H 	0.4747	0.92	0.6258	0.107
Mof_H 	H 	0.9128	0.806	0.5722	0.139
Mof_H 	H 	0.9283	0.7274	0.5724	-0.042
Mof_H 	H 	0.862	0.6973	0.5289	0.116
Mof_H 	H 	0.7772	0.7481	0.4893	-0.007
Mof_H 	H 	0.6607	0.9584	0.3744	0.056
Mof_H 	H 	0.6079	0.9972	0.4134	0.061
Mof_H 	H 	0.7305	0.0255	0.3949	0.113
Mof_H 	H 	0.6802	0.0347	0.3565	0.098
Mof_H 	H 	0.7647	0.9931	0.3495	0.103
Mof_H 	H 	0.8862	0.9804	0.4312	-0.016
Mof_H 	H 	0.9952	0.9779	0.3621	0.107
Mof_H 	H 	0.0479	0.8421	0.3669	0.133
Mof_H 	H 	0.9385	0.8489	0.4329	-0.041
Mof_H 	H 	0.1631	0.8704	0.3252	0.083
Mof_H 	H 	0.1056	0.8945	0.2921	0.08
Mof_H 	H 	0.1866	0.1969	0.7157	0.142
Mof_H 	H 	0.199	0.1884	0.7902	-0.035
Mof_H 	H 	0.3187	0.1363	0.8061	0.117
Mof_H 	H 	0.4216	0.0946	0.7458	0.004
Mof_H 	H 	0.6186	0.0358	0.5084	0.081
Mof_H 	H 	0.5641	0.0577	0.4729	0.084
Mof_H 	H 	0.64	0.1196	0.507	0.105
Mof_H 	H 	0.6974	0.0865	0.4637	0.102
Mof_H 	H 	0.6151	0.1257	0.4591	0.102
Mof_H 	H 	0.4326	0.9106	0.252	-0.002
Mof_H 	H 	0.3133	0.9208	0.3136	0.102
Mof_H 	H 	0.1851	0.9306	0.2198	0.09
Mof_H 	H 	0.3052	0.9224	0.1622	-0.014
Mof_H 	H 	0.1683	0.94	0.3416	0.062
Mof_H 	H 	0.1137	0.963	0.3068	0.054
Mof_H 	H 	0.9629	0.357	0.8908	0.143
Mof_H 	H 	0.0526	0.349	0.9342	-0.042
Mof_H 	H 	0.0487	0.4086	0.9786	0.115
Mof_H 	H 	0.9387	0.4796	0.9832	-0.005
Mof_H 	H 	0.5253	0.5929	0.9517	0.069
Mof_H 	H 	0.5861	0.624	0.9268	0.059
Mof_H 	H 	0.5577	0.6237	0.8597	0.1
Mof_H 	H 	0.4692	0.6298	0.8976	0.097
Mof_H 	H 	0.5205	0.58	0.8742	0.107
Mof_H 	H 	0.791	0.694	0.9278	0.139
Mof_H 	H 	0.7281	0.7726	0.9276	-0.042
Mof_H 	H 	0.5882	0.8027	0.9711	0.116
Mof_H 	H 	0.5146	0.7519	0.0107	-0.008
Mof_H 	H 	0.4935	0.5416	0.1256	0.055
Mof_H 	H 	0.5185	0.5028	0.0866	0.06
Mof_H 	H 	0.6509	0.4745	0.1051	0.113
Mof_H 	H 	0.5714	0.4653	0.1435	0.099
Mof_H 	H 	0.6073	0.5069	0.1505	0.105
Mof_H 	H 	0.7978	0.5196	0.0688	-0.016
Mof_H 	H 	0.8352	0.5221	0.1379	0.107
Mof_H 	H 	0.7569	0.6579	0.1331	0.133
Mof_H 	H 	0.7203	0.6511	0.0671	-0.042
Mof_H 	H 	0.8587	0.6296	0.1748	0.083
Mof_H 	H 	0.7922	0.6055	0.2079	0.08
Mof_H 	H 	0.5992	0.3031	0.7843	0.142
Mof_H 	H 	0.6776	0.3116	0.7098	-0.035
Mof_H 	H 	0.7611	0.3637	0.6939	0.117
Mof_H 	H 	0.762	0.4054	0.7542	0.004
Mof_H 	H 	0.6628	0.4642	0.9916	0.081
Mof_H 	H 	0.5947	0.4423	0.0271	0.084
Mof_H 	H 	0.7666	0.3804	0.993	0.105
Mof_H 	H 	0.7476	0.4135	0.0363	0.102
Mof_H 	H 	0.6999	0.3743	0.0409	0.102
Mof_H 	H 	0.0952	0.5894	0.248	-0.002
Mof_H 	H 	0.0477	0.5792	0.1864	0.102
Mof_H 	H 	0.8355	0.5694	0.2802	0.09
Mof_H 	H 	0.8898	0.5776	0.3378	-0.014
Mof_H 	H 	0.9499	0.56	0.1584	0.062
Mof_H 	H 	0.8835	0.537	0.1932	0.054
Mof_C 	C 	0.19749	0.91132	0.0775	0.338
Mof_C 	C 	0.1334	0.9101	0.1179	-0.327
Mof_C 	C 	0.054	0.9353	0.1223	0.2
Mof_C 	C 	0.0297	0.9622	0.0878	-0.24
Mof_C 	C 	0.0929	0.965	0.0458	0.151
Mof_C 	C 	0.17547	0.94153	0.04193	-0.27
Mof_C 	C 	0.23524	0.94935	0.99877	0.314
Mof_C 	C 	0.44512	0.91434	0.94582	0.232
Mof_C 	C 	0.51074	0.92243	0.90289	-0.137
Mof_C 	C 	0.5895	0.8854	0.8914	-0.262
Mof_C 	C 	0.33497	0.97112	0.82594	0.336
Mof_C 	C 	0.3197	0.94572	0.79448	-0.306
Mof_C 	C 	0.35731	0.9452	0.74758	0.178
Mof_C 	C 	0.41474	0.97055	0.72977	-0.243
Mof_C 	C 	0.43299	0.99482	0.7602	0.172
Mof_C 	C 	0.39485	0.99734	0.80636	-0.26
Mof_C 	C 	0.41384	0.02661	0.83611	0.295
Mof_C 	C 	0.3515	0.06629	0.94711	0.227
Mof_C 	C 	0.35649	0.10242	0.9784	-0.126
Mof_C 	C 	0.275	0.1275	0.0107	-0.268
Mof_C 	C 	0.1281	0.0816	0.951	0.155
Mof_C 	C 	0.0627	0.1218	0.9504	-0.247
Mof_C 	C 	0.0541	0.1366	0.9056	0.233
Mof_C 	C 	0.1094	0.1196	0.872	-0.325
Mof_C 	C 	0.1723	0.0805	0.8767	0.203
Mof_C 	C 	0.9801	0.1797	0.8991	-0.197
Mof_C 	C 	0.55	0.81572	0.15248	0.332
Mof_C 	C 	0.58804	0.77877	0.17615	-0.307
Mof_C 	C 	0.58644	0.73439	0.17093	0.171
Mof_C 	C 	0.54657	0.72472	0.14014	-0.231
Mof_C 	C 	0.51029	0.76067	0.11595	0.157
Mof_C 	C 	0.50943	0.80689	0.12045	-0.257
Mof_C 	C 	0.46746	0.84298	0.0937	0.307
Mof_C 	C 	0.40315	0.96142	0.08608	0.242
Mof_C 	C 	0.3512	0.00152	0.06508	-0.179
Mof_C 	C 	0.257	0.0198	0.1032	-0.264
Mof_C 	C 	0.70361	0.25456	0.91582	0.125
Mof_C 	C 	0.7688	0.2175	0.9215	-0.198
Mof_C 	C 	0.8393	0.2264	0.928	0.133
Mof_C 	C 	0.8373	0.2723	0.9273	-0.202
Mof_C 	C 	0.77083	0.30645	0.92229	0.123
Mof_C 	C 	0.91	0.1872	0.9346	-0.12
Mof_C 	C 	0.68631	0.58868	0.4225	0.338
Mof_C 	C 	0.6614	0.5899	0.3821	-0.328
Mof_C 	C 	0.6116	0.5647	0.3777	0.201
Mof_C 	C 	0.5797	0.5378	0.4122	-0.242
Mof_C 	C 	0.6037	0.535	0.4542	0.152
Mof_C 	C 	0.65893	0.55847	0.45807	-0.27
Mof_C 	C 	0.68336	0.55065	0.50123	0.313
Mof_C 	C 	0.80528	0.58566	0.55418	0.232
Mof_C 	C 	0.83606	0.57757	0.59711	-0.137
Mof_C 	C 	0.8663	0.6146	0.6086	-0.262
Mof_C 	C 	0.63203	0.52888	0.67406	0.336
Mof_C 	C 	0.5599	0.55428	0.70552	-0.306
Mof_C 	C 	0.55009	0.5548	0.75242	0.177
Mof_C 	C 	0.61506	0.52945	0.77023	-0.243
Mof_C 	C 	0.68801	0.50518	0.7398	0.171
Mof_C 	C 	0.69855	0.50266	0.69364	-0.26
Mof_C 	C 	0.77656	0.47339	0.66389	0.295
Mof_C 	C 	0.8649	0.43371	0.55289	0.225
Mof_C 	C 	0.93731	0.39758	0.5216	-0.121
Mof_C 	C 	0.9132	0.3725	0.4893	-0.277
Mof_C 	C 	0.6607	0.4184	0.549	0.155
Mof_C 	C 	0.6349	0.3782	0.5496	-0.248
Mof_C 	C 	0.5963	0.3634	0.5944	0.235
Mof_C 	C 	0.601	0.3804	0.628	-0.327
Mof_C 	C 	0.6295	0.4195	0.6233	0.204
Mof_C 	C 	0.5589	0.3203	0.6009	-0.199
Mof_C 	C 	0.0182	0.68428	0.34752	0.332
Mof_C 	C 	0.04296	0.72123	0.32385	-0.306
Mof_C 	C 	0.99176	0.76561	0.32907	0.17
Mof_C 	C 	0.91143	0.77528	0.35986	-0.23
Mof_C 	C 	0.88691	0.73933	0.38405	0.156
Mof_C 	C 	0.93677	0.69311	0.37955	-0.257
Mof_C 	C 	0.90414	0.65702	0.4063	0.307
Mof_C 	C 	0.95065	0.53858	0.41392	0.244
Mof_C 	C 	0.9178	0.49848	0.43492	-0.182
Mof_C 	C 	0.88	0.4802	0.3968	-0.264
Mof_C 	C 	0.37399	0.24544	0.58418	0.125
Mof_C 	C 	0.4078	0.2825	0.5785	-0.198
Mof_C 	C 	0.4937	0.2736	0.572	0.132
Mof_C 	C 	0.5369	0.2277	0.5727	-0.202
Mof_C 	C 	0.49957	0.19355	0.57771	0.123
Mof_C 	C 	0.5318	0.3128	0.5654	-0.118
Mof_C 	C 	0.27499	0.9225	0.41132	0.338
Mof_C 	C 	0.2513	0.8821	0.4101	-0.328
Mof_C 	C 	0.1763	0.8777	0.4353	0.201
Mof_C 	C 	0.1175	0.9122	0.4622	-0.242
Mof_C 	C 	0.1387	0.9542	0.465	0.152
Mof_C 	C 	0.2174	0.95807	0.44153	-0.269
Mof_C 	C 	0.23401	0.00123	0.44935	0.313
Mof_C 	C 	0.39094	0.05418	0.41434	0.232
Mof_C 	C 	0.41363	0.09711	0.42243	-0.137
Mof_C 	C 	0.4809	0.1086	0.3854	-0.262
Mof_C 	C 	0.16091	0.17406	0.47112	0.336
Mof_C 	C 	0.11418	0.20552	0.44572	-0.306
Mof_C 	C 	0.10489	0.25242	0.4452	0.177
Mof_C 	C 	0.14451	0.27023	0.47055	-0.243
Mof_C 	C 	0.19319	0.2398	0.49482	0.171
Mof_C 	C 	0.20121	0.19364	0.49734	-0.26
Mof_C 	C 	0.24995	0.16389	0.52661	0.295
Mof_C 	C 	0.29861	0.05289	0.56629	0.226
Mof_C 	C 	0.33489	0.0216	0.60242	-0.123
Mof_C 	C 	0.2857	0.9893	0.6275	-0.273
Mof_C 	C 	0.0791	0.049	0.5816	0.156
Mof_C 	C 	0.0131	0.0496	0.6218	-0.248
Mof_C 	C 	0.9597	0.0944	0.6366	0.236
Mof_C 	C 	0.9814	0.128	0.6196	-0.326
Mof_C 	C 	0.049	0.1233	0.5805	0.203
Mof_C 	C 	0.8792	0.1009	0.6797	-0.199
Mof_C 	C 	0.70248	0.84752	0.31572	0.332
Mof_C 	C 	0.76419	0.82385	0.27877	-0.307
Mof_C 	C 	0.75737	0.82907	0.23439	0.171
Mof_C 	C 	0.68671	0.85986	0.22472	-0.231
Mof_C 	C 	0.62624	0.88405	0.26067	0.157
Mof_C 	C 	0.62988	0.87955	0.30689	-0.257
Mof_C 	C 	0.56116	0.9063	0.34298	0.307
Mof_C 	C 	0.48923	0.91392	0.46142	0.244
Mof_C 	C 	0.41628	0.93492	0.50152	-0.182
Mof_C 	C 	0.3602	0.8968	0.5198	-0.264
Mof_C 	C 	0.61943	0.08418	0.75456	0.125
Mof_C 	C 	0.6903	0.0785	0.7175	-0.198
Mof_C 	C 	0.7673	0.072	0.7264	0.132
Mof_C 	C 	0.7646	0.0727	0.7723	-0.202
Mof_C 	C 	0.69312	0.07771	0.80645	0.123
Mof_C 	C 	0.8446	0.0654	0.6872	-0.118
Mof_C 	C 	0.10881	0.5775	0.08868	0.338
Mof_C 	C 	0.0435	0.6179	0.0899	-0.327
Mof_C 	C 	0.9893	0.6223	0.0647	0.2
Mof_C 	C 	0.9919	0.5878	0.0378	-0.242
Mof_C 	C 	0.0579	0.5458	0.035	0.153
Mof_C 	C 	0.117	0.54193	0.05847	-0.269
Mof_C 	C 	0.18459	0.49877	0.05065	0.313
Mof_C 	C 	0.35946	0.44582	0.08566	0.232
Mof_C 	C 	0.43317	0.40289	0.07757	-0.137
Mof_C 	C 	0.4749	0.3914	0.1146	-0.262
Mof_C 	C 	0.30609	0.32594	0.02888	0.336
Mof_C 	C 	0.26542	0.29448	0.05428	-0.306
Mof_C 	C 	0.30251	0.24758	0.0548	0.178
Mof_C 	C 	0.38529	0.22977	0.02945	-0.243
Mof_C 	C 	0.42781	0.2602	0.00518	0.173
Mof_C 	C 	0.39219	0.30636	0.00266	-0.26
Mof_C 	C 	0.44045	0.33611	0.97339	0.295
Mof_C 	C 	0.41779	0.44711	0.93371	0.225
Mof_C 	C 	0.45891	0.4784	0.89758	-0.121
Mof_C 	C 	0.4025	0.5107	0.8725	-0.277
Mof_C 	C 	0.2097	0.451	0.9184	0.156
Mof_C 	C 	0.1845	0.4504	0.8782	-0.248
Mof_C 	C 	0.1907	0.4056	0.8634	0.235
Mof_C 	C 	0.229	0.372	0.8804	-0.327
Mof_C 	C 	0.2528	0.3767	0.9195	0.204
Mof_C 	C 	0.1598	0.3991	0.8203	-0.199
Mof_C 	C 	0.36572	0.65248	0.18428	0.332
Mof_C 	C 	0.36681	0.67615	0.22123	-0.307
Mof_C 	C 	0.32083	0.67093	0.26561	0.171
Mof_C 	C 	0.27129	0.64014	0.27528	-0.231
Mof_C 	C 	0.27096	0.61595	0.23933	0.157
Mof_C 	C 	0.31632	0.62045	0.19311	-0.257
Mof_C 	C 	0.31044	0.5937	0.15702	0.307
Mof_C 	C 	0.36457	0.58608	0.03858	0.244
Mof_C 	C 	0.35272	0.56508	0.99848	-0.182
Mof_C 	C 	0.2768	0.6032	0.9802	-0.264
Mof_C 	C 	0.95817	0.41582	0.74544	0.125
Mof_C 	C 	0.9863	0.4215	0.7825	-0.197
Mof_C 	C 	0.0657	0.428	0.7736	0.131
Mof_C 	C 	0.1096	0.4273	0.7277	-0.201
Mof_C 	C 	0.07728	0.42229	0.69355	0.123
Mof_C 	C 	0.0972	0.4346	0.8128	-0.117
Mof_C 	C 	0.80251	0.08868	0.9225	0.338
Mof_C 	C 	0.8666	0.0899	0.8821	-0.327
Mof_C 	C 	0.946	0.0647	0.8777	0.2
Mof_C 	C 	0.9703	0.0378	0.9122	-0.24
Mof_C 	C 	0.9071	0.035	0.9542	0.151
Mof_C 	C 	0.82453	0.05847	0.95807	-0.27
Mof_C 	C 	0.76476	0.05065	0.00123	0.314
Mof_C 	C 	0.55488	0.08566	0.05418	0.232
Mof_C 	C 	0.48926	0.07757	0.09711	-0.137
Mof_C 	C 	0.4105	0.1146	0.1086	-0.262
Mof_C 	C 	0.66503	0.02888	0.17406	0.336
Mof_C 	C 	0.6803	0.05428	0.20552	-0.306
Mof_C 	C 	0.64269	0.0548	0.25242	0.178
Mof_C 	C 	0.58526	0.02945	0.27023	-0.243
Mof_C 	C 	0.56701	0.00518	0.2398	0.172
Mof_C 	C 	0.60515	0.00266	0.19364	-0.26
Mof_C 	C 	0.58616	0.97339	0.16389	0.295
Mof_C 	C 	0.6485	0.93371	0.05289	0.227
Mof_C 	C 	0.64351	0.89758	0.0216	-0.126
Mof_C 	C 	0.725	0.8725	0.9893	-0.268
Mof_C 	C 	0.8719	0.9184	0.049	0.155
Mof_C 	C 	0.9373	0.8782	0.0496	-0.247
Mof_C 	C 	0.9459	0.8634	0.0944	0.233
Mof_C 	C 	0.8906	0.8804	0.128	-0.325
Mof_C 	C 	0.8277	0.9195	0.1233	0.203
Mof_C 	C 	0.0199	0.8203	0.1009	-0.197
Mof_C 	C 	0.45	0.18428	0.84752	0.332
Mof_C 	C 	0.41196	0.22123	0.82385	-0.307
Mof_C 	C 	0.41356	0.26561	0.82907	0.171
Mof_C 	C 	0.45343	0.27528	0.85986	-0.231
Mof_C 	C 	0.48971	0.23933	0.88405	0.157
Mof_C 	C 	0.49057	0.19311	0.87955	-0.257
Mof_C 	C 	0.53254	0.15702	0.9063	0.307
Mof_C 	C 	0.59685	0.03858	0.91392	0.242
Mof_C 	C 	0.6488	0.99848	0.93492	-0.179
Mof_C 	C 	0.743	0.9802	0.8968	-0.264
Mof_C 	C 	0.29639	0.74544	0.08418	0.125
Mof_C 	C 	0.2312	0.7825	0.0785	-0.198
Mof_C 	C 	0.1607	0.7736	0.072	0.133
Mof_C 	C 	0.1627	0.7277	0.0727	-0.202
Mof_C 	C 	0.22917	0.69355	0.07771	0.123
Mof_C 	C 	0.09	0.8128	0.0654	-0.12
Mof_C 	C 	0.31369	0.41132	0.5775	0.338
Mof_C 	C 	0.3386	0.4101	0.6179	-0.328
Mof_C 	C 	0.3884	0.4353	0.6223	0.201
Mof_C 	C 	0.4203	0.4622	0.5878	-0.242
Mof_C 	C 	0.3963	0.465	0.5458	0.152
Mof_C 	C 	0.34107	0.44153	0.54193	-0.27
Mof_C 	C 	0.31664	0.44935	0.49877	0.313
Mof_C 	C 	0.19472	0.41434	0.44582	0.232
Mof_C 	C 	0.16394	0.42243	0.40289	-0.137
Mof_C 	C 	0.1337	0.3854	0.3914	-0.262
Mof_C 	C 	0.36797	0.47112	0.32594	0.336
Mof_C 	C 	0.4401	0.44572	0.29448	-0.306
Mof_C 	C 	0.44991	0.4452	0.24758	0.177
Mof_C 	C 	0.38494	0.47055	0.22977	-0.243
Mof_C 	C 	0.31199	0.49482	0.2602	0.171
Mof_C 	C 	0.30145	0.49734	0.30636	-0.26
Mof_C 	C 	0.22344	0.52661	0.33611	0.295
Mof_C 	C 	0.1351	0.56629	0.44711	0.225
Mof_C 	C 	0.06269	0.60242	0.4784	-0.121
Mof_C 	C 	0.0868	0.6275	0.5107	-0.277
Mof_C 	C 	0.3393	0.5816	0.451	0.155
Mof_C 	C 	0.3651	0.6218	0.4504	-0.248
Mof_C 	C 	0.4037	0.6366	0.4056	0.235
Mof_C 	C 	0.399	0.6196	0.372	-0.327
Mof_C 	C 	0.3705	0.5805	0.3767	0.204
Mof_C 	C 	0.4411	0.6797	0.3991	-0.199
Mof_C 	C 	0.9818	0.31572	0.65248	0.332
Mof_C 	C 	0.95704	0.27877	0.67615	-0.306
Mof_C 	C 	0.00824	0.23439	0.67093	0.17
Mof_C 	C 	0.08857	0.22472	0.64014	-0.23
Mof_C 	C 	0.11309	0.26067	0.61595	0.156
Mof_C 	C 	0.06323	0.30689	0.62045	-0.257
Mof_C 	C 	0.09586	0.34298	0.5937	0.307
Mof_C 	C 	0.04935	0.46142	0.58608	0.244
Mof_C 	C 	0.0822	0.50152	0.56508	-0.182
Mof_C 	C 	0.12	0.5198	0.6032	-0.264
Mof_C 	C 	0.62601	0.75456	0.41582	0.125
Mof_C 	C 	0.5922	0.7175	0.4215	-0.198
Mof_C 	C 	0.5063	0.7264	0.428	0.132
Mof_C 	C 	0.4631	0.7723	0.4273	-0.202
Mof_C 	C 	0.50043	0.80645	0.42229	0.123
Mof_C 	C 	0.4682	0.6872	0.4346	-0.118
Mof_C 	C 	0.72501	0.0775	0.58868	0.338
Mof_C 	C 	0.7487	0.1179	0.5899	-0.328
Mof_C 	C 	0.8237	0.1223	0.5647	0.201
Mof_C 	C 	0.8825	0.0878	0.5378	-0.242
Mof_C 	C 	0.8613	0.0458	0.535	0.152
Mof_C 	C 	0.7826	0.04193	0.55847	-0.269
Mof_C 	C 	0.76599	0.99877	0.55065	0.313
Mof_C 	C 	0.60906	0.94582	0.58566	0.232
Mof_C 	C 	0.58637	0.90289	0.57757	-0.137
Mof_C 	C 	0.5191	0.8914	0.6146	-0.262
Mof_C 	C 	0.83909	0.82594	0.52888	0.336
Mof_C 	C 	0.88582	0.79448	0.55428	-0.306
Mof_C 	C 	0.89511	0.74758	0.5548	0.177
Mof_C 	C 	0.85549	0.72977	0.52945	-0.243
Mof_C 	C 	0.80681	0.7602	0.50518	0.171
Mof_C 	C 	0.79879	0.80636	0.50266	-0.26
Mof_C 	C 	0.75005	0.83611	0.47339	0.295
Mof_C 	C 	0.70139	0.94711	0.43371	0.226
Mof_C 	C 	0.66511	0.9784	0.39758	-0.123
Mof_C 	C 	0.7143	0.0107	0.3725	-0.273
Mof_C 	C 	0.9209	0.951	0.4184	0.156
Mof_C 	C 	0.9869	0.9504	0.3782	-0.248
Mof_C 	C 	0.0403	0.9056	0.3634	0.236
Mof_C 	C 	0.0186	0.872	0.3804	-0.326
Mof_C 	C 	0.951	0.8767	0.4195	0.203
Mof_C 	C 	0.1208	0.8991	0.3203	-0.199
Mof_C 	C 	0.29752	0.15248	0.68428	0.332
Mof_C 	C 	0.23581	0.17615	0.72123	-0.307
Mof_C 	C 	0.24263	0.17093	0.76561	0.171
Mof_C 	C 	0.31329	0.14014	0.77528	-0.231
Mof_C 	C 	0.37376	0.11595	0.73933	0.157
Mof_C 	C 	0.37012	0.12045	0.69311	-0.257
Mof_C 	C 	0.43884	0.0937	0.65702	0.307
Mof_C 	C 	0.51077	0.08608	0.53858	0.244
Mof_C 	C 	0.58372	0.06508	0.49848	-0.182
Mof_C 	C 	0.6398	0.1032	0.4802	-0.264
Mof_C 	C 	0.38057	0.91582	0.24544	0.125
Mof_C 	C 	0.3097	0.9215	0.2825	-0.198
Mof_C 	C 	0.2327	0.928	0.2736	0.132
Mof_C 	C 	0.2354	0.9273	0.2277	-0.202
Mof_C 	C 	0.30688	0.92229	0.19355	0.123
Mof_C 	C 	0.1554	0.9346	0.3128	-0.118
Mof_C 	C 	0.89119	0.4225	0.91132	0.338
Mof_C 	C 	0.9565	0.3821	0.9101	-0.327
Mof_C 	C 	0.0107	0.3777	0.9353	0.2
Mof_C 	C 	0.0081	0.4122	0.9622	-0.242
Mof_C 	C 	0.9421	0.4542	0.965	0.153
Mof_C 	C 	0.883	0.45807	0.94153	-0.269
Mof_C 	C 	0.81541	0.50123	0.94935	0.313
Mof_C 	C 	0.64054	0.55418	0.91434	0.232
Mof_C 	C 	0.56683	0.59711	0.92243	-0.137
Mof_C 	C 	0.5251	0.6086	0.8854	-0.262
Mof_C 	C 	0.69391	0.67406	0.97112	0.336
Mof_C 	C 	0.73458	0.70552	0.94572	-0.306
Mof_C 	C 	0.69749	0.75242	0.9452	0.178
Mof_C 	C 	0.61471	0.77023	0.97055	-0.243
Mof_C 	C 	0.57219	0.7398	0.99482	0.173
Mof_C 	C 	0.60781	0.69364	0.99734	-0.26
Mof_C 	C 	0.55955	0.66389	0.02661	0.295
Mof_C 	C 	0.58221	0.55289	0.06629	0.225
Mof_C 	C 	0.54109	0.5216	0.10242	-0.121
Mof_C 	C 	0.5975	0.4893	0.1275	-0.277
Mof_C 	C 	0.7903	0.549	0.0816	0.156
Mof_C 	C 	0.8155	0.5496	0.1218	-0.248
Mof_C 	C 	0.8093	0.5944	0.1366	0.235
Mof_C 	C 	0.771	0.628	0.1196	-0.327
Mof_C 	C 	0.7472	0.6233	0.0805	0.204
Mof_C 	C 	0.8402	0.6009	0.1797	-0.199
Mof_C 	C 	0.63428	0.34752	0.81572	0.332
Mof_C 	C 	0.63319	0.32385	0.77877	-0.307
Mof_C 	C 	0.67917	0.32907	0.73439	0.171
Mof_C 	C 	0.72871	0.35986	0.72472	-0.231
Mof_C 	C 	0.72904	0.38405	0.76067	0.157
Mof_C 	C 	0.68368	0.37955	0.80689	-0.257
Mof_C 	C 	0.68956	0.4063	0.84298	0.307
Mof_C 	C 	0.63543	0.41392	0.96142	0.244
Mof_C 	C 	0.64728	0.43492	0.00152	-0.182
Mof_C 	C 	0.7232	0.3968	0.0198	-0.264
Mof_C 	C 	0.04183	0.58418	0.25456	0.125
Mof_C 	C 	0.0137	0.5785	0.2175	-0.197
Mof_C 	C 	0.9343	0.572	0.2264	0.131
Mof_C 	C 	0.8904	0.5727	0.2723	-0.201
Mof_C 	C 	0.92272	0.57771	0.30645	0.123
Mof_C 	C 	0.9028	0.5654	0.1872	-0.117
Mof_N 	N 	0.31571	0.92725	0.99333	-0.254
Mof_N 	N 	0.36868	0.9388	0.95084	-0.196
Mof_N 	N 	0.37224	0.0323	0.88122	-0.249
Mof_N 	N 	0.39002	0.06538	0.90398	-0.192
Mof_N 	N 	0.18099	0.06117	0.91425	-0.237
Mof_N 	N 	0.46036	0.88727	0.10021	-0.251
Mof_N 	N 	0.41544	0.91908	0.07364	-0.19
Mof_N 	N 	0.70213	0.29816	0.91718	-0.209
Mof_N 	N 	0.73629	0.57275	0.50667	-0.254
Mof_N 	N 	0.75832	0.5612	0.54916	-0.196
Mof_N 	N 	0.78576	0.4677	0.61878	-0.249
Mof_N 	N 	0.85938	0.43462	0.59602	-0.192
Mof_N 	N 	0.65641	0.43883	0.58575	-0.237
Mof_N 	N 	0.94784	0.61273	0.39979	-0.251
Mof_N 	N 	0.90816	0.58092	0.42636	-0.19
Mof_N 	N 	0.41747	0.20184	0.58282	-0.208
Mof_N 	N 	0.30904	0.00667	0.42725	-0.254
Mof_N 	N 	0.31952	0.04916	0.4388	-0.196
Mof_N 	N 	0.25346	0.11878	0.5323	-0.249
Mof_N 	N 	0.294	0.09602	0.56538	-0.192
Mof_N 	N 	0.09524	0.08575	0.56117	-0.237
Mof_N 	N 	0.56057	0.89979	0.38727	-0.251
Mof_N 	N 	0.48908	0.92636	0.41908	-0.19
Mof_N 	N 	0.61931	0.08282	0.79816	-0.208
Mof_N 	N 	0.24296	0.49333	0.07275	-0.254
Mof_N 	N 	0.30748	0.45084	0.0612	-0.196
Mof_N 	N 	0.40454	0.38122	0.9677	-0.249
Mof_N 	N 	0.4554	0.40398	0.93462	-0.192
Mof_N 	N 	0.24216	0.41425	0.93883	-0.237
Mof_N 	N 	0.34763	0.60021	0.11273	-0.251
Mof_N 	N 	0.33452	0.57364	0.08092	-0.19
Mof_N 	N 	0.00029	0.41718	0.70184	-0.209
Mof_N 	N 	0.68429	0.07275	0.00667	-0.254
Mof_N 	N 	0.63132	0.0612	0.04916	-0.196
Mof_N 	N 	0.62776	0.9677	0.11878	-0.249
Mof_N 	N 	0.60998	0.93462	0.09602	-0.192
Mof_N 	N 	0.81901	0.93883	0.08575	-0.237
Mof_N 	N 	0.53964	0.11273	0.89979	-0.251
Mof_N 	N 	0.58456	0.08092	0.92636	-0.19
Mof_N 	N 	0.29787	0.70184	0.08282	-0.209
Mof_N 	N 	0.26371	0.42725	0.49333	-0.254
Mof_N 	N 	0.24168	0.4388	0.45084	-0.196
Mof_N 	N 	0.21424	0.5323	0.38122	-0.249
Mof_N 	N 	0.14062	0.56538	0.40398	-0.192
Mof_N 	N 	0.34359	0.56117	0.41425	-0.237
Mof_N 	N 	0.05216	0.38727	0.60021	-0.251
Mof_N 	N 	0.09184	0.41908	0.57364	-0.19
Mof_N 	N 	0.58253	0.79816	0.41718	-0.208
Mof_N 	N 	0.69096	0.99333	0.57275	-0.254
Mof_N 	N 	0.68048	0.95084	0.5612	-0.196
Mof_N 	N 	0.74654	0.88122	0.4677	-0.249
Mof_N 	N 	0.706	0.90398	0.43462	-0.192
Mof_N 	N 	0.90476	0.91425	0.43883	-0.237
Mof_N 	N 	0.43943	0.10021	0.61273	-0.251
Mof_N 	N 	0.51092	0.07364	0.58092	-0.19
Mof_N 	N 	0.38069	0.91718	0.20184	-0.208
Mof_N 	N 	0.75704	0.50667	0.92725	-0.254
Mof_N 	N 	0.69252	0.54916	0.9388	-0.196
Mof_N 	N 	0.59546	0.61878	0.0323	-0.249
Mof_N 	N 	0.5446	0.59602	0.06538	-0.192
Mof_N 	N 	0.75784	0.58575	0.06117	-0.237
Mof_N 	N 	0.65237	0.39979	0.88727	-0.251
Mof_N 	N 	0.66548	0.42636	0.91908	-0.19
Mof_N 	N 	0.99971	0.58282	0.29816	-0.209
Mof_O 	O 	0.27303	0.8834	0.07474	-0.438
Mof_O 	O 	0.21047	0.97773	0.96873	-0.387
Mof_O 	O 	0.46685	0.88332	0.97558	-0.39
Mof_O 	O 	0.29295	0.9709	0.8698	-0.439
Mof_O 	O 	0.46927	0.04823	0.81683	-0.374
Mof_O 	O 	0.30284	0.04	0.96652	-0.384
Mof_O 	O 	0.55416	0.85825	0.15983	-0.436
Mof_O 	O 	0.43804	0.83123	0.06289	-0.384
Mof_O 	O 	0.43175	0.97101	0.11869	-0.388
Mof_O 	O 	0.73117	0.6166	0.42526	-0.439
Mof_O 	O 	0.65693	0.52227	0.53127	-0.388
Mof_O 	O 	0.82575	0.61668	0.52442	-0.39
Mof_O 	O 	0.63365	0.5291	0.6302	-0.44
Mof_O 	O 	0.83433	0.45177	0.68317	-0.374
Mof_O 	O 	0.80936	0.46	0.53348	-0.383
Mof_O 	O 	0.07224	0.64175	0.34017	-0.436
Mof_O 	O 	0.83216	0.66877	0.43711	-0.384
Mof_O 	O 	0.02145	0.52899	0.38131	-0.388
Mof_O 	O 	0.34777	0.92526	0.3834	-0.439
Mof_O 	O 	0.1792	0.03127	0.47773	-0.388
Mof_O 	O 	0.44243	0.02442	0.38332	-0.39
Mof_O 	O 	0.16275	0.1302	0.4709	-0.44
Mof_O 	O 	0.2861	0.18317	0.54823	-0.374
Mof_O 	O 	0.26936	0.03348	0.54	-0.383
Mof_O 	O 	0.71399	0.84017	0.35825	-0.436
Mof_O 	O 	0.50093	0.93711	0.33123	-0.384
Mof_O 	O 	0.55044	0.88131	0.47101	-0.388
Mof_O 	O 	0.15643	0.57474	0.1166	-0.439
Mof_O 	O 	0.1882	0.46873	0.02227	-0.387
Mof_O 	O 	0.35017	0.47558	0.11668	-0.39
Mof_O 	O 	0.26385	0.3698	0.0291	-0.44
Mof_O 	O 	0.5175	0.31683	0.95177	-0.374
Mof_O 	O 	0.34284	0.46652	0.96	-0.383
Mof_O 	O 	0.41241	0.65983	0.14175	-0.436
Mof_O 	O 	0.26927	0.56289	0.16877	-0.384
Mof_O 	O 	0.40276	0.61869	0.02899	-0.388
Mof_O 	O 	0.72697	0.1166	0.92526	-0.438
Mof_O 	O 	0.78953	0.02227	0.03127	-0.387
Mof_O 	O 	0.53315	0.11668	0.02442	-0.39
Mof_O 	O 	0.70705	0.0291	0.1302	-0.439
Mof_O 	O 	0.53073	0.95177	0.18317	-0.374
Mof_O 	O 	0.69716	0.96	0.03348	-0.384
Mof_O 	O 	0.44584	0.14175	0.84017	-0.436
Mof_O 	O 	0.56196	0.16877	0.93711	-0.384
Mof_O 	O 	0.56825	0.02899	0.88131	-0.388
Mof_O 	O 	0.26883	0.3834	0.57474	-0.439
Mof_O 	O 	0.34307	0.47773	0.46873	-0.388
Mof_O 	O 	0.17425	0.38332	0.47558	-0.39
Mof_O 	O 	0.36635	0.4709	0.3698	-0.44
Mof_O 	O 	0.16567	0.54823	0.31683	-0.374
Mof_O 	O 	0.19064	0.54	0.46652	-0.383
Mof_O 	O 	0.92776	0.35825	0.65983	-0.436
Mof_O 	O 	0.16784	0.33123	0.56289	-0.384
Mof_O 	O 	0.97855	0.47101	0.61869	-0.388
Mof_O 	O 	0.65223	0.07474	0.6166	-0.439
Mof_O 	O 	0.8208	0.96873	0.52227	-0.388
Mof_O 	O 	0.55757	0.97558	0.61668	-0.39
Mof_O 	O 	0.83725	0.8698	0.5291	-0.44
Mof_O 	O 	0.7139	0.81683	0.45177	-0.374
Mof_O 	O 	0.73064	0.96652	0.46	-0.383
Mof_O 	O 	0.28601	0.15983	0.64175	-0.436
Mof_O 	O 	0.49907	0.06289	0.66877	-0.384
Mof_O 	O 	0.44956	0.11869	0.52899	-0.388
Mof_O 	O 	0.84357	0.42526	0.8834	-0.439
Mof_O 	O 	0.8118	0.53127	0.97773	-0.387
Mof_O 	O 	0.64983	0.52442	0.88332	-0.39
Mof_O 	O 	0.73615	0.6302	0.9709	-0.44
Mof_O 	O 	0.4825	0.68317	0.04823	-0.374
Mof_O 	O 	0.65716	0.53348	0.04	-0.383
Mof_O 	O 	0.58759	0.34017	0.85825	-0.436
Mof_O 	O 	0.73073	0.43711	0.83123	-0.384
Mof_O 	O 	0.59724	0.38131	0.97101	-0.388
_end
