data_functionalizedCrystal
_audit_creation_method	'EQeq! by Chris Wilmer'
_symmetry_space_group_name_H-M	'P1'
_symmetry_Int_Tables_number	1
_symmetry_cell_setting	triclinic
loop_
_symmetry_equiv_pos_as_xyz
  x,y,z
_cell_length_a	15.6597
_cell_length_b	15.6597
_cell_length_c	15.6597
_cell_angle_alpha	90
_cell_angle_beta	90
_cell_angle_gamma	90
loop_
_atom_site_label
_atom_site_type_symbol
_atom_site_fract_x
_atom_site_fract_y
_atom_site_fract_z
_atom_site_charge
Mof_N 	N 	0.58526	0.19451	0.55729	-0.165
Mof_C 	C 	0.5827	0.13664	0.48715	0.228
Mof_C 	C 	0.5176	0.1427	0.4282	-0.286
Mof_H 	H 	0.4776	0.1864	0.4318	0.131
Mof_C 	C 	0.6715	0.463	0.954	0.026
Mof_C 	C 	0.6543	0.5483	0.9606	-0.108
Mof_H 	H 	0.6085	0.5712	0.9305	0.071
Mof_C 	C 	0.7397	0.4308	0.9996	-0.107
Mof_H 	H 	0.7536	0.3732	0.996	0.05
Mof_C 	C 	0.7034	0.6007	0.0108	0.027
Mof_H 	H 	0.691	0.6587	0.0139	0.014
Mof_C 	C 	0.7699	0.5683	0.0557	-0.103
Mof_H 	H 	0.8032	0.6039	0.0897	0.059
Mof_C 	C 	0.7873	0.4852	0.051	0.022
Mof_H 	H 	0.8323	0.4631	0.0828	0.015
Mof_C 	C 	0.65064	0.208	0.61207	0.111
Mof_H 	H 	0.7042	0.183	0.6064	-0.022
Mof_N 	N 	0.63011	0.26015	0.67378	-0.186
Mof_C 	C 	0.5465	0.2818	0.6576	-0.006
Mof_H 	H 	0.514	0.3186	0.6911	0.022
Mof_C 	C 	0.5185	0.2427	0.5874	0.01
Mof_H 	H 	0.4644	0.2472	0.5634	0.021
Mof_N 	N 	0.91474	0.80549	0.05729	-0.166
Mof_C 	C 	0.9173	0.86336	0.98715	0.227
Mof_C 	C 	0.9824	0.8573	0.9282	-0.283
Mof_H 	H 	0.0224	0.8136	0.9318	0.13
Mof_C 	C 	0.8285	0.537	0.454	0.027
Mof_C 	C 	0.8457	0.4517	0.4606	-0.11
Mof_H 	H 	0.8915	0.4288	0.4305	0.072
Mof_C 	C 	0.7603	0.5692	0.4996	-0.109
Mof_H 	H 	0.7464	0.6268	0.496	0.051
Mof_C 	C 	0.7966	0.3993	0.5108	0.03
Mof_H 	H 	0.809	0.3413	0.5139	0.013
Mof_C 	C 	0.7301	0.4317	0.5557	-0.106
Mof_H 	H 	0.6968	0.3961	0.5897	0.06
Mof_C 	C 	0.7127	0.5148	0.551	0.024
Mof_H 	H 	0.6677	0.5369	0.5828	0.014
Mof_C 	C 	0.84936	0.792	0.11207	0.111
Mof_H 	H 	0.7958	0.817	0.1064	-0.022
Mof_N 	N 	0.86989	0.73985	0.17378	-0.186
Mof_C 	C 	0.9535	0.7182	0.1576	-0.006
Mof_H 	H 	0.986	0.6814	0.1911	0.021
Mof_C 	C 	0.9815	0.7573	0.0874	0.009
Mof_H 	H 	0.0356	0.7528	0.0634	0.022
Mof_N 	N 	0.41474	0.69451	0.94271	-0.165
Mof_C 	C 	0.4173	0.63664	0.01285	0.228
Mof_C 	C 	0.4824	0.6427	0.0718	-0.286
Mof_H 	H 	0.5224	0.6864	0.0682	0.131
Mof_C 	C 	0.3285	0.963	0.546	0.025
Mof_C 	C 	0.3457	0.0483	0.5394	-0.108
Mof_H 	H 	0.3915	0.0712	0.5695	0.071
Mof_C 	C 	0.2603	0.9308	0.5004	-0.107
Mof_H 	H 	0.2464	0.8732	0.504	0.05
Mof_C 	C 	0.2966	0.1007	0.4892	0.027
Mof_H 	H 	0.309	0.1587	0.4861	0.014
Mof_C 	C 	0.2301	0.0683	0.4443	-0.102
Mof_H 	H 	0.1968	0.1039	0.4103	0.059
Mof_C 	C 	0.2127	0.9852	0.449	0.021
Mof_H 	H 	0.1677	0.9631	0.4172	0.015
Mof_C 	C 	0.34936	0.708	0.88793	0.111
Mof_H 	H 	0.2958	0.683	0.8936	-0.022
Mof_N 	N 	0.36989	0.76015	0.82622	-0.186
Mof_C 	C 	0.4535	0.7818	0.8424	-0.006
Mof_H 	H 	0.486	0.8186	0.8089	0.022
Mof_C 	C 	0.4815	0.7427	0.9126	0.01
Mof_H 	H 	0.5356	0.7472	0.9366	0.021
Mof_N 	N 	0.08526	0.30549	0.44271	-0.166
Mof_C 	C 	0.0827	0.36336	0.51285	0.228
Mof_C 	C 	0.0176	0.3573	0.5718	-0.286
Mof_H 	H 	0.9776	0.3136	0.5682	0.131
Mof_C 	C 	0.1715	0.037	0.046	0.028
Mof_C 	C 	0.1543	0.9517	0.0394	-0.112
Mof_H 	H 	0.1085	0.9288	0.0695	0.072
Mof_C 	C 	0.2397	0.0692	0.0004	-0.107
Mof_H 	H 	0.2536	0.1268	0.004	0.05
Mof_C 	C 	0.2034	0.8993	0.9892	0.029
Mof_H 	H 	0.191	0.8413	0.9861	0.013
Mof_C 	C 	0.2699	0.9317	0.9443	-0.104
Mof_H 	H 	0.3032	0.8961	0.9103	0.059
Mof_C 	C 	0.2873	0.0148	0.949	0.021
Mof_H 	H 	0.3323	0.0369	0.9172	0.015
Mof_C 	C 	0.15064	0.292	0.38793	0.111
Mof_H 	H 	0.2042	0.317	0.3936	-0.022
Mof_N 	N 	0.13011	0.23985	0.32622	-0.186
Mof_C 	C 	0.0465	0.2182	0.3424	-0.007
Mof_H 	H 	0.014	0.1814	0.3089	0.022
Mof_C 	C 	0.0185	0.2573	0.4126	0.012
Mof_H 	H 	0.9644	0.2528	0.4366	0.02
Mof_N 	N 	0.55729	0.58526	0.19451	-0.165
Mof_C 	C 	0.48715	0.5827	0.13664	0.228
Mof_C 	C 	0.4282	0.5176	0.1427	-0.286
Mof_H 	H 	0.4318	0.4776	0.1864	0.131
Mof_C 	C 	0.954	0.6715	0.463	0.026
Mof_C 	C 	0.9606	0.6543	0.5483	-0.108
Mof_H 	H 	0.9305	0.6085	0.5712	0.071
Mof_C 	C 	0.9996	0.7397	0.4308	-0.107
Mof_H 	H 	0.996	0.7536	0.3732	0.05
Mof_C 	C 	0.0108	0.7034	0.6007	0.027
Mof_H 	H 	0.0139	0.691	0.6587	0.014
Mof_C 	C 	0.0557	0.7699	0.5683	-0.103
Mof_H 	H 	0.0897	0.8032	0.6039	0.059
Mof_C 	C 	0.051	0.7873	0.4852	0.022
Mof_H 	H 	0.0828	0.8323	0.4631	0.015
Mof_C 	C 	0.61207	0.65064	0.208	0.111
Mof_H 	H 	0.6064	0.7042	0.183	-0.022
Mof_N 	N 	0.67378	0.63011	0.26015	-0.186
Mof_C 	C 	0.6576	0.5465	0.2818	-0.006
Mof_H 	H 	0.6911	0.514	0.3186	0.022
Mof_C 	C 	0.5874	0.5185	0.2427	0.01
Mof_H 	H 	0.5634	0.4644	0.2472	0.021
Mof_N 	N 	0.05729	0.91474	0.80549	-0.166
Mof_C 	C 	0.98715	0.9173	0.86336	0.227
Mof_C 	C 	0.9282	0.9824	0.8573	-0.283
Mof_H 	H 	0.9318	0.0224	0.8136	0.13
Mof_C 	C 	0.454	0.8285	0.537	0.027
Mof_C 	C 	0.4606	0.8457	0.4517	-0.11
Mof_H 	H 	0.4305	0.8915	0.4288	0.072
Mof_C 	C 	0.4996	0.7603	0.5692	-0.109
Mof_H 	H 	0.496	0.7464	0.6268	0.051
Mof_C 	C 	0.5108	0.7966	0.3993	0.03
Mof_H 	H 	0.5139	0.809	0.3413	0.013
Mof_C 	C 	0.5557	0.7301	0.4317	-0.106
Mof_H 	H 	0.5897	0.6968	0.3961	0.06
Mof_C 	C 	0.551	0.7127	0.5148	0.024
Mof_H 	H 	0.5828	0.6677	0.5369	0.014
Mof_C 	C 	0.11207	0.84936	0.792	0.111
Mof_H 	H 	0.1064	0.7958	0.817	-0.022
Mof_N 	N 	0.17378	0.86989	0.73985	-0.186
Mof_C 	C 	0.1576	0.9535	0.7182	-0.006
Mof_H 	H 	0.1911	0.986	0.6814	0.021
Mof_C 	C 	0.0874	0.9815	0.7573	0.009
Mof_H 	H 	0.0634	0.0356	0.7528	0.022
Mof_N 	N 	0.94271	0.41474	0.69451	-0.165
Mof_C 	C 	0.01285	0.4173	0.63664	0.228
Mof_C 	C 	0.0718	0.4824	0.6427	-0.286
Mof_H 	H 	0.0682	0.5224	0.6864	0.131
Mof_C 	C 	0.546	0.3285	0.963	0.025
Mof_C 	C 	0.5394	0.3457	0.0483	-0.108
Mof_H 	H 	0.5695	0.3915	0.0712	0.071
Mof_C 	C 	0.5004	0.2603	0.9308	-0.107
Mof_H 	H 	0.504	0.2464	0.8732	0.05
Mof_C 	C 	0.4892	0.2966	0.1007	0.027
Mof_H 	H 	0.4861	0.309	0.1587	0.014
Mof_C 	C 	0.4443	0.2301	0.0683	-0.102
Mof_H 	H 	0.4103	0.1968	0.1039	0.059
Mof_C 	C 	0.449	0.2127	0.9852	0.021
Mof_H 	H 	0.4172	0.1677	0.9631	0.015
Mof_C 	C 	0.88793	0.34936	0.708	0.111
Mof_H 	H 	0.8936	0.2958	0.683	-0.022
Mof_N 	N 	0.82622	0.36989	0.76015	-0.186
Mof_C 	C 	0.8424	0.4535	0.7818	-0.006
Mof_H 	H 	0.8089	0.486	0.8186	0.022
Mof_C 	C 	0.9126	0.4815	0.7427	0.01
Mof_H 	H 	0.9366	0.5356	0.7472	0.021
Mof_N 	N 	0.44271	0.08526	0.30549	-0.166
Mof_C 	C 	0.51285	0.0827	0.36336	0.228
Mof_C 	C 	0.5718	0.0176	0.3573	-0.286
Mof_H 	H 	0.5682	0.9776	0.3136	0.131
Mof_C 	C 	0.046	0.1715	0.037	0.028
Mof_C 	C 	0.0394	0.1543	0.9517	-0.112
Mof_H 	H 	0.0695	0.1085	0.9288	0.072
Mof_C 	C 	0.0004	0.2397	0.0692	-0.107
Mof_H 	H 	0.004	0.2536	0.1268	0.05
Mof_C 	C 	0.9892	0.2034	0.8993	0.029
Mof_H 	H 	0.9861	0.191	0.8413	0.013
Mof_C 	C 	0.9443	0.2699	0.9317	-0.104
Mof_H 	H 	0.9103	0.3032	0.8961	0.059
Mof_C 	C 	0.949	0.2873	0.0148	0.021
Mof_H 	H 	0.9172	0.3323	0.0369	0.015
Mof_C 	C 	0.38793	0.15064	0.292	0.111
Mof_H 	H 	0.3936	0.2042	0.317	-0.022
Mof_N 	N 	0.32622	0.13011	0.23985	-0.186
Mof_C 	C 	0.3424	0.0465	0.2182	-0.007
Mof_H 	H 	0.3089	0.014	0.1814	0.022
Mof_C 	C 	0.4126	0.0185	0.2573	0.012
Mof_H 	H 	0.4366	0.9644	0.2528	0.02
Mof_N 	N 	0.19451	0.55729	0.58526	-0.165
Mof_C 	C 	0.13664	0.48715	0.5827	0.228
Mof_C 	C 	0.1427	0.4282	0.5176	-0.286
Mof_H 	H 	0.1864	0.4318	0.4776	0.131
Mof_C 	C 	0.463	0.954	0.6715	0.026
Mof_C 	C 	0.5483	0.9606	0.6543	-0.108
Mof_H 	H 	0.5712	0.9305	0.6085	0.071
Mof_C 	C 	0.4308	0.9996	0.7397	-0.107
Mof_H 	H 	0.3732	0.996	0.7536	0.05
Mof_C 	C 	0.6007	0.0108	0.7034	0.027
Mof_H 	H 	0.6587	0.0139	0.691	0.014
Mof_C 	C 	0.5683	0.0557	0.7699	-0.103
Mof_H 	H 	0.6039	0.0897	0.8032	0.059
Mof_C 	C 	0.4852	0.051	0.7873	0.022
Mof_H 	H 	0.4631	0.0828	0.8323	0.015
Mof_C 	C 	0.208	0.61207	0.65064	0.111
Mof_H 	H 	0.183	0.6064	0.7042	-0.022
Mof_N 	N 	0.26015	0.67378	0.63011	-0.186
Mof_C 	C 	0.2818	0.6576	0.5465	-0.006
Mof_H 	H 	0.3186	0.6911	0.514	0.022
Mof_C 	C 	0.2427	0.5874	0.5185	0.01
Mof_H 	H 	0.2472	0.5634	0.4644	0.021
Mof_N 	N 	0.80549	0.05729	0.91474	-0.166
Mof_C 	C 	0.86336	0.98715	0.9173	0.227
Mof_C 	C 	0.8573	0.9282	0.9824	-0.283
Mof_H 	H 	0.8136	0.9318	0.0224	0.13
Mof_C 	C 	0.537	0.454	0.8285	0.027
Mof_C 	C 	0.4517	0.4606	0.8457	-0.11
Mof_H 	H 	0.4288	0.4305	0.8915	0.072
Mof_C 	C 	0.5692	0.4996	0.7603	-0.109
Mof_H 	H 	0.6268	0.496	0.7464	0.051
Mof_C 	C 	0.3993	0.5108	0.7966	0.03
Mof_H 	H 	0.3413	0.5139	0.809	0.013
Mof_C 	C 	0.4317	0.5557	0.7301	-0.106
Mof_H 	H 	0.3961	0.5897	0.6968	0.06
Mof_C 	C 	0.5148	0.551	0.7127	0.024
Mof_H 	H 	0.5369	0.5828	0.6677	0.014
Mof_C 	C 	0.792	0.11207	0.84936	0.111
Mof_H 	H 	0.817	0.1064	0.7958	-0.022
Mof_N 	N 	0.73985	0.17378	0.86989	-0.186
Mof_C 	C 	0.7182	0.1576	0.9535	-0.006
Mof_H 	H 	0.6814	0.1911	0.986	0.021
Mof_C 	C 	0.7573	0.0874	0.9815	0.009
Mof_H 	H 	0.7528	0.0634	0.0356	0.022
Mof_N 	N 	0.69451	0.94271	0.41474	-0.165
Mof_C 	C 	0.63664	0.01285	0.4173	0.228
Mof_C 	C 	0.6427	0.0718	0.4824	-0.286
Mof_H 	H 	0.6864	0.0682	0.5224	0.131
Mof_C 	C 	0.963	0.546	0.3285	0.025
Mof_C 	C 	0.0483	0.5394	0.3457	-0.108
Mof_H 	H 	0.0712	0.5695	0.3915	0.071
Mof_C 	C 	0.9308	0.5004	0.2603	-0.107
Mof_H 	H 	0.8732	0.504	0.2464	0.05
Mof_C 	C 	0.1007	0.4892	0.2966	0.027
Mof_H 	H 	0.1587	0.4861	0.309	0.014
Mof_C 	C 	0.0683	0.4443	0.2301	-0.102
Mof_H 	H 	0.1039	0.4103	0.1968	0.059
Mof_C 	C 	0.9852	0.449	0.2127	0.021
Mof_H 	H 	0.9631	0.4172	0.1677	0.015
Mof_C 	C 	0.708	0.88793	0.34936	0.111
Mof_H 	H 	0.683	0.8936	0.2958	-0.022
Mof_N 	N 	0.76015	0.82622	0.36989	-0.186
Mof_C 	C 	0.7818	0.8424	0.4535	-0.006
Mof_H 	H 	0.8186	0.8089	0.486	0.022
Mof_C 	C 	0.7427	0.9126	0.4815	0.01
Mof_H 	H 	0.7472	0.9366	0.5356	0.021
Mof_N 	N 	0.30549	0.44271	0.08526	-0.166
Mof_C 	C 	0.36336	0.51285	0.0827	0.228
Mof_C 	C 	0.3573	0.5718	0.0176	-0.286
Mof_H 	H 	0.3136	0.5682	0.9776	0.131
Mof_C 	C 	0.037	0.046	0.1715	0.028
Mof_C 	C 	0.9517	0.0394	0.1543	-0.112
Mof_H 	H 	0.9288	0.0695	0.1085	0.072
Mof_C 	C 	0.0692	0.0004	0.2397	-0.107
Mof_H 	H 	0.1268	0.004	0.2536	0.05
Mof_C 	C 	0.8993	0.9892	0.2034	0.029
Mof_H 	H 	0.8413	0.9861	0.191	0.013
Mof_C 	C 	0.9317	0.9443	0.2699	-0.104
Mof_H 	H 	0.8961	0.9103	0.3032	0.059
Mof_C 	C 	0.0148	0.949	0.2873	0.021
Mof_H 	H 	0.0369	0.9172	0.3323	0.015
Mof_C 	C 	0.292	0.38793	0.15064	0.111
Mof_H 	H 	0.317	0.3936	0.2042	-0.022
Mof_N 	N 	0.23985	0.32622	0.13011	-0.186
Mof_C 	C 	0.2182	0.3424	0.0465	-0.007
Mof_H 	H 	0.1814	0.3089	0.014	0.022
Mof_C 	C 	0.2573	0.4126	0.0185	0.012
Mof_H 	H 	0.2528	0.4366	0.9644	0.02
Mof_Ag	Ag	0.70214	0.29786	0.79786	0.556
Mof_P 	P 	0.61228	0.38772	0.88772	-0.024
Mof_Ag	Ag	0.79786	0.70214	0.29786	0.556
Mof_P 	P 	0.88772	0.61228	0.38772	-0.024
Mof_Ag	Ag	0.29786	0.79786	0.70214	0.556
Mof_P 	P 	0.38772	0.88772	0.61228	-0.024
Mof_Ag	Ag	0.20214	0.20214	0.20214	0.556
Mof_P 	P 	0.11228	0.11228	0.11228	-0.025
_end
