data_functionalizedCrystal
_audit_creation_method	'EQeq! by Chris Wilmer'
_symmetry_space_group_name_H-M	'P1'
_symmetry_Int_Tables_number	1
_symmetry_cell_setting	triclinic
loop_
_symmetry_equiv_pos_as_xyz
  x,y,z
_cell_length_a	13.5842
_cell_length_b	13.5842
_cell_length_c	14.8502
_cell_angle_alpha	90
_cell_angle_beta	90
_cell_angle_gamma	120
loop_
_atom_site_label
_atom_site_type_symbol
_atom_site_fract_x
_atom_site_fract_y
_atom_site_fract_z
_atom_site_charge
Mof_N 	N 	0.17947	0.33922	0.54881	-0.22
Mof_C 	C 	0.07803	0.315	0.51724	0.062
Mof_H 	H 	0.0487	0.2675	0.4675	-0.017
Mof_C 	C 	0.01529	0.3576	0.55543	-0.118
Mof_H 	H 	0.9461	0.3417	0.5304	0.094
Mof_C 	C 	0.05569	0.4242	0.63117	-0.059
Mof_H 	H 	0.0132	0.452	0.659	0.042
Mof_C 	C 	0.16016	0.4493	0.66546	0.087
Mof_C 	C 	0.22238	0.40815	0.62046	-0.033
Mof_H 	H 	0.2951	0.4289	0.6405	0.043
Mof_N 	N 	0.19757	0.51184	0.74579	-0.219
Mof_H 	H 	0.1533	0.5336	0.7684	0.109
Mof_C 	C 	0.2944	0.5422	0.79208	0.152
Mof_O 	O 	0.37445	0.53582	0.7635	-0.223
Mof_C 	C 	0.2889	0.5784	0.88833	0.2
Mof_H 	H 	0.2395	0.6118	0.8896	-0.026
Mof_C 	C 	0.2382	0.4746	0.9483	-0.711
Mof_H 	H 	0.2868	0.4421	0.9485	0.245
Mof_H 	H 	0.1645	0.4197	0.926	0.23
Mof_H 	H 	0.2311	0.4961	0.0085	0.26
Mof_N 	N 	0.4016	0.6629	0.91895	-0.261
Mof_H 	H 	0.4307	0.6475	0.9644	0.153
Mof_C 	C 	0.4603	0.7619	0.8795	0.249
Mof_O 	O 	0.4231	0.7897	0.81351	-0.245
Mof_C 	C 	0.5774	0.8422	0.91301	-0.107
Mof_C 	C 	0.6038	0.8638	0.00454	0.065
Mof_H 	H 	0.5461	0.8253	0.0464	-0.004
Mof_N 	N 	0.7079	0.93705	0.03449	-0.226
Mof_C 	C 	0.7919	0.9856	0.97384	0.097
Mof_H 	H 	0.8657	0.0328	0.9943	-0.038
Mof_C 	C 	0.7739	0.9688	0.88259	-0.102
Mof_H 	H 	0.8343	0.0041	0.8424	0.039
Mof_C 	C 	0.6663	0.8996	0.8521	0.037
Mof_H 	H 	0.6521	0.8906	0.7905	0.016
Mof_N 	N 	0.66078	0.84025	0.21548	-0.204
Mof_C 	C 	0.685	0.76303	0.18391	0.023
Mof_H 	H 	0.7325	0.7812	0.13417	0.007
Mof_C 	C 	0.6424	0.65769	0.2221	-0.033
Mof_H 	H 	0.6583	0.6044	0.19707	0.05
Mof_C 	C 	0.5758	0.63149	0.29784	-0.106
Mof_H 	H 	0.548	0.5612	0.32567	0.067
Mof_C 	C 	0.5507	0.71086	0.33213	0.112
Mof_C 	C 	0.59185	0.81423	0.28713	-0.045
Mof_H 	H 	0.5711	0.8662	0.30717	0.054
Mof_N 	N 	0.48816	0.68573	0.41246	-0.223
Mof_H 	H 	0.4664	0.6197	0.43507	0.113
Mof_C 	C 	0.4578	0.7522	0.45875	0.151
Mof_O 	O 	0.46418	0.83863	0.43017	-0.217
Mof_C 	C 	0.4216	0.7105	0.555	0.209
Mof_H 	H 	0.3882	0.6277	0.55627	-0.027
Mof_C 	C 	0.5254	0.7636	0.61497	-0.729
Mof_H 	H 	0.5579	0.8447	0.61517	0.256
Mof_H 	H 	0.5803	0.7448	0.59267	0.243
Mof_H 	H 	0.5039	0.735	0.67517	0.267
Mof_N 	N 	0.3371	0.7387	0.58562	-0.265
Mof_H 	H 	0.3525	0.7832	0.63107	0.156
Mof_C 	C 	0.2381	0.6984	0.54617	0.257
Mof_O 	O 	0.2103	0.6334	0.48018	-0.251
Mof_C 	C 	0.1578	0.7352	0.57968	-0.127
Mof_C 	C 	0.1362	0.74	0.67121	0.072
Mof_H 	H 	0.1747	0.7208	0.71307	-0.008
Mof_N 	N 	0.06295	0.77085	0.70116	-0.232
Mof_C 	C 	0.0144	0.8063	0.64051	0.055
Mof_H 	H 	0.9672	0.8329	0.66097	0.005
Mof_C 	C 	0.0312	0.8051	0.54926	-0.19
Mof_H 	H 	0.9959	0.8302	0.50907	0.102
Mof_C 	C 	0.1004	0.7667	0.51877	0.084
Mof_H 	H 	0.1094	0.7615	0.45717	-0.009
Mof_N 	N 	0.15975	0.82053	0.88214	-0.204
Mof_C 	C 	0.23697	0.92197	0.85057	-0.013
Mof_H 	H 	0.2188	0.9513	0.80083	0.021
Mof_C 	C 	0.34231	0.98471	0.88876	0.038
Mof_H 	H 	0.3956	0.0539	0.86373	0.011
Mof_C 	C 	0.36851	0.94431	0.9645	-0.145
Mof_H 	H 	0.4388	0.9868	0.99233	0.088
Mof_C 	C 	0.28914	0.83984	0.99879	0.126
Mof_C 	C 	0.18577	0.77762	0.95379	-0.055
Mof_H 	H 	0.1338	0.7049	0.97383	0.044
Mof_N 	N 	0.31427	0.80243	0.07912	-0.227
Mof_H 	H 	0.3803	0.8467	0.10173	0.117
Mof_C 	C 	0.2478	0.7056	0.12541	0.157
Mof_O 	O 	0.16137	0.62555	0.09683	-0.23
Mof_C 	C 	0.2895	0.7111	0.22166	0.199
Mof_H 	H 	0.3723	0.7605	0.22293	-0.022
Mof_C 	C 	0.2364	0.7618	0.28163	-0.713
Mof_H 	H 	0.1553	0.7132	0.28183	0.243
Mof_H 	H 	0.2552	0.8355	0.25933	0.239
Mof_H 	H 	0.265	0.7689	0.34183	0.263
Mof_N 	N 	0.2613	0.5984	0.25228	-0.262
Mof_H 	H 	0.2168	0.5693	0.29773	0.152
Mof_C 	C 	0.3016	0.5397	0.21283	0.252
Mof_O 	O 	0.3666	0.5769	0.14684	-0.248
Mof_C 	C 	0.2648	0.4226	0.24634	-0.117
Mof_C 	C 	0.26	0.3962	0.33787	0.066
Mof_H 	H 	0.2792	0.4539	0.37973	-0.006
Mof_N 	N 	0.22915	0.2921	0.36782	-0.232
Mof_C 	C 	0.1937	0.2081	0.30717	0.077
Mof_H 	H 	0.1671	0.1343	0.32763	-0.03
Mof_C 	C 	0.1949	0.2261	0.21592	-0.149
Mof_H 	H 	0.1698	0.1657	0.17573	0.06
Mof_C 	C 	0.2333	0.3337	0.18543	0.057
Mof_H 	H 	0.2385	0.3479	0.12383	0.001
Mof_N 	N 	0.33922	0.17947	0.45119	-0.221
Mof_C 	C 	0.315	0.07803	0.48276	0.061
Mof_H 	H 	0.2675	0.0487	0.5325	-0.018
Mof_C 	C 	0.3576	0.01529	0.44457	-0.118
Mof_H 	H 	0.3417	0.9461	0.4696	0.094
Mof_C 	C 	0.4242	0.05569	0.36883	-0.059
Mof_H 	H 	0.452	0.0132	0.341	0.042
Mof_C 	C 	0.4493	0.16016	0.33454	0.087
Mof_C 	C 	0.40815	0.22238	0.37954	-0.033
Mof_H 	H 	0.4289	0.2951	0.3595	0.043
Mof_N 	N 	0.51184	0.19757	0.25421	-0.219
Mof_H 	H 	0.5336	0.1533	0.2316	0.109
Mof_C 	C 	0.5422	0.2944	0.20792	0.152
Mof_O 	O 	0.53582	0.37445	0.2365	-0.223
Mof_C 	C 	0.5784	0.2889	0.11167	0.2
Mof_H 	H 	0.6118	0.2395	0.1104	-0.026
Mof_C 	C 	0.4746	0.2382	0.0517	-0.711
Mof_H 	H 	0.4421	0.2868	0.0515	0.245
Mof_H 	H 	0.4197	0.1645	0.074	0.23
Mof_H 	H 	0.4961	0.2311	0.9915	0.26
Mof_N 	N 	0.6629	0.4016	0.08105	-0.261
Mof_H 	H 	0.6475	0.4307	0.0356	0.153
Mof_C 	C 	0.7619	0.4603	0.1205	0.249
Mof_O 	O 	0.7897	0.4231	0.18649	-0.245
Mof_C 	C 	0.8422	0.5774	0.08699	-0.107
Mof_C 	C 	0.8638	0.6038	0.99546	0.065
Mof_H 	H 	0.8253	0.5461	0.9536	-0.004
Mof_N 	N 	0.93705	0.7079	0.96551	-0.226
Mof_C 	C 	0.9856	0.7919	0.02616	0.097
Mof_H 	H 	0.0328	0.8657	0.0057	-0.038
Mof_C 	C 	0.9688	0.7739	0.11741	-0.102
Mof_H 	H 	0.0041	0.8343	0.1576	0.039
Mof_C 	C 	0.8996	0.6663	0.1479	0.037
Mof_H 	H 	0.8906	0.6521	0.2095	0.016
Mof_N 	N 	0.84025	0.66078	0.78452	-0.204
Mof_C 	C 	0.76303	0.685	0.81609	0.023
Mof_H 	H 	0.7812	0.7325	0.86583	0.007
Mof_C 	C 	0.65769	0.6424	0.7779	-0.033
Mof_H 	H 	0.6044	0.6583	0.80293	0.05
Mof_C 	C 	0.63149	0.5758	0.70216	-0.106
Mof_H 	H 	0.5612	0.548	0.67433	0.067
Mof_C 	C 	0.71086	0.5507	0.66787	0.112
Mof_C 	C 	0.81423	0.59185	0.71287	-0.045
Mof_H 	H 	0.8662	0.5711	0.69283	0.054
Mof_N 	N 	0.68573	0.48816	0.58754	-0.223
Mof_H 	H 	0.6197	0.4664	0.56493	0.113
Mof_C 	C 	0.7522	0.4578	0.54125	0.151
Mof_O 	O 	0.83863	0.46418	0.56983	-0.217
Mof_C 	C 	0.7105	0.4216	0.445	0.209
Mof_H 	H 	0.6277	0.3882	0.44373	-0.027
Mof_C 	C 	0.7636	0.5254	0.38503	-0.729
Mof_H 	H 	0.8447	0.5579	0.38483	0.256
Mof_H 	H 	0.7448	0.5803	0.40733	0.243
Mof_H 	H 	0.735	0.5039	0.32483	0.267
Mof_N 	N 	0.7387	0.3371	0.41438	-0.265
Mof_H 	H 	0.7832	0.3525	0.36893	0.156
Mof_C 	C 	0.6984	0.2381	0.45383	0.257
Mof_O 	O 	0.6334	0.2103	0.51982	-0.251
Mof_C 	C 	0.7352	0.1578	0.42032	-0.127
Mof_C 	C 	0.74	0.1362	0.32879	0.072
Mof_H 	H 	0.7208	0.1747	0.28693	-0.008
Mof_N 	N 	0.77085	0.06295	0.29884	-0.232
Mof_C 	C 	0.8063	0.0144	0.35949	0.055
Mof_H 	H 	0.8329	0.9672	0.33903	0.005
Mof_C 	C 	0.8051	0.0312	0.45074	-0.19
Mof_H 	H 	0.8302	0.9959	0.49093	0.102
Mof_C 	C 	0.7667	0.1004	0.48123	0.084
Mof_H 	H 	0.7615	0.1094	0.54283	-0.009
Mof_N 	N 	0.82053	0.15975	0.11786	-0.204
Mof_C 	C 	0.92197	0.23697	0.14943	-0.013
Mof_H 	H 	0.9513	0.2188	0.19917	0.021
Mof_C 	C 	0.98471	0.34231	0.11124	0.038
Mof_H 	H 	0.0539	0.3956	0.13627	0.011
Mof_C 	C 	0.94431	0.36851	0.0355	-0.145
Mof_H 	H 	0.9868	0.4388	0.00767	0.088
Mof_C 	C 	0.83984	0.28914	0.00121	0.126
Mof_C 	C 	0.77762	0.18577	0.04621	-0.055
Mof_H 	H 	0.7049	0.1338	0.02617	0.044
Mof_N 	N 	0.80243	0.31427	0.92088	-0.227
Mof_H 	H 	0.8467	0.3803	0.89827	0.117
Mof_C 	C 	0.7056	0.2478	0.87459	0.157
Mof_O 	O 	0.62555	0.16137	0.90317	-0.23
Mof_C 	C 	0.7111	0.2895	0.77834	0.199
Mof_H 	H 	0.7605	0.3723	0.77707	-0.022
Mof_C 	C 	0.7618	0.2364	0.71837	-0.713
Mof_H 	H 	0.7132	0.1553	0.71817	0.243
Mof_H 	H 	0.8355	0.2552	0.74067	0.239
Mof_H 	H 	0.7689	0.265	0.65817	0.263
Mof_N 	N 	0.5984	0.2613	0.74772	-0.262
Mof_H 	H 	0.5693	0.2168	0.70227	0.152
Mof_C 	C 	0.5397	0.3016	0.78717	0.252
Mof_O 	O 	0.5769	0.3666	0.85316	-0.248
Mof_C 	C 	0.4226	0.2648	0.75366	-0.117
Mof_C 	C 	0.3962	0.26	0.66213	0.066
Mof_H 	H 	0.4539	0.2792	0.62027	-0.006
Mof_N 	N 	0.2921	0.22915	0.63218	-0.232
Mof_C 	C 	0.2081	0.1937	0.69283	0.077
Mof_H 	H 	0.1343	0.1671	0.67237	-0.03
Mof_C 	C 	0.2261	0.1949	0.78408	-0.149
Mof_H 	H 	0.1657	0.1698	0.82427	0.06
Mof_C 	C 	0.3337	0.2333	0.81457	0.057
Mof_H 	H 	0.3479	0.2385	0.87617	0.001
Mof_Cu	Cu	0.26264	0.26264	0.5	0.843
Mof_Cu	Cu	0.73736	0	0.16667	0.834
Mof_Cu	Cu	-1.57549e-17	0.73736	0.83333	0.834
_end
