data_functionalizedCrystal
_audit_creation_method	'EQeq! by Chris Wilmer'
_symmetry_space_group_name_H-M	'P1'
_symmetry_Int_Tables_number	1
_symmetry_cell_setting	triclinic
loop_
_symmetry_equiv_pos_as_xyz
  x,y,z
_cell_length_a	9.5711
_cell_length_b	12.438
_cell_length_c	26.565
_cell_angle_alpha	90
_cell_angle_beta	90.493
_cell_angle_gamma	90
loop_
_atom_site_label
_atom_site_type_symbol
_atom_site_fract_x
_atom_site_fract_y
_atom_site_fract_z
_atom_site_charge
Mof_Cd	Cd	0.3156	0.53898	0.04647	0.461
Mof_N 	N 	0.4271	0.7026	0.0547	-0.143
Mof_N 	N 	0.7735	0.9939	0.0399	-0.124
Mof_N 	N 	0.8496	0.088	0.037	-0.12
Mof_N 	N 	0.2153	0.3698	0.0441	-0.137
Mof_C 	C 	0.5578	0.7105	0.0426	0.065
Mof_H 	H 	0.6049	0.6466	0.0329	0.027
Mof_C 	C 	0.6333	0.8053	0.0427	-0.093
Mof_H 	H 	0.7285	0.8054	0.033	0.071
Mof_C 	C 	0.5704	0.8985	0.0569	-0.008
Mof_C 	C 	0.4325	0.8912	0.0715	-0.086
Mof_H 	H 	0.3851	0.9529	0.0837	0.05
Mof_C 	C 	0.3637	0.7937	0.0681	0.055
Mof_H 	H 	0.267	0.7914	0.0758	0.02
Mof_C 	C 	0.6509	0.0007	0.0583	0.187
Mof_C 	C 	0.5908	0.102	0.0794	-0.568
Mof_H 	H 	0.6581	0.1607	0.0755	0.213
Mof_H 	H 	0.5707	0.0918	0.1151	0.196
Mof_H 	H 	0.5042	0.1199	0.0612	0.195
Mof_C 	C 	0.2518	0.294	0.0767	0.056
Mof_H 	H 	0.3318	0.3053	0.0974	0.022
Mof_C 	C 	0.1783	0.1992	0.0818	-0.09
Mof_H 	H 	0.2085	0.1463	0.1052	0.053
Mof_C 	C 	0.0594	0.1817	0.0522	-0.005
Mof_C 	C 	0.0227	0.2617	0.0177	-0.084
Mof_H 	H 	0.9436	0.2524	0.9963	0.08
Mof_C 	C 	0.1017	0.3547	0.0148	0.051
Mof_H 	H 	0.075	0.4091	0.9916	0.043
Mof_C 	C 	0.9719	0.0829	0.058	0.185
Mof_C 	C 	0.0262	0.9902	0.0875	-0.542
Mof_H 	H 	0.967	0.9272	0.0813	0.198
Mof_H 	H 	0.0255	0.008	0.1234	0.187
Mof_H 	H 	0.1221	0.9743	0.0771	0.188
Mof_C 	C 	0.1229	0.5865	0.118	0.284
Mof_C 	C 	0.0055	0.6081	0.1545	0.01
Mof_C 	C 	0.0005	0.563	0.2024	0.244
Mof_H 	H 	0.0674	0.5106	0.2122	-0.067
Mof_C 	C 	0.8974	0.5948	0.2358	0.123
Mof_H 	H 	0.8939	0.564	0.2685	-0.045
Mof_C 	C 	0.7994	0.6716	0.2214	0.221
Mof_C 	C 	0.8044	0.7167	0.1735	-0.097
Mof_H 	H 	0.7374	0.7691	0.1637	0.165
Mof_C 	C 	0.9075	0.6849	0.1401	-0.043
Mof_H 	H 	0.9109	0.7157	0.1074	0.032
Mof_C 	C 	0.9059	0.8719	0.3411	-0.043
Mof_H 	H 	0.996	0.9035	0.3439	0.022
Mof_C 	C 	0.8107	0.8842	0.3795	-0.066
Mof_C 	C 	0.6797	0.8382	0.3754	0.016
Mof_H 	H 	0.6142	0.8467	0.4017	0.017
Mof_C 	C 	0.6439	0.78	0.3329	-0.14
Mof_H 	H 	0.5538	0.7484	0.3301	-0.096
Mof_C 	C 	0.7391	0.7677	0.2945	-0.149
Mof_C 	C 	0.8701	0.8136	0.2986	-0.146
Mof_H 	H 	0.9356	0.8052	0.2723	0.088
Mof_O 	O 	0.6931	0.7083	0.2524	-0.073
Mof_C 	C 	0.8564	0.9321	0.4323	0.312
Mof_O 	O 	0.2237	0.5337	0.1355	-0.261
Mof_O 	O 	0.1133	0.6165	0.0733	-0.28
Mof_O 	O 	0.9813	0.9543	0.4395	-0.301
Mof_O 	O 	0.7604	0.9393	0.4647	-0.285
Mof_C 	C 	0.014	0.6371	0.151	-0.042
Mof_C 	C 	0.01	0.6106	0.2017	-0.23
Mof_H 	H 	0.078	0.5638	0.2157	0.064
Mof_C 	C 	0.9052	0.6525	0.2319	-0.31
Mof_H 	H 	0.9022	0.6343	0.2666	0.116
Mof_C 	C 	0.8053	0.7208	0.2113	0.025
Mof_C 	C 	0.81	0.7473	0.1606	-0.07
Mof_H 	H 	0.7414	0.7941	0.1466	-0.058
Mof_C 	C 	0.914	0.7054	0.1304	0.078
Mof_H 	H 	0.9172	0.7236	0.0957	-0.016
Mof_C 	C 	0.907	0.9042	0.345	0.073
Mof_H 	H 	0.9948	0.9374	0.3517	0.009
Mof_C 	C 	0.81	0.893	0.3832	-0.023
Mof_C 	C 	0.682	0.845	0.3734	0.009
Mof_H 	H 	0.6161	0.8371	0.3996	0.02
Mof_C 	C 	0.651	0.8073	0.3254	0.006
Mof_H 	H 	0.5636	0.7742	0.3187	0.198
Mof_C 	C 	0.748	0.8185	0.2872	0.321
Mof_C 	C 	0.876	0.8669	0.297	-0.05
Mof_H 	H 	0.9422	0.8745	0.2708	0.033
Mof_O 	O 	0.701	0.764	0.2425	-0.195
Mof_Cd	Cd	0.1844	0.03898	0.45353	0.459
Mof_N 	N 	0.0729	0.2026	0.4453	-0.144
Mof_N 	N 	0.7265	0.4939	0.4601	-0.125
Mof_N 	N 	0.6504	0.588	0.463	-0.123
Mof_N 	N 	0.2847	0.8698	0.4559	-0.137
Mof_C 	C 	0.9422	0.2105	0.4574	0.064
Mof_H 	H 	0.8951	0.1466	0.4671	0.026
Mof_C 	C 	0.8667	0.3053	0.4573	-0.093
Mof_H 	H 	0.7715	0.3054	0.467	0.071
Mof_C 	C 	0.9296	0.3985	0.4431	-0.008
Mof_C 	C 	0.0675	0.3912	0.4285	-0.086
Mof_H 	H 	0.1149	0.4529	0.4163	0.05
Mof_C 	C 	0.1363	0.2937	0.4319	0.055
Mof_H 	H 	0.233	0.2914	0.4242	0.02
Mof_C 	C 	0.8491	0.5007	0.4417	0.188
Mof_C 	C 	0.9092	0.602	0.4206	-0.568
Mof_H 	H 	0.8419	0.6607	0.4245	0.213
Mof_H 	H 	0.9293	0.5918	0.3849	0.196
Mof_H 	H 	0.9958	0.6199	0.4388	0.195
Mof_C 	C 	0.2482	0.794	0.4233	0.055
Mof_H 	H 	0.1682	0.8053	0.4026	0.023
Mof_C 	C 	0.3217	0.6992	0.4182	-0.088
Mof_H 	H 	0.2915	0.6463	0.3948	0.053
Mof_C 	C 	0.4406	0.6817	0.4478	-0.009
Mof_C 	C 	0.4773	0.7617	0.4823	-0.079
Mof_H 	H 	0.5564	0.7524	0.5037	0.077
Mof_C 	C 	0.3983	0.8547	0.4852	0.048
Mof_H 	H 	0.425	0.9091	0.5084	0.044
Mof_C 	C 	0.5281	0.5829	0.442	0.192
Mof_C 	C 	0.4738	0.4902	0.4125	-0.564
Mof_H 	H 	0.533	0.4272	0.4187	0.205
Mof_H 	H 	0.4745	0.508	0.3766	0.195
Mof_H 	H 	0.3779	0.4743	0.4229	0.193
Mof_C 	C 	0.3771	0.0865	0.382	0.284
Mof_C 	C 	0.4945	0.1081	0.3455	0.009
Mof_C 	C 	0.4995	0.063	0.2976	0.241
Mof_H 	H 	0.4326	0.0106	0.2878	-0.067
Mof_C 	C 	0.6026	0.0948	0.2642	0.121
Mof_H 	H 	0.6061	0.064	0.2315	-0.044
Mof_C 	C 	0.7006	0.1716	0.2786	0.221
Mof_C 	C 	0.6956	0.2167	0.3265	-0.097
Mof_H 	H 	0.7626	0.2691	0.3363	0.165
Mof_C 	C 	0.5925	0.1849	0.3599	-0.043
Mof_H 	H 	0.5891	0.2157	0.3926	0.033
Mof_C 	C 	0.5941	0.3719	0.1589	-0.043
Mof_H 	H 	0.504	0.4035	0.1561	0.023
Mof_C 	C 	0.6893	0.3842	0.1205	-0.066
Mof_C 	C 	0.8203	0.3382	0.1246	0.016
Mof_H 	H 	0.8858	0.3467	0.0983	0.017
Mof_C 	C 	0.8561	0.28	0.1671	-0.14
Mof_H 	H 	0.9462	0.2484	0.1699	-0.094
Mof_C 	C 	0.7609	0.2677	0.2055	-0.15
Mof_C 	C 	0.6299	0.3136	0.2014	-0.146
Mof_H 	H 	0.5644	0.3052	0.2277	0.088
Mof_O 	O 	0.8069	0.2083	0.2476	-0.072
Mof_C 	C 	0.6436	0.4321	0.0677	0.312
Mof_O 	O 	0.2763	0.0337	0.3645	-0.261
Mof_O 	O 	0.3867	0.1165	0.4267	-0.281
Mof_O 	O 	0.5187	0.4543	0.0605	-0.3
Mof_O 	O 	0.7396	0.4393	0.0353	-0.285
Mof_C 	C 	0.486	0.1371	0.349	-0.041
Mof_C 	C 	0.49	0.1106	0.2983	-0.227
Mof_H 	H 	0.422	0.0638	0.2843	0.063
Mof_C 	C 	0.5948	0.1525	0.2681	-0.307
Mof_H 	H 	0.5978	0.1343	0.2334	0.115
Mof_C 	C 	0.6947	0.2208	0.2887	0.024
Mof_C 	C 	0.69	0.2473	0.3394	-0.07
Mof_H 	H 	0.7586	0.2941	0.3534	-0.058
Mof_C 	C 	0.586	0.2054	0.3696	0.079
Mof_H 	H 	0.5828	0.2236	0.4043	-0.016
Mof_C 	C 	0.593	0.4042	0.155	0.073
Mof_H 	H 	0.5052	0.4374	0.1483	0.009
Mof_C 	C 	0.69	0.393	0.1168	-0.023
Mof_C 	C 	0.818	0.345	0.1266	0.009
Mof_H 	H 	0.8839	0.3371	0.1004	0.02
Mof_C 	C 	0.849	0.3073	0.1746	0.006
Mof_H 	H 	0.9364	0.2742	0.1813	0.196
Mof_C 	C 	0.752	0.3185	0.2128	0.322
Mof_C 	C 	0.624	0.3669	0.203	-0.049
Mof_H 	H 	0.5578	0.3745	0.2292	0.033
Mof_O 	O 	0.799	0.264	0.2575	-0.196
Mof_Cd	Cd	0.6844	0.46102	0.95353	0.46
Mof_N 	N 	0.5729	0.2974	0.9453	-0.144
Mof_N 	N 	0.2265	0.0061	0.9601	-0.125
Mof_N 	N 	0.1504	0.912	0.963	-0.121
Mof_N 	N 	0.7847	0.6302	0.9559	-0.138
Mof_C 	C 	0.4422	0.2895	0.9574	0.064
Mof_H 	H 	0.3951	0.3534	0.9671	0.026
Mof_C 	C 	0.3667	0.1947	0.9573	-0.094
Mof_H 	H 	0.2715	0.1946	0.967	0.071
Mof_C 	C 	0.4296	0.1015	0.9431	-0.008
Mof_C 	C 	0.5675	0.1088	0.9285	-0.086
Mof_H 	H 	0.6149	0.0471	0.9163	0.05
Mof_C 	C 	0.6363	0.2063	0.9319	0.055
Mof_H 	H 	0.733	0.2086	0.9242	0.02
Mof_C 	C 	0.3491	0.9993	0.9417	0.187
Mof_C 	C 	0.4092	0.898	0.9206	-0.568
Mof_H 	H 	0.3419	0.8393	0.9245	0.213
Mof_H 	H 	0.4293	0.9082	0.8849	0.196
Mof_H 	H 	0.4958	0.8801	0.9388	0.195
Mof_C 	C 	0.7482	0.706	0.9233	0.056
Mof_H 	H 	0.6682	0.6947	0.9026	0.022
Mof_C 	C 	0.8217	0.8008	0.9182	-0.09
Mof_H 	H 	0.7915	0.8537	0.8948	0.053
Mof_C 	C 	0.9406	0.8183	0.9478	-0.005
Mof_C 	C 	0.9773	0.7383	0.9823	-0.084
Mof_H 	H 	0.0564	0.7476	0.0037	0.08
Mof_C 	C 	0.8983	0.6453	0.9852	0.051
Mof_H 	H 	0.925	0.5909	0.0084	0.043
Mof_C 	C 	0.0281	0.9171	0.942	0.185
Mof_C 	C 	0.9738	0.0098	0.9125	-0.542
Mof_H 	H 	0.033	0.0728	0.9187	0.198
Mof_H 	H 	0.9745	0.992	0.8766	0.187
Mof_H 	H 	0.8779	0.0257	0.9229	0.188
Mof_C 	C 	0.8771	0.4135	0.882	0.284
Mof_C 	C 	0.9945	0.3919	0.8455	0.01
Mof_C 	C 	0.9995	0.437	0.7976	0.244
Mof_H 	H 	0.9326	0.4894	0.7878	-0.067
Mof_C 	C 	0.1026	0.4052	0.7642	0.123
Mof_H 	H 	0.1061	0.436	0.7315	-0.045
Mof_C 	C 	0.2006	0.3284	0.7786	0.221
Mof_C 	C 	0.1956	0.2833	0.8265	-0.097
Mof_H 	H 	0.2626	0.2309	0.8363	0.165
Mof_C 	C 	0.0925	0.3151	0.8599	-0.043
Mof_H 	H 	0.0891	0.2843	0.8926	0.032
Mof_C 	C 	0.0941	0.1281	0.6589	-0.043
Mof_H 	H 	0.004	0.0965	0.6561	0.022
Mof_C 	C 	0.1893	0.1158	0.6205	-0.066
Mof_C 	C 	0.3203	0.1618	0.6246	0.016
Mof_H 	H 	0.3858	0.1533	0.5983	0.017
Mof_C 	C 	0.3561	0.22	0.6671	-0.14
Mof_H 	H 	0.4462	0.2516	0.6699	-0.096
Mof_C 	C 	0.2609	0.2323	0.7055	-0.149
Mof_C 	C 	0.1299	0.1864	0.7014	-0.146
Mof_H 	H 	0.0644	0.1948	0.7277	0.088
Mof_O 	O 	0.3069	0.2917	0.7476	-0.073
Mof_C 	C 	0.1436	0.0679	0.5677	0.312
Mof_O 	O 	0.7763	0.4663	0.8645	-0.261
Mof_O 	O 	0.8867	0.3835	0.9267	-0.28
Mof_O 	O 	0.0187	0.0457	0.5605	-0.301
Mof_O 	O 	0.2396	0.0607	0.5353	-0.285
Mof_C 	C 	0.986	0.3629	0.849	-0.042
Mof_C 	C 	0.99	0.3894	0.7983	-0.23
Mof_H 	H 	0.922	0.4362	0.7843	0.064
Mof_C 	C 	0.0948	0.3475	0.7681	-0.31
Mof_H 	H 	0.0978	0.3657	0.7334	0.116
Mof_C 	C 	0.1947	0.2792	0.7887	0.025
Mof_C 	C 	0.19	0.2527	0.8394	-0.07
Mof_H 	H 	0.2586	0.2059	0.8534	-0.058
Mof_C 	C 	0.086	0.2946	0.8696	0.078
Mof_H 	H 	0.0828	0.2764	0.9043	-0.016
Mof_C 	C 	0.093	0.0958	0.655	0.073
Mof_H 	H 	0.0052	0.0626	0.6483	0.009
Mof_C 	C 	0.19	0.107	0.6168	-0.023
Mof_C 	C 	0.318	0.155	0.6266	0.009
Mof_H 	H 	0.3839	0.1629	0.6004	0.02
Mof_C 	C 	0.349	0.1927	0.6746	0.006
Mof_H 	H 	0.4364	0.2258	0.6813	0.198
Mof_C 	C 	0.252	0.1815	0.7128	0.321
Mof_C 	C 	0.124	0.1331	0.703	-0.05
Mof_H 	H 	0.0578	0.1255	0.7292	0.033
Mof_O 	O 	0.299	0.236	0.7575	-0.195
Mof_Cd	Cd	0.8156	0.96102	0.54647	0.459
Mof_N 	N 	0.9271	0.7974	0.5547	-0.144
Mof_N 	N 	0.2735	0.5061	0.5399	-0.125
Mof_N 	N 	0.3496	0.412	0.537	-0.123
Mof_N 	N 	0.7153	0.1302	0.5441	-0.137
Mof_C 	C 	0.0578	0.7895	0.5426	0.064
Mof_H 	H 	0.1049	0.8534	0.5329	0.026
Mof_C 	C 	0.1333	0.6947	0.5427	-0.093
Mof_H 	H 	0.2285	0.6946	0.533	0.071
Mof_C 	C 	0.0704	0.6015	0.5569	-0.008
Mof_C 	C 	0.9325	0.6088	0.5715	-0.086
Mof_H 	H 	0.8851	0.5471	0.5837	0.05
Mof_C 	C 	0.8637	0.7063	0.5681	0.055
Mof_H 	H 	0.767	0.7086	0.5758	0.02
Mof_C 	C 	0.1509	0.4993	0.5583	0.188
Mof_C 	C 	0.0908	0.398	0.5794	-0.568
Mof_H 	H 	0.1581	0.3393	0.5755	0.213
Mof_H 	H 	0.0707	0.4082	0.6151	0.196
Mof_H 	H 	0.0042	0.3801	0.5612	0.195
Mof_C 	C 	0.7518	0.206	0.5767	0.055
Mof_H 	H 	0.8318	0.1947	0.5974	0.023
Mof_C 	C 	0.6783	0.3008	0.5818	-0.088
Mof_H 	H 	0.7085	0.3537	0.6052	0.053
Mof_C 	C 	0.5594	0.3183	0.5522	-0.009
Mof_C 	C 	0.5227	0.2383	0.5177	-0.079
Mof_H 	H 	0.4436	0.2476	0.4963	0.077
Mof_C 	C 	0.6017	0.1453	0.5148	0.048
Mof_H 	H 	0.575	0.0909	0.4916	0.044
Mof_C 	C 	0.4719	0.4171	0.558	0.192
Mof_C 	C 	0.5262	0.5098	0.5875	-0.564
Mof_H 	H 	0.467	0.5728	0.5813	0.205
Mof_H 	H 	0.5255	0.492	0.6234	0.195
Mof_H 	H 	0.6221	0.5257	0.5771	0.193
Mof_C 	C 	0.6229	0.9135	0.618	0.284
Mof_C 	C 	0.5055	0.8919	0.6545	0.009
Mof_C 	C 	0.5005	0.937	0.7024	0.241
Mof_H 	H 	0.5674	0.9894	0.7122	-0.067
Mof_C 	C 	0.3974	0.9052	0.7358	0.121
Mof_H 	H 	0.3939	0.936	0.7685	-0.044
Mof_C 	C 	0.2994	0.8284	0.7214	0.221
Mof_C 	C 	0.3044	0.7833	0.6735	-0.097
Mof_H 	H 	0.2374	0.7309	0.6637	0.165
Mof_C 	C 	0.4075	0.8151	0.6401	-0.043
Mof_H 	H 	0.4109	0.7843	0.6074	0.033
Mof_C 	C 	0.4059	0.6281	0.8411	-0.043
Mof_H 	H 	0.496	0.5965	0.8439	0.023
Mof_C 	C 	0.3107	0.6158	0.8795	-0.066
Mof_C 	C 	0.1797	0.6618	0.8754	0.016
Mof_H 	H 	0.1142	0.6533	0.9017	0.017
Mof_C 	C 	0.1439	0.72	0.8329	-0.14
Mof_H 	H 	0.0538	0.7516	0.8301	-0.094
Mof_C 	C 	0.2391	0.7323	0.7945	-0.15
Mof_C 	C 	0.3701	0.6864	0.7986	-0.146
Mof_H 	H 	0.4356	0.6948	0.7723	0.088
Mof_O 	O 	0.1931	0.7917	0.7524	-0.072
Mof_C 	C 	0.3564	0.5679	0.9323	0.312
Mof_O 	O 	0.7237	0.9663	0.6355	-0.261
Mof_O 	O 	0.6133	0.8835	0.5733	-0.281
Mof_O 	O 	0.4813	0.5457	0.9395	-0.3
Mof_O 	O 	0.2604	0.5607	0.9647	-0.285
Mof_C 	C 	0.514	0.8629	0.651	-0.041
Mof_C 	C 	0.51	0.8894	0.7017	-0.227
Mof_H 	H 	0.578	0.9362	0.7157	0.063
Mof_C 	C 	0.4052	0.8475	0.7319	-0.307
Mof_H 	H 	0.4022	0.8657	0.7666	0.115
Mof_C 	C 	0.3053	0.7792	0.7113	0.024
Mof_C 	C 	0.31	0.7527	0.6606	-0.07
Mof_H 	H 	0.2414	0.7059	0.6466	-0.058
Mof_C 	C 	0.414	0.7946	0.6304	0.079
Mof_H 	H 	0.4172	0.7764	0.5957	-0.016
Mof_C 	C 	0.407	0.5958	0.845	0.073
Mof_H 	H 	0.4948	0.5626	0.8517	0.009
Mof_C 	C 	0.31	0.607	0.8832	-0.023
Mof_C 	C 	0.182	0.655	0.8734	0.009
Mof_H 	H 	0.1161	0.6629	0.8996	0.02
Mof_C 	C 	0.151	0.6927	0.8254	0.006
Mof_H 	H 	0.0636	0.7258	0.8187	0.196
Mof_C 	C 	0.248	0.6815	0.7872	0.322
Mof_C 	C 	0.376	0.6331	0.797	-0.049
Mof_H 	H 	0.4422	0.6255	0.7708	0.033
Mof_O 	O 	0.201	0.736	0.7425	-0.196
_end
