data_functionalizedCrystal
_audit_creation_method	'EQeq! by Chris Wilmer'
_symmetry_space_group_name_H-M	'P1'
_symmetry_Int_Tables_number	1
_symmetry_cell_setting	triclinic
loop_
_symmetry_equiv_pos_as_xyz
  x,y,z
_cell_length_a	13.202
_cell_length_b	27.475
_cell_length_c	7.641
_cell_angle_alpha	90
_cell_angle_beta	123.254
_cell_angle_gamma	90
loop_
_atom_site_label
_atom_site_type_symbol
_atom_site_fract_x
_atom_site_fract_y
_atom_site_fract_z
_atom_site_charge
Mof_C 	C 	0.925	0.2836	0.4974	-0.128
Mof_H 	H 	0.9471	0.3121	0.4609	0.091
Mof_C 	C 	0.869	0.2464	0.3543	0.057
Mof_H 	H 	0.8483	0.2506	0.2177	0.026
Mof_C 	C 	0.8433	0.2026	0.4132	-0.123
Mof_C 	C 	0.87	0.1975	0.6151	0.046
Mof_H 	H 	0.85	0.1688	0.6539	0.026
Mof_C 	C 	0.9273	0.2355	0.7613	-0.123
Mof_H 	H 	0.9503	0.2313	0.8992	0.075
Mof_C 	C 	0.9482	0.278	0.6981	0.064
Mof_C 	C 	0.9995	0.3215	0.8453	0.038
Mof_C 	C 	0.0445	0.3257	0.0491	0.006
Mof_H 	H 	0.054	0.2999	0.1357	0.043
Mof_C 	C 	0.0458	0.3962	0.9523	0.146
Mof_H 	H 	0.0558	0.4297	0.9507	-0.001
Mof_C 	C 	0.7788	0.1605	0.2652	0.363
Mof_C 	C 	0.6087	0.5631	0.6752	-0.086
Mof_H 	H 	0.5516	0.5874	0.6402	0.065
Mof_C 	C 	0.7285	0.575	0.7538	0.01
Mof_H 	H 	0.753	0.6073	0.784	0.038
Mof_C 	C 	0.8154	0.5381	0.7893	-0.082
Mof_C 	C 	0.7789	0.4909	0.7563	0.025
Mof_H 	H 	0.8351	0.4663	0.7899	0.036
Mof_C 	C 	0.6613	0.4795	0.6748	-0.09
Mof_H 	H 	0.6372	0.4474	0.6338	0.065
Mof_C 	C 	0.5743	0.5126	0.6487	0.029
Mof_C 	C 	0.4512	0.4986	0.5626	0.054
Mof_C 	C 	0.4037	0.4534	0.5667	-0.007
Mof_H 	H 	0.4476	0.4246	0.6187	0.038
Mof_C 	C 	0.2549	0.5063	0.4298	0.12
Mof_H 	H 	0.1776	0.5195	0.3666	0.017
Mof_C 	C 	0.9449	0.5523	0.8611	0.313
Mof_Cd	Cd	0.15111	0.40207	0.43916	0.441
Mof_N 	N 	0.0746	0.3727	0.1141	-0.152
Mof_N 	N 	0.9996	0.3683	0.7838	-0.221
Mof_H 	H 	0.9744	0.3778	0.659	0.159
Mof_N 	N 	0.2834	0.4584	0.4824	-0.142
Mof_N 	N 	0.3556	0.5314	0.4836	-0.213
Mof_H 	H 	0.3601	0.5623	0.4713	0.157
Mof_O 	O 	0.732	0.1722	0.0676	-0.281
Mof_O 	O 	0.7736	0.1219	0.3085	-0.331
Mof_O 	O 	0.0109	0.5237	0.85	-0.278
Mof_O 	O 	0.9733	0.5962	0.9221	-0.298
Mof_C 	C 	0.425	0.7836	0.4974	-0.125
Mof_H 	H 	0.4471	0.8121	0.4609	0.091
Mof_C 	C 	0.369	0.7464	0.3543	0.056
Mof_H 	H 	0.3483	0.7506	0.2177	0.027
Mof_C 	C 	0.3433	0.7026	0.4132	-0.122
Mof_C 	C 	0.37	0.6975	0.6151	0.046
Mof_H 	H 	0.35	0.6688	0.6539	0.027
Mof_C 	C 	0.4273	0.7355	0.7613	-0.121
Mof_H 	H 	0.4503	0.7313	0.8992	0.075
Mof_C 	C 	0.4482	0.778	0.6981	0.063
Mof_C 	C 	0.4995	0.8215	0.8453	0.042
Mof_C 	C 	0.5445	0.8257	0.0491	0.001
Mof_H 	H 	0.554	0.7999	0.1357	0.044
Mof_C 	C 	0.5458	0.8962	0.9523	0.144
Mof_H 	H 	0.5558	0.9297	0.9507	-0.001
Mof_C 	C 	0.2788	0.6605	0.2652	0.363
Mof_C 	C 	0.1087	0.0631	0.6752	-0.089
Mof_H 	H 	0.0516	0.0874	0.6402	0.067
Mof_C 	C 	0.2285	0.075	0.7538	0.012
Mof_H 	H 	0.253	0.1073	0.784	0.037
Mof_C 	C 	0.3154	0.0381	0.7893	-0.085
Mof_C 	C 	0.2789	0.9909	0.7563	0.028
Mof_H 	H 	0.3351	0.9663	0.7899	0.036
Mof_C 	C 	0.1613	0.9795	0.6748	-0.094
Mof_H 	H 	0.1372	0.9474	0.6338	0.067
Mof_C 	C 	0.0743	0.0126	0.6487	0.034
Mof_C 	C 	0.9512	0.9986	0.5626	0.05
Mof_C 	C 	0.9037	0.9534	0.5667	-0.006
Mof_H 	H 	0.9476	0.9246	0.6187	0.037
Mof_C 	C 	0.7549	0.0063	0.4298	0.12
Mof_H 	H 	0.6776	0.0195	0.3666	0.017
Mof_C 	C 	0.4449	0.0523	0.8611	0.317
Mof_Cd	Cd	0.65111	0.90207	0.43916	0.44
Mof_N 	N 	0.5746	0.8727	0.1141	-0.151
Mof_N 	N 	0.4996	0.8683	0.7838	-0.221
Mof_H 	H 	0.4744	0.8778	0.659	0.159
Mof_N 	N 	0.7834	0.9584	0.4824	-0.142
Mof_N 	N 	0.8556	0.0314	0.4836	-0.212
Mof_H 	H 	0.8601	0.0623	0.4713	0.157
Mof_O 	O 	0.232	0.6722	0.0676	-0.28
Mof_O 	O 	0.2736	0.6219	0.3085	-0.33
Mof_O 	O 	0.5109	0.0237	0.85	-0.281
Mof_O 	O 	0.4733	0.0962	0.9221	-0.298
Mof_C 	C 	0.925	0.7164	0.9974	-0.143
Mof_H 	H 	0.9471	0.6879	0.9609	0.095
Mof_C 	C 	0.869	0.7536	0.8543	0.07
Mof_H 	H 	0.8483	0.7494	0.7177	0.021
Mof_C 	C 	0.8433	0.7974	0.9132	-0.138
Mof_C 	C 	0.87	0.8025	0.1151	0.063
Mof_H 	H 	0.85	0.8312	0.1539	0.023
Mof_C 	C 	0.9273	0.7645	0.2613	-0.135
Mof_H 	H 	0.9503	0.7687	0.3992	0.081
Mof_C 	C 	0.9482	0.722	0.1981	0.076
Mof_C 	C 	0.9995	0.6785	0.3453	0.041
Mof_C 	C 	0.0445	0.6743	0.5491	-0.001
Mof_H 	H 	0.054	0.7001	0.6357	0.043
Mof_C 	C 	0.0458	0.6038	0.4523	0.155
Mof_H 	H 	0.0558	0.5703	0.4507	-0.003
Mof_C 	C 	0.7788	0.8395	0.7652	0.368
Mof_C 	C 	0.6087	0.4369	0.1752	-0.084
Mof_H 	H 	0.5516	0.4126	0.1402	0.066
Mof_C 	C 	0.7285	0.425	0.2538	0.01
Mof_H 	H 	0.753	0.3927	0.284	0.039
Mof_C 	C 	0.8154	0.4619	0.2893	-0.08
Mof_C 	C 	0.7789	0.5091	0.2563	0.025
Mof_H 	H 	0.8351	0.5337	0.2899	0.038
Mof_C 	C 	0.6613	0.5205	0.1748	-0.089
Mof_H 	H 	0.6372	0.5526	0.1338	0.066
Mof_C 	C 	0.5743	0.4874	0.1487	0.029
Mof_C 	C 	0.4512	0.5014	0.0626	0.058
Mof_C 	C 	0.4037	0.5466	0.0667	-0.003
Mof_H 	H 	0.4476	0.5754	0.1187	0.038
Mof_C 	C 	0.2549	0.4937	0.9298	0.119
Mof_H 	H 	0.1776	0.4805	0.8666	0.016
Mof_C 	C 	0.9449	0.4477	0.3611	0.312
Mof_Cd	Cd	0.15111	0.59793	0.93916	0.436
Mof_N 	N 	0.0746	0.6273	0.6141	-0.155
Mof_N 	N 	0.9996	0.6317	0.2838	-0.223
Mof_H 	H 	0.9744	0.6222	0.159	0.161
Mof_N 	N 	0.2834	0.5416	0.9824	-0.145
Mof_N 	N 	0.3556	0.4686	0.9836	-0.216
Mof_H 	H 	0.3601	0.4377	0.9713	0.156
Mof_O 	O 	0.732	0.8278	0.5676	-0.285
Mof_O 	O 	0.7736	0.8781	0.8085	-0.335
Mof_O 	O 	0.0109	0.4763	0.35	-0.275
Mof_O 	O 	0.9733	0.4038	0.4221	-0.296
Mof_C 	C 	0.425	0.2164	0.9974	-0.144
Mof_H 	H 	0.4471	0.1879	0.9609	0.095
Mof_C 	C 	0.369	0.2536	0.8543	0.071
Mof_H 	H 	0.3483	0.2494	0.7177	0.021
Mof_C 	C 	0.3433	0.2974	0.9132	-0.139
Mof_C 	C 	0.37	0.3025	0.1151	0.065
Mof_H 	H 	0.35	0.3312	0.1539	0.023
Mof_C 	C 	0.4273	0.2645	0.2613	-0.135
Mof_H 	H 	0.4503	0.2687	0.3992	0.082
Mof_C 	C 	0.4482	0.222	0.1981	0.077
Mof_C 	C 	0.4995	0.1785	0.3453	0.045
Mof_C 	C 	0.5445	0.1743	0.5491	-0.006
Mof_H 	H 	0.554	0.2001	0.6357	0.044
Mof_C 	C 	0.5458	0.1038	0.4523	0.152
Mof_H 	H 	0.5558	0.0703	0.4507	-0.002
Mof_C 	C 	0.2788	0.3395	0.7652	0.369
Mof_C 	C 	0.1087	0.9369	0.1752	-0.088
Mof_H 	H 	0.0516	0.9126	0.1402	0.069
Mof_C 	C 	0.2285	0.925	0.2538	0.013
Mof_H 	H 	0.253	0.8927	0.284	0.038
Mof_C 	C 	0.3154	0.9619	0.2893	-0.083
Mof_C 	C 	0.2789	0.0091	0.2563	0.03
Mof_H 	H 	0.3351	0.0337	0.2899	0.037
Mof_C 	C 	0.1613	0.0205	0.1748	-0.094
Mof_H 	H 	0.1372	0.0526	0.1338	0.069
Mof_C 	C 	0.0743	0.9874	0.1487	0.036
Mof_C 	C 	0.9512	0.0014	0.0626	0.052
Mof_C 	C 	0.9037	0.0466	0.0667	-0.001
Mof_H 	H 	0.9476	0.0754	0.1187	0.037
Mof_C 	C 	0.7549	0.9937	0.9298	0.119
Mof_H 	H 	0.6776	0.9805	0.8666	0.016
Mof_C 	C 	0.4449	0.9477	0.3611	0.318
Mof_Cd	Cd	0.65111	0.09793	0.93916	0.435
Mof_N 	N 	0.5746	0.1273	0.6141	-0.154
Mof_N 	N 	0.4996	0.1317	0.2838	-0.222
Mof_H 	H 	0.4744	0.1222	0.159	0.162
Mof_N 	N 	0.7834	0.0416	0.9824	-0.145
Mof_N 	N 	0.8556	0.9686	0.9836	-0.214
Mof_H 	H 	0.8601	0.9377	0.9713	0.156
Mof_O 	O 	0.232	0.3278	0.5676	-0.284
Mof_O 	O 	0.2736	0.3781	0.8085	-0.335
Mof_O 	O 	0.5109	0.9763	0.35	-0.279
Mof_O 	O 	0.4733	0.9038	0.4221	-0.296
_end
