data_functionalizedCrystal
_audit_creation_method	'EQeq! by Chris Wilmer'
_symmetry_space_group_name_H-M	'P1'
_symmetry_Int_Tables_number	1
_symmetry_cell_setting	triclinic
loop_
_symmetry_equiv_pos_as_xyz
  x,y,z
_cell_length_a	13.2205
_cell_length_b	13.9973
_cell_length_c	14.9
_cell_angle_alpha	99.68
_cell_angle_beta	91.009
_cell_angle_gamma	117.103
loop_
_atom_site_label
_atom_site_type_symbol
_atom_site_fract_x
_atom_site_fract_y
_atom_site_fract_z
_atom_site_charge
Mof_Eu	Eu	0.48974	0.85323	0.45963	2.068
Mof_Eu	Eu	0.15523	0.14805	0.03869	2.062
Mof_C 	C 	0.6428	0.0765	0.3667	0.457
Mof_C 	C 	0.741	0.1293	0.312	-0.107
Mof_C 	C 	0.8113	0.2437	0.3345	-0.077
Mof_H 	H 	0.7941	0.2865	0.3801	0.085
Mof_C 	C 	0.9049	0.2911	0.2888	0.13
Mof_C 	C 	0.9311	0.228	0.219	-0.049
Mof_H 	H 	0.9964	0.2604	0.1898	0.044
Mof_C 	C 	0.8584	0.1171	0.1943	-0.125
Mof_C 	C 	0.7631	0.0672	0.2414	0.04
Mof_H 	H 	0.715	0.9922	0.2249	0.029
Mof_C 	C 	0.8781	0.0479	0.1147	0.458
Mof_C 	C 	0.9478	0.4708	0.3677	0.007
Mof_H 	H 	0.9469	0.4533	0.4281	0.042
Mof_H 	H 	0.8722	0.4595	0.3481	0.064
Mof_C 	C 	0.0344	0.5874	0.3707	-0.01
Mof_H 	H 	0.0289	0.6346	0.4239	0.043
Mof_H 	H 	0.1109	0.5945	0.3744	0.062
Mof_C 	C 	0.0756	0.7262	0.2821	0.142
Mof_C 	C 	0.0391	0.762	0.2123	-0.089
Mof_H 	H 	0.9743	0.713	0.1725	0.102
Mof_C 	C 	0.0981	0.8697	0.2012	-0.105
Mof_C 	C 	0.1944	0.9447	0.2631	0.035
Mof_H 	H 	0.2334	0.0177	0.2577	0.016
Mof_C 	C 	0.23	0.9081	0.3319	-0.107
Mof_C 	C 	0.173	0.7992	0.3418	-0.083
Mof_H 	H 	0.1995	0.7757	0.3874	0.05
Mof_C 	C 	0.3302	0.9882	0.3999	0.398
Mof_C 	C 	0.0585	0.9103	0.127	0.464
Mof_N 	N 	0.3408	0.6396	0.5058	0.073
Mof_N 	N 	0.2623	0.3624	0.9837	0.078
Mof_O 	O 	0.4471	0.6871	0.5285	-0.302
Mof_O 	O 	0.3051	0.6816	0.4522	-0.329
Mof_O 	O 	0.2756	0.5576	0.5337	-0.131
Mof_O 	O 	0.609	0.9762	0.3689	-0.549
Mof_O 	O 	0.6015	0.1354	0.4064	-0.497
Mof_O 	O 	0.7997	0.9528	0.0842	-0.515
Mof_O 	O 	0.9732	0.0893	0.0823	-0.594
Mof_O 	O 	0.2899	0.2893	0.9547	-0.304
Mof_O 	O 	0.1948	0.3441	0.044	-0.318
Mof_O 	O 	0.2996	0.4485	0.9547	-0.118
Mof_O 	O 	0.9787	0.4025	0.3047	-0.196
Mof_O 	O 	0.0113	0.6184	0.2878	-0.196
Mof_O 	O 	0.9588	0.8504	0.0882	-0.481
Mof_O 	O 	0.1279	0.0023	0.1116	-0.569
Mof_O 	O 	0.3883	0.9535	0.4412	-0.627
Mof_O 	O 	0.3532	0.0877	0.4188	-0.468
Mof_Eu	Eu	0.51026	0.14677	0.54037	2.067
Mof_Eu	Eu	0.84477	0.85195	0.96131	2.061
Mof_C 	C 	0.3572	0.9235	0.6333	0.456
Mof_C 	C 	0.259	0.8707	0.688	-0.108
Mof_C 	C 	0.1887	0.7563	0.6655	-0.078
Mof_H 	H 	0.2059	0.7135	0.6199	0.084
Mof_C 	C 	0.0951	0.7089	0.7112	0.13
Mof_C 	C 	0.0689	0.772	0.781	-0.049
Mof_H 	H 	0.0036	0.7396	0.8102	0.044
Mof_C 	C 	0.1416	0.8829	0.8057	-0.125
Mof_C 	C 	0.2369	0.9328	0.7586	0.04
Mof_H 	H 	0.285	0.0078	0.7751	0.029
Mof_C 	C 	0.1219	0.9521	0.8853	0.458
Mof_C 	C 	0.0522	0.5292	0.6323	0.007
Mof_H 	H 	0.0531	0.5467	0.5719	0.042
Mof_H 	H 	0.1278	0.5405	0.6519	0.064
Mof_C 	C 	0.9656	0.4126	0.6293	-0.01
Mof_H 	H 	0.9711	0.3654	0.5761	0.043
Mof_H 	H 	0.8891	0.4055	0.6256	0.062
Mof_C 	C 	0.9244	0.2738	0.7179	0.142
Mof_C 	C 	0.9609	0.238	0.7877	-0.089
Mof_H 	H 	0.0257	0.287	0.8275	0.102
Mof_C 	C 	0.9019	0.1303	0.7988	-0.105
Mof_C 	C 	0.8056	0.0553	0.7369	0.035
Mof_H 	H 	0.7666	0.9823	0.7423	0.016
Mof_C 	C 	0.77	0.0919	0.6681	-0.107
Mof_C 	C 	0.827	0.2008	0.6582	-0.083
Mof_H 	H 	0.8005	0.2243	0.6126	0.05
Mof_C 	C 	0.6698	0.0118	0.6001	0.398
Mof_C 	C 	0.9415	0.0897	0.873	0.464
Mof_N 	N 	0.6592	0.3604	0.4942	0.073
Mof_N 	N 	0.7377	0.6376	0.0163	0.078
Mof_O 	O 	0.5529	0.3129	0.4715	-0.302
Mof_O 	O 	0.6949	0.3184	0.5478	-0.329
Mof_O 	O 	0.7244	0.4424	0.4663	-0.131
Mof_O 	O 	0.391	0.0238	0.6311	-0.549
Mof_O 	O 	0.3985	0.8646	0.5936	-0.497
Mof_O 	O 	0.2003	0.0472	0.9158	-0.515
Mof_O 	O 	0.0268	0.9107	0.9177	-0.594
Mof_O 	O 	0.7101	0.7107	0.0453	-0.304
Mof_O 	O 	0.8052	0.6559	0.956	-0.318
Mof_O 	O 	0.7004	0.5515	0.0453	-0.118
Mof_O 	O 	0.0213	0.5975	0.6953	-0.196
Mof_O 	O 	0.9887	0.3816	0.7122	-0.196
Mof_O 	O 	0.0412	0.1496	0.9118	-0.481
Mof_O 	O 	0.8721	0.9977	0.8884	-0.569
Mof_O 	O 	0.6117	0.0465	0.5588	-0.627
Mof_O 	O 	0.6468	0.9123	0.5812	-0.468
_end
