data_functionalizedCrystal
_audit_creation_method	'EQeq! by Chris Wilmer'
_symmetry_space_group_name_H-M	'P1'
_symmetry_Int_Tables_number	1
_symmetry_cell_setting	triclinic
loop_
_symmetry_equiv_pos_as_xyz
  x,y,z
_cell_length_a	18.3223
_cell_length_b	11.4005
_cell_length_c	18.8536
_cell_angle_alpha	90
_cell_angle_beta	108.681
_cell_angle_gamma	90
loop_
_atom_site_label
_atom_site_type_symbol
_atom_site_fract_x
_atom_site_fract_y
_atom_site_fract_z
_atom_site_charge
Mof_Sm	Sm	0.50082	0.4332	0.8965	2.68
Mof_O 	O 	0.5753	0.3324	0.0001	-0.672
Mof_O 	O 	0.405	0.3246	0.9227	-0.617
Mof_O 	O 	0.9111	0.0749	0.2794	-0.653
Mof_O 	O 	0.9146	0.0315	0.1656	-0.677
Mof_O 	O 	0.579	0.409	0.1114	-0.627
Mof_O 	O 	0.4225	0.4296	0.0248	-0.694
Mof_N 	N 	0.668	0.3001	0.239	-0.112
Mof_N 	N 	0.3018	0.1501	0.8897	-0.111
Mof_C 	C 	0.6029	0.3396	0.071	0.566
Mof_C 	C 	0.6697	0.262	0.1091	-0.197
Mof_C 	C 	0.6996	0.2503	0.1885	0.128
Mof_C 	C 	0.7676	0.1855	0.219	-0.05
Mof_H 	H 	0.788	0.1766	0.2718	0.062
Mof_C 	C 	0.7062	0.2035	0.065	0.026
Mof_H 	H 	0.6844	0.2063	0.012	0.008
Mof_C 	C 	0.3871	0.3538	0.9802	0.554
Mof_C 	C 	0.3163	0.2976	0.9894	-0.168
Mof_C 	C 	0.2773	0.203	0.9444	0.118
Mof_C 	C 	0.2884	0.3411	0.0452	-0.037
Mof_H 	H 	0.3156	0.4026	0.0767	0.056
Mof_C 	C 	0.8825	0.0766	0.2094	0.562
Mof_C 	C 	0.8056	0.1344	0.1744	-0.153
Mof_C 	C 	0.7738	0.1415	0.0969	-0.012
Mof_H 	H 	0.7984	0.1036	0.0659	0.007
Mof_Sm	Sm	0.00082	0.9332	0.8965	2.644
Mof_O 	O 	0.0753	0.8324	0.0001	-0.658
Mof_O 	O 	0.905	0.8246	0.9227	-0.611
Mof_O 	O 	0.4111	0.5749	0.2794	-0.651
Mof_O 	O 	0.4146	0.5315	0.1656	-0.679
Mof_O 	O 	0.079	0.909	0.1114	-0.616
Mof_O 	O 	0.9225	0.9296	0.0248	-0.687
Mof_N 	N 	0.168	0.8001	0.239	-0.111
Mof_N 	N 	0.8018	0.6501	0.8897	-0.112
Mof_C 	C 	0.1029	0.8396	0.071	0.561
Mof_C 	C 	0.1697	0.762	0.1091	-0.193
Mof_C 	C 	0.1996	0.7503	0.1885	0.128
Mof_C 	C 	0.2676	0.6855	0.219	-0.048
Mof_H 	H 	0.288	0.6766	0.2718	0.062
Mof_C 	C 	0.2062	0.7035	0.065	0.025
Mof_H 	H 	0.1844	0.7063	0.012	0.014
Mof_C 	C 	0.8871	0.8538	0.9802	0.55
Mof_C 	C 	0.8163	0.7976	0.9894	-0.166
Mof_C 	C 	0.7773	0.703	0.9444	0.116
Mof_C 	C 	0.7884	0.8411	0.0452	-0.038
Mof_H 	H 	0.8156	0.9026	0.0767	0.058
Mof_C 	C 	0.3825	0.5766	0.2094	0.563
Mof_C 	C 	0.3056	0.6344	0.1744	-0.153
Mof_C 	C 	0.2738	0.6415	0.0969	-0.008
Mof_H 	H 	0.2984	0.6036	0.0659	0.01
Mof_Sm	Sm	0.49918	0.4332	0.6035	2.677
Mof_O 	O 	0.4247	0.3324	0.4999	-0.669
Mof_O 	O 	0.595	0.3246	0.5773	-0.617
Mof_O 	O 	0.0889	0.0749	0.2206	-0.646
Mof_O 	O 	0.0854	0.0315	0.3344	-0.678
Mof_O 	O 	0.421	0.409	0.3886	-0.626
Mof_O 	O 	0.5775	0.4296	0.4752	-0.693
Mof_N 	N 	0.332	0.3001	0.261	-0.112
Mof_N 	N 	0.6982	0.1501	0.6103	-0.112
Mof_C 	C 	0.3971	0.3396	0.429	0.565
Mof_C 	C 	0.3303	0.262	0.3909	-0.197
Mof_C 	C 	0.3004	0.2503	0.3115	0.129
Mof_C 	C 	0.2324	0.1855	0.281	-0.05
Mof_H 	H 	0.212	0.1766	0.2282	0.062
Mof_C 	C 	0.2938	0.2035	0.435	0.027
Mof_H 	H 	0.3156	0.2063	0.488	0.011
Mof_C 	C 	0.6129	0.3538	0.5198	0.554
Mof_C 	C 	0.6837	0.2976	0.5106	-0.167
Mof_C 	C 	0.7227	0.203	0.5556	0.116
Mof_C 	C 	0.7116	0.3411	0.4548	-0.037
Mof_H 	H 	0.6844	0.4026	0.4233	0.056
Mof_C 	C 	0.1175	0.0766	0.2906	0.561
Mof_C 	C 	0.1944	0.1344	0.3256	-0.152
Mof_C 	C 	0.2262	0.1415	0.4031	-0.011
Mof_H 	H 	0.2016	0.1036	0.4341	0.01
Mof_Sm	Sm	0.99918	0.9332	0.6035	2.69
Mof_O 	O 	0.9247	0.8324	0.4999	-0.67
Mof_O 	O 	0.095	0.8246	0.5773	-0.619
Mof_O 	O 	0.5889	0.5749	0.2206	-0.651
Mof_O 	O 	0.5854	0.5315	0.3344	-0.678
Mof_O 	O 	0.921	0.909	0.3886	-0.627
Mof_O 	O 	0.0775	0.9296	0.4752	-0.694
Mof_N 	N 	0.832	0.8001	0.261	-0.111
Mof_N 	N 	0.1982	0.6501	0.6103	-0.112
Mof_C 	C 	0.8971	0.8396	0.429	0.566
Mof_C 	C 	0.8303	0.762	0.3909	-0.196
Mof_C 	C 	0.8004	0.7503	0.3115	0.129
Mof_C 	C 	0.7324	0.6855	0.281	-0.049
Mof_H 	H 	0.712	0.6766	0.2282	0.062
Mof_C 	C 	0.7938	0.7035	0.435	0.027
Mof_H 	H 	0.8156	0.7063	0.488	0.011
Mof_C 	C 	0.1129	0.8538	0.5198	0.555
Mof_C 	C 	0.1837	0.7976	0.5106	-0.167
Mof_C 	C 	0.2227	0.703	0.5556	0.117
Mof_C 	C 	0.2116	0.8411	0.4548	-0.037
Mof_H 	H 	0.1844	0.9026	0.4233	0.056
Mof_C 	C 	0.6175	0.5766	0.2906	0.563
Mof_C 	C 	0.6944	0.6344	0.3256	-0.152
Mof_C 	C 	0.7262	0.6415	0.4031	-0.011
Mof_H 	H 	0.7016	0.6036	0.4341	0.01
Mof_Sm	Sm	0.49918	0.5668	0.1035	2.68
Mof_O 	O 	0.4247	0.6676	0.9999	-0.672
Mof_O 	O 	0.595	0.6754	0.0773	-0.617
Mof_O 	O 	0.0889	0.9251	0.7206	-0.653
Mof_O 	O 	0.0854	0.9685	0.8344	-0.677
Mof_O 	O 	0.421	0.591	0.8886	-0.627
Mof_O 	O 	0.5775	0.5704	0.9752	-0.694
Mof_N 	N 	0.332	0.6999	0.761	-0.112
Mof_N 	N 	0.6982	0.8499	0.1103	-0.111
Mof_C 	C 	0.3971	0.6604	0.929	0.566
Mof_C 	C 	0.3303	0.738	0.8909	-0.197
Mof_C 	C 	0.3004	0.7497	0.8115	0.128
Mof_C 	C 	0.2324	0.8145	0.781	-0.05
Mof_H 	H 	0.212	0.8234	0.7282	0.062
Mof_C 	C 	0.2938	0.7965	0.935	0.026
Mof_H 	H 	0.3156	0.7937	0.988	0.008
Mof_C 	C 	0.6129	0.6462	0.0198	0.554
Mof_C 	C 	0.6837	0.7024	0.0106	-0.168
Mof_C 	C 	0.7227	0.797	0.0556	0.118
Mof_C 	C 	0.7116	0.6589	0.9548	-0.037
Mof_H 	H 	0.6844	0.5974	0.9233	0.056
Mof_C 	C 	0.1175	0.9234	0.7906	0.562
Mof_C 	C 	0.1944	0.8656	0.8256	-0.153
Mof_C 	C 	0.2262	0.8585	0.9031	-0.012
Mof_H 	H 	0.2016	0.8964	0.9341	0.007
Mof_Sm	Sm	0.99918	0.0668	0.1035	2.644
Mof_O 	O 	0.9247	0.1676	0.9999	-0.658
Mof_O 	O 	0.095	0.1754	0.0773	-0.611
Mof_O 	O 	0.5889	0.4251	0.7206	-0.651
Mof_O 	O 	0.5854	0.4685	0.8344	-0.679
Mof_O 	O 	0.921	0.091	0.8886	-0.616
Mof_O 	O 	0.0775	0.0704	0.9752	-0.687
Mof_N 	N 	0.832	0.1999	0.761	-0.111
Mof_N 	N 	0.1982	0.3499	0.1103	-0.112
Mof_C 	C 	0.8971	0.1604	0.929	0.561
Mof_C 	C 	0.8303	0.238	0.8909	-0.193
Mof_C 	C 	0.8004	0.2497	0.8115	0.128
Mof_C 	C 	0.7324	0.3145	0.781	-0.048
Mof_H 	H 	0.712	0.3234	0.7282	0.062
Mof_C 	C 	0.7938	0.2965	0.935	0.025
Mof_H 	H 	0.8156	0.2937	0.988	0.014
Mof_C 	C 	0.1129	0.1462	0.0198	0.55
Mof_C 	C 	0.1837	0.2024	0.0106	-0.166
Mof_C 	C 	0.2227	0.297	0.0556	0.116
Mof_C 	C 	0.2116	0.1589	0.9548	-0.038
Mof_H 	H 	0.1844	0.0974	0.9233	0.058
Mof_C 	C 	0.6175	0.4234	0.7906	0.563
Mof_C 	C 	0.6944	0.3656	0.8256	-0.153
Mof_C 	C 	0.7262	0.3585	0.9031	-0.008
Mof_H 	H 	0.7016	0.3964	0.9341	0.01
Mof_Sm	Sm	0.50082	0.5668	0.3965	2.677
Mof_O 	O 	0.5753	0.6676	0.5001	-0.669
Mof_O 	O 	0.405	0.6754	0.4227	-0.617
Mof_O 	O 	0.9111	0.9251	0.7794	-0.646
Mof_O 	O 	0.9146	0.9685	0.6656	-0.678
Mof_O 	O 	0.579	0.591	0.6114	-0.626
Mof_O 	O 	0.4225	0.5704	0.5248	-0.693
Mof_N 	N 	0.668	0.6999	0.739	-0.112
Mof_N 	N 	0.3018	0.8499	0.3897	-0.112
Mof_C 	C 	0.6029	0.6604	0.571	0.565
Mof_C 	C 	0.6697	0.738	0.6091	-0.197
Mof_C 	C 	0.6996	0.7497	0.6885	0.129
Mof_C 	C 	0.7676	0.8145	0.719	-0.05
Mof_H 	H 	0.788	0.8234	0.7718	0.062
Mof_C 	C 	0.7062	0.7965	0.565	0.027
Mof_H 	H 	0.6844	0.7937	0.512	0.011
Mof_C 	C 	0.3871	0.6462	0.4802	0.554
Mof_C 	C 	0.3163	0.7024	0.4894	-0.167
Mof_C 	C 	0.2773	0.797	0.4444	0.116
Mof_C 	C 	0.2884	0.6589	0.5452	-0.037
Mof_H 	H 	0.3156	0.5974	0.5767	0.056
Mof_C 	C 	0.8825	0.9234	0.7094	0.561
Mof_C 	C 	0.8056	0.8656	0.6744	-0.152
Mof_C 	C 	0.7738	0.8585	0.5969	-0.011
Mof_H 	H 	0.7984	0.8964	0.5659	0.01
Mof_Sm	Sm	0.00082	0.0668	0.3965	2.69
Mof_O 	O 	0.0753	0.1676	0.5001	-0.67
Mof_O 	O 	0.905	0.1754	0.4227	-0.619
Mof_O 	O 	0.4111	0.4251	0.7794	-0.651
Mof_O 	O 	0.4146	0.4685	0.6656	-0.678
Mof_O 	O 	0.079	0.091	0.6114	-0.627
Mof_O 	O 	0.9225	0.0704	0.5248	-0.694
Mof_N 	N 	0.168	0.1999	0.739	-0.111
Mof_N 	N 	0.8018	0.3499	0.3897	-0.112
Mof_C 	C 	0.1029	0.1604	0.571	0.566
Mof_C 	C 	0.1697	0.238	0.6091	-0.196
Mof_C 	C 	0.1996	0.2497	0.6885	0.129
Mof_C 	C 	0.2676	0.3145	0.719	-0.049
Mof_H 	H 	0.288	0.3234	0.7718	0.062
Mof_C 	C 	0.2062	0.2965	0.565	0.027
Mof_H 	H 	0.1844	0.2937	0.512	0.011
Mof_C 	C 	0.8871	0.1462	0.4802	0.555
Mof_C 	C 	0.8163	0.2024	0.4894	-0.167
Mof_C 	C 	0.7773	0.297	0.4444	0.117
Mof_C 	C 	0.7884	0.1589	0.5452	-0.037
Mof_H 	H 	0.8156	0.0974	0.5767	0.056
Mof_C 	C 	0.3825	0.4234	0.7094	0.563
Mof_C 	C 	0.3056	0.3656	0.6744	-0.152
Mof_C 	C 	0.2738	0.3585	0.5969	-0.011
Mof_H 	H 	0.2984	0.3964	0.5659	0.01
_end
