data_functionalizedCrystal
_audit_creation_method	'EQeq! by Chris Wilmer'
_symmetry_space_group_name_H-M	'P1'
_symmetry_Int_Tables_number	1
_symmetry_cell_setting	triclinic
loop_
_symmetry_equiv_pos_as_xyz
  x,y,z
_cell_length_a	10.547
_cell_length_b	22.651
_cell_length_c	24.627
_cell_angle_alpha	90
_cell_angle_beta	98.168
_cell_angle_gamma	90
loop_
_atom_site_label
_atom_site_type_symbol
_atom_site_fract_x
_atom_site_fract_y
_atom_site_fract_z
_atom_site_charge
Mof_Ba	Ba	0.93712	0.28993	0.99703	2.102
Mof_Ba	Ba	0.76689	0.25036	0.53439	2.102
Mof_Ba	Ba	0.56288	0.78993	0.00297	2.108
Mof_Ba	Ba	0.73311	0.75036	0.46561	2.103
Mof_Ba	Ba	0.06288	0.71007	0.00297	2.102
Mof_Ba	Ba	0.23311	0.74964	0.46561	2.102
Mof_Ba	Ba	0.43712	0.21007	0.99703	2.108
Mof_Ba	Ba	0.26689	0.24964	0.53439	2.103
Mof_Dy	Dy	0.66906	0.49256	0.25697	2.11
Mof_Dy	Dy	0.83094	0.99256	0.74303	2.109
Mof_Dy	Dy	0.33094	0.50744	0.74303	2.11
Mof_Dy	Dy	0.16906	0.00744	0.25697	2.109
Mof_H 	H 	0.3444	0.4038	0.2461	0.062
Mof_H 	H 	0.2525	0.325	0.194	0.082
Mof_H 	H 	0.3566	0.4008	0.0589	0.066
Mof_H 	H 	0.322	0.5272	0.0535	0.058
Mof_H 	H 	0.65	0.6201	0.0504	0.038
Mof_H 	H 	0.7531	0.5581	0.1185	0.074
Mof_H 	H 	0.1664	0.0824	0.7692	0.077
Mof_H 	H 	0.2604	0.1519	0.8324	0.057
Mof_H 	H 	0.9148	0.2313	0.8275	0.067
Mof_H 	H 	0.8058	0.2459	0.719	0.059
Mof_H 	H 	0.4564	0.1744	0.6715	0.049
Mof_H 	H 	0.5172	0.0931	0.7263	0.072
Mof_H 	H 	0.1202	0.0301	0.6582	0.07
Mof_H 	H 	0.1552	0.0903	0.5861	0.046
Mof_H 	H 	0.7993	0.0517	0.5098	0.056
Mof_H 	H 	0.7288	0.9338	0.514	0.064
Mof_H 	H 	0.4017	0.9163	0.58	0.057
Mof_H 	H 	0.4851	0.9794	0.6503	0.075
Mof_H 	H 	0.1556	0.9038	0.7539	0.061
Mof_H 	H 	0.2475	0.825	0.806	0.081
Mof_H 	H 	0.1434	0.9008	0.9411	0.067
Mof_H 	H 	0.178	0.0272	0.9465	0.061
Mof_H 	H 	0.85	0.1201	0.9496	0.039
Mof_H 	H 	0.7469	0.0581	0.8815	0.072
Mof_H 	H 	0.3336	0.5824	0.2308	0.078
Mof_H 	H 	0.2396	0.6519	0.1676	0.055
Mof_H 	H 	0.5852	0.7313	0.1725	0.066
Mof_H 	H 	0.6942	0.7459	0.281	0.059
Mof_H 	H 	0.0436	0.6744	0.3285	0.047
Mof_H 	H 	0.9828	0.5931	0.2737	0.074
Mof_H 	H 	0.3798	0.5301	0.3418	0.07
Mof_H 	H 	0.3448	0.5903	0.4139	0.046
Mof_H 	H 	0.7007	0.5517	0.4902	0.056
Mof_H 	H 	0.7712	0.4338	0.486	0.064
Mof_H 	H 	0.0983	0.4163	0.42	0.057
Mof_H 	H 	0.0149	0.4794	0.3497	0.073
Mof_H 	H 	0.6556	0.5962	0.7539	0.061
Mof_H 	H 	0.7475	0.675	0.806	0.081
Mof_H 	H 	0.6434	0.5992	0.9411	0.066
Mof_H 	H 	0.678	0.4728	0.9465	0.058
Mof_H 	H 	0.35	0.3799	0.9496	0.038
Mof_H 	H 	0.2469	0.4419	0.8815	0.074
Mof_H 	H 	0.8336	0.9176	0.2308	0.077
Mof_H 	H 	0.7396	0.8481	0.1676	0.057
Mof_H 	H 	0.0852	0.7687	0.1725	0.067
Mof_H 	H 	0.1942	0.7541	0.281	0.059
Mof_H 	H 	0.5436	0.8256	0.3285	0.049
Mof_H 	H 	0.4828	0.9069	0.2737	0.072
Mof_H 	H 	0.8798	0.9699	0.3418	0.07
Mof_H 	H 	0.8448	0.9097	0.4139	0.046
Mof_H 	H 	0.2007	0.9483	0.4902	0.056
Mof_H 	H 	0.2712	0.0662	0.486	0.064
Mof_H 	H 	0.5983	0.0837	0.42	0.057
Mof_H 	H 	0.5149	0.0206	0.3497	0.075
Mof_H 	H 	0.8444	0.0962	0.2461	0.061
Mof_H 	H 	0.7525	0.175	0.194	0.081
Mof_H 	H 	0.8566	0.0992	0.0589	0.067
Mof_H 	H 	0.822	0.9728	0.0535	0.061
Mof_H 	H 	0.15	0.8799	0.0504	0.039
Mof_H 	H 	0.2531	0.9419	0.1185	0.072
Mof_H 	H 	0.6664	0.4176	0.7692	0.078
Mof_H 	H 	0.7604	0.3481	0.8324	0.055
Mof_H 	H 	0.4148	0.2687	0.8275	0.066
Mof_H 	H 	0.3058	0.2541	0.719	0.059
Mof_H 	H 	0.9564	0.3256	0.6715	0.047
Mof_H 	H 	0.0172	0.4069	0.7263	0.074
Mof_H 	H 	0.6202	0.4699	0.6582	0.07
Mof_H 	H 	0.6552	0.4097	0.5861	0.046
Mof_H 	H 	0.2993	0.4483	0.5098	0.056
Mof_H 	H 	0.2288	0.5662	0.514	0.064
Mof_H 	H 	0.9017	0.5837	0.58	0.057
Mof_H 	H 	0.9851	0.5206	0.6503	0.073
Mof_C 	C 	0.3476	0.4027	0.2078	0.049
Mof_C 	C 	0.2928	0.3561	0.177	-0.033
Mof_C 	C 	0.297	0.3551	0.12126	-0.04
Mof_C 	C 	0.3554	0.4007	0.09737	-0.048
Mof_C 	C 	0.4121	0.4461	0.12904	0.074
Mof_C 	C 	0.4746	0.49724	0.1063	0.059
Mof_C 	C 	0.4101	0.5336	0.0664	-0.029
Mof_C 	C 	0.4766	0.5802	0.04539	-0.089
Mof_C 	C 	0.6042	0.5889	0.0646	-0.002
Mof_C 	C 	0.6653	0.5518	0.1048	0.012
Mof_C 	C 	0.1157	0.113	0.7814	0.024
Mof_C 	C 	0.1718	0.1543	0.8185	-0.016
Mof_C 	C 	0.0972	0.1994	0.83526	-0.079
Mof_C 	C 	0.9673	0.2011	0.81571	-0.037
Mof_C 	C 	0.9144	0.15832	0.77874	0.062
Mof_C 	C 	0.7823	0.16414	0.74987	0.075
Mof_C 	C 	0.7471	0.21407	0.71919	-0.031
Mof_C 	C 	0.6274	0.2178	0.68885	-0.07
Mof_C 	C 	0.5402	0.1722	0.6916	-0.011
Mof_C 	C 	0.5768	0.124	0.7235	0.03
Mof_C 	C 	0.0552	0.0346	0.6276	0.029
Mof_C 	C 	0.0757	0.0704	0.5852	0.003
Mof_C 	C 	0.9798	0.07788	0.5405	-0.099
Mof_C 	C 	0.8653	0.0478	0.54011	-0.017
Mof_C 	C 	0.8476	0.01223	0.58389	0.073
Mof_C 	C 	0.7262	0.9801	0.5842	0.067
Mof_C 	C 	0.6784	0.9427	0.542	-0.031
Mof_C 	C 	0.5583	0.9183	0.54	-0.077
Mof_C 	C 	0.4852	0.9323	0.5808	-0.011
Mof_C 	C 	0.535	0.9695	0.6224	0.016
Mof_C 	C 	0.1524	0.9027	0.7922	0.049
Mof_C 	C 	0.2072	0.8561	0.823	-0.033
Mof_C 	C 	0.203	0.8551	0.87874	-0.04
Mof_C 	C 	0.1446	0.9007	0.90263	-0.047
Mof_C 	C 	0.0879	0.9461	0.87096	0.073
Mof_C 	C 	0.0254	0.99724	0.8937	0.066
Mof_C 	C 	0.0899	0.0336	0.9336	-0.036
Mof_C 	C 	0.0234	0.0802	0.95461	-0.081
Mof_C 	C 	0.8958	0.0889	0.9354	-0.01
Mof_C 	C 	0.8347	0.0518	0.8952	0.015
Mof_C 	C 	0.3843	0.613	0.2186	0.02
Mof_C 	C 	0.3282	0.6543	0.1815	-0.013
Mof_C 	C 	0.4028	0.6994	0.16474	-0.083
Mof_C 	C 	0.5327	0.7011	0.18429	-0.032
Mof_C 	C 	0.5856	0.65832	0.22126	0.061
Mof_C 	C 	0.7177	0.66414	0.25013	0.075
Mof_C 	C 	0.7529	0.71407	0.28081	-0.03
Mof_C 	C 	0.8726	0.7178	0.31115	-0.071
Mof_C 	C 	0.9598	0.6722	0.3084	-0.008
Mof_C 	C 	0.9232	0.624	0.2765	0.028
Mof_C 	C 	0.4448	0.5346	0.3724	0.029
Mof_C 	C 	0.4243	0.5704	0.4148	0.003
Mof_C 	C 	0.5202	0.57788	0.4595	-0.099
Mof_C 	C 	0.6347	0.5478	0.45989	-0.017
Mof_C 	C 	0.6524	0.51223	0.41611	0.073
Mof_C 	C 	0.7738	0.4801	0.4158	0.067
Mof_C 	C 	0.8216	0.4427	0.458	-0.031
Mof_C 	C 	0.9417	0.4183	0.46	-0.077
Mof_C 	C 	0.0148	0.4323	0.4192	-0.013
Mof_C 	C 	0.965	0.4695	0.3776	0.019
Mof_C 	C 	0.6524	0.5973	0.7922	0.049
Mof_C 	C 	0.7072	0.6439	0.823	-0.033
Mof_C 	C 	0.703	0.6449	0.87874	-0.04
Mof_C 	C 	0.6446	0.5993	0.90263	-0.048
Mof_C 	C 	0.5879	0.5539	0.87096	0.074
Mof_C 	C 	0.5254	0.50276	0.8937	0.059
Mof_C 	C 	0.5899	0.4664	0.9336	-0.029
Mof_C 	C 	0.5234	0.4198	0.95461	-0.089
Mof_C 	C 	0.3958	0.4111	0.9354	-0.002
Mof_C 	C 	0.3347	0.4482	0.8952	0.012
Mof_C 	C 	0.8843	0.887	0.2186	0.024
Mof_C 	C 	0.8282	0.8457	0.1815	-0.016
Mof_C 	C 	0.9028	0.8006	0.16474	-0.079
Mof_C 	C 	0.0327	0.7989	0.18429	-0.037
Mof_C 	C 	0.0856	0.84168	0.22126	0.062
Mof_C 	C 	0.2177	0.83586	0.25013	0.075
Mof_C 	C 	0.2529	0.78593	0.28081	-0.031
Mof_C 	C 	0.3726	0.7822	0.31115	-0.07
Mof_C 	C 	0.4598	0.8278	0.3084	-0.011
Mof_C 	C 	0.4232	0.876	0.2765	0.03
Mof_C 	C 	0.9448	0.9654	0.3724	0.029
Mof_C 	C 	0.9243	0.9296	0.4148	0.003
Mof_C 	C 	0.0202	0.92212	0.4595	-0.099
Mof_C 	C 	0.1347	0.9522	0.45989	-0.017
Mof_C 	C 	0.1524	0.98777	0.41611	0.073
Mof_C 	C 	0.2738	0.0199	0.4158	0.067
Mof_C 	C 	0.3216	0.0573	0.458	-0.031
Mof_C 	C 	0.4417	0.0817	0.46	-0.077
Mof_C 	C 	0.5148	0.0677	0.4192	-0.011
Mof_C 	C 	0.465	0.0305	0.3776	0.016
Mof_C 	C 	0.8476	0.0973	0.2078	0.049
Mof_C 	C 	0.7928	0.1439	0.177	-0.033
Mof_C 	C 	0.797	0.1449	0.12126	-0.04
Mof_C 	C 	0.8554	0.0993	0.09737	-0.047
Mof_C 	C 	0.9121	0.0539	0.12904	0.073
Mof_C 	C 	0.9746	0.00276	0.1063	0.066
Mof_C 	C 	0.9101	0.9664	0.0664	-0.036
Mof_C 	C 	0.9766	0.9198	0.04539	-0.081
Mof_C 	C 	0.1042	0.9111	0.0646	-0.01
Mof_C 	C 	0.1653	0.9482	0.1048	0.015
Mof_C 	C 	0.6157	0.387	0.7814	0.02
Mof_C 	C 	0.6718	0.3457	0.8185	-0.013
Mof_C 	C 	0.5972	0.3006	0.83526	-0.083
Mof_C 	C 	0.4673	0.2989	0.81571	-0.032
Mof_C 	C 	0.4144	0.34168	0.77874	0.061
Mof_C 	C 	0.2823	0.33586	0.74987	0.075
Mof_C 	C 	0.2471	0.28593	0.71919	-0.03
Mof_C 	C 	0.1274	0.2822	0.68885	-0.071
Mof_C 	C 	0.0402	0.3278	0.6916	-0.008
Mof_C 	C 	0.0768	0.376	0.7235	0.028
Mof_C 	C 	0.5552	0.4654	0.6276	0.029
Mof_C 	C 	0.5757	0.4296	0.5852	0.003
Mof_C 	C 	0.4798	0.42212	0.5405	-0.099
Mof_C 	C 	0.3653	0.4522	0.54011	-0.017
Mof_C 	C 	0.3476	0.48777	0.58389	0.073
Mof_C 	C 	0.2262	0.5199	0.5842	0.067
Mof_C 	C 	0.1784	0.5573	0.542	-0.031
Mof_C 	C 	0.0583	0.5817	0.54	-0.077
Mof_C 	C 	0.9852	0.5677	0.5808	-0.013
Mof_C 	C 	0.035	0.5305	0.6224	0.019
Mof_S 	S 	0.23379	0.29337	0.08197	0.508
Mof_S 	S 	0.3921	0.6267	0.9943	0.626
Mof_S 	S 	0.16133	0.25706	0.88003	0.626
Mof_S 	S 	0.59292	0.27928	0.64391	0.535
Mof_S 	S 	0.99426	0.12663	0.48488	0.636
Mof_S 	S 	0.49821	0.87167	0.48424	0.595
Mof_S 	S 	0.26621	0.79337	0.91803	0.508
Mof_S 	S 	0.1079	0.1267	0.0057	0.62
Mof_S 	S 	0.33867	0.75706	0.11997	0.627
Mof_S 	S 	0.90708	0.77928	0.35609	0.536
Mof_S 	S 	0.50574	0.62663	0.51512	0.637
Mof_S 	S 	0.00179	0.37167	0.51576	0.596
Mof_S 	S 	0.76621	0.70663	0.91803	0.508
Mof_S 	S 	0.6079	0.3733	0.0057	0.626
Mof_S 	S 	0.83867	0.74294	0.11997	0.626
Mof_S 	S 	0.40708	0.72072	0.35609	0.535
Mof_S 	S 	0.00574	0.87337	0.51512	0.636
Mof_S 	S 	0.50179	0.12833	0.51576	0.595
Mof_S 	S 	0.73379	0.20663	0.08197	0.508
Mof_S 	S 	0.8921	0.8733	0.9943	0.62
Mof_S 	S 	0.66133	0.24294	0.88003	0.627
Mof_S 	S 	0.09292	0.22072	0.64391	0.536
Mof_S 	S 	0.49426	0.37337	0.48488	0.637
Mof_S 	S 	0.99821	0.62833	0.48424	0.596
Mof_N 	N 	0.4054	0.44634	0.1839	-0.052
Mof_N 	N 	0.6014	0.50686	0.12475	-0.047
Mof_N 	N 	0.9902	0.11571	0.76247	-0.048
Mof_N 	N 	0.6962	0.11991	0.75084	-0.047
Mof_N 	N 	0.9427	0.00543	0.62631	-0.043
Mof_N 	N 	0.6538	0.99245	0.62427	-0.05
Mof_N 	N 	0.0946	0.94634	0.8161	-0.051
Mof_N 	N 	0.8986	0.00686	0.87525	-0.05
Mof_N 	N 	0.5098	0.61571	0.23753	-0.046
Mof_N 	N 	0.8038	0.61991	0.24916	-0.046
Mof_N 	N 	0.5573	0.50543	0.37369	-0.043
Mof_N 	N 	0.8462	0.49245	0.37573	-0.051
Mof_N 	N 	0.5946	0.55366	0.8161	-0.052
Mof_N 	N 	0.3986	0.49314	0.87525	-0.047
Mof_N 	N 	0.0098	0.88429	0.23753	-0.048
Mof_N 	N 	0.3038	0.88009	0.24916	-0.047
Mof_N 	N 	0.0573	0.99457	0.37369	-0.043
Mof_N 	N 	0.3462	0.00755	0.37573	-0.05
Mof_N 	N 	0.9054	0.05366	0.1839	-0.051
Mof_N 	N 	0.1014	0.99314	0.12475	-0.05
Mof_N 	N 	0.4902	0.38429	0.76247	-0.046
Mof_N 	N 	0.1962	0.38009	0.75084	-0.046
Mof_N 	N 	0.4427	0.49457	0.62631	-0.043
Mof_N 	N 	0.1538	0.50755	0.62427	-0.051
Mof_O 	O 	0.4562	0.49067	0.21432	-0.308
Mof_O 	O 	0.6629	0.47126	0.16227	-0.281
Mof_O 	O 	0.9388	0.07839	0.72375	-0.296
Mof_O 	O 	0.7294	0.07131	0.78017	-0.31
Mof_O 	O 	0.9278	0.9673	0.66604	-0.299
Mof_O 	O 	0.6982	0.02894	0.66398	-0.29
Mof_O 	O 	0.212	0.3133	0.02556	-0.432
Mof_O 	O 	0.1165	0.27839	0.10294	-0.342
Mof_O 	O 	0.3296	0.24776	0.0916	-0.374
Mof_O 	O 	0.3593	0.58911	0.94705	-0.265
Mof_O 	O 	0.2819	0.64611	0.01784	-0.458
Mof_O 	O 	0.4823	0.6729	0.98587	-0.435
Mof_O 	O 	0.0819	0.25694	0.92294	-0.466
Mof_O 	O 	0.294	0.24093	0.89867	-0.436
Mof_O 	O 	0.1494	0.30991	0.84748	-0.277
Mof_O 	O 	0.5205	0.31962	0.67243	-0.255
Mof_O 	O 	0.7176	0.30194	0.63512	-0.395
Mof_O 	O 	0.5224	0.25538	0.59391	-0.478
Mof_O 	O 	0.8872	0.16656	0.48348	-0.459
Mof_O 	O 	0.1167	0.15471	0.49836	-0.453
Mof_O 	O 	0.986	0.08993	0.43662	-0.266
Mof_O 	O 	0.4079	0.9088	0.4498	-0.273
Mof_O 	O 	0.6054	0.8579	0.4571	-0.429
Mof_O 	O 	0.4362	0.8241	0.5075	-0.46
Mof_O 	O 	0.7871	0.15904	0.60761	-0.264
Mof_O 	O 	0.8725	0.44694	0.25122	-0.277
Mof_O 	O 	0.635	0.38874	0.25538	-0.296
Mof_O 	O 	0.9945	0.3818	0.9203	-0.235
Mof_O 	O 	0.9333	0.3946	0.0718	-0.212
Mof_O 	O 	0.7484	0.2632	0.4196	-0.249
Mof_O 	O 	0.0438	0.99067	0.78568	-0.307
Mof_O 	O 	0.8371	0.97126	0.83773	-0.281
Mof_O 	O 	0.5612	0.57839	0.27625	-0.296
Mof_O 	O 	0.7706	0.57131	0.21983	-0.31
Mof_O 	O 	0.5722	0.4673	0.33396	-0.299
Mof_O 	O 	0.8018	0.52894	0.33602	-0.29
Mof_O 	O 	0.288	0.8133	0.97444	-0.431
Mof_O 	O 	0.3835	0.77839	0.89706	-0.342
Mof_O 	O 	0.1704	0.74776	0.9084	-0.372
Mof_O 	O 	0.1407	0.08911	0.05295	-0.264
Mof_O 	O 	0.2181	0.14611	0.98216	-0.456
Mof_O 	O 	0.0177	0.1729	0.01413	-0.434
Mof_O 	O 	0.4181	0.75694	0.07706	-0.469
Mof_O 	O 	0.206	0.74093	0.10133	-0.436
Mof_O 	O 	0.3506	0.80991	0.15252	-0.278
Mof_O 	O 	0.9795	0.81962	0.32757	-0.255
Mof_O 	O 	0.7824	0.80194	0.36488	-0.395
Mof_O 	O 	0.9776	0.75538	0.40609	-0.477
Mof_O 	O 	0.6128	0.66656	0.51652	-0.459
Mof_O 	O 	0.3833	0.65471	0.50164	-0.453
Mof_O 	O 	0.514	0.58993	0.56338	-0.266
Mof_O 	O 	0.0921	0.4088	0.5502	-0.273
Mof_O 	O 	0.8946	0.3579	0.5429	-0.429
Mof_O 	O 	0.0638	0.3241	0.4925	-0.46
Mof_O 	O 	0.7129	0.65904	0.39239	-0.264
Mof_O 	O 	0.6275	0.94694	0.74878	-0.277
Mof_O 	O 	0.865	0.88874	0.74462	-0.296
Mof_O 	O 	0.5055	0.8818	0.0797	-0.235
Mof_O 	O 	0.5667	0.8946	0.9282	-0.213
Mof_O 	O 	0.7516	0.7632	0.5804	-0.249
Mof_O 	O 	0.5438	0.50933	0.78568	-0.308
Mof_O 	O 	0.3371	0.52874	0.83773	-0.281
Mof_O 	O 	0.0612	0.92161	0.27625	-0.296
Mof_O 	O 	0.2706	0.92869	0.21983	-0.31
Mof_O 	O 	0.0722	0.0327	0.33396	-0.299
Mof_O 	O 	0.3018	0.97106	0.33602	-0.29
Mof_O 	O 	0.788	0.6867	0.97444	-0.432
Mof_O 	O 	0.8835	0.72161	0.89706	-0.342
Mof_O 	O 	0.6704	0.75224	0.9084	-0.374
Mof_O 	O 	0.6407	0.41089	0.05295	-0.265
Mof_O 	O 	0.7181	0.35389	0.98216	-0.458
Mof_O 	O 	0.5177	0.3271	0.01413	-0.435
Mof_O 	O 	0.9181	0.74306	0.07706	-0.466
Mof_O 	O 	0.706	0.75907	0.10133	-0.436
Mof_O 	O 	0.8506	0.69009	0.15252	-0.277
Mof_O 	O 	0.4795	0.68038	0.32757	-0.255
Mof_O 	O 	0.2824	0.69806	0.36488	-0.395
Mof_O 	O 	0.4776	0.74462	0.40609	-0.478
Mof_O 	O 	0.1128	0.83344	0.51652	-0.459
Mof_O 	O 	0.8833	0.84529	0.50164	-0.453
Mof_O 	O 	0.014	0.91007	0.56338	-0.266
Mof_O 	O 	0.5921	0.0912	0.5502	-0.273
Mof_O 	O 	0.3946	0.1421	0.5429	-0.429
Mof_O 	O 	0.5638	0.1759	0.4925	-0.46
Mof_O 	O 	0.2129	0.84096	0.39239	-0.264
Mof_O 	O 	0.1275	0.55306	0.74878	-0.277
Mof_O 	O 	0.365	0.61126	0.74462	-0.296
Mof_O 	O 	0.0055	0.6182	0.0797	-0.235
Mof_O 	O 	0.0667	0.6054	0.9282	-0.212
Mof_O 	O 	0.2516	0.7368	0.5804	-0.249
Mof_O 	O 	0.9562	0.00933	0.21432	-0.307
Mof_O 	O 	0.1629	0.02874	0.16227	-0.281
Mof_O 	O 	0.4388	0.42161	0.72375	-0.296
Mof_O 	O 	0.2294	0.42869	0.78017	-0.31
Mof_O 	O 	0.4278	0.5327	0.66604	-0.299
Mof_O 	O 	0.1982	0.47106	0.66398	-0.29
Mof_O 	O 	0.712	0.1867	0.02556	-0.431
Mof_O 	O 	0.6165	0.22161	0.10294	-0.342
Mof_O 	O 	0.8296	0.25224	0.0916	-0.372
Mof_O 	O 	0.8593	0.91089	0.94705	-0.264
Mof_O 	O 	0.7819	0.85389	0.01784	-0.456
Mof_O 	O 	0.9823	0.8271	0.98587	-0.434
Mof_O 	O 	0.5819	0.24306	0.92294	-0.469
Mof_O 	O 	0.794	0.25907	0.89867	-0.436
Mof_O 	O 	0.6494	0.19009	0.84748	-0.278
Mof_O 	O 	0.0205	0.18038	0.67243	-0.255
Mof_O 	O 	0.2176	0.19806	0.63512	-0.395
Mof_O 	O 	0.0224	0.24462	0.59391	-0.477
Mof_O 	O 	0.3872	0.33344	0.48348	-0.459
Mof_O 	O 	0.6167	0.34529	0.49836	-0.453
Mof_O 	O 	0.486	0.41007	0.43662	-0.266
Mof_O 	O 	0.9079	0.5912	0.4498	-0.273
Mof_O 	O 	0.1054	0.6421	0.4571	-0.429
Mof_O 	O 	0.9362	0.6759	0.5075	-0.46
Mof_O 	O 	0.2871	0.34096	0.60761	-0.264
Mof_O 	O 	0.3725	0.05306	0.25122	-0.277
Mof_O 	O 	0.135	0.11126	0.25538	-0.296
Mof_O 	O 	0.4945	0.1182	0.9203	-0.235
Mof_O 	O 	0.4333	0.1054	0.0718	-0.213
Mof_O 	O 	0.2484	0.2368	0.4196	-0.249
Mof_Cl	Cl	0.35468	0.00433	0.73672	-0.269
Mof_Cl	Cl	0.14532	0.50433	0.26328	-0.269
Mof_Cl	Cl	0.64532	0.99567	0.26328	-0.269
Mof_Cl	Cl	0.85468	0.49567	0.73672	-0.269
_end
