data_functionalizedCrystal
_audit_creation_method	'EQeq! by Chris Wilmer'
_symmetry_space_group_name_H-M	'P1'
_symmetry_Int_Tables_number	1
_symmetry_cell_setting	triclinic
loop_
_symmetry_equiv_pos_as_xyz
  x,y,z
_cell_length_a	12.005
_cell_length_b	12.471
_cell_length_c	13.804
_cell_angle_alpha	90
_cell_angle_beta	90
_cell_angle_gamma	90
loop_
_atom_site_label
_atom_site_type_symbol
_atom_site_fract_x
_atom_site_fract_y
_atom_site_fract_z
_atom_site_charge
Mof_Zn	Zn	0.80346	0.25	-0	1.189
Mof_Zn	Zn	0.30346	0.75	0.5	1.211
Mof_H 	H 	0.429	0.6138	0.1815	0.119
Mof_H 	H 	0.3323	0.7159	0.2892	-0.009
Mof_H 	H 	0.5216	0.623	0.5007	-0.027
Mof_H 	H 	0.6254	0.5199	0.3976	0.099
Mof_H 	H 	0.653	0.4337	0.2422	0.075
Mof_H 	H 	0.5441	0.5194	0.0863	0.086
Mof_H 	H 	0.429	0.8862	0.8185	0.111
Mof_H 	H 	0.3323	0.7841	0.7108	-0.001
Mof_H 	H 	0.5216	0.877	0.4993	-0.023
Mof_H 	H 	0.6254	0.9801	0.6024	0.087
Mof_H 	H 	0.653	0.0663	0.7578	0.047
Mof_H 	H 	0.5441	0.9806	0.9137	0.15
Mof_H 	H 	0.929	0.1138	0.3185	0.098
Mof_H 	H 	0.8323	0.2159	0.2108	0.005
Mof_H 	H 	0.0216	0.123	0.9993	0.089
Mof_H 	H 	0.1254	0.0199	0.1024	0.043
Mof_H 	H 	0.153	0.9337	0.2578	0.046
Mof_H 	H 	0.0441	0.0194	0.4137	0.133
Mof_H 	H 	0.929	0.3862	0.6815	0.131
Mof_H 	H 	0.8323	0.2841	0.7892	-0.012
Mof_H 	H 	0.0216	0.377	0.0007	-0.134
Mof_H 	H 	0.1254	0.4801	0.8976	0.147
Mof_H 	H 	0.153	0.5663	0.7422	0.075
Mof_H 	H 	0.0441	0.4806	0.5863	0.113
Mof_C 	C 	0.4489	0.6129	0.2466	-0.195
Mof_C 	C 	0.3905	0.6736	0.3119	0.112
Mof_C 	C 	0.5012	0.6197	0.4358	0.113
Mof_C 	C 	0.5643	0.5574	0.3738	-0.192
Mof_C 	C 	0.5371	0.5506	0.277	0.133
Mof_C 	C 	0.6021	0.4794	0.2127	-0.063
Mof_C 	C 	0.5946	0.4745	0.1175	-0.146
Mof_C 	C 	0.6634	0.4002	0.0574	0.267
Mof_C 	C 	0.4489	0.8871	0.7534	-0.161
Mof_C 	C 	0.3905	0.8264	0.6881	0.096
Mof_C 	C 	0.5012	0.8803	0.5642	0.098
Mof_C 	C 	0.5643	0.9426	0.6262	-0.163
Mof_C 	C 	0.5371	0.9494	0.723	0.09
Mof_C 	C 	0.6021	0.0206	0.7873	0.022
Mof_C 	C 	0.5946	0.0255	0.8825	-0.244
Mof_C 	C 	0.6634	0.0998	0.9426	0.487
Mof_C 	C 	0.9489	0.1129	0.2534	-0.127
Mof_C 	C 	0.8905	0.1736	0.1881	0.072
Mof_C 	C 	0.0012	0.1197	0.0642	-0.079
Mof_C 	C 	0.0643	0.0574	0.1262	-0.066
Mof_C 	C 	0.0371	0.0506	0.223	0.049
Mof_C 	C 	0.1021	0.9794	0.2873	0.018
Mof_C 	C 	0.0946	0.9745	0.3825	-0.229
Mof_C 	C 	0.1634	0.9002	0.4426	0.389
Mof_C 	C 	0.9489	0.3871	0.7466	-0.223
Mof_C 	C 	0.8905	0.3264	0.8119	0.135
Mof_C 	C 	0.0012	0.3803	0.9358	0.288
Mof_C 	C 	0.0643	0.4426	0.8738	-0.287
Mof_C 	C 	0.0371	0.4494	0.777	0.175
Mof_C 	C 	0.1021	0.5206	0.7127	-0.059
Mof_C 	C 	0.0946	0.5255	0.6175	-0.176
Mof_C 	C 	0.1634	0.5998	0.5574	0.37
Mof_N 	N 	0.4132	0.6749	0.4068	-0.275
Mof_N 	N 	0.4132	0.8251	0.5932	-0.269
Mof_N 	N 	0.9132	0.1749	0.0932	-0.243
Mof_N 	N 	0.9132	0.3251	0.9068	-0.291
Mof_O 	O 	0.6508	0.3985	0.9695	-0.271
Mof_O 	O 	0.7372	0.3443	0.0987	-0.448
Mof_O 	O 	0.6508	0.1015	0.0305	-0.437
Mof_O 	O 	0.7372	0.1557	0.9013	-0.471
Mof_O 	O 	0.1508	0.8985	0.5305	-0.361
Mof_O 	O 	0.2372	0.8443	0.4013	-0.469
Mof_O 	O 	0.1508	0.6015	0.4695	-0.354
Mof_O 	O 	0.2372	0.6557	0.5987	-0.462
Mof_Zn	Zn	0.69654	0.25	0.5	1.21
Mof_Zn	Zn	0.19654	0.75	-0	1.188
Mof_H 	H 	0.071	0.8862	0.6815	0.128
Mof_H 	H 	0.1677	0.7841	0.7892	-0.011
Mof_H 	H 	0.9784	0.877	0.0007	-0.133
Mof_H 	H 	0.8746	0.9801	0.8976	0.142
Mof_H 	H 	0.847	0.0663	0.7422	0.074
Mof_H 	H 	0.9559	0.9806	0.5863	0.104
Mof_H 	H 	0.071	0.6138	0.3185	0.099
Mof_H 	H 	0.1677	0.7159	0.2108	0.004
Mof_H 	H 	0.9784	0.623	0.9993	0.088
Mof_H 	H 	0.8746	0.5199	0.1024	0.042
Mof_H 	H 	0.847	0.4337	0.2578	0.046
Mof_H 	H 	0.9559	0.5194	0.4137	0.13
Mof_H 	H 	0.571	0.3862	0.8185	0.113
Mof_H 	H 	0.6677	0.2841	0.7108	-0.001
Mof_H 	H 	0.4784	0.377	0.4993	-0.023
Mof_H 	H 	0.3746	0.4801	0.6024	0.09
Mof_H 	H 	0.347	0.5663	0.7578	0.047
Mof_H 	H 	0.4559	0.4806	0.9137	0.157
Mof_H 	H 	0.571	0.1138	0.1815	0.121
Mof_H 	H 	0.6677	0.2159	0.2892	-0.009
Mof_H 	H 	0.4784	0.123	0.5007	-0.026
Mof_H 	H 	0.3746	0.0199	0.3976	0.101
Mof_H 	H 	0.347	0.9337	0.2422	0.075
Mof_H 	H 	0.4559	0.0194	0.0863	0.092
Mof_C 	C 	0.0511	0.8871	0.7466	-0.214
Mof_C 	C 	0.1095	0.8264	0.8119	0.13
Mof_C 	C 	0.9988	0.8803	0.9358	0.282
Mof_C 	C 	0.9357	0.9426	0.8738	-0.28
Mof_C 	C 	0.9629	0.9494	0.777	0.163
Mof_C 	C 	0.8979	0.0206	0.7127	-0.052
Mof_C 	C 	0.9054	0.0255	0.6175	-0.166
Mof_C 	C 	0.8366	0.0998	0.5574	0.367
Mof_C 	C 	0.0511	0.6129	0.2534	-0.133
Mof_C 	C 	0.1095	0.6736	0.1881	0.074
Mof_C 	C 	0.9988	0.6197	0.0642	-0.079
Mof_C 	C 	0.9357	0.5574	0.1262	-0.068
Mof_C 	C 	0.9629	0.5506	0.223	0.051
Mof_C 	C 	0.8979	0.4794	0.2873	0.017
Mof_C 	C 	0.9054	0.4745	0.3825	-0.224
Mof_C 	C 	0.8366	0.4002	0.4426	0.388
Mof_C 	C 	0.5511	0.3871	0.7534	-0.164
Mof_C 	C 	0.6095	0.3264	0.6881	0.098
Mof_C 	C 	0.4988	0.3803	0.5642	0.101
Mof_C 	C 	0.4357	0.4426	0.6262	-0.166
Mof_C 	C 	0.4629	0.4494	0.723	0.097
Mof_C 	C 	0.3979	0.5206	0.7873	0.018
Mof_C 	C 	0.4054	0.5255	0.8825	-0.252
Mof_C 	C 	0.3366	0.5998	0.9426	0.49
Mof_C 	C 	0.5511	0.1129	0.2466	-0.197
Mof_C 	C 	0.6095	0.1736	0.3119	0.114
Mof_C 	C 	0.4988	0.1197	0.4358	0.115
Mof_C 	C 	0.4357	0.0574	0.3738	-0.194
Mof_C 	C 	0.4629	0.0506	0.277	0.138
Mof_C 	C 	0.3979	0.9794	0.2127	-0.066
Mof_C 	C 	0.4054	0.9745	0.1175	-0.153
Mof_C 	C 	0.3366	0.9002	0.0574	0.27
Mof_N 	N 	0.0868	0.8251	0.9068	-0.29
Mof_N 	N 	0.0868	0.6749	0.0932	-0.245
Mof_N 	N 	0.5868	0.3251	0.5932	-0.269
Mof_N 	N 	0.5868	0.1749	0.4068	-0.275
Mof_O 	O 	0.8492	0.1015	0.4695	-0.352
Mof_O 	O 	0.7628	0.1557	0.5987	-0.461
Mof_O 	O 	0.8492	0.3985	0.5305	-0.36
Mof_O 	O 	0.7628	0.3443	0.4013	-0.468
Mof_O 	O 	0.3492	0.6015	0.0305	-0.439
Mof_O 	O 	0.2628	0.6557	0.9013	-0.473
Mof_O 	O 	0.3492	0.8985	0.9695	-0.273
Mof_O 	O 	0.2628	0.8443	0.0987	-0.449
_end
