data_functionalizedCrystal
_audit_creation_method	'EQeq! by Chris Wilmer'
_symmetry_space_group_name_H-M	'P1'
_symmetry_Int_Tables_number	1
_symmetry_cell_setting	triclinic
loop_
_symmetry_equiv_pos_as_xyz
  x,y,z
_cell_length_a	16.0346
_cell_length_b	16.0346
_cell_length_c	26.471
_cell_angle_alpha	84.3117
_cell_angle_beta	84.3117
_cell_angle_gamma	84.3683
loop_
_atom_site_label
_atom_site_type_symbol
_atom_site_fract_x
_atom_site_fract_y
_atom_site_fract_z
_atom_site_charge
Mof_Co	Co	0.72722	0.32122	0.49349	1.153
Mof_Co	Co	0.89754	0.30618	0.47033	1.152
Mof_Co	Co	0.32122	0.72722	0.99349	1.152
Mof_Co	Co	0.30618	0.89754	0.97033	1.151
Mof_H 	H 	0.678	0.5592	0.3941	-0.026
Mof_H 	H 	0.6759	0.6869	0.3446	0.15
Mof_H 	H 	0.9258	0.6646	0.3294	0.16
Mof_H 	H 	0.9279	0.5381	0.3774	-0.031
Mof_H 	H 	0.6976	0.8232	0.2996	0.037
Mof_H 	H 	0.7143	0.7505	0.263	0.033
Mof_H 	H 	0.6468	0.9204	0.2214	0.031
Mof_H 	H 	0.7085	0.9271	0.1712	0.036
Mof_H 	H 	0.6007	0.6985	0.1632	0.16
Mof_H 	H 	0.494	0.692	0.1115	-0.024
Mof_H 	H 	0.4694	0.9408	0.0887	-0.025
Mof_H 	H 	0.5744	0.9482	0.1425	0.158
Mof_H 	H 	0.8506	0.914	0.2738	0.033
Mof_H 	H 	0.8235	0.9733	0.2261	0.034
Mof_H 	H 	0.6483	0.0529	0.3441	0.149
Mof_H 	H 	0.6744	0.1586	0.391	-0.016
Mof_H 	H 	0.9182	0.1326	0.3433	-0.011
Mof_H 	H 	0.8903	0.0307	0.2907	0.133
Mof_H 	H 	0.8866	0.796	0.217	0.029
Mof_H 	H 	0.8195	0.7683	0.1841	0.032
Mof_H 	H 	0.9615	0.7321	0.1535	0.142
Mof_H 	H 	0.0872	0.7102	0.1008	-0.019
Mof_H 	H 	0.0687	0.9505	0.0496	-0.021
Mof_H 	H 	0.9398	0.9706	0.0957	0.163
Mof_H 	H 	0.0258	0.3932	0.5151	0
Mof_H 	H 	0.1677	0.3903	0.5175	0.101
Mof_H 	H 	0.1973	0.2059	0.4268	0.103
Mof_H 	H 	0.0527	0.2115	0.4275	-0.001
Mof_H 	H 	0.3219	0.2499	0.4557	0.058
Mof_H 	H 	0.302	0.3796	0.5121	0.075
Mof_H 	H 	0.4351	0.4567	0.5048	0.112
Mof_H 	H 	0.5751	0.4407	0.5181	-0.023
Mof_H 	H 	0.5912	0.2084	0.4905	-0.015
Mof_H 	H 	0.4479	0.2157	0.4821	0.107
Mof_H 	H 	0.5592	0.678	0.8941	-0.026
Mof_H 	H 	0.6869	0.6759	0.8446	0.15
Mof_H 	H 	0.6646	0.9258	0.8294	0.16
Mof_H 	H 	0.5381	0.9279	0.8774	-0.031
Mof_H 	H 	0.8232	0.6976	0.7996	0.037
Mof_H 	H 	0.7505	0.7143	0.763	0.033
Mof_H 	H 	0.9204	0.6468	0.7214	0.031
Mof_H 	H 	0.9271	0.7085	0.6712	0.035
Mof_H 	H 	0.6985	0.6007	0.6632	0.16
Mof_H 	H 	0.692	0.494	0.6115	-0.024
Mof_H 	H 	0.9408	0.4694	0.5887	-0.026
Mof_H 	H 	0.9482	0.5744	0.6425	0.158
Mof_H 	H 	0.914	0.8506	0.7738	0.033
Mof_H 	H 	0.9733	0.8235	0.7261	0.033
Mof_H 	H 	0.0529	0.6483	0.8441	0.149
Mof_H 	H 	0.1586	0.6744	0.891	-0.016
Mof_H 	H 	0.1326	0.9182	0.8433	-0.012
Mof_H 	H 	0.0307	0.8903	0.7907	0.133
Mof_H 	H 	0.796	0.8866	0.717	0.029
Mof_H 	H 	0.7683	0.8195	0.6841	0.032
Mof_H 	H 	0.7321	0.9615	0.6535	0.141
Mof_H 	H 	0.7102	0.0872	0.6008	-0.018
Mof_H 	H 	0.9505	0.0687	0.5496	-0.021
Mof_H 	H 	0.9706	0.9398	0.5957	0.162
Mof_H 	H 	0.3932	0.0258	0.0151	-0.003
Mof_H 	H 	0.3903	0.1677	0.0175	0.1
Mof_H 	H 	0.2059	0.1973	0.9268	0.103
Mof_H 	H 	0.2115	0.0527	0.9275	-0.001
Mof_H 	H 	0.2499	0.3219	0.9557	0.058
Mof_H 	H 	0.3796	0.302	0.0121	0.073
Mof_H 	H 	0.4567	0.4351	0.0048	0.112
Mof_H 	H 	0.4407	0.5751	0.0181	-0.023
Mof_H 	H 	0.2084	0.5912	0.9905	-0.015
Mof_H 	H 	0.2157	0.4479	0.9821	0.107
Mof_C 	C 	0.80612	0.45304	0.42286	0.418
Mof_C 	C 	0.80341	0.53479	0.39045	-0.248
Mof_C 	C 	0.72836	0.58012	0.38064	0.204
Mof_C 	C 	0.72686	0.65668	0.35093	-0.325
Mof_C 	C 	0.80109	0.68729	0.331	0.331
Mof_C 	C 	0.87522	0.64302	0.34189	-0.331
Mof_C 	C 	0.87651	0.56755	0.37088	0.217
Mof_C 	C 	0.7395	0.79548	0.27629	0.047
Mof_C 	C 	0.76778	0.8584	0.23269	-0.015
Mof_C 	C 	0.69093	0.89023	0.20081	0.052
Mof_C 	C 	0.59794	0.82414	0.15637	0.343
Mof_C 	C 	0.57435	0.74763	0.1481	-0.33
Mof_C 	C 	0.51061	0.74411	0.11694	0.213
Mof_C 	C 	0.47162	0.8155	0.0941	-0.246
Mof_C 	C 	0.49564	0.89146	0.10366	0.212
Mof_C 	C 	0.55918	0.89618	0.13563	-0.338
Mof_C 	C 	0.40881	0.81027	0.0566	0.421
Mof_C 	C 	0.80361	0.93433	0.25409	0.05
Mof_C 	C 	0.76657	0.03557	0.31207	0.3
Mof_C 	C 	0.70213	0.07053	0.34272	-0.298
Mof_C 	C 	0.71857	0.13237	0.37131	0.181
Mof_C 	C 	0.79905	0.15755	0.37203	-0.212
Mof_C 	C 	0.86348	0.11838	0.34266	0.167
Mof_C 	C 	0.84705	0.05651	0.31135	-0.288
Mof_C 	C 	0.81463	0.22031	0.40752	0.404
Mof_C 	C 	0.83925	0.81619	0.19756	0.05
Mof_C 	C 	0.93926	0.85426	0.12921	0.323
Mof_C 	C 	0.98221	0.77601	0.13179	-0.311
Mof_C 	C 	0.05883	0.76361	0.1007	0.191
Mof_C 	C 	0.09133	0.82853	0.07083	-0.238
Mof_C 	C 	0.04691	0.90551	0.06977	0.206
Mof_C 	C 	0.97009	0.91807	0.09813	-0.324
Mof_C 	C 	0.17494	0.81654	0.04073	0.422
Mof_C 	C 	0.0605	0.35396	0.4973	0.112
Mof_C 	C 	0.14605	0.35245	0.49888	-0.18
Mof_C 	C 	0.20019	0.29549	0.47328	0.135
Mof_C 	C 	0.16367	0.24419	0.4459	-0.18
Mof_C 	C 	0.07594	0.24832	0.44609	0.112
Mof_C 	C 	0.29116	0.29188	0.47325	-0.075
Mof_C 	C 	0.3329	0.3385	0.49395	-0.109
Mof_C 	C 	0.4251	0.3363	0.4932	0.165
Mof_C 	C 	0.4656	0.4048	0.502	-0.215
Mof_C 	C 	0.5502	0.3968	0.5067	0.132
Mof_C 	C 	0.5594	0.2602	0.4912	0.133
Mof_C 	C 	0.4726	0.2636	0.4879	-0.213
Mof_C 	C 	0.45304	0.80612	0.92286	0.418
Mof_C 	C 	0.53479	0.80341	0.89045	-0.249
Mof_C 	C 	0.58012	0.72836	0.88064	0.204
Mof_C 	C 	0.65668	0.72686	0.85093	-0.326
Mof_C 	C 	0.68729	0.80109	0.831	0.331
Mof_C 	C 	0.64302	0.87522	0.84189	-0.331
Mof_C 	C 	0.56755	0.87651	0.87088	0.217
Mof_C 	C 	0.79548	0.7395	0.77629	0.048
Mof_C 	C 	0.8584	0.76778	0.73269	-0.015
Mof_C 	C 	0.89023	0.69093	0.70081	0.053
Mof_C 	C 	0.82414	0.59794	0.65637	0.344
Mof_C 	C 	0.74763	0.57435	0.6481	-0.33
Mof_C 	C 	0.74411	0.51061	0.61694	0.213
Mof_C 	C 	0.8155	0.47162	0.5941	-0.247
Mof_C 	C 	0.89146	0.49564	0.60366	0.212
Mof_C 	C 	0.89618	0.55918	0.63563	-0.338
Mof_C 	C 	0.81027	0.40881	0.5566	0.421
Mof_C 	C 	0.93433	0.80361	0.75409	0.051
Mof_C 	C 	0.03557	0.76657	0.81207	0.3
Mof_C 	C 	0.07053	0.70213	0.84272	-0.298
Mof_C 	C 	0.13237	0.71857	0.87131	0.182
Mof_C 	C 	0.15755	0.79905	0.87203	-0.212
Mof_C 	C 	0.11838	0.86348	0.84266	0.168
Mof_C 	C 	0.05651	0.84705	0.81135	-0.289
Mof_C 	C 	0.22031	0.81463	0.90752	0.404
Mof_C 	C 	0.81619	0.83925	0.69756	0.05
Mof_C 	C 	0.85426	0.93926	0.62921	0.321
Mof_C 	C 	0.77601	0.98221	0.63179	-0.309
Mof_C 	C 	0.76361	0.05883	0.6007	0.189
Mof_C 	C 	0.82853	0.09133	0.57083	-0.237
Mof_C 	C 	0.90551	0.04691	0.56977	0.204
Mof_C 	C 	0.91807	0.97009	0.59813	-0.322
Mof_C 	C 	0.81654	0.17494	0.54073	0.422
Mof_C 	C 	0.35396	0.0605	0.9973	0.117
Mof_C 	C 	0.35245	0.14605	0.99888	-0.179
Mof_C 	C 	0.29549	0.20019	0.97328	0.136
Mof_C 	C 	0.24419	0.16367	0.9459	-0.18
Mof_C 	C 	0.24832	0.07594	0.94609	0.112
Mof_C 	C 	0.29188	0.29116	0.97325	-0.077
Mof_C 	C 	0.3385	0.3329	0.99395	-0.107
Mof_C 	C 	0.3363	0.4251	0.9932	0.164
Mof_C 	C 	0.4048	0.4656	0.002	-0.214
Mof_C 	C 	0.3968	0.5502	0.0067	0.133
Mof_C 	C 	0.2602	0.5594	0.9912	0.133
Mof_C 	C 	0.2636	0.4726	0.9879	-0.213
Mof_N 	N 	0.597	0.327	0.495	-0.251
Mof_N 	N 	0.02513	0.30209	0.47147	-0.247
Mof_N 	N 	0.327	0.597	0.995	-0.251
Mof_N 	N 	0.30209	0.02513	0.97147	-0.247
Mof_O 	O 	0.73718	0.42876	0.44381	-0.447
Mof_O 	O 	0.87711	0.41419	0.4272	-0.467
Mof_O 	O 	0.80852	0.76238	0.30198	-0.265
Mof_O 	O 	0.66352	0.81758	0.18638	-0.272
Mof_O 	O 	0.39114	0.73698	0.05014	-0.452
Mof_O 	O 	0.37887	0.87621	0.03368	-0.454
Mof_O 	O 	0.74104	0.974	0.28424	-0.251
Mof_O 	O 	0.8892	0.23516	0.41167	-0.436
Mof_O 	O 	0.75063	0.25241	0.43308	-0.469
Mof_O 	O 	0.86453	0.87403	0.1577	-0.265
Mof_O 	O 	0.21142	0.74422	0.03862	-0.448
Mof_O 	O 	0.20284	0.88268	0.01799	-0.464
Mof_O 	O 	0.42876	0.73718	0.94381	-0.447
Mof_O 	O 	0.41419	0.87711	0.9272	-0.467
Mof_O 	O 	0.76238	0.80852	0.80198	-0.266
Mof_O 	O 	0.81758	0.66352	0.68638	-0.272
Mof_O 	O 	0.73698	0.39114	0.55014	-0.453
Mof_O 	O 	0.87621	0.37887	0.53368	-0.456
Mof_O 	O 	0.974	0.74104	0.78424	-0.252
Mof_O 	O 	0.23516	0.8892	0.91167	-0.437
Mof_O 	O 	0.25241	0.75063	0.93308	-0.469
Mof_O 	O 	0.87403	0.86453	0.6577	-0.265
Mof_O 	O 	0.74422	0.21142	0.53862	-0.449
Mof_O 	O 	0.88268	0.20284	0.51799	-0.465
Mof_Co	Co	0.67878	0.27278	0.00651	1.152
Mof_Co	Co	0.69382	0.10246	0.02967	1.151
Mof_Co	Co	0.27278	0.67878	0.50651	1.153
Mof_Co	Co	0.10246	0.69382	0.52967	1.152
Mof_H 	H 	0.4408	0.322	0.1059	-0.026
Mof_H 	H 	0.3131	0.3241	0.1554	0.15
Mof_H 	H 	0.3354	0.0742	0.1706	0.16
Mof_H 	H 	0.4619	0.0721	0.1226	-0.031
Mof_H 	H 	0.1768	0.3024	0.2004	0.037
Mof_H 	H 	0.2495	0.2857	0.237	0.033
Mof_H 	H 	0.0796	0.3532	0.2786	0.031
Mof_H 	H 	0.0729	0.2915	0.3288	0.035
Mof_H 	H 	0.3015	0.3993	0.3368	0.16
Mof_H 	H 	0.308	0.506	0.3885	-0.024
Mof_H 	H 	0.0592	0.5306	0.4113	-0.026
Mof_H 	H 	0.0518	0.4256	0.3575	0.158
Mof_H 	H 	0.086	0.1494	0.2262	0.033
Mof_H 	H 	0.0267	0.1765	0.2739	0.033
Mof_H 	H 	0.9471	0.3517	0.1559	0.149
Mof_H 	H 	0.8414	0.3256	0.109	-0.016
Mof_H 	H 	0.8674	0.0818	0.1567	-0.012
Mof_H 	H 	0.9693	0.1097	0.2093	0.133
Mof_H 	H 	0.204	0.1134	0.283	0.029
Mof_H 	H 	0.2317	0.1805	0.3159	0.032
Mof_H 	H 	0.2679	0.0385	0.3465	0.141
Mof_H 	H 	0.2898	0.9128	0.3992	-0.018
Mof_H 	H 	0.0495	0.9313	0.4504	-0.021
Mof_H 	H 	0.0294	0.0602	0.4043	0.162
Mof_H 	H 	0.6068	0.9742	0.9849	-0.003
Mof_H 	H 	0.6097	0.8323	0.9825	0.1
Mof_H 	H 	0.7941	0.8027	0.0732	0.103
Mof_H 	H 	0.7885	0.9473	0.0725	-0.001
Mof_H 	H 	0.7501	0.6781	0.0443	0.058
Mof_H 	H 	0.6204	0.698	0.9879	0.073
Mof_H 	H 	0.5433	0.5649	0.9952	0.112
Mof_H 	H 	0.5593	0.4249	0.9819	-0.023
Mof_H 	H 	0.7916	0.4088	0.0095	-0.015
Mof_H 	H 	0.7843	0.5521	0.0179	0.107
Mof_H 	H 	0.322	0.4408	0.6059	-0.026
Mof_H 	H 	0.3241	0.3131	0.6554	0.15
Mof_H 	H 	0.0742	0.3354	0.6706	0.16
Mof_H 	H 	0.0721	0.4619	0.6226	-0.031
Mof_H 	H 	0.3024	0.1768	0.7004	0.037
Mof_H 	H 	0.2857	0.2495	0.737	0.033
Mof_H 	H 	0.3532	0.0796	0.7786	0.031
Mof_H 	H 	0.2915	0.0729	0.8288	0.036
Mof_H 	H 	0.3993	0.3015	0.8368	0.16
Mof_H 	H 	0.506	0.308	0.8885	-0.024
Mof_H 	H 	0.5306	0.0592	0.9113	-0.025
Mof_H 	H 	0.4256	0.0518	0.8575	0.158
Mof_H 	H 	0.1494	0.086	0.7262	0.033
Mof_H 	H 	0.1765	0.0267	0.7739	0.034
Mof_H 	H 	0.3517	0.9471	0.6559	0.149
Mof_H 	H 	0.3256	0.8414	0.609	-0.016
Mof_H 	H 	0.0818	0.8674	0.6567	-0.011
Mof_H 	H 	0.1097	0.9693	0.7093	0.133
Mof_H 	H 	0.1134	0.204	0.783	0.029
Mof_H 	H 	0.1805	0.2317	0.8159	0.032
Mof_H 	H 	0.0385	0.2679	0.8465	0.142
Mof_H 	H 	0.9128	0.2898	0.8992	-0.019
Mof_H 	H 	0.9313	0.0495	0.9504	-0.021
Mof_H 	H 	0.0602	0.0294	0.9043	0.163
Mof_H 	H 	0.9742	0.6068	0.4849	0
Mof_H 	H 	0.8323	0.6097	0.4825	0.101
Mof_H 	H 	0.8027	0.7941	0.5732	0.103
Mof_H 	H 	0.9473	0.7885	0.5725	-0.001
Mof_H 	H 	0.6781	0.7501	0.5443	0.058
Mof_H 	H 	0.698	0.6204	0.4879	0.075
Mof_H 	H 	0.5649	0.5433	0.4952	0.112
Mof_H 	H 	0.4249	0.5593	0.4819	-0.023
Mof_H 	H 	0.4088	0.7916	0.5095	-0.015
Mof_H 	H 	0.5521	0.7843	0.5179	0.107
Mof_C 	C 	0.54696	0.19388	0.07714	0.418
Mof_C 	C 	0.46521	0.19659	0.10955	-0.249
Mof_C 	C 	0.41988	0.27164	0.11936	0.204
Mof_C 	C 	0.34332	0.27314	0.14907	-0.326
Mof_C 	C 	0.31271	0.19891	0.169	0.331
Mof_C 	C 	0.35698	0.12478	0.15811	-0.331
Mof_C 	C 	0.43245	0.12349	0.12912	0.217
Mof_C 	C 	0.20452	0.2605	0.22371	0.048
Mof_C 	C 	0.1416	0.23222	0.26731	-0.015
Mof_C 	C 	0.10977	0.30907	0.29919	0.053
Mof_C 	C 	0.17586	0.40206	0.34363	0.344
Mof_C 	C 	0.25237	0.42565	0.3519	-0.33
Mof_C 	C 	0.25589	0.48939	0.38306	0.213
Mof_C 	C 	0.1845	0.52838	0.4059	-0.247
Mof_C 	C 	0.10854	0.50436	0.39634	0.212
Mof_C 	C 	0.10382	0.44082	0.36437	-0.338
Mof_C 	C 	0.18973	0.59119	0.4434	0.421
Mof_C 	C 	0.06567	0.19639	0.24591	0.051
Mof_C 	C 	0.96443	0.23343	0.18793	0.3
Mof_C 	C 	0.92947	0.29787	0.15728	-0.298
Mof_C 	C 	0.86763	0.28143	0.12869	0.182
Mof_C 	C 	0.84245	0.20095	0.12797	-0.212
Mof_C 	C 	0.88162	0.13652	0.15734	0.168
Mof_C 	C 	0.94349	0.15295	0.18865	-0.289
Mof_C 	C 	0.77969	0.18537	0.09248	0.404
Mof_C 	C 	0.18381	0.16075	0.30244	0.05
Mof_C 	C 	0.14574	0.06074	0.37079	0.321
Mof_C 	C 	0.22399	0.01779	0.36821	-0.309
Mof_C 	C 	0.23639	0.94117	0.3993	0.189
Mof_C 	C 	0.17147	0.90867	0.42917	-0.237
Mof_C 	C 	0.09449	0.95309	0.43023	0.204
Mof_C 	C 	0.08193	0.02991	0.40187	-0.322
Mof_C 	C 	0.18346	0.82506	0.45927	0.422
Mof_C 	C 	0.64604	0.9395	0.0027	0.117
Mof_C 	C 	0.64755	0.85395	0.00112	-0.179
Mof_C 	C 	0.70451	0.79981	0.02672	0.136
Mof_C 	C 	0.75581	0.83633	0.0541	-0.18
Mof_C 	C 	0.75168	0.92406	0.05391	0.112
Mof_C 	C 	0.70812	0.70884	0.02675	-0.077
Mof_C 	C 	0.6615	0.6671	0.00605	-0.107
Mof_C 	C 	0.6637	0.5749	0.0068	0.164
Mof_C 	C 	0.5952	0.5344	0.998	-0.214
Mof_C 	C 	0.6032	0.4498	0.9933	0.133
Mof_C 	C 	0.7398	0.4406	0.0088	0.133
Mof_C 	C 	0.7364	0.5274	0.0121	-0.213
Mof_C 	C 	0.19388	0.54696	0.57714	0.418
Mof_C 	C 	0.19659	0.46521	0.60955	-0.248
Mof_C 	C 	0.27164	0.41988	0.61936	0.204
Mof_C 	C 	0.27314	0.34332	0.64907	-0.325
Mof_C 	C 	0.19891	0.31271	0.669	0.331
Mof_C 	C 	0.12478	0.35698	0.65811	-0.331
Mof_C 	C 	0.12349	0.43245	0.62912	0.217
Mof_C 	C 	0.2605	0.20452	0.72371	0.047
Mof_C 	C 	0.23222	0.1416	0.76731	-0.015
Mof_C 	C 	0.30907	0.10977	0.79919	0.052
Mof_C 	C 	0.40206	0.17586	0.84363	0.343
Mof_C 	C 	0.42565	0.25237	0.8519	-0.33
Mof_C 	C 	0.48939	0.25589	0.88306	0.213
Mof_C 	C 	0.52838	0.1845	0.9059	-0.246
Mof_C 	C 	0.50436	0.10854	0.89634	0.212
Mof_C 	C 	0.44082	0.10382	0.86437	-0.338
Mof_C 	C 	0.59119	0.18973	0.9434	0.421
Mof_C 	C 	0.19639	0.06567	0.74591	0.05
Mof_C 	C 	0.23343	0.96443	0.68793	0.3
Mof_C 	C 	0.29787	0.92947	0.65728	-0.298
Mof_C 	C 	0.28143	0.86763	0.62869	0.181
Mof_C 	C 	0.20095	0.84245	0.62797	-0.212
Mof_C 	C 	0.13652	0.88162	0.65734	0.167
Mof_C 	C 	0.15295	0.94349	0.68865	-0.288
Mof_C 	C 	0.18537	0.77969	0.59248	0.404
Mof_C 	C 	0.16075	0.18381	0.80244	0.05
Mof_C 	C 	0.06074	0.14574	0.87079	0.323
Mof_C 	C 	0.01779	0.22399	0.86821	-0.311
Mof_C 	C 	0.94117	0.23639	0.8993	0.191
Mof_C 	C 	0.90867	0.17147	0.92917	-0.238
Mof_C 	C 	0.95309	0.09449	0.93023	0.206
Mof_C 	C 	0.02991	0.08193	0.90187	-0.324
Mof_C 	C 	0.82506	0.18346	0.95927	0.422
Mof_C 	C 	0.9395	0.64604	0.5027	0.112
Mof_C 	C 	0.85395	0.64755	0.50112	-0.18
Mof_C 	C 	0.79981	0.70451	0.52672	0.135
Mof_C 	C 	0.83633	0.75581	0.5541	-0.18
Mof_C 	C 	0.92406	0.75168	0.55391	0.112
Mof_C 	C 	0.70884	0.70812	0.52675	-0.075
Mof_C 	C 	0.6671	0.6615	0.50605	-0.109
Mof_C 	C 	0.5749	0.6637	0.5068	0.165
Mof_C 	C 	0.5344	0.5952	0.498	-0.215
Mof_C 	C 	0.4498	0.6032	0.4933	0.132
Mof_C 	C 	0.4406	0.7398	0.5088	0.133
Mof_C 	C 	0.5274	0.7364	0.5121	-0.213
Mof_N 	N 	0.673	0.403	0.005	-0.251
Mof_N 	N 	0.69791	0.97487	0.02853	-0.247
Mof_N 	N 	0.403	0.673	0.505	-0.251
Mof_N 	N 	0.97487	0.69791	0.52853	-0.247
Mof_O 	O 	0.57124	0.26282	0.05619	-0.447
Mof_O 	O 	0.58581	0.12289	0.0728	-0.467
Mof_O 	O 	0.23762	0.19148	0.19802	-0.266
Mof_O 	O 	0.18242	0.33648	0.31362	-0.272
Mof_O 	O 	0.26302	0.60886	0.44986	-0.453
Mof_O 	O 	0.12379	0.62113	0.46632	-0.456
Mof_O 	O 	0.026	0.25896	0.21576	-0.252
Mof_O 	O 	0.76484	0.1108	0.08833	-0.437
Mof_O 	O 	0.74759	0.24937	0.06692	-0.469
Mof_O 	O 	0.12597	0.13547	0.3423	-0.265
Mof_O 	O 	0.25578	0.78858	0.46138	-0.449
Mof_O 	O 	0.11732	0.79716	0.48201	-0.465
Mof_O 	O 	0.26282	0.57124	0.55619	-0.447
Mof_O 	O 	0.12289	0.58581	0.5728	-0.467
Mof_O 	O 	0.19148	0.23762	0.69802	-0.265
Mof_O 	O 	0.33648	0.18242	0.81362	-0.272
Mof_O 	O 	0.60886	0.26302	0.94986	-0.452
Mof_O 	O 	0.62113	0.12379	0.96632	-0.454
Mof_O 	O 	0.25896	0.026	0.71576	-0.251
Mof_O 	O 	0.1108	0.76484	0.58833	-0.436
Mof_O 	O 	0.24937	0.74759	0.56692	-0.469
Mof_O 	O 	0.13547	0.12597	0.8423	-0.265
Mof_O 	O 	0.78858	0.25578	0.96138	-0.448
Mof_O 	O 	0.79716	0.11732	0.98201	-0.464
_end
