data_functionalizedCrystal
_audit_creation_method	'EQeq! by Chris Wilmer'
_symmetry_space_group_name_H-M	'P1'
_symmetry_Int_Tables_number	1
_symmetry_cell_setting	triclinic
loop_
_symmetry_equiv_pos_as_xyz
  x,y,z
_cell_length_a	21.8891
_cell_length_b	9.107
_cell_length_c	32.038
_cell_angle_alpha	90
_cell_angle_beta	124.121
_cell_angle_gamma	90
loop_
_atom_site_label
_atom_site_type_symbol
_atom_site_fract_x
_atom_site_fract_y
_atom_site_fract_z
_atom_site_charge
Mof_C 	C 	0.3074	0.7254	0.3426	0.13
Mof_C 	C 	0.5713	0.9077	0.4164	-0.041
Mof_O 	O 	0.8957	0.9183	0.4513	-0.574
Mof_Tb	Tb	0.98233	0.79816	0.44478	1.884
Mof_O 	O 	0.013	0.0503	0.0826	-0.419
Mof_C 	C 	0.2957	0.2094	0.3962	0.001
Mof_H 	H 	0.3067	0.3099	0.3956	0.03
Mof_O 	O 	0.0506	0.5658	0.4625	-0.455
Mof_C 	C 	0.2017	0.2841	0.4149	0.083
Mof_O 	O 	0.0957	0.8946	0.1395	-0.435
Mof_C 	C 	0.075	0.284	0.1553	0.027
Mof_H 	H 	0.0295	0.3049	0.1244	0.023
Mof_N 	N 	0.3502	0.8405	0.3753	-0.167
Mof_O 	O 	0.9038	0.122	0.4931	-0.551
Mof_O 	O 	0.0473	0.7182	0.4071	-0.418
Mof_C 	C 	0.0676	0.0229	0.1267	0.319
Mof_C 	C 	0.7919	0.9864	0.4534	-0.206
Mof_C 	C 	0.6471	0.9304	0.4271	0.089
Mof_C 	C 	0.1186	0.4912	0.4279	-0.118
Mof_C 	C 	0.1859	0.2658	0.4498	-0.137
Mof_H 	H 	0.2041	0.181	0.4707	0.081
Mof_C 	C 	0.3172	0.9533	0.3877	0.116
Mof_C 	C 	0.1029	0.1444	0.1653	-0.101
Mof_C 	C 	0.4815	0.8984	0.4394	-0.119
Mof_H 	H 	0.4716	0.9074	0.4646	0.071
Mof_C 	C 	0.2231	0.4921	0.2749	-0.054
Mof_C 	C 	0.2662	0.915	0.3989	-0.124
Mof_H 	H 	0.2565	0.8144	0.4007	0.076
Mof_C 	C 	0.0697	0.6001	0.4318	0.308
Mof_C 	C 	0.3327	0.1004	0.3874	-0.127
Mof_H 	H 	0.3688	0.1282	0.3812	0.074
Mof_C 	C 	0.2022	0.2322	0.249	-0.121
Mof_H 	H 	0.2446	0.2085	0.2813	0.071
Mof_C 	C 	0.6922	0.0486	0.4605	-0.15
Mof_H 	H 	0.6729	0.1098	0.4745	0.08
Mof_C 	C 	0.4245	0.8594	0.3896	0.112
Mof_C 	C 	0.1784	0.3732	0.2385	0.074
Mof_C 	C 	0.2289	0.025	0.4075	0
Mof_H 	H 	0.1935	0.9981	0.4145	0.034
Mof_C 	C 	0.114	0.3974	0.1911	-0.116
Mof_H 	H 	0.0952	0.4947	0.1823	0.057
Mof_C 	C 	0.2968	0.4773	0.3129	0.017
Mof_H 	H 	0.3202	0.3856	0.3169	0.02
Mof_C 	C 	0.2438	0.1722	0.4058	-0.04
Mof_C 	C 	0.8684	0.0106	0.4658	0.51
Mof_C 	C 	0.1438	0.3671	0.4563	0.06
Mof_H 	H 	0.1328	0.349	0.4806	0.006
Mof_C 	C 	0.6772	0.8415	0.4084	-0.157
Mof_H 	H 	0.6498	0.7607	0.3873	0.079
Mof_C 	C 	0.7486	0.8703	0.4205	0.093
Mof_H 	H 	0.7681	0.8106	0.4063	-0.013
Mof_C 	C 	0.1367	0.5135	0.3945	0.047
Mof_H 	H 	0.1205	0.6018	0.3755	0.027
Mof_C 	C 	0.3375	0.5894	0.3451	-0.142
Mof_H 	H 	0.3884	0.5733	0.3701	0.08
Mof_C 	C 	0.7643	0.0756	0.4728	0.095
Mof_H 	H 	0.7928	0.1547	0.4944	0.005
Mof_C 	C 	0.1929	0.6298	0.273	0.011
Mof_H 	H 	0.1419	0.6447	0.2481	0.028
Mof_C 	C 	0.5136	0.865	0.3664	-0.004
Mof_H 	H 	0.5239	0.8521	0.3415	0.029
Mof_C 	C 	0.1779	0.4142	0.386	-0.127
Mof_H 	H 	0.1892	0.4339	0.362	0.077
Mof_C 	C 	0.2329	0.7466	0.3054	-0.136
Mof_H 	H 	0.2098	0.8381	0.3022	0.082
Mof_C 	C 	0.1653	0.1198	0.2129	0.035
Mof_H 	H 	0.1842	0.0228	0.2217	0.03
Mof_C 	C 	0.4406	0.8418	0.3538	-0.122
Mof_H 	H 	0.4026	0.814	0.3204	0.074
Mof_C 	C 	0.5535	0.924	0.4515	-0.002
Mof_H 	H 	0.591	0.9534	0.4849	0.032
Mof_C 	C 	0.6926	0.7254	0.1574	0.129
Mof_C 	C 	0.4287	0.9077	0.0836	-0.042
Mof_O 	O 	0.1043	0.9183	0.0487	-0.574
Mof_Tb	Tb	0.01767	0.79816	0.05522	1.881
Mof_O 	O 	0.987	0.0503	0.4174	-0.419
Mof_C 	C 	0.7043	0.2094	0.1038	0.001
Mof_H 	H 	0.6933	0.3099	0.1044	0.03
Mof_O 	O 	0.9494	0.5658	0.0375	-0.454
Mof_C 	C 	0.7983	0.2841	0.0851	0.083
Mof_O 	O 	0.9043	0.8946	0.3605	-0.435
Mof_C 	C 	0.925	0.284	0.3447	0.027
Mof_H 	H 	0.9705	0.3049	0.3756	0.023
Mof_N 	N 	0.6498	0.8405	0.1247	-0.167
Mof_O 	O 	0.0962	0.122	0.0069	-0.551
Mof_O 	O 	0.9527	0.7182	0.0929	-0.417
Mof_C 	C 	0.9324	0.0229	0.3733	0.319
Mof_C 	C 	0.2081	0.9864	0.0466	-0.206
Mof_C 	C 	0.3529	0.9304	0.0729	0.089
Mof_C 	C 	0.8814	0.4912	0.0721	-0.117
Mof_C 	C 	0.8141	0.2658	0.0502	-0.137
Mof_H 	H 	0.7959	0.181	0.0293	0.082
Mof_C 	C 	0.6828	0.9533	0.1123	0.116
Mof_C 	C 	0.8971	0.1444	0.3347	-0.101
Mof_C 	C 	0.5185	0.8984	0.0606	-0.119
Mof_H 	H 	0.5284	0.9074	0.0354	0.071
Mof_C 	C 	0.7769	0.4921	0.2251	-0.054
Mof_C 	C 	0.7338	0.915	0.1011	-0.124
Mof_H 	H 	0.7435	0.8144	0.0993	0.076
Mof_C 	C 	0.9303	0.6001	0.0682	0.308
Mof_C 	C 	0.6673	0.1004	0.1126	-0.127
Mof_H 	H 	0.6312	0.1282	0.1188	0.073
Mof_C 	C 	0.7978	0.2322	0.251	-0.121
Mof_H 	H 	0.7554	0.2085	0.2187	0.071
Mof_C 	C 	0.3078	0.0486	0.0395	-0.15
Mof_H 	H 	0.3271	0.1098	0.0255	0.08
Mof_C 	C 	0.5755	0.8594	0.1104	0.112
Mof_C 	C 	0.8216	0.3732	0.2615	0.074
Mof_C 	C 	0.7711	0.025	0.0925	0
Mof_H 	H 	0.8065	0.9981	0.0855	0.034
Mof_C 	C 	0.886	0.3974	0.3089	-0.116
Mof_H 	H 	0.9048	0.4947	0.3177	0.057
Mof_C 	C 	0.7032	0.4773	0.1871	0.017
Mof_H 	H 	0.6798	0.3856	0.1831	0.02
Mof_C 	C 	0.7562	0.1722	0.0942	-0.04
Mof_C 	C 	0.1316	0.0106	0.0342	0.51
Mof_C 	C 	0.8562	0.3671	0.0437	0.06
Mof_H 	H 	0.8672	0.349	0.0194	0.006
Mof_C 	C 	0.3228	0.8415	0.0916	-0.157
Mof_H 	H 	0.3502	0.7607	0.1127	0.079
Mof_C 	C 	0.2514	0.8703	0.0795	0.093
Mof_H 	H 	0.2319	0.8106	0.0937	-0.013
Mof_C 	C 	0.8633	0.5135	0.1055	0.047
Mof_H 	H 	0.8795	0.6018	0.1245	0.027
Mof_C 	C 	0.6625	0.5894	0.1549	-0.142
Mof_H 	H 	0.6116	0.5733	0.1299	0.08
Mof_C 	C 	0.2357	0.0756	0.0272	0.095
Mof_H 	H 	0.2072	0.1547	0.0056	0.005
Mof_C 	C 	0.8071	0.6298	0.227	0.011
Mof_H 	H 	0.8581	0.6447	0.2519	0.028
Mof_C 	C 	0.4864	0.865	0.1336	-0.003
Mof_H 	H 	0.4761	0.8521	0.1585	0.029
Mof_C 	C 	0.8221	0.4142	0.114	-0.127
Mof_H 	H 	0.8108	0.4339	0.138	0.077
Mof_C 	C 	0.7671	0.7466	0.1946	-0.136
Mof_H 	H 	0.7902	0.8381	0.1978	0.082
Mof_C 	C 	0.8347	0.1198	0.2871	0.035
Mof_H 	H 	0.8158	0.0228	0.2783	0.03
Mof_C 	C 	0.5594	0.8418	0.1462	-0.122
Mof_H 	H 	0.5974	0.814	0.1796	0.074
Mof_C 	C 	0.4465	0.924	0.0485	-0.002
Mof_H 	H 	0.409	0.9534	0.0151	0.032
Mof_C 	C 	0.6926	0.2746	0.6574	0.129
Mof_C 	C 	0.4287	0.0923	0.5836	-0.042
Mof_O 	O 	0.1043	0.0817	0.5487	-0.574
Mof_Tb	Tb	0.01767	0.20184	0.55522	1.884
Mof_O 	O 	0.987	0.9497	0.9174	-0.419
Mof_C 	C 	0.7043	0.7906	0.6038	0.001
Mof_H 	H 	0.6933	0.6901	0.6044	0.03
Mof_O 	O 	0.9494	0.4342	0.5375	-0.455
Mof_C 	C 	0.7983	0.7159	0.5851	0.083
Mof_O 	O 	0.9043	0.1054	0.8605	-0.435
Mof_C 	C 	0.925	0.716	0.8447	0.027
Mof_H 	H 	0.9705	0.6951	0.8756	0.023
Mof_N 	N 	0.6498	0.1595	0.6247	-0.167
Mof_O 	O 	0.0962	0.878	0.5069	-0.551
Mof_O 	O 	0.9527	0.2818	0.5929	-0.418
Mof_C 	C 	0.9324	0.9771	0.8733	0.319
Mof_C 	C 	0.2081	0.0136	0.5466	-0.206
Mof_C 	C 	0.3529	0.0696	0.5729	0.089
Mof_C 	C 	0.8814	0.5088	0.5721	-0.118
Mof_C 	C 	0.8141	0.7342	0.5502	-0.137
Mof_H 	H 	0.7959	0.819	0.5293	0.081
Mof_C 	C 	0.6828	0.0467	0.6123	0.116
Mof_C 	C 	0.8971	0.8556	0.8347	-0.101
Mof_C 	C 	0.5185	0.1016	0.5606	-0.119
Mof_H 	H 	0.5284	0.0926	0.5354	0.071
Mof_C 	C 	0.7769	0.5079	0.7251	-0.054
Mof_C 	C 	0.7338	0.085	0.6011	-0.124
Mof_H 	H 	0.7435	0.1856	0.5993	0.076
Mof_C 	C 	0.9303	0.3999	0.5682	0.308
Mof_C 	C 	0.6673	0.8996	0.6126	-0.127
Mof_H 	H 	0.6312	0.8718	0.6188	0.074
Mof_C 	C 	0.7978	0.7678	0.751	-0.121
Mof_H 	H 	0.7554	0.7915	0.7187	0.071
Mof_C 	C 	0.3078	0.9514	0.5395	-0.15
Mof_H 	H 	0.3271	0.8902	0.5255	0.08
Mof_C 	C 	0.5755	0.1406	0.6104	0.112
Mof_C 	C 	0.8216	0.6268	0.7615	0.074
Mof_C 	C 	0.7711	0.975	0.5925	0
Mof_H 	H 	0.8065	0.0019	0.5855	0.034
Mof_C 	C 	0.886	0.6026	0.8089	-0.116
Mof_H 	H 	0.9048	0.5053	0.8177	0.057
Mof_C 	C 	0.7032	0.5227	0.6871	0.017
Mof_H 	H 	0.6798	0.6144	0.6831	0.02
Mof_C 	C 	0.7562	0.8278	0.5942	-0.04
Mof_C 	C 	0.1316	0.9894	0.5342	0.51
Mof_C 	C 	0.8562	0.6329	0.5437	0.06
Mof_H 	H 	0.8672	0.651	0.5194	0.006
Mof_C 	C 	0.3228	0.1585	0.5916	-0.157
Mof_H 	H 	0.3502	0.2393	0.6127	0.079
Mof_C 	C 	0.2514	0.1297	0.5795	0.093
Mof_H 	H 	0.2319	0.1894	0.5937	-0.013
Mof_C 	C 	0.8633	0.4865	0.6055	0.047
Mof_H 	H 	0.8795	0.3982	0.6245	0.027
Mof_C 	C 	0.6625	0.4106	0.6549	-0.142
Mof_H 	H 	0.6116	0.4267	0.6299	0.08
Mof_C 	C 	0.2357	0.9244	0.5272	0.095
Mof_H 	H 	0.2072	0.8453	0.5056	0.005
Mof_C 	C 	0.8071	0.3702	0.727	0.011
Mof_H 	H 	0.8581	0.3553	0.7519	0.028
Mof_C 	C 	0.4864	0.135	0.6336	-0.004
Mof_H 	H 	0.4761	0.1479	0.6585	0.029
Mof_C 	C 	0.8221	0.5858	0.614	-0.127
Mof_H 	H 	0.8108	0.5661	0.638	0.077
Mof_C 	C 	0.7671	0.2534	0.6946	-0.136
Mof_H 	H 	0.7902	0.1619	0.6978	0.082
Mof_C 	C 	0.8347	0.8802	0.7871	0.035
Mof_H 	H 	0.8158	0.9772	0.7783	0.03
Mof_C 	C 	0.5594	0.1582	0.6462	-0.122
Mof_H 	H 	0.5974	0.186	0.6796	0.074
Mof_C 	C 	0.4465	0.076	0.5485	-0.002
Mof_H 	H 	0.409	0.0466	0.5151	0.032
Mof_C 	C 	0.3074	0.2746	0.8426	0.129
Mof_C 	C 	0.5713	0.0923	0.9164	-0.042
Mof_O 	O 	0.8957	0.0817	0.9513	-0.574
Mof_Tb	Tb	0.98233	0.20184	0.94478	1.881
Mof_O 	O 	0.013	0.9497	0.5826	-0.419
Mof_C 	C 	0.2957	0.7906	0.8962	0.001
Mof_H 	H 	0.3067	0.6901	0.8956	0.03
Mof_O 	O 	0.0506	0.4342	0.9625	-0.454
Mof_C 	C 	0.2017	0.7159	0.9149	0.083
Mof_O 	O 	0.0957	0.1054	0.6395	-0.435
Mof_C 	C 	0.075	0.716	0.6553	0.027
Mof_H 	H 	0.0295	0.6951	0.6244	0.023
Mof_N 	N 	0.3502	0.1595	0.8753	-0.167
Mof_O 	O 	0.9038	0.878	0.9931	-0.551
Mof_O 	O 	0.0473	0.2818	0.9071	-0.417
Mof_C 	C 	0.0676	0.9771	0.6267	0.319
Mof_C 	C 	0.7919	0.0136	0.9534	-0.206
Mof_C 	C 	0.6471	0.0696	0.9271	0.089
Mof_C 	C 	0.1186	0.5088	0.9279	-0.117
Mof_C 	C 	0.1859	0.7342	0.9498	-0.137
Mof_H 	H 	0.2041	0.819	0.9707	0.082
Mof_C 	C 	0.3172	0.0467	0.8877	0.116
Mof_C 	C 	0.1029	0.8556	0.6653	-0.101
Mof_C 	C 	0.4815	0.1016	0.9394	-0.119
Mof_H 	H 	0.4716	0.0926	0.9646	0.071
Mof_C 	C 	0.2231	0.5079	0.7749	-0.054
Mof_C 	C 	0.2662	0.085	0.8989	-0.124
Mof_H 	H 	0.2565	0.1856	0.9007	0.076
Mof_C 	C 	0.0697	0.3999	0.9318	0.308
Mof_C 	C 	0.3327	0.8996	0.8874	-0.127
Mof_H 	H 	0.3688	0.8718	0.8812	0.073
Mof_C 	C 	0.2022	0.7678	0.749	-0.121
Mof_H 	H 	0.2446	0.7915	0.7813	0.071
Mof_C 	C 	0.6922	0.9514	0.9605	-0.15
Mof_H 	H 	0.6729	0.8902	0.9745	0.08
Mof_C 	C 	0.4245	0.1406	0.8896	0.112
Mof_C 	C 	0.1784	0.6268	0.7385	0.074
Mof_C 	C 	0.2289	0.975	0.9075	0
Mof_H 	H 	0.1935	0.0019	0.9145	0.034
Mof_C 	C 	0.114	0.6026	0.6911	-0.116
Mof_H 	H 	0.0952	0.5053	0.6823	0.057
Mof_C 	C 	0.2968	0.5227	0.8129	0.017
Mof_H 	H 	0.3202	0.6144	0.8169	0.02
Mof_C 	C 	0.2438	0.8278	0.9058	-0.04
Mof_C 	C 	0.8684	0.9894	0.9658	0.51
Mof_C 	C 	0.1438	0.6329	0.9563	0.06
Mof_H 	H 	0.1328	0.651	0.9806	0.006
Mof_C 	C 	0.6772	0.1585	0.9084	-0.157
Mof_H 	H 	0.6498	0.2393	0.8873	0.079
Mof_C 	C 	0.7486	0.1297	0.9205	0.093
Mof_H 	H 	0.7681	0.1894	0.9063	-0.013
Mof_C 	C 	0.1367	0.4865	0.8945	0.047
Mof_H 	H 	0.1205	0.3982	0.8755	0.027
Mof_C 	C 	0.3375	0.4106	0.8451	-0.142
Mof_H 	H 	0.3884	0.4267	0.8701	0.08
Mof_C 	C 	0.7643	0.9244	0.9728	0.095
Mof_H 	H 	0.7928	0.8453	0.9944	0.005
Mof_C 	C 	0.1929	0.3702	0.773	0.011
Mof_H 	H 	0.1419	0.3553	0.7481	0.028
Mof_C 	C 	0.5136	0.135	0.8664	-0.003
Mof_H 	H 	0.5239	0.1479	0.8415	0.029
Mof_C 	C 	0.1779	0.5858	0.886	-0.127
Mof_H 	H 	0.1892	0.5661	0.862	0.077
Mof_C 	C 	0.2329	0.2534	0.8054	-0.136
Mof_H 	H 	0.2098	0.1619	0.8022	0.082
Mof_C 	C 	0.1653	0.8802	0.7129	0.035
Mof_H 	H 	0.1842	0.9772	0.7217	0.03
Mof_C 	C 	0.4406	0.1582	0.8538	-0.122
Mof_H 	H 	0.4026	0.186	0.8204	0.074
Mof_C 	C 	0.5535	0.076	0.9515	-0.002
Mof_H 	H 	0.591	0.0466	0.9849	0.032
_end
