data_functionalizedCrystal
_audit_creation_method	'EQeq! by Chris Wilmer'
_symmetry_space_group_name_H-M	'P1'
_symmetry_Int_Tables_number	1
_symmetry_cell_setting	triclinic
loop_
_symmetry_equiv_pos_as_xyz
  x,y,z
_cell_length_a	10.6825
_cell_length_b	12.3388
_cell_length_c	17.126
_cell_angle_alpha	90
_cell_angle_beta	95.447
_cell_angle_gamma	90
loop_
_atom_site_label
_atom_site_type_symbol
_atom_site_fract_x
_atom_site_fract_y
_atom_site_fract_z
_atom_site_charge
Mof_Zn	Zn	0.2731	0.26341	0.39909	1.172
Mof_Zn	Zn	0.79308	0.25501	0.54341	1.174
Mof_Zn	Zn	0.2269	0.76341	0.10091	1.172
Mof_Zn	Zn	0.70692	0.75501	0.95659	1.174
Mof_Zn	Zn	0.7269	0.73659	0.60091	1.172
Mof_Zn	Zn	0.20692	0.74499	0.45659	1.174
Mof_Zn	Zn	0.7731	0.23659	0.89909	1.172
Mof_Zn	Zn	0.29308	0.24499	0.04341	1.174
Mof_H 	H 	0.9331	0.3632	0.7873	0.161
Mof_H 	H 	0.991	0.3182	0.7108	0.162
Mof_H 	H 	0.8838	0.4092	0.7025	0.171
Mof_H 	H 	0.5204	0.0555	0.6442	0.111
Mof_H 	H 	0.6418	0.0152	0.6047	0.088
Mof_H 	H 	0.5284	0.3184	0.3382	0.155
Mof_H 	H 	0.6427	0.3611	0.3974	0.164
Mof_H 	H 	0.6585	0.2532	0.3474	0.172
Mof_H 	H 	0.9804	0.0063	0.3262	0.17
Mof_H 	H 	0.0725	0.0939	0.2932	0.157
Mof_H 	H 	0.1272	0.0049	0.3553	0.153
Mof_H 	H 	0.0432	0.3674	0.574	0.091
Mof_H 	H 	0.1743	0.304	0.5835	0.096
Mof_H 	H 	0.3827	0.6149	0.3637	0.161
Mof_H 	H 	0.4643	0.512	0.3941	0.168
Mof_H 	H 	0.3576	0.4995	0.3226	0.165
Mof_H 	H 	0.5669	0.8632	0.7127	0.163
Mof_H 	H 	0.509	0.8182	0.7892	0.163
Mof_H 	H 	0.6162	0.9092	0.7975	0.171
Mof_H 	H 	0.9796	0.5555	0.8558	0.11
Mof_H 	H 	0.8582	0.5152	0.8953	0.088
Mof_H 	H 	0.9716	0.8184	0.1618	0.156
Mof_H 	H 	0.8573	0.8611	0.1026	0.166
Mof_H 	H 	0.8415	0.7532	0.1526	0.173
Mof_H 	H 	0.5196	0.5063	0.1738	0.172
Mof_H 	H 	0.4275	0.5939	0.2068	0.158
Mof_H 	H 	0.3728	0.5049	0.1447	0.154
Mof_H 	H 	0.4568	0.8674	0.926	0.09
Mof_H 	H 	0.3257	0.804	0.9165	0.095
Mof_H 	H 	0.1173	0.1149	0.1363	0.161
Mof_H 	H 	0.0357	0.012	0.1059	0.167
Mof_H 	H 	0.1424	0.9995	0.1774	0.164
Mof_H 	H 	0.0669	0.6368	0.2127	0.162
Mof_H 	H 	0.009	0.6818	0.2892	0.163
Mof_H 	H 	0.1162	0.5908	0.2975	0.171
Mof_H 	H 	0.4796	0.9445	0.3558	0.111
Mof_H 	H 	0.3582	0.9848	0.3953	0.088
Mof_H 	H 	0.4716	0.6816	0.6618	0.155
Mof_H 	H 	0.3573	0.6389	0.6026	0.164
Mof_H 	H 	0.3415	0.7468	0.6526	0.172
Mof_H 	H 	0.0196	0.9937	0.6738	0.17
Mof_H 	H 	0.9275	0.9061	0.7068	0.157
Mof_H 	H 	0.8728	0.9951	0.6447	0.153
Mof_H 	H 	0.9568	0.6326	0.426	0.091
Mof_H 	H 	0.8257	0.696	0.4165	0.096
Mof_H 	H 	0.6173	0.3851	0.6363	0.161
Mof_H 	H 	0.5357	0.488	0.6059	0.168
Mof_H 	H 	0.6424	0.5005	0.6774	0.165
Mof_H 	H 	0.4331	0.1368	0.2873	0.163
Mof_H 	H 	0.491	0.1818	0.2108	0.163
Mof_H 	H 	0.3838	0.0908	0.2025	0.171
Mof_H 	H 	0.0204	0.4445	0.1442	0.11
Mof_H 	H 	0.1418	0.4848	0.1047	0.088
Mof_H 	H 	0.0284	0.1816	0.8382	0.156
Mof_H 	H 	0.1427	0.1389	0.8974	0.166
Mof_H 	H 	0.1585	0.2468	0.8474	0.173
Mof_H 	H 	0.4804	0.4937	0.8262	0.172
Mof_H 	H 	0.5725	0.4061	0.7932	0.158
Mof_H 	H 	0.6272	0.4951	0.8553	0.154
Mof_H 	H 	0.5432	0.1326	0.074	0.09
Mof_H 	H 	0.6743	0.196	0.0835	0.095
Mof_H 	H 	0.8827	0.8851	0.8637	0.161
Mof_H 	H 	0.9643	0.988	0.8941	0.167
Mof_H 	H 	0.8576	0.0005	0.8226	0.164
Mof_C 	C 	0.9144	0.3447	0.73178	-0.611
Mof_C 	C 	0.8162	0.25866	0.72369	0.216
Mof_C 	C 	0.6768	0.1474	0.67587	0.144
Mof_C 	C 	0.5944	0.0804	0.61839	-0.335
Mof_C 	C 	0.5492	0.13904	0.54416	0.161
Mof_C 	C 	0.5534	0.23056	0.43914	0.217
Mof_C 	C 	0.5997	0.2964	0.37507	-0.61
Mof_C 	C 	0.0549	0.0514	0.3392	-0.574
Mof_C 	C 	0.0318	0.1259	0.40445	0.226
Mof_C 	C 	0.0555	0.24949	0.49145	0.159
Mof_C 	C 	0.1105	0.33666	0.54474	-0.355
Mof_C 	C 	0.1708	0.42684	0.50304	0.161
Mof_C 	C 	0.2861	0.51058	0.42923	0.22
Mof_C 	C 	0.381	0.5365	0.37245	-0.604
Mof_C 	C 	0.5856	0.8447	0.76822	-0.612
Mof_C 	C 	0.6838	0.75866	0.77631	0.217
Mof_C 	C 	0.8232	0.6474	0.82413	0.144
Mof_C 	C 	0.9056	0.5804	0.88161	-0.335
Mof_C 	C 	0.9508	0.63904	0.95584	0.16
Mof_C 	C 	0.9466	0.73056	0.06086	0.22
Mof_C 	C 	0.9003	0.7964	0.12493	-0.613
Mof_C 	C 	0.4451	0.5514	0.1608	-0.579
Mof_C 	C 	0.4682	0.6259	0.09555	0.226
Mof_C 	C 	0.4445	0.74949	0.00855	0.159
Mof_C 	C 	0.3895	0.83666	0.95526	-0.354
Mof_C 	C 	0.3292	0.92684	0.99696	0.158
Mof_C 	C 	0.2139	0.01058	0.07077	0.219
Mof_C 	C 	0.119	0.0365	0.12755	-0.602
Mof_C 	C 	0.0856	0.6553	0.26822	-0.611
Mof_C 	C 	0.1838	0.74134	0.27631	0.216
Mof_C 	C 	0.3232	0.8526	0.32413	0.144
Mof_C 	C 	0.4056	0.9196	0.38161	-0.335
Mof_C 	C 	0.4508	0.86096	0.45584	0.161
Mof_C 	C 	0.4466	0.76944	0.56086	0.217
Mof_C 	C 	0.4003	0.7036	0.62493	-0.61
Mof_C 	C 	0.9451	0.9486	0.6608	-0.574
Mof_C 	C 	0.9682	0.8741	0.59555	0.226
Mof_C 	C 	0.9445	0.75051	0.50855	0.159
Mof_C 	C 	0.8895	0.66334	0.45526	-0.355
Mof_C 	C 	0.8292	0.57316	0.49696	0.161
Mof_C 	C 	0.7139	0.48942	0.57077	0.22
Mof_C 	C 	0.619	0.4635	0.62755	-0.604
Mof_C 	C 	0.4144	0.1553	0.23178	-0.612
Mof_C 	C 	0.3162	0.24134	0.22369	0.217
Mof_C 	C 	0.1768	0.3526	0.17587	0.144
Mof_C 	C 	0.0944	0.4196	0.11839	-0.335
Mof_C 	C 	0.0492	0.36096	0.04416	0.16
Mof_C 	C 	0.0534	0.26944	0.93914	0.22
Mof_C 	C 	0.0997	0.2036	0.87507	-0.613
Mof_C 	C 	0.5549	0.4486	0.8392	-0.579
Mof_C 	C 	0.5318	0.3741	0.90445	0.226
Mof_C 	C 	0.5555	0.25051	0.99145	0.159
Mof_C 	C 	0.6105	0.16334	0.04474	-0.354
Mof_C 	C 	0.6708	0.07316	0.00304	0.158
Mof_C 	C 	0.7861	0.98942	0.92923	0.219
Mof_C 	C 	0.881	0.9635	0.87245	-0.602
Mof_N 	N 	0.11679	0.20047	0.43572	-0.333
Mof_N 	N 	0.9255	0.12692	0.43777	-0.162
Mof_N 	N 	0.94199	0.20777	0.49447	-0.285
Mof_N 	N 	0.25525	0.40978	0.44935	-0.33
Mof_N 	N 	0.14891	0.52992	0.51586	-0.146
Mof_N 	N 	0.22433	0.58423	0.46664	-0.291
Mof_N 	N 	0.43459	0.20097	0.44475	-0.295
Mof_N 	N 	0.43151	0.14119	0.51346	-0.149
Mof_N 	N 	0.62923	0.19308	0.50035	-0.332
Mof_N 	N 	0.76885	0.21583	0.65506	-0.336
Mof_N 	N 	0.66877	0.14441	0.75174	-0.153
Mof_N 	N 	0.75964	0.21758	0.78284	-0.295
Mof_N 	N 	0.38321	0.70047	0.06428	-0.333
Mof_N 	N 	0.5745	0.62692	0.06223	-0.162
Mof_N 	N 	0.55801	0.70777	0.00553	-0.284
Mof_N 	N 	0.24475	0.90978	0.05065	-0.329
Mof_N 	N 	0.35109	0.02992	0.98414	-0.144
Mof_N 	N 	0.27567	0.08423	0.03336	-0.292
Mof_N 	N 	0.06541	0.70097	0.05525	-0.296
Mof_N 	N 	0.06849	0.64119	0.98654	-0.148
Mof_N 	N 	0.87077	0.69308	0.99965	-0.333
Mof_N 	N 	0.73115	0.71583	0.84494	-0.336
Mof_N 	N 	0.83123	0.64441	0.74826	-0.153
Mof_N 	N 	0.74036	0.71758	0.71716	-0.295
Mof_N 	N 	0.88321	0.79953	0.56428	-0.333
Mof_N 	N 	0.0745	0.87308	0.56223	-0.162
Mof_N 	N 	0.05801	0.79223	0.50553	-0.285
Mof_N 	N 	0.74475	0.59022	0.55065	-0.33
Mof_N 	N 	0.85109	0.47008	0.48414	-0.146
Mof_N 	N 	0.77567	0.41577	0.53336	-0.291
Mof_N 	N 	0.56541	0.79903	0.55525	-0.295
Mof_N 	N 	0.56849	0.85881	0.48654	-0.149
Mof_N 	N 	0.37077	0.80692	0.49965	-0.332
Mof_N 	N 	0.23115	0.78417	0.34494	-0.336
Mof_N 	N 	0.33123	0.85559	0.24826	-0.153
Mof_N 	N 	0.24036	0.78242	0.21716	-0.295
Mof_N 	N 	0.61679	0.29953	0.93572	-0.333
Mof_N 	N 	0.4255	0.37308	0.93777	-0.162
Mof_N 	N 	0.44199	0.29223	0.99447	-0.284
Mof_N 	N 	0.75525	0.09022	0.94935	-0.329
Mof_N 	N 	0.64891	0.97008	0.01586	-0.144
Mof_N 	N 	0.72433	0.91577	0.96664	-0.292
Mof_N 	N 	0.93459	0.29903	0.94475	-0.296
Mof_N 	N 	0.93151	0.35881	0.01346	-0.148
Mof_N 	N 	0.12923	0.30692	0.00035	-0.333
Mof_N 	N 	0.26885	0.28417	0.15506	-0.336
Mof_N 	N 	0.16877	0.35559	0.25174	-0.153
Mof_N 	N 	0.25964	0.28242	0.28284	-0.295
_end
