data_functionalizedCrystal
_audit_creation_method	'EQeq! by Chris Wilmer'
_symmetry_space_group_name_H-M	'P1'
_symmetry_Int_Tables_number	1
_symmetry_cell_setting	triclinic
loop_
_symmetry_equiv_pos_as_xyz
  x,y,z
_cell_length_a	34.655
_cell_length_b	14.7307
_cell_length_c	31.081
_cell_angle_alpha	90
_cell_angle_beta	101.031
_cell_angle_gamma	90
loop_
_atom_site_label
_atom_site_type_symbol
_atom_site_fract_x
_atom_site_fract_y
_atom_site_fract_z
_atom_site_charge
Mof_C 	C 	0.8888	0.0252	0.846	0.068
Mof_H 	H 	0.9127	0.05	0.8617	-0.051
Mof_C 	C 	0.8654	0.0776	0.8133	-0.099
Mof_H 	H 	0.8713	0.1397	0.8096	0.028
Mof_C 	C 	0.8335	0.0371	0.7865	0.046
Mof_C 	C 	0.824	0.9481	0.7954	-0.111
Mof_H 	H 	0.8023	0.9181	0.7777	0.064
Mof_C 	C 	0.8468	0.9046	0.8305	0.062
Mof_H 	H 	0.8398	0.8447	0.8372	-0.014
Mof_C 	C 	0.8103	0.0897	0.7503	0.104
Mof_C 	C 	0.7604	0.1001	0.6925	0.088
Mof_C 	C 	0.7968	0.2216	0.7143	0.108
Mof_C 	C 	0.7842	0.4741	0.6941	0.067
Mof_H 	H 	0.7653	0.5147	0.6784	-0.003
Mof_C 	C 	0.7777	0.3811	0.6893	-0.097
Mof_H 	H 	0.7552	0.3588	0.6698	0.084
Mof_C 	C 	0.8044	0.3217	0.7132	0.055
Mof_C 	C 	0.8385	0.3559	0.7397	-0.095
Mof_H 	H 	0.8579	0.3163	0.7553	0.057
Mof_C 	C 	0.8431	0.45	0.7425	0.061
Mof_H 	H 	0.866	0.4741	0.7608	-0.017
Mof_C 	C 	0.6856	0.9266	0.6438	0.096
Mof_H 	H 	0.6772	0.8684	0.6515	-0.017
Mof_C 	C 	0.7148	0.9693	0.6712	-0.136
Mof_H 	H 	0.7268	0.9402	0.6977	0.087
Mof_C 	C 	0.7276	0.0542	0.6617	0.057
Mof_C 	C 	0.7089	0.0942	0.6237	-0.115
Mof_H 	H 	0.7161	0.1536	0.6164	0.101
Mof_C 	C 	0.6802	0.0494	0.5966	0.065
Mof_H 	H 	0.668	0.078	0.57	0.005
Mof_C 	C 	0.5638	0.0338	0.5197	0.054
Mof_H 	H 	0.5749	0.0256	0.4943	0.014
Mof_C 	C 	0.5328	0.0933	0.5183	-0.109
Mof_H 	H 	0.5234	0.1275	0.4925	0.081
Mof_C 	C 	0.5156	0.1027	0.5551	0.047
Mof_C 	C 	0.5325	0.0552	0.5939	-0.134
Mof_H 	H 	0.523	0.0635	0.6204	0.095
Mof_C 	C 	0.5629	0.9969	0.5919	0.096
Mof_H 	H 	0.5731	0.9617	0.6171	-0.076
Mof_C 	C 	0.4825	0.1654	0.5559	0.094
Mof_C 	C 	0.448	0.2904	0.5317	0.116
Mof_C 	C 	0.4327	0.2088	0.5876	0.106
Mof_C 	C 	0.4038	0.4997	0.4728	0.061
Mof_H 	H 	0.3806	0.535	0.471	0.005
Mof_C 	C 	0.4098	0.4257	0.5011	-0.076
Mof_H 	H 	0.3915	0.4129	0.5195	0.108
Mof_C 	C 	0.4423	0.371	0.5026	0.075
Mof_C 	C 	0.4688	0.3959	0.4773	-0.132
Mof_H 	H 	0.4918	0.3604	0.4783	0.067
Mof_C 	C 	0.4631	0.4698	0.4509	0.061
Mof_H 	H 	0.4823	0.4854	0.4341	-0.012
Mof_C 	C 	0.3965	0.1276	0.6866	0.088
Mof_H 	H 	0.405	0.0896	0.7113	-0.01
Mof_C 	C 	0.4207	0.1401	0.6569	-0.111
Mof_H 	H 	0.4457	0.1114	0.6609	0.098
Mof_C 	C 	0.4076	0.1963	0.6204	0.081
Mof_C 	C 	0.3718	0.2374	0.6167	-0.126
Mof_H 	H 	0.3624	0.2763	0.5926	0.107
Mof_C 	C 	0.3497	0.2223	0.6481	0.095
Mof_H 	H 	0.3252	0.2526	0.6453	-0.017
Mof_N 	N 	0.8786	0.9425	0.8558	-0.281
Mof_N 	N 	0.8207	0.1759	0.7461	-0.139
Mof_N 	N 	0.7668	0.1869	0.6857	-0.139
Mof_N 	N 	0.7794	0.0487	0.7248	-0.145
Mof_N 	N 	0.8163	0.5082	0.7201	-0.288
Mof_N 	N 	0.6679	0.965	0.6056	-0.286
Mof_N 	N 	0.5788	0.9868	0.5569	-0.302
Mof_N 	N 	0.4771	0.2326	0.5262	-0.15
Mof_N 	N 	0.4254	0.2828	0.5606	-0.122
Mof_N 	N 	0.4612	0.1486	0.5867	-0.123
Mof_N 	N 	0.4301	0.5225	0.4478	-0.291
Mof_N 	N 	0.3606	0.1682	0.6817	-0.296
Mof_Zn	Zn	0.91792	0.872	0.90263	0.614
Mof_Zn	Zn	0.6253	0.89722	0.56223	0.76
Mof_Zn	Zn	0.32837	0.14613	0.73023	0.65
Mof_I 	I 	0.88062	0.75614	0.93859	0.118
Mof_I 	I 	0.97679	0.84585	0.86676	-0.396
Mof_I 	I 	0.60666	0.75694	0.60005	2.552
Mof_I 	I 	0.64787	0.89708	0.48967	0.216
Mof_I 	I 	0.37241	0.15958	0.80549	-0.498
Mof_I 	I 	0.26512	0.23637	0.7073	0.167
Mof_Zn	Zn	0.9093	0.877	0.9097	0.636
Mof_Zn	Zn	0.6307	0.9148	0.5498	0.694
Mof_Zn	Zn	0.3177	0.1449	0.7181	0.66
Mof_I 	I 	0.8643	0.7728	0.942	-0.442
Mof_I 	I 	0.9693	0.8313	0.877	0.046
Mof_I 	I 	0.6204	0.7579	0.5768	-3.006
Mof_I 	I 	0.6545	0.9292	0.4777	-0.481
Mof_I 	I 	0.3595	0.1701	0.7944	0.069
Mof_I 	I 	0.2534	0.2236	0.6893	-0.544
Mof_C 	C 	0.6216	0.068	0.4236	0.356
Mof_H 	H 	0.6279	0.0096	0.44	0.034
Mof_Cl	Cl	0.637	0.16	0.4587	-0.288
Mof_Cl	Cl	0.6444	0.0693	0.3782	-0.303
Mof_Cl	Cl	0.5707	0.077	0.4056	-0.338
Mof_C 	C 	0.3888	0.5252	0.846	0.067
Mof_H 	H 	0.4127	0.55	0.8617	-0.052
Mof_C 	C 	0.3654	0.5776	0.8133	-0.1
Mof_H 	H 	0.3713	0.6397	0.8096	0.027
Mof_C 	C 	0.3335	0.5371	0.7865	0.044
Mof_C 	C 	0.324	0.4481	0.7954	-0.112
Mof_H 	H 	0.3023	0.4181	0.7777	0.063
Mof_C 	C 	0.3468	0.4046	0.8305	0.061
Mof_H 	H 	0.3398	0.3447	0.8372	-0.014
Mof_C 	C 	0.3103	0.5897	0.7503	0.104
Mof_C 	C 	0.2604	0.6001	0.6925	0.088
Mof_C 	C 	0.2968	0.7216	0.7143	0.108
Mof_C 	C 	0.2842	0.9741	0.6941	0.067
Mof_H 	H 	0.2653	0.0147	0.6784	-0.003
Mof_C 	C 	0.2777	0.8811	0.6893	-0.097
Mof_H 	H 	0.2552	0.8588	0.6698	0.084
Mof_C 	C 	0.3044	0.8217	0.7132	0.055
Mof_C 	C 	0.3385	0.8559	0.7397	-0.095
Mof_H 	H 	0.3579	0.8163	0.7553	0.057
Mof_C 	C 	0.3431	0.95	0.7425	0.061
Mof_H 	H 	0.366	0.9741	0.7608	-0.017
Mof_C 	C 	0.1856	0.4266	0.6438	0.096
Mof_H 	H 	0.1772	0.3684	0.6515	-0.017
Mof_C 	C 	0.2148	0.4693	0.6712	-0.136
Mof_H 	H 	0.2268	0.4402	0.6977	0.087
Mof_C 	C 	0.2276	0.5542	0.6617	0.057
Mof_C 	C 	0.2089	0.5942	0.6237	-0.114
Mof_H 	H 	0.2161	0.6536	0.6164	0.101
Mof_C 	C 	0.1802	0.5494	0.5966	0.065
Mof_H 	H 	0.168	0.578	0.57	0.005
Mof_C 	C 	0.0638	0.5338	0.5197	0.054
Mof_H 	H 	0.0749	0.5256	0.4943	0.014
Mof_C 	C 	0.0328	0.5933	0.5183	-0.109
Mof_H 	H 	0.0234	0.6275	0.4925	0.081
Mof_C 	C 	0.0156	0.6027	0.5551	0.047
Mof_C 	C 	0.0325	0.5552	0.5939	-0.134
Mof_H 	H 	0.023	0.5635	0.6204	0.095
Mof_C 	C 	0.0629	0.4969	0.5919	0.096
Mof_H 	H 	0.0731	0.4617	0.6171	-0.076
Mof_C 	C 	0.9825	0.6654	0.5559	0.094
Mof_C 	C 	0.948	0.7904	0.5317	0.116
Mof_C 	C 	0.9327	0.7088	0.5876	0.106
Mof_C 	C 	0.9038	0.9997	0.4728	0.061
Mof_H 	H 	0.8806	0.035	0.471	0.005
Mof_C 	C 	0.9098	0.9257	0.5011	-0.076
Mof_H 	H 	0.8915	0.9129	0.5195	0.108
Mof_C 	C 	0.9423	0.871	0.5026	0.075
Mof_C 	C 	0.9688	0.8959	0.4773	-0.132
Mof_H 	H 	0.9918	0.8604	0.4783	0.067
Mof_C 	C 	0.9631	0.9698	0.4509	0.061
Mof_H 	H 	0.9823	0.9854	0.4341	-0.012
Mof_C 	C 	0.8965	0.6276	0.6866	0.088
Mof_H 	H 	0.905	0.5896	0.7113	-0.01
Mof_C 	C 	0.9207	0.6401	0.6569	-0.111
Mof_H 	H 	0.9457	0.6114	0.6609	0.098
Mof_C 	C 	0.9076	0.6963	0.6204	0.081
Mof_C 	C 	0.8718	0.7374	0.6167	-0.126
Mof_H 	H 	0.8624	0.7763	0.5926	0.107
Mof_C 	C 	0.8497	0.7223	0.6481	0.095
Mof_H 	H 	0.8252	0.7526	0.6453	-0.017
Mof_N 	N 	0.3786	0.4425	0.8558	-0.281
Mof_N 	N 	0.3207	0.6759	0.7461	-0.139
Mof_N 	N 	0.2668	0.6869	0.6857	-0.139
Mof_N 	N 	0.2794	0.5487	0.7248	-0.145
Mof_N 	N 	0.3163	0.0082	0.7201	-0.288
Mof_N 	N 	0.1679	0.465	0.6056	-0.286
Mof_N 	N 	0.0788	0.4868	0.5569	-0.302
Mof_N 	N 	0.9771	0.7326	0.5262	-0.15
Mof_N 	N 	0.9254	0.7828	0.5606	-0.122
Mof_N 	N 	0.9612	0.6486	0.5867	-0.123
Mof_N 	N 	0.9301	0.0225	0.4478	-0.292
Mof_N 	N 	0.8606	0.6682	0.6817	-0.296
Mof_Zn	Zn	0.41792	0.372	0.90263	0.614
Mof_Zn	Zn	0.1253	0.39722	0.56223	0.76
Mof_Zn	Zn	0.82837	0.64613	0.73023	0.65
Mof_I 	I 	0.38062	0.25614	0.93859	0.118
Mof_I 	I 	0.47679	0.34585	0.86676	-0.396
Mof_I 	I 	0.10666	0.25694	0.60005	2.552
Mof_I 	I 	0.14787	0.39708	0.48967	0.216
Mof_I 	I 	0.87241	0.65958	0.80549	-0.498
Mof_I 	I 	0.76512	0.73637	0.7073	0.167
Mof_Zn	Zn	0.4093	0.377	0.9097	0.636
Mof_Zn	Zn	0.1307	0.4148	0.5498	0.694
Mof_Zn	Zn	0.8177	0.6449	0.7181	0.66
Mof_I 	I 	0.3643	0.2728	0.942	-0.442
Mof_I 	I 	0.4693	0.3313	0.877	0.046
Mof_I 	I 	0.1204	0.2579	0.5768	-3.007
Mof_I 	I 	0.1545	0.4292	0.4777	-0.481
Mof_I 	I 	0.8595	0.6701	0.7944	0.069
Mof_I 	I 	0.7534	0.7236	0.6893	-0.544
Mof_C 	C 	0.1216	0.568	0.4236	0.356
Mof_H 	H 	0.1279	0.5096	0.44	0.034
Mof_Cl	Cl	0.137	0.66	0.4587	-0.288
Mof_Cl	Cl	0.1444	0.5693	0.3782	-0.303
Mof_Cl	Cl	0.0707	0.577	0.4056	-0.338
Mof_C 	C 	0.8888	0.9748	0.346	0.067
Mof_H 	H 	0.9127	0.95	0.3617	-0.052
Mof_C 	C 	0.8654	0.9224	0.3133	-0.1
Mof_H 	H 	0.8713	0.8603	0.3096	0.027
Mof_C 	C 	0.8335	0.9629	0.2865	0.045
Mof_C 	C 	0.824	0.0519	0.2954	-0.112
Mof_H 	H 	0.8023	0.0819	0.2777	0.063
Mof_C 	C 	0.8468	0.0954	0.3305	0.061
Mof_H 	H 	0.8398	0.1553	0.3372	-0.014
Mof_C 	C 	0.8103	0.9103	0.2503	0.104
Mof_C 	C 	0.7604	0.8999	0.1925	0.088
Mof_C 	C 	0.7968	0.7784	0.2143	0.108
Mof_C 	C 	0.7842	0.5259	0.1941	0.067
Mof_H 	H 	0.7653	0.4853	0.1784	-0.003
Mof_C 	C 	0.7777	0.6189	0.1893	-0.097
Mof_H 	H 	0.7552	0.6412	0.1698	0.084
Mof_C 	C 	0.8044	0.6783	0.2132	0.055
Mof_C 	C 	0.8385	0.6441	0.2397	-0.095
Mof_H 	H 	0.8579	0.6837	0.2553	0.057
Mof_C 	C 	0.8431	0.55	0.2425	0.061
Mof_H 	H 	0.866	0.5259	0.2608	-0.017
Mof_C 	C 	0.6856	0.0734	0.1438	0.096
Mof_H 	H 	0.6772	0.1316	0.1515	-0.017
Mof_C 	C 	0.7148	0.0307	0.1712	-0.137
Mof_H 	H 	0.7268	0.0598	0.1977	0.087
Mof_C 	C 	0.7276	0.9458	0.1617	0.057
Mof_C 	C 	0.7089	0.9058	0.1237	-0.115
Mof_H 	H 	0.7161	0.8464	0.1164	0.101
Mof_C 	C 	0.6802	0.9506	0.0966	0.065
Mof_H 	H 	0.668	0.922	0.07	0.005
Mof_C 	C 	0.5638	0.9662	0.0197	0.054
Mof_H 	H 	0.5749	0.9744	0.9943	0.014
Mof_C 	C 	0.5328	0.9067	0.0183	-0.109
Mof_H 	H 	0.5234	0.8725	0.9925	0.081
Mof_C 	C 	0.5156	0.8973	0.0551	0.047
Mof_C 	C 	0.5325	0.9448	0.0939	-0.134
Mof_H 	H 	0.523	0.9365	0.1204	0.094
Mof_C 	C 	0.5629	0.0031	0.0919	0.095
Mof_H 	H 	0.5731	0.0383	0.1171	-0.076
Mof_C 	C 	0.4825	0.8346	0.0559	0.094
Mof_C 	C 	0.448	0.7096	0.0317	0.116
Mof_C 	C 	0.4327	0.7912	0.0876	0.106
Mof_C 	C 	0.4038	0.5003	0.9728	0.061
Mof_H 	H 	0.3806	0.465	0.971	0.005
Mof_C 	C 	0.4098	0.5743	0.0011	-0.076
Mof_H 	H 	0.3915	0.5871	0.0195	0.108
Mof_C 	C 	0.4423	0.629	0.0026	0.075
Mof_C 	C 	0.4688	0.6041	0.9773	-0.132
Mof_H 	H 	0.4918	0.6396	0.9783	0.067
Mof_C 	C 	0.4631	0.5302	0.9509	0.061
Mof_H 	H 	0.4823	0.5146	0.9341	-0.012
Mof_C 	C 	0.3965	0.8724	0.1866	0.088
Mof_H 	H 	0.405	0.9104	0.2113	-0.01
Mof_C 	C 	0.4207	0.8599	0.1569	-0.111
Mof_H 	H 	0.4457	0.8886	0.1609	0.098
Mof_C 	C 	0.4076	0.8037	0.1204	0.081
Mof_C 	C 	0.3718	0.7626	0.1167	-0.126
Mof_H 	H 	0.3624	0.7237	0.0926	0.107
Mof_C 	C 	0.3497	0.7777	0.1481	0.095
Mof_H 	H 	0.3252	0.7474	0.1453	-0.017
Mof_N 	N 	0.8786	0.0575	0.3558	-0.281
Mof_N 	N 	0.8207	0.8241	0.2461	-0.139
Mof_N 	N 	0.7668	0.8131	0.1857	-0.139
Mof_N 	N 	0.7794	0.9513	0.2248	-0.145
Mof_N 	N 	0.8163	0.4918	0.2201	-0.288
Mof_N 	N 	0.6679	0.035	0.1056	-0.286
Mof_N 	N 	0.5788	0.0132	0.0569	-0.302
Mof_N 	N 	0.4771	0.7674	0.0262	-0.15
Mof_N 	N 	0.4254	0.7172	0.0606	-0.122
Mof_N 	N 	0.4612	0.8514	0.0867	-0.123
Mof_N 	N 	0.4301	0.4775	0.9478	-0.292
Mof_N 	N 	0.3606	0.8318	0.1817	-0.296
Mof_Zn	Zn	0.91792	0.128	0.40263	0.614
Mof_Zn	Zn	0.6253	0.10278	0.06223	0.76
Mof_Zn	Zn	0.32837	0.85387	0.23023	0.65
Mof_I 	I 	0.88062	0.24386	0.43859	0.118
Mof_I 	I 	0.97679	0.15415	0.36676	-0.396
Mof_I 	I 	0.60666	0.24306	0.10005	2.553
Mof_I 	I 	0.64787	0.10292	0.98967	0.217
Mof_I 	I 	0.37241	0.84042	0.30549	-0.498
Mof_I 	I 	0.26512	0.76363	0.2073	0.167
Mof_Zn	Zn	0.9093	0.123	0.4097	0.636
Mof_Zn	Zn	0.6307	0.0852	0.0498	0.694
Mof_Zn	Zn	0.3177	0.8551	0.2181	0.66
Mof_I 	I 	0.8643	0.2272	0.442	-0.442
Mof_I 	I 	0.9693	0.1687	0.377	0.046
Mof_I 	I 	0.6204	0.2421	0.0768	-3.008
Mof_I 	I 	0.6545	0.0708	0.9777	-0.481
Mof_I 	I 	0.3595	0.8299	0.2944	0.069
Mof_I 	I 	0.2534	0.7764	0.1893	-0.544
Mof_C 	C 	0.6216	0.932	0.9236	0.356
Mof_H 	H 	0.6279	0.9904	0.94	0.034
Mof_Cl	Cl	0.637	0.84	0.9587	-0.288
Mof_Cl	Cl	0.6444	0.9307	0.8782	-0.303
Mof_Cl	Cl	0.5707	0.923	0.9056	-0.338
Mof_C 	C 	0.3888	0.4748	0.346	0.067
Mof_H 	H 	0.4127	0.45	0.3617	-0.052
Mof_C 	C 	0.3654	0.4224	0.3133	-0.1
Mof_H 	H 	0.3713	0.3603	0.3096	0.027
Mof_C 	C 	0.3335	0.4629	0.2865	0.044
Mof_C 	C 	0.324	0.5519	0.2954	-0.112
Mof_H 	H 	0.3023	0.5819	0.2777	0.063
Mof_C 	C 	0.3468	0.5954	0.3305	0.061
Mof_H 	H 	0.3398	0.6553	0.3372	-0.014
Mof_C 	C 	0.3103	0.4103	0.2503	0.104
Mof_C 	C 	0.2604	0.3999	0.1925	0.088
Mof_C 	C 	0.2968	0.2784	0.2143	0.108
Mof_C 	C 	0.2842	0.0259	0.1941	0.067
Mof_H 	H 	0.2653	0.9853	0.1784	-0.003
Mof_C 	C 	0.2777	0.1189	0.1893	-0.097
Mof_H 	H 	0.2552	0.1412	0.1698	0.084
Mof_C 	C 	0.3044	0.1783	0.2132	0.055
Mof_C 	C 	0.3385	0.1441	0.2397	-0.095
Mof_H 	H 	0.3579	0.1837	0.2553	0.057
Mof_C 	C 	0.3431	0.05	0.2425	0.061
Mof_H 	H 	0.366	0.0259	0.2608	-0.017
Mof_C 	C 	0.1856	0.5734	0.1438	0.096
Mof_H 	H 	0.1772	0.6316	0.1515	-0.017
Mof_C 	C 	0.2148	0.5307	0.1712	-0.136
Mof_H 	H 	0.2268	0.5598	0.1977	0.087
Mof_C 	C 	0.2276	0.4458	0.1617	0.057
Mof_C 	C 	0.2089	0.4058	0.1237	-0.114
Mof_H 	H 	0.2161	0.3464	0.1164	0.101
Mof_C 	C 	0.1802	0.4506	0.0966	0.065
Mof_H 	H 	0.168	0.422	0.07	0.005
Mof_C 	C 	0.0638	0.4662	0.0197	0.054
Mof_H 	H 	0.0749	0.4744	0.9943	0.014
Mof_C 	C 	0.0328	0.4067	0.0183	-0.109
Mof_H 	H 	0.0234	0.3725	0.9925	0.081
Mof_C 	C 	0.0156	0.3973	0.0551	0.047
Mof_C 	C 	0.0325	0.4448	0.0939	-0.134
Mof_H 	H 	0.023	0.4365	0.1204	0.095
Mof_C 	C 	0.0629	0.5031	0.0919	0.096
Mof_H 	H 	0.0731	0.5383	0.1171	-0.076
Mof_C 	C 	0.9825	0.3346	0.0559	0.094
Mof_C 	C 	0.948	0.2096	0.0317	0.116
Mof_C 	C 	0.9327	0.2912	0.0876	0.106
Mof_C 	C 	0.9038	0.0003	0.9728	0.062
Mof_H 	H 	0.8806	0.965	0.971	0.005
Mof_C 	C 	0.9098	0.0743	0.0011	-0.076
Mof_H 	H 	0.8915	0.0871	0.0195	0.109
Mof_C 	C 	0.9423	0.129	0.0026	0.075
Mof_C 	C 	0.9688	0.1041	0.9773	-0.132
Mof_H 	H 	0.9918	0.1396	0.9783	0.067
Mof_C 	C 	0.9631	0.0302	0.9509	0.061
Mof_H 	H 	0.9823	0.0146	0.9341	-0.012
Mof_C 	C 	0.8965	0.3724	0.1866	0.088
Mof_H 	H 	0.905	0.4104	0.2113	-0.01
Mof_C 	C 	0.9207	0.3599	0.1569	-0.111
Mof_H 	H 	0.9457	0.3886	0.1609	0.098
Mof_C 	C 	0.9076	0.3037	0.1204	0.081
Mof_C 	C 	0.8718	0.2626	0.1167	-0.126
Mof_H 	H 	0.8624	0.2237	0.0926	0.107
Mof_C 	C 	0.8497	0.2777	0.1481	0.095
Mof_H 	H 	0.8252	0.2474	0.1453	-0.017
Mof_N 	N 	0.3786	0.5575	0.3558	-0.281
Mof_N 	N 	0.3207	0.3241	0.2461	-0.139
Mof_N 	N 	0.2668	0.3131	0.1857	-0.139
Mof_N 	N 	0.2794	0.4513	0.2248	-0.145
Mof_N 	N 	0.3163	0.9918	0.2201	-0.287
Mof_N 	N 	0.1679	0.535	0.1056	-0.286
Mof_N 	N 	0.0788	0.5132	0.0569	-0.302
Mof_N 	N 	0.9771	0.2674	0.0262	-0.15
Mof_N 	N 	0.9254	0.2172	0.0606	-0.122
Mof_N 	N 	0.9612	0.3514	0.0867	-0.123
Mof_N 	N 	0.9301	0.9775	0.9478	-0.292
Mof_N 	N 	0.8606	0.3318	0.1817	-0.296
Mof_Zn	Zn	0.41792	0.628	0.40263	0.614
Mof_Zn	Zn	0.1253	0.60278	0.06223	0.76
Mof_Zn	Zn	0.82837	0.35387	0.23023	0.65
Mof_I 	I 	0.38062	0.74386	0.43859	0.118
Mof_I 	I 	0.47679	0.65415	0.36676	-0.396
Mof_I 	I 	0.10666	0.74306	0.10005	2.552
Mof_I 	I 	0.14787	0.60292	0.98967	0.217
Mof_I 	I 	0.87241	0.34042	0.30549	-0.498
Mof_I 	I 	0.76512	0.26363	0.2073	0.167
Mof_Zn	Zn	0.4093	0.623	0.4097	0.636
Mof_Zn	Zn	0.1307	0.5852	0.0498	0.694
Mof_Zn	Zn	0.8177	0.3551	0.2181	0.66
Mof_I 	I 	0.3643	0.7272	0.442	-0.442
Mof_I 	I 	0.4693	0.6687	0.377	0.046
Mof_I 	I 	0.1204	0.7421	0.0768	-3.007
Mof_I 	I 	0.1545	0.5708	0.9777	-0.481
Mof_I 	I 	0.8595	0.3299	0.2944	0.069
Mof_I 	I 	0.7534	0.2764	0.1893	-0.544
Mof_C 	C 	0.1216	0.432	0.9236	0.356
Mof_H 	H 	0.1279	0.4904	0.94	0.034
Mof_Cl	Cl	0.137	0.34	0.9587	-0.288
Mof_Cl	Cl	0.1444	0.4307	0.8782	-0.303
Mof_Cl	Cl	0.0707	0.423	0.9056	-0.338
Mof_C 	C 	0.1112	0.0252	0.654	0.067
Mof_H 	H 	0.0873	0.05	0.6383	-0.052
Mof_C 	C 	0.1346	0.0776	0.6867	-0.1
Mof_H 	H 	0.1287	0.1397	0.6904	0.027
Mof_C 	C 	0.1665	0.0371	0.7135	0.045
Mof_C 	C 	0.176	0.9481	0.7046	-0.112
Mof_H 	H 	0.1977	0.9181	0.7223	0.063
Mof_C 	C 	0.1532	0.9046	0.6695	0.061
Mof_H 	H 	0.1602	0.8447	0.6628	-0.014
Mof_C 	C 	0.1897	0.0897	0.7497	0.104
Mof_C 	C 	0.2396	0.1001	0.8075	0.088
Mof_C 	C 	0.2032	0.2216	0.7857	0.108
Mof_C 	C 	0.2158	0.4741	0.8059	0.067
Mof_H 	H 	0.2347	0.5147	0.8216	-0.003
Mof_C 	C 	0.2223	0.3811	0.8107	-0.097
Mof_H 	H 	0.2448	0.3588	0.8302	0.084
Mof_C 	C 	0.1956	0.3217	0.7868	0.055
Mof_C 	C 	0.1615	0.3559	0.7603	-0.095
Mof_H 	H 	0.1421	0.3163	0.7447	0.057
Mof_C 	C 	0.1569	0.45	0.7575	0.061
Mof_H 	H 	0.134	0.4741	0.7392	-0.017
Mof_C 	C 	0.3144	0.9266	0.8562	0.096
Mof_H 	H 	0.3228	0.8684	0.8485	-0.017
Mof_C 	C 	0.2852	0.9693	0.8288	-0.137
Mof_H 	H 	0.2732	0.9402	0.8023	0.087
Mof_C 	C 	0.2724	0.0542	0.8383	0.057
Mof_C 	C 	0.2911	0.0942	0.8763	-0.115
Mof_H 	H 	0.2839	0.1536	0.8836	0.101
Mof_C 	C 	0.3198	0.0494	0.9034	0.065
Mof_H 	H 	0.332	0.078	0.93	0.005
Mof_C 	C 	0.4362	0.0338	0.9803	0.054
Mof_H 	H 	0.4251	0.0256	0.0057	0.014
Mof_C 	C 	0.4672	0.0933	0.9817	-0.109
Mof_H 	H 	0.4766	0.1275	0.0075	0.081
Mof_C 	C 	0.4844	0.1027	0.9449	0.047
Mof_C 	C 	0.4675	0.0552	0.9061	-0.134
Mof_H 	H 	0.477	0.0635	0.8796	0.094
Mof_C 	C 	0.4371	0.9969	0.9081	0.095
Mof_H 	H 	0.4269	0.9617	0.8829	-0.076
Mof_C 	C 	0.5175	0.1654	0.9441	0.094
Mof_C 	C 	0.552	0.2904	0.9683	0.116
Mof_C 	C 	0.5673	0.2088	0.9124	0.106
Mof_C 	C 	0.5962	0.4997	0.0272	0.061
Mof_H 	H 	0.6194	0.535	0.029	0.005
Mof_C 	C 	0.5902	0.4257	0.9989	-0.076
Mof_H 	H 	0.6085	0.4129	0.9805	0.108
Mof_C 	C 	0.5577	0.371	0.9974	0.075
Mof_C 	C 	0.5312	0.3959	0.0227	-0.132
Mof_H 	H 	0.5082	0.3604	0.0217	0.067
Mof_C 	C 	0.5369	0.4698	0.0491	0.061
Mof_H 	H 	0.5177	0.4854	0.0659	-0.012
Mof_C 	C 	0.6035	0.1276	0.8134	0.088
Mof_H 	H 	0.595	0.0896	0.7887	-0.01
Mof_C 	C 	0.5793	0.1401	0.8431	-0.111
Mof_H 	H 	0.5543	0.1114	0.8391	0.098
Mof_C 	C 	0.5924	0.1963	0.8796	0.081
Mof_C 	C 	0.6282	0.2374	0.8833	-0.126
Mof_H 	H 	0.6376	0.2763	0.9074	0.107
Mof_C 	C 	0.6503	0.2223	0.8519	0.095
Mof_H 	H 	0.6748	0.2526	0.8547	-0.017
Mof_N 	N 	0.1214	0.9425	0.6442	-0.281
Mof_N 	N 	0.1793	0.1759	0.7539	-0.139
Mof_N 	N 	0.2332	0.1869	0.8143	-0.139
Mof_N 	N 	0.2206	0.0487	0.7752	-0.145
Mof_N 	N 	0.1837	0.5082	0.7799	-0.288
Mof_N 	N 	0.3321	0.965	0.8944	-0.286
Mof_N 	N 	0.4212	0.9868	0.9431	-0.302
Mof_N 	N 	0.5229	0.2326	0.9738	-0.15
Mof_N 	N 	0.5746	0.2828	0.9394	-0.122
Mof_N 	N 	0.5388	0.1486	0.9133	-0.123
Mof_N 	N 	0.5699	0.5225	0.0522	-0.292
Mof_N 	N 	0.6394	0.1682	0.8183	-0.296
Mof_Zn	Zn	0.08208	0.872	0.59737	0.614
Mof_Zn	Zn	0.3747	0.89722	0.93777	0.76
Mof_Zn	Zn	0.67163	0.14613	0.76977	0.65
Mof_I 	I 	0.11938	0.75614	0.56141	0.118
Mof_I 	I 	0.02321	0.84585	0.63324	-0.396
Mof_I 	I 	0.39334	0.75694	0.89995	2.553
Mof_I 	I 	0.35213	0.89708	0.01033	0.217
Mof_I 	I 	0.62759	0.15958	0.69451	-0.498
Mof_I 	I 	0.73488	0.23637	0.7927	0.167
Mof_Zn	Zn	0.0907	0.877	0.5903	0.636
Mof_Zn	Zn	0.3693	0.9148	0.9502	0.694
Mof_Zn	Zn	0.6823	0.1449	0.7819	0.66
Mof_I 	I 	0.1357	0.7728	0.558	-0.442
Mof_I 	I 	0.0307	0.8313	0.623	0.046
Mof_I 	I 	0.3796	0.7579	0.9232	-3.008
Mof_I 	I 	0.3455	0.9292	0.0223	-0.481
Mof_I 	I 	0.6405	0.1701	0.7056	0.069
Mof_I 	I 	0.7466	0.2236	0.8107	-0.544
Mof_C 	C 	0.3784	0.068	0.0764	0.356
Mof_H 	H 	0.3721	0.0096	0.06	0.034
Mof_Cl	Cl	0.363	0.16	0.0413	-0.288
Mof_Cl	Cl	0.3556	0.0693	0.1218	-0.303
Mof_Cl	Cl	0.4293	0.077	0.0944	-0.338
Mof_C 	C 	0.6112	0.5252	0.654	0.067
Mof_H 	H 	0.5873	0.55	0.6383	-0.052
Mof_C 	C 	0.6346	0.5776	0.6867	-0.1
Mof_H 	H 	0.6287	0.6397	0.6904	0.027
Mof_C 	C 	0.6665	0.5371	0.7135	0.044
Mof_C 	C 	0.676	0.4481	0.7046	-0.112
Mof_H 	H 	0.6977	0.4181	0.7223	0.063
Mof_C 	C 	0.6532	0.4046	0.6695	0.061
Mof_H 	H 	0.6602	0.3447	0.6628	-0.014
Mof_C 	C 	0.6897	0.5897	0.7497	0.104
Mof_C 	C 	0.7396	0.6001	0.8075	0.088
Mof_C 	C 	0.7032	0.7216	0.7857	0.108
Mof_C 	C 	0.7158	0.9741	0.8059	0.067
Mof_H 	H 	0.7347	0.0147	0.8216	-0.003
Mof_C 	C 	0.7223	0.8811	0.8107	-0.097
Mof_H 	H 	0.7448	0.8588	0.8302	0.084
Mof_C 	C 	0.6956	0.8217	0.7868	0.055
Mof_C 	C 	0.6615	0.8559	0.7603	-0.095
Mof_H 	H 	0.6421	0.8163	0.7447	0.057
Mof_C 	C 	0.6569	0.95	0.7575	0.061
Mof_H 	H 	0.634	0.9741	0.7392	-0.017
Mof_C 	C 	0.8144	0.4266	0.8562	0.096
Mof_H 	H 	0.8228	0.3684	0.8485	-0.017
Mof_C 	C 	0.7852	0.4693	0.8288	-0.136
Mof_H 	H 	0.7732	0.4402	0.8023	0.087
Mof_C 	C 	0.7724	0.5542	0.8383	0.057
Mof_C 	C 	0.7911	0.5942	0.8763	-0.114
Mof_H 	H 	0.7839	0.6536	0.8836	0.101
Mof_C 	C 	0.8198	0.5494	0.9034	0.065
Mof_H 	H 	0.832	0.578	0.93	0.005
Mof_C 	C 	0.9362	0.5338	0.9803	0.054
Mof_H 	H 	0.9251	0.5256	0.0057	0.014
Mof_C 	C 	0.9672	0.5933	0.9817	-0.109
Mof_H 	H 	0.9766	0.6275	0.0075	0.081
Mof_C 	C 	0.9844	0.6027	0.9449	0.047
Mof_C 	C 	0.9675	0.5552	0.9061	-0.134
Mof_H 	H 	0.977	0.5635	0.8796	0.095
Mof_C 	C 	0.9371	0.4969	0.9081	0.096
Mof_H 	H 	0.9269	0.4617	0.8829	-0.076
Mof_C 	C 	0.0175	0.6654	0.9441	0.094
Mof_C 	C 	0.052	0.7904	0.9683	0.116
Mof_C 	C 	0.0673	0.7088	0.9124	0.106
Mof_C 	C 	0.0962	0.9997	0.0272	0.062
Mof_H 	H 	0.1194	0.035	0.029	0.005
Mof_C 	C 	0.0902	0.9257	0.9989	-0.076
Mof_H 	H 	0.1085	0.9129	0.9805	0.109
Mof_C 	C 	0.0577	0.871	0.9974	0.075
Mof_C 	C 	0.0312	0.8959	0.0227	-0.132
Mof_H 	H 	0.0082	0.8604	0.0217	0.067
Mof_C 	C 	0.0369	0.9698	0.0491	0.061
Mof_H 	H 	0.0177	0.9854	0.0659	-0.012
Mof_C 	C 	0.1035	0.6276	0.8134	0.088
Mof_H 	H 	0.095	0.5896	0.7887	-0.01
Mof_C 	C 	0.0793	0.6401	0.8431	-0.111
Mof_H 	H 	0.0543	0.6114	0.8391	0.098
Mof_C 	C 	0.0924	0.6963	0.8796	0.081
Mof_C 	C 	0.1282	0.7374	0.8833	-0.126
Mof_H 	H 	0.1376	0.7763	0.9074	0.107
Mof_C 	C 	0.1503	0.7223	0.8519	0.095
Mof_H 	H 	0.1748	0.7526	0.8547	-0.017
Mof_N 	N 	0.6214	0.4425	0.6442	-0.281
Mof_N 	N 	0.6793	0.6759	0.7539	-0.139
Mof_N 	N 	0.7332	0.6869	0.8143	-0.139
Mof_N 	N 	0.7206	0.5487	0.7752	-0.145
Mof_N 	N 	0.6837	0.0082	0.7799	-0.287
Mof_N 	N 	0.8321	0.465	0.8944	-0.286
Mof_N 	N 	0.9212	0.4868	0.9431	-0.302
Mof_N 	N 	0.0229	0.7326	0.9738	-0.15
Mof_N 	N 	0.0746	0.7828	0.9394	-0.122
Mof_N 	N 	0.0388	0.6486	0.9133	-0.123
Mof_N 	N 	0.0699	0.0225	0.0522	-0.292
Mof_N 	N 	0.1394	0.6682	0.8183	-0.296
Mof_Zn	Zn	0.58208	0.372	0.59737	0.614
Mof_Zn	Zn	0.8747	0.39722	0.93777	0.76
Mof_Zn	Zn	0.17163	0.64613	0.76977	0.65
Mof_I 	I 	0.61938	0.25614	0.56141	0.118
Mof_I 	I 	0.52321	0.34585	0.63324	-0.396
Mof_I 	I 	0.89334	0.25694	0.89995	2.552
Mof_I 	I 	0.85213	0.39708	0.01033	0.217
Mof_I 	I 	0.12759	0.65958	0.69451	-0.498
Mof_I 	I 	0.23488	0.73637	0.7927	0.167
Mof_Zn	Zn	0.5907	0.377	0.5903	0.636
Mof_Zn	Zn	0.8693	0.4148	0.9502	0.694
Mof_Zn	Zn	0.1823	0.6449	0.7819	0.66
Mof_I 	I 	0.6357	0.2728	0.558	-0.442
Mof_I 	I 	0.5307	0.3313	0.623	0.046
Mof_I 	I 	0.8796	0.2579	0.9232	-3.007
Mof_I 	I 	0.8455	0.4292	0.0223	-0.481
Mof_I 	I 	0.1405	0.6701	0.7056	0.069
Mof_I 	I 	0.2466	0.7236	0.8107	-0.544
Mof_C 	C 	0.8784	0.568	0.0764	0.356
Mof_H 	H 	0.8721	0.5096	0.06	0.034
Mof_Cl	Cl	0.863	0.66	0.0413	-0.288
Mof_Cl	Cl	0.8556	0.5693	0.1218	-0.303
Mof_Cl	Cl	0.9293	0.577	0.0944	-0.338
Mof_C 	C 	0.1112	0.9748	0.154	0.067
Mof_H 	H 	0.0873	0.95	0.1383	-0.052
Mof_C 	C 	0.1346	0.9224	0.1867	-0.1
Mof_H 	H 	0.1287	0.8603	0.1904	0.027
Mof_C 	C 	0.1665	0.9629	0.2135	0.045
Mof_C 	C 	0.176	0.0519	0.2046	-0.112
Mof_H 	H 	0.1977	0.0819	0.2223	0.063
Mof_C 	C 	0.1532	0.0954	0.1695	0.061
Mof_H 	H 	0.1602	0.1553	0.1628	-0.014
Mof_C 	C 	0.1897	0.9103	0.2497	0.104
Mof_C 	C 	0.2396	0.8999	0.3075	0.088
Mof_C 	C 	0.2032	0.7784	0.2857	0.108
Mof_C 	C 	0.2158	0.5259	0.3059	0.067
Mof_H 	H 	0.2347	0.4853	0.3216	-0.003
Mof_C 	C 	0.2223	0.6189	0.3107	-0.097
Mof_H 	H 	0.2448	0.6412	0.3302	0.084
Mof_C 	C 	0.1956	0.6783	0.2868	0.055
Mof_C 	C 	0.1615	0.6441	0.2603	-0.095
Mof_H 	H 	0.1421	0.6837	0.2447	0.057
Mof_C 	C 	0.1569	0.55	0.2575	0.061
Mof_H 	H 	0.134	0.5259	0.2392	-0.017
Mof_C 	C 	0.3144	0.0734	0.3562	0.096
Mof_H 	H 	0.3228	0.1316	0.3485	-0.017
Mof_C 	C 	0.2852	0.0307	0.3288	-0.136
Mof_H 	H 	0.2732	0.0598	0.3023	0.087
Mof_C 	C 	0.2724	0.9458	0.3383	0.057
Mof_C 	C 	0.2911	0.9058	0.3763	-0.115
Mof_H 	H 	0.2839	0.8464	0.3836	0.101
Mof_C 	C 	0.3198	0.9506	0.4034	0.065
Mof_H 	H 	0.332	0.922	0.43	0.005
Mof_C 	C 	0.4362	0.9662	0.4803	0.054
Mof_H 	H 	0.4251	0.9744	0.5057	0.014
Mof_C 	C 	0.4672	0.9067	0.4817	-0.109
Mof_H 	H 	0.4766	0.8725	0.5075	0.081
Mof_C 	C 	0.4844	0.8973	0.4449	0.047
Mof_C 	C 	0.4675	0.9448	0.4061	-0.134
Mof_H 	H 	0.477	0.9365	0.3796	0.095
Mof_C 	C 	0.4371	0.0031	0.4081	0.096
Mof_H 	H 	0.4269	0.0383	0.3829	-0.076
Mof_C 	C 	0.5175	0.8346	0.4441	0.094
Mof_C 	C 	0.552	0.7096	0.4683	0.116
Mof_C 	C 	0.5673	0.7912	0.4124	0.106
Mof_C 	C 	0.5962	0.5003	0.5272	0.061
Mof_H 	H 	0.6194	0.465	0.529	0.005
Mof_C 	C 	0.5902	0.5743	0.4989	-0.076
Mof_H 	H 	0.6085	0.5871	0.4805	0.108
Mof_C 	C 	0.5577	0.629	0.4974	0.075
Mof_C 	C 	0.5312	0.6041	0.5227	-0.132
Mof_H 	H 	0.5082	0.6396	0.5217	0.067
Mof_C 	C 	0.5369	0.5302	0.5491	0.061
Mof_H 	H 	0.5177	0.5146	0.5659	-0.012
Mof_C 	C 	0.6035	0.8724	0.3134	0.088
Mof_H 	H 	0.595	0.9104	0.2887	-0.01
Mof_C 	C 	0.5793	0.8599	0.3431	-0.111
Mof_H 	H 	0.5543	0.8886	0.3391	0.098
Mof_C 	C 	0.5924	0.8037	0.3796	0.081
Mof_C 	C 	0.6282	0.7626	0.3833	-0.126
Mof_H 	H 	0.6376	0.7237	0.4074	0.107
Mof_C 	C 	0.6503	0.7777	0.3519	0.095
Mof_H 	H 	0.6748	0.7474	0.3547	-0.017
Mof_N 	N 	0.1214	0.0575	0.1442	-0.281
Mof_N 	N 	0.1793	0.8241	0.2539	-0.139
Mof_N 	N 	0.2332	0.8131	0.3143	-0.139
Mof_N 	N 	0.2206	0.9513	0.2752	-0.145
Mof_N 	N 	0.1837	0.4918	0.2799	-0.288
Mof_N 	N 	0.3321	0.035	0.3944	-0.286
Mof_N 	N 	0.4212	0.0132	0.4431	-0.302
Mof_N 	N 	0.5229	0.7674	0.4738	-0.15
Mof_N 	N 	0.5746	0.7172	0.4394	-0.122
Mof_N 	N 	0.5388	0.8514	0.4133	-0.123
Mof_N 	N 	0.5699	0.4775	0.5522	-0.291
Mof_N 	N 	0.6394	0.8318	0.3183	-0.296
Mof_Zn	Zn	0.08208	0.128	0.09737	0.614
Mof_Zn	Zn	0.3747	0.10278	0.43777	0.76
Mof_Zn	Zn	0.67163	0.85387	0.26977	0.65
Mof_I 	I 	0.11938	0.24386	0.06141	0.118
Mof_I 	I 	0.02321	0.15415	0.13324	-0.396
Mof_I 	I 	0.39334	0.24306	0.39995	2.552
Mof_I 	I 	0.35213	0.10292	0.51033	0.216
Mof_I 	I 	0.62759	0.84042	0.19451	-0.498
Mof_I 	I 	0.73488	0.76363	0.2927	0.167
Mof_Zn	Zn	0.0907	0.123	0.0903	0.636
Mof_Zn	Zn	0.3693	0.0852	0.4502	0.694
Mof_Zn	Zn	0.6823	0.8551	0.2819	0.66
Mof_I 	I 	0.1357	0.2272	0.058	-0.442
Mof_I 	I 	0.0307	0.1687	0.123	0.046
Mof_I 	I 	0.3796	0.2421	0.4232	-3.006
Mof_I 	I 	0.3455	0.0708	0.5223	-0.481
Mof_I 	I 	0.6405	0.8299	0.2056	0.069
Mof_I 	I 	0.7466	0.7764	0.3107	-0.544
Mof_C 	C 	0.3784	0.932	0.5764	0.356
Mof_H 	H 	0.3721	0.9904	0.56	0.034
Mof_Cl	Cl	0.363	0.84	0.5413	-0.288
Mof_Cl	Cl	0.3556	0.9307	0.6218	-0.303
Mof_Cl	Cl	0.4293	0.923	0.5944	-0.338
Mof_C 	C 	0.6112	0.4748	0.154	0.067
Mof_H 	H 	0.5873	0.45	0.1383	-0.052
Mof_C 	C 	0.6346	0.4224	0.1867	-0.1
Mof_H 	H 	0.6287	0.3603	0.1904	0.027
Mof_C 	C 	0.6665	0.4629	0.2135	0.044
Mof_C 	C 	0.676	0.5519	0.2046	-0.112
Mof_H 	H 	0.6977	0.5819	0.2223	0.063
Mof_C 	C 	0.6532	0.5954	0.1695	0.061
Mof_H 	H 	0.6602	0.6553	0.1628	-0.014
Mof_C 	C 	0.6897	0.4103	0.2497	0.104
Mof_C 	C 	0.7396	0.3999	0.3075	0.088
Mof_C 	C 	0.7032	0.2784	0.2857	0.108
Mof_C 	C 	0.7158	0.0259	0.3059	0.067
Mof_H 	H 	0.7347	0.9853	0.3216	-0.003
Mof_C 	C 	0.7223	0.1189	0.3107	-0.097
Mof_H 	H 	0.7448	0.1412	0.3302	0.084
Mof_C 	C 	0.6956	0.1783	0.2868	0.055
Mof_C 	C 	0.6615	0.1441	0.2603	-0.095
Mof_H 	H 	0.6421	0.1837	0.2447	0.057
Mof_C 	C 	0.6569	0.05	0.2575	0.061
Mof_H 	H 	0.634	0.0259	0.2392	-0.017
Mof_C 	C 	0.8144	0.5734	0.3562	0.096
Mof_H 	H 	0.8228	0.6316	0.3485	-0.017
Mof_C 	C 	0.7852	0.5307	0.3288	-0.136
Mof_H 	H 	0.7732	0.5598	0.3023	0.087
Mof_C 	C 	0.7724	0.4458	0.3383	0.057
Mof_C 	C 	0.7911	0.4058	0.3763	-0.114
Mof_H 	H 	0.7839	0.3464	0.3836	0.101
Mof_C 	C 	0.8198	0.4506	0.4034	0.065
Mof_H 	H 	0.832	0.422	0.43	0.005
Mof_C 	C 	0.9362	0.4662	0.4803	0.054
Mof_H 	H 	0.9251	0.4744	0.5057	0.014
Mof_C 	C 	0.9672	0.4067	0.4817	-0.109
Mof_H 	H 	0.9766	0.3725	0.5075	0.081
Mof_C 	C 	0.9844	0.3973	0.4449	0.047
Mof_C 	C 	0.9675	0.4448	0.4061	-0.134
Mof_H 	H 	0.977	0.4365	0.3796	0.095
Mof_C 	C 	0.9371	0.5031	0.4081	0.096
Mof_H 	H 	0.9269	0.5383	0.3829	-0.076
Mof_C 	C 	0.0175	0.3346	0.4441	0.094
Mof_C 	C 	0.052	0.2096	0.4683	0.116
Mof_C 	C 	0.0673	0.2912	0.4124	0.106
Mof_C 	C 	0.0962	0.0003	0.5272	0.061
Mof_H 	H 	0.1194	0.965	0.529	0.005
Mof_C 	C 	0.0902	0.0743	0.4989	-0.076
Mof_H 	H 	0.1085	0.0871	0.4805	0.108
Mof_C 	C 	0.0577	0.129	0.4974	0.075
Mof_C 	C 	0.0312	0.1041	0.5227	-0.132
Mof_H 	H 	0.0082	0.1396	0.5217	0.067
Mof_C 	C 	0.0369	0.0302	0.5491	0.061
Mof_H 	H 	0.0177	0.0146	0.5659	-0.012
Mof_C 	C 	0.1035	0.3724	0.3134	0.088
Mof_H 	H 	0.095	0.4104	0.2887	-0.01
Mof_C 	C 	0.0793	0.3599	0.3431	-0.111
Mof_H 	H 	0.0543	0.3886	0.3391	0.098
Mof_C 	C 	0.0924	0.3037	0.3796	0.081
Mof_C 	C 	0.1282	0.2626	0.3833	-0.126
Mof_H 	H 	0.1376	0.2237	0.4074	0.107
Mof_C 	C 	0.1503	0.2777	0.3519	0.095
Mof_H 	H 	0.1748	0.2474	0.3547	-0.017
Mof_N 	N 	0.6214	0.5575	0.1442	-0.281
Mof_N 	N 	0.6793	0.3241	0.2539	-0.139
Mof_N 	N 	0.7332	0.3131	0.3143	-0.139
Mof_N 	N 	0.7206	0.4513	0.2752	-0.145
Mof_N 	N 	0.6837	0.9918	0.2799	-0.288
Mof_N 	N 	0.8321	0.535	0.3944	-0.286
Mof_N 	N 	0.9212	0.5132	0.4431	-0.302
Mof_N 	N 	0.0229	0.2674	0.4738	-0.15
Mof_N 	N 	0.0746	0.2172	0.4394	-0.122
Mof_N 	N 	0.0388	0.3514	0.4133	-0.123
Mof_N 	N 	0.0699	0.9775	0.5522	-0.292
Mof_N 	N 	0.1394	0.3318	0.3183	-0.296
Mof_Zn	Zn	0.58208	0.628	0.09737	0.614
Mof_Zn	Zn	0.8747	0.60278	0.43777	0.76
Mof_Zn	Zn	0.17163	0.35387	0.26977	0.65
Mof_I 	I 	0.61938	0.74386	0.06141	0.118
Mof_I 	I 	0.52321	0.65415	0.13324	-0.396
Mof_I 	I 	0.89334	0.74306	0.39995	2.552
Mof_I 	I 	0.85213	0.60292	0.51033	0.216
Mof_I 	I 	0.12759	0.34042	0.19451	-0.498
Mof_I 	I 	0.23488	0.26363	0.2927	0.167
Mof_Zn	Zn	0.5907	0.623	0.0903	0.636
Mof_Zn	Zn	0.8693	0.5852	0.4502	0.694
Mof_Zn	Zn	0.1823	0.3551	0.2819	0.66
Mof_I 	I 	0.6357	0.7272	0.058	-0.442
Mof_I 	I 	0.5307	0.6687	0.123	0.046
Mof_I 	I 	0.8796	0.7421	0.4232	-3.007
Mof_I 	I 	0.8455	0.5708	0.5223	-0.481
Mof_I 	I 	0.1405	0.3299	0.2056	0.069
Mof_I 	I 	0.2466	0.2764	0.3107	-0.544
Mof_C 	C 	0.8784	0.432	0.5764	0.356
Mof_H 	H 	0.8721	0.4904	0.56	0.034
Mof_Cl	Cl	0.863	0.34	0.5413	-0.288
Mof_Cl	Cl	0.8556	0.4307	0.6218	-0.303
Mof_Cl	Cl	0.9293	0.423	0.5944	-0.338
_end
