data_functionalizedCrystal
_audit_creation_method	'EQeq! by Chris Wilmer'
_symmetry_space_group_name_H-M	'P1'
_symmetry_Int_Tables_number	1
_symmetry_cell_setting	triclinic
loop_
_symmetry_equiv_pos_as_xyz
  x,y,z
_cell_length_a	18.1836
_cell_length_b	10.0126
_cell_length_c	20.0589
_cell_angle_alpha	90
_cell_angle_beta	106.08
_cell_angle_gamma	90
loop_
_atom_site_label
_atom_site_type_symbol
_atom_site_fract_x
_atom_site_fract_y
_atom_site_fract_z
_atom_site_charge
Mof_Fe	Fe	0.1874	0.5777	0.1612	1.198
Mof_Fe	Fe	0.3107	0.315	0.24	1.205
Mof_Fe	Fe	0.4243	0.4293	0.9978	1.198
Mof_P 	P 	0.079	0.8273	0.1069	0.599
Mof_P 	P 	0.1413	0.2708	0.132	0.57
Mof_P 	P 	0.3337	0.484	0.1146	0.569
Mof_O 	O 	0.2518	0.5373	0.101	-0.336
Mof_O 	O 	0.1099	0.6863	0.0997	-0.318
Mof_O 	O 	0.1232	0.4184	0.1388	-0.32
Mof_O 	O 	0.2632	0.4871	0.2389	-0.341
Mof_F 	F 	0.1453	0.6325	0.2412	-0.515
Mof_F 	F 	0.2436	0.7516	0.1908	-0.524
Mof_O 	O 	0.3551	0.3667	0.1659	-0.329
Mof_O 	O 	0.2241	0.2383	0.1681	-0.326
Mof_O 	O 	0.0968	0.8669	0.1843	-0.298
Mof_O 	O 	0.3455	0.4475	0.0454	-0.328
Mof_O 	O 	0.1169	0.9306	0.0708	-0.314
Mof_O 	O 	0.1209	0.2284	0.056	-0.321
Mof_F 	F 	0.4899	0.5804	0.0481	-0.531
Mof_O 	O 	0.991	0.8196	0.0748	-0.285
Mof_O 	O 	0.0879	0.195	0.1697	-0.124
Mof_O 	O 	0.3885	0.6028	0.1481	-0.126
Mof_Fe	Fe	0.6874	0.0777	0.1612	1.196
Mof_Fe	Fe	0.8107	0.815	0.24	1.204
Mof_Fe	Fe	0.9243	0.9293	0.9978	1.184
Mof_P 	P 	0.579	0.3273	0.1069	0.603
Mof_P 	P 	0.6413	0.7708	0.132	0.571
Mof_P 	P 	0.8337	0.984	0.1146	0.571
Mof_O 	O 	0.7518	0.0373	0.101	-0.337
Mof_O 	O 	0.6099	0.1863	0.0997	-0.318
Mof_O 	O 	0.6232	0.9184	0.1388	-0.318
Mof_O 	O 	0.7632	0.9871	0.2389	-0.34
Mof_F 	F 	0.6453	0.1325	0.2412	-0.515
Mof_F 	F 	0.7436	0.2516	0.1908	-0.524
Mof_O 	O 	0.8551	0.8667	0.1659	-0.328
Mof_O 	O 	0.7241	0.7383	0.1681	-0.325
Mof_O 	O 	0.5968	0.3669	0.1843	-0.298
Mof_O 	O 	0.8455	0.9475	0.0454	-0.322
Mof_O 	O 	0.6169	0.4306	0.0708	-0.316
Mof_O 	O 	0.6209	0.7284	0.056	-0.32
Mof_F 	F 	0.9899	0.0804	0.0481	-0.527
Mof_O 	O 	0.491	0.3196	0.0748	-0.292
Mof_O 	O 	0.5879	0.695	0.1697	-0.122
Mof_O 	O 	0.8885	0.1028	0.1481	-0.127
Mof_Fe	Fe	0.8126	0.5777	0.3388	1.197
Mof_Fe	Fe	0.6893	0.315	0.26	1.204
Mof_Fe	Fe	0.5757	0.4293	0.5022	1.196
Mof_P 	P 	0.921	0.8273	0.3931	0.604
Mof_P 	P 	0.8587	0.2708	0.368	0.571
Mof_P 	P 	0.6663	0.484	0.3854	0.569
Mof_O 	O 	0.7482	0.5373	0.399	-0.336
Mof_O 	O 	0.8901	0.6863	0.4003	-0.318
Mof_O 	O 	0.8768	0.4184	0.3612	-0.32
Mof_O 	O 	0.7368	0.4871	0.2611	-0.341
Mof_F 	F 	0.8547	0.6325	0.2588	-0.514
Mof_F 	F 	0.7564	0.7516	0.3092	-0.525
Mof_O 	O 	0.6449	0.3667	0.3341	-0.329
Mof_O 	O 	0.7759	0.2383	0.3319	-0.326
Mof_O 	O 	0.9032	0.8669	0.3157	-0.298
Mof_O 	O 	0.6545	0.4475	0.4546	-0.327
Mof_O 	O 	0.8831	0.9306	0.4292	-0.316
Mof_O 	O 	0.8791	0.2284	0.444	-0.321
Mof_F 	F 	0.5101	0.5804	0.4519	-0.531
Mof_O 	O 	0.009	0.8196	0.4252	-0.293
Mof_O 	O 	0.9121	0.195	0.3303	-0.122
Mof_O 	O 	0.6115	0.6028	0.3519	-0.126
Mof_Fe	Fe	0.3126	0.0777	0.3388	1.197
Mof_Fe	Fe	0.1893	0.815	0.26	1.204
Mof_Fe	Fe	0.0757	0.9293	0.5022	1.196
Mof_P 	P 	0.421	0.3273	0.3931	0.603
Mof_P 	P 	0.3587	0.7708	0.368	0.571
Mof_P 	P 	0.1663	0.984	0.3854	0.57
Mof_O 	O 	0.2482	0.0373	0.399	-0.336
Mof_O 	O 	0.3901	0.1863	0.4003	-0.318
Mof_O 	O 	0.3768	0.9184	0.3612	-0.319
Mof_O 	O 	0.2368	0.9871	0.2611	-0.34
Mof_F 	F 	0.3547	0.1325	0.2588	-0.515
Mof_F 	F 	0.2564	0.2516	0.3092	-0.525
Mof_O 	O 	0.1449	0.8667	0.3341	-0.329
Mof_O 	O 	0.2759	0.7383	0.3319	-0.326
Mof_O 	O 	0.4032	0.3669	0.3157	-0.298
Mof_O 	O 	0.1545	0.9475	0.4546	-0.327
Mof_O 	O 	0.3831	0.4306	0.4292	-0.316
Mof_O 	O 	0.3791	0.7284	0.444	-0.32
Mof_F 	F 	0.0101	0.0804	0.4519	-0.532
Mof_O 	O 	0.509	0.3196	0.4252	-0.291
Mof_O 	O 	0.4121	0.695	0.3303	-0.122
Mof_O 	O 	0.1115	0.1028	0.3519	-0.127
Mof_Fe	Fe	0.8126	0.4223	0.8388	1.197
Mof_Fe	Fe	0.6893	0.685	0.76	1.204
Mof_Fe	Fe	0.5757	0.5707	0.0022	1.198
Mof_P 	P 	0.921	0.1727	0.8931	0.599
Mof_P 	P 	0.8587	0.7292	0.868	0.57
Mof_P 	P 	0.6663	0.516	0.8854	0.569
Mof_O 	O 	0.7482	0.4627	0.899	-0.336
Mof_O 	O 	0.8901	0.3137	0.9003	-0.318
Mof_O 	O 	0.8768	0.5816	0.8612	-0.32
Mof_O 	O 	0.7368	0.5129	0.7611	-0.341
Mof_F 	F 	0.8547	0.3675	0.7588	-0.515
Mof_F 	F 	0.7564	0.2484	0.8092	-0.524
Mof_O 	O 	0.6449	0.6333	0.8341	-0.329
Mof_O 	O 	0.7759	0.7617	0.8319	-0.326
Mof_O 	O 	0.9032	0.1331	0.8157	-0.298
Mof_O 	O 	0.6545	0.5525	0.9546	-0.328
Mof_O 	O 	0.8831	0.0694	0.9292	-0.314
Mof_O 	O 	0.8791	0.7716	0.944	-0.321
Mof_F 	F 	0.5101	0.4196	0.9519	-0.531
Mof_O 	O 	0.009	0.1804	0.9252	-0.285
Mof_O 	O 	0.9121	0.805	0.8303	-0.124
Mof_O 	O 	0.6115	0.3972	0.8519	-0.126
Mof_Fe	Fe	0.3126	0.9223	0.8388	1.196
Mof_Fe	Fe	0.1893	0.185	0.76	1.204
Mof_Fe	Fe	0.0757	0.0707	0.0022	1.184
Mof_P 	P 	0.421	0.6727	0.8931	0.603
Mof_P 	P 	0.3587	0.2292	0.868	0.571
Mof_P 	P 	0.1663	0.016	0.8854	0.571
Mof_O 	O 	0.2482	0.9627	0.899	-0.337
Mof_O 	O 	0.3901	0.8137	0.9003	-0.318
Mof_O 	O 	0.3768	0.0816	0.8612	-0.318
Mof_O 	O 	0.2368	0.0129	0.7611	-0.34
Mof_F 	F 	0.3547	0.8675	0.7588	-0.515
Mof_F 	F 	0.2564	0.7484	0.8092	-0.524
Mof_O 	O 	0.1449	0.1333	0.8341	-0.328
Mof_O 	O 	0.2759	0.2617	0.8319	-0.325
Mof_O 	O 	0.4032	0.6331	0.8157	-0.298
Mof_O 	O 	0.1545	0.0525	0.9546	-0.322
Mof_O 	O 	0.3831	0.5694	0.9292	-0.316
Mof_O 	O 	0.3791	0.2716	0.944	-0.32
Mof_F 	F 	0.0101	0.9196	0.9519	-0.527
Mof_O 	O 	0.509	0.6804	0.9252	-0.292
Mof_O 	O 	0.4121	0.305	0.8303	-0.122
Mof_O 	O 	0.1115	0.8972	0.8519	-0.127
Mof_Fe	Fe	0.1874	0.4223	0.6612	1.197
Mof_Fe	Fe	0.3107	0.685	0.74	1.204
Mof_Fe	Fe	0.4243	0.5707	0.4978	1.196
Mof_P 	P 	0.079	0.1727	0.6069	0.604
Mof_P 	P 	0.1413	0.7292	0.632	0.571
Mof_P 	P 	0.3337	0.516	0.6146	0.569
Mof_O 	O 	0.2518	0.4627	0.601	-0.336
Mof_O 	O 	0.1099	0.3137	0.5997	-0.318
Mof_O 	O 	0.1232	0.5816	0.6388	-0.32
Mof_O 	O 	0.2632	0.5129	0.7389	-0.341
Mof_F 	F 	0.1453	0.3675	0.7412	-0.514
Mof_F 	F 	0.2436	0.2484	0.6908	-0.525
Mof_O 	O 	0.3551	0.6333	0.6659	-0.329
Mof_O 	O 	0.2241	0.7617	0.6681	-0.326
Mof_O 	O 	0.0968	0.1331	0.6843	-0.298
Mof_O 	O 	0.3455	0.5525	0.5454	-0.327
Mof_O 	O 	0.1169	0.0694	0.5708	-0.316
Mof_O 	O 	0.1209	0.7716	0.556	-0.321
Mof_F 	F 	0.4899	0.4196	0.5481	-0.531
Mof_O 	O 	0.991	0.1804	0.5748	-0.293
Mof_O 	O 	0.0879	0.805	0.6697	-0.122
Mof_O 	O 	0.3885	0.3972	0.6481	-0.126
Mof_Fe	Fe	0.6874	0.9223	0.6612	1.197
Mof_Fe	Fe	0.8107	0.185	0.74	1.204
Mof_Fe	Fe	0.9243	0.0707	0.4978	1.196
Mof_P 	P 	0.579	0.6727	0.6069	0.603
Mof_P 	P 	0.6413	0.2292	0.632	0.571
Mof_P 	P 	0.8337	0.016	0.6146	0.57
Mof_O 	O 	0.7518	0.9627	0.601	-0.336
Mof_O 	O 	0.6099	0.8137	0.5997	-0.318
Mof_O 	O 	0.6232	0.0816	0.6388	-0.319
Mof_O 	O 	0.7632	0.0129	0.7389	-0.34
Mof_F 	F 	0.6453	0.8675	0.7412	-0.515
Mof_F 	F 	0.7436	0.7484	0.6908	-0.525
Mof_O 	O 	0.8551	0.1333	0.6659	-0.329
Mof_O 	O 	0.7241	0.2617	0.6681	-0.326
Mof_O 	O 	0.5968	0.6331	0.6843	-0.298
Mof_O 	O 	0.8455	0.0525	0.5454	-0.327
Mof_O 	O 	0.6169	0.5694	0.5708	-0.316
Mof_O 	O 	0.6209	0.2716	0.556	-0.32
Mof_F 	F 	0.9899	0.9196	0.5481	-0.532
Mof_O 	O 	0.491	0.6804	0.5748	-0.291
Mof_O 	O 	0.5879	0.305	0.6697	-0.122
Mof_O 	O 	0.8885	0.8972	0.6481	-0.127
_end
