data_functionalizedCrystal
_audit_creation_method	'EQeq! by Chris Wilmer'
_symmetry_space_group_name_H-M	'P1'
_symmetry_Int_Tables_number	1
_symmetry_cell_setting	triclinic
loop_
_symmetry_equiv_pos_as_xyz
  x,y,z
_cell_length_a	8.5175
_cell_length_b	28.1745
_cell_length_c	21.4217
_cell_angle_alpha	90
_cell_angle_beta	97.1026
_cell_angle_gamma	90
loop_
_atom_site_label
_atom_site_type_symbol
_atom_site_fract_x
_atom_site_fract_y
_atom_site_fract_z
_atom_site_charge
Mof_Er	Er	0.29497	0.05831	0.00644	1.719
Mof_C 	C 	0.6964	0.94465	0.5251	0.122
Mof_C 	C 	0.6097	0.9161	0.5661	-0.077
Mof_H 	H 	0.5882	0.883	0.5626	0.061
Mof_C 	C 	0.5663	0.94586	0.6102	-0.092
Mof_H 	H 	0.5071	0.9376	0.6434	0.068
Mof_C 	C 	0.6252	0.99228	0.598	0.13
Mof_C 	C 	0.6146	0.0328	0.6366	-0.144
Mof_C 	C 	0.6562	0.07873	0.6201	0.129
Mof_C 	C 	0.6592	0.12053	0.6589	-0.09
Mof_H 	H 	0.6453	0.1213	0.7022	0.062
Mof_C 	C 	0.685	0.1581	0.6235	-0.078
Mof_H 	H 	0.6907	0.1903	0.6367	0.062
Mof_C 	C 	0.7028	0.14016	0.5607	0.123
Mof_C 	C 	0.7191	0.1686	0.5078	-0.132
Mof_C 	C 	0.7521	0.15069	0.4493	0.121
Mof_C 	C 	0.7699	0.17965	0.3947	-0.082
Mof_H 	H 	0.7523	0.2129	0.3907	0.062
Mof_C 	C 	0.8164	0.15038	0.3506	-0.087
Mof_H 	H 	0.8357	0.1593	0.3095	0.064
Mof_C 	C 	0.8315	0.10328	0.3768	0.119
Mof_C 	C 	0.8859	0.063	0.3477	-0.13
Mof_C 	C 	0.8894	0.01669	0.373	0.12
Mof_C 	C 	0.9598	0.9754	0.3477	-0.078
Mof_H 	H 	0.0172	0.975	0.3124	0.058
Mof_C 	C 	0.9298	0.9376	0.383	-0.087
Mof_H 	H 	0.9625	0.9058	0.3773	0.063
Mof_C 	C 	0.8389	0.95458	0.4307	0.12
Mof_C 	C 	0.7723	0.92671	0.4752	-0.126
Mof_N 	N 	0.6971	0.99062	0.54432	-0.218
Mof_H 	H 	0.7365	0.0149	0.5256	0.114
Mof_N 	N 	0.689	0.09221	0.56132	-0.217
Mof_H 	H 	0.6992	0.073	0.5296	0.113
Mof_N 	N 	0.7878	0.10481	0.43632	-0.216
Mof_H 	H 	0.7835	0.0804	0.4617	0.112
Mof_N 	N 	0.8212	0.00297	0.42461	-0.215
Mof_H 	H 	0.7744	0.0217	0.4495	0.113
Mof_C 	C 	0.5666	0.0256	0.7005	0.159
Mof_C 	C 	0.4527	0.05415	0.7234	-0.207
Mof_H 	H 	0.3952	0.0763	0.6961	0.099
Mof_C 	C 	0.4221	0.05078	0.7851	0.134
Mof_H 	H 	0.3473	0.0714	0.8004	-0.014
Mof_C 	C 	0.5008	0.01714	0.8246	-0.237
Mof_C 	C 	0.6053	0.9864	0.8012	0.145
Mof_H 	H 	0.6533	0.9617	0.827	-0.017
Mof_C 	C 	0.6403	0.9915	0.7403	-0.215
Mof_H 	H 	0.7165	0.9711	0.7254	0.106
Mof_C 	C 	0.4761	0.0151	0.8928	0.512
Mof_O 	O 	0.396	0.04689	0.91406	-0.542
Mof_O 	O 	0.538	0.98077	0.92567	-0.557
Mof_C 	C 	0.6959	0.22037	0.5138	0.128
Mof_C 	C 	0.5551	0.2411	0.4813	-0.161
Mof_H 	H 	0.4807	0.2224	0.4554	0.089
Mof_C 	C 	0.5308	0.2895	0.4888	0.091
Mof_H 	H 	0.4378	0.3039	0.468	0.015
Mof_C 	C 	0.639	0.3171	0.526	-0.161
Mof_C 	C 	0.7741	0.2972	0.5558	0.095
Mof_H 	H 	0.8504	0.3165	0.5799	0.016
Mof_C 	C 	0.8001	0.2488	0.5508	-0.168
Mof_H 	H 	0.8918	0.235	0.5735	0.095
Mof_C 	C 	0.6081	0.37	0.5301	0.42
Mof_O 	O 	0.7227	0.39603	0.5498	-0.304
Mof_O 	O 	0.469	0.38404	0.5121	-0.496
Mof_C 	C 	0.9378	0.06925	0.2842	0.118
Mof_C 	C 	0.8745	0.0411	0.2344	-0.163
Mof_H 	H 	0.7938	0.019	0.2408	0.09
Mof_C 	C 	0.9252	0.04415	0.1755	0.081
Mof_H 	H 	0.8814	0.0239	0.1425	-0.001
Mof_C 	C 	0.0414	0.07729	0.1651	-0.13
Mof_C 	C 	0.1038	0.10708	0.2137	0.057
Mof_H 	H 	0.1801	0.1303	0.2063	0.025
Mof_C 	C 	0.0544	0.10289	0.2734	-0.151
Mof_H 	H 	0.0995	0.1227	0.3067	0.081
Mof_C 	C 	0.1124	0.07665	0.1044	0.341
Mof_O 	O 	0.0849	0.04123	0.06764	-0.461
Mof_O 	O 	0.2125	0.10733	0.09229	-0.413
Mof_C 	C 	0.7845	0.8739	0.4703	0.113
Mof_C 	C 	0.8534	0.8473	0.5222	-0.147
Mof_H 	H 	0.8933	0.863	0.5601	0.085
Mof_C 	C 	0.8634	0.7983	0.5183	0.06
Mof_H 	H 	0.9107	0.7807	0.5535	0.021
Mof_C 	C 	0.8041	0.7746	0.4629	-0.137
Mof_C 	C 	0.7363	0.8004	0.4119	0.068
Mof_H 	H 	0.6964	0.7846	0.3741	0.029
Mof_C 	C 	0.7259	0.8496	0.4156	-0.148
Mof_H 	H 	0.6781	0.867	0.3802	0.08
Mof_C 	C 	0.8212	0.7219	0.4612	0.379
Mof_O 	O 	0.8703	0.69841	0.50684	-0.307
Mof_O 	O 	0.7728	0.7032	0.40494	-0.465
Mof_H 	H 	0.7874	0.6737	0.4062	0.292
Mof_Er	Er	0.70503	0.55831	0.49356	1.718
Mof_C 	C 	0.3036	0.44465	0.9749	0.122
Mof_C 	C 	0.3903	0.4161	0.9339	-0.078
Mof_H 	H 	0.4118	0.383	0.9374	0.061
Mof_C 	C 	0.4337	0.44586	0.8898	-0.093
Mof_H 	H 	0.4929	0.4376	0.8566	0.067
Mof_C 	C 	0.3748	0.49228	0.902	0.129
Mof_C 	C 	0.3854	0.5328	0.8634	-0.146
Mof_C 	C 	0.3438	0.57873	0.8799	0.128
Mof_C 	C 	0.3408	0.62053	0.8411	-0.091
Mof_H 	H 	0.3547	0.6213	0.7978	0.062
Mof_C 	C 	0.315	0.6581	0.8765	-0.078
Mof_H 	H 	0.3093	0.6903	0.8633	0.062
Mof_C 	C 	0.2972	0.64016	0.9393	0.123
Mof_C 	C 	0.2809	0.6686	0.9922	-0.132
Mof_C 	C 	0.2479	0.65069	0.0507	0.121
Mof_C 	C 	0.2301	0.67965	0.1053	-0.082
Mof_H 	H 	0.2477	0.7129	0.1093	0.062
Mof_C 	C 	0.1836	0.65038	0.1494	-0.087
Mof_H 	H 	0.1643	0.6593	0.1905	0.064
Mof_C 	C 	0.1685	0.60328	0.1232	0.119
Mof_C 	C 	0.1141	0.563	0.1523	-0.13
Mof_C 	C 	0.1106	0.51669	0.127	0.121
Mof_C 	C 	0.0402	0.4754	0.1523	-0.082
Mof_H 	H 	0.9828	0.475	0.1876	0.06
Mof_C 	C 	0.0702	0.4376	0.117	-0.086
Mof_H 	H 	0.0375	0.4058	0.1227	0.063
Mof_C 	C 	0.1611	0.45458	0.0693	0.119
Mof_C 	C 	0.2277	0.42671	0.0248	-0.126
Mof_N 	N 	0.3029	0.49062	0.95568	-0.218
Mof_H 	H 	0.2635	0.5149	0.9744	0.114
Mof_N 	N 	0.311	0.59221	0.93868	-0.217
Mof_H 	H 	0.3008	0.573	0.9704	0.113
Mof_N 	N 	0.2122	0.60481	0.06368	-0.216
Mof_H 	H 	0.2165	0.5804	0.0383	0.112
Mof_N 	N 	0.1788	0.50297	0.07539	-0.215
Mof_H 	H 	0.2256	0.5217	0.0505	0.112
Mof_C 	C 	0.4334	0.5256	0.7995	0.159
Mof_C 	C 	0.5473	0.55415	0.7766	-0.208
Mof_H 	H 	0.6048	0.5763	0.8039	0.099
Mof_C 	C 	0.5779	0.55078	0.7149	0.134
Mof_H 	H 	0.6527	0.5714	0.6996	-0.014
Mof_C 	C 	0.4992	0.51714	0.6754	-0.238
Mof_C 	C 	0.3947	0.4864	0.6988	0.146
Mof_H 	H 	0.3467	0.4617	0.673	-0.017
Mof_C 	C 	0.3597	0.4915	0.7597	-0.215
Mof_H 	H 	0.2835	0.4711	0.7746	0.106
Mof_C 	C 	0.5239	0.5151	0.6072	0.512
Mof_O 	O 	0.604	0.54689	0.58594	-0.542
Mof_O 	O 	0.462	0.48077	0.57433	-0.557
Mof_C 	C 	0.3041	0.72037	0.9862	0.128
Mof_C 	C 	0.4449	0.7411	0.0187	-0.161
Mof_H 	H 	0.5193	0.7224	0.0446	0.089
Mof_C 	C 	0.4692	0.7895	0.0112	0.092
Mof_H 	H 	0.5622	0.8039	0.032	0.015
Mof_C 	C 	0.361	0.8171	0.974	-0.161
Mof_C 	C 	0.2259	0.7972	0.9442	0.095
Mof_H 	H 	0.1496	0.8165	0.9201	0.016
Mof_C 	C 	0.1999	0.7488	0.9492	-0.168
Mof_H 	H 	0.1082	0.735	0.9265	0.095
Mof_C 	C 	0.3919	0.87	0.9699	0.42
Mof_O 	O 	0.2773	0.89603	0.9502	-0.304
Mof_O 	O 	0.531	0.88404	0.9879	-0.496
Mof_C 	C 	0.0622	0.56925	0.2158	0.116
Mof_C 	C 	0.1255	0.5411	0.2656	-0.162
Mof_H 	H 	0.2062	0.519	0.2592	0.089
Mof_C 	C 	0.0748	0.54415	0.3245	0.079
Mof_H 	H 	0.1186	0.5239	0.3575	-0.001
Mof_C 	C 	0.9586	0.57729	0.3349	-0.128
Mof_C 	C 	0.8962	0.60708	0.2863	0.056
Mof_H 	H 	0.8199	0.6303	0.2937	0.026
Mof_C 	C 	0.9456	0.60289	0.2266	-0.149
Mof_H 	H 	0.9005	0.6227	0.1933	0.081
Mof_C 	C 	0.8876	0.57665	0.3956	0.34
Mof_O 	O 	0.9151	0.54123	0.43236	-0.461
Mof_O 	O 	0.7875	0.60733	0.40771	-0.413
Mof_C 	C 	0.2155	0.3739	0.0297	0.112
Mof_C 	C 	0.1466	0.3473	0.9778	-0.146
Mof_H 	H 	0.1067	0.363	0.9399	0.085
Mof_C 	C 	0.1366	0.2983	0.9817	0.061
Mof_H 	H 	0.0893	0.2807	0.9465	0.021
Mof_C 	C 	0.1959	0.2746	0.0371	-0.137
Mof_C 	C 	0.2637	0.3004	0.0881	0.068
Mof_H 	H 	0.3036	0.2846	0.1259	0.029
Mof_C 	C 	0.2741	0.3496	0.0844	-0.148
Mof_H 	H 	0.3219	0.367	0.1198	0.08
Mof_C 	C 	0.1788	0.2219	0.0388	0.377
Mof_O 	O 	0.1297	0.19841	0.99316	-0.305
Mof_O 	O 	0.2272	0.2032	0.09506	-0.464
Mof_H 	H 	0.2126	0.1737	0.0938	0.291
Mof_Er	Er	0.70503	0.94169	0.99356	1.718
Mof_C 	C 	0.3036	0.05535	0.4749	0.121
Mof_C 	C 	0.3903	0.0839	0.4339	-0.078
Mof_H 	H 	0.4118	0.117	0.4374	0.06
Mof_C 	C 	0.4337	0.05414	0.3898	-0.093
Mof_H 	H 	0.4929	0.0624	0.3566	0.067
Mof_C 	C 	0.3748	0.00772	0.402	0.129
Mof_C 	C 	0.3854	0.9672	0.3634	-0.145
Mof_C 	C 	0.3438	0.92127	0.3799	0.128
Mof_C 	C 	0.3408	0.87947	0.3411	-0.091
Mof_H 	H 	0.3547	0.8787	0.2978	0.062
Mof_C 	C 	0.315	0.8419	0.3765	-0.078
Mof_H 	H 	0.3093	0.8097	0.3633	0.062
Mof_C 	C 	0.2972	0.85984	0.4393	0.123
Mof_C 	C 	0.2809	0.8314	0.4922	-0.132
Mof_C 	C 	0.2479	0.84931	0.5507	0.121
Mof_C 	C 	0.2301	0.82035	0.6053	-0.082
Mof_H 	H 	0.2477	0.7871	0.6093	0.062
Mof_C 	C 	0.1836	0.84962	0.6494	-0.087
Mof_H 	H 	0.1643	0.8407	0.6905	0.064
Mof_C 	C 	0.1685	0.89672	0.6232	0.119
Mof_C 	C 	0.1141	0.937	0.6523	-0.13
Mof_C 	C 	0.1106	0.98331	0.627	0.12
Mof_C 	C 	0.0402	0.0246	0.6523	-0.078
Mof_H 	H 	0.9828	0.025	0.6876	0.058
Mof_C 	C 	0.0702	0.0624	0.617	-0.087
Mof_H 	H 	0.0375	0.0942	0.6227	0.063
Mof_C 	C 	0.1611	0.04542	0.5693	0.12
Mof_C 	C 	0.2277	0.07329	0.5248	-0.126
Mof_N 	N 	0.3029	0.00938	0.45568	-0.218
Mof_H 	H 	0.2635	0.9851	0.4744	0.114
Mof_N 	N 	0.311	0.90779	0.43868	-0.217
Mof_H 	H 	0.3008	0.927	0.4704	0.113
Mof_N 	N 	0.2122	0.89519	0.56368	-0.216
Mof_H 	H 	0.2165	0.9196	0.5383	0.112
Mof_N 	N 	0.1788	0.99703	0.57539	-0.215
Mof_H 	H 	0.2256	0.9783	0.5505	0.113
Mof_C 	C 	0.4334	0.9744	0.2995	0.159
Mof_C 	C 	0.5473	0.94585	0.2766	-0.207
Mof_H 	H 	0.6048	0.9237	0.3039	0.099
Mof_C 	C 	0.5779	0.94922	0.2149	0.134
Mof_H 	H 	0.6527	0.9286	0.1996	-0.014
Mof_C 	C 	0.4992	0.98286	0.1754	-0.237
Mof_C 	C 	0.3947	0.0136	0.1988	0.145
Mof_H 	H 	0.3467	0.0383	0.173	-0.017
Mof_C 	C 	0.3597	0.0085	0.2597	-0.215
Mof_H 	H 	0.2835	0.0289	0.2746	0.106
Mof_C 	C 	0.5239	0.9849	0.1072	0.512
Mof_O 	O 	0.604	0.95311	0.08594	-0.542
Mof_O 	O 	0.462	0.01923	0.07433	-0.557
Mof_C 	C 	0.3041	0.77963	0.4862	0.128
Mof_C 	C 	0.4449	0.7589	0.5187	-0.161
Mof_H 	H 	0.5193	0.7776	0.5446	0.089
Mof_C 	C 	0.4692	0.7105	0.5112	0.091
Mof_H 	H 	0.5622	0.6961	0.532	0.015
Mof_C 	C 	0.361	0.6829	0.474	-0.161
Mof_C 	C 	0.2259	0.7028	0.4442	0.095
Mof_H 	H 	0.1496	0.6835	0.4201	0.016
Mof_C 	C 	0.1999	0.7512	0.4492	-0.168
Mof_H 	H 	0.1082	0.765	0.4265	0.095
Mof_C 	C 	0.3919	0.63	0.4699	0.42
Mof_O 	O 	0.2773	0.60397	0.4502	-0.304
Mof_O 	O 	0.531	0.61596	0.4879	-0.496
Mof_C 	C 	0.0622	0.93075	0.7158	0.118
Mof_C 	C 	0.1255	0.9589	0.7656	-0.163
Mof_H 	H 	0.2062	0.981	0.7592	0.09
Mof_C 	C 	0.0748	0.95585	0.8245	0.081
Mof_H 	H 	0.1186	0.9761	0.8575	-0.001
Mof_C 	C 	0.9586	0.92271	0.8349	-0.13
Mof_C 	C 	0.8962	0.89292	0.7863	0.057
Mof_H 	H 	0.8199	0.8697	0.7937	0.025
Mof_C 	C 	0.9456	0.89711	0.7266	-0.151
Mof_H 	H 	0.9005	0.8773	0.6933	0.081
Mof_C 	C 	0.8876	0.92335	0.8956	0.341
Mof_O 	O 	0.9151	0.95877	0.93236	-0.461
Mof_O 	O 	0.7875	0.89267	0.90771	-0.413
Mof_C 	C 	0.2155	0.1261	0.5297	0.113
Mof_C 	C 	0.1466	0.1527	0.4778	-0.147
Mof_H 	H 	0.1067	0.137	0.4399	0.085
Mof_C 	C 	0.1366	0.2017	0.4817	0.06
Mof_H 	H 	0.0893	0.2193	0.4465	0.021
Mof_C 	C 	0.1959	0.2254	0.5371	-0.137
Mof_C 	C 	0.2637	0.1996	0.5881	0.068
Mof_H 	H 	0.3036	0.2154	0.6259	0.029
Mof_C 	C 	0.2741	0.1504	0.5844	-0.148
Mof_H 	H 	0.3219	0.133	0.6198	0.08
Mof_C 	C 	0.1788	0.2781	0.5388	0.379
Mof_O 	O 	0.1297	0.30159	0.49316	-0.307
Mof_O 	O 	0.2272	0.2968	0.59506	-0.465
Mof_H 	H 	0.2126	0.3263	0.5938	0.292
Mof_Er	Er	0.29497	0.44169	0.50644	1.718
Mof_C 	C 	0.6964	0.55535	0.0251	0.122
Mof_C 	C 	0.6097	0.5839	0.0661	-0.078
Mof_H 	H 	0.5882	0.617	0.0626	0.061
Mof_C 	C 	0.5663	0.55414	0.1102	-0.093
Mof_H 	H 	0.5071	0.5624	0.1434	0.067
Mof_C 	C 	0.6252	0.50772	0.098	0.129
Mof_C 	C 	0.6146	0.4672	0.1366	-0.146
Mof_C 	C 	0.6562	0.42127	0.1201	0.128
Mof_C 	C 	0.6592	0.37947	0.1589	-0.091
Mof_H 	H 	0.6453	0.3787	0.2022	0.062
Mof_C 	C 	0.685	0.3419	0.1235	-0.078
Mof_H 	H 	0.6907	0.3097	0.1367	0.062
Mof_C 	C 	0.7028	0.35984	0.0607	0.123
Mof_C 	C 	0.7191	0.3314	0.0078	-0.132
Mof_C 	C 	0.7521	0.34931	0.9493	0.121
Mof_C 	C 	0.7699	0.32035	0.8947	-0.082
Mof_H 	H 	0.7523	0.2871	0.8907	0.062
Mof_C 	C 	0.8164	0.34962	0.8506	-0.087
Mof_H 	H 	0.8357	0.3407	0.8095	0.064
Mof_C 	C 	0.8315	0.39672	0.8768	0.119
Mof_C 	C 	0.8859	0.437	0.8477	-0.13
Mof_C 	C 	0.8894	0.48331	0.873	0.121
Mof_C 	C 	0.9598	0.5246	0.8477	-0.082
Mof_H 	H 	0.0172	0.525	0.8124	0.06
Mof_C 	C 	0.9298	0.5624	0.883	-0.086
Mof_H 	H 	0.9625	0.5942	0.8773	0.063
Mof_C 	C 	0.8389	0.54542	0.9307	0.119
Mof_C 	C 	0.7723	0.57329	0.9752	-0.126
Mof_N 	N 	0.6971	0.50938	0.04432	-0.218
Mof_H 	H 	0.7365	0.4851	0.0256	0.114
Mof_N 	N 	0.689	0.40779	0.06132	-0.217
Mof_H 	H 	0.6992	0.427	0.0296	0.113
Mof_N 	N 	0.7878	0.39519	0.93632	-0.216
Mof_H 	H 	0.7835	0.4196	0.9617	0.112
Mof_N 	N 	0.8212	0.49703	0.92461	-0.215
Mof_H 	H 	0.7744	0.4783	0.9495	0.112
Mof_C 	C 	0.5666	0.4744	0.2005	0.159
Mof_C 	C 	0.4527	0.44585	0.2234	-0.208
Mof_H 	H 	0.3952	0.4237	0.1961	0.099
Mof_C 	C 	0.4221	0.44922	0.2851	0.134
Mof_H 	H 	0.3473	0.4286	0.3004	-0.014
Mof_C 	C 	0.5008	0.48286	0.3246	-0.238
Mof_C 	C 	0.6053	0.5136	0.3012	0.146
Mof_H 	H 	0.6533	0.5383	0.327	-0.017
Mof_C 	C 	0.6403	0.5085	0.2403	-0.215
Mof_H 	H 	0.7165	0.5289	0.2254	0.106
Mof_C 	C 	0.4761	0.4849	0.3928	0.512
Mof_O 	O 	0.396	0.45311	0.41406	-0.542
Mof_O 	O 	0.538	0.51923	0.42567	-0.557
Mof_C 	C 	0.6959	0.27963	0.0138	0.128
Mof_C 	C 	0.5551	0.2589	0.9813	-0.161
Mof_H 	H 	0.4807	0.2776	0.9554	0.089
Mof_C 	C 	0.5308	0.2105	0.9888	0.092
Mof_H 	H 	0.4378	0.1961	0.968	0.015
Mof_C 	C 	0.639	0.1829	0.026	-0.161
Mof_C 	C 	0.7741	0.2028	0.0558	0.095
Mof_H 	H 	0.8504	0.1835	0.0799	0.016
Mof_C 	C 	0.8001	0.2512	0.0508	-0.168
Mof_H 	H 	0.8918	0.265	0.0735	0.095
Mof_C 	C 	0.6081	0.13	0.0301	0.42
Mof_O 	O 	0.7227	0.10397	0.0498	-0.304
Mof_O 	O 	0.469	0.11596	0.0121	-0.496
Mof_C 	C 	0.9378	0.43075	0.7842	0.116
Mof_C 	C 	0.8745	0.4589	0.7344	-0.162
Mof_H 	H 	0.7938	0.481	0.7408	0.089
Mof_C 	C 	0.9252	0.45585	0.6755	0.079
Mof_H 	H 	0.8814	0.4761	0.6425	-0.001
Mof_C 	C 	0.0414	0.42271	0.6651	-0.128
Mof_C 	C 	0.1038	0.39292	0.7137	0.056
Mof_H 	H 	0.1801	0.3697	0.7063	0.026
Mof_C 	C 	0.0544	0.39711	0.7734	-0.149
Mof_H 	H 	0.0995	0.3773	0.8067	0.081
Mof_C 	C 	0.1124	0.42335	0.6044	0.34
Mof_O 	O 	0.0849	0.45877	0.56764	-0.461
Mof_O 	O 	0.2125	0.39267	0.59229	-0.413
Mof_C 	C 	0.7845	0.6261	0.9703	0.112
Mof_C 	C 	0.8534	0.6527	0.0222	-0.146
Mof_H 	H 	0.8933	0.637	0.0601	0.085
Mof_C 	C 	0.8634	0.7017	0.0183	0.061
Mof_H 	H 	0.9107	0.7193	0.0535	0.021
Mof_C 	C 	0.8041	0.7254	0.9629	-0.137
Mof_C 	C 	0.7363	0.6996	0.9119	0.068
Mof_H 	H 	0.6964	0.7154	0.8741	0.029
Mof_C 	C 	0.7259	0.6504	0.9156	-0.148
Mof_H 	H 	0.6781	0.633	0.8802	0.08
Mof_C 	C 	0.8212	0.7781	0.9612	0.377
Mof_O 	O 	0.8703	0.80159	0.00684	-0.305
Mof_O 	O 	0.7728	0.7968	0.90494	-0.464
Mof_H 	H 	0.7874	0.8263	0.9062	0.291
_end
