data_functionalizedCrystal
_audit_creation_method	'EQeq! by Chris Wilmer'
_symmetry_space_group_name_H-M	'P1'
_symmetry_Int_Tables_number	1
_symmetry_cell_setting	triclinic
loop_
_symmetry_equiv_pos_as_xyz
  x,y,z
_cell_length_a	24.263
_cell_length_b	24.263
_cell_length_c	14.615
_cell_angle_alpha	90
_cell_angle_beta	90
_cell_angle_gamma	90
loop_
_atom_site_label
_atom_site_type_symbol
_atom_site_fract_x
_atom_site_fract_y
_atom_site_fract_z
_atom_site_charge
Mof_O 	O 	0.0817	0.3975	0.1631	-0.832
Mof_O 	O 	0.1477	0.447	0.0893	-0.686
Mof_C 	C 	0.1308	0.408	0.1384	0.608
Mof_C 	C 	0.1737	0.36846	0.1725	-0.31
Mof_C 	C 	0.25319	0.2952	0.2357	0.378
Mof_C 	C 	0.2286	0.3755	0.1478	0.176
Mof_H 	H 	0.2389	0.4053	0.1094	0.01
Mof_C 	C 	0.26833	0.3389	0.1795	-0.219
Mof_H 	H 	0.3058	0.3437	0.1626	1.279
Mof_C 	C 	0.15855	0.3248	0.2287	0.137
Mof_H 	H 	0.121	0.32	0.2456	-0.055
Mof_C 	C 	0.1983	0.2882	0.2603	-0.439
Mof_O 	O 	0.1824	0.2415	0.3204	-1.456
Mof_C 	C 	0.1239	0.2317	0.338	0.917
Mof_H 	H 	0.1199	0.1997	0.3789	-0.204
Mof_H 	H 	0.1047	0.2245	0.2806	-0.232
Mof_H 	H 	0.1078	0.2642	0.3678	-0.27
Mof_C 	C 	0.2272	0.3712	0.1388	0.139
Mof_H 	H 	0.2366	0.398	0.0941	-0.037
Mof_C 	C 	0.2669	0.3346	0.1703	-0.429
Mof_C 	C 	0.1599	0.3292	0.2378	0.174
Mof_H 	H 	0.1234	0.3273	0.2609	-0.02
Mof_C 	C 	0.1997	0.2925	0.2694	-0.222
Mof_H 	H 	0.1903	0.2657	0.3141	1.342
Mof_O 	O 	0.3237	0.3373	0.1347	-1.382
Mof_C 	C 	0.3419	0.3901	0.096	0.592
Mof_H 	H 	0.3805	0.3872	0.0772	-0.081
Mof_H 	H 	0.3382	0.4191	0.1425	-0.141
Mof_H 	H 	0.319	0.3993	0.043	-0.104
Mof_O 	O 	0.9183	0.6025	0.1631	-0.707
Mof_O 	O 	0.8523	0.553	0.0893	-0.673
Mof_C 	C 	0.8692	0.592	0.1384	0.582
Mof_C 	C 	0.8263	0.63154	0.1725	-0.26
Mof_C 	C 	0.74681	0.7048	0.2357	0.347
Mof_C 	C 	0.7714	0.6245	0.1478	0.165
Mof_H 	H 	0.7611	0.5947	0.1094	0.012
Mof_C 	C 	0.73167	0.6611	0.1795	-0.206
Mof_H 	H 	0.6942	0.6563	0.1626	1.247
Mof_C 	C 	0.84145	0.6752	0.2287	0.118
Mof_H 	H 	0.879	0.68	0.2456	-0.03
Mof_C 	C 	0.8017	0.7118	0.2603	-0.365
Mof_O 	O 	0.8176	0.7585	0.3204	-1.175
Mof_C 	C 	0.8761	0.7683	0.338	0.524
Mof_H 	H 	0.8801	0.8003	0.3789	-0.005
Mof_H 	H 	0.8953	0.7755	0.2806	-0.029
Mof_H 	H 	0.8922	0.7358	0.3678	-0.085
Mof_C 	C 	0.7728	0.6288	0.1388	0.129
Mof_H 	H 	0.7634	0.602	0.0941	-0.033
Mof_C 	C 	0.7331	0.6654	0.1703	-0.41
Mof_C 	C 	0.8401	0.6708	0.2378	0.154
Mof_H 	H 	0.8766	0.6727	0.2609	0.012
Mof_C 	C 	0.8003	0.7075	0.2694	-0.182
Mof_H 	H 	0.8097	0.7343	0.3141	1.126
Mof_O 	O 	0.6763	0.6627	0.1347	-1.346
Mof_C 	C 	0.6581	0.6099	0.096	0.569
Mof_H 	H 	0.6195	0.6128	0.0772	-0.074
Mof_H 	H 	0.6618	0.5809	0.1425	-0.133
Mof_H 	H 	0.681	0.6007	0.043	-0.099
Mof_O 	O 	0.6025	0.0817	0.6631	-0.826
Mof_O 	O 	0.553	0.1477	0.5893	-0.68
Mof_C 	C 	0.592	0.1308	0.6384	0.605
Mof_C 	C 	0.63154	0.1737	0.6725	-0.299
Mof_C 	C 	0.7048	0.25319	0.7357	0.372
Mof_C 	C 	0.6245	0.2286	0.6478	0.172
Mof_H 	H 	0.5947	0.2389	0.6094	0.015
Mof_C 	C 	0.6611	0.26833	0.6795	-0.211
Mof_H 	H 	0.6563	0.3058	0.6626	1.239
Mof_C 	C 	0.6752	0.15855	0.7287	0.131
Mof_H 	H 	0.68	0.121	0.7456	-0.052
Mof_C 	C 	0.7118	0.1983	0.7603	-0.416
Mof_O 	O 	0.7585	0.1824	0.8204	-1.357
Mof_C 	C 	0.7683	0.1239	0.838	0.794
Mof_H 	H 	0.8003	0.1199	0.8789	-0.132
Mof_H 	H 	0.7755	0.1047	0.7806	-0.174
Mof_H 	H 	0.7358	0.1078	0.8678	-0.223
Mof_C 	C 	0.6288	0.2272	0.6388	0.133
Mof_H 	H 	0.602	0.2366	0.5941	-0.037
Mof_C 	C 	0.6654	0.2669	0.6703	-0.415
Mof_C 	C 	0.6708	0.1599	0.7378	0.168
Mof_H 	H 	0.6727	0.1234	0.7609	-0.015
Mof_C 	C 	0.7075	0.1997	0.7694	-0.211
Mof_H 	H 	0.7343	0.1903	0.8141	1.268
Mof_O 	O 	0.6627	0.3237	0.6347	-1.33
Mof_C 	C 	0.6099	0.3419	0.596	0.542
Mof_H 	H 	0.6128	0.3805	0.5772	-0.059
Mof_H 	H 	0.5809	0.3382	0.6425	-0.124
Mof_H 	H 	0.6007	0.319	0.543	-0.078
Mof_O 	O 	0.3975	0.9183	0.6631	-0.707
Mof_O 	O 	0.447	0.8523	0.5893	-0.668
Mof_C 	C 	0.408	0.8692	0.6384	0.582
Mof_C 	C 	0.36846	0.8263	0.6725	-0.259
Mof_C 	C 	0.2952	0.74681	0.7357	0.345
Mof_C 	C 	0.3755	0.7714	0.6478	0.166
Mof_H 	H 	0.4053	0.7611	0.6094	0.017
Mof_C 	C 	0.3389	0.73167	0.6795	-0.203
Mof_H 	H 	0.3437	0.6942	0.6626	1.234
Mof_C 	C 	0.3248	0.84145	0.7287	0.122
Mof_H 	H 	0.32	0.879	0.7456	-0.029
Mof_C 	C 	0.2882	0.8017	0.7603	-0.378
Mof_O 	O 	0.2415	0.8176	0.8204	-1.241
Mof_C 	C 	0.2317	0.8761	0.838	0.609
Mof_H 	H 	0.1997	0.8801	0.8789	-0.058
Mof_H 	H 	0.2245	0.8953	0.7806	-0.071
Mof_H 	H 	0.2642	0.8922	0.8678	-0.114
Mof_C 	C 	0.3712	0.7728	0.6388	0.128
Mof_H 	H 	0.398	0.7634	0.5941	-0.033
Mof_C 	C 	0.3346	0.7331	0.6703	-0.406
Mof_C 	C 	0.3292	0.8401	0.7378	0.157
Mof_H 	H 	0.3273	0.8766	0.7609	0.009
Mof_C 	C 	0.2925	0.8003	0.7694	-0.187
Mof_H 	H 	0.2657	0.8097	0.8141	1.176
Mof_O 	O 	0.3373	0.6763	0.6347	-1.331
Mof_C 	C 	0.3901	0.6581	0.596	0.542
Mof_H 	H 	0.3872	0.6195	0.5772	-0.061
Mof_H 	H 	0.4191	0.6618	0.6425	-0.123
Mof_H 	H 	0.3993	0.681	0.543	-0.078
Mof_O 	O 	0.9183	0.3975	0.8369	-0.704
Mof_O 	O 	0.8523	0.447	0.9107	-0.66
Mof_C 	C 	0.8692	0.408	0.8616	0.582
Mof_C 	C 	0.8263	0.36846	0.8275	-0.256
Mof_C 	C 	0.74681	0.2952	0.7643	0.339
Mof_C 	C 	0.7714	0.3755	0.8522	0.165
Mof_H 	H 	0.7611	0.4053	0.8906	0.022
Mof_C 	C 	0.73167	0.3389	0.8205	-0.197
Mof_H 	H 	0.6942	0.3437	0.8374	1.208
Mof_C 	C 	0.84145	0.3248	0.7713	0.119
Mof_H 	H 	0.879	0.32	0.7544	-0.031
Mof_C 	C 	0.8017	0.2882	0.7397	-0.379
Mof_O 	O 	0.8176	0.2415	0.6796	-1.247
Mof_C 	C 	0.8761	0.2317	0.662	0.618
Mof_H 	H 	0.8801	0.1997	0.6211	-0.064
Mof_H 	H 	0.8953	0.2245	0.7194	-0.073
Mof_H 	H 	0.8922	0.2642	0.6322	-0.12
Mof_C 	C 	0.7728	0.3712	0.8612	0.124
Mof_H 	H 	0.7634	0.398	0.9059	-0.034
Mof_C 	C 	0.7331	0.3346	0.8297	-0.398
Mof_C 	C 	0.8401	0.3292	0.7622	0.158
Mof_H 	H 	0.8766	0.3273	0.7391	0.012
Mof_C 	C 	0.8003	0.2925	0.7306	-0.186
Mof_H 	H 	0.8097	0.2657	0.6859	1.178
Mof_O 	O 	0.6763	0.3373	0.8653	-1.298
Mof_C 	C 	0.6581	0.3901	0.904	0.506
Mof_H 	H 	0.6195	0.3872	0.9228	-0.045
Mof_H 	H 	0.6618	0.4191	0.8575	-0.111
Mof_H 	H 	0.681	0.3993	0.957	-0.056
Mof_O 	O 	0.0817	0.6025	0.8369	-0.822
Mof_O 	O 	0.1477	0.553	0.9107	-0.672
Mof_C 	C 	0.1308	0.592	0.8616	0.604
Mof_C 	C 	0.1737	0.63154	0.8275	-0.295
Mof_C 	C 	0.25319	0.7048	0.7643	0.366
Mof_C 	C 	0.2286	0.6245	0.8522	0.172
Mof_H 	H 	0.2389	0.5947	0.8906	0.021
Mof_C 	C 	0.26833	0.6611	0.8205	-0.204
Mof_H 	H 	0.3058	0.6563	0.8374	1.214
Mof_C 	C 	0.15855	0.6752	0.7713	0.129
Mof_H 	H 	0.121	0.68	0.7544	-0.055
Mof_C 	C 	0.1983	0.7118	0.7397	-0.416
Mof_O 	O 	0.1824	0.7585	0.6796	-1.362
Mof_C 	C 	0.1239	0.7683	0.662	0.801
Mof_H 	H 	0.1199	0.8003	0.6211	-0.137
Mof_H 	H 	0.1047	0.7755	0.7194	-0.175
Mof_H 	H 	0.1078	0.7358	0.6322	-0.228
Mof_C 	C 	0.2272	0.6288	0.8612	0.13
Mof_H 	H 	0.2366	0.602	0.9059	-0.038
Mof_C 	C 	0.2669	0.6654	0.8297	-0.407
Mof_C 	C 	0.1599	0.6708	0.7622	0.169
Mof_H 	H 	0.1234	0.6727	0.7391	-0.012
Mof_C 	C 	0.1997	0.7075	0.7306	-0.209
Mof_H 	H 	0.1903	0.7343	0.6859	1.269
Mof_O 	O 	0.3237	0.6627	0.8653	-1.298
Mof_C 	C 	0.3419	0.6099	0.904	0.506
Mof_H 	H 	0.3805	0.6128	0.9228	-0.043
Mof_H 	H 	0.3382	0.5809	0.8575	-0.112
Mof_H 	H 	0.319	0.6007	0.957	-0.056
Mof_O 	O 	0.3975	0.0817	0.3369	-0.831
Mof_O 	O 	0.447	0.1477	0.4107	-0.681
Mof_C 	C 	0.408	0.1308	0.3616	0.607
Mof_C 	C 	0.36846	0.1737	0.3275	-0.307
Mof_C 	C 	0.2952	0.25319	0.2643	0.372
Mof_C 	C 	0.3755	0.2286	0.3522	0.175
Mof_H 	H 	0.4053	0.2389	0.3906	0.015
Mof_C 	C 	0.3389	0.26833	0.3205	-0.214
Mof_H 	H 	0.3437	0.3058	0.3374	1.255
Mof_C 	C 	0.3248	0.15855	0.2713	0.135
Mof_H 	H 	0.32	0.121	0.2544	-0.057
Mof_C 	C 	0.2882	0.1983	0.2397	-0.439
Mof_O 	O 	0.2415	0.1824	0.1796	-1.46
Mof_C 	C 	0.2317	0.1239	0.162	0.923
Mof_H 	H 	0.1997	0.1199	0.1211	-0.209
Mof_H 	H 	0.2245	0.1047	0.2194	-0.233
Mof_H 	H 	0.2642	0.1078	0.1322	-0.275
Mof_C 	C 	0.3712	0.2272	0.3612	0.135
Mof_H 	H 	0.398	0.2366	0.4059	-0.038
Mof_C 	C 	0.3346	0.2669	0.3297	-0.421
Mof_C 	C 	0.3292	0.1599	0.2622	0.174
Mof_H 	H 	0.3273	0.1234	0.2391	-0.018
Mof_C 	C 	0.2925	0.1997	0.2306	-0.221
Mof_H 	H 	0.2657	0.1903	0.1859	1.344
Mof_O 	O 	0.3373	0.3237	0.3653	-1.351
Mof_C 	C 	0.3901	0.3419	0.404	0.556
Mof_H 	H 	0.3872	0.3805	0.4228	-0.065
Mof_H 	H 	0.4191	0.3382	0.3575	-0.13
Mof_H 	H 	0.3993	0.319	0.457	-0.082
Mof_O 	O 	0.6025	0.9183	0.3369	-0.706
Mof_O 	O 	0.553	0.8523	0.4107	-0.668
Mof_C 	C 	0.592	0.8692	0.3616	0.581
Mof_C 	C 	0.63154	0.8263	0.3275	-0.256
Mof_C 	C 	0.7048	0.74681	0.2643	0.341
Mof_C 	C 	0.6245	0.7714	0.3522	0.164
Mof_H 	H 	0.5947	0.7611	0.3906	0.018
Mof_C 	C 	0.6611	0.73167	0.3205	-0.199
Mof_H 	H 	0.6563	0.6942	0.3374	1.219
Mof_C 	C 	0.6752	0.84145	0.2713	0.115
Mof_H 	H 	0.68	0.879	0.2544	-0.033
Mof_C 	C 	0.7118	0.8017	0.2397	-0.366
Mof_O 	O 	0.7585	0.8176	0.1796	-1.183
Mof_C 	C 	0.7683	0.8761	0.162	0.534
Mof_H 	H 	0.8003	0.8801	0.1211	-0.013
Mof_H 	H 	0.7755	0.8953	0.2194	-0.031
Mof_H 	H 	0.7358	0.8922	0.1322	-0.093
Mof_C 	C 	0.6288	0.7728	0.3612	0.124
Mof_H 	H 	0.602	0.7634	0.4059	-0.034
Mof_C 	C 	0.6654	0.7331	0.3297	-0.402
Mof_C 	C 	0.6708	0.8401	0.2622	0.155
Mof_H 	H 	0.6727	0.8766	0.2391	0.016
Mof_C 	C 	0.7075	0.8003	0.2306	-0.18
Mof_H 	H 	0.7343	0.8097	0.1859	1.129
Mof_O 	O 	0.6627	0.6763	0.3653	-1.311
Mof_C 	C 	0.6099	0.6581	0.404	0.531
Mof_H 	H 	0.6128	0.6195	0.4228	-0.057
Mof_H 	H 	0.5809	0.6618	0.3575	-0.12
Mof_H 	H 	0.6007	0.681	0.457	-0.076
Mof_O 	O 	0.9183	0.6025	0.8369	-0.701
Mof_O 	O 	0.8523	0.553	0.9107	-0.66
Mof_C 	C 	0.8692	0.592	0.8616	0.58
Mof_C 	C 	0.8263	0.63154	0.8275	-0.25
Mof_C 	C 	0.74681	0.7048	0.7643	0.337
Mof_C 	C 	0.7714	0.6245	0.8522	0.163
Mof_H 	H 	0.7611	0.5947	0.8906	0.023
Mof_C 	C 	0.73167	0.6611	0.8205	-0.194
Mof_H 	H 	0.6942	0.6563	0.8374	1.195
Mof_C 	C 	0.84145	0.6752	0.7713	0.114
Mof_H 	H 	0.879	0.68	0.7544	-0.031
Mof_C 	C 	0.8017	0.7118	0.7397	-0.361
Mof_O 	O 	0.8176	0.7585	0.6796	-1.164
Mof_C 	C 	0.8761	0.7683	0.662	0.513
Mof_H 	H 	0.8801	0.8003	0.6211	-0.001
Mof_H 	H 	0.8953	0.7755	0.7194	-0.023
Mof_H 	H 	0.8922	0.7358	0.6322	-0.082
Mof_C 	C 	0.7728	0.6288	0.8612	0.122
Mof_H 	H 	0.7634	0.602	0.9059	-0.034
Mof_C 	C 	0.7331	0.6654	0.8297	-0.393
Mof_C 	C 	0.8401	0.6708	0.7622	0.153
Mof_H 	H 	0.8766	0.6727	0.7391	0.016
Mof_C 	C 	0.8003	0.7075	0.7306	-0.177
Mof_H 	H 	0.8097	0.7343	0.6859	1.115
Mof_O 	O 	0.6763	0.6627	0.8653	-1.28
Mof_C 	C 	0.6581	0.6099	0.904	0.494
Mof_H 	H 	0.6195	0.6128	0.9228	-0.04
Mof_H 	H 	0.6618	0.5809	0.8575	-0.107
Mof_H 	H 	0.681	0.6007	0.957	-0.053
Mof_O 	O 	0.0817	0.3975	0.8369	-0.825
Mof_O 	O 	0.1477	0.447	0.9107	-0.672
Mof_C 	C 	0.1308	0.408	0.8616	0.606
Mof_C 	C 	0.1737	0.36846	0.8275	-0.301
Mof_C 	C 	0.25319	0.2952	0.7643	0.367
Mof_C 	C 	0.2286	0.3755	0.8522	0.174
Mof_H 	H 	0.2389	0.4053	0.8906	0.02
Mof_C 	C 	0.26833	0.3389	0.8205	-0.207
Mof_H 	H 	0.3058	0.3437	0.8374	1.228
Mof_C 	C 	0.15855	0.3248	0.7713	0.134
Mof_H 	H 	0.121	0.32	0.7544	-0.056
Mof_C 	C 	0.1983	0.2882	0.7397	-0.434
Mof_O 	O 	0.1824	0.2415	0.6796	-1.445
Mof_C 	C 	0.1239	0.2317	0.662	0.906
Mof_H 	H 	0.1199	0.1997	0.6211	-0.2
Mof_H 	H 	0.1047	0.2245	0.7194	-0.226
Mof_H 	H 	0.1078	0.2642	0.6322	-0.267
Mof_C 	C 	0.2272	0.3712	0.8612	0.132
Mof_H 	H 	0.2366	0.398	0.9059	-0.039
Mof_C 	C 	0.2669	0.3346	0.8297	-0.412
Mof_C 	C 	0.1599	0.3292	0.7622	0.173
Mof_H 	H 	0.1234	0.3273	0.7391	-0.016
Mof_C 	C 	0.1997	0.2925	0.7306	-0.218
Mof_H 	H 	0.1903	0.2657	0.6859	1.332
Mof_O 	O 	0.3237	0.3373	0.8653	-1.316
Mof_C 	C 	0.3419	0.3901	0.904	0.517
Mof_H 	H 	0.3805	0.3872	0.9228	-0.048
Mof_H 	H 	0.3382	0.4191	0.8575	-0.116
Mof_H 	H 	0.319	0.3993	0.957	-0.059
Mof_O 	O 	0.3975	0.9183	0.3369	-0.71
Mof_O 	O 	0.447	0.8523	0.4107	-0.669
Mof_C 	C 	0.408	0.8692	0.3616	0.582
Mof_C 	C 	0.36846	0.8263	0.3275	-0.262
Mof_C 	C 	0.2952	0.74681	0.2643	0.343
Mof_C 	C 	0.3755	0.7714	0.3522	0.166
Mof_H 	H 	0.4053	0.7611	0.3906	0.017
Mof_C 	C 	0.3389	0.73167	0.3205	-0.203
Mof_H 	H 	0.3437	0.6942	0.3374	1.234
Mof_C 	C 	0.3248	0.84145	0.2713	0.121
Mof_H 	H 	0.32	0.879	0.2544	-0.033
Mof_C 	C 	0.2882	0.8017	0.2397	-0.384
Mof_O 	O 	0.2415	0.8176	0.1796	-1.263
Mof_C 	C 	0.2317	0.8761	0.162	0.636
Mof_H 	H 	0.1997	0.8801	0.1211	-0.074
Mof_H 	H 	0.2245	0.8953	0.2194	-0.081
Mof_H 	H 	0.2642	0.8922	0.1322	-0.129
Mof_C 	C 	0.3712	0.7728	0.3612	0.127
Mof_H 	H 	0.398	0.7634	0.4059	-0.034
Mof_C 	C 	0.3346	0.7331	0.3297	-0.407
Mof_C 	C 	0.3292	0.8401	0.2622	0.159
Mof_H 	H 	0.3273	0.8766	0.2391	0.011
Mof_C 	C 	0.2925	0.8003	0.2306	-0.189
Mof_H 	H 	0.2657	0.8097	0.1859	1.19
Mof_O 	O 	0.3373	0.6763	0.3653	-1.332
Mof_C 	C 	0.3901	0.6581	0.404	0.544
Mof_H 	H 	0.3872	0.6195	0.4228	-0.062
Mof_H 	H 	0.4191	0.6618	0.3575	-0.124
Mof_H 	H 	0.3993	0.681	0.457	-0.079
Mof_O 	O 	0.6025	0.0817	0.3369	-0.828
Mof_O 	O 	0.553	0.1477	0.4107	-0.681
Mof_C 	C 	0.592	0.1308	0.3616	0.605
Mof_C 	C 	0.63154	0.1737	0.3275	-0.301
Mof_C 	C 	0.7048	0.25319	0.2643	0.37
Mof_C 	C 	0.6245	0.2286	0.3522	0.173
Mof_H 	H 	0.5947	0.2389	0.3906	0.016
Mof_C 	C 	0.6611	0.26833	0.3205	-0.21
Mof_H 	H 	0.6563	0.3058	0.3374	1.239
Mof_C 	C 	0.6752	0.15855	0.2713	0.13
Mof_H 	H 	0.68	0.121	0.2544	-0.056
Mof_C 	C 	0.7118	0.1983	0.2397	-0.422
Mof_O 	O 	0.7585	0.1824	0.1796	-1.38
Mof_C 	C 	0.7683	0.1239	0.162	0.821
Mof_H 	H 	0.8003	0.1199	0.1211	-0.148
Mof_H 	H 	0.7755	0.1047	0.2194	-0.183
Mof_H 	H 	0.7358	0.1078	0.1322	-0.239
Mof_C 	C 	0.6288	0.2272	0.3612	0.133
Mof_H 	H 	0.602	0.2366	0.4059	-0.038
Mof_C 	C 	0.6654	0.2669	0.3297	-0.416
Mof_C 	C 	0.6708	0.1599	0.2622	0.17
Mof_H 	H 	0.6727	0.1234	0.2391	-0.013
Mof_C 	C 	0.7075	0.1997	0.2306	-0.212
Mof_H 	H 	0.7343	0.1903	0.1859	1.283
Mof_O 	O 	0.6627	0.3237	0.3653	-1.33
Mof_C 	C 	0.6099	0.3419	0.404	0.543
Mof_H 	H 	0.6128	0.3805	0.4228	-0.06
Mof_H 	H 	0.5809	0.3382	0.3575	-0.126
Mof_H 	H 	0.6007	0.319	0.457	-0.079
Mof_O 	O 	0.0817	0.6025	0.1631	-0.828
Mof_O 	O 	0.1477	0.553	0.0893	-0.685
Mof_C 	C 	0.1308	0.592	0.1384	0.606
Mof_C 	C 	0.1737	0.63154	0.1725	-0.305
Mof_C 	C 	0.25319	0.7048	0.2357	0.376
Mof_C 	C 	0.2286	0.6245	0.1478	0.174
Mof_H 	H 	0.2389	0.5947	0.1094	0.01
Mof_C 	C 	0.26833	0.6611	0.1795	-0.216
Mof_H 	H 	0.3058	0.6563	0.1626	1.265
Mof_C 	C 	0.15855	0.6752	0.2287	0.132
Mof_H 	H 	0.121	0.68	0.2456	-0.054
Mof_C 	C 	0.1983	0.7118	0.2603	-0.421
Mof_O 	O 	0.1824	0.7585	0.3204	-1.373
Mof_C 	C 	0.1239	0.7683	0.338	0.812
Mof_H 	H 	0.1199	0.8003	0.3789	-0.141
Mof_H 	H 	0.1047	0.7755	0.2806	-0.181
Mof_H 	H 	0.1078	0.7358	0.3678	-0.232
Mof_C 	C 	0.2272	0.6288	0.1388	0.136
Mof_H 	H 	0.2366	0.602	0.0941	-0.037
Mof_C 	C 	0.2669	0.6654	0.1703	-0.424
Mof_C 	C 	0.1599	0.6708	0.2378	0.17
Mof_H 	H 	0.1234	0.6727	0.2609	-0.015
Mof_C 	C 	0.1997	0.7075	0.2694	-0.214
Mof_H 	H 	0.1903	0.7343	0.3141	1.28
Mof_O 	O 	0.3237	0.6627	0.1347	-1.363
Mof_C 	C 	0.3419	0.6099	0.096	0.58
Mof_H 	H 	0.3805	0.6128	0.0772	-0.076
Mof_H 	H 	0.3382	0.5809	0.1425	-0.138
Mof_H 	H 	0.319	0.6007	0.043	-0.101
Mof_O 	O 	0.9183	0.3975	0.1631	-0.711
Mof_O 	O 	0.8523	0.447	0.0893	-0.674
Mof_C 	C 	0.8692	0.408	0.1384	0.584
Mof_C 	C 	0.8263	0.36846	0.1725	-0.265
Mof_C 	C 	0.74681	0.2952	0.2357	0.349
Mof_C 	C 	0.7714	0.3755	0.1478	0.167
Mof_H 	H 	0.7611	0.4053	0.1094	0.012
Mof_C 	C 	0.73167	0.3389	0.1795	-0.209
Mof_H 	H 	0.6942	0.3437	0.1626	1.26
Mof_C 	C 	0.84145	0.3248	0.2287	0.123
Mof_H 	H 	0.879	0.32	0.2456	-0.03
Mof_C 	C 	0.8017	0.2882	0.2603	-0.384
Mof_O 	O 	0.8176	0.2415	0.3204	-1.258
Mof_C 	C 	0.8761	0.2317	0.338	0.629
Mof_H 	H 	0.8801	0.1997	0.3789	-0.068
Mof_H 	H 	0.8953	0.2245	0.2806	-0.08
Mof_H 	H 	0.8922	0.2642	0.3678	-0.124
Mof_C 	C 	0.7728	0.3712	0.1388	0.131
Mof_H 	H 	0.7634	0.398	0.0941	-0.033
Mof_C 	C 	0.7331	0.3346	0.1703	-0.415
Mof_C 	C 	0.8401	0.3292	0.2378	0.159
Mof_H 	H 	0.8766	0.3273	0.2609	0.008
Mof_C 	C 	0.8003	0.2925	0.2694	-0.191
Mof_H 	H 	0.8097	0.2657	0.3141	1.189
Mof_O 	O 	0.6763	0.3373	0.1347	-1.365
Mof_C 	C 	0.6581	0.3901	0.096	0.581
Mof_H 	H 	0.6195	0.3872	0.0772	-0.079
Mof_H 	H 	0.6618	0.4191	0.1425	-0.136
Mof_H 	H 	0.681	0.3993	0.043	-0.102
Mof_O 	O 	0.6025	0.9183	0.6631	-0.704
Mof_O 	O 	0.553	0.8523	0.5893	-0.667
Mof_C 	C 	0.592	0.8692	0.6384	0.581
Mof_C 	C 	0.63154	0.8263	0.6725	-0.254
Mof_C 	C 	0.7048	0.74681	0.7357	0.343
Mof_C 	C 	0.6245	0.7714	0.6478	0.164
Mof_H 	H 	0.5947	0.7611	0.6094	0.018
Mof_C 	C 	0.6611	0.73167	0.6795	-0.2
Mof_H 	H 	0.6563	0.6942	0.6626	1.219
Mof_C 	C 	0.6752	0.84145	0.7287	0.116
Mof_H 	H 	0.68	0.879	0.7456	-0.029
Mof_C 	C 	0.7118	0.8017	0.7603	-0.36
Mof_O 	O 	0.7585	0.8176	0.8204	-1.16
Mof_C 	C 	0.7683	0.8761	0.838	0.507
Mof_H 	H 	0.8003	0.8801	0.8789	0.003
Mof_H 	H 	0.7755	0.8953	0.7806	-0.021
Mof_H 	H 	0.7358	0.8922	0.8678	-0.077
Mof_C 	C 	0.6288	0.7728	0.6388	0.125
Mof_H 	H 	0.602	0.7634	0.5941	-0.033
Mof_C 	C 	0.6654	0.7331	0.6703	-0.401
Mof_C 	C 	0.6708	0.8401	0.7378	0.153
Mof_H 	H 	0.6727	0.8766	0.7609	0.014
Mof_C 	C 	0.7075	0.8003	0.7694	-0.179
Mof_H 	H 	0.7343	0.8097	0.8141	1.114
Mof_O 	O 	0.6627	0.6763	0.6347	-1.31
Mof_C 	C 	0.6099	0.6581	0.596	0.529
Mof_H 	H 	0.6128	0.6195	0.5772	-0.056
Mof_H 	H 	0.5809	0.6618	0.6425	-0.119
Mof_H 	H 	0.6007	0.681	0.543	-0.075
Mof_O 	O 	0.3975	0.0817	0.6631	-0.829
Mof_O 	O 	0.447	0.1477	0.5893	-0.68
Mof_C 	C 	0.408	0.1308	0.6384	0.607
Mof_C 	C 	0.36846	0.1737	0.6725	-0.305
Mof_C 	C 	0.2952	0.25319	0.7357	0.374
Mof_C 	C 	0.3755	0.2286	0.6478	0.174
Mof_H 	H 	0.4053	0.2389	0.6094	0.014
Mof_C 	C 	0.3389	0.26833	0.6795	-0.214
Mof_H 	H 	0.3437	0.3058	0.6626	1.254
Mof_C 	C 	0.3248	0.15855	0.7287	0.136
Mof_H 	H 	0.32	0.121	0.7456	-0.053
Mof_C 	C 	0.2882	0.1983	0.7603	-0.433
Mof_O 	O 	0.2415	0.1824	0.8204	-1.438
Mof_C 	C 	0.2317	0.1239	0.838	0.897
Mof_H 	H 	0.1997	0.1199	0.8789	-0.193
Mof_H 	H 	0.2245	0.1047	0.7806	-0.224
Mof_H 	H 	0.2642	0.1078	0.8678	-0.26
Mof_C 	C 	0.3712	0.2272	0.6388	0.136
Mof_H 	H 	0.398	0.2366	0.5941	-0.037
Mof_C 	C 	0.3346	0.2669	0.6703	-0.42
Mof_C 	C 	0.3292	0.1599	0.7378	0.172
Mof_H 	H 	0.3273	0.1234	0.7609	-0.019
Mof_C 	C 	0.2925	0.1997	0.7694	-0.219
Mof_H 	H 	0.2657	0.1903	0.8141	1.33
Mof_O 	O 	0.3373	0.3237	0.6347	-1.35
Mof_C 	C 	0.3901	0.3419	0.596	0.554
Mof_H 	H 	0.3872	0.3805	0.5772	-0.065
Mof_H 	H 	0.4191	0.3382	0.6425	-0.128
Mof_H 	H 	0.3993	0.319	0.543	-0.082
Mof_Zr	Zr	0.10038	0.5	-0	3.207
Mof_Zr	Zr	0.89962	0.5	-0	3.207
Mof_Zr	Zr	0.5	0.10038	0.5	3.209
Mof_Zr	Zr	0.5	0.89962	0.5	3.209
Mof_Zr	Zr	3.20456e-33	0.42775	0.11979	3.149
Mof_Zr	Zr	-2.66347e-33	0.57225	0.11979	3.15
Mof_Zr	Zr	0.57225	-2.93402e-33	0.61979	3.149
Mof_Zr	Zr	0.42775	-2.93402e-33	0.61979	3.149
Mof_Zr	Zr	7.85597e-33	0.42775	0.88021	3.151
Mof_Zr	Zr	-3.8801e-33	0.57225	0.88021	3.151
Mof_Zr	Zr	0.42775	0	0.38021	3.149
Mof_Zr	Zr	0.57225	0	0.38021	3.149
Mof_O 	O 	0.0502	0.4257	-0	-1.433
Mof_O 	O 	0.9498	0.5743	-0	-1.266
Mof_O 	O 	0.5743	0.0502	0.5	-1.423
Mof_O 	O 	0.4257	0.9498	0.5	-1.254
Mof_O 	O 	0.9498	0.4257	-0	-1.268
Mof_O 	O 	0.0502	0.5743	-0	-1.431
Mof_O 	O 	0.4257	0.0502	0.5	-1.426
Mof_O 	O 	0.5743	0.9498	0.5	-1.252
Mof_O 	O 	0.05	0.5	0.1273	-1.401
Mof_O 	O 	0.95	0.5	0.1273	-1.228
Mof_O 	O 	0.5	0.05	0.6273	-1.401
Mof_O 	O 	0.5	0.95	0.6273	-1.225
Mof_O 	O 	0.95	0.5	0.8727	-1.22
Mof_O 	O 	0.05	0.5	0.8727	-1.394
Mof_O 	O 	0.5	0.05	0.3727	-1.403
Mof_O 	O 	0.5	0.95	0.3727	-1.227
_end
