data_functionalizedCrystal
_audit_creation_method	'EQeq! by Chris Wilmer'
_symmetry_space_group_name_H-M	'P1'
_symmetry_Int_Tables_number	1
_symmetry_cell_setting	triclinic
loop_
_symmetry_equiv_pos_as_xyz
  x,y,z
_cell_length_a	8.969
_cell_length_b	9.419
_cell_length_c	17.29
_cell_angle_alpha	100.468
_cell_angle_beta	92.754
_cell_angle_gamma	117.702
loop_
_atom_site_label
_atom_site_type_symbol
_atom_site_fract_x
_atom_site_fract_y
_atom_site_fract_z
_atom_site_charge
Mof_Cd	Cd	0.45725	0.84964	0.79928	0.454
Mof_Cd	Cd	0.54275	0.15036	0.20072	0.437
Mof_Cd	Cd	0.5	0	-0	0.461
Mof_H 	H 	0.251	0.449	0.992	0.107
Mof_H 	H 	0.4476	0.4131	0.9125	0.055
Mof_H 	H 	0.3135	0.3515	0.8357	0.065
Mof_H 	H 	0.297	0.179	0.965	0.079
Mof_H 	H 	0.015	0.9706	0.884	0.068
Mof_H 	H 	0.0391	0.0668	0.8164	0.059
Mof_H 	H 	0.975	0.166	0.964	0.135
Mof_H 	H 	0.9906	0.4004	0.9342	0.035
Mof_H 	H 	0.0281	0.3455	0.8494	0.049
Mof_H 	H 	0.2332	0.5028	0.6922	0.013
Mof_H 	H 	0.0514	0.3547	0.5757	0.081
Mof_H 	H 	0.1136	0.7739	0.5291	0.083
Mof_H 	H 	0.2932	0.9119	0.6471	0.028
Mof_H 	H 	0.749	0.551	0.008	0.094
Mof_H 	H 	0.5524	0.5869	0.0875	0.035
Mof_H 	H 	0.6865	0.6485	0.1643	0.057
Mof_H 	H 	0.703	0.821	0.035	0.074
Mof_H 	H 	0.985	0.0294	0.116	0.008
Mof_H 	H 	0.9609	0.9332	0.1836	0.037
Mof_H 	H 	0.025	0.834	0.036	0.145
Mof_H 	H 	0.0094	0.5996	0.0658	0.024
Mof_H 	H 	0.9719	0.6545	0.1506	0.043
Mof_H 	H 	0.7668	0.4972	0.3078	0.015
Mof_H 	H 	0.9486	0.6453	0.4243	0.079
Mof_H 	H 	0.8864	0.2261	0.4709	0.073
Mof_H 	H 	0.7068	0.0881	0.3529	0.02
Mof_C 	C 	0.3112	0.6162	0.9249	0.342
Mof_C 	C 	0.2363	0.4402	0.9359	-0.171
Mof_C 	C 	0.3268	0.3526	0.8918	-0.035
Mof_C 	C 	0.2537	0.1756	0.9019	-0.103
Mof_C 	C 	0.3302	0.0821	0.852	0.295
Mof_C 	C 	0.0605	0.0797	0.8735	-0.045
Mof_C 	C 	0.9685	0.167	0.9148	-0.218
Mof_C 	C 	0.7811	0.0646	0.8809	0.319
Mof_C 	C 	0.0467	0.3458	0.9052	0.026
Mof_C 	C 	0.2085	0.5592	0.6591	0.087
Mof_C 	C 	0.0986	0.4688	0.5887	-0.138
Mof_C 	C 	0.0589	0.5458	0.5382	0.069
Mof_C 	C 	0.1353	0.7149	0.5616	-0.134
Mof_C 	C 	0.2437	0.7976	0.6328	0.083
Mof_C 	C 	0.6888	0.3838	0.0751	0.346
Mof_C 	C 	0.7637	0.5598	0.0641	-0.187
Mof_C 	C 	0.6732	0.6474	0.1082	-0.01
Mof_C 	C 	0.7463	0.8244	0.0981	-0.144
Mof_C 	C 	0.6698	0.9179	0.148	0.342
Mof_C 	C 	0.9395	0.9203	0.1265	0.048
Mof_C 	C 	0.0315	0.833	0.0852	-0.263
Mof_C 	C 	0.2189	0.9354	0.1191	0.37
Mof_C 	C 	0.9533	0.6542	0.0948	0.035
Mof_C 	C 	0.7915	0.4408	0.3409	0.081
Mof_C 	C 	0.9014	0.5312	0.4113	-0.13
Mof_C 	C 	0.9411	0.4542	0.4618	0.054
Mof_C 	C 	0.8647	0.2851	0.4384	-0.128
Mof_C 	C 	0.7563	0.2024	0.3672	0.076
Mof_N 	N 	0.2806	0.7214	0.6821	-0.156
Mof_N 	N 	0.7194	0.2786	0.3179	-0.156
Mof_O 	O 	0.3188	0.6339	0.8548	-0.293
Mof_O 	O 	0.3597	0.728	0.9867	-0.275
Mof_O 	O 	0.7292	0.0728	0.8138	-0.284
Mof_O 	O 	0.6841	0.9626	0.9178	-0.277
Mof_O 	O 	0.3587	0.0972	0.7843	-0.261
Mof_O 	O 	0.3516	0.9792	0.8834	-0.274
Mof_O 	O 	0.6812	0.3661	0.1452	-0.297
Mof_O 	O 	0.6403	0.272	0.0133	-0.311
Mof_O 	O 	0.2708	0.9272	0.1862	-0.282
Mof_O 	O 	0.3159	0.0374	0.0822	-0.331
Mof_O 	O 	0.6413	0.9028	0.2157	-0.261
Mof_O 	O 	0.6484	0.0208	0.1166	-0.322
_end
