data_functionalizedCrystal
_audit_creation_method	'EQeq! by Chris Wilmer'
_symmetry_space_group_name_H-M	'P1'
_symmetry_Int_Tables_number	1
_symmetry_cell_setting	triclinic
loop_
_symmetry_equiv_pos_as_xyz
  x,y,z
_cell_length_a	10.8093
_cell_length_b	14.3476
_cell_length_c	10.8243
_cell_angle_alpha	90
_cell_angle_beta	103.559
_cell_angle_gamma	90
loop_
_atom_site_label
_atom_site_type_symbol
_atom_site_fract_x
_atom_site_fract_y
_atom_site_fract_z
_atom_site_charge
Mof_C 	C 	0.6258	0.09061	0.0598	-0.015
Mof_H 	H 	0.689	0.0433	0.0735	-0.076
Mof_C 	C 	0.1329	0.74734	0.4211	-0.079
Mof_H 	H 	0.0724	0.7965	0.4072	-0.203
Mof_C 	C 	0.1224	0.67836	0.5071	0.165
Mof_H 	H 	0.0549	0.68	0.5496	-0.113
Mof_Li	Li	0.4696	0.4826	0.7443	4.086
Mof_O 	O 	0.96551	0.37736	0.84329	-2.042
Mof_C 	C 	0.04375	0.24561	0.97073	-0.463
Mof_N 	N 	0.73495	0.75282	0.38151	-0.66
Mof_N 	N 	0.02517	0.10256	0.1414	-0.346
Mof_O 	O 	0.78777	0.47123	0.66526	-2.035
Mof_C 	C 	0.05868	0.32398	0.8808	1.215
Mof_C 	C 	0.71116	0.60559	0.5437	-0.544
Mof_C 	C 	0.1157	0.16487	0.9766	0.157
Mof_H 	H 	0.1731	0.1572	0.923	-0.083
Mof_C 	C 	0.1023	0.09565	0.062	-0.026
Mof_H 	H 	0.1509	0.0402	0.064	-0.059
Mof_C 	C 	0.961	0.25298	0.05092	0.11
Mof_H 	H 	0.9086	0.3065	0.0483	-0.125
Mof_C 	C 	0.6944	0.52548	0.62875	1.184
Mof_O 	O 	0.09235	0.52098	0.64832	-1.531
Mof_O 	O 	0.6688	0.33885	0.87327	-1.53
Mof_C 	C 	0.6577	0.7589	0.4623	-0.116
Mof_H 	H 	0.6119	0.8151	0.4644	-0.175
Mof_O 	O 	0.29066	0.47426	0.65723	-2.082
Mof_O 	O 	0.163	0.32892	0.85167	-1.556
Mof_C 	C 	0.1966	0.52801	0.6199	1.168
Mof_C 	C 	0.9562	0.18083	0.13482	-0.099
Mof_H 	H 	0.9009	0.1872	0.1908	-0.019
Mof_O 	O 	0.45904	0.36166	0.82628	-2.064
Mof_C 	C 	0.8002	0.67363	0.3823	-0.08
Mof_H 	H 	0.8539	0.6678	0.3247	-0.09
Mof_C 	C 	0.7935	0.59936	0.4629	0.16
Mof_H 	H 	0.8443	0.5453	0.4627	-0.165
Mof_N 	N 	0.22483	0.74822	0.35595	-0.665
Mof_C 	C 	0.642	0.68707	0.5424	0.194
Mof_H 	H 	0.5843	0.6935	0.596	-0.144
Mof_O 	O 	0.58918	0.51864	0.65581	-1.602
Mof_Li	Li	0.2736	0.3583	0.7479	3.972
Mof_C 	C 	0.6366	0.16353	0.97885	0.158
Mof_H 	H 	0.7066	0.1664	0.9397	-0.109
Mof_C 	C 	0.2109	0.60691	0.53117	-0.502
Mof_Li	Li	0.972	0.4895	0.7392	3.803
Mof_C 	C 	0.3106	0.67917	0.3805	-0.046
Mof_H 	H 	0.3764	0.6787	0.3357	-0.104
Mof_N 	N 	0.53102	0.08346	0.11969	-0.357
Mof_C 	C 	0.55717	0.31735	0.87747	1.16
Mof_C 	C 	0.441	0.1495	0.0952	-0.096
Mof_H 	H 	0.3726	0.1453	0.1363	-0.014
Mof_C 	C 	0.5435	0.23236	0.95591	-0.517
Mof_C 	C 	0.3089	0.60828	0.4673	0.138
Mof_H 	H 	0.3732	0.5617	0.4829	-0.142
Mof_Li	Li	0.782	0.3601	0.7659	3.947
Mof_C 	C 	0.442	0.22374	0.0136	0.218
Mof_H 	H 	0.3746	0.2679	0.9974	-0.17
Mof_C 	C 	0.3742	0.59061	0.9402	-0.021
Mof_H 	H 	0.311	0.5433	0.9265	-0.214
Mof_C 	C 	0.8671	0.24734	0.5789	-0.017
Mof_H 	H 	0.9276	0.2965	0.5928	-0.245
Mof_C 	C 	0.8776	0.17836	0.4929	0.099
Mof_H 	H 	0.9451	0.18	0.4504	-0.084
Mof_Li	Li	0.5304	0.9826	0.2557	2.247
Mof_O 	O 	0.03449	0.87736	0.15671	-1.788
Mof_C 	C 	0.95625	0.74561	0.02927	-0.567
Mof_N 	N 	0.26505	0.25282	0.61849	-0.644
Mof_N 	N 	0.97483	0.60256	0.8586	-0.636
Mof_O 	O 	0.21223	0.97123	0.33474	-2.031
Mof_C 	C 	0.94132	0.82398	0.1192	1.074
Mof_C 	C 	0.28884	0.10559	0.4563	-0.425
Mof_C 	C 	0.8843	0.66487	0.0234	0.191
Mof_H 	H 	0.8269	0.6572	0.077	-0.126
Mof_C 	C 	0.8977	0.59565	0.938	-0.098
Mof_H 	H 	0.8491	0.5402	0.936	-0.187
Mof_C 	C 	0.039	0.75298	0.94908	0.171
Mof_H 	H 	0.0914	0.8065	0.9517	-0.175
Mof_C 	C 	0.3056	0.02548	0.37125	1.236
Mof_O 	O 	0.90765	0.02098	0.35168	-1.146
Mof_O 	O 	0.3312	0.83885	0.12673	-1.547
Mof_C 	C 	0.3423	0.2589	0.5377	-0.032
Mof_H 	H 	0.3881	0.3151	0.5356	-0.189
Mof_O 	O 	0.70934	0.97426	0.34277	-2
Mof_O 	O 	0.837	0.82892	0.14833	-1.58
Mof_C 	C 	0.8034	0.02801	0.3801	1.229
Mof_C 	C 	0.0438	0.68083	0.86518	-0.012
Mof_H 	H 	0.0991	0.6872	0.8092	-0.092
Mof_O 	O 	0.54096	0.86166	0.17372	-1.795
Mof_C 	C 	0.1998	0.17363	0.6177	-0.019
Mof_H 	H 	0.1461	0.1678	0.6753	-0.066
Mof_C 	C 	0.2065	0.09936	0.5371	0.139
Mof_H 	H 	0.1557	0.0453	0.5373	-0.031
Mof_N 	N 	0.77517	0.24822	0.64405	-0.654
Mof_C 	C 	0.358	0.18707	0.4576	0.127
Mof_H 	H 	0.4157	0.1935	0.404	-0.08
Mof_O 	O 	0.41082	0.01864	0.34419	-1.068
Mof_Li	Li	0.7264	0.8583	0.2521	4.164
Mof_C 	C 	0.3634	0.66353	0.02115	0.133
Mof_H 	H 	0.2934	0.6664	0.0603	-0.121
Mof_C 	C 	0.7891	0.10691	0.46883	-0.406
Mof_Li	Li	0.028	0.9895	0.2608	2.403
Mof_C 	C 	0.6894	0.17917	0.6195	-0.003
Mof_H 	H 	0.6236	0.1787	0.6643	-0.099
Mof_N 	N 	0.46898	0.58346	0.88031	-0.664
Mof_C 	C 	0.44283	0.81735	0.12253	1.09
Mof_C 	C 	0.559	0.6495	0.9048	-0.069
Mof_H 	H 	0.6274	0.6453	0.8637	-0.107
Mof_C 	C 	0.4565	0.73236	0.04409	-0.487
Mof_C 	C 	0.6911	0.10828	0.5327	0.11
Mof_H 	H 	0.6268	0.0617	0.5171	-0.024
Mof_Li	Li	0.218	0.8601	0.2341	4.186
Mof_C 	C 	0.558	0.72374	0.9864	0.117
Mof_H 	H 	0.6254	0.7679	0.0026	-0.158
_end
