data_functionalizedCrystal
_audit_creation_method	'EQeq! by Chris Wilmer'
_symmetry_space_group_name_H-M	'P1'
_symmetry_Int_Tables_number	1
_symmetry_cell_setting	triclinic
loop_
_symmetry_equiv_pos_as_xyz
  x,y,z
_cell_length_a	21.323
_cell_length_b	7.14
_cell_length_c	15.23
_cell_angle_alpha	90
_cell_angle_beta	90
_cell_angle_gamma	90
loop_
_atom_site_label
_atom_site_type_symbol
_atom_site_fract_x
_atom_site_fract_y
_atom_site_fract_z
_atom_site_charge
Mof_N 	N 	0.5664	0.1531	0.0611	-0.227
Mof_C 	C 	0.6126	0.901	0.8909	0.172
Mof_H 	H 	0.6236	0.0253	0.8811	-0.064
Mof_C 	C 	0.7034	0.887	0.7381	-0.048
Mof_C 	C 	0.7398	0.888	0.8096	-0.067
Mof_H 	H 	0.6709	0.9777	0.7289	0.048
Mof_H 	H 	0.7337	0.9825	0.8534	0.071
Mof_N 	N 	0.0664	0.6531	0.5611	-0.231
Mof_C 	C 	0.1126	0.401	0.3909	0.094
Mof_H 	H 	0.1236	0.5253	0.3811	-0.032
Mof_C 	C 	0.2034	0.387	0.2381	-0.053
Mof_C 	C 	0.2398	0.388	0.3096	-0.063
Mof_H 	H 	0.1709	0.4777	0.2289	0.029
Mof_H 	H 	0.2337	0.4825	0.3534	0.048
Mof_N 	N 	0.4336	0.3469	0.0611	-0.235
Mof_C 	C 	0.3874	0.599	0.8909	0.112
Mof_H 	H 	0.3764	0.4747	0.8811	-0.022
Mof_C 	C 	0.2966	0.613	0.7381	-0.052
Mof_C 	C 	0.2602	0.612	0.8096	-0.07
Mof_H 	H 	0.3291	0.5223	0.7289	0.038
Mof_H 	H 	0.2663	0.5175	0.8534	0.056
Mof_N 	N 	0.9336	0.8469	0.5611	-0.206
Mof_C 	C 	0.8874	0.099	0.3909	0.043
Mof_H 	H 	0.8764	0.9747	0.3811	0.02
Mof_C 	C 	0.7966	0.113	0.2381	-0.056
Mof_C 	C 	0.7602	0.112	0.3096	-0.065
Mof_H 	H 	0.8291	0.0223	0.2289	0.032
Mof_H 	H 	0.7663	0.0175	0.3534	0.037
Mof_N 	N 	0.4336	0.6531	0.9389	-0.2
Mof_C 	C 	0.3874	0.401	0.1091	0.091
Mof_H 	H 	0.3764	0.5253	0.1189	-0.036
Mof_C 	C 	0.2966	0.387	0.2619	-0.046
Mof_C 	C 	0.2602	0.388	0.1904	-0.066
Mof_H 	H 	0.3291	0.4777	0.2711	0.039
Mof_H 	H 	0.2663	0.4825	0.1466	0.036
Mof_N 	N 	0.9336	0.1531	0.4389	-0.198
Mof_C 	C 	0.8874	0.901	0.6091	0.169
Mof_H 	H 	0.8764	0.0253	0.6189	-0.068
Mof_C 	C 	0.7966	0.887	0.7619	-0.041
Mof_C 	C 	0.7602	0.888	0.6904	-0.07
Mof_H 	H 	0.8291	0.9777	0.7711	0.058
Mof_H 	H 	0.7663	0.9825	0.6466	0.059
Mof_N 	N 	0.5664	0.8469	0.9389	-0.203
Mof_C 	C 	0.6126	0.099	0.1091	0.03
Mof_H 	H 	0.6236	0.9747	0.1189	0.008
Mof_C 	C 	0.7034	0.113	0.2619	-0.048
Mof_C 	C 	0.7398	0.112	0.1904	-0.06
Mof_H 	H 	0.6709	0.0223	0.2711	0.029
Mof_H 	H 	0.7337	0.0175	0.1466	0.027
Mof_N 	N 	0.0664	0.3469	0.4389	-0.233
Mof_C 	C 	0.1126	0.599	0.6091	0.099
Mof_H 	H 	0.1236	0.4747	0.6189	-0.035
Mof_C 	C 	0.2034	0.613	0.7619	-0.044
Mof_C 	C 	0.2398	0.612	0.6904	-0.065
Mof_H 	H 	0.1709	0.5223	0.7711	0.036
Mof_H 	H 	0.2337	0.5175	0.6466	0.045
Mof_N 	N 	0.4336	0.8469	0.9389	-0.203
Mof_C 	C 	0.3874	0.099	0.1091	0.029
Mof_H 	H 	0.3764	0.9747	0.1189	0.008
Mof_C 	C 	0.2966	0.113	0.2619	-0.049
Mof_C 	C 	0.2602	0.112	0.1904	-0.064
Mof_H 	H 	0.3291	0.0223	0.2711	0.029
Mof_H 	H 	0.2663	0.0175	0.1466	0.024
Mof_N 	N 	0.9336	0.3469	0.4389	-0.204
Mof_C 	C 	0.8874	0.599	0.6091	0.109
Mof_H 	H 	0.8764	0.4747	0.6189	-0.026
Mof_C 	C 	0.7966	0.613	0.7619	-0.044
Mof_C 	C 	0.7602	0.612	0.6904	-0.069
Mof_H 	H 	0.8291	0.5223	0.7711	0.048
Mof_H 	H 	0.7663	0.5175	0.6466	0.047
Mof_N 	N 	0.5664	0.6531	0.9389	-0.2
Mof_C 	C 	0.6126	0.401	0.1091	0.091
Mof_H 	H 	0.6236	0.5253	0.1189	-0.035
Mof_C 	C 	0.7034	0.387	0.2619	-0.045
Mof_C 	C 	0.7398	0.388	0.1904	-0.062
Mof_H 	H 	0.6709	0.4777	0.2711	0.039
Mof_H 	H 	0.7337	0.4825	0.1466	0.039
Mof_N 	N 	0.0664	0.1531	0.4389	-0.226
Mof_C 	C 	0.1126	0.901	0.6091	0.162
Mof_H 	H 	0.1236	0.0253	0.6189	-0.079
Mof_C 	C 	0.2034	0.887	0.7619	-0.041
Mof_C 	C 	0.2398	0.888	0.6904	-0.067
Mof_H 	H 	0.1709	0.9777	0.7711	0.046
Mof_H 	H 	0.2337	0.9825	0.6466	0.058
Mof_N 	N 	0.5664	0.3469	0.0611	-0.235
Mof_C 	C 	0.6126	0.599	0.8909	0.112
Mof_H 	H 	0.6236	0.4747	0.8811	-0.022
Mof_C 	C 	0.7034	0.613	0.7381	-0.052
Mof_C 	C 	0.7398	0.612	0.8096	-0.066
Mof_H 	H 	0.6709	0.5223	0.7289	0.038
Mof_H 	H 	0.7337	0.5175	0.8534	0.059
Mof_N 	N 	0.0664	0.8469	0.5611	-0.235
Mof_C 	C 	0.1126	0.099	0.3909	0.032
Mof_H 	H 	0.1236	0.9747	0.3811	0.012
Mof_C 	C 	0.2034	0.113	0.2381	-0.057
Mof_C 	C 	0.2398	0.112	0.3096	-0.061
Mof_H 	H 	0.1709	0.0223	0.2289	0.019
Mof_H 	H 	0.2337	0.0175	0.3534	0.035
Mof_N 	N 	0.4336	0.1531	0.0611	-0.228
Mof_C 	C 	0.3874	0.901	0.8909	0.172
Mof_H 	H 	0.3764	0.0253	0.8811	-0.065
Mof_C 	C 	0.2966	0.887	0.7381	-0.049
Mof_C 	C 	0.2602	0.888	0.8096	-0.071
Mof_H 	H 	0.3291	0.9777	0.7289	0.048
Mof_H 	H 	0.2663	0.9825	0.8534	0.069
Mof_N 	N 	0.9336	0.6531	0.5611	-0.203
Mof_C 	C 	0.8874	0.401	0.3909	0.104
Mof_H 	H 	0.8764	0.5253	0.3811	-0.023
Mof_C 	C 	0.7966	0.387	0.2381	-0.053
Mof_C 	C 	0.7602	0.388	0.3096	-0.066
Mof_H 	H 	0.8291	0.4777	0.2289	0.042
Mof_H 	H 	0.7663	0.4825	0.3534	0.05
Mof_Cu	Cu	0.5	0	-0	0.779
Mof_Cu	Cu	-1.38272e-33	0.5	0.5	0.796
Mof_Cu	Cu	0.5	0.5	-0	0.793
Mof_Cu	Cu	1.33901e-33	0	0.5	0.782
Mof_N 	N 	0.6432	0.75	0.8565	-0.171
Mof_C 	C 	0.698	0.75	0.8037	0.125
Mof_N 	N 	0.1432	0.25	0.3565	-0.154
Mof_C 	C 	0.198	0.25	0.3037	0.105
Mof_N 	N 	0.3568	0.75	0.8565	-0.172
Mof_C 	C 	0.302	0.75	0.8037	0.127
Mof_N 	N 	0.8568	0.25	0.3565	-0.153
Mof_C 	C 	0.802	0.25	0.3037	0.113
Mof_N 	N 	0.3568	0.25	0.1435	-0.153
Mof_C 	C 	0.302	0.25	0.1963	0.101
Mof_N 	N 	0.8568	0.75	0.6435	-0.17
Mof_C 	C 	0.802	0.75	0.6963	0.121
Mof_N 	N 	0.6432	0.25	0.1435	-0.153
Mof_C 	C 	0.698	0.25	0.1963	0.099
Mof_N 	N 	0.1432	0.75	0.6435	-0.172
Mof_C 	C 	0.198	0.75	0.6963	0.114
_end
