data_functionalizedCrystal
_audit_creation_method	'EQeq! by Chris Wilmer'
_symmetry_space_group_name_H-M	'P1'
_symmetry_Int_Tables_number	1
_symmetry_cell_setting	triclinic
loop_
_symmetry_equiv_pos_as_xyz
  x,y,z
_cell_length_a	28.7527
_cell_length_b	28.7527
_cell_length_c	8.194
_cell_angle_alpha	90
_cell_angle_beta	90
_cell_angle_gamma	120
loop_
_atom_site_label
_atom_site_type_symbol
_atom_site_fract_x
_atom_site_fract_y
_atom_site_fract_z
_atom_site_charge
Mof_O 	O 	0.0502	0.6484	0.389	-0.527
Mof_O 	O 	0.014	0.5908	0.182	-0.523
Mof_C 	C 	0.039	0.6057	0.314	0.419
Mof_C 	C 	0.0567	0.5699	0.39	-0.116
Mof_C 	C 	0.0873	0.5851	0.533	-0.045
Mof_H 	H 	0.093	0.611	0.58	0.064
Mof_C 	C 	0.186	0.561	0.76	-0.056
Mof_C 	C 	0.127	0.592	0.88	-0.025
Mof_C 	C 	0.218	0.577	0.9	0.01
Mof_H 	H 	0.196	0.5481	0.6623	0.043
Mof_C 	C 	0.163	0.609	0.02	-0.044
Mof_H 	H 	0.0971	0.5976	0.8765	0.042
Mof_H 	H 	0.2437	0.5662	0.9219	0.032
Mof_H 	H 	0.1547	0.6258	0.1072	0.035
Mof_H 	H 	0.01	0.507	0.22	0.012
Mof_O 	O 	0.71687	0.98173	0.72233	-0.496
Mof_O 	O 	0.68067	0.92413	0.51533	-0.498
Mof_C 	C 	0.70567	0.93903	0.64733	0.404
Mof_C 	C 	0.72337	0.90323	0.72333	-0.072
Mof_C 	C 	0.75397	0.91843	0.86633	-0.105
Mof_H 	H 	0.75967	0.94433	0.91333	0.108
Mof_C 	C 	0.85267	0.89433	0.09333	-0.082
Mof_C 	C 	0.79367	0.92533	0.21333	-0.049
Mof_C 	C 	0.88467	0.91033	0.23333	-0.006
Mof_H 	H 	0.86267	0.88143	0.99563	0.074
Mof_C 	C 	0.82967	0.94233	0.35333	-0.006
Mof_H 	H 	0.76377	0.93093	0.20983	0.047
Mof_H 	H 	0.91037	0.89953	0.25523	0.028
Mof_H 	H 	0.82137	0.95913	0.44053	0.037
Mof_H 	H 	0.67667	0.84033	0.55333	0.02
Mof_O 	O 	0.38353	0.31507	0.05567	-0.563
Mof_O 	O 	0.34733	0.25747	0.84867	-0.53
Mof_C 	C 	0.37233	0.27237	0.98067	0.535
Mof_C 	C 	0.39003	0.23657	0.05667	-0.312
Mof_C 	C 	0.42063	0.25177	0.19967	0.225
Mof_H 	H 	0.42633	0.27767	0.24667	-0.056
Mof_C 	C 	0.51933	0.22767	0.42667	-0.09
Mof_C 	C 	0.46033	0.25867	0.54667	-0.127
Mof_C 	C 	0.55133	0.24367	0.56667	0.011
Mof_H 	H 	0.52933	0.21477	0.32897	0.051
Mof_C 	C 	0.49633	0.27567	0.68667	0.045
Mof_H 	H 	0.43043	0.26427	0.54317	0.079
Mof_H 	H 	0.57703	0.23287	0.58857	0.022
Mof_H 	H 	0.48803	0.29247	0.77387	0.017
Mof_H 	H 	0.34333	0.17367	0.88667	0.002
Mof_O 	O 	0.3516	0.4018	0.389	-0.52
Mof_O 	O 	0.4092	0.4232	0.182	-0.509
Mof_C 	C 	0.3943	0.4333	0.314	0.417
Mof_C 	C 	0.4301	0.4868	0.39	-0.106
Mof_C 	C 	0.4149	0.5022	0.533	-0.054
Mof_H 	H 	0.389	0.482	0.58	0.07
Mof_C 	C 	0.439	0.625	0.76	-0.057
Mof_C 	C 	0.408	0.535	0.88	-0.027
Mof_C 	C 	0.423	0.641	0.9	0.008
Mof_H 	H 	0.4519	0.6479	0.6623	0.041
Mof_C 	C 	0.391	0.554	0.02	-0.043
Mof_H 	H 	0.4024	0.4995	0.8765	0.046
Mof_H 	H 	0.4338	0.6775	0.9219	0.032
Mof_H 	H 	0.3742	0.5289	0.1072	0.035
Mof_H 	H 	0.493	0.503	0.22	0.017
Mof_O 	O 	0.01827	0.73513	0.72233	-0.528
Mof_O 	O 	0.07587	0.75653	0.51533	-0.507
Mof_C 	C 	0.06097	0.76663	0.64733	0.404
Mof_C 	C 	0.09677	0.82013	0.72333	-0.07
Mof_C 	C 	0.08157	0.83553	0.86633	-0.121
Mof_H 	H 	0.05567	0.81533	0.91333	0.105
Mof_C 	C 	0.10567	0.95833	0.09333	-0.133
Mof_C 	C 	0.07467	0.86833	0.21333	-0.078
Mof_C 	C 	0.08967	0.97433	0.23333	0.079
Mof_H 	H 	0.11857	0.98123	0.99563	0.118
Mof_C 	C 	0.05767	0.88733	0.35333	0.026
Mof_H 	H 	0.06907	0.83283	0.20983	0.047
Mof_H 	H 	0.10047	0.01083	0.25523	-0.021
Mof_H 	H 	0.04087	0.86223	0.44053	0.01
Mof_H 	H 	0.15967	0.83633	0.55333	0.021
Mof_O 	O 	0.68493	0.06847	0.05567	-0.567
Mof_O 	O 	0.74253	0.08987	0.84867	-0.532
Mof_C 	C 	0.72763	0.09997	0.98067	0.529
Mof_C 	C 	0.76343	0.15347	0.05667	-0.299
Mof_C 	C 	0.74823	0.16887	0.19967	0.206
Mof_H 	H 	0.72233	0.14867	0.24667	-0.048
Mof_C 	C 	0.77233	0.29167	0.42667	-0.087
Mof_C 	C 	0.74133	0.20167	0.54667	-0.122
Mof_C 	C 	0.75633	0.30767	0.56667	0.009
Mof_H 	H 	0.78523	0.31457	0.32897	0.051
Mof_C 	C 	0.72433	0.22067	0.68667	0.041
Mof_H 	H 	0.73573	0.16617	0.54317	0.077
Mof_H 	H 	0.76713	0.34417	0.58857	0.022
Mof_H 	H 	0.70753	0.19557	0.77387	0.018
Mof_H 	H 	0.82633	0.16967	0.88667	0.004
Mof_O 	O 	0.5982	0.9498	0.389	-0.512
Mof_O 	O 	0.5768	0.986	0.182	-0.494
Mof_C 	C 	0.5667	0.961	0.314	0.414
Mof_C 	C 	0.5132	0.9433	0.39	-0.094
Mof_C 	C 	0.4978	0.9127	0.533	-0.063
Mof_H 	H 	0.518	0.907	0.58	0.077
Mof_C 	C 	0.375	0.814	0.76	-0.056
Mof_C 	C 	0.465	0.873	0.88	-0.026
Mof_C 	C 	0.359	0.782	0.9	0.008
Mof_H 	H 	0.3521	0.804	0.6623	0.041
Mof_C 	C 	0.446	0.837	0.02	-0.043
Mof_H 	H 	0.5005	0.9029	0.8765	0.05
Mof_H 	H 	0.3225	0.7563	0.9219	0.032
Mof_H 	H 	0.4711	0.8453	0.1072	0.035
Mof_H 	H 	0.497	0.99	0.22	0.021
Mof_O 	O 	0.26487	0.28313	0.72233	-0.51
Mof_O 	O 	0.24347	0.31933	0.51533	-0.501
Mof_C 	C 	0.23337	0.29433	0.64733	0.4
Mof_C 	C 	0.17987	0.27663	0.72333	-0.059
Mof_C 	C 	0.16447	0.24603	0.86633	-0.139
Mof_H 	H 	0.18467	0.24033	0.91333	0.12
Mof_C 	C 	0.04167	0.14733	0.09333	-0.031
Mof_C 	C 	0.13167	0.20633	0.21333	-0.012
Mof_C 	C 	0.02567	0.11533	0.23333	-0.112
Mof_H 	H 	0.01877	0.13733	0.99563	0.031
Mof_C 	C 	0.11267	0.17033	0.35333	-0.054
Mof_H 	H 	0.16717	0.23623	0.20983	0.03
Mof_H 	H 	0.98917	0.08963	0.25523	0.079
Mof_H 	H 	0.13777	0.17863	0.44053	0.045
Mof_H 	H 	0.16367	0.32333	0.55333	0.021
Mof_O 	O 	0.93153	0.61647	0.05567	-0.549
Mof_O 	O 	0.91013	0.65267	0.84867	-0.523
Mof_C 	C 	0.90003	0.62767	0.98067	0.525
Mof_C 	C 	0.84653	0.60997	0.05667	-0.297
Mof_C 	C 	0.83113	0.57937	0.19967	0.205
Mof_H 	H 	0.85133	0.57367	0.24667	-0.047
Mof_C 	C 	0.70833	0.48067	0.42667	-0.087
Mof_C 	C 	0.79833	0.53967	0.54667	-0.123
Mof_C 	C 	0.69233	0.44867	0.56667	0.009
Mof_H 	H 	0.68543	0.47067	0.32897	0.051
Mof_C 	C 	0.77933	0.50367	0.68667	0.042
Mof_H 	H 	0.83383	0.56957	0.54317	0.077
Mof_H 	H 	0.65583	0.42297	0.58857	0.022
Mof_H 	H 	0.80443	0.51197	0.77387	0.017
Mof_H 	H 	0.83033	0.65667	0.88667	0.003
Mof_O 	O 	0.6484	0.0502	0.611	-0.524
Mof_O 	O 	0.5908	0.014	0.818	-0.508
Mof_C 	C 	0.6057	0.039	0.686	0.419
Mof_C 	C 	0.5699	0.0567	0.61	-0.122
Mof_C 	C 	0.5851	0.0873	0.467	-0.026
Mof_H 	H 	0.611	0.093	0.42	0.059
Mof_C 	C 	0.561	0.186	0.24	-0.048
Mof_C 	C 	0.592	0.127	0.12	-0.104
Mof_C 	C 	0.577	0.218	0.1	-0.042
Mof_H 	H 	0.5481	0.196	0.3377	0.034
Mof_C 	C 	0.609	0.163	0.98	0.034
Mof_H 	H 	0.5976	0.0971	0.1235	0.06
Mof_H 	H 	0.5662	0.2437	0.0781	0.031
Mof_H 	H 	0.6258	0.1547	0.8928	0.022
Mof_H 	H 	0.507	0.01	0.78	0.015
Mof_O 	O 	0.31507	0.38353	0.94433	-0.463
Mof_O 	O 	0.25747	0.34733	0.15133	-0.472
Mof_C 	C 	0.27237	0.37233	0.01933	0.28
Mof_C 	C 	0.23657	0.39003	0.94333	0.132
Mof_C 	C 	0.25177	0.42063	0.80033	-0.358
Mof_H 	H 	0.27767	0.42633	0.75333	0.212
Mof_C 	C 	0.22767	0.51933	0.57333	-0.004
Mof_C 	C 	0.25867	0.46033	0.45333	-0.001
Mof_C 	C 	0.24367	0.55133	0.43333	-0.061
Mof_H 	H 	0.21477	0.52933	0.67103	0.019
Mof_C 	C 	0.27567	0.49633	0.31333	-0.056
Mof_H 	H 	0.26427	0.43043	0.45683	0.028
Mof_H 	H 	0.23287	0.57703	0.41143	0.043
Mof_H 	H 	0.29247	0.48803	0.22613	0.041
Mof_H 	H 	0.17367	0.34333	0.11333	0.037
Mof_O 	O 	0.98173	0.71687	0.27767	-0.507
Mof_O 	O 	0.92413	0.68067	0.48467	-0.501
Mof_C 	C 	0.93903	0.70567	0.35267	0.432
Mof_C 	C 	0.90323	0.72337	0.27667	-0.148
Mof_C 	C 	0.91843	0.75397	0.13367	0.038
Mof_H 	H 	0.94433	0.75967	0.08667	0.028
Mof_C 	C 	0.89433	0.85267	0.90667	-0.019
Mof_C 	C 	0.92533	0.79367	0.78667	-0.086
Mof_C 	C 	0.91033	0.88467	0.76667	-0.033
Mof_H 	H 	0.88143	0.86267	0.00437	-0
Mof_C 	C 	0.94233	0.82967	0.64667	0.007
Mof_H 	H 	0.93093	0.76377	0.79017	0.071
Mof_H 	H 	0.89953	0.91037	0.74477	0.039
Mof_H 	H 	0.95913	0.82137	0.55947	0.034
Mof_H 	H 	0.84033	0.67667	0.44667	0.015
Mof_O 	O 	0.4018	0.3516	0.611	-0.516
Mof_O 	O 	0.4232	0.4092	0.818	-0.495
Mof_C 	C 	0.4333	0.3943	0.686	0.418
Mof_C 	C 	0.4868	0.4301	0.61	-0.111
Mof_C 	C 	0.5022	0.4149	0.467	-0.033
Mof_H 	H 	0.482	0.389	0.42	0.065
Mof_C 	C 	0.625	0.439	0.24	-0.048
Mof_C 	C 	0.535	0.408	0.12	-0.104
Mof_C 	C 	0.641	0.423	0.1	-0.042
Mof_H 	H 	0.6479	0.4519	0.3377	0.034
Mof_C 	C 	0.554	0.391	0.98	0.035
Mof_H 	H 	0.4995	0.4024	0.1235	0.064
Mof_H 	H 	0.6775	0.4338	0.0781	0.031
Mof_H 	H 	0.5289	0.3742	0.8928	0.022
Mof_H 	H 	0.503	0.493	0.78	0.019
Mof_O 	O 	0.06847	0.68493	0.94433	-0.468
Mof_O 	O 	0.08987	0.74253	0.15133	-0.477
Mof_C 	C 	0.09997	0.72763	0.01933	0.279
Mof_C 	C 	0.15347	0.76343	0.94333	0.135
Mof_C 	C 	0.16887	0.74823	0.80033	-0.362
Mof_H 	H 	0.14867	0.72233	0.75333	0.213
Mof_C 	C 	0.29167	0.77233	0.57333	-0.004
Mof_C 	C 	0.20167	0.74133	0.45333	0
Mof_C 	C 	0.30767	0.75633	0.43333	-0.061
Mof_H 	H 	0.31457	0.78523	0.67103	0.019
Mof_C 	C 	0.22067	0.72433	0.31333	-0.057
Mof_H 	H 	0.16617	0.73573	0.45683	0.028
Mof_H 	H 	0.34417	0.76713	0.41143	0.043
Mof_H 	H 	0.19557	0.70753	0.22613	0.042
Mof_H 	H 	0.16967	0.82633	0.11333	0.037
Mof_O 	O 	0.73513	0.01827	0.27767	-0.54
Mof_O 	O 	0.75653	0.07587	0.48467	-0.511
Mof_C 	C 	0.76663	0.06097	0.35267	0.434
Mof_C 	C 	0.82013	0.09677	0.27667	-0.15
Mof_C 	C 	0.83553	0.08157	0.13367	0.029
Mof_H 	H 	0.81533	0.05567	0.08667	0.021
Mof_C 	C 	0.95833	0.10567	0.90667	-0.073
Mof_C 	C 	0.86833	0.07467	0.78667	-0.12
Mof_C 	C 	0.97433	0.08967	0.76667	0.062
Mof_H 	H 	0.98123	0.11857	0.00437	0.045
Mof_C 	C 	0.88733	0.05767	0.64667	0.044
Mof_H 	H 	0.83283	0.06907	0.79017	0.074
Mof_H 	H 	0.01083	0.10047	0.74477	-0.014
Mof_H 	H 	0.86223	0.04087	0.55947	0.005
Mof_H 	H 	0.83633	0.15967	0.44667	0.016
Mof_O 	O 	0.9498	0.5982	0.611	-0.507
Mof_O 	O 	0.986	0.5768	0.818	-0.478
Mof_C 	C 	0.961	0.5667	0.686	0.415
Mof_C 	C 	0.9433	0.5132	0.61	-0.098
Mof_C 	C 	0.9127	0.4978	0.467	-0.045
Mof_H 	H 	0.907	0.518	0.42	0.073
Mof_C 	C 	0.814	0.375	0.24	-0.047
Mof_C 	C 	0.873	0.465	0.12	-0.1
Mof_C 	C 	0.782	0.359	0.1	-0.042
Mof_H 	H 	0.804	0.3521	0.3377	0.033
Mof_C 	C 	0.837	0.446	0.98	0.032
Mof_H 	H 	0.9029	0.5005	0.1235	0.067
Mof_H 	H 	0.7563	0.3225	0.0781	0.031
Mof_H 	H 	0.8453	0.4711	0.8928	0.023
Mof_H 	H 	0.99	0.497	0.78	0.024
Mof_O 	O 	0.61647	0.93153	0.94433	-0.454
Mof_O 	O 	0.65267	0.91013	0.15133	-0.469
Mof_C 	C 	0.62767	0.90003	0.01933	0.282
Mof_C 	C 	0.60997	0.84653	0.94333	0.126
Mof_C 	C 	0.57937	0.83113	0.80033	-0.351
Mof_H 	H 	0.57367	0.85133	0.75333	0.209
Mof_C 	C 	0.48067	0.70833	0.57333	-0.005
Mof_C 	C 	0.53967	0.79833	0.45333	-0.002
Mof_C 	C 	0.44867	0.69233	0.43333	-0.06
Mof_H 	H 	0.47067	0.68543	0.67103	0.019
Mof_C 	C 	0.50367	0.77933	0.31333	-0.055
Mof_H 	H 	0.56957	0.83383	0.45683	0.029
Mof_H 	H 	0.42297	0.65583	0.41143	0.043
Mof_H 	H 	0.51197	0.80443	0.22613	0.041
Mof_H 	H 	0.65667	0.83033	0.11333	0.036
Mof_O 	O 	0.28313	0.26487	0.27767	-0.524
Mof_O 	O 	0.31933	0.24347	0.48467	-0.506
Mof_C 	C 	0.29433	0.23337	0.35267	0.43
Mof_C 	C 	0.27663	0.17987	0.27667	-0.142
Mof_C 	C 	0.24603	0.16447	0.13367	0.015
Mof_H 	H 	0.24033	0.18467	0.08667	0.033
Mof_C 	C 	0.14733	0.04167	0.90667	0.032
Mof_C 	C 	0.20633	0.13167	0.78667	-0.058
Mof_C 	C 	0.11533	0.02567	0.76667	-0.126
Mof_H 	H 	0.13733	0.01877	0.00437	-0.044
Mof_C 	C 	0.17033	0.11267	0.64667	-0.034
Mof_H 	H 	0.23623	0.16717	0.79017	0.057
Mof_H 	H 	0.08963	0.98917	0.74477	0.084
Mof_H 	H 	0.17863	0.13777	0.55947	0.038
Mof_H 	H 	0.32333	0.16367	0.44667	0.016
Mof_O 	O 	0.9498	0.3516	0.611	-0.507
Mof_O 	O 	0.986	0.4092	0.818	-0.478
Mof_C 	C 	0.961	0.3943	0.686	0.415
Mof_C 	C 	0.9433	0.4301	0.61	-0.098
Mof_C 	C 	0.9127	0.4149	0.467	-0.045
Mof_H 	H 	0.907	0.389	0.42	0.073
Mof_C 	C 	0.814	0.439	0.24	-0.047
Mof_C 	C 	0.873	0.408	0.12	-0.1
Mof_C 	C 	0.782	0.423	0.1	-0.042
Mof_H 	H 	0.804	0.4519	0.3377	0.033
Mof_C 	C 	0.837	0.391	0.98	0.032
Mof_H 	H 	0.9029	0.4024	0.1235	0.067
Mof_H 	H 	0.7563	0.4338	0.0781	0.031
Mof_H 	H 	0.8453	0.3742	0.8928	0.023
Mof_H 	H 	0.99	0.493	0.78	0.024
Mof_O 	O 	0.61647	0.68493	0.94433	-0.464
Mof_O 	O 	0.65267	0.74253	0.15133	-0.474
Mof_C 	C 	0.62767	0.72763	0.01933	0.284
Mof_C 	C 	0.60997	0.76343	0.94333	0.125
Mof_C 	C 	0.57937	0.74823	0.80033	-0.35
Mof_H 	H 	0.57367	0.72233	0.75333	0.208
Mof_C 	C 	0.48067	0.77233	0.57333	-0.006
Mof_C 	C 	0.53967	0.74133	0.45333	-0.002
Mof_C 	C 	0.44867	0.75633	0.43333	-0.06
Mof_H 	H 	0.47067	0.78523	0.67103	0.019
Mof_C 	C 	0.50367	0.72433	0.31333	-0.055
Mof_H 	H 	0.56957	0.73573	0.45683	0.029
Mof_H 	H 	0.42297	0.76713	0.41143	0.043
Mof_H 	H 	0.51197	0.70753	0.22613	0.041
Mof_H 	H 	0.65667	0.82633	0.11333	0.036
Mof_O 	O 	0.28313	0.01827	0.27767	-0.54
Mof_O 	O 	0.31933	0.07587	0.48467	-0.511
Mof_C 	C 	0.29433	0.06097	0.35267	0.432
Mof_C 	C 	0.27663	0.09677	0.27667	-0.145
Mof_C 	C 	0.24603	0.08157	0.13367	0.019
Mof_H 	H 	0.24033	0.05567	0.08667	0.026
Mof_C 	C 	0.14733	0.10567	0.90667	-0.015
Mof_C 	C 	0.20633	0.07467	0.78667	-0.088
Mof_C 	C 	0.11533	0.08967	0.76667	-0.04
Mof_H 	H 	0.13733	0.11857	0.00437	-0.005
Mof_C 	C 	0.17033	0.05767	0.64667	0.002
Mof_H 	H 	0.23623	0.06907	0.79017	0.063
Mof_H 	H 	0.08963	0.10047	0.74477	0.037
Mof_H 	H 	0.17863	0.04087	0.55947	0.019
Mof_H 	H 	0.32333	0.15967	0.44667	0.016
Mof_O 	O 	0.6484	0.5982	0.611	-0.516
Mof_O 	O 	0.5908	0.5768	0.818	-0.496
Mof_C 	C 	0.6057	0.5667	0.686	0.418
Mof_C 	C 	0.5699	0.5132	0.61	-0.112
Mof_C 	C 	0.5851	0.4978	0.467	-0.033
Mof_H 	H 	0.611	0.518	0.42	0.064
Mof_C 	C 	0.561	0.375	0.24	-0.048
Mof_C 	C 	0.592	0.465	0.12	-0.104
Mof_C 	C 	0.577	0.359	0.1	-0.042
Mof_H 	H 	0.5481	0.3521	0.3377	0.033
Mof_C 	C 	0.609	0.446	0.98	0.034
Mof_H 	H 	0.5976	0.5005	0.1235	0.064
Mof_H 	H 	0.5662	0.3225	0.0781	0.031
Mof_H 	H 	0.6258	0.4711	0.8928	0.022
Mof_H 	H 	0.507	0.497	0.78	0.019
Mof_O 	O 	0.31507	0.93153	0.94433	-0.452
Mof_O 	O 	0.25747	0.91013	0.15133	-0.467
Mof_C 	C 	0.27237	0.90003	0.01933	0.276
Mof_C 	C 	0.23657	0.84653	0.94333	0.136
Mof_C 	C 	0.25177	0.83113	0.80033	-0.364
Mof_H 	H 	0.27767	0.85133	0.75333	0.215
Mof_C 	C 	0.22767	0.70833	0.57333	-0.004
Mof_C 	C 	0.25867	0.79833	0.45333	0
Mof_C 	C 	0.24367	0.69233	0.43333	-0.061
Mof_H 	H 	0.21477	0.68543	0.67103	0.018
Mof_C 	C 	0.27567	0.77933	0.31333	-0.057
Mof_H 	H 	0.26427	0.83383	0.45683	0.028
Mof_H 	H 	0.23287	0.65583	0.41143	0.044
Mof_H 	H 	0.29247	0.80443	0.22613	0.042
Mof_H 	H 	0.17367	0.83033	0.11333	0.037
Mof_O 	O 	0.98173	0.26487	0.27767	-0.506
Mof_O 	O 	0.92413	0.24347	0.48467	-0.5
Mof_C 	C 	0.93903	0.23337	0.35267	0.429
Mof_C 	C 	0.90323	0.17987	0.27667	-0.141
Mof_C 	C 	0.91843	0.16447	0.13367	0.021
Mof_H 	H 	0.94433	0.18467	0.08667	0.036
Mof_C 	C 	0.89433	0.04167	0.90667	0.027
Mof_C 	C 	0.92533	0.13167	0.78667	-0.056
Mof_C 	C 	0.91033	0.02567	0.76667	-0.121
Mof_H 	H 	0.88143	0.01877	0.00437	-0.039
Mof_C 	C 	0.94233	0.11267	0.64667	-0.031
Mof_H 	H 	0.93093	0.16717	0.79017	0.061
Mof_H 	H 	0.89953	0.98917	0.74477	0.084
Mof_H 	H 	0.95913	0.13777	0.55947	0.046
Mof_H 	H 	0.84033	0.16367	0.44667	0.016
Mof_O 	O 	0.4018	0.0502	0.611	-0.523
Mof_O 	O 	0.4232	0.014	0.818	-0.508
Mof_C 	C 	0.4333	0.039	0.686	0.419
Mof_C 	C 	0.4868	0.0567	0.61	-0.122
Mof_C 	C 	0.5022	0.0873	0.467	-0.026
Mof_H 	H 	0.482	0.093	0.42	0.059
Mof_C 	C 	0.625	0.186	0.24	-0.049
Mof_C 	C 	0.535	0.127	0.12	-0.104
Mof_C 	C 	0.641	0.218	0.1	-0.041
Mof_H 	H 	0.6479	0.196	0.3377	0.034
Mof_C 	C 	0.554	0.163	0.98	0.034
Mof_H 	H 	0.4995	0.0971	0.1235	0.06
Mof_H 	H 	0.6775	0.2437	0.0781	0.031
Mof_H 	H 	0.5289	0.1547	0.8928	0.022
Mof_H 	H 	0.503	0.01	0.78	0.015
Mof_O 	O 	0.06847	0.38353	0.94433	-0.468
Mof_O 	O 	0.08987	0.34733	0.15133	-0.477
Mof_C 	C 	0.09997	0.37233	0.01933	0.28
Mof_C 	C 	0.15347	0.39003	0.94333	0.132
Mof_C 	C 	0.16887	0.42063	0.80033	-0.358
Mof_H 	H 	0.14867	0.42633	0.75333	0.211
Mof_C 	C 	0.29167	0.51933	0.57333	-0.004
Mof_C 	C 	0.20167	0.46033	0.45333	-0.001
Mof_C 	C 	0.30767	0.55133	0.43333	-0.061
Mof_H 	H 	0.31457	0.52933	0.67103	0.019
Mof_C 	C 	0.22067	0.49633	0.31333	-0.056
Mof_H 	H 	0.16617	0.43043	0.45683	0.028
Mof_H 	H 	0.34417	0.57703	0.41143	0.043
Mof_H 	H 	0.19557	0.48803	0.22613	0.041
Mof_H 	H 	0.16967	0.34333	0.11333	0.037
Mof_O 	O 	0.73513	0.71687	0.27767	-0.525
Mof_O 	O 	0.75653	0.68067	0.48467	-0.507
Mof_C 	C 	0.76663	0.70567	0.35267	0.435
Mof_C 	C 	0.82013	0.72337	0.27667	-0.153
Mof_C 	C 	0.83553	0.75397	0.13367	0.043
Mof_H 	H 	0.81533	0.75967	0.08667	0.02
Mof_C 	C 	0.95833	0.85267	0.90667	-0.072
Mof_C 	C 	0.86833	0.79367	0.78667	-0.12
Mof_C 	C 	0.97433	0.88467	0.76667	0.063
Mof_H 	H 	0.98123	0.86267	0.00437	0.044
Mof_C 	C 	0.88733	0.82967	0.64667	0.047
Mof_H 	H 	0.83283	0.76377	0.79017	0.078
Mof_H 	H 	0.01083	0.91037	0.74477	-0.012
Mof_H 	H 	0.86223	0.82137	0.55947	0.013
Mof_H 	H 	0.83633	0.67667	0.44667	0.015
Mof_O 	O 	0.3516	0.9498	0.389	-0.512
Mof_O 	O 	0.4092	0.986	0.182	-0.493
Mof_C 	C 	0.3943	0.961	0.314	0.414
Mof_C 	C 	0.4301	0.9433	0.39	-0.094
Mof_C 	C 	0.4149	0.9127	0.533	-0.063
Mof_H 	H 	0.389	0.907	0.58	0.076
Mof_C 	C 	0.439	0.814	0.76	-0.056
Mof_C 	C 	0.408	0.873	0.88	-0.025
Mof_C 	C 	0.423	0.782	0.9	0.008
Mof_H 	H 	0.4519	0.804	0.6623	0.041
Mof_C 	C 	0.391	0.837	0.02	-0.044
Mof_H 	H 	0.4024	0.9029	0.8765	0.05
Mof_H 	H 	0.4338	0.7563	0.9219	0.032
Mof_H 	H 	0.3742	0.8453	0.1072	0.035
Mof_H 	H 	0.493	0.99	0.22	0.021
Mof_O 	O 	0.01827	0.28313	0.72233	-0.528
Mof_O 	O 	0.07587	0.31933	0.51533	-0.507
Mof_C 	C 	0.06097	0.29433	0.64733	0.402
Mof_C 	C 	0.09677	0.27663	0.72333	-0.063
Mof_C 	C 	0.08157	0.24603	0.86633	-0.135
Mof_H 	H 	0.05567	0.24033	0.91333	0.112
Mof_C 	C 	0.10567	0.14733	0.09333	-0.085
Mof_C 	C 	0.07467	0.20633	0.21333	-0.048
Mof_C 	C 	0.08967	0.11533	0.23333	-0.01
Mof_H 	H 	0.11857	0.13733	0.99563	0.077
Mof_C 	C 	0.05767	0.17033	0.35333	-0.012
Mof_H 	H 	0.06907	0.23623	0.20983	0.037
Mof_H 	H 	0.10047	0.08963	0.25523	0.024
Mof_H 	H 	0.04087	0.17863	0.44053	0.022
Mof_H 	H 	0.15967	0.32333	0.55333	0.021
Mof_O 	O 	0.68493	0.61647	0.05567	-0.561
Mof_O 	O 	0.74253	0.65267	0.84867	-0.529
Mof_C 	C 	0.72763	0.62767	0.98067	0.53
Mof_C 	C 	0.76343	0.60997	0.05667	-0.3
Mof_C 	C 	0.74823	0.57937	0.19967	0.207
Mof_H 	H 	0.72233	0.57367	0.24667	-0.048
Mof_C 	C 	0.77233	0.48067	0.42667	-0.088
Mof_C 	C 	0.74133	0.53967	0.54667	-0.123
Mof_C 	C 	0.75633	0.44867	0.56667	0.009
Mof_H 	H 	0.78523	0.47067	0.32897	0.051
Mof_C 	C 	0.72433	0.50367	0.68667	0.042
Mof_H 	H 	0.73573	0.56957	0.54317	0.077
Mof_H 	H 	0.76713	0.42297	0.58857	0.022
Mof_H 	H 	0.70753	0.51197	0.77387	0.017
Mof_H 	H 	0.82633	0.65667	0.88667	0.004
Mof_O 	O 	0.5982	0.6484	0.389	-0.52
Mof_O 	O 	0.5768	0.5908	0.182	-0.509
Mof_C 	C 	0.5667	0.6057	0.314	0.417
Mof_C 	C 	0.5132	0.5699	0.39	-0.106
Mof_C 	C 	0.4978	0.5851	0.533	-0.054
Mof_H 	H 	0.518	0.611	0.58	0.07
Mof_C 	C 	0.375	0.561	0.76	-0.057
Mof_C 	C 	0.465	0.592	0.88	-0.027
Mof_C 	C 	0.359	0.577	0.9	0.009
Mof_H 	H 	0.3521	0.5481	0.6623	0.041
Mof_C 	C 	0.446	0.609	0.02	-0.043
Mof_H 	H 	0.5005	0.5976	0.8765	0.046
Mof_H 	H 	0.3225	0.5662	0.9219	0.032
Mof_H 	H 	0.4711	0.6258	0.1072	0.035
Mof_H 	H 	0.497	0.507	0.22	0.017
Mof_O 	O 	0.26487	0.98173	0.72233	-0.495
Mof_O 	O 	0.24347	0.92413	0.51533	-0.496
Mof_C 	C 	0.23337	0.93903	0.64733	0.4
Mof_C 	C 	0.17987	0.90323	0.72333	-0.061
Mof_C 	C 	0.16447	0.91843	0.86633	-0.129
Mof_H 	H 	0.18467	0.94433	0.91333	0.12
Mof_C 	C 	0.04167	0.89433	0.09333	-0.032
Mof_C 	C 	0.13167	0.92533	0.21333	-0.012
Mof_C 	C 	0.02567	0.91033	0.23333	-0.108
Mof_H 	H 	0.01877	0.88143	0.99563	0.033
Mof_C 	C 	0.11267	0.94233	0.35333	-0.05
Mof_H 	H 	0.16717	0.93093	0.20983	0.035
Mof_H 	H 	0.98917	0.89953	0.25523	0.08
Mof_H 	H 	0.13777	0.95913	0.44053	0.052
Mof_H 	H 	0.16367	0.84033	0.55333	0.021
Mof_O 	O 	0.93153	0.31507	0.05567	-0.548
Mof_O 	O 	0.91013	0.25747	0.84867	-0.522
Mof_C 	C 	0.90003	0.27237	0.98067	0.523
Mof_C 	C 	0.84653	0.23657	0.05667	-0.295
Mof_C 	C 	0.83113	0.25177	0.19967	0.203
Mof_H 	H 	0.85133	0.27767	0.24667	-0.046
Mof_C 	C 	0.70833	0.22767	0.42667	-0.087
Mof_C 	C 	0.79833	0.25867	0.54667	-0.122
Mof_C 	C 	0.69233	0.24367	0.56667	0.009
Mof_H 	H 	0.68543	0.21477	0.32897	0.05
Mof_C 	C 	0.77933	0.27567	0.68667	0.041
Mof_H 	H 	0.83383	0.26427	0.54317	0.077
Mof_H 	H 	0.65583	0.23287	0.58857	0.023
Mof_H 	H 	0.80443	0.29247	0.77387	0.018
Mof_H 	H 	0.83033	0.17367	0.88667	0.004
Mof_O 	O 	0.0502	0.4018	0.389	-0.528
Mof_O 	O 	0.014	0.4232	0.182	-0.524
Mof_C 	C 	0.039	0.4333	0.314	0.418
Mof_C 	C 	0.0567	0.4868	0.39	-0.117
Mof_C 	C 	0.0873	0.5022	0.533	-0.046
Mof_H 	H 	0.093	0.482	0.58	0.063
Mof_C 	C 	0.186	0.625	0.76	-0.057
Mof_C 	C 	0.127	0.535	0.88	-0.026
Mof_C 	C 	0.218	0.641	0.9	0.009
Mof_H 	H 	0.196	0.6479	0.6623	0.042
Mof_C 	C 	0.163	0.554	0.02	-0.045
Mof_H 	H 	0.0971	0.4995	0.8765	0.042
Mof_H 	H 	0.2437	0.6775	0.9219	0.032
Mof_H 	H 	0.1547	0.5289	0.1072	0.035
Mof_H 	H 	0.01	0.503	0.22	0.012
Mof_O 	O 	0.71687	0.73513	0.72233	-0.512
Mof_O 	O 	0.68067	0.75653	0.51533	-0.503
Mof_C 	C 	0.70567	0.76663	0.64733	0.406
Mof_C 	C 	0.72337	0.82013	0.72333	-0.076
Mof_C 	C 	0.75397	0.83553	0.86633	-0.101
Mof_H 	H 	0.75967	0.81533	0.91333	0.101
Mof_C 	C 	0.85267	0.95833	0.09333	-0.128
Mof_C 	C 	0.79367	0.86833	0.21333	-0.079
Mof_C 	C 	0.88467	0.97433	0.23333	0.079
Mof_H 	H 	0.86267	0.98123	0.99563	0.113
Mof_C 	C 	0.82967	0.88733	0.35333	0.029
Mof_H 	H 	0.76377	0.83283	0.20983	0.053
Mof_H 	H 	0.91037	0.01083	0.25523	-0.018
Mof_H 	H 	0.82137	0.86223	0.44053	0.018
Mof_H 	H 	0.67667	0.83633	0.55333	0.02
Mof_O 	O 	0.38353	0.06847	0.05567	-0.569
Mof_O 	O 	0.34733	0.08987	0.84867	-0.534
Mof_C 	C 	0.37233	0.09997	0.98067	0.536
Mof_C 	C 	0.39003	0.15347	0.05667	-0.313
Mof_C 	C 	0.42063	0.16887	0.19967	0.226
Mof_H 	H 	0.42633	0.14867	0.24667	-0.057
Mof_C 	C 	0.51933	0.29167	0.42667	-0.09
Mof_C 	C 	0.46033	0.20167	0.54667	-0.127
Mof_C 	C 	0.55133	0.30767	0.56667	0.011
Mof_H 	H 	0.52933	0.31457	0.32897	0.052
Mof_C 	C 	0.49633	0.22067	0.68667	0.045
Mof_H 	H 	0.43043	0.16617	0.54317	0.079
Mof_H 	H 	0.57703	0.34417	0.58857	0.022
Mof_H 	H 	0.48803	0.19557	0.77387	0.017
Mof_H 	H 	0.34333	0.16967	0.88667	0.003
Mof_Zn	Zn	0.04207	0.70874	0.33333	1.22
Mof_Zn	Zn	0.29126	0.33333	0.33333	1.226
Mof_Zn	Zn	0.66667	0.95793	0.33333	1.232
Mof_Zn	Zn	0.70874	0.04207	0.66667	1.224
Mof_Zn	Zn	0.3754	0.3754	-0	1.219
Mof_Zn	Zn	0.33333	0.29126	0.66667	1.229
Mof_Zn	Zn	-0	0.6246	-0	1.208
Mof_Zn	Zn	0.95793	0.66667	0.66667	1.235
Mof_Zn	Zn	0.6246	0	-0	1.211
Mof_Zn	Zn	0.95793	0.29126	0.66667	1.235
Mof_Zn	Zn	0.6246	0.6246	-0	1.219
Mof_Zn	Zn	0.70874	0.66667	0.66667	1.229
Mof_Zn	Zn	0.3754	0	-0	1.21
Mof_Zn	Zn	0.33333	0.04207	0.66667	1.224
Mof_Zn	Zn	-0	0.3754	-0	1.208
Mof_Zn	Zn	0.29126	0.95793	0.33333	1.232
Mof_Zn	Zn	0.66667	0.70874	0.33333	1.226
Mof_Zn	Zn	0.04207	0.33333	0.33333	1.22
Mof_C 	C 	0.0423	0.52115	0.317	0.058
Mof_C 	C 	0.1036	0.5518	0.603	0.002
Mof_C 	C 	0.137	0.5685	0.754	0.029
Mof_C 	C 	0.204	0.602	0.036	-0.069
Mof_H 	H 	0.2267	0.61335	0.1305	0.037
Mof_C 	C 	0.70897	0.85448	0.65033	0.038
Mof_C 	C 	0.77027	0.88513	0.93633	0.056
Mof_C 	C 	0.80367	0.90183	0.08733	0.044
Mof_C 	C 	0.87067	0.93533	0.36933	-0.113
Mof_H 	H 	0.89337	0.94668	0.46383	0.064
Mof_C 	C 	0.37563	0.18782	0.98367	0.239
Mof_C 	C 	0.43693	0.21847	0.26967	-0.214
Mof_C 	C 	0.47033	0.23517	0.42067	0.182
Mof_C 	C 	0.53733	0.26867	0.70267	-0.134
Mof_H 	H 	0.56003	0.28002	0.79717	0.069
Mof_C 	C 	0.47885	0.52115	0.317	0.056
Mof_C 	C 	0.4482	0.5518	0.603	0.011
Mof_C 	C 	0.4315	0.5685	0.754	0.028
Mof_C 	C 	0.398	0.602	0.036	-0.07
Mof_H 	H 	0.38665	0.61335	0.1305	0.037
Mof_C 	C 	0.14552	0.85448	0.65033	0.031
Mof_C 	C 	0.11487	0.88513	0.93633	0.081
Mof_C 	C 	0.09817	0.90183	0.08733	0.009
Mof_C 	C 	0.06467	0.93533	0.36933	-0.053
Mof_H 	H 	0.05332	0.94668	0.46383	0.037
Mof_C 	C 	0.81218	0.18782	0.98367	0.226
Mof_C 	C 	0.78153	0.21847	0.26967	-0.198
Mof_C 	C 	0.76483	0.23517	0.42067	0.172
Mof_C 	C 	0.73133	0.26867	0.70267	-0.128
Mof_H 	H 	0.71998	0.28002	0.79717	0.067
Mof_C 	C 	0.47885	0.9577	0.317	0.052
Mof_C 	C 	0.4482	0.8964	0.603	0.022
Mof_C 	C 	0.4315	0.863	0.754	0.025
Mof_C 	C 	0.398	0.796	0.036	-0.069
Mof_H 	H 	0.38665	0.7733	0.1305	0.037
Mof_C 	C 	0.14552	0.29103	0.65033	0.027
Mof_C 	C 	0.11487	0.22973	0.93633	0.096
Mof_C 	C 	0.09817	0.19633	0.08733	-0.018
Mof_C 	C 	0.06467	0.12933	0.36933	0.001
Mof_H 	H 	0.05332	0.10663	0.46383	0.013
Mof_C 	C 	0.81218	0.62437	0.98367	0.228
Mof_C 	C 	0.78153	0.56307	0.26967	-0.199
Mof_C 	C 	0.76483	0.52967	0.42067	0.173
Mof_C 	C 	0.73133	0.46267	0.70267	-0.129
Mof_H 	H 	0.71998	0.43997	0.79717	0.067
Mof_C 	C 	0.52115	0.0423	0.683	0.067
Mof_C 	C 	0.5518	0.1036	0.397	-0.025
Mof_C 	C 	0.5685	0.137	0.246	0.084
Mof_C 	C 	0.602	0.204	0.964	-0.058
Mof_H 	H 	0.61335	0.2267	0.8695	0.044
Mof_C 	C 	0.18782	0.37563	0.01633	-0.152
Mof_C 	C 	0.21847	0.43693	0.73033	0.245
Mof_C 	C 	0.23517	0.47033	0.57933	-0.091
Mof_C 	C 	0.26867	0.53733	0.29733	0.03
Mof_H 	H 	0.28002	0.56003	0.20283	0.004
Mof_C 	C 	0.85448	0.70897	0.34967	0.09
Mof_C 	C 	0.88513	0.77027	0.06367	-0.09
Mof_C 	C 	0.90183	0.80367	0.91267	0.122
Mof_C 	C 	0.93533	0.87067	0.63067	-0.114
Mof_H 	H 	0.94668	0.89337	0.53617	0.066
Mof_C 	C 	0.52115	0.47885	0.683	0.065
Mof_C 	C 	0.5518	0.4482	0.397	-0.016
Mof_C 	C 	0.5685	0.4315	0.246	0.082
Mof_C 	C 	0.602	0.398	0.964	-0.058
Mof_H 	H 	0.61335	0.38665	0.8695	0.044
Mof_C 	C 	0.18782	0.81218	0.01633	-0.154
Mof_C 	C 	0.21847	0.78153	0.73033	0.249
Mof_C 	C 	0.23517	0.76483	0.57933	-0.093
Mof_C 	C 	0.26867	0.73133	0.29733	0.031
Mof_H 	H 	0.28002	0.71998	0.20283	0.004
Mof_C 	C 	0.85448	0.14552	0.34967	0.086
Mof_C 	C 	0.88513	0.11487	0.06367	-0.073
Mof_C 	C 	0.90183	0.09817	0.91267	0.095
Mof_C 	C 	0.93533	0.06467	0.63067	-0.062
Mof_H 	H 	0.94668	0.05332	0.53617	0.042
Mof_C 	C 	0.9577	0.47885	0.683	0.06
Mof_C 	C 	0.8964	0.4482	0.397	-0.002
Mof_C 	C 	0.863	0.4315	0.246	0.077
Mof_C 	C 	0.796	0.398	0.964	-0.056
Mof_H 	H 	0.7733	0.38665	0.8695	0.043
Mof_C 	C 	0.62437	0.81218	0.01633	-0.146
Mof_C 	C 	0.56307	0.78153	0.73033	0.239
Mof_C 	C 	0.52967	0.76483	0.57933	-0.087
Mof_C 	C 	0.46267	0.73133	0.29733	0.028
Mof_H 	H 	0.43997	0.71998	0.20283	0.005
Mof_C 	C 	0.29103	0.14552	0.34967	0.084
Mof_C 	C 	0.22973	0.11487	0.06367	-0.062
Mof_C 	C 	0.19633	0.09817	0.91267	0.067
Mof_C 	C 	0.12933	0.06467	0.63067	-0.001
Mof_H 	H 	0.10663	0.05332	0.53617	0.014
_end
