data_functionalizedCrystal
_audit_creation_method	'EQeq! by Chris Wilmer'
_symmetry_space_group_name_H-M	'P1'
_symmetry_Int_Tables_number	1
_symmetry_cell_setting	triclinic
loop_
_symmetry_equiv_pos_as_xyz
  x,y,z
_cell_length_a	5.6153
_cell_length_b	9.3336
_cell_length_c	13.3398
_cell_angle_alpha	106.03
_cell_angle_beta	93.611
_cell_angle_gamma	102.05
loop_
_atom_site_label
_atom_site_type_symbol
_atom_site_fract_x
_atom_site_fract_y
_atom_site_fract_z
_atom_site_charge
Mof_Mn	Mn	-0	0	-0	0.578
Mof_H 	H 	0.699	0.432	0.514	0.047
Mof_H 	H 	0.594	0.3937	0.9296	0.096
Mof_H 	H 	0.2397	0.3509	0.0497	0.09
Mof_H 	H 	0.5756	0.9189	0.7999	0.013
Mof_H 	H 	0.4259	0.7469	0.6383	0.093
Mof_H 	H 	0.002	0.5624	0.6609	0.072
Mof_H 	H 	0.1408	0.7446	0.8187	-0.011
Mof_H 	H 	0.301	0.568	0.486	0.059
Mof_H 	H 	0.406	0.6063	0.0704	0.028
Mof_H 	H 	0.7603	0.6491	0.9503	0.022
Mof_H 	H 	0.4244	0.0811	0.2001	-0.029
Mof_H 	H 	0.5741	0.2531	0.3617	0.094
Mof_H 	H 	0.998	0.4376	0.3391	0.115
Mof_H 	H 	0.8592	0.2554	0.1813	-0.004
Mof_C 	C 	0.5606	0.1423	0.9623	0.131
Mof_C 	C 	0.8971	0.3433	0.9876	0.194
Mof_C 	C 	0.7576	0.436	0.9581	-0.176
Mof_C 	C 	0.1424	0.4102	0.0296	-0.216
Mof_C 	C 	0.6624	0.8458	0.7716	0.101
Mof_C 	C 	0.5692	0.7416	0.6745	-0.168
Mof_C 	C 	0.6916	0.6283	0.6312	0.109
Mof_C 	C 	0.6015	0.5073	0.5311	-0.07
Mof_C 	C 	0.9104	0.6333	0.6876	-0.158
Mof_C 	C 	0.9922	0.7432	0.783	0.119
Mof_C 	C 	0.4394	0.8577	0.0377	0.148
Mof_C 	C 	0.1029	0.6567	0.0124	-0.021
Mof_C 	C 	0.2424	0.564	0.0419	0.013
Mof_C 	C 	0.8576	0.5898	0.9704	0.062
Mof_C 	C 	0.3376	0.1542	0.2284	0.105
Mof_C 	C 	0.4308	0.2584	0.3255	-0.198
Mof_C 	C 	0.3084	0.3717	0.3688	0.138
Mof_C 	C 	0.3985	0.4927	0.4689	-0.102
Mof_C 	C 	0.0896	0.3667	0.3124	-0.217
Mof_C 	C 	0.0078	0.2568	0.217	0.091
Mof_N 	N 	0.3449	0.0963	0.949	-0.212
Mof_N 	N 	0.7989	0.1851	0.9762	-0.207
Mof_N 	N 	0.8703	0.848	0.8275	-0.167
Mof_N 	N 	0.6551	0.9037	0.051	-0.184
Mof_N 	N 	0.2011	0.8149	0.0238	-0.175
Mof_N 	N 	0.1297	0.152	0.1725	-0.203
_end
