data_functionalizedCrystal
_audit_creation_method	'EQeq! by Chris Wilmer'
_symmetry_space_group_name_H-M	'P1'
_symmetry_Int_Tables_number	1
_symmetry_cell_setting	triclinic
loop_
_symmetry_equiv_pos_as_xyz
  x,y,z
_cell_length_a	16.1749
_cell_length_b	8.3247
_cell_length_c	17.0673
_cell_angle_alpha	90
_cell_angle_beta	114.781
_cell_angle_gamma	90
loop_
_atom_site_label
_atom_site_type_symbol
_atom_site_fract_x
_atom_site_fract_y
_atom_site_fract_z
_atom_site_charge
Mof_Zn	Zn	0.86468	0.61889	0.97818	1.235
Mof_P 	P 	0.00752	0.39687	0.12375	0.327
Mof_H 	H 	0.895	0.018	0.128	-0.035
Mof_P 	P 	0.85336	0.89415	0.10616	0.509
Mof_H 	H 	0.99	0.281	0.168	0.048
Mof_O 	O 	0.8612	0.8332	0.0254	-0.433
Mof_O 	O 	0.8945	0.7842	0.1807	-0.441
Mof_O 	O 	0.9165	0.4378	0.0516	-0.396
Mof_O 	O 	0.0489	0.5342	0.1848	-0.477
Mof_O 	O 	0.0734	0.3211	0.0933	-0.439
Mof_O 	O 	0.7599	0.9427	0.0918	-0.437
Mof_Zn	Zn	0.36468	0.11889	0.97818	1.233
Mof_P 	P 	0.50752	0.89687	0.12375	0.463
Mof_H 	H 	0.395	0.518	0.128	-0.054
Mof_P 	P 	0.35336	0.39415	0.10616	0.513
Mof_H 	H 	0.49	0.781	0.168	-0.03
Mof_O 	O 	0.3612	0.3332	0.0254	-0.453
Mof_O 	O 	0.3945	0.2842	0.1807	-0.478
Mof_O 	O 	0.4165	0.9378	0.0516	-0.471
Mof_O 	O 	0.5489	0.0342	0.1848	-0.462
Mof_O 	O 	0.5734	0.8211	0.0933	-0.429
Mof_O 	O 	0.2599	0.4427	0.0918	-0.445
Mof_Zn	Zn	0.13532	0.61889	0.52182	1.231
Mof_P 	P 	0.99248	0.39687	0.37625	0.597
Mof_H 	H 	0.105	0.018	0.372	-0.069
Mof_P 	P 	0.14664	0.89415	0.39384	0.512
Mof_H 	H 	0.01	0.281	0.332	-0.105
Mof_O 	O 	0.1388	0.8332	0.4746	-0.472
Mof_O 	O 	0.1055	0.7842	0.3193	-0.499
Mof_O 	O 	0.0835	0.4378	0.4484	-0.539
Mof_O 	O 	0.9511	0.5342	0.3152	-0.442
Mof_O 	O 	0.9266	0.3211	0.4067	-0.424
Mof_O 	O 	0.2401	0.9427	0.4082	-0.447
Mof_Zn	Zn	0.63532	0.11889	0.52182	1.235
Mof_P 	P 	0.49248	0.89687	0.37625	0.463
Mof_H 	H 	0.605	0.518	0.372	-0.053
Mof_P 	P 	0.64664	0.39415	0.39384	0.513
Mof_H 	H 	0.51	0.781	0.332	-0.03
Mof_O 	O 	0.6388	0.3332	0.4746	-0.455
Mof_O 	O 	0.6055	0.2842	0.3193	-0.475
Mof_O 	O 	0.5835	0.9378	0.4484	-0.47
Mof_O 	O 	0.4511	0.0342	0.3152	-0.466
Mof_O 	O 	0.4266	0.8211	0.4067	-0.433
Mof_O 	O 	0.7401	0.4427	0.4082	-0.44
Mof_Zn	Zn	0.13532	0.38111	0.02182	1.231
Mof_P 	P 	0.99248	0.60313	0.87625	0.587
Mof_H 	H 	0.105	0.982	0.872	-0.068
Mof_P 	P 	0.14664	0.10585	0.89384	0.511
Mof_H 	H 	0.01	0.719	0.832	-0.1
Mof_O 	O 	0.1388	0.1668	0.9746	-0.473
Mof_O 	O 	0.1055	0.2158	0.8193	-0.498
Mof_O 	O 	0.0835	0.5622	0.9484	-0.535
Mof_O 	O 	0.9511	0.4658	0.8152	-0.444
Mof_O 	O 	0.9266	0.6789	0.9067	-0.427
Mof_O 	O 	0.2401	0.0573	0.9082	-0.448
Mof_Zn	Zn	0.63532	0.88111	0.02182	1.237
Mof_P 	P 	0.49248	0.10313	0.87625	0.463
Mof_H 	H 	0.605	0.482	0.872	-0.054
Mof_P 	P 	0.64664	0.60585	0.89384	0.513
Mof_H 	H 	0.51	0.219	0.832	-0.031
Mof_O 	O 	0.6388	0.6668	0.9746	-0.459
Mof_O 	O 	0.6055	0.7158	0.8193	-0.476
Mof_O 	O 	0.5835	0.0622	0.9484	-0.474
Mof_O 	O 	0.4511	0.9658	0.8152	-0.467
Mof_O 	O 	0.4266	0.1789	0.9067	-0.435
Mof_O 	O 	0.7401	0.5573	0.9082	-0.443
Mof_Zn	Zn	0.86468	0.38111	0.47818	1.239
Mof_P 	P 	0.00752	0.60313	0.62375	0.335
Mof_H 	H 	0.895	0.982	0.628	-0.038
Mof_P 	P 	0.85336	0.10585	0.60616	0.511
Mof_H 	H 	0.99	0.719	0.668	0.043
Mof_O 	O 	0.8612	0.1668	0.5254	-0.438
Mof_O 	O 	0.8945	0.2158	0.6807	-0.445
Mof_O 	O 	0.9165	0.5622	0.5516	-0.404
Mof_O 	O 	0.0489	0.4658	0.6848	-0.477
Mof_O 	O 	0.0734	0.6789	0.5933	-0.44
Mof_O 	O 	0.7599	0.0573	0.5918	-0.44
Mof_Zn	Zn	0.36468	0.88111	0.47818	1.234
Mof_P 	P 	0.50752	0.10313	0.62375	0.464
Mof_H 	H 	0.395	0.482	0.628	-0.054
Mof_P 	P 	0.35336	0.60585	0.60616	0.513
Mof_H 	H 	0.49	0.219	0.668	-0.03
Mof_O 	O 	0.3612	0.6668	0.5254	-0.457
Mof_O 	O 	0.3945	0.7158	0.6807	-0.478
Mof_O 	O 	0.4165	0.0622	0.5516	-0.473
Mof_O 	O 	0.5489	0.9658	0.6848	-0.465
Mof_O 	O 	0.5734	0.1789	0.5933	-0.431
Mof_O 	O 	0.2599	0.5573	0.5918	-0.446
Mof_Zn	Zn	1.36216e-17	0.66137	0.25	1.207
Mof_Zn	Zn	0.5	0.16137	0.25	1.236
Mof_Zn	Zn	4.2109e-33	0.33863	0.75	1.208
Mof_Zn	Zn	0.5	0.83863	0.75	1.236
_end
