data_functionalizedCrystal
_audit_creation_method	'EQeq! by Chris Wilmer'
_symmetry_space_group_name_H-M	'P1'
_symmetry_Int_Tables_number	1
_symmetry_cell_setting	triclinic
loop_
_symmetry_equiv_pos_as_xyz
  x,y,z
_cell_length_a	13.4537
_cell_length_b	13.4537
_cell_length_c	27.329
_cell_angle_alpha	90
_cell_angle_beta	90
_cell_angle_gamma	90
loop_
_atom_site_label
_atom_site_type_symbol
_atom_site_fract_x
_atom_site_fract_y
_atom_site_fract_z
_atom_site_charge
Mof_O 	O 	0.4454	0.1386	0.36757	-0.352
Mof_Zn	Zn	0.52227	0.08925	0.44673	1.185
Mof_N 	N 	0.5142	0.2329	0.46533	-0.288
Mof_O 	O 	0.5751	0.0449	0.38345	-0.473
Mof_C 	C 	0.5162	0.0846	0.35307	0.341
Mof_C 	C 	0.5322	0.0677	0.29987	-0.16
Mof_C 	C 	0.4792	0.1205	0.26433	0.406
Mof_N 	N 	0.4061	0.1818	0.2761	0.451
Mof_H 	H 	0.3718	0.2102	0.2535	-0.062
Mof_H 	H 	0.3928	0.1932	0.3064	-0.015
Mof_C 	C 	0.6035	0.999	0.28475	-0.193
Mof_H 	H 	0.6407	0.9656	0.3082	0.116
Mof_N 	N 	0.4745	0.3922	0.46578	-0.259
Mof_N 	N 	0.5375	0.3757	0.50438	-0.252
Mof_C 	C 	0.4633	0.3063	0.44389	0.099
Mof_H 	H 	0.424	0.2973	0.4163	-0.013
Mof_C 	C 	0.5602	0.2807	0.50279	0.07
Mof_H 	H 	0.62	0.259	0.53	-0.036
Mof_H 	H 	0.4311	0.1665	0.2735	-0.553
Mof_O 	O 	0.0546	0.3614	0.36757	-0.353
Mof_Zn	Zn	0.97773	0.41075	0.44673	1.184
Mof_N 	N 	0.9858	0.2671	0.46533	-0.291
Mof_O 	O 	0.9249	0.4551	0.38345	-0.473
Mof_C 	C 	0.9838	0.4154	0.35307	0.338
Mof_C 	C 	0.9678	0.4323	0.29987	-0.16
Mof_C 	C 	0.0208	0.3795	0.26433	0.406
Mof_N 	N 	0.0939	0.3182	0.2761	0.45
Mof_H 	H 	0.1282	0.2898	0.2535	-0.063
Mof_H 	H 	0.1072	0.3068	0.3064	-0.015
Mof_C 	C 	0.8965	0.501	0.28475	-0.195
Mof_H 	H 	0.8593	0.5344	0.3082	0.115
Mof_N 	N 	0.0255	0.1078	0.46578	-0.258
Mof_N 	N 	0.9625	0.1243	0.50438	-0.255
Mof_C 	C 	0.0367	0.1937	0.44389	0.102
Mof_H 	H 	0.076	0.2027	0.4163	-0.013
Mof_C 	C 	0.9398	0.2193	0.50279	0.069
Mof_H 	H 	0.88	0.241	0.53	-0.036
Mof_H 	H 	0.0689	0.3335	0.2735	-0.553
Mof_O 	O 	0.3614	0.4454	0.36757	-0.353
Mof_Zn	Zn	0.41075	0.52227	0.44673	1.184
Mof_N 	N 	0.2671	0.5142	0.46533	-0.289
Mof_O 	O 	0.4551	0.5751	0.38345	-0.473
Mof_C 	C 	0.4154	0.5162	0.35307	0.34
Mof_C 	C 	0.4323	0.5322	0.29987	-0.16
Mof_C 	C 	0.3795	0.4792	0.26433	0.405
Mof_N 	N 	0.3182	0.4061	0.2761	0.45
Mof_H 	H 	0.2898	0.3718	0.2535	-0.063
Mof_H 	H 	0.3068	0.3928	0.3064	-0.016
Mof_C 	C 	0.501	0.6035	0.28475	-0.195
Mof_H 	H 	0.5344	0.6407	0.3082	0.115
Mof_N 	N 	0.1078	0.4745	0.46578	-0.26
Mof_N 	N 	0.1243	0.5375	0.50438	-0.253
Mof_C 	C 	0.1937	0.4633	0.44389	0.099
Mof_H 	H 	0.2027	0.424	0.4163	-0.013
Mof_C 	C 	0.2193	0.5602	0.50279	0.07
Mof_H 	H 	0.241	0.62	0.53	-0.036
Mof_H 	H 	0.3335	0.4311	0.2735	-0.553
Mof_O 	O 	0.1386	0.0546	0.36757	-0.35
Mof_Zn	Zn	0.08925	0.97773	0.44673	1.184
Mof_N 	N 	0.2329	0.9858	0.46533	-0.291
Mof_O 	O 	0.0449	0.9249	0.38345	-0.474
Mof_C 	C 	0.0846	0.9838	0.35307	0.337
Mof_C 	C 	0.0677	0.9678	0.29987	-0.168
Mof_C 	C 	0.1205	0.0208	0.26433	0.409
Mof_N 	N 	0.1818	0.0939	0.2761	0.448
Mof_H 	H 	0.2102	0.1282	0.2535	-0.062
Mof_H 	H 	0.1932	0.1072	0.3064	-0.015
Mof_C 	C 	0.999	0.8965	0.28475	-0.188
Mof_H 	H 	0.9656	0.8593	0.3082	0.114
Mof_N 	N 	0.3922	0.0255	0.46578	-0.26
Mof_N 	N 	0.3757	0.9625	0.50438	-0.254
Mof_C 	C 	0.3063	0.0367	0.44389	0.102
Mof_H 	H 	0.2973	0.076	0.4163	-0.013
Mof_C 	C 	0.2807	0.9398	0.50279	0.069
Mof_H 	H 	0.259	0.88	0.53	-0.036
Mof_H 	H 	0.1665	0.0689	0.2735	-0.552
Mof_O 	O 	0.5546	0.6386	0.13243	-0.353
Mof_Zn	Zn	0.47773	0.58925	0.05327	1.184
Mof_N 	N 	0.4858	0.7329	0.03467	-0.289
Mof_O 	O 	0.4249	0.5449	0.11655	-0.473
Mof_C 	C 	0.4838	0.5846	0.14693	0.34
Mof_C 	C 	0.4678	0.5677	0.20013	-0.16
Mof_C 	C 	0.5208	0.6205	0.23567	0.405
Mof_N 	N 	0.5939	0.6818	0.2239	0.45
Mof_H 	H 	0.6282	0.7102	0.2465	-0.063
Mof_H 	H 	0.6072	0.6932	0.1936	-0.016
Mof_C 	C 	0.3965	0.499	0.21525	-0.195
Mof_H 	H 	0.3593	0.4656	0.1918	0.115
Mof_N 	N 	0.5255	0.8922	0.03422	-0.259
Mof_N 	N 	0.4625	0.8757	0.99562	-0.254
Mof_C 	C 	0.5367	0.8063	0.05611	0.099
Mof_H 	H 	0.576	0.7973	0.0837	-0.013
Mof_C 	C 	0.4398	0.7807	0.99721	0.069
Mof_H 	H 	0.38	0.759	0.97	-0.036
Mof_H 	H 	0.5689	0.6665	0.2265	-0.553
Mof_O 	O 	0.9454	0.8614	0.13243	-0.349
Mof_Zn	Zn	0.02227	0.91075	0.05327	1.183
Mof_N 	N 	0.0142	0.7671	0.03467	-0.291
Mof_O 	O 	0.0751	0.9551	0.11655	-0.474
Mof_C 	C 	0.0162	0.9154	0.14693	0.336
Mof_C 	C 	0.0322	0.9323	0.20013	-0.167
Mof_C 	C 	0.9792	0.8795	0.23567	0.409
Mof_N 	N 	0.9061	0.8182	0.2239	0.448
Mof_H 	H 	0.8718	0.7898	0.2465	-0.062
Mof_H 	H 	0.8928	0.8068	0.1936	-0.015
Mof_C 	C 	0.1035	0.001	0.21525	-0.189
Mof_H 	H 	0.1407	0.0344	0.1918	0.114
Mof_N 	N 	0.9745	0.6078	0.03422	-0.26
Mof_N 	N 	0.0375	0.6243	0.99562	-0.254
Mof_C 	C 	0.9633	0.6937	0.05611	0.103
Mof_H 	H 	0.924	0.7027	0.0837	-0.014
Mof_C 	C 	0.0602	0.7193	0.99721	0.07
Mof_H 	H 	0.12	0.741	0.97	-0.036
Mof_H 	H 	0.9311	0.8335	0.2265	-0.552
Mof_O 	O 	0.6386	0.9454	0.13243	-0.352
Mof_Zn	Zn	0.58925	0.02227	0.05327	1.184
Mof_N 	N 	0.7329	0.0142	0.03467	-0.291
Mof_O 	O 	0.5449	0.0751	0.11655	-0.473
Mof_C 	C 	0.5846	0.0162	0.14693	0.338
Mof_C 	C 	0.5677	0.0322	0.20013	-0.161
Mof_C 	C 	0.6205	0.9792	0.23567	0.406
Mof_N 	N 	0.6818	0.9061	0.2239	0.449
Mof_H 	H 	0.7102	0.8718	0.2465	-0.062
Mof_H 	H 	0.6932	0.8928	0.1936	-0.015
Mof_C 	C 	0.499	0.1035	0.21525	-0.195
Mof_H 	H 	0.4656	0.1407	0.1918	0.115
Mof_N 	N 	0.8922	0.9745	0.03422	-0.258
Mof_N 	N 	0.8757	0.0375	0.99562	-0.255
Mof_C 	C 	0.8063	0.9633	0.05611	0.103
Mof_H 	H 	0.7973	0.924	0.0837	-0.013
Mof_C 	C 	0.7807	0.0602	0.99721	0.07
Mof_H 	H 	0.759	0.12	0.97	-0.036
Mof_H 	H 	0.6665	0.9311	0.2265	-0.553
Mof_O 	O 	0.8614	0.5546	0.13243	-0.353
Mof_Zn	Zn	0.91075	0.47773	0.05327	1.184
Mof_N 	N 	0.7671	0.4858	0.03467	-0.289
Mof_O 	O 	0.9551	0.4249	0.11655	-0.473
Mof_C 	C 	0.9154	0.4838	0.14693	0.34
Mof_C 	C 	0.9323	0.4678	0.20013	-0.16
Mof_C 	C 	0.8795	0.5208	0.23567	0.405
Mof_N 	N 	0.8182	0.5939	0.2239	0.45
Mof_H 	H 	0.7898	0.6282	0.2465	-0.063
Mof_H 	H 	0.8068	0.6072	0.1936	-0.016
Mof_C 	C 	0.001	0.3965	0.21525	-0.195
Mof_H 	H 	0.0344	0.3593	0.1918	0.115
Mof_N 	N 	0.6078	0.5255	0.03422	-0.26
Mof_N 	N 	0.6243	0.4625	0.99562	-0.253
Mof_C 	C 	0.6937	0.5367	0.05611	0.099
Mof_H 	H 	0.7027	0.576	0.0837	-0.013
Mof_C 	C 	0.7193	0.4398	0.99721	0.069
Mof_H 	H 	0.741	0.38	0.97	-0.036
Mof_H 	H 	0.8335	0.5689	0.2265	-0.553
Mof_O 	O 	0.5546	0.8614	0.63243	-0.353
Mof_Zn	Zn	0.47773	0.91075	0.55327	1.184
Mof_N 	N 	0.4858	0.7671	0.53467	-0.289
Mof_O 	O 	0.4249	0.9551	0.61655	-0.474
Mof_C 	C 	0.4838	0.9154	0.64693	0.34
Mof_C 	C 	0.4678	0.9323	0.70013	-0.161
Mof_C 	C 	0.5208	0.8795	0.73567	0.405
Mof_N 	N 	0.5939	0.8182	0.7239	0.45
Mof_H 	H 	0.6282	0.7898	0.7465	-0.063
Mof_H 	H 	0.6072	0.8068	0.6936	-0.016
Mof_C 	C 	0.3965	0.001	0.71525	-0.194
Mof_H 	H 	0.3593	0.0344	0.6918	0.115
Mof_N 	N 	0.5255	0.6078	0.53422	-0.26
Mof_N 	N 	0.4625	0.6243	0.49562	-0.253
Mof_C 	C 	0.5367	0.6937	0.55611	0.099
Mof_H 	H 	0.576	0.7027	0.5837	-0.013
Mof_C 	C 	0.4398	0.7193	0.49721	0.07
Mof_H 	H 	0.38	0.741	0.47	-0.036
Mof_H 	H 	0.5689	0.8335	0.7265	-0.553
Mof_O 	O 	0.9454	0.6386	0.63243	-0.353
Mof_Zn	Zn	0.02227	0.58925	0.55327	1.184
Mof_N 	N 	0.0142	0.7329	0.53467	-0.291
Mof_O 	O 	0.0751	0.5449	0.61655	-0.473
Mof_C 	C 	0.0162	0.5846	0.64693	0.338
Mof_C 	C 	0.0322	0.5677	0.70013	-0.16
Mof_C 	C 	0.9792	0.6205	0.73567	0.406
Mof_N 	N 	0.9061	0.6818	0.7239	0.45
Mof_H 	H 	0.8718	0.7102	0.7465	-0.063
Mof_H 	H 	0.8928	0.6932	0.6936	-0.015
Mof_C 	C 	0.1035	0.499	0.71525	-0.195
Mof_H 	H 	0.1407	0.4656	0.6918	0.115
Mof_N 	N 	0.9745	0.8922	0.53422	-0.258
Mof_N 	N 	0.0375	0.8757	0.49562	-0.255
Mof_C 	C 	0.9633	0.8063	0.55611	0.102
Mof_H 	H 	0.924	0.7973	0.5837	-0.013
Mof_C 	C 	0.0602	0.7807	0.49721	0.069
Mof_H 	H 	0.12	0.759	0.47	-0.036
Mof_H 	H 	0.9311	0.6665	0.7265	-0.553
Mof_O 	O 	0.6386	0.5546	0.63243	-0.353
Mof_Zn	Zn	0.58925	0.47773	0.55327	1.184
Mof_N 	N 	0.7329	0.4858	0.53467	-0.289
Mof_O 	O 	0.5449	0.4249	0.61655	-0.473
Mof_C 	C 	0.5846	0.4838	0.64693	0.34
Mof_C 	C 	0.5677	0.4678	0.70013	-0.16
Mof_C 	C 	0.6205	0.5208	0.73567	0.405
Mof_N 	N 	0.6818	0.5939	0.7239	0.45
Mof_H 	H 	0.7102	0.6282	0.7465	-0.063
Mof_H 	H 	0.6932	0.6072	0.6936	-0.016
Mof_C 	C 	0.499	0.3965	0.71525	-0.195
Mof_H 	H 	0.4656	0.3593	0.6918	0.115
Mof_N 	N 	0.8922	0.5255	0.53422	-0.26
Mof_N 	N 	0.8757	0.4625	0.49562	-0.253
Mof_C 	C 	0.8063	0.5367	0.55611	0.099
Mof_H 	H 	0.7973	0.576	0.5837	-0.013
Mof_C 	C 	0.7807	0.4398	0.49721	0.07
Mof_H 	H 	0.759	0.38	0.47	-0.036
Mof_H 	H 	0.6665	0.5689	0.7265	-0.553
Mof_O 	O 	0.8614	0.9454	0.63243	-0.35
Mof_Zn	Zn	0.91075	0.02227	0.55327	1.184
Mof_N 	N 	0.7671	0.0142	0.53467	-0.291
Mof_O 	O 	0.9551	0.0751	0.61655	-0.474
Mof_C 	C 	0.9154	0.0162	0.64693	0.337
Mof_C 	C 	0.9323	0.0322	0.70013	-0.168
Mof_C 	C 	0.8795	0.9792	0.73567	0.409
Mof_N 	N 	0.8182	0.9061	0.7239	0.448
Mof_H 	H 	0.7898	0.8718	0.7465	-0.062
Mof_H 	H 	0.8068	0.8928	0.6936	-0.015
Mof_C 	C 	0.001	0.1035	0.71525	-0.188
Mof_H 	H 	0.0344	0.1407	0.6918	0.114
Mof_N 	N 	0.6078	0.9745	0.53422	-0.26
Mof_N 	N 	0.6243	0.0375	0.49562	-0.254
Mof_C 	C 	0.6937	0.9633	0.55611	0.102
Mof_H 	H 	0.7027	0.924	0.5837	-0.013
Mof_C 	C 	0.7193	0.0602	0.49721	0.069
Mof_H 	H 	0.741	0.12	0.47	-0.036
Mof_H 	H 	0.8335	0.9311	0.7265	-0.552
Mof_O 	O 	0.4454	0.3614	0.86757	-0.353
Mof_Zn	Zn	0.52227	0.41075	0.94673	1.184
Mof_N 	N 	0.5142	0.2671	0.96533	-0.289
Mof_O 	O 	0.5751	0.4551	0.88345	-0.473
Mof_C 	C 	0.5162	0.4154	0.85307	0.34
Mof_C 	C 	0.5322	0.4323	0.79987	-0.16
Mof_C 	C 	0.4792	0.3795	0.76433	0.405
Mof_N 	N 	0.4061	0.3182	0.7761	0.45
Mof_H 	H 	0.3718	0.2898	0.7535	-0.063
Mof_H 	H 	0.3928	0.3068	0.8064	-0.016
Mof_C 	C 	0.6035	0.501	0.78475	-0.195
Mof_H 	H 	0.6407	0.5344	0.8082	0.115
Mof_N 	N 	0.4745	0.1078	0.96578	-0.259
Mof_N 	N 	0.5375	0.1243	0.00438	-0.254
Mof_C 	C 	0.4633	0.1937	0.94389	0.099
Mof_H 	H 	0.424	0.2027	0.9163	-0.013
Mof_C 	C 	0.5602	0.2193	0.00279	0.069
Mof_H 	H 	0.62	0.241	0.03	-0.036
Mof_H 	H 	0.4311	0.3335	0.7735	-0.553
Mof_O 	O 	0.0546	0.1386	0.86757	-0.349
Mof_Zn	Zn	0.97773	0.08925	0.94673	1.183
Mof_N 	N 	0.9858	0.2329	0.96533	-0.291
Mof_O 	O 	0.9249	0.0449	0.88345	-0.474
Mof_C 	C 	0.9838	0.0846	0.85307	0.336
Mof_C 	C 	0.9678	0.0677	0.79987	-0.167
Mof_C 	C 	0.0208	0.1205	0.76433	0.409
Mof_N 	N 	0.0939	0.1818	0.7761	0.448
Mof_H 	H 	0.1282	0.2102	0.7535	-0.062
Mof_H 	H 	0.1072	0.1932	0.8064	-0.015
Mof_C 	C 	0.8965	0.999	0.78475	-0.189
Mof_H 	H 	0.8593	0.9656	0.8082	0.114
Mof_N 	N 	0.0255	0.3922	0.96578	-0.26
Mof_N 	N 	0.9625	0.3757	0.00438	-0.254
Mof_C 	C 	0.0367	0.3063	0.94389	0.103
Mof_H 	H 	0.076	0.2973	0.9163	-0.014
Mof_C 	C 	0.9398	0.2807	0.00279	0.07
Mof_H 	H 	0.88	0.259	0.03	-0.036
Mof_H 	H 	0.0689	0.1665	0.7735	-0.552
Mof_O 	O 	0.3614	0.0546	0.86757	-0.352
Mof_Zn	Zn	0.41075	0.97773	0.94673	1.184
Mof_N 	N 	0.2671	0.9858	0.96533	-0.291
Mof_O 	O 	0.4551	0.9249	0.88345	-0.473
Mof_C 	C 	0.4154	0.9838	0.85307	0.338
Mof_C 	C 	0.4323	0.9678	0.79987	-0.161
Mof_C 	C 	0.3795	0.0208	0.76433	0.406
Mof_N 	N 	0.3182	0.0939	0.7761	0.449
Mof_H 	H 	0.2898	0.1282	0.7535	-0.062
Mof_H 	H 	0.3068	0.1072	0.8064	-0.015
Mof_C 	C 	0.501	0.8965	0.78475	-0.195
Mof_H 	H 	0.5344	0.8593	0.8082	0.115
Mof_N 	N 	0.1078	0.0255	0.96578	-0.258
Mof_N 	N 	0.1243	0.9625	0.00438	-0.255
Mof_C 	C 	0.1937	0.0367	0.94389	0.103
Mof_H 	H 	0.2027	0.076	0.9163	-0.013
Mof_C 	C 	0.2193	0.9398	0.00279	0.07
Mof_H 	H 	0.241	0.88	0.03	-0.036
Mof_H 	H 	0.3335	0.0689	0.7735	-0.553
Mof_O 	O 	0.1386	0.4454	0.86757	-0.353
Mof_Zn	Zn	0.08925	0.52227	0.94673	1.184
Mof_N 	N 	0.2329	0.5142	0.96533	-0.289
Mof_O 	O 	0.0449	0.5751	0.88345	-0.473
Mof_C 	C 	0.0846	0.5162	0.85307	0.34
Mof_C 	C 	0.0677	0.5322	0.79987	-0.16
Mof_C 	C 	0.1205	0.4792	0.76433	0.405
Mof_N 	N 	0.1818	0.4061	0.7761	0.45
Mof_H 	H 	0.2102	0.3718	0.7535	-0.063
Mof_H 	H 	0.1932	0.3928	0.8064	-0.016
Mof_C 	C 	0.999	0.6035	0.78475	-0.195
Mof_H 	H 	0.9656	0.6407	0.8082	0.115
Mof_N 	N 	0.3922	0.4745	0.96578	-0.26
Mof_N 	N 	0.3757	0.5375	0.00438	-0.253
Mof_C 	C 	0.3063	0.4633	0.94389	0.099
Mof_H 	H 	0.2973	0.424	0.9163	-0.013
Mof_C 	C 	0.2807	0.5602	0.00279	0.069
Mof_H 	H 	0.259	0.62	0.03	-0.036
Mof_H 	H 	0.1665	0.4311	0.7735	-0.553
_end
