data_functionalizedCrystal
_audit_creation_method	'EQeq! by Chris Wilmer'
_symmetry_space_group_name_H-M	'P1'
_symmetry_Int_Tables_number	1
_symmetry_cell_setting	triclinic
loop_
_symmetry_equiv_pos_as_xyz
  x,y,z
_cell_length_a	18.119
_cell_length_b	17.2294
_cell_length_c	13.478
_cell_angle_alpha	90
_cell_angle_beta	129.38
_cell_angle_gamma	90
loop_
_atom_site_label
_atom_site_type_symbol
_atom_site_fract_x
_atom_site_fract_y
_atom_site_fract_z
_atom_site_charge
Mof_O 	O 	0.23013	0.18662	0.355	-0.463
Mof_O 	O 	0.07555	0.20013	0.1862	-0.509
Mof_O 	O 	0.23052	0.85104	0.0619	-0.499
Mof_O 	O 	0.08837	0.88808	0.88	-0.532
Mof_O 	O 	0.09988	0.27906	0.3897	-0.455
Mof_N 	N 	0.07407	0.33972	0.4228	-0.061
Mof_C 	C 	0.1617	0.10198	0.1772	-0.042
Mof_C 	C 	0.2396	0.0523	0.244	-0.062
Mof_H 	H 	0.294	0.065	0.335	0.069
Mof_C 	C 	0.2407	0.9871	0.1856	0.047
Mof_H 	H 	0.291	0.953	0.227	0.03
Mof_C 	C 	0.1646	0.97055	0.0586	-0.188
Mof_C 	C 	0.0878	0.0213	0.9915	0.11
Mof_H 	H 	0.038	0.008	0.915	-0.01
Mof_C 	C 	0.0861	0.0858	0.0505	-0.134
Mof_H 	H 	0.041	0.123	0.013	0.071
Mof_C 	C 	0.1564	0.16822	0.2451	0.379
Mof_C 	C 	0.161	0.8973	0.9947	0.473
Mof_C 	C 	0.0862	0.4113	0.3977	0.026
Mof_H 	H 	0.111	0.417	0.365	0.035
Mof_C 	C 	0.0569	0.4749	0.4254	-0.135
Mof_H 	H 	0.066	0.521	0.404	0.068
Mof_C 	C 	0.0154	0.4658	0.4833	0.054
Mof_C 	C 	0.0073	0.3909	0.5121	-0.249
Mof_H 	H 	0.975	0.378	0.545	0.165
Mof_C 	C 	0.0368	0.3286	0.4815	0.091
Mof_H 	H 	0.029	0.28	0.489	-0.004
Mof_O 	O 	0.73013	0.68662	0.355	-0.457
Mof_O 	O 	0.57555	0.70013	0.1862	-0.477
Mof_O 	O 	0.73052	0.35104	0.0619	-0.495
Mof_O 	O 	0.58837	0.38808	0.88	-0.507
Mof_O 	O 	0.59988	0.77906	0.3897	-0.443
Mof_N 	N 	0.57407	0.83972	0.4228	-0.034
Mof_C 	C 	0.6617	0.60198	0.1772	-0.035
Mof_C 	C 	0.7396	0.5523	0.244	-0.052
Mof_H 	H 	0.794	0.565	0.335	0.069
Mof_C 	C 	0.7407	0.4871	0.1856	0.043
Mof_H 	H 	0.791	0.453	0.227	0.042
Mof_C 	C 	0.6646	0.47055	0.0586	-0.178
Mof_C 	C 	0.5878	0.5213	0.9915	0.111
Mof_H 	H 	0.538	0.508	0.915	0.012
Mof_C 	C 	0.5861	0.5858	0.0505	-0.122
Mof_H 	H 	0.541	0.623	0.013	0.088
Mof_C 	C 	0.6564	0.66822	0.2451	0.377
Mof_C 	C 	0.661	0.3973	0.9947	0.475
Mof_C 	C 	0.5862	0.9113	0.3977	0.002
Mof_H 	H 	0.611	0.917	0.365	0.056
Mof_C 	C 	0.5569	0.9749	0.4254	-0.087
Mof_H 	H 	0.566	0.021	0.404	0.065
Mof_C 	C 	0.5154	0.9658	0.4833	0.029
Mof_C 	C 	0.5073	0.8909	0.5121	-0.066
Mof_H 	H 	0.475	0.878	0.545	0.056
Mof_C 	C 	0.5368	0.8286	0.4815	0.001
Mof_H 	H 	0.529	0.78	0.489	0.058
Mof_O 	O 	0.76987	0.18662	0.145	-0.466
Mof_O 	O 	0.92445	0.20013	0.3138	-0.446
Mof_O 	O 	0.76948	0.85104	0.4381	-0.465
Mof_O 	O 	0.91163	0.88808	0.62	-0.465
Mof_O 	O 	0.90012	0.27906	0.1103	-0.437
Mof_N 	N 	0.92593	0.33972	0.0772	0.022
Mof_C 	C 	0.8383	0.10198	0.3228	-0.093
Mof_C 	C 	0.7604	0.0523	0.256	0.01
Mof_H 	H 	0.706	0.065	0.165	0.045
Mof_C 	C 	0.7593	0.9871	0.3144	-0.036
Mof_H 	H 	0.709	0.953	0.273	0.063
Mof_C 	C 	0.8354	0.97055	0.4414	-0.055
Mof_C 	C 	0.9122	0.0213	0.5085	-0.046
Mof_H 	H 	0.962	0.008	0.585	0.093
Mof_C 	C 	0.9139	0.0858	0.4495	0.013
Mof_H 	H 	0.959	0.123	0.487	0.066
Mof_C 	C 	0.8436	0.16822	0.2549	0.396
Mof_C 	C 	0.839	0.8973	0.5053	0.403
Mof_C 	C 	0.9138	0.4113	0.1023	-0.099
Mof_H 	H 	0.889	0.417	0.135	0.111
Mof_C 	C 	0.9431	0.4749	0.0746	0.055
Mof_H 	H 	0.934	0.521	0.096	0.023
Mof_C 	C 	0.9846	0.4658	0.0167	-0.118
Mof_C 	C 	0.9927	0.3909	0.9879	0.24
Mof_H 	H 	0.025	0.378	0.955	-0.089
Mof_C 	C 	0.9632	0.3286	0.0185	-0.183
Mof_H 	H 	0.971	0.28	0.011	0.151
Mof_O 	O 	0.26987	0.68662	0.145	-0.47
Mof_O 	O 	0.42445	0.70013	0.3138	-0.48
Mof_O 	O 	0.26948	0.35104	0.4381	-0.473
Mof_O 	O 	0.41163	0.38808	0.62	-0.493
Mof_O 	O 	0.40012	0.77906	0.1103	-0.451
Mof_N 	N 	0.42593	0.83972	0.0772	-0.004
Mof_C 	C 	0.3383	0.60198	0.3228	-0.096
Mof_C 	C 	0.2604	0.5523	0.256	-0
Mof_H 	H 	0.206	0.565	0.165	0.046
Mof_C 	C 	0.2593	0.4871	0.3144	-0.03
Mof_H 	H 	0.209	0.453	0.273	0.05
Mof_C 	C 	0.3354	0.47055	0.4414	-0.076
Mof_C 	C 	0.4122	0.5213	0.5085	-0.038
Mof_H 	H 	0.462	0.508	0.585	0.067
Mof_C 	C 	0.4139	0.5858	0.4495	-0.005
Mof_H 	H 	0.459	0.623	0.487	0.05
Mof_C 	C 	0.3436	0.66822	0.2549	0.398
Mof_C 	C 	0.339	0.3973	0.5053	0.409
Mof_C 	C 	0.4138	0.9113	0.1023	-0.082
Mof_H 	H 	0.389	0.917	0.135	0.092
Mof_C 	C 	0.4431	0.9749	0.0746	0.017
Mof_H 	H 	0.434	0.021	0.096	0.02
Mof_C 	C 	0.4846	0.9658	0.0167	-0.099
Mof_C 	C 	0.4927	0.8909	0.9879	0.056
Mof_H 	H 	0.525	0.878	0.955	0.019
Mof_C 	C 	0.4632	0.8286	0.0185	-0.091
Mof_H 	H 	0.471	0.78	0.011	0.089
Mof_O 	O 	0.76987	0.81338	0.645	-0.465
Mof_O 	O 	0.92445	0.79987	0.8138	-0.448
Mof_O 	O 	0.76948	0.14896	0.9381	-0.435
Mof_O 	O 	0.91163	0.11192	0.12	-0.453
Mof_O 	O 	0.90012	0.72094	0.6103	-0.43
Mof_N 	N 	0.92593	0.66028	0.5772	-0.008
Mof_C 	C 	0.8383	0.89802	0.8228	-0.151
Mof_C 	C 	0.7604	0.9477	0.756	0.075
Mof_H 	H 	0.706	0.935	0.665	0.031
Mof_C 	C 	0.7593	0.0129	0.8144	-0.115
Mof_H 	H 	0.709	0.047	0.773	0.093
Mof_C 	C 	0.8354	0.02945	0.9414	0.052
Mof_C 	C 	0.9122	0.9787	0.0085	-0.193
Mof_H 	H 	0.962	0.992	0.085	0.147
Mof_C 	C 	0.9139	0.9142	0.9495	0.13
Mof_H 	H 	0.959	0.877	0.987	0.027
Mof_C 	C 	0.8436	0.83178	0.7549	0.418
Mof_C 	C 	0.839	0.1027	0.0053	0.334
Mof_C 	C 	0.9138	0.5887	0.6023	-0.02
Mof_H 	H 	0.889	0.583	0.635	0.076
Mof_C 	C 	0.9431	0.5251	0.5746	-0.044
Mof_H 	H 	0.934	0.479	0.596	0.064
Mof_C 	C 	0.9846	0.5342	0.5167	0.006
Mof_C 	C 	0.9927	0.6091	0.4879	0.114
Mof_H 	H 	0.025	0.622	0.455	-0.052
Mof_C 	C 	0.9632	0.6714	0.5185	-0.09
Mof_H 	H 	0.971	0.72	0.511	0.119
Mof_O 	O 	0.26987	0.31338	0.645	-0.47
Mof_O 	O 	0.42445	0.29987	0.8138	-0.482
Mof_O 	O 	0.26948	0.64896	0.9381	-0.446
Mof_O 	O 	0.41163	0.61192	0.12	-0.481
Mof_O 	O 	0.40012	0.22094	0.6103	-0.445
Mof_N 	N 	0.42593	0.16028	0.5772	-0.035
Mof_C 	C 	0.3383	0.39802	0.8228	-0.154
Mof_C 	C 	0.2604	0.4477	0.756	0.062
Mof_H 	H 	0.206	0.435	0.665	0.032
Mof_C 	C 	0.2593	0.5129	0.8144	-0.105
Mof_H 	H 	0.209	0.547	0.773	0.079
Mof_C 	C 	0.3354	0.52945	0.9414	0.029
Mof_C 	C 	0.4122	0.4787	0.0085	-0.185
Mof_H 	H 	0.462	0.492	0.085	0.12
Mof_C 	C 	0.4139	0.4142	0.9495	0.113
Mof_H 	H 	0.459	0.377	0.987	0.012
Mof_C 	C 	0.3436	0.33178	0.7549	0.42
Mof_C 	C 	0.339	0.6027	0.0053	0.346
Mof_C 	C 	0.4138	0.0887	0.6023	0.001
Mof_H 	H 	0.389	0.083	0.635	0.055
Mof_C 	C 	0.4431	0.0251	0.5746	-0.09
Mof_H 	H 	0.434	0.979	0.596	0.065
Mof_C 	C 	0.4846	0.0342	0.5167	0.029
Mof_C 	C 	0.4927	0.1091	0.4879	-0.068
Mof_H 	H 	0.525	0.122	0.455	0.057
Mof_C 	C 	0.4632	0.1714	0.5185	-0.001
Mof_H 	H 	0.471	0.22	0.511	0.057
Mof_O 	O 	0.23013	0.81338	0.855	-0.461
Mof_O 	O 	0.07555	0.79987	0.6862	-0.512
Mof_O 	O 	0.23052	0.14896	0.5619	-0.474
Mof_O 	O 	0.08837	0.11192	0.38	-0.52
Mof_O 	O 	0.09988	0.72094	0.8897	-0.45
Mof_N 	N 	0.07407	0.66028	0.9228	-0.089
Mof_C 	C 	0.1617	0.89802	0.6772	-0.099
Mof_C 	C 	0.2396	0.9477	0.744	-0.001
Mof_H 	H 	0.294	0.935	0.835	0.055
Mof_C 	C 	0.2407	0.0129	0.6856	-0.026
Mof_H 	H 	0.291	0.047	0.727	0.059
Mof_C 	C 	0.1646	0.02945	0.5586	-0.088
Mof_C 	C 	0.0878	0.9787	0.4915	-0.035
Mof_H 	H 	0.038	0.992	0.415	0.042
Mof_C 	C 	0.0861	0.9142	0.5505	-0.018
Mof_H 	H 	0.041	0.877	0.513	0.032
Mof_C 	C 	0.1564	0.83178	0.7451	0.4
Mof_C 	C 	0.161	0.1027	0.4947	0.413
Mof_C 	C 	0.0862	0.5887	0.8977	0.1
Mof_H 	H 	0.111	0.583	0.865	0.002
Mof_C 	C 	0.0569	0.5251	0.9254	-0.229
Mof_H 	H 	0.066	0.479	0.904	0.107
Mof_C 	C 	0.0154	0.5342	0.9833	0.171
Mof_C 	C 	0.0073	0.6091	0.0121	-0.36
Mof_H 	H 	0.975	0.622	0.045	0.196
Mof_C 	C 	0.0368	0.6714	0.9815	0.172
Mof_H 	H 	0.029	0.72	0.989	-0.032
Mof_O 	O 	0.73013	0.31338	0.855	-0.456
Mof_O 	O 	0.57555	0.29987	0.6862	-0.479
Mof_O 	O 	0.73052	0.64896	0.5619	-0.466
Mof_O 	O 	0.58837	0.61192	0.38	-0.495
Mof_O 	O 	0.59988	0.22094	0.8897	-0.436
Mof_N 	N 	0.57407	0.16028	0.9228	-0.066
Mof_C 	C 	0.6617	0.39802	0.6772	-0.095
Mof_C 	C 	0.7396	0.4477	0.744	0.012
Mof_H 	H 	0.794	0.435	0.835	0.055
Mof_C 	C 	0.7407	0.5129	0.6856	-0.035
Mof_H 	H 	0.791	0.547	0.727	0.072
Mof_C 	C 	0.6646	0.52945	0.5586	-0.068
Mof_C 	C 	0.5878	0.4787	0.4915	-0.041
Mof_H 	H 	0.538	0.492	0.415	0.066
Mof_C 	C 	0.5861	0.4142	0.5505	-0.001
Mof_H 	H 	0.541	0.377	0.513	0.048
Mof_C 	C 	0.6564	0.33178	0.7451	0.399
Mof_C 	C 	0.661	0.6027	0.4947	0.408
Mof_C 	C 	0.5862	0.0887	0.8977	0.086
Mof_H 	H 	0.611	0.083	0.865	0.019
Mof_C 	C 	0.5569	0.0251	0.9254	-0.192
Mof_H 	H 	0.566	0.979	0.904	0.108
Mof_C 	C 	0.5154	0.0342	0.9833	0.16
Mof_C 	C 	0.5073	0.1091	0.0121	-0.2
Mof_H 	H 	0.475	0.122	0.045	0.095
Mof_C 	C 	0.5368	0.1714	0.9815	0.098
Mof_H 	H 	0.529	0.22	0.989	0.024
Mof_Mg	Mg	0.25	0.25	0.5	1.477
Mof_Mg	Mg	0.75	0.25	-0	1.475
Mof_Mg	Mg	0.75	0.75	0.5	1.477
Mof_Mg	Mg	0.25	0.75	-0	1.475
Mof_Mg	Mg	1.13964e-33	0.1947	0.25	1.472
Mof_Mg	Mg	0.5	0.6947	0.25	1.478
Mof_Mg	Mg	3.41892e-33	0.8053	0.75	1.472
Mof_Mg	Mg	0.5	0.3053	0.75	1.478
_end
