data_functionalizedCrystal
_audit_creation_method	'EQeq! by Chris Wilmer'
_symmetry_space_group_name_H-M	'P1'
_symmetry_Int_Tables_number	1
_symmetry_cell_setting	triclinic
loop_
_symmetry_equiv_pos_as_xyz
  x,y,z
_cell_length_a	9.3037
_cell_length_b	9.5728
_cell_length_c	18.669
_cell_angle_alpha	82.061
_cell_angle_beta	79.153
_cell_angle_gamma	72.695
loop_
_atom_site_label
_atom_site_type_symbol
_atom_site_fract_x
_atom_site_fract_y
_atom_site_fract_z
_atom_site_charge
Mof_Cd	Cd	0.2075	0.8202	0.10807	0.479
Mof_Cd	Cd	0.10107	0.76459	0.43271	0.521
Mof_C 	C 	0.1497	0.1543	0.3075	0.004
Mof_C 	C 	0.1858	0.1709	0.2305	-0.048
Mof_C 	C 	0.2031	0.3038	0.1965	0.019
Mof_H 	H 	0.236	0.311	0.139	0.045
Mof_C 	C 	0.1857	0.4224	0.2362	-0.05
Mof_C 	C 	0.154	0.4051	0.3131	0.008
Mof_C 	C 	0.1336	0.2729	0.3481	-0.031
Mof_C 	C 	0.1396	0.5303	0.3585	0.285
Mof_C 	C 	0.1989	0.5666	0.195	0.302
Mof_C 	C 	0.1291	0.0113	0.348	0.275
Mof_C 	C 	0.1985	0.0492	0.184	0.297
Mof_C 	C 	0.0883	0.2559	0.4305	0.307
Mof_C 	C 	0.9454	0.4589	0.0192	-0.188
Mof_H 	H 	0.951	0.381	0.993	0.109
Mof_H 	H 	0.001	0.428	0.063	0.101
Mof_C 	C 	0.7794	0.5451	0.0313	0.176
Mof_C 	C 	0.5675	0.7621	0.0334	0.129
Mof_H 	H 	0.5326	0.863	0.0223	0.024
Mof_C 	C 	0.7235	0.6961	0.0148	-0.191
Mof_H 	H 	0.7886	0.7517	0.9919	0.119
Mof_C 	C 	0.5212	0.5475	0.0788	0.13
Mof_H 	H 	0.453	0.4944	0.1007	0.008
Mof_C 	C 	0.6724	0.4711	0.062	-0.204
Mof_H 	H 	0.7027	0.3694	0.0714	0.124
Mof_C 	C 	0.9285	0.9933	0.0272	0.211
Mof_N 	N 	0.4656	0.6937	0.0655	-0.157
Mof_O 	O 	0.227	0.8556	0.5066	-0.307
Mof_H 	H 	0.2275	0.9399	0.491	0.264
Mof_O 	O 	0.8012	0.067	0.0095	-0.234
Mof_O 	O 	0.0216	0.6368	0.3593	-0.221
Mof_O 	O 	0.2433	0.521	0.3943	-0.21
Mof_O 	O 	0.9653	0.345	0.4556	-0.225
Mof_O 	O 	0.1529	0.5988	0.1341	-0.27
Mof_O 	O 	0.2559	0.6454	0.2217	-0.229
Mof_O 	O 	0.0014	0.0113	0.3862	-0.22
Mof_O 	O 	0.2403	0.8993	0.3437	-0.22
Mof_O 	O 	0.0998	0.9819	0.1985	-0.235
Mof_O 	O 	0.3051	0.0236	0.1312	-0.249
Mof_O 	O 	0.9487	0.9092	0.0837	-0.214
Mof_O 	O 	0.1669	0.157	0.4685	-0.237
Mof_Cd	Cd	0.7925	0.1798	0.89193	0.48
Mof_Cd	Cd	0.89893	0.23541	0.56729	0.522
Mof_C 	C 	0.8503	0.8457	0.6925	0.005
Mof_C 	C 	0.8142	0.8291	0.7695	-0.047
Mof_C 	C 	0.7969	0.6962	0.8035	0.02
Mof_H 	H 	0.764	0.689	0.861	0.046
Mof_C 	C 	0.8143	0.5776	0.7638	-0.05
Mof_C 	C 	0.846	0.5949	0.6869	0.008
Mof_C 	C 	0.8664	0.7271	0.6519	-0.031
Mof_C 	C 	0.8604	0.4697	0.6415	0.285
Mof_C 	C 	0.8011	0.4334	0.805	0.302
Mof_C 	C 	0.8709	0.9887	0.652	0.275
Mof_C 	C 	0.8015	0.9508	0.816	0.297
Mof_C 	C 	0.9117	0.7441	0.5695	0.307
Mof_C 	C 	0.0546	0.5411	0.9808	-0.188
Mof_H 	H 	0.049	0.619	0.007	0.109
Mof_H 	H 	0.999	0.572	0.937	0.101
Mof_C 	C 	0.2206	0.4549	0.9687	0.176
Mof_C 	C 	0.4325	0.2379	0.9666	0.129
Mof_H 	H 	0.4674	0.137	0.9777	0.024
Mof_C 	C 	0.2765	0.3039	0.9852	-0.191
Mof_H 	H 	0.2114	0.2483	0.0081	0.119
Mof_C 	C 	0.4788	0.4525	0.9212	0.13
Mof_H 	H 	0.547	0.5056	0.8993	0.008
Mof_C 	C 	0.3276	0.5289	0.938	-0.204
Mof_H 	H 	0.2973	0.6306	0.9286	0.124
Mof_C 	C 	0.0715	0.0067	0.9728	0.211
Mof_N 	N 	0.5344	0.3063	0.9345	-0.157
Mof_O 	O 	0.773	0.1444	0.4934	-0.307
Mof_H 	H 	0.7725	0.0601	0.509	0.264
Mof_O 	O 	0.1988	0.933	0.9905	-0.234
Mof_O 	O 	0.9784	0.3632	0.6407	-0.221
Mof_O 	O 	0.7567	0.479	0.6057	-0.21
Mof_O 	O 	0.0347	0.655	0.5444	-0.225
Mof_O 	O 	0.8471	0.4012	0.8659	-0.27
Mof_O 	O 	0.7441	0.3546	0.7783	-0.229
Mof_O 	O 	0.9986	0.9887	0.6138	-0.22
Mof_O 	O 	0.7597	0.1007	0.6563	-0.22
Mof_O 	O 	0.9002	0.0181	0.8015	-0.235
Mof_O 	O 	0.6949	0.9764	0.8688	-0.249
Mof_O 	O 	0.0513	0.0908	0.9163	-0.214
Mof_O 	O 	0.8331	0.843	0.5315	-0.237
_end
