data_functionalizedCrystal
_audit_creation_method	'EQeq! by Chris Wilmer'
_symmetry_space_group_name_H-M	'P1'
_symmetry_Int_Tables_number	1
_symmetry_cell_setting	triclinic
loop_
_symmetry_equiv_pos_as_xyz
  x,y,z
_cell_length_a	7.0614
_cell_length_b	18.208
_cell_length_c	24.729
_cell_angle_alpha	90
_cell_angle_beta	90
_cell_angle_gamma	100.32
loop_
_atom_site_label
_atom_site_type_symbol
_atom_site_fract_x
_atom_site_fract_y
_atom_site_fract_z
_atom_site_charge
Mof_La	La	0.22471	0.01602	0.39972	1.904
Mof_La	La	0.77529	0.98398	0.89972	1.855
Mof_La	La	0.77529	0.98398	0.60028	1.861
Mof_La	La	0.22471	0.01602	0.10028	1.903
Mof_Cu	Cu	0.75	0.44599	0.3157	0.769
Mof_Cu	Cu	0.37881	0.5432	0.49274	0.779
Mof_Cu	Cu	0.82827	0.56012	0.41965	0.792
Mof_Cu	Cu	0.25	0.55401	0.8157	0.779
Mof_Cu	Cu	0.62119	0.4568	0.99274	0.77
Mof_Cu	Cu	0.17173	0.43988	0.91965	0.801
Mof_Cu	Cu	0.25	0.55401	0.6843	0.779
Mof_Cu	Cu	0.62119	0.4568	0.50726	0.776
Mof_Cu	Cu	0.17173	0.43988	0.58035	0.804
Mof_Cu	Cu	0.75	0.44599	0.1843	0.768
Mof_Cu	Cu	0.37881	0.5432	0.00726	0.783
Mof_Cu	Cu	0.82827	0.56012	0.08035	0.793
Mof_Cu	Cu	0.77156	0.56414	0.25	0.748
Mof_Cu	Cu	0.22844	0.43586	0.75	0.762
Mof_H 	H 	0.2228	0.2867	0.3619	0.044
Mof_H 	H 	0.1037	0.3953	0.3489	0.032
Mof_H 	H 	0.5929	0.2814	0.319	0.013
Mof_H 	H 	0.6958	0.1708	0.3349	0.016
Mof_H 	H 	0.396	0.7617	0.3721	0.074
Mof_H 	H 	0.4217	0.6419	0.3958	-0.005
Mof_H 	H 	0.3215	0.6814	0.5474	-0.005
Mof_H 	H 	0.2998	0.8021	0.5281	0.057
Mof_H 	H 	0.904	0.8305	0.3787	0.012
Mof_H 	H 	0.8928	0.7064	0.3625	0.003
Mof_H 	H 	0.809	0.6585	0.5155	-0.007
Mof_H 	H 	0.8081	0.7812	0.5355	0.031
Mof_H 	H 	0.7772	0.7133	0.8619	0.078
Mof_H 	H 	0.8963	0.6047	0.8489	0.024
Mof_H 	H 	0.4071	0.7186	0.819	-0.003
Mof_H 	H 	0.3042	0.8292	0.8349	0.044
Mof_H 	H 	0.604	0.2383	0.8721	0.069
Mof_H 	H 	0.5783	0.3581	0.8958	-0.002
Mof_H 	H 	0.6785	0.3186	0.0474	-0.009
Mof_H 	H 	0.7002	0.1979	0.0281	0.048
Mof_H 	H 	0.096	0.1695	0.8787	0.012
Mof_H 	H 	0.1072	0.2936	0.8625	0.017
Mof_H 	H 	0.191	0.3415	0.0155	0.024
Mof_H 	H 	0.1919	0.2188	0.0355	0.014
Mof_H 	H 	0.7772	0.7133	0.6381	0.078
Mof_H 	H 	0.8963	0.6047	0.6511	0.024
Mof_H 	H 	0.4071	0.7186	0.681	-0.003
Mof_H 	H 	0.3042	0.8292	0.6651	0.044
Mof_H 	H 	0.604	0.2383	0.6279	0.071
Mof_H 	H 	0.5783	0.3581	0.6042	-0.003
Mof_H 	H 	0.6785	0.3186	0.4526	-0.008
Mof_H 	H 	0.7002	0.1979	0.4719	0.051
Mof_H 	H 	0.096	0.1695	0.6213	0.019
Mof_H 	H 	0.1072	0.2936	0.6375	0.012
Mof_H 	H 	0.191	0.3415	0.4845	-0.004
Mof_H 	H 	0.1919	0.2188	0.4645	0.034
Mof_H 	H 	0.2228	0.2867	0.1381	0.044
Mof_H 	H 	0.1037	0.3953	0.1511	0.031
Mof_H 	H 	0.5929	0.2814	0.181	0.014
Mof_H 	H 	0.6958	0.1708	0.1651	0.016
Mof_H 	H 	0.396	0.7617	0.1279	0.078
Mof_H 	H 	0.4217	0.6419	0.1042	-0.007
Mof_H 	H 	0.3215	0.6814	0.9526	-0.006
Mof_H 	H 	0.2998	0.8021	0.9719	0.061
Mof_H 	H 	0.904	0.8305	0.1213	0.009
Mof_H 	H 	0.8928	0.7064	0.1375	0.005
Mof_H 	H 	0.809	0.6585	0.9845	-0.02
Mof_H 	H 	0.8081	0.7812	0.9645	0.013
Mof_H 	H 	0.2338	0.7059	0.25	0.071
Mof_H 	H 	0.3834	0.6041	0.25	0.028
Mof_H 	H 	0.8863	0.7324	0.25	0.001
Mof_H 	H 	0.7493	0.8375	0.25	0.056
Mof_H 	H 	0.7662	0.2941	0.75	0.062
Mof_H 	H 	0.6166	0.3959	0.75	0.031
Mof_H 	H 	0.1137	0.2676	0.75	0.015
Mof_H 	H 	0.2507	0.1625	0.75	0.059
Mof_C 	C 	0.0501	0.1454	0.3592	0.351
Mof_C 	C 	0.9727	0.2163	0.3497	-0.115
Mof_C 	C 	0.0933	0.2844	0.3536	0.003
Mof_C 	C 	0.021	0.3497	0.3453	0.007
Mof_C 	C 	0.7211	0.2828	0.3283	-0.001
Mof_C 	C 	0.7822	0.2157	0.3372	-0.016
Mof_C 	C 	0.3289	0.8743	0.4322	0.302
Mof_C 	C 	0.3473	0.7958	0.4475	-0.02
Mof_C 	C 	0.3822	0.7466	0.408	-0.07
Mof_C 	C 	0.3964	0.6747	0.4226	0.037
Mof_C 	C 	0.3383	0.698	0.5119	0.04
Mof_C 	C 	0.3244	0.7702	0.5006	-0.066
Mof_C 	C 	0.8541	0.9021	0.4721	0.473
Mof_C 	C 	0.854	0.8203	0.4595	-0.129
Mof_C 	C 	0.8821	0.7963	0.407	0.001
Mof_C 	C 	0.8772	0.722	0.3978	-0
Mof_C 	C 	0.8266	0.6935	0.4877	-0.008
Mof_C 	C 	0.8266	0.7672	0.5	-0.001
Mof_C 	C 	0.9499	0.8546	0.8592	0.234
Mof_C 	C 	0.0273	0.7837	0.8497	0.022
Mof_C 	C 	0.9067	0.7156	0.8536	-0.103
Mof_C 	C 	0.979	0.6503	0.8453	0.01
Mof_C 	C 	0.2789	0.7172	0.8283	0.044
Mof_C 	C 	0.2178	0.7843	0.8372	-0.089
Mof_C 	C 	0.6711	0.1257	0.9322	0.305
Mof_C 	C 	0.6527	0.2042	0.9475	-0.043
Mof_C 	C 	0.6178	0.2534	0.908	-0.064
Mof_C 	C 	0.6036	0.3253	0.9226	0.026
Mof_C 	C 	0.6617	0.302	0.0119	0.04
Mof_C 	C 	0.6756	0.2298	0.0006	-0.052
Mof_C 	C 	0.1459	0.0979	0.9721	0.475
Mof_C 	C 	0.146	0.1797	0.9595	-0.155
Mof_C 	C 	0.1179	0.2037	0.907	0.025
Mof_C 	C 	0.1228	0.278	0.8978	-0.008
Mof_C 	C 	0.1734	0.3065	0.9877	-0.061
Mof_C 	C 	0.1734	0.2328	-0	0.063
Mof_C 	C 	0.9499	0.8546	0.6408	0.233
Mof_C 	C 	0.0273	0.7837	0.6503	0.024
Mof_C 	C 	0.9067	0.7156	0.6464	-0.104
Mof_C 	C 	0.979	0.6503	0.6547	0.011
Mof_C 	C 	0.2789	0.7172	0.6717	0.045
Mof_C 	C 	0.2178	0.7843	0.6628	-0.09
Mof_C 	C 	0.6711	0.1257	0.5678	0.3
Mof_C 	C 	0.6527	0.2042	0.5525	-0.028
Mof_C 	C 	0.6178	0.2534	0.592	-0.07
Mof_C 	C 	0.6036	0.3253	0.5774	0.031
Mof_C 	C 	0.6617	0.302	0.4881	0.034
Mof_C 	C 	0.6756	0.2298	0.4994	-0.067
Mof_C 	C 	0.1459	0.0979	0.5279	0.475
Mof_C 	C 	0.146	0.1797	0.5405	-0.121
Mof_C 	C 	0.1179	0.2037	0.593	0.003
Mof_C 	C 	0.1228	0.278	0.6022	0.007
Mof_C 	C 	0.1734	0.3065	0.5123	-0.001
Mof_C 	C 	0.1734	0.2328	0.5	0.001
Mof_C 	C 	0.0501	0.1454	0.1408	0.352
Mof_C 	C 	0.9727	0.2163	0.1503	-0.115
Mof_C 	C 	0.0933	0.2844	0.1464	0.004
Mof_C 	C 	0.021	0.3497	0.1547	0.007
Mof_C 	C 	0.7211	0.2828	0.1717	-0.001
Mof_C 	C 	0.7822	0.2157	0.1628	-0.016
Mof_C 	C 	0.3289	0.8743	0.0678	0.295
Mof_C 	C 	0.3473	0.7958	0.0525	0.002
Mof_C 	C 	0.3822	0.7466	0.092	-0.081
Mof_C 	C 	0.3964	0.6747	0.0774	0.044
Mof_C 	C 	0.3383	0.698	0.9881	0.034
Mof_C 	C 	0.3244	0.7702	0.9994	-0.091
Mof_C 	C 	0.8541	0.9021	0.0279	0.496
Mof_C 	C 	0.854	0.8203	0.0405	-0.143
Mof_C 	C 	0.8821	0.7963	0.093	0.01
Mof_C 	C 	0.8772	0.722	0.1022	-0.005
Mof_C 	C 	0.8266	0.6935	0.0123	0.004
Mof_C 	C 	0.8266	0.7672	-0	0.027
Mof_C 	C 	0.3736	0.8511	0.25	0.285
Mof_C 	C 	0.4742	0.784	0.25	-0.025
Mof_C 	C 	0.3675	0.7128	0.25	-0.061
Mof_C 	C 	0.4585	0.6516	0.25	0.017
Mof_C 	C 	0.7527	0.7266	0.25	0.037
Mof_C 	C 	0.6712	0.7906	0.25	-0.073
Mof_C 	C 	0.6264	0.1489	0.75	0.29
Mof_C 	C 	0.5258	0.216	0.75	-0.031
Mof_C 	C 	0.6325	0.2872	0.75	-0.054
Mof_C 	C 	0.5415	0.3484	0.75	0.013
Mof_C 	C 	0.2473	0.2734	0.75	0.033
Mof_C 	C 	0.3288	0.2094	0.75	-0.067
Mof_I 	I 	0.02295	0.55701	0.32989	-0.603
Mof_I 	I 	0.48946	0.47106	0.41005	-0.733
Mof_I 	I 	0.97705	0.44299	0.82989	-0.652
Mof_I 	I 	0.51054	0.52894	0.91005	-0.736
Mof_I 	I 	0.97705	0.44299	0.67011	-0.651
Mof_I 	I 	0.51054	0.52894	0.58995	-0.73
Mof_I 	I 	0.02295	0.55701	0.17011	-0.603
Mof_I 	I 	0.48946	0.47106	0.08995	-0.73
Mof_I 	I 	0.46956	0.44039	0.25	-0.598
Mof_I 	I 	0.53044	0.55961	0.75	-0.596
Mof_I 	I 	1.47591e-17	0.5	0.5	-0.742
Mof_I 	I 	-3.63441e-17	0.5	-0	-0.728
Mof_N 	N 	0.8356	0.3494	0.33213	-0.237
Mof_N 	N 	0.3751	0.6501	0.4738	-0.233
Mof_N 	N 	0.851	0.6702	0.43719	-0.225
Mof_N 	N 	0.1644	0.6506	0.83213	-0.229
Mof_N 	N 	0.6249	0.3499	0.9738	-0.24
Mof_N 	N 	0.149	0.3298	0.93719	-0.208
Mof_N 	N 	0.1644	0.6506	0.66787	-0.229
Mof_N 	N 	0.6249	0.3499	0.5262	-0.235
Mof_N 	N 	0.149	0.3298	0.56281	-0.22
Mof_N 	N 	0.8356	0.3494	0.16787	-0.237
Mof_N 	N 	0.3751	0.6501	0.0262	-0.228
Mof_N 	N 	0.851	0.6702	0.06281	-0.225
Mof_N 	N 	0.652	0.658	0.25	-0.236
Mof_N 	N 	0.348	0.342	0.75	-0.231
Mof_O 	O 	0.2309	0.1496	0.36067	-0.443
Mof_O 	O 	0.9361	0.0848	0.36576	-0.433
Mof_O 	O 	0.3386	0.892	0.38383	-0.434
Mof_O 	O 	0.2971	0.9189	0.46923	-0.408
Mof_O 	O 	0.9164	0.949	0.43638	-0.506
Mof_O 	O 	0.787	0.9153	0.51724	-0.514
Mof_O 	O 	0.7691	0.8504	0.86067	-0.416
Mof_O 	O 	0.0639	0.9152	0.86576	-0.37
Mof_O 	O 	0.6614	0.108	0.88383	-0.438
Mof_O 	O 	0.7029	0.0811	0.96923	-0.419
Mof_O 	O 	0.0836	0.051	0.93638	-0.49
Mof_O 	O 	0.213	0.0847	0.01724	-0.506
Mof_O 	O 	0.7691	0.8504	0.63933	-0.416
Mof_O 	O 	0.0639	0.9152	0.63424	-0.369
Mof_O 	O 	0.6614	0.108	0.61617	-0.439
Mof_O 	O 	0.7029	0.0811	0.53077	-0.416
Mof_O 	O 	0.0836	0.051	0.56362	-0.49
Mof_O 	O 	0.213	0.0847	0.48276	-0.513
Mof_O 	O 	0.2309	0.1496	0.13933	-0.442
Mof_O 	O 	0.9361	0.0848	0.13424	-0.433
Mof_O 	O 	0.3386	0.892	0.11617	-0.431
Mof_O 	O 	0.2971	0.9189	0.03077	-0.399
Mof_O 	O 	0.9164	0.949	0.06362	-0.509
Mof_O 	O 	0.787	0.9153	0.98276	-0.53
Mof_O 	O 	0.4806	0.915	0.25	-0.29
Mof_O 	O 	0.1934	0.8404	0.25	-0.265
Mof_O 	O 	0.5194	0.085	0.75	-0.293
Mof_O 	O 	0.8066	0.1596	0.75	-0.283
_end
