data_functionalizedCrystal
_audit_creation_method	'EQeq! by Chris Wilmer'
_symmetry_space_group_name_H-M	'P1'
_symmetry_Int_Tables_number	1
_symmetry_cell_setting	triclinic
loop_
_symmetry_equiv_pos_as_xyz
  x,y,z
_cell_length_a	8.8871
_cell_length_b	11.4931
_cell_length_c	16.457
_cell_angle_alpha	90
_cell_angle_beta	90
_cell_angle_gamma	90
loop_
_atom_site_label
_atom_site_type_symbol
_atom_site_fract_x
_atom_site_fract_y
_atom_site_fract_z
_atom_site_charge
Mof_O 	O 	0.0156	0.8851	0.0892	-0.344
Mof_O 	O 	0.2541	0.8835	0.0492	-0.24
Mof_O 	O 	0.4711	0.6155	0.0865	-0.353
Mof_O 	O 	0.2306	0.6158	0.0507	-0.289
Mof_C 	C 	0.1959	0.7962	0.1749	-0.029
Mof_C 	C 	0.2947	0.7013	0.1777	-0.026
Mof_C 	C 	0.1545	0.857	0.0985	0.3
Mof_C 	C 	0.3342	0.6402	0.0976	0.317
Mof_O 	O 	0.5156	0.3851	0.0892	-0.352
Mof_O 	O 	0.7541	0.3835	0.0492	-0.249
Mof_O 	O 	0.9711	0.1155	0.0865	-0.323
Mof_O 	O 	0.7306	0.1158	0.0507	-0.283
Mof_C 	C 	0.6959	0.2962	0.1749	-0.032
Mof_C 	C 	0.7947	0.2013	0.1777	-0.021
Mof_C 	C 	0.6545	0.357	0.0985	0.302
Mof_C 	C 	0.8342	0.1402	0.0976	0.311
Mof_O 	O 	0.9844	0.8851	0.9108	-0.174
Mof_O 	O 	0.7459	0.8835	0.9508	-0.12
Mof_O 	O 	0.5289	0.6155	0.9135	-0.289
Mof_O 	O 	0.7694	0.6158	0.9493	-0.155
Mof_C 	C 	0.8041	0.7962	0.8251	0.022
Mof_C 	C 	0.7053	0.7013	0.8223	-0.015
Mof_C 	C 	0.8455	0.857	0.9015	0.277
Mof_C 	C 	0.6658	0.6402	0.9024	0.305
Mof_O 	O 	0.4844	0.3851	0.9108	-0.273
Mof_O 	O 	0.2459	0.3835	0.9508	-0.196
Mof_O 	O 	0.0289	0.1155	0.9135	-0.363
Mof_O 	O 	0.2694	0.1158	0.9493	-0.221
Mof_C 	C 	0.3041	0.2962	0.8251	-0.008
Mof_C 	C 	0.2053	0.2013	0.8223	-0.051
Mof_C 	C 	0.3455	0.357	0.9015	0.285
Mof_C 	C 	0.1658	0.1402	0.9024	0.311
Mof_O 	O 	0.9844	0.8851	0.5892	-0.212
Mof_O 	O 	0.7459	0.8835	0.5492	-0.168
Mof_O 	O 	0.5289	0.6155	0.5865	-0.332
Mof_O 	O 	0.7694	0.6158	0.5507	-0.203
Mof_C 	C 	0.8041	0.7962	0.6749	0.017
Mof_C 	C 	0.7053	0.7013	0.6777	-0.021
Mof_C 	C 	0.8455	0.857	0.5985	0.284
Mof_C 	C 	0.6658	0.6402	0.5976	0.314
Mof_O 	O 	0.4844	0.3851	0.5892	-0.315
Mof_O 	O 	0.2459	0.3835	0.5492	-0.247
Mof_O 	O 	0.0289	0.1155	0.5865	-0.409
Mof_O 	O 	0.2694	0.1158	0.5507	-0.272
Mof_C 	C 	0.3041	0.2962	0.6749	-0.014
Mof_C 	C 	0.2053	0.2013	0.6777	-0.057
Mof_C 	C 	0.3455	0.357	0.5985	0.292
Mof_C 	C 	0.1658	0.1402	0.5976	0.32
Mof_O 	O 	0.0156	0.8851	0.4108	-0.319
Mof_O 	O 	0.2541	0.8835	0.4508	-0.198
Mof_O 	O 	0.4711	0.6155	0.4135	-0.327
Mof_O 	O 	0.2306	0.6158	0.4493	-0.247
Mof_C 	C 	0.1959	0.7962	0.3251	-0.023
Mof_C 	C 	0.2947	0.7013	0.3223	-0.02
Mof_C 	C 	0.1545	0.857	0.4015	0.294
Mof_C 	C 	0.3342	0.6402	0.4024	0.312
Mof_O 	O 	0.5156	0.3851	0.4108	-0.326
Mof_O 	O 	0.7541	0.3835	0.4508	-0.207
Mof_O 	O 	0.9711	0.1155	0.4135	-0.298
Mof_O 	O 	0.7306	0.1158	0.4493	-0.241
Mof_C 	C 	0.6959	0.2962	0.3251	-0.026
Mof_C 	C 	0.7947	0.2013	0.3223	-0.015
Mof_C 	C 	0.6545	0.357	0.4015	0.296
Mof_C 	C 	0.8342	0.1402	0.4024	0.306
Mof_Cu	Cu	-0	0.00191	-0	0.816
Mof_Cu	Cu	0.5	0.50191	-0	0.905
Mof_Cu	Cu	3.47154e-33	0.00191	0.5	0.862
Mof_Cu	Cu	0.5	0.50191	0.5	0.952
Mof_C 	C 	0.1482	0.8457	0.25	-0.006
Mof_H 	H 	0.0856	0.9106	0.25	0.073
Mof_C 	C 	0.3407	0.659	0.25	-0.007
Mof_H 	H 	0.4081	0.5971	0.25	0.067
Mof_C 	C 	0.6482	0.3457	0.25	-0.005
Mof_H 	H 	0.5856	0.4106	0.25	0.066
Mof_C 	C 	0.8407	0.159	0.25	-0.013
Mof_H 	H 	0.9081	0.0971	0.25	0.066
Mof_C 	C 	0.8518	0.8457	0.75	-0.023
Mof_H 	H 	0.9144	0.9106	0.75	0.127
Mof_C 	C 	0.6593	0.659	0.75	0.007
Mof_H 	H 	0.5919	0.5971	0.75	0.069
Mof_C 	C 	0.3518	0.3457	0.75	-0.024
Mof_H 	H 	0.4144	0.4106	0.75	0.076
Mof_C 	C 	0.1593	0.159	0.75	0.016
Mof_H 	H 	0.0919	0.0971	0.75	0.014
_end
