data_functionalizedCrystal
_audit_creation_method	'EQeq! by Chris Wilmer'
_symmetry_space_group_name_H-M	'P1'
_symmetry_Int_Tables_number	1
_symmetry_cell_setting	triclinic
loop_
_symmetry_equiv_pos_as_xyz
  x,y,z
_cell_length_a	12.0861
_cell_length_b	14.6555
_cell_length_c	21.5673
_cell_angle_alpha	90
_cell_angle_beta	104.025
_cell_angle_gamma	90
loop_
_atom_site_label
_atom_site_type_symbol
_atom_site_fract_x
_atom_site_fract_y
_atom_site_fract_z
_atom_site_charge
Mof_Cu	Cu	0.72527	0.74124	0.50477	0.878
Mof_Cu	Cu	0.27473	0.74124	0.99523	0.882
Mof_Cu	Cu	0.27473	0.25876	0.49523	0.875
Mof_Cu	Cu	0.72527	0.25876	0.00477	0.871
Mof_Cu	Cu	-3.0674e-17	0	0.5	0.861
Mof_Cu	Cu	-0	0	-0	0.855
Mof_H 	H 	0.1443	0.11	0.6137	0
Mof_H 	H 	0.1433	0.1316	0.7205	0.144
Mof_H 	H 	0.862	0.9784	0.6867	0.125
Mof_H 	H 	0.7354	0.0122	0.4671	0.018
Mof_H 	H 	0.6674	0.2799	0.4407	0.137
Mof_H 	H 	0.862	0.3006	0.4523	0.062
Mof_H 	H 	0.5234	0.237	0.4915	0.094
Mof_H 	H 	0.5458	0.0009	0.401	0.131
Mof_H 	H 	0.3519	0.9811	0.3949	0.158
Mof_H 	H 	0.5988	0.6197	0.4075	0.036
Mof_H 	H 	0.506	0.6162	0.3008	0.134
Mof_H 	H 	0.5677	0.8826	0.2968	0.136
Mof_H 	H 	0.6971	0.7064	0.6411	0.047
Mof_H 	H 	0.8125	0.6998	0.7447	0.16
Mof_H 	H 	0.0749	0.7541	0.6678	0.108
Mof_H 	H 	0.861	0.5664	0.536	0.071
Mof_H 	H 	0.0722	0.5543	0.4195	0.15
Mof_H 	H 	0.9874	0.6871	0.3731	0.05
Mof_H 	H 	0.8557	0.11	0.8863	-0.012
Mof_H 	H 	0.8567	0.1316	0.7795	0.177
Mof_H 	H 	0.138	0.9784	0.8133	0.165
Mof_H 	H 	0.2646	0.0122	0.0329	0.014
Mof_H 	H 	0.3326	0.2799	0.0593	0.136
Mof_H 	H 	0.138	0.3006	0.0477	0.055
Mof_H 	H 	0.4766	0.237	0.0085	0.091
Mof_H 	H 	0.4542	0.0009	0.099	0.131
Mof_H 	H 	0.6481	0.9811	0.1051	0.156
Mof_H 	H 	0.4012	0.6197	0.0925	0.034
Mof_H 	H 	0.494	0.6162	0.1992	0.134
Mof_H 	H 	0.4323	0.8826	0.2032	0.136
Mof_H 	H 	0.3029	0.7064	0.8589	0.048
Mof_H 	H 	0.1875	0.6998	0.7553	0.157
Mof_H 	H 	0.9251	0.7541	0.8322	0.14
Mof_H 	H 	0.139	0.5664	0.964	0.025
Mof_H 	H 	0.9278	0.5543	0.0805	0.081
Mof_H 	H 	0.0126	0.6871	0.1269	0.083
Mof_H 	H 	0.8557	0.89	0.3863	0.003
Mof_H 	H 	0.8567	0.8684	0.2795	0.164
Mof_H 	H 	0.138	0.0216	0.3133	0.062
Mof_H 	H 	0.2646	0.9878	0.5329	0.033
Mof_H 	H 	0.3326	0.7201	0.5593	0.134
Mof_H 	H 	0.138	0.6994	0.5477	0.058
Mof_H 	H 	0.4766	0.763	0.5085	0.099
Mof_H 	H 	0.4542	0.9991	0.599	0.171
Mof_H 	H 	0.6481	0.0189	0.6051	0.077
Mof_H 	H 	0.4012	0.3803	0.5925	0.036
Mof_H 	H 	0.494	0.3838	0.6992	0.134
Mof_H 	H 	0.4323	0.1174	0.7032	0.12
Mof_H 	H 	0.3029	0.2936	0.3589	0.047
Mof_H 	H 	0.1875	0.3002	0.2553	0.157
Mof_H 	H 	0.9251	0.2459	0.3322	0.143
Mof_H 	H 	0.139	0.4336	0.464	0.04
Mof_H 	H 	0.9278	0.4457	0.5805	0.092
Mof_H 	H 	0.0126	0.3129	0.6269	0.078
Mof_H 	H 	0.1443	0.89	0.1137	0.01
Mof_H 	H 	0.1433	0.8684	0.2205	0.145
Mof_H 	H 	0.862	0.0216	0.1867	0.049
Mof_H 	H 	0.7354	0.9878	0.9671	0.035
Mof_H 	H 	0.6674	0.7201	0.9407	0.135
Mof_H 	H 	0.862	0.6994	0.9523	0.065
Mof_H 	H 	0.5234	0.763	0.9915	0.103
Mof_H 	H 	0.5458	0.9991	0.901	0.172
Mof_H 	H 	0.3519	0.0189	0.8949	0.077
Mof_H 	H 	0.5988	0.3803	0.9075	0.039
Mof_H 	H 	0.506	0.3838	0.8008	0.134
Mof_H 	H 	0.5677	0.1174	0.7968	0.121
Mof_H 	H 	0.6971	0.2936	0.1411	0.047
Mof_H 	H 	0.8125	0.3002	0.2447	0.16
Mof_H 	H 	0.0749	0.2459	0.1678	0.104
Mof_H 	H 	0.861	0.4336	0.036	0.086
Mof_H 	H 	0.0722	0.4457	0.9195	0.164
Mof_H 	H 	0.9874	0.3129	0.8731	0.044
Mof_C 	C 	0.0868	0.0825	0.6298	0.143
Mof_C 	C 	0.0867	0.096	0.6937	-0.067
Mof_C 	C 	0.0021	0.056	0.7162	0.017
Mof_C 	C 	0.922	0.0053	0.6725	0.032
Mof_C 	C 	0.7597	0.0729	0.4653	0.074
Mof_C 	C 	0.6786	0.1427	0.4532	0.072
Mof_C 	C 	0.7177	0.23	0.4488	-0.04
Mof_C 	C 	0.8346	0.2416	0.4569	0.127
Mof_C 	C 	0.4895	0.1838	0.4711	0.036
Mof_C 	C 	0.5568	0.1223	0.447	0.059
Mof_C 	C 	0.5048	0.0449	0.418	-0.037
Mof_C 	C 	0.3885	0.0339	0.4146	0.04
Mof_C 	C 	0.5918	0.674	0.3838	0.14
Mof_C 	C 	0.5368	0.6712	0.32	-0.062
Mof_C 	C 	0.5278	0.7503	0.2847	0.087
Mof_C 	C 	0.5728	0.8269	0.3189	0.035
Mof_C 	C 	0.7761	0.715	0.6476	0.099
Mof_C 	C 	0.8442	0.7115	0.7098	-0.082
Mof_C 	C 	0.9597	0.7259	0.7182	0.072
Mof_C 	C 	0.9968	0.7427	0.6632	0.065
Mof_C 	C 	0.889	0.5901	0.5023	0.014
Mof_C 	C 	0.9768	0.5425	0.484	0.161
Mof_C 	C 	0.0132	0.5814	0.4346	-0.157
Mof_C 	C 	0.9617	0.6613	0.407	0.167
Mof_C 	C 	0.9132	0.0825	0.8702	0.193
Mof_C 	C 	0.9133	0.096	0.8063	-0.148
Mof_C 	C 	0.9979	0.056	0.7838	0.172
Mof_C 	C 	0.078	0.0053	0.8275	-0.086
Mof_C 	C 	0.2403	0.0729	0.0347	0.072
Mof_C 	C 	0.3214	0.1427	0.0468	0.07
Mof_C 	C 	0.2823	0.23	0.0512	-0.042
Mof_C 	C 	0.1654	0.2416	0.0431	0.125
Mof_C 	C 	0.5105	0.1838	0.0289	0.035
Mof_C 	C 	0.4432	0.1223	0.053	0.058
Mof_C 	C 	0.4952	0.0449	0.082	-0.039
Mof_C 	C 	0.6115	0.0339	0.0854	0.041
Mof_C 	C 	0.4082	0.674	0.1162	0.14
Mof_C 	C 	0.4632	0.6712	0.18	-0.063
Mof_C 	C 	0.4722	0.7503	0.2153	0.087
Mof_C 	C 	0.4272	0.8269	0.1811	0.035
Mof_C 	C 	0.2239	0.715	0.8524	0.099
Mof_C 	C 	0.1558	0.7115	0.7902	-0.082
Mof_C 	C 	0.0403	0.7259	0.7818	0.064
Mof_C 	C 	0.0032	0.7427	0.8368	0.016
Mof_C 	C 	0.111	0.5901	0.9977	0.141
Mof_C 	C 	0.0232	0.5425	0.016	-0.068
Mof_C 	C 	0.9868	0.5814	0.0654	0.056
Mof_C 	C 	0.0383	0.6613	0.093	0.035
Mof_C 	C 	0.9132	0.9175	0.3702	0.169
Mof_C 	C 	0.9133	0.904	0.3063	-0.095
Mof_C 	C 	0.9979	0.944	0.2838	0.105
Mof_C 	C 	0.078	0.9947	0.3275	0.109
Mof_C 	C 	0.2403	0.9271	0.5347	0.081
Mof_C 	C 	0.3214	0.8573	0.5468	0.061
Mof_C 	C 	0.2823	0.77	0.5512	-0.034
Mof_C 	C 	0.1654	0.7584	0.5431	0.124
Mof_C 	C 	0.5105	0.8162	0.5289	0.021
Mof_C 	C 	0.4432	0.8777	0.553	0.094
Mof_C 	C 	0.4952	0.9551	0.582	-0.101
Mof_C 	C 	0.6115	0.9661	0.5854	0.169
Mof_C 	C 	0.4082	0.326	0.6162	0.139
Mof_C 	C 	0.4632	0.3288	0.68	-0.062
Mof_C 	C 	0.4722	0.2497	0.7153	0.085
Mof_C 	C 	0.4272	0.1731	0.6811	0.036
Mof_C 	C 	0.2239	0.285	0.3524	0.098
Mof_C 	C 	0.1558	0.2885	0.2902	-0.083
Mof_C 	C 	0.0403	0.2741	0.2818	0.063
Mof_C 	C 	0.0032	0.2573	0.3368	0.008
Mof_C 	C 	0.111	0.4099	0.4977	0.09
Mof_C 	C 	0.0232	0.4575	0.516	-0.013
Mof_C 	C 	0.9868	0.4186	0.5654	0.028
Mof_C 	C 	0.0383	0.3387	0.593	0.051
Mof_C 	C 	0.0868	0.9175	0.1298	0.141
Mof_C 	C 	0.0867	0.904	0.1937	-0.049
Mof_C 	C 	0.0021	0.944	0.2162	0.015
Mof_C 	C 	0.922	0.9947	0.1725	0.164
Mof_C 	C 	0.7597	0.9271	0.9653	0.083
Mof_C 	C 	0.6786	0.8573	0.9532	0.062
Mof_C 	C 	0.7177	0.77	0.9488	-0.032
Mof_C 	C 	0.8346	0.7584	0.9569	0.126
Mof_C 	C 	0.4895	0.8162	0.9711	0.022
Mof_C 	C 	0.5568	0.8777	0.947	0.096
Mof_C 	C 	0.5048	0.9551	0.918	-0.101
Mof_C 	C 	0.3885	0.9661	0.9146	0.171
Mof_C 	C 	0.5918	0.326	0.8838	0.139
Mof_C 	C 	0.5368	0.3288	0.82	-0.061
Mof_C 	C 	0.5278	0.2497	0.7847	0.084
Mof_C 	C 	0.5728	0.1731	0.8189	0.036
Mof_C 	C 	0.7761	0.285	0.1476	0.098
Mof_C 	C 	0.8442	0.2885	0.2098	-0.082
Mof_C 	C 	0.9597	0.2741	0.2182	0.071
Mof_C 	C 	0.9968	0.2573	0.1632	0.068
Mof_C 	C 	0.889	0.4099	0.0023	-0.037
Mof_C 	C 	0.9768	0.4575	0.984	0.22
Mof_C 	C 	0.0132	0.4186	0.9346	-0.192
Mof_C 	C 	0.9617	0.3387	0.907	0.189
Mof_N 	N 	0.0091	0.0326	0.59115	-0.19
Mof_N 	N 	0.9254	0.9929	0.6128	-0.027
Mof_N 	N 	0.8701	0.0902	0.4744	-0.154
Mof_N 	N 	0.9087	0.1746	0.4705	-0.08
Mof_N 	N 	0.3789	0.1696	0.46602	-0.165
Mof_N 	N 	0.3274	0.094	0.43774	-0.083
Mof_N 	N 	0.6342	0.7483	0.4126	-0.171
Mof_N 	N 	0.6232	0.827	0.3815	-0.036
Mof_N 	N 	0.8181	0.7297	0.59762	-0.177
Mof_N 	N 	0.9298	0.7437	0.60467	-0.065
Mof_N 	N 	0.8439	0.6659	0.47502	-0.153
Mof_N 	N 	0.8784	0.703	0.426	-0.09
Mof_N 	N 	0.9909	0.0326	0.90885	-0.179
Mof_N 	N 	0.0746	0.9929	0.8872	-0.015
Mof_N 	N 	0.1299	0.0902	0.0256	-0.163
Mof_N 	N 	0.0913	0.1746	0.0295	-0.092
Mof_N 	N 	0.6211	0.1696	0.03398	-0.166
Mof_N 	N 	0.6726	0.094	0.06226	-0.084
Mof_N 	N 	0.3658	0.7483	0.0874	-0.174
Mof_N 	N 	0.3768	0.827	0.1185	-0.037
Mof_N 	N 	0.1819	0.7297	0.90238	-0.177
Mof_N 	N 	0.0702	0.7437	0.89533	-0.062
Mof_N 	N 	0.1561	0.6659	0.02498	-0.189
Mof_N 	N 	0.1216	0.703	0.074	-0.068
Mof_N 	N 	0.9909	0.9674	0.40885	-0.149
Mof_N 	N 	0.0746	0.0071	0.3872	-0.099
Mof_N 	N 	0.1299	0.9098	0.5256	-0.15
Mof_N 	N 	0.0913	0.8254	0.5295	-0.086
Mof_N 	N 	0.6211	0.8304	0.53398	-0.158
Mof_N 	N 	0.6726	0.906	0.56226	-0.096
Mof_N 	N 	0.3658	0.2517	0.5874	-0.173
Mof_N 	N 	0.3768	0.173	0.6185	-0.046
Mof_N 	N 	0.1819	0.2703	0.40238	-0.179
Mof_N 	N 	0.0702	0.2563	0.39533	-0.065
Mof_N 	N 	0.1561	0.3341	0.52498	-0.173
Mof_N 	N 	0.1216	0.297	0.574	-0.072
Mof_N 	N 	0.0091	0.9674	0.09115	-0.158
Mof_N 	N 	0.9254	0.0071	0.1128	-0.094
Mof_N 	N 	0.8701	0.9098	0.9744	-0.143
Mof_N 	N 	0.9087	0.8254	0.9705	-0.076
Mof_N 	N 	0.3789	0.8304	0.96602	-0.156
Mof_N 	N 	0.3274	0.906	0.93774	-0.095
Mof_N 	N 	0.6342	0.2517	0.9126	-0.169
Mof_N 	N 	0.6232	0.173	0.8815	-0.044
Mof_N 	N 	0.8181	0.2703	0.09762	-0.178
Mof_N 	N 	0.9298	0.2563	0.10467	-0.068
Mof_N 	N 	0.8439	0.3341	0.97502	-0.136
Mof_N 	N 	0.8784	0.297	0.926	-0.094
Mof_B 	B 	0.7631	0.4396	0.3552	3.422
Mof_F 	F 	0.7386	0.4485	0.4147	-1.039
Mof_F 	F 	0.7061	0.3679	0.3225	-1.048
Mof_F 	F 	0.8773	0.4213	0.365	-1.069
Mof_F 	F 	0.7372	0.5203	0.3241	-1.066
Mof_B 	B 	0.7035	0.0898	0.2782	4.454
Mof_F 	F 	0.8149	0.1074	0.3007	-1.339
Mof_F 	F 	0.6673	0.0359	0.3196	-1.312
Mof_F 	F 	0.6448	0.1657	0.2679	-1.324
Mof_F 	F 	0.6901	0.0389	0.2283	-1.413
Mof_B 	B 	0.7404	0.2307	0.6314	4.622
Mof_F 	F 	0.8211	0.1885	0.6087	-1.356
Mof_F 	F 	0.7575	0.2408	0.691	-1.54
Mof_F 	F 	0.6466	0.1865	0.6051	-1.367
Mof_F 	F 	0.7087	0.3049	0.5954	-1.307
Mof_B 	B 	0.2369	0.4396	0.1448	3.424
Mof_F 	F 	0.2614	0.4485	0.0853	-1.043
Mof_F 	F 	0.2939	0.3679	0.1775	-1.049
Mof_F 	F 	0.1227	0.4213	0.135	-1.08
Mof_F 	F 	0.2628	0.5203	0.1759	-1.069
Mof_B 	B 	0.2965	0.0898	0.2218	4.456
Mof_F 	F 	0.1851	0.1074	0.1993	-1.344
Mof_F 	F 	0.3327	0.0359	0.1804	-1.314
Mof_F 	F 	0.3552	0.1657	0.2321	-1.324
Mof_F 	F 	0.3099	0.0389	0.2717	-1.415
Mof_B 	B 	0.2596	0.2307	0.8686	4.619
Mof_F 	F 	0.1789	0.1885	0.8913	-1.359
Mof_F 	F 	0.2425	0.2408	0.809	-1.542
Mof_F 	F 	0.3534	0.1865	0.8949	-1.364
Mof_F 	F 	0.2913	0.3049	0.9046	-1.305
Mof_B 	B 	0.2369	0.5604	0.6448	3.424
Mof_F 	F 	0.2614	0.5515	0.5853	-1.041
Mof_F 	F 	0.2939	0.6321	0.6775	-1.049
Mof_F 	F 	0.1227	0.5787	0.635	-1.079
Mof_F 	F 	0.2628	0.4797	0.6759	-1.068
Mof_B 	B 	0.2965	0.9102	0.7218	4.45
Mof_F 	F 	0.1851	0.8926	0.6993	-1.332
Mof_F 	F 	0.3327	0.9641	0.6804	-1.297
Mof_F 	F 	0.3552	0.8343	0.7321	-1.322
Mof_F 	F 	0.3099	0.9611	0.7717	-1.4
Mof_B 	B 	0.2596	0.7693	0.3686	4.622
Mof_F 	F 	0.1789	0.8115	0.3913	-1.36
Mof_F 	F 	0.2425	0.7592	0.309	-1.541
Mof_F 	F 	0.3534	0.8135	0.3949	-1.363
Mof_F 	F 	0.2913	0.6951	0.4046	-1.309
Mof_B 	B 	0.7631	0.5604	0.8552	3.422
Mof_F 	F 	0.7386	0.5515	0.9147	-1.036
Mof_F 	F 	0.7061	0.6321	0.8225	-1.048
Mof_F 	F 	0.8773	0.5787	0.865	-1.069
Mof_F 	F 	0.7372	0.4797	0.8241	-1.065
Mof_B 	B 	0.7035	0.9102	0.7782	4.449
Mof_F 	F 	0.8149	0.8926	0.8007	-1.329
Mof_F 	F 	0.6673	0.9641	0.8196	-1.297
Mof_F 	F 	0.6448	0.8343	0.7679	-1.321
Mof_F 	F 	0.6901	0.9611	0.7283	-1.399
Mof_B 	B 	0.7404	0.7693	0.1314	4.624
Mof_F 	F 	0.8211	0.8115	0.1087	-1.358
Mof_F 	F 	0.7575	0.7592	0.191	-1.539
Mof_F 	F 	0.6466	0.8135	0.1051	-1.366
Mof_F 	F 	0.7087	0.6951	0.0954	-1.31
_end
