data_functionalizedCrystal
_audit_creation_method	'EQeq! by Chris Wilmer'
_symmetry_space_group_name_H-M	'P1'
_symmetry_Int_Tables_number	1
_symmetry_cell_setting	triclinic
loop_
_symmetry_equiv_pos_as_xyz
  x,y,z
_cell_length_a	22.7053
_cell_length_b	12.3557
_cell_length_c	8.3931
_cell_angle_alpha	90
_cell_angle_beta	93.878
_cell_angle_gamma	90
loop_
_atom_site_label
_atom_site_type_symbol
_atom_site_fract_x
_atom_site_fract_y
_atom_site_fract_z
_atom_site_charge
Mof_La	La	0.80996	0.04108	0.4654	2.135
Mof_O 	O 	0.70008	0.0884	0.5065	-0.477
Mof_O 	O 	0.9162	0.0841	0.5386	-0.479
Mof_C 	C 	0.66164	0.1671	0.8974	-0.124
Mof_H 	H 	0.6935	0.1294	0.9594	0.053
Mof_C 	C 	0.70101	0.0744	0.6557	0.384
Mof_C 	C 	0.60921	0.1733	0.0042	-0.164
Mof_H 	H 	0.5955	0.1015	0.0251	0.02
Mof_H 	H 	0.5778	0.2142	0.9509	-0.049
Mof_H 	H 	0.6216	0.2079	0.1032	0.005
Mof_C 	C 	0.64658	0.098	0.7467	-0.112
Mof_H 	H 	0.634	0.0276	0.7864	0.045
Mof_C 	C 	0.9744	0.0974	0.7782	-0.136
Mof_H 	H 	0.9688	0.0869	0.892	0.033
Mof_C 	C 	0.9796	0.0183	0.7752	0.003
Mof_H 	H 	0.9746	0.0297	0.8891	0.017
Mof_C 	C 	0.59389	0.1399	0.6395	-0.152
Mof_H 	H 	0.5589	0.1378	0.6974	-0.011
Mof_H 	H 	0.5885	0.0951	0.5462	0.018
Mof_H 	H 	0.6014	0.2131	0.608	-0.019
Mof_H 	H 	0.9971	0.8856	0.8619	0.05
Mof_H 	H 	0.0282	0.85	0.7092	0.044
Mof_H 	H 	0.9621	0.8877	0.6944	0.048
Mof_H 	H 	0.9694	0.2678	0.7596	0.045
Mof_H 	H 	0.0143	0.2191	0.6451	0.118
Mof_H 	H 	0.0318	0.2294	0.8283	0.107
Mof_O 	O 	0.74725	0.037	0.7306	-0.586
Mof_C 	C 	0.68462	0.2809	0.8638	0.414
Mof_O 	O 	0.68999	0.3464	0.9806	-0.532
Mof_O 	O 	0.69867	0.3023	0.7241	-0.529
Mof_O 	O 	0.8727	0.0147	0.7418	-0.573
Mof_C 	C 	0.9199	0.0357	0.682	0.149
Mof_C 	C 	0.9165	0.0731	0.679	0.155
Mof_La	La	0.30996	0.54108	0.4654	2.055
Mof_O 	O 	0.20008	0.5884	0.5065	-0.456
Mof_O 	O 	0.4162	0.5841	0.5386	-0.493
Mof_C 	C 	0.16164	0.6671	0.8974	-0.093
Mof_H 	H 	0.1935	0.6294	0.9594	0.041
Mof_C 	C 	0.20101	0.5744	0.6557	0.361
Mof_C 	C 	0.10921	0.6733	0.0042	-0.311
Mof_H 	H 	0.0955	0.6015	0.0251	0.107
Mof_H 	H 	0.0778	0.7142	0.9509	0.096
Mof_H 	H 	0.1216	0.7079	0.1032	0.1
Mof_C 	C 	0.14658	0.598	0.7467	-0.048
Mof_H 	H 	0.134	0.5276	0.7864	0.037
Mof_C 	C 	0.4744	0.5974	0.7782	0.157
Mof_H 	H 	0.4688	0.5869	0.892	-0.105
Mof_C 	C 	0.4796	0.5183	0.7752	0.456
Mof_H 	H 	0.4746	0.5297	0.8891	-0.146
Mof_C 	C 	0.09389	0.6399	0.6395	-0.367
Mof_H 	H 	0.0589	0.6378	0.6974	0.123
Mof_H 	H 	0.0885	0.5951	0.5462	0.126
Mof_H 	H 	0.1014	0.7131	0.608	0.116
Mof_H 	H 	0.4971	0.3856	0.8619	0.902
Mof_H 	H 	0.5282	0.35	0.7092	0.625
Mof_H 	H 	0.4621	0.3877	0.6944	0.918
Mof_H 	H 	0.4694	0.7678	0.7596	0.549
Mof_H 	H 	0.5143	0.7191	0.6451	0.843
Mof_H 	H 	0.5318	0.7294	0.8283	0.737
Mof_O 	O 	0.24725	0.537	0.7306	-0.575
Mof_C 	C 	0.18462	0.7809	0.8638	0.427
Mof_O 	O 	0.18999	0.8464	0.9806	-0.531
Mof_O 	O 	0.19867	0.8023	0.7241	-0.53
Mof_O 	O 	0.3727	0.5147	0.7418	-0.555
Mof_C 	C 	0.4199	0.5357	0.682	0.129
Mof_C 	C 	0.4165	0.5731	0.679	-0.06
Mof_La	La	0.19004	0.04108	0.0346	2.098
Mof_O 	O 	0.29992	0.0884	0.9935	-0.466
Mof_O 	O 	0.0838	0.0841	0.9614	-0.455
Mof_C 	C 	0.33836	0.1671	0.6026	-0.153
Mof_H 	H 	0.3065	0.1294	0.5406	0.059
Mof_C 	C 	0.29899	0.0744	0.8443	0.379
Mof_C 	C 	0.39079	0.1733	0.4958	-0.1
Mof_H 	H 	0.4045	0.1015	0.4749	0.005
Mof_H 	H 	0.4222	0.2142	0.5491	-0.073
Mof_H 	H 	0.3784	0.2079	0.3968	-0.014
Mof_C 	C 	0.35342	0.098	0.7533	-0.095
Mof_H 	H 	0.366	0.0276	0.7136	0.04
Mof_C 	C 	0.0256	0.0974	0.7218	0.073
Mof_H 	H 	0.0312	0.0869	0.608	-0.033
Mof_C 	C 	0.0204	0.0183	0.7248	-0.024
Mof_H 	H 	0.0254	0.0297	0.6109	0.058
Mof_C 	C 	0.40611	0.1399	0.8605	-0.174
Mof_H 	H 	0.4411	0.1378	0.8026	-0.004
Mof_H 	H 	0.4115	0.0951	0.9538	0.027
Mof_H 	H 	0.3986	0.2131	0.892	-0.011
Mof_H 	H 	0.0029	0.8856	0.6381	0.115
Mof_H 	H 	0.9718	0.85	0.7908	0.046
Mof_H 	H 	0.0379	0.8877	0.8056	0.098
Mof_H 	H 	0.0306	0.2678	0.7404	0.055
Mof_H 	H 	0.9857	0.2191	0.8549	0.078
Mof_H 	H 	0.9682	0.2294	0.6717	0.073
Mof_O 	O 	0.25275	0.037	0.7694	-0.585
Mof_C 	C 	0.31538	0.2809	0.6362	0.422
Mof_O 	O 	0.31001	0.3464	0.5194	-0.536
Mof_O 	O 	0.30133	0.3023	0.7759	-0.531
Mof_O 	O 	0.1273	0.0147	0.7582	-0.56
Mof_C 	C 	0.0801	0.0357	0.818	0.088
Mof_C 	C 	0.0835	0.0731	0.821	0.178
Mof_La	La	0.69004	0.54108	0.0346	2.057
Mof_O 	O 	0.79992	0.5884	0.9935	-0.459
Mof_O 	O 	0.5838	0.5841	0.9614	-0.494
Mof_C 	C 	0.83836	0.6671	0.6026	-0.086
Mof_H 	H 	0.8065	0.6294	0.5406	0.04
Mof_C 	C 	0.79899	0.5744	0.8443	0.368
Mof_C 	C 	0.89079	0.6733	0.4958	-0.309
Mof_H 	H 	0.9045	0.6015	0.4749	0.096
Mof_H 	H 	0.9222	0.7142	0.5491	0.085
Mof_H 	H 	0.8784	0.7079	0.3968	0.097
Mof_C 	C 	0.85342	0.598	0.7533	-0.071
Mof_H 	H 	0.866	0.5276	0.7136	0.04
Mof_C 	C 	0.5256	0.5974	0.7218	0.158
Mof_H 	H 	0.5312	0.5869	0.608	-0.105
Mof_C 	C 	0.5204	0.5183	0.7248	0.455
Mof_H 	H 	0.5254	0.5297	0.6109	-0.146
Mof_C 	C 	0.90611	0.6399	0.8605	-0.305
Mof_H 	H 	0.9411	0.6378	0.8026	0.081
Mof_H 	H 	0.9115	0.5951	0.9538	0.095
Mof_H 	H 	0.8986	0.7131	0.892	0.092
Mof_H 	H 	0.5029	0.3856	0.6381	0.901
Mof_H 	H 	0.4718	0.35	0.7908	0.626
Mof_H 	H 	0.5379	0.3877	0.8056	0.918
Mof_H 	H 	0.5306	0.7678	0.7404	0.55
Mof_H 	H 	0.4857	0.7191	0.8549	0.842
Mof_H 	H 	0.4682	0.7294	0.6717	0.738
Mof_O 	O 	0.75275	0.537	0.7694	-0.576
Mof_C 	C 	0.81538	0.7809	0.6362	0.426
Mof_O 	O 	0.81001	0.8464	0.5194	-0.53
Mof_O 	O 	0.80133	0.8023	0.7759	-0.528
Mof_O 	O 	0.6273	0.5147	0.7582	-0.554
Mof_C 	C 	0.5801	0.5357	0.818	0.129
Mof_C 	C 	0.5835	0.5731	0.821	-0.06
Mof_La	La	0.19004	0.95892	0.5346	2.127
Mof_O 	O 	0.29992	0.9116	0.4935	-0.476
Mof_O 	O 	0.0838	0.9159	0.4614	-0.461
Mof_C 	C 	0.33836	0.8329	0.1026	-0.127
Mof_H 	H 	0.3065	0.8706	0.0406	0.054
Mof_C 	C 	0.29899	0.9256	0.3443	0.383
Mof_C 	C 	0.39079	0.8267	0.9958	-0.155
Mof_H 	H 	0.4045	0.8985	0.9749	0.017
Mof_H 	H 	0.4222	0.7858	0.0491	-0.052
Mof_H 	H 	0.3784	0.7921	0.8968	0.002
Mof_C 	C 	0.35342	0.902	0.2533	-0.11
Mof_H 	H 	0.366	0.9724	0.2136	0.044
Mof_C 	C 	0.0256	0.9026	0.2218	0.068
Mof_H 	H 	0.0312	0.9131	0.108	-0.027
Mof_C 	C 	0.0204	0.9817	0.2248	-0.004
Mof_H 	H 	0.0254	0.9703	0.1109	0.05
Mof_C 	C 	0.40611	0.8601	0.3605	-0.154
Mof_H 	H 	0.4411	0.8622	0.3026	-0.011
Mof_H 	H 	0.4115	0.9049	0.4538	0.018
Mof_H 	H 	0.3986	0.7869	0.392	-0.018
Mof_H 	H 	0.0029	0.1144	0.1381	0.138
Mof_H 	H 	0.9718	0.15	0.2908	0.065
Mof_H 	H 	0.0379	0.1123	0.3056	0.125
Mof_H 	H 	0.0306	0.7322	0.2404	0.068
Mof_H 	H 	0.9857	0.7809	0.3549	0.099
Mof_H 	H 	0.9682	0.7706	0.1717	0.093
Mof_O 	O 	0.25275	0.963	0.2694	-0.586
Mof_C 	C 	0.31538	0.7191	0.1362	0.415
Mof_O 	O 	0.31001	0.6536	0.0194	-0.534
Mof_O 	O 	0.30133	0.6977	0.2759	-0.53
Mof_O 	O 	0.1273	0.9853	0.2582	-0.561
Mof_C 	C 	0.0801	0.9643	0.318	0.095
Mof_C 	C 	0.0835	0.9269	0.321	0.164
Mof_La	La	0.69004	0.45892	0.5346	2.056
Mof_O 	O 	0.79992	0.4116	0.4935	-0.457
Mof_O 	O 	0.5838	0.4159	0.4614	-0.493
Mof_C 	C 	0.83836	0.3329	0.1026	-0.105
Mof_H 	H 	0.8065	0.3706	0.0406	0.045
Mof_C 	C 	0.79899	0.4256	0.3443	0.365
Mof_C 	C 	0.89079	0.3267	0.9958	-0.267
Mof_H 	H 	0.9045	0.3985	0.9749	0.085
Mof_H 	H 	0.9222	0.2858	0.0491	0.069
Mof_H 	H 	0.8784	0.2921	0.8968	0.087
Mof_C 	C 	0.85342	0.402	0.2533	-0.061
Mof_H 	H 	0.866	0.4724	0.2136	0.037
Mof_C 	C 	0.5256	0.4026	0.2218	0.157
Mof_H 	H 	0.5312	0.4131	0.108	-0.106
Mof_C 	C 	0.5204	0.4817	0.2248	0.455
Mof_H 	H 	0.5254	0.4703	0.1109	-0.145
Mof_C 	C 	0.90611	0.3601	0.3605	-0.315
Mof_H 	H 	0.9411	0.3622	0.3026	0.084
Mof_H 	H 	0.9115	0.4049	0.4538	0.099
Mof_H 	H 	0.8986	0.2869	0.392	0.096
Mof_H 	H 	0.5029	0.6144	0.1381	0.899
Mof_H 	H 	0.4718	0.65	0.2908	0.624
Mof_H 	H 	0.5379	0.6123	0.3056	0.916
Mof_H 	H 	0.5306	0.2322	0.2404	0.548
Mof_H 	H 	0.4857	0.2809	0.3549	0.841
Mof_H 	H 	0.4682	0.2706	0.1717	0.735
Mof_O 	O 	0.75275	0.463	0.2694	-0.576
Mof_C 	C 	0.81538	0.2191	0.1362	0.431
Mof_O 	O 	0.81001	0.1536	0.0194	-0.533
Mof_O 	O 	0.80133	0.1977	0.2759	-0.531
Mof_O 	O 	0.6273	0.4853	0.2582	-0.555
Mof_C 	C 	0.5801	0.4643	0.318	0.129
Mof_C 	C 	0.5835	0.4269	0.321	-0.059
Mof_La	La	0.80996	0.95892	0.9654	2.106
Mof_O 	O 	0.70008	0.9116	0.0065	-0.467
Mof_O 	O 	0.9162	0.9159	0.0386	-0.467
Mof_C 	C 	0.66164	0.8329	0.3974	-0.152
Mof_H 	H 	0.6935	0.8706	0.4594	0.058
Mof_C 	C 	0.70101	0.9256	0.1557	0.38
Mof_C 	C 	0.60921	0.8267	0.5042	-0.1
Mof_H 	H 	0.5955	0.8985	0.5251	0.004
Mof_H 	H 	0.5778	0.7858	0.4509	-0.073
Mof_H 	H 	0.6216	0.7921	0.6032	-0.014
Mof_C 	C 	0.64658	0.902	0.2467	-0.096
Mof_H 	H 	0.634	0.9724	0.2864	0.039
Mof_C 	C 	0.9744	0.9026	0.2782	-0.127
Mof_H 	H 	0.9688	0.9131	0.392	0.031
Mof_C 	C 	0.9796	0.9817	0.2752	0.016
Mof_H 	H 	0.9746	0.9703	0.3891	0.009
Mof_C 	C 	0.59389	0.8601	0.1395	-0.172
Mof_H 	H 	0.5589	0.8622	0.1974	-0.005
Mof_H 	H 	0.5885	0.9049	0.0462	0.026
Mof_H 	H 	0.6014	0.7869	0.108	-0.012
Mof_H 	H 	0.9971	0.1144	0.3619	0.079
Mof_H 	H 	0.0282	0.15	0.2092	0.062
Mof_H 	H 	0.9621	0.1123	0.1944	0.074
Mof_H 	H 	0.9694	0.7322	0.2596	0.058
Mof_H 	H 	0.0143	0.7809	0.1451	0.141
Mof_H 	H 	0.0318	0.7706	0.3283	0.125
Mof_O 	O 	0.74725	0.963	0.2306	-0.586
Mof_C 	C 	0.68462	0.7191	0.3638	0.422
Mof_O 	O 	0.68999	0.6536	0.4806	-0.536
Mof_O 	O 	0.69867	0.6977	0.2241	-0.531
Mof_O 	O 	0.8727	0.9853	0.2418	-0.573
Mof_C 	C 	0.9199	0.9643	0.182	0.145
Mof_C 	C 	0.9165	0.9269	0.179	0.151
Mof_La	La	0.30996	0.45892	0.9654	2.059
Mof_O 	O 	0.20008	0.4116	0.0065	-0.459
Mof_O 	O 	0.4162	0.4159	0.0386	-0.495
Mof_C 	C 	0.16164	0.3329	0.3974	-0.081
Mof_H 	H 	0.1935	0.3706	0.4594	0.038
Mof_C 	C 	0.20101	0.4256	0.1557	0.363
Mof_C 	C 	0.10921	0.3267	0.5042	-0.339
Mof_H 	H 	0.0955	0.3985	0.5251	0.115
Mof_H 	H 	0.0778	0.2858	0.4509	0.106
Mof_H 	H 	0.1216	0.2921	0.6032	0.108
Mof_C 	C 	0.14658	0.402	0.2467	-0.055
Mof_H 	H 	0.134	0.4724	0.2864	0.039
Mof_C 	C 	0.4744	0.4026	0.2782	0.157
Mof_H 	H 	0.4688	0.4131	0.392	-0.105
Mof_C 	C 	0.4796	0.4817	0.2752	0.454
Mof_H 	H 	0.4746	0.4703	0.3891	-0.145
Mof_C 	C 	0.09389	0.3601	0.1395	-0.356
Mof_H 	H 	0.0589	0.3622	0.1974	0.119
Mof_H 	H 	0.0885	0.4049	0.0462	0.122
Mof_H 	H 	0.1014	0.2869	0.108	0.111
Mof_H 	H 	0.4971	0.6144	0.3619	0.899
Mof_H 	H 	0.5282	0.65	0.2092	0.624
Mof_H 	H 	0.4621	0.6123	0.1944	0.915
Mof_H 	H 	0.4694	0.2322	0.2596	0.548
Mof_H 	H 	0.5143	0.2809	0.1451	0.839
Mof_H 	H 	0.5318	0.2706	0.3283	0.736
Mof_O 	O 	0.24725	0.463	0.2306	-0.576
Mof_C 	C 	0.18462	0.2191	0.3638	0.423
Mof_O 	O 	0.18999	0.1536	0.4806	-0.529
Mof_O 	O 	0.19867	0.1977	0.2241	-0.528
Mof_O 	O 	0.3727	0.4853	0.2418	-0.555
Mof_C 	C 	0.4199	0.4643	0.182	0.129
Mof_C 	C 	0.4165	0.4269	0.179	-0.059
Mof_C 	C 	1.10979e-33	0.8989	0.75	-0.358
Mof_C 	C 	3.02461e-18	0.2151	0.75	-0.425
Mof_C 	C 	0.5	0.3989	0.75	-4.529
Mof_C 	C 	0.5	0.7151	0.75	-3.886
Mof_C 	C 	1.5123e-18	0.1011	0.25	-0.488
Mof_C 	C 	3.69929e-34	0.7849	0.25	-0.518
Mof_C 	C 	0.5	0.6011	0.25	-4.516
Mof_C 	C 	0.5	0.2849	0.25	-3.875
_end
