data_functionalizedCrystal
_audit_creation_method	'EQeq! by Chris Wilmer'
_symmetry_space_group_name_H-M	'P1'
_symmetry_Int_Tables_number	1
_symmetry_cell_setting	triclinic
loop_
_symmetry_equiv_pos_as_xyz
  x,y,z
_cell_length_a	9.2153
_cell_length_b	11.1328
_cell_length_c	15.2684
_cell_angle_alpha	70.278
_cell_angle_beta	83.973
_cell_angle_gamma	71.336
loop_
_atom_site_label
_atom_site_type_symbol
_atom_site_fract_x
_atom_site_fract_y
_atom_site_fract_z
_atom_site_charge
Mof_Zn	Zn	0.68806	0.74919	0.74625	1.183
Mof_Zn	Zn	0.49009	0.47112	0.6498	1.225
Mof_Zn	Zn	0.14487	0.8139	0.51218	1.236
Mof_P 	P 	0.39824	0.76324	0.65559	0.431
Mof_H 	H 	0.3095	0.8201	0.7258	-0.043
Mof_P 	P 	0.2464	0.5176	0.50222	0.543
Mof_H 	H 	0.1445	0.4515	0.5091	-0.022
Mof_P 	P 	0.91956	0.9172	0.65906	0.489
Mof_H 	H 	0.0356	0.8905	0.7048	-0.071
Mof_O 	O 	0.5548	0.7878	0.6442	-0.469
Mof_O 	O 	0.4072	0.6172	0.6998	-0.492
Mof_O 	O 	0.3155	0.8299	0.5654	-0.465
Mof_O 	O 	0.3402	0.4423	0.5894	-0.499
Mof_O 	O 	0.322	0.5551	0.4096	-0.334
Mof_O 	O 	0.3408	0.4692	0.4276	-0.23
Mof_O 	O 	0.1293	0.6369	0.5229	-0.254
Mof_O 	O 	0.1694	0.6637	0.47	-0.279
Mof_O 	O 	0.9677	0.8386	0.5933	-0.49
Mof_O 	O 	0.7946	0.8789	0.7231	-0.484
Mof_O 	O 	0.8806	0.0679	0.6133	-0.459
Mof_N 	N 	0.8299	0.5593	0.7813	-0.292
Mof_N 	N 	0.4418	0.6876	0.2306	-0.254
Mof_N 	N 	0.3628	0.1527	0.543	-0.223
Mof_H 	H 	0.3601	0.1728	0.4803	0.144
Mof_N 	N 	0.1657	0.1036	0.9641	-0.123
Mof_N 	N 	0.3454	0.9825	0.8901	-0.133
Mof_C 	C 	0.9554	0.5259	0.7312	0.087
Mof_H 	H 	0.9722	0.5902	0.6771	-0.015
Mof_C 	C 	0.0611	0.3993	0.7569	-0.16
Mof_H 	H 	0.1478	0.3798	0.7209	0.091
Mof_C 	C 	0.8032	0.4639	0.857	0.077
Mof_H 	H 	0.714	0.4859	0.8905	-0.045
Mof_C 	C 	0.9018	0.3341	0.8879	-0.153
Mof_H 	H 	0.8797	0.2704	0.9406	0.089
Mof_C 	C 	0.0365	0.3021	0.8366	0.083
Mof_C 	C 	0.3122	0.7888	0.2254	0.069
Mof_H 	H 	0.2549	0.7901	0.2792	0.008
Mof_C 	C 	0.2609	0.89	0.1442	-0.124
Mof_H 	H 	0.171	0.9589	0.1435	0.083
Mof_C 	C 	0.5263	0.6871	0.1527	0.053
Mof_H 	H 	0.6175	0.6184	0.1561	-0.011
Mof_C 	C 	0.4804	0.7874	0.067	-0.112
Mof_H 	H 	0.5406	0.7853	0.0144	0.057
Mof_C 	C 	0.3446	0.8895	0.0615	0.043
Mof_C 	C 	0.4763	0.1039	0.6049	0.148
Mof_H 	H 	0.5778	0.0836	0.5855	-0.018
Mof_C 	C 	0.4425	0.0842	0.6959	-0.221
Mof_H 	H 	0.5213	0.0501	0.7393	0.095
Mof_C 	C 	0.2176	0.181	0.5678	0.136
Mof_H 	H 	0.142	0.2144	0.5225	-0.022
Mof_C 	C 	0.1761	0.1623	0.6589	-0.195
Mof_H 	H 	0.0735	0.1811	0.6763	0.11
Mof_C 	C 	0.2925	0.114	0.7253	0.118
Mof_C 	C 	0.1509	0.1675	0.8723	0.02
Mof_C 	C 	0.2866	0.9907	0.9738	0.078
Mof_C 	C 	0.2588	0.0922	0.8258	-0.002
Mof_Zn	Zn	0.31194	0.25081	0.25375	1.182
Mof_Zn	Zn	0.50991	0.52888	0.3502	1.224
Mof_Zn	Zn	0.85513	0.1861	0.48782	1.235
Mof_P 	P 	0.60176	0.23676	0.34441	0.43
Mof_H 	H 	0.6905	0.1799	0.2742	-0.043
Mof_P 	P 	0.7536	0.4824	0.49778	0.543
Mof_H 	H 	0.8555	0.5485	0.4909	-0.022
Mof_P 	P 	0.08044	0.0828	0.34094	0.489
Mof_H 	H 	0.9644	0.1095	0.2952	-0.071
Mof_O 	O 	0.4452	0.2122	0.3558	-0.469
Mof_O 	O 	0.5928	0.3828	0.3002	-0.492
Mof_O 	O 	0.6845	0.1701	0.4346	-0.465
Mof_O 	O 	0.6598	0.5577	0.4106	-0.499
Mof_O 	O 	0.678	0.4449	0.5904	-0.334
Mof_O 	O 	0.6592	0.5308	0.5724	-0.23
Mof_O 	O 	0.8707	0.3631	0.4771	-0.254
Mof_O 	O 	0.8306	0.3363	0.53	-0.279
Mof_O 	O 	0.0323	0.1614	0.4067	-0.49
Mof_O 	O 	0.2054	0.1211	0.2769	-0.484
Mof_O 	O 	0.1194	0.9321	0.3867	-0.459
Mof_N 	N 	0.1701	0.4407	0.2187	-0.292
Mof_N 	N 	0.5582	0.3124	0.7694	-0.254
Mof_N 	N 	0.6372	0.8473	0.457	-0.223
Mof_H 	H 	0.6399	0.8272	0.5197	0.144
Mof_N 	N 	0.8343	0.8964	0.0359	-0.123
Mof_N 	N 	0.6546	0.0175	0.1099	-0.133
Mof_C 	C 	0.0446	0.4741	0.2688	0.087
Mof_H 	H 	0.0278	0.4098	0.3229	-0.015
Mof_C 	C 	0.9389	0.6007	0.2431	-0.16
Mof_H 	H 	0.8522	0.6202	0.2791	0.091
Mof_C 	C 	0.1968	0.5361	0.143	0.077
Mof_H 	H 	0.286	0.5141	0.1095	-0.045
Mof_C 	C 	0.0982	0.6659	0.1121	-0.153
Mof_H 	H 	0.1203	0.7296	0.0594	0.089
Mof_C 	C 	0.9635	0.6979	0.1634	0.083
Mof_C 	C 	0.6878	0.2112	0.7746	0.069
Mof_H 	H 	0.7451	0.2099	0.7208	0.008
Mof_C 	C 	0.7391	0.11	0.8558	-0.124
Mof_H 	H 	0.829	0.0411	0.8565	0.083
Mof_C 	C 	0.4737	0.3129	0.8473	0.053
Mof_H 	H 	0.3825	0.3816	0.8439	-0.011
Mof_C 	C 	0.5196	0.2126	0.933	-0.112
Mof_H 	H 	0.4594	0.2147	0.9856	0.057
Mof_C 	C 	0.6554	0.1105	0.9385	0.043
Mof_C 	C 	0.5237	0.8961	0.3951	0.148
Mof_H 	H 	0.4222	0.9164	0.4145	-0.018
Mof_C 	C 	0.5575	0.9158	0.3041	-0.221
Mof_H 	H 	0.4787	0.9499	0.2607	0.095
Mof_C 	C 	0.7824	0.819	0.4322	0.136
Mof_H 	H 	0.858	0.7856	0.4775	-0.022
Mof_C 	C 	0.8239	0.8377	0.3411	-0.195
Mof_H 	H 	0.9265	0.8189	0.3237	0.11
Mof_C 	C 	0.7075	0.886	0.2747	0.118
Mof_C 	C 	0.8491	0.8325	0.1277	0.02
Mof_C 	C 	0.7134	0.0093	0.0262	0.078
Mof_C 	C 	0.7412	0.9078	0.1742	-0.002
_end
