data_functionalizedCrystal
_audit_creation_method	'EQeq! by Chris Wilmer'
_symmetry_space_group_name_H-M	'P1'
_symmetry_Int_Tables_number	1
_symmetry_cell_setting	triclinic
loop_
_symmetry_equiv_pos_as_xyz
  x,y,z
_cell_length_a	8.166
_cell_length_b	22.154
_cell_length_c	18.475
_cell_angle_alpha	90
_cell_angle_beta	98.7
_cell_angle_gamma	90
loop_
_atom_site_label
_atom_site_type_symbol
_atom_site_fract_x
_atom_site_fract_y
_atom_site_fract_z
_atom_site_charge
Mof_Cd	Cd	0.55913	0.1235	0.16896	0.301
Mof_Cd	Cd	0.71047	0.959	0.40147	0.338
Mof_Cd	Cd	0.84852	0.15978	0.75748	0.271
Mof_C 	C 	0.9454	0.9921	0.4802	-0.021
Mof_C 	C 	0.5383	0.9914	0.4792	-0.041
Mof_C 	C 	0.91	0.1126	0.8661	0.011
Mof_N 	N 	0.943	0.0815	0.9113	-0.137
Mof_C 	C 	0.818	0.047	0.0704	0.195
Mof_N 	N 	0.757	0.0636	0.0913	-0.253
Mof_C 	C 	0.3345	0.083	0.1022	0.005
Mof_N 	N 	0.2283	0.0587	0.0692	-0.141
Mof_C 	C 	0.6503	0.0699	0.2682	0.005
Mof_N 	N 	0.6864	0.0388	0.3175	-0.136
Mof_C 	C 	0.0388	0.1191	0.6969	0.004
Mof_N 	N 	0.8759	0.9052	0.3329	-0.137
Mof_C 	C 	0.671	0.2066	0.131	0.003
Mof_N 	N 	0.728	0.2481	0.1112	-0.111
Mof_C 	C 	0.8699	0.259	0.7514	0.001
Mof_C 	C 	0.6146	0.1169	0.7059	0.003
Mof_N 	N 	0.488	0.911	0.3229	-0.132
Mof_N 	N 	0.1058	0.6931	0.2595	-0.137
Mof_Cd	Cd	0.44087	0.8765	0.83104	0.304
Mof_Cd	Cd	0.28953	0.041	0.59853	0.337
Mof_Cd	Cd	0.15148	0.84022	0.24252	0.262
Mof_C 	C 	0.0546	0.0079	0.5198	-0.077
Mof_C 	C 	0.4617	0.0086	0.5208	-0.066
Mof_C 	C 	0.09	0.8874	0.1339	0.005
Mof_N 	N 	0.057	0.9185	0.0887	-0.142
Mof_C 	C 	0.182	0.953	0.9296	0.208
Mof_N 	N 	0.243	0.9364	0.9087	-0.257
Mof_C 	C 	0.6655	0.917	0.8978	0.013
Mof_N 	N 	0.7717	0.9413	0.9308	-0.132
Mof_C 	C 	0.3497	0.9301	0.7318	0.006
Mof_N 	N 	0.3136	0.9612	0.6825	-0.132
Mof_C 	C 	0.9612	0.8809	0.3031	0.018
Mof_N 	N 	0.1241	0.0948	0.6671	-0.137
Mof_C 	C 	0.329	0.7934	0.869	0.005
Mof_N 	N 	0.272	0.7519	0.8888	-0.111
Mof_C 	C 	0.1301	0.741	0.2486	-0.006
Mof_C 	C 	0.3854	0.8831	0.2941	0.002
Mof_N 	N 	0.512	0.089	0.6771	-0.133
Mof_N 	N 	0.8942	0.3069	0.7405	-0.132
Mof_Cd	Cd	-0	0	-0	0.274
Mof_N 	N 	0.3942	0.1931	0.2405	-0.135
Mof_Cd	Cd	0.94087	0.6235	0.33104	0.306
Mof_Cd	Cd	0.78953	0.459	0.09853	0.34
Mof_Cd	Cd	0.65148	0.65978	0.74252	0.268
Mof_C 	C 	0.5546	0.4921	0.0198	-0.068
Mof_C 	C 	0.9617	0.4914	0.0208	-0.057
Mof_C 	C 	0.59	0.6126	0.6339	0.008
Mof_N 	N 	0.557	0.5815	0.5887	-0.142
Mof_C 	C 	0.682	0.547	0.4296	0.195
Mof_N 	N 	0.743	0.5636	0.4087	-0.251
Mof_C 	C 	0.1655	0.583	0.3978	0.004
Mof_N 	N 	0.2717	0.5587	0.4308	-0.138
Mof_C 	C 	0.8497	0.5699	0.2318	0.006
Mof_N 	N 	0.8136	0.5388	0.1825	-0.134
Mof_C 	C 	0.4612	0.6191	0.8031	0.012
Mof_N 	N 	0.6241	0.4052	0.1671	-0.137
Mof_C 	C 	0.829	0.7066	0.369	0.005
Mof_N 	N 	0.772	0.7481	0.3888	-0.11
Mof_C 	C 	0.6301	0.759	0.7486	-0.001
Mof_C 	C 	0.8854	0.6169	0.7941	0.006
Mof_N 	N 	0.012	0.411	0.1771	-0.136
Mof_N 	N 	0.6058	0.8069	0.7595	-0.134
Mof_Cd	Cd	0.05913	0.3765	0.66896	0.296
Mof_Cd	Cd	0.21047	0.541	0.90147	0.335
Mof_Cd	Cd	0.34852	0.34022	0.25748	0.265
Mof_C 	C 	0.4454	0.5079	0.9802	-0.031
Mof_C 	C 	0.0383	0.5086	0.9792	-0.05
Mof_C 	C 	0.41	0.3874	0.3661	0.007
Mof_N 	N 	0.443	0.4185	0.4113	-0.142
Mof_C 	C 	0.318	0.453	0.5704	0.193
Mof_N 	N 	0.257	0.4364	0.5913	-0.252
Mof_C 	C 	0.8345	0.417	0.6022	0.015
Mof_N 	N 	0.7283	0.4413	0.5692	-0.139
Mof_C 	C 	0.1503	0.4301	0.7682	0.004
Mof_N 	N 	0.1864	0.4612	0.8175	-0.134
Mof_C 	C 	0.5388	0.3809	0.1969	0.011
Mof_N 	N 	0.3759	0.5948	0.8329	-0.138
Mof_C 	C 	0.171	0.2934	0.631	0.002
Mof_N 	N 	0.228	0.2519	0.6112	-0.111
Mof_C 	C 	0.3699	0.241	0.2514	-0.004
Mof_C 	C 	0.1146	0.3831	0.2059	-0.001
Mof_N 	N 	0.988	0.589	0.8229	-0.129
Mof_Cd	Cd	0.5	0.5	0.5	0.296
_end
