data_functionalizedCrystal
_audit_creation_method	'EQeq! by Chris Wilmer'
_symmetry_space_group_name_H-M	'P1'
_symmetry_Int_Tables_number	1
_symmetry_cell_setting	triclinic
loop_
_symmetry_equiv_pos_as_xyz
  x,y,z
_cell_length_a	16.28
_cell_length_b	11.924
_cell_length_c	18.04
_cell_angle_alpha	90
_cell_angle_beta	103.862
_cell_angle_gamma	90
loop_
_atom_site_label
_atom_site_type_symbol
_atom_site_fract_x
_atom_site_fract_y
_atom_site_fract_z
_atom_site_charge
Mof_Mo	Mo	0.21669	0.64056	0.06789	1.082
Mof_Mo	Mo	0.21503	0.34816	0.03735	1.074
Mof_Mo	Mo	0.11796	0.76673	0.96706	1.154
Mof_Mo	Mo	0.98003	0.64623	0.80528	1.16
Mof_Mo	Mo	0.97662	0.42997	0.78692	1.165
Mof_Mo	Mo	0.1106	0.25603	0.92189	1.134
Mof_Mn	Mn	0.62426	0.49604	0.13494	0.971
Mof_P 	P 	0.17288	0.525	0.88644	0.582
Mof_P 	P 	0.06128	0.20159	0.73783	0.52
Mof_P 	P 	0.38874	0.50625	0.05875	0.553
Mof_P 	P 	0.1234	0.83736	0.79022	0.559
Mof_O 	O 	0.2388	0.7448	0.9922	-0.499
Mof_O 	O 	0.0935	0.6348	0.025	-0.632
Mof_O 	O 	0.0914	0.3611	0.0011	-0.628
Mof_O 	O 	0.1159	0.6317	0.8777	-0.427
Mof_O 	O 	0.477	0.4958	0.1174	-0.284
Mof_O 	O 	0.1145	0.423	0.858	-0.423
Mof_O 	O 	0.2112	0.5096	0.9731	-0.422
Mof_O 	O 	0.9643	0.524	0.8742	-0.604
Mof_O 	O 	0.2401	0.5407	0.842	-0.313
Mof_O 	O 	0.9926	0.7535	0.9012	-0.471
Mof_O 	O 	0.2045	0.4798	0.1144	-0.468
Mof_O 	O 	0.3413	0.5989	0.0913	-0.416
Mof_O 	O 	0.2329	0.2747	0.9474	-0.509
Mof_O 	O 	0.3429	0.3926	0.0619	-0.401
Mof_O 	O 	0.0186	0.5504	0.7331	-0.526
Mof_O 	O 	0.9863	0.2924	0.8627	-0.47
Mof_O 	O 	0.1224	0.1969	0.8179	-0.382
Mof_O 	O 	0.136	0.862	0.8765	-0.398
Mof_O 	O 	0.9857	0.1229	0.7345	-0.249
Mof_O 	O 	0.0392	0.7757	0.761	-0.409
Mof_O 	O 	0.403	0.5372	0.9827	-0.339
Mof_O 	O 	0.0299	0.3251	0.7223	-0.397
Mof_O 	O 	0.13	0.9436	0.7477	-0.314
Mof_O 	O 	0.1085	0.1698	0.6771	-0.291
Mof_O 	O 	0.1979	0.7597	0.779	-0.183
Mof_Mo	Mo	0.28331	0.14056	0.43211	1.096
Mof_Mo	Mo	0.28497	0.84816	0.46265	1.139
Mof_Mo	Mo	0.38204	0.26673	0.53294	1.122
Mof_Mo	Mo	0.51997	0.14623	0.69472	1.104
Mof_Mo	Mo	0.52338	0.92997	0.71308	1.175
Mof_Mo	Mo	0.3894	0.75603	0.57811	1.131
Mof_Mn	Mn	0.87574	0.99604	0.36506	1.007
Mof_P 	P 	0.32712	0.025	0.61356	0.562
Mof_P 	P 	0.43872	0.70159	0.76217	0.544
Mof_P 	P 	0.11126	0.00625	0.44125	0.532
Mof_P 	P 	0.3766	0.33736	0.70978	0.558
Mof_O 	O 	0.2612	0.2448	0.5078	-0.516
Mof_O 	O 	0.4065	0.1348	0.475	-0.619
Mof_O 	O 	0.4086	0.8611	0.4989	-0.608
Mof_O 	O 	0.3841	0.1317	0.6223	-0.416
Mof_O 	O 	0.023	0.9958	0.3826	-0.269
Mof_O 	O 	0.3855	0.923	0.642	-0.398
Mof_O 	O 	0.2888	0.0096	0.5269	-0.457
Mof_O 	O 	0.5357	0.024	0.6258	-0.629
Mof_O 	O 	0.2599	0.0407	0.658	-0.315
Mof_O 	O 	0.5074	0.2535	0.5988	-0.483
Mof_O 	O 	0.2955	0.9798	0.3856	-0.458
Mof_O 	O 	0.1587	0.0989	0.4087	-0.422
Mof_O 	O 	0.2671	0.7747	0.5526	-0.523
Mof_O 	O 	0.1571	0.8926	0.4381	-0.379
Mof_O 	O 	0.4814	0.0504	0.7669	-0.516
Mof_O 	O 	0.5137	0.7924	0.6373	-0.487
Mof_O 	O 	0.3776	0.6969	0.6821	-0.375
Mof_O 	O 	0.364	0.362	0.6235	-0.401
Mof_O 	O 	0.5143	0.6229	0.7655	-0.267
Mof_O 	O 	0.4608	0.2757	0.739	-0.394
Mof_O 	O 	0.097	0.0372	0.5173	-0.368
Mof_O 	O 	0.4701	0.8251	0.7777	-0.378
Mof_O 	O 	0.37	0.4436	0.7523	-0.335
Mof_O 	O 	0.3915	0.6698	0.8229	-0.286
Mof_O 	O 	0.3021	0.2597	0.721	-0.187
Mof_Mo	Mo	0.78331	0.35944	0.93211	1.161
Mof_Mo	Mo	0.78497	0.65184	0.96265	1.172
Mof_Mo	Mo	0.88204	0.23327	0.03294	1.1
Mof_Mo	Mo	0.01997	0.35377	0.19472	1.056
Mof_Mo	Mo	0.02338	0.57003	0.21308	1.07
Mof_Mo	Mo	0.8894	0.74397	0.07811	1.126
Mof_Mn	Mn	0.37574	0.50396	0.86506	0.979
Mof_P 	P 	0.82712	0.475	0.11356	0.581
Mof_P 	P 	0.93872	0.79841	0.26217	0.558
Mof_P 	P 	0.61126	0.49375	0.94125	0.6
Mof_P 	P 	0.8766	0.16264	0.20978	0.557
Mof_O 	O 	0.7612	0.2552	0.0078	-0.537
Mof_O 	O 	0.9065	0.3652	0.975	-0.588
Mof_O 	O 	0.9086	0.6389	0.9989	-0.589
Mof_O 	O 	0.8841	0.3683	0.1223	-0.404
Mof_O 	O 	0.523	0.5042	0.8826	-0.283
Mof_O 	O 	0.8855	0.577	0.142	-0.406
Mof_O 	O 	0.7888	0.4904	0.0269	-0.468
Mof_O 	O 	0.0357	0.476	0.1258	-0.601
Mof_O 	O 	0.7599	0.4593	0.158	-0.314
Mof_O 	O 	0.0074	0.2465	0.0988	-0.502
Mof_O 	O 	0.7955	0.5202	0.8856	-0.485
Mof_O 	O 	0.6587	0.4011	0.9087	-0.421
Mof_O 	O 	0.7671	0.7253	0.0526	-0.541
Mof_O 	O 	0.6571	0.6074	0.9381	-0.398
Mof_O 	O 	0.9814	0.4496	0.2669	-0.465
Mof_O 	O 	0.0137	0.7076	0.1373	-0.493
Mof_O 	O 	0.8776	0.8031	0.1821	-0.369
Mof_O 	O 	0.864	0.138	0.1235	-0.399
Mof_O 	O 	0.0143	0.8771	0.2655	-0.278
Mof_O 	O 	0.9608	0.2243	0.239	-0.377
Mof_O 	O 	0.597	0.4628	0.0173	-0.384
Mof_O 	O 	0.9701	0.6749	0.2777	-0.362
Mof_O 	O 	0.87	0.0564	0.2523	-0.347
Mof_O 	O 	0.8915	0.8302	0.3229	-0.288
Mof_O 	O 	0.8021	0.2403	0.221	-0.189
Mof_Mo	Mo	0.71669	0.85944	0.56789	1.145
Mof_Mo	Mo	0.71503	0.15184	0.53735	1.117
Mof_Mo	Mo	0.61796	0.73327	0.46706	1.117
Mof_Mo	Mo	0.48003	0.85377	0.30528	1.13
Mof_Mo	Mo	0.47662	0.07003	0.28692	1.056
Mof_Mo	Mo	0.6106	0.24397	0.42189	1.132
Mof_Mn	Mn	0.12426	0.00396	0.63494	0.927
Mof_P 	P 	0.67288	0.975	0.38644	0.599
Mof_P 	P 	0.56128	0.29841	0.23783	0.542
Mof_P 	P 	0.88874	0.99375	0.55875	0.605
Mof_P 	P 	0.6234	0.66264	0.29022	0.558
Mof_O 	O 	0.7388	0.7552	0.4922	-0.52
Mof_O 	O 	0.5935	0.8652	0.525	-0.611
Mof_O 	O 	0.5914	0.1389	0.5011	-0.617
Mof_O 	O 	0.6159	0.8683	0.3777	-0.418
Mof_O 	O 	0.977	0.0042	0.6174	-0.283
Mof_O 	O 	0.6145	0.077	0.358	-0.43
Mof_O 	O 	0.7112	0.9904	0.4731	-0.438
Mof_O 	O 	0.4643	0.976	0.3742	-0.586
Mof_O 	O 	0.7401	0.9593	0.342	-0.312
Mof_O 	O 	0.4926	0.7465	0.4012	-0.485
Mof_O 	O 	0.7045	0.0202	0.6144	-0.493
Mof_O 	O 	0.8413	0.9011	0.5913	-0.416
Mof_O 	O 	0.7329	0.2253	0.4474	-0.527
Mof_O 	O 	0.8429	0.1074	0.5619	-0.411
Mof_O 	O 	0.5186	0.9496	0.2331	-0.479
Mof_O 	O 	0.4863	0.2076	0.3627	-0.48
Mof_O 	O 	0.6224	0.3031	0.3179	-0.375
Mof_O 	O 	0.636	0.638	0.3765	-0.399
Mof_O 	O 	0.4857	0.3771	0.2345	-0.267
Mof_O 	O 	0.5392	0.7243	0.261	-0.398
Mof_O 	O 	0.903	0.9628	0.4827	-0.356
Mof_O 	O 	0.5299	0.1749	0.2223	-0.38
Mof_O 	O 	0.63	0.5564	0.2477	-0.334
Mof_O 	O 	0.6085	0.3302	0.1771	-0.292
Mof_O 	O 	0.6979	0.7403	0.279	-0.186
Mof_Mn	Mn	3.71231e-33	0.5	-0	1.036
Mof_Mn	Mn	0.5	-7.42461e-33	0.5	1.074
_end
