data_functionalizedCrystal
_audit_creation_method	'EQeq! by Chris Wilmer'
_symmetry_space_group_name_H-M	'P1'
_symmetry_Int_Tables_number	1
_symmetry_cell_setting	triclinic
loop_
_symmetry_equiv_pos_as_xyz
  x,y,z
_cell_length_a	22.9206
_cell_length_b	7.7047
_cell_length_c	19.3208
_cell_angle_alpha	90
_cell_angle_beta	114.596
_cell_angle_gamma	90
loop_
_atom_site_label
_atom_site_type_symbol
_atom_site_fract_x
_atom_site_fract_y
_atom_site_fract_z
_atom_site_charge
Mof_Cd	Cd	0.24758	0.2842	0.27249	0.436
Mof_O 	O 	0.2495	0.0801	0.17776	-0.291
Mof_O 	O 	0.25425	0.8592	0.11015	-0.278
Mof_C 	C 	0.25129	0.018	0.11836	0.304
Mof_C 	C 	0.25072	0.1379	0.0573	-0.064
Mof_C 	C 	0.2487	0.3175	0.0652	-0.017
Mof_H 	H 	0.2478	0.3638	0.1098	0.058
Mof_C 	C 	0.252	0.0716	0.99125	-0.02
Mof_H 	H 	0.2533	0.9509	0.9849	0.062
Mof_N 	N 	0.32783	0.091	0.34824	-0.112
Mof_N 	N 	0.33439	0.9209	0.33077	-0.113
Mof_C 	C 	0.37493	0.1246	0.4136	0.093
Mof_H 	H 	0.3819	0.2317	0.4391	0.011
Mof_C 	C 	0.3851	0.8588	0.3865	0.093
Mof_H 	H 	0.4004	0.7446	0.3894	0.01
Mof_N 	N 	0.41237	0.9827	0.43945	-0.131
Mof_C 	C 	0.4725	0.9702	0.5091	-0.055
Mof_H 	H 	0.4796	0.8499	0.5273	0.054
Mof_H 	H 	0.4698	0.0432	0.5492	0.054
Mof_N 	N 	0.16821	0.0852	0.26511	-0.112
Mof_N 	N 	0.16871	0.9115	0.2493	-0.112
Mof_C 	C 	0.1198	0.1116	0.2823	0.094
Mof_H 	H 	0.1088	0.2194	0.2963	0.01
Mof_C 	C 	0.12038	0.8416	0.2575	0.095
Mof_H 	H 	0.1097	0.7231	0.2505	0.011
Mof_N 	N 	0.08769	0.9621	0.2773	-0.131
Mof_C 	C 	0.0284	0.9405	0.2885	-0.054
Mof_H 	H 	0.0242	0.0356	0.3198	0.055
Mof_H 	H 	0.0299	0.8309	0.3149	0.053
Mof_Cd	Cd	0.74758	0.7842	0.27249	0.436
Mof_O 	O 	0.7495	0.5801	0.17776	-0.292
Mof_O 	O 	0.75425	0.3592	0.11015	-0.279
Mof_C 	C 	0.75129	0.518	0.11836	0.303
Mof_C 	C 	0.75072	0.6379	0.0573	-0.06
Mof_C 	C 	0.7487	0.8175	0.0652	-0.021
Mof_H 	H 	0.7478	0.8638	0.1098	0.06
Mof_C 	C 	0.752	0.5716	0.99125	-0.026
Mof_H 	H 	0.7533	0.4509	0.9849	0.065
Mof_N 	N 	0.82783	0.591	0.34824	-0.112
Mof_N 	N 	0.83439	0.4209	0.33077	-0.113
Mof_C 	C 	0.87493	0.6246	0.4136	0.094
Mof_H 	H 	0.8819	0.7317	0.4391	0.011
Mof_C 	C 	0.8851	0.3588	0.3865	0.093
Mof_H 	H 	0.9004	0.2446	0.3894	0.01
Mof_N 	N 	0.91237	0.4827	0.43945	-0.131
Mof_C 	C 	0.9725	0.4702	0.5091	-0.055
Mof_H 	H 	0.9796	0.3499	0.5273	0.054
Mof_H 	H 	0.9698	0.5432	0.5492	0.054
Mof_N 	N 	0.66821	0.5852	0.26511	-0.112
Mof_N 	N 	0.66871	0.4115	0.2493	-0.112
Mof_C 	C 	0.6198	0.6116	0.2823	0.095
Mof_H 	H 	0.6088	0.7194	0.2963	0.01
Mof_C 	C 	0.62038	0.3416	0.2575	0.095
Mof_H 	H 	0.6097	0.2231	0.2505	0.011
Mof_N 	N 	0.58769	0.4621	0.2773	-0.132
Mof_C 	C 	0.5284	0.4405	0.2885	-0.055
Mof_H 	H 	0.5242	0.5356	0.3198	0.055
Mof_H 	H 	0.5299	0.3309	0.3149	0.053
Mof_Cd	Cd	0.75242	0.2842	0.22751	0.435
Mof_O 	O 	0.7505	0.0801	0.32224	-0.292
Mof_O 	O 	0.74575	0.8592	0.38985	-0.279
Mof_C 	C 	0.74871	0.018	0.38164	0.303
Mof_C 	C 	0.74928	0.1379	0.4427	-0.061
Mof_C 	C 	0.7513	0.3175	0.4348	-0.019
Mof_H 	H 	0.7522	0.3638	0.3902	0.059
Mof_C 	C 	0.748	0.0716	0.50875	-0.024
Mof_H 	H 	0.7467	0.9509	0.5151	0.064
Mof_N 	N 	0.67217	0.091	0.15176	-0.112
Mof_N 	N 	0.66561	0.9209	0.16923	-0.113
Mof_C 	C 	0.62507	0.1246	0.0864	0.092
Mof_H 	H 	0.6181	0.2317	0.0609	0.011
Mof_C 	C 	0.6149	0.8588	0.1135	0.093
Mof_H 	H 	0.5996	0.7446	0.1106	0.01
Mof_N 	N 	0.58763	0.9827	0.06055	-0.13
Mof_C 	C 	0.5275	0.9702	0.9909	-0.057
Mof_H 	H 	0.5204	0.8499	0.9727	0.054
Mof_H 	H 	0.5302	0.0432	0.9508	0.055
Mof_N 	N 	0.83179	0.0852	0.23489	-0.112
Mof_N 	N 	0.83129	0.9115	0.2507	-0.112
Mof_C 	C 	0.8802	0.1116	0.2177	0.094
Mof_H 	H 	0.8912	0.2194	0.2037	0.01
Mof_C 	C 	0.87962	0.8416	0.2425	0.095
Mof_H 	H 	0.8903	0.7231	0.2495	0.011
Mof_N 	N 	0.91231	0.9621	0.2227	-0.131
Mof_C 	C 	0.9716	0.9405	0.2115	-0.053
Mof_H 	H 	0.9758	0.0356	0.1802	0.054
Mof_H 	H 	0.9701	0.8309	0.1851	0.052
Mof_Cd	Cd	0.25242	0.7842	0.22751	0.436
Mof_O 	O 	0.2505	0.5801	0.32224	-0.292
Mof_O 	O 	0.24575	0.3592	0.38985	-0.279
Mof_C 	C 	0.24871	0.518	0.38164	0.304
Mof_C 	C 	0.24928	0.6379	0.4427	-0.061
Mof_C 	C 	0.2513	0.8175	0.4348	-0.019
Mof_H 	H 	0.2522	0.8638	0.3902	0.059
Mof_C 	C 	0.248	0.5716	0.50875	-0.024
Mof_H 	H 	0.2467	0.4509	0.5151	0.064
Mof_N 	N 	0.17217	0.591	0.15176	-0.111
Mof_N 	N 	0.16561	0.4209	0.16923	-0.113
Mof_C 	C 	0.12507	0.6246	0.0864	0.094
Mof_H 	H 	0.1181	0.7317	0.0609	0.011
Mof_C 	C 	0.1149	0.3588	0.1135	0.093
Mof_H 	H 	0.0996	0.2446	0.1106	0.01
Mof_N 	N 	0.08763	0.4827	0.06055	-0.131
Mof_C 	C 	0.0275	0.4702	0.9909	-0.055
Mof_H 	H 	0.0204	0.3499	0.9727	0.054
Mof_H 	H 	0.0302	0.5432	0.9508	0.054
Mof_N 	N 	0.33179	0.5852	0.23489	-0.112
Mof_N 	N 	0.33129	0.4115	0.2507	-0.112
Mof_C 	C 	0.3802	0.6116	0.2177	0.095
Mof_H 	H 	0.3912	0.7194	0.2037	0.01
Mof_C 	C 	0.37962	0.3416	0.2425	0.095
Mof_H 	H 	0.3903	0.2231	0.2495	0.011
Mof_N 	N 	0.41231	0.4621	0.2227	-0.132
Mof_C 	C 	0.4716	0.4405	0.2115	-0.055
Mof_H 	H 	0.4758	0.5356	0.1802	0.055
Mof_H 	H 	0.4701	0.3309	0.1851	0.053
Mof_Cd	Cd	0.75242	0.7158	0.72751	0.435
Mof_O 	O 	0.7505	0.9199	0.82224	-0.292
Mof_O 	O 	0.74575	0.1408	0.88985	-0.278
Mof_C 	C 	0.74871	0.982	0.88164	0.304
Mof_C 	C 	0.74928	0.8621	0.9427	-0.064
Mof_C 	C 	0.7513	0.6825	0.9348	-0.017
Mof_H 	H 	0.7522	0.6362	0.8902	0.058
Mof_C 	C 	0.748	0.9284	0.00875	-0.02
Mof_H 	H 	0.7467	0.0491	0.0151	0.062
Mof_N 	N 	0.67217	0.909	0.65176	-0.112
Mof_N 	N 	0.66561	0.0791	0.66923	-0.113
Mof_C 	C 	0.62507	0.8754	0.5864	0.093
Mof_H 	H 	0.6181	0.7683	0.5609	0.011
Mof_C 	C 	0.6149	0.1412	0.6135	0.093
Mof_H 	H 	0.5996	0.2554	0.6106	0.01
Mof_N 	N 	0.58763	0.0173	0.56055	-0.131
Mof_C 	C 	0.5275	0.0298	0.4909	-0.055
Mof_H 	H 	0.5204	0.1501	0.4727	0.054
Mof_H 	H 	0.5302	0.9568	0.4508	0.054
Mof_N 	N 	0.83179	0.9148	0.73489	-0.112
Mof_N 	N 	0.83129	0.0885	0.7507	-0.112
Mof_C 	C 	0.8802	0.8884	0.7177	0.094
Mof_H 	H 	0.8912	0.7806	0.7037	0.01
Mof_C 	C 	0.87962	0.1584	0.7425	0.095
Mof_H 	H 	0.8903	0.2769	0.7495	0.011
Mof_N 	N 	0.91231	0.0379	0.7227	-0.131
Mof_C 	C 	0.9716	0.0595	0.7115	-0.054
Mof_H 	H 	0.9758	0.9644	0.6802	0.055
Mof_H 	H 	0.9701	0.1691	0.6851	0.053
Mof_Cd	Cd	0.25242	0.2158	0.72751	0.436
Mof_O 	O 	0.2505	0.4199	0.82224	-0.292
Mof_O 	O 	0.24575	0.6408	0.88985	-0.279
Mof_C 	C 	0.24871	0.482	0.88164	0.303
Mof_C 	C 	0.24928	0.3621	0.9427	-0.06
Mof_C 	C 	0.2513	0.1825	0.9348	-0.021
Mof_H 	H 	0.2522	0.1362	0.8902	0.06
Mof_C 	C 	0.248	0.4284	0.00875	-0.026
Mof_H 	H 	0.2467	0.5491	0.0151	0.065
Mof_N 	N 	0.17217	0.409	0.65176	-0.112
Mof_N 	N 	0.16561	0.5791	0.66923	-0.113
Mof_C 	C 	0.12507	0.3754	0.5864	0.094
Mof_H 	H 	0.1181	0.2683	0.5609	0.011
Mof_C 	C 	0.1149	0.6412	0.6135	0.093
Mof_H 	H 	0.0996	0.7554	0.6106	0.01
Mof_N 	N 	0.08763	0.5173	0.56055	-0.131
Mof_C 	C 	0.0275	0.5298	0.4909	-0.055
Mof_H 	H 	0.0204	0.6501	0.4727	0.054
Mof_H 	H 	0.0302	0.4568	0.4508	0.054
Mof_N 	N 	0.33179	0.4148	0.73489	-0.112
Mof_N 	N 	0.33129	0.5885	0.7507	-0.112
Mof_C 	C 	0.3802	0.3884	0.7177	0.095
Mof_H 	H 	0.3912	0.2806	0.7037	0.01
Mof_C 	C 	0.37962	0.6584	0.7425	0.095
Mof_H 	H 	0.3903	0.7769	0.7495	0.011
Mof_N 	N 	0.41231	0.5379	0.7227	-0.132
Mof_C 	C 	0.4716	0.5595	0.7115	-0.055
Mof_H 	H 	0.4758	0.4644	0.6802	0.055
Mof_H 	H 	0.4701	0.6691	0.6851	0.053
Mof_Cd	Cd	0.24758	0.7158	0.77249	0.435
Mof_O 	O 	0.2495	0.9199	0.67776	-0.292
Mof_O 	O 	0.25425	0.1408	0.61015	-0.279
Mof_C 	C 	0.25129	0.982	0.61836	0.303
Mof_C 	C 	0.25072	0.8621	0.5573	-0.061
Mof_C 	C 	0.2487	0.6825	0.5652	-0.019
Mof_H 	H 	0.2478	0.6362	0.6098	0.059
Mof_C 	C 	0.252	0.9284	0.49125	-0.024
Mof_H 	H 	0.2533	0.0491	0.4849	0.064
Mof_N 	N 	0.32783	0.909	0.84824	-0.112
Mof_N 	N 	0.33439	0.0791	0.83077	-0.113
Mof_C 	C 	0.37493	0.8754	0.9136	0.092
Mof_H 	H 	0.3819	0.7683	0.9391	0.011
Mof_C 	C 	0.3851	0.1412	0.8865	0.093
Mof_H 	H 	0.4004	0.2554	0.8894	0.01
Mof_N 	N 	0.41237	0.0173	0.93945	-0.13
Mof_C 	C 	0.4725	0.0298	0.0091	-0.057
Mof_H 	H 	0.4796	0.1501	0.0273	0.054
Mof_H 	H 	0.4698	0.9568	0.0492	0.055
Mof_N 	N 	0.16821	0.9148	0.76511	-0.112
Mof_N 	N 	0.16871	0.0885	0.7493	-0.112
Mof_C 	C 	0.1198	0.8884	0.7823	0.094
Mof_H 	H 	0.1088	0.7806	0.7963	0.01
Mof_C 	C 	0.12038	0.1584	0.7575	0.095
Mof_H 	H 	0.1097	0.2769	0.7505	0.011
Mof_N 	N 	0.08769	0.0379	0.7773	-0.131
Mof_C 	C 	0.0284	0.0595	0.7885	-0.053
Mof_H 	H 	0.0242	0.9644	0.8198	0.054
Mof_H 	H 	0.0299	0.1691	0.8149	0.052
Mof_Cd	Cd	0.74758	0.2158	0.77249	0.436
Mof_O 	O 	0.7495	0.4199	0.67776	-0.292
Mof_O 	O 	0.75425	0.6408	0.61015	-0.279
Mof_C 	C 	0.75129	0.482	0.61836	0.304
Mof_C 	C 	0.75072	0.3621	0.5573	-0.061
Mof_C 	C 	0.7487	0.1825	0.5652	-0.019
Mof_H 	H 	0.7478	0.1362	0.6098	0.059
Mof_C 	C 	0.752	0.4284	0.49125	-0.024
Mof_H 	H 	0.7533	0.5491	0.4849	0.064
Mof_N 	N 	0.82783	0.409	0.84824	-0.111
Mof_N 	N 	0.83439	0.5791	0.83077	-0.113
Mof_C 	C 	0.87493	0.3754	0.9136	0.094
Mof_H 	H 	0.8819	0.2683	0.9391	0.011
Mof_C 	C 	0.8851	0.6412	0.8865	0.093
Mof_H 	H 	0.9004	0.7554	0.8894	0.01
Mof_N 	N 	0.91237	0.5173	0.93945	-0.131
Mof_C 	C 	0.9725	0.5298	0.0091	-0.055
Mof_H 	H 	0.9796	0.6501	0.0273	0.054
Mof_H 	H 	0.9698	0.4568	0.0492	0.054
Mof_N 	N 	0.66821	0.4148	0.76511	-0.112
Mof_N 	N 	0.66871	0.5885	0.7493	-0.112
Mof_C 	C 	0.6198	0.3884	0.7823	0.095
Mof_H 	H 	0.6088	0.2806	0.7963	0.01
Mof_C 	C 	0.62038	0.6584	0.7575	0.095
Mof_H 	H 	0.6097	0.7769	0.7505	0.011
Mof_N 	N 	0.58769	0.5379	0.7773	-0.132
Mof_C 	C 	0.5284	0.5595	0.7885	-0.055
Mof_H 	H 	0.5242	0.4644	0.8198	0.055
Mof_H 	H 	0.5299	0.6691	0.8149	0.053
_end
