data_functionalizedCrystal
_audit_creation_method	'EQeq! by Chris Wilmer'
_symmetry_space_group_name_H-M	'P1'
_symmetry_Int_Tables_number	1
_symmetry_cell_setting	triclinic
loop_
_symmetry_equiv_pos_as_xyz
  x,y,z
_cell_length_a	29.325
_cell_length_b	13.413
_cell_length_c	36.016
_cell_angle_alpha	90
_cell_angle_beta	90
_cell_angle_gamma	90
loop_
_atom_site_label
_atom_site_type_symbol
_atom_site_fract_x
_atom_site_fract_y
_atom_site_fract_z
_atom_site_charge
Mof_W 	W 	0.54314	0.67341	0.3505	1.307
Mof_W 	W 	0.46942	0.70293	0.42397	0.995
Mof_W 	W 	0.42176	0.45086	0.41028	0.985
Mof_W 	W 	0.49412	0.25233	0.40879	0.995
Mof_W 	W 	0.61918	0.45187	0.34814	1.03
Mof_W 	W 	0.66096	0.5204	0.43505	1.269
Mof_W 	W 	0.58437	0.73592	0.43735	1.011
Mof_W 	W 	0.61776	0.28777	0.4236	1.254
Mof_W 	W 	0.49456	0.42202	0.33584	1.323
Mof_Co	Co	0.58652	0.4241	0.50472	1.146
Mof_Co	Co	0.52105	0.61394	0.50706	1.181
Mof_P 	P 	0.54103	0.4917	0.42648	0.555
Mof_O 	O 	0.5054	0.4308	0.4053	-0.397
Mof_O 	O 	0.589	0.4548	0.4148	-0.418
Mof_O 	O 	0.5339	0.4801	0.4686	-0.594
Mof_O 	O 	0.5366	0.6021	0.4144	-0.398
Mof_O 	O 	0.4945	0.2711	0.4583	-0.481
Mof_O 	O 	0.4328	0.3142	0.4085	-0.449
Mof_O 	O 	0.493	0.292	0.3559	-0.458
Mof_O 	O 	0.5594	0.2466	0.4059	-0.46
Mof_O 	O 	0.4382	0.5909	0.4057	-0.467
Mof_O 	O 	0.5981	0.3061	0.4698	-0.535
Mof_O 	O 	0.6488	0.1761	0.4255	-0.554
Mof_O 	O 	0.6287	0.3264	0.3698	-0.446
Mof_O 	O 	0.566	0.5396	0.5399	-0.613
Mof_O 	O 	0.5719	0.6856	0.4814	-0.502
Mof_O 	O 	0.6368	0.5067	0.4795	-0.54
Mof_O 	O 	0.5212	0.784	0.4356	-0.444
Mof_O 	O 	0.5793	0.7502	0.3819	-0.458
Mof_O 	O 	0.6328	0.6477	0.4265	-0.474
Mof_O 	O 	0.4699	0.6501	0.4708	-0.605
Mof_O 	O 	0.4903	0.7244	0.373	-0.456
Mof_O 	O 	0.5929	0.5837	0.345	-0.471
Mof_O 	O 	0.5595	0.4076	0.3351	-0.476
Mof_O 	O 	0.6636	0.5085	0.3792	-0.458
Mof_O 	O 	0.5442	0.745	0.3105	-0.562
Mof_O 	O 	0.4807	0.3989	0.2898	-0.556
Mof_O 	O 	0.4372	0.4482	0.3575	-0.451
Mof_O 	O 	0.6683	0.3761	0.4313	-0.5
Mof_O 	O 	0.5041	0.559	0.3371	-0.488
Mof_O 	O 	0.7177	0.5549	0.4421	-0.568
Mof_Co	Co	0.53013	0.82339	0.26149	1.117
Mof_C 	C 	0.7007	0.6891	0.1711	0.107
Mof_C 	C 	0.7298	0.6799	0.1139	0.101
Mof_C 	C 	0.7758	0.6888	0.1631	0.108
Mof_C 	C 	0.7225	0.6753	0.0728	0.068
Mof_C 	C 	0.8225	0.6939	0.1811	0.055
Mof_C 	C 	0.8265	0.7103	0.2185	-0.124
Mof_H 	H 	0.801	0.7222	0.2332	0.075
Mof_C 	C 	0.8607	0.6771	0.1595	-0.115
Mof_H 	H 	0.8586	0.67	0.1339	0.064
Mof_C 	C 	0.902	0.6712	0.1778	0.066
Mof_H 	H 	0.9275	0.6536	0.1639	0.035
Mof_C 	C 	0.3026	0.9274	0.3884	0.102
Mof_C 	C 	0.2704	0.9449	0.3325	0.113
Mof_C 	C 	0.3458	0.942	0.3385	0.102
Mof_C 	C 	0.3925	0.9409	0.3203	0.059
Mof_C 	C 	0.4299	0.9276	0.342	-0.128
Mof_H 	H 	0.4284	0.9321	0.3677	0.066
Mof_C 	C 	0.4711	0.9063	0.3232	0.065
Mof_H 	H 	0.497	0.8943	0.3374	-0.009
Mof_C 	C 	0.2977	0.9133	0.4293	0.06
Mof_C 	C 	0.2558	0.9066	0.4462	-0.133
Mof_H 	H 	0.2292	0.9115	0.4323	0.075
Mof_C 	C 	0.2287	0.9512	0.3082	0.05
Mof_C 	C 	0.1851	0.9443	0.3235	-0.105
Mof_H 	H 	0.1816	0.937	0.349	0.064
Mof_C 	C 	0.1476	0.9481	0.3013	0.054
Mof_H 	H 	0.1188	0.9446	0.312	0.026
Mof_C 	C 	0.4382	0.9247	0.2664	0.065
Mof_H 	H 	0.4405	0.9264	0.2407	-0.016
Mof_C 	C 	0.8693	0.7085	0.2334	0.068
Mof_H 	H 	0.8724	0.7213	0.2587	-0.003
Mof_C 	C 	0.6593	0.6965	0.1945	0.058
Mof_C 	C 	0.6158	0.6962	0.1784	-0.131
Mof_H 	H 	0.612	0.6814	0.1533	0.082
Mof_C 	C 	0.3951	0.9459	0.2828	-0.129
Mof_H 	H 	0.3698	0.9624	0.2684	0.071
Mof_C 	C 	0.5796	0.7178	0.2001	0.079
Mof_H 	H 	0.5508	0.7178	0.1894	-0.011
Mof_C 	C 	0.2328	0.9619	0.2704	-0.125
Mof_H 	H 	0.2613	0.9669	0.2593	0.07
Mof_C 	C 	0.254	0.8924	0.4837	0.077
Mof_H 	H 	0.2254	0.8842	0.4944	-0.006
Mof_C 	C 	0.6632	0.7089	0.232	-0.13
Mof_H 	H 	0.6914	0.7025	0.2436	0.075
Mof_C 	C 	0.6248	0.7309	0.2523	0.066
Mof_H 	H 	0.6276	0.7403	0.2778	-0.01
Mof_C 	C 	0.757	0.6464	0.0498	-0.14
Mof_H 	H 	0.7853	0.6293	0.0595	0.066
Mof_C 	C 	0.7496	0.643	0.0128	0.078
Mof_H 	H 	0.7736	0.6235	0.9976	-0.01
Mof_C 	C 	0.6809	0.6967	0.0572	-0.155
Mof_H 	H 	0.656	0.7137	0.0718	0.086
Mof_C 	C 	0.6775	0.6923	0.0199	0.089
Mof_H 	H 	0.6496	0.7095	0.0094	-0.014
Mof_C 	C 	0.3358	0.9079	0.4511	-0.141
Mof_H 	H 	0.3647	0.9137	0.4407	0.067
Mof_C 	C 	0.3302	0.8934	0.4893	0.071
Mof_H 	H 	0.3563	0.8859	0.5037	-0.022
Mof_C 	C 	0.1944	0.965	0.2496	0.068
Mof_H 	H 	0.1976	0.9731	0.2241	-0.007
Mof_N 	N 	0.4752	0.9026	0.286	-0.25
Mof_N 	N 	0.2906	0.8896	0.5061	-0.253
Mof_N 	N 	0.264	0.9334	0.3685	-0.143
Mof_N 	N 	0.3441	0.9335	0.3751	-0.149
Mof_N 	N 	0.31	0.9517	0.3158	-0.145
Mof_N 	N 	0.6933	0.6815	0.1347	-0.143
Mof_N 	N 	0.7411	0.6941	0.1865	-0.144
Mof_N 	N 	0.7726	0.685	0.1265	-0.145
Mof_N 	N 	0.9078	0.6891	0.2135	-0.141
Mof_N 	N 	0.1515	0.9571	0.2635	-0.138
Mof_N 	N 	0.5829	0.7393	0.2363	-0.247
Mof_N 	N 	0.7107	0.6654	0.997	-0.167
Mof_Co	Co	0.28432	0.89035	0.56523	1.077
Mof_W 	W 	0.95686	0.32659	0.8505	1.308
Mof_W 	W 	0.03058	0.29707	0.92397	0.996
Mof_W 	W 	0.07824	0.54914	0.91028	0.986
Mof_W 	W 	0.00588	0.74767	0.90879	0.995
Mof_W 	W 	0.88082	0.54813	0.84814	1.031
Mof_W 	W 	0.83904	0.4796	0.93505	1.27
Mof_W 	W 	0.91563	0.26408	0.93735	1.011
Mof_W 	W 	0.88224	0.71223	0.9236	1.254
Mof_W 	W 	0.00544	0.57798	0.83584	1.322
Mof_Co	Co	0.91348	0.5759	0.00472	1.146
Mof_Co	Co	0.97895	0.38606	0.00706	1.18
Mof_P 	P 	0.95897	0.5083	0.92648	0.555
Mof_O 	O 	0.9946	0.5692	0.9053	-0.397
Mof_O 	O 	0.911	0.5452	0.9148	-0.418
Mof_O 	O 	0.9661	0.5199	0.9686	-0.593
Mof_O 	O 	0.9634	0.3979	0.9144	-0.398
Mof_O 	O 	0.0055	0.7289	0.9583	-0.481
Mof_O 	O 	0.0672	0.6858	0.9085	-0.449
Mof_O 	O 	0.007	0.708	0.8559	-0.458
Mof_O 	O 	0.9406	0.7534	0.9059	-0.459
Mof_O 	O 	0.0618	0.4091	0.9057	-0.467
Mof_O 	O 	0.9019	0.6939	0.9698	-0.535
Mof_O 	O 	0.8512	0.8239	0.9255	-0.553
Mof_O 	O 	0.8713	0.6736	0.8698	-0.446
Mof_O 	O 	0.934	0.4604	0.0399	-0.613
Mof_O 	O 	0.9281	0.3144	0.9814	-0.502
Mof_O 	O 	0.8632	0.4933	0.9795	-0.54
Mof_O 	O 	0.9788	0.216	0.9356	-0.443
Mof_O 	O 	0.9207	0.2498	0.8819	-0.459
Mof_O 	O 	0.8672	0.3523	0.9265	-0.474
Mof_O 	O 	0.0301	0.3499	0.9708	-0.605
Mof_O 	O 	0.0097	0.2756	0.873	-0.456
Mof_O 	O 	0.9071	0.4163	0.845	-0.471
Mof_O 	O 	0.9405	0.5924	0.8351	-0.475
Mof_O 	O 	0.8364	0.4915	0.8792	-0.458
Mof_O 	O 	0.9558	0.255	0.8105	-0.562
Mof_O 	O 	0.0193	0.6011	0.7898	-0.556
Mof_O 	O 	0.0628	0.5518	0.8575	-0.451
Mof_O 	O 	0.8317	0.6239	0.9313	-0.5
Mof_O 	O 	0.9959	0.441	0.8371	-0.488
Mof_O 	O 	0.7823	0.4451	0.9421	-0.568
Mof_Co	Co	0.96987	0.17661	0.76149	1.117
Mof_C 	C 	0.7993	0.3109	0.6711	0.107
Mof_C 	C 	0.7702	0.3201	0.6139	0.101
Mof_C 	C 	0.7242	0.3112	0.6631	0.108
Mof_C 	C 	0.7775	0.3247	0.5728	0.069
Mof_C 	C 	0.6775	0.3061	0.6811	0.055
Mof_C 	C 	0.6735	0.2897	0.7185	-0.124
Mof_H 	H 	0.699	0.2778	0.7332	0.075
Mof_C 	C 	0.6393	0.3229	0.6595	-0.115
Mof_H 	H 	0.6414	0.33	0.6339	0.064
Mof_C 	C 	0.598	0.3288	0.6778	0.066
Mof_H 	H 	0.5725	0.3464	0.6639	0.035
Mof_C 	C 	0.1974	0.0726	0.8884	0.103
Mof_C 	C 	0.2296	0.0551	0.8325	0.113
Mof_C 	C 	0.1542	0.058	0.8385	0.102
Mof_C 	C 	0.1075	0.0591	0.8203	0.059
Mof_C 	C 	0.0701	0.0724	0.842	-0.128
Mof_H 	H 	0.0716	0.0679	0.8677	0.066
Mof_C 	C 	0.0289	0.0937	0.8232	0.065
Mof_H 	H 	0.003	0.1057	0.8374	-0.009
Mof_C 	C 	0.2023	0.0867	0.9293	0.059
Mof_C 	C 	0.2442	0.0934	0.9462	-0.132
Mof_H 	H 	0.2708	0.0885	0.9323	0.074
Mof_C 	C 	0.2713	0.0488	0.8082	0.05
Mof_C 	C 	0.3149	0.0557	0.8235	-0.105
Mof_H 	H 	0.3184	0.063	0.849	0.065
Mof_C 	C 	0.3524	0.0519	0.8013	0.054
Mof_H 	H 	0.3812	0.0554	0.812	0.026
Mof_C 	C 	0.0618	0.0753	0.7664	0.065
Mof_H 	H 	0.0595	0.0736	0.7407	-0.016
Mof_C 	C 	0.6307	0.2915	0.7334	0.068
Mof_H 	H 	0.6276	0.2787	0.7587	-0.003
Mof_C 	C 	0.8407	0.3035	0.6945	0.058
Mof_C 	C 	0.8842	0.3038	0.6784	-0.131
Mof_H 	H 	0.888	0.3186	0.6533	0.082
Mof_C 	C 	0.1049	0.0541	0.7828	-0.128
Mof_H 	H 	0.1302	0.0376	0.7684	0.071
Mof_C 	C 	0.9204	0.2822	0.7001	0.079
Mof_H 	H 	0.9492	0.2822	0.6894	-0.011
Mof_C 	C 	0.2672	0.0381	0.7704	-0.125
Mof_H 	H 	0.2387	0.0331	0.7593	0.07
Mof_C 	C 	0.246	0.1076	0.9837	0.076
Mof_H 	H 	0.2746	0.1158	0.9944	-0.006
Mof_C 	C 	0.8368	0.2911	0.732	-0.13
Mof_H 	H 	0.8086	0.2975	0.7436	0.075
Mof_C 	C 	0.8752	0.2691	0.7523	0.066
Mof_H 	H 	0.8724	0.2597	0.7778	-0.01
Mof_C 	C 	0.743	0.3536	0.5498	-0.142
Mof_H 	H 	0.7147	0.3707	0.5595	0.067
Mof_C 	C 	0.7504	0.357	0.5128	0.081
Mof_H 	H 	0.7264	0.3765	0.4976	-0.011
Mof_C 	C 	0.8191	0.3033	0.5572	-0.155
Mof_H 	H 	0.844	0.2863	0.5718	0.086
Mof_C 	C 	0.8225	0.3077	0.5199	0.09
Mof_H 	H 	0.8504	0.2905	0.5094	-0.014
Mof_C 	C 	0.1642	0.0921	0.9511	-0.139
Mof_H 	H 	0.1353	0.0863	0.9407	0.066
Mof_C 	C 	0.1698	0.1066	0.9893	0.068
Mof_H 	H 	0.1437	0.1141	0.0037	-0.021
Mof_C 	C 	0.3056	0.035	0.7496	0.068
Mof_H 	H 	0.3024	0.0269	0.7241	-0.007
Mof_N 	N 	0.0248	0.0974	0.786	-0.249
Mof_N 	N 	0.2094	0.1104	0.0061	-0.252
Mof_N 	N 	0.236	0.0666	0.8685	-0.143
Mof_N 	N 	0.1559	0.0665	0.8751	-0.149
Mof_N 	N 	0.19	0.0483	0.8158	-0.145
Mof_N 	N 	0.8067	0.3185	0.6347	-0.143
Mof_N 	N 	0.7589	0.3059	0.6865	-0.144
Mof_N 	N 	0.7274	0.315	0.6265	-0.145
Mof_N 	N 	0.5922	0.3109	0.7135	-0.141
Mof_N 	N 	0.3485	0.0429	0.7635	-0.138
Mof_N 	N 	0.9171	0.2607	0.7363	-0.247
Mof_N 	N 	0.7893	0.3346	0.497	-0.168
Mof_Co	Co	0.21568	0.10965	0.06523	1.077
Mof_W 	W 	0.45686	0.17341	0.1495	1.308
Mof_W 	W 	0.53058	0.20293	0.07603	0.996
Mof_W 	W 	0.57824	0.95086	0.08972	0.985
Mof_W 	W 	0.50588	0.75233	0.09121	0.996
Mof_W 	W 	0.38082	0.95187	0.15186	1.028
Mof_W 	W 	0.33904	0.0204	0.06495	1.271
Mof_W 	W 	0.41563	0.23592	0.06265	1.011
Mof_W 	W 	0.38224	0.78777	0.0764	1.254
Mof_W 	W 	0.50544	0.92202	0.16416	1.322
Mof_Co	Co	0.41348	0.9241	0.99528	1.146
Mof_Co	Co	0.47895	0.11394	0.99294	1.181
Mof_P 	P 	0.45897	0.9917	0.07352	0.554
Mof_O 	O 	0.4946	0.9308	0.0947	-0.397
Mof_O 	O 	0.411	0.9548	0.0852	-0.418
Mof_O 	O 	0.4661	0.9801	0.0314	-0.594
Mof_O 	O 	0.4634	0.1021	0.0856	-0.397
Mof_O 	O 	0.5055	0.7711	0.0417	-0.481
Mof_O 	O 	0.5672	0.8142	0.0915	-0.448
Mof_O 	O 	0.507	0.792	0.1441	-0.458
Mof_O 	O 	0.4406	0.7466	0.0941	-0.46
Mof_O 	O 	0.5618	0.0909	0.0943	-0.466
Mof_O 	O 	0.4019	0.8061	0.0302	-0.535
Mof_O 	O 	0.3512	0.6761	0.0745	-0.554
Mof_O 	O 	0.3713	0.8264	0.1302	-0.446
Mof_O 	O 	0.434	0.0396	0.9601	-0.613
Mof_O 	O 	0.4281	0.1856	0.0186	-0.502
Mof_O 	O 	0.3632	0.0067	0.0205	-0.54
Mof_O 	O 	0.4788	0.284	0.0644	-0.443
Mof_O 	O 	0.4207	0.2502	0.1181	-0.458
Mof_O 	O 	0.3672	0.1477	0.0735	-0.474
Mof_O 	O 	0.5301	0.1501	0.0292	-0.605
Mof_O 	O 	0.5097	0.2244	0.127	-0.456
Mof_O 	O 	0.4071	0.0837	0.155	-0.47
Mof_O 	O 	0.4405	0.9076	0.1649	-0.476
Mof_O 	O 	0.3364	0.0085	0.1208	-0.456
Mof_O 	O 	0.4558	0.245	0.1895	-0.562
Mof_O 	O 	0.5193	0.8989	0.2102	-0.557
Mof_O 	O 	0.5628	0.9482	0.1425	-0.451
Mof_O 	O 	0.3317	0.8761	0.0687	-0.501
Mof_O 	O 	0.4959	0.059	0.1629	-0.487
Mof_O 	O 	0.2823	0.0549	0.0579	-0.568
Mof_Co	Co	0.46987	0.32339	0.23851	1.117
Mof_C 	C 	0.2993	0.1891	0.3289	0.108
Mof_C 	C 	0.2702	0.1799	0.3861	0.101
Mof_C 	C 	0.2242	0.1888	0.3369	0.108
Mof_C 	C 	0.2775	0.1753	0.4272	0.069
Mof_C 	C 	0.1775	0.1939	0.3189	0.055
Mof_C 	C 	0.1735	0.2103	0.2815	-0.123
Mof_H 	H 	0.199	0.2222	0.2668	0.075
Mof_C 	C 	0.1393	0.1771	0.3405	-0.115
Mof_H 	H 	0.1414	0.17	0.3661	0.064
Mof_C 	C 	0.098	0.1712	0.3222	0.066
Mof_H 	H 	0.0725	0.1536	0.3361	0.035
Mof_C 	C 	0.6974	0.4274	0.1116	0.103
Mof_C 	C 	0.7296	0.4449	0.1675	0.114
Mof_C 	C 	0.6542	0.442	0.1615	0.102
Mof_C 	C 	0.6075	0.4409	0.1797	0.059
Mof_C 	C 	0.5701	0.4276	0.158	-0.128
Mof_H 	H 	0.5716	0.4321	0.1323	0.066
Mof_C 	C 	0.5289	0.4063	0.1768	0.065
Mof_H 	H 	0.503	0.3943	0.1626	-0.009
Mof_C 	C 	0.7023	0.4133	0.0707	0.06
Mof_C 	C 	0.7442	0.4066	0.0538	-0.133
Mof_H 	H 	0.7708	0.4115	0.0677	0.075
Mof_C 	C 	0.7713	0.4512	0.1918	0.05
Mof_C 	C 	0.8149	0.4443	0.1765	-0.105
Mof_H 	H 	0.8184	0.437	0.151	0.065
Mof_C 	C 	0.8524	0.4481	0.1987	0.054
Mof_H 	H 	0.8812	0.4446	0.188	0.026
Mof_C 	C 	0.5618	0.4247	0.2336	0.065
Mof_H 	H 	0.5595	0.4264	0.2593	-0.016
Mof_C 	C 	0.1307	0.2085	0.2666	0.069
Mof_H 	H 	0.1276	0.2213	0.2413	-0.002
Mof_C 	C 	0.3407	0.1965	0.3055	0.058
Mof_C 	C 	0.3842	0.1962	0.3216	-0.131
Mof_H 	H 	0.388	0.1814	0.3467	0.083
Mof_C 	C 	0.6049	0.4459	0.2172	-0.129
Mof_H 	H 	0.6302	0.4624	0.2316	0.071
Mof_C 	C 	0.4204	0.2178	0.2999	0.079
Mof_H 	H 	0.4492	0.2178	0.3106	-0.011
Mof_C 	C 	0.7672	0.4619	0.2296	-0.125
Mof_H 	H 	0.7387	0.4669	0.2407	0.071
Mof_C 	C 	0.746	0.3924	0.0163	0.076
Mof_H 	H 	0.7746	0.3842	0.0056	-0.006
Mof_C 	C 	0.3368	0.2089	0.268	-0.13
Mof_H 	H 	0.3086	0.2025	0.2564	0.076
Mof_C 	C 	0.3752	0.2309	0.2477	0.066
Mof_H 	H 	0.3724	0.2403	0.2222	-0.01
Mof_C 	C 	0.243	0.1464	0.4502	-0.142
Mof_H 	H 	0.2147	0.1293	0.4405	0.067
Mof_C 	C 	0.2504	0.143	0.4872	0.081
Mof_H 	H 	0.2264	0.1235	0.5024	-0.011
Mof_C 	C 	0.3191	0.1967	0.4428	-0.155
Mof_H 	H 	0.344	0.2137	0.4282	0.086
Mof_C 	C 	0.3225	0.1923	0.4801	0.09
Mof_H 	H 	0.3504	0.2095	0.4906	-0.015
Mof_C 	C 	0.6642	0.4079	0.0489	-0.14
Mof_H 	H 	0.6353	0.4137	0.0593	0.067
Mof_C 	C 	0.6698	0.3934	0.0107	0.07
Mof_H 	H 	0.6437	0.3859	0.9963	-0.022
Mof_C 	C 	0.8056	0.465	0.2504	0.068
Mof_H 	H 	0.8024	0.4731	0.2759	-0.007
Mof_N 	N 	0.5248	0.4026	0.214	-0.25
Mof_N 	N 	0.7094	0.3896	0.9939	-0.253
Mof_N 	N 	0.736	0.4334	0.1315	-0.143
Mof_N 	N 	0.6559	0.4335	0.1249	-0.149
Mof_N 	N 	0.69	0.4517	0.1842	-0.145
Mof_N 	N 	0.3067	0.1815	0.3653	-0.143
Mof_N 	N 	0.2589	0.1941	0.3135	-0.144
Mof_N 	N 	0.2274	0.185	0.3735	-0.145
Mof_N 	N 	0.0922	0.1891	0.2865	-0.141
Mof_N 	N 	0.8485	0.4571	0.2365	-0.138
Mof_N 	N 	0.4171	0.2393	0.2637	-0.247
Mof_N 	N 	0.2893	0.1654	0.503	-0.168
Mof_Co	Co	0.71568	0.39035	0.93477	1.077
Mof_W 	W 	0.04314	0.82659	0.6495	1.307
Mof_W 	W 	0.96942	0.79707	0.57603	0.997
Mof_W 	W 	0.92176	0.04914	0.58972	0.984
Mof_W 	W 	0.99412	0.24767	0.59121	0.996
Mof_W 	W 	0.11918	0.04813	0.65186	1.03
Mof_W 	W 	0.16096	0.9796	0.56495	1.27
Mof_W 	W 	0.08437	0.76408	0.56265	1.011
Mof_W 	W 	0.11776	0.21223	0.5764	1.254
Mof_W 	W 	0.99456	0.07798	0.66416	1.321
Mof_Co	Co	0.08652	0.0759	0.49528	1.146
Mof_Co	Co	0.02105	0.88606	0.49294	1.18
Mof_P 	P 	0.04103	0.0083	0.57352	0.555
Mof_O 	O 	0.0054	0.0692	0.5947	-0.397
Mof_O 	O 	0.089	0.0452	0.5852	-0.418
Mof_O 	O 	0.0339	0.0199	0.5314	-0.593
Mof_O 	O 	0.0366	0.8979	0.5856	-0.398
Mof_O 	O 	0.9945	0.2289	0.5417	-0.481
Mof_O 	O 	0.9328	0.1858	0.5915	-0.448
Mof_O 	O 	0.993	0.208	0.6441	-0.458
Mof_O 	O 	0.0594	0.2534	0.5941	-0.459
Mof_O 	O 	0.9382	0.9091	0.5943	-0.465
Mof_O 	O 	0.0981	0.1939	0.5302	-0.535
Mof_O 	O 	0.1488	0.3239	0.5745	-0.554
Mof_O 	O 	0.1287	0.1736	0.6302	-0.446
Mof_O 	O 	0.066	0.9604	0.4601	-0.613
Mof_O 	O 	0.0719	0.8144	0.5186	-0.502
Mof_O 	O 	0.1368	0.9933	0.5205	-0.54
Mof_O 	O 	0.0212	0.716	0.5644	-0.444
Mof_O 	O 	0.0793	0.7498	0.6181	-0.458
Mof_O 	O 	0.1328	0.8523	0.5735	-0.474
Mof_O 	O 	0.9699	0.8499	0.5292	-0.604
Mof_O 	O 	0.9903	0.7756	0.627	-0.455
Mof_O 	O 	0.0929	0.9163	0.655	-0.47
Mof_O 	O 	0.0595	0.0924	0.6649	-0.475
Mof_O 	O 	0.1636	0.9915	0.6208	-0.457
Mof_O 	O 	0.0442	0.755	0.6895	-0.562
Mof_O 	O 	0.9807	0.1011	0.7102	-0.557
Mof_O 	O 	0.9372	0.0518	0.6425	-0.451
Mof_O 	O 	0.1683	0.1239	0.5687	-0.5
Mof_O 	O 	0.0041	0.941	0.6629	-0.488
Mof_O 	O 	0.2177	0.9451	0.5579	-0.568
Mof_Co	Co	0.03013	0.67661	0.73851	1.117
Mof_C 	C 	0.2007	0.8109	0.8289	0.107
Mof_C 	C 	0.2298	0.8201	0.8861	0.101
Mof_C 	C 	0.2758	0.8112	0.8369	0.108
Mof_C 	C 	0.2225	0.8247	0.9272	0.069
Mof_C 	C 	0.3225	0.8061	0.8189	0.055
Mof_C 	C 	0.3265	0.7897	0.7815	-0.123
Mof_H 	H 	0.301	0.7778	0.7668	0.075
Mof_C 	C 	0.3607	0.8229	0.8405	-0.115
Mof_H 	H 	0.3586	0.83	0.8661	0.064
Mof_C 	C 	0.402	0.8288	0.8222	0.066
Mof_H 	H 	0.4275	0.8464	0.8361	0.035
Mof_C 	C 	0.8026	0.5726	0.6116	0.103
Mof_C 	C 	0.7704	0.5551	0.6675	0.114
Mof_C 	C 	0.8458	0.558	0.6615	0.102
Mof_C 	C 	0.8925	0.5591	0.6797	0.059
Mof_C 	C 	0.9299	0.5724	0.658	-0.128
Mof_H 	H 	0.9284	0.5679	0.6323	0.066
Mof_C 	C 	0.9711	0.5937	0.6768	0.065
Mof_H 	H 	0.997	0.6057	0.6626	-0.008
Mof_C 	C 	0.7977	0.5867	0.5707	0.06
Mof_C 	C 	0.7558	0.5934	0.5538	-0.133
Mof_H 	H 	0.7292	0.5885	0.5677	0.075
Mof_C 	C 	0.7287	0.5488	0.6918	0.05
Mof_C 	C 	0.6851	0.5557	0.6765	-0.105
Mof_H 	H 	0.6816	0.563	0.651	0.065
Mof_C 	C 	0.6476	0.5519	0.6987	0.054
Mof_H 	H 	0.6188	0.5554	0.688	0.026
Mof_C 	C 	0.9382	0.5753	0.7336	0.065
Mof_H 	H 	0.9405	0.5736	0.7593	-0.016
Mof_C 	C 	0.3693	0.7915	0.7666	0.068
Mof_H 	H 	0.3724	0.7787	0.7413	-0.003
Mof_C 	C 	0.1593	0.8035	0.8055	0.058
Mof_C 	C 	0.1158	0.8038	0.8216	-0.131
Mof_H 	H 	0.112	0.8186	0.8467	0.082
Mof_C 	C 	0.8951	0.5541	0.7172	-0.128
Mof_H 	H 	0.8698	0.5376	0.7316	0.071
Mof_C 	C 	0.0796	0.7822	0.7999	0.079
Mof_H 	H 	0.0508	0.7822	0.8106	-0.011
Mof_C 	C 	0.7328	0.5381	0.7296	-0.125
Mof_H 	H 	0.7613	0.5331	0.7407	0.071
Mof_C 	C 	0.754	0.6076	0.5163	0.077
Mof_H 	H 	0.7254	0.6158	0.5056	-0.006
Mof_C 	C 	0.1632	0.7911	0.768	-0.13
Mof_H 	H 	0.1914	0.7975	0.7564	0.075
Mof_C 	C 	0.1248	0.7691	0.7477	0.066
Mof_H 	H 	0.1276	0.7597	0.7222	-0.01
Mof_C 	C 	0.257	0.8536	0.9502	-0.141
Mof_H 	H 	0.2853	0.8707	0.9405	0.067
Mof_C 	C 	0.2496	0.857	0.9872	0.079
Mof_H 	H 	0.2736	0.8765	0.0024	-0.011
Mof_C 	C 	0.1809	0.8033	0.9428	-0.155
Mof_H 	H 	0.156	0.7863	0.9282	0.086
Mof_C 	C 	0.1775	0.8077	0.9801	0.089
Mof_H 	H 	0.1496	0.7905	0.9906	-0.014
Mof_C 	C 	0.8358	0.5921	0.5489	-0.141
Mof_H 	H 	0.8647	0.5863	0.5593	0.067
Mof_C 	C 	0.8302	0.6066	0.5107	0.071
Mof_H 	H 	0.8563	0.6141	0.4963	-0.022
Mof_C 	C 	0.6944	0.535	0.7504	0.068
Mof_H 	H 	0.6976	0.5269	0.7759	-0.007
Mof_N 	N 	0.9752	0.5974	0.714	-0.249
Mof_N 	N 	0.7906	0.6104	0.4939	-0.254
Mof_N 	N 	0.764	0.5666	0.6315	-0.143
Mof_N 	N 	0.8441	0.5665	0.6249	-0.149
Mof_N 	N 	0.81	0.5483	0.6842	-0.145
Mof_N 	N 	0.1933	0.8185	0.8653	-0.143
Mof_N 	N 	0.2411	0.8059	0.8135	-0.144
Mof_N 	N 	0.2726	0.815	0.8735	-0.145
Mof_N 	N 	0.4078	0.8109	0.7865	-0.141
Mof_N 	N 	0.6515	0.5429	0.7365	-0.138
Mof_N 	N 	0.0829	0.7607	0.7637	-0.247
Mof_N 	N 	0.2107	0.8346	0.003	-0.167
Mof_Co	Co	0.78432	0.60965	0.43477	1.077
Mof_W 	W 	0.45686	0.32659	0.6495	1.308
Mof_W 	W 	0.53058	0.29707	0.57603	0.996
Mof_W 	W 	0.57824	0.54914	0.58972	0.986
Mof_W 	W 	0.50588	0.74767	0.59121	0.996
Mof_W 	W 	0.38082	0.54813	0.65186	1.031
Mof_W 	W 	0.33904	0.4796	0.56495	1.27
Mof_W 	W 	0.41563	0.26408	0.56265	1.011
Mof_W 	W 	0.38224	0.71223	0.5764	1.254
Mof_W 	W 	0.50544	0.57798	0.66416	1.323
Mof_Co	Co	0.41348	0.5759	0.49528	1.146
Mof_Co	Co	0.47895	0.38606	0.49294	1.181
Mof_P 	P 	0.45897	0.5083	0.57352	0.555
Mof_O 	O 	0.4946	0.5692	0.5947	-0.397
Mof_O 	O 	0.411	0.5452	0.5852	-0.418
Mof_O 	O 	0.4661	0.5199	0.5314	-0.594
Mof_O 	O 	0.4634	0.3979	0.5856	-0.398
Mof_O 	O 	0.5055	0.7289	0.5417	-0.481
Mof_O 	O 	0.5672	0.6858	0.5915	-0.449
Mof_O 	O 	0.507	0.708	0.6441	-0.458
Mof_O 	O 	0.4406	0.7534	0.5941	-0.46
Mof_O 	O 	0.5618	0.4091	0.5943	-0.467
Mof_O 	O 	0.4019	0.6939	0.5302	-0.535
Mof_O 	O 	0.3512	0.8239	0.5745	-0.554
Mof_O 	O 	0.3713	0.6736	0.6302	-0.446
Mof_O 	O 	0.434	0.4604	0.4601	-0.613
Mof_O 	O 	0.4281	0.3144	0.5186	-0.502
Mof_O 	O 	0.3632	0.4933	0.5205	-0.54
Mof_O 	O 	0.4788	0.216	0.5644	-0.444
Mof_O 	O 	0.4207	0.2498	0.6181	-0.458
Mof_O 	O 	0.3672	0.3523	0.5735	-0.474
Mof_O 	O 	0.5301	0.3499	0.5292	-0.605
Mof_O 	O 	0.5097	0.2756	0.627	-0.456
Mof_O 	O 	0.4071	0.4163	0.655	-0.471
Mof_O 	O 	0.4405	0.5924	0.6649	-0.476
Mof_O 	O 	0.3364	0.4915	0.6208	-0.458
Mof_O 	O 	0.4558	0.255	0.6895	-0.562
Mof_O 	O 	0.5193	0.6011	0.7102	-0.556
Mof_O 	O 	0.5628	0.5518	0.6425	-0.451
Mof_O 	O 	0.3317	0.6239	0.5687	-0.5
Mof_O 	O 	0.4959	0.441	0.6629	-0.488
Mof_O 	O 	0.2823	0.4451	0.5579	-0.568
Mof_Co	Co	0.46987	0.17661	0.73851	1.117
Mof_C 	C 	0.2993	0.3109	0.8289	0.107
Mof_C 	C 	0.2702	0.3201	0.8861	0.101
Mof_C 	C 	0.2242	0.3112	0.8369	0.108
Mof_C 	C 	0.2775	0.3247	0.9272	0.068
Mof_C 	C 	0.1775	0.3061	0.8189	0.055
Mof_C 	C 	0.1735	0.2897	0.7815	-0.124
Mof_H 	H 	0.199	0.2778	0.7668	0.075
Mof_C 	C 	0.1393	0.3229	0.8405	-0.115
Mof_H 	H 	0.1414	0.33	0.8661	0.064
Mof_C 	C 	0.098	0.3288	0.8222	0.066
Mof_H 	H 	0.0725	0.3464	0.8361	0.035
Mof_C 	C 	0.6974	0.0726	0.6116	0.102
Mof_C 	C 	0.7296	0.0551	0.6675	0.113
Mof_C 	C 	0.6542	0.058	0.6615	0.102
Mof_C 	C 	0.6075	0.0591	0.6797	0.059
Mof_C 	C 	0.5701	0.0724	0.658	-0.128
Mof_H 	H 	0.5716	0.0679	0.6323	0.066
Mof_C 	C 	0.5289	0.0937	0.6768	0.065
Mof_H 	H 	0.503	0.1057	0.6626	-0.009
Mof_C 	C 	0.7023	0.0867	0.5707	0.06
Mof_C 	C 	0.7442	0.0934	0.5538	-0.133
Mof_H 	H 	0.7708	0.0885	0.5677	0.075
Mof_C 	C 	0.7713	0.0488	0.6918	0.05
Mof_C 	C 	0.8149	0.0557	0.6765	-0.105
Mof_H 	H 	0.8184	0.063	0.651	0.064
Mof_C 	C 	0.8524	0.0519	0.6987	0.054
Mof_H 	H 	0.8812	0.0554	0.688	0.026
Mof_C 	C 	0.5618	0.0753	0.7336	0.065
Mof_H 	H 	0.5595	0.0736	0.7593	-0.016
Mof_C 	C 	0.1307	0.2915	0.7666	0.068
Mof_H 	H 	0.1276	0.2787	0.7413	-0.003
Mof_C 	C 	0.3407	0.3035	0.8055	0.058
Mof_C 	C 	0.3842	0.3038	0.8216	-0.131
Mof_H 	H 	0.388	0.3186	0.8467	0.082
Mof_C 	C 	0.6049	0.0541	0.7172	-0.129
Mof_H 	H 	0.6302	0.0376	0.7316	0.071
Mof_C 	C 	0.4204	0.2822	0.7999	0.079
Mof_H 	H 	0.4492	0.2822	0.8106	-0.011
Mof_C 	C 	0.7672	0.0381	0.7296	-0.125
Mof_H 	H 	0.7387	0.0331	0.7407	0.07
Mof_C 	C 	0.746	0.1076	0.5163	0.077
Mof_H 	H 	0.7746	0.1158	0.5056	-0.006
Mof_C 	C 	0.3368	0.2911	0.768	-0.13
Mof_H 	H 	0.3086	0.2975	0.7564	0.075
Mof_C 	C 	0.3752	0.2691	0.7477	0.066
Mof_H 	H 	0.3724	0.2597	0.7222	-0.01
Mof_C 	C 	0.243	0.3536	0.9502	-0.14
Mof_H 	H 	0.2147	0.3707	0.9405	0.066
Mof_C 	C 	0.2504	0.357	0.9872	0.078
Mof_H 	H 	0.2264	0.3765	0.0024	-0.01
Mof_C 	C 	0.3191	0.3033	0.9428	-0.155
Mof_H 	H 	0.344	0.2863	0.9282	0.086
Mof_C 	C 	0.3225	0.3077	0.9801	0.089
Mof_H 	H 	0.3504	0.2905	0.9906	-0.014
Mof_C 	C 	0.6642	0.0921	0.5489	-0.141
Mof_H 	H 	0.6353	0.0863	0.5593	0.067
Mof_C 	C 	0.6698	0.1066	0.5107	0.071
Mof_H 	H 	0.6437	0.1141	0.4963	-0.022
Mof_C 	C 	0.8056	0.035	0.7504	0.068
Mof_H 	H 	0.8024	0.0269	0.7759	-0.007
Mof_N 	N 	0.5248	0.0974	0.714	-0.25
Mof_N 	N 	0.7094	0.1104	0.4939	-0.253
Mof_N 	N 	0.736	0.0666	0.6315	-0.143
Mof_N 	N 	0.6559	0.0665	0.6249	-0.149
Mof_N 	N 	0.69	0.0483	0.6842	-0.145
Mof_N 	N 	0.3067	0.3185	0.8653	-0.143
Mof_N 	N 	0.2589	0.3059	0.8135	-0.144
Mof_N 	N 	0.2274	0.315	0.8735	-0.145
Mof_N 	N 	0.0922	0.3109	0.7865	-0.141
Mof_N 	N 	0.8485	0.0429	0.7365	-0.138
Mof_N 	N 	0.4171	0.2607	0.7637	-0.247
Mof_N 	N 	0.2893	0.3346	0.003	-0.167
Mof_Co	Co	0.71568	0.10965	0.43477	1.077
Mof_W 	W 	0.04314	0.67341	0.1495	1.308
Mof_W 	W 	0.96942	0.70293	0.07603	0.996
Mof_W 	W 	0.92176	0.45086	0.08972	0.986
Mof_W 	W 	0.99412	0.25233	0.09121	0.995
Mof_W 	W 	0.11918	0.45187	0.15186	1.031
Mof_W 	W 	0.16096	0.5204	0.06495	1.27
Mof_W 	W 	0.08437	0.73592	0.06265	1.011
Mof_W 	W 	0.11776	0.28777	0.0764	1.254
Mof_W 	W 	0.99456	0.42202	0.16416	1.322
Mof_Co	Co	0.08652	0.4241	0.99528	1.146
Mof_Co	Co	0.02105	0.61394	0.99294	1.18
Mof_P 	P 	0.04103	0.4917	0.07352	0.555
Mof_O 	O 	0.0054	0.4308	0.0947	-0.397
Mof_O 	O 	0.089	0.4548	0.0852	-0.418
Mof_O 	O 	0.0339	0.4801	0.0314	-0.593
Mof_O 	O 	0.0366	0.6021	0.0856	-0.398
Mof_O 	O 	0.9945	0.2711	0.0417	-0.481
Mof_O 	O 	0.9328	0.3142	0.0915	-0.449
Mof_O 	O 	0.993	0.292	0.1441	-0.458
Mof_O 	O 	0.0594	0.2466	0.0941	-0.459
Mof_O 	O 	0.9382	0.5909	0.0943	-0.467
Mof_O 	O 	0.0981	0.3061	0.0302	-0.535
Mof_O 	O 	0.1488	0.1761	0.0745	-0.553
Mof_O 	O 	0.1287	0.3264	0.1302	-0.446
Mof_O 	O 	0.066	0.5396	0.9601	-0.613
Mof_O 	O 	0.0719	0.6856	0.0186	-0.502
Mof_O 	O 	0.1368	0.5067	0.0205	-0.54
Mof_O 	O 	0.0212	0.784	0.0644	-0.443
Mof_O 	O 	0.0793	0.7502	0.1181	-0.459
Mof_O 	O 	0.1328	0.6477	0.0735	-0.474
Mof_O 	O 	0.9699	0.6501	0.0292	-0.605
Mof_O 	O 	0.9903	0.7244	0.127	-0.456
Mof_O 	O 	0.0929	0.5837	0.155	-0.471
Mof_O 	O 	0.0595	0.4076	0.1649	-0.475
Mof_O 	O 	0.1636	0.5085	0.1208	-0.458
Mof_O 	O 	0.0442	0.745	0.1895	-0.562
Mof_O 	O 	0.9807	0.3989	0.2102	-0.556
Mof_O 	O 	0.9372	0.4482	0.1425	-0.451
Mof_O 	O 	0.1683	0.3761	0.0687	-0.5
Mof_O 	O 	0.0041	0.559	0.1629	-0.488
Mof_O 	O 	0.2177	0.5549	0.0579	-0.568
Mof_Co	Co	0.03013	0.82339	0.23851	1.117
Mof_C 	C 	0.2007	0.6891	0.3289	0.107
Mof_C 	C 	0.2298	0.6799	0.3861	0.101
Mof_C 	C 	0.2758	0.6888	0.3369	0.108
Mof_C 	C 	0.2225	0.6753	0.4272	0.069
Mof_C 	C 	0.3225	0.6939	0.3189	0.055
Mof_C 	C 	0.3265	0.7103	0.2815	-0.124
Mof_H 	H 	0.301	0.7222	0.2668	0.075
Mof_C 	C 	0.3607	0.6771	0.3405	-0.115
Mof_H 	H 	0.3586	0.67	0.3661	0.064
Mof_C 	C 	0.402	0.6712	0.3222	0.066
Mof_H 	H 	0.4275	0.6536	0.3361	0.035
Mof_C 	C 	0.8026	0.9274	0.1116	0.103
Mof_C 	C 	0.7704	0.9449	0.1675	0.113
Mof_C 	C 	0.8458	0.942	0.1615	0.102
Mof_C 	C 	0.8925	0.9409	0.1797	0.059
Mof_C 	C 	0.9299	0.9276	0.158	-0.128
Mof_H 	H 	0.9284	0.9321	0.1323	0.066
Mof_C 	C 	0.9711	0.9063	0.1768	0.065
Mof_H 	H 	0.997	0.8943	0.1626	-0.009
Mof_C 	C 	0.7977	0.9133	0.0707	0.059
Mof_C 	C 	0.7558	0.9066	0.0538	-0.132
Mof_H 	H 	0.7292	0.9115	0.0677	0.074
Mof_C 	C 	0.7287	0.9512	0.1918	0.05
Mof_C 	C 	0.6851	0.9443	0.1765	-0.105
Mof_H 	H 	0.6816	0.937	0.151	0.065
Mof_C 	C 	0.6476	0.9481	0.1987	0.054
Mof_H 	H 	0.6188	0.9446	0.188	0.026
Mof_C 	C 	0.9382	0.9247	0.2336	0.065
Mof_H 	H 	0.9405	0.9264	0.2593	-0.016
Mof_C 	C 	0.3693	0.7085	0.2666	0.068
Mof_H 	H 	0.3724	0.7213	0.2413	-0.003
Mof_C 	C 	0.1593	0.6965	0.3055	0.058
Mof_C 	C 	0.1158	0.6962	0.3216	-0.131
Mof_H 	H 	0.112	0.6814	0.3467	0.082
Mof_C 	C 	0.8951	0.9459	0.2172	-0.128
Mof_H 	H 	0.8698	0.9624	0.2316	0.071
Mof_C 	C 	0.0796	0.7178	0.2999	0.079
Mof_H 	H 	0.0508	0.7178	0.3106	-0.011
Mof_C 	C 	0.7328	0.9619	0.2296	-0.125
Mof_H 	H 	0.7613	0.9669	0.2407	0.07
Mof_C 	C 	0.754	0.8924	0.0163	0.076
Mof_H 	H 	0.7254	0.8842	0.0056	-0.006
Mof_C 	C 	0.1632	0.7089	0.268	-0.13
Mof_H 	H 	0.1914	0.7025	0.2564	0.075
Mof_C 	C 	0.1248	0.7309	0.2477	0.066
Mof_H 	H 	0.1276	0.7403	0.2222	-0.01
Mof_C 	C 	0.257	0.6464	0.4502	-0.142
Mof_H 	H 	0.2853	0.6293	0.4405	0.067
Mof_C 	C 	0.2496	0.643	0.4872	0.081
Mof_H 	H 	0.2736	0.6235	0.5024	-0.011
Mof_C 	C 	0.1809	0.6967	0.4428	-0.155
Mof_H 	H 	0.156	0.7137	0.4282	0.086
Mof_C 	C 	0.1775	0.6923	0.4801	0.09
Mof_H 	H 	0.1496	0.7095	0.4906	-0.014
Mof_C 	C 	0.8358	0.9079	0.0489	-0.139
Mof_H 	H 	0.8647	0.9137	0.0593	0.066
Mof_C 	C 	0.8302	0.8934	0.0107	0.068
Mof_H 	H 	0.8563	0.8859	0.9963	-0.021
Mof_C 	C 	0.6944	0.965	0.2504	0.068
Mof_H 	H 	0.6976	0.9731	0.2759	-0.007
Mof_N 	N 	0.9752	0.9026	0.214	-0.249
Mof_N 	N 	0.7906	0.8896	0.9939	-0.252
Mof_N 	N 	0.764	0.9334	0.1315	-0.143
Mof_N 	N 	0.8441	0.9335	0.1249	-0.149
Mof_N 	N 	0.81	0.9517	0.1842	-0.145
Mof_N 	N 	0.1933	0.6815	0.3653	-0.143
Mof_N 	N 	0.2411	0.6941	0.3135	-0.144
Mof_N 	N 	0.2726	0.685	0.3735	-0.145
Mof_N 	N 	0.4078	0.6891	0.2865	-0.141
Mof_N 	N 	0.6515	0.9571	0.2365	-0.138
Mof_N 	N 	0.0829	0.7393	0.2637	-0.247
Mof_N 	N 	0.2107	0.6654	0.503	-0.168
Mof_Co	Co	0.78432	0.89035	0.93477	1.077
Mof_W 	W 	0.54314	0.82659	0.8505	1.308
Mof_W 	W 	0.46942	0.79707	0.92397	0.996
Mof_W 	W 	0.42176	0.04914	0.91028	0.985
Mof_W 	W 	0.49412	0.24767	0.90879	0.996
Mof_W 	W 	0.61918	0.04813	0.84814	1.028
Mof_W 	W 	0.66096	0.9796	0.93505	1.271
Mof_W 	W 	0.58437	0.76408	0.93735	1.011
Mof_W 	W 	0.61776	0.21223	0.9236	1.254
Mof_W 	W 	0.49456	0.07798	0.83584	1.322
Mof_Co	Co	0.58652	0.0759	0.00472	1.146
Mof_Co	Co	0.52105	0.88606	0.00706	1.181
Mof_P 	P 	0.54103	0.0083	0.92648	0.554
Mof_O 	O 	0.5054	0.0692	0.9053	-0.397
Mof_O 	O 	0.589	0.0452	0.9148	-0.418
Mof_O 	O 	0.5339	0.0199	0.9686	-0.594
Mof_O 	O 	0.5366	0.8979	0.9144	-0.397
Mof_O 	O 	0.4945	0.2289	0.9583	-0.481
Mof_O 	O 	0.4328	0.1858	0.9085	-0.448
Mof_O 	O 	0.493	0.208	0.8559	-0.458
Mof_O 	O 	0.5594	0.2534	0.9059	-0.46
Mof_O 	O 	0.4382	0.9091	0.9057	-0.466
Mof_O 	O 	0.5981	0.1939	0.9698	-0.535
Mof_O 	O 	0.6488	0.3239	0.9255	-0.554
Mof_O 	O 	0.6287	0.1736	0.8698	-0.446
Mof_O 	O 	0.566	0.9604	0.0399	-0.613
Mof_O 	O 	0.5719	0.8144	0.9814	-0.502
Mof_O 	O 	0.6368	0.9933	0.9795	-0.54
Mof_O 	O 	0.5212	0.716	0.9356	-0.443
Mof_O 	O 	0.5793	0.7498	0.8819	-0.458
Mof_O 	O 	0.6328	0.8523	0.9265	-0.474
Mof_O 	O 	0.4699	0.8499	0.9708	-0.605
Mof_O 	O 	0.4903	0.7756	0.873	-0.456
Mof_O 	O 	0.5929	0.9163	0.845	-0.47
Mof_O 	O 	0.5595	0.0924	0.8351	-0.476
Mof_O 	O 	0.6636	0.9915	0.8792	-0.456
Mof_O 	O 	0.5442	0.755	0.8105	-0.562
Mof_O 	O 	0.4807	0.1011	0.7898	-0.557
Mof_O 	O 	0.4372	0.0518	0.8575	-0.451
Mof_O 	O 	0.6683	0.1239	0.9313	-0.501
Mof_O 	O 	0.5041	0.941	0.8371	-0.487
Mof_O 	O 	0.7177	0.9451	0.9421	-0.568
Mof_Co	Co	0.53013	0.67661	0.76149	1.117
Mof_C 	C 	0.7007	0.8109	0.6711	0.108
Mof_C 	C 	0.7298	0.8201	0.6139	0.101
Mof_C 	C 	0.7758	0.8112	0.6631	0.108
Mof_C 	C 	0.7225	0.8247	0.5728	0.069
Mof_C 	C 	0.8225	0.8061	0.6811	0.055
Mof_C 	C 	0.8265	0.7897	0.7185	-0.123
Mof_H 	H 	0.801	0.7778	0.7332	0.075
Mof_C 	C 	0.8607	0.8229	0.6595	-0.115
Mof_H 	H 	0.8586	0.83	0.6339	0.064
Mof_C 	C 	0.902	0.8288	0.6778	0.066
Mof_H 	H 	0.9275	0.8464	0.6639	0.035
Mof_C 	C 	0.3026	0.5726	0.8884	0.103
Mof_C 	C 	0.2704	0.5551	0.8325	0.114
Mof_C 	C 	0.3458	0.558	0.8385	0.102
Mof_C 	C 	0.3925	0.5591	0.8203	0.059
Mof_C 	C 	0.4299	0.5724	0.842	-0.128
Mof_H 	H 	0.4284	0.5679	0.8677	0.066
Mof_C 	C 	0.4711	0.5937	0.8232	0.065
Mof_H 	H 	0.497	0.6057	0.8374	-0.009
Mof_C 	C 	0.2977	0.5867	0.9293	0.06
Mof_C 	C 	0.2558	0.5934	0.9462	-0.133
Mof_H 	H 	0.2292	0.5885	0.9323	0.075
Mof_C 	C 	0.2287	0.5488	0.8082	0.05
Mof_C 	C 	0.1851	0.5557	0.8235	-0.105
Mof_H 	H 	0.1816	0.563	0.849	0.065
Mof_C 	C 	0.1476	0.5519	0.8013	0.054
Mof_H 	H 	0.1188	0.5554	0.812	0.026
Mof_C 	C 	0.4382	0.5753	0.7664	0.065
Mof_H 	H 	0.4405	0.5736	0.7407	-0.016
Mof_C 	C 	0.8693	0.7915	0.7334	0.069
Mof_H 	H 	0.8724	0.7787	0.7587	-0.002
Mof_C 	C 	0.6593	0.8035	0.6945	0.058
Mof_C 	C 	0.6158	0.8038	0.6784	-0.131
Mof_H 	H 	0.612	0.8186	0.6533	0.083
Mof_C 	C 	0.3951	0.5541	0.7828	-0.129
Mof_H 	H 	0.3698	0.5376	0.7684	0.071
Mof_C 	C 	0.5796	0.7822	0.7001	0.079
Mof_H 	H 	0.5508	0.7822	0.6894	-0.011
Mof_C 	C 	0.2328	0.5381	0.7704	-0.125
Mof_H 	H 	0.2613	0.5331	0.7593	0.071
Mof_C 	C 	0.254	0.6076	0.9837	0.076
Mof_H 	H 	0.2254	0.6158	0.9944	-0.006
Mof_C 	C 	0.6632	0.7911	0.732	-0.13
Mof_H 	H 	0.6914	0.7975	0.7436	0.076
Mof_C 	C 	0.6248	0.7691	0.7523	0.066
Mof_H 	H 	0.6276	0.7597	0.7778	-0.01
Mof_C 	C 	0.757	0.8536	0.5498	-0.142
Mof_H 	H 	0.7853	0.8707	0.5595	0.067
Mof_C 	C 	0.7496	0.857	0.5128	0.081
Mof_H 	H 	0.7736	0.8765	0.4976	-0.011
Mof_C 	C 	0.6809	0.8033	0.5572	-0.155
Mof_H 	H 	0.656	0.7863	0.5718	0.086
Mof_C 	C 	0.6775	0.8077	0.5199	0.09
Mof_H 	H 	0.6496	0.7905	0.5094	-0.015
Mof_C 	C 	0.3358	0.5921	0.9511	-0.14
Mof_H 	H 	0.3647	0.5863	0.9407	0.067
Mof_C 	C 	0.3302	0.6066	0.9893	0.07
Mof_H 	H 	0.3563	0.6141	0.0037	-0.022
Mof_C 	C 	0.1944	0.535	0.7496	0.068
Mof_H 	H 	0.1976	0.5269	0.7241	-0.007
Mof_N 	N 	0.4752	0.5974	0.786	-0.25
Mof_N 	N 	0.2906	0.6104	0.0061	-0.253
Mof_N 	N 	0.264	0.5666	0.8685	-0.143
Mof_N 	N 	0.3441	0.5665	0.8751	-0.149
Mof_N 	N 	0.31	0.5483	0.8158	-0.145
Mof_N 	N 	0.6933	0.8185	0.6347	-0.143
Mof_N 	N 	0.7411	0.8059	0.6865	-0.144
Mof_N 	N 	0.7726	0.815	0.6265	-0.145
Mof_N 	N 	0.9078	0.8109	0.7135	-0.141
Mof_N 	N 	0.1515	0.5429	0.7635	-0.138
Mof_N 	N 	0.5829	0.7607	0.7363	-0.247
Mof_N 	N 	0.7107	0.8346	0.497	-0.168
Mof_Co	Co	0.28432	0.60965	0.06523	1.077
Mof_W 	W 	0.95686	0.17341	0.3505	1.307
Mof_W 	W 	0.03058	0.20293	0.42397	0.997
Mof_W 	W 	0.07824	0.95086	0.41028	0.984
Mof_W 	W 	0.00588	0.75233	0.40879	0.996
Mof_W 	W 	0.88082	0.95187	0.34814	1.03
Mof_W 	W 	0.83904	0.0204	0.43505	1.27
Mof_W 	W 	0.91563	0.23592	0.43735	1.011
Mof_W 	W 	0.88224	0.78777	0.4236	1.254
Mof_W 	W 	0.00544	0.92202	0.33584	1.321
Mof_Co	Co	0.91348	0.9241	0.50472	1.146
Mof_Co	Co	0.97895	0.11394	0.50706	1.18
Mof_P 	P 	0.95897	0.9917	0.42648	0.555
Mof_O 	O 	0.9946	0.9308	0.4053	-0.397
Mof_O 	O 	0.911	0.9548	0.4148	-0.418
Mof_O 	O 	0.9661	0.9801	0.4686	-0.593
Mof_O 	O 	0.9634	0.1021	0.4144	-0.398
Mof_O 	O 	0.0055	0.7711	0.4583	-0.481
Mof_O 	O 	0.0672	0.8142	0.4085	-0.448
Mof_O 	O 	0.007	0.792	0.3559	-0.458
Mof_O 	O 	0.9406	0.7466	0.4059	-0.459
Mof_O 	O 	0.0618	0.0909	0.4057	-0.465
Mof_O 	O 	0.9019	0.8061	0.4698	-0.535
Mof_O 	O 	0.8512	0.6761	0.4255	-0.554
Mof_O 	O 	0.8713	0.8264	0.3698	-0.446
Mof_O 	O 	0.934	0.0396	0.5399	-0.613
Mof_O 	O 	0.9281	0.1856	0.4814	-0.502
Mof_O 	O 	0.8632	0.0067	0.4795	-0.54
Mof_O 	O 	0.9788	0.284	0.4356	-0.444
Mof_O 	O 	0.9207	0.2502	0.3819	-0.458
Mof_O 	O 	0.8672	0.1477	0.4265	-0.474
Mof_O 	O 	0.0301	0.1501	0.4708	-0.604
Mof_O 	O 	0.0097	0.2244	0.373	-0.455
Mof_O 	O 	0.9071	0.0837	0.345	-0.47
Mof_O 	O 	0.9405	0.9076	0.3351	-0.475
Mof_O 	O 	0.8364	0.0085	0.3792	-0.457
Mof_O 	O 	0.9558	0.245	0.3105	-0.562
Mof_O 	O 	0.0193	0.8989	0.2898	-0.557
Mof_O 	O 	0.0628	0.9482	0.3575	-0.451
Mof_O 	O 	0.8317	0.8761	0.4313	-0.5
Mof_O 	O 	0.9959	0.059	0.3371	-0.488
Mof_O 	O 	0.7823	0.0549	0.4421	-0.568
Mof_Co	Co	0.96987	0.32339	0.26149	1.117
Mof_C 	C 	0.7993	0.1891	0.1711	0.107
Mof_C 	C 	0.7702	0.1799	0.1139	0.101
Mof_C 	C 	0.7242	0.1888	0.1631	0.108
Mof_C 	C 	0.7775	0.1753	0.0728	0.069
Mof_C 	C 	0.6775	0.1939	0.1811	0.055
Mof_C 	C 	0.6735	0.2103	0.2185	-0.123
Mof_H 	H 	0.699	0.2222	0.2332	0.075
Mof_C 	C 	0.6393	0.1771	0.1595	-0.115
Mof_H 	H 	0.6414	0.17	0.1339	0.064
Mof_C 	C 	0.598	0.1712	0.1778	0.066
Mof_H 	H 	0.5725	0.1536	0.1639	0.035
Mof_C 	C 	0.1974	0.4274	0.3884	0.103
Mof_C 	C 	0.2296	0.4449	0.3325	0.114
Mof_C 	C 	0.1542	0.442	0.3385	0.102
Mof_C 	C 	0.1075	0.4409	0.3203	0.059
Mof_C 	C 	0.0701	0.4276	0.342	-0.128
Mof_H 	H 	0.0716	0.4321	0.3677	0.066
Mof_C 	C 	0.0289	0.4063	0.3232	0.065
Mof_H 	H 	0.003	0.3943	0.3374	-0.008
Mof_C 	C 	0.2023	0.4133	0.4293	0.06
Mof_C 	C 	0.2442	0.4066	0.4462	-0.133
Mof_H 	H 	0.2708	0.4115	0.4323	0.075
Mof_C 	C 	0.2713	0.4512	0.3082	0.05
Mof_C 	C 	0.3149	0.4443	0.3235	-0.105
Mof_H 	H 	0.3184	0.437	0.349	0.065
Mof_C 	C 	0.3524	0.4481	0.3013	0.054
Mof_H 	H 	0.3812	0.4446	0.312	0.026
Mof_C 	C 	0.0618	0.4247	0.2664	0.065
Mof_H 	H 	0.0595	0.4264	0.2407	-0.016
Mof_C 	C 	0.6307	0.2085	0.2334	0.068
Mof_H 	H 	0.6276	0.2213	0.2587	-0.003
Mof_C 	C 	0.8407	0.1965	0.1945	0.058
Mof_C 	C 	0.8842	0.1962	0.1784	-0.131
Mof_H 	H 	0.888	0.1814	0.1533	0.082
Mof_C 	C 	0.1049	0.4459	0.2828	-0.128
Mof_H 	H 	0.1302	0.4624	0.2684	0.071
Mof_C 	C 	0.9204	0.2178	0.2001	0.079
Mof_H 	H 	0.9492	0.2178	0.1894	-0.011
Mof_C 	C 	0.2672	0.4619	0.2704	-0.125
Mof_H 	H 	0.2387	0.4669	0.2593	0.071
Mof_C 	C 	0.246	0.3924	0.4837	0.077
Mof_H 	H 	0.2746	0.3842	0.4944	-0.006
Mof_C 	C 	0.8368	0.2089	0.232	-0.13
Mof_H 	H 	0.8086	0.2025	0.2436	0.075
Mof_C 	C 	0.8752	0.2309	0.2523	0.066
Mof_H 	H 	0.8724	0.2403	0.2778	-0.01
Mof_C 	C 	0.743	0.1464	0.0498	-0.141
Mof_H 	H 	0.7147	0.1293	0.0595	0.067
Mof_C 	C 	0.7504	0.143	0.0128	0.079
Mof_H 	H 	0.7264	0.1235	0.9976	-0.011
Mof_C 	C 	0.8191	0.1967	0.0572	-0.155
Mof_H 	H 	0.844	0.2137	0.0718	0.086
Mof_C 	C 	0.8225	0.1923	0.0199	0.089
Mof_H 	H 	0.8504	0.2095	0.0094	-0.014
Mof_C 	C 	0.1642	0.4079	0.4511	-0.141
Mof_H 	H 	0.1353	0.4137	0.4407	0.067
Mof_C 	C 	0.1698	0.3934	0.4893	0.071
Mof_H 	H 	0.1437	0.3859	0.5037	-0.022
Mof_C 	C 	0.3056	0.465	0.2496	0.068
Mof_H 	H 	0.3024	0.4731	0.2241	-0.007
Mof_N 	N 	0.0248	0.4026	0.286	-0.249
Mof_N 	N 	0.2094	0.3896	0.5061	-0.254
Mof_N 	N 	0.236	0.4334	0.3685	-0.143
Mof_N 	N 	0.1559	0.4335	0.3751	-0.149
Mof_N 	N 	0.19	0.4517	0.3158	-0.145
Mof_N 	N 	0.8067	0.1815	0.1347	-0.143
Mof_N 	N 	0.7589	0.1941	0.1865	-0.144
Mof_N 	N 	0.7274	0.185	0.1265	-0.145
Mof_N 	N 	0.5922	0.1891	0.2135	-0.141
Mof_N 	N 	0.3485	0.4571	0.2635	-0.138
Mof_N 	N 	0.9171	0.2393	0.2363	-0.247
Mof_N 	N 	0.7893	0.1654	0.997	-0.167
Mof_Co	Co	0.21568	0.39035	0.56523	1.077
_end
