data_functionalizedCrystal
_audit_creation_method	'EQeq! by Chris Wilmer'
_symmetry_space_group_name_H-M	'P1'
_symmetry_Int_Tables_number	1
_symmetry_cell_setting	triclinic
loop_
_symmetry_equiv_pos_as_xyz
  x,y,z
_cell_length_a	8.242
_cell_length_b	11.259
_cell_length_c	12.8981
_cell_angle_alpha	104.239
_cell_angle_beta	108.633
_cell_angle_gamma	90
loop_
_atom_site_label
_atom_site_type_symbol
_atom_site_fract_x
_atom_site_fract_y
_atom_site_fract_z
_atom_site_charge
Mof_Ni	Ni	0.49144	0.43674	0.3713	1.088
Mof_Ni	Ni	0.12014	0.56326	0.6287	1.088
Mof_H 	H 	0.9985	0.7007	0.3568	0.068
Mof_H 	H 	0.9264	0.7879	0.2052	0.002
Mof_H 	H 	0.7075	0.6933	0.0398	0.142
Mof_H 	H 	0.3203	0.598	0.2234	0.006
Mof_H 	H 	0.3142	0.7956	0.2168	0.091
Mof_H 	H 	0.6618	0.8895	0.5286	0.081
Mof_H 	H 	0.6485	0.6894	0.529	-0.01
Mof_H 	H 	0.7362	0.2553	0.464	0.01
Mof_H 	H 	0.739	0.0542	0.4696	0.075
Mof_H 	H 	0.2531	0.993	0.2618	0.074
Mof_H 	H 	0.2646	0.197	0.2582	0.003
Mof_H 	H 	0.6417	0.2993	0.6432	0.068
Mof_H 	H 	0.7212	0.2121	0.7948	0.006
Mof_H 	H 	0.6677	0.3067	0.9602	0.123
Mof_H 	H 	0.0969	0.402	0.7766	0.001
Mof_H 	H 	0.0974	0.2044	0.7832	0.088
Mof_H 	H 	0.1332	0.1105	0.4714	0.086
Mof_H 	H 	0.1195	0.3106	0.471	-0.007
Mof_H 	H 	0.2722	0.7447	0.536	0.013
Mof_H 	H 	0.2694	0.9458	0.5304	0.076
Mof_H 	H 	0.9913	0.007	0.7382	0.056
Mof_H 	H 	0.0064	0.803	0.7418	0.003
Mof_C 	C 	0.6432	0.5553	0.0966	0.234
Mof_C 	C 	0.6839	0.5003	0.1886	-0.146
Mof_C 	C 	0.8163	0.5588	0.287	-0.016
Mof_C 	C 	0.9076	0.6641	0.2914	-0.1
Mof_C 	C 	0.8659	0.7158	0.2002	0.084
Mof_C 	C 	0.7343	0.6602	0.1018	-0.218
Mof_C 	C 	0.5854	0.3827	0.1776	0.331
Mof_C 	C 	0.8604	0.5096	0.3912	0.336
Mof_C 	C 	0.3898	0.6575	0.2858	0.084
Mof_C 	C 	0.3879	0.7756	0.2802	-0.14
Mof_C 	C 	0.4964	0.8688	0.3696	0.065
Mof_C 	C 	0.592	0.8319	0.4648	-0.15
Mof_C 	C 	0.583	0.7112	0.4642	0.094
Mof_C 	C 	0.637	0.203	0.423	0.081
Mof_C 	C 	0.6393	0.0807	0.4264	-0.126
Mof_C 	C 	0.5006	0.999	0.3684	0.046
Mof_C 	C 	0.3529	0.0444	0.3034	-0.114
Mof_C 	C 	0.3607	0.1683	0.303	0.068
Mof_C 	C 	0.5466	0.4447	0.9034	0.205
Mof_C 	C 	0.4953	0.4997	0.8114	-0.14
Mof_C 	C 	0.5293	0.4412	0.713	-0.026
Mof_C 	C 	0.6162	0.3359	0.7086	-0.089
Mof_C 	C 	0.6657	0.2842	0.7998	0.068
Mof_C 	C 	0.6325	0.3398	0.8982	-0.203
Mof_C 	C 	0.4078	0.6173	0.8224	0.327
Mof_C 	C 	0.4692	0.4904	0.6088	0.351
Mof_C 	C 	0.104	0.3425	0.7142	0.086
Mof_C 	C 	0.1077	0.2244	0.7198	-0.141
Mof_C 	C 	0.1268	0.1312	0.6304	0.069
Mof_C 	C 	0.1272	0.1681	0.5352	-0.15
Mof_C 	C 	0.1188	0.2888	0.5358	0.097
Mof_C 	C 	0.214	0.797	0.577	0.08
Mof_C 	C 	0.2129	0.9193	0.5736	-0.125
Mof_C 	C 	0.1322	0.001	0.6316	0.043
Mof_C 	C 	0.0495	0.9556	0.6966	-0.097
Mof_C 	C 	0.0577	0.8317	0.697	0.06
Mof_N 	N 	0.48602	0.6207	0.37624	-0.241
Mof_N 	N 	0.49931	0.2489	0.36402	-0.221
Mof_N 	N 	0.10978	0.3793	0.62376	-0.241
Mof_N 	N 	0.13529	0.7511	0.63598	-0.219
Mof_O 	O 	0.44471	0.3861	0.19722	-0.378
Mof_O 	O 	0.64405	0.2844	0.1389	-0.236
Mof_O 	O 	0.75352	0.448	0.40824	-0.42
Mof_O 	O 	0.01337	0.5376	0.45694	-0.4
Mof_O 	O 	0.24749	0.6139	0.80278	-0.383
Mof_O 	O 	0.50515	0.7156	0.8611	-0.249
Mof_O 	O 	0.34528	0.552	0.59176	-0.422
Mof_O 	O 	0.55643	0.4624	0.54306	-0.413
Mof_O 	O 	0.5036	0.5	-0	-0.236
_end
