data_functionalizedCrystal
_audit_creation_method	'EQeq! by Chris Wilmer'
_symmetry_space_group_name_H-M	'P1'
_symmetry_Int_Tables_number	1
_symmetry_cell_setting	triclinic
loop_
_symmetry_equiv_pos_as_xyz
  x,y,z
_cell_length_a	9.75
_cell_length_b	9.88
_cell_length_c	9.88
_cell_angle_alpha	90.36
_cell_angle_beta	92.73
_cell_angle_gamma	117.33
loop_
_atom_site_label
_atom_site_type_symbol
_atom_site_fract_x
_atom_site_fract_y
_atom_site_fract_z
_atom_site_charge
Mof_Cd	Cd	0.44337	0.27475	0.97813	0.439
Mof_O 	O 	0.4176	0.2215	0.7514	-0.269
Mof_O 	O 	0.5644	0.1366	0.8579	-0.269
Mof_O 	O 	0.6397	0.5239	0.9209	-0.281
Mof_O 	O 	0.7898	0.723	0.0519	-0.267
Mof_N 	N 	0.5921	0.3235	0.1754	-0.157
Mof_C 	C 	0.4949	0.1493	0.7523	0.286
Mof_C 	C 	0.5016	0.0747	0.621	-0.057
Mof_C 	C 	0.4021	0.0647	0.5118	-0.012
Mof_C 	C 	0.5989	0.0092	0.6082	-0.028
Mof_C 	C 	0.7653	0.6028	0.9881	0.291
Mof_C 	C 	0.889	0.5517	0.9931	-0.056
Mof_C 	C 	0.8803	0.4415	0.9011	-0.014
Mof_C 	C 	0.99	0.3892	0.9075	-0.026
Mof_C 	C 	0.6059	0.4284	0.2691	0.084
Mof_C 	C 	0.7092	0.4675	0.3818	-0.149
Mof_C 	C 	0.8017	0.3969	0.4005	0.127
Mof_C 	C 	0.7868	0.2883	0.3048	-0.167
Mof_C 	C 	0.6821	0.2547	0.1942	0.093
Mof_C 	C 	0.9193	0.44	0.5196	-0.145
Mof_H 	H 	0.3277	0.1123	0.5178	0.047
Mof_H 	H 	0.6623	0.0127	0.6872	0.052
Mof_H 	H 	0.7931	0.4	0.8297	0.051
Mof_H 	H 	0.9969	0.3264	0.8396	0.057
Mof_H 	H 	0.5429	0.4781	0.2579	0.028
Mof_H 	H 	0.702	0.5427	0.4433	0.085
Mof_H 	H 	0.8448	0.2335	0.3067	0.093
Mof_H 	H 	0.6737	0.1798	0.1292	0.017
Mof_H 	H 	0.9346	0.3415	0.5427	0.068
Mof_H 	H 	0.894	0.4914	0.5925	0.077
Mof_Cd	Cd	0.55663	0.72525	0.02187	0.44
Mof_O 	O 	0.5824	0.7785	0.2486	-0.268
Mof_O 	O 	0.4356	0.8634	0.1421	-0.268
Mof_O 	O 	0.3603	0.4761	0.0791	-0.28
Mof_O 	O 	0.2102	0.277	0.9481	-0.267
Mof_N 	N 	0.4079	0.6765	0.8246	-0.157
Mof_C 	C 	0.5051	0.8507	0.2477	0.286
Mof_C 	C 	0.4984	0.9253	0.379	-0.057
Mof_C 	C 	0.5979	0.9353	0.4882	-0.012
Mof_C 	C 	0.4011	0.9908	0.3918	-0.028
Mof_C 	C 	0.2347	0.3972	0.0119	0.291
Mof_C 	C 	0.111	0.4483	0.0069	-0.056
Mof_C 	C 	0.1197	0.5585	0.0989	-0.014
Mof_C 	C 	0.01	0.6108	0.0925	-0.026
Mof_C 	C 	0.3941	0.5716	0.7309	0.084
Mof_C 	C 	0.2908	0.5325	0.6182	-0.149
Mof_C 	C 	0.1983	0.6031	0.5995	0.127
Mof_C 	C 	0.2132	0.7117	0.6952	-0.167
Mof_C 	C 	0.3179	0.7453	0.8058	0.093
Mof_C 	C 	0.0807	0.56	0.4804	-0.145
Mof_H 	H 	0.6723	0.8877	0.4822	0.047
Mof_H 	H 	0.3377	0.9873	0.3128	0.052
Mof_H 	H 	0.2069	0.6	0.1703	0.051
Mof_H 	H 	0.0031	0.6736	0.1604	0.057
Mof_H 	H 	0.4571	0.5219	0.7421	0.028
Mof_H 	H 	0.298	0.4573	0.5567	0.085
Mof_H 	H 	0.1552	0.7665	0.6933	0.093
Mof_H 	H 	0.3263	0.8202	0.8708	0.017
Mof_H 	H 	0.0654	0.6585	0.4573	0.068
Mof_H 	H 	0.106	0.5086	0.4075	0.077
_end
