data_functionalizedCrystal
_audit_creation_method	'EQeq! by Chris Wilmer'
_symmetry_space_group_name_H-M	'P1'
_symmetry_Int_Tables_number	1
_symmetry_cell_setting	triclinic
loop_
_symmetry_equiv_pos_as_xyz
  x,y,z
_cell_length_a	25.7718
_cell_length_b	25.7718
_cell_length_c	25.7718
_cell_angle_alpha	90
_cell_angle_beta	90
_cell_angle_gamma	90
loop_
_atom_site_label
_atom_site_type_symbol
_atom_site_fract_x
_atom_site_fract_y
_atom_site_fract_z
_atom_site_charge
Mof_C 	C 	0.2099	0.2355	0.0263	0.075
Mof_Br	Br	0.1364	0.2142	0.0516	-0.075
Mof_C 	C 	0.2099	0.7355	0.5263	0.075
Mof_Br	Br	0.1364	0.7142	0.5516	-0.075
Mof_C 	C 	0.7099	0.2355	0.5263	0.075
Mof_Br	Br	0.6364	0.2142	0.5516	-0.075
Mof_C 	C 	0.7099	0.7355	0.0263	0.075
Mof_Br	Br	0.6364	0.7142	0.0516	-0.075
Mof_C 	C 	0.7901	0.7645	0.0263	0.075
Mof_Br	Br	0.8636	0.7858	0.0516	-0.075
Mof_C 	C 	0.7901	0.2645	0.5263	0.075
Mof_Br	Br	0.8636	0.2858	0.5516	-0.075
Mof_C 	C 	0.2901	0.7645	0.5263	0.075
Mof_Br	Br	0.3636	0.7858	0.5516	-0.075
Mof_C 	C 	0.2901	0.2645	0.0263	0.075
Mof_Br	Br	0.3636	0.2858	0.0516	-0.075
Mof_C 	C 	0.7901	0.2355	0.9737	0.075
Mof_Br	Br	0.8636	0.2142	0.9484	-0.075
Mof_C 	C 	0.7901	0.7355	0.4737	0.075
Mof_Br	Br	0.8636	0.7142	0.4484	-0.075
Mof_C 	C 	0.2901	0.2355	0.4737	0.075
Mof_Br	Br	0.3636	0.2142	0.4484	-0.075
Mof_C 	C 	0.2901	0.7355	0.9737	0.075
Mof_Br	Br	0.3636	0.7142	0.9484	-0.075
Mof_C 	C 	0.2099	0.7645	0.9737	0.075
Mof_Br	Br	0.1364	0.7858	0.9484	-0.075
Mof_C 	C 	0.2099	0.2645	0.4737	0.075
Mof_Br	Br	0.1364	0.2858	0.4484	-0.075
Mof_C 	C 	0.7099	0.7645	0.4737	0.075
Mof_Br	Br	0.6364	0.7858	0.4484	-0.075
Mof_C 	C 	0.7099	0.2645	0.9737	0.075
Mof_Br	Br	0.6364	0.2858	0.9484	-0.075
Mof_C 	C 	0.0263	0.2099	0.2355	0.075
Mof_Br	Br	0.0516	0.1364	0.2142	-0.075
Mof_C 	C 	0.0263	0.7099	0.7355	0.075
Mof_Br	Br	0.0516	0.6364	0.7142	-0.075
Mof_C 	C 	0.5263	0.2099	0.7355	0.075
Mof_Br	Br	0.5516	0.1364	0.7142	-0.075
Mof_C 	C 	0.5263	0.7099	0.2355	0.075
Mof_Br	Br	0.5516	0.6364	0.2142	-0.075
Mof_C 	C 	0.0263	0.7901	0.7645	0.075
Mof_Br	Br	0.0516	0.8636	0.7858	-0.075
Mof_C 	C 	0.0263	0.2901	0.2645	0.075
Mof_Br	Br	0.0516	0.3636	0.2858	-0.075
Mof_C 	C 	0.5263	0.7901	0.2645	0.075
Mof_Br	Br	0.5516	0.8636	0.2858	-0.075
Mof_C 	C 	0.5263	0.2901	0.7645	0.075
Mof_Br	Br	0.5516	0.3636	0.7858	-0.075
Mof_C 	C 	0.9737	0.7901	0.2355	0.075
Mof_Br	Br	0.9484	0.8636	0.2142	-0.075
Mof_C 	C 	0.9737	0.2901	0.7355	0.075
Mof_Br	Br	0.9484	0.3636	0.7142	-0.075
Mof_C 	C 	0.4737	0.7901	0.7355	0.075
Mof_Br	Br	0.4484	0.8636	0.7142	-0.075
Mof_C 	C 	0.4737	0.2901	0.2355	0.075
Mof_Br	Br	0.4484	0.3636	0.2142	-0.075
Mof_C 	C 	0.9737	0.2099	0.7645	0.075
Mof_Br	Br	0.9484	0.1364	0.7858	-0.075
Mof_C 	C 	0.9737	0.7099	0.2645	0.075
Mof_Br	Br	0.9484	0.6364	0.2858	-0.075
Mof_C 	C 	0.4737	0.2099	0.2645	0.075
Mof_Br	Br	0.4484	0.1364	0.2858	-0.075
Mof_C 	C 	0.4737	0.7099	0.7645	0.075
Mof_Br	Br	0.4484	0.6364	0.7858	-0.075
Mof_C 	C 	0.2355	0.0263	0.2099	0.075
Mof_Br	Br	0.2142	0.0516	0.1364	-0.075
Mof_C 	C 	0.2355	0.5263	0.7099	0.075
Mof_Br	Br	0.2142	0.5516	0.6364	-0.075
Mof_C 	C 	0.7355	0.0263	0.7099	0.075
Mof_Br	Br	0.7142	0.0516	0.6364	-0.075
Mof_C 	C 	0.7355	0.5263	0.2099	0.075
Mof_Br	Br	0.7142	0.5516	0.1364	-0.075
Mof_C 	C 	0.7645	0.0263	0.7901	0.075
Mof_Br	Br	0.7858	0.0516	0.8636	-0.075
Mof_C 	C 	0.7645	0.5263	0.2901	0.075
Mof_Br	Br	0.7858	0.5516	0.3636	-0.075
Mof_C 	C 	0.2645	0.0263	0.2901	0.075
Mof_Br	Br	0.2858	0.0516	0.3636	-0.075
Mof_C 	C 	0.2645	0.5263	0.7901	0.075
Mof_Br	Br	0.2858	0.5516	0.8636	-0.075
Mof_C 	C 	0.2355	0.9737	0.7901	0.075
Mof_Br	Br	0.2142	0.9484	0.8636	-0.075
Mof_C 	C 	0.2355	0.4737	0.2901	0.075
Mof_Br	Br	0.2142	0.4484	0.3636	-0.075
Mof_C 	C 	0.7355	0.9737	0.2901	0.075
Mof_Br	Br	0.7142	0.9484	0.3636	-0.075
Mof_C 	C 	0.7355	0.4737	0.7901	0.075
Mof_Br	Br	0.7142	0.4484	0.8636	-0.075
Mof_C 	C 	0.7645	0.9737	0.2099	0.075
Mof_Br	Br	0.7858	0.9484	0.1364	-0.075
Mof_C 	C 	0.7645	0.4737	0.7099	0.075
Mof_Br	Br	0.7858	0.4484	0.6364	-0.075
Mof_C 	C 	0.2645	0.9737	0.7099	0.075
Mof_Br	Br	0.2858	0.9484	0.6364	-0.075
Mof_C 	C 	0.2645	0.4737	0.2099	0.075
Mof_Br	Br	0.2858	0.4484	0.1364	-0.075
Mof_C 	C 	0.2355	0.2099	0.9737	0.075
Mof_Br	Br	0.2142	0.1364	0.9484	-0.075
Mof_C 	C 	0.2355	0.7099	0.4737	0.075
Mof_Br	Br	0.2142	0.6364	0.4484	-0.075
Mof_C 	C 	0.7355	0.2099	0.4737	0.075
Mof_Br	Br	0.7142	0.1364	0.4484	-0.075
Mof_C 	C 	0.7355	0.7099	0.9737	0.075
Mof_Br	Br	0.7142	0.6364	0.9484	-0.075
Mof_C 	C 	0.7645	0.7901	0.9737	0.075
Mof_Br	Br	0.7858	0.8636	0.9484	-0.075
Mof_C 	C 	0.7645	0.2901	0.4737	0.075
Mof_Br	Br	0.7858	0.3636	0.4484	-0.075
Mof_C 	C 	0.2645	0.7901	0.4737	0.075
Mof_Br	Br	0.2858	0.8636	0.4484	-0.075
Mof_C 	C 	0.2645	0.2901	0.9737	0.075
Mof_Br	Br	0.2858	0.3636	0.9484	-0.075
Mof_C 	C 	0.2355	0.7901	0.0263	0.075
Mof_Br	Br	0.2142	0.8636	0.0516	-0.075
Mof_C 	C 	0.2355	0.2901	0.5263	0.075
Mof_Br	Br	0.2142	0.3636	0.5516	-0.075
Mof_C 	C 	0.7355	0.7901	0.5263	0.075
Mof_Br	Br	0.7142	0.8636	0.5516	-0.075
Mof_C 	C 	0.7355	0.2901	0.0263	0.075
Mof_Br	Br	0.7142	0.3636	0.0516	-0.075
Mof_C 	C 	0.7645	0.2099	0.0263	0.075
Mof_Br	Br	0.7858	0.1364	0.0516	-0.075
Mof_C 	C 	0.7645	0.7099	0.5263	0.075
Mof_Br	Br	0.7858	0.6364	0.5516	-0.075
Mof_C 	C 	0.2645	0.2099	0.5263	0.075
Mof_Br	Br	0.2858	0.1364	0.5516	-0.075
Mof_C 	C 	0.2645	0.7099	0.0263	0.075
Mof_Br	Br	0.2858	0.6364	0.0516	-0.075
Mof_C 	C 	0.2099	0.0263	0.7645	0.075
Mof_Br	Br	0.1364	0.0516	0.7858	-0.075
Mof_C 	C 	0.2099	0.5263	0.2645	0.075
Mof_Br	Br	0.1364	0.5516	0.2858	-0.075
Mof_C 	C 	0.7099	0.0263	0.2645	0.075
Mof_Br	Br	0.6364	0.0516	0.2858	-0.075
Mof_C 	C 	0.7099	0.5263	0.7645	0.075
Mof_Br	Br	0.6364	0.5516	0.7858	-0.075
Mof_C 	C 	0.7901	0.0263	0.2355	0.075
Mof_Br	Br	0.8636	0.0516	0.2142	-0.075
Mof_C 	C 	0.7901	0.5263	0.7355	0.075
Mof_Br	Br	0.8636	0.5516	0.7142	-0.075
Mof_C 	C 	0.2901	0.0263	0.7355	0.075
Mof_Br	Br	0.3636	0.0516	0.7142	-0.075
Mof_C 	C 	0.2901	0.5263	0.2355	0.075
Mof_Br	Br	0.3636	0.5516	0.2142	-0.075
Mof_C 	C 	0.7901	0.9737	0.7645	0.075
Mof_Br	Br	0.8636	0.9484	0.7858	-0.075
Mof_C 	C 	0.7901	0.4737	0.2645	0.075
Mof_Br	Br	0.8636	0.4484	0.2858	-0.075
Mof_C 	C 	0.2901	0.9737	0.2645	0.075
Mof_Br	Br	0.3636	0.9484	0.2858	-0.075
Mof_C 	C 	0.2901	0.4737	0.7645	0.075
Mof_Br	Br	0.3636	0.4484	0.7858	-0.075
Mof_C 	C 	0.2099	0.9737	0.2355	0.075
Mof_Br	Br	0.1364	0.9484	0.2142	-0.075
Mof_C 	C 	0.2099	0.4737	0.7355	0.075
Mof_Br	Br	0.1364	0.4484	0.7142	-0.075
Mof_C 	C 	0.7099	0.9737	0.7355	0.075
Mof_Br	Br	0.6364	0.9484	0.7142	-0.075
Mof_C 	C 	0.7099	0.4737	0.2355	0.075
Mof_Br	Br	0.6364	0.4484	0.2142	-0.075
Mof_C 	C 	0.0263	0.2355	0.7901	0.076
Mof_Br	Br	0.0516	0.2142	0.8636	-0.074
Mof_C 	C 	0.0263	0.7355	0.2901	0.076
Mof_Br	Br	0.0516	0.7142	0.3636	-0.074
Mof_C 	C 	0.5263	0.2355	0.2901	0.076
Mof_Br	Br	0.5516	0.2142	0.3636	-0.074
Mof_C 	C 	0.5263	0.7355	0.7901	0.076
Mof_Br	Br	0.5516	0.7142	0.8636	-0.074
Mof_C 	C 	0.0263	0.7645	0.2099	0.076
Mof_Br	Br	0.0516	0.7858	0.1364	-0.074
Mof_C 	C 	0.0263	0.2645	0.7099	0.076
Mof_Br	Br	0.0516	0.2858	0.6364	-0.074
Mof_C 	C 	0.5263	0.7645	0.7099	0.076
Mof_Br	Br	0.5516	0.7858	0.6364	-0.074
Mof_C 	C 	0.5263	0.2645	0.2099	0.076
Mof_Br	Br	0.5516	0.2858	0.1364	-0.074
Mof_C 	C 	0.9737	0.2355	0.2099	0.076
Mof_Br	Br	0.9484	0.2142	0.1364	-0.074
Mof_C 	C 	0.9737	0.7355	0.7099	0.076
Mof_Br	Br	0.9484	0.7142	0.6364	-0.074
Mof_C 	C 	0.4737	0.2355	0.7099	0.076
Mof_Br	Br	0.4484	0.2142	0.6364	-0.074
Mof_C 	C 	0.4737	0.7355	0.2099	0.076
Mof_Br	Br	0.4484	0.7142	0.1364	-0.074
Mof_C 	C 	0.9737	0.7645	0.7901	0.076
Mof_Br	Br	0.9484	0.7858	0.8636	-0.074
Mof_C 	C 	0.9737	0.2645	0.2901	0.076
Mof_Br	Br	0.9484	0.2858	0.3636	-0.074
Mof_C 	C 	0.4737	0.7645	0.2901	0.076
Mof_Br	Br	0.4484	0.7858	0.3636	-0.074
Mof_C 	C 	0.4737	0.2645	0.7901	0.076
Mof_Br	Br	0.4484	0.2858	0.8636	-0.074
Mof_C 	C 	0.7901	0.7645	0.9737	0.076
Mof_Br	Br	0.8636	0.7858	0.9484	-0.074
Mof_C 	C 	0.7901	0.2645	0.4737	0.076
Mof_Br	Br	0.8636	0.2858	0.4484	-0.074
Mof_C 	C 	0.2901	0.7645	0.4737	0.076
Mof_Br	Br	0.3636	0.7858	0.4484	-0.074
Mof_C 	C 	0.2901	0.2645	0.9737	0.076
Mof_Br	Br	0.3636	0.2858	0.9484	-0.074
Mof_C 	C 	0.2099	0.2355	0.9737	0.076
Mof_Br	Br	0.1364	0.2142	0.9484	-0.074
Mof_C 	C 	0.2099	0.7355	0.4737	0.076
Mof_Br	Br	0.1364	0.7142	0.4484	-0.074
Mof_C 	C 	0.7099	0.2355	0.4737	0.076
Mof_Br	Br	0.6364	0.2142	0.4484	-0.074
Mof_C 	C 	0.7099	0.7355	0.9737	0.076
Mof_Br	Br	0.6364	0.7142	0.9484	-0.074
Mof_C 	C 	0.2099	0.7645	0.0263	0.076
Mof_Br	Br	0.1364	0.7858	0.0516	-0.074
Mof_C 	C 	0.2099	0.2645	0.5263	0.076
Mof_Br	Br	0.1364	0.2858	0.5516	-0.074
Mof_C 	C 	0.7099	0.7645	0.5263	0.076
Mof_Br	Br	0.6364	0.7858	0.5516	-0.074
Mof_C 	C 	0.7099	0.2645	0.0263	0.076
Mof_Br	Br	0.6364	0.2858	0.0516	-0.074
Mof_C 	C 	0.7901	0.2355	0.0263	0.076
Mof_Br	Br	0.8636	0.2142	0.0516	-0.074
Mof_C 	C 	0.7901	0.7355	0.5263	0.076
Mof_Br	Br	0.8636	0.7142	0.5516	-0.074
Mof_C 	C 	0.2901	0.2355	0.5263	0.076
Mof_Br	Br	0.3636	0.2142	0.5516	-0.074
Mof_C 	C 	0.2901	0.7355	0.0263	0.076
Mof_Br	Br	0.3636	0.7142	0.0516	-0.074
Mof_C 	C 	0.9737	0.7901	0.7645	0.076
Mof_Br	Br	0.9484	0.8636	0.7858	-0.074
Mof_C 	C 	0.9737	0.2901	0.2645	0.076
Mof_Br	Br	0.9484	0.3636	0.2858	-0.074
Mof_C 	C 	0.4737	0.7901	0.2645	0.076
Mof_Br	Br	0.4484	0.8636	0.2858	-0.074
Mof_C 	C 	0.4737	0.2901	0.7645	0.076
Mof_Br	Br	0.4484	0.3636	0.7858	-0.074
Mof_C 	C 	0.9737	0.2099	0.2355	0.076
Mof_Br	Br	0.9484	0.1364	0.2142	-0.074
Mof_C 	C 	0.9737	0.7099	0.7355	0.076
Mof_Br	Br	0.9484	0.6364	0.7142	-0.074
Mof_C 	C 	0.4737	0.2099	0.7355	0.076
Mof_Br	Br	0.4484	0.1364	0.7142	-0.074
Mof_C 	C 	0.4737	0.7099	0.2355	0.076
Mof_Br	Br	0.4484	0.6364	0.2142	-0.074
Mof_C 	C 	0.0263	0.2099	0.7645	0.076
Mof_Br	Br	0.0516	0.1364	0.7858	-0.074
Mof_C 	C 	0.0263	0.7099	0.2645	0.076
Mof_Br	Br	0.0516	0.6364	0.2858	-0.074
Mof_C 	C 	0.5263	0.2099	0.2645	0.076
Mof_Br	Br	0.5516	0.1364	0.2858	-0.074
Mof_C 	C 	0.5263	0.7099	0.7645	0.076
Mof_Br	Br	0.5516	0.6364	0.7858	-0.074
Mof_C 	C 	0.0263	0.7901	0.2355	0.076
Mof_Br	Br	0.0516	0.8636	0.2142	-0.074
Mof_C 	C 	0.0263	0.2901	0.7355	0.076
Mof_Br	Br	0.0516	0.3636	0.7142	-0.074
Mof_C 	C 	0.5263	0.7901	0.7355	0.076
Mof_Br	Br	0.5516	0.8636	0.7142	-0.074
Mof_C 	C 	0.5263	0.2901	0.2355	0.076
Mof_Br	Br	0.5516	0.3636	0.2142	-0.074
Mof_C 	C 	0.7645	0.9737	0.7901	0.076
Mof_Br	Br	0.7858	0.9484	0.8636	-0.074
Mof_C 	C 	0.7645	0.4737	0.2901	0.076
Mof_Br	Br	0.7858	0.4484	0.3636	-0.074
Mof_C 	C 	0.2645	0.9737	0.2901	0.076
Mof_Br	Br	0.2858	0.9484	0.3636	-0.074
Mof_C 	C 	0.2645	0.4737	0.7901	0.076
Mof_Br	Br	0.2858	0.4484	0.8636	-0.074
Mof_C 	C 	0.2355	0.9737	0.2099	0.076
Mof_Br	Br	0.2142	0.9484	0.1364	-0.074
Mof_C 	C 	0.2355	0.4737	0.7099	0.076
Mof_Br	Br	0.2142	0.4484	0.6364	-0.074
Mof_C 	C 	0.7355	0.9737	0.7099	0.076
Mof_Br	Br	0.7142	0.9484	0.6364	-0.074
Mof_C 	C 	0.7355	0.4737	0.2099	0.076
Mof_Br	Br	0.7142	0.4484	0.1364	-0.074
Mof_C 	C 	0.7645	0.0263	0.2099	0.076
Mof_Br	Br	0.7858	0.0516	0.1364	-0.074
Mof_C 	C 	0.7645	0.5263	0.7099	0.076
Mof_Br	Br	0.7858	0.5516	0.6364	-0.074
Mof_C 	C 	0.2645	0.0263	0.7099	0.076
Mof_Br	Br	0.2858	0.0516	0.6364	-0.074
Mof_C 	C 	0.2645	0.5263	0.2099	0.076
Mof_Br	Br	0.2858	0.5516	0.1364	-0.074
Mof_C 	C 	0.2355	0.0263	0.7901	0.076
Mof_Br	Br	0.2142	0.0516	0.8636	-0.074
Mof_C 	C 	0.2355	0.5263	0.2901	0.076
Mof_Br	Br	0.2142	0.5516	0.3636	-0.074
Mof_C 	C 	0.7355	0.0263	0.2901	0.076
Mof_Br	Br	0.7142	0.0516	0.3636	-0.074
Mof_C 	C 	0.7355	0.5263	0.7901	0.076
Mof_Br	Br	0.7142	0.5516	0.8636	-0.074
Mof_C 	C 	0.7645	0.7901	0.0263	0.076
Mof_Br	Br	0.7858	0.8636	0.0516	-0.074
Mof_C 	C 	0.7645	0.2901	0.5263	0.076
Mof_Br	Br	0.7858	0.3636	0.5516	-0.074
Mof_C 	C 	0.2645	0.7901	0.5263	0.076
Mof_Br	Br	0.2858	0.8636	0.5516	-0.074
Mof_C 	C 	0.2645	0.2901	0.0263	0.076
Mof_Br	Br	0.2858	0.3636	0.0516	-0.074
Mof_C 	C 	0.2355	0.2099	0.0263	0.076
Mof_Br	Br	0.2142	0.1364	0.0516	-0.074
Mof_C 	C 	0.2355	0.7099	0.5263	0.076
Mof_Br	Br	0.2142	0.6364	0.5516	-0.074
Mof_C 	C 	0.7355	0.2099	0.5263	0.076
Mof_Br	Br	0.7142	0.1364	0.5516	-0.074
Mof_C 	C 	0.7355	0.7099	0.0263	0.076
Mof_Br	Br	0.7142	0.6364	0.0516	-0.074
Mof_C 	C 	0.7645	0.2099	0.9737	0.076
Mof_Br	Br	0.7858	0.1364	0.9484	-0.074
Mof_C 	C 	0.7645	0.7099	0.4737	0.076
Mof_Br	Br	0.7858	0.6364	0.4484	-0.074
Mof_C 	C 	0.2645	0.2099	0.4737	0.076
Mof_Br	Br	0.2858	0.1364	0.4484	-0.074
Mof_C 	C 	0.2645	0.7099	0.9737	0.076
Mof_Br	Br	0.2858	0.6364	0.9484	-0.074
Mof_C 	C 	0.2355	0.7901	0.9737	0.076
Mof_Br	Br	0.2142	0.8636	0.9484	-0.074
Mof_C 	C 	0.2355	0.2901	0.4737	0.076
Mof_Br	Br	0.2142	0.3636	0.4484	-0.074
Mof_C 	C 	0.7355	0.7901	0.4737	0.076
Mof_Br	Br	0.7142	0.8636	0.4484	-0.074
Mof_C 	C 	0.7355	0.2901	0.9737	0.076
Mof_Br	Br	0.7142	0.3636	0.9484	-0.074
Mof_C 	C 	0.7901	0.9737	0.2355	0.076
Mof_Br	Br	0.8636	0.9484	0.2142	-0.074
Mof_C 	C 	0.7901	0.4737	0.7355	0.076
Mof_Br	Br	0.8636	0.4484	0.7142	-0.074
Mof_C 	C 	0.2901	0.9737	0.7355	0.076
Mof_Br	Br	0.3636	0.9484	0.7142	-0.074
Mof_C 	C 	0.2901	0.4737	0.2355	0.076
Mof_Br	Br	0.3636	0.4484	0.2142	-0.074
Mof_C 	C 	0.2099	0.9737	0.7645	0.076
Mof_Br	Br	0.1364	0.9484	0.7858	-0.074
Mof_C 	C 	0.2099	0.4737	0.2645	0.076
Mof_Br	Br	0.1364	0.4484	0.2858	-0.074
Mof_C 	C 	0.7099	0.9737	0.2645	0.076
Mof_Br	Br	0.6364	0.9484	0.2858	-0.074
Mof_C 	C 	0.7099	0.4737	0.7645	0.076
Mof_Br	Br	0.6364	0.4484	0.7858	-0.074
Mof_C 	C 	0.2099	0.0263	0.2355	0.076
Mof_Br	Br	0.1364	0.0516	0.2142	-0.074
Mof_C 	C 	0.2099	0.5263	0.7355	0.076
Mof_Br	Br	0.1364	0.5516	0.7142	-0.074
Mof_C 	C 	0.7099	0.0263	0.7355	0.076
Mof_Br	Br	0.6364	0.0516	0.7142	-0.074
Mof_C 	C 	0.7099	0.5263	0.2355	0.076
Mof_Br	Br	0.6364	0.5516	0.2142	-0.074
Mof_C 	C 	0.7901	0.0263	0.7645	0.076
Mof_Br	Br	0.8636	0.0516	0.7858	-0.074
Mof_C 	C 	0.7901	0.5263	0.2645	0.076
Mof_Br	Br	0.8636	0.5516	0.2858	-0.074
Mof_C 	C 	0.2901	0.0263	0.2645	0.076
Mof_Br	Br	0.3636	0.0516	0.2858	-0.074
Mof_C 	C 	0.2901	0.5263	0.7645	0.076
Mof_Br	Br	0.3636	0.5516	0.7858	-0.074
Mof_C 	C 	0.9737	0.7645	0.2099	0.076
Mof_Br	Br	0.9484	0.7858	0.1364	-0.074
Mof_C 	C 	0.9737	0.2645	0.7099	0.076
Mof_Br	Br	0.9484	0.2858	0.6364	-0.074
Mof_C 	C 	0.4737	0.7645	0.7099	0.076
Mof_Br	Br	0.4484	0.7858	0.6364	-0.074
Mof_C 	C 	0.4737	0.2645	0.2099	0.076
Mof_Br	Br	0.4484	0.2858	0.1364	-0.074
Mof_C 	C 	0.9737	0.2355	0.7901	0.076
Mof_Br	Br	0.9484	0.2142	0.8636	-0.074
Mof_C 	C 	0.9737	0.7355	0.2901	0.076
Mof_Br	Br	0.9484	0.7142	0.3636	-0.074
Mof_C 	C 	0.4737	0.2355	0.2901	0.076
Mof_Br	Br	0.4484	0.2142	0.3636	-0.074
Mof_C 	C 	0.4737	0.7355	0.7901	0.076
Mof_Br	Br	0.4484	0.7142	0.8636	-0.074
Mof_C 	C 	0.0263	0.7645	0.7901	0.076
Mof_Br	Br	0.0516	0.7858	0.8636	-0.074
Mof_C 	C 	0.0263	0.2645	0.2901	0.076
Mof_Br	Br	0.0516	0.2858	0.3636	-0.074
Mof_C 	C 	0.5263	0.7645	0.2901	0.076
Mof_Br	Br	0.5516	0.7858	0.3636	-0.074
Mof_C 	C 	0.5263	0.2645	0.7901	0.076
Mof_Br	Br	0.5516	0.2858	0.8636	-0.074
Mof_C 	C 	0.0263	0.2355	0.2099	0.076
Mof_Br	Br	0.0516	0.2142	0.1364	-0.074
Mof_C 	C 	0.0263	0.7355	0.7099	0.076
Mof_Br	Br	0.0516	0.7142	0.6364	-0.074
Mof_C 	C 	0.5263	0.2355	0.7099	0.076
Mof_Br	Br	0.5516	0.2142	0.6364	-0.074
Mof_C 	C 	0.5263	0.7355	0.2099	0.076
Mof_Br	Br	0.5516	0.7142	0.1364	-0.074
Mof_Zn	Zn	0.20659	0.20659	0.20659	1.226
Mof_Zn	Zn	0.20659	0.70659	0.70659	1.226
Mof_Zn	Zn	0.70659	0.20659	0.70659	1.226
Mof_Zn	Zn	0.70659	0.70659	0.20659	1.226
Mof_Zn	Zn	0.79341	0.79341	0.20659	1.226
Mof_Zn	Zn	0.79341	0.29341	0.70659	1.226
Mof_Zn	Zn	0.29341	0.79341	0.70659	1.226
Mof_Zn	Zn	0.29341	0.29341	0.20659	1.226
Mof_Zn	Zn	0.79341	0.20659	0.79341	1.226
Mof_Zn	Zn	0.79341	0.70659	0.29341	1.226
Mof_Zn	Zn	0.29341	0.20659	0.29341	1.226
Mof_Zn	Zn	0.29341	0.70659	0.79341	1.226
Mof_Zn	Zn	0.20659	0.79341	0.79341	1.226
Mof_Zn	Zn	0.20659	0.29341	0.29341	1.226
Mof_Zn	Zn	0.70659	0.79341	0.29341	1.226
Mof_Zn	Zn	0.70659	0.29341	0.79341	1.226
Mof_Zn	Zn	0.20659	0.20659	0.79341	1.226
Mof_Zn	Zn	0.20659	0.70659	0.29341	1.226
Mof_Zn	Zn	0.70659	0.20659	0.29341	1.226
Mof_Zn	Zn	0.70659	0.70659	0.79341	1.226
Mof_Zn	Zn	0.79341	0.79341	0.79341	1.226
Mof_Zn	Zn	0.79341	0.29341	0.29341	1.226
Mof_Zn	Zn	0.29341	0.79341	0.29341	1.226
Mof_Zn	Zn	0.29341	0.29341	0.79341	1.226
Mof_Zn	Zn	0.20659	0.79341	0.20659	1.226
Mof_Zn	Zn	0.20659	0.29341	0.70659	1.226
Mof_Zn	Zn	0.70659	0.79341	0.70659	1.226
Mof_Zn	Zn	0.70659	0.29341	0.20659	1.226
Mof_Zn	Zn	0.79341	0.20659	0.20659	1.226
Mof_Zn	Zn	0.79341	0.70659	0.70659	1.226
Mof_Zn	Zn	0.29341	0.20659	0.70659	1.226
Mof_Zn	Zn	0.29341	0.70659	0.20659	1.226
Mof_O 	O 	0.25	0.25	0.25	-0.948
Mof_O 	O 	0.75	0.75	0.25	-0.948
Mof_O 	O 	0.75	0.25	0.75	-0.948
Mof_O 	O 	0.25	0.75	0.75	-0.948
Mof_O 	O 	0.25	0.25	0.75	-0.948
Mof_O 	O 	0.75	0.75	0.75	-0.948
Mof_O 	O 	0.75	0.25	0.25	-0.948
Mof_O 	O 	0.25	0.75	0.25	-0.948
Mof_O 	O 	0.22	0.22	0.1338	-0.478
Mof_O 	O 	0.22	0.72	0.6338	-0.478
Mof_O 	O 	0.72	0.22	0.6338	-0.478
Mof_O 	O 	0.72	0.72	0.1338	-0.478
Mof_O 	O 	0.78	0.78	0.1338	-0.478
Mof_O 	O 	0.78	0.28	0.6338	-0.478
Mof_O 	O 	0.28	0.78	0.6338	-0.478
Mof_O 	O 	0.28	0.28	0.1338	-0.478
Mof_O 	O 	0.78	0.22	0.8662	-0.478
Mof_O 	O 	0.78	0.72	0.3662	-0.478
Mof_O 	O 	0.28	0.22	0.3662	-0.478
Mof_O 	O 	0.28	0.72	0.8662	-0.478
Mof_O 	O 	0.22	0.78	0.8662	-0.478
Mof_O 	O 	0.22	0.28	0.3662	-0.478
Mof_O 	O 	0.72	0.78	0.3662	-0.478
Mof_O 	O 	0.72	0.28	0.8662	-0.478
Mof_O 	O 	0.1338	0.22	0.22	-0.478
Mof_O 	O 	0.1338	0.72	0.72	-0.478
Mof_O 	O 	0.6338	0.22	0.72	-0.478
Mof_O 	O 	0.6338	0.72	0.22	-0.478
Mof_O 	O 	0.1338	0.78	0.78	-0.478
Mof_O 	O 	0.1338	0.28	0.28	-0.478
Mof_O 	O 	0.6338	0.78	0.28	-0.478
Mof_O 	O 	0.6338	0.28	0.78	-0.478
Mof_O 	O 	0.8662	0.78	0.22	-0.478
Mof_O 	O 	0.8662	0.28	0.72	-0.478
Mof_O 	O 	0.3662	0.78	0.72	-0.478
Mof_O 	O 	0.3662	0.28	0.22	-0.478
Mof_O 	O 	0.8662	0.22	0.78	-0.478
Mof_O 	O 	0.8662	0.72	0.28	-0.478
Mof_O 	O 	0.3662	0.22	0.28	-0.478
Mof_O 	O 	0.3662	0.72	0.78	-0.478
Mof_O 	O 	0.22	0.1338	0.22	-0.478
Mof_O 	O 	0.22	0.6338	0.72	-0.478
Mof_O 	O 	0.72	0.1338	0.72	-0.478
Mof_O 	O 	0.72	0.6338	0.22	-0.478
Mof_O 	O 	0.78	0.1338	0.78	-0.478
Mof_O 	O 	0.78	0.6338	0.28	-0.478
Mof_O 	O 	0.28	0.1338	0.28	-0.478
Mof_O 	O 	0.28	0.6338	0.78	-0.478
Mof_O 	O 	0.22	0.8662	0.78	-0.478
Mof_O 	O 	0.22	0.3662	0.28	-0.478
Mof_O 	O 	0.72	0.8662	0.28	-0.478
Mof_O 	O 	0.72	0.3662	0.78	-0.478
Mof_O 	O 	0.78	0.8662	0.22	-0.478
Mof_O 	O 	0.78	0.3662	0.72	-0.478
Mof_O 	O 	0.28	0.8662	0.72	-0.478
Mof_O 	O 	0.28	0.3662	0.22	-0.478
Mof_O 	O 	0.22	0.22	0.8662	-0.478
Mof_O 	O 	0.22	0.72	0.3662	-0.478
Mof_O 	O 	0.72	0.22	0.3662	-0.478
Mof_O 	O 	0.72	0.72	0.8662	-0.478
Mof_O 	O 	0.78	0.78	0.8662	-0.478
Mof_O 	O 	0.78	0.28	0.3662	-0.478
Mof_O 	O 	0.28	0.78	0.3662	-0.478
Mof_O 	O 	0.28	0.28	0.8662	-0.478
Mof_O 	O 	0.22	0.78	0.1338	-0.478
Mof_O 	O 	0.22	0.28	0.6338	-0.478
Mof_O 	O 	0.72	0.78	0.6338	-0.478
Mof_O 	O 	0.72	0.28	0.1338	-0.478
Mof_O 	O 	0.78	0.22	0.1338	-0.478
Mof_O 	O 	0.78	0.72	0.6338	-0.478
Mof_O 	O 	0.28	0.22	0.6338	-0.478
Mof_O 	O 	0.28	0.72	0.1338	-0.478
Mof_O 	O 	0.22	0.1338	0.78	-0.478
Mof_O 	O 	0.22	0.6338	0.28	-0.478
Mof_O 	O 	0.72	0.1338	0.28	-0.478
Mof_O 	O 	0.72	0.6338	0.78	-0.478
Mof_O 	O 	0.78	0.1338	0.22	-0.478
Mof_O 	O 	0.78	0.6338	0.72	-0.478
Mof_O 	O 	0.28	0.1338	0.72	-0.478
Mof_O 	O 	0.28	0.6338	0.22	-0.478
Mof_O 	O 	0.78	0.8662	0.78	-0.478
Mof_O 	O 	0.78	0.3662	0.28	-0.478
Mof_O 	O 	0.28	0.8662	0.28	-0.478
Mof_O 	O 	0.28	0.3662	0.78	-0.478
Mof_O 	O 	0.22	0.8662	0.22	-0.478
Mof_O 	O 	0.22	0.3662	0.72	-0.478
Mof_O 	O 	0.72	0.8662	0.72	-0.478
Mof_O 	O 	0.72	0.3662	0.22	-0.478
Mof_O 	O 	0.1338	0.22	0.78	-0.478
Mof_O 	O 	0.1338	0.72	0.28	-0.478
Mof_O 	O 	0.6338	0.22	0.28	-0.478
Mof_O 	O 	0.6338	0.72	0.78	-0.478
Mof_O 	O 	0.1338	0.78	0.22	-0.478
Mof_O 	O 	0.1338	0.28	0.72	-0.478
Mof_O 	O 	0.6338	0.78	0.72	-0.478
Mof_O 	O 	0.6338	0.28	0.22	-0.478
Mof_O 	O 	0.8662	0.22	0.22	-0.478
Mof_O 	O 	0.8662	0.72	0.72	-0.478
Mof_O 	O 	0.3662	0.22	0.72	-0.478
Mof_O 	O 	0.3662	0.72	0.22	-0.478
Mof_O 	O 	0.8662	0.78	0.78	-0.478
Mof_O 	O 	0.8662	0.28	0.28	-0.478
Mof_O 	O 	0.3662	0.78	0.28	-0.478
Mof_O 	O 	0.3662	0.28	0.78	-0.478
Mof_C 	C 	0.25	0.25	0.1106	0.489
Mof_C 	C 	0.25	0.25	0.055	-0.197
Mof_C 	C 	0.25	0.75	0.6106	0.489
Mof_C 	C 	0.25	0.75	0.555	-0.197
Mof_C 	C 	0.75	0.75	0.1106	0.489
Mof_C 	C 	0.75	0.75	0.055	-0.197
Mof_C 	C 	0.75	0.25	0.6106	0.489
Mof_C 	C 	0.75	0.25	0.555	-0.197
Mof_C 	C 	0.75	0.25	0.8894	0.489
Mof_C 	C 	0.75	0.25	0.945	-0.197
Mof_C 	C 	0.75	0.75	0.3894	0.489
Mof_C 	C 	0.75	0.75	0.445	-0.197
Mof_C 	C 	0.25	0.25	0.3894	0.489
Mof_C 	C 	0.25	0.25	0.445	-0.197
Mof_C 	C 	0.25	0.75	0.8894	0.489
Mof_C 	C 	0.25	0.75	0.945	-0.197
Mof_C 	C 	0.1106	0.25	0.25	0.489
Mof_C 	C 	0.055	0.25	0.25	-0.197
Mof_C 	C 	0.6106	0.25	0.75	0.489
Mof_C 	C 	0.555	0.25	0.75	-0.197
Mof_C 	C 	0.1106	0.75	0.75	0.489
Mof_C 	C 	0.055	0.75	0.75	-0.197
Mof_C 	C 	0.6106	0.75	0.25	0.489
Mof_C 	C 	0.555	0.75	0.25	-0.197
Mof_C 	C 	0.8894	0.75	0.25	0.489
Mof_C 	C 	0.945	0.75	0.25	-0.197
Mof_C 	C 	0.3894	0.75	0.75	0.489
Mof_C 	C 	0.445	0.75	0.75	-0.197
Mof_C 	C 	0.3894	0.25	0.25	0.489
Mof_C 	C 	0.445	0.25	0.25	-0.197
Mof_C 	C 	0.8894	0.25	0.75	0.489
Mof_C 	C 	0.945	0.25	0.75	-0.197
Mof_C 	C 	0.25	0.1106	0.25	0.489
Mof_C 	C 	0.25	0.055	0.25	-0.197
Mof_C 	C 	0.25	0.6106	0.75	0.489
Mof_C 	C 	0.25	0.555	0.75	-0.197
Mof_C 	C 	0.75	0.1106	0.75	0.489
Mof_C 	C 	0.75	0.055	0.75	-0.197
Mof_C 	C 	0.75	0.6106	0.25	0.489
Mof_C 	C 	0.75	0.555	0.25	-0.197
Mof_C 	C 	0.25	0.8894	0.75	0.489
Mof_C 	C 	0.25	0.945	0.75	-0.197
Mof_C 	C 	0.25	0.3894	0.25	0.489
Mof_C 	C 	0.25	0.445	0.25	-0.197
Mof_C 	C 	0.75	0.8894	0.25	0.489
Mof_C 	C 	0.75	0.945	0.25	-0.197
Mof_C 	C 	0.75	0.3894	0.75	0.489
Mof_C 	C 	0.75	0.445	0.75	-0.197
Mof_C 	C 	0.25	0.25	0.8894	0.489
Mof_C 	C 	0.25	0.25	0.945	-0.197
Mof_C 	C 	0.25	0.75	0.3894	0.489
Mof_C 	C 	0.25	0.75	0.445	-0.197
Mof_C 	C 	0.75	0.75	0.8894	0.489
Mof_C 	C 	0.75	0.75	0.945	-0.197
Mof_C 	C 	0.75	0.25	0.3894	0.489
Mof_C 	C 	0.75	0.25	0.445	-0.197
Mof_C 	C 	0.25	0.75	0.1106	0.489
Mof_C 	C 	0.25	0.75	0.055	-0.197
Mof_C 	C 	0.25	0.25	0.6106	0.489
Mof_C 	C 	0.25	0.25	0.555	-0.197
Mof_C 	C 	0.75	0.25	0.1106	0.489
Mof_C 	C 	0.75	0.25	0.055	-0.197
Mof_C 	C 	0.75	0.75	0.6106	0.489
Mof_C 	C 	0.75	0.75	0.555	-0.197
Mof_C 	C 	0.25	0.1106	0.75	0.489
Mof_C 	C 	0.25	0.055	0.75	-0.197
Mof_C 	C 	0.25	0.6106	0.25	0.489
Mof_C 	C 	0.25	0.555	0.25	-0.197
Mof_C 	C 	0.75	0.1106	0.25	0.489
Mof_C 	C 	0.75	0.055	0.25	-0.197
Mof_C 	C 	0.75	0.6106	0.75	0.489
Mof_C 	C 	0.75	0.555	0.75	-0.197
Mof_C 	C 	0.75	0.8894	0.75	0.489
Mof_C 	C 	0.75	0.945	0.75	-0.197
Mof_C 	C 	0.75	0.3894	0.25	0.489
Mof_C 	C 	0.75	0.445	0.25	-0.197
Mof_C 	C 	0.25	0.8894	0.25	0.489
Mof_C 	C 	0.25	0.945	0.25	-0.197
Mof_C 	C 	0.25	0.3894	0.75	0.489
Mof_C 	C 	0.25	0.445	0.75	-0.197
Mof_C 	C 	0.1106	0.25	0.75	0.489
Mof_C 	C 	0.055	0.25	0.75	-0.197
Mof_C 	C 	0.6106	0.25	0.25	0.489
Mof_C 	C 	0.555	0.25	0.25	-0.197
Mof_C 	C 	0.1106	0.75	0.25	0.489
Mof_C 	C 	0.055	0.75	0.25	-0.197
Mof_C 	C 	0.6106	0.75	0.75	0.489
Mof_C 	C 	0.555	0.75	0.75	-0.197
Mof_C 	C 	0.8894	0.25	0.25	0.489
Mof_C 	C 	0.945	0.25	0.25	-0.197
Mof_C 	C 	0.3894	0.25	0.75	0.489
Mof_C 	C 	0.445	0.25	0.75	-0.197
Mof_C 	C 	0.8894	0.75	0.75	0.489
Mof_C 	C 	0.945	0.75	0.75	-0.197
Mof_C 	C 	0.3894	0.75	0.25	0.489
Mof_C 	C 	0.445	0.75	0.25	-0.197
_end
