data_functionalizedCrystal
_audit_creation_method	'EQeq! by Chris Wilmer'
_symmetry_space_group_name_H-M	'P1'
_symmetry_Int_Tables_number	1
_symmetry_cell_setting	triclinic
loop_
_symmetry_equiv_pos_as_xyz
  x,y,z
_cell_length_a	10.1821
_cell_length_b	10.1821
_cell_length_c	30.9216
_cell_angle_alpha	90
_cell_angle_beta	90
_cell_angle_gamma	120
loop_
_atom_site_label
_atom_site_type_symbol
_atom_site_fract_x
_atom_site_fract_y
_atom_site_fract_z
_atom_site_charge
Mof_O 	O 	0.27781	0.18659	0.02133	-0.47
Mof_O 	O 	0.16268	0.00656	0.0699	-0.684
Mof_O 	O 	0.25444	0.24843	0.13144	-0.517
Mof_O 	O 	0.49701	0.35411	0.14869	-0.621
Mof_C 	C 	0.27828	0.12737	0.05658	0.574
Mof_C 	C 	0.41594	0.20272	0.08518	-0.757
Mof_H 	H 	0.5003	0.2813	0.069	0.243
Mof_H 	H 	0.4436	0.1286	0.0942	0.228
Mof_C 	C 	0.38606	0.27214	0.1248	0.646
Mof_O 	O 	0.94448	0.51992	0.35466	-0.493
Mof_O 	O 	0.82935	0.33989	0.40323	-0.725
Mof_O 	O 	0.92111	0.58176	0.46477	-0.465
Mof_O 	O 	0.16368	0.68744	0.48202	-0.624
Mof_C 	C 	0.94495	0.4607	0.38991	0.722
Mof_C 	C 	0.08261	0.53605	0.41851	-0.891
Mof_H 	H 	0.16697	0.61463	0.40233	0.27
Mof_H 	H 	0.11027	0.46193	0.42753	0.254
Mof_C 	C 	0.05273	0.60547	0.45813	0.561
Mof_O 	O 	0.61114	0.85326	0.688	-0.488
Mof_O 	O 	0.49601	0.67323	0.73657	-0.72
Mof_O 	O 	0.58777	0.9151	0.79811	-0.568
Mof_O 	O 	0.83034	0.02078	0.81536	-0.622
Mof_C 	C 	0.61161	0.79404	0.72325	0.655
Mof_C 	C 	0.74927	0.86939	0.75185	-0.895
Mof_H 	H 	0.83363	0.94797	0.73567	0.365
Mof_H 	H 	0.77693	0.79527	0.76087	0.323
Mof_C 	C 	0.71939	0.93881	0.79147	0.829
Mof_O 	O 	0.81341	0.09122	0.02133	-0.448
Mof_O 	O 	0.99344	0.15612	0.0699	-0.481
Mof_O 	O 	0.75157	0.00601	0.13144	-0.527
Mof_O 	O 	0.64589	0.1429	0.14869	-0.646
Mof_C 	C 	0.87263	0.15091	0.05658	0.572
Mof_C 	C 	0.79728	0.21322	0.08518	-0.757
Mof_H 	H 	0.7187	0.219	0.069	0.24
Mof_H 	H 	0.8714	0.315	0.0942	0.279
Mof_C 	C 	0.72786	0.11392	0.1248	0.658
Mof_O 	O 	0.48008	0.42455	0.35466	-0.524
Mof_O 	O 	0.66011	0.48945	0.40323	-0.705
Mof_O 	O 	0.41824	0.33934	0.46477	-0.605
Mof_O 	O 	0.31256	0.47623	0.48202	-0.654
Mof_C 	C 	0.5393	0.48424	0.38991	0.617
Mof_C 	C 	0.46395	0.54655	0.41851	-0.799
Mof_H 	H 	0.38537	0.55233	0.40233	0.251
Mof_H 	H 	0.53807	0.64833	0.42753	0.273
Mof_C 	C 	0.39453	0.44725	0.45813	0.682
Mof_O 	O 	0.14674	0.75789	0.688	-0.516
Mof_O 	O 	0.32677	0.82279	0.73657	-0.687
Mof_O 	O 	0.0849	0.67268	0.79811	-0.545
Mof_O 	O 	0.97922	0.80957	0.81536	-0.335
Mof_C 	C 	0.20596	0.81758	0.72325	0.588
Mof_C 	C 	0.13061	0.87989	0.75185	-0.688
Mof_H 	H 	0.05203	0.88567	0.73567	0.213
Mof_H 	H 	0.20473	0.98167	0.76087	0.27
Mof_C 	C 	0.06119	0.78059	0.79147	0.46
Mof_O 	O 	0.90878	0.72219	0.02133	-0.334
Mof_O 	O 	0.84388	0.83732	0.0699	-0.447
Mof_O 	O 	0.99399	0.74556	0.13144	-0.381
Mof_O 	O 	0.8571	0.50299	0.14869	-0.59
Mof_C 	C 	0.84909	0.72172	0.05658	0.544
Mof_C 	C 	0.78678	0.58406	0.08518	-0.692
Mof_H 	H 	0.781	0.4997	0.069	0.236
Mof_H 	H 	0.685	0.5564	0.0942	0.237
Mof_C 	C 	0.88608	0.61394	0.1248	0.625
Mof_O 	O 	0.57545	0.05552	0.35466	-0.519
Mof_O 	O 	0.51055	0.17065	0.40323	-0.711
Mof_O 	O 	0.66066	0.07889	0.46477	-0.664
Mof_O 	O 	0.52377	0.83632	0.48202	-0.639
Mof_C 	C 	0.51576	0.05505	0.38991	0.491
Mof_C 	C 	0.45345	0.91739	0.41851	-0.667
Mof_H 	H 	0.44767	0.83303	0.40233	0.237
Mof_H 	H 	0.35167	0.88973	0.42753	0.239
Mof_C 	C 	0.55275	0.94727	0.45813	0.796
Mof_O 	O 	0.24211	0.38886	0.688	-0.526
Mof_O 	O 	0.17721	0.50399	0.73657	-0.716
Mof_O 	O 	0.32732	0.41223	0.79811	-0.557
Mof_O 	O 	0.19043	0.16966	0.81536	-0.594
Mof_C 	C 	0.18242	0.38839	0.72325	0.567
Mof_C 	C 	0.12011	0.25073	0.75185	-0.703
Mof_H 	H 	0.11433	0.16637	0.73567	0.172
Mof_H 	H 	0.01833	0.22307	0.76087	0.175
Mof_C 	C 	0.21941	0.28061	0.79147	0.618
Mof_O 	O 	0.72219	0.81341	0.97867	-0.342
Mof_O 	O 	0.83732	0.99344	0.9301	-0.39
Mof_O 	O 	0.74556	0.75157	0.86856	-0.433
Mof_O 	O 	0.50299	0.64589	0.85131	-0.617
Mof_C 	C 	0.72172	0.87263	0.94342	0.554
Mof_C 	C 	0.58406	0.79728	0.91482	-0.716
Mof_H 	H 	0.4997	0.7187	0.931	0.242
Mof_H 	H 	0.5564	0.8714	0.9058	0.27
Mof_C 	C 	0.61394	0.72786	0.8752	0.641
Mof_O 	O 	0.38886	0.14674	0.312	-0.532
Mof_O 	O 	0.50399	0.32677	0.26343	-0.694
Mof_O 	O 	0.41223	0.0849	0.20189	-0.542
Mof_O 	O 	0.16966	0.97922	0.18464	-0.392
Mof_C 	C 	0.38839	0.20596	0.27675	0.548
Mof_C 	C 	0.25073	0.13061	0.24815	-0.618
Mof_H 	H 	0.16637	0.05203	0.26433	0.129
Mof_H 	H 	0.22307	0.20473	0.23913	0.185
Mof_C 	C 	0.28061	0.06119	0.20853	0.424
Mof_O 	O 	0.05552	0.48008	0.64534	-0.532
Mof_O 	O 	0.17065	0.66011	0.59677	-0.702
Mof_O 	O 	0.07889	0.41824	0.53523	-0.697
Mof_O 	O 	0.83632	0.31256	0.51798	-0.654
Mof_C 	C 	0.05505	0.5393	0.61009	0.497
Mof_C 	C 	0.91739	0.46395	0.58149	-0.68
Mof_H 	H 	0.83303	0.38537	0.59767	0.237
Mof_H 	H 	0.88973	0.53807	0.57247	0.256
Mof_C 	C 	0.94727	0.39453	0.54187	0.806
Mof_O 	O 	0.18659	0.90878	0.97867	-0.354
Mof_O 	O 	0.00656	0.84388	0.9301	-0.578
Mof_O 	O 	0.24843	0.99399	0.86856	-0.416
Mof_O 	O 	0.35411	0.8571	0.85131	-0.592
Mof_C 	C 	0.12737	0.84909	0.94342	0.553
Mof_C 	C 	0.20272	0.78678	0.91482	-0.711
Mof_H 	H 	0.2813	0.781	0.931	0.243
Mof_H 	H 	0.1286	0.685	0.9058	0.219
Mof_C 	C 	0.27214	0.88608	0.8752	0.628
Mof_O 	O 	0.85326	0.24211	0.312	-0.503
Mof_O 	O 	0.67323	0.17721	0.26343	-0.73
Mof_O 	O 	0.9151	0.32732	0.20189	-0.573
Mof_O 	O 	0.02078	0.19043	0.18464	-0.716
Mof_C 	C 	0.79404	0.18242	0.27675	0.623
Mof_C 	C 	0.86939	0.12011	0.24815	-0.849
Mof_H 	H 	0.94797	0.11433	0.26433	0.295
Mof_H 	H 	0.79527	0.01833	0.23913	0.249
Mof_C 	C 	0.93881	0.21941	0.20853	0.83
Mof_O 	O 	0.51992	0.57545	0.64534	-0.5
Mof_O 	O 	0.33989	0.51055	0.59677	-0.723
Mof_O 	O 	0.58176	0.66066	0.53523	-0.553
Mof_O 	O 	0.68744	0.52377	0.51798	-0.625
Mof_C 	C 	0.4607	0.51576	0.61009	0.603
Mof_C 	C 	0.53605	0.45345	0.58149	-0.774
Mof_H 	H 	0.61463	0.44767	0.59767	0.254
Mof_H 	H 	0.46193	0.35167	0.57247	0.237
Mof_C 	C 	0.60547	0.55275	0.54187	0.679
Mof_O 	O 	0.09122	0.27781	0.97867	-0.478
Mof_O 	O 	0.15612	0.16268	0.9301	-0.626
Mof_O 	O 	0.00601	0.25444	0.86856	-0.573
Mof_O 	O 	0.1429	0.49701	0.85131	-0.648
Mof_C 	C 	0.15091	0.27828	0.94342	0.584
Mof_C 	C 	0.21322	0.41594	0.91482	-0.781
Mof_H 	H 	0.219	0.5003	0.931	0.249
Mof_H 	H 	0.315	0.4436	0.9058	0.262
Mof_C 	C 	0.11392	0.38606	0.8752	0.663
Mof_O 	O 	0.75789	0.61114	0.312	-0.494
Mof_O 	O 	0.82279	0.49601	0.26343	-0.699
Mof_O 	O 	0.67268	0.58777	0.20189	-0.557
Mof_O 	O 	0.80957	0.83034	0.18464	-0.451
Mof_C 	C 	0.81758	0.61161	0.27675	0.64
Mof_C 	C 	0.87989	0.74927	0.24815	-0.822
Mof_H 	H 	0.88567	0.83363	0.26433	0.327
Mof_H 	H 	0.98167	0.77693	0.23913	0.334
Mof_C 	C 	0.78059	0.71939	0.20853	0.66
Mof_O 	O 	0.42455	0.94448	0.64534	-0.504
Mof_O 	O 	0.48945	0.82935	0.59677	-0.716
Mof_O 	O 	0.33934	0.92111	0.53523	-0.489
Mof_O 	O 	0.47623	0.16368	0.51798	-0.639
Mof_C 	C 	0.48424	0.94495	0.61009	0.725
Mof_C 	C 	0.54655	0.08261	0.58149	-0.899
Mof_H 	H 	0.55233	0.16697	0.59767	0.268
Mof_H 	H 	0.64833	0.11027	0.57247	0.273
Mof_C 	C 	0.44725	0.05273	0.54187	0.56
Mof_Pr	Pr	-0	0	-0	1.607
Mof_Pr	Pr	0.66667	0.33333	0.33333	2.572
Mof_Pr	Pr	0.33333	0.66667	0.66667	2.572
Mof_Pr	Pr	-4.54625e-33	-9.0925e-33	0.132	2.07
Mof_Pr	Pr	0.66667	0.33333	0.46534	3.006
Mof_Pr	Pr	0.33333	0.66667	0.79867	2.972
Mof_Pr	Pr	-3.637e-32	0	0.868	2.077
Mof_Pr	Pr	0.66667	0.33333	0.20133	2.973
Mof_Pr	Pr	0.33333	0.66667	0.53466	3.005
_end
