data_functionalizedCrystal
_audit_creation_method	'EQeq! by Chris Wilmer'
_symmetry_space_group_name_H-M	'P1'
_symmetry_Int_Tables_number	1
_symmetry_cell_setting	triclinic
loop_
_symmetry_equiv_pos_as_xyz
  x,y,z
_cell_length_a	10.0816
_cell_length_b	12.8086
_cell_length_c	12.9996
_cell_angle_alpha	70.9476
_cell_angle_beta	67.1845
_cell_angle_gamma	66.8246
loop_
_atom_site_label
_atom_site_type_symbol
_atom_site_fract_x
_atom_site_fract_y
_atom_site_fract_z
_atom_site_charge
Mof_Co	Co	0.96661	0.61481	0.89703	1.174
Mof_Co	Co	0.31752	0.66698	0.76372	1.188
Mof_Co	Co	0.47845	0.88519	0.60297	1.181
Mof_Co	Co	0.74822	0.83302	0.73628	1.188
Mof_Co	Co	0.03339	0.38519	0.10297	1.174
Mof_Co	Co	0.68248	0.33302	0.23628	1.188
Mof_Co	Co	0.52155	0.11481	0.39703	1.182
Mof_Co	Co	0.25178	0.16698	0.26372	1.189
Mof_H 	H 	0.1024	0.3908	0.6504	0.067
Mof_H 	H 	0.2083	0.2556	0.5384	0.01
Mof_H 	H 	0.612	0.2301	0.5195	-0.004
Mof_H 	H 	0.5184	0.37	0.6246	0.067
Mof_H 	H 	0.135	0.9572	0.739	0.003
Mof_H 	H 	0.1394	0.9132	0.538	0.171
Mof_H 	H 	0.0196	0.0166	0.5942	0.181
Mof_H 	H 	0.1436	0.1092	0.8496	0.065
Mof_H 	H 	0.0023	0.2444	0.9616	0.013
Mof_H 	H 	0.3616	0.2699	0.9805	-0.003
Mof_H 	H 	0.513	0.13	0.8754	0.067
Mof_H 	H 	0.8312	0.5428	0.761	-0.003
Mof_H 	H 	0.5906	0.5868	0.962	0.172
Mof_H 	H 	0.6304	0.4834	0.9058	0.186
Mof_H 	H 	0.8976	0.6092	0.3496	0.067
Mof_H 	H 	0.7917	0.7444	0.4616	0.01
Mof_H 	H 	0.388	0.7699	0.4805	-0.004
Mof_H 	H 	0.4816	0.63	0.3754	0.067
Mof_H 	H 	0.865	0.0428	0.261	0.003
Mof_H 	H 	0.8606	0.0868	0.462	0.171
Mof_H 	H 	0.9804	0.9834	0.4058	0.181
Mof_H 	H 	0.8564	0.8908	0.1504	0.065
Mof_H 	H 	0.9977	0.7556	0.0384	0.013
Mof_H 	H 	0.6384	0.7301	0.0195	-0.003
Mof_H 	H 	0.487	0.87	0.1246	0.067
Mof_H 	H 	0.1688	0.4572	0.239	-0.003
Mof_H 	H 	0.4094	0.4132	0.038	0.172
Mof_H 	H 	0.3696	0.5166	0.0942	0.186
Mof_C 	C 	0.2366	0.4874	0.7214	0.367
Mof_C 	C 	0.2992	0.3966	0.6498	-0.039
Mof_C 	C 	0.2068	0.3608	0.6228	-0.067
Mof_C 	C 	0.2721	0.2787	0.5561	0.055
Mof_C 	C 	0.508	0.2637	0.5453	0.04
Mof_C 	C 	0.4524	0.3471	0.6093	-0.064
Mof_C 	C 	0.0322	0.8396	0.75	0.324
Mof_C 	C 	0.1508	0.9033	0.6933	0.121
Mof_C 	C 	0.1247	0.9693	0.5797	-0.471
Mof_C 	C 	0.2213	0.0482	0.5016	0.486
Mof_C 	C 	0.4454	0.0126	0.7786	0.367
Mof_C 	C 	0.3456	0.1034	0.8502	-0.04
Mof_C 	C 	0.1904	0.1392	0.8772	-0.065
Mof_C 	C 	0.1069	0.2213	0.9439	0.055
Mof_C 	C 	0.317	0.2363	0.9547	0.04
Mof_C 	C 	0.4088	0.1529	0.8907	-0.063
Mof_C 	C 	0.6218	0.6604	0.75	0.31
Mof_C 	C 	0.7474	0.5967	0.8067	0.128
Mof_C 	C 	0.6737	0.5307	0.9203	-0.48
Mof_C 	C 	0.7711	0.4518	0.9984	0.473
Mof_C 	C 	0.7634	0.5126	0.2786	0.367
Mof_C 	C 	0.7008	0.6034	0.3502	-0.039
Mof_C 	C 	0.7932	0.6392	0.3772	-0.067
Mof_C 	C 	0.7279	0.7213	0.4439	0.055
Mof_C 	C 	0.492	0.7363	0.4547	0.04
Mof_C 	C 	0.5476	0.6529	0.3907	-0.064
Mof_C 	C 	0.9678	0.1604	0.25	0.324
Mof_C 	C 	0.8492	0.0967	0.3067	0.121
Mof_C 	C 	0.8753	0.0307	0.4203	-0.471
Mof_C 	C 	0.7787	0.9518	0.4984	0.486
Mof_C 	C 	0.5546	0.9874	0.2214	0.367
Mof_C 	C 	0.6544	0.8966	0.1498	-0.04
Mof_C 	C 	0.8096	0.8608	0.1228	-0.065
Mof_C 	C 	0.8931	0.7787	0.0561	0.055
Mof_C 	C 	0.683	0.7637	0.0453	0.04
Mof_C 	C 	0.5912	0.8471	0.1093	-0.063
Mof_C 	C 	0.3782	0.3396	0.25	0.31
Mof_C 	C 	0.2526	0.4033	0.1933	0.128
Mof_C 	C 	0.3263	0.4693	0.0797	-0.48
Mof_C 	C 	0.2289	0.5482	0.0016	0.473
Mof_N 	N 	0.42037	0.22976	0.5157	-0.217
Mof_N 	N 	0.16583	0.27024	0.9843	-0.215
Mof_N 	N 	0.57963	0.77024	0.4843	-0.217
Mof_N 	N 	0.83417	0.72976	0.0157	-0.215
Mof_O 	O 	0.33066	0.53058	0.7175	-0.453
Mof_O 	O 	0.10085	0.5079	0.779	-0.42
Mof_O 	O 	0.0808	0.7348	0.7938	-0.539
Mof_O 	O 	0.89726	0.89288	0.7584	-0.428
Mof_O 	O 	0.2998	0.8242	0.6762	-0.51
Mof_O 	O 	0.35852	0.02356	0.497	-0.561
Mof_O 	O 	0.1587	0.1275	0.4331	-0.487
Mof_O 	O 	0.57874	0.96942	0.7825	-0.454
Mof_O 	O 	0.38775	0.9921	0.721	-0.422
Mof_O 	O 	0.6094	0.7652	0.7062	-0.538
Mof_O 	O 	0.54854	0.60712	0.7416	-0.416
Mof_O 	O 	0.8002	0.6758	0.8238	-0.514
Mof_O 	O 	0.87908	0.47644	0.003	-0.549
Mof_O 	O 	0.7193	0.3725	0.0669	-0.478
Mof_O 	O 	0.66934	0.46942	0.2825	-0.453
Mof_O 	O 	0.89915	0.4921	0.221	-0.42
Mof_O 	O 	0.9192	0.2652	0.2062	-0.539
Mof_O 	O 	0.10274	0.10712	0.2416	-0.428
Mof_O 	O 	0.7002	0.1758	0.3238	-0.51
Mof_O 	O 	0.64148	0.97644	0.503	-0.561
Mof_O 	O 	0.8413	0.8725	0.5669	-0.487
Mof_O 	O 	0.42126	0.03058	0.2175	-0.454
Mof_O 	O 	0.61225	0.0079	0.279	-0.422
Mof_O 	O 	0.3906	0.2348	0.2938	-0.538
Mof_O 	O 	0.45146	0.39288	0.2584	-0.416
Mof_O 	O 	0.1998	0.3242	0.1762	-0.514
Mof_O 	O 	0.12092	0.52356	0.997	-0.549
Mof_O 	O 	0.2807	0.6275	0.9331	-0.478
_end
