data_functionalizedCrystal
_audit_creation_method	'EQeq! by Chris Wilmer'
_symmetry_space_group_name_H-M	'P1'
_symmetry_Int_Tables_number	1
_symmetry_cell_setting	triclinic
loop_
_symmetry_equiv_pos_as_xyz
  x,y,z
_cell_length_a	20.5511
_cell_length_b	21.5004
_cell_length_c	14.0681
_cell_angle_alpha	90
_cell_angle_beta	130.547
_cell_angle_gamma	90
loop_
_atom_site_label
_atom_site_type_symbol
_atom_site_fract_x
_atom_site_fract_y
_atom_site_fract_z
_atom_site_charge
Mof_O 	O 	0.8725	0.9778	0.1446	-0.266
Mof_O 	O 	0.9528	0.95969	0.0961	-0.272
Mof_O 	O 	0.5882	0.6176	0.392	-0.304
Mof_O 	O 	0.4928	0.58915	0.4087	-0.312
Mof_C 	C 	0.8346	0.8721	0.9118	0.038
Mof_H 	H 	0.875	0.8875	0.9076	0.033
Mof_C 	C 	0.8288	0.8958	0.9987	-0.094
Mof_C 	C 	0.7685	0.8723	0.005	0.017
Mof_H 	H 	0.7649	0.8889	0.0625	0.035
Mof_C 	C 	0.7135	0.8242	0.9263	-0.105
Mof_H 	H 	0.6745	0.8077	0.9323	0.069
Mof_C 	C 	0.602	0.7149	0.7107	-0.119
Mof_H 	H 	0.5821	0.7181	0.7539	0.075
Mof_C 	C 	0.5659	0.6727	0.6145	0.032
Mof_H 	H 	0.5221	0.6468	0.5939	0.034
Mof_C 	C 	0.5944	0.6683	0.5473	-0.13
Mof_C 	C 	0.6617	0.7061	0.5799	0.049
Mof_H 	H 	0.6814	0.7032	0.5364	-0.001
Mof_C 	C 	0.7744	0.7924	0.7327	0.367
Mof_C 	C 	0.7785	0.8248	0.8315	-0.12
Mof_C 	C 	0.7184	0.8013	0.8379	0.044
Mof_C 	C 	0.6687	0.7529	0.7425	0.047
Mof_C 	C 	0.6988	0.748	0.6777	-0.136
Mof_C 	C 	0.8875	0.9476	0.0848	0.303
Mof_C 	C 	0.5567	0.6223	0.4432	0.307
Mof_C 	C 	0.8601	0.7538	0.7967	-0.678
Mof_H 	H 	0.8538	0.7307	0.7319	0.214
Mof_H 	H 	0.9067	0.7831	0.8321	0.239
Mof_C 	C 	0.8841	0.7112	0.8925	0.632
Mof_H 	H 	0.8367	0.6833	0.8603	-0.164
Mof_H 	H 	0.8965	0.7341	0.9621	-0.156
Mof_C 	C 	0.963	0.673	0.9388	-0.984
Mof_H 	H 	0.9768	0.6442	0.0018	0.317
Mof_H 	H 	0.0106	0.7004	0.9737	0.305
Mof_H 	H 	0.951	0.6505	0.87	0.304
Mof_C 	C 	0.7611	0.8359	0.6365	-0.761
Mof_H 	H 	0.8098	0.8638	0.6789	0.271
Mof_H 	H 	0.7599	0.8114	0.5775	0.247
Mof_C 	C 	0.685	0.8723	0.5686	0.69
Mof_H 	H 	0.6863	0.8979	0.6266	-0.183
Mof_H 	H 	0.6358	0.8449	0.5263	-0.204
Mof_C 	C 	0.6748	0.9157	0.4684	-1.101
Mof_H 	H 	0.6232	0.9397	0.4253	0.337
Mof_H 	H 	0.6717	0.8904	0.4094	0.336
Mof_H 	H 	0.7231	0.9431	0.51	0.369
Mof_O 	O 	0.3725	0.4778	0.1446	-0.289
Mof_O 	O 	0.4528	0.45969	0.0961	-0.302
Mof_O 	O 	0.0882	0.1176	0.392	-0.299
Mof_O 	O 	0.9928	0.08915	0.4087	-0.278
Mof_C 	C 	0.3346	0.3721	0.9118	0.052
Mof_H 	H 	0.375	0.3875	0.9076	0.023
Mof_C 	C 	0.3288	0.3958	0.9987	-0.112
Mof_C 	C 	0.2685	0.3723	0.005	0.03
Mof_H 	H 	0.2649	0.3889	0.0625	0.027
Mof_C 	C 	0.2135	0.3242	0.9263	-0.117
Mof_H 	H 	0.1745	0.3077	0.9323	0.071
Mof_C 	C 	0.102	0.2149	0.7107	-0.118
Mof_H 	H 	0.0821	0.2181	0.7539	0.069
Mof_C 	C 	0.0659	0.1727	0.6145	0.027
Mof_H 	H 	0.0221	0.1468	0.5939	0.026
Mof_C 	C 	0.0944	0.1683	0.5473	-0.124
Mof_C 	C 	0.1617	0.2061	0.5799	0.051
Mof_H 	H 	0.1814	0.2032	0.5364	-0.003
Mof_C 	C 	0.2744	0.2924	0.7327	0.402
Mof_C 	C 	0.2785	0.3248	0.8315	-0.136
Mof_C 	C 	0.2184	0.3013	0.8379	0.052
Mof_C 	C 	0.1687	0.2529	0.7425	0.047
Mof_C 	C 	0.1988	0.248	0.6777	-0.143
Mof_C 	C 	0.3875	0.4476	0.0848	0.312
Mof_C 	C 	0.0567	0.1223	0.4432	0.276
Mof_C 	C 	0.3601	0.2538	0.7967	-0.791
Mof_H 	H 	0.3538	0.2307	0.7319	0.245
Mof_H 	H 	0.4067	0.2831	0.8321	0.266
Mof_C 	C 	0.3841	0.2112	0.8925	0.814
Mof_H 	H 	0.3367	0.1833	0.8603	-0.221
Mof_H 	H 	0.3965	0.2341	0.9621	-0.216
Mof_C 	C 	0.463	0.173	0.9388	-1.26
Mof_H 	H 	0.4768	0.1442	0.0018	0.39
Mof_H 	H 	0.5106	0.2004	0.9737	0.407
Mof_H 	H 	0.451	0.1505	0.87	0.378
Mof_C 	C 	0.2611	0.3359	0.6365	-0.78
Mof_H 	H 	0.3098	0.3638	0.6789	0.273
Mof_H 	H 	0.2599	0.3114	0.5775	0.251
Mof_C 	C 	0.185	0.3723	0.5686	0.695
Mof_H 	H 	0.1863	0.3979	0.6266	-0.189
Mof_H 	H 	0.1358	0.3449	0.5263	-0.207
Mof_C 	C 	0.1748	0.4157	0.4684	-1.089
Mof_H 	H 	0.1232	0.4397	0.4253	0.325
Mof_H 	H 	0.1717	0.3904	0.4094	0.327
Mof_H 	H 	0.2231	0.4431	0.51	0.359
Mof_O 	O 	0.1275	0.9778	0.3554	-0.278
Mof_O 	O 	0.0472	0.95969	0.4039	-0.296
Mof_O 	O 	0.4118	0.6176	0.108	-0.304
Mof_O 	O 	0.5072	0.58915	0.0913	-0.313
Mof_C 	C 	0.1654	0.8721	0.5882	0.064
Mof_H 	H 	0.125	0.8875	0.5924	0.019
Mof_C 	C 	0.1712	0.8958	0.5013	-0.117
Mof_C 	C 	0.2315	0.8723	0.495	0.039
Mof_H 	H 	0.2351	0.8889	0.4375	0.026
Mof_C 	C 	0.2865	0.8242	0.5737	-0.122
Mof_H 	H 	0.3255	0.8077	0.5677	0.074
Mof_C 	C 	0.398	0.7149	0.7893	-0.124
Mof_H 	H 	0.4179	0.7181	0.7461	0.077
Mof_C 	C 	0.4341	0.6727	0.8855	0.039
Mof_H 	H 	0.4779	0.6468	0.9061	0.032
Mof_C 	C 	0.4056	0.6683	0.9527	-0.138
Mof_C 	C 	0.3383	0.7061	0.9201	0.067
Mof_H 	H 	0.3186	0.7032	0.9636	-0.009
Mof_C 	C 	0.2256	0.7924	0.7673	0.452
Mof_C 	C 	0.2215	0.8248	0.6685	-0.153
Mof_C 	C 	0.2816	0.8013	0.6621	0.059
Mof_C 	C 	0.3313	0.7529	0.7575	0.054
Mof_C 	C 	0.3012	0.748	0.8223	-0.161
Mof_C 	C 	0.1125	0.9476	0.4152	0.313
Mof_C 	C 	0.4433	0.6223	0.0568	0.309
Mof_C 	C 	0.1399	0.7538	0.7033	-0.926
Mof_H 	H 	0.1462	0.7307	0.7681	0.282
Mof_H 	H 	0.0933	0.7831	0.6679	0.299
Mof_C 	C 	0.1159	0.7112	0.6075	1.023
Mof_H 	H 	0.1633	0.6833	0.6397	-0.283
Mof_H 	H 	0.1035	0.7341	0.5379	-0.283
Mof_C 	C 	0.037	0.673	0.5612	-1.568
Mof_H 	H 	0.0232	0.6442	0.4982	0.481
Mof_H 	H 	0.9894	0.7004	0.5263	0.517
Mof_H 	H 	0.049	0.6505	0.63	0.464
Mof_C 	C 	0.2389	0.8359	0.8635	-0.832
Mof_H 	H 	0.1902	0.8638	0.8211	0.289
Mof_H 	H 	0.2401	0.8114	0.9225	0.266
Mof_C 	C 	0.315	0.8723	0.9314	0.742
Mof_H 	H 	0.3137	0.8979	0.8734	-0.2
Mof_H 	H 	0.3642	0.8449	0.9737	-0.221
Mof_C 	C 	0.3252	0.9157	0.0316	-1.136
Mof_H 	H 	0.3768	0.9397	0.0747	0.348
Mof_H 	H 	0.3283	0.8904	0.0906	0.346
Mof_H 	H 	0.2769	0.9431	0.99	0.377
Mof_O 	O 	0.6275	0.4778	0.3554	-0.289
Mof_O 	O 	0.5472	0.45969	0.4039	-0.302
Mof_O 	O 	0.9118	0.1176	0.108	-0.301
Mof_O 	O 	0.0072	0.08915	0.0913	-0.332
Mof_C 	C 	0.6654	0.3721	0.5882	0.062
Mof_H 	H 	0.625	0.3875	0.5924	0.019
Mof_C 	C 	0.6712	0.3958	0.5013	-0.118
Mof_C 	C 	0.7315	0.3723	0.495	0.04
Mof_H 	H 	0.7351	0.3889	0.4375	0.024
Mof_C 	C 	0.7865	0.3242	0.5737	-0.122
Mof_H 	H 	0.8255	0.3077	0.5677	0.075
Mof_C 	C 	0.898	0.2149	0.7893	-0.118
Mof_H 	H 	0.9179	0.2181	0.7461	0.08
Mof_C 	C 	0.9341	0.1727	0.8855	0.036
Mof_H 	H 	0.9779	0.1468	0.9061	0.045
Mof_C 	C 	0.9056	0.1683	0.9527	-0.13
Mof_C 	C 	0.8383	0.2061	0.9201	0.06
Mof_H 	H 	0.8186	0.2032	0.9636	-0.002
Mof_C 	C 	0.7256	0.2924	0.7673	0.43
Mof_C 	C 	0.7215	0.3248	0.6685	-0.147
Mof_C 	C 	0.7816	0.3013	0.6621	0.059
Mof_C 	C 	0.8313	0.2529	0.7575	0.05
Mof_C 	C 	0.8012	0.248	0.8223	-0.152
Mof_C 	C 	0.6125	0.4476	0.4152	0.315
Mof_C 	C 	0.9433	0.1223	0.0568	0.326
Mof_C 	C 	0.6399	0.2538	0.7033	-0.833
Mof_H 	H 	0.6462	0.2307	0.7681	0.258
Mof_H 	H 	0.5933	0.2831	0.6679	0.278
Mof_C 	C 	0.6159	0.2112	0.6075	0.866
Mof_H 	H 	0.6633	0.1833	0.6397	-0.236
Mof_H 	H 	0.6035	0.2341	0.5379	-0.232
Mof_C 	C 	0.537	0.173	0.5612	-1.325
Mof_H 	H 	0.5232	0.1442	0.4982	0.413
Mof_H 	H 	0.4894	0.2004	0.5263	0.426
Mof_H 	H 	0.549	0.1505	0.63	0.398
Mof_C 	C 	0.7389	0.3359	0.8635	-0.836
Mof_H 	H 	0.6902	0.3638	0.8211	0.29
Mof_H 	H 	0.7401	0.3114	0.9225	0.27
Mof_C 	C 	0.815	0.3723	0.9314	0.767
Mof_H 	H 	0.8137	0.3979	0.8734	-0.207
Mof_H 	H 	0.8642	0.3449	0.9737	-0.225
Mof_C 	C 	0.8252	0.4157	0.0316	-1.186
Mof_H 	H 	0.8768	0.4397	0.0747	0.362
Mof_H 	H 	0.8283	0.3904	0.0906	0.362
Mof_H 	H 	0.7769	0.4431	0.99	0.392
Mof_O 	O 	0.1275	0.0222	0.8554	-0.301
Mof_O 	O 	0.0472	0.04031	0.9039	-0.315
Mof_O 	O 	0.4118	0.3824	0.608	-0.304
Mof_O 	O 	0.5072	0.41085	0.5913	-0.313
Mof_C 	C 	0.1654	0.1279	0.0882	0.067
Mof_H 	H 	0.125	0.1125	0.0924	0.014
Mof_C 	C 	0.1712	0.1042	0.0013	-0.131
Mof_C 	C 	0.2315	0.1277	0.995	0.049
Mof_H 	H 	0.2351	0.1111	0.9375	0.018
Mof_C 	C 	0.2865	0.1758	0.0737	-0.133
Mof_H 	H 	0.3255	0.1923	0.0677	0.075
Mof_C 	C 	0.398	0.2851	0.2893	-0.122
Mof_H 	H 	0.4179	0.2819	0.2461	0.075
Mof_C 	C 	0.4341	0.3273	0.3855	0.037
Mof_H 	H 	0.4779	0.3532	0.4061	0.032
Mof_C 	C 	0.4056	0.3317	0.4527	-0.136
Mof_C 	C 	0.3383	0.2939	0.4201	0.064
Mof_H 	H 	0.3186	0.2968	0.4636	-0.007
Mof_C 	C 	0.2256	0.2076	0.2673	0.442
Mof_C 	C 	0.2215	0.1752	0.1685	-0.154
Mof_C 	C 	0.2816	0.1987	0.1621	0.061
Mof_C 	C 	0.3313	0.2471	0.2575	0.05
Mof_C 	C 	0.3012	0.252	0.3223	-0.156
Mof_C 	C 	0.1125	0.0524	0.9152	0.319
Mof_C 	C 	0.4433	0.3777	0.5568	0.309
Mof_C 	C 	0.1399	0.2462	0.2033	-0.896
Mof_H 	H 	0.1462	0.2693	0.2681	0.274
Mof_H 	H 	0.0933	0.2169	0.1679	0.291
Mof_C 	C 	0.1159	0.2888	0.1075	0.977
Mof_H 	H 	0.1633	0.3167	0.1397	-0.269
Mof_H 	H 	0.1035	0.2659	0.0379	-0.269
Mof_C 	C 	0.037	0.327	0.0612	-1.5
Mof_H 	H 	0.0232	0.3558	0.9982	0.459
Mof_H 	H 	0.9894	0.2996	0.0263	0.493
Mof_H 	H 	0.049	0.3495	0.13	0.445
Mof_C 	C 	0.2389	0.1641	0.3635	-0.819
Mof_H 	H 	0.1902	0.1362	0.3211	0.283
Mof_H 	H 	0.2401	0.1886	0.4225	0.263
Mof_C 	C 	0.315	0.1277	0.4314	0.728
Mof_H 	H 	0.3137	0.1021	0.3734	-0.201
Mof_H 	H 	0.3642	0.1551	0.4737	-0.217
Mof_C 	C 	0.3252	0.0843	0.5316	-1.117
Mof_H 	H 	0.3768	0.0603	0.5747	0.334
Mof_H 	H 	0.3283	0.1096	0.5906	0.337
Mof_H 	H 	0.2769	0.0569	0.49	0.363
Mof_O 	O 	0.6275	0.5222	0.8554	-0.291
Mof_O 	O 	0.5472	0.54031	0.9039	-0.303
Mof_O 	O 	0.9118	0.8824	0.608	-0.299
Mof_O 	O 	0.0072	0.91085	0.5913	-0.329
Mof_C 	C 	0.6654	0.6279	0.0882	0.066
Mof_H 	H 	0.625	0.6125	0.0924	0.018
Mof_C 	C 	0.6712	0.6042	0.0013	-0.128
Mof_C 	C 	0.7315	0.6277	0.995	0.051
Mof_H 	H 	0.7351	0.6111	0.9375	0.021
Mof_C 	C 	0.7865	0.6758	0.0737	-0.131
Mof_H 	H 	0.8255	0.6923	0.0677	0.076
Mof_C 	C 	0.898	0.7851	0.2893	-0.121
Mof_H 	H 	0.9179	0.7819	0.2461	0.08
Mof_C 	C 	0.9341	0.8273	0.3855	0.041
Mof_H 	H 	0.9779	0.8532	0.4061	0.043
Mof_C 	C 	0.9056	0.8317	0.4527	-0.139
Mof_C 	C 	0.8383	0.7939	0.4201	0.064
Mof_H 	H 	0.8186	0.7968	0.4636	-0.005
Mof_C 	C 	0.7256	0.7076	0.2673	0.426
Mof_C 	C 	0.7215	0.6752	0.1685	-0.149
Mof_C 	C 	0.7816	0.6987	0.1621	0.061
Mof_C 	C 	0.8313	0.7471	0.2575	0.05
Mof_C 	C 	0.8012	0.752	0.3223	-0.153
Mof_C 	C 	0.6125	0.5524	0.9152	0.32
Mof_C 	C 	0.9433	0.8777	0.5568	0.339
Mof_C 	C 	0.6399	0.7462	0.2033	-0.833
Mof_H 	H 	0.6462	0.7693	0.2681	0.257
Mof_H 	H 	0.5933	0.7169	0.1679	0.278
Mof_C 	C 	0.6159	0.7888	0.1075	0.871
Mof_H 	H 	0.6633	0.8167	0.1397	-0.235
Mof_H 	H 	0.6035	0.7659	0.0379	-0.233
Mof_C 	C 	0.537	0.827	0.0612	-1.335
Mof_H 	H 	0.5232	0.8558	0.9982	0.421
Mof_H 	H 	0.4894	0.7996	0.0263	0.43
Mof_H 	H 	0.549	0.8495	0.13	0.403
Mof_C 	C 	0.7389	0.6641	0.3635	-0.818
Mof_H 	H 	0.6902	0.6362	0.3211	0.284
Mof_H 	H 	0.7401	0.6886	0.4225	0.264
Mof_C 	C 	0.815	0.6277	0.4314	0.738
Mof_H 	H 	0.8137	0.6021	0.3734	-0.2
Mof_H 	H 	0.8642	0.6551	0.4737	-0.219
Mof_C 	C 	0.8252	0.5843	0.5316	-1.143
Mof_H 	H 	0.8768	0.5603	0.5747	0.351
Mof_H 	H 	0.8283	0.6096	0.5906	0.351
Mof_H 	H 	0.7769	0.5569	0.49	0.377
Mof_O 	O 	0.8725	0.0222	0.6446	-0.288
Mof_O 	O 	0.9528	0.04031	0.5961	-0.287
Mof_O 	O 	0.5882	0.3824	0.892	-0.304
Mof_O 	O 	0.4928	0.41085	0.9087	-0.312
Mof_C 	C 	0.8346	0.1279	0.4118	0.042
Mof_H 	H 	0.875	0.1125	0.4076	0.029
Mof_C 	C 	0.8288	0.1042	0.4987	-0.107
Mof_C 	C 	0.7685	0.1277	0.505	0.028
Mof_H 	H 	0.7649	0.1111	0.5625	0.026
Mof_C 	C 	0.7135	0.1758	0.4263	-0.115
Mof_H 	H 	0.6745	0.1923	0.4323	0.07
Mof_C 	C 	0.602	0.2851	0.2107	-0.119
Mof_H 	H 	0.5821	0.2819	0.2539	0.074
Mof_C 	C 	0.5659	0.3273	0.1145	0.033
Mof_H 	H 	0.5221	0.3532	0.0939	0.033
Mof_C 	C 	0.5944	0.3317	0.0473	-0.134
Mof_C 	C 	0.6617	0.2939	0.0799	0.049
Mof_H 	H 	0.6814	0.2968	0.0364	-0.003
Mof_C 	C 	0.7744	0.2076	0.2327	0.361
Mof_C 	C 	0.7785	0.1752	0.3315	-0.123
Mof_C 	C 	0.7184	0.1987	0.3379	0.046
Mof_C 	C 	0.6687	0.2471	0.2425	0.045
Mof_C 	C 	0.6988	0.252	0.1777	-0.135
Mof_C 	C 	0.8875	0.0524	0.5848	0.309
Mof_C 	C 	0.5567	0.3777	0.9432	0.31
Mof_C 	C 	0.8601	0.2462	0.2967	-0.698
Mof_H 	H 	0.8538	0.2693	0.2319	0.219
Mof_H 	H 	0.9067	0.2169	0.3321	0.245
Mof_C 	C 	0.8841	0.2888	0.3925	0.675
Mof_H 	H 	0.8367	0.3167	0.3603	-0.177
Mof_H 	H 	0.8965	0.2659	0.4621	-0.169
Mof_C 	C 	0.963	0.327	0.4388	-1.055
Mof_H 	H 	0.9768	0.3558	0.5018	0.343
Mof_H 	H 	0.0106	0.2996	0.4737	0.33
Mof_H 	H 	0.951	0.3495	0.37	0.324
Mof_C 	C 	0.7611	0.1641	0.1365	-0.719
Mof_H 	H 	0.8098	0.1362	0.1789	0.255
Mof_H 	H 	0.7599	0.1886	0.0775	0.233
Mof_C 	C 	0.685	0.1277	0.0686	0.622
Mof_H 	H 	0.6863	0.1021	0.1266	-0.169
Mof_H 	H 	0.6358	0.1551	0.0263	-0.186
Mof_C 	C 	0.6748	0.0843	0.9684	-0.997
Mof_H 	H 	0.6232	0.0603	0.9253	0.299
Mof_H 	H 	0.6717	0.1096	0.9094	0.303
Mof_H 	H 	0.7231	0.0569	0.01	0.324
Mof_O 	O 	0.3725	0.5222	0.6446	-0.289
Mof_O 	O 	0.4528	0.54031	0.5961	-0.302
Mof_O 	O 	0.0882	0.8824	0.892	-0.295
Mof_O 	O 	0.9928	0.91085	0.9087	-0.266
Mof_C 	C 	0.3346	0.6279	0.4118	0.057
Mof_H 	H 	0.375	0.6125	0.4076	0.021
Mof_C 	C 	0.3288	0.6042	0.4987	-0.117
Mof_C 	C 	0.2685	0.6277	0.505	0.037
Mof_H 	H 	0.2649	0.6111	0.5625	0.025
Mof_C 	C 	0.2135	0.6758	0.4263	-0.122
Mof_H 	H 	0.1745	0.6923	0.4323	0.073
Mof_C 	C 	0.102	0.7851	0.2107	-0.114
Mof_H 	H 	0.0821	0.7819	0.2539	0.068
Mof_C 	C 	0.0659	0.8273	0.1145	0.024
Mof_H 	H 	0.0221	0.8532	0.0939	0.029
Mof_C 	C 	0.0944	0.8317	0.0473	-0.115
Mof_C 	C 	0.1617	0.7939	0.0799	0.05
Mof_H 	H 	0.1814	0.7968	0.0364	-0.002
Mof_C 	C 	0.2744	0.7076	0.2327	0.412
Mof_C 	C 	0.2785	0.6752	0.3315	-0.141
Mof_C 	C 	0.2184	0.6987	0.3379	0.056
Mof_C 	C 	0.1687	0.7471	0.2425	0.046
Mof_C 	C 	0.1988	0.752	0.1777	-0.143
Mof_C 	C 	0.3875	0.5524	0.5848	0.314
Mof_C 	C 	0.0567	0.8777	0.9432	0.267
Mof_C 	C 	0.3601	0.7462	0.2967	-0.819
Mof_H 	H 	0.3538	0.7693	0.2319	0.253
Mof_H 	H 	0.4067	0.7169	0.3321	0.274
Mof_C 	C 	0.3841	0.7888	0.3925	0.856
Mof_H 	H 	0.3367	0.8167	0.3603	-0.231
Mof_H 	H 	0.3965	0.7659	0.4621	-0.229
Mof_C 	C 	0.463	0.827	0.4388	-1.321
Mof_H 	H 	0.4768	0.8558	0.5018	0.416
Mof_H 	H 	0.5106	0.7996	0.4737	0.425
Mof_H 	H 	0.451	0.8495	0.37	0.398
Mof_C 	C 	0.2611	0.6641	0.1365	-0.792
Mof_H 	H 	0.3098	0.6362	0.1789	0.277
Mof_H 	H 	0.2599	0.6886	0.0775	0.255
Mof_C 	C 	0.185	0.6277	0.0686	0.707
Mof_H 	H 	0.1863	0.6021	0.1266	-0.193
Mof_H 	H 	0.1358	0.6551	0.0263	-0.209
Mof_C 	C 	0.1748	0.5843	0.9684	-1.104
Mof_H 	H 	0.1232	0.5603	0.9253	0.328
Mof_H 	H 	0.1717	0.6096	0.9094	0.331
Mof_H 	H 	0.2231	0.5569	0.01	0.363
Mof_Cd	Cd	2.40687e-17	0.04131	0.25	0.433
Mof_Cd	Cd	0.5	0.54131	0.25	0.471
Mof_Cd	Cd	3.17633e-33	0.95869	0.75	0.465
Mof_Cd	Cd	0.5	0.45869	0.75	0.471
Mof_Cd	Cd	-0	0	-0	0.381
Mof_Cd	Cd	0.5	0.5	-0	0.422
Mof_Cd	Cd	4.81373e-17	0	0.5	0.383
Mof_Cd	Cd	0.5	0.5	0.5	0.424
_end
