data_functionalizedCrystal
_audit_creation_method	'EQeq! by Chris Wilmer'
_symmetry_space_group_name_H-M	'P1'
_symmetry_Int_Tables_number	1
_symmetry_cell_setting	triclinic
loop_
_symmetry_equiv_pos_as_xyz
  x,y,z
_cell_length_a	18.8042
_cell_length_b	22.234
_cell_length_c	25.9645
_cell_angle_alpha	90
_cell_angle_beta	92.098
_cell_angle_gamma	90
loop_
_atom_site_label
_atom_site_type_symbol
_atom_site_fract_x
_atom_site_fract_y
_atom_site_fract_z
_atom_site_charge
Mof_Cd	Cd	0.64359	0.55386	0.4044	0.447
Mof_Cd	Cd	0.74496	0.64604	0.49614	0.48
Mof_Cd	Cd	0.84619	0.56799	0.59866	0.442
Mof_Cd	Cd	0.49323	0.87689	0.74549	0.345
Mof_Cd	Cd	0.85518	0.31237	0.09851	0.443
Mof_Cd	Cd	0.74807	0.39665	0.00263	0.479
Mof_Cd	Cd	0.84723	0.80943	0.09581	0.447
Mof_Cd	Cd	0.85641	0.05386	0.5956	0.447
Mof_Cd	Cd	0.75504	0.14604	0.50386	0.48
Mof_Cd	Cd	0.65381	0.06799	0.40134	0.442
Mof_Cd	Cd	0.00677	0.37689	0.25451	0.345
Mof_Cd	Cd	0.64482	0.81237	0.90149	0.443
Mof_Cd	Cd	0.75193	0.89665	0.99737	0.477
Mof_Cd	Cd	0.65277	0.30943	0.90419	0.446
Mof_Cd	Cd	0.35641	0.44614	0.5956	0.446
Mof_Cd	Cd	0.25504	0.35396	0.50386	0.479
Mof_Cd	Cd	0.15381	0.43201	0.40134	0.441
Mof_Cd	Cd	0.50677	0.12311	0.25451	0.344
Mof_Cd	Cd	0.14482	0.68763	0.90149	0.442
Mof_Cd	Cd	0.25193	0.60335	0.99737	0.478
Mof_Cd	Cd	0.15277	0.19057	0.90419	0.446
Mof_Cd	Cd	0.14359	0.94614	0.4044	0.446
Mof_Cd	Cd	0.24496	0.85396	0.49614	0.479
Mof_Cd	Cd	0.34619	0.93201	0.59866	0.441
Mof_Cd	Cd	0.99323	0.62311	0.74549	0.344
Mof_Cd	Cd	0.35518	0.18763	0.09851	0.442
Mof_Cd	Cd	0.24807	0.10335	0.00263	0.477
Mof_Cd	Cd	0.34723	0.69057	0.09581	0.446
Mof_H 	H 	0.6453	0.5604	0.2165	0.064
Mof_H 	H 	0.6729	0.5273	0.1357	0.051
Mof_H 	H 	0.7519	0.3749	0.1997	0.06
Mof_H 	H 	0.7216	0.4082	0.2793	0.06
Mof_H 	H 	0.7481	0.6194	0.2973	0.059
Mof_H 	H 	0.7735	0.6566	0.2182	0.061
Mof_H 	H 	0.8406	0.8103	0.2827	0.064
Mof_H 	H 	0.8158	0.7739	0.3628	0.051
Mof_H 	H 	0.461	0.7044	0.4187	0.058
Mof_H 	H 	0.3922	0.7789	0.4544	0.062
Mof_H 	H 	0.5202	0.779	0.581	0.053
Mof_H 	H 	0.5899	0.7066	0.5443	0.062
Mof_H 	H 	0.6827	0.7957	0.616	0.059
Mof_H 	H 	0.6483	0.8407	0.6913	0.04
Mof_H 	H 	0.6908	0.6879	0.7681	0.053
Mof_H 	H 	0.7264	0.6428	0.6932	0.063
Mof_H 	H 	0.0319	0.464	0.0817	0.054
Mof_H 	H 	0.898	0.4641	0.9575	0.062
Mof_H 	H 	0.8008	0.4321	0.7285	0.053
Mof_H 	H 	0.7714	0.3863	0.8044	0.066
Mof_H 	H 	0.8016	0.5431	0.8792	0.059
Mof_H 	H 	0.8375	0.5874	0.8033	0.04
Mof_H 	H 	0.4591	0.4511	0.9258	0.057
Mof_H 	H 	0.6075	0.4737	0.0389	0.062
Mof_H 	H 	0.6626	0.3938	0.442	0.081
Mof_H 	H 	0.6993	0.3085	0.4853	0.055
Mof_H 	H 	0.777	0.3135	0.5562	0.061
Mof_H 	H 	0.8212	0.4043	0.5857	0.07
Mof_H 	H 	0.6896	0.1488	0.9237	0.084
Mof_H 	H 	0.7374	0.0615	0.9565	0.059
Mof_H 	H 	0.8104	0.0607	0.0298	0.057
Mof_H 	H 	0.8419	0.1487	0.0712	0.069
Mof_H 	H 	0.8547	0.0604	0.7835	0.064
Mof_H 	H 	0.8271	0.0273	0.8643	0.051
Mof_H 	H 	0.7481	0.8749	0.8003	0.06
Mof_H 	H 	0.7784	0.9082	0.7207	0.06
Mof_H 	H 	0.7519	0.1194	0.7027	0.059
Mof_H 	H 	0.7265	0.1566	0.7818	0.061
Mof_H 	H 	0.6594	0.3103	0.7173	0.064
Mof_H 	H 	0.6842	0.2739	0.6372	0.051
Mof_H 	H 	0.039	0.2044	0.5813	0.058
Mof_H 	H 	0.1078	0.2789	0.5456	0.063
Mof_H 	H 	0.9798	0.279	0.419	0.053
Mof_H 	H 	0.9101	0.2066	0.4557	0.062
Mof_H 	H 	0.8173	0.2957	0.384	0.059
Mof_H 	H 	0.8517	0.3407	0.3087	0.04
Mof_H 	H 	0.8092	0.1879	0.2319	0.053
Mof_H 	H 	0.7736	0.1428	0.3068	0.063
Mof_H 	H 	0.4681	0.964	0.9183	0.054
Mof_H 	H 	0.602	0.9641	0.0425	0.062
Mof_H 	H 	0.6992	0.9321	0.2715	0.052
Mof_H 	H 	0.7286	0.8863	0.1956	0.066
Mof_H 	H 	0.6984	0.0431	0.1208	0.059
Mof_H 	H 	0.6625	0.0874	0.1967	0.04
Mof_H 	H 	0.0409	0.9511	0.0742	0.057
Mof_H 	H 	0.8925	0.9737	0.9611	0.062
Mof_H 	H 	0.8374	0.8938	0.558	0.081
Mof_H 	H 	0.8007	0.8085	0.5147	0.055
Mof_H 	H 	0.723	0.8135	0.4438	0.062
Mof_H 	H 	0.6788	0.9043	0.4143	0.071
Mof_H 	H 	0.8104	0.6488	0.0763	0.084
Mof_H 	H 	0.7626	0.5615	0.0435	0.059
Mof_H 	H 	0.6896	0.5607	0.9702	0.058
Mof_H 	H 	0.6581	0.6487	0.9288	0.069
Mof_H 	H 	0.3547	0.4396	0.7835	0.064
Mof_H 	H 	0.3271	0.4727	0.8643	0.051
Mof_H 	H 	0.2481	0.6251	0.8003	0.06
Mof_H 	H 	0.2784	0.5918	0.7207	0.06
Mof_H 	H 	0.2519	0.3806	0.7027	0.059
Mof_H 	H 	0.2265	0.3434	0.7818	0.061
Mof_H 	H 	0.1594	0.1897	0.7173	0.064
Mof_H 	H 	0.1842	0.2261	0.6372	0.051
Mof_H 	H 	0.539	0.2956	0.5813	0.058
Mof_H 	H 	0.6078	0.2211	0.5456	0.062
Mof_H 	H 	0.4798	0.221	0.419	0.053
Mof_H 	H 	0.4101	0.2934	0.4557	0.062
Mof_H 	H 	0.3173	0.2043	0.384	0.059
Mof_H 	H 	0.3517	0.1593	0.3087	0.04
Mof_H 	H 	0.3092	0.3121	0.2319	0.053
Mof_H 	H 	0.2736	0.3572	0.3068	0.063
Mof_H 	H 	0.9681	0.536	0.9183	0.054
Mof_H 	H 	0.102	0.5359	0.0425	0.062
Mof_H 	H 	0.1992	0.5679	0.2715	0.053
Mof_H 	H 	0.2286	0.6137	0.1956	0.066
Mof_H 	H 	0.1984	0.4569	0.1208	0.059
Mof_H 	H 	0.1625	0.4126	0.1967	0.04
Mof_H 	H 	0.5409	0.5489	0.0742	0.057
Mof_H 	H 	0.3925	0.5263	0.9611	0.062
Mof_H 	H 	0.3374	0.6062	0.558	0.081
Mof_H 	H 	0.3007	0.6915	0.5147	0.055
Mof_H 	H 	0.223	0.6865	0.4438	0.061
Mof_H 	H 	0.1788	0.5957	0.4143	0.07
Mof_H 	H 	0.3104	0.8512	0.0763	0.084
Mof_H 	H 	0.2626	0.9385	0.0435	0.059
Mof_H 	H 	0.1896	0.9393	0.9702	0.057
Mof_H 	H 	0.1581	0.8513	0.9288	0.069
Mof_H 	H 	0.1453	0.9396	0.2165	0.064
Mof_H 	H 	0.1729	0.9727	0.1357	0.051
Mof_H 	H 	0.2519	0.1251	0.1997	0.06
Mof_H 	H 	0.2216	0.0918	0.2793	0.06
Mof_H 	H 	0.2481	0.8806	0.2973	0.059
Mof_H 	H 	0.2735	0.8434	0.2182	0.061
Mof_H 	H 	0.3406	0.6897	0.2827	0.064
Mof_H 	H 	0.3158	0.7261	0.3628	0.051
Mof_H 	H 	0.961	0.7956	0.4187	0.058
Mof_H 	H 	0.8922	0.7211	0.4544	0.063
Mof_H 	H 	0.0202	0.721	0.581	0.053
Mof_H 	H 	0.0899	0.7934	0.5443	0.062
Mof_H 	H 	0.1827	0.7043	0.616	0.059
Mof_H 	H 	0.1483	0.6593	0.6913	0.04
Mof_H 	H 	0.1908	0.8121	0.7681	0.053
Mof_H 	H 	0.2264	0.8572	0.6932	0.063
Mof_H 	H 	0.5319	0.036	0.0817	0.054
Mof_H 	H 	0.398	0.0359	0.9575	0.062
Mof_H 	H 	0.3008	0.0679	0.7285	0.052
Mof_H 	H 	0.2714	0.1137	0.8044	0.066
Mof_H 	H 	0.3016	0.9569	0.8792	0.059
Mof_H 	H 	0.3375	0.9126	0.8033	0.04
Mof_H 	H 	0.9591	0.0489	0.9258	0.057
Mof_H 	H 	0.1075	0.0263	0.0389	0.062
Mof_H 	H 	0.1626	0.1062	0.442	0.081
Mof_H 	H 	0.1993	0.1915	0.4853	0.055
Mof_H 	H 	0.277	0.1865	0.5562	0.062
Mof_H 	H 	0.3212	0.0957	0.5857	0.071
Mof_H 	H 	0.1896	0.3512	0.9237	0.084
Mof_H 	H 	0.2374	0.4385	0.9565	0.059
Mof_H 	H 	0.3104	0.4393	0.0298	0.058
Mof_H 	H 	0.3419	0.3513	0.0712	0.069
Mof_C 	C 	0.6596	0.509	0.3092	0.277
Mof_C 	C 	0.6787	0.487	0.2562	-0.037
Mof_C 	C 	0.6659	0.5227	0.2127	-0.036
Mof_C 	C 	0.683	0.5035	0.1645	-0.017
Mof_C 	C 	0.716	0.4471	0.1594	-0.055
Mof_C 	C 	0.73	0.4122	0.2029	-0.017
Mof_C 	C 	0.7117	0.432	0.2504	-0.033
Mof_C 	C 	0.7355	0.4244	0.1072	0.299
Mof_C 	C 	0.7591	0.6693	0.3909	0.301
Mof_C 	C 	0.7765	0.6928	0.339	-0.057
Mof_C 	C 	0.7661	0.6582	0.2947	-0.014
Mof_C 	C 	0.7819	0.6803	0.2473	-0.032
Mof_C 	C 	0.8101	0.7373	0.2418	-0.037
Mof_C 	C 	0.8218	0.7718	0.2857	-0.035
Mof_C 	C 	0.8064	0.7503	0.3337	-0.014
Mof_C 	C 	0.8262	0.7617	0.1892	0.28
Mof_C 	C 	0.5787	0.6511	0.4537	0.299
Mof_C 	C 	0.5333	0.6991	0.4773	-0.05
Mof_C 	C 	0.4736	0.72	0.451	-0.023
Mof_C 	C 	0.432	0.7642	0.4726	-0.028
Mof_C 	C 	0.4495	0.7866	0.521	-0.051
Mof_C 	C 	0.5085	0.7646	0.5481	-0.022
Mof_C 	C 	0.5501	0.7213	0.5261	-0.027
Mof_C 	C 	0.4064	0.8374	0.5429	0.298
Mof_C 	C 	0.7308	0.685	0.5981	0.292
Mof_C 	C 	0.7092	0.7142	0.6467	-0.047
Mof_C 	C 	0.6847	0.774	0.6466	-0.034
Mof_C 	C 	0.6634	0.8009	0.6916	-0.017
Mof_C 	C 	0.6648	0.7686	0.7369	-0.065
Mof_C 	C 	0.6891	0.7094	0.7374	-0.015
Mof_C 	C 	0.7107	0.6825	0.6925	-0.031
Mof_C 	C 	0.6406	0.7971	0.7867	0.31
Mof_C 	C 	0.9158	0.4079	0.0464	0.297
Mof_C 	C 	0.9584	0.4562	0.0229	-0.054
Mof_C 	C 	0.0192	0.4782	0.0489	-0.021
Mof_C 	C 	0.939	0.4783	0.9746	-0.025
Mof_C 	C 	0.8424	0.5438	0.7081	0.3
Mof_C 	C 	0.8224	0.5145	0.7584	-0.063
Mof_C 	C 	0.802	0.4542	0.759	-0.012
Mof_C 	C 	0.7835	0.4268	0.8043	-0.032
Mof_C 	C 	0.783	0.4598	0.85	-0.043
Mof_C 	C 	0.8025	0.5204	0.8492	-0.035
Mof_C 	C 	0.8232	0.5473	0.8034	-0.017
Mof_C 	C 	0.7633	0.4306	0.8998	0.296
Mof_C 	C 	0.5849	0.4058	0.9557	0.299
Mof_C 	C 	0.542	0.4554	0.9782	-0.053
Mof_C 	C 	0.4758	0.4708	0.9554	-0.022
Mof_C 	C 	0.5643	0.4845	0.0229	-0.027
Mof_C 	C 	0.72	0.4513	0.4874	0.078
Mof_C 	C 	0.6941	0.3964	0.4704	-0.098
Mof_C 	C 	0.7161	0.3458	0.4964	-0.009
Mof_C 	C 	0.7633	0.3489	0.5395	-0.027
Mof_C 	C 	0.7897	0.4024	0.5573	-0.083
Mof_C 	C 	0.7673	0.4546	0.531	0.067
Mof_C 	C 	0.7389	0.2034	0.9769	0.082
Mof_C 	C 	0.7202	0.1495	0.9526	-0.096
Mof_C 	C 	0.7484	0.0978	0.9728	-0.014
Mof_C 	C 	0.7933	0.0972	0.0171	-0.022
Mof_C 	C 	0.8122	0.1491	0.0417	-0.085
Mof_C 	C 	0.7855	0.203	0.0213	0.063
Mof_C 	C 	0.8404	0.009	0.6908	0.277
Mof_C 	C 	0.8213	0.987	0.7438	-0.037
Mof_C 	C 	0.8341	0.0227	0.7873	-0.036
Mof_C 	C 	0.817	0.0035	0.8355	-0.016
Mof_C 	C 	0.784	0.9471	0.8406	-0.055
Mof_C 	C 	0.77	0.9122	0.7971	-0.017
Mof_C 	C 	0.7883	0.932	0.7496	-0.033
Mof_C 	C 	0.7645	0.9244	0.8928	0.299
Mof_C 	C 	0.7409	0.1693	0.6091	0.301
Mof_C 	C 	0.7235	0.1928	0.661	-0.057
Mof_C 	C 	0.7339	0.1582	0.7053	-0.014
Mof_C 	C 	0.7181	0.1803	0.7527	-0.032
Mof_C 	C 	0.6899	0.2373	0.7582	-0.037
Mof_C 	C 	0.6782	0.2718	0.7143	-0.035
Mof_C 	C 	0.6936	0.2503	0.6663	-0.014
Mof_C 	C 	0.6738	0.2617	0.8108	0.28
Mof_C 	C 	0.9213	0.1511	0.5463	0.299
Mof_C 	C 	0.9667	0.1991	0.5227	-0.051
Mof_C 	C 	0.0264	0.22	0.549	-0.022
Mof_C 	C 	0.068	0.2642	0.5274	-0.029
Mof_C 	C 	0.0505	0.2866	0.479	-0.051
Mof_C 	C 	0.9915	0.2646	0.4519	-0.022
Mof_C 	C 	0.9499	0.2213	0.4739	-0.026
Mof_C 	C 	0.0936	0.3374	0.4571	0.298
Mof_C 	C 	0.7692	0.185	0.4019	0.292
Mof_C 	C 	0.7908	0.2142	0.3533	-0.047
Mof_C 	C 	0.8153	0.274	0.3534	-0.034
Mof_C 	C 	0.8366	0.3009	0.3084	-0.017
Mof_C 	C 	0.8352	0.2686	0.2631	-0.065
Mof_C 	C 	0.8109	0.2094	0.2626	-0.015
Mof_C 	C 	0.7893	0.1825	0.3075	-0.031
Mof_C 	C 	0.8594	0.2971	0.2133	0.31
Mof_C 	C 	0.5842	0.9079	0.9536	0.298
Mof_C 	C 	0.5416	0.9562	0.9771	-0.055
Mof_C 	C 	0.4808	0.9782	0.9511	-0.021
Mof_C 	C 	0.561	0.9783	0.0254	-0.024
Mof_C 	C 	0.6576	0.0438	0.2919	0.3
Mof_C 	C 	0.6776	0.0145	0.2416	-0.064
Mof_C 	C 	0.698	0.9542	0.241	-0.011
Mof_C 	C 	0.7165	0.9268	0.1957	-0.033
Mof_C 	C 	0.717	0.9598	0.15	-0.042
Mof_C 	C 	0.6975	0.0204	0.1508	-0.037
Mof_C 	C 	0.6768	0.0473	0.1966	-0.016
Mof_C 	C 	0.7367	0.9306	0.1002	0.296
Mof_C 	C 	0.9151	0.9058	0.0443	0.299
Mof_C 	C 	0.958	0.9554	0.0218	-0.051
Mof_C 	C 	0.0242	0.9708	0.0446	-0.023
Mof_C 	C 	0.9357	0.9845	0.9771	-0.027
Mof_C 	C 	0.78	0.9513	0.5126	0.078
Mof_C 	C 	0.8059	0.8964	0.5296	-0.098
Mof_C 	C 	0.7839	0.8458	0.5036	-0.009
Mof_C 	C 	0.7367	0.8489	0.4605	-0.027
Mof_C 	C 	0.7103	0.9024	0.4427	-0.083
Mof_C 	C 	0.7327	0.9546	0.469	0.068
Mof_C 	C 	0.7611	0.7034	0.0231	0.083
Mof_C 	C 	0.7798	0.6495	0.0474	-0.097
Mof_C 	C 	0.7516	0.5978	0.0272	-0.013
Mof_C 	C 	0.7067	0.5972	0.9829	-0.024
Mof_C 	C 	0.6878	0.6491	0.9583	-0.084
Mof_C 	C 	0.7145	0.703	0.9787	0.062
Mof_C 	C 	0.3404	0.491	0.6908	0.277
Mof_C 	C 	0.3213	0.513	0.7438	-0.037
Mof_C 	C 	0.3341	0.4773	0.7873	-0.036
Mof_C 	C 	0.317	0.4965	0.8355	-0.017
Mof_C 	C 	0.284	0.5529	0.8406	-0.055
Mof_C 	C 	0.27	0.5878	0.7971	-0.017
Mof_C 	C 	0.2883	0.568	0.7496	-0.033
Mof_C 	C 	0.2645	0.5756	0.8928	0.299
Mof_C 	C 	0.2409	0.3307	0.6091	0.301
Mof_C 	C 	0.2235	0.3072	0.661	-0.057
Mof_C 	C 	0.2339	0.3418	0.7053	-0.014
Mof_C 	C 	0.2181	0.3197	0.7527	-0.032
Mof_C 	C 	0.1899	0.2627	0.7582	-0.037
Mof_C 	C 	0.1782	0.2282	0.7143	-0.035
Mof_C 	C 	0.1936	0.2497	0.6663	-0.014
Mof_C 	C 	0.1738	0.2383	0.8108	0.28
Mof_C 	C 	0.4213	0.3489	0.5463	0.299
Mof_C 	C 	0.4667	0.3009	0.5227	-0.05
Mof_C 	C 	0.5264	0.28	0.549	-0.023
Mof_C 	C 	0.568	0.2358	0.5274	-0.028
Mof_C 	C 	0.5505	0.2134	0.479	-0.051
Mof_C 	C 	0.4915	0.2354	0.4519	-0.022
Mof_C 	C 	0.4499	0.2787	0.4739	-0.027
Mof_C 	C 	0.5936	0.1626	0.4571	0.298
Mof_C 	C 	0.2692	0.315	0.4019	0.292
Mof_C 	C 	0.2908	0.2858	0.3533	-0.047
Mof_C 	C 	0.3153	0.226	0.3534	-0.034
Mof_C 	C 	0.3366	0.1991	0.3084	-0.017
Mof_C 	C 	0.3352	0.2314	0.2631	-0.065
Mof_C 	C 	0.3109	0.2906	0.2626	-0.015
Mof_C 	C 	0.2893	0.3175	0.3075	-0.031
Mof_C 	C 	0.3594	0.2029	0.2133	0.31
Mof_C 	C 	0.0842	0.5921	0.9536	0.297
Mof_C 	C 	0.0416	0.5438	0.9771	-0.054
Mof_C 	C 	0.9808	0.5218	0.9511	-0.021
Mof_C 	C 	0.061	0.5217	0.0254	-0.025
Mof_C 	C 	0.1576	0.4562	0.2919	0.3
Mof_C 	C 	0.1776	0.4855	0.2416	-0.063
Mof_C 	C 	0.198	0.5458	0.241	-0.012
Mof_C 	C 	0.2165	0.5732	0.1957	-0.032
Mof_C 	C 	0.217	0.5402	0.15	-0.043
Mof_C 	C 	0.1975	0.4796	0.1508	-0.035
Mof_C 	C 	0.1768	0.4527	0.1966	-0.017
Mof_C 	C 	0.2367	0.5694	0.1002	0.296
Mof_C 	C 	0.4151	0.5942	0.0443	0.299
Mof_C 	C 	0.458	0.5446	0.0218	-0.053
Mof_C 	C 	0.5242	0.5292	0.0446	-0.022
Mof_C 	C 	0.4357	0.5155	0.9771	-0.027
Mof_C 	C 	0.28	0.5487	0.5126	0.078
Mof_C 	C 	0.3059	0.6036	0.5296	-0.098
Mof_C 	C 	0.2839	0.6542	0.5036	-0.009
Mof_C 	C 	0.2367	0.6511	0.4605	-0.027
Mof_C 	C 	0.2103	0.5976	0.4427	-0.083
Mof_C 	C 	0.2327	0.5454	0.469	0.067
Mof_C 	C 	0.2611	0.7966	0.0231	0.082
Mof_C 	C 	0.2798	0.8505	0.0474	-0.096
Mof_C 	C 	0.2516	0.9022	0.0272	-0.014
Mof_C 	C 	0.2067	0.9028	0.9829	-0.022
Mof_C 	C 	0.1878	0.8509	0.9583	-0.085
Mof_C 	C 	0.2145	0.797	0.9787	0.063
Mof_C 	C 	0.1596	0.991	0.3092	0.277
Mof_C 	C 	0.1787	0.013	0.2562	-0.037
Mof_C 	C 	0.1659	0.9773	0.2127	-0.036
Mof_C 	C 	0.183	0.9965	0.1645	-0.016
Mof_C 	C 	0.216	0.0529	0.1594	-0.055
Mof_C 	C 	0.23	0.0878	0.2029	-0.017
Mof_C 	C 	0.2117	0.068	0.2504	-0.033
Mof_C 	C 	0.2355	0.0756	0.1072	0.299
Mof_C 	C 	0.2591	0.8307	0.3909	0.301
Mof_C 	C 	0.2765	0.8072	0.339	-0.057
Mof_C 	C 	0.2661	0.8418	0.2947	-0.014
Mof_C 	C 	0.2819	0.8197	0.2473	-0.032
Mof_C 	C 	0.3101	0.7627	0.2418	-0.037
Mof_C 	C 	0.3218	0.7282	0.2857	-0.035
Mof_C 	C 	0.3064	0.7497	0.3337	-0.014
Mof_C 	C 	0.3262	0.7383	0.1892	0.28
Mof_C 	C 	0.0787	0.8489	0.4537	0.299
Mof_C 	C 	0.0333	0.8009	0.4773	-0.051
Mof_C 	C 	0.9736	0.78	0.451	-0.022
Mof_C 	C 	0.932	0.7358	0.4726	-0.029
Mof_C 	C 	0.9495	0.7134	0.521	-0.051
Mof_C 	C 	0.0085	0.7354	0.5481	-0.022
Mof_C 	C 	0.0501	0.7787	0.5261	-0.026
Mof_C 	C 	0.9064	0.6626	0.5429	0.298
Mof_C 	C 	0.2308	0.815	0.5981	0.292
Mof_C 	C 	0.2092	0.7858	0.6467	-0.047
Mof_C 	C 	0.1847	0.726	0.6466	-0.034
Mof_C 	C 	0.1634	0.6991	0.6916	-0.017
Mof_C 	C 	0.1648	0.7314	0.7369	-0.065
Mof_C 	C 	0.1891	0.7906	0.7374	-0.015
Mof_C 	C 	0.2107	0.8175	0.6925	-0.031
Mof_C 	C 	0.1406	0.7029	0.7867	0.31
Mof_C 	C 	0.4158	0.0921	0.0464	0.298
Mof_C 	C 	0.4584	0.0438	0.0229	-0.055
Mof_C 	C 	0.5192	0.0218	0.0489	-0.021
Mof_C 	C 	0.439	0.0217	0.9746	-0.024
Mof_C 	C 	0.3424	0.9562	0.7081	0.3
Mof_C 	C 	0.3224	0.9855	0.7584	-0.064
Mof_C 	C 	0.302	0.0458	0.759	-0.011
Mof_C 	C 	0.2835	0.0732	0.8043	-0.033
Mof_C 	C 	0.283	0.0402	0.85	-0.042
Mof_C 	C 	0.3025	0.9796	0.8492	-0.037
Mof_C 	C 	0.3232	0.9527	0.8034	-0.016
Mof_C 	C 	0.2633	0.0694	0.8998	0.296
Mof_C 	C 	0.0849	0.0942	0.9557	0.299
Mof_C 	C 	0.042	0.0446	0.9782	-0.051
Mof_C 	C 	0.9758	0.0292	0.9554	-0.023
Mof_C 	C 	0.0643	0.0155	0.0229	-0.027
Mof_C 	C 	0.22	0.0487	0.4874	0.078
Mof_C 	C 	0.1941	0.1036	0.4704	-0.098
Mof_C 	C 	0.2161	0.1542	0.4964	-0.009
Mof_C 	C 	0.2633	0.1511	0.5395	-0.027
Mof_C 	C 	0.2897	0.0976	0.5573	-0.083
Mof_C 	C 	0.2673	0.0454	0.531	0.068
Mof_C 	C 	0.2389	0.2966	0.9769	0.083
Mof_C 	C 	0.2202	0.3505	0.9526	-0.097
Mof_C 	C 	0.2484	0.4022	0.9728	-0.013
Mof_C 	C 	0.2933	0.4028	0.0171	-0.024
Mof_C 	C 	0.3122	0.3509	0.0417	-0.084
Mof_C 	C 	0.2855	0.297	0.0213	0.062
Mof_N 	N 	0.7095	0.5083	0.47038	-0.106
Mof_N 	N 	0.7482	0.5445	0.50148	-0.066
Mof_N 	N 	0.7829	0.51337	0.53835	-0.107
Mof_N 	N 	0.7197	0.2608	0.96754	-0.107
Mof_N 	N 	0.752	0.2948	0.00337	-0.065
Mof_N 	N 	0.7914	0.26157	0.03667	-0.107
Mof_N 	N 	0.7905	0.0083	0.52962	-0.106
Mof_N 	N 	0.7518	0.0445	0.49852	-0.066
Mof_N 	N 	0.7171	0.01337	0.46165	-0.107
Mof_N 	N 	0.7803	0.7608	0.03246	-0.107
Mof_N 	N 	0.748	0.7948	0.99663	-0.065
Mof_N 	N 	0.7086	0.76157	0.96333	-0.107
Mof_N 	N 	0.2905	0.4917	0.52962	-0.106
Mof_N 	N 	0.2518	0.4555	0.49852	-0.066
Mof_N 	N 	0.2171	0.48663	0.46165	-0.107
Mof_N 	N 	0.2803	0.7392	0.03246	-0.107
Mof_N 	N 	0.248	0.7052	0.99663	-0.065
Mof_N 	N 	0.2086	0.73843	0.96333	-0.107
Mof_N 	N 	0.2095	0.9917	0.47038	-0.106
Mof_N 	N 	0.2482	0.9555	0.50148	-0.066
Mof_N 	N 	0.2829	0.98663	0.53835	-0.107
Mof_N 	N 	0.2197	0.2392	0.96754	-0.107
Mof_N 	N 	0.252	0.2052	0.00337	-0.065
Mof_N 	N 	0.2914	0.23843	0.03667	-0.107
Mof_O 	O 	0.6269	0.5584	0.3133	-0.25
Mof_O 	O 	0.6771	0.4772	0.34742	-0.265
Mof_O 	O 	0.732	0.45988	0.06921	-0.282
Mof_O 	O 	0.7509	0.36962	0.10309	-0.275
Mof_O 	O 	0.7459	0.61405	0.39563	-0.274
Mof_O 	O 	0.7608	0.70542	0.42854	-0.282
Mof_O 	O 	0.8047	0.7327	0.15064	-0.266
Mof_O 	O 	0.8605	0.8106	0.18608	-0.252
Mof_O 	O 	0.6264	0.62695	0.48128	-0.29
Mof_O 	O 	0.5673	0.6365	0.40745	-0.263
Mof_O 	O 	0.4151	0.84996	0.59064	-0.277
Mof_O 	O 	0.3649	0.86614	0.51399	-0.288
Mof_O 	O 	0.7453	0.62959	0.59842	-0.273
Mof_O 	O 	0.7305	0.71604	0.5572	-0.276
Mof_O 	O 	0.6686	0.7739	0.8267	-0.287
Mof_O 	O 	0.598	0.83971	0.78617	-0.296
Mof_O 	O 	0.8686	0.38225	0.01934	-0.288
Mof_O 	O 	0.9287	0.3929	0.09306	-0.274
Mof_O 	O 	0.8121	0.5216	0.66832	-0.28
Mof_O 	O 	0.8866	0.58586	0.70674	-0.295
Mof_O 	O 	0.7521	0.37457	0.9002	-0.272
Mof_O 	O 	0.7622	0.46299	0.9393	-0.282
Mof_O 	O 	0.6307	0.37938	0.98372	-0.289
Mof_O 	O 	0.5741	0.3911	0.90936	-0.262
Mof_O 	O 	0.8731	0.0584	0.6867	-0.25
Mof_O 	O 	0.8229	0.9772	0.65258	-0.265
Mof_O 	O 	0.768	0.95988	0.93079	-0.282
Mof_O 	O 	0.7491	0.86962	0.89691	-0.275
Mof_O 	O 	0.7541	0.11405	0.60437	-0.274
Mof_O 	O 	0.7392	0.20542	0.57146	-0.282
Mof_O 	O 	0.6953	0.2327	0.84936	-0.266
Mof_O 	O 	0.6395	0.3106	0.81392	-0.252
Mof_O 	O 	0.8736	0.12695	0.51872	-0.29
Mof_O 	O 	0.9327	0.1365	0.59255	-0.263
Mof_O 	O 	0.0849	0.34996	0.40936	-0.276
Mof_O 	O 	0.1351	0.36614	0.48601	-0.288
Mof_O 	O 	0.7547	0.12959	0.40158	-0.273
Mof_O 	O 	0.7695	0.21604	0.4428	-0.276
Mof_O 	O 	0.8314	0.2739	0.1733	-0.287
Mof_O 	O 	0.902	0.33971	0.21383	-0.296
Mof_O 	O 	0.6314	0.88225	0.98066	-0.288
Mof_O 	O 	0.5713	0.8929	0.90694	-0.275
Mof_O 	O 	0.6879	0.0216	0.33168	-0.28
Mof_O 	O 	0.6134	0.08586	0.29326	-0.295
Mof_O 	O 	0.7479	0.87457	0.0998	-0.272
Mof_O 	O 	0.7378	0.96299	0.0607	-0.282
Mof_O 	O 	0.8693	0.87938	0.01628	-0.289
Mof_O 	O 	0.9259	0.8911	0.09064	-0.262
Mof_O 	O 	0.3731	0.4416	0.6867	-0.25
Mof_O 	O 	0.3229	0.5228	0.65258	-0.265
Mof_O 	O 	0.268	0.54012	0.93079	-0.282
Mof_O 	O 	0.2491	0.63038	0.89691	-0.275
Mof_O 	O 	0.2541	0.38595	0.60437	-0.274
Mof_O 	O 	0.2392	0.29458	0.57146	-0.282
Mof_O 	O 	0.1953	0.2673	0.84936	-0.266
Mof_O 	O 	0.1395	0.1894	0.81392	-0.252
Mof_O 	O 	0.3736	0.37305	0.51872	-0.29
Mof_O 	O 	0.4327	0.3635	0.59255	-0.263
Mof_O 	O 	0.5849	0.15004	0.40936	-0.277
Mof_O 	O 	0.6351	0.13386	0.48601	-0.288
Mof_O 	O 	0.2547	0.37041	0.40158	-0.273
Mof_O 	O 	0.2695	0.28396	0.4428	-0.276
Mof_O 	O 	0.3314	0.2261	0.1733	-0.287
Mof_O 	O 	0.402	0.16029	0.21383	-0.296
Mof_O 	O 	0.1314	0.61775	0.98066	-0.288
Mof_O 	O 	0.0713	0.6071	0.90694	-0.274
Mof_O 	O 	0.1879	0.4784	0.33168	-0.28
Mof_O 	O 	0.1134	0.41414	0.29326	-0.295
Mof_O 	O 	0.2479	0.62543	0.0998	-0.272
Mof_O 	O 	0.2378	0.53701	0.0607	-0.282
Mof_O 	O 	0.3693	0.62062	0.01628	-0.289
Mof_O 	O 	0.4259	0.6089	0.09064	-0.262
Mof_O 	O 	0.1269	0.9416	0.3133	-0.25
Mof_O 	O 	0.1771	0.0228	0.34742	-0.265
Mof_O 	O 	0.232	0.04012	0.06921	-0.282
Mof_O 	O 	0.2509	0.13038	0.10309	-0.275
Mof_O 	O 	0.2459	0.88595	0.39563	-0.274
Mof_O 	O 	0.2608	0.79458	0.42854	-0.282
Mof_O 	O 	0.3047	0.7673	0.15064	-0.266
Mof_O 	O 	0.3605	0.6894	0.18608	-0.252
Mof_O 	O 	0.1264	0.87305	0.48128	-0.29
Mof_O 	O 	0.0673	0.8635	0.40745	-0.263
Mof_O 	O 	0.9151	0.65004	0.59064	-0.276
Mof_O 	O 	0.8649	0.63386	0.51399	-0.288
Mof_O 	O 	0.2453	0.87041	0.59842	-0.273
Mof_O 	O 	0.2305	0.78396	0.5572	-0.276
Mof_O 	O 	0.1686	0.7261	0.8267	-0.287
Mof_O 	O 	0.098	0.66029	0.78617	-0.296
Mof_O 	O 	0.3686	0.11775	0.01934	-0.288
Mof_O 	O 	0.4287	0.1071	0.09306	-0.275
Mof_O 	O 	0.3121	0.9784	0.66832	-0.28
Mof_O 	O 	0.3866	0.91414	0.70674	-0.295
Mof_O 	O 	0.2521	0.12543	0.9002	-0.272
Mof_O 	O 	0.2622	0.03701	0.9393	-0.282
Mof_O 	O 	0.1307	0.12062	0.98372	-0.289
Mof_O 	O 	0.0741	0.1089	0.90936	-0.262
_end
