data_functionalizedCrystal
_audit_creation_method	'EQeq! by Chris Wilmer'
_symmetry_space_group_name_H-M	'P1'
_symmetry_Int_Tables_number	1
_symmetry_cell_setting	triclinic
loop_
_symmetry_equiv_pos_as_xyz
  x,y,z
_cell_length_a	14.9414
_cell_length_b	15.9918
_cell_length_c	16.0381
_cell_angle_alpha	90
_cell_angle_beta	90
_cell_angle_gamma	90
loop_
_atom_site_label
_atom_site_type_symbol
_atom_site_fract_x
_atom_site_fract_y
_atom_site_fract_z
_atom_site_charge
Mof_Na	Na	0.56207	0.05301	0.9623	3.579
Mof_Na	Na	0.93793	0.94699	0.4623	3.596
Mof_Na	Na	0.43793	0.55301	0.5377	3.604
Mof_Na	Na	0.06207	0.44699	0.0377	3.581
Mof_Co	Co	0.14421	0.13324	0.64511	1.209
Mof_Co	Co	0.35579	0.86676	0.14511	1.209
Mof_Co	Co	0.85579	0.63324	0.85489	1.209
Mof_Co	Co	0.64421	0.36676	0.35489	1.21
Mof_H 	H 	0.5911	0.6867	0.9601	0.229
Mof_H 	H 	0.6448	0.9064	0.051	-0.03
Mof_H 	H 	0.5798	0.7759	0.0637	-0.047
Mof_H 	H 	0.8126	0.8855	0.0147	0.155
Mof_H 	H 	0.8377	0.8677	0.9215	0.177
Mof_H 	H 	0.687	0.8709	0.8823	-0.091
Mof_H 	H 	0.4632	0.1176	0.1148	0.014
Mof_H 	H 	0.407	0.1974	0.2414	0.152
Mof_H 	H 	0.4617	0.1935	0.3249	0.167
Mof_H 	H 	0.6376	0.1861	0.1349	-0.149
Mof_H 	H 	0.3905	0.9606	0.8975	-0.005
Mof_H 	H 	0.4748	0.0669	0.252	-0.069
Mof_H 	H 	0.3983	0.9681	0.7379	0.166
Mof_H 	H 	0.3961	0.0562	0.695	0.161
Mof_H 	H 	0.3849	0.1229	0.8247	-0.127
Mof_H 	H 	0.2546	0.9155	0.8115	0.138
Mof_H 	H 	0.1696	0.9731	0.8099	0.155
Mof_H 	H 	0.5718	0.3181	0.1269	0.184
Mof_H 	H 	0.4765	0.2785	0.1155	0.173
Mof_H 	H 	0.6223	0.0679	0.2641	0.256
Mof_H 	H 	0.2395	0.1209	0.9357	0.24
Mof_H 	H 	0.7312	0.7727	0.0995	0.135
Mof_H 	H 	0.708	0.6875	0.0557	0.138
Mof_H 	H 	0.2416	0.982	0.941	-0.053
Mof_H 	H 	0.6107	0.2178	0.0063	0.655
Mof_H 	H 	0.3719	0.0382	0.0042	0.541
Mof_H 	H 	0.7216	0.9969	0.8832	0.368
Mof_H 	H 	0.235	0.12	0.781	0.374
Mof_H 	H 	0.6255	0.2186	0.2781	0.305
Mof_H 	H 	0.711	0.724	0.892	0.331
Mof_H 	H 	0.519	0.086	0.795	0.581
Mof_H 	H 	0.5415	0.9985	0.1313	0.313
Mof_H 	H 	0.5003	0.8877	0.9868	0.329
Mof_H 	H 	0.9089	0.3133	0.4601	0.229
Mof_H 	H 	0.8552	0.0936	0.551	-0.026
Mof_H 	H 	0.9202	0.2241	0.5637	-0.048
Mof_H 	H 	0.6874	0.1145	0.5147	0.156
Mof_H 	H 	0.6623	0.1323	0.4215	0.179
Mof_H 	H 	0.813	0.1291	0.3823	-0.091
Mof_H 	H 	0.0368	0.8824	0.6148	0.011
Mof_H 	H 	0.093	0.8026	0.7414	0.148
Mof_H 	H 	0.0383	0.8065	0.8249	0.164
Mof_H 	H 	0.8624	0.8139	0.6349	-0.149
Mof_H 	H 	0.1095	0.0394	0.3975	-0.008
Mof_H 	H 	0.0252	0.9331	0.752	-0.062
Mof_H 	H 	0.1017	0.0319	0.2379	0.165
Mof_H 	H 	0.1039	0.9438	0.195	0.159
Mof_H 	H 	0.1151	0.8771	0.3247	-0.128
Mof_H 	H 	0.2454	0.0845	0.3115	0.14
Mof_H 	H 	0.3304	0.0269	0.3099	0.156
Mof_H 	H 	0.9282	0.6819	0.6269	0.182
Mof_H 	H 	0.0235	0.7215	0.6155	0.172
Mof_H 	H 	0.8777	0.9321	0.7641	0.253
Mof_H 	H 	0.2605	0.8791	0.4357	0.241
Mof_H 	H 	0.7688	0.2273	0.5995	0.137
Mof_H 	H 	0.792	0.3125	0.5557	0.14
Mof_H 	H 	0.2584	0.018	0.441	-0.06
Mof_H 	H 	0.8893	0.7822	0.5063	0.654
Mof_H 	H 	0.1281	0.9618	0.5042	0.531
Mof_H 	H 	0.7784	0.0031	0.3832	0.37
Mof_H 	H 	0.265	0.88	0.281	0.374
Mof_H 	H 	0.8745	0.7814	0.7781	0.303
Mof_H 	H 	0.789	0.276	0.392	0.332
Mof_H 	H 	0.981	0.914	0.295	0.583
Mof_H 	H 	0.9585	0.0015	0.6313	0.324
Mof_H 	H 	0.9997	0.1123	0.4868	0.328
Mof_H 	H 	0.4089	0.1867	0.5399	0.229
Mof_H 	H 	0.3552	0.4064	0.449	-0.027
Mof_H 	H 	0.4202	0.2759	0.4363	-0.049
Mof_H 	H 	0.1874	0.3855	0.4853	0.155
Mof_H 	H 	0.1623	0.3677	0.5785	0.178
Mof_H 	H 	0.313	0.3709	0.6177	-0.092
Mof_H 	H 	0.5368	0.6176	0.3852	0.011
Mof_H 	H 	0.593	0.6974	0.2586	0.152
Mof_H 	H 	0.5383	0.6935	0.1751	0.167
Mof_H 	H 	0.3624	0.6861	0.3651	-0.15
Mof_H 	H 	0.6095	0.4606	0.6025	-0.007
Mof_H 	H 	0.5252	0.5669	0.248	-0.07
Mof_H 	H 	0.6017	0.4681	0.7621	0.165
Mof_H 	H 	0.6039	0.5562	0.805	0.161
Mof_H 	H 	0.6151	0.6229	0.6753	-0.129
Mof_H 	H 	0.7454	0.4155	0.6885	0.143
Mof_H 	H 	0.8304	0.4731	0.6901	0.159
Mof_H 	H 	0.4282	0.8181	0.3731	0.183
Mof_H 	H 	0.5235	0.7785	0.3845	0.172
Mof_H 	H 	0.3777	0.5679	0.2359	0.254
Mof_H 	H 	0.7605	0.6209	0.5643	0.241
Mof_H 	H 	0.2688	0.2727	0.4005	0.137
Mof_H 	H 	0.292	0.1875	0.4443	0.14
Mof_H 	H 	0.7584	0.482	0.559	-0.062
Mof_H 	H 	0.3893	0.7178	0.4937	0.655
Mof_H 	H 	0.6281	0.5382	0.4958	0.53
Mof_H 	H 	0.2784	0.4969	0.6168	0.369
Mof_H 	H 	0.765	0.62	0.719	0.375
Mof_H 	H 	0.3745	0.7186	0.2219	0.304
Mof_H 	H 	0.289	0.224	0.608	0.331
Mof_H 	H 	0.481	0.586	0.705	0.583
Mof_H 	H 	0.4585	0.4985	0.3687	0.322
Mof_H 	H 	0.4997	0.3877	0.5132	0.327
Mof_H 	H 	0.0911	0.8133	0.0399	0.229
Mof_H 	H 	0.1448	0.5936	0.949	-0.017
Mof_H 	H 	0.0798	0.7241	0.9363	-0.052
Mof_H 	H 	0.3126	0.6145	0.9853	0.161
Mof_H 	H 	0.3377	0.6323	0.0785	0.181
Mof_H 	H 	0.187	0.6291	0.1177	-0.095
Mof_H 	H 	0.9632	0.3824	0.8852	0.006
Mof_H 	H 	0.907	0.3026	0.7586	0.152
Mof_H 	H 	0.9617	0.3065	0.6751	0.167
Mof_H 	H 	0.1376	0.3139	0.8651	-0.148
Mof_H 	H 	0.8905	0.5394	0.1025	-0.001
Mof_H 	H 	0.9748	0.4331	0.748	-0.072
Mof_H 	H 	0.8983	0.5319	0.2621	0.168
Mof_H 	H 	0.8961	0.4438	0.305	0.164
Mof_H 	H 	0.8849	0.3771	0.1753	-0.13
Mof_H 	H 	0.7546	0.5845	0.1885	0.144
Mof_H 	H 	0.6696	0.5269	0.1901	0.16
Mof_H 	H 	0.0718	0.1819	0.8731	0.181
Mof_H 	H 	0.9765	0.2215	0.8845	0.167
Mof_H 	H 	0.1223	0.4321	0.7359	0.255
Mof_H 	H 	0.7395	0.3791	0.0643	0.244
Mof_H 	H 	0.2312	0.7273	0.9005	0.138
Mof_H 	H 	0.208	0.8125	0.9443	0.142
Mof_H 	H 	0.7416	0.518	0.059	-0.062
Mof_H 	H 	0.1107	0.2822	0.9937	0.653
Mof_H 	H 	0.8719	0.4618	0.9958	0.513
Mof_H 	H 	0.2216	0.5031	0.1168	0.37
Mof_H 	H 	0.735	0.38	0.219	0.376
Mof_H 	H 	0.1255	0.2814	0.7219	0.304
Mof_H 	H 	0.211	0.776	0.108	0.331
Mof_H 	H 	0.019	0.414	0.205	0.584
Mof_H 	H 	0.0415	0.5015	0.8687	0.323
Mof_H 	H 	0.0003	0.6123	0.0132	0.323
Mof_C 	C 	0.63115	0.87644	0.99925	-0.025
Mof_C 	C 	0.62347	0.78338	0.01865	0.252
Mof_C 	C 	0.79301	0.85774	0.96417	-0.452
Mof_C 	C 	0.70384	0.8951	0.9362	0.36
Mof_C 	C 	0.52258	0.11487	0.14062	-0.131
Mof_C 	C 	0.46686	0.19427	0.2646	-0.444
Mof_C 	C 	0.57673	0.19032	0.11246	0.515
Mof_C 	C 	0.3669	0.01781	0.89771	-0.036
Mof_C 	C 	0.51149	0.11487	0.2355	0.315
Mof_C 	C 	0.37364	0.02406	0.7418	-0.489
Mof_C 	C 	0.40475	0.06452	0.82308	0.447
Mof_C 	C 	0.23449	0.97313	0.81255	-0.405
Mof_C 	C 	0.53402	0.27135	0.14261	-0.522
Mof_C 	C 	0.71366	0.74728	0.04705	-0.402
Mof_C 	C 	0.26458	0.01408	0.89345	0.241
Mof_C 	C 	0.24018	0.976	0.65634	0.212
Mof_C 	C 	0.87593	0.72902	0.00931	0.222
Mof_C 	C 	0.78577	0.76468	0.98019	0.276
Mof_C 	C 	0.4743	0.35214	0.26583	0.204
Mof_C 	C 	0.52068	0.27174	0.23757	0.291
Mof_C 	C 	0.27204	0.0194	0.73673	0.285
Mof_C 	C 	0.86885	0.12356	0.49925	-0.031
Mof_C 	C 	0.87653	0.21662	0.51865	0.257
Mof_C 	C 	0.70699	0.14226	0.46417	-0.456
Mof_C 	C 	0.79616	0.1049	0.4362	0.364
Mof_C 	C 	0.97742	0.88513	0.64062	-0.123
Mof_C 	C 	0.03314	0.80573	0.7646	-0.426
Mof_C 	C 	0.92327	0.80968	0.61246	0.511
Mof_C 	C 	0.1331	0.98219	0.39771	-0.037
Mof_C 	C 	0.98851	0.88513	0.7355	0.298
Mof_C 	C 	0.12636	0.97594	0.2418	-0.488
Mof_C 	C 	0.09525	0.93548	0.32308	0.445
Mof_C 	C 	0.26551	0.02687	0.31255	-0.412
Mof_C 	C 	0.96598	0.72865	0.64261	-0.517
Mof_C 	C 	0.78634	0.25272	0.54705	-0.409
Mof_C 	C 	0.23542	0.98592	0.39345	0.251
Mof_C 	C 	0.25982	0.024	0.15634	0.216
Mof_C 	C 	0.62407	0.27098	0.50931	0.213
Mof_C 	C 	0.71423	0.23532	0.48019	0.283
Mof_C 	C 	0.0257	0.64786	0.76583	0.213
Mof_C 	C 	0.97932	0.72826	0.73757	0.28
Mof_C 	C 	0.22796	0.9806	0.23673	0.285
Mof_C 	C 	0.36885	0.37644	0.50075	-0.031
Mof_C 	C 	0.37653	0.28338	0.48135	0.257
Mof_C 	C 	0.20699	0.35774	0.53583	-0.455
Mof_C 	C 	0.29616	0.3951	0.5638	0.363
Mof_C 	C 	0.47742	0.61487	0.35938	-0.127
Mof_C 	C 	0.53314	0.69427	0.2354	-0.442
Mof_C 	C 	0.42327	0.69032	0.38754	0.514
Mof_C 	C 	0.6331	0.51781	0.60229	-0.04
Mof_C 	C 	0.48851	0.61487	0.2645	0.313
Mof_C 	C 	0.62636	0.52406	0.7582	-0.489
Mof_C 	C 	0.59525	0.56452	0.67692	0.449
Mof_C 	C 	0.76551	0.47313	0.68745	-0.423
Mof_C 	C 	0.46598	0.77135	0.35739	-0.52
Mof_C 	C 	0.28634	0.24728	0.45295	-0.409
Mof_C 	C 	0.73542	0.51408	0.60655	0.258
Mof_C 	C 	0.75982	0.476	0.84366	0.206
Mof_C 	C 	0.12407	0.22902	0.49069	0.214
Mof_C 	C 	0.21423	0.26468	0.51981	0.283
Mof_C 	C 	0.5257	0.85214	0.23417	0.204
Mof_C 	C 	0.47932	0.77174	0.26243	0.29
Mof_C 	C 	0.72796	0.5194	0.76327	0.294
Mof_C 	C 	0.13115	0.62356	0.00075	-0.051
Mof_C 	C 	0.12347	0.71662	0.98135	0.275
Mof_C 	C 	0.29301	0.64226	0.03583	-0.464
Mof_C 	C 	0.20384	0.6049	0.0638	0.372
Mof_C 	C 	0.02258	0.38513	0.85938	-0.12
Mof_C 	C 	0.96686	0.30573	0.7354	-0.445
Mof_C 	C 	0.07673	0.30968	0.88754	0.509
Mof_C 	C 	0.8669	0.48219	0.10229	-0.05
Mof_C 	C 	0.01149	0.38513	0.7645	0.314
Mof_C 	C 	0.87364	0.47594	0.2582	-0.496
Mof_C 	C 	0.90475	0.43548	0.17692	0.46
Mof_C 	C 	0.73449	0.52687	0.18745	-0.427
Mof_C 	C 	0.03402	0.22865	0.85739	-0.512
Mof_C 	C 	0.21366	0.75272	0.95295	-0.41
Mof_C 	C 	0.76458	0.48592	0.10655	0.264
Mof_C 	C 	0.74018	0.524	0.34366	0.205
Mof_C 	C 	0.37593	0.77098	0.99069	0.223
Mof_C 	C 	0.28577	0.73532	0.01981	0.278
Mof_C 	C 	0.9743	0.14786	0.73417	0.205
Mof_C 	C 	0.02068	0.22826	0.76243	0.289
Mof_C 	C 	0.77204	0.4806	0.26327	0.297
Mof_O 	O 	0.26812	0.90411	0.64449	-0.287
Mof_O 	O 	0.39588	0.36184	0.24343	-0.282
Mof_O 	O 	0.91268	0.76007	0.07073	-0.254
Mof_O 	O 	0.59435	0.73628	0.94767	-0.412
Mof_O 	O 	0.54974	0.9085	0.96572	-0.814
Mof_O 	O 	0.3968	0.05906	0.97126	-1.001
Mof_O 	O 	0.59602	0.1107	0.27785	-0.475
Mof_O 	O 	0.22499	0.09592	0.89317	-0.46
Mof_O 	O 	0.58033	0.18812	0.02267	-1.344
Mof_O 	O 	0.50099	0.06131	0.82973	-1.274
Mof_O 	O 	0.56636	0.04147	0.11275	-0.762
Mof_O 	O 	0.7088	0.98417	0.92818	-0.948
Mof_O 	O 	0.18524	0.01522	0.60941	-0.42
Mof_O 	O 	0.76356	0.72145	0.90423	-0.602
Mof_O 	O 	0.5183	0.40339	0.31139	-0.394
Mof_O 	O 	0.23677	0.10414	0.73412	-0.654
Mof_O 	O 	0.60784	0.27007	0.27655	-0.562
Mof_O 	O 	0.90899	0.66922	0.96657	-0.414
Mof_O 	O 	0.23188	0.09589	0.14449	-0.288
Mof_O 	O 	0.10412	0.63816	0.74343	-0.284
Mof_O 	O 	0.58732	0.23993	0.57073	-0.254
Mof_O 	O 	0.90565	0.26372	0.44767	-0.412
Mof_O 	O 	0.95026	0.0915	0.46572	-0.814
Mof_O 	O 	0.1032	0.94094	0.47126	-0.992
Mof_O 	O 	0.90398	0.8893	0.77785	-0.471
Mof_O 	O 	0.27501	0.90408	0.39317	-0.462
Mof_O 	O 	0.91967	0.81188	0.52267	-1.349
Mof_O 	O 	0.99901	0.93869	0.32973	-1.276
Mof_O 	O 	0.93364	0.95853	0.61275	-0.78
Mof_O 	O 	0.7912	0.01583	0.42818	-0.951
Mof_O 	O 	0.31476	0.98478	0.10941	-0.425
Mof_O 	O 	0.73644	0.27855	0.40423	-0.604
Mof_O 	O 	0.9817	0.59661	0.81139	-0.399
Mof_O 	O 	0.26323	0.89586	0.23412	-0.654
Mof_O 	O 	0.89216	0.72993	0.77655	-0.559
Mof_O 	O 	0.59101	0.33078	0.46657	-0.409
Mof_O 	O 	0.73188	0.40411	0.85551	-0.286
Mof_O 	O 	0.60412	0.86184	0.25657	-0.283
Mof_O 	O 	0.08732	0.26007	0.42927	-0.256
Mof_O 	O 	0.40565	0.23628	0.55233	-0.413
Mof_O 	O 	0.45026	0.4085	0.53428	-0.817
Mof_O 	O 	0.6032	0.55906	0.52874	-0.991
Mof_O 	O 	0.40398	0.6107	0.22215	-0.474
Mof_O 	O 	0.77501	0.59592	0.60683	-0.463
Mof_O 	O 	0.41967	0.68812	0.47733	-1.351
Mof_O 	O 	0.49901	0.56131	0.67027	-1.278
Mof_O 	O 	0.43364	0.54147	0.38725	-0.777
Mof_O 	O 	0.2912	0.48417	0.57182	-0.953
Mof_O 	O 	0.81476	0.51522	0.89059	-0.417
Mof_O 	O 	0.23644	0.22145	0.59577	-0.604
Mof_O 	O 	0.4817	0.90339	0.18861	-0.395
Mof_O 	O 	0.76323	0.60414	0.76588	-0.656
Mof_O 	O 	0.39216	0.77007	0.22345	-0.562
Mof_O 	O 	0.09101	0.16922	0.53343	-0.41
Mof_O 	O 	0.76812	0.59589	0.35551	-0.285
Mof_O 	O 	0.89588	0.13816	0.75657	-0.283
Mof_O 	O 	0.41268	0.73993	0.92927	-0.256
Mof_O 	O 	0.09435	0.76372	0.05233	-0.421
Mof_O 	O 	0.04974	0.5915	0.03428	-0.81
Mof_O 	O 	0.8968	0.44094	0.02874	-0.966
Mof_O 	O 	0.09602	0.3893	0.72215	-0.474
Mof_O 	O 	0.72499	0.40408	0.10683	-0.465
Mof_O 	O 	0.08033	0.31188	0.97733	-1.344
Mof_O 	O 	0.00099	0.43869	0.17027	-1.283
Mof_O 	O 	0.06636	0.45853	0.88725	-0.775
Mof_O 	O 	0.2088	0.51583	0.07182	-0.954
Mof_O 	O 	0.68524	0.48478	0.39059	-0.417
Mof_O 	O 	0.26356	0.77855	0.09577	-0.604
Mof_O 	O 	0.0183	0.09661	0.68861	-0.396
Mof_O 	O 	0.73677	0.39586	0.26588	-0.657
Mof_O 	O 	0.10784	0.22993	0.72345	-0.561
Mof_O 	O 	0.40899	0.83078	0.03343	-0.415
_end
