data_functionalizedCrystal
_audit_creation_method	'EQeq! by Chris Wilmer'
_symmetry_space_group_name_H-M	'P1'
_symmetry_Int_Tables_number	1
_symmetry_cell_setting	triclinic
loop_
_symmetry_equiv_pos_as_xyz
  x,y,z
_cell_length_a	13.414
_cell_length_b	13.414
_cell_length_c	14.706
_cell_angle_alpha	90
_cell_angle_beta	90
_cell_angle_gamma	120
loop_
_atom_site_label
_atom_site_type_symbol
_atom_site_fract_x
_atom_site_fract_y
_atom_site_fract_z
_atom_site_charge
Mof_Nd	Nd	0.66667	0.33334	0.66903	2.676
Mof_Nd	Nd	0.33333	0.66666	0.83097	2.678
Mof_Nd	Nd	0.33333	0.66666	0.33097	2.669
Mof_Nd	Nd	0.66667	0.33334	0.16903	2.669
Mof_Cu	Cu	0.5	0.5	-0	0.901
Mof_Cu	Cu	-4.96099e-17	0.5	-0	0.872
Mof_Cu	Cu	0.5	0	-0	0.87
Mof_Cu	Cu	-1.75202e-17	0.5	0.5	0.899
Mof_Cu	Cu	0.5	0.5	0.5	0.928
Mof_Cu	Cu	0.5	0	0.5	0.897
Mof_H 	H 	0.3257	0.3511	0.9225	0.092
Mof_H 	H 	0.4584	0.2683	0.8723	0.164
Mof_H 	H 	0.3983	0.3164	0.8089	0.14
Mof_H 	H 	0.2927	0.2531	0.0474	0.157
Mof_H 	H 	0.3208	0.1819	0.9777	0.211
Mof_H 	H 	0.0254	0.6743	0.9225	0.042
Mof_H 	H 	0.8099	0.5416	0.8723	0.173
Mof_H 	H 	0.9181	0.6017	0.8089	0.17
Mof_H 	H 	0.9604	0.7073	0.0474	0.204
Mof_H 	H 	0.8611	0.6792	0.9777	0.24
Mof_H 	H 	0.6489	0.9746	0.9225	0.156
Mof_H 	H 	0.7317	0.1901	0.8723	0.168
Mof_H 	H 	0.6836	0.0819	0.8089	0.128
Mof_H 	H 	0.7469	0.0396	0.0474	0.146
Mof_H 	H 	0.8181	0.1389	0.9777	0.224
Mof_H 	H 	0.9746	0.6489	0.5775	0.153
Mof_H 	H 	0.1901	0.7317	0.6277	0.157
Mof_H 	H 	0.0819	0.6836	0.6911	0.127
Mof_H 	H 	0.0396	0.7469	0.4526	0.101
Mof_H 	H 	0.1389	0.8181	0.5223	0.126
Mof_H 	H 	0.3511	0.3257	0.5775	0.09
Mof_H 	H 	0.2683	0.4584	0.6277	0.152
Mof_H 	H 	0.3164	0.3983	0.6911	0.138
Mof_H 	H 	0.2531	0.2927	0.4526	0.109
Mof_H 	H 	0.1819	0.3208	0.5223	0.108
Mof_H 	H 	0.6743	0.0254	0.5775	0.035
Mof_H 	H 	0.5416	0.8099	0.6277	0.162
Mof_H 	H 	0.6017	0.9181	0.6911	0.169
Mof_H 	H 	0.7073	0.9604	0.4526	0.159
Mof_H 	H 	0.6792	0.8611	0.5223	0.144
Mof_H 	H 	0.6743	0.6489	0.0775	0.096
Mof_H 	H 	0.5416	0.7317	0.1277	0.15
Mof_H 	H 	0.6017	0.6836	0.1911	0.148
Mof_H 	H 	0.7073	0.7469	0.9526	0.09
Mof_H 	H 	0.6792	0.8181	0.0223	0.045
Mof_H 	H 	0.9746	0.3257	0.0775	0.15
Mof_H 	H 	0.1901	0.4584	0.1277	0.138
Mof_H 	H 	0.0819	0.3983	0.1911	0.115
Mof_H 	H 	0.0396	0.2927	0.9526	0.039
Mof_H 	H 	0.1389	0.3208	0.0223	0.002
Mof_H 	H 	0.3511	0.0254	0.0775	0.029
Mof_H 	H 	0.2683	0.8099	0.1277	0.144
Mof_H 	H 	0.3164	0.9181	0.1911	0.159
Mof_H 	H 	0.2531	0.9604	0.9526	0.099
Mof_H 	H 	0.1819	0.8611	0.0223	0.026
Mof_H 	H 	0.0254	0.3511	0.4225	0.034
Mof_H 	H 	0.8099	0.2683	0.3723	0.156
Mof_H 	H 	0.9181	0.3164	0.3089	0.161
Mof_H 	H 	0.9604	0.2531	0.5474	0.144
Mof_H 	H 	0.8611	0.1819	0.4777	0.125
Mof_H 	H 	0.6489	0.6743	0.4225	0.097
Mof_H 	H 	0.7317	0.5416	0.3723	0.162
Mof_H 	H 	0.6836	0.6017	0.3089	0.151
Mof_H 	H 	0.7469	0.7073	0.5474	0.137
Mof_H 	H 	0.8181	0.6792	0.4777	0.144
Mof_H 	H 	0.3257	0.9746	0.4225	0.153
Mof_H 	H 	0.4584	0.1901	0.3723	0.151
Mof_H 	H 	0.3983	0.0819	0.3089	0.118
Mof_H 	H 	0.2927	0.0396	0.5474	0.086
Mof_H 	H 	0.3208	0.1389	0.4777	0.106
Mof_C 	C 	0.5614	0.437	0.8419	0.54
Mof_C 	C 	0.4475	0.3336	0.8618	-0.407
Mof_C 	C 	0.3527	0.2551	0.0091	-0.499
Mof_C 	C 	0.4532	0.2717	0.0687	0.472
Mof_C 	C 	0.8756	0.4386	0.8419	0.548
Mof_C 	C 	0.8861	0.5525	0.8618	-0.418
Mof_C 	C 	0.9024	0.6473	0.0091	-0.518
Mof_C 	C 	0.8185	0.5468	0.0687	0.486
Mof_C 	C 	0.563	0.1244	0.8419	0.534
Mof_C 	C 	0.6664	0.1139	0.8618	-0.402
Mof_C 	C 	0.7449	0.0976	0.0091	-0.491
Mof_C 	C 	0.7283	0.1815	0.0687	0.465
Mof_C 	C 	0.1244	0.563	0.6581	0.529
Mof_C 	C 	0.1139	0.6664	0.6382	-0.397
Mof_C 	C 	0.0976	0.7449	0.4909	-0.294
Mof_C 	C 	0.1815	0.7283	0.4313	0.416
Mof_C 	C 	0.437	0.5614	0.6581	0.533
Mof_C 	C 	0.3336	0.4475	0.6382	-0.401
Mof_C 	C 	0.2551	0.3527	0.4909	-0.294
Mof_C 	C 	0.2717	0.4532	0.4313	0.42
Mof_C 	C 	0.4386	0.8756	0.6581	0.543
Mof_C 	C 	0.5525	0.8861	0.6382	-0.414
Mof_C 	C 	0.6473	0.9024	0.4909	-0.327
Mof_C 	C 	0.5468	0.8185	0.4313	0.439
Mof_C 	C 	0.4386	0.563	0.1581	0.529
Mof_C 	C 	0.5525	0.6664	0.1382	-0.399
Mof_C 	C 	0.6473	0.7449	0.9909	-0.119
Mof_C 	C 	0.5468	0.7283	0.9313	0.381
Mof_C 	C 	0.1244	0.5614	0.1581	0.518
Mof_C 	C 	0.1139	0.4475	0.1382	-0.381
Mof_C 	C 	0.0976	0.3527	0.9909	-0.073
Mof_C 	C 	0.1815	0.4532	0.9313	0.36
Mof_C 	C 	0.437	0.8756	0.1581	0.533
Mof_C 	C 	0.3336	0.8861	0.1382	-0.399
Mof_C 	C 	0.2551	0.9024	0.9909	-0.116
Mof_C 	C 	0.2717	0.8185	0.9313	0.385
Mof_C 	C 	0.8756	0.437	0.3419	0.54
Mof_C 	C 	0.8861	0.3336	0.3618	-0.408
Mof_C 	C 	0.9024	0.2551	0.5091	-0.314
Mof_C 	C 	0.8185	0.2717	0.5687	0.434
Mof_C 	C 	0.563	0.4386	0.3419	0.537
Mof_C 	C 	0.6664	0.5525	0.3618	-0.409
Mof_C 	C 	0.7449	0.6473	0.5091	-0.318
Mof_C 	C 	0.7283	0.5468	0.5687	0.43
Mof_C 	C 	0.5614	0.1244	0.3419	0.525
Mof_C 	C 	0.4475	0.1139	0.3618	-0.391
Mof_C 	C 	0.3527	0.0976	0.5091	-0.282
Mof_C 	C 	0.4532	0.1815	0.5687	0.411
Mof_N 	N 	0.3888	0.3484	0.9418	-0.099
Mof_N 	N 	0.9596	0.6112	0.9418	-0.042
Mof_N 	N 	0.6516	0.0404	0.9418	-0.151
Mof_N 	N 	0.0404	0.6516	0.5582	-0.203
Mof_N 	N 	0.3484	0.3888	0.5582	-0.155
Mof_N 	N 	0.6112	0.9596	0.5582	-0.089
Mof_N 	N 	0.6112	0.6516	0.0582	-0.198
Mof_N 	N 	0.0404	0.3888	0.0582	-0.257
Mof_N 	N 	0.3484	0.9596	0.0582	-0.139
Mof_N 	N 	0.9596	0.3484	0.4418	-0.095
Mof_N 	N 	0.6516	0.6112	0.4418	-0.15
Mof_N 	N 	0.3888	0.0404	0.4418	-0.209
Mof_O 	O 	0.5983	0.5237	0.8946	-0.425
Mof_O 	O 	0.615	0.4361	0.775	-0.607
Mof_O 	O 	0.5475	0.3622	0.0571	-0.61
Mof_O 	O 	0.4397	0.1979	0.1237	-0.488
Mof_O 	O 	0.9254	0.4017	0.8946	-0.399
Mof_O 	O 	0.8211	0.385	0.775	-0.603
Mof_O 	O 	0.8147	0.4525	0.0571	-0.601
Mof_O 	O 	0.7582	0.5603	0.1237	-0.476
Mof_O 	O 	0.4763	0.0746	0.8946	-0.449
Mof_O 	O 	0.5639	0.1789	0.775	-0.617
Mof_O 	O 	0.6378	0.1853	0.0571	-0.613
Mof_O 	O 	0.8021	0.2418	0.1237	-0.474
Mof_O 	O 	0.0746	0.4763	0.6054	-0.467
Mof_O 	O 	0.1789	0.5639	0.725	-0.617
Mof_O 	O 	0.1853	0.6378	0.4429	-0.584
Mof_O 	O 	0.2418	0.8021	0.3763	-0.452
Mof_O 	O 	0.5237	0.5983	0.6054	-0.444
Mof_O 	O 	0.4361	0.615	0.725	-0.608
Mof_O 	O 	0.3622	0.5475	0.4429	-0.581
Mof_O 	O 	0.1979	0.4397	0.3763	-0.466
Mof_O 	O 	0.4017	0.9254	0.6054	-0.415
Mof_O 	O 	0.385	0.8211	0.725	-0.603
Mof_O 	O 	0.4525	0.8147	0.4429	-0.573
Mof_O 	O 	0.5603	0.7582	0.3763	-0.454
Mof_O 	O 	0.4017	0.4763	0.1054	-0.457
Mof_O 	O 	0.385	0.5639	0.225	-0.61
Mof_O 	O 	0.4525	0.6378	0.9429	-0.549
Mof_O 	O 	0.5603	0.8021	0.8763	-0.426
Mof_O 	O 	0.0746	0.5983	0.1054	-0.474
Mof_O 	O 	0.1789	0.615	0.225	-0.614
Mof_O 	O 	0.1853	0.5475	0.9429	-0.549
Mof_O 	O 	0.2418	0.4397	0.8763	-0.437
Mof_O 	O 	0.5237	0.9254	0.1054	-0.421
Mof_O 	O 	0.4361	0.8211	0.225	-0.6
Mof_O 	O 	0.3622	0.8147	0.9429	-0.54
Mof_O 	O 	0.1979	0.7582	0.8763	-0.439
Mof_O 	O 	0.9254	0.5237	0.3946	-0.414
Mof_O 	O 	0.8211	0.4361	0.275	-0.599
Mof_O 	O 	0.8147	0.3622	0.5571	-0.574
Mof_O 	O 	0.7582	0.1979	0.6237	-0.462
Mof_O 	O 	0.4763	0.4017	0.3946	-0.449
Mof_O 	O 	0.5639	0.385	0.275	-0.61
Mof_O 	O 	0.6378	0.4525	0.5571	-0.583
Mof_O 	O 	0.8021	0.5603	0.6237	-0.449
Mof_O 	O 	0.5983	0.0746	0.3946	-0.467
Mof_O 	O 	0.615	0.1789	0.275	-0.614
Mof_O 	O 	0.5475	0.1853	0.5571	-0.585
Mof_O 	O 	0.4397	0.2418	0.6237	-0.461
_end
