data_functionalizedCrystal
_audit_creation_method	'EQeq! by Chris Wilmer'
_symmetry_space_group_name_H-M	'P1'
_symmetry_Int_Tables_number	1
_symmetry_cell_setting	triclinic
loop_
_symmetry_equiv_pos_as_xyz
  x,y,z
_cell_length_a	12.6583
_cell_length_b	15.5409
_cell_length_c	16.4094
_cell_angle_alpha	108.446
_cell_angle_beta	98.651
_cell_angle_gamma	109.526
loop_
_atom_site_label
_atom_site_type_symbol
_atom_site_fract_x
_atom_site_fract_y
_atom_site_fract_z
_atom_site_charge
Mof_Mn	Mn	0.5	0.5	0.5	1.045
Mof_Cu	Cu	0.8086	0.62928	0.57839	0.946
Mof_Cu	Cu	0.1914	0.37072	0.42161	0.939
Mof_Cu	Cu	5.13934e-17	0.5	0.5	0.862
Mof_H 	H 	0.2485	0.6077	0.9108	0.137
Mof_H 	H 	0.5493	0.7982	0.0272	0.04
Mof_H 	H 	0.6683	0.8833	0.0997	0.045
Mof_H 	H 	0.8144	0.8648	0.8134	-0.023
Mof_H 	H 	0.592	0.0551	0.1353	0.038
Mof_H 	H 	0.673	0.032	0.2034	0.044
Mof_H 	H 	0.4685	0.7789	0.1471	0.034
Mof_H 	H 	0.4534	0.8691	0.2185	0.041
Mof_H 	H 	0.8296	0.8136	0.4263	-0.006
Mof_H 	H 	0.7978	0.9027	0.3401	0.143
Mof_H 	H 	0.2204	0.8686	0.9522	0.116
Mof_H 	H 	0.7863	0.9511	0.9443	0.153
Mof_H 	H 	0.1139	0.5335	0.771	-0.029
Mof_H 	H 	0.416	0.9196	0.0201	0.047
Mof_H 	H 	0.3618	0.9157	0.1019	0.042
Mof_H 	H 	0.462	0.7524	0.8749	0.154
Mof_H 	H 	0.4865	0.6685	0.74	-0.024
Mof_H 	H 	0.7811	0.3632	0.348	-0.023
Mof_H 	H 	0.466	0.1177	0.3711	0.123
Mof_H 	H 	0.5387	0.2841	0.4739	-0
Mof_H 	H 	0.485	0.6474	0.3458	-0.008
Mof_H 	H 	0.7118	0.2034	0.2456	0.126
Mof_H 	H 	0.4541	0.7328	0.2575	0.13
Mof_H 	H 	0.0627	0.7788	0.8058	-0.008
Mof_H 	H 	0.7515	0.3923	0.0892	0.12
Mof_H 	H 	0.4507	0.2018	0.9728	0.039
Mof_H 	H 	0.3317	0.1167	0.9003	0.041
Mof_H 	H 	0.1856	0.1352	0.1866	-0.037
Mof_H 	H 	0.408	0.9449	0.8647	0.039
Mof_H 	H 	0.327	0.968	0.7966	0.039
Mof_H 	H 	0.5315	0.2211	0.8529	0.037
Mof_H 	H 	0.5466	0.1309	0.7815	0.048
Mof_H 	H 	0.1704	0.1864	0.5737	-0.017
Mof_H 	H 	0.2022	0.0973	0.6599	0.133
Mof_H 	H 	0.7796	0.1314	0.0478	0.108
Mof_H 	H 	0.2137	0.0489	0.0557	0.149
Mof_H 	H 	0.8861	0.4665	0.229	0.014
Mof_H 	H 	0.584	0.0804	0.9799	0.053
Mof_H 	H 	0.6382	0.0843	0.8981	0.052
Mof_H 	H 	0.538	0.2476	0.1251	0.157
Mof_H 	H 	0.5135	0.3315	0.26	-0.026
Mof_H 	H 	0.2189	0.6368	0.652	-0.029
Mof_H 	H 	0.534	0.8823	0.6289	0.124
Mof_H 	H 	0.4613	0.7159	0.5261	-0.002
Mof_H 	H 	0.515	0.3526	0.6542	-0.006
Mof_H 	H 	0.2882	0.7966	0.7544	0.124
Mof_H 	H 	0.5459	0.2672	0.7425	0.135
Mof_H 	H 	0.9373	0.2212	0.1942	0.039
Mof_C 	C 	0.2157	0.6458	0.8891	-0.293
Mof_C 	C 	0.6675	0.6936	0.6798	0.429
Mof_C 	C 	0.9857	0.6071	0.683	0.514
Mof_C 	C 	0.6527	0.7538	0.7655	-0.258
Mof_C 	C 	0.5223	0.9077	0.1203	-0.002
Mof_C 	C 	0.5918	0.8708	0.0616	0.025
Mof_C 	C 	0.7413	0.8404	0.8253	0.228
Mof_C 	C 	0.5912	0.018	0.1745	0.031
Mof_C 	C 	0.5051	0.8514	0.1828	0.034
Mof_C 	C 	0.7114	0.4442	0.4856	0.418
Mof_C 	C 	0.7527	0.796	0.3917	0.17
Mof_C 	C 	0.7334	0.8488	0.3396	-0.277
Mof_C 	C 	0.252	0.7451	0.9404	0.273
Mof_C 	C 	0.1991	0.8007	0.9159	-0.247
Mof_C 	C 	0.625	0.8242	0.2887	0.306
Mof_C 	C 	0.7233	0.8916	0.9027	-0.337
Mof_C 	C 	0.1338	0.6009	0.8078	0.207
Mof_C 	C 	0.4056	0.8879	0.0637	0.02
Mof_C 	C 	0.5347	0.7771	0.8627	-0.33
Mof_C 	C 	0.5507	0.7258	0.7834	0.23
Mof_C 	C 	0.7167	0.3145	0.3539	0.168
Mof_C 	C 	0.6603	0.7191	0.3925	-0.224
Mof_C 	C 	0.0838	0.6506	0.7818	-0.239
Mof_C 	C 	0.6228	0.8633	0.9234	0.345
Mof_C 	C 	0.6771	0.6612	0.4466	0.439
Mof_C 	C 	0.6723	0.3453	0.422	-0.231
Mof_C 	C 	0.5303	0.1673	0.3662	-0.228
Mof_C 	C 	0.5742	0.2674	0.4276	0.134
Mof_C 	C 	0.5837	0.1421	0.2972	0.272
Mof_C 	C 	0.5503	0.6985	0.3436	0.173
Mof_C 	C 	0.6762	0.2182	0.2922	-0.268
Mof_C 	C 	0.5311	0.7494	0.2912	-0.284
Mof_C 	C 	0.1052	0.7469	0.828	0.126
Mof_C 	C 	0.7843	0.3542	0.1109	-0.223
Mof_C 	C 	0.3325	0.3064	0.3202	0.432
Mof_C 	C 	0.0143	0.3929	0.317	0.352
Mof_C 	C 	0.3473	0.2462	0.2345	-0.269
Mof_C 	C 	0.4777	0.0923	0.8797	0.012
Mof_C 	C 	0.4082	0.1292	0.9384	0.023
Mof_C 	C 	0.2587	0.1596	0.1747	0.233
Mof_C 	C 	0.4088	0.982	0.8255	0.019
Mof_C 	C 	0.4949	0.1486	0.8172	0.027
Mof_C 	C 	0.2886	0.5558	0.5144	0.418
Mof_C 	C 	0.2473	0.204	0.6083	0.17
Mof_C 	C 	0.2666	0.1512	0.6604	-0.281
Mof_C 	C 	0.748	0.2549	0.0596	0.238
Mof_C 	C 	0.8009	0.1993	0.0841	-0.196
Mof_C 	C 	0.375	0.1758	0.7113	0.305
Mof_C 	C 	0.2767	0.1084	0.0973	-0.347
Mof_C 	C 	0.8662	0.3991	0.1922	0.111
Mof_C 	C 	0.5944	0.1121	0.9363	0.007
Mof_C 	C 	0.4653	0.2229	0.1373	-0.337
Mof_C 	C 	0.4493	0.2742	0.2166	0.236
Mof_C 	C 	0.2833	0.6855	0.6461	0.167
Mof_C 	C 	0.3397	0.2809	0.6075	-0.228
Mof_C 	C 	0.9162	0.3494	0.2182	-0.107
Mof_C 	C 	0.3772	0.1367	0.0766	0.352
Mof_C 	C 	0.3229	0.3388	0.5534	0.441
Mof_C 	C 	0.3277	0.6547	0.578	-0.237
Mof_C 	C 	0.4697	0.8327	0.6338	-0.232
Mof_C 	C 	0.4258	0.7326	0.5724	0.134
Mof_C 	C 	0.4163	0.8579	0.7028	0.271
Mof_C 	C 	0.4497	0.3015	0.6564	0.176
Mof_C 	C 	0.3238	0.7818	0.7078	-0.273
Mof_C 	C 	0.4689	0.2506	0.7088	-0.286
Mof_C 	C 	0.8948	0.2531	0.172	0.06
Mof_O 	O 	0.651	0.4658	0.5364	-0.424
Mof_O 	O 	0.3428	0.7833	0.0177	-0.249
Mof_O 	O 	0.9246	0.6409	0.6759	-0.5
Mof_O 	O 	0.5764	0.6201	0.626	-0.403
Mof_O 	O 	0.7688	0.7161	0.67	-0.394
Mof_O 	O 	0.59	0.5874	0.4371	-0.414
Mof_O 	O 	0.0071	0.5313	0.6271	-0.457
Mof_O 	O 	0.778	0.6877	0.4949	-0.421
Mof_O 	O 	0.6172	0.879	0.2404	-0.255
Mof_O 	O 	0.5349	0.0468	0.2407	-0.245
Mof_O 	O 	0.8052	0.5064	0.4862	-0.465
Mof_O 	O 	0.6105	0.9194	0.001	-0.27
Mof_O 	O 	0.349	0.5342	0.4636	-0.428
Mof_O 	O 	0.6572	0.2167	0.9823	-0.237
Mof_O 	O 	0.0754	0.3591	0.3241	-0.467
Mof_O 	O 	0.4236	0.3799	0.374	-0.405
Mof_O 	O 	0.2312	0.2839	0.33	-0.408
Mof_O 	O 	0.41	0.4126	0.5629	-0.414
Mof_O 	O 	0.9929	0.4687	0.3729	-0.37
Mof_O 	O 	0.222	0.3123	0.5051	-0.431
Mof_O 	O 	0.3828	0.121	0.7596	-0.255
Mof_O 	O 	0.4651	0.9532	0.7593	-0.247
Mof_O 	O 	0.1948	0.4936	0.5138	-0.478
Mof_O 	O 	0.3895	0.0806	0.999	-0.273
_end
