data_functionalizedCrystal
_audit_creation_method	'EQeq! by Chris Wilmer'
_symmetry_space_group_name_H-M	'P1'
_symmetry_Int_Tables_number	1
_symmetry_cell_setting	triclinic
loop_
_symmetry_equiv_pos_as_xyz
  x,y,z
_cell_length_a	13.8163
_cell_length_b	27.5814
_cell_length_c	44.236
_cell_angle_alpha	90
_cell_angle_beta	90
_cell_angle_gamma	90
loop_
_atom_site_label
_atom_site_type_symbol
_atom_site_fract_x
_atom_site_fract_y
_atom_site_fract_z
_atom_site_charge
Mof_Zn	Zn	0.35904	0.04396	0.08831	1.163
Mof_Zn	Zn	0.3816	0.52515	0.08568	1.164
Mof_Zn	Zn	0.31358	0.23974	0.82026	1.166
Mof_Zn	Zn	0.64096	0.45604	0.58831	1.163
Mof_Zn	Zn	0.6184	0.97485	0.58568	1.164
Mof_Zn	Zn	0.68642	0.26026	0.32026	1.166
Mof_Zn	Zn	0.85904	0.95604	0.41169	1.164
Mof_Zn	Zn	0.8816	0.47485	0.41432	1.165
Mof_Zn	Zn	0.81358	0.76026	0.67974	1.167
Mof_Zn	Zn	0.14096	0.54396	0.91169	1.164
Mof_Zn	Zn	0.1184	0.02515	0.91432	1.165
Mof_Zn	Zn	0.18642	0.73974	0.17974	1.167
Mof_H 	H 	0.9827	0.0371	0.9665	-0.005
Mof_H 	H 	0.8222	0.0657	0.9755	0.09
Mof_H 	H 	0.9613	0.0809	0.8817	-0.006
Mof_H 	H 	0.8063	0.1072	0.8886	0.098
Mof_H 	H 	0.5286	0.2183	0.8358	-0.011
Mof_H 	H 	0.6139	0.1791	0.8722	0.087
Mof_H 	H 	0.2819	0.1881	0.8763	-0.014
Mof_H 	H 	0.3668	0.1481	0.9161	0.079
Mof_H 	H 	0.3002	0.0732	0.0259	-0.008
Mof_H 	H 	0.3692	0.0983	0.9811	0.078
Mof_H 	H 	0.5451	0.0222	0.0578	-0.01
Mof_H 	H 	0.6281	0.0484	0.0139	0.087
Mof_H 	H 	0.4424	0.0826	0.1477	-0.005
Mof_H 	H 	0.4749	0.1548	0.169	0.075
Mof_H 	H 	0.3775	0.1486	0.0701	-0.008
Mof_H 	H 	0.408	0.2227	0.091	0.07
Mof_H 	H 	0.3971	0.4175	0.0694	-0.003
Mof_H 	H 	0.4246	0.3445	0.0931	0.076
Mof_H 	H 	0.4408	0.4881	0.1465	-0.005
Mof_H 	H 	0.4738	0.4175	0.1708	0.077
Mof_H 	H 	0.6264	0.3382	0.2803	-0.016
Mof_H 	H 	0.5642	0.3498	0.2304	0.083
Mof_H 	H 	0.5633	0.2014	0.2774	0.001
Mof_H 	H 	0.5064	0.2084	0.2277	0.086
Mof_H 	H 	0.0173	0.4629	0.4665	-0.006
Mof_H 	H 	0.1778	0.4343	0.4755	0.09
Mof_H 	H 	0.0387	0.4191	0.3817	-0.006
Mof_H 	H 	0.1937	0.3928	0.3886	0.098
Mof_H 	H 	0.4714	0.2817	0.3358	-0.011
Mof_H 	H 	0.3861	0.3209	0.3722	0.087
Mof_H 	H 	0.7181	0.3119	0.3763	-0.014
Mof_H 	H 	0.6332	0.3519	0.4161	0.079
Mof_H 	H 	0.6998	0.4268	0.5259	-0.008
Mof_H 	H 	0.6308	0.4017	0.4811	0.078
Mof_H 	H 	0.4549	0.4778	0.5578	-0.01
Mof_H 	H 	0.3719	0.4516	0.5139	0.087
Mof_H 	H 	0.5576	0.4174	0.6477	-0.005
Mof_H 	H 	0.5251	0.3452	0.669	0.075
Mof_H 	H 	0.6225	0.3514	0.5701	-0.008
Mof_H 	H 	0.592	0.2773	0.591	0.07
Mof_H 	H 	0.6029	0.0825	0.5694	-0.003
Mof_H 	H 	0.5754	0.1555	0.5931	0.077
Mof_H 	H 	0.5592	0.0119	0.6465	-0.005
Mof_H 	H 	0.5262	0.0825	0.6708	0.077
Mof_H 	H 	0.3736	0.1618	0.7803	-0.016
Mof_H 	H 	0.4358	0.1502	0.7304	0.083
Mof_H 	H 	0.4367	0.2986	0.7774	0.001
Mof_H 	H 	0.4936	0.2916	0.7277	0.086
Mof_H 	H 	0.4827	0.9629	0.5335	-0.005
Mof_H 	H 	0.3222	0.9343	0.5245	0.09
Mof_H 	H 	0.4613	0.9191	0.6183	-0.006
Mof_H 	H 	0.3063	0.8928	0.6114	0.098
Mof_H 	H 	0.0286	0.7817	0.6642	-0.01
Mof_H 	H 	0.1139	0.8209	0.6278	0.087
Mof_H 	H 	0.7819	0.8119	0.6237	-0.014
Mof_H 	H 	0.8668	0.8519	0.5839	0.079
Mof_H 	H 	0.8002	0.9268	0.4741	-0.008
Mof_H 	H 	0.8692	0.9017	0.5189	0.078
Mof_H 	H 	0.0451	0.9778	0.4422	-0.01
Mof_H 	H 	0.1281	0.9516	0.4861	0.087
Mof_H 	H 	0.9424	0.9174	0.3523	-0.005
Mof_H 	H 	0.9749	0.8452	0.331	0.074
Mof_H 	H 	0.8775	0.8514	0.4299	-0.008
Mof_H 	H 	0.908	0.7773	0.409	0.07
Mof_H 	H 	0.8971	0.5825	0.4306	-0.003
Mof_H 	H 	0.9246	0.6555	0.4069	0.076
Mof_H 	H 	0.9408	0.5119	0.3535	-0.005
Mof_H 	H 	0.9738	0.5825	0.3292	0.077
Mof_H 	H 	0.1264	0.6618	0.2197	-0.016
Mof_H 	H 	0.0642	0.6502	0.2696	0.083
Mof_H 	H 	0.0633	0.7986	0.2226	0.001
Mof_H 	H 	0.0064	0.7916	0.2723	0.086
Mof_H 	H 	0.5173	0.5371	0.0335	-0.006
Mof_H 	H 	0.6778	0.5657	0.0245	0.09
Mof_H 	H 	0.5387	0.5809	0.1183	-0.006
Mof_H 	H 	0.6937	0.6072	0.1114	0.098
Mof_H 	H 	0.9714	0.7183	0.1642	-0.012
Mof_H 	H 	0.8861	0.6791	0.1278	0.088
Mof_H 	H 	0.2181	0.6881	0.1237	-0.014
Mof_H 	H 	0.1332	0.6481	0.0839	0.079
Mof_H 	H 	0.1998	0.5732	0.9741	-0.008
Mof_H 	H 	0.1308	0.5983	0.0189	0.078
Mof_H 	H 	0.9549	0.5222	0.9422	-0.01
Mof_H 	H 	0.8719	0.5484	0.9861	0.087
Mof_H 	H 	0.0576	0.5826	0.8523	-0.005
Mof_H 	H 	0.0251	0.6548	0.831	0.075
Mof_H 	H 	0.1225	0.6486	0.9299	-0.008
Mof_H 	H 	0.092	0.7227	0.909	0.07
Mof_H 	H 	0.1029	0.9175	0.9306	-0.003
Mof_H 	H 	0.0754	0.8445	0.9069	0.077
Mof_H 	H 	0.0592	0.9881	0.8535	-0.005
Mof_H 	H 	0.0262	0.9175	0.8292	0.077
Mof_H 	H 	0.8736	0.8382	0.7197	-0.016
Mof_H 	H 	0.9358	0.8498	0.7696	0.083
Mof_H 	H 	0.9367	0.7014	0.7226	0.001
Mof_H 	H 	0.9936	0.7084	0.7723	0.085
Mof_C 	C 	0.9466	0.0514	0.9505	0.07
Mof_C 	C 	0.85	0.0685	0.9559	-0.123
Mof_C 	C 	0.9322	0.0771	0.901	0.073
Mof_C 	C 	0.8408	0.0931	0.905	-0.133
Mof_C 	C 	0.7983	0.0889	0.933	0.057
Mof_C 	C 	0.6945	0.1018	0.9378	0.086
Mof_C 	C 	0.4942	0.2033	0.8519	0.075
Mof_C 	C 	0.5453	0.1803	0.8736	-0.136
Mof_C 	C 	0.3504	0.1862	0.8753	0.072
Mof_C 	C 	0.3999	0.1619	0.8993	-0.111
Mof_C 	C 	0.5034	0.1598	0.8963	0.073
Mof_C 	C 	0.5565	0.1365	0.9209	0.092
Mof_C 	C 	0.368	0.0692	0.0233	0.076
Mof_C 	C 	0.4077	0.084	0.9965	-0.113
Mof_C 	C 	0.5117	0.0394	0.0424	0.055
Mof_C 	C 	0.5605	0.0541	0.0159	-0.107
Mof_C 	C 	0.5096	0.0769	0.9925	0.044
Mof_C 	C 	0.5579	0.0946	0.9654	0.098
Mof_C 	C 	0.4347	0.1113	0.1361	0.055
Mof_C 	C 	0.4522	0.1547	0.1488	-0.1
Mof_C 	C 	0.3966	0.1504	0.0907	0.047
Mof_C 	C 	0.4136	0.1946	0.1033	-0.093
Mof_C 	C 	0.4399	0.2001	0.1346	0.03
Mof_C 	C 	0.4521	0.2442	0.15	0.109
Mof_C 	C 	0.4112	0.4173	0.0904	0.061
Mof_C 	C 	0.426	0.3735	0.1046	-0.102
Mof_C 	C 	0.4374	0.4586	0.1355	0.06
Mof_C 	C 	0.4543	0.4166	0.1503	-0.103
Mof_C 	C 	0.4431	0.3711	0.1355	0.043
Mof_C 	C 	0.4555	0.3256	0.1511	0.104
Mof_C 	C 	0.603	0.3109	0.2694	0.08
Mof_C 	C 	0.5652	0.3186	0.2395	-0.125
Mof_C 	C 	0.5672	0.232	0.2675	0.07
Mof_C 	C 	0.5308	0.2362	0.2379	-0.126
Mof_C 	C 	0.5305	0.2782	0.2245	0.063
Mof_C 	C 	0.4936	0.2839	0.1926	0.108
Mof_C 	C 	0.0534	0.4486	0.4505	0.07
Mof_C 	C 	0.15	0.4315	0.4559	-0.123
Mof_C 	C 	0.0678	0.4229	0.401	0.073
Mof_C 	C 	0.1592	0.4069	0.405	-0.134
Mof_C 	C 	0.2017	0.4111	0.433	0.057
Mof_C 	C 	0.3055	0.3982	0.4378	0.086
Mof_C 	C 	0.5058	0.2967	0.3519	0.075
Mof_C 	C 	0.4547	0.3197	0.3736	-0.136
Mof_C 	C 	0.6496	0.3138	0.3753	0.072
Mof_C 	C 	0.6001	0.3381	0.3993	-0.111
Mof_C 	C 	0.4966	0.3402	0.3963	0.073
Mof_C 	C 	0.4435	0.3635	0.4209	0.092
Mof_C 	C 	0.632	0.4308	0.5233	0.076
Mof_C 	C 	0.5923	0.416	0.4965	-0.113
Mof_C 	C 	0.4883	0.4606	0.5424	0.055
Mof_C 	C 	0.4395	0.4459	0.5159	-0.107
Mof_C 	C 	0.4904	0.4231	0.4925	0.044
Mof_C 	C 	0.4421	0.4054	0.4654	0.098
Mof_C 	C 	0.5653	0.3887	0.6361	0.055
Mof_C 	C 	0.5478	0.3453	0.6488	-0.1
Mof_C 	C 	0.6034	0.3496	0.5907	0.047
Mof_C 	C 	0.5864	0.3054	0.6033	-0.093
Mof_C 	C 	0.5601	0.2999	0.6346	0.03
Mof_C 	C 	0.5479	0.2558	0.65	0.109
Mof_C 	C 	0.5888	0.0827	0.5904	0.061
Mof_C 	C 	0.574	0.1265	0.6046	-0.102
Mof_C 	C 	0.5626	0.0414	0.6355	0.06
Mof_C 	C 	0.5457	0.0834	0.6503	-0.103
Mof_C 	C 	0.5569	0.1289	0.6355	0.043
Mof_C 	C 	0.5445	0.1744	0.6511	0.104
Mof_C 	C 	0.397	0.1891	0.7694	0.08
Mof_C 	C 	0.4348	0.1814	0.7395	-0.125
Mof_C 	C 	0.4328	0.268	0.7675	0.07
Mof_C 	C 	0.4692	0.2638	0.7379	-0.126
Mof_C 	C 	0.4695	0.2218	0.7245	0.063
Mof_C 	C 	0.5064	0.2161	0.6926	0.108
Mof_C 	C 	0.4466	0.9486	0.5495	0.07
Mof_C 	C 	0.35	0.9315	0.5441	-0.123
Mof_C 	C 	0.4322	0.9229	0.599	0.073
Mof_C 	C 	0.3408	0.9069	0.595	-0.133
Mof_C 	C 	0.2983	0.9111	0.567	0.057
Mof_C 	C 	0.1945	0.8982	0.5622	0.086
Mof_C 	C 	0.9942	0.7967	0.6481	0.073
Mof_C 	C 	0.0453	0.8197	0.6264	-0.135
Mof_C 	C 	0.8504	0.8138	0.6247	0.072
Mof_C 	C 	0.8999	0.8381	0.6007	-0.112
Mof_C 	C 	0.0034	0.8402	0.6037	0.073
Mof_C 	C 	0.0565	0.8635	0.5791	0.092
Mof_C 	C 	0.868	0.9308	0.4767	0.076
Mof_C 	C 	0.9077	0.916	0.5035	-0.115
Mof_C 	C 	0.0117	0.9606	0.4576	0.056
Mof_C 	C 	0.0605	0.9459	0.4841	-0.108
Mof_C 	C 	0.0096	0.9231	0.5075	0.045
Mof_C 	C 	0.0579	0.9054	0.5346	0.098
Mof_C 	C 	0.9347	0.8887	0.3639	0.055
Mof_C 	C 	0.9522	0.8453	0.3512	-0.1
Mof_C 	C 	0.8966	0.8496	0.4093	0.047
Mof_C 	C 	0.9136	0.8054	0.3967	-0.093
Mof_C 	C 	0.9399	0.7999	0.3654	0.03
Mof_C 	C 	0.9521	0.7558	0.35	0.109
Mof_C 	C 	0.9112	0.5827	0.4096	0.061
Mof_C 	C 	0.926	0.6265	0.3954	-0.102
Mof_C 	C 	0.9374	0.5414	0.3645	0.06
Mof_C 	C 	0.9543	0.5834	0.3497	-0.103
Mof_C 	C 	0.9431	0.6289	0.3645	0.043
Mof_C 	C 	0.9555	0.6744	0.3489	0.104
Mof_C 	C 	0.103	0.6891	0.2306	0.08
Mof_C 	C 	0.0652	0.6814	0.2605	-0.125
Mof_C 	C 	0.0672	0.768	0.2325	0.07
Mof_C 	C 	0.0308	0.7638	0.2621	-0.126
Mof_C 	C 	0.0305	0.7218	0.2755	0.063
Mof_C 	C 	0.9936	0.7161	0.3074	0.108
Mof_C 	C 	0.5534	0.5514	0.0495	0.07
Mof_C 	C 	0.65	0.5685	0.0441	-0.123
Mof_C 	C 	0.5678	0.5771	0.099	0.073
Mof_C 	C 	0.6592	0.5931	0.095	-0.134
Mof_C 	C 	0.7017	0.5889	0.067	0.057
Mof_C 	C 	0.8055	0.6018	0.0622	0.086
Mof_C 	C 	0.0058	0.7033	0.1481	0.076
Mof_C 	C 	0.9547	0.6803	0.1264	-0.137
Mof_C 	C 	0.1496	0.6862	0.1247	0.072
Mof_C 	C 	0.1001	0.6619	0.1007	-0.111
Mof_C 	C 	0.9966	0.6598	0.1037	0.073
Mof_C 	C 	0.9435	0.6365	0.0791	0.092
Mof_C 	C 	0.132	0.5692	0.9767	0.075
Mof_C 	C 	0.0923	0.584	0.0035	-0.113
Mof_C 	C 	0.9883	0.5394	0.9576	0.055
Mof_C 	C 	0.9395	0.5541	0.9841	-0.107
Mof_C 	C 	0.9904	0.5769	0.0075	0.043
Mof_C 	C 	0.9421	0.5946	0.0346	0.098
Mof_C 	C 	0.0653	0.6113	0.8639	0.055
Mof_C 	C 	0.0478	0.6547	0.8512	-0.1
Mof_C 	C 	0.1034	0.6504	0.9093	0.047
Mof_C 	C 	0.0864	0.6946	0.8967	-0.093
Mof_C 	C 	0.0601	0.7001	0.8654	0.03
Mof_C 	C 	0.0479	0.7442	0.85	0.109
Mof_C 	C 	0.0888	0.9173	0.9096	0.061
Mof_C 	C 	0.074	0.8735	0.8954	-0.102
Mof_C 	C 	0.0626	0.9586	0.8645	0.061
Mof_C 	C 	0.0457	0.9166	0.8497	-0.103
Mof_C 	C 	0.0569	0.8711	0.8645	0.043
Mof_C 	C 	0.0445	0.8256	0.8489	0.104
Mof_C 	C 	0.897	0.8109	0.7306	0.079
Mof_C 	C 	0.9348	0.8186	0.7605	-0.125
Mof_C 	C 	0.9328	0.732	0.7325	0.069
Mof_C 	C 	0.9692	0.7362	0.7621	-0.126
Mof_C 	C 	0.9695	0.7782	0.7755	0.062
Mof_C 	C 	0.0064	0.7839	0.8074	0.108
Mof_I 	I 	0.44623	0.97849	0.11781	-0.361
Mof_I 	I 	0.17669	0.05282	0.08466	-0.385
Mof_I 	I 	0.30553	0.50686	0.03415	-0.391
Mof_I 	I 	0.29542	0.57357	0.12587	-0.37
Mof_I 	I 	0.30566	0.3304	0.83134	-0.372
Mof_I 	I 	0.15661	0.19313	0.81287	-0.37
Mof_I 	I 	0.55377	0.52151	0.61781	-0.361
Mof_I 	I 	0.82331	0.44718	0.58466	-0.384
Mof_I 	I 	0.69447	0.99314	0.53415	-0.391
Mof_I 	I 	0.70458	0.92643	0.62587	-0.371
Mof_I 	I 	0.69434	0.1696	0.33134	-0.372
Mof_I 	I 	0.84339	0.30687	0.31287	-0.369
Mof_I 	I 	0.94623	0.02151	0.38219	-0.36
Mof_I 	I 	0.67669	0.94718	0.41534	-0.384
Mof_I 	I 	0.80553	0.49314	0.46585	-0.391
Mof_I 	I 	0.79542	0.42643	0.37413	-0.37
Mof_I 	I 	0.80566	0.6696	0.66866	-0.372
Mof_I 	I 	0.65661	0.80687	0.68713	-0.369
Mof_I 	I 	0.05377	0.47849	0.88219	-0.361
Mof_I 	I 	0.32331	0.55282	0.91534	-0.384
Mof_I 	I 	0.19447	0.00686	0.96585	-0.392
Mof_I 	I 	0.20458	0.07357	0.87413	-0.371
Mof_I 	I 	0.19434	0.8304	0.16866	-0.372
Mof_I 	I 	0.34339	0.69313	0.18713	-0.369
Mof_N 	N 	0.985	0.0556	0.9234	-0.27
Mof_N 	N 	0.3936	0.2063	0.8519	-0.281
Mof_N 	N 	0.4174	0.05	0.0455	-0.271
Mof_N 	N 	0.6532	0.1287	0.9166	-0.131
Mof_N 	N 	0.5058	0.1192	0.9449	-0.135
Mof_N 	N 	0.6511	0.083	0.9625	-0.143
Mof_N 	N 	0.4064	0.1082	0.107	-0.265
Mof_N 	N 	0.4159	0.4604	0.1054	-0.266
Mof_N 	N 	0.6068	0.269	0.2821	-0.282
Mof_N 	N 	0.4419	0.2855	0.1346	-0.14
Mof_N 	N 	0.484	0.3259	0.1804	-0.142
Mof_N 	N 	0.4801	0.2415	0.179	-0.143
Mof_N 	N 	0.015	0.4444	0.4234	-0.271
Mof_N 	N 	0.6064	0.2937	0.3519	-0.281
Mof_N 	N 	0.5826	0.45	0.5455	-0.271
Mof_N 	N 	0.3468	0.3713	0.4166	-0.131
Mof_N 	N 	0.4942	0.3808	0.4449	-0.135
Mof_N 	N 	0.3489	0.417	0.4625	-0.143
Mof_N 	N 	0.5936	0.3918	0.607	-0.265
Mof_N 	N 	0.5841	0.0396	0.6054	-0.266
Mof_N 	N 	0.3932	0.231	0.7821	-0.282
Mof_N 	N 	0.5581	0.2145	0.6346	-0.14
Mof_N 	N 	0.516	0.1741	0.6804	-0.142
Mof_N 	N 	0.5199	0.2585	0.679	-0.143
Mof_N 	N 	0.485	0.9444	0.5766	-0.271
Mof_N 	N 	0.8936	0.7937	0.6481	-0.28
Mof_N 	N 	0.9174	0.95	0.4545	-0.272
Mof_N 	N 	0.1532	0.8713	0.5834	-0.131
Mof_N 	N 	0.0058	0.8808	0.5551	-0.135
Mof_N 	N 	0.1511	0.917	0.5375	-0.143
Mof_N 	N 	0.9064	0.8918	0.393	-0.265
Mof_N 	N 	0.9159	0.5396	0.3946	-0.266
Mof_N 	N 	0.1068	0.731	0.2179	-0.282
Mof_N 	N 	0.9419	0.7145	0.3654	-0.14
Mof_N 	N 	0.984	0.6741	0.3196	-0.142
Mof_N 	N 	0.9801	0.7585	0.321	-0.143
Mof_N 	N 	0.515	0.5556	0.0766	-0.271
Mof_N 	N 	0.1064	0.7063	0.1481	-0.281
Mof_N 	N 	0.0826	0.55	0.9545	-0.271
Mof_N 	N 	0.8468	0.6287	0.0834	-0.131
Mof_N 	N 	0.9942	0.6192	0.0551	-0.135
Mof_N 	N 	0.8489	0.583	0.0375	-0.143
Mof_N 	N 	0.0936	0.6082	0.893	-0.265
Mof_N 	N 	0.0841	0.9604	0.8946	-0.266
Mof_N 	N 	0.8932	0.769	0.7179	-0.282
Mof_N 	N 	0.0581	0.7855	0.8654	-0.14
Mof_N 	N 	0.016	0.8259	0.8196	-0.142
Mof_N 	N 	0.0199	0.7415	0.821	-0.143
Mof_Zn	Zn	0.64096	0.95604	0.91169	1.164
Mof_Zn	Zn	0.6184	0.47485	0.91432	1.165
Mof_Zn	Zn	0.68642	0.76026	0.17974	1.167
Mof_Zn	Zn	0.35904	0.54396	0.41169	1.164
Mof_Zn	Zn	0.3816	0.02515	0.41432	1.165
Mof_Zn	Zn	0.31358	0.73974	0.67974	1.167
Mof_Zn	Zn	0.14096	0.04396	0.58831	1.164
Mof_Zn	Zn	0.1184	0.52515	0.58568	1.165
Mof_Zn	Zn	0.18642	0.23974	0.32026	1.167
Mof_Zn	Zn	0.85904	0.45604	0.08831	1.164
Mof_Zn	Zn	0.8816	0.97485	0.08568	1.165
Mof_Zn	Zn	0.81358	0.26026	0.82026	1.167
Mof_H 	H 	0.0173	0.9629	0.0335	-0.005
Mof_H 	H 	0.1778	0.9343	0.0245	0.09
Mof_H 	H 	0.0387	0.9191	0.1183	-0.006
Mof_H 	H 	0.1937	0.8928	0.1114	0.098
Mof_H 	H 	0.4714	0.7817	0.1642	-0.011
Mof_H 	H 	0.3861	0.8209	0.1278	0.087
Mof_H 	H 	0.7181	0.8119	0.1237	-0.014
Mof_H 	H 	0.6332	0.8519	0.0839	0.079
Mof_H 	H 	0.6998	0.9268	0.9741	-0.008
Mof_H 	H 	0.6308	0.9017	0.0189	0.078
Mof_H 	H 	0.4549	0.9778	0.9422	-0.01
Mof_H 	H 	0.3719	0.9516	0.9861	0.087
Mof_H 	H 	0.5576	0.9174	0.8523	-0.005
Mof_H 	H 	0.5251	0.8452	0.831	0.075
Mof_H 	H 	0.6225	0.8514	0.9299	-0.008
Mof_H 	H 	0.592	0.7773	0.909	0.07
Mof_H 	H 	0.6029	0.5825	0.9306	-0.003
Mof_H 	H 	0.5754	0.6555	0.9069	0.076
Mof_H 	H 	0.5592	0.5119	0.8535	-0.005
Mof_H 	H 	0.5262	0.5825	0.8292	0.077
Mof_H 	H 	0.3736	0.6618	0.7197	-0.016
Mof_H 	H 	0.4358	0.6502	0.7696	0.083
Mof_H 	H 	0.4367	0.7986	0.7226	0.001
Mof_H 	H 	0.4936	0.7916	0.7723	0.086
Mof_H 	H 	0.9827	0.5371	0.5335	-0.006
Mof_H 	H 	0.8222	0.5657	0.5245	0.09
Mof_H 	H 	0.9613	0.5809	0.6183	-0.006
Mof_H 	H 	0.8063	0.6072	0.6114	0.098
Mof_H 	H 	0.5286	0.7183	0.6642	-0.011
Mof_H 	H 	0.6139	0.6791	0.6278	0.087
Mof_H 	H 	0.2819	0.6881	0.6237	-0.014
Mof_H 	H 	0.3668	0.6481	0.5839	0.079
Mof_H 	H 	0.3002	0.5732	0.4741	-0.008
Mof_H 	H 	0.3692	0.5983	0.5189	0.078
Mof_H 	H 	0.5451	0.5222	0.4422	-0.01
Mof_H 	H 	0.6281	0.5484	0.4861	0.087
Mof_H 	H 	0.4424	0.5826	0.3523	-0.005
Mof_H 	H 	0.4749	0.6548	0.331	0.075
Mof_H 	H 	0.3775	0.6486	0.4299	-0.008
Mof_H 	H 	0.408	0.7227	0.409	0.07
Mof_H 	H 	0.3971	0.9175	0.4306	-0.003
Mof_H 	H 	0.4246	0.8445	0.4069	0.077
Mof_H 	H 	0.4408	0.9881	0.3535	-0.005
Mof_H 	H 	0.4738	0.9175	0.3292	0.077
Mof_H 	H 	0.6264	0.8382	0.2197	-0.016
Mof_H 	H 	0.5642	0.8498	0.2696	0.083
Mof_H 	H 	0.5633	0.7014	0.2226	0.001
Mof_H 	H 	0.5064	0.7084	0.2723	0.086
Mof_H 	H 	0.5173	0.0371	0.4665	-0.005
Mof_H 	H 	0.6778	0.0657	0.4755	0.09
Mof_H 	H 	0.5387	0.0809	0.3817	-0.006
Mof_H 	H 	0.6937	0.1072	0.3886	0.098
Mof_H 	H 	0.9714	0.2183	0.3358	-0.01
Mof_H 	H 	0.8861	0.1791	0.3722	0.087
Mof_H 	H 	0.2181	0.1881	0.3763	-0.014
Mof_H 	H 	0.1332	0.1481	0.4161	0.079
Mof_H 	H 	0.1998	0.0732	0.5259	-0.008
Mof_H 	H 	0.1308	0.0983	0.4811	0.078
Mof_H 	H 	0.9549	0.0222	0.5578	-0.01
Mof_H 	H 	0.8719	0.0484	0.5139	0.087
Mof_H 	H 	0.0576	0.0826	0.6477	-0.005
Mof_H 	H 	0.0251	0.1548	0.669	0.074
Mof_H 	H 	0.1225	0.1486	0.5701	-0.008
Mof_H 	H 	0.092	0.2227	0.591	0.07
Mof_H 	H 	0.1029	0.4175	0.5694	-0.003
Mof_H 	H 	0.0754	0.3445	0.5931	0.076
Mof_H 	H 	0.0592	0.4881	0.6465	-0.005
Mof_H 	H 	0.0262	0.4175	0.6708	0.077
Mof_H 	H 	0.8736	0.3382	0.7803	-0.016
Mof_H 	H 	0.9358	0.3498	0.7304	0.083
Mof_H 	H 	0.9367	0.2014	0.7774	0.001
Mof_H 	H 	0.9936	0.2084	0.7277	0.086
Mof_H 	H 	0.4827	0.4629	0.9665	-0.006
Mof_H 	H 	0.3222	0.4343	0.9755	0.09
Mof_H 	H 	0.4613	0.4191	0.8817	-0.006
Mof_H 	H 	0.3063	0.3928	0.8886	0.098
Mof_H 	H 	0.0286	0.2817	0.8358	-0.012
Mof_H 	H 	0.1139	0.3209	0.8722	0.088
Mof_H 	H 	0.7819	0.3119	0.8763	-0.014
Mof_H 	H 	0.8668	0.3519	0.9161	0.079
Mof_H 	H 	0.8002	0.4268	0.0259	-0.008
Mof_H 	H 	0.8692	0.4017	0.9811	0.078
Mof_H 	H 	0.0451	0.4778	0.0578	-0.01
Mof_H 	H 	0.1281	0.4516	0.0139	0.087
Mof_H 	H 	0.9424	0.4174	0.1477	-0.005
Mof_H 	H 	0.9749	0.3452	0.169	0.075
Mof_H 	H 	0.8775	0.3514	0.0701	-0.008
Mof_H 	H 	0.908	0.2773	0.091	0.07
Mof_H 	H 	0.8971	0.0825	0.0694	-0.003
Mof_H 	H 	0.9246	0.1555	0.0931	0.077
Mof_H 	H 	0.9408	0.0119	0.1465	-0.005
Mof_H 	H 	0.9738	0.0825	0.1708	0.077
Mof_H 	H 	0.1264	0.1618	0.2803	-0.016
Mof_H 	H 	0.0642	0.1502	0.2304	0.083
Mof_H 	H 	0.0633	0.2986	0.2774	0.001
Mof_H 	H 	0.0064	0.2916	0.2277	0.085
Mof_C 	C 	0.0534	0.9486	0.0495	0.07
Mof_C 	C 	0.15	0.9315	0.0441	-0.123
Mof_C 	C 	0.0678	0.9229	0.099	0.073
Mof_C 	C 	0.1592	0.9069	0.095	-0.133
Mof_C 	C 	0.2017	0.9111	0.067	0.057
Mof_C 	C 	0.3055	0.8982	0.0622	0.086
Mof_C 	C 	0.5058	0.7967	0.1481	0.075
Mof_C 	C 	0.4547	0.8197	0.1264	-0.136
Mof_C 	C 	0.6496	0.8138	0.1247	0.072
Mof_C 	C 	0.6001	0.8381	0.1007	-0.111
Mof_C 	C 	0.4966	0.8402	0.1037	0.073
Mof_C 	C 	0.4435	0.8635	0.0791	0.092
Mof_C 	C 	0.632	0.9308	0.9767	0.076
Mof_C 	C 	0.5923	0.916	0.0035	-0.113
Mof_C 	C 	0.4883	0.9606	0.9576	0.055
Mof_C 	C 	0.4395	0.9459	0.9841	-0.107
Mof_C 	C 	0.4904	0.9231	0.0075	0.044
Mof_C 	C 	0.4421	0.9054	0.0346	0.098
Mof_C 	C 	0.5653	0.8887	0.8639	0.055
Mof_C 	C 	0.5478	0.8453	0.8512	-0.1
Mof_C 	C 	0.6034	0.8496	0.9093	0.047
Mof_C 	C 	0.5864	0.8054	0.8967	-0.093
Mof_C 	C 	0.5601	0.7999	0.8654	0.03
Mof_C 	C 	0.5479	0.7558	0.85	0.109
Mof_C 	C 	0.5888	0.5827	0.9096	0.061
Mof_C 	C 	0.574	0.6265	0.8954	-0.102
Mof_C 	C 	0.5626	0.5414	0.8645	0.06
Mof_C 	C 	0.5457	0.5834	0.8497	-0.103
Mof_C 	C 	0.5569	0.6289	0.8645	0.043
Mof_C 	C 	0.5445	0.6744	0.8489	0.104
Mof_C 	C 	0.397	0.6891	0.7306	0.08
Mof_C 	C 	0.4348	0.6814	0.7605	-0.125
Mof_C 	C 	0.4328	0.768	0.7325	0.07
Mof_C 	C 	0.4692	0.7638	0.7621	-0.126
Mof_C 	C 	0.4695	0.7218	0.7755	0.063
Mof_C 	C 	0.5064	0.7161	0.8074	0.108
Mof_C 	C 	0.9466	0.5514	0.5495	0.07
Mof_C 	C 	0.85	0.5685	0.5441	-0.123
Mof_C 	C 	0.9322	0.5771	0.599	0.073
Mof_C 	C 	0.8408	0.5931	0.595	-0.134
Mof_C 	C 	0.7983	0.5889	0.567	0.057
Mof_C 	C 	0.6945	0.6018	0.5622	0.086
Mof_C 	C 	0.4942	0.7033	0.6481	0.075
Mof_C 	C 	0.5453	0.6803	0.6264	-0.136
Mof_C 	C 	0.3504	0.6862	0.6247	0.072
Mof_C 	C 	0.3999	0.6619	0.6007	-0.111
Mof_C 	C 	0.5034	0.6598	0.6037	0.073
Mof_C 	C 	0.5565	0.6365	0.5791	0.092
Mof_C 	C 	0.368	0.5692	0.4767	0.076
Mof_C 	C 	0.4077	0.584	0.5035	-0.113
Mof_C 	C 	0.5117	0.5394	0.4576	0.055
Mof_C 	C 	0.5605	0.5541	0.4841	-0.107
Mof_C 	C 	0.5096	0.5769	0.5075	0.044
Mof_C 	C 	0.5579	0.5946	0.5346	0.098
Mof_C 	C 	0.4347	0.6113	0.3639	0.055
Mof_C 	C 	0.4522	0.6547	0.3512	-0.1
Mof_C 	C 	0.3966	0.6504	0.4093	0.047
Mof_C 	C 	0.4136	0.6946	0.3967	-0.093
Mof_C 	C 	0.4399	0.7001	0.3654	0.03
Mof_C 	C 	0.4521	0.7442	0.35	0.109
Mof_C 	C 	0.4112	0.9173	0.4096	0.061
Mof_C 	C 	0.426	0.8735	0.3954	-0.102
Mof_C 	C 	0.4374	0.9586	0.3645	0.06
Mof_C 	C 	0.4543	0.9166	0.3497	-0.103
Mof_C 	C 	0.4431	0.8711	0.3645	0.043
Mof_C 	C 	0.4555	0.8256	0.3489	0.104
Mof_C 	C 	0.603	0.8109	0.2306	0.08
Mof_C 	C 	0.5652	0.8186	0.2605	-0.125
Mof_C 	C 	0.5672	0.732	0.2325	0.07
Mof_C 	C 	0.5308	0.7362	0.2621	-0.126
Mof_C 	C 	0.5305	0.7782	0.2755	0.063
Mof_C 	C 	0.4936	0.7839	0.3074	0.108
Mof_C 	C 	0.5534	0.0514	0.4505	0.07
Mof_C 	C 	0.65	0.0685	0.4559	-0.123
Mof_C 	C 	0.5678	0.0771	0.401	0.073
Mof_C 	C 	0.6592	0.0931	0.405	-0.133
Mof_C 	C 	0.7017	0.0889	0.433	0.057
Mof_C 	C 	0.8055	0.1018	0.4378	0.086
Mof_C 	C 	0.0058	0.2033	0.3519	0.073
Mof_C 	C 	0.9547	0.1803	0.3736	-0.135
Mof_C 	C 	0.1496	0.1862	0.3753	0.072
Mof_C 	C 	0.1001	0.1619	0.3993	-0.112
Mof_C 	C 	0.9966	0.1598	0.3963	0.073
Mof_C 	C 	0.9435	0.1365	0.4209	0.092
Mof_C 	C 	0.132	0.0692	0.5233	0.076
Mof_C 	C 	0.0923	0.084	0.4965	-0.115
Mof_C 	C 	0.9883	0.0394	0.5424	0.056
Mof_C 	C 	0.9395	0.0541	0.5159	-0.108
Mof_C 	C 	0.9904	0.0769	0.4925	0.045
Mof_C 	C 	0.9421	0.0946	0.4654	0.098
Mof_C 	C 	0.0653	0.1113	0.6361	0.055
Mof_C 	C 	0.0478	0.1547	0.6488	-0.1
Mof_C 	C 	0.1034	0.1504	0.5907	0.047
Mof_C 	C 	0.0864	0.1946	0.6033	-0.093
Mof_C 	C 	0.0601	0.2001	0.6346	0.03
Mof_C 	C 	0.0479	0.2442	0.65	0.109
Mof_C 	C 	0.0888	0.4173	0.5904	0.061
Mof_C 	C 	0.074	0.3735	0.6046	-0.102
Mof_C 	C 	0.0626	0.4586	0.6355	0.06
Mof_C 	C 	0.0457	0.4166	0.6503	-0.103
Mof_C 	C 	0.0569	0.3711	0.6355	0.043
Mof_C 	C 	0.0445	0.3256	0.6511	0.104
Mof_C 	C 	0.897	0.3109	0.7694	0.08
Mof_C 	C 	0.9348	0.3186	0.7395	-0.125
Mof_C 	C 	0.9328	0.232	0.7675	0.07
Mof_C 	C 	0.9692	0.2362	0.7379	-0.126
Mof_C 	C 	0.9695	0.2782	0.7245	0.063
Mof_C 	C 	0.0064	0.2839	0.6926	0.108
Mof_C 	C 	0.4466	0.4486	0.9505	0.07
Mof_C 	C 	0.35	0.4315	0.9559	-0.123
Mof_C 	C 	0.4322	0.4229	0.901	0.073
Mof_C 	C 	0.3408	0.4069	0.905	-0.134
Mof_C 	C 	0.2983	0.4111	0.933	0.057
Mof_C 	C 	0.1945	0.3982	0.9378	0.086
Mof_C 	C 	0.9942	0.2967	0.8519	0.076
Mof_C 	C 	0.0453	0.3197	0.8736	-0.137
Mof_C 	C 	0.8504	0.3138	0.8753	0.072
Mof_C 	C 	0.8999	0.3381	0.8993	-0.111
Mof_C 	C 	0.0034	0.3402	0.8963	0.073
Mof_C 	C 	0.0565	0.3635	0.9209	0.092
Mof_C 	C 	0.868	0.4308	0.0233	0.075
Mof_C 	C 	0.9077	0.416	0.9965	-0.113
Mof_C 	C 	0.0117	0.4606	0.0424	0.055
Mof_C 	C 	0.0605	0.4459	0.0159	-0.107
Mof_C 	C 	0.0096	0.4231	0.9925	0.043
Mof_C 	C 	0.0579	0.4054	0.9654	0.098
Mof_C 	C 	0.9347	0.3887	0.1361	0.055
Mof_C 	C 	0.9522	0.3453	0.1488	-0.1
Mof_C 	C 	0.8966	0.3496	0.0907	0.047
Mof_C 	C 	0.9136	0.3054	0.1033	-0.093
Mof_C 	C 	0.9399	0.2999	0.1346	0.03
Mof_C 	C 	0.9521	0.2558	0.15	0.109
Mof_C 	C 	0.9112	0.0827	0.0904	0.061
Mof_C 	C 	0.926	0.1265	0.1046	-0.102
Mof_C 	C 	0.9374	0.0414	0.1355	0.061
Mof_C 	C 	0.9543	0.0834	0.1503	-0.103
Mof_C 	C 	0.9431	0.1289	0.1355	0.043
Mof_C 	C 	0.9555	0.1744	0.1511	0.104
Mof_C 	C 	0.103	0.1891	0.2694	0.079
Mof_C 	C 	0.0652	0.1814	0.2395	-0.125
Mof_C 	C 	0.0672	0.268	0.2675	0.069
Mof_C 	C 	0.0308	0.2638	0.2379	-0.126
Mof_C 	C 	0.0305	0.2218	0.2245	0.062
Mof_C 	C 	0.9936	0.2161	0.1926	0.108
Mof_I 	I 	0.55377	0.02151	0.88219	-0.361
Mof_I 	I 	0.82331	0.94718	0.91534	-0.385
Mof_I 	I 	0.69447	0.49314	0.96585	-0.391
Mof_I 	I 	0.70458	0.42643	0.87413	-0.37
Mof_I 	I 	0.69434	0.6696	0.16866	-0.372
Mof_I 	I 	0.84339	0.80687	0.18713	-0.37
Mof_I 	I 	0.44623	0.47849	0.38219	-0.361
Mof_I 	I 	0.17669	0.55282	0.41534	-0.384
Mof_I 	I 	0.30553	0.00686	0.46585	-0.391
Mof_I 	I 	0.29542	0.07357	0.37413	-0.371
Mof_I 	I 	0.30566	0.8304	0.66866	-0.372
Mof_I 	I 	0.15661	0.69313	0.68713	-0.369
Mof_I 	I 	0.05377	0.97849	0.61781	-0.36
Mof_I 	I 	0.32331	0.05282	0.58466	-0.384
Mof_I 	I 	0.19447	0.50686	0.53415	-0.391
Mof_I 	I 	0.20458	0.57357	0.62587	-0.37
Mof_I 	I 	0.19434	0.3304	0.33134	-0.372
Mof_I 	I 	0.34339	0.19313	0.31287	-0.369
Mof_I 	I 	0.94623	0.52151	0.11781	-0.361
Mof_I 	I 	0.67669	0.44718	0.08466	-0.384
Mof_I 	I 	0.80553	0.99314	0.03415	-0.392
Mof_I 	I 	0.79542	0.92643	0.12587	-0.371
Mof_I 	I 	0.80566	0.1696	0.83134	-0.372
Mof_I 	I 	0.65661	0.30687	0.81287	-0.369
Mof_N 	N 	0.015	0.9444	0.0766	-0.27
Mof_N 	N 	0.6064	0.7937	0.1481	-0.281
Mof_N 	N 	0.5826	0.95	0.9545	-0.271
Mof_N 	N 	0.3468	0.8713	0.0834	-0.131
Mof_N 	N 	0.4942	0.8808	0.0551	-0.135
Mof_N 	N 	0.3489	0.917	0.0375	-0.143
Mof_N 	N 	0.5936	0.8918	0.893	-0.265
Mof_N 	N 	0.5841	0.5396	0.8946	-0.266
Mof_N 	N 	0.3932	0.731	0.7179	-0.282
Mof_N 	N 	0.5581	0.7145	0.8654	-0.14
Mof_N 	N 	0.516	0.6741	0.8196	-0.142
Mof_N 	N 	0.5199	0.7585	0.821	-0.143
Mof_N 	N 	0.985	0.5556	0.5766	-0.271
Mof_N 	N 	0.3936	0.7063	0.6481	-0.281
Mof_N 	N 	0.4174	0.55	0.4545	-0.271
Mof_N 	N 	0.6532	0.6287	0.5834	-0.131
Mof_N 	N 	0.5058	0.6192	0.5551	-0.135
Mof_N 	N 	0.6511	0.583	0.5375	-0.143
Mof_N 	N 	0.4064	0.6082	0.393	-0.265
Mof_N 	N 	0.4159	0.9604	0.3946	-0.266
Mof_N 	N 	0.6068	0.769	0.2179	-0.282
Mof_N 	N 	0.4419	0.7855	0.3654	-0.14
Mof_N 	N 	0.484	0.8259	0.3196	-0.142
Mof_N 	N 	0.4801	0.7415	0.321	-0.143
Mof_N 	N 	0.515	0.0556	0.4234	-0.271
Mof_N 	N 	0.1064	0.2063	0.3519	-0.28
Mof_N 	N 	0.0826	0.05	0.5455	-0.272
Mof_N 	N 	0.8468	0.1287	0.4166	-0.131
Mof_N 	N 	0.9942	0.1192	0.4449	-0.135
Mof_N 	N 	0.8489	0.083	0.4625	-0.143
Mof_N 	N 	0.0936	0.1082	0.607	-0.265
Mof_N 	N 	0.0841	0.4604	0.6054	-0.266
Mof_N 	N 	0.8932	0.269	0.7821	-0.282
Mof_N 	N 	0.0581	0.2855	0.6346	-0.14
Mof_N 	N 	0.016	0.3259	0.6804	-0.142
Mof_N 	N 	0.0199	0.2415	0.679	-0.143
Mof_N 	N 	0.485	0.4444	0.9234	-0.271
Mof_N 	N 	0.8936	0.2937	0.8519	-0.281
Mof_N 	N 	0.9174	0.45	0.0455	-0.271
Mof_N 	N 	0.1532	0.3713	0.9166	-0.131
Mof_N 	N 	0.0058	0.3808	0.9449	-0.135
Mof_N 	N 	0.1511	0.417	0.9625	-0.143
Mof_N 	N 	0.9064	0.3918	0.107	-0.265
Mof_N 	N 	0.9159	0.0396	0.1054	-0.266
Mof_N 	N 	0.1068	0.231	0.2821	-0.282
Mof_N 	N 	0.9419	0.2145	0.1346	-0.14
Mof_N 	N 	0.984	0.1741	0.1804	-0.142
Mof_N 	N 	0.9801	0.2585	0.179	-0.143
_end
