data_functionalizedCrystal
_audit_creation_method	'EQeq! by Chris Wilmer'
_symmetry_space_group_name_H-M	'P1'
_symmetry_Int_Tables_number	1
_symmetry_cell_setting	triclinic
loop_
_symmetry_equiv_pos_as_xyz
  x,y,z
_cell_length_a	8.5595
_cell_length_b	13.5759
_cell_length_c	9.3231
_cell_angle_alpha	90
_cell_angle_beta	96.024
_cell_angle_gamma	90
loop_
_atom_site_label
_atom_site_type_symbol
_atom_site_fract_x
_atom_site_fract_y
_atom_site_fract_z
_atom_site_charge
Mof_Zn	Zn	0.35885	0.01862	0.29844	1.209
Mof_Zn	Zn	0.59558	0.13969	0.90782	1.23
Mof_Zn	Zn	0.85052	0.75917	0.22691	1.236
Mof_P 	P 	0.64116	0.95541	0.12928	0.551
Mof_P 	P 	0.29432	0.20248	0.07469	0.467
Mof_P 	P 	0.21491	0.79988	0.25689	0.446
Mof_P 	P 	0.38997	0.12217	0.59978	0.482
Mof_O 	O 	0.6933	0.0355	0.0296	-0.486
Mof_O 	O 	0.5705	0.9952	0.259	-0.429
Mof_O 	O 	0.7804	0.8899	0.17	-0.428
Mof_O 	O 	0.273	0.1317	0.1976	-0.459
Mof_O 	O 	0.1594	0.1884	0.9557	-0.439
Mof_O 	O 	0.4528	0.2032	0.02	-0.5
Mof_O 	O 	0.0638	0.775	0.324	-0.403
Mof_O 	O 	0.2422	0.7345	0.1303	-0.434
Mof_O 	O 	0.222	0.9097	0.2216	-0.386
Mof_O 	O 	0.3332	0.0357	0.5027	-0.456
Mof_O 	O 	0.5003	0.0881	0.7265	-0.48
Mof_O 	O 	0.2544	0.1814	0.6411	-0.474
Mof_H 	H 	0.5351	0.9077	0.0647	-0.09
Mof_H 	H 	0.2723	0.2885	0.1234	-0.041
Mof_H 	H 	0.3448	0.7835	0.3414	-0.065
Mof_H 	H 	0.4719	0.1807	0.5279	-0.075
Mof_Zn	Zn	0.64115	0.51862	0.70156	1.234
Mof_Zn	Zn	0.40442	0.63969	0.09218	1.234
Mof_Zn	Zn	0.14948	0.25917	0.77309	1.235
Mof_P 	P 	0.35884	0.45541	0.87072	0.496
Mof_P 	P 	0.70568	0.70248	0.92531	0.473
Mof_P 	P 	0.78509	0.29988	0.74311	0.446
Mof_P 	P 	0.61003	0.62217	0.40022	0.482
Mof_O 	O 	0.3067	0.5355	0.9704	-0.424
Mof_O 	O 	0.4295	0.4952	0.741	-0.468
Mof_O 	O 	0.2196	0.3899	0.83	-0.437
Mof_O 	O 	0.727	0.6317	0.8024	-0.436
Mof_O 	O 	0.8406	0.6884	0.0443	-0.43
Mof_O 	O 	0.5472	0.7032	0.98	-0.486
Mof_O 	O 	0.9362	0.275	0.676	-0.42
Mof_O 	O 	0.7578	0.2345	0.8697	-0.443
Mof_O 	O 	0.778	0.4097	0.7784	-0.423
Mof_O 	O 	0.6668	0.5357	0.4973	-0.423
Mof_O 	O 	0.4997	0.5881	0.2735	-0.462
Mof_O 	O 	0.7456	0.6814	0.3589	-0.464
Mof_H 	H 	0.4649	0.4077	0.9353	-0.094
Mof_H 	H 	0.7277	0.7885	0.8766	-0.027
Mof_H 	H 	0.6552	0.2835	0.6586	-0.074
Mof_H 	H 	0.5281	0.6807	0.4721	-0.065
_end
