data_functionalizedCrystal
_audit_creation_method	'EQeq! by Chris Wilmer'
_symmetry_space_group_name_H-M	'P1'
_symmetry_Int_Tables_number	1
_symmetry_cell_setting	triclinic
loop_
_symmetry_equiv_pos_as_xyz
  x,y,z
_cell_length_a	10.454
_cell_length_b	10.454
_cell_length_c	33.383
_cell_angle_alpha	90
_cell_angle_beta	90
_cell_angle_gamma	120
loop_
_atom_site_label
_atom_site_type_symbol
_atom_site_fract_x
_atom_site_fract_y
_atom_site_fract_z
_atom_site_charge
Mof_S 	S 	0.47495	0.22891	0.87658	-0.432
Mof_O 	O 	0.15032	0.17486	0.94153	-0.385
Mof_O 	O 	0.31024	0.1547	0.98036	-0.348
Mof_N 	N 	0.5508	0.4005	0.95109	-0.334
Mof_H 	H 	0.5386	0.3614	0.9764	0.111
Mof_H 	H 	0.6052	0.5016	0.9534	0.121
Mof_C 	C 	0.4034	0.3511	0.88923	-0.061
Mof_H 	H 	0.4671	0.4504	0.8776	0.043
Mof_H 	H 	0.3021	0.3111	0.8786	0.059
Mof_C 	C 	0.4028	0.3599	0.93481	-0.086
Mof_H 	H 	0.3827	0.4411	0.942	0.064
Mof_C 	C 	0.2807	0.2178	0.95342	0.314
Mof_S 	S 	0.14162	0.56224	0.20991	-0.423
Mof_O 	O 	0.81699	0.50819	0.27486	-0.382
Mof_O 	O 	0.97691	0.48803	0.31369	-0.332
Mof_N 	N 	0.21747	0.73383	0.28442	-0.333
Mof_H 	H 	0.20527	0.69473	0.30973	0.098
Mof_H 	H 	0.27187	0.83493	0.28673	0.134
Mof_C 	C 	0.07007	0.68443	0.22256	-0.194
Mof_H 	H 	0.13377	0.78373	0.21093	0.079
Mof_H 	H 	0.96877	0.64443	0.21193	0.163
Mof_C 	C 	0.06947	0.69323	0.26814	-0.106
Mof_H 	H 	0.04937	0.77443	0.27533	0.054
Mof_C 	C 	0.94737	0.55113	0.28675	0.368
Mof_S 	S 	0.80828	0.89558	0.54324	-0.239
Mof_O 	O 	0.48365	0.84153	0.6082	-0.377
Mof_O 	O 	0.64357	0.82137	0.64703	-0.348
Mof_N 	N 	0.88413	0.06717	0.61776	-0.331
Mof_H 	H 	0.87193	0.02807	0.64307	0.097
Mof_H 	H 	0.93853	0.16827	0.62007	0.148
Mof_C 	C 	0.73673	0.01777	0.5559	-0.302
Mof_H 	H 	0.80043	0.11707	0.54427	0.117
Mof_H 	H 	0.63543	0.97777	0.54527	0.193
Mof_C 	C 	0.73613	0.02657	0.60148	-0.079
Mof_H 	H 	0.71603	0.10777	0.60867	0.047
Mof_C 	C 	0.61403	0.88447	0.62009	0.353
Mof_S 	S 	0.77109	0.24604	0.87658	-0.38
Mof_O 	O 	0.82514	0.97546	0.94153	-0.236
Mof_O 	O 	0.8453	0.15554	0.98036	-0.285
Mof_N 	N 	0.5995	0.1503	0.95109	-0.326
Mof_H 	H 	0.6386	0.1772	0.9764	0.104
Mof_H 	H 	0.4984	0.1036	0.9534	0.101
Mof_C 	C 	0.6489	0.0523	0.88923	-0.184
Mof_H 	H 	0.5496	0.0167	0.8776	0.052
Mof_H 	H 	0.6889	0.991	0.8786	0.164
Mof_C 	C 	0.6401	0.0429	0.93481	-0.118
Mof_H 	H 	0.5589	0.9416	0.942	0.121
Mof_C 	C 	0.7822	0.0629	0.95342	0.218
Mof_S 	S 	0.43776	0.57937	0.20991	-0.403
Mof_O 	O 	0.49181	0.30879	0.27486	-0.389
Mof_O 	O 	0.51197	0.48887	0.31369	-0.354
Mof_N 	N 	0.26617	0.48363	0.28442	-0.329
Mof_H 	H 	0.30527	0.51053	0.30973	0.102
Mof_H 	H 	0.16507	0.43693	0.28673	0.095
Mof_C 	C 	0.31557	0.38563	0.22256	-0.065
Mof_H 	H 	0.21627	0.35003	0.21093	0.026
Mof_H 	H 	0.35557	0.32433	0.21193	0.063
Mof_C 	C 	0.30677	0.37623	0.26814	-0.081
Mof_H 	H 	0.22557	0.27493	0.27533	0.039
Mof_C 	C 	0.44887	0.39623	0.28675	0.307
Mof_S 	S 	0.10442	0.91271	0.54324	-0.407
Mof_O 	O 	0.15847	0.64213	0.6082	-0.38
Mof_O 	O 	0.17863	0.82221	0.64703	-0.336
Mof_N 	N 	0.93283	0.81697	0.61776	-0.319
Mof_H 	H 	0.97193	0.84387	0.64307	0.15
Mof_H 	H 	0.83173	0.77027	0.62007	0.123
Mof_C 	C 	0.98223	0.71897	0.5559	0.114
Mof_H 	H 	0.88293	0.68337	0.54427	-0.002
Mof_H 	H 	0.02223	0.65767	0.54527	-0.029
Mof_C 	C 	0.97343	0.70957	0.60148	-0.047
Mof_H 	H 	0.89223	0.60827	0.60867	0.064
Mof_C 	C 	0.11553	0.72957	0.62009	0.252
Mof_S 	S 	0.75396	0.52505	0.87658	-0.405
Mof_O 	O 	0.02454	0.84968	0.94153	-0.373
Mof_O 	O 	0.84446	0.68976	0.98036	-0.316
Mof_N 	N 	0.8497	0.4492	0.95109	-0.348
Mof_H 	H 	0.8228	0.4614	0.9764	0.121
Mof_H 	H 	0.8964	0.3948	0.9534	0.14
Mof_C 	C 	0.9477	0.5966	0.88923	0.022
Mof_H 	H 	0.9833	0.5329	0.8776	0.043
Mof_H 	H 	0.009	0.6979	0.8786	0.01
Mof_C 	C 	0.9571	0.5972	0.93481	-0.02
Mof_H 	H 	0.0584	0.6173	0.942	0.003
Mof_C 	C 	0.9371	0.7193	0.95342	0.37
Mof_S 	S 	0.42063	0.85838	0.20991	-0.393
Mof_O 	O 	0.69121	0.18301	0.27486	-0.37
Mof_O 	O 	0.51113	0.02309	0.31369	-0.381
Mof_N 	N 	0.51637	0.78253	0.28442	-0.34
Mof_H 	H 	0.48947	0.79473	0.30973	0.122
Mof_H 	H 	0.56307	0.72813	0.28673	0.121
Mof_C 	C 	0.61437	0.92993	0.22256	0.042
Mof_H 	H 	0.64997	0.86623	0.21093	0.03
Mof_H 	H 	0.67567	0.03123	0.21193	0.003
Mof_C 	C 	0.62377	0.93053	0.26814	-0.044
Mof_H 	H 	0.72507	0.95063	0.27533	0.082
Mof_C 	C 	0.60377	0.05263	0.28675	0.245
Mof_S 	S 	0.08729	0.19172	0.54324	-0.486
Mof_O 	O 	0.35787	0.51635	0.6082	-0.386
Mof_O 	O 	0.17779	0.35643	0.64703	-0.382
Mof_N 	N 	0.18303	0.11587	0.61776	-0.33
Mof_H 	H 	0.15613	0.12807	0.64307	0.076
Mof_H 	H 	0.22973	0.06147	0.62007	0.081
Mof_C 	C 	0.28103	0.26327	0.5559	-0.043
Mof_H 	H 	0.31663	0.19957	0.54427	0.026
Mof_H 	H 	0.34233	0.36457	0.54527	0.067
Mof_C 	C 	0.29043	0.26387	0.60148	-0.097
Mof_H 	H 	0.39173	0.28397	0.60867	0.06
Mof_C 	C 	0.27043	0.38597	0.62009	0.314
Mof_S 	S 	0.22891	0.47495	0.12343	-0.431
Mof_O 	O 	0.17486	0.15032	0.05847	-0.391
Mof_O 	O 	0.1547	0.31024	0.01964	-0.364
Mof_N 	N 	0.4005	0.5508	0.04891	-0.332
Mof_H 	H 	0.3614	0.5386	0.0236	0.103
Mof_H 	H 	0.5016	0.6052	0.0466	0.116
Mof_C 	C 	0.3511	0.4034	0.11077	-0.059
Mof_H 	H 	0.4504	0.4671	0.1224	0.042
Mof_H 	H 	0.3111	0.3021	0.1214	0.059
Mof_C 	C 	0.3599	0.4028	0.06519	-0.088
Mof_H 	H 	0.4411	0.3827	0.058	0.057
Mof_C 	C 	0.2178	0.2807	0.04658	0.313
Mof_S 	S 	0.89558	0.80828	0.45676	-0.24
Mof_O 	O 	0.84153	0.48365	0.3918	-0.377
Mof_O 	O 	0.82137	0.64357	0.35297	-0.348
Mof_N 	N 	0.06717	0.88413	0.38224	-0.331
Mof_H 	H 	0.02807	0.87193	0.35693	0.098
Mof_H 	H 	0.16827	0.93853	0.37993	0.148
Mof_C 	C 	0.01777	0.73673	0.4441	-0.301
Mof_H 	H 	0.11707	0.80043	0.45573	0.117
Mof_H 	H 	0.97777	0.63543	0.45473	0.192
Mof_C 	C 	0.02657	0.73613	0.39852	-0.079
Mof_H 	H 	0.10777	0.71603	0.39133	0.047
Mof_C 	C 	0.88447	0.61403	0.37991	0.353
Mof_S 	S 	0.56224	0.14162	0.79009	-0.423
Mof_O 	O 	0.50819	0.81699	0.72514	-0.382
Mof_O 	O 	0.48803	0.97691	0.68631	-0.332
Mof_N 	N 	0.73383	0.21747	0.71558	-0.333
Mof_H 	H 	0.69473	0.20527	0.69027	0.097
Mof_H 	H 	0.83493	0.27187	0.71327	0.134
Mof_C 	C 	0.68443	0.07007	0.77744	-0.195
Mof_H 	H 	0.78373	0.13377	0.78907	0.079
Mof_H 	H 	0.64443	0.96877	0.78807	0.164
Mof_C 	C 	0.69323	0.06947	0.73186	-0.106
Mof_H 	H 	0.77443	0.04937	0.72467	0.054
Mof_C 	C 	0.55113	0.94737	0.71325	0.368
Mof_S 	S 	0.24604	0.77109	0.12343	-0.381
Mof_O 	O 	0.97546	0.82514	0.05847	-0.243
Mof_O 	O 	0.15554	0.8453	0.01964	-0.302
Mof_N 	N 	0.1503	0.5995	0.04891	-0.323
Mof_H 	H 	0.1772	0.6386	0.0236	0.096
Mof_H 	H 	0.1036	0.4984	0.0466	0.096
Mof_C 	C 	0.0523	0.6489	0.11077	-0.182
Mof_H 	H 	0.0167	0.5496	0.1224	0.051
Mof_H 	H 	0.991	0.6889	0.1214	0.163
Mof_C 	C 	0.0429	0.6401	0.06519	-0.12
Mof_H 	H 	0.9416	0.5589	0.058	0.115
Mof_C 	C 	0.0629	0.7822	0.04658	0.218
Mof_S 	S 	0.91271	0.10442	0.45676	-0.408
Mof_O 	O 	0.64213	0.15847	0.3918	-0.38
Mof_O 	O 	0.82221	0.17863	0.35297	-0.336
Mof_N 	N 	0.81697	0.93283	0.38224	-0.319
Mof_H 	H 	0.84387	0.97193	0.35693	0.15
Mof_H 	H 	0.77027	0.83173	0.37993	0.123
Mof_C 	C 	0.71897	0.98223	0.4441	0.116
Mof_H 	H 	0.68337	0.88293	0.45573	-0.003
Mof_H 	H 	0.65767	0.02223	0.45473	-0.03
Mof_C 	C 	0.70957	0.97343	0.39852	-0.047
Mof_H 	H 	0.60827	0.89223	0.39133	0.064
Mof_C 	C 	0.72957	0.11553	0.37991	0.252
Mof_S 	S 	0.57937	0.43776	0.79009	-0.403
Mof_O 	O 	0.30879	0.49181	0.72514	-0.389
Mof_O 	O 	0.48887	0.51197	0.68631	-0.354
Mof_N 	N 	0.48363	0.26617	0.71558	-0.329
Mof_H 	H 	0.51053	0.30527	0.69027	0.102
Mof_H 	H 	0.43693	0.16507	0.71327	0.094
Mof_C 	C 	0.38563	0.31557	0.77744	-0.065
Mof_H 	H 	0.35003	0.21627	0.78907	0.026
Mof_H 	H 	0.32433	0.35557	0.78807	0.064
Mof_C 	C 	0.37623	0.30677	0.73186	-0.081
Mof_H 	H 	0.27493	0.22557	0.72467	0.039
Mof_C 	C 	0.39623	0.44887	0.71325	0.307
Mof_S 	S 	0.52505	0.75396	0.12343	-0.406
Mof_O 	O 	0.84968	0.02454	0.05847	-0.381
Mof_O 	O 	0.68976	0.84446	0.01964	-0.333
Mof_N 	N 	0.4492	0.8497	0.04891	-0.346
Mof_H 	H 	0.4614	0.8228	0.0236	0.112
Mof_H 	H 	0.3948	0.8964	0.0466	0.135
Mof_C 	C 	0.5966	0.9477	0.11077	0.024
Mof_H 	H 	0.5329	0.9833	0.1224	0.042
Mof_H 	H 	0.6979	0.009	0.1214	0.008
Mof_C 	C 	0.5972	0.9571	0.06519	-0.021
Mof_H 	H 	0.6173	0.0584	0.058	-0.004
Mof_C 	C 	0.7193	0.9371	0.04658	0.37
Mof_S 	S 	0.19172	0.08729	0.45676	-0.486
Mof_O 	O 	0.51635	0.35787	0.3918	-0.386
Mof_O 	O 	0.35643	0.17779	0.35297	-0.382
Mof_N 	N 	0.11587	0.18303	0.38224	-0.33
Mof_H 	H 	0.12807	0.15613	0.35693	0.076
Mof_H 	H 	0.06147	0.22973	0.37993	0.081
Mof_C 	C 	0.26327	0.28103	0.4441	-0.043
Mof_H 	H 	0.19957	0.31663	0.45573	0.026
Mof_H 	H 	0.36457	0.34233	0.45473	0.067
Mof_C 	C 	0.26387	0.29043	0.39852	-0.097
Mof_H 	H 	0.28397	0.39173	0.39133	0.06
Mof_C 	C 	0.38597	0.27043	0.37991	0.314
Mof_S 	S 	0.85838	0.42063	0.79009	-0.393
Mof_O 	O 	0.18301	0.69121	0.72514	-0.37
Mof_O 	O 	0.02309	0.51113	0.68631	-0.381
Mof_N 	N 	0.78253	0.51637	0.71558	-0.34
Mof_H 	H 	0.79473	0.48947	0.69027	0.121
Mof_H 	H 	0.72813	0.56307	0.71327	0.121
Mof_C 	C 	0.92993	0.61437	0.77744	0.041
Mof_H 	H 	0.86623	0.64997	0.78907	0.03
Mof_H 	H 	0.03123	0.67567	0.78807	0.004
Mof_C 	C 	0.93053	0.62377	0.73186	-0.045
Mof_H 	H 	0.95063	0.72507	0.72467	0.081
Mof_C 	C 	0.05263	0.60377	0.71325	0.246
Mof_La	La	-0	0	-0	1.678
Mof_La	La	0.66667	0.33333	0.33333	2.146
Mof_La	La	0.33333	0.66667	0.66667	2.146
Mof_Co	Co	0.66667	0.33333	0.91878	1.13
Mof_Co	Co	0.33333	0.66667	0.25211	1.13
Mof_Co	Co	-0	3.19587e-32	0.58544	1.056
Mof_Co	Co	0.33333	0.66667	0.08122	1.13
Mof_Co	Co	-0	0	0.41456	1.056
Mof_Co	Co	0.66667	0.33333	0.74789	1.13
Mof_Co	Co	0.66667	0.33333	0.83333	1.096
Mof_Co	Co	3.19587e-32	0	0.5	1.021
Mof_Co	Co	0.33333	0.66667	0.16667	1.096
_end
