data_functionalizedCrystal
_audit_creation_method	'EQeq! by Chris Wilmer'
_symmetry_space_group_name_H-M	'P1'
_symmetry_Int_Tables_number	1
_symmetry_cell_setting	triclinic
loop_
_symmetry_equiv_pos_as_xyz
  x,y,z
_cell_length_a	6.853
_cell_length_b	9.007
_cell_length_c	9.987
_cell_angle_alpha	102.13
_cell_angle_beta	100.53
_cell_angle_gamma	110.21
loop_
_atom_site_label
_atom_site_type_symbol
_atom_site_fract_x
_atom_site_fract_y
_atom_site_fract_z
_atom_site_charge
Mof_Ca	Ca	0.6852	0.41532	0.39009	1.42
Mof_Ca	Ca	0.3148	0.58468	0.60991	1.42
Mof_H 	H 	0.4948	0.2291	0.0416	0.337
Mof_H 	H 	0.7044	0.4912	0.9093	0.012
Mof_H 	H 	0.1267	0.8848	0.2431	0.01
Mof_H 	H 	0.1559	0.8758	0.8385	0.005
Mof_H 	H 	0.5052	0.7709	0.9584	0.337
Mof_H 	H 	0.2956	0.5088	0.0907	0.012
Mof_H 	H 	0.8733	0.1152	0.7569	0.01
Mof_H 	H 	0.8441	0.1242	0.1615	0.005
Mof_C 	C 	0.9153	0.6723	0.8507	-0.198
Mof_C 	C 	0.8226	0.5963	0.945	0.104
Mof_C 	C 	0.9037	0.6745	0.0915	-0.145
Mof_C 	C 	0.0738	0.8301	0.1435	0.103
Mof_C 	C 	0.1665	0.9056	0.0492	-0.177
Mof_C 	C 	0.0896	0.8257	0.9024	0.119
Mof_C 	C 	0.8322	0.5898	0.6933	0.436
Mof_C 	C 	0.8063	0.5914	0.1931	0.342
Mof_C 	C 	0.3442	0.0742	0.1058	0.477
Mof_C 	C 	0.0847	0.3277	0.1493	-0.198
Mof_C 	C 	0.1774	0.4037	0.055	0.104
Mof_C 	C 	0.0963	0.3255	0.9085	-0.145
Mof_C 	C 	0.9262	0.1699	0.8565	0.103
Mof_C 	C 	0.8335	0.0944	0.9508	-0.177
Mof_C 	C 	0.9104	0.1743	0.0976	0.119
Mof_C 	C 	0.1678	0.4102	0.3067	0.436
Mof_C 	C 	0.1937	0.4086	0.8069	0.342
Mof_C 	C 	0.6558	0.9258	0.8942	0.477
Mof_O 	O 	0.9669	0.5915	0.6223	-0.535
Mof_O 	O 	0.6313	0.5209	0.6347	-0.527
Mof_O 	O 	0.6745	0.4422	0.147	-0.394
Mof_O 	O 	0.8598	0.6722	0.3236	-0.38
Mof_O 	O 	0.4063	0.1366	0.0051	-0.548
Mof_O 	O 	0.4217	0.1475	0.2331	-0.461
Mof_O 	O 	0.0331	0.4085	0.3777	-0.535
Mof_O 	O 	0.3687	0.4791	0.3653	-0.527
Mof_O 	O 	0.3255	0.5578	0.853	-0.394
Mof_O 	O 	0.1402	0.3278	0.6764	-0.38
Mof_O 	O 	0.5937	0.8634	0.9949	-0.548
Mof_O 	O 	0.5783	0.8525	0.7669	-0.461
_end
