data_functionalizedCrystal
_audit_creation_method	'EQeq! by Chris Wilmer'
_symmetry_space_group_name_H-M	'P1'
_symmetry_Int_Tables_number	1
_symmetry_cell_setting	triclinic
loop_
_symmetry_equiv_pos_as_xyz
  x,y,z
_cell_length_a	10.997
_cell_length_b	14.914
_cell_length_c	14.368
_cell_angle_alpha	90
_cell_angle_beta	109.31
_cell_angle_gamma	90
loop_
_atom_site_label
_atom_site_type_symbol
_atom_site_fract_x
_atom_site_fract_y
_atom_site_fract_z
_atom_site_charge
Mof_O 	O 	0.9082	0.1419	0.1963	-0.517
Mof_O 	O 	0.5663	0.3722	0.3698	-0.456
Mof_Zn	Zn	0.62034	0.02999	0.96634	1.247
Mof_Zn	Zn	0.07237	0.15007	0.16101	1.171
Mof_O 	O 	0.5326	0.0562	0.0689	-0.572
Mof_C 	C 	0.465	0.1615	0.1643	-0.351
Mof_O 	O 	0.2522	0.1791	0.1576	-0.516
Mof_C 	C 	0.6217	0.2644	0.2696	-0.248
Mof_C 	C 	0.56	0.1223	0.1314	0.394
Mof_C 	C 	0.3269	0.1336	0.1288	0.501
Mof_C 	C 	0.7146	0.2255	0.2374	0.218
Mof_H 	H 	0.7984	0.2475	0.2614	-0.026
Mof_C 	C 	0.4975	0.2311	0.2317	0.218
Mof_H 	H 	0.4334	0.2565	0.2523	-0.02
Mof_C 	C 	0.6884	0.1556	0.1713	-0.344
Mof_O 	O 	0.7804	0.066	0.0731	-0.504
Mof_O 	O 	0.7642	0.3739	0.3627	-0.343
Mof_O 	O 	0.2878	0.0692	0.0718	-0.52
Mof_C 	C 	0.7978	0.1187	0.1437	0.492
Mof_C 	C 	0.6553	0.3421	0.3386	0.391
Mof_N 	N 	0.0212	0.2818	0.0973	-0.263
Mof_C 	C 	0.0034	0.4541	0.0197	0.069
Mof_C 	C 	0.9986	0.2961	0.0031	0.124
Mof_H 	H 	0.9911	0.2465	0.9624	-0.037
Mof_C 	C 	0.0209	0.4383	0.117	-0.152
Mof_H 	H 	0.0277	0.4867	0.1593	0.071
Mof_C 	C 	0.0287	0.3524	0.1539	0.097
Mof_H 	H 	0.0395	0.3441	0.2203	-0.03
Mof_C 	C 	0.9855	0.38	0.9604	-0.173
Mof_H 	H 	0.9648	0.3861	0.8925	0.088
Mof_O 	O 	0.0918	0.6419	0.3037	-0.519
Mof_O 	O 	0.4337	0.8722	0.1302	-0.458
Mof_Zn	Zn	0.37966	0.52999	0.53366	1.251
Mof_Zn	Zn	0.92763	0.65007	0.33899	1.172
Mof_O 	O 	0.4674	0.5562	0.4311	-0.575
Mof_C 	C 	0.535	0.6615	0.3357	-0.353
Mof_O 	O 	0.7478	0.6791	0.3424	-0.517
Mof_C 	C 	0.3783	0.7644	0.2304	-0.25
Mof_C 	C 	0.44	0.6223	0.3686	0.395
Mof_C 	C 	0.6731	0.6336	0.3712	0.502
Mof_C 	C 	0.2854	0.7255	0.2626	0.219
Mof_H 	H 	0.2016	0.7475	0.2386	-0.026
Mof_C 	C 	0.5025	0.7311	0.2683	0.219
Mof_H 	H 	0.5666	0.7565	0.2477	-0.021
Mof_C 	C 	0.3116	0.6556	0.3287	-0.347
Mof_O 	O 	0.2196	0.566	0.4269	-0.509
Mof_O 	O 	0.2358	0.8739	0.1373	-0.346
Mof_O 	O 	0.7122	0.5692	0.4282	-0.522
Mof_C 	C 	0.2022	0.6187	0.3563	0.493
Mof_C 	C 	0.3447	0.8421	0.1614	0.391
Mof_N 	N 	0.9788	0.7818	0.4027	-0.258
Mof_C 	C 	0.9966	0.9541	0.4803	0.058
Mof_C 	C 	0.0014	0.7961	0.4969	0.1
Mof_H 	H 	0.0089	0.7465	0.5376	-0.025
Mof_C 	C 	0.9791	0.9383	0.383	-0.146
Mof_H 	H 	0.9723	0.9867	0.3407	0.066
Mof_C 	C 	0.9713	0.8524	0.3461	0.091
Mof_H 	H 	0.9605	0.8441	0.2797	-0.029
Mof_C 	C 	0.0145	0.88	0.5396	-0.148
Mof_H 	H 	0.0352	0.8861	0.6075	0.081
Mof_O 	O 	0.0918	0.8581	0.8037	-0.516
Mof_O 	O 	0.4337	0.6278	0.6302	-0.455
Mof_Zn	Zn	0.37966	0.97001	0.03366	1.248
Mof_Zn	Zn	0.92763	0.84993	0.83899	1.172
Mof_O 	O 	0.4674	0.9438	0.9311	-0.572
Mof_C 	C 	0.535	0.8385	0.8357	-0.351
Mof_O 	O 	0.7478	0.8209	0.8424	-0.516
Mof_C 	C 	0.3783	0.7356	0.7304	-0.248
Mof_C 	C 	0.44	0.8777	0.8686	0.394
Mof_C 	C 	0.6731	0.8664	0.8712	0.501
Mof_C 	C 	0.2854	0.7745	0.7626	0.218
Mof_H 	H 	0.2016	0.7525	0.7386	-0.026
Mof_C 	C 	0.5025	0.7689	0.7683	0.218
Mof_H 	H 	0.5666	0.7435	0.7477	-0.02
Mof_C 	C 	0.3116	0.8444	0.8287	-0.344
Mof_O 	O 	0.2196	0.934	0.9269	-0.504
Mof_O 	O 	0.2358	0.6261	0.6373	-0.343
Mof_O 	O 	0.7122	0.9308	0.9282	-0.52
Mof_C 	C 	0.2022	0.8813	0.8563	0.492
Mof_C 	C 	0.3447	0.6579	0.6614	0.391
Mof_N 	N 	0.9788	0.7182	0.9027	-0.263
Mof_C 	C 	0.9966	0.5459	0.9803	0.069
Mof_C 	C 	0.0014	0.7039	0.9969	0.124
Mof_H 	H 	0.0089	0.7535	0.0376	-0.037
Mof_C 	C 	0.9791	0.5617	0.883	-0.152
Mof_H 	H 	0.9723	0.5133	0.8407	0.071
Mof_C 	C 	0.9713	0.6476	0.8461	0.097
Mof_H 	H 	0.9605	0.6559	0.7797	-0.03
Mof_C 	C 	0.0145	0.62	0.0396	-0.173
Mof_H 	H 	0.0352	0.6139	0.1075	0.088
Mof_O 	O 	0.9082	0.3581	0.6963	-0.519
Mof_O 	O 	0.5663	0.1278	0.8698	-0.458
Mof_Zn	Zn	0.62034	0.47001	0.46634	1.251
Mof_Zn	Zn	0.07237	0.34993	0.66101	1.172
Mof_O 	O 	0.5326	0.4438	0.5689	-0.575
Mof_C 	C 	0.465	0.3385	0.6643	-0.353
Mof_O 	O 	0.2522	0.3209	0.6576	-0.517
Mof_C 	C 	0.6217	0.2356	0.7696	-0.25
Mof_C 	C 	0.56	0.3777	0.6314	0.395
Mof_C 	C 	0.3269	0.3664	0.6288	0.502
Mof_C 	C 	0.7146	0.2745	0.7374	0.219
Mof_H 	H 	0.7984	0.2525	0.7614	-0.026
Mof_C 	C 	0.4975	0.2689	0.7317	0.219
Mof_H 	H 	0.4334	0.2435	0.7523	-0.021
Mof_C 	C 	0.6884	0.3444	0.6713	-0.347
Mof_O 	O 	0.7804	0.434	0.5731	-0.509
Mof_O 	O 	0.7642	0.1261	0.8627	-0.346
Mof_O 	O 	0.2878	0.4308	0.5718	-0.522
Mof_C 	C 	0.7978	0.3813	0.6437	0.493
Mof_C 	C 	0.6553	0.1579	0.8386	0.391
Mof_N 	N 	0.0212	0.2182	0.5973	-0.258
Mof_C 	C 	0.0034	0.0459	0.5197	0.058
Mof_C 	C 	0.9986	0.2039	0.5031	0.1
Mof_H 	H 	0.9911	0.2535	0.4624	-0.025
Mof_C 	C 	0.0209	0.0617	0.617	-0.146
Mof_H 	H 	0.0277	0.0133	0.6593	0.066
Mof_C 	C 	0.0287	0.1476	0.6539	0.091
Mof_H 	H 	0.0395	0.1559	0.7203	-0.029
Mof_C 	C 	0.9855	0.12	0.4604	-0.148
Mof_H 	H 	0.9648	0.1139	0.3925	0.081
_end
