data_functionalizedCrystal
_audit_creation_method	'EQeq! by Chris Wilmer'
_symmetry_space_group_name_H-M	'P1'
_symmetry_Int_Tables_number	1
_symmetry_cell_setting	triclinic
loop_
_symmetry_equiv_pos_as_xyz
  x,y,z
_cell_length_a	13.237
_cell_length_b	14.698
_cell_length_c	14.87
_cell_angle_alpha	90
_cell_angle_beta	90
_cell_angle_gamma	90
loop_
_atom_site_label
_atom_site_type_symbol
_atom_site_fract_x
_atom_site_fract_y
_atom_site_fract_z
_atom_site_charge
Mof_Cd	Cd	0.23831	0.06321	0.6101	0.267
Mof_Cd	Cd	0.26169	0.56321	0.8899	0.268
Mof_Cd	Cd	0.76169	0.43679	0.6101	0.274
Mof_Cd	Cd	0.73831	0.93679	0.8899	0.273
Mof_Cd	Cd	0.76169	0.93679	0.3899	0.272
Mof_Cd	Cd	0.73831	0.43679	0.1101	0.274
Mof_Cd	Cd	0.23831	0.56321	0.3899	0.268
Mof_Cd	Cd	0.26169	0.06321	0.1101	0.27
Mof_Cd	Cd	2.73292e-33	0.75	0.64885	0.345
Mof_Cd	Cd	0.5	0.25	0.85115	0.373
Mof_Cd	Cd	5.84179e-33	0.25	0.35115	0.342
Mof_Cd	Cd	0.5	0.75	0.14885	0.372
Mof_H 	H 	0.456	0.0009	0.3333	0.134
Mof_H 	H 	0.328	0.8614	0.5191	0.022
Mof_H 	H 	0.4208	0.8494	0.3772	0.008
Mof_H 	H 	0.3535	0.1759	0.4769	0.262
Mof_H 	H 	0.3539	0.1636	0.3722	0.264
Mof_H 	H 	0.4562	0.1665	0.4252	0.258
Mof_H 	H 	0.044	0.5009	0.1667	0.124
Mof_H 	H 	0.172	0.3614	0.9809	0.019
Mof_H 	H 	0.0792	0.3494	0.1228	0.004
Mof_H 	H 	0.1465	0.6759	0.0231	0.251
Mof_H 	H 	0.1461	0.6636	0.1278	0.253
Mof_H 	H 	0.0438	0.6665	0.0748	0.24
Mof_H 	H 	0.544	0.4991	0.3333	0.133
Mof_H 	H 	0.672	0.6386	0.5191	0.023
Mof_H 	H 	0.5792	0.6506	0.3772	0.009
Mof_H 	H 	0.6465	0.3241	0.4769	0.263
Mof_H 	H 	0.6461	0.3364	0.3722	0.265
Mof_H 	H 	0.5438	0.3335	0.4252	0.259
Mof_H 	H 	0.956	0.9991	0.1667	0.135
Mof_H 	H 	0.828	0.1386	0.9809	0.021
Mof_H 	H 	0.9208	0.1506	0.1228	0.017
Mof_H 	H 	0.8535	0.8241	0.0231	0.27
Mof_H 	H 	0.8539	0.8364	0.1278	0.271
Mof_H 	H 	0.9562	0.8335	0.0748	0.273
Mof_H 	H 	0.544	0.9991	0.6667	0.131
Mof_H 	H 	0.672	0.1386	0.4809	0.022
Mof_H 	H 	0.5792	0.1506	0.6228	0.009
Mof_H 	H 	0.6465	0.8241	0.5231	0.263
Mof_H 	H 	0.6461	0.8364	0.6278	0.265
Mof_H 	H 	0.5438	0.8335	0.5748	0.258
Mof_H 	H 	0.956	0.4991	0.8333	0.141
Mof_H 	H 	0.828	0.6386	0.0191	0.024
Mof_H 	H 	0.9208	0.6506	0.8772	0.014
Mof_H 	H 	0.8535	0.3241	0.9769	0.274
Mof_H 	H 	0.8539	0.3364	0.8722	0.275
Mof_H 	H 	0.9562	0.3335	0.9252	0.278
Mof_H 	H 	0.456	0.5009	0.6667	0.132
Mof_H 	H 	0.328	0.3614	0.4809	0.022
Mof_H 	H 	0.4208	0.3494	0.6228	0.008
Mof_H 	H 	0.3535	0.6759	0.5231	0.262
Mof_H 	H 	0.3539	0.6636	0.6278	0.263
Mof_H 	H 	0.4562	0.6665	0.5748	0.258
Mof_H 	H 	0.044	0.0009	0.8333	0.121
Mof_H 	H 	0.172	0.8614	0.0191	0.017
Mof_H 	H 	0.0792	0.8494	0.8772	0.006
Mof_H 	H 	0.1465	0.1759	0.9769	0.248
Mof_H 	H 	0.1461	0.1636	0.8722	0.251
Mof_H 	H 	0.0438	0.1665	0.9252	0.237
Mof_C 	C 	0.1504	0.9407	0.6471	-0.011
Mof_C 	C 	0.1622	0.6418	0.7999	-0.031
Mof_C 	C 	0.1456	0.6507	0.4824	-0.022
Mof_C 	C 	0.383	0.0464	0.4387	0.329
Mof_C 	C 	0.3514	0.9096	0.4843	-0.029
Mof_C 	C 	0.4028	0.9028	0.4067	0.043
Mof_C 	C 	0.387	0.147	0.4272	-0.833
Mof_C 	C 	0.3496	0.4407	0.8529	-0.009
Mof_C 	C 	0.3378	0.1418	0.7001	-0.027
Mof_C 	C 	0.3544	0.1507	0.0176	-0.013
Mof_C 	C 	0.117	0.5464	0.0613	0.314
Mof_C 	C 	0.1486	0.4096	0.0157	-0.03
Mof_C 	C 	0.0972	0.4028	0.0933	0.037
Mof_C 	C 	0.113	0.647	0.0728	-0.805
Mof_C 	C 	0.8496	0.5593	0.6471	-0.003
Mof_C 	C 	0.8378	0.8582	0.7999	-0.02
Mof_C 	C 	0.8544	0.8493	0.4824	-0.009
Mof_C 	C 	0.617	0.4536	0.4387	0.33
Mof_C 	C 	0.6486	0.5904	0.4843	-0.027
Mof_C 	C 	0.5972	0.5972	0.4067	0.044
Mof_C 	C 	0.613	0.353	0.4272	-0.834
Mof_C 	C 	0.6504	0.0593	0.8529	-0.006
Mof_C 	C 	0.6622	0.3582	0.7001	-0.024
Mof_C 	C 	0.6456	0.3493	0.0176	-0.015
Mof_C 	C 	0.883	0.9536	0.0613	0.333
Mof_C 	C 	0.8514	0.0904	0.0157	-0.016
Mof_C 	C 	0.9028	0.0972	0.0933	0.044
Mof_C 	C 	0.887	0.853	0.0728	-0.849
Mof_C 	C 	0.8496	0.0593	0.3529	-0
Mof_C 	C 	0.8378	0.3582	0.2001	-0.02
Mof_C 	C 	0.8544	0.3493	0.5176	-0.008
Mof_C 	C 	0.617	0.9536	0.5613	0.328
Mof_C 	C 	0.6486	0.0904	0.5157	-0.024
Mof_C 	C 	0.5972	0.0972	0.5933	0.043
Mof_C 	C 	0.613	0.853	0.5728	-0.833
Mof_C 	C 	0.6504	0.5593	0.1471	-0.006
Mof_C 	C 	0.6622	0.8582	0.2999	-0.025
Mof_C 	C 	0.6456	0.8493	0.9824	-0.014
Mof_C 	C 	0.883	0.4536	0.9387	0.343
Mof_C 	C 	0.8514	0.5904	0.9843	-0.023
Mof_C 	C 	0.9028	0.5972	0.9067	0.048
Mof_C 	C 	0.887	0.353	0.9272	-0.86
Mof_C 	C 	0.1504	0.4407	0.3529	-0.012
Mof_C 	C 	0.1622	0.1418	0.2001	-0.031
Mof_C 	C 	0.1456	0.1507	0.5176	-0.022
Mof_C 	C 	0.383	0.5464	0.5613	0.327
Mof_C 	C 	0.3514	0.4096	0.5157	-0.029
Mof_C 	C 	0.4028	0.4028	0.5933	0.043
Mof_C 	C 	0.387	0.647	0.5728	-0.831
Mof_C 	C 	0.3496	0.9407	0.1471	-0.011
Mof_C 	C 	0.3378	0.6418	0.2999	-0.026
Mof_C 	C 	0.3544	0.6507	0.9824	-0.014
Mof_C 	C 	0.117	0.0464	0.9387	0.309
Mof_C 	C 	0.1486	0.9096	0.9843	-0.026
Mof_C 	C 	0.0972	0.9028	0.9067	0.035
Mof_C 	C 	0.113	0.147	0.9272	-0.798
Mof_N 	N 	0.1029	0.8787	0.6551	-0.139
Mof_N 	N 	0.1053	0.6804	0.7572	-0.137
Mof_N 	N 	0.1015	0.6874	0.5355	-0.138
Mof_N 	N 	0.4225	0.9866	0.3808	-0.266
Mof_N 	N 	0.3396	0.0002	0.5032	-0.197
Mof_N 	N 	0.3971	0.3787	0.8449	-0.137
Mof_N 	N 	0.3947	0.1804	0.7428	-0.133
Mof_N 	N 	0.3985	0.1874	0.9645	-0.137
Mof_N 	N 	0.0775	0.4866	0.1192	-0.261
Mof_N 	N 	0.1604	0.5002	0.9968	-0.197
Mof_N 	N 	0.8971	0.6213	0.6551	-0.127
Mof_N 	N 	0.8947	0.8196	0.7572	-0.123
Mof_N 	N 	0.8985	0.8126	0.5355	-0.125
Mof_N 	N 	0.5775	0.5134	0.3808	-0.264
Mof_N 	N 	0.6604	0.4998	0.5032	-0.197
Mof_N 	N 	0.6029	0.1213	0.8449	-0.137
Mof_N 	N 	0.6053	0.3196	0.7428	-0.133
Mof_N 	N 	0.6015	0.3126	0.9645	-0.136
Mof_N 	N 	0.9225	0.0134	0.1192	-0.258
Mof_N 	N 	0.8396	0.9998	0.9968	-0.198
Mof_N 	N 	0.8971	0.1213	0.3449	-0.127
Mof_N 	N 	0.8947	0.3196	0.2428	-0.122
Mof_N 	N 	0.8985	0.3126	0.4645	-0.125
Mof_N 	N 	0.5775	0.0134	0.6192	-0.262
Mof_N 	N 	0.6604	0.9998	0.4968	-0.198
Mof_N 	N 	0.6029	0.6213	0.1551	-0.137
Mof_N 	N 	0.6053	0.8196	0.2572	-0.133
Mof_N 	N 	0.6015	0.8126	0.0355	-0.136
Mof_N 	N 	0.9225	0.5134	0.8808	-0.267
Mof_N 	N 	0.8396	0.4998	0.0032	-0.198
Mof_N 	N 	0.1029	0.3787	0.3449	-0.14
Mof_N 	N 	0.1053	0.1804	0.2428	-0.137
Mof_N 	N 	0.1015	0.1874	0.4645	-0.138
Mof_N 	N 	0.4225	0.4866	0.6192	-0.264
Mof_N 	N 	0.3396	0.5002	0.4968	-0.197
Mof_N 	N 	0.3971	0.8787	0.1551	-0.137
Mof_N 	N 	0.3947	0.6804	0.2572	-0.133
Mof_N 	N 	0.3985	0.6874	0.0355	-0.136
Mof_N 	N 	0.0775	0.9866	0.8808	-0.256
Mof_N 	N 	0.1604	0.0002	0.0032	-0.196
_end
