data_functionalizedCrystal
_audit_creation_method	'EQeq! by Chris Wilmer'
_symmetry_space_group_name_H-M	'P1'
_symmetry_Int_Tables_number	1
_symmetry_cell_setting	triclinic
loop_
_symmetry_equiv_pos_as_xyz
  x,y,z
_cell_length_a	47.0072
_cell_length_b	47.0072
_cell_length_c	47.0072
_cell_angle_alpha	90
_cell_angle_beta	90
_cell_angle_gamma	90
loop_
_atom_site_label
_atom_site_type_symbol
_atom_site_fract_x
_atom_site_fract_y
_atom_site_fract_z
_atom_site_charge
Mof_Cu	Cu	0.37669	0.4128	0.52951	0.825
Mof_Cu	Cu	0.35004	0.47543	0.55795	0.824
Mof_N 	N 	0.35846	0.47281	0.51647	-0.231
Mof_N 	N 	0.37086	0.4488	0.50452	-0.214
Mof_N 	N 	0.39342	0.42807	0.56541	-0.232
Mof_N 	N 	0.38591	0.45514	0.57553	-0.211
Mof_N 	N 	0.35839	0.51677	0.40799	-0.231
Mof_N 	N 	0.38795	0.51573	0.40967	-0.218
Mof_C 	C 	0.3482	0.50436	0.43064	0.084
Mof_H 	H 	0.329	0.5019	0.4348	-0.025
Mof_N 	N 	0.3704	0.49569	0.44704	-0.112
Mof_C 	C 	0.37679	0.4545	0.47806	0.089
Mof_H 	H 	0.3852	0.4421	0.4651	-0.013
Mof_N 	N 	0.48153	0.43822	0.64324	-0.221
Mof_N 	N 	0.44046	0.43652	0.62232	-0.112
Mof_N 	N 	0.46175	0.42572	0.66165	-0.235
Mof_N 	N 	0.42011	0.43877	0.60141	-0.111
Mof_C 	C 	0.40189	0.46092	0.59725	0.092
Mof_H 	H 	0.4011	0.4774	0.6082	-0.013
Mof_C 	C 	0.43733	0.4251	0.64864	0.091
Mof_H 	H 	0.4205	0.418	0.6562	-0.032
Mof_C 	C 	0.41405	0.41872	0.58133	0.088
Mof_H 	H 	0.4232	0.4013	0.5793	-0.019
Mof_C 	C 	0.35769	0.49248	0.49719	0.089
Mof_H 	H 	0.3508	0.5109	0.4997	-0.02
Mof_C 	C 	0.39464	0.50334	0.43355	0.09
Mof_H 	H 	0.413	0.5003	0.4402	-0.014
Mof_C 	C 	0.4681	0.44479	0.61991	0.087
Mof_H 	H 	0.4761	0.4537	0.6042	-0.012
Mof_N 	N 	0.36856	0.48185	0.47271	-0.112
Mof_Cu	Cu	0.37669	0.9128	0.02951	0.825
Mof_Cu	Cu	0.35004	0.97543	0.05795	0.824
Mof_N 	N 	0.35846	0.97281	0.01647	-0.231
Mof_N 	N 	0.37086	0.9488	0.00452	-0.214
Mof_N 	N 	0.39342	0.92807	0.06541	-0.232
Mof_N 	N 	0.38591	0.95514	0.07553	-0.211
Mof_N 	N 	0.35839	0.01677	0.90799	-0.231
Mof_N 	N 	0.38795	0.01573	0.90967	-0.218
Mof_C 	C 	0.3482	0.00436	0.93064	0.084
Mof_H 	H 	0.329	0.0019	0.9348	-0.025
Mof_N 	N 	0.3704	0.99569	0.94704	-0.112
Mof_C 	C 	0.37679	0.9545	0.97806	0.089
Mof_H 	H 	0.3852	0.9421	0.9651	-0.013
Mof_N 	N 	0.48153	0.93822	0.14324	-0.221
Mof_N 	N 	0.44046	0.93652	0.12232	-0.112
Mof_N 	N 	0.46175	0.92572	0.16165	-0.235
Mof_N 	N 	0.42011	0.93877	0.10141	-0.111
Mof_C 	C 	0.40189	0.96092	0.09725	0.092
Mof_H 	H 	0.4011	0.9774	0.1082	-0.013
Mof_C 	C 	0.43733	0.9251	0.14864	0.091
Mof_H 	H 	0.4205	0.918	0.1562	-0.032
Mof_C 	C 	0.41405	0.91872	0.08133	0.088
Mof_H 	H 	0.4232	0.9013	0.0793	-0.019
Mof_C 	C 	0.35769	0.99248	0.99719	0.089
Mof_H 	H 	0.3508	0.0109	0.9997	-0.02
Mof_C 	C 	0.39464	0.00334	0.93355	0.09
Mof_H 	H 	0.413	0.0003	0.9402	-0.014
Mof_C 	C 	0.4681	0.94479	0.11991	0.087
Mof_H 	H 	0.4761	0.9537	0.1042	-0.012
Mof_N 	N 	0.36856	0.98185	0.97271	-0.112
Mof_Cu	Cu	0.87669	0.4128	0.02951	0.825
Mof_Cu	Cu	0.85004	0.47543	0.05795	0.824
Mof_N 	N 	0.85846	0.47281	0.01647	-0.231
Mof_N 	N 	0.87086	0.4488	0.00452	-0.214
Mof_N 	N 	0.89342	0.42807	0.06541	-0.232
Mof_N 	N 	0.88591	0.45514	0.07553	-0.211
Mof_N 	N 	0.85839	0.51677	0.90799	-0.231
Mof_N 	N 	0.88795	0.51573	0.90967	-0.218
Mof_C 	C 	0.8482	0.50436	0.93064	0.084
Mof_H 	H 	0.829	0.5019	0.9348	-0.025
Mof_N 	N 	0.8704	0.49569	0.94704	-0.112
Mof_C 	C 	0.87679	0.4545	0.97806	0.089
Mof_H 	H 	0.8852	0.4421	0.9651	-0.013
Mof_N 	N 	0.98153	0.43822	0.14324	-0.221
Mof_N 	N 	0.94046	0.43652	0.12232	-0.112
Mof_N 	N 	0.96175	0.42572	0.16165	-0.235
Mof_N 	N 	0.92011	0.43877	0.10141	-0.111
Mof_C 	C 	0.90189	0.46092	0.09725	0.092
Mof_H 	H 	0.9011	0.4774	0.1082	-0.013
Mof_C 	C 	0.93733	0.4251	0.14864	0.091
Mof_H 	H 	0.9205	0.418	0.1562	-0.032
Mof_C 	C 	0.91405	0.41872	0.08133	0.088
Mof_H 	H 	0.9232	0.4013	0.0793	-0.019
Mof_C 	C 	0.85769	0.49248	0.99719	0.089
Mof_H 	H 	0.8508	0.5109	0.9997	-0.02
Mof_C 	C 	0.89464	0.50334	0.93355	0.09
Mof_H 	H 	0.913	0.5003	0.9402	-0.014
Mof_C 	C 	0.9681	0.44479	0.11991	0.087
Mof_H 	H 	0.9761	0.4537	0.1042	-0.012
Mof_N 	N 	0.86856	0.48185	0.97271	-0.112
Mof_Cu	Cu	0.87669	0.9128	0.52951	0.825
Mof_Cu	Cu	0.85004	0.97543	0.55795	0.824
Mof_N 	N 	0.85846	0.97281	0.51647	-0.231
Mof_N 	N 	0.87086	0.9488	0.50452	-0.214
Mof_N 	N 	0.89342	0.92807	0.56541	-0.232
Mof_N 	N 	0.88591	0.95514	0.57553	-0.211
Mof_N 	N 	0.85839	0.01677	0.40799	-0.231
Mof_N 	N 	0.88795	0.01573	0.40967	-0.218
Mof_C 	C 	0.8482	0.00436	0.43064	0.084
Mof_H 	H 	0.829	0.0019	0.4348	-0.025
Mof_N 	N 	0.8704	0.99569	0.44704	-0.112
Mof_C 	C 	0.87679	0.9545	0.47806	0.089
Mof_H 	H 	0.8852	0.9421	0.4651	-0.013
Mof_N 	N 	0.98153	0.93822	0.64324	-0.221
Mof_N 	N 	0.94046	0.93652	0.62232	-0.112
Mof_N 	N 	0.96175	0.92572	0.66165	-0.235
Mof_N 	N 	0.92011	0.93877	0.60141	-0.111
Mof_C 	C 	0.90189	0.96092	0.59725	0.092
Mof_H 	H 	0.9011	0.9774	0.6082	-0.013
Mof_C 	C 	0.93733	0.9251	0.64864	0.091
Mof_H 	H 	0.9205	0.918	0.6562	-0.032
Mof_C 	C 	0.91405	0.91872	0.58133	0.088
Mof_H 	H 	0.9232	0.9013	0.5793	-0.019
Mof_C 	C 	0.85769	0.99248	0.49719	0.089
Mof_H 	H 	0.8508	0.0109	0.4997	-0.02
Mof_C 	C 	0.89464	0.00334	0.43355	0.09
Mof_H 	H 	0.913	0.0003	0.4402	-0.014
Mof_C 	C 	0.9681	0.94479	0.61991	0.087
Mof_H 	H 	0.9761	0.9537	0.6042	-0.012
Mof_N 	N 	0.86856	0.98185	0.47271	-0.112
Mof_Cu	Cu	0.87331	0.3372	0.02951	0.825
Mof_Cu	Cu	0.89996	0.27457	0.05795	0.824
Mof_N 	N 	0.89154	0.27719	0.01647	-0.231
Mof_N 	N 	0.87914	0.3012	0.00452	-0.214
Mof_N 	N 	0.85658	0.32193	0.06541	-0.232
Mof_N 	N 	0.86409	0.29486	0.07553	-0.211
Mof_N 	N 	0.89161	0.23323	0.90799	-0.231
Mof_N 	N 	0.86205	0.23427	0.90967	-0.218
Mof_C 	C 	0.9018	0.24564	0.93064	0.084
Mof_H 	H 	0.921	0.2481	0.9348	-0.025
Mof_N 	N 	0.8796	0.25431	0.94704	-0.112
Mof_C 	C 	0.87321	0.2955	0.97806	0.089
Mof_H 	H 	0.8648	0.3079	0.9651	-0.013
Mof_N 	N 	0.76847	0.31178	0.14324	-0.221
Mof_N 	N 	0.80954	0.31348	0.12232	-0.112
Mof_N 	N 	0.78825	0.32428	0.16165	-0.235
Mof_N 	N 	0.82989	0.31123	0.10141	-0.111
Mof_C 	C 	0.84811	0.28908	0.09725	0.092
Mof_H 	H 	0.8489	0.2726	0.1082	-0.013
Mof_C 	C 	0.81267	0.3249	0.14864	0.091
Mof_H 	H 	0.8295	0.332	0.1562	-0.032
Mof_C 	C 	0.83595	0.33128	0.08133	0.088
Mof_H 	H 	0.8268	0.3487	0.0793	-0.019
Mof_C 	C 	0.89231	0.25752	0.99719	0.089
Mof_H 	H 	0.8992	0.2391	0.9997	-0.02
Mof_C 	C 	0.85536	0.24666	0.93355	0.09
Mof_H 	H 	0.837	0.2497	0.9402	-0.014
Mof_C 	C 	0.7819	0.30521	0.11991	0.087
Mof_H 	H 	0.7739	0.2963	0.1042	-0.012
Mof_N 	N 	0.88144	0.26815	0.97271	-0.112
Mof_Cu	Cu	0.87331	0.8372	0.52951	0.825
Mof_Cu	Cu	0.89996	0.77457	0.55795	0.824
Mof_N 	N 	0.89154	0.77719	0.51647	-0.231
Mof_N 	N 	0.87914	0.8012	0.50452	-0.214
Mof_N 	N 	0.85658	0.82193	0.56541	-0.232
Mof_N 	N 	0.86409	0.79486	0.57553	-0.211
Mof_N 	N 	0.89161	0.73323	0.40799	-0.231
Mof_N 	N 	0.86205	0.73427	0.40967	-0.218
Mof_C 	C 	0.9018	0.74564	0.43064	0.084
Mof_H 	H 	0.921	0.7481	0.4348	-0.025
Mof_N 	N 	0.8796	0.75431	0.44704	-0.112
Mof_C 	C 	0.87321	0.7955	0.47806	0.089
Mof_H 	H 	0.8648	0.8079	0.4651	-0.013
Mof_N 	N 	0.76847	0.81178	0.64324	-0.221
Mof_N 	N 	0.80954	0.81348	0.62232	-0.112
Mof_N 	N 	0.78825	0.82428	0.66165	-0.235
Mof_N 	N 	0.82989	0.81123	0.60141	-0.111
Mof_C 	C 	0.84811	0.78908	0.59725	0.092
Mof_H 	H 	0.8489	0.7726	0.6082	-0.013
Mof_C 	C 	0.81267	0.8249	0.64864	0.091
Mof_H 	H 	0.8295	0.832	0.6562	-0.032
Mof_C 	C 	0.83595	0.83128	0.58133	0.088
Mof_H 	H 	0.8268	0.8487	0.5793	-0.019
Mof_C 	C 	0.89231	0.75752	0.49719	0.089
Mof_H 	H 	0.8992	0.7391	0.4997	-0.02
Mof_C 	C 	0.85536	0.74666	0.43355	0.09
Mof_H 	H 	0.837	0.7497	0.4402	-0.014
Mof_C 	C 	0.7819	0.80521	0.61991	0.087
Mof_H 	H 	0.7739	0.7963	0.6042	-0.012
Mof_N 	N 	0.88144	0.76815	0.47271	-0.112
Mof_Cu	Cu	0.37331	0.3372	0.52951	0.825
Mof_Cu	Cu	0.39996	0.27457	0.55795	0.824
Mof_N 	N 	0.39154	0.27719	0.51647	-0.231
Mof_N 	N 	0.37914	0.3012	0.50452	-0.214
Mof_N 	N 	0.35658	0.32193	0.56541	-0.232
Mof_N 	N 	0.36409	0.29486	0.57553	-0.211
Mof_N 	N 	0.39161	0.23323	0.40799	-0.231
Mof_N 	N 	0.36205	0.23427	0.40967	-0.218
Mof_C 	C 	0.4018	0.24564	0.43064	0.084
Mof_H 	H 	0.421	0.2481	0.4348	-0.025
Mof_N 	N 	0.3796	0.25431	0.44704	-0.112
Mof_C 	C 	0.37321	0.2955	0.47806	0.089
Mof_H 	H 	0.3648	0.3079	0.4651	-0.012
Mof_N 	N 	0.26847	0.31178	0.64324	-0.22
Mof_N 	N 	0.30954	0.31348	0.62232	-0.111
Mof_N 	N 	0.28825	0.32428	0.66165	-0.234
Mof_N 	N 	0.32989	0.31123	0.60141	-0.11
Mof_C 	C 	0.34811	0.28908	0.59725	0.093
Mof_H 	H 	0.3489	0.2726	0.6082	-0.012
Mof_C 	C 	0.31267	0.3249	0.64864	0.092
Mof_H 	H 	0.3295	0.332	0.6562	-0.031
Mof_C 	C 	0.33595	0.33128	0.58133	0.089
Mof_H 	H 	0.3268	0.3487	0.5793	-0.018
Mof_C 	C 	0.39231	0.25752	0.49719	0.09
Mof_H 	H 	0.3992	0.2391	0.4997	-0.019
Mof_C 	C 	0.35536	0.24666	0.43355	0.091
Mof_H 	H 	0.337	0.2497	0.4402	-0.013
Mof_C 	C 	0.2819	0.30521	0.61991	0.088
Mof_H 	H 	0.2739	0.2963	0.6042	-0.011
Mof_N 	N 	0.38144	0.26815	0.47271	-0.111
Mof_Cu	Cu	0.37331	0.8372	0.02951	0.826
Mof_Cu	Cu	0.39996	0.77457	0.05795	0.825
Mof_N 	N 	0.39154	0.77719	0.01647	-0.23
Mof_N 	N 	0.37914	0.8012	0.00452	-0.213
Mof_N 	N 	0.35658	0.82193	0.06541	-0.231
Mof_N 	N 	0.36409	0.79486	0.07553	-0.21
Mof_N 	N 	0.39161	0.73323	0.90799	-0.23
Mof_N 	N 	0.36205	0.73427	0.90967	-0.217
Mof_C 	C 	0.4018	0.74564	0.93064	0.085
Mof_H 	H 	0.421	0.7481	0.9348	-0.024
Mof_N 	N 	0.3796	0.75431	0.94704	-0.111
Mof_C 	C 	0.37321	0.7955	0.97806	0.09
Mof_H 	H 	0.3648	0.8079	0.9651	-0.012
Mof_N 	N 	0.26847	0.81178	0.14324	-0.22
Mof_N 	N 	0.30954	0.81348	0.12232	-0.111
Mof_N 	N 	0.28825	0.82428	0.16165	-0.234
Mof_N 	N 	0.32989	0.81123	0.10141	-0.11
Mof_C 	C 	0.34811	0.78908	0.09725	0.093
Mof_H 	H 	0.3489	0.7726	0.1082	-0.012
Mof_C 	C 	0.31267	0.8249	0.14864	0.092
Mof_H 	H 	0.3295	0.832	0.1562	-0.031
Mof_C 	C 	0.33595	0.83128	0.08133	0.089
Mof_H 	H 	0.3268	0.8487	0.0793	-0.018
Mof_C 	C 	0.39231	0.75752	0.99719	0.09
Mof_H 	H 	0.3992	0.7391	0.9997	-0.019
Mof_C 	C 	0.35536	0.74666	0.93355	0.091
Mof_H 	H 	0.337	0.7497	0.9402	-0.013
Mof_C 	C 	0.2819	0.80521	0.11991	0.088
Mof_H 	H 	0.2739	0.7963	0.1042	-0.011
Mof_N 	N 	0.38144	0.76815	0.97271	-0.111
Mof_Cu	Cu	0.37331	0.9128	0.7205	0.826
Mof_Cu	Cu	0.39996	0.97543	0.69205	0.825
Mof_N 	N 	0.39154	0.97281	0.73353	-0.23
Mof_N 	N 	0.37914	0.9488	0.74548	-0.213
Mof_N 	N 	0.35658	0.92807	0.68459	-0.231
Mof_N 	N 	0.36409	0.95514	0.67447	-0.21
Mof_N 	N 	0.39161	0.01677	0.84201	-0.23
Mof_N 	N 	0.36205	0.01573	0.84033	-0.217
Mof_C 	C 	0.4018	0.00436	0.81936	0.085
Mof_H 	H 	0.421	0.0019	0.8152	-0.024
Mof_N 	N 	0.3796	0.99569	0.80296	-0.111
Mof_C 	C 	0.37321	0.9545	0.77194	0.09
Mof_H 	H 	0.3648	0.9421	0.7849	-0.012
Mof_N 	N 	0.26847	0.93822	0.60676	-0.22
Mof_N 	N 	0.30954	0.93652	0.62768	-0.111
Mof_N 	N 	0.28825	0.92572	0.58835	-0.234
Mof_N 	N 	0.32989	0.93877	0.64859	-0.11
Mof_C 	C 	0.34811	0.96092	0.65275	0.093
Mof_H 	H 	0.3489	0.9774	0.6418	-0.012
Mof_C 	C 	0.31267	0.9251	0.60136	0.092
Mof_H 	H 	0.3295	0.918	0.5938	-0.031
Mof_C 	C 	0.33595	0.91872	0.66867	0.089
Mof_H 	H 	0.3268	0.9013	0.6707	-0.018
Mof_C 	C 	0.39231	0.99248	0.75281	0.09
Mof_H 	H 	0.3992	0.0109	0.7503	-0.019
Mof_C 	C 	0.35536	0.00334	0.81645	0.091
Mof_H 	H 	0.337	0.0003	0.8098	-0.013
Mof_C 	C 	0.2819	0.94479	0.63009	0.088
Mof_H 	H 	0.2739	0.9537	0.6458	-0.011
Mof_N 	N 	0.38144	0.98185	0.77729	-0.111
Mof_Cu	Cu	0.37331	0.4128	0.2205	0.826
Mof_Cu	Cu	0.39996	0.47543	0.19205	0.825
Mof_N 	N 	0.39154	0.47281	0.23353	-0.23
Mof_N 	N 	0.37914	0.4488	0.24548	-0.213
Mof_N 	N 	0.35658	0.42807	0.18459	-0.231
Mof_N 	N 	0.36409	0.45514	0.17447	-0.21
Mof_N 	N 	0.39161	0.51677	0.34201	-0.23
Mof_N 	N 	0.36205	0.51573	0.34033	-0.217
Mof_C 	C 	0.4018	0.50436	0.31936	0.085
Mof_H 	H 	0.421	0.5019	0.3152	-0.024
Mof_N 	N 	0.3796	0.49569	0.30296	-0.111
Mof_C 	C 	0.37321	0.4545	0.27194	0.09
Mof_H 	H 	0.3648	0.4421	0.2849	-0.012
Mof_N 	N 	0.26847	0.43822	0.10676	-0.22
Mof_N 	N 	0.30954	0.43652	0.12768	-0.111
Mof_N 	N 	0.28825	0.42572	0.08835	-0.234
Mof_N 	N 	0.32989	0.43877	0.14859	-0.11
Mof_C 	C 	0.34811	0.46092	0.15275	0.093
Mof_H 	H 	0.3489	0.4774	0.1418	-0.012
Mof_C 	C 	0.31267	0.4251	0.10136	0.092
Mof_H 	H 	0.3295	0.418	0.0938	-0.031
Mof_C 	C 	0.33595	0.41872	0.16867	0.089
Mof_H 	H 	0.3268	0.4013	0.1707	-0.018
Mof_C 	C 	0.39231	0.49248	0.25281	0.09
Mof_H 	H 	0.3992	0.5109	0.2503	-0.019
Mof_C 	C 	0.35536	0.50334	0.31645	0.091
Mof_H 	H 	0.337	0.5003	0.3098	-0.013
Mof_C 	C 	0.2819	0.44479	0.13009	0.088
Mof_H 	H 	0.2739	0.4537	0.1458	-0.011
Mof_N 	N 	0.38144	0.48185	0.27729	-0.111
Mof_Cu	Cu	0.87331	0.9128	0.2205	0.826
Mof_Cu	Cu	0.89996	0.97543	0.19205	0.825
Mof_N 	N 	0.89154	0.97281	0.23353	-0.23
Mof_N 	N 	0.87914	0.9488	0.24548	-0.213
Mof_N 	N 	0.85658	0.92807	0.18459	-0.231
Mof_N 	N 	0.86409	0.95514	0.17447	-0.21
Mof_N 	N 	0.89161	0.01677	0.34201	-0.23
Mof_N 	N 	0.86205	0.01573	0.34033	-0.217
Mof_C 	C 	0.9018	0.00436	0.31936	0.085
Mof_H 	H 	0.921	0.0019	0.3152	-0.024
Mof_N 	N 	0.8796	0.99569	0.30296	-0.111
Mof_C 	C 	0.87321	0.9545	0.27194	0.09
Mof_H 	H 	0.8648	0.9421	0.2849	-0.012
Mof_N 	N 	0.76847	0.93822	0.10676	-0.22
Mof_N 	N 	0.80954	0.93652	0.12768	-0.111
Mof_N 	N 	0.78825	0.92572	0.08835	-0.234
Mof_N 	N 	0.82989	0.93877	0.14859	-0.11
Mof_C 	C 	0.84811	0.96092	0.15275	0.093
Mof_H 	H 	0.8489	0.9774	0.1418	-0.012
Mof_C 	C 	0.81267	0.9251	0.10136	0.092
Mof_H 	H 	0.8295	0.918	0.0938	-0.031
Mof_C 	C 	0.83595	0.91872	0.16867	0.089
Mof_H 	H 	0.8268	0.9013	0.1707	-0.018
Mof_C 	C 	0.89231	0.99248	0.25281	0.09
Mof_H 	H 	0.8992	0.0109	0.2503	-0.019
Mof_C 	C 	0.85536	0.00334	0.31645	0.091
Mof_H 	H 	0.837	0.0003	0.3098	-0.013
Mof_C 	C 	0.7819	0.94479	0.13009	0.088
Mof_H 	H 	0.7739	0.9537	0.1458	-0.011
Mof_N 	N 	0.88144	0.98185	0.27729	-0.111
Mof_Cu	Cu	0.87331	0.4128	0.7205	0.826
Mof_Cu	Cu	0.89996	0.47543	0.69205	0.825
Mof_N 	N 	0.89154	0.47281	0.73353	-0.23
Mof_N 	N 	0.87914	0.4488	0.74548	-0.213
Mof_N 	N 	0.85658	0.42807	0.68459	-0.231
Mof_N 	N 	0.86409	0.45514	0.67447	-0.21
Mof_N 	N 	0.89161	0.51677	0.84201	-0.23
Mof_N 	N 	0.86205	0.51573	0.84033	-0.217
Mof_C 	C 	0.9018	0.50436	0.81936	0.085
Mof_H 	H 	0.921	0.5019	0.8152	-0.024
Mof_N 	N 	0.8796	0.49569	0.80296	-0.111
Mof_C 	C 	0.87321	0.4545	0.77194	0.09
Mof_H 	H 	0.8648	0.4421	0.7849	-0.012
Mof_N 	N 	0.76847	0.43822	0.60676	-0.22
Mof_N 	N 	0.80954	0.43652	0.62768	-0.111
Mof_N 	N 	0.78825	0.42572	0.58835	-0.234
Mof_N 	N 	0.82989	0.43877	0.64859	-0.11
Mof_C 	C 	0.84811	0.46092	0.65275	0.093
Mof_H 	H 	0.8489	0.4774	0.6418	-0.012
Mof_C 	C 	0.81267	0.4251	0.60136	0.092
Mof_H 	H 	0.8295	0.418	0.5938	-0.031
Mof_C 	C 	0.83595	0.41872	0.66867	0.089
Mof_H 	H 	0.8268	0.4013	0.6707	-0.018
Mof_C 	C 	0.89231	0.49248	0.75281	0.09
Mof_H 	H 	0.8992	0.5109	0.7503	-0.019
Mof_C 	C 	0.85536	0.50334	0.81645	0.091
Mof_H 	H 	0.837	0.5003	0.8098	-0.013
Mof_C 	C 	0.7819	0.44479	0.63009	0.088
Mof_H 	H 	0.7739	0.4537	0.6458	-0.011
Mof_N 	N 	0.88144	0.48185	0.77729	-0.111
Mof_Cu	Cu	0.87669	0.8372	0.2205	0.826
Mof_Cu	Cu	0.85004	0.77457	0.19205	0.825
Mof_N 	N 	0.85846	0.77719	0.23353	-0.23
Mof_N 	N 	0.87086	0.8012	0.24548	-0.213
Mof_N 	N 	0.89342	0.82193	0.18459	-0.231
Mof_N 	N 	0.88591	0.79486	0.17447	-0.21
Mof_N 	N 	0.85839	0.73323	0.34201	-0.23
Mof_N 	N 	0.88795	0.73427	0.34033	-0.217
Mof_C 	C 	0.8482	0.74564	0.31936	0.085
Mof_H 	H 	0.829	0.7481	0.3152	-0.024
Mof_N 	N 	0.8704	0.75431	0.30296	-0.111
Mof_C 	C 	0.87679	0.7955	0.27194	0.09
Mof_H 	H 	0.8852	0.8079	0.2849	-0.012
Mof_N 	N 	0.98153	0.81178	0.10676	-0.22
Mof_N 	N 	0.94046	0.81348	0.12768	-0.111
Mof_N 	N 	0.96175	0.82428	0.08835	-0.234
Mof_N 	N 	0.92011	0.81123	0.14859	-0.11
Mof_C 	C 	0.90189	0.78908	0.15275	0.093
Mof_H 	H 	0.9011	0.7726	0.1418	-0.012
Mof_C 	C 	0.93733	0.8249	0.10136	0.092
Mof_H 	H 	0.9205	0.832	0.0938	-0.031
Mof_C 	C 	0.91405	0.83128	0.16867	0.089
Mof_H 	H 	0.9232	0.8487	0.1707	-0.018
Mof_C 	C 	0.85769	0.75752	0.25281	0.09
Mof_H 	H 	0.8508	0.7391	0.2503	-0.019
Mof_C 	C 	0.89464	0.74666	0.31645	0.091
Mof_H 	H 	0.913	0.7497	0.3098	-0.013
Mof_C 	C 	0.9681	0.80521	0.13009	0.088
Mof_H 	H 	0.9761	0.7963	0.1458	-0.011
Mof_N 	N 	0.86856	0.76815	0.27729	-0.111
Mof_Cu	Cu	0.87669	0.3372	0.7205	0.826
Mof_Cu	Cu	0.85004	0.27457	0.69205	0.825
Mof_N 	N 	0.85846	0.27719	0.73353	-0.23
Mof_N 	N 	0.87086	0.3012	0.74548	-0.213
Mof_N 	N 	0.89342	0.32193	0.68459	-0.231
Mof_N 	N 	0.88591	0.29486	0.67447	-0.21
Mof_N 	N 	0.85839	0.23323	0.84201	-0.23
Mof_N 	N 	0.88795	0.23427	0.84033	-0.217
Mof_C 	C 	0.8482	0.24564	0.81936	0.085
Mof_H 	H 	0.829	0.2481	0.8152	-0.024
Mof_N 	N 	0.8704	0.25431	0.80296	-0.111
Mof_C 	C 	0.87679	0.2955	0.77194	0.09
Mof_H 	H 	0.8852	0.3079	0.7849	-0.012
Mof_N 	N 	0.98153	0.31178	0.60676	-0.22
Mof_N 	N 	0.94046	0.31348	0.62768	-0.111
Mof_N 	N 	0.96175	0.32428	0.58835	-0.234
Mof_N 	N 	0.92011	0.31123	0.64859	-0.11
Mof_C 	C 	0.90189	0.28908	0.65275	0.093
Mof_H 	H 	0.9011	0.2726	0.6418	-0.012
Mof_C 	C 	0.93733	0.3249	0.60136	0.092
Mof_H 	H 	0.9205	0.332	0.5938	-0.031
Mof_C 	C 	0.91405	0.33128	0.66867	0.089
Mof_H 	H 	0.9232	0.3487	0.6707	-0.018
Mof_C 	C 	0.85769	0.25752	0.75281	0.09
Mof_H 	H 	0.8508	0.2391	0.7503	-0.019
Mof_C 	C 	0.89464	0.24666	0.81645	0.091
Mof_H 	H 	0.913	0.2497	0.8098	-0.013
Mof_C 	C 	0.9681	0.30521	0.63009	0.088
Mof_H 	H 	0.9761	0.2963	0.6458	-0.011
Mof_N 	N 	0.86856	0.26815	0.77729	-0.111
Mof_Cu	Cu	0.37669	0.8372	0.7205	0.826
Mof_Cu	Cu	0.35004	0.77457	0.69205	0.825
Mof_N 	N 	0.35846	0.77719	0.73353	-0.23
Mof_N 	N 	0.37086	0.8012	0.74548	-0.213
Mof_N 	N 	0.39342	0.82193	0.68459	-0.231
Mof_N 	N 	0.38591	0.79486	0.67447	-0.21
Mof_N 	N 	0.35839	0.73323	0.84201	-0.23
Mof_N 	N 	0.38795	0.73427	0.84033	-0.217
Mof_C 	C 	0.3482	0.74564	0.81936	0.085
Mof_H 	H 	0.329	0.7481	0.8152	-0.024
Mof_N 	N 	0.3704	0.75431	0.80296	-0.111
Mof_C 	C 	0.37679	0.7955	0.77194	0.09
Mof_H 	H 	0.3852	0.8079	0.7849	-0.012
Mof_N 	N 	0.48153	0.81178	0.60676	-0.22
Mof_N 	N 	0.44046	0.81348	0.62768	-0.111
Mof_N 	N 	0.46175	0.82428	0.58835	-0.234
Mof_N 	N 	0.42011	0.81123	0.64859	-0.11
Mof_C 	C 	0.40189	0.78908	0.65275	0.093
Mof_H 	H 	0.4011	0.7726	0.6418	-0.012
Mof_C 	C 	0.43733	0.8249	0.60136	0.092
Mof_H 	H 	0.4205	0.832	0.5938	-0.031
Mof_C 	C 	0.41405	0.83128	0.66867	0.089
Mof_H 	H 	0.4232	0.8487	0.6707	-0.018
Mof_C 	C 	0.35769	0.75752	0.75281	0.09
Mof_H 	H 	0.3508	0.7391	0.7503	-0.019
Mof_C 	C 	0.39464	0.74666	0.81645	0.091
Mof_H 	H 	0.413	0.7497	0.8098	-0.013
Mof_C 	C 	0.4681	0.80521	0.63009	0.088
Mof_H 	H 	0.4761	0.7963	0.6458	-0.011
Mof_N 	N 	0.36856	0.76815	0.77729	-0.111
Mof_Cu	Cu	0.37669	0.3372	0.2205	0.826
Mof_Cu	Cu	0.35004	0.27457	0.19205	0.825
Mof_N 	N 	0.35846	0.27719	0.23353	-0.23
Mof_N 	N 	0.37086	0.3012	0.24548	-0.213
Mof_N 	N 	0.39342	0.32193	0.18459	-0.231
Mof_N 	N 	0.38591	0.29486	0.17447	-0.21
Mof_N 	N 	0.35839	0.23323	0.34201	-0.23
Mof_N 	N 	0.38795	0.23427	0.34033	-0.217
Mof_C 	C 	0.3482	0.24564	0.31936	0.085
Mof_H 	H 	0.329	0.2481	0.3152	-0.024
Mof_N 	N 	0.3704	0.25431	0.30296	-0.111
Mof_C 	C 	0.37679	0.2955	0.27194	0.09
Mof_H 	H 	0.3852	0.3079	0.2849	-0.012
Mof_N 	N 	0.48153	0.31178	0.10676	-0.22
Mof_N 	N 	0.44046	0.31348	0.12768	-0.111
Mof_N 	N 	0.46175	0.32428	0.08835	-0.234
Mof_N 	N 	0.42011	0.31123	0.14859	-0.11
Mof_C 	C 	0.40189	0.28908	0.15275	0.093
Mof_H 	H 	0.4011	0.2726	0.1418	-0.012
Mof_C 	C 	0.43733	0.3249	0.10136	0.092
Mof_H 	H 	0.4205	0.332	0.0938	-0.031
Mof_C 	C 	0.41405	0.33128	0.16867	0.089
Mof_H 	H 	0.4232	0.3487	0.1707	-0.018
Mof_C 	C 	0.35769	0.25752	0.25281	0.09
Mof_H 	H 	0.3508	0.2391	0.2503	-0.019
Mof_C 	C 	0.39464	0.24666	0.31645	0.091
Mof_H 	H 	0.413	0.2497	0.3098	-0.013
Mof_C 	C 	0.4681	0.30521	0.13009	0.088
Mof_H 	H 	0.4761	0.2963	0.1458	-0.011
Mof_N 	N 	0.36856	0.26815	0.27729	-0.111
Mof_Cu	Cu	0.52951	0.37669	0.4128	0.826
Mof_Cu	Cu	0.55795	0.35004	0.47543	0.825
Mof_N 	N 	0.51647	0.35846	0.47281	-0.23
Mof_N 	N 	0.50452	0.37086	0.4488	-0.213
Mof_N 	N 	0.56541	0.39342	0.42807	-0.231
Mof_N 	N 	0.57553	0.38591	0.45514	-0.21
Mof_N 	N 	0.40799	0.35839	0.51677	-0.23
Mof_N 	N 	0.40967	0.38795	0.51573	-0.217
Mof_C 	C 	0.43064	0.3482	0.50436	0.085
Mof_H 	H 	0.4348	0.329	0.5019	-0.024
Mof_N 	N 	0.44704	0.3704	0.49569	-0.111
Mof_C 	C 	0.47806	0.37679	0.4545	0.09
Mof_H 	H 	0.4651	0.3852	0.4421	-0.012
Mof_N 	N 	0.64324	0.48153	0.43822	-0.22
Mof_N 	N 	0.62232	0.44046	0.43652	-0.111
Mof_N 	N 	0.66165	0.46175	0.42572	-0.234
Mof_N 	N 	0.60141	0.42011	0.43877	-0.11
Mof_C 	C 	0.59725	0.40189	0.46092	0.093
Mof_H 	H 	0.6082	0.4011	0.4774	-0.012
Mof_C 	C 	0.64864	0.43733	0.4251	0.092
Mof_H 	H 	0.6562	0.4205	0.418	-0.031
Mof_C 	C 	0.58133	0.41405	0.41872	0.089
Mof_H 	H 	0.5793	0.4232	0.4013	-0.018
Mof_C 	C 	0.49719	0.35769	0.49248	0.09
Mof_H 	H 	0.4997	0.3508	0.5109	-0.019
Mof_C 	C 	0.43355	0.39464	0.50334	0.091
Mof_H 	H 	0.4402	0.413	0.5003	-0.013
Mof_C 	C 	0.61991	0.4681	0.44479	0.088
Mof_H 	H 	0.6042	0.4761	0.4537	-0.011
Mof_N 	N 	0.47271	0.36856	0.48185	-0.111
Mof_Cu	Cu	0.52951	0.87669	0.9128	0.826
Mof_Cu	Cu	0.55795	0.85004	0.97543	0.825
Mof_N 	N 	0.51647	0.85846	0.97281	-0.23
Mof_N 	N 	0.50452	0.87086	0.9488	-0.213
Mof_N 	N 	0.56541	0.89342	0.92807	-0.231
Mof_N 	N 	0.57553	0.88591	0.95514	-0.21
Mof_N 	N 	0.40799	0.85839	0.01677	-0.23
Mof_N 	N 	0.40967	0.88795	0.01573	-0.217
Mof_C 	C 	0.43064	0.8482	0.00436	0.085
Mof_H 	H 	0.4348	0.829	0.0019	-0.024
Mof_N 	N 	0.44704	0.8704	0.99569	-0.111
Mof_C 	C 	0.47806	0.87679	0.9545	0.09
Mof_H 	H 	0.4651	0.8852	0.9421	-0.012
Mof_N 	N 	0.64324	0.98153	0.93822	-0.22
Mof_N 	N 	0.62232	0.94046	0.93652	-0.111
Mof_N 	N 	0.66165	0.96175	0.92572	-0.234
Mof_N 	N 	0.60141	0.92011	0.93877	-0.11
Mof_C 	C 	0.59725	0.90189	0.96092	0.093
Mof_H 	H 	0.6082	0.9011	0.9774	-0.012
Mof_C 	C 	0.64864	0.93733	0.9251	0.092
Mof_H 	H 	0.6562	0.9205	0.918	-0.031
Mof_C 	C 	0.58133	0.91405	0.91872	0.089
Mof_H 	H 	0.5793	0.9232	0.9013	-0.018
Mof_C 	C 	0.49719	0.85769	0.99248	0.09
Mof_H 	H 	0.4997	0.8508	0.0109	-0.019
Mof_C 	C 	0.43355	0.89464	0.00334	0.091
Mof_H 	H 	0.4402	0.913	0.0003	-0.013
Mof_C 	C 	0.61991	0.9681	0.94479	0.088
Mof_H 	H 	0.6042	0.9761	0.9537	-0.011
Mof_N 	N 	0.47271	0.86856	0.98185	-0.111
Mof_Cu	Cu	0.02951	0.37669	0.9128	0.826
Mof_Cu	Cu	0.05795	0.35004	0.97543	0.825
Mof_N 	N 	0.01647	0.35846	0.97281	-0.23
Mof_N 	N 	0.00452	0.37086	0.9488	-0.213
Mof_N 	N 	0.06541	0.39342	0.92807	-0.231
Mof_N 	N 	0.07553	0.38591	0.95514	-0.21
Mof_N 	N 	0.90799	0.35839	0.01677	-0.23
Mof_N 	N 	0.90967	0.38795	0.01573	-0.217
Mof_C 	C 	0.93064	0.3482	0.00436	0.085
Mof_H 	H 	0.9348	0.329	0.0019	-0.024
Mof_N 	N 	0.94704	0.3704	0.99569	-0.111
Mof_C 	C 	0.97806	0.37679	0.9545	0.09
Mof_H 	H 	0.9651	0.3852	0.9421	-0.012
Mof_N 	N 	0.14324	0.48153	0.93822	-0.22
Mof_N 	N 	0.12232	0.44046	0.93652	-0.111
Mof_N 	N 	0.16165	0.46175	0.92572	-0.234
Mof_N 	N 	0.10141	0.42011	0.93877	-0.11
Mof_C 	C 	0.09725	0.40189	0.96092	0.093
Mof_H 	H 	0.1082	0.4011	0.9774	-0.012
Mof_C 	C 	0.14864	0.43733	0.9251	0.092
Mof_H 	H 	0.1562	0.4205	0.918	-0.031
Mof_C 	C 	0.08133	0.41405	0.91872	0.089
Mof_H 	H 	0.0793	0.4232	0.9013	-0.018
Mof_C 	C 	0.99719	0.35769	0.99248	0.09
Mof_H 	H 	0.9997	0.3508	0.0109	-0.019
Mof_C 	C 	0.93355	0.39464	0.00334	0.091
Mof_H 	H 	0.9402	0.413	0.0003	-0.013
Mof_C 	C 	0.11991	0.4681	0.94479	0.088
Mof_H 	H 	0.1042	0.4761	0.9537	-0.011
Mof_N 	N 	0.97271	0.36856	0.98185	-0.111
Mof_Cu	Cu	0.02951	0.87669	0.4128	0.826
Mof_Cu	Cu	0.05795	0.85004	0.47543	0.825
Mof_N 	N 	0.01647	0.85846	0.47281	-0.23
Mof_N 	N 	0.00452	0.87086	0.4488	-0.213
Mof_N 	N 	0.06541	0.89342	0.42807	-0.231
Mof_N 	N 	0.07553	0.88591	0.45514	-0.21
Mof_N 	N 	0.90799	0.85839	0.51677	-0.23
Mof_N 	N 	0.90967	0.88795	0.51573	-0.217
Mof_C 	C 	0.93064	0.8482	0.50436	0.085
Mof_H 	H 	0.9348	0.829	0.5019	-0.024
Mof_N 	N 	0.94704	0.8704	0.49569	-0.111
Mof_C 	C 	0.97806	0.87679	0.4545	0.09
Mof_H 	H 	0.9651	0.8852	0.4421	-0.012
Mof_N 	N 	0.14324	0.98153	0.43822	-0.22
Mof_N 	N 	0.12232	0.94046	0.43652	-0.111
Mof_N 	N 	0.16165	0.96175	0.42572	-0.234
Mof_N 	N 	0.10141	0.92011	0.43877	-0.11
Mof_C 	C 	0.09725	0.90189	0.46092	0.093
Mof_H 	H 	0.1082	0.9011	0.4774	-0.012
Mof_C 	C 	0.14864	0.93733	0.4251	0.092
Mof_H 	H 	0.1562	0.9205	0.418	-0.031
Mof_C 	C 	0.08133	0.91405	0.41872	0.089
Mof_H 	H 	0.0793	0.9232	0.4013	-0.018
Mof_C 	C 	0.99719	0.85769	0.49248	0.09
Mof_H 	H 	0.9997	0.8508	0.5109	-0.019
Mof_C 	C 	0.93355	0.89464	0.50334	0.091
Mof_H 	H 	0.9402	0.913	0.5003	-0.013
Mof_C 	C 	0.11991	0.9681	0.44479	0.088
Mof_H 	H 	0.1042	0.9761	0.4537	-0.011
Mof_N 	N 	0.97271	0.86856	0.48185	-0.111
Mof_Cu	Cu	0.02951	0.87331	0.3372	0.826
Mof_Cu	Cu	0.05795	0.89996	0.27457	0.825
Mof_N 	N 	0.01647	0.89154	0.27719	-0.23
Mof_N 	N 	0.00452	0.87914	0.3012	-0.213
Mof_N 	N 	0.06541	0.85658	0.32193	-0.231
Mof_N 	N 	0.07553	0.86409	0.29486	-0.21
Mof_N 	N 	0.90799	0.89161	0.23323	-0.23
Mof_N 	N 	0.90967	0.86205	0.23427	-0.217
Mof_C 	C 	0.93064	0.9018	0.24564	0.085
Mof_H 	H 	0.9348	0.921	0.2481	-0.024
Mof_N 	N 	0.94704	0.8796	0.25431	-0.111
Mof_C 	C 	0.97806	0.87321	0.2955	0.09
Mof_H 	H 	0.9651	0.8648	0.3079	-0.012
Mof_N 	N 	0.14324	0.76847	0.31178	-0.22
Mof_N 	N 	0.12232	0.80954	0.31348	-0.111
Mof_N 	N 	0.16165	0.78825	0.32428	-0.234
Mof_N 	N 	0.10141	0.82989	0.31123	-0.11
Mof_C 	C 	0.09725	0.84811	0.28908	0.093
Mof_H 	H 	0.1082	0.8489	0.2726	-0.012
Mof_C 	C 	0.14864	0.81267	0.3249	0.092
Mof_H 	H 	0.1562	0.8295	0.332	-0.031
Mof_C 	C 	0.08133	0.83595	0.33128	0.089
Mof_H 	H 	0.0793	0.8268	0.3487	-0.018
Mof_C 	C 	0.99719	0.89231	0.25752	0.09
Mof_H 	H 	0.9997	0.8992	0.2391	-0.019
Mof_C 	C 	0.93355	0.85536	0.24666	0.091
Mof_H 	H 	0.9402	0.837	0.2497	-0.013
Mof_C 	C 	0.11991	0.7819	0.30521	0.088
Mof_H 	H 	0.1042	0.7739	0.2963	-0.011
Mof_N 	N 	0.97271	0.88144	0.26815	-0.111
Mof_Cu	Cu	0.02951	0.37331	0.8372	0.826
Mof_Cu	Cu	0.05795	0.39996	0.77457	0.825
Mof_N 	N 	0.01647	0.39154	0.77719	-0.23
Mof_N 	N 	0.00452	0.37914	0.8012	-0.213
Mof_N 	N 	0.06541	0.35658	0.82193	-0.231
Mof_N 	N 	0.07553	0.36409	0.79486	-0.21
Mof_N 	N 	0.90799	0.39161	0.73323	-0.23
Mof_N 	N 	0.90967	0.36205	0.73427	-0.217
Mof_C 	C 	0.93064	0.4018	0.74564	0.085
Mof_H 	H 	0.9348	0.421	0.7481	-0.024
Mof_N 	N 	0.94704	0.3796	0.75431	-0.111
Mof_C 	C 	0.97806	0.37321	0.7955	0.09
Mof_H 	H 	0.9651	0.3648	0.8079	-0.012
Mof_N 	N 	0.14324	0.26847	0.81178	-0.22
Mof_N 	N 	0.12232	0.30954	0.81348	-0.111
Mof_N 	N 	0.16165	0.28825	0.82428	-0.234
Mof_N 	N 	0.10141	0.32989	0.81123	-0.11
Mof_C 	C 	0.09725	0.34811	0.78908	0.093
Mof_H 	H 	0.1082	0.3489	0.7726	-0.012
Mof_C 	C 	0.14864	0.31267	0.8249	0.092
Mof_H 	H 	0.1562	0.3295	0.832	-0.031
Mof_C 	C 	0.08133	0.33595	0.83128	0.089
Mof_H 	H 	0.0793	0.3268	0.8487	-0.018
Mof_C 	C 	0.99719	0.39231	0.75752	0.09
Mof_H 	H 	0.9997	0.3992	0.7391	-0.019
Mof_C 	C 	0.93355	0.35536	0.74666	0.091
Mof_H 	H 	0.9402	0.337	0.7497	-0.013
Mof_C 	C 	0.11991	0.2819	0.80521	0.088
Mof_H 	H 	0.1042	0.2739	0.7963	-0.011
Mof_N 	N 	0.97271	0.38144	0.76815	-0.111
Mof_Cu	Cu	0.52951	0.87331	0.8372	0.826
Mof_Cu	Cu	0.55795	0.89996	0.77457	0.825
Mof_N 	N 	0.51647	0.89154	0.77719	-0.23
Mof_N 	N 	0.50452	0.87914	0.8012	-0.213
Mof_N 	N 	0.56541	0.85658	0.82193	-0.231
Mof_N 	N 	0.57553	0.86409	0.79486	-0.21
Mof_N 	N 	0.40799	0.89161	0.73323	-0.23
Mof_N 	N 	0.40967	0.86205	0.73427	-0.217
Mof_C 	C 	0.43064	0.9018	0.74564	0.085
Mof_H 	H 	0.4348	0.921	0.7481	-0.024
Mof_N 	N 	0.44704	0.8796	0.75431	-0.111
Mof_C 	C 	0.47806	0.87321	0.7955	0.09
Mof_H 	H 	0.4651	0.8648	0.8079	-0.012
Mof_N 	N 	0.64324	0.76847	0.81178	-0.22
Mof_N 	N 	0.62232	0.80954	0.81348	-0.111
Mof_N 	N 	0.66165	0.78825	0.82428	-0.234
Mof_N 	N 	0.60141	0.82989	0.81123	-0.11
Mof_C 	C 	0.59725	0.84811	0.78908	0.093
Mof_H 	H 	0.6082	0.8489	0.7726	-0.012
Mof_C 	C 	0.64864	0.81267	0.8249	0.092
Mof_H 	H 	0.6562	0.8295	0.832	-0.031
Mof_C 	C 	0.58133	0.83595	0.83128	0.089
Mof_H 	H 	0.5793	0.8268	0.8487	-0.018
Mof_C 	C 	0.49719	0.89231	0.75752	0.09
Mof_H 	H 	0.4997	0.8992	0.7391	-0.019
Mof_C 	C 	0.43355	0.85536	0.74666	0.091
Mof_H 	H 	0.4402	0.837	0.7497	-0.013
Mof_C 	C 	0.61991	0.7819	0.80521	0.088
Mof_H 	H 	0.6042	0.7739	0.7963	-0.011
Mof_N 	N 	0.47271	0.88144	0.76815	-0.111
Mof_Cu	Cu	0.52951	0.37331	0.3372	0.826
Mof_Cu	Cu	0.55795	0.39996	0.27457	0.825
Mof_N 	N 	0.51647	0.39154	0.27719	-0.23
Mof_N 	N 	0.50452	0.37914	0.3012	-0.213
Mof_N 	N 	0.56541	0.35658	0.32193	-0.231
Mof_N 	N 	0.57553	0.36409	0.29486	-0.21
Mof_N 	N 	0.40799	0.39161	0.23323	-0.23
Mof_N 	N 	0.40967	0.36205	0.23427	-0.217
Mof_C 	C 	0.43064	0.4018	0.24564	0.085
Mof_H 	H 	0.4348	0.421	0.2481	-0.024
Mof_N 	N 	0.44704	0.3796	0.25431	-0.111
Mof_C 	C 	0.47806	0.37321	0.2955	0.09
Mof_H 	H 	0.4651	0.3648	0.3079	-0.012
Mof_N 	N 	0.64324	0.26847	0.31178	-0.22
Mof_N 	N 	0.62232	0.30954	0.31348	-0.111
Mof_N 	N 	0.66165	0.28825	0.32428	-0.234
Mof_N 	N 	0.60141	0.32989	0.31123	-0.11
Mof_C 	C 	0.59725	0.34811	0.28908	0.093
Mof_H 	H 	0.6082	0.3489	0.2726	-0.012
Mof_C 	C 	0.64864	0.31267	0.3249	0.092
Mof_H 	H 	0.6562	0.3295	0.332	-0.031
Mof_C 	C 	0.58133	0.33595	0.33128	0.089
Mof_H 	H 	0.5793	0.3268	0.3487	-0.018
Mof_C 	C 	0.49719	0.39231	0.25752	0.09
Mof_H 	H 	0.4997	0.3992	0.2391	-0.019
Mof_C 	C 	0.43355	0.35536	0.24666	0.091
Mof_H 	H 	0.4402	0.337	0.2497	-0.013
Mof_C 	C 	0.61991	0.2819	0.30521	0.088
Mof_H 	H 	0.6042	0.2739	0.2963	-0.011
Mof_N 	N 	0.47271	0.38144	0.26815	-0.111
Mof_Cu	Cu	0.7205	0.37331	0.9128	0.826
Mof_Cu	Cu	0.69205	0.39996	0.97543	0.825
Mof_N 	N 	0.73353	0.39154	0.97281	-0.23
Mof_N 	N 	0.74548	0.37914	0.9488	-0.213
Mof_N 	N 	0.68459	0.35658	0.92807	-0.231
Mof_N 	N 	0.67447	0.36409	0.95514	-0.21
Mof_N 	N 	0.84201	0.39161	0.01677	-0.23
Mof_N 	N 	0.84033	0.36205	0.01573	-0.217
Mof_C 	C 	0.81936	0.4018	0.00436	0.085
Mof_H 	H 	0.8152	0.421	0.0019	-0.024
Mof_N 	N 	0.80296	0.3796	0.99569	-0.111
Mof_C 	C 	0.77194	0.37321	0.9545	0.09
Mof_H 	H 	0.7849	0.3648	0.9421	-0.012
Mof_N 	N 	0.60676	0.26847	0.93822	-0.22
Mof_N 	N 	0.62768	0.30954	0.93652	-0.111
Mof_N 	N 	0.58835	0.28825	0.92572	-0.234
Mof_N 	N 	0.64859	0.32989	0.93877	-0.11
Mof_C 	C 	0.65275	0.34811	0.96092	0.093
Mof_H 	H 	0.6418	0.3489	0.9774	-0.012
Mof_C 	C 	0.60136	0.31267	0.9251	0.092
Mof_H 	H 	0.5938	0.3295	0.918	-0.031
Mof_C 	C 	0.66867	0.33595	0.91872	0.089
Mof_H 	H 	0.6707	0.3268	0.9013	-0.018
Mof_C 	C 	0.75281	0.39231	0.99248	0.09
Mof_H 	H 	0.7503	0.3992	0.0109	-0.019
Mof_C 	C 	0.81645	0.35536	0.00334	0.091
Mof_H 	H 	0.8098	0.337	0.0003	-0.013
Mof_C 	C 	0.63009	0.2819	0.94479	0.088
Mof_H 	H 	0.6458	0.2739	0.9537	-0.011
Mof_N 	N 	0.77729	0.38144	0.98185	-0.111
Mof_Cu	Cu	0.7205	0.87331	0.4128	0.826
Mof_Cu	Cu	0.69205	0.89996	0.47543	0.825
Mof_N 	N 	0.73353	0.89154	0.47281	-0.23
Mof_N 	N 	0.74548	0.87914	0.4488	-0.213
Mof_N 	N 	0.68459	0.85658	0.42807	-0.231
Mof_N 	N 	0.67447	0.86409	0.45514	-0.21
Mof_N 	N 	0.84201	0.89161	0.51677	-0.23
Mof_N 	N 	0.84033	0.86205	0.51573	-0.217
Mof_C 	C 	0.81936	0.9018	0.50436	0.085
Mof_H 	H 	0.8152	0.921	0.5019	-0.024
Mof_N 	N 	0.80296	0.8796	0.49569	-0.111
Mof_C 	C 	0.77194	0.87321	0.4545	0.09
Mof_H 	H 	0.7849	0.8648	0.4421	-0.012
Mof_N 	N 	0.60676	0.76847	0.43822	-0.22
Mof_N 	N 	0.62768	0.80954	0.43652	-0.111
Mof_N 	N 	0.58835	0.78825	0.42572	-0.234
Mof_N 	N 	0.64859	0.82989	0.43877	-0.11
Mof_C 	C 	0.65275	0.84811	0.46092	0.093
Mof_H 	H 	0.6418	0.8489	0.4774	-0.012
Mof_C 	C 	0.60136	0.81267	0.4251	0.092
Mof_H 	H 	0.5938	0.8295	0.418	-0.031
Mof_C 	C 	0.66867	0.83595	0.41872	0.089
Mof_H 	H 	0.6707	0.8268	0.4013	-0.018
Mof_C 	C 	0.75281	0.89231	0.49248	0.09
Mof_H 	H 	0.7503	0.8992	0.5109	-0.019
Mof_C 	C 	0.81645	0.85536	0.50334	0.091
Mof_H 	H 	0.8098	0.837	0.5003	-0.013
Mof_C 	C 	0.63009	0.7819	0.44479	0.088
Mof_H 	H 	0.6458	0.7739	0.4537	-0.011
Mof_N 	N 	0.77729	0.88144	0.48185	-0.111
Mof_Cu	Cu	0.2205	0.37331	0.4128	0.826
Mof_Cu	Cu	0.19205	0.39996	0.47543	0.825
Mof_N 	N 	0.23353	0.39154	0.47281	-0.23
Mof_N 	N 	0.24548	0.37914	0.4488	-0.213
Mof_N 	N 	0.18459	0.35658	0.42807	-0.231
Mof_N 	N 	0.17447	0.36409	0.45514	-0.21
Mof_N 	N 	0.34201	0.39161	0.51677	-0.23
Mof_N 	N 	0.34033	0.36205	0.51573	-0.217
Mof_C 	C 	0.31936	0.4018	0.50436	0.085
Mof_H 	H 	0.3152	0.421	0.5019	-0.024
Mof_N 	N 	0.30296	0.3796	0.49569	-0.111
Mof_C 	C 	0.27194	0.37321	0.4545	0.09
Mof_H 	H 	0.2849	0.3648	0.4421	-0.012
Mof_N 	N 	0.10676	0.26847	0.43822	-0.22
Mof_N 	N 	0.12768	0.30954	0.43652	-0.111
Mof_N 	N 	0.08835	0.28825	0.42572	-0.234
Mof_N 	N 	0.14859	0.32989	0.43877	-0.11
Mof_C 	C 	0.15275	0.34811	0.46092	0.093
Mof_H 	H 	0.1418	0.3489	0.4774	-0.012
Mof_C 	C 	0.10136	0.31267	0.4251	0.092
Mof_H 	H 	0.0938	0.3295	0.418	-0.031
Mof_C 	C 	0.16867	0.33595	0.41872	0.089
Mof_H 	H 	0.1707	0.3268	0.4013	-0.018
Mof_C 	C 	0.25281	0.39231	0.49248	0.09
Mof_H 	H 	0.2503	0.3992	0.5109	-0.019
Mof_C 	C 	0.31645	0.35536	0.50334	0.091
Mof_H 	H 	0.3098	0.337	0.5003	-0.013
Mof_C 	C 	0.13009	0.2819	0.44479	0.088
Mof_H 	H 	0.1458	0.2739	0.4537	-0.011
Mof_N 	N 	0.27729	0.38144	0.48185	-0.111
Mof_Cu	Cu	0.2205	0.87331	0.9128	0.826
Mof_Cu	Cu	0.19205	0.89996	0.97543	0.825
Mof_N 	N 	0.23353	0.89154	0.97281	-0.23
Mof_N 	N 	0.24548	0.87914	0.9488	-0.213
Mof_N 	N 	0.18459	0.85658	0.92807	-0.231
Mof_N 	N 	0.17447	0.86409	0.95514	-0.21
Mof_N 	N 	0.34201	0.89161	0.01677	-0.23
Mof_N 	N 	0.34033	0.86205	0.01573	-0.217
Mof_C 	C 	0.31936	0.9018	0.00436	0.085
Mof_H 	H 	0.3152	0.921	0.0019	-0.024
Mof_N 	N 	0.30296	0.8796	0.99569	-0.111
Mof_C 	C 	0.27194	0.87321	0.9545	0.09
Mof_H 	H 	0.2849	0.8648	0.9421	-0.012
Mof_N 	N 	0.10676	0.76847	0.93822	-0.22
Mof_N 	N 	0.12768	0.80954	0.93652	-0.111
Mof_N 	N 	0.08835	0.78825	0.92572	-0.234
Mof_N 	N 	0.14859	0.82989	0.93877	-0.11
Mof_C 	C 	0.15275	0.84811	0.96092	0.093
Mof_H 	H 	0.1418	0.8489	0.9774	-0.012
Mof_C 	C 	0.10136	0.81267	0.9251	0.092
Mof_H 	H 	0.0938	0.8295	0.918	-0.031
Mof_C 	C 	0.16867	0.83595	0.91872	0.089
Mof_H 	H 	0.1707	0.8268	0.9013	-0.018
Mof_C 	C 	0.25281	0.89231	0.99248	0.09
Mof_H 	H 	0.2503	0.8992	0.0109	-0.019
Mof_C 	C 	0.31645	0.85536	0.00334	0.091
Mof_H 	H 	0.3098	0.837	0.0003	-0.013
Mof_C 	C 	0.13009	0.7819	0.94479	0.088
Mof_H 	H 	0.1458	0.7739	0.9537	-0.011
Mof_N 	N 	0.27729	0.88144	0.98185	-0.111
Mof_Cu	Cu	0.2205	0.87669	0.8372	0.826
Mof_Cu	Cu	0.19205	0.85004	0.77457	0.825
Mof_N 	N 	0.23353	0.85846	0.77719	-0.23
Mof_N 	N 	0.24548	0.87086	0.8012	-0.213
Mof_N 	N 	0.18459	0.89342	0.82193	-0.231
Mof_N 	N 	0.17447	0.88591	0.79486	-0.21
Mof_N 	N 	0.34201	0.85839	0.73323	-0.23
Mof_N 	N 	0.34033	0.88795	0.73427	-0.217
Mof_C 	C 	0.31936	0.8482	0.74564	0.085
Mof_H 	H 	0.3152	0.829	0.7481	-0.024
Mof_N 	N 	0.30296	0.8704	0.75431	-0.111
Mof_C 	C 	0.27194	0.87679	0.7955	0.09
Mof_H 	H 	0.2849	0.8852	0.8079	-0.012
Mof_N 	N 	0.10676	0.98153	0.81178	-0.22
Mof_N 	N 	0.12768	0.94046	0.81348	-0.111
Mof_N 	N 	0.08835	0.96175	0.82428	-0.234
Mof_N 	N 	0.14859	0.92011	0.81123	-0.11
Mof_C 	C 	0.15275	0.90189	0.78908	0.093
Mof_H 	H 	0.1418	0.9011	0.7726	-0.012
Mof_C 	C 	0.10136	0.93733	0.8249	0.092
Mof_H 	H 	0.0938	0.9205	0.832	-0.031
Mof_C 	C 	0.16867	0.91405	0.83128	0.089
Mof_H 	H 	0.1707	0.9232	0.8487	-0.018
Mof_C 	C 	0.25281	0.85769	0.75752	0.09
Mof_H 	H 	0.2503	0.8508	0.7391	-0.019
Mof_C 	C 	0.31645	0.89464	0.74666	0.091
Mof_H 	H 	0.3098	0.913	0.7497	-0.013
Mof_C 	C 	0.13009	0.9681	0.80521	0.088
Mof_H 	H 	0.1458	0.9761	0.7963	-0.011
Mof_N 	N 	0.27729	0.86856	0.76815	-0.111
Mof_Cu	Cu	0.2205	0.37669	0.3372	0.826
Mof_Cu	Cu	0.19205	0.35004	0.27457	0.825
Mof_N 	N 	0.23353	0.35846	0.27719	-0.23
Mof_N 	N 	0.24548	0.37086	0.3012	-0.213
Mof_N 	N 	0.18459	0.39342	0.32193	-0.231
Mof_N 	N 	0.17447	0.38591	0.29486	-0.21
Mof_N 	N 	0.34201	0.35839	0.23323	-0.23
Mof_N 	N 	0.34033	0.38795	0.23427	-0.217
Mof_C 	C 	0.31936	0.3482	0.24564	0.085
Mof_H 	H 	0.3152	0.329	0.2481	-0.024
Mof_N 	N 	0.30296	0.3704	0.25431	-0.111
Mof_C 	C 	0.27194	0.37679	0.2955	0.09
Mof_H 	H 	0.2849	0.3852	0.3079	-0.012
Mof_N 	N 	0.10676	0.48153	0.31178	-0.22
Mof_N 	N 	0.12768	0.44046	0.31348	-0.111
Mof_N 	N 	0.08835	0.46175	0.32428	-0.234
Mof_N 	N 	0.14859	0.42011	0.31123	-0.11
Mof_C 	C 	0.15275	0.40189	0.28908	0.093
Mof_H 	H 	0.1418	0.4011	0.2726	-0.012
Mof_C 	C 	0.10136	0.43733	0.3249	0.092
Mof_H 	H 	0.0938	0.4205	0.332	-0.031
Mof_C 	C 	0.16867	0.41405	0.33128	0.089
Mof_H 	H 	0.1707	0.4232	0.3487	-0.018
Mof_C 	C 	0.25281	0.35769	0.25752	0.09
Mof_H 	H 	0.2503	0.3508	0.2391	-0.019
Mof_C 	C 	0.31645	0.39464	0.24666	0.091
Mof_H 	H 	0.3098	0.413	0.2497	-0.013
Mof_C 	C 	0.13009	0.4681	0.30521	0.088
Mof_H 	H 	0.1458	0.4761	0.2963	-0.011
Mof_N 	N 	0.27729	0.36856	0.26815	-0.111
Mof_Cu	Cu	0.7205	0.87669	0.3372	0.826
Mof_Cu	Cu	0.69205	0.85004	0.27457	0.825
Mof_N 	N 	0.73353	0.85846	0.27719	-0.23
Mof_N 	N 	0.74548	0.87086	0.3012	-0.213
Mof_N 	N 	0.68459	0.89342	0.32193	-0.231
Mof_N 	N 	0.67447	0.88591	0.29486	-0.21
Mof_N 	N 	0.84201	0.85839	0.23323	-0.23
Mof_N 	N 	0.84033	0.88795	0.23427	-0.217
Mof_C 	C 	0.81936	0.8482	0.24564	0.085
Mof_H 	H 	0.8152	0.829	0.2481	-0.024
Mof_N 	N 	0.80296	0.8704	0.25431	-0.111
Mof_C 	C 	0.77194	0.87679	0.2955	0.09
Mof_H 	H 	0.7849	0.8852	0.3079	-0.012
Mof_N 	N 	0.60676	0.98153	0.31178	-0.22
Mof_N 	N 	0.62768	0.94046	0.31348	-0.111
Mof_N 	N 	0.58835	0.96175	0.32428	-0.234
Mof_N 	N 	0.64859	0.92011	0.31123	-0.11
Mof_C 	C 	0.65275	0.90189	0.28908	0.093
Mof_H 	H 	0.6418	0.9011	0.2726	-0.012
Mof_C 	C 	0.60136	0.93733	0.3249	0.092
Mof_H 	H 	0.5938	0.9205	0.332	-0.031
Mof_C 	C 	0.66867	0.91405	0.33128	0.089
Mof_H 	H 	0.6707	0.9232	0.3487	-0.018
Mof_C 	C 	0.75281	0.85769	0.25752	0.09
Mof_H 	H 	0.7503	0.8508	0.2391	-0.019
Mof_C 	C 	0.81645	0.89464	0.24666	0.091
Mof_H 	H 	0.8098	0.913	0.2497	-0.013
Mof_C 	C 	0.63009	0.9681	0.30521	0.088
Mof_H 	H 	0.6458	0.9761	0.2963	-0.011
Mof_N 	N 	0.77729	0.86856	0.26815	-0.111
Mof_Cu	Cu	0.7205	0.37669	0.8372	0.826
Mof_Cu	Cu	0.69205	0.35004	0.77457	0.825
Mof_N 	N 	0.73353	0.35846	0.77719	-0.23
Mof_N 	N 	0.74548	0.37086	0.8012	-0.213
Mof_N 	N 	0.68459	0.39342	0.82193	-0.231
Mof_N 	N 	0.67447	0.38591	0.79486	-0.21
Mof_N 	N 	0.84201	0.35839	0.73323	-0.23
Mof_N 	N 	0.84033	0.38795	0.73427	-0.217
Mof_C 	C 	0.81936	0.3482	0.74564	0.085
Mof_H 	H 	0.8152	0.329	0.7481	-0.024
Mof_N 	N 	0.80296	0.3704	0.75431	-0.111
Mof_C 	C 	0.77194	0.37679	0.7955	0.09
Mof_H 	H 	0.7849	0.3852	0.8079	-0.012
Mof_N 	N 	0.60676	0.48153	0.81178	-0.22
Mof_N 	N 	0.62768	0.44046	0.81348	-0.111
Mof_N 	N 	0.58835	0.46175	0.82428	-0.234
Mof_N 	N 	0.64859	0.42011	0.81123	-0.11
Mof_C 	C 	0.65275	0.40189	0.78908	0.093
Mof_H 	H 	0.6418	0.4011	0.7726	-0.012
Mof_C 	C 	0.60136	0.43733	0.8249	0.092
Mof_H 	H 	0.5938	0.4205	0.832	-0.031
Mof_C 	C 	0.66867	0.41405	0.83128	0.089
Mof_H 	H 	0.6707	0.4232	0.8487	-0.018
Mof_C 	C 	0.75281	0.35769	0.75752	0.09
Mof_H 	H 	0.7503	0.3508	0.7391	-0.019
Mof_C 	C 	0.81645	0.39464	0.74666	0.091
Mof_H 	H 	0.8098	0.413	0.7497	-0.013
Mof_C 	C 	0.63009	0.4681	0.80521	0.088
Mof_H 	H 	0.6458	0.4761	0.7963	-0.011
Mof_N 	N 	0.77729	0.36856	0.76815	-0.111
Mof_Cu	Cu	0.4128	0.52951	0.37669	0.826
Mof_Cu	Cu	0.47543	0.55795	0.35004	0.825
Mof_N 	N 	0.47281	0.51647	0.35846	-0.23
Mof_N 	N 	0.4488	0.50452	0.37086	-0.213
Mof_N 	N 	0.42807	0.56541	0.39342	-0.231
Mof_N 	N 	0.45514	0.57553	0.38591	-0.21
Mof_N 	N 	0.51677	0.40799	0.35839	-0.23
Mof_N 	N 	0.51573	0.40967	0.38795	-0.217
Mof_C 	C 	0.50436	0.43064	0.3482	0.085
Mof_H 	H 	0.5019	0.4348	0.329	-0.024
Mof_N 	N 	0.49569	0.44704	0.3704	-0.111
Mof_C 	C 	0.4545	0.47806	0.37679	0.09
Mof_H 	H 	0.4421	0.4651	0.3852	-0.012
Mof_N 	N 	0.43822	0.64324	0.48153	-0.22
Mof_N 	N 	0.43652	0.62232	0.44046	-0.111
Mof_N 	N 	0.42572	0.66165	0.46175	-0.234
Mof_N 	N 	0.43877	0.60141	0.42011	-0.11
Mof_C 	C 	0.46092	0.59725	0.40189	0.093
Mof_H 	H 	0.4774	0.6082	0.4011	-0.012
Mof_C 	C 	0.4251	0.64864	0.43733	0.092
Mof_H 	H 	0.418	0.6562	0.4205	-0.031
Mof_C 	C 	0.41872	0.58133	0.41405	0.089
Mof_H 	H 	0.4013	0.5793	0.4232	-0.018
Mof_C 	C 	0.49248	0.49719	0.35769	0.09
Mof_H 	H 	0.5109	0.4997	0.3508	-0.019
Mof_C 	C 	0.50334	0.43355	0.39464	0.091
Mof_H 	H 	0.5003	0.4402	0.413	-0.013
Mof_C 	C 	0.44479	0.61991	0.4681	0.088
Mof_H 	H 	0.4537	0.6042	0.4761	-0.011
Mof_N 	N 	0.48185	0.47271	0.36856	-0.111
Mof_Cu	Cu	0.4128	0.02951	0.87669	0.826
Mof_Cu	Cu	0.47543	0.05795	0.85004	0.825
Mof_N 	N 	0.47281	0.01647	0.85846	-0.23
Mof_N 	N 	0.4488	0.00452	0.87086	-0.213
Mof_N 	N 	0.42807	0.06541	0.89342	-0.231
Mof_N 	N 	0.45514	0.07553	0.88591	-0.21
Mof_N 	N 	0.51677	0.90799	0.85839	-0.23
Mof_N 	N 	0.51573	0.90967	0.88795	-0.217
Mof_C 	C 	0.50436	0.93064	0.8482	0.085
Mof_H 	H 	0.5019	0.9348	0.829	-0.024
Mof_N 	N 	0.49569	0.94704	0.8704	-0.111
Mof_C 	C 	0.4545	0.97806	0.87679	0.09
Mof_H 	H 	0.4421	0.9651	0.8852	-0.012
Mof_N 	N 	0.43822	0.14324	0.98153	-0.22
Mof_N 	N 	0.43652	0.12232	0.94046	-0.111
Mof_N 	N 	0.42572	0.16165	0.96175	-0.234
Mof_N 	N 	0.43877	0.10141	0.92011	-0.11
Mof_C 	C 	0.46092	0.09725	0.90189	0.093
Mof_H 	H 	0.4774	0.1082	0.9011	-0.012
Mof_C 	C 	0.4251	0.14864	0.93733	0.092
Mof_H 	H 	0.418	0.1562	0.9205	-0.031
Mof_C 	C 	0.41872	0.08133	0.91405	0.089
Mof_H 	H 	0.4013	0.0793	0.9232	-0.018
Mof_C 	C 	0.49248	0.99719	0.85769	0.09
Mof_H 	H 	0.5109	0.9997	0.8508	-0.019
Mof_C 	C 	0.50334	0.93355	0.89464	0.091
Mof_H 	H 	0.5003	0.9402	0.913	-0.013
Mof_C 	C 	0.44479	0.11991	0.9681	0.088
Mof_H 	H 	0.4537	0.1042	0.9761	-0.011
Mof_N 	N 	0.48185	0.97271	0.86856	-0.111
Mof_Cu	Cu	0.9128	0.52951	0.87669	0.826
Mof_Cu	Cu	0.97543	0.55795	0.85004	0.825
Mof_N 	N 	0.97281	0.51647	0.85846	-0.23
Mof_N 	N 	0.9488	0.50452	0.87086	-0.213
Mof_N 	N 	0.92807	0.56541	0.89342	-0.231
Mof_N 	N 	0.95514	0.57553	0.88591	-0.21
Mof_N 	N 	0.01677	0.40799	0.85839	-0.23
Mof_N 	N 	0.01573	0.40967	0.88795	-0.217
Mof_C 	C 	0.00436	0.43064	0.8482	0.085
Mof_H 	H 	0.0019	0.4348	0.829	-0.024
Mof_N 	N 	0.99569	0.44704	0.8704	-0.111
Mof_C 	C 	0.9545	0.47806	0.87679	0.09
Mof_H 	H 	0.9421	0.4651	0.8852	-0.012
Mof_N 	N 	0.93822	0.64324	0.98153	-0.22
Mof_N 	N 	0.93652	0.62232	0.94046	-0.111
Mof_N 	N 	0.92572	0.66165	0.96175	-0.234
Mof_N 	N 	0.93877	0.60141	0.92011	-0.11
Mof_C 	C 	0.96092	0.59725	0.90189	0.093
Mof_H 	H 	0.9774	0.6082	0.9011	-0.012
Mof_C 	C 	0.9251	0.64864	0.93733	0.092
Mof_H 	H 	0.918	0.6562	0.9205	-0.031
Mof_C 	C 	0.91872	0.58133	0.91405	0.089
Mof_H 	H 	0.9013	0.5793	0.9232	-0.018
Mof_C 	C 	0.99248	0.49719	0.85769	0.09
Mof_H 	H 	0.0109	0.4997	0.8508	-0.019
Mof_C 	C 	0.00334	0.43355	0.89464	0.091
Mof_H 	H 	0.0003	0.4402	0.913	-0.013
Mof_C 	C 	0.94479	0.61991	0.9681	0.088
Mof_H 	H 	0.9537	0.6042	0.9761	-0.011
Mof_N 	N 	0.98185	0.47271	0.86856	-0.111
Mof_Cu	Cu	0.9128	0.02951	0.37669	0.826
Mof_Cu	Cu	0.97543	0.05795	0.35004	0.825
Mof_N 	N 	0.97281	0.01647	0.35846	-0.23
Mof_N 	N 	0.9488	0.00452	0.37086	-0.213
Mof_N 	N 	0.92807	0.06541	0.39342	-0.231
Mof_N 	N 	0.95514	0.07553	0.38591	-0.21
Mof_N 	N 	0.01677	0.90799	0.35839	-0.23
Mof_N 	N 	0.01573	0.90967	0.38795	-0.217
Mof_C 	C 	0.00436	0.93064	0.3482	0.085
Mof_H 	H 	0.0019	0.9348	0.329	-0.024
Mof_N 	N 	0.99569	0.94704	0.3704	-0.111
Mof_C 	C 	0.9545	0.97806	0.37679	0.09
Mof_H 	H 	0.9421	0.9651	0.3852	-0.012
Mof_N 	N 	0.93822	0.14324	0.48153	-0.22
Mof_N 	N 	0.93652	0.12232	0.44046	-0.111
Mof_N 	N 	0.92572	0.16165	0.46175	-0.234
Mof_N 	N 	0.93877	0.10141	0.42011	-0.11
Mof_C 	C 	0.96092	0.09725	0.40189	0.093
Mof_H 	H 	0.9774	0.1082	0.4011	-0.012
Mof_C 	C 	0.9251	0.14864	0.43733	0.092
Mof_H 	H 	0.918	0.1562	0.4205	-0.031
Mof_C 	C 	0.91872	0.08133	0.41405	0.089
Mof_H 	H 	0.9013	0.0793	0.4232	-0.018
Mof_C 	C 	0.99248	0.99719	0.35769	0.09
Mof_H 	H 	0.0109	0.9997	0.3508	-0.019
Mof_C 	C 	0.00334	0.93355	0.39464	0.091
Mof_H 	H 	0.0003	0.9402	0.413	-0.013
Mof_C 	C 	0.94479	0.11991	0.4681	0.088
Mof_H 	H 	0.9537	0.1042	0.4761	-0.011
Mof_N 	N 	0.98185	0.97271	0.36856	-0.111
Mof_Cu	Cu	0.3372	0.02951	0.87331	0.826
Mof_Cu	Cu	0.27457	0.05795	0.89996	0.825
Mof_N 	N 	0.27719	0.01647	0.89154	-0.23
Mof_N 	N 	0.3012	0.00452	0.87914	-0.213
Mof_N 	N 	0.32193	0.06541	0.85658	-0.231
Mof_N 	N 	0.29486	0.07553	0.86409	-0.21
Mof_N 	N 	0.23323	0.90799	0.89161	-0.23
Mof_N 	N 	0.23427	0.90967	0.86205	-0.217
Mof_C 	C 	0.24564	0.93064	0.9018	0.085
Mof_H 	H 	0.2481	0.9348	0.921	-0.024
Mof_N 	N 	0.25431	0.94704	0.8796	-0.111
Mof_C 	C 	0.2955	0.97806	0.87321	0.09
Mof_H 	H 	0.3079	0.9651	0.8648	-0.012
Mof_N 	N 	0.31178	0.14324	0.76847	-0.22
Mof_N 	N 	0.31348	0.12232	0.80954	-0.111
Mof_N 	N 	0.32428	0.16165	0.78825	-0.234
Mof_N 	N 	0.31123	0.10141	0.82989	-0.11
Mof_C 	C 	0.28908	0.09725	0.84811	0.093
Mof_H 	H 	0.2726	0.1082	0.8489	-0.012
Mof_C 	C 	0.3249	0.14864	0.81267	0.092
Mof_H 	H 	0.332	0.1562	0.8295	-0.031
Mof_C 	C 	0.33128	0.08133	0.83595	0.089
Mof_H 	H 	0.3487	0.0793	0.8268	-0.018
Mof_C 	C 	0.25752	0.99719	0.89231	0.09
Mof_H 	H 	0.2391	0.9997	0.8992	-0.019
Mof_C 	C 	0.24666	0.93355	0.85536	0.091
Mof_H 	H 	0.2497	0.9402	0.837	-0.013
Mof_C 	C 	0.30521	0.11991	0.7819	0.088
Mof_H 	H 	0.2963	0.1042	0.7739	-0.011
Mof_N 	N 	0.26815	0.97271	0.88144	-0.111
Mof_Cu	Cu	0.3372	0.52951	0.37331	0.826
Mof_Cu	Cu	0.27457	0.55795	0.39996	0.825
Mof_N 	N 	0.27719	0.51647	0.39154	-0.23
Mof_N 	N 	0.3012	0.50452	0.37914	-0.213
Mof_N 	N 	0.32193	0.56541	0.35658	-0.231
Mof_N 	N 	0.29486	0.57553	0.36409	-0.21
Mof_N 	N 	0.23323	0.40799	0.39161	-0.23
Mof_N 	N 	0.23427	0.40967	0.36205	-0.217
Mof_C 	C 	0.24564	0.43064	0.4018	0.085
Mof_H 	H 	0.2481	0.4348	0.421	-0.024
Mof_N 	N 	0.25431	0.44704	0.3796	-0.111
Mof_C 	C 	0.2955	0.47806	0.37321	0.09
Mof_H 	H 	0.3079	0.4651	0.3648	-0.012
Mof_N 	N 	0.31178	0.64324	0.26847	-0.22
Mof_N 	N 	0.31348	0.62232	0.30954	-0.111
Mof_N 	N 	0.32428	0.66165	0.28825	-0.234
Mof_N 	N 	0.31123	0.60141	0.32989	-0.11
Mof_C 	C 	0.28908	0.59725	0.34811	0.093
Mof_H 	H 	0.2726	0.6082	0.3489	-0.012
Mof_C 	C 	0.3249	0.64864	0.31267	0.092
Mof_H 	H 	0.332	0.6562	0.3295	-0.031
Mof_C 	C 	0.33128	0.58133	0.33595	0.089
Mof_H 	H 	0.3487	0.5793	0.3268	-0.018
Mof_C 	C 	0.25752	0.49719	0.39231	0.09
Mof_H 	H 	0.2391	0.4997	0.3992	-0.019
Mof_C 	C 	0.24666	0.43355	0.35536	0.091
Mof_H 	H 	0.2497	0.4402	0.337	-0.013
Mof_C 	C 	0.30521	0.61991	0.2819	0.088
Mof_H 	H 	0.2963	0.6042	0.2739	-0.011
Mof_N 	N 	0.26815	0.47271	0.38144	-0.111
Mof_Cu	Cu	0.8372	0.02951	0.37331	0.826
Mof_Cu	Cu	0.77457	0.05795	0.39996	0.825
Mof_N 	N 	0.77719	0.01647	0.39154	-0.23
Mof_N 	N 	0.8012	0.00452	0.37914	-0.213
Mof_N 	N 	0.82193	0.06541	0.35658	-0.231
Mof_N 	N 	0.79486	0.07553	0.36409	-0.21
Mof_N 	N 	0.73323	0.90799	0.39161	-0.23
Mof_N 	N 	0.73427	0.90967	0.36205	-0.217
Mof_C 	C 	0.74564	0.93064	0.4018	0.085
Mof_H 	H 	0.7481	0.9348	0.421	-0.024
Mof_N 	N 	0.75431	0.94704	0.3796	-0.111
Mof_C 	C 	0.7955	0.97806	0.37321	0.09
Mof_H 	H 	0.8079	0.9651	0.3648	-0.012
Mof_N 	N 	0.81178	0.14324	0.26847	-0.22
Mof_N 	N 	0.81348	0.12232	0.30954	-0.111
Mof_N 	N 	0.82428	0.16165	0.28825	-0.234
Mof_N 	N 	0.81123	0.10141	0.32989	-0.11
Mof_C 	C 	0.78908	0.09725	0.34811	0.093
Mof_H 	H 	0.7726	0.1082	0.3489	-0.012
Mof_C 	C 	0.8249	0.14864	0.31267	0.092
Mof_H 	H 	0.832	0.1562	0.3295	-0.031
Mof_C 	C 	0.83128	0.08133	0.33595	0.089
Mof_H 	H 	0.8487	0.0793	0.3268	-0.018
Mof_C 	C 	0.75752	0.99719	0.39231	0.09
Mof_H 	H 	0.7391	0.9997	0.3992	-0.019
Mof_C 	C 	0.74666	0.93355	0.35536	0.091
Mof_H 	H 	0.7497	0.9402	0.337	-0.013
Mof_C 	C 	0.80521	0.11991	0.2819	0.088
Mof_H 	H 	0.7963	0.1042	0.2739	-0.011
Mof_N 	N 	0.76815	0.97271	0.38144	-0.111
Mof_Cu	Cu	0.8372	0.52951	0.87331	0.826
Mof_Cu	Cu	0.77457	0.55795	0.89996	0.825
Mof_N 	N 	0.77719	0.51647	0.89154	-0.23
Mof_N 	N 	0.8012	0.50452	0.87914	-0.213
Mof_N 	N 	0.82193	0.56541	0.85658	-0.231
Mof_N 	N 	0.79486	0.57553	0.86409	-0.21
Mof_N 	N 	0.73323	0.40799	0.89161	-0.23
Mof_N 	N 	0.73427	0.40967	0.86205	-0.217
Mof_C 	C 	0.74564	0.43064	0.9018	0.085
Mof_H 	H 	0.7481	0.4348	0.921	-0.024
Mof_N 	N 	0.75431	0.44704	0.8796	-0.111
Mof_C 	C 	0.7955	0.47806	0.87321	0.09
Mof_H 	H 	0.8079	0.4651	0.8648	-0.012
Mof_N 	N 	0.81178	0.64324	0.76847	-0.22
Mof_N 	N 	0.81348	0.62232	0.80954	-0.111
Mof_N 	N 	0.82428	0.66165	0.78825	-0.234
Mof_N 	N 	0.81123	0.60141	0.82989	-0.11
Mof_C 	C 	0.78908	0.59725	0.84811	0.093
Mof_H 	H 	0.7726	0.6082	0.8489	-0.012
Mof_C 	C 	0.8249	0.64864	0.81267	0.092
Mof_H 	H 	0.832	0.6562	0.8295	-0.031
Mof_C 	C 	0.83128	0.58133	0.83595	0.089
Mof_H 	H 	0.8487	0.5793	0.8268	-0.018
Mof_C 	C 	0.75752	0.49719	0.89231	0.09
Mof_H 	H 	0.7391	0.4997	0.8992	-0.019
Mof_C 	C 	0.74666	0.43355	0.85536	0.091
Mof_H 	H 	0.7497	0.4402	0.837	-0.013
Mof_C 	C 	0.80521	0.61991	0.7819	0.088
Mof_H 	H 	0.7963	0.6042	0.7739	-0.011
Mof_N 	N 	0.76815	0.47271	0.88144	-0.111
Mof_Cu	Cu	0.9128	0.7205	0.37331	0.826
Mof_Cu	Cu	0.97543	0.69205	0.39996	0.825
Mof_N 	N 	0.97281	0.73353	0.39154	-0.23
Mof_N 	N 	0.9488	0.74548	0.37914	-0.213
Mof_N 	N 	0.92807	0.68459	0.35658	-0.231
Mof_N 	N 	0.95514	0.67447	0.36409	-0.21
Mof_N 	N 	0.01677	0.84201	0.39161	-0.23
Mof_N 	N 	0.01573	0.84033	0.36205	-0.217
Mof_C 	C 	0.00436	0.81936	0.4018	0.085
Mof_H 	H 	0.0019	0.8152	0.421	-0.024
Mof_N 	N 	0.99569	0.80296	0.3796	-0.111
Mof_C 	C 	0.9545	0.77194	0.37321	0.09
Mof_H 	H 	0.9421	0.7849	0.3648	-0.012
Mof_N 	N 	0.93822	0.60676	0.26847	-0.22
Mof_N 	N 	0.93652	0.62768	0.30954	-0.111
Mof_N 	N 	0.92572	0.58835	0.28825	-0.234
Mof_N 	N 	0.93877	0.64859	0.32989	-0.11
Mof_C 	C 	0.96092	0.65275	0.34811	0.093
Mof_H 	H 	0.9774	0.6418	0.3489	-0.012
Mof_C 	C 	0.9251	0.60136	0.31267	0.092
Mof_H 	H 	0.918	0.5938	0.3295	-0.031
Mof_C 	C 	0.91872	0.66867	0.33595	0.089
Mof_H 	H 	0.9013	0.6707	0.3268	-0.018
Mof_C 	C 	0.99248	0.75281	0.39231	0.09
Mof_H 	H 	0.0109	0.7503	0.3992	-0.019
Mof_C 	C 	0.00334	0.81645	0.35536	0.091
Mof_H 	H 	0.0003	0.8098	0.337	-0.013
Mof_C 	C 	0.94479	0.63009	0.2819	0.088
Mof_H 	H 	0.9537	0.6458	0.2739	-0.011
Mof_N 	N 	0.98185	0.77729	0.38144	-0.111
Mof_Cu	Cu	0.9128	0.2205	0.87331	0.826
Mof_Cu	Cu	0.97543	0.19205	0.89996	0.825
Mof_N 	N 	0.97281	0.23353	0.89154	-0.23
Mof_N 	N 	0.9488	0.24548	0.87914	-0.213
Mof_N 	N 	0.92807	0.18459	0.85658	-0.231
Mof_N 	N 	0.95514	0.17447	0.86409	-0.21
Mof_N 	N 	0.01677	0.34201	0.89161	-0.23
Mof_N 	N 	0.01573	0.34033	0.86205	-0.217
Mof_C 	C 	0.00436	0.31936	0.9018	0.085
Mof_H 	H 	0.0019	0.3152	0.921	-0.024
Mof_N 	N 	0.99569	0.30296	0.8796	-0.111
Mof_C 	C 	0.9545	0.27194	0.87321	0.09
Mof_H 	H 	0.9421	0.2849	0.8648	-0.012
Mof_N 	N 	0.93822	0.10676	0.76847	-0.22
Mof_N 	N 	0.93652	0.12768	0.80954	-0.111
Mof_N 	N 	0.92572	0.08835	0.78825	-0.234
Mof_N 	N 	0.93877	0.14859	0.82989	-0.11
Mof_C 	C 	0.96092	0.15275	0.84811	0.093
Mof_H 	H 	0.9774	0.1418	0.8489	-0.012
Mof_C 	C 	0.9251	0.10136	0.81267	0.092
Mof_H 	H 	0.918	0.0938	0.8295	-0.031
Mof_C 	C 	0.91872	0.16867	0.83595	0.089
Mof_H 	H 	0.9013	0.1707	0.8268	-0.018
Mof_C 	C 	0.99248	0.25281	0.89231	0.09
Mof_H 	H 	0.0109	0.2503	0.8992	-0.019
Mof_C 	C 	0.00334	0.31645	0.85536	0.091
Mof_H 	H 	0.0003	0.3098	0.837	-0.013
Mof_C 	C 	0.94479	0.13009	0.7819	0.088
Mof_H 	H 	0.9537	0.1458	0.7739	-0.011
Mof_N 	N 	0.98185	0.27729	0.88144	-0.111
Mof_Cu	Cu	0.4128	0.7205	0.87331	0.826
Mof_Cu	Cu	0.47543	0.69205	0.89996	0.825
Mof_N 	N 	0.47281	0.73353	0.89154	-0.23
Mof_N 	N 	0.4488	0.74548	0.87914	-0.213
Mof_N 	N 	0.42807	0.68459	0.85658	-0.231
Mof_N 	N 	0.45514	0.67447	0.86409	-0.21
Mof_N 	N 	0.51677	0.84201	0.89161	-0.23
Mof_N 	N 	0.51573	0.84033	0.86205	-0.217
Mof_C 	C 	0.50436	0.81936	0.9018	0.085
Mof_H 	H 	0.5019	0.8152	0.921	-0.024
Mof_N 	N 	0.49569	0.80296	0.8796	-0.111
Mof_C 	C 	0.4545	0.77194	0.87321	0.09
Mof_H 	H 	0.4421	0.7849	0.8648	-0.012
Mof_N 	N 	0.43822	0.60676	0.76847	-0.22
Mof_N 	N 	0.43652	0.62768	0.80954	-0.111
Mof_N 	N 	0.42572	0.58835	0.78825	-0.234
Mof_N 	N 	0.43877	0.64859	0.82989	-0.11
Mof_C 	C 	0.46092	0.65275	0.84811	0.093
Mof_H 	H 	0.4774	0.6418	0.8489	-0.012
Mof_C 	C 	0.4251	0.60136	0.81267	0.092
Mof_H 	H 	0.418	0.5938	0.8295	-0.031
Mof_C 	C 	0.41872	0.66867	0.83595	0.089
Mof_H 	H 	0.4013	0.6707	0.8268	-0.018
Mof_C 	C 	0.49248	0.75281	0.89231	0.09
Mof_H 	H 	0.5109	0.7503	0.8992	-0.019
Mof_C 	C 	0.50334	0.81645	0.85536	0.091
Mof_H 	H 	0.5003	0.8098	0.837	-0.013
Mof_C 	C 	0.44479	0.63009	0.7819	0.088
Mof_H 	H 	0.4537	0.6458	0.7739	-0.011
Mof_N 	N 	0.48185	0.77729	0.88144	-0.111
Mof_Cu	Cu	0.4128	0.2205	0.37331	0.826
Mof_Cu	Cu	0.47543	0.19205	0.39996	0.825
Mof_N 	N 	0.47281	0.23353	0.39154	-0.23
Mof_N 	N 	0.4488	0.24548	0.37914	-0.213
Mof_N 	N 	0.42807	0.18459	0.35658	-0.231
Mof_N 	N 	0.45514	0.17447	0.36409	-0.21
Mof_N 	N 	0.51677	0.34201	0.39161	-0.23
Mof_N 	N 	0.51573	0.34033	0.36205	-0.217
Mof_C 	C 	0.50436	0.31936	0.4018	0.085
Mof_H 	H 	0.5019	0.3152	0.421	-0.024
Mof_N 	N 	0.49569	0.30296	0.3796	-0.111
Mof_C 	C 	0.4545	0.27194	0.37321	0.09
Mof_H 	H 	0.4421	0.2849	0.3648	-0.012
Mof_N 	N 	0.43822	0.10676	0.26847	-0.22
Mof_N 	N 	0.43652	0.12768	0.30954	-0.111
Mof_N 	N 	0.42572	0.08835	0.28825	-0.234
Mof_N 	N 	0.43877	0.14859	0.32989	-0.11
Mof_C 	C 	0.46092	0.15275	0.34811	0.093
Mof_H 	H 	0.4774	0.1418	0.3489	-0.012
Mof_C 	C 	0.4251	0.10136	0.31267	0.092
Mof_H 	H 	0.418	0.0938	0.3295	-0.031
Mof_C 	C 	0.41872	0.16867	0.33595	0.089
Mof_H 	H 	0.4013	0.1707	0.3268	-0.018
Mof_C 	C 	0.49248	0.25281	0.39231	0.09
Mof_H 	H 	0.5109	0.2503	0.3992	-0.019
Mof_C 	C 	0.50334	0.31645	0.35536	0.091
Mof_H 	H 	0.5003	0.3098	0.337	-0.013
Mof_C 	C 	0.44479	0.13009	0.2819	0.088
Mof_H 	H 	0.4537	0.1458	0.2739	-0.011
Mof_N 	N 	0.48185	0.27729	0.38144	-0.111
Mof_Cu	Cu	0.8372	0.2205	0.87669	0.826
Mof_Cu	Cu	0.77457	0.19205	0.85004	0.825
Mof_N 	N 	0.77719	0.23353	0.85846	-0.23
Mof_N 	N 	0.8012	0.24548	0.87086	-0.213
Mof_N 	N 	0.82193	0.18459	0.89342	-0.231
Mof_N 	N 	0.79486	0.17447	0.88591	-0.21
Mof_N 	N 	0.73323	0.34201	0.85839	-0.23
Mof_N 	N 	0.73427	0.34033	0.88795	-0.217
Mof_C 	C 	0.74564	0.31936	0.8482	0.085
Mof_H 	H 	0.7481	0.3152	0.829	-0.024
Mof_N 	N 	0.75431	0.30296	0.8704	-0.111
Mof_C 	C 	0.7955	0.27194	0.87679	0.09
Mof_H 	H 	0.8079	0.2849	0.8852	-0.012
Mof_N 	N 	0.81178	0.10676	0.98153	-0.22
Mof_N 	N 	0.81348	0.12768	0.94046	-0.111
Mof_N 	N 	0.82428	0.08835	0.96175	-0.234
Mof_N 	N 	0.81123	0.14859	0.92011	-0.11
Mof_C 	C 	0.78908	0.15275	0.90189	0.093
Mof_H 	H 	0.7726	0.1418	0.9011	-0.012
Mof_C 	C 	0.8249	0.10136	0.93733	0.092
Mof_H 	H 	0.832	0.0938	0.9205	-0.031
Mof_C 	C 	0.83128	0.16867	0.91405	0.089
Mof_H 	H 	0.8487	0.1707	0.9232	-0.018
Mof_C 	C 	0.75752	0.25281	0.85769	0.09
Mof_H 	H 	0.7391	0.2503	0.8508	-0.019
Mof_C 	C 	0.74666	0.31645	0.89464	0.091
Mof_H 	H 	0.7497	0.3098	0.913	-0.013
Mof_C 	C 	0.80521	0.13009	0.9681	0.088
Mof_H 	H 	0.7963	0.1458	0.9761	-0.011
Mof_N 	N 	0.76815	0.27729	0.86856	-0.111
Mof_Cu	Cu	0.8372	0.7205	0.37669	0.826
Mof_Cu	Cu	0.77457	0.69205	0.35004	0.825
Mof_N 	N 	0.77719	0.73353	0.35846	-0.23
Mof_N 	N 	0.8012	0.74548	0.37086	-0.213
Mof_N 	N 	0.82193	0.68459	0.39342	-0.231
Mof_N 	N 	0.79486	0.67447	0.38591	-0.21
Mof_N 	N 	0.73323	0.84201	0.35839	-0.23
Mof_N 	N 	0.73427	0.84033	0.38795	-0.217
Mof_C 	C 	0.74564	0.81936	0.3482	0.085
Mof_H 	H 	0.7481	0.8152	0.329	-0.024
Mof_N 	N 	0.75431	0.80296	0.3704	-0.111
Mof_C 	C 	0.7955	0.77194	0.37679	0.09
Mof_H 	H 	0.8079	0.7849	0.3852	-0.012
Mof_N 	N 	0.81178	0.60676	0.48153	-0.22
Mof_N 	N 	0.81348	0.62768	0.44046	-0.111
Mof_N 	N 	0.82428	0.58835	0.46175	-0.234
Mof_N 	N 	0.81123	0.64859	0.42011	-0.11
Mof_C 	C 	0.78908	0.65275	0.40189	0.093
Mof_H 	H 	0.7726	0.6418	0.4011	-0.012
Mof_C 	C 	0.8249	0.60136	0.43733	0.092
Mof_H 	H 	0.832	0.5938	0.4205	-0.031
Mof_C 	C 	0.83128	0.66867	0.41405	0.089
Mof_H 	H 	0.8487	0.6707	0.4232	-0.018
Mof_C 	C 	0.75752	0.75281	0.35769	0.09
Mof_H 	H 	0.7391	0.7503	0.3508	-0.019
Mof_C 	C 	0.74666	0.81645	0.39464	0.091
Mof_H 	H 	0.7497	0.8098	0.413	-0.013
Mof_C 	C 	0.80521	0.63009	0.4681	0.088
Mof_H 	H 	0.7963	0.6458	0.4761	-0.011
Mof_N 	N 	0.76815	0.77729	0.36856	-0.111
Mof_Cu	Cu	0.3372	0.2205	0.37669	0.826
Mof_Cu	Cu	0.27457	0.19205	0.35004	0.825
Mof_N 	N 	0.27719	0.23353	0.35846	-0.23
Mof_N 	N 	0.3012	0.24548	0.37086	-0.213
Mof_N 	N 	0.32193	0.18459	0.39342	-0.231
Mof_N 	N 	0.29486	0.17447	0.38591	-0.21
Mof_N 	N 	0.23323	0.34201	0.35839	-0.23
Mof_N 	N 	0.23427	0.34033	0.38795	-0.217
Mof_C 	C 	0.24564	0.31936	0.3482	0.085
Mof_H 	H 	0.2481	0.3152	0.329	-0.024
Mof_N 	N 	0.25431	0.30296	0.3704	-0.111
Mof_C 	C 	0.2955	0.27194	0.37679	0.09
Mof_H 	H 	0.3079	0.2849	0.3852	-0.012
Mof_N 	N 	0.31178	0.10676	0.48153	-0.22
Mof_N 	N 	0.31348	0.12768	0.44046	-0.111
Mof_N 	N 	0.32428	0.08835	0.46175	-0.234
Mof_N 	N 	0.31123	0.14859	0.42011	-0.11
Mof_C 	C 	0.28908	0.15275	0.40189	0.093
Mof_H 	H 	0.2726	0.1418	0.4011	-0.012
Mof_C 	C 	0.3249	0.10136	0.43733	0.092
Mof_H 	H 	0.332	0.0938	0.4205	-0.031
Mof_C 	C 	0.33128	0.16867	0.41405	0.089
Mof_H 	H 	0.3487	0.1707	0.4232	-0.018
Mof_C 	C 	0.25752	0.25281	0.35769	0.09
Mof_H 	H 	0.2391	0.2503	0.3508	-0.019
Mof_C 	C 	0.24666	0.31645	0.39464	0.091
Mof_H 	H 	0.2497	0.3098	0.413	-0.013
Mof_C 	C 	0.30521	0.13009	0.4681	0.088
Mof_H 	H 	0.2963	0.1458	0.4761	-0.011
Mof_N 	N 	0.26815	0.27729	0.36856	-0.111
Mof_Cu	Cu	0.3372	0.7205	0.87669	0.826
Mof_Cu	Cu	0.27457	0.69205	0.85004	0.825
Mof_N 	N 	0.27719	0.73353	0.85846	-0.23
Mof_N 	N 	0.3012	0.74548	0.87086	-0.213
Mof_N 	N 	0.32193	0.68459	0.89342	-0.231
Mof_N 	N 	0.29486	0.67447	0.88591	-0.21
Mof_N 	N 	0.23323	0.84201	0.85839	-0.23
Mof_N 	N 	0.23427	0.84033	0.88795	-0.217
Mof_C 	C 	0.24564	0.81936	0.8482	0.085
Mof_H 	H 	0.2481	0.8152	0.829	-0.024
Mof_N 	N 	0.25431	0.80296	0.8704	-0.111
Mof_C 	C 	0.2955	0.77194	0.87679	0.09
Mof_H 	H 	0.3079	0.7849	0.8852	-0.012
Mof_N 	N 	0.31178	0.60676	0.98153	-0.22
Mof_N 	N 	0.31348	0.62768	0.94046	-0.111
Mof_N 	N 	0.32428	0.58835	0.96175	-0.234
Mof_N 	N 	0.31123	0.64859	0.92011	-0.11
Mof_C 	C 	0.28908	0.65275	0.90189	0.093
Mof_H 	H 	0.2726	0.6418	0.9011	-0.012
Mof_C 	C 	0.3249	0.60136	0.93733	0.092
Mof_H 	H 	0.332	0.5938	0.9205	-0.031
Mof_C 	C 	0.33128	0.66867	0.91405	0.089
Mof_H 	H 	0.3487	0.6707	0.9232	-0.018
Mof_C 	C 	0.25752	0.75281	0.85769	0.09
Mof_H 	H 	0.2391	0.7503	0.8508	-0.019
Mof_C 	C 	0.24666	0.81645	0.89464	0.091
Mof_H 	H 	0.2497	0.8098	0.913	-0.013
Mof_C 	C 	0.30521	0.63009	0.9681	0.088
Mof_H 	H 	0.2963	0.6458	0.9761	-0.011
Mof_N 	N 	0.26815	0.77729	0.86856	-0.111
Mof_Cu	Cu	0.1628	0.62669	0.4705	0.826
Mof_Cu	Cu	0.22543	0.60004	0.44205	0.825
Mof_N 	N 	0.22281	0.60846	0.48353	-0.23
Mof_N 	N 	0.1988	0.62086	0.49548	-0.213
Mof_N 	N 	0.17807	0.64342	0.43459	-0.231
Mof_N 	N 	0.20514	0.63591	0.42447	-0.21
Mof_N 	N 	0.26677	0.60839	0.59201	-0.23
Mof_N 	N 	0.26573	0.63795	0.59033	-0.217
Mof_C 	C 	0.25436	0.5982	0.56936	0.085
Mof_H 	H 	0.2519	0.579	0.5652	-0.024
Mof_N 	N 	0.24569	0.6204	0.55296	-0.111
Mof_C 	C 	0.2045	0.62679	0.52194	0.09
Mof_H 	H 	0.1921	0.6352	0.5349	-0.012
Mof_N 	N 	0.18822	0.73153	0.35676	-0.22
Mof_N 	N 	0.18652	0.69046	0.37768	-0.111
Mof_N 	N 	0.17572	0.71175	0.33835	-0.234
Mof_N 	N 	0.18877	0.67011	0.39859	-0.11
Mof_C 	C 	0.21092	0.65189	0.40275	0.093
Mof_H 	H 	0.2274	0.6511	0.3918	-0.012
Mof_C 	C 	0.1751	0.68733	0.35136	0.092
Mof_H 	H 	0.168	0.6705	0.3438	-0.031
Mof_C 	C 	0.16872	0.66405	0.41867	0.089
Mof_H 	H 	0.1513	0.6732	0.4207	-0.018
Mof_C 	C 	0.24248	0.60769	0.50281	0.09
Mof_H 	H 	0.2609	0.6008	0.5003	-0.019
Mof_C 	C 	0.25334	0.64464	0.56645	0.091
Mof_H 	H 	0.2503	0.663	0.5598	-0.013
Mof_C 	C 	0.19479	0.7181	0.38009	0.088
Mof_H 	H 	0.2037	0.7261	0.3958	-0.011
Mof_N 	N 	0.23185	0.61856	0.52729	-0.111
Mof_Cu	Cu	0.1628	0.12669	0.9705	0.826
Mof_Cu	Cu	0.22543	0.10004	0.94205	0.825
Mof_N 	N 	0.22281	0.10846	0.98353	-0.23
Mof_N 	N 	0.1988	0.12086	0.99548	-0.213
Mof_N 	N 	0.17807	0.14342	0.93459	-0.231
Mof_N 	N 	0.20514	0.13591	0.92447	-0.21
Mof_N 	N 	0.26677	0.10839	0.09201	-0.23
Mof_N 	N 	0.26573	0.13795	0.09033	-0.217
Mof_C 	C 	0.25436	0.0982	0.06936	0.085
Mof_H 	H 	0.2519	0.079	0.0652	-0.024
Mof_N 	N 	0.24569	0.1204	0.05296	-0.111
Mof_C 	C 	0.2045	0.12679	0.02194	0.09
Mof_H 	H 	0.1921	0.1352	0.0349	-0.012
Mof_N 	N 	0.18822	0.23153	0.85676	-0.22
Mof_N 	N 	0.18652	0.19046	0.87768	-0.111
Mof_N 	N 	0.17572	0.21175	0.83835	-0.234
Mof_N 	N 	0.18877	0.17011	0.89859	-0.11
Mof_C 	C 	0.21092	0.15189	0.90275	0.093
Mof_H 	H 	0.2274	0.1511	0.8918	-0.012
Mof_C 	C 	0.1751	0.18733	0.85136	0.092
Mof_H 	H 	0.168	0.1705	0.8438	-0.031
Mof_C 	C 	0.16872	0.16405	0.91867	0.089
Mof_H 	H 	0.1513	0.1732	0.9207	-0.018
Mof_C 	C 	0.24248	0.10769	0.00281	0.09
Mof_H 	H 	0.2609	0.1008	0.0003	-0.019
Mof_C 	C 	0.25334	0.14464	0.06645	0.091
Mof_H 	H 	0.2503	0.163	0.0598	-0.013
Mof_C 	C 	0.19479	0.2181	0.88009	0.088
Mof_H 	H 	0.2037	0.2261	0.8958	-0.011
Mof_N 	N 	0.23185	0.11856	0.02729	-0.111
Mof_Cu	Cu	0.6628	0.62669	0.9705	0.826
Mof_Cu	Cu	0.72543	0.60004	0.94205	0.825
Mof_N 	N 	0.72281	0.60846	0.98353	-0.23
Mof_N 	N 	0.6988	0.62086	0.99548	-0.213
Mof_N 	N 	0.67807	0.64342	0.93459	-0.231
Mof_N 	N 	0.70514	0.63591	0.92447	-0.21
Mof_N 	N 	0.76677	0.60839	0.09201	-0.23
Mof_N 	N 	0.76573	0.63795	0.09033	-0.217
Mof_C 	C 	0.75436	0.5982	0.06936	0.085
Mof_H 	H 	0.7519	0.579	0.0652	-0.024
Mof_N 	N 	0.74569	0.6204	0.05296	-0.111
Mof_C 	C 	0.7045	0.62679	0.02194	0.09
Mof_H 	H 	0.6921	0.6352	0.0349	-0.012
Mof_N 	N 	0.68822	0.73153	0.85676	-0.22
Mof_N 	N 	0.68652	0.69046	0.87768	-0.111
Mof_N 	N 	0.67572	0.71175	0.83835	-0.234
Mof_N 	N 	0.68877	0.67011	0.89859	-0.11
Mof_C 	C 	0.71092	0.65189	0.90275	0.093
Mof_H 	H 	0.7274	0.6511	0.8918	-0.012
Mof_C 	C 	0.6751	0.68733	0.85136	0.092
Mof_H 	H 	0.668	0.6705	0.8438	-0.031
Mof_C 	C 	0.66872	0.66405	0.91867	0.089
Mof_H 	H 	0.6513	0.6732	0.9207	-0.018
Mof_C 	C 	0.74248	0.60769	0.00281	0.09
Mof_H 	H 	0.7609	0.6008	0.0003	-0.019
Mof_C 	C 	0.75334	0.64464	0.06645	0.091
Mof_H 	H 	0.7503	0.663	0.0598	-0.013
Mof_C 	C 	0.69479	0.7181	0.88009	0.088
Mof_H 	H 	0.7037	0.7261	0.8958	-0.011
Mof_N 	N 	0.73185	0.61856	0.02729	-0.111
Mof_Cu	Cu	0.6628	0.12669	0.4705	0.826
Mof_Cu	Cu	0.72543	0.10004	0.44205	0.825
Mof_N 	N 	0.72281	0.10846	0.48353	-0.23
Mof_N 	N 	0.6988	0.12086	0.49548	-0.213
Mof_N 	N 	0.67807	0.14342	0.43459	-0.231
Mof_N 	N 	0.70514	0.13591	0.42447	-0.21
Mof_N 	N 	0.76677	0.10839	0.59201	-0.23
Mof_N 	N 	0.76573	0.13795	0.59033	-0.217
Mof_C 	C 	0.75436	0.0982	0.56936	0.085
Mof_H 	H 	0.7519	0.079	0.5652	-0.024
Mof_N 	N 	0.74569	0.1204	0.55296	-0.111
Mof_C 	C 	0.7045	0.12679	0.52194	0.09
Mof_H 	H 	0.6921	0.1352	0.5349	-0.012
Mof_N 	N 	0.68822	0.23153	0.35676	-0.22
Mof_N 	N 	0.68652	0.19046	0.37768	-0.111
Mof_N 	N 	0.67572	0.21175	0.33835	-0.234
Mof_N 	N 	0.68877	0.17011	0.39859	-0.11
Mof_C 	C 	0.71092	0.15189	0.40275	0.093
Mof_H 	H 	0.7274	0.1511	0.3918	-0.012
Mof_C 	C 	0.6751	0.18733	0.35136	0.092
Mof_H 	H 	0.668	0.1705	0.3438	-0.031
Mof_C 	C 	0.66872	0.16405	0.41867	0.089
Mof_H 	H 	0.6513	0.1732	0.4207	-0.018
Mof_C 	C 	0.74248	0.10769	0.50281	0.09
Mof_H 	H 	0.7609	0.1008	0.5003	-0.019
Mof_C 	C 	0.75334	0.14464	0.56645	0.091
Mof_H 	H 	0.7503	0.163	0.5598	-0.013
Mof_C 	C 	0.69479	0.2181	0.38009	0.088
Mof_H 	H 	0.7037	0.2261	0.3958	-0.011
Mof_N 	N 	0.73185	0.11856	0.52729	-0.111
Mof_Cu	Cu	0.0872	0.12331	0.9705	0.826
Mof_Cu	Cu	0.02457	0.14996	0.94205	0.825
Mof_N 	N 	0.02719	0.14154	0.98353	-0.23
Mof_N 	N 	0.0512	0.12914	0.99548	-0.213
Mof_N 	N 	0.07193	0.10658	0.93459	-0.231
Mof_N 	N 	0.04486	0.11409	0.92447	-0.21
Mof_N 	N 	0.98323	0.14161	0.09201	-0.23
Mof_N 	N 	0.98427	0.11205	0.09033	-0.217
Mof_C 	C 	0.99564	0.1518	0.06936	0.085
Mof_H 	H 	0.9981	0.171	0.0652	-0.024
Mof_N 	N 	0.00431	0.1296	0.05296	-0.111
Mof_C 	C 	0.0455	0.12321	0.02194	0.09
Mof_H 	H 	0.0579	0.1148	0.0349	-0.012
Mof_N 	N 	0.06178	0.01847	0.85676	-0.22
Mof_N 	N 	0.06348	0.05954	0.87768	-0.111
Mof_N 	N 	0.07428	0.03825	0.83835	-0.234
Mof_N 	N 	0.06123	0.07989	0.89859	-0.11
Mof_C 	C 	0.03908	0.09811	0.90275	0.093
Mof_H 	H 	0.0226	0.0989	0.8918	-0.012
Mof_C 	C 	0.0749	0.06267	0.85136	0.092
Mof_H 	H 	0.082	0.0795	0.8438	-0.031
Mof_C 	C 	0.08128	0.08595	0.91867	0.089
Mof_H 	H 	0.0987	0.0768	0.9207	-0.018
Mof_C 	C 	0.00752	0.14231	0.00281	0.09
Mof_H 	H 	0.9891	0.1492	0.0003	-0.019
Mof_C 	C 	0.99666	0.10536	0.06645	0.091
Mof_H 	H 	0.9997	0.087	0.0598	-0.013
Mof_C 	C 	0.05521	0.0319	0.88009	0.088
Mof_H 	H 	0.0463	0.0239	0.8958	-0.011
Mof_N 	N 	0.01815	0.13144	0.02729	-0.111
Mof_Cu	Cu	0.0872	0.62331	0.4705	0.826
Mof_Cu	Cu	0.02457	0.64996	0.44205	0.825
Mof_N 	N 	0.02719	0.64154	0.48353	-0.23
Mof_N 	N 	0.0512	0.62914	0.49548	-0.213
Mof_N 	N 	0.07193	0.60658	0.43459	-0.231
Mof_N 	N 	0.04486	0.61409	0.42447	-0.21
Mof_N 	N 	0.98323	0.64161	0.59201	-0.23
Mof_N 	N 	0.98427	0.61205	0.59033	-0.217
Mof_C 	C 	0.99564	0.6518	0.56936	0.085
Mof_H 	H 	0.9981	0.671	0.5652	-0.024
Mof_N 	N 	0.00431	0.6296	0.55296	-0.111
Mof_C 	C 	0.0455	0.62321	0.52194	0.09
Mof_H 	H 	0.0579	0.6148	0.5349	-0.012
Mof_N 	N 	0.06178	0.51847	0.35676	-0.22
Mof_N 	N 	0.06348	0.55954	0.37768	-0.111
Mof_N 	N 	0.07428	0.53825	0.33835	-0.234
Mof_N 	N 	0.06123	0.57989	0.39859	-0.11
Mof_C 	C 	0.03908	0.59811	0.40275	0.093
Mof_H 	H 	0.0226	0.5989	0.3918	-0.012
Mof_C 	C 	0.0749	0.56267	0.35136	0.092
Mof_H 	H 	0.082	0.5795	0.3438	-0.031
Mof_C 	C 	0.08128	0.58595	0.41867	0.089
Mof_H 	H 	0.0987	0.5768	0.4207	-0.018
Mof_C 	C 	0.00752	0.64231	0.50281	0.09
Mof_H 	H 	0.9891	0.6492	0.5003	-0.019
Mof_C 	C 	0.99666	0.60536	0.56645	0.091
Mof_H 	H 	0.9997	0.587	0.5598	-0.013
Mof_C 	C 	0.05521	0.5319	0.38009	0.088
Mof_H 	H 	0.0463	0.5239	0.3958	-0.011
Mof_N 	N 	0.01815	0.63144	0.52729	-0.111
Mof_Cu	Cu	0.5872	0.12331	0.4705	0.826
Mof_Cu	Cu	0.52457	0.14996	0.44205	0.825
Mof_N 	N 	0.52719	0.14154	0.48353	-0.23
Mof_N 	N 	0.5512	0.12914	0.49548	-0.213
Mof_N 	N 	0.57193	0.10658	0.43459	-0.231
Mof_N 	N 	0.54486	0.11409	0.42447	-0.21
Mof_N 	N 	0.48323	0.14161	0.59201	-0.23
Mof_N 	N 	0.48427	0.11205	0.59033	-0.217
Mof_C 	C 	0.49564	0.1518	0.56936	0.085
Mof_H 	H 	0.4981	0.171	0.5652	-0.024
Mof_N 	N 	0.50431	0.1296	0.55296	-0.111
Mof_C 	C 	0.5455	0.12321	0.52194	0.09
Mof_H 	H 	0.5579	0.1148	0.5349	-0.012
Mof_N 	N 	0.56178	0.01847	0.35676	-0.22
Mof_N 	N 	0.56348	0.05954	0.37768	-0.111
Mof_N 	N 	0.57428	0.03825	0.33835	-0.234
Mof_N 	N 	0.56123	0.07989	0.39859	-0.11
Mof_C 	C 	0.53908	0.09811	0.40275	0.093
Mof_H 	H 	0.5226	0.0989	0.3918	-0.012
Mof_C 	C 	0.5749	0.06267	0.35136	0.092
Mof_H 	H 	0.582	0.0795	0.3438	-0.031
Mof_C 	C 	0.58128	0.08595	0.41867	0.089
Mof_H 	H 	0.5987	0.0768	0.4207	-0.018
Mof_C 	C 	0.50752	0.14231	0.50281	0.09
Mof_H 	H 	0.4891	0.1492	0.5003	-0.019
Mof_C 	C 	0.49666	0.10536	0.56645	0.091
Mof_H 	H 	0.4997	0.087	0.5598	-0.013
Mof_C 	C 	0.55521	0.0319	0.38009	0.088
Mof_H 	H 	0.5463	0.0239	0.3958	-0.011
Mof_N 	N 	0.51815	0.13144	0.52729	-0.111
Mof_Cu	Cu	0.5872	0.62331	0.9705	0.826
Mof_Cu	Cu	0.52457	0.64996	0.94205	0.825
Mof_N 	N 	0.52719	0.64154	0.98353	-0.23
Mof_N 	N 	0.5512	0.62914	0.99548	-0.213
Mof_N 	N 	0.57193	0.60658	0.93459	-0.231
Mof_N 	N 	0.54486	0.61409	0.92447	-0.21
Mof_N 	N 	0.48323	0.64161	0.09201	-0.23
Mof_N 	N 	0.48427	0.61205	0.09033	-0.217
Mof_C 	C 	0.49564	0.6518	0.06936	0.085
Mof_H 	H 	0.4981	0.671	0.0652	-0.024
Mof_N 	N 	0.50431	0.6296	0.05296	-0.111
Mof_C 	C 	0.5455	0.62321	0.02194	0.09
Mof_H 	H 	0.5579	0.6148	0.0349	-0.012
Mof_N 	N 	0.56178	0.51847	0.85676	-0.22
Mof_N 	N 	0.56348	0.55954	0.87768	-0.111
Mof_N 	N 	0.57428	0.53825	0.83835	-0.234
Mof_N 	N 	0.56123	0.57989	0.89859	-0.11
Mof_C 	C 	0.53908	0.59811	0.90275	0.093
Mof_H 	H 	0.5226	0.5989	0.8918	-0.012
Mof_C 	C 	0.5749	0.56267	0.85136	0.092
Mof_H 	H 	0.582	0.5795	0.8438	-0.031
Mof_C 	C 	0.58128	0.58595	0.91867	0.089
Mof_H 	H 	0.5987	0.5768	0.9207	-0.018
Mof_C 	C 	0.50752	0.64231	0.00281	0.09
Mof_H 	H 	0.4891	0.6492	0.0003	-0.019
Mof_C 	C 	0.49666	0.60536	0.06645	0.091
Mof_H 	H 	0.4997	0.587	0.0598	-0.013
Mof_C 	C 	0.55521	0.5319	0.88009	0.088
Mof_H 	H 	0.5463	0.5239	0.8958	-0.011
Mof_N 	N 	0.51815	0.63144	0.02729	-0.111
Mof_Cu	Cu	0.6628	0.62331	0.27951	0.826
Mof_Cu	Cu	0.72543	0.64996	0.30795	0.825
Mof_N 	N 	0.72281	0.64154	0.26647	-0.23
Mof_N 	N 	0.6988	0.62914	0.25452	-0.213
Mof_N 	N 	0.67807	0.60658	0.31541	-0.231
Mof_N 	N 	0.70514	0.61409	0.32553	-0.21
Mof_N 	N 	0.76677	0.64161	0.15799	-0.23
Mof_N 	N 	0.76573	0.61205	0.15967	-0.217
Mof_C 	C 	0.75436	0.6518	0.18064	0.085
Mof_H 	H 	0.7519	0.671	0.1848	-0.024
Mof_N 	N 	0.74569	0.6296	0.19704	-0.111
Mof_C 	C 	0.7045	0.62321	0.22806	0.09
Mof_H 	H 	0.6921	0.6148	0.2151	-0.012
Mof_N 	N 	0.68822	0.51847	0.39324	-0.22
Mof_N 	N 	0.68652	0.55954	0.37232	-0.111
Mof_N 	N 	0.67572	0.53825	0.41165	-0.234
Mof_N 	N 	0.68877	0.57989	0.35141	-0.11
Mof_C 	C 	0.71092	0.59811	0.34725	0.093
Mof_H 	H 	0.7274	0.5989	0.3582	-0.012
Mof_C 	C 	0.6751	0.56267	0.39864	0.092
Mof_H 	H 	0.668	0.5795	0.4062	-0.031
Mof_C 	C 	0.66872	0.58595	0.33133	0.089
Mof_H 	H 	0.6513	0.5768	0.3293	-0.018
Mof_C 	C 	0.74248	0.64231	0.24719	0.09
Mof_H 	H 	0.7609	0.6492	0.2497	-0.019
Mof_C 	C 	0.75334	0.60536	0.18355	0.091
Mof_H 	H 	0.7503	0.587	0.1902	-0.013
Mof_C 	C 	0.69479	0.5319	0.36991	0.088
Mof_H 	H 	0.7037	0.5239	0.3542	-0.011
Mof_N 	N 	0.73185	0.63144	0.22271	-0.111
Mof_Cu	Cu	0.6628	0.12331	0.77951	0.826
Mof_Cu	Cu	0.72543	0.14996	0.80795	0.825
Mof_N 	N 	0.72281	0.14154	0.76647	-0.23
Mof_N 	N 	0.6988	0.12914	0.75452	-0.213
Mof_N 	N 	0.67807	0.10658	0.81541	-0.231
Mof_N 	N 	0.70514	0.11409	0.82553	-0.21
Mof_N 	N 	0.76677	0.14161	0.65799	-0.23
Mof_N 	N 	0.76573	0.11205	0.65967	-0.217
Mof_C 	C 	0.75436	0.1518	0.68064	0.085
Mof_H 	H 	0.7519	0.171	0.6848	-0.024
Mof_N 	N 	0.74569	0.1296	0.69704	-0.111
Mof_C 	C 	0.7045	0.12321	0.72806	0.09
Mof_H 	H 	0.6921	0.1148	0.7151	-0.012
Mof_N 	N 	0.68822	0.01847	0.89324	-0.22
Mof_N 	N 	0.68652	0.05954	0.87232	-0.111
Mof_N 	N 	0.67572	0.03825	0.91165	-0.234
Mof_N 	N 	0.68877	0.07989	0.85141	-0.11
Mof_C 	C 	0.71092	0.09811	0.84725	0.093
Mof_H 	H 	0.7274	0.0989	0.8582	-0.012
Mof_C 	C 	0.6751	0.06267	0.89864	0.092
Mof_H 	H 	0.668	0.0795	0.9062	-0.031
Mof_C 	C 	0.66872	0.08595	0.83133	0.089
Mof_H 	H 	0.6513	0.0768	0.8293	-0.018
Mof_C 	C 	0.74248	0.14231	0.74719	0.09
Mof_H 	H 	0.7609	0.1492	0.7497	-0.019
Mof_C 	C 	0.75334	0.10536	0.68355	0.091
Mof_H 	H 	0.7503	0.087	0.6902	-0.013
Mof_C 	C 	0.69479	0.0319	0.86991	0.088
Mof_H 	H 	0.7037	0.0239	0.8542	-0.011
Mof_N 	N 	0.73185	0.13144	0.72271	-0.111
Mof_Cu	Cu	0.1628	0.62331	0.77951	0.826
Mof_Cu	Cu	0.22543	0.64996	0.80795	0.825
Mof_N 	N 	0.22281	0.64154	0.76647	-0.23
Mof_N 	N 	0.1988	0.62914	0.75452	-0.213
Mof_N 	N 	0.17807	0.60658	0.81541	-0.231
Mof_N 	N 	0.20514	0.61409	0.82553	-0.21
Mof_N 	N 	0.26677	0.64161	0.65799	-0.23
Mof_N 	N 	0.26573	0.61205	0.65967	-0.217
Mof_C 	C 	0.25436	0.6518	0.68064	0.085
Mof_H 	H 	0.2519	0.671	0.6848	-0.024
Mof_N 	N 	0.24569	0.6296	0.69704	-0.111
Mof_C 	C 	0.2045	0.62321	0.72806	0.09
Mof_H 	H 	0.1921	0.6148	0.7151	-0.012
Mof_N 	N 	0.18822	0.51847	0.89324	-0.22
Mof_N 	N 	0.18652	0.55954	0.87232	-0.111
Mof_N 	N 	0.17572	0.53825	0.91165	-0.234
Mof_N 	N 	0.18877	0.57989	0.85141	-0.11
Mof_C 	C 	0.21092	0.59811	0.84725	0.093
Mof_H 	H 	0.2274	0.5989	0.8582	-0.012
Mof_C 	C 	0.1751	0.56267	0.89864	0.092
Mof_H 	H 	0.168	0.5795	0.9062	-0.031
Mof_C 	C 	0.16872	0.58595	0.83133	0.089
Mof_H 	H 	0.1513	0.5768	0.8293	-0.018
Mof_C 	C 	0.24248	0.64231	0.74719	0.09
Mof_H 	H 	0.2609	0.6492	0.7497	-0.019
Mof_C 	C 	0.25334	0.60536	0.68355	0.091
Mof_H 	H 	0.2503	0.587	0.6902	-0.013
Mof_C 	C 	0.19479	0.5319	0.86991	0.088
Mof_H 	H 	0.2037	0.5239	0.8542	-0.011
Mof_N 	N 	0.23185	0.63144	0.72271	-0.111
Mof_Cu	Cu	0.1628	0.12331	0.27951	0.826
Mof_Cu	Cu	0.22543	0.14996	0.30795	0.825
Mof_N 	N 	0.22281	0.14154	0.26647	-0.23
Mof_N 	N 	0.1988	0.12914	0.25452	-0.213
Mof_N 	N 	0.17807	0.10658	0.31541	-0.231
Mof_N 	N 	0.20514	0.11409	0.32553	-0.21
Mof_N 	N 	0.26677	0.14161	0.15799	-0.23
Mof_N 	N 	0.26573	0.11205	0.15967	-0.217
Mof_C 	C 	0.25436	0.1518	0.18064	0.085
Mof_H 	H 	0.2519	0.171	0.1848	-0.024
Mof_N 	N 	0.24569	0.1296	0.19704	-0.111
Mof_C 	C 	0.2045	0.12321	0.22806	0.09
Mof_H 	H 	0.1921	0.1148	0.2151	-0.012
Mof_N 	N 	0.18822	0.01847	0.39324	-0.22
Mof_N 	N 	0.18652	0.05954	0.37232	-0.111
Mof_N 	N 	0.17572	0.03825	0.41165	-0.234
Mof_N 	N 	0.18877	0.07989	0.35141	-0.11
Mof_C 	C 	0.21092	0.09811	0.34725	0.093
Mof_H 	H 	0.2274	0.0989	0.3582	-0.012
Mof_C 	C 	0.1751	0.06267	0.39864	0.092
Mof_H 	H 	0.168	0.0795	0.4062	-0.031
Mof_C 	C 	0.16872	0.08595	0.33133	0.089
Mof_H 	H 	0.1513	0.0768	0.3293	-0.018
Mof_C 	C 	0.24248	0.14231	0.24719	0.09
Mof_H 	H 	0.2609	0.1492	0.2497	-0.019
Mof_C 	C 	0.25334	0.10536	0.18355	0.091
Mof_H 	H 	0.2503	0.087	0.1902	-0.013
Mof_C 	C 	0.19479	0.0319	0.36991	0.088
Mof_H 	H 	0.2037	0.0239	0.3542	-0.011
Mof_N 	N 	0.23185	0.13144	0.22271	-0.111
Mof_Cu	Cu	0.5872	0.12669	0.77951	0.826
Mof_Cu	Cu	0.52457	0.10004	0.80795	0.825
Mof_N 	N 	0.52719	0.10846	0.76647	-0.23
Mof_N 	N 	0.5512	0.12086	0.75452	-0.213
Mof_N 	N 	0.57193	0.14342	0.81541	-0.231
Mof_N 	N 	0.54486	0.13591	0.82553	-0.21
Mof_N 	N 	0.48323	0.10839	0.65799	-0.23
Mof_N 	N 	0.48427	0.13795	0.65967	-0.217
Mof_C 	C 	0.49564	0.0982	0.68064	0.085
Mof_H 	H 	0.4981	0.079	0.6848	-0.024
Mof_N 	N 	0.50431	0.1204	0.69704	-0.111
Mof_C 	C 	0.5455	0.12679	0.72806	0.09
Mof_H 	H 	0.5579	0.1352	0.7151	-0.012
Mof_N 	N 	0.56178	0.23153	0.89324	-0.22
Mof_N 	N 	0.56348	0.19046	0.87232	-0.111
Mof_N 	N 	0.57428	0.21175	0.91165	-0.234
Mof_N 	N 	0.56123	0.17011	0.85141	-0.11
Mof_C 	C 	0.53908	0.15189	0.84725	0.093
Mof_H 	H 	0.5226	0.1511	0.8582	-0.012
Mof_C 	C 	0.5749	0.18733	0.89864	0.092
Mof_H 	H 	0.582	0.1705	0.9062	-0.031
Mof_C 	C 	0.58128	0.16405	0.83133	0.089
Mof_H 	H 	0.5987	0.1732	0.8293	-0.018
Mof_C 	C 	0.50752	0.10769	0.74719	0.09
Mof_H 	H 	0.4891	0.1008	0.7497	-0.019
Mof_C 	C 	0.49666	0.14464	0.68355	0.091
Mof_H 	H 	0.4997	0.163	0.6902	-0.013
Mof_C 	C 	0.55521	0.2181	0.86991	0.088
Mof_H 	H 	0.5463	0.2261	0.8542	-0.011
Mof_N 	N 	0.51815	0.11856	0.72271	-0.111
Mof_Cu	Cu	0.5872	0.62669	0.27951	0.826
Mof_Cu	Cu	0.52457	0.60004	0.30795	0.825
Mof_N 	N 	0.52719	0.60846	0.26647	-0.23
Mof_N 	N 	0.5512	0.62086	0.25452	-0.213
Mof_N 	N 	0.57193	0.64342	0.31541	-0.231
Mof_N 	N 	0.54486	0.63591	0.32553	-0.21
Mof_N 	N 	0.48323	0.60839	0.15799	-0.23
Mof_N 	N 	0.48427	0.63795	0.15967	-0.217
Mof_C 	C 	0.49564	0.5982	0.18064	0.085
Mof_H 	H 	0.4981	0.579	0.1848	-0.024
Mof_N 	N 	0.50431	0.6204	0.19704	-0.111
Mof_C 	C 	0.5455	0.62679	0.22806	0.09
Mof_H 	H 	0.5579	0.6352	0.2151	-0.012
Mof_N 	N 	0.56178	0.73153	0.39324	-0.22
Mof_N 	N 	0.56348	0.69046	0.37232	-0.111
Mof_N 	N 	0.57428	0.71175	0.41165	-0.234
Mof_N 	N 	0.56123	0.67011	0.35141	-0.11
Mof_C 	C 	0.53908	0.65189	0.34725	0.093
Mof_H 	H 	0.5226	0.6511	0.3582	-0.012
Mof_C 	C 	0.5749	0.68733	0.39864	0.092
Mof_H 	H 	0.582	0.6705	0.4062	-0.031
Mof_C 	C 	0.58128	0.66405	0.33133	0.089
Mof_H 	H 	0.5987	0.6732	0.3293	-0.018
Mof_C 	C 	0.50752	0.60769	0.24719	0.09
Mof_H 	H 	0.4891	0.6008	0.2497	-0.019
Mof_C 	C 	0.49666	0.64464	0.18355	0.091
Mof_H 	H 	0.4997	0.663	0.1902	-0.013
Mof_C 	C 	0.55521	0.7181	0.36991	0.088
Mof_H 	H 	0.5463	0.7261	0.3542	-0.011
Mof_N 	N 	0.51815	0.61856	0.22271	-0.111
Mof_Cu	Cu	0.0872	0.12669	0.27951	0.826
Mof_Cu	Cu	0.02457	0.10004	0.30795	0.825
Mof_N 	N 	0.02719	0.10846	0.26647	-0.23
Mof_N 	N 	0.0512	0.12086	0.25452	-0.213
Mof_N 	N 	0.07193	0.14342	0.31541	-0.231
Mof_N 	N 	0.04486	0.13591	0.32553	-0.21
Mof_N 	N 	0.98323	0.10839	0.15799	-0.23
Mof_N 	N 	0.98427	0.13795	0.15967	-0.217
Mof_C 	C 	0.99564	0.0982	0.18064	0.085
Mof_H 	H 	0.9981	0.079	0.1848	-0.024
Mof_N 	N 	0.00431	0.1204	0.19704	-0.111
Mof_C 	C 	0.0455	0.12679	0.22806	0.09
Mof_H 	H 	0.0579	0.1352	0.2151	-0.012
Mof_N 	N 	0.06178	0.23153	0.39324	-0.22
Mof_N 	N 	0.06348	0.19046	0.37232	-0.111
Mof_N 	N 	0.07428	0.21175	0.41165	-0.234
Mof_N 	N 	0.06123	0.17011	0.35141	-0.11
Mof_C 	C 	0.03908	0.15189	0.34725	0.093
Mof_H 	H 	0.0226	0.1511	0.3582	-0.012
Mof_C 	C 	0.0749	0.18733	0.39864	0.092
Mof_H 	H 	0.082	0.1705	0.4062	-0.031
Mof_C 	C 	0.08128	0.16405	0.33133	0.089
Mof_H 	H 	0.0987	0.1732	0.3293	-0.018
Mof_C 	C 	0.00752	0.10769	0.24719	0.09
Mof_H 	H 	0.9891	0.1008	0.2497	-0.019
Mof_C 	C 	0.99666	0.14464	0.18355	0.091
Mof_H 	H 	0.9997	0.163	0.1902	-0.013
Mof_C 	C 	0.05521	0.2181	0.36991	0.088
Mof_H 	H 	0.0463	0.2261	0.3542	-0.011
Mof_N 	N 	0.01815	0.11856	0.22271	-0.111
Mof_Cu	Cu	0.0872	0.62669	0.77951	0.826
Mof_Cu	Cu	0.02457	0.60004	0.80795	0.825
Mof_N 	N 	0.02719	0.60846	0.76647	-0.23
Mof_N 	N 	0.0512	0.62086	0.75452	-0.213
Mof_N 	N 	0.07193	0.64342	0.81541	-0.231
Mof_N 	N 	0.04486	0.63591	0.82553	-0.21
Mof_N 	N 	0.98323	0.60839	0.65799	-0.23
Mof_N 	N 	0.98427	0.63795	0.65967	-0.217
Mof_C 	C 	0.99564	0.5982	0.68064	0.085
Mof_H 	H 	0.9981	0.579	0.6848	-0.024
Mof_N 	N 	0.00431	0.6204	0.69704	-0.111
Mof_C 	C 	0.0455	0.62679	0.72806	0.09
Mof_H 	H 	0.0579	0.6352	0.7151	-0.012
Mof_N 	N 	0.06178	0.73153	0.89324	-0.22
Mof_N 	N 	0.06348	0.69046	0.87232	-0.111
Mof_N 	N 	0.07428	0.71175	0.91165	-0.234
Mof_N 	N 	0.06123	0.67011	0.85141	-0.11
Mof_C 	C 	0.03908	0.65189	0.84725	0.093
Mof_H 	H 	0.0226	0.6511	0.8582	-0.012
Mof_C 	C 	0.0749	0.68733	0.89864	0.092
Mof_H 	H 	0.082	0.6705	0.9062	-0.031
Mof_C 	C 	0.08128	0.66405	0.83133	0.089
Mof_H 	H 	0.0987	0.6732	0.8293	-0.018
Mof_C 	C 	0.00752	0.60769	0.74719	0.09
Mof_H 	H 	0.9891	0.6008	0.7497	-0.019
Mof_C 	C 	0.99666	0.64464	0.68355	0.091
Mof_H 	H 	0.9997	0.663	0.6902	-0.013
Mof_C 	C 	0.05521	0.7181	0.86991	0.088
Mof_H 	H 	0.0463	0.7261	0.8542	-0.011
Mof_N 	N 	0.01815	0.61856	0.72271	-0.111
Mof_Cu	Cu	0.12669	0.77951	0.5872	0.826
Mof_Cu	Cu	0.10004	0.80795	0.52457	0.825
Mof_N 	N 	0.10846	0.76647	0.52719	-0.23
Mof_N 	N 	0.12086	0.75452	0.5512	-0.213
Mof_N 	N 	0.14342	0.81541	0.57193	-0.231
Mof_N 	N 	0.13591	0.82553	0.54486	-0.21
Mof_N 	N 	0.10839	0.65799	0.48323	-0.23
Mof_N 	N 	0.13795	0.65967	0.48427	-0.217
Mof_C 	C 	0.0982	0.68064	0.49564	0.085
Mof_H 	H 	0.079	0.6848	0.4981	-0.024
Mof_N 	N 	0.1204	0.69704	0.50431	-0.111
Mof_C 	C 	0.12679	0.72806	0.5455	0.09
Mof_H 	H 	0.1352	0.7151	0.5579	-0.012
Mof_N 	N 	0.23153	0.89324	0.56178	-0.22
Mof_N 	N 	0.19046	0.87232	0.56348	-0.111
Mof_N 	N 	0.21175	0.91165	0.57428	-0.234
Mof_N 	N 	0.17011	0.85141	0.56123	-0.11
Mof_C 	C 	0.15189	0.84725	0.53908	0.093
Mof_H 	H 	0.1511	0.8582	0.5226	-0.012
Mof_C 	C 	0.18733	0.89864	0.5749	0.092
Mof_H 	H 	0.1705	0.9062	0.582	-0.031
Mof_C 	C 	0.16405	0.83133	0.58128	0.089
Mof_H 	H 	0.1732	0.8293	0.5987	-0.018
Mof_C 	C 	0.10769	0.74719	0.50752	0.09
Mof_H 	H 	0.1008	0.7497	0.4891	-0.019
Mof_C 	C 	0.14464	0.68355	0.49666	0.091
Mof_H 	H 	0.163	0.6902	0.4997	-0.013
Mof_C 	C 	0.2181	0.86991	0.55521	0.088
Mof_H 	H 	0.2261	0.8542	0.5463	-0.011
Mof_N 	N 	0.11856	0.72271	0.51815	-0.111
Mof_Cu	Cu	0.12669	0.27951	0.0872	0.826
Mof_Cu	Cu	0.10004	0.30795	0.02457	0.825
Mof_N 	N 	0.10846	0.26647	0.02719	-0.23
Mof_N 	N 	0.12086	0.25452	0.0512	-0.213
Mof_N 	N 	0.14342	0.31541	0.07193	-0.231
Mof_N 	N 	0.13591	0.32553	0.04486	-0.21
Mof_N 	N 	0.10839	0.15799	0.98323	-0.23
Mof_N 	N 	0.13795	0.15967	0.98427	-0.217
Mof_C 	C 	0.0982	0.18064	0.99564	0.085
Mof_H 	H 	0.079	0.1848	0.9981	-0.024
Mof_N 	N 	0.1204	0.19704	0.00431	-0.111
Mof_C 	C 	0.12679	0.22806	0.0455	0.09
Mof_H 	H 	0.1352	0.2151	0.0579	-0.012
Mof_N 	N 	0.23153	0.39324	0.06178	-0.22
Mof_N 	N 	0.19046	0.37232	0.06348	-0.111
Mof_N 	N 	0.21175	0.41165	0.07428	-0.234
Mof_N 	N 	0.17011	0.35141	0.06123	-0.11
Mof_C 	C 	0.15189	0.34725	0.03908	0.093
Mof_H 	H 	0.1511	0.3582	0.0226	-0.012
Mof_C 	C 	0.18733	0.39864	0.0749	0.092
Mof_H 	H 	0.1705	0.4062	0.082	-0.031
Mof_C 	C 	0.16405	0.33133	0.08128	0.089
Mof_H 	H 	0.1732	0.3293	0.0987	-0.018
Mof_C 	C 	0.10769	0.24719	0.00752	0.09
Mof_H 	H 	0.1008	0.2497	0.9891	-0.019
Mof_C 	C 	0.14464	0.18355	0.99666	0.091
Mof_H 	H 	0.163	0.1902	0.9997	-0.013
Mof_C 	C 	0.2181	0.36991	0.05521	0.088
Mof_H 	H 	0.2261	0.3542	0.0463	-0.011
Mof_N 	N 	0.11856	0.22271	0.01815	-0.111
Mof_Cu	Cu	0.62669	0.77951	0.0872	0.826
Mof_Cu	Cu	0.60004	0.80795	0.02457	0.825
Mof_N 	N 	0.60846	0.76647	0.02719	-0.23
Mof_N 	N 	0.62086	0.75452	0.0512	-0.213
Mof_N 	N 	0.64342	0.81541	0.07193	-0.231
Mof_N 	N 	0.63591	0.82553	0.04486	-0.21
Mof_N 	N 	0.60839	0.65799	0.98323	-0.23
Mof_N 	N 	0.63795	0.65967	0.98427	-0.217
Mof_C 	C 	0.5982	0.68064	0.99564	0.085
Mof_H 	H 	0.579	0.6848	0.9981	-0.024
Mof_N 	N 	0.6204	0.69704	0.00431	-0.111
Mof_C 	C 	0.62679	0.72806	0.0455	0.09
Mof_H 	H 	0.6352	0.7151	0.0579	-0.012
Mof_N 	N 	0.73153	0.89324	0.06178	-0.22
Mof_N 	N 	0.69046	0.87232	0.06348	-0.111
Mof_N 	N 	0.71175	0.91165	0.07428	-0.234
Mof_N 	N 	0.67011	0.85141	0.06123	-0.11
Mof_C 	C 	0.65189	0.84725	0.03908	0.093
Mof_H 	H 	0.6511	0.8582	0.0226	-0.012
Mof_C 	C 	0.68733	0.89864	0.0749	0.092
Mof_H 	H 	0.6705	0.9062	0.082	-0.031
Mof_C 	C 	0.66405	0.83133	0.08128	0.089
Mof_H 	H 	0.6732	0.8293	0.0987	-0.018
Mof_C 	C 	0.60769	0.74719	0.00752	0.09
Mof_H 	H 	0.6008	0.7497	0.9891	-0.019
Mof_C 	C 	0.64464	0.68355	0.99666	0.091
Mof_H 	H 	0.663	0.6902	0.9997	-0.013
Mof_C 	C 	0.7181	0.86991	0.05521	0.088
Mof_H 	H 	0.7261	0.8542	0.0463	-0.011
Mof_N 	N 	0.61856	0.72271	0.01815	-0.111
Mof_Cu	Cu	0.62669	0.27951	0.5872	0.826
Mof_Cu	Cu	0.60004	0.30795	0.52457	0.825
Mof_N 	N 	0.60846	0.26647	0.52719	-0.23
Mof_N 	N 	0.62086	0.25452	0.5512	-0.213
Mof_N 	N 	0.64342	0.31541	0.57193	-0.231
Mof_N 	N 	0.63591	0.32553	0.54486	-0.21
Mof_N 	N 	0.60839	0.15799	0.48323	-0.23
Mof_N 	N 	0.63795	0.15967	0.48427	-0.217
Mof_C 	C 	0.5982	0.18064	0.49564	0.085
Mof_H 	H 	0.579	0.1848	0.4981	-0.024
Mof_N 	N 	0.6204	0.19704	0.50431	-0.111
Mof_C 	C 	0.62679	0.22806	0.5455	0.09
Mof_H 	H 	0.6352	0.2151	0.5579	-0.012
Mof_N 	N 	0.73153	0.39324	0.56178	-0.22
Mof_N 	N 	0.69046	0.37232	0.56348	-0.111
Mof_N 	N 	0.71175	0.41165	0.57428	-0.234
Mof_N 	N 	0.67011	0.35141	0.56123	-0.11
Mof_C 	C 	0.65189	0.34725	0.53908	0.093
Mof_H 	H 	0.6511	0.3582	0.5226	-0.012
Mof_C 	C 	0.68733	0.39864	0.5749	0.092
Mof_H 	H 	0.6705	0.4062	0.582	-0.031
Mof_C 	C 	0.66405	0.33133	0.58128	0.089
Mof_H 	H 	0.6732	0.3293	0.5987	-0.018
Mof_C 	C 	0.60769	0.24719	0.50752	0.09
Mof_H 	H 	0.6008	0.2497	0.4891	-0.019
Mof_C 	C 	0.64464	0.18355	0.49666	0.091
Mof_H 	H 	0.663	0.1902	0.4997	-0.013
Mof_C 	C 	0.7181	0.36991	0.55521	0.088
Mof_H 	H 	0.7261	0.3542	0.5463	-0.011
Mof_N 	N 	0.61856	0.22271	0.51815	-0.111
Mof_Cu	Cu	0.62331	0.27951	0.6628	0.826
Mof_Cu	Cu	0.64996	0.30795	0.72543	0.825
Mof_N 	N 	0.64154	0.26647	0.72281	-0.23
Mof_N 	N 	0.62914	0.25452	0.6988	-0.213
Mof_N 	N 	0.60658	0.31541	0.67807	-0.231
Mof_N 	N 	0.61409	0.32553	0.70514	-0.21
Mof_N 	N 	0.64161	0.15799	0.76677	-0.23
Mof_N 	N 	0.61205	0.15967	0.76573	-0.217
Mof_C 	C 	0.6518	0.18064	0.75436	0.085
Mof_H 	H 	0.671	0.1848	0.7519	-0.024
Mof_N 	N 	0.6296	0.19704	0.74569	-0.111
Mof_C 	C 	0.62321	0.22806	0.7045	0.09
Mof_H 	H 	0.6148	0.2151	0.6921	-0.012
Mof_N 	N 	0.51847	0.39324	0.68822	-0.22
Mof_N 	N 	0.55954	0.37232	0.68652	-0.111
Mof_N 	N 	0.53825	0.41165	0.67572	-0.234
Mof_N 	N 	0.57989	0.35141	0.68877	-0.11
Mof_C 	C 	0.59811	0.34725	0.71092	0.093
Mof_H 	H 	0.5989	0.3582	0.7274	-0.012
Mof_C 	C 	0.56267	0.39864	0.6751	0.092
Mof_H 	H 	0.5795	0.4062	0.668	-0.031
Mof_C 	C 	0.58595	0.33133	0.66872	0.089
Mof_H 	H 	0.5768	0.3293	0.6513	-0.018
Mof_C 	C 	0.64231	0.24719	0.74248	0.09
Mof_H 	H 	0.6492	0.2497	0.7609	-0.019
Mof_C 	C 	0.60536	0.18355	0.75334	0.091
Mof_H 	H 	0.587	0.1902	0.7503	-0.013
Mof_C 	C 	0.5319	0.36991	0.69479	0.088
Mof_H 	H 	0.5239	0.3542	0.7037	-0.011
Mof_N 	N 	0.63144	0.22271	0.73185	-0.111
Mof_Cu	Cu	0.62331	0.77951	0.1628	0.826
Mof_Cu	Cu	0.64996	0.80795	0.22543	0.825
Mof_N 	N 	0.64154	0.76647	0.22281	-0.23
Mof_N 	N 	0.62914	0.75452	0.1988	-0.213
Mof_N 	N 	0.60658	0.81541	0.17807	-0.231
Mof_N 	N 	0.61409	0.82553	0.20514	-0.21
Mof_N 	N 	0.64161	0.65799	0.26677	-0.23
Mof_N 	N 	0.61205	0.65967	0.26573	-0.217
Mof_C 	C 	0.6518	0.68064	0.25436	0.085
Mof_H 	H 	0.671	0.6848	0.2519	-0.024
Mof_N 	N 	0.6296	0.69704	0.24569	-0.111
Mof_C 	C 	0.62321	0.72806	0.2045	0.09
Mof_H 	H 	0.6148	0.7151	0.1921	-0.012
Mof_N 	N 	0.51847	0.89324	0.18822	-0.22
Mof_N 	N 	0.55954	0.87232	0.18652	-0.111
Mof_N 	N 	0.53825	0.91165	0.17572	-0.234
Mof_N 	N 	0.57989	0.85141	0.18877	-0.11
Mof_C 	C 	0.59811	0.84725	0.21092	0.093
Mof_H 	H 	0.5989	0.8582	0.2274	-0.012
Mof_C 	C 	0.56267	0.89864	0.1751	0.092
Mof_H 	H 	0.5795	0.9062	0.168	-0.031
Mof_C 	C 	0.58595	0.83133	0.16872	0.089
Mof_H 	H 	0.5768	0.8293	0.1513	-0.018
Mof_C 	C 	0.64231	0.74719	0.24248	0.09
Mof_H 	H 	0.6492	0.7497	0.2609	-0.019
Mof_C 	C 	0.60536	0.68355	0.25334	0.091
Mof_H 	H 	0.587	0.6902	0.2503	-0.013
Mof_C 	C 	0.5319	0.86991	0.19479	0.088
Mof_H 	H 	0.5239	0.8542	0.2037	-0.011
Mof_N 	N 	0.63144	0.72271	0.23185	-0.111
Mof_Cu	Cu	0.12331	0.27951	0.1628	0.826
Mof_Cu	Cu	0.14996	0.30795	0.22543	0.825
Mof_N 	N 	0.14154	0.26647	0.22281	-0.23
Mof_N 	N 	0.12914	0.25452	0.1988	-0.213
Mof_N 	N 	0.10658	0.31541	0.17807	-0.231
Mof_N 	N 	0.11409	0.32553	0.20514	-0.21
Mof_N 	N 	0.14161	0.15799	0.26677	-0.23
Mof_N 	N 	0.11205	0.15967	0.26573	-0.217
Mof_C 	C 	0.1518	0.18064	0.25436	0.085
Mof_H 	H 	0.171	0.1848	0.2519	-0.024
Mof_N 	N 	0.1296	0.19704	0.24569	-0.111
Mof_C 	C 	0.12321	0.22806	0.2045	0.09
Mof_H 	H 	0.1148	0.2151	0.1921	-0.012
Mof_N 	N 	0.01847	0.39324	0.18822	-0.22
Mof_N 	N 	0.05954	0.37232	0.18652	-0.111
Mof_N 	N 	0.03825	0.41165	0.17572	-0.234
Mof_N 	N 	0.07989	0.35141	0.18877	-0.11
Mof_C 	C 	0.09811	0.34725	0.21092	0.093
Mof_H 	H 	0.0989	0.3582	0.2274	-0.012
Mof_C 	C 	0.06267	0.39864	0.1751	0.092
Mof_H 	H 	0.0795	0.4062	0.168	-0.031
Mof_C 	C 	0.08595	0.33133	0.16872	0.089
Mof_H 	H 	0.0768	0.3293	0.1513	-0.018
Mof_C 	C 	0.14231	0.24719	0.24248	0.09
Mof_H 	H 	0.1492	0.2497	0.2609	-0.019
Mof_C 	C 	0.10536	0.18355	0.25334	0.091
Mof_H 	H 	0.087	0.1902	0.2503	-0.013
Mof_C 	C 	0.0319	0.36991	0.19479	0.088
Mof_H 	H 	0.0239	0.3542	0.2037	-0.011
Mof_N 	N 	0.13144	0.22271	0.23185	-0.111
Mof_Cu	Cu	0.12331	0.77951	0.6628	0.826
Mof_Cu	Cu	0.14996	0.80795	0.72543	0.825
Mof_N 	N 	0.14154	0.76647	0.72281	-0.23
Mof_N 	N 	0.12914	0.75452	0.6988	-0.213
Mof_N 	N 	0.10658	0.81541	0.67807	-0.231
Mof_N 	N 	0.11409	0.82553	0.70514	-0.21
Mof_N 	N 	0.14161	0.65799	0.76677	-0.23
Mof_N 	N 	0.11205	0.65967	0.76573	-0.217
Mof_C 	C 	0.1518	0.68064	0.75436	0.085
Mof_H 	H 	0.171	0.6848	0.7519	-0.024
Mof_N 	N 	0.1296	0.69704	0.74569	-0.111
Mof_C 	C 	0.12321	0.72806	0.7045	0.09
Mof_H 	H 	0.1148	0.7151	0.6921	-0.012
Mof_N 	N 	0.01847	0.89324	0.68822	-0.22
Mof_N 	N 	0.05954	0.87232	0.68652	-0.111
Mof_N 	N 	0.03825	0.91165	0.67572	-0.234
Mof_N 	N 	0.07989	0.85141	0.68877	-0.11
Mof_C 	C 	0.09811	0.84725	0.71092	0.093
Mof_H 	H 	0.0989	0.8582	0.7274	-0.012
Mof_C 	C 	0.06267	0.89864	0.6751	0.092
Mof_H 	H 	0.0795	0.9062	0.668	-0.031
Mof_C 	C 	0.08595	0.83133	0.66872	0.089
Mof_H 	H 	0.0768	0.8293	0.6513	-0.018
Mof_C 	C 	0.14231	0.74719	0.74248	0.09
Mof_H 	H 	0.1492	0.7497	0.7609	-0.019
Mof_C 	C 	0.10536	0.68355	0.75334	0.091
Mof_H 	H 	0.087	0.6902	0.7503	-0.013
Mof_C 	C 	0.0319	0.86991	0.69479	0.088
Mof_H 	H 	0.0239	0.8542	0.7037	-0.011
Mof_N 	N 	0.13144	0.72271	0.73185	-0.111
Mof_Cu	Cu	0.12331	0.9705	0.0872	0.826
Mof_Cu	Cu	0.14996	0.94205	0.02457	0.825
Mof_N 	N 	0.14154	0.98353	0.02719	-0.23
Mof_N 	N 	0.12914	0.99548	0.0512	-0.213
Mof_N 	N 	0.10658	0.93459	0.07193	-0.231
Mof_N 	N 	0.11409	0.92447	0.04486	-0.21
Mof_N 	N 	0.14161	0.09201	0.98323	-0.23
Mof_N 	N 	0.11205	0.09033	0.98427	-0.217
Mof_C 	C 	0.1518	0.06936	0.99564	0.085
Mof_H 	H 	0.171	0.0652	0.9981	-0.024
Mof_N 	N 	0.1296	0.05296	0.00431	-0.111
Mof_C 	C 	0.12321	0.02194	0.0455	0.09
Mof_H 	H 	0.1148	0.0349	0.0579	-0.012
Mof_N 	N 	0.01847	0.85676	0.06178	-0.22
Mof_N 	N 	0.05954	0.87768	0.06348	-0.111
Mof_N 	N 	0.03825	0.83835	0.07428	-0.234
Mof_N 	N 	0.07989	0.89859	0.06123	-0.11
Mof_C 	C 	0.09811	0.90275	0.03908	0.093
Mof_H 	H 	0.0989	0.8918	0.0226	-0.012
Mof_C 	C 	0.06267	0.85136	0.0749	0.092
Mof_H 	H 	0.0795	0.8438	0.082	-0.031
Mof_C 	C 	0.08595	0.91867	0.08128	0.089
Mof_H 	H 	0.0768	0.9207	0.0987	-0.018
Mof_C 	C 	0.14231	0.00281	0.00752	0.09
Mof_H 	H 	0.1492	0.0003	0.9891	-0.019
Mof_C 	C 	0.10536	0.06645	0.99666	0.091
Mof_H 	H 	0.087	0.0598	0.9997	-0.013
Mof_C 	C 	0.0319	0.88009	0.05521	0.088
Mof_H 	H 	0.0239	0.8958	0.0463	-0.011
Mof_N 	N 	0.13144	0.02729	0.01815	-0.111
Mof_Cu	Cu	0.12331	0.4705	0.5872	0.826
Mof_Cu	Cu	0.14996	0.44205	0.52457	0.825
Mof_N 	N 	0.14154	0.48353	0.52719	-0.23
Mof_N 	N 	0.12914	0.49548	0.5512	-0.213
Mof_N 	N 	0.10658	0.43459	0.57193	-0.231
Mof_N 	N 	0.11409	0.42447	0.54486	-0.21
Mof_N 	N 	0.14161	0.59201	0.48323	-0.23
Mof_N 	N 	0.11205	0.59033	0.48427	-0.217
Mof_C 	C 	0.1518	0.56936	0.49564	0.085
Mof_H 	H 	0.171	0.5652	0.4981	-0.024
Mof_N 	N 	0.1296	0.55296	0.50431	-0.111
Mof_C 	C 	0.12321	0.52194	0.5455	0.09
Mof_H 	H 	0.1148	0.5349	0.5579	-0.012
Mof_N 	N 	0.01847	0.35676	0.56178	-0.22
Mof_N 	N 	0.05954	0.37768	0.56348	-0.111
Mof_N 	N 	0.03825	0.33835	0.57428	-0.234
Mof_N 	N 	0.07989	0.39859	0.56123	-0.11
Mof_C 	C 	0.09811	0.40275	0.53908	0.093
Mof_H 	H 	0.0989	0.3918	0.5226	-0.012
Mof_C 	C 	0.06267	0.35136	0.5749	0.092
Mof_H 	H 	0.0795	0.3438	0.582	-0.031
Mof_C 	C 	0.08595	0.41867	0.58128	0.089
Mof_H 	H 	0.0768	0.4207	0.5987	-0.018
Mof_C 	C 	0.14231	0.50281	0.50752	0.09
Mof_H 	H 	0.1492	0.5003	0.4891	-0.019
Mof_C 	C 	0.10536	0.56645	0.49666	0.091
Mof_H 	H 	0.087	0.5598	0.4997	-0.013
Mof_C 	C 	0.0319	0.38009	0.55521	0.088
Mof_H 	H 	0.0239	0.3958	0.5463	-0.011
Mof_N 	N 	0.13144	0.52729	0.51815	-0.111
Mof_Cu	Cu	0.62331	0.9705	0.5872	0.826
Mof_Cu	Cu	0.64996	0.94205	0.52457	0.825
Mof_N 	N 	0.64154	0.98353	0.52719	-0.23
Mof_N 	N 	0.62914	0.99548	0.5512	-0.213
Mof_N 	N 	0.60658	0.93459	0.57193	-0.231
Mof_N 	N 	0.61409	0.92447	0.54486	-0.21
Mof_N 	N 	0.64161	0.09201	0.48323	-0.23
Mof_N 	N 	0.61205	0.09033	0.48427	-0.217
Mof_C 	C 	0.6518	0.06936	0.49564	0.085
Mof_H 	H 	0.671	0.0652	0.4981	-0.024
Mof_N 	N 	0.6296	0.05296	0.50431	-0.111
Mof_C 	C 	0.62321	0.02194	0.5455	0.09
Mof_H 	H 	0.6148	0.0349	0.5579	-0.012
Mof_N 	N 	0.51847	0.85676	0.56178	-0.22
Mof_N 	N 	0.55954	0.87768	0.56348	-0.111
Mof_N 	N 	0.53825	0.83835	0.57428	-0.234
Mof_N 	N 	0.57989	0.89859	0.56123	-0.11
Mof_C 	C 	0.59811	0.90275	0.53908	0.093
Mof_H 	H 	0.5989	0.8918	0.5226	-0.012
Mof_C 	C 	0.56267	0.85136	0.5749	0.092
Mof_H 	H 	0.5795	0.8438	0.582	-0.031
Mof_C 	C 	0.58595	0.91867	0.58128	0.089
Mof_H 	H 	0.5768	0.9207	0.5987	-0.018
Mof_C 	C 	0.64231	0.00281	0.50752	0.09
Mof_H 	H 	0.6492	0.0003	0.4891	-0.019
Mof_C 	C 	0.60536	0.06645	0.49666	0.091
Mof_H 	H 	0.587	0.0598	0.4997	-0.013
Mof_C 	C 	0.5319	0.88009	0.55521	0.088
Mof_H 	H 	0.5239	0.8958	0.5463	-0.011
Mof_N 	N 	0.63144	0.02729	0.51815	-0.111
Mof_Cu	Cu	0.62331	0.4705	0.0872	0.826
Mof_Cu	Cu	0.64996	0.44205	0.02457	0.825
Mof_N 	N 	0.64154	0.48353	0.02719	-0.23
Mof_N 	N 	0.62914	0.49548	0.0512	-0.213
Mof_N 	N 	0.60658	0.43459	0.07193	-0.231
Mof_N 	N 	0.61409	0.42447	0.04486	-0.21
Mof_N 	N 	0.64161	0.59201	0.98323	-0.23
Mof_N 	N 	0.61205	0.59033	0.98427	-0.217
Mof_C 	C 	0.6518	0.56936	0.99564	0.085
Mof_H 	H 	0.671	0.5652	0.9981	-0.024
Mof_N 	N 	0.6296	0.55296	0.00431	-0.111
Mof_C 	C 	0.62321	0.52194	0.0455	0.09
Mof_H 	H 	0.6148	0.5349	0.0579	-0.012
Mof_N 	N 	0.51847	0.35676	0.06178	-0.22
Mof_N 	N 	0.55954	0.37768	0.06348	-0.111
Mof_N 	N 	0.53825	0.33835	0.07428	-0.234
Mof_N 	N 	0.57989	0.39859	0.06123	-0.11
Mof_C 	C 	0.59811	0.40275	0.03908	0.093
Mof_H 	H 	0.5989	0.3918	0.0226	-0.012
Mof_C 	C 	0.56267	0.35136	0.0749	0.092
Mof_H 	H 	0.5795	0.3438	0.082	-0.031
Mof_C 	C 	0.58595	0.41867	0.08128	0.089
Mof_H 	H 	0.5768	0.4207	0.0987	-0.018
Mof_C 	C 	0.64231	0.50281	0.00752	0.09
Mof_H 	H 	0.6492	0.5003	0.9891	-0.019
Mof_C 	C 	0.60536	0.56645	0.99666	0.091
Mof_H 	H 	0.587	0.5598	0.9997	-0.013
Mof_C 	C 	0.5319	0.38009	0.05521	0.088
Mof_H 	H 	0.5239	0.3958	0.0463	-0.011
Mof_N 	N 	0.63144	0.52729	0.01815	-0.111
Mof_Cu	Cu	0.62669	0.4705	0.1628	0.826
Mof_Cu	Cu	0.60004	0.44205	0.22543	0.825
Mof_N 	N 	0.60846	0.48353	0.22281	-0.23
Mof_N 	N 	0.62086	0.49548	0.1988	-0.213
Mof_N 	N 	0.64342	0.43459	0.17807	-0.231
Mof_N 	N 	0.63591	0.42447	0.20514	-0.21
Mof_N 	N 	0.60839	0.59201	0.26677	-0.23
Mof_N 	N 	0.63795	0.59033	0.26573	-0.217
Mof_C 	C 	0.5982	0.56936	0.25436	0.085
Mof_H 	H 	0.579	0.5652	0.2519	-0.024
Mof_N 	N 	0.6204	0.55296	0.24569	-0.111
Mof_C 	C 	0.62679	0.52194	0.2045	0.09
Mof_H 	H 	0.6352	0.5349	0.1921	-0.012
Mof_N 	N 	0.73153	0.35676	0.18822	-0.22
Mof_N 	N 	0.69046	0.37768	0.18652	-0.111
Mof_N 	N 	0.71175	0.33835	0.17572	-0.234
Mof_N 	N 	0.67011	0.39859	0.18877	-0.11
Mof_C 	C 	0.65189	0.40275	0.21092	0.093
Mof_H 	H 	0.6511	0.3918	0.2274	-0.012
Mof_C 	C 	0.68733	0.35136	0.1751	0.092
Mof_H 	H 	0.6705	0.3438	0.168	-0.031
Mof_C 	C 	0.66405	0.41867	0.16872	0.089
Mof_H 	H 	0.6732	0.4207	0.1513	-0.018
Mof_C 	C 	0.60769	0.50281	0.24248	0.09
Mof_H 	H 	0.6008	0.5003	0.2609	-0.019
Mof_C 	C 	0.64464	0.56645	0.25334	0.091
Mof_H 	H 	0.663	0.5598	0.2503	-0.013
Mof_C 	C 	0.7181	0.38009	0.19479	0.088
Mof_H 	H 	0.7261	0.3958	0.2037	-0.011
Mof_N 	N 	0.61856	0.52729	0.23185	-0.111
Mof_Cu	Cu	0.62669	0.9705	0.6628	0.826
Mof_Cu	Cu	0.60004	0.94205	0.72543	0.825
Mof_N 	N 	0.60846	0.98353	0.72281	-0.23
Mof_N 	N 	0.62086	0.99548	0.6988	-0.213
Mof_N 	N 	0.64342	0.93459	0.67807	-0.231
Mof_N 	N 	0.63591	0.92447	0.70514	-0.21
Mof_N 	N 	0.60839	0.09201	0.76677	-0.23
Mof_N 	N 	0.63795	0.09033	0.76573	-0.217
Mof_C 	C 	0.5982	0.06936	0.75436	0.085
Mof_H 	H 	0.579	0.0652	0.7519	-0.024
Mof_N 	N 	0.6204	0.05296	0.74569	-0.111
Mof_C 	C 	0.62679	0.02194	0.7045	0.09
Mof_H 	H 	0.6352	0.0349	0.6921	-0.012
Mof_N 	N 	0.73153	0.85676	0.68822	-0.22
Mof_N 	N 	0.69046	0.87768	0.68652	-0.111
Mof_N 	N 	0.71175	0.83835	0.67572	-0.234
Mof_N 	N 	0.67011	0.89859	0.68877	-0.11
Mof_C 	C 	0.65189	0.90275	0.71092	0.093
Mof_H 	H 	0.6511	0.8918	0.7274	-0.012
Mof_C 	C 	0.68733	0.85136	0.6751	0.092
Mof_H 	H 	0.6705	0.8438	0.668	-0.031
Mof_C 	C 	0.66405	0.91867	0.66872	0.089
Mof_H 	H 	0.6732	0.9207	0.6513	-0.018
Mof_C 	C 	0.60769	0.00281	0.74248	0.09
Mof_H 	H 	0.6008	0.0003	0.7609	-0.019
Mof_C 	C 	0.64464	0.06645	0.75334	0.091
Mof_H 	H 	0.663	0.0598	0.7503	-0.013
Mof_C 	C 	0.7181	0.88009	0.69479	0.088
Mof_H 	H 	0.7261	0.8958	0.7037	-0.011
Mof_N 	N 	0.61856	0.02729	0.73185	-0.111
Mof_Cu	Cu	0.12669	0.4705	0.6628	0.826
Mof_Cu	Cu	0.10004	0.44205	0.72543	0.825
Mof_N 	N 	0.10846	0.48353	0.72281	-0.23
Mof_N 	N 	0.12086	0.49548	0.6988	-0.213
Mof_N 	N 	0.14342	0.43459	0.67807	-0.231
Mof_N 	N 	0.13591	0.42447	0.70514	-0.21
Mof_N 	N 	0.10839	0.59201	0.76677	-0.23
Mof_N 	N 	0.13795	0.59033	0.76573	-0.217
Mof_C 	C 	0.0982	0.56936	0.75436	0.085
Mof_H 	H 	0.079	0.5652	0.7519	-0.024
Mof_N 	N 	0.1204	0.55296	0.74569	-0.111
Mof_C 	C 	0.12679	0.52194	0.7045	0.09
Mof_H 	H 	0.1352	0.5349	0.6921	-0.012
Mof_N 	N 	0.23153	0.35676	0.68822	-0.22
Mof_N 	N 	0.19046	0.37768	0.68652	-0.111
Mof_N 	N 	0.21175	0.33835	0.67572	-0.234
Mof_N 	N 	0.17011	0.39859	0.68877	-0.11
Mof_C 	C 	0.15189	0.40275	0.71092	0.093
Mof_H 	H 	0.1511	0.3918	0.7274	-0.012
Mof_C 	C 	0.18733	0.35136	0.6751	0.092
Mof_H 	H 	0.1705	0.3438	0.668	-0.031
Mof_C 	C 	0.16405	0.41867	0.66872	0.089
Mof_H 	H 	0.1732	0.4207	0.6513	-0.018
Mof_C 	C 	0.10769	0.50281	0.74248	0.09
Mof_H 	H 	0.1008	0.5003	0.7609	-0.019
Mof_C 	C 	0.14464	0.56645	0.75334	0.091
Mof_H 	H 	0.163	0.5598	0.7503	-0.013
Mof_C 	C 	0.2181	0.38009	0.69479	0.088
Mof_H 	H 	0.2261	0.3958	0.7037	-0.011
Mof_N 	N 	0.11856	0.52729	0.73185	-0.111
Mof_Cu	Cu	0.12669	0.9705	0.1628	0.826
Mof_Cu	Cu	0.10004	0.94205	0.22543	0.825
Mof_N 	N 	0.10846	0.98353	0.22281	-0.23
Mof_N 	N 	0.12086	0.99548	0.1988	-0.213
Mof_N 	N 	0.14342	0.93459	0.17807	-0.231
Mof_N 	N 	0.13591	0.92447	0.20514	-0.21
Mof_N 	N 	0.10839	0.09201	0.26677	-0.23
Mof_N 	N 	0.13795	0.09033	0.26573	-0.217
Mof_C 	C 	0.0982	0.06936	0.25436	0.085
Mof_H 	H 	0.079	0.0652	0.2519	-0.024
Mof_N 	N 	0.1204	0.05296	0.24569	-0.111
Mof_C 	C 	0.12679	0.02194	0.2045	0.09
Mof_H 	H 	0.1352	0.0349	0.1921	-0.012
Mof_N 	N 	0.23153	0.85676	0.18822	-0.22
Mof_N 	N 	0.19046	0.87768	0.18652	-0.111
Mof_N 	N 	0.21175	0.83835	0.17572	-0.234
Mof_N 	N 	0.17011	0.89859	0.18877	-0.11
Mof_C 	C 	0.15189	0.90275	0.21092	0.093
Mof_H 	H 	0.1511	0.8918	0.2274	-0.012
Mof_C 	C 	0.18733	0.85136	0.1751	0.092
Mof_H 	H 	0.1705	0.8438	0.168	-0.031
Mof_C 	C 	0.16405	0.91867	0.16872	0.089
Mof_H 	H 	0.1732	0.9207	0.1513	-0.018
Mof_C 	C 	0.10769	0.00281	0.24248	0.09
Mof_H 	H 	0.1008	0.0003	0.2609	-0.019
Mof_C 	C 	0.14464	0.06645	0.25334	0.091
Mof_H 	H 	0.163	0.0598	0.2503	-0.013
Mof_C 	C 	0.2181	0.88009	0.19479	0.088
Mof_H 	H 	0.2261	0.8958	0.2037	-0.011
Mof_N 	N 	0.11856	0.02729	0.23185	-0.111
Mof_Cu	Cu	0.27951	0.6628	0.62331	0.826
Mof_Cu	Cu	0.30795	0.72543	0.64996	0.825
Mof_N 	N 	0.26647	0.72281	0.64154	-0.23
Mof_N 	N 	0.25452	0.6988	0.62914	-0.213
Mof_N 	N 	0.31541	0.67807	0.60658	-0.231
Mof_N 	N 	0.32553	0.70514	0.61409	-0.21
Mof_N 	N 	0.15799	0.76677	0.64161	-0.23
Mof_N 	N 	0.15967	0.76573	0.61205	-0.217
Mof_C 	C 	0.18064	0.75436	0.6518	0.085
Mof_H 	H 	0.1848	0.7519	0.671	-0.024
Mof_N 	N 	0.19704	0.74569	0.6296	-0.111
Mof_C 	C 	0.22806	0.7045	0.62321	0.09
Mof_H 	H 	0.2151	0.6921	0.6148	-0.012
Mof_N 	N 	0.39324	0.68822	0.51847	-0.22
Mof_N 	N 	0.37232	0.68652	0.55954	-0.111
Mof_N 	N 	0.41165	0.67572	0.53825	-0.234
Mof_N 	N 	0.35141	0.68877	0.57989	-0.11
Mof_C 	C 	0.34725	0.71092	0.59811	0.093
Mof_H 	H 	0.3582	0.7274	0.5989	-0.012
Mof_C 	C 	0.39864	0.6751	0.56267	0.092
Mof_H 	H 	0.4062	0.668	0.5795	-0.031
Mof_C 	C 	0.33133	0.66872	0.58595	0.089
Mof_H 	H 	0.3293	0.6513	0.5768	-0.018
Mof_C 	C 	0.24719	0.74248	0.64231	0.09
Mof_H 	H 	0.2497	0.7609	0.6492	-0.019
Mof_C 	C 	0.18355	0.75334	0.60536	0.091
Mof_H 	H 	0.1902	0.7503	0.587	-0.013
Mof_C 	C 	0.36991	0.69479	0.5319	0.088
Mof_H 	H 	0.3542	0.7037	0.5239	-0.011
Mof_N 	N 	0.22271	0.73185	0.63144	-0.111
Mof_Cu	Cu	0.27951	0.1628	0.12331	0.826
Mof_Cu	Cu	0.30795	0.22543	0.14996	0.825
Mof_N 	N 	0.26647	0.22281	0.14154	-0.23
Mof_N 	N 	0.25452	0.1988	0.12914	-0.213
Mof_N 	N 	0.31541	0.17807	0.10658	-0.231
Mof_N 	N 	0.32553	0.20514	0.11409	-0.21
Mof_N 	N 	0.15799	0.26677	0.14161	-0.23
Mof_N 	N 	0.15967	0.26573	0.11205	-0.217
Mof_C 	C 	0.18064	0.25436	0.1518	0.085
Mof_H 	H 	0.1848	0.2519	0.171	-0.024
Mof_N 	N 	0.19704	0.24569	0.1296	-0.111
Mof_C 	C 	0.22806	0.2045	0.12321	0.09
Mof_H 	H 	0.2151	0.1921	0.1148	-0.012
Mof_N 	N 	0.39324	0.18822	0.01847	-0.22
Mof_N 	N 	0.37232	0.18652	0.05954	-0.111
Mof_N 	N 	0.41165	0.17572	0.03825	-0.234
Mof_N 	N 	0.35141	0.18877	0.07989	-0.11
Mof_C 	C 	0.34725	0.21092	0.09811	0.093
Mof_H 	H 	0.3582	0.2274	0.0989	-0.012
Mof_C 	C 	0.39864	0.1751	0.06267	0.092
Mof_H 	H 	0.4062	0.168	0.0795	-0.031
Mof_C 	C 	0.33133	0.16872	0.08595	0.089
Mof_H 	H 	0.3293	0.1513	0.0768	-0.018
Mof_C 	C 	0.24719	0.24248	0.14231	0.09
Mof_H 	H 	0.2497	0.2609	0.1492	-0.019
Mof_C 	C 	0.18355	0.25334	0.10536	0.091
Mof_H 	H 	0.1902	0.2503	0.087	-0.013
Mof_C 	C 	0.36991	0.19479	0.0319	0.088
Mof_H 	H 	0.3542	0.2037	0.0239	-0.011
Mof_N 	N 	0.22271	0.23185	0.13144	-0.111
Mof_Cu	Cu	0.77951	0.6628	0.12331	0.826
Mof_Cu	Cu	0.80795	0.72543	0.14996	0.825
Mof_N 	N 	0.76647	0.72281	0.14154	-0.23
Mof_N 	N 	0.75452	0.6988	0.12914	-0.213
Mof_N 	N 	0.81541	0.67807	0.10658	-0.231
Mof_N 	N 	0.82553	0.70514	0.11409	-0.21
Mof_N 	N 	0.65799	0.76677	0.14161	-0.23
Mof_N 	N 	0.65967	0.76573	0.11205	-0.217
Mof_C 	C 	0.68064	0.75436	0.1518	0.085
Mof_H 	H 	0.6848	0.7519	0.171	-0.024
Mof_N 	N 	0.69704	0.74569	0.1296	-0.111
Mof_C 	C 	0.72806	0.7045	0.12321	0.09
Mof_H 	H 	0.7151	0.6921	0.1148	-0.012
Mof_N 	N 	0.89324	0.68822	0.01847	-0.22
Mof_N 	N 	0.87232	0.68652	0.05954	-0.111
Mof_N 	N 	0.91165	0.67572	0.03825	-0.234
Mof_N 	N 	0.85141	0.68877	0.07989	-0.11
Mof_C 	C 	0.84725	0.71092	0.09811	0.093
Mof_H 	H 	0.8582	0.7274	0.0989	-0.012
Mof_C 	C 	0.89864	0.6751	0.06267	0.092
Mof_H 	H 	0.9062	0.668	0.0795	-0.031
Mof_C 	C 	0.83133	0.66872	0.08595	0.089
Mof_H 	H 	0.8293	0.6513	0.0768	-0.018
Mof_C 	C 	0.74719	0.74248	0.14231	0.09
Mof_H 	H 	0.7497	0.7609	0.1492	-0.019
Mof_C 	C 	0.68355	0.75334	0.10536	0.091
Mof_H 	H 	0.6902	0.7503	0.087	-0.013
Mof_C 	C 	0.86991	0.69479	0.0319	0.088
Mof_H 	H 	0.8542	0.7037	0.0239	-0.011
Mof_N 	N 	0.72271	0.73185	0.13144	-0.111
Mof_Cu	Cu	0.77951	0.1628	0.62331	0.826
Mof_Cu	Cu	0.80795	0.22543	0.64996	0.825
Mof_N 	N 	0.76647	0.22281	0.64154	-0.23
Mof_N 	N 	0.75452	0.1988	0.62914	-0.213
Mof_N 	N 	0.81541	0.17807	0.60658	-0.231
Mof_N 	N 	0.82553	0.20514	0.61409	-0.21
Mof_N 	N 	0.65799	0.26677	0.64161	-0.23
Mof_N 	N 	0.65967	0.26573	0.61205	-0.217
Mof_C 	C 	0.68064	0.25436	0.6518	0.085
Mof_H 	H 	0.6848	0.2519	0.671	-0.024
Mof_N 	N 	0.69704	0.24569	0.6296	-0.111
Mof_C 	C 	0.72806	0.2045	0.62321	0.09
Mof_H 	H 	0.7151	0.1921	0.6148	-0.012
Mof_N 	N 	0.89324	0.18822	0.51847	-0.22
Mof_N 	N 	0.87232	0.18652	0.55954	-0.111
Mof_N 	N 	0.91165	0.17572	0.53825	-0.234
Mof_N 	N 	0.85141	0.18877	0.57989	-0.11
Mof_C 	C 	0.84725	0.21092	0.59811	0.093
Mof_H 	H 	0.8582	0.2274	0.5989	-0.012
Mof_C 	C 	0.89864	0.1751	0.56267	0.092
Mof_H 	H 	0.9062	0.168	0.5795	-0.031
Mof_C 	C 	0.83133	0.16872	0.58595	0.089
Mof_H 	H 	0.8293	0.1513	0.5768	-0.018
Mof_C 	C 	0.74719	0.24248	0.64231	0.09
Mof_H 	H 	0.7497	0.2609	0.6492	-0.019
Mof_C 	C 	0.68355	0.25334	0.60536	0.091
Mof_H 	H 	0.6902	0.2503	0.587	-0.013
Mof_C 	C 	0.86991	0.19479	0.5319	0.088
Mof_H 	H 	0.8542	0.2037	0.5239	-0.011
Mof_N 	N 	0.72271	0.23185	0.63144	-0.111
Mof_Cu	Cu	0.77951	0.5872	0.12669	0.826
Mof_Cu	Cu	0.80795	0.52457	0.10004	0.825
Mof_N 	N 	0.76647	0.52719	0.10846	-0.23
Mof_N 	N 	0.75452	0.5512	0.12086	-0.213
Mof_N 	N 	0.81541	0.57193	0.14342	-0.231
Mof_N 	N 	0.82553	0.54486	0.13591	-0.21
Mof_N 	N 	0.65799	0.48323	0.10839	-0.23
Mof_N 	N 	0.65967	0.48427	0.13795	-0.217
Mof_C 	C 	0.68064	0.49564	0.0982	0.085
Mof_H 	H 	0.6848	0.4981	0.079	-0.024
Mof_N 	N 	0.69704	0.50431	0.1204	-0.111
Mof_C 	C 	0.72806	0.5455	0.12679	0.09
Mof_H 	H 	0.7151	0.5579	0.1352	-0.012
Mof_N 	N 	0.89324	0.56178	0.23153	-0.22
Mof_N 	N 	0.87232	0.56348	0.19046	-0.111
Mof_N 	N 	0.91165	0.57428	0.21175	-0.234
Mof_N 	N 	0.85141	0.56123	0.17011	-0.11
Mof_C 	C 	0.84725	0.53908	0.15189	0.093
Mof_H 	H 	0.8582	0.5226	0.1511	-0.012
Mof_C 	C 	0.89864	0.5749	0.18733	0.092
Mof_H 	H 	0.9062	0.582	0.1705	-0.031
Mof_C 	C 	0.83133	0.58128	0.16405	0.089
Mof_H 	H 	0.8293	0.5987	0.1732	-0.018
Mof_C 	C 	0.74719	0.50752	0.10769	0.09
Mof_H 	H 	0.7497	0.4891	0.1008	-0.019
Mof_C 	C 	0.68355	0.49666	0.14464	0.091
Mof_H 	H 	0.6902	0.4997	0.163	-0.013
Mof_C 	C 	0.86991	0.55521	0.2181	0.088
Mof_H 	H 	0.8542	0.5463	0.2261	-0.011
Mof_N 	N 	0.72271	0.51815	0.11856	-0.111
Mof_Cu	Cu	0.77951	0.0872	0.62669	0.826
Mof_Cu	Cu	0.80795	0.02457	0.60004	0.825
Mof_N 	N 	0.76647	0.02719	0.60846	-0.23
Mof_N 	N 	0.75452	0.0512	0.62086	-0.213
Mof_N 	N 	0.81541	0.07193	0.64342	-0.231
Mof_N 	N 	0.82553	0.04486	0.63591	-0.21
Mof_N 	N 	0.65799	0.98323	0.60839	-0.23
Mof_N 	N 	0.65967	0.98427	0.63795	-0.217
Mof_C 	C 	0.68064	0.99564	0.5982	0.085
Mof_H 	H 	0.6848	0.9981	0.579	-0.024
Mof_N 	N 	0.69704	0.00431	0.6204	-0.111
Mof_C 	C 	0.72806	0.0455	0.62679	0.09
Mof_H 	H 	0.7151	0.0579	0.6352	-0.012
Mof_N 	N 	0.89324	0.06178	0.73153	-0.22
Mof_N 	N 	0.87232	0.06348	0.69046	-0.111
Mof_N 	N 	0.91165	0.07428	0.71175	-0.234
Mof_N 	N 	0.85141	0.06123	0.67011	-0.11
Mof_C 	C 	0.84725	0.03908	0.65189	0.093
Mof_H 	H 	0.8582	0.0226	0.6511	-0.012
Mof_C 	C 	0.89864	0.0749	0.68733	0.092
Mof_H 	H 	0.9062	0.082	0.6705	-0.031
Mof_C 	C 	0.83133	0.08128	0.66405	0.089
Mof_H 	H 	0.8293	0.0987	0.6732	-0.018
Mof_C 	C 	0.74719	0.00752	0.60769	0.09
Mof_H 	H 	0.7497	0.9891	0.6008	-0.019
Mof_C 	C 	0.68355	0.99666	0.64464	0.091
Mof_H 	H 	0.6902	0.9997	0.663	-0.013
Mof_C 	C 	0.86991	0.05521	0.7181	0.088
Mof_H 	H 	0.8542	0.0463	0.7261	-0.011
Mof_N 	N 	0.72271	0.01815	0.61856	-0.111
Mof_Cu	Cu	0.27951	0.5872	0.62669	0.826
Mof_Cu	Cu	0.30795	0.52457	0.60004	0.825
Mof_N 	N 	0.26647	0.52719	0.60846	-0.23
Mof_N 	N 	0.25452	0.5512	0.62086	-0.213
Mof_N 	N 	0.31541	0.57193	0.64342	-0.231
Mof_N 	N 	0.32553	0.54486	0.63591	-0.21
Mof_N 	N 	0.15799	0.48323	0.60839	-0.23
Mof_N 	N 	0.15967	0.48427	0.63795	-0.217
Mof_C 	C 	0.18064	0.49564	0.5982	0.085
Mof_H 	H 	0.1848	0.4981	0.579	-0.024
Mof_N 	N 	0.19704	0.50431	0.6204	-0.111
Mof_C 	C 	0.22806	0.5455	0.62679	0.09
Mof_H 	H 	0.2151	0.5579	0.6352	-0.012
Mof_N 	N 	0.39324	0.56178	0.73153	-0.22
Mof_N 	N 	0.37232	0.56348	0.69046	-0.111
Mof_N 	N 	0.41165	0.57428	0.71175	-0.234
Mof_N 	N 	0.35141	0.56123	0.67011	-0.11
Mof_C 	C 	0.34725	0.53908	0.65189	0.093
Mof_H 	H 	0.3582	0.5226	0.6511	-0.012
Mof_C 	C 	0.39864	0.5749	0.68733	0.092
Mof_H 	H 	0.4062	0.582	0.6705	-0.031
Mof_C 	C 	0.33133	0.58128	0.66405	0.089
Mof_H 	H 	0.3293	0.5987	0.6732	-0.018
Mof_C 	C 	0.24719	0.50752	0.60769	0.09
Mof_H 	H 	0.2497	0.4891	0.6008	-0.019
Mof_C 	C 	0.18355	0.49666	0.64464	0.091
Mof_H 	H 	0.1902	0.4997	0.663	-0.013
Mof_C 	C 	0.36991	0.55521	0.7181	0.088
Mof_H 	H 	0.3542	0.5463	0.7261	-0.011
Mof_N 	N 	0.22271	0.51815	0.61856	-0.111
Mof_Cu	Cu	0.27951	0.0872	0.12669	0.826
Mof_Cu	Cu	0.30795	0.02457	0.10004	0.825
Mof_N 	N 	0.26647	0.02719	0.10846	-0.23
Mof_N 	N 	0.25452	0.0512	0.12086	-0.213
Mof_N 	N 	0.31541	0.07193	0.14342	-0.231
Mof_N 	N 	0.32553	0.04486	0.13591	-0.21
Mof_N 	N 	0.15799	0.98323	0.10839	-0.23
Mof_N 	N 	0.15967	0.98427	0.13795	-0.217
Mof_C 	C 	0.18064	0.99564	0.0982	0.085
Mof_H 	H 	0.1848	0.9981	0.079	-0.024
Mof_N 	N 	0.19704	0.00431	0.1204	-0.111
Mof_C 	C 	0.22806	0.0455	0.12679	0.09
Mof_H 	H 	0.2151	0.0579	0.1352	-0.012
Mof_N 	N 	0.39324	0.06178	0.23153	-0.22
Mof_N 	N 	0.37232	0.06348	0.19046	-0.111
Mof_N 	N 	0.41165	0.07428	0.21175	-0.234
Mof_N 	N 	0.35141	0.06123	0.17011	-0.11
Mof_C 	C 	0.34725	0.03908	0.15189	0.093
Mof_H 	H 	0.3582	0.0226	0.1511	-0.012
Mof_C 	C 	0.39864	0.0749	0.18733	0.092
Mof_H 	H 	0.4062	0.082	0.1705	-0.031
Mof_C 	C 	0.33133	0.08128	0.16405	0.089
Mof_H 	H 	0.3293	0.0987	0.1732	-0.018
Mof_C 	C 	0.24719	0.00752	0.10769	0.09
Mof_H 	H 	0.2497	0.9891	0.1008	-0.019
Mof_C 	C 	0.18355	0.99666	0.14464	0.091
Mof_H 	H 	0.1902	0.9997	0.163	-0.013
Mof_C 	C 	0.36991	0.05521	0.2181	0.088
Mof_H 	H 	0.3542	0.0463	0.2261	-0.011
Mof_N 	N 	0.22271	0.01815	0.11856	-0.111
Mof_Cu	Cu	0.4705	0.1628	0.62669	0.826
Mof_Cu	Cu	0.44205	0.22543	0.60004	0.825
Mof_N 	N 	0.48353	0.22281	0.60846	-0.23
Mof_N 	N 	0.49548	0.1988	0.62086	-0.213
Mof_N 	N 	0.43459	0.17807	0.64342	-0.231
Mof_N 	N 	0.42447	0.20514	0.63591	-0.21
Mof_N 	N 	0.59201	0.26677	0.60839	-0.23
Mof_N 	N 	0.59033	0.26573	0.63795	-0.217
Mof_C 	C 	0.56936	0.25436	0.5982	0.085
Mof_H 	H 	0.5652	0.2519	0.579	-0.024
Mof_N 	N 	0.55296	0.24569	0.6204	-0.111
Mof_C 	C 	0.52194	0.2045	0.62679	0.09
Mof_H 	H 	0.5349	0.1921	0.6352	-0.012
Mof_N 	N 	0.35676	0.18822	0.73153	-0.22
Mof_N 	N 	0.37768	0.18652	0.69046	-0.111
Mof_N 	N 	0.33835	0.17572	0.71175	-0.234
Mof_N 	N 	0.39859	0.18877	0.67011	-0.11
Mof_C 	C 	0.40275	0.21092	0.65189	0.093
Mof_H 	H 	0.3918	0.2274	0.6511	-0.012
Mof_C 	C 	0.35136	0.1751	0.68733	0.092
Mof_H 	H 	0.3438	0.168	0.6705	-0.031
Mof_C 	C 	0.41867	0.16872	0.66405	0.089
Mof_H 	H 	0.4207	0.1513	0.6732	-0.018
Mof_C 	C 	0.50281	0.24248	0.60769	0.09
Mof_H 	H 	0.5003	0.2609	0.6008	-0.019
Mof_C 	C 	0.56645	0.25334	0.64464	0.091
Mof_H 	H 	0.5598	0.2503	0.663	-0.013
Mof_C 	C 	0.38009	0.19479	0.7181	0.088
Mof_H 	H 	0.3958	0.2037	0.7261	-0.011
Mof_N 	N 	0.52729	0.23185	0.61856	-0.111
Mof_Cu	Cu	0.4705	0.6628	0.12669	0.826
Mof_Cu	Cu	0.44205	0.72543	0.10004	0.825
Mof_N 	N 	0.48353	0.72281	0.10846	-0.23
Mof_N 	N 	0.49548	0.6988	0.12086	-0.213
Mof_N 	N 	0.43459	0.67807	0.14342	-0.231
Mof_N 	N 	0.42447	0.70514	0.13591	-0.21
Mof_N 	N 	0.59201	0.76677	0.10839	-0.23
Mof_N 	N 	0.59033	0.76573	0.13795	-0.217
Mof_C 	C 	0.56936	0.75436	0.0982	0.085
Mof_H 	H 	0.5652	0.7519	0.079	-0.024
Mof_N 	N 	0.55296	0.74569	0.1204	-0.111
Mof_C 	C 	0.52194	0.7045	0.12679	0.09
Mof_H 	H 	0.5349	0.6921	0.1352	-0.012
Mof_N 	N 	0.35676	0.68822	0.23153	-0.22
Mof_N 	N 	0.37768	0.68652	0.19046	-0.111
Mof_N 	N 	0.33835	0.67572	0.21175	-0.234
Mof_N 	N 	0.39859	0.68877	0.17011	-0.11
Mof_C 	C 	0.40275	0.71092	0.15189	0.093
Mof_H 	H 	0.3918	0.7274	0.1511	-0.012
Mof_C 	C 	0.35136	0.6751	0.18733	0.092
Mof_H 	H 	0.3438	0.668	0.1705	-0.031
Mof_C 	C 	0.41867	0.66872	0.16405	0.089
Mof_H 	H 	0.4207	0.6513	0.1732	-0.018
Mof_C 	C 	0.50281	0.74248	0.10769	0.09
Mof_H 	H 	0.5003	0.7609	0.1008	-0.019
Mof_C 	C 	0.56645	0.75334	0.14464	0.091
Mof_H 	H 	0.5598	0.7503	0.163	-0.013
Mof_C 	C 	0.38009	0.69479	0.2181	0.088
Mof_H 	H 	0.3958	0.7037	0.2261	-0.011
Mof_N 	N 	0.52729	0.73185	0.11856	-0.111
Mof_Cu	Cu	0.9705	0.1628	0.12669	0.826
Mof_Cu	Cu	0.94205	0.22543	0.10004	0.825
Mof_N 	N 	0.98353	0.22281	0.10846	-0.23
Mof_N 	N 	0.99548	0.1988	0.12086	-0.213
Mof_N 	N 	0.93459	0.17807	0.14342	-0.231
Mof_N 	N 	0.92447	0.20514	0.13591	-0.21
Mof_N 	N 	0.09201	0.26677	0.10839	-0.23
Mof_N 	N 	0.09033	0.26573	0.13795	-0.217
Mof_C 	C 	0.06936	0.25436	0.0982	0.085
Mof_H 	H 	0.0652	0.2519	0.079	-0.024
Mof_N 	N 	0.05296	0.24569	0.1204	-0.111
Mof_C 	C 	0.02194	0.2045	0.12679	0.09
Mof_H 	H 	0.0349	0.1921	0.1352	-0.012
Mof_N 	N 	0.85676	0.18822	0.23153	-0.22
Mof_N 	N 	0.87768	0.18652	0.19046	-0.111
Mof_N 	N 	0.83835	0.17572	0.21175	-0.234
Mof_N 	N 	0.89859	0.18877	0.17011	-0.11
Mof_C 	C 	0.90275	0.21092	0.15189	0.093
Mof_H 	H 	0.8918	0.2274	0.1511	-0.012
Mof_C 	C 	0.85136	0.1751	0.18733	0.092
Mof_H 	H 	0.8438	0.168	0.1705	-0.031
Mof_C 	C 	0.91867	0.16872	0.16405	0.089
Mof_H 	H 	0.9207	0.1513	0.1732	-0.018
Mof_C 	C 	0.00281	0.24248	0.10769	0.09
Mof_H 	H 	0.0003	0.2609	0.1008	-0.019
Mof_C 	C 	0.06645	0.25334	0.14464	0.091
Mof_H 	H 	0.0598	0.2503	0.163	-0.013
Mof_C 	C 	0.88009	0.19479	0.2181	0.088
Mof_H 	H 	0.8958	0.2037	0.2261	-0.011
Mof_N 	N 	0.02729	0.23185	0.11856	-0.111
Mof_Cu	Cu	0.9705	0.6628	0.62669	0.826
Mof_Cu	Cu	0.94205	0.72543	0.60004	0.825
Mof_N 	N 	0.98353	0.72281	0.60846	-0.23
Mof_N 	N 	0.99548	0.6988	0.62086	-0.213
Mof_N 	N 	0.93459	0.67807	0.64342	-0.231
Mof_N 	N 	0.92447	0.70514	0.63591	-0.21
Mof_N 	N 	0.09201	0.76677	0.60839	-0.23
Mof_N 	N 	0.09033	0.76573	0.63795	-0.217
Mof_C 	C 	0.06936	0.75436	0.5982	0.085
Mof_H 	H 	0.0652	0.7519	0.579	-0.024
Mof_N 	N 	0.05296	0.74569	0.6204	-0.111
Mof_C 	C 	0.02194	0.7045	0.62679	0.09
Mof_H 	H 	0.0349	0.6921	0.6352	-0.012
Mof_N 	N 	0.85676	0.68822	0.73153	-0.22
Mof_N 	N 	0.87768	0.68652	0.69046	-0.111
Mof_N 	N 	0.83835	0.67572	0.71175	-0.234
Mof_N 	N 	0.89859	0.68877	0.67011	-0.11
Mof_C 	C 	0.90275	0.71092	0.65189	0.093
Mof_H 	H 	0.8918	0.7274	0.6511	-0.012
Mof_C 	C 	0.85136	0.6751	0.68733	0.092
Mof_H 	H 	0.8438	0.668	0.6705	-0.031
Mof_C 	C 	0.91867	0.66872	0.66405	0.089
Mof_H 	H 	0.9207	0.6513	0.6732	-0.018
Mof_C 	C 	0.00281	0.74248	0.60769	0.09
Mof_H 	H 	0.0003	0.7609	0.6008	-0.019
Mof_C 	C 	0.06645	0.75334	0.64464	0.091
Mof_H 	H 	0.0598	0.7503	0.663	-0.013
Mof_C 	C 	0.88009	0.69479	0.7181	0.088
Mof_H 	H 	0.8958	0.7037	0.7261	-0.011
Mof_N 	N 	0.02729	0.73185	0.61856	-0.111
Mof_Cu	Cu	0.9705	0.0872	0.12331	0.826
Mof_Cu	Cu	0.94205	0.02457	0.14996	0.825
Mof_N 	N 	0.98353	0.02719	0.14154	-0.23
Mof_N 	N 	0.99548	0.0512	0.12914	-0.213
Mof_N 	N 	0.93459	0.07193	0.10658	-0.231
Mof_N 	N 	0.92447	0.04486	0.11409	-0.21
Mof_N 	N 	0.09201	0.98323	0.14161	-0.23
Mof_N 	N 	0.09033	0.98427	0.11205	-0.217
Mof_C 	C 	0.06936	0.99564	0.1518	0.085
Mof_H 	H 	0.0652	0.9981	0.171	-0.024
Mof_N 	N 	0.05296	0.00431	0.1296	-0.111
Mof_C 	C 	0.02194	0.0455	0.12321	0.09
Mof_H 	H 	0.0349	0.0579	0.1148	-0.012
Mof_N 	N 	0.85676	0.06178	0.01847	-0.22
Mof_N 	N 	0.87768	0.06348	0.05954	-0.111
Mof_N 	N 	0.83835	0.07428	0.03825	-0.234
Mof_N 	N 	0.89859	0.06123	0.07989	-0.11
Mof_C 	C 	0.90275	0.03908	0.09811	0.093
Mof_H 	H 	0.8918	0.0226	0.0989	-0.012
Mof_C 	C 	0.85136	0.0749	0.06267	0.092
Mof_H 	H 	0.8438	0.082	0.0795	-0.031
Mof_C 	C 	0.91867	0.08128	0.08595	0.089
Mof_H 	H 	0.9207	0.0987	0.0768	-0.018
Mof_C 	C 	0.00281	0.00752	0.14231	0.09
Mof_H 	H 	0.0003	0.9891	0.1492	-0.019
Mof_C 	C 	0.06645	0.99666	0.10536	0.091
Mof_H 	H 	0.0598	0.9997	0.087	-0.013
Mof_C 	C 	0.88009	0.05521	0.0319	0.088
Mof_H 	H 	0.8958	0.0463	0.0239	-0.011
Mof_N 	N 	0.02729	0.01815	0.13144	-0.111
Mof_Cu	Cu	0.9705	0.5872	0.62331	0.826
Mof_Cu	Cu	0.94205	0.52457	0.64996	0.825
Mof_N 	N 	0.98353	0.52719	0.64154	-0.23
Mof_N 	N 	0.99548	0.5512	0.62914	-0.213
Mof_N 	N 	0.93459	0.57193	0.60658	-0.231
Mof_N 	N 	0.92447	0.54486	0.61409	-0.21
Mof_N 	N 	0.09201	0.48323	0.64161	-0.23
Mof_N 	N 	0.09033	0.48427	0.61205	-0.217
Mof_C 	C 	0.06936	0.49564	0.6518	0.085
Mof_H 	H 	0.0652	0.4981	0.671	-0.024
Mof_N 	N 	0.05296	0.50431	0.6296	-0.111
Mof_C 	C 	0.02194	0.5455	0.62321	0.09
Mof_H 	H 	0.0349	0.5579	0.6148	-0.012
Mof_N 	N 	0.85676	0.56178	0.51847	-0.22
Mof_N 	N 	0.87768	0.56348	0.55954	-0.111
Mof_N 	N 	0.83835	0.57428	0.53825	-0.234
Mof_N 	N 	0.89859	0.56123	0.57989	-0.11
Mof_C 	C 	0.90275	0.53908	0.59811	0.093
Mof_H 	H 	0.8918	0.5226	0.5989	-0.012
Mof_C 	C 	0.85136	0.5749	0.56267	0.092
Mof_H 	H 	0.8438	0.582	0.5795	-0.031
Mof_C 	C 	0.91867	0.58128	0.58595	0.089
Mof_H 	H 	0.9207	0.5987	0.5768	-0.018
Mof_C 	C 	0.00281	0.50752	0.64231	0.09
Mof_H 	H 	0.0003	0.4891	0.6492	-0.019
Mof_C 	C 	0.06645	0.49666	0.60536	0.091
Mof_H 	H 	0.0598	0.4997	0.587	-0.013
Mof_C 	C 	0.88009	0.55521	0.5319	0.088
Mof_H 	H 	0.8958	0.5463	0.5239	-0.011
Mof_N 	N 	0.02729	0.51815	0.63144	-0.111
Mof_Cu	Cu	0.4705	0.0872	0.62331	0.826
Mof_Cu	Cu	0.44205	0.02457	0.64996	0.825
Mof_N 	N 	0.48353	0.02719	0.64154	-0.23
Mof_N 	N 	0.49548	0.0512	0.62914	-0.213
Mof_N 	N 	0.43459	0.07193	0.60658	-0.231
Mof_N 	N 	0.42447	0.04486	0.61409	-0.21
Mof_N 	N 	0.59201	0.98323	0.64161	-0.23
Mof_N 	N 	0.59033	0.98427	0.61205	-0.217
Mof_C 	C 	0.56936	0.99564	0.6518	0.085
Mof_H 	H 	0.5652	0.9981	0.671	-0.024
Mof_N 	N 	0.55296	0.00431	0.6296	-0.111
Mof_C 	C 	0.52194	0.0455	0.62321	0.09
Mof_H 	H 	0.5349	0.0579	0.6148	-0.012
Mof_N 	N 	0.35676	0.06178	0.51847	-0.22
Mof_N 	N 	0.37768	0.06348	0.55954	-0.111
Mof_N 	N 	0.33835	0.07428	0.53825	-0.234
Mof_N 	N 	0.39859	0.06123	0.57989	-0.11
Mof_C 	C 	0.40275	0.03908	0.59811	0.093
Mof_H 	H 	0.3918	0.0226	0.5989	-0.012
Mof_C 	C 	0.35136	0.0749	0.56267	0.092
Mof_H 	H 	0.3438	0.082	0.5795	-0.031
Mof_C 	C 	0.41867	0.08128	0.58595	0.089
Mof_H 	H 	0.4207	0.0987	0.5768	-0.018
Mof_C 	C 	0.50281	0.00752	0.64231	0.09
Mof_H 	H 	0.5003	0.9891	0.6492	-0.019
Mof_C 	C 	0.56645	0.99666	0.60536	0.091
Mof_H 	H 	0.5598	0.9997	0.587	-0.013
Mof_C 	C 	0.38009	0.05521	0.5319	0.088
Mof_H 	H 	0.3958	0.0463	0.5239	-0.011
Mof_N 	N 	0.52729	0.01815	0.63144	-0.111
Mof_Cu	Cu	0.4705	0.5872	0.12331	0.826
Mof_Cu	Cu	0.44205	0.52457	0.14996	0.825
Mof_N 	N 	0.48353	0.52719	0.14154	-0.23
Mof_N 	N 	0.49548	0.5512	0.12914	-0.213
Mof_N 	N 	0.43459	0.57193	0.10658	-0.231
Mof_N 	N 	0.42447	0.54486	0.11409	-0.21
Mof_N 	N 	0.59201	0.48323	0.14161	-0.23
Mof_N 	N 	0.59033	0.48427	0.11205	-0.217
Mof_C 	C 	0.56936	0.49564	0.1518	0.085
Mof_H 	H 	0.5652	0.4981	0.171	-0.024
Mof_N 	N 	0.55296	0.50431	0.1296	-0.111
Mof_C 	C 	0.52194	0.5455	0.12321	0.09
Mof_H 	H 	0.5349	0.5579	0.1148	-0.012
Mof_N 	N 	0.35676	0.56178	0.01847	-0.22
Mof_N 	N 	0.37768	0.56348	0.05954	-0.111
Mof_N 	N 	0.33835	0.57428	0.03825	-0.234
Mof_N 	N 	0.39859	0.56123	0.07989	-0.11
Mof_C 	C 	0.40275	0.53908	0.09811	0.093
Mof_H 	H 	0.3918	0.5226	0.0989	-0.012
Mof_C 	C 	0.35136	0.5749	0.06267	0.092
Mof_H 	H 	0.3438	0.582	0.0795	-0.031
Mof_C 	C 	0.41867	0.58128	0.08595	0.089
Mof_H 	H 	0.4207	0.5987	0.0768	-0.018
Mof_C 	C 	0.50281	0.50752	0.14231	0.09
Mof_H 	H 	0.5003	0.4891	0.1492	-0.019
Mof_C 	C 	0.56645	0.49666	0.10536	0.091
Mof_H 	H 	0.5598	0.4997	0.087	-0.013
Mof_C 	C 	0.38009	0.55521	0.0319	0.088
Mof_H 	H 	0.3958	0.5463	0.0239	-0.011
Mof_N 	N 	0.52729	0.51815	0.13144	-0.111
Mof_Cu	Cu	0.62331	0.5872	0.4705	0.826
Mof_Cu	Cu	0.64996	0.52457	0.44205	0.825
Mof_N 	N 	0.64154	0.52719	0.48353	-0.23
Mof_N 	N 	0.62914	0.5512	0.49548	-0.213
Mof_N 	N 	0.60658	0.57193	0.43459	-0.231
Mof_N 	N 	0.61409	0.54486	0.42447	-0.21
Mof_N 	N 	0.64161	0.48323	0.59201	-0.23
Mof_N 	N 	0.61205	0.48427	0.59033	-0.217
Mof_C 	C 	0.6518	0.49564	0.56936	0.085
Mof_H 	H 	0.671	0.4981	0.5652	-0.024
Mof_N 	N 	0.6296	0.50431	0.55296	-0.111
Mof_C 	C 	0.62321	0.5455	0.52194	0.09
Mof_H 	H 	0.6148	0.5579	0.5349	-0.012
Mof_N 	N 	0.51847	0.56178	0.35676	-0.22
Mof_N 	N 	0.55954	0.56348	0.37768	-0.111
Mof_N 	N 	0.53825	0.57428	0.33835	-0.234
Mof_N 	N 	0.57989	0.56123	0.39859	-0.11
Mof_C 	C 	0.59811	0.53908	0.40275	0.093
Mof_H 	H 	0.5989	0.5226	0.3918	-0.012
Mof_C 	C 	0.56267	0.5749	0.35136	0.092
Mof_H 	H 	0.5795	0.582	0.3438	-0.031
Mof_C 	C 	0.58595	0.58128	0.41867	0.089
Mof_H 	H 	0.5768	0.5987	0.4207	-0.018
Mof_C 	C 	0.64231	0.50752	0.50281	0.09
Mof_H 	H 	0.6492	0.4891	0.5003	-0.019
Mof_C 	C 	0.60536	0.49666	0.56645	0.091
Mof_H 	H 	0.587	0.4997	0.5598	-0.013
Mof_C 	C 	0.5319	0.55521	0.38009	0.088
Mof_H 	H 	0.5239	0.5463	0.3958	-0.011
Mof_N 	N 	0.63144	0.51815	0.52729	-0.111
Mof_Cu	Cu	0.62331	0.0872	0.9705	0.826
Mof_Cu	Cu	0.64996	0.02457	0.94205	0.825
Mof_N 	N 	0.64154	0.02719	0.98353	-0.23
Mof_N 	N 	0.62914	0.0512	0.99548	-0.213
Mof_N 	N 	0.60658	0.07193	0.93459	-0.231
Mof_N 	N 	0.61409	0.04486	0.92447	-0.21
Mof_N 	N 	0.64161	0.98323	0.09201	-0.23
Mof_N 	N 	0.61205	0.98427	0.09033	-0.217
Mof_C 	C 	0.6518	0.99564	0.06936	0.085
Mof_H 	H 	0.671	0.9981	0.0652	-0.024
Mof_N 	N 	0.6296	0.00431	0.05296	-0.111
Mof_C 	C 	0.62321	0.0455	0.02194	0.09
Mof_H 	H 	0.6148	0.0579	0.0349	-0.012
Mof_N 	N 	0.51847	0.06178	0.85676	-0.22
Mof_N 	N 	0.55954	0.06348	0.87768	-0.111
Mof_N 	N 	0.53825	0.07428	0.83835	-0.234
Mof_N 	N 	0.57989	0.06123	0.89859	-0.11
Mof_C 	C 	0.59811	0.03908	0.90275	0.093
Mof_H 	H 	0.5989	0.0226	0.8918	-0.012
Mof_C 	C 	0.56267	0.0749	0.85136	0.092
Mof_H 	H 	0.5795	0.082	0.8438	-0.031
Mof_C 	C 	0.58595	0.08128	0.91867	0.089
Mof_H 	H 	0.5768	0.0987	0.9207	-0.018
Mof_C 	C 	0.64231	0.00752	0.00281	0.09
Mof_H 	H 	0.6492	0.9891	0.0003	-0.019
Mof_C 	C 	0.60536	0.99666	0.06645	0.091
Mof_H 	H 	0.587	0.9997	0.0598	-0.013
Mof_C 	C 	0.5319	0.05521	0.88009	0.088
Mof_H 	H 	0.5239	0.0463	0.8958	-0.011
Mof_N 	N 	0.63144	0.01815	0.02729	-0.111
Mof_Cu	Cu	0.12331	0.5872	0.9705	0.826
Mof_Cu	Cu	0.14996	0.52457	0.94205	0.825
Mof_N 	N 	0.14154	0.52719	0.98353	-0.23
Mof_N 	N 	0.12914	0.5512	0.99548	-0.213
Mof_N 	N 	0.10658	0.57193	0.93459	-0.231
Mof_N 	N 	0.11409	0.54486	0.92447	-0.21
Mof_N 	N 	0.14161	0.48323	0.09201	-0.23
Mof_N 	N 	0.11205	0.48427	0.09033	-0.217
Mof_C 	C 	0.1518	0.49564	0.06936	0.085
Mof_H 	H 	0.171	0.4981	0.0652	-0.024
Mof_N 	N 	0.1296	0.50431	0.05296	-0.111
Mof_C 	C 	0.12321	0.5455	0.02194	0.09
Mof_H 	H 	0.1148	0.5579	0.0349	-0.012
Mof_N 	N 	0.01847	0.56178	0.85676	-0.22
Mof_N 	N 	0.05954	0.56348	0.87768	-0.111
Mof_N 	N 	0.03825	0.57428	0.83835	-0.234
Mof_N 	N 	0.07989	0.56123	0.89859	-0.11
Mof_C 	C 	0.09811	0.53908	0.90275	0.093
Mof_H 	H 	0.0989	0.5226	0.8918	-0.012
Mof_C 	C 	0.06267	0.5749	0.85136	0.092
Mof_H 	H 	0.0795	0.582	0.8438	-0.031
Mof_C 	C 	0.08595	0.58128	0.91867	0.089
Mof_H 	H 	0.0768	0.5987	0.9207	-0.018
Mof_C 	C 	0.14231	0.50752	0.00281	0.09
Mof_H 	H 	0.1492	0.4891	0.0003	-0.019
Mof_C 	C 	0.10536	0.49666	0.06645	0.091
Mof_H 	H 	0.087	0.4997	0.0598	-0.013
Mof_C 	C 	0.0319	0.55521	0.88009	0.088
Mof_H 	H 	0.0239	0.5463	0.8958	-0.011
Mof_N 	N 	0.13144	0.51815	0.02729	-0.111
Mof_Cu	Cu	0.12331	0.0872	0.4705	0.826
Mof_Cu	Cu	0.14996	0.02457	0.44205	0.825
Mof_N 	N 	0.14154	0.02719	0.48353	-0.23
Mof_N 	N 	0.12914	0.0512	0.49548	-0.213
Mof_N 	N 	0.10658	0.07193	0.43459	-0.231
Mof_N 	N 	0.11409	0.04486	0.42447	-0.21
Mof_N 	N 	0.14161	0.98323	0.59201	-0.23
Mof_N 	N 	0.11205	0.98427	0.59033	-0.217
Mof_C 	C 	0.1518	0.99564	0.56936	0.085
Mof_H 	H 	0.171	0.9981	0.5652	-0.024
Mof_N 	N 	0.1296	0.00431	0.55296	-0.111
Mof_C 	C 	0.12321	0.0455	0.52194	0.09
Mof_H 	H 	0.1148	0.0579	0.5349	-0.012
Mof_N 	N 	0.01847	0.06178	0.35676	-0.22
Mof_N 	N 	0.05954	0.06348	0.37768	-0.111
Mof_N 	N 	0.03825	0.07428	0.33835	-0.234
Mof_N 	N 	0.07989	0.06123	0.39859	-0.11
Mof_C 	C 	0.09811	0.03908	0.40275	0.093
Mof_H 	H 	0.0989	0.0226	0.3918	-0.012
Mof_C 	C 	0.06267	0.0749	0.35136	0.092
Mof_H 	H 	0.0795	0.082	0.3438	-0.031
Mof_C 	C 	0.08595	0.08128	0.41867	0.089
Mof_H 	H 	0.0768	0.0987	0.4207	-0.018
Mof_C 	C 	0.14231	0.00752	0.50281	0.09
Mof_H 	H 	0.1492	0.9891	0.5003	-0.019
Mof_C 	C 	0.10536	0.99666	0.56645	0.091
Mof_H 	H 	0.087	0.9997	0.5598	-0.013
Mof_C 	C 	0.0319	0.05521	0.38009	0.088
Mof_H 	H 	0.0239	0.0463	0.3958	-0.011
Mof_N 	N 	0.13144	0.01815	0.52729	-0.111
Mof_Cu	Cu	0.12669	0.6628	0.9705	0.826
Mof_Cu	Cu	0.10004	0.72543	0.94205	0.825
Mof_N 	N 	0.10846	0.72281	0.98353	-0.23
Mof_N 	N 	0.12086	0.6988	0.99548	-0.213
Mof_N 	N 	0.14342	0.67807	0.93459	-0.231
Mof_N 	N 	0.13591	0.70514	0.92447	-0.21
Mof_N 	N 	0.10839	0.76677	0.09201	-0.23
Mof_N 	N 	0.13795	0.76573	0.09033	-0.217
Mof_C 	C 	0.0982	0.75436	0.06936	0.085
Mof_H 	H 	0.079	0.7519	0.0652	-0.024
Mof_N 	N 	0.1204	0.74569	0.05296	-0.111
Mof_C 	C 	0.12679	0.7045	0.02194	0.09
Mof_H 	H 	0.1352	0.6921	0.0349	-0.012
Mof_N 	N 	0.23153	0.68822	0.85676	-0.22
Mof_N 	N 	0.19046	0.68652	0.87768	-0.111
Mof_N 	N 	0.21175	0.67572	0.83835	-0.234
Mof_N 	N 	0.17011	0.68877	0.89859	-0.11
Mof_C 	C 	0.15189	0.71092	0.90275	0.093
Mof_H 	H 	0.1511	0.7274	0.8918	-0.012
Mof_C 	C 	0.18733	0.6751	0.85136	0.092
Mof_H 	H 	0.1705	0.668	0.8438	-0.031
Mof_C 	C 	0.16405	0.66872	0.91867	0.089
Mof_H 	H 	0.1732	0.6513	0.9207	-0.018
Mof_C 	C 	0.10769	0.74248	0.00281	0.09
Mof_H 	H 	0.1008	0.7609	0.0003	-0.019
Mof_C 	C 	0.14464	0.75334	0.06645	0.091
Mof_H 	H 	0.163	0.7503	0.0598	-0.013
Mof_C 	C 	0.2181	0.69479	0.88009	0.088
Mof_H 	H 	0.2261	0.7037	0.8958	-0.011
Mof_N 	N 	0.11856	0.73185	0.02729	-0.111
Mof_Cu	Cu	0.12669	0.1628	0.4705	0.826
Mof_Cu	Cu	0.10004	0.22543	0.44205	0.825
Mof_N 	N 	0.10846	0.22281	0.48353	-0.23
Mof_N 	N 	0.12086	0.1988	0.49548	-0.213
Mof_N 	N 	0.14342	0.17807	0.43459	-0.231
Mof_N 	N 	0.13591	0.20514	0.42447	-0.21
Mof_N 	N 	0.10839	0.26677	0.59201	-0.23
Mof_N 	N 	0.13795	0.26573	0.59033	-0.217
Mof_C 	C 	0.0982	0.25436	0.56936	0.085
Mof_H 	H 	0.079	0.2519	0.5652	-0.024
Mof_N 	N 	0.1204	0.24569	0.55296	-0.111
Mof_C 	C 	0.12679	0.2045	0.52194	0.09
Mof_H 	H 	0.1352	0.1921	0.5349	-0.012
Mof_N 	N 	0.23153	0.18822	0.35676	-0.22
Mof_N 	N 	0.19046	0.18652	0.37768	-0.111
Mof_N 	N 	0.21175	0.17572	0.33835	-0.234
Mof_N 	N 	0.17011	0.18877	0.39859	-0.11
Mof_C 	C 	0.15189	0.21092	0.40275	0.093
Mof_H 	H 	0.1511	0.2274	0.3918	-0.012
Mof_C 	C 	0.18733	0.1751	0.35136	0.092
Mof_H 	H 	0.1705	0.168	0.3438	-0.031
Mof_C 	C 	0.16405	0.16872	0.41867	0.089
Mof_H 	H 	0.1732	0.1513	0.4207	-0.018
Mof_C 	C 	0.10769	0.24248	0.50281	0.09
Mof_H 	H 	0.1008	0.2609	0.5003	-0.019
Mof_C 	C 	0.14464	0.25334	0.56645	0.091
Mof_H 	H 	0.163	0.2503	0.5598	-0.013
Mof_C 	C 	0.2181	0.19479	0.38009	0.088
Mof_H 	H 	0.2261	0.2037	0.3958	-0.011
Mof_N 	N 	0.11856	0.23185	0.52729	-0.111
Mof_Cu	Cu	0.62669	0.6628	0.4705	0.826
Mof_Cu	Cu	0.60004	0.72543	0.44205	0.825
Mof_N 	N 	0.60846	0.72281	0.48353	-0.23
Mof_N 	N 	0.62086	0.6988	0.49548	-0.213
Mof_N 	N 	0.64342	0.67807	0.43459	-0.231
Mof_N 	N 	0.63591	0.70514	0.42447	-0.21
Mof_N 	N 	0.60839	0.76677	0.59201	-0.23
Mof_N 	N 	0.63795	0.76573	0.59033	-0.217
Mof_C 	C 	0.5982	0.75436	0.56936	0.085
Mof_H 	H 	0.579	0.7519	0.5652	-0.024
Mof_N 	N 	0.6204	0.74569	0.55296	-0.111
Mof_C 	C 	0.62679	0.7045	0.52194	0.09
Mof_H 	H 	0.6352	0.6921	0.5349	-0.012
Mof_N 	N 	0.73153	0.68822	0.35676	-0.22
Mof_N 	N 	0.69046	0.68652	0.37768	-0.111
Mof_N 	N 	0.71175	0.67572	0.33835	-0.234
Mof_N 	N 	0.67011	0.68877	0.39859	-0.11
Mof_C 	C 	0.65189	0.71092	0.40275	0.093
Mof_H 	H 	0.6511	0.7274	0.3918	-0.012
Mof_C 	C 	0.68733	0.6751	0.35136	0.092
Mof_H 	H 	0.6705	0.668	0.3438	-0.031
Mof_C 	C 	0.66405	0.66872	0.41867	0.089
Mof_H 	H 	0.6732	0.6513	0.4207	-0.018
Mof_C 	C 	0.60769	0.74248	0.50281	0.09
Mof_H 	H 	0.6008	0.7609	0.5003	-0.019
Mof_C 	C 	0.64464	0.75334	0.56645	0.091
Mof_H 	H 	0.663	0.7503	0.5598	-0.013
Mof_C 	C 	0.7181	0.69479	0.38009	0.088
Mof_H 	H 	0.7261	0.7037	0.3958	-0.011
Mof_N 	N 	0.61856	0.73185	0.52729	-0.111
Mof_Cu	Cu	0.62669	0.1628	0.9705	0.826
Mof_Cu	Cu	0.60004	0.22543	0.94205	0.825
Mof_N 	N 	0.60846	0.22281	0.98353	-0.23
Mof_N 	N 	0.62086	0.1988	0.99548	-0.213
Mof_N 	N 	0.64342	0.17807	0.93459	-0.231
Mof_N 	N 	0.63591	0.20514	0.92447	-0.21
Mof_N 	N 	0.60839	0.26677	0.09201	-0.23
Mof_N 	N 	0.63795	0.26573	0.09033	-0.217
Mof_C 	C 	0.5982	0.25436	0.06936	0.085
Mof_H 	H 	0.579	0.2519	0.0652	-0.024
Mof_N 	N 	0.6204	0.24569	0.05296	-0.111
Mof_C 	C 	0.62679	0.2045	0.02194	0.09
Mof_H 	H 	0.6352	0.1921	0.0349	-0.012
Mof_N 	N 	0.73153	0.18822	0.85676	-0.22
Mof_N 	N 	0.69046	0.18652	0.87768	-0.111
Mof_N 	N 	0.71175	0.17572	0.83835	-0.234
Mof_N 	N 	0.67011	0.18877	0.89859	-0.11
Mof_C 	C 	0.65189	0.21092	0.90275	0.093
Mof_H 	H 	0.6511	0.2274	0.8918	-0.012
Mof_C 	C 	0.68733	0.1751	0.85136	0.092
Mof_H 	H 	0.6705	0.168	0.8438	-0.031
Mof_C 	C 	0.66405	0.16872	0.91867	0.089
Mof_H 	H 	0.6732	0.1513	0.9207	-0.018
Mof_C 	C 	0.60769	0.24248	0.00281	0.09
Mof_H 	H 	0.6008	0.2609	0.0003	-0.019
Mof_C 	C 	0.64464	0.25334	0.06645	0.091
Mof_H 	H 	0.663	0.2503	0.0598	-0.013
Mof_C 	C 	0.7181	0.19479	0.88009	0.088
Mof_H 	H 	0.7261	0.2037	0.8958	-0.011
Mof_N 	N 	0.61856	0.23185	0.02729	-0.111
Mof_Cu	Cu	0.62669	0.0872	0.27951	0.826
Mof_Cu	Cu	0.60004	0.02457	0.30795	0.825
Mof_N 	N 	0.60846	0.02719	0.26647	-0.23
Mof_N 	N 	0.62086	0.0512	0.25452	-0.213
Mof_N 	N 	0.64342	0.07193	0.31541	-0.231
Mof_N 	N 	0.63591	0.04486	0.32553	-0.21
Mof_N 	N 	0.60839	0.98323	0.15799	-0.23
Mof_N 	N 	0.63795	0.98427	0.15967	-0.217
Mof_C 	C 	0.5982	0.99564	0.18064	0.085
Mof_H 	H 	0.579	0.9981	0.1848	-0.024
Mof_N 	N 	0.6204	0.00431	0.19704	-0.111
Mof_C 	C 	0.62679	0.0455	0.22806	0.09
Mof_H 	H 	0.6352	0.0579	0.2151	-0.012
Mof_N 	N 	0.73153	0.06178	0.39324	-0.22
Mof_N 	N 	0.69046	0.06348	0.37232	-0.111
Mof_N 	N 	0.71175	0.07428	0.41165	-0.234
Mof_N 	N 	0.67011	0.06123	0.35141	-0.11
Mof_C 	C 	0.65189	0.03908	0.34725	0.093
Mof_H 	H 	0.6511	0.0226	0.3582	-0.012
Mof_C 	C 	0.68733	0.0749	0.39864	0.092
Mof_H 	H 	0.6705	0.082	0.4062	-0.031
Mof_C 	C 	0.66405	0.08128	0.33133	0.089
Mof_H 	H 	0.6732	0.0987	0.3293	-0.018
Mof_C 	C 	0.60769	0.00752	0.24719	0.09
Mof_H 	H 	0.6008	0.9891	0.2497	-0.019
Mof_C 	C 	0.64464	0.99666	0.18355	0.091
Mof_H 	H 	0.663	0.9997	0.1902	-0.013
Mof_C 	C 	0.7181	0.05521	0.36991	0.088
Mof_H 	H 	0.7261	0.0463	0.3542	-0.011
Mof_N 	N 	0.61856	0.01815	0.22271	-0.111
Mof_Cu	Cu	0.62669	0.5872	0.77951	0.826
Mof_Cu	Cu	0.60004	0.52457	0.80795	0.825
Mof_N 	N 	0.60846	0.52719	0.76647	-0.23
Mof_N 	N 	0.62086	0.5512	0.75452	-0.213
Mof_N 	N 	0.64342	0.57193	0.81541	-0.231
Mof_N 	N 	0.63591	0.54486	0.82553	-0.21
Mof_N 	N 	0.60839	0.48323	0.65799	-0.23
Mof_N 	N 	0.63795	0.48427	0.65967	-0.217
Mof_C 	C 	0.5982	0.49564	0.68064	0.085
Mof_H 	H 	0.579	0.4981	0.6848	-0.024
Mof_N 	N 	0.6204	0.50431	0.69704	-0.111
Mof_C 	C 	0.62679	0.5455	0.72806	0.09
Mof_H 	H 	0.6352	0.5579	0.7151	-0.012
Mof_N 	N 	0.73153	0.56178	0.89324	-0.22
Mof_N 	N 	0.69046	0.56348	0.87232	-0.111
Mof_N 	N 	0.71175	0.57428	0.91165	-0.234
Mof_N 	N 	0.67011	0.56123	0.85141	-0.11
Mof_C 	C 	0.65189	0.53908	0.84725	0.093
Mof_H 	H 	0.6511	0.5226	0.8582	-0.012
Mof_C 	C 	0.68733	0.5749	0.89864	0.092
Mof_H 	H 	0.6705	0.582	0.9062	-0.031
Mof_C 	C 	0.66405	0.58128	0.83133	0.089
Mof_H 	H 	0.6732	0.5987	0.8293	-0.018
Mof_C 	C 	0.60769	0.50752	0.74719	0.09
Mof_H 	H 	0.6008	0.4891	0.7497	-0.019
Mof_C 	C 	0.64464	0.49666	0.68355	0.091
Mof_H 	H 	0.663	0.4997	0.6902	-0.013
Mof_C 	C 	0.7181	0.55521	0.86991	0.088
Mof_H 	H 	0.7261	0.5463	0.8542	-0.011
Mof_N 	N 	0.61856	0.51815	0.72271	-0.111
Mof_Cu	Cu	0.12669	0.0872	0.77951	0.826
Mof_Cu	Cu	0.10004	0.02457	0.80795	0.825
Mof_N 	N 	0.10846	0.02719	0.76647	-0.23
Mof_N 	N 	0.12086	0.0512	0.75452	-0.213
Mof_N 	N 	0.14342	0.07193	0.81541	-0.231
Mof_N 	N 	0.13591	0.04486	0.82553	-0.21
Mof_N 	N 	0.10839	0.98323	0.65799	-0.23
Mof_N 	N 	0.13795	0.98427	0.65967	-0.217
Mof_C 	C 	0.0982	0.99564	0.68064	0.085
Mof_H 	H 	0.079	0.9981	0.6848	-0.024
Mof_N 	N 	0.1204	0.00431	0.69704	-0.111
Mof_C 	C 	0.12679	0.0455	0.72806	0.09
Mof_H 	H 	0.1352	0.0579	0.7151	-0.012
Mof_N 	N 	0.23153	0.06178	0.89324	-0.22
Mof_N 	N 	0.19046	0.06348	0.87232	-0.111
Mof_N 	N 	0.21175	0.07428	0.91165	-0.234
Mof_N 	N 	0.17011	0.06123	0.85141	-0.11
Mof_C 	C 	0.15189	0.03908	0.84725	0.093
Mof_H 	H 	0.1511	0.0226	0.8582	-0.012
Mof_C 	C 	0.18733	0.0749	0.89864	0.092
Mof_H 	H 	0.1705	0.082	0.9062	-0.031
Mof_C 	C 	0.16405	0.08128	0.83133	0.089
Mof_H 	H 	0.1732	0.0987	0.8293	-0.018
Mof_C 	C 	0.10769	0.00752	0.74719	0.09
Mof_H 	H 	0.1008	0.9891	0.7497	-0.019
Mof_C 	C 	0.14464	0.99666	0.68355	0.091
Mof_H 	H 	0.163	0.9997	0.6902	-0.013
Mof_C 	C 	0.2181	0.05521	0.86991	0.088
Mof_H 	H 	0.2261	0.0463	0.8542	-0.011
Mof_N 	N 	0.11856	0.01815	0.72271	-0.111
Mof_Cu	Cu	0.12669	0.5872	0.27951	0.826
Mof_Cu	Cu	0.10004	0.52457	0.30795	0.825
Mof_N 	N 	0.10846	0.52719	0.26647	-0.23
Mof_N 	N 	0.12086	0.5512	0.25452	-0.213
Mof_N 	N 	0.14342	0.57193	0.31541	-0.231
Mof_N 	N 	0.13591	0.54486	0.32553	-0.21
Mof_N 	N 	0.10839	0.48323	0.15799	-0.23
Mof_N 	N 	0.13795	0.48427	0.15967	-0.217
Mof_C 	C 	0.0982	0.49564	0.18064	0.085
Mof_H 	H 	0.079	0.4981	0.1848	-0.024
Mof_N 	N 	0.1204	0.50431	0.19704	-0.111
Mof_C 	C 	0.12679	0.5455	0.22806	0.09
Mof_H 	H 	0.1352	0.5579	0.2151	-0.012
Mof_N 	N 	0.23153	0.56178	0.39324	-0.22
Mof_N 	N 	0.19046	0.56348	0.37232	-0.111
Mof_N 	N 	0.21175	0.57428	0.41165	-0.234
Mof_N 	N 	0.17011	0.56123	0.35141	-0.11
Mof_C 	C 	0.15189	0.53908	0.34725	0.093
Mof_H 	H 	0.1511	0.5226	0.3582	-0.012
Mof_C 	C 	0.18733	0.5749	0.39864	0.092
Mof_H 	H 	0.1705	0.582	0.4062	-0.031
Mof_C 	C 	0.16405	0.58128	0.33133	0.089
Mof_H 	H 	0.1732	0.5987	0.3293	-0.018
Mof_C 	C 	0.10769	0.50752	0.24719	0.09
Mof_H 	H 	0.1008	0.4891	0.2497	-0.019
Mof_C 	C 	0.14464	0.49666	0.18355	0.091
Mof_H 	H 	0.163	0.4997	0.1902	-0.013
Mof_C 	C 	0.2181	0.55521	0.36991	0.088
Mof_H 	H 	0.2261	0.5463	0.3542	-0.011
Mof_N 	N 	0.11856	0.51815	0.22271	-0.111
Mof_Cu	Cu	0.12331	0.1628	0.77951	0.826
Mof_Cu	Cu	0.14996	0.22543	0.80795	0.825
Mof_N 	N 	0.14154	0.22281	0.76647	-0.23
Mof_N 	N 	0.12914	0.1988	0.75452	-0.213
Mof_N 	N 	0.10658	0.17807	0.81541	-0.231
Mof_N 	N 	0.11409	0.20514	0.82553	-0.21
Mof_N 	N 	0.14161	0.26677	0.65799	-0.23
Mof_N 	N 	0.11205	0.26573	0.65967	-0.217
Mof_C 	C 	0.1518	0.25436	0.68064	0.085
Mof_H 	H 	0.171	0.2519	0.6848	-0.024
Mof_N 	N 	0.1296	0.24569	0.69704	-0.111
Mof_C 	C 	0.12321	0.2045	0.72806	0.09
Mof_H 	H 	0.1148	0.1921	0.7151	-0.012
Mof_N 	N 	0.01847	0.18822	0.89324	-0.22
Mof_N 	N 	0.05954	0.18652	0.87232	-0.111
Mof_N 	N 	0.03825	0.17572	0.91165	-0.234
Mof_N 	N 	0.07989	0.18877	0.85141	-0.11
Mof_C 	C 	0.09811	0.21092	0.84725	0.093
Mof_H 	H 	0.0989	0.2274	0.8582	-0.012
Mof_C 	C 	0.06267	0.1751	0.89864	0.092
Mof_H 	H 	0.0795	0.168	0.9062	-0.031
Mof_C 	C 	0.08595	0.16872	0.83133	0.089
Mof_H 	H 	0.0768	0.1513	0.8293	-0.018
Mof_C 	C 	0.14231	0.24248	0.74719	0.09
Mof_H 	H 	0.1492	0.2609	0.7497	-0.019
Mof_C 	C 	0.10536	0.25334	0.68355	0.091
Mof_H 	H 	0.087	0.2503	0.6902	-0.013
Mof_C 	C 	0.0319	0.19479	0.86991	0.088
Mof_H 	H 	0.0239	0.2037	0.8542	-0.011
Mof_N 	N 	0.13144	0.23185	0.72271	-0.111
Mof_Cu	Cu	0.12331	0.6628	0.27951	0.826
Mof_Cu	Cu	0.14996	0.72543	0.30795	0.825
Mof_N 	N 	0.14154	0.72281	0.26647	-0.23
Mof_N 	N 	0.12914	0.6988	0.25452	-0.213
Mof_N 	N 	0.10658	0.67807	0.31541	-0.231
Mof_N 	N 	0.11409	0.70514	0.32553	-0.21
Mof_N 	N 	0.14161	0.76677	0.15799	-0.23
Mof_N 	N 	0.11205	0.76573	0.15967	-0.217
Mof_C 	C 	0.1518	0.75436	0.18064	0.085
Mof_H 	H 	0.171	0.7519	0.1848	-0.024
Mof_N 	N 	0.1296	0.74569	0.19704	-0.111
Mof_C 	C 	0.12321	0.7045	0.22806	0.09
Mof_H 	H 	0.1148	0.6921	0.2151	-0.012
Mof_N 	N 	0.01847	0.68822	0.39324	-0.22
Mof_N 	N 	0.05954	0.68652	0.37232	-0.111
Mof_N 	N 	0.03825	0.67572	0.41165	-0.234
Mof_N 	N 	0.07989	0.68877	0.35141	-0.11
Mof_C 	C 	0.09811	0.71092	0.34725	0.093
Mof_H 	H 	0.0989	0.7274	0.3582	-0.012
Mof_C 	C 	0.06267	0.6751	0.39864	0.092
Mof_H 	H 	0.0795	0.668	0.4062	-0.031
Mof_C 	C 	0.08595	0.66872	0.33133	0.089
Mof_H 	H 	0.0768	0.6513	0.3293	-0.018
Mof_C 	C 	0.14231	0.74248	0.24719	0.09
Mof_H 	H 	0.1492	0.7609	0.2497	-0.019
Mof_C 	C 	0.10536	0.75334	0.18355	0.091
Mof_H 	H 	0.087	0.7503	0.1902	-0.013
Mof_C 	C 	0.0319	0.69479	0.36991	0.088
Mof_H 	H 	0.0239	0.7037	0.3542	-0.011
Mof_N 	N 	0.13144	0.73185	0.22271	-0.111
Mof_Cu	Cu	0.62331	0.1628	0.27951	0.826
Mof_Cu	Cu	0.64996	0.22543	0.30795	0.825
Mof_N 	N 	0.64154	0.22281	0.26647	-0.23
Mof_N 	N 	0.62914	0.1988	0.25452	-0.213
Mof_N 	N 	0.60658	0.17807	0.31541	-0.231
Mof_N 	N 	0.61409	0.20514	0.32553	-0.21
Mof_N 	N 	0.64161	0.26677	0.15799	-0.23
Mof_N 	N 	0.61205	0.26573	0.15967	-0.217
Mof_C 	C 	0.6518	0.25436	0.18064	0.085
Mof_H 	H 	0.671	0.2519	0.1848	-0.024
Mof_N 	N 	0.6296	0.24569	0.19704	-0.111
Mof_C 	C 	0.62321	0.2045	0.22806	0.09
Mof_H 	H 	0.6148	0.1921	0.2151	-0.012
Mof_N 	N 	0.51847	0.18822	0.39324	-0.22
Mof_N 	N 	0.55954	0.18652	0.37232	-0.111
Mof_N 	N 	0.53825	0.17572	0.41165	-0.234
Mof_N 	N 	0.57989	0.18877	0.35141	-0.11
Mof_C 	C 	0.59811	0.21092	0.34725	0.093
Mof_H 	H 	0.5989	0.2274	0.3582	-0.012
Mof_C 	C 	0.56267	0.1751	0.39864	0.092
Mof_H 	H 	0.5795	0.168	0.4062	-0.031
Mof_C 	C 	0.58595	0.16872	0.33133	0.089
Mof_H 	H 	0.5768	0.1513	0.3293	-0.018
Mof_C 	C 	0.64231	0.24248	0.24719	0.09
Mof_H 	H 	0.6492	0.2609	0.2497	-0.019
Mof_C 	C 	0.60536	0.25334	0.18355	0.091
Mof_H 	H 	0.587	0.2503	0.1902	-0.013
Mof_C 	C 	0.5319	0.19479	0.36991	0.088
Mof_H 	H 	0.5239	0.2037	0.3542	-0.011
Mof_N 	N 	0.63144	0.23185	0.22271	-0.111
Mof_Cu	Cu	0.62331	0.6628	0.77951	0.826
Mof_Cu	Cu	0.64996	0.72543	0.80795	0.825
Mof_N 	N 	0.64154	0.72281	0.76647	-0.23
Mof_N 	N 	0.62914	0.6988	0.75452	-0.213
Mof_N 	N 	0.60658	0.67807	0.81541	-0.231
Mof_N 	N 	0.61409	0.70514	0.82553	-0.21
Mof_N 	N 	0.64161	0.76677	0.65799	-0.23
Mof_N 	N 	0.61205	0.76573	0.65967	-0.217
Mof_C 	C 	0.6518	0.75436	0.68064	0.085
Mof_H 	H 	0.671	0.7519	0.6848	-0.024
Mof_N 	N 	0.6296	0.74569	0.69704	-0.111
Mof_C 	C 	0.62321	0.7045	0.72806	0.09
Mof_H 	H 	0.6148	0.6921	0.7151	-0.012
Mof_N 	N 	0.51847	0.68822	0.89324	-0.22
Mof_N 	N 	0.55954	0.68652	0.87232	-0.111
Mof_N 	N 	0.53825	0.67572	0.91165	-0.234
Mof_N 	N 	0.57989	0.68877	0.85141	-0.11
Mof_C 	C 	0.59811	0.71092	0.84725	0.093
Mof_H 	H 	0.5989	0.7274	0.8582	-0.012
Mof_C 	C 	0.56267	0.6751	0.89864	0.092
Mof_H 	H 	0.5795	0.668	0.9062	-0.031
Mof_C 	C 	0.58595	0.66872	0.83133	0.089
Mof_H 	H 	0.5768	0.6513	0.8293	-0.018
Mof_C 	C 	0.64231	0.74248	0.74719	0.09
Mof_H 	H 	0.6492	0.7609	0.7497	-0.019
Mof_C 	C 	0.60536	0.75334	0.68355	0.091
Mof_H 	H 	0.587	0.7503	0.6902	-0.013
Mof_C 	C 	0.5319	0.69479	0.86991	0.088
Mof_H 	H 	0.5239	0.7037	0.8542	-0.011
Mof_N 	N 	0.63144	0.73185	0.72271	-0.111
Mof_Cu	Cu	0.4705	0.62331	0.5872	0.826
Mof_Cu	Cu	0.44205	0.64996	0.52457	0.825
Mof_N 	N 	0.48353	0.64154	0.52719	-0.23
Mof_N 	N 	0.49548	0.62914	0.5512	-0.213
Mof_N 	N 	0.43459	0.60658	0.57193	-0.231
Mof_N 	N 	0.42447	0.61409	0.54486	-0.21
Mof_N 	N 	0.59201	0.64161	0.48323	-0.23
Mof_N 	N 	0.59033	0.61205	0.48427	-0.217
Mof_C 	C 	0.56936	0.6518	0.49564	0.085
Mof_H 	H 	0.5652	0.671	0.4981	-0.024
Mof_N 	N 	0.55296	0.6296	0.50431	-0.111
Mof_C 	C 	0.52194	0.62321	0.5455	0.09
Mof_H 	H 	0.5349	0.6148	0.5579	-0.012
Mof_N 	N 	0.35676	0.51847	0.56178	-0.22
Mof_N 	N 	0.37768	0.55954	0.56348	-0.111
Mof_N 	N 	0.33835	0.53825	0.57428	-0.234
Mof_N 	N 	0.39859	0.57989	0.56123	-0.11
Mof_C 	C 	0.40275	0.59811	0.53908	0.093
Mof_H 	H 	0.3918	0.5989	0.5226	-0.012
Mof_C 	C 	0.35136	0.56267	0.5749	0.092
Mof_H 	H 	0.3438	0.5795	0.582	-0.031
Mof_C 	C 	0.41867	0.58595	0.58128	0.089
Mof_H 	H 	0.4207	0.5768	0.5987	-0.018
Mof_C 	C 	0.50281	0.64231	0.50752	0.09
Mof_H 	H 	0.5003	0.6492	0.4891	-0.019
Mof_C 	C 	0.56645	0.60536	0.49666	0.091
Mof_H 	H 	0.5598	0.587	0.4997	-0.013
Mof_C 	C 	0.38009	0.5319	0.55521	0.088
Mof_H 	H 	0.3958	0.5239	0.5463	-0.011
Mof_N 	N 	0.52729	0.63144	0.51815	-0.111
Mof_Cu	Cu	0.4705	0.12331	0.0872	0.826
Mof_Cu	Cu	0.44205	0.14996	0.02457	0.825
Mof_N 	N 	0.48353	0.14154	0.02719	-0.23
Mof_N 	N 	0.49548	0.12914	0.0512	-0.213
Mof_N 	N 	0.43459	0.10658	0.07193	-0.231
Mof_N 	N 	0.42447	0.11409	0.04486	-0.21
Mof_N 	N 	0.59201	0.14161	0.98323	-0.23
Mof_N 	N 	0.59033	0.11205	0.98427	-0.217
Mof_C 	C 	0.56936	0.1518	0.99564	0.085
Mof_H 	H 	0.5652	0.171	0.9981	-0.024
Mof_N 	N 	0.55296	0.1296	0.00431	-0.111
Mof_C 	C 	0.52194	0.12321	0.0455	0.09
Mof_H 	H 	0.5349	0.1148	0.0579	-0.012
Mof_N 	N 	0.35676	0.01847	0.06178	-0.22
Mof_N 	N 	0.37768	0.05954	0.06348	-0.111
Mof_N 	N 	0.33835	0.03825	0.07428	-0.234
Mof_N 	N 	0.39859	0.07989	0.06123	-0.11
Mof_C 	C 	0.40275	0.09811	0.03908	0.093
Mof_H 	H 	0.3918	0.0989	0.0226	-0.012
Mof_C 	C 	0.35136	0.06267	0.0749	0.092
Mof_H 	H 	0.3438	0.0795	0.082	-0.031
Mof_C 	C 	0.41867	0.08595	0.08128	0.089
Mof_H 	H 	0.4207	0.0768	0.0987	-0.018
Mof_C 	C 	0.50281	0.14231	0.00752	0.09
Mof_H 	H 	0.5003	0.1492	0.9891	-0.019
Mof_C 	C 	0.56645	0.10536	0.99666	0.091
Mof_H 	H 	0.5598	0.087	0.9997	-0.013
Mof_C 	C 	0.38009	0.0319	0.05521	0.088
Mof_H 	H 	0.3958	0.0239	0.0463	-0.011
Mof_N 	N 	0.52729	0.13144	0.01815	-0.111
Mof_Cu	Cu	0.9705	0.62331	0.0872	0.826
Mof_Cu	Cu	0.94205	0.64996	0.02457	0.825
Mof_N 	N 	0.98353	0.64154	0.02719	-0.23
Mof_N 	N 	0.99548	0.62914	0.0512	-0.213
Mof_N 	N 	0.93459	0.60658	0.07193	-0.231
Mof_N 	N 	0.92447	0.61409	0.04486	-0.21
Mof_N 	N 	0.09201	0.64161	0.98323	-0.23
Mof_N 	N 	0.09033	0.61205	0.98427	-0.217
Mof_C 	C 	0.06936	0.6518	0.99564	0.085
Mof_H 	H 	0.0652	0.671	0.9981	-0.024
Mof_N 	N 	0.05296	0.6296	0.00431	-0.111
Mof_C 	C 	0.02194	0.62321	0.0455	0.09
Mof_H 	H 	0.0349	0.6148	0.0579	-0.012
Mof_N 	N 	0.85676	0.51847	0.06178	-0.22
Mof_N 	N 	0.87768	0.55954	0.06348	-0.111
Mof_N 	N 	0.83835	0.53825	0.07428	-0.234
Mof_N 	N 	0.89859	0.57989	0.06123	-0.11
Mof_C 	C 	0.90275	0.59811	0.03908	0.093
Mof_H 	H 	0.8918	0.5989	0.0226	-0.012
Mof_C 	C 	0.85136	0.56267	0.0749	0.092
Mof_H 	H 	0.8438	0.5795	0.082	-0.031
Mof_C 	C 	0.91867	0.58595	0.08128	0.089
Mof_H 	H 	0.9207	0.5768	0.0987	-0.018
Mof_C 	C 	0.00281	0.64231	0.00752	0.09
Mof_H 	H 	0.0003	0.6492	0.9891	-0.019
Mof_C 	C 	0.06645	0.60536	0.99666	0.091
Mof_H 	H 	0.0598	0.587	0.9997	-0.013
Mof_C 	C 	0.88009	0.5319	0.05521	0.088
Mof_H 	H 	0.8958	0.5239	0.0463	-0.011
Mof_N 	N 	0.02729	0.63144	0.01815	-0.111
Mof_Cu	Cu	0.9705	0.12331	0.5872	0.826
Mof_Cu	Cu	0.94205	0.14996	0.52457	0.825
Mof_N 	N 	0.98353	0.14154	0.52719	-0.23
Mof_N 	N 	0.99548	0.12914	0.5512	-0.213
Mof_N 	N 	0.93459	0.10658	0.57193	-0.231
Mof_N 	N 	0.92447	0.11409	0.54486	-0.21
Mof_N 	N 	0.09201	0.14161	0.48323	-0.23
Mof_N 	N 	0.09033	0.11205	0.48427	-0.217
Mof_C 	C 	0.06936	0.1518	0.49564	0.085
Mof_H 	H 	0.0652	0.171	0.4981	-0.024
Mof_N 	N 	0.05296	0.1296	0.50431	-0.111
Mof_C 	C 	0.02194	0.12321	0.5455	0.09
Mof_H 	H 	0.0349	0.1148	0.5579	-0.012
Mof_N 	N 	0.85676	0.01847	0.56178	-0.22
Mof_N 	N 	0.87768	0.05954	0.56348	-0.111
Mof_N 	N 	0.83835	0.03825	0.57428	-0.234
Mof_N 	N 	0.89859	0.07989	0.56123	-0.11
Mof_C 	C 	0.90275	0.09811	0.53908	0.093
Mof_H 	H 	0.8918	0.0989	0.5226	-0.012
Mof_C 	C 	0.85136	0.06267	0.5749	0.092
Mof_H 	H 	0.8438	0.0795	0.582	-0.031
Mof_C 	C 	0.91867	0.08595	0.58128	0.089
Mof_H 	H 	0.9207	0.0768	0.5987	-0.018
Mof_C 	C 	0.00281	0.14231	0.50752	0.09
Mof_H 	H 	0.0003	0.1492	0.4891	-0.019
Mof_C 	C 	0.06645	0.10536	0.49666	0.091
Mof_H 	H 	0.0598	0.087	0.4997	-0.013
Mof_C 	C 	0.88009	0.0319	0.55521	0.088
Mof_H 	H 	0.8958	0.0239	0.5463	-0.011
Mof_N 	N 	0.02729	0.13144	0.51815	-0.111
Mof_Cu	Cu	0.9705	0.12669	0.6628	0.826
Mof_Cu	Cu	0.94205	0.10004	0.72543	0.825
Mof_N 	N 	0.98353	0.10846	0.72281	-0.23
Mof_N 	N 	0.99548	0.12086	0.6988	-0.213
Mof_N 	N 	0.93459	0.14342	0.67807	-0.231
Mof_N 	N 	0.92447	0.13591	0.70514	-0.21
Mof_N 	N 	0.09201	0.10839	0.76677	-0.23
Mof_N 	N 	0.09033	0.13795	0.76573	-0.217
Mof_C 	C 	0.06936	0.0982	0.75436	0.085
Mof_H 	H 	0.0652	0.079	0.7519	-0.024
Mof_N 	N 	0.05296	0.1204	0.74569	-0.111
Mof_C 	C 	0.02194	0.12679	0.7045	0.09
Mof_H 	H 	0.0349	0.1352	0.6921	-0.012
Mof_N 	N 	0.85676	0.23153	0.68822	-0.22
Mof_N 	N 	0.87768	0.19046	0.68652	-0.111
Mof_N 	N 	0.83835	0.21175	0.67572	-0.234
Mof_N 	N 	0.89859	0.17011	0.68877	-0.11
Mof_C 	C 	0.90275	0.15189	0.71092	0.093
Mof_H 	H 	0.8918	0.1511	0.7274	-0.012
Mof_C 	C 	0.85136	0.18733	0.6751	0.092
Mof_H 	H 	0.8438	0.1705	0.668	-0.031
Mof_C 	C 	0.91867	0.16405	0.66872	0.089
Mof_H 	H 	0.9207	0.1732	0.6513	-0.018
Mof_C 	C 	0.00281	0.10769	0.74248	0.09
Mof_H 	H 	0.0003	0.1008	0.7609	-0.019
Mof_C 	C 	0.06645	0.14464	0.75334	0.091
Mof_H 	H 	0.0598	0.163	0.7503	-0.013
Mof_C 	C 	0.88009	0.2181	0.69479	0.088
Mof_H 	H 	0.8958	0.2261	0.7037	-0.011
Mof_N 	N 	0.02729	0.11856	0.73185	-0.111
Mof_Cu	Cu	0.9705	0.62669	0.1628	0.826
Mof_Cu	Cu	0.94205	0.60004	0.22543	0.825
Mof_N 	N 	0.98353	0.60846	0.22281	-0.23
Mof_N 	N 	0.99548	0.62086	0.1988	-0.213
Mof_N 	N 	0.93459	0.64342	0.17807	-0.231
Mof_N 	N 	0.92447	0.63591	0.20514	-0.21
Mof_N 	N 	0.09201	0.60839	0.26677	-0.23
Mof_N 	N 	0.09033	0.63795	0.26573	-0.217
Mof_C 	C 	0.06936	0.5982	0.25436	0.085
Mof_H 	H 	0.0652	0.579	0.2519	-0.024
Mof_N 	N 	0.05296	0.6204	0.24569	-0.111
Mof_C 	C 	0.02194	0.62679	0.2045	0.09
Mof_H 	H 	0.0349	0.6352	0.1921	-0.012
Mof_N 	N 	0.85676	0.73153	0.18822	-0.22
Mof_N 	N 	0.87768	0.69046	0.18652	-0.111
Mof_N 	N 	0.83835	0.71175	0.17572	-0.234
Mof_N 	N 	0.89859	0.67011	0.18877	-0.11
Mof_C 	C 	0.90275	0.65189	0.21092	0.093
Mof_H 	H 	0.8918	0.6511	0.2274	-0.012
Mof_C 	C 	0.85136	0.68733	0.1751	0.092
Mof_H 	H 	0.8438	0.6705	0.168	-0.031
Mof_C 	C 	0.91867	0.66405	0.16872	0.089
Mof_H 	H 	0.9207	0.6732	0.1513	-0.018
Mof_C 	C 	0.00281	0.60769	0.24248	0.09
Mof_H 	H 	0.0003	0.6008	0.2609	-0.019
Mof_C 	C 	0.06645	0.64464	0.25334	0.091
Mof_H 	H 	0.0598	0.663	0.2503	-0.013
Mof_C 	C 	0.88009	0.7181	0.19479	0.088
Mof_H 	H 	0.8958	0.7261	0.2037	-0.011
Mof_N 	N 	0.02729	0.61856	0.23185	-0.111
Mof_Cu	Cu	0.4705	0.12669	0.1628	0.826
Mof_Cu	Cu	0.44205	0.10004	0.22543	0.825
Mof_N 	N 	0.48353	0.10846	0.22281	-0.23
Mof_N 	N 	0.49548	0.12086	0.1988	-0.213
Mof_N 	N 	0.43459	0.14342	0.17807	-0.231
Mof_N 	N 	0.42447	0.13591	0.20514	-0.21
Mof_N 	N 	0.59201	0.10839	0.26677	-0.23
Mof_N 	N 	0.59033	0.13795	0.26573	-0.217
Mof_C 	C 	0.56936	0.0982	0.25436	0.085
Mof_H 	H 	0.5652	0.079	0.2519	-0.024
Mof_N 	N 	0.55296	0.1204	0.24569	-0.111
Mof_C 	C 	0.52194	0.12679	0.2045	0.09
Mof_H 	H 	0.5349	0.1352	0.1921	-0.012
Mof_N 	N 	0.35676	0.23153	0.18822	-0.22
Mof_N 	N 	0.37768	0.19046	0.18652	-0.111
Mof_N 	N 	0.33835	0.21175	0.17572	-0.234
Mof_N 	N 	0.39859	0.17011	0.18877	-0.11
Mof_C 	C 	0.40275	0.15189	0.21092	0.093
Mof_H 	H 	0.3918	0.1511	0.2274	-0.012
Mof_C 	C 	0.35136	0.18733	0.1751	0.092
Mof_H 	H 	0.3438	0.1705	0.168	-0.031
Mof_C 	C 	0.41867	0.16405	0.16872	0.089
Mof_H 	H 	0.4207	0.1732	0.1513	-0.018
Mof_C 	C 	0.50281	0.10769	0.24248	0.09
Mof_H 	H 	0.5003	0.1008	0.2609	-0.019
Mof_C 	C 	0.56645	0.14464	0.25334	0.091
Mof_H 	H 	0.5598	0.163	0.2503	-0.013
Mof_C 	C 	0.38009	0.2181	0.19479	0.088
Mof_H 	H 	0.3958	0.2261	0.2037	-0.011
Mof_N 	N 	0.52729	0.11856	0.23185	-0.111
Mof_Cu	Cu	0.4705	0.62669	0.6628	0.826
Mof_Cu	Cu	0.44205	0.60004	0.72543	0.825
Mof_N 	N 	0.48353	0.60846	0.72281	-0.23
Mof_N 	N 	0.49548	0.62086	0.6988	-0.213
Mof_N 	N 	0.43459	0.64342	0.67807	-0.231
Mof_N 	N 	0.42447	0.63591	0.70514	-0.21
Mof_N 	N 	0.59201	0.60839	0.76677	-0.23
Mof_N 	N 	0.59033	0.63795	0.76573	-0.217
Mof_C 	C 	0.56936	0.5982	0.75436	0.085
Mof_H 	H 	0.5652	0.579	0.7519	-0.024
Mof_N 	N 	0.55296	0.6204	0.74569	-0.111
Mof_C 	C 	0.52194	0.62679	0.7045	0.09
Mof_H 	H 	0.5349	0.6352	0.6921	-0.012
Mof_N 	N 	0.35676	0.73153	0.68822	-0.22
Mof_N 	N 	0.37768	0.69046	0.68652	-0.111
Mof_N 	N 	0.33835	0.71175	0.67572	-0.234
Mof_N 	N 	0.39859	0.67011	0.68877	-0.11
Mof_C 	C 	0.40275	0.65189	0.71092	0.093
Mof_H 	H 	0.3918	0.6511	0.7274	-0.012
Mof_C 	C 	0.35136	0.68733	0.6751	0.092
Mof_H 	H 	0.3438	0.6705	0.668	-0.031
Mof_C 	C 	0.41867	0.66405	0.66872	0.089
Mof_H 	H 	0.4207	0.6732	0.6513	-0.018
Mof_C 	C 	0.50281	0.60769	0.74248	0.09
Mof_H 	H 	0.5003	0.6008	0.7609	-0.019
Mof_C 	C 	0.56645	0.64464	0.75334	0.091
Mof_H 	H 	0.5598	0.663	0.7503	-0.013
Mof_C 	C 	0.38009	0.7181	0.69479	0.088
Mof_H 	H 	0.3958	0.7261	0.7037	-0.011
Mof_N 	N 	0.52729	0.61856	0.73185	-0.111
Mof_Cu	Cu	0.27951	0.62669	0.0872	0.826
Mof_Cu	Cu	0.30795	0.60004	0.02457	0.825
Mof_N 	N 	0.26647	0.60846	0.02719	-0.23
Mof_N 	N 	0.25452	0.62086	0.0512	-0.213
Mof_N 	N 	0.31541	0.64342	0.07193	-0.231
Mof_N 	N 	0.32553	0.63591	0.04486	-0.21
Mof_N 	N 	0.15799	0.60839	0.98323	-0.23
Mof_N 	N 	0.15967	0.63795	0.98427	-0.217
Mof_C 	C 	0.18064	0.5982	0.99564	0.085
Mof_H 	H 	0.1848	0.579	0.9981	-0.024
Mof_N 	N 	0.19704	0.6204	0.00431	-0.111
Mof_C 	C 	0.22806	0.62679	0.0455	0.09
Mof_H 	H 	0.2151	0.6352	0.0579	-0.012
Mof_N 	N 	0.39324	0.73153	0.06178	-0.22
Mof_N 	N 	0.37232	0.69046	0.06348	-0.111
Mof_N 	N 	0.41165	0.71175	0.07428	-0.234
Mof_N 	N 	0.35141	0.67011	0.06123	-0.11
Mof_C 	C 	0.34725	0.65189	0.03908	0.093
Mof_H 	H 	0.3582	0.6511	0.0226	-0.012
Mof_C 	C 	0.39864	0.68733	0.0749	0.092
Mof_H 	H 	0.4062	0.6705	0.082	-0.031
Mof_C 	C 	0.33133	0.66405	0.08128	0.089
Mof_H 	H 	0.3293	0.6732	0.0987	-0.018
Mof_C 	C 	0.24719	0.60769	0.00752	0.09
Mof_H 	H 	0.2497	0.6008	0.9891	-0.019
Mof_C 	C 	0.18355	0.64464	0.99666	0.091
Mof_H 	H 	0.1902	0.663	0.9997	-0.013
Mof_C 	C 	0.36991	0.7181	0.05521	0.088
Mof_H 	H 	0.3542	0.7261	0.0463	-0.011
Mof_N 	N 	0.22271	0.61856	0.01815	-0.111
Mof_Cu	Cu	0.27951	0.12669	0.5872	0.826
Mof_Cu	Cu	0.30795	0.10004	0.52457	0.825
Mof_N 	N 	0.26647	0.10846	0.52719	-0.23
Mof_N 	N 	0.25452	0.12086	0.5512	-0.213
Mof_N 	N 	0.31541	0.14342	0.57193	-0.231
Mof_N 	N 	0.32553	0.13591	0.54486	-0.21
Mof_N 	N 	0.15799	0.10839	0.48323	-0.23
Mof_N 	N 	0.15967	0.13795	0.48427	-0.217
Mof_C 	C 	0.18064	0.0982	0.49564	0.085
Mof_H 	H 	0.1848	0.079	0.4981	-0.024
Mof_N 	N 	0.19704	0.1204	0.50431	-0.111
Mof_C 	C 	0.22806	0.12679	0.5455	0.09
Mof_H 	H 	0.2151	0.1352	0.5579	-0.012
Mof_N 	N 	0.39324	0.23153	0.56178	-0.22
Mof_N 	N 	0.37232	0.19046	0.56348	-0.111
Mof_N 	N 	0.41165	0.21175	0.57428	-0.234
Mof_N 	N 	0.35141	0.17011	0.56123	-0.11
Mof_C 	C 	0.34725	0.15189	0.53908	0.093
Mof_H 	H 	0.3582	0.1511	0.5226	-0.012
Mof_C 	C 	0.39864	0.18733	0.5749	0.092
Mof_H 	H 	0.4062	0.1705	0.582	-0.031
Mof_C 	C 	0.33133	0.16405	0.58128	0.089
Mof_H 	H 	0.3293	0.1732	0.5987	-0.018
Mof_C 	C 	0.24719	0.10769	0.50752	0.09
Mof_H 	H 	0.2497	0.1008	0.4891	-0.019
Mof_C 	C 	0.18355	0.14464	0.49666	0.091
Mof_H 	H 	0.1902	0.163	0.4997	-0.013
Mof_C 	C 	0.36991	0.2181	0.55521	0.088
Mof_H 	H 	0.3542	0.2261	0.5463	-0.011
Mof_N 	N 	0.22271	0.11856	0.51815	-0.111
Mof_Cu	Cu	0.77951	0.62669	0.5872	0.826
Mof_Cu	Cu	0.80795	0.60004	0.52457	0.825
Mof_N 	N 	0.76647	0.60846	0.52719	-0.23
Mof_N 	N 	0.75452	0.62086	0.5512	-0.213
Mof_N 	N 	0.81541	0.64342	0.57193	-0.231
Mof_N 	N 	0.82553	0.63591	0.54486	-0.21
Mof_N 	N 	0.65799	0.60839	0.48323	-0.23
Mof_N 	N 	0.65967	0.63795	0.48427	-0.217
Mof_C 	C 	0.68064	0.5982	0.49564	0.085
Mof_H 	H 	0.6848	0.579	0.4981	-0.024
Mof_N 	N 	0.69704	0.6204	0.50431	-0.111
Mof_C 	C 	0.72806	0.62679	0.5455	0.09
Mof_H 	H 	0.7151	0.6352	0.5579	-0.012
Mof_N 	N 	0.89324	0.73153	0.56178	-0.22
Mof_N 	N 	0.87232	0.69046	0.56348	-0.111
Mof_N 	N 	0.91165	0.71175	0.57428	-0.234
Mof_N 	N 	0.85141	0.67011	0.56123	-0.11
Mof_C 	C 	0.84725	0.65189	0.53908	0.093
Mof_H 	H 	0.8582	0.6511	0.5226	-0.012
Mof_C 	C 	0.89864	0.68733	0.5749	0.092
Mof_H 	H 	0.9062	0.6705	0.582	-0.031
Mof_C 	C 	0.83133	0.66405	0.58128	0.089
Mof_H 	H 	0.8293	0.6732	0.5987	-0.018
Mof_C 	C 	0.74719	0.60769	0.50752	0.09
Mof_H 	H 	0.7497	0.6008	0.4891	-0.019
Mof_C 	C 	0.68355	0.64464	0.49666	0.091
Mof_H 	H 	0.6902	0.663	0.4997	-0.013
Mof_C 	C 	0.86991	0.7181	0.55521	0.088
Mof_H 	H 	0.8542	0.7261	0.5463	-0.011
Mof_N 	N 	0.72271	0.61856	0.51815	-0.111
Mof_Cu	Cu	0.77951	0.12669	0.0872	0.826
Mof_Cu	Cu	0.80795	0.10004	0.02457	0.825
Mof_N 	N 	0.76647	0.10846	0.02719	-0.23
Mof_N 	N 	0.75452	0.12086	0.0512	-0.213
Mof_N 	N 	0.81541	0.14342	0.07193	-0.231
Mof_N 	N 	0.82553	0.13591	0.04486	-0.21
Mof_N 	N 	0.65799	0.10839	0.98323	-0.23
Mof_N 	N 	0.65967	0.13795	0.98427	-0.217
Mof_C 	C 	0.68064	0.0982	0.99564	0.085
Mof_H 	H 	0.6848	0.079	0.9981	-0.024
Mof_N 	N 	0.69704	0.1204	0.00431	-0.111
Mof_C 	C 	0.72806	0.12679	0.0455	0.09
Mof_H 	H 	0.7151	0.1352	0.0579	-0.012
Mof_N 	N 	0.89324	0.23153	0.06178	-0.22
Mof_N 	N 	0.87232	0.19046	0.06348	-0.111
Mof_N 	N 	0.91165	0.21175	0.07428	-0.234
Mof_N 	N 	0.85141	0.17011	0.06123	-0.11
Mof_C 	C 	0.84725	0.15189	0.03908	0.093
Mof_H 	H 	0.8582	0.1511	0.0226	-0.012
Mof_C 	C 	0.89864	0.18733	0.0749	0.092
Mof_H 	H 	0.9062	0.1705	0.082	-0.031
Mof_C 	C 	0.83133	0.16405	0.08128	0.089
Mof_H 	H 	0.8293	0.1732	0.0987	-0.018
Mof_C 	C 	0.74719	0.10769	0.00752	0.09
Mof_H 	H 	0.7497	0.1008	0.9891	-0.019
Mof_C 	C 	0.68355	0.14464	0.99666	0.091
Mof_H 	H 	0.6902	0.163	0.9997	-0.013
Mof_C 	C 	0.86991	0.2181	0.05521	0.088
Mof_H 	H 	0.8542	0.2261	0.0463	-0.011
Mof_N 	N 	0.72271	0.11856	0.01815	-0.111
Mof_Cu	Cu	0.77951	0.12331	0.1628	0.826
Mof_Cu	Cu	0.80795	0.14996	0.22543	0.825
Mof_N 	N 	0.76647	0.14154	0.22281	-0.23
Mof_N 	N 	0.75452	0.12914	0.1988	-0.213
Mof_N 	N 	0.81541	0.10658	0.17807	-0.231
Mof_N 	N 	0.82553	0.11409	0.20514	-0.21
Mof_N 	N 	0.65799	0.14161	0.26677	-0.23
Mof_N 	N 	0.65967	0.11205	0.26573	-0.217
Mof_C 	C 	0.68064	0.1518	0.25436	0.085
Mof_H 	H 	0.6848	0.171	0.2519	-0.024
Mof_N 	N 	0.69704	0.1296	0.24569	-0.111
Mof_C 	C 	0.72806	0.12321	0.2045	0.09
Mof_H 	H 	0.7151	0.1148	0.1921	-0.012
Mof_N 	N 	0.89324	0.01847	0.18822	-0.22
Mof_N 	N 	0.87232	0.05954	0.18652	-0.111
Mof_N 	N 	0.91165	0.03825	0.17572	-0.234
Mof_N 	N 	0.85141	0.07989	0.18877	-0.11
Mof_C 	C 	0.84725	0.09811	0.21092	0.093
Mof_H 	H 	0.8582	0.0989	0.2274	-0.012
Mof_C 	C 	0.89864	0.06267	0.1751	0.092
Mof_H 	H 	0.9062	0.0795	0.168	-0.031
Mof_C 	C 	0.83133	0.08595	0.16872	0.089
Mof_H 	H 	0.8293	0.0768	0.1513	-0.018
Mof_C 	C 	0.74719	0.14231	0.24248	0.09
Mof_H 	H 	0.7497	0.1492	0.2609	-0.019
Mof_C 	C 	0.68355	0.10536	0.25334	0.091
Mof_H 	H 	0.6902	0.087	0.2503	-0.013
Mof_C 	C 	0.86991	0.0319	0.19479	0.088
Mof_H 	H 	0.8542	0.0239	0.2037	-0.011
Mof_N 	N 	0.72271	0.13144	0.23185	-0.111
Mof_Cu	Cu	0.77951	0.62331	0.6628	0.826
Mof_Cu	Cu	0.80795	0.64996	0.72543	0.825
Mof_N 	N 	0.76647	0.64154	0.72281	-0.23
Mof_N 	N 	0.75452	0.62914	0.6988	-0.213
Mof_N 	N 	0.81541	0.60658	0.67807	-0.231
Mof_N 	N 	0.82553	0.61409	0.70514	-0.21
Mof_N 	N 	0.65799	0.64161	0.76677	-0.23
Mof_N 	N 	0.65967	0.61205	0.76573	-0.217
Mof_C 	C 	0.68064	0.6518	0.75436	0.085
Mof_H 	H 	0.6848	0.671	0.7519	-0.024
Mof_N 	N 	0.69704	0.6296	0.74569	-0.111
Mof_C 	C 	0.72806	0.62321	0.7045	0.09
Mof_H 	H 	0.7151	0.6148	0.6921	-0.012
Mof_N 	N 	0.89324	0.51847	0.68822	-0.22
Mof_N 	N 	0.87232	0.55954	0.68652	-0.111
Mof_N 	N 	0.91165	0.53825	0.67572	-0.234
Mof_N 	N 	0.85141	0.57989	0.68877	-0.11
Mof_C 	C 	0.84725	0.59811	0.71092	0.093
Mof_H 	H 	0.8582	0.5989	0.7274	-0.012
Mof_C 	C 	0.89864	0.56267	0.6751	0.092
Mof_H 	H 	0.9062	0.5795	0.668	-0.031
Mof_C 	C 	0.83133	0.58595	0.66872	0.089
Mof_H 	H 	0.8293	0.5768	0.6513	-0.018
Mof_C 	C 	0.74719	0.64231	0.74248	0.09
Mof_H 	H 	0.7497	0.6492	0.7609	-0.019
Mof_C 	C 	0.68355	0.60536	0.75334	0.091
Mof_H 	H 	0.6902	0.587	0.7503	-0.013
Mof_C 	C 	0.86991	0.5319	0.69479	0.088
Mof_H 	H 	0.8542	0.5239	0.7037	-0.011
Mof_N 	N 	0.72271	0.63144	0.73185	-0.111
Mof_Cu	Cu	0.27951	0.12331	0.6628	0.826
Mof_Cu	Cu	0.30795	0.14996	0.72543	0.825
Mof_N 	N 	0.26647	0.14154	0.72281	-0.23
Mof_N 	N 	0.25452	0.12914	0.6988	-0.213
Mof_N 	N 	0.31541	0.10658	0.67807	-0.231
Mof_N 	N 	0.32553	0.11409	0.70514	-0.21
Mof_N 	N 	0.15799	0.14161	0.76677	-0.23
Mof_N 	N 	0.15967	0.11205	0.76573	-0.217
Mof_C 	C 	0.18064	0.1518	0.75436	0.085
Mof_H 	H 	0.1848	0.171	0.7519	-0.024
Mof_N 	N 	0.19704	0.1296	0.74569	-0.111
Mof_C 	C 	0.22806	0.12321	0.7045	0.09
Mof_H 	H 	0.2151	0.1148	0.6921	-0.012
Mof_N 	N 	0.39324	0.01847	0.68822	-0.22
Mof_N 	N 	0.37232	0.05954	0.68652	-0.111
Mof_N 	N 	0.41165	0.03825	0.67572	-0.234
Mof_N 	N 	0.35141	0.07989	0.68877	-0.11
Mof_C 	C 	0.34725	0.09811	0.71092	0.093
Mof_H 	H 	0.3582	0.0989	0.7274	-0.012
Mof_C 	C 	0.39864	0.06267	0.6751	0.092
Mof_H 	H 	0.4062	0.0795	0.668	-0.031
Mof_C 	C 	0.33133	0.08595	0.66872	0.089
Mof_H 	H 	0.3293	0.0768	0.6513	-0.018
Mof_C 	C 	0.24719	0.14231	0.74248	0.09
Mof_H 	H 	0.2497	0.1492	0.7609	-0.019
Mof_C 	C 	0.18355	0.10536	0.75334	0.091
Mof_H 	H 	0.1902	0.087	0.7503	-0.013
Mof_C 	C 	0.36991	0.0319	0.69479	0.088
Mof_H 	H 	0.3542	0.0239	0.7037	-0.011
Mof_N 	N 	0.22271	0.13144	0.73185	-0.111
Mof_Cu	Cu	0.27951	0.62331	0.1628	0.826
Mof_Cu	Cu	0.30795	0.64996	0.22543	0.825
Mof_N 	N 	0.26647	0.64154	0.22281	-0.23
Mof_N 	N 	0.25452	0.62914	0.1988	-0.213
Mof_N 	N 	0.31541	0.60658	0.17807	-0.231
Mof_N 	N 	0.32553	0.61409	0.20514	-0.21
Mof_N 	N 	0.15799	0.64161	0.26677	-0.23
Mof_N 	N 	0.15967	0.61205	0.26573	-0.217
Mof_C 	C 	0.18064	0.6518	0.25436	0.085
Mof_H 	H 	0.1848	0.671	0.2519	-0.024
Mof_N 	N 	0.19704	0.6296	0.24569	-0.111
Mof_C 	C 	0.22806	0.62321	0.2045	0.09
Mof_H 	H 	0.2151	0.6148	0.1921	-0.012
Mof_N 	N 	0.39324	0.51847	0.18822	-0.22
Mof_N 	N 	0.37232	0.55954	0.18652	-0.111
Mof_N 	N 	0.41165	0.53825	0.17572	-0.234
Mof_N 	N 	0.35141	0.57989	0.18877	-0.11
Mof_C 	C 	0.34725	0.59811	0.21092	0.093
Mof_H 	H 	0.3582	0.5989	0.2274	-0.012
Mof_C 	C 	0.39864	0.56267	0.1751	0.092
Mof_H 	H 	0.4062	0.5795	0.168	-0.031
Mof_C 	C 	0.33133	0.58595	0.16872	0.089
Mof_H 	H 	0.3293	0.5768	0.1513	-0.018
Mof_C 	C 	0.24719	0.64231	0.24248	0.09
Mof_H 	H 	0.2497	0.6492	0.2609	-0.019
Mof_C 	C 	0.18355	0.60536	0.25334	0.091
Mof_H 	H 	0.1902	0.587	0.2503	-0.013
Mof_C 	C 	0.36991	0.5319	0.19479	0.088
Mof_H 	H 	0.3542	0.5239	0.2037	-0.011
Mof_N 	N 	0.22271	0.63144	0.23185	-0.111
Mof_Cu	Cu	0.5872	0.4705	0.62331	0.826
Mof_Cu	Cu	0.52457	0.44205	0.64996	0.825
Mof_N 	N 	0.52719	0.48353	0.64154	-0.23
Mof_N 	N 	0.5512	0.49548	0.62914	-0.213
Mof_N 	N 	0.57193	0.43459	0.60658	-0.231
Mof_N 	N 	0.54486	0.42447	0.61409	-0.21
Mof_N 	N 	0.48323	0.59201	0.64161	-0.23
Mof_N 	N 	0.48427	0.59033	0.61205	-0.217
Mof_C 	C 	0.49564	0.56936	0.6518	0.085
Mof_H 	H 	0.4981	0.5652	0.671	-0.024
Mof_N 	N 	0.50431	0.55296	0.6296	-0.111
Mof_C 	C 	0.5455	0.52194	0.62321	0.09
Mof_H 	H 	0.5579	0.5349	0.6148	-0.012
Mof_N 	N 	0.56178	0.35676	0.51847	-0.22
Mof_N 	N 	0.56348	0.37768	0.55954	-0.111
Mof_N 	N 	0.57428	0.33835	0.53825	-0.234
Mof_N 	N 	0.56123	0.39859	0.57989	-0.11
Mof_C 	C 	0.53908	0.40275	0.59811	0.093
Mof_H 	H 	0.5226	0.3918	0.5989	-0.012
Mof_C 	C 	0.5749	0.35136	0.56267	0.092
Mof_H 	H 	0.582	0.3438	0.5795	-0.031
Mof_C 	C 	0.58128	0.41867	0.58595	0.089
Mof_H 	H 	0.5987	0.4207	0.5768	-0.018
Mof_C 	C 	0.50752	0.50281	0.64231	0.09
Mof_H 	H 	0.4891	0.5003	0.6492	-0.019
Mof_C 	C 	0.49666	0.56645	0.60536	0.091
Mof_H 	H 	0.4997	0.5598	0.587	-0.013
Mof_C 	C 	0.55521	0.38009	0.5319	0.088
Mof_H 	H 	0.5463	0.3958	0.5239	-0.011
Mof_N 	N 	0.51815	0.52729	0.63144	-0.111
Mof_Cu	Cu	0.5872	0.9705	0.12331	0.826
Mof_Cu	Cu	0.52457	0.94205	0.14996	0.825
Mof_N 	N 	0.52719	0.98353	0.14154	-0.23
Mof_N 	N 	0.5512	0.99548	0.12914	-0.213
Mof_N 	N 	0.57193	0.93459	0.10658	-0.231
Mof_N 	N 	0.54486	0.92447	0.11409	-0.21
Mof_N 	N 	0.48323	0.09201	0.14161	-0.23
Mof_N 	N 	0.48427	0.09033	0.11205	-0.217
Mof_C 	C 	0.49564	0.06936	0.1518	0.085
Mof_H 	H 	0.4981	0.0652	0.171	-0.024
Mof_N 	N 	0.50431	0.05296	0.1296	-0.111
Mof_C 	C 	0.5455	0.02194	0.12321	0.09
Mof_H 	H 	0.5579	0.0349	0.1148	-0.012
Mof_N 	N 	0.56178	0.85676	0.01847	-0.22
Mof_N 	N 	0.56348	0.87768	0.05954	-0.111
Mof_N 	N 	0.57428	0.83835	0.03825	-0.234
Mof_N 	N 	0.56123	0.89859	0.07989	-0.11
Mof_C 	C 	0.53908	0.90275	0.09811	0.093
Mof_H 	H 	0.5226	0.8918	0.0989	-0.012
Mof_C 	C 	0.5749	0.85136	0.06267	0.092
Mof_H 	H 	0.582	0.8438	0.0795	-0.031
Mof_C 	C 	0.58128	0.91867	0.08595	0.089
Mof_H 	H 	0.5987	0.9207	0.0768	-0.018
Mof_C 	C 	0.50752	0.00281	0.14231	0.09
Mof_H 	H 	0.4891	0.0003	0.1492	-0.019
Mof_C 	C 	0.49666	0.06645	0.10536	0.091
Mof_H 	H 	0.4997	0.0598	0.087	-0.013
Mof_C 	C 	0.55521	0.88009	0.0319	0.088
Mof_H 	H 	0.5463	0.8958	0.0239	-0.011
Mof_N 	N 	0.51815	0.02729	0.13144	-0.111
Mof_Cu	Cu	0.0872	0.4705	0.12331	0.826
Mof_Cu	Cu	0.02457	0.44205	0.14996	0.825
Mof_N 	N 	0.02719	0.48353	0.14154	-0.23
Mof_N 	N 	0.0512	0.49548	0.12914	-0.213
Mof_N 	N 	0.07193	0.43459	0.10658	-0.231
Mof_N 	N 	0.04486	0.42447	0.11409	-0.21
Mof_N 	N 	0.98323	0.59201	0.14161	-0.23
Mof_N 	N 	0.98427	0.59033	0.11205	-0.217
Mof_C 	C 	0.99564	0.56936	0.1518	0.085
Mof_H 	H 	0.9981	0.5652	0.171	-0.024
Mof_N 	N 	0.00431	0.55296	0.1296	-0.111
Mof_C 	C 	0.0455	0.52194	0.12321	0.09
Mof_H 	H 	0.0579	0.5349	0.1148	-0.012
Mof_N 	N 	0.06178	0.35676	0.01847	-0.22
Mof_N 	N 	0.06348	0.37768	0.05954	-0.111
Mof_N 	N 	0.07428	0.33835	0.03825	-0.234
Mof_N 	N 	0.06123	0.39859	0.07989	-0.11
Mof_C 	C 	0.03908	0.40275	0.09811	0.093
Mof_H 	H 	0.0226	0.3918	0.0989	-0.012
Mof_C 	C 	0.0749	0.35136	0.06267	0.092
Mof_H 	H 	0.082	0.3438	0.0795	-0.031
Mof_C 	C 	0.08128	0.41867	0.08595	0.089
Mof_H 	H 	0.0987	0.4207	0.0768	-0.018
Mof_C 	C 	0.00752	0.50281	0.14231	0.09
Mof_H 	H 	0.9891	0.5003	0.1492	-0.019
Mof_C 	C 	0.99666	0.56645	0.10536	0.091
Mof_H 	H 	0.9997	0.5598	0.087	-0.013
Mof_C 	C 	0.05521	0.38009	0.0319	0.088
Mof_H 	H 	0.0463	0.3958	0.0239	-0.011
Mof_N 	N 	0.01815	0.52729	0.13144	-0.111
Mof_Cu	Cu	0.0872	0.9705	0.62331	0.826
Mof_Cu	Cu	0.02457	0.94205	0.64996	0.825
Mof_N 	N 	0.02719	0.98353	0.64154	-0.23
Mof_N 	N 	0.0512	0.99548	0.62914	-0.213
Mof_N 	N 	0.07193	0.93459	0.60658	-0.231
Mof_N 	N 	0.04486	0.92447	0.61409	-0.21
Mof_N 	N 	0.98323	0.09201	0.64161	-0.23
Mof_N 	N 	0.98427	0.09033	0.61205	-0.217
Mof_C 	C 	0.99564	0.06936	0.6518	0.085
Mof_H 	H 	0.9981	0.0652	0.671	-0.024
Mof_N 	N 	0.00431	0.05296	0.6296	-0.111
Mof_C 	C 	0.0455	0.02194	0.62321	0.09
Mof_H 	H 	0.0579	0.0349	0.6148	-0.012
Mof_N 	N 	0.06178	0.85676	0.51847	-0.22
Mof_N 	N 	0.06348	0.87768	0.55954	-0.111
Mof_N 	N 	0.07428	0.83835	0.53825	-0.234
Mof_N 	N 	0.06123	0.89859	0.57989	-0.11
Mof_C 	C 	0.03908	0.90275	0.59811	0.093
Mof_H 	H 	0.0226	0.8918	0.5989	-0.012
Mof_C 	C 	0.0749	0.85136	0.56267	0.092
Mof_H 	H 	0.082	0.8438	0.5795	-0.031
Mof_C 	C 	0.08128	0.91867	0.58595	0.089
Mof_H 	H 	0.0987	0.9207	0.5768	-0.018
Mof_C 	C 	0.00752	0.00281	0.64231	0.09
Mof_H 	H 	0.9891	0.0003	0.6492	-0.019
Mof_C 	C 	0.99666	0.06645	0.60536	0.091
Mof_H 	H 	0.9997	0.0598	0.587	-0.013
Mof_C 	C 	0.05521	0.88009	0.5319	0.088
Mof_H 	H 	0.0463	0.8958	0.5239	-0.011
Mof_N 	N 	0.01815	0.02729	0.63144	-0.111
Mof_Cu	Cu	0.6628	0.9705	0.12669	0.826
Mof_Cu	Cu	0.72543	0.94205	0.10004	0.825
Mof_N 	N 	0.72281	0.98353	0.10846	-0.23
Mof_N 	N 	0.6988	0.99548	0.12086	-0.213
Mof_N 	N 	0.67807	0.93459	0.14342	-0.231
Mof_N 	N 	0.70514	0.92447	0.13591	-0.21
Mof_N 	N 	0.76677	0.09201	0.10839	-0.23
Mof_N 	N 	0.76573	0.09033	0.13795	-0.217
Mof_C 	C 	0.75436	0.06936	0.0982	0.085
Mof_H 	H 	0.7519	0.0652	0.079	-0.024
Mof_N 	N 	0.74569	0.05296	0.1204	-0.111
Mof_C 	C 	0.7045	0.02194	0.12679	0.09
Mof_H 	H 	0.6921	0.0349	0.1352	-0.012
Mof_N 	N 	0.68822	0.85676	0.23153	-0.22
Mof_N 	N 	0.68652	0.87768	0.19046	-0.111
Mof_N 	N 	0.67572	0.83835	0.21175	-0.234
Mof_N 	N 	0.68877	0.89859	0.17011	-0.11
Mof_C 	C 	0.71092	0.90275	0.15189	0.093
Mof_H 	H 	0.7274	0.8918	0.1511	-0.012
Mof_C 	C 	0.6751	0.85136	0.18733	0.092
Mof_H 	H 	0.668	0.8438	0.1705	-0.031
Mof_C 	C 	0.66872	0.91867	0.16405	0.089
Mof_H 	H 	0.6513	0.9207	0.1732	-0.018
Mof_C 	C 	0.74248	0.00281	0.10769	0.09
Mof_H 	H 	0.7609	0.0003	0.1008	-0.019
Mof_C 	C 	0.75334	0.06645	0.14464	0.091
Mof_H 	H 	0.7503	0.0598	0.163	-0.013
Mof_C 	C 	0.69479	0.88009	0.2181	0.088
Mof_H 	H 	0.7037	0.8958	0.2261	-0.011
Mof_N 	N 	0.73185	0.02729	0.11856	-0.111
Mof_Cu	Cu	0.6628	0.4705	0.62669	0.826
Mof_Cu	Cu	0.72543	0.44205	0.60004	0.825
Mof_N 	N 	0.72281	0.48353	0.60846	-0.23
Mof_N 	N 	0.6988	0.49548	0.62086	-0.213
Mof_N 	N 	0.67807	0.43459	0.64342	-0.231
Mof_N 	N 	0.70514	0.42447	0.63591	-0.21
Mof_N 	N 	0.76677	0.59201	0.60839	-0.23
Mof_N 	N 	0.76573	0.59033	0.63795	-0.217
Mof_C 	C 	0.75436	0.56936	0.5982	0.085
Mof_H 	H 	0.7519	0.5652	0.579	-0.024
Mof_N 	N 	0.74569	0.55296	0.6204	-0.111
Mof_C 	C 	0.7045	0.52194	0.62679	0.09
Mof_H 	H 	0.6921	0.5349	0.6352	-0.012
Mof_N 	N 	0.68822	0.35676	0.73153	-0.22
Mof_N 	N 	0.68652	0.37768	0.69046	-0.111
Mof_N 	N 	0.67572	0.33835	0.71175	-0.234
Mof_N 	N 	0.68877	0.39859	0.67011	-0.11
Mof_C 	C 	0.71092	0.40275	0.65189	0.093
Mof_H 	H 	0.7274	0.3918	0.6511	-0.012
Mof_C 	C 	0.6751	0.35136	0.68733	0.092
Mof_H 	H 	0.668	0.3438	0.6705	-0.031
Mof_C 	C 	0.66872	0.41867	0.66405	0.089
Mof_H 	H 	0.6513	0.4207	0.6732	-0.018
Mof_C 	C 	0.74248	0.50281	0.60769	0.09
Mof_H 	H 	0.7609	0.5003	0.6008	-0.019
Mof_C 	C 	0.75334	0.56645	0.64464	0.091
Mof_H 	H 	0.7503	0.5598	0.663	-0.013
Mof_C 	C 	0.69479	0.38009	0.7181	0.088
Mof_H 	H 	0.7037	0.3958	0.7261	-0.011
Mof_N 	N 	0.73185	0.52729	0.61856	-0.111
Mof_Cu	Cu	0.1628	0.9705	0.62669	0.826
Mof_Cu	Cu	0.22543	0.94205	0.60004	0.825
Mof_N 	N 	0.22281	0.98353	0.60846	-0.23
Mof_N 	N 	0.1988	0.99548	0.62086	-0.213
Mof_N 	N 	0.17807	0.93459	0.64342	-0.231
Mof_N 	N 	0.20514	0.92447	0.63591	-0.21
Mof_N 	N 	0.26677	0.09201	0.60839	-0.23
Mof_N 	N 	0.26573	0.09033	0.63795	-0.217
Mof_C 	C 	0.25436	0.06936	0.5982	0.085
Mof_H 	H 	0.2519	0.0652	0.579	-0.024
Mof_N 	N 	0.24569	0.05296	0.6204	-0.111
Mof_C 	C 	0.2045	0.02194	0.62679	0.09
Mof_H 	H 	0.1921	0.0349	0.6352	-0.012
Mof_N 	N 	0.18822	0.85676	0.73153	-0.22
Mof_N 	N 	0.18652	0.87768	0.69046	-0.111
Mof_N 	N 	0.17572	0.83835	0.71175	-0.234
Mof_N 	N 	0.18877	0.89859	0.67011	-0.11
Mof_C 	C 	0.21092	0.90275	0.65189	0.093
Mof_H 	H 	0.2274	0.8918	0.6511	-0.012
Mof_C 	C 	0.1751	0.85136	0.68733	0.092
Mof_H 	H 	0.168	0.8438	0.6705	-0.031
Mof_C 	C 	0.16872	0.91867	0.66405	0.089
Mof_H 	H 	0.1513	0.9207	0.6732	-0.018
Mof_C 	C 	0.24248	0.00281	0.60769	0.09
Mof_H 	H 	0.2609	0.0003	0.6008	-0.019
Mof_C 	C 	0.25334	0.06645	0.64464	0.091
Mof_H 	H 	0.2503	0.0598	0.663	-0.013
Mof_C 	C 	0.19479	0.88009	0.7181	0.088
Mof_H 	H 	0.2037	0.8958	0.7261	-0.011
Mof_N 	N 	0.23185	0.02729	0.61856	-0.111
Mof_Cu	Cu	0.1628	0.4705	0.12669	0.826
Mof_Cu	Cu	0.22543	0.44205	0.10004	0.825
Mof_N 	N 	0.22281	0.48353	0.10846	-0.23
Mof_N 	N 	0.1988	0.49548	0.12086	-0.213
Mof_N 	N 	0.17807	0.43459	0.14342	-0.231
Mof_N 	N 	0.20514	0.42447	0.13591	-0.21
Mof_N 	N 	0.26677	0.59201	0.10839	-0.23
Mof_N 	N 	0.26573	0.59033	0.13795	-0.217
Mof_C 	C 	0.25436	0.56936	0.0982	0.085
Mof_H 	H 	0.2519	0.5652	0.079	-0.024
Mof_N 	N 	0.24569	0.55296	0.1204	-0.111
Mof_C 	C 	0.2045	0.52194	0.12679	0.09
Mof_H 	H 	0.1921	0.5349	0.1352	-0.012
Mof_N 	N 	0.18822	0.35676	0.23153	-0.22
Mof_N 	N 	0.18652	0.37768	0.19046	-0.111
Mof_N 	N 	0.17572	0.33835	0.21175	-0.234
Mof_N 	N 	0.18877	0.39859	0.17011	-0.11
Mof_C 	C 	0.21092	0.40275	0.15189	0.093
Mof_H 	H 	0.2274	0.3918	0.1511	-0.012
Mof_C 	C 	0.1751	0.35136	0.18733	0.092
Mof_H 	H 	0.168	0.3438	0.1705	-0.031
Mof_C 	C 	0.16872	0.41867	0.16405	0.089
Mof_H 	H 	0.1513	0.4207	0.1732	-0.018
Mof_C 	C 	0.24248	0.50281	0.10769	0.09
Mof_H 	H 	0.2609	0.5003	0.1008	-0.019
Mof_C 	C 	0.25334	0.56645	0.14464	0.091
Mof_H 	H 	0.2503	0.5598	0.163	-0.013
Mof_C 	C 	0.19479	0.38009	0.2181	0.088
Mof_H 	H 	0.2037	0.3958	0.2261	-0.011
Mof_N 	N 	0.23185	0.52729	0.11856	-0.111
Mof_Cu	Cu	0.0872	0.27951	0.62669	0.826
Mof_Cu	Cu	0.02457	0.30795	0.60004	0.825
Mof_N 	N 	0.02719	0.26647	0.60846	-0.23
Mof_N 	N 	0.0512	0.25452	0.62086	-0.213
Mof_N 	N 	0.07193	0.31541	0.64342	-0.231
Mof_N 	N 	0.04486	0.32553	0.63591	-0.21
Mof_N 	N 	0.98323	0.15799	0.60839	-0.23
Mof_N 	N 	0.98427	0.15967	0.63795	-0.217
Mof_C 	C 	0.99564	0.18064	0.5982	0.085
Mof_H 	H 	0.9981	0.1848	0.579	-0.024
Mof_N 	N 	0.00431	0.19704	0.6204	-0.111
Mof_C 	C 	0.0455	0.22806	0.62679	0.09
Mof_H 	H 	0.0579	0.2151	0.6352	-0.012
Mof_N 	N 	0.06178	0.39324	0.73153	-0.22
Mof_N 	N 	0.06348	0.37232	0.69046	-0.111
Mof_N 	N 	0.07428	0.41165	0.71175	-0.234
Mof_N 	N 	0.06123	0.35141	0.67011	-0.11
Mof_C 	C 	0.03908	0.34725	0.65189	0.093
Mof_H 	H 	0.0226	0.3582	0.6511	-0.012
Mof_C 	C 	0.0749	0.39864	0.68733	0.092
Mof_H 	H 	0.082	0.4062	0.6705	-0.031
Mof_C 	C 	0.08128	0.33133	0.66405	0.089
Mof_H 	H 	0.0987	0.3293	0.6732	-0.018
Mof_C 	C 	0.00752	0.24719	0.60769	0.09
Mof_H 	H 	0.9891	0.2497	0.6008	-0.019
Mof_C 	C 	0.99666	0.18355	0.64464	0.091
Mof_H 	H 	0.9997	0.1902	0.663	-0.013
Mof_C 	C 	0.05521	0.36991	0.7181	0.088
Mof_H 	H 	0.0463	0.3542	0.7261	-0.011
Mof_N 	N 	0.01815	0.22271	0.61856	-0.111
Mof_Cu	Cu	0.0872	0.77951	0.12669	0.826
Mof_Cu	Cu	0.02457	0.80795	0.10004	0.825
Mof_N 	N 	0.02719	0.76647	0.10846	-0.23
Mof_N 	N 	0.0512	0.75452	0.12086	-0.213
Mof_N 	N 	0.07193	0.81541	0.14342	-0.231
Mof_N 	N 	0.04486	0.82553	0.13591	-0.21
Mof_N 	N 	0.98323	0.65799	0.10839	-0.23
Mof_N 	N 	0.98427	0.65967	0.13795	-0.217
Mof_C 	C 	0.99564	0.68064	0.0982	0.085
Mof_H 	H 	0.9981	0.6848	0.079	-0.024
Mof_N 	N 	0.00431	0.69704	0.1204	-0.111
Mof_C 	C 	0.0455	0.72806	0.12679	0.09
Mof_H 	H 	0.0579	0.7151	0.1352	-0.012
Mof_N 	N 	0.06178	0.89324	0.23153	-0.22
Mof_N 	N 	0.06348	0.87232	0.19046	-0.111
Mof_N 	N 	0.07428	0.91165	0.21175	-0.234
Mof_N 	N 	0.06123	0.85141	0.17011	-0.11
Mof_C 	C 	0.03908	0.84725	0.15189	0.093
Mof_H 	H 	0.0226	0.8582	0.1511	-0.012
Mof_C 	C 	0.0749	0.89864	0.18733	0.092
Mof_H 	H 	0.082	0.9062	0.1705	-0.031
Mof_C 	C 	0.08128	0.83133	0.16405	0.089
Mof_H 	H 	0.0987	0.8293	0.1732	-0.018
Mof_C 	C 	0.00752	0.74719	0.10769	0.09
Mof_H 	H 	0.9891	0.7497	0.1008	-0.019
Mof_C 	C 	0.99666	0.68355	0.14464	0.091
Mof_H 	H 	0.9997	0.6902	0.163	-0.013
Mof_C 	C 	0.05521	0.86991	0.2181	0.088
Mof_H 	H 	0.0463	0.8542	0.2261	-0.011
Mof_N 	N 	0.01815	0.72271	0.11856	-0.111
Mof_Cu	Cu	0.5872	0.27951	0.12669	0.826
Mof_Cu	Cu	0.52457	0.30795	0.10004	0.825
Mof_N 	N 	0.52719	0.26647	0.10846	-0.23
Mof_N 	N 	0.5512	0.25452	0.12086	-0.213
Mof_N 	N 	0.57193	0.31541	0.14342	-0.231
Mof_N 	N 	0.54486	0.32553	0.13591	-0.21
Mof_N 	N 	0.48323	0.15799	0.10839	-0.23
Mof_N 	N 	0.48427	0.15967	0.13795	-0.217
Mof_C 	C 	0.49564	0.18064	0.0982	0.085
Mof_H 	H 	0.4981	0.1848	0.079	-0.024
Mof_N 	N 	0.50431	0.19704	0.1204	-0.111
Mof_C 	C 	0.5455	0.22806	0.12679	0.09
Mof_H 	H 	0.5579	0.2151	0.1352	-0.012
Mof_N 	N 	0.56178	0.39324	0.23153	-0.22
Mof_N 	N 	0.56348	0.37232	0.19046	-0.111
Mof_N 	N 	0.57428	0.41165	0.21175	-0.234
Mof_N 	N 	0.56123	0.35141	0.17011	-0.11
Mof_C 	C 	0.53908	0.34725	0.15189	0.093
Mof_H 	H 	0.5226	0.3582	0.1511	-0.012
Mof_C 	C 	0.5749	0.39864	0.18733	0.092
Mof_H 	H 	0.582	0.4062	0.1705	-0.031
Mof_C 	C 	0.58128	0.33133	0.16405	0.089
Mof_H 	H 	0.5987	0.3293	0.1732	-0.018
Mof_C 	C 	0.50752	0.24719	0.10769	0.09
Mof_H 	H 	0.4891	0.2497	0.1008	-0.019
Mof_C 	C 	0.49666	0.18355	0.14464	0.091
Mof_H 	H 	0.4997	0.1902	0.163	-0.013
Mof_C 	C 	0.55521	0.36991	0.2181	0.088
Mof_H 	H 	0.5463	0.3542	0.2261	-0.011
Mof_N 	N 	0.51815	0.22271	0.11856	-0.111
Mof_Cu	Cu	0.5872	0.77951	0.62669	0.826
Mof_Cu	Cu	0.52457	0.80795	0.60004	0.825
Mof_N 	N 	0.52719	0.76647	0.60846	-0.23
Mof_N 	N 	0.5512	0.75452	0.62086	-0.213
Mof_N 	N 	0.57193	0.81541	0.64342	-0.231
Mof_N 	N 	0.54486	0.82553	0.63591	-0.21
Mof_N 	N 	0.48323	0.65799	0.60839	-0.23
Mof_N 	N 	0.48427	0.65967	0.63795	-0.217
Mof_C 	C 	0.49564	0.68064	0.5982	0.085
Mof_H 	H 	0.4981	0.6848	0.579	-0.024
Mof_N 	N 	0.50431	0.69704	0.6204	-0.111
Mof_C 	C 	0.5455	0.72806	0.62679	0.09
Mof_H 	H 	0.5579	0.7151	0.6352	-0.012
Mof_N 	N 	0.56178	0.89324	0.73153	-0.22
Mof_N 	N 	0.56348	0.87232	0.69046	-0.111
Mof_N 	N 	0.57428	0.91165	0.71175	-0.234
Mof_N 	N 	0.56123	0.85141	0.67011	-0.11
Mof_C 	C 	0.53908	0.84725	0.65189	0.093
Mof_H 	H 	0.5226	0.8582	0.6511	-0.012
Mof_C 	C 	0.5749	0.89864	0.68733	0.092
Mof_H 	H 	0.582	0.9062	0.6705	-0.031
Mof_C 	C 	0.58128	0.83133	0.66405	0.089
Mof_H 	H 	0.5987	0.8293	0.6732	-0.018
Mof_C 	C 	0.50752	0.74719	0.60769	0.09
Mof_H 	H 	0.4891	0.7497	0.6008	-0.019
Mof_C 	C 	0.49666	0.68355	0.64464	0.091
Mof_H 	H 	0.4997	0.6902	0.663	-0.013
Mof_C 	C 	0.55521	0.86991	0.7181	0.088
Mof_H 	H 	0.5463	0.8542	0.7261	-0.011
Mof_N 	N 	0.51815	0.72271	0.61856	-0.111
Mof_Cu	Cu	0.1628	0.77951	0.12331	0.826
Mof_Cu	Cu	0.22543	0.80795	0.14996	0.825
Mof_N 	N 	0.22281	0.76647	0.14154	-0.23
Mof_N 	N 	0.1988	0.75452	0.12914	-0.213
Mof_N 	N 	0.17807	0.81541	0.10658	-0.231
Mof_N 	N 	0.20514	0.82553	0.11409	-0.21
Mof_N 	N 	0.26677	0.65799	0.14161	-0.23
Mof_N 	N 	0.26573	0.65967	0.11205	-0.217
Mof_C 	C 	0.25436	0.68064	0.1518	0.085
Mof_H 	H 	0.2519	0.6848	0.171	-0.024
Mof_N 	N 	0.24569	0.69704	0.1296	-0.111
Mof_C 	C 	0.2045	0.72806	0.12321	0.09
Mof_H 	H 	0.1921	0.7151	0.1148	-0.012
Mof_N 	N 	0.18822	0.89324	0.01847	-0.22
Mof_N 	N 	0.18652	0.87232	0.05954	-0.111
Mof_N 	N 	0.17572	0.91165	0.03825	-0.234
Mof_N 	N 	0.18877	0.85141	0.07989	-0.11
Mof_C 	C 	0.21092	0.84725	0.09811	0.093
Mof_H 	H 	0.2274	0.8582	0.0989	-0.012
Mof_C 	C 	0.1751	0.89864	0.06267	0.092
Mof_H 	H 	0.168	0.9062	0.0795	-0.031
Mof_C 	C 	0.16872	0.83133	0.08595	0.089
Mof_H 	H 	0.1513	0.8293	0.0768	-0.018
Mof_C 	C 	0.24248	0.74719	0.14231	0.09
Mof_H 	H 	0.2609	0.7497	0.1492	-0.019
Mof_C 	C 	0.25334	0.68355	0.10536	0.091
Mof_H 	H 	0.2503	0.6902	0.087	-0.013
Mof_C 	C 	0.19479	0.86991	0.0319	0.088
Mof_H 	H 	0.2037	0.8542	0.0239	-0.011
Mof_N 	N 	0.23185	0.72271	0.13144	-0.111
Mof_Cu	Cu	0.1628	0.27951	0.62331	0.826
Mof_Cu	Cu	0.22543	0.30795	0.64996	0.825
Mof_N 	N 	0.22281	0.26647	0.64154	-0.23
Mof_N 	N 	0.1988	0.25452	0.62914	-0.213
Mof_N 	N 	0.17807	0.31541	0.60658	-0.231
Mof_N 	N 	0.20514	0.32553	0.61409	-0.21
Mof_N 	N 	0.26677	0.15799	0.64161	-0.23
Mof_N 	N 	0.26573	0.15967	0.61205	-0.217
Mof_C 	C 	0.25436	0.18064	0.6518	0.085
Mof_H 	H 	0.2519	0.1848	0.671	-0.024
Mof_N 	N 	0.24569	0.19704	0.6296	-0.111
Mof_C 	C 	0.2045	0.22806	0.62321	0.09
Mof_H 	H 	0.1921	0.2151	0.6148	-0.012
Mof_N 	N 	0.18822	0.39324	0.51847	-0.22
Mof_N 	N 	0.18652	0.37232	0.55954	-0.111
Mof_N 	N 	0.17572	0.41165	0.53825	-0.234
Mof_N 	N 	0.18877	0.35141	0.57989	-0.11
Mof_C 	C 	0.21092	0.34725	0.59811	0.093
Mof_H 	H 	0.2274	0.3582	0.5989	-0.012
Mof_C 	C 	0.1751	0.39864	0.56267	0.092
Mof_H 	H 	0.168	0.4062	0.5795	-0.031
Mof_C 	C 	0.16872	0.33133	0.58595	0.089
Mof_H 	H 	0.1513	0.3293	0.5768	-0.018
Mof_C 	C 	0.24248	0.24719	0.64231	0.09
Mof_H 	H 	0.2609	0.2497	0.6492	-0.019
Mof_C 	C 	0.25334	0.18355	0.60536	0.091
Mof_H 	H 	0.2503	0.1902	0.587	-0.013
Mof_C 	C 	0.19479	0.36991	0.5319	0.088
Mof_H 	H 	0.2037	0.3542	0.5239	-0.011
Mof_N 	N 	0.23185	0.22271	0.63144	-0.111
Mof_Cu	Cu	0.6628	0.77951	0.62331	0.826
Mof_Cu	Cu	0.72543	0.80795	0.64996	0.825
Mof_N 	N 	0.72281	0.76647	0.64154	-0.23
Mof_N 	N 	0.6988	0.75452	0.62914	-0.213
Mof_N 	N 	0.67807	0.81541	0.60658	-0.231
Mof_N 	N 	0.70514	0.82553	0.61409	-0.21
Mof_N 	N 	0.76677	0.65799	0.64161	-0.23
Mof_N 	N 	0.76573	0.65967	0.61205	-0.217
Mof_C 	C 	0.75436	0.68064	0.6518	0.085
Mof_H 	H 	0.7519	0.6848	0.671	-0.024
Mof_N 	N 	0.74569	0.69704	0.6296	-0.111
Mof_C 	C 	0.7045	0.72806	0.62321	0.09
Mof_H 	H 	0.6921	0.7151	0.6148	-0.012
Mof_N 	N 	0.68822	0.89324	0.51847	-0.22
Mof_N 	N 	0.68652	0.87232	0.55954	-0.111
Mof_N 	N 	0.67572	0.91165	0.53825	-0.234
Mof_N 	N 	0.68877	0.85141	0.57989	-0.11
Mof_C 	C 	0.71092	0.84725	0.59811	0.093
Mof_H 	H 	0.7274	0.8582	0.5989	-0.012
Mof_C 	C 	0.6751	0.89864	0.56267	0.092
Mof_H 	H 	0.668	0.9062	0.5795	-0.031
Mof_C 	C 	0.66872	0.83133	0.58595	0.089
Mof_H 	H 	0.6513	0.8293	0.5768	-0.018
Mof_C 	C 	0.74248	0.74719	0.64231	0.09
Mof_H 	H 	0.7609	0.7497	0.6492	-0.019
Mof_C 	C 	0.75334	0.68355	0.60536	0.091
Mof_H 	H 	0.7503	0.6902	0.587	-0.013
Mof_C 	C 	0.69479	0.86991	0.5319	0.088
Mof_H 	H 	0.7037	0.8542	0.5239	-0.011
Mof_N 	N 	0.73185	0.72271	0.63144	-0.111
Mof_Cu	Cu	0.6628	0.27951	0.12331	0.826
Mof_Cu	Cu	0.72543	0.30795	0.14996	0.825
Mof_N 	N 	0.72281	0.26647	0.14154	-0.23
Mof_N 	N 	0.6988	0.25452	0.12914	-0.213
Mof_N 	N 	0.67807	0.31541	0.10658	-0.231
Mof_N 	N 	0.70514	0.32553	0.11409	-0.21
Mof_N 	N 	0.76677	0.15799	0.14161	-0.23
Mof_N 	N 	0.76573	0.15967	0.11205	-0.217
Mof_C 	C 	0.75436	0.18064	0.1518	0.085
Mof_H 	H 	0.7519	0.1848	0.171	-0.024
Mof_N 	N 	0.74569	0.19704	0.1296	-0.111
Mof_C 	C 	0.7045	0.22806	0.12321	0.09
Mof_H 	H 	0.6921	0.2151	0.1148	-0.012
Mof_N 	N 	0.68822	0.39324	0.01847	-0.22
Mof_N 	N 	0.68652	0.37232	0.05954	-0.111
Mof_N 	N 	0.67572	0.41165	0.03825	-0.234
Mof_N 	N 	0.68877	0.35141	0.07989	-0.11
Mof_C 	C 	0.71092	0.34725	0.09811	0.093
Mof_H 	H 	0.7274	0.3582	0.0989	-0.012
Mof_C 	C 	0.6751	0.39864	0.06267	0.092
Mof_H 	H 	0.668	0.4062	0.0795	-0.031
Mof_C 	C 	0.66872	0.33133	0.08595	0.089
Mof_H 	H 	0.6513	0.3293	0.0768	-0.018
Mof_C 	C 	0.74248	0.24719	0.14231	0.09
Mof_H 	H 	0.7609	0.2497	0.1492	-0.019
Mof_C 	C 	0.75334	0.18355	0.10536	0.091
Mof_H 	H 	0.7503	0.1902	0.087	-0.013
Mof_C 	C 	0.69479	0.36991	0.0319	0.088
Mof_H 	H 	0.7037	0.3542	0.0239	-0.011
Mof_N 	N 	0.73185	0.22271	0.13144	-0.111
Mof_Cu	Cu	0.8372	0.37331	0.52951	0.826
Mof_Cu	Cu	0.77457	0.39996	0.55795	0.825
Mof_N 	N 	0.77719	0.39154	0.51647	-0.23
Mof_N 	N 	0.8012	0.37914	0.50452	-0.213
Mof_N 	N 	0.82193	0.35658	0.56541	-0.231
Mof_N 	N 	0.79486	0.36409	0.57553	-0.21
Mof_N 	N 	0.73323	0.39161	0.40799	-0.23
Mof_N 	N 	0.73427	0.36205	0.40967	-0.217
Mof_C 	C 	0.74564	0.4018	0.43064	0.085
Mof_H 	H 	0.7481	0.421	0.4348	-0.024
Mof_N 	N 	0.75431	0.3796	0.44704	-0.111
Mof_C 	C 	0.7955	0.37321	0.47806	0.09
Mof_H 	H 	0.8079	0.3648	0.4651	-0.012
Mof_N 	N 	0.81178	0.26847	0.64324	-0.22
Mof_N 	N 	0.81348	0.30954	0.62232	-0.111
Mof_N 	N 	0.82428	0.28825	0.66165	-0.234
Mof_N 	N 	0.81123	0.32989	0.60141	-0.11
Mof_C 	C 	0.78908	0.34811	0.59725	0.093
Mof_H 	H 	0.7726	0.3489	0.6082	-0.012
Mof_C 	C 	0.8249	0.31267	0.64864	0.092
Mof_H 	H 	0.832	0.3295	0.6562	-0.031
Mof_C 	C 	0.83128	0.33595	0.58133	0.089
Mof_H 	H 	0.8487	0.3268	0.5793	-0.018
Mof_C 	C 	0.75752	0.39231	0.49719	0.09
Mof_H 	H 	0.7391	0.3992	0.4997	-0.019
Mof_C 	C 	0.74666	0.35536	0.43355	0.091
Mof_H 	H 	0.7497	0.337	0.4402	-0.013
Mof_C 	C 	0.80521	0.2819	0.61991	0.088
Mof_H 	H 	0.7963	0.2739	0.6042	-0.011
Mof_N 	N 	0.76815	0.38144	0.47271	-0.111
Mof_Cu	Cu	0.8372	0.87331	0.02951	0.826
Mof_Cu	Cu	0.77457	0.89996	0.05795	0.825
Mof_N 	N 	0.77719	0.89154	0.01647	-0.23
Mof_N 	N 	0.8012	0.87914	0.00452	-0.213
Mof_N 	N 	0.82193	0.85658	0.06541	-0.231
Mof_N 	N 	0.79486	0.86409	0.07553	-0.21
Mof_N 	N 	0.73323	0.89161	0.90799	-0.23
Mof_N 	N 	0.73427	0.86205	0.90967	-0.217
Mof_C 	C 	0.74564	0.9018	0.93064	0.085
Mof_H 	H 	0.7481	0.921	0.9348	-0.024
Mof_N 	N 	0.75431	0.8796	0.94704	-0.111
Mof_C 	C 	0.7955	0.87321	0.97806	0.09
Mof_H 	H 	0.8079	0.8648	0.9651	-0.012
Mof_N 	N 	0.81178	0.76847	0.14324	-0.22
Mof_N 	N 	0.81348	0.80954	0.12232	-0.111
Mof_N 	N 	0.82428	0.78825	0.16165	-0.234
Mof_N 	N 	0.81123	0.82989	0.10141	-0.11
Mof_C 	C 	0.78908	0.84811	0.09725	0.093
Mof_H 	H 	0.7726	0.8489	0.1082	-0.012
Mof_C 	C 	0.8249	0.81267	0.14864	0.092
Mof_H 	H 	0.832	0.8295	0.1562	-0.031
Mof_C 	C 	0.83128	0.83595	0.08133	0.089
Mof_H 	H 	0.8487	0.8268	0.0793	-0.018
Mof_C 	C 	0.75752	0.89231	0.99719	0.09
Mof_H 	H 	0.7391	0.8992	0.9997	-0.019
Mof_C 	C 	0.74666	0.85536	0.93355	0.091
Mof_H 	H 	0.7497	0.837	0.9402	-0.013
Mof_C 	C 	0.80521	0.7819	0.11991	0.088
Mof_H 	H 	0.7963	0.7739	0.1042	-0.011
Mof_N 	N 	0.76815	0.88144	0.97271	-0.111
Mof_Cu	Cu	0.3372	0.37331	0.02951	0.826
Mof_Cu	Cu	0.27457	0.39996	0.05795	0.825
Mof_N 	N 	0.27719	0.39154	0.01647	-0.23
Mof_N 	N 	0.3012	0.37914	0.00452	-0.213
Mof_N 	N 	0.32193	0.35658	0.06541	-0.231
Mof_N 	N 	0.29486	0.36409	0.07553	-0.21
Mof_N 	N 	0.23323	0.39161	0.90799	-0.23
Mof_N 	N 	0.23427	0.36205	0.90967	-0.217
Mof_C 	C 	0.24564	0.4018	0.93064	0.085
Mof_H 	H 	0.2481	0.421	0.9348	-0.024
Mof_N 	N 	0.25431	0.3796	0.94704	-0.111
Mof_C 	C 	0.2955	0.37321	0.97806	0.09
Mof_H 	H 	0.3079	0.3648	0.9651	-0.012
Mof_N 	N 	0.31178	0.26847	0.14324	-0.22
Mof_N 	N 	0.31348	0.30954	0.12232	-0.111
Mof_N 	N 	0.32428	0.28825	0.16165	-0.234
Mof_N 	N 	0.31123	0.32989	0.10141	-0.11
Mof_C 	C 	0.28908	0.34811	0.09725	0.093
Mof_H 	H 	0.2726	0.3489	0.1082	-0.012
Mof_C 	C 	0.3249	0.31267	0.14864	0.092
Mof_H 	H 	0.332	0.3295	0.1562	-0.031
Mof_C 	C 	0.33128	0.33595	0.08133	0.089
Mof_H 	H 	0.3487	0.3268	0.0793	-0.018
Mof_C 	C 	0.25752	0.39231	0.99719	0.09
Mof_H 	H 	0.2391	0.3992	0.9997	-0.019
Mof_C 	C 	0.24666	0.35536	0.93355	0.091
Mof_H 	H 	0.2497	0.337	0.9402	-0.013
Mof_C 	C 	0.30521	0.2819	0.11991	0.088
Mof_H 	H 	0.2963	0.2739	0.1042	-0.011
Mof_N 	N 	0.26815	0.38144	0.97271	-0.111
Mof_Cu	Cu	0.3372	0.87331	0.52951	0.826
Mof_Cu	Cu	0.27457	0.89996	0.55795	0.825
Mof_N 	N 	0.27719	0.89154	0.51647	-0.23
Mof_N 	N 	0.3012	0.87914	0.50452	-0.213
Mof_N 	N 	0.32193	0.85658	0.56541	-0.231
Mof_N 	N 	0.29486	0.86409	0.57553	-0.21
Mof_N 	N 	0.23323	0.89161	0.40799	-0.23
Mof_N 	N 	0.23427	0.86205	0.40967	-0.217
Mof_C 	C 	0.24564	0.9018	0.43064	0.085
Mof_H 	H 	0.2481	0.921	0.4348	-0.024
Mof_N 	N 	0.25431	0.8796	0.44704	-0.111
Mof_C 	C 	0.2955	0.87321	0.47806	0.09
Mof_H 	H 	0.3079	0.8648	0.4651	-0.012
Mof_N 	N 	0.31178	0.76847	0.64324	-0.22
Mof_N 	N 	0.31348	0.80954	0.62232	-0.111
Mof_N 	N 	0.32428	0.78825	0.66165	-0.234
Mof_N 	N 	0.31123	0.82989	0.60141	-0.11
Mof_C 	C 	0.28908	0.84811	0.59725	0.093
Mof_H 	H 	0.2726	0.8489	0.6082	-0.012
Mof_C 	C 	0.3249	0.81267	0.64864	0.092
Mof_H 	H 	0.332	0.8295	0.6562	-0.031
Mof_C 	C 	0.33128	0.83595	0.58133	0.089
Mof_H 	H 	0.3487	0.8268	0.5793	-0.018
Mof_C 	C 	0.25752	0.89231	0.49719	0.09
Mof_H 	H 	0.2391	0.8992	0.4997	-0.019
Mof_C 	C 	0.24666	0.85536	0.43355	0.091
Mof_H 	H 	0.2497	0.837	0.4402	-0.013
Mof_C 	C 	0.30521	0.7819	0.61991	0.088
Mof_H 	H 	0.2963	0.7739	0.6042	-0.011
Mof_N 	N 	0.26815	0.88144	0.47271	-0.111
Mof_Cu	Cu	0.9128	0.87669	0.02951	0.826
Mof_Cu	Cu	0.97543	0.85004	0.05795	0.825
Mof_N 	N 	0.97281	0.85846	0.01647	-0.23
Mof_N 	N 	0.9488	0.87086	0.00452	-0.213
Mof_N 	N 	0.92807	0.89342	0.06541	-0.231
Mof_N 	N 	0.95514	0.88591	0.07553	-0.21
Mof_N 	N 	0.01677	0.85839	0.90799	-0.23
Mof_N 	N 	0.01573	0.88795	0.90967	-0.217
Mof_C 	C 	0.00436	0.8482	0.93064	0.085
Mof_H 	H 	0.0019	0.829	0.9348	-0.024
Mof_N 	N 	0.99569	0.8704	0.94704	-0.111
Mof_C 	C 	0.9545	0.87679	0.97806	0.09
Mof_H 	H 	0.9421	0.8852	0.9651	-0.012
Mof_N 	N 	0.93822	0.98153	0.14324	-0.22
Mof_N 	N 	0.93652	0.94046	0.12232	-0.111
Mof_N 	N 	0.92572	0.96175	0.16165	-0.234
Mof_N 	N 	0.93877	0.92011	0.10141	-0.11
Mof_C 	C 	0.96092	0.90189	0.09725	0.093
Mof_H 	H 	0.9774	0.9011	0.1082	-0.012
Mof_C 	C 	0.9251	0.93733	0.14864	0.092
Mof_H 	H 	0.918	0.9205	0.1562	-0.031
Mof_C 	C 	0.91872	0.91405	0.08133	0.089
Mof_H 	H 	0.9013	0.9232	0.0793	-0.018
Mof_C 	C 	0.99248	0.85769	0.99719	0.09
Mof_H 	H 	0.0109	0.8508	0.9997	-0.019
Mof_C 	C 	0.00334	0.89464	0.93355	0.091
Mof_H 	H 	0.0003	0.913	0.9402	-0.013
Mof_C 	C 	0.94479	0.9681	0.11991	0.088
Mof_H 	H 	0.9537	0.9761	0.1042	-0.011
Mof_N 	N 	0.98185	0.86856	0.97271	-0.111
Mof_Cu	Cu	0.9128	0.37669	0.52951	0.826
Mof_Cu	Cu	0.97543	0.35004	0.55795	0.825
Mof_N 	N 	0.97281	0.35846	0.51647	-0.23
Mof_N 	N 	0.9488	0.37086	0.50452	-0.213
Mof_N 	N 	0.92807	0.39342	0.56541	-0.231
Mof_N 	N 	0.95514	0.38591	0.57553	-0.21
Mof_N 	N 	0.01677	0.35839	0.40799	-0.23
Mof_N 	N 	0.01573	0.38795	0.40967	-0.217
Mof_C 	C 	0.00436	0.3482	0.43064	0.085
Mof_H 	H 	0.0019	0.329	0.4348	-0.024
Mof_N 	N 	0.99569	0.3704	0.44704	-0.111
Mof_C 	C 	0.9545	0.37679	0.47806	0.09
Mof_H 	H 	0.9421	0.3852	0.4651	-0.012
Mof_N 	N 	0.93822	0.48153	0.64324	-0.22
Mof_N 	N 	0.93652	0.44046	0.62232	-0.111
Mof_N 	N 	0.92572	0.46175	0.66165	-0.234
Mof_N 	N 	0.93877	0.42011	0.60141	-0.11
Mof_C 	C 	0.96092	0.40189	0.59725	0.093
Mof_H 	H 	0.9774	0.4011	0.6082	-0.012
Mof_C 	C 	0.9251	0.43733	0.64864	0.092
Mof_H 	H 	0.918	0.4205	0.6562	-0.031
Mof_C 	C 	0.91872	0.41405	0.58133	0.089
Mof_H 	H 	0.9013	0.4232	0.5793	-0.018
Mof_C 	C 	0.99248	0.35769	0.49719	0.09
Mof_H 	H 	0.0109	0.3508	0.4997	-0.019
Mof_C 	C 	0.00334	0.39464	0.43355	0.091
Mof_H 	H 	0.0003	0.413	0.4402	-0.013
Mof_C 	C 	0.94479	0.4681	0.61991	0.088
Mof_H 	H 	0.9537	0.4761	0.6042	-0.011
Mof_N 	N 	0.98185	0.36856	0.47271	-0.111
Mof_Cu	Cu	0.4128	0.87669	0.52951	0.826
Mof_Cu	Cu	0.47543	0.85004	0.55795	0.825
Mof_N 	N 	0.47281	0.85846	0.51647	-0.23
Mof_N 	N 	0.4488	0.87086	0.50452	-0.213
Mof_N 	N 	0.42807	0.89342	0.56541	-0.231
Mof_N 	N 	0.45514	0.88591	0.57553	-0.21
Mof_N 	N 	0.51677	0.85839	0.40799	-0.23
Mof_N 	N 	0.51573	0.88795	0.40967	-0.217
Mof_C 	C 	0.50436	0.8482	0.43064	0.085
Mof_H 	H 	0.5019	0.829	0.4348	-0.024
Mof_N 	N 	0.49569	0.8704	0.44704	-0.111
Mof_C 	C 	0.4545	0.87679	0.47806	0.09
Mof_H 	H 	0.4421	0.8852	0.4651	-0.012
Mof_N 	N 	0.43822	0.98153	0.64324	-0.22
Mof_N 	N 	0.43652	0.94046	0.62232	-0.111
Mof_N 	N 	0.42572	0.96175	0.66165	-0.234
Mof_N 	N 	0.43877	0.92011	0.60141	-0.11
Mof_C 	C 	0.46092	0.90189	0.59725	0.093
Mof_H 	H 	0.4774	0.9011	0.6082	-0.012
Mof_C 	C 	0.4251	0.93733	0.64864	0.092
Mof_H 	H 	0.418	0.9205	0.6562	-0.031
Mof_C 	C 	0.41872	0.91405	0.58133	0.089
Mof_H 	H 	0.4013	0.9232	0.5793	-0.018
Mof_C 	C 	0.49248	0.85769	0.49719	0.09
Mof_H 	H 	0.5109	0.8508	0.4997	-0.019
Mof_C 	C 	0.50334	0.89464	0.43355	0.091
Mof_H 	H 	0.5003	0.913	0.4402	-0.013
Mof_C 	C 	0.44479	0.9681	0.61991	0.088
Mof_H 	H 	0.4537	0.9761	0.6042	-0.011
Mof_N 	N 	0.48185	0.86856	0.47271	-0.111
Mof_Cu	Cu	0.4128	0.37669	0.02951	0.826
Mof_Cu	Cu	0.47543	0.35004	0.05795	0.825
Mof_N 	N 	0.47281	0.35846	0.01647	-0.23
Mof_N 	N 	0.4488	0.37086	0.00452	-0.213
Mof_N 	N 	0.42807	0.39342	0.06541	-0.231
Mof_N 	N 	0.45514	0.38591	0.07553	-0.21
Mof_N 	N 	0.51677	0.35839	0.90799	-0.23
Mof_N 	N 	0.51573	0.38795	0.90967	-0.217
Mof_C 	C 	0.50436	0.3482	0.93064	0.085
Mof_H 	H 	0.5019	0.329	0.9348	-0.024
Mof_N 	N 	0.49569	0.3704	0.94704	-0.111
Mof_C 	C 	0.4545	0.37679	0.97806	0.09
Mof_H 	H 	0.4421	0.3852	0.9651	-0.012
Mof_N 	N 	0.43822	0.48153	0.14324	-0.22
Mof_N 	N 	0.43652	0.44046	0.12232	-0.111
Mof_N 	N 	0.42572	0.46175	0.16165	-0.234
Mof_N 	N 	0.43877	0.42011	0.10141	-0.11
Mof_C 	C 	0.46092	0.40189	0.09725	0.093
Mof_H 	H 	0.4774	0.4011	0.1082	-0.012
Mof_C 	C 	0.4251	0.43733	0.14864	0.092
Mof_H 	H 	0.418	0.4205	0.1562	-0.031
Mof_C 	C 	0.41872	0.41405	0.08133	0.089
Mof_H 	H 	0.4013	0.4232	0.0793	-0.018
Mof_C 	C 	0.49248	0.35769	0.99719	0.09
Mof_H 	H 	0.5109	0.3508	0.9997	-0.019
Mof_C 	C 	0.50334	0.39464	0.93355	0.091
Mof_H 	H 	0.5003	0.413	0.9402	-0.013
Mof_C 	C 	0.44479	0.4681	0.11991	0.088
Mof_H 	H 	0.4537	0.4761	0.1042	-0.011
Mof_N 	N 	0.48185	0.36856	0.97271	-0.111
Mof_Cu	Cu	0.3372	0.37669	0.7205	0.826
Mof_Cu	Cu	0.27457	0.35004	0.69205	0.825
Mof_N 	N 	0.27719	0.35846	0.73353	-0.23
Mof_N 	N 	0.3012	0.37086	0.74548	-0.213
Mof_N 	N 	0.32193	0.39342	0.68459	-0.231
Mof_N 	N 	0.29486	0.38591	0.67447	-0.21
Mof_N 	N 	0.23323	0.35839	0.84201	-0.23
Mof_N 	N 	0.23427	0.38795	0.84033	-0.217
Mof_C 	C 	0.24564	0.3482	0.81936	0.085
Mof_H 	H 	0.2481	0.329	0.8152	-0.024
Mof_N 	N 	0.25431	0.3704	0.80296	-0.111
Mof_C 	C 	0.2955	0.37679	0.77194	0.09
Mof_H 	H 	0.3079	0.3852	0.7849	-0.012
Mof_N 	N 	0.31178	0.48153	0.60676	-0.22
Mof_N 	N 	0.31348	0.44046	0.62768	-0.111
Mof_N 	N 	0.32428	0.46175	0.58835	-0.234
Mof_N 	N 	0.31123	0.42011	0.64859	-0.11
Mof_C 	C 	0.28908	0.40189	0.65275	0.093
Mof_H 	H 	0.2726	0.4011	0.6418	-0.012
Mof_C 	C 	0.3249	0.43733	0.60136	0.092
Mof_H 	H 	0.332	0.4205	0.5938	-0.031
Mof_C 	C 	0.33128	0.41405	0.66867	0.089
Mof_H 	H 	0.3487	0.4232	0.6707	-0.018
Mof_C 	C 	0.25752	0.35769	0.75281	0.09
Mof_H 	H 	0.2391	0.3508	0.7503	-0.019
Mof_C 	C 	0.24666	0.39464	0.81645	0.091
Mof_H 	H 	0.2497	0.413	0.8098	-0.013
Mof_C 	C 	0.30521	0.4681	0.63009	0.088
Mof_H 	H 	0.2963	0.4761	0.6458	-0.011
Mof_N 	N 	0.26815	0.36856	0.77729	-0.111
Mof_Cu	Cu	0.3372	0.87669	0.2205	0.826
Mof_Cu	Cu	0.27457	0.85004	0.19205	0.825
Mof_N 	N 	0.27719	0.85846	0.23353	-0.23
Mof_N 	N 	0.3012	0.87086	0.24548	-0.213
Mof_N 	N 	0.32193	0.89342	0.18459	-0.231
Mof_N 	N 	0.29486	0.88591	0.17447	-0.21
Mof_N 	N 	0.23323	0.85839	0.34201	-0.23
Mof_N 	N 	0.23427	0.88795	0.34033	-0.217
Mof_C 	C 	0.24564	0.8482	0.31936	0.085
Mof_H 	H 	0.2481	0.829	0.3152	-0.024
Mof_N 	N 	0.25431	0.8704	0.30296	-0.111
Mof_C 	C 	0.2955	0.87679	0.27194	0.09
Mof_H 	H 	0.3079	0.8852	0.2849	-0.012
Mof_N 	N 	0.31178	0.98153	0.10676	-0.22
Mof_N 	N 	0.31348	0.94046	0.12768	-0.111
Mof_N 	N 	0.32428	0.96175	0.08835	-0.234
Mof_N 	N 	0.31123	0.92011	0.14859	-0.11
Mof_C 	C 	0.28908	0.90189	0.15275	0.093
Mof_H 	H 	0.2726	0.9011	0.1418	-0.012
Mof_C 	C 	0.3249	0.93733	0.10136	0.092
Mof_H 	H 	0.332	0.9205	0.0938	-0.031
Mof_C 	C 	0.33128	0.91405	0.16867	0.089
Mof_H 	H 	0.3487	0.9232	0.1707	-0.018
Mof_C 	C 	0.25752	0.85769	0.25281	0.09
Mof_H 	H 	0.2391	0.8508	0.2503	-0.019
Mof_C 	C 	0.24666	0.89464	0.31645	0.091
Mof_H 	H 	0.2497	0.913	0.3098	-0.013
Mof_C 	C 	0.30521	0.9681	0.13009	0.088
Mof_H 	H 	0.2963	0.9761	0.1458	-0.011
Mof_N 	N 	0.26815	0.86856	0.27729	-0.111
Mof_Cu	Cu	0.8372	0.37669	0.2205	0.826
Mof_Cu	Cu	0.77457	0.35004	0.19205	0.825
Mof_N 	N 	0.77719	0.35846	0.23353	-0.23
Mof_N 	N 	0.8012	0.37086	0.24548	-0.213
Mof_N 	N 	0.82193	0.39342	0.18459	-0.231
Mof_N 	N 	0.79486	0.38591	0.17447	-0.21
Mof_N 	N 	0.73323	0.35839	0.34201	-0.23
Mof_N 	N 	0.73427	0.38795	0.34033	-0.217
Mof_C 	C 	0.74564	0.3482	0.31936	0.085
Mof_H 	H 	0.7481	0.329	0.3152	-0.024
Mof_N 	N 	0.75431	0.3704	0.30296	-0.111
Mof_C 	C 	0.7955	0.37679	0.27194	0.09
Mof_H 	H 	0.8079	0.3852	0.2849	-0.012
Mof_N 	N 	0.81178	0.48153	0.10676	-0.22
Mof_N 	N 	0.81348	0.44046	0.12768	-0.111
Mof_N 	N 	0.82428	0.46175	0.08835	-0.234
Mof_N 	N 	0.81123	0.42011	0.14859	-0.11
Mof_C 	C 	0.78908	0.40189	0.15275	0.093
Mof_H 	H 	0.7726	0.4011	0.1418	-0.012
Mof_C 	C 	0.8249	0.43733	0.10136	0.092
Mof_H 	H 	0.832	0.4205	0.0938	-0.031
Mof_C 	C 	0.83128	0.41405	0.16867	0.089
Mof_H 	H 	0.8487	0.4232	0.1707	-0.018
Mof_C 	C 	0.75752	0.35769	0.25281	0.09
Mof_H 	H 	0.7391	0.3508	0.2503	-0.019
Mof_C 	C 	0.74666	0.39464	0.31645	0.091
Mof_H 	H 	0.7497	0.413	0.3098	-0.013
Mof_C 	C 	0.80521	0.4681	0.13009	0.088
Mof_H 	H 	0.7963	0.4761	0.1458	-0.011
Mof_N 	N 	0.76815	0.36856	0.27729	-0.111
Mof_Cu	Cu	0.8372	0.87669	0.7205	0.826
Mof_Cu	Cu	0.77457	0.85004	0.69205	0.825
Mof_N 	N 	0.77719	0.85846	0.73353	-0.23
Mof_N 	N 	0.8012	0.87086	0.74548	-0.213
Mof_N 	N 	0.82193	0.89342	0.68459	-0.231
Mof_N 	N 	0.79486	0.88591	0.67447	-0.21
Mof_N 	N 	0.73323	0.85839	0.84201	-0.23
Mof_N 	N 	0.73427	0.88795	0.84033	-0.217
Mof_C 	C 	0.74564	0.8482	0.81936	0.085
Mof_H 	H 	0.7481	0.829	0.8152	-0.024
Mof_N 	N 	0.75431	0.8704	0.80296	-0.111
Mof_C 	C 	0.7955	0.87679	0.77194	0.09
Mof_H 	H 	0.8079	0.8852	0.7849	-0.012
Mof_N 	N 	0.81178	0.98153	0.60676	-0.22
Mof_N 	N 	0.81348	0.94046	0.62768	-0.111
Mof_N 	N 	0.82428	0.96175	0.58835	-0.234
Mof_N 	N 	0.81123	0.92011	0.64859	-0.11
Mof_C 	C 	0.78908	0.90189	0.65275	0.093
Mof_H 	H 	0.7726	0.9011	0.6418	-0.012
Mof_C 	C 	0.8249	0.93733	0.60136	0.092
Mof_H 	H 	0.832	0.9205	0.5938	-0.031
Mof_C 	C 	0.83128	0.91405	0.66867	0.089
Mof_H 	H 	0.8487	0.9232	0.6707	-0.018
Mof_C 	C 	0.75752	0.85769	0.75281	0.09
Mof_H 	H 	0.7391	0.8508	0.7503	-0.019
Mof_C 	C 	0.74666	0.89464	0.81645	0.091
Mof_H 	H 	0.7497	0.913	0.8098	-0.013
Mof_C 	C 	0.80521	0.9681	0.63009	0.088
Mof_H 	H 	0.7963	0.9761	0.6458	-0.011
Mof_N 	N 	0.76815	0.86856	0.77729	-0.111
Mof_Cu	Cu	0.4128	0.87331	0.2205	0.826
Mof_Cu	Cu	0.47543	0.89996	0.19205	0.825
Mof_N 	N 	0.47281	0.89154	0.23353	-0.23
Mof_N 	N 	0.4488	0.87914	0.24548	-0.213
Mof_N 	N 	0.42807	0.85658	0.18459	-0.231
Mof_N 	N 	0.45514	0.86409	0.17447	-0.21
Mof_N 	N 	0.51677	0.89161	0.34201	-0.23
Mof_N 	N 	0.51573	0.86205	0.34033	-0.217
Mof_C 	C 	0.50436	0.9018	0.31936	0.085
Mof_H 	H 	0.5019	0.921	0.3152	-0.024
Mof_N 	N 	0.49569	0.8796	0.30296	-0.111
Mof_C 	C 	0.4545	0.87321	0.27194	0.09
Mof_H 	H 	0.4421	0.8648	0.2849	-0.012
Mof_N 	N 	0.43822	0.76847	0.10676	-0.22
Mof_N 	N 	0.43652	0.80954	0.12768	-0.111
Mof_N 	N 	0.42572	0.78825	0.08835	-0.234
Mof_N 	N 	0.43877	0.82989	0.14859	-0.11
Mof_C 	C 	0.46092	0.84811	0.15275	0.093
Mof_H 	H 	0.4774	0.8489	0.1418	-0.012
Mof_C 	C 	0.4251	0.81267	0.10136	0.092
Mof_H 	H 	0.418	0.8295	0.0938	-0.031
Mof_C 	C 	0.41872	0.83595	0.16867	0.089
Mof_H 	H 	0.4013	0.8268	0.1707	-0.018
Mof_C 	C 	0.49248	0.89231	0.25281	0.09
Mof_H 	H 	0.5109	0.8992	0.2503	-0.019
Mof_C 	C 	0.50334	0.85536	0.31645	0.091
Mof_H 	H 	0.5003	0.837	0.3098	-0.013
Mof_C 	C 	0.44479	0.7819	0.13009	0.088
Mof_H 	H 	0.4537	0.7739	0.1458	-0.011
Mof_N 	N 	0.48185	0.88144	0.27729	-0.111
Mof_Cu	Cu	0.4128	0.37331	0.7205	0.826
Mof_Cu	Cu	0.47543	0.39996	0.69205	0.825
Mof_N 	N 	0.47281	0.39154	0.73353	-0.23
Mof_N 	N 	0.4488	0.37914	0.74548	-0.213
Mof_N 	N 	0.42807	0.35658	0.68459	-0.231
Mof_N 	N 	0.45514	0.36409	0.67447	-0.21
Mof_N 	N 	0.51677	0.39161	0.84201	-0.23
Mof_N 	N 	0.51573	0.36205	0.84033	-0.217
Mof_C 	C 	0.50436	0.4018	0.81936	0.085
Mof_H 	H 	0.5019	0.421	0.8152	-0.024
Mof_N 	N 	0.49569	0.3796	0.80296	-0.111
Mof_C 	C 	0.4545	0.37321	0.77194	0.09
Mof_H 	H 	0.4421	0.3648	0.7849	-0.012
Mof_N 	N 	0.43822	0.26847	0.60676	-0.22
Mof_N 	N 	0.43652	0.30954	0.62768	-0.111
Mof_N 	N 	0.42572	0.28825	0.58835	-0.234
Mof_N 	N 	0.43877	0.32989	0.64859	-0.11
Mof_C 	C 	0.46092	0.34811	0.65275	0.093
Mof_H 	H 	0.4774	0.3489	0.6418	-0.012
Mof_C 	C 	0.4251	0.31267	0.60136	0.092
Mof_H 	H 	0.418	0.3295	0.5938	-0.031
Mof_C 	C 	0.41872	0.33595	0.66867	0.089
Mof_H 	H 	0.4013	0.3268	0.6707	-0.018
Mof_C 	C 	0.49248	0.39231	0.75281	0.09
Mof_H 	H 	0.5109	0.3992	0.7503	-0.019
Mof_C 	C 	0.50334	0.35536	0.81645	0.091
Mof_H 	H 	0.5003	0.337	0.8098	-0.013
Mof_C 	C 	0.44479	0.2819	0.63009	0.088
Mof_H 	H 	0.4537	0.2739	0.6458	-0.011
Mof_N 	N 	0.48185	0.38144	0.77729	-0.111
Mof_Cu	Cu	0.9128	0.87331	0.7205	0.826
Mof_Cu	Cu	0.97543	0.89996	0.69205	0.825
Mof_N 	N 	0.97281	0.89154	0.73353	-0.23
Mof_N 	N 	0.9488	0.87914	0.74548	-0.213
Mof_N 	N 	0.92807	0.85658	0.68459	-0.231
Mof_N 	N 	0.95514	0.86409	0.67447	-0.21
Mof_N 	N 	0.01677	0.89161	0.84201	-0.23
Mof_N 	N 	0.01573	0.86205	0.84033	-0.217
Mof_C 	C 	0.00436	0.9018	0.81936	0.085
Mof_H 	H 	0.0019	0.921	0.8152	-0.024
Mof_N 	N 	0.99569	0.8796	0.80296	-0.111
Mof_C 	C 	0.9545	0.87321	0.77194	0.09
Mof_H 	H 	0.9421	0.8648	0.7849	-0.012
Mof_N 	N 	0.93822	0.76847	0.60676	-0.22
Mof_N 	N 	0.93652	0.80954	0.62768	-0.111
Mof_N 	N 	0.92572	0.78825	0.58835	-0.234
Mof_N 	N 	0.93877	0.82989	0.64859	-0.11
Mof_C 	C 	0.96092	0.84811	0.65275	0.093
Mof_H 	H 	0.9774	0.8489	0.6418	-0.012
Mof_C 	C 	0.9251	0.81267	0.60136	0.092
Mof_H 	H 	0.918	0.8295	0.5938	-0.031
Mof_C 	C 	0.91872	0.83595	0.66867	0.089
Mof_H 	H 	0.9013	0.8268	0.6707	-0.018
Mof_C 	C 	0.99248	0.89231	0.75281	0.09
Mof_H 	H 	0.0109	0.8992	0.7503	-0.019
Mof_C 	C 	0.00334	0.85536	0.81645	0.091
Mof_H 	H 	0.0003	0.837	0.8098	-0.013
Mof_C 	C 	0.94479	0.7819	0.63009	0.088
Mof_H 	H 	0.9537	0.7739	0.6458	-0.011
Mof_N 	N 	0.98185	0.88144	0.77729	-0.111
Mof_Cu	Cu	0.9128	0.37331	0.2205	0.826
Mof_Cu	Cu	0.97543	0.39996	0.19205	0.825
Mof_N 	N 	0.97281	0.39154	0.23353	-0.23
Mof_N 	N 	0.9488	0.37914	0.24548	-0.213
Mof_N 	N 	0.92807	0.35658	0.18459	-0.231
Mof_N 	N 	0.95514	0.36409	0.17447	-0.21
Mof_N 	N 	0.01677	0.39161	0.34201	-0.23
Mof_N 	N 	0.01573	0.36205	0.34033	-0.217
Mof_C 	C 	0.00436	0.4018	0.31936	0.085
Mof_H 	H 	0.0019	0.421	0.3152	-0.024
Mof_N 	N 	0.99569	0.3796	0.30296	-0.111
Mof_C 	C 	0.9545	0.37321	0.27194	0.09
Mof_H 	H 	0.9421	0.3648	0.2849	-0.012
Mof_N 	N 	0.93822	0.26847	0.10676	-0.22
Mof_N 	N 	0.93652	0.30954	0.12768	-0.111
Mof_N 	N 	0.92572	0.28825	0.08835	-0.234
Mof_N 	N 	0.93877	0.32989	0.14859	-0.11
Mof_C 	C 	0.96092	0.34811	0.15275	0.093
Mof_H 	H 	0.9774	0.3489	0.1418	-0.012
Mof_C 	C 	0.9251	0.31267	0.10136	0.092
Mof_H 	H 	0.918	0.3295	0.0938	-0.031
Mof_C 	C 	0.91872	0.33595	0.16867	0.089
Mof_H 	H 	0.9013	0.3268	0.1707	-0.018
Mof_C 	C 	0.99248	0.39231	0.25281	0.09
Mof_H 	H 	0.0109	0.3992	0.2503	-0.019
Mof_C 	C 	0.00334	0.35536	0.31645	0.091
Mof_H 	H 	0.0003	0.337	0.3098	-0.013
Mof_C 	C 	0.94479	0.2819	0.13009	0.088
Mof_H 	H 	0.9537	0.2739	0.1458	-0.011
Mof_N 	N 	0.98185	0.38144	0.27729	-0.111
Mof_Cu	Cu	0.87331	0.2205	0.4128	0.826
Mof_Cu	Cu	0.89996	0.19205	0.47543	0.825
Mof_N 	N 	0.89154	0.23353	0.47281	-0.23
Mof_N 	N 	0.87914	0.24548	0.4488	-0.213
Mof_N 	N 	0.85658	0.18459	0.42807	-0.231
Mof_N 	N 	0.86409	0.17447	0.45514	-0.21
Mof_N 	N 	0.89161	0.34201	0.51677	-0.23
Mof_N 	N 	0.86205	0.34033	0.51573	-0.217
Mof_C 	C 	0.9018	0.31936	0.50436	0.085
Mof_H 	H 	0.921	0.3152	0.5019	-0.024
Mof_N 	N 	0.8796	0.30296	0.49569	-0.111
Mof_C 	C 	0.87321	0.27194	0.4545	0.09
Mof_H 	H 	0.8648	0.2849	0.4421	-0.012
Mof_N 	N 	0.76847	0.10676	0.43822	-0.22
Mof_N 	N 	0.80954	0.12768	0.43652	-0.111
Mof_N 	N 	0.78825	0.08835	0.42572	-0.234
Mof_N 	N 	0.82989	0.14859	0.43877	-0.11
Mof_C 	C 	0.84811	0.15275	0.46092	0.093
Mof_H 	H 	0.8489	0.1418	0.4774	-0.012
Mof_C 	C 	0.81267	0.10136	0.4251	0.092
Mof_H 	H 	0.8295	0.0938	0.418	-0.031
Mof_C 	C 	0.83595	0.16867	0.41872	0.089
Mof_H 	H 	0.8268	0.1707	0.4013	-0.018
Mof_C 	C 	0.89231	0.25281	0.49248	0.09
Mof_H 	H 	0.8992	0.2503	0.5109	-0.019
Mof_C 	C 	0.85536	0.31645	0.50334	0.091
Mof_H 	H 	0.837	0.3098	0.5003	-0.013
Mof_C 	C 	0.7819	0.13009	0.44479	0.088
Mof_H 	H 	0.7739	0.1458	0.4537	-0.011
Mof_N 	N 	0.88144	0.27729	0.48185	-0.111
Mof_Cu	Cu	0.87331	0.7205	0.9128	0.826
Mof_Cu	Cu	0.89996	0.69205	0.97543	0.825
Mof_N 	N 	0.89154	0.73353	0.97281	-0.23
Mof_N 	N 	0.87914	0.74548	0.9488	-0.213
Mof_N 	N 	0.85658	0.68459	0.92807	-0.231
Mof_N 	N 	0.86409	0.67447	0.95514	-0.21
Mof_N 	N 	0.89161	0.84201	0.01677	-0.23
Mof_N 	N 	0.86205	0.84033	0.01573	-0.217
Mof_C 	C 	0.9018	0.81936	0.00436	0.085
Mof_H 	H 	0.921	0.8152	0.0019	-0.024
Mof_N 	N 	0.8796	0.80296	0.99569	-0.111
Mof_C 	C 	0.87321	0.77194	0.9545	0.09
Mof_H 	H 	0.8648	0.7849	0.9421	-0.012
Mof_N 	N 	0.76847	0.60676	0.93822	-0.22
Mof_N 	N 	0.80954	0.62768	0.93652	-0.111
Mof_N 	N 	0.78825	0.58835	0.92572	-0.234
Mof_N 	N 	0.82989	0.64859	0.93877	-0.11
Mof_C 	C 	0.84811	0.65275	0.96092	0.093
Mof_H 	H 	0.8489	0.6418	0.9774	-0.012
Mof_C 	C 	0.81267	0.60136	0.9251	0.092
Mof_H 	H 	0.8295	0.5938	0.918	-0.031
Mof_C 	C 	0.83595	0.66867	0.91872	0.089
Mof_H 	H 	0.8268	0.6707	0.9013	-0.018
Mof_C 	C 	0.89231	0.75281	0.99248	0.09
Mof_H 	H 	0.8992	0.7503	0.0109	-0.019
Mof_C 	C 	0.85536	0.81645	0.00334	0.091
Mof_H 	H 	0.837	0.8098	0.0003	-0.013
Mof_C 	C 	0.7819	0.63009	0.94479	0.088
Mof_H 	H 	0.7739	0.6458	0.9537	-0.011
Mof_N 	N 	0.88144	0.77729	0.98185	-0.111
Mof_Cu	Cu	0.37331	0.2205	0.9128	0.826
Mof_Cu	Cu	0.39996	0.19205	0.97543	0.825
Mof_N 	N 	0.39154	0.23353	0.97281	-0.23
Mof_N 	N 	0.37914	0.24548	0.9488	-0.213
Mof_N 	N 	0.35658	0.18459	0.92807	-0.231
Mof_N 	N 	0.36409	0.17447	0.95514	-0.21
Mof_N 	N 	0.39161	0.34201	0.01677	-0.23
Mof_N 	N 	0.36205	0.34033	0.01573	-0.217
Mof_C 	C 	0.4018	0.31936	0.00436	0.085
Mof_H 	H 	0.421	0.3152	0.0019	-0.024
Mof_N 	N 	0.3796	0.30296	0.99569	-0.111
Mof_C 	C 	0.37321	0.27194	0.9545	0.09
Mof_H 	H 	0.3648	0.2849	0.9421	-0.012
Mof_N 	N 	0.26847	0.10676	0.93822	-0.22
Mof_N 	N 	0.30954	0.12768	0.93652	-0.111
Mof_N 	N 	0.28825	0.08835	0.92572	-0.234
Mof_N 	N 	0.32989	0.14859	0.93877	-0.11
Mof_C 	C 	0.34811	0.15275	0.96092	0.093
Mof_H 	H 	0.3489	0.1418	0.9774	-0.012
Mof_C 	C 	0.31267	0.10136	0.9251	0.092
Mof_H 	H 	0.3295	0.0938	0.918	-0.031
Mof_C 	C 	0.33595	0.16867	0.91872	0.089
Mof_H 	H 	0.3268	0.1707	0.9013	-0.018
Mof_C 	C 	0.39231	0.25281	0.99248	0.09
Mof_H 	H 	0.3992	0.2503	0.0109	-0.019
Mof_C 	C 	0.35536	0.31645	0.00334	0.091
Mof_H 	H 	0.337	0.3098	0.0003	-0.013
Mof_C 	C 	0.2819	0.13009	0.94479	0.088
Mof_H 	H 	0.2739	0.1458	0.9537	-0.011
Mof_N 	N 	0.38144	0.27729	0.98185	-0.111
Mof_Cu	Cu	0.37331	0.7205	0.4128	0.826
Mof_Cu	Cu	0.39996	0.69205	0.47543	0.825
Mof_N 	N 	0.39154	0.73353	0.47281	-0.23
Mof_N 	N 	0.37914	0.74548	0.4488	-0.213
Mof_N 	N 	0.35658	0.68459	0.42807	-0.231
Mof_N 	N 	0.36409	0.67447	0.45514	-0.21
Mof_N 	N 	0.39161	0.84201	0.51677	-0.23
Mof_N 	N 	0.36205	0.84033	0.51573	-0.217
Mof_C 	C 	0.4018	0.81936	0.50436	0.085
Mof_H 	H 	0.421	0.8152	0.5019	-0.024
Mof_N 	N 	0.3796	0.80296	0.49569	-0.111
Mof_C 	C 	0.37321	0.77194	0.4545	0.09
Mof_H 	H 	0.3648	0.7849	0.4421	-0.012
Mof_N 	N 	0.26847	0.60676	0.43822	-0.22
Mof_N 	N 	0.30954	0.62768	0.43652	-0.111
Mof_N 	N 	0.28825	0.58835	0.42572	-0.234
Mof_N 	N 	0.32989	0.64859	0.43877	-0.11
Mof_C 	C 	0.34811	0.65275	0.46092	0.093
Mof_H 	H 	0.3489	0.6418	0.4774	-0.012
Mof_C 	C 	0.31267	0.60136	0.4251	0.092
Mof_H 	H 	0.3295	0.5938	0.418	-0.031
Mof_C 	C 	0.33595	0.66867	0.41872	0.089
Mof_H 	H 	0.3268	0.6707	0.4013	-0.018
Mof_C 	C 	0.39231	0.75281	0.49248	0.09
Mof_H 	H 	0.3992	0.7503	0.5109	-0.019
Mof_C 	C 	0.35536	0.81645	0.50334	0.091
Mof_H 	H 	0.337	0.8098	0.5003	-0.013
Mof_C 	C 	0.2819	0.63009	0.44479	0.088
Mof_H 	H 	0.2739	0.6458	0.4537	-0.011
Mof_N 	N 	0.38144	0.77729	0.48185	-0.111
Mof_Cu	Cu	0.37669	0.7205	0.3372	0.826
Mof_Cu	Cu	0.35004	0.69205	0.27457	0.825
Mof_N 	N 	0.35846	0.73353	0.27719	-0.23
Mof_N 	N 	0.37086	0.74548	0.3012	-0.213
Mof_N 	N 	0.39342	0.68459	0.32193	-0.231
Mof_N 	N 	0.38591	0.67447	0.29486	-0.21
Mof_N 	N 	0.35839	0.84201	0.23323	-0.23
Mof_N 	N 	0.38795	0.84033	0.23427	-0.217
Mof_C 	C 	0.3482	0.81936	0.24564	0.085
Mof_H 	H 	0.329	0.8152	0.2481	-0.024
Mof_N 	N 	0.3704	0.80296	0.25431	-0.111
Mof_C 	C 	0.37679	0.77194	0.2955	0.09
Mof_H 	H 	0.3852	0.7849	0.3079	-0.012
Mof_N 	N 	0.48153	0.60676	0.31178	-0.22
Mof_N 	N 	0.44046	0.62768	0.31348	-0.111
Mof_N 	N 	0.46175	0.58835	0.32428	-0.234
Mof_N 	N 	0.42011	0.64859	0.31123	-0.11
Mof_C 	C 	0.40189	0.65275	0.28908	0.093
Mof_H 	H 	0.4011	0.6418	0.2726	-0.012
Mof_C 	C 	0.43733	0.60136	0.3249	0.092
Mof_H 	H 	0.4205	0.5938	0.332	-0.031
Mof_C 	C 	0.41405	0.66867	0.33128	0.089
Mof_H 	H 	0.4232	0.6707	0.3487	-0.018
Mof_C 	C 	0.35769	0.75281	0.25752	0.09
Mof_H 	H 	0.3508	0.7503	0.2391	-0.019
Mof_C 	C 	0.39464	0.81645	0.24666	0.091
Mof_H 	H 	0.413	0.8098	0.2497	-0.013
Mof_C 	C 	0.4681	0.63009	0.30521	0.088
Mof_H 	H 	0.4761	0.6458	0.2963	-0.011
Mof_N 	N 	0.36856	0.77729	0.26815	-0.111
Mof_Cu	Cu	0.37669	0.2205	0.8372	0.826
Mof_Cu	Cu	0.35004	0.19205	0.77457	0.825
Mof_N 	N 	0.35846	0.23353	0.77719	-0.23
Mof_N 	N 	0.37086	0.24548	0.8012	-0.213
Mof_N 	N 	0.39342	0.18459	0.82193	-0.231
Mof_N 	N 	0.38591	0.17447	0.79486	-0.21
Mof_N 	N 	0.35839	0.34201	0.73323	-0.23
Mof_N 	N 	0.38795	0.34033	0.73427	-0.217
Mof_C 	C 	0.3482	0.31936	0.74564	0.085
Mof_H 	H 	0.329	0.3152	0.7481	-0.024
Mof_N 	N 	0.3704	0.30296	0.75431	-0.111
Mof_C 	C 	0.37679	0.27194	0.7955	0.09
Mof_H 	H 	0.3852	0.2849	0.8079	-0.012
Mof_N 	N 	0.48153	0.10676	0.81178	-0.22
Mof_N 	N 	0.44046	0.12768	0.81348	-0.111
Mof_N 	N 	0.46175	0.08835	0.82428	-0.234
Mof_N 	N 	0.42011	0.14859	0.81123	-0.11
Mof_C 	C 	0.40189	0.15275	0.78908	0.093
Mof_H 	H 	0.4011	0.1418	0.7726	-0.012
Mof_C 	C 	0.43733	0.10136	0.8249	0.092
Mof_H 	H 	0.4205	0.0938	0.832	-0.031
Mof_C 	C 	0.41405	0.16867	0.83128	0.089
Mof_H 	H 	0.4232	0.1707	0.8487	-0.018
Mof_C 	C 	0.35769	0.25281	0.75752	0.09
Mof_H 	H 	0.3508	0.2503	0.7391	-0.019
Mof_C 	C 	0.39464	0.31645	0.74666	0.091
Mof_H 	H 	0.413	0.3098	0.7497	-0.013
Mof_C 	C 	0.4681	0.13009	0.80521	0.088
Mof_H 	H 	0.4761	0.1458	0.7963	-0.011
Mof_N 	N 	0.36856	0.27729	0.76815	-0.111
Mof_Cu	Cu	0.87669	0.7205	0.8372	0.826
Mof_Cu	Cu	0.85004	0.69205	0.77457	0.825
Mof_N 	N 	0.85846	0.73353	0.77719	-0.23
Mof_N 	N 	0.87086	0.74548	0.8012	-0.213
Mof_N 	N 	0.89342	0.68459	0.82193	-0.231
Mof_N 	N 	0.88591	0.67447	0.79486	-0.21
Mof_N 	N 	0.85839	0.84201	0.73323	-0.23
Mof_N 	N 	0.88795	0.84033	0.73427	-0.217
Mof_C 	C 	0.8482	0.81936	0.74564	0.085
Mof_H 	H 	0.829	0.8152	0.7481	-0.024
Mof_N 	N 	0.8704	0.80296	0.75431	-0.111
Mof_C 	C 	0.87679	0.77194	0.7955	0.09
Mof_H 	H 	0.8852	0.7849	0.8079	-0.012
Mof_N 	N 	0.98153	0.60676	0.81178	-0.22
Mof_N 	N 	0.94046	0.62768	0.81348	-0.111
Mof_N 	N 	0.96175	0.58835	0.82428	-0.234
Mof_N 	N 	0.92011	0.64859	0.81123	-0.11
Mof_C 	C 	0.90189	0.65275	0.78908	0.093
Mof_H 	H 	0.9011	0.6418	0.7726	-0.012
Mof_C 	C 	0.93733	0.60136	0.8249	0.092
Mof_H 	H 	0.9205	0.5938	0.832	-0.031
Mof_C 	C 	0.91405	0.66867	0.83128	0.089
Mof_H 	H 	0.9232	0.6707	0.8487	-0.018
Mof_C 	C 	0.85769	0.75281	0.75752	0.09
Mof_H 	H 	0.8508	0.7503	0.7391	-0.019
Mof_C 	C 	0.89464	0.81645	0.74666	0.091
Mof_H 	H 	0.913	0.8098	0.7497	-0.013
Mof_C 	C 	0.9681	0.63009	0.80521	0.088
Mof_H 	H 	0.9761	0.6458	0.7963	-0.011
Mof_N 	N 	0.86856	0.77729	0.76815	-0.111
Mof_Cu	Cu	0.87669	0.2205	0.3372	0.826
Mof_Cu	Cu	0.85004	0.19205	0.27457	0.825
Mof_N 	N 	0.85846	0.23353	0.27719	-0.23
Mof_N 	N 	0.87086	0.24548	0.3012	-0.213
Mof_N 	N 	0.89342	0.18459	0.32193	-0.231
Mof_N 	N 	0.88591	0.17447	0.29486	-0.21
Mof_N 	N 	0.85839	0.34201	0.23323	-0.23
Mof_N 	N 	0.88795	0.34033	0.23427	-0.217
Mof_C 	C 	0.8482	0.31936	0.24564	0.085
Mof_H 	H 	0.829	0.3152	0.2481	-0.024
Mof_N 	N 	0.8704	0.30296	0.25431	-0.111
Mof_C 	C 	0.87679	0.27194	0.2955	0.09
Mof_H 	H 	0.8852	0.2849	0.3079	-0.012
Mof_N 	N 	0.98153	0.10676	0.31178	-0.22
Mof_N 	N 	0.94046	0.12768	0.31348	-0.111
Mof_N 	N 	0.96175	0.08835	0.32428	-0.234
Mof_N 	N 	0.92011	0.14859	0.31123	-0.11
Mof_C 	C 	0.90189	0.15275	0.28908	0.093
Mof_H 	H 	0.9011	0.1418	0.2726	-0.012
Mof_C 	C 	0.93733	0.10136	0.3249	0.092
Mof_H 	H 	0.9205	0.0938	0.332	-0.031
Mof_C 	C 	0.91405	0.16867	0.33128	0.089
Mof_H 	H 	0.9232	0.1707	0.3487	-0.018
Mof_C 	C 	0.85769	0.25281	0.25752	0.09
Mof_H 	H 	0.8508	0.2503	0.2391	-0.019
Mof_C 	C 	0.89464	0.31645	0.24666	0.091
Mof_H 	H 	0.913	0.3098	0.2497	-0.013
Mof_C 	C 	0.9681	0.13009	0.30521	0.088
Mof_H 	H 	0.9761	0.1458	0.2963	-0.011
Mof_N 	N 	0.86856	0.27729	0.26815	-0.111
Mof_Cu	Cu	0.87669	0.02951	0.9128	0.826
Mof_Cu	Cu	0.85004	0.05795	0.97543	0.825
Mof_N 	N 	0.85846	0.01647	0.97281	-0.23
Mof_N 	N 	0.87086	0.00452	0.9488	-0.213
Mof_N 	N 	0.89342	0.06541	0.92807	-0.231
Mof_N 	N 	0.88591	0.07553	0.95514	-0.21
Mof_N 	N 	0.85839	0.90799	0.01677	-0.23
Mof_N 	N 	0.88795	0.90967	0.01573	-0.217
Mof_C 	C 	0.8482	0.93064	0.00436	0.085
Mof_H 	H 	0.829	0.9348	0.0019	-0.024
Mof_N 	N 	0.8704	0.94704	0.99569	-0.111
Mof_C 	C 	0.87679	0.97806	0.9545	0.09
Mof_H 	H 	0.8852	0.9651	0.9421	-0.012
Mof_N 	N 	0.98153	0.14324	0.93822	-0.22
Mof_N 	N 	0.94046	0.12232	0.93652	-0.111
Mof_N 	N 	0.96175	0.16165	0.92572	-0.234
Mof_N 	N 	0.92011	0.10141	0.93877	-0.11
Mof_C 	C 	0.90189	0.09725	0.96092	0.093
Mof_H 	H 	0.9011	0.1082	0.9774	-0.012
Mof_C 	C 	0.93733	0.14864	0.9251	0.092
Mof_H 	H 	0.9205	0.1562	0.918	-0.031
Mof_C 	C 	0.91405	0.08133	0.91872	0.089
Mof_H 	H 	0.9232	0.0793	0.9013	-0.018
Mof_C 	C 	0.85769	0.99719	0.99248	0.09
Mof_H 	H 	0.8508	0.9997	0.0109	-0.019
Mof_C 	C 	0.89464	0.93355	0.00334	0.091
Mof_H 	H 	0.913	0.9402	0.0003	-0.013
Mof_C 	C 	0.9681	0.11991	0.94479	0.088
Mof_H 	H 	0.9761	0.1042	0.9537	-0.011
Mof_N 	N 	0.86856	0.97271	0.98185	-0.111
Mof_Cu	Cu	0.87669	0.52951	0.4128	0.826
Mof_Cu	Cu	0.85004	0.55795	0.47543	0.825
Mof_N 	N 	0.85846	0.51647	0.47281	-0.23
Mof_N 	N 	0.87086	0.50452	0.4488	-0.213
Mof_N 	N 	0.89342	0.56541	0.42807	-0.231
Mof_N 	N 	0.88591	0.57553	0.45514	-0.21
Mof_N 	N 	0.85839	0.40799	0.51677	-0.23
Mof_N 	N 	0.88795	0.40967	0.51573	-0.217
Mof_C 	C 	0.8482	0.43064	0.50436	0.085
Mof_H 	H 	0.829	0.4348	0.5019	-0.024
Mof_N 	N 	0.8704	0.44704	0.49569	-0.111
Mof_C 	C 	0.87679	0.47806	0.4545	0.09
Mof_H 	H 	0.8852	0.4651	0.4421	-0.012
Mof_N 	N 	0.98153	0.64324	0.43822	-0.22
Mof_N 	N 	0.94046	0.62232	0.43652	-0.111
Mof_N 	N 	0.96175	0.66165	0.42572	-0.234
Mof_N 	N 	0.92011	0.60141	0.43877	-0.11
Mof_C 	C 	0.90189	0.59725	0.46092	0.093
Mof_H 	H 	0.9011	0.6082	0.4774	-0.012
Mof_C 	C 	0.93733	0.64864	0.4251	0.092
Mof_H 	H 	0.9205	0.6562	0.418	-0.031
Mof_C 	C 	0.91405	0.58133	0.41872	0.089
Mof_H 	H 	0.9232	0.5793	0.4013	-0.018
Mof_C 	C 	0.85769	0.49719	0.49248	0.09
Mof_H 	H 	0.8508	0.4997	0.5109	-0.019
Mof_C 	C 	0.89464	0.43355	0.50334	0.091
Mof_H 	H 	0.913	0.4402	0.5003	-0.013
Mof_C 	C 	0.9681	0.61991	0.44479	0.088
Mof_H 	H 	0.9761	0.6042	0.4537	-0.011
Mof_N 	N 	0.86856	0.47271	0.48185	-0.111
Mof_Cu	Cu	0.37669	0.02951	0.4128	0.826
Mof_Cu	Cu	0.35004	0.05795	0.47543	0.825
Mof_N 	N 	0.35846	0.01647	0.47281	-0.23
Mof_N 	N 	0.37086	0.00452	0.4488	-0.213
Mof_N 	N 	0.39342	0.06541	0.42807	-0.231
Mof_N 	N 	0.38591	0.07553	0.45514	-0.21
Mof_N 	N 	0.35839	0.90799	0.51677	-0.23
Mof_N 	N 	0.38795	0.90967	0.51573	-0.217
Mof_C 	C 	0.3482	0.93064	0.50436	0.085
Mof_H 	H 	0.329	0.9348	0.5019	-0.024
Mof_N 	N 	0.3704	0.94704	0.49569	-0.111
Mof_C 	C 	0.37679	0.97806	0.4545	0.09
Mof_H 	H 	0.3852	0.9651	0.4421	-0.012
Mof_N 	N 	0.48153	0.14324	0.43822	-0.22
Mof_N 	N 	0.44046	0.12232	0.43652	-0.111
Mof_N 	N 	0.46175	0.16165	0.42572	-0.234
Mof_N 	N 	0.42011	0.10141	0.43877	-0.11
Mof_C 	C 	0.40189	0.09725	0.46092	0.093
Mof_H 	H 	0.4011	0.1082	0.4774	-0.012
Mof_C 	C 	0.43733	0.14864	0.4251	0.092
Mof_H 	H 	0.4205	0.1562	0.418	-0.031
Mof_C 	C 	0.41405	0.08133	0.41872	0.089
Mof_H 	H 	0.4232	0.0793	0.4013	-0.018
Mof_C 	C 	0.35769	0.99719	0.49248	0.09
Mof_H 	H 	0.3508	0.9997	0.5109	-0.019
Mof_C 	C 	0.39464	0.93355	0.50334	0.091
Mof_H 	H 	0.413	0.9402	0.5003	-0.013
Mof_C 	C 	0.4681	0.11991	0.44479	0.088
Mof_H 	H 	0.4761	0.1042	0.4537	-0.011
Mof_N 	N 	0.36856	0.97271	0.48185	-0.111
Mof_Cu	Cu	0.37669	0.52951	0.9128	0.826
Mof_Cu	Cu	0.35004	0.55795	0.97543	0.825
Mof_N 	N 	0.35846	0.51647	0.97281	-0.23
Mof_N 	N 	0.37086	0.50452	0.9488	-0.213
Mof_N 	N 	0.39342	0.56541	0.92807	-0.231
Mof_N 	N 	0.38591	0.57553	0.95514	-0.21
Mof_N 	N 	0.35839	0.40799	0.01677	-0.23
Mof_N 	N 	0.38795	0.40967	0.01573	-0.217
Mof_C 	C 	0.3482	0.43064	0.00436	0.085
Mof_H 	H 	0.329	0.4348	0.0019	-0.024
Mof_N 	N 	0.3704	0.44704	0.99569	-0.111
Mof_C 	C 	0.37679	0.47806	0.9545	0.09
Mof_H 	H 	0.3852	0.4651	0.9421	-0.012
Mof_N 	N 	0.48153	0.64324	0.93822	-0.22
Mof_N 	N 	0.44046	0.62232	0.93652	-0.111
Mof_N 	N 	0.46175	0.66165	0.92572	-0.234
Mof_N 	N 	0.42011	0.60141	0.93877	-0.11
Mof_C 	C 	0.40189	0.59725	0.96092	0.093
Mof_H 	H 	0.4011	0.6082	0.9774	-0.012
Mof_C 	C 	0.43733	0.64864	0.9251	0.092
Mof_H 	H 	0.4205	0.6562	0.918	-0.031
Mof_C 	C 	0.41405	0.58133	0.91872	0.089
Mof_H 	H 	0.4232	0.5793	0.9013	-0.018
Mof_C 	C 	0.35769	0.49719	0.99248	0.09
Mof_H 	H 	0.3508	0.4997	0.0109	-0.019
Mof_C 	C 	0.39464	0.43355	0.00334	0.091
Mof_H 	H 	0.413	0.4402	0.0003	-0.013
Mof_C 	C 	0.4681	0.61991	0.94479	0.088
Mof_H 	H 	0.4761	0.6042	0.9537	-0.011
Mof_N 	N 	0.36856	0.47271	0.98185	-0.111
Mof_Cu	Cu	0.37331	0.52951	0.8372	0.826
Mof_Cu	Cu	0.39996	0.55795	0.77457	0.825
Mof_N 	N 	0.39154	0.51647	0.77719	-0.23
Mof_N 	N 	0.37914	0.50452	0.8012	-0.213
Mof_N 	N 	0.35658	0.56541	0.82193	-0.231
Mof_N 	N 	0.36409	0.57553	0.79486	-0.21
Mof_N 	N 	0.39161	0.40799	0.73323	-0.23
Mof_N 	N 	0.36205	0.40967	0.73427	-0.217
Mof_C 	C 	0.4018	0.43064	0.74564	0.085
Mof_H 	H 	0.421	0.4348	0.7481	-0.024
Mof_N 	N 	0.3796	0.44704	0.75431	-0.111
Mof_C 	C 	0.37321	0.47806	0.7955	0.09
Mof_H 	H 	0.3648	0.4651	0.8079	-0.012
Mof_N 	N 	0.26847	0.64324	0.81178	-0.22
Mof_N 	N 	0.30954	0.62232	0.81348	-0.111
Mof_N 	N 	0.28825	0.66165	0.82428	-0.234
Mof_N 	N 	0.32989	0.60141	0.81123	-0.11
Mof_C 	C 	0.34811	0.59725	0.78908	0.093
Mof_H 	H 	0.3489	0.6082	0.7726	-0.012
Mof_C 	C 	0.31267	0.64864	0.8249	0.092
Mof_H 	H 	0.3295	0.6562	0.832	-0.031
Mof_C 	C 	0.33595	0.58133	0.83128	0.089
Mof_H 	H 	0.3268	0.5793	0.8487	-0.018
Mof_C 	C 	0.39231	0.49719	0.75752	0.09
Mof_H 	H 	0.3992	0.4997	0.7391	-0.019
Mof_C 	C 	0.35536	0.43355	0.74666	0.091
Mof_H 	H 	0.337	0.4402	0.7497	-0.013
Mof_C 	C 	0.2819	0.61991	0.80521	0.088
Mof_H 	H 	0.2739	0.6042	0.7963	-0.011
Mof_N 	N 	0.38144	0.47271	0.76815	-0.111
Mof_Cu	Cu	0.37331	0.02951	0.3372	0.826
Mof_Cu	Cu	0.39996	0.05795	0.27457	0.825
Mof_N 	N 	0.39154	0.01647	0.27719	-0.23
Mof_N 	N 	0.37914	0.00452	0.3012	-0.213
Mof_N 	N 	0.35658	0.06541	0.32193	-0.231
Mof_N 	N 	0.36409	0.07553	0.29486	-0.21
Mof_N 	N 	0.39161	0.90799	0.23323	-0.23
Mof_N 	N 	0.36205	0.90967	0.23427	-0.217
Mof_C 	C 	0.4018	0.93064	0.24564	0.085
Mof_H 	H 	0.421	0.9348	0.2481	-0.024
Mof_N 	N 	0.3796	0.94704	0.25431	-0.111
Mof_C 	C 	0.37321	0.97806	0.2955	0.09
Mof_H 	H 	0.3648	0.9651	0.3079	-0.012
Mof_N 	N 	0.26847	0.14324	0.31178	-0.22
Mof_N 	N 	0.30954	0.12232	0.31348	-0.111
Mof_N 	N 	0.28825	0.16165	0.32428	-0.234
Mof_N 	N 	0.32989	0.10141	0.31123	-0.11
Mof_C 	C 	0.34811	0.09725	0.28908	0.093
Mof_H 	H 	0.3489	0.1082	0.2726	-0.012
Mof_C 	C 	0.31267	0.14864	0.3249	0.092
Mof_H 	H 	0.3295	0.1562	0.332	-0.031
Mof_C 	C 	0.33595	0.08133	0.33128	0.089
Mof_H 	H 	0.3268	0.0793	0.3487	-0.018
Mof_C 	C 	0.39231	0.99719	0.25752	0.09
Mof_H 	H 	0.3992	0.9997	0.2391	-0.019
Mof_C 	C 	0.35536	0.93355	0.24666	0.091
Mof_H 	H 	0.337	0.9402	0.2497	-0.013
Mof_C 	C 	0.2819	0.11991	0.30521	0.088
Mof_H 	H 	0.2739	0.1042	0.2963	-0.011
Mof_N 	N 	0.38144	0.97271	0.26815	-0.111
Mof_Cu	Cu	0.87331	0.52951	0.3372	0.826
Mof_Cu	Cu	0.89996	0.55795	0.27457	0.825
Mof_N 	N 	0.89154	0.51647	0.27719	-0.23
Mof_N 	N 	0.87914	0.50452	0.3012	-0.213
Mof_N 	N 	0.85658	0.56541	0.32193	-0.231
Mof_N 	N 	0.86409	0.57553	0.29486	-0.21
Mof_N 	N 	0.89161	0.40799	0.23323	-0.23
Mof_N 	N 	0.86205	0.40967	0.23427	-0.217
Mof_C 	C 	0.9018	0.43064	0.24564	0.085
Mof_H 	H 	0.921	0.4348	0.2481	-0.024
Mof_N 	N 	0.8796	0.44704	0.25431	-0.111
Mof_C 	C 	0.87321	0.47806	0.2955	0.09
Mof_H 	H 	0.8648	0.4651	0.3079	-0.012
Mof_N 	N 	0.76847	0.64324	0.31178	-0.22
Mof_N 	N 	0.80954	0.62232	0.31348	-0.111
Mof_N 	N 	0.78825	0.66165	0.32428	-0.234
Mof_N 	N 	0.82989	0.60141	0.31123	-0.11
Mof_C 	C 	0.84811	0.59725	0.28908	0.093
Mof_H 	H 	0.8489	0.6082	0.2726	-0.012
Mof_C 	C 	0.81267	0.64864	0.3249	0.092
Mof_H 	H 	0.8295	0.6562	0.332	-0.031
Mof_C 	C 	0.83595	0.58133	0.33128	0.089
Mof_H 	H 	0.8268	0.5793	0.3487	-0.018
Mof_C 	C 	0.89231	0.49719	0.25752	0.09
Mof_H 	H 	0.8992	0.4997	0.2391	-0.019
Mof_C 	C 	0.85536	0.43355	0.24666	0.091
Mof_H 	H 	0.837	0.4402	0.2497	-0.013
Mof_C 	C 	0.7819	0.61991	0.30521	0.088
Mof_H 	H 	0.7739	0.6042	0.2963	-0.011
Mof_N 	N 	0.88144	0.47271	0.26815	-0.111
Mof_Cu	Cu	0.87331	0.02951	0.8372	0.826
Mof_Cu	Cu	0.89996	0.05795	0.77457	0.825
Mof_N 	N 	0.89154	0.01647	0.77719	-0.23
Mof_N 	N 	0.87914	0.00452	0.8012	-0.213
Mof_N 	N 	0.85658	0.06541	0.82193	-0.231
Mof_N 	N 	0.86409	0.07553	0.79486	-0.21
Mof_N 	N 	0.89161	0.90799	0.73323	-0.23
Mof_N 	N 	0.86205	0.90967	0.73427	-0.217
Mof_C 	C 	0.9018	0.93064	0.74564	0.085
Mof_H 	H 	0.921	0.9348	0.7481	-0.024
Mof_N 	N 	0.8796	0.94704	0.75431	-0.111
Mof_C 	C 	0.87321	0.97806	0.7955	0.09
Mof_H 	H 	0.8648	0.9651	0.8079	-0.012
Mof_N 	N 	0.76847	0.14324	0.81178	-0.22
Mof_N 	N 	0.80954	0.12232	0.81348	-0.111
Mof_N 	N 	0.78825	0.16165	0.82428	-0.234
Mof_N 	N 	0.82989	0.10141	0.81123	-0.11
Mof_C 	C 	0.84811	0.09725	0.78908	0.093
Mof_H 	H 	0.8489	0.1082	0.7726	-0.012
Mof_C 	C 	0.81267	0.14864	0.8249	0.092
Mof_H 	H 	0.8295	0.1562	0.832	-0.031
Mof_C 	C 	0.83595	0.08133	0.83128	0.089
Mof_H 	H 	0.8268	0.0793	0.8487	-0.018
Mof_C 	C 	0.89231	0.99719	0.75752	0.09
Mof_H 	H 	0.8992	0.9997	0.7391	-0.019
Mof_C 	C 	0.85536	0.93355	0.74666	0.091
Mof_H 	H 	0.837	0.9402	0.7497	-0.013
Mof_C 	C 	0.7819	0.11991	0.80521	0.088
Mof_H 	H 	0.7739	0.1042	0.7963	-0.011
Mof_N 	N 	0.88144	0.97271	0.76815	-0.111
Mof_Cu	Cu	0.7205	0.3372	0.37669	0.826
Mof_Cu	Cu	0.69205	0.27457	0.35004	0.825
Mof_N 	N 	0.73353	0.27719	0.35846	-0.23
Mof_N 	N 	0.74548	0.3012	0.37086	-0.213
Mof_N 	N 	0.68459	0.32193	0.39342	-0.231
Mof_N 	N 	0.67447	0.29486	0.38591	-0.21
Mof_N 	N 	0.84201	0.23323	0.35839	-0.23
Mof_N 	N 	0.84033	0.23427	0.38795	-0.217
Mof_C 	C 	0.81936	0.24564	0.3482	0.085
Mof_H 	H 	0.8152	0.2481	0.329	-0.024
Mof_N 	N 	0.80296	0.25431	0.3704	-0.111
Mof_C 	C 	0.77194	0.2955	0.37679	0.09
Mof_H 	H 	0.7849	0.3079	0.3852	-0.012
Mof_N 	N 	0.60676	0.31178	0.48153	-0.22
Mof_N 	N 	0.62768	0.31348	0.44046	-0.111
Mof_N 	N 	0.58835	0.32428	0.46175	-0.234
Mof_N 	N 	0.64859	0.31123	0.42011	-0.11
Mof_C 	C 	0.65275	0.28908	0.40189	0.093
Mof_H 	H 	0.6418	0.2726	0.4011	-0.012
Mof_C 	C 	0.60136	0.3249	0.43733	0.092
Mof_H 	H 	0.5938	0.332	0.4205	-0.031
Mof_C 	C 	0.66867	0.33128	0.41405	0.089
Mof_H 	H 	0.6707	0.3487	0.4232	-0.018
Mof_C 	C 	0.75281	0.25752	0.35769	0.09
Mof_H 	H 	0.7503	0.2391	0.3508	-0.019
Mof_C 	C 	0.81645	0.24666	0.39464	0.091
Mof_H 	H 	0.8098	0.2497	0.413	-0.013
Mof_C 	C 	0.63009	0.30521	0.4681	0.088
Mof_H 	H 	0.6458	0.2963	0.4761	-0.011
Mof_N 	N 	0.77729	0.26815	0.36856	-0.111
Mof_Cu	Cu	0.7205	0.8372	0.87669	0.826
Mof_Cu	Cu	0.69205	0.77457	0.85004	0.825
Mof_N 	N 	0.73353	0.77719	0.85846	-0.23
Mof_N 	N 	0.74548	0.8012	0.87086	-0.213
Mof_N 	N 	0.68459	0.82193	0.89342	-0.231
Mof_N 	N 	0.67447	0.79486	0.88591	-0.21
Mof_N 	N 	0.84201	0.73323	0.85839	-0.23
Mof_N 	N 	0.84033	0.73427	0.88795	-0.217
Mof_C 	C 	0.81936	0.74564	0.8482	0.085
Mof_H 	H 	0.8152	0.7481	0.829	-0.024
Mof_N 	N 	0.80296	0.75431	0.8704	-0.111
Mof_C 	C 	0.77194	0.7955	0.87679	0.09
Mof_H 	H 	0.7849	0.8079	0.8852	-0.012
Mof_N 	N 	0.60676	0.81178	0.98153	-0.22
Mof_N 	N 	0.62768	0.81348	0.94046	-0.111
Mof_N 	N 	0.58835	0.82428	0.96175	-0.234
Mof_N 	N 	0.64859	0.81123	0.92011	-0.11
Mof_C 	C 	0.65275	0.78908	0.90189	0.093
Mof_H 	H 	0.6418	0.7726	0.9011	-0.012
Mof_C 	C 	0.60136	0.8249	0.93733	0.092
Mof_H 	H 	0.5938	0.832	0.9205	-0.031
Mof_C 	C 	0.66867	0.83128	0.91405	0.089
Mof_H 	H 	0.6707	0.8487	0.9232	-0.018
Mof_C 	C 	0.75281	0.75752	0.85769	0.09
Mof_H 	H 	0.7503	0.7391	0.8508	-0.019
Mof_C 	C 	0.81645	0.74666	0.89464	0.091
Mof_H 	H 	0.8098	0.7497	0.913	-0.013
Mof_C 	C 	0.63009	0.80521	0.9681	0.088
Mof_H 	H 	0.6458	0.7963	0.9761	-0.011
Mof_N 	N 	0.77729	0.76815	0.86856	-0.111
Mof_Cu	Cu	0.2205	0.3372	0.87669	0.826
Mof_Cu	Cu	0.19205	0.27457	0.85004	0.825
Mof_N 	N 	0.23353	0.27719	0.85846	-0.23
Mof_N 	N 	0.24548	0.3012	0.87086	-0.213
Mof_N 	N 	0.18459	0.32193	0.89342	-0.231
Mof_N 	N 	0.17447	0.29486	0.88591	-0.21
Mof_N 	N 	0.34201	0.23323	0.85839	-0.23
Mof_N 	N 	0.34033	0.23427	0.88795	-0.217
Mof_C 	C 	0.31936	0.24564	0.8482	0.085
Mof_H 	H 	0.3152	0.2481	0.829	-0.024
Mof_N 	N 	0.30296	0.25431	0.8704	-0.111
Mof_C 	C 	0.27194	0.2955	0.87679	0.09
Mof_H 	H 	0.2849	0.3079	0.8852	-0.012
Mof_N 	N 	0.10676	0.31178	0.98153	-0.22
Mof_N 	N 	0.12768	0.31348	0.94046	-0.111
Mof_N 	N 	0.08835	0.32428	0.96175	-0.234
Mof_N 	N 	0.14859	0.31123	0.92011	-0.11
Mof_C 	C 	0.15275	0.28908	0.90189	0.093
Mof_H 	H 	0.1418	0.2726	0.9011	-0.012
Mof_C 	C 	0.10136	0.3249	0.93733	0.092
Mof_H 	H 	0.0938	0.332	0.9205	-0.031
Mof_C 	C 	0.16867	0.33128	0.91405	0.089
Mof_H 	H 	0.1707	0.3487	0.9232	-0.018
Mof_C 	C 	0.25281	0.25752	0.85769	0.09
Mof_H 	H 	0.2503	0.2391	0.8508	-0.019
Mof_C 	C 	0.31645	0.24666	0.89464	0.091
Mof_H 	H 	0.3098	0.2497	0.913	-0.013
Mof_C 	C 	0.13009	0.30521	0.9681	0.088
Mof_H 	H 	0.1458	0.2963	0.9761	-0.011
Mof_N 	N 	0.27729	0.26815	0.86856	-0.111
Mof_Cu	Cu	0.2205	0.8372	0.37669	0.826
Mof_Cu	Cu	0.19205	0.77457	0.35004	0.825
Mof_N 	N 	0.23353	0.77719	0.35846	-0.23
Mof_N 	N 	0.24548	0.8012	0.37086	-0.213
Mof_N 	N 	0.18459	0.82193	0.39342	-0.231
Mof_N 	N 	0.17447	0.79486	0.38591	-0.21
Mof_N 	N 	0.34201	0.73323	0.35839	-0.23
Mof_N 	N 	0.34033	0.73427	0.38795	-0.217
Mof_C 	C 	0.31936	0.74564	0.3482	0.085
Mof_H 	H 	0.3152	0.7481	0.329	-0.024
Mof_N 	N 	0.30296	0.75431	0.3704	-0.111
Mof_C 	C 	0.27194	0.7955	0.37679	0.09
Mof_H 	H 	0.2849	0.8079	0.3852	-0.012
Mof_N 	N 	0.10676	0.81178	0.48153	-0.22
Mof_N 	N 	0.12768	0.81348	0.44046	-0.111
Mof_N 	N 	0.08835	0.82428	0.46175	-0.234
Mof_N 	N 	0.14859	0.81123	0.42011	-0.11
Mof_C 	C 	0.15275	0.78908	0.40189	0.093
Mof_H 	H 	0.1418	0.7726	0.4011	-0.012
Mof_C 	C 	0.10136	0.8249	0.43733	0.092
Mof_H 	H 	0.0938	0.832	0.4205	-0.031
Mof_C 	C 	0.16867	0.83128	0.41405	0.089
Mof_H 	H 	0.1707	0.8487	0.4232	-0.018
Mof_C 	C 	0.25281	0.75752	0.35769	0.09
Mof_H 	H 	0.2503	0.7391	0.3508	-0.019
Mof_C 	C 	0.31645	0.74666	0.39464	0.091
Mof_H 	H 	0.3098	0.7497	0.413	-0.013
Mof_C 	C 	0.13009	0.80521	0.4681	0.088
Mof_H 	H 	0.1458	0.7963	0.4761	-0.011
Mof_N 	N 	0.27729	0.76815	0.36856	-0.111
Mof_Cu	Cu	0.2205	0.4128	0.87331	0.826
Mof_Cu	Cu	0.19205	0.47543	0.89996	0.825
Mof_N 	N 	0.23353	0.47281	0.89154	-0.23
Mof_N 	N 	0.24548	0.4488	0.87914	-0.213
Mof_N 	N 	0.18459	0.42807	0.85658	-0.231
Mof_N 	N 	0.17447	0.45514	0.86409	-0.21
Mof_N 	N 	0.34201	0.51677	0.89161	-0.23
Mof_N 	N 	0.34033	0.51573	0.86205	-0.217
Mof_C 	C 	0.31936	0.50436	0.9018	0.085
Mof_H 	H 	0.3152	0.5019	0.921	-0.024
Mof_N 	N 	0.30296	0.49569	0.8796	-0.111
Mof_C 	C 	0.27194	0.4545	0.87321	0.09
Mof_H 	H 	0.2849	0.4421	0.8648	-0.012
Mof_N 	N 	0.10676	0.43822	0.76847	-0.22
Mof_N 	N 	0.12768	0.43652	0.80954	-0.111
Mof_N 	N 	0.08835	0.42572	0.78825	-0.234
Mof_N 	N 	0.14859	0.43877	0.82989	-0.11
Mof_C 	C 	0.15275	0.46092	0.84811	0.093
Mof_H 	H 	0.1418	0.4774	0.8489	-0.012
Mof_C 	C 	0.10136	0.4251	0.81267	0.092
Mof_H 	H 	0.0938	0.418	0.8295	-0.031
Mof_C 	C 	0.16867	0.41872	0.83595	0.089
Mof_H 	H 	0.1707	0.4013	0.8268	-0.018
Mof_C 	C 	0.25281	0.49248	0.89231	0.09
Mof_H 	H 	0.2503	0.5109	0.8992	-0.019
Mof_C 	C 	0.31645	0.50334	0.85536	0.091
Mof_H 	H 	0.3098	0.5003	0.837	-0.013
Mof_C 	C 	0.13009	0.44479	0.7819	0.088
Mof_H 	H 	0.1458	0.4537	0.7739	-0.011
Mof_N 	N 	0.27729	0.48185	0.88144	-0.111
Mof_Cu	Cu	0.2205	0.9128	0.37331	0.826
Mof_Cu	Cu	0.19205	0.97543	0.39996	0.825
Mof_N 	N 	0.23353	0.97281	0.39154	-0.23
Mof_N 	N 	0.24548	0.9488	0.37914	-0.213
Mof_N 	N 	0.18459	0.92807	0.35658	-0.231
Mof_N 	N 	0.17447	0.95514	0.36409	-0.21
Mof_N 	N 	0.34201	0.01677	0.39161	-0.23
Mof_N 	N 	0.34033	0.01573	0.36205	-0.217
Mof_C 	C 	0.31936	0.00436	0.4018	0.085
Mof_H 	H 	0.3152	0.0019	0.421	-0.024
Mof_N 	N 	0.30296	0.99569	0.3796	-0.111
Mof_C 	C 	0.27194	0.9545	0.37321	0.09
Mof_H 	H 	0.2849	0.9421	0.3648	-0.012
Mof_N 	N 	0.10676	0.93822	0.26847	-0.22
Mof_N 	N 	0.12768	0.93652	0.30954	-0.111
Mof_N 	N 	0.08835	0.92572	0.28825	-0.234
Mof_N 	N 	0.14859	0.93877	0.32989	-0.11
Mof_C 	C 	0.15275	0.96092	0.34811	0.093
Mof_H 	H 	0.1418	0.9774	0.3489	-0.012
Mof_C 	C 	0.10136	0.9251	0.31267	0.092
Mof_H 	H 	0.0938	0.918	0.3295	-0.031
Mof_C 	C 	0.16867	0.91872	0.33595	0.089
Mof_H 	H 	0.1707	0.9013	0.3268	-0.018
Mof_C 	C 	0.25281	0.99248	0.39231	0.09
Mof_H 	H 	0.2503	0.0109	0.3992	-0.019
Mof_C 	C 	0.31645	0.00334	0.35536	0.091
Mof_H 	H 	0.3098	0.0003	0.337	-0.013
Mof_C 	C 	0.13009	0.94479	0.2819	0.088
Mof_H 	H 	0.1458	0.9537	0.2739	-0.011
Mof_N 	N 	0.27729	0.98185	0.38144	-0.111
Mof_Cu	Cu	0.7205	0.4128	0.37331	0.826
Mof_Cu	Cu	0.69205	0.47543	0.39996	0.825
Mof_N 	N 	0.73353	0.47281	0.39154	-0.23
Mof_N 	N 	0.74548	0.4488	0.37914	-0.213
Mof_N 	N 	0.68459	0.42807	0.35658	-0.231
Mof_N 	N 	0.67447	0.45514	0.36409	-0.21
Mof_N 	N 	0.84201	0.51677	0.39161	-0.23
Mof_N 	N 	0.84033	0.51573	0.36205	-0.217
Mof_C 	C 	0.81936	0.50436	0.4018	0.085
Mof_H 	H 	0.8152	0.5019	0.421	-0.024
Mof_N 	N 	0.80296	0.49569	0.3796	-0.111
Mof_C 	C 	0.77194	0.4545	0.37321	0.09
Mof_H 	H 	0.7849	0.4421	0.3648	-0.012
Mof_N 	N 	0.60676	0.43822	0.26847	-0.22
Mof_N 	N 	0.62768	0.43652	0.30954	-0.111
Mof_N 	N 	0.58835	0.42572	0.28825	-0.234
Mof_N 	N 	0.64859	0.43877	0.32989	-0.11
Mof_C 	C 	0.65275	0.46092	0.34811	0.093
Mof_H 	H 	0.6418	0.4774	0.3489	-0.012
Mof_C 	C 	0.60136	0.4251	0.31267	0.092
Mof_H 	H 	0.5938	0.418	0.3295	-0.031
Mof_C 	C 	0.66867	0.41872	0.33595	0.089
Mof_H 	H 	0.6707	0.4013	0.3268	-0.018
Mof_C 	C 	0.75281	0.49248	0.39231	0.09
Mof_H 	H 	0.7503	0.5109	0.3992	-0.019
Mof_C 	C 	0.81645	0.50334	0.35536	0.091
Mof_H 	H 	0.8098	0.5003	0.337	-0.013
Mof_C 	C 	0.63009	0.44479	0.2819	0.088
Mof_H 	H 	0.6458	0.4537	0.2739	-0.011
Mof_N 	N 	0.77729	0.48185	0.38144	-0.111
Mof_Cu	Cu	0.7205	0.9128	0.87331	0.826
Mof_Cu	Cu	0.69205	0.97543	0.89996	0.825
Mof_N 	N 	0.73353	0.97281	0.89154	-0.23
Mof_N 	N 	0.74548	0.9488	0.87914	-0.213
Mof_N 	N 	0.68459	0.92807	0.85658	-0.231
Mof_N 	N 	0.67447	0.95514	0.86409	-0.21
Mof_N 	N 	0.84201	0.01677	0.89161	-0.23
Mof_N 	N 	0.84033	0.01573	0.86205	-0.217
Mof_C 	C 	0.81936	0.00436	0.9018	0.085
Mof_H 	H 	0.8152	0.0019	0.921	-0.024
Mof_N 	N 	0.80296	0.99569	0.8796	-0.111
Mof_C 	C 	0.77194	0.9545	0.87321	0.09
Mof_H 	H 	0.7849	0.9421	0.8648	-0.012
Mof_N 	N 	0.60676	0.93822	0.76847	-0.22
Mof_N 	N 	0.62768	0.93652	0.80954	-0.111
Mof_N 	N 	0.58835	0.92572	0.78825	-0.234
Mof_N 	N 	0.64859	0.93877	0.82989	-0.11
Mof_C 	C 	0.65275	0.96092	0.84811	0.093
Mof_H 	H 	0.6418	0.9774	0.8489	-0.012
Mof_C 	C 	0.60136	0.9251	0.81267	0.092
Mof_H 	H 	0.5938	0.918	0.8295	-0.031
Mof_C 	C 	0.66867	0.91872	0.83595	0.089
Mof_H 	H 	0.6707	0.9013	0.8268	-0.018
Mof_C 	C 	0.75281	0.99248	0.89231	0.09
Mof_H 	H 	0.7503	0.0109	0.8992	-0.019
Mof_C 	C 	0.81645	0.00334	0.85536	0.091
Mof_H 	H 	0.8098	0.0003	0.837	-0.013
Mof_C 	C 	0.63009	0.94479	0.7819	0.088
Mof_H 	H 	0.6458	0.9537	0.7739	-0.011
Mof_N 	N 	0.77729	0.98185	0.88144	-0.111
Mof_Cu	Cu	0.52951	0.8372	0.37331	0.826
Mof_Cu	Cu	0.55795	0.77457	0.39996	0.825
Mof_N 	N 	0.51647	0.77719	0.39154	-0.23
Mof_N 	N 	0.50452	0.8012	0.37914	-0.213
Mof_N 	N 	0.56541	0.82193	0.35658	-0.231
Mof_N 	N 	0.57553	0.79486	0.36409	-0.21
Mof_N 	N 	0.40799	0.73323	0.39161	-0.23
Mof_N 	N 	0.40967	0.73427	0.36205	-0.217
Mof_C 	C 	0.43064	0.74564	0.4018	0.085
Mof_H 	H 	0.4348	0.7481	0.421	-0.024
Mof_N 	N 	0.44704	0.75431	0.3796	-0.111
Mof_C 	C 	0.47806	0.7955	0.37321	0.09
Mof_H 	H 	0.4651	0.8079	0.3648	-0.012
Mof_N 	N 	0.64324	0.81178	0.26847	-0.22
Mof_N 	N 	0.62232	0.81348	0.30954	-0.111
Mof_N 	N 	0.66165	0.82428	0.28825	-0.234
Mof_N 	N 	0.60141	0.81123	0.32989	-0.11
Mof_C 	C 	0.59725	0.78908	0.34811	0.093
Mof_H 	H 	0.6082	0.7726	0.3489	-0.012
Mof_C 	C 	0.64864	0.8249	0.31267	0.092
Mof_H 	H 	0.6562	0.832	0.3295	-0.031
Mof_C 	C 	0.58133	0.83128	0.33595	0.089
Mof_H 	H 	0.5793	0.8487	0.3268	-0.018
Mof_C 	C 	0.49719	0.75752	0.39231	0.09
Mof_H 	H 	0.4997	0.7391	0.3992	-0.019
Mof_C 	C 	0.43355	0.74666	0.35536	0.091
Mof_H 	H 	0.4402	0.7497	0.337	-0.013
Mof_C 	C 	0.61991	0.80521	0.2819	0.088
Mof_H 	H 	0.6042	0.7963	0.2739	-0.011
Mof_N 	N 	0.47271	0.76815	0.38144	-0.111
Mof_Cu	Cu	0.52951	0.3372	0.87331	0.826
Mof_Cu	Cu	0.55795	0.27457	0.89996	0.825
Mof_N 	N 	0.51647	0.27719	0.89154	-0.23
Mof_N 	N 	0.50452	0.3012	0.87914	-0.213
Mof_N 	N 	0.56541	0.32193	0.85658	-0.231
Mof_N 	N 	0.57553	0.29486	0.86409	-0.21
Mof_N 	N 	0.40799	0.23323	0.89161	-0.23
Mof_N 	N 	0.40967	0.23427	0.86205	-0.217
Mof_C 	C 	0.43064	0.24564	0.9018	0.085
Mof_H 	H 	0.4348	0.2481	0.921	-0.024
Mof_N 	N 	0.44704	0.25431	0.8796	-0.111
Mof_C 	C 	0.47806	0.2955	0.87321	0.09
Mof_H 	H 	0.4651	0.3079	0.8648	-0.012
Mof_N 	N 	0.64324	0.31178	0.76847	-0.22
Mof_N 	N 	0.62232	0.31348	0.80954	-0.111
Mof_N 	N 	0.66165	0.32428	0.78825	-0.234
Mof_N 	N 	0.60141	0.31123	0.82989	-0.11
Mof_C 	C 	0.59725	0.28908	0.84811	0.093
Mof_H 	H 	0.6082	0.2726	0.8489	-0.012
Mof_C 	C 	0.64864	0.3249	0.81267	0.092
Mof_H 	H 	0.6562	0.332	0.8295	-0.031
Mof_C 	C 	0.58133	0.33128	0.83595	0.089
Mof_H 	H 	0.5793	0.3487	0.8268	-0.018
Mof_C 	C 	0.49719	0.25752	0.89231	0.09
Mof_H 	H 	0.4997	0.2391	0.8992	-0.019
Mof_C 	C 	0.43355	0.24666	0.85536	0.091
Mof_H 	H 	0.4402	0.2497	0.837	-0.013
Mof_C 	C 	0.61991	0.30521	0.7819	0.088
Mof_H 	H 	0.6042	0.2963	0.7739	-0.011
Mof_N 	N 	0.47271	0.26815	0.88144	-0.111
Mof_Cu	Cu	0.02951	0.8372	0.87331	0.826
Mof_Cu	Cu	0.05795	0.77457	0.89996	0.825
Mof_N 	N 	0.01647	0.77719	0.89154	-0.23
Mof_N 	N 	0.00452	0.8012	0.87914	-0.213
Mof_N 	N 	0.06541	0.82193	0.85658	-0.231
Mof_N 	N 	0.07553	0.79486	0.86409	-0.21
Mof_N 	N 	0.90799	0.73323	0.89161	-0.23
Mof_N 	N 	0.90967	0.73427	0.86205	-0.217
Mof_C 	C 	0.93064	0.74564	0.9018	0.085
Mof_H 	H 	0.9348	0.7481	0.921	-0.024
Mof_N 	N 	0.94704	0.75431	0.8796	-0.111
Mof_C 	C 	0.97806	0.7955	0.87321	0.09
Mof_H 	H 	0.9651	0.8079	0.8648	-0.012
Mof_N 	N 	0.14324	0.81178	0.76847	-0.22
Mof_N 	N 	0.12232	0.81348	0.80954	-0.111
Mof_N 	N 	0.16165	0.82428	0.78825	-0.234
Mof_N 	N 	0.10141	0.81123	0.82989	-0.11
Mof_C 	C 	0.09725	0.78908	0.84811	0.093
Mof_H 	H 	0.1082	0.7726	0.8489	-0.012
Mof_C 	C 	0.14864	0.8249	0.81267	0.092
Mof_H 	H 	0.1562	0.832	0.8295	-0.031
Mof_C 	C 	0.08133	0.83128	0.83595	0.089
Mof_H 	H 	0.0793	0.8487	0.8268	-0.018
Mof_C 	C 	0.99719	0.75752	0.89231	0.09
Mof_H 	H 	0.9997	0.7391	0.8992	-0.019
Mof_C 	C 	0.93355	0.74666	0.85536	0.091
Mof_H 	H 	0.9402	0.7497	0.837	-0.013
Mof_C 	C 	0.11991	0.80521	0.7819	0.088
Mof_H 	H 	0.1042	0.7963	0.7739	-0.011
Mof_N 	N 	0.97271	0.76815	0.88144	-0.111
Mof_Cu	Cu	0.02951	0.3372	0.37331	0.826
Mof_Cu	Cu	0.05795	0.27457	0.39996	0.825
Mof_N 	N 	0.01647	0.27719	0.39154	-0.23
Mof_N 	N 	0.00452	0.3012	0.37914	-0.213
Mof_N 	N 	0.06541	0.32193	0.35658	-0.231
Mof_N 	N 	0.07553	0.29486	0.36409	-0.21
Mof_N 	N 	0.90799	0.23323	0.39161	-0.23
Mof_N 	N 	0.90967	0.23427	0.36205	-0.217
Mof_C 	C 	0.93064	0.24564	0.4018	0.085
Mof_H 	H 	0.9348	0.2481	0.421	-0.024
Mof_N 	N 	0.94704	0.25431	0.3796	-0.111
Mof_C 	C 	0.97806	0.2955	0.37321	0.09
Mof_H 	H 	0.9651	0.3079	0.3648	-0.012
Mof_N 	N 	0.14324	0.31178	0.26847	-0.22
Mof_N 	N 	0.12232	0.31348	0.30954	-0.111
Mof_N 	N 	0.16165	0.32428	0.28825	-0.234
Mof_N 	N 	0.10141	0.31123	0.32989	-0.11
Mof_C 	C 	0.09725	0.28908	0.34811	0.093
Mof_H 	H 	0.1082	0.2726	0.3489	-0.012
Mof_C 	C 	0.14864	0.3249	0.31267	0.092
Mof_H 	H 	0.1562	0.332	0.3295	-0.031
Mof_C 	C 	0.08133	0.33128	0.33595	0.089
Mof_H 	H 	0.0793	0.3487	0.3268	-0.018
Mof_C 	C 	0.99719	0.25752	0.39231	0.09
Mof_H 	H 	0.9997	0.2391	0.3992	-0.019
Mof_C 	C 	0.93355	0.24666	0.35536	0.091
Mof_H 	H 	0.9402	0.2497	0.337	-0.013
Mof_C 	C 	0.11991	0.30521	0.2819	0.088
Mof_H 	H 	0.1042	0.2963	0.2739	-0.011
Mof_N 	N 	0.97271	0.26815	0.38144	-0.111
Mof_Cu	Cu	0.02951	0.9128	0.87669	0.826
Mof_Cu	Cu	0.05795	0.97543	0.85004	0.825
Mof_N 	N 	0.01647	0.97281	0.85846	-0.23
Mof_N 	N 	0.00452	0.9488	0.87086	-0.213
Mof_N 	N 	0.06541	0.92807	0.89342	-0.231
Mof_N 	N 	0.07553	0.95514	0.88591	-0.21
Mof_N 	N 	0.90799	0.01677	0.85839	-0.23
Mof_N 	N 	0.90967	0.01573	0.88795	-0.217
Mof_C 	C 	0.93064	0.00436	0.8482	0.085
Mof_H 	H 	0.9348	0.0019	0.829	-0.024
Mof_N 	N 	0.94704	0.99569	0.8704	-0.111
Mof_C 	C 	0.97806	0.9545	0.87679	0.09
Mof_H 	H 	0.9651	0.9421	0.8852	-0.012
Mof_N 	N 	0.14324	0.93822	0.98153	-0.22
Mof_N 	N 	0.12232	0.93652	0.94046	-0.111
Mof_N 	N 	0.16165	0.92572	0.96175	-0.234
Mof_N 	N 	0.10141	0.93877	0.92011	-0.11
Mof_C 	C 	0.09725	0.96092	0.90189	0.093
Mof_H 	H 	0.1082	0.9774	0.9011	-0.012
Mof_C 	C 	0.14864	0.9251	0.93733	0.092
Mof_H 	H 	0.1562	0.918	0.9205	-0.031
Mof_C 	C 	0.08133	0.91872	0.91405	0.089
Mof_H 	H 	0.0793	0.9013	0.9232	-0.018
Mof_C 	C 	0.99719	0.99248	0.85769	0.09
Mof_H 	H 	0.9997	0.0109	0.8508	-0.019
Mof_C 	C 	0.93355	0.00334	0.89464	0.091
Mof_H 	H 	0.9402	0.0003	0.913	-0.013
Mof_C 	C 	0.11991	0.94479	0.9681	0.088
Mof_H 	H 	0.1042	0.9537	0.9761	-0.011
Mof_N 	N 	0.97271	0.98185	0.86856	-0.111
Mof_Cu	Cu	0.02951	0.4128	0.37669	0.826
Mof_Cu	Cu	0.05795	0.47543	0.35004	0.825
Mof_N 	N 	0.01647	0.47281	0.35846	-0.23
Mof_N 	N 	0.00452	0.4488	0.37086	-0.213
Mof_N 	N 	0.06541	0.42807	0.39342	-0.231
Mof_N 	N 	0.07553	0.45514	0.38591	-0.21
Mof_N 	N 	0.90799	0.51677	0.35839	-0.23
Mof_N 	N 	0.90967	0.51573	0.38795	-0.217
Mof_C 	C 	0.93064	0.50436	0.3482	0.085
Mof_H 	H 	0.9348	0.5019	0.329	-0.024
Mof_N 	N 	0.94704	0.49569	0.3704	-0.111
Mof_C 	C 	0.97806	0.4545	0.37679	0.09
Mof_H 	H 	0.9651	0.4421	0.3852	-0.012
Mof_N 	N 	0.14324	0.43822	0.48153	-0.22
Mof_N 	N 	0.12232	0.43652	0.44046	-0.111
Mof_N 	N 	0.16165	0.42572	0.46175	-0.234
Mof_N 	N 	0.10141	0.43877	0.42011	-0.11
Mof_C 	C 	0.09725	0.46092	0.40189	0.093
Mof_H 	H 	0.1082	0.4774	0.4011	-0.012
Mof_C 	C 	0.14864	0.4251	0.43733	0.092
Mof_H 	H 	0.1562	0.418	0.4205	-0.031
Mof_C 	C 	0.08133	0.41872	0.41405	0.089
Mof_H 	H 	0.0793	0.4013	0.4232	-0.018
Mof_C 	C 	0.99719	0.49248	0.35769	0.09
Mof_H 	H 	0.9997	0.5109	0.3508	-0.019
Mof_C 	C 	0.93355	0.50334	0.39464	0.091
Mof_H 	H 	0.9402	0.5003	0.413	-0.013
Mof_C 	C 	0.11991	0.44479	0.4681	0.088
Mof_H 	H 	0.1042	0.4537	0.4761	-0.011
Mof_N 	N 	0.97271	0.48185	0.36856	-0.111
Mof_Cu	Cu	0.52951	0.9128	0.37669	0.826
Mof_Cu	Cu	0.55795	0.97543	0.35004	0.825
Mof_N 	N 	0.51647	0.97281	0.35846	-0.23
Mof_N 	N 	0.50452	0.9488	0.37086	-0.213
Mof_N 	N 	0.56541	0.92807	0.39342	-0.231
Mof_N 	N 	0.57553	0.95514	0.38591	-0.21
Mof_N 	N 	0.40799	0.01677	0.35839	-0.23
Mof_N 	N 	0.40967	0.01573	0.38795	-0.217
Mof_C 	C 	0.43064	0.00436	0.3482	0.085
Mof_H 	H 	0.4348	0.0019	0.329	-0.024
Mof_N 	N 	0.44704	0.99569	0.3704	-0.111
Mof_C 	C 	0.47806	0.9545	0.37679	0.09
Mof_H 	H 	0.4651	0.9421	0.3852	-0.012
Mof_N 	N 	0.64324	0.93822	0.48153	-0.22
Mof_N 	N 	0.62232	0.93652	0.44046	-0.111
Mof_N 	N 	0.66165	0.92572	0.46175	-0.234
Mof_N 	N 	0.60141	0.93877	0.42011	-0.11
Mof_C 	C 	0.59725	0.96092	0.40189	0.093
Mof_H 	H 	0.6082	0.9774	0.4011	-0.012
Mof_C 	C 	0.64864	0.9251	0.43733	0.092
Mof_H 	H 	0.6562	0.918	0.4205	-0.031
Mof_C 	C 	0.58133	0.91872	0.41405	0.089
Mof_H 	H 	0.5793	0.9013	0.4232	-0.018
Mof_C 	C 	0.49719	0.99248	0.35769	0.09
Mof_H 	H 	0.4997	0.0109	0.3508	-0.019
Mof_C 	C 	0.43355	0.00334	0.39464	0.091
Mof_H 	H 	0.4402	0.0003	0.413	-0.013
Mof_C 	C 	0.61991	0.94479	0.4681	0.088
Mof_H 	H 	0.6042	0.9537	0.4761	-0.011
Mof_N 	N 	0.47271	0.98185	0.36856	-0.111
Mof_Cu	Cu	0.52951	0.4128	0.87669	0.826
Mof_Cu	Cu	0.55795	0.47543	0.85004	0.825
Mof_N 	N 	0.51647	0.47281	0.85846	-0.23
Mof_N 	N 	0.50452	0.4488	0.87086	-0.213
Mof_N 	N 	0.56541	0.42807	0.89342	-0.231
Mof_N 	N 	0.57553	0.45514	0.88591	-0.21
Mof_N 	N 	0.40799	0.51677	0.85839	-0.23
Mof_N 	N 	0.40967	0.51573	0.88795	-0.217
Mof_C 	C 	0.43064	0.50436	0.8482	0.085
Mof_H 	H 	0.4348	0.5019	0.829	-0.024
Mof_N 	N 	0.44704	0.49569	0.8704	-0.111
Mof_C 	C 	0.47806	0.4545	0.87679	0.09
Mof_H 	H 	0.4651	0.4421	0.8852	-0.012
Mof_N 	N 	0.64324	0.43822	0.98153	-0.22
Mof_N 	N 	0.62232	0.43652	0.94046	-0.111
Mof_N 	N 	0.66165	0.42572	0.96175	-0.234
Mof_N 	N 	0.60141	0.43877	0.92011	-0.11
Mof_C 	C 	0.59725	0.46092	0.90189	0.093
Mof_H 	H 	0.6082	0.4774	0.9011	-0.012
Mof_C 	C 	0.64864	0.4251	0.93733	0.092
Mof_H 	H 	0.6562	0.418	0.9205	-0.031
Mof_C 	C 	0.58133	0.41872	0.91405	0.089
Mof_H 	H 	0.5793	0.4013	0.9232	-0.018
Mof_C 	C 	0.49719	0.49248	0.85769	0.09
Mof_H 	H 	0.4997	0.5109	0.8508	-0.019
Mof_C 	C 	0.43355	0.50334	0.89464	0.091
Mof_H 	H 	0.4402	0.5003	0.913	-0.013
Mof_C 	C 	0.61991	0.44479	0.9681	0.088
Mof_H 	H 	0.6042	0.4537	0.9761	-0.011
Mof_N 	N 	0.47271	0.48185	0.86856	-0.111
_end
