data_functionalizedCrystal
_audit_creation_method	'EQeq! by Chris Wilmer'
_symmetry_space_group_name_H-M	'P1'
_symmetry_Int_Tables_number	1
_symmetry_cell_setting	triclinic
loop_
_symmetry_equiv_pos_as_xyz
  x,y,z
_cell_length_a	14.3982
_cell_length_b	15.0175
_cell_length_c	24.6029
_cell_angle_alpha	75.0846
_cell_angle_beta	72.9856
_cell_angle_gamma	61.3551
loop_
_atom_site_label
_atom_site_type_symbol
_atom_site_fract_x
_atom_site_fract_y
_atom_site_fract_z
_atom_site_charge
Mof_Gd	Gd	0.85058	0.88326	0.68988	1.828
Mof_Gd	Gd	0.25129	0.63251	0.69865	1.857
Mof_Gd	Gd	0.42372	0.61674	0.81012	1.829
Mof_Gd	Gd	0.58245	0.86749	0.80135	1.858
Mof_Gd	Gd	0.14942	0.11674	0.31012	1.828
Mof_Gd	Gd	0.74871	0.36749	0.30135	1.857
Mof_Gd	Gd	0.57628	0.38326	0.18988	1.829
Mof_Gd	Gd	0.41755	0.13251	0.19865	1.858
Mof_H 	H 	0.99	0.0877	0.7175	-0.009
Mof_H 	H 	0.0762	0.1719	0.7333	0.103
Mof_H 	H 	0.236	0.0813	0.7661	-0.007
Mof_H 	H 	0.2216	0.8201	0.7699	-0.056
Mof_H 	H 	0.6934	0.8714	0.5388	0.007
Mof_H 	H 	0.5957	0.8308	0.4978	0.101
Mof_H 	H 	0.4746	0.769	0.5542	0.002
Mof_H 	H 	0.5462	0.7879	0.6947	-0.019
Mof_H 	H 	0.5912	0.2098	0.6318	0.031
Mof_H 	H 	0.4691	0.3563	0.5851	0.081
Mof_H 	H 	0.5231	0.4151	0.4903	0.038
Mof_H 	H 	0.8258	0.199	0.4936	0.046
Mof_H 	H 	0.7738	0.097	0.7576	0.016
Mof_H 	H 	0.7952	0.4123	0.7825	-0.011
Mof_H 	H 	0.9814	0.3281	0.7667	0.104
Mof_H 	H 	0.0834	0.4187	0.7339	-0.006
Mof_H 	H 	0.8116	0.6799	0.7301	-0.056
Mof_H 	H 	0.1036	0.6286	0.9612	0.01
Mof_H 	H 	0.9243	0.6692	0.0022	0.095
Mof_H 	H 	0.7978	0.731	0.9458	0.005
Mof_H 	H 	0.0288	0.7121	0.8053	-0.017
Mof_H 	H 	0.4328	0.2902	0.8682	0.032
Mof_H 	H 	0.4105	0.1437	0.9149	0.08
Mof_H 	H 	0.4285	0.0849	0.0097	0.039
Mof_H 	H 	0.5184	0.301	0.0064	0.047
Mof_H 	H 	0.6284	0.403	0.7424	0.016
Mof_H 	H 	0.01	0.9123	0.2825	-0.009
Mof_H 	H 	0.9238	0.8281	0.2667	0.103
Mof_H 	H 	0.764	0.9187	0.2339	-0.007
Mof_H 	H 	0.7784	0.1799	0.2301	-0.056
Mof_H 	H 	0.3066	0.1286	0.4612	0.007
Mof_H 	H 	0.4043	0.1692	0.5022	0.101
Mof_H 	H 	0.5254	0.231	0.4458	0.002
Mof_H 	H 	0.4538	0.2121	0.3053	-0.019
Mof_H 	H 	0.4088	0.7902	0.3682	0.031
Mof_H 	H 	0.5309	0.6437	0.4149	0.081
Mof_H 	H 	0.4769	0.5849	0.5097	0.038
Mof_H 	H 	0.1742	0.801	0.5064	0.046
Mof_H 	H 	0.2262	0.903	0.2424	0.016
Mof_H 	H 	0.2048	0.5877	0.2175	-0.011
Mof_H 	H 	0.0186	0.6719	0.2333	0.104
Mof_H 	H 	0.9166	0.5813	0.2661	-0.006
Mof_H 	H 	0.1884	0.3201	0.2699	-0.056
Mof_H 	H 	0.8964	0.3714	0.0388	0.01
Mof_H 	H 	0.0757	0.3308	0.9978	0.095
Mof_H 	H 	0.2022	0.269	0.0542	0.005
Mof_H 	H 	0.9712	0.2879	0.1947	-0.017
Mof_H 	H 	0.5672	0.7098	0.1318	0.032
Mof_H 	H 	0.5895	0.8563	0.0851	0.08
Mof_H 	H 	0.5715	0.9151	0.9903	0.039
Mof_H 	H 	0.4816	0.699	0.9936	0.047
Mof_H 	H 	0.3716	0.597	0.2576	0.016
Mof_H 	H 	0.7797	0.25	0.75	0.082
Mof_H 	H 	0.4588	0.25	0.75	0.034
Mof_H 	H 	0.2203	0.75	0.25	0.082
Mof_H 	H 	0.5412	0.75	0.25	0.034
Mof_C 	C 	0.052	0.8861	0.7247	0.505
Mof_C 	C 	0.0999	0.944	0.7402	-0.247
Mof_C 	C 	0.0547	0.0504	0.7306	0.15
Mof_C 	C 	0.106	0.1009	0.7403	-0.213
Mof_C 	C 	0.2012	0.0467	0.7605	0.148
Mof_C 	C 	0.245	0.9404	0.7724	-0.241
Mof_C 	C 	0.1929	0.891	0.762	0.2
Mof_C 	C 	0.3492	0.8773	0.7941	0.507
Mof_C 	C 	0.6989	0.852	0.648	0.43
Mof_C 	C 	0.6301	0.8332	0.6214	-0.203
Mof_C 	C 	0.6447	0.8464	0.562	0.118
Mof_C 	C 	0.586	0.822	0.5376	-0.186
Mof_C 	C 	0.5132	0.7853	0.5713	0.13
Mof_C 	C 	0.498	0.7724	0.6302	-0.219
Mof_C 	C 	0.5565	0.7965	0.6549	0.153
Mof_C 	C 	0.4192	0.7331	0.6687	0.495
Mof_C 	C 	0.8046	0.0975	0.5971	0.381
Mof_C 	C 	0.7215	0.1901	0.5677	-0.114
Mof_C 	C 	0.6142	0.2363	0.5947	0.042
Mof_C 	C 	0.5402	0.323	0.5662	-0.102
Mof_C 	C 	0.5728	0.3591	0.5097	0.031
Mof_C 	C 	0.6792	0.3118	0.4822	-0.088
Mof_C 	C 	0.7536	0.2289	0.5117	0.041
Mof_C 	C 	0.7142	0.346	0.4198	0.316
Mof_C 	C 	0.6088	0.0573	0.7649	0.37
Mof_C 	C 	0.6153	0.1571	0.7557	-0.135
Mof_C 	C 	0.7117	0.1582	0.7548	0.071
Mof_C 	C 	0.6628	0.6139	0.7753	0.506
Mof_C 	C 	0.7841	0.556	0.7598	-0.248
Mof_C 	C 	0.8357	0.4496	0.7694	0.153
Mof_C 	C 	0.9472	0.3991	0.7597	-0.212
Mof_C 	C 	0.0084	0.4533	0.7395	0.147
Mof_C 	C 	0.9578	0.5596	0.7276	-0.24
Mof_C 	C 	0.8459	0.609	0.738	0.199
Mof_C 	C 	0.0206	0.6227	0.7059	0.505
Mof_C 	C 	0.1989	0.648	0.852	0.428
Mof_C 	C 	0.0847	0.6668	0.8786	-0.197
Mof_C 	C 	0.0531	0.6536	0.938	0.108
Mof_C 	C 	0.9456	0.678	0.9624	-0.174
Mof_C 	C 	0.8698	0.7147	0.9287	0.122
Mof_C 	C 	0.9006	0.7276	0.8698	-0.213
Mof_C 	C 	0.0079	0.7035	0.8451	0.146
Mof_C 	C 	0.821	0.7669	0.8313	0.492
Mof_C 	C 	0.4992	0.4025	0.9029	0.38
Mof_C 	C 	0.4793	0.3099	0.9323	-0.113
Mof_C 	C 	0.4452	0.2637	0.9053	0.04
Mof_C 	C 	0.4294	0.177	0.9338	-0.1
Mof_C 	C 	0.4416	0.1409	0.9903	0.027
Mof_C 	C 	0.4732	0.1882	0.0178	-0.085
Mof_C 	C 	0.4942	0.2711	0.9883	0.039
Mof_C 	C 	0.48	0.154	0.0802	0.315
Mof_C 	C 	0.431	0.4427	0.7351	0.37
Mof_C 	C 	0.5281	0.3429	0.7443	-0.135
Mof_C 	C 	0.6247	0.3418	0.7452	0.071
Mof_C 	C 	0.948	0.1139	0.2753	0.505
Mof_C 	C 	0.9001	0.056	0.2598	-0.247
Mof_C 	C 	0.9453	0.9496	0.2694	0.15
Mof_C 	C 	0.894	0.8991	0.2597	-0.213
Mof_C 	C 	0.7988	0.9533	0.2395	0.148
Mof_C 	C 	0.755	0.0596	0.2276	-0.241
Mof_C 	C 	0.8071	0.109	0.238	0.2
Mof_C 	C 	0.6508	0.1227	0.2059	0.507
Mof_C 	C 	0.3011	0.148	0.352	0.43
Mof_C 	C 	0.3699	0.1668	0.3786	-0.203
Mof_C 	C 	0.3553	0.1536	0.438	0.118
Mof_C 	C 	0.414	0.178	0.4624	-0.186
Mof_C 	C 	0.4868	0.2147	0.4287	0.13
Mof_C 	C 	0.502	0.2276	0.3698	-0.219
Mof_C 	C 	0.4435	0.2035	0.3451	0.153
Mof_C 	C 	0.5808	0.2669	0.3313	0.495
Mof_C 	C 	0.1954	0.9025	0.4029	0.381
Mof_C 	C 	0.2785	0.8099	0.4323	-0.114
Mof_C 	C 	0.3858	0.7637	0.4053	0.042
Mof_C 	C 	0.4598	0.677	0.4338	-0.102
Mof_C 	C 	0.4272	0.6409	0.4903	0.031
Mof_C 	C 	0.3208	0.6882	0.5178	-0.088
Mof_C 	C 	0.2464	0.7711	0.4883	0.041
Mof_C 	C 	0.2858	0.654	0.5802	0.316
Mof_C 	C 	0.3912	0.9427	0.2351	0.37
Mof_C 	C 	0.3847	0.8429	0.2443	-0.135
Mof_C 	C 	0.2883	0.8418	0.2452	0.071
Mof_C 	C 	0.3372	0.3861	0.2247	0.506
Mof_C 	C 	0.2159	0.444	0.2402	-0.248
Mof_C 	C 	0.1643	0.5504	0.2306	0.153
Mof_C 	C 	0.0528	0.6009	0.2403	-0.212
Mof_C 	C 	0.9916	0.5467	0.2605	0.147
Mof_C 	C 	0.0422	0.4404	0.2724	-0.24
Mof_C 	C 	0.1541	0.391	0.262	0.199
Mof_C 	C 	0.9794	0.3773	0.2941	0.505
Mof_C 	C 	0.8011	0.352	0.148	0.428
Mof_C 	C 	0.9153	0.3332	0.1214	-0.197
Mof_C 	C 	0.9469	0.3464	0.062	0.108
Mof_C 	C 	0.0544	0.322	0.0376	-0.174
Mof_C 	C 	0.1302	0.2853	0.0713	0.122
Mof_C 	C 	0.0994	0.2724	0.1302	-0.213
Mof_C 	C 	0.9921	0.2965	0.1549	0.146
Mof_C 	C 	0.179	0.2331	0.1687	0.492
Mof_C 	C 	0.5008	0.5975	0.0971	0.38
Mof_C 	C 	0.5207	0.6901	0.0677	-0.113
Mof_C 	C 	0.5548	0.7363	0.0947	0.04
Mof_C 	C 	0.5706	0.823	0.0662	-0.1
Mof_C 	C 	0.5584	0.8591	0.0097	0.027
Mof_C 	C 	0.5268	0.8118	0.9822	-0.085
Mof_C 	C 	0.5058	0.7289	0.0117	0.039
Mof_C 	C 	0.52	0.846	0.9198	0.315
Mof_C 	C 	0.569	0.5573	0.2649	0.37
Mof_C 	C 	0.4719	0.6571	0.2557	-0.135
Mof_C 	C 	0.3753	0.6582	0.2548	0.071
Mof_C 	C 	0.7152	0.25	0.75	-0.134
Mof_C 	C 	0.5234	0.25	0.75	0.063
Mof_C 	C 	0.2848	0.75	0.25	-0.134
Mof_C 	C 	0.4766	0.75	0.25	0.063
Mof_O 	O 	0.95453	0.93323	0.72071	-0.497
Mof_O 	O 	0.1124	0.79459	0.71701	-0.507
Mof_O 	O 	0.3671	0.7881	0.8189	-0.494
Mof_O 	O 	0.41176	0.91829	0.78599	-0.493
Mof_O 	O 	0.6707	0.86411	0.70089	-0.541
Mof_O 	O 	0.78465	0.85367	0.61843	-0.439
Mof_O 	O 	0.35688	0.72345	0.64699	-0.469
Mof_O 	O 	0.41885	0.71463	0.72107	-0.519
Mof_O 	O 	0.77147	0.04852	0.64174	-0.46
Mof_O 	O 	0.9013	0.075	0.5752	-0.287
Mof_O 	O 	0.80416	0.2866	0.39268	-0.387
Mof_O 	O 	0.65389	0.42934	0.39468	-0.386
Mof_O 	O 	0.69634	0.97384	0.76548	-0.497
Mof_O 	O 	0.51936	0.05565	0.77383	-0.405
Mof_O 	O 	0.60847	0.56677	0.77929	-0.497
Mof_O 	O 	0.624	0.70541	0.78299	-0.507
Mof_O 	O 	0.9741	0.7119	0.6811	-0.493
Mof_O 	O 	0.11604	0.58171	0.71401	-0.493
Mof_O 	O 	0.2357	0.63589	0.79911	-0.541
Mof_O 	O 	0.25675	0.64633	0.88157	-0.439
Mof_O 	O 	0.72732	0.77655	0.85301	-0.469
Mof_O 	O 	0.85455	0.78537	0.77893	-0.518
Mof_O 	O 	0.46173	0.45148	0.85826	-0.46
Mof_O 	O 	0.5515	0.425	0.9248	-0.287
Mof_O 	O 	0.48344	0.2134	0.10732	-0.387
Mof_O 	O 	0.47791	0.07066	0.10532	-0.386
Mof_O 	O 	0.43566	0.52616	0.73452	-0.497
Mof_O 	O 	0.34884	0.44435	0.72617	-0.405
Mof_O 	O 	0.04547	0.06677	0.27929	-0.497
Mof_O 	O 	0.8876	0.20541	0.28299	-0.507
Mof_O 	O 	0.6329	0.2119	0.1811	-0.494
Mof_O 	O 	0.58824	0.08171	0.21401	-0.493
Mof_O 	O 	0.3293	0.13589	0.29911	-0.541
Mof_O 	O 	0.21535	0.14633	0.38157	-0.439
Mof_O 	O 	0.64312	0.27655	0.35301	-0.469
Mof_O 	O 	0.58115	0.28537	0.27893	-0.519
Mof_O 	O 	0.22853	0.95148	0.35826	-0.46
Mof_O 	O 	0.0987	0.925	0.4248	-0.287
Mof_O 	O 	0.19584	0.7134	0.60732	-0.387
Mof_O 	O 	0.34611	0.57066	0.60532	-0.386
Mof_O 	O 	0.30366	0.02616	0.23452	-0.497
Mof_O 	O 	0.48064	0.94435	0.22617	-0.405
Mof_O 	O 	0.39153	0.43323	0.22071	-0.497
Mof_O 	O 	0.376	0.29459	0.21701	-0.507
Mof_O 	O 	0.0259	0.2881	0.3189	-0.493
Mof_O 	O 	0.88396	0.41829	0.28599	-0.493
Mof_O 	O 	0.7643	0.36411	0.20089	-0.541
Mof_O 	O 	0.74325	0.35367	0.11843	-0.439
Mof_O 	O 	0.27268	0.22345	0.14699	-0.469
Mof_O 	O 	0.14545	0.21463	0.22107	-0.518
Mof_O 	O 	0.53827	0.54852	0.14174	-0.46
Mof_O 	O 	0.4485	0.575	0.0752	-0.287
Mof_O 	O 	0.51656	0.7866	0.89268	-0.387
Mof_O 	O 	0.52209	0.92934	0.89468	-0.386
Mof_O 	O 	0.56434	0.47384	0.26548	-0.497
Mof_O 	O 	0.65116	0.55565	0.27383	-0.405
_end
