data_functionalizedCrystal
_audit_creation_method	'EQeq! by Chris Wilmer'
_symmetry_space_group_name_H-M	'P1'
_symmetry_Int_Tables_number	1
_symmetry_cell_setting	triclinic
loop_
_symmetry_equiv_pos_as_xyz
  x,y,z
_cell_length_a	36.6289
_cell_length_b	36.6289
_cell_length_c	36.6289
_cell_angle_alpha	90
_cell_angle_beta	90
_cell_angle_gamma	90
loop_
_atom_site_label
_atom_site_type_symbol
_atom_site_fract_x
_atom_site_fract_y
_atom_site_fract_z
_atom_site_charge
Mof_Cu	Cu	0.89082	0.67057	0.58486	0.786
Mof_Cu	Cu	0.95317	0.73158	0.55455	0.783
Mof_S 	S 	0.96856	0.71126	0.45732	-0.544
Mof_S 	S 	0.83097	0.68308	0.60115	-0.483
Mof_N 	N 	0.93046	0.69639	0.51997	-0.273
Mof_N 	N 	0.90285	0.6722	0.53156	-0.25
Mof_N 	N 	0.9151	0.66213	0.47385	-0.249
Mof_H 	H 	0.914	0.6531	0.4522	0.125
Mof_N 	N 	0.86874	0.62535	0.50242	-0.327
Mof_H 	H 	0.8556	0.6209	0.5214	0.122
Mof_H 	H 	0.8654	0.6131	0.4827	0.142
Mof_N 	N 	0.80408	0.61843	0.57441	-0.267
Mof_N 	N 	0.7804	0.60739	0.54661	-0.255
Mof_N 	N 	0.78426	0.6666	0.54587	-0.249
Mof_H 	H 	0.7807	0.689	0.5398	0.121
Mof_N 	N 	0.74514	0.63883	0.50221	-0.328
Mof_H 	H 	0.7356	0.6192	0.4936	0.106
Mof_H 	H 	0.7394	0.6597	0.4931	0.132
Mof_C 	C 	0.93712	0.68958	0.48572	0.151
Mof_C 	C 	0.89514	0.65207	0.50372	0.206
Mof_C 	C 	0.80605	0.6544	0.5731	0.133
Mof_C 	C 	0.76916	0.63691	0.53009	0.199
Mof_Cu	Cu	0.89082	0.17057	0.08486	0.786
Mof_Cu	Cu	0.95317	0.23158	0.05455	0.782
Mof_S 	S 	0.96856	0.21126	0.95732	-0.542
Mof_S 	S 	0.83097	0.18308	0.10115	-0.483
Mof_N 	N 	0.93046	0.19639	0.01997	-0.277
Mof_N 	N 	0.90285	0.1722	0.03156	-0.25
Mof_N 	N 	0.9151	0.16213	0.97385	-0.246
Mof_H 	H 	0.914	0.1531	0.9522	0.126
Mof_N 	N 	0.86874	0.12535	0.00242	-0.332
Mof_H 	H 	0.8556	0.1209	0.0214	0.124
Mof_H 	H 	0.8654	0.1131	0.9827	0.15
Mof_N 	N 	0.80408	0.11843	0.07441	-0.266
Mof_N 	N 	0.7804	0.10739	0.04661	-0.255
Mof_N 	N 	0.78426	0.1666	0.04587	-0.248
Mof_H 	H 	0.7807	0.189	0.0398	0.121
Mof_N 	N 	0.74514	0.13883	0.00221	-0.342
Mof_H 	H 	0.7356	0.1192	0.9936	0.116
Mof_H 	H 	0.7394	0.1597	0.9931	0.142
Mof_C 	C 	0.93712	0.18958	0.98572	0.159
Mof_C 	C 	0.89514	0.15207	0.00372	0.201
Mof_C 	C 	0.80605	0.1544	0.0731	0.133
Mof_C 	C 	0.76916	0.13691	0.03009	0.201
Mof_Cu	Cu	0.39082	0.67057	0.08486	0.787
Mof_Cu	Cu	0.45317	0.73158	0.05455	0.782
Mof_S 	S 	0.46856	0.71126	0.95732	-0.546
Mof_S 	S 	0.33097	0.68308	0.10115	-0.482
Mof_N 	N 	0.43046	0.69639	0.01997	-0.277
Mof_N 	N 	0.40285	0.6722	0.03156	-0.249
Mof_N 	N 	0.4151	0.66213	0.97385	-0.246
Mof_H 	H 	0.414	0.6531	0.9522	0.126
Mof_N 	N 	0.36874	0.62535	0.00242	-0.332
Mof_H 	H 	0.3556	0.6209	0.0214	0.124
Mof_H 	H 	0.3654	0.6131	0.9827	0.15
Mof_N 	N 	0.30408	0.61843	0.07441	-0.266
Mof_N 	N 	0.2804	0.60739	0.04661	-0.255
Mof_N 	N 	0.28426	0.6666	0.04587	-0.248
Mof_H 	H 	0.2807	0.689	0.0398	0.121
Mof_N 	N 	0.24514	0.63883	0.00221	-0.342
Mof_H 	H 	0.2356	0.6192	0.9936	0.116
Mof_H 	H 	0.2394	0.6597	0.9931	0.142
Mof_C 	C 	0.43712	0.68958	0.98572	0.159
Mof_C 	C 	0.39514	0.65207	0.00372	0.201
Mof_C 	C 	0.30605	0.6544	0.0731	0.133
Mof_C 	C 	0.26916	0.63691	0.03009	0.201
Mof_Cu	Cu	0.39082	0.17057	0.58486	0.787
Mof_Cu	Cu	0.45317	0.23158	0.55455	0.782
Mof_S 	S 	0.46856	0.21126	0.45732	-0.548
Mof_S 	S 	0.33097	0.18308	0.60115	-0.482
Mof_N 	N 	0.43046	0.19639	0.51997	-0.273
Mof_N 	N 	0.40285	0.1722	0.53156	-0.25
Mof_N 	N 	0.4151	0.16213	0.47385	-0.248
Mof_H 	H 	0.414	0.1531	0.4522	0.126
Mof_N 	N 	0.36874	0.12535	0.50242	-0.326
Mof_H 	H 	0.3556	0.1209	0.5214	0.123
Mof_H 	H 	0.3654	0.1131	0.4827	0.143
Mof_N 	N 	0.30408	0.11843	0.57441	-0.266
Mof_N 	N 	0.2804	0.10739	0.54661	-0.254
Mof_N 	N 	0.28426	0.1666	0.54587	-0.248
Mof_H 	H 	0.2807	0.189	0.5398	0.122
Mof_N 	N 	0.24514	0.13883	0.50221	-0.327
Mof_H 	H 	0.2356	0.1192	0.4936	0.107
Mof_H 	H 	0.2394	0.1597	0.4931	0.133
Mof_C 	C 	0.43712	0.18958	0.48572	0.152
Mof_C 	C 	0.39514	0.15207	0.50372	0.206
Mof_C 	C 	0.30605	0.1544	0.5731	0.134
Mof_C 	C 	0.26916	0.13691	0.53009	0.2
Mof_Cu	Cu	0.10918	0.32943	0.58486	0.787
Mof_Cu	Cu	0.04683	0.26842	0.55455	0.781
Mof_S 	S 	0.03144	0.28874	0.45732	-0.552
Mof_S 	S 	0.16903	0.31692	0.60115	-0.482
Mof_N 	N 	0.06954	0.30361	0.51997	-0.273
Mof_N 	N 	0.09715	0.3278	0.53156	-0.25
Mof_N 	N 	0.0849	0.33787	0.47385	-0.248
Mof_H 	H 	0.086	0.3469	0.4522	0.125
Mof_N 	N 	0.13126	0.37465	0.50242	-0.326
Mof_H 	H 	0.1444	0.3791	0.5214	0.123
Mof_H 	H 	0.1346	0.3869	0.4827	0.143
Mof_N 	N 	0.19592	0.38157	0.57441	-0.266
Mof_N 	N 	0.2196	0.39261	0.54661	-0.254
Mof_N 	N 	0.21574	0.3334	0.54587	-0.248
Mof_H 	H 	0.2193	0.311	0.5398	0.122
Mof_N 	N 	0.25486	0.36117	0.50221	-0.327
Mof_H 	H 	0.2644	0.3808	0.4936	0.107
Mof_H 	H 	0.2606	0.3403	0.4931	0.133
Mof_C 	C 	0.06288	0.31042	0.48572	0.152
Mof_C 	C 	0.10486	0.34793	0.50372	0.206
Mof_C 	C 	0.19395	0.3456	0.5731	0.134
Mof_C 	C 	0.23084	0.36309	0.53009	0.2
Mof_Cu	Cu	0.10918	0.82943	0.08486	0.787
Mof_Cu	Cu	0.04683	0.76842	0.05455	0.781
Mof_S 	S 	0.03144	0.78874	0.95732	-0.55
Mof_S 	S 	0.16903	0.81692	0.10115	-0.482
Mof_N 	N 	0.06954	0.80361	0.01997	-0.277
Mof_N 	N 	0.09715	0.8278	0.03156	-0.249
Mof_N 	N 	0.0849	0.83787	0.97385	-0.246
Mof_H 	H 	0.086	0.8469	0.9522	0.126
Mof_N 	N 	0.13126	0.87465	0.00242	-0.332
Mof_H 	H 	0.1444	0.8791	0.0214	0.124
Mof_H 	H 	0.1346	0.8869	0.9827	0.15
Mof_N 	N 	0.19592	0.88157	0.07441	-0.266
Mof_N 	N 	0.2196	0.89261	0.04661	-0.255
Mof_N 	N 	0.21574	0.8334	0.04587	-0.248
Mof_H 	H 	0.2193	0.811	0.0398	0.121
Mof_N 	N 	0.25486	0.86117	0.00221	-0.342
Mof_H 	H 	0.2644	0.8808	0.9936	0.116
Mof_H 	H 	0.2606	0.8403	0.9931	0.142
Mof_C 	C 	0.06288	0.81042	0.98572	0.159
Mof_C 	C 	0.10486	0.84793	0.00372	0.201
Mof_C 	C 	0.19395	0.8456	0.0731	0.133
Mof_C 	C 	0.23084	0.86309	0.03009	0.201
Mof_Cu	Cu	0.60918	0.32943	0.08486	0.787
Mof_Cu	Cu	0.54683	0.26842	0.05455	0.782
Mof_S 	S 	0.53144	0.28874	0.95732	-0.546
Mof_S 	S 	0.66903	0.31692	0.10115	-0.482
Mof_N 	N 	0.56954	0.30361	0.01997	-0.277
Mof_N 	N 	0.59715	0.3278	0.03156	-0.249
Mof_N 	N 	0.5849	0.33787	0.97385	-0.246
Mof_H 	H 	0.586	0.3469	0.9522	0.126
Mof_N 	N 	0.63126	0.37465	0.00242	-0.332
Mof_H 	H 	0.6444	0.3791	0.0214	0.124
Mof_H 	H 	0.6346	0.3869	0.9827	0.15
Mof_N 	N 	0.69592	0.38157	0.07441	-0.266
Mof_N 	N 	0.7196	0.39261	0.04661	-0.255
Mof_N 	N 	0.71574	0.3334	0.04587	-0.248
Mof_H 	H 	0.7193	0.311	0.0398	0.121
Mof_N 	N 	0.75486	0.36117	0.00221	-0.342
Mof_H 	H 	0.7644	0.3808	0.9936	0.116
Mof_H 	H 	0.7606	0.3403	0.9931	0.142
Mof_C 	C 	0.56288	0.31042	0.98572	0.159
Mof_C 	C 	0.60486	0.34793	0.00372	0.201
Mof_C 	C 	0.69395	0.3456	0.0731	0.133
Mof_C 	C 	0.73084	0.36309	0.03009	0.201
Mof_Cu	Cu	0.60918	0.82943	0.58486	0.787
Mof_Cu	Cu	0.54683	0.76842	0.55455	0.782
Mof_S 	S 	0.53144	0.78874	0.45732	-0.548
Mof_S 	S 	0.66903	0.81692	0.60115	-0.482
Mof_N 	N 	0.56954	0.80361	0.51997	-0.273
Mof_N 	N 	0.59715	0.8278	0.53156	-0.25
Mof_N 	N 	0.5849	0.83787	0.47385	-0.248
Mof_H 	H 	0.586	0.8469	0.4522	0.126
Mof_N 	N 	0.63126	0.87465	0.50242	-0.326
Mof_H 	H 	0.6444	0.8791	0.5214	0.123
Mof_H 	H 	0.6346	0.8869	0.4827	0.144
Mof_N 	N 	0.69592	0.88157	0.57441	-0.266
Mof_N 	N 	0.7196	0.89261	0.54661	-0.254
Mof_N 	N 	0.71574	0.8334	0.54587	-0.248
Mof_H 	H 	0.7193	0.811	0.5398	0.122
Mof_N 	N 	0.75486	0.86117	0.50221	-0.327
Mof_H 	H 	0.7644	0.8808	0.4936	0.107
Mof_H 	H 	0.7606	0.8403	0.4931	0.133
Mof_C 	C 	0.56288	0.81042	0.48572	0.152
Mof_C 	C 	0.60486	0.84793	0.50372	0.207
Mof_C 	C 	0.69395	0.8456	0.5731	0.134
Mof_C 	C 	0.73084	0.86309	0.53009	0.2
Mof_Cu	Cu	0.10918	0.67057	0.41514	0.787
Mof_Cu	Cu	0.04683	0.73158	0.44545	0.781
Mof_S 	S 	0.03144	0.71126	0.54268	-0.552
Mof_S 	S 	0.16903	0.68308	0.39885	-0.482
Mof_N 	N 	0.06954	0.69639	0.48003	-0.273
Mof_N 	N 	0.09715	0.6722	0.46844	-0.25
Mof_N 	N 	0.0849	0.66213	0.52615	-0.248
Mof_H 	H 	0.086	0.6531	0.5478	0.125
Mof_N 	N 	0.13126	0.62535	0.49758	-0.326
Mof_H 	H 	0.1444	0.6209	0.4786	0.123
Mof_H 	H 	0.1346	0.6131	0.5173	0.143
Mof_N 	N 	0.19592	0.61843	0.42559	-0.266
Mof_N 	N 	0.2196	0.60739	0.45339	-0.254
Mof_N 	N 	0.21574	0.6666	0.45413	-0.248
Mof_H 	H 	0.2193	0.689	0.4602	0.122
Mof_N 	N 	0.25486	0.63883	0.49779	-0.327
Mof_H 	H 	0.2644	0.6192	0.5064	0.107
Mof_H 	H 	0.2606	0.6597	0.5069	0.133
Mof_C 	C 	0.06288	0.68958	0.51428	0.152
Mof_C 	C 	0.10486	0.65207	0.49628	0.206
Mof_C 	C 	0.19395	0.6544	0.4269	0.134
Mof_C 	C 	0.23084	0.63691	0.46991	0.2
Mof_Cu	Cu	0.10918	0.17057	0.91514	0.787
Mof_Cu	Cu	0.04683	0.23158	0.94545	0.782
Mof_S 	S 	0.03144	0.21126	0.04268	-0.553
Mof_S 	S 	0.16903	0.18308	0.89885	-0.482
Mof_N 	N 	0.06954	0.19639	0.98003	-0.269
Mof_N 	N 	0.09715	0.1722	0.96844	-0.25
Mof_N 	N 	0.0849	0.16213	0.02615	-0.251
Mof_H 	H 	0.086	0.1531	0.0478	0.125
Mof_N 	N 	0.13126	0.12535	0.99758	-0.32
Mof_H 	H 	0.1444	0.1209	0.9786	0.122
Mof_H 	H 	0.1346	0.1131	0.0173	0.136
Mof_N 	N 	0.19592	0.11843	0.92559	-0.266
Mof_N 	N 	0.2196	0.10739	0.95339	-0.252
Mof_N 	N 	0.21574	0.1666	0.95413	-0.247
Mof_H 	H 	0.2193	0.189	0.9602	0.124
Mof_N 	N 	0.25486	0.13883	0.99779	-0.312
Mof_H 	H 	0.2644	0.1192	0.0064	0.098
Mof_H 	H 	0.2606	0.1597	0.0069	0.124
Mof_C 	C 	0.06288	0.18958	0.01428	0.145
Mof_C 	C 	0.10486	0.15207	0.99628	0.211
Mof_C 	C 	0.19395	0.1544	0.9269	0.134
Mof_C 	C 	0.23084	0.13691	0.96991	0.2
Mof_Cu	Cu	0.60918	0.67057	0.91514	0.787
Mof_Cu	Cu	0.54683	0.73158	0.94545	0.783
Mof_S 	S 	0.53144	0.71126	0.04268	-0.549
Mof_S 	S 	0.66903	0.68308	0.89885	-0.482
Mof_N 	N 	0.56954	0.69639	0.98003	-0.268
Mof_N 	N 	0.59715	0.6722	0.96844	-0.25
Mof_N 	N 	0.5849	0.66213	0.02615	-0.251
Mof_H 	H 	0.586	0.6531	0.0478	0.125
Mof_N 	N 	0.63126	0.62535	0.99758	-0.32
Mof_H 	H 	0.6444	0.6209	0.9786	0.123
Mof_H 	H 	0.6346	0.6131	0.0173	0.136
Mof_N 	N 	0.69592	0.61843	0.92559	-0.266
Mof_N 	N 	0.7196	0.60739	0.95339	-0.252
Mof_N 	N 	0.71574	0.6666	0.95413	-0.247
Mof_H 	H 	0.7193	0.689	0.9602	0.124
Mof_N 	N 	0.75486	0.63883	0.99779	-0.313
Mof_H 	H 	0.7644	0.6192	0.0064	0.098
Mof_H 	H 	0.7606	0.6597	0.0069	0.124
Mof_C 	C 	0.56288	0.68958	0.01428	0.145
Mof_C 	C 	0.60486	0.65207	0.99628	0.212
Mof_C 	C 	0.69395	0.6544	0.9269	0.134
Mof_C 	C 	0.73084	0.63691	0.96991	0.2
Mof_Cu	Cu	0.60918	0.17057	0.41514	0.787
Mof_Cu	Cu	0.54683	0.23158	0.44545	0.782
Mof_S 	S 	0.53144	0.21126	0.54268	-0.548
Mof_S 	S 	0.66903	0.18308	0.39885	-0.482
Mof_N 	N 	0.56954	0.19639	0.48003	-0.273
Mof_N 	N 	0.59715	0.1722	0.46844	-0.25
Mof_N 	N 	0.5849	0.16213	0.52615	-0.248
Mof_H 	H 	0.586	0.1531	0.5478	0.126
Mof_N 	N 	0.63126	0.12535	0.49758	-0.326
Mof_H 	H 	0.6444	0.1209	0.4786	0.123
Mof_H 	H 	0.6346	0.1131	0.5173	0.143
Mof_N 	N 	0.69592	0.11843	0.42559	-0.266
Mof_N 	N 	0.7196	0.10739	0.45339	-0.254
Mof_N 	N 	0.71574	0.1666	0.45413	-0.248
Mof_H 	H 	0.7193	0.189	0.4602	0.122
Mof_N 	N 	0.75486	0.13883	0.49779	-0.327
Mof_H 	H 	0.7644	0.1192	0.5064	0.107
Mof_H 	H 	0.7606	0.1597	0.5069	0.133
Mof_C 	C 	0.56288	0.18958	0.51428	0.152
Mof_C 	C 	0.60486	0.15207	0.49628	0.206
Mof_C 	C 	0.69395	0.1544	0.4269	0.134
Mof_C 	C 	0.73084	0.13691	0.46991	0.2
Mof_Cu	Cu	0.89082	0.32943	0.41514	0.787
Mof_Cu	Cu	0.95317	0.26842	0.44545	0.784
Mof_S 	S 	0.96856	0.28874	0.54268	-0.543
Mof_S 	S 	0.83097	0.31692	0.39885	-0.482
Mof_N 	N 	0.93046	0.30361	0.48003	-0.272
Mof_N 	N 	0.90285	0.3278	0.46844	-0.249
Mof_N 	N 	0.9151	0.33787	0.52615	-0.248
Mof_H 	H 	0.914	0.3469	0.5478	0.126
Mof_N 	N 	0.86874	0.37465	0.49758	-0.326
Mof_H 	H 	0.8556	0.3791	0.4786	0.123
Mof_H 	H 	0.8654	0.3869	0.5173	0.143
Mof_N 	N 	0.80408	0.38157	0.42559	-0.266
Mof_N 	N 	0.7804	0.39261	0.45339	-0.254
Mof_N 	N 	0.78426	0.3334	0.45413	-0.248
Mof_H 	H 	0.7807	0.311	0.4602	0.122
Mof_N 	N 	0.74514	0.36117	0.49779	-0.327
Mof_H 	H 	0.7356	0.3808	0.5064	0.107
Mof_H 	H 	0.7394	0.3403	0.5069	0.133
Mof_C 	C 	0.93712	0.31042	0.51428	0.152
Mof_C 	C 	0.89514	0.34793	0.49628	0.207
Mof_C 	C 	0.80605	0.3456	0.4269	0.134
Mof_C 	C 	0.76916	0.36309	0.46991	0.2
Mof_Cu	Cu	0.89082	0.82943	0.91514	0.787
Mof_Cu	Cu	0.95317	0.76842	0.94545	0.784
Mof_S 	S 	0.96856	0.78874	0.04268	-0.544
Mof_S 	S 	0.83097	0.81692	0.89885	-0.482
Mof_N 	N 	0.93046	0.80361	0.98003	-0.268
Mof_N 	N 	0.90285	0.8278	0.96844	-0.25
Mof_N 	N 	0.9151	0.83787	0.02615	-0.251
Mof_H 	H 	0.914	0.8469	0.0478	0.126
Mof_N 	N 	0.86874	0.87465	0.99758	-0.32
Mof_H 	H 	0.8556	0.8791	0.9786	0.123
Mof_H 	H 	0.8654	0.8869	0.0173	0.137
Mof_N 	N 	0.80408	0.88157	0.92559	-0.266
Mof_N 	N 	0.7804	0.89261	0.95339	-0.252
Mof_N 	N 	0.78426	0.8334	0.95413	-0.247
Mof_H 	H 	0.7807	0.811	0.9602	0.124
Mof_N 	N 	0.74514	0.86117	0.99779	-0.313
Mof_H 	H 	0.7356	0.8808	0.0064	0.098
Mof_H 	H 	0.7394	0.8403	0.0069	0.124
Mof_C 	C 	0.93712	0.81042	0.01428	0.145
Mof_C 	C 	0.89514	0.84793	0.99628	0.213
Mof_C 	C 	0.80605	0.8456	0.9269	0.134
Mof_C 	C 	0.76916	0.86309	0.96991	0.2
Mof_Cu	Cu	0.39082	0.32943	0.91514	0.787
Mof_Cu	Cu	0.45317	0.26842	0.94545	0.783
Mof_S 	S 	0.46856	0.28874	0.04268	-0.549
Mof_S 	S 	0.33097	0.31692	0.89885	-0.482
Mof_N 	N 	0.43046	0.30361	0.98003	-0.268
Mof_N 	N 	0.40285	0.3278	0.96844	-0.25
Mof_N 	N 	0.4151	0.33787	0.02615	-0.251
Mof_H 	H 	0.414	0.3469	0.0478	0.126
Mof_N 	N 	0.36874	0.37465	0.99758	-0.32
Mof_H 	H 	0.3556	0.3791	0.9786	0.123
Mof_H 	H 	0.3654	0.3869	0.0173	0.136
Mof_N 	N 	0.30408	0.38157	0.92559	-0.266
Mof_N 	N 	0.2804	0.39261	0.95339	-0.252
Mof_N 	N 	0.28426	0.3334	0.95413	-0.247
Mof_H 	H 	0.2807	0.311	0.9602	0.124
Mof_N 	N 	0.24514	0.36117	0.99779	-0.312
Mof_H 	H 	0.2356	0.3808	0.0064	0.098
Mof_H 	H 	0.2394	0.3403	0.0069	0.124
Mof_C 	C 	0.43712	0.31042	0.01428	0.145
Mof_C 	C 	0.39514	0.34793	0.99628	0.212
Mof_C 	C 	0.30605	0.3456	0.9269	0.134
Mof_C 	C 	0.26916	0.36309	0.96991	0.2
Mof_Cu	Cu	0.39082	0.82943	0.41514	0.787
Mof_Cu	Cu	0.45317	0.76842	0.44545	0.782
Mof_S 	S 	0.46856	0.78874	0.54268	-0.548
Mof_S 	S 	0.33097	0.81692	0.39885	-0.482
Mof_N 	N 	0.43046	0.80361	0.48003	-0.273
Mof_N 	N 	0.40285	0.8278	0.46844	-0.25
Mof_N 	N 	0.4151	0.83787	0.52615	-0.248
Mof_H 	H 	0.414	0.8469	0.5478	0.126
Mof_N 	N 	0.36874	0.87465	0.49758	-0.326
Mof_H 	H 	0.3556	0.8791	0.4786	0.123
Mof_H 	H 	0.3654	0.8869	0.5173	0.144
Mof_N 	N 	0.30408	0.88157	0.42559	-0.266
Mof_N 	N 	0.2804	0.89261	0.45339	-0.254
Mof_N 	N 	0.28426	0.8334	0.45413	-0.248
Mof_H 	H 	0.2807	0.811	0.4602	0.122
Mof_N 	N 	0.24514	0.86117	0.49779	-0.327
Mof_H 	H 	0.2356	0.8808	0.5064	0.107
Mof_H 	H 	0.2394	0.8403	0.5069	0.133
Mof_C 	C 	0.43712	0.81042	0.51428	0.152
Mof_C 	C 	0.39514	0.84793	0.49628	0.207
Mof_C 	C 	0.30605	0.8456	0.4269	0.134
Mof_C 	C 	0.26916	0.86309	0.46991	0.2
Mof_Cu	Cu	0.58486	0.89082	0.67057	0.787
Mof_Cu	Cu	0.55455	0.95317	0.73158	0.784
Mof_S 	S 	0.45732	0.96856	0.71126	-0.543
Mof_S 	S 	0.60115	0.83097	0.68308	-0.482
Mof_N 	N 	0.51997	0.93046	0.69639	-0.272
Mof_N 	N 	0.53156	0.90285	0.6722	-0.249
Mof_N 	N 	0.47385	0.9151	0.66213	-0.248
Mof_H 	H 	0.4522	0.914	0.6531	0.126
Mof_N 	N 	0.50242	0.86874	0.62535	-0.326
Mof_H 	H 	0.5214	0.8556	0.6209	0.123
Mof_H 	H 	0.4827	0.8654	0.6131	0.143
Mof_N 	N 	0.57441	0.80408	0.61843	-0.266
Mof_N 	N 	0.54661	0.7804	0.60739	-0.254
Mof_N 	N 	0.54587	0.78426	0.6666	-0.248
Mof_H 	H 	0.5398	0.7807	0.689	0.122
Mof_N 	N 	0.50221	0.74514	0.63883	-0.327
Mof_H 	H 	0.4936	0.7356	0.6192	0.107
Mof_H 	H 	0.4931	0.7394	0.6597	0.133
Mof_C 	C 	0.48572	0.93712	0.68958	0.152
Mof_C 	C 	0.50372	0.89514	0.65207	0.207
Mof_C 	C 	0.5731	0.80605	0.6544	0.134
Mof_C 	C 	0.53009	0.76916	0.63691	0.2
Mof_Cu	Cu	0.58486	0.39082	0.17057	0.787
Mof_Cu	Cu	0.55455	0.45317	0.23158	0.782
Mof_S 	S 	0.45732	0.46856	0.21126	-0.548
Mof_S 	S 	0.60115	0.33097	0.18308	-0.482
Mof_N 	N 	0.51997	0.43046	0.19639	-0.273
Mof_N 	N 	0.53156	0.40285	0.1722	-0.25
Mof_N 	N 	0.47385	0.4151	0.16213	-0.248
Mof_H 	H 	0.4522	0.414	0.1531	0.126
Mof_N 	N 	0.50242	0.36874	0.12535	-0.326
Mof_H 	H 	0.5214	0.3556	0.1209	0.123
Mof_H 	H 	0.4827	0.3654	0.1131	0.143
Mof_N 	N 	0.57441	0.30408	0.11843	-0.266
Mof_N 	N 	0.54661	0.2804	0.10739	-0.254
Mof_N 	N 	0.54587	0.28426	0.1666	-0.248
Mof_H 	H 	0.5398	0.2807	0.189	0.122
Mof_N 	N 	0.50221	0.24514	0.13883	-0.327
Mof_H 	H 	0.4936	0.2356	0.1192	0.107
Mof_H 	H 	0.4931	0.2394	0.1597	0.133
Mof_C 	C 	0.48572	0.43712	0.18958	0.152
Mof_C 	C 	0.50372	0.39514	0.15207	0.206
Mof_C 	C 	0.5731	0.30605	0.1544	0.134
Mof_C 	C 	0.53009	0.26916	0.13691	0.2
Mof_Cu	Cu	0.08486	0.89082	0.17057	0.787
Mof_Cu	Cu	0.05455	0.95317	0.23158	0.783
Mof_S 	S 	0.95732	0.96856	0.21126	-0.541
Mof_S 	S 	0.10115	0.83097	0.18308	-0.482
Mof_N 	N 	0.01997	0.93046	0.19639	-0.276
Mof_N 	N 	0.03156	0.90285	0.1722	-0.249
Mof_N 	N 	0.97385	0.9151	0.16213	-0.245
Mof_H 	H 	0.9522	0.914	0.1531	0.126
Mof_N 	N 	0.00242	0.86874	0.12535	-0.332
Mof_H 	H 	0.0214	0.8556	0.1209	0.124
Mof_H 	H 	0.9827	0.8654	0.1131	0.15
Mof_N 	N 	0.07441	0.80408	0.11843	-0.266
Mof_N 	N 	0.04661	0.7804	0.10739	-0.255
Mof_N 	N 	0.04587	0.78426	0.1666	-0.248
Mof_H 	H 	0.0398	0.7807	0.189	0.121
Mof_N 	N 	0.00221	0.74514	0.13883	-0.342
Mof_H 	H 	0.9936	0.7356	0.1192	0.116
Mof_H 	H 	0.9931	0.7394	0.1597	0.142
Mof_C 	C 	0.98572	0.93712	0.18958	0.159
Mof_C 	C 	0.00372	0.89514	0.15207	0.201
Mof_C 	C 	0.0731	0.80605	0.1544	0.133
Mof_C 	C 	0.03009	0.76916	0.13691	0.201
Mof_Cu	Cu	0.08486	0.39082	0.67057	0.787
Mof_Cu	Cu	0.05455	0.45317	0.73158	0.782
Mof_S 	S 	0.95732	0.46856	0.71126	-0.546
Mof_S 	S 	0.10115	0.33097	0.68308	-0.482
Mof_N 	N 	0.01997	0.43046	0.69639	-0.277
Mof_N 	N 	0.03156	0.40285	0.6722	-0.249
Mof_N 	N 	0.97385	0.4151	0.66213	-0.246
Mof_H 	H 	0.9522	0.414	0.6531	0.126
Mof_N 	N 	0.00242	0.36874	0.62535	-0.332
Mof_H 	H 	0.0214	0.3556	0.6209	0.124
Mof_H 	H 	0.9827	0.3654	0.6131	0.15
Mof_N 	N 	0.07441	0.30408	0.61843	-0.266
Mof_N 	N 	0.04661	0.2804	0.60739	-0.255
Mof_N 	N 	0.04587	0.28426	0.6666	-0.248
Mof_H 	H 	0.0398	0.2807	0.689	0.121
Mof_N 	N 	0.00221	0.24514	0.63883	-0.342
Mof_H 	H 	0.9936	0.2356	0.6192	0.116
Mof_H 	H 	0.9931	0.2394	0.6597	0.142
Mof_C 	C 	0.98572	0.43712	0.68958	0.159
Mof_C 	C 	0.00372	0.39514	0.65207	0.201
Mof_C 	C 	0.0731	0.30605	0.6544	0.133
Mof_C 	C 	0.03009	0.26916	0.63691	0.201
Mof_Cu	Cu	0.58486	0.10918	0.32943	0.787
Mof_Cu	Cu	0.55455	0.04683	0.26842	0.781
Mof_S 	S 	0.45732	0.03144	0.28874	-0.552
Mof_S 	S 	0.60115	0.16903	0.31692	-0.482
Mof_N 	N 	0.51997	0.06954	0.30361	-0.273
Mof_N 	N 	0.53156	0.09715	0.3278	-0.25
Mof_N 	N 	0.47385	0.0849	0.33787	-0.248
Mof_H 	H 	0.4522	0.086	0.3469	0.125
Mof_N 	N 	0.50242	0.13126	0.37465	-0.326
Mof_H 	H 	0.5214	0.1444	0.3791	0.123
Mof_H 	H 	0.4827	0.1346	0.3869	0.143
Mof_N 	N 	0.57441	0.19592	0.38157	-0.266
Mof_N 	N 	0.54661	0.2196	0.39261	-0.254
Mof_N 	N 	0.54587	0.21574	0.3334	-0.248
Mof_H 	H 	0.5398	0.2193	0.311	0.122
Mof_N 	N 	0.50221	0.25486	0.36117	-0.327
Mof_H 	H 	0.4936	0.2644	0.3808	0.107
Mof_H 	H 	0.4931	0.2606	0.3403	0.133
Mof_C 	C 	0.48572	0.06288	0.31042	0.152
Mof_C 	C 	0.50372	0.10486	0.34793	0.206
Mof_C 	C 	0.5731	0.19395	0.3456	0.134
Mof_C 	C 	0.53009	0.23084	0.36309	0.2
Mof_Cu	Cu	0.58486	0.60918	0.82943	0.787
Mof_Cu	Cu	0.55455	0.54683	0.76842	0.782
Mof_S 	S 	0.45732	0.53144	0.78874	-0.548
Mof_S 	S 	0.60115	0.66903	0.81692	-0.482
Mof_N 	N 	0.51997	0.56954	0.80361	-0.273
Mof_N 	N 	0.53156	0.59715	0.8278	-0.25
Mof_N 	N 	0.47385	0.5849	0.83787	-0.248
Mof_H 	H 	0.4522	0.586	0.8469	0.126
Mof_N 	N 	0.50242	0.63126	0.87465	-0.326
Mof_H 	H 	0.5214	0.6444	0.8791	0.123
Mof_H 	H 	0.4827	0.6346	0.8869	0.144
Mof_N 	N 	0.57441	0.69592	0.88157	-0.266
Mof_N 	N 	0.54661	0.7196	0.89261	-0.254
Mof_N 	N 	0.54587	0.71574	0.8334	-0.248
Mof_H 	H 	0.5398	0.7193	0.811	0.122
Mof_N 	N 	0.50221	0.75486	0.86117	-0.327
Mof_H 	H 	0.4936	0.7644	0.8808	0.107
Mof_H 	H 	0.4931	0.7606	0.8403	0.133
Mof_C 	C 	0.48572	0.56288	0.81042	0.152
Mof_C 	C 	0.50372	0.60486	0.84793	0.207
Mof_C 	C 	0.5731	0.69395	0.8456	0.134
Mof_C 	C 	0.53009	0.73084	0.86309	0.2
Mof_Cu	Cu	0.08486	0.10918	0.82943	0.787
Mof_Cu	Cu	0.05455	0.04683	0.76842	0.781
Mof_S 	S 	0.95732	0.03144	0.78874	-0.55
Mof_S 	S 	0.10115	0.16903	0.81692	-0.482
Mof_N 	N 	0.01997	0.06954	0.80361	-0.277
Mof_N 	N 	0.03156	0.09715	0.8278	-0.249
Mof_N 	N 	0.97385	0.0849	0.83787	-0.246
Mof_H 	H 	0.9522	0.086	0.8469	0.126
Mof_N 	N 	0.00242	0.13126	0.87465	-0.332
Mof_H 	H 	0.0214	0.1444	0.8791	0.124
Mof_H 	H 	0.9827	0.1346	0.8869	0.15
Mof_N 	N 	0.07441	0.19592	0.88157	-0.266
Mof_N 	N 	0.04661	0.2196	0.89261	-0.255
Mof_N 	N 	0.04587	0.21574	0.8334	-0.248
Mof_H 	H 	0.0398	0.2193	0.811	0.121
Mof_N 	N 	0.00221	0.25486	0.86117	-0.342
Mof_H 	H 	0.9936	0.2644	0.8808	0.116
Mof_H 	H 	0.9931	0.2606	0.8403	0.142
Mof_C 	C 	0.98572	0.06288	0.81042	0.159
Mof_C 	C 	0.00372	0.10486	0.84793	0.201
Mof_C 	C 	0.0731	0.19395	0.8456	0.133
Mof_C 	C 	0.03009	0.23084	0.86309	0.201
Mof_Cu	Cu	0.08486	0.60918	0.32943	0.787
Mof_Cu	Cu	0.05455	0.54683	0.26842	0.782
Mof_S 	S 	0.95732	0.53144	0.28874	-0.546
Mof_S 	S 	0.10115	0.66903	0.31692	-0.482
Mof_N 	N 	0.01997	0.56954	0.30361	-0.277
Mof_N 	N 	0.03156	0.59715	0.3278	-0.249
Mof_N 	N 	0.97385	0.5849	0.33787	-0.246
Mof_H 	H 	0.9522	0.586	0.3469	0.126
Mof_N 	N 	0.00242	0.63126	0.37465	-0.332
Mof_H 	H 	0.0214	0.6444	0.3791	0.124
Mof_H 	H 	0.9827	0.6346	0.3869	0.15
Mof_N 	N 	0.07441	0.69592	0.38157	-0.266
Mof_N 	N 	0.04661	0.7196	0.39261	-0.255
Mof_N 	N 	0.04587	0.71574	0.3334	-0.248
Mof_H 	H 	0.0398	0.7193	0.311	0.121
Mof_N 	N 	0.00221	0.75486	0.36117	-0.342
Mof_H 	H 	0.9936	0.7644	0.3808	0.116
Mof_H 	H 	0.9931	0.7606	0.3403	0.142
Mof_C 	C 	0.98572	0.56288	0.31042	0.159
Mof_C 	C 	0.00372	0.60486	0.34793	0.201
Mof_C 	C 	0.0731	0.69395	0.3456	0.133
Mof_C 	C 	0.03009	0.73084	0.36309	0.201
Mof_Cu	Cu	0.41514	0.10918	0.67057	0.787
Mof_Cu	Cu	0.44545	0.04683	0.73158	0.781
Mof_S 	S 	0.54268	0.03144	0.71126	-0.552
Mof_S 	S 	0.39885	0.16903	0.68308	-0.482
Mof_N 	N 	0.48003	0.06954	0.69639	-0.273
Mof_N 	N 	0.46844	0.09715	0.6722	-0.25
Mof_N 	N 	0.52615	0.0849	0.66213	-0.248
Mof_H 	H 	0.5478	0.086	0.6531	0.125
Mof_N 	N 	0.49758	0.13126	0.62535	-0.326
Mof_H 	H 	0.4786	0.1444	0.6209	0.123
Mof_H 	H 	0.5173	0.1346	0.6131	0.143
Mof_N 	N 	0.42559	0.19592	0.61843	-0.266
Mof_N 	N 	0.45339	0.2196	0.60739	-0.254
Mof_N 	N 	0.45413	0.21574	0.6666	-0.248
Mof_H 	H 	0.4602	0.2193	0.689	0.122
Mof_N 	N 	0.49779	0.25486	0.63883	-0.327
Mof_H 	H 	0.5064	0.2644	0.6192	0.107
Mof_H 	H 	0.5069	0.2606	0.6597	0.133
Mof_C 	C 	0.51428	0.06288	0.68958	0.152
Mof_C 	C 	0.49628	0.10486	0.65207	0.206
Mof_C 	C 	0.4269	0.19395	0.6544	0.134
Mof_C 	C 	0.46991	0.23084	0.63691	0.2
Mof_Cu	Cu	0.41514	0.60918	0.17057	0.787
Mof_Cu	Cu	0.44545	0.54683	0.23158	0.782
Mof_S 	S 	0.54268	0.53144	0.21126	-0.548
Mof_S 	S 	0.39885	0.66903	0.18308	-0.482
Mof_N 	N 	0.48003	0.56954	0.19639	-0.273
Mof_N 	N 	0.46844	0.59715	0.1722	-0.25
Mof_N 	N 	0.52615	0.5849	0.16213	-0.248
Mof_H 	H 	0.5478	0.586	0.1531	0.126
Mof_N 	N 	0.49758	0.63126	0.12535	-0.326
Mof_H 	H 	0.4786	0.6444	0.1209	0.123
Mof_H 	H 	0.5173	0.6346	0.1131	0.143
Mof_N 	N 	0.42559	0.69592	0.11843	-0.266
Mof_N 	N 	0.45339	0.7196	0.10739	-0.254
Mof_N 	N 	0.45413	0.71574	0.1666	-0.248
Mof_H 	H 	0.4602	0.7193	0.189	0.122
Mof_N 	N 	0.49779	0.75486	0.13883	-0.327
Mof_H 	H 	0.5064	0.7644	0.1192	0.107
Mof_H 	H 	0.5069	0.7606	0.1597	0.133
Mof_C 	C 	0.51428	0.56288	0.18958	0.152
Mof_C 	C 	0.49628	0.60486	0.15207	0.206
Mof_C 	C 	0.4269	0.69395	0.1544	0.134
Mof_C 	C 	0.46991	0.73084	0.13691	0.2
Mof_Cu	Cu	0.91514	0.10918	0.17057	0.787
Mof_Cu	Cu	0.94545	0.04683	0.23158	0.782
Mof_S 	S 	0.04268	0.03144	0.21126	-0.553
Mof_S 	S 	0.89885	0.16903	0.18308	-0.482
Mof_N 	N 	0.98003	0.06954	0.19639	-0.269
Mof_N 	N 	0.96844	0.09715	0.1722	-0.25
Mof_N 	N 	0.02615	0.0849	0.16213	-0.251
Mof_H 	H 	0.0478	0.086	0.1531	0.125
Mof_N 	N 	0.99758	0.13126	0.12535	-0.32
Mof_H 	H 	0.9786	0.1444	0.1209	0.122
Mof_H 	H 	0.0173	0.1346	0.1131	0.136
Mof_N 	N 	0.92559	0.19592	0.11843	-0.266
Mof_N 	N 	0.95339	0.2196	0.10739	-0.252
Mof_N 	N 	0.95413	0.21574	0.1666	-0.247
Mof_H 	H 	0.9602	0.2193	0.189	0.124
Mof_N 	N 	0.99779	0.25486	0.13883	-0.312
Mof_H 	H 	0.0064	0.2644	0.1192	0.098
Mof_H 	H 	0.0069	0.2606	0.1597	0.124
Mof_C 	C 	0.01428	0.06288	0.18958	0.145
Mof_C 	C 	0.99628	0.10486	0.15207	0.211
Mof_C 	C 	0.9269	0.19395	0.1544	0.134
Mof_C 	C 	0.96991	0.23084	0.13691	0.2
Mof_Cu	Cu	0.91514	0.60918	0.67057	0.787
Mof_Cu	Cu	0.94545	0.54683	0.73158	0.783
Mof_S 	S 	0.04268	0.53144	0.71126	-0.549
Mof_S 	S 	0.89885	0.66903	0.68308	-0.482
Mof_N 	N 	0.98003	0.56954	0.69639	-0.268
Mof_N 	N 	0.96844	0.59715	0.6722	-0.25
Mof_N 	N 	0.02615	0.5849	0.66213	-0.251
Mof_H 	H 	0.0478	0.586	0.6531	0.125
Mof_N 	N 	0.99758	0.63126	0.62535	-0.32
Mof_H 	H 	0.9786	0.6444	0.6209	0.123
Mof_H 	H 	0.0173	0.6346	0.6131	0.136
Mof_N 	N 	0.92559	0.69592	0.61843	-0.266
Mof_N 	N 	0.95339	0.7196	0.60739	-0.252
Mof_N 	N 	0.95413	0.71574	0.6666	-0.247
Mof_H 	H 	0.9602	0.7193	0.689	0.124
Mof_N 	N 	0.99779	0.75486	0.63883	-0.313
Mof_H 	H 	0.0064	0.7644	0.6192	0.098
Mof_H 	H 	0.0069	0.7606	0.6597	0.124
Mof_C 	C 	0.01428	0.56288	0.68958	0.145
Mof_C 	C 	0.99628	0.60486	0.65207	0.212
Mof_C 	C 	0.9269	0.69395	0.6544	0.134
Mof_C 	C 	0.96991	0.73084	0.63691	0.2
Mof_Cu	Cu	0.41514	0.89082	0.32943	0.787
Mof_Cu	Cu	0.44545	0.95317	0.26842	0.784
Mof_S 	S 	0.54268	0.96856	0.28874	-0.543
Mof_S 	S 	0.39885	0.83097	0.31692	-0.482
Mof_N 	N 	0.48003	0.93046	0.30361	-0.272
Mof_N 	N 	0.46844	0.90285	0.3278	-0.249
Mof_N 	N 	0.52615	0.9151	0.33787	-0.248
Mof_H 	H 	0.5478	0.914	0.3469	0.126
Mof_N 	N 	0.49758	0.86874	0.37465	-0.326
Mof_H 	H 	0.4786	0.8556	0.3791	0.123
Mof_H 	H 	0.5173	0.8654	0.3869	0.143
Mof_N 	N 	0.42559	0.80408	0.38157	-0.266
Mof_N 	N 	0.45339	0.7804	0.39261	-0.254
Mof_N 	N 	0.45413	0.78426	0.3334	-0.248
Mof_H 	H 	0.4602	0.7807	0.311	0.122
Mof_N 	N 	0.49779	0.74514	0.36117	-0.327
Mof_H 	H 	0.5064	0.7356	0.3808	0.107
Mof_H 	H 	0.5069	0.7394	0.3403	0.133
Mof_C 	C 	0.51428	0.93712	0.31042	0.152
Mof_C 	C 	0.49628	0.89514	0.34793	0.207
Mof_C 	C 	0.4269	0.80605	0.3456	0.134
Mof_C 	C 	0.46991	0.76916	0.36309	0.2
Mof_Cu	Cu	0.41514	0.39082	0.82943	0.787
Mof_Cu	Cu	0.44545	0.45317	0.76842	0.782
Mof_S 	S 	0.54268	0.46856	0.78874	-0.548
Mof_S 	S 	0.39885	0.33097	0.81692	-0.482
Mof_N 	N 	0.48003	0.43046	0.80361	-0.273
Mof_N 	N 	0.46844	0.40285	0.8278	-0.25
Mof_N 	N 	0.52615	0.4151	0.83787	-0.248
Mof_H 	H 	0.5478	0.414	0.8469	0.126
Mof_N 	N 	0.49758	0.36874	0.87465	-0.326
Mof_H 	H 	0.4786	0.3556	0.8791	0.123
Mof_H 	H 	0.5173	0.3654	0.8869	0.144
Mof_N 	N 	0.42559	0.30408	0.88157	-0.266
Mof_N 	N 	0.45339	0.2804	0.89261	-0.254
Mof_N 	N 	0.45413	0.28426	0.8334	-0.248
Mof_H 	H 	0.4602	0.2807	0.811	0.122
Mof_N 	N 	0.49779	0.24514	0.86117	-0.327
Mof_H 	H 	0.5064	0.2356	0.8808	0.107
Mof_H 	H 	0.5069	0.2394	0.8403	0.133
Mof_C 	C 	0.51428	0.43712	0.81042	0.152
Mof_C 	C 	0.49628	0.39514	0.84793	0.207
Mof_C 	C 	0.4269	0.30605	0.8456	0.134
Mof_C 	C 	0.46991	0.26916	0.86309	0.2
Mof_Cu	Cu	0.91514	0.89082	0.82943	0.787
Mof_Cu	Cu	0.94545	0.95317	0.76842	0.784
Mof_S 	S 	0.04268	0.96856	0.78874	-0.544
Mof_S 	S 	0.89885	0.83097	0.81692	-0.482
Mof_N 	N 	0.98003	0.93046	0.80361	-0.268
Mof_N 	N 	0.96844	0.90285	0.8278	-0.25
Mof_N 	N 	0.02615	0.9151	0.83787	-0.251
Mof_H 	H 	0.0478	0.914	0.8469	0.126
Mof_N 	N 	0.99758	0.86874	0.87465	-0.32
Mof_H 	H 	0.9786	0.8556	0.8791	0.123
Mof_H 	H 	0.0173	0.8654	0.8869	0.137
Mof_N 	N 	0.92559	0.80408	0.88157	-0.266
Mof_N 	N 	0.95339	0.7804	0.89261	-0.252
Mof_N 	N 	0.95413	0.78426	0.8334	-0.247
Mof_H 	H 	0.9602	0.7807	0.811	0.124
Mof_N 	N 	0.99779	0.74514	0.86117	-0.313
Mof_H 	H 	0.0064	0.7356	0.8808	0.098
Mof_H 	H 	0.0069	0.7394	0.8403	0.124
Mof_C 	C 	0.01428	0.93712	0.81042	0.145
Mof_C 	C 	0.99628	0.89514	0.84793	0.213
Mof_C 	C 	0.9269	0.80605	0.8456	0.134
Mof_C 	C 	0.96991	0.76916	0.86309	0.2
Mof_Cu	Cu	0.91514	0.39082	0.32943	0.787
Mof_Cu	Cu	0.94545	0.45317	0.26842	0.783
Mof_S 	S 	0.04268	0.46856	0.28874	-0.549
Mof_S 	S 	0.89885	0.33097	0.31692	-0.482
Mof_N 	N 	0.98003	0.43046	0.30361	-0.268
Mof_N 	N 	0.96844	0.40285	0.3278	-0.25
Mof_N 	N 	0.02615	0.4151	0.33787	-0.251
Mof_H 	H 	0.0478	0.414	0.3469	0.126
Mof_N 	N 	0.99758	0.36874	0.37465	-0.32
Mof_H 	H 	0.9786	0.3556	0.3791	0.123
Mof_H 	H 	0.0173	0.3654	0.3869	0.136
Mof_N 	N 	0.92559	0.30408	0.38157	-0.266
Mof_N 	N 	0.95339	0.2804	0.39261	-0.252
Mof_N 	N 	0.95413	0.28426	0.3334	-0.247
Mof_H 	H 	0.9602	0.2807	0.311	0.124
Mof_N 	N 	0.99779	0.24514	0.36117	-0.312
Mof_H 	H 	0.0064	0.2356	0.3808	0.098
Mof_H 	H 	0.0069	0.2394	0.3403	0.124
Mof_C 	C 	0.01428	0.43712	0.31042	0.145
Mof_C 	C 	0.99628	0.39514	0.34793	0.212
Mof_C 	C 	0.9269	0.30605	0.3456	0.134
Mof_C 	C 	0.96991	0.26916	0.36309	0.2
Mof_Cu	Cu	0.67057	0.58486	0.89082	0.787
Mof_Cu	Cu	0.73158	0.55455	0.95317	0.784
Mof_S 	S 	0.71126	0.45732	0.96856	-0.543
Mof_S 	S 	0.68308	0.60115	0.83097	-0.482
Mof_N 	N 	0.69639	0.51997	0.93046	-0.272
Mof_N 	N 	0.6722	0.53156	0.90285	-0.249
Mof_N 	N 	0.66213	0.47385	0.9151	-0.248
Mof_H 	H 	0.6531	0.4522	0.914	0.126
Mof_N 	N 	0.62535	0.50242	0.86874	-0.326
Mof_H 	H 	0.6209	0.5214	0.8556	0.123
Mof_H 	H 	0.6131	0.4827	0.8654	0.143
Mof_N 	N 	0.61843	0.57441	0.80408	-0.266
Mof_N 	N 	0.60739	0.54661	0.7804	-0.254
Mof_N 	N 	0.6666	0.54587	0.78426	-0.248
Mof_H 	H 	0.689	0.5398	0.7807	0.122
Mof_N 	N 	0.63883	0.50221	0.74514	-0.327
Mof_H 	H 	0.6192	0.4936	0.7356	0.107
Mof_H 	H 	0.6597	0.4931	0.7394	0.133
Mof_C 	C 	0.68958	0.48572	0.93712	0.152
Mof_C 	C 	0.65207	0.50372	0.89514	0.207
Mof_C 	C 	0.6544	0.5731	0.80605	0.134
Mof_C 	C 	0.63691	0.53009	0.76916	0.2
Mof_Cu	Cu	0.67057	0.08486	0.39082	0.787
Mof_Cu	Cu	0.73158	0.05455	0.45317	0.782
Mof_S 	S 	0.71126	0.95732	0.46856	-0.546
Mof_S 	S 	0.68308	0.10115	0.33097	-0.482
Mof_N 	N 	0.69639	0.01997	0.43046	-0.277
Mof_N 	N 	0.6722	0.03156	0.40285	-0.249
Mof_N 	N 	0.66213	0.97385	0.4151	-0.246
Mof_H 	H 	0.6531	0.9522	0.414	0.126
Mof_N 	N 	0.62535	0.00242	0.36874	-0.332
Mof_H 	H 	0.6209	0.0214	0.3556	0.124
Mof_H 	H 	0.6131	0.9827	0.3654	0.15
Mof_N 	N 	0.61843	0.07441	0.30408	-0.266
Mof_N 	N 	0.60739	0.04661	0.2804	-0.255
Mof_N 	N 	0.6666	0.04587	0.28426	-0.248
Mof_H 	H 	0.689	0.0398	0.2807	0.121
Mof_N 	N 	0.63883	0.00221	0.24514	-0.342
Mof_H 	H 	0.6192	0.9936	0.2356	0.116
Mof_H 	H 	0.6597	0.9931	0.2394	0.142
Mof_C 	C 	0.68958	0.98572	0.43712	0.159
Mof_C 	C 	0.65207	0.00372	0.39514	0.201
Mof_C 	C 	0.6544	0.0731	0.30605	0.133
Mof_C 	C 	0.63691	0.03009	0.26916	0.201
Mof_Cu	Cu	0.17057	0.58486	0.39082	0.787
Mof_Cu	Cu	0.23158	0.55455	0.45317	0.782
Mof_S 	S 	0.21126	0.45732	0.46856	-0.548
Mof_S 	S 	0.18308	0.60115	0.33097	-0.482
Mof_N 	N 	0.19639	0.51997	0.43046	-0.273
Mof_N 	N 	0.1722	0.53156	0.40285	-0.25
Mof_N 	N 	0.16213	0.47385	0.4151	-0.248
Mof_H 	H 	0.1531	0.4522	0.414	0.126
Mof_N 	N 	0.12535	0.50242	0.36874	-0.326
Mof_H 	H 	0.1209	0.5214	0.3556	0.123
Mof_H 	H 	0.1131	0.4827	0.3654	0.143
Mof_N 	N 	0.11843	0.57441	0.30408	-0.266
Mof_N 	N 	0.10739	0.54661	0.2804	-0.254
Mof_N 	N 	0.1666	0.54587	0.28426	-0.248
Mof_H 	H 	0.189	0.5398	0.2807	0.122
Mof_N 	N 	0.13883	0.50221	0.24514	-0.327
Mof_H 	H 	0.1192	0.4936	0.2356	0.107
Mof_H 	H 	0.1597	0.4931	0.2394	0.133
Mof_C 	C 	0.18958	0.48572	0.43712	0.152
Mof_C 	C 	0.15207	0.50372	0.39514	0.206
Mof_C 	C 	0.1544	0.5731	0.30605	0.134
Mof_C 	C 	0.13691	0.53009	0.26916	0.2
Mof_Cu	Cu	0.17057	0.08486	0.89082	0.787
Mof_Cu	Cu	0.23158	0.05455	0.95317	0.783
Mof_S 	S 	0.21126	0.95732	0.96856	-0.541
Mof_S 	S 	0.18308	0.10115	0.83097	-0.482
Mof_N 	N 	0.19639	0.01997	0.93046	-0.276
Mof_N 	N 	0.1722	0.03156	0.90285	-0.249
Mof_N 	N 	0.16213	0.97385	0.9151	-0.245
Mof_H 	H 	0.1531	0.9522	0.914	0.126
Mof_N 	N 	0.12535	0.00242	0.86874	-0.332
Mof_H 	H 	0.1209	0.0214	0.8556	0.124
Mof_H 	H 	0.1131	0.9827	0.8654	0.15
Mof_N 	N 	0.11843	0.07441	0.80408	-0.266
Mof_N 	N 	0.10739	0.04661	0.7804	-0.255
Mof_N 	N 	0.1666	0.04587	0.78426	-0.248
Mof_H 	H 	0.189	0.0398	0.7807	0.121
Mof_N 	N 	0.13883	0.00221	0.74514	-0.342
Mof_H 	H 	0.1192	0.9936	0.7356	0.116
Mof_H 	H 	0.1597	0.9931	0.7394	0.142
Mof_C 	C 	0.18958	0.98572	0.93712	0.159
Mof_C 	C 	0.15207	0.00372	0.89514	0.201
Mof_C 	C 	0.1544	0.0731	0.80605	0.133
Mof_C 	C 	0.13691	0.03009	0.76916	0.201
Mof_Cu	Cu	0.32943	0.58486	0.10918	0.787
Mof_Cu	Cu	0.26842	0.55455	0.04683	0.781
Mof_S 	S 	0.28874	0.45732	0.03144	-0.552
Mof_S 	S 	0.31692	0.60115	0.16903	-0.482
Mof_N 	N 	0.30361	0.51997	0.06954	-0.273
Mof_N 	N 	0.3278	0.53156	0.09715	-0.25
Mof_N 	N 	0.33787	0.47385	0.0849	-0.248
Mof_H 	H 	0.3469	0.4522	0.086	0.125
Mof_N 	N 	0.37465	0.50242	0.13126	-0.326
Mof_H 	H 	0.3791	0.5214	0.1444	0.123
Mof_H 	H 	0.3869	0.4827	0.1346	0.143
Mof_N 	N 	0.38157	0.57441	0.19592	-0.266
Mof_N 	N 	0.39261	0.54661	0.2196	-0.254
Mof_N 	N 	0.3334	0.54587	0.21574	-0.248
Mof_H 	H 	0.311	0.5398	0.2193	0.122
Mof_N 	N 	0.36117	0.50221	0.25486	-0.327
Mof_H 	H 	0.3808	0.4936	0.2644	0.107
Mof_H 	H 	0.3403	0.4931	0.2606	0.133
Mof_C 	C 	0.31042	0.48572	0.06288	0.152
Mof_C 	C 	0.34793	0.50372	0.10486	0.206
Mof_C 	C 	0.3456	0.5731	0.19395	0.134
Mof_C 	C 	0.36309	0.53009	0.23084	0.2
Mof_Cu	Cu	0.32943	0.08486	0.60918	0.787
Mof_Cu	Cu	0.26842	0.05455	0.54683	0.782
Mof_S 	S 	0.28874	0.95732	0.53144	-0.546
Mof_S 	S 	0.31692	0.10115	0.66903	-0.482
Mof_N 	N 	0.30361	0.01997	0.56954	-0.277
Mof_N 	N 	0.3278	0.03156	0.59715	-0.249
Mof_N 	N 	0.33787	0.97385	0.5849	-0.246
Mof_H 	H 	0.3469	0.9522	0.586	0.126
Mof_N 	N 	0.37465	0.00242	0.63126	-0.332
Mof_H 	H 	0.3791	0.0214	0.6444	0.124
Mof_H 	H 	0.3869	0.9827	0.6346	0.15
Mof_N 	N 	0.38157	0.07441	0.69592	-0.266
Mof_N 	N 	0.39261	0.04661	0.7196	-0.255
Mof_N 	N 	0.3334	0.04587	0.71574	-0.248
Mof_H 	H 	0.311	0.0398	0.7193	0.121
Mof_N 	N 	0.36117	0.00221	0.75486	-0.342
Mof_H 	H 	0.3808	0.9936	0.7644	0.116
Mof_H 	H 	0.3403	0.9931	0.7606	0.142
Mof_C 	C 	0.31042	0.98572	0.56288	0.159
Mof_C 	C 	0.34793	0.00372	0.60486	0.201
Mof_C 	C 	0.3456	0.0731	0.69395	0.133
Mof_C 	C 	0.36309	0.03009	0.73084	0.201
Mof_Cu	Cu	0.82943	0.58486	0.60918	0.787
Mof_Cu	Cu	0.76842	0.55455	0.54683	0.782
Mof_S 	S 	0.78874	0.45732	0.53144	-0.548
Mof_S 	S 	0.81692	0.60115	0.66903	-0.482
Mof_N 	N 	0.80361	0.51997	0.56954	-0.273
Mof_N 	N 	0.8278	0.53156	0.59715	-0.25
Mof_N 	N 	0.83787	0.47385	0.5849	-0.248
Mof_H 	H 	0.8469	0.4522	0.586	0.126
Mof_N 	N 	0.87465	0.50242	0.63126	-0.326
Mof_H 	H 	0.8791	0.5214	0.6444	0.123
Mof_H 	H 	0.8869	0.4827	0.6346	0.144
Mof_N 	N 	0.88157	0.57441	0.69592	-0.266
Mof_N 	N 	0.89261	0.54661	0.7196	-0.254
Mof_N 	N 	0.8334	0.54587	0.71574	-0.248
Mof_H 	H 	0.811	0.5398	0.7193	0.122
Mof_N 	N 	0.86117	0.50221	0.75486	-0.327
Mof_H 	H 	0.8808	0.4936	0.7644	0.107
Mof_H 	H 	0.8403	0.4931	0.7606	0.133
Mof_C 	C 	0.81042	0.48572	0.56288	0.152
Mof_C 	C 	0.84793	0.50372	0.60486	0.207
Mof_C 	C 	0.8456	0.5731	0.69395	0.134
Mof_C 	C 	0.86309	0.53009	0.73084	0.2
Mof_Cu	Cu	0.82943	0.08486	0.10918	0.787
Mof_Cu	Cu	0.76842	0.05455	0.04683	0.781
Mof_S 	S 	0.78874	0.95732	0.03144	-0.55
Mof_S 	S 	0.81692	0.10115	0.16903	-0.482
Mof_N 	N 	0.80361	0.01997	0.06954	-0.277
Mof_N 	N 	0.8278	0.03156	0.09715	-0.249
Mof_N 	N 	0.83787	0.97385	0.0849	-0.246
Mof_H 	H 	0.8469	0.9522	0.086	0.126
Mof_N 	N 	0.87465	0.00242	0.13126	-0.332
Mof_H 	H 	0.8791	0.0214	0.1444	0.124
Mof_H 	H 	0.8869	0.9827	0.1346	0.15
Mof_N 	N 	0.88157	0.07441	0.19592	-0.266
Mof_N 	N 	0.89261	0.04661	0.2196	-0.255
Mof_N 	N 	0.8334	0.04587	0.21574	-0.248
Mof_H 	H 	0.811	0.0398	0.2193	0.121
Mof_N 	N 	0.86117	0.00221	0.25486	-0.342
Mof_H 	H 	0.8808	0.9936	0.2644	0.116
Mof_H 	H 	0.8403	0.9931	0.2606	0.142
Mof_C 	C 	0.81042	0.98572	0.06288	0.159
Mof_C 	C 	0.84793	0.00372	0.10486	0.201
Mof_C 	C 	0.8456	0.0731	0.19395	0.133
Mof_C 	C 	0.86309	0.03009	0.23084	0.201
Mof_Cu	Cu	0.67057	0.41514	0.10918	0.787
Mof_Cu	Cu	0.73158	0.44545	0.04683	0.781
Mof_S 	S 	0.71126	0.54268	0.03144	-0.552
Mof_S 	S 	0.68308	0.39885	0.16903	-0.482
Mof_N 	N 	0.69639	0.48003	0.06954	-0.273
Mof_N 	N 	0.6722	0.46844	0.09715	-0.25
Mof_N 	N 	0.66213	0.52615	0.0849	-0.248
Mof_H 	H 	0.6531	0.5478	0.086	0.125
Mof_N 	N 	0.62535	0.49758	0.13126	-0.326
Mof_H 	H 	0.6209	0.4786	0.1444	0.123
Mof_H 	H 	0.6131	0.5173	0.1346	0.143
Mof_N 	N 	0.61843	0.42559	0.19592	-0.266
Mof_N 	N 	0.60739	0.45339	0.2196	-0.254
Mof_N 	N 	0.6666	0.45413	0.21574	-0.248
Mof_H 	H 	0.689	0.4602	0.2193	0.122
Mof_N 	N 	0.63883	0.49779	0.25486	-0.327
Mof_H 	H 	0.6192	0.5064	0.2644	0.107
Mof_H 	H 	0.6597	0.5069	0.2606	0.133
Mof_C 	C 	0.68958	0.51428	0.06288	0.152
Mof_C 	C 	0.65207	0.49628	0.10486	0.206
Mof_C 	C 	0.6544	0.4269	0.19395	0.134
Mof_C 	C 	0.63691	0.46991	0.23084	0.2
Mof_Cu	Cu	0.67057	0.91514	0.60918	0.787
Mof_Cu	Cu	0.73158	0.94545	0.54683	0.783
Mof_S 	S 	0.71126	0.04268	0.53144	-0.549
Mof_S 	S 	0.68308	0.89885	0.66903	-0.482
Mof_N 	N 	0.69639	0.98003	0.56954	-0.268
Mof_N 	N 	0.6722	0.96844	0.59715	-0.25
Mof_N 	N 	0.66213	0.02615	0.5849	-0.251
Mof_H 	H 	0.6531	0.0478	0.586	0.125
Mof_N 	N 	0.62535	0.99758	0.63126	-0.32
Mof_H 	H 	0.6209	0.9786	0.6444	0.123
Mof_H 	H 	0.6131	0.0173	0.6346	0.136
Mof_N 	N 	0.61843	0.92559	0.69592	-0.266
Mof_N 	N 	0.60739	0.95339	0.7196	-0.252
Mof_N 	N 	0.6666	0.95413	0.71574	-0.247
Mof_H 	H 	0.689	0.9602	0.7193	0.124
Mof_N 	N 	0.63883	0.99779	0.75486	-0.313
Mof_H 	H 	0.6192	0.0064	0.7644	0.098
Mof_H 	H 	0.6597	0.0069	0.7606	0.124
Mof_C 	C 	0.68958	0.01428	0.56288	0.145
Mof_C 	C 	0.65207	0.99628	0.60486	0.212
Mof_C 	C 	0.6544	0.9269	0.69395	0.134
Mof_C 	C 	0.63691	0.96991	0.73084	0.2
Mof_Cu	Cu	0.17057	0.41514	0.60918	0.787
Mof_Cu	Cu	0.23158	0.44545	0.54683	0.782
Mof_S 	S 	0.21126	0.54268	0.53144	-0.548
Mof_S 	S 	0.18308	0.39885	0.66903	-0.482
Mof_N 	N 	0.19639	0.48003	0.56954	-0.273
Mof_N 	N 	0.1722	0.46844	0.59715	-0.25
Mof_N 	N 	0.16213	0.52615	0.5849	-0.248
Mof_H 	H 	0.1531	0.5478	0.586	0.126
Mof_N 	N 	0.12535	0.49758	0.63126	-0.326
Mof_H 	H 	0.1209	0.4786	0.6444	0.123
Mof_H 	H 	0.1131	0.5173	0.6346	0.143
Mof_N 	N 	0.11843	0.42559	0.69592	-0.266
Mof_N 	N 	0.10739	0.45339	0.7196	-0.254
Mof_N 	N 	0.1666	0.45413	0.71574	-0.248
Mof_H 	H 	0.189	0.4602	0.7193	0.122
Mof_N 	N 	0.13883	0.49779	0.75486	-0.327
Mof_H 	H 	0.1192	0.5064	0.7644	0.107
Mof_H 	H 	0.1597	0.5069	0.7606	0.133
Mof_C 	C 	0.18958	0.51428	0.56288	0.152
Mof_C 	C 	0.15207	0.49628	0.60486	0.206
Mof_C 	C 	0.1544	0.4269	0.69395	0.134
Mof_C 	C 	0.13691	0.46991	0.73084	0.2
Mof_Cu	Cu	0.17057	0.91514	0.10918	0.787
Mof_Cu	Cu	0.23158	0.94545	0.04683	0.782
Mof_S 	S 	0.21126	0.04268	0.03144	-0.553
Mof_S 	S 	0.18308	0.89885	0.16903	-0.482
Mof_N 	N 	0.19639	0.98003	0.06954	-0.269
Mof_N 	N 	0.1722	0.96844	0.09715	-0.25
Mof_N 	N 	0.16213	0.02615	0.0849	-0.251
Mof_H 	H 	0.1531	0.0478	0.086	0.125
Mof_N 	N 	0.12535	0.99758	0.13126	-0.32
Mof_H 	H 	0.1209	0.9786	0.1444	0.122
Mof_H 	H 	0.1131	0.0173	0.1346	0.136
Mof_N 	N 	0.11843	0.92559	0.19592	-0.266
Mof_N 	N 	0.10739	0.95339	0.2196	-0.252
Mof_N 	N 	0.1666	0.95413	0.21574	-0.247
Mof_H 	H 	0.189	0.9602	0.2193	0.124
Mof_N 	N 	0.13883	0.99779	0.25486	-0.312
Mof_H 	H 	0.1192	0.0064	0.2644	0.098
Mof_H 	H 	0.1597	0.0069	0.2606	0.124
Mof_C 	C 	0.18958	0.01428	0.06288	0.145
Mof_C 	C 	0.15207	0.99628	0.10486	0.211
Mof_C 	C 	0.1544	0.9269	0.19395	0.134
Mof_C 	C 	0.13691	0.96991	0.23084	0.2
Mof_Cu	Cu	0.32943	0.41514	0.89082	0.787
Mof_Cu	Cu	0.26842	0.44545	0.95317	0.784
Mof_S 	S 	0.28874	0.54268	0.96856	-0.543
Mof_S 	S 	0.31692	0.39885	0.83097	-0.482
Mof_N 	N 	0.30361	0.48003	0.93046	-0.272
Mof_N 	N 	0.3278	0.46844	0.90285	-0.249
Mof_N 	N 	0.33787	0.52615	0.9151	-0.248
Mof_H 	H 	0.3469	0.5478	0.914	0.126
Mof_N 	N 	0.37465	0.49758	0.86874	-0.326
Mof_H 	H 	0.3791	0.4786	0.8556	0.123
Mof_H 	H 	0.3869	0.5173	0.8654	0.143
Mof_N 	N 	0.38157	0.42559	0.80408	-0.266
Mof_N 	N 	0.39261	0.45339	0.7804	-0.254
Mof_N 	N 	0.3334	0.45413	0.78426	-0.248
Mof_H 	H 	0.311	0.4602	0.7807	0.122
Mof_N 	N 	0.36117	0.49779	0.74514	-0.327
Mof_H 	H 	0.3808	0.5064	0.7356	0.107
Mof_H 	H 	0.3403	0.5069	0.7394	0.133
Mof_C 	C 	0.31042	0.51428	0.93712	0.152
Mof_C 	C 	0.34793	0.49628	0.89514	0.207
Mof_C 	C 	0.3456	0.4269	0.80605	0.134
Mof_C 	C 	0.36309	0.46991	0.76916	0.2
Mof_Cu	Cu	0.32943	0.91514	0.39082	0.787
Mof_Cu	Cu	0.26842	0.94545	0.45317	0.783
Mof_S 	S 	0.28874	0.04268	0.46856	-0.549
Mof_S 	S 	0.31692	0.89885	0.33097	-0.482
Mof_N 	N 	0.30361	0.98003	0.43046	-0.268
Mof_N 	N 	0.3278	0.96844	0.40285	-0.25
Mof_N 	N 	0.33787	0.02615	0.4151	-0.251
Mof_H 	H 	0.3469	0.0478	0.414	0.126
Mof_N 	N 	0.37465	0.99758	0.36874	-0.32
Mof_H 	H 	0.3791	0.9786	0.3556	0.123
Mof_H 	H 	0.3869	0.0173	0.3654	0.136
Mof_N 	N 	0.38157	0.92559	0.30408	-0.266
Mof_N 	N 	0.39261	0.95339	0.2804	-0.252
Mof_N 	N 	0.3334	0.95413	0.28426	-0.247
Mof_H 	H 	0.311	0.9602	0.2807	0.124
Mof_N 	N 	0.36117	0.99779	0.24514	-0.312
Mof_H 	H 	0.3808	0.0064	0.2356	0.098
Mof_H 	H 	0.3403	0.0069	0.2394	0.124
Mof_C 	C 	0.31042	0.01428	0.43712	0.145
Mof_C 	C 	0.34793	0.99628	0.39514	0.212
Mof_C 	C 	0.3456	0.9269	0.30605	0.134
Mof_C 	C 	0.36309	0.96991	0.26916	0.2
Mof_Cu	Cu	0.82943	0.41514	0.39082	0.787
Mof_Cu	Cu	0.76842	0.44545	0.45317	0.782
Mof_S 	S 	0.78874	0.54268	0.46856	-0.548
Mof_S 	S 	0.81692	0.39885	0.33097	-0.482
Mof_N 	N 	0.80361	0.48003	0.43046	-0.273
Mof_N 	N 	0.8278	0.46844	0.40285	-0.25
Mof_N 	N 	0.83787	0.52615	0.4151	-0.248
Mof_H 	H 	0.8469	0.5478	0.414	0.126
Mof_N 	N 	0.87465	0.49758	0.36874	-0.326
Mof_H 	H 	0.8791	0.4786	0.3556	0.123
Mof_H 	H 	0.8869	0.5173	0.3654	0.144
Mof_N 	N 	0.88157	0.42559	0.30408	-0.266
Mof_N 	N 	0.89261	0.45339	0.2804	-0.254
Mof_N 	N 	0.8334	0.45413	0.28426	-0.248
Mof_H 	H 	0.811	0.4602	0.2807	0.122
Mof_N 	N 	0.86117	0.49779	0.24514	-0.327
Mof_H 	H 	0.8808	0.5064	0.2356	0.107
Mof_H 	H 	0.8403	0.5069	0.2394	0.133
Mof_C 	C 	0.81042	0.51428	0.43712	0.152
Mof_C 	C 	0.84793	0.49628	0.39514	0.207
Mof_C 	C 	0.8456	0.4269	0.30605	0.134
Mof_C 	C 	0.86309	0.46991	0.26916	0.2
Mof_Cu	Cu	0.82943	0.91514	0.89082	0.787
Mof_Cu	Cu	0.76842	0.94545	0.95317	0.784
Mof_S 	S 	0.78874	0.04268	0.96856	-0.544
Mof_S 	S 	0.81692	0.89885	0.83097	-0.482
Mof_N 	N 	0.80361	0.98003	0.93046	-0.268
Mof_N 	N 	0.8278	0.96844	0.90285	-0.25
Mof_N 	N 	0.83787	0.02615	0.9151	-0.251
Mof_H 	H 	0.8469	0.0478	0.914	0.126
Mof_N 	N 	0.87465	0.99758	0.86874	-0.32
Mof_H 	H 	0.8791	0.9786	0.8556	0.123
Mof_H 	H 	0.8869	0.0173	0.8654	0.137
Mof_N 	N 	0.88157	0.92559	0.80408	-0.266
Mof_N 	N 	0.89261	0.95339	0.7804	-0.252
Mof_N 	N 	0.8334	0.95413	0.78426	-0.247
Mof_H 	H 	0.811	0.9602	0.7807	0.124
Mof_N 	N 	0.86117	0.99779	0.74514	-0.313
Mof_H 	H 	0.8808	0.0064	0.7356	0.098
Mof_H 	H 	0.8403	0.0069	0.7394	0.124
Mof_C 	C 	0.81042	0.01428	0.93712	0.145
Mof_C 	C 	0.84793	0.99628	0.89514	0.213
Mof_C 	C 	0.8456	0.9269	0.80605	0.134
Mof_C 	C 	0.86309	0.96991	0.76916	0.2
Mof_Cu	Cu	0.17057	0.39082	0.08486	0.787
Mof_Cu	Cu	0.23158	0.45317	0.05455	0.782
Mof_S 	S 	0.21126	0.46856	0.95732	-0.546
Mof_S 	S 	0.18308	0.33097	0.10115	-0.482
Mof_N 	N 	0.19639	0.43046	0.01997	-0.277
Mof_N 	N 	0.1722	0.40285	0.03156	-0.249
Mof_N 	N 	0.16213	0.4151	0.97385	-0.245
Mof_H 	H 	0.1531	0.414	0.9522	0.126
Mof_N 	N 	0.12535	0.36874	0.00242	-0.332
Mof_H 	H 	0.1209	0.3556	0.0214	0.123
Mof_H 	H 	0.1131	0.3654	0.9827	0.15
Mof_N 	N 	0.11843	0.30408	0.07441	-0.266
Mof_N 	N 	0.10739	0.2804	0.04661	-0.255
Mof_N 	N 	0.1666	0.28426	0.04587	-0.248
Mof_H 	H 	0.189	0.2807	0.0398	0.121
Mof_N 	N 	0.13883	0.24514	0.00221	-0.342
Mof_H 	H 	0.1192	0.2356	0.9936	0.116
Mof_H 	H 	0.1597	0.2394	0.9931	0.142
Mof_C 	C 	0.18958	0.43712	0.98572	0.159
Mof_C 	C 	0.15207	0.39514	0.00372	0.2
Mof_C 	C 	0.1544	0.30605	0.0731	0.133
Mof_C 	C 	0.13691	0.26916	0.03009	0.201
Mof_Cu	Cu	0.17057	0.89082	0.58486	0.787
Mof_Cu	Cu	0.23158	0.95317	0.55455	0.784
Mof_S 	S 	0.21126	0.96856	0.45732	-0.543
Mof_S 	S 	0.18308	0.83097	0.60115	-0.482
Mof_N 	N 	0.19639	0.93046	0.51997	-0.272
Mof_N 	N 	0.1722	0.90285	0.53156	-0.249
Mof_N 	N 	0.16213	0.9151	0.47385	-0.248
Mof_H 	H 	0.1531	0.914	0.4522	0.126
Mof_N 	N 	0.12535	0.86874	0.50242	-0.326
Mof_H 	H 	0.1209	0.8556	0.5214	0.123
Mof_H 	H 	0.1131	0.8654	0.4827	0.143
Mof_N 	N 	0.11843	0.80408	0.57441	-0.266
Mof_N 	N 	0.10739	0.7804	0.54661	-0.254
Mof_N 	N 	0.1666	0.78426	0.54587	-0.248
Mof_H 	H 	0.189	0.7807	0.5398	0.122
Mof_N 	N 	0.13883	0.74514	0.50221	-0.327
Mof_H 	H 	0.1192	0.7356	0.4936	0.107
Mof_H 	H 	0.1597	0.7394	0.4931	0.133
Mof_C 	C 	0.18958	0.93712	0.48572	0.152
Mof_C 	C 	0.15207	0.89514	0.50372	0.207
Mof_C 	C 	0.1544	0.80605	0.5731	0.134
Mof_C 	C 	0.13691	0.76916	0.53009	0.2
Mof_Cu	Cu	0.67057	0.39082	0.58486	0.787
Mof_Cu	Cu	0.73158	0.45317	0.55455	0.782
Mof_S 	S 	0.71126	0.46856	0.45732	-0.548
Mof_S 	S 	0.68308	0.33097	0.60115	-0.482
Mof_N 	N 	0.69639	0.43046	0.51997	-0.273
Mof_N 	N 	0.6722	0.40285	0.53156	-0.25
Mof_N 	N 	0.66213	0.4151	0.47385	-0.248
Mof_H 	H 	0.6531	0.414	0.4522	0.126
Mof_N 	N 	0.62535	0.36874	0.50242	-0.326
Mof_H 	H 	0.6209	0.3556	0.5214	0.123
Mof_H 	H 	0.6131	0.3654	0.4827	0.143
Mof_N 	N 	0.61843	0.30408	0.57441	-0.266
Mof_N 	N 	0.60739	0.2804	0.54661	-0.254
Mof_N 	N 	0.6666	0.28426	0.54587	-0.248
Mof_H 	H 	0.689	0.2807	0.5398	0.122
Mof_N 	N 	0.63883	0.24514	0.50221	-0.327
Mof_H 	H 	0.6192	0.2356	0.4936	0.107
Mof_H 	H 	0.6597	0.2394	0.4931	0.133
Mof_C 	C 	0.68958	0.43712	0.48572	0.152
Mof_C 	C 	0.65207	0.39514	0.50372	0.206
Mof_C 	C 	0.6544	0.30605	0.5731	0.134
Mof_C 	C 	0.63691	0.26916	0.53009	0.2
Mof_Cu	Cu	0.67057	0.89082	0.08486	0.787
Mof_Cu	Cu	0.73158	0.95317	0.05455	0.783
Mof_S 	S 	0.71126	0.96856	0.95732	-0.541
Mof_S 	S 	0.68308	0.83097	0.10115	-0.482
Mof_N 	N 	0.69639	0.93046	0.01997	-0.276
Mof_N 	N 	0.6722	0.90285	0.03156	-0.249
Mof_N 	N 	0.66213	0.9151	0.97385	-0.245
Mof_H 	H 	0.6531	0.914	0.9522	0.126
Mof_N 	N 	0.62535	0.86874	0.00242	-0.332
Mof_H 	H 	0.6209	0.8556	0.0214	0.124
Mof_H 	H 	0.6131	0.8654	0.9827	0.15
Mof_N 	N 	0.61843	0.80408	0.07441	-0.266
Mof_N 	N 	0.60739	0.7804	0.04661	-0.255
Mof_N 	N 	0.6666	0.78426	0.04587	-0.248
Mof_H 	H 	0.689	0.7807	0.0398	0.121
Mof_N 	N 	0.63883	0.74514	0.00221	-0.342
Mof_H 	H 	0.6192	0.7356	0.9936	0.116
Mof_H 	H 	0.6597	0.7394	0.9931	0.142
Mof_C 	C 	0.68958	0.93712	0.98572	0.159
Mof_C 	C 	0.65207	0.89514	0.00372	0.201
Mof_C 	C 	0.6544	0.80605	0.0731	0.133
Mof_C 	C 	0.63691	0.76916	0.03009	0.201
Mof_Cu	Cu	0.82943	0.60918	0.08486	0.787
Mof_Cu	Cu	0.76842	0.54683	0.05455	0.782
Mof_S 	S 	0.78874	0.53144	0.95732	-0.546
Mof_S 	S 	0.81692	0.66903	0.10115	-0.482
Mof_N 	N 	0.80361	0.56954	0.01997	-0.277
Mof_N 	N 	0.8278	0.59715	0.03156	-0.249
Mof_N 	N 	0.83787	0.5849	0.97385	-0.246
Mof_H 	H 	0.8469	0.586	0.9522	0.126
Mof_N 	N 	0.87465	0.63126	0.00242	-0.332
Mof_H 	H 	0.8791	0.6444	0.0214	0.124
Mof_H 	H 	0.8869	0.6346	0.9827	0.15
Mof_N 	N 	0.88157	0.69592	0.07441	-0.266
Mof_N 	N 	0.89261	0.7196	0.04661	-0.255
Mof_N 	N 	0.8334	0.71574	0.04587	-0.248
Mof_H 	H 	0.811	0.7193	0.0398	0.121
Mof_N 	N 	0.86117	0.75486	0.00221	-0.341
Mof_H 	H 	0.8808	0.7644	0.9936	0.116
Mof_H 	H 	0.8403	0.7606	0.9931	0.142
Mof_C 	C 	0.81042	0.56288	0.98572	0.159
Mof_C 	C 	0.84793	0.60486	0.00372	0.201
Mof_C 	C 	0.8456	0.69395	0.0731	0.133
Mof_C 	C 	0.86309	0.73084	0.03009	0.201
Mof_Cu	Cu	0.82943	0.10918	0.58486	0.787
Mof_Cu	Cu	0.76842	0.04683	0.55455	0.781
Mof_S 	S 	0.78874	0.03144	0.45732	-0.552
Mof_S 	S 	0.81692	0.16903	0.60115	-0.482
Mof_N 	N 	0.80361	0.06954	0.51997	-0.273
Mof_N 	N 	0.8278	0.09715	0.53156	-0.25
Mof_N 	N 	0.83787	0.0849	0.47385	-0.248
Mof_H 	H 	0.8469	0.086	0.4522	0.126
Mof_N 	N 	0.87465	0.13126	0.50242	-0.326
Mof_H 	H 	0.8791	0.1444	0.5214	0.123
Mof_H 	H 	0.8869	0.1346	0.4827	0.143
Mof_N 	N 	0.88157	0.19592	0.57441	-0.266
Mof_N 	N 	0.89261	0.2196	0.54661	-0.254
Mof_N 	N 	0.8334	0.21574	0.54587	-0.248
Mof_H 	H 	0.811	0.2193	0.5398	0.122
Mof_N 	N 	0.86117	0.25486	0.50221	-0.327
Mof_H 	H 	0.8808	0.2644	0.4936	0.107
Mof_H 	H 	0.8403	0.2606	0.4931	0.133
Mof_C 	C 	0.81042	0.06288	0.48572	0.152
Mof_C 	C 	0.84793	0.10486	0.50372	0.206
Mof_C 	C 	0.8456	0.19395	0.5731	0.134
Mof_C 	C 	0.86309	0.23084	0.53009	0.2
Mof_Cu	Cu	0.32943	0.60918	0.58486	0.787
Mof_Cu	Cu	0.26842	0.54683	0.55455	0.782
Mof_S 	S 	0.28874	0.53144	0.45732	-0.548
Mof_S 	S 	0.31692	0.66903	0.60115	-0.482
Mof_N 	N 	0.30361	0.56954	0.51997	-0.273
Mof_N 	N 	0.3278	0.59715	0.53156	-0.25
Mof_N 	N 	0.33787	0.5849	0.47385	-0.248
Mof_H 	H 	0.3469	0.586	0.4522	0.126
Mof_N 	N 	0.37465	0.63126	0.50242	-0.326
Mof_H 	H 	0.3791	0.6444	0.5214	0.123
Mof_H 	H 	0.3869	0.6346	0.4827	0.143
Mof_N 	N 	0.38157	0.69592	0.57441	-0.266
Mof_N 	N 	0.39261	0.7196	0.54661	-0.254
Mof_N 	N 	0.3334	0.71574	0.54587	-0.248
Mof_H 	H 	0.311	0.7193	0.5398	0.122
Mof_N 	N 	0.36117	0.75486	0.50221	-0.327
Mof_H 	H 	0.3808	0.7644	0.4936	0.107
Mof_H 	H 	0.3403	0.7606	0.4931	0.133
Mof_C 	C 	0.31042	0.56288	0.48572	0.152
Mof_C 	C 	0.34793	0.60486	0.50372	0.206
Mof_C 	C 	0.3456	0.69395	0.5731	0.134
Mof_C 	C 	0.36309	0.73084	0.53009	0.2
Mof_Cu	Cu	0.32943	0.10918	0.08486	0.787
Mof_Cu	Cu	0.26842	0.04683	0.05455	0.781
Mof_S 	S 	0.28874	0.03144	0.95732	-0.55
Mof_S 	S 	0.31692	0.16903	0.10115	-0.482
Mof_N 	N 	0.30361	0.06954	0.01997	-0.277
Mof_N 	N 	0.3278	0.09715	0.03156	-0.249
Mof_N 	N 	0.33787	0.0849	0.97385	-0.246
Mof_H 	H 	0.3469	0.086	0.9522	0.126
Mof_N 	N 	0.37465	0.13126	0.00242	-0.332
Mof_H 	H 	0.3791	0.1444	0.0214	0.124
Mof_H 	H 	0.3869	0.1346	0.9827	0.15
Mof_N 	N 	0.38157	0.19592	0.07441	-0.266
Mof_N 	N 	0.39261	0.2196	0.04661	-0.255
Mof_N 	N 	0.3334	0.21574	0.04587	-0.248
Mof_H 	H 	0.311	0.2193	0.0398	0.121
Mof_N 	N 	0.36117	0.25486	0.00221	-0.342
Mof_H 	H 	0.3808	0.2644	0.9936	0.116
Mof_H 	H 	0.3403	0.2606	0.9931	0.142
Mof_C 	C 	0.31042	0.06288	0.98572	0.159
Mof_C 	C 	0.34793	0.10486	0.00372	0.2
Mof_C 	C 	0.3456	0.19395	0.0731	0.133
Mof_C 	C 	0.36309	0.23084	0.03009	0.201
Mof_Cu	Cu	0.17057	0.60918	0.91514	0.787
Mof_Cu	Cu	0.23158	0.54683	0.94545	0.783
Mof_S 	S 	0.21126	0.53144	0.04268	-0.549
Mof_S 	S 	0.18308	0.66903	0.89885	-0.482
Mof_N 	N 	0.19639	0.56954	0.98003	-0.268
Mof_N 	N 	0.1722	0.59715	0.96844	-0.25
Mof_N 	N 	0.16213	0.5849	0.02615	-0.251
Mof_H 	H 	0.1531	0.586	0.0478	0.125
Mof_N 	N 	0.12535	0.63126	0.99758	-0.32
Mof_H 	H 	0.1209	0.6444	0.9786	0.123
Mof_H 	H 	0.1131	0.6346	0.0173	0.136
Mof_N 	N 	0.11843	0.69592	0.92559	-0.266
Mof_N 	N 	0.10739	0.7196	0.95339	-0.252
Mof_N 	N 	0.1666	0.71574	0.95413	-0.247
Mof_H 	H 	0.189	0.7193	0.9602	0.124
Mof_N 	N 	0.13883	0.75486	0.99779	-0.312
Mof_H 	H 	0.1192	0.7644	0.0064	0.098
Mof_H 	H 	0.1597	0.7606	0.0069	0.124
Mof_C 	C 	0.18958	0.56288	0.01428	0.145
Mof_C 	C 	0.15207	0.60486	0.99628	0.212
Mof_C 	C 	0.1544	0.69395	0.9269	0.134
Mof_C 	C 	0.13691	0.73084	0.96991	0.2
Mof_Cu	Cu	0.17057	0.10918	0.41514	0.787
Mof_Cu	Cu	0.23158	0.04683	0.44545	0.781
Mof_S 	S 	0.21126	0.03144	0.54268	-0.552
Mof_S 	S 	0.18308	0.16903	0.39885	-0.482
Mof_N 	N 	0.19639	0.06954	0.48003	-0.273
Mof_N 	N 	0.1722	0.09715	0.46844	-0.25
Mof_N 	N 	0.16213	0.0849	0.52615	-0.248
Mof_H 	H 	0.1531	0.086	0.5478	0.125
Mof_N 	N 	0.12535	0.13126	0.49758	-0.326
Mof_H 	H 	0.1209	0.1444	0.4786	0.123
Mof_H 	H 	0.1131	0.1346	0.5173	0.143
Mof_N 	N 	0.11843	0.19592	0.42559	-0.266
Mof_N 	N 	0.10739	0.2196	0.45339	-0.254
Mof_N 	N 	0.1666	0.21574	0.45413	-0.248
Mof_H 	H 	0.189	0.2193	0.4602	0.122
Mof_N 	N 	0.13883	0.25486	0.49779	-0.327
Mof_H 	H 	0.1192	0.2644	0.5064	0.107
Mof_H 	H 	0.1597	0.2606	0.5069	0.133
Mof_C 	C 	0.18958	0.06288	0.51428	0.152
Mof_C 	C 	0.15207	0.10486	0.49628	0.206
Mof_C 	C 	0.1544	0.19395	0.4269	0.134
Mof_C 	C 	0.13691	0.23084	0.46991	0.2
Mof_Cu	Cu	0.67057	0.60918	0.41514	0.787
Mof_Cu	Cu	0.73158	0.54683	0.44545	0.782
Mof_S 	S 	0.71126	0.53144	0.54268	-0.548
Mof_S 	S 	0.68308	0.66903	0.39885	-0.482
Mof_N 	N 	0.69639	0.56954	0.48003	-0.273
Mof_N 	N 	0.6722	0.59715	0.46844	-0.25
Mof_N 	N 	0.66213	0.5849	0.52615	-0.248
Mof_H 	H 	0.6531	0.586	0.5478	0.126
Mof_N 	N 	0.62535	0.63126	0.49758	-0.326
Mof_H 	H 	0.6209	0.6444	0.4786	0.123
Mof_H 	H 	0.6131	0.6346	0.5173	0.143
Mof_N 	N 	0.61843	0.69592	0.42559	-0.266
Mof_N 	N 	0.60739	0.7196	0.45339	-0.254
Mof_N 	N 	0.6666	0.71574	0.45413	-0.248
Mof_H 	H 	0.689	0.7193	0.4602	0.122
Mof_N 	N 	0.63883	0.75486	0.49779	-0.327
Mof_H 	H 	0.6192	0.7644	0.5064	0.107
Mof_H 	H 	0.6597	0.7606	0.5069	0.133
Mof_C 	C 	0.68958	0.56288	0.51428	0.152
Mof_C 	C 	0.65207	0.60486	0.49628	0.206
Mof_C 	C 	0.6544	0.69395	0.4269	0.134
Mof_C 	C 	0.63691	0.73084	0.46991	0.2
Mof_Cu	Cu	0.67057	0.10918	0.91514	0.787
Mof_Cu	Cu	0.73158	0.04683	0.94545	0.782
Mof_S 	S 	0.71126	0.03144	0.04268	-0.553
Mof_S 	S 	0.68308	0.16903	0.89885	-0.482
Mof_N 	N 	0.69639	0.06954	0.98003	-0.269
Mof_N 	N 	0.6722	0.09715	0.96844	-0.25
Mof_N 	N 	0.66213	0.0849	0.02615	-0.251
Mof_H 	H 	0.6531	0.086	0.0478	0.125
Mof_N 	N 	0.62535	0.13126	0.99758	-0.32
Mof_H 	H 	0.6209	0.1444	0.9786	0.123
Mof_H 	H 	0.6131	0.1346	0.0173	0.136
Mof_N 	N 	0.61843	0.19592	0.92559	-0.266
Mof_N 	N 	0.60739	0.2196	0.95339	-0.252
Mof_N 	N 	0.6666	0.21574	0.95413	-0.247
Mof_H 	H 	0.689	0.2193	0.9602	0.124
Mof_N 	N 	0.63883	0.25486	0.99779	-0.312
Mof_H 	H 	0.6192	0.2644	0.0064	0.098
Mof_H 	H 	0.6597	0.2606	0.0069	0.124
Mof_C 	C 	0.68958	0.06288	0.01428	0.145
Mof_C 	C 	0.65207	0.10486	0.99628	0.212
Mof_C 	C 	0.6544	0.19395	0.9269	0.134
Mof_C 	C 	0.63691	0.23084	0.96991	0.2
Mof_Cu	Cu	0.82943	0.39082	0.91514	0.787
Mof_Cu	Cu	0.76842	0.45317	0.94545	0.783
Mof_S 	S 	0.78874	0.46856	0.04268	-0.549
Mof_S 	S 	0.81692	0.33097	0.89885	-0.482
Mof_N 	N 	0.80361	0.43046	0.98003	-0.268
Mof_N 	N 	0.8278	0.40285	0.96844	-0.25
Mof_N 	N 	0.83787	0.4151	0.02615	-0.251
Mof_H 	H 	0.8469	0.414	0.0478	0.126
Mof_N 	N 	0.87465	0.36874	0.99758	-0.32
Mof_H 	H 	0.8791	0.3556	0.9786	0.123
Mof_H 	H 	0.8869	0.3654	0.0173	0.137
Mof_N 	N 	0.88157	0.30408	0.92559	-0.266
Mof_N 	N 	0.89261	0.2804	0.95339	-0.252
Mof_N 	N 	0.8334	0.28426	0.95413	-0.247
Mof_H 	H 	0.811	0.2807	0.9602	0.124
Mof_N 	N 	0.86117	0.24514	0.99779	-0.313
Mof_H 	H 	0.8808	0.2356	0.0064	0.098
Mof_H 	H 	0.8403	0.2394	0.0069	0.124
Mof_C 	C 	0.81042	0.43712	0.01428	0.145
Mof_C 	C 	0.84793	0.39514	0.99628	0.212
Mof_C 	C 	0.8456	0.30605	0.9269	0.134
Mof_C 	C 	0.86309	0.26916	0.96991	0.2
Mof_Cu	Cu	0.82943	0.89082	0.41514	0.787
Mof_Cu	Cu	0.76842	0.95317	0.44545	0.784
Mof_S 	S 	0.78874	0.96856	0.54268	-0.543
Mof_S 	S 	0.81692	0.83097	0.39885	-0.482
Mof_N 	N 	0.80361	0.93046	0.48003	-0.272
Mof_N 	N 	0.8278	0.90285	0.46844	-0.249
Mof_N 	N 	0.83787	0.9151	0.52615	-0.248
Mof_H 	H 	0.8469	0.914	0.5478	0.126
Mof_N 	N 	0.87465	0.86874	0.49758	-0.326
Mof_H 	H 	0.8791	0.8556	0.4786	0.124
Mof_H 	H 	0.8869	0.8654	0.5173	0.144
Mof_N 	N 	0.88157	0.80408	0.42559	-0.266
Mof_N 	N 	0.89261	0.7804	0.45339	-0.254
Mof_N 	N 	0.8334	0.78426	0.45413	-0.248
Mof_H 	H 	0.811	0.7807	0.4602	0.122
Mof_N 	N 	0.86117	0.74514	0.49779	-0.327
Mof_H 	H 	0.8808	0.7356	0.5064	0.107
Mof_H 	H 	0.8403	0.7394	0.5069	0.133
Mof_C 	C 	0.81042	0.93712	0.51428	0.152
Mof_C 	C 	0.84793	0.89514	0.49628	0.207
Mof_C 	C 	0.8456	0.80605	0.4269	0.134
Mof_C 	C 	0.86309	0.76916	0.46991	0.2
Mof_Cu	Cu	0.32943	0.39082	0.41514	0.787
Mof_Cu	Cu	0.26842	0.45317	0.44545	0.782
Mof_S 	S 	0.28874	0.46856	0.54268	-0.548
Mof_S 	S 	0.31692	0.33097	0.39885	-0.482
Mof_N 	N 	0.30361	0.43046	0.48003	-0.273
Mof_N 	N 	0.3278	0.40285	0.46844	-0.25
Mof_N 	N 	0.33787	0.4151	0.52615	-0.248
Mof_H 	H 	0.3469	0.414	0.5478	0.126
Mof_N 	N 	0.37465	0.36874	0.49758	-0.326
Mof_H 	H 	0.3791	0.3556	0.4786	0.123
Mof_H 	H 	0.3869	0.3654	0.5173	0.143
Mof_N 	N 	0.38157	0.30408	0.42559	-0.266
Mof_N 	N 	0.39261	0.2804	0.45339	-0.254
Mof_N 	N 	0.3334	0.28426	0.45413	-0.248
Mof_H 	H 	0.311	0.2807	0.4602	0.122
Mof_N 	N 	0.36117	0.24514	0.49779	-0.327
Mof_H 	H 	0.3808	0.2356	0.5064	0.107
Mof_H 	H 	0.3403	0.2394	0.5069	0.133
Mof_C 	C 	0.31042	0.43712	0.51428	0.152
Mof_C 	C 	0.34793	0.39514	0.49628	0.206
Mof_C 	C 	0.3456	0.30605	0.4269	0.134
Mof_C 	C 	0.36309	0.26916	0.46991	0.2
Mof_Cu	Cu	0.32943	0.89082	0.91514	0.787
Mof_Cu	Cu	0.26842	0.95317	0.94545	0.784
Mof_S 	S 	0.28874	0.96856	0.04268	-0.544
Mof_S 	S 	0.31692	0.83097	0.89885	-0.482
Mof_N 	N 	0.30361	0.93046	0.98003	-0.268
Mof_N 	N 	0.3278	0.90285	0.96844	-0.25
Mof_N 	N 	0.33787	0.9151	0.02615	-0.251
Mof_H 	H 	0.3469	0.914	0.0478	0.126
Mof_N 	N 	0.37465	0.86874	0.99758	-0.32
Mof_H 	H 	0.3791	0.8556	0.9786	0.123
Mof_H 	H 	0.3869	0.8654	0.0173	0.137
Mof_N 	N 	0.38157	0.80408	0.92559	-0.266
Mof_N 	N 	0.39261	0.7804	0.95339	-0.252
Mof_N 	N 	0.3334	0.78426	0.95413	-0.247
Mof_H 	H 	0.311	0.7807	0.9602	0.124
Mof_N 	N 	0.36117	0.74514	0.99779	-0.312
Mof_H 	H 	0.3808	0.7356	0.0064	0.098
Mof_H 	H 	0.3403	0.7394	0.0069	0.124
Mof_C 	C 	0.31042	0.93712	0.01428	0.145
Mof_C 	C 	0.34793	0.89514	0.99628	0.212
Mof_C 	C 	0.3456	0.80605	0.9269	0.134
Mof_C 	C 	0.36309	0.76916	0.96991	0.2
Mof_Cu	Cu	0.39082	0.08486	0.17057	0.787
Mof_Cu	Cu	0.45317	0.05455	0.23158	0.782
Mof_S 	S 	0.46856	0.95732	0.21126	-0.546
Mof_S 	S 	0.33097	0.10115	0.18308	-0.482
Mof_N 	N 	0.43046	0.01997	0.19639	-0.277
Mof_N 	N 	0.40285	0.03156	0.1722	-0.249
Mof_N 	N 	0.4151	0.97385	0.16213	-0.245
Mof_H 	H 	0.414	0.9522	0.1531	0.126
Mof_N 	N 	0.36874	0.00242	0.12535	-0.332
Mof_H 	H 	0.3556	0.0214	0.1209	0.123
Mof_H 	H 	0.3654	0.9827	0.1131	0.15
Mof_N 	N 	0.30408	0.07441	0.11843	-0.266
Mof_N 	N 	0.2804	0.04661	0.10739	-0.255
Mof_N 	N 	0.28426	0.04587	0.1666	-0.248
Mof_H 	H 	0.2807	0.0398	0.189	0.121
Mof_N 	N 	0.24514	0.00221	0.13883	-0.342
Mof_H 	H 	0.2356	0.9936	0.1192	0.116
Mof_H 	H 	0.2394	0.9931	0.1597	0.142
Mof_C 	C 	0.43712	0.98572	0.18958	0.159
Mof_C 	C 	0.39514	0.00372	0.15207	0.2
Mof_C 	C 	0.30605	0.0731	0.1544	0.133
Mof_C 	C 	0.26916	0.03009	0.13691	0.201
Mof_Cu	Cu	0.39082	0.58486	0.67057	0.787
Mof_Cu	Cu	0.45317	0.55455	0.73158	0.782
Mof_S 	S 	0.46856	0.45732	0.71126	-0.548
Mof_S 	S 	0.33097	0.60115	0.68308	-0.482
Mof_N 	N 	0.43046	0.51997	0.69639	-0.273
Mof_N 	N 	0.40285	0.53156	0.6722	-0.25
Mof_N 	N 	0.4151	0.47385	0.66213	-0.248
Mof_H 	H 	0.414	0.4522	0.6531	0.126
Mof_N 	N 	0.36874	0.50242	0.62535	-0.326
Mof_H 	H 	0.3556	0.5214	0.6209	0.123
Mof_H 	H 	0.3654	0.4827	0.6131	0.143
Mof_N 	N 	0.30408	0.57441	0.61843	-0.266
Mof_N 	N 	0.2804	0.54661	0.60739	-0.254
Mof_N 	N 	0.28426	0.54587	0.6666	-0.248
Mof_H 	H 	0.2807	0.5398	0.689	0.122
Mof_N 	N 	0.24514	0.50221	0.63883	-0.327
Mof_H 	H 	0.2356	0.4936	0.6192	0.107
Mof_H 	H 	0.2394	0.4931	0.6597	0.133
Mof_C 	C 	0.43712	0.48572	0.68958	0.152
Mof_C 	C 	0.39514	0.50372	0.65207	0.206
Mof_C 	C 	0.30605	0.5731	0.6544	0.134
Mof_C 	C 	0.26916	0.53009	0.63691	0.2
Mof_Cu	Cu	0.89082	0.08486	0.67057	0.787
Mof_Cu	Cu	0.95317	0.05455	0.73158	0.783
Mof_S 	S 	0.96856	0.95732	0.71126	-0.541
Mof_S 	S 	0.83097	0.10115	0.68308	-0.482
Mof_N 	N 	0.93046	0.01997	0.69639	-0.276
Mof_N 	N 	0.90285	0.03156	0.6722	-0.249
Mof_N 	N 	0.9151	0.97385	0.66213	-0.245
Mof_H 	H 	0.914	0.9522	0.6531	0.126
Mof_N 	N 	0.86874	0.00242	0.62535	-0.332
Mof_H 	H 	0.8556	0.0214	0.6209	0.124
Mof_H 	H 	0.8654	0.9827	0.6131	0.15
Mof_N 	N 	0.80408	0.07441	0.61843	-0.266
Mof_N 	N 	0.7804	0.04661	0.60739	-0.255
Mof_N 	N 	0.78426	0.04587	0.6666	-0.248
Mof_H 	H 	0.7807	0.0398	0.689	0.121
Mof_N 	N 	0.74514	0.00221	0.63883	-0.342
Mof_H 	H 	0.7356	0.9936	0.6192	0.116
Mof_H 	H 	0.7394	0.9931	0.6597	0.142
Mof_C 	C 	0.93712	0.98572	0.68958	0.159
Mof_C 	C 	0.89514	0.00372	0.65207	0.201
Mof_C 	C 	0.80605	0.0731	0.6544	0.133
Mof_C 	C 	0.76916	0.03009	0.63691	0.201
Mof_Cu	Cu	0.89082	0.58486	0.17057	0.787
Mof_Cu	Cu	0.95317	0.55455	0.23158	0.784
Mof_S 	S 	0.96856	0.45732	0.21126	-0.543
Mof_S 	S 	0.83097	0.60115	0.18308	-0.482
Mof_N 	N 	0.93046	0.51997	0.19639	-0.272
Mof_N 	N 	0.90285	0.53156	0.1722	-0.249
Mof_N 	N 	0.9151	0.47385	0.16213	-0.248
Mof_H 	H 	0.914	0.4522	0.1531	0.126
Mof_N 	N 	0.86874	0.50242	0.12535	-0.326
Mof_H 	H 	0.8556	0.5214	0.1209	0.123
Mof_H 	H 	0.8654	0.4827	0.1131	0.143
Mof_N 	N 	0.80408	0.57441	0.11843	-0.266
Mof_N 	N 	0.7804	0.54661	0.10739	-0.254
Mof_N 	N 	0.78426	0.54587	0.1666	-0.248
Mof_H 	H 	0.7807	0.5398	0.189	0.122
Mof_N 	N 	0.74514	0.50221	0.13883	-0.327
Mof_H 	H 	0.7356	0.4936	0.1192	0.107
Mof_H 	H 	0.7394	0.4931	0.1597	0.133
Mof_C 	C 	0.93712	0.48572	0.18958	0.152
Mof_C 	C 	0.89514	0.50372	0.15207	0.207
Mof_C 	C 	0.80605	0.5731	0.1544	0.134
Mof_C 	C 	0.76916	0.53009	0.13691	0.2
Mof_Cu	Cu	0.60918	0.08486	0.82943	0.787
Mof_Cu	Cu	0.54683	0.05455	0.76842	0.782
Mof_S 	S 	0.53144	0.95732	0.78874	-0.546
Mof_S 	S 	0.66903	0.10115	0.81692	-0.482
Mof_N 	N 	0.56954	0.01997	0.80361	-0.277
Mof_N 	N 	0.59715	0.03156	0.8278	-0.249
Mof_N 	N 	0.5849	0.97385	0.83787	-0.246
Mof_H 	H 	0.586	0.9522	0.8469	0.126
Mof_N 	N 	0.63126	0.00242	0.87465	-0.332
Mof_H 	H 	0.6444	0.0214	0.8791	0.124
Mof_H 	H 	0.6346	0.9827	0.8869	0.15
Mof_N 	N 	0.69592	0.07441	0.88157	-0.266
Mof_N 	N 	0.7196	0.04661	0.89261	-0.255
Mof_N 	N 	0.71574	0.04587	0.8334	-0.248
Mof_H 	H 	0.7193	0.0398	0.811	0.121
Mof_N 	N 	0.75486	0.00221	0.86117	-0.341
Mof_H 	H 	0.7644	0.9936	0.8808	0.116
Mof_H 	H 	0.7606	0.9931	0.8403	0.142
Mof_C 	C 	0.56288	0.98572	0.81042	0.159
Mof_C 	C 	0.60486	0.00372	0.84793	0.201
Mof_C 	C 	0.69395	0.0731	0.8456	0.133
Mof_C 	C 	0.73084	0.03009	0.86309	0.201
Mof_Cu	Cu	0.60918	0.58486	0.32943	0.787
Mof_Cu	Cu	0.54683	0.55455	0.26842	0.782
Mof_S 	S 	0.53144	0.45732	0.28874	-0.548
Mof_S 	S 	0.66903	0.60115	0.31692	-0.482
Mof_N 	N 	0.56954	0.51997	0.30361	-0.273
Mof_N 	N 	0.59715	0.53156	0.3278	-0.25
Mof_N 	N 	0.5849	0.47385	0.33787	-0.248
Mof_H 	H 	0.586	0.4522	0.3469	0.126
Mof_N 	N 	0.63126	0.50242	0.37465	-0.326
Mof_H 	H 	0.6444	0.5214	0.3791	0.123
Mof_H 	H 	0.6346	0.4827	0.3869	0.143
Mof_N 	N 	0.69592	0.57441	0.38157	-0.266
Mof_N 	N 	0.7196	0.54661	0.39261	-0.254
Mof_N 	N 	0.71574	0.54587	0.3334	-0.248
Mof_H 	H 	0.7193	0.5398	0.311	0.122
Mof_N 	N 	0.75486	0.50221	0.36117	-0.327
Mof_H 	H 	0.7644	0.4936	0.3808	0.107
Mof_H 	H 	0.7606	0.4931	0.3403	0.133
Mof_C 	C 	0.56288	0.48572	0.31042	0.152
Mof_C 	C 	0.60486	0.50372	0.34793	0.206
Mof_C 	C 	0.69395	0.5731	0.3456	0.134
Mof_C 	C 	0.73084	0.53009	0.36309	0.2
Mof_Cu	Cu	0.10918	0.08486	0.32943	0.787
Mof_Cu	Cu	0.04683	0.05455	0.26842	0.781
Mof_S 	S 	0.03144	0.95732	0.28874	-0.55
Mof_S 	S 	0.16903	0.10115	0.31692	-0.482
Mof_N 	N 	0.06954	0.01997	0.30361	-0.277
Mof_N 	N 	0.09715	0.03156	0.3278	-0.249
Mof_N 	N 	0.0849	0.97385	0.33787	-0.246
Mof_H 	H 	0.086	0.9522	0.3469	0.126
Mof_N 	N 	0.13126	0.00242	0.37465	-0.332
Mof_H 	H 	0.1444	0.0214	0.3791	0.124
Mof_H 	H 	0.1346	0.9827	0.3869	0.15
Mof_N 	N 	0.19592	0.07441	0.38157	-0.266
Mof_N 	N 	0.2196	0.04661	0.39261	-0.255
Mof_N 	N 	0.21574	0.04587	0.3334	-0.248
Mof_H 	H 	0.2193	0.0398	0.311	0.121
Mof_N 	N 	0.25486	0.00221	0.36117	-0.342
Mof_H 	H 	0.2644	0.9936	0.3808	0.116
Mof_H 	H 	0.2606	0.9931	0.3403	0.142
Mof_C 	C 	0.06288	0.98572	0.31042	0.159
Mof_C 	C 	0.10486	0.00372	0.34793	0.2
Mof_C 	C 	0.19395	0.0731	0.3456	0.133
Mof_C 	C 	0.23084	0.03009	0.36309	0.201
Mof_Cu	Cu	0.10918	0.58486	0.82943	0.787
Mof_Cu	Cu	0.04683	0.55455	0.76842	0.781
Mof_S 	S 	0.03144	0.45732	0.78874	-0.552
Mof_S 	S 	0.16903	0.60115	0.81692	-0.482
Mof_N 	N 	0.06954	0.51997	0.80361	-0.273
Mof_N 	N 	0.09715	0.53156	0.8278	-0.25
Mof_N 	N 	0.0849	0.47385	0.83787	-0.248
Mof_H 	H 	0.086	0.4522	0.8469	0.126
Mof_N 	N 	0.13126	0.50242	0.87465	-0.326
Mof_H 	H 	0.1444	0.5214	0.8791	0.123
Mof_H 	H 	0.1346	0.4827	0.8869	0.143
Mof_N 	N 	0.19592	0.57441	0.88157	-0.266
Mof_N 	N 	0.2196	0.54661	0.89261	-0.254
Mof_N 	N 	0.21574	0.54587	0.8334	-0.248
Mof_H 	H 	0.2193	0.5398	0.811	0.122
Mof_N 	N 	0.25486	0.50221	0.86117	-0.327
Mof_H 	H 	0.2644	0.4936	0.8808	0.107
Mof_H 	H 	0.2606	0.4931	0.8403	0.133
Mof_C 	C 	0.06288	0.48572	0.81042	0.152
Mof_C 	C 	0.10486	0.50372	0.84793	0.206
Mof_C 	C 	0.19395	0.5731	0.8456	0.134
Mof_C 	C 	0.23084	0.53009	0.86309	0.2
Mof_Cu	Cu	0.60918	0.91514	0.17057	0.787
Mof_Cu	Cu	0.54683	0.94545	0.23158	0.783
Mof_S 	S 	0.53144	0.04268	0.21126	-0.549
Mof_S 	S 	0.66903	0.89885	0.18308	-0.482
Mof_N 	N 	0.56954	0.98003	0.19639	-0.268
Mof_N 	N 	0.59715	0.96844	0.1722	-0.25
Mof_N 	N 	0.5849	0.02615	0.16213	-0.251
Mof_H 	H 	0.586	0.0478	0.1531	0.125
Mof_N 	N 	0.63126	0.99758	0.12535	-0.32
Mof_H 	H 	0.6444	0.9786	0.1209	0.123
Mof_H 	H 	0.6346	0.0173	0.1131	0.136
Mof_N 	N 	0.69592	0.92559	0.11843	-0.266
Mof_N 	N 	0.7196	0.95339	0.10739	-0.252
Mof_N 	N 	0.71574	0.95413	0.1666	-0.247
Mof_H 	H 	0.7193	0.9602	0.189	0.124
Mof_N 	N 	0.75486	0.99779	0.13883	-0.312
Mof_H 	H 	0.7644	0.0064	0.1192	0.098
Mof_H 	H 	0.7606	0.0069	0.1597	0.124
Mof_C 	C 	0.56288	0.01428	0.18958	0.145
Mof_C 	C 	0.60486	0.99628	0.15207	0.212
Mof_C 	C 	0.69395	0.9269	0.1544	0.134
Mof_C 	C 	0.73084	0.96991	0.13691	0.2
Mof_Cu	Cu	0.60918	0.41514	0.67057	0.787
Mof_Cu	Cu	0.54683	0.44545	0.73158	0.782
Mof_S 	S 	0.53144	0.54268	0.71126	-0.548
Mof_S 	S 	0.66903	0.39885	0.68308	-0.482
Mof_N 	N 	0.56954	0.48003	0.69639	-0.273
Mof_N 	N 	0.59715	0.46844	0.6722	-0.25
Mof_N 	N 	0.5849	0.52615	0.66213	-0.248
Mof_H 	H 	0.586	0.5478	0.6531	0.126
Mof_N 	N 	0.63126	0.49758	0.62535	-0.326
Mof_H 	H 	0.6444	0.4786	0.6209	0.123
Mof_H 	H 	0.6346	0.5173	0.6131	0.143
Mof_N 	N 	0.69592	0.42559	0.61843	-0.266
Mof_N 	N 	0.7196	0.45339	0.60739	-0.254
Mof_N 	N 	0.71574	0.45413	0.6666	-0.248
Mof_H 	H 	0.7193	0.4602	0.689	0.122
Mof_N 	N 	0.75486	0.49779	0.63883	-0.327
Mof_H 	H 	0.7644	0.5064	0.6192	0.107
Mof_H 	H 	0.7606	0.5069	0.6597	0.133
Mof_C 	C 	0.56288	0.51428	0.68958	0.152
Mof_C 	C 	0.60486	0.49628	0.65207	0.206
Mof_C 	C 	0.69395	0.4269	0.6544	0.134
Mof_C 	C 	0.73084	0.46991	0.63691	0.2
Mof_Cu	Cu	0.10918	0.91514	0.67057	0.787
Mof_Cu	Cu	0.04683	0.94545	0.73158	0.782
Mof_S 	S 	0.03144	0.04268	0.71126	-0.553
Mof_S 	S 	0.16903	0.89885	0.68308	-0.482
Mof_N 	N 	0.06954	0.98003	0.69639	-0.269
Mof_N 	N 	0.09715	0.96844	0.6722	-0.25
Mof_N 	N 	0.0849	0.02615	0.66213	-0.251
Mof_H 	H 	0.086	0.0478	0.6531	0.125
Mof_N 	N 	0.13126	0.99758	0.62535	-0.32
Mof_H 	H 	0.1444	0.9786	0.6209	0.123
Mof_H 	H 	0.1346	0.0173	0.6131	0.136
Mof_N 	N 	0.19592	0.92559	0.61843	-0.266
Mof_N 	N 	0.2196	0.95339	0.60739	-0.252
Mof_N 	N 	0.21574	0.95413	0.6666	-0.247
Mof_H 	H 	0.2193	0.9602	0.689	0.124
Mof_N 	N 	0.25486	0.99779	0.63883	-0.312
Mof_H 	H 	0.2644	0.0064	0.6192	0.098
Mof_H 	H 	0.2606	0.0069	0.6597	0.124
Mof_C 	C 	0.06288	0.01428	0.68958	0.145
Mof_C 	C 	0.10486	0.99628	0.65207	0.212
Mof_C 	C 	0.19395	0.9269	0.6544	0.134
Mof_C 	C 	0.23084	0.96991	0.63691	0.2
Mof_Cu	Cu	0.10918	0.41514	0.17057	0.787
Mof_Cu	Cu	0.04683	0.44545	0.23158	0.781
Mof_S 	S 	0.03144	0.54268	0.21126	-0.552
Mof_S 	S 	0.16903	0.39885	0.18308	-0.482
Mof_N 	N 	0.06954	0.48003	0.19639	-0.273
Mof_N 	N 	0.09715	0.46844	0.1722	-0.25
Mof_N 	N 	0.0849	0.52615	0.16213	-0.248
Mof_H 	H 	0.086	0.5478	0.1531	0.125
Mof_N 	N 	0.13126	0.49758	0.12535	-0.326
Mof_H 	H 	0.1444	0.4786	0.1209	0.123
Mof_H 	H 	0.1346	0.5173	0.1131	0.143
Mof_N 	N 	0.19592	0.42559	0.11843	-0.266
Mof_N 	N 	0.2196	0.45339	0.10739	-0.254
Mof_N 	N 	0.21574	0.45413	0.1666	-0.248
Mof_H 	H 	0.2193	0.4602	0.189	0.122
Mof_N 	N 	0.25486	0.49779	0.13883	-0.327
Mof_H 	H 	0.2644	0.5064	0.1192	0.107
Mof_H 	H 	0.2606	0.5069	0.1597	0.133
Mof_C 	C 	0.06288	0.51428	0.18958	0.152
Mof_C 	C 	0.10486	0.49628	0.15207	0.206
Mof_C 	C 	0.19395	0.4269	0.1544	0.134
Mof_C 	C 	0.23084	0.46991	0.13691	0.2
Mof_Cu	Cu	0.39082	0.91514	0.82943	0.787
Mof_Cu	Cu	0.45317	0.94545	0.76842	0.783
Mof_S 	S 	0.46856	0.04268	0.78874	-0.549
Mof_S 	S 	0.33097	0.89885	0.81692	-0.482
Mof_N 	N 	0.43046	0.98003	0.80361	-0.268
Mof_N 	N 	0.40285	0.96844	0.8278	-0.25
Mof_N 	N 	0.4151	0.02615	0.83787	-0.251
Mof_H 	H 	0.414	0.0478	0.8469	0.126
Mof_N 	N 	0.36874	0.99758	0.87465	-0.32
Mof_H 	H 	0.3556	0.9786	0.8791	0.123
Mof_H 	H 	0.3654	0.0173	0.8869	0.137
Mof_N 	N 	0.30408	0.92559	0.88157	-0.266
Mof_N 	N 	0.2804	0.95339	0.89261	-0.252
Mof_N 	N 	0.28426	0.95413	0.8334	-0.247
Mof_H 	H 	0.2807	0.9602	0.811	0.124
Mof_N 	N 	0.24514	0.99779	0.86117	-0.313
Mof_H 	H 	0.2356	0.0064	0.8808	0.098
Mof_H 	H 	0.2394	0.0069	0.8403	0.124
Mof_C 	C 	0.43712	0.01428	0.81042	0.145
Mof_C 	C 	0.39514	0.99628	0.84793	0.212
Mof_C 	C 	0.30605	0.9269	0.8456	0.134
Mof_C 	C 	0.26916	0.96991	0.86309	0.2
Mof_Cu	Cu	0.39082	0.41514	0.32943	0.787
Mof_Cu	Cu	0.45317	0.44545	0.26842	0.782
Mof_S 	S 	0.46856	0.54268	0.28874	-0.548
Mof_S 	S 	0.33097	0.39885	0.31692	-0.482
Mof_N 	N 	0.43046	0.48003	0.30361	-0.273
Mof_N 	N 	0.40285	0.46844	0.3278	-0.25
Mof_N 	N 	0.4151	0.52615	0.33787	-0.248
Mof_H 	H 	0.414	0.5478	0.3469	0.126
Mof_N 	N 	0.36874	0.49758	0.37465	-0.326
Mof_H 	H 	0.3556	0.4786	0.3791	0.123
Mof_H 	H 	0.3654	0.5173	0.3869	0.143
Mof_N 	N 	0.30408	0.42559	0.38157	-0.266
Mof_N 	N 	0.2804	0.45339	0.39261	-0.254
Mof_N 	N 	0.28426	0.45413	0.3334	-0.248
Mof_H 	H 	0.2807	0.4602	0.311	0.122
Mof_N 	N 	0.24514	0.49779	0.36117	-0.327
Mof_H 	H 	0.2356	0.5064	0.3808	0.107
Mof_H 	H 	0.2394	0.5069	0.3403	0.133
Mof_C 	C 	0.43712	0.51428	0.31042	0.152
Mof_C 	C 	0.39514	0.49628	0.34793	0.206
Mof_C 	C 	0.30605	0.4269	0.3456	0.134
Mof_C 	C 	0.26916	0.46991	0.36309	0.2
Mof_Cu	Cu	0.89082	0.91514	0.32943	0.787
Mof_Cu	Cu	0.95317	0.94545	0.26842	0.784
Mof_S 	S 	0.96856	0.04268	0.28874	-0.544
Mof_S 	S 	0.83097	0.89885	0.31692	-0.482
Mof_N 	N 	0.93046	0.98003	0.30361	-0.268
Mof_N 	N 	0.90285	0.96844	0.3278	-0.25
Mof_N 	N 	0.9151	0.02615	0.33787	-0.251
Mof_H 	H 	0.914	0.0478	0.3469	0.126
Mof_N 	N 	0.86874	0.99758	0.37465	-0.32
Mof_H 	H 	0.8556	0.9786	0.3791	0.123
Mof_H 	H 	0.8654	0.0173	0.3869	0.137
Mof_N 	N 	0.80408	0.92559	0.38157	-0.266
Mof_N 	N 	0.7804	0.95339	0.39261	-0.252
Mof_N 	N 	0.78426	0.95413	0.3334	-0.247
Mof_H 	H 	0.7807	0.9602	0.311	0.124
Mof_N 	N 	0.74514	0.99779	0.36117	-0.312
Mof_H 	H 	0.7356	0.0064	0.3808	0.098
Mof_H 	H 	0.7394	0.0069	0.3403	0.124
Mof_C 	C 	0.93712	0.01428	0.31042	0.145
Mof_C 	C 	0.89514	0.99628	0.34793	0.212
Mof_C 	C 	0.80605	0.9269	0.3456	0.134
Mof_C 	C 	0.76916	0.96991	0.36309	0.2
Mof_Cu	Cu	0.89082	0.41514	0.82943	0.787
Mof_Cu	Cu	0.95317	0.44545	0.76842	0.784
Mof_S 	S 	0.96856	0.54268	0.78874	-0.543
Mof_S 	S 	0.83097	0.39885	0.81692	-0.482
Mof_N 	N 	0.93046	0.48003	0.80361	-0.272
Mof_N 	N 	0.90285	0.46844	0.8278	-0.249
Mof_N 	N 	0.9151	0.52615	0.83787	-0.248
Mof_H 	H 	0.914	0.5478	0.8469	0.126
Mof_N 	N 	0.86874	0.49758	0.87465	-0.326
Mof_H 	H 	0.8556	0.4786	0.8791	0.124
Mof_H 	H 	0.8654	0.5173	0.8869	0.144
Mof_N 	N 	0.80408	0.42559	0.88157	-0.266
Mof_N 	N 	0.7804	0.45339	0.89261	-0.254
Mof_N 	N 	0.78426	0.45413	0.8334	-0.248
Mof_H 	H 	0.7807	0.4602	0.811	0.122
Mof_N 	N 	0.74514	0.49779	0.86117	-0.327
Mof_H 	H 	0.7356	0.5064	0.8808	0.107
Mof_H 	H 	0.7394	0.5069	0.8403	0.133
Mof_C 	C 	0.93712	0.51428	0.81042	0.152
Mof_C 	C 	0.89514	0.49628	0.84793	0.207
Mof_C 	C 	0.80605	0.4269	0.8456	0.134
Mof_C 	C 	0.76916	0.46991	0.86309	0.2
Mof_Cu	Cu	0.08486	0.17057	0.39082	0.787
Mof_Cu	Cu	0.05455	0.23158	0.45317	0.782
Mof_S 	S 	0.95732	0.21126	0.46856	-0.546
Mof_S 	S 	0.10115	0.18308	0.33097	-0.482
Mof_N 	N 	0.01997	0.19639	0.43046	-0.277
Mof_N 	N 	0.03156	0.1722	0.40285	-0.249
Mof_N 	N 	0.97385	0.16213	0.4151	-0.245
Mof_H 	H 	0.9522	0.1531	0.414	0.126
Mof_N 	N 	0.00242	0.12535	0.36874	-0.332
Mof_H 	H 	0.0214	0.1209	0.3556	0.123
Mof_H 	H 	0.9827	0.1131	0.3654	0.15
Mof_N 	N 	0.07441	0.11843	0.30408	-0.266
Mof_N 	N 	0.04661	0.10739	0.2804	-0.255
Mof_N 	N 	0.04587	0.1666	0.28426	-0.248
Mof_H 	H 	0.0398	0.189	0.2807	0.121
Mof_N 	N 	0.00221	0.13883	0.24514	-0.342
Mof_H 	H 	0.9936	0.1192	0.2356	0.116
Mof_H 	H 	0.9931	0.1597	0.2394	0.142
Mof_C 	C 	0.98572	0.18958	0.43712	0.159
Mof_C 	C 	0.00372	0.15207	0.39514	0.2
Mof_C 	C 	0.0731	0.1544	0.30605	0.133
Mof_C 	C 	0.03009	0.13691	0.26916	0.201
Mof_Cu	Cu	0.08486	0.67057	0.89082	0.787
Mof_Cu	Cu	0.05455	0.73158	0.95317	0.783
Mof_S 	S 	0.95732	0.71126	0.96856	-0.541
Mof_S 	S 	0.10115	0.68308	0.83097	-0.482
Mof_N 	N 	0.01997	0.69639	0.93046	-0.276
Mof_N 	N 	0.03156	0.6722	0.90285	-0.249
Mof_N 	N 	0.97385	0.66213	0.9151	-0.245
Mof_H 	H 	0.9522	0.6531	0.914	0.126
Mof_N 	N 	0.00242	0.62535	0.86874	-0.332
Mof_H 	H 	0.0214	0.6209	0.8556	0.124
Mof_H 	H 	0.9827	0.6131	0.8654	0.15
Mof_N 	N 	0.07441	0.61843	0.80408	-0.266
Mof_N 	N 	0.04661	0.60739	0.7804	-0.255
Mof_N 	N 	0.04587	0.6666	0.78426	-0.248
Mof_H 	H 	0.0398	0.689	0.7807	0.121
Mof_N 	N 	0.00221	0.63883	0.74514	-0.342
Mof_H 	H 	0.9936	0.6192	0.7356	0.116
Mof_H 	H 	0.9931	0.6597	0.7394	0.142
Mof_C 	C 	0.98572	0.68958	0.93712	0.159
Mof_C 	C 	0.00372	0.65207	0.89514	0.201
Mof_C 	C 	0.0731	0.6544	0.80605	0.133
Mof_C 	C 	0.03009	0.63691	0.76916	0.201
Mof_Cu	Cu	0.58486	0.17057	0.89082	0.787
Mof_Cu	Cu	0.55455	0.23158	0.95317	0.784
Mof_S 	S 	0.45732	0.21126	0.96856	-0.543
Mof_S 	S 	0.60115	0.18308	0.83097	-0.482
Mof_N 	N 	0.51997	0.19639	0.93046	-0.272
Mof_N 	N 	0.53156	0.1722	0.90285	-0.249
Mof_N 	N 	0.47385	0.16213	0.9151	-0.248
Mof_H 	H 	0.4522	0.1531	0.914	0.126
Mof_N 	N 	0.50242	0.12535	0.86874	-0.326
Mof_H 	H 	0.5214	0.1209	0.8556	0.123
Mof_H 	H 	0.4827	0.1131	0.8654	0.143
Mof_N 	N 	0.57441	0.11843	0.80408	-0.266
Mof_N 	N 	0.54661	0.10739	0.7804	-0.254
Mof_N 	N 	0.54587	0.1666	0.78426	-0.248
Mof_H 	H 	0.5398	0.189	0.7807	0.122
Mof_N 	N 	0.50221	0.13883	0.74514	-0.327
Mof_H 	H 	0.4936	0.1192	0.7356	0.107
Mof_H 	H 	0.4931	0.1597	0.7394	0.133
Mof_C 	C 	0.48572	0.18958	0.93712	0.152
Mof_C 	C 	0.50372	0.15207	0.89514	0.207
Mof_C 	C 	0.5731	0.1544	0.80605	0.134
Mof_C 	C 	0.53009	0.13691	0.76916	0.2
Mof_Cu	Cu	0.58486	0.67057	0.39082	0.787
Mof_Cu	Cu	0.55455	0.73158	0.45317	0.782
Mof_S 	S 	0.45732	0.71126	0.46856	-0.548
Mof_S 	S 	0.60115	0.68308	0.33097	-0.482
Mof_N 	N 	0.51997	0.69639	0.43046	-0.273
Mof_N 	N 	0.53156	0.6722	0.40285	-0.25
Mof_N 	N 	0.47385	0.66213	0.4151	-0.248
Mof_H 	H 	0.4522	0.6531	0.414	0.126
Mof_N 	N 	0.50242	0.62535	0.36874	-0.326
Mof_H 	H 	0.5214	0.6209	0.3556	0.123
Mof_H 	H 	0.4827	0.6131	0.3654	0.143
Mof_N 	N 	0.57441	0.61843	0.30408	-0.266
Mof_N 	N 	0.54661	0.60739	0.2804	-0.254
Mof_N 	N 	0.54587	0.6666	0.28426	-0.248
Mof_H 	H 	0.5398	0.689	0.2807	0.122
Mof_N 	N 	0.50221	0.63883	0.24514	-0.327
Mof_H 	H 	0.4936	0.6192	0.2356	0.107
Mof_H 	H 	0.4931	0.6597	0.2394	0.133
Mof_C 	C 	0.48572	0.68958	0.43712	0.152
Mof_C 	C 	0.50372	0.65207	0.39514	0.206
Mof_C 	C 	0.5731	0.6544	0.30605	0.134
Mof_C 	C 	0.53009	0.63691	0.26916	0.2
Mof_Cu	Cu	0.08486	0.82943	0.60918	0.787
Mof_Cu	Cu	0.05455	0.76842	0.54683	0.782
Mof_S 	S 	0.95732	0.78874	0.53144	-0.546
Mof_S 	S 	0.10115	0.81692	0.66903	-0.482
Mof_N 	N 	0.01997	0.80361	0.56954	-0.277
Mof_N 	N 	0.03156	0.8278	0.59715	-0.249
Mof_N 	N 	0.97385	0.83787	0.5849	-0.246
Mof_H 	H 	0.9522	0.8469	0.586	0.126
Mof_N 	N 	0.00242	0.87465	0.63126	-0.332
Mof_H 	H 	0.0214	0.8791	0.6444	0.124
Mof_H 	H 	0.9827	0.8869	0.6346	0.15
Mof_N 	N 	0.07441	0.88157	0.69592	-0.266
Mof_N 	N 	0.04661	0.89261	0.7196	-0.255
Mof_N 	N 	0.04587	0.8334	0.71574	-0.248
Mof_H 	H 	0.0398	0.811	0.7193	0.121
Mof_N 	N 	0.00221	0.86117	0.75486	-0.341
Mof_H 	H 	0.9936	0.8808	0.7644	0.116
Mof_H 	H 	0.9931	0.8403	0.7606	0.142
Mof_C 	C 	0.98572	0.81042	0.56288	0.159
Mof_C 	C 	0.00372	0.84793	0.60486	0.201
Mof_C 	C 	0.0731	0.8456	0.69395	0.133
Mof_C 	C 	0.03009	0.86309	0.73084	0.201
Mof_Cu	Cu	0.08486	0.32943	0.10918	0.787
Mof_Cu	Cu	0.05455	0.26842	0.04683	0.781
Mof_S 	S 	0.95732	0.28874	0.03144	-0.55
Mof_S 	S 	0.10115	0.31692	0.16903	-0.482
Mof_N 	N 	0.01997	0.30361	0.06954	-0.277
Mof_N 	N 	0.03156	0.3278	0.09715	-0.249
Mof_N 	N 	0.97385	0.33787	0.0849	-0.246
Mof_H 	H 	0.9522	0.3469	0.086	0.126
Mof_N 	N 	0.00242	0.37465	0.13126	-0.332
Mof_H 	H 	0.0214	0.3791	0.1444	0.124
Mof_H 	H 	0.9827	0.3869	0.1346	0.15
Mof_N 	N 	0.07441	0.38157	0.19592	-0.266
Mof_N 	N 	0.04661	0.39261	0.2196	-0.255
Mof_N 	N 	0.04587	0.3334	0.21574	-0.248
Mof_H 	H 	0.0398	0.311	0.2193	0.121
Mof_N 	N 	0.00221	0.36117	0.25486	-0.342
Mof_H 	H 	0.9936	0.3808	0.2644	0.116
Mof_H 	H 	0.9931	0.3403	0.2606	0.142
Mof_C 	C 	0.98572	0.31042	0.06288	0.159
Mof_C 	C 	0.00372	0.34793	0.10486	0.2
Mof_C 	C 	0.0731	0.3456	0.19395	0.133
Mof_C 	C 	0.03009	0.36309	0.23084	0.201
Mof_Cu	Cu	0.58486	0.82943	0.10918	0.787
Mof_Cu	Cu	0.55455	0.76842	0.04683	0.781
Mof_S 	S 	0.45732	0.78874	0.03144	-0.552
Mof_S 	S 	0.60115	0.81692	0.16903	-0.482
Mof_N 	N 	0.51997	0.80361	0.06954	-0.273
Mof_N 	N 	0.53156	0.8278	0.09715	-0.25
Mof_N 	N 	0.47385	0.83787	0.0849	-0.248
Mof_H 	H 	0.4522	0.8469	0.086	0.126
Mof_N 	N 	0.50242	0.87465	0.13126	-0.326
Mof_H 	H 	0.5214	0.8791	0.1444	0.123
Mof_H 	H 	0.4827	0.8869	0.1346	0.143
Mof_N 	N 	0.57441	0.88157	0.19592	-0.266
Mof_N 	N 	0.54661	0.89261	0.2196	-0.254
Mof_N 	N 	0.54587	0.8334	0.21574	-0.248
Mof_H 	H 	0.5398	0.811	0.2193	0.122
Mof_N 	N 	0.50221	0.86117	0.25486	-0.327
Mof_H 	H 	0.4936	0.8808	0.2644	0.107
Mof_H 	H 	0.4931	0.8403	0.2606	0.133
Mof_C 	C 	0.48572	0.81042	0.06288	0.152
Mof_C 	C 	0.50372	0.84793	0.10486	0.206
Mof_C 	C 	0.5731	0.8456	0.19395	0.134
Mof_C 	C 	0.53009	0.86309	0.23084	0.2
Mof_Cu	Cu	0.58486	0.32943	0.60918	0.787
Mof_Cu	Cu	0.55455	0.26842	0.54683	0.782
Mof_S 	S 	0.45732	0.28874	0.53144	-0.548
Mof_S 	S 	0.60115	0.31692	0.66903	-0.482
Mof_N 	N 	0.51997	0.30361	0.56954	-0.273
Mof_N 	N 	0.53156	0.3278	0.59715	-0.25
Mof_N 	N 	0.47385	0.33787	0.5849	-0.248
Mof_H 	H 	0.4522	0.3469	0.586	0.126
Mof_N 	N 	0.50242	0.37465	0.63126	-0.326
Mof_H 	H 	0.5214	0.3791	0.6444	0.123
Mof_H 	H 	0.4827	0.3869	0.6346	0.143
Mof_N 	N 	0.57441	0.38157	0.69592	-0.266
Mof_N 	N 	0.54661	0.39261	0.7196	-0.254
Mof_N 	N 	0.54587	0.3334	0.71574	-0.248
Mof_H 	H 	0.5398	0.311	0.7193	0.122
Mof_N 	N 	0.50221	0.36117	0.75486	-0.327
Mof_H 	H 	0.4936	0.3808	0.7644	0.107
Mof_H 	H 	0.4931	0.3403	0.7606	0.133
Mof_C 	C 	0.48572	0.31042	0.56288	0.152
Mof_C 	C 	0.50372	0.34793	0.60486	0.206
Mof_C 	C 	0.5731	0.3456	0.69395	0.134
Mof_C 	C 	0.53009	0.36309	0.73084	0.2
Mof_Cu	Cu	0.91514	0.17057	0.60918	0.787
Mof_Cu	Cu	0.94545	0.23158	0.54683	0.783
Mof_S 	S 	0.04268	0.21126	0.53144	-0.549
Mof_S 	S 	0.89885	0.18308	0.66903	-0.482
Mof_N 	N 	0.98003	0.19639	0.56954	-0.268
Mof_N 	N 	0.96844	0.1722	0.59715	-0.25
Mof_N 	N 	0.02615	0.16213	0.5849	-0.251
Mof_H 	H 	0.0478	0.1531	0.586	0.125
Mof_N 	N 	0.99758	0.12535	0.63126	-0.32
Mof_H 	H 	0.9786	0.1209	0.6444	0.123
Mof_H 	H 	0.0173	0.1131	0.6346	0.136
Mof_N 	N 	0.92559	0.11843	0.69592	-0.266
Mof_N 	N 	0.95339	0.10739	0.7196	-0.252
Mof_N 	N 	0.95413	0.1666	0.71574	-0.247
Mof_H 	H 	0.9602	0.189	0.7193	0.124
Mof_N 	N 	0.99779	0.13883	0.75486	-0.312
Mof_H 	H 	0.0064	0.1192	0.7644	0.098
Mof_H 	H 	0.0069	0.1597	0.7606	0.124
Mof_C 	C 	0.01428	0.18958	0.56288	0.145
Mof_C 	C 	0.99628	0.15207	0.60486	0.212
Mof_C 	C 	0.9269	0.1544	0.69395	0.134
Mof_C 	C 	0.96991	0.13691	0.73084	0.2
Mof_Cu	Cu	0.91514	0.67057	0.10918	0.787
Mof_Cu	Cu	0.94545	0.73158	0.04683	0.782
Mof_S 	S 	0.04268	0.71126	0.03144	-0.553
Mof_S 	S 	0.89885	0.68308	0.16903	-0.482
Mof_N 	N 	0.98003	0.69639	0.06954	-0.269
Mof_N 	N 	0.96844	0.6722	0.09715	-0.25
Mof_N 	N 	0.02615	0.66213	0.0849	-0.251
Mof_H 	H 	0.0478	0.6531	0.086	0.125
Mof_N 	N 	0.99758	0.62535	0.13126	-0.32
Mof_H 	H 	0.9786	0.6209	0.1444	0.123
Mof_H 	H 	0.0173	0.6131	0.1346	0.136
Mof_N 	N 	0.92559	0.61843	0.19592	-0.266
Mof_N 	N 	0.95339	0.60739	0.2196	-0.252
Mof_N 	N 	0.95413	0.6666	0.21574	-0.247
Mof_H 	H 	0.9602	0.689	0.2193	0.124
Mof_N 	N 	0.99779	0.63883	0.25486	-0.312
Mof_H 	H 	0.0064	0.6192	0.2644	0.098
Mof_H 	H 	0.0069	0.6597	0.2606	0.124
Mof_C 	C 	0.01428	0.68958	0.06288	0.145
Mof_C 	C 	0.99628	0.65207	0.10486	0.212
Mof_C 	C 	0.9269	0.6544	0.19395	0.134
Mof_C 	C 	0.96991	0.63691	0.23084	0.2
Mof_Cu	Cu	0.41514	0.17057	0.10918	0.787
Mof_Cu	Cu	0.44545	0.23158	0.04683	0.781
Mof_S 	S 	0.54268	0.21126	0.03144	-0.552
Mof_S 	S 	0.39885	0.18308	0.16903	-0.482
Mof_N 	N 	0.48003	0.19639	0.06954	-0.273
Mof_N 	N 	0.46844	0.1722	0.09715	-0.25
Mof_N 	N 	0.52615	0.16213	0.0849	-0.248
Mof_H 	H 	0.5478	0.1531	0.086	0.125
Mof_N 	N 	0.49758	0.12535	0.13126	-0.326
Mof_H 	H 	0.4786	0.1209	0.1444	0.123
Mof_H 	H 	0.5173	0.1131	0.1346	0.143
Mof_N 	N 	0.42559	0.11843	0.19592	-0.266
Mof_N 	N 	0.45339	0.10739	0.2196	-0.254
Mof_N 	N 	0.45413	0.1666	0.21574	-0.248
Mof_H 	H 	0.4602	0.189	0.2193	0.122
Mof_N 	N 	0.49779	0.13883	0.25486	-0.327
Mof_H 	H 	0.5064	0.1192	0.2644	0.107
Mof_H 	H 	0.5069	0.1597	0.2606	0.133
Mof_C 	C 	0.51428	0.18958	0.06288	0.152
Mof_C 	C 	0.49628	0.15207	0.10486	0.206
Mof_C 	C 	0.4269	0.1544	0.19395	0.134
Mof_C 	C 	0.46991	0.13691	0.23084	0.2
Mof_Cu	Cu	0.41514	0.67057	0.60918	0.787
Mof_Cu	Cu	0.44545	0.73158	0.54683	0.782
Mof_S 	S 	0.54268	0.71126	0.53144	-0.548
Mof_S 	S 	0.39885	0.68308	0.66903	-0.482
Mof_N 	N 	0.48003	0.69639	0.56954	-0.273
Mof_N 	N 	0.46844	0.6722	0.59715	-0.25
Mof_N 	N 	0.52615	0.66213	0.5849	-0.248
Mof_H 	H 	0.5478	0.6531	0.586	0.126
Mof_N 	N 	0.49758	0.62535	0.63126	-0.326
Mof_H 	H 	0.4786	0.6209	0.6444	0.123
Mof_H 	H 	0.5173	0.6131	0.6346	0.143
Mof_N 	N 	0.42559	0.61843	0.69592	-0.266
Mof_N 	N 	0.45339	0.60739	0.7196	-0.254
Mof_N 	N 	0.45413	0.6666	0.71574	-0.248
Mof_H 	H 	0.4602	0.689	0.7193	0.122
Mof_N 	N 	0.49779	0.63883	0.75486	-0.327
Mof_H 	H 	0.5064	0.6192	0.7644	0.107
Mof_H 	H 	0.5069	0.6597	0.7606	0.133
Mof_C 	C 	0.51428	0.68958	0.56288	0.152
Mof_C 	C 	0.49628	0.65207	0.60486	0.206
Mof_C 	C 	0.4269	0.6544	0.69395	0.134
Mof_C 	C 	0.46991	0.63691	0.73084	0.2
Mof_Cu	Cu	0.91514	0.82943	0.39082	0.787
Mof_Cu	Cu	0.94545	0.76842	0.45317	0.783
Mof_S 	S 	0.04268	0.78874	0.46856	-0.549
Mof_S 	S 	0.89885	0.81692	0.33097	-0.482
Mof_N 	N 	0.98003	0.80361	0.43046	-0.268
Mof_N 	N 	0.96844	0.8278	0.40285	-0.25
Mof_N 	N 	0.02615	0.83787	0.4151	-0.251
Mof_H 	H 	0.0478	0.8469	0.414	0.126
Mof_N 	N 	0.99758	0.87465	0.36874	-0.32
Mof_H 	H 	0.9786	0.8791	0.3556	0.123
Mof_H 	H 	0.0173	0.8869	0.3654	0.137
Mof_N 	N 	0.92559	0.88157	0.30408	-0.266
Mof_N 	N 	0.95339	0.89261	0.2804	-0.252
Mof_N 	N 	0.95413	0.8334	0.28426	-0.247
Mof_H 	H 	0.9602	0.811	0.2807	0.124
Mof_N 	N 	0.99779	0.86117	0.24514	-0.313
Mof_H 	H 	0.0064	0.8808	0.2356	0.098
Mof_H 	H 	0.0069	0.8403	0.2394	0.124
Mof_C 	C 	0.01428	0.81042	0.43712	0.145
Mof_C 	C 	0.99628	0.84793	0.39514	0.212
Mof_C 	C 	0.9269	0.8456	0.30605	0.134
Mof_C 	C 	0.96991	0.86309	0.26916	0.2
Mof_Cu	Cu	0.91514	0.32943	0.89082	0.787
Mof_Cu	Cu	0.94545	0.26842	0.95317	0.784
Mof_S 	S 	0.04268	0.28874	0.96856	-0.544
Mof_S 	S 	0.89885	0.31692	0.83097	-0.482
Mof_N 	N 	0.98003	0.30361	0.93046	-0.268
Mof_N 	N 	0.96844	0.3278	0.90285	-0.25
Mof_N 	N 	0.02615	0.33787	0.9151	-0.251
Mof_H 	H 	0.0478	0.3469	0.914	0.126
Mof_N 	N 	0.99758	0.37465	0.86874	-0.32
Mof_H 	H 	0.9786	0.3791	0.8556	0.123
Mof_H 	H 	0.0173	0.3869	0.8654	0.137
Mof_N 	N 	0.92559	0.38157	0.80408	-0.266
Mof_N 	N 	0.95339	0.39261	0.7804	-0.252
Mof_N 	N 	0.95413	0.3334	0.78426	-0.247
Mof_H 	H 	0.9602	0.311	0.7807	0.124
Mof_N 	N 	0.99779	0.36117	0.74514	-0.312
Mof_H 	H 	0.0064	0.3808	0.7356	0.098
Mof_H 	H 	0.0069	0.3403	0.7394	0.124
Mof_C 	C 	0.01428	0.31042	0.93712	0.145
Mof_C 	C 	0.99628	0.34793	0.89514	0.212
Mof_C 	C 	0.9269	0.3456	0.80605	0.134
Mof_C 	C 	0.96991	0.36309	0.76916	0.2
Mof_Cu	Cu	0.41514	0.82943	0.89082	0.787
Mof_Cu	Cu	0.44545	0.76842	0.95317	0.784
Mof_S 	S 	0.54268	0.78874	0.96856	-0.543
Mof_S 	S 	0.39885	0.81692	0.83097	-0.482
Mof_N 	N 	0.48003	0.80361	0.93046	-0.272
Mof_N 	N 	0.46844	0.8278	0.90285	-0.249
Mof_N 	N 	0.52615	0.83787	0.9151	-0.248
Mof_H 	H 	0.5478	0.8469	0.914	0.126
Mof_N 	N 	0.49758	0.87465	0.86874	-0.326
Mof_H 	H 	0.4786	0.8791	0.8556	0.124
Mof_H 	H 	0.5173	0.8869	0.8654	0.144
Mof_N 	N 	0.42559	0.88157	0.80408	-0.266
Mof_N 	N 	0.45339	0.89261	0.7804	-0.254
Mof_N 	N 	0.45413	0.8334	0.78426	-0.248
Mof_H 	H 	0.4602	0.811	0.7807	0.122
Mof_N 	N 	0.49779	0.86117	0.74514	-0.327
Mof_H 	H 	0.5064	0.8808	0.7356	0.107
Mof_H 	H 	0.5069	0.8403	0.7394	0.133
Mof_C 	C 	0.51428	0.81042	0.93712	0.152
Mof_C 	C 	0.49628	0.84793	0.89514	0.207
Mof_C 	C 	0.4269	0.8456	0.80605	0.134
Mof_C 	C 	0.46991	0.86309	0.76916	0.2
Mof_Cu	Cu	0.41514	0.32943	0.39082	0.787
Mof_Cu	Cu	0.44545	0.26842	0.45317	0.782
Mof_S 	S 	0.54268	0.28874	0.46856	-0.548
Mof_S 	S 	0.39885	0.31692	0.33097	-0.482
Mof_N 	N 	0.48003	0.30361	0.43046	-0.273
Mof_N 	N 	0.46844	0.3278	0.40285	-0.25
Mof_N 	N 	0.52615	0.33787	0.4151	-0.248
Mof_H 	H 	0.5478	0.3469	0.414	0.126
Mof_N 	N 	0.49758	0.37465	0.36874	-0.326
Mof_H 	H 	0.4786	0.3791	0.3556	0.123
Mof_H 	H 	0.5173	0.3869	0.3654	0.143
Mof_N 	N 	0.42559	0.38157	0.30408	-0.266
Mof_N 	N 	0.45339	0.39261	0.2804	-0.254
Mof_N 	N 	0.45413	0.3334	0.28426	-0.248
Mof_H 	H 	0.4602	0.311	0.2807	0.122
Mof_N 	N 	0.49779	0.36117	0.24514	-0.327
Mof_H 	H 	0.5064	0.3808	0.2356	0.107
Mof_H 	H 	0.5069	0.3403	0.2394	0.133
Mof_C 	C 	0.51428	0.31042	0.43712	0.152
Mof_C 	C 	0.49628	0.34793	0.39514	0.206
Mof_C 	C 	0.4269	0.3456	0.30605	0.134
Mof_C 	C 	0.46991	0.36309	0.26916	0.2
Mof_Cu	Cu	0.85419	0.64581	0.64581	0.736
Mof_I 	I 	0.90351	0.59649	0.59649	-0.644
Mof_Cu	Cu	0.85419	0.14581	0.14581	0.736
Mof_I 	I 	0.90351	0.09649	0.09649	-0.647
Mof_Cu	Cu	0.14581	0.35419	0.64581	0.736
Mof_I 	I 	0.09649	0.40351	0.59649	-0.647
Mof_Cu	Cu	0.14581	0.85419	0.14581	0.736
Mof_I 	I 	0.09649	0.90351	0.09649	-0.647
Mof_Cu	Cu	0.14581	0.64581	0.35419	0.736
Mof_I 	I 	0.09649	0.59649	0.40351	-0.647
Mof_Cu	Cu	0.14581	0.14581	0.85419	0.736
Mof_I 	I 	0.09649	0.09649	0.90351	-0.647
Mof_Cu	Cu	0.85419	0.35419	0.35419	0.736
Mof_I 	I 	0.90351	0.40351	0.40351	-0.644
Mof_Cu	Cu	0.85419	0.85419	0.85419	0.736
Mof_I 	I 	0.90351	0.90351	0.90351	-0.641
Mof_Cu	Cu	0.64581	0.85419	0.64581	0.736
Mof_I 	I 	0.59649	0.90351	0.59649	-0.644
Mof_Cu	Cu	0.64581	0.14581	0.35419	0.736
Mof_I 	I 	0.59649	0.09649	0.40351	-0.647
Mof_Cu	Cu	0.35419	0.14581	0.64581	0.736
Mof_I 	I 	0.40351	0.09649	0.59649	-0.647
Mof_Cu	Cu	0.35419	0.85419	0.35419	0.736
Mof_I 	I 	0.40351	0.90351	0.40351	-0.644
Mof_Cu	Cu	0.64581	0.64581	0.85419	0.736
Mof_I 	I 	0.59649	0.59649	0.90351	-0.644
Mof_Cu	Cu	0.35419	0.64581	0.14581	0.736
Mof_I 	I 	0.40351	0.59649	0.09649	-0.647
Mof_Cu	Cu	0.64581	0.35419	0.14581	0.736
Mof_I 	I 	0.59649	0.40351	0.09649	-0.647
Mof_Cu	Cu	0.35419	0.35419	0.85419	0.736
Mof_I 	I 	0.40351	0.40351	0.90351	-0.644
Mof_Cu	Cu	0.14581	0.35419	0.14581	0.737
Mof_I 	I 	0.09649	0.40351	0.09649	-0.648
Mof_Cu	Cu	0.85419	0.64581	0.14581	0.736
Mof_I 	I 	0.90351	0.59649	0.09649	-0.646
Mof_Cu	Cu	0.14581	0.64581	0.85419	0.736
Mof_I 	I 	0.09649	0.59649	0.90351	-0.646
Mof_Cu	Cu	0.85419	0.35419	0.85419	0.736
Mof_I 	I 	0.90351	0.40351	0.90351	-0.643
Mof_Cu	Cu	0.35419	0.14581	0.14581	0.737
Mof_I 	I 	0.40351	0.09649	0.09649	-0.648
Mof_Cu	Cu	0.35419	0.64581	0.64581	0.736
Mof_I 	I 	0.40351	0.59649	0.59649	-0.646
Mof_Cu	Cu	0.64581	0.14581	0.85419	0.736
Mof_I 	I 	0.59649	0.09649	0.90351	-0.646
Mof_Cu	Cu	0.64581	0.64581	0.35419	0.736
Mof_I 	I 	0.59649	0.59649	0.40351	-0.646
Mof_Cu	Cu	0.64581	0.85419	0.14581	0.736
Mof_I 	I 	0.59649	0.90351	0.09649	-0.646
Mof_Cu	Cu	0.64581	0.35419	0.64581	0.736
Mof_I 	I 	0.59649	0.40351	0.59649	-0.646
Mof_Cu	Cu	0.35419	0.85419	0.85419	0.736
Mof_I 	I 	0.40351	0.90351	0.90351	-0.643
Mof_Cu	Cu	0.35419	0.35419	0.35419	0.736
Mof_I 	I 	0.40351	0.40351	0.40351	-0.646
Mof_Cu	Cu	0.14581	0.14581	0.35419	0.737
Mof_I 	I 	0.09649	0.09649	0.40351	-0.648
Mof_Cu	Cu	0.14581	0.85419	0.64581	0.736
Mof_I 	I 	0.09649	0.90351	0.59649	-0.646
Mof_Cu	Cu	0.85419	0.14581	0.64581	0.736
Mof_I 	I 	0.90351	0.09649	0.59649	-0.646
Mof_Cu	Cu	0.85419	0.85419	0.35419	0.736
Mof_I 	I 	0.90351	0.90351	0.40351	-0.643
Mof_Cu	Cu	5.98401e-33	0.75	0.5	0.698
Mof_Cu	Cu	-0	0.25	-0	0.694
Mof_Cu	Cu	0.5	0.75	-0	0.698
Mof_Cu	Cu	0.5	0.25	0.5	0.701
Mof_Cu	Cu	-2.23461e-33	0.25	0.5	0.698
Mof_Cu	Cu	-0	0.75	-0	0.694
Mof_Cu	Cu	0.5	0.25	-0	0.698
Mof_Cu	Cu	0.5	0.75	0.5	0.701
Mof_Cu	Cu	0.5	0	0.75	0.698
Mof_Cu	Cu	0.5	0.5	0.25	0.701
Mof_Cu	Cu	9.3735e-34	0	0.25	0.694
Mof_Cu	Cu	1.10307e-32	0.5	0.75	0.698
Mof_Cu	Cu	0.5	0	0.25	0.698
Mof_Cu	Cu	0.5	0.5	0.75	0.701
Mof_Cu	Cu	2.81205e-33	0	0.75	0.694
Mof_Cu	Cu	2.992e-33	0.5	0.25	0.698
Mof_Cu	Cu	0.75	0.5	-0	0.698
Mof_Cu	Cu	0.75	0	0.5	0.698
Mof_Cu	Cu	0.25	0.5	0.5	0.701
Mof_Cu	Cu	0.25	0	-0	0.694
Mof_Cu	Cu	0.25	0.5	-0	0.698
Mof_Cu	Cu	0.25	0	0.5	0.698
Mof_Cu	Cu	0.75	0.5	0.5	0.701
Mof_Cu	Cu	0.75	0	-0	0.694
_end
