data_functionalizedCrystal
_audit_creation_method	'EQeq! by Chris Wilmer'
_symmetry_space_group_name_H-M	'P1'
_symmetry_Int_Tables_number	1
_symmetry_cell_setting	triclinic
loop_
_symmetry_equiv_pos_as_xyz
  x,y,z
_cell_length_a	8.7159
_cell_length_b	10.9737
_cell_length_c	12.323
_cell_angle_alpha	68.448
_cell_angle_beta	86.196
_cell_angle_gamma	79.605
loop_
_atom_site_label
_atom_site_type_symbol
_atom_site_fract_x
_atom_site_fract_y
_atom_site_fract_z
_atom_site_charge
Mof_Dy	Dy	0.71289	0.9794	0.44408	2.142
Mof_Dy	Dy	0.28711	0.0206	0.55592	2.142
Mof_H 	H 	0.2183	0.6272	0.7621	0.018
Mof_H 	H 	0.0025	0.3136	0.8412	0.028
Mof_H 	H 	0.8661	0.6394	0.5611	0.018
Mof_H 	H 	0.9526	0.2265	0.6868	0.079
Mof_H 	H 	0.7823	0.1149	0.641	-0.032
Mof_H 	H 	0.4334	0.418	0.6165	0.008
Mof_H 	H 	0.6069	0.5339	0.6537	0.092
Mof_H 	H 	0.0089	0.3314	0.025	0.096
Mof_H 	H 	0.1216	0.2153	0.2052	-0.02
Mof_H 	H 	0.5341	0.3119	0.0725	-0.011
Mof_H 	H 	0.4197	0.4314	0.8926	0.098
Mof_H 	H 	0.7817	0.3728	0.2379	0.018
Mof_H 	H 	0.9975	0.6864	0.1588	0.028
Mof_H 	H 	0.1339	0.3606	0.4389	0.018
Mof_H 	H 	0.0474	0.7735	0.3132	0.079
Mof_H 	H 	0.2177	0.8851	0.359	-0.032
Mof_H 	H 	0.5666	0.582	0.3835	0.008
Mof_H 	H 	0.3931	0.4661	0.3463	0.092
Mof_H 	H 	0.9911	0.6686	0.975	0.096
Mof_H 	H 	0.8784	0.7847	0.7948	-0.02
Mof_H 	H 	0.4659	0.6881	0.9275	-0.011
Mof_H 	H 	0.5803	0.5686	0.1074	0.098
Mof_C 	C 	0.0564	0.7954	0.577	0.557
Mof_C 	C 	0.0447	0.6542	0.65	-0.182
Mof_C 	C 	0.1407	0.5872	0.7474	0.051
Mof_C 	C 	0.1209	0.4604	0.8228	-0.066
Mof_C 	C 	0.0117	0.4003	0.7939	-0.01
Mof_C 	C 	0.915	0.4643	0.6967	-0.062
Mof_C 	C 	0.9312	0.5936	0.6253	0.058
Mof_C 	C 	0.8002	0.3939	0.6724	0.112
Mof_C 	C 	0.8491	0.2667	0.67	-0.178
Mof_C 	C 	0.7469	0.1992	0.6431	0.126
Mof_C 	C 	0.5915	0.2569	0.6192	-0.2
Mof_C 	C 	0.5386	0.3811	0.6273	0.1
Mof_C 	C 	0.6424	0.4497	0.6514	-0.171
Mof_C 	C 	0.4843	0.1879	0.5819	0.452
Mof_C 	C 	0.2017	0.3918	0.9375	0.123
Mof_C 	C 	0.115	0.3275	0.0339	-0.197
Mof_C 	C 	0.1824	0.2578	0.1425	0.132
Mof_C 	C 	0.3396	0.2511	0.1583	-0.219
Mof_C 	C 	0.4281	0.316	0.0632	0.124
Mof_C 	C 	0.3596	0.3867	0.9547	-0.195
Mof_C 	C 	0.4079	0.1726	0.279	0.516
Mof_C 	C 	0.9436	0.2046	0.423	0.557
Mof_C 	C 	0.9553	0.3458	0.35	-0.182
Mof_C 	C 	0.8593	0.4128	0.2526	0.051
Mof_C 	C 	0.8791	0.5396	0.1772	-0.066
Mof_C 	C 	0.9883	0.5997	0.2061	-0.01
Mof_C 	C 	0.085	0.5357	0.3033	-0.062
Mof_C 	C 	0.0688	0.4064	0.3747	0.058
Mof_C 	C 	0.1998	0.6061	0.3276	0.112
Mof_C 	C 	0.1509	0.7333	0.33	-0.178
Mof_C 	C 	0.2531	0.8008	0.3569	0.126
Mof_C 	C 	0.4085	0.7431	0.3808	-0.2
Mof_C 	C 	0.4614	0.6189	0.3727	0.1
Mof_C 	C 	0.3576	0.5503	0.3486	-0.171
Mof_C 	C 	0.5157	0.8121	0.4181	0.452
Mof_C 	C 	0.7983	0.6082	0.0625	0.123
Mof_C 	C 	0.885	0.6725	0.9661	-0.197
Mof_C 	C 	0.8176	0.7422	0.8575	0.132
Mof_C 	C 	0.6604	0.7489	0.8417	-0.219
Mof_C 	C 	0.5719	0.684	0.9368	0.124
Mof_C 	C 	0.6404	0.6133	0.0453	-0.195
Mof_C 	C 	0.5921	0.8274	0.721	0.516
Mof_O 	O 	0.9548	0.8606	0.5002	-0.594
Mof_O 	O 	0.1695	0.8396	0.5962	-0.581
Mof_O 	O 	0.3401	0.2139	0.5924	-0.489
Mof_O 	O 	0.5423	0.0994	0.5406	-0.64
Mof_O 	O 	0.3112	0.1532	0.3606	-0.543
Mof_O 	O 	0.5521	0.1343	0.2871	-0.54
Mof_O 	O 	0.0452	0.1394	0.4998	-0.594
Mof_O 	O 	0.8305	0.1604	0.4038	-0.581
Mof_O 	O 	0.6599	0.7861	0.4076	-0.489
Mof_O 	O 	0.4577	0.9006	0.4594	-0.64
Mof_O 	O 	0.6888	0.8468	0.6394	-0.543
Mof_O 	O 	0.4479	0.8657	0.7129	-0.54
_end
