data_functionalizedCrystal
_audit_creation_method	'EQeq! by Chris Wilmer'
_symmetry_space_group_name_H-M	'P1'
_symmetry_Int_Tables_number	1
_symmetry_cell_setting	triclinic
loop_
_symmetry_equiv_pos_as_xyz
  x,y,z
_cell_length_a	26.113
_cell_length_b	26.113
_cell_length_c	19.6459
_cell_angle_alpha	90
_cell_angle_beta	90
_cell_angle_gamma	120
loop_
_atom_site_label
_atom_site_type_symbol
_atom_site_fract_x
_atom_site_fract_y
_atom_site_fract_z
_atom_site_charge
Mof_Co	Co	0.66716	0.10261	0.40179	1.128
Mof_N 	N 	0.74115	0.17309	0.4363	-0.271
Mof_N 	N 	0.65954	0.0372	0.4616	-0.268
Mof_N 	N 	0.68	0.0798	0.3081	-0.252
Mof_N 	N 	0.6034	0.1219	0.4324	-0.253
Mof_C 	C 	0.7582	0.1863	0.5034	0.073
Mof_C 	C 	0.7032	0.0231	0.4748	0.068
Mof_C 	C 	0.6807	0.0326	0.285	0.027
Mof_C 	C 	0.6072	0.1595	0.4747	0.031
Mof_C 	C 	0.7343	0.1562	0.5649	-0.172
Mof_C 	C 	0.7605	0.0455	0.4499	-0.16
Mof_H 	H 	0.6811	0.0037	0.3121	0.048
Mof_H 	H 	0.64	0.1833	0.5015	0.022
Mof_H 	H 	0.6989	0.1203	0.565	0.105
Mof_C 	C 	0.7626	0.1797	0.6229	0.153
Mof_C 	C 	0.7936	0.021	0.474	0.157
Mof_H 	H 	0.7761	0.0759	0.4181	0.097
Mof_O 	O 	0.67329	0.17952	0.30582	-0.17
Mof_O 	O 	0.5535	0.0254	0.3552	-0.162
Mof_Cl	Cl	0.7197	0.1348	0.695	-0.23
Mof_Cl	Cl	0.8562	0.0302	0.4399	-0.194
Mof_Co	Co	0.89739	0.56455	0.40179	1.127
Mof_N 	N 	0.82691	0.56806	0.4363	-0.272
Mof_N 	N 	0.9628	0.62234	0.4616	-0.268
Mof_N 	N 	0.9202	0.6002	0.3081	-0.253
Mof_N 	N 	0.8781	0.4815	0.4324	-0.254
Mof_C 	C 	0.8137	0.5719	0.5034	0.072
Mof_C 	C 	0.9769	0.6801	0.4748	0.08
Mof_C 	C 	0.9674	0.6481	0.285	0.027
Mof_C 	C 	0.8405	0.4477	0.4747	0.031
Mof_C 	C 	0.8438	0.5781	0.5649	-0.172
Mof_C 	C 	0.9545	0.715	0.4499	-0.169
Mof_H 	H 	0.9963	0.6774	0.3121	0.05
Mof_H 	H 	0.8167	0.4567	0.5015	0.022
Mof_H 	H 	0.8797	0.5786	0.565	0.106
Mof_C 	C 	0.8203	0.5829	0.6229	0.153
Mof_C 	C 	0.979	0.7726	0.474	0.17
Mof_H 	H 	0.9241	0.7002	0.4181	0.1
Mof_O 	O 	0.82048	0.49377	0.30582	-0.17
Mof_O 	O 	0.9746	0.5281	0.3552	-0.16
Mof_Cl	Cl	0.8652	0.5849	0.695	-0.228
Mof_Cl	Cl	0.9698	0.826	0.4399	-0.192
Mof_Co	Co	0.43545	0.33284	0.40179	1.127
Mof_N 	N 	0.43194	0.25885	0.4363	-0.272
Mof_N 	N 	0.37766	0.34046	0.4616	-0.27
Mof_N 	N 	0.3998	0.32	0.3081	-0.253
Mof_N 	N 	0.5185	0.3966	0.4324	-0.254
Mof_C 	C 	0.4281	0.2418	0.5034	0.072
Mof_C 	C 	0.3199	0.2968	0.4748	0.073
Mof_C 	C 	0.3519	0.3193	0.285	0.027
Mof_C 	C 	0.5523	0.3928	0.4747	0.031
Mof_C 	C 	0.4219	0.2657	0.5649	-0.172
Mof_C 	C 	0.285	0.2395	0.4499	-0.164
Mof_H 	H 	0.3226	0.3189	0.3121	0.049
Mof_H 	H 	0.5433	0.36	0.5015	0.022
Mof_H 	H 	0.4214	0.3011	0.565	0.105
Mof_C 	C 	0.4171	0.2374	0.6229	0.153
Mof_C 	C 	0.2274	0.2064	0.474	0.163
Mof_H 	H 	0.2998	0.2239	0.4181	0.098
Mof_O 	O 	0.50623	0.32671	0.30582	-0.17
Mof_O 	O 	0.4719	0.4465	0.3552	-0.161
Mof_Cl	Cl	0.4151	0.2803	0.695	-0.229
Mof_Cl	Cl	0.174	0.1438	0.4399	-0.195
Mof_Co	Co	0.33284	0.89739	0.90179	1.127
Mof_N 	N 	0.25885	0.82691	0.9363	-0.27
Mof_N 	N 	0.34046	0.9628	0.9616	-0.267
Mof_N 	N 	0.32	0.9202	0.8081	-0.253
Mof_N 	N 	0.3966	0.8781	0.9324	-0.255
Mof_C 	C 	0.2418	0.8137	0.0034	0.07
Mof_C 	C 	0.2968	0.9769	0.9748	0.084
Mof_C 	C 	0.3193	0.9674	0.785	0.027
Mof_C 	C 	0.3928	0.8405	0.9747	0.036
Mof_C 	C 	0.2657	0.8438	0.0649	-0.171
Mof_C 	C 	0.2395	0.9545	0.9499	-0.172
Mof_H 	H 	0.3189	0.9963	0.8121	0.049
Mof_H 	H 	0.36	0.8167	0.0015	0.017
Mof_H 	H 	0.3011	0.8797	0.065	0.105
Mof_C 	C 	0.2374	0.8203	0.1229	0.153
Mof_C 	C 	0.2064	0.979	0.974	0.174
Mof_H 	H 	0.2239	0.9241	0.9181	0.101
Mof_O 	O 	0.32671	0.82048	0.80582	-0.17
Mof_O 	O 	0.4465	0.9746	0.8552	-0.16
Mof_Cl	Cl	0.2803	0.8652	0.195	-0.228
Mof_Cl	Cl	0.1438	0.9698	0.9399	-0.193
Mof_Co	Co	0.10261	0.43545	0.90179	1.127
Mof_N 	N 	0.17309	0.43194	0.9363	-0.27
Mof_N 	N 	0.0372	0.37766	0.9616	-0.267
Mof_N 	N 	0.0798	0.3998	0.8081	-0.253
Mof_N 	N 	0.1219	0.5185	0.9324	-0.255
Mof_C 	C 	0.1863	0.4281	0.0034	0.069
Mof_C 	C 	0.0231	0.3199	0.9748	0.073
Mof_C 	C 	0.0326	0.3519	0.785	0.026
Mof_C 	C 	0.1595	0.5523	0.9747	0.036
Mof_C 	C 	0.1562	0.4219	0.0649	-0.171
Mof_C 	C 	0.0455	0.285	0.9499	-0.164
Mof_H 	H 	0.0037	0.3226	0.8121	0.048
Mof_H 	H 	0.1833	0.5433	0.0015	0.017
Mof_H 	H 	0.1203	0.4214	0.065	0.104
Mof_C 	C 	0.1797	0.4171	0.1229	0.152
Mof_C 	C 	0.021	0.2274	0.974	0.163
Mof_H 	H 	0.0759	0.2998	0.9181	0.099
Mof_O 	O 	0.17952	0.50623	0.80582	-0.17
Mof_O 	O 	0.0254	0.4719	0.8552	-0.162
Mof_Cl	Cl	0.1348	0.4151	0.195	-0.231
Mof_Cl	Cl	0.0302	0.174	0.9399	-0.195
Mof_Co	Co	0.56455	0.66716	0.90179	1.127
Mof_N 	N 	0.56806	0.74115	0.9363	-0.27
Mof_N 	N 	0.62234	0.65954	0.9616	-0.268
Mof_N 	N 	0.6002	0.68	0.8081	-0.253
Mof_N 	N 	0.4815	0.6034	0.9324	-0.255
Mof_C 	C 	0.5719	0.7582	0.0034	0.069
Mof_C 	C 	0.6801	0.7032	0.9748	0.08
Mof_C 	C 	0.6481	0.6807	0.785	0.027
Mof_C 	C 	0.4477	0.6072	0.9747	0.036
Mof_C 	C 	0.5781	0.7343	0.0649	-0.171
Mof_C 	C 	0.715	0.7605	0.9499	-0.168
Mof_H 	H 	0.6774	0.6811	0.8121	0.049
Mof_H 	H 	0.4567	0.64	0.0015	0.017
Mof_H 	H 	0.5786	0.6989	0.065	0.104
Mof_C 	C 	0.5829	0.7626	0.1229	0.153
Mof_C 	C 	0.7726	0.7936	0.974	0.169
Mof_H 	H 	0.7002	0.7761	0.9181	0.1
Mof_O 	O 	0.49377	0.67329	0.80582	-0.17
Mof_O 	O 	0.5281	0.5535	0.8552	-0.161
Mof_Cl	Cl	0.5849	0.7197	0.195	-0.229
Mof_Cl	Cl	0.826	0.8562	0.9399	-0.191
Mof_Co	Co	0.10261	0.66716	0.59821	1.127
Mof_N 	N 	0.17309	0.74115	0.5637	-0.272
Mof_N 	N 	0.0372	0.65954	0.5384	-0.269
Mof_N 	N 	0.0798	0.68	0.6919	-0.253
Mof_N 	N 	0.1219	0.6034	0.5676	-0.254
Mof_C 	C 	0.1863	0.7582	0.4966	0.072
Mof_C 	C 	0.0231	0.7032	0.5252	0.066
Mof_C 	C 	0.0326	0.6807	0.715	0.026
Mof_C 	C 	0.1595	0.6072	0.5253	0.031
Mof_C 	C 	0.1562	0.7343	0.4351	-0.172
Mof_C 	C 	0.0455	0.7605	0.5501	-0.159
Mof_H 	H 	0.0037	0.6811	0.6879	0.048
Mof_H 	H 	0.1833	0.64	0.4985	0.021
Mof_H 	H 	0.1203	0.6989	0.435	0.105
Mof_C 	C 	0.1797	0.7626	0.3771	0.153
Mof_C 	C 	0.021	0.7936	0.526	0.155
Mof_H 	H 	0.0759	0.7761	0.5819	0.097
Mof_O 	O 	0.17952	0.67329	0.69418	-0.17
Mof_O 	O 	0.0254	0.5535	0.6448	-0.163
Mof_Cl	Cl	0.1348	0.7197	0.305	-0.231
Mof_Cl	Cl	0.0302	0.8562	0.5601	-0.195
Mof_Co	Co	0.56455	0.89739	0.59821	1.127
Mof_N 	N 	0.56806	0.82691	0.5637	-0.272
Mof_N 	N 	0.62234	0.9628	0.5384	-0.269
Mof_N 	N 	0.6002	0.9202	0.6919	-0.253
Mof_N 	N 	0.4815	0.8781	0.5676	-0.254
Mof_C 	C 	0.5719	0.8137	0.4966	0.072
Mof_C 	C 	0.6801	0.9769	0.5252	0.078
Mof_C 	C 	0.6481	0.9674	0.715	0.027
Mof_C 	C 	0.4477	0.8405	0.5253	0.031
Mof_C 	C 	0.5781	0.8438	0.4351	-0.172
Mof_C 	C 	0.715	0.9545	0.5501	-0.168
Mof_H 	H 	0.6774	0.9963	0.6879	0.049
Mof_H 	H 	0.4567	0.8167	0.4985	0.022
Mof_H 	H 	0.5786	0.8797	0.435	0.106
Mof_C 	C 	0.5829	0.8203	0.3771	0.153
Mof_C 	C 	0.7726	0.979	0.526	0.168
Mof_H 	H 	0.7002	0.9241	0.5819	0.1
Mof_O 	O 	0.49377	0.82048	0.69418	-0.17
Mof_O 	O 	0.5281	0.9746	0.6448	-0.161
Mof_Cl	Cl	0.5849	0.8652	0.305	-0.228
Mof_Cl	Cl	0.826	0.9698	0.5601	-0.192
Mof_Co	Co	0.33284	0.43545	0.59821	1.127
Mof_N 	N 	0.25885	0.43194	0.5637	-0.272
Mof_N 	N 	0.34046	0.37766	0.5384	-0.27
Mof_N 	N 	0.32	0.3998	0.6919	-0.253
Mof_N 	N 	0.3966	0.5185	0.5676	-0.254
Mof_C 	C 	0.2418	0.4281	0.4966	0.072
Mof_C 	C 	0.2968	0.3199	0.5252	0.073
Mof_C 	C 	0.3193	0.3519	0.715	0.027
Mof_C 	C 	0.3928	0.5523	0.5253	0.031
Mof_C 	C 	0.2657	0.4219	0.4351	-0.172
Mof_C 	C 	0.2395	0.285	0.5501	-0.164
Mof_H 	H 	0.3189	0.3226	0.6879	0.049
Mof_H 	H 	0.36	0.5433	0.4985	0.022
Mof_H 	H 	0.3011	0.4214	0.435	0.105
Mof_C 	C 	0.2374	0.4171	0.3771	0.153
Mof_C 	C 	0.2064	0.2274	0.526	0.163
Mof_H 	H 	0.2239	0.2998	0.5819	0.098
Mof_O 	O 	0.32671	0.50623	0.69418	-0.17
Mof_O 	O 	0.4465	0.4719	0.6448	-0.161
Mof_Cl	Cl	0.2803	0.4151	0.305	-0.229
Mof_Cl	Cl	0.1438	0.174	0.5601	-0.195
Mof_Co	Co	0.89739	0.33284	0.09821	1.127
Mof_N 	N 	0.82691	0.25885	0.0637	-0.274
Mof_N 	N 	0.9628	0.34046	0.0384	-0.267
Mof_N 	N 	0.9202	0.32	0.1919	-0.253
Mof_N 	N 	0.8781	0.3966	0.0676	-0.254
Mof_C 	C 	0.8137	0.2418	0.9966	0.076
Mof_C 	C 	0.9769	0.2968	0.0252	0.073
Mof_C 	C 	0.9674	0.3193	0.215	0.027
Mof_C 	C 	0.8405	0.3928	0.0253	0.025
Mof_C 	C 	0.8438	0.2657	0.9351	-0.173
Mof_C 	C 	0.9545	0.2395	0.0501	-0.164
Mof_H 	H 	0.9963	0.3189	0.1879	0.049
Mof_H 	H 	0.8167	0.36	0.9985	0.027
Mof_H 	H 	0.8797	0.3011	0.935	0.108
Mof_C 	C 	0.8203	0.2374	0.8771	0.154
Mof_C 	C 	0.979	0.2064	0.026	0.162
Mof_H 	H 	0.9241	0.2239	0.0819	0.098
Mof_O 	O 	0.82048	0.32671	0.19418	-0.17
Mof_O 	O 	0.9746	0.4465	0.1448	-0.161
Mof_Cl	Cl	0.8652	0.2803	0.805	-0.228
Mof_Cl	Cl	0.9698	0.1438	0.0601	-0.194
Mof_Co	Co	0.43545	0.10261	0.09821	1.126
Mof_N 	N 	0.43194	0.17309	0.0637	-0.274
Mof_N 	N 	0.37766	0.0372	0.0384	-0.268
Mof_N 	N 	0.3998	0.0798	0.1919	-0.253
Mof_N 	N 	0.5185	0.1219	0.0676	-0.254
Mof_C 	C 	0.4281	0.1863	0.9966	0.076
Mof_C 	C 	0.3199	0.0231	0.0252	0.062
Mof_C 	C 	0.3519	0.0326	0.215	0.026
Mof_C 	C 	0.5523	0.1595	0.0253	0.025
Mof_C 	C 	0.4219	0.1562	0.9351	-0.173
Mof_C 	C 	0.285	0.0455	0.0501	-0.157
Mof_H 	H 	0.3226	0.0037	0.1879	0.048
Mof_H 	H 	0.5433	0.1833	0.9985	0.026
Mof_H 	H 	0.4214	0.1203	0.935	0.107
Mof_C 	C 	0.4171	0.1797	0.8771	0.153
Mof_C 	C 	0.2274	0.021	0.026	0.152
Mof_H 	H 	0.2998	0.0759	0.0819	0.095
Mof_O 	O 	0.50623	0.17952	0.19418	-0.17
Mof_O 	O 	0.4719	0.0254	0.1448	-0.163
Mof_Cl	Cl	0.4151	0.1348	0.805	-0.23
Mof_Cl	Cl	0.174	0.0302	0.0601	-0.196
Mof_Co	Co	0.66716	0.56455	0.09821	1.126
Mof_N 	N 	0.74115	0.56806	0.0637	-0.274
Mof_N 	N 	0.65954	0.62234	0.0384	-0.269
Mof_N 	N 	0.68	0.6002	0.1919	-0.253
Mof_N 	N 	0.6034	0.4815	0.0676	-0.254
Mof_C 	C 	0.7582	0.5719	0.9966	0.076
Mof_C 	C 	0.7032	0.6801	0.0252	0.067
Mof_C 	C 	0.6807	0.6481	0.215	0.027
Mof_C 	C 	0.6072	0.4477	0.0253	0.025
Mof_C 	C 	0.7343	0.5781	0.9351	-0.173
Mof_C 	C 	0.7605	0.715	0.0501	-0.16
Mof_H 	H 	0.6811	0.6774	0.1879	0.049
Mof_H 	H 	0.64	0.4567	0.9985	0.026
Mof_H 	H 	0.6989	0.5786	0.935	0.107
Mof_C 	C 	0.7626	0.5829	0.8771	0.154
Mof_C 	C 	0.7936	0.7726	0.026	0.156
Mof_H 	H 	0.7761	0.7002	0.0819	0.097
Mof_O 	O 	0.67329	0.49377	0.19418	-0.17
Mof_O 	O 	0.5535	0.5281	0.1448	-0.162
Mof_Cl	Cl	0.7197	0.5849	0.805	-0.229
Mof_Cl	Cl	0.8562	0.826	0.0601	-0.193
Mof_Co	Co	0.33284	0.89739	0.59821	1.127
Mof_N 	N 	0.25885	0.82691	0.5637	-0.272
Mof_N 	N 	0.34046	0.9628	0.5384	-0.269
Mof_N 	N 	0.32	0.9202	0.6919	-0.253
Mof_N 	N 	0.3966	0.8781	0.5676	-0.254
Mof_C 	C 	0.2418	0.8137	0.4966	0.072
Mof_C 	C 	0.2968	0.9769	0.5252	0.077
Mof_C 	C 	0.3193	0.9674	0.715	0.027
Mof_C 	C 	0.3928	0.8405	0.5253	0.031
Mof_C 	C 	0.2657	0.8438	0.4351	-0.172
Mof_C 	C 	0.2395	0.9545	0.5501	-0.167
Mof_H 	H 	0.3189	0.9963	0.6879	0.049
Mof_H 	H 	0.36	0.8167	0.4985	0.022
Mof_H 	H 	0.3011	0.8797	0.435	0.106
Mof_C 	C 	0.2374	0.8203	0.3771	0.153
Mof_C 	C 	0.2064	0.979	0.526	0.167
Mof_H 	H 	0.2239	0.9241	0.5819	0.099
Mof_O 	O 	0.32671	0.82048	0.69418	-0.17
Mof_O 	O 	0.4465	0.9746	0.6448	-0.161
Mof_Cl	Cl	0.2803	0.8652	0.305	-0.228
Mof_Cl	Cl	0.1438	0.9698	0.5601	-0.194
Mof_Co	Co	0.10261	0.43545	0.59821	1.127
Mof_N 	N 	0.17309	0.43194	0.5637	-0.272
Mof_N 	N 	0.0372	0.37766	0.5384	-0.269
Mof_N 	N 	0.0798	0.3998	0.6919	-0.253
Mof_N 	N 	0.1219	0.5185	0.5676	-0.254
Mof_C 	C 	0.1863	0.4281	0.4966	0.072
Mof_C 	C 	0.0231	0.3199	0.5252	0.066
Mof_C 	C 	0.0326	0.3519	0.715	0.026
Mof_C 	C 	0.1595	0.5523	0.5253	0.031
Mof_C 	C 	0.1562	0.4219	0.4351	-0.172
Mof_C 	C 	0.0455	0.285	0.5501	-0.16
Mof_H 	H 	0.0037	0.3226	0.6879	0.048
Mof_H 	H 	0.1833	0.5433	0.4985	0.021
Mof_H 	H 	0.1203	0.4214	0.435	0.105
Mof_C 	C 	0.1797	0.4171	0.3771	0.153
Mof_C 	C 	0.021	0.2274	0.526	0.156
Mof_H 	H 	0.0759	0.2998	0.5819	0.097
Mof_O 	O 	0.17952	0.50623	0.69418	-0.17
Mof_O 	O 	0.0254	0.4719	0.6448	-0.163
Mof_Cl	Cl	0.1348	0.4151	0.305	-0.231
Mof_Cl	Cl	0.0302	0.174	0.5601	-0.195
Mof_Co	Co	0.56455	0.66716	0.59821	1.127
Mof_N 	N 	0.56806	0.74115	0.5637	-0.272
Mof_N 	N 	0.62234	0.65954	0.5384	-0.27
Mof_N 	N 	0.6002	0.68	0.6919	-0.253
Mof_N 	N 	0.4815	0.6034	0.5676	-0.254
Mof_C 	C 	0.5719	0.7582	0.4966	0.072
Mof_C 	C 	0.6801	0.7032	0.5252	0.073
Mof_C 	C 	0.6481	0.6807	0.715	0.027
Mof_C 	C 	0.4477	0.6072	0.5253	0.031
Mof_C 	C 	0.5781	0.7343	0.4351	-0.172
Mof_C 	C 	0.715	0.7605	0.5501	-0.164
Mof_H 	H 	0.6774	0.6811	0.6879	0.049
Mof_H 	H 	0.4567	0.64	0.4985	0.022
Mof_H 	H 	0.5786	0.6989	0.435	0.105
Mof_C 	C 	0.5829	0.7626	0.3771	0.153
Mof_C 	C 	0.7726	0.7936	0.526	0.163
Mof_H 	H 	0.7002	0.7761	0.5819	0.098
Mof_O 	O 	0.49377	0.67329	0.69418	-0.17
Mof_O 	O 	0.5281	0.5535	0.6448	-0.161
Mof_Cl	Cl	0.5849	0.7197	0.305	-0.229
Mof_Cl	Cl	0.826	0.8562	0.5601	-0.192
Mof_Co	Co	0.66716	0.10261	0.09821	1.126
Mof_N 	N 	0.74115	0.17309	0.0637	-0.274
Mof_N 	N 	0.65954	0.0372	0.0384	-0.268
Mof_N 	N 	0.68	0.0798	0.1919	-0.253
Mof_N 	N 	0.6034	0.1219	0.0676	-0.254
Mof_C 	C 	0.7582	0.1863	0.9966	0.076
Mof_C 	C 	0.7032	0.0231	0.0252	0.061
Mof_C 	C 	0.6807	0.0326	0.215	0.026
Mof_C 	C 	0.6072	0.1595	0.0253	0.025
Mof_C 	C 	0.7343	0.1562	0.9351	-0.173
Mof_C 	C 	0.7605	0.0455	0.0501	-0.156
Mof_H 	H 	0.6811	0.0037	0.1879	0.048
Mof_H 	H 	0.64	0.1833	0.9985	0.026
Mof_H 	H 	0.6989	0.1203	0.935	0.107
Mof_C 	C 	0.7626	0.1797	0.8771	0.153
Mof_C 	C 	0.7936	0.021	0.026	0.151
Mof_H 	H 	0.7761	0.0759	0.0819	0.095
Mof_O 	O 	0.67329	0.17952	0.19418	-0.17
Mof_O 	O 	0.5535	0.0254	0.1448	-0.163
Mof_Cl	Cl	0.7197	0.1348	0.805	-0.23
Mof_Cl	Cl	0.8562	0.0302	0.0601	-0.195
Mof_Co	Co	0.89739	0.56455	0.09821	1.127
Mof_N 	N 	0.82691	0.56806	0.0637	-0.274
Mof_N 	N 	0.9628	0.62234	0.0384	-0.267
Mof_N 	N 	0.9202	0.6002	0.1919	-0.253
Mof_N 	N 	0.8781	0.4815	0.0676	-0.254
Mof_C 	C 	0.8137	0.5719	0.9966	0.076
Mof_C 	C 	0.9769	0.6801	0.0252	0.074
Mof_C 	C 	0.9674	0.6481	0.215	0.027
Mof_C 	C 	0.8405	0.4477	0.0253	0.025
Mof_C 	C 	0.8438	0.5781	0.9351	-0.173
Mof_C 	C 	0.9545	0.715	0.0501	-0.165
Mof_H 	H 	0.9963	0.6774	0.1879	0.049
Mof_H 	H 	0.8167	0.4567	0.9985	0.026
Mof_H 	H 	0.8797	0.5786	0.935	0.108
Mof_C 	C 	0.8203	0.5829	0.8771	0.154
Mof_C 	C 	0.979	0.7726	0.026	0.163
Mof_H 	H 	0.9241	0.7002	0.0819	0.098
Mof_O 	O 	0.82048	0.49377	0.19418	-0.17
Mof_O 	O 	0.9746	0.5281	0.1448	-0.161
Mof_Cl	Cl	0.8652	0.5849	0.805	-0.227
Mof_Cl	Cl	0.9698	0.826	0.0601	-0.192
Mof_Co	Co	0.43545	0.33284	0.09821	1.126
Mof_N 	N 	0.43194	0.25885	0.0637	-0.274
Mof_N 	N 	0.37766	0.34046	0.0384	-0.269
Mof_N 	N 	0.3998	0.32	0.1919	-0.253
Mof_N 	N 	0.5185	0.3966	0.0676	-0.254
Mof_C 	C 	0.4281	0.2418	0.9966	0.076
Mof_C 	C 	0.3199	0.2968	0.0252	0.066
Mof_C 	C 	0.3519	0.3193	0.215	0.027
Mof_C 	C 	0.5523	0.3928	0.0253	0.025
Mof_C 	C 	0.4219	0.2657	0.9351	-0.173
Mof_C 	C 	0.285	0.2395	0.0501	-0.16
Mof_H 	H 	0.3226	0.3189	0.1879	0.049
Mof_H 	H 	0.5433	0.36	0.9985	0.026
Mof_H 	H 	0.4214	0.3011	0.935	0.107
Mof_C 	C 	0.4171	0.2374	0.8771	0.153
Mof_C 	C 	0.2274	0.2064	0.026	0.156
Mof_H 	H 	0.2998	0.2239	0.0819	0.097
Mof_O 	O 	0.50623	0.32671	0.19418	-0.17
Mof_O 	O 	0.4719	0.4465	0.1448	-0.162
Mof_Cl	Cl	0.4151	0.2803	0.805	-0.229
Mof_Cl	Cl	0.174	0.1438	0.0601	-0.195
Mof_Co	Co	0.89739	0.33284	0.40179	1.127
Mof_N 	N 	0.82691	0.25885	0.4363	-0.272
Mof_N 	N 	0.9628	0.34046	0.4616	-0.268
Mof_N 	N 	0.9202	0.32	0.3081	-0.253
Mof_N 	N 	0.8781	0.3966	0.4324	-0.254
Mof_C 	C 	0.8137	0.2418	0.5034	0.072
Mof_C 	C 	0.9769	0.2968	0.4748	0.079
Mof_C 	C 	0.9674	0.3193	0.285	0.027
Mof_C 	C 	0.8405	0.3928	0.4747	0.031
Mof_C 	C 	0.8438	0.2657	0.5649	-0.172
Mof_C 	C 	0.9545	0.2395	0.4499	-0.169
Mof_H 	H 	0.9963	0.3189	0.3121	0.049
Mof_H 	H 	0.8167	0.36	0.5015	0.022
Mof_H 	H 	0.8797	0.3011	0.565	0.106
Mof_C 	C 	0.8203	0.2374	0.6229	0.153
Mof_C 	C 	0.979	0.2064	0.474	0.169
Mof_H 	H 	0.9241	0.2239	0.4181	0.1
Mof_O 	O 	0.82048	0.32671	0.30582	-0.17
Mof_O 	O 	0.9746	0.4465	0.3552	-0.16
Mof_Cl	Cl	0.8652	0.2803	0.695	-0.228
Mof_Cl	Cl	0.9698	0.1438	0.4399	-0.193
Mof_Co	Co	0.43545	0.10261	0.40179	1.127
Mof_N 	N 	0.43194	0.17309	0.4363	-0.272
Mof_N 	N 	0.37766	0.0372	0.4616	-0.269
Mof_N 	N 	0.3998	0.0798	0.3081	-0.253
Mof_N 	N 	0.5185	0.1219	0.4324	-0.254
Mof_C 	C 	0.4281	0.1863	0.5034	0.072
Mof_C 	C 	0.3199	0.0231	0.4748	0.068
Mof_C 	C 	0.3519	0.0326	0.285	0.026
Mof_C 	C 	0.5523	0.1595	0.4747	0.031
Mof_C 	C 	0.4219	0.1562	0.5649	-0.172
Mof_C 	C 	0.285	0.0455	0.4499	-0.161
Mof_H 	H 	0.3226	0.0037	0.3121	0.048
Mof_H 	H 	0.5433	0.1833	0.5015	0.022
Mof_H 	H 	0.4214	0.1203	0.565	0.105
Mof_C 	C 	0.4171	0.1797	0.6229	0.153
Mof_C 	C 	0.2274	0.021	0.474	0.158
Mof_H 	H 	0.2998	0.0759	0.4181	0.097
Mof_O 	O 	0.50623	0.17952	0.30582	-0.17
Mof_O 	O 	0.4719	0.0254	0.3552	-0.162
Mof_Cl	Cl	0.4151	0.1348	0.695	-0.23
Mof_Cl	Cl	0.174	0.0302	0.4399	-0.195
Mof_Co	Co	0.66716	0.56455	0.40179	1.127
Mof_N 	N 	0.74115	0.56806	0.4363	-0.272
Mof_N 	N 	0.65954	0.62234	0.4616	-0.27
Mof_N 	N 	0.68	0.6002	0.3081	-0.253
Mof_N 	N 	0.6034	0.4815	0.4324	-0.254
Mof_C 	C 	0.7582	0.5719	0.5034	0.072
Mof_C 	C 	0.7032	0.6801	0.4748	0.073
Mof_C 	C 	0.6807	0.6481	0.285	0.027
Mof_C 	C 	0.6072	0.4477	0.4747	0.031
Mof_C 	C 	0.7343	0.5781	0.5649	-0.172
Mof_C 	C 	0.7605	0.715	0.4499	-0.164
Mof_H 	H 	0.6811	0.6774	0.3121	0.049
Mof_H 	H 	0.64	0.4567	0.5015	0.022
Mof_H 	H 	0.6989	0.5786	0.565	0.105
Mof_C 	C 	0.7626	0.5829	0.6229	0.153
Mof_C 	C 	0.7936	0.7726	0.474	0.163
Mof_H 	H 	0.7761	0.7002	0.4181	0.098
Mof_O 	O 	0.67329	0.49377	0.30582	-0.17
Mof_O 	O 	0.5535	0.5281	0.3552	-0.161
Mof_Cl	Cl	0.7197	0.5849	0.695	-0.229
Mof_Cl	Cl	0.8562	0.826	0.4399	-0.192
Mof_Co	Co	0.10261	0.66716	0.90179	1.127
Mof_N 	N 	0.17309	0.74115	0.9363	-0.27
Mof_N 	N 	0.0372	0.65954	0.9616	-0.267
Mof_N 	N 	0.0798	0.68	0.8081	-0.253
Mof_N 	N 	0.1219	0.6034	0.9324	-0.255
Mof_C 	C 	0.1863	0.7582	0.0034	0.069
Mof_C 	C 	0.0231	0.7032	0.9748	0.072
Mof_C 	C 	0.0326	0.6807	0.785	0.026
Mof_C 	C 	0.1595	0.6072	0.9747	0.036
Mof_C 	C 	0.1562	0.7343	0.0649	-0.171
Mof_C 	C 	0.0455	0.7605	0.9499	-0.163
Mof_H 	H 	0.0037	0.6811	0.8121	0.048
Mof_H 	H 	0.1833	0.64	0.0015	0.017
Mof_H 	H 	0.1203	0.6989	0.065	0.104
Mof_C 	C 	0.1797	0.7626	0.1229	0.152
Mof_C 	C 	0.021	0.7936	0.974	0.162
Mof_H 	H 	0.0759	0.7761	0.9181	0.098
Mof_O 	O 	0.17952	0.67329	0.80582	-0.17
Mof_O 	O 	0.0254	0.5535	0.8552	-0.162
Mof_Cl	Cl	0.1348	0.7197	0.195	-0.231
Mof_Cl	Cl	0.0302	0.8562	0.9399	-0.194
Mof_Co	Co	0.56455	0.89739	0.90179	1.127
Mof_N 	N 	0.56806	0.82691	0.9363	-0.27
Mof_N 	N 	0.62234	0.9628	0.9616	-0.267
Mof_N 	N 	0.6002	0.9202	0.8081	-0.253
Mof_N 	N 	0.4815	0.8781	0.9324	-0.255
Mof_C 	C 	0.5719	0.8137	0.0034	0.07
Mof_C 	C 	0.6801	0.9769	0.9748	0.085
Mof_C 	C 	0.6481	0.9674	0.785	0.027
Mof_C 	C 	0.4477	0.8405	0.9747	0.036
Mof_C 	C 	0.5781	0.8438	0.0649	-0.171
Mof_C 	C 	0.715	0.9545	0.9499	-0.172
Mof_H 	H 	0.6774	0.9963	0.8121	0.049
Mof_H 	H 	0.4567	0.8167	0.0015	0.017
Mof_H 	H 	0.5786	0.8797	0.065	0.105
Mof_C 	C 	0.5829	0.8203	0.1229	0.153
Mof_C 	C 	0.7726	0.979	0.974	0.175
Mof_H 	H 	0.7002	0.9241	0.9181	0.101
Mof_O 	O 	0.49377	0.82048	0.80582	-0.17
Mof_O 	O 	0.5281	0.9746	0.8552	-0.16
Mof_Cl	Cl	0.5849	0.8652	0.195	-0.228
Mof_Cl	Cl	0.826	0.9698	0.9399	-0.191
Mof_Co	Co	0.33284	0.43545	0.90179	1.127
Mof_N 	N 	0.25885	0.43194	0.9363	-0.27
Mof_N 	N 	0.34046	0.37766	0.9616	-0.268
Mof_N 	N 	0.32	0.3998	0.8081	-0.253
Mof_N 	N 	0.3966	0.5185	0.9324	-0.255
Mof_C 	C 	0.2418	0.4281	0.0034	0.069
Mof_C 	C 	0.2968	0.3199	0.9748	0.08
Mof_C 	C 	0.3193	0.3519	0.785	0.027
Mof_C 	C 	0.3928	0.5523	0.9747	0.036
Mof_C 	C 	0.2657	0.4219	0.0649	-0.171
Mof_C 	C 	0.2395	0.285	0.9499	-0.169
Mof_H 	H 	0.3189	0.3226	0.8121	0.049
Mof_H 	H 	0.36	0.5433	0.0015	0.017
Mof_H 	H 	0.3011	0.4214	0.065	0.104
Mof_C 	C 	0.2374	0.4171	0.1229	0.152
Mof_C 	C 	0.2064	0.2274	0.974	0.17
Mof_H 	H 	0.2239	0.2998	0.9181	0.1
Mof_O 	O 	0.32671	0.50623	0.80582	-0.17
Mof_O 	O 	0.4465	0.4719	0.8552	-0.161
Mof_Cl	Cl	0.2803	0.4151	0.195	-0.23
Mof_Cl	Cl	0.1438	0.174	0.9399	-0.194
Mof_C 	C 	0.78285	0.21715	0.401	0.115
Mof_H 	H 	0.7813	0.2187	0.3538	-0.017
Mof_C 	C 	0.78285	0.5657	0.401	0.115
Mof_H 	H 	0.7813	0.5626	0.3538	-0.017
Mof_C 	C 	0.4343	0.21715	0.401	0.115
Mof_H 	H 	0.4374	0.2187	0.3538	-0.017
Mof_C 	C 	0.21715	0.78285	0.901	0.116
Mof_H 	H 	0.2187	0.7813	0.8538	-0.017
Mof_C 	C 	0.21715	0.4343	0.901	0.116
Mof_H 	H 	0.2187	0.4374	0.8538	-0.017
Mof_C 	C 	0.5657	0.78285	0.901	0.116
Mof_H 	H 	0.5626	0.7813	0.8538	-0.017
Mof_C 	C 	0.21715	0.78285	0.599	0.115
Mof_H 	H 	0.2187	0.7813	0.6462	-0.017
Mof_C 	C 	0.5657	0.78285	0.599	0.115
Mof_H 	H 	0.5626	0.7813	0.6462	-0.017
Mof_C 	C 	0.21715	0.4343	0.599	0.115
Mof_H 	H 	0.2187	0.4374	0.6462	-0.017
Mof_C 	C 	0.78285	0.21715	0.099	0.114
Mof_H 	H 	0.7813	0.2187	0.1462	-0.016
Mof_C 	C 	0.4343	0.21715	0.099	0.114
Mof_H 	H 	0.4374	0.2187	0.1462	-0.016
Mof_C 	C 	0.78285	0.5657	0.099	0.114
Mof_H 	H 	0.7813	0.5626	0.1462	-0.016
Mof_C 	C 	0.6137	8.70351e-33	0.5	0.103
Mof_H 	H 	0.5781	8.70351e-33	0.5	-0.02
Mof_C 	C 	-6.87053e-18	0.6137	0.5	0.102
Mof_H 	H 	3.23266e-17	0.5781	0.5	-0.02
Mof_C 	C 	0.3863	0.3863	0.5	0.107
Mof_H 	H 	0.4219	0.4219	0.5	-0.021
Mof_C 	C 	0.3863	0	-0	0.099
Mof_H 	H 	0.4219	0	-0	-0.02
Mof_C 	C 	3.91971e-17	0.3863	-0	0.098
Mof_H 	H 	-0	0.4219	-0	-0.02
Mof_C 	C 	0.6137	0.6137	-0	0.103
Mof_H 	H 	0.5781	0.5781	-0	-0.02
Mof_C 	C 	0.3863	8.70351e-33	0.5	0.103
Mof_H 	H 	0.4219	8.70351e-33	0.5	-0.021
Mof_C 	C 	7.15237e-17	0.3863	0.5	0.102
Mof_H 	H 	3.23266e-17	0.4219	0.5	-0.02
Mof_C 	C 	0.6137	0.6137	0.5	0.107
Mof_H 	H 	0.5781	0.5781	0.5	-0.021
Mof_C 	C 	0.6137	0	-0	0.098
Mof_H 	H 	0.5781	0	-0	-0.02
Mof_C 	C 	-0	0.6137	-0	0.098
Mof_H 	H 	-0	0.5781	-0	-0.02
Mof_C 	C 	0.3863	0.3863	-0	0.103
Mof_H 	H 	0.4219	0.4219	-0	-0.02
Mof_C 	C 	0.6774	0.1063	0.25	0.143
Mof_N 	N 	0.6762	0.1592	0.25	-0.025
Mof_C 	C 	0.8937	0.5711	0.25	0.143
Mof_N 	N 	0.8408	0.517	0.25	-0.025
Mof_C 	C 	0.4289	0.3226	0.25	0.143
Mof_N 	N 	0.483	0.3238	0.25	-0.025
Mof_C 	C 	0.3226	0.8937	0.75	0.143
Mof_N 	N 	0.3238	0.8408	0.75	-0.025
Mof_C 	C 	0.1063	0.4289	0.75	0.143
Mof_N 	N 	0.1592	0.483	0.75	-0.025
Mof_C 	C 	0.5711	0.6774	0.75	0.143
Mof_N 	N 	0.517	0.6762	0.75	-0.025
Mof_C 	C 	0.1063	0.6774	0.75	0.143
Mof_N 	N 	0.1592	0.6762	0.75	-0.025
Mof_C 	C 	0.5711	0.8937	0.75	0.143
Mof_N 	N 	0.517	0.8408	0.75	-0.025
Mof_C 	C 	0.3226	0.4289	0.75	0.143
Mof_N 	N 	0.3238	0.483	0.75	-0.025
Mof_C 	C 	0.8937	0.3226	0.25	0.143
Mof_N 	N 	0.8408	0.3238	0.25	-0.025
Mof_C 	C 	0.4289	0.1063	0.25	0.143
Mof_N 	N 	0.483	0.1592	0.25	-0.025
Mof_C 	C 	0.6774	0.5711	0.25	0.143
Mof_N 	N 	0.6762	0.517	0.25	-0.025
Mof_C 	C 	0.54805	0.0961	0.411	0.16
Mof_N 	N 	0.52165	0.0433	0.3742	-0.022
Mof_C 	C 	0.9039	0.45195	0.411	0.161
Mof_N 	N 	0.9567	0.47835	0.3742	-0.022
Mof_C 	C 	0.54805	0.45195	0.411	0.16
Mof_N 	N 	0.52165	0.47835	0.3742	-0.022
Mof_C 	C 	0.45195	0.9039	0.911	0.161
Mof_N 	N 	0.47835	0.9567	0.8742	-0.022
Mof_C 	C 	0.0961	0.54805	0.911	0.161
Mof_N 	N 	0.0433	0.52165	0.8742	-0.022
Mof_C 	C 	0.45195	0.54805	0.911	0.161
Mof_N 	N 	0.47835	0.52165	0.8742	-0.022
Mof_C 	C 	0.0961	0.54805	0.589	0.16
Mof_N 	N 	0.0433	0.52165	0.6258	-0.022
Mof_C 	C 	0.45195	0.9039	0.589	0.161
Mof_N 	N 	0.47835	0.9567	0.6258	-0.022
Mof_C 	C 	0.45195	0.54805	0.589	0.16
Mof_N 	N 	0.47835	0.52165	0.6258	-0.022
Mof_C 	C 	0.9039	0.45195	0.089	0.161
Mof_N 	N 	0.9567	0.47835	0.1258	-0.022
Mof_C 	C 	0.54805	0.0961	0.089	0.16
Mof_N 	N 	0.52165	0.0433	0.1258	-0.022
Mof_C 	C 	0.54805	0.45195	0.089	0.16
Mof_N 	N 	0.52165	0.47835	0.1258	-0.022
_end
