data_functionalizedCrystal
_audit_creation_method	'EQeq! by Chris Wilmer'
_symmetry_space_group_name_H-M	'P1'
_symmetry_Int_Tables_number	1
_symmetry_cell_setting	triclinic
loop_
_symmetry_equiv_pos_as_xyz
  x,y,z
_cell_length_a	18.5386
_cell_length_b	18.6236
_cell_length_c	27.2733
_cell_angle_alpha	92.986
_cell_angle_beta	107.871
_cell_angle_gamma	107.624
loop_
_atom_site_label
_atom_site_type_symbol
_atom_site_fract_x
_atom_site_fract_y
_atom_site_fract_z
_atom_site_charge
Mof_Gd	Gd	0.51076	0.23482	0.89861	1.832
Mof_O 	O 	0.6488	0.2773	0.95356	-0.896
Mof_C 	C 	0.6974	0.3459	0.9628	0.653
Mof_O 	O 	0.7598	0.3717	0.00192	-1.172
Mof_C 	C 	0.6762	0.3987	0.926	-0.363
Mof_H 	H 	0.7244	0.4291	0.9185	0.052
Mof_H 	H 	0.6562	0.4343	0.9419	0.04
Mof_N 	N 	0.6113	0.3517	0.8757	-0.106
Mof_C 	C 	0.5703	0.4002	0.8464	-0.249
Mof_H 	H 	0.5987	0.4236	0.8228	0.099
Mof_H 	H 	0.5709	0.4417	0.8709	0.098
Mof_C 	C 	0.4808	0.3508	0.8136	0.4
Mof_O 	O 	0.4478	0.2921	0.8294	-0.455
Mof_O 	O 	0.4481	0.3767	0.7746	-0.288
Mof_C 	C 	0.6535	0.3215	0.845	-0.13
Mof_H 	H 	0.6893	0.297	0.8672	0.02
Mof_H 	H 	0.6866	0.3637	0.8323	0.051
Mof_C 	C 	0.5896	0.2638	0.7993	0.136
Mof_C 	C 	0.5814	0.2697	0.7473	-0.201
Mof_H 	H 	0.6176	0.3112	0.7387	0.095
Mof_C 	C 	0.5198	0.2143	0.7079	0.159
Mof_C 	C 	0.4719	0.1561	0.7227	-0.232
Mof_H 	H 	0.4294	0.1173	0.6967	0.098
Mof_C 	C 	0.4827	0.1512	0.774	0.166
Mof_N 	N 	0.5421	0.2057	0.8135	-0.247
Mof_C 	C 	0.4503	0.0839	0.7949	-0.189
Mof_H 	H 	0.4928	0.0615	0.8097	0.076
Mof_H 	H 	0.4062	0.0455	0.7665	0.08
Mof_N 	N 	0.4188	0.1035	0.8368	-0.102
Mof_C 	C 	0.4158	0.0453	0.8686	-0.189
Mof_H 	H 	0.393	0.9943	0.8468	0.059
Mof_H 	H 	0.382	0.048	0.8901	-0.006
Mof_C 	C 	0.5069	0.0602	0.9052	0.463
Mof_O 	O 	0.553	0.1263	0.91776	-0.845
Mof_O 	O 	0.5243	0.0047	0.9243	-0.447
Mof_O 	O 	0.3701	0.1912	0.8894	-0.628
Mof_O 	O 	0.2449	0.131	0.846	-0.73
Mof_C 	C 	0.3181	0.1476	0.8555	0.619
Mof_C 	C 	0.3394	0.1126	0.8129	-0.387
Mof_H 	H 	0.298	0.0623	0.7961	0.123
Mof_H 	H 	0.3416	0.146	0.786	0.123
Mof_C 	C 	0.5114	0.2217	0.6554	-0.08
Mof_C 	C 	0.5097	0.2314	0.6113	0.006
Mof_C 	C 	0.5077	0.243	0.5592	0.015
Mof_C 	C 	0.4338	0.2145	0.5172	-0.055
Mof_H 	H 	0.3843	0.1891	0.5221	0.038
Mof_C 	C 	0.4389	0.2265	0.4681	-0.057
Mof_H 	H 	0.392	0.2036	0.4383	0.043
Mof_C 	C 	0.5048	0.2675	0.4608	0.017
Mof_C 	C 	0.5817	0.2908	0.503	-0.057
Mof_H 	H 	0.6313	0.3118	0.4971	0.035
Mof_C 	C 	0.5785	0.2805	0.5532	-0.058
Mof_H 	H 	0.6262	0.2999	0.5828	0.04
Mof_C 	C 	0.5072	0.2803	0.4101	-0.001
Mof_C 	C 	0.5021	0.2893	0.3652	-0.073
Mof_C 	C 	0.4973	0.3027	0.313	0.151
Mof_C 	C 	0.543	0.3661	0.3028	-0.224
Mof_H 	H 	0.5835	0.4031	0.3308	0.096
Mof_C 	C 	0.5324	0.3792	0.251	0.163
Mof_N 	N 	0.4794	0.323	0.2108	-0.253
Mof_C 	C 	0.4353	0.2594	0.2212	0.154
Mof_C 	C 	0.439	0.2449	0.2718	-0.204
Mof_H 	H 	0.4048	0.1995	0.278	0.097
Mof_C 	C 	0.376	0.2017	0.1749	-0.178
Mof_H 	H 	0.3488	0.1552	0.1871	0.071
Mof_H 	H 	0.3344	0.2227	0.1555	0.068
Mof_N 	N 	0.4162	0.181	0.1393	-0.097
Mof_C 	C 	0.3536	0.1509	0.0867	-0.241
Mof_H 	H 	0.3011	0.1235	0.0904	0.069
Mof_H 	H 	0.3683	0.1145	0.0673	0.036
Mof_C 	C 	0.3463	0.2197	0.0554	0.416
Mof_O 	O 	0.3839	0.2857	0.0751	-0.475
Mof_O 	O 	0.2988	0.2	0.0096	-0.372
Mof_C 	C 	0.4618	0.1339	0.1608	-0.297
Mof_H 	H 	0.463	0.1005	0.1319	0.104
Mof_H 	H 	0.4341	0.1007	0.1814	0.111
Mof_C 	C 	0.5475	0.1776	0.1955	0.434
Mof_O 	O 	0.5779	0.2433	0.1884	-0.489
Mof_O 	O 	0.5816	0.1422	0.2265	-0.315
Mof_C 	C 	0.5779	0.4468	0.237	-0.211
Mof_H 	H 	0.6202	0.4792	0.2691	0.087
Mof_H 	H 	0.5419	0.4758	0.2219	0.093
Mof_N 	N 	0.6167	0.4312	0.1987	-0.091
Mof_C 	C 	0.6878	0.4093	0.2231	-0.344
Mof_H 	H 	0.6766	0.3743	0.248	0.123
Mof_H 	H 	0.7338	0.4554	0.2428	0.115
Mof_C 	C 	0.7094	0.3708	0.1828	0.509
Mof_O 	O 	0.6553	0.3532	0.1353	-0.568
Mof_O 	O 	0.7732	0.3566	0.196	-0.732
Mof_C 	C 	0.642	0.498	0.1748	-0.248
Mof_H 	H 	0.6858	0.4954	0.162	0.023
Mof_H 	H 	0.6629	0.5446	0.2011	0.092
Mof_C 	C 	0.5733	0.5015	0.1309	0.352
Mof_O 	O 	0.5856	0.5638	0.1127	-0.71
Mof_O 	O 	0.5063	0.4363	0.1112	-0.411
Mof_Gd	Gd	0.51597	0.31107	0.12627	1.831
Mof_Gd	Gd	0.8763	0.21949	0.89369	1.802
Mof_O 	O 	0.8693	0.1309	0.8252	-0.45
Mof_C 	C 	0.821	0.0633	0.8104	0.417
Mof_O 	O 	0.819	0.0198	0.7726	-0.294
Mof_C 	C 	0.7686	0.0331	0.8406	-0.302
Mof_H 	H 	0.7169	0.9971	0.8164	0.11
Mof_H 	H 	0.7938	0.0038	0.8656	0.118
Mof_N 	N 	0.7515	0.0905	0.8696	-0.084
Mof_C 	C 	0.7394	0.0675	0.9183	-0.376
Mof_H 	H 	0.7752	0.0385	0.9337	0.068
Mof_H 	H 	0.6831	0.034	0.9106	0.069
Mof_C 	C 	0.7578	0.1383	0.957	0.649
Mof_O 	O 	0.7953	0.2029	0.94793	-0.893
Mof_O 	O 	0.7378	0.1301	0.99684	-1.183
Mof_C 	C 	0.6796	0.1037	0.837	-0.144
Mof_H 	H 	0.6631	0.1364	0.8582	0.032
Mof_H 	H 	0.635	0.0544	0.8233	0.058
Mof_C 	C 	0.6957	0.1419	0.7924	0.148
Mof_C 	C 	0.6516	0.1082	0.7402	-0.204
Mof_H 	H 	0.6092	0.0607	0.7323	0.097
Mof_C 	C 	0.6697	0.1437	0.7009	0.148
Mof_C 	C 	0.7314	0.2125	0.7166	-0.214
Mof_H 	H 	0.7461	0.239	0.6904	0.089
Mof_C 	C 	0.7735	0.2456	0.7681	0.156
Mof_N 	N 	0.7548	0.2068	0.8065	-0.241
Mof_C 	C 	0.8259	0.3224	0.7877	-0.186
Mof_H 	H 	0.7982	0.3518	0.8018	0.074
Mof_H 	H 	0.8404	0.3467	0.7591	0.071
Mof_N 	N 	0.903	0.3231	0.8314	-0.107
Mof_C 	C 	0.9367	0.3971	0.8637	-0.229
Mof_H 	H 	0.9328	0.4373	0.8417	0.08
Mof_H 	H 	0.9941	0.4073	0.8839	0.003
Mof_C 	C 	0.8879	0.3973	0.9019	0.488
Mof_O 	O 	0.8558	0.337	0.91403	-0.841
Mof_O 	O 	0.8959	0.4628	0.9224	-0.475
Mof_O 	O 	0.0061	0.2605	0.8859	-0.53
Mof_O 	O 	0.0891	0.3031	0.8411	-0.704
Mof_C 	C 	0.0221	0.2893	0.848	0.436
Mof_C 	C 	0.9536	0.3062	0.8048	-0.275
Mof_H 	H 	0.9764	0.3503	0.789	0.082
Mof_H 	H 	0.9226	0.2613	0.777	0.087
Mof_C 	C 	0.6276	0.1107	0.646	-0.074
Mof_C 	C 	0.5925	0.0786	0.6035	0.003
Mof_C 	C 	0.5443	0.0384	0.5511	0.018
Mof_C 	C 	0.4992	0.9659	0.5409	-0.058
Mof_H 	H 	0.4966	0.9393	0.5694	0.047
Mof_C 	C 	0.5446	0.0736	0.5091	-0.057
Mof_H 	H 	0.5754	0.1261	0.514	0.048
Mof_Gd	Gd	0.11139	0.24585	0.12051	1.784
Mof_O 	O 	0.1155	0.3407	0.1834	-0.465
Mof_C 	C 	0.1594	0.4142	0.1904	0.367
Mof_O 	O 	0.1623	0.4634	0.2241	-0.323
Mof_C 	C 	0.2086	0.438	0.1547	-0.261
Mof_H 	H 	0.1789	0.4601	0.1263	0.104
Mof_H 	H 	0.2601	0.4783	0.1749	0.102
Mof_N 	N 	0.2255	0.3763	0.132	-0.101
Mof_C 	C 	0.2303	0.3835	0.0771	-0.313
Mof_H 	H 	0.1937	0.41	0.0585	0.051
Mof_H 	H 	0.2858	0.4134	0.0795	0.087
Mof_C 	C 	0.2062	0.3046	0.0481	0.533
Mof_O 	O 	0.2074	0.3042	0.002	-0.486
Mof_O 	O 	0.1876	0.2497	0.0663	-0.528
Mof_C 	C 	0.305	0.3752	0.1675	-0.172
Mof_H 	H 	0.3436	0.4279	0.1794	0.071
Mof_H 	H 	0.3273	0.3456	0.1486	0.071
Mof_C 	C 	0.2927	0.3394	0.2134	0.147
Mof_C 	C 	0.3391	0.3802	0.2631	-0.2
Mof_H 	H 	0.3775	0.4297	0.2687	0.096
Mof_C 	C 	0.3252	0.3425	0.3049	0.133
Mof_C 	C 	0.2676	0.2736	0.2965	-0.213
Mof_H 	H 	0.2561	0.2515	0.325	0.078
Mof_C 	C 	0.2241	0.2344	0.2442	0.143
Mof_N 	N 	0.238	0.2702	0.2033	-0.247
Mof_C 	C 	0.166	0.1611	0.2309	-0.202
Mof_H 	H 	0.1586	0.1431	0.2631	0.078
Mof_H 	H 	0.186	0.1256	0.2148	0.087
Mof_N 	N 	0.0867	0.1586	0.1939	-0.089
Mof_C 	C 	0.0412	0.193	0.2199	-0.303
Mof_H 	H 	0.0143	0.1556	0.2387	0.071
Mof_H 	H 	0.0789	0.2387	0.2456	0.042
Mof_C 	C 	0.9807	0.2143	0.1796	0.462
Mof_O 	O 	0.981	0.2099	0.1309	-0.565
Mof_O 	O 	0.9285	0.2341	0.1937	-0.841
Mof_O 	O 	0.1062	0.1135	0.1042	-0.392
Mof_O 	O 	0.0435	0.9935	0.1056	-0.306
Mof_C 	C 	0.0634	0.0603	0.1268	0.352
Mof_C 	C 	0.0393	0.0823	0.1695	-0.271
Mof_H 	H 	0.9818	0.0779	0.1561	0.105
Mof_H 	H 	0.0457	0.0474	0.1955	0.12
Mof_C 	C 	0.369	0.3843	0.3564	-0.075
Mof_C 	C 	0.4067	0.4189	0.4003	-0.009
Mof_C 	C 	0.4543	0.463	0.4515	0.026
Mof_C 	C 	0.5302	0.4819	0.4659	-0.062
Mof_H 	H 	0.5532	0.4699	0.4413	0.047
Mof_C 	C 	0.417	0.4801	0.4835	-0.058
Mof_H 	H 	0.3603	0.4678	0.4731	0.031
Mof_C 	C 	0.5124	0.2459	0.0282	0.54
Mof_O 	O 	0.5102	0.2127	0.98472	-0.716
Mof_O 	O 	0.5137	0.2113	0.06722	-0.571
Mof_O 	O 	0.5162	0.3168	0.0352	-0.512
Mof_O 	O 	0.5075	0.3494	0.9415	-0.91
Mof_H 	H 	0.5101	0.3447	0.9724	0.365
Mof_H 	H 	0.4822	0.3771	0.9257	0.332
Mof_C 	C 	0.0098	0.2671	0.0241	0.507
Mof_O 	O 	0.0531	0.3214	0.0634	-0.508
Mof_O 	O 	0.9671	0.282	0.98214	-0.726
Mof_O 	O 	0.0135	0.1988	0.0301	-0.504
Mof_Na	Na	0.63792	0.17586	0.0054	2.977
Mof_Na	Na	0.86473	0.32655	0.00293	2.964
Mof_Na	Na	0.82509	0.2823	0.14436	3.292
Mof_Na	Na	0.8182	0.5019	0.0516	2.482
Mof_Na	Na	0.7411	0.0226	0.0473	2.858
Mof_Na	Na	0.8297	0.7845	0.1457	2.556
Mof_Na	Na	0.6684	0.5813	0.0577	3.334
Mof_Na	Na	0.9763	0.3093	0.2922	1.198
Mof_O 	O 	0.8623	0.251	0.07081	-1.632
Mof_H 	H 	0.8253	0.2148	0.0491	0.37
Mof_H 	H 	0.8997	0.2377	0.0899	0.492
Mof_O 	O 	0.7111	0.2804	0.07361	-1.7
Mof_H 	H 	0.6939	0.3028	0.0926	0.525
Mof_H 	H 	0.7256	0.3076	0.0523	0.403
Mof_O 	O 	0.6031	0.1195	0.0734	-0.931
Mof_H 	H 	0.5637	0.13	0.0767	0.362
Mof_O 	O 	0.9247	0.1246	0.9371	-0.959
Mof_H 	H 	0.954	0.1437	0.9681	0.427
Mof_H 	H 	0.934	0.0877	0.9238	0.438
Mof_O 	O 	0.9697	0.4153	0.071	-0.914
Mof_H 	H 	0.0014	0.445	0.0587	0.322
Mof_O 	O 	0.9259	0.5562	0.0158	-0.735
Mof_H 	H 	0.9171	0.5284	0.9878	0.223
Mof_O 	O 	0.9142	0.4045	0.156	-1.247
Mof_H 	H 	0.8888	0.4355	0.1515	0.359
Mof_H 	H 	0.9304	0.4078	0.1304	0.355
Mof_O 	O 	0.6671	0.455	0.056	-0.805
Mof_O 	O 	0.748	0.1654	0.1559	-0.916
Mof_H 	H 	0.7037	0.1496	0.1313	0.265
Mof_O 	O 	0.6011	0.9519	0.0121	-0.78
Mof_H 	H 	0.5798	0.9691	0.9856	0.233
Mof_O 	O 	0.7932	0.6093	0.0661	-2.072
Mof_H 	H 	0.8281	0.6349	0.0937	0.624
Mof_H 	H 	0.7916	0.6374	0.0432	0.614
Mof_O 	O 	0.6931	0.7183	0.0627	-0.978
Mof_H 	H 	0.6739	0.7454	0.0768	0.336
Mof_O 	O 	0.7379	0.6976	0.182	-0.564
Mof_O 	O 	0.7721	0.9194	0.0626	-1.359
Mof_H 	H 	0.7667	0.9045	0.0902	0.455
Mof_H 	H 	0.7498	0.8816	0.0386	0.5
Mof_O 	O 	0.8228	0.4945	0.1403	-0.605
Mof_O 	O 	0.8889	0.0676	0.0487	-0.662
Mof_H 	H 	0.924	0.1044	0.0435	0.283
Mof_O 	O 	0.838	0.3291	0.295	-0.545
Mof_H 	H 	0.8128	0.3375	0.2658	0.223
Mof_O 	O 	0.8266	0.0673	0.1425	-0.684
Mof_H 	H 	0.8117	0.0998	0.1554	0.233
Mof_O 	O 	0.6134	0.5821	0.9748	-0.701
Mof_O 	O 	0.9411	0.8825	0.1839	-0.79
Mof_H 	H 	0.9652	0.8747	0.2136	0.27
Mof_Gd	Gd	0.48924	0.76518	0.10139	1.831
Mof_O 	O 	0.3512	0.7227	0.04644	-0.897
Mof_C 	C 	0.3026	0.6541	0.0372	0.652
Mof_O 	O 	0.2402	0.6283	0.99808	-1.173
Mof_C 	C 	0.3238	0.6013	0.074	-0.363
Mof_H 	H 	0.2756	0.5709	0.0815	0.052
Mof_H 	H 	0.3438	0.5657	0.0581	0.04
Mof_N 	N 	0.3887	0.6483	0.1243	-0.106
Mof_C 	C 	0.4297	0.5998	0.1536	-0.249
Mof_H 	H 	0.4013	0.5764	0.1772	0.099
Mof_H 	H 	0.4291	0.5583	0.1291	0.098
Mof_C 	C 	0.5192	0.6492	0.1864	0.4
Mof_O 	O 	0.5522	0.7079	0.1706	-0.455
Mof_O 	O 	0.5519	0.6233	0.2254	-0.288
Mof_C 	C 	0.3465	0.6785	0.155	-0.13
Mof_H 	H 	0.3107	0.703	0.1328	0.02
Mof_H 	H 	0.3134	0.6363	0.1677	0.051
Mof_C 	C 	0.4104	0.7362	0.2007	0.136
Mof_C 	C 	0.4186	0.7303	0.2527	-0.201
Mof_H 	H 	0.3824	0.6888	0.2613	0.095
Mof_C 	C 	0.4802	0.7857	0.2921	0.159
Mof_C 	C 	0.5281	0.8439	0.2773	-0.232
Mof_H 	H 	0.5706	0.8827	0.3033	0.098
Mof_C 	C 	0.5173	0.8488	0.226	0.166
Mof_N 	N 	0.4579	0.7943	0.1865	-0.247
Mof_C 	C 	0.5497	0.9161	0.2051	-0.189
Mof_H 	H 	0.5072	0.9385	0.1903	0.076
Mof_H 	H 	0.5938	0.9545	0.2335	0.08
Mof_N 	N 	0.5812	0.8965	0.1632	-0.102
Mof_C 	C 	0.5842	0.9547	0.1314	-0.189
Mof_H 	H 	0.607	0.0057	0.1532	0.059
Mof_H 	H 	0.618	0.952	0.1099	-0.006
Mof_C 	C 	0.4931	0.9398	0.0948	0.463
Mof_O 	O 	0.447	0.8737	0.08224	-0.845
Mof_O 	O 	0.4757	0.9953	0.0757	-0.447
Mof_O 	O 	0.6299	0.8088	0.1106	-0.628
Mof_O 	O 	0.7551	0.869	0.154	-0.73
Mof_C 	C 	0.6819	0.8524	0.1445	0.619
Mof_C 	C 	0.6606	0.8874	0.1871	-0.387
Mof_H 	H 	0.702	0.9377	0.2039	0.123
Mof_H 	H 	0.6584	0.854	0.214	0.123
Mof_C 	C 	0.4886	0.7783	0.3446	-0.08
Mof_C 	C 	0.4903	0.7686	0.3887	0.006
Mof_C 	C 	0.4923	0.757	0.4408	0.015
Mof_C 	C 	0.5662	0.7855	0.4828	-0.055
Mof_H 	H 	0.6157	0.8109	0.4779	0.038
Mof_C 	C 	0.5611	0.7735	0.5319	-0.057
Mof_H 	H 	0.608	0.7964	0.5617	0.043
Mof_C 	C 	0.4952	0.7325	0.5392	0.017
Mof_C 	C 	0.4183	0.7092	0.497	-0.057
Mof_H 	H 	0.3687	0.6882	0.5029	0.035
Mof_C 	C 	0.4215	0.7195	0.4468	-0.058
Mof_H 	H 	0.3738	0.7001	0.4172	0.04
Mof_C 	C 	0.4928	0.7197	0.5899	-0.001
Mof_C 	C 	0.4979	0.7107	0.6348	-0.073
Mof_C 	C 	0.5027	0.6973	0.687	0.151
Mof_C 	C 	0.457	0.6339	0.6972	-0.224
Mof_H 	H 	0.4165	0.5969	0.6692	0.096
Mof_C 	C 	0.4676	0.6208	0.749	0.163
Mof_N 	N 	0.5206	0.677	0.7892	-0.253
Mof_C 	C 	0.5647	0.7406	0.7788	0.154
Mof_C 	C 	0.561	0.7551	0.7282	-0.204
Mof_H 	H 	0.5952	0.8005	0.722	0.097
Mof_C 	C 	0.624	0.7983	0.8251	-0.178
Mof_H 	H 	0.6512	0.8448	0.8129	0.071
Mof_H 	H 	0.6656	0.7773	0.8445	0.068
Mof_N 	N 	0.5838	0.819	0.8607	-0.097
Mof_C 	C 	0.6464	0.8491	0.9133	-0.241
Mof_H 	H 	0.6989	0.8765	0.9096	0.069
Mof_H 	H 	0.6317	0.8855	0.9327	0.036
Mof_C 	C 	0.6537	0.7803	0.9446	0.416
Mof_O 	O 	0.6161	0.7143	0.9249	-0.475
Mof_O 	O 	0.7012	0.8	0.9904	-0.372
Mof_C 	C 	0.5382	0.8661	0.8392	-0.297
Mof_H 	H 	0.537	0.8995	0.8681	0.104
Mof_H 	H 	0.5659	0.8993	0.8186	0.111
Mof_C 	C 	0.4525	0.8224	0.8045	0.434
Mof_O 	O 	0.4221	0.7567	0.8116	-0.489
Mof_O 	O 	0.4184	0.8578	0.7735	-0.315
Mof_C 	C 	0.4221	0.5532	0.763	-0.211
Mof_H 	H 	0.3798	0.5208	0.7309	0.087
Mof_H 	H 	0.4581	0.5242	0.7781	0.093
Mof_N 	N 	0.3833	0.5688	0.8013	-0.091
Mof_C 	C 	0.3122	0.5907	0.7769	-0.344
Mof_H 	H 	0.3234	0.6257	0.752	0.123
Mof_H 	H 	0.2662	0.5446	0.7572	0.115
Mof_C 	C 	0.2906	0.6292	0.8172	0.509
Mof_O 	O 	0.3447	0.6468	0.8647	-0.568
Mof_O 	O 	0.2268	0.6434	0.804	-0.732
Mof_C 	C 	0.358	0.502	0.8252	-0.248
Mof_H 	H 	0.3142	0.5046	0.838	0.023
Mof_H 	H 	0.3371	0.4554	0.7989	0.092
Mof_C 	C 	0.4267	0.4985	0.8691	0.352
Mof_O 	O 	0.4144	0.4362	0.8873	-0.71
Mof_O 	O 	0.4937	0.5637	0.8888	-0.411
Mof_Gd	Gd	0.48403	0.68893	0.87373	1.831
Mof_Gd	Gd	0.1237	0.78051	0.10631	1.802
Mof_O 	O 	0.1307	0.8691	0.1748	-0.45
Mof_C 	C 	0.179	0.9367	0.1896	0.417
Mof_O 	O 	0.181	0.9802	0.2274	-0.294
Mof_C 	C 	0.2314	0.9669	0.1594	-0.302
Mof_H 	H 	0.2831	0.0029	0.1836	0.11
Mof_H 	H 	0.2062	0.9962	0.1344	0.118
Mof_N 	N 	0.2485	0.9095	0.1304	-0.084
Mof_C 	C 	0.2606	0.9325	0.0817	-0.376
Mof_H 	H 	0.2248	0.9615	0.0663	0.068
Mof_H 	H 	0.3169	0.966	0.0894	0.069
Mof_C 	C 	0.2422	0.8617	0.043	0.649
Mof_O 	O 	0.2047	0.7971	0.05207	-0.893
Mof_O 	O 	0.2622	0.8699	0.00316	-1.183
Mof_C 	C 	0.3204	0.8963	0.163	-0.144
Mof_H 	H 	0.3369	0.8636	0.1418	0.032
Mof_H 	H 	0.365	0.9456	0.1767	0.058
Mof_C 	C 	0.3043	0.8581	0.2076	0.148
Mof_C 	C 	0.3484	0.8918	0.2598	-0.204
Mof_H 	H 	0.3908	0.9393	0.2677	0.097
Mof_C 	C 	0.3303	0.8563	0.2991	0.148
Mof_C 	C 	0.2686	0.7875	0.2834	-0.214
Mof_H 	H 	0.2539	0.761	0.3096	0.089
Mof_C 	C 	0.2265	0.7544	0.2319	0.156
Mof_N 	N 	0.2452	0.7932	0.1935	-0.241
Mof_C 	C 	0.1741	0.6776	0.2123	-0.186
Mof_H 	H 	0.2018	0.6482	0.1982	0.074
Mof_H 	H 	0.1596	0.6533	0.2409	0.071
Mof_N 	N 	0.097	0.6769	0.1686	-0.107
Mof_C 	C 	0.0633	0.6029	0.1363	-0.229
Mof_H 	H 	0.0672	0.5627	0.1583	0.08
Mof_H 	H 	0.0059	0.5927	0.1161	0.003
Mof_C 	C 	0.1121	0.6027	0.0981	0.488
Mof_O 	O 	0.1442	0.663	0.08597	-0.841
Mof_O 	O 	0.1041	0.5372	0.0776	-0.475
Mof_O 	O 	0.9939	0.7395	0.1141	-0.53
Mof_O 	O 	0.9109	0.6969	0.1589	-0.704
Mof_C 	C 	0.9779	0.7107	0.152	0.436
Mof_C 	C 	0.0464	0.6938	0.1952	-0.275
Mof_H 	H 	0.0236	0.6497	0.211	0.082
Mof_H 	H 	0.0774	0.7387	0.223	0.087
Mof_C 	C 	0.3724	0.8893	0.354	-0.074
Mof_C 	C 	0.4075	0.9214	0.3965	0.003
Mof_C 	C 	0.4557	0.9616	0.4489	0.018
Mof_C 	C 	0.5008	0.0341	0.4591	-0.058
Mof_H 	H 	0.5034	0.0607	0.4306	0.047
Mof_C 	C 	0.4554	0.9264	0.4909	-0.057
Mof_H 	H 	0.4246	0.8739	0.486	0.048
Mof_Gd	Gd	0.88861	0.75415	0.87949	1.784
Mof_O 	O 	0.8845	0.6593	0.8166	-0.465
Mof_C 	C 	0.8406	0.5858	0.8096	0.367
Mof_O 	O 	0.8377	0.5366	0.7759	-0.323
Mof_C 	C 	0.7914	0.562	0.8453	-0.261
Mof_H 	H 	0.8211	0.5399	0.8737	0.104
Mof_H 	H 	0.7399	0.5217	0.8251	0.102
Mof_N 	N 	0.7745	0.6237	0.868	-0.101
Mof_C 	C 	0.7697	0.6165	0.9229	-0.313
Mof_H 	H 	0.8063	0.59	0.9415	0.051
Mof_H 	H 	0.7142	0.5866	0.9205	0.087
Mof_C 	C 	0.7938	0.6954	0.9519	0.533
Mof_O 	O 	0.7926	0.6958	0.998	-0.486
Mof_O 	O 	0.8124	0.7503	0.9337	-0.528
Mof_C 	C 	0.695	0.6248	0.8325	-0.172
Mof_H 	H 	0.6564	0.5721	0.8206	0.071
Mof_H 	H 	0.6727	0.6544	0.8514	0.071
Mof_C 	C 	0.7073	0.6606	0.7866	0.147
Mof_C 	C 	0.6609	0.6198	0.7369	-0.2
Mof_H 	H 	0.6225	0.5703	0.7313	0.096
Mof_C 	C 	0.6748	0.6575	0.6951	0.133
Mof_C 	C 	0.7324	0.7264	0.7035	-0.213
Mof_H 	H 	0.7439	0.7485	0.675	0.078
Mof_C 	C 	0.7759	0.7656	0.7558	0.143
Mof_N 	N 	0.762	0.7298	0.7967	-0.247
Mof_C 	C 	0.834	0.8389	0.7691	-0.202
Mof_H 	H 	0.8414	0.8569	0.7369	0.078
Mof_H 	H 	0.814	0.8744	0.7852	0.087
Mof_N 	N 	0.9133	0.8414	0.8061	-0.089
Mof_C 	C 	0.9588	0.807	0.7801	-0.303
Mof_H 	H 	0.9857	0.8444	0.7613	0.071
Mof_H 	H 	0.9211	0.7613	0.7544	0.042
Mof_C 	C 	0.0193	0.7857	0.8204	0.462
Mof_O 	O 	0.019	0.7901	0.8691	-0.565
Mof_O 	O 	0.0715	0.7659	0.8063	-0.841
Mof_O 	O 	0.8938	0.8865	0.8958	-0.392
Mof_O 	O 	0.9565	0.0065	0.8944	-0.306
Mof_C 	C 	0.9366	0.9397	0.8732	0.352
Mof_C 	C 	0.9607	0.9177	0.8305	-0.271
Mof_H 	H 	0.0182	0.9221	0.8439	0.105
Mof_H 	H 	0.9543	0.9526	0.8045	0.12
Mof_C 	C 	0.631	0.6157	0.6436	-0.075
Mof_C 	C 	0.5933	0.5811	0.5997	-0.009
Mof_C 	C 	0.5457	0.537	0.5485	0.026
Mof_C 	C 	0.4698	0.5181	0.5341	-0.062
Mof_H 	H 	0.4468	0.5301	0.5587	0.047
Mof_C 	C 	0.583	0.5199	0.5165	-0.058
Mof_H 	H 	0.6397	0.5322	0.5269	0.031
Mof_C 	C 	0.4876	0.7541	0.9718	0.54
Mof_O 	O 	0.4898	0.7873	0.01528	-0.716
Mof_O 	O 	0.4863	0.7887	0.93278	-0.571
Mof_O 	O 	0.4838	0.6832	0.9648	-0.512
Mof_O 	O 	0.4925	0.6506	0.0585	-0.91
Mof_H 	H 	0.4899	0.6553	0.0276	0.365
Mof_H 	H 	0.5178	0.6229	0.0743	0.332
Mof_C 	C 	0.9902	0.7329	0.9759	0.507
Mof_O 	O 	0.9469	0.6786	0.9366	-0.508
Mof_O 	O 	0.0329	0.718	0.01786	-0.726
Mof_O 	O 	0.9865	0.8012	0.9699	-0.504
Mof_Na	Na	0.36208	0.82414	0.9946	2.977
Mof_Na	Na	0.13527	0.67345	0.99707	2.964
Mof_Na	Na	0.17491	0.7177	0.85564	3.292
Mof_Na	Na	0.1818	0.4981	0.9484	2.482
Mof_Na	Na	0.2589	0.9774	0.9527	2.858
Mof_Na	Na	0.1703	0.2155	0.8543	2.556
Mof_Na	Na	0.3316	0.4187	0.9423	3.334
Mof_Na	Na	0.0237	0.6907	0.7078	1.198
Mof_O 	O 	0.1377	0.749	0.92919	-1.632
Mof_H 	H 	0.1747	0.7852	0.9509	0.37
Mof_H 	H 	0.1003	0.7623	0.9101	0.492
Mof_O 	O 	0.2889	0.7196	0.92639	-1.7
Mof_H 	H 	0.3061	0.6972	0.9074	0.525
Mof_H 	H 	0.2744	0.6924	0.9477	0.403
Mof_O 	O 	0.3969	0.8805	0.9266	-0.931
Mof_H 	H 	0.4363	0.87	0.9233	0.362
Mof_O 	O 	0.0753	0.8754	0.0629	-0.959
Mof_H 	H 	0.046	0.8563	0.0319	0.427
Mof_H 	H 	0.066	0.9123	0.0762	0.438
Mof_O 	O 	0.0303	0.5847	0.929	-0.914
Mof_H 	H 	0.9986	0.555	0.9413	0.322
Mof_O 	O 	0.0741	0.4438	0.9842	-0.735
Mof_H 	H 	0.0829	0.4716	0.0122	0.223
Mof_O 	O 	0.0858	0.5955	0.844	-1.247
Mof_H 	H 	0.1112	0.5645	0.8485	0.359
Mof_H 	H 	0.0696	0.5922	0.8696	0.355
Mof_O 	O 	0.3329	0.545	0.944	-0.805
Mof_O 	O 	0.252	0.8346	0.8441	-0.916
Mof_H 	H 	0.2963	0.8504	0.8687	0.265
Mof_O 	O 	0.3989	0.0481	0.9879	-0.78
Mof_H 	H 	0.4202	0.0309	0.0144	0.233
Mof_O 	O 	0.2068	0.3907	0.9339	-2.072
Mof_H 	H 	0.1719	0.3651	0.9063	0.624
Mof_H 	H 	0.2084	0.3626	0.9568	0.614
Mof_O 	O 	0.3069	0.2817	0.9373	-0.978
Mof_H 	H 	0.3261	0.2546	0.9232	0.336
Mof_O 	O 	0.2621	0.3024	0.818	-0.564
Mof_O 	O 	0.2279	0.0806	0.9374	-1.359
Mof_H 	H 	0.2333	0.0955	0.9098	0.455
Mof_H 	H 	0.2502	0.1184	0.9614	0.5
Mof_O 	O 	0.1772	0.5055	0.8597	-0.605
Mof_O 	O 	0.1111	0.9324	0.9513	-0.662
Mof_H 	H 	0.076	0.8956	0.9565	0.283
Mof_O 	O 	0.162	0.6709	0.705	-0.545
Mof_H 	H 	0.1872	0.6625	0.7342	0.223
Mof_O 	O 	0.1734	0.9327	0.8575	-0.684
Mof_H 	H 	0.1883	0.9002	0.8446	0.233
Mof_O 	O 	0.3866	0.4179	0.0252	-0.701
Mof_O 	O 	0.0589	0.1175	0.8161	-0.79
Mof_H 	H 	0.0348	0.1253	0.7864	0.27
_end
