data_functionalizedCrystal
_audit_creation_method	'EQeq! by Chris Wilmer'
_symmetry_space_group_name_H-M	'P1'
_symmetry_Int_Tables_number	1
_symmetry_cell_setting	triclinic
loop_
_symmetry_equiv_pos_as_xyz
  x,y,z
_cell_length_a	30.0742
_cell_length_b	44.9301
_cell_length_c	18.4571
_cell_angle_alpha	90
_cell_angle_beta	107.961
_cell_angle_gamma	90
loop_
_atom_site_label
_atom_site_type_symbol
_atom_site_fract_x
_atom_site_fract_y
_atom_site_fract_z
_atom_site_charge
Mof_Cu	Cu	0.2386	0.46001	0.18311	0.903
Mof_Cu	Cu	0.25904	0.42649	0.30619	0.901
Mof_Cu	Cu	0.4705	0.69124	0.78947	0.9
Mof_O 	O 	0.25841	0.49369	0.25246	-0.417
Mof_O 	O 	0.27816	0.46515	0.35643	-0.423
Mof_O 	O 	0.22042	0.42225	0.1308	-0.41
Mof_O 	O 	0.23632	0.39332	0.23634	-0.408
Mof_O 	O 	0.30417	0.45331	0.19238	-0.425
Mof_O 	O 	0.32097	0.42305	0.29309	-0.415
Mof_O 	O 	0.17645	0.46244	0.19503	-0.414
Mof_O 	O 	0.19395	0.43432	0.30085	-0.41
Mof_O 	O 	0.43531	0.66294	0.7118	-0.422
Mof_O 	O 	0.49015	0.65912	0.65387	-0.418
Mof_O 	O 	0.01328	0.22013	0.85377	-0.408
Mof_O 	O 	0.05991	0.22408	0.7769	-0.415
Mof_C 	C 	0.27548	0.48947	0.3227	0.386
Mof_C 	C 	0.29509	0.51557	0.3701	-0.141
Mof_C 	C 	0.30214	0.54247	0.3361	0.061
Mof_H 	H 	0.2919	0.5443	0.2822	0.021
Mof_C 	C 	0.324	0.56645	0.3806	-0.136
Mof_H 	H 	0.3282	0.5845	0.3569	0.076
Mof_C 	C 	0.33968	0.56411	0.4597	0.095
Mof_C 	C 	0.3322	0.53779	0.4929	-0.145
Mof_H 	H 	0.3414	0.5362	0.5468	0.081
Mof_C 	C 	0.31141	0.51378	0.4488	0.067
Mof_H 	H 	0.3083	0.4956	0.473	0.017
Mof_C 	C 	0.3659	0.58861	0.5089	-0.042
Mof_C 	C 	0.35002	0.60258	0.5614	0.056
Mof_C 	C 	0.37761	0.62367	0.611	-0.06
Mof_H 	H 	0.3661	0.6331	0.6477	0.066
Mof_C 	C 	0.4207	0.63082	0.6071	-0.056
Mof_C 	C 	0.4373	0.61764	0.5518	-0.018
Mof_H 	H 	0.4668	0.6234	0.5479	0.044
Mof_C 	C 	0.4114	0.59644	0.503	-0.043
Mof_H 	H 	0.423	0.5872	0.4663	0.042
Mof_C 	C 	0.45118	0.6533	0.6628	0.356
Mof_C 	C 	0.3018	0.5994	0.5633	-0.115
Mof_H 	H 	0.2997	0.5809	0.5911	0.081
Mof_H 	H 	0.2949	0.6162	0.5928	0.074
Mof_N 	N 	0.266	0.5985	0.4905	-0.095
Mof_C 	C 	0.2572	0.6261	0.4429	0.081
Mof_H 	H 	0.2733	0.6446	0.4522	0.011
Mof_N 	N 	0.2258	0.619	0.3916	-0.095
Mof_C 	C 	0.206	0.5836	0.3917	-0.032
Mof_H 	H 	0.182	0.5733	0.3543	0.044
Mof_C 	C 	0.2354	0.5738	0.4634	0.017
Mof_H 	H 	0.2349	0.5552	0.4877	0.028
Mof_C 	C 	0.1989	0.6331	0.3132	-0.273
Mof_H 	H 	0.1742	0.6194	0.2848	0.109
Mof_H 	H 	0.2206	0.6367	0.2841	0.108
Mof_H 	H 	0.1848	0.652	0.3214	0.107
Mof_C 	C 	0.33104	0.43728	0.2422	0.359
Mof_C 	C 	0.38179	0.43635	0.2438	-0.081
Mof_C 	C 	0.39813	0.45866	0.2064	-0.034
Mof_H 	H 	0.3773	0.4735	0.1785	0.049
Mof_C 	C 	0.44467	0.45933	0.2097	0.018
Mof_C 	C 	0.47457	0.43603	0.2476	0.02
Mof_C 	C 	0.45727	0.41379	0.2823	-0.078
Mof_H 	H 	0.4772	0.398	0.3072	0.07
Mof_C 	C 	0.41099	0.41413	0.2811	0.017
Mof_H 	H 	0.3995	0.3989	0.3063	0.038
Mof_C 	C 	0.4644	0.4887	0.1865	-0.07
Mof_H 	H 	0.4387	0.5021	0.159	0.049
Mof_H 	H 	0.4846	0.4991	0.232	0.042
Mof_N 	N 	0.4911	0.4793	0.1378	-0.105
Mof_C 	C 	0.4671	0.4635	0.0637	0.089
Mof_H 	H 	0.4347	0.4594	0.0413	0.01
Mof_N 	N 	0.4968	0.4578	0.0416	-0.097
Mof_C 	C 	0.5481	0.4761	0.0833	-0.028
Mof_H 	H 	0.5755	0.4778	0.0685	0.046
Mof_C 	C 	0.5369	0.4881	0.1478	0.018
Mof_H 	H 	0.5565	0.4996	0.1884	0.026
Mof_C 	C 	0.5092	0.4355	0.987	-0.27
Mof_H 	H 	0.5388	0.4412	0.9794	0.111
Mof_H 	H 	0.4844	0.4355	0.9379	0.106
Mof_H 	H 	0.5121	0.4155	0.0091	0.109
Mof_C 	C 	0.22089	0.39784	0.1663	0.332
Mof_C 	C 	0.19921	0.37147	0.1155	-0.055
Mof_C 	C 	0.19908	0.34344	0.1464	-0.053
Mof_H 	H 	0.215	0.3403	0.1989	0.067
Mof_C 	C 	0.1772	0.32071	0.104	0.037
Mof_C 	C 	0.1539	0.32427	0.0266	-0.029
Mof_C 	C 	0.1519	0.35226	0.9947	-0.05
Mof_H 	H 	0.1352	0.3554	0.9425	0.047
Mof_C 	C 	0.1746	0.37553	0.0402	-0.016
Mof_H 	H 	0.1732	0.3948	0.0187	0.049
Mof_C 	C 	0.1255	0.29949	0.9795	0.053
Mof_C 	C 	0.0844	0.29154	0.992	-0.1
Mof_H 	H 	0.0724	0.3013	0.0276	0.063
Mof_C 	C 	0.061	0.26646	0.9446	0.008
Mof_H 	H 	0.0347	0.2577	0.9545	0.04
Mof_C 	C 	0.07587	0.25492	0.885	-0.078
Mof_C 	C 	0.1138	0.26644	0.8709	-0.03
Mof_H 	H 	0.1239	0.2593	0.8301	0.029
Mof_C 	C 	0.1378	0.28938	0.9188	-0.092
Mof_H 	H 	0.1638	0.2983	0.9083	0.059
Mof_C 	C 	0.04726	0.23029	0.8365	0.324
Mof_C 	C 	0.1975	0.2906	0.1312	-0.101
Mof_H 	H 	0.1825	0.284	0.1693	0.06
Mof_H 	H 	0.1859	0.277	0.0871	0.065
Mof_N 	N 	0.2482	0.2839	0.1648	-0.1
Mof_C 	C 	0.2819	0.2882	0.1193	0.084
Mof_H 	H 	0.2764	0.2939	0.0677	0.011
Mof_N 	N 	0.3153	0.2826	0.165	-0.089
Mof_C 	C 	0.3125	0.2629	0.2449	-0.036
Mof_H 	H 	0.3357	0.2522	0.2827	0.039
Mof_C 	C 	0.2642	0.2681	0.2351	0.008
Mof_H 	H 	0.2467	0.2623	0.2678	0.025
Mof_C 	C 	0.3624	0.2703	0.1558	-0.353
Mof_H 	H 	0.3838	0.2648	0.2058	0.168
Mof_H 	H 	0.377	0.2857	0.133	0.152
Mof_H 	H 	0.3558	0.2527	0.1227	0.147
Mof_C 	C 	0.16663	0.44937	0.2484	0.35
Mof_C 	C 	0.11708	0.45163	0.2504	-0.08
Mof_C 	C 	0.08486	0.46632	0.1968	-0.032
Mof_H 	H 	0.0923	0.4735	0.1535	0.054
Mof_C 	C 	0.04074	0.47146	0.2024	0.015
Mof_C 	C 	0.0248	0.45483	0.2503	-0.004
Mof_C 	C 	0.05609	0.43655	0.2984	-0.073
Mof_H 	H 	0.0464	0.4248	0.3337	0.055
Mof_C 	C 	0.10182	0.43451	0.2974	0.007
Mof_H 	H 	0.1226	0.4208	0.3303	0.04
Mof_C 	C 	0.0025	0.4958	0.1793	-0.086
Mof_H 	H 	0.9786	0.4894	0.2027	0.063
Mof_H 	H 	0.0173	0.5137	0.2081	0.055
Mof_N 	N 	0.9761	0.507	0.1056	-0.1
Mof_C 	C 	0.9758	0.5401	0.0888	0.075
Mof_H 	H 	0.9927	0.5555	0.1209	0.008
Mof_N 	N 	0.9503	0.5421	0.028	-0.091
Mof_C 	C 	0.9223	0.5096	0.9924	-0.031
Mof_H 	H 	0.8968	0.5067	0.9474	0.045
Mof_C 	C 	0.9461	0.4886	0.046	0.014
Mof_H 	H 	0.9433	0.4676	0.0434	0.031
Mof_C 	C 	0.9256	0.5681	0.9756	-0.291
Mof_H 	H 	0.9026	0.5601	0.9299	0.125
Mof_H 	H 	0.9489	0.5799	0.961	0.117
Mof_H 	H 	0.9097	0.5808	0.0031	0.117
Mof_Cu	Cu	0.7386	0.96001	0.18311	0.904
Mof_Cu	Cu	0.75904	0.92649	0.30619	0.902
Mof_Cu	Cu	0.9705	0.19124	0.78947	0.901
Mof_O 	O 	0.75841	0.99369	0.25246	-0.416
Mof_O 	O 	0.77816	0.96515	0.35643	-0.422
Mof_O 	O 	0.72042	0.92225	0.1308	-0.409
Mof_O 	O 	0.73632	0.89332	0.23634	-0.407
Mof_O 	O 	0.80417	0.95331	0.19238	-0.424
Mof_O 	O 	0.82097	0.92305	0.29309	-0.414
Mof_O 	O 	0.67645	0.96244	0.19503	-0.413
Mof_O 	O 	0.69395	0.93432	0.30085	-0.409
Mof_O 	O 	0.93531	0.16294	0.7118	-0.421
Mof_O 	O 	0.99015	0.15912	0.65387	-0.417
Mof_O 	O 	0.51328	0.72013	0.85377	-0.407
Mof_O 	O 	0.55991	0.72408	0.7769	-0.414
Mof_C 	C 	0.77548	0.98947	0.3227	0.387
Mof_C 	C 	0.79509	0.01557	0.3701	-0.14
Mof_C 	C 	0.80214	0.04247	0.3361	0.062
Mof_H 	H 	0.7919	0.0443	0.2822	0.022
Mof_C 	C 	0.824	0.06645	0.3806	-0.135
Mof_H 	H 	0.8282	0.0845	0.3569	0.077
Mof_C 	C 	0.83968	0.06411	0.4597	0.096
Mof_C 	C 	0.8322	0.03779	0.4929	-0.144
Mof_H 	H 	0.8414	0.0362	0.5468	0.082
Mof_C 	C 	0.81141	0.01378	0.4488	0.068
Mof_H 	H 	0.8083	0.9956	0.473	0.018
Mof_C 	C 	0.8659	0.08861	0.5089	-0.042
Mof_C 	C 	0.85002	0.10258	0.5614	0.056
Mof_C 	C 	0.87761	0.12367	0.611	-0.06
Mof_H 	H 	0.8661	0.1331	0.6477	0.066
Mof_C 	C 	0.9207	0.13082	0.6071	-0.056
Mof_C 	C 	0.9373	0.11764	0.5518	-0.018
Mof_H 	H 	0.9668	0.1234	0.5479	0.044
Mof_C 	C 	0.9114	0.09644	0.503	-0.043
Mof_H 	H 	0.923	0.0872	0.4663	0.042
Mof_C 	C 	0.95118	0.1533	0.6628	0.356
Mof_C 	C 	0.8018	0.0994	0.5633	-0.115
Mof_H 	H 	0.7997	0.0809	0.5911	0.081
Mof_H 	H 	0.7949	0.1162	0.5928	0.074
Mof_N 	N 	0.766	0.0985	0.4905	-0.095
Mof_C 	C 	0.7572	0.1261	0.4429	0.081
Mof_H 	H 	0.7733	0.1446	0.4522	0.011
Mof_N 	N 	0.7258	0.119	0.3916	-0.095
Mof_C 	C 	0.706	0.0836	0.3917	-0.032
Mof_H 	H 	0.682	0.0733	0.3543	0.044
Mof_C 	C 	0.7354	0.0738	0.4634	0.017
Mof_H 	H 	0.7349	0.0552	0.4877	0.028
Mof_C 	C 	0.6989	0.1331	0.3132	-0.273
Mof_H 	H 	0.6742	0.1194	0.2848	0.109
Mof_H 	H 	0.7206	0.1367	0.2841	0.108
Mof_H 	H 	0.6848	0.152	0.3214	0.107
Mof_C 	C 	0.83104	0.93728	0.2422	0.359
Mof_C 	C 	0.88179	0.93635	0.2438	-0.081
Mof_C 	C 	0.89813	0.95866	0.2064	-0.034
Mof_H 	H 	0.8773	0.9735	0.1785	0.049
Mof_C 	C 	0.94467	0.95933	0.2097	0.018
Mof_C 	C 	0.97457	0.93603	0.2476	0.021
Mof_C 	C 	0.95727	0.91379	0.2823	-0.078
Mof_H 	H 	0.9772	0.898	0.3072	0.07
Mof_C 	C 	0.91099	0.91413	0.2811	0.018
Mof_H 	H 	0.8995	0.8989	0.3063	0.038
Mof_C 	C 	0.9644	0.9887	0.1865	-0.07
Mof_H 	H 	0.9387	0.0021	0.159	0.049
Mof_H 	H 	0.9846	0.9991	0.232	0.042
Mof_N 	N 	0.9911	0.9793	0.1378	-0.105
Mof_C 	C 	0.9671	0.9635	0.0637	0.089
Mof_H 	H 	0.9347	0.9594	0.0413	0.01
Mof_N 	N 	0.9968	0.9578	0.0416	-0.097
Mof_C 	C 	0.0481	0.9761	0.0833	-0.028
Mof_H 	H 	0.0755	0.9778	0.0685	0.046
Mof_C 	C 	0.0369	0.9881	0.1478	0.018
Mof_H 	H 	0.0565	0.9996	0.1884	0.026
Mof_C 	C 	0.0092	0.9355	0.987	-0.268
Mof_H 	H 	0.0388	0.9412	0.9794	0.11
Mof_H 	H 	0.9844	0.9355	0.9379	0.105
Mof_H 	H 	0.0121	0.9155	0.0091	0.108
Mof_C 	C 	0.72089	0.89784	0.1663	0.332
Mof_C 	C 	0.69921	0.87147	0.1155	-0.056
Mof_C 	C 	0.69908	0.84344	0.1464	-0.053
Mof_H 	H 	0.715	0.8403	0.1989	0.067
Mof_C 	C 	0.6772	0.82071	0.104	0.037
Mof_C 	C 	0.6539	0.82427	0.0266	-0.028
Mof_C 	C 	0.6519	0.85226	0.9947	-0.051
Mof_H 	H 	0.6352	0.8554	0.9425	0.048
Mof_C 	C 	0.6746	0.87553	0.0402	-0.014
Mof_H 	H 	0.6732	0.8948	0.0187	0.049
Mof_C 	C 	0.6255	0.79949	0.9795	0.052
Mof_C 	C 	0.5844	0.79154	0.992	-0.101
Mof_H 	H 	0.5724	0.8013	0.0276	0.063
Mof_C 	C 	0.561	0.76646	0.9446	0.008
Mof_H 	H 	0.5347	0.7577	0.9545	0.04
Mof_C 	C 	0.57587	0.75492	0.885	-0.078
Mof_C 	C 	0.6138	0.76644	0.8709	-0.03
Mof_H 	H 	0.6239	0.7593	0.8301	0.029
Mof_C 	C 	0.6378	0.78938	0.9188	-0.092
Mof_H 	H 	0.6638	0.7983	0.9083	0.059
Mof_C 	C 	0.54726	0.73029	0.8365	0.324
Mof_C 	C 	0.6975	0.7906	0.1312	-0.1
Mof_H 	H 	0.6825	0.784	0.1693	0.06
Mof_H 	H 	0.6859	0.777	0.0871	0.065
Mof_N 	N 	0.7482	0.7839	0.1648	-0.1
Mof_C 	C 	0.7819	0.7882	0.1193	0.084
Mof_H 	H 	0.7764	0.7939	0.0677	0.011
Mof_N 	N 	0.8153	0.7826	0.165	-0.089
Mof_C 	C 	0.8125	0.7629	0.2449	-0.036
Mof_H 	H 	0.8357	0.7522	0.2827	0.039
Mof_C 	C 	0.7642	0.7681	0.2351	0.008
Mof_H 	H 	0.7467	0.7623	0.2678	0.026
Mof_C 	C 	0.8624	0.7703	0.1558	-0.353
Mof_H 	H 	0.8838	0.7648	0.2058	0.168
Mof_H 	H 	0.877	0.7857	0.133	0.152
Mof_H 	H 	0.8558	0.7527	0.1227	0.147
Mof_C 	C 	0.66663	0.94937	0.2484	0.35
Mof_C 	C 	0.61708	0.95163	0.2504	-0.08
Mof_C 	C 	0.58486	0.96632	0.1968	-0.032
Mof_H 	H 	0.5923	0.9735	0.1535	0.054
Mof_C 	C 	0.54074	0.97146	0.2024	0.014
Mof_C 	C 	0.5248	0.95483	0.2503	-0.003
Mof_C 	C 	0.55609	0.93655	0.2984	-0.074
Mof_H 	H 	0.5464	0.9248	0.3337	0.055
Mof_C 	C 	0.60182	0.93451	0.2974	0.008
Mof_H 	H 	0.6226	0.9208	0.3303	0.039
Mof_C 	C 	0.5025	0.9958	0.1793	-0.085
Mof_H 	H 	0.4786	0.9894	0.2027	0.063
Mof_H 	H 	0.5173	0.0137	0.2081	0.055
Mof_N 	N 	0.4761	0.007	0.1056	-0.1
Mof_C 	C 	0.4758	0.0401	0.0888	0.075
Mof_H 	H 	0.4927	0.0555	0.1209	0.008
Mof_N 	N 	0.4503	0.0421	0.028	-0.092
Mof_C 	C 	0.4223	0.0096	0.9924	-0.03
Mof_H 	H 	0.3968	0.0067	0.9474	0.045
Mof_C 	C 	0.4461	0.9886	0.046	0.013
Mof_H 	H 	0.4433	0.9676	0.0434	0.032
Mof_C 	C 	0.4256	0.0681	0.9756	-0.289
Mof_H 	H 	0.4026	0.0601	0.9299	0.125
Mof_H 	H 	0.4489	0.0799	0.961	0.117
Mof_H 	H 	0.4097	0.0808	0.0031	0.116
Mof_Cu	Cu	0.7614	0.46001	0.31689	0.904
Mof_Cu	Cu	0.74096	0.42649	0.19381	0.902
Mof_Cu	Cu	0.5295	0.69124	0.71053	0.901
Mof_O 	O 	0.74159	0.49369	0.24754	-0.416
Mof_O 	O 	0.72184	0.46515	0.14357	-0.422
Mof_O 	O 	0.77958	0.42225	0.3692	-0.409
Mof_O 	O 	0.76368	0.39332	0.26366	-0.407
Mof_O 	O 	0.69583	0.45331	0.30762	-0.424
Mof_O 	O 	0.67903	0.42305	0.20691	-0.414
Mof_O 	O 	0.82355	0.46244	0.30497	-0.413
Mof_O 	O 	0.80605	0.43432	0.19915	-0.409
Mof_O 	O 	0.56469	0.66294	0.7882	-0.421
Mof_O 	O 	0.50985	0.65912	0.84613	-0.417
Mof_O 	O 	0.98672	0.22013	0.64623	-0.407
Mof_O 	O 	0.94009	0.22408	0.7231	-0.414
Mof_C 	C 	0.72452	0.48947	0.1773	0.387
Mof_C 	C 	0.70491	0.51557	0.1299	-0.14
Mof_C 	C 	0.69786	0.54247	0.1639	0.062
Mof_H 	H 	0.7081	0.5443	0.2178	0.022
Mof_C 	C 	0.676	0.56645	0.1194	-0.135
Mof_H 	H 	0.6718	0.5845	0.1431	0.077
Mof_C 	C 	0.66032	0.56411	0.0403	0.096
Mof_C 	C 	0.6678	0.53779	0.0071	-0.144
Mof_H 	H 	0.6586	0.5362	0.9532	0.082
Mof_C 	C 	0.68859	0.51378	0.0512	0.068
Mof_H 	H 	0.6917	0.4956	0.027	0.018
Mof_C 	C 	0.6341	0.58861	0.9911	-0.042
Mof_C 	C 	0.64998	0.60258	0.9386	0.056
Mof_C 	C 	0.62239	0.62367	0.889	-0.06
Mof_H 	H 	0.6339	0.6331	0.8523	0.066
Mof_C 	C 	0.5793	0.63082	0.8929	-0.056
Mof_C 	C 	0.5627	0.61764	0.9482	-0.018
Mof_H 	H 	0.5332	0.6234	0.9521	0.044
Mof_C 	C 	0.5886	0.59644	0.997	-0.043
Mof_H 	H 	0.577	0.5872	0.0337	0.042
Mof_C 	C 	0.54882	0.6533	0.8372	0.356
Mof_C 	C 	0.6982	0.5994	0.9367	-0.115
Mof_H 	H 	0.7003	0.5809	0.9089	0.081
Mof_H 	H 	0.7051	0.6162	0.9072	0.074
Mof_N 	N 	0.734	0.5985	0.0095	-0.095
Mof_C 	C 	0.7428	0.6261	0.0571	0.081
Mof_H 	H 	0.7267	0.6446	0.0478	0.011
Mof_N 	N 	0.7742	0.619	0.1084	-0.095
Mof_C 	C 	0.794	0.5836	0.1083	-0.032
Mof_H 	H 	0.818	0.5733	0.1457	0.044
Mof_C 	C 	0.7646	0.5738	0.0366	0.017
Mof_H 	H 	0.7651	0.5552	0.0123	0.028
Mof_C 	C 	0.8011	0.6331	0.1868	-0.273
Mof_H 	H 	0.8258	0.6194	0.2152	0.109
Mof_H 	H 	0.7794	0.6367	0.2159	0.108
Mof_H 	H 	0.8152	0.652	0.1786	0.107
Mof_C 	C 	0.66896	0.43728	0.2578	0.359
Mof_C 	C 	0.61821	0.43635	0.2562	-0.081
Mof_C 	C 	0.60187	0.45866	0.2936	-0.034
Mof_H 	H 	0.6227	0.4735	0.3215	0.049
Mof_C 	C 	0.55533	0.45933	0.2903	0.018
Mof_C 	C 	0.52543	0.43603	0.2524	0.02
Mof_C 	C 	0.54273	0.41379	0.2177	-0.078
Mof_H 	H 	0.5228	0.398	0.1928	0.07
Mof_C 	C 	0.58901	0.41413	0.2189	0.017
Mof_H 	H 	0.6005	0.3989	0.1937	0.038
Mof_C 	C 	0.5356	0.4887	0.3135	-0.07
Mof_H 	H 	0.5613	0.5021	0.341	0.049
Mof_H 	H 	0.5154	0.4991	0.268	0.042
Mof_N 	N 	0.5089	0.4793	0.3622	-0.105
Mof_C 	C 	0.5329	0.4635	0.4363	0.089
Mof_H 	H 	0.5653	0.4594	0.4587	0.01
Mof_N 	N 	0.5032	0.4578	0.4584	-0.097
Mof_C 	C 	0.4519	0.4761	0.4167	-0.028
Mof_H 	H 	0.4245	0.4778	0.4315	0.046
Mof_C 	C 	0.4631	0.4881	0.3522	0.018
Mof_H 	H 	0.4435	0.4996	0.3116	0.026
Mof_C 	C 	0.4908	0.4355	0.513	-0.27
Mof_H 	H 	0.4612	0.4412	0.5206	0.111
Mof_H 	H 	0.5156	0.4355	0.5621	0.106
Mof_H 	H 	0.4879	0.4155	0.4909	0.109
Mof_C 	C 	0.77911	0.39784	0.3337	0.332
Mof_C 	C 	0.80079	0.37147	0.3845	-0.055
Mof_C 	C 	0.80092	0.34344	0.3536	-0.053
Mof_H 	H 	0.785	0.3403	0.3011	0.067
Mof_C 	C 	0.8228	0.32071	0.396	0.037
Mof_C 	C 	0.8461	0.32427	0.4734	-0.028
Mof_C 	C 	0.8481	0.35226	0.5053	-0.051
Mof_H 	H 	0.8648	0.3554	0.5575	0.048
Mof_C 	C 	0.8254	0.37553	0.4598	-0.015
Mof_H 	H 	0.8268	0.3948	0.4813	0.049
Mof_C 	C 	0.8745	0.29949	0.5205	0.052
Mof_C 	C 	0.9156	0.29154	0.508	-0.101
Mof_H 	H 	0.9276	0.3013	0.4724	0.063
Mof_C 	C 	0.939	0.26646	0.5554	0.008
Mof_H 	H 	0.9653	0.2577	0.5455	0.04
Mof_C 	C 	0.92413	0.25492	0.615	-0.078
Mof_C 	C 	0.8862	0.26644	0.6291	-0.03
Mof_H 	H 	0.8761	0.2593	0.6699	0.029
Mof_C 	C 	0.8622	0.28938	0.5812	-0.092
Mof_H 	H 	0.8362	0.2983	0.5917	0.059
Mof_C 	C 	0.95274	0.23029	0.6635	0.324
Mof_C 	C 	0.8025	0.2906	0.3688	-0.101
Mof_H 	H 	0.8175	0.284	0.3307	0.06
Mof_H 	H 	0.8141	0.277	0.4129	0.065
Mof_N 	N 	0.7518	0.2839	0.3352	-0.1
Mof_C 	C 	0.7181	0.2882	0.3807	0.084
Mof_H 	H 	0.7236	0.2939	0.4323	0.011
Mof_N 	N 	0.6847	0.2826	0.335	-0.089
Mof_C 	C 	0.6875	0.2629	0.2551	-0.036
Mof_H 	H 	0.6643	0.2522	0.2173	0.039
Mof_C 	C 	0.7358	0.2681	0.2649	0.008
Mof_H 	H 	0.7533	0.2623	0.2322	0.026
Mof_C 	C 	0.6376	0.2703	0.3442	-0.353
Mof_H 	H 	0.6162	0.2648	0.2942	0.168
Mof_H 	H 	0.623	0.2857	0.367	0.152
Mof_H 	H 	0.6442	0.2527	0.3773	0.147
Mof_C 	C 	0.83337	0.44937	0.2516	0.35
Mof_C 	C 	0.88292	0.45163	0.2496	-0.081
Mof_C 	C 	0.91514	0.46632	0.3032	-0.032
Mof_H 	H 	0.9077	0.4735	0.3465	0.054
Mof_C 	C 	0.95926	0.47146	0.2976	0.014
Mof_C 	C 	0.9752	0.45483	0.2497	-0.003
Mof_C 	C 	0.94391	0.43655	0.2016	-0.074
Mof_H 	H 	0.9536	0.4248	0.1663	0.055
Mof_C 	C 	0.89818	0.43451	0.2026	0.008
Mof_H 	H 	0.8774	0.4208	0.1697	0.039
Mof_C 	C 	0.9975	0.4958	0.3207	-0.085
Mof_H 	H 	0.0214	0.4894	0.2973	0.062
Mof_H 	H 	0.9827	0.5137	0.2919	0.055
Mof_N 	N 	0.0239	0.507	0.3944	-0.1
Mof_C 	C 	0.0242	0.5401	0.4112	0.075
Mof_H 	H 	0.0073	0.5555	0.3791	0.008
Mof_N 	N 	0.0497	0.5421	0.472	-0.092
Mof_C 	C 	0.0777	0.5096	0.5076	-0.03
Mof_H 	H 	0.1032	0.5067	0.5526	0.045
Mof_C 	C 	0.0539	0.4886	0.454	0.013
Mof_H 	H 	0.0567	0.4676	0.4566	0.032
Mof_C 	C 	0.0744	0.5681	0.5244	-0.29
Mof_H 	H 	0.0974	0.5601	0.5701	0.125
Mof_H 	H 	0.0511	0.5799	0.539	0.117
Mof_H 	H 	0.0903	0.5808	0.4969	0.116
Mof_Cu	Cu	0.2614	0.96001	0.31689	0.904
Mof_Cu	Cu	0.24096	0.92649	0.19381	0.902
Mof_Cu	Cu	0.0295	0.19124	0.71053	0.901
Mof_O 	O 	0.24159	0.99369	0.24754	-0.416
Mof_O 	O 	0.22184	0.96515	0.14357	-0.422
Mof_O 	O 	0.27958	0.92225	0.3692	-0.409
Mof_O 	O 	0.26368	0.89332	0.26366	-0.407
Mof_O 	O 	0.19583	0.95331	0.30762	-0.424
Mof_O 	O 	0.17903	0.92305	0.20691	-0.414
Mof_O 	O 	0.32355	0.96244	0.30497	-0.413
Mof_O 	O 	0.30605	0.93432	0.19915	-0.41
Mof_O 	O 	0.06469	0.16294	0.7882	-0.421
Mof_O 	O 	0.00985	0.15912	0.84613	-0.417
Mof_O 	O 	0.48672	0.72013	0.64623	-0.407
Mof_O 	O 	0.44009	0.72408	0.7231	-0.414
Mof_C 	C 	0.22452	0.98947	0.1773	0.387
Mof_C 	C 	0.20491	0.01557	0.1299	-0.14
Mof_C 	C 	0.19786	0.04247	0.1639	0.062
Mof_H 	H 	0.2081	0.0443	0.2178	0.022
Mof_C 	C 	0.176	0.06645	0.1194	-0.135
Mof_H 	H 	0.1718	0.0845	0.1431	0.077
Mof_C 	C 	0.16032	0.06411	0.0403	0.096
Mof_C 	C 	0.1678	0.03779	0.0071	-0.144
Mof_H 	H 	0.1586	0.0362	0.9532	0.082
Mof_C 	C 	0.18859	0.01378	0.0512	0.068
Mof_H 	H 	0.1917	0.9956	0.027	0.018
Mof_C 	C 	0.1341	0.08861	0.9911	-0.043
Mof_C 	C 	0.14998	0.10258	0.9386	0.056
Mof_C 	C 	0.12239	0.12367	0.889	-0.06
Mof_H 	H 	0.1339	0.1331	0.8523	0.066
Mof_C 	C 	0.0793	0.13082	0.8929	-0.056
Mof_C 	C 	0.0627	0.11764	0.9482	-0.019
Mof_H 	H 	0.0332	0.1234	0.9521	0.044
Mof_C 	C 	0.0886	0.09644	0.997	-0.043
Mof_H 	H 	0.077	0.0872	0.0337	0.041
Mof_C 	C 	0.04882	0.1533	0.8372	0.355
Mof_C 	C 	0.1982	0.0994	0.9367	-0.115
Mof_H 	H 	0.2003	0.0809	0.9089	0.081
Mof_H 	H 	0.2051	0.1162	0.9072	0.074
Mof_N 	N 	0.234	0.0985	0.0095	-0.095
Mof_C 	C 	0.2428	0.1261	0.0571	0.081
Mof_H 	H 	0.2267	0.1446	0.0478	0.011
Mof_N 	N 	0.2742	0.119	0.1084	-0.095
Mof_C 	C 	0.294	0.0836	0.1083	-0.032
Mof_H 	H 	0.318	0.0733	0.1457	0.044
Mof_C 	C 	0.2646	0.0738	0.0366	0.017
Mof_H 	H 	0.2651	0.0552	0.0123	0.028
Mof_C 	C 	0.3011	0.1331	0.1868	-0.273
Mof_H 	H 	0.3258	0.1194	0.2152	0.109
Mof_H 	H 	0.2794	0.1367	0.2159	0.108
Mof_H 	H 	0.3152	0.152	0.1786	0.107
Mof_C 	C 	0.16896	0.93728	0.2578	0.359
Mof_C 	C 	0.11821	0.93635	0.2562	-0.081
Mof_C 	C 	0.10187	0.95866	0.2936	-0.034
Mof_H 	H 	0.1227	0.9735	0.3215	0.049
Mof_C 	C 	0.05533	0.95933	0.2903	0.018
Mof_C 	C 	0.02543	0.93603	0.2524	0.02
Mof_C 	C 	0.04273	0.91379	0.2177	-0.078
Mof_H 	H 	0.0228	0.898	0.1928	0.07
Mof_C 	C 	0.08901	0.91413	0.2189	0.017
Mof_H 	H 	0.1005	0.8989	0.1937	0.038
Mof_C 	C 	0.0356	0.9887	0.3135	-0.07
Mof_H 	H 	0.0613	0.0021	0.341	0.049
Mof_H 	H 	0.0154	0.9991	0.268	0.042
Mof_N 	N 	0.0089	0.9793	0.3622	-0.106
Mof_C 	C 	0.0329	0.9635	0.4363	0.089
Mof_H 	H 	0.0653	0.9594	0.4587	0.01
Mof_N 	N 	0.0032	0.9578	0.4584	-0.097
Mof_C 	C 	0.9519	0.9761	0.4167	-0.028
Mof_H 	H 	0.9245	0.9778	0.4315	0.046
Mof_C 	C 	0.9631	0.9881	0.3522	0.018
Mof_H 	H 	0.9435	0.9996	0.3116	0.026
Mof_C 	C 	0.9908	0.9355	0.513	-0.27
Mof_H 	H 	0.9612	0.9412	0.5206	0.111
Mof_H 	H 	0.0156	0.9355	0.5621	0.106
Mof_H 	H 	0.9879	0.9155	0.4909	0.109
Mof_C 	C 	0.27911	0.89784	0.3337	0.332
Mof_C 	C 	0.30079	0.87147	0.3845	-0.055
Mof_C 	C 	0.30092	0.84344	0.3536	-0.053
Mof_H 	H 	0.285	0.8403	0.3011	0.067
Mof_C 	C 	0.3228	0.82071	0.396	0.037
Mof_C 	C 	0.3461	0.82427	0.4734	-0.028
Mof_C 	C 	0.3481	0.85226	0.5053	-0.051
Mof_H 	H 	0.3648	0.8554	0.5575	0.048
Mof_C 	C 	0.3254	0.87553	0.4598	-0.015
Mof_H 	H 	0.3268	0.8948	0.4813	0.049
Mof_C 	C 	0.3745	0.79949	0.5205	0.052
Mof_C 	C 	0.4156	0.79154	0.508	-0.101
Mof_H 	H 	0.4276	0.8013	0.4724	0.063
Mof_C 	C 	0.439	0.76646	0.5554	0.008
Mof_H 	H 	0.4653	0.7577	0.5455	0.04
Mof_C 	C 	0.42413	0.75492	0.615	-0.078
Mof_C 	C 	0.3862	0.76644	0.6291	-0.03
Mof_H 	H 	0.3761	0.7593	0.6699	0.029
Mof_C 	C 	0.3622	0.78938	0.5812	-0.092
Mof_H 	H 	0.3362	0.7983	0.5917	0.059
Mof_C 	C 	0.45274	0.73029	0.6635	0.324
Mof_C 	C 	0.3025	0.7906	0.3688	-0.101
Mof_H 	H 	0.3175	0.784	0.3307	0.06
Mof_H 	H 	0.3141	0.777	0.4129	0.065
Mof_N 	N 	0.2518	0.7839	0.3352	-0.1
Mof_C 	C 	0.2181	0.7882	0.3807	0.084
Mof_H 	H 	0.2236	0.7939	0.4323	0.011
Mof_N 	N 	0.1847	0.7826	0.335	-0.089
Mof_C 	C 	0.1875	0.7629	0.2551	-0.036
Mof_H 	H 	0.1643	0.7522	0.2173	0.039
Mof_C 	C 	0.2358	0.7681	0.2649	0.008
Mof_H 	H 	0.2533	0.7623	0.2322	0.025
Mof_C 	C 	0.1376	0.7703	0.3442	-0.353
Mof_H 	H 	0.1162	0.7648	0.2942	0.168
Mof_H 	H 	0.123	0.7857	0.367	0.152
Mof_H 	H 	0.1442	0.7527	0.3773	0.147
Mof_C 	C 	0.33337	0.94937	0.2516	0.35
Mof_C 	C 	0.38292	0.95163	0.2496	-0.08
Mof_C 	C 	0.41514	0.96632	0.3032	-0.032
Mof_H 	H 	0.4077	0.9735	0.3465	0.054
Mof_C 	C 	0.45926	0.97146	0.2976	0.014
Mof_C 	C 	0.4752	0.95483	0.2497	-0.003
Mof_C 	C 	0.44391	0.93655	0.2016	-0.074
Mof_H 	H 	0.4536	0.9248	0.1663	0.055
Mof_C 	C 	0.39818	0.93451	0.2026	0.008
Mof_H 	H 	0.3774	0.9208	0.1697	0.039
Mof_C 	C 	0.4975	0.9958	0.3207	-0.085
Mof_H 	H 	0.5214	0.9894	0.2973	0.063
Mof_H 	H 	0.4827	0.0137	0.2919	0.055
Mof_N 	N 	0.5239	0.007	0.3944	-0.1
Mof_C 	C 	0.5242	0.0401	0.4112	0.075
Mof_H 	H 	0.5073	0.0555	0.3791	0.008
Mof_N 	N 	0.5497	0.0421	0.472	-0.092
Mof_C 	C 	0.5777	0.0096	0.5076	-0.03
Mof_H 	H 	0.6032	0.0067	0.5526	0.045
Mof_C 	C 	0.5539	0.9886	0.454	0.013
Mof_H 	H 	0.5567	0.9676	0.4566	0.032
Mof_C 	C 	0.5744	0.0681	0.5244	-0.29
Mof_H 	H 	0.5974	0.0601	0.5701	0.125
Mof_H 	H 	0.5511	0.0799	0.539	0.117
Mof_H 	H 	0.5903	0.0808	0.4969	0.116
Mof_Cu	Cu	0.7614	0.53999	0.81689	0.904
Mof_Cu	Cu	0.74096	0.57351	0.69381	0.902
Mof_Cu	Cu	0.5295	0.30876	0.21053	0.901
Mof_O 	O 	0.74159	0.50631	0.74754	-0.416
Mof_O 	O 	0.72184	0.53485	0.64357	-0.422
Mof_O 	O 	0.77958	0.57775	0.8692	-0.409
Mof_O 	O 	0.76368	0.60668	0.76366	-0.407
Mof_O 	O 	0.69583	0.54669	0.80762	-0.424
Mof_O 	O 	0.67903	0.57695	0.70691	-0.414
Mof_O 	O 	0.82355	0.53756	0.80497	-0.413
Mof_O 	O 	0.80605	0.56568	0.69915	-0.409
Mof_O 	O 	0.56469	0.33706	0.2882	-0.421
Mof_O 	O 	0.50985	0.34088	0.34613	-0.417
Mof_O 	O 	0.98672	0.77987	0.14623	-0.407
Mof_O 	O 	0.94009	0.77592	0.2231	-0.414
Mof_C 	C 	0.72452	0.51053	0.6773	0.387
Mof_C 	C 	0.70491	0.48443	0.6299	-0.14
Mof_C 	C 	0.69786	0.45753	0.6639	0.062
Mof_H 	H 	0.7081	0.4557	0.7178	0.022
Mof_C 	C 	0.676	0.43355	0.6194	-0.135
Mof_H 	H 	0.6718	0.4155	0.6431	0.077
Mof_C 	C 	0.66032	0.43589	0.5403	0.096
Mof_C 	C 	0.6678	0.46221	0.5071	-0.144
Mof_H 	H 	0.6586	0.4638	0.4532	0.082
Mof_C 	C 	0.68859	0.48622	0.5512	0.068
Mof_H 	H 	0.6917	0.5044	0.527	0.018
Mof_C 	C 	0.6341	0.41139	0.4911	-0.042
Mof_C 	C 	0.64998	0.39742	0.4386	0.056
Mof_C 	C 	0.62239	0.37633	0.389	-0.06
Mof_H 	H 	0.6339	0.3669	0.3523	0.066
Mof_C 	C 	0.5793	0.36918	0.3929	-0.056
Mof_C 	C 	0.5627	0.38236	0.4482	-0.018
Mof_H 	H 	0.5332	0.3766	0.4521	0.044
Mof_C 	C 	0.5886	0.40356	0.497	-0.043
Mof_H 	H 	0.577	0.4128	0.5337	0.042
Mof_C 	C 	0.54882	0.3467	0.3372	0.356
Mof_C 	C 	0.6982	0.4006	0.4367	-0.115
Mof_H 	H 	0.7003	0.4191	0.4089	0.081
Mof_H 	H 	0.7051	0.3838	0.4072	0.074
Mof_N 	N 	0.734	0.4015	0.5095	-0.095
Mof_C 	C 	0.7428	0.3739	0.5571	0.081
Mof_H 	H 	0.7267	0.3554	0.5478	0.011
Mof_N 	N 	0.7742	0.381	0.6084	-0.095
Mof_C 	C 	0.794	0.4164	0.6083	-0.032
Mof_H 	H 	0.818	0.4267	0.6457	0.044
Mof_C 	C 	0.7646	0.4262	0.5366	0.017
Mof_H 	H 	0.7651	0.4448	0.5123	0.028
Mof_C 	C 	0.8011	0.3669	0.6868	-0.273
Mof_H 	H 	0.8258	0.3806	0.7152	0.109
Mof_H 	H 	0.7794	0.3633	0.7159	0.108
Mof_H 	H 	0.8152	0.348	0.6786	0.107
Mof_C 	C 	0.66896	0.56272	0.7578	0.359
Mof_C 	C 	0.61821	0.56365	0.7562	-0.081
Mof_C 	C 	0.60187	0.54134	0.7936	-0.034
Mof_H 	H 	0.6227	0.5265	0.8215	0.049
Mof_C 	C 	0.55533	0.54067	0.7903	0.018
Mof_C 	C 	0.52543	0.56397	0.7524	0.02
Mof_C 	C 	0.54273	0.58621	0.7177	-0.078
Mof_H 	H 	0.5228	0.602	0.6928	0.07
Mof_C 	C 	0.58901	0.58587	0.7189	0.017
Mof_H 	H 	0.6005	0.6011	0.6937	0.038
Mof_C 	C 	0.5356	0.5113	0.8135	-0.07
Mof_H 	H 	0.5613	0.4979	0.841	0.049
Mof_H 	H 	0.5154	0.5009	0.768	0.042
Mof_N 	N 	0.5089	0.5207	0.8622	-0.105
Mof_C 	C 	0.5329	0.5365	0.9363	0.089
Mof_H 	H 	0.5653	0.5406	0.9587	0.01
Mof_N 	N 	0.5032	0.5422	0.9584	-0.097
Mof_C 	C 	0.4519	0.5239	0.9167	-0.028
Mof_H 	H 	0.4245	0.5222	0.9315	0.046
Mof_C 	C 	0.4631	0.5119	0.8522	0.018
Mof_H 	H 	0.4435	0.5004	0.8116	0.026
Mof_C 	C 	0.4908	0.5645	0.013	-0.27
Mof_H 	H 	0.4612	0.5588	0.0206	0.111
Mof_H 	H 	0.5156	0.5645	0.0621	0.106
Mof_H 	H 	0.4879	0.5845	0.9909	0.109
Mof_C 	C 	0.77911	0.60216	0.8337	0.332
Mof_C 	C 	0.80079	0.62853	0.8845	-0.055
Mof_C 	C 	0.80092	0.65656	0.8536	-0.053
Mof_H 	H 	0.785	0.6597	0.8011	0.067
Mof_C 	C 	0.8228	0.67929	0.896	0.037
Mof_C 	C 	0.8461	0.67573	0.9734	-0.029
Mof_C 	C 	0.8481	0.64774	0.0053	-0.05
Mof_H 	H 	0.8648	0.6446	0.0575	0.047
Mof_C 	C 	0.8254	0.62447	0.9598	-0.016
Mof_H 	H 	0.8268	0.6052	0.9813	0.049
Mof_C 	C 	0.8745	0.70051	0.0205	0.053
Mof_C 	C 	0.9156	0.70846	0.008	-0.1
Mof_H 	H 	0.9276	0.6987	0.9724	0.063
Mof_C 	C 	0.939	0.73354	0.0554	0.008
Mof_H 	H 	0.9653	0.7423	0.0455	0.04
Mof_C 	C 	0.92413	0.74508	0.115	-0.078
Mof_C 	C 	0.8862	0.73356	0.1291	-0.03
Mof_H 	H 	0.8761	0.7407	0.1699	0.029
Mof_C 	C 	0.8622	0.71062	0.0812	-0.092
Mof_H 	H 	0.8362	0.7017	0.0917	0.059
Mof_C 	C 	0.95274	0.76971	0.1635	0.324
Mof_C 	C 	0.8025	0.7094	0.8688	-0.101
Mof_H 	H 	0.8175	0.716	0.8307	0.06
Mof_H 	H 	0.8141	0.723	0.9129	0.065
Mof_N 	N 	0.7518	0.7161	0.8352	-0.1
Mof_C 	C 	0.7181	0.7118	0.8807	0.084
Mof_H 	H 	0.7236	0.7061	0.9323	0.011
Mof_N 	N 	0.6847	0.7174	0.835	-0.089
Mof_C 	C 	0.6875	0.7371	0.7551	-0.036
Mof_H 	H 	0.6643	0.7478	0.7173	0.039
Mof_C 	C 	0.7358	0.7319	0.7649	0.008
Mof_H 	H 	0.7533	0.7377	0.7322	0.025
Mof_C 	C 	0.6376	0.7297	0.8442	-0.353
Mof_H 	H 	0.6162	0.7352	0.7942	0.168
Mof_H 	H 	0.623	0.7143	0.867	0.152
Mof_H 	H 	0.6442	0.7473	0.8773	0.147
Mof_C 	C 	0.83337	0.55063	0.7516	0.35
Mof_C 	C 	0.88292	0.54837	0.7496	-0.08
Mof_C 	C 	0.91514	0.53368	0.8032	-0.032
Mof_H 	H 	0.9077	0.5265	0.8465	0.054
Mof_C 	C 	0.95926	0.52854	0.7976	0.015
Mof_C 	C 	0.9752	0.54517	0.7497	-0.004
Mof_C 	C 	0.94391	0.56345	0.7016	-0.073
Mof_H 	H 	0.9536	0.5752	0.6663	0.055
Mof_C 	C 	0.89818	0.56549	0.7026	0.007
Mof_H 	H 	0.8774	0.5792	0.6697	0.04
Mof_C 	C 	0.9975	0.5042	0.8207	-0.086
Mof_H 	H 	0.0214	0.5106	0.7973	0.063
Mof_H 	H 	0.9827	0.4863	0.7919	0.055
Mof_N 	N 	0.0239	0.493	0.8944	-0.1
Mof_C 	C 	0.0242	0.4599	0.9112	0.075
Mof_H 	H 	0.0073	0.4445	0.8791	0.008
Mof_N 	N 	0.0497	0.4579	0.972	-0.091
Mof_C 	C 	0.0777	0.4904	0.0076	-0.031
Mof_H 	H 	0.1032	0.4933	0.0526	0.045
Mof_C 	C 	0.0539	0.5114	0.954	0.014
Mof_H 	H 	0.0567	0.5324	0.9566	0.031
Mof_C 	C 	0.0744	0.4319	0.0244	-0.291
Mof_H 	H 	0.0974	0.4399	0.0701	0.125
Mof_H 	H 	0.0511	0.4201	0.039	0.117
Mof_H 	H 	0.0903	0.4192	0.9969	0.117
Mof_Cu	Cu	0.2614	0.03999	0.81689	0.904
Mof_Cu	Cu	0.24096	0.07351	0.69381	0.902
Mof_Cu	Cu	0.0295	0.80876	0.21053	0.901
Mof_O 	O 	0.24159	0.00631	0.74754	-0.416
Mof_O 	O 	0.22184	0.03485	0.64357	-0.422
Mof_O 	O 	0.27958	0.07775	0.8692	-0.409
Mof_O 	O 	0.26368	0.10668	0.76366	-0.407
Mof_O 	O 	0.19583	0.04669	0.80762	-0.424
Mof_O 	O 	0.17903	0.07695	0.70691	-0.414
Mof_O 	O 	0.32355	0.03756	0.80497	-0.413
Mof_O 	O 	0.30605	0.06568	0.69915	-0.409
Mof_O 	O 	0.06469	0.83706	0.2882	-0.421
Mof_O 	O 	0.00985	0.84088	0.34613	-0.417
Mof_O 	O 	0.48672	0.27987	0.14623	-0.407
Mof_O 	O 	0.44009	0.27592	0.2231	-0.414
Mof_C 	C 	0.22452	0.01053	0.6773	0.387
Mof_C 	C 	0.20491	0.98443	0.6299	-0.14
Mof_C 	C 	0.19786	0.95753	0.6639	0.062
Mof_H 	H 	0.2081	0.9557	0.7178	0.022
Mof_C 	C 	0.176	0.93355	0.6194	-0.135
Mof_H 	H 	0.1718	0.9155	0.6431	0.077
Mof_C 	C 	0.16032	0.93589	0.5403	0.096
Mof_C 	C 	0.1678	0.96221	0.5071	-0.144
Mof_H 	H 	0.1586	0.9638	0.4532	0.082
Mof_C 	C 	0.18859	0.98622	0.5512	0.068
Mof_H 	H 	0.1917	0.0044	0.527	0.018
Mof_C 	C 	0.1341	0.91139	0.4911	-0.042
Mof_C 	C 	0.14998	0.89742	0.4386	0.056
Mof_C 	C 	0.12239	0.87633	0.389	-0.06
Mof_H 	H 	0.1339	0.8669	0.3523	0.066
Mof_C 	C 	0.0793	0.86918	0.3929	-0.056
Mof_C 	C 	0.0627	0.88236	0.4482	-0.018
Mof_H 	H 	0.0332	0.8766	0.4521	0.044
Mof_C 	C 	0.0886	0.90356	0.497	-0.043
Mof_H 	H 	0.077	0.9128	0.5337	0.042
Mof_C 	C 	0.04882	0.8467	0.3372	0.356
Mof_C 	C 	0.1982	0.9006	0.4367	-0.115
Mof_H 	H 	0.2003	0.9191	0.4089	0.081
Mof_H 	H 	0.2051	0.8838	0.4072	0.074
Mof_N 	N 	0.234	0.9015	0.5095	-0.095
Mof_C 	C 	0.2428	0.8739	0.5571	0.081
Mof_H 	H 	0.2267	0.8554	0.5478	0.011
Mof_N 	N 	0.2742	0.881	0.6084	-0.095
Mof_C 	C 	0.294	0.9164	0.6083	-0.032
Mof_H 	H 	0.318	0.9267	0.6457	0.044
Mof_C 	C 	0.2646	0.9262	0.5366	0.017
Mof_H 	H 	0.2651	0.9448	0.5123	0.028
Mof_C 	C 	0.3011	0.8669	0.6868	-0.273
Mof_H 	H 	0.3258	0.8806	0.7152	0.109
Mof_H 	H 	0.2794	0.8633	0.7159	0.108
Mof_H 	H 	0.3152	0.848	0.6786	0.107
Mof_C 	C 	0.16896	0.06272	0.7578	0.359
Mof_C 	C 	0.11821	0.06365	0.7562	-0.081
Mof_C 	C 	0.10187	0.04134	0.7936	-0.034
Mof_H 	H 	0.1227	0.0265	0.8215	0.049
Mof_C 	C 	0.05533	0.04067	0.7903	0.018
Mof_C 	C 	0.02543	0.06397	0.7524	0.021
Mof_C 	C 	0.04273	0.08621	0.7177	-0.078
Mof_H 	H 	0.0228	0.102	0.6928	0.07
Mof_C 	C 	0.08901	0.08587	0.7189	0.018
Mof_H 	H 	0.1005	0.1011	0.6937	0.038
Mof_C 	C 	0.0356	0.0113	0.8135	-0.07
Mof_H 	H 	0.0613	0.9979	0.841	0.049
Mof_H 	H 	0.0154	0.0009	0.768	0.042
Mof_N 	N 	0.0089	0.0207	0.8622	-0.105
Mof_C 	C 	0.0329	0.0365	0.9363	0.089
Mof_H 	H 	0.0653	0.0406	0.9587	0.01
Mof_N 	N 	0.0032	0.0422	0.9584	-0.097
Mof_C 	C 	0.9519	0.0239	0.9167	-0.028
Mof_H 	H 	0.9245	0.0222	0.9315	0.046
Mof_C 	C 	0.9631	0.0119	0.8522	0.018
Mof_H 	H 	0.9435	0.0004	0.8116	0.026
Mof_C 	C 	0.9908	0.0645	0.013	-0.268
Mof_H 	H 	0.9612	0.0588	0.0206	0.11
Mof_H 	H 	0.0156	0.0645	0.0621	0.105
Mof_H 	H 	0.9879	0.0845	0.9909	0.108
Mof_C 	C 	0.27911	0.10216	0.8337	0.332
Mof_C 	C 	0.30079	0.12853	0.8845	-0.056
Mof_C 	C 	0.30092	0.15656	0.8536	-0.053
Mof_H 	H 	0.285	0.1597	0.8011	0.067
Mof_C 	C 	0.3228	0.17929	0.896	0.037
Mof_C 	C 	0.3461	0.17573	0.9734	-0.028
Mof_C 	C 	0.3481	0.14774	0.0053	-0.051
Mof_H 	H 	0.3648	0.1446	0.0575	0.048
Mof_C 	C 	0.3254	0.12447	0.9598	-0.014
Mof_H 	H 	0.3268	0.1052	0.9813	0.049
Mof_C 	C 	0.3745	0.20051	0.0205	0.052
Mof_C 	C 	0.4156	0.20846	0.008	-0.101
Mof_H 	H 	0.4276	0.1987	0.9724	0.063
Mof_C 	C 	0.439	0.23354	0.0554	0.008
Mof_H 	H 	0.4653	0.2423	0.0455	0.04
Mof_C 	C 	0.42413	0.24508	0.115	-0.078
Mof_C 	C 	0.3862	0.23356	0.1291	-0.03
Mof_H 	H 	0.3761	0.2407	0.1699	0.029
Mof_C 	C 	0.3622	0.21062	0.0812	-0.092
Mof_H 	H 	0.3362	0.2017	0.0917	0.059
Mof_C 	C 	0.45274	0.26971	0.1635	0.324
Mof_C 	C 	0.3025	0.2094	0.8688	-0.1
Mof_H 	H 	0.3175	0.216	0.8307	0.06
Mof_H 	H 	0.3141	0.223	0.9129	0.065
Mof_N 	N 	0.2518	0.2161	0.8352	-0.1
Mof_C 	C 	0.2181	0.2118	0.8807	0.084
Mof_H 	H 	0.2236	0.2061	0.9323	0.011
Mof_N 	N 	0.1847	0.2174	0.835	-0.089
Mof_C 	C 	0.1875	0.2371	0.7551	-0.036
Mof_H 	H 	0.1643	0.2478	0.7173	0.039
Mof_C 	C 	0.2358	0.2319	0.7649	0.008
Mof_H 	H 	0.2533	0.2377	0.7322	0.026
Mof_C 	C 	0.1376	0.2297	0.8442	-0.353
Mof_H 	H 	0.1162	0.2352	0.7942	0.168
Mof_H 	H 	0.123	0.2143	0.867	0.152
Mof_H 	H 	0.1442	0.2473	0.8773	0.147
Mof_C 	C 	0.33337	0.05063	0.7516	0.35
Mof_C 	C 	0.38292	0.04837	0.7496	-0.08
Mof_C 	C 	0.41514	0.03368	0.8032	-0.032
Mof_H 	H 	0.4077	0.0265	0.8465	0.054
Mof_C 	C 	0.45926	0.02854	0.7976	0.014
Mof_C 	C 	0.4752	0.04517	0.7497	-0.003
Mof_C 	C 	0.44391	0.06345	0.7016	-0.074
Mof_H 	H 	0.4536	0.0752	0.6663	0.055
Mof_C 	C 	0.39818	0.06549	0.7026	0.008
Mof_H 	H 	0.3774	0.0792	0.6697	0.039
Mof_C 	C 	0.4975	0.0042	0.8207	-0.085
Mof_H 	H 	0.5214	0.0106	0.7973	0.063
Mof_H 	H 	0.4827	0.9863	0.7919	0.055
Mof_N 	N 	0.5239	0.993	0.8944	-0.1
Mof_C 	C 	0.5242	0.9599	0.9112	0.075
Mof_H 	H 	0.5073	0.9445	0.8791	0.008
Mof_N 	N 	0.5497	0.9579	0.972	-0.092
Mof_C 	C 	0.5777	0.9904	0.0076	-0.03
Mof_H 	H 	0.6032	0.9933	0.0526	0.045
Mof_C 	C 	0.5539	0.0114	0.954	0.013
Mof_H 	H 	0.5567	0.0324	0.9566	0.032
Mof_C 	C 	0.5744	0.9319	0.0244	-0.289
Mof_H 	H 	0.5974	0.9399	0.0701	0.125
Mof_H 	H 	0.5511	0.9201	0.039	0.117
Mof_H 	H 	0.5903	0.9192	0.9969	0.116
Mof_Cu	Cu	0.2386	0.53999	0.68311	0.904
Mof_Cu	Cu	0.25904	0.57351	0.80619	0.902
Mof_Cu	Cu	0.4705	0.30876	0.28947	0.901
Mof_O 	O 	0.25841	0.50631	0.75246	-0.416
Mof_O 	O 	0.27816	0.53485	0.85643	-0.422
Mof_O 	O 	0.22042	0.57775	0.6308	-0.409
Mof_O 	O 	0.23632	0.60668	0.73634	-0.407
Mof_O 	O 	0.30417	0.54669	0.69238	-0.424
Mof_O 	O 	0.32097	0.57695	0.79309	-0.414
Mof_O 	O 	0.17645	0.53756	0.69503	-0.413
Mof_O 	O 	0.19395	0.56568	0.80085	-0.409
Mof_O 	O 	0.43531	0.33706	0.2118	-0.421
Mof_O 	O 	0.49015	0.34088	0.15387	-0.417
Mof_O 	O 	0.01328	0.77987	0.35377	-0.407
Mof_O 	O 	0.05991	0.77592	0.2769	-0.414
Mof_C 	C 	0.27548	0.51053	0.8227	0.387
Mof_C 	C 	0.29509	0.48443	0.8701	-0.14
Mof_C 	C 	0.30214	0.45753	0.8361	0.062
Mof_H 	H 	0.2919	0.4557	0.7822	0.022
Mof_C 	C 	0.324	0.43355	0.8806	-0.135
Mof_H 	H 	0.3282	0.4155	0.8569	0.077
Mof_C 	C 	0.33968	0.43589	0.9597	0.096
Mof_C 	C 	0.3322	0.46221	0.9929	-0.144
Mof_H 	H 	0.3414	0.4638	0.0468	0.082
Mof_C 	C 	0.31141	0.48622	0.9488	0.068
Mof_H 	H 	0.3083	0.5044	0.973	0.018
Mof_C 	C 	0.3659	0.41139	0.0089	-0.042
Mof_C 	C 	0.35002	0.39742	0.0614	0.056
Mof_C 	C 	0.37761	0.37633	0.111	-0.06
Mof_H 	H 	0.3661	0.3669	0.1477	0.066
Mof_C 	C 	0.4207	0.36918	0.1071	-0.056
Mof_C 	C 	0.4373	0.38236	0.0518	-0.018
Mof_H 	H 	0.4668	0.3766	0.0479	0.044
Mof_C 	C 	0.4114	0.40356	0.003	-0.043
Mof_H 	H 	0.423	0.4128	0.9663	0.042
Mof_C 	C 	0.45118	0.3467	0.1628	0.356
Mof_C 	C 	0.3018	0.4006	0.0633	-0.115
Mof_H 	H 	0.2997	0.4191	0.0911	0.081
Mof_H 	H 	0.2949	0.3838	0.0928	0.074
Mof_N 	N 	0.266	0.4015	0.9905	-0.095
Mof_C 	C 	0.2572	0.3739	0.9429	0.081
Mof_H 	H 	0.2733	0.3554	0.9522	0.011
Mof_N 	N 	0.2258	0.381	0.8916	-0.095
Mof_C 	C 	0.206	0.4164	0.8917	-0.032
Mof_H 	H 	0.182	0.4267	0.8543	0.044
Mof_C 	C 	0.2354	0.4262	0.9634	0.017
Mof_H 	H 	0.2349	0.4448	0.9877	0.028
Mof_C 	C 	0.1989	0.3669	0.8132	-0.273
Mof_H 	H 	0.1742	0.3806	0.7848	0.109
Mof_H 	H 	0.2206	0.3633	0.7841	0.108
Mof_H 	H 	0.1848	0.348	0.8214	0.107
Mof_C 	C 	0.33104	0.56272	0.7422	0.359
Mof_C 	C 	0.38179	0.56365	0.7438	-0.081
Mof_C 	C 	0.39813	0.54134	0.7064	-0.034
Mof_H 	H 	0.3773	0.5265	0.6785	0.049
Mof_C 	C 	0.44467	0.54067	0.7097	0.018
Mof_C 	C 	0.47457	0.56397	0.7476	0.02
Mof_C 	C 	0.45727	0.58621	0.7823	-0.078
Mof_H 	H 	0.4772	0.602	0.8072	0.07
Mof_C 	C 	0.41099	0.58587	0.7811	0.017
Mof_H 	H 	0.3995	0.6011	0.8063	0.038
Mof_C 	C 	0.4644	0.5113	0.6865	-0.07
Mof_H 	H 	0.4387	0.4979	0.659	0.049
Mof_H 	H 	0.4846	0.5009	0.732	0.042
Mof_N 	N 	0.4911	0.5207	0.6378	-0.105
Mof_C 	C 	0.4671	0.5365	0.5637	0.089
Mof_H 	H 	0.4347	0.5406	0.5413	0.01
Mof_N 	N 	0.4968	0.5422	0.5416	-0.097
Mof_C 	C 	0.5481	0.5239	0.5833	-0.028
Mof_H 	H 	0.5755	0.5222	0.5685	0.046
Mof_C 	C 	0.5369	0.5119	0.6478	0.018
Mof_H 	H 	0.5565	0.5004	0.6884	0.026
Mof_C 	C 	0.5092	0.5645	0.487	-0.27
Mof_H 	H 	0.5388	0.5588	0.4794	0.111
Mof_H 	H 	0.4844	0.5645	0.4379	0.106
Mof_H 	H 	0.5121	0.5845	0.5091	0.109
Mof_C 	C 	0.22089	0.60216	0.6663	0.332
Mof_C 	C 	0.19921	0.62853	0.6155	-0.055
Mof_C 	C 	0.19908	0.65656	0.6464	-0.053
Mof_H 	H 	0.215	0.6597	0.6989	0.067
Mof_C 	C 	0.1772	0.67929	0.604	0.037
Mof_C 	C 	0.1539	0.67573	0.5266	-0.028
Mof_C 	C 	0.1519	0.64774	0.4947	-0.051
Mof_H 	H 	0.1352	0.6446	0.4425	0.048
Mof_C 	C 	0.1746	0.62447	0.5402	-0.015
Mof_H 	H 	0.1732	0.6052	0.5187	0.049
Mof_C 	C 	0.1255	0.70051	0.4795	0.052
Mof_C 	C 	0.0844	0.70846	0.492	-0.101
Mof_H 	H 	0.0724	0.6987	0.5276	0.063
Mof_C 	C 	0.061	0.73354	0.4446	0.008
Mof_H 	H 	0.0347	0.7423	0.4545	0.04
Mof_C 	C 	0.07587	0.74508	0.385	-0.078
Mof_C 	C 	0.1138	0.73356	0.3709	-0.03
Mof_H 	H 	0.1239	0.7407	0.3301	0.029
Mof_C 	C 	0.1378	0.71062	0.4188	-0.092
Mof_H 	H 	0.1638	0.7017	0.4083	0.059
Mof_C 	C 	0.04726	0.76971	0.3365	0.324
Mof_C 	C 	0.1975	0.7094	0.6312	-0.101
Mof_H 	H 	0.1825	0.716	0.6693	0.06
Mof_H 	H 	0.1859	0.723	0.5871	0.065
Mof_N 	N 	0.2482	0.7161	0.6648	-0.1
Mof_C 	C 	0.2819	0.7118	0.6193	0.084
Mof_H 	H 	0.2764	0.7061	0.5677	0.011
Mof_N 	N 	0.3153	0.7174	0.665	-0.089
Mof_C 	C 	0.3125	0.7371	0.7449	-0.036
Mof_H 	H 	0.3357	0.7478	0.7827	0.039
Mof_C 	C 	0.2642	0.7319	0.7351	0.008
Mof_H 	H 	0.2467	0.7377	0.7678	0.026
Mof_C 	C 	0.3624	0.7297	0.6558	-0.353
Mof_H 	H 	0.3838	0.7352	0.7058	0.168
Mof_H 	H 	0.377	0.7143	0.633	0.152
Mof_H 	H 	0.3558	0.7473	0.6227	0.147
Mof_C 	C 	0.16663	0.55063	0.7484	0.35
Mof_C 	C 	0.11708	0.54837	0.7504	-0.081
Mof_C 	C 	0.08486	0.53368	0.6968	-0.032
Mof_H 	H 	0.0923	0.5265	0.6535	0.054
Mof_C 	C 	0.04074	0.52854	0.7024	0.014
Mof_C 	C 	0.0248	0.54517	0.7503	-0.003
Mof_C 	C 	0.05609	0.56345	0.7984	-0.074
Mof_H 	H 	0.0464	0.5752	0.8337	0.055
Mof_C 	C 	0.10182	0.56549	0.7974	0.008
Mof_H 	H 	0.1226	0.5792	0.8303	0.039
Mof_C 	C 	0.0025	0.5042	0.6793	-0.085
Mof_H 	H 	0.9786	0.5106	0.7027	0.062
Mof_H 	H 	0.0173	0.4863	0.7081	0.055
Mof_N 	N 	0.9761	0.493	0.6056	-0.1
Mof_C 	C 	0.9758	0.4599	0.5888	0.075
Mof_H 	H 	0.9927	0.4445	0.6209	0.008
Mof_N 	N 	0.9503	0.4579	0.528	-0.092
Mof_C 	C 	0.9223	0.4904	0.4924	-0.03
Mof_H 	H 	0.8968	0.4933	0.4474	0.045
Mof_C 	C 	0.9461	0.5114	0.546	0.013
Mof_H 	H 	0.9433	0.5324	0.5434	0.032
Mof_C 	C 	0.9256	0.4319	0.4756	-0.29
Mof_H 	H 	0.9026	0.4399	0.4299	0.125
Mof_H 	H 	0.9489	0.4201	0.461	0.117
Mof_H 	H 	0.9097	0.4192	0.5031	0.116
Mof_Cu	Cu	0.7386	0.03999	0.68311	0.904
Mof_Cu	Cu	0.75904	0.07351	0.80619	0.902
Mof_Cu	Cu	0.9705	0.80876	0.28947	0.901
Mof_O 	O 	0.75841	0.00631	0.75246	-0.416
Mof_O 	O 	0.77816	0.03485	0.85643	-0.422
Mof_O 	O 	0.72042	0.07775	0.6308	-0.409
Mof_O 	O 	0.73632	0.10668	0.73634	-0.407
Mof_O 	O 	0.80417	0.04669	0.69238	-0.424
Mof_O 	O 	0.82097	0.07695	0.79309	-0.414
Mof_O 	O 	0.67645	0.03756	0.69503	-0.413
Mof_O 	O 	0.69395	0.06568	0.80085	-0.41
Mof_O 	O 	0.93531	0.83706	0.2118	-0.421
Mof_O 	O 	0.99015	0.84088	0.15387	-0.417
Mof_O 	O 	0.51328	0.27987	0.35377	-0.407
Mof_O 	O 	0.55991	0.27592	0.2769	-0.414
Mof_C 	C 	0.77548	0.01053	0.8227	0.387
Mof_C 	C 	0.79509	0.98443	0.8701	-0.14
Mof_C 	C 	0.80214	0.95753	0.8361	0.062
Mof_H 	H 	0.7919	0.9557	0.7822	0.022
Mof_C 	C 	0.824	0.93355	0.8806	-0.135
Mof_H 	H 	0.8282	0.9155	0.8569	0.077
Mof_C 	C 	0.83968	0.93589	0.9597	0.096
Mof_C 	C 	0.8322	0.96221	0.9929	-0.144
Mof_H 	H 	0.8414	0.9638	0.0468	0.082
Mof_C 	C 	0.81141	0.98622	0.9488	0.068
Mof_H 	H 	0.8083	0.0044	0.973	0.018
Mof_C 	C 	0.8659	0.91139	0.0089	-0.043
Mof_C 	C 	0.85002	0.89742	0.0614	0.056
Mof_C 	C 	0.87761	0.87633	0.111	-0.06
Mof_H 	H 	0.8661	0.8669	0.1477	0.066
Mof_C 	C 	0.9207	0.86918	0.1071	-0.056
Mof_C 	C 	0.9373	0.88236	0.0518	-0.019
Mof_H 	H 	0.9668	0.8766	0.0479	0.044
Mof_C 	C 	0.9114	0.90356	0.003	-0.043
Mof_H 	H 	0.923	0.9128	0.9663	0.041
Mof_C 	C 	0.95118	0.8467	0.1628	0.355
Mof_C 	C 	0.8018	0.9006	0.0633	-0.115
Mof_H 	H 	0.7997	0.9191	0.0911	0.081
Mof_H 	H 	0.7949	0.8838	0.0928	0.074
Mof_N 	N 	0.766	0.9015	0.9905	-0.095
Mof_C 	C 	0.7572	0.8739	0.9429	0.081
Mof_H 	H 	0.7733	0.8554	0.9522	0.011
Mof_N 	N 	0.7258	0.881	0.8916	-0.095
Mof_C 	C 	0.706	0.9164	0.8917	-0.032
Mof_H 	H 	0.682	0.9267	0.8543	0.044
Mof_C 	C 	0.7354	0.9262	0.9634	0.017
Mof_H 	H 	0.7349	0.9448	0.9877	0.028
Mof_C 	C 	0.6989	0.8669	0.8132	-0.273
Mof_H 	H 	0.6742	0.8806	0.7848	0.109
Mof_H 	H 	0.7206	0.8633	0.7841	0.108
Mof_H 	H 	0.6848	0.848	0.8214	0.107
Mof_C 	C 	0.83104	0.06272	0.7422	0.359
Mof_C 	C 	0.88179	0.06365	0.7438	-0.081
Mof_C 	C 	0.89813	0.04134	0.7064	-0.034
Mof_H 	H 	0.8773	0.0265	0.6785	0.049
Mof_C 	C 	0.94467	0.04067	0.7097	0.018
Mof_C 	C 	0.97457	0.06397	0.7476	0.02
Mof_C 	C 	0.95727	0.08621	0.7823	-0.078
Mof_H 	H 	0.9772	0.102	0.8072	0.07
Mof_C 	C 	0.91099	0.08587	0.7811	0.017
Mof_H 	H 	0.8995	0.1011	0.8063	0.038
Mof_C 	C 	0.9644	0.0113	0.6865	-0.07
Mof_H 	H 	0.9387	0.9979	0.659	0.049
Mof_H 	H 	0.9846	0.0009	0.732	0.042
Mof_N 	N 	0.9911	0.0207	0.6378	-0.106
Mof_C 	C 	0.9671	0.0365	0.5637	0.089
Mof_H 	H 	0.9347	0.0406	0.5413	0.01
Mof_N 	N 	0.9968	0.0422	0.5416	-0.097
Mof_C 	C 	0.0481	0.0239	0.5833	-0.028
Mof_H 	H 	0.0755	0.0222	0.5685	0.046
Mof_C 	C 	0.0369	0.0119	0.6478	0.018
Mof_H 	H 	0.0565	0.0004	0.6884	0.026
Mof_C 	C 	0.0092	0.0645	0.487	-0.27
Mof_H 	H 	0.0388	0.0588	0.4794	0.111
Mof_H 	H 	0.9844	0.0645	0.4379	0.106
Mof_H 	H 	0.0121	0.0845	0.5091	0.109
Mof_C 	C 	0.72089	0.10216	0.6663	0.332
Mof_C 	C 	0.69921	0.12853	0.6155	-0.055
Mof_C 	C 	0.69908	0.15656	0.6464	-0.053
Mof_H 	H 	0.715	0.1597	0.6989	0.067
Mof_C 	C 	0.6772	0.17929	0.604	0.037
Mof_C 	C 	0.6539	0.17573	0.5266	-0.028
Mof_C 	C 	0.6519	0.14774	0.4947	-0.051
Mof_H 	H 	0.6352	0.1446	0.4425	0.048
Mof_C 	C 	0.6746	0.12447	0.5402	-0.015
Mof_H 	H 	0.6732	0.1052	0.5187	0.049
Mof_C 	C 	0.6255	0.20051	0.4795	0.052
Mof_C 	C 	0.5844	0.20846	0.492	-0.101
Mof_H 	H 	0.5724	0.1987	0.5276	0.063
Mof_C 	C 	0.561	0.23354	0.4446	0.008
Mof_H 	H 	0.5347	0.2423	0.4545	0.04
Mof_C 	C 	0.57587	0.24508	0.385	-0.078
Mof_C 	C 	0.6138	0.23356	0.3709	-0.03
Mof_H 	H 	0.6239	0.2407	0.3301	0.029
Mof_C 	C 	0.6378	0.21062	0.4188	-0.092
Mof_H 	H 	0.6638	0.2017	0.4083	0.059
Mof_C 	C 	0.54726	0.26971	0.3365	0.324
Mof_C 	C 	0.6975	0.2094	0.6312	-0.101
Mof_H 	H 	0.6825	0.216	0.6693	0.06
Mof_H 	H 	0.6859	0.223	0.5871	0.065
Mof_N 	N 	0.7482	0.2161	0.6648	-0.1
Mof_C 	C 	0.7819	0.2118	0.6193	0.084
Mof_H 	H 	0.7764	0.2061	0.5677	0.011
Mof_N 	N 	0.8153	0.2174	0.665	-0.089
Mof_C 	C 	0.8125	0.2371	0.7449	-0.036
Mof_H 	H 	0.8357	0.2478	0.7827	0.039
Mof_C 	C 	0.7642	0.2319	0.7351	0.008
Mof_H 	H 	0.7467	0.2377	0.7678	0.025
Mof_C 	C 	0.8624	0.2297	0.6558	-0.353
Mof_H 	H 	0.8838	0.2352	0.7058	0.168
Mof_H 	H 	0.877	0.2143	0.633	0.152
Mof_H 	H 	0.8558	0.2473	0.6227	0.147
Mof_C 	C 	0.66663	0.05063	0.7484	0.35
Mof_C 	C 	0.61708	0.04837	0.7504	-0.08
Mof_C 	C 	0.58486	0.03368	0.6968	-0.032
Mof_H 	H 	0.5923	0.0265	0.6535	0.054
Mof_C 	C 	0.54074	0.02854	0.7024	0.014
Mof_C 	C 	0.5248	0.04517	0.7503	-0.003
Mof_C 	C 	0.55609	0.06345	0.7984	-0.074
Mof_H 	H 	0.5464	0.0752	0.8337	0.055
Mof_C 	C 	0.60182	0.06549	0.7974	0.008
Mof_H 	H 	0.6226	0.0792	0.8303	0.039
Mof_C 	C 	0.5025	0.0042	0.6793	-0.085
Mof_H 	H 	0.4786	0.0106	0.7027	0.063
Mof_H 	H 	0.5173	0.9863	0.7081	0.055
Mof_N 	N 	0.4761	0.993	0.6056	-0.1
Mof_C 	C 	0.4758	0.9599	0.5888	0.075
Mof_H 	H 	0.4927	0.9445	0.6209	0.008
Mof_N 	N 	0.4503	0.9579	0.528	-0.092
Mof_C 	C 	0.4223	0.9904	0.4924	-0.03
Mof_H 	H 	0.3968	0.9933	0.4474	0.045
Mof_C 	C 	0.4461	0.0114	0.546	0.013
Mof_H 	H 	0.4433	0.0324	0.5434	0.032
Mof_C 	C 	0.4256	0.9319	0.4756	-0.29
Mof_H 	H 	0.4026	0.9399	0.4299	0.125
Mof_H 	H 	0.4489	0.9201	0.461	0.117
Mof_H 	H 	0.4097	0.9192	0.5031	0.116
_end
