data_functionalizedCrystal
_audit_creation_method	'EQeq! by Chris Wilmer'
_symmetry_space_group_name_H-M	'P1'
_symmetry_Int_Tables_number	1
_symmetry_cell_setting	triclinic
loop_
_symmetry_equiv_pos_as_xyz
  x,y,z
_cell_length_a	18.7789
_cell_length_b	17.827
_cell_length_c	14.3603
_cell_angle_alpha	90
_cell_angle_beta	93.827
_cell_angle_gamma	90
loop_
_atom_site_label
_atom_site_type_symbol
_atom_site_fract_x
_atom_site_fract_y
_atom_site_fract_z
_atom_site_charge
Mof_Zn	Zn	0.40718	0.08895	0.84231	1.217
Mof_O 	O 	0.56083	0.08174	0.922	-0.557
Mof_O 	O 	0.48027	0.16686	0.8725	-0.461
Mof_O 	O 	0.81646	0.35915	0.8453	-0.473
Mof_O 	O 	0.77416	0.41308	0.9716	-0.47
Mof_O 	O 	0.586	0.1251	0.7271	-0.106
Mof_O 	O 	0.6836	0.1675	0.6816	-0.094
Mof_O 	O 	0.4251	0.06305	0.7139	-0.455
Mof_O 	O 	0.5095	0.184	0.601	-0.06
Mof_O 	O 	0.4058	0.157	0.567	-0.077
Mof_N 	N 	0.6373	0.1662	0.7376	-0.017
Mof_N 	N 	0.4706	0.1428	0.5739	0.003
Mof_C 	C 	0.6005	0.2053	0.8933	-0.163
Mof_C 	C 	0.6478	0.2112	0.8238	0.139
Mof_C 	C 	0.7029	0.2633	0.8267	-0.083
Mof_H 	H 	0.7348	0.2652	0.7781	0.105
Mof_C 	C 	0.7108	0.3119	0.9007	-0.043
Mof_C 	C 	0.6642	0.3071	0.9705	-0.002
Mof_H 	H 	0.6691	0.3407	0.0219	0.029
Mof_C 	C 	0.61	0.254	0.9669	0.083
Mof_H 	H 	0.579	0.2513	0.0165	-0.005
Mof_C 	C 	0.5433	0.146	0.8948	0.436
Mof_C 	C 	0.7717	0.3667	0.9067	0.383
Mof_C 	C 	0.4837	0.0671	0.5414	0.101
Mof_Zn	Zn	0.90718	0.58895	0.84231	1.222
Mof_O 	O 	0.06083	0.58174	0.922	-0.543
Mof_O 	O 	0.98027	0.66686	0.8725	-0.429
Mof_O 	O 	0.31646	0.85915	0.8453	-0.462
Mof_O 	O 	0.27416	0.91308	0.9716	-0.442
Mof_O 	O 	0.086	0.6251	0.7271	-0.103
Mof_O 	O 	0.1836	0.6675	0.6816	-0.085
Mof_O 	O 	0.9251	0.56305	0.7139	-0.46
Mof_O 	O 	0.0095	0.684	0.601	-0.08
Mof_O 	O 	0.9058	0.657	0.567	-0.064
Mof_N 	N 	0.1373	0.6662	0.7376	-0.016
Mof_N 	N 	0.9706	0.6428	0.5739	0.016
Mof_C 	C 	0.1005	0.7053	0.8933	-0.153
Mof_C 	C 	0.1478	0.7112	0.8238	0.138
Mof_C 	C 	0.2029	0.7633	0.8267	-0.083
Mof_H 	H 	0.2348	0.7652	0.7781	0.108
Mof_C 	C 	0.2108	0.8119	0.9007	-0.037
Mof_C 	C 	0.1642	0.8071	0.9705	-0.004
Mof_H 	H 	0.1691	0.8407	0.0219	0.037
Mof_C 	C 	0.11	0.754	0.9669	0.076
Mof_H 	H 	0.079	0.7513	0.0165	-0.003
Mof_C 	C 	0.0433	0.646	0.8948	0.4
Mof_C 	C 	0.2717	0.8667	0.9067	0.381
Mof_C 	C 	0.9837	0.5671	0.5414	0.14
Mof_Zn	Zn	0.59282	0.08895	0.15769	1.216
Mof_O 	O 	0.43917	0.08174	0.078	-0.579
Mof_O 	O 	0.51973	0.16686	0.1275	-0.468
Mof_O 	O 	0.18354	0.35915	0.1547	-0.479
Mof_O 	O 	0.22584	0.41308	0.0284	-0.505
Mof_O 	O 	0.414	0.1251	0.2729	-0.108
Mof_O 	O 	0.3164	0.1675	0.3184	-0.1
Mof_O 	O 	0.5749	0.06305	0.2861	-0.455
Mof_O 	O 	0.4905	0.184	0.399	-0.061
Mof_O 	O 	0.5942	0.157	0.433	-0.076
Mof_N 	N 	0.3627	0.1662	0.2624	-0.016
Mof_N 	N 	0.5294	0.1428	0.4261	0.003
Mof_C 	C 	0.3995	0.2053	0.1067	-0.139
Mof_C 	C 	0.3522	0.2112	0.1762	0.129
Mof_C 	C 	0.2971	0.2633	0.1733	-0.093
Mof_H 	H 	0.2652	0.2652	0.2219	0.104
Mof_C 	C 	0.2892	0.3119	0.0993	-0.023
Mof_C 	C 	0.3358	0.3071	0.0295	-0.098
Mof_H 	H 	0.3309	0.3407	0.9781	0.112
Mof_C 	C 	0.39	0.254	0.0331	-0.015
Mof_H 	H 	0.421	0.2513	0.9835	0.076
Mof_C 	C 	0.4567	0.146	0.1052	0.418
Mof_C 	C 	0.2283	0.3667	0.0933	0.369
Mof_C 	C 	0.5163	0.0671	0.4586	0.101
Mof_Zn	Zn	0.09282	0.58895	0.15769	1.218
Mof_O 	O 	0.93917	0.58174	0.078	-0.567
Mof_O 	O 	0.01973	0.66686	0.1275	-0.492
Mof_O 	O 	0.68354	0.85915	0.1547	-0.464
Mof_O 	O 	0.72584	0.91308	0.0284	-0.473
Mof_O 	O 	0.914	0.6251	0.2729	-0.09
Mof_O 	O 	0.8164	0.6675	0.3184	-0.084
Mof_O 	O 	0.0749	0.56305	0.2861	-0.465
Mof_O 	O 	0.9905	0.684	0.399	-0.028
Mof_O 	O 	0.0942	0.657	0.433	-0.07
Mof_N 	N 	0.8627	0.6662	0.2624	-0.019
Mof_N 	N 	0.0294	0.6428	0.4261	-0.012
Mof_C 	C 	0.8995	0.7053	0.1067	-0.149
Mof_C 	C 	0.8522	0.7112	0.1762	0.144
Mof_C 	C 	0.7971	0.7633	0.1733	-0.1
Mof_H 	H 	0.7652	0.7652	0.2219	0.113
Mof_C 	C 	0.7892	0.8119	0.0993	-0.008
Mof_C 	C 	0.8358	0.8071	0.0295	-0.103
Mof_H 	H 	0.8309	0.8407	0.9781	0.122
Mof_C 	C 	0.89	0.754	0.0331	0.004
Mof_H 	H 	0.921	0.7513	0.9835	0.076
Mof_C 	C 	0.9567	0.646	0.1052	0.451
Mof_C 	C 	0.7283	0.8667	0.0933	0.365
Mof_C 	C 	0.0163	0.5671	0.4586	0.058
Mof_Zn	Zn	0.59282	0.91105	0.15769	1.23
Mof_O 	O 	0.43917	0.91826	0.078	-0.53
Mof_O 	O 	0.51973	0.83314	0.1275	-0.459
Mof_O 	O 	0.18354	0.64085	0.1547	-0.477
Mof_O 	O 	0.22584	0.58692	0.0284	-0.505
Mof_O 	O 	0.414	0.8749	0.2729	-0.083
Mof_O 	O 	0.3164	0.8325	0.3184	-0.077
Mof_O 	O 	0.5749	0.93695	0.2861	-0.396
Mof_O 	O 	0.4905	0.816	0.399	-0.056
Mof_O 	O 	0.5942	0.843	0.433	-0.061
Mof_N 	N 	0.3627	0.8338	0.2624	-0.018
Mof_N 	N 	0.5294	0.8572	0.4261	-0.004
Mof_C 	C 	0.3995	0.7947	0.1067	-0.135
Mof_C 	C 	0.3522	0.7888	0.1762	0.136
Mof_C 	C 	0.2971	0.7367	0.1733	-0.094
Mof_H 	H 	0.2652	0.7348	0.2219	0.109
Mof_C 	C 	0.2892	0.6881	0.0993	-0.022
Mof_C 	C 	0.3358	0.6929	0.0295	-0.097
Mof_H 	H 	0.3309	0.6593	0.9781	0.11
Mof_C 	C 	0.39	0.746	0.0331	-0.013
Mof_H 	H 	0.421	0.7487	0.9835	0.075
Mof_C 	C 	0.4567	0.854	0.1052	0.409
Mof_C 	C 	0.2283	0.6333	0.0933	0.369
Mof_C 	C 	0.5163	0.9329	0.4586	0.156
Mof_Zn	Zn	0.09282	0.41105	0.15769	1.218
Mof_O 	O 	0.93917	0.41826	0.078	-0.566
Mof_O 	O 	0.01973	0.33314	0.1275	-0.497
Mof_O 	O 	0.68354	0.14085	0.1547	-0.483
Mof_O 	O 	0.72584	0.08692	0.0284	-0.52
Mof_O 	O 	0.914	0.3749	0.2729	-0.092
Mof_O 	O 	0.8164	0.3325	0.3184	-0.089
Mof_O 	O 	0.0749	0.43695	0.2861	-0.466
Mof_O 	O 	0.9905	0.316	0.399	-0.038
Mof_O 	O 	0.0942	0.343	0.433	-0.077
Mof_N 	N 	0.8627	0.3338	0.2624	-0.019
Mof_N 	N 	0.0294	0.3572	0.4261	-0.01
Mof_C 	C 	0.8995	0.2947	0.1067	-0.148
Mof_C 	C 	0.8522	0.2888	0.1762	0.137
Mof_C 	C 	0.7971	0.2367	0.1733	-0.097
Mof_H 	H 	0.7652	0.2348	0.2219	0.106
Mof_C 	C 	0.7892	0.1881	0.0993	-0.025
Mof_C 	C 	0.8358	0.1929	0.0295	-0.102
Mof_H 	H 	0.8309	0.1593	0.9781	0.107
Mof_C 	C 	0.89	0.246	0.0331	-0.008
Mof_H 	H 	0.921	0.2487	0.9835	0.075
Mof_C 	C 	0.9567	0.354	0.1052	0.45
Mof_C 	C 	0.7283	0.1333	0.0933	0.368
Mof_C 	C 	0.0163	0.4329	0.4586	0.057
Mof_Zn	Zn	0.40718	0.91105	0.84231	1.232
Mof_O 	O 	0.56083	0.91826	0.922	-0.51
Mof_O 	O 	0.48027	0.83314	0.8725	-0.453
Mof_O 	O 	0.81646	0.64085	0.8453	-0.471
Mof_O 	O 	0.77416	0.58692	0.9716	-0.47
Mof_O 	O 	0.586	0.8749	0.7271	-0.081
Mof_O 	O 	0.6836	0.8325	0.6816	-0.072
Mof_O 	O 	0.4251	0.93695	0.7139	-0.398
Mof_O 	O 	0.5095	0.816	0.601	-0.056
Mof_O 	O 	0.4058	0.843	0.567	-0.062
Mof_N 	N 	0.6373	0.8338	0.7376	-0.019
Mof_N 	N 	0.4706	0.8572	0.5739	-0.004
Mof_C 	C 	0.6005	0.7947	0.8933	-0.156
Mof_C 	C 	0.6478	0.7888	0.8238	0.144
Mof_C 	C 	0.7029	0.7367	0.8267	-0.084
Mof_H 	H 	0.7348	0.7348	0.7781	0.11
Mof_C 	C 	0.7108	0.6881	0.9007	-0.042
Mof_C 	C 	0.6642	0.6929	0.9705	-0.003
Mof_H 	H 	0.6691	0.6593	0.0219	0.03
Mof_C 	C 	0.61	0.746	0.9669	0.078
Mof_H 	H 	0.579	0.7487	0.0165	-0.002
Mof_C 	C 	0.5433	0.854	0.8948	0.427
Mof_C 	C 	0.7717	0.6333	0.9067	0.382
Mof_C 	C 	0.4837	0.9329	0.5414	0.155
Mof_Zn	Zn	0.90718	0.41105	0.84231	1.222
Mof_O 	O 	0.06083	0.41826	0.922	-0.543
Mof_O 	O 	0.98027	0.33314	0.8725	-0.433
Mof_O 	O 	0.31646	0.14085	0.8453	-0.48
Mof_O 	O 	0.27416	0.08692	0.9716	-0.486
Mof_O 	O 	0.086	0.3749	0.7271	-0.105
Mof_O 	O 	0.1836	0.3325	0.6816	-0.09
Mof_O 	O 	0.9251	0.43695	0.7139	-0.461
Mof_O 	O 	0.0095	0.316	0.601	-0.09
Mof_O 	O 	0.9058	0.343	0.567	-0.072
Mof_N 	N 	0.1373	0.3338	0.7376	-0.016
Mof_N 	N 	0.9706	0.3572	0.5739	0.018
Mof_C 	C 	0.1005	0.2947	0.8933	-0.152
Mof_C 	C 	0.1478	0.2888	0.8238	0.131
Mof_C 	C 	0.2029	0.2367	0.8267	-0.078
Mof_H 	H 	0.2348	0.2348	0.7781	0.101
Mof_C 	C 	0.2108	0.1881	0.9007	-0.056
Mof_C 	C 	0.1642	0.1929	0.9705	0.006
Mof_H 	H 	0.1691	0.1593	0.0219	0.016
Mof_C 	C 	0.11	0.246	0.9669	0.067
Mof_H 	H 	0.079	0.2487	0.0165	-0.008
Mof_C 	C 	0.0433	0.354	0.8948	0.399
Mof_C 	C 	0.2717	0.1333	0.9067	0.385
Mof_C 	C 	0.9837	0.4329	0.5414	0.139
Mof_Zn	Zn	0.5	0	-0	1.176
Mof_Zn	Zn	5.26269e-33	0.5	-0	1.182
Mof_Zn	Zn	0.3381	1.64459e-34	0.0094	1.168
Mof_O 	O 	0.4115	1.05254e-32	0.9196	-0.938
Mof_C 	C 	0.436	0	0.6783	0.34
Mof_C 	C 	0.4671	5.26269e-33	0.5833	-0.168
Mof_Zn	Zn	0.8381	0.5	0.0094	1.186
Mof_O 	O 	0.9115	0.5	0.9196	-0.896
Mof_C 	C 	0.936	0.5	0.6783	0.422
Mof_C 	C 	0.9671	0.5	0.5833	-0.127
Mof_Zn	Zn	0.6619	1.05254e-32	0.9906	1.198
Mof_O 	O 	0.5885	6.57837e-34	0.0804	-0.968
Mof_C 	C 	0.564	2.63135e-33	0.3217	0.339
Mof_C 	C 	0.5329	2.63135e-33	0.4167	-0.168
Mof_Zn	Zn	0.1619	0.5	0.9906	1.215
Mof_O 	O 	0.0885	0.5	0.0804	-0.936
Mof_C 	C 	0.064	0.5	0.3217	0.404
Mof_C 	C 	0.0329	0.5	0.4167	-0.09
_end
