data_functionalizedCrystal
_audit_creation_method	'EQeq! by Chris Wilmer'
_symmetry_space_group_name_H-M	'P1'
_symmetry_Int_Tables_number	1
_symmetry_cell_setting	triclinic
loop_
_symmetry_equiv_pos_as_xyz
  x,y,z
_cell_length_a	9.7512
_cell_length_b	15.8547
_cell_length_c	15.8547
_cell_angle_alpha	64.0902
_cell_angle_beta	78.1698
_cell_angle_gamma	101.83
loop_
_atom_site_label
_atom_site_type_symbol
_atom_site_fract_x
_atom_site_fract_y
_atom_site_fract_z
_atom_site_charge
Mof_Fe	Fe	2.79527e-17	0.5	-0	0.593
Mof_Fe	Fe	-1.39763e-17	2.79527e-17	0.5	0.595
Mof_Fe	Fe	0.5	0.5	0.5	0.655
Mof_H 	H 	0.976	0.5838	0.1442	0.059
Mof_H 	H 	0.0242	0.7289	0.1489	0.06
Mof_H 	H 	0.1202	0.1442	0.272	-0.004
Mof_H 	H 	0.1731	0.1489	0.1222	0.075
Mof_H 	H 	0.3922	0.272	0.5838	-0.007
Mof_H 	H 	0.2953	0.1222	0.7289	0.085
Mof_H 	H 	0.8798	0.272	0.1442	-0.002
Mof_H 	H 	0.8269	0.1222	0.1489	0.098
Mof_H 	H 	0.6078	0.5838	0.272	-0.005
Mof_H 	H 	0.7047	0.7289	0.1222	0.094
Mof_H 	H 	0.024	0.1442	0.5838	-0.063
Mof_H 	H 	0.9758	0.1489	0.7289	0.116
Mof_H 	H 	0.024	0.4162	0.8558	-0.062
Mof_H 	H 	0.9758	0.2711	0.8511	0.113
Mof_H 	H 	0.8798	0.8558	0.728	-0.004
Mof_H 	H 	0.8269	0.8511	0.8778	0.101
Mof_H 	H 	0.6078	0.728	0.4162	-0.005
Mof_H 	H 	0.7047	0.8778	0.2711	0.098
Mof_H 	H 	0.1202	0.728	0.8558	-0.005
Mof_H 	H 	0.1731	0.8778	0.8511	0.078
Mof_H 	H 	0.3922	0.4162	0.728	-0.006
Mof_H 	H 	0.2953	0.2711	0.8778	0.091
Mof_H 	H 	0.976	0.8558	0.4162	0.052
Mof_H 	H 	0.0242	0.8511	0.2711	0.059
Mof_Au	Au	0.20784	0.41568	0.29216	0.024
Mof_Au	Au	0.5	0.29216	0.29216	0.041
Mof_Au	Au	0.79216	0.29216	0.41568	0.06
Mof_Au	Au	0.79216	0.58432	0.70784	0.063
Mof_Au	Au	0.5	0.70784	0.70784	0.05
Mof_Au	Au	0.20784	0.70784	0.58432	0.029
Mof_C 	C 	0.0153	0.6439	0.0846	-0.01
Mof_C 	C 	0.0448	0.7306	0.0882	-0.089
Mof_C 	C 	0.133	0.4242	0.1826	0.035
Mof_C 	C 	0.0999	0.0846	0.2715	0.069
Mof_C 	C 	0.133	0.0882	0.1812	-0.127
Mof_C 	C 	0.3156	0.1826	0.3932	0.042
Mof_C 	C 	0.3714	0.2715	0.6439	0.09
Mof_C 	C 	0.3142	0.1812	0.7306	-0.152
Mof_C 	C 	0.7088	0.3932	0.4242	0.049
Mof_C 	C 	0.9001	0.2715	0.0846	0.105
Mof_C 	C 	0.867	0.1812	0.0882	-0.161
Mof_C 	C 	0.6844	0.3932	0.1826	0.045
Mof_C 	C 	0.6286	0.6439	0.2715	0.098
Mof_C 	C 	0.6858	0.7306	0.1812	-0.15
Mof_C 	C 	0.2912	0.4242	0.3932	0.043
Mof_C 	C 	0.9847	0.0846	0.6439	0.182
Mof_C 	C 	0.9552	0.0882	0.7306	-0.196
Mof_C 	C 	0.867	0.1826	0.4242	0.053
Mof_C 	C 	0.9847	0.3561	0.9154	0.192
Mof_C 	C 	0.9552	0.2694	0.9118	-0.183
Mof_C 	C 	0.867	0.5758	0.8174	0.055
Mof_C 	C 	0.9001	0.9154	0.7285	0.118
Mof_C 	C 	0.867	0.9118	0.8188	-0.15
Mof_C 	C 	0.6844	0.8174	0.6068	0.048
Mof_C 	C 	0.6286	0.7285	0.3561	0.098
Mof_C 	C 	0.6858	0.8188	0.2694	-0.15
Mof_C 	C 	0.2912	0.6068	0.5758	0.043
Mof_C 	C 	0.0999	0.7285	0.9154	0.085
Mof_C 	C 	0.133	0.8188	0.9118	-0.109
Mof_C 	C 	0.3156	0.6068	0.8174	0.045
Mof_C 	C 	0.3714	0.3561	0.7285	0.091
Mof_C 	C 	0.3142	0.2694	0.8188	-0.152
Mof_C 	C 	0.7088	0.5758	0.6068	0.049
Mof_C 	C 	0.0153	0.9154	0.3561	0.011
Mof_C 	C 	0.0448	0.9118	0.2694	-0.082
Mof_C 	C 	0.133	0.8174	0.5758	0.038
Mof_C 	C 	0.10585	0.82015	-0	0.021
Mof_C 	C 	0.13995	0.91675	-0	0.108
Mof_C 	C 	0.10585	0	0.17985	0.026
Mof_C 	C 	0.13995	-6.98816e-18	0.08325	0.092
Mof_C 	C 	0.2857	0.17985	0.82015	0.068
Mof_C 	C 	0.2232	0.08325	0.91675	0.108
Mof_C 	C 	0.89415	0.17985	-0	0.087
Mof_C 	C 	0.86005	0.08325	-0	0.089
Mof_C 	C 	0.7143	0.82015	0.17985	0.078
Mof_C 	C 	0.7768	0.91675	0.08325	0.115
Mof_C 	C 	0.89415	0	0.82015	0.087
Mof_C 	C 	0.86005	5.59053e-17	0.91675	0.103
Mof_N 	N 	0.0906	0.4419	0.1175	-0.185
Mof_N 	N 	0.2081	0.1175	0.4406	-0.181
Mof_N 	N 	0.6487	0.4406	0.4419	-0.178
Mof_N 	N 	0.7919	0.4406	0.1175	-0.167
Mof_N 	N 	0.3513	0.4419	0.4406	-0.182
Mof_N 	N 	0.9094	0.1175	0.4419	-0.164
Mof_N 	N 	0.9094	0.5581	0.8825	-0.159
Mof_N 	N 	0.7919	0.8825	0.5594	-0.162
Mof_N 	N 	0.3513	0.5594	0.5581	-0.182
Mof_N 	N 	0.2081	0.5594	0.8825	-0.174
Mof_N 	N 	0.6487	0.5581	0.5594	-0.178
Mof_N 	N 	0.0906	0.8825	0.5581	-0.178
Mof_N 	N 	0.0402	0.6418	-0	-0.181
Mof_N 	N 	0.0402	2.79527e-17	0.3582	-0.181
Mof_N 	N 	0.3984	0.3582	0.6418	-0.19
Mof_N 	N 	0.9598	0.3582	-0	-0.2
Mof_N 	N 	0.6016	0.6418	0.3582	-0.19
Mof_N 	N 	0.9598	-5.59053e-17	0.6418	-0.201
Mof_N 	N 	0.1086	0.9121	0.0879	-0.139
Mof_N 	N 	0.1965	0.0879	-0	-0.153
Mof_N 	N 	0.1965	5.59053e-17	0.9121	-0.146
Mof_N 	N 	0.8035	0	0.0879	-0.143
Mof_N 	N 	0.8035	0.9121	-0	-0.139
Mof_N 	N 	0.8914	0.0879	0.9121	-0.128
_end
