data_functionalizedCrystal
_audit_creation_method	'EQeq! by Chris Wilmer'
_symmetry_space_group_name_H-M	'P1'
_symmetry_Int_Tables_number	1
_symmetry_cell_setting	triclinic
loop_
_symmetry_equiv_pos_as_xyz
  x,y,z
_cell_length_a	9.882
_cell_length_b	11.3983
_cell_length_c	14.6144
_cell_angle_alpha	91.3223
_cell_angle_beta	90
_cell_angle_gamma	90
loop_
_atom_site_label
_atom_site_type_symbol
_atom_site_fract_x
_atom_site_fract_y
_atom_site_fract_z
_atom_site_charge
Mof_Fe	Fe	0.91847	0.75605	0.13196	1.002
Mof_Fe	Fe	0.89465	0.26017	0.68717	0.973
Mof_Fe	Fe	0.41847	0.74395	0.36804	0.936
Mof_Fe	Fe	0.39465	0.23983	0.81283	0.934
Mof_Fe	Fe	0.08153	0.24395	0.86804	0.851
Mof_Fe	Fe	0.10535	0.73983	0.31283	0.905
Mof_Fe	Fe	0.58153	0.25605	0.63196	0.916
Mof_Fe	Fe	0.60535	0.76017	0.18717	0.942
Mof_Fe	Fe	-0	0.5	-0	0.775
Mof_Fe	Fe	0.5	-2.15879e-18	0.5	0.884
Mof_Fe	Fe	-0	0	-0	0.717
Mof_Fe	Fe	0.5	0.5	0.5	0.962
Mof_H 	H 	0.7524	0.8597	0.3661	-0.105
Mof_H 	H 	0.025	0.4758	0.2655	-0.098
Mof_H 	H 	0.6188	0.5587	0.0379	-0.086
Mof_H 	H 	0.188	0.9803	0.2328	-0.149
Mof_H 	H 	0.1681	0.7	0.934	-0.12
Mof_H 	H 	0.7001	0.9915	0.0107	-0.098
Mof_H 	H 	0.2524	0.6403	0.1339	-0.125
Mof_H 	H 	0.525	0.0242	0.2345	-0.219
Mof_H 	H 	0.1188	0.9413	0.4621	-0.112
Mof_H 	H 	0.688	0.5197	0.2672	-0.126
Mof_H 	H 	0.6681	0.8	0.566	-0.096
Mof_H 	H 	0.2001	0.5085	0.4893	-0.116
Mof_H 	H 	0.2476	0.1403	0.6339	-0.133
Mof_H 	H 	0.975	0.5242	0.7345	-0.123
Mof_H 	H 	0.3812	0.4413	0.9621	-0.126
Mof_H 	H 	0.812	0.0197	0.7672	-0.094
Mof_H 	H 	0.8319	0.3	0.066	-0.073
Mof_H 	H 	0.2999	0.0085	0.9893	-0.09
Mof_H 	H 	0.7476	0.3597	0.8661	-0.108
Mof_H 	H 	0.475	0.9758	0.7655	-0.003
Mof_H 	H 	0.8812	0.0587	0.5379	-0.107
Mof_H 	H 	0.312	0.4803	0.7328	-0.133
Mof_H 	H 	0.3319	0.2	0.434	-0.125
Mof_H 	H 	0.7999	0.4915	0.5107	-0.093
Mof_C 	C 	0.8226	0.83011	0.33001	0.515
Mof_C 	C 	0.0081	0.51609	0.21209	0.414
Mof_C 	C 	0.71	0.5762	0.0455	0.389
Mof_C 	C 	0.1295	0.95291	0.18721	0.614
Mof_C 	C 	0.1081	0.74375	0.97015	0.615
Mof_C 	C 	0.7168	0.93134	0.05114	0.493
Mof_C 	C 	0.3226	0.66989	0.16999	0.519
Mof_C 	C 	0.5081	0.98391	0.28791	0.721
Mof_C 	C 	0.21	0.9238	0.4545	0.514
Mof_C 	C 	0.6295	0.54709	0.31279	0.533
Mof_C 	C 	0.6081	0.75625	0.52985	0.521
Mof_C 	C 	0.2168	0.56866	0.44886	0.514
Mof_C 	C 	0.1774	0.16989	0.66999	0.523
Mof_C 	C 	0.9919	0.48391	0.78791	0.609
Mof_C 	C 	0.29	0.4238	0.9545	0.625
Mof_C 	C 	0.8705	0.04709	0.81279	0.413
Mof_C 	C 	0.8919	0.25625	0.02985	0.378
Mof_C 	C 	0.2832	0.06866	0.94886	0.49
Mof_C 	C 	0.6774	0.33011	0.83001	0.517
Mof_C 	C 	0.4919	0.01609	0.71209	0.311
Mof_C 	C 	0.79	0.0762	0.5455	0.52
Mof_C 	C 	0.3705	0.45291	0.68721	0.536
Mof_C 	C 	0.3919	0.24375	0.47015	0.535
Mof_C 	C 	0.7832	0.43134	0.55114	0.504
Mof_O 	O 	0.79637	0.80903	0.24623	-0.468
Mof_O 	O 	0.93257	0.81509	0.36829	-0.355
Mof_O 	O 	0.00102	0.62674	0.21881	-0.479
Mof_O 	O 	0.9946	0.45693	0.14113	-0.303
Mof_O 	O 	0.73921	0.65248	0.10611	-0.446
Mof_O 	O 	0.79027	0.52223	0.99503	-0.262
Mof_O 	O 	0.08163	0.85119	0.19668	-0.524
Mof_O 	O 	0.107	0.01926	0.12416	-0.472
Mof_O 	O 	0.03008	0.68662	0.02303	-0.551
Mof_O 	O 	0.1113	0.84997	0.96267	-0.37
Mof_O 	O 	0.84029	0.89862	0.05983	-0.432
Mof_O 	O 	0.6184	0.89098	0.09116	-0.392
Mof_O 	O 	0.29637	0.69097	0.25377	-0.476
Mof_O 	O 	0.43257	0.68491	0.13171	-0.411
Mof_O 	O 	0.50102	0.87326	0.28119	-0.523
Mof_O 	O 	0.4946	0.04307	0.35887	-0.476
Mof_O 	O 	0.23921	0.84752	0.39389	-0.472
Mof_O 	O 	0.29027	0.97777	0.50497	-0.363
Mof_O 	O 	0.58163	0.64881	0.30332	-0.482
Mof_O 	O 	0.607	0.48074	0.37584	-0.402
Mof_O 	O 	0.53008	0.81338	0.47697	-0.459
Mof_O 	O 	0.6113	0.65003	0.53733	-0.402
Mof_O 	O 	0.34029	0.60138	0.44017	-0.475
Mof_O 	O 	0.1184	0.60902	0.40884	-0.413
Mof_O 	O 	0.20363	0.19097	0.75377	-0.487
Mof_O 	O 	0.06743	0.18491	0.63171	-0.448
Mof_O 	O 	0.99898	0.37326	0.78119	-0.464
Mof_O 	O 	0.0054	0.54307	0.85887	-0.426
Mof_O 	O 	0.26079	0.34752	0.89389	-0.494
Mof_O 	O 	0.20973	0.47777	0.00497	-0.467
Mof_O 	O 	0.91837	0.14881	0.80332	-0.42
Mof_O 	O 	0.893	0.98074	0.87584	-0.25
Mof_O 	O 	0.96992	0.31338	0.97697	-0.329
Mof_O 	O 	0.8887	0.15003	0.03733	-0.351
Mof_O 	O 	0.15971	0.10138	0.94017	-0.436
Mof_O 	O 	0.3816	0.10902	0.90884	-0.392
Mof_O 	O 	0.70363	0.30903	0.74623	-0.478
Mof_O 	O 	0.56743	0.31509	0.86829	-0.388
Mof_O 	O 	0.49898	0.12674	0.71881	-0.427
Mof_O 	O 	0.5054	0.95693	0.64113	-0.285
Mof_O 	O 	0.76079	0.15248	0.60611	-0.477
Mof_O 	O 	0.70973	0.02223	0.49503	-0.405
Mof_O 	O 	0.41837	0.35119	0.69668	-0.484
Mof_O 	O 	0.393	0.51926	0.62416	-0.405
Mof_O 	O 	0.46992	0.18662	0.52303	-0.476
Mof_O 	O 	0.3887	0.34997	0.46267	-0.416
Mof_O 	O 	0.65971	0.39862	0.55983	-0.467
Mof_O 	O 	0.8816	0.39098	0.59116	-0.382
_end
