data_functionalizedCrystal
_audit_creation_method	'EQeq! by Chris Wilmer'
_symmetry_space_group_name_H-M	'P1'
_symmetry_Int_Tables_number	1
_symmetry_cell_setting	triclinic
loop_
_symmetry_equiv_pos_as_xyz
  x,y,z
_cell_length_a	18.6992
_cell_length_b	18.6992
_cell_length_c	35.768
_cell_angle_alpha	90
_cell_angle_beta	90
_cell_angle_gamma	90
loop_
_atom_site_label
_atom_site_type_symbol
_atom_site_fract_x
_atom_site_fract_y
_atom_site_fract_z
_atom_site_charge
Mof_N 	N 	0.3499	0.0312	0.9597	-0.227
Mof_N 	N 	0.2172	0.0403	0.9595	-0.195
Mof_C 	C 	0.4176	0.0634	0.9651	0.216
Mof_C 	C 	0.453	0.0715	0.93	-0.27
Mof_C 	C 	0.4052	0.0566	0.9031	0.053
Mof_H 	H 	0.4123	0.0631	0.8776	0.017
Mof_C 	C 	0.3397	0.0284	0.9204	0.016
Mof_C 	C 	0.2244	0.0311	0.9207	0.116
Mof_C 	C 	0.171	0.0593	0.9024	-0.206
Mof_H 	H 	0.1686	0.0673	0.8768	0.109
Mof_C 	C 	0.1106	0.0777	0.9325	0.31
Mof_H 	H 	0.0641	0.0936	0.9285	-0.193
Mof_C 	C 	0.1447	0.0638	0.9656	-0.059
Mof_C 	C 	0.2768	0.0641	0.8422	-0.072
Mof_H 	H 	0.2799	0.1072	0.8551	0.071
Mof_C 	C 	0.2694	0.0651	0.80345	-0.071
Mof_C 	C 	0.2634	0.1315	0.78342	0.356
Mof_O 	O 	0.2886	0.1866	0.79941	-0.405
Mof_O 	O 	0.2361	0.1322	0.75151	-0.413
Mof_N 	N 	0.8499	0.5312	0.4597	-0.216
Mof_N 	N 	0.7172	0.5403	0.4595	-0.197
Mof_C 	C 	0.9176	0.5634	0.4651	0.106
Mof_C 	C 	0.953	0.5715	0.43	-0.075
Mof_C 	C 	0.9052	0.5566	0.4031	-0.063
Mof_H 	H 	0.9123	0.5631	0.3776	0.065
Mof_C 	C 	0.8397	0.5284	0.4204	0.093
Mof_C 	C 	0.7244	0.5311	0.4207	0.146
Mof_C 	C 	0.671	0.5593	0.4024	-0.214
Mof_H 	H 	0.6686	0.5673	0.3768	0.116
Mof_C 	C 	0.6106	0.5777	0.4325	0.312
Mof_H 	H 	0.5641	0.5936	0.4285	-0.188
Mof_C 	C 	0.6447	0.5638	0.4656	-0.065
Mof_C 	C 	0.7768	0.5641	0.3422	-0.075
Mof_H 	H 	0.7799	0.6072	0.3551	0.072
Mof_C 	C 	0.7694	0.5651	0.30345	-0.073
Mof_C 	C 	0.7634	0.6315	0.28342	0.359
Mof_O 	O 	0.7886	0.6866	0.29941	-0.402
Mof_O 	O 	0.7361	0.6322	0.25151	-0.409
Mof_N 	N 	0.6501	0.9688	0.9597	-0.216
Mof_N 	N 	0.7828	0.9597	0.9595	-0.195
Mof_C 	C 	0.5824	0.9366	0.9651	0.163
Mof_C 	C 	0.547	0.9285	0.93	-0.145
Mof_C 	C 	0.5948	0.9434	0.9031	-0.055
Mof_H 	H 	0.5877	0.9369	0.8776	0.064
Mof_C 	C 	0.6603	0.9716	0.9204	0.16
Mof_C 	C 	0.7756	0.9689	0.9207	0.198
Mof_C 	C 	0.829	0.9407	0.9024	-0.239
Mof_H 	H 	0.8314	0.9327	0.8768	0.132
Mof_C 	C 	0.8894	0.9223	0.9325	0.336
Mof_H 	H 	0.9359	0.9064	0.9285	-0.2
Mof_C 	C 	0.8553	0.9362	0.9656	-0.053
Mof_C 	C 	0.7232	0.9359	0.8422	-0.052
Mof_H 	H 	0.7201	0.8928	0.8551	0.063
Mof_C 	C 	0.7306	0.9349	0.80345	-0.049
Mof_C 	C 	0.7366	0.8685	0.78342	0.353
Mof_O 	O 	0.7114	0.8134	0.79941	-0.403
Mof_O 	O 	0.7639	0.8678	0.75151	-0.4
Mof_N 	N 	0.1501	0.4688	0.4597	-0.22
Mof_N 	N 	0.2828	0.4597	0.4595	-0.197
Mof_C 	C 	0.0824	0.4366	0.4651	0.141
Mof_C 	C 	0.047	0.4285	0.43	-0.142
Mof_C 	C 	0.0948	0.4434	0.4031	-0.035
Mof_H 	H 	0.0877	0.4369	0.3776	0.045
Mof_C 	C 	0.1603	0.4716	0.4204	0.082
Mof_C 	C 	0.2756	0.4689	0.4207	0.143
Mof_C 	C 	0.329	0.4407	0.4024	-0.214
Mof_H 	H 	0.3314	0.4327	0.3768	0.116
Mof_C 	C 	0.3894	0.4223	0.4325	0.313
Mof_H 	H 	0.4359	0.4064	0.4285	-0.189
Mof_C 	C 	0.3553	0.4362	0.4656	-0.066
Mof_C 	C 	0.2232	0.4359	0.3422	-0.071
Mof_H 	H 	0.2201	0.3928	0.3551	0.067
Mof_C 	C 	0.2306	0.4349	0.30345	-0.079
Mof_C 	C 	0.2366	0.3685	0.28342	0.361
Mof_O 	O 	0.2114	0.3134	0.29941	-0.408
Mof_O 	O 	0.2639	0.3678	0.25151	-0.41
Mof_N 	N 	0.9688	0.3499	0.9597	-0.216
Mof_N 	N 	0.9597	0.2172	0.9595	-0.194
Mof_C 	C 	0.9366	0.4176	0.9651	0.163
Mof_C 	C 	0.9285	0.453	0.93	-0.145
Mof_C 	C 	0.9434	0.4052	0.9031	-0.055
Mof_H 	H 	0.9369	0.4123	0.8776	0.064
Mof_C 	C 	0.9716	0.3397	0.9204	0.16
Mof_C 	C 	0.9689	0.2244	0.9207	0.197
Mof_C 	C 	0.9407	0.171	0.9024	-0.237
Mof_H 	H 	0.9327	0.1686	0.8768	0.128
Mof_C 	C 	0.9223	0.1106	0.9325	0.324
Mof_H 	H 	0.9064	0.0641	0.9285	-0.2
Mof_C 	C 	0.9362	0.1447	0.9656	-0.05
Mof_C 	C 	0.9359	0.2768	0.8422	-0.052
Mof_H 	H 	0.8928	0.2799	0.8551	0.063
Mof_C 	C 	0.9349	0.2694	0.80345	-0.051
Mof_C 	C 	0.8685	0.2634	0.78342	0.353
Mof_O 	O 	0.8134	0.2886	0.79941	-0.403
Mof_O 	O 	0.8678	0.2361	0.75151	-0.403
Mof_N 	N 	0.4688	0.8499	0.4597	-0.216
Mof_N 	N 	0.4597	0.7172	0.4595	-0.197
Mof_C 	C 	0.4366	0.9176	0.4651	0.106
Mof_C 	C 	0.4285	0.953	0.43	-0.078
Mof_C 	C 	0.4434	0.9052	0.4031	-0.061
Mof_H 	H 	0.4369	0.9123	0.3776	0.064
Mof_C 	C 	0.4716	0.8397	0.4204	0.091
Mof_C 	C 	0.4689	0.7244	0.4207	0.145
Mof_C 	C 	0.4407	0.671	0.4024	-0.215
Mof_H 	H 	0.4327	0.6686	0.3768	0.116
Mof_C 	C 	0.4223	0.6106	0.4325	0.313
Mof_H 	H 	0.4064	0.5641	0.4285	-0.189
Mof_C 	C 	0.4362	0.6447	0.4656	-0.066
Mof_C 	C 	0.4359	0.7768	0.3422	-0.075
Mof_H 	H 	0.3928	0.7799	0.3551	0.071
Mof_C 	C 	0.4349	0.7694	0.30345	-0.073
Mof_C 	C 	0.3685	0.7634	0.28342	0.36
Mof_O 	O 	0.3134	0.7886	0.29941	-0.404
Mof_O 	O 	0.3678	0.7361	0.25151	-0.409
Mof_N 	N 	0.0312	0.6501	0.9597	-0.228
Mof_N 	N 	0.0403	0.7828	0.9595	-0.197
Mof_C 	C 	0.0634	0.5824	0.9651	0.215
Mof_C 	C 	0.0715	0.547	0.93	-0.271
Mof_C 	C 	0.0566	0.5948	0.9031	0.052
Mof_H 	H 	0.0631	0.5877	0.8776	0.016
Mof_C 	C 	0.0284	0.6603	0.9204	0.015
Mof_C 	C 	0.0311	0.7756	0.9207	0.116
Mof_C 	C 	0.0593	0.829	0.9024	-0.207
Mof_H 	H 	0.0673	0.8314	0.8768	0.112
Mof_C 	C 	0.0777	0.8894	0.9325	0.322
Mof_H 	H 	0.0936	0.9359	0.9285	-0.192
Mof_C 	C 	0.0638	0.8553	0.9656	-0.062
Mof_C 	C 	0.0641	0.7232	0.8422	-0.073
Mof_H 	H 	0.1072	0.7201	0.8551	0.071
Mof_C 	C 	0.0651	0.7306	0.80345	-0.069
Mof_C 	C 	0.1315	0.7366	0.78342	0.356
Mof_O 	O 	0.1866	0.7114	0.79941	-0.405
Mof_O 	O 	0.1322	0.7639	0.75151	-0.41
Mof_N 	N 	0.5312	0.1501	0.4597	-0.219
Mof_N 	N 	0.5403	0.2828	0.4595	-0.197
Mof_C 	C 	0.5634	0.0824	0.4651	0.141
Mof_C 	C 	0.5715	0.047	0.43	-0.139
Mof_C 	C 	0.5566	0.0948	0.4031	-0.037
Mof_H 	H 	0.5631	0.0877	0.3776	0.046
Mof_C 	C 	0.5284	0.1603	0.4204	0.085
Mof_C 	C 	0.5311	0.2756	0.4207	0.144
Mof_C 	C 	0.5593	0.329	0.4024	-0.214
Mof_H 	H 	0.5673	0.3314	0.3768	0.116
Mof_C 	C 	0.5777	0.3894	0.4325	0.313
Mof_H 	H 	0.5936	0.4359	0.4285	-0.189
Mof_C 	C 	0.5638	0.3553	0.4656	-0.066
Mof_C 	C 	0.5641	0.2232	0.3422	-0.071
Mof_H 	H 	0.6072	0.2201	0.3551	0.068
Mof_C 	C 	0.5651	0.2306	0.30345	-0.078
Mof_C 	C 	0.6315	0.2366	0.28342	0.36
Mof_O 	O 	0.6866	0.2114	0.29941	-0.407
Mof_O 	O 	0.6322	0.2639	0.25151	-0.41
Mof_N 	N 	0.6501	0.0312	0.0403	-0.231
Mof_N 	N 	0.7828	0.0403	0.0405	-0.201
Mof_C 	C 	0.5824	0.0634	0.0349	0.195
Mof_C 	C 	0.547	0.0715	0.07	-0.26
Mof_C 	C 	0.5948	0.0566	0.0969	0.046
Mof_H 	H 	0.5877	0.0631	0.1224	0.017
Mof_C 	C 	0.6603	0.0284	0.0796	0.015
Mof_C 	C 	0.7756	0.0311	0.0793	0.115
Mof_C 	C 	0.829	0.0593	0.0976	-0.204
Mof_H 	H 	0.8314	0.0673	0.1232	0.111
Mof_C 	C 	0.8894	0.0777	0.0675	0.309
Mof_H 	H 	0.9359	0.0936	0.0715	-0.183
Mof_C 	C 	0.8553	0.0638	0.0344	-0.072
Mof_C 	C 	0.7232	0.0641	0.1578	-0.072
Mof_H 	H 	0.7201	0.1072	0.1449	0.071
Mof_C 	C 	0.7306	0.0651	0.19655	-0.069
Mof_C 	C 	0.7366	0.1315	0.21658	0.356
Mof_O 	O 	0.7114	0.1866	0.20059	-0.405
Mof_O 	O 	0.7639	0.1322	0.24849	-0.41
Mof_N 	N 	0.1501	0.5312	0.5403	-0.219
Mof_N 	N 	0.2828	0.5403	0.5405	-0.197
Mof_C 	C 	0.0824	0.5634	0.5349	0.141
Mof_C 	C 	0.047	0.5715	0.57	-0.139
Mof_C 	C 	0.0948	0.5566	0.5969	-0.037
Mof_H 	H 	0.0877	0.5631	0.6224	0.046
Mof_C 	C 	0.1603	0.5284	0.5796	0.085
Mof_C 	C 	0.2756	0.5311	0.5793	0.144
Mof_C 	C 	0.329	0.5593	0.5976	-0.214
Mof_H 	H 	0.3314	0.5673	0.6232	0.116
Mof_C 	C 	0.3894	0.5777	0.5675	0.313
Mof_H 	H 	0.4359	0.5936	0.5715	-0.189
Mof_C 	C 	0.3553	0.5638	0.5344	-0.066
Mof_C 	C 	0.2232	0.5641	0.6578	-0.072
Mof_H 	H 	0.2201	0.6072	0.6449	0.068
Mof_C 	C 	0.2306	0.5651	0.69655	-0.078
Mof_C 	C 	0.2366	0.6315	0.71658	0.36
Mof_O 	O 	0.2114	0.6866	0.70059	-0.407
Mof_O 	O 	0.2639	0.6322	0.74849	-0.41
Mof_N 	N 	0.3499	0.9688	0.0403	-0.219
Mof_N 	N 	0.2172	0.9597	0.0405	-0.199
Mof_C 	C 	0.4176	0.9366	0.0349	0.144
Mof_C 	C 	0.453	0.9285	0.07	-0.132
Mof_C 	C 	0.4052	0.9434	0.0969	-0.063
Mof_H 	H 	0.4123	0.9369	0.1224	0.066
Mof_C 	C 	0.3397	0.9716	0.0796	0.164
Mof_C 	C 	0.2244	0.9689	0.0793	0.198
Mof_C 	C 	0.171	0.9407	0.0976	-0.235
Mof_H 	H 	0.1686	0.9327	0.1232	0.128
Mof_C 	C 	0.1106	0.9223	0.0675	0.311
Mof_H 	H 	0.0641	0.9064	0.0715	-0.191
Mof_C 	C 	0.1447	0.9362	0.0344	-0.059
Mof_C 	C 	0.2768	0.9359	0.1578	-0.051
Mof_H 	H 	0.2799	0.8928	0.1449	0.062
Mof_C 	C 	0.2694	0.9349	0.19655	-0.051
Mof_C 	C 	0.2634	0.8685	0.21658	0.353
Mof_O 	O 	0.2886	0.8134	0.20059	-0.404
Mof_O 	O 	0.2361	0.8678	0.24849	-0.403
Mof_N 	N 	0.8499	0.4688	0.5403	-0.216
Mof_N 	N 	0.7172	0.4597	0.5405	-0.197
Mof_C 	C 	0.9176	0.4366	0.5349	0.106
Mof_C 	C 	0.953	0.4285	0.57	-0.078
Mof_C 	C 	0.9052	0.4434	0.5969	-0.061
Mof_H 	H 	0.9123	0.4369	0.6224	0.064
Mof_C 	C 	0.8397	0.4716	0.5796	0.091
Mof_C 	C 	0.7244	0.4689	0.5793	0.145
Mof_C 	C 	0.671	0.4407	0.5976	-0.215
Mof_H 	H 	0.6686	0.4327	0.6232	0.116
Mof_C 	C 	0.6106	0.4223	0.5675	0.313
Mof_H 	H 	0.5641	0.4064	0.5715	-0.189
Mof_C 	C 	0.6447	0.4362	0.5344	-0.066
Mof_C 	C 	0.7768	0.4359	0.6578	-0.075
Mof_H 	H 	0.7799	0.3928	0.6449	0.071
Mof_C 	C 	0.7694	0.4349	0.69655	-0.073
Mof_C 	C 	0.7634	0.3685	0.71658	0.359
Mof_O 	O 	0.7886	0.3134	0.70059	-0.404
Mof_O 	O 	0.7361	0.3678	0.74849	-0.409
Mof_N 	N 	0.0312	0.3499	0.0403	-0.231
Mof_N 	N 	0.0403	0.2172	0.0405	-0.201
Mof_C 	C 	0.0634	0.4176	0.0349	0.196
Mof_C 	C 	0.0715	0.453	0.07	-0.26
Mof_C 	C 	0.0566	0.4052	0.0969	0.046
Mof_H 	H 	0.0631	0.4123	0.1224	0.017
Mof_C 	C 	0.0284	0.3397	0.0796	0.015
Mof_C 	C 	0.0311	0.2244	0.0793	0.114
Mof_C 	C 	0.0593	0.171	0.0976	-0.202
Mof_H 	H 	0.0673	0.1686	0.1232	0.107
Mof_C 	C 	0.0777	0.1106	0.0675	0.296
Mof_H 	H 	0.0936	0.0641	0.0715	-0.182
Mof_C 	C 	0.0638	0.1447	0.0344	-0.069
Mof_C 	C 	0.0641	0.2768	0.1578	-0.072
Mof_H 	H 	0.1072	0.2799	0.1449	0.071
Mof_C 	C 	0.0651	0.2694	0.19655	-0.071
Mof_C 	C 	0.1315	0.2634	0.21658	0.357
Mof_O 	O 	0.1866	0.2886	0.20059	-0.405
Mof_O 	O 	0.1322	0.2361	0.24849	-0.413
Mof_N 	N 	0.5312	0.8499	0.5403	-0.216
Mof_N 	N 	0.5403	0.7172	0.5405	-0.197
Mof_C 	C 	0.5634	0.9176	0.5349	0.106
Mof_C 	C 	0.5715	0.953	0.57	-0.075
Mof_C 	C 	0.5566	0.9052	0.5969	-0.062
Mof_H 	H 	0.5631	0.9123	0.6224	0.065
Mof_C 	C 	0.5284	0.8397	0.5796	0.093
Mof_C 	C 	0.5311	0.7244	0.5793	0.146
Mof_C 	C 	0.5593	0.671	0.5976	-0.214
Mof_H 	H 	0.5673	0.6686	0.6232	0.116
Mof_C 	C 	0.5777	0.6106	0.5675	0.312
Mof_H 	H 	0.5936	0.5641	0.5715	-0.188
Mof_C 	C 	0.5638	0.6447	0.5344	-0.065
Mof_C 	C 	0.5641	0.7768	0.6578	-0.075
Mof_H 	H 	0.6072	0.7799	0.6449	0.072
Mof_C 	C 	0.5651	0.7694	0.69655	-0.073
Mof_C 	C 	0.6315	0.7634	0.71658	0.359
Mof_O 	O 	0.6866	0.7886	0.70059	-0.402
Mof_O 	O 	0.6322	0.7361	0.74849	-0.409
Mof_N 	N 	0.9688	0.6501	0.0403	-0.219
Mof_N 	N 	0.9597	0.7828	0.0405	-0.199
Mof_C 	C 	0.9366	0.5824	0.0349	0.144
Mof_C 	C 	0.9285	0.547	0.07	-0.132
Mof_C 	C 	0.9434	0.5948	0.0969	-0.063
Mof_H 	H 	0.9369	0.5877	0.1224	0.066
Mof_C 	C 	0.9716	0.6603	0.0796	0.164
Mof_C 	C 	0.9689	0.7756	0.0793	0.199
Mof_C 	C 	0.9407	0.829	0.0976	-0.237
Mof_H 	H 	0.9327	0.8314	0.1232	0.131
Mof_C 	C 	0.9223	0.8894	0.0675	0.324
Mof_H 	H 	0.9064	0.9359	0.0715	-0.191
Mof_C 	C 	0.9362	0.8553	0.0344	-0.062
Mof_C 	C 	0.9359	0.7232	0.1578	-0.051
Mof_H 	H 	0.8928	0.7201	0.1449	0.062
Mof_C 	C 	0.9349	0.7306	0.19655	-0.049
Mof_C 	C 	0.8685	0.7366	0.21658	0.353
Mof_O 	O 	0.8134	0.7114	0.20059	-0.403
Mof_O 	O 	0.8678	0.7639	0.24849	-0.399
Mof_N 	N 	0.4688	0.1501	0.5403	-0.22
Mof_N 	N 	0.4597	0.2828	0.5405	-0.197
Mof_C 	C 	0.4366	0.0824	0.5349	0.141
Mof_C 	C 	0.4285	0.047	0.57	-0.142
Mof_C 	C 	0.4434	0.0948	0.5969	-0.035
Mof_H 	H 	0.4369	0.0877	0.6224	0.045
Mof_C 	C 	0.4716	0.1603	0.5796	0.082
Mof_C 	C 	0.4689	0.2756	0.5793	0.143
Mof_C 	C 	0.4407	0.329	0.5976	-0.214
Mof_H 	H 	0.4327	0.3314	0.6232	0.116
Mof_C 	C 	0.4223	0.3894	0.5675	0.313
Mof_H 	H 	0.4064	0.4359	0.5715	-0.189
Mof_C 	C 	0.4362	0.3553	0.5344	-0.066
Mof_C 	C 	0.4359	0.2232	0.6578	-0.071
Mof_H 	H 	0.3928	0.2201	0.6449	0.067
Mof_C 	C 	0.4349	0.2306	0.69655	-0.079
Mof_C 	C 	0.3685	0.2366	0.71658	0.36
Mof_O 	O 	0.3134	0.2114	0.70059	-0.408
Mof_O 	O 	0.3678	0.2639	0.74849	-0.41
Mof_N 	N 	0.6501	0.9688	0.0403	-0.219
Mof_N 	N 	0.7828	0.9597	0.0405	-0.199
Mof_C 	C 	0.5824	0.9366	0.0349	0.144
Mof_C 	C 	0.547	0.9285	0.07	-0.132
Mof_C 	C 	0.5948	0.9434	0.0969	-0.063
Mof_H 	H 	0.5877	0.9369	0.1224	0.066
Mof_C 	C 	0.6603	0.9716	0.0796	0.164
Mof_C 	C 	0.7756	0.9689	0.0793	0.199
Mof_C 	C 	0.829	0.9407	0.0976	-0.237
Mof_H 	H 	0.8314	0.9327	0.1232	0.131
Mof_C 	C 	0.8894	0.9223	0.0675	0.324
Mof_H 	H 	0.9359	0.9064	0.0715	-0.191
Mof_C 	C 	0.8553	0.9362	0.0344	-0.062
Mof_C 	C 	0.7232	0.9359	0.1578	-0.051
Mof_H 	H 	0.7201	0.8928	0.1449	0.062
Mof_C 	C 	0.7306	0.9349	0.19655	-0.049
Mof_C 	C 	0.7366	0.8685	0.21658	0.353
Mof_O 	O 	0.7114	0.8134	0.20059	-0.403
Mof_O 	O 	0.7639	0.8678	0.24849	-0.399
Mof_N 	N 	0.1501	0.4688	0.5403	-0.22
Mof_N 	N 	0.2828	0.4597	0.5405	-0.197
Mof_C 	C 	0.0824	0.4366	0.5349	0.141
Mof_C 	C 	0.047	0.4285	0.57	-0.142
Mof_C 	C 	0.0948	0.4434	0.5969	-0.035
Mof_H 	H 	0.0877	0.4369	0.6224	0.045
Mof_C 	C 	0.1603	0.4716	0.5796	0.082
Mof_C 	C 	0.2756	0.4689	0.5793	0.143
Mof_C 	C 	0.329	0.4407	0.5976	-0.214
Mof_H 	H 	0.3314	0.4327	0.6232	0.116
Mof_C 	C 	0.3894	0.4223	0.5675	0.313
Mof_H 	H 	0.4359	0.4064	0.5715	-0.189
Mof_C 	C 	0.3553	0.4362	0.5344	-0.066
Mof_C 	C 	0.2232	0.4359	0.6578	-0.071
Mof_H 	H 	0.2201	0.3928	0.6449	0.067
Mof_C 	C 	0.2306	0.4349	0.69655	-0.079
Mof_C 	C 	0.2366	0.3685	0.71658	0.36
Mof_O 	O 	0.2114	0.3134	0.70059	-0.408
Mof_O 	O 	0.2639	0.3678	0.74849	-0.41
Mof_N 	N 	0.3499	0.0312	0.0403	-0.231
Mof_N 	N 	0.2172	0.0403	0.0405	-0.201
Mof_C 	C 	0.4176	0.0634	0.0349	0.196
Mof_C 	C 	0.453	0.0715	0.07	-0.26
Mof_C 	C 	0.4052	0.0566	0.0969	0.046
Mof_H 	H 	0.4123	0.0631	0.1224	0.017
Mof_C 	C 	0.3397	0.0284	0.0796	0.015
Mof_C 	C 	0.2244	0.0311	0.0793	0.114
Mof_C 	C 	0.171	0.0593	0.0976	-0.202
Mof_H 	H 	0.1686	0.0673	0.1232	0.107
Mof_C 	C 	0.1106	0.0777	0.0675	0.296
Mof_H 	H 	0.0641	0.0936	0.0715	-0.182
Mof_C 	C 	0.1447	0.0638	0.0344	-0.069
Mof_C 	C 	0.2768	0.0641	0.1578	-0.072
Mof_H 	H 	0.2799	0.1072	0.1449	0.071
Mof_C 	C 	0.2694	0.0651	0.19655	-0.071
Mof_C 	C 	0.2634	0.1315	0.21658	0.357
Mof_O 	O 	0.2886	0.1866	0.20059	-0.405
Mof_O 	O 	0.2361	0.1322	0.24849	-0.413
Mof_N 	N 	0.8499	0.5312	0.5403	-0.216
Mof_N 	N 	0.7172	0.5403	0.5405	-0.197
Mof_C 	C 	0.9176	0.5634	0.5349	0.106
Mof_C 	C 	0.953	0.5715	0.57	-0.075
Mof_C 	C 	0.9052	0.5566	0.5969	-0.062
Mof_H 	H 	0.9123	0.5631	0.6224	0.065
Mof_C 	C 	0.8397	0.5284	0.5796	0.093
Mof_C 	C 	0.7244	0.5311	0.5793	0.146
Mof_C 	C 	0.671	0.5593	0.5976	-0.214
Mof_H 	H 	0.6686	0.5673	0.6232	0.116
Mof_C 	C 	0.6106	0.5777	0.5675	0.312
Mof_H 	H 	0.5641	0.5936	0.5715	-0.188
Mof_C 	C 	0.6447	0.5638	0.5344	-0.065
Mof_C 	C 	0.7768	0.5641	0.6578	-0.075
Mof_H 	H 	0.7799	0.6072	0.6449	0.072
Mof_C 	C 	0.7694	0.5651	0.69655	-0.073
Mof_C 	C 	0.7634	0.6315	0.71658	0.359
Mof_O 	O 	0.7886	0.6866	0.70059	-0.402
Mof_O 	O 	0.7361	0.6322	0.74849	-0.409
Mof_N 	N 	0.0312	0.6501	0.0403	-0.231
Mof_N 	N 	0.0403	0.7828	0.0405	-0.201
Mof_C 	C 	0.0634	0.5824	0.0349	0.195
Mof_C 	C 	0.0715	0.547	0.07	-0.26
Mof_C 	C 	0.0566	0.5948	0.0969	0.046
Mof_H 	H 	0.0631	0.5877	0.1224	0.017
Mof_C 	C 	0.0284	0.6603	0.0796	0.015
Mof_C 	C 	0.0311	0.7756	0.0793	0.115
Mof_C 	C 	0.0593	0.829	0.0976	-0.204
Mof_H 	H 	0.0673	0.8314	0.1232	0.111
Mof_C 	C 	0.0777	0.8894	0.0675	0.309
Mof_H 	H 	0.0936	0.9359	0.0715	-0.183
Mof_C 	C 	0.0638	0.8553	0.0344	-0.072
Mof_C 	C 	0.0641	0.7232	0.1578	-0.072
Mof_H 	H 	0.1072	0.7201	0.1449	0.071
Mof_C 	C 	0.0651	0.7306	0.19655	-0.069
Mof_C 	C 	0.1315	0.7366	0.21658	0.356
Mof_O 	O 	0.1866	0.7114	0.20059	-0.405
Mof_O 	O 	0.1322	0.7639	0.24849	-0.41
Mof_N 	N 	0.5312	0.1501	0.5403	-0.219
Mof_N 	N 	0.5403	0.2828	0.5405	-0.197
Mof_C 	C 	0.5634	0.0824	0.5349	0.141
Mof_C 	C 	0.5715	0.047	0.57	-0.139
Mof_C 	C 	0.5566	0.0948	0.5969	-0.037
Mof_H 	H 	0.5631	0.0877	0.6224	0.046
Mof_C 	C 	0.5284	0.1603	0.5796	0.085
Mof_C 	C 	0.5311	0.2756	0.5793	0.144
Mof_C 	C 	0.5593	0.329	0.5976	-0.214
Mof_H 	H 	0.5673	0.3314	0.6232	0.116
Mof_C 	C 	0.5777	0.3894	0.5675	0.313
Mof_H 	H 	0.5936	0.4359	0.5715	-0.189
Mof_C 	C 	0.5638	0.3553	0.5344	-0.066
Mof_C 	C 	0.5641	0.2232	0.6578	-0.072
Mof_H 	H 	0.6072	0.2201	0.6449	0.068
Mof_C 	C 	0.5651	0.2306	0.69655	-0.078
Mof_C 	C 	0.6315	0.2366	0.71658	0.36
Mof_O 	O 	0.6866	0.2114	0.70059	-0.407
Mof_O 	O 	0.6322	0.2639	0.74849	-0.41
Mof_N 	N 	0.9688	0.3499	0.0403	-0.219
Mof_N 	N 	0.9597	0.2172	0.0405	-0.199
Mof_C 	C 	0.9366	0.4176	0.0349	0.144
Mof_C 	C 	0.9285	0.453	0.07	-0.132
Mof_C 	C 	0.9434	0.4052	0.0969	-0.063
Mof_H 	H 	0.9369	0.4123	0.1224	0.066
Mof_C 	C 	0.9716	0.3397	0.0796	0.164
Mof_C 	C 	0.9689	0.2244	0.0793	0.198
Mof_C 	C 	0.9407	0.171	0.0976	-0.235
Mof_H 	H 	0.9327	0.1686	0.1232	0.128
Mof_C 	C 	0.9223	0.1106	0.0675	0.311
Mof_H 	H 	0.9064	0.0641	0.0715	-0.191
Mof_C 	C 	0.9362	0.1447	0.0344	-0.059
Mof_C 	C 	0.9359	0.2768	0.1578	-0.051
Mof_H 	H 	0.8928	0.2799	0.1449	0.062
Mof_C 	C 	0.9349	0.2694	0.19655	-0.051
Mof_C 	C 	0.8685	0.2634	0.21658	0.353
Mof_O 	O 	0.8134	0.2886	0.20059	-0.404
Mof_O 	O 	0.8678	0.2361	0.24849	-0.403
Mof_N 	N 	0.4688	0.8499	0.5403	-0.216
Mof_N 	N 	0.4597	0.7172	0.5405	-0.197
Mof_C 	C 	0.4366	0.9176	0.5349	0.106
Mof_C 	C 	0.4285	0.953	0.57	-0.078
Mof_C 	C 	0.4434	0.9052	0.5969	-0.061
Mof_H 	H 	0.4369	0.9123	0.6224	0.064
Mof_C 	C 	0.4716	0.8397	0.5796	0.091
Mof_C 	C 	0.4689	0.7244	0.5793	0.145
Mof_C 	C 	0.4407	0.671	0.5976	-0.215
Mof_H 	H 	0.4327	0.6686	0.6232	0.116
Mof_C 	C 	0.4223	0.6106	0.5675	0.313
Mof_H 	H 	0.4064	0.5641	0.5715	-0.189
Mof_C 	C 	0.4362	0.6447	0.5344	-0.066
Mof_C 	C 	0.4359	0.7768	0.6578	-0.075
Mof_H 	H 	0.3928	0.7799	0.6449	0.071
Mof_C 	C 	0.4349	0.7694	0.69655	-0.073
Mof_C 	C 	0.3685	0.7634	0.71658	0.359
Mof_O 	O 	0.3134	0.7886	0.70059	-0.404
Mof_O 	O 	0.3678	0.7361	0.74849	-0.409
Mof_N 	N 	0.3499	0.9688	0.9597	-0.216
Mof_N 	N 	0.2172	0.9597	0.9595	-0.194
Mof_C 	C 	0.4176	0.9366	0.9651	0.163
Mof_C 	C 	0.453	0.9285	0.93	-0.145
Mof_C 	C 	0.4052	0.9434	0.9031	-0.055
Mof_H 	H 	0.4123	0.9369	0.8776	0.064
Mof_C 	C 	0.3397	0.9716	0.9204	0.16
Mof_C 	C 	0.2244	0.9689	0.9207	0.197
Mof_C 	C 	0.171	0.9407	0.9024	-0.237
Mof_H 	H 	0.1686	0.9327	0.8768	0.128
Mof_C 	C 	0.1106	0.9223	0.9325	0.324
Mof_H 	H 	0.0641	0.9064	0.9285	-0.2
Mof_C 	C 	0.1447	0.9362	0.9656	-0.05
Mof_C 	C 	0.2768	0.9359	0.8422	-0.052
Mof_H 	H 	0.2799	0.8928	0.8551	0.063
Mof_C 	C 	0.2694	0.9349	0.80345	-0.051
Mof_C 	C 	0.2634	0.8685	0.78342	0.353
Mof_O 	O 	0.2886	0.8134	0.79941	-0.403
Mof_O 	O 	0.2361	0.8678	0.75151	-0.403
Mof_N 	N 	0.8499	0.4688	0.4597	-0.216
Mof_N 	N 	0.7172	0.4597	0.4595	-0.197
Mof_C 	C 	0.9176	0.4366	0.4651	0.106
Mof_C 	C 	0.953	0.4285	0.43	-0.078
Mof_C 	C 	0.9052	0.4434	0.4031	-0.061
Mof_H 	H 	0.9123	0.4369	0.3776	0.064
Mof_C 	C 	0.8397	0.4716	0.4204	0.091
Mof_C 	C 	0.7244	0.4689	0.4207	0.145
Mof_C 	C 	0.671	0.4407	0.4024	-0.215
Mof_H 	H 	0.6686	0.4327	0.3768	0.116
Mof_C 	C 	0.6106	0.4223	0.4325	0.313
Mof_H 	H 	0.5641	0.4064	0.4285	-0.189
Mof_C 	C 	0.6447	0.4362	0.4656	-0.066
Mof_C 	C 	0.7768	0.4359	0.3422	-0.075
Mof_H 	H 	0.7799	0.3928	0.3551	0.071
Mof_C 	C 	0.7694	0.4349	0.30345	-0.073
Mof_C 	C 	0.7634	0.3685	0.28342	0.36
Mof_O 	O 	0.7886	0.3134	0.29941	-0.404
Mof_O 	O 	0.7361	0.3678	0.25151	-0.409
Mof_N 	N 	0.6501	0.0312	0.9597	-0.228
Mof_N 	N 	0.7828	0.0403	0.9595	-0.197
Mof_C 	C 	0.5824	0.0634	0.9651	0.215
Mof_C 	C 	0.547	0.0715	0.93	-0.271
Mof_C 	C 	0.5948	0.0566	0.9031	0.052
Mof_H 	H 	0.5877	0.0631	0.8776	0.016
Mof_C 	C 	0.6603	0.0284	0.9204	0.015
Mof_C 	C 	0.7756	0.0311	0.9207	0.116
Mof_C 	C 	0.829	0.0593	0.9024	-0.207
Mof_H 	H 	0.8314	0.0673	0.8768	0.112
Mof_C 	C 	0.8894	0.0777	0.9325	0.322
Mof_H 	H 	0.9359	0.0936	0.9285	-0.192
Mof_C 	C 	0.8553	0.0638	0.9656	-0.062
Mof_C 	C 	0.7232	0.0641	0.8422	-0.073
Mof_H 	H 	0.7201	0.1072	0.8551	0.071
Mof_C 	C 	0.7306	0.0651	0.80345	-0.069
Mof_C 	C 	0.7366	0.1315	0.78342	0.356
Mof_O 	O 	0.7114	0.1866	0.79941	-0.405
Mof_O 	O 	0.7639	0.1322	0.75151	-0.41
Mof_N 	N 	0.1501	0.5312	0.4597	-0.219
Mof_N 	N 	0.2828	0.5403	0.4595	-0.197
Mof_C 	C 	0.0824	0.5634	0.4651	0.141
Mof_C 	C 	0.047	0.5715	0.43	-0.139
Mof_C 	C 	0.0948	0.5566	0.4031	-0.037
Mof_H 	H 	0.0877	0.5631	0.3776	0.046
Mof_C 	C 	0.1603	0.5284	0.4204	0.085
Mof_C 	C 	0.2756	0.5311	0.4207	0.144
Mof_C 	C 	0.329	0.5593	0.4024	-0.214
Mof_H 	H 	0.3314	0.5673	0.3768	0.116
Mof_C 	C 	0.3894	0.5777	0.4325	0.313
Mof_H 	H 	0.4359	0.5936	0.4285	-0.189
Mof_C 	C 	0.3553	0.5638	0.4656	-0.066
Mof_C 	C 	0.2232	0.5641	0.3422	-0.071
Mof_H 	H 	0.2201	0.6072	0.3551	0.068
Mof_C 	C 	0.2306	0.5651	0.30345	-0.078
Mof_C 	C 	0.2366	0.6315	0.28342	0.36
Mof_O 	O 	0.2114	0.6866	0.29941	-0.407
Mof_O 	O 	0.2639	0.6322	0.25151	-0.41
Mof_N 	N 	0.9688	0.6501	0.9597	-0.216
Mof_N 	N 	0.9597	0.7828	0.9595	-0.195
Mof_C 	C 	0.9366	0.5824	0.9651	0.163
Mof_C 	C 	0.9285	0.547	0.93	-0.145
Mof_C 	C 	0.9434	0.5948	0.9031	-0.055
Mof_H 	H 	0.9369	0.5877	0.8776	0.064
Mof_C 	C 	0.9716	0.6603	0.9204	0.16
Mof_C 	C 	0.9689	0.7756	0.9207	0.198
Mof_C 	C 	0.9407	0.829	0.9024	-0.239
Mof_H 	H 	0.9327	0.8314	0.8768	0.132
Mof_C 	C 	0.9223	0.8894	0.9325	0.336
Mof_H 	H 	0.9064	0.9359	0.9285	-0.2
Mof_C 	C 	0.9362	0.8553	0.9656	-0.053
Mof_C 	C 	0.9359	0.7232	0.8422	-0.052
Mof_H 	H 	0.8928	0.7201	0.8551	0.063
Mof_C 	C 	0.9349	0.7306	0.80345	-0.049
Mof_C 	C 	0.8685	0.7366	0.78342	0.353
Mof_O 	O 	0.8134	0.7114	0.79941	-0.403
Mof_O 	O 	0.8678	0.7639	0.75151	-0.4
Mof_N 	N 	0.4688	0.1501	0.4597	-0.22
Mof_N 	N 	0.4597	0.2828	0.4595	-0.197
Mof_C 	C 	0.4366	0.0824	0.4651	0.141
Mof_C 	C 	0.4285	0.047	0.43	-0.142
Mof_C 	C 	0.4434	0.0948	0.4031	-0.035
Mof_H 	H 	0.4369	0.0877	0.3776	0.045
Mof_C 	C 	0.4716	0.1603	0.4204	0.082
Mof_C 	C 	0.4689	0.2756	0.4207	0.143
Mof_C 	C 	0.4407	0.329	0.4024	-0.214
Mof_H 	H 	0.4327	0.3314	0.3768	0.116
Mof_C 	C 	0.4223	0.3894	0.4325	0.313
Mof_H 	H 	0.4064	0.4359	0.4285	-0.189
Mof_C 	C 	0.4362	0.3553	0.4656	-0.066
Mof_C 	C 	0.4359	0.2232	0.3422	-0.071
Mof_H 	H 	0.3928	0.2201	0.3551	0.067
Mof_C 	C 	0.4349	0.2306	0.30345	-0.079
Mof_C 	C 	0.3685	0.2366	0.28342	0.361
Mof_O 	O 	0.3134	0.2114	0.29941	-0.408
Mof_O 	O 	0.3678	0.2639	0.25151	-0.41
Mof_N 	N 	0.0312	0.3499	0.9597	-0.228
Mof_N 	N 	0.0403	0.2172	0.9595	-0.196
Mof_C 	C 	0.0634	0.4176	0.9651	0.215
Mof_C 	C 	0.0715	0.453	0.93	-0.271
Mof_C 	C 	0.0566	0.4052	0.9031	0.052
Mof_H 	H 	0.0631	0.4123	0.8776	0.016
Mof_C 	C 	0.0284	0.3397	0.9204	0.015
Mof_C 	C 	0.0311	0.2244	0.9207	0.115
Mof_C 	C 	0.0593	0.171	0.9024	-0.206
Mof_H 	H 	0.0673	0.1686	0.8768	0.109
Mof_C 	C 	0.0777	0.1106	0.9325	0.31
Mof_H 	H 	0.0936	0.0641	0.9285	-0.193
Mof_C 	C 	0.0638	0.1447	0.9656	-0.059
Mof_C 	C 	0.0641	0.2768	0.8422	-0.072
Mof_H 	H 	0.1072	0.2799	0.8551	0.071
Mof_C 	C 	0.0651	0.2694	0.80345	-0.071
Mof_C 	C 	0.1315	0.2634	0.78342	0.356
Mof_O 	O 	0.1866	0.2886	0.79941	-0.405
Mof_O 	O 	0.1322	0.2361	0.75151	-0.413
Mof_N 	N 	0.5312	0.8499	0.4597	-0.216
Mof_N 	N 	0.5403	0.7172	0.4595	-0.197
Mof_C 	C 	0.5634	0.9176	0.4651	0.106
Mof_C 	C 	0.5715	0.953	0.43	-0.075
Mof_C 	C 	0.5566	0.9052	0.4031	-0.063
Mof_H 	H 	0.5631	0.9123	0.3776	0.065
Mof_C 	C 	0.5284	0.8397	0.4204	0.093
Mof_C 	C 	0.5311	0.7244	0.4207	0.146
Mof_C 	C 	0.5593	0.671	0.4024	-0.214
Mof_H 	H 	0.5673	0.6686	0.3768	0.116
Mof_C 	C 	0.5777	0.6106	0.4325	0.312
Mof_H 	H 	0.5936	0.5641	0.4285	-0.188
Mof_C 	C 	0.5638	0.6447	0.4656	-0.065
Mof_C 	C 	0.5641	0.7768	0.3422	-0.075
Mof_H 	H 	0.6072	0.7799	0.3551	0.072
Mof_C 	C 	0.5651	0.7694	0.30345	-0.073
Mof_C 	C 	0.6315	0.7634	0.28342	0.359
Mof_O 	O 	0.6866	0.7886	0.29941	-0.402
Mof_O 	O 	0.6322	0.7361	0.25151	-0.409
Mof_Zn	Zn	0.28898	0	-0	1.206
Mof_Zn	Zn	0.78898	0.5	0.5	1.219
Mof_Zn	Zn	0.71102	0	-0	1.206
Mof_Zn	Zn	0.21102	0.5	0.5	1.219
Mof_Zn	Zn	-0	0.28898	-0	1.206
Mof_Zn	Zn	0.5	0.78898	0.5	1.219
Mof_Zn	Zn	-0	0.71102	-0	1.206
Mof_Zn	Zn	0.5	0.21102	0.5	1.219
Mof_C 	C 	0.4467	0.077	-0	-0.296
Mof_H 	H 	0.492	0.0973	-0	0.097
Mof_C 	C 	0.11	0.095	-0	0.006
Mof_C 	C 	0.9467	0.577	0.5	-0.151
Mof_H 	H 	0.992	0.5973	0.5	0.031
Mof_C 	C 	0.61	0.595	0.5	0.018
Mof_C 	C 	0.5533	0.923	-0	-0.231
Mof_H 	H 	0.508	0.9027	-0	0.079
Mof_C 	C 	0.89	0.905	-0	0.012
Mof_C 	C 	0.0533	0.423	0.5	-0.243
Mof_H 	H 	0.008	0.4027	0.5	0.113
Mof_C 	C 	0.39	0.405	0.5	0.018
Mof_C 	C 	0.923	0.4467	-0	-0.231
Mof_H 	H 	0.9027	0.492	-0	0.079
Mof_C 	C 	0.905	0.11	-0	0.009
Mof_C 	C 	0.423	0.9467	0.5	-0.153
Mof_H 	H 	0.4027	0.992	0.5	0.031
Mof_C 	C 	0.405	0.61	0.5	0.018
Mof_C 	C 	0.077	0.5533	-0	-0.296
Mof_H 	H 	0.0973	0.508	-0	0.097
Mof_C 	C 	0.095	0.89	-0	0.008
Mof_C 	C 	0.577	0.0533	0.5	-0.241
Mof_H 	H 	0.5973	0.008	0.5	0.113
Mof_C 	C 	0.595	0.39	0.5	0.018
Mof_C 	C 	0.5533	0.077	-0	-0.296
Mof_H 	H 	0.508	0.0973	-0	0.097
Mof_C 	C 	0.89	0.095	-0	0.008
Mof_C 	C 	0.0533	0.577	0.5	-0.241
Mof_H 	H 	0.008	0.5973	0.5	0.113
Mof_C 	C 	0.39	0.595	0.5	0.018
Mof_C 	C 	0.4467	0.923	-0	-0.231
Mof_H 	H 	0.492	0.9027	-0	0.079
Mof_C 	C 	0.11	0.905	-0	0.009
Mof_C 	C 	0.9467	0.423	0.5	-0.153
Mof_H 	H 	0.992	0.4027	0.5	0.031
Mof_C 	C 	0.61	0.405	0.5	0.018
Mof_C 	C 	0.077	0.4467	-0	-0.296
Mof_H 	H 	0.0973	0.492	-0	0.097
Mof_C 	C 	0.095	0.11	-0	0.006
Mof_C 	C 	0.577	0.9467	0.5	-0.151
Mof_H 	H 	0.5973	0.992	0.5	0.031
Mof_C 	C 	0.595	0.61	0.5	0.018
Mof_C 	C 	0.923	0.5533	-0	-0.231
Mof_H 	H 	0.9027	0.508	-0	0.079
Mof_C 	C 	0.905	0.89	-0	0.012
Mof_C 	C 	0.423	0.0533	0.5	-0.243
Mof_H 	H 	0.4027	0.008	0.5	0.113
Mof_C 	C 	0.405	0.39	0.5	0.018
Mof_H 	H 	0.5	0.0848	0.9265	0.26
Mof_H 	H 	-5.01484e-33	0.5848	0.4265	0.115
Mof_H 	H 	0.5	0.9152	0.9265	0.165
Mof_H 	H 	-1.30885e-32	0.4152	0.4265	0.116
Mof_H 	H 	0.9152	0.5	0.9265	0.165
Mof_H 	H 	0.4152	8.07365e-33	0.4265	0.116
Mof_H 	H 	0.0848	0.5	0.9265	0.26
Mof_H 	H 	0.5848	8.07365e-33	0.4265	0.115
Mof_H 	H 	0.5	0.0848	0.0735	0.249
Mof_H 	H 	-2.01079e-32	0.5848	0.5735	0.115
Mof_H 	H 	0.5	0.9152	0.0735	0.153
Mof_H 	H 	-1.20342e-32	0.4152	0.5735	0.117
Mof_H 	H 	0.0848	0.5	0.0735	0.249
Mof_H 	H 	0.5848	-8.07365e-33	0.5735	0.115
Mof_H 	H 	0.9152	0.5	0.0735	0.153
Mof_H 	H 	0.4152	-8.07365e-33	0.5735	0.117
Mof_C 	C 	0.2818	0	0.9038	-0.229
Mof_C 	C 	0.2796	0	0.8619	0.062
Mof_C 	C 	0.2617	0	0.78412	-0.023
Mof_H 	H 	0.2516	0	0.7587	0.057
Mof_C 	C 	0.7818	0.5	0.4038	-0.208
Mof_C 	C 	0.7796	0.5	0.3619	0.088
Mof_C 	C 	0.7617	0.5	0.28412	0.012
Mof_H 	H 	0.7516	0.5	0.2587	0.055
Mof_C 	C 	0.7182	0	0.9038	-0.23
Mof_C 	C 	0.7204	0	0.8619	0.063
Mof_C 	C 	0.7383	0	0.78412	-0.024
Mof_H 	H 	0.7484	0	0.7587	0.06
Mof_C 	C 	0.2182	0.5	0.4038	-0.2
Mof_C 	C 	0.2204	0.5	0.3619	0.082
Mof_C 	C 	0.2383	0.5	0.28412	0.014
Mof_H 	H 	0.2484	0.5	0.2587	0.053
Mof_C 	C 	-2.58126e-32	0.2818	0.9038	-0.229
Mof_C 	C 	-9.96584e-33	0.2796	0.8619	0.062
Mof_C 	C 	-1.05237e-32	0.2617	0.78412	-0.023
Mof_H 	H 	-1.0706e-32	0.2516	0.7587	0.057
Mof_C 	C 	0.5	0.7818	0.4038	-0.208
Mof_C 	C 	0.5	0.7796	0.3619	0.088
Mof_C 	C 	0.5	0.7617	0.28412	0.012
Mof_H 	H 	0.5	0.7516	0.2587	0.055
Mof_C 	C 	6.48195e-33	0.7182	0.9038	-0.23
Mof_C 	C 	6.18145e-33	0.7204	0.8619	0.063
Mof_C 	C 	-1.05237e-32	0.7383	0.78412	-0.024
Mof_H 	H 	5.44131e-33	0.7484	0.7587	0.06
Mof_C 	C 	0.5	0.2182	0.4038	-0.2
Mof_C 	C 	0.5	0.2204	0.3619	0.082
Mof_C 	C 	0.5	0.2383	0.28412	0.014
Mof_H 	H 	0.5	0.2484	0.2587	0.053
Mof_C 	C 	0.7182	-2.01841e-33	0.0962	-0.233
Mof_C 	C 	0.7204	4.03682e-33	0.1381	0.063
Mof_C 	C 	0.7383	-4.03682e-33	0.21588	-0.024
Mof_H 	H 	0.7484	4.03682e-33	0.2413	0.06
Mof_C 	C 	0.2182	0.5	0.5962	-0.2
Mof_C 	C 	0.2204	0.5	0.6381	0.082
Mof_C 	C 	0.2383	0.5	0.71588	0.014
Mof_H 	H 	0.2484	0.5	0.7413	0.054
Mof_C 	C 	0.2818	-2.01841e-33	0.0962	-0.231
Mof_C 	C 	0.2796	4.03682e-33	0.1381	0.062
Mof_C 	C 	0.2617	-4.03682e-33	0.21588	-0.024
Mof_H 	H 	0.2516	4.03682e-33	0.2413	0.057
Mof_C 	C 	0.7818	0.5	0.5962	-0.208
Mof_C 	C 	0.7796	0.5	0.6381	0.089
Mof_C 	C 	0.7617	0.5	0.71588	0.012
Mof_H 	H 	0.7516	0.5	0.7413	0.056
Mof_C 	C 	6.89935e-34	0.2818	0.0962	-0.231
Mof_C 	C 	-1.02797e-33	0.2796	0.1381	0.062
Mof_C 	C 	-1.05622e-32	0.2617	0.21588	-0.024
Mof_H 	H 	5.7674e-33	0.2516	0.2413	0.057
Mof_C 	C 	0.5	0.7818	0.5962	-0.208
Mof_C 	C 	0.5	0.7796	0.6381	0.089
Mof_C 	C 	0.5	0.7617	0.71588	0.012
Mof_H 	H 	0.5	0.7516	0.7413	0.056
Mof_C 	C 	6.74517e-33	0.7182	0.0962	-0.233
Mof_C 	C 	9.90437e-34	0.7204	0.1381	0.063
Mof_C 	C 	-2.48856e-33	0.7383	0.21588	-0.024
Mof_H 	H 	5.7674e-33	0.7484	0.2413	0.06
Mof_C 	C 	0.5	0.2182	0.5962	-0.2
Mof_C 	C 	0.5	0.2204	0.6381	0.082
Mof_C 	C 	0.5	0.2383	0.71588	0.014
Mof_H 	H 	0.5	0.2484	0.7413	0.054
Mof_Cu	Cu	0.28238	0.28238	0.77844	0.908
Mof_Cu	Cu	0.78238	0.78238	0.27844	0.91
Mof_Cu	Cu	0.71762	0.71762	0.77844	0.908
Mof_Cu	Cu	0.21762	0.21762	0.27844	0.906
Mof_Cu	Cu	0.71762	0.28238	0.77844	0.908
Mof_Cu	Cu	0.21762	0.78238	0.27844	0.908
Mof_Cu	Cu	0.28238	0.71762	0.77844	0.908
Mof_Cu	Cu	0.78238	0.21762	0.27844	0.908
Mof_Cu	Cu	0.71762	0.28238	0.22156	0.908
Mof_Cu	Cu	0.21762	0.78238	0.72156	0.908
Mof_Cu	Cu	0.28238	0.71762	0.22156	0.908
Mof_Cu	Cu	0.78238	0.21762	0.72156	0.908
Mof_Cu	Cu	0.28238	0.28238	0.22156	0.908
Mof_Cu	Cu	0.78238	0.78238	0.72156	0.91
Mof_Cu	Cu	0.71762	0.71762	0.22156	0.908
Mof_Cu	Cu	0.21762	0.21762	0.72156	0.906
_end
