data_functionalizedCrystal
_audit_creation_method	'EQeq! by Chris Wilmer'
_symmetry_space_group_name_H-M	'P1'
_symmetry_Int_Tables_number	1
_symmetry_cell_setting	triclinic
loop_
_symmetry_equiv_pos_as_xyz
  x,y,z
_cell_length_a	17.241
_cell_length_b	15.95
_cell_length_c	16.74
_cell_angle_alpha	90
_cell_angle_beta	108.386
_cell_angle_gamma	90
loop_
_atom_site_label
_atom_site_type_symbol
_atom_site_fract_x
_atom_site_fract_y
_atom_site_fract_z
_atom_site_charge
Mof_C 	C 	0.3871	0.2798	0.3054	0.342
Mof_C 	C 	0.4303	0.3115	0.3927	-0.095
Mof_C 	C 	0.5048	0.2795	0.4394	0.02
Mof_H 	H 	0.5298	0.2391	0.4159	0.044
Mof_C 	C 	0.5434	0.3065	0.5211	-0.081
Mof_C 	C 	0.5071	0.3692	0.555	0.003
Mof_H 	H 	0.5328	0.3875	0.6098	0.04
Mof_C 	C 	0.433	0.4048	0.5084	-0.059
Mof_C 	C 	0.3955	0.374	0.4274	0.007
Mof_H 	H 	0.3454	0.3963	0.3957	0.038
Mof_C 	C 	0.6219	0.2644	0.5711	0.291
Mof_C 	C 	0.3939	0.4733	0.543	0.144
Mof_C 	C 	0.3179	0.5022	0.5009	-0.207
Mof_H 	H 	0.2894	0.4786	0.4491	0.106
Mof_C 	C 	0.2822	0.5648	0.5326	0.131
Mof_H 	H 	0.2308	0.583	0.4997	-0.025
Mof_C 	C 	0.3887	0.573	0.6459	0.126
Mof_H 	H 	0.4157	0.5975	0.6977	-0.018
Mof_C 	C 	0.4284	0.5113	0.6181	-0.202
Mof_H 	H 	0.4804	0.495	0.6513	0.103
Mof_C 	C 	0.2066	0.4906	0.1965	0.009
Mof_H 	H 	0.2367	0.5181	0.1671	0.027
Mof_C 	C 	0.1771	0.5271	0.2542	0.008
Mof_H 	H 	0.1834	0.5827	0.2718	0.033
Mof_C 	C 	0.1449	0.3964	0.2404	0.113
Mof_H 	H 	0.1237	0.3446	0.2486	-0.002
Mof_C 	C 	0.0965	0.4747	0.3438	0.144
Mof_C 	C 	0.0957	0.4118	0.3968	-0.144
Mof_H 	H 	0.1211	0.3612	0.3926	0.087
Mof_C 	C 	0.0573	0.4215	0.458	0.004
Mof_H 	H 	0.0572	0.3769	0.4937	0.035
Mof_C 	C 	0.0202	0.4942	0.467	-0.014
Mof_C 	C 	0.0199	0.5555	0.4106	0.016
Mof_H 	H 	0.9927	0.6053	0.413	0.037
Mof_C 	C 	0.0578	0.5472	0.3505	-0.15
Mof_H 	H 	0.057	0.5914	0.3141	0.106
Mof_N 	N 	0.3142	0.6008	0.6046	-0.266
Mof_N 	N 	0.186	0.4085	0.188	-0.221
Mof_N 	N 	0.1365	0.4659	0.2809	-0.149
Mof_Ni	Ni	0.2476	0.31315	0.1485	1.08
Mof_O 	O 	0.3173	0.311	0.27022	-0.419
Mof_O 	O 	0.4212	0.2276	0.2738	-0.288
Mof_O 	O 	0.6567	0.2148	0.53413	-0.396
Mof_O 	O 	0.6515	0.2768	0.64935	-0.364
Mof_C 	C 	0.8871	0.7798	0.3054	0.343
Mof_C 	C 	0.9303	0.8115	0.3927	-0.094
Mof_C 	C 	0.0048	0.7795	0.4394	0.021
Mof_H 	H 	0.0298	0.7391	0.4159	0.045
Mof_C 	C 	0.0434	0.8065	0.5211	-0.08
Mof_C 	C 	0.0071	0.8692	0.555	0.003
Mof_H 	H 	0.0328	0.8875	0.6098	0.041
Mof_C 	C 	0.933	0.9048	0.5084	-0.057
Mof_C 	C 	0.8955	0.874	0.4274	0.008
Mof_H 	H 	0.8454	0.8963	0.3957	0.039
Mof_C 	C 	0.1219	0.7644	0.5711	0.29
Mof_C 	C 	0.8939	0.9733	0.543	0.143
Mof_C 	C 	0.8179	0.0022	0.5009	-0.207
Mof_H 	H 	0.7894	0.9786	0.4491	0.106
Mof_C 	C 	0.7822	0.0648	0.5326	0.131
Mof_H 	H 	0.7308	0.083	0.4997	-0.025
Mof_C 	C 	0.8887	0.073	0.6459	0.126
Mof_H 	H 	0.9157	0.0975	0.6977	-0.018
Mof_C 	C 	0.9284	0.0113	0.6181	-0.201
Mof_H 	H 	0.9804	0.995	0.6513	0.103
Mof_C 	C 	0.7066	0.9906	0.1965	0.013
Mof_H 	H 	0.7367	0.0181	0.1671	0.024
Mof_C 	C 	0.6771	0.0271	0.2542	0.004
Mof_H 	H 	0.6834	0.0827	0.2718	0.035
Mof_C 	C 	0.6449	0.8964	0.2404	0.113
Mof_H 	H 	0.6237	0.8446	0.2486	-0.002
Mof_C 	C 	0.5965	0.9747	0.3438	0.145
Mof_C 	C 	0.5957	0.9118	0.3968	-0.145
Mof_H 	H 	0.6211	0.8612	0.3926	0.087
Mof_C 	C 	0.5573	0.9215	0.458	0.004
Mof_H 	H 	0.5572	0.8769	0.4937	0.035
Mof_C 	C 	0.5202	0.9942	0.467	-0.014
Mof_C 	C 	0.5199	0.0555	0.4106	0.016
Mof_H 	H 	0.4927	0.1053	0.413	0.037
Mof_C 	C 	0.5578	0.0472	0.3505	-0.151
Mof_H 	H 	0.557	0.0914	0.3141	0.106
Mof_N 	N 	0.8142	0.1008	0.6046	-0.266
Mof_N 	N 	0.686	0.9085	0.188	-0.222
Mof_N 	N 	0.6365	0.9659	0.2809	-0.148
Mof_Ni	Ni	0.7476	0.81315	0.1485	1.08
Mof_O 	O 	0.8173	0.811	0.27022	-0.419
Mof_O 	O 	0.9212	0.7276	0.2738	-0.288
Mof_O 	O 	0.1567	0.7148	0.53413	-0.396
Mof_O 	O 	0.1515	0.7768	0.64935	-0.364
Mof_C 	C 	0.6129	0.2798	0.1946	0.343
Mof_C 	C 	0.5697	0.3115	0.1073	-0.094
Mof_C 	C 	0.4952	0.2795	0.0606	0.019
Mof_H 	H 	0.4702	0.2391	0.0841	0.045
Mof_C 	C 	0.4566	0.3065	0.9789	-0.079
Mof_C 	C 	0.4929	0.3692	0.945	0.002
Mof_H 	H 	0.4672	0.3875	0.8902	0.041
Mof_C 	C 	0.567	0.4048	0.9916	-0.057
Mof_C 	C 	0.6045	0.374	0.0726	0.007
Mof_H 	H 	0.6546	0.3963	0.1043	0.039
Mof_C 	C 	0.3781	0.2644	0.9289	0.29
Mof_C 	C 	0.6061	0.4733	0.957	0.143
Mof_C 	C 	0.6821	0.5022	0.9991	-0.206
Mof_H 	H 	0.7106	0.4786	0.0509	0.105
Mof_C 	C 	0.7178	0.5648	0.9674	0.13
Mof_H 	H 	0.7692	0.583	0.0003	-0.024
Mof_C 	C 	0.6113	0.573	0.8541	0.126
Mof_H 	H 	0.5843	0.5975	0.8023	-0.018
Mof_C 	C 	0.5716	0.5113	0.8819	-0.202
Mof_H 	H 	0.5196	0.495	0.8487	0.103
Mof_C 	C 	0.7934	0.4906	0.3035	0.009
Mof_H 	H 	0.7633	0.5181	0.3329	0.027
Mof_C 	C 	0.8229	0.5271	0.2458	0.008
Mof_H 	H 	0.8166	0.5827	0.2282	0.033
Mof_C 	C 	0.8551	0.3964	0.2596	0.113
Mof_H 	H 	0.8763	0.3446	0.2514	-0.002
Mof_C 	C 	0.9035	0.4747	0.1562	0.144
Mof_C 	C 	0.9043	0.4118	0.1032	-0.144
Mof_H 	H 	0.8789	0.3612	0.1074	0.087
Mof_C 	C 	0.9427	0.4215	0.042	0.004
Mof_H 	H 	0.9428	0.3769	0.0063	0.035
Mof_C 	C 	0.9798	0.4942	0.033	-0.014
Mof_C 	C 	0.9801	0.5555	0.0894	0.015
Mof_H 	H 	0.0073	0.6053	0.087	0.037
Mof_C 	C 	0.9422	0.5472	0.1495	-0.149
Mof_H 	H 	0.943	0.5914	0.1859	0.105
Mof_N 	N 	0.6858	0.6008	0.8954	-0.266
Mof_N 	N 	0.814	0.4085	0.312	-0.221
Mof_N 	N 	0.8635	0.4659	0.2191	-0.149
Mof_Ni	Ni	0.7524	0.31315	0.3515	1.08
Mof_O 	O 	0.6827	0.311	0.22978	-0.419
Mof_O 	O 	0.5788	0.2276	0.2262	-0.288
Mof_O 	O 	0.3433	0.2148	0.96587	-0.396
Mof_O 	O 	0.3485	0.2768	0.85065	-0.364
Mof_C 	C 	0.1129	0.7798	0.1946	0.343
Mof_C 	C 	0.0697	0.8115	0.1073	-0.095
Mof_C 	C 	0.9952	0.7795	0.0606	0.022
Mof_H 	H 	0.9702	0.7391	0.0841	0.045
Mof_C 	C 	0.9566	0.8065	0.9789	-0.082
Mof_C 	C 	0.9929	0.8692	0.945	0.004
Mof_H 	H 	0.9672	0.8875	0.8902	0.041
Mof_C 	C 	0.067	0.9048	0.9916	-0.059
Mof_C 	C 	0.1045	0.874	0.0726	0.01
Mof_H 	H 	0.1546	0.8963	0.1043	0.039
Mof_C 	C 	0.8781	0.7644	0.9289	0.291
Mof_C 	C 	0.1061	0.9733	0.957	0.138
Mof_C 	C 	0.1821	0.0022	0.9991	-0.203
Mof_H 	H 	0.2106	0.9786	0.0509	0.105
Mof_C 	C 	0.2178	0.0648	0.9674	0.131
Mof_H 	H 	0.2692	0.083	0.0003	-0.026
Mof_C 	C 	0.1113	0.073	0.8541	0.122
Mof_H 	H 	0.0843	0.0975	0.8023	-0.016
Mof_C 	C 	0.0716	0.0113	0.8819	-0.195
Mof_H 	H 	0.0196	0.995	0.8487	0.1
Mof_C 	C 	0.2934	0.9906	0.3035	0.011
Mof_H 	H 	0.2633	0.0181	0.3329	0.026
Mof_C 	C 	0.3229	0.0271	0.2458	0.006
Mof_H 	H 	0.3166	0.0827	0.2282	0.034
Mof_C 	C 	0.3551	0.8964	0.2596	0.113
Mof_H 	H 	0.3763	0.8446	0.2514	-0.002
Mof_C 	C 	0.4035	0.9747	0.1562	0.145
Mof_C 	C 	0.4043	0.9118	0.1032	-0.144
Mof_H 	H 	0.3789	0.8612	0.1074	0.087
Mof_C 	C 	0.4427	0.9215	0.042	0.004
Mof_H 	H 	0.4428	0.8769	0.0063	0.035
Mof_C 	C 	0.4798	0.9942	0.033	-0.013
Mof_C 	C 	0.4801	0.0555	0.0894	0.014
Mof_H 	H 	0.5073	0.1053	0.087	0.037
Mof_C 	C 	0.4422	0.0472	0.1495	-0.15
Mof_H 	H 	0.443	0.0914	0.1859	0.106
Mof_N 	N 	0.1858	0.1008	0.8954	-0.265
Mof_N 	N 	0.314	0.9085	0.312	-0.222
Mof_N 	N 	0.3635	0.9659	0.2191	-0.148
Mof_Ni	Ni	0.2524	0.81315	0.3515	1.08
Mof_O 	O 	0.1827	0.811	0.22978	-0.419
Mof_O 	O 	0.0788	0.7276	0.2262	-0.288
Mof_O 	O 	0.8433	0.7148	0.96587	-0.396
Mof_O 	O 	0.8485	0.7768	0.85065	-0.364
Mof_C 	C 	0.6129	0.7202	0.6946	0.343
Mof_C 	C 	0.5697	0.6885	0.6073	-0.094
Mof_C 	C 	0.4952	0.7205	0.5606	0.021
Mof_H 	H 	0.4702	0.7609	0.5841	0.045
Mof_C 	C 	0.4566	0.6935	0.4789	-0.08
Mof_C 	C 	0.4929	0.6308	0.445	0.004
Mof_H 	H 	0.4672	0.6125	0.3902	0.041
Mof_C 	C 	0.567	0.5952	0.4916	-0.058
Mof_C 	C 	0.6045	0.626	0.5726	0.008
Mof_H 	H 	0.6546	0.6037	0.6043	0.039
Mof_C 	C 	0.3781	0.7356	0.4289	0.291
Mof_C 	C 	0.6061	0.5267	0.457	0.144
Mof_C 	C 	0.6821	0.4978	0.4991	-0.207
Mof_H 	H 	0.7106	0.5214	0.5509	0.106
Mof_C 	C 	0.7178	0.4352	0.4674	0.131
Mof_H 	H 	0.7692	0.417	0.5003	-0.025
Mof_C 	C 	0.6113	0.427	0.3541	0.126
Mof_H 	H 	0.5843	0.4025	0.3023	-0.018
Mof_C 	C 	0.5716	0.4887	0.3819	-0.202
Mof_H 	H 	0.5196	0.505	0.3487	0.103
Mof_C 	C 	0.7934	0.5094	0.8035	0.009
Mof_H 	H 	0.7633	0.4819	0.8329	0.027
Mof_C 	C 	0.8229	0.4729	0.7458	0.008
Mof_H 	H 	0.8166	0.4173	0.7282	0.033
Mof_C 	C 	0.8551	0.6036	0.7596	0.113
Mof_H 	H 	0.8763	0.6554	0.7514	-0.002
Mof_C 	C 	0.9035	0.5253	0.6562	0.144
Mof_C 	C 	0.9043	0.5882	0.6032	-0.144
Mof_H 	H 	0.8789	0.6388	0.6074	0.087
Mof_C 	C 	0.9427	0.5785	0.542	0.004
Mof_H 	H 	0.9428	0.6231	0.5063	0.035
Mof_C 	C 	0.9798	0.5058	0.533	-0.014
Mof_C 	C 	0.9801	0.4445	0.5894	0.016
Mof_H 	H 	0.0073	0.3947	0.587	0.037
Mof_C 	C 	0.9422	0.4528	0.6495	-0.15
Mof_H 	H 	0.943	0.4086	0.6859	0.106
Mof_N 	N 	0.6858	0.3992	0.3954	-0.266
Mof_N 	N 	0.814	0.5915	0.812	-0.221
Mof_N 	N 	0.8635	0.5341	0.7191	-0.149
Mof_Ni	Ni	0.7524	0.68685	0.8515	1.08
Mof_O 	O 	0.6827	0.689	0.72978	-0.419
Mof_O 	O 	0.5788	0.7724	0.7262	-0.288
Mof_O 	O 	0.3433	0.7852	0.46587	-0.396
Mof_O 	O 	0.3485	0.7232	0.35065	-0.364
Mof_C 	C 	0.1129	0.2202	0.6946	0.343
Mof_C 	C 	0.0697	0.1885	0.6073	-0.094
Mof_C 	C 	0.9952	0.2205	0.5606	0.021
Mof_H 	H 	0.9702	0.2609	0.5841	0.045
Mof_C 	C 	0.9566	0.1935	0.4789	-0.08
Mof_C 	C 	0.9929	0.1308	0.445	0.003
Mof_H 	H 	0.9672	0.1125	0.3902	0.041
Mof_C 	C 	0.067	0.0952	0.4916	-0.057
Mof_C 	C 	0.1045	0.126	0.5726	0.008
Mof_H 	H 	0.1546	0.1037	0.6043	0.039
Mof_C 	C 	0.8781	0.2356	0.4289	0.29
Mof_C 	C 	0.1061	0.0267	0.457	0.143
Mof_C 	C 	0.1821	0.9978	0.4991	-0.207
Mof_H 	H 	0.2106	0.0214	0.5509	0.106
Mof_C 	C 	0.2178	0.9352	0.4674	0.131
Mof_H 	H 	0.2692	0.917	0.5003	-0.025
Mof_C 	C 	0.1113	0.927	0.3541	0.126
Mof_H 	H 	0.0843	0.9025	0.3023	-0.018
Mof_C 	C 	0.0716	0.9887	0.3819	-0.201
Mof_H 	H 	0.0196	0.005	0.3487	0.103
Mof_C 	C 	0.2934	0.0094	0.8035	0.013
Mof_H 	H 	0.2633	0.9819	0.8329	0.024
Mof_C 	C 	0.3229	0.9729	0.7458	0.004
Mof_H 	H 	0.3166	0.9173	0.7282	0.035
Mof_C 	C 	0.3551	0.1036	0.7596	0.113
Mof_H 	H 	0.3763	0.1554	0.7514	-0.002
Mof_C 	C 	0.4035	0.0253	0.6562	0.145
Mof_C 	C 	0.4043	0.0882	0.6032	-0.145
Mof_H 	H 	0.3789	0.1388	0.6074	0.087
Mof_C 	C 	0.4427	0.0785	0.542	0.004
Mof_H 	H 	0.4428	0.1231	0.5063	0.035
Mof_C 	C 	0.4798	0.0058	0.533	-0.014
Mof_C 	C 	0.4801	0.9445	0.5894	0.016
Mof_H 	H 	0.5073	0.8947	0.587	0.037
Mof_C 	C 	0.4422	0.9528	0.6495	-0.151
Mof_H 	H 	0.443	0.9086	0.6859	0.106
Mof_N 	N 	0.1858	0.8992	0.3954	-0.266
Mof_N 	N 	0.314	0.0915	0.812	-0.222
Mof_N 	N 	0.3635	0.0341	0.7191	-0.148
Mof_Ni	Ni	0.2524	0.18685	0.8515	1.08
Mof_O 	O 	0.1827	0.189	0.72978	-0.419
Mof_O 	O 	0.0788	0.2724	0.7262	-0.288
Mof_O 	O 	0.8433	0.2852	0.46587	-0.396
Mof_O 	O 	0.8485	0.2232	0.35065	-0.364
Mof_C 	C 	0.3871	0.7202	0.8054	0.343
Mof_C 	C 	0.4303	0.6885	0.8927	-0.094
Mof_C 	C 	0.5048	0.7205	0.9394	0.019
Mof_H 	H 	0.5298	0.7609	0.9159	0.045
Mof_C 	C 	0.5434	0.6935	0.0211	-0.079
Mof_C 	C 	0.5071	0.6308	0.055	0.002
Mof_H 	H 	0.5328	0.6125	0.1098	0.041
Mof_C 	C 	0.433	0.5952	0.0084	-0.057
Mof_C 	C 	0.3955	0.626	0.9274	0.007
Mof_H 	H 	0.3454	0.6037	0.8957	0.039
Mof_C 	C 	0.6219	0.7356	0.0711	0.29
Mof_C 	C 	0.3939	0.5267	0.043	0.143
Mof_C 	C 	0.3179	0.4978	0.0009	-0.206
Mof_H 	H 	0.2894	0.5214	0.9491	0.105
Mof_C 	C 	0.2822	0.4352	0.0326	0.13
Mof_H 	H 	0.2308	0.417	0.9997	-0.024
Mof_C 	C 	0.3887	0.427	0.1459	0.126
Mof_H 	H 	0.4157	0.4025	0.1977	-0.018
Mof_C 	C 	0.4284	0.4887	0.1181	-0.202
Mof_H 	H 	0.4804	0.505	0.1513	0.103
Mof_C 	C 	0.2066	0.5094	0.6965	0.009
Mof_H 	H 	0.2367	0.4819	0.6671	0.027
Mof_C 	C 	0.1771	0.4729	0.7542	0.008
Mof_H 	H 	0.1834	0.4173	0.7718	0.033
Mof_C 	C 	0.1449	0.6036	0.7404	0.113
Mof_H 	H 	0.1237	0.6554	0.7486	-0.002
Mof_C 	C 	0.0965	0.5253	0.8438	0.144
Mof_C 	C 	0.0957	0.5882	0.8968	-0.144
Mof_H 	H 	0.1211	0.6388	0.8926	0.087
Mof_C 	C 	0.0573	0.5785	0.958	0.004
Mof_H 	H 	0.0572	0.6231	0.9937	0.035
Mof_C 	C 	0.0202	0.5058	0.967	-0.014
Mof_C 	C 	0.0199	0.4445	0.9106	0.015
Mof_H 	H 	0.9927	0.3947	0.913	0.037
Mof_C 	C 	0.0578	0.4528	0.8505	-0.149
Mof_H 	H 	0.057	0.4086	0.8141	0.105
Mof_N 	N 	0.3142	0.3992	0.1046	-0.266
Mof_N 	N 	0.186	0.5915	0.688	-0.221
Mof_N 	N 	0.1365	0.5341	0.7809	-0.149
Mof_Ni	Ni	0.2476	0.68685	0.6485	1.08
Mof_O 	O 	0.3173	0.689	0.77022	-0.419
Mof_O 	O 	0.4212	0.7724	0.7738	-0.288
Mof_O 	O 	0.6567	0.7852	0.03413	-0.396
Mof_O 	O 	0.6515	0.7232	0.14935	-0.364
Mof_C 	C 	0.8871	0.2202	0.8054	0.343
Mof_C 	C 	0.9303	0.1885	0.8927	-0.095
Mof_C 	C 	0.0048	0.2205	0.9394	0.022
Mof_H 	H 	0.0298	0.2609	0.9159	0.045
Mof_C 	C 	0.0434	0.1935	0.0211	-0.082
Mof_C 	C 	0.0071	0.1308	0.055	0.004
Mof_H 	H 	0.0328	0.1125	0.1098	0.041
Mof_C 	C 	0.933	0.0952	0.0084	-0.059
Mof_C 	C 	0.8955	0.126	0.9274	0.01
Mof_H 	H 	0.8454	0.1037	0.8957	0.039
Mof_C 	C 	0.1219	0.2356	0.0711	0.291
Mof_C 	C 	0.8939	0.0267	0.043	0.138
Mof_C 	C 	0.8179	0.9978	0.0009	-0.203
Mof_H 	H 	0.7894	0.0214	0.9491	0.105
Mof_C 	C 	0.7822	0.9352	0.0326	0.131
Mof_H 	H 	0.7308	0.917	0.9997	-0.026
Mof_C 	C 	0.8887	0.927	0.1459	0.122
Mof_H 	H 	0.9157	0.9025	0.1977	-0.016
Mof_C 	C 	0.9284	0.9887	0.1181	-0.195
Mof_H 	H 	0.9804	0.005	0.1513	0.1
Mof_C 	C 	0.7066	0.0094	0.6965	0.011
Mof_H 	H 	0.7367	0.9819	0.6671	0.026
Mof_C 	C 	0.6771	0.9729	0.7542	0.006
Mof_H 	H 	0.6834	0.9173	0.7718	0.034
Mof_C 	C 	0.6449	0.1036	0.7404	0.113
Mof_H 	H 	0.6237	0.1554	0.7486	-0.002
Mof_C 	C 	0.5965	0.0253	0.8438	0.145
Mof_C 	C 	0.5957	0.0882	0.8968	-0.144
Mof_H 	H 	0.6211	0.1388	0.8926	0.087
Mof_C 	C 	0.5573	0.0785	0.958	0.004
Mof_H 	H 	0.5572	0.1231	0.9937	0.035
Mof_C 	C 	0.5202	0.0058	0.967	-0.013
Mof_C 	C 	0.5199	0.9445	0.9106	0.014
Mof_H 	H 	0.4927	0.8947	0.913	0.037
Mof_C 	C 	0.5578	0.9528	0.8505	-0.15
Mof_H 	H 	0.557	0.9086	0.8141	0.106
Mof_N 	N 	0.8142	0.8992	0.1046	-0.265
Mof_N 	N 	0.686	0.0915	0.688	-0.222
Mof_N 	N 	0.6365	0.0341	0.7809	-0.148
Mof_Ni	Ni	0.7476	0.18685	0.6485	1.08
Mof_O 	O 	0.8173	0.189	0.77022	-0.419
Mof_O 	O 	0.9212	0.2724	0.7738	-0.288
Mof_O 	O 	0.1567	0.2852	0.03413	-0.396
Mof_O 	O 	0.1515	0.2232	0.14935	-0.364
_end
