data_functionalizedCrystal
_audit_creation_method	'EQeq! by Chris Wilmer'
_symmetry_space_group_name_H-M	'P1'
_symmetry_Int_Tables_number	1
_symmetry_cell_setting	triclinic
loop_
_symmetry_equiv_pos_as_xyz
  x,y,z
_cell_length_a	32.441
_cell_length_b	32.441
_cell_length_c	33.1324
_cell_angle_alpha	60.6879
_cell_angle_beta	60.6879
_cell_angle_gamma	90
loop_
_atom_site_label
_atom_site_type_symbol
_atom_site_fract_x
_atom_site_fract_y
_atom_site_fract_z
_atom_site_charge
Mof_K 	K 	0.875	0.63362	0.75	4.38
Mof_K 	K 	0.375	0.61638	0.75	4.382
Mof_K 	K 	0.38362	0.625	0.25	4.381
Mof_K 	K 	0.36638	0.125	0.25	4.381
Mof_Zn	Zn	0.03031	0.63196	0.70492	1.215
Mof_Zn	Zn	0.0356	0.75136	0.6303	1.218
Mof_Zn	Zn	0.03556	0.67652	0.58886	1.221
Mof_Zn	Zn	0.77784	0.20551	0.41014	1.221
Mof_Zn	Zn	0.26477	0.66312	0.70492	1.218
Mof_Zn	Zn	0.3341	0.61834	0.6303	1.221
Mof_Zn	Zn	0.37558	0.73462	0.58886	1.223
Mof_Zn	Zn	0.81202	0.38435	0.41014	1.221
Mof_Zn	Zn	0.38196	0.51477	0.20492	1.218
Mof_Zn	Zn	0.50136	0.5841	0.1303	1.221
Mof_Zn	Zn	0.42652	0.62558	0.08886	1.223
Mof_Zn	Zn	0.95551	0.06202	0.91014	1.222
Mof_Zn	Zn	0.41312	0.28031	0.20492	1.218
Mof_Zn	Zn	0.36834	0.2856	0.1303	1.221
Mof_Zn	Zn	0.48462	0.28556	0.08886	1.223
Mof_Zn	Zn	0.13435	0.02784	0.91014	1.222
Mof_Zn	Zn	0.48523	0.61804	0.79508	1.218
Mof_Zn	Zn	0.4159	0.49864	0.8697	1.221
Mof_Zn	Zn	0.37442	0.57348	0.91114	1.224
Mof_Zn	Zn	0.93798	0.04449	0.08986	1.221
Mof_Zn	Zn	0.71969	0.58688	0.79508	1.218
Mof_Zn	Zn	0.7144	0.63166	0.8697	1.221
Mof_Zn	Zn	0.71444	0.51538	0.91114	1.224
Mof_Zn	Zn	0.97216	0.86565	0.08986	1.223
Mof_Zn	Zn	0.33688	0.73523	0.29508	1.218
Mof_Zn	Zn	0.38166	0.6659	0.3697	1.221
Mof_Zn	Zn	0.26538	0.62442	0.41114	1.223
Mof_Zn	Zn	0.61565	0.18798	0.58986	1.221
Mof_Zn	Zn	0.36804	0.96969	0.29508	1.217
Mof_Zn	Zn	0.24864	0.9644	0.3697	1.22
Mof_Zn	Zn	0.32348	0.96444	0.41114	1.223
Mof_Zn	Zn	0.79449	0.22216	0.58986	1.221
Mof_Zn	Zn	0.81546	0.31546	0.36908	1.229
Mof_Zn	Zn	0.06546	0.06546	0.86908	1.227
Mof_Zn	Zn	0.93454	0.93454	0.13092	1.229
Mof_Zn	Zn	0.68454	0.18454	0.63092	1.229
Mof_Zn	Zn	0.75	0.25	0.5	1.184
Mof_Zn	Zn	-0	0	-0	1.177
Mof_H 	H 	0.7472	0.1561	0.5058	0.142
Mof_H 	H 	0.9858	0.6732	0.6698	0.122
Mof_H 	H 	0.7294	0.2538	0.4354	0.305
Mof_H 	H 	0.954	0.5068	0.883	-0.023
Mof_H 	H 	0.8889	0.4463	0.9744	0.117
Mof_H 	H 	0.7982	0.5259	0.9564	0.118
Mof_H 	H 	0.8602	0.583	0.867	-0.204
Mof_H 	H 	0.8282	0.4276	0.0736	0.055
Mof_H 	H 	0.6865	0.3363	0.1758	0.061
Mof_H 	H 	0.7435	0.4386	0.0154	0.062
Mof_H 	H 	0.8085	0.4135	0.1586	0.077
Mof_H 	H 	0.8214	0.3771	0.2278	0.028
Mof_H 	H 	0.7379	0.2455	0.2866	0.023
Mof_H 	H 	0.7292	0.2799	0.215	0.08
Mof_H 	H 	0.6163	0.3504	0.1844	0.076
Mof_H 	H 	0.54	0.3259	0.1974	0.023
Mof_H 	H 	0.6144	0.3606	0.0416	0.012
Mof_H 	H 	0.6879	0.3844	0.03	0.085
Mof_H 	H 	0.9511	0.8543	0.6524	-0.039
Mof_H 	H 	0.8884	0.8873	0.6756	0.124
Mof_H 	H 	0.7927	0.7709	0.725	0.118
Mof_H 	H 	0.8555	0.7399	0.6946	-0.183
Mof_H 	H 	0.8212	0.923	0.671	0.056
Mof_H 	H 	0.6808	0.8856	0.7964	0.059
Mof_H 	H 	0.7463	0.782	0.7936	0.06
Mof_H 	H 	0.8224	0.9965	0.6786	0.072
Mof_H 	H 	0.8243	0.0777	0.6386	0.024
Mof_H 	H 	0.685	0.0394	0.6864	0.022
Mof_H 	H 	0.6812	0.9582	0.7244	0.075
Mof_H 	H 	0.6086	0.8166	0.8536	0.081
Mof_H 	H 	0.5409	0.7521	0.9336	0.018
Mof_H 	H 	0.6277	0.677	0.9712	0.023
Mof_H 	H 	0.6979	0.7442	0.8866	0.088
Mof_H 	H 	0.7989	0.41	0.9366	-0.01
Mof_H 	H 	0.8617	0.3745	0.9276	0.093
Mof_H 	H 	0.9545	0.4922	0.7702	0.091
Mof_H 	H 	0.8901	0.5265	0.777	-0.147
Mof_H 	H 	0.9253	0.3401	0.8896	0.08
Mof_H 	H 	0.0684	0.3722	0.8364	0.085
Mof_H 	H 	0.0074	0.4804	0.7988	0.09
Mof_H 	H 	0.929	0.2747	0.9752	0.079
Mof_H 	H 	0.9215	0.191	0.0254	0.017
Mof_H 	H 	0.0423	0.2115	0.8876	0.028
Mof_H 	H 	0.0498	0.2952	0.8374	0.073
Mof_H 	H 	0.1409	0.4382	0.7554	0.068
Mof_H 	H 	0.2143	0.5005	0.712	0.024
Mof_H 	H 	0.1353	0.5816	0.7558	0.026
Mof_H 	H 	0.0616	0.5218	0.7978	0.079
Mof_H 	H 	0.747	0.3381	0.5058	0.141
Mof_H 	H 	0.3444	0.657	0.6698	0.106
Mof_H 	H 	0.8352	0.3108	0.4354	0.306
Mof_H 	H 	0.163	0.6102	0.883	-0.028
Mof_H 	H 	0.1367	0.5793	0.9744	0.117
Mof_H 	H 	0.2454	0.5177	0.9564	0.12
Mof_H 	H 	0.2728	0.55	0.867	-0.205
Mof_H 	H 	0.0982	0.4988	0.0736	0.047
Mof_H 	H 	0.1377	0.4879	0.1758	0.054
Mof_H 	H 	0.2411	0.546	0.0154	0.058
Mof_H 	H 	0.0329	0.4279	0.1586	0.097
Mof_H 	H 	0.9508	0.3951	0.2278	0.006
Mof_H 	H 	0.9755	0.4679	0.2866	0.001
Mof_H 	H 	0.0558	0.5051	0.215	0.103
Mof_H 	H 	0.1993	0.4652	0.1844	0.077
Mof_H 	H 	0.2626	0.4767	0.1974	0.022
Mof_H 	H 	0.344	0.5978	0.0416	0.01
Mof_H 	H 	0.2821	0.5856	0.03	0.087
Mof_H 	H 	0.3965	0.4933	0.6524	-0.044
Mof_H 	H 	0.436	0.4371	0.6756	0.124
Mof_H 	H 	0.4823	0.5041	0.725	0.12
Mof_H 	H 	0.4499	0.5655	0.6946	-0.184
Mof_H 	H 	0.5078	0.406	0.671	0.053
Mof_H 	H 	0.5228	0.318	0.7964	0.058
Mof_H 	H 	0.4601	0.4244	0.7936	0.059
Mof_H 	H 	0.499	0.3249	0.6786	0.081
Mof_H 	H 	0.5371	0.2837	0.6386	0.018
Mof_H 	H 	0.6286	0.2742	0.6864	0.021
Mof_H 	H 	0.5944	0.3174	0.7244	0.076
Mof_H 	H 	0.5378	0.3298	0.8536	0.081
Mof_H 	H 	0.5255	0.3143	0.9336	0.017
Mof_H 	H 	0.4011	0.3518	0.9712	0.023
Mof_H 	H 	0.4155	0.3692	0.8866	0.088
Mof_H 	H 	0.2645	0.6534	0.9366	-0.013
Mof_H 	H 	0.2107	0.6979	0.9276	0.098
Mof_H 	H 	0.2753	0.7376	0.7702	0.093
Mof_H 	H 	0.3329	0.6965	0.777	-0.151
Mof_H 	H 	0.1851	0.7703	0.8896	0.066
Mof_H 	H 	0.0952	0.7914	0.8364	0.069
Mof_H 	H 	0.1938	0.7208	0.7988	0.075
Mof_H 	H 	0.0958	0.7501	0.9752	0.08
Mof_H 	H 	0.0531	0.7836	0.0254	0.011
Mof_H 	H 	0.0701	0.9009	0.8876	0.022
Mof_H 	H 	0.1128	0.8674	0.8374	0.074
Mof_H 	H 	0.1037	0.8064	0.7554	0.072
Mof_H 	H 	0.0737	0.7875	0.712	0.019
Mof_H 	H 	0.1089	0.6626	0.7558	0.022
Mof_H 	H 	0.1406	0.6804	0.7978	0.086
Mof_H 	H 	0.9061	0.997	0.0058	0.137
Mof_H 	H 	0.4232	0.5944	0.1698	0.107
Mof_H 	H 	0.0038	0.0852	0.9354	0.288
Mof_H 	H 	0.2568	0.413	0.383	-0.024
Mof_H 	H 	0.1963	0.3867	0.4744	0.11
Mof_H 	H 	0.2759	0.4954	0.4564	0.112
Mof_H 	H 	0.333	0.5228	0.367	-0.201
Mof_H 	H 	0.1776	0.3482	0.5736	0.062
Mof_H 	H 	0.0863	0.3877	0.6758	0.064
Mof_H 	H 	0.1886	0.4911	0.5154	0.07
Mof_H 	H 	0.1635	0.2829	0.6586	0.067
Mof_H 	H 	0.1271	0.2008	0.7278	0.038
Mof_H 	H 	0.9955	0.2255	0.7866	0.054
Mof_H 	H 	0.0299	0.3058	0.715	0.061
Mof_H 	H 	0.1004	0.4493	0.6844	0.074
Mof_H 	H 	0.0759	0.5126	0.6974	0.023
Mof_H 	H 	0.1106	0.594	0.5416	0.014
Mof_H 	H 	0.1344	0.5321	0.53	0.085
Mof_H 	H 	0.6043	0.6465	0.1524	-0.044
Mof_H 	H 	0.6373	0.686	0.1756	0.124
Mof_H 	H 	0.5209	0.7323	0.225	0.12
Mof_H 	H 	0.4899	0.6999	0.1946	-0.184
Mof_H 	H 	0.673	0.7578	0.171	0.052
Mof_H 	H 	0.6356	0.7728	0.2964	0.057
Mof_H 	H 	0.532	0.7101	0.2936	0.058
Mof_H 	H 	0.7465	0.749	0.1786	0.081
Mof_H 	H 	0.8277	0.7871	0.1386	0.018
Mof_H 	H 	0.7894	0.8786	0.1864	0.021
Mof_H 	H 	0.7082	0.8444	0.2244	0.076
Mof_H 	H 	0.5666	0.7878	0.3536	0.084
Mof_H 	H 	0.5021	0.7755	0.4336	0.013
Mof_H 	H 	0.427	0.6511	0.4712	0.017
Mof_H 	H 	0.4942	0.6655	0.3866	0.09
Mof_H 	H 	0.16	0.5145	0.4366	-0.016
Mof_H 	H 	0.1245	0.4607	0.4276	0.097
Mof_H 	H 	0.2422	0.5253	0.2702	0.094
Mof_H 	H 	0.2765	0.5829	0.277	-0.152
Mof_H 	H 	0.0901	0.4351	0.3896	0.061
Mof_H 	H 	0.1222	0.3452	0.3364	0.066
Mof_H 	H 	0.2304	0.4438	0.2988	0.073
Mof_H 	H 	0.0247	0.3458	0.4752	0.09
Mof_H 	H 	0.941	0.3031	0.5254	0.013
Mof_H 	H 	0.9615	0.3201	0.3876	0.011
Mof_H 	H 	0.0452	0.3628	0.3374	0.088
Mof_H 	H 	0.1882	0.3537	0.2554	0.073
Mof_H 	H 	0.2505	0.3237	0.212	0.02
Mof_H 	H 	0.3316	0.3589	0.2558	0.023
Mof_H 	H 	0.2718	0.3906	0.2978	0.087
Mof_H 	H 	0.0881	0.9972	0.0058	0.135
Mof_H 	H 	0.407	0.2358	0.1698	0.107
Mof_H 	H 	0.0608	0.9794	0.9354	0.301
Mof_H 	H 	0.3602	0.204	0.383	-0.024
Mof_H 	H 	0.3293	0.1389	0.4744	0.11
Mof_H 	H 	0.2677	0.0482	0.4564	0.113
Mof_H 	H 	0.3	0.1102	0.367	-0.201
Mof_H 	H 	0.2488	0.0782	0.5736	0.06
Mof_H 	H 	0.2379	0.9365	0.6758	0.065
Mof_H 	H 	0.296	0.9935	0.5154	0.071
Mof_H 	H 	0.1779	0.0585	0.6586	0.081
Mof_H 	H 	0.1451	0.0714	0.7278	0.022
Mof_H 	H 	0.2179	0.9879	0.7866	0.009
Mof_H 	H 	0.2551	0.9792	0.715	0.089
Mof_H 	H 	0.2152	0.8663	0.6844	0.073
Mof_H 	H 	0.2267	0.79	0.6974	0.024
Mof_H 	H 	0.3478	0.8644	0.5416	0.015
Mof_H 	H 	0.3356	0.9379	0.53	0.084
Mof_H 	H 	0.2433	0.2011	0.1524	-0.044
Mof_H 	H 	0.1871	0.1384	0.1756	0.122
Mof_H 	H 	0.2541	0.0427	0.225	0.12
Mof_H 	H 	0.3155	0.1055	0.1946	-0.183
Mof_H 	H 	0.156	0.0712	0.171	0.053
Mof_H 	H 	0.068	0.9308	0.2964	0.057
Mof_H 	H 	0.1744	0.9963	0.2936	0.06
Mof_H 	H 	0.0749	0.0724	0.1786	0.084
Mof_H 	H 	0.0337	0.0743	0.1386	0.008
Mof_H 	H 	0.0242	0.935	0.1864	0.011
Mof_H 	H 	0.0674	0.9312	0.2244	0.079
Mof_H 	H 	0.0798	0.8586	0.3536	0.081
Mof_H 	H 	0.0643	0.7909	0.4336	0.013
Mof_H 	H 	0.1018	0.8777	0.4712	0.017
Mof_H 	H 	0.1192	0.9479	0.3866	0.088
Mof_H 	H 	0.4034	0.0489	0.4366	-0.014
Mof_H 	H 	0.4479	0.1117	0.4276	0.097
Mof_H 	H 	0.4876	0.2045	0.2702	0.093
Mof_H 	H 	0.4465	0.1401	0.277	-0.151
Mof_H 	H 	0.5203	0.1753	0.3896	0.068
Mof_H 	H 	0.5414	0.3184	0.3364	0.072
Mof_H 	H 	0.4708	0.2574	0.2988	0.076
Mof_H 	H 	0.5001	0.179	0.4752	0.073
Mof_H 	H 	0.5336	0.1715	0.5254	0.029
Mof_H 	H 	0.6509	0.2923	0.3876	0.028
Mof_H 	H 	0.6174	0.2998	0.3374	0.07
Mof_H 	H 	0.5564	0.3909	0.2554	0.072
Mof_H 	H 	0.5375	0.4643	0.212	0.021
Mof_H 	H 	0.4126	0.3853	0.2558	0.023
Mof_H 	H 	0.4304	0.3116	0.2978	0.086
Mof_H 	H 	0.003	0.0939	0.9942	0.145
Mof_H 	H 	0.4056	0.5768	0.8302	0.106
Mof_H 	H 	0.9148	0.9962	0.0646	0.3
Mof_H 	H 	0.587	0.7432	0.617	-0.024
Mof_H 	H 	0.6133	0.8037	0.5256	0.111
Mof_H 	H 	0.5046	0.7241	0.5436	0.113
Mof_H 	H 	0.4772	0.667	0.633	-0.201
Mof_H 	H 	0.6518	0.8224	0.4264	0.06
Mof_H 	H 	0.6123	0.9137	0.3242	0.063
Mof_H 	H 	0.5089	0.8114	0.4846	0.069
Mof_H 	H 	0.7171	0.8365	0.3414	0.074
Mof_H 	H 	0.7992	0.8729	0.2722	0.031
Mof_H 	H 	0.7745	0.0045	0.2134	0.031
Mof_H 	H 	0.6942	0.9701	0.285	0.074
Mof_H 	H 	0.5507	0.8996	0.3156	0.074
Mof_H 	H 	0.4874	0.9241	0.3026	0.023
Mof_H 	H 	0.406	0.8894	0.4584	0.014
Mof_H 	H 	0.4679	0.8656	0.47	0.085
Mof_H 	H 	0.3535	0.3957	0.8476	-0.043
Mof_H 	H 	0.314	0.3627	0.8244	0.125
Mof_H 	H 	0.2677	0.4791	0.775	0.12
Mof_H 	H 	0.3001	0.5101	0.8054	-0.184
Mof_H 	H 	0.2422	0.327	0.829	0.053
Mof_H 	H 	0.2272	0.3644	0.7036	0.057
Mof_H 	H 	0.2899	0.468	0.7064	0.058
Mof_H 	H 	0.251	0.2535	0.8214	0.082
Mof_H 	H 	0.2129	0.1723	0.8614	0.019
Mof_H 	H 	0.1214	0.2106	0.8136	0.021
Mof_H 	H 	0.1556	0.2918	0.7756	0.076
Mof_H 	H 	0.2122	0.4334	0.6464	0.084
Mof_H 	H 	0.2245	0.4979	0.5664	0.013
Mof_H 	H 	0.3489	0.573	0.5288	0.018
Mof_H 	H 	0.3345	0.5058	0.6134	0.09
Mof_H 	H 	0.4855	0.84	0.5634	-0.015
Mof_H 	H 	0.5393	0.8755	0.5724	0.097
Mof_H 	H 	0.4747	0.7578	0.7298	0.093
Mof_H 	H 	0.4171	0.7235	0.723	-0.151
Mof_H 	H 	0.5649	0.9099	0.6104	0.066
Mof_H 	H 	0.6548	0.8778	0.6636	0.07
Mof_H 	H 	0.5562	0.7696	0.7012	0.076
Mof_H 	H 	0.6542	0.9753	0.5248	0.078
Mof_H 	H 	0.6969	0.059	0.4746	0.024
Mof_H 	H 	0.6799	0.0385	0.6124	0.023
Mof_H 	H 	0.6372	0.9548	0.6626	0.075
Mof_H 	H 	0.6463	0.8118	0.7446	0.072
Mof_H 	H 	0.6763	0.7495	0.788	0.021
Mof_H 	H 	0.6411	0.6684	0.7442	0.023
Mof_H 	H 	0.6094	0.7282	0.7022	0.086
Mof_H 	H 	0.0028	0.9119	0.9942	0.141
Mof_H 	H 	0.7642	0.593	0.8302	0.106
Mof_H 	H 	0.0206	0.9392	0.0646	0.288
Mof_H 	H 	0.796	0.6398	0.617	-0.022
Mof_H 	H 	0.8611	0.6707	0.5256	0.108
Mof_H 	H 	0.9518	0.7323	0.5436	0.113
Mof_H 	H 	0.8898	0.7	0.633	-0.199
Mof_H 	H 	0.9218	0.7512	0.4264	0.063
Mof_H 	H 	0.0635	0.7621	0.3242	0.07
Mof_H 	H 	0.0065	0.704	0.4846	0.077
Mof_H 	H 	0.9415	0.8221	0.3414	0.095
Mof_H 	H 	0.9286	0.8549	0.2722	0.01
Mof_H 	H 	0.0121	0.7821	0.2134	-0.028
Mof_H 	H 	0.0208	0.7449	0.285	0.115
Mof_H 	H 	0.1337	0.7848	0.3156	0.07
Mof_H 	H 	0.21	0.7733	0.3026	0.026
Mof_H 	H 	0.1356	0.6522	0.4584	0.017
Mof_H 	H 	0.0621	0.6644	0.47	0.079
Mof_H 	H 	0.7989	0.7567	0.8476	-0.039
Mof_H 	H 	0.8616	0.8129	0.8244	0.119
Mof_H 	H 	0.9573	0.7459	0.775	0.118
Mof_H 	H 	0.8945	0.6845	0.8054	-0.179
Mof_H 	H 	0.9288	0.844	0.829	0.066
Mof_H 	H 	0.0692	0.932	0.7036	0.069
Mof_H 	H 	0.0037	0.8256	0.7064	0.07
Mof_H 	H 	0.9276	0.9251	0.8214	0.079
Mof_H 	H 	0.9257	0.9663	0.8614	0.02
Mof_H 	H 	0.065	0.9758	0.8136	0.024
Mof_H 	H 	0.0688	0.9326	0.7756	0.075
Mof_H 	H 	0.1414	0.9202	0.6464	0.077
Mof_H 	H 	0.2091	0.9357	0.5664	0.017
Mof_H 	H 	0.1223	0.8982	0.5288	0.02
Mof_H 	H 	0.0521	0.8808	0.6134	0.081
Mof_H 	H 	0.9511	0.5966	0.5634	-0.011
Mof_H 	H 	0.8883	0.5521	0.5724	0.098
Mof_H 	H 	0.7955	0.5124	0.7298	0.092
Mof_H 	H 	0.8599	0.5535	0.723	-0.15
Mof_H 	H 	0.8247	0.4797	0.6104	0.069
Mof_H 	H 	0.6816	0.4586	0.6636	0.072
Mof_H 	H 	0.7426	0.5292	0.7012	0.077
Mof_H 	H 	0.821	0.4999	0.5248	0.074
Mof_H 	H 	0.8285	0.4664	0.4746	0.03
Mof_H 	H 	0.7077	0.3491	0.6124	0.028
Mof_H 	H 	0.7002	0.3826	0.6626	0.07
Mof_H 	H 	0.6091	0.4436	0.7446	0.072
Mof_H 	H 	0.5357	0.4625	0.788	0.021
Mof_H 	H 	0.6147	0.5874	0.7442	0.024
Mof_H 	H 	0.6884	0.5696	0.7022	0.086
Mof_H 	H 	0.6619	0.253	0.4942	0.141
Mof_H 	H 	0.343	0.6556	0.3302	0.106
Mof_H 	H 	0.6892	0.1648	0.5646	0.306
Mof_H 	H 	0.3898	0.837	0.117	-0.022
Mof_H 	H 	0.4207	0.8633	0.0256	0.105
Mof_H 	H 	0.4823	0.7546	0.0436	0.108
Mof_H 	H 	0.45	0.7272	0.133	-0.199
Mof_H 	H 	0.5012	0.9018	0.9264	0.062
Mof_H 	H 	0.5121	0.8623	0.8242	0.063
Mof_H 	H 	0.454	0.7589	0.9846	0.074
Mof_H 	H 	0.5721	0.9671	0.8414	0.082
Mof_H 	H 	0.6049	0.0492	0.7722	0.023
Mof_H 	H 	0.5321	0.0245	0.7134	0.017
Mof_H 	H 	0.4949	0.9442	0.785	0.085
Mof_H 	H 	0.5348	0.8007	0.8156	0.074
Mof_H 	H 	0.5233	0.7374	0.8026	0.024
Mof_H 	H 	0.4022	0.656	0.9584	0.017
Mof_H 	H 	0.4144	0.7179	0.97	0.087
Mof_H 	H 	0.5067	0.6035	0.3476	-0.044
Mof_H 	H 	0.5629	0.564	0.3244	0.125
Mof_H 	H 	0.4959	0.5177	0.275	0.12
Mof_H 	H 	0.4345	0.5501	0.3054	-0.184
Mof_H 	H 	0.594	0.4922	0.329	0.052
Mof_H 	H 	0.682	0.4772	0.2036	0.056
Mof_H 	H 	0.5756	0.5399	0.2064	0.057
Mof_H 	H 	0.6751	0.501	0.3214	0.082
Mof_H 	H 	0.7163	0.4629	0.3614	0.018
Mof_H 	H 	0.7258	0.3714	0.3136	0.021
Mof_H 	H 	0.6826	0.4056	0.2756	0.076
Mof_H 	H 	0.6702	0.4622	0.1464	0.086
Mof_H 	H 	0.6857	0.4745	0.0664	0.008
Mof_H 	H 	0.6482	0.5989	0.0288	0.012
Mof_H 	H 	0.6308	0.5845	0.1134	0.092
Mof_H 	H 	0.3466	0.7355	0.0634	-0.016
Mof_H 	H 	0.3021	0.7893	0.0724	0.096
Mof_H 	H 	0.2624	0.7247	0.2298	0.092
Mof_H 	H 	0.3035	0.6671	0.223	-0.151
Mof_H 	H 	0.2297	0.8149	0.1104	0.068
Mof_H 	H 	0.2086	0.9048	0.1636	0.072
Mof_H 	H 	0.2792	0.8062	0.2012	0.077
Mof_H 	H 	0.2499	0.9042	0.0248	0.065
Mof_H 	H 	0.2164	0.9469	0.9746	0.043
Mof_H 	H 	0.0991	0.9299	0.1124	0.03
Mof_H 	H 	0.1326	0.8872	0.1626	0.066
Mof_H 	H 	0.1936	0.8963	0.2446	0.072
Mof_H 	H 	0.2125	0.9263	0.288	0.021
Mof_H 	H 	0.3374	0.8911	0.2442	0.023
Mof_H 	H 	0.3196	0.8594	0.2022	0.085
Mof_H 	H 	0.8439	0.2528	0.4942	0.143
Mof_H 	H 	0.3268	0.0142	0.3302	0.11
Mof_H 	H 	0.7462	0.2706	0.5646	0.305
Mof_H 	H 	0.4932	0.046	0.117	-0.021
Mof_H 	H 	0.5537	0.1111	0.0256	0.105
Mof_H 	H 	0.4741	0.2018	0.0436	0.107
Mof_H 	H 	0.417	0.1398	0.133	-0.198
Mof_H 	H 	0.5724	0.1718	0.9264	0.065
Mof_H 	H 	0.6637	0.3135	0.8242	0.065
Mof_H 	H 	0.5614	0.2565	0.9846	0.075
Mof_H 	H 	0.5865	0.1915	0.8414	0.076
Mof_H 	H 	0.6229	0.1786	0.7722	0.029
Mof_H 	H 	0.7545	0.2621	0.7134	0.024
Mof_H 	H 	0.7201	0.2708	0.785	0.079
Mof_H 	H 	0.6496	0.3837	0.8156	0.073
Mof_H 	H 	0.6741	0.46	0.8026	0.024
Mof_H 	H 	0.6394	0.3856	0.9584	0.017
Mof_H 	H 	0.6156	0.3121	0.97	0.086
Mof_H 	H 	0.1457	0.0489	0.3476	-0.042
Mof_H 	H 	0.1127	0.1116	0.3244	0.122
Mof_H 	H 	0.2291	0.2073	0.275	0.118
Mof_H 	H 	0.2601	0.1445	0.3054	-0.183
Mof_H 	H 	0.077	0.1788	0.329	0.056
Mof_H 	H 	0.1144	0.3192	0.2036	0.06
Mof_H 	H 	0.218	0.2537	0.2064	0.06
Mof_H 	H 	0.0035	0.1776	0.3214	0.045
Mof_H 	H 	0.9223	0.1757	0.3614	0.035
Mof_H 	H 	0.9606	0.315	0.3136	0.023
Mof_H 	H 	0.0418	0.3188	0.2756	0.073
Mof_H 	H 	0.1834	0.3914	0.1464	0.085
Mof_H 	H 	0.2479	0.4591	0.0664	0.009
Mof_H 	H 	0.323	0.3723	0.0288	0.013
Mof_H 	H 	0.2558	0.3021	0.1134	0.09
Mof_H 	H 	0.59	0.2011	0.0634	-0.015
Mof_H 	H 	0.6255	0.1383	0.0724	0.095
Mof_H 	H 	0.5078	0.0455	0.2298	0.092
Mof_H 	H 	0.4735	0.1099	0.223	-0.15
Mof_H 	H 	0.6599	0.0747	0.1104	0.072
Mof_H 	H 	0.6278	0.9316	0.1636	0.076
Mof_H 	H 	0.5196	0.9926	0.2012	0.081
Mof_H 	H 	0.7253	0.071	0.0248	0.065
Mof_H 	H 	0.809	0.0785	0.9746	0.045
Mof_H 	H 	0.7885	0.9577	0.1124	0.033
Mof_H 	H 	0.7048	0.9502	0.1626	0.066
Mof_H 	H 	0.5618	0.8591	0.2446	0.071
Mof_H 	H 	0.4995	0.7857	0.288	0.022
Mof_H 	H 	0.4184	0.8647	0.2442	0.024
Mof_H 	H 	0.4782	0.9384	0.2022	0.083
Mof_C 	C 	0.95269	0.58629	0.80382	0.573
Mof_C 	C 	0.91291	0.55161	0.86398	-0.359
Mof_C 	C 	0.92233	0.51013	0.89754	0.195
Mof_C 	C 	0.88298	0.47428	0.95304	-0.239
Mof_C 	C 	0.83615	0.47875	0.9771	0.158
Mof_C 	C 	0.82927	0.52127	0.94206	-0.289
Mof_C 	C 	0.8666	0.5555	0.8884	0.282
Mof_C 	C 	0.79303	0.43813	0.03414	-0.018
Mof_C 	C 	0.79836	0.41646	0.07908	-0.076
Mof_C 	C 	0.75795	0.37785	0.1325	0.019
Mof_C 	C 	0.71316	0.36216	0.14068	-0.094
Mof_C 	C 	0.70856	0.38536	0.09648	0.019
Mof_C 	C 	0.74783	0.42292	0.04456	-0.077
Mof_C 	C 	0.76647	0.35087	0.17926	0.062
Mof_C 	C 	0.79476	0.37916	0.18448	-0.132
Mof_C 	C 	0.80239	0.35779	0.22562	0.064
Mof_C 	C 	0.78162	0.30662	0.26476	-0.136
Mof_C 	C 	0.75312	0.27952	0.25956	0.07
Mof_C 	C 	0.7467	0.2998	0.218	-0.14
Mof_C 	C 	0.79155	0.28185	0.3097	0.399
Mof_C 	C 	0.66022	0.36972	0.10556	0.074
Mof_C 	C 	0.61609	0.35259	0.15542	-0.133
Mof_C 	C 	0.56977	0.33797	0.16326	0.065
Mof_C 	C 	0.56941	0.34171	0.12018	-0.156
Mof_C 	C 	0.61385	0.35855	0.0709	0.08
Mof_C 	C 	0.6582	0.3725	0.0642	-0.148
Mof_C 	C 	0.0757	0.5998	0.6296	0.409
Mof_C 	C 	0.95054	0.76974	0.66052	0.538
Mof_C 	C 	0.90949	0.79319	0.67262	-0.341
Mof_C 	C 	0.9192	0.8375	0.6664	0.231
Mof_C 	C 	0.88142	0.85652	0.68096	-0.271
Mof_C 	C 	0.83334	0.83284	0.70312	0.171
Mof_C 	C 	0.82501	0.78851	0.70898	-0.293
Mof_C 	C 	0.86194	0.76904	0.69252	0.258
Mof_C 	C 	0.79006	0.85088	0.72768	-0.014
Mof_C 	C 	0.79211	0.89891	0.70458	-0.075
Mof_C 	C 	0.75233	0.91383	0.72894	0.019
Mof_C 	C 	0.70857	0.87677	0.77966	-0.086
Mof_C 	C 	0.70644	0.82616	0.80542	0.013
Mof_C 	C 	0.74739	0.81519	0.77782	-0.075
Mof_C 	C 	0.75452	0.96772	0.70316	0.057
Mof_C 	C 	0.79456	0.00436	0.67948	-0.121
Mof_C 	C 	0.79517	0.05327	0.65646	0.069
Mof_C 	C 	0.7555	0.06713	0.6586	-0.144
Mof_C 	C 	0.71291	0.03051	0.68438	0.077
Mof_C 	C 	0.71051	0.98221	0.70678	-0.135
Mof_C 	C 	0.87915	0.24375	0.3655	0.409
Mof_C 	C 	0.66088	0.78735	0.85984	0.075
Mof_C 	C 	0.6131	0.7885	0.8766	-0.147
Mof_C 	C 	0.57257	0.75047	0.92486	0.082
Mof_C 	C 	0.57759	0.70979	0.96082	-0.148
Mof_C 	C 	0.62397	0.70537	0.94746	0.063
Mof_C 	C 	0.66606	0.74576	0.89608	-0.137
Mof_C 	C 	0.06591	0.78181	0.51638	0.426
Mof_C 	C 	0.80043	0.49763	0.86514	0.535
Mof_C 	C 	0.8397	0.47303	0.85768	-0.29
Mof_C 	C 	0.83027	0.42657	0.90326	0.148
Mof_C 	C 	0.86816	0.40576	0.89788	-0.182
Mof_C 	C 	0.91676	0.43096	0.84828	0.083
Mof_C 	C 	0.92339	0.47553	0.80402	-0.199
Mof_C 	C 	0.88473	0.4968	0.80794	0.187
Mof_C 	C 	0.96012	0.41332	0.84476	0.075
Mof_C 	C 	0.95564	0.36364	0.87052	-0.142
Mof_C 	C 	0.9962	0.3485	0.8682	0.083
Mof_C 	C 	0.04087	0.38237	0.83926	-0.163
Mof_C 	C 	0.04467	0.43307	0.81366	0.078
Mof_C 	C 	0.00434	0.44674	0.81672	-0.167
Mof_C 	C 	0.99017	0.29329	0.9013	0.058
Mof_C 	C 	0.95173	0.26209	0.9576	-0.127
Mof_C 	C 	0.94723	0.21193	0.98766	0.076
Mof_C 	C 	0.98117	0.19297	0.96142	-0.138
Mof_C 	C 	0.0196	0.22417	0.90514	0.048
Mof_C 	C 	0.0241	0.27433	0.87508	-0.133
Mof_C 	C 	0.7219	0.1102	0.506	0.417
Mof_C 	C 	0.09266	0.47236	0.78428	0.035
Mof_C 	C 	0.13899	0.46629	0.75642	-0.112
Mof_C 	C 	0.18331	0.50451	0.72958	0.061
Mof_C 	C 	0.18071	0.54631	0.72958	-0.157
Mof_C 	C 	0.13652	0.55322	0.75536	0.062
Mof_C 	C 	0.09203	0.51643	0.78174	-0.115
Mof_C 	C 	0.07074	0.71154	0.70352	0.428
Mof_C 	C 	0.24349	0.60989	0.80382	0.575
Mof_C 	C 	0.22311	0.58441	0.86398	-0.364
Mof_C 	C 	0.18013	0.59233	0.89754	0.199
Mof_C 	C 	0.16398	0.57268	0.95304	-0.245
Mof_C 	C 	0.18675	0.54415	0.9771	0.165
Mof_C 	C 	0.22867	0.53667	0.94206	-0.295
Mof_C 	C 	0.245	0.5561	0.8884	0.286
Mof_C 	C 	0.17283	0.52773	0.03414	-0.029
Mof_C 	C 	0.12256	0.50446	0.07908	-0.061
Mof_C 	C 	0.10955	0.48965	0.1325	-0.006
Mof_C 	C 	0.14616	0.49716	0.14068	-0.077
Mof_C 	C 	0.19496	0.51816	0.09648	0.007
Mof_C 	C 	0.20761	0.53252	0.04456	-0.066
Mof_C 	C 	0.05427	0.46987	0.17926	0.109
Mof_C 	C 	0.02076	0.43636	0.18448	-0.202
Mof_C 	C 	0.97199	0.41659	0.22562	0.135
Mof_C 	C 	0.95362	0.42862	0.26476	-0.182
Mof_C 	C 	0.98732	0.46092	0.25956	0.143
Mof_C 	C 	0.0353	0.4822	0.218	-0.214
Mof_C 	C 	0.89875	0.40845	0.3097	0.417
Mof_C 	C 	0.23422	0.52472	0.10556	0.08
Mof_C 	C 	0.22849	0.49199	0.15542	-0.137
Mof_C 	C 	0.26697	0.49877	0.16326	0.068
Mof_C 	C 	0.31041	0.53811	0.12018	-0.158
Mof_C 	C 	0.31525	0.57055	0.0709	0.083
Mof_C 	C 	0.2776	0.5633	0.0642	-0.153
Mof_C 	C 	0.2947	0.7706	0.6296	0.408
Mof_C 	C 	0.38894	0.56974	0.66052	0.54
Mof_C 	C 	0.41789	0.53419	0.67262	-0.346
Mof_C 	C 	0.4144	0.4961	0.6664	0.235
Mof_C 	C 	0.43762	0.46252	0.68096	-0.276
Mof_C 	C 	0.46354	0.46404	0.70312	0.174
Mof_C 	C 	0.46601	0.50251	0.70898	-0.296
Mof_C 	C 	0.44554	0.53844	0.69252	0.261
Mof_C 	C 	0.48226	0.42144	0.72768	-0.018
Mof_C 	C 	0.50331	0.39651	0.70458	-0.07
Mof_C 	C 	0.51873	0.35723	0.72894	0.012
Mof_C 	C 	0.51177	0.34357	0.77966	-0.082
Mof_C 	C 	0.48814	0.36842	0.80542	0.01
Mof_C 	C 	0.47479	0.40699	0.77782	-0.072
Mof_C 	C 	0.54232	0.32912	0.70316	0.069
Mof_C 	C 	0.52596	0.31616	0.67948	-0.144
Mof_C 	C 	0.54837	0.29027	0.65646	0.081
Mof_C 	C 	0.5859	0.27427	0.6586	-0.149
Mof_C 	C 	0.60271	0.28511	0.68438	0.077
Mof_C 	C 	0.58271	0.31101	0.70678	-0.136
Mof_C 	C 	0.75535	0.39075	0.3655	0.414
Mof_C 	C 	0.47928	0.35281	0.85984	0.076
Mof_C 	C 	0.5103	0.3349	0.8766	-0.148
Mof_C 	C 	0.50257	0.32467	0.92486	0.083
Mof_C 	C 	0.46159	0.32939	0.96082	-0.148
Mof_C 	C 	0.42857	0.34717	0.94746	0.064
Mof_C 	C 	0.43786	0.35816	0.89608	-0.138
Mof_C 	C 	0.41771	0.70181	0.51638	0.427
Mof_C 	C 	0.33443	0.63723	0.86514	0.538
Mof_C 	C 	0.30262	0.66929	0.85768	-0.297
Mof_C 	C 	0.26647	0.67017	0.90326	0.158
Mof_C 	C 	0.23396	0.69636	0.89788	-0.196
Mof_C 	C 	0.23496	0.72076	0.84828	0.103
Mof_C 	C 	0.27259	0.72045	0.80402	-0.213
Mof_C 	C 	0.30733	0.69526	0.80794	0.196
Mof_C 	C 	0.19512	0.74192	0.84476	0.027
Mof_C 	C 	0.17384	0.76584	0.87052	-0.105
Mof_C 	C 	0.1356	0.7833	0.8682	0.04
Mof_C 	C 	0.11987	0.77837	0.83926	-0.114
Mof_C 	C 	0.14167	0.75327	0.81366	0.042
Mof_C 	C 	0.17894	0.73654	0.81672	-0.111
Mof_C 	C 	0.10853	0.80541	0.9013	0.06
Mof_C 	C 	0.09067	0.78031	0.9576	-0.138
Mof_C 	C 	0.06511	0.80041	0.98766	0.085
Mof_C 	C 	0.05741	0.84561	0.96142	-0.157
Mof_C 	C 	0.07526	0.87069	0.90514	0.068
Mof_C 	C 	0.10082	0.85059	0.87508	-0.131
Mof_C 	C 	0.7721	0.3838	0.506	0.413
Mof_C 	C 	0.12306	0.74336	0.78428	0.054
Mof_C 	C 	0.10459	0.77729	0.75642	-0.125
Mof_C 	C 	0.08711	0.76591	0.72958	0.069
Mof_C 	C 	0.08971	0.72411	0.72958	-0.167
Mof_C 	C 	0.10812	0.69142	0.75536	0.072
Mof_C 	C 	0.12623	0.70183	0.78174	-0.129
Mof_C 	C 	0.22574	0.58494	0.70352	0.425
Mof_C 	C 	0.33629	0.49349	0.30382	0.571
Mof_C 	C 	0.30161	0.47311	0.36398	-0.355
Mof_C 	C 	0.26013	0.43013	0.39754	0.187
Mof_C 	C 	0.22428	0.41398	0.45304	-0.229
Mof_C 	C 	0.22875	0.43675	0.4771	0.14
Mof_C 	C 	0.27127	0.47867	0.44206	-0.278
Mof_C 	C 	0.3055	0.495	0.3884	0.273
Mof_C 	C 	0.18813	0.42283	0.53414	0.002
Mof_C 	C 	0.16646	0.37256	0.57908	-0.091
Mof_C 	C 	0.12785	0.35955	0.6325	0.035
Mof_C 	C 	0.11216	0.39616	0.64068	-0.107
Mof_C 	C 	0.13536	0.44496	0.59648	0.029
Mof_C 	C 	0.17292	0.45761	0.54456	-0.092
Mof_C 	C 	0.10087	0.30427	0.67926	0.036
Mof_C 	C 	0.12916	0.27076	0.68448	-0.105
Mof_C 	C 	0.10779	0.22199	0.72562	0.035
Mof_C 	C 	0.05662	0.20362	0.76476	-0.104
Mof_C 	C 	0.02952	0.23732	0.75956	0.008
Mof_C 	C 	0.0498	0.2853	0.718	-0.097
Mof_C 	C 	0.03185	0.14875	0.8097	0.37
Mof_C 	C 	0.11972	0.48422	0.60556	0.068
Mof_C 	C 	0.10259	0.47849	0.65542	-0.129
Mof_C 	C 	0.08797	0.51697	0.66326	0.062
Mof_C 	C 	0.09171	0.56041	0.62018	-0.155
Mof_C 	C 	0.10855	0.56525	0.5709	0.077
Mof_C 	C 	0.1225	0.5276	0.5642	-0.144
Mof_C 	C 	0.3498	0.5447	0.1296	0.41
Mof_C 	C 	0.51974	0.63894	0.16052	0.54
Mof_C 	C 	0.54319	0.66789	0.17262	-0.347
Mof_C 	C 	0.5875	0.6644	0.1664	0.236
Mof_C 	C 	0.60652	0.68762	0.18096	-0.277
Mof_C 	C 	0.58284	0.71354	0.20312	0.175
Mof_C 	C 	0.53851	0.71601	0.20898	-0.297
Mof_C 	C 	0.51904	0.69554	0.19252	0.262
Mof_C 	C 	0.60088	0.73226	0.22768	-0.02
Mof_C 	C 	0.64891	0.75331	0.20458	-0.068
Mof_C 	C 	0.66383	0.76873	0.22894	0.011
Mof_C 	C 	0.62677	0.76177	0.27966	-0.08
Mof_C 	C 	0.57616	0.73814	0.30542	0.007
Mof_C 	C 	0.56519	0.72479	0.27782	-0.069
Mof_C 	C 	0.71772	0.79232	0.20316	0.069
Mof_C 	C 	0.75436	0.77596	0.17948	-0.145
Mof_C 	C 	0.80327	0.79837	0.15646	0.08
Mof_C 	C 	0.81713	0.8359	0.1586	-0.149
Mof_C 	C 	0.78051	0.85271	0.18438	0.076
Mof_C 	C 	0.73221	0.83271	0.20678	-0.136
Mof_C 	C 	0.99375	0.00535	0.8655	0.432
Mof_C 	C 	0.53735	0.72928	0.35984	0.082
Mof_C 	C 	0.5385	0.7603	0.3766	-0.156
Mof_C 	C 	0.50047	0.75257	0.42486	0.092
Mof_C 	C 	0.45979	0.71159	0.46082	-0.162
Mof_C 	C 	0.45537	0.67857	0.44746	0.073
Mof_C 	C 	0.49576	0.68786	0.39608	-0.145
Mof_C 	C 	0.53181	0.66771	0.01638	0.418
Mof_C 	C 	0.24763	0.58443	0.36514	0.539
Mof_C 	C 	0.22303	0.55262	0.35768	-0.3
Mof_C 	C 	0.17657	0.51647	0.40326	0.16
Mof_C 	C 	0.15576	0.48396	0.39788	-0.199
Mof_C 	C 	0.18096	0.48496	0.34828	0.106
Mof_C 	C 	0.22553	0.52259	0.30402	-0.216
Mof_C 	C 	0.2468	0.55733	0.30794	0.198
Mof_C 	C 	0.16332	0.44512	0.34476	0.02
Mof_C 	C 	0.11364	0.42384	0.37052	-0.095
Mof_C 	C 	0.0985	0.3856	0.3682	0.025
Mof_C 	C 	0.13237	0.36987	0.33926	-0.104
Mof_C 	C 	0.18307	0.39167	0.31366	0.036
Mof_C 	C 	0.19674	0.42894	0.31672	-0.105
Mof_C 	C 	0.04329	0.35853	0.4013	0.087
Mof_C 	C 	0.01209	0.34067	0.4576	-0.177
Mof_C 	C 	0.96193	0.31511	0.48766	0.112
Mof_C 	C 	0.94297	0.30741	0.46142	-0.174
Mof_C 	C 	0.97417	0.32526	0.40514	0.112
Mof_C 	C 	0.02433	0.35082	0.37508	-0.176
Mof_C 	C 	0.8602	0.0221	0.006	0.4
Mof_C 	C 	0.22236	0.37306	0.28428	0.057
Mof_C 	C 	0.21629	0.35459	0.25642	-0.126
Mof_C 	C 	0.25451	0.33711	0.22958	0.071
Mof_C 	C 	0.29631	0.33971	0.22958	-0.166
Mof_C 	C 	0.30322	0.35812	0.25536	0.073
Mof_C 	C 	0.26643	0.37623	0.28174	-0.13
Mof_C 	C 	0.46154	0.47574	0.20352	0.428
Mof_C 	C 	0.35989	0.20269	0.30382	0.571
Mof_C 	C 	0.33441	0.16291	0.36398	-0.355
Mof_C 	C 	0.34233	0.17233	0.39754	0.187
Mof_C 	C 	0.32268	0.13298	0.45304	-0.228
Mof_C 	C 	0.29415	0.08615	0.4771	0.139
Mof_C 	C 	0.28667	0.07927	0.44206	-0.278
Mof_C 	C 	0.3061	0.1166	0.3884	0.272
Mof_C 	C 	0.27773	0.04303	0.53414	0.007
Mof_C 	C 	0.25446	0.04836	0.57908	-0.088
Mof_C 	C 	0.23965	0.00795	0.6325	0.026
Mof_C 	C 	0.24716	0.96316	0.64068	-0.107
Mof_C 	C 	0.26816	0.95856	0.59648	0.032
Mof_C 	C 	0.28252	0.99783	0.54456	-0.098
Mof_C 	C 	0.21987	0.01647	0.67926	0.077
Mof_C 	C 	0.18636	0.04476	0.68448	-0.145
Mof_C 	C 	0.16659	0.05239	0.72562	0.079
Mof_C 	C 	0.17862	0.03162	0.76476	-0.152
Mof_C 	C 	0.21092	0.00312	0.75956	0.102
Mof_C 	C 	0.2322	0.9967	0.718	-0.17
Mof_C 	C 	0.15845	0.04155	0.8097	0.406
Mof_C 	C 	0.27472	0.91022	0.60556	0.066
Mof_C 	C 	0.24199	0.86609	0.65542	-0.127
Mof_C 	C 	0.24877	0.81977	0.66326	0.061
Mof_C 	C 	0.28811	0.81941	0.62018	-0.152
Mof_C 	C 	0.32055	0.86385	0.5709	0.076
Mof_C 	C 	0.3133	0.9082	0.5642	-0.141
Mof_C 	C 	0.5206	0.3257	0.1296	0.41
Mof_C 	C 	0.31974	0.20054	0.16052	0.539
Mof_C 	C 	0.28419	0.15949	0.17262	-0.345
Mof_C 	C 	0.2461	0.1692	0.1664	0.233
Mof_C 	C 	0.21252	0.13142	0.18096	-0.273
Mof_C 	C 	0.21404	0.08334	0.20312	0.171
Mof_C 	C 	0.25251	0.07501	0.20898	-0.294
Mof_C 	C 	0.28844	0.11194	0.19252	0.26
Mof_C 	C 	0.17144	0.04006	0.22768	-0.012
Mof_C 	C 	0.14651	0.04211	0.20458	-0.073
Mof_C 	C 	0.10723	0.00233	0.22894	0.014
Mof_C 	C 	0.09357	0.95857	0.27966	-0.087
Mof_C 	C 	0.11842	0.95644	0.30542	0.012
Mof_C 	C 	0.15699	0.99739	0.27782	-0.08
Mof_C 	C 	0.07912	0.00452	0.20316	0.079
Mof_C 	C 	0.06616	0.04456	0.17948	-0.158
Mof_C 	C 	0.04027	0.04517	0.15646	0.097
Mof_C 	C 	0.02427	0.0055	0.1586	-0.173
Mof_C 	C 	0.03511	0.96291	0.18438	0.089
Mof_C 	C 	0.06101	0.96051	0.20678	-0.151
Mof_C 	C 	0.14075	0.12915	0.8655	0.414
Mof_C 	C 	0.10281	0.91088	0.35984	0.077
Mof_C 	C 	0.0849	0.8631	0.3766	-0.154
Mof_C 	C 	0.07467	0.82257	0.42486	0.089
Mof_C 	C 	0.07939	0.82759	0.46082	-0.162
Mof_C 	C 	0.09717	0.87397	0.44746	0.07
Mof_C 	C 	0.10816	0.91606	0.39608	-0.144
Mof_C 	C 	0.45181	0.31591	0.01638	0.417
Mof_C 	C 	0.38723	0.05043	0.36514	0.538
Mof_C 	C 	0.41929	0.0897	0.35768	-0.297
Mof_C 	C 	0.42017	0.08027	0.40326	0.158
Mof_C 	C 	0.44636	0.11816	0.39788	-0.195
Mof_C 	C 	0.47076	0.16676	0.34828	0.101
Mof_C 	C 	0.47045	0.17339	0.30402	-0.212
Mof_C 	C 	0.44526	0.13473	0.30794	0.196
Mof_C 	C 	0.49192	0.21012	0.34476	0.03
Mof_C 	C 	0.51584	0.20564	0.37052	-0.109
Mof_C 	C 	0.5333	0.2462	0.3682	0.046
Mof_C 	C 	0.52837	0.29087	0.33926	-0.118
Mof_C 	C 	0.50327	0.29467	0.31366	0.045
Mof_C 	C 	0.48654	0.25434	0.31672	-0.114
Mof_C 	C 	0.55541	0.24017	0.4013	0.049
Mof_C 	C 	0.53031	0.20173	0.4576	-0.119
Mof_C 	C 	0.55041	0.19723	0.48766	0.055
Mof_C 	C 	0.59561	0.23117	0.46142	-0.138
Mof_C 	C 	0.62069	0.2696	0.40514	0.055
Mof_C 	C 	0.60059	0.2741	0.37508	-0.118
Mof_C 	C 	0.1338	0.9719	0.006	0.397
Mof_C 	C 	0.49336	0.34266	0.28428	0.053
Mof_C 	C 	0.52729	0.38899	0.25642	-0.123
Mof_C 	C 	0.51591	0.43331	0.22958	0.069
Mof_C 	C 	0.47411	0.43071	0.22958	-0.164
Mof_C 	C 	0.44142	0.38652	0.25536	0.072
Mof_C 	C 	0.45183	0.34203	0.28174	-0.127
Mof_C 	C 	0.33494	0.32074	0.20352	0.428
Mof_C 	C 	0.50651	0.66371	0.69618	0.572
Mof_C 	C 	0.52689	0.69839	0.63602	-0.356
Mof_C 	C 	0.56987	0.73987	0.60246	0.188
Mof_C 	C 	0.58602	0.77572	0.54696	-0.23
Mof_C 	C 	0.56325	0.77125	0.5229	0.142
Mof_C 	C 	0.52133	0.72873	0.55794	-0.28
Mof_C 	C 	0.505	0.6945	0.6116	0.274
Mof_C 	C 	0.57717	0.81187	0.46586	-0.001
Mof_C 	C 	0.62744	0.83354	0.42092	-0.086
Mof_C 	C 	0.64045	0.87215	0.3675	0.027
Mof_C 	C 	0.60384	0.88784	0.35932	-0.101
Mof_C 	C 	0.55504	0.86464	0.40352	0.027
Mof_C 	C 	0.54239	0.82708	0.45544	-0.089
Mof_C 	C 	0.69573	0.89913	0.32074	0.054
Mof_C 	C 	0.72924	0.87084	0.31552	-0.123
Mof_C 	C 	0.77801	0.89221	0.27438	0.055
Mof_C 	C 	0.79638	0.94338	0.23524	-0.127
Mof_C 	C 	0.76268	0.97048	0.24044	0.052
Mof_C 	C 	0.7147	0.9502	0.282	-0.127
Mof_C 	C 	0.85125	0.96815	0.1903	0.391
Mof_C 	C 	0.51578	0.88028	0.39444	0.07
Mof_C 	C 	0.52151	0.89741	0.34458	-0.13
Mof_C 	C 	0.48303	0.91203	0.33674	0.063
Mof_C 	C 	0.43959	0.90829	0.37982	-0.154
Mof_C 	C 	0.43475	0.89145	0.4291	0.078
Mof_C 	C 	0.4724	0.8775	0.4358	-0.144
Mof_C 	C 	0.4553	0.6502	0.8704	0.408
Mof_C 	C 	0.36106	0.48026	0.83948	0.54
Mof_C 	C 	0.33211	0.45681	0.82738	-0.346
Mof_C 	C 	0.3356	0.4125	0.8336	0.236
Mof_C 	C 	0.31238	0.39348	0.81904	-0.276
Mof_C 	C 	0.28646	0.41716	0.79688	0.174
Mof_C 	C 	0.28399	0.46149	0.79102	-0.297
Mof_C 	C 	0.30446	0.48096	0.80748	0.261
Mof_C 	C 	0.26774	0.39912	0.77232	-0.019
Mof_C 	C 	0.24669	0.35109	0.79542	-0.069
Mof_C 	C 	0.23127	0.33617	0.77106	0.011
Mof_C 	C 	0.23823	0.37323	0.72034	-0.08
Mof_C 	C 	0.26186	0.42384	0.69458	0.007
Mof_C 	C 	0.27521	0.43481	0.72218	-0.07
Mof_C 	C 	0.20768	0.28228	0.79684	0.069
Mof_C 	C 	0.22404	0.24564	0.82052	-0.144
Mof_C 	C 	0.20163	0.19673	0.84354	0.081
Mof_C 	C 	0.1641	0.18287	0.8414	-0.149
Mof_C 	C 	0.14729	0.21949	0.81562	0.076
Mof_C 	C 	0.16729	0.26779	0.79322	-0.136
Mof_C 	C 	0.99465	0.00625	0.1345	0.437
Mof_C 	C 	0.27072	0.46265	0.64016	0.081
Mof_C 	C 	0.2397	0.4615	0.6234	-0.156
Mof_C 	C 	0.24743	0.49953	0.57514	0.092
Mof_C 	C 	0.28841	0.54021	0.53918	-0.162
Mof_C 	C 	0.32143	0.54463	0.55254	0.072
Mof_C 	C 	0.31214	0.50424	0.60392	-0.145
Mof_C 	C 	0.33229	0.46819	0.98362	0.436
Mof_C 	C 	0.41557	0.75237	0.63486	0.539
Mof_C 	C 	0.44738	0.77697	0.64232	-0.298
Mof_C 	C 	0.48353	0.82343	0.59674	0.159
Mof_C 	C 	0.51604	0.84424	0.60212	-0.197
Mof_C 	C 	0.51504	0.81904	0.65172	0.103
Mof_C 	C 	0.47741	0.77447	0.69598	-0.214
Mof_C 	C 	0.44267	0.7532	0.69206	0.197
Mof_C 	C 	0.55488	0.83668	0.65524	0.027
Mof_C 	C 	0.57616	0.88636	0.62948	-0.105
Mof_C 	C 	0.6144	0.9015	0.6318	0.04
Mof_C 	C 	0.63013	0.86763	0.66074	-0.114
Mof_C 	C 	0.60833	0.81693	0.68634	0.042
Mof_C 	C 	0.57106	0.80326	0.68328	-0.111
Mof_C 	C 	0.64147	0.95671	0.5987	0.06
Mof_C 	C 	0.65933	0.98791	0.5424	-0.135
Mof_C 	C 	0.68489	0.03807	0.51234	0.071
Mof_C 	C 	0.69259	0.05703	0.53858	-0.149
Mof_C 	C 	0.67474	0.02583	0.59486	0.071
Mof_C 	C 	0.64918	0.97567	0.62492	-0.135
Mof_C 	C 	0.9779	0.1398	0.994	0.441
Mof_C 	C 	0.62694	0.77764	0.71572	0.054
Mof_C 	C 	0.64541	0.78371	0.74358	-0.124
Mof_C 	C 	0.66289	0.74549	0.77042	0.069
Mof_C 	C 	0.66029	0.70369	0.77042	-0.164
Mof_C 	C 	0.64188	0.69678	0.74464	0.072
Mof_C 	C 	0.62377	0.73357	0.71826	-0.128
Mof_C 	C 	0.52426	0.53846	0.79648	0.428
Mof_C 	C 	0.79731	0.64011	0.69618	0.57
Mof_C 	C 	0.83709	0.66559	0.63602	-0.351
Mof_C 	C 	0.82767	0.65767	0.60246	0.183
Mof_C 	C 	0.86702	0.67732	0.54696	-0.222
Mof_C 	C 	0.91385	0.70585	0.5229	0.13
Mof_C 	C 	0.92073	0.71333	0.55794	-0.271
Mof_C 	C 	0.8834	0.6939	0.6116	0.268
Mof_C 	C 	0.95697	0.72227	0.46586	0.029
Mof_C 	C 	0.95164	0.74554	0.42092	-0.097
Mof_C 	C 	0.99205	0.76035	0.3675	0.033
Mof_C 	C 	0.03684	0.75284	0.35932	-0.127
Mof_C 	C 	0.04144	0.73184	0.40352	0.048
Mof_C 	C 	0.00217	0.71748	0.45544	-0.127
Mof_C 	C 	0.98353	0.78013	0.32074	0.12
Mof_C 	C 	0.95524	0.81364	0.31552	-0.182
Mof_C 	C 	0.94761	0.83341	0.27438	0.12
Mof_C 	C 	0.96838	0.82138	0.23524	-0.192
Mof_C 	C 	0.99688	0.78908	0.24044	0.188
Mof_C 	C 	0.0033	0.7678	0.282	-0.252
Mof_C 	C 	0.95845	0.84155	0.1903	0.422
Mof_C 	C 	0.08978	0.72528	0.39444	0.055
Mof_C 	C 	0.13391	0.75801	0.34458	-0.12
Mof_C 	C 	0.18023	0.75123	0.33674	0.056
Mof_C 	C 	0.18059	0.71189	0.37982	-0.148
Mof_C 	C 	0.13615	0.67945	0.4291	0.069
Mof_C 	C 	0.0918	0.6867	0.4358	-0.133
Mof_C 	C 	0.6743	0.4794	0.8704	0.408
Mof_C 	C 	0.79946	0.68026	0.83948	0.537
Mof_C 	C 	0.84051	0.71581	0.82738	-0.336
Mof_C 	C 	0.8308	0.7539	0.8336	0.223
Mof_C 	C 	0.86858	0.78748	0.81904	-0.259
Mof_C 	C 	0.91666	0.78596	0.79688	0.155
Mof_C 	C 	0.92499	0.74749	0.79102	-0.28
Mof_C 	C 	0.88806	0.71156	0.80748	0.25
Mof_C 	C 	0.95994	0.82856	0.77232	0.024
Mof_C 	C 	0.95789	0.85349	0.79542	-0.101
Mof_C 	C 	0.99767	0.89277	0.77106	0.048
Mof_C 	C 	0.04143	0.90643	0.72034	-0.122
Mof_C 	C 	0.04356	0.88158	0.69458	0.038
Mof_C 	C 	0.00261	0.84301	0.72218	-0.118
Mof_C 	C 	0.99548	0.92088	0.79684	0.068
Mof_C 	C 	0.95544	0.93384	0.82052	-0.137
Mof_C 	C 	0.95483	0.95973	0.84354	0.076
Mof_C 	C 	0.9945	0.97573	0.8414	-0.138
Mof_C 	C 	0.03709	0.96489	0.81562	0.059
Mof_C 	C 	0.03949	0.93899	0.79322	-0.14
Mof_C 	C 	0.87085	0.85925	0.1345	0.414
Mof_C 	C 	0.08912	0.89719	0.64016	0.061
Mof_C 	C 	0.1369	0.9151	0.6234	-0.14
Mof_C 	C 	0.17743	0.92533	0.57514	0.079
Mof_C 	C 	0.17241	0.92061	0.53918	-0.154
Mof_C 	C 	0.12603	0.90283	0.55254	0.061
Mof_C 	C 	0.08394	0.89184	0.60392	-0.131
Mof_C 	C 	0.68409	0.54819	0.98362	0.436
Mof_C 	C 	0.94957	0.61277	0.63486	0.537
Mof_C 	C 	0.9103	0.58071	0.64232	-0.295
Mof_C 	C 	0.91973	0.57983	0.59674	0.157
Mof_C 	C 	0.88184	0.55364	0.60212	-0.193
Mof_C 	C 	0.83324	0.52924	0.65172	0.101
Mof_C 	C 	0.82661	0.52955	0.69598	-0.211
Mof_C 	C 	0.86527	0.55474	0.69206	0.195
Mof_C 	C 	0.78988	0.50808	0.65524	0.031
Mof_C 	C 	0.79436	0.48416	0.62948	-0.11
Mof_C 	C 	0.7538	0.4667	0.6318	0.047
Mof_C 	C 	0.70913	0.47163	0.66074	-0.118
Mof_C 	C 	0.70533	0.49673	0.68634	0.046
Mof_C 	C 	0.74566	0.51346	0.68328	-0.115
Mof_C 	C 	0.75983	0.44459	0.5987	0.049
Mof_C 	C 	0.79827	0.46969	0.5424	-0.118
Mof_C 	C 	0.80277	0.44959	0.51234	0.055
Mof_C 	C 	0.76883	0.40439	0.53858	-0.138
Mof_C 	C 	0.7304	0.37931	0.59486	0.054
Mof_C 	C 	0.7259	0.39941	0.62492	-0.118
Mof_C 	C 	0.0281	0.8662	0.994	0.429
Mof_C 	C 	0.65734	0.50664	0.71572	0.053
Mof_C 	C 	0.61101	0.47271	0.74358	-0.123
Mof_C 	C 	0.56669	0.48409	0.77042	0.069
Mof_C 	C 	0.56929	0.52589	0.77042	-0.164
Mof_C 	C 	0.61348	0.55858	0.74464	0.071
Mof_C 	C 	0.65797	0.54817	0.71826	-0.127
Mof_C 	C 	0.67926	0.66506	0.79648	0.428
Mof_C 	C 	0.39011	0.75651	0.19618	0.569
Mof_C 	C 	0.41559	0.77689	0.13602	-0.351
Mof_C 	C 	0.40767	0.81987	0.10246	0.181
Mof_C 	C 	0.42732	0.83602	0.04696	-0.221
Mof_C 	C 	0.45585	0.81325	0.0229	0.127
Mof_C 	C 	0.46333	0.77133	0.05794	-0.271
Mof_C 	C 	0.4439	0.755	0.1116	0.266
Mof_C 	C 	0.47227	0.82717	0.96586	0.012
Mof_C 	C 	0.49554	0.87744	0.92092	-0.089
Mof_C 	C 	0.51035	0.89045	0.8675	0.024
Mof_C 	C 	0.50284	0.85384	0.85932	-0.101
Mof_C 	C 	0.48184	0.80504	0.90352	0.03
Mof_C 	C 	0.46748	0.79239	0.95544	-0.095
Mof_C 	C 	0.53013	0.94573	0.82074	0.071
Mof_C 	C 	0.56364	0.97924	0.81552	-0.148
Mof_C 	C 	0.58341	0.02801	0.77438	0.082
Mof_C 	C 	0.57138	0.04638	0.73524	-0.148
Mof_C 	C 	0.53908	0.01268	0.74044	0.088
Mof_C 	C 	0.5178	0.9647	0.782	-0.157
Mof_C 	C 	0.59155	0.10125	0.6903	0.404
Mof_C 	C 	0.47528	0.76578	0.89444	0.068
Mof_C 	C 	0.50801	0.77151	0.84458	-0.128
Mof_C 	C 	0.50123	0.73303	0.83674	0.062
Mof_C 	C 	0.46189	0.68959	0.87982	-0.152
Mof_C 	C 	0.42945	0.68475	0.9291	0.077
Mof_C 	C 	0.4367	0.7224	0.9358	-0.142
Mof_C 	C 	0.2294	0.7053	0.3704	0.407
Mof_C 	C 	0.43026	0.61106	0.33948	0.54
Mof_C 	C 	0.46581	0.58211	0.32738	-0.346
Mof_C 	C 	0.5039	0.5856	0.3336	0.236
Mof_C 	C 	0.53748	0.56238	0.31904	-0.277
Mof_C 	C 	0.53596	0.53646	0.29688	0.175
Mof_C 	C 	0.49749	0.53399	0.29102	-0.298
Mof_C 	C 	0.46156	0.55446	0.30748	0.262
Mof_C 	C 	0.57856	0.51774	0.27232	-0.021
Mof_C 	C 	0.60349	0.49669	0.29542	-0.067
Mof_C 	C 	0.64277	0.48127	0.27106	0.01
Mof_C 	C 	0.65643	0.48823	0.22034	-0.078
Mof_C 	C 	0.63158	0.51186	0.19458	0.004
Mof_C 	C 	0.59301	0.52521	0.22218	-0.067
Mof_C 	C 	0.67088	0.45768	0.29684	0.07
Mof_C 	C 	0.68384	0.47404	0.32052	-0.145
Mof_C 	C 	0.70973	0.45163	0.34354	0.081
Mof_C 	C 	0.72573	0.4141	0.3414	-0.15
Mof_C 	C 	0.71489	0.39729	0.31562	0.077
Mof_C 	C 	0.68899	0.41729	0.29322	-0.136
Mof_C 	C 	0.60925	0.24465	0.6345	0.414
Mof_C 	C 	0.64719	0.52072	0.14016	0.087
Mof_C 	C 	0.6651	0.4897	0.1234	-0.164
Mof_C 	C 	0.67533	0.49743	0.07514	0.102
Mof_C 	C 	0.67061	0.53841	0.03918	-0.175
Mof_C 	C 	0.65283	0.57143	0.05254	0.081
Mof_C 	C 	0.64184	0.56214	0.10392	-0.152
Mof_C 	C 	0.29819	0.58229	0.48362	0.427
Mof_C 	C 	0.36277	0.66557	0.13486	0.539
Mof_C 	C 	0.33071	0.69738	0.14232	-0.298
Mof_C 	C 	0.32983	0.73353	0.09674	0.158
Mof_C 	C 	0.30364	0.76604	0.10212	-0.196
Mof_C 	C 	0.27924	0.76504	0.15172	0.1
Mof_C 	C 	0.27955	0.72741	0.19598	-0.213
Mof_C 	C 	0.30474	0.69267	0.19206	0.196
Mof_C 	C 	0.25808	0.80488	0.15524	0.031
Mof_C 	C 	0.23416	0.82616	0.12948	-0.112
Mof_C 	C 	0.2167	0.8644	0.1318	0.05
Mof_C 	C 	0.22163	0.88013	0.16074	-0.121
Mof_C 	C 	0.24673	0.85833	0.18634	0.046
Mof_C 	C 	0.26346	0.82106	0.18328	-0.116
Mof_C 	C 	0.19459	0.89147	0.0987	0.038
Mof_C 	C 	0.21969	0.90933	0.0424	-0.103
Mof_C 	C 	0.19959	0.93489	0.01234	0.028
Mof_C 	C 	0.15439	0.94259	0.03858	-0.125
Mof_C 	C 	0.12931	0.92474	0.09486	0.042
Mof_C 	C 	0.14941	0.89918	0.12492	-0.109
Mof_C 	C 	0.6162	0.2279	0.494	0.413
Mof_C 	C 	0.25664	0.87694	0.21572	0.052
Mof_C 	C 	0.22271	0.89541	0.24358	-0.123
Mof_C 	C 	0.23409	0.91289	0.27042	0.068
Mof_C 	C 	0.27589	0.91029	0.27042	-0.164
Mof_C 	C 	0.30858	0.89188	0.24464	0.071
Mof_C 	C 	0.29817	0.87377	0.21826	-0.127
Mof_C 	C 	0.41506	0.77426	0.29648	0.427
Mof_C 	C 	0.41371	0.04731	0.19618	0.569
Mof_C 	C 	0.44839	0.08709	0.13602	-0.349
Mof_C 	C 	0.48987	0.07767	0.10246	0.18
Mof_C 	C 	0.52572	0.11702	0.04696	-0.219
Mof_C 	C 	0.52125	0.16385	0.0229	0.125
Mof_C 	C 	0.47873	0.17073	0.05794	-0.268
Mof_C 	C 	0.4445	0.1334	0.1116	0.264
Mof_C 	C 	0.56187	0.20697	0.96586	0.016
Mof_C 	C 	0.58354	0.20164	0.92092	-0.094
Mof_C 	C 	0.62215	0.24205	0.8675	0.031
Mof_C 	C 	0.63784	0.28684	0.85932	-0.106
Mof_C 	C 	0.61464	0.29144	0.90352	0.034
Mof_C 	C 	0.57708	0.25217	0.95544	-0.099
Mof_C 	C 	0.64913	0.23353	0.82074	0.058
Mof_C 	C 	0.62084	0.20524	0.81552	-0.128
Mof_C 	C 	0.64221	0.19761	0.77438	0.062
Mof_C 	C 	0.69338	0.21838	0.73524	-0.134
Mof_C 	C 	0.72048	0.24688	0.74044	0.067
Mof_C 	C 	0.7002	0.2533	0.782	-0.135
Mof_C 	C 	0.71815	0.20845	0.6903	0.399
Mof_C 	C 	0.63028	0.33978	0.89444	0.066
Mof_C 	C 	0.64741	0.38391	0.84458	-0.127
Mof_C 	C 	0.66203	0.43023	0.83674	0.061
Mof_C 	C 	0.65829	0.43059	0.87982	-0.151
Mof_C 	C 	0.64145	0.38615	0.9291	0.076
Mof_C 	C 	0.6275	0.3418	0.9358	-0.14
Mof_C 	C 	0.4002	0.9243	0.3704	0.409
Mof_C 	C 	0.23026	0.04946	0.33948	0.539
Mof_C 	C 	0.20681	0.09051	0.32738	-0.343
Mof_C 	C 	0.1625	0.0808	0.3336	0.232
Mof_C 	C 	0.14348	0.11858	0.31904	-0.272
Mof_C 	C 	0.16716	0.16666	0.29688	0.169
Mof_C 	C 	0.21149	0.17499	0.29102	-0.293
Mof_C 	C 	0.23096	0.13806	0.30748	0.258
Mof_C 	C 	0.14912	0.20994	0.27232	-0.012
Mof_C 	C 	0.10109	0.20789	0.29542	-0.081
Mof_C 	C 	0.08617	0.24767	0.27106	0.029
Mof_C 	C 	0.12323	0.29143	0.22034	-0.091
Mof_C 	C 	0.17384	0.29356	0.19458	0.012
Mof_C 	C 	0.18481	0.25261	0.22218	-0.076
Mof_C 	C 	0.03228	0.24548	0.29684	0.028
Mof_C 	C 	0.99564	0.20544	0.32052	-0.067
Mof_C 	C 	0.94673	0.20483	0.34354	0.04
Mof_C 	C 	0.93287	0.2445	0.3414	-0.132
Mof_C 	C 	0.96949	0.28709	0.31562	0.08
Mof_C 	C 	0.01779	0.28949	0.29322	-0.136
Mof_C 	C 	0.75625	0.12085	0.6345	0.412
Mof_C 	C 	0.21265	0.33912	0.14016	0.082
Mof_C 	C 	0.2115	0.3869	0.1234	-0.161
Mof_C 	C 	0.24953	0.42743	0.07514	0.099
Mof_C 	C 	0.29021	0.42241	0.03918	-0.174
Mof_C 	C 	0.29463	0.37603	0.05254	0.078
Mof_C 	C 	0.25424	0.33394	0.10392	-0.149
Mof_C 	C 	0.21819	0.93409	0.48362	0.424
Mof_C 	C 	0.50237	0.19957	0.13486	0.538
Mof_C 	C 	0.52697	0.1603	0.14232	-0.297
Mof_C 	C 	0.57343	0.16973	0.09674	0.156
Mof_C 	C 	0.59424	0.13184	0.10212	-0.192
Mof_C 	C 	0.56904	0.08324	0.15172	0.096
Mof_C 	C 	0.52447	0.07661	0.19598	-0.209
Mof_C 	C 	0.5032	0.11527	0.19206	0.194
Mof_C 	C 	0.58668	0.03988	0.15524	0.044
Mof_C 	C 	0.63636	0.04436	0.12948	-0.122
Mof_C 	C 	0.6515	0.0038	0.1318	0.061
Mof_C 	C 	0.61763	0.95913	0.16074	-0.134
Mof_C 	C 	0.56693	0.95533	0.18634	0.056
Mof_C 	C 	0.55326	0.99566	0.18328	-0.13
Mof_C 	C 	0.70671	0.00983	0.0987	0.038
Mof_C 	C 	0.73791	0.04827	0.0424	-0.099
Mof_C 	C 	0.78807	0.05277	0.01234	0.024
Mof_C 	C 	0.80703	0.01883	0.03858	-0.119
Mof_C 	C 	0.77583	0.9804	0.09486	0.037
Mof_C 	C 	0.72567	0.9759	0.12492	-0.108
Mof_C 	C 	0.8898	0.2781	0.494	0.428
Mof_C 	C 	0.52764	0.90734	0.21572	0.047
Mof_C 	C 	0.53371	0.86101	0.24358	-0.12
Mof_C 	C 	0.49549	0.81669	0.27042	0.066
Mof_C 	C 	0.45369	0.81929	0.27042	-0.162
Mof_C 	C 	0.44678	0.86348	0.24464	0.068
Mof_C 	C 	0.48357	0.90797	0.21826	-0.123
Mof_C 	C 	0.28846	0.92926	0.29648	0.428
Mof_O 	O 	0.94384	0.62025	0.77466	-0.875
Mof_O 	O 	0.99364	0.5774	0.78574	-0.503
Mof_O 	O 	0.81924	0.30908	0.30814	-0.457
Mof_O 	O 	0.77038	0.23556	0.34544	-0.459
Mof_O 	O 	0.05557	0.58998	0.67786	-0.509
Mof_O 	O 	0.0836	0.64063	0.58778	-0.506
Mof_O 	O 	0.9405	0.7284	0.66776	-0.81
Mof_O 	O 	0.99294	0.79241	0.64156	-0.514
Mof_O 	O 	0.84739	0.20691	0.38282	-0.489
Mof_O 	O 	0.87121	0.28145	0.36462	-0.473
Mof_O 	O 	0.05313	0.74108	0.52548	-0.533
Mof_O 	O 	0.07021	0.7895	0.54864	-0.509
Mof_O 	O 	0.81004	0.53999	0.82446	-0.823
Mof_O 	O 	0.99064	0.63587	0.58886	-0.514
Mof_O 	O 	0.73873	0.13599	0.45408	-0.48
Mof_O 	O 	0.73039	0.12533	0.52902	-0.5
Mof_O 	O 	0.05343	0.74298	0.6807	-0.53
Mof_O 	O 	0.07602	0.67405	0.70286	-0.509
Mof_O 	O 	0.01745	0.68208	0.6512	-0.876
Mof_O 	O 	0.75523	0.24928	0.43538	-0.914
Mof_O 	O 	0.2815	0.60509	0.77466	-0.878
Mof_O 	O 	0.22062	0.63686	0.78574	-0.512
Mof_O 	O 	0.87262	0.38278	0.30814	-0.462
Mof_O 	O 	0.88418	0.419	0.34544	-0.462
Mof_O 	O 	0.26657	0.73216	0.67786	-0.506
Mof_O 	O 	0.32862	0.77159	0.58778	-0.504
Mof_O 	O 	0.39174	0.60384	0.66776	-0.813
Mof_O 	O 	0.3655	0.56603	0.64156	-0.523
Mof_O 	O 	0.76979	0.41027	0.38282	-0.491
Mof_O 	O 	0.76417	0.35393	0.36462	-0.476
Mof_O 	O 	0.42139	0.73344	0.52548	-0.53
Mof_O 	O 	0.38115	0.66186	0.54864	-0.507
Mof_O 	O 	0.3655	0.63555	0.82446	-0.823
Mof_O 	O 	0.4205	0.77527	0.58886	-0.522
Mof_O 	O 	0.80719	0.40993	0.45408	-0.479
Mof_O 	O 	0.74059	0.34565	0.52902	-0.499
Mof_O 	O 	0.26587	0.57632	0.6807	-0.526
Mof_O 	O 	0.22112	0.62309	0.70286	-0.506
Mof_O 	O 	0.33135	0.66672	0.6512	-0.858
Mof_O 	O 	0.80939	0.31534	0.43538	-0.914
Mof_O 	O 	0.37025	0.5315	0.27466	-0.877
Mof_O 	O 	0.3274	0.47062	0.28574	-0.511
Mof_O 	O 	0.05908	0.12262	0.80814	-0.453
Mof_O 	O 	0.98556	0.13418	0.84544	-0.442
Mof_O 	O 	0.33998	0.51657	0.17786	-0.506
Mof_O 	O 	0.39063	0.57862	0.08778	-0.506
Mof_O 	O 	0.4784	0.64174	0.16776	-0.813
Mof_O 	O 	0.54241	0.6155	0.14156	-0.523
Mof_O 	O 	0.95691	0.01979	0.88282	-0.49
Mof_O 	O 	0.03145	0.01417	0.86462	-0.488
Mof_O 	O 	0.49108	0.67139	0.02548	-0.53
Mof_O 	O 	0.5395	0.63115	0.04864	-0.507
Mof_O 	O 	0.28999	0.6155	0.32446	-0.824
Mof_O 	O 	0.38587	0.6705	0.08886	-0.524
Mof_O 	O 	0.88599	0.05719	0.95408	-0.47
Mof_O 	O 	0.87533	0.99059	0.02902	-0.496
Mof_O 	O 	0.49298	0.51587	0.1807	-0.527
Mof_O 	O 	0.42405	0.47112	0.20286	-0.507
Mof_O 	O 	0.43208	0.58135	0.1512	-0.859
Mof_O 	O 	0.99928	0.05939	0.93538	-0.888
Mof_O 	O 	0.35509	0.19384	0.27466	-0.877
Mof_O 	O 	0.38686	0.24364	0.28574	-0.511
Mof_O 	O 	0.13278	0.06924	0.80814	-0.46
Mof_O 	O 	0.169	0.02038	0.84544	-0.459
Mof_O 	O 	0.48216	0.30557	0.17786	-0.506
Mof_O 	O 	0.52159	0.3336	0.08778	-0.506
Mof_O 	O 	0.35384	0.1905	0.16776	-0.813
Mof_O 	O 	0.31603	0.24294	0.14156	-0.523
Mof_O 	O 	0.16027	0.09739	0.88282	-0.49
Mof_O 	O 	0.10393	0.12121	0.86462	-0.476
Mof_O 	O 	0.48344	0.30313	0.02548	-0.531
Mof_O 	O 	0.41186	0.32021	0.04864	-0.507
Mof_O 	O 	0.38555	0.06004	0.32446	-0.823
Mof_O 	O 	0.52527	0.24064	0.08886	-0.524
Mof_O 	O 	0.15993	0.98873	0.95408	-0.473
Mof_O 	O 	0.09565	0.98039	0.02902	-0.495
Mof_O 	O 	0.32632	0.30343	0.1807	-0.527
Mof_O 	O 	0.37309	0.32602	0.20286	-0.508
Mof_O 	O 	0.41672	0.26745	0.1512	-0.859
Mof_O 	O 	0.06534	0.00523	0.93538	-0.909
Mof_O 	O 	0.4685	0.62975	0.72534	-0.878
Mof_O 	O 	0.52938	0.6726	0.71426	-0.511
Mof_O 	O 	0.87738	0.94092	0.19186	-0.456
Mof_O 	O 	0.86582	0.01444	0.15456	-0.454
Mof_O 	O 	0.48343	0.66002	0.82214	-0.505
Mof_O 	O 	0.42138	0.60937	0.91222	-0.503
Mof_O 	O 	0.35826	0.5216	0.83224	-0.813
Mof_O 	O 	0.3845	0.45759	0.85844	-0.522
Mof_O 	O 	0.98021	0.04309	0.11718	-0.492
Mof_O 	O 	0.98583	0.96855	0.13538	-0.478
Mof_O 	O 	0.32861	0.50892	0.97452	-0.529
Mof_O 	O 	0.36885	0.4605	0.95136	-0.507
Mof_O 	O 	0.3845	0.71001	0.67554	-0.824
Mof_O 	O 	0.3295	0.61413	0.91114	-0.52
Mof_O 	O 	0.94281	0.11401	0.04592	-0.489
Mof_O 	O 	0.00941	0.12467	0.97098	-0.517
Mof_O 	O 	0.48413	0.50702	0.8193	-0.526
Mof_O 	O 	0.52888	0.57595	0.79714	-0.507
Mof_O 	O 	0.41865	0.56792	0.8488	-0.858
Mof_O 	O 	0.94061	0.00072	0.06462	-0.906
Mof_O 	O 	0.80616	0.64491	0.72534	-0.877
Mof_O 	O 	0.75636	0.61314	0.71426	-0.511
Mof_O 	O 	0.93076	0.86722	0.19186	-0.462
Mof_O 	O 	0.97962	0.831	0.15456	-0.459
Mof_O 	O 	0.69443	0.51784	0.82214	-0.505
Mof_O 	O 	0.6664	0.47841	0.91222	-0.503
Mof_O 	O 	0.8095	0.64616	0.83224	-0.812
Mof_O 	O 	0.75706	0.68397	0.85844	-0.521
Mof_O 	O 	0.90261	0.83973	0.11718	-0.489
Mof_O 	O 	0.87879	0.89607	0.13538	-0.476
Mof_O 	O 	0.69687	0.51656	0.97452	-0.53
Mof_O 	O 	0.67979	0.58814	0.95136	-0.507
Mof_O 	O 	0.93996	0.61445	0.67554	-0.821
Mof_O 	O 	0.75936	0.47473	0.91114	-0.52
Mof_O 	O 	0.01127	0.84007	0.04592	-0.495
Mof_O 	O 	0.01961	0.90435	0.97098	-0.506
Mof_O 	O 	0.69657	0.67368	0.8193	-0.526
Mof_O 	O 	0.67398	0.62691	0.79714	-0.507
Mof_O 	O 	0.73255	0.58328	0.8488	-0.858
Mof_O 	O 	0.99477	0.93466	0.06462	-0.896
Mof_O 	O 	0.39491	0.7185	0.22534	-0.877
Mof_O 	O 	0.36314	0.77938	0.21426	-0.511
Mof_O 	O 	0.61722	0.12738	0.69186	-0.459
Mof_O 	O 	0.581	0.11582	0.65456	-0.46
Mof_O 	O 	0.26784	0.73343	0.32214	-0.505
Mof_O 	O 	0.22841	0.67138	0.41222	-0.504
Mof_O 	O 	0.39616	0.60826	0.33224	-0.813
Mof_O 	O 	0.43397	0.6345	0.35844	-0.523
Mof_O 	O 	0.58973	0.23021	0.61718	-0.491
Mof_O 	O 	0.64607	0.23583	0.63538	-0.476
Mof_O 	O 	0.26656	0.57861	0.47452	-0.53
Mof_O 	O 	0.33814	0.61885	0.45136	-0.507
Mof_O 	O 	0.36445	0.6345	0.17554	-0.824
Mof_O 	O 	0.22473	0.5795	0.41114	-0.523
Mof_O 	O 	0.59007	0.19281	0.54592	-0.48
Mof_O 	O 	0.65435	0.25941	0.47098	-0.499
Mof_O 	O 	0.42368	0.73413	0.3193	-0.526
Mof_O 	O 	0.37691	0.77888	0.29714	-0.507
Mof_O 	O 	0.33328	0.66865	0.3488	-0.858
Mof_O 	O 	0.68466	0.19061	0.56462	-0.914
Mof_O 	O 	0.37975	0.05616	0.22534	-0.876
Mof_O 	O 	0.4226	0.00636	0.21426	-0.508
Mof_O 	O 	0.69092	0.18076	0.69186	-0.457
Mof_O 	O 	0.76444	0.22962	0.65456	-0.458
Mof_O 	O 	0.41002	0.94443	0.32214	-0.507
Mof_O 	O 	0.35937	0.9164	0.41222	-0.505
Mof_O 	O 	0.2716	0.0595	0.33224	-0.812
Mof_O 	O 	0.20759	0.00706	0.35844	-0.52
Mof_O 	O 	0.79309	0.15261	0.61718	-0.49
Mof_O 	O 	0.71855	0.12879	0.63538	-0.475
Mof_O 	O 	0.25892	0.94687	0.47452	-0.53
Mof_O 	O 	0.2105	0.92979	0.45136	-0.507
Mof_O 	O 	0.46001	0.18996	0.17554	-0.823
Mof_O 	O 	0.36413	0.00936	0.41114	-0.52
Mof_O 	O 	0.86401	0.26127	0.54592	-0.482
Mof_O 	O 	0.87467	0.26961	0.47098	-0.503
Mof_O 	O 	0.25702	0.94657	0.3193	-0.527
Mof_O 	O 	0.32595	0.92398	0.29714	-0.508
Mof_O 	O 	0.31792	0.98255	0.3488	-0.863
Mof_O 	O 	0.75072	0.24477	0.56462	-0.914
_end
