data_functionalizedCrystal
_audit_creation_method	'EQeq! by Chris Wilmer'
_symmetry_space_group_name_H-M	'P1'
_symmetry_Int_Tables_number	1
_symmetry_cell_setting	triclinic
loop_
_symmetry_equiv_pos_as_xyz
  x,y,z
_cell_length_a	26.3797
_cell_length_b	14.4378
_cell_length_c	25.4231
_cell_angle_alpha	90
_cell_angle_beta	113.631
_cell_angle_gamma	90
loop_
_atom_site_label
_atom_site_type_symbol
_atom_site_fract_x
_atom_site_fract_y
_atom_site_fract_z
_atom_site_charge
Mof_Sm	Sm	0.21376	0.635	0.31006	2.451
Mof_Sm	Sm	0.16496	0.41439	0.19794	2.5
Mof_C 	C 	0.3069	0.3563	0.2258	0.586
Mof_C 	C 	0.3428	0.4394	0.2403	-0.356
Mof_C 	C 	0.3906	0.4439	0.2305	0.252
Mof_H 	H 	0.403	0.3916	0.2178	-0.052
Mof_C 	C 	0.4198	0.5244	0.2393	-0.311
Mof_H 	H 	0.4513	0.5268	0.2314	0.133
Mof_C 	C 	0.4035	0.6025	0.2595	0.228
Mof_H 	H 	0.4234	0.6573	0.2648	-0.041
Mof_C 	C 	0.3567	0.5981	0.2721	-0.324
Mof_C 	C 	0.3274	0.5159	0.2622	0.296
Mof_H 	H 	0.2963	0.5125	0.2708	-0.115
Mof_C 	C 	0.3365	0.6816	0.2948	0.582
Mof_C 	C 	0.2511	0.4463	0.3523	0.484
Mof_C 	C 	0.2745	0.3551	0.3797	-0.253
Mof_C 	C 	0.2991	0.3475	0.4387	0.157
Mof_H 	H 	0.2999	0.3975	0.462	-0.012
Mof_C 	C 	0.3229	0.263	0.4625	-0.229
Mof_H 	H 	0.3382	0.2567	0.5022	0.111
Mof_C 	C 	0.3246	0.1885	0.4294	0.171
Mof_H 	H 	0.3417	0.1336	0.4465	-0.017
Mof_C 	C 	0.3002	0.1971	0.3701	-0.278
Mof_C 	C 	0.2752	0.2804	0.3455	0.206
Mof_H 	H 	0.2589	0.2861	0.3057	-0.058
Mof_C 	C 	0.2999	0.1173	0.3328	0.569
Mof_C 	C 	0.1532	0.6523	0.4034	0.405
Mof_C 	C 	0.1217	0.601	0.4322	-0.14
Mof_C 	C 	0.0833	0.5303	0.4044	0.061
Mof_H 	H 	0.0769	0.5136	0.367	0.019
Mof_C 	C 	0.0553	0.4863	0.4325	-0.126
Mof_H 	H 	0.0299	0.4401	0.4138	0.084
Mof_C 	C 	0.0645	0.5096	0.4882	0.052
Mof_H 	H 	0.045	0.4795	0.5067	0.028
Mof_C 	C 	0.1023	0.5776	0.5167	-0.108
Mof_C 	C 	0.1295	0.6245	0.4873	0.061
Mof_H 	H 	0.1534	0.6728	0.5055	0.032
Mof_C 	C 	0.1159	0.6004	0.5786	0.343
Mof_C 	C 	0.0876	0.517	0.234	0.419
Mof_C 	C 	0.0428	0.5686	0.2437	-0.195
Mof_C 	C 	0.0423	0.6649	0.2447	0.135
Mof_H 	H 	0.0715	0.6974	0.2418	-0.016
Mof_O 	O 	0.328	0.2802	0.222	-0.604
Mof_O 	O 	0.2558	0.3655	0.2169	-0.623
Mof_O 	O 	0.3043	0.6684	0.3192	-0.617
Mof_O 	O 	0.3538	0.7604	0.2865	-0.597
Mof_O 	O 	0.2176	0.45	0.2995	-0.676
Mof_O 	O 	0.2652	0.5179	0.3819	-0.53
Mof_O 	O 	0.3163	0.0405	0.3545	-0.573
Mof_O 	O 	0.2822	0.1326	0.2798	-0.634
Mof_O 	O 	0.1555	0.6148	0.3586	-0.551
Mof_O 	O 	0.1757	0.7259	0.4251	-0.318
Mof_O 	O 	0.1595	0.6458	0.606	-0.473
Mof_O 	O 	0.0868	0.57	0.603	-0.464
Mof_O 	O 	0.1297	0.563	0.234	-0.626
Mof_O 	O 	0.0838	0.4324	0.225	-0.49
Mof_Sm	Sm	0.71376	0.135	0.31006	2.452
Mof_Sm	Sm	0.66496	0.91439	0.19794	2.501
Mof_C 	C 	0.8069	0.8563	0.2258	0.587
Mof_C 	C 	0.8428	0.9394	0.2403	-0.355
Mof_C 	C 	0.8906	0.9439	0.2305	0.252
Mof_H 	H 	0.903	0.8916	0.2178	-0.05
Mof_C 	C 	0.9198	0.0244	0.2393	-0.309
Mof_H 	H 	0.9513	0.0268	0.2314	0.134
Mof_C 	C 	0.9035	0.1025	0.2595	0.229
Mof_H 	H 	0.9234	0.1573	0.2648	-0.04
Mof_C 	C 	0.8567	0.0981	0.2721	-0.323
Mof_C 	C 	0.8274	0.0159	0.2622	0.298
Mof_H 	H 	0.7963	0.0125	0.2708	-0.115
Mof_C 	C 	0.8365	0.1816	0.2948	0.583
Mof_C 	C 	0.7511	0.9463	0.3523	0.485
Mof_C 	C 	0.7745	0.8551	0.3797	-0.252
Mof_C 	C 	0.7991	0.8475	0.4387	0.158
Mof_H 	H 	0.7999	0.8975	0.462	-0.011
Mof_C 	C 	0.8229	0.763	0.4625	-0.228
Mof_H 	H 	0.8382	0.7567	0.5022	0.112
Mof_C 	C 	0.8246	0.6885	0.4294	0.172
Mof_H 	H 	0.8417	0.6336	0.4465	-0.016
Mof_C 	C 	0.8002	0.6971	0.3701	-0.277
Mof_C 	C 	0.7752	0.7804	0.3455	0.206
Mof_H 	H 	0.7589	0.7861	0.3057	-0.057
Mof_C 	C 	0.7999	0.6173	0.3328	0.57
Mof_C 	C 	0.6532	0.1523	0.4034	0.406
Mof_C 	C 	0.6217	0.101	0.4322	-0.139
Mof_C 	C 	0.5833	0.0303	0.4044	0.063
Mof_H 	H 	0.5769	0.0136	0.367	0.02
Mof_C 	C 	0.5553	0.9863	0.4325	-0.127
Mof_H 	H 	0.5299	0.9401	0.4138	0.085
Mof_C 	C 	0.5645	0.0096	0.4882	0.053
Mof_H 	H 	0.545	0.9795	0.5067	0.028
Mof_C 	C 	0.6023	0.0776	0.5167	-0.108
Mof_C 	C 	0.6295	0.1245	0.4873	0.061
Mof_H 	H 	0.6534	0.1728	0.5055	0.032
Mof_C 	C 	0.6159	0.1004	0.5786	0.343
Mof_C 	C 	0.5876	0.017	0.234	0.42
Mof_C 	C 	0.5428	0.0686	0.2437	-0.196
Mof_C 	C 	0.5423	0.1649	0.2447	0.136
Mof_H 	H 	0.5715	0.1974	0.2418	-0.016
Mof_O 	O 	0.828	0.7802	0.222	-0.604
Mof_O 	O 	0.7558	0.8655	0.2169	-0.623
Mof_O 	O 	0.8043	0.1684	0.3192	-0.617
Mof_O 	O 	0.8538	0.2604	0.2865	-0.597
Mof_O 	O 	0.7176	0.95	0.2995	-0.676
Mof_O 	O 	0.7652	0.0179	0.3819	-0.53
Mof_O 	O 	0.8163	0.5405	0.3545	-0.573
Mof_O 	O 	0.7822	0.6326	0.2798	-0.634
Mof_O 	O 	0.6555	0.1148	0.3586	-0.551
Mof_O 	O 	0.6757	0.2259	0.4251	-0.318
Mof_O 	O 	0.6595	0.1458	0.606	-0.473
Mof_O 	O 	0.5868	0.07	0.603	-0.463
Mof_O 	O 	0.6297	0.063	0.234	-0.626
Mof_O 	O 	0.5838	0.9324	0.225	-0.49
Mof_Sm	Sm	0.78624	0.635	0.18994	2.451
Mof_Sm	Sm	0.83504	0.41439	0.30206	2.502
Mof_C 	C 	0.6931	0.3563	0.2742	0.587
Mof_C 	C 	0.6572	0.4394	0.2597	-0.355
Mof_C 	C 	0.6094	0.4439	0.2695	0.253
Mof_H 	H 	0.597	0.3916	0.2822	-0.051
Mof_C 	C 	0.5802	0.5244	0.2607	-0.31
Mof_H 	H 	0.5487	0.5268	0.2686	0.134
Mof_C 	C 	0.5965	0.6025	0.2405	0.229
Mof_H 	H 	0.5766	0.6573	0.2352	-0.04
Mof_C 	C 	0.6433	0.5981	0.2279	-0.323
Mof_C 	C 	0.6726	0.5159	0.2378	0.297
Mof_H 	H 	0.7037	0.5125	0.2292	-0.115
Mof_C 	C 	0.6635	0.6816	0.2052	0.583
Mof_C 	C 	0.7489	0.4463	0.1477	0.485
Mof_C 	C 	0.7255	0.3551	0.1203	-0.252
Mof_C 	C 	0.7009	0.3475	0.0613	0.157
Mof_H 	H 	0.7001	0.3975	0.038	-0.011
Mof_C 	C 	0.6771	0.263	0.0375	-0.227
Mof_H 	H 	0.6618	0.2567	0.9978	0.111
Mof_C 	C 	0.6754	0.1885	0.0706	0.171
Mof_H 	H 	0.6583	0.1336	0.0535	-0.016
Mof_C 	C 	0.6998	0.1971	0.1299	-0.277
Mof_C 	C 	0.7248	0.2804	0.1545	0.206
Mof_H 	H 	0.7411	0.2861	0.1943	-0.057
Mof_C 	C 	0.7001	0.1173	0.1672	0.57
Mof_C 	C 	0.8468	0.6523	0.0966	0.405
Mof_C 	C 	0.8783	0.601	0.0678	-0.137
Mof_C 	C 	0.9167	0.5303	0.0956	0.06
Mof_H 	H 	0.9231	0.5136	0.133	0.021
Mof_C 	C 	0.9447	0.4863	0.0675	-0.123
Mof_H 	H 	0.9701	0.4401	0.0862	0.084
Mof_C 	C 	0.9355	0.5096	0.0118	0.048
Mof_H 	H 	0.955	0.4795	0.9933	0.03
Mof_C 	C 	0.8977	0.5776	0.9833	-0.105
Mof_C 	C 	0.8705	0.6245	0.0127	0.057
Mof_H 	H 	0.8466	0.6728	0.9945	0.034
Mof_C 	C 	0.8841	0.6004	0.9214	0.342
Mof_C 	C 	0.9124	0.517	0.266	0.419
Mof_C 	C 	0.9572	0.5686	0.2563	-0.195
Mof_C 	C 	0.9577	0.6649	0.2553	0.136
Mof_H 	H 	0.9285	0.6974	0.2582	-0.016
Mof_O 	O 	0.672	0.2802	0.278	-0.604
Mof_O 	O 	0.7442	0.3655	0.2831	-0.623
Mof_O 	O 	0.6957	0.6684	0.1808	-0.617
Mof_O 	O 	0.6462	0.7604	0.2135	-0.597
Mof_O 	O 	0.7824	0.45	0.2005	-0.676
Mof_O 	O 	0.7348	0.5179	0.1181	-0.53
Mof_O 	O 	0.6837	0.0405	0.1455	-0.572
Mof_O 	O 	0.7178	0.1326	0.2202	-0.634
Mof_O 	O 	0.8445	0.6148	0.1414	-0.551
Mof_O 	O 	0.8243	0.7259	0.0749	-0.318
Mof_O 	O 	0.8405	0.6458	0.894	-0.473
Mof_O 	O 	0.9132	0.57	0.897	-0.463
Mof_O 	O 	0.8703	0.563	0.266	-0.626
Mof_O 	O 	0.9162	0.4324	0.275	-0.49
Mof_Sm	Sm	0.28624	0.135	0.18994	2.452
Mof_Sm	Sm	0.33504	0.91439	0.30206	2.501
Mof_C 	C 	0.1931	0.8563	0.2742	0.587
Mof_C 	C 	0.1572	0.9394	0.2597	-0.355
Mof_C 	C 	0.1094	0.9439	0.2695	0.252
Mof_H 	H 	0.097	0.8916	0.2822	-0.05
Mof_C 	C 	0.0802	0.0244	0.2607	-0.31
Mof_H 	H 	0.0487	0.0268	0.2686	0.134
Mof_C 	C 	0.0965	0.1025	0.2405	0.229
Mof_H 	H 	0.0766	0.1573	0.2352	-0.04
Mof_C 	C 	0.1433	0.0981	0.2279	-0.323
Mof_C 	C 	0.1726	0.0159	0.2378	0.298
Mof_H 	H 	0.2037	0.0125	0.2292	-0.115
Mof_C 	C 	0.1635	0.1816	0.2052	0.583
Mof_C 	C 	0.2489	0.9463	0.1477	0.484
Mof_C 	C 	0.2255	0.8551	0.1203	-0.252
Mof_C 	C 	0.2009	0.8475	0.0613	0.158
Mof_H 	H 	0.2001	0.8975	0.038	-0.012
Mof_C 	C 	0.1771	0.763	0.0375	-0.228
Mof_H 	H 	0.1618	0.7567	0.9978	0.112
Mof_C 	C 	0.1754	0.6885	0.0706	0.172
Mof_H 	H 	0.1583	0.6336	0.0535	-0.016
Mof_C 	C 	0.1998	0.6971	0.1299	-0.277
Mof_C 	C 	0.2248	0.7804	0.1545	0.206
Mof_H 	H 	0.2411	0.7861	0.1943	-0.057
Mof_C 	C 	0.2001	0.6173	0.1672	0.57
Mof_C 	C 	0.3468	0.1523	0.0966	0.408
Mof_C 	C 	0.3783	0.101	0.0678	-0.144
Mof_C 	C 	0.4167	0.0303	0.0956	0.069
Mof_H 	H 	0.4231	0.0136	0.133	0.018
Mof_C 	C 	0.4447	0.9863	0.0675	-0.135
Mof_H 	H 	0.4701	0.9401	0.0862	0.087
Mof_C 	C 	0.4355	0.0096	0.0118	0.061
Mof_H 	H 	0.455	0.9795	0.9933	0.026
Mof_C 	C 	0.3977	0.0776	0.9833	-0.115
Mof_C 	C 	0.3705	0.1245	0.0127	0.068
Mof_H 	H 	0.3466	0.1728	0.9945	0.029
Mof_C 	C 	0.3841	0.1004	0.9214	0.345
Mof_C 	C 	0.4124	0.017	0.266	0.42
Mof_C 	C 	0.4572	0.0686	0.2563	-0.196
Mof_C 	C 	0.4577	0.1649	0.2553	0.136
Mof_H 	H 	0.4285	0.1974	0.2582	-0.016
Mof_O 	O 	0.172	0.7802	0.278	-0.604
Mof_O 	O 	0.2442	0.8655	0.2831	-0.623
Mof_O 	O 	0.1957	0.1684	0.1808	-0.617
Mof_O 	O 	0.1462	0.2604	0.2135	-0.598
Mof_O 	O 	0.2824	0.95	0.2005	-0.676
Mof_O 	O 	0.2348	0.0179	0.1181	-0.53
Mof_O 	O 	0.1837	0.5405	0.1455	-0.573
Mof_O 	O 	0.2178	0.6326	0.2202	-0.634
Mof_O 	O 	0.3445	0.1148	0.1414	-0.552
Mof_O 	O 	0.3243	0.2259	0.0749	-0.318
Mof_O 	O 	0.3405	0.1458	0.894	-0.474
Mof_O 	O 	0.4132	0.07	0.897	-0.464
Mof_O 	O 	0.3703	0.063	0.266	-0.626
Mof_O 	O 	0.4162	0.9324	0.275	-0.49
Mof_Sm	Sm	0.78624	0.365	0.68994	2.452
Mof_Sm	Sm	0.83504	0.58561	0.80206	2.502
Mof_C 	C 	0.6931	0.6437	0.7742	0.587
Mof_C 	C 	0.6572	0.5606	0.7597	-0.355
Mof_C 	C 	0.6094	0.5561	0.7695	0.253
Mof_H 	H 	0.597	0.6084	0.7822	-0.051
Mof_C 	C 	0.5802	0.4756	0.7607	-0.31
Mof_H 	H 	0.5487	0.4732	0.7686	0.134
Mof_C 	C 	0.5965	0.3975	0.7405	0.229
Mof_H 	H 	0.5766	0.3427	0.7352	-0.04
Mof_C 	C 	0.6433	0.4019	0.7279	-0.323
Mof_C 	C 	0.6726	0.4841	0.7378	0.297
Mof_H 	H 	0.7037	0.4875	0.7292	-0.115
Mof_C 	C 	0.6635	0.3184	0.7052	0.583
Mof_C 	C 	0.7489	0.5537	0.6477	0.485
Mof_C 	C 	0.7255	0.6449	0.6203	-0.252
Mof_C 	C 	0.7009	0.6525	0.5613	0.158
Mof_H 	H 	0.7001	0.6025	0.538	-0.011
Mof_C 	C 	0.6771	0.737	0.5375	-0.228
Mof_H 	H 	0.6618	0.7433	0.4978	0.112
Mof_C 	C 	0.6754	0.8115	0.5706	0.172
Mof_H 	H 	0.6583	0.8664	0.5535	-0.016
Mof_C 	C 	0.6998	0.8029	0.6299	-0.277
Mof_C 	C 	0.7248	0.7196	0.6545	0.207
Mof_H 	H 	0.7411	0.7139	0.6943	-0.057
Mof_C 	C 	0.7001	0.8827	0.6672	0.57
Mof_C 	C 	0.8468	0.3477	0.5966	0.406
Mof_C 	C 	0.8783	0.399	0.5678	-0.139
Mof_C 	C 	0.9167	0.4697	0.5956	0.062
Mof_H 	H 	0.9231	0.4864	0.633	0.02
Mof_C 	C 	0.9447	0.5137	0.5675	-0.126
Mof_H 	H 	0.9701	0.5599	0.5862	0.085
Mof_C 	C 	0.9355	0.4904	0.5118	0.052
Mof_H 	H 	0.955	0.5205	0.4933	0.029
Mof_C 	C 	0.8977	0.4224	0.4833	-0.108
Mof_C 	C 	0.8705	0.3755	0.5127	0.061
Mof_H 	H 	0.8466	0.3272	0.4945	0.032
Mof_C 	C 	0.8841	0.3996	0.4214	0.343
Mof_C 	C 	0.9124	0.483	0.766	0.419
Mof_C 	C 	0.9572	0.4314	0.7563	-0.194
Mof_C 	C 	0.9577	0.3351	0.7553	0.137
Mof_H 	H 	0.9285	0.3026	0.7582	-0.017
Mof_O 	O 	0.672	0.7198	0.778	-0.604
Mof_O 	O 	0.7442	0.6345	0.7831	-0.623
Mof_O 	O 	0.6957	0.3316	0.6808	-0.617
Mof_O 	O 	0.6462	0.2396	0.7135	-0.597
Mof_O 	O 	0.7824	0.55	0.7005	-0.676
Mof_O 	O 	0.7348	0.4821	0.6181	-0.53
Mof_O 	O 	0.6837	0.9595	0.6455	-0.573
Mof_O 	O 	0.7178	0.8674	0.7202	-0.634
Mof_O 	O 	0.8445	0.3852	0.6414	-0.551
Mof_O 	O 	0.8243	0.2741	0.5749	-0.318
Mof_O 	O 	0.8405	0.3542	0.394	-0.473
Mof_O 	O 	0.9132	0.43	0.397	-0.463
Mof_O 	O 	0.8703	0.437	0.766	-0.626
Mof_O 	O 	0.9162	0.5676	0.775	-0.49
Mof_Sm	Sm	0.28624	0.865	0.68994	2.452
Mof_Sm	Sm	0.33504	0.08561	0.80206	2.501
Mof_C 	C 	0.1931	0.1437	0.7742	0.587
Mof_C 	C 	0.1572	0.0606	0.7597	-0.355
Mof_C 	C 	0.1094	0.0561	0.7695	0.251
Mof_H 	H 	0.097	0.1084	0.7822	-0.05
Mof_C 	C 	0.0802	0.9756	0.7607	-0.309
Mof_H 	H 	0.0487	0.9732	0.7686	0.133
Mof_C 	C 	0.0965	0.8975	0.7405	0.229
Mof_H 	H 	0.0766	0.8427	0.7352	-0.04
Mof_C 	C 	0.1433	0.9019	0.7279	-0.323
Mof_C 	C 	0.1726	0.9841	0.7378	0.298
Mof_H 	H 	0.2037	0.9875	0.7292	-0.115
Mof_C 	C 	0.1635	0.8184	0.7052	0.583
Mof_C 	C 	0.2489	0.0537	0.6477	0.485
Mof_C 	C 	0.2255	0.1449	0.6203	-0.252
Mof_C 	C 	0.2009	0.1525	0.5613	0.158
Mof_H 	H 	0.2001	0.1025	0.538	-0.012
Mof_C 	C 	0.1771	0.237	0.5375	-0.228
Mof_H 	H 	0.1618	0.2433	0.4978	0.112
Mof_C 	C 	0.1754	0.3115	0.5706	0.172
Mof_H 	H 	0.1583	0.3664	0.5535	-0.016
Mof_C 	C 	0.1998	0.3029	0.6299	-0.277
Mof_C 	C 	0.2248	0.2196	0.6545	0.206
Mof_H 	H 	0.2411	0.2139	0.6943	-0.057
Mof_C 	C 	0.2001	0.3827	0.6672	0.57
Mof_C 	C 	0.3468	0.8477	0.5966	0.406
Mof_C 	C 	0.3783	0.899	0.5678	-0.139
Mof_C 	C 	0.4167	0.9697	0.5956	0.063
Mof_H 	H 	0.4231	0.9864	0.633	0.02
Mof_C 	C 	0.4447	0.0137	0.5675	-0.127
Mof_H 	H 	0.4701	0.0599	0.5862	0.085
Mof_C 	C 	0.4355	0.9904	0.5118	0.053
Mof_H 	H 	0.455	0.0205	0.4933	0.028
Mof_C 	C 	0.3977	0.9224	0.4833	-0.108
Mof_C 	C 	0.3705	0.8755	0.5127	0.061
Mof_H 	H 	0.3466	0.8272	0.4945	0.032
Mof_C 	C 	0.3841	0.8996	0.4214	0.343
Mof_C 	C 	0.4124	0.983	0.766	0.42
Mof_C 	C 	0.4572	0.9314	0.7563	-0.196
Mof_C 	C 	0.4577	0.8351	0.7553	0.136
Mof_H 	H 	0.4285	0.8026	0.7582	-0.016
Mof_O 	O 	0.172	0.2198	0.778	-0.604
Mof_O 	O 	0.2442	0.1345	0.7831	-0.623
Mof_O 	O 	0.1957	0.8316	0.6808	-0.617
Mof_O 	O 	0.1462	0.7396	0.7135	-0.598
Mof_O 	O 	0.2824	0.05	0.7005	-0.676
Mof_O 	O 	0.2348	0.9821	0.6181	-0.53
Mof_O 	O 	0.1837	0.4595	0.6455	-0.573
Mof_O 	O 	0.2178	0.3674	0.7202	-0.634
Mof_O 	O 	0.3445	0.8852	0.6414	-0.551
Mof_O 	O 	0.3243	0.7741	0.5749	-0.318
Mof_O 	O 	0.3405	0.8542	0.394	-0.473
Mof_O 	O 	0.4132	0.93	0.397	-0.463
Mof_O 	O 	0.3703	0.937	0.766	-0.626
Mof_O 	O 	0.4162	0.0676	0.775	-0.49
Mof_Sm	Sm	0.21376	0.365	0.81006	2.451
Mof_Sm	Sm	0.16496	0.58561	0.69794	2.501
Mof_C 	C 	0.3069	0.6437	0.7258	0.587
Mof_C 	C 	0.3428	0.5606	0.7403	-0.355
Mof_C 	C 	0.3906	0.5561	0.7305	0.253
Mof_H 	H 	0.403	0.6084	0.7178	-0.051
Mof_C 	C 	0.4198	0.4756	0.7393	-0.31
Mof_H 	H 	0.4513	0.4732	0.7314	0.134
Mof_C 	C 	0.4035	0.3975	0.7595	0.229
Mof_H 	H 	0.4234	0.3427	0.7648	-0.04
Mof_C 	C 	0.3567	0.4019	0.7721	-0.323
Mof_C 	C 	0.3274	0.4841	0.7622	0.297
Mof_H 	H 	0.2963	0.4875	0.7708	-0.114
Mof_C 	C 	0.3365	0.3184	0.7948	0.583
Mof_C 	C 	0.2511	0.5537	0.8523	0.485
Mof_C 	C 	0.2745	0.6449	0.8797	-0.252
Mof_C 	C 	0.2991	0.6525	0.9387	0.157
Mof_H 	H 	0.2999	0.6025	0.962	-0.011
Mof_C 	C 	0.3229	0.737	0.9625	-0.227
Mof_H 	H 	0.3382	0.7433	0.0022	0.111
Mof_C 	C 	0.3246	0.8115	0.9294	0.171
Mof_H 	H 	0.3417	0.8664	0.9465	-0.016
Mof_C 	C 	0.3002	0.8029	0.8701	-0.277
Mof_C 	C 	0.2752	0.7196	0.8455	0.206
Mof_H 	H 	0.2589	0.7139	0.8057	-0.057
Mof_C 	C 	0.2999	0.8827	0.8328	0.57
Mof_C 	C 	0.1532	0.3477	0.9034	0.405
Mof_C 	C 	0.1217	0.399	0.9322	-0.137
Mof_C 	C 	0.0833	0.4697	0.9044	0.059
Mof_H 	H 	0.0769	0.4864	0.867	0.021
Mof_C 	C 	0.0553	0.5137	0.9325	-0.122
Mof_H 	H 	0.0299	0.5599	0.9138	0.083
Mof_C 	C 	0.0645	0.4904	0.9882	0.047
Mof_H 	H 	0.045	0.5205	0.0067	0.03
Mof_C 	C 	0.1023	0.4224	0.0167	-0.104
Mof_C 	C 	0.1295	0.3755	0.9873	0.057
Mof_H 	H 	0.1534	0.3272	0.0055	0.034
Mof_C 	C 	0.1159	0.3996	0.0786	0.342
Mof_C 	C 	0.0876	0.483	0.734	0.419
Mof_C 	C 	0.0428	0.4314	0.7437	-0.195
Mof_C 	C 	0.0423	0.3351	0.7447	0.136
Mof_H 	H 	0.0715	0.3026	0.7418	-0.017
Mof_O 	O 	0.328	0.7198	0.722	-0.604
Mof_O 	O 	0.2558	0.6345	0.7169	-0.623
Mof_O 	O 	0.3043	0.3316	0.8192	-0.617
Mof_O 	O 	0.3538	0.2396	0.7865	-0.597
Mof_O 	O 	0.2176	0.55	0.7995	-0.676
Mof_O 	O 	0.2652	0.4821	0.8819	-0.53
Mof_O 	O 	0.3163	0.9595	0.8545	-0.572
Mof_O 	O 	0.2822	0.8674	0.7798	-0.634
Mof_O 	O 	0.1555	0.3852	0.8586	-0.551
Mof_O 	O 	0.1757	0.2741	0.9251	-0.318
Mof_O 	O 	0.1595	0.3542	0.106	-0.473
Mof_O 	O 	0.0868	0.43	0.103	-0.463
Mof_O 	O 	0.1297	0.437	0.734	-0.626
Mof_O 	O 	0.0838	0.5676	0.725	-0.49
Mof_Sm	Sm	0.71376	0.865	0.81006	2.452
Mof_Sm	Sm	0.66496	0.08561	0.69794	2.501
Mof_C 	C 	0.8069	0.1437	0.7258	0.587
Mof_C 	C 	0.8428	0.0606	0.7403	-0.355
Mof_C 	C 	0.8906	0.0561	0.7305	0.252
Mof_H 	H 	0.903	0.1084	0.7178	-0.05
Mof_C 	C 	0.9198	0.9756	0.7393	-0.31
Mof_H 	H 	0.9513	0.9732	0.7314	0.134
Mof_C 	C 	0.9035	0.8975	0.7595	0.229
Mof_H 	H 	0.9234	0.8427	0.7648	-0.04
Mof_C 	C 	0.8567	0.9019	0.7721	-0.323
Mof_C 	C 	0.8274	0.9841	0.7622	0.298
Mof_H 	H 	0.7963	0.9875	0.7708	-0.114
Mof_C 	C 	0.8365	0.8184	0.7948	0.583
Mof_C 	C 	0.7511	0.0537	0.8523	0.484
Mof_C 	C 	0.7745	0.1449	0.8797	-0.252
Mof_C 	C 	0.7991	0.1525	0.9387	0.158
Mof_H 	H 	0.7999	0.1025	0.962	-0.012
Mof_C 	C 	0.8229	0.237	0.9625	-0.228
Mof_H 	H 	0.8382	0.2433	0.0022	0.112
Mof_C 	C 	0.8246	0.3115	0.9294	0.172
Mof_H 	H 	0.8417	0.3664	0.9465	-0.016
Mof_C 	C 	0.8002	0.3029	0.8701	-0.277
Mof_C 	C 	0.7752	0.2196	0.8455	0.206
Mof_H 	H 	0.7589	0.2139	0.8057	-0.057
Mof_C 	C 	0.7999	0.3827	0.8328	0.57
Mof_C 	C 	0.6532	0.8477	0.9034	0.408
Mof_C 	C 	0.6217	0.899	0.9322	-0.144
Mof_C 	C 	0.5833	0.9697	0.9044	0.069
Mof_H 	H 	0.5769	0.9864	0.867	0.018
Mof_C 	C 	0.5553	0.0137	0.9325	-0.134
Mof_H 	H 	0.5299	0.0599	0.9138	0.087
Mof_C 	C 	0.5645	0.9904	0.9882	0.06
Mof_H 	H 	0.545	0.0205	0.0067	0.026
Mof_C 	C 	0.6023	0.9224	0.0167	-0.115
Mof_C 	C 	0.6295	0.8755	0.9873	0.068
Mof_H 	H 	0.6534	0.8272	0.0055	0.029
Mof_C 	C 	0.6159	0.8996	0.0786	0.345
Mof_C 	C 	0.5876	0.983	0.734	0.42
Mof_C 	C 	0.5428	0.9314	0.7437	-0.196
Mof_C 	C 	0.5423	0.8351	0.7447	0.136
Mof_H 	H 	0.5715	0.8026	0.7418	-0.016
Mof_O 	O 	0.828	0.2198	0.722	-0.604
Mof_O 	O 	0.7558	0.1345	0.7169	-0.623
Mof_O 	O 	0.8043	0.8316	0.8192	-0.617
Mof_O 	O 	0.8538	0.7396	0.7865	-0.597
Mof_O 	O 	0.7176	0.05	0.7995	-0.676
Mof_O 	O 	0.7652	0.9821	0.8819	-0.53
Mof_O 	O 	0.8163	0.4595	0.8545	-0.573
Mof_O 	O 	0.7822	0.3674	0.7798	-0.634
Mof_O 	O 	0.6555	0.8852	0.8586	-0.552
Mof_O 	O 	0.6757	0.7741	0.9251	-0.318
Mof_O 	O 	0.6595	0.8542	0.106	-0.474
Mof_O 	O 	0.5868	0.93	0.103	-0.464
Mof_O 	O 	0.6297	0.937	0.734	-0.626
Mof_O 	O 	0.5838	0.0676	0.725	-0.49
Mof_C 	C 	-1.28158e-17	0.7129	0.25	-0.208
Mof_H 	H 	1.26547e-33	0.7773	0.25	0.105
Mof_C 	C 	1.26547e-33	0.522	0.25	0.121
Mof_H 	H 	1.26547e-33	0.4576	0.25	0.011
Mof_C 	C 	0.5	0.2129	0.25	-0.207
Mof_H 	H 	0.5	0.2773	0.25	0.105
Mof_C 	C 	0.5	0.022	0.25	0.124
Mof_H 	H 	0.5	0.9576	0.25	0.011
Mof_C 	C 	5.12632e-17	0.2871	0.75	-0.209
Mof_H 	H 	5.12632e-17	0.2227	0.75	0.105
Mof_C 	C 	5.12632e-17	0.478	0.75	0.12
Mof_H 	H 	5.12632e-17	0.5424	0.75	0.012
Mof_C 	C 	0.5	0.7871	0.75	-0.207
Mof_H 	H 	0.5	0.7227	0.75	0.105
Mof_C 	C 	0.5	0.978	0.75	0.124
Mof_H 	H 	0.5	0.0424	0.75	0.011
_end
