data_functionalizedCrystal
_audit_creation_method	'EQeq! by Chris Wilmer'
_symmetry_space_group_name_H-M	'P1'
_symmetry_Int_Tables_number	1
_symmetry_cell_setting	triclinic
loop_
_symmetry_equiv_pos_as_xyz
  x,y,z
_cell_length_a	46.582
_cell_length_b	46.582
_cell_length_c	21.332
_cell_angle_alpha	90
_cell_angle_beta	90
_cell_angle_gamma	120
loop_
_atom_site_label
_atom_site_type_symbol
_atom_site_fract_x
_atom_site_fract_y
_atom_site_fract_z
_atom_site_charge
Mof_Cr	Cr	0.61015	0.40996	0.17957	1.427
Mof_Cr	Cr	0.59004	0.20019	0.17957	1.427
Mof_Cr	Cr	0.79981	0.38985	0.17957	1.427
Mof_Cr	Cr	0.38985	0.59004	0.82043	1.427
Mof_Cr	Cr	0.40996	0.79981	0.82043	1.427
Mof_Cr	Cr	0.20019	0.61015	0.82043	1.427
Mof_Cr	Cr	0.27682	0.74329	0.5129	1.427
Mof_Cr	Cr	0.25671	0.53352	0.5129	1.427
Mof_Cr	Cr	0.46648	0.72318	0.5129	1.427
Mof_Cr	Cr	0.05652	0.92337	0.15376	1.427
Mof_Cr	Cr	0.07663	0.13314	0.15376	1.428
Mof_Cr	Cr	0.86686	0.94348	0.15376	1.428
Mof_Cr	Cr	0.94348	0.07663	0.84624	1.428
Mof_Cr	Cr	0.92337	0.86686	0.84624	1.428
Mof_Cr	Cr	0.13314	0.05652	0.84624	1.428
Mof_Cr	Cr	0.72318	0.25671	0.4871	1.428
Mof_Cr	Cr	0.74329	0.46648	0.4871	1.428
Mof_Cr	Cr	0.53352	0.27682	0.4871	1.428
Mof_Cu	Cu	0.76497	0.73586	0.49598	0.905
Mof_Cu	Cu	0.26414	0.02911	0.49598	0.905
Mof_Cu	Cu	0.97089	0.23503	0.49598	0.905
Mof_Cu	Cu	0.23503	0.26414	0.50402	0.905
Mof_Cu	Cu	0.73586	0.97089	0.50402	0.905
Mof_Cu	Cu	0.02911	0.76497	0.50402	0.905
Mof_Cu	Cu	0.43164	0.06919	0.82931	0.905
Mof_Cu	Cu	0.93081	0.36244	0.82931	0.905
Mof_Cu	Cu	0.63756	0.56836	0.82931	0.905
Mof_Cu	Cu	0.9017	0.59747	0.83735	0.905
Mof_Cu	Cu	0.40253	0.30422	0.83735	0.905
Mof_Cu	Cu	0.69578	0.0983	0.83735	0.905
Mof_Cu	Cu	0.0983	0.40253	0.16265	0.905
Mof_Cu	Cu	0.59747	0.69578	0.16265	0.905
Mof_Cu	Cu	0.30422	0.9017	0.16265	0.905
Mof_Cu	Cu	0.56836	0.93081	0.17069	0.905
Mof_Cu	Cu	0.06919	0.63756	0.17069	0.905
Mof_Cu	Cu	0.36244	0.43164	0.17069	0.905
Mof_Cu	Cu	0.73078	0.76781	0.4703	1.012
Mof_Cu	Cu	0.23219	0.96297	0.4703	1.012
Mof_Cu	Cu	0.03703	0.26922	0.4703	1.012
Mof_Cu	Cu	0.26922	0.23219	0.5297	1.012
Mof_Cu	Cu	0.76781	0.03703	0.5297	1.012
Mof_Cu	Cu	0.96297	0.73078	0.5297	1.012
Mof_Cu	Cu	0.39745	0.10114	0.80363	1.012
Mof_Cu	Cu	0.89886	0.2963	0.80363	1.012
Mof_Cu	Cu	0.7037	0.60255	0.80363	1.012
Mof_Cu	Cu	0.93589	0.56552	0.86303	1.012
Mof_Cu	Cu	0.43448	0.37036	0.86303	1.012
Mof_Cu	Cu	0.62964	0.06411	0.86303	1.012
Mof_Cu	Cu	0.06411	0.43448	0.13697	1.012
Mof_Cu	Cu	0.56552	0.62964	0.13697	1.012
Mof_Cu	Cu	0.37036	0.93589	0.13697	1.012
Mof_Cu	Cu	0.60255	0.89886	0.19637	1.012
Mof_Cu	Cu	0.10114	0.7037	0.19637	1.012
Mof_Cu	Cu	0.2963	0.39745	0.19637	1.012
Mof_Cu	Cu	0.5773	0.44447	0.15459	0.942
Mof_Cu	Cu	0.55553	0.13283	0.15459	0.942
Mof_Cu	Cu	0.86717	0.4227	0.15459	0.942
Mof_Cu	Cu	0.4227	0.55553	0.84541	0.942
Mof_Cu	Cu	0.44447	0.86717	0.84541	0.942
Mof_Cu	Cu	0.13283	0.5773	0.84541	0.942
Mof_Cu	Cu	0.24397	0.7778	0.48792	0.942
Mof_Cu	Cu	0.2222	0.46616	0.48792	0.942
Mof_Cu	Cu	0.53384	0.75603	0.48792	0.942
Mof_Cu	Cu	0.08937	0.88886	0.17874	0.942
Mof_Cu	Cu	0.11114	0.2005	0.17874	0.942
Mof_Cu	Cu	0.7995	0.91063	0.17874	0.942
Mof_Cu	Cu	0.91063	0.11114	0.82126	0.942
Mof_Cu	Cu	0.88886	0.7995	0.82126	0.942
Mof_Cu	Cu	0.2005	0.08937	0.82126	0.942
Mof_Cu	Cu	0.75603	0.2222	0.51208	0.942
Mof_Cu	Cu	0.7778	0.53384	0.51208	0.942
Mof_Cu	Cu	0.46616	0.24397	0.51208	0.942
Mof_C 	C 	0.68252	0.5529	0.329	0.012
Mof_C 	C 	0.4471	0.12962	0.329	0.012
Mof_C 	C 	0.87038	0.31748	0.329	0.012
Mof_C 	C 	0.31748	0.4471	0.671	0.012
Mof_C 	C 	0.5529	0.87038	0.671	0.012
Mof_C 	C 	0.12962	0.68252	0.671	0.012
Mof_C 	C 	0.34919	0.88623	0.66233	0.012
Mof_C 	C 	0.11377	0.46295	0.66233	0.012
Mof_C 	C 	0.53705	0.65081	0.66233	0.012
Mof_C 	C 	0.98415	0.78043	0.00433	0.012
Mof_C 	C 	0.21957	0.20371	0.00433	0.012
Mof_C 	C 	0.79629	0.01585	0.00433	0.012
Mof_C 	C 	0.01585	0.21957	0.99567	0.012
Mof_C 	C 	0.78043	0.79629	0.99567	0.012
Mof_C 	C 	0.20371	0.98415	0.99567	0.012
Mof_C 	C 	0.65081	0.11377	0.33767	0.012
Mof_C 	C 	0.88623	0.53705	0.33767	0.012
Mof_C 	C 	0.46295	0.34919	0.33767	0.012
Mof_C 	C 	0.70288	0.54749	0.369	-0.037
Mof_C 	C 	0.45251	0.15539	0.369	-0.037
Mof_C 	C 	0.84461	0.29712	0.369	-0.037
Mof_C 	C 	0.29712	0.45251	0.631	-0.037
Mof_C 	C 	0.54749	0.84461	0.631	-0.037
Mof_C 	C 	0.15539	0.70288	0.631	-0.037
Mof_C 	C 	0.36955	0.88082	0.70233	-0.037
Mof_C 	C 	0.11918	0.48872	0.70233	-0.037
Mof_C 	C 	0.51128	0.63045	0.70233	-0.037
Mof_C 	C 	0.96379	0.78584	0.96433	-0.037
Mof_C 	C 	0.21416	0.17794	0.96433	-0.037
Mof_C 	C 	0.82206	0.03621	0.96433	-0.037
Mof_C 	C 	0.03621	0.21416	0.03567	-0.037
Mof_C 	C 	0.78584	0.82206	0.03567	-0.037
Mof_C 	C 	0.17794	0.96379	0.03567	-0.037
Mof_C 	C 	0.63045	0.11918	0.29767	-0.037
Mof_C 	C 	0.88082	0.51128	0.29767	-0.037
Mof_C 	C 	0.48872	0.36955	0.29767	-0.037
Mof_C 	C 	0.7009	0.51671	0.3703	-0.02
Mof_C 	C 	0.48329	0.18419	0.3703	-0.02
Mof_C 	C 	0.81581	0.2991	0.3703	-0.02
Mof_C 	C 	0.2991	0.48329	0.6297	-0.02
Mof_C 	C 	0.51671	0.81581	0.6297	-0.02
Mof_C 	C 	0.18419	0.7009	0.6297	-0.02
Mof_C 	C 	0.36757	0.85004	0.70363	-0.02
Mof_C 	C 	0.14996	0.51752	0.70363	-0.02
Mof_C 	C 	0.48248	0.63243	0.70363	-0.02
Mof_C 	C 	0.96577	0.81662	0.96303	-0.02
Mof_C 	C 	0.18338	0.14914	0.96303	-0.02
Mof_C 	C 	0.85086	0.03423	0.96303	-0.02
Mof_C 	C 	0.03423	0.18338	0.03697	-0.02
Mof_C 	C 	0.81662	0.85086	0.03697	-0.02
Mof_C 	C 	0.14914	0.96577	0.03697	-0.02
Mof_C 	C 	0.63243	0.14996	0.29637	-0.02
Mof_C 	C 	0.85004	0.48248	0.29637	-0.02
Mof_C 	C 	0.51752	0.36757	0.29637	-0.02
Mof_C 	C 	0.6785	0.49135	0.3316	-0.008
Mof_C 	C 	0.50865	0.18715	0.3316	-0.008
Mof_C 	C 	0.81285	0.3215	0.3316	-0.008
Mof_C 	C 	0.3215	0.50865	0.6684	-0.008
Mof_C 	C 	0.49135	0.81285	0.6684	-0.008
Mof_C 	C 	0.18715	0.6785	0.6684	-0.008
Mof_C 	C 	0.34517	0.82468	0.66493	-0.008
Mof_C 	C 	0.17532	0.52048	0.66493	-0.008
Mof_C 	C 	0.47952	0.65483	0.66493	-0.008
Mof_C 	C 	0.98817	0.84198	0.00173	-0.008
Mof_C 	C 	0.15802	0.14618	0.00173	-0.008
Mof_C 	C 	0.85382	0.01183	0.00173	-0.008
Mof_C 	C 	0.01183	0.15802	0.99827	-0.008
Mof_C 	C 	0.84198	0.85382	0.99827	-0.008
Mof_C 	C 	0.14618	0.98817	0.99827	-0.008
Mof_C 	C 	0.65483	0.17532	0.33507	-0.008
Mof_C 	C 	0.82468	0.47952	0.33507	-0.008
Mof_C 	C 	0.52048	0.34517	0.33507	-0.008
Mof_C 	C 	0.65818	0.49676	0.2916	-0.078
Mof_C 	C 	0.50324	0.16142	0.2916	-0.078
Mof_C 	C 	0.83858	0.34182	0.2916	-0.078
Mof_C 	C 	0.34182	0.50324	0.7084	-0.078
Mof_C 	C 	0.49676	0.83858	0.7084	-0.078
Mof_C 	C 	0.16142	0.65818	0.7084	-0.078
Mof_C 	C 	0.32485	0.83009	0.62493	-0.078
Mof_C 	C 	0.16991	0.49475	0.62493	-0.078
Mof_C 	C 	0.50525	0.67515	0.62493	-0.078
Mof_C 	C 	0.00849	0.83657	0.04173	-0.078
Mof_C 	C 	0.16343	0.17191	0.04173	-0.078
Mof_C 	C 	0.82809	0.99151	0.04173	-0.078
Mof_C 	C 	0.99151	0.16343	0.95827	-0.078
Mof_C 	C 	0.83657	0.82809	0.95827	-0.078
Mof_C 	C 	0.17191	0.00849	0.95827	-0.078
Mof_C 	C 	0.67515	0.16991	0.37507	-0.078
Mof_C 	C 	0.83009	0.50525	0.37507	-0.078
Mof_C 	C 	0.49475	0.32485	0.37507	-0.078
Mof_C 	C 	0.66016	0.52754	0.2903	-0.012
Mof_C 	C 	0.47246	0.13262	0.2903	-0.012
Mof_C 	C 	0.86738	0.33984	0.2903	-0.012
Mof_C 	C 	0.33984	0.47246	0.7097	-0.012
Mof_C 	C 	0.52754	0.86738	0.7097	-0.012
Mof_C 	C 	0.13262	0.66016	0.7097	-0.012
Mof_C 	C 	0.32683	0.86087	0.62363	-0.012
Mof_C 	C 	0.13913	0.46595	0.62363	-0.012
Mof_C 	C 	0.53405	0.67317	0.62363	-0.012
Mof_C 	C 	0.00651	0.80579	0.04303	-0.012
Mof_C 	C 	0.19421	0.20071	0.04303	-0.012
Mof_C 	C 	0.79929	0.99349	0.04303	-0.012
Mof_C 	C 	0.99349	0.19421	0.95697	-0.012
Mof_C 	C 	0.80579	0.79929	0.95697	-0.012
Mof_C 	C 	0.20071	0.00651	0.95697	-0.012
Mof_C 	C 	0.67317	0.13913	0.37637	-0.012
Mof_C 	C 	0.86087	0.53405	0.37637	-0.012
Mof_C 	C 	0.46595	0.32683	0.37637	-0.012
Mof_C 	C 	0.66721	0.68182	0.3078	0.029
Mof_C 	C 	0.31818	0.98539	0.3078	0.029
Mof_C 	C 	0.01461	0.33279	0.3078	0.029
Mof_C 	C 	0.33279	0.31818	0.6922	0.029
Mof_C 	C 	0.68182	0.01461	0.6922	0.029
Mof_C 	C 	0.98539	0.66721	0.6922	0.029
Mof_C 	C 	0.33388	0.01515	0.64113	0.029
Mof_C 	C 	0.98485	0.31872	0.64113	0.029
Mof_C 	C 	0.68128	0.66612	0.64113	0.029
Mof_C 	C 	0.99946	0.65151	0.02553	0.029
Mof_C 	C 	0.34849	0.34794	0.02553	0.029
Mof_C 	C 	0.65206	0.00054	0.02553	0.029
Mof_C 	C 	0.00054	0.34849	0.97447	0.029
Mof_C 	C 	0.65151	0.65206	0.97447	0.029
Mof_C 	C 	0.34794	0.99946	0.97447	0.029
Mof_C 	C 	0.66612	0.98485	0.35887	0.029
Mof_C 	C 	0.01515	0.68128	0.35887	0.029
Mof_C 	C 	0.31872	0.33388	0.35887	0.029
Mof_C 	C 	0.64215	0.65376	0.2694	-0.074
Mof_C 	C 	0.34624	0.98839	0.2694	-0.074
Mof_C 	C 	0.01161	0.35785	0.2694	-0.074
Mof_C 	C 	0.35785	0.34624	0.7306	-0.074
Mof_C 	C 	0.65376	0.01161	0.7306	-0.074
Mof_C 	C 	0.98839	0.64215	0.7306	-0.074
Mof_C 	C 	0.30882	0.98709	0.60273	-0.074
Mof_C 	C 	0.01291	0.32172	0.60273	-0.074
Mof_C 	C 	0.67828	0.69118	0.60273	-0.074
Mof_C 	C 	0.02452	0.67957	0.06393	-0.074
Mof_C 	C 	0.32043	0.34494	0.06393	-0.074
Mof_C 	C 	0.65506	0.97548	0.06393	-0.074
Mof_C 	C 	0.97548	0.32043	0.93607	-0.074
Mof_C 	C 	0.67957	0.65506	0.93607	-0.074
Mof_C 	C 	0.34494	0.02452	0.93607	-0.074
Mof_C 	C 	0.69118	0.01291	0.39727	-0.074
Mof_C 	C 	0.98709	0.67828	0.39727	-0.074
Mof_C 	C 	0.32172	0.30882	0.39727	-0.074
Mof_C 	C 	0.64524	0.62673	0.2735	-0.008
Mof_C 	C 	0.37327	0.01851	0.2735	-0.008
Mof_C 	C 	0.98149	0.35476	0.2735	-0.008
Mof_C 	C 	0.35476	0.37327	0.7265	-0.008
Mof_C 	C 	0.62673	0.98149	0.7265	-0.008
Mof_C 	C 	0.01851	0.64524	0.7265	-0.008
Mof_C 	C 	0.31191	0.96006	0.60683	-0.008
Mof_C 	C 	0.03994	0.35184	0.60683	-0.008
Mof_C 	C 	0.64816	0.68809	0.60683	-0.008
Mof_C 	C 	0.02143	0.7066	0.05983	-0.008
Mof_C 	C 	0.2934	0.31482	0.05983	-0.008
Mof_C 	C 	0.68518	0.97857	0.05983	-0.008
Mof_C 	C 	0.97857	0.2934	0.94017	-0.008
Mof_C 	C 	0.7066	0.68518	0.94017	-0.008
Mof_C 	C 	0.31482	0.02143	0.94017	-0.008
Mof_C 	C 	0.68809	0.03994	0.39317	-0.008
Mof_C 	C 	0.96006	0.64816	0.39317	-0.008
Mof_C 	C 	0.35184	0.31191	0.39317	-0.008
Mof_C 	C 	0.66239	0.62037	0.3151	0.006
Mof_C 	C 	0.37963	0.04202	0.3151	0.006
Mof_C 	C 	0.95798	0.33761	0.3151	0.006
Mof_C 	C 	0.33761	0.37963	0.6849	0.006
Mof_C 	C 	0.62037	0.95798	0.6849	0.006
Mof_C 	C 	0.04202	0.66239	0.6849	0.006
Mof_C 	C 	0.32906	0.9537	0.64843	0.006
Mof_C 	C 	0.0463	0.37535	0.64843	0.006
Mof_C 	C 	0.62465	0.67094	0.64843	0.006
Mof_C 	C 	0.00428	0.71296	0.01823	0.006
Mof_C 	C 	0.28704	0.29131	0.01823	0.006
Mof_C 	C 	0.70869	0.99572	0.01823	0.006
Mof_C 	C 	0.99572	0.28704	0.98177	0.006
Mof_C 	C 	0.71296	0.70869	0.98177	0.006
Mof_C 	C 	0.29131	0.00428	0.98177	0.006
Mof_C 	C 	0.67094	0.0463	0.35157	0.006
Mof_C 	C 	0.9537	0.62465	0.35157	0.006
Mof_C 	C 	0.37535	0.32906	0.35157	0.006
Mof_C 	C 	0.69444	0.6483	0.3464	-0.011
Mof_C 	C 	0.3517	0.04614	0.3464	-0.011
Mof_C 	C 	0.95386	0.30556	0.3464	-0.011
Mof_C 	C 	0.30556	0.3517	0.6536	-0.011
Mof_C 	C 	0.6483	0.95386	0.6536	-0.011
Mof_C 	C 	0.04614	0.69444	0.6536	-0.011
Mof_C 	C 	0.36111	0.98163	0.67973	-0.011
Mof_C 	C 	0.01837	0.37947	0.67973	-0.011
Mof_C 	C 	0.62053	0.63889	0.67973	-0.011
Mof_C 	C 	0.97223	0.68503	0.98693	-0.011
Mof_C 	C 	0.31497	0.28719	0.98693	-0.011
Mof_C 	C 	0.71281	0.02777	0.98693	-0.011
Mof_C 	C 	0.02777	0.31497	0.01307	-0.011
Mof_C 	C 	0.68503	0.71281	0.01307	-0.011
Mof_C 	C 	0.28719	0.97223	0.01307	-0.011
Mof_C 	C 	0.63889	0.01837	0.32027	-0.011
Mof_C 	C 	0.98163	0.62053	0.32027	-0.011
Mof_C 	C 	0.37947	0.36111	0.32027	-0.011
Mof_C 	C 	0.68934	0.67664	0.3465	-0.079
Mof_C 	C 	0.32336	0.0127	0.3465	-0.079
Mof_C 	C 	0.9873	0.31066	0.3465	-0.079
Mof_C 	C 	0.31066	0.32336	0.6535	-0.079
Mof_C 	C 	0.67664	0.9873	0.6535	-0.079
Mof_C 	C 	0.0127	0.68934	0.6535	-0.079
Mof_C 	C 	0.35601	0.00997	0.67983	-0.079
Mof_C 	C 	0.99003	0.34603	0.67983	-0.079
Mof_C 	C 	0.65397	0.64399	0.67983	-0.079
Mof_C 	C 	0.97733	0.65669	0.98683	-0.079
Mof_C 	C 	0.34331	0.32063	0.98683	-0.079
Mof_C 	C 	0.67937	0.02267	0.98683	-0.079
Mof_C 	C 	0.02267	0.34331	0.01317	-0.079
Mof_C 	C 	0.65669	0.67937	0.01317	-0.079
Mof_C 	C 	0.32063	0.97733	0.01317	-0.079
Mof_C 	C 	0.64399	0.99003	0.32017	-0.079
Mof_C 	C 	0.00997	0.65397	0.32017	-0.079
Mof_C 	C 	0.34603	0.35601	0.32017	-0.079
Mof_C 	C 	0.85035	0.87726	0.6926	-0.009
Mof_C 	C 	0.12274	0.97309	0.6926	-0.009
Mof_C 	C 	0.02691	0.14965	0.6926	-0.009
Mof_C 	C 	0.14965	0.12274	0.3074	-0.009
Mof_C 	C 	0.87726	0.02691	0.3074	-0.009
Mof_C 	C 	0.97309	0.85035	0.3074	-0.009
Mof_C 	C 	0.51702	0.21059	0.02593	-0.009
Mof_C 	C 	0.78941	0.30642	0.02593	-0.009
Mof_C 	C 	0.69358	0.48298	0.02593	-0.009
Mof_C 	C 	0.81632	0.45607	0.64073	-0.009
Mof_C 	C 	0.54393	0.36024	0.64073	-0.009
Mof_C 	C 	0.63976	0.18368	0.64073	-0.009
Mof_C 	C 	0.18368	0.54393	0.35927	-0.009
Mof_C 	C 	0.45607	0.63976	0.35927	-0.009
Mof_C 	C 	0.36024	0.81632	0.35927	-0.009
Mof_C 	C 	0.48298	0.78941	0.97407	-0.009
Mof_C 	C 	0.21059	0.69358	0.97407	-0.009
Mof_C 	C 	0.30642	0.51702	0.97407	-0.009
Mof_C 	C 	0.82377	0.87979	0.662	0.002
Mof_C 	C 	0.12021	0.94398	0.662	0.002
Mof_C 	C 	0.05602	0.17623	0.662	0.002
Mof_C 	C 	0.17623	0.12021	0.338	0.002
Mof_C 	C 	0.87979	0.05602	0.338	0.002
Mof_C 	C 	0.94398	0.82377	0.338	0.002
Mof_C 	C 	0.49044	0.21312	0.99533	0.002
Mof_C 	C 	0.78688	0.27731	0.99533	0.002
Mof_C 	C 	0.72269	0.50956	0.99533	0.002
Mof_C 	C 	0.8429	0.45354	0.67133	0.002
Mof_C 	C 	0.54646	0.38935	0.67133	0.002
Mof_C 	C 	0.61065	0.1571	0.67133	0.002
Mof_C 	C 	0.1571	0.54646	0.32867	0.002
Mof_C 	C 	0.45354	0.61065	0.32867	0.002
Mof_C 	C 	0.38935	0.8429	0.32867	0.002
Mof_C 	C 	0.50956	0.78688	0.00467	0.002
Mof_C 	C 	0.21312	0.72269	0.00467	0.002
Mof_C 	C 	0.27731	0.49044	0.00467	0.002
Mof_C 	C 	0.80165	0.84853	0.6264	-0.015
Mof_C 	C 	0.15147	0.95312	0.6264	-0.015
Mof_C 	C 	0.04688	0.19835	0.6264	-0.015
Mof_C 	C 	0.19835	0.15147	0.3736	-0.015
Mof_C 	C 	0.84853	0.04688	0.3736	-0.015
Mof_C 	C 	0.95312	0.80165	0.3736	-0.015
Mof_C 	C 	0.46832	0.18186	0.95973	-0.015
Mof_C 	C 	0.81814	0.28645	0.95973	-0.015
Mof_C 	C 	0.71355	0.53168	0.95973	-0.015
Mof_C 	C 	0.86502	0.4848	0.70693	-0.015
Mof_C 	C 	0.5152	0.38021	0.70693	-0.015
Mof_C 	C 	0.61979	0.13498	0.70693	-0.015
Mof_C 	C 	0.13498	0.5152	0.29307	-0.015
Mof_C 	C 	0.4848	0.61979	0.29307	-0.015
Mof_C 	C 	0.38021	0.86502	0.29307	-0.015
Mof_C 	C 	0.53168	0.81814	0.04027	-0.015
Mof_C 	C 	0.18186	0.71355	0.04027	-0.015
Mof_C 	C 	0.28645	0.46832	0.04027	-0.015
Mof_C 	C 	0.80597	0.8247	0.6103	-0.057
Mof_C 	C 	0.1753	0.98127	0.6103	-0.057
Mof_C 	C 	0.01873	0.19403	0.6103	-0.057
Mof_C 	C 	0.19403	0.1753	0.3897	-0.057
Mof_C 	C 	0.8247	0.01873	0.3897	-0.057
Mof_C 	C 	0.98127	0.80597	0.3897	-0.057
Mof_C 	C 	0.47264	0.15803	0.94363	-0.057
Mof_C 	C 	0.84197	0.3146	0.94363	-0.057
Mof_C 	C 	0.6854	0.52736	0.94363	-0.057
Mof_C 	C 	0.8607	0.50863	0.72303	-0.057
Mof_C 	C 	0.49137	0.35206	0.72303	-0.057
Mof_C 	C 	0.64794	0.1393	0.72303	-0.057
Mof_C 	C 	0.1393	0.49137	0.27697	-0.057
Mof_C 	C 	0.50863	0.64794	0.27697	-0.057
Mof_C 	C 	0.35206	0.8607	0.27697	-0.057
Mof_C 	C 	0.52736	0.84197	0.05637	-0.057
Mof_C 	C 	0.15803	0.6854	0.05637	-0.057
Mof_C 	C 	0.3146	0.47264	0.05637	-0.057
Mof_C 	C 	0.8231	0.8148	0.6585	0.014
Mof_C 	C 	0.1852	0.0083	0.6585	0.014
Mof_C 	C 	0.9917	0.1769	0.6585	0.014
Mof_C 	C 	0.1769	0.1852	0.3415	0.014
Mof_C 	C 	0.8148	0.9917	0.3415	0.014
Mof_C 	C 	0.0083	0.8231	0.3415	0.014
Mof_C 	C 	0.48977	0.14813	0.99183	0.014
Mof_C 	C 	0.85187	0.34163	0.99183	0.014
Mof_C 	C 	0.65837	0.51023	0.99183	0.014
Mof_C 	C 	0.84357	0.51853	0.67483	0.014
Mof_C 	C 	0.48147	0.32503	0.67483	0.015
Mof_C 	C 	0.67497	0.15643	0.67483	0.015
Mof_C 	C 	0.15643	0.48147	0.32517	0.014
Mof_C 	C 	0.51853	0.67497	0.32517	0.015
Mof_C 	C 	0.32503	0.84357	0.32517	0.015
Mof_C 	C 	0.51023	0.85187	0.00817	0.014
Mof_C 	C 	0.14813	0.65837	0.00817	0.014
Mof_C 	C 	0.34163	0.48977	0.00817	0.014
Mof_C 	C 	0.84874	0.84363	0.6989	-0.08
Mof_C 	C 	0.15637	0.00511	0.6989	-0.08
Mof_C 	C 	0.99489	0.15126	0.6989	-0.08
Mof_C 	C 	0.15126	0.15637	0.3011	-0.08
Mof_C 	C 	0.84363	0.99489	0.3011	-0.08
Mof_C 	C 	0.00511	0.84874	0.3011	-0.08
Mof_C 	C 	0.51541	0.17696	0.03223	-0.08
Mof_C 	C 	0.82304	0.33844	0.03223	-0.08
Mof_C 	C 	0.66156	0.48459	0.03223	-0.08
Mof_C 	C 	0.81793	0.4897	0.63443	-0.08
Mof_C 	C 	0.5103	0.32822	0.63443	-0.08
Mof_C 	C 	0.67178	0.18207	0.63443	-0.08
Mof_C 	C 	0.18207	0.5103	0.36557	-0.08
Mof_C 	C 	0.4897	0.67178	0.36557	-0.08
Mof_C 	C 	0.32822	0.81793	0.36557	-0.08
Mof_C 	C 	0.48459	0.82304	0.96777	-0.08
Mof_C 	C 	0.17696	0.66156	0.96777	-0.08
Mof_C 	C 	0.33844	0.51541	0.96777	-0.08
Mof_C 	C 	0.53072	0.3228	0.05303	-0.004
Mof_C 	C 	0.6772	0.20792	0.05303	-0.004
Mof_C 	C 	0.79208	0.46928	0.05303	-0.004
Mof_C 	C 	0.46928	0.6772	0.94697	-0.004
Mof_C 	C 	0.3228	0.79208	0.94697	-0.004
Mof_C 	C 	0.20792	0.53072	0.94697	-0.004
Mof_C 	C 	0.19739	0.65613	0.38636	-0.004
Mof_C 	C 	0.34387	0.54125	0.38636	-0.004
Mof_C 	C 	0.45875	0.80261	0.38636	-0.004
Mof_C 	C 	0.13595	0.01053	0.2803	-0.004
Mof_C 	C 	0.98947	0.12541	0.2803	-0.004
Mof_C 	C 	0.87459	0.86405	0.2803	-0.004
Mof_C 	C 	0.86405	0.98947	0.7197	-0.004
Mof_C 	C 	0.01053	0.87459	0.7197	-0.004
Mof_C 	C 	0.12541	0.13595	0.7197	-0.004
Mof_C 	C 	0.80261	0.34387	0.61364	-0.004
Mof_C 	C 	0.65613	0.45875	0.61364	-0.004
Mof_C 	C 	0.54125	0.19739	0.61364	-0.004
Mof_C 	C 	0.52939	0.35122	0.05043	-0.097
Mof_C 	C 	0.64878	0.17817	0.05043	-0.097
Mof_C 	C 	0.82183	0.47061	0.05043	-0.097
Mof_C 	C 	0.47061	0.64878	0.94957	-0.097
Mof_C 	C 	0.35122	0.82183	0.94957	-0.097
Mof_C 	C 	0.17817	0.52939	0.94957	-0.097
Mof_C 	C 	0.19606	0.68455	0.38376	-0.097
Mof_C 	C 	0.31545	0.5115	0.38376	-0.097
Mof_C 	C 	0.4885	0.80394	0.38376	-0.097
Mof_C 	C 	0.13728	0.98211	0.2829	-0.097
Mof_C 	C 	0.01789	0.15516	0.2829	-0.097
Mof_C 	C 	0.84484	0.86272	0.2829	-0.097
Mof_C 	C 	0.86272	0.01789	0.7171	-0.097
Mof_C 	C 	0.98211	0.84484	0.7171	-0.097
Mof_C 	C 	0.15516	0.13728	0.7171	-0.097
Mof_C 	C 	0.80394	0.31545	0.61624	-0.097
Mof_C 	C 	0.68455	0.4885	0.61624	-0.097
Mof_C 	C 	0.5115	0.19606	0.61624	-0.097
Mof_C 	C 	0.5058	0.35476	0.01213	0.027
Mof_C 	C 	0.64524	0.15104	0.01213	0.027
Mof_C 	C 	0.84896	0.4942	0.01213	0.027
Mof_C 	C 	0.4942	0.64524	0.98787	0.027
Mof_C 	C 	0.35476	0.84896	0.98787	0.027
Mof_C 	C 	0.15104	0.5058	0.98787	0.027
Mof_C 	C 	0.17247	0.68809	0.34546	0.027
Mof_C 	C 	0.31191	0.48437	0.34546	0.027
Mof_C 	C 	0.51563	0.82753	0.34546	0.027
Mof_C 	C 	0.16087	0.97857	0.3212	0.027
Mof_C 	C 	0.02143	0.18229	0.3212	0.027
Mof_C 	C 	0.81771	0.83913	0.3212	0.027
Mof_C 	C 	0.83913	0.02143	0.6788	0.027
Mof_C 	C 	0.97857	0.81771	0.6788	0.027
Mof_C 	C 	0.18229	0.16087	0.6788	0.027
Mof_C 	C 	0.82753	0.31191	0.65454	0.027
Mof_C 	C 	0.68809	0.51563	0.65454	0.027
Mof_C 	C 	0.48437	0.17247	0.65454	0.027
Mof_C 	C 	0.48145	0.32779	0.97313	-0.068
Mof_C 	C 	0.67221	0.15366	0.97313	-0.068
Mof_C 	C 	0.84634	0.51855	0.97313	-0.068
Mof_C 	C 	0.51855	0.67221	0.02687	-0.068
Mof_C 	C 	0.32779	0.84634	0.02687	-0.068
Mof_C 	C 	0.15366	0.48145	0.02687	-0.068
Mof_C 	C 	0.14812	0.66112	0.30646	-0.068
Mof_C 	C 	0.33888	0.48699	0.30646	-0.068
Mof_C 	C 	0.51301	0.85188	0.30646	-0.068
Mof_C 	C 	0.18522	0.00554	0.3602	-0.068
Mof_C 	C 	0.99446	0.17967	0.3602	-0.068
Mof_C 	C 	0.82033	0.81478	0.3602	-0.068
Mof_C 	C 	0.81478	0.99446	0.6398	-0.068
Mof_C 	C 	0.00554	0.82033	0.6398	-0.068
Mof_C 	C 	0.17967	0.18522	0.6398	-0.068
Mof_C 	C 	0.85188	0.33888	0.69354	-0.068
Mof_C 	C 	0.66112	0.51301	0.69354	-0.068
Mof_C 	C 	0.48699	0.14812	0.69354	-0.068
Mof_C 	C 	0.48848	0.29913	0.95953	-0.013
Mof_C 	C 	0.70087	0.18935	0.95953	-0.013
Mof_C 	C 	0.81065	0.51152	0.95953	-0.013
Mof_C 	C 	0.51152	0.70087	0.04047	-0.013
Mof_C 	C 	0.29913	0.81065	0.04047	-0.013
Mof_C 	C 	0.18935	0.48848	0.04047	-0.013
Mof_C 	C 	0.15515	0.63246	0.29286	-0.013
Mof_C 	C 	0.36754	0.52268	0.29286	-0.013
Mof_C 	C 	0.47732	0.84485	0.29286	-0.013
Mof_C 	C 	0.17819	0.0342	0.3738	-0.013
Mof_C 	C 	0.9658	0.14398	0.3738	-0.013
Mof_C 	C 	0.85602	0.82181	0.3738	-0.013
Mof_C 	C 	0.82181	0.9658	0.6262	-0.013
Mof_C 	C 	0.0342	0.85602	0.6262	-0.013
Mof_C 	C 	0.14398	0.17819	0.6262	-0.013
Mof_C 	C 	0.84485	0.36754	0.70714	-0.013
Mof_C 	C 	0.63246	0.47732	0.70714	-0.013
Mof_C 	C 	0.52268	0.15515	0.70714	-0.013
Mof_C 	C 	0.5072	0.29397	0.00463	0
Mof_C 	C 	0.70603	0.21323	0.00463	0
Mof_C 	C 	0.78677	0.4928	0.00463	0
Mof_C 	C 	0.4928	0.70603	0.99537	0
Mof_C 	C 	0.29397	0.78677	0.99537	0
Mof_C 	C 	0.21323	0.5072	0.99537	0
Mof_C 	C 	0.17387	0.6273	0.33796	0
Mof_C 	C 	0.3727	0.54656	0.33796	0
Mof_C 	C 	0.45344	0.82613	0.33796	0
Mof_C 	C 	0.15947	0.03936	0.3287	0
Mof_C 	C 	0.96064	0.1201	0.3287	0
Mof_C 	C 	0.8799	0.84053	0.3287	0
Mof_C 	C 	0.84053	0.96064	0.6713	0
Mof_C 	C 	0.03936	0.8799	0.6713	0
Mof_C 	C 	0.1201	0.15947	0.6713	0
Mof_C 	C 	0.82613	0.3727	0.66204	0
Mof_C 	C 	0.6273	0.45344	0.66204	0
Mof_C 	C 	0.54656	0.17387	0.66204	0
Mof_C 	C 	0.7137	0.7006	0.3864	0.249
Mof_C 	C 	0.2994	0.0131	0.3864	0.249
Mof_C 	C 	0.9869	0.2863	0.3864	0.249
Mof_C 	C 	0.2863	0.2994	0.6136	0.249
Mof_C 	C 	0.7006	0.9869	0.6136	0.249
Mof_C 	C 	0.0131	0.7137	0.6136	0.249
Mof_C 	C 	0.38037	0.03393	0.71973	0.249
Mof_C 	C 	0.96607	0.34643	0.71973	0.249
Mof_C 	C 	0.65357	0.61963	0.71973	0.249
Mof_C 	C 	0.95297	0.63273	0.94693	0.249
Mof_C 	C 	0.36727	0.32023	0.94693	0.249
Mof_C 	C 	0.67977	0.04703	0.94693	0.249
Mof_C 	C 	0.04703	0.36727	0.05307	0.249
Mof_C 	C 	0.63273	0.67977	0.05307	0.249
Mof_C 	C 	0.32023	0.95297	0.05307	0.249
Mof_C 	C 	0.61963	0.96607	0.28027	0.249
Mof_C 	C 	0.03393	0.65357	0.28027	0.249
Mof_C 	C 	0.34643	0.38037	0.28027	0.249
Mof_C 	C 	0.51147	0.26383	0.02133	-0.034
Mof_C 	C 	0.73617	0.24764	0.02133	-0.034
Mof_C 	C 	0.75236	0.48853	0.02133	-0.034
Mof_C 	C 	0.48853	0.73617	0.97867	-0.034
Mof_C 	C 	0.26383	0.75236	0.97867	-0.034
Mof_C 	C 	0.24764	0.51147	0.97867	-0.034
Mof_C 	C 	0.17814	0.59716	0.35466	-0.034
Mof_C 	C 	0.40284	0.58097	0.35466	-0.034
Mof_C 	C 	0.41903	0.82186	0.35466	-0.034
Mof_C 	C 	0.1552	0.0695	0.312	-0.034
Mof_C 	C 	0.9305	0.08569	0.312	-0.034
Mof_C 	C 	0.91431	0.8448	0.312	-0.034
Mof_C 	C 	0.8448	0.9305	0.688	-0.034
Mof_C 	C 	0.0695	0.91431	0.688	-0.034
Mof_C 	C 	0.08569	0.1552	0.688	-0.034
Mof_C 	C 	0.82186	0.40284	0.64534	-0.034
Mof_C 	C 	0.59716	0.41903	0.64534	-0.034
Mof_C 	C 	0.58097	0.17814	0.64534	-0.034
Mof_C 	C 	0.6894	0.5888	0.338	-0.037
Mof_C 	C 	0.4112	0.1006	0.338	-0.037
Mof_C 	C 	0.8994	0.3106	0.338	-0.037
Mof_C 	C 	0.3106	0.4112	0.662	-0.037
Mof_C 	C 	0.5888	0.8994	0.662	-0.037
Mof_C 	C 	0.1006	0.6894	0.662	-0.037
Mof_C 	C 	0.35607	0.92213	0.67133	-0.037
Mof_C 	C 	0.07787	0.43393	0.67133	-0.037
Mof_C 	C 	0.56607	0.64393	0.67133	-0.037
Mof_C 	C 	0.97727	0.74453	0.99533	-0.037
Mof_C 	C 	0.25547	0.23273	0.99533	-0.038
Mof_C 	C 	0.76727	0.02273	0.99533	-0.037
Mof_C 	C 	0.02273	0.25547	0.00467	-0.037
Mof_C 	C 	0.74453	0.76727	0.00467	-0.038
Mof_C 	C 	0.23273	0.97727	0.00467	-0.037
Mof_C 	C 	0.64393	0.07787	0.32867	-0.037
Mof_C 	C 	0.92213	0.56607	0.32867	-0.037
Mof_C 	C 	0.43393	0.35607	0.32867	-0.037
Mof_C 	C 	0.45637	0.33173	0.93523	0.303
Mof_C 	C 	0.66827	0.12464	0.93523	0.303
Mof_C 	C 	0.87536	0.54363	0.93523	0.303
Mof_C 	C 	0.54363	0.66827	0.06477	0.303
Mof_C 	C 	0.33173	0.87536	0.06477	0.303
Mof_C 	C 	0.12464	0.45637	0.06477	0.303
Mof_C 	C 	0.12304	0.66506	0.26856	0.303
Mof_C 	C 	0.33494	0.45797	0.26856	0.303
Mof_C 	C 	0.54203	0.87696	0.26856	0.303
Mof_C 	C 	0.2103	0.0016	0.3981	0.303
Mof_C 	C 	0.9984	0.20869	0.3981	0.303
Mof_C 	C 	0.79131	0.7897	0.3981	0.303
Mof_C 	C 	0.7897	0.9984	0.6019	0.303
Mof_C 	C 	0.0016	0.79131	0.6019	0.303
Mof_C 	C 	0.20869	0.2103	0.6019	0.303
Mof_C 	C 	0.87696	0.33494	0.73144	0.303
Mof_C 	C 	0.66506	0.54203	0.73144	0.303
Mof_C 	C 	0.45797	0.12304	0.73144	0.303
Mof_C 	C 	0.6686	0.5916	0.301	-0.034
Mof_C 	C 	0.4084	0.077	0.301	-0.034
Mof_C 	C 	0.923	0.3314	0.301	-0.034
Mof_C 	C 	0.3314	0.4084	0.699	-0.034
Mof_C 	C 	0.5916	0.923	0.699	-0.034
Mof_C 	C 	0.077	0.6686	0.699	-0.034
Mof_C 	C 	0.33527	0.92493	0.63433	-0.034
Mof_C 	C 	0.07507	0.41033	0.63433	-0.034
Mof_C 	C 	0.58967	0.66473	0.63433	-0.034
Mof_C 	C 	0.99807	0.74173	0.03233	-0.034
Mof_C 	C 	0.25827	0.25633	0.03233	-0.034
Mof_C 	C 	0.74367	0.00193	0.03233	-0.034
Mof_C 	C 	0.00193	0.25827	0.96767	-0.034
Mof_C 	C 	0.74173	0.74367	0.96767	-0.034
Mof_C 	C 	0.25633	0.99807	0.96767	-0.034
Mof_C 	C 	0.66473	0.07507	0.36567	-0.034
Mof_C 	C 	0.92493	0.58967	0.36567	-0.034
Mof_C 	C 	0.41033	0.33527	0.36567	-0.034
Mof_C 	C 	0.8238	0.9119	0.6501	-0.032
Mof_C 	C 	0.0881	0.9119	0.6501	-0.032
Mof_C 	C 	0.0881	0.1762	0.6501	-0.032
Mof_C 	C 	0.1762	0.0881	0.3499	-0.032
Mof_C 	C 	0.9119	0.0881	0.3499	-0.032
Mof_C 	C 	0.9119	0.8238	0.3499	-0.032
Mof_C 	C 	0.49047	0.24523	0.98343	-0.032
Mof_C 	C 	0.75477	0.24523	0.98343	-0.032
Mof_C 	C 	0.75477	0.50953	0.98343	-0.032
Mof_C 	C 	0.84287	0.42143	0.68323	-0.032
Mof_C 	C 	0.57857	0.42143	0.68323	-0.032
Mof_C 	C 	0.57857	0.15713	0.68323	-0.032
Mof_C 	C 	0.15713	0.57857	0.31677	-0.032
Mof_C 	C 	0.42143	0.57857	0.31677	-0.032
Mof_C 	C 	0.42143	0.84287	0.31677	-0.032
Mof_C 	C 	0.50953	0.75477	0.01657	-0.032
Mof_C 	C 	0.24523	0.75477	0.01657	-0.032
Mof_C 	C 	0.24523	0.49047	0.01657	-0.032
Mof_C 	C 	0.6334	0.469	0.2513	0.32
Mof_C 	C 	0.531	0.1644	0.2513	0.32
Mof_C 	C 	0.8356	0.3666	0.2513	0.32
Mof_C 	C 	0.3666	0.531	0.7487	0.32
Mof_C 	C 	0.469	0.8356	0.7487	0.32
Mof_C 	C 	0.1644	0.6334	0.7487	0.32
Mof_C 	C 	0.30007	0.80233	0.58463	0.32
Mof_C 	C 	0.19767	0.49773	0.58463	0.32
Mof_C 	C 	0.50227	0.69993	0.58463	0.32
Mof_C 	C 	0.03327	0.86433	0.08203	0.32
Mof_C 	C 	0.13567	0.16893	0.08203	0.32
Mof_C 	C 	0.83107	0.96673	0.08203	0.32
Mof_C 	C 	0.96673	0.13567	0.91797	0.32
Mof_C 	C 	0.86433	0.83107	0.91797	0.32
Mof_C 	C 	0.16893	0.03327	0.91797	0.32
Mof_C 	C 	0.69993	0.19767	0.41537	0.32
Mof_C 	C 	0.80233	0.50227	0.41537	0.32
Mof_C 	C 	0.49773	0.30007	0.41537	0.32
Mof_C 	C 	0.55707	0.38013	0.08213	0.308
Mof_C 	C 	0.61987	0.17694	0.08213	0.308
Mof_C 	C 	0.82306	0.44293	0.08213	0.308
Mof_C 	C 	0.44293	0.61987	0.91787	0.308
Mof_C 	C 	0.38013	0.82306	0.91787	0.308
Mof_C 	C 	0.17694	0.55707	0.91787	0.308
Mof_C 	C 	0.22374	0.71346	0.41546	0.308
Mof_C 	C 	0.28654	0.51027	0.41546	0.308
Mof_C 	C 	0.48973	0.77626	0.41546	0.308
Mof_C 	C 	0.1096	0.9532	0.2512	0.308
Mof_C 	C 	0.0468	0.15639	0.2512	0.308
Mof_C 	C 	0.84361	0.8904	0.2512	0.308
Mof_C 	C 	0.8904	0.0468	0.7488	0.308
Mof_C 	C 	0.9532	0.84361	0.7488	0.308
Mof_C 	C 	0.15639	0.1096	0.7488	0.308
Mof_C 	C 	0.77626	0.28654	0.58454	0.308
Mof_C 	C 	0.71346	0.48973	0.58454	0.308
Mof_C 	C 	0.51027	0.22374	0.58454	0.308
Mof_C 	C 	0.7811	0.8001	0.5601	0.267
Mof_C 	C 	0.1999	0.981	0.5601	0.267
Mof_C 	C 	0.019	0.2189	0.5601	0.267
Mof_C 	C 	0.2189	0.1999	0.4399	0.267
Mof_C 	C 	0.8001	0.019	0.4399	0.267
Mof_C 	C 	0.981	0.7811	0.4399	0.267
Mof_C 	C 	0.44777	0.13343	0.89343	0.267
Mof_C 	C 	0.86657	0.31433	0.89343	0.267
Mof_C 	C 	0.68567	0.55223	0.89343	0.267
Mof_C 	C 	0.88557	0.53323	0.77323	0.267
Mof_C 	C 	0.46677	0.35233	0.77323	0.267
Mof_C 	C 	0.64767	0.11443	0.77323	0.267
Mof_C 	C 	0.11443	0.46677	0.22677	0.267
Mof_C 	C 	0.53323	0.64767	0.22677	0.267
Mof_C 	C 	0.35233	0.88557	0.22677	0.267
Mof_C 	C 	0.55223	0.86657	0.10657	0.267
Mof_C 	C 	0.13343	0.68567	0.10657	0.267
Mof_C 	C 	0.31433	0.44777	0.10657	0.267
Mof_C 	C 	0.6178	0.6537	0.2227	0.291
Mof_C 	C 	0.3463	0.9641	0.2227	0.292
Mof_C 	C 	0.0359	0.3822	0.2227	0.291
Mof_C 	C 	0.3822	0.3463	0.7773	0.291
Mof_C 	C 	0.6537	0.0359	0.7773	0.292
Mof_C 	C 	0.9641	0.6178	0.7773	0.291
Mof_C 	C 	0.28447	0.98703	0.55603	0.291
Mof_C 	C 	0.01297	0.29743	0.55603	0.292
Mof_C 	C 	0.70257	0.71553	0.55603	0.291
Mof_C 	C 	0.04887	0.67963	0.11063	0.291
Mof_C 	C 	0.32037	0.36923	0.11063	0.291
Mof_C 	C 	0.63077	0.95113	0.11063	0.291
Mof_C 	C 	0.95113	0.32037	0.88937	0.291
Mof_C 	C 	0.67963	0.63077	0.88937	0.291
Mof_C 	C 	0.36923	0.04887	0.88937	0.291
Mof_C 	C 	0.71553	0.01297	0.44397	0.291
Mof_C 	C 	0.98703	0.70257	0.44397	0.292
Mof_C 	C 	0.29743	0.28447	0.44397	0.291
Mof_C 	C 	0.8689	0.838	0.7442	0.305
Mof_C 	C 	0.162	0.0309	0.7442	0.305
Mof_C 	C 	0.9691	0.1311	0.7442	0.305
Mof_C 	C 	0.1311	0.162	0.2558	0.305
Mof_C 	C 	0.838	0.9691	0.2558	0.305
Mof_C 	C 	0.0309	0.8689	0.2558	0.305
Mof_C 	C 	0.53557	0.17133	0.07753	0.305
Mof_C 	C 	0.82867	0.36423	0.07753	0.305
Mof_C 	C 	0.63577	0.46443	0.07753	0.305
Mof_C 	C 	0.79777	0.49533	0.58913	0.305
Mof_C 	C 	0.50467	0.30243	0.58913	0.305
Mof_C 	C 	0.69757	0.20223	0.58913	0.305
Mof_C 	C 	0.20223	0.50467	0.41087	0.305
Mof_C 	C 	0.49533	0.69757	0.41087	0.305
Mof_C 	C 	0.30243	0.79777	0.41087	0.305
Mof_C 	C 	0.46443	0.82867	0.92247	0.305
Mof_C 	C 	0.17133	0.63577	0.92247	0.305
Mof_C 	C 	0.36423	0.53557	0.92247	0.305
Mof_C 	C 	0.7271	0.5149	0.4107	0.04
Mof_C 	C 	0.4851	0.2122	0.4107	0.04
Mof_C 	C 	0.7878	0.2729	0.4107	0.04
Mof_C 	C 	0.2729	0.4851	0.5893	0.04
Mof_C 	C 	0.5149	0.7878	0.5893	0.04
Mof_C 	C 	0.2122	0.7271	0.5893	0.04
Mof_C 	C 	0.39377	0.84823	0.74403	0.04
Mof_C 	C 	0.15177	0.54553	0.74403	0.04
Mof_C 	C 	0.45447	0.60623	0.74403	0.04
Mof_C 	C 	0.93957	0.81843	0.92263	0.04
Mof_C 	C 	0.18157	0.12113	0.92263	0.04
Mof_C 	C 	0.87887	0.06043	0.92263	0.04
Mof_C 	C 	0.06043	0.18157	0.07737	0.04
Mof_C 	C 	0.81843	0.87887	0.07737	0.04
Mof_C 	C 	0.12113	0.93957	0.07737	0.04
Mof_C 	C 	0.60623	0.15177	0.25597	0.04
Mof_C 	C 	0.84823	0.45447	0.25597	0.04
Mof_C 	C 	0.54553	0.39377	0.25597	0.04
Mof_O 	O 	0.7352	0.7045	0.4248	-0.354
Mof_O 	O 	0.2955	0.0307	0.4248	-0.354
Mof_O 	O 	0.9693	0.2648	0.4248	-0.354
Mof_O 	O 	0.2648	0.2955	0.5752	-0.354
Mof_O 	O 	0.7045	0.9693	0.5752	-0.354
Mof_O 	O 	0.0307	0.7352	0.5752	-0.354
Mof_O 	O 	0.40187	0.03783	0.75813	-0.354
Mof_O 	O 	0.96217	0.36403	0.75813	-0.354
Mof_O 	O 	0.63597	0.59813	0.75813	-0.354
Mof_O 	O 	0.93147	0.62883	0.90853	-0.354
Mof_O 	O 	0.37117	0.30263	0.90853	-0.354
Mof_O 	O 	0.69737	0.06853	0.90853	-0.354
Mof_O 	O 	0.06853	0.37117	0.09147	-0.354
Mof_O 	O 	0.62883	0.69737	0.09147	-0.354
Mof_O 	O 	0.30263	0.93147	0.09147	-0.354
Mof_O 	O 	0.59813	0.96217	0.24187	-0.354
Mof_O 	O 	0.03783	0.63597	0.24187	-0.354
Mof_O 	O 	0.36403	0.40187	0.24187	-0.354
Mof_O 	O 	0.43487	0.30463	0.90373	-0.357
Mof_O 	O 	0.69537	0.13024	0.90373	-0.357
Mof_O 	O 	0.86976	0.56513	0.90373	-0.357
Mof_O 	O 	0.56513	0.69537	0.09627	-0.357
Mof_O 	O 	0.30463	0.86976	0.09627	-0.357
Mof_O 	O 	0.13024	0.43487	0.09627	-0.357
Mof_O 	O 	0.10154	0.63796	0.23706	-0.357
Mof_O 	O 	0.36204	0.46357	0.23706	-0.357
Mof_O 	O 	0.53643	0.89846	0.23706	-0.357
Mof_O 	O 	0.2318	0.0287	0.4296	-0.357
Mof_O 	O 	0.9713	0.20309	0.4296	-0.357
Mof_O 	O 	0.79691	0.7682	0.4296	-0.357
Mof_O 	O 	0.7682	0.9713	0.5704	-0.357
Mof_O 	O 	0.0287	0.79691	0.5704	-0.357
Mof_O 	O 	0.20309	0.2318	0.5704	-0.357
Mof_O 	O 	0.89846	0.36204	0.76294	-0.357
Mof_O 	O 	0.63796	0.53643	0.76294	-0.357
Mof_O 	O 	0.46357	0.10154	0.76294	-0.357
Mof_O 	O 	0.7067	0.7317	0.4054	-0.296
Mof_O 	O 	0.2683	0.975	0.4054	-0.296
Mof_O 	O 	0.025	0.2933	0.4054	-0.296
Mof_O 	O 	0.2933	0.2683	0.5946	-0.296
Mof_O 	O 	0.7317	0.025	0.5946	-0.296
Mof_O 	O 	0.975	0.7067	0.5946	-0.296
Mof_O 	O 	0.37337	0.06503	0.73873	-0.296
Mof_O 	O 	0.93497	0.30833	0.73873	-0.296
Mof_O 	O 	0.69167	0.62663	0.73873	-0.296
Mof_O 	O 	0.95997	0.60163	0.92793	-0.296
Mof_O 	O 	0.39837	0.35833	0.92793	-0.296
Mof_O 	O 	0.64167	0.04003	0.92793	-0.296
Mof_O 	O 	0.04003	0.39837	0.07207	-0.296
Mof_O 	O 	0.60163	0.64167	0.07207	-0.296
Mof_O 	O 	0.35833	0.95997	0.07207	-0.296
Mof_O 	O 	0.62663	0.93497	0.26127	-0.296
Mof_O 	O 	0.06503	0.69167	0.26127	-0.296
Mof_O 	O 	0.30833	0.37337	0.26127	-0.296
Mof_O 	O 	0.46257	0.36093	0.92413	-0.357
Mof_O 	O 	0.63907	0.10164	0.92413	-0.357
Mof_O 	O 	0.89836	0.53743	0.92413	-0.357
Mof_O 	O 	0.53743	0.63907	0.07587	-0.357
Mof_O 	O 	0.36093	0.89836	0.07587	-0.357
Mof_O 	O 	0.10164	0.46257	0.07587	-0.357
Mof_O 	O 	0.12924	0.69426	0.25746	-0.357
Mof_O 	O 	0.30574	0.43497	0.25746	-0.357
Mof_O 	O 	0.56503	0.87076	0.25746	-0.357
Mof_O 	O 	0.2041	0.9724	0.4092	-0.357
Mof_O 	O 	0.0276	0.23169	0.4092	-0.357
Mof_O 	O 	0.76831	0.7959	0.4092	-0.357
Mof_O 	O 	0.7959	0.0276	0.5908	-0.357
Mof_O 	O 	0.9724	0.76831	0.5908	-0.357
Mof_O 	O 	0.23169	0.2041	0.5908	-0.357
Mof_O 	O 	0.87076	0.30574	0.74254	-0.357
Mof_O 	O 	0.69426	0.56503	0.74254	-0.357
Mof_O 	O 	0.43497	0.12924	0.74254	-0.357
Mof_O 	O 	0.55337	0.40973	0.09943	-0.337
Mof_O 	O 	0.59027	0.14364	0.09943	-0.337
Mof_O 	O 	0.85636	0.44663	0.09943	-0.337
Mof_O 	O 	0.44663	0.59027	0.90057	-0.337
Mof_O 	O 	0.40973	0.85636	0.90057	-0.337
Mof_O 	O 	0.14364	0.55337	0.90057	-0.337
Mof_O 	O 	0.22004	0.74306	0.43276	-0.337
Mof_O 	O 	0.25694	0.47697	0.43276	-0.337
Mof_O 	O 	0.52303	0.77996	0.43276	-0.337
Mof_O 	O 	0.1133	0.9236	0.2339	-0.337
Mof_O 	O 	0.0764	0.18969	0.2339	-0.337
Mof_O 	O 	0.81031	0.8867	0.2339	-0.337
Mof_O 	O 	0.8867	0.0764	0.7661	-0.337
Mof_O 	O 	0.9236	0.81031	0.7661	-0.337
Mof_O 	O 	0.18969	0.1133	0.7661	-0.337
Mof_O 	O 	0.77996	0.25694	0.56724	-0.337
Mof_O 	O 	0.74306	0.52303	0.56724	-0.337
Mof_O 	O 	0.47697	0.22004	0.56724	-0.337
Mof_O 	O 	0.58017	0.38503	0.12793	-0.618
Mof_O 	O 	0.61497	0.19514	0.12793	-0.618
Mof_O 	O 	0.80486	0.41983	0.12793	-0.618
Mof_O 	O 	0.41983	0.61497	0.87207	-0.618
Mof_O 	O 	0.38503	0.80486	0.87207	-0.618
Mof_O 	O 	0.19514	0.58017	0.87207	-0.618
Mof_O 	O 	0.24684	0.71836	0.46126	-0.618
Mof_O 	O 	0.28164	0.52847	0.46126	-0.618
Mof_O 	O 	0.47153	0.75316	0.46126	-0.618
Mof_O 	O 	0.0865	0.9483	0.2054	-0.618
Mof_O 	O 	0.0517	0.13819	0.2054	-0.618
Mof_O 	O 	0.86181	0.9135	0.2054	-0.618
Mof_O 	O 	0.9135	0.0517	0.7946	-0.618
Mof_O 	O 	0.9483	0.86181	0.7946	-0.618
Mof_O 	O 	0.13819	0.0865	0.7946	-0.618
Mof_O 	O 	0.75316	0.28164	0.53874	-0.618
Mof_O 	O 	0.71836	0.47153	0.53874	-0.618
Mof_O 	O 	0.52847	0.24684	0.53874	-0.618
Mof_O 	O 	0.8916	0.865	0.776	-0.455
Mof_O 	O 	0.135	0.0266	0.776	-0.455
Mof_O 	O 	0.9734	0.1084	0.776	-0.455
Mof_O 	O 	0.1084	0.135	0.224	-0.455
Mof_O 	O 	0.865	0.9734	0.224	-0.455
Mof_O 	O 	0.0266	0.8916	0.224	-0.455
Mof_O 	O 	0.55827	0.19833	0.10933	-0.455
Mof_O 	O 	0.80167	0.35993	0.10933	-0.455
Mof_O 	O 	0.64007	0.44173	0.10933	-0.455
Mof_O 	O 	0.77507	0.46833	0.55733	-0.455
Mof_O 	O 	0.53167	0.30673	0.55733	-0.455
Mof_O 	O 	0.69327	0.22493	0.55733	-0.455
Mof_O 	O 	0.22493	0.53167	0.44267	-0.455
Mof_O 	O 	0.46833	0.69327	0.44267	-0.455
Mof_O 	O 	0.30673	0.77507	0.44267	-0.455
Mof_O 	O 	0.44173	0.80167	0.89067	-0.455
Mof_O 	O 	0.19833	0.64007	0.89067	-0.455
Mof_O 	O 	0.35993	0.55827	0.89067	-0.455
Mof_O 	O 	0.8653	0.8078	0.7577	-0.387
Mof_O 	O 	0.1922	0.0575	0.7577	-0.387
Mof_O 	O 	0.9425	0.1347	0.7577	-0.387
Mof_O 	O 	0.1347	0.1922	0.2423	-0.387
Mof_O 	O 	0.8078	0.9425	0.2423	-0.387
Mof_O 	O 	0.0575	0.8653	0.2423	-0.387
Mof_O 	O 	0.53197	0.14113	0.09103	-0.387
Mof_O 	O 	0.85887	0.39083	0.09103	-0.387
Mof_O 	O 	0.60917	0.46803	0.09103	-0.387
Mof_O 	O 	0.80137	0.52553	0.57563	-0.387
Mof_O 	O 	0.47447	0.27583	0.57563	-0.388
Mof_O 	O 	0.72417	0.19863	0.57563	-0.387
Mof_O 	O 	0.19863	0.47447	0.42437	-0.387
Mof_O 	O 	0.52553	0.72417	0.42437	-0.388
Mof_O 	O 	0.27583	0.80137	0.42437	-0.387
Mof_O 	O 	0.46803	0.85887	0.90897	-0.387
Mof_O 	O 	0.14113	0.60917	0.90897	-0.387
Mof_O 	O 	0.39083	0.53197	0.90897	-0.387
Mof_O 	O 	0.6126	0.4753	0.2205	-0.378
Mof_O 	O 	0.5247	0.1373	0.2205	-0.378
Mof_O 	O 	0.8627	0.3874	0.2205	-0.378
Mof_O 	O 	0.3874	0.5247	0.7795	-0.378
Mof_O 	O 	0.4753	0.8627	0.7795	-0.378
Mof_O 	O 	0.1373	0.6126	0.7795	-0.378
Mof_O 	O 	0.27927	0.80863	0.55383	-0.378
Mof_O 	O 	0.19137	0.47063	0.55383	-0.378
Mof_O 	O 	0.52937	0.72073	0.55383	-0.378
Mof_O 	O 	0.05407	0.85803	0.11283	-0.378
Mof_O 	O 	0.14197	0.19603	0.11283	-0.378
Mof_O 	O 	0.80397	0.94593	0.11283	-0.378
Mof_O 	O 	0.94593	0.14197	0.88717	-0.378
Mof_O 	O 	0.85803	0.80397	0.88717	-0.378
Mof_O 	O 	0.19603	0.05407	0.88717	-0.378
Mof_O 	O 	0.72073	0.19137	0.44617	-0.378
Mof_O 	O 	0.80863	0.52937	0.44617	-0.378
Mof_O 	O 	0.47063	0.27927	0.44617	-0.378
Mof_O 	O 	0.6344	0.4408	0.243	-0.559
Mof_O 	O 	0.5592	0.1936	0.243	-0.559
Mof_O 	O 	0.8064	0.3656	0.243	-0.559
Mof_O 	O 	0.3656	0.5592	0.757	-0.559
Mof_O 	O 	0.4408	0.8064	0.757	-0.559
Mof_O 	O 	0.1936	0.6344	0.757	-0.559
Mof_O 	O 	0.30107	0.77413	0.57633	-0.559
Mof_O 	O 	0.22587	0.52693	0.57633	-0.559
Mof_O 	O 	0.47307	0.69893	0.57633	-0.559
Mof_O 	O 	0.03227	0.89253	0.09033	-0.559
Mof_O 	O 	0.10747	0.13973	0.09033	-0.559
Mof_O 	O 	0.86027	0.96773	0.09033	-0.559
Mof_O 	O 	0.96773	0.10747	0.90967	-0.559
Mof_O 	O 	0.89253	0.86027	0.90967	-0.559
Mof_O 	O 	0.13973	0.03227	0.90967	-0.559
Mof_O 	O 	0.69893	0.22587	0.42367	-0.559
Mof_O 	O 	0.77413	0.47307	0.42367	-0.559
Mof_O 	O 	0.52693	0.30107	0.42367	-0.559
Mof_O 	O 	0.6228	0.6866	0.22	-0.353
Mof_O 	O 	0.3134	0.9362	0.22	-0.353
Mof_O 	O 	0.0638	0.3772	0.22	-0.353
Mof_O 	O 	0.3772	0.3134	0.78	-0.353
Mof_O 	O 	0.6866	0.0638	0.78	-0.353
Mof_O 	O 	0.9362	0.6228	0.78	-0.353
Mof_O 	O 	0.28947	0.01993	0.55333	-0.353
Mof_O 	O 	0.98007	0.26953	0.55333	-0.353
Mof_O 	O 	0.73047	0.71053	0.55333	-0.353
Mof_O 	O 	0.04387	0.64673	0.11333	-0.353
Mof_O 	O 	0.35327	0.39713	0.11333	-0.353
Mof_O 	O 	0.60287	0.95613	0.11333	-0.353
Mof_O 	O 	0.95613	0.35327	0.88667	-0.353
Mof_O 	O 	0.64673	0.60287	0.88667	-0.353
Mof_O 	O 	0.39713	0.04387	0.88667	-0.353
Mof_O 	O 	0.71053	0.98007	0.44667	-0.353
Mof_O 	O 	0.01993	0.73047	0.44667	-0.353
Mof_O 	O 	0.26953	0.28947	0.44667	-0.353
Mof_O 	O 	0.5918	0.6352	0.1826	-0.492
Mof_O 	O 	0.3648	0.9566	0.1826	-0.492
Mof_O 	O 	0.0434	0.4082	0.1826	-0.492
Mof_O 	O 	0.4082	0.3648	0.8174	-0.492
Mof_O 	O 	0.6352	0.0434	0.8174	-0.492
Mof_O 	O 	0.9566	0.5918	0.8174	-0.492
Mof_O 	O 	0.25847	0.96853	0.51593	-0.492
Mof_O 	O 	0.03147	0.28993	0.51593	-0.492
Mof_O 	O 	0.71007	0.74153	0.51593	-0.492
Mof_O 	O 	0.07487	0.69813	0.15073	-0.492
Mof_O 	O 	0.30187	0.37673	0.15073	-0.492
Mof_O 	O 	0.62327	0.92513	0.15073	-0.492
Mof_O 	O 	0.92513	0.30187	0.84927	-0.492
Mof_O 	O 	0.69813	0.62327	0.84927	-0.492
Mof_O 	O 	0.37673	0.07487	0.84927	-0.492
Mof_O 	O 	0.74153	0.03147	0.48407	-0.492
Mof_O 	O 	0.96853	0.71007	0.48407	-0.492
Mof_O 	O 	0.28993	0.25847	0.48407	-0.492
Mof_O 	O 	0.7892	0.774	0.5552	-0.321
Mof_O 	O 	0.226	0.0152	0.5552	-0.321
Mof_O 	O 	0.9848	0.2108	0.5552	-0.321
Mof_O 	O 	0.2108	0.226	0.4448	-0.321
Mof_O 	O 	0.774	0.9848	0.4448	-0.321
Mof_O 	O 	0.0152	0.7892	0.4448	-0.321
Mof_O 	O 	0.45587	0.10733	0.88853	-0.321
Mof_O 	O 	0.89267	0.34853	0.88853	-0.321
Mof_O 	O 	0.65147	0.54413	0.88853	-0.321
Mof_O 	O 	0.87747	0.55933	0.77813	-0.321
Mof_O 	O 	0.44067	0.31813	0.77813	-0.321
Mof_O 	O 	0.68187	0.12253	0.77813	-0.321
Mof_O 	O 	0.12253	0.44067	0.22187	-0.321
Mof_O 	O 	0.55933	0.68187	0.22187	-0.321
Mof_O 	O 	0.31813	0.87747	0.22187	-0.321
Mof_O 	O 	0.54413	0.89267	0.11147	-0.321
Mof_O 	O 	0.10733	0.65147	0.11147	-0.321
Mof_O 	O 	0.34853	0.45587	0.11147	-0.321
Mof_O 	O 	0.7553	0.7888	0.5153	-0.498
Mof_O 	O 	0.2112	0.9665	0.5153	-0.498
Mof_O 	O 	0.0335	0.2447	0.5153	-0.498
Mof_O 	O 	0.2447	0.2112	0.4847	-0.498
Mof_O 	O 	0.7888	0.0335	0.4847	-0.498
Mof_O 	O 	0.9665	0.7553	0.4847	-0.498
Mof_O 	O 	0.42197	0.12213	0.84863	-0.498
Mof_O 	O 	0.87787	0.29983	0.84863	-0.498
Mof_O 	O 	0.70017	0.57803	0.84863	-0.498
Mof_O 	O 	0.91137	0.54453	0.81803	-0.498
Mof_O 	O 	0.45547	0.36683	0.81803	-0.498
Mof_O 	O 	0.63317	0.08863	0.81803	-0.498
Mof_O 	O 	0.08863	0.45547	0.18197	-0.498
Mof_O 	O 	0.54453	0.63317	0.18197	-0.498
Mof_O 	O 	0.36683	0.91137	0.18197	-0.498
Mof_O 	O 	0.57803	0.87787	0.15137	-0.498
Mof_O 	O 	0.12213	0.70017	0.15137	-0.498
Mof_O 	O 	0.29983	0.42197	0.15137	-0.498
Mof_O 	O 	0.7527	0.5306	0.4651	-0.462
Mof_O 	O 	0.4694	0.2221	0.4651	-0.461
Mof_O 	O 	0.7779	0.2473	0.4651	-0.462
Mof_O 	O 	0.2473	0.4694	0.5349	-0.462
Mof_O 	O 	0.5306	0.7779	0.5349	-0.461
Mof_O 	O 	0.2221	0.7527	0.5349	-0.462
Mof_O 	O 	0.41937	0.86393	0.79843	-0.462
Mof_O 	O 	0.13607	0.55543	0.79843	-0.461
Mof_O 	O 	0.44457	0.58063	0.79843	-0.462
Mof_O 	O 	0.91397	0.80273	0.86823	-0.461
Mof_O 	O 	0.19727	0.11123	0.86823	-0.462
Mof_O 	O 	0.88877	0.08603	0.86823	-0.462
Mof_O 	O 	0.08603	0.19727	0.13177	-0.461
Mof_O 	O 	0.80273	0.88877	0.13177	-0.462
Mof_O 	O 	0.11123	0.91397	0.13177	-0.462
Mof_O 	O 	0.58063	0.13607	0.20157	-0.462
Mof_O 	O 	0.86393	0.44457	0.20157	-0.461
Mof_O 	O 	0.55543	0.41937	0.20157	-0.462
Mof_H 	H 	0.72121	0.56829	0.40076	0.045
Mof_H 	H 	0.43171	0.15292	0.40076	0.045
Mof_H 	H 	0.84708	0.27879	0.40076	0.045
Mof_H 	H 	0.27879	0.43171	0.59924	0.045
Mof_H 	H 	0.56829	0.84708	0.59924	0.045
Mof_H 	H 	0.15292	0.72121	0.59924	0.045
Mof_H 	H 	0.38788	0.90162	0.73409	0.045
Mof_H 	H 	0.09838	0.48625	0.73409	0.045
Mof_H 	H 	0.51375	0.61212	0.73409	0.045
Mof_H 	H 	0.94546	0.76504	0.93257	0.045
Mof_H 	H 	0.23496	0.18041	0.93257	0.045
Mof_H 	H 	0.81959	0.05454	0.93257	0.045
Mof_H 	H 	0.05454	0.23496	0.06743	0.045
Mof_H 	H 	0.76504	0.81959	0.06743	0.045
Mof_H 	H 	0.18041	0.94546	0.06743	0.045
Mof_H 	H 	0.61212	0.09838	0.26591	0.045
Mof_H 	H 	0.90162	0.51375	0.26591	0.045
Mof_H 	H 	0.48625	0.38788	0.26591	0.045
Mof_H 	H 	0.67681	0.46608	0.33271	0.012
Mof_H 	H 	0.53392	0.21073	0.33271	0.012
Mof_H 	H 	0.78927	0.32319	0.33271	0.012
Mof_H 	H 	0.32319	0.53392	0.66729	0.012
Mof_H 	H 	0.46608	0.78927	0.66729	0.012
Mof_H 	H 	0.21073	0.67681	0.66729	0.012
Mof_H 	H 	0.34348	0.79941	0.66604	0.012
Mof_H 	H 	0.20059	0.54406	0.66604	0.012
Mof_H 	H 	0.45594	0.65652	0.66604	0.012
Mof_H 	H 	0.98986	0.86725	0.00062	0.012
Mof_H 	H 	0.13275	0.1226	0.00062	0.012
Mof_H 	H 	0.8774	0.01014	0.00062	0.012
Mof_H 	H 	0.01014	0.13275	0.99938	0.012
Mof_H 	H 	0.86725	0.8774	0.99938	0.012
Mof_H 	H 	0.1226	0.98986	0.99938	0.012
Mof_H 	H 	0.65652	0.20059	0.33396	0.012
Mof_H 	H 	0.79941	0.45594	0.33396	0.012
Mof_H 	H 	0.54406	0.34348	0.33396	0.012
Mof_H 	H 	0.64345	0.53198	0.2575	0.042
Mof_H 	H 	0.46802	0.11147	0.2575	0.042
Mof_H 	H 	0.88853	0.35655	0.2575	0.042
Mof_H 	H 	0.35655	0.46802	0.7425	0.042
Mof_H 	H 	0.53198	0.88853	0.7425	0.042
Mof_H 	H 	0.11147	0.64345	0.7425	0.042
Mof_H 	H 	0.31012	0.86531	0.59083	0.042
Mof_H 	H 	0.13469	0.4448	0.59083	0.042
Mof_H 	H 	0.5552	0.68988	0.59083	0.042
Mof_H 	H 	0.02322	0.80135	0.07583	0.042
Mof_H 	H 	0.19865	0.22186	0.07583	0.042
Mof_H 	H 	0.77814	0.97678	0.07583	0.042
Mof_H 	H 	0.97678	0.19865	0.92417	0.042
Mof_H 	H 	0.80135	0.77814	0.92417	0.042
Mof_H 	H 	0.22186	0.02322	0.92417	0.042
Mof_H 	H 	0.68988	0.13469	0.40917	0.042
Mof_H 	H 	0.86531	0.5552	0.40917	0.042
Mof_H 	H 	0.4448	0.31012	0.40917	0.042
Mof_H 	H 	0.66856	0.70693	0.3061	0.045
Mof_H 	H 	0.29307	0.96163	0.3061	0.045
Mof_H 	H 	0.03837	0.33144	0.3061	0.045
Mof_H 	H 	0.33144	0.29307	0.6939	0.045
Mof_H 	H 	0.70693	0.03837	0.6939	0.045
Mof_H 	H 	0.96163	0.66856	0.6939	0.045
Mof_H 	H 	0.33523	0.04026	0.63943	0.045
Mof_H 	H 	0.95974	0.29496	0.63943	0.045
Mof_H 	H 	0.70504	0.66477	0.63943	0.045
Mof_H 	H 	0.99811	0.6264	0.02723	0.045
Mof_H 	H 	0.3736	0.3717	0.02723	0.045
Mof_H 	H 	0.6283	0.00189	0.02723	0.045
Mof_H 	H 	0.00189	0.3736	0.97277	0.045
Mof_H 	H 	0.6264	0.6283	0.97277	0.045
Mof_H 	H 	0.3717	0.99811	0.97277	0.045
Mof_H 	H 	0.66477	0.95974	0.36057	0.045
Mof_H 	H 	0.04026	0.70504	0.36057	0.045
Mof_H 	H 	0.29496	0.33523	0.36057	0.045
Mof_H 	H 	0.6321	0.60572	0.23823	0.036
Mof_H 	H 	0.39428	0.02638	0.23823	0.036
Mof_H 	H 	0.97362	0.3679	0.23823	0.036
Mof_H 	H 	0.3679	0.39428	0.76177	0.036
Mof_H 	H 	0.60572	0.97362	0.76177	0.036
Mof_H 	H 	0.02638	0.6321	0.76177	0.036
Mof_H 	H 	0.29877	0.93905	0.57156	0.036
Mof_H 	H 	0.06095	0.35971	0.57156	0.036
Mof_H 	H 	0.64029	0.70123	0.57156	0.036
Mof_H 	H 	0.03457	0.72761	0.0951	0.036
Mof_H 	H 	0.27239	0.30695	0.0951	0.036
Mof_H 	H 	0.69305	0.96543	0.0951	0.036
Mof_H 	H 	0.96543	0.27239	0.9049	0.036
Mof_H 	H 	0.72761	0.69305	0.9049	0.036
Mof_H 	H 	0.30695	0.03457	0.9049	0.036
Mof_H 	H 	0.70123	0.06095	0.42844	0.036
Mof_H 	H 	0.93905	0.64029	0.42844	0.036
Mof_H 	H 	0.35971	0.29877	0.42844	0.036
Mof_H 	H 	0.71466	0.64301	0.3626	0.036
Mof_H 	H 	0.35699	0.07165	0.3626	0.036
Mof_H 	H 	0.92835	0.28534	0.3626	0.036
Mof_H 	H 	0.28534	0.35699	0.6374	0.036
Mof_H 	H 	0.64301	0.92835	0.6374	0.036
Mof_H 	H 	0.07165	0.71466	0.6374	0.036
Mof_H 	H 	0.38133	0.97634	0.69593	0.036
Mof_H 	H 	0.02366	0.40498	0.69593	0.036
Mof_H 	H 	0.59502	0.61867	0.69593	0.036
Mof_H 	H 	0.95201	0.69032	0.97073	0.036
Mof_H 	H 	0.30968	0.26168	0.97073	0.036
Mof_H 	H 	0.73832	0.04799	0.97073	0.036
Mof_H 	H 	0.04799	0.30968	0.02927	0.036
Mof_H 	H 	0.69032	0.73832	0.02927	0.036
Mof_H 	H 	0.26168	0.95201	0.02927	0.036
Mof_H 	H 	0.61867	0.02366	0.30407	0.036
Mof_H 	H 	0.97634	0.59502	0.30407	0.036
Mof_H 	H 	0.40498	0.38133	0.30407	0.036
Mof_H 	H 	0.87271	0.9004	0.71224	0.032
Mof_H 	H 	0.0996	0.97231	0.71224	0.032
Mof_H 	H 	0.02769	0.12729	0.71224	0.032
Mof_H 	H 	0.12729	0.0996	0.28776	0.032
Mof_H 	H 	0.9004	0.02769	0.28776	0.032
Mof_H 	H 	0.97231	0.87271	0.28776	0.032
Mof_H 	H 	0.53938	0.23373	0.04557	0.032
Mof_H 	H 	0.76627	0.30564	0.04557	0.032
Mof_H 	H 	0.69436	0.46062	0.04557	0.032
Mof_H 	H 	0.79396	0.43293	0.62109	0.032
Mof_H 	H 	0.56707	0.36102	0.62109	0.032
Mof_H 	H 	0.63898	0.20604	0.62109	0.032
Mof_H 	H 	0.20604	0.56707	0.37891	0.032
Mof_H 	H 	0.43293	0.63898	0.37891	0.032
Mof_H 	H 	0.36102	0.79396	0.37891	0.032
Mof_H 	H 	0.46062	0.76627	0.95443	0.032
Mof_H 	H 	0.23373	0.69436	0.95443	0.032
Mof_H 	H 	0.30564	0.53938	0.95443	0.032
Mof_H 	H 	0.77634	0.84344	0.60929	0.037
Mof_H 	H 	0.15656	0.9329	0.60929	0.037
Mof_H 	H 	0.0671	0.22366	0.60929	0.037
Mof_H 	H 	0.22366	0.15656	0.39071	0.037
Mof_H 	H 	0.84344	0.0671	0.39071	0.037
Mof_H 	H 	0.9329	0.77634	0.39071	0.037
Mof_H 	H 	0.44301	0.17677	0.94262	0.037
Mof_H 	H 	0.82323	0.26623	0.94262	0.037
Mof_H 	H 	0.73377	0.55699	0.94262	0.037
Mof_H 	H 	0.89033	0.48989	0.72404	0.037
Mof_H 	H 	0.51011	0.40043	0.72404	0.037
Mof_H 	H 	0.59957	0.10967	0.72404	0.037
Mof_H 	H 	0.10967	0.51011	0.27596	0.037
Mof_H 	H 	0.48989	0.59957	0.27596	0.037
Mof_H 	H 	0.40043	0.89033	0.27596	0.037
Mof_H 	H 	0.55699	0.82323	0.05738	0.037
Mof_H 	H 	0.17677	0.73377	0.05738	0.037
Mof_H 	H 	0.26623	0.44301	0.05738	0.037
Mof_H 	H 	0.8166	0.78781	0.66258	0.046
Mof_H 	H 	0.21219	0.02879	0.66258	0.046
Mof_H 	H 	0.97121	0.1834	0.66258	0.046
Mof_H 	H 	0.1834	0.21219	0.33742	0.046
Mof_H 	H 	0.78781	0.97121	0.33742	0.046
Mof_H 	H 	0.02879	0.8166	0.33742	0.046
Mof_H 	H 	0.48327	0.12114	0.99591	0.046
Mof_H 	H 	0.87886	0.36212	0.99591	0.046
Mof_H 	H 	0.63788	0.51673	0.99591	0.046
Mof_H 	H 	0.85007	0.54552	0.67075	0.046
Mof_H 	H 	0.45448	0.30454	0.67075	0.046
Mof_H 	H 	0.69546	0.14993	0.67075	0.046
Mof_H 	H 	0.14993	0.45448	0.32925	0.046
Mof_H 	H 	0.54552	0.69546	0.32925	0.046
Mof_H 	H 	0.30454	0.85007	0.32925	0.046
Mof_H 	H 	0.51673	0.87886	0.00409	0.046
Mof_H 	H 	0.12114	0.63788	0.00409	0.046
Mof_H 	H 	0.36212	0.48327	0.00409	0.046
Mof_H 	H 	0.54782	0.32034	0.08812	0.02
Mof_H 	H 	0.67966	0.22748	0.08812	0.02
Mof_H 	H 	0.77252	0.45218	0.08812	0.02
Mof_H 	H 	0.45218	0.67966	0.91188	0.02
Mof_H 	H 	0.32034	0.77252	0.91188	0.02
Mof_H 	H 	0.22748	0.54782	0.91188	0.02
Mof_H 	H 	0.21449	0.65367	0.42145	0.02
Mof_H 	H 	0.34633	0.56081	0.42145	0.02
Mof_H 	H 	0.43919	0.78551	0.42145	0.02
Mof_H 	H 	0.11885	0.01299	0.24521	0.02
Mof_H 	H 	0.98701	0.10585	0.24521	0.02
Mof_H 	H 	0.89415	0.88115	0.24521	0.02
Mof_H 	H 	0.88115	0.98701	0.75479	0.02
Mof_H 	H 	0.01299	0.89415	0.75479	0.02
Mof_H 	H 	0.10585	0.11885	0.75479	0.02
Mof_H 	H 	0.78551	0.34633	0.57855	0.02
Mof_H 	H 	0.65367	0.43919	0.57855	0.02
Mof_H 	H 	0.56081	0.21449	0.57855	0.02
Mof_H 	H 	0.50578	0.37923	0.01168	0.044
Mof_H 	H 	0.62077	0.12655	0.01168	0.044
Mof_H 	H 	0.87345	0.49422	0.01168	0.044
Mof_H 	H 	0.49422	0.62077	0.98832	0.044
Mof_H 	H 	0.37923	0.87345	0.98832	0.044
Mof_H 	H 	0.12655	0.50578	0.98832	0.044
Mof_H 	H 	0.17245	0.71256	0.34501	0.044
Mof_H 	H 	0.28744	0.45988	0.34501	0.044
Mof_H 	H 	0.54012	0.82755	0.34501	0.044
Mof_H 	H 	0.16089	0.9541	0.32165	0.044
Mof_H 	H 	0.0459	0.20678	0.32165	0.044
Mof_H 	H 	0.79322	0.83911	0.32165	0.044
Mof_H 	H 	0.83911	0.0459	0.67835	0.044
Mof_H 	H 	0.9541	0.79322	0.67835	0.044
Mof_H 	H 	0.20678	0.16089	0.67835	0.044
Mof_H 	H 	0.82755	0.28744	0.65499	0.044
Mof_H 	H 	0.71256	0.54012	0.65499	0.044
Mof_H 	H 	0.45988	0.17245	0.65499	0.044
Mof_H 	H 	0.47853	0.28381	0.91491	0.042
Mof_H 	H 	0.71619	0.19472	0.91491	0.042
Mof_H 	H 	0.80528	0.52147	0.91491	0.042
Mof_H 	H 	0.52147	0.71619	0.08509	0.042
Mof_H 	H 	0.28381	0.80528	0.08509	0.042
Mof_H 	H 	0.19472	0.47853	0.08509	0.042
Mof_H 	H 	0.1452	0.61714	0.24824	0.042
Mof_H 	H 	0.38286	0.52805	0.24824	0.042
Mof_H 	H 	0.47195	0.8548	0.24824	0.042
Mof_H 	H 	0.18814	0.04952	0.41842	0.042
Mof_H 	H 	0.95048	0.13861	0.41842	0.042
Mof_H 	H 	0.86139	0.81186	0.41842	0.042
Mof_H 	H 	0.81186	0.95048	0.58158	0.042
Mof_H 	H 	0.04952	0.86139	0.58158	0.042
Mof_H 	H 	0.13861	0.18814	0.58158	0.042
Mof_H 	H 	0.8548	0.38286	0.75176	0.042
Mof_H 	H 	0.61714	0.47195	0.75176	0.042
Mof_H 	H 	0.52805	0.1452	0.75176	0.042
Mof_H 	H 	0.53011	0.26641	0.05868	0.026
Mof_H 	H 	0.73359	0.2637	0.05868	0.026
Mof_H 	H 	0.7363	0.46989	0.05868	0.026
Mof_H 	H 	0.46989	0.73359	0.94132	0.026
Mof_H 	H 	0.26641	0.7363	0.94132	0.026
Mof_H 	H 	0.2637	0.53011	0.94132	0.026
Mof_H 	H 	0.19678	0.59974	0.39201	0.026
Mof_H 	H 	0.40026	0.59703	0.39201	0.026
Mof_H 	H 	0.40297	0.80322	0.39201	0.026
Mof_H 	H 	0.13656	0.06692	0.27465	0.026
Mof_H 	H 	0.93308	0.06963	0.27465	0.026
Mof_H 	H 	0.93037	0.86344	0.27465	0.026
Mof_H 	H 	0.86344	0.93308	0.72535	0.026
Mof_H 	H 	0.06692	0.93037	0.72535	0.026
Mof_H 	H 	0.06963	0.13656	0.72535	0.026
Mof_H 	H 	0.80322	0.40026	0.60799	0.026
Mof_H 	H 	0.59974	0.40297	0.60799	0.026
Mof_H 	H 	0.59703	0.19678	0.60799	0.026
Mof_H 	H 	0.70949	0.60621	0.37197	0.035
Mof_H 	H 	0.39379	0.10328	0.37197	0.035
Mof_H 	H 	0.89672	0.29051	0.37197	0.035
Mof_H 	H 	0.29051	0.39379	0.62803	0.035
Mof_H 	H 	0.60621	0.89672	0.62803	0.035
Mof_H 	H 	0.10328	0.70949	0.62803	0.035
Mof_H 	H 	0.37616	0.93954	0.7053	0.035
Mof_H 	H 	0.06046	0.43661	0.7053	0.035
Mof_H 	H 	0.56339	0.62384	0.7053	0.035
Mof_H 	H 	0.95718	0.72712	0.96136	0.035
Mof_H 	H 	0.27288	0.23005	0.96136	0.035
Mof_H 	H 	0.76995	0.04282	0.96136	0.035
Mof_H 	H 	0.04282	0.27288	0.03864	0.035
Mof_H 	H 	0.72712	0.76995	0.03864	0.035
Mof_H 	H 	0.23005	0.95718	0.03864	0.035
Mof_H 	H 	0.62384	0.06046	0.2947	0.035
Mof_H 	H 	0.93954	0.56339	0.2947	0.035
Mof_H 	H 	0.43661	0.37616	0.2947	0.035
Mof_H 	H 	0.65534	0.57417	0.26012	0.036
Mof_H 	H 	0.42583	0.08117	0.26012	0.036
Mof_H 	H 	0.91883	0.34466	0.26012	0.036
Mof_H 	H 	0.34466	0.42583	0.73988	0.036
Mof_H 	H 	0.57417	0.91883	0.73988	0.036
Mof_H 	H 	0.08117	0.65534	0.73988	0.036
Mof_H 	H 	0.32201	0.9075	0.59345	0.036
Mof_H 	H 	0.0925	0.4145	0.59345	0.036
Mof_H 	H 	0.5855	0.67799	0.59345	0.036
Mof_H 	H 	0.01133	0.75916	0.07321	0.036
Mof_H 	H 	0.24084	0.25216	0.07321	0.036
Mof_H 	H 	0.74784	0.98867	0.07321	0.036
Mof_H 	H 	0.98867	0.24084	0.92679	0.036
Mof_H 	H 	0.75916	0.74784	0.92679	0.036
Mof_H 	H 	0.25216	0.01133	0.92679	0.036
Mof_H 	H 	0.67799	0.0925	0.40655	0.036
Mof_H 	H 	0.9075	0.5855	0.40655	0.036
Mof_H 	H 	0.4145	0.32201	0.40655	0.036
Mof_H 	H 	0.80664	0.91287	0.61311	0.037
Mof_H 	H 	0.08713	0.89377	0.61311	0.037
Mof_H 	H 	0.10623	0.19336	0.61311	0.037
Mof_H 	H 	0.19336	0.08713	0.38689	0.037
Mof_H 	H 	0.91287	0.10623	0.38689	0.037
Mof_H 	H 	0.89377	0.80664	0.38689	0.037
Mof_H 	H 	0.47331	0.2462	0.94644	0.037
Mof_H 	H 	0.7538	0.2271	0.94644	0.037
Mof_H 	H 	0.7729	0.52669	0.94644	0.037
Mof_H 	H 	0.86003	0.42046	0.72022	0.037
Mof_H 	H 	0.57954	0.43956	0.72022	0.037
Mof_H 	H 	0.56044	0.13997	0.72022	0.037
Mof_H 	H 	0.13997	0.57954	0.27978	0.037
Mof_H 	H 	0.42046	0.56044	0.27978	0.037
Mof_H 	H 	0.43956	0.86003	0.27978	0.037
Mof_H 	H 	0.52669	0.7538	0.05356	0.037
Mof_H 	H 	0.2462	0.7729	0.05356	0.037
Mof_H 	H 	0.2271	0.47331	0.05356	0.037
_end
