data_functionalizedCrystal
_audit_creation_method	'EQeq! by Chris Wilmer'
_symmetry_space_group_name_H-M	'P1'
_symmetry_Int_Tables_number	1
_symmetry_cell_setting	triclinic
loop_
_symmetry_equiv_pos_as_xyz
  x,y,z
_cell_length_a	24.2784
_cell_length_b	13.3684
_cell_length_c	15.9103
_cell_angle_alpha	90
_cell_angle_beta	90
_cell_angle_gamma	90
loop_
_atom_site_label
_atom_site_type_symbol
_atom_site_fract_x
_atom_site_fract_y
_atom_site_fract_z
_atom_site_charge
Mof_Co	Co	0.55092	0.35477	0.38927	1.165
Mof_Co	Co	0.3872	0.06075	0.61349	1.166
Mof_Co	Co	0.46217	0.24586	0.50505	1.193
Mof_O 	O 	0.91919	0.1793	0.9123	-0.414
Mof_O 	O 	0.83465	0.0519	0.4956	-0.368
Mof_O 	O 	0.50969	0.1697	0.5927	-0.415
Mof_O 	O 	0.91794	0.1103	0.5106	-0.485
Mof_O 	O 	0.60647	0.3012	0.3051	-0.439
Mof_O 	O 	0.41334	0.3126	0.5936	-0.454
Mof_O 	O 	0.5187	0.1265	0.9846	-0.478
Mof_O 	O 	0.52362	0.2031	0.4211	-0.536
Mof_O 	O 	0.58938	0.0892	0.4028	-0.449
Mof_O 	O 	0.45597	0.0884	0.6854	-0.432
Mof_O 	O 	0.98275	0.1332	0.8172	-0.431
Mof_C 	C 	0.7921	0.1217	0.7431	0.111
Mof_O 	O 	0.60737	0.1373	0.0097	-0.372
Mof_N 	N 	0.73736	0.1235	0.7752	-0.084
Mof_O 	O 	0.35381	0.1976	0.6429	-0.46
Mof_N 	N 	0.70026	0.1259	0.7201	-0.082
Mof_C 	C 	0.5373	0.1228	0.8088	-0.008
Mof_H 	H 	0.501	0.1216	0.8278	0.048
Mof_C 	C 	0.8708	0.0886	0.5416	0.32
Mof_C 	C 	0.5422	0.114	0.4235	0.511
Mof_H 	H 	0.5186	0.064	0.4422	-0.145
Mof_C 	C 	0.6456	0.1246	0.7533	0.108
Mof_C 	C 	0.8337	0.1343	0.8015	-0.079
Mof_H 	H 	0.8249	0.1435	0.8578	0.087
Mof_C 	C 	0.8889	0.1331	0.7764	-0.048
Mof_C 	C 	0.8046	0.1053	0.6586	-0.076
Mof_H 	H 	0.7766	0.0943	0.6198	0.093
Mof_C 	C 	0.9014	0.1183	0.6921	-0.005
Mof_H 	H 	0.938	0.1169	0.6748	0.052
Mof_C 	C 	0.8595	0.1055	0.6332	-0.052
Mof_C 	C 	0.5479	0.1246	0.7234	-0.054
Mof_C 	C 	0.6343	0.1219	0.8392	-0.077
Mof_H 	H 	0.663	0.1195	0.878	0.093
Mof_C 	C 	0.5684	0.129	0.9581	0.301
Mof_C 	C 	0.6027	0.1272	0.6956	-0.074
Mof_H 	H 	0.6103	0.1308	0.6384	0.086
Mof_C 	C 	0.5802	0.1228	0.8664	-0.044
Mof_C 	C 	0.9338	0.1496	0.8403	0.353
Mof_C 	C 	0.5008	0.1283	0.6622	0.358
Mof_C 	C 	0.3736	0.283	0.6383	0.472
Mof_H 	H 	0.3571	0.3313	0.672	-0.108
Mof_Co	Co	0.94908	0.64523	0.38927	1.164
Mof_Co	Co	0.1128	0.93925	0.61349	1.165
Mof_Co	Co	0.03783	0.75414	0.50505	1.191
Mof_O 	O 	0.58081	0.8207	0.9123	-0.416
Mof_O 	O 	0.66535	0.9481	0.4956	-0.369
Mof_O 	O 	0.99031	0.8303	0.5927	-0.417
Mof_O 	O 	0.58206	0.8897	0.5106	-0.486
Mof_O 	O 	0.89353	0.6988	0.3051	-0.44
Mof_O 	O 	0.08666	0.6874	0.5936	-0.455
Mof_O 	O 	0.9813	0.8735	0.9846	-0.477
Mof_O 	O 	0.97638	0.7969	0.4211	-0.537
Mof_O 	O 	0.91062	0.9108	0.4028	-0.449
Mof_O 	O 	0.04403	0.9116	0.6854	-0.436
Mof_O 	O 	0.51725	0.8668	0.8172	-0.433
Mof_C 	C 	0.7079	0.8783	0.7431	0.111
Mof_O 	O 	0.89263	0.8627	0.0097	-0.374
Mof_N 	N 	0.76264	0.8765	0.7752	-0.084
Mof_O 	O 	0.14619	0.8024	0.6429	-0.46
Mof_N 	N 	0.79974	0.8741	0.7201	-0.082
Mof_C 	C 	0.9627	0.8772	0.8088	-0.007
Mof_H 	H 	0.999	0.8784	0.8278	0.049
Mof_C 	C 	0.6292	0.9114	0.5416	0.32
Mof_C 	C 	0.9578	0.886	0.4235	0.511
Mof_H 	H 	0.9814	0.936	0.4422	-0.144
Mof_C 	C 	0.8544	0.8754	0.7533	0.108
Mof_C 	C 	0.6663	0.8657	0.8015	-0.078
Mof_H 	H 	0.6751	0.8565	0.8578	0.087
Mof_C 	C 	0.6111	0.8669	0.7764	-0.048
Mof_C 	C 	0.6954	0.8947	0.6586	-0.076
Mof_H 	H 	0.7234	0.9057	0.6198	0.093
Mof_C 	C 	0.5986	0.8817	0.6921	-0.005
Mof_H 	H 	0.562	0.8831	0.6748	0.052
Mof_C 	C 	0.6405	0.8945	0.6332	-0.051
Mof_C 	C 	0.9521	0.8754	0.7234	-0.054
Mof_C 	C 	0.8657	0.8781	0.8392	-0.077
Mof_H 	H 	0.837	0.8805	0.878	0.093
Mof_C 	C 	0.9316	0.871	0.9581	0.304
Mof_C 	C 	0.8973	0.8728	0.6956	-0.074
Mof_H 	H 	0.8897	0.8692	0.6384	0.085
Mof_C 	C 	0.9198	0.8772	0.8664	-0.045
Mof_C 	C 	0.5662	0.8504	0.8403	0.353
Mof_C 	C 	0.9992	0.8717	0.6622	0.362
Mof_C 	C 	0.1264	0.717	0.6383	0.472
Mof_H 	H 	0.1429	0.6687	0.672	-0.108
Mof_Co	Co	0.94908	0.85477	0.11073	1.163
Mof_Co	Co	0.1128	0.56075	0.88651	1.165
Mof_Co	Co	0.03783	0.74586	0.99495	1.189
Mof_O 	O 	0.58081	0.6793	0.5877	-0.417
Mof_O 	O 	0.66535	0.5519	0.0044	-0.37
Mof_O 	O 	0.99031	0.6697	0.9073	-0.415
Mof_O 	O 	0.58206	0.6103	0.9894	-0.486
Mof_O 	O 	0.89353	0.8012	0.1949	-0.44
Mof_O 	O 	0.08666	0.8126	0.9064	-0.457
Mof_O 	O 	0.9813	0.6265	0.5154	-0.479
Mof_O 	O 	0.97638	0.7031	0.0789	-0.539
Mof_O 	O 	0.91062	0.5892	0.0972	-0.451
Mof_O 	O 	0.04403	0.5884	0.8146	-0.436
Mof_O 	O 	0.51725	0.6332	0.6828	-0.433
Mof_C 	C 	0.7079	0.6217	0.7569	0.111
Mof_O 	O 	0.89263	0.6373	0.4903	-0.371
Mof_N 	N 	0.76264	0.6235	0.7248	-0.084
Mof_O 	O 	0.14619	0.6976	0.8571	-0.46
Mof_N 	N 	0.79974	0.6259	0.7799	-0.082
Mof_C 	C 	0.9627	0.6228	0.6912	-0.008
Mof_H 	H 	0.999	0.6216	0.6722	0.049
Mof_C 	C 	0.6292	0.5886	0.9584	0.322
Mof_C 	C 	0.9578	0.614	0.0765	0.511
Mof_H 	H 	0.9814	0.564	0.0578	-0.146
Mof_C 	C 	0.8544	0.6246	0.7467	0.108
Mof_C 	C 	0.6663	0.6343	0.6985	-0.078
Mof_H 	H 	0.6751	0.6435	0.6422	0.087
Mof_C 	C 	0.6111	0.6331	0.7236	-0.048
Mof_C 	C 	0.6954	0.6053	0.8414	-0.075
Mof_H 	H 	0.7234	0.5943	0.8802	0.093
Mof_C 	C 	0.5986	0.6183	0.8079	-0.004
Mof_H 	H 	0.562	0.6169	0.8252	0.052
Mof_C 	C 	0.6405	0.6055	0.8668	-0.052
Mof_C 	C 	0.9521	0.6246	0.7766	-0.054
Mof_C 	C 	0.8657	0.6219	0.6608	-0.078
Mof_H 	H 	0.837	0.6195	0.622	0.093
Mof_C 	C 	0.9316	0.629	0.5419	0.3
Mof_C 	C 	0.8973	0.6272	0.8044	-0.074
Mof_H 	H 	0.8897	0.6308	0.8616	0.086
Mof_C 	C 	0.9198	0.6228	0.6336	-0.044
Mof_C 	C 	0.5662	0.6496	0.6597	0.353
Mof_C 	C 	0.9992	0.6283	0.8378	0.362
Mof_C 	C 	0.1264	0.783	0.8617	0.472
Mof_H 	H 	0.1429	0.8313	0.828	-0.108
Mof_Co	Co	0.55092	0.14523	0.11073	1.164
Mof_Co	Co	0.3872	0.43925	0.88651	1.165
Mof_Co	Co	0.46217	0.25414	0.99495	1.191
Mof_O 	O 	0.91919	0.3207	0.5877	-0.417
Mof_O 	O 	0.83465	0.4481	0.0044	-0.372
Mof_O 	O 	0.50969	0.3303	0.9073	-0.416
Mof_O 	O 	0.91794	0.3897	0.9894	-0.484
Mof_O 	O 	0.60647	0.1988	0.1949	-0.44
Mof_O 	O 	0.41334	0.1874	0.9064	-0.455
Mof_O 	O 	0.5187	0.3735	0.5154	-0.479
Mof_O 	O 	0.52362	0.2969	0.0789	-0.537
Mof_O 	O 	0.58938	0.4108	0.0972	-0.45
Mof_O 	O 	0.45597	0.4116	0.8146	-0.433
Mof_O 	O 	0.98275	0.3668	0.6828	-0.432
Mof_C 	C 	0.7921	0.3783	0.7569	0.111
Mof_O 	O 	0.60737	0.3627	0.4903	-0.371
Mof_N 	N 	0.73736	0.3765	0.7248	-0.084
Mof_O 	O 	0.35381	0.3024	0.8571	-0.46
Mof_N 	N 	0.70026	0.3741	0.7799	-0.082
Mof_C 	C 	0.5373	0.3772	0.6912	-0.008
Mof_H 	H 	0.501	0.3784	0.6722	0.048
Mof_C 	C 	0.8708	0.4114	0.9584	0.323
Mof_C 	C 	0.5422	0.386	0.0765	0.511
Mof_H 	H 	0.5186	0.436	0.0578	-0.145
Mof_C 	C 	0.6456	0.3754	0.7467	0.108
Mof_C 	C 	0.8337	0.3657	0.6985	-0.078
Mof_H 	H 	0.8249	0.3565	0.6422	0.087
Mof_C 	C 	0.8889	0.3669	0.7236	-0.048
Mof_C 	C 	0.8046	0.3947	0.8414	-0.075
Mof_H 	H 	0.7766	0.4057	0.8802	0.093
Mof_C 	C 	0.9014	0.3817	0.8079	-0.005
Mof_H 	H 	0.938	0.3831	0.8252	0.053
Mof_C 	C 	0.8595	0.3945	0.8668	-0.052
Mof_C 	C 	0.5479	0.3754	0.7766	-0.053
Mof_C 	C 	0.6343	0.3781	0.6608	-0.078
Mof_H 	H 	0.663	0.3805	0.622	0.093
Mof_C 	C 	0.5684	0.371	0.5419	0.3
Mof_C 	C 	0.6027	0.3728	0.8044	-0.075
Mof_H 	H 	0.6103	0.3692	0.8616	0.086
Mof_C 	C 	0.5802	0.3772	0.6336	-0.044
Mof_C 	C 	0.9338	0.3504	0.6597	0.353
Mof_C 	C 	0.5008	0.3717	0.8378	0.358
Mof_C 	C 	0.3736	0.217	0.8617	0.472
Mof_H 	H 	0.3571	0.1687	0.828	-0.108
Mof_Co	Co	0.44908	0.64523	0.61073	1.164
Mof_Co	Co	0.6128	0.93925	0.38651	1.165
Mof_Co	Co	0.53783	0.75414	0.49495	1.192
Mof_O 	O 	0.08081	0.8207	0.0877	-0.415
Mof_O 	O 	0.16535	0.9481	0.5044	-0.369
Mof_O 	O 	0.49031	0.8303	0.4073	-0.416
Mof_O 	O 	0.08206	0.8897	0.4894	-0.486
Mof_O 	O 	0.39353	0.6988	0.6949	-0.44
Mof_O 	O 	0.58666	0.6874	0.4064	-0.455
Mof_O 	O 	0.4813	0.8735	0.0154	-0.479
Mof_O 	O 	0.47638	0.7969	0.5789	-0.537
Mof_O 	O 	0.41062	0.9108	0.5972	-0.45
Mof_O 	O 	0.54403	0.9116	0.3146	-0.433
Mof_O 	O 	0.01725	0.8668	0.1828	-0.432
Mof_C 	C 	0.2079	0.8783	0.2569	0.111
Mof_O 	O 	0.39263	0.8627	0.9903	-0.372
Mof_N 	N 	0.26264	0.8765	0.2248	-0.084
Mof_O 	O 	0.64619	0.8024	0.3571	-0.46
Mof_N 	N 	0.29974	0.8741	0.2799	-0.082
Mof_C 	C 	0.4627	0.8772	0.1912	-0.008
Mof_H 	H 	0.499	0.8784	0.1722	0.048
Mof_C 	C 	0.1292	0.9114	0.4584	0.32
Mof_C 	C 	0.4578	0.886	0.5765	0.511
Mof_H 	H 	0.4814	0.936	0.5578	-0.145
Mof_C 	C 	0.3544	0.8754	0.2467	0.108
Mof_C 	C 	0.1663	0.8657	0.1985	-0.079
Mof_H 	H 	0.1751	0.8565	0.1422	0.087
Mof_C 	C 	0.1111	0.8669	0.2236	-0.048
Mof_C 	C 	0.1954	0.8947	0.3414	-0.076
Mof_H 	H 	0.2234	0.9057	0.3802	0.093
Mof_C 	C 	0.0986	0.8817	0.3079	-0.005
Mof_H 	H 	0.062	0.8831	0.3252	0.052
Mof_C 	C 	0.1405	0.8945	0.3668	-0.052
Mof_C 	C 	0.4521	0.8754	0.2766	-0.054
Mof_C 	C 	0.3657	0.8781	0.1608	-0.077
Mof_H 	H 	0.337	0.8805	0.122	0.093
Mof_C 	C 	0.4316	0.871	0.0419	0.301
Mof_C 	C 	0.3973	0.8728	0.3044	-0.074
Mof_H 	H 	0.3897	0.8692	0.3616	0.086
Mof_C 	C 	0.4198	0.8772	0.1336	-0.044
Mof_C 	C 	0.0662	0.8504	0.1597	0.353
Mof_C 	C 	0.4992	0.8717	0.3378	0.358
Mof_C 	C 	0.6264	0.717	0.3617	0.472
Mof_H 	H 	0.6429	0.6687	0.328	-0.108
Mof_Co	Co	0.05092	0.35477	0.61073	1.164
Mof_Co	Co	0.8872	0.06075	0.38651	1.165
Mof_Co	Co	0.96217	0.24586	0.49495	1.191
Mof_O 	O 	0.41919	0.1793	0.0877	-0.416
Mof_O 	O 	0.33465	0.0519	0.5044	-0.369
Mof_O 	O 	0.00969	0.1697	0.4073	-0.417
Mof_O 	O 	0.41794	0.1103	0.4894	-0.486
Mof_O 	O 	0.10647	0.3012	0.6949	-0.44
Mof_O 	O 	0.91334	0.3126	0.4064	-0.455
Mof_O 	O 	0.0187	0.1265	0.0154	-0.477
Mof_O 	O 	0.02362	0.2031	0.5789	-0.537
Mof_O 	O 	0.08938	0.0892	0.5972	-0.449
Mof_O 	O 	0.95597	0.0884	0.3146	-0.436
Mof_O 	O 	0.48275	0.1332	0.1828	-0.433
Mof_C 	C 	0.2921	0.1217	0.2569	0.111
Mof_O 	O 	0.10737	0.1373	0.9903	-0.374
Mof_N 	N 	0.23736	0.1235	0.2248	-0.084
Mof_O 	O 	0.85381	0.1976	0.3571	-0.46
Mof_N 	N 	0.20026	0.1259	0.2799	-0.082
Mof_C 	C 	0.0373	0.1228	0.1912	-0.007
Mof_H 	H 	0.001	0.1216	0.1722	0.049
Mof_C 	C 	0.3708	0.0886	0.4584	0.32
Mof_C 	C 	0.0422	0.114	0.5765	0.511
Mof_H 	H 	0.0186	0.064	0.5578	-0.144
Mof_C 	C 	0.1456	0.1246	0.2467	0.108
Mof_C 	C 	0.3337	0.1343	0.1985	-0.078
Mof_H 	H 	0.3249	0.1435	0.1422	0.087
Mof_C 	C 	0.3889	0.1331	0.2236	-0.048
Mof_C 	C 	0.3046	0.1053	0.3414	-0.076
Mof_H 	H 	0.2766	0.0943	0.3802	0.093
Mof_C 	C 	0.4014	0.1183	0.3079	-0.005
Mof_H 	H 	0.438	0.1169	0.3252	0.052
Mof_C 	C 	0.3595	0.1055	0.3668	-0.051
Mof_C 	C 	0.0479	0.1246	0.2766	-0.054
Mof_C 	C 	0.1343	0.1219	0.1608	-0.077
Mof_H 	H 	0.163	0.1195	0.122	0.093
Mof_C 	C 	0.0684	0.129	0.0419	0.304
Mof_C 	C 	0.1027	0.1272	0.3044	-0.074
Mof_H 	H 	0.1103	0.1308	0.3616	0.085
Mof_C 	C 	0.0802	0.1228	0.1336	-0.045
Mof_C 	C 	0.4338	0.1496	0.1597	0.353
Mof_C 	C 	0.0008	0.1283	0.3378	0.362
Mof_C 	C 	0.8736	0.283	0.3617	0.472
Mof_H 	H 	0.8571	0.3313	0.328	-0.108
Mof_Co	Co	0.05092	0.14523	0.88927	1.163
Mof_Co	Co	0.8872	0.43925	0.11349	1.165
Mof_Co	Co	0.96217	0.25414	0.00505	1.189
Mof_O 	O 	0.41919	0.3207	0.4123	-0.417
Mof_O 	O 	0.33465	0.4481	0.9956	-0.37
Mof_O 	O 	0.00969	0.3303	0.0927	-0.415
Mof_O 	O 	0.41794	0.3897	0.0106	-0.486
Mof_O 	O 	0.10647	0.1988	0.8051	-0.44
Mof_O 	O 	0.91334	0.1874	0.0936	-0.457
Mof_O 	O 	0.0187	0.3735	0.4846	-0.479
Mof_O 	O 	0.02362	0.2969	0.9211	-0.539
Mof_O 	O 	0.08938	0.4108	0.9028	-0.451
Mof_O 	O 	0.95597	0.4116	0.1854	-0.436
Mof_O 	O 	0.48275	0.3668	0.3172	-0.433
Mof_C 	C 	0.2921	0.3783	0.2431	0.111
Mof_O 	O 	0.10737	0.3627	0.5097	-0.371
Mof_N 	N 	0.23736	0.3765	0.2752	-0.084
Mof_O 	O 	0.85381	0.3024	0.1429	-0.46
Mof_N 	N 	0.20026	0.3741	0.2201	-0.082
Mof_C 	C 	0.0373	0.3772	0.3088	-0.008
Mof_H 	H 	0.001	0.3784	0.3278	0.049
Mof_C 	C 	0.3708	0.4114	0.0416	0.322
Mof_C 	C 	0.0422	0.386	0.9235	0.511
Mof_H 	H 	0.0186	0.436	0.9422	-0.146
Mof_C 	C 	0.1456	0.3754	0.2533	0.108
Mof_C 	C 	0.3337	0.3657	0.3015	-0.078
Mof_H 	H 	0.3249	0.3565	0.3578	0.087
Mof_C 	C 	0.3889	0.3669	0.2764	-0.048
Mof_C 	C 	0.3046	0.3947	0.1586	-0.075
Mof_H 	H 	0.2766	0.4057	0.1198	0.093
Mof_C 	C 	0.4014	0.3817	0.1921	-0.004
Mof_H 	H 	0.438	0.3831	0.1748	0.052
Mof_C 	C 	0.3595	0.3945	0.1332	-0.052
Mof_C 	C 	0.0479	0.3754	0.2234	-0.054
Mof_C 	C 	0.1343	0.3781	0.3392	-0.078
Mof_H 	H 	0.163	0.3805	0.378	0.093
Mof_C 	C 	0.0684	0.371	0.4581	0.3
Mof_C 	C 	0.1027	0.3728	0.1956	-0.074
Mof_H 	H 	0.1103	0.3692	0.1384	0.086
Mof_C 	C 	0.0802	0.3772	0.3664	-0.044
Mof_C 	C 	0.4338	0.3504	0.3403	0.353
Mof_C 	C 	0.0008	0.3717	0.1622	0.362
Mof_C 	C 	0.8736	0.217	0.1383	0.472
Mof_H 	H 	0.8571	0.1687	0.172	-0.108
Mof_Co	Co	0.44908	0.85477	0.88927	1.164
Mof_Co	Co	0.6128	0.56075	0.11349	1.165
Mof_Co	Co	0.53783	0.74586	0.00505	1.191
Mof_O 	O 	0.08081	0.6793	0.4123	-0.417
Mof_O 	O 	0.16535	0.5519	0.9956	-0.372
Mof_O 	O 	0.49031	0.6697	0.0927	-0.416
Mof_O 	O 	0.08206	0.6103	0.0106	-0.484
Mof_O 	O 	0.39353	0.8012	0.8051	-0.44
Mof_O 	O 	0.58666	0.8126	0.0936	-0.455
Mof_O 	O 	0.4813	0.6265	0.4846	-0.479
Mof_O 	O 	0.47638	0.7031	0.9211	-0.537
Mof_O 	O 	0.41062	0.5892	0.9028	-0.45
Mof_O 	O 	0.54403	0.5884	0.1854	-0.433
Mof_O 	O 	0.01725	0.6332	0.3172	-0.432
Mof_C 	C 	0.2079	0.6217	0.2431	0.111
Mof_O 	O 	0.39263	0.6373	0.5097	-0.371
Mof_N 	N 	0.26264	0.6235	0.2752	-0.084
Mof_O 	O 	0.64619	0.6976	0.1429	-0.46
Mof_N 	N 	0.29974	0.6259	0.2201	-0.082
Mof_C 	C 	0.4627	0.6228	0.3088	-0.008
Mof_H 	H 	0.499	0.6216	0.3278	0.048
Mof_C 	C 	0.1292	0.5886	0.0416	0.323
Mof_C 	C 	0.4578	0.614	0.9235	0.511
Mof_H 	H 	0.4814	0.564	0.9422	-0.145
Mof_C 	C 	0.3544	0.6246	0.2533	0.108
Mof_C 	C 	0.1663	0.6343	0.3015	-0.078
Mof_H 	H 	0.1751	0.6435	0.3578	0.087
Mof_C 	C 	0.1111	0.6331	0.2764	-0.048
Mof_C 	C 	0.1954	0.6053	0.1586	-0.075
Mof_H 	H 	0.2234	0.5943	0.1198	0.093
Mof_C 	C 	0.0986	0.6183	0.1921	-0.005
Mof_H 	H 	0.062	0.6169	0.1748	0.053
Mof_C 	C 	0.1405	0.6055	0.1332	-0.052
Mof_C 	C 	0.4521	0.6246	0.2234	-0.053
Mof_C 	C 	0.3657	0.6219	0.3392	-0.078
Mof_H 	H 	0.337	0.6195	0.378	0.093
Mof_C 	C 	0.4316	0.629	0.4581	0.3
Mof_C 	C 	0.3973	0.6272	0.1956	-0.075
Mof_H 	H 	0.3897	0.6308	0.1384	0.086
Mof_C 	C 	0.4198	0.6228	0.3664	-0.044
Mof_C 	C 	0.0662	0.6496	0.3403	0.353
Mof_C 	C 	0.4992	0.6283	0.1622	0.358
Mof_C 	C 	0.6264	0.783	0.1383	0.472
Mof_H 	H 	0.6429	0.8313	0.172	-0.108
Mof_C 	C 	0.5841	0.25	0.25	0.491
Mof_H 	H 	0.5458	0.25	0.25	-0.161
Mof_C 	C 	0.9159	0.75	0.25	0.491
Mof_H 	H 	0.9542	0.75	0.25	-0.162
Mof_C 	C 	0.4159	0.75	0.75	0.491
Mof_H 	H 	0.4542	0.75	0.75	-0.161
Mof_C 	C 	0.0841	0.25	0.75	0.491
Mof_H 	H 	0.0458	0.25	0.75	-0.162
_end
