data_functionalizedCrystal
_audit_creation_method	'EQeq! by Chris Wilmer'
_symmetry_space_group_name_H-M	'P1'
_symmetry_Int_Tables_number	1
_symmetry_cell_setting	triclinic
loop_
_symmetry_equiv_pos_as_xyz
  x,y,z
_cell_length_a	12.827
_cell_length_b	6.5366
_cell_length_c	16.096
_cell_angle_alpha	90
_cell_angle_beta	90.34
_cell_angle_gamma	90
loop_
_atom_site_label
_atom_site_type_symbol
_atom_site_fract_x
_atom_site_fract_y
_atom_site_fract_z
_atom_site_charge
Mof_O 	O 	0.0865	0.2852	0.6085	-0.469
Mof_O 	O 	0.2445	0.9901	0.6446	-0.559
Mof_O 	O 	0.1862	0.9218	0.5185	-0.477
Mof_C 	C 	0.2613	0.9509	0.5689	0.401
Mof_O 	O 	0.9439	0.9145	0.1761	-0.439
Mof_O 	O 	0.7979	0.8707	0.1041	-0.396
Mof_C 	C 	0.8973	0.9014	0.1077	0.313
Mof_La	La	0.01706	0.92829	0.60585	1.834
Mof_La	La	0.21595	0.32122	0.73133	2.104
Mof_S 	S 	0.89299	0.9147	0.93437	0.056
Mof_O 	O 	0.1004	0.5994	0.6591	-0.459
Mof_O 	O 	0.0958	0.0096	0.7575	-0.442
Mof_O 	O 	0.7039	0.9317	0.409	-0.448
Mof_C 	C 	0.0607	0.9208	0.0216	-0.007
Mof_H 	H 	0.1071	0.9177	0.0662	0.035
Mof_O 	O 	0.0275	0.5565	0.5354	-0.491
Mof_C 	C 	0.0123	0.9469	0.7929	0.273
Mof_C 	C 	0.0098	0.9286	0.8843	-0.097
Mof_C 	C 	0.9547	0.9143	0.0303	-0.113
Mof_C 	C 	0.0924	0.9327	0.9378	-0.025
Mof_H 	H 	0.1615	0.9422	0.9211	0.024
Mof_C 	C 	0.5307	0.9303	0.4581	-0.093
Mof_N 	N 	0.0703	0.4794	0.5994	0.099
Mof_O 	O 	0.9325	0.8983	0.7505	-0.444
Mof_C 	C 	0.6103	0.913	0.389	0.343
Mof_S 	S 	0.39513	0.9264	0.43427	0.019
Mof_C 	C 	0.3678	0.9389	0.5376	-0.149
Mof_C 	C 	0.4616	0.9416	0.5825	0.008
Mof_H 	H 	0.4625	0.9479	0.6402	0.009
Mof_O 	O 	0.5807	0.8855	0.3184	-0.417
Mof_C 	C 	0.5494	0.9349	0.5389	-0.033
Mof_H 	H 	0.6158	0.9336	0.5625	0.024
Mof_Cl	Cl	0.381	0.742	0.887	-0.352
Mof_O 	O 	0.9135	0.7852	0.3915	-0.511
Mof_O 	O 	0.7555	0.4901	0.3554	-0.498
Mof_O 	O 	0.8138	0.4218	0.4815	-0.451
Mof_C 	C 	0.7387	0.4509	0.4311	0.406
Mof_O 	O 	0.0561	0.4145	0.8239	-0.402
Mof_O 	O 	0.2021	0.3707	0.8959	-0.367
Mof_C 	C 	0.1027	0.4014	0.8923	0.315
Mof_La	La	0.98294	0.42829	0.39415	2.008
Mof_La	La	0.78405	0.82122	0.26867	1.94
Mof_S 	S 	0.10701	0.4147	0.06563	0.124
Mof_O 	O 	0.8996	0.0994	0.3409	-0.382
Mof_O 	O 	0.9042	0.5096	0.2425	-0.551
Mof_O 	O 	0.2961	0.4317	0.591	-0.419
Mof_C 	C 	0.9393	0.4208	0.9784	-0.024
Mof_H 	H 	0.8929	0.4177	0.9338	0.073
Mof_O 	O 	0.9725	0.0565	0.4646	-0.412
Mof_C 	C 	0.9877	0.4469	0.2071	0.377
Mof_C 	C 	0.9902	0.4286	0.1157	-0.124
Mof_C 	C 	0.0453	0.4143	0.9697	-0.06
Mof_C 	C 	0.9076	0.4327	0.0622	0.029
Mof_H 	H 	0.8385	0.4422	0.0789	0.039
Mof_C 	C 	0.4693	0.4303	0.5419	-0.069
Mof_N 	N 	0.9297	0.9794	0.4006	0.017
Mof_O 	O 	0.0675	0.3983	0.2495	-0.437
Mof_C 	C 	0.3897	0.413	0.611	0.355
Mof_S 	S 	0.60487	0.4264	0.56573	0.083
Mof_C 	C 	0.6322	0.4389	0.4624	-0.125
Mof_C 	C 	0.5384	0.4416	0.4175	0.025
Mof_H 	H 	0.5375	0.4479	0.3598	0.035
Mof_O 	O 	0.4193	0.3855	0.6816	-0.39
Mof_C 	C 	0.4506	0.4349	0.4611	-0.014
Mof_H 	H 	0.3842	0.4336	0.4375	0.048
Mof_Cl	Cl	0.619	0.242	0.113	-0.27
_end
