data_functionalizedCrystal
_audit_creation_method	'EQeq! by Chris Wilmer'
_symmetry_space_group_name_H-M	'P1'
_symmetry_Int_Tables_number	1
_symmetry_cell_setting	triclinic
loop_
_symmetry_equiv_pos_as_xyz
  x,y,z
_cell_length_a	30.9994
_cell_length_b	30.9994
_cell_length_c	30.9994
_cell_angle_alpha	109.471
_cell_angle_beta	109.471
_cell_angle_gamma	109.471
loop_
_atom_site_label
_atom_site_type_symbol
_atom_site_fract_x
_atom_site_fract_y
_atom_site_fract_z
_atom_site_charge
Mof_Mn	Mn	0.2214	0.57217	0.63293	0.715
Mof_Mn	Mn	0.43924	0.58847	0.86707	0.715
Mof_Mn	Mn	0.06076	0.92782	0.14923	0.713
Mof_Mn	Mn	0.2786	0.91154	0.35077	0.715
Mof_Mn	Mn	0.64923	0.06076	0.42783	0.715
Mof_Mn	Mn	0.85077	0.2786	0.41153	0.715
Mof_Mn	Mn	0.13294	0.22141	0.07218	0.714
Mof_Mn	Mn	0.36706	0.43923	0.08846	0.715
Mof_Mn	Mn	0.58847	0.36707	0.93924	0.714
Mof_Mn	Mn	0.57217	0.13293	0.7214	0.715
Mof_Mn	Mn	0.91153	0.85077	0.77859	0.715
Mof_Mn	Mn	0.92783	0.64923	0.56077	0.715
Mof_Mn	Mn	0.92783	0.2786	0.86707	0.714
Mof_Mn	Mn	0.91153	0.06076	0.63293	0.714
Mof_Mn	Mn	0.57217	0.43923	0.35077	0.715
Mof_Mn	Mn	0.58847	0.22141	0.14923	0.715
Mof_Mn	Mn	0.43924	0.85077	0.07218	0.714
Mof_Mn	Mn	0.2214	0.64923	0.08846	0.714
Mof_Mn	Mn	0.2786	0.36707	0.42783	0.715
Mof_Mn	Mn	0.06076	0.13293	0.41153	0.715
Mof_Mn	Mn	0.13294	0.91154	0.56077	0.714
Mof_Mn	Mn	0.36706	0.92782	0.77859	0.715
Mof_Mn	Mn	0.64923	0.58847	0.7214	0.715
Mof_Mn	Mn	0.85077	0.57217	0.93924	0.714
Mof_Mn	Mn	0.7786	0.42783	0.36707	0.715
Mof_Mn	Mn	0.56076	0.41153	0.13293	0.715
Mof_Mn	Mn	0.93924	0.07218	0.85077	0.713
Mof_Mn	Mn	0.7214	0.08846	0.64923	0.715
Mof_Mn	Mn	0.35077	0.93924	0.57217	0.715
Mof_Mn	Mn	0.14923	0.7214	0.58847	0.715
Mof_Mn	Mn	0.86706	0.77859	0.92782	0.714
Mof_Mn	Mn	0.63294	0.56077	0.91154	0.715
Mof_Mn	Mn	0.41153	0.63293	0.06076	0.714
Mof_Mn	Mn	0.42783	0.86707	0.2786	0.715
Mof_Mn	Mn	0.08847	0.14923	0.22141	0.714
Mof_Mn	Mn	0.07218	0.35078	0.43924	0.714
Mof_Mn	Mn	0.07217	0.7214	0.13293	0.713
Mof_Mn	Mn	0.08847	0.93924	0.36707	0.713
Mof_Mn	Mn	0.42783	0.56077	0.64923	0.714
Mof_Mn	Mn	0.41153	0.77859	0.85077	0.714
Mof_Mn	Mn	0.56076	0.14923	0.92782	0.713
Mof_Mn	Mn	0.7786	0.35077	0.91154	0.713
Mof_Mn	Mn	0.7214	0.63293	0.57217	0.714
Mof_Mn	Mn	0.93924	0.86707	0.58847	0.714
Mof_Mn	Mn	0.86706	0.08846	0.43923	0.713
Mof_Mn	Mn	0.63294	0.07218	0.22141	0.714
Mof_Mn	Mn	0.35077	0.41153	0.2786	0.714
Mof_Mn	Mn	0.14923	0.42783	0.06076	0.713
Mof_H 	H 	0.1789	0.4509	0.5416	-0.025
Mof_H 	H 	0.0399	0.4078	0.5279	0.033
Mof_H 	H 	0.2824	0.7256	0.8084	0.028
Mof_H 	H 	0.3477	0.676	0.7309	-0.033
Mof_H 	H 	0.055	0.4878	0.5968	0.049
Mof_H 	H 	0.1747	0.6367	0.7314	0.052
Mof_H 	H 	0.4093	0.6373	0.9584	-0.025
Mof_H 	H 	0.3799	0.512	0.9721	0.033
Mof_H 	H 	0.4172	0.474	0.6916	0.028
Mof_H 	H 	0.4451	0.6168	0.7691	-0.033
Mof_H 	H 	0.391	0.4582	0.9032	0.049
Mof_H 	H 	0.4053	0.4433	0.7686	0.052
Mof_H 	H 	0.0907	0.0491	0.228	-0.025
Mof_H 	H 	0.1201	0.0922	0.1321	0.033
Mof_H 	H 	0.0828	0.7744	0.0568	0.028
Mof_H 	H 	0.0549	0.824	0.1717	-0.033
Mof_H 	H 	0.109	0.0122	0.0672	0.051
Mof_H 	H 	0.0947	0.8633	0.038	0.052
Mof_H 	H 	0.3211	0.8627	0.272	-0.025
Mof_H 	H 	0.4601	0.988	0.3679	0.033
Mof_H 	H 	0.2176	0.026	0.4432	0.029
Mof_H 	H 	0.1523	0.8832	0.3283	-0.033
Mof_H 	H 	0.445	0.0418	0.4328	0.049
Mof_H 	H 	0.3253	0.0567	0.462	0.052
Mof_H 	H 	0.728	0.0907	0.5491	-0.025
Mof_H 	H 	0.6321	0.1201	0.5922	0.033
Mof_H 	H 	0.5568	0.0828	0.2744	0.028
Mof_H 	H 	0.6717	0.0549	0.324	-0.033
Mof_H 	H 	0.5672	0.109	0.5122	0.049
Mof_H 	H 	0.538	0.0947	0.3633	0.052
Mof_H 	H 	0.772	0.3211	0.3627	-0.025
Mof_H 	H 	0.8679	0.4601	0.488	0.033
Mof_H 	H 	0.9432	0.2176	0.526	0.028
Mof_H 	H 	0.8283	0.1523	0.3832	-0.033
Mof_H 	H 	0.9328	0.445	0.5418	0.049
Mof_H 	H 	0.962	0.3253	0.5567	0.052
Mof_H 	H 	0.0416	0.1789	0.9509	-0.025
Mof_H 	H 	0.0279	0.0399	0.9078	0.034
Mof_H 	H 	0.3084	0.2824	0.2256	0.028
Mof_H 	H 	0.2309	0.3477	0.176	-0.033
Mof_H 	H 	0.0968	0.055	0.9878	0.051
Mof_H 	H 	0.2314	0.1747	0.1367	0.052
Mof_H 	H 	0.4584	0.4093	0.1373	-0.025
Mof_H 	H 	0.4721	0.3799	0.012	0.033
Mof_H 	H 	0.1916	0.4172	0.974	0.029
Mof_H 	H 	0.2691	0.4451	0.1168	-0.033
Mof_H 	H 	0.4032	0.391	0.9582	0.049
Mof_H 	H 	0.2686	0.4053	0.9433	0.052
Mof_H 	H 	0.6373	0.4584	0.9093	-0.025
Mof_H 	H 	0.512	0.4721	0.8799	0.033
Mof_H 	H 	0.474	0.1916	0.9172	0.028
Mof_H 	H 	0.6168	0.2691	0.9451	-0.033
Mof_H 	H 	0.4582	0.4032	0.891	0.049
Mof_H 	H 	0.4433	0.2686	0.9053	0.052
Mof_H 	H 	0.4509	0.0416	0.6789	-0.025
Mof_H 	H 	0.4078	0.0279	0.5399	0.033
Mof_H 	H 	0.7256	0.3084	0.7824	0.028
Mof_H 	H 	0.676	0.2309	0.8477	-0.033
Mof_H 	H 	0.4878	0.0968	0.555	0.049
Mof_H 	H 	0.6367	0.2314	0.6747	0.052
Mof_H 	H 	0.8627	0.772	0.8211	-0.025
Mof_H 	H 	0.988	0.8679	0.9601	0.033
Mof_H 	H 	0.026	0.9432	0.7176	0.028
Mof_H 	H 	0.8832	0.8283	0.6523	-0.033
Mof_H 	H 	0.0418	0.9328	0.945	0.049
Mof_H 	H 	0.0567	0.962	0.8253	0.052
Mof_H 	H 	0.0491	0.728	0.5907	-0.025
Mof_H 	H 	0.0922	0.6321	0.6201	0.033
Mof_H 	H 	0.7744	0.5568	0.5828	0.028
Mof_H 	H 	0.824	0.6717	0.5549	-0.033
Mof_H 	H 	0.0122	0.5672	0.609	0.05
Mof_H 	H 	0.8633	0.538	0.5947	0.052
Mof_H 	H 	0.0491	0.3211	0.9584	-0.025
Mof_H 	H 	0.0922	0.4601	0.9721	0.033
Mof_H 	H 	0.7744	0.2176	0.6916	0.028
Mof_H 	H 	0.824	0.1523	0.7691	-0.033
Mof_H 	H 	0.0122	0.445	0.9032	0.051
Mof_H 	H 	0.8633	0.3253	0.7686	0.052
Mof_H 	H 	0.8627	0.0907	0.5416	-0.025
Mof_H 	H 	0.988	0.1201	0.5279	0.032
Mof_H 	H 	0.026	0.0828	0.8084	0.03
Mof_H 	H 	0.8832	0.0549	0.7309	-0.033
Mof_H 	H 	0.0418	0.109	0.5968	0.049
Mof_H 	H 	0.0567	0.0947	0.7314	0.052
Mof_H 	H 	0.4509	0.4093	0.272	-0.025
Mof_H 	H 	0.4078	0.3799	0.3679	0.033
Mof_H 	H 	0.7256	0.4172	0.4432	0.028
Mof_H 	H 	0.676	0.4451	0.3283	-0.033
Mof_H 	H 	0.4878	0.391	0.4328	0.049
Mof_H 	H 	0.6367	0.4053	0.462	0.052
Mof_H 	H 	0.6373	0.1789	0.228	-0.025
Mof_H 	H 	0.512	0.0399	0.1321	0.033
Mof_H 	H 	0.474	0.2824	0.0568	0.028
Mof_H 	H 	0.6168	0.3477	0.1717	-0.033
Mof_H 	H 	0.4582	0.055	0.0672	0.049
Mof_H 	H 	0.4433	0.1747	0.038	0.052
Mof_H 	H 	0.4093	0.772	0.9509	-0.025
Mof_H 	H 	0.3799	0.8679	0.9078	0.033
Mof_H 	H 	0.4172	0.9432	0.2256	0.028
Mof_H 	H 	0.4451	0.8283	0.176	-0.033
Mof_H 	H 	0.391	0.9328	0.9878	0.05
Mof_H 	H 	0.4053	0.962	0.1367	0.052
Mof_H 	H 	0.1789	0.728	0.1373	-0.025
Mof_H 	H 	0.0399	0.6321	0.012	0.032
Mof_H 	H 	0.2824	0.5568	0.974	0.029
Mof_H 	H 	0.3477	0.6717	0.1168	-0.033
Mof_H 	H 	0.055	0.5672	0.9582	0.049
Mof_H 	H 	0.1747	0.538	0.9433	0.052
Mof_H 	H 	0.3211	0.4584	0.5491	-0.025
Mof_H 	H 	0.4601	0.4721	0.5922	0.033
Mof_H 	H 	0.2176	0.1916	0.2744	0.028
Mof_H 	H 	0.1523	0.2691	0.324	-0.033
Mof_H 	H 	0.445	0.4032	0.5122	0.049
Mof_H 	H 	0.3253	0.2686	0.3633	0.052
Mof_H 	H 	0.0907	0.0416	0.3627	-0.025
Mof_H 	H 	0.1201	0.0279	0.488	0.033
Mof_H 	H 	0.0828	0.3084	0.526	0.028
Mof_H 	H 	0.0549	0.2309	0.3832	-0.033
Mof_H 	H 	0.109	0.0968	0.5418	0.049
Mof_H 	H 	0.0947	0.2314	0.5567	0.052
Mof_H 	H 	0.0416	0.8627	0.5907	-0.025
Mof_H 	H 	0.0279	0.988	0.6201	0.032
Mof_H 	H 	0.3084	0.026	0.5828	0.028
Mof_H 	H 	0.2309	0.8832	0.5549	-0.033
Mof_H 	H 	0.0968	0.0418	0.609	0.049
Mof_H 	H 	0.2314	0.0567	0.5947	0.052
Mof_H 	H 	0.4584	0.0491	0.8211	-0.025
Mof_H 	H 	0.4721	0.0922	0.9601	0.033
Mof_H 	H 	0.1916	0.7744	0.7176	0.028
Mof_H 	H 	0.2691	0.824	0.6523	-0.033
Mof_H 	H 	0.4032	0.0122	0.945	0.049
Mof_H 	H 	0.2686	0.8633	0.8253	0.052
Mof_H 	H 	0.728	0.6373	0.6789	-0.025
Mof_H 	H 	0.6321	0.512	0.5399	0.033
Mof_H 	H 	0.5568	0.474	0.7824	0.028
Mof_H 	H 	0.6717	0.6168	0.8477	-0.033
Mof_H 	H 	0.5672	0.4582	0.555	0.049
Mof_H 	H 	0.538	0.4433	0.6747	0.052
Mof_H 	H 	0.772	0.4509	0.9093	-0.025
Mof_H 	H 	0.8679	0.4078	0.8799	0.033
Mof_H 	H 	0.9432	0.7256	0.9172	0.028
Mof_H 	H 	0.8283	0.676	0.9451	-0.033
Mof_H 	H 	0.9328	0.4878	0.891	0.049
Mof_H 	H 	0.962	0.6367	0.9053	0.052
Mof_H 	H 	0.8211	0.5491	0.4584	-0.025
Mof_H 	H 	0.9601	0.5922	0.4721	0.033
Mof_H 	H 	0.7176	0.2744	0.1916	0.028
Mof_H 	H 	0.6523	0.324	0.2691	-0.033
Mof_H 	H 	0.945	0.5122	0.4032	0.049
Mof_H 	H 	0.8253	0.3633	0.2686	0.052
Mof_H 	H 	0.5907	0.3627	0.0416	-0.025
Mof_H 	H 	0.6201	0.488	0.0279	0.033
Mof_H 	H 	0.5828	0.526	0.3084	0.028
Mof_H 	H 	0.5549	0.3832	0.2309	-0.033
Mof_H 	H 	0.609	0.5418	0.0968	0.049
Mof_H 	H 	0.5947	0.5567	0.2314	0.052
Mof_H 	H 	0.9093	0.9509	0.772	-0.025
Mof_H 	H 	0.8799	0.9078	0.8679	0.033
Mof_H 	H 	0.9172	0.2256	0.9432	0.028
Mof_H 	H 	0.9451	0.176	0.8283	-0.033
Mof_H 	H 	0.891	0.9878	0.9328	0.051
Mof_H 	H 	0.9053	0.1367	0.962	0.052
Mof_H 	H 	0.6789	0.1373	0.728	-0.025
Mof_H 	H 	0.5399	0.012	0.6321	0.033
Mof_H 	H 	0.7824	0.974	0.5568	0.029
Mof_H 	H 	0.8477	0.1168	0.6717	-0.033
Mof_H 	H 	0.555	0.9582	0.5672	0.049
Mof_H 	H 	0.6747	0.9433	0.538	0.052
Mof_H 	H 	0.272	0.9093	0.4509	-0.025
Mof_H 	H 	0.3679	0.8799	0.4078	0.033
Mof_H 	H 	0.4432	0.9172	0.7256	0.028
Mof_H 	H 	0.3283	0.9451	0.676	-0.033
Mof_H 	H 	0.4328	0.891	0.4878	0.049
Mof_H 	H 	0.462	0.9053	0.6367	0.052
Mof_H 	H 	0.228	0.6789	0.6373	-0.025
Mof_H 	H 	0.1321	0.5399	0.512	0.033
Mof_H 	H 	0.0568	0.7824	0.474	0.028
Mof_H 	H 	0.1717	0.8477	0.6168	-0.033
Mof_H 	H 	0.0672	0.555	0.4582	0.049
Mof_H 	H 	0.038	0.6747	0.4433	0.052
Mof_H 	H 	0.9584	0.8211	0.0491	-0.025
Mof_H 	H 	0.9721	0.9601	0.0922	0.034
Mof_H 	H 	0.6916	0.7176	0.7744	0.028
Mof_H 	H 	0.7691	0.6523	0.824	-0.033
Mof_H 	H 	0.9032	0.945	0.0122	0.051
Mof_H 	H 	0.7686	0.8253	0.8633	0.052
Mof_H 	H 	0.5416	0.5907	0.8627	-0.025
Mof_H 	H 	0.5279	0.6201	0.988	0.033
Mof_H 	H 	0.8084	0.5828	0.026	0.029
Mof_H 	H 	0.7309	0.5549	0.8832	-0.033
Mof_H 	H 	0.5968	0.609	0.0418	0.049
Mof_H 	H 	0.7314	0.5947	0.0567	0.052
Mof_H 	H 	0.3627	0.5416	0.0907	-0.025
Mof_H 	H 	0.488	0.5279	0.1201	0.033
Mof_H 	H 	0.526	0.8084	0.0828	0.028
Mof_H 	H 	0.3832	0.7309	0.0549	-0.033
Mof_H 	H 	0.5418	0.5968	0.109	0.049
Mof_H 	H 	0.5567	0.7314	0.0947	0.052
Mof_H 	H 	0.5491	0.9584	0.3211	-0.025
Mof_H 	H 	0.5922	0.9721	0.4601	0.033
Mof_H 	H 	0.2744	0.6916	0.2176	0.028
Mof_H 	H 	0.324	0.7691	0.1523	-0.033
Mof_H 	H 	0.5122	0.9032	0.445	0.049
Mof_H 	H 	0.3633	0.7686	0.3253	0.052
Mof_H 	H 	0.1373	0.228	0.1789	-0.025
Mof_H 	H 	0.012	0.1321	0.0399	0.033
Mof_H 	H 	0.974	0.0568	0.2824	0.028
Mof_H 	H 	0.1168	0.1717	0.3477	-0.033
Mof_H 	H 	0.9582	0.0672	0.055	0.049
Mof_H 	H 	0.9433	0.038	0.1747	0.052
Mof_H 	H 	0.9509	0.272	0.4093	-0.025
Mof_H 	H 	0.9078	0.3679	0.3799	0.033
Mof_H 	H 	0.2256	0.4432	0.4172	0.028
Mof_H 	H 	0.176	0.3283	0.4451	-0.033
Mof_H 	H 	0.9878	0.4328	0.391	0.05
Mof_H 	H 	0.1367	0.462	0.4053	0.052
Mof_H 	H 	0.9509	0.6789	0.0416	-0.025
Mof_H 	H 	0.9078	0.5399	0.0279	0.033
Mof_H 	H 	0.2256	0.7824	0.3084	0.028
Mof_H 	H 	0.176	0.8477	0.2309	-0.033
Mof_H 	H 	0.9878	0.555	0.0968	0.051
Mof_H 	H 	0.1367	0.6747	0.2314	0.052
Mof_H 	H 	0.1373	0.9093	0.4584	-0.025
Mof_H 	H 	0.012	0.8799	0.4721	0.032
Mof_H 	H 	0.974	0.9172	0.1916	0.03
Mof_H 	H 	0.1168	0.9451	0.2691	-0.033
Mof_H 	H 	0.9582	0.891	0.4032	0.049
Mof_H 	H 	0.9433	0.9053	0.2686	0.052
Mof_H 	H 	0.5491	0.5907	0.728	-0.025
Mof_H 	H 	0.5922	0.6201	0.6321	0.033
Mof_H 	H 	0.2744	0.5828	0.5568	0.028
Mof_H 	H 	0.324	0.5549	0.6717	-0.033
Mof_H 	H 	0.5122	0.609	0.5672	0.049
Mof_H 	H 	0.3633	0.5947	0.538	0.052
Mof_H 	H 	0.3627	0.8211	0.772	-0.025
Mof_H 	H 	0.488	0.9601	0.8679	0.033
Mof_H 	H 	0.526	0.7176	0.9432	0.028
Mof_H 	H 	0.3832	0.6523	0.8283	-0.033
Mof_H 	H 	0.5418	0.945	0.9328	0.049
Mof_H 	H 	0.5567	0.8253	0.962	0.052
Mof_H 	H 	0.5907	0.228	0.0491	-0.025
Mof_H 	H 	0.6201	0.1321	0.0922	0.033
Mof_H 	H 	0.5828	0.0568	0.7744	0.028
Mof_H 	H 	0.5549	0.1717	0.824	-0.033
Mof_H 	H 	0.609	0.0672	0.0122	0.05
Mof_H 	H 	0.5947	0.038	0.8633	0.052
Mof_H 	H 	0.8211	0.272	0.8627	-0.025
Mof_H 	H 	0.9601	0.3679	0.988	0.032
Mof_H 	H 	0.7176	0.4432	0.026	0.029
Mof_H 	H 	0.6523	0.3283	0.8832	-0.033
Mof_H 	H 	0.945	0.4328	0.0418	0.049
Mof_H 	H 	0.8253	0.462	0.0567	0.052
Mof_H 	H 	0.6789	0.5416	0.4509	-0.025
Mof_H 	H 	0.5399	0.5279	0.4078	0.033
Mof_H 	H 	0.7824	0.8084	0.7256	0.028
Mof_H 	H 	0.8477	0.7309	0.676	-0.033
Mof_H 	H 	0.555	0.5968	0.4878	0.049
Mof_H 	H 	0.6747	0.7314	0.6367	0.052
Mof_H 	H 	0.9093	0.9584	0.6373	-0.025
Mof_H 	H 	0.8799	0.9721	0.512	0.033
Mof_H 	H 	0.9172	0.6916	0.474	0.028
Mof_H 	H 	0.9451	0.7691	0.6168	-0.033
Mof_H 	H 	0.891	0.9032	0.4582	0.049
Mof_H 	H 	0.9053	0.7686	0.4433	0.052
Mof_H 	H 	0.9584	0.1373	0.4093	-0.025
Mof_H 	H 	0.9721	0.012	0.3799	0.032
Mof_H 	H 	0.6916	0.974	0.4172	0.028
Mof_H 	H 	0.7691	0.1168	0.4451	-0.033
Mof_H 	H 	0.9032	0.9582	0.391	0.049
Mof_H 	H 	0.7686	0.9433	0.4053	0.052
Mof_H 	H 	0.5416	0.9509	0.1789	-0.025
Mof_H 	H 	0.5279	0.9078	0.0399	0.033
Mof_H 	H 	0.8084	0.2256	0.2824	0.028
Mof_H 	H 	0.7309	0.176	0.3477	-0.033
Mof_H 	H 	0.5968	0.9878	0.055	0.049
Mof_H 	H 	0.7314	0.1367	0.1747	0.052
Mof_H 	H 	0.272	0.3627	0.3211	-0.025
Mof_H 	H 	0.3679	0.488	0.4601	0.033
Mof_H 	H 	0.4432	0.526	0.2176	0.028
Mof_H 	H 	0.3283	0.3832	0.1523	-0.033
Mof_H 	H 	0.4328	0.5418	0.445	0.049
Mof_H 	H 	0.462	0.5567	0.3253	0.052
Mof_H 	H 	0.228	0.5491	0.0907	-0.025
Mof_H 	H 	0.1321	0.5922	0.1201	0.033
Mof_H 	H 	0.0568	0.2744	0.0828	0.028
Mof_H 	H 	0.1717	0.324	0.0549	-0.033
Mof_H 	H 	0.0672	0.5122	0.109	0.049
Mof_H 	H 	0.038	0.3633	0.0947	0.052
Mof_C 	C 	0.15199	0.45161	0.54832	0.105
Mof_C 	C 	0.0757	0.42722	0.5398	-0.016
Mof_C 	C 	0.11026	0.47808	0.5827	0.053
Mof_C 	C 	0.24797	0.65978	0.73607	0.049
Mof_C 	C 	0.28736	0.70568	0.78248	-0.025
Mof_C 	C 	0.32253	0.67793	0.74012	0.11
Mof_C 	C 	0.0914	0.5063	0.6113	-0.032
Mof_C 	C 	0.1926	0.6271	0.7147	-0.046
Mof_C 	C 	0.40329	0.60367	0.95168	0.105
Mof_C 	C 	0.38742	0.5359	0.9602	-0.016
Mof_C 	C 	0.39538	0.52756	0.9173	0.053
Mof_C 	C 	0.42371	0.5119	0.76393	0.049
Mof_C 	C 	0.4232	0.50488	0.71752	-0.025
Mof_C 	C 	0.43781	0.58241	0.75988	0.11
Mof_C 	C 	0.395	0.4801	0.8887	-0.032
Mof_C 	C 	0.4124	0.4779	0.7853	-0.046
Mof_C 	C 	0.09671	0.04839	0.20038	0.105
Mof_C 	C 	0.11258	0.07278	0.14848	-0.017
Mof_C 	C 	0.10462	0.02192	0.13218	0.054
Mof_C 	C 	0.07629	0.84022	0.08819	0.049
Mof_C 	C 	0.0768	0.79432	0.08168	-0.025
Mof_C 	C 	0.06219	0.82207	0.1446	0.11
Mof_C 	C 	0.105	0.9937	0.0851	-0.035
Mof_C 	C 	0.0876	0.8729	0.0655	-0.046
Mof_C 	C 	0.34801	0.89633	0.29962	0.105
Mof_C 	C 	0.4243	0.9641	0.35152	-0.016
Mof_C 	C 	0.38974	0.97244	0.36782	0.052
Mof_C 	C 	0.25203	0.9881	0.41181	0.049
Mof_C 	C 	0.21264	0.99512	0.41832	-0.026
Mof_C 	C 	0.17747	0.91759	0.3554	0.11
Mof_C 	C 	0.4086	0.0199	0.4149	-0.032
Mof_C 	C 	0.3074	0.0221	0.4345	-0.046
Mof_C 	C 	0.70038	0.09671	0.54839	0.105
Mof_C 	C 	0.64848	0.11258	0.57278	-0.016
Mof_C 	C 	0.63218	0.10462	0.52192	0.053
Mof_C 	C 	0.58819	0.07629	0.34022	0.049
Mof_C 	C 	0.58168	0.0768	0.29432	-0.025
Mof_C 	C 	0.6446	0.06219	0.32207	0.11
Mof_C 	C 	0.5851	0.105	0.4937	-0.032
Mof_C 	C 	0.5655	0.0876	0.3729	-0.046
Mof_C 	C 	0.79962	0.34801	0.39633	0.105
Mof_C 	C 	0.85152	0.4243	0.4641	-0.016
Mof_C 	C 	0.86782	0.38974	0.47244	0.053
Mof_C 	C 	0.91181	0.25203	0.4881	0.049
Mof_C 	C 	0.91832	0.21264	0.49512	-0.025
Mof_C 	C 	0.8554	0.17747	0.41759	0.11
Mof_C 	C 	0.9149	0.4086	0.5199	-0.032
Mof_C 	C 	0.9345	0.3074	0.5221	-0.046
Mof_C 	C 	0.04832	0.15199	0.95161	0.105
Mof_C 	C 	0.0398	0.0757	0.92722	-0.017
Mof_C 	C 	0.0827	0.11026	0.97808	0.055
Mof_C 	C 	0.23607	0.24797	0.15978	0.049
Mof_C 	C 	0.28248	0.28736	0.20568	-0.025
Mof_C 	C 	0.24012	0.32253	0.17793	0.11
Mof_C 	C 	0.1113	0.0914	0.0063	-0.036
Mof_C 	C 	0.2147	0.1926	0.1271	-0.046
Mof_C 	C 	0.45168	0.40329	0.10367	0.105
Mof_C 	C 	0.4602	0.38742	0.0359	-0.016
Mof_C 	C 	0.4173	0.39538	0.02756	0.052
Mof_C 	C 	0.26393	0.42371	0.0119	0.049
Mof_C 	C 	0.21752	0.4232	0.00488	-0.026
Mof_C 	C 	0.25988	0.43781	0.08241	0.11
Mof_C 	C 	0.3887	0.395	0.9801	-0.032
Mof_C 	C 	0.2853	0.4124	0.9779	-0.046
Mof_C 	C 	0.60367	0.45168	0.90329	0.105
Mof_C 	C 	0.5359	0.4602	0.88742	-0.016
Mof_C 	C 	0.52756	0.4173	0.89538	0.053
Mof_C 	C 	0.5119	0.26393	0.92371	0.049
Mof_C 	C 	0.50488	0.21752	0.9232	-0.025
Mof_C 	C 	0.58241	0.25988	0.93781	0.11
Mof_C 	C 	0.4801	0.3887	0.895	-0.032
Mof_C 	C 	0.4779	0.2853	0.9124	-0.046
Mof_C 	C 	0.45161	0.04832	0.65199	0.105
Mof_C 	C 	0.42722	0.0398	0.5757	-0.016
Mof_C 	C 	0.47808	0.0827	0.61026	0.053
Mof_C 	C 	0.65978	0.23607	0.74797	0.049
Mof_C 	C 	0.70568	0.28248	0.78736	-0.025
Mof_C 	C 	0.67793	0.24012	0.82253	0.11
Mof_C 	C 	0.5063	0.1113	0.5914	-0.032
Mof_C 	C 	0.6271	0.2147	0.6926	-0.046
Mof_C 	C 	0.89633	0.79962	0.84801	0.105
Mof_C 	C 	0.9641	0.85152	0.9243	-0.016
Mof_C 	C 	0.97244	0.86782	0.88974	0.052
Mof_C 	C 	0.9881	0.91181	0.75203	0.049
Mof_C 	C 	0.99512	0.91832	0.71264	-0.024
Mof_C 	C 	0.91759	0.8554	0.67747	0.11
Mof_C 	C 	0.0199	0.9149	0.9086	-0.032
Mof_C 	C 	0.0221	0.9345	0.8074	-0.046
Mof_C 	C 	0.04839	0.70038	0.59671	0.105
Mof_C 	C 	0.07278	0.64848	0.61258	-0.016
Mof_C 	C 	0.02192	0.63218	0.60462	0.053
Mof_C 	C 	0.84022	0.58819	0.57629	0.049
Mof_C 	C 	0.79432	0.58168	0.5768	-0.025
Mof_C 	C 	0.82207	0.6446	0.56219	0.11
Mof_C 	C 	0.9937	0.5851	0.605	-0.033
Mof_C 	C 	0.8729	0.5655	0.5876	-0.046
Mof_C 	C 	0.04839	0.34801	0.95168	0.105
Mof_C 	C 	0.07278	0.4243	0.9602	-0.017
Mof_C 	C 	0.02192	0.38974	0.9173	0.055
Mof_C 	C 	0.84022	0.25203	0.76393	0.049
Mof_C 	C 	0.79432	0.21264	0.71752	-0.025
Mof_C 	C 	0.82207	0.17747	0.75988	0.11
Mof_C 	C 	0.9937	0.4086	0.8887	-0.037
Mof_C 	C 	0.8729	0.3074	0.7853	-0.046
Mof_C 	C 	0.89633	0.09671	0.54832	0.105
Mof_C 	C 	0.9641	0.11258	0.5398	-0.016
Mof_C 	C 	0.97244	0.10462	0.5827	0.051
Mof_C 	C 	0.9881	0.07629	0.73607	0.049
Mof_C 	C 	0.99512	0.0768	0.78248	-0.027
Mof_C 	C 	0.91759	0.06219	0.74012	0.11
Mof_C 	C 	0.0199	0.105	0.6113	-0.031
Mof_C 	C 	0.0221	0.0876	0.7147	-0.045
Mof_C 	C 	0.45161	0.40329	0.29962	0.105
Mof_C 	C 	0.42722	0.38742	0.35152	-0.016
Mof_C 	C 	0.47808	0.39538	0.36782	0.053
Mof_C 	C 	0.65978	0.42371	0.41181	0.049
Mof_C 	C 	0.70568	0.4232	0.41832	-0.025
Mof_C 	C 	0.67793	0.43781	0.3554	0.11
Mof_C 	C 	0.5063	0.395	0.4149	-0.032
Mof_C 	C 	0.6271	0.4124	0.4345	-0.046
Mof_C 	C 	0.60367	0.15199	0.20038	0.105
Mof_C 	C 	0.5359	0.0757	0.14848	-0.016
Mof_C 	C 	0.52756	0.11026	0.13218	0.053
Mof_C 	C 	0.5119	0.24797	0.08819	0.049
Mof_C 	C 	0.50488	0.28736	0.08168	-0.025
Mof_C 	C 	0.58241	0.32253	0.1446	0.11
Mof_C 	C 	0.4801	0.0914	0.0851	-0.032
Mof_C 	C 	0.4779	0.1926	0.0655	-0.046
Mof_C 	C 	0.40329	0.79962	0.95161	0.105
Mof_C 	C 	0.38742	0.85152	0.92722	-0.017
Mof_C 	C 	0.39538	0.86782	0.97808	0.053
Mof_C 	C 	0.42371	0.91181	0.15978	0.049
Mof_C 	C 	0.4232	0.91832	0.20568	-0.025
Mof_C 	C 	0.43781	0.8554	0.17793	0.11
Mof_C 	C 	0.395	0.9149	0.0063	-0.034
Mof_C 	C 	0.4124	0.9345	0.1271	-0.046
Mof_C 	C 	0.15199	0.70038	0.10367	0.105
Mof_C 	C 	0.0757	0.64848	0.0359	-0.016
Mof_C 	C 	0.11026	0.63218	0.02756	0.051
Mof_C 	C 	0.24797	0.58819	0.0119	0.049
Mof_C 	C 	0.28736	0.58168	0.00488	-0.025
Mof_C 	C 	0.32253	0.6446	0.08241	0.11
Mof_C 	C 	0.0914	0.5851	0.9801	-0.031
Mof_C 	C 	0.1926	0.5655	0.9779	-0.045
Mof_C 	C 	0.34801	0.45168	0.54839	0.105
Mof_C 	C 	0.4243	0.4602	0.57278	-0.016
Mof_C 	C 	0.38974	0.4173	0.52192	0.053
Mof_C 	C 	0.25203	0.26393	0.34022	0.049
Mof_C 	C 	0.21264	0.21752	0.29432	-0.025
Mof_C 	C 	0.17747	0.25988	0.32207	0.11
Mof_C 	C 	0.4086	0.3887	0.4937	-0.032
Mof_C 	C 	0.3074	0.2853	0.3729	-0.046
Mof_C 	C 	0.09671	0.04832	0.39633	0.105
Mof_C 	C 	0.11258	0.0398	0.4641	-0.016
Mof_C 	C 	0.10462	0.0827	0.47244	0.053
Mof_C 	C 	0.07629	0.23607	0.4881	0.049
Mof_C 	C 	0.0768	0.28248	0.49512	-0.025
Mof_C 	C 	0.06219	0.24012	0.41759	0.11
Mof_C 	C 	0.105	0.1113	0.5199	-0.032
Mof_C 	C 	0.0876	0.2147	0.5221	-0.046
Mof_C 	C 	0.04832	0.89633	0.59671	0.105
Mof_C 	C 	0.0398	0.9641	0.61258	-0.016
Mof_C 	C 	0.0827	0.97244	0.60462	0.052
Mof_C 	C 	0.23607	0.9881	0.57629	0.049
Mof_C 	C 	0.28248	0.99512	0.5768	-0.025
Mof_C 	C 	0.24012	0.91759	0.56219	0.11
Mof_C 	C 	0.1113	0.0199	0.605	-0.031
Mof_C 	C 	0.2147	0.0221	0.5876	-0.045
Mof_C 	C 	0.45168	0.04839	0.84801	0.105
Mof_C 	C 	0.4602	0.07278	0.9243	-0.016
Mof_C 	C 	0.4173	0.02192	0.88974	0.053
Mof_C 	C 	0.26393	0.84022	0.75203	0.049
Mof_C 	C 	0.21752	0.79432	0.71264	-0.025
Mof_C 	C 	0.25988	0.82207	0.67747	0.11
Mof_C 	C 	0.3887	0.9937	0.9086	-0.033
Mof_C 	C 	0.2853	0.8729	0.8074	-0.046
Mof_C 	C 	0.70038	0.60367	0.65199	0.105
Mof_C 	C 	0.64848	0.5359	0.5757	-0.016
Mof_C 	C 	0.63218	0.52756	0.61026	0.053
Mof_C 	C 	0.58819	0.5119	0.74797	0.049
Mof_C 	C 	0.58168	0.50488	0.78736	-0.025
Mof_C 	C 	0.6446	0.58241	0.82253	0.11
Mof_C 	C 	0.5851	0.4801	0.5914	-0.032
Mof_C 	C 	0.5655	0.4779	0.6926	-0.046
Mof_C 	C 	0.79962	0.45161	0.90329	0.105
Mof_C 	C 	0.85152	0.42722	0.88742	-0.016
Mof_C 	C 	0.86782	0.47808	0.89538	0.052
Mof_C 	C 	0.91181	0.65978	0.92371	0.049
Mof_C 	C 	0.91832	0.70568	0.9232	-0.025
Mof_C 	C 	0.8554	0.67793	0.93781	0.11
Mof_C 	C 	0.9149	0.5063	0.895	-0.032
Mof_C 	C 	0.9345	0.6271	0.9124	-0.046
Mof_C 	C 	0.84801	0.54839	0.45168	0.105
Mof_C 	C 	0.9243	0.57278	0.4602	-0.016
Mof_C 	C 	0.88974	0.52192	0.4173	0.053
Mof_C 	C 	0.75203	0.34022	0.26393	0.049
Mof_C 	C 	0.71264	0.29432	0.21752	-0.025
Mof_C 	C 	0.67747	0.32207	0.25988	0.11
Mof_C 	C 	0.9086	0.4937	0.3887	-0.032
Mof_C 	C 	0.8074	0.3729	0.2853	-0.046
Mof_C 	C 	0.59671	0.39633	0.04832	0.105
Mof_C 	C 	0.61258	0.4641	0.0398	-0.016
Mof_C 	C 	0.60462	0.47244	0.0827	0.053
Mof_C 	C 	0.57629	0.4881	0.23607	0.049
Mof_C 	C 	0.5768	0.49512	0.28248	-0.025
Mof_C 	C 	0.56219	0.41759	0.24012	0.11
Mof_C 	C 	0.605	0.5199	0.1113	-0.032
Mof_C 	C 	0.5876	0.5221	0.2147	-0.046
Mof_C 	C 	0.90329	0.95161	0.79962	0.105
Mof_C 	C 	0.88742	0.92722	0.85152	-0.017
Mof_C 	C 	0.89538	0.97808	0.86782	0.054
Mof_C 	C 	0.92371	0.15978	0.91181	0.049
Mof_C 	C 	0.9232	0.20568	0.91832	-0.025
Mof_C 	C 	0.93781	0.17793	0.8554	0.11
Mof_C 	C 	0.895	0.0063	0.9149	-0.035
Mof_C 	C 	0.9124	0.1271	0.9345	-0.046
Mof_C 	C 	0.65199	0.10367	0.70038	0.105
Mof_C 	C 	0.5757	0.0359	0.64848	-0.016
Mof_C 	C 	0.61026	0.02756	0.63218	0.052
Mof_C 	C 	0.74797	0.0119	0.58819	0.049
Mof_C 	C 	0.78736	0.00488	0.58168	-0.026
Mof_C 	C 	0.82253	0.08241	0.6446	0.11
Mof_C 	C 	0.5914	0.9801	0.5851	-0.032
Mof_C 	C 	0.6926	0.9779	0.5655	-0.046
Mof_C 	C 	0.29962	0.90329	0.45161	0.105
Mof_C 	C 	0.35152	0.88742	0.42722	-0.016
Mof_C 	C 	0.36782	0.89538	0.47808	0.053
Mof_C 	C 	0.41181	0.92371	0.65978	0.049
Mof_C 	C 	0.41832	0.9232	0.70568	-0.025
Mof_C 	C 	0.3554	0.93781	0.67793	0.11
Mof_C 	C 	0.4149	0.895	0.5063	-0.032
Mof_C 	C 	0.4345	0.9124	0.6271	-0.046
Mof_C 	C 	0.20038	0.65199	0.60367	0.105
Mof_C 	C 	0.14848	0.5757	0.5359	-0.016
Mof_C 	C 	0.13218	0.61026	0.52756	0.053
Mof_C 	C 	0.08819	0.74797	0.5119	0.049
Mof_C 	C 	0.08168	0.78736	0.50488	-0.025
Mof_C 	C 	0.1446	0.82253	0.58241	0.11
Mof_C 	C 	0.0851	0.5914	0.4801	-0.032
Mof_C 	C 	0.0655	0.6926	0.4779	-0.046
Mof_C 	C 	0.95168	0.84801	0.04839	0.105
Mof_C 	C 	0.9602	0.9243	0.07278	-0.017
Mof_C 	C 	0.9173	0.88974	0.02192	0.055
Mof_C 	C 	0.76393	0.75203	0.84022	0.049
Mof_C 	C 	0.71752	0.71264	0.79432	-0.025
Mof_C 	C 	0.75988	0.67747	0.82207	0.11
Mof_C 	C 	0.8887	0.9086	0.9937	-0.036
Mof_C 	C 	0.7853	0.8074	0.8729	-0.046
Mof_C 	C 	0.54832	0.59671	0.89633	0.105
Mof_C 	C 	0.5398	0.61258	0.9641	-0.016
Mof_C 	C 	0.5827	0.60462	0.97244	0.052
Mof_C 	C 	0.73607	0.57629	0.9881	0.049
Mof_C 	C 	0.78248	0.5768	0.99512	-0.026
Mof_C 	C 	0.74012	0.56219	0.91759	0.11
Mof_C 	C 	0.6113	0.605	0.0199	-0.032
Mof_C 	C 	0.7147	0.5876	0.0221	-0.046
Mof_C 	C 	0.39633	0.54832	0.09671	0.105
Mof_C 	C 	0.4641	0.5398	0.11258	-0.016
Mof_C 	C 	0.47244	0.5827	0.10462	0.053
Mof_C 	C 	0.4881	0.73607	0.07629	0.049
Mof_C 	C 	0.49512	0.78248	0.0768	-0.025
Mof_C 	C 	0.41759	0.74012	0.06219	0.11
Mof_C 	C 	0.5199	0.6113	0.105	-0.032
Mof_C 	C 	0.5221	0.7147	0.0876	-0.046
Mof_C 	C 	0.54839	0.95168	0.34801	0.105
Mof_C 	C 	0.57278	0.9602	0.4243	-0.016
Mof_C 	C 	0.52192	0.9173	0.38974	0.053
Mof_C 	C 	0.34022	0.76393	0.25203	0.049
Mof_C 	C 	0.29432	0.71752	0.21264	-0.025
Mof_C 	C 	0.32207	0.75988	0.17747	0.11
Mof_C 	C 	0.4937	0.8887	0.4086	-0.032
Mof_C 	C 	0.3729	0.7853	0.3074	-0.046
Mof_C 	C 	0.10367	0.20038	0.15199	0.105
Mof_C 	C 	0.0359	0.14848	0.0757	-0.016
Mof_C 	C 	0.02756	0.13218	0.11026	0.052
Mof_C 	C 	0.0119	0.08819	0.24797	0.049
Mof_C 	C 	0.00488	0.08168	0.28736	-0.024
Mof_C 	C 	0.08241	0.1446	0.32253	0.11
Mof_C 	C 	0.9801	0.0851	0.0914	-0.032
Mof_C 	C 	0.9779	0.0655	0.1926	-0.046
Mof_C 	C 	0.95161	0.29962	0.40329	0.105
Mof_C 	C 	0.92722	0.35152	0.38742	-0.016
Mof_C 	C 	0.97808	0.36782	0.39538	0.053
Mof_C 	C 	0.15978	0.41181	0.42371	0.049
Mof_C 	C 	0.20568	0.41832	0.4232	-0.025
Mof_C 	C 	0.17793	0.3554	0.43781	0.11
Mof_C 	C 	0.0063	0.4149	0.395	-0.033
Mof_C 	C 	0.1271	0.4345	0.4124	-0.046
Mof_C 	C 	0.95161	0.65199	0.04832	0.105
Mof_C 	C 	0.92722	0.5757	0.0398	-0.017
Mof_C 	C 	0.97808	0.61026	0.0827	0.055
Mof_C 	C 	0.15978	0.74797	0.23607	0.049
Mof_C 	C 	0.20568	0.78736	0.28248	-0.025
Mof_C 	C 	0.17793	0.82253	0.24012	0.11
Mof_C 	C 	0.0063	0.5914	0.1113	-0.037
Mof_C 	C 	0.1271	0.6926	0.2147	-0.046
Mof_C 	C 	0.10367	0.90329	0.45168	0.105
Mof_C 	C 	0.0359	0.88742	0.4602	-0.016
Mof_C 	C 	0.02756	0.89538	0.4173	0.051
Mof_C 	C 	0.0119	0.92371	0.26393	0.049
Mof_C 	C 	0.00488	0.9232	0.21752	-0.027
Mof_C 	C 	0.08241	0.93781	0.25988	0.11
Mof_C 	C 	0.9801	0.895	0.3887	-0.031
Mof_C 	C 	0.9779	0.9124	0.2853	-0.045
Mof_C 	C 	0.54839	0.59671	0.70038	0.105
Mof_C 	C 	0.57278	0.61258	0.64848	-0.016
Mof_C 	C 	0.52192	0.60462	0.63218	0.053
Mof_C 	C 	0.34022	0.57629	0.58819	0.049
Mof_C 	C 	0.29432	0.5768	0.58168	-0.025
Mof_C 	C 	0.32207	0.56219	0.6446	0.11
Mof_C 	C 	0.4937	0.605	0.5851	-0.032
Mof_C 	C 	0.3729	0.5876	0.5655	-0.046
Mof_C 	C 	0.39633	0.84801	0.79962	0.105
Mof_C 	C 	0.4641	0.9243	0.85152	-0.016
Mof_C 	C 	0.47244	0.88974	0.86782	0.053
Mof_C 	C 	0.4881	0.75203	0.91181	0.049
Mof_C 	C 	0.49512	0.71264	0.91832	-0.025
Mof_C 	C 	0.41759	0.67747	0.8554	0.11
Mof_C 	C 	0.5199	0.9086	0.9149	-0.032
Mof_C 	C 	0.5221	0.8074	0.9345	-0.046
Mof_C 	C 	0.59671	0.20038	0.04839	0.105
Mof_C 	C 	0.61258	0.14848	0.07278	-0.017
Mof_C 	C 	0.60462	0.13218	0.02192	0.053
Mof_C 	C 	0.57629	0.08819	0.84022	0.049
Mof_C 	C 	0.5768	0.08168	0.79432	-0.025
Mof_C 	C 	0.56219	0.1446	0.82207	0.11
Mof_C 	C 	0.605	0.0851	0.9937	-0.034
Mof_C 	C 	0.5876	0.0655	0.8729	-0.046
Mof_C 	C 	0.84801	0.29962	0.89633	0.105
Mof_C 	C 	0.9243	0.35152	0.9641	-0.016
Mof_C 	C 	0.88974	0.36782	0.97244	0.051
Mof_C 	C 	0.75203	0.41181	0.9881	0.049
Mof_C 	C 	0.71264	0.41832	0.99512	-0.025
Mof_C 	C 	0.67747	0.3554	0.91759	0.11
Mof_C 	C 	0.9086	0.4149	0.0199	-0.031
Mof_C 	C 	0.8074	0.4345	0.0221	-0.045
Mof_C 	C 	0.65199	0.54832	0.45161	0.105
Mof_C 	C 	0.5757	0.5398	0.42722	-0.016
Mof_C 	C 	0.61026	0.5827	0.47808	0.053
Mof_C 	C 	0.74797	0.73607	0.65978	0.049
Mof_C 	C 	0.78736	0.78248	0.70568	-0.025
Mof_C 	C 	0.82253	0.74012	0.67793	0.11
Mof_C 	C 	0.5914	0.6113	0.5063	-0.032
Mof_C 	C 	0.6926	0.7147	0.6271	-0.046
Mof_C 	C 	0.90329	0.95168	0.60367	0.105
Mof_C 	C 	0.88742	0.9602	0.5359	-0.016
Mof_C 	C 	0.89538	0.9173	0.52756	0.053
Mof_C 	C 	0.92371	0.76393	0.5119	0.049
Mof_C 	C 	0.9232	0.71752	0.50488	-0.025
Mof_C 	C 	0.93781	0.75988	0.58241	0.11
Mof_C 	C 	0.895	0.8887	0.4801	-0.032
Mof_C 	C 	0.9124	0.7853	0.4779	-0.046
Mof_C 	C 	0.95168	0.10367	0.40329	0.105
Mof_C 	C 	0.9602	0.0359	0.38742	-0.016
Mof_C 	C 	0.9173	0.02756	0.39538	0.052
Mof_C 	C 	0.76393	0.0119	0.42371	0.049
Mof_C 	C 	0.71752	0.00488	0.4232	-0.025
Mof_C 	C 	0.75988	0.08241	0.43781	0.11
Mof_C 	C 	0.8887	0.9801	0.395	-0.031
Mof_C 	C 	0.7853	0.9779	0.4124	-0.045
Mof_C 	C 	0.54832	0.95161	0.15199	0.105
Mof_C 	C 	0.5398	0.92722	0.0757	-0.016
Mof_C 	C 	0.5827	0.97808	0.11026	0.053
Mof_C 	C 	0.73607	0.15978	0.24797	0.049
Mof_C 	C 	0.78248	0.20568	0.28736	-0.025
Mof_C 	C 	0.74012	0.17793	0.32253	0.11
Mof_C 	C 	0.6113	0.0063	0.0914	-0.033
Mof_C 	C 	0.7147	0.1271	0.1926	-0.046
Mof_C 	C 	0.29962	0.39633	0.34801	0.105
Mof_C 	C 	0.35152	0.4641	0.4243	-0.016
Mof_C 	C 	0.36782	0.47244	0.38974	0.053
Mof_C 	C 	0.41181	0.4881	0.25203	0.049
Mof_C 	C 	0.41832	0.49512	0.21264	-0.025
Mof_C 	C 	0.3554	0.41759	0.17747	0.11
Mof_C 	C 	0.4149	0.5199	0.4086	-0.032
Mof_C 	C 	0.4345	0.5221	0.3074	-0.046
Mof_C 	C 	0.20038	0.54839	0.09671	0.105
Mof_C 	C 	0.14848	0.57278	0.11258	-0.016
Mof_C 	C 	0.13218	0.52192	0.10462	0.052
Mof_C 	C 	0.08819	0.34022	0.07629	0.049
Mof_C 	C 	0.08168	0.29432	0.0768	-0.025
Mof_C 	C 	0.1446	0.32207	0.06219	0.11
Mof_C 	C 	0.0851	0.4937	0.105	-0.032
Mof_C 	C 	0.0655	0.3729	0.0876	-0.046
Mof_N 	N 	0.16	0.49309	0.58805	-0.209
Mof_N 	N 	0.10208	0.41055	0.51833	-0.193
Mof_N 	N 	0.1139	0.5518	0.6527	-0.081
Mof_N 	N 	0.167	0.5804	0.6678	-0.124
Mof_N 	N 	0.27154	0.64113	0.70957	-0.208
Mof_N 	N 	0.33484	0.71754	0.78462	-0.201
Mof_N 	N 	0.40504	0.57195	0.91195	-0.209
Mof_N 	N 	0.39222	0.58375	0.98167	-0.193
Mof_N 	N 	0.3991	0.4612	0.8473	-0.081
Mof_N 	N 	0.4126	0.4992	0.8322	-0.124
Mof_N 	N 	0.43156	0.56197	0.79043	-0.208
Mof_N 	N 	0.43292	0.55022	0.71538	-0.201
Mof_N 	N 	0.09496	0.00691	0.16691	-0.209
Mof_N 	N 	0.10778	0.08945	0.19153	-0.193
Mof_N 	N 	0.1009	0.9482	0.0621	-0.081
Mof_N 	N 	0.0874	0.9196	0.0866	-0.124
Mof_N 	N 	0.06844	0.85887	0.13041	-0.208
Mof_N 	N 	0.06708	0.78246	0.1173	-0.201
Mof_N 	N 	0.34	0.92805	0.33309	-0.209
Mof_N 	N 	0.39792	0.91625	0.30847	-0.193
Mof_N 	N 	0.3861	0.0388	0.4379	-0.081
Mof_N 	N 	0.333	0.0008	0.4134	-0.124
Mof_N 	N 	0.22846	0.93803	0.36959	-0.208
Mof_N 	N 	0.16516	0.94978	0.3827	-0.201
Mof_N 	N 	0.66691	0.09496	0.50691	-0.209
Mof_N 	N 	0.69153	0.10778	0.58945	-0.193
Mof_N 	N 	0.5621	0.1009	0.4482	-0.081
Mof_N 	N 	0.5866	0.0874	0.4196	-0.124
Mof_N 	N 	0.63041	0.06844	0.35887	-0.208
Mof_N 	N 	0.6173	0.06708	0.28246	-0.201
Mof_N 	N 	0.83309	0.34	0.42805	-0.209
Mof_N 	N 	0.80847	0.39792	0.41625	-0.193
Mof_N 	N 	0.9379	0.3861	0.5388	-0.081
Mof_N 	N 	0.9134	0.333	0.5008	-0.124
Mof_N 	N 	0.86959	0.22846	0.43803	-0.208
Mof_N 	N 	0.8827	0.16516	0.44978	-0.201
Mof_N 	N 	0.08805	0.16	0.99309	-0.209
Mof_N 	N 	0.01833	0.10208	0.91055	-0.192
Mof_N 	N 	0.1527	0.1139	0.0518	-0.08
Mof_N 	N 	0.1678	0.167	0.0804	-0.124
Mof_N 	N 	0.20957	0.27154	0.14113	-0.208
Mof_N 	N 	0.28462	0.33484	0.21754	-0.201
Mof_N 	N 	0.41195	0.40504	0.07195	-0.209
Mof_N 	N 	0.48167	0.39222	0.08375	-0.193
Mof_N 	N 	0.3473	0.3991	0.9612	-0.081
Mof_N 	N 	0.3322	0.4126	0.9992	-0.124
Mof_N 	N 	0.29043	0.43156	0.06197	-0.208
Mof_N 	N 	0.21538	0.43292	0.05022	-0.201
Mof_N 	N 	0.57195	0.41195	0.90504	-0.209
Mof_N 	N 	0.58375	0.48167	0.89222	-0.193
Mof_N 	N 	0.4612	0.3473	0.8991	-0.081
Mof_N 	N 	0.4992	0.3322	0.9126	-0.124
Mof_N 	N 	0.56197	0.29043	0.93156	-0.208
Mof_N 	N 	0.55022	0.21538	0.93292	-0.201
Mof_N 	N 	0.49309	0.08805	0.66	-0.209
Mof_N 	N 	0.41055	0.01833	0.60208	-0.193
Mof_N 	N 	0.5518	0.1527	0.6139	-0.081
Mof_N 	N 	0.5804	0.1678	0.667	-0.124
Mof_N 	N 	0.64113	0.20957	0.77154	-0.208
Mof_N 	N 	0.71754	0.28462	0.83484	-0.201
Mof_N 	N 	0.92805	0.83309	0.84	-0.209
Mof_N 	N 	0.91625	0.80847	0.89792	-0.193
Mof_N 	N 	0.0388	0.9379	0.8861	-0.081
Mof_N 	N 	0.0008	0.9134	0.833	-0.124
Mof_N 	N 	0.93803	0.86959	0.72846	-0.208
Mof_N 	N 	0.94978	0.8827	0.66516	-0.201
Mof_N 	N 	0.00691	0.66691	0.59496	-0.209
Mof_N 	N 	0.08945	0.69153	0.60778	-0.193
Mof_N 	N 	0.9482	0.5621	0.6009	-0.081
Mof_N 	N 	0.9196	0.5866	0.5874	-0.124
Mof_N 	N 	0.85887	0.63041	0.56844	-0.208
Mof_N 	N 	0.78246	0.6173	0.56708	-0.201
Mof_N 	N 	0.00691	0.34	0.91195	-0.209
Mof_N 	N 	0.08945	0.39792	0.98167	-0.193
Mof_N 	N 	0.9482	0.3861	0.8473	-0.08
Mof_N 	N 	0.9196	0.333	0.8322	-0.124
Mof_N 	N 	0.85887	0.22846	0.79043	-0.208
Mof_N 	N 	0.78246	0.16516	0.71538	-0.201
Mof_N 	N 	0.92805	0.09496	0.58805	-0.209
Mof_N 	N 	0.91625	0.10778	0.51833	-0.193
Mof_N 	N 	0.0388	0.1009	0.6527	-0.081
Mof_N 	N 	0.0008	0.0874	0.6678	-0.124
Mof_N 	N 	0.93803	0.06844	0.70957	-0.208
Mof_N 	N 	0.94978	0.06708	0.78462	-0.201
Mof_N 	N 	0.49309	0.40504	0.33309	-0.209
Mof_N 	N 	0.41055	0.39222	0.30847	-0.193
Mof_N 	N 	0.5518	0.3991	0.4379	-0.081
Mof_N 	N 	0.5804	0.4126	0.4134	-0.124
Mof_N 	N 	0.64113	0.43156	0.36959	-0.208
Mof_N 	N 	0.71754	0.43292	0.3827	-0.201
Mof_N 	N 	0.57195	0.16	0.16691	-0.209
Mof_N 	N 	0.58375	0.10208	0.19153	-0.193
Mof_N 	N 	0.4612	0.1139	0.0621	-0.081
Mof_N 	N 	0.4992	0.167	0.0866	-0.124
Mof_N 	N 	0.56197	0.27154	0.13041	-0.208
Mof_N 	N 	0.55022	0.33484	0.1173	-0.201
Mof_N 	N 	0.40504	0.83309	0.99309	-0.209
Mof_N 	N 	0.39222	0.80847	0.91055	-0.193
Mof_N 	N 	0.3991	0.9379	0.0518	-0.081
Mof_N 	N 	0.4126	0.9134	0.0804	-0.124
Mof_N 	N 	0.43156	0.86959	0.14113	-0.208
Mof_N 	N 	0.43292	0.8827	0.21754	-0.201
Mof_N 	N 	0.16	0.66691	0.07195	-0.209
Mof_N 	N 	0.10208	0.69153	0.08375	-0.193
Mof_N 	N 	0.1139	0.5621	0.9612	-0.081
Mof_N 	N 	0.167	0.5866	0.9992	-0.124
Mof_N 	N 	0.27154	0.63041	0.06197	-0.208
Mof_N 	N 	0.33484	0.6173	0.05022	-0.201
Mof_N 	N 	0.34	0.41195	0.50691	-0.209
Mof_N 	N 	0.39792	0.48167	0.58945	-0.193
Mof_N 	N 	0.3861	0.3473	0.4482	-0.081
Mof_N 	N 	0.333	0.3322	0.4196	-0.124
Mof_N 	N 	0.22846	0.29043	0.35887	-0.208
Mof_N 	N 	0.16516	0.21538	0.28246	-0.201
Mof_N 	N 	0.09496	0.08805	0.42805	-0.209
Mof_N 	N 	0.10778	0.01833	0.41625	-0.193
Mof_N 	N 	0.1009	0.1527	0.5388	-0.081
Mof_N 	N 	0.0874	0.1678	0.5008	-0.124
Mof_N 	N 	0.06844	0.20957	0.43803	-0.208
Mof_N 	N 	0.06708	0.28462	0.44978	-0.201
Mof_N 	N 	0.08805	0.92805	0.59496	-0.209
Mof_N 	N 	0.01833	0.91625	0.60778	-0.193
Mof_N 	N 	0.1527	0.0388	0.6009	-0.081
Mof_N 	N 	0.1678	0.0008	0.5874	-0.124
Mof_N 	N 	0.20957	0.93803	0.56844	-0.208
Mof_N 	N 	0.28462	0.94978	0.56708	-0.201
Mof_N 	N 	0.41195	0.00691	0.84	-0.209
Mof_N 	N 	0.48167	0.08945	0.89792	-0.193
Mof_N 	N 	0.3473	0.9482	0.8861	-0.081
Mof_N 	N 	0.3322	0.9196	0.833	-0.124
Mof_N 	N 	0.29043	0.85887	0.72846	-0.208
Mof_N 	N 	0.21538	0.78246	0.66516	-0.201
Mof_N 	N 	0.66691	0.57195	0.66	-0.209
Mof_N 	N 	0.69153	0.58375	0.60208	-0.193
Mof_N 	N 	0.5621	0.4612	0.6139	-0.081
Mof_N 	N 	0.5866	0.4992	0.667	-0.124
Mof_N 	N 	0.63041	0.56197	0.77154	-0.208
Mof_N 	N 	0.6173	0.55022	0.83484	-0.201
Mof_N 	N 	0.83309	0.49309	0.90504	-0.209
Mof_N 	N 	0.80847	0.41055	0.89222	-0.193
Mof_N 	N 	0.9379	0.5518	0.8991	-0.081
Mof_N 	N 	0.9134	0.5804	0.9126	-0.124
Mof_N 	N 	0.86959	0.64113	0.93156	-0.208
Mof_N 	N 	0.8827	0.71754	0.93292	-0.201
Mof_N 	N 	0.84	0.50691	0.41195	-0.209
Mof_N 	N 	0.89792	0.58945	0.48167	-0.193
Mof_N 	N 	0.8861	0.4482	0.3473	-0.081
Mof_N 	N 	0.833	0.4196	0.3322	-0.124
Mof_N 	N 	0.72846	0.35887	0.29043	-0.208
Mof_N 	N 	0.66516	0.28246	0.21538	-0.201
Mof_N 	N 	0.59496	0.42805	0.08805	-0.209
Mof_N 	N 	0.60778	0.41625	0.01833	-0.193
Mof_N 	N 	0.6009	0.5388	0.1527	-0.081
Mof_N 	N 	0.5874	0.5008	0.1678	-0.124
Mof_N 	N 	0.56844	0.43803	0.20957	-0.208
Mof_N 	N 	0.56708	0.44978	0.28462	-0.201
Mof_N 	N 	0.90504	0.99309	0.83309	-0.209
Mof_N 	N 	0.89222	0.91055	0.80847	-0.193
Mof_N 	N 	0.8991	0.0518	0.9379	-0.081
Mof_N 	N 	0.9126	0.0804	0.9134	-0.124
Mof_N 	N 	0.93156	0.14113	0.86959	-0.208
Mof_N 	N 	0.93292	0.21754	0.8827	-0.201
Mof_N 	N 	0.66	0.07195	0.66691	-0.209
Mof_N 	N 	0.60208	0.08375	0.69153	-0.193
Mof_N 	N 	0.6139	0.9612	0.5621	-0.081
Mof_N 	N 	0.667	0.9992	0.5866	-0.124
Mof_N 	N 	0.77154	0.06197	0.63041	-0.208
Mof_N 	N 	0.83484	0.05022	0.6173	-0.201
Mof_N 	N 	0.33309	0.90504	0.49309	-0.209
Mof_N 	N 	0.30847	0.89222	0.41055	-0.193
Mof_N 	N 	0.4379	0.8991	0.5518	-0.081
Mof_N 	N 	0.4134	0.9126	0.5804	-0.124
Mof_N 	N 	0.36959	0.93156	0.64113	-0.208
Mof_N 	N 	0.3827	0.93292	0.71754	-0.201
Mof_N 	N 	0.16691	0.66	0.57195	-0.209
Mof_N 	N 	0.19153	0.60208	0.58375	-0.193
Mof_N 	N 	0.0621	0.6139	0.4612	-0.081
Mof_N 	N 	0.0866	0.667	0.4992	-0.124
Mof_N 	N 	0.13041	0.77154	0.56197	-0.208
Mof_N 	N 	0.1173	0.83484	0.55022	-0.201
Mof_N 	N 	0.91195	0.84	0.00691	-0.209
Mof_N 	N 	0.98167	0.89792	0.08945	-0.192
Mof_N 	N 	0.8473	0.8861	0.9482	-0.08
Mof_N 	N 	0.8322	0.833	0.9196	-0.124
Mof_N 	N 	0.79043	0.72846	0.85887	-0.208
Mof_N 	N 	0.71538	0.66516	0.78246	-0.201
Mof_N 	N 	0.58805	0.59496	0.92805	-0.209
Mof_N 	N 	0.51833	0.60778	0.91625	-0.193
Mof_N 	N 	0.6527	0.6009	0.0388	-0.081
Mof_N 	N 	0.6678	0.5874	0.0008	-0.124
Mof_N 	N 	0.70957	0.56844	0.93803	-0.208
Mof_N 	N 	0.78462	0.56708	0.94978	-0.201
Mof_N 	N 	0.42805	0.58805	0.09496	-0.209
Mof_N 	N 	0.41625	0.51833	0.10778	-0.193
Mof_N 	N 	0.5388	0.6527	0.1009	-0.081
Mof_N 	N 	0.5008	0.6678	0.0874	-0.124
Mof_N 	N 	0.43803	0.70957	0.06844	-0.208
Mof_N 	N 	0.44978	0.78462	0.06708	-0.201
Mof_N 	N 	0.50691	0.91195	0.34	-0.209
Mof_N 	N 	0.58945	0.98167	0.39792	-0.193
Mof_N 	N 	0.4482	0.8473	0.3861	-0.081
Mof_N 	N 	0.4196	0.8322	0.333	-0.124
Mof_N 	N 	0.35887	0.79043	0.22846	-0.208
Mof_N 	N 	0.28246	0.71538	0.16516	-0.201
Mof_N 	N 	0.07195	0.16691	0.16	-0.209
Mof_N 	N 	0.08375	0.19153	0.10208	-0.193
Mof_N 	N 	0.9612	0.0621	0.1139	-0.081
Mof_N 	N 	0.9992	0.0866	0.167	-0.124
Mof_N 	N 	0.06197	0.13041	0.27154	-0.208
Mof_N 	N 	0.05022	0.1173	0.33484	-0.201
Mof_N 	N 	0.99309	0.33309	0.40504	-0.209
Mof_N 	N 	0.91055	0.30847	0.39222	-0.193
Mof_N 	N 	0.0518	0.4379	0.3991	-0.081
Mof_N 	N 	0.0804	0.4134	0.4126	-0.124
Mof_N 	N 	0.14113	0.36959	0.43156	-0.208
Mof_N 	N 	0.21754	0.3827	0.43292	-0.201
Mof_N 	N 	0.99309	0.66	0.08805	-0.209
Mof_N 	N 	0.91055	0.60208	0.01833	-0.193
Mof_N 	N 	0.0518	0.6139	0.1527	-0.08
Mof_N 	N 	0.0804	0.667	0.1678	-0.124
Mof_N 	N 	0.14113	0.77154	0.20957	-0.208
Mof_N 	N 	0.21754	0.83484	0.28462	-0.201
Mof_N 	N 	0.07195	0.90504	0.41195	-0.209
Mof_N 	N 	0.08375	0.89222	0.48167	-0.193
Mof_N 	N 	0.9612	0.8991	0.3473	-0.081
Mof_N 	N 	0.9992	0.9126	0.3322	-0.124
Mof_N 	N 	0.06197	0.93156	0.29043	-0.208
Mof_N 	N 	0.05022	0.93292	0.21538	-0.201
Mof_N 	N 	0.50691	0.59496	0.66691	-0.209
Mof_N 	N 	0.58945	0.60778	0.69153	-0.193
Mof_N 	N 	0.4482	0.6009	0.5621	-0.081
Mof_N 	N 	0.4196	0.5874	0.5866	-0.124
Mof_N 	N 	0.35887	0.56844	0.63041	-0.208
Mof_N 	N 	0.28246	0.56708	0.6173	-0.201
Mof_N 	N 	0.42805	0.84	0.83309	-0.209
Mof_N 	N 	0.41625	0.89792	0.80847	-0.193
Mof_N 	N 	0.5388	0.8861	0.9379	-0.081
Mof_N 	N 	0.5008	0.833	0.9134	-0.124
Mof_N 	N 	0.43803	0.72846	0.86959	-0.208
Mof_N 	N 	0.44978	0.66516	0.8827	-0.201
Mof_N 	N 	0.59496	0.16691	0.00691	-0.209
Mof_N 	N 	0.60778	0.19153	0.08945	-0.193
Mof_N 	N 	0.6009	0.0621	0.9482	-0.081
Mof_N 	N 	0.5874	0.0866	0.9196	-0.124
Mof_N 	N 	0.56844	0.13041	0.85887	-0.208
Mof_N 	N 	0.56708	0.1173	0.78246	-0.201
Mof_N 	N 	0.84	0.33309	0.92805	-0.209
Mof_N 	N 	0.89792	0.30847	0.91625	-0.193
Mof_N 	N 	0.8861	0.4379	0.0388	-0.081
Mof_N 	N 	0.833	0.4134	0.0008	-0.124
Mof_N 	N 	0.72846	0.36959	0.93803	-0.208
Mof_N 	N 	0.66516	0.3827	0.94978	-0.201
Mof_N 	N 	0.66	0.58805	0.49309	-0.209
Mof_N 	N 	0.60208	0.51833	0.41055	-0.193
Mof_N 	N 	0.6139	0.6527	0.5518	-0.081
Mof_N 	N 	0.667	0.6678	0.5804	-0.124
Mof_N 	N 	0.77154	0.70957	0.64113	-0.208
Mof_N 	N 	0.83484	0.78462	0.71754	-0.201
Mof_N 	N 	0.90504	0.91195	0.57195	-0.209
Mof_N 	N 	0.89222	0.98167	0.58375	-0.193
Mof_N 	N 	0.8991	0.8473	0.4612	-0.081
Mof_N 	N 	0.9126	0.8322	0.4992	-0.124
Mof_N 	N 	0.93156	0.79043	0.56197	-0.208
Mof_N 	N 	0.93292	0.71538	0.55022	-0.201
Mof_N 	N 	0.91195	0.07195	0.40504	-0.209
Mof_N 	N 	0.98167	0.08375	0.39222	-0.193
Mof_N 	N 	0.8473	0.9612	0.3991	-0.081
Mof_N 	N 	0.8322	0.9992	0.4126	-0.124
Mof_N 	N 	0.79043	0.06197	0.43156	-0.208
Mof_N 	N 	0.71538	0.05022	0.43292	-0.201
Mof_N 	N 	0.58805	0.99309	0.16	-0.209
Mof_N 	N 	0.51833	0.91055	0.10208	-0.193
Mof_N 	N 	0.6527	0.0518	0.1139	-0.081
Mof_N 	N 	0.6678	0.0804	0.167	-0.124
Mof_N 	N 	0.70957	0.14113	0.27154	-0.208
Mof_N 	N 	0.78462	0.21754	0.33484	-0.201
Mof_N 	N 	0.33309	0.42805	0.34	-0.209
Mof_N 	N 	0.30847	0.41625	0.39792	-0.193
Mof_N 	N 	0.4379	0.5388	0.3861	-0.081
Mof_N 	N 	0.4134	0.5008	0.333	-0.124
Mof_N 	N 	0.36959	0.43803	0.22846	-0.208
Mof_N 	N 	0.3827	0.44978	0.16516	-0.201
Mof_N 	N 	0.16691	0.50691	0.09496	-0.209
Mof_N 	N 	0.19153	0.58945	0.10778	-0.193
Mof_N 	N 	0.0621	0.4482	0.1009	-0.081
Mof_N 	N 	0.0866	0.4196	0.0874	-0.124
Mof_N 	N 	0.13041	0.35887	0.06844	-0.208
Mof_N 	N 	0.1173	0.28246	0.06708	-0.201
_end
