data_functionalizedCrystal
_audit_creation_method	'EQeq! by Chris Wilmer'
_symmetry_space_group_name_H-M	'P1'
_symmetry_Int_Tables_number	1
_symmetry_cell_setting	triclinic
loop_
_symmetry_equiv_pos_as_xyz
  x,y,z
_cell_length_a	27.1337
_cell_length_b	29.2422
_cell_length_c	13.0757
_cell_angle_alpha	90
_cell_angle_beta	90
_cell_angle_gamma	90
loop_
_atom_site_label
_atom_site_type_symbol
_atom_site_fract_x
_atom_site_fract_y
_atom_site_fract_z
_atom_site_charge
Mof_O 	O 	0.6953	0.4896	0.1814	-0.895
Mof_O 	O 	0.7659	0.4478	0.5248	-0.694
Mof_O 	O 	0.6486	0.4363	0.1088	-0.511
Mof_O 	O 	0.7138	0.4143	0.6301	-0.825
Mof_C 	C 	0.5894	0.3321	0.3967	-0.113
Mof_C 	C 	0.6588	0.3801	0.4665	0.077
Mof_H 	H 	0.6558	0.3635	0.5286	-0.001
Mof_C 	C 	0.6313	0.3939	0.2988	0.079
Mof_H 	H 	0.6089	0.3877	0.2446	-0.012
Mof_C 	C 	0.6678	0.4285	0.2868	-0.322
Mof_C 	C 	0.6283	0.3698	0.3873	-0.065
Mof_C 	C 	0.6046	0.2874	0.3989	0.063
Mof_C 	C 	0.6971	0.4362	0.3658	0.277
Mof_H 	H 	0.722	0.4586	0.3563	-0.164
Mof_C 	C 	0.6566	0.2728	0.3942	-0.079
Mof_H 	H 	0.6847	0.2922	0.3917	0.048
Mof_C 	C 	0.54	0.3472	0.398	0.061
Mof_C 	C 	0.6957	0.4157	0.4586	-0.312
Mof_C 	C 	0.5248	0.3929	0.4045	-0.086
Mof_H 	H 	0.5456	0.419	0.4082	0.033
Mof_C 	C 	0.6695	0.4547	0.1881	0.526
Mof_C 	C 	0.7273	0.4271	0.5424	0.555
Mof_O 	O 	0.1953	0.9896	0.6814	-0.841
Mof_O 	O 	0.2659	0.9478	0.0248	-0.656
Mof_O 	O 	0.1486	0.9363	0.6088	-0.482
Mof_O 	O 	0.2138	0.9143	0.1301	-0.835
Mof_C 	C 	0.0894	0.8321	0.8967	-0.096
Mof_C 	C 	0.1588	0.8801	0.9665	0.187
Mof_H 	H 	0.1558	0.8635	0.0286	-0.094
Mof_C 	C 	0.1313	0.8939	0.7988	0.088
Mof_H 	H 	0.1089	0.8877	0.7446	-0.009
Mof_C 	C 	0.1678	0.9285	0.7868	-0.296
Mof_C 	C 	0.1283	0.8698	0.8873	-0.098
Mof_C 	C 	0.1046	0.7874	0.8989	0.065
Mof_C 	C 	0.1971	0.9362	0.8658	0.242
Mof_H 	H 	0.222	0.9586	0.8563	-0.127
Mof_C 	C 	0.1566	0.7728	0.8942	-0.072
Mof_H 	H 	0.1847	0.7922	0.8917	0.054
Mof_C 	C 	0.04	0.8472	0.898	0.071
Mof_C 	C 	0.1957	0.9157	0.9586	-0.245
Mof_C 	C 	0.0248	0.8929	0.9045	-0.117
Mof_H 	H 	0.0456	0.919	0.9082	0.059
Mof_C 	C 	0.1695	0.9547	0.6881	0.513
Mof_C 	C 	0.2273	0.9271	0.0424	0.468
Mof_O 	O 	0.3047	0.0104	0.1814	-0.932
Mof_O 	O 	0.2341	0.0522	0.5248	-0.679
Mof_O 	O 	0.3514	0.0637	0.1088	-0.508
Mof_O 	O 	0.2862	0.0857	0.6301	-0.803
Mof_C 	C 	0.4106	0.1679	0.3967	-0.112
Mof_C 	C 	0.3412	0.1199	0.4665	0.078
Mof_H 	H 	0.3442	0.1365	0.5286	-0.003
Mof_C 	C 	0.3687	0.1061	0.2988	0.085
Mof_H 	H 	0.3911	0.1123	0.2446	-0.016
Mof_C 	C 	0.3322	0.0715	0.2868	-0.338
Mof_C 	C 	0.3717	0.1302	0.3873	-0.069
Mof_C 	C 	0.3954	0.2126	0.3989	0.063
Mof_C 	C 	0.3029	0.0638	0.3658	0.285
Mof_H 	H 	0.278	0.0414	0.3563	-0.178
Mof_C 	C 	0.3434	0.2272	0.3942	-0.078
Mof_H 	H 	0.3153	0.2078	0.3917	0.048
Mof_C 	C 	0.46	0.1528	0.398	0.059
Mof_C 	C 	0.3043	0.0843	0.4586	-0.318
Mof_C 	C 	0.4752	0.1071	0.4045	-0.087
Mof_H 	H 	0.4544	0.081	0.4082	0.027
Mof_C 	C 	0.3305	0.0453	0.1881	0.54
Mof_C 	C 	0.2727	0.0729	0.5424	0.543
Mof_O 	O 	0.8047	0.5104	0.6814	-0.909
Mof_O 	O 	0.7341	0.5522	0.0248	-0.685
Mof_O 	O 	0.8514	0.5637	0.6088	-0.509
Mof_O 	O 	0.7862	0.5857	0.1301	-0.82
Mof_C 	C 	0.9106	0.6679	0.8967	-0.087
Mof_C 	C 	0.8412	0.6199	0.9665	0.197
Mof_H 	H 	0.8442	0.6365	0.0286	-0.096
Mof_C 	C 	0.8687	0.6061	0.7988	0.101
Mof_H 	H 	0.8911	0.6123	0.7446	-0.013
Mof_C 	C 	0.8322	0.5715	0.7868	-0.32
Mof_C 	C 	0.8717	0.6302	0.8873	-0.109
Mof_C 	C 	0.8954	0.7126	0.8989	0.065
Mof_C 	C 	0.8029	0.5638	0.8658	0.263
Mof_H 	H 	0.778	0.5414	0.8563	-0.149
Mof_C 	C 	0.8434	0.7272	0.8942	-0.07
Mof_H 	H 	0.8153	0.7078	0.8917	0.054
Mof_C 	C 	0.96	0.6528	0.898	0.065
Mof_C 	C 	0.8043	0.5843	0.9586	-0.267
Mof_C 	C 	0.9752	0.6071	0.9045	-0.043
Mof_H 	H 	0.9544	0.581	0.9082	0.033
Mof_C 	C 	0.8305	0.5453	0.6881	0.532
Mof_C 	C 	0.7727	0.5729	0.0424	0.48
Mof_O 	O 	0.3047	0.9896	0.8186	-0.813
Mof_O 	O 	0.2341	0.9478	0.4752	-0.663
Mof_O 	O 	0.3514	0.9363	0.8912	-0.431
Mof_O 	O 	0.2862	0.9143	0.3699	-0.842
Mof_C 	C 	0.4106	0.8321	0.6033	-0.116
Mof_C 	C 	0.3412	0.8801	0.5335	0.066
Mof_H 	H 	0.3442	0.8635	0.4714	-0.004
Mof_C 	C 	0.3687	0.8939	0.7012	0.065
Mof_H 	H 	0.3911	0.8877	0.7554	0.008
Mof_C 	C 	0.3322	0.9285	0.7132	-0.288
Mof_C 	C 	0.3717	0.8698	0.6127	-0.052
Mof_C 	C 	0.3954	0.7874	0.6011	0.066
Mof_C 	C 	0.3029	0.9362	0.6342	0.256
Mof_H 	H 	0.278	0.9586	0.6437	-0.143
Mof_C 	C 	0.3434	0.7728	0.6058	-0.079
Mof_H 	H 	0.3153	0.7922	0.6083	0.048
Mof_C 	C 	0.46	0.8472	0.602	0.065
Mof_C 	C 	0.3043	0.9157	0.5414	-0.292
Mof_C 	C 	0.4752	0.8929	0.5955	-0.084
Mof_H 	H 	0.4544	0.919	0.5918	0.043
Mof_C 	C 	0.3305	0.9547	0.8119	0.508
Mof_C 	C 	0.2727	0.9271	0.4576	0.543
Mof_O 	O 	0.8047	0.4896	0.3186	-0.903
Mof_O 	O 	0.7341	0.4478	0.9752	-0.643
Mof_O 	O 	0.8514	0.4363	0.3912	-0.504
Mof_O 	O 	0.7862	0.4143	0.8699	-0.824
Mof_C 	C 	0.9106	0.3321	0.1033	-0.139
Mof_C 	C 	0.8412	0.3801	0.0335	-0.051
Mof_H 	H 	0.8442	0.3635	0.9714	0.088
Mof_C 	C 	0.8687	0.3939	0.2012	0.05
Mof_H 	H 	0.8911	0.3877	0.2554	0.005
Mof_C 	C 	0.8322	0.4285	0.2132	-0.309
Mof_C 	C 	0.8717	0.3698	0.1127	-0.014
Mof_C 	C 	0.8954	0.2874	0.1011	0.068
Mof_C 	C 	0.8029	0.4362	0.1342	0.277
Mof_H 	H 	0.778	0.4586	0.1437	-0.171
Mof_C 	C 	0.8434	0.2728	0.1058	-0.086
Mof_H 	H 	0.8153	0.2922	0.1083	0.042
Mof_C 	C 	0.96	0.3472	0.102	0.07
Mof_C 	C 	0.8043	0.4157	0.0414	-0.341
Mof_C 	C 	0.9752	0.3929	0.0955	-0.058
Mof_H 	H 	0.9544	0.419	0.0918	0.016
Mof_C 	C 	0.8305	0.4547	0.3119	0.521
Mof_C 	C 	0.7727	0.4271	0.9576	0.601
Mof_O 	O 	0.6953	0.5104	0.8186	-0.88
Mof_O 	O 	0.7659	0.5522	0.4752	-0.695
Mof_O 	O 	0.6486	0.5637	0.8912	-0.462
Mof_O 	O 	0.7138	0.5857	0.3699	-0.828
Mof_C 	C 	0.5894	0.6679	0.6033	-0.113
Mof_C 	C 	0.6588	0.6199	0.5335	0.077
Mof_H 	H 	0.6558	0.6365	0.4714	-0.009
Mof_C 	C 	0.6313	0.6061	0.7012	0.078
Mof_H 	H 	0.6089	0.6123	0.7554	0.001
Mof_C 	C 	0.6678	0.5715	0.7132	-0.315
Mof_C 	C 	0.6283	0.6302	0.6127	-0.063
Mof_C 	C 	0.6046	0.7126	0.6011	0.064
Mof_C 	C 	0.6971	0.5638	0.6342	0.277
Mof_H 	H 	0.722	0.5414	0.6437	-0.166
Mof_C 	C 	0.6566	0.7272	0.6058	-0.077
Mof_H 	H 	0.6847	0.7078	0.6083	0.048
Mof_C 	C 	0.54	0.6528	0.602	0.062
Mof_C 	C 	0.6957	0.5843	0.5414	-0.315
Mof_C 	C 	0.5248	0.6071	0.5955	-0.086
Mof_H 	H 	0.5456	0.581	0.5918	0.034
Mof_C 	C 	0.6695	0.5453	0.8119	0.527
Mof_C 	C 	0.7273	0.5729	0.4576	0.556
Mof_O 	O 	0.1953	0.0104	0.3186	-0.941
Mof_O 	O 	0.2659	0.0522	0.9752	-0.631
Mof_O 	O 	0.1486	0.0637	0.3912	-0.505
Mof_O 	O 	0.2138	0.0857	0.8699	-0.804
Mof_C 	C 	0.0894	0.1679	0.1033	-0.144
Mof_C 	C 	0.1588	0.1199	0.0335	-0.048
Mof_H 	H 	0.1558	0.1365	0.9714	0.084
Mof_C 	C 	0.1313	0.1061	0.2012	0.056
Mof_H 	H 	0.1089	0.1123	0.2554	-0.003
Mof_C 	C 	0.1678	0.0715	0.2132	-0.328
Mof_C 	C 	0.1283	0.1302	0.1127	-0.019
Mof_C 	C 	0.1046	0.2126	0.1011	0.065
Mof_C 	C 	0.1971	0.0638	0.1342	0.285
Mof_H 	H 	0.222	0.0414	0.1437	-0.186
Mof_C 	C 	0.1566	0.2272	0.1058	-0.087
Mof_H 	H 	0.1847	0.2078	0.1083	0.042
Mof_C 	C 	0.04	0.1528	0.102	0.071
Mof_C 	C 	0.1957	0.0843	0.0414	-0.347
Mof_C 	C 	0.0248	0.1071	0.0955	-0.135
Mof_H 	H 	0.0456	0.081	0.0918	0.028
Mof_C 	C 	0.1695	0.0453	0.3119	0.535
Mof_C 	C 	0.2273	0.0729	0.9576	0.589
Mof_O 	O 	0.3047	0.5104	0.8186	-0.88
Mof_O 	O 	0.2341	0.5522	0.4752	-0.694
Mof_O 	O 	0.3514	0.5637	0.8912	-0.462
Mof_O 	O 	0.2862	0.5857	0.3699	-0.828
Mof_C 	C 	0.4106	0.6679	0.6033	-0.113
Mof_C 	C 	0.3412	0.6199	0.5335	0.076
Mof_H 	H 	0.3442	0.6365	0.4714	-0.009
Mof_C 	C 	0.3687	0.6061	0.7012	0.077
Mof_H 	H 	0.3911	0.6123	0.7554	0.001
Mof_C 	C 	0.3322	0.5715	0.7132	-0.314
Mof_C 	C 	0.3717	0.6302	0.6127	-0.063
Mof_C 	C 	0.3954	0.7126	0.6011	0.064
Mof_C 	C 	0.3029	0.5638	0.6342	0.277
Mof_H 	H 	0.278	0.5414	0.6437	-0.165
Mof_C 	C 	0.3434	0.7272	0.6058	-0.078
Mof_H 	H 	0.3153	0.7078	0.6083	0.047
Mof_C 	C 	0.46	0.6528	0.602	0.062
Mof_C 	C 	0.3043	0.5843	0.5414	-0.314
Mof_C 	C 	0.4752	0.6071	0.5955	-0.086
Mof_H 	H 	0.4544	0.581	0.5918	0.034
Mof_C 	C 	0.3305	0.5453	0.8119	0.526
Mof_C 	C 	0.2727	0.5729	0.4576	0.555
Mof_O 	O 	0.8047	0.0104	0.3186	-0.941
Mof_O 	O 	0.7341	0.0522	0.9752	-0.631
Mof_O 	O 	0.8514	0.0637	0.3912	-0.501
Mof_O 	O 	0.7862	0.0857	0.8699	-0.802
Mof_C 	C 	0.9106	0.1679	0.1033	-0.137
Mof_C 	C 	0.8412	0.1199	0.0335	-0.047
Mof_H 	H 	0.8442	0.1365	0.9714	0.086
Mof_C 	C 	0.8687	0.1061	0.2012	0.057
Mof_H 	H 	0.8911	0.1123	0.2554	0.001
Mof_C 	C 	0.8322	0.0715	0.2132	-0.326
Mof_C 	C 	0.8717	0.1302	0.1127	-0.019
Mof_C 	C 	0.8954	0.2126	0.1011	0.067
Mof_C 	C 	0.8029	0.0638	0.1342	0.285
Mof_H 	H 	0.778	0.0414	0.1437	-0.186
Mof_C 	C 	0.8434	0.2272	0.1058	-0.086
Mof_H 	H 	0.8153	0.2078	0.1083	0.043
Mof_C 	C 	0.96	0.1528	0.102	0.068
Mof_C 	C 	0.8043	0.0843	0.0414	-0.346
Mof_C 	C 	0.9752	0.1071	0.0955	-0.059
Mof_H 	H 	0.9544	0.081	0.0918	0.01
Mof_C 	C 	0.8305	0.0453	0.3119	0.536
Mof_C 	C 	0.7727	0.0729	0.9576	0.589
Mof_O 	O 	0.6953	0.9896	0.8186	-0.814
Mof_O 	O 	0.7659	0.9478	0.4752	-0.664
Mof_O 	O 	0.6486	0.9363	0.8912	-0.432
Mof_O 	O 	0.7138	0.9143	0.3699	-0.842
Mof_C 	C 	0.5894	0.8321	0.6033	-0.116
Mof_C 	C 	0.6588	0.8801	0.5335	0.067
Mof_H 	H 	0.6558	0.8635	0.4714	-0.004
Mof_C 	C 	0.6313	0.8939	0.7012	0.066
Mof_H 	H 	0.6089	0.8877	0.7554	0.008
Mof_C 	C 	0.6678	0.9285	0.7132	-0.289
Mof_C 	C 	0.6283	0.8698	0.6127	-0.052
Mof_C 	C 	0.6046	0.7874	0.6011	0.066
Mof_C 	C 	0.6971	0.9362	0.6342	0.256
Mof_H 	H 	0.722	0.9586	0.6437	-0.144
Mof_C 	C 	0.6566	0.7728	0.6058	-0.079
Mof_H 	H 	0.6847	0.7922	0.6083	0.048
Mof_C 	C 	0.54	0.8472	0.602	0.065
Mof_C 	C 	0.6957	0.9157	0.5414	-0.292
Mof_C 	C 	0.5248	0.8929	0.5955	-0.084
Mof_H 	H 	0.5456	0.919	0.5918	0.043
Mof_C 	C 	0.6695	0.9547	0.8119	0.508
Mof_C 	C 	0.7273	0.9271	0.4576	0.544
Mof_O 	O 	0.1953	0.4896	0.3186	-0.903
Mof_O 	O 	0.2659	0.4478	0.9752	-0.643
Mof_O 	O 	0.1486	0.4363	0.3912	-0.508
Mof_O 	O 	0.2138	0.4143	0.8699	-0.825
Mof_C 	C 	0.0894	0.3321	0.1033	-0.146
Mof_C 	C 	0.1588	0.3801	0.0335	-0.052
Mof_H 	H 	0.1558	0.3635	0.9714	0.087
Mof_C 	C 	0.1313	0.3939	0.2012	0.049
Mof_H 	H 	0.1089	0.3877	0.2554	0.001
Mof_C 	C 	0.1678	0.4285	0.2132	-0.311
Mof_C 	C 	0.1283	0.3698	0.1127	-0.013
Mof_C 	C 	0.1046	0.2874	0.1011	0.066
Mof_C 	C 	0.1971	0.4362	0.1342	0.277
Mof_H 	H 	0.222	0.4586	0.1437	-0.172
Mof_C 	C 	0.1566	0.2728	0.1058	-0.087
Mof_H 	H 	0.1847	0.2922	0.1083	0.042
Mof_C 	C 	0.04	0.3472	0.102	0.073
Mof_C 	C 	0.1957	0.4157	0.0414	-0.342
Mof_C 	C 	0.0248	0.3929	0.0955	-0.135
Mof_H 	H 	0.0456	0.419	0.0918	0.034
Mof_C 	C 	0.1695	0.4547	0.3119	0.52
Mof_C 	C 	0.2273	0.4271	0.9576	0.601
Mof_O 	O 	0.6953	0.0104	0.1814	-0.933
Mof_O 	O 	0.7659	0.0522	0.5248	-0.68
Mof_O 	O 	0.6486	0.0637	0.1088	-0.508
Mof_O 	O 	0.7138	0.0857	0.6301	-0.804
Mof_C 	C 	0.5894	0.1679	0.3967	-0.111
Mof_C 	C 	0.6588	0.1199	0.4665	0.078
Mof_H 	H 	0.6558	0.1365	0.5286	-0.002
Mof_C 	C 	0.6313	0.1061	0.2988	0.085
Mof_H 	H 	0.6089	0.1123	0.2446	-0.016
Mof_C 	C 	0.6678	0.0715	0.2868	-0.339
Mof_C 	C 	0.6283	0.1302	0.3873	-0.07
Mof_C 	C 	0.6046	0.2126	0.3989	0.063
Mof_C 	C 	0.6971	0.0638	0.3658	0.286
Mof_H 	H 	0.722	0.0414	0.3563	-0.179
Mof_C 	C 	0.6566	0.2272	0.3942	-0.078
Mof_H 	H 	0.6847	0.2078	0.3917	0.048
Mof_C 	C 	0.54	0.1528	0.398	0.059
Mof_C 	C 	0.6957	0.0843	0.4586	-0.318
Mof_C 	C 	0.5248	0.1071	0.4045	-0.087
Mof_H 	H 	0.5456	0.081	0.4082	0.027
Mof_C 	C 	0.6695	0.0453	0.1881	0.541
Mof_C 	C 	0.7273	0.0729	0.5424	0.544
Mof_O 	O 	0.1953	0.5104	0.6814	-0.908
Mof_O 	O 	0.2659	0.5522	0.0248	-0.685
Mof_O 	O 	0.1486	0.5637	0.6088	-0.513
Mof_O 	O 	0.2138	0.5857	0.1301	-0.821
Mof_C 	C 	0.0894	0.6679	0.8967	-0.093
Mof_C 	C 	0.1588	0.6199	0.9665	0.196
Mof_H 	H 	0.1558	0.6365	0.0286	-0.098
Mof_C 	C 	0.1313	0.6061	0.7988	0.1
Mof_H 	H 	0.1089	0.6123	0.7446	-0.017
Mof_C 	C 	0.1678	0.5715	0.7868	-0.321
Mof_C 	C 	0.1283	0.6302	0.8873	-0.109
Mof_C 	C 	0.1046	0.7126	0.8989	0.063
Mof_C 	C 	0.1971	0.5638	0.8658	0.263
Mof_H 	H 	0.222	0.5414	0.8563	-0.149
Mof_C 	C 	0.1566	0.7272	0.8942	-0.071
Mof_H 	H 	0.1847	0.7078	0.8917	0.054
Mof_C 	C 	0.04	0.6528	0.898	0.068
Mof_C 	C 	0.1957	0.5843	0.9586	-0.268
Mof_C 	C 	0.0248	0.6071	0.9045	-0.12
Mof_H 	H 	0.0456	0.581	0.9082	0.05
Mof_C 	C 	0.1695	0.5453	0.6881	0.532
Mof_C 	C 	0.2273	0.5729	0.0424	0.48
Mof_O 	O 	0.3047	0.4896	0.1814	-0.893
Mof_O 	O 	0.2341	0.4478	0.5248	-0.693
Mof_O 	O 	0.3514	0.4363	0.1088	-0.511
Mof_O 	O 	0.2862	0.4143	0.6301	-0.825
Mof_C 	C 	0.4106	0.3321	0.3967	-0.113
Mof_C 	C 	0.3412	0.3801	0.4665	0.076
Mof_H 	H 	0.3442	0.3635	0.5286	-0.001
Mof_C 	C 	0.3687	0.3939	0.2988	0.078
Mof_H 	H 	0.3911	0.3877	0.2446	-0.012
Mof_C 	C 	0.3322	0.4285	0.2868	-0.321
Mof_C 	C 	0.3717	0.3698	0.3873	-0.065
Mof_C 	C 	0.3954	0.2874	0.3989	0.063
Mof_C 	C 	0.3029	0.4362	0.3658	0.276
Mof_H 	H 	0.278	0.4586	0.3563	-0.163
Mof_C 	C 	0.3434	0.2728	0.3942	-0.079
Mof_H 	H 	0.3153	0.2922	0.3917	0.048
Mof_C 	C 	0.46	0.3472	0.398	0.061
Mof_C 	C 	0.3043	0.4157	0.4586	-0.311
Mof_C 	C 	0.4752	0.3929	0.4045	-0.086
Mof_H 	H 	0.4544	0.419	0.4082	0.033
Mof_C 	C 	0.3305	0.4547	0.1881	0.526
Mof_C 	C 	0.2727	0.4271	0.5424	0.554
Mof_O 	O 	0.8047	0.9896	0.6814	-0.842
Mof_O 	O 	0.7341	0.9478	0.0248	-0.656
Mof_O 	O 	0.8514	0.9363	0.6088	-0.479
Mof_O 	O 	0.7862	0.9143	0.1301	-0.834
Mof_C 	C 	0.9106	0.8321	0.8967	-0.089
Mof_C 	C 	0.8412	0.8801	0.9665	0.188
Mof_H 	H 	0.8442	0.8635	0.0286	-0.092
Mof_C 	C 	0.8687	0.8939	0.7988	0.089
Mof_H 	H 	0.8911	0.8877	0.7446	-0.006
Mof_C 	C 	0.8322	0.9285	0.7868	-0.294
Mof_C 	C 	0.8717	0.8698	0.8873	-0.098
Mof_C 	C 	0.8954	0.7874	0.8989	0.066
Mof_C 	C 	0.8029	0.9362	0.8658	0.242
Mof_H 	H 	0.778	0.9586	0.8563	-0.127
Mof_C 	C 	0.8434	0.7728	0.8942	-0.071
Mof_H 	H 	0.8153	0.7922	0.8917	0.054
Mof_C 	C 	0.96	0.8472	0.898	0.068
Mof_C 	C 	0.8043	0.9157	0.9586	-0.244
Mof_C 	C 	0.9752	0.8929	0.9045	-0.041
Mof_H 	H 	0.9544	0.919	0.9082	0.041
Mof_C 	C 	0.8305	0.9547	0.6881	0.514
Mof_C 	C 	0.7727	0.9271	0.0424	0.468
Mof_Dy	Dy	0.82547	0.5	0.5	1.612
Mof_Dy	Dy	0.32547	0	-0	1.322
Mof_Dy	Dy	0.17453	0	0.5	1.475
Mof_Dy	Dy	0.67453	0.5	-0	1.44
Mof_Dy	Dy	0.17453	0.5	0.5	1.6
Mof_Dy	Dy	0.67453	0	-0	1.322
Mof_Dy	Dy	0.82547	0	0.5	1.487
Mof_Dy	Dy	0.32547	0.5	-0	1.44
Mof_Zn	Zn	0.5	0.25	0.3686	0.769
Mof_Zn	Zn	0.5	0.25	0.4225	0.776
Mof_Zn	Zn	-8.16313e-33	0.75	0.8686	0.767
Mof_Zn	Zn	-3.19947e-33	0.75	0.9225	0.776
Mof_Zn	Zn	0.5	0.75	0.6314	0.773
Mof_Zn	Zn	0.5	0.75	0.5775	0.773
Mof_Zn	Zn	1.45399e-33	0.25	0.1314	0.769
Mof_Zn	Zn	1.40029e-34	0.25	0.0775	0.767
Mof_Na	Na	0.75	0.45799	0.75	3.09
Mof_Na	Na	0.25	0.04201	0.75	2.914
Mof_Na	Na	0.25	0.95799	0.25	3.21
Mof_Na	Na	0.75	0.54201	0.25	3.025
Mof_Na	Na	0.25	0.54201	0.25	3.02
Mof_Na	Na	0.75	0.95799	0.25	3.214
Mof_Na	Na	0.75	0.04201	0.75	2.918
Mof_Na	Na	0.25	0.45799	0.75	3.086
Mof_N 	N 	0.5	0.3197	0.3988	-0.346
Mof_N 	N 	1.13565e-32	0.8197	0.8988	-0.354
Mof_N 	N 	0.5	0.1803	0.3988	-0.346
Mof_N 	N 	1.62398e-33	0.6803	0.8988	-0.354
Mof_N 	N 	0.5	0.8197	0.6012	-0.345
Mof_N 	N 	-4.68342e-33	0.3197	0.1012	-0.363
Mof_N 	N 	0.5	0.6803	0.6012	-0.345
Mof_N 	N 	1.82851e-34	0.1803	0.1012	-0.362
Mof_N 	N 	0.5763	0.25	0.4018	-0.338
Mof_N 	N 	0.0763	0.75	0.9018	-0.336
Mof_N 	N 	0.4237	0.25	0.4018	-0.338
Mof_N 	N 	0.9237	0.75	0.9018	-0.329
Mof_N 	N 	0.4237	0.75	0.5982	-0.338
Mof_N 	N 	0.9237	0.25	0.0982	-0.339
Mof_N 	N 	0.5763	0.75	0.5982	-0.338
Mof_N 	N 	0.0763	0.25	0.0982	-0.345
_end
