data_functionalizedCrystal
_audit_creation_method	'EQeq! by Chris Wilmer'
_symmetry_space_group_name_H-M	'P1'
_symmetry_Int_Tables_number	1
_symmetry_cell_setting	triclinic
loop_
_symmetry_equiv_pos_as_xyz
  x,y,z
_cell_length_a	27.063
_cell_length_b	27.063
_cell_length_c	16.107
_cell_angle_alpha	90
_cell_angle_beta	90
_cell_angle_gamma	120
loop_
_atom_site_label
_atom_site_type_symbol
_atom_site_fract_x
_atom_site_fract_y
_atom_site_fract_z
_atom_site_charge
Mof_O 	O 	0.19512	0.2839	0.25573	-0.485
Mof_O 	O 	0.24271	0.37919	0.2422	-0.48
Mof_C 	C 	0.2867	0.32749	0.1964	-0.109
Mof_C 	C 	0.2862	0.27624	0.1954	-0.01
Mof_H 	H 	0.2534	0.2426	0.2144	0.045
Mof_C 	C 	0.23715	0.3307	0.2336	0.398
Mof_C 	C 	0.31263	0.1828	0.0976	0.012
Mof_C 	C 	0.29101	0.1971	0.0247	-0.059
Mof_H 	H 	0.2906	0.232	0.0233	0.056
Mof_C 	C 	0.2715	0.1618	0.9586	-0.03
Mof_H 	H 	0.2576	0.1722	0.9115	0.046
Mof_O 	O 	0.86179	0.61723	0.58906	-0.484
Mof_O 	O 	0.90938	0.71252	0.57553	-0.48
Mof_C 	C 	0.95337	0.66082	0.52973	-0.107
Mof_C 	C 	0.95287	0.60957	0.52873	-0.009
Mof_H 	H 	0.92007	0.57593	0.54773	0.045
Mof_C 	C 	0.90382	0.66403	0.56693	0.398
Mof_C 	C 	0.9793	0.51613	0.43093	0.013
Mof_C 	C 	0.95768	0.53043	0.35803	-0.061
Mof_H 	H 	0.95727	0.56533	0.35663	0.056
Mof_C 	C 	0.93817	0.49513	0.29193	-0.031
Mof_H 	H 	0.92427	0.50553	0.24483	0.045
Mof_O 	O 	0.52845	0.95057	0.9224	-0.485
Mof_O 	O 	0.57604	0.04586	0.90887	-0.483
Mof_C 	C 	0.62003	0.99416	0.86307	-0.108
Mof_C 	C 	0.61953	0.94291	0.86207	-0.011
Mof_H 	H 	0.58673	0.90927	0.88107	0.044
Mof_C 	C 	0.57048	0.99737	0.90027	0.399
Mof_C 	C 	0.64596	0.84947	0.76427	0.011
Mof_C 	C 	0.62434	0.86377	0.69137	-0.061
Mof_H 	H 	0.62393	0.89867	0.68997	0.055
Mof_C 	C 	0.60483	0.82847	0.62527	-0.031
Mof_H 	H 	0.59093	0.83887	0.57817	0.045
Mof_O 	O 	0.7161	0.91122	0.25573	-0.485
Mof_O 	O 	0.62081	0.86352	0.2422	-0.481
Mof_C 	C 	0.67251	0.95921	0.1964	-0.109
Mof_C 	C 	0.72376	0.00996	0.1954	-0.012
Mof_H 	H 	0.7574	0.0108	0.2144	0.044
Mof_C 	C 	0.6693	0.90645	0.2336	0.397
Mof_C 	C 	0.8172	0.12983	0.0976	0.011
Mof_C 	C 	0.8029	0.09391	0.0247	-0.058
Mof_H 	H 	0.768	0.0586	0.0233	0.055
Mof_C 	C 	0.8382	0.1097	0.9586	-0.033
Mof_H 	H 	0.8278	0.0854	0.9115	0.045
Mof_O 	O 	0.38277	0.24455	0.58906	-0.486
Mof_O 	O 	0.28748	0.19685	0.57553	-0.481
Mof_C 	C 	0.33918	0.29254	0.52973	-0.11
Mof_C 	C 	0.39043	0.34329	0.52873	-0.011
Mof_H 	H 	0.42407	0.34413	0.54773	0.044
Mof_C 	C 	0.33597	0.23978	0.56693	0.397
Mof_C 	C 	0.48387	0.46316	0.43093	0.011
Mof_C 	C 	0.46957	0.42724	0.35803	-0.061
Mof_H 	H 	0.43467	0.39193	0.35663	0.055
Mof_C 	C 	0.50487	0.44303	0.29193	-0.031
Mof_H 	H 	0.49447	0.41873	0.24483	0.045
Mof_O 	O 	0.04943	0.57789	0.9224	-0.485
Mof_O 	O 	0.95414	0.53019	0.90887	-0.481
Mof_C 	C 	0.00584	0.62588	0.86307	-0.11
Mof_C 	C 	0.05709	0.67663	0.86207	-0.011
Mof_H 	H 	0.09073	0.67747	0.88107	0.045
Mof_C 	C 	0.00263	0.57312	0.90027	0.396
Mof_C 	C 	0.15053	0.7965	0.76427	0.011
Mof_C 	C 	0.13623	0.76058	0.69137	-0.061
Mof_H 	H 	0.10133	0.72527	0.68997	0.055
Mof_C 	C 	0.17153	0.77637	0.62527	-0.031
Mof_H 	H 	0.16113	0.75207	0.57817	0.045
Mof_O 	O 	0.08878	0.80488	0.25573	-0.486
Mof_O 	O 	0.13648	0.75729	0.2422	-0.481
Mof_C 	C 	0.04079	0.7133	0.1964	-0.112
Mof_C 	C 	0.99004	0.7138	0.1954	-0.009
Mof_H 	H 	0.9892	0.7466	0.2144	0.044
Mof_C 	C 	0.09355	0.76285	0.2336	0.397
Mof_C 	C 	0.87017	0.68737	0.0976	0.011
Mof_C 	C 	0.90609	0.70899	0.0247	-0.06
Mof_H 	H 	0.9414	0.7094	0.0233	0.055
Mof_C 	C 	0.8903	0.7285	0.9586	-0.032
Mof_H 	H 	0.9146	0.7424	0.9115	0.046
Mof_O 	O 	0.75545	0.13821	0.58906	-0.486
Mof_O 	O 	0.80315	0.09062	0.57553	-0.481
Mof_C 	C 	0.70746	0.04663	0.52973	-0.109
Mof_C 	C 	0.65671	0.04713	0.52873	-0.011
Mof_H 	H 	0.65587	0.07993	0.54773	0.044
Mof_C 	C 	0.76022	0.09618	0.56693	0.397
Mof_C 	C 	0.53684	0.0207	0.43093	0.011
Mof_C 	C 	0.57276	0.04232	0.35803	-0.061
Mof_H 	H 	0.60807	0.04273	0.35663	0.055
Mof_C 	C 	0.55697	0.06183	0.29193	-0.031
Mof_H 	H 	0.58127	0.07573	0.24483	0.045
Mof_O 	O 	0.42211	0.47155	0.9224	-0.485
Mof_O 	O 	0.46981	0.42396	0.90887	-0.481
Mof_C 	C 	0.37412	0.37997	0.86307	-0.11
Mof_C 	C 	0.32337	0.38047	0.86207	-0.011
Mof_H 	H 	0.32253	0.41327	0.88107	0.044
Mof_C 	C 	0.42688	0.42952	0.90027	0.397
Mof_C 	C 	0.2035	0.35404	0.76427	0.011
Mof_C 	C 	0.23942	0.37566	0.69137	-0.061
Mof_H 	H 	0.27473	0.37607	0.68997	0.055
Mof_C 	C 	0.22363	0.39517	0.62527	-0.031
Mof_H 	H 	0.24793	0.40907	0.57817	0.045
Mof_O 	O 	0.2839	0.19512	0.74427	-0.486
Mof_O 	O 	0.37919	0.24271	0.7578	-0.481
Mof_C 	C 	0.32749	0.2867	0.8036	-0.11
Mof_C 	C 	0.27624	0.2862	0.8046	-0.011
Mof_H 	H 	0.2426	0.2534	0.7856	0.044
Mof_C 	C 	0.3307	0.23715	0.7664	0.397
Mof_C 	C 	0.1828	0.31263	0.9024	0.011
Mof_C 	C 	0.1971	0.29101	0.9753	-0.06
Mof_H 	H 	0.232	0.2906	0.9767	0.055
Mof_C 	C 	0.1618	0.2715	0.0414	-0.031
Mof_H 	H 	0.1722	0.2576	0.0885	0.045
Mof_O 	O 	0.95057	0.52845	0.0776	-0.485
Mof_O 	O 	0.04586	0.57604	0.09113	-0.483
Mof_C 	C 	0.99416	0.62003	0.13693	-0.108
Mof_C 	C 	0.94291	0.61953	0.13793	-0.011
Mof_H 	H 	0.90927	0.58673	0.11893	0.044
Mof_C 	C 	0.99737	0.57048	0.09973	0.399
Mof_C 	C 	0.84947	0.64596	0.23573	0.011
Mof_C 	C 	0.86377	0.62434	0.30863	-0.061
Mof_H 	H 	0.89867	0.62393	0.31003	0.055
Mof_C 	C 	0.82847	0.60483	0.37473	-0.031
Mof_H 	H 	0.83887	0.59093	0.42183	0.045
Mof_O 	O 	0.61723	0.86179	0.41094	-0.485
Mof_O 	O 	0.71252	0.90938	0.42447	-0.481
Mof_C 	C 	0.66082	0.95337	0.47027	-0.108
Mof_C 	C 	0.60957	0.95287	0.47127	-0.01
Mof_H 	H 	0.57593	0.92007	0.45227	0.044
Mof_C 	C 	0.66403	0.90382	0.43307	0.397
Mof_C 	C 	0.51613	0.9793	0.56907	0.012
Mof_C 	C 	0.53043	0.95768	0.64197	-0.061
Mof_H 	H 	0.56533	0.95727	0.64337	0.056
Mof_C 	C 	0.49513	0.93817	0.70807	-0.031
Mof_H 	H 	0.50553	0.92427	0.75517	0.045
Mof_O 	O 	0.91122	0.7161	0.74427	-0.485
Mof_O 	O 	0.86352	0.62081	0.7578	-0.481
Mof_C 	C 	0.95921	0.67251	0.8036	-0.109
Mof_C 	C 	0.00996	0.72376	0.8046	-0.012
Mof_H 	H 	0.0108	0.7574	0.7856	0.044
Mof_C 	C 	0.90645	0.6693	0.7664	0.397
Mof_C 	C 	0.12983	0.8172	0.9024	0.011
Mof_C 	C 	0.09391	0.8029	0.9753	-0.058
Mof_H 	H 	0.0586	0.768	0.9767	0.055
Mof_C 	C 	0.1097	0.8382	0.0414	-0.033
Mof_H 	H 	0.0854	0.8278	0.0885	0.045
Mof_O 	O 	0.57789	0.04943	0.0776	-0.485
Mof_O 	O 	0.53019	0.95414	0.09113	-0.481
Mof_C 	C 	0.62588	0.00584	0.13693	-0.11
Mof_C 	C 	0.67663	0.05709	0.13793	-0.011
Mof_H 	H 	0.67747	0.09073	0.11893	0.045
Mof_C 	C 	0.57312	0.00263	0.09973	0.396
Mof_C 	C 	0.7965	0.15053	0.23573	0.011
Mof_C 	C 	0.76058	0.13623	0.30863	-0.061
Mof_H 	H 	0.72527	0.10133	0.31003	0.055
Mof_C 	C 	0.77637	0.17153	0.37473	-0.031
Mof_H 	H 	0.75207	0.16113	0.42183	0.045
Mof_O 	O 	0.24455	0.38277	0.41094	-0.486
Mof_O 	O 	0.19685	0.28748	0.42447	-0.481
Mof_C 	C 	0.29254	0.33918	0.47027	-0.11
Mof_C 	C 	0.34329	0.39043	0.47127	-0.011
Mof_H 	H 	0.34413	0.42407	0.45227	0.044
Mof_C 	C 	0.23978	0.33597	0.43307	0.397
Mof_C 	C 	0.46316	0.48387	0.56907	0.011
Mof_C 	C 	0.42724	0.46957	0.64197	-0.061
Mof_H 	H 	0.39193	0.43467	0.64337	0.055
Mof_C 	C 	0.44303	0.50487	0.70807	-0.031
Mof_H 	H 	0.41873	0.49447	0.75517	0.045
Mof_O 	O 	0.80488	0.08878	0.74427	-0.486
Mof_O 	O 	0.75729	0.13648	0.7578	-0.481
Mof_C 	C 	0.7133	0.04079	0.8036	-0.112
Mof_C 	C 	0.7138	0.99004	0.8046	-0.009
Mof_H 	H 	0.7466	0.9892	0.7856	0.044
Mof_C 	C 	0.76285	0.09355	0.7664	0.397
Mof_C 	C 	0.68737	0.87017	0.9024	0.011
Mof_C 	C 	0.70899	0.90609	0.9753	-0.06
Mof_H 	H 	0.7094	0.9414	0.9767	0.055
Mof_C 	C 	0.7285	0.8903	0.0414	-0.032
Mof_H 	H 	0.7424	0.9146	0.0885	0.046
Mof_O 	O 	0.47155	0.42211	0.0776	-0.485
Mof_O 	O 	0.42396	0.46981	0.09113	-0.481
Mof_C 	C 	0.37997	0.37412	0.13693	-0.11
Mof_C 	C 	0.38047	0.32337	0.13793	-0.011
Mof_H 	H 	0.41327	0.32253	0.11893	0.044
Mof_C 	C 	0.42952	0.42688	0.09973	0.397
Mof_C 	C 	0.35404	0.2035	0.23573	0.011
Mof_C 	C 	0.37566	0.23942	0.30863	-0.061
Mof_H 	H 	0.37607	0.27473	0.31003	0.055
Mof_C 	C 	0.39517	0.22363	0.37473	-0.031
Mof_H 	H 	0.40907	0.24793	0.42183	0.045
Mof_O 	O 	0.13821	0.75545	0.41094	-0.486
Mof_O 	O 	0.09062	0.80315	0.42447	-0.481
Mof_C 	C 	0.04663	0.70746	0.47027	-0.109
Mof_C 	C 	0.04713	0.65671	0.47127	-0.011
Mof_H 	H 	0.07993	0.65587	0.45227	0.044
Mof_C 	C 	0.09618	0.76022	0.43307	0.397
Mof_C 	C 	0.0207	0.53684	0.56907	0.011
Mof_C 	C 	0.04232	0.57276	0.64197	-0.061
Mof_H 	H 	0.04273	0.60807	0.64337	0.055
Mof_C 	C 	0.06183	0.55697	0.70807	-0.031
Mof_H 	H 	0.07573	0.58127	0.75517	0.045
Mof_O 	O 	0.80488	0.7161	0.74427	-0.485
Mof_O 	O 	0.75729	0.62081	0.7578	-0.481
Mof_C 	C 	0.7133	0.67251	0.8036	-0.11
Mof_C 	C 	0.7138	0.72376	0.8046	-0.011
Mof_H 	H 	0.7466	0.7574	0.7856	0.044
Mof_C 	C 	0.76285	0.6693	0.7664	0.397
Mof_C 	C 	0.68737	0.8172	0.9024	0.011
Mof_C 	C 	0.70899	0.8029	0.9753	-0.06
Mof_H 	H 	0.7094	0.768	0.9767	0.055
Mof_C 	C 	0.7285	0.8382	0.0414	-0.031
Mof_H 	H 	0.7424	0.8278	0.0885	0.045
Mof_O 	O 	0.47155	0.04943	0.0776	-0.485
Mof_O 	O 	0.42396	0.95414	0.09113	-0.481
Mof_C 	C 	0.37997	0.00584	0.13693	-0.11
Mof_C 	C 	0.38047	0.05709	0.13793	-0.011
Mof_H 	H 	0.41327	0.09073	0.11893	0.044
Mof_C 	C 	0.42952	0.00263	0.09973	0.396
Mof_C 	C 	0.35404	0.15053	0.23573	0.011
Mof_C 	C 	0.37566	0.13623	0.30863	-0.061
Mof_H 	H 	0.37607	0.10133	0.31003	0.055
Mof_C 	C 	0.39517	0.17153	0.37473	-0.031
Mof_H 	H 	0.40907	0.16113	0.42183	0.045
Mof_O 	O 	0.13821	0.38277	0.41094	-0.486
Mof_O 	O 	0.09062	0.28748	0.42447	-0.481
Mof_C 	C 	0.04663	0.33918	0.47027	-0.11
Mof_C 	C 	0.04713	0.39043	0.47127	-0.011
Mof_H 	H 	0.07993	0.42407	0.45227	0.044
Mof_C 	C 	0.09618	0.33597	0.43307	0.397
Mof_C 	C 	0.0207	0.48387	0.56907	0.011
Mof_C 	C 	0.04232	0.46957	0.64197	-0.061
Mof_H 	H 	0.04273	0.43467	0.64337	0.055
Mof_C 	C 	0.06183	0.50487	0.70807	-0.031
Mof_H 	H 	0.07573	0.49447	0.75517	0.045
Mof_O 	O 	0.2839	0.08878	0.74427	-0.486
Mof_O 	O 	0.37919	0.13648	0.7578	-0.481
Mof_C 	C 	0.32749	0.04079	0.8036	-0.112
Mof_C 	C 	0.27624	0.99004	0.8046	-0.009
Mof_H 	H 	0.2426	0.9892	0.7856	0.044
Mof_C 	C 	0.3307	0.09355	0.7664	0.397
Mof_C 	C 	0.1828	0.87017	0.9024	0.011
Mof_C 	C 	0.1971	0.90609	0.9753	-0.058
Mof_H 	H 	0.232	0.9414	0.9767	0.055
Mof_C 	C 	0.1618	0.8903	0.0414	-0.033
Mof_H 	H 	0.1722	0.9146	0.0885	0.046
Mof_O 	O 	0.95057	0.42211	0.0776	-0.485
Mof_O 	O 	0.04586	0.46981	0.09113	-0.483
Mof_C 	C 	0.99416	0.37412	0.13693	-0.108
Mof_C 	C 	0.94291	0.32337	0.13793	-0.011
Mof_H 	H 	0.90927	0.32253	0.11893	0.044
Mof_C 	C 	0.99737	0.42688	0.09973	0.399
Mof_C 	C 	0.84947	0.2035	0.23573	0.011
Mof_C 	C 	0.86377	0.23942	0.30863	-0.061
Mof_H 	H 	0.89867	0.27473	0.31003	0.055
Mof_C 	C 	0.82847	0.22363	0.37473	-0.031
Mof_H 	H 	0.83887	0.24793	0.42183	0.045
Mof_O 	O 	0.61723	0.75545	0.41094	-0.486
Mof_O 	O 	0.71252	0.80315	0.42447	-0.481
Mof_C 	C 	0.66082	0.70746	0.47027	-0.11
Mof_C 	C 	0.60957	0.65671	0.47127	-0.011
Mof_H 	H 	0.57593	0.65587	0.45227	0.044
Mof_C 	C 	0.66403	0.76022	0.43307	0.397
Mof_C 	C 	0.51613	0.53684	0.56907	0.011
Mof_C 	C 	0.53043	0.57276	0.64197	-0.061
Mof_H 	H 	0.56533	0.60807	0.64337	0.055
Mof_C 	C 	0.49513	0.55697	0.70807	-0.031
Mof_H 	H 	0.50553	0.58127	0.75517	0.045
Mof_O 	O 	0.91122	0.19512	0.74427	-0.486
Mof_O 	O 	0.86352	0.24271	0.7578	-0.481
Mof_C 	C 	0.95921	0.2867	0.8036	-0.109
Mof_C 	C 	0.00996	0.2862	0.8046	-0.012
Mof_H 	H 	0.0108	0.2534	0.7856	0.044
Mof_C 	C 	0.90645	0.23715	0.7664	0.397
Mof_C 	C 	0.12983	0.31263	0.9024	0.011
Mof_C 	C 	0.09391	0.29101	0.9753	-0.06
Mof_H 	H 	0.0586	0.2906	0.9767	0.055
Mof_C 	C 	0.1097	0.2715	0.0414	-0.032
Mof_H 	H 	0.0854	0.2576	0.0885	0.045
Mof_O 	O 	0.57789	0.52845	0.0776	-0.485
Mof_O 	O 	0.53019	0.57604	0.09113	-0.481
Mof_C 	C 	0.62588	0.62003	0.13693	-0.11
Mof_C 	C 	0.67663	0.61953	0.13793	-0.011
Mof_H 	H 	0.67747	0.58673	0.11893	0.044
Mof_C 	C 	0.57312	0.57048	0.09973	0.397
Mof_C 	C 	0.7965	0.64596	0.23573	0.011
Mof_C 	C 	0.76058	0.62434	0.30863	-0.061
Mof_H 	H 	0.72527	0.62393	0.31003	0.055
Mof_C 	C 	0.77637	0.60483	0.37473	-0.031
Mof_H 	H 	0.75207	0.59093	0.42183	0.045
Mof_O 	O 	0.24455	0.86179	0.41094	-0.485
Mof_O 	O 	0.19685	0.90938	0.42447	-0.481
Mof_C 	C 	0.29254	0.95337	0.47027	-0.109
Mof_C 	C 	0.34329	0.95287	0.47127	-0.01
Mof_H 	H 	0.34413	0.92007	0.45227	0.044
Mof_C 	C 	0.23978	0.90382	0.43307	0.397
Mof_C 	C 	0.46316	0.9793	0.56907	0.012
Mof_C 	C 	0.42724	0.95768	0.64197	-0.061
Mof_H 	H 	0.39193	0.95727	0.64337	0.056
Mof_C 	C 	0.44303	0.93817	0.70807	-0.031
Mof_H 	H 	0.41873	0.92427	0.75517	0.045
Mof_O 	O 	0.7161	0.80488	0.25573	-0.485
Mof_O 	O 	0.62081	0.75729	0.2422	-0.481
Mof_C 	C 	0.67251	0.7133	0.1964	-0.11
Mof_C 	C 	0.72376	0.7138	0.1954	-0.011
Mof_H 	H 	0.7574	0.7466	0.2144	0.044
Mof_C 	C 	0.6693	0.76285	0.2336	0.397
Mof_C 	C 	0.8172	0.68737	0.0976	0.011
Mof_C 	C 	0.8029	0.70899	0.0247	-0.06
Mof_H 	H 	0.768	0.7094	0.0233	0.055
Mof_C 	C 	0.8382	0.7285	0.9586	-0.031
Mof_H 	H 	0.8278	0.7424	0.9115	0.045
Mof_O 	O 	0.38277	0.13821	0.58906	-0.486
Mof_O 	O 	0.28748	0.09062	0.57553	-0.481
Mof_C 	C 	0.33918	0.04663	0.52973	-0.11
Mof_C 	C 	0.39043	0.04713	0.52873	-0.011
Mof_H 	H 	0.42407	0.07993	0.54773	0.044
Mof_C 	C 	0.33597	0.09618	0.56693	0.397
Mof_C 	C 	0.48387	0.0207	0.43093	0.011
Mof_C 	C 	0.46957	0.04232	0.35803	-0.061
Mof_H 	H 	0.43467	0.04273	0.35663	0.055
Mof_C 	C 	0.50487	0.06183	0.29193	-0.031
Mof_H 	H 	0.49447	0.07573	0.24483	0.045
Mof_O 	O 	0.04943	0.47155	0.9224	-0.485
Mof_O 	O 	0.95414	0.42396	0.90887	-0.481
Mof_C 	C 	0.00584	0.37997	0.86307	-0.11
Mof_C 	C 	0.05709	0.38047	0.86207	-0.011
Mof_H 	H 	0.09073	0.41327	0.88107	0.044
Mof_C 	C 	0.00263	0.42952	0.90027	0.396
Mof_C 	C 	0.15053	0.35404	0.76427	0.011
Mof_C 	C 	0.13623	0.37566	0.69137	-0.061
Mof_H 	H 	0.10133	0.37607	0.68997	0.055
Mof_C 	C 	0.17153	0.39517	0.62527	-0.031
Mof_H 	H 	0.16113	0.40907	0.57817	0.045
Mof_O 	O 	0.08878	0.2839	0.25573	-0.486
Mof_O 	O 	0.13648	0.37919	0.2422	-0.481
Mof_C 	C 	0.04079	0.32749	0.1964	-0.112
Mof_C 	C 	0.99004	0.27624	0.1954	-0.009
Mof_H 	H 	0.9892	0.2426	0.2144	0.044
Mof_C 	C 	0.09355	0.3307	0.2336	0.397
Mof_C 	C 	0.87017	0.1828	0.0976	0.011
Mof_C 	C 	0.90609	0.1971	0.0247	-0.058
Mof_H 	H 	0.9414	0.232	0.0233	0.055
Mof_C 	C 	0.8903	0.1618	0.9586	-0.033
Mof_H 	H 	0.9146	0.1722	0.9115	0.046
Mof_O 	O 	0.75545	0.61723	0.58906	-0.486
Mof_O 	O 	0.80315	0.71252	0.57553	-0.481
Mof_C 	C 	0.70746	0.66082	0.52973	-0.11
Mof_C 	C 	0.65671	0.60957	0.52873	-0.011
Mof_H 	H 	0.65587	0.57593	0.54773	0.044
Mof_C 	C 	0.76022	0.66403	0.56693	0.397
Mof_C 	C 	0.53684	0.51613	0.43093	0.011
Mof_C 	C 	0.57276	0.53043	0.35803	-0.061
Mof_H 	H 	0.60807	0.56533	0.35663	0.055
Mof_C 	C 	0.55697	0.49513	0.29193	-0.031
Mof_H 	H 	0.58127	0.50553	0.24483	0.045
Mof_O 	O 	0.42211	0.95057	0.9224	-0.485
Mof_O 	O 	0.46981	0.04586	0.90887	-0.483
Mof_C 	C 	0.37412	0.99416	0.86307	-0.108
Mof_C 	C 	0.32337	0.94291	0.86207	-0.011
Mof_H 	H 	0.32253	0.90927	0.88107	0.044
Mof_C 	C 	0.42688	0.99737	0.90027	0.399
Mof_C 	C 	0.2035	0.84947	0.76427	0.011
Mof_C 	C 	0.23942	0.86377	0.69137	-0.061
Mof_H 	H 	0.27473	0.89867	0.68997	0.055
Mof_C 	C 	0.22363	0.82847	0.62527	-0.031
Mof_H 	H 	0.24793	0.83887	0.57817	0.045
Mof_O 	O 	0.19512	0.91122	0.25573	-0.486
Mof_O 	O 	0.24271	0.86352	0.2422	-0.481
Mof_C 	C 	0.2867	0.95921	0.1964	-0.109
Mof_C 	C 	0.2862	0.00996	0.1954	-0.012
Mof_H 	H 	0.2534	0.0108	0.2144	0.044
Mof_C 	C 	0.23715	0.90645	0.2336	0.397
Mof_C 	C 	0.31263	0.12983	0.0976	0.011
Mof_C 	C 	0.29101	0.09391	0.0247	-0.06
Mof_H 	H 	0.2906	0.0586	0.0233	0.055
Mof_C 	C 	0.2715	0.1097	0.9586	-0.032
Mof_H 	H 	0.2576	0.0854	0.9115	0.045
Mof_O 	O 	0.86179	0.24455	0.58906	-0.485
Mof_O 	O 	0.90938	0.19685	0.57553	-0.481
Mof_C 	C 	0.95337	0.29254	0.52973	-0.109
Mof_C 	C 	0.95287	0.34329	0.52873	-0.01
Mof_H 	H 	0.92007	0.34413	0.54773	0.044
Mof_C 	C 	0.90382	0.23978	0.56693	0.397
Mof_C 	C 	0.9793	0.46316	0.43093	0.012
Mof_C 	C 	0.95768	0.42724	0.35803	-0.061
Mof_H 	H 	0.95727	0.39193	0.35663	0.056
Mof_C 	C 	0.93817	0.44303	0.29193	-0.031
Mof_H 	H 	0.92427	0.41873	0.24483	0.045
Mof_O 	O 	0.52845	0.57789	0.9224	-0.485
Mof_O 	O 	0.57604	0.53019	0.90887	-0.481
Mof_C 	C 	0.62003	0.62588	0.86307	-0.11
Mof_C 	C 	0.61953	0.67663	0.86207	-0.011
Mof_H 	H 	0.58673	0.67747	0.88107	0.044
Mof_C 	C 	0.57048	0.57312	0.90027	0.397
Mof_C 	C 	0.64596	0.7965	0.76427	0.011
Mof_C 	C 	0.62434	0.76058	0.69137	-0.061
Mof_H 	H 	0.62393	0.72527	0.68997	0.055
Mof_C 	C 	0.60483	0.77637	0.62527	-0.031
Mof_H 	H 	0.59093	0.75207	0.57817	0.045
Mof_Zn	Zn	0.13443	0.26886	0.34117	1.2
Mof_Zn	Zn	0.8011	0.60219	0.6745	1.2
Mof_Zn	Zn	0.46776	0.93553	0.00784	1.2
Mof_Zn	Zn	0.73114	0.86557	0.34117	1.2
Mof_Zn	Zn	0.39781	0.1989	0.6745	1.2
Mof_Zn	Zn	0.06447	0.53224	0.00784	1.2
Mof_Zn	Zn	0.13443	0.86557	0.34117	1.2
Mof_Zn	Zn	0.8011	0.1989	0.6745	1.2
Mof_Zn	Zn	0.46776	0.53224	0.00784	1.2
Mof_Zn	Zn	0.26886	0.13443	0.65883	1.2
Mof_Zn	Zn	0.93553	0.46776	0.99216	1.2
Mof_Zn	Zn	0.60219	0.8011	0.3255	1.2
Mof_Zn	Zn	0.86557	0.73114	0.65883	1.2
Mof_Zn	Zn	0.53224	0.06447	0.99216	1.2
Mof_Zn	Zn	0.1989	0.39781	0.3255	1.2
Mof_Zn	Zn	0.86557	0.13443	0.65883	1.2
Mof_Zn	Zn	0.53224	0.46776	0.99216	1.2
Mof_Zn	Zn	0.1989	0.8011	0.3255	1.2
Mof_C 	C 	0.33333	0.37662	0.16667	0.046
Mof_H 	H 	0.33333	0.41172	0.16667	0.035
Mof_C 	C 	0.33333	0.27331	0.16667	-0.001
Mof_C 	C 	0.33333	0.21847	0.16667	-0.027
Mof_C 	C 	-1.25467e-16	0.70995	0.5	0.044
Mof_H 	H 	-3.64435e-17	0.74505	0.5	0.035
Mof_C 	C 	-8.0955e-17	0.60664	0.5	-0.002
Mof_C 	C 	8.06812e-18	0.5518	0.5	-0.028
Mof_C 	C 	0.62338	0.95672	0.16667	0.046
Mof_H 	H 	0.58828	0.92162	0.16667	0.035
Mof_C 	C 	0.72669	0.06003	0.16667	-0.001
Mof_C 	C 	0.78153	0.11487	0.16667	-0.027
Mof_C 	C 	0.29005	0.29005	0.5	0.046
Mof_H 	H 	0.25495	0.25495	0.5	0.035
Mof_C 	C 	0.39336	0.39336	0.5	-0.001
Mof_C 	C 	0.4482	0.4482	0.5	-0.027
Mof_C 	C 	0.04328	0.66667	0.16667	0.044
Mof_H 	H 	0.07838	0.66667	0.16667	0.035
Mof_C 	C 	0.93997	0.66667	0.16667	-0.002
Mof_C 	C 	0.88513	0.66667	0.16667	-0.026
Mof_C 	C 	0.70995	0	0.5	0.044
Mof_H 	H 	0.74505	0	0.5	0.035
Mof_C 	C 	0.60664	0	0.5	-0.002
Mof_C 	C 	0.5518	0	0.5	-0.028
Mof_C 	C 	0.37662	0.33333	0.83333	0.046
Mof_H 	H 	0.41172	0.33333	0.83333	0.035
Mof_C 	C 	0.27331	0.33333	0.83333	-0.001
Mof_C 	C 	0.21847	0.33333	0.83333	-0.027
Mof_C 	C 	0.95672	0.62338	0.83333	0.046
Mof_H 	H 	0.92162	0.58828	0.83333	0.035
Mof_C 	C 	0.06003	0.72669	0.83333	-0.001
Mof_C 	C 	0.11487	0.78153	0.83333	-0.027
Mof_C 	C 	0.66667	0.04328	0.83333	0.044
Mof_H 	H 	0.66667	0.07838	0.83333	0.035
Mof_C 	C 	0.66667	0.93997	0.83333	-0.002
Mof_C 	C 	0.66667	0.88513	0.83333	-0.026
Mof_C 	C 	0.66667	0.62338	0.83333	0.046
Mof_H 	H 	0.66667	0.58828	0.83333	0.035
Mof_C 	C 	0.66667	0.72669	0.83333	-0.001
Mof_C 	C 	0.66667	0.78153	0.83333	-0.027
Mof_C 	C 	0.33333	0.95672	0.16667	0.046
Mof_H 	H 	0.33333	0.92162	0.16667	0.035
Mof_C 	C 	0.33333	0.06003	0.16667	-0.001
Mof_C 	C 	0.33333	0.11487	0.16667	-0.027
Mof_C 	C 	0.37662	0.04328	0.83333	0.044
Mof_H 	H 	0.41172	0.07838	0.83333	0.036
Mof_C 	C 	0.27331	0.93997	0.83333	-0.002
Mof_C 	C 	0.21847	0.88513	0.83333	-0.026
Mof_C 	C 	0.70995	0.70995	0.5	0.046
Mof_H 	H 	0.74505	0.74505	0.5	0.035
Mof_C 	C 	0.60664	0.60664	0.5	-0.001
Mof_C 	C 	0.5518	0.5518	0.5	-0.027
Mof_C 	C 	0.95672	0.33333	0.83333	0.046
Mof_H 	H 	0.92162	0.33333	0.83333	0.035
Mof_C 	C 	0.06003	0.33333	0.83333	-0.001
Mof_C 	C 	0.11487	0.33333	0.83333	-0.027
Mof_C 	C 	0.62338	0.66667	0.16667	0.046
Mof_H 	H 	0.58828	0.66667	0.16667	0.035
Mof_C 	C 	0.72669	0.66667	0.16667	-0.001
Mof_C 	C 	0.78153	0.66667	0.16667	-0.027
Mof_C 	C 	0.29005	0	0.5	0.044
Mof_H 	H 	0.25495	0	0.5	0.035
Mof_C 	C 	0.39336	0	0.5	-0.002
Mof_C 	C 	0.4482	0	0.5	-0.028
Mof_C 	C 	0.04328	0.37662	0.16667	0.044
Mof_H 	H 	0.07838	0.41172	0.16667	0.036
Mof_C 	C 	0.93997	0.27331	0.16667	-0.002
Mof_C 	C 	0.88513	0.21847	0.16667	-0.026
Mof_C 	C 	8.06812e-18	0.29005	0.5	0.044
Mof_H 	H 	-1.41877e-17	0.25495	0.5	0.035
Mof_C 	C 	8.06812e-18	0.39336	0.5	-0.002
Mof_C 	C 	-3.64435e-17	0.4482	0.5	-0.028
_end
