data_functionalizedCrystal
_audit_creation_method	'EQeq! by Chris Wilmer'
_symmetry_space_group_name_H-M	'P1'
_symmetry_Int_Tables_number	1
_symmetry_cell_setting	triclinic
loop_
_symmetry_equiv_pos_as_xyz
  x,y,z
_cell_length_a	17.399
_cell_length_b	9.479
_cell_length_c	7.055
_cell_angle_alpha	90
_cell_angle_beta	108.026
_cell_angle_gamma	90
loop_
_atom_site_label
_atom_site_type_symbol
_atom_site_fract_x
_atom_site_fract_y
_atom_site_fract_z
_atom_site_charge
Mof_P 	P 	0.73643	0.30095	0.68446	0.581
Mof_P 	P 	0.00106	0.20465	7e-05	0.319
Mof_O 	O 	0.73727	0.1374	0.6854	-0.642
Mof_O 	O 	0.99243	0.3627	0.9809	-0.465
Mof_O 	O 	0.82632	0.3447	0.7751	-0.557
Mof_O 	O 	0.70181	0.3541	0.4721	-0.601
Mof_O 	O 	0.04944	0.1565	0.208	-0.551
Mof_O 	O 	0.6889	0.3515	0.8184	-0.529
Mof_O 	O 	0.0348	0.1466	0.8442	-0.502
Mof_O 	O 	0.91368	0.1445	0.9578	-0.408
Mof_H 	H 	0.882	0.209	0.897	0.252
Mof_P 	P 	0.23643	0.80095	0.68446	0.576
Mof_P 	P 	0.50106	0.70465	7e-05	0.356
Mof_O 	O 	0.23727	0.6374	0.6854	-0.525
Mof_O 	O 	0.49243	0.8627	0.9809	-0.317
Mof_O 	O 	0.32632	0.8447	0.7751	-0.399
Mof_O 	O 	0.20181	0.8541	0.4721	-0.406
Mof_O 	O 	0.54944	0.6565	0.208	-0.461
Mof_O 	O 	0.1889	0.8515	0.8184	-0.334
Mof_O 	O 	0.5348	0.6466	0.8442	-0.402
Mof_O 	O 	0.41368	0.6445	0.9578	-0.3
Mof_H 	H 	0.382	0.709	0.897	0.252
Mof_P 	P 	0.73643	0.69905	0.68446	0.575
Mof_P 	P 	0.00106	0.79535	7e-05	0.303
Mof_O 	O 	0.73727	0.8626	0.6854	-0.352
Mof_O 	O 	0.99243	0.6373	0.9809	-0.453
Mof_O 	O 	0.82632	0.6553	0.7751	-0.514
Mof_O 	O 	0.70181	0.6459	0.4721	-0.544
Mof_O 	O 	0.04944	0.8435	0.208	-0.34
Mof_O 	O 	0.6889	0.6485	0.8184	-0.472
Mof_O 	O 	0.0348	0.8534	0.8442	-0.268
Mof_O 	O 	0.91368	0.8555	0.9578	-0.135
Mof_H 	H 	0.882	0.791	0.897	0.213
Mof_P 	P 	0.23643	0.19905	0.68446	0.561
Mof_P 	P 	0.50106	0.29535	7e-05	0.373
Mof_O 	O 	0.23727	0.3626	0.6854	-0.529
Mof_O 	O 	0.49243	0.1373	0.9809	-0.606
Mof_O 	O 	0.32632	0.1553	0.7751	-0.614
Mof_O 	O 	0.20181	0.1459	0.4721	-0.637
Mof_O 	O 	0.54944	0.3435	0.208	-0.527
Mof_O 	O 	0.1889	0.1485	0.8184	-0.556
Mof_O 	O 	0.5348	0.3534	0.8442	-0.459
Mof_O 	O 	0.41368	0.3555	0.9578	-0.323
Mof_H 	H 	0.382	0.291	0.897	0.237
Mof_V 	V 	0.6503	5.7038e-33	0.5622	1.463
Mof_V 	V 	0.1503	0.5	0.5622	1.591
Mof_V 	V 	0.90806	0.5	0.83112	1.697
Mof_V 	V 	0.63215	0.5	0.31055	1.817
Mof_V 	V 	0.60796	0.5	0.79382	1.834
Mof_O 	O 	0.6644	0.5	0.1187	-0.763
Mof_O 	O 	0.5717	0.5	0.551	-0.7
Mof_V 	V 	0.40806	1.14076e-32	0.83112	1.559
Mof_V 	V 	0.13215	2.8519e-33	0.31055	1.722
Mof_V 	V 	0.10796	5.7038e-33	0.79382	1.738
Mof_O 	O 	0.1644	0	0.1187	-0.937
Mof_O 	O 	0.0717	5.7038e-33	0.551	-0.891
_end
