data_functionalizedCrystal
_audit_creation_method	'EQeq! by Chris Wilmer'
_symmetry_space_group_name_H-M	'P1'
_symmetry_Int_Tables_number	1
_symmetry_cell_setting	triclinic
loop_
_symmetry_equiv_pos_as_xyz
  x,y,z
_cell_length_a	26.968
_cell_length_b	26.968
_cell_length_c	26.968
_cell_angle_alpha	90
_cell_angle_beta	90
_cell_angle_gamma	90
loop_
_atom_site_label
_atom_site_type_symbol
_atom_site_fract_x
_atom_site_fract_y
_atom_site_fract_z
_atom_site_charge
Mof_O 	O 	0.4475	0.05035	0.14882	-0.431
Mof_O 	O 	0.44848	0.04907	0.23106	-0.434
Mof_C 	C 	0.2944	0.1454	0.1975	0.039
Mof_C 	C 	0.4305	0.062	0.1903	0.381
Mof_C 	C 	0.3598	0.1067	0.1492	0.041
Mof_H 	H 	0.373	0.0982	0.1185	0.018
Mof_C 	C 	0.3197	0.1298	0.2412	-0.119
Mof_H 	H 	0.3064	0.1369	0.2722	0.075
Mof_C 	C 	0.3152	0.1338	0.1516	-0.116
Mof_H 	H 	0.2996	0.144	0.1225	0.059
Mof_C 	C 	0.3641	0.1042	0.2376	0.047
Mof_H 	H 	0.3806	0.0949	0.2665	0.027
Mof_C 	C 	0.2166	0.1696	0.2415	-0.11
Mof_H 	H 	0.2209	0.1426	0.2625	0.065
Mof_C 	C 	0.3844	0.0924	0.1923	-0.131
Mof_C 	C 	0.2495	0.1771	0.2023	0.039
Mof_O 	O 	0.5525	0.94965	0.14882	-0.388
Mof_O 	O 	0.55152	0.95093	0.23106	-0.391
Mof_C 	C 	0.7056	0.8546	0.1975	0.038
Mof_C 	C 	0.5695	0.938	0.1903	0.376
Mof_C 	C 	0.6402	0.8933	0.1492	0.037
Mof_H 	H 	0.627	0.9018	0.1185	0.035
Mof_C 	C 	0.6803	0.8702	0.2412	-0.103
Mof_H 	H 	0.6936	0.8631	0.2722	0.076
Mof_C 	C 	0.6848	0.8662	0.1516	-0.101
Mof_H 	H 	0.7004	0.856	0.1225	0.066
Mof_C 	C 	0.6359	0.8958	0.2376	0.041
Mof_H 	H 	0.6194	0.9051	0.2665	0.041
Mof_C 	C 	0.7834	0.8304	0.2415	-0.116
Mof_H 	H 	0.7791	0.8574	0.2625	0.078
Mof_C 	C 	0.6156	0.9076	0.1923	-0.108
Mof_C 	C 	0.7505	0.8229	0.2023	0.052
Mof_O 	O 	0.5525	0.05035	0.85118	-0.419
Mof_O 	O 	0.55152	0.04907	0.76894	-0.433
Mof_C 	C 	0.7056	0.1454	0.8025	0.039
Mof_C 	C 	0.5695	0.062	0.8097	0.377
Mof_C 	C 	0.6402	0.1067	0.8508	0.04
Mof_H 	H 	0.627	0.0982	0.8815	0.033
Mof_C 	C 	0.6803	0.1298	0.7588	-0.116
Mof_H 	H 	0.6936	0.1369	0.7278	0.073
Mof_C 	C 	0.6848	0.1338	0.8484	-0.11
Mof_H 	H 	0.7004	0.144	0.8775	0.074
Mof_C 	C 	0.6359	0.1042	0.7624	0.044
Mof_H 	H 	0.6194	0.0949	0.7335	0.027
Mof_C 	C 	0.7834	0.1696	0.7585	-0.115
Mof_H 	H 	0.7791	0.1426	0.7375	0.07
Mof_C 	C 	0.6156	0.0924	0.8077	-0.124
Mof_C 	C 	0.7505	0.1771	0.7977	0.05
Mof_O 	O 	0.4475	0.94965	0.85118	-0.376
Mof_O 	O 	0.44848	0.95093	0.76894	-0.391
Mof_C 	C 	0.2944	0.8546	0.8025	0.037
Mof_C 	C 	0.4305	0.938	0.8097	0.372
Mof_C 	C 	0.3598	0.8933	0.8508	0.035
Mof_H 	H 	0.373	0.9018	0.8815	0.048
Mof_C 	C 	0.3197	0.8702	0.7588	-0.102
Mof_H 	H 	0.3064	0.8631	0.7278	0.074
Mof_C 	C 	0.3152	0.8662	0.8484	-0.097
Mof_H 	H 	0.2996	0.856	0.8775	0.076
Mof_C 	C 	0.3641	0.8958	0.7624	0.038
Mof_H 	H 	0.3806	0.9051	0.7335	0.042
Mof_C 	C 	0.2166	0.8304	0.7585	-0.115
Mof_H 	H 	0.2209	0.8574	0.7375	0.077
Mof_C 	C 	0.3844	0.9076	0.8077	-0.102
Mof_C 	C 	0.2495	0.8229	0.7977	0.054
Mof_O 	O 	0.14882	0.4475	0.05035	-0.432
Mof_O 	O 	0.23106	0.44848	0.04907	-0.435
Mof_C 	C 	0.1975	0.2944	0.1454	0.038
Mof_C 	C 	0.1903	0.4305	0.062	0.38
Mof_C 	C 	0.1492	0.3598	0.1067	0.04
Mof_H 	H 	0.1185	0.373	0.0982	0.017
Mof_C 	C 	0.2412	0.3197	0.1298	-0.12
Mof_H 	H 	0.2722	0.3064	0.1369	0.074
Mof_C 	C 	0.1516	0.3152	0.1338	-0.117
Mof_H 	H 	0.1225	0.2996	0.144	0.058
Mof_C 	C 	0.2376	0.3641	0.1042	0.046
Mof_H 	H 	0.2665	0.3806	0.0949	0.026
Mof_C 	C 	0.2415	0.2166	0.1696	-0.111
Mof_H 	H 	0.2625	0.2209	0.1426	0.064
Mof_C 	C 	0.1923	0.3844	0.0924	-0.132
Mof_C 	C 	0.2023	0.2495	0.1771	0.038
Mof_O 	O 	0.14882	0.5525	0.94965	-0.389
Mof_O 	O 	0.23106	0.55152	0.95093	-0.392
Mof_C 	C 	0.1975	0.7056	0.8546	0.037
Mof_C 	C 	0.1903	0.5695	0.938	0.375
Mof_C 	C 	0.1492	0.6402	0.8933	0.036
Mof_H 	H 	0.1185	0.627	0.9018	0.034
Mof_C 	C 	0.2412	0.6803	0.8702	-0.104
Mof_H 	H 	0.2722	0.6936	0.8631	0.075
Mof_C 	C 	0.1516	0.6848	0.8662	-0.101
Mof_H 	H 	0.1225	0.7004	0.856	0.066
Mof_C 	C 	0.2376	0.6359	0.8958	0.041
Mof_H 	H 	0.2665	0.6194	0.9051	0.041
Mof_C 	C 	0.2415	0.7834	0.8304	-0.116
Mof_H 	H 	0.2625	0.7791	0.8574	0.078
Mof_C 	C 	0.1923	0.6156	0.9076	-0.108
Mof_C 	C 	0.2023	0.7505	0.8229	0.052
Mof_O 	O 	0.85118	0.5525	0.05035	-0.419
Mof_O 	O 	0.76894	0.55152	0.04907	-0.433
Mof_C 	C 	0.8025	0.7056	0.1454	0.039
Mof_C 	C 	0.8097	0.5695	0.062	0.377
Mof_C 	C 	0.8508	0.6402	0.1067	0.04
Mof_H 	H 	0.8815	0.627	0.0982	0.033
Mof_C 	C 	0.7588	0.6803	0.1298	-0.116
Mof_H 	H 	0.7278	0.6936	0.1369	0.073
Mof_C 	C 	0.8484	0.6848	0.1338	-0.11
Mof_H 	H 	0.8775	0.7004	0.144	0.074
Mof_C 	C 	0.7624	0.6359	0.1042	0.044
Mof_H 	H 	0.7335	0.6194	0.0949	0.027
Mof_C 	C 	0.7585	0.7834	0.1696	-0.115
Mof_H 	H 	0.7375	0.7791	0.1426	0.07
Mof_C 	C 	0.8077	0.6156	0.0924	-0.124
Mof_C 	C 	0.7977	0.7505	0.1771	0.05
Mof_O 	O 	0.85118	0.4475	0.94965	-0.376
Mof_O 	O 	0.76894	0.44848	0.95093	-0.391
Mof_C 	C 	0.8025	0.2944	0.8546	0.037
Mof_C 	C 	0.8097	0.4305	0.938	0.372
Mof_C 	C 	0.8508	0.3598	0.8933	0.035
Mof_H 	H 	0.8815	0.373	0.9018	0.048
Mof_C 	C 	0.7588	0.3197	0.8702	-0.102
Mof_H 	H 	0.7278	0.3064	0.8631	0.074
Mof_C 	C 	0.8484	0.3152	0.8662	-0.097
Mof_H 	H 	0.8775	0.2996	0.856	0.076
Mof_C 	C 	0.7624	0.3641	0.8958	0.038
Mof_H 	H 	0.7335	0.3806	0.9051	0.042
Mof_C 	C 	0.7585	0.2166	0.8304	-0.115
Mof_H 	H 	0.7375	0.2209	0.8574	0.077
Mof_C 	C 	0.8077	0.3844	0.9076	-0.102
Mof_C 	C 	0.7977	0.2495	0.8229	0.054
Mof_O 	O 	0.05035	0.14882	0.4475	-0.432
Mof_O 	O 	0.04907	0.23106	0.44848	-0.435
Mof_C 	C 	0.1454	0.1975	0.2944	0.038
Mof_C 	C 	0.062	0.1903	0.4305	0.38
Mof_C 	C 	0.1067	0.1492	0.3598	0.04
Mof_H 	H 	0.0982	0.1185	0.373	0.017
Mof_C 	C 	0.1298	0.2412	0.3197	-0.12
Mof_H 	H 	0.1369	0.2722	0.3064	0.074
Mof_C 	C 	0.1338	0.1516	0.3152	-0.117
Mof_H 	H 	0.144	0.1225	0.2996	0.058
Mof_C 	C 	0.1042	0.2376	0.3641	0.046
Mof_H 	H 	0.0949	0.2665	0.3806	0.026
Mof_C 	C 	0.1696	0.2415	0.2166	-0.111
Mof_H 	H 	0.1426	0.2625	0.2209	0.064
Mof_C 	C 	0.0924	0.1923	0.3844	-0.132
Mof_C 	C 	0.1771	0.2023	0.2495	0.038
Mof_O 	O 	0.94965	0.14882	0.5525	-0.389
Mof_O 	O 	0.95093	0.23106	0.55152	-0.392
Mof_C 	C 	0.8546	0.1975	0.7056	0.037
Mof_C 	C 	0.938	0.1903	0.5695	0.375
Mof_C 	C 	0.8933	0.1492	0.6402	0.036
Mof_H 	H 	0.9018	0.1185	0.627	0.034
Mof_C 	C 	0.8702	0.2412	0.6803	-0.104
Mof_H 	H 	0.8631	0.2722	0.6936	0.075
Mof_C 	C 	0.8662	0.1516	0.6848	-0.101
Mof_H 	H 	0.856	0.1225	0.7004	0.066
Mof_C 	C 	0.8958	0.2376	0.6359	0.041
Mof_H 	H 	0.9051	0.2665	0.6194	0.041
Mof_C 	C 	0.8304	0.2415	0.7834	-0.116
Mof_H 	H 	0.8574	0.2625	0.7791	0.078
Mof_C 	C 	0.9076	0.1923	0.6156	-0.108
Mof_C 	C 	0.8229	0.2023	0.7505	0.052
Mof_O 	O 	0.05035	0.85118	0.5525	-0.419
Mof_O 	O 	0.04907	0.76894	0.55152	-0.433
Mof_C 	C 	0.1454	0.8025	0.7056	0.039
Mof_C 	C 	0.062	0.8097	0.5695	0.377
Mof_C 	C 	0.1067	0.8508	0.6402	0.04
Mof_H 	H 	0.0982	0.8815	0.627	0.033
Mof_C 	C 	0.1298	0.7588	0.6803	-0.116
Mof_H 	H 	0.1369	0.7278	0.6936	0.073
Mof_C 	C 	0.1338	0.8484	0.6848	-0.11
Mof_H 	H 	0.144	0.8775	0.7004	0.074
Mof_C 	C 	0.1042	0.7624	0.6359	0.044
Mof_H 	H 	0.0949	0.7335	0.6194	0.027
Mof_C 	C 	0.1696	0.7585	0.7834	-0.115
Mof_H 	H 	0.1426	0.7375	0.7791	0.07
Mof_C 	C 	0.0924	0.8077	0.6156	-0.124
Mof_C 	C 	0.1771	0.7977	0.7505	0.05
Mof_O 	O 	0.94965	0.85118	0.4475	-0.376
Mof_O 	O 	0.95093	0.76894	0.44848	-0.391
Mof_C 	C 	0.8546	0.8025	0.2944	0.037
Mof_C 	C 	0.938	0.8097	0.4305	0.372
Mof_C 	C 	0.8933	0.8508	0.3598	0.035
Mof_H 	H 	0.9018	0.8815	0.373	0.048
Mof_C 	C 	0.8702	0.7588	0.3197	-0.102
Mof_H 	H 	0.8631	0.7278	0.3064	0.074
Mof_C 	C 	0.8662	0.8484	0.3152	-0.097
Mof_H 	H 	0.856	0.8775	0.2996	0.076
Mof_C 	C 	0.8958	0.7624	0.3641	0.038
Mof_H 	H 	0.9051	0.7335	0.3806	0.042
Mof_C 	C 	0.8304	0.7585	0.2166	-0.115
Mof_H 	H 	0.8574	0.7375	0.2209	0.077
Mof_C 	C 	0.9076	0.8077	0.3844	-0.102
Mof_C 	C 	0.8229	0.7977	0.2495	0.054
Mof_O 	O 	0.5525	0.94965	0.85118	-0.376
Mof_O 	O 	0.55152	0.95093	0.76894	-0.391
Mof_C 	C 	0.7056	0.8546	0.8025	0.038
Mof_C 	C 	0.5695	0.938	0.8097	0.372
Mof_C 	C 	0.6402	0.8933	0.8508	0.035
Mof_H 	H 	0.627	0.9018	0.8815	0.049
Mof_C 	C 	0.6803	0.8702	0.7588	-0.101
Mof_H 	H 	0.6936	0.8631	0.7278	0.074
Mof_C 	C 	0.6848	0.8662	0.8484	-0.096
Mof_H 	H 	0.7004	0.856	0.8775	0.079
Mof_C 	C 	0.6359	0.8958	0.7624	0.039
Mof_H 	H 	0.6194	0.9051	0.7335	0.042
Mof_C 	C 	0.7834	0.8304	0.7585	-0.118
Mof_H 	H 	0.7791	0.8574	0.7375	0.08
Mof_C 	C 	0.6156	0.9076	0.8077	-0.102
Mof_C 	C 	0.7505	0.8229	0.7977	0.059
Mof_O 	O 	0.4475	0.05035	0.85118	-0.419
Mof_O 	O 	0.44848	0.04907	0.76894	-0.434
Mof_C 	C 	0.2944	0.1454	0.8025	0.038
Mof_C 	C 	0.4305	0.062	0.8097	0.377
Mof_C 	C 	0.3598	0.1067	0.8508	0.039
Mof_H 	H 	0.373	0.0982	0.8815	0.032
Mof_C 	C 	0.3197	0.1298	0.7588	-0.117
Mof_H 	H 	0.3064	0.1369	0.7278	0.073
Mof_C 	C 	0.3152	0.1338	0.8484	-0.111
Mof_H 	H 	0.2996	0.144	0.8775	0.071
Mof_C 	C 	0.3641	0.1042	0.7624	0.044
Mof_H 	H 	0.3806	0.0949	0.7335	0.027
Mof_C 	C 	0.2166	0.1696	0.7585	-0.112
Mof_H 	H 	0.2209	0.1426	0.7375	0.067
Mof_C 	C 	0.3844	0.0924	0.8077	-0.125
Mof_C 	C 	0.2495	0.1771	0.7977	0.045
Mof_O 	O 	0.4475	0.94965	0.14882	-0.389
Mof_O 	O 	0.44848	0.95093	0.23106	-0.392
Mof_C 	C 	0.2944	0.8546	0.1975	0.037
Mof_C 	C 	0.4305	0.938	0.1903	0.375
Mof_C 	C 	0.3598	0.8933	0.1492	0.035
Mof_H 	H 	0.373	0.9018	0.1185	0.033
Mof_C 	C 	0.3197	0.8702	0.2412	-0.105
Mof_H 	H 	0.3064	0.8631	0.2722	0.075
Mof_C 	C 	0.3152	0.8662	0.1516	-0.102
Mof_H 	H 	0.2996	0.856	0.1225	0.063
Mof_C 	C 	0.3641	0.8958	0.2376	0.041
Mof_H 	H 	0.3806	0.9051	0.2665	0.04
Mof_C 	C 	0.2166	0.8304	0.2415	-0.114
Mof_H 	H 	0.2209	0.8574	0.2625	0.074
Mof_C 	C 	0.3844	0.9076	0.1923	-0.109
Mof_C 	C 	0.2495	0.8229	0.2023	0.047
Mof_O 	O 	0.5525	0.05035	0.14882	-0.431
Mof_O 	O 	0.55152	0.04907	0.23106	-0.435
Mof_C 	C 	0.7056	0.1454	0.1975	0.039
Mof_C 	C 	0.5695	0.062	0.1903	0.38
Mof_C 	C 	0.6402	0.1067	0.1492	0.041
Mof_H 	H 	0.627	0.0982	0.1185	0.018
Mof_C 	C 	0.6803	0.1298	0.2412	-0.119
Mof_H 	H 	0.6936	0.1369	0.2722	0.074
Mof_C 	C 	0.6848	0.1338	0.1516	-0.116
Mof_H 	H 	0.7004	0.144	0.1225	0.061
Mof_C 	C 	0.6359	0.1042	0.2376	0.047
Mof_H 	H 	0.6194	0.0949	0.2665	0.026
Mof_C 	C 	0.7834	0.1696	0.2415	-0.113
Mof_H 	H 	0.7791	0.1426	0.2625	0.068
Mof_C 	C 	0.6156	0.0924	0.1923	-0.131
Mof_C 	C 	0.7505	0.1771	0.2023	0.043
Mof_O 	O 	0.85118	0.5525	0.94965	-0.376
Mof_O 	O 	0.76894	0.55152	0.95093	-0.391
Mof_C 	C 	0.8025	0.7056	0.8546	0.038
Mof_C 	C 	0.8097	0.5695	0.938	0.372
Mof_C 	C 	0.8508	0.6402	0.8933	0.035
Mof_H 	H 	0.8815	0.627	0.9018	0.049
Mof_C 	C 	0.7588	0.6803	0.8702	-0.101
Mof_H 	H 	0.7278	0.6936	0.8631	0.074
Mof_C 	C 	0.8484	0.6848	0.8662	-0.096
Mof_H 	H 	0.8775	0.7004	0.856	0.079
Mof_C 	C 	0.7624	0.6359	0.8958	0.039
Mof_H 	H 	0.7335	0.6194	0.9051	0.042
Mof_C 	C 	0.7585	0.7834	0.8304	-0.118
Mof_H 	H 	0.7375	0.7791	0.8574	0.08
Mof_C 	C 	0.8077	0.6156	0.9076	-0.102
Mof_C 	C 	0.7977	0.7505	0.8229	0.059
Mof_O 	O 	0.85118	0.4475	0.05035	-0.419
Mof_O 	O 	0.76894	0.44848	0.04907	-0.434
Mof_C 	C 	0.8025	0.2944	0.1454	0.038
Mof_C 	C 	0.8097	0.4305	0.062	0.377
Mof_C 	C 	0.8508	0.3598	0.1067	0.039
Mof_H 	H 	0.8815	0.373	0.0982	0.032
Mof_C 	C 	0.7588	0.3197	0.1298	-0.117
Mof_H 	H 	0.7278	0.3064	0.1369	0.073
Mof_C 	C 	0.8484	0.3152	0.1338	-0.111
Mof_H 	H 	0.8775	0.2996	0.144	0.071
Mof_C 	C 	0.7624	0.3641	0.1042	0.044
Mof_H 	H 	0.7335	0.3806	0.0949	0.027
Mof_C 	C 	0.7585	0.2166	0.1696	-0.112
Mof_H 	H 	0.7375	0.2209	0.1426	0.067
Mof_C 	C 	0.8077	0.3844	0.0924	-0.125
Mof_C 	C 	0.7977	0.2495	0.1771	0.045
Mof_O 	O 	0.14882	0.4475	0.94965	-0.389
Mof_O 	O 	0.23106	0.44848	0.95093	-0.392
Mof_C 	C 	0.1975	0.2944	0.8546	0.037
Mof_C 	C 	0.1903	0.4305	0.938	0.375
Mof_C 	C 	0.1492	0.3598	0.8933	0.035
Mof_H 	H 	0.1185	0.373	0.9018	0.033
Mof_C 	C 	0.2412	0.3197	0.8702	-0.105
Mof_H 	H 	0.2722	0.3064	0.8631	0.075
Mof_C 	C 	0.1516	0.3152	0.8662	-0.102
Mof_H 	H 	0.1225	0.2996	0.856	0.063
Mof_C 	C 	0.2376	0.3641	0.8958	0.041
Mof_H 	H 	0.2665	0.3806	0.9051	0.04
Mof_C 	C 	0.2415	0.2166	0.8304	-0.114
Mof_H 	H 	0.2625	0.2209	0.8574	0.074
Mof_C 	C 	0.1923	0.3844	0.9076	-0.109
Mof_C 	C 	0.2023	0.2495	0.8229	0.047
Mof_O 	O 	0.14882	0.5525	0.05035	-0.431
Mof_O 	O 	0.23106	0.55152	0.04907	-0.435
Mof_C 	C 	0.1975	0.7056	0.1454	0.039
Mof_C 	C 	0.1903	0.5695	0.062	0.38
Mof_C 	C 	0.1492	0.6402	0.1067	0.041
Mof_H 	H 	0.1185	0.627	0.0982	0.018
Mof_C 	C 	0.2412	0.6803	0.1298	-0.119
Mof_H 	H 	0.2722	0.6936	0.1369	0.074
Mof_C 	C 	0.1516	0.6848	0.1338	-0.116
Mof_H 	H 	0.1225	0.7004	0.144	0.061
Mof_C 	C 	0.2376	0.6359	0.1042	0.047
Mof_H 	H 	0.2665	0.6194	0.0949	0.026
Mof_C 	C 	0.2415	0.7834	0.1696	-0.113
Mof_H 	H 	0.2625	0.7791	0.1426	0.068
Mof_C 	C 	0.1923	0.6156	0.0924	-0.131
Mof_C 	C 	0.2023	0.7505	0.1771	0.043
Mof_O 	O 	0.94965	0.85118	0.5525	-0.376
Mof_O 	O 	0.95093	0.76894	0.55152	-0.391
Mof_C 	C 	0.8546	0.8025	0.7056	0.038
Mof_C 	C 	0.938	0.8097	0.5695	0.372
Mof_C 	C 	0.8933	0.8508	0.6402	0.035
Mof_H 	H 	0.9018	0.8815	0.627	0.049
Mof_C 	C 	0.8702	0.7588	0.6803	-0.101
Mof_H 	H 	0.8631	0.7278	0.6936	0.074
Mof_C 	C 	0.8662	0.8484	0.6848	-0.096
Mof_H 	H 	0.856	0.8775	0.7004	0.079
Mof_C 	C 	0.8958	0.7624	0.6359	0.039
Mof_H 	H 	0.9051	0.7335	0.6194	0.042
Mof_C 	C 	0.8304	0.7585	0.7834	-0.118
Mof_H 	H 	0.8574	0.7375	0.7791	0.08
Mof_C 	C 	0.9076	0.8077	0.6156	-0.102
Mof_C 	C 	0.8229	0.7977	0.7505	0.059
Mof_O 	O 	0.05035	0.85118	0.4475	-0.419
Mof_O 	O 	0.04907	0.76894	0.44848	-0.434
Mof_C 	C 	0.1454	0.8025	0.2944	0.038
Mof_C 	C 	0.062	0.8097	0.4305	0.377
Mof_C 	C 	0.1067	0.8508	0.3598	0.039
Mof_H 	H 	0.0982	0.8815	0.373	0.032
Mof_C 	C 	0.1298	0.7588	0.3197	-0.117
Mof_H 	H 	0.1369	0.7278	0.3064	0.073
Mof_C 	C 	0.1338	0.8484	0.3152	-0.111
Mof_H 	H 	0.144	0.8775	0.2996	0.071
Mof_C 	C 	0.1042	0.7624	0.3641	0.044
Mof_H 	H 	0.0949	0.7335	0.3806	0.027
Mof_C 	C 	0.1696	0.7585	0.2166	-0.112
Mof_H 	H 	0.1426	0.7375	0.2209	0.067
Mof_C 	C 	0.0924	0.8077	0.3844	-0.125
Mof_C 	C 	0.1771	0.7977	0.2495	0.045
Mof_O 	O 	0.94965	0.14882	0.4475	-0.389
Mof_O 	O 	0.95093	0.23106	0.44848	-0.392
Mof_C 	C 	0.8546	0.1975	0.2944	0.037
Mof_C 	C 	0.938	0.1903	0.4305	0.375
Mof_C 	C 	0.8933	0.1492	0.3598	0.035
Mof_H 	H 	0.9018	0.1185	0.373	0.033
Mof_C 	C 	0.8702	0.2412	0.3197	-0.105
Mof_H 	H 	0.8631	0.2722	0.3064	0.075
Mof_C 	C 	0.8662	0.1516	0.3152	-0.102
Mof_H 	H 	0.856	0.1225	0.2996	0.063
Mof_C 	C 	0.8958	0.2376	0.3641	0.041
Mof_H 	H 	0.9051	0.2665	0.3806	0.04
Mof_C 	C 	0.8304	0.2415	0.2166	-0.114
Mof_H 	H 	0.8574	0.2625	0.2209	0.074
Mof_C 	C 	0.9076	0.1923	0.3844	-0.109
Mof_C 	C 	0.8229	0.2023	0.2495	0.047
Mof_O 	O 	0.05035	0.14882	0.5525	-0.431
Mof_O 	O 	0.04907	0.23106	0.55152	-0.435
Mof_C 	C 	0.1454	0.1975	0.7056	0.039
Mof_C 	C 	0.062	0.1903	0.5695	0.38
Mof_C 	C 	0.1067	0.1492	0.6402	0.041
Mof_H 	H 	0.0982	0.1185	0.627	0.018
Mof_C 	C 	0.1298	0.2412	0.6803	-0.119
Mof_H 	H 	0.1369	0.2722	0.6936	0.074
Mof_C 	C 	0.1338	0.1516	0.6848	-0.116
Mof_H 	H 	0.144	0.1225	0.7004	0.061
Mof_C 	C 	0.1042	0.2376	0.6359	0.047
Mof_H 	H 	0.0949	0.2665	0.6194	0.026
Mof_C 	C 	0.1696	0.2415	0.7834	-0.113
Mof_H 	H 	0.1426	0.2625	0.7791	0.068
Mof_C 	C 	0.0924	0.1923	0.6156	-0.131
Mof_C 	C 	0.1771	0.2023	0.7505	0.043
Mof_Cu	Cu	0.5	0	0.14397	0.874
Mof_Cu	Cu	0.5	0	0.2401	0.883
Mof_Cu	Cu	0.5	0	0.85603	0.88
Mof_Cu	Cu	0.5	-1.02966e-32	0.7599	0.883
Mof_Cu	Cu	0.14397	0.5	-0	0.874
Mof_Cu	Cu	0.2401	0.5	-0	0.883
Mof_Cu	Cu	0.85603	0.5	-0	0.88
Mof_Cu	Cu	0.7599	0.5	-0	0.883
Mof_Cu	Cu	-3.2736e-33	0.14397	0.5	0.874
Mof_Cu	Cu	-8.42191e-33	0.2401	0.5	0.883
Mof_Cu	Cu	-3.2736e-33	0.85603	0.5	0.88
Mof_Cu	Cu	-3.2736e-33	0.7599	0.5	0.883
Mof_O 	O 	0.9475	0.55035	0.64882	-0.382
Mof_O 	O 	0.94848	0.54907	0.73106	-0.389
Mof_C 	C 	0.7944	0.6454	0.6975	0.033
Mof_C 	C 	0.9305	0.562	0.6903	0.37
Mof_C 	C 	0.8598	0.6067	0.6492	0.031
Mof_H 	H 	0.873	0.5982	0.6185	0.039
Mof_C 	C 	0.8197	0.6298	0.7412	-0.103
Mof_H 	H 	0.8064	0.6369	0.7722	0.072
Mof_C 	C 	0.8152	0.6338	0.6516	-0.1
Mof_H 	H 	0.7996	0.644	0.6225	0.067
Mof_C 	C 	0.8641	0.6042	0.7376	0.036
Mof_H 	H 	0.8806	0.5949	0.7665	0.042
Mof_C 	C 	0.7166	0.6696	0.7415	-0.118
Mof_H 	H 	0.7209	0.6426	0.7625	0.074
Mof_C 	C 	0.8844	0.5924	0.6923	-0.105
Mof_C 	C 	0.7495	0.6771	0.7023	0.052
Mof_O 	O 	0.0525	0.44965	0.64882	-0.426
Mof_O 	O 	0.05152	0.45093	0.73106	-0.434
Mof_C 	C 	0.2056	0.3546	0.6975	0.041
Mof_C 	C 	0.0695	0.438	0.6903	0.38
Mof_C 	C 	0.1402	0.3933	0.6492	0.042
Mof_H 	H 	0.127	0.4018	0.6185	0.027
Mof_C 	C 	0.1803	0.3702	0.7412	-0.115
Mof_H 	H 	0.1936	0.3631	0.7722	0.075
Mof_C 	C 	0.1848	0.3662	0.6516	-0.111
Mof_H 	H 	0.2004	0.356	0.6225	0.069
Mof_C 	C 	0.1359	0.3958	0.7376	0.047
Mof_H 	H 	0.1194	0.4051	0.7665	0.028
Mof_C 	C 	0.2834	0.3304	0.7415	-0.113
Mof_H 	H 	0.2791	0.3574	0.7625	0.072
Mof_C 	C 	0.1156	0.4076	0.6923	-0.126
Mof_C 	C 	0.2505	0.3229	0.7023	0.047
Mof_O 	O 	0.0525	0.55035	0.35118	-0.426
Mof_O 	O 	0.05152	0.54907	0.26894	-0.436
Mof_C 	C 	0.2056	0.6454	0.3025	0.042
Mof_C 	C 	0.0695	0.562	0.3097	0.381
Mof_C 	C 	0.1402	0.6067	0.3508	0.043
Mof_H 	H 	0.127	0.5982	0.3815	0.027
Mof_C 	C 	0.1803	0.6298	0.2588	-0.117
Mof_H 	H 	0.1936	0.6369	0.2278	0.076
Mof_C 	C 	0.1848	0.6338	0.3484	-0.112
Mof_H 	H 	0.2004	0.644	0.3775	0.069
Mof_C 	C 	0.1359	0.6042	0.2624	0.049
Mof_H 	H 	0.1194	0.5949	0.2335	0.026
Mof_C 	C 	0.2834	0.6696	0.2585	-0.112
Mof_H 	H 	0.2791	0.6426	0.2375	0.071
Mof_C 	C 	0.1156	0.5924	0.3077	-0.128
Mof_C 	C 	0.2505	0.6771	0.2977	0.046
Mof_O 	O 	0.9475	0.44965	0.35118	-0.382
Mof_O 	O 	0.94848	0.45093	0.26894	-0.392
Mof_C 	C 	0.7944	0.3546	0.3025	0.035
Mof_C 	C 	0.9305	0.438	0.3097	0.371
Mof_C 	C 	0.8598	0.3933	0.3508	0.033
Mof_H 	H 	0.873	0.4018	0.3815	0.039
Mof_C 	C 	0.8197	0.3702	0.2588	-0.106
Mof_H 	H 	0.8064	0.3631	0.2278	0.073
Mof_C 	C 	0.8152	0.3662	0.3484	-0.102
Mof_H 	H 	0.7996	0.356	0.3775	0.068
Mof_C 	C 	0.8641	0.3958	0.2624	0.038
Mof_H 	H 	0.8806	0.4051	0.2335	0.039
Mof_C 	C 	0.7166	0.3304	0.2585	-0.113
Mof_H 	H 	0.7209	0.3574	0.2375	0.072
Mof_C 	C 	0.8844	0.4076	0.3077	-0.107
Mof_C 	C 	0.7495	0.3229	0.2977	0.049
Mof_O 	O 	0.64882	0.9475	0.55035	-0.382
Mof_O 	O 	0.73106	0.94848	0.54907	-0.389
Mof_C 	C 	0.6975	0.7944	0.6454	0.033
Mof_C 	C 	0.6903	0.9305	0.562	0.37
Mof_C 	C 	0.6492	0.8598	0.6067	0.031
Mof_H 	H 	0.6185	0.873	0.5982	0.039
Mof_C 	C 	0.7412	0.8197	0.6298	-0.103
Mof_H 	H 	0.7722	0.8064	0.6369	0.072
Mof_C 	C 	0.6516	0.8152	0.6338	-0.1
Mof_H 	H 	0.6225	0.7996	0.644	0.067
Mof_C 	C 	0.7376	0.8641	0.6042	0.036
Mof_H 	H 	0.7665	0.8806	0.5949	0.042
Mof_C 	C 	0.7415	0.7166	0.6696	-0.118
Mof_H 	H 	0.7625	0.7209	0.6426	0.074
Mof_C 	C 	0.6923	0.8844	0.5924	-0.105
Mof_C 	C 	0.7023	0.7495	0.6771	0.052
Mof_O 	O 	0.64882	0.0525	0.44965	-0.426
Mof_O 	O 	0.73106	0.05152	0.45093	-0.434
Mof_C 	C 	0.6975	0.2056	0.3546	0.041
Mof_C 	C 	0.6903	0.0695	0.438	0.38
Mof_C 	C 	0.6492	0.1402	0.3933	0.042
Mof_H 	H 	0.6185	0.127	0.4018	0.027
Mof_C 	C 	0.7412	0.1803	0.3702	-0.115
Mof_H 	H 	0.7722	0.1936	0.3631	0.075
Mof_C 	C 	0.6516	0.1848	0.3662	-0.111
Mof_H 	H 	0.6225	0.2004	0.356	0.069
Mof_C 	C 	0.7376	0.1359	0.3958	0.047
Mof_H 	H 	0.7665	0.1194	0.4051	0.028
Mof_C 	C 	0.7415	0.2834	0.3304	-0.113
Mof_H 	H 	0.7625	0.2791	0.3574	0.072
Mof_C 	C 	0.6923	0.1156	0.4076	-0.126
Mof_C 	C 	0.7023	0.2505	0.3229	0.047
Mof_O 	O 	0.35118	0.0525	0.55035	-0.426
Mof_O 	O 	0.26894	0.05152	0.54907	-0.436
Mof_C 	C 	0.3025	0.2056	0.6454	0.042
Mof_C 	C 	0.3097	0.0695	0.562	0.381
Mof_C 	C 	0.3508	0.1402	0.6067	0.043
Mof_H 	H 	0.3815	0.127	0.5982	0.027
Mof_C 	C 	0.2588	0.1803	0.6298	-0.117
Mof_H 	H 	0.2278	0.1936	0.6369	0.076
Mof_C 	C 	0.3484	0.1848	0.6338	-0.112
Mof_H 	H 	0.3775	0.2004	0.644	0.069
Mof_C 	C 	0.2624	0.1359	0.6042	0.049
Mof_H 	H 	0.2335	0.1194	0.5949	0.026
Mof_C 	C 	0.2585	0.2834	0.6696	-0.112
Mof_H 	H 	0.2375	0.2791	0.6426	0.071
Mof_C 	C 	0.3077	0.1156	0.5924	-0.128
Mof_C 	C 	0.2977	0.2505	0.6771	0.046
Mof_O 	O 	0.35118	0.9475	0.44965	-0.382
Mof_O 	O 	0.26894	0.94848	0.45093	-0.392
Mof_C 	C 	0.3025	0.7944	0.3546	0.035
Mof_C 	C 	0.3097	0.9305	0.438	0.371
Mof_C 	C 	0.3508	0.8598	0.3933	0.033
Mof_H 	H 	0.3815	0.873	0.4018	0.039
Mof_C 	C 	0.2588	0.8197	0.3702	-0.106
Mof_H 	H 	0.2278	0.8064	0.3631	0.073
Mof_C 	C 	0.3484	0.8152	0.3662	-0.102
Mof_H 	H 	0.3775	0.7996	0.356	0.068
Mof_C 	C 	0.2624	0.8641	0.3958	0.038
Mof_H 	H 	0.2335	0.8806	0.4051	0.039
Mof_C 	C 	0.2585	0.7166	0.3304	-0.113
Mof_H 	H 	0.2375	0.7209	0.3574	0.072
Mof_C 	C 	0.3077	0.8844	0.4076	-0.107
Mof_C 	C 	0.2977	0.7495	0.3229	0.049
Mof_O 	O 	0.55035	0.64882	0.9475	-0.382
Mof_O 	O 	0.54907	0.73106	0.94848	-0.389
Mof_C 	C 	0.6454	0.6975	0.7944	0.033
Mof_C 	C 	0.562	0.6903	0.9305	0.37
Mof_C 	C 	0.6067	0.6492	0.8598	0.031
Mof_H 	H 	0.5982	0.6185	0.873	0.039
Mof_C 	C 	0.6298	0.7412	0.8197	-0.103
Mof_H 	H 	0.6369	0.7722	0.8064	0.072
Mof_C 	C 	0.6338	0.6516	0.8152	-0.1
Mof_H 	H 	0.644	0.6225	0.7996	0.067
Mof_C 	C 	0.6042	0.7376	0.8641	0.036
Mof_H 	H 	0.5949	0.7665	0.8806	0.042
Mof_C 	C 	0.6696	0.7415	0.7166	-0.118
Mof_H 	H 	0.6426	0.7625	0.7209	0.074
Mof_C 	C 	0.5924	0.6923	0.8844	-0.105
Mof_C 	C 	0.6771	0.7023	0.7495	0.052
Mof_O 	O 	0.44965	0.64882	0.0525	-0.426
Mof_O 	O 	0.45093	0.73106	0.05152	-0.434
Mof_C 	C 	0.3546	0.6975	0.2056	0.041
Mof_C 	C 	0.438	0.6903	0.0695	0.38
Mof_C 	C 	0.3933	0.6492	0.1402	0.042
Mof_H 	H 	0.4018	0.6185	0.127	0.027
Mof_C 	C 	0.3702	0.7412	0.1803	-0.115
Mof_H 	H 	0.3631	0.7722	0.1936	0.075
Mof_C 	C 	0.3662	0.6516	0.1848	-0.111
Mof_H 	H 	0.356	0.6225	0.2004	0.069
Mof_C 	C 	0.3958	0.7376	0.1359	0.047
Mof_H 	H 	0.4051	0.7665	0.1194	0.028
Mof_C 	C 	0.3304	0.7415	0.2834	-0.113
Mof_H 	H 	0.3574	0.7625	0.2791	0.072
Mof_C 	C 	0.4076	0.6923	0.1156	-0.126
Mof_C 	C 	0.3229	0.7023	0.2505	0.047
Mof_O 	O 	0.55035	0.35118	0.0525	-0.426
Mof_O 	O 	0.54907	0.26894	0.05152	-0.436
Mof_C 	C 	0.6454	0.3025	0.2056	0.042
Mof_C 	C 	0.562	0.3097	0.0695	0.381
Mof_C 	C 	0.6067	0.3508	0.1402	0.043
Mof_H 	H 	0.5982	0.3815	0.127	0.027
Mof_C 	C 	0.6298	0.2588	0.1803	-0.117
Mof_H 	H 	0.6369	0.2278	0.1936	0.076
Mof_C 	C 	0.6338	0.3484	0.1848	-0.112
Mof_H 	H 	0.644	0.3775	0.2004	0.069
Mof_C 	C 	0.6042	0.2624	0.1359	0.049
Mof_H 	H 	0.5949	0.2335	0.1194	0.026
Mof_C 	C 	0.6696	0.2585	0.2834	-0.112
Mof_H 	H 	0.6426	0.2375	0.2791	0.071
Mof_C 	C 	0.5924	0.3077	0.1156	-0.128
Mof_C 	C 	0.6771	0.2977	0.2505	0.046
Mof_O 	O 	0.44965	0.35118	0.9475	-0.382
Mof_O 	O 	0.45093	0.26894	0.94848	-0.392
Mof_C 	C 	0.3546	0.3025	0.7944	0.035
Mof_C 	C 	0.438	0.3097	0.9305	0.371
Mof_C 	C 	0.3933	0.3508	0.8598	0.033
Mof_H 	H 	0.4018	0.3815	0.873	0.039
Mof_C 	C 	0.3702	0.2588	0.8197	-0.106
Mof_H 	H 	0.3631	0.2278	0.8064	0.073
Mof_C 	C 	0.3662	0.3484	0.8152	-0.102
Mof_H 	H 	0.356	0.3775	0.7996	0.068
Mof_C 	C 	0.3958	0.2624	0.8641	0.038
Mof_H 	H 	0.4051	0.2335	0.8806	0.039
Mof_C 	C 	0.3304	0.2585	0.7166	-0.113
Mof_H 	H 	0.3574	0.2375	0.7209	0.072
Mof_C 	C 	0.4076	0.3077	0.8844	-0.107
Mof_C 	C 	0.3229	0.2977	0.7495	0.049
Mof_O 	O 	0.0525	0.44965	0.35118	-0.426
Mof_O 	O 	0.05152	0.45093	0.26894	-0.436
Mof_C 	C 	0.2056	0.3546	0.3025	0.043
Mof_C 	C 	0.0695	0.438	0.3097	0.381
Mof_C 	C 	0.1402	0.3933	0.3508	0.044
Mof_H 	H 	0.127	0.4018	0.3815	0.026
Mof_C 	C 	0.1803	0.3702	0.2588	-0.118
Mof_H 	H 	0.1936	0.3631	0.2278	0.076
Mof_C 	C 	0.1848	0.3662	0.3484	-0.113
Mof_H 	H 	0.2004	0.356	0.3775	0.07
Mof_C 	C 	0.1359	0.3958	0.2624	0.049
Mof_H 	H 	0.1194	0.4051	0.2335	0.026
Mof_C 	C 	0.2834	0.3304	0.2585	-0.11
Mof_H 	H 	0.2791	0.3574	0.2375	0.071
Mof_C 	C 	0.1156	0.4076	0.3077	-0.128
Mof_C 	C 	0.2505	0.3229	0.2977	0.045
Mof_O 	O 	0.9475	0.55035	0.35118	-0.382
Mof_O 	O 	0.94848	0.54907	0.26894	-0.392
Mof_C 	C 	0.7944	0.6454	0.3025	0.035
Mof_C 	C 	0.9305	0.562	0.3097	0.371
Mof_C 	C 	0.8598	0.6067	0.3508	0.033
Mof_H 	H 	0.873	0.5982	0.3815	0.039
Mof_C 	C 	0.8197	0.6298	0.2588	-0.105
Mof_H 	H 	0.8064	0.6369	0.2278	0.073
Mof_C 	C 	0.8152	0.6338	0.3484	-0.101
Mof_H 	H 	0.7996	0.644	0.3775	0.068
Mof_C 	C 	0.8641	0.6042	0.2624	0.038
Mof_H 	H 	0.8806	0.5949	0.2335	0.039
Mof_C 	C 	0.7166	0.6696	0.2585	-0.115
Mof_H 	H 	0.7209	0.6426	0.2375	0.072
Mof_C 	C 	0.8844	0.5924	0.3077	-0.107
Mof_C 	C 	0.7495	0.6771	0.2977	0.05
Mof_O 	O 	0.9475	0.44965	0.64882	-0.382
Mof_O 	O 	0.94848	0.45093	0.73106	-0.39
Mof_C 	C 	0.7944	0.3546	0.6975	0.034
Mof_C 	C 	0.9305	0.438	0.6903	0.37
Mof_C 	C 	0.8598	0.3933	0.6492	0.032
Mof_H 	H 	0.873	0.4018	0.6185	0.039
Mof_C 	C 	0.8197	0.3702	0.7412	-0.103
Mof_H 	H 	0.8064	0.3631	0.7722	0.072
Mof_C 	C 	0.8152	0.3662	0.6516	-0.1
Mof_H 	H 	0.7996	0.356	0.6225	0.067
Mof_C 	C 	0.8641	0.3958	0.7376	0.036
Mof_H 	H 	0.8806	0.4051	0.7665	0.041
Mof_C 	C 	0.7166	0.3304	0.7415	-0.116
Mof_H 	H 	0.7209	0.3574	0.7625	0.073
Mof_C 	C 	0.8844	0.4076	0.6923	-0.105
Mof_C 	C 	0.7495	0.3229	0.7023	0.05
Mof_O 	O 	0.0525	0.55035	0.64882	-0.426
Mof_O 	O 	0.05152	0.54907	0.73106	-0.433
Mof_C 	C 	0.2056	0.6454	0.6975	0.04
Mof_C 	C 	0.0695	0.562	0.6903	0.38
Mof_C 	C 	0.1402	0.6067	0.6492	0.042
Mof_H 	H 	0.127	0.5982	0.6185	0.027
Mof_C 	C 	0.1803	0.6298	0.7412	-0.115
Mof_H 	H 	0.1936	0.6369	0.7722	0.075
Mof_C 	C 	0.1848	0.6338	0.6516	-0.111
Mof_H 	H 	0.2004	0.644	0.6225	0.069
Mof_C 	C 	0.1359	0.6042	0.7376	0.047
Mof_H 	H 	0.1194	0.5949	0.7665	0.029
Mof_C 	C 	0.2834	0.6696	0.7415	-0.115
Mof_H 	H 	0.2791	0.6426	0.7625	0.073
Mof_C 	C 	0.1156	0.5924	0.6923	-0.126
Mof_C 	C 	0.2505	0.6771	0.7023	0.048
Mof_O 	O 	0.35118	0.0525	0.44965	-0.426
Mof_O 	O 	0.26894	0.05152	0.45093	-0.436
Mof_C 	C 	0.3025	0.2056	0.3546	0.043
Mof_C 	C 	0.3097	0.0695	0.438	0.381
Mof_C 	C 	0.3508	0.1402	0.3933	0.044
Mof_H 	H 	0.3815	0.127	0.4018	0.026
Mof_C 	C 	0.2588	0.1803	0.3702	-0.118
Mof_H 	H 	0.2278	0.1936	0.3631	0.076
Mof_C 	C 	0.3484	0.1848	0.3662	-0.113
Mof_H 	H 	0.3775	0.2004	0.356	0.07
Mof_C 	C 	0.2624	0.1359	0.3958	0.049
Mof_H 	H 	0.2335	0.1194	0.4051	0.026
Mof_C 	C 	0.2585	0.2834	0.3304	-0.11
Mof_H 	H 	0.2375	0.2791	0.3574	0.071
Mof_C 	C 	0.3077	0.1156	0.4076	-0.128
Mof_C 	C 	0.2977	0.2505	0.3229	0.045
Mof_O 	O 	0.35118	0.9475	0.55035	-0.382
Mof_O 	O 	0.26894	0.94848	0.54907	-0.392
Mof_C 	C 	0.3025	0.7944	0.6454	0.035
Mof_C 	C 	0.3097	0.9305	0.562	0.371
Mof_C 	C 	0.3508	0.8598	0.6067	0.033
Mof_H 	H 	0.3815	0.873	0.5982	0.039
Mof_C 	C 	0.2588	0.8197	0.6298	-0.105
Mof_H 	H 	0.2278	0.8064	0.6369	0.073
Mof_C 	C 	0.3484	0.8152	0.6338	-0.101
Mof_H 	H 	0.3775	0.7996	0.644	0.068
Mof_C 	C 	0.2624	0.8641	0.6042	0.038
Mof_H 	H 	0.2335	0.8806	0.5949	0.039
Mof_C 	C 	0.2585	0.7166	0.6696	-0.115
Mof_H 	H 	0.2375	0.7209	0.6426	0.072
Mof_C 	C 	0.3077	0.8844	0.5924	-0.107
Mof_C 	C 	0.2977	0.7495	0.6771	0.05
Mof_O 	O 	0.64882	0.9475	0.44965	-0.382
Mof_O 	O 	0.73106	0.94848	0.45093	-0.39
Mof_C 	C 	0.6975	0.7944	0.3546	0.034
Mof_C 	C 	0.6903	0.9305	0.438	0.37
Mof_C 	C 	0.6492	0.8598	0.3933	0.032
Mof_H 	H 	0.6185	0.873	0.4018	0.039
Mof_C 	C 	0.7412	0.8197	0.3702	-0.103
Mof_H 	H 	0.7722	0.8064	0.3631	0.072
Mof_C 	C 	0.6516	0.8152	0.3662	-0.1
Mof_H 	H 	0.6225	0.7996	0.356	0.067
Mof_C 	C 	0.7376	0.8641	0.3958	0.036
Mof_H 	H 	0.7665	0.8806	0.4051	0.041
Mof_C 	C 	0.7415	0.7166	0.3304	-0.116
Mof_H 	H 	0.7625	0.7209	0.3574	0.073
Mof_C 	C 	0.6923	0.8844	0.4076	-0.105
Mof_C 	C 	0.7023	0.7495	0.3229	0.05
Mof_O 	O 	0.64882	0.0525	0.55035	-0.426
Mof_O 	O 	0.73106	0.05152	0.54907	-0.433
Mof_C 	C 	0.6975	0.2056	0.6454	0.04
Mof_C 	C 	0.6903	0.0695	0.562	0.38
Mof_C 	C 	0.6492	0.1402	0.6067	0.042
Mof_H 	H 	0.6185	0.127	0.5982	0.027
Mof_C 	C 	0.7412	0.1803	0.6298	-0.115
Mof_H 	H 	0.7722	0.1936	0.6369	0.075
Mof_C 	C 	0.6516	0.1848	0.6338	-0.111
Mof_H 	H 	0.6225	0.2004	0.644	0.069
Mof_C 	C 	0.7376	0.1359	0.6042	0.047
Mof_H 	H 	0.7665	0.1194	0.5949	0.029
Mof_C 	C 	0.7415	0.2834	0.6696	-0.115
Mof_H 	H 	0.7625	0.2791	0.6426	0.073
Mof_C 	C 	0.6923	0.1156	0.5924	-0.126
Mof_C 	C 	0.7023	0.2505	0.6771	0.048
Mof_O 	O 	0.44965	0.35118	0.0525	-0.426
Mof_O 	O 	0.45093	0.26894	0.05152	-0.436
Mof_C 	C 	0.3546	0.3025	0.2056	0.043
Mof_C 	C 	0.438	0.3097	0.0695	0.381
Mof_C 	C 	0.3933	0.3508	0.1402	0.044
Mof_H 	H 	0.4018	0.3815	0.127	0.026
Mof_C 	C 	0.3702	0.2588	0.1803	-0.118
Mof_H 	H 	0.3631	0.2278	0.1936	0.076
Mof_C 	C 	0.3662	0.3484	0.1848	-0.113
Mof_H 	H 	0.356	0.3775	0.2004	0.07
Mof_C 	C 	0.3958	0.2624	0.1359	0.049
Mof_H 	H 	0.4051	0.2335	0.1194	0.026
Mof_C 	C 	0.3304	0.2585	0.2834	-0.11
Mof_H 	H 	0.3574	0.2375	0.2791	0.071
Mof_C 	C 	0.4076	0.3077	0.1156	-0.128
Mof_C 	C 	0.3229	0.2977	0.2505	0.045
Mof_O 	O 	0.55035	0.35118	0.9475	-0.382
Mof_O 	O 	0.54907	0.26894	0.94848	-0.392
Mof_C 	C 	0.6454	0.3025	0.7944	0.035
Mof_C 	C 	0.562	0.3097	0.9305	0.371
Mof_C 	C 	0.6067	0.3508	0.8598	0.033
Mof_H 	H 	0.5982	0.3815	0.873	0.039
Mof_C 	C 	0.6298	0.2588	0.8197	-0.105
Mof_H 	H 	0.6369	0.2278	0.8064	0.073
Mof_C 	C 	0.6338	0.3484	0.8152	-0.101
Mof_H 	H 	0.644	0.3775	0.7996	0.068
Mof_C 	C 	0.6042	0.2624	0.8641	0.038
Mof_H 	H 	0.5949	0.2335	0.8806	0.039
Mof_C 	C 	0.6696	0.2585	0.7166	-0.115
Mof_H 	H 	0.6426	0.2375	0.7209	0.072
Mof_C 	C 	0.5924	0.3077	0.8844	-0.107
Mof_C 	C 	0.6771	0.2977	0.7495	0.05
Mof_O 	O 	0.44965	0.64882	0.9475	-0.382
Mof_O 	O 	0.45093	0.73106	0.94848	-0.39
Mof_C 	C 	0.3546	0.6975	0.7944	0.034
Mof_C 	C 	0.438	0.6903	0.9305	0.37
Mof_C 	C 	0.3933	0.6492	0.8598	0.032
Mof_H 	H 	0.4018	0.6185	0.873	0.039
Mof_C 	C 	0.3702	0.7412	0.8197	-0.103
Mof_H 	H 	0.3631	0.7722	0.8064	0.072
Mof_C 	C 	0.3662	0.6516	0.8152	-0.1
Mof_H 	H 	0.356	0.6225	0.7996	0.067
Mof_C 	C 	0.3958	0.7376	0.8641	0.036
Mof_H 	H 	0.4051	0.7665	0.8806	0.041
Mof_C 	C 	0.3304	0.7415	0.7166	-0.116
Mof_H 	H 	0.3574	0.7625	0.7209	0.073
Mof_C 	C 	0.4076	0.6923	0.8844	-0.105
Mof_C 	C 	0.3229	0.7023	0.7495	0.05
Mof_O 	O 	0.55035	0.64882	0.0525	-0.426
Mof_O 	O 	0.54907	0.73106	0.05152	-0.433
Mof_C 	C 	0.6454	0.6975	0.2056	0.04
Mof_C 	C 	0.562	0.6903	0.0695	0.38
Mof_C 	C 	0.6067	0.6492	0.1402	0.042
Mof_H 	H 	0.5982	0.6185	0.127	0.027
Mof_C 	C 	0.6298	0.7412	0.1803	-0.115
Mof_H 	H 	0.6369	0.7722	0.1936	0.075
Mof_C 	C 	0.6338	0.6516	0.1848	-0.111
Mof_H 	H 	0.644	0.6225	0.2004	0.069
Mof_C 	C 	0.6042	0.7376	0.1359	0.047
Mof_H 	H 	0.5949	0.7665	0.1194	0.029
Mof_C 	C 	0.6696	0.7415	0.2834	-0.115
Mof_H 	H 	0.6426	0.7625	0.2791	0.073
Mof_C 	C 	0.5924	0.6923	0.1156	-0.126
Mof_C 	C 	0.6771	0.7023	0.2505	0.048
Mof_Cu	Cu	-1.30304e-32	0.5	0.64397	0.877
Mof_Cu	Cu	-1.78183e-32	0.5	0.7401	0.884
Mof_Cu	Cu	-3.81341e-33	0.5	0.35603	0.877
Mof_Cu	Cu	-1.59968e-33	0.5	0.2599	0.882
Mof_Cu	Cu	0.64397	-5.1483e-33	0.5	0.877
Mof_Cu	Cu	0.7401	-5.1483e-33	0.5	0.884
Mof_Cu	Cu	0.35603	-5.1483e-33	0.5	0.877
Mof_Cu	Cu	0.2599	-5.1483e-33	0.5	0.882
Mof_Cu	Cu	0.5	0.64397	-0	0.877
Mof_Cu	Cu	0.5	0.7401	-0	0.884
Mof_Cu	Cu	0.5	0.35603	-0	0.877
Mof_Cu	Cu	0.5	0.2599	-0	0.882
_end
