data_functionalizedCrystal
_audit_creation_method	'EQeq! by Chris Wilmer'
_symmetry_space_group_name_H-M	'P1'
_symmetry_Int_Tables_number	1
_symmetry_cell_setting	triclinic
loop_
_symmetry_equiv_pos_as_xyz
  x,y,z
_cell_length_a	12.1584
_cell_length_b	12.1584
_cell_length_c	17.8082
_cell_angle_alpha	90
_cell_angle_beta	90
_cell_angle_gamma	90
loop_
_atom_site_label
_atom_site_type_symbol
_atom_site_fract_x
_atom_site_fract_y
_atom_site_fract_z
_atom_site_charge
Mof_Np	Np	0.39685	0.42142	0.2213	0.026
Mof_O 	O 	0.2463	0.4028	0.2048	-0.04
Mof_O 	O 	0.414	0.5218	0.0987	-0.181
Mof_O 	O 	0.3788	0.6236	0.1973	-0.177
Mof_O 	O 	0.4885	0.8738	0.8418	-0.176
Mof_O 	O 	0.5587	0.7112	0.8721	-0.164
Mof_C 	C 	0.399	0.6152	0.1284	0.273
Mof_C 	C 	0.4052	0.7164	0.0811	-0.042
Mof_C 	C 	0.4459	0.7095	0.0078	-0.004
Mof_H 	H 	0.4707	0.6408	0.9889	0.081
Mof_C 	C 	0.4503	0.8018	0.9629	-0.036
Mof_C 	C 	0.4103	0.9017	0.9902	-0.01
Mof_H 	H 	0.4086	0.9643	0.9583	0.065
Mof_C 	C 	0.3731	0.9102	0.0634	-0.042
Mof_H 	H 	0.3488	0.979	0.0825	0.085
Mof_C 	C 	0.3718	0.8171	0.1091	-0.006
Mof_H 	H 	0.3478	0.8228	0.1597	0.076
Mof_C 	C 	0.5021	0.7951	0.8864	0.277
Mof_Np	Np	0.10315	0.07858	0.2213	0.024
Mof_O 	O 	0.2537	0.0972	0.2048	-0.042
Mof_O 	O 	0.086	0.9782	0.0987	-0.182
Mof_O 	O 	0.1212	0.8764	0.1973	-0.178
Mof_O 	O 	0.0115	0.6262	0.8418	-0.176
Mof_O 	O 	0.9413	0.7888	0.8721	-0.165
Mof_C 	C 	0.101	0.8848	0.1284	0.273
Mof_C 	C 	0.0948	0.7836	0.0811	-0.041
Mof_C 	C 	0.0541	0.7905	0.0078	-0.005
Mof_H 	H 	0.0293	0.8592	0.9889	0.082
Mof_C 	C 	0.0497	0.6982	0.9629	-0.035
Mof_C 	C 	0.0897	0.5983	0.9902	-0.01
Mof_H 	H 	0.0914	0.5357	0.9583	0.065
Mof_C 	C 	0.1269	0.5898	0.0634	-0.042
Mof_H 	H 	0.1512	0.521	0.0825	0.085
Mof_C 	C 	0.1282	0.6829	0.1091	-0.006
Mof_H 	H 	0.1522	0.6772	0.1597	0.076
Mof_C 	C 	0.9979	0.7049	0.8864	0.276
Mof_Np	Np	0.57858	0.89685	0.7213	0.025
Mof_O 	O 	0.5972	0.7463	0.7048	-0.041
Mof_O 	O 	0.4782	0.914	0.5987	-0.182
Mof_O 	O 	0.3764	0.8788	0.6973	-0.178
Mof_O 	O 	0.1262	0.9885	0.3418	-0.176
Mof_O 	O 	0.2888	0.0587	0.3721	-0.164
Mof_C 	C 	0.3848	0.899	0.6284	0.272
Mof_C 	C 	0.2836	0.9052	0.5811	-0.041
Mof_C 	C 	0.2905	0.9459	0.5078	-0.006
Mof_H 	H 	0.3592	0.9707	0.4889	0.082
Mof_C 	C 	0.1982	0.9503	0.4629	-0.034
Mof_C 	C 	0.0983	0.9103	0.4902	-0.01
Mof_H 	H 	0.0357	0.9086	0.4583	0.065
Mof_C 	C 	0.0898	0.8731	0.5634	-0.042
Mof_H 	H 	0.021	0.8488	0.5825	0.085
Mof_C 	C 	0.1829	0.8718	0.6091	-0.006
Mof_H 	H 	0.1772	0.8478	0.6597	0.076
Mof_C 	C 	0.2049	0.0021	0.3864	0.275
Mof_Np	Np	0.92142	0.60315	0.7213	0.025
Mof_O 	O 	0.9028	0.7537	0.7048	-0.042
Mof_O 	O 	0.0218	0.586	0.5987	-0.182
Mof_O 	O 	0.1236	0.6212	0.6973	-0.178
Mof_O 	O 	0.3738	0.5115	0.3418	-0.177
Mof_O 	O 	0.2112	0.4413	0.3721	-0.165
Mof_C 	C 	0.1152	0.601	0.6284	0.273
Mof_C 	C 	0.2164	0.5948	0.5811	-0.041
Mof_C 	C 	0.2095	0.5541	0.5078	-0.005
Mof_H 	H 	0.1408	0.5293	0.4889	0.082
Mof_C 	C 	0.3018	0.5497	0.4629	-0.036
Mof_C 	C 	0.4017	0.5897	0.4902	-0.01
Mof_H 	H 	0.4643	0.5914	0.4583	0.065
Mof_C 	C 	0.4102	0.6269	0.5634	-0.042
Mof_H 	H 	0.479	0.6512	0.5825	0.085
Mof_C 	C 	0.3171	0.6282	0.6091	-0.006
Mof_H 	H 	0.3228	0.6522	0.6597	0.076
Mof_C 	C 	0.2951	0.4979	0.3864	0.277
Mof_Np	Np	0.60315	0.57858	0.7787	0.025
Mof_O 	O 	0.7537	0.5972	0.7952	-0.041
Mof_O 	O 	0.586	0.4782	0.9013	-0.182
Mof_O 	O 	0.6212	0.3764	0.8027	-0.178
Mof_O 	O 	0.5115	0.1262	0.1582	-0.177
Mof_O 	O 	0.4413	0.2888	0.1279	-0.165
Mof_C 	C 	0.601	0.3848	0.8716	0.273
Mof_C 	C 	0.5948	0.2836	0.9189	-0.042
Mof_C 	C 	0.5541	0.2905	0.9922	-0.004
Mof_H 	H 	0.5293	0.3592	0.0111	0.081
Mof_C 	C 	0.5497	0.1982	0.0371	-0.036
Mof_C 	C 	0.5897	0.0983	0.0098	-0.01
Mof_H 	H 	0.5914	0.0357	0.0417	0.065
Mof_C 	C 	0.6269	0.0898	0.9366	-0.042
Mof_H 	H 	0.6512	0.021	0.9175	0.085
Mof_C 	C 	0.6282	0.1829	0.8909	-0.006
Mof_H 	H 	0.6522	0.1772	0.8403	0.076
Mof_C 	C 	0.4979	0.2049	0.1136	0.277
Mof_Np	Np	0.89685	0.92142	0.7787	0.024
Mof_O 	O 	0.7463	0.9028	0.7952	-0.042
Mof_O 	O 	0.914	0.0218	0.9013	-0.182
Mof_O 	O 	0.8788	0.1236	0.8027	-0.178
Mof_O 	O 	0.9885	0.3738	0.1582	-0.176
Mof_O 	O 	0.0587	0.2112	0.1279	-0.165
Mof_C 	C 	0.899	0.1152	0.8716	0.273
Mof_C 	C 	0.9052	0.2164	0.9189	-0.041
Mof_C 	C 	0.9459	0.2095	0.9922	-0.005
Mof_H 	H 	0.9707	0.1408	0.0111	0.082
Mof_C 	C 	0.9503	0.3018	0.0371	-0.035
Mof_C 	C 	0.9103	0.4017	0.0098	-0.01
Mof_H 	H 	0.9086	0.4643	0.0417	0.065
Mof_C 	C 	0.8731	0.4102	0.9366	-0.042
Mof_H 	H 	0.8488	0.479	0.9175	0.085
Mof_C 	C 	0.8718	0.3171	0.8909	-0.006
Mof_H 	H 	0.8478	0.3228	0.8403	0.076
Mof_C 	C 	0.0021	0.2951	0.1136	0.276
Mof_Np	Np	0.42142	0.10315	0.2787	0.025
Mof_O 	O 	0.4028	0.2537	0.2952	-0.041
Mof_O 	O 	0.5218	0.086	0.4013	-0.182
Mof_O 	O 	0.6236	0.1212	0.3027	-0.178
Mof_O 	O 	0.8738	0.0115	0.6582	-0.176
Mof_O 	O 	0.7112	0.9413	0.6279	-0.164
Mof_C 	C 	0.6152	0.101	0.3716	0.272
Mof_C 	C 	0.7164	0.0948	0.4189	-0.041
Mof_C 	C 	0.7095	0.0541	0.4922	-0.006
Mof_H 	H 	0.6408	0.0293	0.5111	0.082
Mof_C 	C 	0.8018	0.0497	0.5371	-0.034
Mof_C 	C 	0.9017	0.0897	0.5098	-0.01
Mof_H 	H 	0.9643	0.0914	0.5417	0.065
Mof_C 	C 	0.9102	0.1269	0.4366	-0.042
Mof_H 	H 	0.979	0.1512	0.4175	0.085
Mof_C 	C 	0.8171	0.1282	0.3909	-0.006
Mof_H 	H 	0.8228	0.1522	0.3403	0.076
Mof_C 	C 	0.7951	0.9979	0.6136	0.275
Mof_Np	Np	0.07858	0.39685	0.2787	0.025
Mof_O 	O 	0.0972	0.2463	0.2952	-0.042
Mof_O 	O 	0.9782	0.414	0.4013	-0.182
Mof_O 	O 	0.8764	0.3788	0.3027	-0.178
Mof_O 	O 	0.6262	0.4885	0.6582	-0.177
Mof_O 	O 	0.7888	0.5587	0.6279	-0.165
Mof_C 	C 	0.8848	0.399	0.3716	0.273
Mof_C 	C 	0.7836	0.4052	0.4189	-0.041
Mof_C 	C 	0.7905	0.4459	0.4922	-0.005
Mof_H 	H 	0.8592	0.4707	0.5111	0.082
Mof_C 	C 	0.6982	0.4503	0.5371	-0.036
Mof_C 	C 	0.5983	0.4103	0.5098	-0.01
Mof_H 	H 	0.5357	0.4086	0.5417	0.065
Mof_C 	C 	0.5898	0.3731	0.4366	-0.042
Mof_H 	H 	0.521	0.3488	0.4175	0.085
Mof_C 	C 	0.6829	0.3718	0.3909	-0.006
Mof_H 	H 	0.6772	0.3478	0.3403	0.076
Mof_C 	C 	0.7049	0.5021	0.6136	0.277
_end
