data_functionalizedCrystal
_audit_creation_method	'EQeq! by Chris Wilmer'
_symmetry_space_group_name_H-M	'P1'
_symmetry_Int_Tables_number	1
_symmetry_cell_setting	triclinic
loop_
_symmetry_equiv_pos_as_xyz
  x,y,z
_cell_length_a	10.2354
_cell_length_b	15.455
_cell_length_c	17.536
_cell_angle_alpha	90
_cell_angle_beta	98.718
_cell_angle_gamma	90
loop_
_atom_site_label
_atom_site_type_symbol
_atom_site_fract_x
_atom_site_fract_y
_atom_site_fract_z
_atom_site_charge
Mof_Ba	Ba	0.1806	0.03334	0.45055	1.888
Mof_V 	V 	0.19515	0.40097	0.34085	1.793
Mof_O 	O 	0.00362	0.37283	0.34102	-0.674
Mof_O 	O 	0.82274	0.4052	0.39242	-0.462
Mof_O 	O 	0.12968	0.50502	0.41216	-0.484
Mof_O 	O 	0.93914	0.56433	0.43419	-0.301
Mof_O 	O 	0.02063	0.07367	0.16461	-0.578
Mof_O 	O 	0.13332	0.96225	0.12949	-0.595
Mof_O 	O 	0.2235	0.1035	0.28506	-0.392
Mof_O 	O 	0.33304	0.9944	0.23928	-0.458
Mof_O 	O 	0.23701	0.34349	0.44436	-0.631
Mof_O 	O 	0.15897	0.21016	0.4146	-0.488
Mof_O 	O 	0.22843	0.32087	0.28877	-0.677
Mof_O 	O 	0.0611	0.88167	0.4992	-0.968
Mof_H 	H 	0.045	0.845	0.468	0.35
Mof_H 	H 	0.105	0.848	0.531	0.303
Mof_C 	C 	0.9348	0.42175	0.37877	0.45
Mof_C 	C 	0.006	0.50589	0.41108	0.082
Mof_C 	C 	0.1191	0.02742	0.17277	0.269
Mof_C 	C 	0.235	0.04527	0.23893	0.192
Mof_C 	C 	0.2189	0.26379	0.45881	0.294
Mof_Ba	Ba	0.6806	0.53334	0.45055	1.982
Mof_V 	V 	0.69515	0.90097	0.34085	1.792
Mof_O 	O 	0.50362	0.87283	0.34102	-0.595
Mof_O 	O 	0.32274	0.9052	0.39242	-0.432
Mof_O 	O 	0.62968	0.00502	0.41216	-0.52
Mof_O 	O 	0.43914	0.06433	0.43419	-0.387
Mof_O 	O 	0.52063	0.57367	0.16461	-0.549
Mof_O 	O 	0.63332	0.46225	0.12949	-0.585
Mof_O 	O 	0.7235	0.6035	0.28506	-0.393
Mof_O 	O 	0.83304	0.4944	0.23928	-0.448
Mof_O 	O 	0.73701	0.84349	0.44436	-0.632
Mof_O 	O 	0.65897	0.71016	0.4146	-0.487
Mof_O 	O 	0.72843	0.82087	0.28877	-0.673
Mof_O 	O 	0.5611	0.38167	0.4992	-0.953
Mof_H 	H 	0.545	0.345	0.468	0.369
Mof_H 	H 	0.605	0.348	0.531	0.31
Mof_C 	C 	0.4348	0.92175	0.37877	0.288
Mof_C 	C 	0.506	0.00589	0.41108	0.252
Mof_C 	C 	0.6191	0.52742	0.17277	0.275
Mof_C 	C 	0.735	0.54527	0.23893	0.202
Mof_C 	C 	0.7189	0.76379	0.45881	0.303
Mof_Ba	Ba	0.8194	0.03334	0.04945	2.026
Mof_V 	V 	0.80485	0.40097	0.15915	1.793
Mof_O 	O 	0.99638	0.37283	0.15898	-0.486
Mof_O 	O 	0.17726	0.4052	0.10758	-0.394
Mof_O 	O 	0.87032	0.50502	0.08784	-0.551
Mof_O 	O 	0.06086	0.56433	0.06581	-0.485
Mof_O 	O 	0.97937	0.07367	0.33539	-0.489
Mof_O 	O 	0.86668	0.96225	0.37051	-0.562
Mof_O 	O 	0.7765	0.1035	0.21494	-0.378
Mof_O 	O 	0.66696	0.9944	0.26072	-0.46
Mof_O 	O 	0.76299	0.34349	0.05564	-0.628
Mof_O 	O 	0.84103	0.21016	0.0854	-0.46
Mof_O 	O 	0.77157	0.32087	0.21123	-0.661
Mof_O 	O 	0.9389	0.88167	0.0008	-0.922
Mof_H 	H 	0.955	0.845	0.032	0.38
Mof_H 	H 	0.895	0.848	0.969	0.306
Mof_C 	C 	0.0652	0.42175	0.12123	0.115
Mof_C 	C 	0.994	0.50589	0.08892	0.428
Mof_C 	C 	0.8809	0.02742	0.32723	0.265
Mof_C 	C 	0.765	0.04527	0.26107	0.206
Mof_C 	C 	0.7811	0.26379	0.04119	0.288
Mof_Ba	Ba	0.3194	0.53334	0.04945	1.953
Mof_V 	V 	0.30485	0.90097	0.15915	1.792
Mof_O 	O 	0.49638	0.87283	0.15898	-0.593
Mof_O 	O 	0.67726	0.9052	0.10758	-0.427
Mof_O 	O 	0.37032	0.00502	0.08784	-0.515
Mof_O 	O 	0.56086	0.06433	0.06581	-0.398
Mof_O 	O 	0.47937	0.57367	0.33539	-0.552
Mof_O 	O 	0.36668	0.46225	0.37051	-0.586
Mof_O 	O 	0.2765	0.6035	0.21494	-0.405
Mof_O 	O 	0.16696	0.4944	0.26072	-0.479
Mof_O 	O 	0.26299	0.84349	0.05564	-0.629
Mof_O 	O 	0.34103	0.71016	0.0854	-0.485
Mof_O 	O 	0.27157	0.82087	0.21123	-0.692
Mof_O 	O 	0.4389	0.38167	0.0008	-0.958
Mof_H 	H 	0.455	0.345	0.032	0.366
Mof_H 	H 	0.395	0.348	0.969	0.308
Mof_C 	C 	0.5652	0.92175	0.12123	0.293
Mof_C 	C 	0.494	0.00589	0.08892	0.248
Mof_C 	C 	0.3809	0.52742	0.32723	0.271
Mof_C 	C 	0.265	0.54527	0.26107	0.204
Mof_C 	C 	0.2811	0.76379	0.04119	0.296
Mof_Ba	Ba	0.8194	0.96666	0.54945	2.05
Mof_V 	V 	0.80485	0.59903	0.65915	1.793
Mof_O 	O 	0.99638	0.62717	0.65898	-0.484
Mof_O 	O 	0.17726	0.5948	0.60758	-0.393
Mof_O 	O 	0.87032	0.49498	0.58784	-0.551
Mof_O 	O 	0.06086	0.43567	0.56581	-0.486
Mof_O 	O 	0.97937	0.92633	0.83539	-0.487
Mof_O 	O 	0.86668	0.03775	0.87051	-0.557
Mof_O 	O 	0.7765	0.8965	0.71494	-0.379
Mof_O 	O 	0.66696	0.0056	0.76072	-0.46
Mof_O 	O 	0.76299	0.65651	0.55564	-0.628
Mof_O 	O 	0.84103	0.78984	0.5854	-0.461
Mof_O 	O 	0.77157	0.67913	0.71123	-0.661
Mof_O 	O 	0.9389	0.11833	0.5008	-0.938
Mof_H 	H 	0.955	0.155	0.532	0.384
Mof_H 	H 	0.895	0.152	0.469	0.314
Mof_C 	C 	0.0652	0.57825	0.62123	0.114
Mof_C 	C 	0.994	0.49411	0.58892	0.43
Mof_C 	C 	0.8809	0.97258	0.82723	0.259
Mof_C 	C 	0.765	0.95473	0.76107	0.207
Mof_C 	C 	0.7811	0.73621	0.54119	0.294
Mof_Ba	Ba	0.3194	0.46666	0.54945	1.952
Mof_V 	V 	0.30485	0.09903	0.65915	1.792
Mof_O 	O 	0.49638	0.12717	0.65898	-0.593
Mof_O 	O 	0.67726	0.0948	0.60758	-0.43
Mof_O 	O 	0.37032	0.99498	0.58784	-0.514
Mof_O 	O 	0.56086	0.93567	0.56581	-0.398
Mof_O 	O 	0.47937	0.42633	0.83539	-0.552
Mof_O 	O 	0.36668	0.53775	0.87051	-0.586
Mof_O 	O 	0.2765	0.3965	0.71494	-0.405
Mof_O 	O 	0.16696	0.5056	0.76072	-0.479
Mof_O 	O 	0.26299	0.15651	0.55564	-0.632
Mof_O 	O 	0.34103	0.28984	0.5854	-0.484
Mof_O 	O 	0.27157	0.17913	0.71123	-0.692
Mof_O 	O 	0.4389	0.61833	0.5008	-0.951
Mof_H 	H 	0.455	0.655	0.532	0.365
Mof_H 	H 	0.395	0.652	0.469	0.302
Mof_C 	C 	0.5652	0.07825	0.62123	0.288
Mof_C 	C 	0.494	0.99411	0.58892	0.253
Mof_C 	C 	0.3809	0.47258	0.82723	0.271
Mof_C 	C 	0.265	0.45473	0.76107	0.204
Mof_C 	C 	0.2811	0.23621	0.54119	0.293
Mof_Ba	Ba	0.1806	0.96666	0.95055	1.868
Mof_V 	V 	0.19515	0.59903	0.84085	1.792
Mof_O 	O 	0.00362	0.62717	0.84102	-0.674
Mof_O 	O 	0.82274	0.5948	0.89242	-0.462
Mof_O 	O 	0.12968	0.49498	0.91216	-0.483
Mof_O 	O 	0.93914	0.43567	0.93419	-0.301
Mof_O 	O 	0.02063	0.92633	0.66461	-0.58
Mof_O 	O 	0.13332	0.03775	0.62949	-0.6
Mof_O 	O 	0.2235	0.8965	0.78506	-0.391
Mof_O 	O 	0.33304	0.0056	0.73928	-0.457
Mof_O 	O 	0.23701	0.65651	0.94436	-0.631
Mof_O 	O 	0.15897	0.78984	0.9146	-0.487
Mof_O 	O 	0.22843	0.67913	0.78877	-0.677
Mof_O 	O 	0.0611	0.11833	0.9992	-0.945
Mof_H 	H 	0.045	0.155	0.968	0.346
Mof_H 	H 	0.105	0.152	0.031	0.291
Mof_C 	C 	0.9348	0.57825	0.87877	0.45
Mof_C 	C 	0.006	0.49411	0.91108	0.082
Mof_C 	C 	0.1191	0.97258	0.67277	0.274
Mof_C 	C 	0.235	0.95473	0.73893	0.191
Mof_C 	C 	0.2189	0.73621	0.95881	0.29
Mof_Ba	Ba	0.6806	0.46666	0.95055	1.986
Mof_V 	V 	0.69515	0.09903	0.84085	1.793
Mof_O 	O 	0.50362	0.12717	0.84102	-0.596
Mof_O 	O 	0.32274	0.0948	0.89242	-0.429
Mof_O 	O 	0.62968	0.99498	0.91216	-0.52
Mof_O 	O 	0.43914	0.93567	0.93419	-0.386
Mof_O 	O 	0.52063	0.42633	0.66461	-0.55
Mof_O 	O 	0.63332	0.53775	0.62949	-0.585
Mof_O 	O 	0.7235	0.3965	0.78506	-0.393
Mof_O 	O 	0.83304	0.5056	0.73928	-0.448
Mof_O 	O 	0.73701	0.15651	0.94436	-0.628
Mof_O 	O 	0.65897	0.28984	0.9146	-0.488
Mof_O 	O 	0.72843	0.17913	0.78877	-0.674
Mof_O 	O 	0.5611	0.61833	0.9992	-0.955
Mof_H 	H 	0.545	0.655	0.968	0.369
Mof_H 	H 	0.605	0.652	0.031	0.312
Mof_C 	C 	0.4348	0.07825	0.87877	0.294
Mof_C 	C 	0.506	0.99411	0.91108	0.247
Mof_C 	C 	0.6191	0.47258	0.67277	0.275
Mof_C 	C 	0.735	0.45473	0.73893	0.202
Mof_C 	C 	0.7189	0.23621	0.95881	0.309
Mof_Ba	Ba	-1.03656e-17	0.21819	0.25	1.726
Mof_Ba	Ba	0.5	0.71819	0.25	1.89
Mof_Ba	Ba	5.54804e-33	0.78181	0.75	1.724
Mof_Ba	Ba	0.5	0.28181	0.75	1.89
_end
