data_functionalizedCrystal
_audit_creation_method	'EQeq! by Chris Wilmer'
_symmetry_space_group_name_H-M	'P1'
_symmetry_Int_Tables_number	1
_symmetry_cell_setting	triclinic
loop_
_symmetry_equiv_pos_as_xyz
  x,y,z
_cell_length_a	24.623
_cell_length_b	12.866
_cell_length_c	14.868
_cell_angle_alpha	90
_cell_angle_beta	96.78
_cell_angle_gamma	90
loop_
_atom_site_label
_atom_site_type_symbol
_atom_site_fract_x
_atom_site_fract_y
_atom_site_fract_z
_atom_site_charge
Mof_Eu	Eu	0.67217	0.79764	0.46679	2.062
Mof_O 	O 	0.30739	0.7414	0.88105	-0.517
Mof_O 	O 	0.22886	0.6528	0.8531	-0.561
Mof_O 	O 	0.27461	0.355	0.53957	-0.618
Mof_O 	O 	0.20259	0.4495	0.558	-0.494
Mof_O 	O 	0.58707	0.8312	0.5365	-0.453
Mof_O 	O 	0.60086	0.6694	0.4986	-0.451
Mof_C 	C 	0.2978	0.6273	0.7567	-0.186
Mof_C 	C 	0.26595	0.5578	0.7025	0.107
Mof_H 	H 	0.2301	0.5446	0.7132	-0.002
Mof_C 	C 	0.28763	0.5077	0.6318	-0.185
Mof_C 	C 	0.34099	0.529	0.6146	0.047
Mof_H 	H 	0.3559	0.4928	0.5693	0.011
Mof_C 	C 	0.37216	0.6041	0.6649	-0.087
Mof_C 	C 	0.35016	0.6518	0.7372	0.056
Mof_H 	H 	0.3708	0.7004	0.7727	0.022
Mof_C 	C 	0.4263	0.6363	0.6395	0.104
Mof_C 	C 	0.44156	0.7409	0.6431	-0.151
Mof_H 	H 	0.4191	0.7897	0.6664	0.075
Mof_C 	C 	0.4903	0.7726	0.6121	0.059
Mof_H 	H 	0.5002	0.8424	0.6154	0.009
Mof_C 	C 	0.52377	0.7021	0.5769	-0.128
Mof_C 	C 	0.51007	0.5985	0.5775	0.059
Mof_H 	H 	0.5336	0.5495	0.5573	0.018
Mof_C 	C 	0.46138	0.5656	0.608	-0.154
Mof_H 	H 	0.4526	0.4953	0.607	0.082
Mof_C 	C 	0.27629	0.6777	0.8373	0.495
Mof_C 	C 	0.25266	0.4324	0.5732	0.453
Mof_C 	C 	0.57362	0.7359	0.5347	0.335
Mof_Eu	Eu	0.17217	0.29764	0.46679	2.062
Mof_O 	O 	0.80739	0.2414	0.88105	-0.519
Mof_O 	O 	0.72886	0.1528	0.8531	-0.562
Mof_O 	O 	0.77461	0.855	0.53957	-0.619
Mof_O 	O 	0.70259	0.9495	0.558	-0.495
Mof_O 	O 	0.08707	0.3312	0.5365	-0.454
Mof_O 	O 	0.10086	0.1694	0.4986	-0.452
Mof_C 	C 	0.7978	0.1273	0.7567	-0.187
Mof_C 	C 	0.76595	0.0578	0.7025	0.108
Mof_H 	H 	0.7301	0.0446	0.7132	-0.003
Mof_C 	C 	0.78763	0.0077	0.6318	-0.186
Mof_C 	C 	0.84099	0.029	0.6146	0.046
Mof_H 	H 	0.8559	0.9928	0.5693	0.011
Mof_C 	C 	0.87216	0.1041	0.6649	-0.087
Mof_C 	C 	0.85016	0.1518	0.7372	0.056
Mof_H 	H 	0.8708	0.2004	0.7727	0.022
Mof_C 	C 	0.9263	0.1363	0.6395	0.104
Mof_C 	C 	0.94156	0.2409	0.6431	-0.152
Mof_H 	H 	0.9191	0.2897	0.6664	0.076
Mof_C 	C 	0.9903	0.2726	0.6121	0.06
Mof_H 	H 	0.0002	0.3424	0.6154	0.009
Mof_C 	C 	0.02377	0.2021	0.5769	-0.129
Mof_C 	C 	0.01007	0.0985	0.5775	0.059
Mof_H 	H 	0.0336	0.0495	0.5573	0.018
Mof_C 	C 	0.96138	0.0656	0.608	-0.155
Mof_H 	H 	0.9526	0.9953	0.607	0.082
Mof_C 	C 	0.77629	0.1777	0.8373	0.495
Mof_C 	C 	0.75266	0.9324	0.5732	0.454
Mof_C 	C 	0.07362	0.2359	0.5347	0.335
Mof_Eu	Eu	0.32783	0.79764	0.03321	2.059
Mof_O 	O 	0.69261	0.7414	0.61895	-0.518
Mof_O 	O 	0.77114	0.6528	0.6469	-0.562
Mof_O 	O 	0.72539	0.355	0.96043	-0.619
Mof_O 	O 	0.79741	0.4495	0.942	-0.494
Mof_O 	O 	0.41293	0.8312	0.9635	-0.453
Mof_O 	O 	0.39914	0.6694	0.0014	-0.453
Mof_C 	C 	0.7022	0.6273	0.7433	-0.186
Mof_C 	C 	0.73405	0.5578	0.7975	0.107
Mof_H 	H 	0.7699	0.5446	0.7868	-0.002
Mof_C 	C 	0.71237	0.5077	0.8682	-0.185
Mof_C 	C 	0.65901	0.529	0.8854	0.047
Mof_H 	H 	0.6441	0.4928	0.9307	0.011
Mof_C 	C 	0.62784	0.6041	0.8351	-0.087
Mof_C 	C 	0.64984	0.6518	0.7628	0.056
Mof_H 	H 	0.6292	0.7004	0.7273	0.022
Mof_C 	C 	0.5737	0.6363	0.8605	0.104
Mof_C 	C 	0.55844	0.7409	0.8569	-0.151
Mof_H 	H 	0.5809	0.7897	0.8336	0.076
Mof_C 	C 	0.5097	0.7726	0.8879	0.059
Mof_H 	H 	0.4998	0.8424	0.8846	0.01
Mof_C 	C 	0.47623	0.7021	0.9231	-0.128
Mof_C 	C 	0.48993	0.5985	0.9225	0.059
Mof_H 	H 	0.4664	0.5495	0.9427	0.018
Mof_C 	C 	0.53862	0.5656	0.892	-0.154
Mof_H 	H 	0.5474	0.4953	0.893	0.082
Mof_C 	C 	0.72371	0.6777	0.6627	0.495
Mof_C 	C 	0.74734	0.4324	0.9268	0.453
Mof_C 	C 	0.42638	0.7359	0.9653	0.335
Mof_Eu	Eu	0.82783	0.29764	0.03321	2.062
Mof_O 	O 	0.19261	0.2414	0.61895	-0.519
Mof_O 	O 	0.27114	0.1528	0.6469	-0.562
Mof_O 	O 	0.22539	0.855	0.96043	-0.619
Mof_O 	O 	0.29741	0.9495	0.942	-0.494
Mof_O 	O 	0.91293	0.3312	0.9635	-0.453
Mof_O 	O 	0.89914	0.1694	0.0014	-0.452
Mof_C 	C 	0.2022	0.1273	0.7433	-0.187
Mof_C 	C 	0.23405	0.0578	0.7975	0.108
Mof_H 	H 	0.2699	0.0446	0.7868	-0.003
Mof_C 	C 	0.21237	0.0077	0.8682	-0.186
Mof_C 	C 	0.15901	0.029	0.8854	0.044
Mof_H 	H 	0.1441	0.9928	0.9307	0.013
Mof_C 	C 	0.12784	0.1041	0.8351	-0.087
Mof_C 	C 	0.14984	0.1518	0.7628	0.056
Mof_H 	H 	0.1292	0.2004	0.7273	0.022
Mof_C 	C 	0.0737	0.1363	0.8605	0.105
Mof_C 	C 	0.05844	0.2409	0.8569	-0.15
Mof_H 	H 	0.0809	0.2897	0.8336	0.075
Mof_C 	C 	0.0097	0.2726	0.8879	0.056
Mof_H 	H 	0.9998	0.3424	0.8846	0.011
Mof_C 	C 	0.97623	0.2021	0.9231	-0.127
Mof_C 	C 	0.98993	0.0985	0.9225	0.061
Mof_H 	H 	0.9664	0.0495	0.9427	0.017
Mof_C 	C 	0.03862	0.0656	0.892	-0.159
Mof_H 	H 	0.0474	0.9953	0.893	0.084
Mof_C 	C 	0.22371	0.1777	0.6627	0.495
Mof_C 	C 	0.24734	0.9324	0.9268	0.454
Mof_C 	C 	0.92638	0.2359	0.9653	0.334
Mof_Eu	Eu	0.32783	0.20236	0.53321	2.061
Mof_O 	O 	0.69261	0.2586	0.11895	-0.518
Mof_O 	O 	0.77114	0.3472	0.1469	-0.562
Mof_O 	O 	0.72539	0.645	0.46043	-0.619
Mof_O 	O 	0.79741	0.5505	0.442	-0.495
Mof_O 	O 	0.41293	0.1688	0.4635	-0.454
Mof_O 	O 	0.39914	0.3306	0.5014	-0.452
Mof_C 	C 	0.7022	0.3727	0.2433	-0.187
Mof_C 	C 	0.73405	0.4422	0.2975	0.107
Mof_H 	H 	0.7699	0.4554	0.2868	-0.002
Mof_C 	C 	0.71237	0.4923	0.3682	-0.185
Mof_C 	C 	0.65901	0.471	0.3854	0.047
Mof_H 	H 	0.6441	0.5072	0.4307	0.011
Mof_C 	C 	0.62784	0.3959	0.3351	-0.087
Mof_C 	C 	0.64984	0.3482	0.2628	0.056
Mof_H 	H 	0.6292	0.2996	0.2273	0.022
Mof_C 	C 	0.5737	0.3637	0.3605	0.104
Mof_C 	C 	0.55844	0.2591	0.3569	-0.151
Mof_H 	H 	0.5809	0.2103	0.3336	0.075
Mof_C 	C 	0.5097	0.2274	0.3879	0.059
Mof_H 	H 	0.4998	0.1576	0.3846	0.009
Mof_C 	C 	0.47623	0.2979	0.4231	-0.128
Mof_C 	C 	0.48993	0.4015	0.4225	0.059
Mof_H 	H 	0.4664	0.4505	0.4427	0.018
Mof_C 	C 	0.53862	0.4344	0.392	-0.154
Mof_H 	H 	0.5474	0.5047	0.393	0.082
Mof_C 	C 	0.72371	0.3223	0.1627	0.495
Mof_C 	C 	0.74734	0.5676	0.4268	0.453
Mof_C 	C 	0.42638	0.2641	0.4653	0.335
Mof_Eu	Eu	0.82783	0.70236	0.53321	2.062
Mof_O 	O 	0.19261	0.7586	0.11895	-0.519
Mof_O 	O 	0.27114	0.8472	0.1469	-0.562
Mof_O 	O 	0.22539	0.145	0.46043	-0.619
Mof_O 	O 	0.29741	0.0505	0.442	-0.495
Mof_O 	O 	0.91293	0.6688	0.4635	-0.454
Mof_O 	O 	0.89914	0.8306	0.5014	-0.452
Mof_C 	C 	0.2022	0.8727	0.2433	-0.187
Mof_C 	C 	0.23405	0.9422	0.2975	0.108
Mof_H 	H 	0.2699	0.9554	0.2868	-0.003
Mof_C 	C 	0.21237	0.9923	0.3682	-0.186
Mof_C 	C 	0.15901	0.971	0.3854	0.046
Mof_H 	H 	0.1441	0.0072	0.4307	0.011
Mof_C 	C 	0.12784	0.8959	0.3351	-0.087
Mof_C 	C 	0.14984	0.8482	0.2628	0.056
Mof_H 	H 	0.1292	0.7996	0.2273	0.022
Mof_C 	C 	0.0737	0.8637	0.3605	0.104
Mof_C 	C 	0.05844	0.7591	0.3569	-0.152
Mof_H 	H 	0.0809	0.7103	0.3336	0.076
Mof_C 	C 	0.0097	0.7274	0.3879	0.06
Mof_H 	H 	0.9998	0.6576	0.3846	0.009
Mof_C 	C 	0.97623	0.7979	0.4231	-0.129
Mof_C 	C 	0.98993	0.9015	0.4225	0.059
Mof_H 	H 	0.9664	0.9505	0.4427	0.018
Mof_C 	C 	0.03862	0.9344	0.392	-0.155
Mof_H 	H 	0.0474	0.0047	0.393	0.082
Mof_C 	C 	0.22371	0.8223	0.1627	0.495
Mof_C 	C 	0.24734	0.0676	0.4268	0.454
Mof_C 	C 	0.92638	0.7641	0.4653	0.335
Mof_Eu	Eu	0.67217	0.20236	0.96679	2.059
Mof_O 	O 	0.30739	0.2586	0.38105	-0.518
Mof_O 	O 	0.22886	0.3472	0.3531	-0.562
Mof_O 	O 	0.27461	0.645	0.03957	-0.619
Mof_O 	O 	0.20259	0.5505	0.058	-0.494
Mof_O 	O 	0.58707	0.1688	0.0365	-0.453
Mof_O 	O 	0.60086	0.3306	0.9986	-0.453
Mof_C 	C 	0.2978	0.3727	0.2567	-0.186
Mof_C 	C 	0.26595	0.4422	0.2025	0.107
Mof_H 	H 	0.2301	0.4554	0.2132	-0.002
Mof_C 	C 	0.28763	0.4923	0.1318	-0.185
Mof_C 	C 	0.34099	0.471	0.1146	0.047
Mof_H 	H 	0.3559	0.5072	0.0693	0.011
Mof_C 	C 	0.37216	0.3959	0.1649	-0.087
Mof_C 	C 	0.35016	0.3482	0.2372	0.056
Mof_H 	H 	0.3708	0.2996	0.2727	0.022
Mof_C 	C 	0.4263	0.3637	0.1395	0.104
Mof_C 	C 	0.44156	0.2591	0.1431	-0.151
Mof_H 	H 	0.4191	0.2103	0.1664	0.076
Mof_C 	C 	0.4903	0.2274	0.1121	0.059
Mof_H 	H 	0.5002	0.1576	0.1154	0.01
Mof_C 	C 	0.52377	0.2979	0.0769	-0.128
Mof_C 	C 	0.51007	0.4015	0.0775	0.059
Mof_H 	H 	0.5336	0.4505	0.0573	0.018
Mof_C 	C 	0.46138	0.4344	0.108	-0.154
Mof_H 	H 	0.4526	0.5047	0.107	0.082
Mof_C 	C 	0.27629	0.3223	0.3373	0.495
Mof_C 	C 	0.25266	0.5676	0.0732	0.453
Mof_C 	C 	0.57362	0.2641	0.0347	0.335
Mof_Eu	Eu	0.17217	0.70236	0.96679	2.062
Mof_O 	O 	0.80739	0.7586	0.38105	-0.519
Mof_O 	O 	0.72886	0.8472	0.3531	-0.562
Mof_O 	O 	0.77461	0.145	0.03957	-0.619
Mof_O 	O 	0.70259	0.0505	0.058	-0.494
Mof_O 	O 	0.08707	0.6688	0.0365	-0.453
Mof_O 	O 	0.10086	0.8306	0.9986	-0.452
Mof_C 	C 	0.7978	0.8727	0.2567	-0.187
Mof_C 	C 	0.76595	0.9422	0.2025	0.108
Mof_H 	H 	0.7301	0.9554	0.2132	-0.003
Mof_C 	C 	0.78763	0.9923	0.1318	-0.186
Mof_C 	C 	0.84099	0.971	0.1146	0.044
Mof_H 	H 	0.8559	0.0072	0.0693	0.013
Mof_C 	C 	0.87216	0.8959	0.1649	-0.087
Mof_C 	C 	0.85016	0.8482	0.2372	0.056
Mof_H 	H 	0.8708	0.7996	0.2727	0.022
Mof_C 	C 	0.9263	0.8637	0.1395	0.105
Mof_C 	C 	0.94156	0.7591	0.1431	-0.15
Mof_H 	H 	0.9191	0.7103	0.1664	0.075
Mof_C 	C 	0.9903	0.7274	0.1121	0.056
Mof_H 	H 	0.0002	0.6576	0.1154	0.011
Mof_C 	C 	0.02377	0.7979	0.0769	-0.127
Mof_C 	C 	0.01007	0.9015	0.0775	0.061
Mof_H 	H 	0.0336	0.9505	0.0573	0.017
Mof_C 	C 	0.96138	0.9344	0.108	-0.159
Mof_H 	H 	0.9526	0.0047	0.107	0.084
Mof_C 	C 	0.77629	0.8223	0.3373	0.495
Mof_C 	C 	0.75266	0.0676	0.0732	0.454
Mof_C 	C 	0.07362	0.7641	0.0347	0.334
_end
