data_functionalizedCrystal
_audit_creation_method	'EQeq! by Chris Wilmer'
_symmetry_space_group_name_H-M	'P1'
_symmetry_Int_Tables_number	1
_symmetry_cell_setting	triclinic
loop_
_symmetry_equiv_pos_as_xyz
  x,y,z
_cell_length_a	19.4356
_cell_length_b	19.4356
_cell_length_c	27.893
_cell_angle_alpha	90
_cell_angle_beta	90
_cell_angle_gamma	120
loop_
_atom_site_label
_atom_site_type_symbol
_atom_site_fract_x
_atom_site_fract_y
_atom_site_fract_z
_atom_site_charge
Mof_In	In	0.36401	0.78283	0.25	2.514
Mof_In	In	0.41882	0.63599	0.25	2.514
Mof_In	In	0.21717	0.58118	0.25	2.514
Mof_In	In	0.58118	0.21717	0.75	2.514
Mof_In	In	0.78283	0.36401	0.75	2.514
Mof_In	In	0.63599	0.41882	0.75	2.514
Mof_H 	H 	0.25	0.8403	0.3663	-0.048
Mof_H 	H 	0.1828	0.8644	0.4248	0.112
Mof_H 	H 	0.0118	0.6371	0.4206	0.108
Mof_H 	H 	0.0843	0.6113	0.3649	-0.047
Mof_H 	H 	0.0766	0.8786	0.4448	0.043
Mof_H 	H 	0.5903	0.75	0.3663	-0.048
Mof_H 	H 	0.6816	0.8172	0.4248	0.112
Mof_H 	H 	0.6253	0.9882	0.4206	0.108
Mof_H 	H 	0.527	0.9157	0.3649	-0.047
Mof_H 	H 	0.802	0.9234	0.4448	0.043
Mof_H 	H 	0.1597	0.4097	0.3663	-0.048
Mof_H 	H 	0.1356	0.3184	0.4248	0.112
Mof_H 	H 	0.3629	0.3747	0.4206	0.108
Mof_H 	H 	0.3887	0.473	0.3649	-0.047
Mof_H 	H 	0.1214	0.198	0.4448	0.043
Mof_H 	H 	0.25	0.8403	0.1337	-0.048
Mof_H 	H 	0.1828	0.8644	0.0752	0.112
Mof_H 	H 	0.0118	0.6371	0.0794	0.108
Mof_H 	H 	0.0843	0.6113	0.1351	-0.047
Mof_H 	H 	0.0766	0.8786	0.0552	0.043
Mof_H 	H 	0.5903	0.75	0.1337	-0.048
Mof_H 	H 	0.6816	0.8172	0.0752	0.112
Mof_H 	H 	0.6253	0.9882	0.0794	0.108
Mof_H 	H 	0.527	0.9157	0.1351	-0.047
Mof_H 	H 	0.802	0.9234	0.0552	0.043
Mof_H 	H 	0.1597	0.4097	0.1337	-0.048
Mof_H 	H 	0.1356	0.3184	0.0752	0.112
Mof_H 	H 	0.3629	0.3747	0.0794	0.108
Mof_H 	H 	0.3887	0.473	0.1351	-0.047
Mof_H 	H 	0.1214	0.198	0.0552	0.043
Mof_H 	H 	0.4097	0.1597	0.6337	-0.048
Mof_H 	H 	0.3184	0.1356	0.5752	0.112
Mof_H 	H 	0.3747	0.3629	0.5794	0.108
Mof_H 	H 	0.473	0.3887	0.6351	-0.047
Mof_H 	H 	0.198	0.1214	0.5552	0.043
Mof_H 	H 	0.8403	0.25	0.6337	-0.048
Mof_H 	H 	0.8644	0.1828	0.5752	0.112
Mof_H 	H 	0.6371	0.0118	0.5794	0.108
Mof_H 	H 	0.6113	0.0843	0.6351	-0.047
Mof_H 	H 	0.8786	0.0766	0.5552	0.043
Mof_H 	H 	0.75	0.5903	0.6337	-0.048
Mof_H 	H 	0.8172	0.6816	0.5752	0.112
Mof_H 	H 	0.9882	0.6253	0.5794	0.108
Mof_H 	H 	0.9157	0.527	0.6351	-0.047
Mof_H 	H 	0.9234	0.802	0.5552	0.043
Mof_H 	H 	0.4097	0.1597	0.8663	-0.048
Mof_H 	H 	0.3184	0.1356	0.9248	0.112
Mof_H 	H 	0.3747	0.3629	0.9206	0.108
Mof_H 	H 	0.473	0.3887	0.8649	-0.047
Mof_H 	H 	0.198	0.1214	0.9448	0.043
Mof_H 	H 	0.8403	0.25	0.8663	-0.048
Mof_H 	H 	0.8644	0.1828	0.9248	0.112
Mof_H 	H 	0.6371	0.0118	0.9206	0.108
Mof_H 	H 	0.6113	0.0843	0.8649	-0.047
Mof_H 	H 	0.8786	0.0766	0.9448	0.043
Mof_H 	H 	0.75	0.5903	0.8663	-0.048
Mof_H 	H 	0.8172	0.6816	0.9248	0.112
Mof_H 	H 	0.9882	0.6253	0.9206	0.108
Mof_H 	H 	0.9157	0.527	0.8649	-0.047
Mof_H 	H 	0.9234	0.802	0.9448	0.043
Mof_H 	H 	6.16322e-17	0.6622	0.5	0.037
Mof_H 	H 	0.6622	-2.21319e-32	0.5	0.037
Mof_H 	H 	0.3378	0.3378	0.5	0.037
Mof_H 	H 	-0	0.6622	-0	0.037
Mof_H 	H 	0.6622	0	-0	0.037
Mof_H 	H 	0.3378	0.3378	-0	0.037
Mof_H 	H 	0.8818	0.8818	0.5	0.085
Mof_H 	H 	1.17956e-17	0.1182	0.5	0.085
Mof_H 	H 	0.1182	-2.21319e-32	0.5	0.085
Mof_H 	H 	0.8818	0.8818	-0	0.084
Mof_H 	H 	1.24592e-17	0.1182	-0	0.085
Mof_H 	H 	0.1182	0	-0	0.085
Mof_C 	C 	0.21633	0.70903	0.3194	0.658
Mof_C 	C 	0.17297	0.72356	0.35813	-0.324
Mof_C 	C 	0.2021	0.79885	0.37744	0.207
Mof_C 	C 	0.16195	0.81337	0.41249	-0.258
Mof_C 	C 	0.09124	0.75351	0.42978	0.153
Mof_C 	C 	0.06089	0.6779	0.41041	-0.248
Mof_C 	C 	0.10329	0.66284	0.37594	0.201
Mof_C 	C 	0.04525	0.76834	0.46623	-0.037
Mof_C 	C 	0.04555	0.83925	0.46686	-0.052
Mof_C 	C 	0.4927	0.78367	0.3194	0.658
Mof_C 	C 	0.55059	0.82703	0.35813	-0.324
Mof_C 	C 	0.59675	0.7979	0.37744	0.207
Mof_C 	C 	0.65142	0.83805	0.41249	-0.258
Mof_C 	C 	0.66227	0.90876	0.42978	0.153
Mof_C 	C 	0.61701	0.93911	0.41041	-0.248
Mof_C 	C 	0.55955	0.89671	0.37594	0.201
Mof_C 	C 	0.72309	0.95475	0.46623	-0.037
Mof_C 	C 	0.7937	0.95445	0.46686	-0.052
Mof_C 	C 	0.29097	0.5073	0.3194	0.658
Mof_C 	C 	0.27644	0.44941	0.35813	-0.324
Mof_C 	C 	0.20115	0.40325	0.37744	0.207
Mof_C 	C 	0.18663	0.34858	0.41249	-0.258
Mof_C 	C 	0.24649	0.33773	0.42978	0.153
Mof_C 	C 	0.3221	0.38299	0.41041	-0.248
Mof_C 	C 	0.33716	0.44045	0.37594	0.201
Mof_C 	C 	0.23166	0.27691	0.46623	-0.037
Mof_C 	C 	0.16075	0.2063	0.46686	-0.052
Mof_C 	C 	0.21633	0.70903	0.1806	0.658
Mof_C 	C 	0.17297	0.72356	0.14187	-0.324
Mof_C 	C 	0.2021	0.79885	0.12256	0.207
Mof_C 	C 	0.16195	0.81337	0.08751	-0.258
Mof_C 	C 	0.09124	0.75351	0.07022	0.153
Mof_C 	C 	0.06089	0.6779	0.08959	-0.248
Mof_C 	C 	0.10329	0.66284	0.12406	0.201
Mof_C 	C 	0.04525	0.76834	0.03377	-0.037
Mof_C 	C 	0.04555	0.83925	0.03314	-0.052
Mof_C 	C 	0.4927	0.78367	0.1806	0.658
Mof_C 	C 	0.55059	0.82703	0.14187	-0.324
Mof_C 	C 	0.59675	0.7979	0.12256	0.207
Mof_C 	C 	0.65142	0.83805	0.08751	-0.258
Mof_C 	C 	0.66227	0.90876	0.07022	0.153
Mof_C 	C 	0.61701	0.93911	0.08959	-0.248
Mof_C 	C 	0.55955	0.89671	0.12406	0.201
Mof_C 	C 	0.72309	0.95475	0.03377	-0.037
Mof_C 	C 	0.7937	0.95445	0.03314	-0.052
Mof_C 	C 	0.29097	0.5073	0.1806	0.658
Mof_C 	C 	0.27644	0.44941	0.14187	-0.324
Mof_C 	C 	0.20115	0.40325	0.12256	0.207
Mof_C 	C 	0.18663	0.34858	0.08751	-0.258
Mof_C 	C 	0.24649	0.33773	0.07022	0.153
Mof_C 	C 	0.3221	0.38299	0.08959	-0.248
Mof_C 	C 	0.33716	0.44045	0.12406	0.201
Mof_C 	C 	0.23166	0.27691	0.03377	-0.037
Mof_C 	C 	0.16075	0.2063	0.03314	-0.052
Mof_C 	C 	0.5073	0.29097	0.6806	0.658
Mof_C 	C 	0.44941	0.27644	0.64187	-0.324
Mof_C 	C 	0.40325	0.20115	0.62256	0.207
Mof_C 	C 	0.34858	0.18663	0.58751	-0.258
Mof_C 	C 	0.33773	0.24649	0.57022	0.153
Mof_C 	C 	0.38299	0.3221	0.58959	-0.248
Mof_C 	C 	0.44045	0.33716	0.62406	0.201
Mof_C 	C 	0.27691	0.23166	0.53377	-0.037
Mof_C 	C 	0.2063	0.16075	0.53314	-0.052
Mof_C 	C 	0.70903	0.21633	0.6806	0.658
Mof_C 	C 	0.72356	0.17297	0.64187	-0.324
Mof_C 	C 	0.79885	0.2021	0.62256	0.207
Mof_C 	C 	0.81337	0.16195	0.58751	-0.258
Mof_C 	C 	0.75351	0.09124	0.57022	0.153
Mof_C 	C 	0.6779	0.06089	0.58959	-0.248
Mof_C 	C 	0.66284	0.10329	0.62406	0.201
Mof_C 	C 	0.76834	0.04525	0.53377	-0.037
Mof_C 	C 	0.83925	0.04555	0.53314	-0.052
Mof_C 	C 	0.78367	0.4927	0.6806	0.658
Mof_C 	C 	0.82703	0.55059	0.64187	-0.324
Mof_C 	C 	0.7979	0.59675	0.62256	0.207
Mof_C 	C 	0.83805	0.65142	0.58751	-0.258
Mof_C 	C 	0.90876	0.66227	0.57022	0.153
Mof_C 	C 	0.93911	0.61701	0.58959	-0.248
Mof_C 	C 	0.89671	0.55955	0.62406	0.201
Mof_C 	C 	0.95475	0.72309	0.53377	-0.037
Mof_C 	C 	0.95445	0.7937	0.53314	-0.052
Mof_C 	C 	0.5073	0.29097	0.8194	0.658
Mof_C 	C 	0.44941	0.27644	0.85813	-0.324
Mof_C 	C 	0.40325	0.20115	0.87744	0.207
Mof_C 	C 	0.34858	0.18663	0.91249	-0.258
Mof_C 	C 	0.33773	0.24649	0.92978	0.153
Mof_C 	C 	0.38299	0.3221	0.91041	-0.248
Mof_C 	C 	0.44045	0.33716	0.87594	0.201
Mof_C 	C 	0.27691	0.23166	0.96623	-0.037
Mof_C 	C 	0.2063	0.16075	0.96686	-0.052
Mof_C 	C 	0.70903	0.21633	0.8194	0.658
Mof_C 	C 	0.72356	0.17297	0.85813	-0.324
Mof_C 	C 	0.79885	0.2021	0.87744	0.207
Mof_C 	C 	0.81337	0.16195	0.91249	-0.258
Mof_C 	C 	0.75351	0.09124	0.92978	0.153
Mof_C 	C 	0.6779	0.06089	0.91041	-0.248
Mof_C 	C 	0.66284	0.10329	0.87594	0.201
Mof_C 	C 	0.76834	0.04525	0.96623	-0.038
Mof_C 	C 	0.83925	0.04555	0.96686	-0.052
Mof_C 	C 	0.78367	0.4927	0.8194	0.658
Mof_C 	C 	0.82703	0.55059	0.85813	-0.324
Mof_C 	C 	0.7979	0.59675	0.87744	0.207
Mof_C 	C 	0.83805	0.65142	0.91249	-0.258
Mof_C 	C 	0.90876	0.66227	0.92978	0.153
Mof_C 	C 	0.93911	0.61701	0.91041	-0.248
Mof_C 	C 	0.89671	0.55955	0.87594	0.201
Mof_C 	C 	0.95475	0.72309	0.96623	-0.038
Mof_C 	C 	0.95445	0.7937	0.96686	-0.052
Mof_C 	C 	6.16322e-17	0.71007	0.5	-0.043
Mof_C 	C 	-3.8041e-17	0.85303	0.5	-0.017
Mof_C 	C 	-8.78776e-17	0.92933	0.5	0.093
Mof_C 	C 	0.71007	-2.21319e-32	0.5	-0.043
Mof_C 	C 	0.85303	-2.21319e-32	0.5	-0.017
Mof_C 	C 	0.92933	-2.21319e-32	0.5	0.093
Mof_C 	C 	0.28993	0.28993	0.5	-0.043
Mof_C 	C 	0.14697	0.14697	0.5	-0.016
Mof_C 	C 	0.07067	0.07067	0.5	0.095
Mof_C 	C 	4.98366e-17	0.71007	-0	-0.043
Mof_C 	C 	-0	0.85303	-0	-0.016
Mof_C 	C 	-0	0.92933	-0	0.093
Mof_C 	C 	0.71007	0	-0	-0.043
Mof_C 	C 	0.85303	0	-0	-0.016
Mof_C 	C 	0.92933	0	-0	0.093
Mof_C 	C 	0.28993	0.28993	-0	-0.043
Mof_C 	C 	0.14697	0.14697	-0	-0.016
Mof_C 	C 	0.07067	0.07067	-0	0.094
Mof_C 	C 	0.92966	0.92966	0.5	-0.167
Mof_C 	C 	1.17956e-17	0.07034	0.5	-0.167
Mof_C 	C 	0.07034	-2.21319e-32	0.5	-0.167
Mof_C 	C 	0.92966	0.92966	-0	-0.167
Mof_C 	C 	6.22958e-18	0.07034	-0	-0.166
Mof_C 	C 	0.07034	0	-0	-0.166
Mof_O 	O 	0.27891	0.76714	0.3047	-0.749
Mof_O 	O 	0.18579	0.63933	0.30459	-0.748
Mof_O 	O 	0.48823	0.72109	0.3047	-0.749
Mof_O 	O 	0.45354	0.81421	0.30459	-0.748
Mof_O 	O 	0.23286	0.51177	0.3047	-0.749
Mof_O 	O 	0.36067	0.54646	0.30459	-0.748
Mof_O 	O 	0.27891	0.76714	0.1953	-0.749
Mof_O 	O 	0.18579	0.63933	0.19541	-0.748
Mof_O 	O 	0.48823	0.72109	0.1953	-0.749
Mof_O 	O 	0.45354	0.81421	0.19541	-0.748
Mof_O 	O 	0.23286	0.51177	0.1953	-0.749
Mof_O 	O 	0.36067	0.54646	0.19541	-0.748
Mof_O 	O 	0.51177	0.23286	0.6953	-0.749
Mof_O 	O 	0.54646	0.36067	0.69541	-0.748
Mof_O 	O 	0.76714	0.27891	0.6953	-0.749
Mof_O 	O 	0.63933	0.18579	0.69541	-0.748
Mof_O 	O 	0.72109	0.48823	0.6953	-0.749
Mof_O 	O 	0.81421	0.45354	0.69541	-0.748
Mof_O 	O 	0.51177	0.23286	0.8047	-0.749
Mof_O 	O 	0.54646	0.36067	0.80459	-0.748
Mof_O 	O 	0.76714	0.27891	0.8047	-0.749
Mof_O 	O 	0.63933	0.18579	0.80459	-0.748
Mof_O 	O 	0.72109	0.48823	0.8047	-0.749
Mof_O 	O 	0.81421	0.45354	0.80459	-0.748
Mof_O 	O 	0.33333	0.66666	0.25	-1.335
Mof_O 	O 	0.66667	0.33334	0.75	-1.335
_end
