data_functionalizedCrystal
_audit_creation_method	'EQeq! by Chris Wilmer'
_symmetry_space_group_name_H-M	'P1'
_symmetry_Int_Tables_number	1
_symmetry_cell_setting	triclinic
loop_
_symmetry_equiv_pos_as_xyz
  x,y,z
_cell_length_a	13.1187
_cell_length_b	23.92
_cell_length_c	19.689
_cell_angle_alpha	90
_cell_angle_beta	90
_cell_angle_gamma	90
loop_
_atom_site_label
_atom_site_type_symbol
_atom_site_fract_x
_atom_site_fract_y
_atom_site_fract_z
_atom_site_charge
Mof_V 	V 	0.84195	0.53972	0.33479	1.743
Mof_V 	V 	0.6627	0.46734	0.42782	1.756
Mof_V 	V 	0.44124	0.53372	0.37705	1.728
Mof_V 	V 	0.25001	0.46885	0.28687	1.609
Mof_V 	V 	0.07835	0.52693	0.3843	1.744
Mof_V 	V 	0.25814	0.61317	0.43353	1.603
Mof_V 	V 	0.15805	0.46028	0.83479	1.742
Mof_V 	V 	0.3373	0.53266	0.92782	1.739
Mof_V 	V 	0.55876	0.46628	0.87705	1.726
Mof_V 	V 	0.74999	0.53115	0.78687	1.607
Mof_V 	V 	0.92165	0.47307	0.8843	1.737
Mof_V 	V 	0.74186	0.38683	0.93353	1.591
Mof_V 	V 	0.15805	0.03972	0.33479	1.744
Mof_V 	V 	0.3373	0.96734	0.42782	1.757
Mof_V 	V 	0.55876	0.03372	0.37705	1.728
Mof_V 	V 	0.74999	0.96885	0.28687	1.609
Mof_V 	V 	0.92165	0.02693	0.3843	1.744
Mof_V 	V 	0.74186	0.11317	0.43353	1.603
Mof_V 	V 	0.84195	0.96028	0.83479	1.742
Mof_V 	V 	0.6627	0.03266	0.92782	1.738
Mof_V 	V 	0.44124	0.96628	0.87705	1.727
Mof_V 	V 	0.25001	0.03115	0.78687	1.606
Mof_V 	V 	0.07835	0.97307	0.8843	1.738
Mof_V 	V 	0.25814	0.88683	0.93353	1.592
Mof_Cu	Cu	0.8603	0.49535	0.16208	0.843
Mof_Cu	Cu	0.62835	0.45154	0.61101	0.785
Mof_Cu	Cu	0.79626	0.97582	0.09952	0.754
Mof_Cu	Cu	0.1397	0.50465	0.66208	0.842
Mof_Cu	Cu	0.37165	0.54846	0.11101	0.787
Mof_Cu	Cu	0.20374	0.02418	0.59952	0.749
Mof_Cu	Cu	0.1397	0.99535	0.16208	0.843
Mof_Cu	Cu	0.37165	0.95154	0.61101	0.785
Mof_Cu	Cu	0.20374	0.47582	0.09952	0.754
Mof_Cu	Cu	0.8603	0.00465	0.66208	0.841
Mof_Cu	Cu	0.62835	0.04846	0.11101	0.788
Mof_Cu	Cu	0.79626	0.52418	0.59952	0.749
Mof_H 	H 	0.0058	0.4205	0.2315	-0.126
Mof_H 	H 	0.0939	0.3445	0.2133	0.084
Mof_H 	H 	0.0029	0.3494	0.0218	0.102
Mof_H 	H 	0.9201	0.4284	0.0468	-0.081
Mof_H 	H 	0.1677	0.2775	0.1349	0.13
Mof_H 	H 	0.1431	0.283	0.0573	0.141
Mof_H 	H 	0.989	0.2348	0.0721	-0.052
Mof_H 	H 	0.0066	0.2323	0.1508	-0.051
Mof_H 	H 	0.1356	0.1759	0.0568	0.127
Mof_H 	H 	0.1455	0.1712	0.136	0.116
Mof_H 	H 	0.0107	0.1201	0.0015	0.089
Mof_H 	H 	0.9015	0.0442	0.0014	-0.107
Mof_H 	H 	0.9023	0.0442	0.2011	-0.116
Mof_H 	H 	0.0178	0.1141	0.201	0.059
Mof_H 	H 	0.7907	0.5234	0.0245	-0.033
Mof_H 	H 	0.6785	0.5884	0.9765	-0.09
Mof_H 	H 	0.588	0.6328	0.1598	0.022
Mof_H 	H 	0.6981	0.5687	0.2048	-0.099
Mof_H 	H 	0.486	0.6615	0.0545	-0.002
Mof_H 	H 	0.5382	0.6517	0.9835	-0.073
Mof_H 	H 	0.6378	0.7198	0.0818	0.023
Mof_H 	H 	0.6603	0.7192	0.0037	0.028
Mof_H 	H 	0.4816	0.764	0.0583	0.073
Mof_H 	H 	0.5152	0.7681	0.9819	-0.011
Mof_H 	H 	0.6404	0.8396	0.9498	0.149
Mof_H 	H 	0.7432	0.9135	0.979	-0.255
Mof_H 	H 	0.6823	0.8896	0.1698	-0.206
Mof_H 	H 	0.5828	0.8153	0.1431	0.141
Mof_H 	H 	0.691	0.3894	0.7284	-0.182
Mof_H 	H 	0.7489	0.3015	0.7564	0.039
Mof_H 	H 	0.7642	0.2696	0.5584	0.084
Mof_H 	H 	0.7135	0.3554	0.5371	-0.118
Mof_H 	H 	0.8143	0.2129	0.7231	0.099
Mof_H 	H 	0.8395	0.2017	0.6463	0.12
Mof_H 	H 	0.6386	0.1936	0.7007	-0.05
Mof_H 	H 	0.6661	0.1804	0.6248	-0.052
Mof_H 	H 	0.7727	0.1057	0.6663	0.063
Mof_H 	H 	0.7253	0.116	0.7384	0.055
Mof_H 	H 	0.6297	0.0943	0.5673	0.034
Mof_H 	H 	0.506	0.032	0.5398	-0.053
Mof_H 	H 	0.4779	0.988	0.7294	-0.166
Mof_H 	H 	0.5859	0.0522	0.7622	0.007
Mof_H 	H 	0.9942	0.5795	0.7315	-0.128
Mof_H 	H 	0.9061	0.6555	0.7133	0.078
Mof_H 	H 	0.9971	0.6506	0.5218	0.086
Mof_H 	H 	0.0799	0.5716	0.5468	-0.094
Mof_H 	H 	0.8323	0.7225	0.6349	0.127
Mof_H 	H 	0.8569	0.717	0.5573	0.132
Mof_H 	H 	0.011	0.7652	0.5721	-0.055
Mof_H 	H 	0.9934	0.7677	0.6508	-0.051
Mof_H 	H 	0.8644	0.8241	0.5568	0.121
Mof_H 	H 	0.8545	0.8288	0.636	0.114
Mof_H 	H 	0.9893	0.8799	0.5015	0.075
Mof_H 	H 	0.0985	0.9558	0.5014	-0.122
Mof_H 	H 	0.0977	0.9558	0.7011	-0.115
Mof_H 	H 	0.9822	0.8859	0.701	0.056
Mof_H 	H 	0.2093	0.4766	0.5245	-0.096
Mof_H 	H 	0.3215	0.4116	0.4765	0.049
Mof_H 	H 	0.412	0.3672	0.6598	0.071
Mof_H 	H 	0.3019	0.4313	0.7048	-0.128
Mof_H 	H 	0.514	0.3385	0.5545	0.082
Mof_H 	H 	0.4618	0.3483	0.4835	0.066
Mof_H 	H 	0.3622	0.2802	0.5818	-0.035
Mof_H 	H 	0.3397	0.2808	0.5037	-0.051
Mof_H 	H 	0.5184	0.236	0.5583	0.112
Mof_H 	H 	0.4848	0.2319	0.4819	0.079
Mof_H 	H 	0.3596	0.1604	0.4498	0.058
Mof_H 	H 	0.2568	0.0865	0.479	-0.108
Mof_H 	H 	0.3177	0.1104	0.6698	-0.185
Mof_H 	H 	0.4172	0.1847	0.6431	0.11
Mof_H 	H 	0.309	0.6106	0.2284	-0.182
Mof_H 	H 	0.2511	0.6985	0.2564	0.045
Mof_H 	H 	0.2358	0.7304	0.0584	0.096
Mof_H 	H 	0.2865	0.6446	0.0371	-0.106
Mof_H 	H 	0.1857	0.7871	0.2231	0.106
Mof_H 	H 	0.1605	0.7983	0.1463	0.125
Mof_H 	H 	0.3614	0.8064	0.2007	-0.05
Mof_H 	H 	0.3339	0.8196	0.1248	-0.05
Mof_H 	H 	0.2273	0.8943	0.1663	0.068
Mof_H 	H 	0.2747	0.884	0.2384	0.062
Mof_H 	H 	0.3703	0.9057	0.0673	0.048
Mof_H 	H 	0.494	0.968	0.0398	-0.037
Mof_H 	H 	0.5221	0.012	0.2294	-0.172
Mof_H 	H 	0.4141	0.9478	0.2622	0.013
Mof_H 	H 	0.9942	0.9205	0.2315	-0.126
Mof_H 	H 	0.9061	0.8445	0.2133	0.084
Mof_H 	H 	0.9971	0.8494	0.0218	0.1
Mof_H 	H 	0.0799	0.9284	0.0468	-0.082
Mof_H 	H 	0.8323	0.7775	0.1349	0.129
Mof_H 	H 	0.8569	0.783	0.0573	0.14
Mof_H 	H 	0.011	0.7348	0.0721	-0.051
Mof_H 	H 	0.9934	0.7323	0.1508	-0.05
Mof_H 	H 	0.8644	0.6759	0.0568	0.126
Mof_H 	H 	0.8545	0.6712	0.136	0.115
Mof_H 	H 	0.9893	0.6201	0.0015	0.086
Mof_H 	H 	0.0985	0.5442	0.0014	-0.105
Mof_H 	H 	0.0977	0.5442	0.2011	-0.114
Mof_H 	H 	0.9822	0.6141	0.201	0.057
Mof_H 	H 	0.2093	0.0234	0.0245	-0.031
Mof_H 	H 	0.3215	0.0884	0.9765	-0.096
Mof_H 	H 	0.412	0.1328	0.1598	0.021
Mof_H 	H 	0.3019	0.0687	0.2048	-0.098
Mof_H 	H 	0.514	0.1615	0.0545	-0.005
Mof_H 	H 	0.4618	0.1517	0.9835	-0.078
Mof_H 	H 	0.3622	0.2198	0.0818	0.025
Mof_H 	H 	0.3397	0.2192	0.0037	0.031
Mof_H 	H 	0.5184	0.264	0.0583	0.072
Mof_H 	H 	0.4848	0.2681	0.9819	-0.014
Mof_H 	H 	0.3596	0.3396	0.9498	0.155
Mof_H 	H 	0.2568	0.4135	0.979	-0.264
Mof_H 	H 	0.3177	0.3896	0.1698	-0.208
Mof_H 	H 	0.4172	0.3153	0.1431	0.143
Mof_H 	H 	0.309	0.8894	0.7284	-0.182
Mof_H 	H 	0.2511	0.8015	0.7564	0.039
Mof_H 	H 	0.2358	0.7696	0.5584	0.084
Mof_H 	H 	0.2865	0.8554	0.5371	-0.118
Mof_H 	H 	0.1857	0.7129	0.7231	0.1
Mof_H 	H 	0.1605	0.7017	0.6463	0.121
Mof_H 	H 	0.3614	0.6936	0.7007	-0.051
Mof_H 	H 	0.3339	0.6804	0.6248	-0.053
Mof_H 	H 	0.2273	0.6057	0.6663	0.064
Mof_H 	H 	0.2747	0.616	0.7384	0.057
Mof_H 	H 	0.3703	0.5943	0.5673	0.035
Mof_H 	H 	0.494	0.532	0.5398	-0.053
Mof_H 	H 	0.5221	0.488	0.7294	-0.172
Mof_H 	H 	0.4141	0.5522	0.7622	0.01
Mof_H 	H 	0.0058	0.0795	0.7315	-0.129
Mof_H 	H 	0.0939	0.1555	0.7133	0.078
Mof_H 	H 	0.0029	0.1506	0.5218	0.085
Mof_H 	H 	0.9201	0.0716	0.5468	-0.094
Mof_H 	H 	0.1677	0.2225	0.6349	0.126
Mof_H 	H 	0.1431	0.217	0.5573	0.131
Mof_H 	H 	0.989	0.2652	0.5721	-0.054
Mof_H 	H 	0.0066	0.2677	0.6508	-0.05
Mof_H 	H 	0.1356	0.3241	0.5568	0.12
Mof_H 	H 	0.1455	0.3288	0.636	0.113
Mof_H 	H 	0.0107	0.3799	0.5015	0.072
Mof_H 	H 	0.9015	0.4558	0.5014	-0.121
Mof_H 	H 	0.9023	0.4558	0.7011	-0.114
Mof_H 	H 	0.0178	0.3859	0.701	0.054
Mof_H 	H 	0.7907	0.9766	0.5245	-0.095
Mof_H 	H 	0.6785	0.9116	0.4765	0.049
Mof_H 	H 	0.588	0.8672	0.6598	0.071
Mof_H 	H 	0.6981	0.9313	0.7048	-0.127
Mof_H 	H 	0.486	0.8385	0.5545	0.082
Mof_H 	H 	0.5382	0.8483	0.4835	0.066
Mof_H 	H 	0.6378	0.7802	0.5818	-0.035
Mof_H 	H 	0.6603	0.7808	0.5037	-0.051
Mof_H 	H 	0.4816	0.736	0.5583	0.112
Mof_H 	H 	0.5152	0.7319	0.4819	0.08
Mof_H 	H 	0.6404	0.6604	0.4498	0.058
Mof_H 	H 	0.7432	0.5865	0.479	-0.108
Mof_H 	H 	0.6823	0.6104	0.6698	-0.185
Mof_H 	H 	0.5828	0.6847	0.6431	0.111
Mof_H 	H 	0.691	0.1106	0.2284	-0.182
Mof_H 	H 	0.7489	0.1985	0.2564	0.045
Mof_H 	H 	0.7642	0.2304	0.0584	0.097
Mof_H 	H 	0.7135	0.1446	0.0371	-0.106
Mof_H 	H 	0.8143	0.2871	0.2231	0.106
Mof_H 	H 	0.8395	0.2983	0.1463	0.125
Mof_H 	H 	0.6386	0.3064	0.2007	-0.05
Mof_H 	H 	0.6661	0.3196	0.1248	-0.05
Mof_H 	H 	0.7727	0.3943	0.1663	0.068
Mof_H 	H 	0.7253	0.384	0.2384	0.062
Mof_H 	H 	0.6297	0.4057	0.0673	0.049
Mof_H 	H 	0.506	0.468	0.0398	-0.037
Mof_H 	H 	0.4779	0.512	0.2294	-0.172
Mof_H 	H 	0.5859	0.4478	0.2622	0.013
Mof_C 	C 	0.0054	0.406	0.1877	0.163
Mof_C 	C 	0.0577	0.3604	0.1776	-0.386
Mof_C 	C 	0.06	0.336	0.1154	0.281
Mof_C 	C 	0.0052	0.3634	0.0658	-0.345
Mof_C 	C 	0.9552	0.4106	0.0817	0.14
Mof_C 	C 	0.113	0.282	0.1022	-0.431
Mof_C 	C 	0.0407	0.2317	0.1071	0.191
Mof_C 	C 	0.0973	0.1755	0.099	-0.399
Mof_C 	C 	0.0263	0.1268	0.0986	0.247
Mof_C 	C 	0.9909	0.1049	0.0428	-0.32
Mof_C 	C 	0.9236	0.0588	0.0427	0.131
Mof_C 	C 	0.9257	0.0585	0.16	0.087
Mof_C 	C 	0.9926	0.101	0.1598	-0.29
Mof_C 	C 	0.7519	0.5466	0.0522	-0.017
Mof_C 	C 	0.6818	0.5848	0.0235	0.017
Mof_C 	C 	0.62	0.6159	0.0624	-0.012
Mof_C 	C 	0.6283	0.6111	0.1313	-0.146
Mof_C 	C 	0.6966	0.5738	0.158	0.064
Mof_C 	C 	0.5509	0.6603	0.0309	-0.016
Mof_C 	C 	0.6063	0.7177	0.0373	-0.046
Mof_C 	C 	0.54	0.7668	0.0283	-0.234
Mof_C 	C 	0.5981	0.8183	0.0438	0.385
Mof_C 	C 	0.6481	0.849	0.9953	-0.614
Mof_C 	C 	0.7098	0.8937	0.013	0.435
Mof_C 	C 	0.6749	0.8798	0.1244	0.26
Mof_C 	C 	0.6142	0.8349	0.1081	-0.42
Mof_C 	C 	0.7063	0.3643	0.6939	0.143
Mof_C 	C 	0.7404	0.3114	0.7111	-0.305
Mof_C 	C 	0.7615	0.2742	0.6607	0.246
Mof_C 	C 	0.7497	0.2934	0.5945	-0.323
Mof_C 	C 	0.7187	0.3442	0.5822	0.202
Mof_C 	C 	0.7876	0.2152	0.6773	-0.381
Mof_C 	C 	0.6912	0.1788	0.6711	0.135
Mof_C 	C 	0.7121	0.1183	0.69	-0.306
Mof_C 	C 	0.6248	0.0808	0.6723	0.135
Mof_C 	C 	0.5975	0.0736	0.6011	-0.201
Mof_C 	C 	0.5239	0.0358	0.5852	0.109
Mof_C 	C 	0.5067	0.0111	0.6966	0.089
Mof_C 	C 	0.5734	0.0482	0.7159	-0.25
Mof_C 	C 	0.9946	0.594	0.6877	0.159
Mof_C 	C 	0.9423	0.6396	0.6776	-0.381
Mof_C 	C 	0.94	0.664	0.6154	0.273
Mof_C 	C 	0.9948	0.6366	0.5658	-0.342
Mof_C 	C 	0.0448	0.5894	0.5817	0.136
Mof_C 	C 	0.887	0.718	0.6022	-0.423
Mof_C 	C 	0.9593	0.7683	0.6071	0.185
Mof_C 	C 	0.9027	0.8245	0.599	-0.393
Mof_C 	C 	0.9737	0.8732	0.5986	0.241
Mof_C 	C 	0.0091	0.8951	0.5428	-0.318
Mof_C 	C 	0.0764	0.9412	0.5427	0.128
Mof_C 	C 	0.0743	0.9415	0.66	0.084
Mof_C 	C 	0.0074	0.899	0.6598	-0.286
Mof_C 	C 	0.2481	0.4534	0.5522	0.112
Mof_C 	C 	0.3182	0.4152	0.5235	-0.258
Mof_C 	C 	0.38	0.3841	0.5624	0.192
Mof_C 	C 	0.3717	0.3889	0.6313	-0.286
Mof_C 	C 	0.3034	0.4262	0.658	0.144
Mof_C 	C 	0.4491	0.3397	0.5309	-0.335
Mof_C 	C 	0.3937	0.2823	0.5373	0.155
Mof_C 	C 	0.46	0.2332	0.5283	-0.39
Mof_C 	C 	0.4019	0.1817	0.5438	0.254
Mof_C 	C 	0.3519	0.151	0.4953	-0.303
Mof_C 	C 	0.2902	0.1063	0.513	0.131
Mof_C 	C 	0.3251	0.1202	0.6244	0.193
Mof_C 	C 	0.3858	0.1651	0.6081	-0.329
Mof_C 	C 	0.2937	0.6357	0.1939	0.149
Mof_C 	C 	0.2596	0.6886	0.2111	-0.311
Mof_C 	C 	0.2385	0.7258	0.1607	0.255
Mof_C 	C 	0.2503	0.7066	0.0945	-0.328
Mof_C 	C 	0.2813	0.6558	0.0822	0.21
Mof_C 	C 	0.2124	0.7848	0.1773	-0.389
Mof_C 	C 	0.3088	0.8212	0.1711	0.142
Mof_C 	C 	0.2879	0.8817	0.19	-0.315
Mof_C 	C 	0.3752	0.9192	0.1723	0.145
Mof_C 	C 	0.4025	0.9264	0.1011	-0.204
Mof_C 	C 	0.4761	0.9642	0.0852	0.112
Mof_C 	C 	0.4933	0.9889	0.1966	0.101
Mof_C 	C 	0.4266	0.9518	0.2159	-0.261
Mof_C 	C 	0.9946	0.906	0.1877	0.163
Mof_C 	C 	0.9423	0.8604	0.1776	-0.385
Mof_C 	C 	0.94	0.836	0.1154	0.279
Mof_C 	C 	0.9948	0.8634	0.0658	-0.343
Mof_C 	C 	0.0448	0.9106	0.0817	0.138
Mof_C 	C 	0.887	0.782	0.1022	-0.429
Mof_C 	C 	0.9593	0.7317	0.1071	0.188
Mof_C 	C 	0.9027	0.6755	0.099	-0.395
Mof_C 	C 	0.9737	0.6268	0.0986	0.241
Mof_C 	C 	0.0091	0.6049	0.0428	-0.314
Mof_C 	C 	0.0764	0.5588	0.0427	0.128
Mof_C 	C 	0.0743	0.5585	0.16	0.084
Mof_C 	C 	0.0074	0.601	0.1598	-0.284
Mof_C 	C 	0.2481	0.0466	0.0522	-0.022
Mof_C 	C 	0.3182	0.0848	0.0235	0.027
Mof_C 	C 	0.38	0.1159	0.0624	-0.02
Mof_C 	C 	0.3717	0.1111	0.1313	-0.14
Mof_C 	C 	0.3034	0.0738	0.158	0.061
Mof_C 	C 	0.4491	0.1603	0.0309	-0.004
Mof_C 	C 	0.3937	0.2177	0.0373	-0.053
Mof_C 	C 	0.46	0.2668	0.0283	-0.23
Mof_C 	C 	0.4019	0.3183	0.0438	0.394
Mof_C 	C 	0.3519	0.349	0.9953	-0.632
Mof_C 	C 	0.2902	0.3937	0.013	0.452
Mof_C 	C 	0.3251	0.3798	0.1244	0.264
Mof_C 	C 	0.3858	0.3349	0.1081	-0.427
Mof_C 	C 	0.2937	0.8643	0.6939	0.143
Mof_C 	C 	0.2596	0.8114	0.7111	-0.306
Mof_C 	C 	0.2385	0.7742	0.6607	0.247
Mof_C 	C 	0.2503	0.7934	0.5945	-0.324
Mof_C 	C 	0.2813	0.8442	0.5822	0.202
Mof_C 	C 	0.2124	0.7152	0.6773	-0.383
Mof_C 	C 	0.3088	0.6788	0.6711	0.137
Mof_C 	C 	0.2879	0.6183	0.69	-0.31
Mof_C 	C 	0.3752	0.5808	0.6723	0.14
Mof_C 	C 	0.4025	0.5736	0.6011	-0.204
Mof_C 	C 	0.4761	0.5358	0.5852	0.111
Mof_C 	C 	0.4933	0.5111	0.6966	0.098
Mof_C 	C 	0.4266	0.5482	0.7159	-0.257
Mof_C 	C 	0.0054	0.094	0.6877	0.159
Mof_C 	C 	0.0577	0.1396	0.6776	-0.38
Mof_C 	C 	0.06	0.164	0.6154	0.271
Mof_C 	C 	0.0052	0.1366	0.5658	-0.34
Mof_C 	C 	0.9552	0.0894	0.5817	0.134
Mof_C 	C 	0.113	0.218	0.6022	-0.421
Mof_C 	C 	0.0407	0.2683	0.6071	0.182
Mof_C 	C 	0.0973	0.3245	0.599	-0.389
Mof_C 	C 	0.0263	0.3732	0.5986	0.234
Mof_C 	C 	0.9909	0.3951	0.5428	-0.312
Mof_C 	C 	0.9236	0.4412	0.5427	0.125
Mof_C 	C 	0.9257	0.4415	0.66	0.081
Mof_C 	C 	0.9926	0.399	0.6598	-0.28
Mof_C 	C 	0.7519	0.9534	0.5522	0.112
Mof_C 	C 	0.6818	0.9152	0.5235	-0.258
Mof_C 	C 	0.62	0.8841	0.5624	0.192
Mof_C 	C 	0.6283	0.8889	0.6313	-0.286
Mof_C 	C 	0.6966	0.9262	0.658	0.144
Mof_C 	C 	0.5509	0.8397	0.5309	-0.335
Mof_C 	C 	0.6063	0.7823	0.5373	0.156
Mof_C 	C 	0.54	0.7332	0.5283	-0.391
Mof_C 	C 	0.5981	0.6817	0.5438	0.254
Mof_C 	C 	0.6481	0.651	0.4953	-0.303
Mof_C 	C 	0.7098	0.6063	0.513	0.131
Mof_C 	C 	0.6749	0.6202	0.6244	0.193
Mof_C 	C 	0.6142	0.6651	0.6081	-0.329
Mof_C 	C 	0.7063	0.1357	0.1939	0.149
Mof_C 	C 	0.7404	0.1886	0.2111	-0.311
Mof_C 	C 	0.7615	0.2258	0.1607	0.256
Mof_C 	C 	0.7497	0.2066	0.0945	-0.328
Mof_C 	C 	0.7187	0.1558	0.0822	0.21
Mof_C 	C 	0.7876	0.2848	0.1773	-0.39
Mof_C 	C 	0.6912	0.3212	0.1711	0.142
Mof_C 	C 	0.7121	0.3817	0.19	-0.315
Mof_C 	C 	0.6248	0.4192	0.1723	0.145
Mof_C 	C 	0.5975	0.4264	0.1011	-0.204
Mof_C 	C 	0.5239	0.4642	0.0852	0.112
Mof_C 	C 	0.5067	0.4889	0.1966	0.101
Mof_C 	C 	0.5734	0.4518	0.2159	-0.261
Mof_N 	N 	0.9512	0.4339	0.1414	-0.319
Mof_N 	N 	0.8914	0.0362	0.0998	-0.322
Mof_N 	N 	0.7615	0.5444	0.1194	-0.253
Mof_N 	N 	0.7228	0.9091	0.0781	-0.395
Mof_N 	N 	0.6944	0.3804	0.6296	-0.328
Mof_N 	N 	0.4762	0.0043	0.6297	-0.313
Mof_N 	N 	0.0488	0.5661	0.6414	-0.319
Mof_N 	N 	0.1086	0.9638	0.5998	-0.323
Mof_N 	N 	0.2385	0.4556	0.6194	-0.292
Mof_N 	N 	0.2772	0.0909	0.5781	-0.336
Mof_N 	N 	0.3056	0.6196	0.1296	-0.327
Mof_N 	N 	0.5238	0.9957	0.1297	-0.313
Mof_N 	N 	0.0488	0.9339	0.1414	-0.319
Mof_N 	N 	0.1086	0.5362	0.0998	-0.321
Mof_N 	N 	0.2385	0.0444	0.1194	-0.251
Mof_N 	N 	0.2772	0.4091	0.0781	-0.398
Mof_N 	N 	0.3056	0.8804	0.6296	-0.328
Mof_N 	N 	0.5238	0.5043	0.6297	-0.314
Mof_N 	N 	0.9512	0.0661	0.6414	-0.32
Mof_N 	N 	0.8914	0.4638	0.5998	-0.322
Mof_N 	N 	0.7615	0.9556	0.6194	-0.291
Mof_N 	N 	0.7228	0.5909	0.5781	-0.335
Mof_N 	N 	0.6944	0.1196	0.1296	-0.327
Mof_N 	N 	0.4762	0.4957	0.1297	-0.313
Mof_O 	O 	0.8575	0.5034	0.2658	-0.804
Mof_O 	O 	0.9608	0.5575	0.3722	-0.959
Mof_O 	O 	0.756	0.5082	0.3923	-0.977
Mof_O 	O 	0.6815	0.4659	0.5092	-0.79
Mof_O 	O 	0.5383	0.4958	0.4148	-0.93
Mof_O 	O 	0.3604	0.4866	0.3386	-1.008
Mof_O 	O 	0.3734	0.5725	0.4376	-0.962
Mof_O 	O 	0.1416	0.5077	0.3127	-1.051
Mof_O 	O 	0.1502	0.5647	0.4392	-0.976
Mof_O 	O 	0.1425	0.4966	0.7658	-0.807
Mof_O 	O 	0.0392	0.4425	0.8722	-0.973
Mof_O 	O 	0.244	0.4918	0.8923	-0.99
Mof_O 	O 	0.3185	0.5341	0.0092	-0.757
Mof_O 	O 	0.4617	0.5042	0.9148	-0.949
Mof_O 	O 	0.6396	0.5134	0.8386	-1.012
Mof_O 	O 	0.6266	0.4275	0.9376	-0.987
Mof_O 	O 	0.8584	0.4923	0.8127	-1.056
Mof_O 	O 	0.8498	0.4353	0.9392	-1.006
Mof_O 	O 	0.1425	0.0034	0.2658	-0.803
Mof_O 	O 	0.0392	0.0575	0.3722	-0.959
Mof_O 	O 	0.244	0.0082	0.3923	-0.977
Mof_O 	O 	0.3185	0.9659	0.5092	-0.79
Mof_O 	O 	0.4617	0.9958	0.4148	-0.929
Mof_O 	O 	0.6396	0.9866	0.3386	-1.007
Mof_O 	O 	0.6266	0.0725	0.4376	-0.962
Mof_O 	O 	0.8584	0.0077	0.3127	-1.052
Mof_O 	O 	0.8498	0.0647	0.4392	-0.976
Mof_O 	O 	0.8575	0.9966	0.7658	-0.804
Mof_O 	O 	0.9608	0.9425	0.8722	-0.972
Mof_O 	O 	0.756	0.9918	0.8923	-0.987
Mof_O 	O 	0.6815	0.0341	0.0092	-0.756
Mof_O 	O 	0.5383	0.0042	0.9148	-0.951
Mof_O 	O 	0.3604	0.0134	0.8386	-1.014
Mof_O 	O 	0.3734	0.9275	0.9376	-0.985
Mof_O 	O 	0.1416	0.9923	0.8127	-1.055
Mof_O 	O 	0.1502	0.9353	0.9392	-1.005
_end
