data_functionalizedCrystal
_audit_creation_method	'EQeq! by Chris Wilmer'
_symmetry_space_group_name_H-M	'P1'
_symmetry_Int_Tables_number	1
_symmetry_cell_setting	triclinic
loop_
_symmetry_equiv_pos_as_xyz
  x,y,z
_cell_length_a	12.4736
_cell_length_b	12.4736
_cell_length_c	70.2884
_cell_angle_alpha	90
_cell_angle_beta	90
_cell_angle_gamma	90
loop_
_atom_site_label
_atom_site_type_symbol
_atom_site_fract_x
_atom_site_fract_y
_atom_site_fract_z
_atom_site_charge
Mof_Cu	Cu	0.3119	0.42238	0.11676	0.927
Mof_Cu	Cu	0.38252	0.36155	0.08271	0.901
Mof_Cu	Cu	0.9648	0.33602	0.99928	0.901
Mof_Cu	Cu	0.76736	0.3825	0.00471	0.899
Mof_O 	O 	0.2279	0.3371	0.07828	-0.392
Mof_O 	O 	0.398	0.2218	0.09453	-0.406
Mof_O 	O 	0.3014	0.5607	0.10222	-0.385
Mof_O 	O 	0.4539	0.4649	0.12404	-0.381
Mof_O 	O 	0.1709	0.3798	0.10762	-0.402
Mof_O 	O 	0.3495	0.274	0.12381	-0.388
Mof_O 	O 	0.3636	0.5069	0.07366	-0.394
Mof_O 	O 	0.2553	0.993	0.10818	-0.29
Mof_O 	O 	0.5177	0.4116	0.09542	-0.389
Mof_C 	C 	0.3341	0.5786	0.08577	0.339
Mof_C 	C 	0.1553	0.3548	0.09082	0.357
Mof_C 	C 	0.338	0.7736	0.09248	0.011
Mof_H 	H 	0.3278	0.7578	0.1053	0.056
Mof_N 	N 	0.4347	0.0168	0.10603	-0.108
Mof_C 	C 	0.959	0.3687	0.09702	0.015
Mof_H 	H 	0.9741	0.374	0.1099	0.047
Mof_C 	C 	0.8929	0.3491	0.03759	0.392
Mof_C 	C 	0.3507	0.8805	0.08661	-0.06
Mof_C 	C 	0.3618	0.8449	0.03296	0.386
Mof_C 	C 	0.3442	0.9678	0.10121	0.208
Mof_C 	C 	0.3578	0.9049	0.06719	0.02
Mof_H 	H 	0.3637	0.9755	0.0631	0.047
Mof_C 	C 	0.3406	0.6921	0.07925	-0.092
Mof_C 	C 	0.5257	0.4584	0.11158	0.338
Mof_C 	C 	0.853	0.3782	0.09055	-0.064
Mof_O 	O 	0.7993	0.366	0.0321	-0.414
Mof_O 	O 	0.9683	0.33	0.02682	-0.428
Mof_C 	C 	0.0408	0.3515	0.08415	-0.092
Mof_C 	C 	0.0205	0.341	0.06456	0.053
Mof_H 	H 	0.076	0.3288	0.056	0.049
Mof_N 	N 	0.7149	0.4936	0.10259	-0.125
Mof_C 	C 	0.3883	0.2086	0.11191	0.366
Mof_C 	C 	0.7649	0.4044	0.10501	0.214
Mof_C 	C 	0.3498	0.7154	0.06006	0.037
Mof_H 	H 	0.3518	0.6604	0.0512	0.05
Mof_O 	O 	0.75	0.3426	0.11838	-0.234
Mof_O 	O 	0.7552	0.2173	0.00502	-0.365
Mof_O 	O 	0.3779	0.7664	0.02259	-0.433
Mof_C 	C 	0.9158	0.3494	0.05848	-0.115
Mof_O 	O 	0.3539	0.9392	0.02813	-0.415
Mof_C 	C 	0.8317	0.369	0.07138	0.026
Mof_H 	H 	0.7617	0.3758	0.067	0.041
Mof_C 	C 	0.6259	0.521	0.11589	-0.078
Mof_H 	H 	0.6481	0.5102	0.1291	0.08
Mof_C 	C 	0.3558	0.8209	0.05423	-0.097
Mof_O 	O 	0.9399	0.1854	0.99802	-0.382
Mof_C 	C 	0.5529	0.1228	0.12463	-0.076
Mof_H 	H 	0.5666	0.1972	0.1278	0.07
Mof_H 	H 	0.577	0.0775	0.135	0.064
Mof_C 	C 	0.4327	0.1039	0.12017	-0.077
Mof_H 	H 	0.3932	0.0825	0.1316	0.091
Mof_C 	C 	0.542	0.9981	0.09851	-0.046
Mof_H 	H 	0.541	0.9962	0.0847	0.051
Mof_H 	H 	0.5708	0.9309	0.1032	0.052
Mof_O 	O 	0.4993	0.9642	0.99877	-0.474
Mof_C 	C 	0.7323	0.5787	0.08831	-0.04
Mof_H 	H 	0.7256	0.5519	0.0754	0.053
Mof_H 	H 	0.8013	0.6135	0.0899	0.049
Mof_C 	C 	0.608	0.0913	0.10554	-0.092
Mof_H 	H 	0.6819	0.0702	0.1076	0.067
Mof_H 	H 	0.6062	0.1503	0.0966	0.077
Mof_C 	C 	0.7048	0.0067	0.999	0.119
Mof_C 	C 	0.6084	0.6405	0.1117	-0.067
Mof_H 	H 	0.534	0.6597	0.1138	0.062
Mof_H 	H 	0.6528	0.684	0.12	0.069
Mof_C 	C 	0.6829	0.9156	0.9985	-0.12
Mof_C 	C 	0.6349	0.6558	0.09401	-0.093
Mof_H 	H 	0.6558	0.73	0.0922	0.061
Mof_H 	H 	0.5738	0.6412	0.0859	0.069
Mof_C 	C 	0.5443	0.8915	0.9963	0.42
Mof_C 	C 	0.8179	0.0431	0.9996	-0.09
Mof_C 	C 	0.842	0.1641	0.00149	0.306
Mof_O 	O 	0.5316	0.7872	0.99487	-0.414
Mof_C 	C 	0.8871	0.9576	0.99882	0.065
Mof_C 	C 	0.7618	0.8344	0.99626	0.064
Mof_Cu	Cu	0.6881	0.57762	0.61676	0.928
Mof_Cu	Cu	0.61748	0.63845	0.58271	0.902
Mof_Cu	Cu	0.0352	0.66398	0.49928	0.902
Mof_Cu	Cu	0.23264	0.6175	0.50471	0.9
Mof_O 	O 	0.7721	0.6629	0.57828	-0.391
Mof_O 	O 	0.602	0.7782	0.59453	-0.405
Mof_O 	O 	0.6986	0.4393	0.60222	-0.385
Mof_O 	O 	0.5461	0.5351	0.62404	-0.381
Mof_O 	O 	0.8291	0.6202	0.60762	-0.402
Mof_O 	O 	0.6505	0.726	0.62381	-0.388
Mof_O 	O 	0.6364	0.4931	0.57366	-0.394
Mof_O 	O 	0.7447	0.007	0.60818	-0.29
Mof_O 	O 	0.4823	0.5884	0.59542	-0.389
Mof_C 	C 	0.6659	0.4214	0.58577	0.339
Mof_C 	C 	0.8447	0.6452	0.59082	0.357
Mof_C 	C 	0.662	0.2264	0.59248	0.011
Mof_H 	H 	0.6722	0.2422	0.6053	0.056
Mof_N 	N 	0.5653	0.9832	0.60603	-0.108
Mof_C 	C 	0.041	0.6313	0.59702	0.015
Mof_H 	H 	0.0259	0.626	0.6099	0.047
Mof_C 	C 	0.1071	0.6509	0.53759	0.392
Mof_C 	C 	0.6493	0.1195	0.58661	-0.06
Mof_C 	C 	0.6382	0.1551	0.53296	0.386
Mof_C 	C 	0.6558	0.0322	0.60121	0.208
Mof_C 	C 	0.6422	0.0951	0.56719	0.02
Mof_H 	H 	0.6363	0.0245	0.5631	0.047
Mof_C 	C 	0.6594	0.3079	0.57925	-0.092
Mof_C 	C 	0.4743	0.5416	0.61158	0.338
Mof_C 	C 	0.147	0.6218	0.59055	-0.064
Mof_O 	O 	0.2007	0.634	0.5321	-0.414
Mof_O 	O 	0.0317	0.67	0.52682	-0.428
Mof_C 	C 	0.9592	0.6485	0.58415	-0.092
Mof_C 	C 	0.9795	0.659	0.56456	0.053
Mof_H 	H 	0.924	0.6712	0.556	0.049
Mof_N 	N 	0.2851	0.5064	0.60259	-0.125
Mof_C 	C 	0.6117	0.7914	0.61191	0.366
Mof_C 	C 	0.2351	0.5956	0.60501	0.214
Mof_C 	C 	0.6502	0.2846	0.56006	0.037
Mof_H 	H 	0.6482	0.3396	0.5512	0.05
Mof_O 	O 	0.25	0.6574	0.61838	-0.234
Mof_O 	O 	0.2448	0.7827	0.50502	-0.365
Mof_O 	O 	0.6221	0.2336	0.52259	-0.433
Mof_C 	C 	0.0842	0.6506	0.55848	-0.115
Mof_O 	O 	0.6461	0.0608	0.52813	-0.415
Mof_C 	C 	0.1683	0.631	0.57138	0.026
Mof_H 	H 	0.2383	0.6242	0.567	0.041
Mof_C 	C 	0.3741	0.479	0.61589	-0.078
Mof_H 	H 	0.3519	0.4898	0.6291	0.08
Mof_C 	C 	0.6442	0.1791	0.55423	-0.097
Mof_O 	O 	0.0601	0.8146	0.49802	-0.382
Mof_C 	C 	0.4471	0.8772	0.62463	-0.076
Mof_H 	H 	0.4334	0.8028	0.6278	0.07
Mof_H 	H 	0.423	0.9225	0.635	0.064
Mof_C 	C 	0.5673	0.8961	0.62017	-0.077
Mof_H 	H 	0.6068	0.9175	0.6316	0.091
Mof_C 	C 	0.458	0.0019	0.59851	-0.046
Mof_H 	H 	0.459	0.0038	0.5847	0.051
Mof_H 	H 	0.4292	0.0691	0.6032	0.052
Mof_O 	O 	0.5007	0.0358	0.49877	-0.474
Mof_C 	C 	0.2677	0.4213	0.58831	-0.04
Mof_H 	H 	0.2744	0.4481	0.5754	0.053
Mof_H 	H 	0.1987	0.3865	0.5899	0.049
Mof_C 	C 	0.392	0.9087	0.60554	-0.092
Mof_H 	H 	0.3181	0.9298	0.6076	0.067
Mof_H 	H 	0.3938	0.8497	0.5966	0.077
Mof_C 	C 	0.2952	0.9933	0.499	0.119
Mof_C 	C 	0.3916	0.3595	0.6117	-0.067
Mof_H 	H 	0.466	0.3403	0.6138	0.062
Mof_H 	H 	0.3472	0.316	0.62	0.069
Mof_C 	C 	0.3171	0.0844	0.4985	-0.12
Mof_C 	C 	0.3651	0.3442	0.59401	-0.093
Mof_H 	H 	0.3442	0.27	0.5922	0.061
Mof_H 	H 	0.4262	0.3588	0.5859	0.069
Mof_C 	C 	0.4557	0.1085	0.4963	0.42
Mof_C 	C 	0.1821	0.9569	0.4996	-0.09
Mof_C 	C 	0.158	0.8359	0.50149	0.306
Mof_O 	O 	0.4684	0.2128	0.49487	-0.414
Mof_C 	C 	0.1129	0.0424	0.49882	0.065
Mof_C 	C 	0.2382	0.1656	0.49626	0.064
Mof_Cu	Cu	0.07762	0.8119	0.36676	0.926
Mof_Cu	Cu	0.13845	0.88252	0.33271	0.899
Mof_Cu	Cu	0.16398	0.4648	0.24928	0.902
Mof_Cu	Cu	0.1175	0.26736	0.25471	0.899
Mof_O 	O 	0.1629	0.7279	0.32828	-0.395
Mof_O 	O 	0.2782	0.898	0.34453	-0.409
Mof_O 	O 	0.9393	0.8014	0.35222	-0.38
Mof_O 	O 	0.0351	0.9539	0.37404	-0.384
Mof_O 	O 	0.1202	0.6709	0.35762	-0.405
Mof_O 	O 	0.226	0.8495	0.37381	-0.389
Mof_O 	O 	0.9931	0.8636	0.32366	-0.389
Mof_O 	O 	0.507	0.7553	0.35818	-0.288
Mof_O 	O 	0.0884	0.0177	0.34542	-0.388
Mof_C 	C 	0.9214	0.8341	0.33577	0.339
Mof_C 	C 	0.1452	0.6553	0.34082	0.357
Mof_C 	C 	0.7264	0.838	0.34248	0.013
Mof_H 	H 	0.7422	0.8278	0.3553	0.056
Mof_N 	N 	0.4832	0.9347	0.35603	-0.121
Mof_C 	C 	0.1313	0.459	0.34702	0.019
Mof_H 	H 	0.126	0.4741	0.3599	0.044
Mof_C 	C 	0.1509	0.3929	0.28759	0.39
Mof_C 	C 	0.6195	0.8507	0.33661	-0.063
Mof_C 	C 	0.6551	0.8618	0.28296	0.386
Mof_C 	C 	0.5322	0.8442	0.35121	0.218
Mof_C 	C 	0.5951	0.8578	0.31719	0.022
Mof_H 	H 	0.5245	0.8637	0.3131	0.047
Mof_C 	C 	0.8079	0.8406	0.32925	-0.092
Mof_C 	C 	0.0416	0.0257	0.36158	0.328
Mof_C 	C 	0.1218	0.353	0.34055	-0.067
Mof_O 	O 	0.134	0.2993	0.2821	-0.415
Mof_O 	O 	0.17	0.4683	0.27682	-0.427
Mof_C 	C 	0.1485	0.5408	0.33415	-0.096
Mof_C 	C 	0.159	0.5205	0.31456	0.046
Mof_H 	H 	0.1712	0.576	0.306	0.048
Mof_N 	N 	0.0064	0.2149	0.35259	-0.134
Mof_C 	C 	0.2914	0.8883	0.36191	0.366
Mof_C 	C 	0.0956	0.2649	0.35501	0.214
Mof_C 	C 	0.7846	0.8498	0.31006	0.037
Mof_H 	H 	0.8396	0.8518	0.3012	0.051
Mof_O 	O 	0.1574	0.25	0.36838	-0.236
Mof_O 	O 	0.2827	0.2552	0.25502	-0.365
Mof_O 	O 	0.7336	0.8779	0.27259	-0.434
Mof_C 	C 	0.1506	0.4158	0.30848	-0.112
Mof_O 	O 	0.5608	0.8539	0.27813	-0.415
Mof_C 	C 	0.131	0.3317	0.32138	0.025
Mof_H 	H 	0.1242	0.2617	0.317	0.04
Mof_C 	C 	0.979	0.1259	0.36589	-0.061
Mof_H 	H 	0.9898	0.1481	0.3791	0.078
Mof_C 	C 	0.6791	0.8558	0.30423	-0.098
Mof_O 	O 	0.3146	0.4399	0.24802	-0.383
Mof_C 	C 	0.3772	0.0529	0.37463	-0.062
Mof_H 	H 	0.3028	0.0666	0.3778	0.065
Mof_H 	H 	0.4225	0.077	0.385	0.057
Mof_C 	C 	0.3961	0.9327	0.37017	-0.082
Mof_H 	H 	0.4175	0.8932	0.3816	0.09
Mof_C 	C 	0.5019	0.042	0.34851	-0.013
Mof_H 	H 	0.5038	0.041	0.3347	0.045
Mof_H 	H 	0.5691	0.0708	0.3532	0.044
Mof_O 	O 	0.5358	0.9993	0.24877	-0.482
Mof_C 	C 	0.9213	0.2323	0.33831	-0.035
Mof_H 	H 	0.9481	0.2256	0.3254	0.055
Mof_H 	H 	0.8865	0.3013	0.3399	0.05
Mof_C 	C 	0.4087	0.108	0.35554	-0.121
Mof_H 	H 	0.4298	0.1819	0.3576	0.074
Mof_H 	H 	0.3497	0.1062	0.3466	0.084
Mof_C 	C 	0.4933	0.2048	0.249	0.111
Mof_C 	C 	0.8595	0.1084	0.3617	-0.078
Mof_H 	H 	0.8403	0.034	0.3638	0.066
Mof_H 	H 	0.816	0.1528	0.37	0.073
Mof_C 	C 	0.5844	0.1829	0.2485	-0.111
Mof_C 	C 	0.8442	0.1349	0.34401	-0.087
Mof_H 	H 	0.77	0.1558	0.3422	0.061
Mof_H 	H 	0.8588	0.0738	0.3359	0.069
Mof_C 	C 	0.6085	0.0443	0.2463	0.431
Mof_C 	C 	0.4569	0.3179	0.2496	-0.095
Mof_C 	C 	0.3359	0.342	0.25149	0.307
Mof_O 	O 	0.7128	0.0316	0.24487	-0.413
Mof_C 	C 	0.5424	0.3871	0.24882	0.073
Mof_C 	C 	0.6656	0.2618	0.24626	0.066
Mof_Cu	Cu	0.92238	0.1881	0.86676	0.926
Mof_Cu	Cu	0.86155	0.11748	0.83271	0.899
Mof_Cu	Cu	0.83602	0.5352	0.74928	0.902
Mof_Cu	Cu	0.8825	0.73264	0.75471	0.899
Mof_O 	O 	0.8371	0.2721	0.82828	-0.395
Mof_O 	O 	0.7218	0.102	0.84453	-0.409
Mof_O 	O 	0.0607	0.1986	0.85222	-0.38
Mof_O 	O 	0.9649	0.0461	0.87404	-0.384
Mof_O 	O 	0.8798	0.3291	0.85762	-0.405
Mof_O 	O 	0.774	0.1505	0.87381	-0.389
Mof_O 	O 	0.0069	0.1364	0.82366	-0.389
Mof_O 	O 	0.493	0.2447	0.85818	-0.288
Mof_O 	O 	0.9116	0.9823	0.84542	-0.388
Mof_C 	C 	0.0786	0.1659	0.83577	0.339
Mof_C 	C 	0.8548	0.3447	0.84082	0.357
Mof_C 	C 	0.2736	0.162	0.84248	0.013
Mof_H 	H 	0.2578	0.1722	0.8553	0.056
Mof_N 	N 	0.5168	0.0653	0.85603	-0.121
Mof_C 	C 	0.8687	0.541	0.84702	0.019
Mof_H 	H 	0.874	0.5259	0.8599	0.044
Mof_C 	C 	0.8491	0.6071	0.78759	0.39
Mof_C 	C 	0.3805	0.1493	0.83661	-0.063
Mof_C 	C 	0.3449	0.1382	0.78296	0.386
Mof_C 	C 	0.4678	0.1558	0.85121	0.218
Mof_C 	C 	0.4049	0.1422	0.81719	0.022
Mof_H 	H 	0.4755	0.1363	0.8131	0.047
Mof_C 	C 	0.1921	0.1594	0.82925	-0.092
Mof_C 	C 	0.9584	0.9743	0.86158	0.328
Mof_C 	C 	0.8782	0.647	0.84055	-0.067
Mof_O 	O 	0.866	0.7007	0.7821	-0.415
Mof_O 	O 	0.83	0.5317	0.77682	-0.427
Mof_C 	C 	0.8515	0.4592	0.83415	-0.096
Mof_C 	C 	0.841	0.4795	0.81456	0.046
Mof_H 	H 	0.8288	0.424	0.806	0.048
Mof_N 	N 	0.9936	0.7851	0.85259	-0.134
Mof_C 	C 	0.7086	0.1117	0.86191	0.366
Mof_C 	C 	0.9044	0.7351	0.85501	0.214
Mof_C 	C 	0.2154	0.1502	0.81006	0.037
Mof_H 	H 	0.1604	0.1482	0.8012	0.051
Mof_O 	O 	0.8426	0.75	0.86838	-0.236
Mof_O 	O 	0.7173	0.7448	0.75502	-0.365
Mof_O 	O 	0.2664	0.1221	0.77259	-0.434
Mof_C 	C 	0.8494	0.5842	0.80848	-0.112
Mof_O 	O 	0.4392	0.1461	0.77813	-0.415
Mof_C 	C 	0.869	0.6683	0.82138	0.025
Mof_H 	H 	0.8758	0.7383	0.817	0.04
Mof_C 	C 	0.021	0.8741	0.86589	-0.061
Mof_H 	H 	0.0102	0.8519	0.8791	0.078
Mof_C 	C 	0.3209	0.1442	0.80423	-0.098
Mof_O 	O 	0.6854	0.5601	0.74802	-0.383
Mof_C 	C 	0.6228	0.9471	0.87463	-0.062
Mof_H 	H 	0.6972	0.9334	0.8778	0.065
Mof_H 	H 	0.5775	0.923	0.885	0.057
Mof_C 	C 	0.6039	0.0673	0.87017	-0.082
Mof_H 	H 	0.5825	0.1068	0.8816	0.09
Mof_C 	C 	0.4981	0.958	0.84851	-0.013
Mof_H 	H 	0.4962	0.959	0.8347	0.045
Mof_H 	H 	0.4309	0.9292	0.8532	0.044
Mof_O 	O 	0.4642	0.0007	0.74877	-0.482
Mof_C 	C 	0.0787	0.7677	0.83831	-0.035
Mof_H 	H 	0.0519	0.7744	0.8254	0.055
Mof_H 	H 	0.1135	0.6987	0.8399	0.05
Mof_C 	C 	0.5913	0.892	0.85554	-0.121
Mof_H 	H 	0.5702	0.8181	0.8576	0.074
Mof_H 	H 	0.6503	0.8938	0.8466	0.084
Mof_C 	C 	0.5067	0.7952	0.749	0.111
Mof_C 	C 	0.1405	0.8916	0.8617	-0.078
Mof_H 	H 	0.1597	0.966	0.8638	0.066
Mof_H 	H 	0.184	0.8472	0.87	0.073
Mof_C 	C 	0.4156	0.8171	0.7485	-0.111
Mof_C 	C 	0.1558	0.8651	0.84401	-0.087
Mof_H 	H 	0.23	0.8442	0.8422	0.061
Mof_H 	H 	0.1412	0.9262	0.8359	0.069
Mof_C 	C 	0.3915	0.9557	0.7463	0.431
Mof_C 	C 	0.5431	0.6821	0.7496	-0.095
Mof_C 	C 	0.6641	0.658	0.75149	0.307
Mof_O 	O 	0.2872	0.9684	0.74487	-0.413
Mof_C 	C 	0.4576	0.6129	0.74882	0.073
Mof_C 	C 	0.3344	0.7382	0.74626	0.066
Mof_Cu	Cu	0.1881	0.92238	0.13324	0.926
Mof_Cu	Cu	0.11748	0.86155	0.16729	0.899
Mof_Cu	Cu	0.5352	0.83602	0.25072	0.902
Mof_Cu	Cu	0.73264	0.8825	0.24529	0.899
Mof_O 	O 	0.2721	0.8371	0.17172	-0.395
Mof_O 	O 	0.102	0.7218	0.15547	-0.409
Mof_O 	O 	0.1986	0.0607	0.14778	-0.38
Mof_O 	O 	0.0461	0.9649	0.12596	-0.384
Mof_O 	O 	0.3291	0.8798	0.14238	-0.405
Mof_O 	O 	0.1505	0.774	0.12619	-0.389
Mof_O 	O 	0.1364	0.0069	0.17634	-0.389
Mof_O 	O 	0.2447	0.493	0.14182	-0.288
Mof_O 	O 	0.9823	0.9116	0.15458	-0.388
Mof_C 	C 	0.1659	0.0786	0.16423	0.339
Mof_C 	C 	0.3447	0.8548	0.15918	0.357
Mof_C 	C 	0.162	0.2736	0.15752	0.013
Mof_H 	H 	0.1722	0.2578	0.1447	0.056
Mof_N 	N 	0.0653	0.5168	0.14397	-0.121
Mof_C 	C 	0.541	0.8687	0.15298	0.019
Mof_H 	H 	0.5259	0.874	0.1401	0.044
Mof_C 	C 	0.6071	0.8491	0.21241	0.39
Mof_C 	C 	0.1493	0.3805	0.16339	-0.063
Mof_C 	C 	0.1382	0.3449	0.21704	0.386
Mof_C 	C 	0.1558	0.4678	0.14879	0.218
Mof_C 	C 	0.1422	0.4049	0.18281	0.022
Mof_H 	H 	0.1363	0.4755	0.1869	0.047
Mof_C 	C 	0.1594	0.1921	0.17075	-0.092
Mof_C 	C 	0.9743	0.9584	0.13842	0.328
Mof_C 	C 	0.647	0.8782	0.15945	-0.067
Mof_O 	O 	0.7007	0.866	0.2179	-0.415
Mof_O 	O 	0.5317	0.83	0.22318	-0.427
Mof_C 	C 	0.4592	0.8515	0.16585	-0.096
Mof_C 	C 	0.4795	0.841	0.18544	0.046
Mof_H 	H 	0.424	0.8288	0.194	0.048
Mof_N 	N 	0.7851	0.9936	0.14741	-0.134
Mof_C 	C 	0.1117	0.7086	0.13809	0.366
Mof_C 	C 	0.7351	0.9044	0.14499	0.214
Mof_C 	C 	0.1502	0.2154	0.18994	0.037
Mof_H 	H 	0.1482	0.1604	0.1988	0.051
Mof_O 	O 	0.75	0.8426	0.13162	-0.236
Mof_O 	O 	0.7448	0.7173	0.24498	-0.365
Mof_O 	O 	0.1221	0.2664	0.22741	-0.434
Mof_C 	C 	0.5842	0.8494	0.19152	-0.112
Mof_O 	O 	0.1461	0.4392	0.22187	-0.415
Mof_C 	C 	0.6683	0.869	0.17862	0.025
Mof_H 	H 	0.7383	0.8758	0.183	0.04
Mof_C 	C 	0.8741	0.021	0.13411	-0.061
Mof_H 	H 	0.8519	0.0102	0.1209	0.078
Mof_C 	C 	0.1442	0.3209	0.19577	-0.098
Mof_O 	O 	0.5601	0.6854	0.25198	-0.383
Mof_C 	C 	0.9471	0.6228	0.12537	-0.062
Mof_H 	H 	0.9334	0.6972	0.1222	0.065
Mof_H 	H 	0.923	0.5775	0.115	0.057
Mof_C 	C 	0.0673	0.6039	0.12983	-0.082
Mof_H 	H 	0.1068	0.5825	0.1184	0.09
Mof_C 	C 	0.958	0.4981	0.15149	-0.013
Mof_H 	H 	0.959	0.4962	0.1653	0.045
Mof_H 	H 	0.9292	0.4309	0.1468	0.044
Mof_O 	O 	0.0007	0.4642	0.25123	-0.482
Mof_C 	C 	0.7677	0.0787	0.16169	-0.035
Mof_H 	H 	0.7744	0.0519	0.1746	0.055
Mof_H 	H 	0.6987	0.1135	0.1601	0.05
Mof_C 	C 	0.892	0.5913	0.14446	-0.121
Mof_H 	H 	0.8181	0.5702	0.1424	0.074
Mof_H 	H 	0.8938	0.6503	0.1534	0.084
Mof_C 	C 	0.7952	0.5067	0.251	0.111
Mof_C 	C 	0.8916	0.1405	0.1383	-0.078
Mof_H 	H 	0.966	0.1597	0.1362	0.066
Mof_H 	H 	0.8472	0.184	0.13	0.073
Mof_C 	C 	0.8171	0.4156	0.2515	-0.111
Mof_C 	C 	0.8651	0.1558	0.15599	-0.087
Mof_H 	H 	0.8442	0.23	0.1578	0.061
Mof_H 	H 	0.9262	0.1412	0.1641	0.069
Mof_C 	C 	0.9557	0.3915	0.2537	0.431
Mof_C 	C 	0.6821	0.5431	0.2504	-0.095
Mof_C 	C 	0.658	0.6641	0.24851	0.307
Mof_O 	O 	0.9684	0.2872	0.25513	-0.413
Mof_C 	C 	0.6129	0.4576	0.25118	0.073
Mof_C 	C 	0.7382	0.3344	0.25374	0.066
Mof_Cu	Cu	0.8119	0.07762	0.63324	0.926
Mof_Cu	Cu	0.88252	0.13845	0.66729	0.899
Mof_Cu	Cu	0.4648	0.16398	0.75072	0.902
Mof_Cu	Cu	0.26736	0.1175	0.74529	0.899
Mof_O 	O 	0.7279	0.1629	0.67172	-0.395
Mof_O 	O 	0.898	0.2782	0.65547	-0.409
Mof_O 	O 	0.8014	0.9393	0.64778	-0.38
Mof_O 	O 	0.9539	0.0351	0.62596	-0.384
Mof_O 	O 	0.6709	0.1202	0.64238	-0.405
Mof_O 	O 	0.8495	0.226	0.62619	-0.389
Mof_O 	O 	0.8636	0.9931	0.67634	-0.389
Mof_O 	O 	0.7553	0.507	0.64182	-0.288
Mof_O 	O 	0.0177	0.0884	0.65458	-0.388
Mof_C 	C 	0.8341	0.9214	0.66423	0.339
Mof_C 	C 	0.6553	0.1452	0.65918	0.357
Mof_C 	C 	0.838	0.7264	0.65752	0.013
Mof_H 	H 	0.8278	0.7422	0.6447	0.056
Mof_N 	N 	0.9347	0.4832	0.64397	-0.121
Mof_C 	C 	0.459	0.1313	0.65298	0.019
Mof_H 	H 	0.4741	0.126	0.6401	0.044
Mof_C 	C 	0.3929	0.1509	0.71241	0.39
Mof_C 	C 	0.8507	0.6195	0.66339	-0.063
Mof_C 	C 	0.8618	0.6551	0.71704	0.386
Mof_C 	C 	0.8442	0.5322	0.64879	0.218
Mof_C 	C 	0.8578	0.5951	0.68281	0.022
Mof_H 	H 	0.8637	0.5245	0.6869	0.047
Mof_C 	C 	0.8406	0.8079	0.67075	-0.092
Mof_C 	C 	0.0257	0.0416	0.63842	0.328
Mof_C 	C 	0.353	0.1218	0.65945	-0.067
Mof_O 	O 	0.2993	0.134	0.7179	-0.415
Mof_O 	O 	0.4683	0.17	0.72318	-0.427
Mof_C 	C 	0.5408	0.1485	0.66585	-0.096
Mof_C 	C 	0.5205	0.159	0.68544	0.046
Mof_H 	H 	0.576	0.1712	0.694	0.048
Mof_N 	N 	0.2149	0.0064	0.64741	-0.134
Mof_C 	C 	0.8883	0.2914	0.63809	0.366
Mof_C 	C 	0.2649	0.0956	0.64499	0.214
Mof_C 	C 	0.8498	0.7846	0.68994	0.037
Mof_H 	H 	0.8518	0.8396	0.6988	0.051
Mof_O 	O 	0.25	0.1574	0.63162	-0.236
Mof_O 	O 	0.2552	0.2827	0.74498	-0.365
Mof_O 	O 	0.8779	0.7336	0.72741	-0.434
Mof_C 	C 	0.4158	0.1506	0.69152	-0.112
Mof_O 	O 	0.8539	0.5608	0.72187	-0.415
Mof_C 	C 	0.3317	0.131	0.67862	0.025
Mof_H 	H 	0.2617	0.1242	0.683	0.04
Mof_C 	C 	0.1259	0.979	0.63411	-0.061
Mof_H 	H 	0.1481	0.9898	0.6209	0.078
Mof_C 	C 	0.8558	0.6791	0.69577	-0.098
Mof_O 	O 	0.4399	0.3146	0.75198	-0.383
Mof_C 	C 	0.0529	0.3772	0.62537	-0.062
Mof_H 	H 	0.0666	0.3028	0.6222	0.065
Mof_H 	H 	0.077	0.4225	0.615	0.057
Mof_C 	C 	0.9327	0.3961	0.62983	-0.082
Mof_H 	H 	0.8932	0.4175	0.6184	0.09
Mof_C 	C 	0.042	0.5019	0.65149	-0.013
Mof_H 	H 	0.041	0.5038	0.6653	0.045
Mof_H 	H 	0.0708	0.5691	0.6468	0.044
Mof_O 	O 	0.9993	0.5358	0.75123	-0.482
Mof_C 	C 	0.2323	0.9213	0.66169	-0.035
Mof_H 	H 	0.2256	0.9481	0.6746	0.055
Mof_H 	H 	0.3013	0.8865	0.6601	0.05
Mof_C 	C 	0.108	0.4087	0.64446	-0.121
Mof_H 	H 	0.1819	0.4298	0.6424	0.074
Mof_H 	H 	0.1062	0.3497	0.6534	0.084
Mof_C 	C 	0.2048	0.4933	0.751	0.111
Mof_C 	C 	0.1084	0.8595	0.6383	-0.078
Mof_H 	H 	0.034	0.8403	0.6362	0.066
Mof_H 	H 	0.1528	0.816	0.63	0.073
Mof_C 	C 	0.1829	0.5844	0.7515	-0.111
Mof_C 	C 	0.1349	0.8442	0.65599	-0.087
Mof_H 	H 	0.1558	0.77	0.6578	0.061
Mof_H 	H 	0.0738	0.8588	0.6641	0.069
Mof_C 	C 	0.0443	0.6085	0.7537	0.431
Mof_C 	C 	0.3179	0.4569	0.7504	-0.095
Mof_C 	C 	0.342	0.3359	0.74851	0.307
Mof_O 	O 	0.0316	0.7128	0.75513	-0.413
Mof_C 	C 	0.3871	0.5424	0.75118	0.073
Mof_C 	C 	0.2618	0.6656	0.75374	0.066
Mof_Cu	Cu	0.42238	0.3119	0.88324	0.928
Mof_Cu	Cu	0.36155	0.38252	0.91729	0.902
Mof_Cu	Cu	0.33602	0.9648	0.00072	0.902
Mof_Cu	Cu	0.3825	0.76736	0.99529	0.9
Mof_O 	O 	0.3371	0.2279	0.92172	-0.391
Mof_O 	O 	0.2218	0.398	0.90547	-0.405
Mof_O 	O 	0.5607	0.3014	0.89778	-0.385
Mof_O 	O 	0.4649	0.4539	0.87596	-0.381
Mof_O 	O 	0.3798	0.1709	0.89238	-0.402
Mof_O 	O 	0.274	0.3495	0.87619	-0.388
Mof_O 	O 	0.5069	0.3636	0.92634	-0.394
Mof_O 	O 	0.993	0.2553	0.89182	-0.29
Mof_O 	O 	0.4116	0.5177	0.90458	-0.389
Mof_C 	C 	0.5786	0.3341	0.91423	0.339
Mof_C 	C 	0.3548	0.1553	0.90918	0.357
Mof_C 	C 	0.7736	0.338	0.90752	0.011
Mof_H 	H 	0.7578	0.3278	0.8947	0.056
Mof_N 	N 	0.0168	0.4347	0.89397	-0.108
Mof_C 	C 	0.3687	0.959	0.90298	0.015
Mof_H 	H 	0.374	0.9741	0.8901	0.047
Mof_C 	C 	0.3491	0.8929	0.96241	0.392
Mof_C 	C 	0.8805	0.3507	0.91339	-0.06
Mof_C 	C 	0.8449	0.3618	0.96704	0.386
Mof_C 	C 	0.9678	0.3442	0.89879	0.208
Mof_C 	C 	0.9049	0.3578	0.93281	0.02
Mof_H 	H 	0.9755	0.3637	0.9369	0.047
Mof_C 	C 	0.6921	0.3406	0.92075	-0.092
Mof_C 	C 	0.4584	0.5257	0.88842	0.338
Mof_C 	C 	0.3782	0.853	0.90945	-0.064
Mof_O 	O 	0.366	0.7993	0.9679	-0.414
Mof_O 	O 	0.33	0.9683	0.97318	-0.428
Mof_C 	C 	0.3515	0.0408	0.91585	-0.092
Mof_C 	C 	0.341	0.0205	0.93544	0.053
Mof_H 	H 	0.3288	0.076	0.944	0.049
Mof_N 	N 	0.4936	0.7149	0.89741	-0.125
Mof_C 	C 	0.2086	0.3883	0.88809	0.366
Mof_C 	C 	0.4044	0.7649	0.89499	0.214
Mof_C 	C 	0.7154	0.3498	0.93994	0.037
Mof_H 	H 	0.6604	0.3518	0.9488	0.05
Mof_O 	O 	0.3426	0.75	0.88162	-0.234
Mof_O 	O 	0.2173	0.7552	0.99498	-0.365
Mof_O 	O 	0.7664	0.3779	0.97741	-0.433
Mof_C 	C 	0.3494	0.9158	0.94152	-0.115
Mof_O 	O 	0.9392	0.3539	0.97187	-0.415
Mof_C 	C 	0.369	0.8317	0.92862	0.026
Mof_H 	H 	0.3758	0.7617	0.933	0.041
Mof_C 	C 	0.521	0.6259	0.88411	-0.078
Mof_H 	H 	0.5102	0.6481	0.8709	0.08
Mof_C 	C 	0.8209	0.3558	0.94577	-0.097
Mof_O 	O 	0.1854	0.9399	0.00198	-0.382
Mof_C 	C 	0.1228	0.5529	0.87537	-0.076
Mof_H 	H 	0.1972	0.5666	0.8722	0.07
Mof_H 	H 	0.0775	0.577	0.865	0.064
Mof_C 	C 	0.1039	0.4327	0.87983	-0.077
Mof_H 	H 	0.0825	0.3932	0.8684	0.091
Mof_C 	C 	0.9981	0.542	0.90149	-0.046
Mof_H 	H 	0.9962	0.541	0.9153	0.051
Mof_H 	H 	0.9309	0.5708	0.8968	0.052
Mof_O 	O 	0.9642	0.4993	0.00123	-0.474
Mof_C 	C 	0.5787	0.7323	0.91169	-0.04
Mof_H 	H 	0.5519	0.7256	0.9246	0.053
Mof_H 	H 	0.6135	0.8013	0.9101	0.049
Mof_C 	C 	0.0913	0.608	0.89446	-0.092
Mof_H 	H 	0.0702	0.6819	0.8924	0.067
Mof_H 	H 	0.1503	0.6062	0.9034	0.077
Mof_C 	C 	0.0067	0.7048	0.001	0.119
Mof_C 	C 	0.6405	0.6084	0.8883	-0.067
Mof_H 	H 	0.6597	0.534	0.8862	0.062
Mof_H 	H 	0.684	0.6528	0.88	0.069
Mof_C 	C 	0.9156	0.6829	0.0015	-0.12
Mof_C 	C 	0.6558	0.6349	0.90599	-0.093
Mof_H 	H 	0.73	0.6558	0.9078	0.061
Mof_H 	H 	0.6412	0.5738	0.9141	0.069
Mof_C 	C 	0.8915	0.5443	0.0037	0.42
Mof_C 	C 	0.0431	0.8179	0.0004	-0.09
Mof_C 	C 	0.1641	0.842	0.99851	0.306
Mof_O 	O 	0.7872	0.5316	0.00513	-0.414
Mof_C 	C 	0.9576	0.8871	0.00118	0.065
Mof_C 	C 	0.8344	0.7618	0.00374	0.064
Mof_Cu	Cu	0.57762	0.6881	0.38324	0.928
Mof_Cu	Cu	0.63845	0.61748	0.41729	0.902
Mof_Cu	Cu	0.66398	0.0352	0.50072	0.902
Mof_Cu	Cu	0.6175	0.23264	0.49529	0.9
Mof_O 	O 	0.6629	0.7721	0.42172	-0.391
Mof_O 	O 	0.7782	0.602	0.40547	-0.405
Mof_O 	O 	0.4393	0.6986	0.39778	-0.385
Mof_O 	O 	0.5351	0.5461	0.37596	-0.381
Mof_O 	O 	0.6202	0.8291	0.39238	-0.402
Mof_O 	O 	0.726	0.6505	0.37619	-0.388
Mof_O 	O 	0.4931	0.6364	0.42634	-0.394
Mof_O 	O 	0.007	0.7447	0.39182	-0.29
Mof_O 	O 	0.5884	0.4823	0.40458	-0.389
Mof_C 	C 	0.4214	0.6659	0.41423	0.339
Mof_C 	C 	0.6452	0.8447	0.40918	0.357
Mof_C 	C 	0.2264	0.662	0.40752	0.011
Mof_H 	H 	0.2422	0.6722	0.3947	0.056
Mof_N 	N 	0.9832	0.5653	0.39397	-0.108
Mof_C 	C 	0.6313	0.041	0.40298	0.015
Mof_H 	H 	0.626	0.0259	0.3901	0.047
Mof_C 	C 	0.6509	0.1071	0.46241	0.392
Mof_C 	C 	0.1195	0.6493	0.41339	-0.06
Mof_C 	C 	0.1551	0.6382	0.46704	0.386
Mof_C 	C 	0.0322	0.6558	0.39879	0.208
Mof_C 	C 	0.0951	0.6422	0.43281	0.02
Mof_H 	H 	0.0245	0.6363	0.4369	0.047
Mof_C 	C 	0.3079	0.6594	0.42075	-0.092
Mof_C 	C 	0.5416	0.4743	0.38842	0.338
Mof_C 	C 	0.6218	0.147	0.40945	-0.064
Mof_O 	O 	0.634	0.2007	0.4679	-0.414
Mof_O 	O 	0.67	0.0317	0.47318	-0.428
Mof_C 	C 	0.6485	0.9592	0.41585	-0.092
Mof_C 	C 	0.659	0.9795	0.43544	0.053
Mof_H 	H 	0.6712	0.924	0.444	0.049
Mof_N 	N 	0.5064	0.2851	0.39741	-0.125
Mof_C 	C 	0.7914	0.6117	0.38809	0.366
Mof_C 	C 	0.5956	0.2351	0.39499	0.214
Mof_C 	C 	0.2846	0.6502	0.43994	0.037
Mof_H 	H 	0.3396	0.6482	0.4488	0.05
Mof_O 	O 	0.6574	0.25	0.38162	-0.234
Mof_O 	O 	0.7827	0.2448	0.49498	-0.365
Mof_O 	O 	0.2336	0.6221	0.47741	-0.433
Mof_C 	C 	0.6506	0.0842	0.44152	-0.115
Mof_O 	O 	0.0608	0.6461	0.47187	-0.415
Mof_C 	C 	0.631	0.1683	0.42862	0.026
Mof_H 	H 	0.6242	0.2383	0.433	0.041
Mof_C 	C 	0.479	0.3741	0.38411	-0.078
Mof_H 	H 	0.4898	0.3519	0.3709	0.08
Mof_C 	C 	0.1791	0.6442	0.44577	-0.097
Mof_O 	O 	0.8146	0.0601	0.50198	-0.382
Mof_C 	C 	0.8772	0.4471	0.37537	-0.076
Mof_H 	H 	0.8028	0.4334	0.3722	0.07
Mof_H 	H 	0.9225	0.423	0.365	0.064
Mof_C 	C 	0.8961	0.5673	0.37983	-0.077
Mof_H 	H 	0.9175	0.6068	0.3684	0.091
Mof_C 	C 	0.0019	0.458	0.40149	-0.046
Mof_H 	H 	0.0038	0.459	0.4153	0.051
Mof_H 	H 	0.0691	0.4292	0.3968	0.052
Mof_O 	O 	0.0358	0.5007	0.50123	-0.474
Mof_C 	C 	0.4213	0.2677	0.41169	-0.04
Mof_H 	H 	0.4481	0.2744	0.4246	0.053
Mof_H 	H 	0.3865	0.1987	0.4101	0.049
Mof_C 	C 	0.9087	0.392	0.39446	-0.092
Mof_H 	H 	0.9298	0.3181	0.3924	0.067
Mof_H 	H 	0.8497	0.3938	0.4034	0.077
Mof_C 	C 	0.9933	0.2952	0.501	0.119
Mof_C 	C 	0.3595	0.3916	0.3883	-0.067
Mof_H 	H 	0.3403	0.466	0.3862	0.062
Mof_H 	H 	0.316	0.3472	0.38	0.069
Mof_C 	C 	0.0844	0.3171	0.5015	-0.12
Mof_C 	C 	0.3442	0.3651	0.40599	-0.093
Mof_H 	H 	0.27	0.3442	0.4078	0.061
Mof_H 	H 	0.3588	0.4262	0.4141	0.069
Mof_C 	C 	0.1085	0.4557	0.5037	0.42
Mof_C 	C 	0.9569	0.1821	0.5004	-0.09
Mof_C 	C 	0.8359	0.158	0.49851	0.306
Mof_O 	O 	0.2128	0.4684	0.50513	-0.414
Mof_C 	C 	0.0424	0.1129	0.50118	0.065
Mof_C 	C 	0.1656	0.2382	0.50374	0.064
Mof_C 	C 	0.8654	0.8654	-0	-0.099
Mof_C 	C 	0.1346	0.1346	0.5	-0.099
Mof_C 	C 	0.6346	0.3654	0.25	-0.104
Mof_C 	C 	0.3654	0.6346	0.75	-0.104
_end
