data_functionalizedCrystal
_audit_creation_method	'EQeq! by Chris Wilmer'
_symmetry_space_group_name_H-M	'P1'
_symmetry_Int_Tables_number	1
_symmetry_cell_setting	triclinic
loop_
_symmetry_equiv_pos_as_xyz
  x,y,z
_cell_length_a	13.4109
_cell_length_b	16.2568
_cell_length_c	27.9028
_cell_angle_alpha	90
_cell_angle_beta	98.984
_cell_angle_gamma	90
loop_
_atom_site_label
_atom_site_type_symbol
_atom_site_fract_x
_atom_site_fract_y
_atom_site_fract_z
_atom_site_charge
Mof_Ba	Ba	0.37181	0.74371	0.82015	1.541
Mof_Ba	Ba	0.65078	0.86001	0.76807	1.479
Mof_Ba	Ba	0.38622	0.59438	0.959	1.554
Mof_C 	C 	0.6125	0.5877	0.81462	-0.138
Mof_C 	C 	0.6209	0.6738	0.7962	0.394
Mof_O 	O 	0.6856	0.6874	0.7695	-0.563
Mof_O 	O 	0.5653	0.7285	0.81014	-0.58
Mof_C 	C 	0.6048	0.5728	0.86295	-0.079
Mof_C 	C 	0.5905	0.6443	0.8952	0.343
Mof_O 	O 	0.5025	0.6664	0.89923	-0.558
Mof_O 	O 	0.6698	0.6784	0.91671	-0.357
Mof_C 	C 	0.6211	0.4936	0.88182	-0.131
Mof_C 	C 	0.6221	0.4777	0.93467	0.379
Mof_O 	O 	0.5621	0.515	0.95718	-0.564
Mof_O 	O 	0.6836	0.4239	0.95419	-0.573
Mof_C 	C 	0.6392	0.4291	0.85146	-0.085
Mof_C 	C 	0.6702	0.3449	0.87279	0.369
Mof_O 	O 	0.6012	0.2966	0.87956	-0.383
Mof_O 	O 	0.762	0.3301	0.88096	-0.584
Mof_C 	C 	0.6307	0.4419	0.8013	-0.133
Mof_C 	C 	0.626	0.3713	0.76689	0.361
Mof_O 	O 	0.6866	0.312	0.77463	-0.557
Mof_O 	O 	0.5553	0.3743	0.73114	-0.555
Mof_C 	C 	0.6193	0.5218	0.78326	-0.069
Mof_C 	C 	0.6154	0.5399	0.7295	0.307
Mof_O 	O 	0.6919	0.5256	0.71034	-0.461
Mof_O 	O 	0.5345	0.5728	0.70863	-0.361
Mof_Ba	Ba	0.87181	0.24371	0.32015	1.538
Mof_Ba	Ba	0.15078	0.36001	0.26807	1.48
Mof_Ba	Ba	0.88622	0.09438	0.459	1.543
Mof_C 	C 	0.1125	0.0877	0.31462	-0.141
Mof_C 	C 	0.1209	0.1738	0.2962	0.397
Mof_O 	O 	0.1856	0.1874	0.2695	-0.562
Mof_O 	O 	0.0653	0.2285	0.31014	-0.579
Mof_C 	C 	0.1048	0.0728	0.36295	-0.07
Mof_C 	C 	0.0905	0.1443	0.3952	0.34
Mof_O 	O 	0.0025	0.1664	0.39923	-0.554
Mof_O 	O 	0.1698	0.1784	0.41671	-0.355
Mof_C 	C 	0.1211	0.9936	0.38182	-0.138
Mof_C 	C 	0.1221	0.9777	0.43467	0.373
Mof_O 	O 	0.0621	0.015	0.45718	-0.556
Mof_O 	O 	0.1836	0.9239	0.45419	-0.571
Mof_C 	C 	0.1392	0.9291	0.35146	-0.082
Mof_C 	C 	0.1702	0.8449	0.37279	0.368
Mof_O 	O 	0.1012	0.7966	0.37956	-0.383
Mof_O 	O 	0.262	0.8301	0.38096	-0.584
Mof_C 	C 	0.1307	0.9419	0.3013	-0.142
Mof_C 	C 	0.126	0.8713	0.26689	0.364
Mof_O 	O 	0.1866	0.812	0.27463	-0.558
Mof_O 	O 	0.0553	0.8743	0.23114	-0.559
Mof_C 	C 	0.1193	0.0218	0.28326	-0.061
Mof_C 	C 	0.1154	0.0399	0.2295	0.305
Mof_O 	O 	0.1919	0.0256	0.21034	-0.459
Mof_O 	O 	0.0345	0.0728	0.20863	-0.36
Mof_Ba	Ba	0.12819	0.74371	0.17985	1.535
Mof_Ba	Ba	0.84922	0.86001	0.23193	1.487
Mof_Ba	Ba	0.11378	0.59438	0.041	1.548
Mof_C 	C 	0.8875	0.5877	0.18538	-0.136
Mof_C 	C 	0.8791	0.6738	0.2038	0.395
Mof_O 	O 	0.8144	0.6874	0.2305	-0.562
Mof_O 	O 	0.9347	0.7285	0.18986	-0.578
Mof_C 	C 	0.8952	0.5728	0.13705	-0.078
Mof_C 	C 	0.9095	0.6443	0.1048	0.342
Mof_O 	O 	0.9975	0.6664	0.10077	-0.555
Mof_O 	O 	0.8302	0.6784	0.08329	-0.356
Mof_C 	C 	0.8789	0.4936	0.11818	-0.13
Mof_C 	C 	0.8779	0.4777	0.06533	0.379
Mof_O 	O 	0.9379	0.515	0.04282	-0.562
Mof_O 	O 	0.8164	0.4239	0.04581	-0.572
Mof_C 	C 	0.8608	0.4291	0.14854	-0.085
Mof_C 	C 	0.8298	0.3449	0.12721	0.37
Mof_O 	O 	0.8988	0.2966	0.12044	-0.383
Mof_O 	O 	0.738	0.3301	0.11904	-0.585
Mof_C 	C 	0.8693	0.4419	0.1987	-0.133
Mof_C 	C 	0.874	0.3713	0.23311	0.361
Mof_O 	O 	0.8134	0.312	0.22537	-0.558
Mof_O 	O 	0.9447	0.3743	0.26886	-0.555
Mof_C 	C 	0.8807	0.5218	0.21674	-0.069
Mof_C 	C 	0.8846	0.5399	0.2705	0.307
Mof_O 	O 	0.8081	0.5256	0.28966	-0.461
Mof_O 	O 	0.9655	0.5728	0.29137	-0.361
Mof_Ba	Ba	0.62819	0.24371	0.67985	1.542
Mof_Ba	Ba	0.34922	0.36001	0.73193	1.48
Mof_Ba	Ba	0.61378	0.09438	0.541	1.553
Mof_C 	C 	0.3875	0.0877	0.68538	-0.138
Mof_C 	C 	0.3791	0.1738	0.7038	0.396
Mof_O 	O 	0.3144	0.1874	0.7305	-0.563
Mof_O 	O 	0.4347	0.2285	0.68986	-0.58
Mof_C 	C 	0.3952	0.0728	0.63705	-0.076
Mof_C 	C 	0.4095	0.1443	0.6048	0.342
Mof_O 	O 	0.4975	0.1664	0.60077	-0.557
Mof_O 	O 	0.3302	0.1784	0.58329	-0.356
Mof_C 	C 	0.3789	0.9936	0.61818	-0.133
Mof_C 	C 	0.3779	0.9777	0.56533	0.379
Mof_O 	O 	0.4379	0.015	0.54282	-0.563
Mof_O 	O 	0.3164	0.9239	0.54581	-0.572
Mof_C 	C 	0.3608	0.9291	0.64854	-0.084
Mof_C 	C 	0.3298	0.8449	0.62721	0.369
Mof_O 	O 	0.3988	0.7966	0.62044	-0.382
Mof_O 	O 	0.238	0.8301	0.61904	-0.584
Mof_C 	C 	0.3693	0.9419	0.6987	-0.136
Mof_C 	C 	0.374	0.8713	0.73311	0.362
Mof_O 	O 	0.3134	0.812	0.72537	-0.558
Mof_O 	O 	0.4447	0.8743	0.76886	-0.556
Mof_C 	C 	0.3807	0.0218	0.71674	-0.066
Mof_C 	C 	0.3846	0.0399	0.7705	0.306
Mof_O 	O 	0.3081	0.0256	0.78966	-0.461
Mof_O 	O 	0.4655	0.0728	0.79137	-0.362
Mof_Ba	Ba	0.62819	0.25629	0.17985	1.542
Mof_Ba	Ba	0.34922	0.13999	0.23193	1.48
Mof_Ba	Ba	0.61378	0.40562	0.041	1.555
Mof_C 	C 	0.3875	0.4123	0.18538	-0.137
Mof_C 	C 	0.3791	0.3262	0.2038	0.395
Mof_O 	O 	0.3144	0.3126	0.2305	-0.562
Mof_O 	O 	0.4347	0.2715	0.18986	-0.58
Mof_C 	C 	0.3952	0.4272	0.13705	-0.079
Mof_C 	C 	0.4095	0.3557	0.1048	0.343
Mof_O 	O 	0.4975	0.3336	0.10077	-0.558
Mof_O 	O 	0.3302	0.3216	0.08329	-0.357
Mof_C 	C 	0.3789	0.5064	0.11818	-0.131
Mof_C 	C 	0.3779	0.5223	0.06533	0.379
Mof_O 	O 	0.4379	0.485	0.04282	-0.564
Mof_O 	O 	0.3164	0.5761	0.04581	-0.573
Mof_C 	C 	0.3608	0.5709	0.14854	-0.085
Mof_C 	C 	0.3298	0.6551	0.12721	0.369
Mof_O 	O 	0.3988	0.7034	0.12044	-0.383
Mof_O 	O 	0.238	0.6699	0.11904	-0.584
Mof_C 	C 	0.3693	0.5581	0.1987	-0.133
Mof_C 	C 	0.374	0.6287	0.23311	0.361
Mof_O 	O 	0.3134	0.688	0.22537	-0.557
Mof_O 	O 	0.4447	0.6257	0.26886	-0.555
Mof_C 	C 	0.3807	0.4782	0.21674	-0.069
Mof_C 	C 	0.3846	0.4601	0.2705	0.307
Mof_O 	O 	0.3081	0.4744	0.28966	-0.461
Mof_O 	O 	0.4655	0.4272	0.29137	-0.361
Mof_Ba	Ba	0.12819	0.75629	0.67985	1.538
Mof_Ba	Ba	0.84922	0.63999	0.73193	1.48
Mof_Ba	Ba	0.11378	0.90562	0.541	1.543
Mof_C 	C 	0.8875	0.9123	0.68538	-0.141
Mof_C 	C 	0.8791	0.8262	0.7038	0.397
Mof_O 	O 	0.8144	0.8126	0.7305	-0.562
Mof_O 	O 	0.9347	0.7715	0.68986	-0.579
Mof_C 	C 	0.8952	0.9272	0.63705	-0.07
Mof_C 	C 	0.9095	0.8557	0.6048	0.34
Mof_O 	O 	0.9975	0.8336	0.60077	-0.554
Mof_O 	O 	0.8302	0.8216	0.58329	-0.355
Mof_C 	C 	0.8789	0.0064	0.61818	-0.138
Mof_C 	C 	0.8779	0.0223	0.56533	0.373
Mof_O 	O 	0.9379	0.985	0.54282	-0.556
Mof_O 	O 	0.8164	0.0761	0.54581	-0.571
Mof_C 	C 	0.8608	0.0709	0.64854	-0.082
Mof_C 	C 	0.8298	0.1551	0.62721	0.368
Mof_O 	O 	0.8988	0.2034	0.62044	-0.383
Mof_O 	O 	0.738	0.1699	0.61904	-0.584
Mof_C 	C 	0.8693	0.0581	0.6987	-0.142
Mof_C 	C 	0.874	0.1287	0.73311	0.364
Mof_O 	O 	0.8134	0.188	0.72537	-0.558
Mof_O 	O 	0.9447	0.1257	0.76886	-0.559
Mof_C 	C 	0.8807	0.9782	0.71674	-0.061
Mof_C 	C 	0.8846	0.9601	0.7705	0.305
Mof_O 	O 	0.8081	0.9744	0.78966	-0.459
Mof_O 	O 	0.9655	0.9272	0.79137	-0.36
Mof_Ba	Ba	0.87181	0.25629	0.82015	1.535
Mof_Ba	Ba	0.15078	0.13999	0.76807	1.487
Mof_Ba	Ba	0.88622	0.40562	0.959	1.548
Mof_C 	C 	0.1125	0.4123	0.81462	-0.136
Mof_C 	C 	0.1209	0.3262	0.7962	0.395
Mof_O 	O 	0.1856	0.3126	0.7695	-0.562
Mof_O 	O 	0.0653	0.2715	0.81014	-0.578
Mof_C 	C 	0.1048	0.4272	0.86295	-0.078
Mof_C 	C 	0.0905	0.3557	0.8952	0.342
Mof_O 	O 	0.0025	0.3336	0.89923	-0.555
Mof_O 	O 	0.1698	0.3216	0.91671	-0.356
Mof_C 	C 	0.1211	0.5064	0.88182	-0.13
Mof_C 	C 	0.1221	0.5223	0.93467	0.379
Mof_O 	O 	0.0621	0.485	0.95718	-0.562
Mof_O 	O 	0.1836	0.5761	0.95419	-0.572
Mof_C 	C 	0.1392	0.5709	0.85146	-0.085
Mof_C 	C 	0.1702	0.6551	0.87279	0.37
Mof_O 	O 	0.1012	0.7034	0.87956	-0.383
Mof_O 	O 	0.262	0.6699	0.88096	-0.585
Mof_C 	C 	0.1307	0.5581	0.8013	-0.133
Mof_C 	C 	0.126	0.6287	0.76689	0.361
Mof_O 	O 	0.1866	0.688	0.77463	-0.558
Mof_O 	O 	0.0553	0.6257	0.73114	-0.555
Mof_C 	C 	0.1193	0.4782	0.78326	-0.069
Mof_C 	C 	0.1154	0.4601	0.7295	0.307
Mof_O 	O 	0.1919	0.4744	0.71034	-0.461
Mof_O 	O 	0.0345	0.4272	0.70863	-0.361
Mof_Ba	Ba	0.37181	0.75629	0.32015	1.542
Mof_Ba	Ba	0.65078	0.63999	0.26807	1.48
Mof_Ba	Ba	0.38622	0.90562	0.459	1.553
Mof_C 	C 	0.6125	0.9123	0.31462	-0.138
Mof_C 	C 	0.6209	0.8262	0.2962	0.396
Mof_O 	O 	0.6856	0.8126	0.2695	-0.563
Mof_O 	O 	0.5653	0.7715	0.31014	-0.58
Mof_C 	C 	0.6048	0.9272	0.36295	-0.076
Mof_C 	C 	0.5905	0.8557	0.3952	0.342
Mof_O 	O 	0.5025	0.8336	0.39923	-0.557
Mof_O 	O 	0.6698	0.8216	0.41671	-0.356
Mof_C 	C 	0.6211	0.0064	0.38182	-0.133
Mof_C 	C 	0.6221	0.0223	0.43467	0.379
Mof_O 	O 	0.5621	0.985	0.45718	-0.563
Mof_O 	O 	0.6836	0.0761	0.45419	-0.572
Mof_C 	C 	0.6392	0.0709	0.35146	-0.084
Mof_C 	C 	0.6702	0.1551	0.37279	0.369
Mof_O 	O 	0.6012	0.2034	0.37956	-0.382
Mof_O 	O 	0.762	0.1699	0.38096	-0.584
Mof_C 	C 	0.6307	0.0581	0.3013	-0.136
Mof_C 	C 	0.626	0.1287	0.26689	0.362
Mof_O 	O 	0.6866	0.188	0.27463	-0.558
Mof_O 	O 	0.5553	0.1257	0.23114	-0.556
Mof_C 	C 	0.6193	0.9782	0.28326	-0.066
Mof_C 	C 	0.6154	0.9601	0.2295	0.306
Mof_O 	O 	0.6919	0.9744	0.21034	-0.461
Mof_O 	O 	0.5345	0.9272	0.20863	-0.362
_end
