data_functionalizedCrystal
_audit_creation_method	'EQeq! by Chris Wilmer'
_symmetry_space_group_name_H-M	'P1'
_symmetry_Int_Tables_number	1
_symmetry_cell_setting	triclinic
loop_
_symmetry_equiv_pos_as_xyz
  x,y,z
_cell_length_a	35.1544
_cell_length_b	35.1544
_cell_length_c	35.1544
_cell_angle_alpha	90
_cell_angle_beta	90
_cell_angle_gamma	90
loop_
_atom_site_label
_atom_site_type_symbol
_atom_site_fract_x
_atom_site_fract_y
_atom_site_fract_z
_atom_site_charge
Mof_Zn	Zn	0.08384	0.257	0.05076	1.221
Mof_Zn	Zn	0.08515	0.44964	0.1615	1.208
Mof_O 	O 	0.17349	0.4531	0.13403	-0.472
Mof_O 	O 	0.12083	0.4172	0.13391	-0.506
Mof_O 	O 	0.16713	0.27375	0.03971	-0.493
Mof_O 	O 	0.11432	0.30176	0.05977	-0.506
Mof_O 	O 	0.28603	0.3488	0.03938	-0.481
Mof_O 	O 	0.28416	0.40944	0.0587	-0.515
Mof_O 	O 	0.09883	0.21493	0.08183	-0.548
Mof_O 	O 	0.1465	0.19014	0.04635	-0.486
Mof_C 	C 	0.17407	0.3943	0.10102	-0.185
Mof_C 	C 	0.15435	0.363	0.08924	0.115
Mof_H 	H 	0.1289	0.3604	0.096	0.014
Mof_C 	C 	0.1717	0.33476	0.06718	-0.18
Mof_C 	C 	0.20934	0.33937	0.05672	0.118
Mof_H 	H 	0.2213	0.3207	0.0422	0.011
Mof_C 	C 	0.2293	0.37126	0.06748	-0.182
Mof_C 	C 	0.21174	0.39856	0.08973	0.117
Mof_H 	H 	0.2253	0.42	0.0972	0.002
Mof_C 	C 	0.15476	0.42425	0.12497	0.429
Mof_C 	C 	0.14984	0.30038	0.05388	0.432
Mof_C 	C 	0.2696	0.37614	0.05459	0.411
Mof_C 	C 	0.12449	0.18994	0.074	0.417
Mof_C 	C 	0.1271	0.15811	0.10332	-0.227
Mof_C 	C 	0.15605	0.1319	0.10102	0.147
Mof_H 	H 	0.1747	0.1337	0.0811	-0.037
Mof_N 	N 	0.0319	0.4486	0.1437	-0.186
Mof_C 	C 	0.0194	0.4665	0.11	-0.114
Mof_N 	N 	0.0315	0.2648	0.0713	-0.318
Mof_C 	C 	0.0191	0.2924	0.0964	0.032
Mof_C 	C 	0.039	0.3186	0.12	-0.13
Mof_H 	H 	0.0663	0.3189	0.1199	0.064
Mof_C 	C 	0.0195	0.3427	0.1419	0.05
Mof_H 	H 	0.0331	0.3601	0.1581	-0.011
Mof_N 	N 	0.0317	0.4426	0.1486	-0.115
Mof_H 	H 	0.9743	0.453	0.2196	0.029
Mof_H 	H 	0.0126	0.4756	0.2162	0.069
Mof_H 	H 	0.0132	0.4315	0.2229	0.148
Mof_C 	C 	0.0194	0.4372	0.1119	0.218
Mof_C 	C 	0.0396	0.4323	0.079	-0.208
Mof_H 	H 	0.0669	0.4323	0.0794	0.082
Mof_C 	C 	0.0198	0.4272	0.0449	0.096
Mof_H 	H 	0.0335	0.4248	0.0214	0.002
Mof_N 	N 	0.0313	0.2749	0.0468	-0.321
Mof_H 	H 	0.9743	0.2202	0.095	0.582
Mof_H 	H 	0.0128	0.235	0.1118	0.6
Mof_H 	H 	0.0129	0.2055	0.0784	0.585
Mof_C 	C 	0.0194	0.3031	0.0221	0.069
Mof_C 	C 	0.0196	0.3537	0.9771	0.042
Mof_H 	H 	0.0332	0.3715	0.9614	0.02
Mof_H 	H 	0.9743	0.4136	0.2098	0.087
Mof_H 	H 	0.0128	0.3938	0.1993	0.118
Mof_H 	H 	0.013	0.4332	0.2202	0.038
Mof_H 	H 	0.9743	0.2115	0.0231	0.178
Mof_H 	H 	0.0128	0.1965	0.0397	0.132
Mof_H 	H 	0.0129	0.2264	0.0066	0.135
Mof_H 	H 	0.0332	0.5112	0.0266	0.041
Mof_C 	C 	0.0402	0.483	0.0787	0.026
Mof_H 	H 	0.0675	0.4826	0.0786	-0.001
Mof_Zn	Zn	0.58384	0.757	0.55076	1.223
Mof_Zn	Zn	0.58515	0.94964	0.6615	1.206
Mof_O 	O 	0.67349	0.9531	0.63403	-0.478
Mof_O 	O 	0.62083	0.9172	0.63391	-0.506
Mof_O 	O 	0.66713	0.77375	0.53971	-0.497
Mof_O 	O 	0.61432	0.80176	0.55977	-0.504
Mof_O 	O 	0.78603	0.8488	0.53938	-0.485
Mof_O 	O 	0.78416	0.90944	0.5587	-0.515
Mof_O 	O 	0.59883	0.71493	0.58183	-0.557
Mof_O 	O 	0.6465	0.69014	0.54635	-0.496
Mof_C 	C 	0.67407	0.8943	0.60102	-0.186
Mof_C 	C 	0.65435	0.863	0.58924	0.117
Mof_H 	H 	0.6289	0.8604	0.596	0.014
Mof_C 	C 	0.6717	0.83476	0.56718	-0.183
Mof_C 	C 	0.70934	0.83937	0.55672	0.118
Mof_H 	H 	0.7213	0.8207	0.5422	0.007
Mof_C 	C 	0.7293	0.87126	0.56748	-0.185
Mof_C 	C 	0.71174	0.89856	0.58973	0.117
Mof_H 	H 	0.7253	0.92	0.5972	0.001
Mof_C 	C 	0.65476	0.92425	0.62497	0.43
Mof_C 	C 	0.64984	0.80038	0.55388	0.431
Mof_C 	C 	0.7696	0.87614	0.55459	0.411
Mof_C 	C 	0.62449	0.68994	0.574	0.42
Mof_C 	C 	0.6271	0.65811	0.60332	-0.242
Mof_C 	C 	0.65605	0.6319	0.60102	0.156
Mof_H 	H 	0.6747	0.6337	0.5811	-0.049
Mof_N 	N 	0.5319	0.9486	0.6437	-0.18
Mof_C 	C 	0.5194	0.9665	0.61	-0.012
Mof_N 	N 	0.5315	0.7648	0.5713	-0.334
Mof_C 	C 	0.5191	0.7924	0.5964	-0.026
Mof_C 	C 	0.539	0.8186	0.62	-0.072
Mof_H 	H 	0.5663	0.8189	0.6199	0.044
Mof_C 	C 	0.5195	0.8427	0.6419	-0.034
Mof_H 	H 	0.5331	0.8601	0.6581	0.013
Mof_N 	N 	0.5317	0.9426	0.6486	-0.111
Mof_H 	H 	0.4743	0.953	0.7196	0.035
Mof_H 	H 	0.5126	0.9756	0.7162	0.064
Mof_H 	H 	0.5132	0.9315	0.7229	0.166
Mof_C 	C 	0.5194	0.9372	0.6119	0.052
Mof_C 	C 	0.5396	0.9323	0.579	-0.083
Mof_H 	H 	0.5669	0.9323	0.5794	0.039
Mof_C 	C 	0.5198	0.9272	0.5449	-0.025
Mof_H 	H 	0.5335	0.9248	0.5214	0.03
Mof_N 	N 	0.5313	0.7749	0.5468	-0.334
Mof_H 	H 	0.4743	0.7202	0.595	0.666
Mof_H 	H 	0.5128	0.735	0.6118	0.674
Mof_H 	H 	0.5129	0.7055	0.5784	0.659
Mof_C 	C 	0.5194	0.8031	0.5221	0.012
Mof_C 	C 	0.5196	0.8537	0.4771	-0.021
Mof_H 	H 	0.5332	0.8715	0.4614	0.042
Mof_H 	H 	0.4743	0.9136	0.7098	0.09
Mof_H 	H 	0.5128	0.8938	0.6993	0.113
Mof_H 	H 	0.513	0.9332	0.7202	0.034
Mof_H 	H 	0.4743	0.7115	0.5231	0.211
Mof_H 	H 	0.5128	0.6965	0.5397	0.148
Mof_H 	H 	0.5129	0.7264	0.5066	0.179
Mof_H 	H 	0.5332	0.0112	0.5266	0.032
Mof_C 	C 	0.5402	0.983	0.5787	-0.076
Mof_H 	H 	0.5675	0.9826	0.5786	0.024
Mof_Zn	Zn	0.91616	0.743	0.05076	1.223
Mof_Zn	Zn	0.91485	0.55036	0.1615	1.208
Mof_O 	O 	0.82651	0.5469	0.13403	-0.471
Mof_O 	O 	0.87917	0.5828	0.13391	-0.503
Mof_O 	O 	0.83287	0.72625	0.03971	-0.492
Mof_O 	O 	0.88568	0.69824	0.05977	-0.501
Mof_O 	O 	0.71397	0.6512	0.03938	-0.48
Mof_O 	O 	0.71584	0.59056	0.0587	-0.514
Mof_O 	O 	0.90117	0.78507	0.08183	-0.547
Mof_O 	O 	0.8535	0.80986	0.04635	-0.486
Mof_C 	C 	0.82593	0.6057	0.10102	-0.183
Mof_C 	C 	0.84565	0.637	0.08924	0.115
Mof_H 	H 	0.8711	0.6396	0.096	0.015
Mof_C 	C 	0.8283	0.66524	0.06718	-0.179
Mof_C 	C 	0.79066	0.66063	0.05672	0.117
Mof_H 	H 	0.7787	0.6793	0.0422	0.011
Mof_C 	C 	0.7707	0.62874	0.06748	-0.181
Mof_C 	C 	0.78826	0.60144	0.08973	0.116
Mof_H 	H 	0.7747	0.58	0.0972	0.002
Mof_C 	C 	0.84524	0.57575	0.12497	0.429
Mof_C 	C 	0.85016	0.69962	0.05388	0.431
Mof_C 	C 	0.7304	0.62386	0.05459	0.411
Mof_C 	C 	0.87551	0.81006	0.074	0.417
Mof_C 	C 	0.8729	0.84189	0.10332	-0.231
Mof_C 	C 	0.84395	0.8681	0.10102	0.149
Mof_H 	H 	0.8253	0.8663	0.0811	-0.039
Mof_N 	N 	0.9681	0.5514	0.1437	-0.175
Mof_C 	C 	0.9806	0.5335	0.11	0.075
Mof_N 	N 	0.9685	0.7352	0.0713	-0.313
Mof_C 	C 	0.9809	0.7076	0.0964	-0.061
Mof_C 	C 	0.961	0.6814	0.12	-0.023
Mof_H 	H 	0.9337	0.6811	0.1199	0.029
Mof_C 	C 	0.9805	0.6573	0.1419	-0.114
Mof_H 	H 	0.9669	0.6399	0.1581	0.038
Mof_N 	N 	0.9683	0.5574	0.1486	-0.103
Mof_H 	H 	0.0257	0.547	0.2196	0.019
Mof_H 	H 	0.9874	0.5244	0.2162	0.036
Mof_H 	H 	0.9868	0.5685	0.2229	0.132
Mof_C 	C 	0.9806	0.5628	0.1119	-0.098
Mof_C 	C 	0.9604	0.5677	0.079	0.017
Mof_H 	H 	0.9331	0.5677	0.0794	0.008
Mof_C 	C 	0.9802	0.5728	0.0449	-0.138
Mof_H 	H 	0.9665	0.5752	0.0214	0.069
Mof_N 	N 	0.9687	0.7251	0.0468	-0.307
Mof_H 	H 	0.0257	0.7798	0.095	0.568
Mof_H 	H 	0.9872	0.765	0.1118	0.567
Mof_H 	H 	0.9871	0.7945	0.0784	0.552
Mof_C 	C 	0.9806	0.6969	0.0221	-0.041
Mof_C 	C 	0.9804	0.6463	0.9771	-0.123
Mof_H 	H 	0.9668	0.6285	0.9614	0.071
Mof_H 	H 	0.0257	0.5864	0.2098	0.077
Mof_H 	H 	0.9872	0.6062	0.1993	0.083
Mof_H 	H 	0.987	0.5668	0.2202	0.024
Mof_H 	H 	0.0257	0.7885	0.0231	0.17
Mof_H 	H 	0.9872	0.8035	0.0397	0.103
Mof_H 	H 	0.9871	0.7736	0.0066	0.121
Mof_H 	H 	0.9668	0.4888	0.0266	0.015
Mof_C 	C 	0.9598	0.517	0.0787	-0.08
Mof_H 	H 	0.9325	0.5174	0.0786	0.035
Mof_Zn	Zn	0.41616	0.243	0.55076	1.223
Mof_Zn	Zn	0.41485	0.05036	0.6615	1.209
Mof_O 	O 	0.32651	0.0469	0.63403	-0.467
Mof_O 	O 	0.37917	0.0828	0.63391	-0.504
Mof_O 	O 	0.33287	0.22625	0.53971	-0.497
Mof_O 	O 	0.38568	0.19824	0.55977	-0.504
Mof_O 	O 	0.21397	0.1512	0.53938	-0.485
Mof_O 	O 	0.21584	0.09056	0.5587	-0.512
Mof_O 	O 	0.40117	0.28507	0.58183	-0.557
Mof_O 	O 	0.3535	0.30986	0.54635	-0.496
Mof_C 	C 	0.32593	0.1057	0.60102	-0.182
Mof_C 	C 	0.34565	0.137	0.58924	0.115
Mof_H 	H 	0.3711	0.1396	0.596	0.014
Mof_C 	C 	0.3283	0.16524	0.56718	-0.181
Mof_C 	C 	0.29066	0.16063	0.55672	0.117
Mof_H 	H 	0.2787	0.1793	0.5422	0.007
Mof_C 	C 	0.2707	0.12874	0.56748	-0.183
Mof_C 	C 	0.28826	0.10144	0.58973	0.115
Mof_H 	H 	0.2747	0.08	0.5972	0.005
Mof_C 	C 	0.34524	0.07575	0.62497	0.428
Mof_C 	C 	0.35016	0.19962	0.55388	0.431
Mof_C 	C 	0.2304	0.12386	0.55459	0.41
Mof_C 	C 	0.37551	0.31006	0.574	0.42
Mof_C 	C 	0.3729	0.34189	0.60332	-0.242
Mof_C 	C 	0.34395	0.3681	0.60102	0.156
Mof_H 	H 	0.3253	0.3663	0.5811	-0.049
Mof_N 	N 	0.4681	0.0514	0.6437	-0.183
Mof_C 	C 	0.4806	0.0335	0.61	-0.021
Mof_N 	N 	0.4685	0.2352	0.5713	-0.334
Mof_C 	C 	0.4809	0.2076	0.5964	-0.026
Mof_C 	C 	0.461	0.1814	0.62	-0.072
Mof_H 	H 	0.4337	0.1811	0.6199	0.044
Mof_C 	C 	0.4805	0.1573	0.6419	-0.034
Mof_H 	H 	0.4669	0.1399	0.6581	0.012
Mof_N 	N 	0.4683	0.0574	0.6486	-0.107
Mof_H 	H 	0.5257	0.047	0.7196	0.029
Mof_H 	H 	0.4874	0.0244	0.7162	0.067
Mof_H 	H 	0.4868	0.0685	0.7229	0.167
Mof_C 	C 	0.4806	0.0628	0.6119	0.061
Mof_C 	C 	0.4604	0.0677	0.579	-0.103
Mof_H 	H 	0.4331	0.0677	0.5794	0.047
Mof_C 	C 	0.4802	0.0728	0.5449	-0.021
Mof_H 	H 	0.4665	0.0752	0.5214	0.028
Mof_N 	N 	0.4687	0.2251	0.5468	-0.334
Mof_H 	H 	0.5257	0.2798	0.595	0.665
Mof_H 	H 	0.4872	0.265	0.6118	0.673
Mof_H 	H 	0.4871	0.2945	0.5784	0.659
Mof_C 	C 	0.4806	0.1969	0.5221	0.012
Mof_C 	C 	0.4804	0.1463	0.4771	-0.021
Mof_H 	H 	0.4668	0.1285	0.4614	0.042
Mof_H 	H 	0.5257	0.0864	0.7098	0.102
Mof_H 	H 	0.4872	0.1062	0.6993	0.122
Mof_H 	H 	0.487	0.0668	0.7202	0.035
Mof_H 	H 	0.5257	0.2885	0.5231	0.21
Mof_H 	H 	0.4872	0.3035	0.5397	0.148
Mof_H 	H 	0.4871	0.2736	0.5066	0.179
Mof_H 	H 	0.4668	0.9888	0.5266	0.002
Mof_C 	C 	0.4598	0.017	0.5787	0
Mof_H 	H 	0.4325	0.0174	0.5786	0.015
Mof_Zn	Zn	0.91616	0.257	0.94924	1.22
Mof_Zn	Zn	0.91485	0.44964	0.8385	1.208
Mof_O 	O 	0.82651	0.4531	0.86597	-0.472
Mof_O 	O 	0.87917	0.4172	0.86609	-0.503
Mof_O 	O 	0.83287	0.27375	0.96029	-0.504
Mof_O 	O 	0.88568	0.30176	0.94023	-0.506
Mof_O 	O 	0.71397	0.3488	0.96062	-0.492
Mof_O 	O 	0.71584	0.40944	0.9413	-0.519
Mof_O 	O 	0.90117	0.21493	0.91817	-0.551
Mof_O 	O 	0.8535	0.19014	0.95365	-0.497
Mof_C 	C 	0.82593	0.3943	0.89898	-0.186
Mof_C 	C 	0.84565	0.363	0.91076	0.117
Mof_H 	H 	0.8711	0.3604	0.904	0.014
Mof_C 	C 	0.8283	0.33476	0.93282	-0.185
Mof_C 	C 	0.79066	0.33937	0.94328	0.119
Mof_H 	H 	0.7787	0.3207	0.9578	0.003
Mof_C 	C 	0.7707	0.37126	0.93252	-0.188
Mof_C 	C 	0.78826	0.39856	0.91027	0.118
Mof_H 	H 	0.7747	0.42	0.9028	0.001
Mof_C 	C 	0.84524	0.42425	0.87503	0.429
Mof_C 	C 	0.85016	0.30038	0.94612	0.431
Mof_C 	C 	0.7304	0.37614	0.94541	0.412
Mof_C 	C 	0.87551	0.18994	0.926	0.418
Mof_C 	C 	0.8729	0.15811	0.89668	-0.233
Mof_C 	C 	0.84395	0.1319	0.89898	0.149
Mof_H 	H 	0.8253	0.1337	0.9189	-0.041
Mof_N 	N 	0.9681	0.4486	0.8563	-0.174
Mof_C 	C 	0.9806	0.4665	0.89	0.077
Mof_N 	N 	0.9685	0.2648	0.9287	-0.32
Mof_C 	C 	0.9809	0.2924	0.9036	-0.063
Mof_C 	C 	0.961	0.3186	0.88	-0.021
Mof_H 	H 	0.9337	0.3189	0.8801	0.028
Mof_C 	C 	0.9805	0.3427	0.8581	-0.114
Mof_H 	H 	0.9669	0.3601	0.8419	0.039
Mof_N 	N 	0.9683	0.4426	0.8514	-0.103
Mof_H 	H 	0.0257	0.453	0.7804	0.019
Mof_H 	H 	0.9874	0.4756	0.7838	0.036
Mof_H 	H 	0.9868	0.4315	0.7771	0.132
Mof_C 	C 	0.9806	0.4372	0.8881	-0.1
Mof_C 	C 	0.9604	0.4323	0.921	0.017
Mof_H 	H 	0.9331	0.4323	0.9206	0.006
Mof_C 	C 	0.9802	0.4272	0.9551	-0.139
Mof_H 	H 	0.9665	0.4248	0.9786	0.055
Mof_N 	N 	0.9687	0.2749	0.9532	-0.31
Mof_H 	H 	0.0257	0.2202	0.905	0.571
Mof_H 	H 	0.9872	0.235	0.8882	0.57
Mof_H 	H 	0.9871	0.2055	0.9216	0.555
Mof_C 	C 	0.9806	0.3031	0.9779	-0.061
Mof_C 	C 	0.9804	0.3537	0.0229	-0.103
Mof_H 	H 	0.9668	0.3715	0.0386	0.069
Mof_H 	H 	0.0257	0.4136	0.7902	0.077
Mof_H 	H 	0.9872	0.3938	0.8007	0.083
Mof_H 	H 	0.987	0.4332	0.7798	0.024
Mof_H 	H 	0.0257	0.2115	0.9769	0.181
Mof_H 	H 	0.9872	0.1965	0.9603	0.128
Mof_H 	H 	0.9871	0.2264	0.9934	0.176
Mof_H 	H 	0.9668	0.5112	0.9734	0.007
Mof_C 	C 	0.9598	0.483	0.9213	-0.082
Mof_H 	H 	0.9325	0.4826	0.9214	0.033
Mof_Zn	Zn	0.41616	0.757	0.44924	1.223
Mof_Zn	Zn	0.41485	0.94964	0.3385	1.206
Mof_O 	O 	0.32651	0.9531	0.36597	-0.478
Mof_O 	O 	0.37917	0.9172	0.36609	-0.506
Mof_O 	O 	0.33287	0.77375	0.46029	-0.497
Mof_O 	O 	0.38568	0.80176	0.44023	-0.504
Mof_O 	O 	0.21397	0.8488	0.46062	-0.485
Mof_O 	O 	0.21584	0.90944	0.4413	-0.515
Mof_O 	O 	0.40117	0.71493	0.41817	-0.557
Mof_O 	O 	0.3535	0.69014	0.45365	-0.496
Mof_C 	C 	0.32593	0.8943	0.39898	-0.186
Mof_C 	C 	0.34565	0.863	0.41076	0.117
Mof_H 	H 	0.3711	0.8604	0.404	0.014
Mof_C 	C 	0.3283	0.83476	0.43282	-0.183
Mof_C 	C 	0.29066	0.83937	0.44328	0.118
Mof_H 	H 	0.2787	0.8207	0.4578	0.007
Mof_C 	C 	0.2707	0.87126	0.43252	-0.185
Mof_C 	C 	0.28826	0.89856	0.41027	0.117
Mof_H 	H 	0.2747	0.92	0.4028	0.001
Mof_C 	C 	0.34524	0.92425	0.37503	0.43
Mof_C 	C 	0.35016	0.80038	0.44612	0.431
Mof_C 	C 	0.2304	0.87614	0.44541	0.411
Mof_C 	C 	0.37551	0.68994	0.426	0.42
Mof_C 	C 	0.3729	0.65811	0.39668	-0.242
Mof_C 	C 	0.34395	0.6319	0.39898	0.156
Mof_H 	H 	0.3253	0.6337	0.4189	-0.049
Mof_N 	N 	0.4681	0.9486	0.3563	-0.18
Mof_C 	C 	0.4806	0.9665	0.39	-0.012
Mof_N 	N 	0.4685	0.7648	0.4287	-0.334
Mof_C 	C 	0.4809	0.7924	0.4036	-0.026
Mof_C 	C 	0.461	0.8186	0.38	-0.072
Mof_H 	H 	0.4337	0.8189	0.3801	0.044
Mof_C 	C 	0.4805	0.8427	0.3581	-0.034
Mof_H 	H 	0.4669	0.8601	0.3419	0.013
Mof_N 	N 	0.4683	0.9426	0.3514	-0.111
Mof_H 	H 	0.5257	0.953	0.2804	0.035
Mof_H 	H 	0.4874	0.9756	0.2838	0.064
Mof_H 	H 	0.4868	0.9315	0.2771	0.166
Mof_C 	C 	0.4806	0.9372	0.3881	0.052
Mof_C 	C 	0.4604	0.9323	0.421	-0.083
Mof_H 	H 	0.4331	0.9323	0.4206	0.039
Mof_C 	C 	0.4802	0.9272	0.4551	-0.025
Mof_H 	H 	0.4665	0.9248	0.4786	0.03
Mof_N 	N 	0.4687	0.7749	0.4532	-0.334
Mof_H 	H 	0.5257	0.7202	0.405	0.665
Mof_H 	H 	0.4872	0.735	0.3882	0.674
Mof_H 	H 	0.4871	0.7055	0.4216	0.659
Mof_C 	C 	0.4806	0.8031	0.4779	0.012
Mof_C 	C 	0.4804	0.8537	0.5229	-0.021
Mof_H 	H 	0.4668	0.8715	0.5386	0.042
Mof_H 	H 	0.5257	0.9136	0.2902	0.09
Mof_H 	H 	0.4872	0.8938	0.3007	0.113
Mof_H 	H 	0.487	0.9332	0.2798	0.034
Mof_H 	H 	0.5257	0.7115	0.4769	0.211
Mof_H 	H 	0.4872	0.6965	0.4603	0.148
Mof_H 	H 	0.4871	0.7264	0.4934	0.179
Mof_H 	H 	0.4668	0.0112	0.4734	0.032
Mof_C 	C 	0.4598	0.983	0.4213	-0.076
Mof_H 	H 	0.4325	0.9826	0.4214	0.024
Mof_Zn	Zn	0.08384	0.743	0.94924	1.219
Mof_Zn	Zn	0.08515	0.55036	0.8385	1.209
Mof_O 	O 	0.17349	0.5469	0.86597	-0.472
Mof_O 	O 	0.12083	0.5828	0.86609	-0.506
Mof_O 	O 	0.16713	0.72625	0.96029	-0.504
Mof_O 	O 	0.11432	0.69824	0.94023	-0.51
Mof_O 	O 	0.28603	0.6512	0.96062	-0.492
Mof_O 	O 	0.28416	0.59056	0.9413	-0.519
Mof_O 	O 	0.09883	0.78507	0.91817	-0.55
Mof_O 	O 	0.1465	0.80986	0.95365	-0.497
Mof_C 	C 	0.17407	0.6057	0.89898	-0.188
Mof_C 	C 	0.15435	0.637	0.91076	0.118
Mof_H 	H 	0.1289	0.6396	0.904	0.012
Mof_C 	C 	0.1717	0.66524	0.93282	-0.187
Mof_C 	C 	0.20934	0.66063	0.94328	0.12
Mof_H 	H 	0.2213	0.6793	0.9578	0.003
Mof_C 	C 	0.2293	0.62874	0.93252	-0.189
Mof_C 	C 	0.21174	0.60144	0.91027	0.118
Mof_H 	H 	0.2253	0.58	0.9028	0.001
Mof_C 	C 	0.15476	0.57575	0.87503	0.429
Mof_C 	C 	0.14984	0.69962	0.94612	0.432
Mof_C 	C 	0.2696	0.62386	0.94541	0.412
Mof_C 	C 	0.12449	0.81006	0.926	0.418
Mof_C 	C 	0.1271	0.84189	0.89668	-0.233
Mof_C 	C 	0.15605	0.8681	0.89898	0.149
Mof_H 	H 	0.1747	0.8663	0.9189	-0.041
Mof_N 	N 	0.0319	0.5514	0.8563	-0.186
Mof_C 	C 	0.0194	0.5335	0.89	-0.116
Mof_N 	N 	0.0315	0.7352	0.9287	-0.325
Mof_C 	C 	0.0191	0.7076	0.9036	0.031
Mof_C 	C 	0.039	0.6814	0.88	-0.129
Mof_H 	H 	0.0663	0.6811	0.8801	0.064
Mof_C 	C 	0.0195	0.6573	0.8581	0.05
Mof_H 	H 	0.0331	0.6399	0.8419	-0.011
Mof_N 	N 	0.0317	0.5574	0.8514	-0.115
Mof_H 	H 	0.9743	0.547	0.7804	0.029
Mof_H 	H 	0.0126	0.5244	0.7838	0.07
Mof_H 	H 	0.0132	0.5685	0.7771	0.148
Mof_C 	C 	0.0194	0.5628	0.8881	0.22
Mof_C 	C 	0.0396	0.5677	0.921	-0.21
Mof_H 	H 	0.0669	0.5677	0.9206	0.08
Mof_C 	C 	0.0198	0.5728	0.9551	0.097
Mof_H 	H 	0.0335	0.5752	0.9786	-0.013
Mof_N 	N 	0.0313	0.7251	0.9532	-0.323
Mof_H 	H 	0.9743	0.7798	0.905	0.582
Mof_H 	H 	0.0128	0.765	0.8882	0.6
Mof_H 	H 	0.0129	0.7945	0.9216	0.583
Mof_C 	C 	0.0194	0.6969	0.9779	0.05
Mof_C 	C 	0.0196	0.6463	0.0229	0.062
Mof_H 	H 	0.0332	0.6285	0.0386	0.017
Mof_H 	H 	0.9743	0.5864	0.7902	0.087
Mof_H 	H 	0.0128	0.6062	0.8007	0.118
Mof_H 	H 	0.013	0.5668	0.7798	0.038
Mof_H 	H 	0.9743	0.7885	0.9769	0.187
Mof_H 	H 	0.0128	0.8035	0.9603	0.155
Mof_H 	H 	0.0129	0.7736	0.9934	0.19
Mof_H 	H 	0.0332	0.4888	0.9734	0.034
Mof_C 	C 	0.0402	0.517	0.9213	0.027
Mof_H 	H 	0.0675	0.5174	0.9214	-0.003
Mof_Zn	Zn	0.58384	0.243	0.44924	1.223
Mof_Zn	Zn	0.58515	0.05036	0.3385	1.209
Mof_O 	O 	0.67349	0.0469	0.36597	-0.467
Mof_O 	O 	0.62083	0.0828	0.36609	-0.504
Mof_O 	O 	0.66713	0.22625	0.46029	-0.497
Mof_O 	O 	0.61432	0.19824	0.44023	-0.504
Mof_O 	O 	0.78603	0.1512	0.46062	-0.484
Mof_O 	O 	0.78416	0.09056	0.4413	-0.512
Mof_O 	O 	0.59883	0.28507	0.41817	-0.557
Mof_O 	O 	0.6465	0.30986	0.45365	-0.496
Mof_C 	C 	0.67407	0.1057	0.39898	-0.182
Mof_C 	C 	0.65435	0.137	0.41076	0.115
Mof_H 	H 	0.6289	0.1396	0.404	0.014
Mof_C 	C 	0.6717	0.16524	0.43282	-0.181
Mof_C 	C 	0.70934	0.16063	0.44328	0.117
Mof_H 	H 	0.7213	0.1793	0.4578	0.007
Mof_C 	C 	0.7293	0.12874	0.43252	-0.183
Mof_C 	C 	0.71174	0.10144	0.41027	0.115
Mof_H 	H 	0.7253	0.08	0.4028	0.005
Mof_C 	C 	0.65476	0.07575	0.37503	0.428
Mof_C 	C 	0.64984	0.19962	0.44612	0.431
Mof_C 	C 	0.7696	0.12386	0.44541	0.41
Mof_C 	C 	0.62449	0.31006	0.426	0.42
Mof_C 	C 	0.6271	0.34189	0.39668	-0.242
Mof_C 	C 	0.65605	0.3681	0.39898	0.156
Mof_H 	H 	0.6747	0.3663	0.4189	-0.049
Mof_N 	N 	0.5319	0.0514	0.3563	-0.183
Mof_C 	C 	0.5194	0.0335	0.39	-0.021
Mof_N 	N 	0.5315	0.2352	0.4287	-0.334
Mof_C 	C 	0.5191	0.2076	0.4036	-0.026
Mof_C 	C 	0.539	0.1814	0.38	-0.072
Mof_H 	H 	0.5663	0.1811	0.3801	0.044
Mof_C 	C 	0.5195	0.1573	0.3581	-0.034
Mof_H 	H 	0.5331	0.1399	0.3419	0.012
Mof_N 	N 	0.5317	0.0574	0.3514	-0.107
Mof_H 	H 	0.4743	0.047	0.2804	0.029
Mof_H 	H 	0.5126	0.0244	0.2838	0.067
Mof_H 	H 	0.5132	0.0685	0.2771	0.167
Mof_C 	C 	0.5194	0.0628	0.3881	0.061
Mof_C 	C 	0.5396	0.0677	0.421	-0.103
Mof_H 	H 	0.5669	0.0677	0.4206	0.047
Mof_C 	C 	0.5198	0.0728	0.4551	-0.021
Mof_H 	H 	0.5335	0.0752	0.4786	0.028
Mof_N 	N 	0.5313	0.2251	0.4532	-0.334
Mof_H 	H 	0.4743	0.2798	0.405	0.665
Mof_H 	H 	0.5128	0.265	0.3882	0.673
Mof_H 	H 	0.5129	0.2945	0.4216	0.659
Mof_C 	C 	0.5194	0.1969	0.4779	0.012
Mof_C 	C 	0.5196	0.1463	0.5229	-0.021
Mof_H 	H 	0.5332	0.1285	0.5386	0.042
Mof_H 	H 	0.4743	0.0864	0.2902	0.102
Mof_H 	H 	0.5128	0.1062	0.3007	0.122
Mof_H 	H 	0.513	0.0668	0.2798	0.035
Mof_H 	H 	0.4743	0.2885	0.4769	0.21
Mof_H 	H 	0.5128	0.3035	0.4603	0.148
Mof_H 	H 	0.5129	0.2736	0.4934	0.179
Mof_H 	H 	0.5332	0.9888	0.4734	0.002
Mof_C 	C 	0.5402	0.017	0.4213	0
Mof_H 	H 	0.5675	0.0174	0.4214	0.015
Mof_Zn	Zn	0.05076	0.08384	0.257	1.222
Mof_Zn	Zn	0.1615	0.08515	0.44964	1.209
Mof_O 	O 	0.13403	0.17349	0.4531	-0.471
Mof_O 	O 	0.13391	0.12083	0.4172	-0.505
Mof_O 	O 	0.03971	0.16713	0.27375	-0.492
Mof_O 	O 	0.05977	0.11432	0.30176	-0.505
Mof_O 	O 	0.03938	0.28603	0.3488	-0.48
Mof_O 	O 	0.0587	0.28416	0.40944	-0.514
Mof_O 	O 	0.08183	0.09883	0.21493	-0.547
Mof_O 	O 	0.04635	0.1465	0.19014	-0.485
Mof_C 	C 	0.10102	0.17407	0.3943	-0.184
Mof_C 	C 	0.08924	0.15435	0.363	0.116
Mof_H 	H 	0.096	0.1289	0.3604	0.014
Mof_C 	C 	0.06718	0.1717	0.33476	-0.18
Mof_C 	C 	0.05672	0.20934	0.33937	0.118
Mof_H 	H 	0.0422	0.2213	0.3207	0.011
Mof_C 	C 	0.06748	0.2293	0.37126	-0.182
Mof_C 	C 	0.08973	0.21174	0.39856	0.117
Mof_H 	H 	0.0972	0.2253	0.42	0.002
Mof_C 	C 	0.12497	0.15476	0.42425	0.429
Mof_C 	C 	0.05388	0.14984	0.30038	0.432
Mof_C 	C 	0.05459	0.2696	0.37614	0.411
Mof_C 	C 	0.074	0.12449	0.18994	0.417
Mof_C 	C 	0.10332	0.1271	0.15811	-0.227
Mof_C 	C 	0.10102	0.15605	0.1319	0.147
Mof_H 	H 	0.0811	0.1747	0.1337	-0.037
Mof_N 	N 	0.1437	0.0319	0.4486	-0.186
Mof_C 	C 	0.11	0.0194	0.4665	-0.114
Mof_N 	N 	0.0713	0.0315	0.2648	-0.318
Mof_C 	C 	0.0964	0.0191	0.2924	0.032
Mof_C 	C 	0.12	0.039	0.3186	-0.13
Mof_H 	H 	0.1199	0.0663	0.3189	0.064
Mof_C 	C 	0.1419	0.0195	0.3427	0.05
Mof_H 	H 	0.1581	0.0331	0.3601	-0.011
Mof_N 	N 	0.1486	0.0317	0.4426	-0.115
Mof_H 	H 	0.2196	0.9743	0.453	0.029
Mof_H 	H 	0.2162	0.0126	0.4756	0.069
Mof_H 	H 	0.2229	0.0132	0.4315	0.148
Mof_C 	C 	0.1119	0.0194	0.4372	0.218
Mof_C 	C 	0.079	0.0396	0.4323	-0.208
Mof_H 	H 	0.0794	0.0669	0.4323	0.082
Mof_C 	C 	0.0449	0.0198	0.4272	0.096
Mof_H 	H 	0.0214	0.0335	0.4248	0.002
Mof_N 	N 	0.0468	0.0313	0.2749	-0.321
Mof_H 	H 	0.095	0.9743	0.2202	0.582
Mof_H 	H 	0.1118	0.0128	0.235	0.6
Mof_H 	H 	0.0784	0.0129	0.2055	0.585
Mof_C 	C 	0.0221	0.0194	0.3031	0.069
Mof_C 	C 	0.9771	0.0196	0.3537	0.042
Mof_H 	H 	0.9614	0.0332	0.3715	0.02
Mof_H 	H 	0.2098	0.9743	0.4136	0.087
Mof_H 	H 	0.1993	0.0128	0.3938	0.118
Mof_H 	H 	0.2202	0.013	0.4332	0.038
Mof_H 	H 	0.0231	0.9743	0.2115	0.178
Mof_H 	H 	0.0397	0.0128	0.1965	0.132
Mof_H 	H 	0.0066	0.0129	0.2264	0.135
Mof_H 	H 	0.0266	0.0332	0.5112	0.041
Mof_C 	C 	0.0787	0.0402	0.483	0.026
Mof_H 	H 	0.0786	0.0675	0.4826	-0.001
Mof_Zn	Zn	0.55076	0.58384	0.757	1.223
Mof_Zn	Zn	0.6615	0.58515	0.94964	1.206
Mof_O 	O 	0.63403	0.67349	0.9531	-0.478
Mof_O 	O 	0.63391	0.62083	0.9172	-0.506
Mof_O 	O 	0.53971	0.66713	0.77375	-0.497
Mof_O 	O 	0.55977	0.61432	0.80176	-0.504
Mof_O 	O 	0.53938	0.78603	0.8488	-0.485
Mof_O 	O 	0.5587	0.78416	0.90944	-0.515
Mof_O 	O 	0.58183	0.59883	0.71493	-0.557
Mof_O 	O 	0.54635	0.6465	0.69014	-0.496
Mof_C 	C 	0.60102	0.67407	0.8943	-0.186
Mof_C 	C 	0.58924	0.65435	0.863	0.117
Mof_H 	H 	0.596	0.6289	0.8604	0.014
Mof_C 	C 	0.56718	0.6717	0.83476	-0.183
Mof_C 	C 	0.55672	0.70934	0.83937	0.118
Mof_H 	H 	0.5422	0.7213	0.8207	0.007
Mof_C 	C 	0.56748	0.7293	0.87126	-0.185
Mof_C 	C 	0.58973	0.71174	0.89856	0.117
Mof_H 	H 	0.5972	0.7253	0.92	0.001
Mof_C 	C 	0.62497	0.65476	0.92425	0.43
Mof_C 	C 	0.55388	0.64984	0.80038	0.431
Mof_C 	C 	0.55459	0.7696	0.87614	0.411
Mof_C 	C 	0.574	0.62449	0.68994	0.42
Mof_C 	C 	0.60332	0.6271	0.65811	-0.242
Mof_C 	C 	0.60102	0.65605	0.6319	0.156
Mof_H 	H 	0.5811	0.6747	0.6337	-0.049
Mof_N 	N 	0.6437	0.5319	0.9486	-0.18
Mof_C 	C 	0.61	0.5194	0.9665	-0.012
Mof_N 	N 	0.5713	0.5315	0.7648	-0.334
Mof_C 	C 	0.5964	0.5191	0.7924	-0.026
Mof_C 	C 	0.62	0.539	0.8186	-0.072
Mof_H 	H 	0.6199	0.5663	0.8189	0.044
Mof_C 	C 	0.6419	0.5195	0.8427	-0.034
Mof_H 	H 	0.6581	0.5331	0.8601	0.013
Mof_N 	N 	0.6486	0.5317	0.9426	-0.111
Mof_H 	H 	0.7196	0.4743	0.953	0.035
Mof_H 	H 	0.7162	0.5126	0.9756	0.064
Mof_H 	H 	0.7229	0.5132	0.9315	0.166
Mof_C 	C 	0.6119	0.5194	0.9372	0.052
Mof_C 	C 	0.579	0.5396	0.9323	-0.083
Mof_H 	H 	0.5794	0.5669	0.9323	0.039
Mof_C 	C 	0.5449	0.5198	0.9272	-0.025
Mof_H 	H 	0.5214	0.5335	0.9248	0.03
Mof_N 	N 	0.5468	0.5313	0.7749	-0.334
Mof_H 	H 	0.595	0.4743	0.7202	0.666
Mof_H 	H 	0.6118	0.5128	0.735	0.674
Mof_H 	H 	0.5784	0.5129	0.7055	0.659
Mof_C 	C 	0.5221	0.5194	0.8031	0.012
Mof_C 	C 	0.4771	0.5196	0.8537	-0.021
Mof_H 	H 	0.4614	0.5332	0.8715	0.042
Mof_H 	H 	0.7098	0.4743	0.9136	0.09
Mof_H 	H 	0.6993	0.5128	0.8938	0.113
Mof_H 	H 	0.7202	0.513	0.9332	0.034
Mof_H 	H 	0.5231	0.4743	0.7115	0.211
Mof_H 	H 	0.5397	0.5128	0.6965	0.148
Mof_H 	H 	0.5066	0.5129	0.7264	0.179
Mof_H 	H 	0.5266	0.5332	0.0112	0.032
Mof_C 	C 	0.5787	0.5402	0.983	-0.076
Mof_H 	H 	0.5786	0.5675	0.9826	0.024
Mof_Zn	Zn	0.05076	0.91616	0.743	1.223
Mof_Zn	Zn	0.1615	0.91485	0.55036	1.208
Mof_O 	O 	0.13403	0.82651	0.5469	-0.471
Mof_O 	O 	0.13391	0.87917	0.5828	-0.503
Mof_O 	O 	0.03971	0.83287	0.72625	-0.492
Mof_O 	O 	0.05977	0.88568	0.69824	-0.501
Mof_O 	O 	0.03938	0.71397	0.6512	-0.48
Mof_O 	O 	0.0587	0.71584	0.59056	-0.514
Mof_O 	O 	0.08183	0.90117	0.78507	-0.547
Mof_O 	O 	0.04635	0.8535	0.80986	-0.486
Mof_C 	C 	0.10102	0.82593	0.6057	-0.183
Mof_C 	C 	0.08924	0.84565	0.637	0.115
Mof_H 	H 	0.096	0.8711	0.6396	0.015
Mof_C 	C 	0.06718	0.8283	0.66524	-0.179
Mof_C 	C 	0.05672	0.79066	0.66063	0.117
Mof_H 	H 	0.0422	0.7787	0.6793	0.011
Mof_C 	C 	0.06748	0.7707	0.62874	-0.181
Mof_C 	C 	0.08973	0.78826	0.60144	0.116
Mof_H 	H 	0.0972	0.7747	0.58	0.002
Mof_C 	C 	0.12497	0.84524	0.57575	0.429
Mof_C 	C 	0.05388	0.85016	0.69962	0.431
Mof_C 	C 	0.05459	0.7304	0.62386	0.411
Mof_C 	C 	0.074	0.87551	0.81006	0.417
Mof_C 	C 	0.10332	0.8729	0.84189	-0.231
Mof_C 	C 	0.10102	0.84395	0.8681	0.149
Mof_H 	H 	0.0811	0.8253	0.8663	-0.039
Mof_N 	N 	0.1437	0.9681	0.5514	-0.175
Mof_C 	C 	0.11	0.9806	0.5335	0.075
Mof_N 	N 	0.0713	0.9685	0.7352	-0.313
Mof_C 	C 	0.0964	0.9809	0.7076	-0.061
Mof_C 	C 	0.12	0.961	0.6814	-0.023
Mof_H 	H 	0.1199	0.9337	0.6811	0.029
Mof_C 	C 	0.1419	0.9805	0.6573	-0.114
Mof_H 	H 	0.1581	0.9669	0.6399	0.038
Mof_N 	N 	0.1486	0.9683	0.5574	-0.103
Mof_H 	H 	0.2196	0.0257	0.547	0.019
Mof_H 	H 	0.2162	0.9874	0.5244	0.036
Mof_H 	H 	0.2229	0.9868	0.5685	0.132
Mof_C 	C 	0.1119	0.9806	0.5628	-0.098
Mof_C 	C 	0.079	0.9604	0.5677	0.017
Mof_H 	H 	0.0794	0.9331	0.5677	0.008
Mof_C 	C 	0.0449	0.9802	0.5728	-0.138
Mof_H 	H 	0.0214	0.9665	0.5752	0.069
Mof_N 	N 	0.0468	0.9687	0.7251	-0.307
Mof_H 	H 	0.095	0.0257	0.7798	0.568
Mof_H 	H 	0.1118	0.9872	0.765	0.567
Mof_H 	H 	0.0784	0.9871	0.7945	0.552
Mof_C 	C 	0.0221	0.9806	0.6969	-0.041
Mof_C 	C 	0.9771	0.9804	0.6463	-0.123
Mof_H 	H 	0.9614	0.9668	0.6285	0.071
Mof_H 	H 	0.2098	0.0257	0.5864	0.077
Mof_H 	H 	0.1993	0.9872	0.6062	0.083
Mof_H 	H 	0.2202	0.987	0.5668	0.024
Mof_H 	H 	0.0231	0.0257	0.7885	0.17
Mof_H 	H 	0.0397	0.9872	0.8035	0.103
Mof_H 	H 	0.0066	0.9871	0.7736	0.121
Mof_H 	H 	0.0266	0.9668	0.4888	0.015
Mof_C 	C 	0.0787	0.9598	0.517	-0.08
Mof_H 	H 	0.0786	0.9325	0.5174	0.035
Mof_Zn	Zn	0.55076	0.41616	0.243	1.223
Mof_Zn	Zn	0.6615	0.41485	0.05036	1.209
Mof_O 	O 	0.63403	0.32651	0.0469	-0.467
Mof_O 	O 	0.63391	0.37917	0.0828	-0.504
Mof_O 	O 	0.53971	0.33287	0.22625	-0.497
Mof_O 	O 	0.55977	0.38568	0.19824	-0.504
Mof_O 	O 	0.53938	0.21397	0.1512	-0.485
Mof_O 	O 	0.5587	0.21584	0.09056	-0.512
Mof_O 	O 	0.58183	0.40117	0.28507	-0.557
Mof_O 	O 	0.54635	0.3535	0.30986	-0.496
Mof_C 	C 	0.60102	0.32593	0.1057	-0.182
Mof_C 	C 	0.58924	0.34565	0.137	0.115
Mof_H 	H 	0.596	0.3711	0.1396	0.014
Mof_C 	C 	0.56718	0.3283	0.16524	-0.181
Mof_C 	C 	0.55672	0.29066	0.16063	0.117
Mof_H 	H 	0.5422	0.2787	0.1793	0.007
Mof_C 	C 	0.56748	0.2707	0.12874	-0.183
Mof_C 	C 	0.58973	0.28826	0.10144	0.115
Mof_H 	H 	0.5972	0.2747	0.08	0.005
Mof_C 	C 	0.62497	0.34524	0.07575	0.428
Mof_C 	C 	0.55388	0.35016	0.19962	0.431
Mof_C 	C 	0.55459	0.2304	0.12386	0.41
Mof_C 	C 	0.574	0.37551	0.31006	0.42
Mof_C 	C 	0.60332	0.3729	0.34189	-0.242
Mof_C 	C 	0.60102	0.34395	0.3681	0.156
Mof_H 	H 	0.5811	0.3253	0.3663	-0.049
Mof_N 	N 	0.6437	0.4681	0.0514	-0.183
Mof_C 	C 	0.61	0.4806	0.0335	-0.021
Mof_N 	N 	0.5713	0.4685	0.2352	-0.334
Mof_C 	C 	0.5964	0.4809	0.2076	-0.026
Mof_C 	C 	0.62	0.461	0.1814	-0.072
Mof_H 	H 	0.6199	0.4337	0.1811	0.044
Mof_C 	C 	0.6419	0.4805	0.1573	-0.034
Mof_H 	H 	0.6581	0.4669	0.1399	0.012
Mof_N 	N 	0.6486	0.4683	0.0574	-0.107
Mof_H 	H 	0.7196	0.5257	0.047	0.029
Mof_H 	H 	0.7162	0.4874	0.0244	0.067
Mof_H 	H 	0.7229	0.4868	0.0685	0.167
Mof_C 	C 	0.6119	0.4806	0.0628	0.061
Mof_C 	C 	0.579	0.4604	0.0677	-0.103
Mof_H 	H 	0.5794	0.4331	0.0677	0.047
Mof_C 	C 	0.5449	0.4802	0.0728	-0.021
Mof_H 	H 	0.5214	0.4665	0.0752	0.028
Mof_N 	N 	0.5468	0.4687	0.2251	-0.334
Mof_H 	H 	0.595	0.5257	0.2798	0.665
Mof_H 	H 	0.6118	0.4872	0.265	0.673
Mof_H 	H 	0.5784	0.4871	0.2945	0.659
Mof_C 	C 	0.5221	0.4806	0.1969	0.012
Mof_C 	C 	0.4771	0.4804	0.1463	-0.021
Mof_H 	H 	0.4614	0.4668	0.1285	0.042
Mof_H 	H 	0.7098	0.5257	0.0864	0.102
Mof_H 	H 	0.6993	0.4872	0.1062	0.122
Mof_H 	H 	0.7202	0.487	0.0668	0.035
Mof_H 	H 	0.5231	0.5257	0.2885	0.21
Mof_H 	H 	0.5397	0.4872	0.3035	0.148
Mof_H 	H 	0.5066	0.4871	0.2736	0.179
Mof_H 	H 	0.5266	0.4668	0.9888	0.002
Mof_C 	C 	0.5787	0.4598	0.017	0
Mof_H 	H 	0.5786	0.4325	0.0174	0.015
Mof_Zn	Zn	0.94924	0.91616	0.257	1.22
Mof_Zn	Zn	0.8385	0.91485	0.44964	1.208
Mof_O 	O 	0.86597	0.82651	0.4531	-0.472
Mof_O 	O 	0.86609	0.87917	0.4172	-0.503
Mof_O 	O 	0.96029	0.83287	0.27375	-0.504
Mof_O 	O 	0.94023	0.88568	0.30176	-0.506
Mof_O 	O 	0.96062	0.71397	0.3488	-0.492
Mof_O 	O 	0.9413	0.71584	0.40944	-0.519
Mof_O 	O 	0.91817	0.90117	0.21493	-0.551
Mof_O 	O 	0.95365	0.8535	0.19014	-0.497
Mof_C 	C 	0.89898	0.82593	0.3943	-0.186
Mof_C 	C 	0.91076	0.84565	0.363	0.117
Mof_H 	H 	0.904	0.8711	0.3604	0.014
Mof_C 	C 	0.93282	0.8283	0.33476	-0.185
Mof_C 	C 	0.94328	0.79066	0.33937	0.119
Mof_H 	H 	0.9578	0.7787	0.3207	0.003
Mof_C 	C 	0.93252	0.7707	0.37126	-0.188
Mof_C 	C 	0.91027	0.78826	0.39856	0.118
Mof_H 	H 	0.9028	0.7747	0.42	0.001
Mof_C 	C 	0.87503	0.84524	0.42425	0.429
Mof_C 	C 	0.94612	0.85016	0.30038	0.431
Mof_C 	C 	0.94541	0.7304	0.37614	0.412
Mof_C 	C 	0.926	0.87551	0.18994	0.418
Mof_C 	C 	0.89668	0.8729	0.15811	-0.233
Mof_C 	C 	0.89898	0.84395	0.1319	0.149
Mof_H 	H 	0.9189	0.8253	0.1337	-0.041
Mof_N 	N 	0.8563	0.9681	0.4486	-0.174
Mof_C 	C 	0.89	0.9806	0.4665	0.077
Mof_N 	N 	0.9287	0.9685	0.2648	-0.32
Mof_C 	C 	0.9036	0.9809	0.2924	-0.063
Mof_C 	C 	0.88	0.961	0.3186	-0.021
Mof_H 	H 	0.8801	0.9337	0.3189	0.028
Mof_C 	C 	0.8581	0.9805	0.3427	-0.114
Mof_H 	H 	0.8419	0.9669	0.3601	0.039
Mof_N 	N 	0.8514	0.9683	0.4426	-0.103
Mof_H 	H 	0.7804	0.0257	0.453	0.019
Mof_H 	H 	0.7838	0.9874	0.4756	0.036
Mof_H 	H 	0.7771	0.9868	0.4315	0.132
Mof_C 	C 	0.8881	0.9806	0.4372	-0.1
Mof_C 	C 	0.921	0.9604	0.4323	0.017
Mof_H 	H 	0.9206	0.9331	0.4323	0.006
Mof_C 	C 	0.9551	0.9802	0.4272	-0.139
Mof_H 	H 	0.9786	0.9665	0.4248	0.055
Mof_N 	N 	0.9532	0.9687	0.2749	-0.31
Mof_H 	H 	0.905	0.0257	0.2202	0.571
Mof_H 	H 	0.8882	0.9872	0.235	0.57
Mof_H 	H 	0.9216	0.9871	0.2055	0.555
Mof_C 	C 	0.9779	0.9806	0.3031	-0.061
Mof_C 	C 	0.0229	0.9804	0.3537	-0.103
Mof_H 	H 	0.0386	0.9668	0.3715	0.069
Mof_H 	H 	0.7902	0.0257	0.4136	0.077
Mof_H 	H 	0.8007	0.9872	0.3938	0.083
Mof_H 	H 	0.7798	0.987	0.4332	0.024
Mof_H 	H 	0.9769	0.0257	0.2115	0.181
Mof_H 	H 	0.9603	0.9872	0.1965	0.128
Mof_H 	H 	0.9934	0.9871	0.2264	0.176
Mof_H 	H 	0.9734	0.9668	0.5112	0.007
Mof_C 	C 	0.9213	0.9598	0.483	-0.082
Mof_H 	H 	0.9214	0.9325	0.4826	0.033
Mof_Zn	Zn	0.44924	0.41616	0.757	1.223
Mof_Zn	Zn	0.3385	0.41485	0.94964	1.206
Mof_O 	O 	0.36597	0.32651	0.9531	-0.478
Mof_O 	O 	0.36609	0.37917	0.9172	-0.506
Mof_O 	O 	0.46029	0.33287	0.77375	-0.497
Mof_O 	O 	0.44023	0.38568	0.80176	-0.504
Mof_O 	O 	0.46062	0.21397	0.8488	-0.485
Mof_O 	O 	0.4413	0.21584	0.90944	-0.515
Mof_O 	O 	0.41817	0.40117	0.71493	-0.557
Mof_O 	O 	0.45365	0.3535	0.69014	-0.496
Mof_C 	C 	0.39898	0.32593	0.8943	-0.186
Mof_C 	C 	0.41076	0.34565	0.863	0.117
Mof_H 	H 	0.404	0.3711	0.8604	0.014
Mof_C 	C 	0.43282	0.3283	0.83476	-0.183
Mof_C 	C 	0.44328	0.29066	0.83937	0.118
Mof_H 	H 	0.4578	0.2787	0.8207	0.007
Mof_C 	C 	0.43252	0.2707	0.87126	-0.185
Mof_C 	C 	0.41027	0.28826	0.89856	0.117
Mof_H 	H 	0.4028	0.2747	0.92	0.001
Mof_C 	C 	0.37503	0.34524	0.92425	0.43
Mof_C 	C 	0.44612	0.35016	0.80038	0.431
Mof_C 	C 	0.44541	0.2304	0.87614	0.411
Mof_C 	C 	0.426	0.37551	0.68994	0.42
Mof_C 	C 	0.39668	0.3729	0.65811	-0.242
Mof_C 	C 	0.39898	0.34395	0.6319	0.156
Mof_H 	H 	0.4189	0.3253	0.6337	-0.049
Mof_N 	N 	0.3563	0.4681	0.9486	-0.18
Mof_C 	C 	0.39	0.4806	0.9665	-0.012
Mof_N 	N 	0.4287	0.4685	0.7648	-0.334
Mof_C 	C 	0.4036	0.4809	0.7924	-0.026
Mof_C 	C 	0.38	0.461	0.8186	-0.072
Mof_H 	H 	0.3801	0.4337	0.8189	0.044
Mof_C 	C 	0.3581	0.4805	0.8427	-0.034
Mof_H 	H 	0.3419	0.4669	0.8601	0.013
Mof_N 	N 	0.3514	0.4683	0.9426	-0.111
Mof_H 	H 	0.2804	0.5257	0.953	0.035
Mof_H 	H 	0.2838	0.4874	0.9756	0.064
Mof_H 	H 	0.2771	0.4868	0.9315	0.166
Mof_C 	C 	0.3881	0.4806	0.9372	0.052
Mof_C 	C 	0.421	0.4604	0.9323	-0.083
Mof_H 	H 	0.4206	0.4331	0.9323	0.039
Mof_C 	C 	0.4551	0.4802	0.9272	-0.025
Mof_H 	H 	0.4786	0.4665	0.9248	0.03
Mof_N 	N 	0.4532	0.4687	0.7749	-0.334
Mof_H 	H 	0.405	0.5257	0.7202	0.665
Mof_H 	H 	0.3882	0.4872	0.735	0.674
Mof_H 	H 	0.4216	0.4871	0.7055	0.659
Mof_C 	C 	0.4779	0.4806	0.8031	0.012
Mof_C 	C 	0.5229	0.4804	0.8537	-0.021
Mof_H 	H 	0.5386	0.4668	0.8715	0.042
Mof_H 	H 	0.2902	0.5257	0.9136	0.09
Mof_H 	H 	0.3007	0.4872	0.8938	0.113
Mof_H 	H 	0.2798	0.487	0.9332	0.034
Mof_H 	H 	0.4769	0.5257	0.7115	0.211
Mof_H 	H 	0.4603	0.4872	0.6965	0.148
Mof_H 	H 	0.4934	0.4871	0.7264	0.179
Mof_H 	H 	0.4734	0.4668	0.0112	0.032
Mof_C 	C 	0.4213	0.4598	0.983	-0.076
Mof_H 	H 	0.4214	0.4325	0.9826	0.024
Mof_Zn	Zn	0.94924	0.08384	0.743	1.219
Mof_Zn	Zn	0.8385	0.08515	0.55036	1.209
Mof_O 	O 	0.86597	0.17349	0.5469	-0.472
Mof_O 	O 	0.86609	0.12083	0.5828	-0.506
Mof_O 	O 	0.96029	0.16713	0.72625	-0.504
Mof_O 	O 	0.94023	0.11432	0.69824	-0.51
Mof_O 	O 	0.96062	0.28603	0.6512	-0.492
Mof_O 	O 	0.9413	0.28416	0.59056	-0.519
Mof_O 	O 	0.91817	0.09883	0.78507	-0.55
Mof_O 	O 	0.95365	0.1465	0.80986	-0.497
Mof_C 	C 	0.89898	0.17407	0.6057	-0.188
Mof_C 	C 	0.91076	0.15435	0.637	0.118
Mof_H 	H 	0.904	0.1289	0.6396	0.012
Mof_C 	C 	0.93282	0.1717	0.66524	-0.187
Mof_C 	C 	0.94328	0.20934	0.66063	0.12
Mof_H 	H 	0.9578	0.2213	0.6793	0.003
Mof_C 	C 	0.93252	0.2293	0.62874	-0.189
Mof_C 	C 	0.91027	0.21174	0.60144	0.118
Mof_H 	H 	0.9028	0.2253	0.58	0.001
Mof_C 	C 	0.87503	0.15476	0.57575	0.429
Mof_C 	C 	0.94612	0.14984	0.69962	0.432
Mof_C 	C 	0.94541	0.2696	0.62386	0.412
Mof_C 	C 	0.926	0.12449	0.81006	0.418
Mof_C 	C 	0.89668	0.1271	0.84189	-0.233
Mof_C 	C 	0.89898	0.15605	0.8681	0.149
Mof_H 	H 	0.9189	0.1747	0.8663	-0.041
Mof_N 	N 	0.8563	0.0319	0.5514	-0.186
Mof_C 	C 	0.89	0.0194	0.5335	-0.116
Mof_N 	N 	0.9287	0.0315	0.7352	-0.325
Mof_C 	C 	0.9036	0.0191	0.7076	0.031
Mof_C 	C 	0.88	0.039	0.6814	-0.129
Mof_H 	H 	0.8801	0.0663	0.6811	0.064
Mof_C 	C 	0.8581	0.0195	0.6573	0.05
Mof_H 	H 	0.8419	0.0331	0.6399	-0.011
Mof_N 	N 	0.8514	0.0317	0.5574	-0.115
Mof_H 	H 	0.7804	0.9743	0.547	0.029
Mof_H 	H 	0.7838	0.0126	0.5244	0.07
Mof_H 	H 	0.7771	0.0132	0.5685	0.148
Mof_C 	C 	0.8881	0.0194	0.5628	0.22
Mof_C 	C 	0.921	0.0396	0.5677	-0.21
Mof_H 	H 	0.9206	0.0669	0.5677	0.08
Mof_C 	C 	0.9551	0.0198	0.5728	0.097
Mof_H 	H 	0.9786	0.0335	0.5752	-0.013
Mof_N 	N 	0.9532	0.0313	0.7251	-0.323
Mof_H 	H 	0.905	0.9743	0.7798	0.582
Mof_H 	H 	0.8882	0.0128	0.765	0.6
Mof_H 	H 	0.9216	0.0129	0.7945	0.583
Mof_C 	C 	0.9779	0.0194	0.6969	0.05
Mof_C 	C 	0.0229	0.0196	0.6463	0.062
Mof_H 	H 	0.0386	0.0332	0.6285	0.017
Mof_H 	H 	0.7902	0.9743	0.5864	0.087
Mof_H 	H 	0.8007	0.0128	0.6062	0.118
Mof_H 	H 	0.7798	0.013	0.5668	0.038
Mof_H 	H 	0.9769	0.9743	0.7885	0.187
Mof_H 	H 	0.9603	0.0128	0.8035	0.155
Mof_H 	H 	0.9934	0.0129	0.7736	0.19
Mof_H 	H 	0.9734	0.0332	0.4888	0.034
Mof_C 	C 	0.9213	0.0402	0.517	0.027
Mof_H 	H 	0.9214	0.0675	0.5174	-0.003
Mof_Zn	Zn	0.44924	0.58384	0.243	1.223
Mof_Zn	Zn	0.3385	0.58515	0.05036	1.209
Mof_O 	O 	0.36597	0.67349	0.0469	-0.467
Mof_O 	O 	0.36609	0.62083	0.0828	-0.504
Mof_O 	O 	0.46029	0.66713	0.22625	-0.497
Mof_O 	O 	0.44023	0.61432	0.19824	-0.504
Mof_O 	O 	0.46062	0.78603	0.1512	-0.484
Mof_O 	O 	0.4413	0.78416	0.09056	-0.512
Mof_O 	O 	0.41817	0.59883	0.28507	-0.557
Mof_O 	O 	0.45365	0.6465	0.30986	-0.496
Mof_C 	C 	0.39898	0.67407	0.1057	-0.182
Mof_C 	C 	0.41076	0.65435	0.137	0.115
Mof_H 	H 	0.404	0.6289	0.1396	0.014
Mof_C 	C 	0.43282	0.6717	0.16524	-0.181
Mof_C 	C 	0.44328	0.70934	0.16063	0.117
Mof_H 	H 	0.4578	0.7213	0.1793	0.007
Mof_C 	C 	0.43252	0.7293	0.12874	-0.183
Mof_C 	C 	0.41027	0.71174	0.10144	0.115
Mof_H 	H 	0.4028	0.7253	0.08	0.005
Mof_C 	C 	0.37503	0.65476	0.07575	0.428
Mof_C 	C 	0.44612	0.64984	0.19962	0.431
Mof_C 	C 	0.44541	0.7696	0.12386	0.41
Mof_C 	C 	0.426	0.62449	0.31006	0.42
Mof_C 	C 	0.39668	0.6271	0.34189	-0.242
Mof_C 	C 	0.39898	0.65605	0.3681	0.156
Mof_H 	H 	0.4189	0.6747	0.3663	-0.049
Mof_N 	N 	0.3563	0.5319	0.0514	-0.183
Mof_C 	C 	0.39	0.5194	0.0335	-0.021
Mof_N 	N 	0.4287	0.5315	0.2352	-0.334
Mof_C 	C 	0.4036	0.5191	0.2076	-0.026
Mof_C 	C 	0.38	0.539	0.1814	-0.072
Mof_H 	H 	0.3801	0.5663	0.1811	0.044
Mof_C 	C 	0.3581	0.5195	0.1573	-0.034
Mof_H 	H 	0.3419	0.5331	0.1399	0.012
Mof_N 	N 	0.3514	0.5317	0.0574	-0.107
Mof_H 	H 	0.2804	0.4743	0.047	0.029
Mof_H 	H 	0.2838	0.5126	0.0244	0.067
Mof_H 	H 	0.2771	0.5132	0.0685	0.167
Mof_C 	C 	0.3881	0.5194	0.0628	0.061
Mof_C 	C 	0.421	0.5396	0.0677	-0.103
Mof_H 	H 	0.4206	0.5669	0.0677	0.047
Mof_C 	C 	0.4551	0.5198	0.0728	-0.021
Mof_H 	H 	0.4786	0.5335	0.0752	0.028
Mof_N 	N 	0.4532	0.5313	0.2251	-0.334
Mof_H 	H 	0.405	0.4743	0.2798	0.665
Mof_H 	H 	0.3882	0.5128	0.265	0.673
Mof_H 	H 	0.4216	0.5129	0.2945	0.659
Mof_C 	C 	0.4779	0.5194	0.1969	0.012
Mof_C 	C 	0.5229	0.5196	0.1463	-0.021
Mof_H 	H 	0.5386	0.5332	0.1285	0.042
Mof_H 	H 	0.2902	0.4743	0.0864	0.102
Mof_H 	H 	0.3007	0.5128	0.1062	0.122
Mof_H 	H 	0.2798	0.513	0.0668	0.035
Mof_H 	H 	0.4769	0.4743	0.2885	0.21
Mof_H 	H 	0.4603	0.5128	0.3035	0.148
Mof_H 	H 	0.4934	0.5129	0.2736	0.179
Mof_H 	H 	0.4734	0.5332	0.9888	0.002
Mof_C 	C 	0.4213	0.5402	0.017	0
Mof_H 	H 	0.4214	0.5675	0.0174	0.015
Mof_Zn	Zn	0.257	0.05076	0.08384	1.222
Mof_Zn	Zn	0.44964	0.1615	0.08515	1.209
Mof_O 	O 	0.4531	0.13403	0.17349	-0.471
Mof_O 	O 	0.4172	0.13391	0.12083	-0.505
Mof_O 	O 	0.27375	0.03971	0.16713	-0.492
Mof_O 	O 	0.30176	0.05977	0.11432	-0.505
Mof_O 	O 	0.3488	0.03938	0.28603	-0.48
Mof_O 	O 	0.40944	0.0587	0.28416	-0.514
Mof_O 	O 	0.21493	0.08183	0.09883	-0.547
Mof_O 	O 	0.19014	0.04635	0.1465	-0.485
Mof_C 	C 	0.3943	0.10102	0.17407	-0.184
Mof_C 	C 	0.363	0.08924	0.15435	0.116
Mof_H 	H 	0.3604	0.096	0.1289	0.014
Mof_C 	C 	0.33476	0.06718	0.1717	-0.18
Mof_C 	C 	0.33937	0.05672	0.20934	0.118
Mof_H 	H 	0.3207	0.0422	0.2213	0.011
Mof_C 	C 	0.37126	0.06748	0.2293	-0.182
Mof_C 	C 	0.39856	0.08973	0.21174	0.117
Mof_H 	H 	0.42	0.0972	0.2253	0.002
Mof_C 	C 	0.42425	0.12497	0.15476	0.429
Mof_C 	C 	0.30038	0.05388	0.14984	0.432
Mof_C 	C 	0.37614	0.05459	0.2696	0.411
Mof_C 	C 	0.18994	0.074	0.12449	0.417
Mof_C 	C 	0.15811	0.10332	0.1271	-0.227
Mof_C 	C 	0.1319	0.10102	0.15605	0.147
Mof_H 	H 	0.1337	0.0811	0.1747	-0.037
Mof_N 	N 	0.4486	0.1437	0.0319	-0.186
Mof_C 	C 	0.4665	0.11	0.0194	-0.114
Mof_N 	N 	0.2648	0.0713	0.0315	-0.318
Mof_C 	C 	0.2924	0.0964	0.0191	0.032
Mof_C 	C 	0.3186	0.12	0.039	-0.13
Mof_H 	H 	0.3189	0.1199	0.0663	0.064
Mof_C 	C 	0.3427	0.1419	0.0195	0.05
Mof_H 	H 	0.3601	0.1581	0.0331	-0.011
Mof_N 	N 	0.4426	0.1486	0.0317	-0.115
Mof_H 	H 	0.453	0.2196	0.9743	0.029
Mof_H 	H 	0.4756	0.2162	0.0126	0.069
Mof_H 	H 	0.4315	0.2229	0.0132	0.148
Mof_C 	C 	0.4372	0.1119	0.0194	0.218
Mof_C 	C 	0.4323	0.079	0.0396	-0.208
Mof_H 	H 	0.4323	0.0794	0.0669	0.082
Mof_C 	C 	0.4272	0.0449	0.0198	0.096
Mof_H 	H 	0.4248	0.0214	0.0335	0.002
Mof_N 	N 	0.2749	0.0468	0.0313	-0.321
Mof_H 	H 	0.2202	0.095	0.9743	0.582
Mof_H 	H 	0.235	0.1118	0.0128	0.6
Mof_H 	H 	0.2055	0.0784	0.0129	0.585
Mof_C 	C 	0.3031	0.0221	0.0194	0.069
Mof_C 	C 	0.3537	0.9771	0.0196	0.042
Mof_H 	H 	0.3715	0.9614	0.0332	0.02
Mof_H 	H 	0.4136	0.2098	0.9743	0.087
Mof_H 	H 	0.3938	0.1993	0.0128	0.118
Mof_H 	H 	0.4332	0.2202	0.013	0.038
Mof_H 	H 	0.2115	0.0231	0.9743	0.178
Mof_H 	H 	0.1965	0.0397	0.0128	0.132
Mof_H 	H 	0.2264	0.0066	0.0129	0.135
Mof_H 	H 	0.5112	0.0266	0.0332	0.041
Mof_C 	C 	0.483	0.0787	0.0402	0.026
Mof_H 	H 	0.4826	0.0786	0.0675	-0.001
Mof_Zn	Zn	0.757	0.55076	0.58384	1.223
Mof_Zn	Zn	0.94964	0.6615	0.58515	1.206
Mof_O 	O 	0.9531	0.63403	0.67349	-0.478
Mof_O 	O 	0.9172	0.63391	0.62083	-0.506
Mof_O 	O 	0.77375	0.53971	0.66713	-0.497
Mof_O 	O 	0.80176	0.55977	0.61432	-0.504
Mof_O 	O 	0.8488	0.53938	0.78603	-0.485
Mof_O 	O 	0.90944	0.5587	0.78416	-0.515
Mof_O 	O 	0.71493	0.58183	0.59883	-0.557
Mof_O 	O 	0.69014	0.54635	0.6465	-0.496
Mof_C 	C 	0.8943	0.60102	0.67407	-0.186
Mof_C 	C 	0.863	0.58924	0.65435	0.117
Mof_H 	H 	0.8604	0.596	0.6289	0.014
Mof_C 	C 	0.83476	0.56718	0.6717	-0.183
Mof_C 	C 	0.83937	0.55672	0.70934	0.118
Mof_H 	H 	0.8207	0.5422	0.7213	0.007
Mof_C 	C 	0.87126	0.56748	0.7293	-0.185
Mof_C 	C 	0.89856	0.58973	0.71174	0.117
Mof_H 	H 	0.92	0.5972	0.7253	0.001
Mof_C 	C 	0.92425	0.62497	0.65476	0.43
Mof_C 	C 	0.80038	0.55388	0.64984	0.431
Mof_C 	C 	0.87614	0.55459	0.7696	0.411
Mof_C 	C 	0.68994	0.574	0.62449	0.42
Mof_C 	C 	0.65811	0.60332	0.6271	-0.242
Mof_C 	C 	0.6319	0.60102	0.65605	0.156
Mof_H 	H 	0.6337	0.5811	0.6747	-0.049
Mof_N 	N 	0.9486	0.6437	0.5319	-0.18
Mof_C 	C 	0.9665	0.61	0.5194	-0.012
Mof_N 	N 	0.7648	0.5713	0.5315	-0.334
Mof_C 	C 	0.7924	0.5964	0.5191	-0.026
Mof_C 	C 	0.8186	0.62	0.539	-0.072
Mof_H 	H 	0.8189	0.6199	0.5663	0.044
Mof_C 	C 	0.8427	0.6419	0.5195	-0.034
Mof_H 	H 	0.8601	0.6581	0.5331	0.013
Mof_N 	N 	0.9426	0.6486	0.5317	-0.111
Mof_H 	H 	0.953	0.7196	0.4743	0.035
Mof_H 	H 	0.9756	0.7162	0.5126	0.064
Mof_H 	H 	0.9315	0.7229	0.5132	0.166
Mof_C 	C 	0.9372	0.6119	0.5194	0.052
Mof_C 	C 	0.9323	0.579	0.5396	-0.083
Mof_H 	H 	0.9323	0.5794	0.5669	0.039
Mof_C 	C 	0.9272	0.5449	0.5198	-0.025
Mof_H 	H 	0.9248	0.5214	0.5335	0.03
Mof_N 	N 	0.7749	0.5468	0.5313	-0.334
Mof_H 	H 	0.7202	0.595	0.4743	0.666
Mof_H 	H 	0.735	0.6118	0.5128	0.674
Mof_H 	H 	0.7055	0.5784	0.5129	0.659
Mof_C 	C 	0.8031	0.5221	0.5194	0.012
Mof_C 	C 	0.8537	0.4771	0.5196	-0.021
Mof_H 	H 	0.8715	0.4614	0.5332	0.042
Mof_H 	H 	0.9136	0.7098	0.4743	0.09
Mof_H 	H 	0.8938	0.6993	0.5128	0.113
Mof_H 	H 	0.9332	0.7202	0.513	0.034
Mof_H 	H 	0.7115	0.5231	0.4743	0.211
Mof_H 	H 	0.6965	0.5397	0.5128	0.148
Mof_H 	H 	0.7264	0.5066	0.5129	0.179
Mof_H 	H 	0.0112	0.5266	0.5332	0.032
Mof_C 	C 	0.983	0.5787	0.5402	-0.076
Mof_H 	H 	0.9826	0.5786	0.5675	0.024
Mof_Zn	Zn	0.743	0.05076	0.91616	1.223
Mof_Zn	Zn	0.55036	0.1615	0.91485	1.208
Mof_O 	O 	0.5469	0.13403	0.82651	-0.471
Mof_O 	O 	0.5828	0.13391	0.87917	-0.503
Mof_O 	O 	0.72625	0.03971	0.83287	-0.492
Mof_O 	O 	0.69824	0.05977	0.88568	-0.501
Mof_O 	O 	0.6512	0.03938	0.71397	-0.48
Mof_O 	O 	0.59056	0.0587	0.71584	-0.514
Mof_O 	O 	0.78507	0.08183	0.90117	-0.547
Mof_O 	O 	0.80986	0.04635	0.8535	-0.486
Mof_C 	C 	0.6057	0.10102	0.82593	-0.183
Mof_C 	C 	0.637	0.08924	0.84565	0.115
Mof_H 	H 	0.6396	0.096	0.8711	0.015
Mof_C 	C 	0.66524	0.06718	0.8283	-0.179
Mof_C 	C 	0.66063	0.05672	0.79066	0.117
Mof_H 	H 	0.6793	0.0422	0.7787	0.011
Mof_C 	C 	0.62874	0.06748	0.7707	-0.181
Mof_C 	C 	0.60144	0.08973	0.78826	0.116
Mof_H 	H 	0.58	0.0972	0.7747	0.002
Mof_C 	C 	0.57575	0.12497	0.84524	0.429
Mof_C 	C 	0.69962	0.05388	0.85016	0.431
Mof_C 	C 	0.62386	0.05459	0.7304	0.411
Mof_C 	C 	0.81006	0.074	0.87551	0.417
Mof_C 	C 	0.84189	0.10332	0.8729	-0.231
Mof_C 	C 	0.8681	0.10102	0.84395	0.149
Mof_H 	H 	0.8663	0.0811	0.8253	-0.039
Mof_N 	N 	0.5514	0.1437	0.9681	-0.175
Mof_C 	C 	0.5335	0.11	0.9806	0.075
Mof_N 	N 	0.7352	0.0713	0.9685	-0.313
Mof_C 	C 	0.7076	0.0964	0.9809	-0.061
Mof_C 	C 	0.6814	0.12	0.961	-0.023
Mof_H 	H 	0.6811	0.1199	0.9337	0.029
Mof_C 	C 	0.6573	0.1419	0.9805	-0.114
Mof_H 	H 	0.6399	0.1581	0.9669	0.038
Mof_N 	N 	0.5574	0.1486	0.9683	-0.103
Mof_H 	H 	0.547	0.2196	0.0257	0.019
Mof_H 	H 	0.5244	0.2162	0.9874	0.036
Mof_H 	H 	0.5685	0.2229	0.9868	0.132
Mof_C 	C 	0.5628	0.1119	0.9806	-0.098
Mof_C 	C 	0.5677	0.079	0.9604	0.017
Mof_H 	H 	0.5677	0.0794	0.9331	0.008
Mof_C 	C 	0.5728	0.0449	0.9802	-0.138
Mof_H 	H 	0.5752	0.0214	0.9665	0.069
Mof_N 	N 	0.7251	0.0468	0.9687	-0.307
Mof_H 	H 	0.7798	0.095	0.0257	0.568
Mof_H 	H 	0.765	0.1118	0.9872	0.567
Mof_H 	H 	0.7945	0.0784	0.9871	0.552
Mof_C 	C 	0.6969	0.0221	0.9806	-0.041
Mof_C 	C 	0.6463	0.9771	0.9804	-0.123
Mof_H 	H 	0.6285	0.9614	0.9668	0.071
Mof_H 	H 	0.5864	0.2098	0.0257	0.077
Mof_H 	H 	0.6062	0.1993	0.9872	0.083
Mof_H 	H 	0.5668	0.2202	0.987	0.024
Mof_H 	H 	0.7885	0.0231	0.0257	0.17
Mof_H 	H 	0.8035	0.0397	0.9872	0.103
Mof_H 	H 	0.7736	0.0066	0.9871	0.121
Mof_H 	H 	0.4888	0.0266	0.9668	0.015
Mof_C 	C 	0.517	0.0787	0.9598	-0.08
Mof_H 	H 	0.5174	0.0786	0.9325	0.035
Mof_Zn	Zn	0.243	0.55076	0.41616	1.223
Mof_Zn	Zn	0.05036	0.6615	0.41485	1.209
Mof_O 	O 	0.0469	0.63403	0.32651	-0.467
Mof_O 	O 	0.0828	0.63391	0.37917	-0.504
Mof_O 	O 	0.22625	0.53971	0.33287	-0.497
Mof_O 	O 	0.19824	0.55977	0.38568	-0.504
Mof_O 	O 	0.1512	0.53938	0.21397	-0.485
Mof_O 	O 	0.09056	0.5587	0.21584	-0.512
Mof_O 	O 	0.28507	0.58183	0.40117	-0.557
Mof_O 	O 	0.30986	0.54635	0.3535	-0.496
Mof_C 	C 	0.1057	0.60102	0.32593	-0.182
Mof_C 	C 	0.137	0.58924	0.34565	0.115
Mof_H 	H 	0.1396	0.596	0.3711	0.014
Mof_C 	C 	0.16524	0.56718	0.3283	-0.181
Mof_C 	C 	0.16063	0.55672	0.29066	0.117
Mof_H 	H 	0.1793	0.5422	0.2787	0.007
Mof_C 	C 	0.12874	0.56748	0.2707	-0.183
Mof_C 	C 	0.10144	0.58973	0.28826	0.115
Mof_H 	H 	0.08	0.5972	0.2747	0.005
Mof_C 	C 	0.07575	0.62497	0.34524	0.428
Mof_C 	C 	0.19962	0.55388	0.35016	0.431
Mof_C 	C 	0.12386	0.55459	0.2304	0.41
Mof_C 	C 	0.31006	0.574	0.37551	0.42
Mof_C 	C 	0.34189	0.60332	0.3729	-0.242
Mof_C 	C 	0.3681	0.60102	0.34395	0.156
Mof_H 	H 	0.3663	0.5811	0.3253	-0.049
Mof_N 	N 	0.0514	0.6437	0.4681	-0.183
Mof_C 	C 	0.0335	0.61	0.4806	-0.021
Mof_N 	N 	0.2352	0.5713	0.4685	-0.334
Mof_C 	C 	0.2076	0.5964	0.4809	-0.026
Mof_C 	C 	0.1814	0.62	0.461	-0.072
Mof_H 	H 	0.1811	0.6199	0.4337	0.044
Mof_C 	C 	0.1573	0.6419	0.4805	-0.034
Mof_H 	H 	0.1399	0.6581	0.4669	0.012
Mof_N 	N 	0.0574	0.6486	0.4683	-0.107
Mof_H 	H 	0.047	0.7196	0.5257	0.029
Mof_H 	H 	0.0244	0.7162	0.4874	0.067
Mof_H 	H 	0.0685	0.7229	0.4868	0.167
Mof_C 	C 	0.0628	0.6119	0.4806	0.061
Mof_C 	C 	0.0677	0.579	0.4604	-0.103
Mof_H 	H 	0.0677	0.5794	0.4331	0.047
Mof_C 	C 	0.0728	0.5449	0.4802	-0.021
Mof_H 	H 	0.0752	0.5214	0.4665	0.028
Mof_N 	N 	0.2251	0.5468	0.4687	-0.334
Mof_H 	H 	0.2798	0.595	0.5257	0.665
Mof_H 	H 	0.265	0.6118	0.4872	0.673
Mof_H 	H 	0.2945	0.5784	0.4871	0.659
Mof_C 	C 	0.1969	0.5221	0.4806	0.012
Mof_C 	C 	0.1463	0.4771	0.4804	-0.021
Mof_H 	H 	0.1285	0.4614	0.4668	0.042
Mof_H 	H 	0.0864	0.7098	0.5257	0.102
Mof_H 	H 	0.1062	0.6993	0.4872	0.122
Mof_H 	H 	0.0668	0.7202	0.487	0.035
Mof_H 	H 	0.2885	0.5231	0.5257	0.21
Mof_H 	H 	0.3035	0.5397	0.4872	0.148
Mof_H 	H 	0.2736	0.5066	0.4871	0.179
Mof_H 	H 	0.9888	0.5266	0.4668	0.002
Mof_C 	C 	0.017	0.5787	0.4598	0
Mof_H 	H 	0.0174	0.5786	0.4325	0.015
Mof_Zn	Zn	0.257	0.94924	0.91616	1.22
Mof_Zn	Zn	0.44964	0.8385	0.91485	1.208
Mof_O 	O 	0.4531	0.86597	0.82651	-0.472
Mof_O 	O 	0.4172	0.86609	0.87917	-0.503
Mof_O 	O 	0.27375	0.96029	0.83287	-0.504
Mof_O 	O 	0.30176	0.94023	0.88568	-0.506
Mof_O 	O 	0.3488	0.96062	0.71397	-0.492
Mof_O 	O 	0.40944	0.9413	0.71584	-0.519
Mof_O 	O 	0.21493	0.91817	0.90117	-0.551
Mof_O 	O 	0.19014	0.95365	0.8535	-0.497
Mof_C 	C 	0.3943	0.89898	0.82593	-0.186
Mof_C 	C 	0.363	0.91076	0.84565	0.117
Mof_H 	H 	0.3604	0.904	0.8711	0.014
Mof_C 	C 	0.33476	0.93282	0.8283	-0.185
Mof_C 	C 	0.33937	0.94328	0.79066	0.119
Mof_H 	H 	0.3207	0.9578	0.7787	0.003
Mof_C 	C 	0.37126	0.93252	0.7707	-0.188
Mof_C 	C 	0.39856	0.91027	0.78826	0.118
Mof_H 	H 	0.42	0.9028	0.7747	0.001
Mof_C 	C 	0.42425	0.87503	0.84524	0.429
Mof_C 	C 	0.30038	0.94612	0.85016	0.431
Mof_C 	C 	0.37614	0.94541	0.7304	0.412
Mof_C 	C 	0.18994	0.926	0.87551	0.418
Mof_C 	C 	0.15811	0.89668	0.8729	-0.233
Mof_C 	C 	0.1319	0.89898	0.84395	0.149
Mof_H 	H 	0.1337	0.9189	0.8253	-0.041
Mof_N 	N 	0.4486	0.8563	0.9681	-0.174
Mof_C 	C 	0.4665	0.89	0.9806	0.077
Mof_N 	N 	0.2648	0.9287	0.9685	-0.32
Mof_C 	C 	0.2924	0.9036	0.9809	-0.063
Mof_C 	C 	0.3186	0.88	0.961	-0.021
Mof_H 	H 	0.3189	0.8801	0.9337	0.028
Mof_C 	C 	0.3427	0.8581	0.9805	-0.114
Mof_H 	H 	0.3601	0.8419	0.9669	0.039
Mof_N 	N 	0.4426	0.8514	0.9683	-0.103
Mof_H 	H 	0.453	0.7804	0.0257	0.019
Mof_H 	H 	0.4756	0.7838	0.9874	0.036
Mof_H 	H 	0.4315	0.7771	0.9868	0.132
Mof_C 	C 	0.4372	0.8881	0.9806	-0.1
Mof_C 	C 	0.4323	0.921	0.9604	0.017
Mof_H 	H 	0.4323	0.9206	0.9331	0.006
Mof_C 	C 	0.4272	0.9551	0.9802	-0.139
Mof_H 	H 	0.4248	0.9786	0.9665	0.055
Mof_N 	N 	0.2749	0.9532	0.9687	-0.31
Mof_H 	H 	0.2202	0.905	0.0257	0.571
Mof_H 	H 	0.235	0.8882	0.9872	0.57
Mof_H 	H 	0.2055	0.9216	0.9871	0.555
Mof_C 	C 	0.3031	0.9779	0.9806	-0.061
Mof_C 	C 	0.3537	0.0229	0.9804	-0.103
Mof_H 	H 	0.3715	0.0386	0.9668	0.069
Mof_H 	H 	0.4136	0.7902	0.0257	0.077
Mof_H 	H 	0.3938	0.8007	0.9872	0.083
Mof_H 	H 	0.4332	0.7798	0.987	0.024
Mof_H 	H 	0.2115	0.9769	0.0257	0.181
Mof_H 	H 	0.1965	0.9603	0.9872	0.128
Mof_H 	H 	0.2264	0.9934	0.9871	0.176
Mof_H 	H 	0.5112	0.9734	0.9668	0.007
Mof_C 	C 	0.483	0.9213	0.9598	-0.082
Mof_H 	H 	0.4826	0.9214	0.9325	0.033
Mof_Zn	Zn	0.757	0.44924	0.41616	1.223
Mof_Zn	Zn	0.94964	0.3385	0.41485	1.206
Mof_O 	O 	0.9531	0.36597	0.32651	-0.478
Mof_O 	O 	0.9172	0.36609	0.37917	-0.506
Mof_O 	O 	0.77375	0.46029	0.33287	-0.497
Mof_O 	O 	0.80176	0.44023	0.38568	-0.504
Mof_O 	O 	0.8488	0.46062	0.21397	-0.485
Mof_O 	O 	0.90944	0.4413	0.21584	-0.515
Mof_O 	O 	0.71493	0.41817	0.40117	-0.557
Mof_O 	O 	0.69014	0.45365	0.3535	-0.496
Mof_C 	C 	0.8943	0.39898	0.32593	-0.186
Mof_C 	C 	0.863	0.41076	0.34565	0.117
Mof_H 	H 	0.8604	0.404	0.3711	0.014
Mof_C 	C 	0.83476	0.43282	0.3283	-0.183
Mof_C 	C 	0.83937	0.44328	0.29066	0.118
Mof_H 	H 	0.8207	0.4578	0.2787	0.007
Mof_C 	C 	0.87126	0.43252	0.2707	-0.185
Mof_C 	C 	0.89856	0.41027	0.28826	0.117
Mof_H 	H 	0.92	0.4028	0.2747	0.001
Mof_C 	C 	0.92425	0.37503	0.34524	0.43
Mof_C 	C 	0.80038	0.44612	0.35016	0.431
Mof_C 	C 	0.87614	0.44541	0.2304	0.411
Mof_C 	C 	0.68994	0.426	0.37551	0.42
Mof_C 	C 	0.65811	0.39668	0.3729	-0.242
Mof_C 	C 	0.6319	0.39898	0.34395	0.156
Mof_H 	H 	0.6337	0.4189	0.3253	-0.049
Mof_N 	N 	0.9486	0.3563	0.4681	-0.18
Mof_C 	C 	0.9665	0.39	0.4806	-0.012
Mof_N 	N 	0.7648	0.4287	0.4685	-0.334
Mof_C 	C 	0.7924	0.4036	0.4809	-0.026
Mof_C 	C 	0.8186	0.38	0.461	-0.072
Mof_H 	H 	0.8189	0.3801	0.4337	0.044
Mof_C 	C 	0.8427	0.3581	0.4805	-0.034
Mof_H 	H 	0.8601	0.3419	0.4669	0.013
Mof_N 	N 	0.9426	0.3514	0.4683	-0.111
Mof_H 	H 	0.953	0.2804	0.5257	0.035
Mof_H 	H 	0.9756	0.2838	0.4874	0.064
Mof_H 	H 	0.9315	0.2771	0.4868	0.166
Mof_C 	C 	0.9372	0.3881	0.4806	0.052
Mof_C 	C 	0.9323	0.421	0.4604	-0.083
Mof_H 	H 	0.9323	0.4206	0.4331	0.039
Mof_C 	C 	0.9272	0.4551	0.4802	-0.025
Mof_H 	H 	0.9248	0.4786	0.4665	0.03
Mof_N 	N 	0.7749	0.4532	0.4687	-0.334
Mof_H 	H 	0.7202	0.405	0.5257	0.665
Mof_H 	H 	0.735	0.3882	0.4872	0.674
Mof_H 	H 	0.7055	0.4216	0.4871	0.659
Mof_C 	C 	0.8031	0.4779	0.4806	0.012
Mof_C 	C 	0.8537	0.5229	0.4804	-0.021
Mof_H 	H 	0.8715	0.5386	0.4668	0.042
Mof_H 	H 	0.9136	0.2902	0.5257	0.09
Mof_H 	H 	0.8938	0.3007	0.4872	0.113
Mof_H 	H 	0.9332	0.2798	0.487	0.034
Mof_H 	H 	0.7115	0.4769	0.5257	0.211
Mof_H 	H 	0.6965	0.4603	0.4872	0.148
Mof_H 	H 	0.7264	0.4934	0.4871	0.179
Mof_H 	H 	0.0112	0.4734	0.4668	0.032
Mof_C 	C 	0.983	0.4213	0.4598	-0.076
Mof_H 	H 	0.9826	0.4214	0.4325	0.024
Mof_Zn	Zn	0.743	0.94924	0.08384	1.219
Mof_Zn	Zn	0.55036	0.8385	0.08515	1.209
Mof_O 	O 	0.5469	0.86597	0.17349	-0.472
Mof_O 	O 	0.5828	0.86609	0.12083	-0.506
Mof_O 	O 	0.72625	0.96029	0.16713	-0.504
Mof_O 	O 	0.69824	0.94023	0.11432	-0.51
Mof_O 	O 	0.6512	0.96062	0.28603	-0.492
Mof_O 	O 	0.59056	0.9413	0.28416	-0.519
Mof_O 	O 	0.78507	0.91817	0.09883	-0.55
Mof_O 	O 	0.80986	0.95365	0.1465	-0.497
Mof_C 	C 	0.6057	0.89898	0.17407	-0.188
Mof_C 	C 	0.637	0.91076	0.15435	0.118
Mof_H 	H 	0.6396	0.904	0.1289	0.012
Mof_C 	C 	0.66524	0.93282	0.1717	-0.187
Mof_C 	C 	0.66063	0.94328	0.20934	0.12
Mof_H 	H 	0.6793	0.9578	0.2213	0.003
Mof_C 	C 	0.62874	0.93252	0.2293	-0.189
Mof_C 	C 	0.60144	0.91027	0.21174	0.118
Mof_H 	H 	0.58	0.9028	0.2253	0.001
Mof_C 	C 	0.57575	0.87503	0.15476	0.429
Mof_C 	C 	0.69962	0.94612	0.14984	0.432
Mof_C 	C 	0.62386	0.94541	0.2696	0.412
Mof_C 	C 	0.81006	0.926	0.12449	0.418
Mof_C 	C 	0.84189	0.89668	0.1271	-0.233
Mof_C 	C 	0.8681	0.89898	0.15605	0.149
Mof_H 	H 	0.8663	0.9189	0.1747	-0.041
Mof_N 	N 	0.5514	0.8563	0.0319	-0.186
Mof_C 	C 	0.5335	0.89	0.0194	-0.116
Mof_N 	N 	0.7352	0.9287	0.0315	-0.325
Mof_C 	C 	0.7076	0.9036	0.0191	0.031
Mof_C 	C 	0.6814	0.88	0.039	-0.129
Mof_H 	H 	0.6811	0.8801	0.0663	0.064
Mof_C 	C 	0.6573	0.8581	0.0195	0.05
Mof_H 	H 	0.6399	0.8419	0.0331	-0.011
Mof_N 	N 	0.5574	0.8514	0.0317	-0.115
Mof_H 	H 	0.547	0.7804	0.9743	0.029
Mof_H 	H 	0.5244	0.7838	0.0126	0.07
Mof_H 	H 	0.5685	0.7771	0.0132	0.148
Mof_C 	C 	0.5628	0.8881	0.0194	0.22
Mof_C 	C 	0.5677	0.921	0.0396	-0.21
Mof_H 	H 	0.5677	0.9206	0.0669	0.08
Mof_C 	C 	0.5728	0.9551	0.0198	0.097
Mof_H 	H 	0.5752	0.9786	0.0335	-0.013
Mof_N 	N 	0.7251	0.9532	0.0313	-0.323
Mof_H 	H 	0.7798	0.905	0.9743	0.582
Mof_H 	H 	0.765	0.8882	0.0128	0.6
Mof_H 	H 	0.7945	0.9216	0.0129	0.583
Mof_C 	C 	0.6969	0.9779	0.0194	0.05
Mof_C 	C 	0.6463	0.0229	0.0196	0.062
Mof_H 	H 	0.6285	0.0386	0.0332	0.017
Mof_H 	H 	0.5864	0.7902	0.9743	0.087
Mof_H 	H 	0.6062	0.8007	0.0128	0.118
Mof_H 	H 	0.5668	0.7798	0.013	0.038
Mof_H 	H 	0.7885	0.9769	0.9743	0.187
Mof_H 	H 	0.8035	0.9603	0.0128	0.155
Mof_H 	H 	0.7736	0.9934	0.0129	0.19
Mof_H 	H 	0.4888	0.9734	0.0332	0.034
Mof_C 	C 	0.517	0.9213	0.0402	0.027
Mof_H 	H 	0.5174	0.9214	0.0675	-0.003
Mof_Zn	Zn	0.243	0.44924	0.58384	1.223
Mof_Zn	Zn	0.05036	0.3385	0.58515	1.209
Mof_O 	O 	0.0469	0.36597	0.67349	-0.467
Mof_O 	O 	0.0828	0.36609	0.62083	-0.504
Mof_O 	O 	0.22625	0.46029	0.66713	-0.497
Mof_O 	O 	0.19824	0.44023	0.61432	-0.504
Mof_O 	O 	0.1512	0.46062	0.78603	-0.484
Mof_O 	O 	0.09056	0.4413	0.78416	-0.512
Mof_O 	O 	0.28507	0.41817	0.59883	-0.557
Mof_O 	O 	0.30986	0.45365	0.6465	-0.496
Mof_C 	C 	0.1057	0.39898	0.67407	-0.182
Mof_C 	C 	0.137	0.41076	0.65435	0.115
Mof_H 	H 	0.1396	0.404	0.6289	0.014
Mof_C 	C 	0.16524	0.43282	0.6717	-0.181
Mof_C 	C 	0.16063	0.44328	0.70934	0.117
Mof_H 	H 	0.1793	0.4578	0.7213	0.007
Mof_C 	C 	0.12874	0.43252	0.7293	-0.183
Mof_C 	C 	0.10144	0.41027	0.71174	0.115
Mof_H 	H 	0.08	0.4028	0.7253	0.005
Mof_C 	C 	0.07575	0.37503	0.65476	0.428
Mof_C 	C 	0.19962	0.44612	0.64984	0.431
Mof_C 	C 	0.12386	0.44541	0.7696	0.41
Mof_C 	C 	0.31006	0.426	0.62449	0.42
Mof_C 	C 	0.34189	0.39668	0.6271	-0.242
Mof_C 	C 	0.3681	0.39898	0.65605	0.156
Mof_H 	H 	0.3663	0.4189	0.6747	-0.049
Mof_N 	N 	0.0514	0.3563	0.5319	-0.183
Mof_C 	C 	0.0335	0.39	0.5194	-0.021
Mof_N 	N 	0.2352	0.4287	0.5315	-0.334
Mof_C 	C 	0.2076	0.4036	0.5191	-0.026
Mof_C 	C 	0.1814	0.38	0.539	-0.072
Mof_H 	H 	0.1811	0.3801	0.5663	0.044
Mof_C 	C 	0.1573	0.3581	0.5195	-0.034
Mof_H 	H 	0.1399	0.3419	0.5331	0.012
Mof_N 	N 	0.0574	0.3514	0.5317	-0.107
Mof_H 	H 	0.047	0.2804	0.4743	0.029
Mof_H 	H 	0.0244	0.2838	0.5126	0.067
Mof_H 	H 	0.0685	0.2771	0.5132	0.167
Mof_C 	C 	0.0628	0.3881	0.5194	0.061
Mof_C 	C 	0.0677	0.421	0.5396	-0.103
Mof_H 	H 	0.0677	0.4206	0.5669	0.047
Mof_C 	C 	0.0728	0.4551	0.5198	-0.021
Mof_H 	H 	0.0752	0.4786	0.5335	0.028
Mof_N 	N 	0.2251	0.4532	0.5313	-0.334
Mof_H 	H 	0.2798	0.405	0.4743	0.665
Mof_H 	H 	0.265	0.3882	0.5128	0.673
Mof_H 	H 	0.2945	0.4216	0.5129	0.659
Mof_C 	C 	0.1969	0.4779	0.5194	0.012
Mof_C 	C 	0.1463	0.5229	0.5196	-0.021
Mof_H 	H 	0.1285	0.5386	0.5332	0.042
Mof_H 	H 	0.0864	0.2902	0.4743	0.102
Mof_H 	H 	0.1062	0.3007	0.5128	0.122
Mof_H 	H 	0.0668	0.2798	0.513	0.035
Mof_H 	H 	0.2885	0.4769	0.4743	0.21
Mof_H 	H 	0.3035	0.4603	0.5128	0.148
Mof_H 	H 	0.2736	0.4934	0.5129	0.179
Mof_H 	H 	0.9888	0.4734	0.5332	0.002
Mof_C 	C 	0.017	0.4213	0.5402	0
Mof_H 	H 	0.0174	0.4214	0.5675	0.015
Mof_Zn	Zn	0.91616	0.743	0.94924	1.22
Mof_Zn	Zn	0.91485	0.55036	0.8385	1.208
Mof_O 	O 	0.82651	0.5469	0.86597	-0.472
Mof_O 	O 	0.87917	0.5828	0.86609	-0.503
Mof_O 	O 	0.83287	0.72625	0.96029	-0.504
Mof_O 	O 	0.88568	0.69824	0.94023	-0.506
Mof_O 	O 	0.71397	0.6512	0.96062	-0.492
Mof_O 	O 	0.71584	0.59056	0.9413	-0.519
Mof_O 	O 	0.90117	0.78507	0.91817	-0.551
Mof_O 	O 	0.8535	0.80986	0.95365	-0.498
Mof_C 	C 	0.82593	0.6057	0.89898	-0.186
Mof_C 	C 	0.84565	0.637	0.91076	0.117
Mof_H 	H 	0.8711	0.6396	0.904	0.014
Mof_C 	C 	0.8283	0.66524	0.93282	-0.185
Mof_C 	C 	0.79066	0.66063	0.94328	0.119
Mof_H 	H 	0.7787	0.6793	0.9578	0.003
Mof_C 	C 	0.7707	0.62874	0.93252	-0.188
Mof_C 	C 	0.78826	0.60144	0.91027	0.118
Mof_H 	H 	0.7747	0.58	0.9028	0.001
Mof_C 	C 	0.84524	0.57575	0.87503	0.429
Mof_C 	C 	0.85016	0.69962	0.94612	0.431
Mof_C 	C 	0.7304	0.62386	0.94541	0.412
Mof_C 	C 	0.87551	0.81006	0.926	0.418
Mof_C 	C 	0.8729	0.84189	0.89668	-0.235
Mof_C 	C 	0.84395	0.8681	0.89898	0.149
Mof_H 	H 	0.8253	0.8663	0.9189	-0.042
Mof_N 	N 	0.9681	0.5514	0.8563	-0.174
Mof_C 	C 	0.9806	0.5335	0.89	0.077
Mof_N 	N 	0.9685	0.7352	0.9287	-0.32
Mof_C 	C 	0.9809	0.7076	0.9036	-0.063
Mof_C 	C 	0.961	0.6814	0.88	-0.021
Mof_H 	H 	0.9337	0.6811	0.8801	0.029
Mof_C 	C 	0.9805	0.6573	0.8581	-0.114
Mof_H 	H 	0.9669	0.6399	0.8419	0.039
Mof_N 	N 	0.9683	0.5574	0.8514	-0.103
Mof_H 	H 	0.0257	0.547	0.7804	0.019
Mof_H 	H 	0.9874	0.5244	0.7838	0.036
Mof_H 	H 	0.9868	0.5685	0.7771	0.132
Mof_C 	C 	0.9806	0.5628	0.8881	-0.1
Mof_C 	C 	0.9604	0.5677	0.921	0.017
Mof_H 	H 	0.9331	0.5677	0.9206	0.006
Mof_C 	C 	0.9802	0.5728	0.9551	-0.139
Mof_H 	H 	0.9665	0.5752	0.9786	0.055
Mof_N 	N 	0.9687	0.7251	0.9532	-0.31
Mof_H 	H 	0.0257	0.7798	0.905	0.569
Mof_H 	H 	0.9872	0.765	0.8882	0.568
Mof_H 	H 	0.9871	0.7945	0.9216	0.553
Mof_C 	C 	0.9806	0.6969	0.9779	-0.061
Mof_C 	C 	0.9804	0.6463	0.0229	-0.103
Mof_H 	H 	0.9668	0.6285	0.0386	0.069
Mof_H 	H 	0.0257	0.5864	0.7902	0.077
Mof_H 	H 	0.9872	0.6062	0.8007	0.083
Mof_H 	H 	0.987	0.5668	0.7798	0.024
Mof_H 	H 	0.0257	0.7885	0.9769	0.18
Mof_H 	H 	0.9872	0.8035	0.9603	0.127
Mof_H 	H 	0.9871	0.7736	0.9934	0.175
Mof_H 	H 	0.9668	0.4888	0.9734	0.007
Mof_C 	C 	0.9598	0.517	0.9213	-0.082
Mof_H 	H 	0.9325	0.5174	0.9214	0.033
Mof_Zn	Zn	0.41616	0.243	0.44924	1.223
Mof_Zn	Zn	0.41485	0.05036	0.3385	1.209
Mof_O 	O 	0.32651	0.0469	0.36597	-0.467
Mof_O 	O 	0.37917	0.0828	0.36609	-0.504
Mof_O 	O 	0.33287	0.22625	0.46029	-0.497
Mof_O 	O 	0.38568	0.19824	0.44023	-0.504
Mof_O 	O 	0.21397	0.1512	0.46062	-0.485
Mof_O 	O 	0.21584	0.09056	0.4413	-0.512
Mof_O 	O 	0.40117	0.28507	0.41817	-0.557
Mof_O 	O 	0.3535	0.30986	0.45365	-0.496
Mof_C 	C 	0.32593	0.1057	0.39898	-0.182
Mof_C 	C 	0.34565	0.137	0.41076	0.115
Mof_H 	H 	0.3711	0.1396	0.404	0.014
Mof_C 	C 	0.3283	0.16524	0.43282	-0.182
Mof_C 	C 	0.29066	0.16063	0.44328	0.117
Mof_H 	H 	0.2787	0.1793	0.4578	0.007
Mof_C 	C 	0.2707	0.12874	0.43252	-0.183
Mof_C 	C 	0.28826	0.10144	0.41027	0.115
Mof_H 	H 	0.2747	0.08	0.4028	0.005
Mof_C 	C 	0.34524	0.07575	0.37503	0.428
Mof_C 	C 	0.35016	0.19962	0.44612	0.431
Mof_C 	C 	0.2304	0.12386	0.44541	0.41
Mof_C 	C 	0.37551	0.31006	0.426	0.42
Mof_C 	C 	0.3729	0.34189	0.39668	-0.242
Mof_C 	C 	0.34395	0.3681	0.39898	0.156
Mof_H 	H 	0.3253	0.3663	0.4189	-0.049
Mof_N 	N 	0.4681	0.0514	0.3563	-0.183
Mof_C 	C 	0.4806	0.0335	0.39	-0.021
Mof_N 	N 	0.4685	0.2352	0.4287	-0.334
Mof_C 	C 	0.4809	0.2076	0.4036	-0.026
Mof_C 	C 	0.461	0.1814	0.38	-0.072
Mof_H 	H 	0.4337	0.1811	0.3801	0.044
Mof_C 	C 	0.4805	0.1573	0.3581	-0.034
Mof_H 	H 	0.4669	0.1399	0.3419	0.012
Mof_N 	N 	0.4683	0.0574	0.3514	-0.107
Mof_H 	H 	0.5257	0.047	0.2804	0.029
Mof_H 	H 	0.4874	0.0244	0.2838	0.067
Mof_H 	H 	0.4868	0.0685	0.2771	0.167
Mof_C 	C 	0.4806	0.0628	0.3881	0.061
Mof_C 	C 	0.4604	0.0677	0.421	-0.103
Mof_H 	H 	0.4331	0.0677	0.4206	0.047
Mof_C 	C 	0.4802	0.0728	0.4551	-0.021
Mof_H 	H 	0.4665	0.0752	0.4786	0.028
Mof_N 	N 	0.4687	0.2251	0.4532	-0.334
Mof_H 	H 	0.5257	0.2798	0.405	0.665
Mof_H 	H 	0.4872	0.265	0.3882	0.673
Mof_H 	H 	0.4871	0.2945	0.4216	0.659
Mof_C 	C 	0.4806	0.1969	0.4779	0.012
Mof_C 	C 	0.4804	0.1463	0.5229	-0.021
Mof_H 	H 	0.4668	0.1285	0.5386	0.042
Mof_H 	H 	0.5257	0.0864	0.2902	0.102
Mof_H 	H 	0.4872	0.1062	0.3007	0.122
Mof_H 	H 	0.487	0.0668	0.2798	0.035
Mof_H 	H 	0.5257	0.2885	0.4769	0.21
Mof_H 	H 	0.4872	0.3035	0.4603	0.148
Mof_H 	H 	0.4871	0.2736	0.4934	0.179
Mof_H 	H 	0.4668	0.9888	0.4734	0.002
Mof_C 	C 	0.4598	0.017	0.4213	0
Mof_H 	H 	0.4325	0.0174	0.4214	0.015
Mof_Zn	Zn	0.08384	0.257	0.94924	1.219
Mof_Zn	Zn	0.08515	0.44964	0.8385	1.209
Mof_O 	O 	0.17349	0.4531	0.86597	-0.472
Mof_O 	O 	0.12083	0.4172	0.86609	-0.506
Mof_O 	O 	0.16713	0.27375	0.96029	-0.504
Mof_O 	O 	0.11432	0.30176	0.94023	-0.51
Mof_O 	O 	0.28603	0.3488	0.96062	-0.492
Mof_O 	O 	0.28416	0.40944	0.9413	-0.519
Mof_O 	O 	0.09883	0.21493	0.91817	-0.55
Mof_O 	O 	0.1465	0.19014	0.95365	-0.497
Mof_C 	C 	0.17407	0.3943	0.89898	-0.188
Mof_C 	C 	0.15435	0.363	0.91076	0.118
Mof_H 	H 	0.1289	0.3604	0.904	0.012
Mof_C 	C 	0.1717	0.33476	0.93282	-0.187
Mof_C 	C 	0.20934	0.33937	0.94328	0.12
Mof_H 	H 	0.2213	0.3207	0.9578	0.003
Mof_C 	C 	0.2293	0.37126	0.93252	-0.189
Mof_C 	C 	0.21174	0.39856	0.91027	0.118
Mof_H 	H 	0.2253	0.42	0.9028	0.001
Mof_C 	C 	0.15476	0.42425	0.87503	0.429
Mof_C 	C 	0.14984	0.30038	0.94612	0.432
Mof_C 	C 	0.2696	0.37614	0.94541	0.412
Mof_C 	C 	0.12449	0.18994	0.926	0.418
Mof_C 	C 	0.1271	0.15811	0.89668	-0.231
Mof_C 	C 	0.15605	0.1319	0.89898	0.148
Mof_H 	H 	0.1747	0.1337	0.9189	-0.04
Mof_N 	N 	0.0319	0.4486	0.8563	-0.186
Mof_C 	C 	0.0194	0.4665	0.89	-0.116
Mof_N 	N 	0.0315	0.2648	0.9287	-0.325
Mof_C 	C 	0.0191	0.2924	0.9036	0.03
Mof_C 	C 	0.039	0.3186	0.88	-0.129
Mof_H 	H 	0.0663	0.3189	0.8801	0.063
Mof_C 	C 	0.0195	0.3427	0.8581	0.05
Mof_H 	H 	0.0331	0.3601	0.8419	-0.011
Mof_N 	N 	0.0317	0.4426	0.8514	-0.115
Mof_H 	H 	0.9743	0.453	0.7804	0.029
Mof_H 	H 	0.0126	0.4756	0.7838	0.07
Mof_H 	H 	0.0132	0.4315	0.7771	0.148
Mof_C 	C 	0.0194	0.4372	0.8881	0.22
Mof_C 	C 	0.0396	0.4323	0.921	-0.21
Mof_H 	H 	0.0669	0.4323	0.9206	0.08
Mof_C 	C 	0.0198	0.4272	0.9551	0.097
Mof_H 	H 	0.0335	0.4248	0.9786	-0.013
Mof_N 	N 	0.0313	0.2749	0.9532	-0.324
Mof_H 	H 	0.9743	0.2202	0.905	0.583
Mof_H 	H 	0.0128	0.235	0.8882	0.602
Mof_H 	H 	0.0129	0.2055	0.9216	0.585
Mof_C 	C 	0.0194	0.3031	0.9779	0.05
Mof_C 	C 	0.0196	0.3537	0.0229	0.062
Mof_H 	H 	0.0332	0.3715	0.0386	0.017
Mof_H 	H 	0.9743	0.4136	0.7902	0.087
Mof_H 	H 	0.0128	0.3938	0.8007	0.118
Mof_H 	H 	0.013	0.4332	0.7798	0.038
Mof_H 	H 	0.9743	0.2115	0.9769	0.188
Mof_H 	H 	0.0128	0.1965	0.9603	0.156
Mof_H 	H 	0.0129	0.2264	0.9934	0.19
Mof_H 	H 	0.0332	0.5112	0.9734	0.034
Mof_C 	C 	0.0402	0.483	0.9213	0.027
Mof_H 	H 	0.0675	0.4826	0.9214	-0.003
Mof_Zn	Zn	0.58384	0.757	0.44924	1.223
Mof_Zn	Zn	0.58515	0.94964	0.3385	1.206
Mof_O 	O 	0.67349	0.9531	0.36597	-0.478
Mof_O 	O 	0.62083	0.9172	0.36609	-0.506
Mof_O 	O 	0.66713	0.77375	0.46029	-0.497
Mof_O 	O 	0.61432	0.80176	0.44023	-0.504
Mof_O 	O 	0.78603	0.8488	0.46062	-0.485
Mof_O 	O 	0.78416	0.90944	0.4413	-0.515
Mof_O 	O 	0.59883	0.71493	0.41817	-0.557
Mof_O 	O 	0.6465	0.69014	0.45365	-0.496
Mof_C 	C 	0.67407	0.8943	0.39898	-0.186
Mof_C 	C 	0.65435	0.863	0.41076	0.117
Mof_H 	H 	0.6289	0.8604	0.404	0.014
Mof_C 	C 	0.6717	0.83476	0.43282	-0.183
Mof_C 	C 	0.70934	0.83937	0.44328	0.118
Mof_H 	H 	0.7213	0.8207	0.4578	0.007
Mof_C 	C 	0.7293	0.87126	0.43252	-0.185
Mof_C 	C 	0.71174	0.89856	0.41027	0.117
Mof_H 	H 	0.7253	0.92	0.4028	0.001
Mof_C 	C 	0.65476	0.92425	0.37503	0.43
Mof_C 	C 	0.64984	0.80038	0.44612	0.431
Mof_C 	C 	0.7696	0.87614	0.44541	0.411
Mof_C 	C 	0.62449	0.68994	0.426	0.42
Mof_C 	C 	0.6271	0.65811	0.39668	-0.242
Mof_C 	C 	0.65605	0.6319	0.39898	0.156
Mof_H 	H 	0.6747	0.6337	0.4189	-0.049
Mof_N 	N 	0.5319	0.9486	0.3563	-0.18
Mof_C 	C 	0.5194	0.9665	0.39	-0.012
Mof_N 	N 	0.5315	0.7648	0.4287	-0.334
Mof_C 	C 	0.5191	0.7924	0.4036	-0.026
Mof_C 	C 	0.539	0.8186	0.38	-0.072
Mof_H 	H 	0.5663	0.8189	0.3801	0.044
Mof_C 	C 	0.5195	0.8427	0.3581	-0.034
Mof_H 	H 	0.5331	0.8601	0.3419	0.013
Mof_N 	N 	0.5317	0.9426	0.3514	-0.111
Mof_H 	H 	0.4743	0.953	0.2804	0.035
Mof_H 	H 	0.5126	0.9756	0.2838	0.064
Mof_H 	H 	0.5132	0.9315	0.2771	0.166
Mof_C 	C 	0.5194	0.9372	0.3881	0.052
Mof_C 	C 	0.5396	0.9323	0.421	-0.083
Mof_H 	H 	0.5669	0.9323	0.4206	0.039
Mof_C 	C 	0.5198	0.9272	0.4551	-0.025
Mof_H 	H 	0.5335	0.9248	0.4786	0.03
Mof_N 	N 	0.5313	0.7749	0.4532	-0.334
Mof_H 	H 	0.4743	0.7202	0.405	0.665
Mof_H 	H 	0.5128	0.735	0.3882	0.674
Mof_H 	H 	0.5129	0.7055	0.4216	0.659
Mof_C 	C 	0.5194	0.8031	0.4779	0.012
Mof_C 	C 	0.5196	0.8537	0.5229	-0.021
Mof_H 	H 	0.5332	0.8715	0.5386	0.042
Mof_H 	H 	0.4743	0.9136	0.2902	0.09
Mof_H 	H 	0.5128	0.8938	0.3007	0.113
Mof_H 	H 	0.513	0.9332	0.2798	0.034
Mof_H 	H 	0.4743	0.7115	0.4769	0.21
Mof_H 	H 	0.5128	0.6965	0.4603	0.148
Mof_H 	H 	0.5129	0.7264	0.4934	0.179
Mof_H 	H 	0.5332	0.0112	0.4734	0.032
Mof_C 	C 	0.5402	0.983	0.4213	-0.076
Mof_H 	H 	0.5675	0.9826	0.4214	0.024
Mof_Zn	Zn	0.08384	0.743	0.05076	1.222
Mof_Zn	Zn	0.08515	0.55036	0.1615	1.209
Mof_O 	O 	0.17349	0.5469	0.13403	-0.471
Mof_O 	O 	0.12083	0.5828	0.13391	-0.505
Mof_O 	O 	0.16713	0.72625	0.03971	-0.492
Mof_O 	O 	0.11432	0.69824	0.05977	-0.505
Mof_O 	O 	0.28603	0.6512	0.03938	-0.48
Mof_O 	O 	0.28416	0.59056	0.0587	-0.514
Mof_O 	O 	0.09883	0.78507	0.08183	-0.547
Mof_O 	O 	0.1465	0.80986	0.04635	-0.486
Mof_C 	C 	0.17407	0.6057	0.10102	-0.184
Mof_C 	C 	0.15435	0.637	0.08924	0.116
Mof_H 	H 	0.1289	0.6396	0.096	0.014
Mof_C 	C 	0.1717	0.66524	0.06718	-0.18
Mof_C 	C 	0.20934	0.66063	0.05672	0.118
Mof_H 	H 	0.2213	0.6793	0.0422	0.011
Mof_C 	C 	0.2293	0.62874	0.06748	-0.182
Mof_C 	C 	0.21174	0.60144	0.08973	0.117
Mof_H 	H 	0.2253	0.58	0.0972	0.002
Mof_C 	C 	0.15476	0.57575	0.12497	0.429
Mof_C 	C 	0.14984	0.69962	0.05388	0.432
Mof_C 	C 	0.2696	0.62386	0.05459	0.411
Mof_C 	C 	0.12449	0.81006	0.074	0.417
Mof_C 	C 	0.1271	0.84189	0.10332	-0.229
Mof_C 	C 	0.15605	0.8681	0.10102	0.148
Mof_H 	H 	0.1747	0.8663	0.0811	-0.038
Mof_N 	N 	0.0319	0.5514	0.1437	-0.186
Mof_C 	C 	0.0194	0.5335	0.11	-0.114
Mof_N 	N 	0.0315	0.7352	0.0713	-0.318
Mof_C 	C 	0.0191	0.7076	0.0964	0.032
Mof_C 	C 	0.039	0.6814	0.12	-0.13
Mof_H 	H 	0.0663	0.6811	0.1199	0.064
Mof_C 	C 	0.0195	0.6573	0.1419	0.05
Mof_H 	H 	0.0331	0.6399	0.1581	-0.011
Mof_N 	N 	0.0317	0.5574	0.1486	-0.115
Mof_H 	H 	0.9743	0.547	0.2196	0.029
Mof_H 	H 	0.0126	0.5244	0.2162	0.069
Mof_H 	H 	0.0132	0.5685	0.2229	0.148
Mof_C 	C 	0.0194	0.5628	0.1119	0.218
Mof_C 	C 	0.0396	0.5677	0.079	-0.208
Mof_H 	H 	0.0669	0.5677	0.0794	0.082
Mof_C 	C 	0.0198	0.5728	0.0449	0.096
Mof_H 	H 	0.0335	0.5752	0.0214	0.002
Mof_N 	N 	0.0313	0.7251	0.0468	-0.321
Mof_H 	H 	0.9743	0.7798	0.095	0.58
Mof_H 	H 	0.0128	0.765	0.1118	0.599
Mof_H 	H 	0.0129	0.7945	0.0784	0.583
Mof_C 	C 	0.0194	0.6969	0.0221	0.07
Mof_C 	C 	0.0196	0.6463	0.9771	0.042
Mof_H 	H 	0.0332	0.6285	0.9614	0.02
Mof_H 	H 	0.9743	0.5864	0.2098	0.087
Mof_H 	H 	0.0128	0.6062	0.1993	0.118
Mof_H 	H 	0.013	0.5668	0.2202	0.038
Mof_H 	H 	0.9743	0.7885	0.0231	0.177
Mof_H 	H 	0.0128	0.8035	0.0397	0.131
Mof_H 	H 	0.0129	0.7736	0.0066	0.135
Mof_H 	H 	0.0332	0.4888	0.0266	0.041
Mof_C 	C 	0.0402	0.517	0.0787	0.026
Mof_H 	H 	0.0675	0.5174	0.0786	-0.001
Mof_Zn	Zn	0.58384	0.243	0.55076	1.223
Mof_Zn	Zn	0.58515	0.05036	0.6615	1.209
Mof_O 	O 	0.67349	0.0469	0.63403	-0.466
Mof_O 	O 	0.62083	0.0828	0.63391	-0.504
Mof_O 	O 	0.66713	0.22625	0.53971	-0.497
Mof_O 	O 	0.61432	0.19824	0.55977	-0.504
Mof_O 	O 	0.78603	0.1512	0.53938	-0.484
Mof_O 	O 	0.78416	0.09056	0.5587	-0.512
Mof_O 	O 	0.59883	0.28507	0.58183	-0.557
Mof_O 	O 	0.6465	0.30986	0.54635	-0.496
Mof_C 	C 	0.67407	0.1057	0.60102	-0.182
Mof_C 	C 	0.65435	0.137	0.58924	0.115
Mof_H 	H 	0.6289	0.1396	0.596	0.014
Mof_C 	C 	0.6717	0.16524	0.56718	-0.181
Mof_C 	C 	0.70934	0.16063	0.55672	0.117
Mof_H 	H 	0.7213	0.1793	0.5422	0.007
Mof_C 	C 	0.7293	0.12874	0.56748	-0.182
Mof_C 	C 	0.71174	0.10144	0.58973	0.115
Mof_H 	H 	0.7253	0.08	0.5972	0.005
Mof_C 	C 	0.65476	0.07575	0.62497	0.428
Mof_C 	C 	0.64984	0.19962	0.55388	0.431
Mof_C 	C 	0.7696	0.12386	0.55459	0.41
Mof_C 	C 	0.62449	0.31006	0.574	0.42
Mof_C 	C 	0.6271	0.34189	0.60332	-0.242
Mof_C 	C 	0.65605	0.3681	0.60102	0.156
Mof_H 	H 	0.6747	0.3663	0.5811	-0.049
Mof_N 	N 	0.5319	0.0514	0.6437	-0.183
Mof_C 	C 	0.5194	0.0335	0.61	-0.021
Mof_N 	N 	0.5315	0.2352	0.5713	-0.334
Mof_C 	C 	0.5191	0.2076	0.5964	-0.026
Mof_C 	C 	0.539	0.1814	0.62	-0.072
Mof_H 	H 	0.5663	0.1811	0.6199	0.044
Mof_C 	C 	0.5195	0.1573	0.6419	-0.034
Mof_H 	H 	0.5331	0.1399	0.6581	0.012
Mof_N 	N 	0.5317	0.0574	0.6486	-0.107
Mof_H 	H 	0.4743	0.047	0.7196	0.029
Mof_H 	H 	0.5126	0.0244	0.7162	0.067
Mof_H 	H 	0.5132	0.0685	0.7229	0.167
Mof_C 	C 	0.5194	0.0628	0.6119	0.061
Mof_C 	C 	0.5396	0.0677	0.579	-0.103
Mof_H 	H 	0.5669	0.0677	0.5794	0.047
Mof_C 	C 	0.5198	0.0728	0.5449	-0.021
Mof_H 	H 	0.5335	0.0752	0.5214	0.028
Mof_N 	N 	0.5313	0.2251	0.5468	-0.334
Mof_H 	H 	0.4743	0.2798	0.595	0.665
Mof_H 	H 	0.5128	0.265	0.6118	0.673
Mof_H 	H 	0.5129	0.2945	0.5784	0.659
Mof_C 	C 	0.5194	0.1969	0.5221	0.012
Mof_C 	C 	0.5196	0.1463	0.4771	-0.021
Mof_H 	H 	0.5332	0.1285	0.4614	0.042
Mof_H 	H 	0.4743	0.0864	0.7098	0.102
Mof_H 	H 	0.5128	0.1062	0.6993	0.122
Mof_H 	H 	0.513	0.0668	0.7202	0.035
Mof_H 	H 	0.4743	0.2885	0.5231	0.21
Mof_H 	H 	0.5128	0.3035	0.5397	0.148
Mof_H 	H 	0.5129	0.2736	0.5066	0.179
Mof_H 	H 	0.5332	0.9888	0.5266	0.002
Mof_C 	C 	0.5402	0.017	0.5787	0
Mof_H 	H 	0.5675	0.0174	0.5786	0.015
Mof_Zn	Zn	0.91616	0.257	0.05076	1.223
Mof_Zn	Zn	0.91485	0.44964	0.1615	1.208
Mof_O 	O 	0.82651	0.4531	0.13403	-0.471
Mof_O 	O 	0.87917	0.4172	0.13391	-0.503
Mof_O 	O 	0.83287	0.27375	0.03971	-0.492
Mof_O 	O 	0.88568	0.30176	0.05977	-0.501
Mof_O 	O 	0.71397	0.3488	0.03938	-0.48
Mof_O 	O 	0.71584	0.40944	0.0587	-0.514
Mof_O 	O 	0.90117	0.21493	0.08183	-0.547
Mof_O 	O 	0.8535	0.19014	0.04635	-0.486
Mof_C 	C 	0.82593	0.3943	0.10102	-0.183
Mof_C 	C 	0.84565	0.363	0.08924	0.115
Mof_H 	H 	0.8711	0.3604	0.096	0.015
Mof_C 	C 	0.8283	0.33476	0.06718	-0.179
Mof_C 	C 	0.79066	0.33937	0.05672	0.117
Mof_H 	H 	0.7787	0.3207	0.0422	0.011
Mof_C 	C 	0.7707	0.37126	0.06748	-0.182
Mof_C 	C 	0.78826	0.39856	0.08973	0.116
Mof_H 	H 	0.7747	0.42	0.0972	0.002
Mof_C 	C 	0.84524	0.42425	0.12497	0.429
Mof_C 	C 	0.85016	0.30038	0.05388	0.431
Mof_C 	C 	0.7304	0.37614	0.05459	0.411
Mof_C 	C 	0.87551	0.18994	0.074	0.417
Mof_C 	C 	0.8729	0.15811	0.10332	-0.229
Mof_C 	C 	0.84395	0.1319	0.10102	0.148
Mof_H 	H 	0.8253	0.1337	0.0811	-0.038
Mof_N 	N 	0.9681	0.4486	0.1437	-0.175
Mof_C 	C 	0.9806	0.4665	0.11	0.075
Mof_N 	N 	0.9685	0.2648	0.0713	-0.313
Mof_C 	C 	0.9809	0.2924	0.0964	-0.062
Mof_C 	C 	0.961	0.3186	0.12	-0.023
Mof_H 	H 	0.9337	0.3189	0.1199	0.029
Mof_C 	C 	0.9805	0.3427	0.1419	-0.114
Mof_H 	H 	0.9669	0.3601	0.1581	0.038
Mof_N 	N 	0.9683	0.4426	0.1486	-0.103
Mof_H 	H 	0.0257	0.453	0.2196	0.019
Mof_H 	H 	0.9874	0.4756	0.2162	0.036
Mof_H 	H 	0.9868	0.4315	0.2229	0.132
Mof_C 	C 	0.9806	0.4372	0.1119	-0.098
Mof_C 	C 	0.9604	0.4323	0.079	0.017
Mof_H 	H 	0.9331	0.4323	0.0794	0.008
Mof_C 	C 	0.9802	0.4272	0.0449	-0.138
Mof_H 	H 	0.9665	0.4248	0.0214	0.069
Mof_N 	N 	0.9687	0.2749	0.0468	-0.308
Mof_H 	H 	0.0257	0.2202	0.095	0.569
Mof_H 	H 	0.9872	0.235	0.1118	0.568
Mof_H 	H 	0.9871	0.2055	0.0784	0.554
Mof_C 	C 	0.9806	0.3031	0.0221	-0.041
Mof_C 	C 	0.9804	0.3537	0.9771	-0.123
Mof_H 	H 	0.9668	0.3715	0.9614	0.071
Mof_H 	H 	0.0257	0.4136	0.2098	0.077
Mof_H 	H 	0.9872	0.3938	0.1993	0.083
Mof_H 	H 	0.987	0.4332	0.2202	0.024
Mof_H 	H 	0.0257	0.2115	0.0231	0.171
Mof_H 	H 	0.9872	0.1965	0.0397	0.104
Mof_H 	H 	0.9871	0.2264	0.0066	0.121
Mof_H 	H 	0.9668	0.5112	0.0266	0.015
Mof_C 	C 	0.9598	0.483	0.0787	-0.08
Mof_H 	H 	0.9325	0.4826	0.0786	0.035
Mof_Zn	Zn	0.41616	0.757	0.55076	1.223
Mof_Zn	Zn	0.41485	0.94964	0.6615	1.206
Mof_O 	O 	0.32651	0.9531	0.63403	-0.478
Mof_O 	O 	0.37917	0.9172	0.63391	-0.506
Mof_O 	O 	0.33287	0.77375	0.53971	-0.497
Mof_O 	O 	0.38568	0.80176	0.55977	-0.504
Mof_O 	O 	0.21397	0.8488	0.53938	-0.485
Mof_O 	O 	0.21584	0.90944	0.5587	-0.515
Mof_O 	O 	0.40117	0.71493	0.58183	-0.557
Mof_O 	O 	0.3535	0.69014	0.54635	-0.496
Mof_C 	C 	0.32593	0.8943	0.60102	-0.186
Mof_C 	C 	0.34565	0.863	0.58924	0.117
Mof_H 	H 	0.3711	0.8604	0.596	0.014
Mof_C 	C 	0.3283	0.83476	0.56718	-0.183
Mof_C 	C 	0.29066	0.83937	0.55672	0.118
Mof_H 	H 	0.2787	0.8207	0.5422	0.007
Mof_C 	C 	0.2707	0.87126	0.56748	-0.185
Mof_C 	C 	0.28826	0.89856	0.58973	0.117
Mof_H 	H 	0.2747	0.92	0.5972	0.001
Mof_C 	C 	0.34524	0.92425	0.62497	0.43
Mof_C 	C 	0.35016	0.80038	0.55388	0.431
Mof_C 	C 	0.2304	0.87614	0.55459	0.411
Mof_C 	C 	0.37551	0.68994	0.574	0.42
Mof_C 	C 	0.3729	0.65811	0.60332	-0.242
Mof_C 	C 	0.34395	0.6319	0.60102	0.156
Mof_H 	H 	0.3253	0.6337	0.5811	-0.049
Mof_N 	N 	0.4681	0.9486	0.6437	-0.18
Mof_C 	C 	0.4806	0.9665	0.61	-0.012
Mof_N 	N 	0.4685	0.7648	0.5713	-0.334
Mof_C 	C 	0.4809	0.7924	0.5964	-0.026
Mof_C 	C 	0.461	0.8186	0.62	-0.072
Mof_H 	H 	0.4337	0.8189	0.6199	0.044
Mof_C 	C 	0.4805	0.8427	0.6419	-0.034
Mof_H 	H 	0.4669	0.8601	0.6581	0.013
Mof_N 	N 	0.4683	0.9426	0.6486	-0.111
Mof_H 	H 	0.5257	0.953	0.7196	0.035
Mof_H 	H 	0.4874	0.9756	0.7162	0.064
Mof_H 	H 	0.4868	0.9315	0.7229	0.166
Mof_C 	C 	0.4806	0.9372	0.6119	0.052
Mof_C 	C 	0.4604	0.9323	0.579	-0.083
Mof_H 	H 	0.4331	0.9323	0.5794	0.039
Mof_C 	C 	0.4802	0.9272	0.5449	-0.025
Mof_H 	H 	0.4665	0.9248	0.5214	0.03
Mof_N 	N 	0.4687	0.7749	0.5468	-0.334
Mof_H 	H 	0.5257	0.7202	0.595	0.666
Mof_H 	H 	0.4872	0.735	0.6118	0.674
Mof_H 	H 	0.4871	0.7055	0.5784	0.659
Mof_C 	C 	0.4806	0.8031	0.5221	0.012
Mof_C 	C 	0.4804	0.8537	0.4771	-0.021
Mof_H 	H 	0.4668	0.8715	0.4614	0.042
Mof_H 	H 	0.5257	0.9136	0.7098	0.09
Mof_H 	H 	0.4872	0.8938	0.6993	0.113
Mof_H 	H 	0.487	0.9332	0.7202	0.034
Mof_H 	H 	0.5257	0.7115	0.5231	0.211
Mof_H 	H 	0.4872	0.6965	0.5397	0.148
Mof_H 	H 	0.4871	0.7264	0.5066	0.179
Mof_H 	H 	0.4668	0.0112	0.5266	0.032
Mof_C 	C 	0.4598	0.983	0.5787	-0.076
Mof_H 	H 	0.4325	0.9826	0.5786	0.024
Mof_Zn	Zn	0.94924	0.91616	0.743	1.22
Mof_Zn	Zn	0.8385	0.91485	0.55036	1.208
Mof_O 	O 	0.86597	0.82651	0.5469	-0.472
Mof_O 	O 	0.86609	0.87917	0.5828	-0.503
Mof_O 	O 	0.96029	0.83287	0.72625	-0.504
Mof_O 	O 	0.94023	0.88568	0.69824	-0.506
Mof_O 	O 	0.96062	0.71397	0.6512	-0.492
Mof_O 	O 	0.9413	0.71584	0.59056	-0.519
Mof_O 	O 	0.91817	0.90117	0.78507	-0.551
Mof_O 	O 	0.95365	0.8535	0.80986	-0.498
Mof_C 	C 	0.89898	0.82593	0.6057	-0.186
Mof_C 	C 	0.91076	0.84565	0.637	0.117
Mof_H 	H 	0.904	0.8711	0.6396	0.014
Mof_C 	C 	0.93282	0.8283	0.66524	-0.185
Mof_C 	C 	0.94328	0.79066	0.66063	0.119
Mof_H 	H 	0.9578	0.7787	0.6793	0.003
Mof_C 	C 	0.93252	0.7707	0.62874	-0.188
Mof_C 	C 	0.91027	0.78826	0.60144	0.118
Mof_H 	H 	0.9028	0.7747	0.58	0.001
Mof_C 	C 	0.87503	0.84524	0.57575	0.429
Mof_C 	C 	0.94612	0.85016	0.69962	0.431
Mof_C 	C 	0.94541	0.7304	0.62386	0.412
Mof_C 	C 	0.926	0.87551	0.81006	0.418
Mof_C 	C 	0.89668	0.8729	0.84189	-0.235
Mof_C 	C 	0.89898	0.84395	0.8681	0.149
Mof_H 	H 	0.9189	0.8253	0.8663	-0.042
Mof_N 	N 	0.8563	0.9681	0.5514	-0.174
Mof_C 	C 	0.89	0.9806	0.5335	0.077
Mof_N 	N 	0.9287	0.9685	0.7352	-0.32
Mof_C 	C 	0.9036	0.9809	0.7076	-0.063
Mof_C 	C 	0.88	0.961	0.6814	-0.021
Mof_H 	H 	0.8801	0.9337	0.6811	0.029
Mof_C 	C 	0.8581	0.9805	0.6573	-0.114
Mof_H 	H 	0.8419	0.9669	0.6399	0.039
Mof_N 	N 	0.8514	0.9683	0.5574	-0.103
Mof_H 	H 	0.7804	0.0257	0.547	0.019
Mof_H 	H 	0.7838	0.9874	0.5244	0.036
Mof_H 	H 	0.7771	0.9868	0.5685	0.132
Mof_C 	C 	0.8881	0.9806	0.5628	-0.1
Mof_C 	C 	0.921	0.9604	0.5677	0.017
Mof_H 	H 	0.9206	0.9331	0.5677	0.006
Mof_C 	C 	0.9551	0.9802	0.5728	-0.139
Mof_H 	H 	0.9786	0.9665	0.5752	0.055
Mof_N 	N 	0.9532	0.9687	0.7251	-0.31
Mof_H 	H 	0.905	0.0257	0.7798	0.569
Mof_H 	H 	0.8882	0.9872	0.765	0.568
Mof_H 	H 	0.9216	0.9871	0.7945	0.553
Mof_C 	C 	0.9779	0.9806	0.6969	-0.061
Mof_C 	C 	0.0229	0.9804	0.6463	-0.103
Mof_H 	H 	0.0386	0.9668	0.6285	0.069
Mof_H 	H 	0.7902	0.0257	0.5864	0.077
Mof_H 	H 	0.8007	0.9872	0.6062	0.083
Mof_H 	H 	0.7798	0.987	0.5668	0.024
Mof_H 	H 	0.9769	0.0257	0.7885	0.18
Mof_H 	H 	0.9603	0.9872	0.8035	0.127
Mof_H 	H 	0.9934	0.9871	0.7736	0.175
Mof_H 	H 	0.9734	0.9668	0.4888	0.007
Mof_C 	C 	0.9213	0.9598	0.517	-0.082
Mof_H 	H 	0.9214	0.9325	0.5174	0.033
Mof_Zn	Zn	0.44924	0.41616	0.243	1.223
Mof_Zn	Zn	0.3385	0.41485	0.05036	1.209
Mof_O 	O 	0.36597	0.32651	0.0469	-0.467
Mof_O 	O 	0.36609	0.37917	0.0828	-0.504
Mof_O 	O 	0.46029	0.33287	0.22625	-0.497
Mof_O 	O 	0.44023	0.38568	0.19824	-0.504
Mof_O 	O 	0.46062	0.21397	0.1512	-0.485
Mof_O 	O 	0.4413	0.21584	0.09056	-0.512
Mof_O 	O 	0.41817	0.40117	0.28507	-0.557
Mof_O 	O 	0.45365	0.3535	0.30986	-0.496
Mof_C 	C 	0.39898	0.32593	0.1057	-0.182
Mof_C 	C 	0.41076	0.34565	0.137	0.115
Mof_H 	H 	0.404	0.3711	0.1396	0.014
Mof_C 	C 	0.43282	0.3283	0.16524	-0.182
Mof_C 	C 	0.44328	0.29066	0.16063	0.117
Mof_H 	H 	0.4578	0.2787	0.1793	0.007
Mof_C 	C 	0.43252	0.2707	0.12874	-0.183
Mof_C 	C 	0.41027	0.28826	0.10144	0.115
Mof_H 	H 	0.4028	0.2747	0.08	0.005
Mof_C 	C 	0.37503	0.34524	0.07575	0.428
Mof_C 	C 	0.44612	0.35016	0.19962	0.431
Mof_C 	C 	0.44541	0.2304	0.12386	0.41
Mof_C 	C 	0.426	0.37551	0.31006	0.42
Mof_C 	C 	0.39668	0.3729	0.34189	-0.242
Mof_C 	C 	0.39898	0.34395	0.3681	0.156
Mof_H 	H 	0.4189	0.3253	0.3663	-0.049
Mof_N 	N 	0.3563	0.4681	0.0514	-0.183
Mof_C 	C 	0.39	0.4806	0.0335	-0.021
Mof_N 	N 	0.4287	0.4685	0.2352	-0.334
Mof_C 	C 	0.4036	0.4809	0.2076	-0.026
Mof_C 	C 	0.38	0.461	0.1814	-0.072
Mof_H 	H 	0.3801	0.4337	0.1811	0.044
Mof_C 	C 	0.3581	0.4805	0.1573	-0.034
Mof_H 	H 	0.3419	0.4669	0.1399	0.012
Mof_N 	N 	0.3514	0.4683	0.0574	-0.107
Mof_H 	H 	0.2804	0.5257	0.047	0.029
Mof_H 	H 	0.2838	0.4874	0.0244	0.067
Mof_H 	H 	0.2771	0.4868	0.0685	0.167
Mof_C 	C 	0.3881	0.4806	0.0628	0.061
Mof_C 	C 	0.421	0.4604	0.0677	-0.103
Mof_H 	H 	0.4206	0.4331	0.0677	0.047
Mof_C 	C 	0.4551	0.4802	0.0728	-0.021
Mof_H 	H 	0.4786	0.4665	0.0752	0.028
Mof_N 	N 	0.4532	0.4687	0.2251	-0.334
Mof_H 	H 	0.405	0.5257	0.2798	0.665
Mof_H 	H 	0.3882	0.4872	0.265	0.673
Mof_H 	H 	0.4216	0.4871	0.2945	0.659
Mof_C 	C 	0.4779	0.4806	0.1969	0.012
Mof_C 	C 	0.5229	0.4804	0.1463	-0.021
Mof_H 	H 	0.5386	0.4668	0.1285	0.042
Mof_H 	H 	0.2902	0.5257	0.0864	0.102
Mof_H 	H 	0.3007	0.4872	0.1062	0.122
Mof_H 	H 	0.2798	0.487	0.0668	0.035
Mof_H 	H 	0.4769	0.5257	0.2885	0.21
Mof_H 	H 	0.4603	0.4872	0.3035	0.148
Mof_H 	H 	0.4934	0.4871	0.2736	0.179
Mof_H 	H 	0.4734	0.4668	0.9888	0.002
Mof_C 	C 	0.4213	0.4598	0.017	0
Mof_H 	H 	0.4214	0.4325	0.0174	0.015
Mof_Zn	Zn	0.94924	0.08384	0.257	1.219
Mof_Zn	Zn	0.8385	0.08515	0.44964	1.209
Mof_O 	O 	0.86597	0.17349	0.4531	-0.472
Mof_O 	O 	0.86609	0.12083	0.4172	-0.506
Mof_O 	O 	0.96029	0.16713	0.27375	-0.504
Mof_O 	O 	0.94023	0.11432	0.30176	-0.51
Mof_O 	O 	0.96062	0.28603	0.3488	-0.492
Mof_O 	O 	0.9413	0.28416	0.40944	-0.519
Mof_O 	O 	0.91817	0.09883	0.21493	-0.55
Mof_O 	O 	0.95365	0.1465	0.19014	-0.497
Mof_C 	C 	0.89898	0.17407	0.3943	-0.188
Mof_C 	C 	0.91076	0.15435	0.363	0.118
Mof_H 	H 	0.904	0.1289	0.3604	0.012
Mof_C 	C 	0.93282	0.1717	0.33476	-0.187
Mof_C 	C 	0.94328	0.20934	0.33937	0.12
Mof_H 	H 	0.9578	0.2213	0.3207	0.003
Mof_C 	C 	0.93252	0.2293	0.37126	-0.189
Mof_C 	C 	0.91027	0.21174	0.39856	0.118
Mof_H 	H 	0.9028	0.2253	0.42	0.001
Mof_C 	C 	0.87503	0.15476	0.42425	0.429
Mof_C 	C 	0.94612	0.14984	0.30038	0.432
Mof_C 	C 	0.94541	0.2696	0.37614	0.412
Mof_C 	C 	0.926	0.12449	0.18994	0.418
Mof_C 	C 	0.89668	0.1271	0.15811	-0.231
Mof_C 	C 	0.89898	0.15605	0.1319	0.148
Mof_H 	H 	0.9189	0.1747	0.1337	-0.04
Mof_N 	N 	0.8563	0.0319	0.4486	-0.186
Mof_C 	C 	0.89	0.0194	0.4665	-0.116
Mof_N 	N 	0.9287	0.0315	0.2648	-0.325
Mof_C 	C 	0.9036	0.0191	0.2924	0.03
Mof_C 	C 	0.88	0.039	0.3186	-0.129
Mof_H 	H 	0.8801	0.0663	0.3189	0.063
Mof_C 	C 	0.8581	0.0195	0.3427	0.05
Mof_H 	H 	0.8419	0.0331	0.3601	-0.011
Mof_N 	N 	0.8514	0.0317	0.4426	-0.115
Mof_H 	H 	0.7804	0.9743	0.453	0.029
Mof_H 	H 	0.7838	0.0126	0.4756	0.07
Mof_H 	H 	0.7771	0.0132	0.4315	0.148
Mof_C 	C 	0.8881	0.0194	0.4372	0.22
Mof_C 	C 	0.921	0.0396	0.4323	-0.21
Mof_H 	H 	0.9206	0.0669	0.4323	0.08
Mof_C 	C 	0.9551	0.0198	0.4272	0.097
Mof_H 	H 	0.9786	0.0335	0.4248	-0.013
Mof_N 	N 	0.9532	0.0313	0.2749	-0.324
Mof_H 	H 	0.905	0.9743	0.2202	0.583
Mof_H 	H 	0.8882	0.0128	0.235	0.602
Mof_H 	H 	0.9216	0.0129	0.2055	0.585
Mof_C 	C 	0.9779	0.0194	0.3031	0.05
Mof_C 	C 	0.0229	0.0196	0.3537	0.062
Mof_H 	H 	0.0386	0.0332	0.3715	0.017
Mof_H 	H 	0.7902	0.9743	0.4136	0.087
Mof_H 	H 	0.8007	0.0128	0.3938	0.118
Mof_H 	H 	0.7798	0.013	0.4332	0.038
Mof_H 	H 	0.9769	0.9743	0.2115	0.188
Mof_H 	H 	0.9603	0.0128	0.1965	0.156
Mof_H 	H 	0.9934	0.0129	0.2264	0.19
Mof_H 	H 	0.9734	0.0332	0.5112	0.034
Mof_C 	C 	0.9213	0.0402	0.483	0.027
Mof_H 	H 	0.9214	0.0675	0.4826	-0.003
Mof_Zn	Zn	0.44924	0.58384	0.757	1.223
Mof_Zn	Zn	0.3385	0.58515	0.94964	1.206
Mof_O 	O 	0.36597	0.67349	0.9531	-0.478
Mof_O 	O 	0.36609	0.62083	0.9172	-0.506
Mof_O 	O 	0.46029	0.66713	0.77375	-0.497
Mof_O 	O 	0.44023	0.61432	0.80176	-0.504
Mof_O 	O 	0.46062	0.78603	0.8488	-0.485
Mof_O 	O 	0.4413	0.78416	0.90944	-0.515
Mof_O 	O 	0.41817	0.59883	0.71493	-0.557
Mof_O 	O 	0.45365	0.6465	0.69014	-0.496
Mof_C 	C 	0.39898	0.67407	0.8943	-0.186
Mof_C 	C 	0.41076	0.65435	0.863	0.117
Mof_H 	H 	0.404	0.6289	0.8604	0.014
Mof_C 	C 	0.43282	0.6717	0.83476	-0.183
Mof_C 	C 	0.44328	0.70934	0.83937	0.118
Mof_H 	H 	0.4578	0.7213	0.8207	0.007
Mof_C 	C 	0.43252	0.7293	0.87126	-0.185
Mof_C 	C 	0.41027	0.71174	0.89856	0.117
Mof_H 	H 	0.4028	0.7253	0.92	0.001
Mof_C 	C 	0.37503	0.65476	0.92425	0.43
Mof_C 	C 	0.44612	0.64984	0.80038	0.431
Mof_C 	C 	0.44541	0.7696	0.87614	0.411
Mof_C 	C 	0.426	0.62449	0.68994	0.42
Mof_C 	C 	0.39668	0.6271	0.65811	-0.242
Mof_C 	C 	0.39898	0.65605	0.6319	0.156
Mof_H 	H 	0.4189	0.6747	0.6337	-0.049
Mof_N 	N 	0.3563	0.5319	0.9486	-0.18
Mof_C 	C 	0.39	0.5194	0.9665	-0.012
Mof_N 	N 	0.4287	0.5315	0.7648	-0.334
Mof_C 	C 	0.4036	0.5191	0.7924	-0.026
Mof_C 	C 	0.38	0.539	0.8186	-0.072
Mof_H 	H 	0.3801	0.5663	0.8189	0.044
Mof_C 	C 	0.3581	0.5195	0.8427	-0.034
Mof_H 	H 	0.3419	0.5331	0.8601	0.013
Mof_N 	N 	0.3514	0.5317	0.9426	-0.111
Mof_H 	H 	0.2804	0.4743	0.953	0.035
Mof_H 	H 	0.2838	0.5126	0.9756	0.064
Mof_H 	H 	0.2771	0.5132	0.9315	0.166
Mof_C 	C 	0.3881	0.5194	0.9372	0.052
Mof_C 	C 	0.421	0.5396	0.9323	-0.083
Mof_H 	H 	0.4206	0.5669	0.9323	0.039
Mof_C 	C 	0.4551	0.5198	0.9272	-0.025
Mof_H 	H 	0.4786	0.5335	0.9248	0.03
Mof_N 	N 	0.4532	0.5313	0.7749	-0.334
Mof_H 	H 	0.405	0.4743	0.7202	0.665
Mof_H 	H 	0.3882	0.5128	0.735	0.674
Mof_H 	H 	0.4216	0.5129	0.7055	0.659
Mof_C 	C 	0.4779	0.5194	0.8031	0.012
Mof_C 	C 	0.5229	0.5196	0.8537	-0.021
Mof_H 	H 	0.5386	0.5332	0.8715	0.042
Mof_H 	H 	0.2902	0.4743	0.9136	0.09
Mof_H 	H 	0.3007	0.5128	0.8938	0.113
Mof_H 	H 	0.2798	0.513	0.9332	0.034
Mof_H 	H 	0.4769	0.4743	0.7115	0.21
Mof_H 	H 	0.4603	0.5128	0.6965	0.148
Mof_H 	H 	0.4934	0.5129	0.7264	0.179
Mof_H 	H 	0.4734	0.5332	0.0112	0.032
Mof_C 	C 	0.4213	0.5402	0.983	-0.076
Mof_H 	H 	0.4214	0.5675	0.9826	0.024
Mof_Zn	Zn	0.05076	0.08384	0.743	1.222
Mof_Zn	Zn	0.1615	0.08515	0.55036	1.209
Mof_O 	O 	0.13403	0.17349	0.5469	-0.471
Mof_O 	O 	0.13391	0.12083	0.5828	-0.505
Mof_O 	O 	0.03971	0.16713	0.72625	-0.492
Mof_O 	O 	0.05977	0.11432	0.69824	-0.505
Mof_O 	O 	0.03938	0.28603	0.6512	-0.48
Mof_O 	O 	0.0587	0.28416	0.59056	-0.514
Mof_O 	O 	0.08183	0.09883	0.78507	-0.547
Mof_O 	O 	0.04635	0.1465	0.80986	-0.486
Mof_C 	C 	0.10102	0.17407	0.6057	-0.184
Mof_C 	C 	0.08924	0.15435	0.637	0.116
Mof_H 	H 	0.096	0.1289	0.6396	0.014
Mof_C 	C 	0.06718	0.1717	0.66524	-0.18
Mof_C 	C 	0.05672	0.20934	0.66063	0.118
Mof_H 	H 	0.0422	0.2213	0.6793	0.011
Mof_C 	C 	0.06748	0.2293	0.62874	-0.182
Mof_C 	C 	0.08973	0.21174	0.60144	0.117
Mof_H 	H 	0.0972	0.2253	0.58	0.002
Mof_C 	C 	0.12497	0.15476	0.57575	0.429
Mof_C 	C 	0.05388	0.14984	0.69962	0.432
Mof_C 	C 	0.05459	0.2696	0.62386	0.411
Mof_C 	C 	0.074	0.12449	0.81006	0.417
Mof_C 	C 	0.10332	0.1271	0.84189	-0.229
Mof_C 	C 	0.10102	0.15605	0.8681	0.148
Mof_H 	H 	0.0811	0.1747	0.8663	-0.038
Mof_N 	N 	0.1437	0.0319	0.5514	-0.186
Mof_C 	C 	0.11	0.0194	0.5335	-0.114
Mof_N 	N 	0.0713	0.0315	0.7352	-0.318
Mof_C 	C 	0.0964	0.0191	0.7076	0.032
Mof_C 	C 	0.12	0.039	0.6814	-0.13
Mof_H 	H 	0.1199	0.0663	0.6811	0.064
Mof_C 	C 	0.1419	0.0195	0.6573	0.05
Mof_H 	H 	0.1581	0.0331	0.6399	-0.011
Mof_N 	N 	0.1486	0.0317	0.5574	-0.115
Mof_H 	H 	0.2196	0.9743	0.547	0.029
Mof_H 	H 	0.2162	0.0126	0.5244	0.069
Mof_H 	H 	0.2229	0.0132	0.5685	0.148
Mof_C 	C 	0.1119	0.0194	0.5628	0.218
Mof_C 	C 	0.079	0.0396	0.5677	-0.208
Mof_H 	H 	0.0794	0.0669	0.5677	0.082
Mof_C 	C 	0.0449	0.0198	0.5728	0.096
Mof_H 	H 	0.0214	0.0335	0.5752	0.002
Mof_N 	N 	0.0468	0.0313	0.7251	-0.321
Mof_H 	H 	0.095	0.9743	0.7798	0.58
Mof_H 	H 	0.1118	0.0128	0.765	0.599
Mof_H 	H 	0.0784	0.0129	0.7945	0.583
Mof_C 	C 	0.0221	0.0194	0.6969	0.07
Mof_C 	C 	0.9771	0.0196	0.6463	0.042
Mof_H 	H 	0.9614	0.0332	0.6285	0.02
Mof_H 	H 	0.2098	0.9743	0.5864	0.087
Mof_H 	H 	0.1993	0.0128	0.6062	0.118
Mof_H 	H 	0.2202	0.013	0.5668	0.038
Mof_H 	H 	0.0231	0.9743	0.7885	0.177
Mof_H 	H 	0.0397	0.0128	0.8035	0.131
Mof_H 	H 	0.0066	0.0129	0.7736	0.135
Mof_H 	H 	0.0266	0.0332	0.4888	0.041
Mof_C 	C 	0.0787	0.0402	0.517	0.026
Mof_H 	H 	0.0786	0.0675	0.5174	-0.001
Mof_Zn	Zn	0.55076	0.58384	0.243	1.223
Mof_Zn	Zn	0.6615	0.58515	0.05036	1.209
Mof_O 	O 	0.63403	0.67349	0.0469	-0.466
Mof_O 	O 	0.63391	0.62083	0.0828	-0.504
Mof_O 	O 	0.53971	0.66713	0.22625	-0.497
Mof_O 	O 	0.55977	0.61432	0.19824	-0.504
Mof_O 	O 	0.53938	0.78603	0.1512	-0.484
Mof_O 	O 	0.5587	0.78416	0.09056	-0.512
Mof_O 	O 	0.58183	0.59883	0.28507	-0.557
Mof_O 	O 	0.54635	0.6465	0.30986	-0.496
Mof_C 	C 	0.60102	0.67407	0.1057	-0.182
Mof_C 	C 	0.58924	0.65435	0.137	0.115
Mof_H 	H 	0.596	0.6289	0.1396	0.014
Mof_C 	C 	0.56718	0.6717	0.16524	-0.181
Mof_C 	C 	0.55672	0.70934	0.16063	0.117
Mof_H 	H 	0.5422	0.7213	0.1793	0.007
Mof_C 	C 	0.56748	0.7293	0.12874	-0.182
Mof_C 	C 	0.58973	0.71174	0.10144	0.115
Mof_H 	H 	0.5972	0.7253	0.08	0.005
Mof_C 	C 	0.62497	0.65476	0.07575	0.428
Mof_C 	C 	0.55388	0.64984	0.19962	0.431
Mof_C 	C 	0.55459	0.7696	0.12386	0.41
Mof_C 	C 	0.574	0.62449	0.31006	0.42
Mof_C 	C 	0.60332	0.6271	0.34189	-0.242
Mof_C 	C 	0.60102	0.65605	0.3681	0.156
Mof_H 	H 	0.5811	0.6747	0.3663	-0.049
Mof_N 	N 	0.6437	0.5319	0.0514	-0.183
Mof_C 	C 	0.61	0.5194	0.0335	-0.021
Mof_N 	N 	0.5713	0.5315	0.2352	-0.334
Mof_C 	C 	0.5964	0.5191	0.2076	-0.026
Mof_C 	C 	0.62	0.539	0.1814	-0.072
Mof_H 	H 	0.6199	0.5663	0.1811	0.044
Mof_C 	C 	0.6419	0.5195	0.1573	-0.034
Mof_H 	H 	0.6581	0.5331	0.1399	0.012
Mof_N 	N 	0.6486	0.5317	0.0574	-0.107
Mof_H 	H 	0.7196	0.4743	0.047	0.029
Mof_H 	H 	0.7162	0.5126	0.0244	0.067
Mof_H 	H 	0.7229	0.5132	0.0685	0.167
Mof_C 	C 	0.6119	0.5194	0.0628	0.061
Mof_C 	C 	0.579	0.5396	0.0677	-0.103
Mof_H 	H 	0.5794	0.5669	0.0677	0.047
Mof_C 	C 	0.5449	0.5198	0.0728	-0.021
Mof_H 	H 	0.5214	0.5335	0.0752	0.028
Mof_N 	N 	0.5468	0.5313	0.2251	-0.334
Mof_H 	H 	0.595	0.4743	0.2798	0.665
Mof_H 	H 	0.6118	0.5128	0.265	0.673
Mof_H 	H 	0.5784	0.5129	0.2945	0.659
Mof_C 	C 	0.5221	0.5194	0.1969	0.012
Mof_C 	C 	0.4771	0.5196	0.1463	-0.021
Mof_H 	H 	0.4614	0.5332	0.1285	0.042
Mof_H 	H 	0.7098	0.4743	0.0864	0.102
Mof_H 	H 	0.6993	0.5128	0.1062	0.122
Mof_H 	H 	0.7202	0.513	0.0668	0.035
Mof_H 	H 	0.5231	0.4743	0.2885	0.21
Mof_H 	H 	0.5397	0.5128	0.3035	0.148
Mof_H 	H 	0.5066	0.5129	0.2736	0.179
Mof_H 	H 	0.5266	0.5332	0.9888	0.002
Mof_C 	C 	0.5787	0.5402	0.017	0
Mof_H 	H 	0.5786	0.5675	0.0174	0.015
Mof_Zn	Zn	0.05076	0.91616	0.257	1.223
Mof_Zn	Zn	0.1615	0.91485	0.44964	1.208
Mof_O 	O 	0.13403	0.82651	0.4531	-0.471
Mof_O 	O 	0.13391	0.87917	0.4172	-0.503
Mof_O 	O 	0.03971	0.83287	0.27375	-0.492
Mof_O 	O 	0.05977	0.88568	0.30176	-0.501
Mof_O 	O 	0.03938	0.71397	0.3488	-0.48
Mof_O 	O 	0.0587	0.71584	0.40944	-0.514
Mof_O 	O 	0.08183	0.90117	0.21493	-0.547
Mof_O 	O 	0.04635	0.8535	0.19014	-0.486
Mof_C 	C 	0.10102	0.82593	0.3943	-0.183
Mof_C 	C 	0.08924	0.84565	0.363	0.115
Mof_H 	H 	0.096	0.8711	0.3604	0.015
Mof_C 	C 	0.06718	0.8283	0.33476	-0.179
Mof_C 	C 	0.05672	0.79066	0.33937	0.117
Mof_H 	H 	0.0422	0.7787	0.3207	0.011
Mof_C 	C 	0.06748	0.7707	0.37126	-0.182
Mof_C 	C 	0.08973	0.78826	0.39856	0.116
Mof_H 	H 	0.0972	0.7747	0.42	0.002
Mof_C 	C 	0.12497	0.84524	0.42425	0.429
Mof_C 	C 	0.05388	0.85016	0.30038	0.431
Mof_C 	C 	0.05459	0.7304	0.37614	0.411
Mof_C 	C 	0.074	0.87551	0.18994	0.417
Mof_C 	C 	0.10332	0.8729	0.15811	-0.229
Mof_C 	C 	0.10102	0.84395	0.1319	0.148
Mof_H 	H 	0.0811	0.8253	0.1337	-0.038
Mof_N 	N 	0.1437	0.9681	0.4486	-0.175
Mof_C 	C 	0.11	0.9806	0.4665	0.075
Mof_N 	N 	0.0713	0.9685	0.2648	-0.313
Mof_C 	C 	0.0964	0.9809	0.2924	-0.062
Mof_C 	C 	0.12	0.961	0.3186	-0.023
Mof_H 	H 	0.1199	0.9337	0.3189	0.029
Mof_C 	C 	0.1419	0.9805	0.3427	-0.114
Mof_H 	H 	0.1581	0.9669	0.3601	0.038
Mof_N 	N 	0.1486	0.9683	0.4426	-0.103
Mof_H 	H 	0.2196	0.0257	0.453	0.019
Mof_H 	H 	0.2162	0.9874	0.4756	0.036
Mof_H 	H 	0.2229	0.9868	0.4315	0.132
Mof_C 	C 	0.1119	0.9806	0.4372	-0.098
Mof_C 	C 	0.079	0.9604	0.4323	0.017
Mof_H 	H 	0.0794	0.9331	0.4323	0.008
Mof_C 	C 	0.0449	0.9802	0.4272	-0.138
Mof_H 	H 	0.0214	0.9665	0.4248	0.069
Mof_N 	N 	0.0468	0.9687	0.2749	-0.308
Mof_H 	H 	0.095	0.0257	0.2202	0.569
Mof_H 	H 	0.1118	0.9872	0.235	0.568
Mof_H 	H 	0.0784	0.9871	0.2055	0.554
Mof_C 	C 	0.0221	0.9806	0.3031	-0.041
Mof_C 	C 	0.9771	0.9804	0.3537	-0.123
Mof_H 	H 	0.9614	0.9668	0.3715	0.071
Mof_H 	H 	0.2098	0.0257	0.4136	0.077
Mof_H 	H 	0.1993	0.9872	0.3938	0.083
Mof_H 	H 	0.2202	0.987	0.4332	0.024
Mof_H 	H 	0.0231	0.0257	0.2115	0.171
Mof_H 	H 	0.0397	0.9872	0.1965	0.104
Mof_H 	H 	0.0066	0.9871	0.2264	0.121
Mof_H 	H 	0.0266	0.9668	0.5112	0.015
Mof_C 	C 	0.0787	0.9598	0.483	-0.08
Mof_H 	H 	0.0786	0.9325	0.4826	0.035
Mof_Zn	Zn	0.55076	0.41616	0.757	1.223
Mof_Zn	Zn	0.6615	0.41485	0.94964	1.206
Mof_O 	O 	0.63403	0.32651	0.9531	-0.478
Mof_O 	O 	0.63391	0.37917	0.9172	-0.506
Mof_O 	O 	0.53971	0.33287	0.77375	-0.497
Mof_O 	O 	0.55977	0.38568	0.80176	-0.504
Mof_O 	O 	0.53938	0.21397	0.8488	-0.485
Mof_O 	O 	0.5587	0.21584	0.90944	-0.515
Mof_O 	O 	0.58183	0.40117	0.71493	-0.557
Mof_O 	O 	0.54635	0.3535	0.69014	-0.496
Mof_C 	C 	0.60102	0.32593	0.8943	-0.186
Mof_C 	C 	0.58924	0.34565	0.863	0.117
Mof_H 	H 	0.596	0.3711	0.8604	0.014
Mof_C 	C 	0.56718	0.3283	0.83476	-0.183
Mof_C 	C 	0.55672	0.29066	0.83937	0.118
Mof_H 	H 	0.5422	0.2787	0.8207	0.007
Mof_C 	C 	0.56748	0.2707	0.87126	-0.185
Mof_C 	C 	0.58973	0.28826	0.89856	0.117
Mof_H 	H 	0.5972	0.2747	0.92	0.001
Mof_C 	C 	0.62497	0.34524	0.92425	0.43
Mof_C 	C 	0.55388	0.35016	0.80038	0.431
Mof_C 	C 	0.55459	0.2304	0.87614	0.411
Mof_C 	C 	0.574	0.37551	0.68994	0.42
Mof_C 	C 	0.60332	0.3729	0.65811	-0.242
Mof_C 	C 	0.60102	0.34395	0.6319	0.156
Mof_H 	H 	0.5811	0.3253	0.6337	-0.049
Mof_N 	N 	0.6437	0.4681	0.9486	-0.18
Mof_C 	C 	0.61	0.4806	0.9665	-0.012
Mof_N 	N 	0.5713	0.4685	0.7648	-0.334
Mof_C 	C 	0.5964	0.4809	0.7924	-0.026
Mof_C 	C 	0.62	0.461	0.8186	-0.072
Mof_H 	H 	0.6199	0.4337	0.8189	0.044
Mof_C 	C 	0.6419	0.4805	0.8427	-0.034
Mof_H 	H 	0.6581	0.4669	0.8601	0.013
Mof_N 	N 	0.6486	0.4683	0.9426	-0.111
Mof_H 	H 	0.7196	0.5257	0.953	0.035
Mof_H 	H 	0.7162	0.4874	0.9756	0.064
Mof_H 	H 	0.7229	0.4868	0.9315	0.166
Mof_C 	C 	0.6119	0.4806	0.9372	0.052
Mof_C 	C 	0.579	0.4604	0.9323	-0.083
Mof_H 	H 	0.5794	0.4331	0.9323	0.039
Mof_C 	C 	0.5449	0.4802	0.9272	-0.025
Mof_H 	H 	0.5214	0.4665	0.9248	0.03
Mof_N 	N 	0.5468	0.4687	0.7749	-0.334
Mof_H 	H 	0.595	0.5257	0.7202	0.666
Mof_H 	H 	0.6118	0.4872	0.735	0.674
Mof_H 	H 	0.5784	0.4871	0.7055	0.659
Mof_C 	C 	0.5221	0.4806	0.8031	0.012
Mof_C 	C 	0.4771	0.4804	0.8537	-0.021
Mof_H 	H 	0.4614	0.4668	0.8715	0.042
Mof_H 	H 	0.7098	0.5257	0.9136	0.09
Mof_H 	H 	0.6993	0.4872	0.8938	0.113
Mof_H 	H 	0.7202	0.487	0.9332	0.034
Mof_H 	H 	0.5231	0.5257	0.7115	0.211
Mof_H 	H 	0.5397	0.4872	0.6965	0.148
Mof_H 	H 	0.5066	0.4871	0.7264	0.179
Mof_H 	H 	0.5266	0.4668	0.0112	0.032
Mof_C 	C 	0.5787	0.4598	0.983	-0.076
Mof_H 	H 	0.5786	0.4325	0.9826	0.024
Mof_Zn	Zn	0.743	0.94924	0.91616	1.22
Mof_Zn	Zn	0.55036	0.8385	0.91485	1.208
Mof_O 	O 	0.5469	0.86597	0.82651	-0.472
Mof_O 	O 	0.5828	0.86609	0.87917	-0.503
Mof_O 	O 	0.72625	0.96029	0.83287	-0.504
Mof_O 	O 	0.69824	0.94023	0.88568	-0.506
Mof_O 	O 	0.6512	0.96062	0.71397	-0.492
Mof_O 	O 	0.59056	0.9413	0.71584	-0.519
Mof_O 	O 	0.78507	0.91817	0.90117	-0.551
Mof_O 	O 	0.80986	0.95365	0.8535	-0.498
Mof_C 	C 	0.6057	0.89898	0.82593	-0.186
Mof_C 	C 	0.637	0.91076	0.84565	0.117
Mof_H 	H 	0.6396	0.904	0.8711	0.014
Mof_C 	C 	0.66524	0.93282	0.8283	-0.185
Mof_C 	C 	0.66063	0.94328	0.79066	0.119
Mof_H 	H 	0.6793	0.9578	0.7787	0.003
Mof_C 	C 	0.62874	0.93252	0.7707	-0.188
Mof_C 	C 	0.60144	0.91027	0.78826	0.118
Mof_H 	H 	0.58	0.9028	0.7747	0.001
Mof_C 	C 	0.57575	0.87503	0.84524	0.429
Mof_C 	C 	0.69962	0.94612	0.85016	0.431
Mof_C 	C 	0.62386	0.94541	0.7304	0.412
Mof_C 	C 	0.81006	0.926	0.87551	0.418
Mof_C 	C 	0.84189	0.89668	0.8729	-0.235
Mof_C 	C 	0.8681	0.89898	0.84395	0.149
Mof_H 	H 	0.8663	0.9189	0.8253	-0.042
Mof_N 	N 	0.5514	0.8563	0.9681	-0.174
Mof_C 	C 	0.5335	0.89	0.9806	0.077
Mof_N 	N 	0.7352	0.9287	0.9685	-0.32
Mof_C 	C 	0.7076	0.9036	0.9809	-0.063
Mof_C 	C 	0.6814	0.88	0.961	-0.021
Mof_H 	H 	0.6811	0.8801	0.9337	0.029
Mof_C 	C 	0.6573	0.8581	0.9805	-0.114
Mof_H 	H 	0.6399	0.8419	0.9669	0.039
Mof_N 	N 	0.5574	0.8514	0.9683	-0.103
Mof_H 	H 	0.547	0.7804	0.0257	0.019
Mof_H 	H 	0.5244	0.7838	0.9874	0.036
Mof_H 	H 	0.5685	0.7771	0.9868	0.132
Mof_C 	C 	0.5628	0.8881	0.9806	-0.1
Mof_C 	C 	0.5677	0.921	0.9604	0.017
Mof_H 	H 	0.5677	0.9206	0.9331	0.006
Mof_C 	C 	0.5728	0.9551	0.9802	-0.139
Mof_H 	H 	0.5752	0.9786	0.9665	0.055
Mof_N 	N 	0.7251	0.9532	0.9687	-0.31
Mof_H 	H 	0.7798	0.905	0.0257	0.569
Mof_H 	H 	0.765	0.8882	0.9872	0.568
Mof_H 	H 	0.7945	0.9216	0.9871	0.553
Mof_C 	C 	0.6969	0.9779	0.9806	-0.061
Mof_C 	C 	0.6463	0.0229	0.9804	-0.103
Mof_H 	H 	0.6285	0.0386	0.9668	0.069
Mof_H 	H 	0.5864	0.7902	0.0257	0.077
Mof_H 	H 	0.6062	0.8007	0.9872	0.083
Mof_H 	H 	0.5668	0.7798	0.987	0.024
Mof_H 	H 	0.7885	0.9769	0.0257	0.18
Mof_H 	H 	0.8035	0.9603	0.9872	0.127
Mof_H 	H 	0.7736	0.9934	0.9871	0.175
Mof_H 	H 	0.4888	0.9734	0.9668	0.007
Mof_C 	C 	0.517	0.9213	0.9598	-0.082
Mof_H 	H 	0.5174	0.9214	0.9325	0.033
Mof_Zn	Zn	0.243	0.44924	0.41616	1.223
Mof_Zn	Zn	0.05036	0.3385	0.41485	1.209
Mof_O 	O 	0.0469	0.36597	0.32651	-0.467
Mof_O 	O 	0.0828	0.36609	0.37917	-0.504
Mof_O 	O 	0.22625	0.46029	0.33287	-0.497
Mof_O 	O 	0.19824	0.44023	0.38568	-0.504
Mof_O 	O 	0.1512	0.46062	0.21397	-0.485
Mof_O 	O 	0.09056	0.4413	0.21584	-0.512
Mof_O 	O 	0.28507	0.41817	0.40117	-0.557
Mof_O 	O 	0.30986	0.45365	0.3535	-0.496
Mof_C 	C 	0.1057	0.39898	0.32593	-0.182
Mof_C 	C 	0.137	0.41076	0.34565	0.115
Mof_H 	H 	0.1396	0.404	0.3711	0.014
Mof_C 	C 	0.16524	0.43282	0.3283	-0.182
Mof_C 	C 	0.16063	0.44328	0.29066	0.117
Mof_H 	H 	0.1793	0.4578	0.2787	0.007
Mof_C 	C 	0.12874	0.43252	0.2707	-0.183
Mof_C 	C 	0.10144	0.41027	0.28826	0.115
Mof_H 	H 	0.08	0.4028	0.2747	0.005
Mof_C 	C 	0.07575	0.37503	0.34524	0.428
Mof_C 	C 	0.19962	0.44612	0.35016	0.431
Mof_C 	C 	0.12386	0.44541	0.2304	0.41
Mof_C 	C 	0.31006	0.426	0.37551	0.42
Mof_C 	C 	0.34189	0.39668	0.3729	-0.242
Mof_C 	C 	0.3681	0.39898	0.34395	0.156
Mof_H 	H 	0.3663	0.4189	0.3253	-0.049
Mof_N 	N 	0.0514	0.3563	0.4681	-0.183
Mof_C 	C 	0.0335	0.39	0.4806	-0.021
Mof_N 	N 	0.2352	0.4287	0.4685	-0.334
Mof_C 	C 	0.2076	0.4036	0.4809	-0.026
Mof_C 	C 	0.1814	0.38	0.461	-0.072
Mof_H 	H 	0.1811	0.3801	0.4337	0.044
Mof_C 	C 	0.1573	0.3581	0.4805	-0.034
Mof_H 	H 	0.1399	0.3419	0.4669	0.012
Mof_N 	N 	0.0574	0.3514	0.4683	-0.107
Mof_H 	H 	0.047	0.2804	0.5257	0.029
Mof_H 	H 	0.0244	0.2838	0.4874	0.067
Mof_H 	H 	0.0685	0.2771	0.4868	0.167
Mof_C 	C 	0.0628	0.3881	0.4806	0.061
Mof_C 	C 	0.0677	0.421	0.4604	-0.103
Mof_H 	H 	0.0677	0.4206	0.4331	0.047
Mof_C 	C 	0.0728	0.4551	0.4802	-0.021
Mof_H 	H 	0.0752	0.4786	0.4665	0.028
Mof_N 	N 	0.2251	0.4532	0.4687	-0.334
Mof_H 	H 	0.2798	0.405	0.5257	0.665
Mof_H 	H 	0.265	0.3882	0.4872	0.673
Mof_H 	H 	0.2945	0.4216	0.4871	0.659
Mof_C 	C 	0.1969	0.4779	0.4806	0.012
Mof_C 	C 	0.1463	0.5229	0.4804	-0.021
Mof_H 	H 	0.1285	0.5386	0.4668	0.042
Mof_H 	H 	0.0864	0.2902	0.5257	0.102
Mof_H 	H 	0.1062	0.3007	0.4872	0.122
Mof_H 	H 	0.0668	0.2798	0.487	0.035
Mof_H 	H 	0.2885	0.4769	0.5257	0.21
Mof_H 	H 	0.3035	0.4603	0.4872	0.148
Mof_H 	H 	0.2736	0.4934	0.4871	0.179
Mof_H 	H 	0.9888	0.4734	0.4668	0.002
Mof_C 	C 	0.017	0.4213	0.4598	0
Mof_H 	H 	0.0174	0.4214	0.4325	0.015
Mof_Zn	Zn	0.257	0.94924	0.08384	1.219
Mof_Zn	Zn	0.44964	0.8385	0.08515	1.209
Mof_O 	O 	0.4531	0.86597	0.17349	-0.472
Mof_O 	O 	0.4172	0.86609	0.12083	-0.506
Mof_O 	O 	0.27375	0.96029	0.16713	-0.504
Mof_O 	O 	0.30176	0.94023	0.11432	-0.51
Mof_O 	O 	0.3488	0.96062	0.28603	-0.492
Mof_O 	O 	0.40944	0.9413	0.28416	-0.519
Mof_O 	O 	0.21493	0.91817	0.09883	-0.55
Mof_O 	O 	0.19014	0.95365	0.1465	-0.497
Mof_C 	C 	0.3943	0.89898	0.17407	-0.188
Mof_C 	C 	0.363	0.91076	0.15435	0.118
Mof_H 	H 	0.3604	0.904	0.1289	0.012
Mof_C 	C 	0.33476	0.93282	0.1717	-0.187
Mof_C 	C 	0.33937	0.94328	0.20934	0.12
Mof_H 	H 	0.3207	0.9578	0.2213	0.003
Mof_C 	C 	0.37126	0.93252	0.2293	-0.189
Mof_C 	C 	0.39856	0.91027	0.21174	0.118
Mof_H 	H 	0.42	0.9028	0.2253	0.001
Mof_C 	C 	0.42425	0.87503	0.15476	0.429
Mof_C 	C 	0.30038	0.94612	0.14984	0.432
Mof_C 	C 	0.37614	0.94541	0.2696	0.412
Mof_C 	C 	0.18994	0.926	0.12449	0.418
Mof_C 	C 	0.15811	0.89668	0.1271	-0.231
Mof_C 	C 	0.1319	0.89898	0.15605	0.148
Mof_H 	H 	0.1337	0.9189	0.1747	-0.04
Mof_N 	N 	0.4486	0.8563	0.0319	-0.186
Mof_C 	C 	0.4665	0.89	0.0194	-0.116
Mof_N 	N 	0.2648	0.9287	0.0315	-0.325
Mof_C 	C 	0.2924	0.9036	0.0191	0.03
Mof_C 	C 	0.3186	0.88	0.039	-0.129
Mof_H 	H 	0.3189	0.8801	0.0663	0.063
Mof_C 	C 	0.3427	0.8581	0.0195	0.05
Mof_H 	H 	0.3601	0.8419	0.0331	-0.011
Mof_N 	N 	0.4426	0.8514	0.0317	-0.115
Mof_H 	H 	0.453	0.7804	0.9743	0.029
Mof_H 	H 	0.4756	0.7838	0.0126	0.07
Mof_H 	H 	0.4315	0.7771	0.0132	0.148
Mof_C 	C 	0.4372	0.8881	0.0194	0.22
Mof_C 	C 	0.4323	0.921	0.0396	-0.21
Mof_H 	H 	0.4323	0.9206	0.0669	0.08
Mof_C 	C 	0.4272	0.9551	0.0198	0.097
Mof_H 	H 	0.4248	0.9786	0.0335	-0.013
Mof_N 	N 	0.2749	0.9532	0.0313	-0.324
Mof_H 	H 	0.2202	0.905	0.9743	0.583
Mof_H 	H 	0.235	0.8882	0.0128	0.602
Mof_H 	H 	0.2055	0.9216	0.0129	0.585
Mof_C 	C 	0.3031	0.9779	0.0194	0.05
Mof_C 	C 	0.3537	0.0229	0.0196	0.062
Mof_H 	H 	0.3715	0.0386	0.0332	0.017
Mof_H 	H 	0.4136	0.7902	0.9743	0.087
Mof_H 	H 	0.3938	0.8007	0.0128	0.118
Mof_H 	H 	0.4332	0.7798	0.013	0.038
Mof_H 	H 	0.2115	0.9769	0.9743	0.188
Mof_H 	H 	0.1965	0.9603	0.0128	0.156
Mof_H 	H 	0.2264	0.9934	0.0129	0.19
Mof_H 	H 	0.5112	0.9734	0.0332	0.034
Mof_C 	C 	0.483	0.9213	0.0402	0.027
Mof_H 	H 	0.4826	0.9214	0.0675	-0.003
Mof_Zn	Zn	0.757	0.44924	0.58384	1.223
Mof_Zn	Zn	0.94964	0.3385	0.58515	1.206
Mof_O 	O 	0.9531	0.36597	0.67349	-0.478
Mof_O 	O 	0.9172	0.36609	0.62083	-0.506
Mof_O 	O 	0.77375	0.46029	0.66713	-0.497
Mof_O 	O 	0.80176	0.44023	0.61432	-0.504
Mof_O 	O 	0.8488	0.46062	0.78603	-0.485
Mof_O 	O 	0.90944	0.4413	0.78416	-0.515
Mof_O 	O 	0.71493	0.41817	0.59883	-0.557
Mof_O 	O 	0.69014	0.45365	0.6465	-0.496
Mof_C 	C 	0.8943	0.39898	0.67407	-0.186
Mof_C 	C 	0.863	0.41076	0.65435	0.117
Mof_H 	H 	0.8604	0.404	0.6289	0.014
Mof_C 	C 	0.83476	0.43282	0.6717	-0.183
Mof_C 	C 	0.83937	0.44328	0.70934	0.118
Mof_H 	H 	0.8207	0.4578	0.7213	0.007
Mof_C 	C 	0.87126	0.43252	0.7293	-0.185
Mof_C 	C 	0.89856	0.41027	0.71174	0.117
Mof_H 	H 	0.92	0.4028	0.7253	0.001
Mof_C 	C 	0.92425	0.37503	0.65476	0.43
Mof_C 	C 	0.80038	0.44612	0.64984	0.431
Mof_C 	C 	0.87614	0.44541	0.7696	0.411
Mof_C 	C 	0.68994	0.426	0.62449	0.42
Mof_C 	C 	0.65811	0.39668	0.6271	-0.242
Mof_C 	C 	0.6319	0.39898	0.65605	0.156
Mof_H 	H 	0.6337	0.4189	0.6747	-0.049
Mof_N 	N 	0.9486	0.3563	0.5319	-0.18
Mof_C 	C 	0.9665	0.39	0.5194	-0.012
Mof_N 	N 	0.7648	0.4287	0.5315	-0.334
Mof_C 	C 	0.7924	0.4036	0.5191	-0.026
Mof_C 	C 	0.8186	0.38	0.539	-0.072
Mof_H 	H 	0.8189	0.3801	0.5663	0.044
Mof_C 	C 	0.8427	0.3581	0.5195	-0.034
Mof_H 	H 	0.8601	0.3419	0.5331	0.013
Mof_N 	N 	0.9426	0.3514	0.5317	-0.111
Mof_H 	H 	0.953	0.2804	0.4743	0.035
Mof_H 	H 	0.9756	0.2838	0.5126	0.064
Mof_H 	H 	0.9315	0.2771	0.5132	0.166
Mof_C 	C 	0.9372	0.3881	0.5194	0.052
Mof_C 	C 	0.9323	0.421	0.5396	-0.083
Mof_H 	H 	0.9323	0.4206	0.5669	0.039
Mof_C 	C 	0.9272	0.4551	0.5198	-0.025
Mof_H 	H 	0.9248	0.4786	0.5335	0.03
Mof_N 	N 	0.7749	0.4532	0.5313	-0.334
Mof_H 	H 	0.7202	0.405	0.4743	0.665
Mof_H 	H 	0.735	0.3882	0.5128	0.674
Mof_H 	H 	0.7055	0.4216	0.5129	0.659
Mof_C 	C 	0.8031	0.4779	0.5194	0.012
Mof_C 	C 	0.8537	0.5229	0.5196	-0.021
Mof_H 	H 	0.8715	0.5386	0.5332	0.042
Mof_H 	H 	0.9136	0.2902	0.4743	0.09
Mof_H 	H 	0.8938	0.3007	0.5128	0.113
Mof_H 	H 	0.9332	0.2798	0.513	0.034
Mof_H 	H 	0.7115	0.4769	0.4743	0.21
Mof_H 	H 	0.6965	0.4603	0.5128	0.148
Mof_H 	H 	0.7264	0.4934	0.5129	0.179
Mof_H 	H 	0.0112	0.4734	0.5332	0.032
Mof_C 	C 	0.983	0.4213	0.5402	-0.076
Mof_H 	H 	0.9826	0.4214	0.5675	0.024
Mof_Zn	Zn	0.743	0.05076	0.08384	1.222
Mof_Zn	Zn	0.55036	0.1615	0.08515	1.209
Mof_O 	O 	0.5469	0.13403	0.17349	-0.471
Mof_O 	O 	0.5828	0.13391	0.12083	-0.505
Mof_O 	O 	0.72625	0.03971	0.16713	-0.492
Mof_O 	O 	0.69824	0.05977	0.11432	-0.505
Mof_O 	O 	0.6512	0.03938	0.28603	-0.48
Mof_O 	O 	0.59056	0.0587	0.28416	-0.514
Mof_O 	O 	0.78507	0.08183	0.09883	-0.547
Mof_O 	O 	0.80986	0.04635	0.1465	-0.486
Mof_C 	C 	0.6057	0.10102	0.17407	-0.184
Mof_C 	C 	0.637	0.08924	0.15435	0.116
Mof_H 	H 	0.6396	0.096	0.1289	0.014
Mof_C 	C 	0.66524	0.06718	0.1717	-0.18
Mof_C 	C 	0.66063	0.05672	0.20934	0.118
Mof_H 	H 	0.6793	0.0422	0.2213	0.011
Mof_C 	C 	0.62874	0.06748	0.2293	-0.182
Mof_C 	C 	0.60144	0.08973	0.21174	0.117
Mof_H 	H 	0.58	0.0972	0.2253	0.002
Mof_C 	C 	0.57575	0.12497	0.15476	0.429
Mof_C 	C 	0.69962	0.05388	0.14984	0.432
Mof_C 	C 	0.62386	0.05459	0.2696	0.411
Mof_C 	C 	0.81006	0.074	0.12449	0.417
Mof_C 	C 	0.84189	0.10332	0.1271	-0.229
Mof_C 	C 	0.8681	0.10102	0.15605	0.148
Mof_H 	H 	0.8663	0.0811	0.1747	-0.038
Mof_N 	N 	0.5514	0.1437	0.0319	-0.186
Mof_C 	C 	0.5335	0.11	0.0194	-0.114
Mof_N 	N 	0.7352	0.0713	0.0315	-0.318
Mof_C 	C 	0.7076	0.0964	0.0191	0.032
Mof_C 	C 	0.6814	0.12	0.039	-0.13
Mof_H 	H 	0.6811	0.1199	0.0663	0.064
Mof_C 	C 	0.6573	0.1419	0.0195	0.05
Mof_H 	H 	0.6399	0.1581	0.0331	-0.011
Mof_N 	N 	0.5574	0.1486	0.0317	-0.115
Mof_H 	H 	0.547	0.2196	0.9743	0.029
Mof_H 	H 	0.5244	0.2162	0.0126	0.069
Mof_H 	H 	0.5685	0.2229	0.0132	0.148
Mof_C 	C 	0.5628	0.1119	0.0194	0.218
Mof_C 	C 	0.5677	0.079	0.0396	-0.208
Mof_H 	H 	0.5677	0.0794	0.0669	0.082
Mof_C 	C 	0.5728	0.0449	0.0198	0.096
Mof_H 	H 	0.5752	0.0214	0.0335	0.002
Mof_N 	N 	0.7251	0.0468	0.0313	-0.321
Mof_H 	H 	0.7798	0.095	0.9743	0.58
Mof_H 	H 	0.765	0.1118	0.0128	0.599
Mof_H 	H 	0.7945	0.0784	0.0129	0.583
Mof_C 	C 	0.6969	0.0221	0.0194	0.07
Mof_C 	C 	0.6463	0.9771	0.0196	0.042
Mof_H 	H 	0.6285	0.9614	0.0332	0.02
Mof_H 	H 	0.5864	0.2098	0.9743	0.087
Mof_H 	H 	0.6062	0.1993	0.0128	0.118
Mof_H 	H 	0.5668	0.2202	0.013	0.038
Mof_H 	H 	0.7885	0.0231	0.9743	0.177
Mof_H 	H 	0.8035	0.0397	0.0128	0.131
Mof_H 	H 	0.7736	0.0066	0.0129	0.135
Mof_H 	H 	0.4888	0.0266	0.0332	0.041
Mof_C 	C 	0.517	0.0787	0.0402	0.026
Mof_H 	H 	0.5174	0.0786	0.0675	-0.001
Mof_Zn	Zn	0.243	0.55076	0.58384	1.223
Mof_Zn	Zn	0.05036	0.6615	0.58515	1.209
Mof_O 	O 	0.0469	0.63403	0.67349	-0.466
Mof_O 	O 	0.0828	0.63391	0.62083	-0.504
Mof_O 	O 	0.22625	0.53971	0.66713	-0.497
Mof_O 	O 	0.19824	0.55977	0.61432	-0.504
Mof_O 	O 	0.1512	0.53938	0.78603	-0.484
Mof_O 	O 	0.09056	0.5587	0.78416	-0.512
Mof_O 	O 	0.28507	0.58183	0.59883	-0.557
Mof_O 	O 	0.30986	0.54635	0.6465	-0.496
Mof_C 	C 	0.1057	0.60102	0.67407	-0.182
Mof_C 	C 	0.137	0.58924	0.65435	0.115
Mof_H 	H 	0.1396	0.596	0.6289	0.014
Mof_C 	C 	0.16524	0.56718	0.6717	-0.181
Mof_C 	C 	0.16063	0.55672	0.70934	0.117
Mof_H 	H 	0.1793	0.5422	0.7213	0.007
Mof_C 	C 	0.12874	0.56748	0.7293	-0.182
Mof_C 	C 	0.10144	0.58973	0.71174	0.115
Mof_H 	H 	0.08	0.5972	0.7253	0.005
Mof_C 	C 	0.07575	0.62497	0.65476	0.428
Mof_C 	C 	0.19962	0.55388	0.64984	0.431
Mof_C 	C 	0.12386	0.55459	0.7696	0.41
Mof_C 	C 	0.31006	0.574	0.62449	0.42
Mof_C 	C 	0.34189	0.60332	0.6271	-0.242
Mof_C 	C 	0.3681	0.60102	0.65605	0.156
Mof_H 	H 	0.3663	0.5811	0.6747	-0.049
Mof_N 	N 	0.0514	0.6437	0.5319	-0.183
Mof_C 	C 	0.0335	0.61	0.5194	-0.021
Mof_N 	N 	0.2352	0.5713	0.5315	-0.334
Mof_C 	C 	0.2076	0.5964	0.5191	-0.026
Mof_C 	C 	0.1814	0.62	0.539	-0.072
Mof_H 	H 	0.1811	0.6199	0.5663	0.044
Mof_C 	C 	0.1573	0.6419	0.5195	-0.034
Mof_H 	H 	0.1399	0.6581	0.5331	0.012
Mof_N 	N 	0.0574	0.6486	0.5317	-0.107
Mof_H 	H 	0.047	0.7196	0.4743	0.029
Mof_H 	H 	0.0244	0.7162	0.5126	0.067
Mof_H 	H 	0.0685	0.7229	0.5132	0.167
Mof_C 	C 	0.0628	0.6119	0.5194	0.061
Mof_C 	C 	0.0677	0.579	0.5396	-0.103
Mof_H 	H 	0.0677	0.5794	0.5669	0.047
Mof_C 	C 	0.0728	0.5449	0.5198	-0.021
Mof_H 	H 	0.0752	0.5214	0.5335	0.028
Mof_N 	N 	0.2251	0.5468	0.5313	-0.334
Mof_H 	H 	0.2798	0.595	0.4743	0.665
Mof_H 	H 	0.265	0.6118	0.5128	0.673
Mof_H 	H 	0.2945	0.5784	0.5129	0.659
Mof_C 	C 	0.1969	0.5221	0.5194	0.012
Mof_C 	C 	0.1463	0.4771	0.5196	-0.021
Mof_H 	H 	0.1285	0.4614	0.5332	0.042
Mof_H 	H 	0.0864	0.7098	0.4743	0.102
Mof_H 	H 	0.1062	0.6993	0.5128	0.122
Mof_H 	H 	0.0668	0.7202	0.513	0.035
Mof_H 	H 	0.2885	0.5231	0.4743	0.21
Mof_H 	H 	0.3035	0.5397	0.5128	0.148
Mof_H 	H 	0.2736	0.5066	0.5129	0.179
Mof_H 	H 	0.9888	0.5266	0.5332	0.002
Mof_C 	C 	0.017	0.5787	0.5402	0
Mof_H 	H 	0.0174	0.5786	0.5675	0.015
Mof_Zn	Zn	0.257	0.05076	0.91616	1.223
Mof_Zn	Zn	0.44964	0.1615	0.91485	1.208
Mof_O 	O 	0.4531	0.13403	0.82651	-0.471
Mof_O 	O 	0.4172	0.13391	0.87917	-0.503
Mof_O 	O 	0.27375	0.03971	0.83287	-0.492
Mof_O 	O 	0.30176	0.05977	0.88568	-0.501
Mof_O 	O 	0.3488	0.03938	0.71397	-0.48
Mof_O 	O 	0.40944	0.0587	0.71584	-0.514
Mof_O 	O 	0.21493	0.08183	0.90117	-0.547
Mof_O 	O 	0.19014	0.04635	0.8535	-0.486
Mof_C 	C 	0.3943	0.10102	0.82593	-0.183
Mof_C 	C 	0.363	0.08924	0.84565	0.115
Mof_H 	H 	0.3604	0.096	0.8711	0.015
Mof_C 	C 	0.33476	0.06718	0.8283	-0.179
Mof_C 	C 	0.33937	0.05672	0.79066	0.117
Mof_H 	H 	0.3207	0.0422	0.7787	0.011
Mof_C 	C 	0.37126	0.06748	0.7707	-0.182
Mof_C 	C 	0.39856	0.08973	0.78826	0.116
Mof_H 	H 	0.42	0.0972	0.7747	0.002
Mof_C 	C 	0.42425	0.12497	0.84524	0.429
Mof_C 	C 	0.30038	0.05388	0.85016	0.431
Mof_C 	C 	0.37614	0.05459	0.7304	0.411
Mof_C 	C 	0.18994	0.074	0.87551	0.417
Mof_C 	C 	0.15811	0.10332	0.8729	-0.229
Mof_C 	C 	0.1319	0.10102	0.84395	0.148
Mof_H 	H 	0.1337	0.0811	0.8253	-0.038
Mof_N 	N 	0.4486	0.1437	0.9681	-0.175
Mof_C 	C 	0.4665	0.11	0.9806	0.075
Mof_N 	N 	0.2648	0.0713	0.9685	-0.313
Mof_C 	C 	0.2924	0.0964	0.9809	-0.062
Mof_C 	C 	0.3186	0.12	0.961	-0.023
Mof_H 	H 	0.3189	0.1199	0.9337	0.029
Mof_C 	C 	0.3427	0.1419	0.9805	-0.114
Mof_H 	H 	0.3601	0.1581	0.9669	0.038
Mof_N 	N 	0.4426	0.1486	0.9683	-0.103
Mof_H 	H 	0.453	0.2196	0.0257	0.019
Mof_H 	H 	0.4756	0.2162	0.9874	0.036
Mof_H 	H 	0.4315	0.2229	0.9868	0.132
Mof_C 	C 	0.4372	0.1119	0.9806	-0.098
Mof_C 	C 	0.4323	0.079	0.9604	0.017
Mof_H 	H 	0.4323	0.0794	0.9331	0.008
Mof_C 	C 	0.4272	0.0449	0.9802	-0.138
Mof_H 	H 	0.4248	0.0214	0.9665	0.069
Mof_N 	N 	0.2749	0.0468	0.9687	-0.308
Mof_H 	H 	0.2202	0.095	0.0257	0.569
Mof_H 	H 	0.235	0.1118	0.9872	0.568
Mof_H 	H 	0.2055	0.0784	0.9871	0.554
Mof_C 	C 	0.3031	0.0221	0.9806	-0.041
Mof_C 	C 	0.3537	0.9771	0.9804	-0.123
Mof_H 	H 	0.3715	0.9614	0.9668	0.071
Mof_H 	H 	0.4136	0.2098	0.0257	0.077
Mof_H 	H 	0.3938	0.1993	0.9872	0.083
Mof_H 	H 	0.4332	0.2202	0.987	0.024
Mof_H 	H 	0.2115	0.0231	0.0257	0.171
Mof_H 	H 	0.1965	0.0397	0.9872	0.104
Mof_H 	H 	0.2264	0.0066	0.9871	0.121
Mof_H 	H 	0.5112	0.0266	0.9668	0.015
Mof_C 	C 	0.483	0.0787	0.9598	-0.08
Mof_H 	H 	0.4826	0.0786	0.9325	0.035
Mof_Zn	Zn	0.757	0.55076	0.41616	1.223
Mof_Zn	Zn	0.94964	0.6615	0.41485	1.206
Mof_O 	O 	0.9531	0.63403	0.32651	-0.478
Mof_O 	O 	0.9172	0.63391	0.37917	-0.506
Mof_O 	O 	0.77375	0.53971	0.33287	-0.497
Mof_O 	O 	0.80176	0.55977	0.38568	-0.504
Mof_O 	O 	0.8488	0.53938	0.21397	-0.485
Mof_O 	O 	0.90944	0.5587	0.21584	-0.515
Mof_O 	O 	0.71493	0.58183	0.40117	-0.557
Mof_O 	O 	0.69014	0.54635	0.3535	-0.496
Mof_C 	C 	0.8943	0.60102	0.32593	-0.186
Mof_C 	C 	0.863	0.58924	0.34565	0.117
Mof_H 	H 	0.8604	0.596	0.3711	0.014
Mof_C 	C 	0.83476	0.56718	0.3283	-0.183
Mof_C 	C 	0.83937	0.55672	0.29066	0.118
Mof_H 	H 	0.8207	0.5422	0.2787	0.007
Mof_C 	C 	0.87126	0.56748	0.2707	-0.185
Mof_C 	C 	0.89856	0.58973	0.28826	0.117
Mof_H 	H 	0.92	0.5972	0.2747	0.001
Mof_C 	C 	0.92425	0.62497	0.34524	0.43
Mof_C 	C 	0.80038	0.55388	0.35016	0.431
Mof_C 	C 	0.87614	0.55459	0.2304	0.411
Mof_C 	C 	0.68994	0.574	0.37551	0.42
Mof_C 	C 	0.65811	0.60332	0.3729	-0.242
Mof_C 	C 	0.6319	0.60102	0.34395	0.156
Mof_H 	H 	0.6337	0.5811	0.3253	-0.049
Mof_N 	N 	0.9486	0.6437	0.4681	-0.18
Mof_C 	C 	0.9665	0.61	0.4806	-0.012
Mof_N 	N 	0.7648	0.5713	0.4685	-0.334
Mof_C 	C 	0.7924	0.5964	0.4809	-0.026
Mof_C 	C 	0.8186	0.62	0.461	-0.072
Mof_H 	H 	0.8189	0.6199	0.4337	0.044
Mof_C 	C 	0.8427	0.6419	0.4805	-0.034
Mof_H 	H 	0.8601	0.6581	0.4669	0.013
Mof_N 	N 	0.9426	0.6486	0.4683	-0.111
Mof_H 	H 	0.953	0.7196	0.5257	0.035
Mof_H 	H 	0.9756	0.7162	0.4874	0.064
Mof_H 	H 	0.9315	0.7229	0.4868	0.166
Mof_C 	C 	0.9372	0.6119	0.4806	0.052
Mof_C 	C 	0.9323	0.579	0.4604	-0.083
Mof_H 	H 	0.9323	0.5794	0.4331	0.039
Mof_C 	C 	0.9272	0.5449	0.4802	-0.025
Mof_H 	H 	0.9248	0.5214	0.4665	0.03
Mof_N 	N 	0.7749	0.5468	0.4687	-0.334
Mof_H 	H 	0.7202	0.595	0.5257	0.666
Mof_H 	H 	0.735	0.6118	0.4872	0.674
Mof_H 	H 	0.7055	0.5784	0.4871	0.659
Mof_C 	C 	0.8031	0.5221	0.4806	0.012
Mof_C 	C 	0.8537	0.4771	0.4804	-0.021
Mof_H 	H 	0.8715	0.4614	0.4668	0.042
Mof_H 	H 	0.9136	0.7098	0.5257	0.09
Mof_H 	H 	0.8938	0.6993	0.4872	0.113
Mof_H 	H 	0.9332	0.7202	0.487	0.034
Mof_H 	H 	0.7115	0.5231	0.5257	0.211
Mof_H 	H 	0.6965	0.5397	0.4872	0.148
Mof_H 	H 	0.7264	0.5066	0.4871	0.179
Mof_H 	H 	0.0112	0.5266	0.4668	0.032
Mof_C 	C 	0.983	0.5787	0.4598	-0.076
Mof_H 	H 	0.9826	0.5786	0.4325	0.024
Mof_Zn	Zn	0.162	0.5	0.17024	1.21
Mof_O 	O 	0.10591	0.5	0.14786	-0.683
Mof_C 	C 	0.0196	0.5	0.0474	-0.099
Mof_Zn	Zn	0.662	4.64838e-33	0.67024	1.215
Mof_O 	O 	0.60591	4.64838e-33	0.64786	-0.674
Mof_C 	C 	0.5196	0	0.5474	-0.01
Mof_Zn	Zn	0.838	0.5	0.17024	1.21
Mof_O 	O 	0.89409	0.5	0.14786	-0.687
Mof_C 	C 	0.9804	0.5	0.0474	0.022
Mof_Zn	Zn	0.338	4.64838e-33	0.67024	1.215
Mof_O 	O 	0.39409	4.64838e-33	0.64786	-0.674
Mof_C 	C 	0.4804	0	0.5474	-0.01
Mof_Zn	Zn	0.838	0.5	0.82976	1.21
Mof_O 	O 	0.89409	0.5	0.85214	-0.688
Mof_C 	C 	0.9804	0.5	0.9526	0.026
Mof_Zn	Zn	0.338	0	0.32976	1.215
Mof_O 	O 	0.39409	4.64838e-33	0.35214	-0.674
Mof_C 	C 	0.4804	4.64838e-33	0.4526	-0.01
Mof_Zn	Zn	0.162	0.5	0.82976	1.21
Mof_O 	O 	0.10591	0.5	0.85214	-0.684
Mof_C 	C 	0.0196	0.5	0.9526	-0.099
Mof_Zn	Zn	0.662	0	0.32976	1.215
Mof_O 	O 	0.60591	4.64838e-33	0.35214	-0.674
Mof_C 	C 	0.5196	4.64838e-33	0.4526	-0.01
Mof_Zn	Zn	0.17024	0.162	0.5	1.21
Mof_O 	O 	0.14786	0.10591	0.5	-0.683
Mof_C 	C 	0.0474	0.0196	0.5	-0.099
Mof_Zn	Zn	0.67024	0.662	-0	1.215
Mof_O 	O 	0.64786	0.60591	-0	-0.674
Mof_C 	C 	0.5474	0.5196	-0	-0.01
Mof_Zn	Zn	0.17024	0.838	0.5	1.21
Mof_O 	O 	0.14786	0.89409	0.5	-0.687
Mof_C 	C 	0.0474	0.9804	0.5	0.022
Mof_Zn	Zn	0.67024	0.338	-0	1.215
Mof_O 	O 	0.64786	0.39409	-0	-0.674
Mof_C 	C 	0.5474	0.4804	-0	-0.01
Mof_Zn	Zn	0.82976	0.838	0.5	1.21
Mof_O 	O 	0.85214	0.89409	0.5	-0.688
Mof_C 	C 	0.9526	0.9804	0.5	0.026
Mof_Zn	Zn	0.32976	0.338	-0	1.215
Mof_O 	O 	0.35214	0.39409	-0	-0.674
Mof_C 	C 	0.4526	0.4804	-0	-0.01
Mof_Zn	Zn	0.82976	0.162	0.5	1.21
Mof_O 	O 	0.85214	0.10591	0.5	-0.684
Mof_C 	C 	0.9526	0.0196	0.5	-0.099
Mof_Zn	Zn	0.32976	0.662	-0	1.215
Mof_O 	O 	0.35214	0.60591	-0	-0.674
Mof_C 	C 	0.4526	0.5196	-0	-0.01
Mof_Zn	Zn	0.5	0.17024	0.162	1.21
Mof_O 	O 	0.5	0.14786	0.10591	-0.683
Mof_C 	C 	0.5	0.0474	0.0196	-0.099
Mof_Zn	Zn	7.13048e-33	0.67024	0.662	1.215
Mof_O 	O 	6.92018e-33	0.64786	0.60591	-0.674
Mof_C 	C 	1.12449e-32	0.5474	0.5196	-0.01
Mof_Zn	Zn	0.5	0.17024	0.838	1.21
Mof_O 	O 	0.5	0.14786	0.89409	-0.687
Mof_C 	C 	0.5	0.0474	0.9804	0.022
Mof_Zn	Zn	-1.05689e-33	0.67024	0.338	1.215
Mof_O 	O 	1.07744e-32	0.64786	0.39409	-0.674
Mof_C 	C 	6.44959e-33	0.5474	0.4804	-0.01
Mof_Zn	Zn	0.5	0.82976	0.838	1.21
Mof_O 	O 	0.5	0.85214	0.89409	-0.688
Mof_C 	C 	0.5	0.9526	0.9804	0.026
Mof_Zn	Zn	5.91567e-33	0.32976	0.338	1.215
Mof_O 	O 	1.07744e-32	0.35214	0.39409	-0.674
Mof_C 	C 	1.1098e-32	0.4526	0.4804	-0.01
Mof_Zn	Zn	0.5	0.82976	0.162	1.21
Mof_O 	O 	0.5	0.85214	0.10591	-0.684
Mof_C 	C 	0.5	0.9526	0.0196	-0.099
Mof_Zn	Zn	2.4821e-33	0.32976	0.662	1.215
Mof_O 	O 	1.15686e-32	0.35214	0.60591	-0.674
Mof_C 	C 	1.58933e-32	0.4526	0.5196	-0.01
Mof_Zn	Zn	0.1558	0.22999	-0	1.207
Mof_O 	O 	0.09661	0.23689	-0	-0.701
Mof_C 	C 	0.0392	0.3281	-0	-0.167
Mof_H 	H 	0.0665	0.3281	-0	0.066
Mof_Zn	Zn	0.6558	0.72999	0.5	1.202
Mof_O 	O 	0.59661	0.73689	0.5	-0.715
Mof_C 	C 	0.5392	0.8281	0.5	-0.078
Mof_H 	H 	0.5665	0.8281	0.5	0.032
Mof_Zn	Zn	0.8442	0.77001	-0	1.207
Mof_O 	O 	0.90339	0.76311	-0	-0.701
Mof_C 	C 	0.9608	0.6719	-0	0.082
Mof_H 	H 	0.9335	0.6719	-0	-0.013
Mof_Zn	Zn	0.3442	0.27001	0.5	1.202
Mof_O 	O 	0.40339	0.26311	0.5	-0.716
Mof_C 	C 	0.4608	0.1719	0.5	-0.077
Mof_H 	H 	0.4335	0.1719	0.5	0.033
Mof_Zn	Zn	0.8442	0.22999	-0	1.207
Mof_O 	O 	0.90339	0.23689	-0	-0.7
Mof_C 	C 	0.9608	0.3281	-0	0.082
Mof_H 	H 	0.9335	0.3281	-0	-0.013
Mof_Zn	Zn	0.3442	0.72999	0.5	1.202
Mof_O 	O 	0.40339	0.73689	0.5	-0.716
Mof_C 	C 	0.4608	0.8281	0.5	-0.078
Mof_H 	H 	0.4335	0.8281	0.5	0.032
Mof_Zn	Zn	0.1558	0.77001	-0	1.207
Mof_O 	O 	0.09661	0.76311	-0	-0.701
Mof_C 	C 	0.0392	0.6719	-0	-0.167
Mof_H 	H 	0.0665	0.6719	-0	0.066
Mof_Zn	Zn	0.6558	0.27001	0.5	1.202
Mof_O 	O 	0.59661	0.26311	0.5	-0.716
Mof_C 	C 	0.5392	0.1719	0.5	-0.077
Mof_H 	H 	0.5665	0.1719	0.5	0.033
Mof_Zn	Zn	5.5107e-33	0.1558	0.22999	1.207
Mof_O 	O 	3.21238e-33	0.09661	0.23689	-0.701
Mof_C 	C 	3.55437e-33	0.0392	0.3281	-0.167
Mof_H 	H 	1.23018e-33	0.0665	0.3281	0.066
Mof_Zn	Zn	0.5	0.6558	0.72999	1.202
Mof_O 	O 	0.5	0.59661	0.73689	-0.715
Mof_C 	C 	0.5	0.5392	0.8281	-0.078
Mof_H 	H 	0.5	0.5665	0.8281	0.032
Mof_Zn	Zn	1.21838e-32	0.8442	0.77001	1.207
Mof_O 	O 	2.8612e-33	0.90339	0.76311	-0.701
Mof_C 	C 	7.1676e-33	0.9608	0.6719	0.082
Mof_H 	H 	-2.12916e-33	0.9335	0.6719	-0.013
Mof_Zn	Zn	0.5	0.3442	0.27001	1.202
Mof_O 	O 	0.5	0.40339	0.26311	-0.716
Mof_C 	C 	0.5	0.4608	0.1719	-0.077
Mof_H 	H 	0.5	0.4335	0.1719	0.033
Mof_Zn	Zn	7.83489e-33	0.8442	0.22999	1.207
Mof_O 	O 	1.25091e-32	0.90339	0.23689	-0.7
Mof_C 	C 	1.51753e-32	0.9608	0.3281	0.082
Mof_H 	H 	5.87855e-33	0.9335	0.3281	-0.013
Mof_Zn	Zn	0.5	0.3442	0.72999	1.202
Mof_O 	O 	0.5	0.40339	0.73689	-0.716
Mof_C 	C 	0.5	0.4608	0.8281	-0.078
Mof_H 	H 	0.5	0.4335	0.8281	0.032
Mof_Zn	Zn	1.21838e-32	0.1558	0.77001	1.207
Mof_O 	O 	2.8612e-33	0.09661	0.76311	-0.701
Mof_C 	C 	2.51922e-33	0.0392	0.6719	-0.167
Mof_H 	H 	2.51922e-33	0.0665	0.6719	0.066
Mof_Zn	Zn	0.5	0.6558	0.27001	1.202
Mof_O 	O 	0.5	0.59661	0.26311	-0.716
Mof_C 	C 	0.5	0.5392	0.1719	-0.077
Mof_H 	H 	0.5	0.5665	0.1719	0.033
Mof_Zn	Zn	0.22999	1.16209e-33	0.1558	1.207
Mof_O 	O 	0.23689	1.16209e-33	0.09661	-0.701
Mof_C 	C 	0.3281	2.90524e-34	0.0392	-0.167
Mof_H 	H 	0.3281	5.81047e-34	0.0665	0.066
Mof_Zn	Zn	0.72999	0.5	0.6558	1.202
Mof_O 	O 	0.73689	0.5	0.59661	-0.715
Mof_C 	C 	0.8281	0.5	0.5392	-0.078
Mof_H 	H 	0.8281	0.5	0.5665	0.032
Mof_Zn	Zn	0.77001	0	0.8442	1.207
Mof_O 	O 	0.76311	9.29675e-33	0.90339	-0.701
Mof_C 	C 	0.6719	9.29675e-33	0.9608	0.082
Mof_H 	H 	0.6719	0	0.9335	-0.013
Mof_Zn	Zn	0.27001	0.5	0.3442	1.202
Mof_O 	O 	0.26311	0.5	0.40339	-0.716
Mof_C 	C 	0.1719	0.5	0.4608	-0.077
Mof_H 	H 	0.1719	0.5	0.4335	0.033
Mof_Zn	Zn	0.22999	0	0.8442	1.207
Mof_O 	O 	0.23689	9.29675e-33	0.90339	-0.7
Mof_C 	C 	0.3281	9.29675e-33	0.9608	0.082
Mof_H 	H 	0.3281	0	0.9335	-0.013
Mof_Zn	Zn	0.72999	0.5	0.3442	1.202
Mof_O 	O 	0.73689	0.5	0.40339	-0.716
Mof_C 	C 	0.8281	0.5	0.4608	-0.078
Mof_H 	H 	0.8281	0.5	0.4335	0.032
Mof_Zn	Zn	0.77001	1.16209e-33	0.1558	1.207
Mof_O 	O 	0.76311	1.16209e-33	0.09661	-0.701
Mof_C 	C 	0.6719	2.90524e-34	0.0392	-0.167
Mof_H 	H 	0.6719	5.81047e-34	0.0665	0.066
Mof_Zn	Zn	0.27001	0.5	0.6558	1.202
Mof_O 	O 	0.26311	0.5	0.59661	-0.716
Mof_C 	C 	0.1719	0.5	0.5392	-0.077
Mof_H 	H 	0.1719	0.5	0.5665	0.033
Mof_C 	C 	5.26065e-33	0.4382	0.1633	0.117
Mof_C 	C 	7.72882e-33	0.4178	0.2017	-0.574
Mof_C 	C 	-9.49128e-34	0.2486	0.0568	0.39
Mof_C 	C 	4.00006e-34	0.2182	0.0292	-1.125
Mof_C 	C 	1.79724e-33	0.4458	0.1694	0.12
Mof_C 	C 	5.438e-33	0.452	0.2106	-0.343
Mof_C 	C 	2.55365e-33	0.2586	0.0612	0.917
Mof_C 	C 	1.49617e-33	0.227	0.0891	-3.357
Mof_C 	C 	0.5	0.9382	0.6633	0.138
Mof_C 	C 	0.5	0.9178	0.7017	-0.641
Mof_C 	C 	0.5	0.7486	0.5568	0.389
Mof_C 	C 	0.5	0.7182	0.5292	-1.367
Mof_C 	C 	0.5	0.9458	0.6694	0.112
Mof_C 	C 	0.5	0.952	0.7106	-0.432
Mof_C 	C 	0.5	0.7586	0.5612	1.089
Mof_C 	C 	0.5	0.727	0.5891	-3.879
Mof_C 	C 	5.26065e-33	0.5618	0.1633	0.117
Mof_C 	C 	3.08044e-33	0.5822	0.2017	-0.574
Mof_C 	C 	8.34763e-33	0.7514	0.0568	0.39
Mof_C 	C 	5.04838e-33	0.7818	0.0292	-1.121
Mof_C 	C 	1.79724e-33	0.5542	0.1694	0.12
Mof_C 	C 	7.89624e-34	0.548	0.2106	-0.343
Mof_C 	C 	4.87784e-33	0.7414	0.0612	0.914
Mof_C 	C 	1.49617e-33	0.773	0.0891	-3.349
Mof_C 	C 	0.5	0.0618	0.6633	0.143
Mof_C 	C 	0.5	0.0822	0.7017	-0.694
Mof_C 	C 	0.5	0.2514	0.5568	0.389
Mof_C 	C 	0.5	0.2818	0.5292	-1.367
Mof_C 	C 	0.5	0.0542	0.6694	0.116
Mof_C 	C 	0.5	0.048	0.7106	-0.401
Mof_C 	C 	0.5	0.2414	0.5612	1.089
Mof_C 	C 	0.5	0.273	0.5891	-3.878
Mof_C 	C 	3.13712e-33	0.4382	0.8367	0.117
Mof_C 	C 	2.99315e-33	0.4178	0.7983	-0.574
Mof_C 	C 	3.53643e-33	0.2486	0.9432	0.378
Mof_C 	C 	-5.65684e-33	0.2182	0.9708	-1.265
Mof_C 	C 	3.11425e-33	0.4458	0.8306	0.12
Mof_C 	C 	2.95978e-33	0.452	0.7894	-0.343
Mof_C 	C 	1.28167e-32	0.2586	0.9388	0.961
Mof_C 	C 	2.20088e-32	0.227	0.9109	-3.368
Mof_C 	C 	0.5	0.9382	0.3367	0.137
Mof_C 	C 	0.5	0.9178	0.2983	-0.641
Mof_C 	C 	0.5	0.7486	0.4432	0.389
Mof_C 	C 	0.5	0.7182	0.4708	-1.367
Mof_C 	C 	0.5	0.9458	0.3306	0.112
Mof_C 	C 	0.5	0.952	0.2894	-0.432
Mof_C 	C 	0.5	0.7586	0.4388	1.089
Mof_C 	C 	0.5	0.727	0.4109	-3.878
Mof_C 	C 	1.24339e-32	0.5618	0.8367	0.117
Mof_C 	C 	2.99315e-33	0.5822	0.7983	-0.574
Mof_C 	C 	3.14267e-32	0.7514	0.9432	0.378
Mof_C 	C 	3.63992e-33	0.7818	0.9708	-1.261
Mof_C 	C 	2.17078e-32	0.5542	0.8306	0.12
Mof_C 	C 	1.22565e-32	0.548	0.7894	-0.344
Mof_C 	C 	-5.77682e-33	0.7414	0.9388	0.958
Mof_C 	C 	3.41533e-33	0.773	0.9109	-3.359
Mof_C 	C 	0.5	0.0618	0.3367	0.143
Mof_C 	C 	0.5	0.0822	0.2983	-0.693
Mof_C 	C 	0.5	0.2514	0.4432	0.389
Mof_C 	C 	0.5	0.2818	0.4708	-1.367
Mof_C 	C 	0.5	0.0542	0.3306	0.115
Mof_C 	C 	0.5	0.048	0.2894	-0.401
Mof_C 	C 	0.5	0.2414	0.4388	1.088
Mof_C 	C 	0.5	0.273	0.4109	-3.877
Mof_C 	C 	0.1633	4.64838e-33	0.4382	0.117
Mof_C 	C 	0.2017	4.64838e-33	0.4178	-0.574
Mof_C 	C 	0.0568	0	0.2486	0.39
Mof_C 	C 	0.0292	2.32419e-33	0.2182	-1.125
Mof_C 	C 	0.1694	4.64838e-33	0.4458	0.12
Mof_C 	C 	0.2106	0	0.452	-0.343
Mof_C 	C 	0.0612	2.32419e-33	0.2586	0.917
Mof_C 	C 	0.0891	0	0.227	-3.357
Mof_C 	C 	0.6633	0.5	0.9382	0.138
Mof_C 	C 	0.7017	0.5	0.9178	-0.641
Mof_C 	C 	0.5568	0.5	0.7486	0.389
Mof_C 	C 	0.5292	0.5	0.7182	-1.367
Mof_C 	C 	0.6694	0.5	0.9458	0.112
Mof_C 	C 	0.7106	0.5	0.952	-0.432
Mof_C 	C 	0.5612	0.5	0.7586	1.089
Mof_C 	C 	0.5891	0.5	0.727	-3.879
Mof_C 	C 	0.1633	4.64838e-33	0.5618	0.117
Mof_C 	C 	0.2017	4.64838e-33	0.5822	-0.574
Mof_C 	C 	0.0568	9.29675e-33	0.7514	0.39
Mof_C 	C 	0.0292	9.29675e-33	0.7818	-1.121
Mof_C 	C 	0.1694	4.64838e-33	0.5542	0.12
Mof_C 	C 	0.2106	0	0.548	-0.343
Mof_C 	C 	0.0612	9.29675e-33	0.7414	0.914
Mof_C 	C 	0.0891	0	0.773	-3.349
Mof_C 	C 	0.6633	0.5	0.0618	0.143
Mof_C 	C 	0.7017	0.5	0.0822	-0.694
Mof_C 	C 	0.5568	0.5	0.2514	0.389
Mof_C 	C 	0.5292	0.5	0.2818	-1.367
Mof_C 	C 	0.6694	0.5	0.0542	0.116
Mof_C 	C 	0.7106	0.5	0.048	-0.401
Mof_C 	C 	0.5612	0.5	0.2414	1.089
Mof_C 	C 	0.5891	0.5	0.273	-3.878
Mof_C 	C 	0.8367	4.64838e-33	0.4382	0.117
Mof_C 	C 	0.7983	4.64838e-33	0.4178	-0.574
Mof_C 	C 	0.9432	0	0.2486	0.378
Mof_C 	C 	0.9708	2.32419e-33	0.2182	-1.265
Mof_C 	C 	0.8306	4.64838e-33	0.4458	0.12
Mof_C 	C 	0.7894	0	0.452	-0.343
Mof_C 	C 	0.9388	2.32419e-33	0.2586	0.961
Mof_C 	C 	0.9109	0	0.227	-3.368
Mof_C 	C 	0.3367	0.5	0.9382	0.137
Mof_C 	C 	0.2983	0.5	0.9178	-0.641
Mof_C 	C 	0.4432	0.5	0.7486	0.389
Mof_C 	C 	0.4708	0.5	0.7182	-1.367
Mof_C 	C 	0.3306	0.5	0.9458	0.112
Mof_C 	C 	0.2894	0.5	0.952	-0.432
Mof_C 	C 	0.4388	0.5	0.7586	1.089
Mof_C 	C 	0.4109	0.5	0.727	-3.878
Mof_C 	C 	0.8367	4.64838e-33	0.5618	0.117
Mof_C 	C 	0.7983	4.64838e-33	0.5822	-0.574
Mof_C 	C 	0.9432	9.29675e-33	0.7514	0.378
Mof_C 	C 	0.9708	9.29675e-33	0.7818	-1.261
Mof_C 	C 	0.8306	4.64838e-33	0.5542	0.12
Mof_C 	C 	0.7894	0	0.548	-0.344
Mof_C 	C 	0.9388	9.29675e-33	0.7414	0.958
Mof_C 	C 	0.9109	0	0.773	-3.359
Mof_C 	C 	0.3367	0.5	0.0618	0.143
Mof_C 	C 	0.2983	0.5	0.0822	-0.693
Mof_C 	C 	0.4432	0.5	0.2514	0.389
Mof_C 	C 	0.4708	0.5	0.2818	-1.367
Mof_C 	C 	0.3306	0.5	0.0542	0.115
Mof_C 	C 	0.2894	0.5	0.048	-0.401
Mof_C 	C 	0.4388	0.5	0.2414	1.088
Mof_C 	C 	0.4109	0.5	0.273	-3.877
Mof_C 	C 	0.4382	0.1633	-0	0.117
Mof_C 	C 	0.4178	0.2017	-0	-0.574
Mof_C 	C 	0.2486	0.0568	-0	0.39
Mof_C 	C 	0.2182	0.0292	-0	-1.125
Mof_C 	C 	0.4458	0.1694	-0	0.12
Mof_C 	C 	0.452	0.2106	-0	-0.343
Mof_C 	C 	0.2586	0.0612	-0	0.917
Mof_C 	C 	0.227	0.0891	-0	-3.357
Mof_C 	C 	0.9382	0.6633	0.5	0.138
Mof_C 	C 	0.9178	0.7017	0.5	-0.641
Mof_C 	C 	0.7486	0.5568	0.5	0.389
Mof_C 	C 	0.7182	0.5292	0.5	-1.367
Mof_C 	C 	0.9458	0.6694	0.5	0.112
Mof_C 	C 	0.952	0.7106	0.5	-0.432
Mof_C 	C 	0.7586	0.5612	0.5	1.089
Mof_C 	C 	0.727	0.5891	0.5	-3.879
Mof_C 	C 	0.5618	0.1633	-0	0.117
Mof_C 	C 	0.5822	0.2017	-0	-0.574
Mof_C 	C 	0.7514	0.0568	-0	0.39
Mof_C 	C 	0.7818	0.0292	-0	-1.121
Mof_C 	C 	0.5542	0.1694	-0	0.12
Mof_C 	C 	0.548	0.2106	-0	-0.343
Mof_C 	C 	0.7414	0.0612	-0	0.914
Mof_C 	C 	0.773	0.0891	-0	-3.349
Mof_C 	C 	0.0618	0.6633	0.5	0.143
Mof_C 	C 	0.0822	0.7017	0.5	-0.694
Mof_C 	C 	0.2514	0.5568	0.5	0.389
Mof_C 	C 	0.2818	0.5292	0.5	-1.367
Mof_C 	C 	0.0542	0.6694	0.5	0.116
Mof_C 	C 	0.048	0.7106	0.5	-0.401
Mof_C 	C 	0.2414	0.5612	0.5	1.089
Mof_C 	C 	0.273	0.5891	0.5	-3.878
Mof_C 	C 	0.4382	0.8367	-0	0.117
Mof_C 	C 	0.4178	0.7983	-0	-0.574
Mof_C 	C 	0.2486	0.9432	-0	0.378
Mof_C 	C 	0.2182	0.9708	-0	-1.265
Mof_C 	C 	0.4458	0.8306	-0	0.12
Mof_C 	C 	0.452	0.7894	-0	-0.343
Mof_C 	C 	0.2586	0.9388	-0	0.961
Mof_C 	C 	0.227	0.9109	-0	-3.368
Mof_C 	C 	0.9382	0.3367	0.5	0.137
Mof_C 	C 	0.9178	0.2983	0.5	-0.641
Mof_C 	C 	0.7486	0.4432	0.5	0.389
Mof_C 	C 	0.7182	0.4708	0.5	-1.367
Mof_C 	C 	0.9458	0.3306	0.5	0.112
Mof_C 	C 	0.952	0.2894	0.5	-0.432
Mof_C 	C 	0.7586	0.4388	0.5	1.089
Mof_C 	C 	0.727	0.4109	0.5	-3.878
Mof_C 	C 	0.5618	0.8367	-0	0.117
Mof_C 	C 	0.5822	0.7983	-0	-0.574
Mof_C 	C 	0.7514	0.9432	-0	0.378
Mof_C 	C 	0.7818	0.9708	-0	-1.261
Mof_C 	C 	0.5542	0.8306	-0	0.12
Mof_C 	C 	0.548	0.7894	-0	-0.344
Mof_C 	C 	0.7414	0.9388	-0	0.958
Mof_C 	C 	0.773	0.9109	-0	-3.359
Mof_C 	C 	0.0618	0.3367	0.5	0.143
Mof_C 	C 	0.0822	0.2983	0.5	-0.693
Mof_C 	C 	0.2514	0.4432	0.5	0.389
Mof_C 	C 	0.2818	0.4708	0.5	-1.367
Mof_C 	C 	0.0542	0.3306	0.5	0.115
Mof_C 	C 	0.048	0.2894	0.5	-0.401
Mof_C 	C 	0.2414	0.4388	0.5	1.088
Mof_C 	C 	0.273	0.4109	0.5	-3.877
_end
