data_functionalizedCrystal
_audit_creation_method	'EQeq! by Chris Wilmer'
_symmetry_space_group_name_H-M	'P1'
_symmetry_Int_Tables_number	1
_symmetry_cell_setting	triclinic
loop_
_symmetry_equiv_pos_as_xyz
  x,y,z
_cell_length_a	37.492
_cell_length_b	37.492
_cell_length_c	15.557
_cell_angle_alpha	90
_cell_angle_beta	90
_cell_angle_gamma	90
loop_
_atom_site_label
_atom_site_type_symbol
_atom_site_fract_x
_atom_site_fract_y
_atom_site_fract_z
_atom_site_charge
Mof_Mn	Mn	0.14613	0.3517	0.2481	0.947
Mof_N 	N 	0.0482	0.3177	0.3404	-0.226
Mof_N 	N 	0.1343	0.4566	0.3385	-0.227
Mof_N 	N 	0.1989	0.2615	0.1607	-0.226
Mof_O 	O 	0.0341	0.3578	0.2009	-0.361
Mof_O 	O 	0.0958	0.3648	0.186	-0.305
Mof_O 	O 	0.1062	0.3181	0.3246	-0.273
Mof_O 	O 	0.1722	0.4609	0.1912	-0.621
Mof_O 	O 	0.1696	0.3995	0.184	-0.51
Mof_O 	O 	0.1375	0.3931	0.3363	-0.291
Mof_O 	O 	0.1609	0.3119	0.1666	-0.305
Mof_O 	O 	0.1945	0.3329	0.3118	-0.338
Mof_O 	O 	0.2333	0.2846	0.3019	-0.393
Mof_C 	C 	0.0658	0.3548	0.2252	0.21
Mof_C 	C 	0.0748	0.3279	0.3055	0.141
Mof_C 	C 	0.1432	0.4264	0.3053	0.083
Mof_C 	C 	0.1572	0.4306	0.2127	0.186
Mof_C 	C 	0.2064	0.3004	0.2796	0.203
Mof_C 	C 	0.1877	0.2906	0.1961	0.071
Mof_C 	C 	0.044	0.2956	0.4226	-0.026
Mof_C 	C 	0.0487	0.2589	0.4206	0.119
Mof_C 	C 	0.113	0.4555	0.425	-0.118
Mof_C 	C 	0.1827	0.2478	0.0781	0.026
Mof_C 	C 	0.1516	0.2222	0.0728	-0.014
Mof_C 	C 	0.0798	0.4538	0.4211	0.162
Mof_C 	C 	0.0552	0.4473	0.3335	-0.436
Mof_H 	H 	0.0705	0.4482	0.2825	0.136
Mof_H 	H 	0.0369	0.466	0.3296	0.126
Mof_H 	H 	0.0436	0.4239	0.3369	0.143
Mof_C 	C 	0.0479	0.2379	0.3313	-0.438
Mof_H 	H 	0.0485	0.255	0.2837	0.14
Mof_H 	H 	0.0261	0.2236	0.3278	0.13
Mof_H 	H 	0.0687	0.2221	0.3276	0.148
Mof_K 	K 	0.2156	0.4256	0.0678	1.821
Mof_H 	H 	0.1787	0.4593	0.5582	0.082
Mof_H 	H 	0.1805	0.4727	0.4606	0.049
Mof_H 	H 	0.1749	0.4313	0.4812	0.085
Mof_H 	H 	0.2324	0.297	0.9406	0.014
Mof_H 	H 	0.247	0.283	0.0312	0.018
Mof_H 	H 	0.2162	0.3125	0.0282	0.038
Mof_Mn	Mn	0.85387	0.6483	0.2481	0.946
Mof_N 	N 	0.9518	0.6823	0.3404	-0.225
Mof_N 	N 	0.8657	0.5434	0.3385	-0.227
Mof_N 	N 	0.8011	0.7385	0.1607	-0.227
Mof_O 	O 	0.9659	0.6422	0.2009	-0.354
Mof_O 	O 	0.9042	0.6352	0.186	-0.305
Mof_O 	O 	0.8938	0.6819	0.3246	-0.274
Mof_O 	O 	0.8278	0.5391	0.1912	-0.622
Mof_O 	O 	0.8304	0.6005	0.184	-0.511
Mof_O 	O 	0.8625	0.6069	0.3363	-0.292
Mof_O 	O 	0.8391	0.6881	0.1666	-0.305
Mof_O 	O 	0.8055	0.6671	0.3118	-0.339
Mof_O 	O 	0.7667	0.7154	0.3019	-0.394
Mof_C 	C 	0.9342	0.6452	0.2252	0.208
Mof_C 	C 	0.9252	0.6721	0.3055	0.141
Mof_C 	C 	0.8568	0.5736	0.3053	0.082
Mof_C 	C 	0.8428	0.5694	0.2127	0.186
Mof_C 	C 	0.7936	0.6996	0.2796	0.202
Mof_C 	C 	0.8123	0.7094	0.1961	0.07
Mof_C 	C 	0.956	0.7044	0.4226	-0.026
Mof_C 	C 	0.9513	0.7411	0.4206	0.125
Mof_C 	C 	0.887	0.5445	0.425	-0.121
Mof_C 	C 	0.8173	0.7522	0.0781	0.025
Mof_C 	C 	0.8484	0.7778	0.0728	-0.012
Mof_C 	C 	0.9202	0.5462	0.4211	0.167
Mof_C 	C 	0.9448	0.5527	0.3335	-0.445
Mof_H 	H 	0.9295	0.5518	0.2825	0.139
Mof_H 	H 	0.9631	0.534	0.3296	0.133
Mof_H 	H 	0.9564	0.5761	0.3369	0.149
Mof_C 	C 	0.9521	0.7621	0.3313	-0.448
Mof_H 	H 	0.9515	0.745	0.2837	0.146
Mof_H 	H 	0.9739	0.7764	0.3278	0.139
Mof_H 	H 	0.9313	0.7779	0.3276	0.153
Mof_K 	K 	0.7844	0.5744	0.0678	1.821
Mof_H 	H 	0.8213	0.5407	0.5582	0.083
Mof_H 	H 	0.8195	0.5273	0.4606	0.049
Mof_H 	H 	0.8251	0.5687	0.4812	0.085
Mof_H 	H 	0.7676	0.703	0.9406	0.014
Mof_H 	H 	0.753	0.717	0.0312	0.018
Mof_H 	H 	0.7838	0.6875	0.0282	0.038
Mof_Mn	Mn	0.6483	0.14613	0.2481	0.946
Mof_N 	N 	0.6823	0.0482	0.3404	-0.227
Mof_N 	N 	0.5434	0.1343	0.3385	-0.228
Mof_N 	N 	0.7385	0.1989	0.1607	-0.227
Mof_O 	O 	0.6422	0.0341	0.2009	-0.362
Mof_O 	O 	0.6352	0.0958	0.186	-0.306
Mof_O 	O 	0.6819	0.1062	0.3246	-0.274
Mof_O 	O 	0.5391	0.1722	0.1912	-0.622
Mof_O 	O 	0.6005	0.1696	0.184	-0.511
Mof_O 	O 	0.6069	0.1375	0.3363	-0.292
Mof_O 	O 	0.6881	0.1609	0.1666	-0.306
Mof_O 	O 	0.6671	0.1945	0.3118	-0.339
Mof_O 	O 	0.7154	0.2333	0.3019	-0.394
Mof_C 	C 	0.6452	0.0658	0.2252	0.209
Mof_C 	C 	0.6721	0.0748	0.3055	0.14
Mof_C 	C 	0.5736	0.1432	0.3053	0.082
Mof_C 	C 	0.5694	0.1572	0.2127	0.185
Mof_C 	C 	0.6996	0.2064	0.2796	0.202
Mof_C 	C 	0.7094	0.1877	0.1961	0.07
Mof_C 	C 	0.7044	0.044	0.4226	-0.028
Mof_C 	C 	0.7411	0.0487	0.4206	0.12
Mof_C 	C 	0.5445	0.113	0.425	-0.118
Mof_C 	C 	0.7522	0.1827	0.0781	0.025
Mof_C 	C 	0.7778	0.1516	0.0728	-0.013
Mof_C 	C 	0.5462	0.0798	0.4211	0.162
Mof_C 	C 	0.5527	0.0552	0.3335	-0.436
Mof_H 	H 	0.5518	0.0705	0.2825	0.136
Mof_H 	H 	0.534	0.0369	0.3296	0.126
Mof_H 	H 	0.5761	0.0436	0.3369	0.143
Mof_C 	C 	0.7621	0.0479	0.3313	-0.439
Mof_H 	H 	0.745	0.0485	0.2837	0.141
Mof_H 	H 	0.7764	0.0261	0.3278	0.131
Mof_H 	H 	0.7779	0.0687	0.3276	0.149
Mof_K 	K 	0.5744	0.2156	0.0678	1.821
Mof_H 	H 	0.5407	0.1787	0.5582	0.082
Mof_H 	H 	0.5273	0.1805	0.4606	0.049
Mof_H 	H 	0.5687	0.1749	0.4812	0.085
Mof_H 	H 	0.703	0.2324	0.9406	0.014
Mof_H 	H 	0.717	0.247	0.0312	0.018
Mof_H 	H 	0.6875	0.2162	0.0282	0.038
Mof_Mn	Mn	0.3517	0.85387	0.2481	0.946
Mof_N 	N 	0.3177	0.9518	0.3404	-0.225
Mof_N 	N 	0.4566	0.8657	0.3385	-0.227
Mof_N 	N 	0.2615	0.8011	0.1607	-0.227
Mof_O 	O 	0.3578	0.9659	0.2009	-0.354
Mof_O 	O 	0.3648	0.9042	0.186	-0.305
Mof_O 	O 	0.3181	0.8938	0.3246	-0.274
Mof_O 	O 	0.4609	0.8278	0.1912	-0.622
Mof_O 	O 	0.3995	0.8304	0.184	-0.511
Mof_O 	O 	0.3931	0.8625	0.3363	-0.292
Mof_O 	O 	0.3119	0.8391	0.1666	-0.305
Mof_O 	O 	0.3329	0.8055	0.3118	-0.339
Mof_O 	O 	0.2846	0.7667	0.3019	-0.394
Mof_C 	C 	0.3548	0.9342	0.2252	0.208
Mof_C 	C 	0.3279	0.9252	0.3055	0.141
Mof_C 	C 	0.4264	0.8568	0.3053	0.082
Mof_C 	C 	0.4306	0.8428	0.2127	0.186
Mof_C 	C 	0.3004	0.7936	0.2796	0.202
Mof_C 	C 	0.2906	0.8123	0.1961	0.07
Mof_C 	C 	0.2956	0.956	0.4226	-0.026
Mof_C 	C 	0.2589	0.9513	0.4206	0.124
Mof_C 	C 	0.4555	0.887	0.425	-0.121
Mof_C 	C 	0.2478	0.8173	0.0781	0.025
Mof_C 	C 	0.2222	0.8484	0.0728	-0.012
Mof_C 	C 	0.4538	0.9202	0.4211	0.167
Mof_C 	C 	0.4473	0.9448	0.3335	-0.445
Mof_H 	H 	0.4482	0.9295	0.2825	0.139
Mof_H 	H 	0.466	0.9631	0.3296	0.133
Mof_H 	H 	0.4239	0.9564	0.3369	0.149
Mof_C 	C 	0.2379	0.9521	0.3313	-0.446
Mof_H 	H 	0.255	0.9515	0.2837	0.145
Mof_H 	H 	0.2236	0.9739	0.3278	0.139
Mof_H 	H 	0.2221	0.9313	0.3276	0.152
Mof_K 	K 	0.4256	0.7844	0.0678	1.821
Mof_H 	H 	0.4593	0.8213	0.5582	0.083
Mof_H 	H 	0.4727	0.8195	0.4606	0.049
Mof_H 	H 	0.4313	0.8251	0.4812	0.085
Mof_H 	H 	0.297	0.7676	0.9406	0.014
Mof_H 	H 	0.283	0.753	0.0312	0.018
Mof_H 	H 	0.3125	0.7838	0.0282	0.038
Mof_Mn	Mn	0.85387	0.3517	0.7519	0.942
Mof_N 	N 	0.9518	0.3177	0.6596	-0.225
Mof_N 	N 	0.8657	0.4566	0.6615	-0.226
Mof_N 	N 	0.8011	0.2615	0.8393	-0.226
Mof_O 	O 	0.9659	0.3578	0.7991	-0.359
Mof_O 	O 	0.9042	0.3648	0.814	-0.308
Mof_O 	O 	0.8938	0.3181	0.6754	-0.274
Mof_O 	O 	0.8278	0.4609	0.8088	-0.538
Mof_O 	O 	0.8304	0.3995	0.816	-0.417
Mof_O 	O 	0.8625	0.3931	0.6637	-0.289
Mof_O 	O 	0.8391	0.3119	0.8334	-0.304
Mof_O 	O 	0.8055	0.3329	0.6882	-0.329
Mof_O 	O 	0.7667	0.2846	0.6981	-0.389
Mof_C 	C 	0.9342	0.3548	0.7748	0.208
Mof_C 	C 	0.9252	0.3279	0.6945	0.14
Mof_C 	C 	0.8568	0.4264	0.6947	0.083
Mof_C 	C 	0.8428	0.4306	0.7873	0.183
Mof_C 	C 	0.7936	0.3004	0.7204	0.204
Mof_C 	C 	0.8123	0.2906	0.8039	0.073
Mof_C 	C 	0.956	0.2956	0.5774	-0.026
Mof_C 	C 	0.9513	0.2589	0.5794	0.123
Mof_C 	C 	0.887	0.4555	0.575	-0.121
Mof_C 	C 	0.8173	0.2478	0.9219	0.014
Mof_C 	C 	0.8484	0.2222	0.9272	-0.03
Mof_C 	C 	0.9202	0.4538	0.5789	0.167
Mof_C 	C 	0.9448	0.4473	0.6665	-0.443
Mof_H 	H 	0.9295	0.4482	0.7175	0.137
Mof_H 	H 	0.9631	0.466	0.6704	0.131
Mof_H 	H 	0.9564	0.4239	0.6631	0.148
Mof_C 	C 	0.9521	0.2379	0.6687	-0.441
Mof_H 	H 	0.9515	0.255	0.7163	0.142
Mof_H 	H 	0.9739	0.2236	0.6722	0.136
Mof_H 	H 	0.9313	0.2221	0.6724	0.149
Mof_K 	K 	0.7844	0.4256	0.9322	0.782
Mof_H 	H 	0.8213	0.4593	0.4418	0.078
Mof_H 	H 	0.8195	0.4727	0.5394	0.049
Mof_H 	H 	0.8251	0.4313	0.5188	0.089
Mof_H 	H 	0.7676	0.297	0.0594	0
Mof_H 	H 	0.753	0.283	0.9688	-0.008
Mof_H 	H 	0.7838	0.3125	0.9718	0.013
Mof_Mn	Mn	0.14613	0.6483	0.7519	0.942
Mof_N 	N 	0.0482	0.6823	0.6596	-0.227
Mof_N 	N 	0.1343	0.5434	0.6615	-0.226
Mof_N 	N 	0.1989	0.7385	0.8393	-0.226
Mof_O 	O 	0.0341	0.6422	0.7991	-0.367
Mof_O 	O 	0.0958	0.6352	0.814	-0.31
Mof_O 	O 	0.1062	0.6819	0.6754	-0.274
Mof_O 	O 	0.1722	0.5391	0.8088	-0.538
Mof_O 	O 	0.1696	0.6005	0.816	-0.417
Mof_O 	O 	0.1375	0.6069	0.6637	-0.29
Mof_O 	O 	0.1609	0.6881	0.8334	-0.304
Mof_O 	O 	0.1945	0.6671	0.6882	-0.328
Mof_O 	O 	0.2333	0.7154	0.6981	-0.389
Mof_C 	C 	0.0658	0.6452	0.7748	0.208
Mof_C 	C 	0.0748	0.6721	0.6945	0.139
Mof_C 	C 	0.1432	0.5736	0.6947	0.083
Mof_C 	C 	0.1572	0.5694	0.7873	0.182
Mof_C 	C 	0.2064	0.6996	0.7204	0.204
Mof_C 	C 	0.1877	0.7094	0.8039	0.073
Mof_C 	C 	0.044	0.7044	0.5774	-0.027
Mof_C 	C 	0.0487	0.7411	0.5794	0.118
Mof_C 	C 	0.113	0.5445	0.575	-0.117
Mof_C 	C 	0.1827	0.7522	0.9219	0.014
Mof_C 	C 	0.1516	0.7778	0.9272	-0.031
Mof_C 	C 	0.0798	0.5462	0.5789	0.161
Mof_C 	C 	0.0552	0.5527	0.6665	-0.434
Mof_H 	H 	0.0705	0.5518	0.7175	0.134
Mof_H 	H 	0.0369	0.534	0.6704	0.125
Mof_H 	H 	0.0436	0.5761	0.6631	0.142
Mof_C 	C 	0.0479	0.7621	0.6687	-0.434
Mof_H 	H 	0.0485	0.745	0.7163	0.137
Mof_H 	H 	0.0261	0.7764	0.6722	0.128
Mof_H 	H 	0.0687	0.7779	0.6724	0.146
Mof_K 	K 	0.2156	0.5744	0.9322	0.782
Mof_H 	H 	0.1787	0.5407	0.4418	0.078
Mof_H 	H 	0.1805	0.5273	0.5394	0.049
Mof_H 	H 	0.1749	0.5687	0.5188	0.088
Mof_H 	H 	0.2324	0.703	0.0594	0
Mof_H 	H 	0.247	0.717	0.9688	-0.008
Mof_H 	H 	0.2162	0.6875	0.9718	0.013
Mof_Mn	Mn	0.3517	0.14613	0.7519	0.942
Mof_N 	N 	0.3177	0.0482	0.6596	-0.227
Mof_N 	N 	0.4566	0.1343	0.6615	-0.226
Mof_N 	N 	0.2615	0.1989	0.8393	-0.226
Mof_O 	O 	0.3578	0.0341	0.7991	-0.367
Mof_O 	O 	0.3648	0.0958	0.814	-0.31
Mof_O 	O 	0.3181	0.1062	0.6754	-0.274
Mof_O 	O 	0.4609	0.1722	0.8088	-0.538
Mof_O 	O 	0.3995	0.1696	0.816	-0.417
Mof_O 	O 	0.3931	0.1375	0.6637	-0.29
Mof_O 	O 	0.3119	0.1609	0.8334	-0.304
Mof_O 	O 	0.3329	0.1945	0.6882	-0.328
Mof_O 	O 	0.2846	0.2333	0.6981	-0.389
Mof_C 	C 	0.3548	0.0658	0.7748	0.208
Mof_C 	C 	0.3279	0.0748	0.6945	0.139
Mof_C 	C 	0.4264	0.1432	0.6947	0.083
Mof_C 	C 	0.4306	0.1572	0.7873	0.182
Mof_C 	C 	0.3004	0.2064	0.7204	0.204
Mof_C 	C 	0.2906	0.1877	0.8039	0.073
Mof_C 	C 	0.2956	0.044	0.5774	-0.027
Mof_C 	C 	0.2589	0.0487	0.5794	0.118
Mof_C 	C 	0.4555	0.113	0.575	-0.117
Mof_C 	C 	0.2478	0.1827	0.9219	0.014
Mof_C 	C 	0.2222	0.1516	0.9272	-0.031
Mof_C 	C 	0.4538	0.0798	0.5789	0.161
Mof_C 	C 	0.4473	0.0552	0.6665	-0.434
Mof_H 	H 	0.4482	0.0705	0.7175	0.134
Mof_H 	H 	0.466	0.0369	0.6704	0.125
Mof_H 	H 	0.4239	0.0436	0.6631	0.142
Mof_C 	C 	0.2379	0.0479	0.6687	-0.433
Mof_H 	H 	0.255	0.0485	0.7163	0.136
Mof_H 	H 	0.2236	0.0261	0.6722	0.127
Mof_H 	H 	0.2221	0.0687	0.6724	0.145
Mof_K 	K 	0.4256	0.2156	0.9322	0.782
Mof_H 	H 	0.4593	0.1787	0.4418	0.078
Mof_H 	H 	0.4727	0.1805	0.5394	0.049
Mof_H 	H 	0.4313	0.1749	0.5188	0.088
Mof_H 	H 	0.297	0.2324	0.0594	0
Mof_H 	H 	0.283	0.247	0.9688	-0.008
Mof_H 	H 	0.3125	0.2162	0.9718	0.013
Mof_Mn	Mn	0.6483	0.85387	0.7519	0.942
Mof_N 	N 	0.6823	0.9518	0.6596	-0.225
Mof_N 	N 	0.5434	0.8657	0.6615	-0.226
Mof_N 	N 	0.7385	0.8011	0.8393	-0.226
Mof_O 	O 	0.6422	0.9659	0.7991	-0.359
Mof_O 	O 	0.6352	0.9042	0.814	-0.308
Mof_O 	O 	0.6819	0.8938	0.6754	-0.274
Mof_O 	O 	0.5391	0.8278	0.8088	-0.538
Mof_O 	O 	0.6005	0.8304	0.816	-0.417
Mof_O 	O 	0.6069	0.8625	0.6637	-0.289
Mof_O 	O 	0.6881	0.8391	0.8334	-0.304
Mof_O 	O 	0.6671	0.8055	0.6882	-0.329
Mof_O 	O 	0.7154	0.7667	0.6981	-0.389
Mof_C 	C 	0.6452	0.9342	0.7748	0.208
Mof_C 	C 	0.6721	0.9252	0.6945	0.14
Mof_C 	C 	0.5736	0.8568	0.6947	0.083
Mof_C 	C 	0.5694	0.8428	0.7873	0.183
Mof_C 	C 	0.6996	0.7936	0.7204	0.204
Mof_C 	C 	0.7094	0.8123	0.8039	0.073
Mof_C 	C 	0.7044	0.956	0.5774	-0.026
Mof_C 	C 	0.7411	0.9513	0.5794	0.123
Mof_C 	C 	0.5445	0.887	0.575	-0.121
Mof_C 	C 	0.7522	0.8173	0.9219	0.014
Mof_C 	C 	0.7778	0.8484	0.9272	-0.029
Mof_C 	C 	0.5462	0.9202	0.5789	0.167
Mof_C 	C 	0.5527	0.9448	0.6665	-0.443
Mof_H 	H 	0.5518	0.9295	0.7175	0.137
Mof_H 	H 	0.534	0.9631	0.6704	0.131
Mof_H 	H 	0.5761	0.9564	0.6631	0.148
Mof_C 	C 	0.7621	0.9521	0.6687	-0.443
Mof_H 	H 	0.745	0.9515	0.7163	0.142
Mof_H 	H 	0.7764	0.9739	0.6722	0.136
Mof_H 	H 	0.7779	0.9313	0.6724	0.15
Mof_K 	K 	0.5744	0.7844	0.9322	0.782
Mof_H 	H 	0.5407	0.8213	0.4418	0.078
Mof_H 	H 	0.5273	0.8195	0.5394	0.049
Mof_H 	H 	0.5687	0.8251	0.5188	0.089
Mof_H 	H 	0.703	0.7676	0.0594	0
Mof_H 	H 	0.717	0.753	0.9688	-0.008
Mof_H 	H 	0.6875	0.7838	0.9718	0.013
Mof_Mn	Mn	0.85387	0.6483	0.7519	0.942
Mof_N 	N 	0.9518	0.6823	0.6596	-0.225
Mof_N 	N 	0.8657	0.5434	0.6615	-0.226
Mof_N 	N 	0.8011	0.7385	0.8393	-0.226
Mof_O 	O 	0.9659	0.6422	0.7991	-0.359
Mof_O 	O 	0.9042	0.6352	0.814	-0.308
Mof_O 	O 	0.8938	0.6819	0.6754	-0.274
Mof_O 	O 	0.8278	0.5391	0.8088	-0.538
Mof_O 	O 	0.8304	0.6005	0.816	-0.417
Mof_O 	O 	0.8625	0.6069	0.6637	-0.289
Mof_O 	O 	0.8391	0.6881	0.8334	-0.304
Mof_O 	O 	0.8055	0.6671	0.6882	-0.329
Mof_O 	O 	0.7667	0.7154	0.6981	-0.389
Mof_C 	C 	0.9342	0.6452	0.7748	0.208
Mof_C 	C 	0.9252	0.6721	0.6945	0.14
Mof_C 	C 	0.8568	0.5736	0.6947	0.083
Mof_C 	C 	0.8428	0.5694	0.7873	0.183
Mof_C 	C 	0.7936	0.6996	0.7204	0.204
Mof_C 	C 	0.8123	0.7094	0.8039	0.073
Mof_C 	C 	0.956	0.7044	0.5774	-0.026
Mof_C 	C 	0.9513	0.7411	0.5794	0.123
Mof_C 	C 	0.887	0.5445	0.575	-0.121
Mof_C 	C 	0.8173	0.7522	0.9219	0.014
Mof_C 	C 	0.8484	0.7778	0.9272	-0.029
Mof_C 	C 	0.9202	0.5462	0.5789	0.167
Mof_C 	C 	0.9448	0.5527	0.6665	-0.443
Mof_H 	H 	0.9295	0.5518	0.7175	0.137
Mof_H 	H 	0.9631	0.534	0.6704	0.131
Mof_H 	H 	0.9564	0.5761	0.6631	0.148
Mof_C 	C 	0.9521	0.7621	0.6687	-0.443
Mof_H 	H 	0.9515	0.745	0.7163	0.142
Mof_H 	H 	0.9739	0.7764	0.6722	0.136
Mof_H 	H 	0.9313	0.7779	0.6724	0.15
Mof_K 	K 	0.7844	0.5744	0.9322	0.782
Mof_H 	H 	0.8213	0.5407	0.4418	0.078
Mof_H 	H 	0.8195	0.5273	0.5394	0.049
Mof_H 	H 	0.8251	0.5687	0.5188	0.089
Mof_H 	H 	0.7676	0.703	0.0594	0
Mof_H 	H 	0.753	0.717	0.9688	-0.008
Mof_H 	H 	0.7838	0.6875	0.9718	0.013
Mof_Mn	Mn	0.14613	0.3517	0.7519	0.942
Mof_N 	N 	0.0482	0.3177	0.6596	-0.227
Mof_N 	N 	0.1343	0.4566	0.6615	-0.226
Mof_N 	N 	0.1989	0.2615	0.8393	-0.226
Mof_O 	O 	0.0341	0.3578	0.7991	-0.367
Mof_O 	O 	0.0958	0.3648	0.814	-0.31
Mof_O 	O 	0.1062	0.3181	0.6754	-0.274
Mof_O 	O 	0.1722	0.4609	0.8088	-0.538
Mof_O 	O 	0.1696	0.3995	0.816	-0.417
Mof_O 	O 	0.1375	0.3931	0.6637	-0.29
Mof_O 	O 	0.1609	0.3119	0.8334	-0.304
Mof_O 	O 	0.1945	0.3329	0.6882	-0.328
Mof_O 	O 	0.2333	0.2846	0.6981	-0.389
Mof_C 	C 	0.0658	0.3548	0.7748	0.208
Mof_C 	C 	0.0748	0.3279	0.6945	0.139
Mof_C 	C 	0.1432	0.4264	0.6947	0.083
Mof_C 	C 	0.1572	0.4306	0.7873	0.182
Mof_C 	C 	0.2064	0.3004	0.7204	0.204
Mof_C 	C 	0.1877	0.2906	0.8039	0.073
Mof_C 	C 	0.044	0.2956	0.5774	-0.027
Mof_C 	C 	0.0487	0.2589	0.5794	0.118
Mof_C 	C 	0.113	0.4555	0.575	-0.117
Mof_C 	C 	0.1827	0.2478	0.9219	0.014
Mof_C 	C 	0.1516	0.2222	0.9272	-0.031
Mof_C 	C 	0.0798	0.4538	0.5789	0.161
Mof_C 	C 	0.0552	0.4473	0.6665	-0.434
Mof_H 	H 	0.0705	0.4482	0.7175	0.134
Mof_H 	H 	0.0369	0.466	0.6704	0.125
Mof_H 	H 	0.0436	0.4239	0.6631	0.142
Mof_C 	C 	0.0479	0.2379	0.6687	-0.433
Mof_H 	H 	0.0485	0.255	0.7163	0.136
Mof_H 	H 	0.0261	0.2236	0.6722	0.127
Mof_H 	H 	0.0687	0.2221	0.6724	0.145
Mof_K 	K 	0.2156	0.4256	0.9322	0.782
Mof_H 	H 	0.1787	0.4593	0.4418	0.078
Mof_H 	H 	0.1805	0.4727	0.5394	0.049
Mof_H 	H 	0.1749	0.4313	0.5188	0.088
Mof_H 	H 	0.2324	0.297	0.0594	0
Mof_H 	H 	0.247	0.283	0.9688	-0.008
Mof_H 	H 	0.2162	0.3125	0.9718	0.013
Mof_Mn	Mn	0.3517	0.85387	0.7519	0.942
Mof_N 	N 	0.3177	0.9518	0.6596	-0.225
Mof_N 	N 	0.4566	0.8657	0.6615	-0.226
Mof_N 	N 	0.2615	0.8011	0.8393	-0.226
Mof_O 	O 	0.3578	0.9659	0.7991	-0.359
Mof_O 	O 	0.3648	0.9042	0.814	-0.308
Mof_O 	O 	0.3181	0.8938	0.6754	-0.274
Mof_O 	O 	0.4609	0.8278	0.8088	-0.538
Mof_O 	O 	0.3995	0.8304	0.816	-0.417
Mof_O 	O 	0.3931	0.8625	0.6637	-0.289
Mof_O 	O 	0.3119	0.8391	0.8334	-0.304
Mof_O 	O 	0.3329	0.8055	0.6882	-0.329
Mof_O 	O 	0.2846	0.7667	0.6981	-0.389
Mof_C 	C 	0.3548	0.9342	0.7748	0.208
Mof_C 	C 	0.3279	0.9252	0.6945	0.14
Mof_C 	C 	0.4264	0.8568	0.6947	0.083
Mof_C 	C 	0.4306	0.8428	0.7873	0.183
Mof_C 	C 	0.3004	0.7936	0.7204	0.204
Mof_C 	C 	0.2906	0.8123	0.8039	0.073
Mof_C 	C 	0.2956	0.956	0.5774	-0.026
Mof_C 	C 	0.2589	0.9513	0.5794	0.123
Mof_C 	C 	0.4555	0.887	0.575	-0.121
Mof_C 	C 	0.2478	0.8173	0.9219	0.014
Mof_C 	C 	0.2222	0.8484	0.9272	-0.03
Mof_C 	C 	0.4538	0.9202	0.5789	0.167
Mof_C 	C 	0.4473	0.9448	0.6665	-0.443
Mof_H 	H 	0.4482	0.9295	0.7175	0.137
Mof_H 	H 	0.466	0.9631	0.6704	0.131
Mof_H 	H 	0.4239	0.9564	0.6631	0.148
Mof_C 	C 	0.2379	0.9521	0.6687	-0.441
Mof_H 	H 	0.255	0.9515	0.7163	0.142
Mof_H 	H 	0.2236	0.9739	0.6722	0.136
Mof_H 	H 	0.2221	0.9313	0.6724	0.149
Mof_K 	K 	0.4256	0.7844	0.9322	0.782
Mof_H 	H 	0.4593	0.8213	0.4418	0.078
Mof_H 	H 	0.4727	0.8195	0.5394	0.049
Mof_H 	H 	0.4313	0.8251	0.5188	0.089
Mof_H 	H 	0.297	0.7676	0.0594	0
Mof_H 	H 	0.283	0.753	0.9688	-0.008
Mof_H 	H 	0.3125	0.7838	0.9718	0.013
Mof_Mn	Mn	0.6483	0.14613	0.7519	0.942
Mof_N 	N 	0.6823	0.0482	0.6596	-0.227
Mof_N 	N 	0.5434	0.1343	0.6615	-0.226
Mof_N 	N 	0.7385	0.1989	0.8393	-0.226
Mof_O 	O 	0.6422	0.0341	0.7991	-0.367
Mof_O 	O 	0.6352	0.0958	0.814	-0.31
Mof_O 	O 	0.6819	0.1062	0.6754	-0.274
Mof_O 	O 	0.5391	0.1722	0.8088	-0.538
Mof_O 	O 	0.6005	0.1696	0.816	-0.417
Mof_O 	O 	0.6069	0.1375	0.6637	-0.29
Mof_O 	O 	0.6881	0.1609	0.8334	-0.304
Mof_O 	O 	0.6671	0.1945	0.6882	-0.328
Mof_O 	O 	0.7154	0.2333	0.6981	-0.389
Mof_C 	C 	0.6452	0.0658	0.7748	0.208
Mof_C 	C 	0.6721	0.0748	0.6945	0.139
Mof_C 	C 	0.5736	0.1432	0.6947	0.083
Mof_C 	C 	0.5694	0.1572	0.7873	0.182
Mof_C 	C 	0.6996	0.2064	0.7204	0.204
Mof_C 	C 	0.7094	0.1877	0.8039	0.073
Mof_C 	C 	0.7044	0.044	0.5774	-0.027
Mof_C 	C 	0.7411	0.0487	0.5794	0.118
Mof_C 	C 	0.5445	0.113	0.575	-0.117
Mof_C 	C 	0.7522	0.1827	0.9219	0.014
Mof_C 	C 	0.7778	0.1516	0.9272	-0.031
Mof_C 	C 	0.5462	0.0798	0.5789	0.161
Mof_C 	C 	0.5527	0.0552	0.6665	-0.434
Mof_H 	H 	0.5518	0.0705	0.7175	0.134
Mof_H 	H 	0.534	0.0369	0.6704	0.125
Mof_H 	H 	0.5761	0.0436	0.6631	0.142
Mof_C 	C 	0.7621	0.0479	0.6687	-0.434
Mof_H 	H 	0.745	0.0485	0.7163	0.137
Mof_H 	H 	0.7764	0.0261	0.6722	0.128
Mof_H 	H 	0.7779	0.0687	0.6724	0.146
Mof_K 	K 	0.5744	0.2156	0.9322	0.782
Mof_H 	H 	0.5407	0.1787	0.4418	0.078
Mof_H 	H 	0.5273	0.1805	0.5394	0.049
Mof_H 	H 	0.5687	0.1749	0.5188	0.088
Mof_H 	H 	0.703	0.2324	0.0594	0
Mof_H 	H 	0.717	0.247	0.9688	-0.008
Mof_H 	H 	0.6875	0.2162	0.9718	0.013
Mof_Mn	Mn	0.14613	0.6483	0.2481	0.946
Mof_N 	N 	0.0482	0.6823	0.3404	-0.227
Mof_N 	N 	0.1343	0.5434	0.3385	-0.228
Mof_N 	N 	0.1989	0.7385	0.1607	-0.227
Mof_O 	O 	0.0341	0.6422	0.2009	-0.362
Mof_O 	O 	0.0958	0.6352	0.186	-0.306
Mof_O 	O 	0.1062	0.6819	0.3246	-0.274
Mof_O 	O 	0.1722	0.5391	0.1912	-0.622
Mof_O 	O 	0.1696	0.6005	0.184	-0.511
Mof_O 	O 	0.1375	0.6069	0.3363	-0.292
Mof_O 	O 	0.1609	0.6881	0.1666	-0.306
Mof_O 	O 	0.1945	0.6671	0.3118	-0.339
Mof_O 	O 	0.2333	0.7154	0.3019	-0.394
Mof_C 	C 	0.0658	0.6452	0.2252	0.209
Mof_C 	C 	0.0748	0.6721	0.3055	0.14
Mof_C 	C 	0.1432	0.5736	0.3053	0.082
Mof_C 	C 	0.1572	0.5694	0.2127	0.185
Mof_C 	C 	0.2064	0.6996	0.2796	0.202
Mof_C 	C 	0.1877	0.7094	0.1961	0.07
Mof_C 	C 	0.044	0.7044	0.4226	-0.028
Mof_C 	C 	0.0487	0.7411	0.4206	0.12
Mof_C 	C 	0.113	0.5445	0.425	-0.118
Mof_C 	C 	0.1827	0.7522	0.0781	0.025
Mof_C 	C 	0.1516	0.7778	0.0728	-0.013
Mof_C 	C 	0.0798	0.5462	0.4211	0.162
Mof_C 	C 	0.0552	0.5527	0.3335	-0.436
Mof_H 	H 	0.0705	0.5518	0.2825	0.136
Mof_H 	H 	0.0369	0.534	0.3296	0.126
Mof_H 	H 	0.0436	0.5761	0.3369	0.143
Mof_C 	C 	0.0479	0.7621	0.3313	-0.439
Mof_H 	H 	0.0485	0.745	0.2837	0.141
Mof_H 	H 	0.0261	0.7764	0.3278	0.131
Mof_H 	H 	0.0687	0.7779	0.3276	0.149
Mof_K 	K 	0.2156	0.5744	0.0678	1.821
Mof_H 	H 	0.1787	0.5407	0.5582	0.082
Mof_H 	H 	0.1805	0.5273	0.4606	0.049
Mof_H 	H 	0.1749	0.5687	0.4812	0.085
Mof_H 	H 	0.2324	0.703	0.9406	0.014
Mof_H 	H 	0.247	0.717	0.0312	0.018
Mof_H 	H 	0.2162	0.6875	0.0282	0.038
Mof_Mn	Mn	0.85387	0.3517	0.2481	0.946
Mof_N 	N 	0.9518	0.3177	0.3404	-0.225
Mof_N 	N 	0.8657	0.4566	0.3385	-0.227
Mof_N 	N 	0.8011	0.2615	0.1607	-0.227
Mof_O 	O 	0.9659	0.3578	0.2009	-0.354
Mof_O 	O 	0.9042	0.3648	0.186	-0.305
Mof_O 	O 	0.8938	0.3181	0.3246	-0.274
Mof_O 	O 	0.8278	0.4609	0.1912	-0.622
Mof_O 	O 	0.8304	0.3995	0.184	-0.511
Mof_O 	O 	0.8625	0.3931	0.3363	-0.292
Mof_O 	O 	0.8391	0.3119	0.1666	-0.305
Mof_O 	O 	0.8055	0.3329	0.3118	-0.339
Mof_O 	O 	0.7667	0.2846	0.3019	-0.394
Mof_C 	C 	0.9342	0.3548	0.2252	0.208
Mof_C 	C 	0.9252	0.3279	0.3055	0.141
Mof_C 	C 	0.8568	0.4264	0.3053	0.082
Mof_C 	C 	0.8428	0.4306	0.2127	0.186
Mof_C 	C 	0.7936	0.3004	0.2796	0.202
Mof_C 	C 	0.8123	0.2906	0.1961	0.07
Mof_C 	C 	0.956	0.2956	0.4226	-0.026
Mof_C 	C 	0.9513	0.2589	0.4206	0.124
Mof_C 	C 	0.887	0.4555	0.425	-0.121
Mof_C 	C 	0.8173	0.2478	0.0781	0.025
Mof_C 	C 	0.8484	0.2222	0.0728	-0.012
Mof_C 	C 	0.9202	0.4538	0.4211	0.167
Mof_C 	C 	0.9448	0.4473	0.3335	-0.445
Mof_H 	H 	0.9295	0.4482	0.2825	0.139
Mof_H 	H 	0.9631	0.466	0.3296	0.133
Mof_H 	H 	0.9564	0.4239	0.3369	0.149
Mof_C 	C 	0.9521	0.2379	0.3313	-0.446
Mof_H 	H 	0.9515	0.255	0.2837	0.145
Mof_H 	H 	0.9739	0.2236	0.3278	0.139
Mof_H 	H 	0.9313	0.2221	0.3276	0.152
Mof_K 	K 	0.7844	0.4256	0.0678	1.821
Mof_H 	H 	0.8213	0.4593	0.5582	0.083
Mof_H 	H 	0.8195	0.4727	0.4606	0.049
Mof_H 	H 	0.8251	0.4313	0.4812	0.085
Mof_H 	H 	0.7676	0.297	0.9406	0.014
Mof_H 	H 	0.753	0.283	0.0312	0.018
Mof_H 	H 	0.7838	0.3125	0.0282	0.038
Mof_Mn	Mn	0.6483	0.85387	0.2481	0.946
Mof_N 	N 	0.6823	0.9518	0.3404	-0.225
Mof_N 	N 	0.5434	0.8657	0.3385	-0.227
Mof_N 	N 	0.7385	0.8011	0.1607	-0.227
Mof_O 	O 	0.6422	0.9659	0.2009	-0.354
Mof_O 	O 	0.6352	0.9042	0.186	-0.305
Mof_O 	O 	0.6819	0.8938	0.3246	-0.274
Mof_O 	O 	0.5391	0.8278	0.1912	-0.622
Mof_O 	O 	0.6005	0.8304	0.184	-0.511
Mof_O 	O 	0.6069	0.8625	0.3363	-0.292
Mof_O 	O 	0.6881	0.8391	0.1666	-0.305
Mof_O 	O 	0.6671	0.8055	0.3118	-0.339
Mof_O 	O 	0.7154	0.7667	0.3019	-0.394
Mof_C 	C 	0.6452	0.9342	0.2252	0.208
Mof_C 	C 	0.6721	0.9252	0.3055	0.141
Mof_C 	C 	0.5736	0.8568	0.3053	0.082
Mof_C 	C 	0.5694	0.8428	0.2127	0.186
Mof_C 	C 	0.6996	0.7936	0.2796	0.202
Mof_C 	C 	0.7094	0.8123	0.1961	0.07
Mof_C 	C 	0.7044	0.956	0.4226	-0.026
Mof_C 	C 	0.7411	0.9513	0.4206	0.125
Mof_C 	C 	0.5445	0.887	0.425	-0.121
Mof_C 	C 	0.7522	0.8173	0.0781	0.025
Mof_C 	C 	0.7778	0.8484	0.0728	-0.012
Mof_C 	C 	0.5462	0.9202	0.4211	0.167
Mof_C 	C 	0.5527	0.9448	0.3335	-0.445
Mof_H 	H 	0.5518	0.9295	0.2825	0.139
Mof_H 	H 	0.534	0.9631	0.3296	0.133
Mof_H 	H 	0.5761	0.9564	0.3369	0.149
Mof_C 	C 	0.7621	0.9521	0.3313	-0.448
Mof_H 	H 	0.745	0.9515	0.2837	0.146
Mof_H 	H 	0.7764	0.9739	0.3278	0.139
Mof_H 	H 	0.7779	0.9313	0.3276	0.153
Mof_K 	K 	0.5744	0.7844	0.0678	1.821
Mof_H 	H 	0.5407	0.8213	0.5582	0.083
Mof_H 	H 	0.5273	0.8195	0.4606	0.049
Mof_H 	H 	0.5687	0.8251	0.4812	0.085
Mof_H 	H 	0.703	0.7676	0.9406	0.014
Mof_H 	H 	0.717	0.753	0.0312	0.018
Mof_H 	H 	0.6875	0.7838	0.0282	0.038
Mof_Mn	Mn	0.3517	0.14613	0.2481	0.946
Mof_N 	N 	0.3177	0.0482	0.3404	-0.227
Mof_N 	N 	0.4566	0.1343	0.3385	-0.228
Mof_N 	N 	0.2615	0.1989	0.1607	-0.227
Mof_O 	O 	0.3578	0.0341	0.2009	-0.362
Mof_O 	O 	0.3648	0.0958	0.186	-0.306
Mof_O 	O 	0.3181	0.1062	0.3246	-0.274
Mof_O 	O 	0.4609	0.1722	0.1912	-0.622
Mof_O 	O 	0.3995	0.1696	0.184	-0.511
Mof_O 	O 	0.3931	0.1375	0.3363	-0.292
Mof_O 	O 	0.3119	0.1609	0.1666	-0.306
Mof_O 	O 	0.3329	0.1945	0.3118	-0.339
Mof_O 	O 	0.2846	0.2333	0.3019	-0.394
Mof_C 	C 	0.3548	0.0658	0.2252	0.209
Mof_C 	C 	0.3279	0.0748	0.3055	0.14
Mof_C 	C 	0.4264	0.1432	0.3053	0.082
Mof_C 	C 	0.4306	0.1572	0.2127	0.185
Mof_C 	C 	0.3004	0.2064	0.2796	0.202
Mof_C 	C 	0.2906	0.1877	0.1961	0.07
Mof_C 	C 	0.2956	0.044	0.4226	-0.027
Mof_C 	C 	0.2589	0.0487	0.4206	0.119
Mof_C 	C 	0.4555	0.113	0.425	-0.118
Mof_C 	C 	0.2478	0.1827	0.0781	0.026
Mof_C 	C 	0.2222	0.1516	0.0728	-0.014
Mof_C 	C 	0.4538	0.0798	0.4211	0.162
Mof_C 	C 	0.4473	0.0552	0.3335	-0.436
Mof_H 	H 	0.4482	0.0705	0.2825	0.136
Mof_H 	H 	0.466	0.0369	0.3296	0.126
Mof_H 	H 	0.4239	0.0436	0.3369	0.143
Mof_C 	C 	0.2379	0.0479	0.3313	-0.438
Mof_H 	H 	0.255	0.0485	0.2837	0.14
Mof_H 	H 	0.2236	0.0261	0.3278	0.13
Mof_H 	H 	0.2221	0.0687	0.3276	0.148
Mof_K 	K 	0.4256	0.2156	0.0678	1.821
Mof_H 	H 	0.4593	0.1787	0.5582	0.082
Mof_H 	H 	0.4727	0.1805	0.4606	0.049
Mof_H 	H 	0.4313	0.1749	0.4812	0.085
Mof_H 	H 	0.297	0.2324	0.9406	0.014
Mof_H 	H 	0.283	0.247	0.0312	0.018
Mof_H 	H 	0.3125	0.2162	0.0282	0.038
Mof_Cu	Cu	-5.34555e-33	0.33268	0.27403	0.862
Mof_Cu	Cu	6.19821e-33	0.66732	0.27403	0.862
Mof_Cu	Cu	0.66732	-2.30875e-33	0.27403	0.862
Mof_Cu	Cu	0.33268	-2.30875e-33	0.27403	0.862
Mof_Cu	Cu	-5.79681e-33	0.33268	0.72597	0.861
Mof_Cu	Cu	-8.10556e-33	0.66732	0.72597	0.861
Mof_Cu	Cu	0.33268	-4.6175e-33	0.72597	0.861
Mof_Cu	Cu	0.66732	-4.6175e-33	0.72597	0.861
Mof_Cu	Cu	0.14659	0.5	0.26827	0.832
Mof_Cu	Cu	0.85341	0.5	0.26827	0.832
Mof_Cu	Cu	0.5	0.14659	0.26827	0.832
Mof_Cu	Cu	0.5	0.85341	0.26827	0.832
Mof_Cu	Cu	0.85341	0.5	0.73173	0.834
Mof_Cu	Cu	0.14659	0.5	0.73173	0.834
Mof_Cu	Cu	0.5	0.14659	0.73173	0.834
Mof_Cu	Cu	0.5	0.85341	0.73173	0.834
Mof_Cu	Cu	0.24088	0.24088	0.23048	0.86
Mof_Cu	Cu	0.75912	0.75912	0.23048	0.86
Mof_Cu	Cu	0.75912	0.24088	0.23048	0.86
Mof_Cu	Cu	0.24088	0.75912	0.23048	0.86
Mof_Cu	Cu	0.75912	0.24088	0.76952	0.86
Mof_Cu	Cu	0.24088	0.75912	0.76952	0.86
Mof_Cu	Cu	0.24088	0.24088	0.76952	0.86
Mof_Cu	Cu	0.75912	0.75912	0.76952	0.86
Mof_C 	C 	0.0461	0.3144	0.5	-0.003
Mof_C 	C 	0.0479	0.237	0.5	-0.174
Mof_H 	H 	0.0469	0.2117	0.5	0.079
Mof_C 	C 	0.1305	0.4608	0.5	0.188
Mof_C 	C 	0.1694	0.4556	0.5	-0.518
Mof_C 	C 	0.0597	0.4528	0.5	-0.214
Mof_H 	H 	0.0344	0.4516	0.5	0.087
Mof_C 	C 	0.9539	0.6856	0.5	0.001
Mof_C 	C 	0.9521	0.763	0.5	-0.175
Mof_H 	H 	0.9531	0.7883	0.5	0.083
Mof_C 	C 	0.8695	0.5392	0.5	0.191
Mof_C 	C 	0.8306	0.5444	0.5	-0.522
Mof_C 	C 	0.9403	0.5472	0.5	-0.219
Mof_H 	H 	0.9656	0.5484	0.5	0.093
Mof_C 	C 	0.6856	0.0461	0.5	-0.003
Mof_C 	C 	0.763	0.0479	0.5	-0.175
Mof_H 	H 	0.7883	0.0469	0.5	0.079
Mof_C 	C 	0.5392	0.1305	0.5	0.188
Mof_C 	C 	0.5444	0.1694	0.5	-0.518
Mof_C 	C 	0.5472	0.0597	0.5	-0.214
Mof_H 	H 	0.5484	0.0344	0.5	0.087
Mof_C 	C 	0.3144	0.9539	0.5	0.001
Mof_C 	C 	0.237	0.9521	0.5	-0.175
Mof_H 	H 	0.2117	0.9531	0.5	0.082
Mof_C 	C 	0.4608	0.8695	0.5	0.191
Mof_C 	C 	0.4556	0.8306	0.5	-0.522
Mof_C 	C 	0.4528	0.9403	0.5	-0.219
Mof_H 	H 	0.4516	0.9656	0.5	0.093
Mof_C 	C 	0.9539	0.3144	0.5	0.001
Mof_C 	C 	0.9521	0.237	0.5	-0.175
Mof_H 	H 	0.9531	0.2117	0.5	0.082
Mof_C 	C 	0.8695	0.4608	0.5	0.191
Mof_C 	C 	0.8306	0.4556	0.5	-0.522
Mof_C 	C 	0.9403	0.4528	0.5	-0.219
Mof_H 	H 	0.9656	0.4516	0.5	0.093
Mof_C 	C 	0.0461	0.6856	0.5	-0.003
Mof_C 	C 	0.0479	0.763	0.5	-0.175
Mof_H 	H 	0.0469	0.7883	0.5	0.079
Mof_C 	C 	0.1305	0.5392	0.5	0.188
Mof_C 	C 	0.1694	0.5444	0.5	-0.518
Mof_C 	C 	0.0597	0.5472	0.5	-0.214
Mof_H 	H 	0.0344	0.5484	0.5	0.087
Mof_C 	C 	0.3144	0.0461	0.5	-0.003
Mof_C 	C 	0.237	0.0479	0.5	-0.174
Mof_H 	H 	0.2117	0.0469	0.5	0.079
Mof_C 	C 	0.4608	0.1305	0.5	0.188
Mof_C 	C 	0.4556	0.1694	0.5	-0.518
Mof_C 	C 	0.4528	0.0597	0.5	-0.214
Mof_H 	H 	0.4516	0.0344	0.5	0.087
Mof_C 	C 	0.6856	0.9539	0.5	0.001
Mof_C 	C 	0.763	0.9521	0.5	-0.175
Mof_H 	H 	0.7883	0.9531	0.5	0.083
Mof_C 	C 	0.5392	0.8695	0.5	0.191
Mof_C 	C 	0.5444	0.8306	0.5	-0.522
Mof_C 	C 	0.5472	0.9403	0.5	-0.219
Mof_H 	H 	0.5484	0.9656	0.5	0.093
Mof_C 	C 	0.1959	0.2601	-0	0.021
Mof_C 	C 	0.2258	0.2912	-0	-0.183
Mof_C 	C 	0.1391	0.205	-0	-0.042
Mof_H 	H 	0.1243	0.1845	-0	0.04
Mof_O 	O 	0.19	0.3897	-0	-0.831
Mof_C 	C 	0.8041	0.7399	-0	0.021
Mof_C 	C 	0.7742	0.7088	-0	-0.183
Mof_C 	C 	0.8609	0.795	-0	-0.043
Mof_H 	H 	0.8757	0.8155	-0	0.043
Mof_O 	O 	0.81	0.6103	-0	-0.831
Mof_C 	C 	0.7399	0.1959	-0	0.021
Mof_C 	C 	0.7088	0.2258	-0	-0.183
Mof_C 	C 	0.795	0.1391	-0	-0.043
Mof_H 	H 	0.8155	0.1243	-0	0.041
Mof_O 	O 	0.6103	0.19	-0	-0.831
Mof_C 	C 	0.2601	0.8041	-0	0.021
Mof_C 	C 	0.2912	0.7742	-0	-0.183
Mof_C 	C 	0.205	0.8609	-0	-0.043
Mof_H 	H 	0.1845	0.8757	-0	0.042
Mof_O 	O 	0.3897	0.81	-0	-0.831
Mof_C 	C 	0.8041	0.2601	-0	0.021
Mof_C 	C 	0.7742	0.2912	-0	-0.183
Mof_C 	C 	0.8609	0.205	-0	-0.043
Mof_H 	H 	0.8757	0.1845	-0	0.042
Mof_O 	O 	0.81	0.3897	-0	-0.831
Mof_C 	C 	0.1959	0.7399	-0	0.021
Mof_C 	C 	0.2258	0.7088	-0	-0.183
Mof_C 	C 	0.1391	0.795	-0	-0.043
Mof_H 	H 	0.1243	0.8155	-0	0.041
Mof_O 	O 	0.19	0.6103	-0	-0.831
Mof_C 	C 	0.2601	0.1959	-0	0.021
Mof_C 	C 	0.2912	0.2258	-0	-0.183
Mof_C 	C 	0.205	0.1391	-0	-0.042
Mof_H 	H 	0.1845	0.1243	-0	0.04
Mof_O 	O 	0.3897	0.19	-0	-0.831
Mof_C 	C 	0.7399	0.8041	-0	0.021
Mof_C 	C 	0.7088	0.7742	-0	-0.183
Mof_C 	C 	0.795	0.8609	-0	-0.043
Mof_H 	H 	0.8155	0.8757	-0	0.043
Mof_O 	O 	0.6103	0.81	-0	-0.831
_end
