data_functionalizedCrystal
_audit_creation_method	'EQeq! by Chris Wilmer'
_symmetry_space_group_name_H-M	'P1'
_symmetry_Int_Tables_number	1
_symmetry_cell_setting	triclinic
loop_
_symmetry_equiv_pos_as_xyz
  x,y,z
_cell_length_a	7.1407
_cell_length_b	7.1407
_cell_length_c	20.489
_cell_angle_alpha	90
_cell_angle_beta	90
_cell_angle_gamma	90
loop_
_atom_site_label
_atom_site_type_symbol
_atom_site_fract_x
_atom_site_fract_y
_atom_site_fract_z
_atom_site_charge
Mof_Pt	Pt	1.74605e-32	1.20814e-32	0.5	0.09
Mof_Fe	Fe	0.5	0.5	0.5	0.791
Mof_N 	N 	0.5	0.5	0.5969	-0.211
Mof_C 	C 	0.5	0.5	0.7329	0.043
Mof_C 	C 	0.5	0.5	0.931	-0.006
Mof_C 	C 	0.5	0.5	0.864	0.009
Mof_C 	C 	0.5	0.5	0.8048	-0.017
Mof_N 	N 	0.5	0.5	0.4031	-0.211
Mof_C 	C 	0.5	0.5	0.2671	0.043
Mof_C 	C 	0.5	0.5	0.069	-0.006
Mof_C 	C 	0.5	0.5	0.136	0.009
Mof_C 	C 	0.5	0.5	0.1952	-0.017
Mof_N 	N 	0.69	0.69	0.5	-0.201
Mof_C 	C 	0.808	0.808	0.5	0.049
Mof_N 	N 	0.31	0.31	0.5	-0.2
Mof_C 	C 	0.192	0.192	0.5	0.035
Mof_N 	N 	0.31	0.69	0.5	-0.2
Mof_C 	C 	0.192	0.808	0.5	0.042
Mof_N 	N 	0.69	0.31	0.5	-0.2
Mof_C 	C 	0.808	0.192	0.5	0.042
Mof_C 	C 	0.658	0.5	0.6308	0.043
Mof_C 	C 	0.667	0.5	0.6996	-0.026
Mof_C 	C 	0.636	0.5	0.965	0.002
Mof_C 	C 	0.342	0.5	0.6308	0.041
Mof_C 	C 	0.333	0.5	0.6996	-0.03
Mof_C 	C 	0.364	0.5	0.965	-0.001
Mof_C 	C 	0.5	0.658	0.6308	0.043
Mof_C 	C 	0.5	0.667	0.6996	-0.026
Mof_C 	C 	0.5	0.636	0.965	0.002
Mof_C 	C 	0.5	0.342	0.6308	0.041
Mof_C 	C 	0.5	0.333	0.6996	-0.03
Mof_C 	C 	0.5	0.364	0.965	-0.001
Mof_C 	C 	0.342	0.5	0.3692	0.041
Mof_C 	C 	0.333	0.5	0.3004	-0.03
Mof_C 	C 	0.364	0.5	0.035	-0.001
Mof_C 	C 	0.658	0.5	0.3692	0.043
Mof_C 	C 	0.667	0.5	0.3004	-0.026
Mof_C 	C 	0.636	0.5	0.035	0.002
Mof_C 	C 	0.5	0.658	0.3692	0.043
Mof_C 	C 	0.5	0.667	0.3004	-0.026
Mof_C 	C 	0.5	0.636	0.035	0.002
Mof_C 	C 	0.5	0.342	0.3692	0.041
Mof_C 	C 	0.5	0.333	0.3004	-0.03
Mof_C 	C 	0.5	0.364	0.035	-0.001
_end
