data_functionalizedCrystal
_audit_creation_method	'EQeq! by Chris Wilmer'
_symmetry_space_group_name_H-M	'P1'
_symmetry_Int_Tables_number	1
_symmetry_cell_setting	triclinic
loop_
_symmetry_equiv_pos_as_xyz
  x,y,z
_cell_length_a	11.9577
_cell_length_b	12.2216
_cell_length_c	13.5034
_cell_angle_alpha	102.535
_cell_angle_beta	98.857
_cell_angle_gamma	107.293
loop_
_atom_site_label
_atom_site_type_symbol
_atom_site_fract_x
_atom_site_fract_y
_atom_site_fract_z
_atom_site_charge
Mof_Nd	Nd	0.67572	0.52189	0.04646	2.232
Mof_O 	O 	0.7074	0.7384	0.0916	-0.552
Mof_O 	O 	0.5197	0.6332	0.0114	-0.641
Mof_O 	O 	0.8396	0.5923	0.209	-0.495
Mof_O 	O 	0.7296	0.4027	0.1641	-0.437
Mof_O 	O 	0.6319	0.546	0.871	0.451
Mof_O 	O 	0.4314	0.4815	0.8168	-1.776
Mof_O 	O 	0.3845	0.5148	0.1444	-1.004
Mof_O 	O 	0.5845	0.5651	0.1924	1.12
Mof_C 	C 	0.603	0.7322	0.0504	0.417
Mof_C 	C 	0.4556	0.9454	0.9726	0.01
Mof_C 	C 	0.4778	0.8385	0.9812	-0.01
Mof_H 	H 	0.4202	0.7631	0.9419	0.031
Mof_C 	C 	0.5799	0.8436	0.0445	-0.144
Mof_C 	C 	0.669	0.9549	0.0991	0.03
Mof_H 	H 	0.742	0.9582	0.1411	0.015
Mof_C 	C 	0.6501	0.0579	0.0917	-0.106
Mof_H 	H 	0.7092	0.1326	0.1305	0.057
Mof_C 	C 	0.8098	0.4914	0.2268	0.32
Mof_C 	C 	0.0176	0.5573	0.4925	0.016
Mof_C 	C 	0.9571	0.57	0.3979	-0.047
Mof_H 	H 	0.9795	0.646	0.3849	0.046
Mof_C 	C 	0.8704	0.4785	0.3274	-0.074
Mof_C 	C 	0.8344	0.3639	0.3464	-0.004
Mof_H 	H 	0.7726	0.2985	0.2963	0.037
Mof_C 	C 	0.8888	0.3482	0.4362	-0.087
Mof_H 	H 	0.8626	0.2728	0.4499	0.05
Mof_C 	C 	0.5364	0.516	0.8022	-0.571
Mof_C 	C 	0.4842	0.54	0.2119	1.221
Mof_C 	C 	0.547	0.526	0.695	-0.075
Mof_C 	C 	0.661	0.554	0.6668	0.421
Mof_H 	H 	0.7318	0.5686	0.7194	-0.16
Mof_C 	C 	0.672	0.565	0.575	0.124
Mof_H 	H 	0.7511	0.5866	0.5608	-0.044
Mof_C 	C 	0.5698	0.546	0.4941	-0.487
Mof_C 	C 	0.574	0.551	0.3911	-0.424
Mof_H 	H 	0.6506	0.5674	0.3723	0.19
Mof_C 	C 	0.4755	0.537	0.3196	-0.063
Mof_C 	C 	0.3605	0.5145	0.3465	-0.408
Mof_H 	H 	0.2902	0.5041	0.2953	0.159
Mof_C 	C 	0.351	0.503	0.4438	-0.212
Mof_H 	H 	0.2733	0.484	0.46	0.095
Mof_C 	C 	0.4525	0.52	0.5204	0.46
Mof_C 	C 	0.4466	0.513	0.6227	0.434
Mof_H 	H 	0.3701	0.4946	0.641	-0.115
Mof_Nd	Nd	0.32428	0.47811	0.95354	2.232
Mof_O 	O 	0.2926	0.2616	0.9084	-0.552
Mof_O 	O 	0.4803	0.3668	0.9886	-0.641
Mof_O 	O 	0.1604	0.4077	0.791	-0.495
Mof_O 	O 	0.2704	0.5973	0.8359	-0.437
Mof_O 	O 	0.3681	0.454	0.129	0.451
Mof_O 	O 	0.5686	0.5185	0.1832	-1.776
Mof_O 	O 	0.6155	0.4852	0.8556	-1.004
Mof_O 	O 	0.4155	0.4349	0.8076	1.12
Mof_C 	C 	0.397	0.2678	0.9496	0.417
Mof_C 	C 	0.5444	0.0546	0.0274	0.01
Mof_C 	C 	0.5222	0.1615	0.0188	-0.01
Mof_H 	H 	0.5798	0.2369	0.0581	0.031
Mof_C 	C 	0.4201	0.1564	0.9555	-0.144
Mof_C 	C 	0.331	0.0451	0.9009	0.03
Mof_H 	H 	0.258	0.0418	0.8589	0.015
Mof_C 	C 	0.3499	0.9421	0.9083	-0.106
Mof_H 	H 	0.2908	0.8674	0.8695	0.057
Mof_C 	C 	0.1902	0.5086	0.7732	0.32
Mof_C 	C 	0.9824	0.4427	0.5075	0.016
Mof_C 	C 	0.0429	0.43	0.6021	-0.047
Mof_H 	H 	0.0205	0.354	0.6151	0.046
Mof_C 	C 	0.1296	0.5215	0.6726	-0.074
Mof_C 	C 	0.1656	0.6361	0.6536	-0.004
Mof_H 	H 	0.2274	0.7015	0.7037	0.037
Mof_C 	C 	0.1112	0.6518	0.5638	-0.087
Mof_H 	H 	0.1374	0.7272	0.5501	0.05
Mof_C 	C 	0.4636	0.484	0.1978	-0.571
Mof_C 	C 	0.5158	0.46	0.7881	1.221
Mof_C 	C 	0.453	0.474	0.305	-0.075
Mof_C 	C 	0.339	0.446	0.3332	0.421
Mof_H 	H 	0.2682	0.4314	0.2806	-0.16
Mof_C 	C 	0.328	0.435	0.425	0.124
Mof_H 	H 	0.2489	0.4134	0.4392	-0.044
Mof_C 	C 	0.4302	0.454	0.5059	-0.487
Mof_C 	C 	0.426	0.449	0.6089	-0.424
Mof_H 	H 	0.3494	0.4326	0.6277	0.19
Mof_C 	C 	0.5245	0.463	0.6804	-0.063
Mof_C 	C 	0.6395	0.4855	0.6535	-0.408
Mof_H 	H 	0.7098	0.4959	0.7047	0.159
Mof_C 	C 	0.649	0.497	0.5562	-0.212
Mof_H 	H 	0.7267	0.516	0.54	0.095
Mof_C 	C 	0.5475	0.48	0.4796	0.46
Mof_C 	C 	0.5534	0.487	0.3773	0.434
Mof_H 	H 	0.6299	0.5054	0.359	-0.115
_end
