data_functionalizedCrystal
_audit_creation_method	'EQeq! by Chris Wilmer'
_symmetry_space_group_name_H-M	'P1'
_symmetry_Int_Tables_number	1
_symmetry_cell_setting	triclinic
loop_
_symmetry_equiv_pos_as_xyz
  x,y,z
_cell_length_a	19.0899
_cell_length_b	11.1224
_cell_length_c	6.1748
_cell_angle_alpha	90
_cell_angle_beta	94.074
_cell_angle_gamma	90
loop_
_atom_site_label
_atom_site_type_symbol
_atom_site_fract_x
_atom_site_fract_y
_atom_site_fract_z
_atom_site_charge
Mof_Cu	Cu	0.34337	0.14552	0.36457	0.878
Mof_Cu	Cu	0.99688	0.85561	0.21138	0.864
Mof_Cl	Cl	0.34939	0.34214	0.48934	-0.644
Mof_Cl	Cl	0.98773	0.84009	0.84092	-0.701
Mof_S 	S 	0.18002	0.99055	0.20507	-0.072
Mof_S 	S 	0.25495	0.90265	0.66125	-0.066
Mof_S 	S 	0.18167	0.16574	0.62447	-0.075
Mof_P 	P 	0.24895	0.05559	0.45936	-0.031
Mof_P 	P 	0.09749	0.92861	0.37932	-0.063
Mof_P 	P 	0.14904	0.86315	0.6966	0.053
Mof_P 	P 	0.09917	0.04763	0.66685	-0.042
Mof_N 	N 	0.43705	0.0611	0.4478	-0.199
Mof_C 	C 	0.4612	0.9753	0.3196	0.055
Mof_C 	C 	0.4767	0.0852	0.6281	-0.053
Mof_H 	H 	0.4347	0.9555	0.1884	0.005
Mof_H 	H 	0.4619	0.1457	0.7236	0.041
Mof_C 	C 	0.4876	0.0534	0.31	-0.059
Mof_C 	C 	0.4503	0.008	0.639	0.043
Mof_H 	H 	0.4808	0.0914	0.1728	0.048
Mof_H 	H 	0.4163	0.0123	0.7439	0.02
Mof_Cu	Cu	0.65663	0.64552	0.13543	0.877
Mof_Cu	Cu	0.00312	0.35561	0.28862	0.864
Mof_Cl	Cl	0.65061	0.84214	0.01066	-0.645
Mof_Cl	Cl	0.01227	0.34009	0.65908	-0.702
Mof_S 	S 	0.81998	0.49055	0.29493	-0.072
Mof_S 	S 	0.74505	0.40265	0.83875	-0.067
Mof_S 	S 	0.81833	0.66574	0.87553	-0.075
Mof_P 	P 	0.75105	0.55559	0.04064	-0.03
Mof_P 	P 	0.90251	0.42861	0.12068	-0.064
Mof_P 	P 	0.85096	0.36315	0.8034	0.053
Mof_P 	P 	0.90083	0.54763	0.83315	-0.041
Mof_N 	N 	0.56295	0.5611	0.0522	-0.199
Mof_C 	C 	0.5388	0.4753	0.1804	0.054
Mof_C 	C 	0.5233	0.5852	0.8719	-0.052
Mof_H 	H 	0.5653	0.4555	0.3116	0.006
Mof_H 	H 	0.5381	0.6457	0.7764	0.041
Mof_C 	C 	0.5124	0.5534	0.19	-0.058
Mof_C 	C 	0.5497	0.508	0.861	0.042
Mof_H 	H 	0.5192	0.5914	0.3272	0.048
Mof_H 	H 	0.5837	0.5123	0.7561	0.02
Mof_Cu	Cu	0.65663	0.85448	0.63543	0.877
Mof_Cu	Cu	0.00312	0.14439	0.78862	0.863
Mof_Cl	Cl	0.65061	0.65786	0.51066	-0.645
Mof_Cl	Cl	0.01227	0.15991	0.15908	-0.702
Mof_S 	S 	0.81998	0.00945	0.79493	-0.072
Mof_S 	S 	0.74505	0.09735	0.33875	-0.066
Mof_S 	S 	0.81833	0.83426	0.37553	-0.075
Mof_P 	P 	0.75105	0.94441	0.54064	-0.031
Mof_P 	P 	0.90251	0.07139	0.62068	-0.063
Mof_P 	P 	0.85096	0.13685	0.3034	0.053
Mof_P 	P 	0.90083	0.95237	0.33315	-0.042
Mof_N 	N 	0.56295	0.9389	0.5522	-0.199
Mof_C 	C 	0.5388	0.0247	0.6804	0.055
Mof_C 	C 	0.5233	0.9148	0.3719	-0.053
Mof_H 	H 	0.5653	0.0445	0.8116	0.005
Mof_H 	H 	0.5381	0.8543	0.2764	0.041
Mof_C 	C 	0.5124	0.9466	0.69	-0.059
Mof_C 	C 	0.5497	0.992	0.361	0.043
Mof_H 	H 	0.5192	0.9086	0.8272	0.048
Mof_H 	H 	0.5837	0.9877	0.2561	0.02
Mof_Cu	Cu	0.34337	0.35448	0.86457	0.877
Mof_Cu	Cu	0.99688	0.64439	0.71138	0.864
Mof_Cl	Cl	0.34939	0.15786	0.98934	-0.645
Mof_Cl	Cl	0.98773	0.65991	0.34092	-0.702
Mof_S 	S 	0.18002	0.50945	0.70507	-0.072
Mof_S 	S 	0.25495	0.59735	0.16125	-0.067
Mof_S 	S 	0.18167	0.33426	0.12447	-0.075
Mof_P 	P 	0.24895	0.44441	0.95936	-0.03
Mof_P 	P 	0.09749	0.57139	0.87932	-0.064
Mof_P 	P 	0.14904	0.63685	0.1966	0.053
Mof_P 	P 	0.09917	0.45237	0.16685	-0.041
Mof_N 	N 	0.43705	0.4389	0.9478	-0.199
Mof_C 	C 	0.4612	0.5247	0.8196	0.054
Mof_C 	C 	0.4767	0.4148	0.1281	-0.052
Mof_H 	H 	0.4347	0.5445	0.6884	0.006
Mof_H 	H 	0.4619	0.3543	0.2236	0.041
Mof_C 	C 	0.4876	0.4466	0.81	-0.058
Mof_C 	C 	0.4503	0.492	0.139	0.042
Mof_H 	H 	0.4808	0.4086	0.6728	0.048
Mof_H 	H 	0.4163	0.4877	0.2439	0.02
_end
