data_functionalizedCrystal
_audit_creation_method	'EQeq! by Chris Wilmer'
_symmetry_space_group_name_H-M	'P1'
_symmetry_Int_Tables_number	1
_symmetry_cell_setting	triclinic
loop_
_symmetry_equiv_pos_as_xyz
  x,y,z
_cell_length_a	6.2872
_cell_length_b	14.314
_cell_length_c	14.314
_cell_angle_alpha	90
_cell_angle_beta	90
_cell_angle_gamma	90
loop_
_atom_site_label
_atom_site_type_symbol
_atom_site_fract_x
_atom_site_fract_y
_atom_site_fract_z
_atom_site_charge
Mof_Co	Co	0.75	0.75	0.75	1.107
Mof_Co	Co	0.25	0.25	0.25	1.107
Mof_H 	H 	0.2357	0.0479	0.8853	0.043
Mof_H 	H 	0.0413	0.8527	0.0628	0.039
Mof_H 	H 	0.3829	0.9053	0.7982	0.027
Mof_H 	H 	0.6757	0.7247	0.9658	-0.029
Mof_H 	H 	0.4146	0.8104	0.048	0.116
Mof_H 	H 	0.2357	0.4521	0.6147	0.042
Mof_H 	H 	0.0413	0.6473	0.4372	0.039
Mof_H 	H 	0.3829	0.5947	0.7018	0.027
Mof_H 	H 	0.6757	0.7753	0.5342	-0.029
Mof_H 	H 	0.4146	0.6896	0.452	0.117
Mof_H 	H 	0.7357	0.1147	0.5479	0.042
Mof_H 	H 	0.5413	0.9372	0.3527	0.039
Mof_H 	H 	0.8829	0.2018	0.4053	0.027
Mof_H 	H 	0.1757	0.0342	0.2247	-0.028
Mof_H 	H 	0.9146	0.952	0.3104	0.115
Mof_H 	H 	0.7357	0.3853	0.9521	0.042
Mof_H 	H 	0.5413	0.5628	0.1473	0.039
Mof_H 	H 	0.8829	0.2982	0.0947	0.027
Mof_H 	H 	0.1757	0.4658	0.2753	-0.029
Mof_H 	H 	0.9146	0.548	0.1896	0.117
Mof_H 	H 	0.7643	0.9521	0.1147	0.043
Mof_H 	H 	0.9587	0.1473	0.9372	0.039
Mof_H 	H 	0.6171	0.0947	0.2018	0.027
Mof_H 	H 	0.3243	0.2753	0.0342	-0.029
Mof_H 	H 	0.5854	0.1896	0.952	0.116
Mof_H 	H 	0.7643	0.5479	0.3853	0.042
Mof_H 	H 	0.9587	0.3527	0.5628	0.039
Mof_H 	H 	0.6171	0.4053	0.2982	0.027
Mof_H 	H 	0.3243	0.2247	0.4658	-0.029
Mof_H 	H 	0.5854	0.3104	0.548	0.117
Mof_H 	H 	0.2643	0.8853	0.4521	0.042
Mof_H 	H 	0.4587	0.0628	0.6473	0.039
Mof_H 	H 	0.1171	0.7982	0.5947	0.027
Mof_H 	H 	0.8243	0.9658	0.7753	-0.028
Mof_H 	H 	0.0854	0.048	0.6896	0.115
Mof_H 	H 	0.2643	0.6147	0.0479	0.042
Mof_H 	H 	0.4587	0.4372	0.8527	0.039
Mof_H 	H 	0.1171	0.7018	0.9053	0.027
Mof_H 	H 	0.8243	0.5342	0.7247	-0.029
Mof_H 	H 	0.0854	0.452	0.8104	0.117
Mof_C 	C 	0.1609	0.9422	0.971	-0.004
Mof_C 	C 	0.1418	0.02839	0.93149	-0.056
Mof_C 	C 	0.0256	0.9121	0.0374	-0.056
Mof_C 	C 	0.422	0.8718	0.8512	-0.046
Mof_C 	C 	0.5864	0.7706	0.9418	0.108
Mof_C 	C 	0.3372	0.8838	0.938	0.063
Mof_C 	C 	0.1609	0.5578	0.529	-0.009
Mof_C 	C 	0.1418	0.47161	0.56851	-0.052
Mof_C 	C 	0.0256	0.5879	0.4626	-0.054
Mof_C 	C 	0.422	0.6282	0.6488	-0.047
Mof_C 	C 	0.5864	0.7294	0.5582	0.108
Mof_C 	C 	0.3372	0.6162	0.562	0.064
Mof_C 	C 	0.6609	0.029	0.4422	-0.008
Mof_C 	C 	0.6418	0.06851	0.52839	-0.052
Mof_C 	C 	0.5256	0.9626	0.4121	-0.055
Mof_C 	C 	0.922	0.1488	0.3718	-0.045
Mof_C 	C 	0.0864	0.0582	0.2706	0.105
Mof_C 	C 	0.8372	0.062	0.3838	0.063
Mof_C 	C 	0.6609	0.471	0.0578	-0.009
Mof_C 	C 	0.6418	0.43149	0.97161	-0.053
Mof_C 	C 	0.5256	0.5374	0.0879	-0.054
Mof_C 	C 	0.922	0.3512	0.1282	-0.046
Mof_C 	C 	0.0864	0.4418	0.2294	0.107
Mof_C 	C 	0.8372	0.438	0.1162	0.063
Mof_C 	C 	0.8391	0.0578	0.029	-0.004
Mof_C 	C 	0.8582	0.97161	0.06851	-0.056
Mof_C 	C 	0.9744	0.0879	0.9626	-0.056
Mof_C 	C 	0.578	0.1282	0.1488	-0.046
Mof_C 	C 	0.4136	0.2294	0.0582	0.108
Mof_C 	C 	0.6628	0.1162	0.062	0.063
Mof_C 	C 	0.8391	0.4422	0.471	-0.009
Mof_C 	C 	0.8582	0.52839	0.43149	-0.052
Mof_C 	C 	0.9744	0.4121	0.5374	-0.054
Mof_C 	C 	0.578	0.3718	0.3512	-0.047
Mof_C 	C 	0.4136	0.2706	0.4418	0.108
Mof_C 	C 	0.6628	0.3838	0.438	0.064
Mof_C 	C 	0.3391	0.971	0.5578	-0.008
Mof_C 	C 	0.3582	0.93149	0.47161	-0.052
Mof_C 	C 	0.4744	0.0374	0.5879	-0.055
Mof_C 	C 	0.078	0.8512	0.6282	-0.045
Mof_C 	C 	0.9136	0.9418	0.7294	0.105
Mof_C 	C 	0.1628	0.938	0.6162	0.063
Mof_C 	C 	0.3391	0.529	0.9422	-0.009
Mof_C 	C 	0.3582	0.56851	0.02839	-0.053
Mof_C 	C 	0.4744	0.4626	0.9121	-0.054
Mof_C 	C 	0.078	0.6488	0.8718	-0.046
Mof_C 	C 	0.9136	0.5582	0.7706	0.107
Mof_C 	C 	0.1628	0.562	0.8838	0.063
Mof_N 	N 	0.58	0.80007	0.85398	-0.269
Mof_N 	N 	0.4401	0.81944	0.98971	-0.212
Mof_N 	N 	0.58	0.69993	0.64602	-0.269
Mof_N 	N 	0.4401	0.68056	0.51029	-0.213
Mof_N 	N 	0.08	0.14602	0.30007	-0.27
Mof_N 	N 	0.9401	0.01029	0.31944	-0.21
Mof_N 	N 	0.08	0.35398	0.19993	-0.27
Mof_N 	N 	0.9401	0.48971	0.18056	-0.212
Mof_N 	N 	0.42	0.19993	0.14602	-0.269
Mof_N 	N 	0.5599	0.18056	0.01029	-0.212
Mof_N 	N 	0.42	0.30007	0.35398	-0.269
Mof_N 	N 	0.5599	0.31944	0.48971	-0.213
Mof_N 	N 	0.92	0.85398	0.69993	-0.27
Mof_N 	N 	0.0599	0.98971	0.68056	-0.21
Mof_N 	N 	0.92	0.64602	0.80007	-0.27
Mof_N 	N 	0.0599	0.51029	0.81944	-0.212
_end
