data_functionalizedCrystal
_audit_creation_method	'EQeq! by Chris Wilmer'
_symmetry_space_group_name_H-M	'P1'
_symmetry_Int_Tables_number	1
_symmetry_cell_setting	triclinic
loop_
_symmetry_equiv_pos_as_xyz
  x,y,z
_cell_length_a	30.863
_cell_length_b	15.7425
_cell_length_c	22.192
_cell_angle_alpha	90
_cell_angle_beta	133.173
_cell_angle_gamma	90
loop_
_atom_site_label
_atom_site_type_symbol
_atom_site_fract_x
_atom_site_fract_y
_atom_site_fract_z
_atom_site_charge
Mof_La	La	0.89008	0.86284	0.32831	1.62
Mof_La	La	0.83052	0.12895	0.48594	1.627
Mof_N 	N 	0.8379	0.0041	0.2419	-0.164
Mof_N 	N 	0.1332	0.7308	0.5359	-0.17
Mof_O 	O 	0.8757	0.8858	0.2033	-0.498
Mof_O 	O 	0.8409	0.9549	0.0911	-0.524
Mof_O 	O 	0.8663	0.9739	0.3828	-0.52
Mof_O 	O 	0.8253	0.0984	0.3724	-0.489
Mof_O 	O 	0.0596	0.8521	0.4316	-0.502
Mof_O 	O 	0.9808	0.7808	0.3898	-0.526
Mof_O 	O 	0.2471	0.7645	0.6267	-0.495
Mof_O 	O 	0.2761	0.6504	0.7058	-0.447
Mof_C 	C 	0.8498	0.9478	0.1548	0.41
Mof_C 	C 	0.8252	0.0132	0.1719	-0.11
Mof_C 	C 	0.7865	0.0757	0.1167	0.022
Mof_H 	H 	0.7787	0.0828	0.0684	-0.008
Mof_C 	C 	0.7588	0.1287	0.1326	-0.112
Mof_H 	H 	0.7307	0.1688	0.0943	0.034
Mof_C 	C 	0.775	0.1188	0.2074	0.017
Mof_H 	H 	0.759	0.1542	0.2215	0.001
Mof_C 	C 	0.8148	0.0568	0.2611	-0.088
Mof_C 	C 	0.8372	0.0425	0.3457	0.381
Mof_C 	C 	0.035	0.7887	0.431	0.402
Mof_C 	C 	0.0762	0.7184	0.4892	-0.096
Mof_C 	C 	0.054	0.645	0.4969	-0.004
Mof_H 	H 	0.0134	0.6377	0.4645	0.001
Mof_C 	C 	0.0944	0.5841	0.5541	-0.088
Mof_H 	H 	0.081	0.5335	0.5583	0.031
Mof_C 	C 	0.1556	0.5993	0.6059	-0.013
Mof_H 	H 	0.1838	0.5611	0.6471	0.02
Mof_C 	C 	0.1723	0.674	0.5928	-0.078
Mof_C 	C 	0.2361	0.6972	0.6451	0.367
Mof_La	La	0.39008	0.36284	0.32831	1.619
Mof_La	La	0.33052	0.62895	0.48594	1.627
Mof_N 	N 	0.3379	0.5041	0.2419	-0.165
Mof_N 	N 	0.6332	0.2308	0.5359	-0.171
Mof_O 	O 	0.3757	0.3858	0.2033	-0.499
Mof_O 	O 	0.3409	0.4549	0.0911	-0.527
Mof_O 	O 	0.3663	0.4739	0.3828	-0.52
Mof_O 	O 	0.3253	0.5984	0.3724	-0.489
Mof_O 	O 	0.5596	0.3521	0.4316	-0.501
Mof_O 	O 	0.4808	0.2808	0.3898	-0.526
Mof_O 	O 	0.7471	0.2645	0.6267	-0.495
Mof_O 	O 	0.7761	0.1504	0.7058	-0.447
Mof_C 	C 	0.3498	0.4478	0.1548	0.409
Mof_C 	C 	0.3252	0.5132	0.1719	-0.107
Mof_C 	C 	0.2865	0.5757	0.1167	0.021
Mof_H 	H 	0.2787	0.5828	0.0684	-0.007
Mof_C 	C 	0.2588	0.6287	0.1326	-0.111
Mof_H 	H 	0.2307	0.6688	0.0943	0.034
Mof_C 	C 	0.275	0.6188	0.2074	0.016
Mof_H 	H 	0.259	0.6542	0.2215	0.001
Mof_C 	C 	0.3148	0.5568	0.2611	-0.088
Mof_C 	C 	0.3372	0.5425	0.3457	0.382
Mof_C 	C 	0.535	0.2887	0.431	0.402
Mof_C 	C 	0.5762	0.2184	0.4892	-0.096
Mof_C 	C 	0.554	0.145	0.4969	-0.004
Mof_H 	H 	0.5134	0.1377	0.4645	0.001
Mof_C 	C 	0.5944	0.0841	0.5541	-0.088
Mof_H 	H 	0.581	0.0335	0.5583	0.031
Mof_C 	C 	0.6556	0.0993	0.6059	-0.013
Mof_H 	H 	0.6838	0.0611	0.6471	0.021
Mof_C 	C 	0.6723	0.174	0.5928	-0.078
Mof_C 	C 	0.7361	0.1972	0.6451	0.367
Mof_La	La	0.10992	0.86284	0.17169	1.619
Mof_La	La	0.16948	0.12895	0.01406	1.625
Mof_N 	N 	0.1621	0.0041	0.2581	-0.166
Mof_N 	N 	0.8668	0.7308	0.9641	-0.171
Mof_O 	O 	0.1243	0.8858	0.2967	-0.499
Mof_O 	O 	0.1591	0.9549	0.4089	-0.527
Mof_O 	O 	0.1337	0.9739	0.1172	-0.519
Mof_O 	O 	0.1747	0.0984	0.1276	-0.488
Mof_O 	O 	0.9404	0.8521	0.0684	-0.5
Mof_O 	O 	0.0192	0.7808	0.1102	-0.526
Mof_O 	O 	0.7529	0.7645	0.8733	-0.495
Mof_O 	O 	0.7239	0.6504	0.7942	-0.447
Mof_C 	C 	0.1502	0.9478	0.3452	0.409
Mof_C 	C 	0.1748	0.0132	0.3281	-0.108
Mof_C 	C 	0.2135	0.0757	0.3833	0.021
Mof_H 	H 	0.2213	0.0828	0.4316	-0.007
Mof_C 	C 	0.2412	0.1287	0.3674	-0.112
Mof_H 	H 	0.2693	0.1688	0.4057	0.034
Mof_C 	C 	0.225	0.1188	0.2926	0.016
Mof_H 	H 	0.241	0.1542	0.2785	0.001
Mof_C 	C 	0.1852	0.0568	0.2389	-0.087
Mof_C 	C 	0.1628	0.0425	0.1543	0.38
Mof_C 	C 	0.965	0.7887	0.069	0.403
Mof_C 	C 	0.9238	0.7184	0.0108	-0.095
Mof_C 	C 	0.946	0.645	0.0031	-0.002
Mof_H 	H 	0.9866	0.6377	0.0355	0.001
Mof_C 	C 	0.9056	0.5841	0.9459	-0.09
Mof_H 	H 	0.919	0.5335	0.9417	0.031
Mof_C 	C 	0.8444	0.5993	0.8941	-0.012
Mof_H 	H 	0.8162	0.5611	0.8529	0.02
Mof_C 	C 	0.8277	0.674	0.9072	-0.078
Mof_C 	C 	0.7639	0.6972	0.8549	0.367
Mof_La	La	0.60992	0.36284	0.17169	1.619
Mof_La	La	0.66948	0.62895	0.01406	1.631
Mof_N 	N 	0.6621	0.5041	0.2581	-0.165
Mof_N 	N 	0.3668	0.2308	0.9641	-0.171
Mof_O 	O 	0.6243	0.3858	0.2967	-0.499
Mof_O 	O 	0.6591	0.4549	0.4089	-0.526
Mof_O 	O 	0.6337	0.4739	0.1172	-0.52
Mof_O 	O 	0.6747	0.5984	0.1276	-0.489
Mof_O 	O 	0.4404	0.3521	0.0684	-0.502
Mof_O 	O 	0.5192	0.2808	0.1102	-0.526
Mof_O 	O 	0.2529	0.2645	0.8733	-0.495
Mof_O 	O 	0.2239	0.1504	0.7942	-0.446
Mof_C 	C 	0.6502	0.4478	0.3452	0.409
Mof_C 	C 	0.6748	0.5132	0.3281	-0.107
Mof_C 	C 	0.7135	0.5757	0.3833	0.021
Mof_H 	H 	0.7213	0.5828	0.4316	-0.007
Mof_C 	C 	0.7412	0.6287	0.3674	-0.111
Mof_H 	H 	0.7693	0.6688	0.4057	0.034
Mof_C 	C 	0.725	0.6188	0.2926	0.016
Mof_H 	H 	0.741	0.6542	0.2785	0.001
Mof_C 	C 	0.6852	0.5568	0.2389	-0.088
Mof_C 	C 	0.6628	0.5425	0.1543	0.382
Mof_C 	C 	0.465	0.2887	0.069	0.402
Mof_C 	C 	0.4238	0.2184	0.0108	-0.096
Mof_C 	C 	0.446	0.145	0.0031	-0.007
Mof_H 	H 	0.4866	0.1377	0.0355	0.002
Mof_C 	C 	0.4056	0.0841	0.9459	-0.084
Mof_H 	H 	0.419	0.0335	0.9417	0.03
Mof_C 	C 	0.3444	0.0993	0.8941	-0.014
Mof_H 	H 	0.3162	0.0611	0.8529	0.021
Mof_C 	C 	0.3277	0.174	0.9072	-0.077
Mof_C 	C 	0.2639	0.1972	0.8549	0.367
Mof_La	La	0.10992	0.13716	0.67169	1.619
Mof_La	La	0.16948	0.87105	0.51406	1.626
Mof_N 	N 	0.1621	0.9959	0.7581	-0.165
Mof_N 	N 	0.8668	0.2692	0.4641	-0.171
Mof_O 	O 	0.1243	0.1142	0.7967	-0.499
Mof_O 	O 	0.1591	0.0451	0.9089	-0.525
Mof_O 	O 	0.1337	0.0261	0.6172	-0.52
Mof_O 	O 	0.1747	0.9016	0.6276	-0.489
Mof_O 	O 	0.9404	0.1479	0.5684	-0.502
Mof_O 	O 	0.0192	0.2192	0.6102	-0.526
Mof_O 	O 	0.7529	0.2355	0.3733	-0.495
Mof_O 	O 	0.7239	0.3496	0.2942	-0.447
Mof_C 	C 	0.1502	0.0522	0.8452	0.41
Mof_C 	C 	0.1748	0.9868	0.8281	-0.11
Mof_C 	C 	0.2135	0.9243	0.8833	0.022
Mof_H 	H 	0.2213	0.9172	0.9316	-0.008
Mof_C 	C 	0.2412	0.8713	0.8674	-0.112
Mof_H 	H 	0.2693	0.8312	0.9057	0.034
Mof_C 	C 	0.225	0.8812	0.7926	0.017
Mof_H 	H 	0.241	0.8458	0.7785	0.001
Mof_C 	C 	0.1852	0.9432	0.7389	-0.088
Mof_C 	C 	0.1628	0.9575	0.6543	0.381
Mof_C 	C 	0.965	0.2113	0.569	0.402
Mof_C 	C 	0.9238	0.2816	0.5108	-0.096
Mof_C 	C 	0.946	0.355	0.5031	-0.004
Mof_H 	H 	0.9866	0.3623	0.5355	0.001
Mof_C 	C 	0.9056	0.4159	0.4459	-0.088
Mof_H 	H 	0.919	0.4665	0.4417	0.031
Mof_C 	C 	0.8444	0.4007	0.3941	-0.013
Mof_H 	H 	0.8162	0.4389	0.3529	0.02
Mof_C 	C 	0.8277	0.326	0.4072	-0.078
Mof_C 	C 	0.7639	0.3028	0.3549	0.367
Mof_La	La	0.60992	0.63716	0.67169	1.619
Mof_La	La	0.66948	0.37105	0.51406	1.627
Mof_N 	N 	0.6621	0.4959	0.7581	-0.165
Mof_N 	N 	0.3668	0.7692	0.4641	-0.171
Mof_O 	O 	0.6243	0.6142	0.7967	-0.499
Mof_O 	O 	0.6591	0.5451	0.9089	-0.527
Mof_O 	O 	0.6337	0.5261	0.6172	-0.52
Mof_O 	O 	0.6747	0.4016	0.6276	-0.489
Mof_O 	O 	0.4404	0.6479	0.5684	-0.501
Mof_O 	O 	0.5192	0.7192	0.6102	-0.526
Mof_O 	O 	0.2529	0.7355	0.3733	-0.495
Mof_O 	O 	0.2239	0.8496	0.2942	-0.447
Mof_C 	C 	0.6502	0.5522	0.8452	0.409
Mof_C 	C 	0.6748	0.4868	0.8281	-0.107
Mof_C 	C 	0.7135	0.4243	0.8833	0.021
Mof_H 	H 	0.7213	0.4172	0.9316	-0.007
Mof_C 	C 	0.7412	0.3713	0.8674	-0.111
Mof_H 	H 	0.7693	0.3312	0.9057	0.034
Mof_C 	C 	0.725	0.3812	0.7926	0.016
Mof_H 	H 	0.741	0.3458	0.7785	0.001
Mof_C 	C 	0.6852	0.4432	0.7389	-0.088
Mof_C 	C 	0.6628	0.4575	0.6543	0.382
Mof_C 	C 	0.465	0.7113	0.569	0.402
Mof_C 	C 	0.4238	0.7816	0.5108	-0.096
Mof_C 	C 	0.446	0.855	0.5031	-0.004
Mof_H 	H 	0.4866	0.8623	0.5355	0.001
Mof_C 	C 	0.4056	0.9159	0.4459	-0.088
Mof_H 	H 	0.419	0.9665	0.4417	0.031
Mof_C 	C 	0.3444	0.9007	0.3941	-0.013
Mof_H 	H 	0.3162	0.9389	0.3529	0.021
Mof_C 	C 	0.3277	0.826	0.4072	-0.078
Mof_C 	C 	0.2639	0.8028	0.3549	0.367
Mof_La	La	0.89008	0.13716	0.82831	1.619
Mof_La	La	0.83052	0.87105	0.98594	1.625
Mof_N 	N 	0.8379	0.9959	0.7419	-0.166
Mof_N 	N 	0.1332	0.2692	0.0359	-0.171
Mof_O 	O 	0.8757	0.1142	0.7033	-0.499
Mof_O 	O 	0.8409	0.0451	0.5911	-0.527
Mof_O 	O 	0.8663	0.0261	0.8828	-0.519
Mof_O 	O 	0.8253	0.9016	0.8724	-0.488
Mof_O 	O 	0.0596	0.1479	0.9316	-0.5
Mof_O 	O 	0.9808	0.2192	0.8898	-0.526
Mof_O 	O 	0.2471	0.2355	0.1267	-0.495
Mof_O 	O 	0.2761	0.3496	0.2058	-0.447
Mof_C 	C 	0.8498	0.0522	0.6548	0.409
Mof_C 	C 	0.8252	0.9868	0.6719	-0.108
Mof_C 	C 	0.7865	0.9243	0.6167	0.021
Mof_H 	H 	0.7787	0.9172	0.5684	-0.007
Mof_C 	C 	0.7588	0.8713	0.6326	-0.112
Mof_H 	H 	0.7307	0.8312	0.5943	0.034
Mof_C 	C 	0.775	0.8812	0.7074	0.016
Mof_H 	H 	0.759	0.8458	0.7215	0.001
Mof_C 	C 	0.8148	0.9432	0.7611	-0.087
Mof_C 	C 	0.8372	0.9575	0.8457	0.38
Mof_C 	C 	0.035	0.2113	0.931	0.403
Mof_C 	C 	0.0762	0.2816	0.9892	-0.095
Mof_C 	C 	0.054	0.355	0.9969	-0.002
Mof_H 	H 	0.0134	0.3623	0.9645	0.001
Mof_C 	C 	0.0944	0.4159	0.0541	-0.09
Mof_H 	H 	0.081	0.4665	0.0583	0.031
Mof_C 	C 	0.1556	0.4007	0.1059	-0.012
Mof_H 	H 	0.1838	0.4389	0.1471	0.02
Mof_C 	C 	0.1723	0.326	0.0928	-0.078
Mof_C 	C 	0.2361	0.3028	0.1451	0.367
Mof_La	La	0.39008	0.63716	0.82831	1.619
Mof_La	La	0.33052	0.37105	0.98594	1.631
Mof_N 	N 	0.3379	0.4959	0.7419	-0.165
Mof_N 	N 	0.6332	0.7692	0.0359	-0.171
Mof_O 	O 	0.3757	0.6142	0.7033	-0.499
Mof_O 	O 	0.3409	0.5451	0.5911	-0.526
Mof_O 	O 	0.3663	0.5261	0.8828	-0.52
Mof_O 	O 	0.3253	0.4016	0.8724	-0.489
Mof_O 	O 	0.5596	0.6479	0.9316	-0.502
Mof_O 	O 	0.4808	0.7192	0.8898	-0.526
Mof_O 	O 	0.7471	0.7355	0.1267	-0.495
Mof_O 	O 	0.7761	0.8496	0.2058	-0.446
Mof_C 	C 	0.3498	0.5522	0.6548	0.409
Mof_C 	C 	0.3252	0.4868	0.6719	-0.107
Mof_C 	C 	0.2865	0.4243	0.6167	0.021
Mof_H 	H 	0.2787	0.4172	0.5684	-0.007
Mof_C 	C 	0.2588	0.3713	0.6326	-0.111
Mof_H 	H 	0.2307	0.3312	0.5943	0.034
Mof_C 	C 	0.275	0.3812	0.7074	0.016
Mof_H 	H 	0.259	0.3458	0.7215	0.001
Mof_C 	C 	0.3148	0.4432	0.7611	-0.088
Mof_C 	C 	0.3372	0.4575	0.8457	0.382
Mof_C 	C 	0.535	0.7113	0.931	0.402
Mof_C 	C 	0.5762	0.7816	0.9892	-0.096
Mof_C 	C 	0.554	0.855	0.9969	-0.007
Mof_H 	H 	0.5134	0.8623	0.9645	0.002
Mof_C 	C 	0.5944	0.9159	0.0541	-0.084
Mof_H 	H 	0.581	0.9665	0.0583	0.03
Mof_C 	C 	0.6556	0.9007	0.1059	-0.014
Mof_H 	H 	0.6838	0.9389	0.1471	0.021
Mof_C 	C 	0.6723	0.826	0.0928	-0.077
Mof_C 	C 	0.7361	0.8028	0.1451	0.367
_end
