data_functionalizedCrystal
_audit_creation_method	'EQeq! by Chris Wilmer'
_symmetry_space_group_name_H-M	'P1'
_symmetry_Int_Tables_number	1
_symmetry_cell_setting	triclinic
loop_
_symmetry_equiv_pos_as_xyz
  x,y,z
_cell_length_a	19.1237
_cell_length_b	14.4603
_cell_length_c	30.6247
_cell_angle_alpha	90
_cell_angle_beta	90
_cell_angle_gamma	90
loop_
_atom_site_label
_atom_site_type_symbol
_atom_site_fract_x
_atom_site_fract_y
_atom_site_fract_z
_atom_site_charge
Mof_Dy	Dy	0.35892	0.53713	0.53661	1.853
Mof_Dy	Dy	0.31381	0.47468	0.41236	1.885
Mof_O 	O 	0.337	0.63139	0.42085	-0.498
Mof_O 	O 	0.37956	0.6603	0.48754	-0.546
Mof_O 	O 	0.40975	0.8316	0.508	-0.433
Mof_H 	H 	0.4008	0.7771	0.5126	0.253
Mof_O 	O 	0.7626	0.9706	0.48948	-0.59
Mof_O 	O 	0.69696	0.9802	0.4313	-0.507
Mof_O 	O 	0.56314	0.9934	0.43756	-0.443
Mof_H 	H 	0.6016	0.9883	0.4259	0.284
Mof_O 	O 	0.33201	0.3815	0.52331	-0.509
Mof_O 	O 	0.29265	0.3463	0.45666	-0.537
Mof_O 	O 	0.26127	0.1758	0.43896	-0.428
Mof_H 	H 	0.2423	0.226	0.4353	0.251
Mof_O 	O 	0.91296	0.0199	0.45296	-0.594
Mof_O 	O 	0.97505	0.9984	0.5117	-0.5
Mof_O 	O 	0.11005	0.0057	0.50871	-0.447
Mof_H 	H 	0.0717	0.0129	0.5201	0.288
Mof_O 	O 	0.3926	0.4305	0.30177	-0.334
Mof_O 	O 	0.3402	0.5328	0.34455	-0.527
Mof_O 	O 	0.2941	0.6851	0.31325	-0.438
Mof_H 	H 	0.2957	0.6417	0.3304	0.277
Mof_O 	O 	0.08306	0.9462	0.09373	-0.42
Mof_O 	O 	0.19057	0.9905	0.10618	-0.47
Mof_O 	O 	0.25302	0.9369	0.17551	-0.448
Mof_H 	H 	0.25	0.9569	0.1505	0.283
Mof_C 	C 	0.4053	0.849	0.46419	0.256
Mof_C 	C 	0.3846	0.7801	0.43412	-0.24
Mof_C 	C 	0.3825	0.8015	0.39137	0.067
Mof_H 	H 	0.3707	0.7555	0.3715	0.034
Mof_C 	C 	0.3975	0.8903	0.37573	-0.041
Mof_C 	C 	0.3935	0.9103	0.3302	-0.027
Mof_H 	H 	0.3837	0.8631	0.3105	0.047
Mof_C 	C 	0.4039	0.9974	0.31555	-0.064
Mof_H 	H 	0.4017	0.01	0.2858	0.049
Mof_C 	C 	0.4181	0.0691	0.3456	-0.001
Mof_H 	H 	0.4227	0.1294	0.3354	0.027
Mof_C 	C 	0.4253	0.0521	0.38906	-0.092
Mof_H 	H 	0.437	0.1001	0.4079	0.072
Mof_C 	C 	0.41493	0.9603	0.40603	0.072
Mof_C 	C 	0.42117	0.9381	0.45099	-0.081
Mof_C 	C 	0.4405	0.0096	0.48547	-0.03
Mof_H 	H 	0.4384	0.0704	0.4721	0.05
Mof_H 	H 	0.4052	0.0079	0.5082	0.055
Mof_C 	C 	0.511	0.9989	0.50669	-0.095
Mof_C 	C 	0.5199	0.0065	0.55331	0.085
Mof_C 	C 	0.4628	0.0177	0.58327	-0.124
Mof_H 	H 	0.4173	0.0193	0.5727	0.083
Mof_C 	C 	0.4742	0.0259	0.6261	0.032
Mof_H 	H 	0.4361	0.0346	0.6446	0.02
Mof_C 	C 	0.541	0.0221	0.6444	-0.094
Mof_H 	H 	0.5472	0.0285	0.6744	0.063
Mof_C 	C 	0.596	0.0091	0.61811	0.003
Mof_H 	H 	0.6404	0.0046	0.6303	0.031
Mof_C 	C 	0.5883	0.0018	0.5718	-0.075
Mof_C 	C 	0.6456	0.9906	0.54496	0.096
Mof_H 	H 	0.6899	0.9872	0.5574	-0.026
Mof_C 	C 	0.6392	0.9844	0.50022	-0.263
Mof_C 	C 	0.5709	0.9929	0.4815	0.272
Mof_C 	C 	0.3658	0.6837	0.44898	0.501
Mof_C 	C 	0.7024	0.9767	0.47278	0.465
Mof_C 	C 	0.2675	0.1587	0.48255	0.245
Mof_C 	C 	0.2895	0.2309	0.51272	-0.228
Mof_C 	C 	0.2967	0.2114	0.55562	0.062
Mof_H 	H 	0.3104	0.2582	0.5746	0.023
Mof_C 	C 	0.2839	0.1215	0.57255	-0.047
Mof_C 	C 	0.2925	0.1036	0.61659	-0.016
Mof_H 	H 	0.305	0.1513	0.6354	0.041
Mof_C 	C 	0.2827	0.0176	0.6323	-0.073
Mof_H 	H 	0.2876	0.006	0.6621	0.055
Mof_C 	C 	0.2651	0.9448	0.6034	0.014
Mof_H 	H 	0.2611	0.8848	0.6141	0.015
Mof_C 	C 	0.2545	0.9606	0.5617	-0.106
Mof_H 	H 	0.2409	0.9118	0.5439	0.073
Mof_C 	C 	0.2629	0.0507	0.54271	0.074
Mof_C 	C 	0.2536	0.0703	0.49752	-0.083
Mof_C 	C 	0.2352	0.9976	0.46406	-0.034
Mof_H 	H 	0.236	0.9379	0.4785	0.052
Mof_H 	H 	0.2719	0.997	0.4422	0.055
Mof_C 	C 	0.1657	0.0067	0.44055	-0.094
Mof_C 	C 	0.1593	0.0032	0.39425	0.082
Mof_C 	C 	0.2184	0	0.3652	-0.117
Mof_H 	H 	0.2632	0.0063	0.3766	0.084
Mof_C 	C 	0.2102	0.9879	0.3212	0.025
Mof_H 	H 	0.2497	0.9828	0.3037	0.025
Mof_C 	C 	0.1439	0.9831	0.3018	-0.087
Mof_H 	H 	0.139	0.9757	0.2718	0.067
Mof_C 	C 	0.0866	0.9898	0.3284	0.002
Mof_H 	H 	0.0423	0.9883	0.3159	0.037
Mof_C 	C 	0.0923	0.9988	0.37395	-0.073
Mof_C 	C 	0.033	0.0047	0.40001	0.105
Mof_H 	H 	0.9892	0.0056	0.3867	-0.021
Mof_C 	C 	0.0369	0.0092	0.44466	-0.276
Mof_C 	C 	0.103	0.0074	0.46462	0.278
Mof_C 	C 	0.3059	0.3277	0.49727	0.504
Mof_C 	C 	0.9716	0.0096	0.47124	0.505
Mof_C 	C 	0.3197	0.6572	0.27317	0.231
Mof_C 	C 	0.3542	0.57	0.26945	-0.203
Mof_C 	C 	0.3799	0.5448	0.23014	0.043
Mof_H 	H 	0.4018	0.4876	0.2276	0.028
Mof_C 	C 	0.3748	0.6012	0.19305	-0.045
Mof_C 	C 	0.4027	0.5752	0.15207	-0.01
Mof_H 	H 	0.4245	0.518	0.1491	0.037
Mof_C 	C 	0.3983	0.6329	0.11662	-0.08
Mof_H 	H 	0.4158	0.6148	0.0896	0.072
Mof_C 	C 	0.3676	0.718	0.12181	0.026
Mof_H 	H 	0.3658	0.7571	0.0977	0.027
Mof_C 	C 	0.3396	0.7487	0.1602	-0.121
Mof_H 	H 	0.3204	0.8077	0.1622	0.091
Mof_C 	C 	0.3403	0.688	0.19759	0.068
Mof_C 	C 	0.3117	0.7161	0.23755	-0.081
Mof_C 	C 	0.2717	0.8063	0.24298	-0.082
Mof_H 	H 	0.2606	0.8139	0.2737	0.078
Mof_H 	H 	0.3025	0.8568	0.2348	0.074
Mof_C 	C 	0.2045	0.8155	0.21692	-0.08
Mof_C 	C 	0.1448	0.7592	0.22708	0.059
Mof_C 	C 	0.1414	0.7001	0.26375	-0.109
Mof_H 	H 	0.1797	0.6957	0.2823	0.086
Mof_C 	C 	0.0824	0.6488	0.27256	0.007
Mof_H 	H 	0.0821	0.6089	0.2964	0.028
Mof_C 	C 	0.0239	0.6558	0.2466	-0.063
Mof_H 	H 	0.984	0.6218	0.2532	0.05
Mof_C 	C 	0.0248	0.7128	0.2113	-0.033
Mof_H 	H 	0.9852	0.7172	0.1938	0.046
Mof_C 	C 	0.0838	0.7648	0.20062	-0.027
Mof_C 	C 	0.0827	0.8266	0.16459	0.021
Mof_H 	H 	0.0435	0.8292	0.1467	0.041
Mof_C 	C 	0.1389	0.8824	0.15594	-0.178
Mof_C 	C 	0.1991	0.8786	0.18346	0.233
Mof_C 	C 	0.3649	0.5048	0.30747	0.417
Mof_C 	C 	0.1363	0.943	0.11668	0.357
Mof_Dy	Dy	0.64108	0.46287	0.03661	1.864
Mof_Dy	Dy	0.68619	0.52532	0.91236	1.878
Mof_O 	O 	0.663	0.36861	0.92085	-0.498
Mof_O 	O 	0.62044	0.3397	0.98754	-0.552
Mof_O 	O 	0.59025	0.1684	0.008	-0.423
Mof_H 	H 	0.5992	0.2229	0.0126	0.252
Mof_O 	O 	0.2374	0.0294	0.98948	-0.59
Mof_O 	O 	0.30304	0.0198	0.9313	-0.501
Mof_O 	O 	0.43686	0.0066	0.93756	-0.43
Mof_H 	H 	0.3984	0.0117	0.9259	0.279
Mof_O 	O 	0.66799	0.6185	0.02331	-0.495
Mof_O 	O 	0.70735	0.6537	0.95666	-0.532
Mof_O 	O 	0.73873	0.8242	0.93896	-0.425
Mof_H 	H 	0.7577	0.774	0.9353	0.249
Mof_O 	O 	0.08704	0.9801	0.95296	-0.592
Mof_O 	O 	0.02495	0.0016	0.0117	-0.489
Mof_O 	O 	0.88995	0.9943	0.00871	-0.433
Mof_H 	H 	0.9283	0.9871	0.0201	0.285
Mof_O 	O 	0.6074	0.5695	0.80177	-0.334
Mof_O 	O 	0.6598	0.4672	0.84455	-0.527
Mof_O 	O 	0.7059	0.3149	0.81325	-0.438
Mof_H 	H 	0.7043	0.3583	0.8304	0.277
Mof_O 	O 	0.91694	0.0538	0.59373	-0.419
Mof_O 	O 	0.80943	0.0095	0.60618	-0.469
Mof_O 	O 	0.74698	0.0631	0.67551	-0.448
Mof_H 	H 	0.75	0.0431	0.6505	0.283
Mof_C 	C 	0.5947	0.151	0.96419	0.234
Mof_C 	C 	0.6154	0.2199	0.93412	-0.23
Mof_C 	C 	0.6175	0.1985	0.89137	0.055
Mof_H 	H 	0.6293	0.2445	0.8715	0.038
Mof_C 	C 	0.6025	0.1097	0.87573	-0.027
Mof_C 	C 	0.6065	0.0897	0.8302	-0.043
Mof_H 	H 	0.6163	0.1369	0.8105	0.052
Mof_C 	C 	0.5961	0.0026	0.81555	-0.044
Mof_H 	H 	0.5983	0.99	0.7858	0.04
Mof_C 	C 	0.5819	0.9309	0.8456	-0.019
Mof_H 	H 	0.5773	0.8706	0.8354	0.033
Mof_C 	C 	0.5747	0.9479	0.88906	-0.079
Mof_H 	H 	0.563	0.8999	0.9079	0.065
Mof_C 	C 	0.58507	0.0397	0.90603	0.056
Mof_C 	C 	0.57883	0.0619	0.95099	-0.053
Mof_C 	C 	0.5595	0.9904	0.98547	-0.101
Mof_H 	H 	0.5616	0.9296	0.9721	0.068
Mof_H 	H 	0.5948	0.9921	0.0082	0.083
Mof_C 	C 	0.489	0.0011	0.00669	-0.047
Mof_C 	C 	0.4801	0.9935	0.05331	0.057
Mof_C 	C 	0.5372	0.9823	0.08327	-0.099
Mof_H 	H 	0.5827	0.9807	0.0727	0.074
Mof_C 	C 	0.5258	0.9741	0.1261	0.008
Mof_H 	H 	0.5639	0.9654	0.1446	0.028
Mof_C 	C 	0.459	0.9779	0.1444	-0.071
Mof_H 	H 	0.4528	0.9715	0.1744	0.055
Mof_C 	C 	0.404	0.9909	0.11811	-0.019
Mof_H 	H 	0.3596	0.9954	0.1303	0.039
Mof_C 	C 	0.4117	0.9982	0.0718	-0.049
Mof_C 	C 	0.3544	0.0094	0.04496	0.069
Mof_H 	H 	0.3101	0.0128	0.0574	-0.015
Mof_C 	C 	0.3608	0.0156	0.00022	-0.228
Mof_C 	C 	0.4291	0.0071	0.9815	0.233
Mof_C 	C 	0.6342	0.3163	0.94898	0.497
Mof_C 	C 	0.2976	0.0233	0.97278	0.448
Mof_C 	C 	0.7325	0.8413	0.98255	0.232
Mof_C 	C 	0.7105	0.7691	0.01272	-0.202
Mof_C 	C 	0.7033	0.7886	0.05562	0.053
Mof_H 	H 	0.6896	0.7418	0.0746	0.027
Mof_C 	C 	0.7161	0.8785	0.07255	-0.048
Mof_C 	C 	0.7075	0.8964	0.11659	-0.012
Mof_H 	H 	0.695	0.8487	0.1354	0.04
Mof_C 	C 	0.7173	0.9824	0.1323	-0.079
Mof_H 	H 	0.7124	0.994	0.1621	0.057
Mof_C 	C 	0.7349	0.0552	0.1034	0.023
Mof_H 	H 	0.7389	0.1152	0.1141	0.013
Mof_C 	C 	0.7455	0.0394	0.0617	-0.117
Mof_H 	H 	0.7591	0.0882	0.0439	0.079
Mof_C 	C 	0.7371	0.9493	0.04271	0.088
Mof_C 	C 	0.7464	0.9297	0.99752	-0.097
Mof_C 	C 	0.7648	0.0024	0.96406	-0.027
Mof_H 	H 	0.764	0.0621	0.9785	0.047
Mof_H 	H 	0.7281	0.003	0.9422	0.054
Mof_C 	C 	0.8343	0.9933	0.94055	-0.088
Mof_C 	C 	0.8407	0.9968	0.89425	0.064
Mof_C 	C 	0.7816	0	0.8652	-0.094
Mof_H 	H 	0.7368	0.9937	0.8766	0.074
Mof_C 	C 	0.7898	0.0121	0.8212	0.006
Mof_H 	H 	0.7503	0.0172	0.8037	0.032
Mof_C 	C 	0.8561	0.0169	0.8018	-0.07
Mof_H 	H 	0.861	0.0243	0.7718	0.061
Mof_C 	C 	0.9134	0.0102	0.8284	-0.015
Mof_H 	H 	0.9577	0.0117	0.8159	0.043
Mof_C 	C 	0.9077	0.0012	0.87395	-0.053
Mof_C 	C 	0.967	0.9953	0.90001	0.085
Mof_H 	H 	0.0108	0.9944	0.8867	-0.014
Mof_C 	C 	0.9631	0.9908	0.94466	-0.262
Mof_C 	C 	0.897	0.9926	0.96462	0.259
Mof_C 	C 	0.6941	0.6723	0.99727	0.476
Mof_C 	C 	0.0284	0.9904	0.97124	0.486
Mof_C 	C 	0.6803	0.3428	0.77317	0.231
Mof_C 	C 	0.6458	0.43	0.76945	-0.203
Mof_C 	C 	0.6201	0.4552	0.73014	0.043
Mof_H 	H 	0.5982	0.5124	0.7276	0.028
Mof_C 	C 	0.6252	0.3988	0.69305	-0.045
Mof_C 	C 	0.5973	0.4248	0.65207	-0.01
Mof_H 	H 	0.5755	0.482	0.6491	0.036
Mof_C 	C 	0.6017	0.3671	0.61662	-0.08
Mof_H 	H 	0.5842	0.3852	0.5896	0.071
Mof_C 	C 	0.6324	0.282	0.62181	0.026
Mof_H 	H 	0.6342	0.2429	0.5977	0.026
Mof_C 	C 	0.6604	0.2513	0.6602	-0.122
Mof_H 	H 	0.6796	0.1923	0.6622	0.091
Mof_C 	C 	0.6597	0.312	0.69759	0.068
Mof_C 	C 	0.6883	0.2839	0.73755	-0.081
Mof_C 	C 	0.7283	0.1937	0.74298	-0.082
Mof_H 	H 	0.7394	0.1861	0.7737	0.078
Mof_H 	H 	0.6975	0.1432	0.7348	0.074
Mof_C 	C 	0.7955	0.1845	0.71692	-0.08
Mof_C 	C 	0.8552	0.2408	0.72708	0.059
Mof_C 	C 	0.8586	0.2999	0.76375	-0.109
Mof_H 	H 	0.8203	0.3043	0.7823	0.087
Mof_C 	C 	0.9176	0.3512	0.77256	0.008
Mof_H 	H 	0.9179	0.3911	0.7964	0.027
Mof_C 	C 	0.9761	0.3442	0.7466	-0.065
Mof_H 	H 	0.016	0.3782	0.7532	0.051
Mof_C 	C 	0.9752	0.2872	0.7113	-0.034
Mof_H 	H 	0.0148	0.2828	0.6938	0.047
Mof_C 	C 	0.9162	0.2352	0.70062	-0.027
Mof_C 	C 	0.9173	0.1734	0.66459	0.021
Mof_H 	H 	0.9565	0.1708	0.6467	0.041
Mof_C 	C 	0.8611	0.1176	0.65594	-0.178
Mof_C 	C 	0.8009	0.1214	0.68346	0.233
Mof_C 	C 	0.6351	0.4952	0.80747	0.417
Mof_C 	C 	0.8637	0.057	0.61668	0.357
Mof_Dy	Dy	0.85892	0.96287	0.53661	1.851
Mof_Dy	Dy	0.81381	0.02532	0.41236	1.883
Mof_O 	O 	0.837	0.86861	0.42085	-0.499
Mof_O 	O 	0.87956	0.8397	0.48754	-0.546
Mof_O 	O 	0.90975	0.6684	0.508	-0.434
Mof_H 	H 	0.9008	0.7229	0.5126	0.252
Mof_O 	O 	0.2626	0.5294	0.48948	-0.591
Mof_O 	O 	0.19696	0.5198	0.4313	-0.507
Mof_O 	O 	0.06314	0.5066	0.43756	-0.442
Mof_H 	H 	0.1016	0.5117	0.4259	0.284
Mof_O 	O 	0.83201	0.1185	0.52331	-0.509
Mof_O 	O 	0.79265	0.1537	0.45666	-0.537
Mof_O 	O 	0.76127	0.3242	0.43896	-0.428
Mof_H 	H 	0.7423	0.274	0.4353	0.251
Mof_O 	O 	0.41296	0.4801	0.45296	-0.595
Mof_O 	O 	0.47505	0.5016	0.5117	-0.5
Mof_O 	O 	0.61005	0.4943	0.50871	-0.448
Mof_H 	H 	0.5717	0.4871	0.5201	0.288
Mof_O 	O 	0.8926	0.0695	0.30177	-0.335
Mof_O 	O 	0.8402	0.9672	0.34455	-0.527
Mof_O 	O 	0.7941	0.8149	0.31325	-0.438
Mof_H 	H 	0.7957	0.8583	0.3304	0.277
Mof_O 	O 	0.58306	0.5538	0.09373	-0.421
Mof_O 	O 	0.69057	0.5095	0.10618	-0.47
Mof_O 	O 	0.75302	0.5631	0.17551	-0.448
Mof_H 	H 	0.75	0.5431	0.1505	0.283
Mof_C 	C 	0.9053	0.651	0.46419	0.256
Mof_C 	C 	0.8846	0.7199	0.43412	-0.24
Mof_C 	C 	0.8825	0.6985	0.39137	0.068
Mof_H 	H 	0.8707	0.7445	0.3715	0.033
Mof_C 	C 	0.8975	0.6097	0.37573	-0.043
Mof_C 	C 	0.8935	0.5897	0.3302	-0.025
Mof_H 	H 	0.8837	0.6369	0.3105	0.046
Mof_C 	C 	0.9039	0.5026	0.31555	-0.069
Mof_H 	H 	0.9017	0.49	0.2858	0.051
Mof_C 	C 	0.9181	0.4309	0.3456	0.002
Mof_H 	H 	0.9227	0.3706	0.3354	0.026
Mof_C 	C 	0.9253	0.4479	0.38906	-0.094
Mof_H 	H 	0.937	0.3999	0.4079	0.072
Mof_C 	C 	0.91493	0.5397	0.40603	0.072
Mof_C 	C 	0.92117	0.5619	0.45099	-0.08
Mof_C 	C 	0.9405	0.4904	0.48547	-0.032
Mof_H 	H 	0.9384	0.4296	0.4721	0.05
Mof_H 	H 	0.9052	0.4921	0.5082	0.055
Mof_C 	C 	0.011	0.5011	0.50669	-0.094
Mof_C 	C 	0.0199	0.4935	0.55331	0.084
Mof_C 	C 	0.9628	0.4823	0.58327	-0.124
Mof_H 	H 	0.9173	0.4807	0.5727	0.083
Mof_C 	C 	0.9742	0.4741	0.6261	0.03
Mof_H 	H 	0.9361	0.4654	0.6446	0.02
Mof_C 	C 	0.041	0.4779	0.6444	-0.093
Mof_H 	H 	0.0472	0.4715	0.6744	0.062
Mof_C 	C 	0.096	0.4909	0.61811	0.003
Mof_H 	H 	0.1404	0.4954	0.6303	0.031
Mof_C 	C 	0.0883	0.4982	0.5718	-0.076
Mof_C 	C 	0.1456	0.5094	0.54496	0.097
Mof_H 	H 	0.1899	0.5128	0.5574	-0.026
Mof_C 	C 	0.1392	0.5156	0.50022	-0.263
Mof_C 	C 	0.0709	0.5071	0.4815	0.272
Mof_C 	C 	0.8658	0.8163	0.44898	0.501
Mof_C 	C 	0.2024	0.5233	0.47278	0.465
Mof_C 	C 	0.7675	0.3413	0.48255	0.245
Mof_C 	C 	0.7895	0.2691	0.51272	-0.229
Mof_C 	C 	0.7967	0.2886	0.55562	0.063
Mof_H 	H 	0.8104	0.2418	0.5746	0.023
Mof_C 	C 	0.7839	0.3785	0.57255	-0.048
Mof_C 	C 	0.7925	0.3964	0.61659	-0.013
Mof_H 	H 	0.805	0.3487	0.6354	0.04
Mof_C 	C 	0.7827	0.4824	0.6323	-0.077
Mof_H 	H 	0.7876	0.494	0.6621	0.056
Mof_C 	C 	0.7651	0.5552	0.6034	0.018
Mof_H 	H 	0.7611	0.6152	0.6141	0.014
Mof_C 	C 	0.7545	0.5394	0.5617	-0.107
Mof_H 	H 	0.7409	0.5882	0.5439	0.074
Mof_C 	C 	0.7629	0.4493	0.54271	0.074
Mof_C 	C 	0.7536	0.4297	0.49752	-0.083
Mof_C 	C 	0.7352	0.5024	0.46406	-0.033
Mof_H 	H 	0.736	0.5621	0.4785	0.051
Mof_H 	H 	0.7719	0.503	0.4422	0.055
Mof_C 	C 	0.6657	0.4933	0.44055	-0.094
Mof_C 	C 	0.6593	0.4968	0.39425	0.082
Mof_C 	C 	0.7184	0.5	0.3652	-0.116
Mof_H 	H 	0.7632	0.4937	0.3766	0.083
Mof_C 	C 	0.7102	0.5121	0.3212	0.024
Mof_H 	H 	0.7497	0.5172	0.3037	0.025
Mof_C 	C 	0.6439	0.5169	0.3018	-0.087
Mof_H 	H 	0.639	0.5243	0.2718	0.066
Mof_C 	C 	0.5866	0.5102	0.3284	0.001
Mof_H 	H 	0.5423	0.5117	0.3159	0.037
Mof_C 	C 	0.5923	0.5012	0.37395	-0.073
Mof_C 	C 	0.533	0.4953	0.40001	0.104
Mof_H 	H 	0.4892	0.4944	0.3867	-0.02
Mof_C 	C 	0.5369	0.4908	0.44466	-0.276
Mof_C 	C 	0.603	0.4926	0.46462	0.278
Mof_C 	C 	0.8059	0.1723	0.49727	0.504
Mof_C 	C 	0.4716	0.4904	0.47124	0.505
Mof_C 	C 	0.8197	0.8428	0.27317	0.232
Mof_C 	C 	0.8542	0.93	0.26945	-0.204
Mof_C 	C 	0.8799	0.9552	0.23014	0.047
Mof_H 	H 	0.9018	0.0124	0.2276	0.026
Mof_C 	C 	0.8748	0.8988	0.19305	-0.047
Mof_C 	C 	0.9027	0.9248	0.15207	-0.009
Mof_H 	H 	0.9245	0.982	0.1491	0.036
Mof_C 	C 	0.8983	0.8671	0.11662	-0.081
Mof_H 	H 	0.9158	0.8852	0.0896	0.072
Mof_C 	C 	0.8676	0.782	0.12181	0.027
Mof_H 	H 	0.8658	0.7429	0.0977	0.026
Mof_C 	C 	0.8396	0.7513	0.1602	-0.122
Mof_H 	H 	0.8204	0.6923	0.1622	0.091
Mof_C 	C 	0.8403	0.812	0.19759	0.069
Mof_C 	C 	0.8117	0.7839	0.23755	-0.082
Mof_C 	C 	0.7717	0.6937	0.24298	-0.081
Mof_H 	H 	0.7606	0.6861	0.2737	0.078
Mof_H 	H 	0.8025	0.6432	0.2348	0.074
Mof_C 	C 	0.7045	0.6845	0.21692	-0.08
Mof_C 	C 	0.6448	0.7408	0.22708	0.059
Mof_C 	C 	0.6414	0.7999	0.26375	-0.109
Mof_H 	H 	0.6797	0.8043	0.2823	0.087
Mof_C 	C 	0.5824	0.8512	0.27256	0.008
Mof_H 	H 	0.5821	0.8911	0.2964	0.027
Mof_C 	C 	0.5239	0.8442	0.2466	-0.064
Mof_H 	H 	0.484	0.8782	0.2532	0.051
Mof_C 	C 	0.5248	0.7872	0.2113	-0.033
Mof_H 	H 	0.4852	0.7828	0.1938	0.047
Mof_C 	C 	0.5838	0.7352	0.20062	-0.027
Mof_C 	C 	0.5827	0.6734	0.16459	0.021
Mof_H 	H 	0.5435	0.6708	0.1467	0.041
Mof_C 	C 	0.6389	0.6176	0.15594	-0.179
Mof_C 	C 	0.6991	0.6214	0.18346	0.233
Mof_C 	C 	0.8649	0.9952	0.30747	0.419
Mof_C 	C 	0.6363	0.557	0.11668	0.357
Mof_Dy	Dy	0.14108	0.03713	0.03661	1.861
Mof_Dy	Dy	0.18619	0.97468	0.91236	1.871
Mof_O 	O 	0.163	0.13139	0.92085	-0.497
Mof_O 	O 	0.12044	0.1603	0.98754	-0.551
Mof_O 	O 	0.09025	0.3316	0.008	-0.422
Mof_H 	H 	0.0992	0.2771	0.0126	0.252
Mof_O 	O 	0.7374	0.4706	0.98948	-0.592
Mof_O 	O 	0.80304	0.4802	0.9313	-0.502
Mof_O 	O 	0.93686	0.4934	0.93756	-0.43
Mof_H 	H 	0.8984	0.4883	0.9259	0.278
Mof_O 	O 	0.16799	0.8815	0.02331	-0.494
Mof_O 	O 	0.20735	0.8463	0.95666	-0.531
Mof_O 	O 	0.23873	0.6758	0.93896	-0.424
Mof_H 	H 	0.2577	0.726	0.9353	0.248
Mof_O 	O 	0.58704	0.5199	0.95296	-0.593
Mof_O 	O 	0.52495	0.4984	0.0117	-0.49
Mof_O 	O 	0.38995	0.5057	0.00871	-0.435
Mof_H 	H 	0.4283	0.5129	0.0201	0.285
Mof_O 	O 	0.1074	0.9305	0.80177	-0.337
Mof_O 	O 	0.1598	0.0328	0.84455	-0.526
Mof_O 	O 	0.2059	0.1851	0.81325	-0.439
Mof_H 	H 	0.2043	0.1417	0.8304	0.277
Mof_O 	O 	0.41694	0.4462	0.59373	-0.42
Mof_O 	O 	0.30943	0.4905	0.60618	-0.469
Mof_O 	O 	0.24698	0.4369	0.67551	-0.448
Mof_H 	H 	0.25	0.4569	0.6505	0.283
Mof_C 	C 	0.0947	0.349	0.96419	0.236
Mof_C 	C 	0.1154	0.2801	0.93412	-0.231
Mof_C 	C 	0.1175	0.3015	0.89137	0.058
Mof_H 	H 	0.1293	0.2555	0.8715	0.037
Mof_C 	C 	0.1025	0.3903	0.87573	-0.033
Mof_C 	C 	0.1065	0.4103	0.8302	-0.033
Mof_H 	H 	0.1163	0.3631	0.8105	0.049
Mof_C 	C 	0.0961	0.4974	0.81555	-0.06
Mof_H 	H 	0.0983	0.51	0.7858	0.048
Mof_C 	C 	0.0819	0.5691	0.8456	-0.007
Mof_H 	H 	0.0773	0.6294	0.8354	0.029
Mof_C 	C 	0.0747	0.5521	0.88906	-0.083
Mof_H 	H 	0.063	0.6001	0.9079	0.067
Mof_C 	C 	0.08507	0.4603	0.90603	0.058
Mof_C 	C 	0.07883	0.4381	0.95099	-0.058
Mof_C 	C 	0.0595	0.5096	0.98547	-0.092
Mof_H 	H 	0.0616	0.5704	0.9721	0.066
Mof_H 	H 	0.0948	0.5079	0.0082	0.08
Mof_C 	C 	0.989	0.4989	0.00669	-0.047
Mof_C 	C 	0.9801	0.5065	0.05331	0.055
Mof_C 	C 	0.0372	0.5177	0.08327	-0.098
Mof_H 	H 	0.0827	0.5193	0.0727	0.073
Mof_C 	C 	0.0258	0.5259	0.1261	0.009
Mof_H 	H 	0.0639	0.5346	0.1446	0.028
Mof_C 	C 	0.959	0.5221	0.1444	-0.072
Mof_H 	H 	0.9528	0.5285	0.1744	0.055
Mof_C 	C 	0.904	0.5091	0.11811	-0.019
Mof_H 	H 	0.8596	0.5046	0.1303	0.038
Mof_C 	C 	0.9117	0.5018	0.0718	-0.05
Mof_C 	C 	0.8544	0.4906	0.04496	0.068
Mof_H 	H 	0.8101	0.4872	0.0574	-0.015
Mof_C 	C 	0.8608	0.4844	0.00022	-0.223
Mof_C 	C 	0.9291	0.4929	0.9815	0.229
Mof_C 	C 	0.1342	0.1837	0.94898	0.497
Mof_C 	C 	0.7976	0.4767	0.97278	0.446
Mof_C 	C 	0.2325	0.6587	0.98255	0.23
Mof_C 	C 	0.2105	0.7309	0.01272	-0.2
Mof_C 	C 	0.2033	0.7114	0.05562	0.05
Mof_H 	H 	0.1896	0.7582	0.0746	0.027
Mof_C 	C 	0.2161	0.6215	0.07255	-0.046
Mof_C 	C 	0.2075	0.6036	0.11659	-0.014
Mof_H 	H 	0.195	0.6513	0.1354	0.041
Mof_C 	C 	0.2173	0.5176	0.1323	-0.079
Mof_H 	H 	0.2124	0.506	0.1621	0.057
Mof_C 	C 	0.2349	0.4448	0.1034	0.022
Mof_H 	H 	0.2389	0.3848	0.1141	0.013
Mof_C 	C 	0.2455	0.4606	0.0617	-0.113
Mof_H 	H 	0.2591	0.4118	0.0439	0.078
Mof_C 	C 	0.2371	0.5507	0.04271	0.084
Mof_C 	C 	0.2464	0.5703	0.99752	-0.091
Mof_C 	C 	0.2648	0.4976	0.96406	-0.032
Mof_H 	H 	0.264	0.4379	0.9785	0.048
Mof_H 	H 	0.2281	0.497	0.9422	0.054
Mof_C 	C 	0.3343	0.5067	0.94055	-0.091
Mof_C 	C 	0.3407	0.5032	0.89425	0.079
Mof_C 	C 	0.2816	0.5	0.8652	-0.113
Mof_H 	H 	0.2368	0.5063	0.8766	0.082
Mof_C 	C 	0.2898	0.4879	0.8212	0.021
Mof_H 	H 	0.2503	0.4828	0.8037	0.026
Mof_C 	C 	0.3561	0.4831	0.8018	-0.084
Mof_H 	H 	0.361	0.4757	0.7718	0.065
Mof_C 	C 	0.4134	0.4898	0.8284	-0.002
Mof_H 	H 	0.4577	0.4883	0.8159	0.038
Mof_C 	C 	0.4077	0.4988	0.87395	-0.069
Mof_C 	C 	0.467	0.5047	0.90001	0.098
Mof_H 	H 	0.5108	0.5056	0.8867	-0.017
Mof_C 	C 	0.4631	0.5092	0.94466	-0.268
Mof_C 	C 	0.397	0.5074	0.96462	0.264
Mof_C 	C 	0.1941	0.8277	0.99727	0.474
Mof_C 	C 	0.5284	0.5096	0.97124	0.49
Mof_C 	C 	0.1803	0.1572	0.77317	0.233
Mof_C 	C 	0.1458	0.07	0.76945	-0.206
Mof_C 	C 	0.1201	0.0448	0.73014	0.051
Mof_H 	H 	0.0982	0.9876	0.7276	0.024
Mof_C 	C 	0.1252	0.1012	0.69305	-0.048
Mof_C 	C 	0.0973	0.0752	0.65207	-0.007
Mof_H 	H 	0.0755	0.018	0.6491	0.036
Mof_C 	C 	0.1017	0.1329	0.61662	-0.083
Mof_H 	H 	0.0842	0.1148	0.5896	0.072
Mof_C 	C 	0.1324	0.218	0.62181	0.029
Mof_H 	H 	0.1342	0.2571	0.5977	0.025
Mof_C 	C 	0.1604	0.2487	0.6602	-0.124
Mof_H 	H 	0.1796	0.3077	0.6622	0.092
Mof_C 	C 	0.1597	0.188	0.69759	0.07
Mof_C 	C 	0.1883	0.2161	0.73755	-0.083
Mof_C 	C 	0.2283	0.3063	0.74298	-0.081
Mof_H 	H 	0.2394	0.3139	0.7737	0.078
Mof_H 	H 	0.1975	0.3568	0.7348	0.074
Mof_C 	C 	0.2955	0.3155	0.71692	-0.08
Mof_C 	C 	0.3552	0.2592	0.72708	0.059
Mof_C 	C 	0.3586	0.2001	0.76375	-0.109
Mof_H 	H 	0.3203	0.1957	0.7823	0.087
Mof_C 	C 	0.4176	0.1488	0.77256	0.008
Mof_H 	H 	0.4179	0.1089	0.7964	0.028
Mof_C 	C 	0.4761	0.1558	0.7466	-0.064
Mof_H 	H 	0.516	0.1218	0.7532	0.051
Mof_C 	C 	0.4752	0.2128	0.7113	-0.033
Mof_H 	H 	0.5148	0.2172	0.6938	0.047
Mof_C 	C 	0.4162	0.2648	0.70062	-0.027
Mof_C 	C 	0.4173	0.3266	0.66459	0.022
Mof_H 	H 	0.4565	0.3292	0.6467	0.041
Mof_C 	C 	0.3611	0.3824	0.65594	-0.179
Mof_C 	C 	0.3009	0.3786	0.68346	0.233
Mof_C 	C 	0.1351	0.0048	0.80747	0.422
Mof_C 	C 	0.3637	0.443	0.61668	0.357
_end
