data_functionalizedCrystal
_audit_creation_method	'EQeq! by Chris Wilmer'
_symmetry_space_group_name_H-M	'P1'
_symmetry_Int_Tables_number	1
_symmetry_cell_setting	triclinic
loop_
_symmetry_equiv_pos_as_xyz
  x,y,z
_cell_length_a	14.056
_cell_length_b	14.056
_cell_length_c	18.099
_cell_angle_alpha	90
_cell_angle_beta	90
_cell_angle_gamma	120
loop_
_atom_site_label
_atom_site_type_symbol
_atom_site_fract_x
_atom_site_fract_y
_atom_site_fract_z
_atom_site_charge
Mof_Sc	Sc	0.74986	0.49972	0.75	1.584
Mof_Sc	Sc	0.74986	0.25014	0.75	1.584
Mof_Sc	Sc	0.50028	0.25014	0.75	1.584
Mof_Sc	Sc	0.25014	0.50028	0.25	1.584
Mof_Sc	Sc	0.25014	0.74986	0.25	1.584
Mof_Sc	Sc	0.49972	0.74986	0.25	1.584
Mof_H 	H 	0.3791	0.3329	0.9433	0.035
Mof_H 	H 	0.9538	0.6209	0.9433	0.035
Mof_H 	H 	0.6671	0.0462	0.9433	0.035
Mof_H 	H 	0.6209	0.6671	0.4433	0.035
Mof_H 	H 	0.0462	0.3791	0.4433	0.035
Mof_H 	H 	0.3329	0.9538	0.4433	0.035
Mof_H 	H 	0.0462	0.6671	0.0567	0.035
Mof_H 	H 	0.3329	0.3791	0.0567	0.035
Mof_H 	H 	0.6209	0.9538	0.0567	0.034
Mof_H 	H 	0.9538	0.3329	0.5567	0.034
Mof_H 	H 	0.6671	0.6209	0.5567	0.034
Mof_H 	H 	0.3791	0.0462	0.5567	0.034
Mof_H 	H 	0.6209	0.6671	0.0567	0.034
Mof_H 	H 	0.0462	0.3791	0.0567	0.034
Mof_H 	H 	0.3329	0.9538	0.0567	0.034
Mof_H 	H 	0.3791	0.3329	0.5567	0.034
Mof_H 	H 	0.9538	0.6209	0.5567	0.034
Mof_H 	H 	0.6671	0.0462	0.5567	0.034
Mof_H 	H 	0.9538	0.3329	0.9433	0.034
Mof_H 	H 	0.6671	0.6209	0.9433	0.034
Mof_H 	H 	0.3791	0.0462	0.9433	0.034
Mof_H 	H 	0.0462	0.6671	0.4433	0.034
Mof_H 	H 	0.3329	0.3791	0.4433	0.034
Mof_H 	H 	0.6209	0.9538	0.4433	0.034
Mof_C 	C 	0.4283	0.4007	0.96638	-0.007
Mof_C 	C 	0.9724	0.5717	0.96638	-0.007
Mof_C 	C 	0.5993	0.0276	0.96638	-0.007
Mof_C 	C 	0.5717	0.5993	0.46638	-0.007
Mof_C 	C 	0.0276	0.4283	0.46638	-0.007
Mof_C 	C 	0.4007	0.9724	0.46638	-0.007
Mof_C 	C 	0.0276	0.5993	0.03362	-0.007
Mof_C 	C 	0.4007	0.4283	0.03362	-0.007
Mof_C 	C 	0.5717	0.9724	0.03362	-0.007
Mof_C 	C 	0.9724	0.4007	0.53362	-0.007
Mof_C 	C 	0.5993	0.5717	0.53362	-0.007
Mof_C 	C 	0.4283	0.0276	0.53362	-0.007
Mof_C 	C 	0.5717	0.5993	0.03362	-0.007
Mof_C 	C 	0.0276	0.4283	0.03362	-0.007
Mof_C 	C 	0.4007	0.9724	0.03362	-0.007
Mof_C 	C 	0.4283	0.4007	0.53362	-0.007
Mof_C 	C 	0.9724	0.5717	0.53362	-0.007
Mof_C 	C 	0.5993	0.0276	0.53362	-0.007
Mof_C 	C 	0.9724	0.4007	0.96638	-0.007
Mof_C 	C 	0.5993	0.5717	0.96638	-0.007
Mof_C 	C 	0.4283	0.0276	0.96638	-0.007
Mof_C 	C 	0.0276	0.5993	0.46638	-0.007
Mof_C 	C 	0.4007	0.4283	0.46638	-0.007
Mof_C 	C 	0.5717	0.9724	0.46638	-0.007
Mof_C 	C 	0.5582	0.4418	0.86118	0.452
Mof_C 	C 	0.5277	0.4723	0.93294	-0.119
Mof_C 	C 	0.8836	0.4418	0.86118	0.452
Mof_C 	C 	0.9446	0.4723	0.93294	-0.119
Mof_C 	C 	0.5582	0.1164	0.86118	0.452
Mof_C 	C 	0.5277	0.0554	0.93294	-0.119
Mof_C 	C 	0.4418	0.5582	0.36118	0.452
Mof_C 	C 	0.4723	0.5277	0.43294	-0.119
Mof_C 	C 	0.1164	0.5582	0.36118	0.452
Mof_C 	C 	0.0554	0.5277	0.43294	-0.119
Mof_C 	C 	0.4418	0.8836	0.36118	0.452
Mof_C 	C 	0.4723	0.9446	0.43294	-0.119
Mof_C 	C 	0.1164	0.5582	0.13882	0.452
Mof_C 	C 	0.0554	0.5277	0.06706	-0.119
Mof_C 	C 	0.4418	0.5582	0.13882	0.452
Mof_C 	C 	0.4723	0.5277	0.06706	-0.119
Mof_C 	C 	0.4418	0.8836	0.13882	0.452
Mof_C 	C 	0.4723	0.9446	0.06706	-0.119
Mof_C 	C 	0.8836	0.4418	0.63882	0.452
Mof_C 	C 	0.9446	0.4723	0.56706	-0.119
Mof_C 	C 	0.5582	0.4418	0.63882	0.452
Mof_C 	C 	0.5277	0.4723	0.56706	-0.119
Mof_C 	C 	0.5582	0.1164	0.63882	0.452
Mof_C 	C 	0.5277	0.0554	0.56706	-0.119
Mof_O 	O 	0.65063	0.5093	0.83341	-0.522
Mof_O 	O 	0.85867	0.34937	0.83341	-0.522
Mof_O 	O 	0.4907	0.14133	0.83341	-0.522
Mof_O 	O 	0.34937	0.4907	0.33341	-0.522
Mof_O 	O 	0.14133	0.65063	0.33341	-0.522
Mof_O 	O 	0.5093	0.85867	0.33341	-0.522
Mof_O 	O 	0.14133	0.4907	0.16659	-0.522
Mof_O 	O 	0.5093	0.65063	0.16659	-0.522
Mof_O 	O 	0.34937	0.85867	0.16659	-0.522
Mof_O 	O 	0.85867	0.5093	0.66659	-0.522
Mof_O 	O 	0.4907	0.34937	0.66659	-0.522
Mof_O 	O 	0.65063	0.14133	0.66659	-0.522
Mof_O 	O 	0.34937	0.4907	0.16659	-0.522
Mof_O 	O 	0.14133	0.65063	0.16659	-0.522
Mof_O 	O 	0.5093	0.85867	0.16659	-0.522
Mof_O 	O 	0.65063	0.5093	0.66659	-0.522
Mof_O 	O 	0.85867	0.34937	0.66659	-0.522
Mof_O 	O 	0.4907	0.14133	0.66659	-0.522
Mof_O 	O 	0.85867	0.5093	0.83341	-0.522
Mof_O 	O 	0.4907	0.34937	0.83341	-0.522
Mof_O 	O 	0.65063	0.14133	0.83341	-0.522
Mof_O 	O 	0.14133	0.4907	0.33341	-0.522
Mof_O 	O 	0.5093	0.65063	0.33341	-0.522
Mof_O 	O 	0.34937	0.85867	0.33341	-0.522
Mof_O 	O 	0.66667	0.33334	0.75	-0.814
Mof_O 	O 	0.33333	0.66666	0.25	-0.814
_end
