data_functionalizedCrystal
_audit_creation_method	'EQeq! by Chris Wilmer'
_symmetry_space_group_name_H-M	'P1'
_symmetry_Int_Tables_number	1
_symmetry_cell_setting	triclinic
loop_
_symmetry_equiv_pos_as_xyz
  x,y,z
_cell_length_a	17.2151
_cell_length_b	30.2078
_cell_length_c	30.2078
_cell_angle_alpha	85.3428
_cell_angle_beta	73.4445
_cell_angle_gamma	73.4445
loop_
_atom_site_label
_atom_site_type_symbol
_atom_site_fract_x
_atom_site_fract_y
_atom_site_fract_z
_atom_site_charge
Mof_Mn	Mn	0.87033	0.87979	0.02875	1.013
Mof_Mn	Mn	0.79182	0.00089	0.92057	1.063
Mof_Mn	Mn	0.99709	0.91651	0.14135	1.058
Mof_Mn	Mn	0.27887	0.62021	0.47125	1.014
Mof_Mn	Mn	0.21328	0.49911	0.57943	1.063
Mof_Mn	Mn	0.55495	0.58349	0.35865	1.059
Mof_Mn	Mn	0.89908	0.97125	0.37979	1.013
Mof_Mn	Mn	0.71239	0.07943	0.50089	1.063
Mof_Mn	Mn	0.13844	0.85865	0.41651	1.06
Mof_Mn	Mn	0.75012	0.52875	0.12021	1.014
Mof_Mn	Mn	0.79271	0.42057	0.99911	1.063
Mof_Mn	Mn	0.9136	0.64135	0.08349	1.059
Mof_Mn	Mn	0.12967	0.12021	0.97125	1.013
Mof_Mn	Mn	0.20818	0.99911	0.07943	1.063
Mof_Mn	Mn	0.00291	0.08349	0.85865	1.058
Mof_Mn	Mn	0.72113	0.37979	0.52875	1.014
Mof_Mn	Mn	0.78672	0.50089	0.42057	1.063
Mof_Mn	Mn	0.44505	0.41651	0.64135	1.059
Mof_Mn	Mn	0.10092	0.02875	0.62021	1.013
Mof_Mn	Mn	0.28761	0.92057	0.49911	1.063
Mof_Mn	Mn	0.86156	0.14135	0.58349	1.06
Mof_Mn	Mn	0.24988	0.47125	0.87979	1.014
Mof_Mn	Mn	0.20729	0.57943	0.00089	1.063
Mof_Mn	Mn	0.0864	0.35865	0.91651	1.059
Mof_H 	H 	0.6445	0.892	0.1422	0.128
Mof_H 	H 	0.5087	0.9366	0.1518	-0.022
Mof_H 	H 	0.4684	0.9829	0.0911	0.1
Mof_H 	H 	0.572	0.986	0.0212	0.003
Mof_H 	H 	0.0252	0.9492	0.9092	0.067
Mof_H 	H 	0.9877	0.926	0.8776	0.058
Mof_H 	H 	0.0794	0.8578	0.8802	0.1
Mof_H 	H 	0.1318	0.8954	0.869	0.096
Mof_H 	H 	0.1088	0.8747	0.9201	0.105
Mof_H 	H 	0.7763	0.9292	0.8058	0.139
Mof_H 	H 	0.8409	0.9287	0.7285	-0.039
Mof_H 	H 	0.9398	0.9717	0.6983	0.113
Mof_H 	H 	0.9716	0.0124	0.7494	-0.003
Mof_H 	H 	0.8923	0.1186	0.9592	0.054
Mof_H 	H 	0.8856	0.0832	0.0014	0.061
Mof_H 	H 	0.7316	0.1173	0.0041	0.111
Mof_H 	H 	0.7792	0.1352	0.0344	0.096
Mof_H 	H 	0.7689	0.1605	0.9869	0.101
Mof_H 	H 	0.631	0.0664	0.9812	-0.004
Mof_H 	H 	0.5193	0.1328	0.9804	0.091
Mof_H 	H 	0.6102	0.1354	0.8444	0.102
Mof_H 	H 	0.7148	0.0696	0.8478	-0.022
Mof_H 	H 	0.4655	0.1788	0.876	0.075
Mof_H 	H 	0.4985	0.2091	0.9035	0.072
Mof_H 	H 	0.1222	0.7859	0.1929	0.144
Mof_H 	H 	0.119	0.7127	0.1843	-0.04
Mof_H 	H 	0.0488	0.6958	0.1348	0.121
Mof_H 	H 	0.9815	0.7561	0.0943	0
Mof_H 	H 	0.841	0.9906	0.0366	0.079
Mof_H 	H 	0.8756	0.0259	0.0575	0.082
Mof_H 	H 	0.7266	0.9948	0.1112	0.104
Mof_H 	H 	0.7179	0.0451	0.0885	0.103
Mof_H 	H 	0.7599	0.0317	0.1303	0.107
Mof_H 	H 	0.1555	0.2498	0.9072	-0.002
Mof_H 	H 	0.2636	0.1879	0.9175	0.105
Mof_H 	H 	0.382	0.2797	0.9369	0.087
Mof_H 	H 	0.2708	0.338	0.9234	-0.012
Mof_H 	H 	0.3907	0.1581	0.9443	0.064
Mof_H 	H 	0.4175	0.1947	0.9681	0.056
Mof_H 	H 	0.1787	0.608	0.3578	0.128
Mof_H 	H 	0.0971	0.5634	0.3482	-0.022
Mof_H 	H 	0.0424	0.5171	0.4089	0.1
Mof_H 	H 	0.0792	0.514	0.4788	0.003
Mof_H 	H 	0.3836	0.5508	0.5908	0.067
Mof_H 	H 	0.2913	0.574	0.6224	0.058
Mof_H 	H 	0.3174	0.6422	0.6198	0.1
Mof_H 	H 	0.3962	0.6046	0.631	0.095
Mof_H 	H 	0.4036	0.6253	0.5799	0.104
Mof_H 	H 	0.0113	0.5708	0.6942	0.139
Mof_H 	H 	0.9981	0.5713	0.7715	-0.039
Mof_H 	H 	0.1098	0.5283	0.8017	0.113
Mof_H 	H 	0.2334	0.4876	0.7506	-0.003
Mof_H 	H 	0.4701	0.3814	0.5408	0.052
Mof_H 	H 	0.4702	0.4168	0.4986	0.059
Mof_H 	H 	0.353	0.3827	0.4959	0.112
Mof_H 	H 	0.4488	0.3648	0.4656	0.098
Mof_H 	H 	0.4163	0.3395	0.5131	0.103
Mof_H 	H 	0.1786	0.4336	0.5188	-0.003
Mof_H 	H 	0.1325	0.3672	0.5196	0.09
Mof_H 	H 	0.09	0.3646	0.6556	0.102
Mof_H 	H 	0.1322	0.4304	0.6522	-0.022
Mof_H 	H 	0.0203	0.3212	0.624	0.075
Mof_H 	H 	0.1111	0.2909	0.5965	0.071
Mof_H 	H 	0.601	0.7141	0.3071	0.144
Mof_H 	H 	0.516	0.7873	0.3157	-0.04
Mof_H 	H 	0.3794	0.8042	0.3652	0.12
Mof_H 	H 	0.3319	0.7439	0.4057	0.001
Mof_H 	H 	0.3682	0.5094	0.4634	0.081
Mof_H 	H 	0.459	0.4741	0.4425	0.083
Mof_H 	H 	0.3326	0.5052	0.3888	0.105
Mof_H 	H 	0.3515	0.4549	0.4115	0.103
Mof_H 	H 	0.4219	0.4683	0.3697	0.106
Mof_H 	H 	0.8125	0.2502	0.5928	-0.002
Mof_H 	H 	0.869	0.3121	0.5825	0.106
Mof_H 	H 	0.0986	0.2203	0.5631	0.088
Mof_H 	H 	0.0322	0.162	0.5766	-0.013
Mof_H 	H 	0.9931	0.3419	0.5557	0.065
Mof_H 	H 	0.0803	0.3053	0.5319	0.057
Mof_H 	H 	0.7867	0.8578	0.392	0.128
Mof_H 	H 	0.6605	0.8482	0.4366	-0.022
Mof_H 	H 	0.5595	0.9089	0.4829	0.1
Mof_H 	H 	0.5932	0.9788	0.486	0.003
Mof_H 	H 	0.9344	0.0908	0.4492	0.068
Mof_H 	H 	0.8653	0.1224	0.426	0.059
Mof_H 	H 	0.9596	0.1198	0.3578	0.098
Mof_H 	H 	0.0008	0.131	0.3954	0.093
Mof_H 	H 	0.0289	0.0799	0.3747	0.103
Mof_H 	H 	0.5821	0.1942	0.4292	0.139
Mof_H 	H 	0.5694	0.2715	0.4287	-0.039
Mof_H 	H 	0.6381	0.3017	0.4717	0.113
Mof_H 	H 	0.721	0.2506	0.5124	-0.003
Mof_H 	H 	0.8515	0.0408	0.6186	0.052
Mof_H 	H 	0.887	0.9986	0.5832	0.058
Mof_H 	H 	0.7357	0.9959	0.6173	0.113
Mof_H 	H 	0.8136	0.9656	0.6352	0.099
Mof_H 	H 	0.7558	0.0131	0.6605	0.104
Mof_H 	H 	0.6122	0.0188	0.5664	-0.003
Mof_H 	H 	0.4997	0.0196	0.6328	0.091
Mof_H 	H 	0.4546	0.1556	0.6354	0.102
Mof_H 	H 	0.5626	0.1522	0.5696	-0.022
Mof_H 	H 	0.3415	0.124	0.6788	0.075
Mof_H 	H 	0.402	0.0965	0.7091	0.072
Mof_H 	H 	0.3151	0.8071	0.2859	0.144
Mof_H 	H 	0.3033	0.8157	0.2127	-0.04
Mof_H 	H 	0.1836	0.8652	0.1958	0.12
Mof_H 	H 	0.0758	0.9057	0.2561	0.001
Mof_H 	H 	0.8776	0.9634	0.4906	0.081
Mof_H 	H 	0.9331	0.9425	0.5259	0.083
Mof_H 	H 	0.8378	0.8888	0.4948	0.105
Mof_H 	H 	0.8064	0.9115	0.5451	0.103
Mof_H 	H 	0.8902	0.8697	0.5317	0.106
Mof_H 	H 	0.0627	0.0928	0.7498	-0.002
Mof_H 	H 	0.1811	0.0825	0.6879	0.105
Mof_H 	H 	0.3189	0.0631	0.7797	0.087
Mof_H 	H 	0.1942	0.0766	0.838	-0.012
Mof_H 	H 	0.335	0.0557	0.6581	0.064
Mof_H 	H 	0.3856	0.0319	0.6947	0.056
Mof_H 	H 	0.5365	0.6422	0.108	0.128
Mof_H 	H 	0.4453	0.6518	0.0634	-0.022
Mof_H 	H 	0.4513	0.5911	0.0171	0.1
Mof_H 	H 	0.558	0.5212	0.014	0.003
Mof_H 	H 	0.9744	0.4092	0.0508	0.067
Mof_H 	H 	0.9137	0.3776	0.074	0.058
Mof_H 	H 	0.9372	0.3802	0.1422	0.1
Mof_H 	H 	0.0272	0.369	0.1046	0.096
Mof_H 	H 	0.9835	0.4201	0.1253	0.105
Mof_H 	H 	0.7055	0.3058	0.0708	0.139
Mof_H 	H 	0.7696	0.2285	0.0713	-0.039
Mof_H 	H 	0.9115	0.1983	0.0283	0.113
Mof_H 	H 	0.984	0.2494	0.9876	-0.003
Mof_H 	H 	0.0109	0.4592	0.8814	0.051
Mof_H 	H 	0.9688	0.5014	0.9168	0.058
Mof_H 	H 	0.8489	0.5041	0.8827	0.113
Mof_H 	H 	0.9144	0.5344	0.8648	0.099
Mof_H 	H 	0.9294	0.4869	0.8395	0.104
Mof_H 	H 	0.6974	0.4812	0.9336	-0.003
Mof_H 	H 	0.6521	0.4804	0.8672	0.091
Mof_H 	H 	0.7456	0.3444	0.8646	0.102
Mof_H 	H 	0.7844	0.3478	0.9304	-0.022
Mof_H 	H 	0.6443	0.376	0.8212	0.075
Mof_H 	H 	0.7076	0.4035	0.7909	0.072
Mof_H 	H 	0.9081	0.6929	0.2141	0.144
Mof_H 	H 	0.8317	0.6843	0.2873	-0.04
Mof_H 	H 	0.7446	0.6348	0.3042	0.12
Mof_H 	H 	0.7376	0.5943	0.2439	0.001
Mof_H 	H 	0.8316	0.5366	0.0094	0.081
Mof_H 	H 	0.9015	0.5575	0.9741	0.083
Mof_H 	H 	0.7214	0.6112	0.0052	0.104
Mof_H 	H 	0.763	0.5885	0.9549	0.102
Mof_H 	H 	0.7916	0.6303	0.9683	0.106
Mof_H 	H 	0.4053	0.4072	0.7502	-0.002
Mof_H 	H 	0.4515	0.4175	0.8121	0.105
Mof_H 	H 	0.6617	0.4369	0.7203	0.087
Mof_H 	H 	0.6088	0.4234	0.662	-0.012
Mof_H 	H 	0.5488	0.4443	0.8419	0.064
Mof_H 	H 	0.6122	0.4681	0.8053	0.056
Mof_H 	H 	0.3555	0.108	0.8578	0.128
Mof_H 	H 	0.4913	0.0634	0.8482	-0.022
Mof_H 	H 	0.5316	0.0171	0.9089	0.1
Mof_H 	H 	0.428	0.014	0.9788	0.003
Mof_H 	H 	0.9748	0.0508	0.0908	0.067
Mof_H 	H 	0.0123	0.074	0.1224	0.058
Mof_H 	H 	0.9206	0.1422	0.1198	0.1
Mof_H 	H 	0.8682	0.1046	0.131	0.096
Mof_H 	H 	0.8912	0.1253	0.0799	0.105
Mof_H 	H 	0.2237	0.0708	0.1942	0.139
Mof_H 	H 	0.1591	0.0713	0.2715	-0.039
Mof_H 	H 	0.0602	0.0283	0.3017	0.113
Mof_H 	H 	0.0284	0.9876	0.2506	-0.003
Mof_H 	H 	0.1077	0.8814	0.0408	0.054
Mof_H 	H 	0.1144	0.9168	0.9986	0.061
Mof_H 	H 	0.2684	0.8827	0.9959	0.111
Mof_H 	H 	0.2208	0.8648	0.9656	0.096
Mof_H 	H 	0.2311	0.8395	0.0131	0.101
Mof_H 	H 	0.369	0.9336	0.0188	-0.004
Mof_H 	H 	0.4807	0.8672	0.0196	0.091
Mof_H 	H 	0.3898	0.8646	0.1556	0.102
Mof_H 	H 	0.2852	0.9304	0.1522	-0.022
Mof_H 	H 	0.5345	0.8212	0.124	0.075
Mof_H 	H 	0.5015	0.7909	0.0965	0.072
Mof_H 	H 	0.8778	0.2141	0.8071	0.144
Mof_H 	H 	0.881	0.2873	0.8157	-0.04
Mof_H 	H 	0.9512	0.3042	0.8652	0.121
Mof_H 	H 	0.0185	0.2439	0.9057	0
Mof_H 	H 	0.159	0.0094	0.9634	0.079
Mof_H 	H 	0.1244	0.9741	0.9425	0.082
Mof_H 	H 	0.2734	0.0052	0.8888	0.104
Mof_H 	H 	0.2821	0.9549	0.9115	0.103
Mof_H 	H 	0.2401	0.9683	0.8697	0.107
Mof_H 	H 	0.8445	0.7502	0.0928	-0.002
Mof_H 	H 	0.7364	0.8121	0.0825	0.105
Mof_H 	H 	0.618	0.7203	0.0631	0.087
Mof_H 	H 	0.7292	0.662	0.0766	-0.012
Mof_H 	H 	0.6093	0.8419	0.0557	0.064
Mof_H 	H 	0.5825	0.8053	0.0319	0.056
Mof_H 	H 	0.8213	0.392	0.6422	0.128
Mof_H 	H 	0.9029	0.4366	0.6518	-0.022
Mof_H 	H 	0.9576	0.4829	0.5911	0.1
Mof_H 	H 	0.9208	0.486	0.5212	0.003
Mof_H 	H 	0.6164	0.4492	0.4092	0.067
Mof_H 	H 	0.7087	0.426	0.3776	0.058
Mof_H 	H 	0.6826	0.3578	0.3802	0.1
Mof_H 	H 	0.6038	0.3954	0.369	0.095
Mof_H 	H 	0.5964	0.3747	0.4201	0.104
Mof_H 	H 	0.9887	0.4292	0.3058	0.139
Mof_H 	H 	0.0019	0.4287	0.2285	-0.039
Mof_H 	H 	0.8902	0.4717	0.1983	0.113
Mof_H 	H 	0.7666	0.5124	0.2494	-0.003
Mof_H 	H 	0.5299	0.6186	0.4592	0.052
Mof_H 	H 	0.5298	0.5832	0.5014	0.059
Mof_H 	H 	0.647	0.6173	0.5041	0.112
Mof_H 	H 	0.5512	0.6352	0.5344	0.098
Mof_H 	H 	0.5837	0.6605	0.4869	0.103
Mof_H 	H 	0.8214	0.5664	0.4812	-0.003
Mof_H 	H 	0.8675	0.6328	0.4804	0.09
Mof_H 	H 	0.91	0.6354	0.3444	0.102
Mof_H 	H 	0.8678	0.5696	0.3478	-0.022
Mof_H 	H 	0.9797	0.6788	0.376	0.075
Mof_H 	H 	0.8889	0.7091	0.4035	0.071
Mof_H 	H 	0.399	0.2859	0.6929	0.144
Mof_H 	H 	0.484	0.2127	0.6843	-0.04
Mof_H 	H 	0.6206	0.1958	0.6348	0.12
Mof_H 	H 	0.6681	0.2561	0.5943	0.001
Mof_H 	H 	0.6318	0.4906	0.5366	0.081
Mof_H 	H 	0.541	0.5259	0.5575	0.083
Mof_H 	H 	0.6674	0.4948	0.6112	0.105
Mof_H 	H 	0.6485	0.5451	0.5885	0.103
Mof_H 	H 	0.5781	0.5317	0.6303	0.106
Mof_H 	H 	0.1875	0.7498	0.4072	-0.002
Mof_H 	H 	0.131	0.6879	0.4175	0.106
Mof_H 	H 	0.9014	0.7797	0.4369	0.088
Mof_H 	H 	0.9678	0.838	0.4234	-0.013
Mof_H 	H 	0.0069	0.6581	0.4443	0.065
Mof_H 	H 	0.9197	0.6947	0.4681	0.057
Mof_H 	H 	0.2133	0.1422	0.608	0.128
Mof_H 	H 	0.3395	0.1518	0.5634	-0.022
Mof_H 	H 	0.4405	0.0911	0.5171	0.1
Mof_H 	H 	0.4068	0.0212	0.514	0.003
Mof_H 	H 	0.0656	0.9092	0.5508	0.068
Mof_H 	H 	0.1347	0.8776	0.574	0.059
Mof_H 	H 	0.0404	0.8802	0.6422	0.098
Mof_H 	H 	0.9992	0.869	0.6046	0.093
Mof_H 	H 	0.9711	0.9201	0.6253	0.103
Mof_H 	H 	0.4179	0.8058	0.5708	0.139
Mof_H 	H 	0.4306	0.7285	0.5713	-0.039
Mof_H 	H 	0.3619	0.6983	0.5283	0.113
Mof_H 	H 	0.279	0.7494	0.4876	-0.003
Mof_H 	H 	0.1485	0.9592	0.3814	0.052
Mof_H 	H 	0.113	0.0014	0.4168	0.058
Mof_H 	H 	0.2643	0.0041	0.3827	0.113
Mof_H 	H 	0.1864	0.0344	0.3648	0.099
Mof_H 	H 	0.2442	0.9869	0.3395	0.104
Mof_H 	H 	0.3878	0.9812	0.4336	-0.003
Mof_H 	H 	0.5003	0.9804	0.3672	0.091
Mof_H 	H 	0.5454	0.8444	0.3646	0.102
Mof_H 	H 	0.4374	0.8478	0.4304	-0.022
Mof_H 	H 	0.6585	0.876	0.3212	0.075
Mof_H 	H 	0.598	0.9035	0.2909	0.072
Mof_H 	H 	0.6849	0.1929	0.7141	0.144
Mof_H 	H 	0.6967	0.1843	0.7873	-0.04
Mof_H 	H 	0.8164	0.1348	0.8042	0.12
Mof_H 	H 	0.9242	0.0943	0.7439	0.001
Mof_H 	H 	0.1224	0.0366	0.5094	0.081
Mof_H 	H 	0.0669	0.0575	0.4741	0.083
Mof_H 	H 	0.1622	0.1112	0.5052	0.105
Mof_H 	H 	0.1936	0.0885	0.4549	0.103
Mof_H 	H 	0.1098	0.1303	0.4683	0.106
Mof_H 	H 	0.9373	0.9072	0.2502	-0.002
Mof_H 	H 	0.8189	0.9175	0.3121	0.105
Mof_H 	H 	0.6811	0.9369	0.2203	0.087
Mof_H 	H 	0.8058	0.9234	0.162	-0.012
Mof_H 	H 	0.665	0.9443	0.3419	0.064
Mof_H 	H 	0.6144	0.9681	0.3053	0.056
Mof_H 	H 	0.4635	0.3578	0.892	0.128
Mof_H 	H 	0.5547	0.3482	0.9366	-0.022
Mof_H 	H 	0.5487	0.4089	0.9829	0.1
Mof_H 	H 	0.442	0.4788	0.986	0.003
Mof_H 	H 	0.0256	0.5908	0.9492	0.067
Mof_H 	H 	0.0863	0.6224	0.926	0.058
Mof_H 	H 	0.0628	0.6198	0.8578	0.1
Mof_H 	H 	0.9728	0.631	0.8954	0.096
Mof_H 	H 	0.0165	0.5799	0.8747	0.105
Mof_H 	H 	0.2945	0.6942	0.9292	0.139
Mof_H 	H 	0.2304	0.7715	0.9287	-0.039
Mof_H 	H 	0.0885	0.8017	0.9717	0.113
Mof_H 	H 	0.016	0.7506	0.0124	-0.003
Mof_H 	H 	0.9891	0.5408	0.1186	0.051
Mof_H 	H 	0.0312	0.4986	0.0832	0.058
Mof_H 	H 	0.1511	0.4959	0.1173	0.113
Mof_H 	H 	0.0856	0.4656	0.1352	0.099
Mof_H 	H 	0.0706	0.5131	0.1605	0.104
Mof_H 	H 	0.3026	0.5188	0.0664	-0.003
Mof_H 	H 	0.3479	0.5196	0.1328	0.091
Mof_H 	H 	0.2544	0.6556	0.1354	0.102
Mof_H 	H 	0.2156	0.6522	0.0696	-0.022
Mof_H 	H 	0.3557	0.624	0.1788	0.075
Mof_H 	H 	0.2924	0.5965	0.2091	0.072
Mof_H 	H 	0.0919	0.3071	0.7859	0.144
Mof_H 	H 	0.1683	0.3157	0.7127	-0.04
Mof_H 	H 	0.2554	0.3652	0.6958	0.12
Mof_H 	H 	0.2624	0.4057	0.7561	0.001
Mof_H 	H 	0.1684	0.4634	0.9906	0.081
Mof_H 	H 	0.0985	0.4425	0.0259	0.083
Mof_H 	H 	0.2786	0.3888	0.9948	0.104
Mof_H 	H 	0.237	0.4115	0.0451	0.102
Mof_H 	H 	0.2084	0.3697	0.0317	0.106
Mof_H 	H 	0.5947	0.5928	0.2498	-0.002
Mof_H 	H 	0.5485	0.5825	0.1879	0.105
Mof_H 	H 	0.3383	0.5631	0.2797	0.087
Mof_H 	H 	0.3912	0.5766	0.338	-0.012
Mof_H 	H 	0.4512	0.5557	0.1581	0.064
Mof_H 	H 	0.3878	0.5319	0.1947	0.056
Mof_C 	C 	0.69296	0.91277	0.07611	0.308
Mof_C 	C 	0.63015	0.91138	0.11772	-0.278
Mof_C 	C 	0.54962	0.93743	0.12313	0.142
Mof_C 	C 	0.52537	0.96553	0.08733	-0.197
Mof_C 	C 	0.58725	0.96743	0.04587	0.126
Mof_C 	C 	0.67106	0.94221	0.04067	-0.248
Mof_C 	C 	0.73308	0.94848	0.99836	0.301
Mof_C 	C 	0.94353	0.91375	0.94619	0.227
Mof_C 	C 	0.01132	0.9207	0.90446	-0.132
Mof_C 	C 	0.08906	0.88419	0.89249	-0.259
Mof_C 	C 	0.83244	0.97153	0.82599	0.336
Mof_C 	C 	0.816	0.94665	0.79455	-0.305
Mof_C 	C 	0.85421	0.9462	0.74858	0.172
Mof_C 	C 	0.91316	0.97142	0.73046	-0.233
Mof_C 	C 	0.93085	0.9956	0.7611	0.158
Mof_C 	C 	0.89284	0.9969	0.80782	-0.259
Mof_C 	C 	0.91386	0.02584	0.83704	0.301
Mof_C 	C 	0.85075	0.06484	0.94786	0.228
Mof_C 	C 	0.85657	0.09986	0.9784	-0.122
Mof_C 	C 	0.77784	0.13066	0.00286	-0.269
Mof_C 	C 	0.62535	0.07989	0.95241	0.115
Mof_C 	C 	0.55814	0.11958	0.95234	-0.198
Mof_C 	C 	0.55044	0.13876	0.90996	0.164
Mof_C 	C 	0.61041	0.12091	0.87347	-0.231
Mof_C 	C 	0.67407	0.08175	0.87571	0.142
Mof_C 	C 	0.47837	0.1812	0.90546	-0.169
Mof_C 	C 	0.05192	0.81723	0.14933	0.327
Mof_C 	C 	0.09258	0.78025	0.17279	-0.311
Mof_C 	C 	0.09106	0.73696	0.16752	0.188
Mof_C 	C 	0.04978	0.72659	0.13825	-0.241
Mof_C 	C 	0.01032	0.76247	0.11449	0.163
Mof_C 	C 	0.01101	0.80751	0.11887	-0.256
Mof_C 	C 	0.96669	0.84464	0.09218	0.301
Mof_C 	C 	0.89938	0.96149	0.08635	0.242
Mof_C 	C 	0.84744	0.00079	0.06533	-0.176
Mof_C 	C 	0.75333	0.02006	0.10268	-0.266
Mof_C 	C 	0.20248	0.25571	0.91373	0.124
Mof_C 	C 	0.26649	0.21862	0.9196	-0.203
Mof_C 	C 	0.33455	0.22663	0.92847	0.128
Mof_C 	C 	0.3359	0.27259	0.93061	-0.191
Mof_C 	C 	0.26872	0.30694	0.92342	0.121
Mof_C 	C 	0.40755	0.18726	0.93924	-0.122
Mof_C 	C 	0.18184	0.58723	0.42389	0.307
Mof_C 	C 	0.15925	0.58862	0.38228	-0.278
Mof_C 	C 	0.11018	0.56257	0.37687	0.141
Mof_C 	C 	0.07823	0.53447	0.41267	-0.196
Mof_C 	C 	0.10055	0.53257	0.45413	0.125
Mof_C 	C 	0.15394	0.55779	0.45933	-0.247
Mof_C 	C 	0.17992	0.55152	0.50164	0.3
Mof_C 	C 	0.30347	0.58625	0.55381	0.227
Mof_C 	C 	0.33648	0.5793	0.59554	-0.133
Mof_C 	C 	0.36574	0.61581	0.60751	-0.257
Mof_C 	C 	0.12996	0.52847	0.67401	0.336
Mof_C 	C 	0.0572	0.55335	0.70545	-0.305
Mof_C 	C 	0.04899	0.5538	0.75142	0.172
Mof_C 	C 	0.11504	0.52858	0.76954	-0.233
Mof_C 	C 	0.18755	0.5044	0.7389	0.159
Mof_C 	C 	0.19756	0.5031	0.69218	-0.26
Mof_C 	C 	0.27674	0.47416	0.66296	0.301
Mof_C 	C 	0.36345	0.43516	0.55214	0.226
Mof_C 	C 	0.43483	0.40014	0.5216	-0.116
Mof_C 	C 	0.41136	0.36934	0.49714	-0.276
Mof_C 	C 	0.15765	0.42011	0.54759	0.114
Mof_C 	C 	0.13006	0.38042	0.54766	-0.197
Mof_C 	C 	0.09916	0.36124	0.59004	0.162
Mof_C 	C 	0.10479	0.37909	0.62653	-0.23
Mof_C 	C 	0.13153	0.41825	0.62429	0.141
Mof_C 	C 	0.06503	0.3188	0.59454	-0.167
Mof_C 	C 	0.51848	0.68277	0.35067	0.327
Mof_C 	C 	0.54562	0.71975	0.32721	-0.31
Mof_C 	C 	0.49554	0.76304	0.33248	0.188
Mof_C 	C 	0.41462	0.77341	0.36175	-0.24
Mof_C 	C 	0.38728	0.73753	0.38551	0.162
Mof_C 	C 	0.43739	0.69249	0.38113	-0.257
Mof_C 	C 	0.40351	0.65536	0.40782	0.302
Mof_C 	C 	0.44722	0.53851	0.41365	0.244
Mof_C 	C 	0.41356	0.49921	0.43467	-0.181
Mof_C 	C 	0.37607	0.47994	0.39732	-0.267
Mof_C 	C 	0.87192	0.24429	0.58627	0.125
Mof_C 	C 	0.90471	0.28138	0.5804	-0.204
Mof_C 	C 	0.98965	0.27337	0.57153	0.13
Mof_C 	C 	0.0391	0.22741	0.56939	-0.194
Mof_C 	C 	0.99908	0.19306	0.57658	0.123
Mof_C 	C 	0.03405	0.31274	0.56076	-0.125
Mof_C 	C 	0.76907	0.92389	0.41277	0.307
Mof_C 	C 	0.74787	0.88228	0.41138	-0.278
Mof_C 	C 	0.67275	0.87687	0.43743	0.142
Mof_C 	C 	0.6127	0.91267	0.46553	-0.196
Mof_C 	C 	0.63312	0.95413	0.46743	0.126
Mof_C 	C 	0.71173	0.95933	0.44221	-0.247
Mof_C 	C 	0.73144	0.00164	0.44848	0.3
Mof_C 	C 	0.88972	0.05381	0.41375	0.228
Mof_C 	C 	0.91578	0.09554	0.4207	-0.135
Mof_C 	C 	0.98155	0.10751	0.38419	-0.252
Mof_C 	C 	0.65843	0.17401	0.47153	0.336
Mof_C 	C 	0.61055	0.20545	0.44665	-0.305
Mof_C 	C 	0.60279	0.25142	0.4462	0.172
Mof_C 	C 	0.64362	0.26954	0.47142	-0.233
Mof_C 	C 	0.69195	0.2389	0.4956	0.159
Mof_C 	C 	0.70066	0.19218	0.4969	-0.26
Mof_C 	C 	0.7509	0.16296	0.52584	0.301
Mof_C 	C 	0.79861	0.05214	0.56484	0.226
Mof_C 	C 	0.83497	0.0216	0.59986	-0.114
Mof_C 	C 	0.7807	0.99714	0.63066	-0.278
Mof_C 	C 	0.57776	0.04759	0.57989	0.115
Mof_C 	C 	0.51048	0.04766	0.61958	-0.198
Mof_C 	C 	0.4604	0.09004	0.63876	0.164
Mof_C 	C 	0.48388	0.12653	0.62091	-0.231
Mof_C 	C 	0.54978	0.12429	0.58175	0.142
Mof_C 	C 	0.38383	0.09454	0.6812	-0.169
Mof_C 	C 	0.20125	0.85067	0.31723	0.328
Mof_C 	C 	0.26537	0.82721	0.28025	-0.31
Mof_C 	C 	0.25858	0.83248	0.23696	0.188
Mof_C 	C 	0.18803	0.86175	0.22659	-0.241
Mof_C 	C 	0.12481	0.88551	0.26247	0.162
Mof_C 	C 	0.12988	0.88113	0.30751	-0.257
Mof_C 	C 	0.05887	0.90782	0.34464	0.303
Mof_C 	C 	0.98573	0.91365	0.46149	0.243
Mof_C 	C 	0.91277	0.93467	0.50079	-0.181
Mof_C 	C 	0.85601	0.89732	0.52006	-0.267
Mof_C 	C 	0.11621	0.08627	0.75571	0.124
Mof_C 	C 	0.18609	0.0804	0.71862	-0.203
Mof_C 	C 	0.26302	0.07153	0.72663	0.128
Mof_C 	C 	0.26651	0.06939	0.77259	-0.192
Mof_C 	C 	0.19214	0.07658	0.80694	0.121
Mof_C 	C 	0.34679	0.06076	0.68726	-0.122
Mof_C 	C 	0.60573	0.57611	0.08723	0.307
Mof_C 	C 	0.54153	0.61772	0.08862	-0.278
Mof_C 	C 	0.48705	0.62313	0.06257	0.141
Mof_C 	C 	0.4909	0.58733	0.03447	-0.196
Mof_C 	C 	0.55468	0.54587	0.03257	0.125
Mof_C 	C 	0.61327	0.54067	0.05779	-0.247
Mof_C 	C 	0.68156	0.49836	0.05152	0.3
Mof_C 	C 	0.85728	0.44619	0.08625	0.227
Mof_C 	C 	0.93202	0.40446	0.0793	-0.132
Mof_C 	C 	0.97325	0.39249	0.11581	-0.259
Mof_C 	C 	0.80397	0.32599	0.02847	0.337
Mof_C 	C 	0.76265	0.29455	0.05335	-0.305
Mof_C 	C 	0.80041	0.24858	0.0538	0.173
Mof_C 	C 	0.88458	0.23046	0.02858	-0.234
Mof_C 	C 	0.92645	0.2611	0.0044	0.159
Mof_C 	C 	0.88974	0.30782	0.0031	-0.26
Mof_C 	C 	0.9397	0.33704	0.97416	0.302
Mof_C 	C 	0.91559	0.44786	0.93516	0.226
Mof_C 	C 	0.95643	0.4784	0.90014	-0.115
Mof_C 	C 	0.9085	0.50286	0.86934	-0.277
Mof_C 	C 	0.70524	0.45241	0.92011	0.115
Mof_C 	C 	0.67772	0.45234	0.88042	-0.198
Mof_C 	C 	0.6892	0.40996	0.86124	0.164
Mof_C 	C 	0.73132	0.37347	0.87909	-0.231
Mof_C 	C 	0.75582	0.37571	0.91825	0.142
Mof_C 	C 	0.65957	0.40546	0.8188	-0.169
Mof_C 	C 	0.86915	0.64933	0.18277	0.327
Mof_C 	C 	0.87283	0.67279	0.21975	-0.31
Mof_C 	C 	0.82802	0.66752	0.26304	0.188
Mof_C 	C 	0.77637	0.63825	0.27341	-0.24
Mof_C 	C 	0.77279	0.61449	0.23753	0.162
Mof_C 	C 	0.81852	0.61887	0.19249	-0.257
Mof_C 	C 	0.81133	0.59218	0.15536	0.302
Mof_C 	C 	0.86087	0.58635	0.03851	0.243
Mof_C 	C 	0.84823	0.56533	0.99921	-0.18
Mof_C 	C 	0.77339	0.60268	0.97994	-0.266
Mof_C 	C 	0.45819	0.41373	0.74429	0.124
Mof_C 	C 	0.48511	0.4196	0.78138	-0.203
Mof_C 	C 	0.56118	0.42847	0.77337	0.128
Mof_C 	C 	0.60849	0.43061	0.72741	-0.191
Mof_C 	C 	0.57566	0.42342	0.69306	0.121
Mof_C 	C 	0.59481	0.43924	0.81274	-0.122
Mof_C 	C 	0.30704	0.08723	0.92389	0.308
Mof_C 	C 	0.36985	0.08862	0.88228	-0.278
Mof_C 	C 	0.45038	0.06257	0.87687	0.142
Mof_C 	C 	0.47463	0.03447	0.91267	-0.197
Mof_C 	C 	0.41275	0.03257	0.95413	0.126
Mof_C 	C 	0.32894	0.05779	0.95933	-0.248
Mof_C 	C 	0.26692	0.05152	0.00164	0.301
Mof_C 	C 	0.05647	0.08625	0.05381	0.227
Mof_C 	C 	0.98868	0.0793	0.09554	-0.132
Mof_C 	C 	0.91094	0.11581	0.10751	-0.259
Mof_C 	C 	0.16756	0.02847	0.17401	0.336
Mof_C 	C 	0.184	0.05335	0.20545	-0.305
Mof_C 	C 	0.14579	0.0538	0.25142	0.172
Mof_C 	C 	0.08684	0.02858	0.26954	-0.233
Mof_C 	C 	0.06915	0.0044	0.2389	0.158
Mof_C 	C 	0.10716	0.0031	0.19218	-0.259
Mof_C 	C 	0.08614	0.97416	0.16296	0.301
Mof_C 	C 	0.14925	0.93516	0.05214	0.228
Mof_C 	C 	0.14343	0.90014	0.0216	-0.122
Mof_C 	C 	0.22216	0.86934	0.99714	-0.269
Mof_C 	C 	0.37465	0.92011	0.04759	0.115
Mof_C 	C 	0.44186	0.88042	0.04766	-0.198
Mof_C 	C 	0.44956	0.86124	0.09004	0.164
Mof_C 	C 	0.38959	0.87909	0.12653	-0.231
Mof_C 	C 	0.32593	0.91825	0.12429	0.142
Mof_C 	C 	0.52163	0.8188	0.09454	-0.169
Mof_C 	C 	0.94808	0.18277	0.85067	0.327
Mof_C 	C 	0.90742	0.21975	0.82721	-0.311
Mof_C 	C 	0.90894	0.26304	0.83248	0.188
Mof_C 	C 	0.95022	0.27341	0.86175	-0.241
Mof_C 	C 	0.98968	0.23753	0.88551	0.163
Mof_C 	C 	0.98899	0.19249	0.88113	-0.256
Mof_C 	C 	0.03331	0.15536	0.90782	0.301
Mof_C 	C 	0.10062	0.03851	0.91365	0.242
Mof_C 	C 	0.15256	0.99921	0.93467	-0.176
Mof_C 	C 	0.24667	0.97994	0.89732	-0.266
Mof_C 	C 	0.79752	0.74429	0.08627	0.124
Mof_C 	C 	0.73351	0.78138	0.0804	-0.203
Mof_C 	C 	0.66545	0.77337	0.07153	0.128
Mof_C 	C 	0.6641	0.72741	0.06939	-0.191
Mof_C 	C 	0.73128	0.69306	0.07658	0.121
Mof_C 	C 	0.59245	0.81274	0.06076	-0.122
Mof_C 	C 	0.81816	0.41277	0.57611	0.307
Mof_C 	C 	0.84075	0.41138	0.61772	-0.278
Mof_C 	C 	0.88982	0.43743	0.62313	0.141
Mof_C 	C 	0.92177	0.46553	0.58733	-0.196
Mof_C 	C 	0.89945	0.46743	0.54587	0.125
Mof_C 	C 	0.84606	0.44221	0.54067	-0.247
Mof_C 	C 	0.82008	0.44848	0.49836	0.3
Mof_C 	C 	0.69653	0.41375	0.44619	0.227
Mof_C 	C 	0.66352	0.4207	0.40446	-0.133
Mof_C 	C 	0.63426	0.38419	0.39249	-0.257
Mof_C 	C 	0.87004	0.47153	0.32599	0.336
Mof_C 	C 	0.9428	0.44665	0.29455	-0.305
Mof_C 	C 	0.95101	0.4462	0.24858	0.172
Mof_C 	C 	0.88496	0.47142	0.23046	-0.233
Mof_C 	C 	0.81245	0.4956	0.2611	0.159
Mof_C 	C 	0.80244	0.4969	0.30782	-0.26
Mof_C 	C 	0.72326	0.52584	0.33704	0.301
Mof_C 	C 	0.63655	0.56484	0.44786	0.226
Mof_C 	C 	0.56517	0.59986	0.4784	-0.116
Mof_C 	C 	0.58864	0.63066	0.50286	-0.276
Mof_C 	C 	0.84235	0.57989	0.45241	0.114
Mof_C 	C 	0.86994	0.61958	0.45234	-0.197
Mof_C 	C 	0.90084	0.63876	0.40996	0.162
Mof_C 	C 	0.89521	0.62091	0.37347	-0.23
Mof_C 	C 	0.86847	0.58175	0.37571	0.141
Mof_C 	C 	0.93497	0.6812	0.40546	-0.167
Mof_C 	C 	0.48152	0.31723	0.64933	0.327
Mof_C 	C 	0.45438	0.28025	0.67279	-0.31
Mof_C 	C 	0.50446	0.23696	0.66752	0.188
Mof_C 	C 	0.58538	0.22659	0.63825	-0.24
Mof_C 	C 	0.61272	0.26247	0.61449	0.162
Mof_C 	C 	0.56261	0.30751	0.61887	-0.257
Mof_C 	C 	0.59649	0.34464	0.59218	0.302
Mof_C 	C 	0.55278	0.46149	0.58635	0.244
Mof_C 	C 	0.58644	0.50079	0.56533	-0.181
Mof_C 	C 	0.62393	0.52006	0.60268	-0.267
Mof_C 	C 	0.12808	0.75571	0.41373	0.125
Mof_C 	C 	0.09529	0.71862	0.4196	-0.204
Mof_C 	C 	0.01035	0.72663	0.42847	0.13
Mof_C 	C 	0.9609	0.77259	0.43061	-0.194
Mof_C 	C 	0.00092	0.80694	0.42342	0.123
Mof_C 	C 	0.96595	0.68726	0.43924	-0.125
Mof_C 	C 	0.23093	0.07611	0.58723	0.307
Mof_C 	C 	0.25213	0.11772	0.58862	-0.278
Mof_C 	C 	0.32725	0.12313	0.56257	0.142
Mof_C 	C 	0.3873	0.08733	0.53447	-0.196
Mof_C 	C 	0.36688	0.04587	0.53257	0.126
Mof_C 	C 	0.28827	0.04067	0.55779	-0.247
Mof_C 	C 	0.26856	0.99836	0.55152	0.3
Mof_C 	C 	0.11028	0.94619	0.58625	0.228
Mof_C 	C 	0.08422	0.90446	0.5793	-0.135
Mof_C 	C 	0.01845	0.89249	0.61581	-0.252
Mof_C 	C 	0.34157	0.82599	0.52847	0.336
Mof_C 	C 	0.38945	0.79455	0.55335	-0.305
Mof_C 	C 	0.39721	0.74858	0.5538	0.172
Mof_C 	C 	0.35638	0.73046	0.52858	-0.233
Mof_C 	C 	0.30805	0.7611	0.5044	0.159
Mof_C 	C 	0.29934	0.80782	0.5031	-0.26
Mof_C 	C 	0.2491	0.83704	0.47416	0.301
Mof_C 	C 	0.20139	0.94786	0.43516	0.226
Mof_C 	C 	0.16503	0.9784	0.40014	-0.114
Mof_C 	C 	0.2193	0.00286	0.36934	-0.278
Mof_C 	C 	0.42224	0.95241	0.42011	0.115
Mof_C 	C 	0.48952	0.95234	0.38042	-0.198
Mof_C 	C 	0.5396	0.90996	0.36124	0.164
Mof_C 	C 	0.51612	0.87347	0.37909	-0.231
Mof_C 	C 	0.45022	0.87571	0.41825	0.142
Mof_C 	C 	0.61617	0.90546	0.3188	-0.169
Mof_C 	C 	0.79875	0.14933	0.68277	0.328
Mof_C 	C 	0.73463	0.17279	0.71975	-0.31
Mof_C 	C 	0.74142	0.16752	0.76304	0.188
Mof_C 	C 	0.81197	0.13825	0.77341	-0.241
Mof_C 	C 	0.87519	0.11449	0.73753	0.162
Mof_C 	C 	0.87012	0.11887	0.69249	-0.257
Mof_C 	C 	0.94113	0.09218	0.65536	0.303
Mof_C 	C 	0.01427	0.08635	0.53851	0.243
Mof_C 	C 	0.08723	0.06533	0.49921	-0.181
Mof_C 	C 	0.14399	0.10268	0.47994	-0.267
Mof_C 	C 	0.88379	0.91373	0.24429	0.124
Mof_C 	C 	0.81391	0.9196	0.28138	-0.203
Mof_C 	C 	0.73698	0.92847	0.27337	0.128
Mof_C 	C 	0.73349	0.93061	0.22741	-0.192
Mof_C 	C 	0.80786	0.92342	0.19306	0.121
Mof_C 	C 	0.65321	0.93924	0.31274	-0.122
Mof_C 	C 	0.39427	0.42389	0.91277	0.307
Mof_C 	C 	0.45847	0.38228	0.91138	-0.278
Mof_C 	C 	0.51295	0.37687	0.93743	0.141
Mof_C 	C 	0.5091	0.41267	0.96553	-0.196
Mof_C 	C 	0.44532	0.45413	0.96743	0.125
Mof_C 	C 	0.38673	0.45933	0.94221	-0.247
Mof_C 	C 	0.31844	0.50164	0.94848	0.3
Mof_C 	C 	0.14272	0.55381	0.91375	0.227
Mof_C 	C 	0.06798	0.59554	0.9207	-0.132
Mof_C 	C 	0.02675	0.60751	0.88419	-0.259
Mof_C 	C 	0.19603	0.67401	0.97153	0.337
Mof_C 	C 	0.23735	0.70545	0.94665	-0.305
Mof_C 	C 	0.19959	0.75142	0.9462	0.173
Mof_C 	C 	0.11542	0.76954	0.97142	-0.234
Mof_C 	C 	0.07355	0.7389	0.9956	0.159
Mof_C 	C 	0.11026	0.69218	0.9969	-0.26
Mof_C 	C 	0.0603	0.66296	0.02584	0.302
Mof_C 	C 	0.08441	0.55214	0.06484	0.226
Mof_C 	C 	0.04357	0.5216	0.09986	-0.115
Mof_C 	C 	0.0915	0.49714	0.13066	-0.277
Mof_C 	C 	0.29476	0.54759	0.07989	0.115
Mof_C 	C 	0.32228	0.54766	0.11958	-0.198
Mof_C 	C 	0.3108	0.59004	0.13876	0.164
Mof_C 	C 	0.26868	0.62653	0.12091	-0.231
Mof_C 	C 	0.24418	0.62429	0.08175	0.142
Mof_C 	C 	0.34043	0.59454	0.1812	-0.169
Mof_C 	C 	0.13085	0.35067	0.81723	0.327
Mof_C 	C 	0.12717	0.32721	0.78025	-0.31
Mof_C 	C 	0.17198	0.33248	0.73696	0.188
Mof_C 	C 	0.22363	0.36175	0.72659	-0.24
Mof_C 	C 	0.22721	0.38551	0.76247	0.162
Mof_C 	C 	0.18148	0.38113	0.80751	-0.257
Mof_C 	C 	0.18867	0.40782	0.84464	0.302
Mof_C 	C 	0.13913	0.41365	0.96149	0.243
Mof_C 	C 	0.15177	0.43467	0.00079	-0.18
Mof_C 	C 	0.22661	0.39732	0.02006	-0.266
Mof_C 	C 	0.54181	0.58627	0.25571	0.124
Mof_C 	C 	0.51489	0.5804	0.21862	-0.203
Mof_C 	C 	0.43882	0.57153	0.22663	0.128
Mof_C 	C 	0.39151	0.56939	0.27259	-0.191
Mof_C 	C 	0.42434	0.57658	0.30694	0.121
Mof_C 	C 	0.40519	0.56076	0.18726	-0.122
Mof_N 	N 	0.81327	0.92639	0.99237	-0.253
Mof_N 	N 	0.86658	0.93778	0.9502	-0.194
Mof_N 	N 	0.87256	0.03058	0.88168	-0.25
Mof_N 	N 	0.89135	0.06311	0.90471	-0.191
Mof_N 	N 	0.68103	0.06056	0.91418	-0.21
Mof_N 	N 	0.95895	0.8881	0.09928	-0.252
Mof_N 	N 	0.91291	0.91941	0.07277	-0.19
Mof_N 	N 	0.20206	0.29923	0.91665	-0.208
Mof_N 	N 	0.23203	0.57361	0.50763	-0.253
Mof_N 	N 	0.25456	0.56222	0.5498	-0.194
Mof_N 	N 	0.28482	0.46942	0.61832	-0.25
Mof_N 	N 	0.35917	0.43689	0.59529	-0.191
Mof_N 	N 	0.15577	0.43944	0.58582	-0.21
Mof_N 	N 	0.44633	0.6119	0.40072	-0.252
Mof_N 	N 	0.40509	0.58059	0.42723	-0.19
Mof_N 	N 	0.91794	0.20077	0.58335	-0.209
Mof_N 	N 	0.80564	0.00763	0.42639	-0.253
Mof_N 	N 	0.81678	0.0498	0.43778	-0.194
Mof_N 	N 	0.75424	0.11832	0.53058	-0.25
Mof_N 	N 	0.79606	0.09529	0.56311	-0.191
Mof_N 	N 	0.59521	0.08582	0.56056	-0.21
Mof_N 	N 	0.05823	0.90072	0.3881	-0.252
Mof_N 	N 	0.98568	0.92723	0.41941	-0.19
Mof_N 	N 	0.11871	0.08335	0.79923	-0.208
Mof_N 	N 	0.73966	0.49237	0.07361	-0.253
Mof_N 	N 	0.80436	0.4502	0.06222	-0.194
Mof_N 	N 	0.90314	0.38168	0.96942	-0.25
Mof_N 	N 	0.95446	0.40471	0.93689	-0.191
Mof_N 	N 	0.74159	0.41418	0.93944	-0.21
Mof_N 	N 	0.84705	0.59928	0.1119	-0.252
Mof_N 	N 	0.83232	0.57277	0.08059	-0.19
Mof_N 	N 	0.50129	0.41665	0.70077	-0.208
Mof_N 	N 	0.18673	0.07361	0.00763	-0.253
Mof_N 	N 	0.13342	0.06222	0.0498	-0.194
Mof_N 	N 	0.12744	0.96942	0.11832	-0.25
Mof_N 	N 	0.10865	0.93689	0.09529	-0.191
Mof_N 	N 	0.31897	0.93944	0.08582	-0.21
Mof_N 	N 	0.04105	0.1119	0.90072	-0.252
Mof_N 	N 	0.08709	0.08059	0.92723	-0.19
Mof_N 	N 	0.79794	0.70077	0.08335	-0.208
Mof_N 	N 	0.76797	0.42639	0.49237	-0.253
Mof_N 	N 	0.74544	0.43778	0.4502	-0.194
Mof_N 	N 	0.71518	0.53058	0.38168	-0.25
Mof_N 	N 	0.64083	0.56311	0.40471	-0.191
Mof_N 	N 	0.84423	0.56056	0.41418	-0.21
Mof_N 	N 	0.55367	0.3881	0.59928	-0.252
Mof_N 	N 	0.59491	0.41941	0.57277	-0.19
Mof_N 	N 	0.08206	0.79923	0.41665	-0.209
Mof_N 	N 	0.19436	0.99237	0.57361	-0.253
Mof_N 	N 	0.18322	0.9502	0.56222	-0.194
Mof_N 	N 	0.24576	0.88168	0.46942	-0.25
Mof_N 	N 	0.20394	0.90471	0.43689	-0.191
Mof_N 	N 	0.40479	0.91418	0.43944	-0.21
Mof_N 	N 	0.94177	0.09928	0.6119	-0.252
Mof_N 	N 	0.01432	0.07277	0.58059	-0.19
Mof_N 	N 	0.88129	0.91665	0.20077	-0.208
Mof_N 	N 	0.26034	0.50763	0.92639	-0.253
Mof_N 	N 	0.19564	0.5498	0.93778	-0.194
Mof_N 	N 	0.09686	0.61832	0.03058	-0.25
Mof_N 	N 	0.04554	0.59529	0.06311	-0.191
Mof_N 	N 	0.25841	0.58582	0.06056	-0.21
Mof_N 	N 	0.15295	0.40072	0.8881	-0.252
Mof_N 	N 	0.16768	0.42723	0.91941	-0.19
Mof_N 	N 	0.49871	0.58335	0.29923	-0.208
Mof_O 	O 	0.7692	0.88426	0.07332	-0.432
Mof_O 	O 	0.70759	0.97682	0.96778	-0.377
Mof_O 	O 	0.965	0.88294	0.9763	-0.388
Mof_O 	O 	0.79083	0.97068	0.8698	-0.439
Mof_O 	O 	0.96895	0.04791	0.81867	-0.379
Mof_O 	O 	0.80264	0.03789	0.96573	-0.39
Mof_O 	O 	0.05713	0.85954	0.1571	-0.433
Mof_O 	O 	0.93513	0.83235	0.06255	-0.386
Mof_O 	O 	0.92925	0.97096	0.11842	-0.387
Mof_O 	O 	0.22678	0.61574	0.42668	-0.432
Mof_O 	O 	0.15219	0.52318	0.53222	-0.378
Mof_O 	O 	0.32424	0.61706	0.5237	-0.388
Mof_O 	O 	0.13131	0.52932	0.6302	-0.44
Mof_O 	O 	0.33553	0.45209	0.68133	-0.379
Mof_O 	O 	0.30626	0.46211	0.53427	-0.39
Mof_O 	O 	0.57377	0.64046	0.3429	-0.434
Mof_O 	O 	0.33003	0.66765	0.43745	-0.386
Mof_O 	O 	0.51863	0.52904	0.38158	-0.388
Mof_O 	O 	0.84252	0.92668	0.38426	-0.432
Mof_O 	O 	0.67537	0.03222	0.47682	-0.378
Mof_O 	O 	0.9413	0.0237	0.38294	-0.388
Mof_O 	O 	0.66063	0.1302	0.47068	-0.44
Mof_O 	O 	0.78762	0.18133	0.54791	-0.38
Mof_O 	O 	0.76837	0.03427	0.53789	-0.389
Mof_O 	O 	0.21423	0.8429	0.35954	-0.434
Mof_O 	O 	0.99768	0.93745	0.33235	-0.386
Mof_O 	O 	0.04767	0.88158	0.47096	-0.387
Mof_O 	O 	0.65346	0.57332	0.11574	-0.432
Mof_O 	O 	0.68441	0.46778	0.02318	-0.378
Mof_O 	O 	0.84794	0.4763	0.11706	-0.388
Mof_O 	O 	0.76151	0.3698	0.02932	-0.44
Mof_O 	O 	0.01686	0.31867	0.95209	-0.38
Mof_O 	O 	0.84053	0.46573	0.96211	-0.389
Mof_O 	O 	0.91667	0.6571	0.14046	-0.434
Mof_O 	O 	0.76748	0.56255	0.16765	-0.386
Mof_O 	O 	0.90021	0.61842	0.02904	-0.388
Mof_O 	O 	0.2308	0.11574	0.92668	-0.432
Mof_O 	O 	0.29241	0.02318	0.03222	-0.377
Mof_O 	O 	0.035	0.11706	0.0237	-0.388
Mof_O 	O 	0.20917	0.02932	0.1302	-0.439
Mof_O 	O 	0.03105	0.95209	0.18133	-0.379
Mof_O 	O 	0.19736	0.96211	0.03427	-0.39
Mof_O 	O 	0.94287	0.14046	0.8429	-0.433
Mof_O 	O 	0.06487	0.16765	0.93745	-0.386
Mof_O 	O 	0.07075	0.02904	0.88158	-0.387
Mof_O 	O 	0.77322	0.38426	0.57332	-0.432
Mof_O 	O 	0.84781	0.47682	0.46778	-0.378
Mof_O 	O 	0.67576	0.38294	0.4763	-0.388
Mof_O 	O 	0.86869	0.47068	0.3698	-0.44
Mof_O 	O 	0.66447	0.54791	0.31867	-0.379
Mof_O 	O 	0.69374	0.53789	0.46573	-0.39
Mof_O 	O 	0.42623	0.35954	0.6571	-0.434
Mof_O 	O 	0.66997	0.33235	0.56255	-0.386
Mof_O 	O 	0.48137	0.47096	0.61842	-0.388
Mof_O 	O 	0.15748	0.07332	0.61574	-0.432
Mof_O 	O 	0.32463	0.96778	0.52318	-0.378
Mof_O 	O 	0.0587	0.9763	0.61706	-0.388
Mof_O 	O 	0.33937	0.8698	0.52932	-0.44
Mof_O 	O 	0.21238	0.81867	0.45209	-0.38
Mof_O 	O 	0.23163	0.96573	0.46211	-0.389
Mof_O 	O 	0.78577	0.1571	0.64046	-0.434
Mof_O 	O 	0.00232	0.06255	0.66765	-0.386
Mof_O 	O 	0.95233	0.11842	0.52904	-0.387
Mof_O 	O 	0.34654	0.42668	0.88426	-0.432
Mof_O 	O 	0.31559	0.53222	0.97682	-0.378
Mof_O 	O 	0.15206	0.5237	0.88294	-0.388
Mof_O 	O 	0.23849	0.6302	0.97068	-0.44
Mof_O 	O 	0.98314	0.68133	0.04791	-0.38
Mof_O 	O 	0.15947	0.53427	0.03789	-0.389
Mof_O 	O 	0.08333	0.3429	0.85954	-0.434
Mof_O 	O 	0.23252	0.43745	0.83235	-0.386
Mof_O 	O 	0.09979	0.38158	0.97096	-0.388
_end
