data_functionalizedCrystal
_audit_creation_method	'EQeq! by Chris Wilmer'
_symmetry_space_group_name_H-M	'P1'
_symmetry_Int_Tables_number	1
_symmetry_cell_setting	triclinic
loop_
_symmetry_equiv_pos_as_xyz
  x,y,z
_cell_length_a	16.5478
_cell_length_b	16.5478
_cell_length_c	12.4353
_cell_angle_alpha	90
_cell_angle_beta	90
_cell_angle_gamma	120
loop_
_atom_site_label
_atom_site_type_symbol
_atom_site_fract_x
_atom_site_fract_y
_atom_site_fract_z
_atom_site_charge
Mof_O 	O 	0.188	0.5971	0.3056	-0.387
Mof_O 	O 	0.2418	0.5132	0.3862	-0.397
Mof_O 	O 	0.0697	0.1817	0.3663	-0.106
Mof_C 	C 	0.0839	0.4346	0.341	-0.082
Mof_C 	C 	0.0832	0.3518	0.3437	-0.056
Mof_H 	H 	0.1397	0.3507	0.3525	0.068
Mof_C 	C 	0.1788	0.5239	0.3451	0.346
Mof_C 	C 	0.3338	0.3847	0.4755	-0.48
Mof_H 	H 	0.3287	0.3876	0.5538	0.154
Mof_H 	H 	0.3023	0.3193	0.4525	0.167
Mof_H 	H 	0.3045	0.4167	0.4408	0.161
Mof_C 	C 	0.4375	0.2843	0.4711	-0.504
Mof_H 	H 	0.4063	0.2461	0.4078	0.169
Mof_H 	H 	0.3913	0.2713	0.5277	0.16
Mof_H 	H 	0.4843	0.2694	0.4974	0.148
Mof_C 	C 	0.482	0.3809	0.4427	0.136
Mof_C 	C 	0.4342	0.4311	0.4445	0.106
Mof_O 	O 	0.4029	0.5909	0.63893	-0.386
Mof_O 	O 	0.4868	0.7286	0.71953	-0.396
Mof_O 	O 	0.8183	0.888	0.69963	-0.1
Mof_C 	C 	0.5654	0.6493	0.67433	-0.081
Mof_C 	C 	0.6482	0.7314	0.67703	-0.058
Mof_H 	H 	0.6493	0.789	0.68583	0.069
Mof_C 	C 	0.4761	0.6549	0.67843	0.346
Mof_C 	C 	0.6153	0.9491	0.80883	-0.462
Mof_H 	H 	0.6124	0.9411	0.88713	0.152
Mof_H 	H 	0.6807	0.983	0.78583	0.165
Mof_H 	H 	0.5833	0.8878	0.77413	0.157
Mof_C 	C 	0.7157	0.1532	0.80443	-0.513
Mof_H 	H 	0.7539	0.1602	0.74113	0.171
Mof_H 	H 	0.7287	0.12	0.86103	0.162
Mof_H 	H 	0.7306	0.2149	0.83073	0.151
Mof_C 	C 	0.6191	0.1011	0.77603	0.143
Mof_C 	C 	0.5689	0.0031	0.77783	0.09
Mof_O 	O 	0.4091	0.812	0.97227	-0.38
Mof_O 	O 	0.2714	0.7582	0.05287	-0.395
Mof_O 	O 	0.112	0.9303	0.03297	-0.103
Mof_C 	C 	0.3507	0.9161	0.00767	-0.079
Mof_C 	C 	0.2686	0.9168	0.01037	-0.055
Mof_H 	H 	0.211	0.8603	0.01917	0.067
Mof_C 	C 	0.3451	0.8212	0.01177	0.34
Mof_C 	C 	0.0509	0.6662	0.14217	-0.494
Mof_H 	H 	0.0589	0.6713	0.22047	0.157
Mof_H 	H 	0.017	0.6977	0.11917	0.17
Mof_H 	H 	0.1122	0.6955	0.10747	0.165
Mof_C 	C 	0.8468	0.5625	0.13777	-0.5
Mof_H 	H 	0.8398	0.5937	0.07447	0.167
Mof_H 	H 	0.88	0.6087	0.19437	0.16
Mof_H 	H 	0.7851	0.5157	0.16407	0.147
Mof_C 	C 	0.8989	0.518	0.10937	0.131
Mof_C 	C 	0.9969	0.5658	0.11117	0.117
Mof_O 	O 	0.812	0.4029	0.8056	-0.384
Mof_O 	O 	0.7582	0.4868	0.8862	-0.395
Mof_O 	O 	0.9303	0.8183	0.8663	-0.096
Mof_C 	C 	0.9161	0.5654	0.841	-0.076
Mof_C 	C 	0.9168	0.6482	0.8437	-0.05
Mof_H 	H 	0.8603	0.6493	0.8525	0.067
Mof_C 	C 	0.8212	0.4761	0.8451	0.346
Mof_C 	C 	0.6662	0.6153	0.9755	-0.47
Mof_H 	H 	0.6713	0.6124	0.0538	0.15
Mof_H 	H 	0.6977	0.6807	0.9525	0.166
Mof_H 	H 	0.6955	0.5833	0.9408	0.159
Mof_C 	C 	0.5625	0.7157	0.9711	-0.491
Mof_H 	H 	0.5937	0.7539	0.9078	0.166
Mof_H 	H 	0.6087	0.7287	0.0277	0.154
Mof_H 	H 	0.5157	0.7306	0.9974	0.146
Mof_C 	C 	0.518	0.6191	0.9427	0.134
Mof_C 	C 	0.5658	0.5689	0.9445	0.106
Mof_O 	O 	0.5971	0.4091	0.13893	-0.386
Mof_O 	O 	0.5132	0.2714	0.21953	-0.397
Mof_O 	O 	0.1817	0.112	0.19963	-0.105
Mof_C 	C 	0.4346	0.3507	0.17433	-0.082
Mof_C 	C 	0.3518	0.2686	0.17703	-0.057
Mof_H 	H 	0.3507	0.211	0.18583	0.068
Mof_C 	C 	0.5239	0.3451	0.17843	0.346
Mof_C 	C 	0.3847	0.0509	0.30883	-0.493
Mof_H 	H 	0.3876	0.0589	0.38713	0.157
Mof_H 	H 	0.3193	0.017	0.28583	0.169
Mof_H 	H 	0.4167	0.1122	0.27413	0.164
Mof_C 	C 	0.2843	0.8468	0.30443	-0.501
Mof_H 	H 	0.2461	0.8398	0.24113	0.168
Mof_H 	H 	0.2713	0.88	0.36103	0.16
Mof_H 	H 	0.2694	0.7851	0.33073	0.147
Mof_C 	C 	0.3809	0.8989	0.27603	0.132
Mof_C 	C 	0.4311	0.9969	0.27783	0.117
Mof_O 	O 	0.5909	0.188	0.47227	-0.386
Mof_O 	O 	0.7286	0.2418	0.55287	-0.396
Mof_O 	O 	0.888	0.0697	0.53297	-0.103
Mof_C 	C 	0.6493	0.0839	0.50767	-0.081
Mof_C 	C 	0.7314	0.0832	0.51037	-0.056
Mof_H 	H 	0.789	0.1397	0.51917	0.068
Mof_C 	C 	0.6549	0.1788	0.51177	0.346
Mof_C 	C 	0.9491	0.3338	0.64217	-0.464
Mof_H 	H 	0.9411	0.3287	0.72047	0.151
Mof_H 	H 	0.983	0.3023	0.61917	0.165
Mof_H 	H 	0.8878	0.3045	0.60747	0.157
Mof_C 	C 	0.1532	0.4375	0.63777	-0.51
Mof_H 	H 	0.1602	0.4063	0.57447	0.17
Mof_H 	H 	0.12	0.3913	0.69437	0.16
Mof_H 	H 	0.2149	0.4843	0.66407	0.15
Mof_C 	C 	0.1011	0.482	0.60937	0.142
Mof_C 	C 	0.0031	0.4342	0.61117	0.092
Mof_O 	O 	0.5971	0.188	0.02773	-0.387
Mof_O 	O 	0.5132	0.2418	0.94713	-0.397
Mof_O 	O 	0.1817	0.0697	0.96703	-0.105
Mof_C 	C 	0.4346	0.0839	0.99233	-0.082
Mof_C 	C 	0.3518	0.0832	0.98963	-0.057
Mof_H 	H 	0.3507	0.1397	0.98083	0.068
Mof_C 	C 	0.5239	0.1788	0.98823	0.348
Mof_C 	C 	0.3847	0.3338	0.85783	-0.48
Mof_H 	H 	0.3876	0.3287	0.77953	0.154
Mof_H 	H 	0.3193	0.3023	0.88083	0.167
Mof_H 	H 	0.4167	0.3045	0.89253	0.161
Mof_C 	C 	0.2843	0.4375	0.86223	-0.505
Mof_H 	H 	0.2461	0.4063	0.92553	0.169
Mof_H 	H 	0.2713	0.3913	0.80563	0.16
Mof_H 	H 	0.2694	0.4843	0.83593	0.148
Mof_C 	C 	0.3809	0.482	0.89063	0.136
Mof_C 	C 	0.4311	0.4342	0.88883	0.106
Mof_O 	O 	0.5909	0.4029	0.6944	-0.386
Mof_O 	O 	0.7286	0.4868	0.6138	-0.396
Mof_O 	O 	0.888	0.8183	0.6337	-0.101
Mof_C 	C 	0.6493	0.5654	0.659	-0.082
Mof_C 	C 	0.7314	0.6482	0.6563	-0.058
Mof_H 	H 	0.789	0.6493	0.6475	0.069
Mof_C 	C 	0.6549	0.4761	0.6549	0.346
Mof_C 	C 	0.9491	0.6153	0.5245	-0.464
Mof_H 	H 	0.9411	0.6124	0.4462	0.151
Mof_H 	H 	0.983	0.6807	0.5475	0.165
Mof_H 	H 	0.8878	0.5833	0.5592	0.157
Mof_C 	C 	0.1532	0.7157	0.5289	-0.511
Mof_H 	H 	0.1602	0.7539	0.5922	0.171
Mof_H 	H 	0.12	0.7287	0.4723	0.161
Mof_H 	H 	0.2149	0.7306	0.5026	0.15
Mof_C 	C 	0.1011	0.6191	0.5573	0.142
Mof_C 	C 	0.0031	0.5689	0.5555	0.092
Mof_O 	O 	0.812	0.4091	0.36107	-0.385
Mof_O 	O 	0.7582	0.2714	0.28047	-0.396
Mof_O 	O 	0.9303	0.112	0.30037	-0.101
Mof_C 	C 	0.9161	0.3507	0.32567	-0.078
Mof_C 	C 	0.9168	0.2686	0.32297	-0.052
Mof_H 	H 	0.8603	0.211	0.31417	0.067
Mof_C 	C 	0.8212	0.3451	0.32157	0.346
Mof_C 	C 	0.6662	0.0509	0.19117	-0.493
Mof_H 	H 	0.6713	0.0589	0.11287	0.157
Mof_H 	H 	0.6977	0.017	0.21417	0.17
Mof_H 	H 	0.6955	0.1122	0.22587	0.164
Mof_C 	C 	0.5625	0.8468	0.19557	-0.5
Mof_H 	H 	0.5937	0.8398	0.25887	0.168
Mof_H 	H 	0.6087	0.88	0.13897	0.159
Mof_H 	H 	0.5157	0.7851	0.16927	0.147
Mof_C 	C 	0.518	0.8989	0.22397	0.132
Mof_C 	C 	0.5658	0.9969	0.22217	0.116
Mof_O 	O 	0.4029	0.812	0.52773	-0.385
Mof_O 	O 	0.4868	0.7582	0.44713	-0.396
Mof_O 	O 	0.8183	0.9303	0.46703	-0.099
Mof_C 	C 	0.5654	0.9161	0.49233	-0.077
Mof_C 	C 	0.6482	0.9168	0.48963	-0.051
Mof_H 	H 	0.6493	0.8603	0.48083	0.067
Mof_C 	C 	0.4761	0.8212	0.48823	0.345
Mof_C 	C 	0.6153	0.6662	0.35783	-0.481
Mof_H 	H 	0.6124	0.6713	0.27953	0.155
Mof_H 	H 	0.6807	0.6977	0.38083	0.168
Mof_H 	H 	0.5833	0.6955	0.39253	0.161
Mof_C 	C 	0.7157	0.5625	0.36223	-0.506
Mof_H 	H 	0.7539	0.5937	0.42553	0.17
Mof_H 	H 	0.7287	0.6087	0.30563	0.161
Mof_H 	H 	0.7306	0.5157	0.33593	0.149
Mof_C 	C 	0.6191	0.518	0.39063	0.136
Mof_C 	C 	0.5689	0.5658	0.38883	0.106
Mof_O 	O 	0.4091	0.5971	0.1944	-0.386
Mof_O 	O 	0.2714	0.5132	0.1138	-0.397
Mof_O 	O 	0.112	0.1817	0.1337	-0.105
Mof_C 	C 	0.3507	0.4346	0.159	-0.083
Mof_C 	C 	0.2686	0.3518	0.1563	-0.057
Mof_H 	H 	0.211	0.3507	0.1475	0.068
Mof_C 	C 	0.3451	0.5239	0.1549	0.346
Mof_C 	C 	0.0509	0.3847	0.0245	-0.497
Mof_H 	H 	0.0589	0.3876	0.9462	0.159
Mof_H 	H 	0.017	0.3193	0.0475	0.17
Mof_H 	H 	0.1122	0.4167	0.0592	0.165
Mof_C 	C 	0.8468	0.2843	0.0289	-0.51
Mof_H 	H 	0.8398	0.2461	0.0922	0.171
Mof_H 	H 	0.88	0.2713	0.9723	0.164
Mof_H 	H 	0.7851	0.2694	0.0026	0.149
Mof_C 	C 	0.8989	0.3809	0.0573	0.134
Mof_C 	C 	0.9969	0.4311	0.0555	0.117
Mof_O 	O 	0.188	0.5909	0.86107	-0.385
Mof_O 	O 	0.2418	0.7286	0.78047	-0.396
Mof_O 	O 	0.0697	0.888	0.80037	-0.102
Mof_C 	C 	0.0839	0.6493	0.82567	-0.08
Mof_C 	C 	0.0832	0.7314	0.82297	-0.056
Mof_H 	H 	0.1397	0.789	0.81417	0.069
Mof_C 	C 	0.1788	0.6549	0.82157	0.346
Mof_C 	C 	0.3338	0.9491	0.69117	-0.461
Mof_H 	H 	0.3287	0.9411	0.61287	0.15
Mof_H 	H 	0.3023	0.983	0.71417	0.165
Mof_H 	H 	0.3045	0.8878	0.72587	0.156
Mof_C 	C 	0.4375	0.1532	0.69557	-0.511
Mof_H 	H 	0.4063	0.1602	0.75887	0.17
Mof_H 	H 	0.3913	0.12	0.63897	0.161
Mof_H 	H 	0.4843	0.2149	0.66927	0.15
Mof_C 	C 	0.482	0.1011	0.72397	0.143
Mof_C 	C 	0.4342	0.0031	0.72217	0.09
Mof_Ag	Ag	0.65222	0.34778	0.41667	0.474
Mof_Ag	Ag	0.39649	0.60351	0.41667	0.598
Mof_N 	N 	0.574	0.426	0.41667	-0.209
Mof_N 	N 	0.4784	0.5216	0.41667	-0.192
Mof_Ag	Ag	0.65222	0.30444	0.75	0.473
Mof_Ag	Ag	0.39649	0.79298	0.75	0.6
Mof_N 	N 	0.574	0.148	0.75	-0.212
Mof_N 	N 	0.4784	0.9568	0.75	-0.182
Mof_Ag	Ag	0.69556	0.34778	0.08333	0.472
Mof_Ag	Ag	0.20702	0.60351	0.08333	0.594
Mof_N 	N 	0.852	0.426	0.08333	-0.208
Mof_N 	N 	0.0432	0.5216	0.08333	-0.199
Mof_Ag	Ag	0.34778	0.65222	0.91667	0.477
Mof_Ag	Ag	0.60351	0.39649	0.91667	0.6
Mof_N 	N 	0.426	0.574	0.91667	-0.209
Mof_N 	N 	0.5216	0.4784	0.91667	-0.192
Mof_Ag	Ag	0.34778	0.69556	0.25	0.474
Mof_Ag	Ag	0.60351	0.20702	0.25	0.597
Mof_N 	N 	0.426	0.852	0.25	-0.208
Mof_N 	N 	0.5216	0.0432	0.25	-0.199
Mof_Ag	Ag	0.30444	0.65222	0.58333	0.473
Mof_Ag	Ag	0.79298	0.39649	0.58333	0.599
Mof_N 	N 	0.148	0.574	0.58333	-0.211
Mof_N 	N 	0.9568	0.4784	0.58333	-0.184
Mof_N 	N 	-1.14004e-17	0.1821	0.33333	-0.009
Mof_C 	C 	7.87545e-18	0.435	0.33333	0.008
Mof_H 	H 	-6.92278e-17	0.4924	0.33333	0.029
Mof_C 	C 	-1.14004e-17	0.2704	0.33333	0.072
Mof_N 	N 	0.8179	0.8179	0.66667	-0.008
Mof_C 	C 	0.565	0.565	0.66667	0.014
Mof_H 	H 	0.5076	0.5076	0.66667	0.029
Mof_C 	C 	0.7296	0.7296	0.66667	0.079
Mof_N 	N 	0.1821	0	-0	-0.008
Mof_C 	C 	0.435	0	-0	0.01
Mof_H 	H 	0.4924	0	-0	0.029
Mof_C 	C 	0.2704	0	-0	0.075
Mof_N 	N 	4.12356e-19	0.8179	0.83333	-0.01
Mof_C 	C 	3.8964e-17	0.565	0.83333	0.007
Mof_H 	H 	-3.81393e-17	0.5076	0.83333	0.03
Mof_C 	C 	7.75156e-17	0.7296	0.83333	0.072
Mof_N 	N 	0.1821	0.1821	0.16667	-0.007
Mof_C 	C 	0.435	0.435	0.16667	0.015
Mof_H 	H 	0.4924	0.4924	0.16667	0.028
Mof_C 	C 	0.2704	0.2704	0.16667	0.078
Mof_N 	N 	0.8179	0	0.5	-0.01
Mof_C 	C 	0.565	0	0.5	0.007
Mof_H 	H 	0.5076	0	0.5	0.029
Mof_C 	C 	0.7296	0	0.5	0.072
_end
