data_functionalizedCrystal
_audit_creation_method	'EQeq! by Chris Wilmer'
_symmetry_space_group_name_H-M	'P1'
_symmetry_Int_Tables_number	1
_symmetry_cell_setting	triclinic
loop_
_symmetry_equiv_pos_as_xyz
  x,y,z
_cell_length_a	24.561
_cell_length_b	6.986
_cell_length_c	9.1333
_cell_angle_alpha	90
_cell_angle_beta	90
_cell_angle_gamma	90
loop_
_atom_site_label
_atom_site_type_symbol
_atom_site_fract_x
_atom_site_fract_y
_atom_site_fract_z
_atom_site_charge
Mof_N 	N 	0.44234	0.1543	0.5982	-0.195
Mof_H 	H 	0.3832	0.9646	0.6591	0.065
Mof_C 	C 	0.39417	0.0941	0.6473	-0.086
Mof_C 	C 	0.2777	0.086	0.7341	-0.084
Mof_H 	H 	0.296	0.9671	0.7239	0.082
Mof_N 	N 	0.39417	0.4059	0.6473	-0.141
Mof_N 	N 	0.94234	0.6543	0.0982	-0.196
Mof_H 	H 	0.8832	0.4646	0.1591	0.008
Mof_C 	C 	0.89417	0.5941	0.1473	-0.03
Mof_C 	C 	0.7777	0.586	0.2341	-0.05
Mof_H 	H 	0.796	0.4671	0.2239	0.032
Mof_N 	N 	0.89417	0.9059	0.1473	-0.116
Mof_N 	N 	0.55766	0.3457	0.5982	-0.2
Mof_H 	H 	0.6168	0.5354	0.6591	0.02
Mof_C 	C 	0.60583	0.4059	0.6473	-0.01
Mof_C 	C 	0.7223	0.414	0.7341	-0.045
Mof_H 	H 	0.704	0.5329	0.7239	0.049
Mof_N 	N 	0.60583	0.0941	0.6473	-0.162
Mof_N 	N 	0.05766	0.8457	0.0982	-0.224
Mof_H 	H 	0.1168	0.0354	0.1591	-0.05
Mof_C 	C 	0.10583	0.9059	0.1473	0.05
Mof_C 	C 	0.2223	0.914	0.2341	-0.007
Mof_H 	H 	0.204	0.0329	0.2239	-0.007
Mof_N 	N 	0.10583	0.5941	0.1473	-0.141
Mof_N 	N 	0.55766	0.6543	0.4018	-0.204
Mof_H 	H 	0.6168	0.4646	0.3409	0.008
Mof_C 	C 	0.60583	0.5941	0.3527	-0.023
Mof_C 	C 	0.7223	0.586	0.2659	-0.053
Mof_H 	H 	0.704	0.4671	0.2761	0.034
Mof_N 	N 	0.60583	0.9059	0.3527	-0.114
Mof_N 	N 	0.05766	0.1543	0.9018	-0.178
Mof_H 	H 	0.1168	0.9646	0.8409	0.069
Mof_C 	C 	0.10583	0.0941	0.8527	-0.073
Mof_C 	C 	0.2223	0.086	0.7659	-0.085
Mof_H 	H 	0.204	0.9671	0.7761	0.083
Mof_N 	N 	0.10583	0.4059	0.8527	-0.138
Mof_N 	N 	0.44234	0.8457	0.4018	-0.208
Mof_H 	H 	0.3832	0.0354	0.3409	-0.04
Mof_C 	C 	0.39417	0.9059	0.3527	0.058
Mof_C 	C 	0.2777	0.914	0.2659	-0.011
Mof_H 	H 	0.296	0.0329	0.2761	-0.003
Mof_N 	N 	0.39417	0.5941	0.3527	-0.137
Mof_N 	N 	0.94234	0.3457	0.9018	-0.16
Mof_H 	H 	0.8832	0.5354	0.8409	0.034
Mof_C 	C 	0.89417	0.4059	0.8527	0.001
Mof_C 	C 	0.7777	0.414	0.7659	-0.046
Mof_H 	H 	0.796	0.5329	0.7761	0.053
Mof_N 	N 	0.89417	0.0941	0.8527	-0.156
Mof_N 	N 	0.55766	0.8457	0.4018	-0.17
Mof_H 	H 	0.6168	0.0354	0.3409	0.036
Mof_C 	C 	0.7223	0.914	0.2659	-0.004
Mof_H 	H 	0.704	0.0329	0.2761	-0.004
Mof_N 	N 	0.05766	0.3457	0.9018	-0.155
Mof_H 	H 	0.1168	0.5354	0.8409	0.088
Mof_C 	C 	0.2223	0.414	0.7659	-0.043
Mof_H 	H 	0.204	0.5329	0.7761	0.051
Mof_N 	N 	0.44234	0.6543	0.4018	-0.178
Mof_H 	H 	0.3832	0.4646	0.3409	0.063
Mof_C 	C 	0.2777	0.586	0.2659	-0.056
Mof_H 	H 	0.296	0.4671	0.2761	0.036
Mof_N 	N 	0.94234	0.1543	0.9018	-0.134
Mof_H 	H 	0.8832	0.9646	0.8409	0.119
Mof_C 	C 	0.7777	0.086	0.7659	-0.086
Mof_H 	H 	0.796	0.9671	0.7761	0.087
Mof_N 	N 	0.44234	0.3457	0.5982	-0.172
Mof_H 	H 	0.3832	0.5354	0.6591	0.08
Mof_C 	C 	0.2777	0.414	0.7341	-0.04
Mof_H 	H 	0.296	0.5329	0.7239	0.048
Mof_N 	N 	0.94234	0.8457	0.0982	-0.161
Mof_H 	H 	0.8832	0.0354	0.1591	0.033
Mof_C 	C 	0.7777	0.914	0.2341	-0
Mof_H 	H 	0.796	0.0329	0.2239	-0.006
Mof_N 	N 	0.55766	0.1543	0.5982	-0.177
Mof_H 	H 	0.6168	0.9646	0.6591	0.105
Mof_C 	C 	0.7223	0.086	0.7341	-0.086
Mof_H 	H 	0.704	0.9671	0.7239	0.084
Mof_N 	N 	0.05766	0.6543	0.0982	-0.197
Mof_H 	H 	0.1168	0.4646	0.1591	0.052
Mof_C 	C 	0.2223	0.586	0.2341	-0.053
Mof_H 	H 	0.204	0.4671	0.2239	0.032
Mof_Cu	Cu	0.5	0	0.5	0.81
Mof_Cu	Cu	-0	0.5	-0	0.764
Mof_Cu	Cu	0.5	0.5	0.5	0.827
Mof_Cu	Cu	-0	0	-0	0.746
Mof_C 	C 	0.3639	0.25	0.6772	0.076
Mof_C 	C 	0.306	0.25	0.7174	0.005
Mof_C 	C 	0.8639	0.75	0.1772	0.053
Mof_C 	C 	0.806	0.75	0.2174	-0.023
Mof_C 	C 	0.6361	0.25	0.6772	0.05
Mof_C 	C 	0.694	0.25	0.7174	0.016
Mof_C 	C 	0.1361	0.75	0.1772	0.018
Mof_C 	C 	0.194	0.75	0.2174	-0.013
Mof_C 	C 	0.6361	0.75	0.3228	0.05
Mof_C 	C 	0.694	0.75	0.2826	-0.018
Mof_C 	C 	0.1361	0.25	0.8228	0.074
Mof_C 	C 	0.194	0.25	0.7826	0.01
Mof_C 	C 	0.3639	0.75	0.3228	0.022
Mof_C 	C 	0.306	0.75	0.2826	-0.008
Mof_C 	C 	0.8639	0.25	0.8228	0.056
Mof_C 	C 	0.806	0.25	0.7826	0.02
_end
