data_functionalizedCrystal
_audit_creation_method	'EQeq! by Chris Wilmer'
_symmetry_space_group_name_H-M	'P1'
_symmetry_Int_Tables_number	1
_symmetry_cell_setting	triclinic
loop_
_symmetry_equiv_pos_as_xyz
  x,y,z
_cell_length_a	7.4416
_cell_length_b	24.8056
_cell_length_c	30.314
_cell_angle_alpha	90
_cell_angle_beta	91.637
_cell_angle_gamma	90
loop_
_atom_site_label
_atom_site_type_symbol
_atom_site_fract_x
_atom_site_fract_y
_atom_site_fract_z
_atom_site_charge
Mof_O 	O 	0.2517	0.35729	0.73456	-0.659
Mof_C 	C 	0.1948	0.389	0.70425	0.463
Mof_O 	O 	0.0292	0.39574	0.70023	-0.416
Mof_C 	C 	0.3234	0.4138	0.67391	-0.337
Mof_C 	C 	0.2626	0.4449	0.6385	0.196
Mof_C 	C 	0.3822	0.4638	0.6077	-0.303
Mof_C 	C 	0.5639	0.4516	0.61251	0.226
Mof_C 	C 	0.6244	0.4225	0.6488	-0.336
Mof_C 	C 	0.5052	0.4034	0.679	0.246
Mof_C 	C 	0.6919	0.4682	0.57768	-0.196
Mof_C 	C 	0.1794	0.493	0.41167	0.074
Mof_N 	N 	0.0475	0.4751	0.43882	-0.257
Mof_N 	N 	0.7908	0.4505	0.50228	-0.214
Mof_C 	C 	0.6818	0.4421	0.5373	0.129
Mof_C 	C 	0.5545	0.4008	0.5269	-0.089
Mof_C 	C 	0.5891	0.3827	0.4867	-0.121
Mof_C 	C 	0.7345	0.4142	0.4701	0.163
Mof_C 	C 	0.8118	0.4067	0.4296	-0.274
Mof_C 	C 	0.9579	0.436	0.41532	0.273
Mof_C 	C 	0.0346	0.4293	0.372	-0.325
Mof_C 	C 	0.1693	0.4651	0.37042	0.008
Mof_C 	C 	0.7316	0.3655	0.3994	0.337
Mof_C 	C 	0.8243	0.3191	0.3889	-0.459
Mof_C 	C 	0.7465	0.2817	0.3595	0.351
Mof_C 	C 	0.5827	0.2905	0.3408	-0.571
Mof_C 	C 	0.4886	0.3354	0.3519	0.417
Mof_C 	C 	0.5631	0.3732	0.3801	-0.482
Mof_C 	C 	0.4946	0.2534	0.3076	0.683
Mof_O 	O 	0.5931	0.2142	0.29499	-0.674
Mof_O 	O 	0.3444	0.2606	0.293	-0.873
Mof_H 	H 	0.1398	0.453	0.6353	-0.054
Mof_H 	H 	0.3403	0.4848	0.5843	0.126
Mof_H 	H 	0.7459	0.4151	0.6529	0.155
Mof_H 	H 	0.5465	0.3832	0.7032	-0.158
Mof_H 	H 	0.4672	0.3884	0.5454	0.042
Mof_H 	H 	0.5276	0.3558	0.4717	0.061
Mof_H 	H 	0.9964	0.4055	0.3499	0.107
Mof_H 	H 	0.2456	0.4705	0.3468	-0.003
Mof_H 	H 	0.9356	0.3124	0.402	0.157
Mof_H 	H 	0.8102	0.2506	0.3528	-0.24
Mof_H 	H 	0.3731	0.3406	0.3403	-0.198
Mof_H 	H 	0.4998	0.4044	0.3868	0.183
Mof_O 	O 	0.7517	0.85729	0.73456	-0.612
Mof_C 	C 	0.6948	0.889	0.70425	0.4
Mof_O 	O 	0.5292	0.89574	0.70023	-0.371
Mof_C 	C 	0.8234	0.9138	0.67391	-0.153
Mof_C 	C 	0.7626	0.9449	0.6385	0.04
Mof_C 	C 	0.8822	0.9638	0.6077	-0.097
Mof_C 	C 	0.0639	0.9516	0.61251	0.055
Mof_C 	C 	0.1244	0.9225	0.6488	-0.163
Mof_C 	C 	0.0052	0.9034	0.679	0.034
Mof_C 	C 	0.1919	0.9682	0.57768	-0.121
Mof_C 	C 	0.6794	0.993	0.41167	0.167
Mof_N 	N 	0.5475	0.9751	0.43882	-0.223
Mof_N 	N 	0.2908	0.9505	0.50228	-0.221
Mof_C 	C 	0.1818	0.9421	0.5373	0.128
Mof_C 	C 	0.0545	0.9008	0.5269	-0.198
Mof_C 	C 	0.0891	0.8827	0.4867	-0.067
Mof_C 	C 	0.2345	0.9142	0.4701	0.143
Mof_C 	C 	0.3118	0.9067	0.4296	-0.294
Mof_C 	C 	0.4579	0.936	0.41532	0.14
Mof_C 	C 	0.5346	0.9293	0.372	-0.065
Mof_C 	C 	0.6693	0.9651	0.37042	-0.14
Mof_C 	C 	0.2316	0.8655	0.3994	0.523
Mof_C 	C 	0.3243	0.8191	0.3889	-0.675
Mof_C 	C 	0.2465	0.7817	0.3595	0.603
Mof_C 	C 	0.0827	0.7905	0.3408	-0.902
Mof_C 	C 	0.9886	0.8354	0.3519	0.831
Mof_C 	C 	0.0631	0.8732	0.3801	-0.866
Mof_C 	C 	0.9946	0.7534	0.3076	0.883
Mof_O 	O 	0.0931	0.7142	0.29499	-0.757
Mof_O 	O 	0.8444	0.7606	0.293	-0.938
Mof_H 	H 	0.6398	0.953	0.6353	0.02
Mof_H 	H 	0.8403	0.9848	0.5843	0.073
Mof_H 	H 	0.2459	0.9151	0.6529	0.086
Mof_H 	H 	0.0465	0.8832	0.7032	-0.09
Mof_H 	H 	0.9672	0.8884	0.5454	0.119
Mof_H 	H 	0.0276	0.8558	0.4717	0.031
Mof_H 	H 	0.4964	0.9055	0.3499	-0.022
Mof_H 	H 	0.7456	0.9705	0.3468	0.063
Mof_H 	H 	0.4356	0.8124	0.402	0.219
Mof_H 	H 	0.3102	0.7506	0.3528	-0.347
Mof_H 	H 	0.8731	0.8406	0.3403	-0.332
Mof_H 	H 	0.9998	0.9044	0.3868	0.347
Mof_O 	O 	0.7483	0.35729	0.76544	-0.638
Mof_C 	C 	0.8052	0.389	0.79575	0.447
Mof_O 	O 	0.9708	0.39574	0.79977	-0.351
Mof_C 	C 	0.6766	0.4138	0.82609	-0.292
Mof_C 	C 	0.7374	0.4449	0.8615	0.16
Mof_C 	C 	0.6178	0.4638	0.8923	-0.254
Mof_C 	C 	0.4361	0.4516	0.88749	0.178
Mof_C 	C 	0.3756	0.4225	0.8512	-0.286
Mof_C 	C 	0.4948	0.4034	0.821	0.204
Mof_C 	C 	0.3081	0.4682	0.92232	-0.149
Mof_C 	C 	0.8206	0.493	0.08833	0.184
Mof_N 	N 	0.9525	0.4751	0.06118	-0.168
Mof_N 	N 	0.2092	0.4505	0.99772	-0.204
Mof_C 	C 	0.3182	0.4421	0.9627	0.106
Mof_C 	C 	0.4455	0.4008	0.9731	-0.072
Mof_C 	C 	0.4109	0.3827	0.0133	-0.111
Mof_C 	C 	0.2655	0.4142	0.0299	0.094
Mof_C 	C 	0.1882	0.4067	0.0704	-0.137
Mof_C 	C 	0.0421	0.436	0.08468	-0.054
Mof_C 	C 	0.9654	0.4293	0.128	0.204
Mof_C 	C 	0.8307	0.4651	0.12958	-0.26
Mof_C 	C 	0.2684	0.3655	0.1006	0.241
Mof_C 	C 	0.1757	0.3191	0.1111	-0.385
Mof_C 	C 	0.2535	0.2817	0.1405	0.287
Mof_C 	C 	0.4173	0.2905	0.1592	-0.521
Mof_C 	C 	0.5114	0.3354	0.1481	0.356
Mof_C 	C 	0.4369	0.3732	0.1199	-0.406
Mof_C 	C 	0.5054	0.2534	0.1924	0.662
Mof_O 	O 	0.4069	0.2142	0.20501	-0.674
Mof_O 	O 	0.6556	0.2606	0.207	-0.845
Mof_H 	H 	0.8602	0.453	0.8647	-0.013
Mof_H 	H 	0.6597	0.4848	0.9157	0.117
Mof_H 	H 	0.2541	0.4151	0.8471	0.119
Mof_H 	H 	0.4535	0.3832	0.7968	-0.143
Mof_H 	H 	0.5328	0.3884	0.9546	0.046
Mof_H 	H 	0.4724	0.3558	0.0283	0.061
Mof_H 	H 	0.0036	0.4055	0.1501	-0.148
Mof_H 	H 	0.7544	0.4705	0.1532	0.106
Mof_H 	H 	0.0644	0.3124	0.098	0.104
Mof_H 	H 	0.1898	0.2506	0.1472	-0.234
Mof_H 	H 	0.6269	0.3406	0.1597	-0.162
Mof_H 	H 	0.5002	0.4044	0.1132	0.159
Mof_O 	O 	0.2483	0.85729	0.76544	-0.665
Mof_C 	C 	0.3052	0.889	0.79575	0.496
Mof_O 	O 	0.4708	0.89574	0.79977	-0.4
Mof_C 	C 	0.1766	0.9138	0.82609	-0.445
Mof_C 	C 	0.2374	0.9449	0.8615	0.295
Mof_C 	C 	0.1178	0.9638	0.8923	-0.43
Mof_C 	C 	0.9361	0.9516	0.88749	0.325
Mof_C 	C 	0.8756	0.9225	0.8512	-0.425
Mof_C 	C 	0.9948	0.9034	0.821	0.39
Mof_C 	C 	0.8081	0.9682	0.92232	-0.169
Mof_C 	C 	0.3206	0.993	0.08833	0.147
Mof_N 	N 	0.4525	0.9751	0.06118	-0.212
Mof_N 	N 	0.7092	0.9505	0.99772	-0.199
Mof_C 	C 	0.8182	0.9421	0.9627	0.091
Mof_C 	C 	0.9455	0.9008	0.9731	0.051
Mof_C 	C 	0.9109	0.8827	0.0133	-0.172
Mof_C 	C 	0.7655	0.9142	0.0299	0.12
Mof_C 	C 	0.6882	0.9067	0.0704	-0.118
Mof_C 	C 	0.5421	0.936	0.08468	0.075
Mof_C 	C 	0.4654	0.9293	0.128	-0.034
Mof_C 	C 	0.3307	0.9651	0.12958	-0.141
Mof_C 	C 	0.7684	0.8655	0.1006	0.058
Mof_C 	C 	0.6757	0.8191	0.1111	-0.181
Mof_C 	C 	0.7535	0.7817	0.1405	0.042
Mof_C 	C 	0.9173	0.7905	0.1592	-0.215
Mof_C 	C 	0.0114	0.8354	0.1481	-0.052
Mof_C 	C 	0.9369	0.8732	0.1199	-0.026
Mof_C 	C 	0.0054	0.7534	0.1924	0.48
Mof_O 	O 	0.9069	0.7142	0.20501	-0.6
Mof_O 	O 	0.1556	0.7606	0.207	-0.845
Mof_H 	H 	0.3602	0.953	0.8647	-0.07
Mof_H 	H 	0.1597	0.9848	0.9157	0.169
Mof_H 	H 	0.7541	0.9151	0.8471	0.181
Mof_H 	H 	0.9535	0.8832	0.7968	-0.185
Mof_H 	H 	0.0328	0.8884	0.9546	-0.035
Mof_H 	H 	0.9724	0.8558	0.0283	0.094
Mof_H 	H 	0.5036	0.9055	0.1501	-0.036
Mof_H 	H 	0.2544	0.9705	0.1532	0.057
Mof_H 	H 	0.5644	0.8124	0.098	0.039
Mof_H 	H 	0.6898	0.7506	0.1472	-0.154
Mof_H 	H 	0.1269	0.8406	0.1597	-0.041
Mof_H 	H 	0.0002	0.9044	0.1132	-0.003
Mof_O 	O 	0.7483	0.64271	0.26544	-0.639
Mof_C 	C 	0.8052	0.611	0.29575	0.448
Mof_O 	O 	0.9708	0.60426	0.29977	-0.351
Mof_C 	C 	0.6766	0.5862	0.32609	-0.293
Mof_C 	C 	0.7374	0.5551	0.3615	0.16
Mof_C 	C 	0.6178	0.5362	0.3923	-0.255
Mof_C 	C 	0.4361	0.5484	0.38749	0.18
Mof_C 	C 	0.3756	0.5775	0.3512	-0.287
Mof_C 	C 	0.4948	0.5966	0.321	0.205
Mof_C 	C 	0.3081	0.5318	0.42232	-0.154
Mof_C 	C 	0.8206	0.507	0.58833	0.182
Mof_N 	N 	0.9525	0.5249	0.56118	-0.168
Mof_N 	N 	0.2092	0.5495	0.49772	-0.214
Mof_C 	C 	0.3182	0.5579	0.4627	0.111
Mof_C 	C 	0.4455	0.5992	0.4731	-0.097
Mof_C 	C 	0.4109	0.6173	0.5133	-0.088
Mof_C 	C 	0.2655	0.5858	0.5299	0.096
Mof_C 	C 	0.1882	0.5933	0.5704	-0.138
Mof_C 	C 	0.0421	0.564	0.58468	-0.053
Mof_C 	C 	0.9654	0.5707	0.628	0.203
Mof_C 	C 	0.8307	0.5349	0.62958	-0.259
Mof_C 	C 	0.2684	0.6345	0.6006	0.242
Mof_C 	C 	0.1757	0.6809	0.6111	-0.386
Mof_C 	C 	0.2535	0.7183	0.6405	0.287
Mof_C 	C 	0.4173	0.7095	0.6592	-0.521
Mof_C 	C 	0.5114	0.6646	0.6481	0.356
Mof_C 	C 	0.4369	0.6268	0.6199	-0.407
Mof_C 	C 	0.5054	0.7466	0.6924	0.663
Mof_O 	O 	0.4069	0.7858	0.70501	-0.674
Mof_O 	O 	0.6556	0.7394	0.707	-0.846
Mof_H 	H 	0.8602	0.547	0.3647	-0.013
Mof_H 	H 	0.6597	0.5152	0.4157	0.116
Mof_H 	H 	0.2541	0.5849	0.3471	0.119
Mof_H 	H 	0.4535	0.6168	0.2968	-0.144
Mof_H 	H 	0.5328	0.6116	0.4546	0.053
Mof_H 	H 	0.4724	0.6442	0.5283	0.055
Mof_H 	H 	0.0036	0.5945	0.6501	-0.147
Mof_H 	H 	0.7544	0.5295	0.6532	0.105
Mof_H 	H 	0.0644	0.6876	0.598	0.105
Mof_H 	H 	0.1898	0.7494	0.6472	-0.233
Mof_H 	H 	0.6269	0.6594	0.6597	-0.162
Mof_H 	H 	0.5002	0.5956	0.6132	0.159
Mof_O 	O 	0.2483	0.14271	0.26544	-0.666
Mof_C 	C 	0.3052	0.111	0.29575	0.499
Mof_O 	O 	0.4708	0.10426	0.29977	-0.406
Mof_C 	C 	0.1766	0.0862	0.32609	-0.458
Mof_C 	C 	0.2374	0.0551	0.3615	0.303
Mof_C 	C 	0.1178	0.0362	0.3923	-0.451
Mof_C 	C 	0.9361	0.0484	0.38749	0.343
Mof_C 	C 	0.8756	0.0775	0.3512	-0.447
Mof_C 	C 	0.9948	0.0966	0.321	0.401
Mof_C 	C 	0.8081	0.0318	0.42232	-0.229
Mof_C 	C 	0.3206	0.007	0.58833	0.088
Mof_N 	N 	0.4525	0.0249	0.56118	-0.214
Mof_N 	N 	0.7092	0.0495	0.49772	-0.219
Mof_C 	C 	0.8182	0.0579	0.4627	0.11
Mof_C 	C 	0.9455	0.0992	0.4731	0.016
Mof_C 	C 	0.9109	0.1173	0.5133	-0.146
Mof_C 	C 	0.7655	0.0858	0.5299	0.117
Mof_C 	C 	0.6882	0.0933	0.5704	-0.122
Mof_C 	C 	0.5421	0.064	0.58468	0.076
Mof_C 	C 	0.4654	0.0707	0.628	-0.052
Mof_C 	C 	0.3307	0.0349	0.62958	-0.117
Mof_C 	C 	0.7684	0.1345	0.6006	0.058
Mof_C 	C 	0.6757	0.1809	0.6111	-0.182
Mof_C 	C 	0.7535	0.2183	0.6405	0.042
Mof_C 	C 	0.9173	0.2095	0.6592	-0.215
Mof_C 	C 	0.0114	0.1646	0.6481	-0.052
Mof_C 	C 	0.9369	0.1268	0.6199	-0.027
Mof_C 	C 	0.0054	0.2466	0.6924	0.48
Mof_O 	O 	0.9069	0.2858	0.70501	-0.6
Mof_O 	O 	0.1556	0.2394	0.707	-0.845
Mof_H 	H 	0.3602	0.047	0.3647	-0.083
Mof_H 	H 	0.1597	0.0152	0.4157	0.162
Mof_H 	H 	0.7541	0.0849	0.3471	0.185
Mof_H 	H 	0.9535	0.1168	0.2968	-0.19
Mof_H 	H 	0.0328	0.1116	0.4546	-0.025
Mof_H 	H 	0.9724	0.1442	0.5283	0.086
Mof_H 	H 	0.5036	0.0945	0.6501	-0.033
Mof_H 	H 	0.2544	0.0295	0.6532	0.037
Mof_H 	H 	0.5644	0.1876	0.598	0.04
Mof_H 	H 	0.6898	0.2494	0.6472	-0.153
Mof_H 	H 	0.1269	0.1594	0.6597	-0.042
Mof_H 	H 	0.0002	0.0956	0.6132	-0.007
Mof_O 	O 	0.2517	0.64271	0.23456	-0.658
Mof_C 	C 	0.1948	0.611	0.20425	0.465
Mof_O 	O 	0.0292	0.60426	0.20023	-0.415
Mof_C 	C 	0.3234	0.5862	0.17391	-0.337
Mof_C 	C 	0.2626	0.5551	0.1385	0.197
Mof_C 	C 	0.3822	0.5362	0.1077	-0.305
Mof_C 	C 	0.5639	0.5484	0.11251	0.227
Mof_C 	C 	0.6244	0.5775	0.1488	-0.337
Mof_C 	C 	0.5052	0.5966	0.179	0.247
Mof_C 	C 	0.6919	0.5318	0.07768	-0.2
Mof_C 	C 	0.1794	0.507	0.91167	0.073
Mof_N 	N 	0.0475	0.5249	0.93882	-0.252
Mof_N 	N 	0.7908	0.5495	0.00228	-0.219
Mof_C 	C 	0.6818	0.5579	0.0373	0.135
Mof_C 	C 	0.5545	0.5992	0.0269	-0.114
Mof_C 	C 	0.5891	0.6173	0.9867	-0.098
Mof_C 	C 	0.7345	0.5858	0.9701	0.165
Mof_C 	C 	0.8118	0.5933	0.9296	-0.273
Mof_C 	C 	0.9579	0.564	0.91532	0.272
Mof_C 	C 	0.0346	0.5707	0.872	-0.323
Mof_C 	C 	0.1693	0.5349	0.87042	0.007
Mof_C 	C 	0.7316	0.6345	0.8994	0.336
Mof_C 	C 	0.8243	0.6809	0.8889	-0.458
Mof_C 	C 	0.7465	0.7183	0.8595	0.351
Mof_C 	C 	0.5827	0.7095	0.8408	-0.57
Mof_C 	C 	0.4886	0.6646	0.8519	0.417
Mof_C 	C 	0.5631	0.6268	0.8801	-0.482
Mof_C 	C 	0.4946	0.7466	0.8076	0.683
Mof_O 	O 	0.5931	0.7858	0.79499	-0.674
Mof_O 	O 	0.3444	0.7394	0.793	-0.873
Mof_H 	H 	0.1398	0.547	0.1353	-0.054
Mof_H 	H 	0.3403	0.5152	0.0843	0.125
Mof_H 	H 	0.7459	0.5849	0.1529	0.156
Mof_H 	H 	0.5465	0.6168	0.2032	-0.159
Mof_H 	H 	0.4672	0.6116	0.0454	0.049
Mof_H 	H 	0.5276	0.6442	0.9717	0.055
Mof_H 	H 	0.9964	0.5945	0.8499	0.106
Mof_H 	H 	0.2456	0.5295	0.8468	-0.003
Mof_H 	H 	0.9356	0.6876	0.902	0.158
Mof_H 	H 	0.8102	0.7494	0.8528	-0.24
Mof_H 	H 	0.3731	0.6594	0.8403	-0.197
Mof_H 	H 	0.4998	0.5956	0.8868	0.183
Mof_O 	O 	0.7517	0.14271	0.23456	-0.613
Mof_C 	C 	0.6948	0.111	0.20425	0.401
Mof_O 	O 	0.5292	0.10426	0.20023	-0.376
Mof_C 	C 	0.8234	0.0862	0.17391	-0.164
Mof_C 	C 	0.7626	0.0551	0.1385	0.047
Mof_C 	C 	0.8822	0.0362	0.1077	-0.116
Mof_C 	C 	0.0639	0.0484	0.11251	0.072
Mof_C 	C 	0.1244	0.0775	0.1488	-0.183
Mof_C 	C 	0.0052	0.0966	0.179	0.044
Mof_C 	C 	0.1919	0.0318	0.07768	-0.18
Mof_C 	C 	0.6794	0.007	0.91167	0.108
Mof_N 	N 	0.5475	0.0249	0.93882	-0.22
Mof_N 	N 	0.2908	0.0495	0.00228	-0.237
Mof_C 	C 	0.1818	0.0579	0.0373	0.148
Mof_C 	C 	0.0545	0.0992	0.0269	-0.237
Mof_C 	C 	0.0891	0.1173	0.9867	-0.038
Mof_C 	C 	0.2345	0.0858	0.9701	0.139
Mof_C 	C 	0.3118	0.0933	0.9296	-0.296
Mof_C 	C 	0.4579	0.064	0.91532	0.141
Mof_C 	C 	0.5346	0.0707	0.872	-0.083
Mof_C 	C 	0.6693	0.0349	0.87042	-0.116
Mof_C 	C 	0.2316	0.1345	0.8994	0.519
Mof_C 	C 	0.3243	0.1809	0.8889	-0.672
Mof_C 	C 	0.2465	0.2183	0.8595	0.599
Mof_C 	C 	0.0827	0.2095	0.8408	-0.898
Mof_C 	C 	0.9886	0.1646	0.8519	0.825
Mof_C 	C 	0.0631	0.1268	0.8801	-0.862
Mof_C 	C 	0.9946	0.2466	0.8076	0.881
Mof_O 	O 	0.0931	0.2858	0.79499	-0.756
Mof_O 	O 	0.8444	0.2394	0.793	-0.937
Mof_H 	H 	0.6398	0.047	0.1353	0.008
Mof_H 	H 	0.8403	0.0152	0.0843	0.067
Mof_H 	H 	0.2459	0.0849	0.1529	0.089
Mof_H 	H 	0.0465	0.1168	0.2032	-0.095
Mof_H 	H 	0.9672	0.1116	0.0454	0.131
Mof_H 	H 	0.0276	0.1442	0.9717	0.023
Mof_H 	H 	0.4964	0.0945	0.8499	-0.019
Mof_H 	H 	0.7456	0.0295	0.8468	0.042
Mof_H 	H 	0.4356	0.1876	0.902	0.219
Mof_H 	H 	0.3102	0.2494	0.8528	-0.345
Mof_H 	H 	0.8731	0.1594	0.8403	-0.331
Mof_H 	H 	0.9998	0.0956	0.8868	0.34
Mof_Cs	Cs	3.92746e-33	0.24602	0.25	4.022
Mof_Cs	Cs	0.5	0.74602	0.25	4.285
Mof_Cs	Cs	1.17824e-32	0.75398	0.75	4.023
Mof_Cs	Cs	0.5	0.25398	0.75	4.275
Mof_Fe	Fe	1.17824e-32	0.33305	0.75	0.836
Mof_Fe	Fe	0.5	0.83305	0.75	0.91
Mof_Fe	Fe	3.92746e-33	0.66695	0.25	0.835
Mof_Fe	Fe	0.5	0.16695	0.25	0.909
Mof_Fe	Fe	1.01624e-17	0.5	0.5	0.561
Mof_Fe	Fe	0.5	0	0.5	0.602
Mof_Fe	Fe	-1.80521e-32	0.5	-0	0.547
Mof_Fe	Fe	0.5	0	-0	0.588
_end
