data_functionalizedCrystal
_audit_creation_method	'EQeq! by Chris Wilmer'
_symmetry_space_group_name_H-M	'P1'
_symmetry_Int_Tables_number	1
_symmetry_cell_setting	triclinic
loop_
_symmetry_equiv_pos_as_xyz
  x,y,z
_cell_length_a	13.0005
_cell_length_b	13.0005
_cell_length_c	30.2002
_cell_angle_alpha	90
_cell_angle_beta	90
_cell_angle_gamma	90
loop_
_atom_site_label
_atom_site_type_symbol
_atom_site_fract_x
_atom_site_fract_y
_atom_site_fract_z
_atom_site_charge
Mof_Co	Co	0.8954	0.95131	0.45964	1.165
Mof_C 	C 	0.1065	0.9159	0.3783	0.615
Mof_C 	C 	0.1502	0.8328	0.4082	-0.584
Mof_C 	C 	0.0771	0.809	0.4483	0.209
Mof_C 	C 	0.14	0.7335	0.4767	-0.542
Mof_C 	C 	0.0801	0.6841	0.5135	0.452
Mof_C 	C 	0.9785	0.7557	0.4314	0.373
Mof_O 	O 	0.1096	0.0093	0.39071	-0.888
Mof_O 	O 	0.0697	0.8893	0.34092	-0.604
Mof_O 	O 	0.0543	0.9011	0.47128	-0.608
Mof_O 	O 	0.8952	0.8011	0.43768	-0.767
Mof_O 	O 	0.9907	0.6714	0.4144	-0.356
Mof_O 	O 	0.0373	0.7368	0.54193	-0.729
Mof_O 	O 	0.0753	0.5848	0.5143	-0.56
Mof_H 	H 	0.2171	0.8561	0.4192	0.186
Mof_H 	H 	0.1581	0.7701	0.3916	0.163
Mof_H 	H 	0.1946	0.7726	0.4899	0.13
Mof_H 	H 	0.1697	0.681	0.4586	0.159
Mof_Co	Co	0.3954	0.45131	0.95964	1.136
Mof_C 	C 	0.6065	0.4159	0.8783	0.522
Mof_C 	C 	0.6502	0.3328	0.9082	-0.558
Mof_C 	C 	0.5771	0.309	0.9483	0.272
Mof_C 	C 	0.64	0.2335	0.9767	-0.559
Mof_C 	C 	0.5801	0.1841	0.0135	0.466
Mof_C 	C 	0.4785	0.2557	0.9314	0.291
Mof_O 	O 	0.6096	0.5093	0.89071	-0.799
Mof_O 	O 	0.5697	0.3893	0.84092	-0.583
Mof_O 	O 	0.5543	0.4011	0.97128	-0.618
Mof_O 	O 	0.3952	0.3011	0.93768	-0.753
Mof_O 	O 	0.4907	0.1714	0.9144	-0.399
Mof_O 	O 	0.5373	0.2368	0.04193	-0.703
Mof_O 	O 	0.5753	0.0848	0.0143	-0.564
Mof_H 	H 	0.7171	0.3561	0.9192	0.161
Mof_H 	H 	0.6581	0.2701	0.8916	0.166
Mof_H 	H 	0.6946	0.2726	0.9899	0.13
Mof_H 	H 	0.6697	0.181	0.9586	0.167
Mof_Co	Co	0.1046	0.04869	0.45964	1.103
Mof_C 	C 	0.8935	0.0841	0.3783	0.428
Mof_C 	C 	0.8498	0.1672	0.4082	-0.536
Mof_C 	C 	0.9229	0.191	0.4483	0.34
Mof_C 	C 	0.86	0.2665	0.4767	-0.569
Mof_C 	C 	0.9199	0.3159	0.5135	0.472
Mof_C 	C 	0.0215	0.2443	0.4314	0.202
Mof_O 	O 	0.8904	0.9907	0.39071	-0.688
Mof_O 	O 	0.9303	0.1107	0.34092	-0.524
Mof_O 	O 	0.9457	0.0989	0.47128	-0.627
Mof_O 	O 	0.1048	0.1989	0.43768	-0.743
Mof_O 	O 	0.0093	0.3286	0.4144	-0.402
Mof_O 	O 	0.9627	0.2632	0.54193	-0.666
Mof_O 	O 	0.9247	0.4152	0.5143	-0.498
Mof_H 	H 	0.7829	0.1439	0.4192	0.137
Mof_H 	H 	0.8419	0.2299	0.3916	0.177
Mof_H 	H 	0.8054	0.2274	0.4899	0.123
Mof_H 	H 	0.8303	0.319	0.4586	0.185
Mof_Co	Co	0.6046	0.54869	0.95964	1.134
Mof_C 	C 	0.3935	0.5841	0.8783	0.519
Mof_C 	C 	0.3498	0.6672	0.9082	-0.562
Mof_C 	C 	0.4229	0.691	0.9483	0.275
Mof_C 	C 	0.36	0.7665	0.9767	-0.552
Mof_C 	C 	0.4199	0.8159	0.0135	0.458
Mof_C 	C 	0.5215	0.7443	0.9314	0.288
Mof_O 	O 	0.3904	0.4907	0.89071	-0.78
Mof_O 	O 	0.4303	0.6107	0.84092	-0.576
Mof_O 	O 	0.4457	0.5989	0.97128	-0.619
Mof_O 	O 	0.6048	0.6989	0.93768	-0.757
Mof_O 	O 	0.5093	0.8286	0.9144	-0.358
Mof_O 	O 	0.4627	0.7632	0.04193	-0.692
Mof_O 	O 	0.4247	0.9152	0.0143	-0.494
Mof_H 	H 	0.2829	0.6439	0.9192	0.162
Mof_H 	H 	0.3419	0.7299	0.8916	0.174
Mof_H 	H 	0.3054	0.7274	0.9899	0.124
Mof_H 	H 	0.3303	0.819	0.9586	0.176
Mof_Co	Co	0.95131	0.1046	0.54036	1.138
Mof_C 	C 	0.9159	0.8935	0.6217	0.639
Mof_C 	C 	0.8328	0.8498	0.5918	-0.631
Mof_C 	C 	0.809	0.9229	0.5517	0.362
Mof_C 	C 	0.7335	0.86	0.5233	-0.588
Mof_C 	C 	0.6841	0.9199	0.4865	0.478
Mof_C 	C 	0.7557	0.0215	0.5686	0.199
Mof_O 	O 	0.0093	0.8904	0.60929	-0.857
Mof_O 	O 	0.8893	0.9303	0.65908	-0.535
Mof_O 	O 	0.9011	0.9457	0.52872	-0.574
Mof_O 	O 	0.8011	0.1048	0.56232	-0.75
Mof_O 	O 	0.6714	0.0093	0.5856	-0.402
Mof_O 	O 	0.7368	0.9627	0.45807	-0.677
Mof_O 	O 	0.5848	0.9247	0.4857	-0.501
Mof_H 	H 	0.8561	0.7829	0.5808	0.195
Mof_H 	H 	0.7701	0.8419	0.6084	0.203
Mof_H 	H 	0.7726	0.8054	0.5101	0.139
Mof_H 	H 	0.681	0.8303	0.5414	0.19
Mof_Co	Co	0.45131	0.6046	0.04036	1.135
Mof_C 	C 	0.4159	0.3935	0.1217	0.518
Mof_C 	C 	0.3328	0.3498	0.0918	-0.55
Mof_C 	C 	0.309	0.4229	0.0517	0.263
Mof_C 	C 	0.2335	0.36	0.0233	-0.542
Mof_C 	C 	0.1841	0.4199	0.9865	0.458
Mof_C 	C 	0.2557	0.5215	0.0686	0.296
Mof_O 	O 	0.5093	0.3904	0.10929	-0.789
Mof_O 	O 	0.3893	0.4303	0.15908	-0.582
Mof_O 	O 	0.4011	0.4457	0.02872	-0.617
Mof_O 	O 	0.3011	0.6048	0.06232	-0.761
Mof_O 	O 	0.1714	0.5093	0.0856	-0.401
Mof_O 	O 	0.2368	0.4627	0.95807	-0.695
Mof_O 	O 	0.0848	0.4247	0.9857	-0.566
Mof_H 	H 	0.3561	0.2829	0.0808	0.155
Mof_H 	H 	0.2701	0.3419	0.1084	0.16
Mof_H 	H 	0.2726	0.3054	0.0101	0.115
Mof_H 	H 	0.181	0.3303	0.0414	0.152
Mof_Co	Co	0.04869	0.8954	0.54036	1.133
Mof_C 	C 	0.0841	0.1065	0.6217	0.39
Mof_C 	C 	0.1672	0.1502	0.5918	-0.48
Mof_C 	C 	0.191	0.0771	0.5517	0.178
Mof_C 	C 	0.2665	0.14	0.5233	-0.52
Mof_C 	C 	0.3159	0.0801	0.4865	0.445
Mof_C 	C 	0.2443	0.9785	0.5686	0.386
Mof_O 	O 	0.9907	0.1096	0.60929	-0.708
Mof_O 	O 	0.1107	0.0697	0.65908	-0.595
Mof_O 	O 	0.0989	0.0543	0.52872	-0.666
Mof_O 	O 	0.1989	0.8952	0.56232	-0.762
Mof_O 	O 	0.3286	0.9907	0.5856	-0.356
Mof_O 	O 	0.2632	0.0373	0.45807	-0.72
Mof_O 	O 	0.4152	0.0753	0.4857	-0.556
Mof_H 	H 	0.1439	0.2171	0.5808	0.124
Mof_H 	H 	0.2299	0.1581	0.6084	0.134
Mof_H 	H 	0.2274	0.1946	0.5101	0.113
Mof_H 	H 	0.319	0.1697	0.5414	0.151
Mof_Co	Co	0.54869	0.3954	0.04036	1.135
Mof_C 	C 	0.5841	0.6065	0.1217	0.523
Mof_C 	C 	0.6672	0.6502	0.0918	-0.569
Mof_C 	C 	0.691	0.5771	0.0517	0.282
Mof_C 	C 	0.7665	0.64	0.0233	-0.567
Mof_C 	C 	0.8159	0.5801	0.9865	0.466
Mof_C 	C 	0.7443	0.4785	0.0686	0.284
Mof_O 	O 	0.4907	0.6096	0.10929	-0.791
Mof_O 	O 	0.6107	0.5697	0.15908	-0.577
Mof_O 	O 	0.5989	0.5543	0.02872	-0.62
Mof_O 	O 	0.6989	0.3952	0.06232	-0.75
Mof_O 	O 	0.8286	0.4907	0.0856	-0.356
Mof_O 	O 	0.7632	0.5373	0.95807	-0.7
Mof_O 	O 	0.9152	0.5753	0.9857	-0.492
Mof_H 	H 	0.6439	0.7171	0.0808	0.167
Mof_H 	H 	0.7299	0.6581	0.1084	0.18
Mof_H 	H 	0.7274	0.6946	0.0101	0.138
Mof_H 	H 	0.819	0.6697	0.0414	0.19
Mof_Co	Co	0.6046	0.95131	0.29036	1.152
Mof_C 	C 	0.3935	0.9159	0.3717	0.628
Mof_C 	C 	0.3498	0.8328	0.3418	-0.606
Mof_C 	C 	0.4229	0.809	0.3017	0.283
Mof_C 	C 	0.36	0.7335	0.2733	-0.559
Mof_C 	C 	0.4199	0.6841	0.2365	0.463
Mof_C 	C 	0.5215	0.7557	0.3186	0.288
Mof_O 	O 	0.3904	0.0093	0.35929	-0.871
Mof_O 	O 	0.4303	0.8893	0.40908	-0.577
Mof_O 	O 	0.4457	0.9011	0.27872	-0.59
Mof_O 	O 	0.6048	0.8011	0.31232	-0.762
Mof_O 	O 	0.5093	0.6714	0.3356	-0.38
Mof_O 	O 	0.4627	0.7368	0.20807	-0.701
Mof_O 	O 	0.4247	0.5848	0.2357	-0.539
Mof_H 	H 	0.2829	0.8561	0.3308	0.189
Mof_H 	H 	0.3419	0.7701	0.3584	0.181
Mof_H 	H 	0.3054	0.7726	0.2601	0.128
Mof_H 	H 	0.3303	0.681	0.2914	0.168
Mof_Co	Co	0.1046	0.45131	0.79036	1.121
Mof_C 	C 	0.8935	0.4159	0.8717	0.534
Mof_C 	C 	0.8498	0.3328	0.8418	-0.579
Mof_C 	C 	0.9229	0.309	0.8017	0.347
Mof_C 	C 	0.86	0.2335	0.7733	-0.573
Mof_C 	C 	0.9199	0.1841	0.7365	0.474
Mof_C 	C 	0.0215	0.2557	0.8186	0.203
Mof_O 	O 	0.8904	0.5093	0.85929	-0.778
Mof_O 	O 	0.9303	0.3893	0.90908	-0.539
Mof_O 	O 	0.9457	0.4011	0.77872	-0.599
Mof_O 	O 	0.1048	0.3011	0.81232	-0.748
Mof_O 	O 	0.0093	0.1714	0.8356	-0.423
Mof_O 	O 	0.9627	0.2368	0.70807	-0.671
Mof_O 	O 	0.9247	0.0848	0.7357	-0.527
Mof_H 	H 	0.7829	0.3561	0.8308	0.163
Mof_H 	H 	0.8419	0.2701	0.8584	0.183
Mof_H 	H 	0.8054	0.2726	0.7601	0.126
Mof_H 	H 	0.8303	0.181	0.7914	0.176
Mof_Co	Co	0.3954	0.04869	0.29036	1.118
Mof_C 	C 	0.6065	0.0841	0.3717	0.412
Mof_C 	C 	0.6502	0.1672	0.3418	-0.514
Mof_C 	C 	0.5771	0.191	0.3017	0.264
Mof_C 	C 	0.64	0.2665	0.2733	-0.555
Mof_C 	C 	0.5801	0.3159	0.2365	0.465
Mof_C 	C 	0.4785	0.2443	0.3186	0.291
Mof_O 	O 	0.6096	0.9907	0.35929	-0.706
Mof_O 	O 	0.5697	0.1107	0.40908	-0.568
Mof_O 	O 	0.5543	0.0989	0.27872	-0.648
Mof_O 	O 	0.3952	0.1989	0.31232	-0.749
Mof_O 	O 	0.4907	0.3286	0.3356	-0.378
Mof_O 	O 	0.5373	0.2632	0.20807	-0.699
Mof_O 	O 	0.5753	0.4152	0.2357	-0.534
Mof_H 	H 	0.7171	0.1439	0.3308	0.135
Mof_H 	H 	0.6581	0.2299	0.3584	0.159
Mof_H 	H 	0.6946	0.2274	0.2601	0.126
Mof_H 	H 	0.6697	0.319	0.2914	0.176
Mof_Co	Co	0.8954	0.54869	0.79036	1.149
Mof_C 	C 	0.1065	0.5841	0.8717	0.504
Mof_C 	C 	0.1502	0.6672	0.8418	-0.539
Mof_C 	C 	0.0771	0.691	0.8017	0.2
Mof_C 	C 	0.14	0.7665	0.7733	-0.534
Mof_C 	C 	0.0801	0.8159	0.7365	0.447
Mof_C 	C 	0.9785	0.7443	0.8186	0.375
Mof_O 	O 	0.1096	0.4907	0.85929	-0.797
Mof_O 	O 	0.0697	0.6107	0.90908	-0.604
Mof_O 	O 	0.0543	0.5989	0.77872	-0.638
Mof_O 	O 	0.8952	0.6989	0.81232	-0.762
Mof_O 	O 	0.9907	0.8286	0.8356	-0.336
Mof_O 	O 	0.0373	0.7632	0.70807	-0.72
Mof_O 	O 	0.0753	0.9152	0.7357	-0.513
Mof_H 	H 	0.2171	0.6439	0.8308	0.159
Mof_H 	H 	0.1581	0.7299	0.8584	0.157
Mof_H 	H 	0.1946	0.7274	0.7601	0.126
Mof_H 	H 	0.1697	0.819	0.7914	0.167
Mof_Co	Co	0.54869	0.1046	0.20964	1.12
Mof_C 	C 	0.5841	0.8935	0.1283	0.535
Mof_C 	C 	0.6672	0.8498	0.1582	-0.589
Mof_C 	C 	0.691	0.9229	0.1983	0.355
Mof_C 	C 	0.7665	0.86	0.2267	-0.581
Mof_C 	C 	0.8159	0.9199	0.2635	0.473
Mof_C 	C 	0.7443	0.0215	0.1814	0.198
Mof_O 	O 	0.4907	0.8904	0.14071	-0.77
Mof_O 	O 	0.6107	0.9303	0.09092	-0.534
Mof_O 	O 	0.5989	0.9457	0.22128	-0.601
Mof_O 	O 	0.6989	0.1048	0.18768	-0.744
Mof_O 	O 	0.8286	0.0093	0.1644	-0.379
Mof_O 	O 	0.7632	0.9627	0.29193	-0.669
Mof_O 	O 	0.9152	0.9247	0.2643	-0.458
Mof_H 	H 	0.6439	0.7829	0.1692	0.169
Mof_H 	H 	0.7299	0.8419	0.1416	0.197
Mof_H 	H 	0.7274	0.8054	0.2399	0.135
Mof_H 	H 	0.819	0.8303	0.2086	0.198
Mof_Co	Co	0.04869	0.6046	0.70964	1.118
Mof_C 	C 	0.0841	0.3935	0.6283	0.406
Mof_C 	C 	0.1672	0.3498	0.6582	-0.504
Mof_C 	C 	0.191	0.4229	0.6983	0.256
Mof_C 	C 	0.2665	0.36	0.7267	-0.538
Mof_C 	C 	0.3159	0.4199	0.7635	0.456
Mof_C 	C 	0.2443	0.5215	0.6814	0.296
Mof_O 	O 	0.9907	0.3904	0.64071	-0.694
Mof_O 	O 	0.1107	0.4303	0.59092	-0.567
Mof_O 	O 	0.0989	0.4457	0.72128	-0.647
Mof_O 	O 	0.1989	0.6048	0.68768	-0.757
Mof_O 	O 	0.3286	0.5093	0.6644	-0.38
Mof_O 	O 	0.2632	0.4627	0.79193	-0.69
Mof_O 	O 	0.4152	0.4247	0.7643	-0.536
Mof_H 	H 	0.1439	0.2829	0.6692	0.128
Mof_H 	H 	0.2299	0.3419	0.6416	0.153
Mof_H 	H 	0.2274	0.3054	0.7399	0.112
Mof_H 	H 	0.319	0.3303	0.7086	0.161
Mof_Co	Co	0.45131	0.8954	0.20964	1.15
Mof_C 	C 	0.4159	0.1065	0.1283	0.502
Mof_C 	C 	0.3328	0.1502	0.1582	-0.526
Mof_C 	C 	0.309	0.0771	0.1983	0.187
Mof_C 	C 	0.2335	0.14	0.2267	-0.525
Mof_C 	C 	0.1841	0.0801	0.2635	0.447
Mof_C 	C 	0.2557	0.9785	0.1814	0.385
Mof_O 	O 	0.5093	0.1096	0.14071	-0.805
Mof_O 	O 	0.3893	0.0697	0.09092	-0.61
Mof_O 	O 	0.4011	0.0543	0.22128	-0.636
Mof_O 	O 	0.3011	0.8952	0.18768	-0.766
Mof_O 	O 	0.1714	0.9907	0.1644	-0.377
Mof_O 	O 	0.2368	0.0373	0.29193	-0.724
Mof_O 	O 	0.0848	0.0753	0.2643	-0.586
Mof_H 	H 	0.3561	0.2171	0.1692	0.151
Mof_H 	H 	0.2701	0.1581	0.1416	0.141
Mof_H 	H 	0.2726	0.1946	0.2399	0.117
Mof_H 	H 	0.181	0.1697	0.2086	0.142
Mof_Co	Co	0.95131	0.3954	0.70964	1.152
Mof_C 	C 	0.9159	0.6065	0.6283	0.63
Mof_C 	C 	0.8328	0.6502	0.6582	-0.613
Mof_C 	C 	0.809	0.5771	0.6983	0.29
Mof_C 	C 	0.7335	0.64	0.7267	-0.574
Mof_C 	C 	0.6841	0.5801	0.7635	0.471
Mof_C 	C 	0.7557	0.4785	0.6814	0.284
Mof_O 	O 	0.0093	0.6096	0.64071	-0.881
Mof_O 	O 	0.8893	0.5697	0.59092	-0.577
Mof_O 	O 	0.9011	0.5543	0.72128	-0.591
Mof_O 	O 	0.8011	0.3952	0.68768	-0.755
Mof_O 	O 	0.6714	0.4907	0.6644	-0.378
Mof_O 	O 	0.7368	0.5373	0.79193	-0.709
Mof_O 	O 	0.5848	0.5753	0.7643	-0.537
Mof_H 	H 	0.8561	0.7171	0.6692	0.193
Mof_H 	H 	0.7701	0.6581	0.6416	0.186
Mof_H 	H 	0.7726	0.6946	0.7399	0.142
Mof_H 	H 	0.681	0.6697	0.7086	0.182
Mof_Co	Co	-7.21025e-33	-4.94562e-33	0.30781	1.064
Mof_Co	Co	0.5	0.5	0.80781	1.143
Mof_Co	Co	6.02888e-33	0	0.69219	1.063
Mof_Co	Co	0.5	0.5	0.19219	1.143
Mof_Co	Co	0.5	0	0.44219	1.103
Mof_Co	Co	-1.15761e-32	0.5	0.94219	1.103
Mof_Co	Co	0.5	-1.2364e-33	0.05781	1.103
Mof_Co	Co	-1.4924e-32	0.5	0.55781	1.103
Mof_K 	K 	0.75	0.8369	0.375	3.262
Mof_K 	K 	0.25	0.3369	0.875	3.077
Mof_K 	K 	0.25	0.1631	0.375	3.12
Mof_K 	K 	0.75	0.6631	0.875	3.291
Mof_K 	K 	0.8369	0.25	0.625	3.157
Mof_K 	K 	0.1631	0.75	0.625	3.229
Mof_K 	K 	0.6631	0.25	0.125	3.187
Mof_K 	K 	0.3369	0.75	0.125	3.187
_end
