data_functionalizedCrystal
_audit_creation_method	'EQeq! by Chris Wilmer'
_symmetry_space_group_name_H-M	'P1'
_symmetry_Int_Tables_number	1
_symmetry_cell_setting	triclinic
loop_
_symmetry_equiv_pos_as_xyz
  x,y,z
_cell_length_a	12.042
_cell_length_b	13.967
_cell_length_c	22.754
_cell_angle_alpha	95.802
_cell_angle_beta	105.211
_cell_angle_gamma	104.118
loop_
_atom_site_label
_atom_site_type_symbol
_atom_site_fract_x
_atom_site_fract_y
_atom_site_fract_z
_atom_site_charge
Mof_Ag	Ag	0.68585	0.9248	0.05973	0.496
Mof_Ag	Ag	0.52685	0.3481	0.19687	0.52
Mof_Ag	Ag	0.18678	0.67053	0.56619	0.382
Mof_Ag	Ag	0.10218	0.38211	0.32532	0.52
Mof_Ag	Ag	0.65217	0.1624	0.49887	0.417
Mof_Ag	Ag	0.64428	0.51387	0.35417	0.456
Mof_Ag	Ag	0.98504	0.55929	0.41801	0.437
Mof_Ag	Ag	0.31415	0.0752	0.94027	0.495
Mof_Ag	Ag	0.47315	0.6519	0.80313	0.519
Mof_Ag	Ag	0.81322	0.32947	0.43381	0.381
Mof_Ag	Ag	0.89782	0.61789	0.67468	0.519
Mof_Ag	Ag	0.34783	0.8376	0.50113	0.416
Mof_Ag	Ag	0.35572	0.48613	0.64583	0.455
Mof_Ag	Ag	0.01496	0.44071	0.58199	0.437
Mof_H 	H 	0.7603	0.8668	0.412	0.066
Mof_H 	H 	0.6757	0.9966	0.4151	-0.037
Mof_H 	H 	0.9533	0.975	0.5871	0.077
Mof_H 	H 	0.8609	0.1007	0.5874	-0.035
Mof_H 	H 	0.0601	0.3489	0.1932	0.033
Mof_H 	H 	0.8576	0.0299	0.192	-0.021
Mof_H 	H 	0.4996	0.4521	0.5593	0.064
Mof_H 	H 	0.6421	0.129	0.071	-0.026
Mof_H 	H 	0.633	0.3632	0.5598	-0.034
Mof_H 	H 	0.2027	0.4415	0.0065	0.003
Mof_H 	H 	0.3321	0.5909	0.0154	0.069
Mof_H 	H 	0.9051	0.1715	0.2648	0.046
Mof_H 	H 	0.1552	0.13	0.0636	0.001
Mof_H 	H 	0.6859	0.2756	0.1381	0.056
Mof_H 	H 	0.2703	0.2581	0.412	0.059
Mof_H 	H 	0.2927	0.2051	0.1561	0.037
Mof_H 	H 	0.297	0.3222	0.8717	-0.009
Mof_H 	H 	0.4312	0.4731	0.874	0.039
Mof_H 	H 	0.9251	0.2647	0.1008	0.015
Mof_H 	H 	0.4029	0.1661	0.4193	-0.025
Mof_H 	H 	0.2397	0.1332	0.588	0.066
Mof_H 	H 	0.3243	0.0034	0.5849	-0.037
Mof_H 	H 	0.0467	0.025	0.4129	0.077
Mof_H 	H 	0.1391	0.8993	0.4126	-0.035
Mof_H 	H 	0.9399	0.6511	0.8068	0.033
Mof_H 	H 	0.1424	0.9701	0.808	-0.021
Mof_H 	H 	0.5004	0.5479	0.4407	0.064
Mof_H 	H 	0.3579	0.871	0.929	-0.026
Mof_H 	H 	0.367	0.6368	0.4402	-0.034
Mof_H 	H 	0.7973	0.5585	0.9935	0.003
Mof_H 	H 	0.6679	0.4091	0.9846	0.069
Mof_H 	H 	0.0949	0.8285	0.7352	0.046
Mof_H 	H 	0.8448	0.87	0.9364	0.001
Mof_H 	H 	0.3141	0.7244	0.8619	0.056
Mof_H 	H 	0.7297	0.7419	0.588	0.059
Mof_H 	H 	0.7073	0.7949	0.8439	0.037
Mof_H 	H 	0.703	0.6778	0.1283	-0.009
Mof_H 	H 	0.5688	0.5269	0.126	0.039
Mof_H 	H 	0.0749	0.7353	0.8992	0.015
Mof_H 	H 	0.5971	0.8339	0.5807	-0.025
Mof_C 	C 	0.7823	0.9139	0.448	-0.149
Mof_C 	C 	0.7327	0.9918	0.4505	0.077
Mof_C 	C 	0.8671	0.9075	0.5014	0.066
Mof_C 	C 	0.8956	0.9776	0.5514	-0.157
Mof_C 	C 	0.8412	0.0542	0.5514	0.095
Mof_C 	C 	0.0801	0.3039	0.1676	-0.094
Mof_C 	C 	0.2837	0.3425	0.2427	0.096
Mof_C 	C 	0.8215	0.0801	0.1817	0.066
Mof_C 	C 	0.4787	0.3935	0.5305	-0.143
Mof_C 	C 	0.6955	0.1376	0.1103	0.071
Mof_C 	C 	0.5578	0.3403	0.5306	0.077
Mof_C 	C 	0.2498	0.4486	0.9798	0.078
Mof_C 	C 	0.3656	0.361	0.4874	0.033
Mof_C 	C 	0.1916	0.2868	0.1846	-0.005
Mof_C 	C 	0.4843	0.6483	0.9517	0.094
Mof_C 	C 	0.2813	0.4219	0.4882	0.094
Mof_C 	C 	0.813	0.3263	0.2562	0.07
Mof_C 	C 	0.3263	0.5373	0.9858	-0.128
Mof_C 	C 	0.8515	0.1647	0.2258	-0.131
Mof_C 	C 	0.9237	0.824	0.499	0.082
Mof_C 	C 	0.3993	0.5485	0.9456	0.03
Mof_C 	C 	0.1362	0.1732	0.0908	0.05
Mof_C 	C 	0.7208	0.2255	0.1505	-0.134
Mof_C 	C 	0.342	0.2782	0.444	-0.125
Mof_C 	C 	0.2188	0.2187	0.145	-0.1
Mof_C 	C 	0.7979	0.2396	0.2093	0.018
Mof_C 	C 	0.3048	0.378	0.9001	0.057
Mof_C 	C 	0.3862	0.4675	0.9017	-0.115
Mof_C 	C 	0.0003	0.2536	0.1125	0.042
Mof_C 	C 	0.4231	0.2254	0.4474	0.062
Mof_C 	C 	0.2177	0.0861	0.552	-0.149
Mof_C 	C 	0.2673	0.0082	0.5495	0.077
Mof_C 	C 	0.1329	0.0925	0.4986	0.066
Mof_C 	C 	0.1044	0.0224	0.4486	-0.157
Mof_C 	C 	0.1588	0.9458	0.4486	0.095
Mof_C 	C 	0.9199	0.6961	0.8324	-0.094
Mof_C 	C 	0.7163	0.6575	0.7573	0.096
Mof_C 	C 	0.1785	0.9199	0.8183	0.066
Mof_C 	C 	0.5213	0.6065	0.4695	-0.143
Mof_C 	C 	0.3045	0.8624	0.8897	0.071
Mof_C 	C 	0.4422	0.6597	0.4694	0.077
Mof_C 	C 	0.7502	0.5514	0.0202	0.078
Mof_C 	C 	0.6344	0.639	0.5126	0.033
Mof_C 	C 	0.8084	0.7132	0.8154	-0.005
Mof_C 	C 	0.5157	0.3517	0.0483	0.094
Mof_C 	C 	0.7187	0.5781	0.5118	0.094
Mof_C 	C 	0.187	0.6737	0.7438	0.07
Mof_C 	C 	0.6737	0.4627	0.0142	-0.128
Mof_C 	C 	0.1485	0.8353	0.7742	-0.131
Mof_C 	C 	0.0763	0.176	0.501	0.082
Mof_C 	C 	0.6007	0.4515	0.0544	0.03
Mof_C 	C 	0.8638	0.8268	0.9092	0.05
Mof_C 	C 	0.2792	0.7745	0.8495	-0.134
Mof_C 	C 	0.658	0.7218	0.556	-0.125
Mof_C 	C 	0.7812	0.7813	0.855	-0.1
Mof_C 	C 	0.2021	0.7604	0.7907	0.018
Mof_C 	C 	0.6952	0.622	0.0999	0.057
Mof_C 	C 	0.6138	0.5325	0.0983	-0.115
Mof_C 	C 	0.9997	0.7464	0.8875	0.042
Mof_C 	C 	0.5769	0.7746	0.5526	0.062
Mof_N 	N 	0.744	0.0649	0.125	-0.208
Mof_N 	N 	0.4496	0.4182	0.3111	-0.124
Mof_N 	N 	0.4015	0.3634	0.2531	-0.17
Mof_N 	N 	0.2586	0.379	0.2924	-0.166
Mof_N 	N 	0.722	0.3691	0.2567	-0.162
Mof_N 	N 	0.765	0.4405	0.3067	-0.136
Mof_N 	N 	0.1887	0.4231	0.4406	-0.145
Mof_N 	N 	0.1966	0.5239	0.5213	-0.142
Mof_N 	N 	0.5988	0.7774	0.9335	-0.077
Mof_N 	N 	0.3648	0.428	0.3351	-0.081
Mof_N 	N 	0.878	0.441	0.3349	-0.143
Mof_N 	N 	0.2857	0.4807	0.5395	-0.157
Mof_N 	N 	0.9715	0.6964	0.469	-0.128
Mof_N 	N 	0.0117	0.8141	0.5489	-0.108
Mof_N 	N 	0.0265	0.1883	0.0745	-0.135
Mof_N 	N 	0.7619	0.0621	0.5012	-0.213
Mof_N 	N 	0.2355	0.3693	0.9388	-0.138
Mof_N 	N 	0.5257	0.687	0.9071	-0.156
Mof_N 	N 	0.5327	0.2554	0.4901	-0.214
Mof_N 	N 	0.9091	0.3733	0.3042	-0.171
Mof_N 	N 	0.1378	0.4904	0.4632	-0.136
Mof_N 	N 	0.8973	0.7533	0.4512	-0.116
Mof_N 	N 	0.5269	0.7128	0.0048	-0.11
Mof_N 	N 	0.5984	0.791	0.9917	-0.123
Mof_N 	N 	0.0365	0.7338	0.5258	-0.121
Mof_N 	N 	0.256	0.9351	0.875	-0.208
Mof_N 	N 	0.5504	0.5818	0.6889	-0.124
Mof_N 	N 	0.5985	0.6366	0.7469	-0.17
Mof_N 	N 	0.7414	0.621	0.7076	-0.166
Mof_N 	N 	0.278	0.6309	0.7433	-0.162
Mof_N 	N 	0.235	0.5595	0.6933	-0.136
Mof_N 	N 	0.8113	0.5769	0.5594	-0.145
Mof_N 	N 	0.8034	0.4761	0.4787	-0.142
Mof_N 	N 	0.4012	0.2226	0.0665	-0.077
Mof_N 	N 	0.6352	0.572	0.6649	-0.081
Mof_N 	N 	0.122	0.559	0.6651	-0.143
Mof_N 	N 	0.7143	0.5193	0.4605	-0.157
Mof_N 	N 	0.0285	0.3036	0.531	-0.128
Mof_N 	N 	0.9883	0.1859	0.4511	-0.108
Mof_N 	N 	0.9735	0.8117	0.9255	-0.135
Mof_N 	N 	0.2381	0.9379	0.4988	-0.213
Mof_N 	N 	0.7645	0.6307	0.0612	-0.138
Mof_N 	N 	0.4743	0.313	0.0929	-0.156
Mof_N 	N 	0.4673	0.7446	0.5099	-0.214
Mof_N 	N 	0.0909	0.6267	0.6958	-0.171
Mof_N 	N 	0.8622	0.5096	0.5368	-0.136
Mof_N 	N 	0.1027	0.2467	0.5488	-0.116
Mof_N 	N 	0.4731	0.2872	0.9952	-0.11
Mof_N 	N 	0.4016	0.209	0.0083	-0.123
Mof_N 	N 	0.9635	0.2662	0.4742	-0.121
_end
