data_functionalizedCrystal
_audit_creation_method	'EQeq! by Chris Wilmer'
_symmetry_space_group_name_H-M	'P1'
_symmetry_Int_Tables_number	1
_symmetry_cell_setting	triclinic
loop_
_symmetry_equiv_pos_as_xyz
  x,y,z
_cell_length_a	11.1832
_cell_length_b	18.5775
_cell_length_c	21.475
_cell_angle_alpha	94.6112
_cell_angle_beta	90
_cell_angle_gamma	107.517
loop_
_atom_site_label
_atom_site_type_symbol
_atom_site_fract_x
_atom_site_fract_y
_atom_site_fract_z
_atom_site_charge
Mof_Co	Co	0.24531	0.65196	0.23996	1.166
Mof_Co	Co	0.17968	0.80454	0.18016	1.15
Mof_Co	Co	0.6807	0.25744	0.37342	1.154
Mof_Co	Co	0.74621	0.72104	0.56376	1.166
Mof_Co	Co	0.68513	0.8594	0.5046	1.167
Mof_Co	Co	0.59335	0.34804	0.26004	1.166
Mof_Co	Co	0.37514	0.19546	0.31984	1.149
Mof_Co	Co	0.42326	0.74256	0.12658	1.153
Mof_Co	Co	0.02517	0.27896	0.93624	1.164
Mof_Co	Co	0.82573	0.1406	0.9954	1.167
Mof_Co	Co	0.75469	0.34804	0.76004	1.165
Mof_Co	Co	0.82032	0.19546	0.81984	1.149
Mof_Co	Co	0.3193	0.74256	0.62658	1.153
Mof_Co	Co	0.25379	0.27896	0.43624	1.165
Mof_Co	Co	0.31487	0.1406	0.4954	1.166
Mof_Co	Co	0.40665	0.65196	0.73996	1.165
Mof_Co	Co	0.62486	0.80454	0.68016	1.149
Mof_Co	Co	0.57674	0.25744	0.87342	1.153
Mof_Co	Co	0.97483	0.72104	0.06376	1.164
Mof_Co	Co	0.17427	0.8594	0.0046	1.167
Mof_H 	H 	0.1983	0.677	0.1299	0.148
Mof_H 	H 	0.1947	0.757	0.0693	0.124
Mof_H 	H 	0.7689	0.876	0.3907	0.116
Mof_H 	H 	0.8005	0.953	0.423	0.103
Mof_H 	H 	0.7152	0.4672	0.3404	0.101
Mof_H 	H 	0.583	0.4666	0.3391	0.117
Mof_H 	H 	0.8137	0.9618	0.5891	0.092
Mof_H 	H 	0.6806	0.959	0.5963	0.118
Mof_H 	H 	0.1818	0.6506	0.3563	0.116
Mof_H 	H 	0.1347	0.5714	0.3287	0.109
Mof_H 	H 	0.3792	0.9684	0.298	0.038
Mof_H 	H 	0.7163	0.04	0.3897	0.064
Mof_H 	H 	0.5396	0.8152	0.3548	0.081
Mof_H 	H 	0.7701	0.7068	0.1949	0.046
Mof_H 	H 	0.506	0.5388	0.2712	0.066
Mof_H 	H 	0.873	0.551	0.2859	0.058
Mof_H 	H 	0.8409	0.2096	0.4586	0.009
Mof_H 	H 	0.9535	0.0446	0.53	0.051
Mof_H 	H 	0.5897	0.0406	0.5405	0.069
Mof_H 	H 	0.5564	0.544	0.4448	0.052
Mof_H 	H 	0.2152	0.4806	0.3572	0.075
Mof_H 	H 	0.4122	0.7032	0.3857	0.083
Mof_H 	H 	0.5213	0.323	0.3701	0.148
Mof_H 	H 	0.4377	0.243	0.4307	0.124
Mof_H 	H 	0.8929	0.124	0.1093	0.116
Mof_H 	H 	0.8475	0.047	0.077	0.104
Mof_H 	H 	0.248	0.5328	0.1596	0.101
Mof_H 	H 	0.1164	0.5334	0.1609	0.117
Mof_H 	H 	0.8519	0.0382	0.9109	0.092
Mof_H 	H 	0.7216	0.041	0.9037	0.118
Mof_H 	H 	0.5312	0.3494	0.1437	0.116
Mof_H 	H 	0.5633	0.4286	0.1713	0.109
Mof_H 	H 	0.4108	0.0316	0.202	0.036
Mof_H 	H 	0.6763	0.96	0.1103	0.06
Mof_H 	H 	0.7244	0.1848	0.1452	0.08
Mof_H 	H 	0.0633	0.2932	0.3051	0.045
Mof_H 	H 	0.9672	0.4612	0.2288	0.063
Mof_H 	H 	0.322	0.449	0.2141	0.057
Mof_H 	H 	0.6313	0.7904	0.0414	0.008
Mof_H 	H 	0.9089	0.9554	0.97	0.05
Mof_H 	H 	0.5491	0.9594	0.9595	0.068
Mof_H 	H 	0.0124	0.456	0.0552	0.055
Mof_H 	H 	0.7346	0.5194	0.1428	0.075
Mof_H 	H 	0.709	0.2968	0.1143	0.084
Mof_H 	H 	0.8017	0.323	0.8701	0.148
Mof_H 	H 	0.8053	0.243	0.9307	0.124
Mof_H 	H 	0.2311	0.124	0.6093	0.116
Mof_H 	H 	0.1995	0.047	0.577	0.103
Mof_H 	H 	0.2848	0.5328	0.6596	0.101
Mof_H 	H 	0.417	0.5334	0.6609	0.117
Mof_H 	H 	0.1863	0.0382	0.4109	0.092
Mof_H 	H 	0.3194	0.041	0.4037	0.118
Mof_H 	H 	0.8182	0.3494	0.6437	0.116
Mof_H 	H 	0.8653	0.4286	0.6713	0.109
Mof_H 	H 	0.6208	0.0316	0.702	0.038
Mof_H 	H 	0.2837	0.96	0.6103	0.064
Mof_H 	H 	0.4604	0.1848	0.6452	0.081
Mof_H 	H 	0.2299	0.2932	0.8051	0.046
Mof_H 	H 	0.494	0.4612	0.7288	0.066
Mof_H 	H 	0.127	0.449	0.7141	0.058
Mof_H 	H 	0.1591	0.7904	0.5414	0.009
Mof_H 	H 	0.0465	0.9554	0.47	0.051
Mof_H 	H 	0.4103	0.9594	0.4595	0.069
Mof_H 	H 	0.4436	0.456	0.5552	0.052
Mof_H 	H 	0.7848	0.5194	0.6428	0.075
Mof_H 	H 	0.5878	0.2968	0.6143	0.083
Mof_H 	H 	0.4787	0.677	0.6299	0.148
Mof_H 	H 	0.5623	0.757	0.5693	0.124
Mof_H 	H 	0.1071	0.876	0.8907	0.116
Mof_H 	H 	0.1525	0.953	0.923	0.104
Mof_H 	H 	0.752	0.4672	0.8404	0.101
Mof_H 	H 	0.8836	0.4666	0.8391	0.117
Mof_H 	H 	0.1481	0.9618	0.0891	0.092
Mof_H 	H 	0.2784	0.959	0.0963	0.118
Mof_H 	H 	0.4688	0.6506	0.8563	0.116
Mof_H 	H 	0.4367	0.5714	0.8287	0.109
Mof_H 	H 	0.5892	0.9684	0.798	0.036
Mof_H 	H 	0.3237	0.04	0.8897	0.06
Mof_H 	H 	0.2756	0.8152	0.8548	0.08
Mof_H 	H 	0.9367	0.7068	0.6949	0.045
Mof_H 	H 	0.0328	0.5388	0.7712	0.063
Mof_H 	H 	0.678	0.551	0.7859	0.057
Mof_H 	H 	0.3687	0.2096	0.9586	0.008
Mof_H 	H 	0.0911	0.0446	0.03	0.05
Mof_H 	H 	0.4509	0.0406	0.0405	0.068
Mof_H 	H 	0.9876	0.544	0.9448	0.055
Mof_H 	H 	0.2654	0.4806	0.8572	0.075
Mof_H 	H 	0.291	0.7032	0.8857	0.084
Mof_C 	C 	0.44327	0.88254	0.3224	-0.058
Mof_C 	C 	0.44648	0.95736	0.3181	0.008
Mof_C 	C 	0.54822	0.01604	0.3431	-0.076
Mof_C 	C 	0.64676	0.99992	0.3725	-0.071
Mof_C 	C 	0.64355	0.9251	0.3769	0.09
Mof_C 	C 	0.54181	0.86642	0.3518	-0.077
Mof_C 	C 	0.33598	0.81796	0.2929	0.342
Mof_C 	C 	0.55108	0.09596	0.3399	0.365
Mof_C 	C 	0.84139	0.63458	0.2385	-0.083
Mof_C 	C 	0.74829	0.66298	0.2176	0.019
Mof_C 	C 	0.62333	0.62726	0.2298	-0.075
Mof_C 	C 	0.59137	0.56314	0.2629	-0.073
Mof_C 	C 	0.68447	0.53474	0.2838	0.077
Mof_C 	C 	0.80942	0.57044	0.2716	-0.063
Mof_C 	C 	0.97775	0.6741	0.226	0.393
Mof_C 	C 	0.52007	0.65714	0.2086	0.376
Mof_C 	C 	0.70038	0.13016	0.4977	-0.105
Mof_C 	C 	0.82211	0.16442	0.4794	0.035
Mof_C 	C 	0.91645	0.1325	0.4914	-0.091
Mof_C 	C 	0.88897	0.06634	0.5218	-0.066
Mof_C 	C 	0.76724	0.03208	0.5401	0.065
Mof_C 	C 	0.67289	0.06398	0.528	-0.054
Mof_C 	C 	0.59387	0.16074	0.483	0.398
Mof_C 	C 	0.05019	0.16798	0.4739	0.372
Mof_C 	C 	0.50117	0.63254	0.4189	-0.053
Mof_C 	C 	0.49079	0.55698	0.4249	-0.011
Mof_C 	C 	0.38418	0.50036	0.4019	-0.053
Mof_C 	C 	0.28806	0.51932	0.3729	-0.088
Mof_C 	C 	0.29844	0.59488	0.3668	0.094
Mof_C 	C 	0.40505	0.6515	0.3898	-0.088
Mof_C 	C 	0.60931	0.69442	0.4486	0.341
Mof_C 	C 	0.36793	0.41946	0.4101	0.313
Mof_C 	C 	0.56073	0.11746	0.1776	-0.06
Mof_C 	C 	0.48912	0.04264	0.1819	0.013
Mof_C 	C 	0.53218	0.98396	0.1569	-0.082
Mof_C 	C 	0.64684	8e-05	0.1275	-0.063
Mof_C 	C 	0.71845	0.0749	0.1231	0.087
Mof_C 	C 	0.67539	0.13358	0.1482	-0.075
Mof_C 	C 	0.51802	0.18204	0.2071	0.343
Mof_C 	C 	0.45512	0.90404	0.1601	0.367
Mof_C 	C 	0.20681	0.36542	0.2615	-0.086
Mof_C 	C 	0.08531	0.33702	0.2824	0.024
Mof_C 	C 	0.99607	0.37274	0.2702	-0.081
Mof_C 	C 	0.02823	0.43686	0.2371	-0.067
Mof_C 	C 	0.14973	0.46526	0.2162	0.074
Mof_C 	C 	0.23898	0.42956	0.2284	-0.06
Mof_C 	C 	0.30365	0.3259	0.274	0.398
Mof_C 	C 	0.86293	0.34286	0.2914	0.378
Mof_C 	C 	0.57022	0.86984	0.0023	-0.109
Mof_C 	C 	0.65769	0.83558	0.0206	0.038
Mof_C 	C 	0.78395	0.8675	0.0086	-0.095
Mof_C 	C 	0.82263	0.93366	0.9782	-0.061
Mof_C 	C 	0.73516	0.96792	0.9599	0.064
Mof_C 	C 	0.60891	0.93602	0.972	-0.05
Mof_C 	C 	0.43313	0.83926	0.017	0.399
Mof_C 	C 	0.88221	0.83202	0.0261	0.374
Mof_C 	C 	0.86863	0.36746	0.0811	-0.05
Mof_C 	C 	0.93381	0.44302	0.0751	-0.016
Mof_C 	C 	0.88382	0.49964	0.0981	-0.05
Mof_C 	C 	0.76874	0.48068	0.1271	-0.09
Mof_C 	C 	0.70356	0.40512	0.1332	0.095
Mof_C 	C 	0.75355	0.3485	0.1102	-0.089
Mof_C 	C 	0.91489	0.30558	0.0514	0.338
Mof_C 	C 	0.94847	0.58054	0.0899	0.31
Mof_C 	C 	0.55673	0.11746	0.6776	-0.058
Mof_C 	C 	0.55352	0.04264	0.6819	0.008
Mof_C 	C 	0.45178	0.98396	0.6569	-0.076
Mof_C 	C 	0.35324	8e-05	0.6275	-0.071
Mof_C 	C 	0.35645	0.0749	0.6231	0.09
Mof_C 	C 	0.45819	0.13358	0.6482	-0.077
Mof_C 	C 	0.66402	0.18204	0.7071	0.342
Mof_C 	C 	0.44892	0.90404	0.6601	0.365
Mof_C 	C 	0.15861	0.36542	0.7615	-0.083
Mof_C 	C 	0.25171	0.33702	0.7824	0.019
Mof_C 	C 	0.37667	0.37274	0.7702	-0.075
Mof_C 	C 	0.40863	0.43686	0.7371	-0.073
Mof_C 	C 	0.31553	0.46526	0.7162	0.077
Mof_C 	C 	0.19058	0.42956	0.7284	-0.063
Mof_C 	C 	0.02225	0.3259	0.774	0.393
Mof_C 	C 	0.47993	0.34286	0.7914	0.376
Mof_C 	C 	0.29962	0.86984	0.5023	-0.105
Mof_C 	C 	0.17789	0.83558	0.5206	0.035
Mof_C 	C 	0.08355	0.8675	0.5086	-0.091
Mof_C 	C 	0.11103	0.93366	0.4782	-0.066
Mof_C 	C 	0.23276	0.96792	0.4599	0.065
Mof_C 	C 	0.32711	0.93602	0.472	-0.054
Mof_C 	C 	0.40613	0.83926	0.517	0.398
Mof_C 	C 	0.94981	0.83202	0.5261	0.372
Mof_C 	C 	0.49883	0.36746	0.5811	-0.053
Mof_C 	C 	0.50921	0.44302	0.5751	-0.011
Mof_C 	C 	0.61582	0.49964	0.5981	-0.053
Mof_C 	C 	0.71194	0.48068	0.6271	-0.088
Mof_C 	C 	0.70156	0.40512	0.6332	0.094
Mof_C 	C 	0.59495	0.3485	0.6102	-0.088
Mof_C 	C 	0.39069	0.30558	0.5514	0.341
Mof_C 	C 	0.63207	0.58054	0.5899	0.313
Mof_C 	C 	0.43927	0.88254	0.8224	-0.06
Mof_C 	C 	0.51088	0.95736	0.8181	0.013
Mof_C 	C 	0.46782	0.01604	0.8431	-0.082
Mof_C 	C 	0.35316	0.99992	0.8725	-0.063
Mof_C 	C 	0.28155	0.9251	0.8769	0.087
Mof_C 	C 	0.32461	0.86642	0.8518	-0.075
Mof_C 	C 	0.48198	0.81796	0.7929	0.343
Mof_C 	C 	0.54488	0.09596	0.8399	0.367
Mof_C 	C 	0.79319	0.63458	0.7385	-0.086
Mof_C 	C 	0.91469	0.66298	0.7176	0.024
Mof_C 	C 	0.00393	0.62726	0.7298	-0.081
Mof_C 	C 	0.97177	0.56314	0.7629	-0.067
Mof_C 	C 	0.85027	0.53474	0.7838	0.074
Mof_C 	C 	0.76102	0.57044	0.7716	-0.06
Mof_C 	C 	0.69635	0.6741	0.726	0.398
Mof_C 	C 	0.13707	0.65714	0.7086	0.378
Mof_C 	C 	0.42978	0.13016	0.9977	-0.109
Mof_C 	C 	0.34231	0.16442	0.9794	0.038
Mof_C 	C 	0.21605	0.1325	0.9914	-0.095
Mof_C 	C 	0.17737	0.06634	0.0218	-0.061
Mof_C 	C 	0.26484	0.03208	0.0401	0.064
Mof_C 	C 	0.39109	0.06398	0.028	-0.05
Mof_C 	C 	0.56687	0.16074	0.983	0.399
Mof_C 	C 	0.11779	0.16798	0.9739	0.374
Mof_C 	C 	0.13137	0.63254	0.9189	-0.05
Mof_C 	C 	0.06619	0.55698	0.9249	-0.016
Mof_C 	C 	0.11618	0.50036	0.9019	-0.05
Mof_C 	C 	0.23126	0.51932	0.8729	-0.09
Mof_C 	C 	0.29644	0.59488	0.8668	0.095
Mof_C 	C 	0.24645	0.6515	0.8898	-0.089
Mof_C 	C 	0.08511	0.69442	0.9486	0.338
Mof_C 	C 	0.05153	0.41946	0.9101	0.31
Mof_N 	N 	0.73637	0.90854	0.4148	-0.32
Mof_N 	N 	0.6492	0.4652	0.314	-0.317
Mof_N 	N 	0.74238	0.96156	0.5675	-0.33
Mof_N 	N 	0.20417	0.61354	0.3324	-0.328
Mof_N 	N 	0.82783	0.09146	0.0852	-0.32
Mof_N 	N 	0.184	0.5348	0.186	-0.316
Mof_N 	N 	0.78082	0.03844	0.9325	-0.33
Mof_N 	N 	0.59063	0.38646	0.1676	-0.328
Mof_N 	N 	0.26363	0.09146	0.5852	-0.32
Mof_N 	N 	0.3508	0.5348	0.686	-0.317
Mof_N 	N 	0.25762	0.03844	0.4325	-0.33
Mof_N 	N 	0.79583	0.38646	0.6676	-0.328
Mof_N 	N 	0.17217	0.90854	0.9148	-0.32
Mof_N 	N 	0.816	0.4652	0.814	-0.316
Mof_N 	N 	0.21918	0.96156	0.0675	-0.33
Mof_N 	N 	0.40937	0.61354	0.8324	-0.328
Mof_O 	O 	0.34939	0.75358	0.2895	-0.427
Mof_O 	O 	0.23965	0.8331	0.2735	-0.425
Mof_O 	O 	0.44655	0.1085	0.3387	-0.461
Mof_O 	O 	0.65537	0.14694	0.3397	-0.425
Mof_O 	O 	0.05523	0.64366	0.2451	-0.452
Mof_O 	O 	0.00401	0.73282	0.1977	-0.491
Mof_O 	O 	0.5487	0.7054	0.168	-0.455
Mof_O 	O 	0.41561	0.63222	0.2311	-0.461
Mof_O 	O 	0.48784	0.12268	0.4977	-0.43
Mof_O 	O 	0.61695	0.2219	0.4571	-0.475
Mof_O 	O 	0.07241	0.22002	0.4371	-0.448
Mof_O 	O 	0.13026	0.14332	0.4963	-0.48
Mof_O 	O 	0.60481	0.76102	0.4476	-0.425
Mof_O 	O 	0.69557	0.67654	0.4749	-0.426
Mof_O 	O 	0.46094	0.39608	0.4154	-0.358
Mof_O 	O 	0.25561	0.37662	0.4094	-0.421
Mof_O 	O 	0.25474	0.71248	0.1626	-0.703
Mof_O 	O 	0.14348	0.79116	0.0822	-0.681
Mof_O 	O 	0.59581	0.24642	0.2105	-0.427
Mof_O 	O 	0.40655	0.1669	0.2265	-0.425
Mof_O 	O 	0.33805	0.8915	0.1613	-0.461
Mof_O 	O 	0.50843	0.85306	0.1603	-0.426
Mof_O 	O 	0.41157	0.35634	0.2549	-0.454
Mof_O 	O 	0.27119	0.26718	0.3023	-0.493
Mof_O 	O 	0.8433	0.2946	0.332	-0.455
Mof_O 	O 	0.78339	0.36778	0.2689	-0.462
Mof_O 	O 	0.36516	0.87732	0.0023	-0.431
Mof_O 	O 	0.39505	0.7781	0.0429	-0.475
Mof_O 	O 	0.85239	0.77998	0.0629	-0.449
Mof_O 	O 	0.98694	0.85668	0.0037	-0.482
Mof_O 	O 	0.84379	0.23898	0.0524	-0.424
Mof_O 	O 	0.01903	0.32346	0.0251	-0.423
Mof_O 	O 	0.06486	0.60392	0.0846	-0.356
Mof_O 	O 	0.87899	0.62338	0.0906	-0.421
Mof_O 	O 	0.54226	0.28752	0.3374	-0.703
Mof_O 	O 	0.35232	0.20884	0.4178	-0.682
Mof_O 	O 	0.65061	0.24642	0.7105	-0.427
Mof_O 	O 	0.76035	0.1669	0.7265	-0.425
Mof_O 	O 	0.55345	0.8915	0.6613	-0.461
Mof_O 	O 	0.34463	0.85306	0.6603	-0.425
Mof_O 	O 	0.94477	0.35634	0.7549	-0.452
Mof_O 	O 	0.99599	0.26718	0.8023	-0.491
Mof_O 	O 	0.4513	0.2946	0.832	-0.455
Mof_O 	O 	0.58439	0.36778	0.7689	-0.461
Mof_O 	O 	0.51216	0.87732	0.5023	-0.43
Mof_O 	O 	0.38305	0.7781	0.5429	-0.475
Mof_O 	O 	0.92759	0.77998	0.5629	-0.448
Mof_O 	O 	0.86974	0.85668	0.5037	-0.48
Mof_O 	O 	0.39519	0.23898	0.5524	-0.425
Mof_O 	O 	0.30443	0.32346	0.5251	-0.426
Mof_O 	O 	0.53906	0.60392	0.5846	-0.358
Mof_O 	O 	0.74439	0.62338	0.5906	-0.421
Mof_O 	O 	0.74526	0.28752	0.8374	-0.703
Mof_O 	O 	0.85652	0.20884	0.9178	-0.681
Mof_O 	O 	0.40419	0.75358	0.7895	-0.427
Mof_O 	O 	0.59345	0.8331	0.7735	-0.425
Mof_O 	O 	0.66195	0.1085	0.8387	-0.461
Mof_O 	O 	0.49157	0.14694	0.8397	-0.426
Mof_O 	O 	0.58843	0.64366	0.7451	-0.454
Mof_O 	O 	0.72881	0.73282	0.6977	-0.493
Mof_O 	O 	0.1567	0.7054	0.668	-0.455
Mof_O 	O 	0.21661	0.63222	0.7311	-0.462
Mof_O 	O 	0.63484	0.12268	0.9977	-0.431
Mof_O 	O 	0.60495	0.2219	0.9571	-0.475
Mof_O 	O 	0.14761	0.22002	0.9371	-0.449
Mof_O 	O 	0.01306	0.14332	0.9963	-0.482
Mof_O 	O 	0.15621	0.76102	0.9476	-0.424
Mof_O 	O 	0.98097	0.67654	0.9749	-0.423
Mof_O 	O 	0.93514	0.39608	0.9154	-0.356
Mof_O 	O 	0.12101	0.37662	0.9094	-0.421
Mof_O 	O 	0.45774	0.71248	0.6626	-0.703
Mof_O 	O 	0.64768	0.79116	0.5822	-0.682
_end
