data_functionalizedCrystal
_audit_creation_method	'EQeq! by Chris Wilmer'
_symmetry_space_group_name_H-M	'P1'
_symmetry_Int_Tables_number	1
_symmetry_cell_setting	triclinic
loop_
_symmetry_equiv_pos_as_xyz
  x,y,z
_cell_length_a	10.2448
_cell_length_b	17.4587
_cell_length_c	17.4587
_cell_angle_alpha	120
_cell_angle_beta	90
_cell_angle_gamma	90
loop_
_atom_site_label
_atom_site_type_symbol
_atom_site_fract_x
_atom_site_fract_y
_atom_site_fract_z
_atom_site_charge
Mof_Zn	Zn	0.84569	0.4581	0.53313	1.222
Mof_Zn	Zn	0.51236	0.07503	0.5419	1.217
Mof_Zn	Zn	0.17902	0.46687	0.92497	1.212
Mof_Zn	Zn	0.34569	0.5419	0.46687	1.216
Mof_Zn	Zn	0.01236	0.92497	0.4581	1.2
Mof_Zn	Zn	0.67902	0.53313	0.07503	1.217
Mof_H 	H 	0.9542	0.5355	0.4614	0.129
Mof_H 	H 	0.8797	0.4786	0.3152	0.238
Mof_H 	H 	0.7301	0.4578	0.2988	0.256
Mof_H 	H 	0.8153	0.4113	0.3384	0.226
Mof_H 	H 	0.766	0.5959	0.4293	0.033
Mof_H 	H 	0.7761	0.7957	0.619	0.114
Mof_H 	H 	0.8192	0.8969	0.5753	-0.025
Mof_H 	H 	0.068	0.6452	0.4606	0.113
Mof_H 	H 	0.1065	0.7529	0.4249	-0.007
Mof_H 	H 	0.9571	0.6376	0.607	0.098
Mof_H 	H 	0.8069	0.652	0.6023	0.078
Mof_H 	H 	0.62087	0.9259	0.4645	0.116
Mof_H 	H 	0.54637	0.8366	0.5214	0.22
Mof_H 	H 	0.39677	0.841	0.5422	0.243
Mof_H 	H 	0.48197	0.9271	0.5887	0.212
Mof_H 	H 	0.43267	0.8334	0.4041	0.033
Mof_H 	H 	0.44277	0.8233	0.2043	0.101
Mof_H 	H 	0.48587	0.6784	0.1031	-0.02
Mof_H 	H 	0.73467	0.8154	0.3548	0.104
Mof_H 	H 	0.77317	0.672	0.2471	-0.001
Mof_H 	H 	0.62377	0.9694	0.3624	0.078
Mof_H 	H 	0.47357	0.9503	0.348	0.067
Mof_H 	H 	0.28753	0.5386	0.0741	0.115
Mof_H 	H 	0.21303	0.6848	0.1634	0.195
Mof_H 	H 	0.06343	0.7012	0.159	0.208
Mof_H 	H 	0.14863	0.6616	0.0729	0.184
Mof_H 	H 	0.09933	0.5707	0.1666	0.044
Mof_H 	H 	0.10943	0.381	0.1767	0.094
Mof_H 	H 	0.15253	0.4247	0.3216	-0.027
Mof_H 	H 	0.40133	0.5394	0.1846	0.101
Mof_H 	H 	0.43983	0.5751	0.328	-0.007
Mof_H 	H 	0.29043	0.393	0.0306	0.075
Mof_H 	H 	0.14023	0.3977	0.0497	0.058
Mof_H 	H 	0.4542	0.4645	0.5386	0.115
Mof_H 	H 	0.3797	0.5214	0.6848	0.216
Mof_H 	H 	0.2301	0.5422	0.7012	0.237
Mof_H 	H 	0.3153	0.5887	0.6616	0.206
Mof_H 	H 	0.266	0.4041	0.5707	0.034
Mof_H 	H 	0.2761	0.2043	0.381	0.099
Mof_H 	H 	0.3192	0.1031	0.4247	-0.022
Mof_H 	H 	0.568	0.3548	0.5394	0.102
Mof_H 	H 	0.6065	0.2471	0.5751	-0.006
Mof_H 	H 	0.4571	0.3624	0.393	0.077
Mof_H 	H 	0.3069	0.348	0.3977	0.066
Mof_H 	H 	0.12087	0.0741	0.5355	0.11
Mof_H 	H 	0.04637	0.1634	0.4786	0.146
Mof_H 	H 	0.89677	0.159	0.4578	0.201
Mof_H 	H 	0.98197	0.0729	0.4113	0.173
Mof_H 	H 	0.93267	0.1666	0.5959	0.056
Mof_H 	H 	0.94277	0.1767	0.7957	0.15
Mof_H 	H 	0.98587	0.3216	0.8969	0.015
Mof_H 	H 	0.23467	0.1846	0.6452	0.112
Mof_H 	H 	0.27317	0.328	0.7529	-0.013
Mof_H 	H 	0.12377	0.0306	0.6376	0.1
Mof_H 	H 	0.97357	0.0497	0.652	0.119
Mof_H 	H 	0.78753	0.4614	0.9259	0.117
Mof_H 	H 	0.71303	0.3152	0.8366	0.226
Mof_H 	H 	0.56343	0.2988	0.841	0.249
Mof_H 	H 	0.64863	0.3384	0.9271	0.217
Mof_H 	H 	0.59933	0.4293	0.8334	0.033
Mof_H 	H 	0.60943	0.619	0.8233	0.104
Mof_H 	H 	0.65253	0.5753	0.6784	-0.021
Mof_H 	H 	0.90133	0.4606	0.8154	0.111
Mof_H 	H 	0.93983	0.4249	0.672	0.005
Mof_H 	H 	0.79043	0.607	0.9694	0.083
Mof_H 	H 	0.64023	0.6023	0.9503	0.07
Mof_C 	C 	0.8022	0.4651	0.3371	-0.64
Mof_C 	C 	0.773	0.5405	0.4304	0.054
Mof_C 	C 	0.843	0.7853	0.579	-0.231
Mof_C 	C 	0.8702	0.8462	0.5531	0.133
Mof_C 	C 	0.6442	0.523	0.4629	0.294
Mof_C 	C 	0.9163	0.708	0.5448	0.224
Mof_C 	C 	0.0171	0.6961	0.4852	-0.247
Mof_C 	C 	0.0391	0.7609	0.4639	0.087
Mof_C 	C 	0.8878	0.6376	0.5691	-0.207
Mof_C 	C 	0.46887	0.872	0.5349	-0.613
Mof_C 	C 	0.43967	0.8899	0.4595	0.043
Mof_C 	C 	0.50967	0.7937	0.2147	-0.201
Mof_C 	C 	0.53687	0.7069	0.1538	0.11
Mof_C 	C 	0.31087	0.9399	0.477	0.295
Mof_C 	C 	0.58297	0.8368	0.292	0.16
Mof_C 	C 	0.68377	0.7891	0.3039	-0.18
Mof_C 	C 	0.70577	0.703	0.2391	0.109
Mof_C 	C 	0.55447	0.9315	0.3624	-0.177
Mof_C 	C 	0.13553	0.6629	0.128	-0.541
Mof_C 	C 	0.10633	0.5696	0.1101	-0.018
Mof_C 	C 	0.17633	0.421	0.2063	-0.204
Mof_C 	C 	0.20353	0.4469	0.2931	0.106
Mof_C 	C 	0.97753	0.5371	0.0601	0.348
Mof_C 	C 	0.24963	0.4552	0.1632	0.155
Mof_C 	C 	0.35043	0.5148	0.2109	-0.181
Mof_C 	C 	0.37243	0.5361	0.297	0.106
Mof_C 	C 	0.22113	0.4309	0.0685	-0.175
Mof_C 	C 	0.3022	0.5349	0.6629	-0.601
Mof_C 	C 	0.273	0.4595	0.5696	0.037
Mof_C 	C 	0.343	0.2147	0.421	-0.202
Mof_C 	C 	0.3702	0.1538	0.4469	0.109
Mof_C 	C 	0.1442	0.477	0.5371	0.301
Mof_C 	C 	0.4163	0.292	0.4552	0.158
Mof_C 	C 	0.5171	0.3039	0.5148	-0.181
Mof_C 	C 	0.5391	0.2391	0.5361	0.108
Mof_C 	C 	0.3878	0.3624	0.4309	-0.176
Mof_C 	C 	0.96887	0.128	0.4651	-0.447
Mof_C 	C 	0.93967	0.1101	0.5405	0.012
Mof_C 	C 	0.00967	0.2063	0.7853	-0.279
Mof_C 	C 	0.03687	0.2931	0.8462	0.076
Mof_C 	C 	0.81087	0.0601	0.523	0.308
Mof_C 	C 	0.08297	0.1632	0.708	0.203
Mof_C 	C 	0.18377	0.2109	0.6961	-0.213
Mof_C 	C 	0.20577	0.297	0.7609	0.121
Mof_C 	C 	0.05447	0.0685	0.6376	-0.275
Mof_C 	C 	0.63553	0.3371	0.872	-0.623
Mof_C 	C 	0.60633	0.4304	0.8899	0.048
Mof_C 	C 	0.67633	0.579	0.7937	-0.204
Mof_C 	C 	0.70353	0.5531	0.7069	0.113
Mof_C 	C 	0.47753	0.4629	0.9399	0.295
Mof_C 	C 	0.74963	0.5448	0.8368	0.165
Mof_C 	C 	0.85043	0.4852	0.7891	-0.181
Mof_C 	C 	0.87243	0.4639	0.703	0.113
Mof_C 	C 	0.72113	0.5691	0.9315	-0.181
Mof_N 	N 	0.8771	0.5488	0.49117	-0.264
Mof_N 	N 	0.9678	0.83531	0.4969	-0.246
Mof_N 	N 	0.54377	0.94237	0.4512	-0.267
Mof_N 	N 	0.63447	0.66159	0.16469	-0.267
Mof_N 	N 	0.21043	0.50883	0.05763	-0.262
Mof_N 	N 	0.30113	0.5031	0.33841	-0.268
Mof_N 	N 	0.3771	0.4512	0.50883	-0.266
Mof_N 	N 	0.4678	0.16469	0.5031	-0.268
Mof_N 	N 	0.04377	0.05763	0.5488	-0.265
Mof_N 	N 	0.13447	0.33841	0.83531	-0.271
Mof_N 	N 	0.71043	0.49117	0.94237	-0.267
Mof_N 	N 	0.80113	0.4969	0.66159	-0.265
Mof_Cl	Cl	0.82973	0.31249	0.43838	-0.528
Mof_Cl	Cl	0.4964	0.12589	0.68751	-0.545
Mof_Cl	Cl	0.16306	0.56162	0.87411	-0.564
Mof_Cl	Cl	0.32973	0.68751	0.56162	-0.552
Mof_Cl	Cl	0.9964	0.87411	0.31249	-0.505
Mof_Cl	Cl	0.66306	0.43838	0.12589	-0.54
Mof_O 	O 	0.6488	0.49114	0.51354	-0.417
Mof_O 	O 	0.542	0.5392	0.43371	-0.411
Mof_O 	O 	0.31547	0.0224	0.50886	-0.418
Mof_O 	O 	0.20867	0.89451	0.4608	-0.422
Mof_O 	O 	0.98213	0.48646	0.9776	-0.413
Mof_O 	O 	0.87533	0.56629	0.10549	-0.415
Mof_O 	O 	0.1488	0.50886	0.48646	-0.432
Mof_O 	O 	0.042	0.4608	0.56629	-0.437
Mof_O 	O 	0.81547	0.9776	0.49114	-0.412
Mof_O 	O 	0.70867	0.10549	0.5392	-0.414
Mof_O 	O 	0.48213	0.51354	0.0224	-0.417
Mof_O 	O 	0.37533	0.43371	0.89451	-0.412
_end
