data_functionalizedCrystal
_audit_creation_method	'EQeq! by Chris Wilmer'
_symmetry_space_group_name_H-M	'P1'
_symmetry_Int_Tables_number	1
_symmetry_cell_setting	triclinic
loop_
_symmetry_equiv_pos_as_xyz
  x,y,z
_cell_length_a	24.3936
_cell_length_b	24.3936
_cell_length_c	14.571
_cell_angle_alpha	90
_cell_angle_beta	90
_cell_angle_gamma	90
loop_
_atom_site_label
_atom_site_type_symbol
_atom_site_fract_x
_atom_site_fract_y
_atom_site_fract_z
_atom_site_charge
Mof_F 	F 	0.2913	0.3387	0.0715	-0.103
Mof_F 	F 	0.3494	0.3669	0.1844	-0.089
Mof_F 	F 	0.382	0.3272	0.0529	-0.064
Mof_O 	O 	0.4458	0.1463	0.0923	-0.7
Mof_O 	O 	0.3978	0.0831	0.1693	-0.786
Mof_C 	C 	0.296	0.2537	0.237	0.544
Mof_C 	C 	0.3351	0.265	0.1699	-0.839
Mof_C 	C 	0.3725	0.2265	0.1401	0.699
Mof_H 	H 	0.3989	0.235	0.0944	-0.096
Mof_C 	C 	0.3698	0.1738	0.1805	-0.571
Mof_C 	C 	0.3321	0.1614	0.2464	0.745
Mof_H 	H 	0.331	0.1258	0.2728	-0.153
Mof_C 	C 	0.2951	0.2014	0.2745	-0.887
Mof_H 	H 	0.2688	0.1928	0.3203	1.121
Mof_C 	C 	0.4076	0.1326	0.1386	0.718
Mof_C 	C 	0.3406	0.3197	0.1234	-0.76
Mof_F 	F 	0.1985	0.176	0.324	-0.145
Mof_F 	F 	0.253	0.2169	0.431	-0.108
Mof_F 	F 	0.269	0.1285	0.391	-0.148
Mof_H 	H 	0.3361	0.3006	0.1436	1.078
Mof_C 	C 	0.2562	0.1819	0.3474	-0.809
Mof_F 	F 	0.7087	0.6613	0.0715	-0.095
Mof_F 	F 	0.6506	0.6331	0.1844	-0.084
Mof_F 	F 	0.618	0.6728	0.0529	-0.06
Mof_O 	O 	0.5542	0.8537	0.0923	-0.687
Mof_O 	O 	0.6022	0.9169	0.1693	-0.658
Mof_C 	C 	0.704	0.7463	0.237	0.544
Mof_C 	C 	0.6649	0.735	0.1699	-0.834
Mof_C 	C 	0.6275	0.7735	0.1401	0.692
Mof_H 	H 	0.6011	0.765	0.0944	-0.091
Mof_C 	C 	0.6302	0.8262	0.1805	-0.531
Mof_C 	C 	0.6679	0.8386	0.2464	0.739
Mof_H 	H 	0.669	0.8742	0.2728	-0.091
Mof_C 	C 	0.7049	0.7986	0.2745	-0.873
Mof_H 	H 	0.7312	0.8072	0.3203	1.152
Mof_C 	C 	0.5924	0.8674	0.1386	0.7
Mof_C 	C 	0.6594	0.6803	0.1234	-0.774
Mof_F 	F 	0.8015	0.824	0.324	-0.05
Mof_F 	F 	0.747	0.7831	0.431	-0.079
Mof_F 	F 	0.731	0.8715	0.391	-0.048
Mof_H 	H 	0.6639	0.6994	0.1436	1.086
Mof_C 	C 	0.7438	0.8181	0.3474	-0.848
Mof_F 	F 	0.6613	0.2913	0.5715	-0.091
Mof_F 	F 	0.6331	0.3494	0.6844	-0.082
Mof_F 	F 	0.6728	0.382	0.5529	-0.048
Mof_O 	O 	0.8537	0.4458	0.5923	-0.681
Mof_O 	O 	0.9169	0.3978	0.6693	-0.66
Mof_C 	C 	0.7463	0.296	0.737	0.544
Mof_C 	C 	0.735	0.3351	0.6699	-0.832
Mof_C 	C 	0.7735	0.3725	0.6401	0.692
Mof_H 	H 	0.765	0.3989	0.5944	-0.085
Mof_C 	C 	0.8262	0.3698	0.6805	-0.529
Mof_C 	C 	0.8386	0.3321	0.7464	0.738
Mof_H 	H 	0.8742	0.331	0.7728	-0.094
Mof_C 	C 	0.7986	0.2951	0.7745	-0.874
Mof_H 	H 	0.8072	0.2688	0.8203	1.15
Mof_C 	C 	0.8674	0.4076	0.6386	0.699
Mof_C 	C 	0.6803	0.3406	0.6234	-0.776
Mof_F 	F 	0.824	0.1985	0.824	-0.089
Mof_F 	F 	0.7831	0.253	0.931	-0.082
Mof_F 	F 	0.8715	0.269	0.891	-0.062
Mof_H 	H 	0.6994	0.3361	0.6436	1.089
Mof_C 	C 	0.8181	0.2562	0.8474	-0.846
Mof_F 	F 	0.3387	0.7087	0.5715	-0.087
Mof_F 	F 	0.3669	0.6506	0.6844	-0.082
Mof_F 	F 	0.3272	0.618	0.5529	-0.05
Mof_O 	O 	0.1463	0.5542	0.5923	-0.693
Mof_O 	O 	0.0831	0.6022	0.6693	-0.776
Mof_C 	C 	0.2537	0.704	0.737	0.545
Mof_C 	C 	0.265	0.6649	0.6699	-0.836
Mof_C 	C 	0.2265	0.6275	0.6401	0.699
Mof_H 	H 	0.235	0.6011	0.5944	-0.09
Mof_C 	C 	0.1738	0.6302	0.6805	-0.564
Mof_C 	C 	0.1614	0.6679	0.7464	0.747
Mof_H 	H 	0.1258	0.669	0.7728	-0.144
Mof_C 	C 	0.2014	0.7049	0.7745	-0.883
Mof_H 	H 	0.1928	0.7312	0.8203	1.128
Mof_C 	C 	0.1326	0.5924	0.6386	0.718
Mof_C 	C 	0.3197	0.6594	0.6234	-0.763
Mof_F 	F 	0.176	0.8015	0.824	-0.096
Mof_F 	F 	0.2169	0.747	0.931	-0.086
Mof_F 	F 	0.1285	0.731	0.891	-0.119
Mof_H 	H 	0.3006	0.6639	0.6436	1.08
Mof_C 	C 	0.1819	0.7438	0.8474	-0.817
Mof_F 	F 	0.7087	0.3387	0.9285	-0.079
Mof_F 	F 	0.6506	0.3669	0.8156	-0.08
Mof_F 	F 	0.618	0.3272	0.9471	-0.039
Mof_O 	O 	0.5542	0.1463	0.9077	-0.684
Mof_O 	O 	0.6022	0.0831	0.8307	-0.773
Mof_C 	C 	0.704	0.2537	0.763	0.544
Mof_C 	C 	0.6649	0.265	0.8301	-0.834
Mof_C 	C 	0.6275	0.2265	0.8599	0.699
Mof_H 	H 	0.6011	0.235	0.9056	-0.085
Mof_C 	C 	0.6302	0.1738	0.8195	-0.562
Mof_C 	C 	0.6679	0.1614	0.7536	0.747
Mof_H 	H 	0.669	0.1258	0.7272	-0.145
Mof_C 	C 	0.7049	0.2014	0.7255	-0.883
Mof_H 	H 	0.7312	0.1928	0.6797	1.128
Mof_C 	C 	0.5924	0.1326	0.8614	0.718
Mof_C 	C 	0.6594	0.3197	0.8766	-0.764
Mof_F 	F 	0.8015	0.176	0.676	-0.098
Mof_F 	F 	0.747	0.2169	0.569	-0.094
Mof_F 	F 	0.731	0.1285	0.609	-0.125
Mof_H 	H 	0.6639	0.3006	0.8564	1.081
Mof_C 	C 	0.7438	0.1819	0.6526	-0.818
Mof_F 	F 	0.2913	0.6613	0.9285	-0.083
Mof_F 	F 	0.3494	0.6331	0.8156	-0.08
Mof_F 	F 	0.382	0.6728	0.9471	-0.037
Mof_O 	O 	0.4458	0.8537	0.9077	-0.672
Mof_O 	O 	0.3978	0.9169	0.8307	-0.658
Mof_C 	C 	0.296	0.7463	0.763	0.543
Mof_C 	C 	0.3351	0.735	0.8301	-0.83
Mof_C 	C 	0.3725	0.7735	0.8599	0.691
Mof_H 	H 	0.3989	0.765	0.9056	-0.081
Mof_C 	C 	0.3698	0.8262	0.8195	-0.528
Mof_C 	C 	0.3321	0.8386	0.7536	0.738
Mof_H 	H 	0.331	0.8742	0.7272	-0.095
Mof_C 	C 	0.2951	0.7986	0.7255	-0.874
Mof_H 	H 	0.2688	0.8072	0.6797	1.151
Mof_C 	C 	0.4076	0.8674	0.8614	0.7
Mof_C 	C 	0.3406	0.6803	0.8766	-0.778
Mof_F 	F 	0.1985	0.824	0.676	-0.092
Mof_F 	F 	0.253	0.7831	0.569	-0.091
Mof_F 	F 	0.269	0.8715	0.609	-0.067
Mof_H 	H 	0.3361	0.6994	0.8564	1.09
Mof_C 	C 	0.2562	0.8181	0.6526	-0.847
Mof_F 	F 	0.3387	0.2913	0.4285	-0.094
Mof_F 	F 	0.3669	0.3494	0.3156	-0.086
Mof_F 	F 	0.3272	0.382	0.4471	-0.051
Mof_O 	O 	0.1463	0.4458	0.4077	-0.695
Mof_O 	O 	0.0831	0.3978	0.3307	-0.786
Mof_C 	C 	0.2537	0.296	0.263	0.544
Mof_C 	C 	0.265	0.3351	0.3301	-0.837
Mof_C 	C 	0.2265	0.3725	0.3599	0.698
Mof_H 	H 	0.235	0.3989	0.4056	-0.091
Mof_C 	C 	0.1738	0.3698	0.3195	-0.57
Mof_C 	C 	0.1614	0.3321	0.2536	0.745
Mof_H 	H 	0.1258	0.331	0.2272	-0.154
Mof_C 	C 	0.2014	0.2951	0.2255	-0.887
Mof_H 	H 	0.1928	0.2688	0.1797	1.121
Mof_C 	C 	0.1326	0.4076	0.3614	0.718
Mof_C 	C 	0.3197	0.3406	0.3766	-0.762
Mof_F 	F 	0.176	0.1985	0.176	-0.146
Mof_F 	F 	0.2169	0.253	0.069	-0.116
Mof_F 	F 	0.1285	0.269	0.109	-0.153
Mof_H 	H 	0.3006	0.3361	0.3564	1.079
Mof_C 	C 	0.1819	0.2562	0.1526	-0.81
Mof_F 	F 	0.6613	0.7087	0.4285	-0.085
Mof_F 	F 	0.6331	0.6506	0.3156	-0.082
Mof_F 	F 	0.6728	0.618	0.4471	-0.048
Mof_O 	O 	0.8537	0.5542	0.4077	-0.681
Mof_O 	O 	0.9169	0.6022	0.3307	-0.657
Mof_C 	C 	0.7463	0.704	0.263	0.544
Mof_C 	C 	0.735	0.6649	0.3301	-0.832
Mof_C 	C 	0.7735	0.6275	0.3599	0.691
Mof_H 	H 	0.765	0.6011	0.4056	-0.085
Mof_C 	C 	0.8262	0.6302	0.3195	-0.529
Mof_C 	C 	0.8386	0.6679	0.2536	0.739
Mof_H 	H 	0.8742	0.669	0.2272	-0.092
Mof_C 	C 	0.7986	0.7049	0.2255	-0.873
Mof_H 	H 	0.8072	0.7312	0.1797	1.152
Mof_C 	C 	0.8674	0.5924	0.3614	0.7
Mof_C 	C 	0.6803	0.6594	0.3766	-0.775
Mof_F 	F 	0.824	0.8015	0.176	-0.053
Mof_F 	F 	0.7831	0.747	0.069	-0.088
Mof_F 	F 	0.8715	0.731	0.109	-0.055
Mof_H 	H 	0.6994	0.6639	0.3564	1.088
Mof_C 	C 	0.8181	0.7438	0.1526	-0.848
Mof_F 	F 	0.7087	0.6613	0.9285	-0.077
Mof_F 	F 	0.6506	0.6331	0.8156	-0.079
Mof_F 	F 	0.618	0.6728	0.9471	-0.036
Mof_O 	O 	0.5542	0.8537	0.9077	-0.672
Mof_O 	O 	0.6022	0.9169	0.8307	-0.651
Mof_C 	C 	0.704	0.7463	0.763	0.544
Mof_C 	C 	0.6649	0.735	0.8301	-0.83
Mof_C 	C 	0.6275	0.7735	0.8599	0.691
Mof_H 	H 	0.6011	0.765	0.9056	-0.08
Mof_C 	C 	0.6302	0.8262	0.8195	-0.524
Mof_C 	C 	0.6679	0.8386	0.7536	0.739
Mof_H 	H 	0.669	0.8742	0.7272	-0.089
Mof_C 	C 	0.7049	0.7986	0.7255	-0.872
Mof_H 	H 	0.7312	0.8072	0.6797	1.155
Mof_C 	C 	0.5924	0.8674	0.8614	0.7
Mof_C 	C 	0.6594	0.6803	0.8766	-0.778
Mof_F 	F 	0.8015	0.824	0.676	-0.048
Mof_F 	F 	0.747	0.7831	0.569	-0.078
Mof_F 	F 	0.731	0.8715	0.609	-0.046
Mof_H 	H 	0.6639	0.6994	0.8564	1.09
Mof_C 	C 	0.7438	0.8181	0.6526	-0.851
Mof_F 	F 	0.2913	0.3387	0.9285	-0.084
Mof_F 	F 	0.3494	0.3669	0.8156	-0.082
Mof_F 	F 	0.382	0.3272	0.9471	-0.039
Mof_O 	O 	0.4458	0.1463	0.9077	-0.685
Mof_O 	O 	0.3978	0.0831	0.8307	-0.779
Mof_C 	C 	0.296	0.2537	0.763	0.544
Mof_C 	C 	0.3351	0.265	0.8301	-0.835
Mof_C 	C 	0.3725	0.2265	0.8599	0.698
Mof_H 	H 	0.3989	0.235	0.9056	-0.086
Mof_C 	C 	0.3698	0.1738	0.8195	-0.565
Mof_C 	C 	0.3321	0.1614	0.7536	0.745
Mof_H 	H 	0.331	0.1258	0.7272	-0.151
Mof_C 	C 	0.2951	0.2014	0.7255	-0.885
Mof_H 	H 	0.2688	0.1928	0.6797	1.124
Mof_C 	C 	0.4076	0.1326	0.8614	0.718
Mof_C 	C 	0.3406	0.3197	0.8766	-0.764
Mof_F 	F 	0.1985	0.176	0.676	-0.142
Mof_F 	F 	0.253	0.2169	0.569	-0.107
Mof_F 	F 	0.269	0.1285	0.609	-0.146
Mof_H 	H 	0.3361	0.3006	0.8564	1.081
Mof_C 	C 	0.2562	0.1819	0.6526	-0.813
Mof_F 	F 	0.3387	0.7087	0.4285	-0.087
Mof_F 	F 	0.3669	0.6506	0.3156	-0.084
Mof_F 	F 	0.3272	0.618	0.4471	-0.051
Mof_O 	O 	0.1463	0.5542	0.4077	-0.694
Mof_O 	O 	0.0831	0.6022	0.3307	-0.78
Mof_C 	C 	0.2537	0.704	0.263	0.544
Mof_C 	C 	0.265	0.6649	0.3301	-0.837
Mof_C 	C 	0.2265	0.6275	0.3599	0.698
Mof_H 	H 	0.235	0.6011	0.4056	-0.091
Mof_C 	C 	0.1738	0.6302	0.3195	-0.567
Mof_C 	C 	0.1614	0.6679	0.2536	0.747
Mof_H 	H 	0.1258	0.669	0.2272	-0.148
Mof_C 	C 	0.2014	0.7049	0.2255	-0.885
Mof_H 	H 	0.1928	0.7312	0.1797	1.126
Mof_C 	C 	0.1326	0.5924	0.3614	0.718
Mof_C 	C 	0.3197	0.6594	0.3766	-0.762
Mof_F 	F 	0.176	0.8015	0.176	-0.103
Mof_F 	F 	0.2169	0.747	0.069	-0.104
Mof_F 	F 	0.1285	0.731	0.109	-0.133
Mof_H 	H 	0.3006	0.6639	0.3564	1.079
Mof_C 	C 	0.1819	0.7438	0.1526	-0.814
Mof_F 	F 	0.6613	0.2913	0.4285	-0.091
Mof_F 	F 	0.6331	0.3494	0.3156	-0.084
Mof_F 	F 	0.6728	0.382	0.4471	-0.049
Mof_O 	O 	0.8537	0.4458	0.4077	-0.682
Mof_O 	O 	0.9169	0.3978	0.3307	-0.664
Mof_C 	C 	0.7463	0.296	0.263	0.543
Mof_C 	C 	0.735	0.3351	0.3301	-0.833
Mof_C 	C 	0.7735	0.3725	0.3599	0.691
Mof_H 	H 	0.765	0.3989	0.4056	-0.086
Mof_C 	C 	0.8262	0.3698	0.3195	-0.532
Mof_C 	C 	0.8386	0.3321	0.2536	0.737
Mof_H 	H 	0.8742	0.331	0.2272	-0.098
Mof_C 	C 	0.7986	0.2951	0.2255	-0.876
Mof_H 	H 	0.8072	0.2688	0.1797	1.148
Mof_C 	C 	0.8674	0.4076	0.3614	0.699
Mof_C 	C 	0.6803	0.3406	0.3766	-0.775
Mof_F 	F 	0.824	0.1985	0.176	-0.096
Mof_F 	F 	0.7831	0.253	0.069	-0.101
Mof_F 	F 	0.8715	0.269	0.109	-0.075
Mof_H 	H 	0.6994	0.3361	0.3564	1.088
Mof_C 	C 	0.8181	0.2562	0.1526	-0.844
Mof_F 	F 	0.2913	0.6613	0.0715	-0.1
Mof_F 	F 	0.3494	0.6331	0.1844	-0.086
Mof_F 	F 	0.382	0.6728	0.0529	-0.06
Mof_O 	O 	0.4458	0.8537	0.0923	-0.688
Mof_O 	O 	0.3978	0.9169	0.1693	-0.665
Mof_C 	C 	0.296	0.7463	0.237	0.544
Mof_C 	C 	0.3351	0.735	0.1699	-0.835
Mof_C 	C 	0.3725	0.7735	0.1401	0.692
Mof_H 	H 	0.3989	0.765	0.0944	-0.091
Mof_C 	C 	0.3698	0.8262	0.1805	-0.534
Mof_C 	C 	0.3321	0.8386	0.2464	0.738
Mof_H 	H 	0.331	0.8742	0.2728	-0.097
Mof_C 	C 	0.2951	0.7986	0.2745	-0.875
Mof_H 	H 	0.2688	0.8072	0.3203	1.148
Mof_C 	C 	0.4076	0.8674	0.1386	0.7
Mof_C 	C 	0.3406	0.6803	0.1234	-0.774
Mof_F 	F 	0.1985	0.824	0.324	-0.094
Mof_F 	F 	0.253	0.7831	0.431	-0.092
Mof_F 	F 	0.269	0.8715	0.391	-0.069
Mof_H 	H 	0.3361	0.6994	0.1436	1.087
Mof_C 	C 	0.2562	0.8181	0.3474	-0.843
Mof_F 	F 	0.7087	0.3387	0.0715	-0.097
Mof_F 	F 	0.6506	0.3669	0.1844	-0.086
Mof_F 	F 	0.618	0.3272	0.0529	-0.062
Mof_O 	O 	0.5542	0.1463	0.0923	-0.699
Mof_O 	O 	0.6022	0.0831	0.1693	-0.779
Mof_C 	C 	0.704	0.2537	0.237	0.545
Mof_C 	C 	0.6649	0.265	0.1699	-0.838
Mof_C 	C 	0.6275	0.2265	0.1401	0.699
Mof_H 	H 	0.6011	0.235	0.0944	-0.096
Mof_C 	C 	0.6302	0.1738	0.1805	-0.568
Mof_C 	C 	0.6679	0.1614	0.2464	0.747
Mof_H 	H 	0.669	0.1258	0.2728	-0.146
Mof_C 	C 	0.7049	0.2014	0.2745	-0.884
Mof_H 	H 	0.7312	0.1928	0.3203	1.126
Mof_C 	C 	0.5924	0.1326	0.1386	0.718
Mof_C 	C 	0.6594	0.3197	0.1234	-0.76
Mof_F 	F 	0.8015	0.176	0.324	-0.101
Mof_F 	F 	0.747	0.2169	0.431	-0.095
Mof_F 	F 	0.731	0.1285	0.391	-0.127
Mof_H 	H 	0.6639	0.3006	0.1436	1.078
Mof_C 	C 	0.7438	0.1819	0.3474	-0.814
Mof_F 	F 	0.6613	0.7087	0.5715	-0.085
Mof_F 	F 	0.6331	0.6506	0.6844	-0.08
Mof_F 	F 	0.6728	0.618	0.5529	-0.047
Mof_O 	O 	0.8537	0.5542	0.5923	-0.68
Mof_O 	O 	0.9169	0.6022	0.6693	-0.654
Mof_C 	C 	0.7463	0.704	0.737	0.544
Mof_C 	C 	0.735	0.6649	0.6699	-0.831
Mof_C 	C 	0.7735	0.6275	0.6401	0.692
Mof_H 	H 	0.765	0.6011	0.5944	-0.085
Mof_C 	C 	0.8262	0.6302	0.6805	-0.526
Mof_C 	C 	0.8386	0.6679	0.7464	0.739
Mof_H 	H 	0.8742	0.669	0.7728	-0.088
Mof_C 	C 	0.7986	0.7049	0.7745	-0.872
Mof_H 	H 	0.8072	0.7312	0.8203	1.155
Mof_C 	C 	0.8674	0.5924	0.6386	0.7
Mof_C 	C 	0.6803	0.6594	0.6234	-0.776
Mof_F 	F 	0.824	0.8015	0.824	-0.046
Mof_F 	F 	0.7831	0.747	0.931	-0.07
Mof_F 	F 	0.8715	0.731	0.891	-0.041
Mof_H 	H 	0.6994	0.6639	0.6436	1.089
Mof_C 	C 	0.8181	0.7438	0.8474	-0.851
Mof_F 	F 	0.3387	0.2913	0.5715	-0.093
Mof_F 	F 	0.3669	0.3494	0.6844	-0.084
Mof_F 	F 	0.3272	0.382	0.5529	-0.051
Mof_O 	O 	0.1463	0.4458	0.5923	-0.693
Mof_O 	O 	0.0831	0.3978	0.6693	-0.783
Mof_C 	C 	0.2537	0.296	0.737	0.544
Mof_C 	C 	0.265	0.3351	0.6699	-0.837
Mof_C 	C 	0.2265	0.3725	0.6401	0.699
Mof_H 	H 	0.235	0.3989	0.5944	-0.091
Mof_C 	C 	0.1738	0.3698	0.6805	-0.567
Mof_C 	C 	0.1614	0.3321	0.7464	0.746
Mof_H 	H 	0.1258	0.331	0.7728	-0.15
Mof_C 	C 	0.2014	0.2951	0.7745	-0.885
Mof_H 	H 	0.1928	0.2688	0.8203	1.124
Mof_C 	C 	0.1326	0.4076	0.6386	0.718
Mof_C 	C 	0.3197	0.3406	0.6234	-0.763
Mof_F 	F 	0.176	0.1985	0.824	-0.139
Mof_F 	F 	0.2169	0.253	0.931	-0.098
Mof_F 	F 	0.1285	0.269	0.891	-0.14
Mof_H 	H 	0.3006	0.3361	0.6436	1.08
Mof_C 	C 	0.1819	0.2562	0.8474	-0.812
Mof_Zr	Zr	0.5	0.09986	-0	3.22
Mof_Zr	Zr	0.5	0.90014	-0	3.218
Mof_Zr	Zr	0.90014	0.5	0.5	3.22
Mof_Zr	Zr	0.09986	0.5	0.5	3.222
Mof_Zr	Zr	0.42764	-7.27862e-34	0.12182	3.153
Mof_Zr	Zr	0.57236	-7.27862e-34	0.12182	3.154
Mof_Zr	Zr	-4.43026e-33	0.42764	0.62182	3.153
Mof_Zr	Zr	-1.31646e-32	0.57236	0.62182	3.154
Mof_Zr	Zr	0.57236	-5.8229e-33	0.87818	3.156
Mof_Zr	Zr	0.42764	-5.8229e-33	0.87818	3.155
Mof_Zr	Zr	-1.07988e-32	0.42764	0.37818	3.153
Mof_Zr	Zr	3.75843e-33	0.57236	0.37818	3.154
Mof_O 	O 	0.4286	0.0498	-0	-1.402
Mof_O 	O 	0.5714	0.9502	-0	-1.231
Mof_O 	O 	0.9502	0.4286	0.5	-1.219
Mof_O 	O 	0.0498	0.5714	0.5	-1.388
Mof_O 	O 	0.5714	0.0498	-0	-1.398
Mof_O 	O 	0.4286	0.9502	-0	-1.235
Mof_O 	O 	0.0498	0.4286	0.5	-1.392
Mof_O 	O 	0.9502	0.5714	0.5	-1.215
Mof_O 	O 	0.5	0.0479	0.1196	-1.402
Mof_O 	O 	0.5	0.9521	0.1196	-1.224
Mof_O 	O 	0.9521	0.5	0.6196	-1.22
Mof_O 	O 	0.0479	0.5	0.6196	-1.402
Mof_O 	O 	0.5	0.0479	0.8804	-1.392
Mof_O 	O 	0.5	0.9521	0.8804	-1.213
Mof_O 	O 	0.0479	0.5	0.3804	-1.404
Mof_O 	O 	0.9521	0.5	0.3804	-1.222
_end
