data_functionalizedCrystal
_audit_creation_method	'EQeq! by Chris Wilmer'
_symmetry_space_group_name_H-M	'P1'
_symmetry_Int_Tables_number	1
_symmetry_cell_setting	triclinic
loop_
_symmetry_equiv_pos_as_xyz
  x,y,z
_cell_length_a	9.4178
_cell_length_b	15.4572
_cell_length_c	18.2451
_cell_angle_alpha	95.399
_cell_angle_beta	91.352
_cell_angle_gamma	90.312
loop_
_atom_site_label
_atom_site_type_symbol
_atom_site_fract_x
_atom_site_fract_y
_atom_site_fract_z
_atom_site_charge
Mof_Zn	Zn	0.25341	0.0887	0.02975	1.237
Mof_Zn	Zn	0.12112	0.41788	0.11214	1.241
Mof_Zn	Zn	0.1107	0.58318	0.38737	1.242
Mof_Zn	Zn	0.25004	0.91445	0.46921	1.242
Mof_O 	O 	0.3124	0.2117	0.0059	-0.327
Mof_O 	O 	0.1666	0.1604	0.1192	-0.332
Mof_O 	O 	0.2669	0.3497	0.0449	-0.322
Mof_O 	O 	0.0973	0.296	0.148	-0.333
Mof_O 	O 	0.9782	0.4709	0.1895	-0.324
Mof_O 	O 	0.261	0.4696	0.1965	-0.321
Mof_O 	O 	0.9722	0.5306	0.3046	-0.323
Mof_O 	O 	0.2567	0.5368	0.309	-0.326
Mof_O 	O 	0.0869	0.7047	0.3519	-0.328
Mof_O 	O 	0.2532	0.6543	0.4606	-0.323
Mof_O 	O 	0.1588	0.8413	0.3804	-0.331
Mof_O 	O 	0.3038	0.791	0.4969	-0.325
Mof_O 	O 	0.3622	0.0238	0.94018	-0.307
Mof_O 	O 	0.0542	0.0975	0.9681	-0.297
Mof_O 	O 	0.5561	0.9458	0.91786	-0.319
Mof_O 	O 	0.85	0.0261	0.9492	-0.323
Mof_O 	O 	0.9602	0.3984	0.0283	-0.31
Mof_O 	O 	0.8615	0.4677	0.9391	-0.325
Mof_O 	O 	0.9533	0.5989	0.4684	-0.317
Mof_O 	O 	0.8651	0.5315	0.5598	-0.319
Mof_O 	O 	0.434	0.9485	0.4175	-0.325
Mof_O 	O 	0.1469	0.0286	0.4512	-0.331
Mof_O 	O 	0.9452	0.0994	0.4719	-0.305
Mof_O 	O 	0.6312	0.0266	0.44016	-0.315
Mof_C 	C 	0.2558	0.2694	0.0481	0.22
Mof_C 	C 	0.165	0.239	0.1107	0.233
Mof_C 	C 	0.0339	0.5012	0.2477	0.235
Mof_C 	C 	0.199	0.5027	0.2522	0.237
Mof_C 	C 	0.1565	0.7634	0.3905	0.225
Mof_C 	C 	0.2451	0.733	0.455	0.236
Mof_C 	C 	0.4774	0.9912	0.9596	0.221
Mof_C 	C 	0.9719	0.035	0.9762	0.224
Mof_C 	C 	0.9485	0.4613	0.9907	0.229
Mof_C 	C 	0.9472	0.5371	0.5076	0.232
Mof_C 	C 	0.0272	0.0363	0.4779	0.23
Mof_C 	C 	0.5174	0.9925	0.4593	0.227
Mof_Zn	Zn	0.74659	0.9113	0.97025	1.236
Mof_Zn	Zn	0.87888	0.58212	0.88786	1.24
Mof_Zn	Zn	0.8893	0.41682	0.61263	1.241
Mof_Zn	Zn	0.74996	0.08555	0.53079	1.241
Mof_O 	O 	0.6876	0.7883	0.9941	-0.328
Mof_O 	O 	0.8334	0.8396	0.8808	-0.333
Mof_O 	O 	0.7331	0.6503	0.9551	-0.322
Mof_O 	O 	0.9027	0.704	0.852	-0.333
Mof_O 	O 	0.0218	0.5291	0.8105	-0.324
Mof_O 	O 	0.739	0.5304	0.8035	-0.321
Mof_O 	O 	0.0278	0.4694	0.6954	-0.323
Mof_O 	O 	0.7433	0.4632	0.691	-0.326
Mof_O 	O 	0.9131	0.2953	0.6481	-0.328
Mof_O 	O 	0.7468	0.3457	0.5394	-0.323
Mof_O 	O 	0.8412	0.1587	0.6196	-0.331
Mof_O 	O 	0.6962	0.209	0.5031	-0.325
Mof_O 	O 	0.6378	0.9762	0.05982	-0.307
Mof_O 	O 	0.9458	0.9025	0.0319	-0.297
Mof_O 	O 	0.4439	0.0542	0.08214	-0.319
Mof_O 	O 	0.15	0.9739	0.0508	-0.323
Mof_O 	O 	0.0398	0.6016	0.9717	-0.31
Mof_O 	O 	0.1385	0.5323	0.0609	-0.325
Mof_O 	O 	0.0467	0.4011	0.5316	-0.317
Mof_O 	O 	0.1349	0.4685	0.4402	-0.319
Mof_O 	O 	0.566	0.0515	0.5825	-0.325
Mof_O 	O 	0.8531	0.9714	0.5488	-0.331
Mof_O 	O 	0.0548	0.9006	0.5281	-0.305
Mof_O 	O 	0.3688	0.9734	0.55984	-0.315
Mof_C 	C 	0.7442	0.7306	0.9519	0.22
Mof_C 	C 	0.835	0.761	0.8893	0.233
Mof_C 	C 	0.9661	0.4988	0.7523	0.235
Mof_C 	C 	0.801	0.4973	0.7478	0.237
Mof_C 	C 	0.8435	0.2366	0.6095	0.225
Mof_C 	C 	0.7549	0.267	0.545	0.236
Mof_C 	C 	0.5226	0.0088	0.0404	0.221
Mof_C 	C 	0.0281	0.965	0.0238	0.224
Mof_C 	C 	0.0515	0.5387	0.0093	0.229
Mof_C 	C 	0.0528	0.4629	0.4924	0.232
Mof_C 	C 	0.9728	0.9637	0.5221	0.23
Mof_C 	C 	0.4826	0.0075	0.5407	0.227
_end
