data_functionalizedCrystal
_audit_creation_method	'EQeq! by Chris Wilmer'
_symmetry_space_group_name_H-M	'P1'
_symmetry_Int_Tables_number	1
_symmetry_cell_setting	triclinic
loop_
_symmetry_equiv_pos_as_xyz
  x,y,z
_cell_length_a	13.4307
_cell_length_b	17.0964
_cell_length_c	9.5948
_cell_angle_alpha	90
_cell_angle_beta	90
_cell_angle_gamma	90
loop_
_atom_site_label
_atom_site_type_symbol
_atom_site_fract_x
_atom_site_fract_y
_atom_site_fract_z
_atom_site_charge
Mof_O 	O 	0.6029	0.58371	0.3848	-0.465
Mof_C 	C 	0.7215	0.7169	0.6268	-0.01
Mof_H 	H 	0.7021	0.6938	0.7126	0.059
Mof_H 	H 	0.4403	0.3915	0.1155	-0.018
Mof_C 	C 	0.4112	0.4583	0.0806	-0.035
Mof_H 	H 	0.3501	0.4841	0.1152	0.014
Mof_H 	H 	0.4114	0.4037	0.1152	0.057
Mof_O 	O 	0.1029	0.08371	0.3848	-0.506
Mof_C 	C 	0.2215	0.2169	0.6268	-0.033
Mof_H 	H 	0.2021	0.1938	0.7126	0.047
Mof_H 	H 	0.9403	0.8915	0.1155	-1.177
Mof_C 	C 	0.9112	0.9583	0.0806	-0.33
Mof_H 	H 	0.8501	0.9841	0.1152	0.203
Mof_H 	H 	0.9114	0.9037	0.1152	1.332
Mof_O 	O 	0.3971	0.41629	0.3848	-0.48
Mof_C 	C 	0.2785	0.2831	0.6268	-0.013
Mof_H 	H 	0.2979	0.3062	0.7126	0.036
Mof_H 	H 	0.5597	0.6085	0.1155	0.073
Mof_C 	C 	0.5888	0.5417	0.0806	-0.01
Mof_H 	H 	0.6499	0.5159	0.1152	0.027
Mof_H 	H 	0.5886	0.5963	0.1152	-0.029
Mof_O 	O 	0.8971	0.91629	0.3848	-0.393
Mof_C 	C 	0.7785	0.7831	0.6268	0.008
Mof_H 	H 	0.7979	0.8062	0.7126	0.046
Mof_H 	H 	0.0597	0.1085	0.1155	0.47
Mof_C 	C 	0.0888	0.0417	0.0806	0.125
Mof_H 	H 	0.1499	0.0159	0.1152	-0.173
Mof_H 	H 	0.0886	0.0963	0.1152	-0.486
Mof_O 	O 	0.3971	0.58371	0.6152	-0.48
Mof_C 	C 	0.2785	0.7169	0.3732	-0.012
Mof_H 	H 	0.2979	0.6938	0.2874	0.037
Mof_H 	H 	0.5597	0.3915	0.8845	0.072
Mof_C 	C 	0.5888	0.4583	0.9194	-0.008
Mof_H 	H 	0.6499	0.4841	0.8848	0.025
Mof_H 	H 	0.5886	0.4037	0.8848	-0.03
Mof_O 	O 	0.8971	0.08371	0.6152	-0.409
Mof_C 	C 	0.7785	0.2169	0.3732	0.007
Mof_H 	H 	0.7979	0.1938	0.2874	0.045
Mof_H 	H 	0.0597	0.8915	0.8845	0.602
Mof_C 	C 	0.0888	0.9583	0.9194	0.074
Mof_H 	H 	0.1499	0.9841	0.8848	0.195
Mof_H 	H 	0.0886	0.9037	0.8848	-0.608
Mof_O 	O 	0.6029	0.41629	0.6152	-0.465
Mof_C 	C 	0.7215	0.2831	0.3732	-0.011
Mof_H 	H 	0.7021	0.3062	0.2874	0.058
Mof_H 	H 	0.4403	0.6085	0.8845	-0.017
Mof_C 	C 	0.4112	0.5417	0.9194	-0.036
Mof_H 	H 	0.3501	0.5159	0.8848	0.016
Mof_H 	H 	0.4114	0.5963	0.8848	0.057
Mof_O 	O 	0.1029	0.91629	0.6152	-0.484
Mof_C 	C 	0.2215	0.7831	0.3732	-0.031
Mof_H 	H 	0.2021	0.8062	0.2874	0.048
Mof_H 	H 	0.9403	0.1085	0.8845	-1.301
Mof_C 	C 	0.9112	0.0417	0.9194	-0.304
Mof_H 	H 	0.8501	0.0159	0.8848	-0.093
Mof_H 	H 	0.9114	0.0963	0.8848	1.455
Mof_O 	O 	0.3971	0.41629	0.6152	-0.48
Mof_C 	C 	0.2785	0.2831	0.3732	-0.013
Mof_H 	H 	0.2979	0.3062	0.2874	0.036
Mof_H 	H 	0.5597	0.6085	0.8845	0.073
Mof_C 	C 	0.5888	0.5417	0.9194	-0.01
Mof_H 	H 	0.6499	0.5159	0.8848	0.027
Mof_H 	H 	0.5886	0.5963	0.8848	-0.029
Mof_O 	O 	0.8971	0.91629	0.6152	-0.393
Mof_C 	C 	0.7785	0.7831	0.3732	0.008
Mof_H 	H 	0.7979	0.8062	0.2874	0.046
Mof_H 	H 	0.0597	0.1085	0.8845	0.47
Mof_C 	C 	0.0888	0.0417	0.9194	0.125
Mof_H 	H 	0.1499	0.0159	0.8848	-0.173
Mof_H 	H 	0.0886	0.0963	0.8848	-0.486
Mof_O 	O 	0.6029	0.58371	0.6152	-0.464
Mof_C 	C 	0.7215	0.7169	0.3732	-0.01
Mof_H 	H 	0.7021	0.6938	0.2874	0.059
Mof_H 	H 	0.4403	0.3915	0.8845	-0.018
Mof_C 	C 	0.4112	0.4583	0.9194	-0.035
Mof_H 	H 	0.3501	0.4841	0.8848	0.014
Mof_H 	H 	0.4114	0.4037	0.8848	0.057
Mof_O 	O 	0.1029	0.08371	0.6152	-0.506
Mof_C 	C 	0.2215	0.2169	0.3732	-0.033
Mof_H 	H 	0.2021	0.1938	0.2874	0.047
Mof_H 	H 	0.9403	0.8915	0.8845	-1.177
Mof_C 	C 	0.9112	0.9583	0.9194	-0.33
Mof_H 	H 	0.8501	0.9841	0.8848	0.203
Mof_H 	H 	0.9114	0.9037	0.8848	1.332
Mof_O 	O 	0.6029	0.41629	0.3848	-0.465
Mof_C 	C 	0.7215	0.2831	0.6268	-0.011
Mof_H 	H 	0.7021	0.3062	0.7126	0.058
Mof_H 	H 	0.4403	0.6085	0.1155	-0.017
Mof_C 	C 	0.4112	0.5417	0.0806	-0.036
Mof_H 	H 	0.3501	0.5159	0.1152	0.016
Mof_H 	H 	0.4114	0.5963	0.1152	0.057
Mof_O 	O 	0.1029	0.91629	0.3848	-0.484
Mof_C 	C 	0.2215	0.7831	0.6268	-0.031
Mof_H 	H 	0.2021	0.8062	0.7126	0.048
Mof_H 	H 	0.9403	0.1085	0.1155	-1.301
Mof_C 	C 	0.9112	0.0417	0.0806	-0.304
Mof_H 	H 	0.8501	0.0159	0.1152	-0.093
Mof_H 	H 	0.9114	0.0963	0.1152	1.455
Mof_O 	O 	0.3971	0.58371	0.3848	-0.48
Mof_C 	C 	0.2785	0.7169	0.6268	-0.012
Mof_H 	H 	0.2979	0.6938	0.7126	0.037
Mof_H 	H 	0.5597	0.3915	0.1155	0.072
Mof_C 	C 	0.5888	0.4583	0.0806	-0.008
Mof_H 	H 	0.6499	0.4841	0.1152	0.025
Mof_H 	H 	0.5886	0.4037	0.1152	-0.03
Mof_O 	O 	0.8971	0.08371	0.3848	-0.409
Mof_C 	C 	0.7785	0.2169	0.6268	0.007
Mof_H 	H 	0.7979	0.1938	0.7126	0.045
Mof_H 	H 	0.0597	0.8915	0.1155	0.602
Mof_C 	C 	0.0888	0.9583	0.0806	0.074
Mof_H 	H 	0.1499	0.9841	0.1152	0.195
Mof_H 	H 	0.0886	0.9037	0.1152	-0.608
Mof_Zn	Zn	0.5	0.5	0.34806	1.217
Mof_N 	N 	0.5	0.5	0.1343	-0.195
Mof_Zn	Zn	-1.93222e-33	0	0.34806	1.143
Mof_N 	N 	3.59729e-34	0	0.1343	-0.3
Mof_Zn	Zn	0.5	0.5	0.65194	1.217
Mof_N 	N 	0.5	0.5	0.8657	-0.195
Mof_Zn	Zn	1.74625e-33	0	0.65194	1.143
Mof_N 	N 	2.31882e-33	0	0.8657	-0.3
Mof_C 	C 	0.6277	0.6108	0.5	0.405
Mof_C 	C 	0.6915	0.6828	0.5	-0.069
Mof_C 	C 	0.1277	0.1108	0.5	0.381
Mof_C 	C 	0.1915	0.1828	0.5	-0.092
Mof_C 	C 	0.3723	0.3892	0.5	0.399
Mof_C 	C 	0.3085	0.3172	0.5	-0.101
Mof_C 	C 	0.8723	0.8892	0.5	0.402
Mof_C 	C 	0.8085	0.8172	0.5	-0.071
Mof_C 	C 	0.3723	0.6108	0.5	0.4
Mof_C 	C 	0.3085	0.6828	0.5	-0.1
Mof_C 	C 	0.8723	0.1108	0.5	0.402
Mof_C 	C 	0.8085	0.1828	0.5	-0.074
Mof_C 	C 	0.6277	0.3892	0.5	0.404
Mof_C 	C 	0.6915	0.3172	0.5	-0.07
Mof_C 	C 	0.1277	0.8892	0.5	0.381
Mof_C 	C 	0.1915	0.8172	0.5	-0.088
Mof_C 	C 	0.5	0.4194	0.0809	-0.033
Mof_C 	C 	8.81024e-33	0.9194	0.0809	0.083
Mof_C 	C 	0.5	0.5806	0.0809	-0.032
Mof_C 	C 	9.32823e-34	0.0806	0.0809	0.121
Mof_C 	C 	0.5	0.4194	0.9191	-0.033
Mof_C 	C 	-8.99621e-33	0.9194	0.9191	0.083
Mof_C 	C 	0.5	0.5806	0.9191	-0.032
Mof_C 	C 	-8.99621e-33	0.0806	0.9191	0.121
_end
