data_functionalizedCrystal
_audit_creation_method	'EQeq! by Chris Wilmer'
_symmetry_space_group_name_H-M	'P1'
_symmetry_Int_Tables_number	1
_symmetry_cell_setting	triclinic
loop_
_symmetry_equiv_pos_as_xyz
  x,y,z
_cell_length_a	24.4165
_cell_length_b	24.4165
_cell_length_c	13.7457
_cell_angle_alpha	90
_cell_angle_beta	90
_cell_angle_gamma	90
loop_
_atom_site_label
_atom_site_type_symbol
_atom_site_fract_x
_atom_site_fract_y
_atom_site_fract_z
_atom_site_charge
Mof_N 	N 	0.2016	0.0828	0.245	-0.168
Mof_N 	N 	0.3456	0.1108	0.5161	-0.103
Mof_C 	C 	0.2871	0.0615	0.5924	0.048
Mof_C 	C 	0.37	0.1435	0.4378	-0.003
Mof_C 	C 	0.3642	0.1055	0.6086	0.045
Mof_C 	C 	0.3273	0.0749	0.6599	-0.143
Mof_H 	H 	0.2557	0.0399	0.6064	-0.017
Mof_C 	C 	0.4298	0.1338	0.4265	-0.147
Mof_H 	H 	0.3514	0.1346	0.3757	0.005
Mof_H 	H 	0.3637	0.1828	0.4514	0
Mof_H 	H 	0.3972	0.1206	0.6335	-0.012
Mof_H 	H 	0.3289	0.065	0.7266	0.045
Mof_S 	S 	0.44739	0.06878	0.36831	0.008
Mof_H 	H 	0.4456	0.164	0.3876	0.059
Mof_H 	H 	0.4471	0.1349	0.4916	0.059
Mof_C 	C 	0.4328	0.0888	0.247	-0.01
Mof_C 	C 	0.4653	0.1266	0.198	-0.011
Mof_C 	C 	0.3873	0.0681	0.1986	-0.009
Mof_S 	S 	0.5225	0.16107	0.24769	-0.095
Mof_C 	C 	0.4501	0.1459	0.1059	0.016
Mof_C 	C 	0.3718	0.0875	0.107	0.012
Mof_C 	C 	0.4019	0.129	0.0602	-0.204
Mof_H 	H 	0.4733	0.1713	0.0735	-0.004
Mof_H 	H 	0.3404	0.0725	0.0759	0.003
Mof_C 	C 	0.385	0.1527	0.9627	0.594
Mof_C 	C 	0.3255	0.142	0.9375	-0.868
Mof_C 	C 	0.4206	0.1254	0.8838	-0.862
Mof_C 	C 	0.3948	0.2145	0.9618	-0.869
Mof_H 	H 	0.3018	0.1627	0.9818	0.254
Mof_H 	H 	0.3185	0.1536	0.8704	0.253
Mof_H 	H 	0.3177	0.1028	0.9439	0.259
Mof_H 	H 	0.4145	0.0858	0.8845	0.264
Mof_H 	H 	0.4106	0.1401	0.8198	0.257
Mof_H 	H 	0.4593	0.1331	0.8967	0.268
Mof_H 	H 	0.3817	0.2298	0.9002	0.258
Mof_H 	H 	0.3749	0.2314	0.0159	0.256
Mof_H 	H 	0.434	0.2219	0.9688	0.263
Mof_N 	N 	0.7016	0.5828	0.745	-0.168
Mof_N 	N 	0.8456	0.6108	0.0161	-0.103
Mof_C 	C 	0.7871	0.5615	0.0924	0.048
Mof_C 	C 	0.87	0.6435	0.9378	-0.003
Mof_C 	C 	0.8642	0.6055	0.1086	0.045
Mof_C 	C 	0.8273	0.5749	0.1599	-0.143
Mof_H 	H 	0.7557	0.5399	0.1064	-0.017
Mof_C 	C 	0.9298	0.6338	0.9265	-0.147
Mof_H 	H 	0.8514	0.6346	0.8757	0.005
Mof_H 	H 	0.8637	0.6828	0.9514	0
Mof_H 	H 	0.8972	0.6206	0.1335	-0.012
Mof_H 	H 	0.8289	0.565	0.2266	0.045
Mof_S 	S 	0.94739	0.56878	0.86831	0.008
Mof_H 	H 	0.9456	0.664	0.8876	0.059
Mof_H 	H 	0.9471	0.6349	0.9916	0.059
Mof_C 	C 	0.9328	0.5888	0.747	-0.01
Mof_C 	C 	0.9653	0.6266	0.698	-0.011
Mof_C 	C 	0.8873	0.5681	0.6986	-0.009
Mof_S 	S 	0.0225	0.66107	0.74769	-0.095
Mof_C 	C 	0.9501	0.6459	0.6059	0.016
Mof_C 	C 	0.8718	0.5875	0.607	0.012
Mof_C 	C 	0.9019	0.629	0.5602	-0.204
Mof_H 	H 	0.9733	0.6713	0.5735	-0.004
Mof_H 	H 	0.8404	0.5725	0.5759	0.003
Mof_C 	C 	0.885	0.6527	0.4627	0.594
Mof_C 	C 	0.8255	0.642	0.4375	-0.868
Mof_C 	C 	0.9206	0.6254	0.3838	-0.862
Mof_C 	C 	0.8948	0.7145	0.4618	-0.868
Mof_H 	H 	0.8018	0.6627	0.4818	0.255
Mof_H 	H 	0.8185	0.6536	0.3704	0.254
Mof_H 	H 	0.8177	0.6028	0.4439	0.26
Mof_H 	H 	0.9145	0.5858	0.3845	0.265
Mof_H 	H 	0.9106	0.6401	0.3198	0.258
Mof_H 	H 	0.9593	0.6331	0.3967	0.269
Mof_H 	H 	0.8817	0.7298	0.4002	0.259
Mof_H 	H 	0.8749	0.7314	0.5159	0.257
Mof_H 	H 	0.934	0.7219	0.4688	0.264
Mof_N 	N 	0.7984	0.9172	0.245	-0.167
Mof_N 	N 	0.6544	0.8892	0.5161	-0.102
Mof_C 	C 	0.7129	0.9385	0.5924	0.049
Mof_C 	C 	0.63	0.8565	0.4378	-0.002
Mof_C 	C 	0.6358	0.8945	0.6086	0.046
Mof_C 	C 	0.6727	0.9251	0.6599	-0.142
Mof_H 	H 	0.7443	0.9601	0.6064	-0.016
Mof_C 	C 	0.5702	0.8662	0.4265	-0.146
Mof_H 	H 	0.6486	0.8654	0.3757	0.006
Mof_H 	H 	0.6363	0.8172	0.4514	0.001
Mof_H 	H 	0.6028	0.8794	0.6335	-0.011
Mof_H 	H 	0.6711	0.935	0.7266	0.046
Mof_S 	S 	0.55261	0.93122	0.36831	0.009
Mof_H 	H 	0.5544	0.836	0.3876	0.06
Mof_H 	H 	0.5529	0.8651	0.4916	0.06
Mof_C 	C 	0.5672	0.9112	0.247	-0.009
Mof_C 	C 	0.5347	0.8734	0.198	-0.01
Mof_C 	C 	0.6127	0.9319	0.1986	-0.008
Mof_S 	S 	0.4775	0.83893	0.24769	-0.094
Mof_C 	C 	0.5499	0.8541	0.1059	0.017
Mof_C 	C 	0.6282	0.9125	0.107	0.013
Mof_C 	C 	0.5981	0.871	0.0602	-0.203
Mof_H 	H 	0.5267	0.8287	0.0735	-0.003
Mof_H 	H 	0.6596	0.9275	0.0759	0.004
Mof_C 	C 	0.615	0.8473	0.9627	0.595
Mof_C 	C 	0.6745	0.858	0.9375	-0.867
Mof_C 	C 	0.5794	0.8746	0.8838	-0.861
Mof_C 	C 	0.6052	0.7855	0.9618	-0.868
Mof_H 	H 	0.6982	0.8373	0.9818	0.255
Mof_H 	H 	0.6815	0.8464	0.8704	0.254
Mof_H 	H 	0.6823	0.8972	0.9439	0.26
Mof_H 	H 	0.5855	0.9142	0.8845	0.265
Mof_H 	H 	0.5894	0.8599	0.8198	0.258
Mof_H 	H 	0.5407	0.8669	0.8967	0.269
Mof_H 	H 	0.6183	0.7702	0.9002	0.259
Mof_H 	H 	0.6251	0.7686	0.0159	0.257
Mof_H 	H 	0.566	0.7781	0.9688	0.264
Mof_N 	N 	0.2984	0.4172	0.745	-0.167
Mof_N 	N 	0.1544	0.3892	0.0161	-0.102
Mof_C 	C 	0.2129	0.4385	0.0924	0.049
Mof_C 	C 	0.13	0.3565	0.9378	-0.002
Mof_C 	C 	0.1358	0.3945	0.1086	0.046
Mof_C 	C 	0.1727	0.4251	0.1599	-0.142
Mof_H 	H 	0.2443	0.4601	0.1064	-0.016
Mof_C 	C 	0.0702	0.3662	0.9265	-0.146
Mof_H 	H 	0.1486	0.3654	0.8757	0.006
Mof_H 	H 	0.1363	0.3172	0.9514	0.001
Mof_H 	H 	0.1028	0.3794	0.1335	-0.011
Mof_H 	H 	0.1711	0.435	0.2266	0.046
Mof_S 	S 	0.05261	0.43122	0.86831	0.009
Mof_H 	H 	0.0544	0.336	0.8876	0.06
Mof_H 	H 	0.0529	0.3651	0.9916	0.06
Mof_C 	C 	0.0672	0.4112	0.747	-0.009
Mof_C 	C 	0.0347	0.3734	0.698	-0.01
Mof_C 	C 	0.1127	0.4319	0.6986	-0.008
Mof_S 	S 	0.9775	0.33893	0.74769	-0.094
Mof_C 	C 	0.0499	0.3541	0.6059	0.017
Mof_C 	C 	0.1282	0.4125	0.607	0.013
Mof_C 	C 	0.0981	0.371	0.5602	-0.203
Mof_H 	H 	0.0267	0.3287	0.5735	-0.003
Mof_H 	H 	0.1596	0.4275	0.5759	0.004
Mof_C 	C 	0.115	0.3473	0.4627	0.595
Mof_C 	C 	0.1745	0.358	0.4375	-0.867
Mof_C 	C 	0.0794	0.3746	0.3838	-0.861
Mof_C 	C 	0.1052	0.2855	0.4618	-0.868
Mof_H 	H 	0.1982	0.3373	0.4818	0.255
Mof_H 	H 	0.1815	0.3464	0.3704	0.254
Mof_H 	H 	0.1823	0.3972	0.4439	0.26
Mof_H 	H 	0.0855	0.4142	0.3845	0.265
Mof_H 	H 	0.0894	0.3599	0.3198	0.258
Mof_H 	H 	0.0407	0.3669	0.3967	0.269
Mof_H 	H 	0.1183	0.2702	0.4002	0.259
Mof_H 	H 	0.1251	0.2686	0.5159	0.257
Mof_H 	H 	0.066	0.2781	0.4688	0.264
Mof_N 	N 	0.0828	0.7984	0.755	-0.167
Mof_N 	N 	0.1108	0.6544	0.4839	-0.102
Mof_C 	C 	0.0615	0.7129	0.4076	0.049
Mof_C 	C 	0.1435	0.63	0.5622	-0.002
Mof_C 	C 	0.1055	0.6358	0.3914	0.046
Mof_C 	C 	0.0749	0.6727	0.3401	-0.142
Mof_H 	H 	0.0399	0.7443	0.3936	-0.016
Mof_C 	C 	0.1338	0.5702	0.5735	-0.146
Mof_H 	H 	0.1346	0.6486	0.6243	0.006
Mof_H 	H 	0.1828	0.6363	0.5486	0.001
Mof_H 	H 	0.1206	0.6028	0.3665	-0.011
Mof_H 	H 	0.065	0.6711	0.2734	0.046
Mof_S 	S 	0.06878	0.55261	0.63169	0.009
Mof_H 	H 	0.164	0.5544	0.6124	0.06
Mof_H 	H 	0.1349	0.5529	0.5084	0.06
Mof_C 	C 	0.0888	0.5672	0.753	-0.009
Mof_C 	C 	0.1266	0.5347	0.802	-0.01
Mof_C 	C 	0.0681	0.6127	0.8014	-0.008
Mof_S 	S 	0.16107	0.4775	0.75231	-0.094
Mof_C 	C 	0.1459	0.5499	0.8941	0.017
Mof_C 	C 	0.0875	0.6282	0.893	0.013
Mof_C 	C 	0.129	0.5981	0.9398	-0.203
Mof_H 	H 	0.1713	0.5267	0.9265	-0.003
Mof_H 	H 	0.0725	0.6596	0.9241	0.004
Mof_C 	C 	0.1527	0.615	0.0373	0.595
Mof_C 	C 	0.142	0.6745	0.0625	-0.867
Mof_C 	C 	0.1254	0.5794	0.1162	-0.861
Mof_C 	C 	0.2145	0.6052	0.0382	-0.868
Mof_H 	H 	0.1627	0.6982	0.0182	0.255
Mof_H 	H 	0.1536	0.6815	0.1296	0.254
Mof_H 	H 	0.1028	0.6823	0.0561	0.26
Mof_H 	H 	0.0858	0.5855	0.1155	0.265
Mof_H 	H 	0.1401	0.5894	0.1802	0.258
Mof_H 	H 	0.1331	0.5407	0.1033	0.269
Mof_H 	H 	0.2298	0.6183	0.0998	0.259
Mof_H 	H 	0.2314	0.6251	0.9841	0.257
Mof_H 	H 	0.2219	0.566	0.0312	0.264
Mof_N 	N 	0.5828	0.2984	0.255	-0.167
Mof_N 	N 	0.6108	0.1544	0.9839	-0.102
Mof_C 	C 	0.5615	0.2129	0.9076	0.049
Mof_C 	C 	0.6435	0.13	0.0622	-0.002
Mof_C 	C 	0.6055	0.1358	0.8914	0.046
Mof_C 	C 	0.5749	0.1727	0.8401	-0.142
Mof_H 	H 	0.5399	0.2443	0.8936	-0.016
Mof_C 	C 	0.6338	0.0702	0.0735	-0.146
Mof_H 	H 	0.6346	0.1486	0.1243	0.006
Mof_H 	H 	0.6828	0.1363	0.0486	0.001
Mof_H 	H 	0.6206	0.1028	0.8665	-0.011
Mof_H 	H 	0.565	0.1711	0.7734	0.046
Mof_S 	S 	0.56878	0.05261	0.13169	0.009
Mof_H 	H 	0.664	0.0544	0.1124	0.06
Mof_H 	H 	0.6349	0.0529	0.0084	0.06
Mof_C 	C 	0.5888	0.0672	0.253	-0.009
Mof_C 	C 	0.6266	0.0347	0.302	-0.01
Mof_C 	C 	0.5681	0.1127	0.3014	-0.008
Mof_S 	S 	0.66107	0.9775	0.25231	-0.094
Mof_C 	C 	0.6459	0.0499	0.3941	0.017
Mof_C 	C 	0.5875	0.1282	0.393	0.013
Mof_C 	C 	0.629	0.0981	0.4398	-0.203
Mof_H 	H 	0.6713	0.0267	0.4265	-0.003
Mof_H 	H 	0.5725	0.1596	0.4241	0.004
Mof_C 	C 	0.6527	0.115	0.5373	0.595
Mof_C 	C 	0.642	0.1745	0.5625	-0.867
Mof_C 	C 	0.6254	0.0794	0.6162	-0.861
Mof_C 	C 	0.7145	0.1052	0.5382	-0.868
Mof_H 	H 	0.6627	0.1982	0.5182	0.255
Mof_H 	H 	0.6536	0.1815	0.6296	0.254
Mof_H 	H 	0.6028	0.1823	0.5561	0.26
Mof_H 	H 	0.5858	0.0855	0.6155	0.265
Mof_H 	H 	0.6401	0.0894	0.6802	0.258
Mof_H 	H 	0.6331	0.0407	0.6033	0.269
Mof_H 	H 	0.7298	0.1183	0.5998	0.259
Mof_H 	H 	0.7314	0.1251	0.4841	0.257
Mof_H 	H 	0.7219	0.066	0.5312	0.264
Mof_N 	N 	0.9172	0.2016	0.755	-0.167
Mof_N 	N 	0.8892	0.3456	0.4839	-0.102
Mof_C 	C 	0.9385	0.2871	0.4076	0.049
Mof_C 	C 	0.8565	0.37	0.5622	-0.002
Mof_C 	C 	0.8945	0.3642	0.3914	0.046
Mof_C 	C 	0.9251	0.3273	0.3401	-0.142
Mof_H 	H 	0.9601	0.2557	0.3936	-0.016
Mof_C 	C 	0.8662	0.4298	0.5735	-0.146
Mof_H 	H 	0.8654	0.3514	0.6243	0.006
Mof_H 	H 	0.8172	0.3637	0.5486	0.001
Mof_H 	H 	0.8794	0.3972	0.3665	-0.011
Mof_H 	H 	0.935	0.3289	0.2734	0.046
Mof_S 	S 	0.93122	0.44739	0.63169	0.009
Mof_H 	H 	0.836	0.4456	0.6124	0.06
Mof_H 	H 	0.8651	0.4471	0.5084	0.06
Mof_C 	C 	0.9112	0.4328	0.753	-0.009
Mof_C 	C 	0.8734	0.4653	0.802	-0.01
Mof_C 	C 	0.9319	0.3873	0.8014	-0.008
Mof_S 	S 	0.83893	0.5225	0.75231	-0.094
Mof_C 	C 	0.8541	0.4501	0.8941	0.017
Mof_C 	C 	0.9125	0.3718	0.893	0.013
Mof_C 	C 	0.871	0.4019	0.9398	-0.203
Mof_H 	H 	0.8287	0.4733	0.9265	-0.003
Mof_H 	H 	0.9275	0.3404	0.9241	0.004
Mof_C 	C 	0.8473	0.385	0.0373	0.595
Mof_C 	C 	0.858	0.3255	0.0625	-0.867
Mof_C 	C 	0.8746	0.4206	0.1162	-0.861
Mof_C 	C 	0.7855	0.3948	0.0382	-0.868
Mof_H 	H 	0.8373	0.3018	0.0182	0.255
Mof_H 	H 	0.8464	0.3185	0.1296	0.254
Mof_H 	H 	0.8972	0.3177	0.0561	0.26
Mof_H 	H 	0.9142	0.4145	0.1155	0.265
Mof_H 	H 	0.8599	0.4106	0.1802	0.258
Mof_H 	H 	0.8669	0.4593	0.1033	0.269
Mof_H 	H 	0.7702	0.3817	0.0998	0.259
Mof_H 	H 	0.7686	0.3749	0.9841	0.257
Mof_H 	H 	0.7781	0.434	0.0312	0.264
Mof_N 	N 	0.4172	0.7016	0.255	-0.167
Mof_N 	N 	0.3892	0.8456	0.9839	-0.102
Mof_C 	C 	0.4385	0.7871	0.9076	0.049
Mof_C 	C 	0.3565	0.87	0.0622	-0.002
Mof_C 	C 	0.3945	0.8642	0.8914	0.046
Mof_C 	C 	0.4251	0.8273	0.8401	-0.142
Mof_H 	H 	0.4601	0.7557	0.8936	-0.016
Mof_C 	C 	0.3662	0.9298	0.0735	-0.146
Mof_H 	H 	0.3654	0.8514	0.1243	0.006
Mof_H 	H 	0.3172	0.8637	0.0486	0.001
Mof_H 	H 	0.3794	0.8972	0.8665	-0.011
Mof_H 	H 	0.435	0.8289	0.7734	0.046
Mof_S 	S 	0.43122	0.94739	0.13169	0.009
Mof_H 	H 	0.336	0.9456	0.1124	0.06
Mof_H 	H 	0.3651	0.9471	0.0084	0.06
Mof_C 	C 	0.4112	0.9328	0.253	-0.009
Mof_C 	C 	0.3734	0.9653	0.302	-0.01
Mof_C 	C 	0.4319	0.8873	0.3014	-0.008
Mof_S 	S 	0.33893	0.0225	0.25231	-0.094
Mof_C 	C 	0.3541	0.9501	0.3941	0.017
Mof_C 	C 	0.4125	0.8718	0.393	0.013
Mof_C 	C 	0.371	0.9019	0.4398	-0.203
Mof_H 	H 	0.3287	0.9733	0.4265	-0.003
Mof_H 	H 	0.4275	0.8404	0.4241	0.004
Mof_C 	C 	0.3473	0.885	0.5373	0.595
Mof_C 	C 	0.358	0.8255	0.5625	-0.867
Mof_C 	C 	0.3746	0.9206	0.6162	-0.861
Mof_C 	C 	0.2855	0.8948	0.5382	-0.868
Mof_H 	H 	0.3373	0.8018	0.5182	0.255
Mof_H 	H 	0.3464	0.8185	0.6296	0.254
Mof_H 	H 	0.3972	0.8177	0.5561	0.26
Mof_H 	H 	0.4142	0.9145	0.6155	0.265
Mof_H 	H 	0.3599	0.9106	0.6802	0.258
Mof_H 	H 	0.3669	0.9593	0.6033	0.269
Mof_H 	H 	0.2702	0.8817	0.5998	0.259
Mof_H 	H 	0.2686	0.8749	0.4841	0.257
Mof_H 	H 	0.2781	0.934	0.5312	0.264
Mof_N 	N 	0.2984	0.0828	0.505	-0.167
Mof_N 	N 	0.1544	0.1108	0.2339	-0.102
Mof_C 	C 	0.2129	0.0615	0.1576	0.049
Mof_C 	C 	0.13	0.1435	0.3122	-0.002
Mof_C 	C 	0.1358	0.1055	0.1414	0.046
Mof_C 	C 	0.1727	0.0749	0.0901	-0.142
Mof_H 	H 	0.2443	0.0399	0.1436	-0.016
Mof_C 	C 	0.0702	0.1338	0.3235	-0.146
Mof_H 	H 	0.1486	0.1346	0.3743	0.006
Mof_H 	H 	0.1363	0.1828	0.2986	0.001
Mof_H 	H 	0.1028	0.1206	0.1165	-0.011
Mof_H 	H 	0.1711	0.065	0.0234	0.046
Mof_S 	S 	0.05261	0.06878	0.38169	0.009
Mof_H 	H 	0.0544	0.164	0.3624	0.06
Mof_H 	H 	0.0529	0.1349	0.2584	0.06
Mof_C 	C 	0.0672	0.0888	0.503	-0.009
Mof_C 	C 	0.0347	0.1266	0.552	-0.01
Mof_C 	C 	0.1127	0.0681	0.5514	-0.008
Mof_S 	S 	0.9775	0.16107	0.50231	-0.094
Mof_C 	C 	0.0499	0.1459	0.6441	0.017
Mof_C 	C 	0.1282	0.0875	0.643	0.013
Mof_C 	C 	0.0981	0.129	0.6898	-0.203
Mof_H 	H 	0.0267	0.1713	0.6765	-0.003
Mof_H 	H 	0.1596	0.0725	0.6741	0.004
Mof_C 	C 	0.115	0.1527	0.7873	0.595
Mof_C 	C 	0.1745	0.142	0.8125	-0.867
Mof_C 	C 	0.0794	0.1254	0.8662	-0.861
Mof_C 	C 	0.1052	0.2145	0.7882	-0.868
Mof_H 	H 	0.1982	0.1627	0.7682	0.255
Mof_H 	H 	0.1815	0.1536	0.8796	0.254
Mof_H 	H 	0.1823	0.1028	0.8061	0.26
Mof_H 	H 	0.0855	0.0858	0.8655	0.265
Mof_H 	H 	0.0894	0.1401	0.9302	0.258
Mof_H 	H 	0.0407	0.1331	0.8533	0.269
Mof_H 	H 	0.1183	0.2298	0.8498	0.259
Mof_H 	H 	0.1251	0.2314	0.7341	0.257
Mof_H 	H 	0.066	0.2219	0.7812	0.264
Mof_N 	N 	0.7984	0.5828	0.005	-0.167
Mof_N 	N 	0.6544	0.6108	0.7339	-0.102
Mof_C 	C 	0.7129	0.5615	0.6576	0.049
Mof_C 	C 	0.63	0.6435	0.8122	-0.002
Mof_C 	C 	0.6358	0.6055	0.6414	0.046
Mof_C 	C 	0.6727	0.5749	0.5901	-0.142
Mof_H 	H 	0.7443	0.5399	0.6436	-0.016
Mof_C 	C 	0.5702	0.6338	0.8235	-0.146
Mof_H 	H 	0.6486	0.6346	0.8743	0.006
Mof_H 	H 	0.6363	0.6828	0.7986	0.001
Mof_H 	H 	0.6028	0.6206	0.6165	-0.011
Mof_H 	H 	0.6711	0.565	0.5234	0.046
Mof_S 	S 	0.55261	0.56878	0.88169	0.009
Mof_H 	H 	0.5544	0.664	0.8624	0.06
Mof_H 	H 	0.5529	0.6349	0.7584	0.06
Mof_C 	C 	0.5672	0.5888	0.003	-0.009
Mof_C 	C 	0.5347	0.6266	0.052	-0.01
Mof_C 	C 	0.6127	0.5681	0.0514	-0.008
Mof_S 	S 	0.4775	0.66107	0.00231	-0.094
Mof_C 	C 	0.5499	0.6459	0.1441	0.017
Mof_C 	C 	0.6282	0.5875	0.143	0.013
Mof_C 	C 	0.5981	0.629	0.1898	-0.203
Mof_H 	H 	0.5267	0.6713	0.1765	-0.003
Mof_H 	H 	0.6596	0.5725	0.1741	0.004
Mof_C 	C 	0.615	0.6527	0.2873	0.595
Mof_C 	C 	0.6745	0.642	0.3125	-0.867
Mof_C 	C 	0.5794	0.6254	0.3662	-0.861
Mof_C 	C 	0.6052	0.7145	0.2882	-0.868
Mof_H 	H 	0.6982	0.6627	0.2682	0.255
Mof_H 	H 	0.6815	0.6536	0.3796	0.254
Mof_H 	H 	0.6823	0.6028	0.3061	0.26
Mof_H 	H 	0.5855	0.5858	0.3655	0.265
Mof_H 	H 	0.5894	0.6401	0.4302	0.258
Mof_H 	H 	0.5407	0.6331	0.3533	0.269
Mof_H 	H 	0.6183	0.7298	0.3498	0.259
Mof_H 	H 	0.6251	0.7314	0.2341	0.257
Mof_H 	H 	0.566	0.7219	0.2812	0.264
Mof_N 	N 	0.7016	0.9172	0.505	-0.167
Mof_N 	N 	0.8456	0.8892	0.2339	-0.102
Mof_C 	C 	0.7871	0.9385	0.1576	0.049
Mof_C 	C 	0.87	0.8565	0.3122	-0.002
Mof_C 	C 	0.8642	0.8945	0.1414	0.046
Mof_C 	C 	0.8273	0.9251	0.0901	-0.142
Mof_H 	H 	0.7557	0.9601	0.1436	-0.016
Mof_C 	C 	0.9298	0.8662	0.3235	-0.146
Mof_H 	H 	0.8514	0.8654	0.3743	0.006
Mof_H 	H 	0.8637	0.8172	0.2986	0.001
Mof_H 	H 	0.8972	0.8794	0.1165	-0.011
Mof_H 	H 	0.8289	0.935	0.0234	0.046
Mof_S 	S 	0.94739	0.93122	0.38169	0.009
Mof_H 	H 	0.9456	0.836	0.3624	0.06
Mof_H 	H 	0.9471	0.8651	0.2584	0.06
Mof_C 	C 	0.9328	0.9112	0.503	-0.009
Mof_C 	C 	0.9653	0.8734	0.552	-0.01
Mof_C 	C 	0.8873	0.9319	0.5514	-0.008
Mof_S 	S 	0.0225	0.83893	0.50231	-0.094
Mof_C 	C 	0.9501	0.8541	0.6441	0.017
Mof_C 	C 	0.8718	0.9125	0.643	0.013
Mof_C 	C 	0.9019	0.871	0.6898	-0.203
Mof_H 	H 	0.9733	0.8287	0.6765	-0.003
Mof_H 	H 	0.8404	0.9275	0.6741	0.004
Mof_C 	C 	0.885	0.8473	0.7873	0.595
Mof_C 	C 	0.8255	0.858	0.8125	-0.867
Mof_C 	C 	0.9206	0.8746	0.8662	-0.861
Mof_C 	C 	0.8948	0.7855	0.7882	-0.868
Mof_H 	H 	0.8018	0.8373	0.7682	0.255
Mof_H 	H 	0.8185	0.8464	0.8796	0.254
Mof_H 	H 	0.8177	0.8972	0.8061	0.26
Mof_H 	H 	0.9145	0.9142	0.8655	0.265
Mof_H 	H 	0.9106	0.8599	0.9302	0.258
Mof_H 	H 	0.9593	0.8669	0.8533	0.269
Mof_H 	H 	0.8817	0.7702	0.8498	0.259
Mof_H 	H 	0.8749	0.7686	0.7341	0.257
Mof_H 	H 	0.934	0.7781	0.7812	0.264
Mof_N 	N 	0.2016	0.4172	0.005	-0.167
Mof_N 	N 	0.3456	0.3892	0.7339	-0.102
Mof_C 	C 	0.2871	0.4385	0.6576	0.049
Mof_C 	C 	0.37	0.3565	0.8122	-0.002
Mof_C 	C 	0.3642	0.3945	0.6414	0.046
Mof_C 	C 	0.3273	0.4251	0.5901	-0.142
Mof_H 	H 	0.2557	0.4601	0.6436	-0.016
Mof_C 	C 	0.4298	0.3662	0.8235	-0.146
Mof_H 	H 	0.3514	0.3654	0.8743	0.006
Mof_H 	H 	0.3637	0.3172	0.7986	0.001
Mof_H 	H 	0.3972	0.3794	0.6165	-0.011
Mof_H 	H 	0.3289	0.435	0.5234	0.046
Mof_S 	S 	0.44739	0.43122	0.88169	0.009
Mof_H 	H 	0.4456	0.336	0.8624	0.06
Mof_H 	H 	0.4471	0.3651	0.7584	0.06
Mof_C 	C 	0.4328	0.4112	0.003	-0.009
Mof_C 	C 	0.4653	0.3734	0.052	-0.01
Mof_C 	C 	0.3873	0.4319	0.0514	-0.008
Mof_S 	S 	0.5225	0.33893	0.00231	-0.094
Mof_C 	C 	0.4501	0.3541	0.1441	0.017
Mof_C 	C 	0.3718	0.4125	0.143	0.013
Mof_C 	C 	0.4019	0.371	0.1898	-0.203
Mof_H 	H 	0.4733	0.3287	0.1765	-0.003
Mof_H 	H 	0.3404	0.4275	0.1741	0.004
Mof_C 	C 	0.385	0.3473	0.2873	0.595
Mof_C 	C 	0.3255	0.358	0.3125	-0.867
Mof_C 	C 	0.4206	0.3746	0.3662	-0.861
Mof_C 	C 	0.3948	0.2855	0.2882	-0.868
Mof_H 	H 	0.3018	0.3373	0.2682	0.255
Mof_H 	H 	0.3185	0.3464	0.3796	0.254
Mof_H 	H 	0.3177	0.3972	0.3061	0.26
Mof_H 	H 	0.4145	0.4142	0.3655	0.265
Mof_H 	H 	0.4106	0.3599	0.4302	0.258
Mof_H 	H 	0.4593	0.3669	0.3533	0.269
Mof_H 	H 	0.3817	0.2702	0.3498	0.259
Mof_H 	H 	0.3749	0.2686	0.2341	0.257
Mof_H 	H 	0.434	0.2781	0.2812	0.264
Mof_N 	N 	0.4172	0.7984	0.995	-0.167
Mof_N 	N 	0.3892	0.6544	0.2661	-0.102
Mof_C 	C 	0.4385	0.7129	0.3424	0.049
Mof_C 	C 	0.3565	0.63	0.1878	-0.002
Mof_C 	C 	0.3945	0.6358	0.3586	0.046
Mof_C 	C 	0.4251	0.6727	0.4099	-0.142
Mof_H 	H 	0.4601	0.7443	0.3564	-0.016
Mof_C 	C 	0.3662	0.5702	0.1765	-0.146
Mof_H 	H 	0.3654	0.6486	0.1257	0.006
Mof_H 	H 	0.3172	0.6363	0.2014	0.001
Mof_H 	H 	0.3794	0.6028	0.3835	-0.011
Mof_H 	H 	0.435	0.6711	0.4766	0.046
Mof_S 	S 	0.43122	0.55261	0.11831	0.009
Mof_H 	H 	0.336	0.5544	0.1376	0.06
Mof_H 	H 	0.3651	0.5529	0.2416	0.06
Mof_C 	C 	0.4112	0.5672	0.997	-0.009
Mof_C 	C 	0.3734	0.5347	0.948	-0.01
Mof_C 	C 	0.4319	0.6127	0.9486	-0.008
Mof_S 	S 	0.33893	0.4775	0.99769	-0.094
Mof_C 	C 	0.3541	0.5499	0.8559	0.017
Mof_C 	C 	0.4125	0.6282	0.857	0.013
Mof_C 	C 	0.371	0.5981	0.8102	-0.203
Mof_H 	H 	0.3287	0.5267	0.8235	-0.003
Mof_H 	H 	0.4275	0.6596	0.8259	0.004
Mof_C 	C 	0.3473	0.615	0.7127	0.595
Mof_C 	C 	0.358	0.6745	0.6875	-0.867
Mof_C 	C 	0.3746	0.5794	0.6338	-0.861
Mof_C 	C 	0.2855	0.6052	0.7118	-0.868
Mof_H 	H 	0.3373	0.6982	0.7318	0.255
Mof_H 	H 	0.3464	0.6815	0.6204	0.254
Mof_H 	H 	0.3972	0.6823	0.6939	0.26
Mof_H 	H 	0.4142	0.5855	0.6345	0.265
Mof_H 	H 	0.3599	0.5894	0.5698	0.258
Mof_H 	H 	0.3669	0.5407	0.6467	0.269
Mof_H 	H 	0.2702	0.6183	0.6502	0.259
Mof_H 	H 	0.2686	0.6251	0.7659	0.257
Mof_H 	H 	0.2781	0.566	0.7188	0.264
Mof_N 	N 	0.9172	0.2984	0.495	-0.167
Mof_N 	N 	0.8892	0.1544	0.7661	-0.102
Mof_C 	C 	0.9385	0.2129	0.8424	0.049
Mof_C 	C 	0.8565	0.13	0.6878	-0.002
Mof_C 	C 	0.8945	0.1358	0.8586	0.046
Mof_C 	C 	0.9251	0.1727	0.9099	-0.142
Mof_H 	H 	0.9601	0.2443	0.8564	-0.016
Mof_C 	C 	0.8662	0.0702	0.6765	-0.146
Mof_H 	H 	0.8654	0.1486	0.6257	0.006
Mof_H 	H 	0.8172	0.1363	0.7014	0.001
Mof_H 	H 	0.8794	0.1028	0.8835	-0.011
Mof_H 	H 	0.935	0.1711	0.9766	0.046
Mof_S 	S 	0.93122	0.05261	0.61831	0.009
Mof_H 	H 	0.836	0.0544	0.6376	0.06
Mof_H 	H 	0.8651	0.0529	0.7416	0.06
Mof_C 	C 	0.9112	0.0672	0.497	-0.009
Mof_C 	C 	0.8734	0.0347	0.448	-0.01
Mof_C 	C 	0.9319	0.1127	0.4486	-0.008
Mof_S 	S 	0.83893	0.9775	0.49769	-0.094
Mof_C 	C 	0.8541	0.0499	0.3559	0.017
Mof_C 	C 	0.9125	0.1282	0.357	0.013
Mof_C 	C 	0.871	0.0981	0.3102	-0.203
Mof_H 	H 	0.8287	0.0267	0.3235	-0.003
Mof_H 	H 	0.9275	0.1596	0.3259	0.004
Mof_C 	C 	0.8473	0.115	0.2127	0.595
Mof_C 	C 	0.858	0.1745	0.1875	-0.867
Mof_C 	C 	0.8746	0.0794	0.1338	-0.861
Mof_C 	C 	0.7855	0.1052	0.2118	-0.868
Mof_H 	H 	0.8373	0.1982	0.2318	0.255
Mof_H 	H 	0.8464	0.1815	0.1204	0.254
Mof_H 	H 	0.8972	0.1823	0.1939	0.26
Mof_H 	H 	0.9142	0.0855	0.1345	0.265
Mof_H 	H 	0.8599	0.0894	0.0698	0.258
Mof_H 	H 	0.8669	0.0407	0.1467	0.269
Mof_H 	H 	0.7702	0.1183	0.1502	0.259
Mof_H 	H 	0.7686	0.1251	0.2659	0.257
Mof_H 	H 	0.7781	0.066	0.2188	0.264
Mof_N 	N 	0.5828	0.2016	0.995	-0.167
Mof_N 	N 	0.6108	0.3456	0.2661	-0.102
Mof_C 	C 	0.5615	0.2871	0.3424	0.049
Mof_C 	C 	0.6435	0.37	0.1878	-0.002
Mof_C 	C 	0.6055	0.3642	0.3586	0.046
Mof_C 	C 	0.5749	0.3273	0.4099	-0.142
Mof_H 	H 	0.5399	0.2557	0.3564	-0.016
Mof_C 	C 	0.6338	0.4298	0.1765	-0.146
Mof_H 	H 	0.6346	0.3514	0.1257	0.006
Mof_H 	H 	0.6828	0.3637	0.2014	0.001
Mof_H 	H 	0.6206	0.3972	0.3835	-0.011
Mof_H 	H 	0.565	0.3289	0.4766	0.046
Mof_S 	S 	0.56878	0.44739	0.11831	0.009
Mof_H 	H 	0.664	0.4456	0.1376	0.06
Mof_H 	H 	0.6349	0.4471	0.2416	0.06
Mof_C 	C 	0.5888	0.4328	0.997	-0.009
Mof_C 	C 	0.6266	0.4653	0.948	-0.01
Mof_C 	C 	0.5681	0.3873	0.9486	-0.008
Mof_S 	S 	0.66107	0.5225	0.99769	-0.094
Mof_C 	C 	0.6459	0.4501	0.8559	0.017
Mof_C 	C 	0.5875	0.3718	0.857	0.013
Mof_C 	C 	0.629	0.4019	0.8102	-0.203
Mof_H 	H 	0.6713	0.4733	0.8235	-0.003
Mof_H 	H 	0.5725	0.3404	0.8259	0.004
Mof_C 	C 	0.6527	0.385	0.7127	0.595
Mof_C 	C 	0.642	0.3255	0.6875	-0.867
Mof_C 	C 	0.6254	0.4206	0.6338	-0.861
Mof_C 	C 	0.7145	0.3948	0.7118	-0.868
Mof_H 	H 	0.6627	0.3018	0.7318	0.255
Mof_H 	H 	0.6536	0.3185	0.6204	0.254
Mof_H 	H 	0.6028	0.3177	0.6939	0.26
Mof_H 	H 	0.5858	0.4145	0.6345	0.265
Mof_H 	H 	0.6401	0.4106	0.5698	0.258
Mof_H 	H 	0.6331	0.4593	0.6467	0.269
Mof_H 	H 	0.7298	0.3817	0.6502	0.259
Mof_H 	H 	0.7314	0.3749	0.7659	0.257
Mof_H 	H 	0.7219	0.434	0.7188	0.264
Mof_N 	N 	0.0828	0.7016	0.495	-0.167
Mof_N 	N 	0.1108	0.8456	0.7661	-0.102
Mof_C 	C 	0.0615	0.7871	0.8424	0.049
Mof_C 	C 	0.1435	0.87	0.6878	-0.002
Mof_C 	C 	0.1055	0.8642	0.8586	0.046
Mof_C 	C 	0.0749	0.8273	0.9099	-0.142
Mof_H 	H 	0.0399	0.7557	0.8564	-0.016
Mof_C 	C 	0.1338	0.9298	0.6765	-0.146
Mof_H 	H 	0.1346	0.8514	0.6257	0.006
Mof_H 	H 	0.1828	0.8637	0.7014	0.001
Mof_H 	H 	0.1206	0.8972	0.8835	-0.011
Mof_H 	H 	0.065	0.8289	0.9766	0.046
Mof_S 	S 	0.06878	0.94739	0.61831	0.009
Mof_H 	H 	0.164	0.9456	0.6376	0.06
Mof_H 	H 	0.1349	0.9471	0.7416	0.06
Mof_C 	C 	0.0888	0.9328	0.497	-0.009
Mof_C 	C 	0.1266	0.9653	0.448	-0.01
Mof_C 	C 	0.0681	0.8873	0.4486	-0.008
Mof_S 	S 	0.16107	0.0225	0.49769	-0.094
Mof_C 	C 	0.1459	0.9501	0.3559	0.017
Mof_C 	C 	0.0875	0.8718	0.357	0.013
Mof_C 	C 	0.129	0.9019	0.3102	-0.203
Mof_H 	H 	0.1713	0.9733	0.3235	-0.003
Mof_H 	H 	0.0725	0.8404	0.3259	0.004
Mof_C 	C 	0.1527	0.885	0.2127	0.595
Mof_C 	C 	0.142	0.8255	0.1875	-0.867
Mof_C 	C 	0.1254	0.9206	0.1338	-0.861
Mof_C 	C 	0.2145	0.8948	0.2118	-0.868
Mof_H 	H 	0.1627	0.8018	0.2318	0.255
Mof_H 	H 	0.1536	0.8185	0.1204	0.254
Mof_H 	H 	0.1028	0.8177	0.1939	0.26
Mof_H 	H 	0.0858	0.9145	0.1345	0.265
Mof_H 	H 	0.1401	0.9106	0.0698	0.258
Mof_H 	H 	0.1331	0.9593	0.1467	0.269
Mof_H 	H 	0.2298	0.8817	0.1502	0.259
Mof_H 	H 	0.2314	0.8749	0.2659	0.257
Mof_H 	H 	0.2219	0.934	0.2188	0.264
Mof_Ag	Ag	0.25	0.07813	0.375	0.532
Mof_Ag	Ag	0.75	0.57813	0.875	0.532
Mof_Ag	Ag	0.75	0.92187	0.375	0.532
Mof_Ag	Ag	0.25	0.42187	0.875	0.532
Mof_Ag	Ag	0.07813	0.75	0.625	0.532
Mof_Ag	Ag	0.92187	0.25	0.625	0.532
Mof_Ag	Ag	0.42187	0.75	0.125	0.532
Mof_Ag	Ag	0.57813	0.25	0.125	0.532
_end
