data_functionalizedCrystal
_audit_creation_method	'EQeq! by Chris Wilmer'
_symmetry_space_group_name_H-M	'P1'
_symmetry_Int_Tables_number	1
_symmetry_cell_setting	triclinic
loop_
_symmetry_equiv_pos_as_xyz
  x,y,z
_cell_length_a	6.159
_cell_length_b	12.2614
_cell_length_c	22.796
_cell_angle_alpha	90
_cell_angle_beta	90
_cell_angle_gamma	89.7776
loop_
_atom_site_label
_atom_site_type_symbol
_atom_site_fract_x
_atom_site_fract_y
_atom_site_fract_z
_atom_site_charge
Mof_Ce	Ce	0.04256	0.94354	0.35174	2.137
Mof_Ce	Ce	0.95744	0.05646	0.64826	2.039
Mof_Ce	Ce	0.54256	0.44354	0.14826	2.088
Mof_Ce	Ce	0.45744	0.55646	0.85174	2.145
Mof_Cu	Cu	-0	0	-0	0.883
Mof_Cu	Cu	0.5	0.5	0.5	0.923
Mof_H 	H 	0.9334	0.7468	0.8413	0.007
Mof_H 	H 	0.4334	0.2468	0.6587	-0.005
Mof_H 	H 	0.0666	0.2532	0.1587	-0.028
Mof_H 	H 	0.4304	0.6062	0.2862	0.021
Mof_H 	H 	0.046	0.5792	0.6763	0.061
Mof_H 	H 	0.546	0.0792	0.8237	0.061
Mof_H 	H 	0.5666	0.7532	0.3413	0.001
Mof_H 	H 	0.454	0.9208	0.1763	0.06
Mof_H 	H 	0.9304	0.1062	0.2138	0.07
Mof_H 	H 	0.1669	0.8954	0.1181	0.024
Mof_H 	H 	0.8331	0.1046	0.8819	0.049
Mof_H 	H 	0.0696	0.8938	0.7862	0.011
Mof_H 	H 	0.6669	0.3954	0.3819	0.04
Mof_H 	H 	0.3331	0.6046	0.6181	0.038
Mof_H 	H 	0.5696	0.3938	0.7138	0.025
Mof_H 	H 	0.954	0.4208	0.3237	0.059
Mof_C 	C 	0.433	0.967	0.1443	0.023
Mof_C 	C 	0.8517	0.7763	0.8108	0.029
Mof_C 	C 	0.1718	0.3502	0.4931	0.282
Mof_C 	C 	0.478	0.953	0.6883	0.432
Mof_C 	C 	0.2189	0.6951	0.4229	0.419
Mof_C 	C 	0.8435	0.2205	0.7642	0.368
Mof_C 	C 	0.8751	0.5899	0.4521	0.011
Mof_C 	C 	0.8282	0.6498	0.5069	0.269
Mof_C 	C 	0.022	0.547	0.1883	0.354
Mof_C 	C 	0.9543	0.3907	0.5859	-0.034
Mof_C 	C 	0.5457	0.1093	0.0859	-0.051
Mof_C 	C 	0.7663	0.4497	0.3914	0.023
Mof_C 	C 	0.3858	0.1182	0.2719	-0.079
Mof_C 	C 	0.9312	0.8678	0.7782	0.059
Mof_C 	C 	0.1142	0.3818	0.7719	-0.082
Mof_C 	C 	0.2811	0.8049	0.9229	0.42
Mof_C 	C 	0.2337	0.5503	0.6086	0.031
Mof_C 	C 	0.9537	0.7163	0.2561	0.018
Mof_C 	C 	0.2663	0.9497	0.1086	0.053
Mof_C 	C 	0.5688	0.6322	0.2782	0.028
Mof_C 	C 	0.3435	0.7205	0.7358	0.367
Mof_C 	C 	0.6249	0.9101	0.9521	0.022
Mof_C 	C 	0.0463	0.2837	0.7439	-0.014
Mof_C 	C 	0.522	0.047	0.3117	0.44
Mof_C 	C 	0.0688	0.1322	0.2218	-0.056
Mof_C 	C 	0.6718	0.8502	0.0069	0.241
Mof_C 	C 	0.4543	0.8907	0.9141	-0.057
Mof_C 	C 	0.6483	0.7237	0.3108	0.04
Mof_C 	C 	0.3517	0.2763	0.6892	0.035
Mof_C 	C 	0.3751	0.0899	0.0479	-0.068
Mof_C 	C 	0.5463	0.7837	0.7561	-0.013
Mof_C 	C 	0.3282	0.1498	0.9931	0.313
Mof_C 	C 	0.978	0.453	0.8117	0.465
Mof_C 	C 	0.7811	0.3049	0.5771	0.406
Mof_C 	C 	0.0457	0.6093	0.4141	-0.09
Mof_C 	C 	0.7337	0.0503	0.8914	-0.001
Mof_C 	C 	0.4537	0.2163	0.2439	-0.006
Mof_C 	C 	0.7189	0.1951	0.0771	0.404
Mof_C 	C 	0.1565	0.7795	0.2358	0.332
Mof_C 	C 	0.567	0.033	0.8557	-0.029
Mof_C 	C 	0.067	0.533	0.6443	-0.014
Mof_C 	C 	0.1483	0.2237	0.1892	0.067
Mof_C 	C 	0.6142	0.8818	0.7281	-0.057
Mof_C 	C 	0.8858	0.6182	0.2281	-0.028
Mof_C 	C 	0.4312	0.3678	0.7218	0.026
Mof_C 	C 	0.6565	0.2795	0.2642	0.36
Mof_C 	C 	0.1249	0.4101	0.5479	-0.043
Mof_C 	C 	0.933	0.467	0.3557	0.03
Mof_N 	N 	0.816	0.916	0.7377	-0.181
Mof_N 	N 	0.316	0.416	0.7623	-0.187
Mof_N 	N 	0.3384	0.2656	0.2029	-0.216
Mof_N 	N 	0.0783	0.5517	0.365	-0.106
Mof_N 	N 	0.7347	0.5073	0.4403	-0.188
Mof_N 	N 	0.1616	0.2344	0.7029	-0.208
Mof_N 	N 	0.6616	0.7344	0.7971	-0.205
Mof_N 	N 	0.184	0.084	0.2623	-0.184
Mof_N 	N 	0.8384	0.7656	0.2971	-0.2
Mof_N 	N 	0.2653	0.4927	0.5597	-0.185
Mof_N 	N 	0.5783	0.0517	0.135	-0.108
Mof_N 	N 	0.2347	0.0073	0.0597	-0.209
Mof_N 	N 	0.7653	0.9927	0.9403	-0.15
Mof_N 	N 	0.684	0.584	0.2377	-0.192
Mof_N 	N 	0.4217	0.9483	0.865	-0.071
Mof_N 	N 	0.9217	0.4483	0.635	-0.087
Mof_O 	O 	0.8027	0.2153	0.6035	-0.551
Mof_O 	O 	0.9306	0.7354	0.5186	-0.281
Mof_O 	O 	0.1263	0.8307	0.9562	-0.346
Mof_O 	O 	0.7199	0.3511	0.2306	-0.481
Mof_O 	O 	0.3737	0.6693	0.4562	-0.358
Mof_O 	O 	0.5694	0.7646	0.0186	-0.304
Mof_O 	O 	0.7386	0.2534	0.312	-0.296
Mof_O 	O 	0.3211	0.3909	0.4595	-0.357
Mof_O 	O 	0.1973	0.7847	0.3965	-0.565
Mof_O 	O 	0.2199	0.8511	0.2694	-0.483
Mof_O 	O 	0.6263	0.3307	0.5438	-0.354
Mof_O 	O 	0.0694	0.2646	0.4814	-0.315
Mof_O 	O 	0.8211	0.8909	0.0405	-0.323
Mof_O 	O 	0.6973	0.2847	0.1035	-0.555
Mof_O 	O 	0.4306	0.2354	0.9814	-0.299
Mof_O 	O 	0.0743	0.4907	0.8552	-0.588
Mof_O 	O 	0.7885	0.4775	0.7977	-0.521
Mof_O 	O 	0.3027	0.7153	0.8965	-0.563
Mof_O 	O 	0.8737	0.1693	0.0438	-0.358
Mof_O 	O 	0.5743	0.9907	0.6448	-0.54
Mof_O 	O 	0.2801	0.6489	0.7694	-0.498
Mof_O 	O 	0.2614	0.7466	0.688	-0.304
Mof_O 	O 	0.1789	0.1091	0.9595	-0.361
Mof_O 	O 	0.2386	0.7534	0.188	-0.301
Mof_O 	O 	0.9257	0.5093	0.1448	-0.524
Mof_O 	O 	0.7614	0.2466	0.812	-0.303
Mof_O 	O 	0.6789	0.6091	0.5405	-0.347
Mof_O 	O 	0.7801	0.1489	0.7306	-0.495
Mof_O 	O 	0.4257	0.0093	0.3552	-0.591
Mof_O 	O 	0.2115	0.5225	0.2023	-0.5
Mof_O 	O 	0.7115	0.0225	0.2977	-0.522
Mof_O 	O 	0.2885	0.9775	0.7023	-0.493
_end
