data_functionalizedCrystal
_audit_creation_method	'EQeq! by Chris Wilmer'
_symmetry_space_group_name_H-M	'P1'
_symmetry_Int_Tables_number	1
_symmetry_cell_setting	triclinic
loop_
_symmetry_equiv_pos_as_xyz
  x,y,z
_cell_length_a	17.4866
_cell_length_b	17.4866
_cell_length_c	17.4866
_cell_angle_alpha	96.522
_cell_angle_beta	116.309
_cell_angle_gamma	116.309
loop_
_atom_site_label
_atom_site_type_symbol
_atom_site_fract_x
_atom_site_fract_y
_atom_site_fract_z
_atom_site_charge
Mof_Zn	Zn	0.50798	0.95729	0.99815	1.248
Mof_Zn	Zn	0.49202	0.49017	0.44931	1.539
Mof_Zn	Zn	0.95914	0.00185	0.50983	1.367
Mof_Zn	Zn	0.04086	0.55069	0.04271	1.147
Mof_Zn	Zn	0.45914	0.25983	0.25185	1.295
Mof_Zn	Zn	0.54086	0.79271	0.80069	1.53
Mof_Zn	Zn	0.99202	0.19931	0.74017	1.254
Mof_Zn	Zn	0.00798	0.74815	0.20729	1.261
Mof_Zn	Zn	0.8753	0.5003	0.125	1.242
Mof_Zn	Zn	0.1247	0.2497	0.625	1.179
Mof_Zn	Zn	0.3753	0.875	0.7503	1.159
Mof_Zn	Zn	0.6247	0.375	0.4997	1.178
Mof_P 	P 	0.61439	0.99743	0.89398	0.239
Mof_P 	P 	0.38561	0.27959	0.38304	0.384
Mof_P 	P 	0.10345	0.10602	0.72041	0.535
Mof_P 	P 	0.89655	0.61696	0.00257	0.221
Mof_P 	P 	0.60345	0.47041	0.35602	0.314
Mof_P 	P 	0.39655	0.75257	0.86696	0.495
Mof_P 	P 	0.88561	0.13304	0.52959	0.533
Mof_P 	P 	0.11439	0.64398	0.24743	0.292
Mof_H 	H 	0.7245	0.1943	0.9942	0.216
Mof_H 	H 	0.9297	0.312	0.9285	0.354
Mof_H 	H 	0.7404	0.0359	0.8243	-0.496
Mof_H 	H 	0.2755	0.2697	0.4698	0.208
Mof_H 	H 	0.0703	0.9988	0.3823	0.909
Mof_H 	H 	0.2596	0.0839	0.2955	0.143
Mof_H 	H 	0.2001	0.0058	0.7303	0.523
Mof_H 	H 	0.3835	0.0715	0.0012	0.67
Mof_H 	H 	0.2116	0.1757	0.9161	0.417
Mof_H 	H 	0.7999	0.5302	0.8057	0.408
Mof_H 	H 	0.6165	0.6177	0.688	3.123
Mof_H 	H 	0.7884	0.7045	0.9641	0.117
Mof_H 	H 	0.7001	0.4803	0.2558	0.162
Mof_H 	H 	0.8835	0.7512	0.3215	1.528
Mof_H 	H 	0.7116	0.6661	0.4257	-0.557
Mof_H 	H 	0.2999	0.5557	0.7802	0.237
Mof_H 	H 	0.1165	0.438	0.8677	0.314
Mof_H 	H 	0.2884	0.7141	0.9545	0.053
Mof_H 	H 	0.7755	0.2198	0.5197	0.352
Mof_H 	H 	0.5703	0.1323	0.2488	0.666
Mof_H 	H 	0.7596	0.0455	0.3339	0.054
Mof_H 	H 	0.2245	0.7442	0.4443	0.383
Mof_H 	H 	0.4297	0.6785	0.562	3.143
Mof_H 	H 	0.2404	0.5743	0.2859	0.377
Mof_C 	C 	0.7186	0.1001	0.9095	0.281
Mof_C 	C 	0.7539	0.1883	0.9628	-0.019
Mof_C 	C 	0.8321	0.2672	0.9701	0.027
Mof_C 	C 	0.8768	0.2591	0.9231	-0.266
Mof_C 	C 	0.8429	0.1733	0.8686	-0.132
Mof_C 	C 	0.7636	0.0939	0.8615	0.143
Mof_C 	C 	0.6633	0.5065	0.6366	-1.113
Mof_C 	C 	0.8869	0.1619	0.816	0.475
Mof_C 	C 	0.2814	0.1909	0.3815	0.135
Mof_C 	C 	0.2461	0.2089	0.4344	-0.486
Mof_C 	C 	0.1679	0.138	0.4351	-0.062
Mof_C 	C 	0.1232	0.0463	0.3823	-1.39
Mof_C 	C 	0.1571	0.0257	0.3304	0.335
Mof_C 	C 	0.2364	0.0979	0.3303	-0.758
Mof_C 	C 	0.3367	0.9733	0.8432	-0.219
Mof_C 	C 	0.1131	0.9291	0.275	-1.053
Mof_C 	C 	0.1906	0.0905	0.8091	1.052
Mof_C 	C 	0.2255	0.0372	0.7911	-0.387
Mof_C 	C 	0.2971	0.0299	0.862	0.572
Mof_C 	C 	0.336	0.0769	0.9537	-0.919
Mof_C 	C 	0.3047	0.1314	0.9743	0.474
Mof_C 	C 	0.2324	0.1385	0.9021	-0.376
Mof_C 	C 	0.8699	0.3634	0.0267	0.232
Mof_C 	C 	0.3459	0.184	0.0709	-0.29
Mof_C 	C 	0.8094	0.6185	0.8999	0.512
Mof_C 	C 	0.7745	0.5656	0.8117	-1.358
Mof_C 	C 	0.7029	0.5649	0.7328	0.629
Mof_C 	C 	0.664	0.6177	0.7409	-4.541
Mof_C 	C 	0.6953	0.6696	0.8267	0.791
Mof_C 	C 	0.7676	0.6697	0.9061	-1.648
Mof_C 	C 	0.1301	0.1568	0.4935	-0.205
Mof_C 	C 	0.6541	0.725	0.8381	-1.948
Mof_C 	C 	0.6906	0.5591	0.3405	-0.077
Mof_C 	C 	0.7255	0.5411	0.2872	-0.488
Mof_C 	C 	0.7971	0.612	0.2799	0.134
Mof_C 	C 	0.836	0.7037	0.3269	-1.993
Mof_C 	C 	0.8047	0.7243	0.3814	0.082
Mof_C 	C 	0.7324	0.6521	0.3885	-0.496
Mof_C 	C 	0.3699	0.7767	0.6134	-1.134
Mof_C 	C 	0.8459	0.8209	0.434	-0.46
Mof_C 	C 	0.3094	0.6499	0.8685	0.346
Mof_C 	C 	0.2745	0.5617	0.8156	-0.059
Mof_C 	C 	0.2029	0.4828	0.8149	-0.002
Mof_C 	C 	0.164	0.4909	0.8677	-0.348
Mof_C 	C 	0.1953	0.5767	0.9196	-0.065
Mof_C 	C 	0.2676	0.6561	0.9197	-0.039
Mof_C 	C 	0.6301	0.2435	0.4068	0.14
Mof_C 	C 	0.1541	0.5881	0.975	0.313
Mof_C 	C 	0.7814	0.1315	0.4409	0.798
Mof_C 	C 	0.7461	0.1844	0.4589	-0.118
Mof_C 	C 	0.6679	0.1851	0.388	0.157
Mof_C 	C 	0.6232	0.1323	0.2963	-0.783
Mof_C 	C 	0.6571	0.0804	0.2757	0.131
Mof_C 	C 	0.7364	0.0803	0.3479	-0.083
Mof_C 	C 	0.8367	0.5932	0.2233	-0.292
Mof_C 	C 	0.6131	0.025	0.1791	0.206
Mof_C 	C 	0.2186	0.6595	0.3501	0.553
Mof_C 	C 	0.2539	0.7128	0.4383	-1.413
Mof_C 	C 	0.3321	0.7201	0.5172	0.641
Mof_C 	C 	0.3768	0.6731	0.5091	-4.623
Mof_C 	C 	0.3429	0.6186	0.4233	0.867
Mof_C 	C 	0.2636	0.6115	0.3439	-1.775
Mof_C 	C 	0.1633	0.3866	0.7565	0.277
Mof_C 	C 	0.3869	0.566	0.4119	-2.116
Mof_O 	O 	0.834	0.5384	0.0212	-0.58
Mof_O 	O 	0.6203	0.0173	0.9832	0.309
Mof_O 	O 	0.9551	0.7103	0.0788	-0.158
Mof_O 	O 	0.6042	0.5144	0.572	-0.055
Mof_O 	O 	0.695	0.4555	0.6303	-0.402
Mof_O 	O 	0.9526	0.2364	0.8182	0.221
Mof_O 	O 	0.687	0.775	0.9134	0.121
Mof_O 	O 	0.166	0.1872	0.7044	-0.59
Mof_O 	O 	0.3797	0.3629	0.397	-0.361
Mof_O 	O 	0.0449	0.1237	0.7552	0.452
Mof_O 	O 	0.3958	0.9678	0.9102	-0.414
Mof_O 	O 	0.305	0.9353	0.7605	-0.478
Mof_O 	O 	0.0474	0.8656	0.2838	2.086
Mof_O 	O 	0.313	0.2264	0.088	-0.151
Mof_O 	O 	0.5172	0.9788	0.8128	-0.898
Mof_O 	O 	0.0341	0.0168	0.6371	0.717
Mof_O 	O 	0.6315	0.9212	0.8763	0.09
Mof_O 	O 	0.9424	0.428	0.0322	-0.37
Mof_O 	O 	0.8252	0.3697	0.0647	-0.419
Mof_O 	O 	0.4182	0.1818	0.1344	0.745
Mof_O 	O 	0.8616	0.0866	0.7736	-0.253
Mof_O 	O 	0.4828	0.2956	0.4616	-0.477
Mof_O 	O 	0.9659	0.603	0.9827	-0.141
Mof_O 	O 	0.3685	0.2448	0.2897	-0.391
Mof_O 	O 	0.0576	0.0898	0.4856	-0.303
Mof_O 	O 	0.1748	0.2395	0.5445	-0.442
Mof_O 	O 	0.5818	0.7162	0.7636	5.202
Mof_O 	O 	0.1384	0.912	0.225	-0.283
Mof_O 	O 	0.0172	0.5628	0.2288	-0.61
Mof_O 	O 	0.5341	0.3871	0.2668	-0.375
Mof_O 	O 	0.1315	0.6263	0.1712	-0.452
Mof_O 	O 	0.4424	0.7822	0.678	-0.068
Mof_O 	O 	0.3252	0.8147	0.6197	-0.461
Mof_O 	O 	0.9182	0.8844	0.4318	2.404
Mof_O 	O 	0.3616	0.5236	0.3366	0.08
Mof_O 	O 	0.9828	0.2116	0.5456	-0.69
Mof_O 	O 	0.4659	0.7327	0.853	0.127
Mof_O 	O 	0.8685	0.0397	0.4948	0.515
Mof_O 	O 	0.5576	0.2356	0.3398	-0.414
Mof_O 	O 	0.6748	0.2945	0.4895	-0.428
Mof_O 	O 	0.0818	0.5136	0.9662	0.029
Mof_O 	O 	0.6384	0.975	0.162	-0.327
Mof_O 	O 	0.666	0.4544	0.4372	-0.781
Mof_O 	O 	0.8797	0.147	0.6129	0.693
Mof_O 	O 	0.5449	0.5052	0.3737	-0.325
Mof_O 	O 	0.8958	0.6602	0.2178	-0.183
Mof_O 	O 	0.805	0.5105	0.1853	-0.412
Mof_O 	O 	0.5474	0.0338	0.1156	0.761
Mof_O 	O 	0.813	0.838	0.4764	-0.18
Mof_O 	O 	0.334	0.7712	0.7884	-0.598
Mof_O 	O 	0.1203	0.7332	0.2673	-0.388
Mof_O 	O 	0.4551	0.8288	0.9603	0.001
Mof_O 	O 	0.1042	0.322	0.7644	-0.518
Mof_O 	O 	0.195	0.3803	0.7055	-0.431
Mof_O 	O 	0.4526	0.5682	0.4864	5.159
Mof_O 	O 	0.187	0.6634	0.025	-0.503
Mof_H 	H 	0.2923	0.868	0.2575	-18.493
Mof_H 	H 	0.3074	0.8094	0.1984	-18.183
Mof_H 	H 	0.4186	0.9289	0.2175	27.915
Mof_H 	H 	0.3856	0.9845	0.2559	27.507
Mof_H 	H 	0.3569	0.0248	0.1471	-30.259
Mof_H 	H 	0.1658	0.8324	0.1606	2.132
Mof_H 	H 	0.1105	0.7848	0.9925	-18.442
Mof_H 	H 	0.111	0.859	0.0516	-18.358
Mof_H 	H 	0.2114	0.9511	0.0325	27.757
Mof_H 	H 	0.2286	0.8797	0.9941	27.643
Mof_H 	H 	0.3777	0.9598	0.1029	-30.486
Mof_H 	H 	0.1718	0.7552	0.0894	2.155
Mof_C 	C 	0.2875	0.8531	0.1998	59.132
Mof_C 	C 	0.3611	0.9338	0.2035	-91.127
Mof_C 	C 	0.1533	0.8377	0.0502	59.051
Mof_C 	C 	0.2303	0.9076	0.0465	-91.242
Mof_C 	C 	0.3361	0.9611	0.125	98.426
Mof_N 	N 	0.1793	0.8043	0.125	-17.358
Mof_H 	H 	0.7077	0.9652	0.5757	-89.207
Mof_H 	H 	0.6926	0.891	0.502	-87.994
Mof_H 	H 	0.5814	0.7989	0.5103	135.458
Mof_H 	H 	0.6144	0.8703	0.5989	134.294
Mof_H 	H 	0.6431	0.7902	0.6679	-149.413
Mof_H 	H 	0.8342	0.9948	0.6666	10.35
Mof_H 	H 	0.8895	0.882	0.6743	-89.138
Mof_H 	H 	0.889	0.9406	0.748	-87.867
Mof_H 	H 	0.7886	0.8211	0.7397	135.547
Mof_H 	H 	0.7714	0.7655	0.6511	134.31
Mof_H 	H 	0.6223	0.7252	0.5821	-149.452
Mof_H 	H 	0.8282	0.9176	0.5834	10.336
Mof_C 	C 	0.7125	0.9123	0.5656	287.841
Mof_C 	C 	0.6389	0.8424	0.5727	-444.403
Mof_C 	C 	0.8467	0.8969	0.6844	287.776
Mof_C 	C 	0.7697	0.8162	0.6773	-444.4
Mof_C 	C 	0.6639	0.7889	0.625	482.704
Mof_N 	N 	0.8207	0.9457	0.625	-83.616
Mof_H 	H 	0.6105	0.7425	0.0348	-43.029
Mof_H 	H 	0.611	0.8016	0.109	-42.362
Mof_H 	H 	0.7114	0.7825	0.2011	65.529
Mof_H 	H 	0.7286	0.7441	0.1297	64.846
Mof_H 	H 	0.8777	0.8529	0.2098	-72.022
Mof_H 	H 	0.6718	0.8394	0.0052	4.992
Mof_H 	H 	0.7923	0.0075	0.118	-42.943
Mof_H 	H 	0.8074	0.9484	0.0594	-42.479
Mof_H 	H 	0.9186	0.9675	0.1789	65.447
Mof_H 	H 	0.8856	0.0059	0.2345	64.913
Mof_H 	H 	0.8569	0.8971	0.2748	-71.979
Mof_H 	H 	0.6658	0.9106	0.0824	5.042
Mof_C 	C 	0.6533	0.8002	0.0877	138.882
Mof_C 	C 	0.7303	0.7965	0.1576	-214.538
Mof_C 	C 	0.7875	0.9498	0.1031	138.821
Mof_C 	C 	0.8611	0.9535	0.1838	-214.529
Mof_C 	C 	0.8361	0.875	0.2111	232.884
Mof_N 	N 	0.6793	0.875	0.0543	-40.457
Mof_H 	H 	0.3895	0.4243	0.132	-8.651
Mof_H 	H 	0.389	0.498	0.1906	-8.609
Mof_H 	H 	0.2886	0.4897	0.0711	13.05
Mof_H 	H 	0.2714	0.4011	0.0155	12.929
Mof_H 	H 	0.1223	0.3321	0.9752	-14.069
Mof_H 	H 	0.3282	0.3334	0.1676	1.101
Mof_H 	H 	0.2077	0.3257	0.2152	-8.624
Mof_H 	H 	0.1926	0.252	0.141	-8.441
Mof_H 	H 	0.0814	0.2603	0.0489	13.151
Mof_H 	H 	0.1144	0.3489	0.1203	12.905
Mof_H 	H 	0.1431	0.4179	0.0402	-14.283
Mof_H 	H 	0.3342	0.4166	0.2448	1.056
Mof_C 	C 	0.3467	0.4344	0.1469	27.731
Mof_C 	C 	0.2697	0.4273	0.0662	-42.74
Mof_C 	C 	0.2125	0.3156	0.1623	27.654
Mof_C 	C 	0.1389	0.3227	0.0924	-42.722
Mof_C 	C 	0.1639	0.375	0.0389	46.014
Mof_N 	N 	0.3207	0.375	0.1957	-8.253
_end
