data_functionalizedCrystal
_audit_creation_method	'EQeq! by Chris Wilmer'
_symmetry_space_group_name_H-M	'P1'
_symmetry_Int_Tables_number	1
_symmetry_cell_setting	triclinic
loop_
_symmetry_equiv_pos_as_xyz
  x,y,z
_cell_length_a	18.1399
_cell_length_b	21.9042
_cell_length_c	21.9042
_cell_angle_alpha	80.1274
_cell_angle_beta	65.539
_cell_angle_gamma	65.5389
loop_
_atom_site_label
_atom_site_type_symbol
_atom_site_fract_x
_atom_site_fract_y
_atom_site_fract_z
_atom_site_charge
Mof_Cu	Cu	0.88719	0.72381	0.27619	0.904
Mof_Cu	Cu	0.99508	0.78621	0.21379	0.906
Mof_Cu	Cu	0.88719	0.27619	0.72381	0.904
Mof_Cu	Cu	0.99508	0.21379	0.78621	0.906
Mof_H 	H 	0.8557	0.6813	0.1063	0.038
Mof_H 	H 	0.8626	0.6556	0.0058	0.07
Mof_H 	H 	0.0461	0.7341	0.9073	0.068
Mof_H 	H 	0.0373	0.7584	0.0092	0.038
Mof_H 	H 	0.9643	0.7648	0.8352	0.067
Mof_H 	H 	0.9541	0.646	0.721	0.068
Mof_H 	H 	0.9423	0.5885	0.9061	0.07
Mof_H 	H 	0.0105	0.4865	0.8597	0.061
Mof_H 	H 	0.0196	0.3852	0.8344	0.021
Mof_H 	H 	0.8737	0.478	0.7284	0.028
Mof_H 	H 	0.8746	0.5779	0.7457	0.071
Mof_H 	H 	0.6433	0.3187	0.8937	0.035
Mof_H 	H 	0.524	0.3444	0.9942	0.068
Mof_H 	H 	0.6875	0.2659	0.0927	0.069
Mof_H 	H 	0.8049	0.2416	0.9908	0.036
Mof_H 	H 	0.5643	0.2352	0.1648	0.065
Mof_H 	H 	0.3211	0.354	0.279	0.066
Mof_H 	H 	0.4369	0.4115	0.0939	0.068
Mof_H 	H 	0.3567	0.5135	0.1403	0.07
Mof_H 	H 	0.2392	0.6148	0.1656	0.031
Mof_H 	H 	0.0801	0.522	0.2716	0.026
Mof_H 	H 	0.1982	0.4221	0.2543	0.07
Mof_H 	H 	0.6433	0.8937	0.3187	0.035
Mof_H 	H 	0.524	0.9942	0.3444	0.068
Mof_H 	H 	0.6875	0.0927	0.2659	0.069
Mof_H 	H 	0.8049	0.9908	0.2416	0.036
Mof_H 	H 	0.5643	0.1648	0.2352	0.065
Mof_H 	H 	0.3211	0.279	0.354	0.066
Mof_H 	H 	0.4369	0.0939	0.4115	0.068
Mof_H 	H 	0.3567	0.1403	0.5135	0.07
Mof_H 	H 	0.2392	0.1656	0.6148	0.031
Mof_H 	H 	0.0801	0.2716	0.522	0.026
Mof_H 	H 	0.1982	0.2543	0.4221	0.07
Mof_H 	H 	0.8557	0.1063	0.6813	0.037
Mof_H 	H 	0.8626	0.0058	0.6556	0.069
Mof_H 	H 	0.0461	0.9073	0.7341	0.068
Mof_H 	H 	0.0373	0.0092	0.7584	0.038
Mof_H 	H 	0.9643	0.8352	0.7648	0.067
Mof_H 	H 	0.9541	0.721	0.646	0.068
Mof_H 	H 	0.9423	0.9061	0.5885	0.07
Mof_H 	H 	0.0105	0.8597	0.4865	0.061
Mof_H 	H 	0.0196	0.8344	0.3852	0.021
Mof_H 	H 	0.8737	0.7284	0.478	0.028
Mof_H 	H 	0.8746	0.7457	0.5779	0.071
Mof_C 	C 	0.94444	0.73641	0.13351	0.346
Mof_C 	C 	0.94741	0.72119	0.06739	-0.087
Mof_C 	C 	0.89423	0.69151	0.06623	0.03
Mof_C 	C 	0.89783	0.67664	0.0059	-0.104
Mof_C 	C 	0.95321	0.69281	0.94577	0.047
Mof_C 	C 	0.00745	0.72345	0.94705	-0.108
Mof_C 	C 	0.00245	0.73746	0.00824	0.02
Mof_C 	C 	0.95763	0.67789	0.87905	0.044
Mof_C 	C 	0.96099	0.72541	0.82841	-0.104
Mof_C 	C 	0.95952	0.71613	0.76763	0.042
Mof_C 	C 	0.95462	0.6544	0.76096	-0.106
Mof_C 	C 	0.9506	0.60733	0.81027	0.046
Mof_C 	C 	0.94895	0.61899	0.87111	-0.112
Mof_C 	C 	0.94562	0.54276	0.802	0.05
Mof_C 	C 	0.9852	0.48507	0.83093	-0.106
Mof_C 	C 	0.9876	0.42449	0.81771	0.063
Mof_C 	C 	0.94521	0.42071	0.78147	-0.12
Mof_C 	C 	0.90302	0.479	0.75416	0.052
Mof_C 	C 	0.9036	0.53892	0.76468	-0.118
Mof_C 	C 	0.94387	0.35411	0.77195	0.369
Mof_C 	C 	0.81436	0.26359	0.86649	0.349
Mof_C 	C 	0.73599	0.27881	0.93261	-0.1
Mof_C 	C 	0.65197	0.30849	0.93377	0.034
Mof_C 	C 	0.58037	0.32336	0.9941	-0.104
Mof_C 	C 	0.59179	0.30719	0.05423	0.039
Mof_C 	C 	0.67795	0.27655	0.05295	-0.104
Mof_C 	C 	0.74815	0.26254	0.99176	0.035
Mof_C 	C 	0.51457	0.32211	0.12095	0.043
Mof_C 	C 	0.51481	0.27459	0.17159	-0.104
Mof_C 	C 	0.44328	0.28387	0.23237	0.041
Mof_C 	C 	0.36998	0.3456	0.23904	-0.106
Mof_C 	C 	0.3682	0.39267	0.18973	0.042
Mof_C 	C 	0.43905	0.38101	0.12889	-0.112
Mof_C 	C 	0.29038	0.45724	0.198	0.053
Mof_C 	C 	0.3012	0.51493	0.16907	-0.116
Mof_C 	C 	0.2298	0.57551	0.18229	0.05
Mof_C 	C 	0.14739	0.57929	0.21853	-0.115
Mof_C 	C 	0.13618	0.521	0.24584	0.048
Mof_C 	C 	0.2072	0.46108	0.23532	-0.119
Mof_C 	C 	0.06993	0.64589	0.22805	0.357
Mof_C 	C 	0.81436	0.86649	0.26359	0.349
Mof_C 	C 	0.73599	0.93261	0.27881	-0.1
Mof_C 	C 	0.65197	0.93377	0.30849	0.034
Mof_C 	C 	0.58037	0.9941	0.32336	-0.104
Mof_C 	C 	0.59179	0.05423	0.30719	0.039
Mof_C 	C 	0.67795	0.05295	0.27655	-0.104
Mof_C 	C 	0.74815	0.99176	0.26254	0.035
Mof_C 	C 	0.51457	0.12095	0.32211	0.043
Mof_C 	C 	0.51481	0.17159	0.27459	-0.104
Mof_C 	C 	0.44328	0.23237	0.28387	0.041
Mof_C 	C 	0.36998	0.23904	0.3456	-0.106
Mof_C 	C 	0.3682	0.18973	0.39267	0.042
Mof_C 	C 	0.43905	0.12889	0.38101	-0.112
Mof_C 	C 	0.29038	0.198	0.45724	0.053
Mof_C 	C 	0.3012	0.16907	0.51493	-0.116
Mof_C 	C 	0.2298	0.18229	0.57551	0.05
Mof_C 	C 	0.14739	0.21853	0.57929	-0.115
Mof_C 	C 	0.13618	0.24584	0.521	0.048
Mof_C 	C 	0.2072	0.23532	0.46108	-0.119
Mof_C 	C 	0.06993	0.22805	0.64589	0.357
Mof_C 	C 	0.94444	0.13351	0.73641	0.346
Mof_C 	C 	0.94741	0.06739	0.72119	-0.087
Mof_C 	C 	0.89423	0.06623	0.69151	0.03
Mof_C 	C 	0.89783	0.0059	0.67664	-0.104
Mof_C 	C 	0.95321	0.94577	0.69281	0.047
Mof_C 	C 	0.00745	0.94705	0.72345	-0.108
Mof_C 	C 	0.00245	0.00824	0.73746	0.02
Mof_C 	C 	0.95763	0.87905	0.67789	0.044
Mof_C 	C 	0.96099	0.82841	0.72541	-0.104
Mof_C 	C 	0.95952	0.76763	0.71613	0.042
Mof_C 	C 	0.95462	0.76096	0.6544	-0.106
Mof_C 	C 	0.9506	0.81027	0.60733	0.046
Mof_C 	C 	0.94895	0.87111	0.61899	-0.112
Mof_C 	C 	0.94562	0.802	0.54276	0.05
Mof_C 	C 	0.9852	0.83093	0.48507	-0.106
Mof_C 	C 	0.9876	0.81771	0.42449	0.063
Mof_C 	C 	0.94521	0.78147	0.42071	-0.12
Mof_C 	C 	0.90302	0.75416	0.479	0.052
Mof_C 	C 	0.9036	0.76468	0.53892	-0.118
Mof_C 	C 	0.94387	0.77195	0.35411	0.369
Mof_O 	O 	0.9882	0.76829	0.13189	-0.403
Mof_O 	O 	0.89452	0.71521	0.18597	-0.398
Mof_O 	O 	0.98767	0.30314	0.7955	-0.415
Mof_O 	O 	0.89788	0.35622	0.7404	-0.409
Mof_O 	O 	0.88838	0.23171	0.86811	-0.406
Mof_O 	O 	0.7957	0.28479	0.81403	-0.399
Mof_O 	O 	0.08631	0.69686	0.2045	-0.419
Mof_O 	O 	0.9945	0.64378	0.2596	-0.4
Mof_O 	O 	0.88838	0.86811	0.23171	-0.406
Mof_O 	O 	0.7957	0.81403	0.28479	-0.399
Mof_O 	O 	0.08631	0.2045	0.69686	-0.419
Mof_O 	O 	0.9945	0.2596	0.64378	-0.4
Mof_O 	O 	0.9882	0.13189	0.76829	-0.403
Mof_O 	O 	0.89452	0.18597	0.71521	-0.398
Mof_O 	O 	0.98767	0.7955	0.30314	-0.415
Mof_O 	O 	0.89788	0.7404	0.35622	-0.409
Mof_Cu	Cu	0.83662	0.27619	0.27619	0.903
Mof_Cu	Cu	0.79113	0.21379	0.21379	0.903
Mof_Cu	Cu	0.389	0.72381	0.72381	0.903
Mof_Cu	Cu	0.21871	0.78621	0.78621	0.903
Mof_H 	H 	0.038	0.1063	0.3187	0.036
Mof_H 	H 	0.1316	0.0058	0.3444	0.067
Mof_H 	H 	0.0466	0.9073	0.2659	0.07
Mof_H 	H 	0.9535	0.0092	0.2416	0.034
Mof_H 	H 	0.2005	0.8352	0.2352	0.064
Mof_H 	H 	0.3249	0.721	0.354	0.066
Mof_H 	H 	0.1516	0.9061	0.4115	0.067
Mof_H 	H 	0.1298	0.8597	0.5135	0.07
Mof_H 	H 	0.146	0.8344	0.6148	0.028
Mof_H 	H 	0.3979	0.7284	0.522	0.027
Mof_H 	H 	0.3797	0.7457	0.4221	0.072
Mof_H 	H 	0.463	0.8937	0.6813	0.035
Mof_H 	H 	0.4818	0.9942	0.6556	0.069
Mof_H 	H 	0.2198	0.0927	0.7341	0.068
Mof_H 	H 	0.2043	0.9908	0.7584	0.035
Mof_H 	H 	0.2709	0.1648	0.7648	0.064
Mof_H 	H 	0.3999	0.279	0.646	0.066
Mof_H 	H 	0.4692	0.0939	0.5885	0.068
Mof_H 	H 	0.503	0.1403	0.4865	0.071
Mof_H 	H 	0.5952	0.1656	0.3852	0.03
Mof_H 	H 	0.6483	0.2716	0.478	0.028
Mof_H 	H 	0.5475	0.2543	0.5779	0.072
Mof_H 	H 	0.463	0.6813	0.8937	0.035
Mof_H 	H 	0.4818	0.6556	0.9942	0.069
Mof_H 	H 	0.2198	0.7341	0.0927	0.068
Mof_H 	H 	0.2043	0.7584	0.9908	0.035
Mof_H 	H 	0.2709	0.7648	0.1648	0.064
Mof_H 	H 	0.3999	0.646	0.279	0.066
Mof_H 	H 	0.4692	0.5885	0.0939	0.068
Mof_H 	H 	0.503	0.4865	0.1403	0.071
Mof_H 	H 	0.5952	0.3852	0.1656	0.03
Mof_H 	H 	0.6483	0.478	0.2716	0.028
Mof_H 	H 	0.5475	0.5779	0.2543	0.072
Mof_H 	H 	0.038	0.3187	0.1063	0.036
Mof_H 	H 	0.1316	0.3444	0.0058	0.067
Mof_H 	H 	0.0466	0.2659	0.9073	0.07
Mof_H 	H 	0.9535	0.2416	0.0092	0.034
Mof_H 	H 	0.2005	0.2352	0.8352	0.064
Mof_H 	H 	0.3249	0.354	0.721	0.066
Mof_H 	H 	0.1516	0.4115	0.9061	0.067
Mof_H 	H 	0.1298	0.5135	0.8597	0.07
Mof_H 	H 	0.146	0.6148	0.8344	0.028
Mof_H 	H 	0.3979	0.522	0.7284	0.027
Mof_H 	H 	0.3797	0.4221	0.7457	0.072
Mof_C 	C 	0.92205	0.13351	0.26359	0.347
Mof_C 	C 	0.9852	0.06739	0.27881	-0.092
Mof_C 	C 	0.03954	0.06623	0.30849	0.022
Mof_C 	C 	0.09627	0.0059	0.32336	-0.105
Mof_C 	C 	0.10102	0.94577	0.30719	0.043
Mof_C 	C 	0.0455	0.94705	0.27655	-0.116
Mof_C 	C 	0.98931	0.00824	0.26254	0.044
Mof_C 	C 	0.16332	0.87905	0.32211	0.04
Mof_C 	C 	0.2106	0.82841	0.27459	-0.103
Mof_C 	C 	0.27285	0.76763	0.28387	0.039
Mof_C 	C 	0.28442	0.76096	0.3456	-0.105
Mof_C 	C 	0.23913	0.81027	0.39267	0.04
Mof_C 	C 	0.17994	0.87111	0.38101	-0.11
Mof_C 	C 	0.25238	0.802	0.45724	0.055
Mof_C 	C 	0.18387	0.83093	0.51493	-0.12
Mof_C 	C 	0.19469	0.81771	0.57551	0.053
Mof_C 	C 	0.27332	0.78147	0.57929	-0.119
Mof_C 	C 	0.34282	0.75416	0.521	0.052
Mof_C 	C 	0.33172	0.76468	0.46108	-0.122
Mof_C 	C 	0.28418	0.77195	0.64589	0.368
Mof_C 	C 	0.31915	0.86649	0.73641	0.349
Mof_C 	C 	0.3314	0.93261	0.72119	-0.101
Mof_C 	C 	0.41426	0.93377	0.69151	0.034
Mof_C 	C 	0.42553	0.9941	0.67664	-0.104
Mof_C 	C 	0.35398	0.05423	0.69281	0.04
Mof_C 	C 	0.2691	0.05295	0.72345	-0.106
Mof_C 	C 	0.26009	0.99176	0.73746	0.036
Mof_C 	C 	0.36448	0.12095	0.67789	0.042
Mof_C 	C 	0.3136	0.17159	0.72541	-0.104
Mof_C 	C 	0.32435	0.23237	0.71613	0.041
Mof_C 	C 	0.39098	0.23904	0.6544	-0.105
Mof_C 	C 	0.44207	0.18973	0.60733	0.042
Mof_C 	C 	0.43206	0.12889	0.61899	-0.112
Mof_C 	C 	0.51162	0.198	0.54276	0.054
Mof_C 	C 	0.52973	0.16907	0.48507	-0.118
Mof_C 	C 	0.58791	0.18229	0.42449	0.053
Mof_C 	C 	0.63408	0.21853	0.42071	-0.118
Mof_C 	C 	0.61798	0.24584	0.479	0.052
Mof_C 	C 	0.55748	0.23532	0.53892	-0.121
Mof_C 	C 	0.70202	0.22805	0.35411	0.368
Mof_C 	C 	0.31915	0.73641	0.86649	0.349
Mof_C 	C 	0.3314	0.72119	0.93261	-0.101
Mof_C 	C 	0.41426	0.69151	0.93377	0.034
Mof_C 	C 	0.42553	0.67664	0.9941	-0.104
Mof_C 	C 	0.35398	0.69281	0.05423	0.04
Mof_C 	C 	0.2691	0.72345	0.05295	-0.106
Mof_C 	C 	0.26009	0.73746	0.99176	0.036
Mof_C 	C 	0.36448	0.67789	0.12095	0.042
Mof_C 	C 	0.3136	0.72541	0.17159	-0.104
Mof_C 	C 	0.32435	0.71613	0.23237	0.041
Mof_C 	C 	0.39098	0.6544	0.23904	-0.105
Mof_C 	C 	0.44207	0.60733	0.18973	0.042
Mof_C 	C 	0.43206	0.61899	0.12889	-0.112
Mof_C 	C 	0.51162	0.54276	0.198	0.054
Mof_C 	C 	0.52973	0.48507	0.16907	-0.118
Mof_C 	C 	0.58791	0.42449	0.18229	0.053
Mof_C 	C 	0.63408	0.42071	0.21853	-0.118
Mof_C 	C 	0.61798	0.479	0.24584	0.052
Mof_C 	C 	0.55748	0.53892	0.23532	-0.121
Mof_C 	C 	0.70202	0.35411	0.22805	0.368
Mof_C 	C 	0.92205	0.26359	0.13351	0.347
Mof_C 	C 	0.9852	0.27881	0.06739	-0.092
Mof_C 	C 	0.03954	0.30849	0.06623	0.022
Mof_C 	C 	0.09627	0.32336	0.0059	-0.105
Mof_C 	C 	0.10102	0.30719	0.94577	0.043
Mof_C 	C 	0.0455	0.27655	0.94705	-0.116
Mof_C 	C 	0.98931	0.26254	0.00824	0.044
Mof_C 	C 	0.16332	0.32211	0.87905	0.04
Mof_C 	C 	0.2106	0.27459	0.82841	-0.103
Mof_C 	C 	0.27285	0.28387	0.76763	0.039
Mof_C 	C 	0.28442	0.3456	0.76096	-0.105
Mof_C 	C 	0.23913	0.39267	0.81027	0.04
Mof_C 	C 	0.17994	0.38101	0.87111	-0.11
Mof_C 	C 	0.25238	0.45724	0.802	0.055
Mof_C 	C 	0.18387	0.51493	0.83093	-0.12
Mof_C 	C 	0.19469	0.57551	0.81771	0.053
Mof_C 	C 	0.27332	0.57929	0.78147	-0.119
Mof_C 	C 	0.34282	0.521	0.75416	0.052
Mof_C 	C 	0.33172	0.46108	0.76468	-0.122
Mof_C 	C 	0.28418	0.64589	0.77195	0.368
Mof_O 	O 	0.87991	0.13189	0.23171	-0.406
Mof_O 	O 	0.91951	0.18597	0.28479	-0.397
Mof_O 	O 	0.21683	0.7955	0.69686	-0.419
Mof_O 	O 	0.36172	0.7404	0.64378	-0.409
Mof_O 	O 	0.24351	0.86811	0.76829	-0.408
Mof_O 	O 	0.39027	0.81403	0.71521	-0.399
Mof_O 	O 	0.70919	0.2045	0.30314	-0.418
Mof_O 	O 	0.7459	0.2596	0.35622	-0.409
Mof_O 	O 	0.24351	0.76829	0.86811	-0.408
Mof_O 	O 	0.39027	0.71521	0.81403	-0.399
Mof_O 	O 	0.70919	0.30314	0.2045	-0.418
Mof_O 	O 	0.7459	0.35622	0.2596	-0.409
Mof_O 	O 	0.87991	0.23171	0.13189	-0.406
Mof_O 	O 	0.91951	0.28479	0.18597	-0.397
Mof_O 	O 	0.21683	0.69686	0.7955	-0.419
Mof_O 	O 	0.36172	0.64378	0.7404	-0.409
_end
