data_functionalizedCrystal
_audit_creation_method	'EQeq! by Chris Wilmer'
_symmetry_space_group_name_H-M	'P1'
_symmetry_Int_Tables_number	1
_symmetry_cell_setting	triclinic
loop_
_symmetry_equiv_pos_as_xyz
  x,y,z
_cell_length_a	9.9428
_cell_length_b	10.4394
_cell_length_c	14.5779
_cell_angle_alpha	107.05
_cell_angle_beta	109.127
_cell_angle_gamma	90.079
loop_
_atom_site_label
_atom_site_type_symbol
_atom_site_fract_x
_atom_site_fract_y
_atom_site_fract_z
_atom_site_charge
Mof_Cd	Cd	0.10428	0.29784	0.20177	0.491
Mof_O 	O 	0.8974	0.1851	0.0697	-0.263
Mof_O 	O 	0.4093	0.0402	0.7913	-0.214
Mof_O 	O 	0.8531	0.3158	0.2013	-0.228
Mof_O 	O 	0.184	0.4925	0.3378	-0.241
Mof_O 	O 	0.3348	0.2982	0.1898	-0.265
Mof_C 	C 	0.8085	0.2384	0.1141	0.283
Mof_O 	O 	0.0991	0.516	0.185	-0.248
Mof_C 	C 	0.4086	0.1968	0.0473	-0.035
Mof_C 	C 	0.5543	0.2328	0.1035	-0.031
Mof_H 	H 	0.5848	0.2759	0.1736	0.076
Mof_C 	C 	0.6092	0.1388	0.9496	-0.109
Mof_H 	H 	0.6768	0.1191	0.9174	0.097
Mof_C 	C 	0.6519	0.2037	0.0542	-0.023
Mof_O 	O 	0.1721	0.1778	0.0516	-0.3
Mof_C 	C 	0.3638	0.1339	0.9431	-0.1
Mof_H 	H 	0.2665	0.112	0.9059	0.099
Mof_O 	O 	0.086	0.971	0.1499	-0.272
Mof_C 	C 	0.1516	0.5654	0.2796	0.263
Mof_O 	O 	0.3672	0.9707	0.5747	-0.198
Mof_C 	C 	0.4625	0.1032	0.8933	0.181
Mof_C 	C 	0.1286	0.0284	0.2427	0.27
Mof_C 	C 	0.2983	0.2256	0.1005	0.306
Mof_O 	O 	0.1408	0.1509	0.2859	-0.276
Mof_C 	C 	0.1463	0.7967	0.2654	-0.078
Mof_H 	H 	0.0988	0.7586	0.1956	0.09
Mof_C 	C 	0.1908	0.7162	0.3275	0.032
Mof_C 	C 	0.2648	0.7678	0.4295	-0.156
Mof_H 	H 	0.2951	0.7108	0.469	0.113
Mof_C 	C 	0.1742	0.9373	0.3097	0.02
Mof_C 	C 	0.5111	0.9827	0.7407	0.039
Mof_H 	H 	0.5755	0.934	0.7808	0.037
Mof_H 	H 	0.5678	0.0547	0.7362	0.041
Mof_C 	C 	0.2462	0.9933	0.4142	-0.122
Mof_H 	H 	0.2619	0.0864	0.4437	0.099
Mof_C 	C 	0.2949	0.9094	0.4748	0.202
Mof_C 	C 	0.433	0.8899	0.6366	-0.011
Mof_H 	H 	0.499	0.8367	0.6092	0.054
Mof_H 	H 	0.3611	0.829	0.6387	0.063
Mof_Cd	Cd	0.89572	0.70216	0.79823	0.527
Mof_O 	O 	0.1026	0.8149	0.9303	-0.27
Mof_O 	O 	0.5907	0.9598	0.2087	-0.188
Mof_O 	O 	0.1469	0.6842	0.7987	-0.246
Mof_O 	O 	0.816	0.5075	0.6622	-0.231
Mof_O 	O 	0.6652	0.7018	0.8102	-0.256
Mof_C 	C 	0.1915	0.7616	0.8859	0.265
Mof_O 	O 	0.9009	0.484	0.815	-0.225
Mof_C 	C 	0.5914	0.8032	0.9527	0.053
Mof_C 	C 	0.4457	0.7672	0.8965	-0.094
Mof_H 	H 	0.4152	0.7241	0.8264	0.097
Mof_C 	C 	0.3908	0.8612	0.0504	-0.194
Mof_H 	H 	0.3232	0.8809	0.0826	0.121
Mof_C 	C 	0.3481	0.7963	0.9458	0.055
Mof_O 	O 	0.8279	0.8222	0.9484	-0.259
Mof_C 	C 	0.6362	0.8661	0.0569	-0.192
Mof_H 	H 	0.7335	0.888	0.0941	0.137
Mof_O 	O 	0.914	0.029	0.8501	-0.276
Mof_C 	C 	0.8484	0.4346	0.7204	0.259
Mof_O 	O 	0.6328	0.0293	0.4253	-0.224
Mof_C 	C 	0.5375	0.8968	0.1067	0.232
Mof_C 	C 	0.8714	0.9716	0.7573	0.319
Mof_C 	C 	0.7017	0.7744	0.8995	0.279
Mof_O 	O 	0.8592	0.8491	0.7141	-0.273
Mof_C 	C 	0.8537	0.2033	0.7346	-0.083
Mof_H 	H 	0.9012	0.2414	0.8044	0.106
Mof_C 	C 	0.8092	0.2838	0.6725	0.05
Mof_C 	C 	0.7352	0.2322	0.5705	-0.173
Mof_H 	H 	0.7049	0.2892	0.531	0.122
Mof_C 	C 	0.8258	0.0627	0.6903	0.022
Mof_C 	C 	0.4889	0.0173	0.2593	-0.063
Mof_H 	H 	0.4245	0.066	0.2192	0.061
Mof_H 	H 	0.4322	0.9453	0.2638	0.086
Mof_C 	C 	0.7538	0.0067	0.5858	-0.177
Mof_H 	H 	0.7381	0.9136	0.5563	0.138
Mof_C 	C 	0.7051	0.0906	0.5252	0.232
Mof_C 	C 	0.567	0.1101	0.3634	0.046
Mof_H 	H 	0.501	0.1633	0.3908	0.034
Mof_H 	H 	0.6389	0.171	0.3613	0.049
Mof_Cd	Cd	-0	0	-0	0.448
_end
