data_functionalizedCrystal
_audit_creation_method	'EQeq! by Chris Wilmer'
_symmetry_space_group_name_H-M	'P1'
_symmetry_Int_Tables_number	1
_symmetry_cell_setting	triclinic
loop_
_symmetry_equiv_pos_as_xyz
  x,y,z
_cell_length_a	9.8321
_cell_length_b	11.2539
_cell_length_c	14.4225
_cell_angle_alpha	91.193
_cell_angle_beta	90
_cell_angle_gamma	90
loop_
_atom_site_label
_atom_site_type_symbol
_atom_site_fract_x
_atom_site_fract_y
_atom_site_fract_z
_atom_site_charge
Mof_Co	Co	0.42056	0.74486	0.36693	1.197
Mof_Co	Co	0.11028	0.74021	0.3109	1.187
Mof_Co	Co	0.92056	0.75514	0.13307	1.232
Mof_Co	Co	0.61028	0.75979	0.1891	1.205
Mof_Co	Co	0.57944	0.25514	0.63307	1.19
Mof_Co	Co	0.88972	0.25979	0.6891	1.222
Mof_Co	Co	0.07944	0.24486	0.86693	1.157
Mof_Co	Co	0.38972	0.24021	0.8109	1.203
Mof_Co	Co	0.5	2.22671e-18	0.5	1.184
Mof_Co	Co	-0	0.5	-0	1.127
Mof_Co	Co	0.5	0.5	0.5	1.215
Mof_Co	Co	-0	0	-0	1.098
Mof_H 	H 	0.758	0.861	0.369	-0.081
Mof_H 	H 	0.038	0.475	0.261	-0.107
Mof_H 	H 	0.879	0.055	0.536	-0.09
Mof_H 	H 	0.212	0.509	0.491	-0.119
Mof_H 	H 	0.342	0.201	0.429	-0.142
Mof_H 	H 	0.698	0.516	0.267	-0.079
Mof_H 	H 	0.258	0.639	0.131	-0.115
Mof_H 	H 	0.538	0.025	0.239	-0.309
Mof_H 	H 	0.379	0.445	0.964	-0.126
Mof_H 	H 	0.712	0.991	0.009	-0.101
Mof_H 	H 	0.842	0.299	0.071	-0.073
Mof_H 	H 	0.198	0.984	0.233	-0.114
Mof_H 	H 	0.242	0.139	0.631	-0.125
Mof_H 	H 	0.962	0.525	0.739	-0.17
Mof_H 	H 	0.121	0.945	0.464	-0.107
Mof_H 	H 	0.788	0.491	0.509	-0.084
Mof_H 	H 	0.658	0.799	0.571	-0.101
Mof_H 	H 	0.302	0.484	0.733	-0.095
Mof_H 	H 	0.742	0.361	0.869	-0.088
Mof_H 	H 	0.462	0.975	0.761	0.032
Mof_H 	H 	0.621	0.555	0.036	-0.071
Mof_H 	H 	0.288	0.009	0.991	-0.092
Mof_H 	H 	0.158	0.701	0.929	-0.158
Mof_H 	H 	0.802	0.016	0.767	-0.058
Mof_C 	C 	0.8284	0.8308	0.3301	0.473
Mof_C 	C 	0.0135	0.517	0.212	0.378
Mof_C 	C 	0.7881	0.0758	0.5472	0.503
Mof_C 	C 	0.6286	0.5448	0.3126	0.454
Mof_C 	C 	0.3931	0.2435	0.4699	0.544
Mof_C 	C 	0.2212	0.572	0.4505	0.503
Mof_C 	C 	0.3284	0.6692	0.1699	0.483
Mof_C 	C 	0.5135	0.983	0.288	0.874
Mof_C 	C 	0.2881	0.4242	0.9528	0.673
Mof_C 	C 	0.1286	0.9552	0.1874	0.573
Mof_C 	C 	0.8931	0.2565	0.0301	0.341
Mof_C 	C 	0.7212	0.928	0.0495	0.481
Mof_C 	C 	0.1716	0.1692	0.6699	0.49
Mof_C 	C 	0.9865	0.483	0.788	0.727
Mof_C 	C 	0.2119	0.9242	0.4528	0.494
Mof_C 	C 	0.3714	0.4552	0.6874	0.462
Mof_C 	C 	0.6069	0.7565	0.5301	0.522
Mof_C 	C 	0.7788	0.428	0.5495	0.485
Mof_C 	C 	0.6716	0.3308	0.8301	0.479
Mof_C 	C 	0.4865	0.017	0.712	0.236
Mof_C 	C 	0.7119	0.5758	0.0472	0.321
Mof_C 	C 	0.8714	0.0448	0.8126	0.338
Mof_C 	C 	0.1069	0.7435	0.9699	0.702
Mof_C 	C 	0.2788	0.072	0.9505	0.494
Mof_O 	O 	0.80017	0.80867	0.24547	-0.532
Mof_O 	O 	0.9397	0.81617	0.36827	-0.361
Mof_O 	O 	0.00485	0.62874	0.21954	-0.58
Mof_O 	O 	0.9956	0.45697	0.14047	-0.324
Mof_O 	O 	0.24287	0.847	0.3915	-0.56
Mof_O 	O 	0.7089	0.01782	0.49772	-0.456
Mof_O 	O 	0.58356	0.64968	0.30478	-0.542
Mof_O 	O 	0.6043	0.47667	0.37617	-0.42
Mof_O 	O 	0.4726	0.18453	0.52343	-0.571
Mof_O 	O 	0.3847	0.35115	0.46665	-0.465
Mof_O 	O 	0.3452	0.60274	0.43994	-0.561
Mof_O 	O 	0.12208	0.61331	0.40961	-0.469
Mof_O 	O 	0.30017	0.69133	0.25453	-0.559
Mof_O 	O 	0.4397	0.68383	0.13173	-0.447
Mof_O 	O 	0.50485	0.87126	0.28046	-0.656
Mof_O 	O 	0.4956	0.04303	0.35953	-0.58
Mof_O 	O 	0.74287	0.653	0.1085	-0.508
Mof_O 	O 	0.2089	0.48218	0.00228	-0.575
Mof_O 	O 	0.08356	0.85032	0.19522	-0.611
Mof_O 	O 	0.1043	0.02333	0.12383	-0.561
Mof_O 	O 	0.9726	0.31547	0.97657	-0.387
Mof_O 	O 	0.8847	0.14885	0.03335	-0.416
Mof_O 	O 	0.8452	0.89726	0.06006	-0.518
Mof_O 	O 	0.62208	0.88669	0.09039	-0.433
Mof_O 	O 	0.19983	0.19133	0.75453	-0.585
Mof_O 	O 	0.0603	0.18383	0.63173	-0.504
Mof_O 	O 	0.99515	0.37126	0.78046	-0.575
Mof_O 	O 	0.0044	0.54303	0.85953	-0.536
Mof_O 	O 	0.75713	0.153	0.6085	-0.556
Mof_O 	O 	0.2911	0.98218	0.50228	-0.397
Mof_O 	O 	0.41644	0.35032	0.69522	-0.552
Mof_O 	O 	0.3957	0.52333	0.62383	-0.426
Mof_O 	O 	0.5274	0.81547	0.47657	-0.544
Mof_O 	O 	0.6153	0.64885	0.53335	-0.442
Mof_O 	O 	0.6548	0.39726	0.56006	-0.549
Mof_O 	O 	0.87792	0.38669	0.59039	-0.405
Mof_O 	O 	0.69983	0.30867	0.74547	-0.557
Mof_O 	O 	0.5603	0.31617	0.86827	-0.415
Mof_O 	O 	0.49515	0.12874	0.71954	-0.504
Mof_O 	O 	0.5044	0.95697	0.64047	-0.299
Mof_O 	O 	0.25713	0.347	0.8915	-0.605
Mof_O 	O 	0.7911	0.51782	0.99772	-0.262
Mof_O 	O 	0.91644	0.14968	0.80478	-0.475
Mof_O 	O 	0.8957	0.97667	0.87617	-0.251
Mof_O 	O 	0.0274	0.68453	0.02343	-0.702
Mof_O 	O 	0.1153	0.85115	0.96665	-0.445
Mof_O 	O 	0.1548	0.10274	0.93994	-0.558
Mof_O 	O 	0.37792	0.11331	0.90961	-0.438
_end
