data_functionalizedCrystal
_audit_creation_method	'EQeq! by Chris Wilmer'
_symmetry_space_group_name_H-M	'P1'
_symmetry_Int_Tables_number	1
_symmetry_cell_setting	triclinic
loop_
_symmetry_equiv_pos_as_xyz
  x,y,z
_cell_length_a	22.0656
_cell_length_b	22.0656
_cell_length_c	15.273
_cell_angle_alpha	90
_cell_angle_beta	90
_cell_angle_gamma	90
loop_
_atom_site_label
_atom_site_type_symbol
_atom_site_fract_x
_atom_site_fract_y
_atom_site_fract_z
_atom_site_charge
Mof_F 	F 	0.0738	0.988	0.2402	-0.675
Mof_F 	F 	0.0728	0.0087	0.7401	-0.837
Mof_N 	N 	0.4319	0.4342	0.0189	-0.282
Mof_C 	C 	0.4241	0.3909	0.084	0.078
Mof_H 	H 	0.4495	0.3926	0.1342	-0.031
Mof_C 	C 	0.3821	0.3467	0.0792	-0.153
Mof_H 	H 	0.3837	0.3145	0.1206	0.082
Mof_C 	C 	0.3362	0.346	0.0157	0.104
Mof_C 	C 	0.3401	0.3942	0.9552	-0.136
Mof_H 	H 	0.31	0.3978	0.911	0.09
Mof_C 	C 	0.3868	0.4365	0.9585	0.08
Mof_H 	H 	0.3872	0.4684	0.9167	-0.03
Mof_C 	C 	0.2917	0.3011	0.0107	-0.05
Mof_C 	C 	0.3084	0.2376	0.0188	-0.112
Mof_H 	H 	0.3498	0.2271	0.0273	0.078
Mof_C 	C 	0.2658	0.1928	0.0143	0.145
Mof_C 	C 	0.2055	0.2071	0.0037	-0.041
Mof_C 	C 	0.1872	0.2661	0.0046	-0.115
Mof_H 	H 	0.145	0.2745	0.0032	0.065
Mof_C 	C 	0.2274	0.3145	0.0073	0.15
Mof_O 	O 	0.2861	0.1337	0.0168	-0.219
Mof_C 	C 	0.3494	0.1127	0.9871	0.073
Mof_C 	C 	0.3754	0.1462	0.9064	-0.035
Mof_C 	C 	0.3499	0.0493	0.0274	-0.048
Mof_C 	C 	0.3183	0.003	0.967	-0.073
Mof_O 	O 	0.2139	0.3712	0.9995	-0.199
Mof_C 	C 	0.146	0.3853	0.0078	0.042
Mof_C 	C 	0.13	0.4476	0.968	0.308
Mof_C 	C 	0.1274	0.3864	0.1061	-0.035
Mof_C 	C 	0.1745	0.4237	0.1585	-0.001
Mof_C 	C 	0.1563	0.1572	0.0012	0.095
Mof_C 	C 	0.1132	0.1583	0.9353	-0.149
Mof_H 	H 	0.1133	0.189	0.8917	0.085
Mof_C 	C 	0.0687	0.1116	0.9354	0.111
Mof_H 	H 	0.0363	0.1133	0.8944	0.007
Mof_N 	N 	0.0714	0.0684	0.9883	-0.233
Mof_C 	C 	0.1133	0.0657	0.0551	0.057
Mof_H 	H 	0.1113	0.0339	0.0969	0.031
Mof_C 	C 	0.1604	0.111	0.0617	-0.124
Mof_H 	H 	0.1917	0.1091	0.1043	0.089
Mof_N 	N 	0.433	0.4293	0.5148	-0.282
Mof_C 	C 	0.389	0.4285	0.5794	0.063
Mof_H 	H 	0.3895	0.4576	0.6253	-0.032
Mof_C 	C 	0.343	0.3836	0.576	-0.161
Mof_H 	H 	0.3114	0.383	0.6182	0.08
Mof_C 	C 	0.3449	0.3399	0.5089	0.135
Mof_C 	C 	0.391	0.3438	0.4509	-0.205
Mof_H 	H 	0.3933	0.3148	0.405	0.105
Mof_C 	C 	0.4332	0.3865	0.4555	0.126
Mof_H 	H 	0.4651	0.3861	0.4138	-0.049
Mof_C 	C 	0.2957	0.2943	0.5066	-0.079
Mof_C 	C 	0.30882	0.2331	0.4958	0.18
Mof_C 	C 	0.2621	0.1911	0.4898	-0.136
Mof_H 	H 	0.271	0.1493	0.4824	0.071
Mof_C 	C 	0.2021	0.2103	0.4946	-0.03
Mof_C 	C 	0.18899	0.2714	0.5055	0.125
Mof_C 	C 	0.2358	0.3134	0.5115	-0.092
Mof_H 	H 	0.2268	0.3552	0.5189	0.058
Mof_O 	O 	0.3663	0.2164	0.488	-0.269
Mof_C 	C 	0.3861	0.1524	0.5186	0.206
Mof_H 	H 	0.3621	0.126	0.4781	-0.041
Mof_C 	C 	0.3773	0.1193	0.6062	-0.527
Mof_H 	H 	0.4157	0.101	0.6244	0.155
Mof_H 	H 	0.3467	0.0874	0.5992	0.15
Mof_H 	H 	0.3637	0.1482	0.6508	0.178
Mof_C 	C 	0.4508	0.1421	0.4843	-0.093
Mof_H 	H 	0.4671	0.102	0.5014	0.025
Mof_H 	H 	0.4537	0.1473	0.42	0.05
Mof_C 	C 	0.481	0.1944	0.5346	-0.339
Mof_H 	H 	0.4554	0.2305	0.5311	0.144
Mof_H 	H 	0.5207	0.2031	0.5086	0.12
Mof_H 	H 	0.4863	0.1827	0.596	0.116
Mof_O 	O 	0.1284	0.2903	0.5024	-0.25
Mof_C 	C 	0.1094	0.3551	0.4857	0.21
Mof_H 	H 	0.1335	0.3866	0.5175	-0.045
Mof_C 	C 	0.1221	0.3503	0.3878	-0.159
Mof_H 	H 	0.128	0.3061	0.3812	0.095
Mof_H 	H 	0.1635	0.3675	0.3846	0.072
Mof_C 	C 	0.0972	0.3671	0.2972	-0.256
Mof_H 	H 	0.0529	0.3681	0.2993	0.082
Mof_H 	H 	0.1104	0.3369	0.2542	0.098
Mof_H 	H 	0.1125	0.4071	0.2802	0.094
Mof_C 	C 	0.0438	0.3473	0.517	-0.485
Mof_H 	H 	0.0283	0.3079	0.4976	0.159
Mof_H 	H 	0.0186	0.3797	0.4924	0.13
Mof_H 	H 	0.0425	0.3494	0.5811	0.146
Mof_C 	C 	0.1516	0.1624	0.4895	0.088
Mof_C 	C 	0.1041	0.162	0.5492	-0.126
Mof_H 	H 	0.1011	0.1931	0.5921	0.085
Mof_C 	C 	0.0609	0.1162	0.5461	0.06
Mof_H 	H 	0.0284	0.116	0.5869	0.023
Mof_N 	N 	0.0653	0.0708	0.4834	-0.228
Mof_C 	C 	0.1128	0.0712	0.4237	0.071
Mof_H 	H 	0.1158	0.0402	0.3808	0.026
Mof_C 	C 	0.156	0.117	0.4267	-0.137
Mof_H 	H 	0.1885	0.1173	0.3859	0.075
Mof_C 	C 	0.3552	0.1297	0.886	-0.007
Mof_C 	C 	0.3482	0.0434	0.9685	0.063
Mof_C 	C 	0.4055	0.0133	0.0063	-0.078
Mof_C 	C 	0.1567	0.4519	0.979	-0.325
Mof_C 	C 	0.1068	0.4533	0.098	-0.047
Mof_F 	F 	0.9262	0.012	0.2402	-0.73
Mof_F 	F 	0.9272	0.9913	0.7401	-0.679
Mof_N 	N 	0.5681	0.5658	0.0189	-0.284
Mof_C 	C 	0.5759	0.6091	0.084	0.078
Mof_H 	H 	0.5505	0.6074	0.1342	-0.032
Mof_C 	C 	0.6179	0.6533	0.0792	-0.16
Mof_H 	H 	0.6163	0.6855	0.1206	0.083
Mof_C 	C 	0.6638	0.654	0.0157	0.107
Mof_C 	C 	0.6599	0.6058	0.9552	-0.141
Mof_H 	H 	0.69	0.6022	0.911	0.089
Mof_C 	C 	0.6132	0.5635	0.9585	0.08
Mof_H 	H 	0.6128	0.5316	0.9167	-0.032
Mof_C 	C 	0.7083	0.6989	0.0107	-0.068
Mof_C 	C 	0.6916	0.7624	0.0188	-0.091
Mof_H 	H 	0.6502	0.7729	0.0273	0.051
Mof_C 	C 	0.7342	0.8072	0.0143	0.128
Mof_C 	C 	0.7945	0.7929	0.0037	-0.009
Mof_C 	C 	0.8128	0.7339	0.0046	-0.141
Mof_H 	H 	0.855	0.7255	0.0032	0.099
Mof_C 	C 	0.7726	0.6855	0.0073	0.176
Mof_O 	O 	0.7139	0.8663	0.0168	-0.188
Mof_C 	C 	0.6506	0.8873	0.9871	0.054
Mof_C 	C 	0.6246	0.8538	0.9064	0.707
Mof_C 	C 	0.6501	0.9507	0.0274	-0.043
Mof_C 	C 	0.6817	0.997	0.967	0.056
Mof_O 	O 	0.7861	0.6288	0.9995	-0.223
Mof_C 	C 	0.854	0.6147	0.0078	0.076
Mof_C 	C 	0.87	0.5524	0.968	-0.003
Mof_C 	C 	0.8726	0.6136	0.1061	-0.009
Mof_C 	C 	0.8255	0.5763	0.1585	-0.018
Mof_C 	C 	0.8437	0.8428	0.0012	0.088
Mof_C 	C 	0.8868	0.8417	0.9353	-0.106
Mof_H 	H 	0.8867	0.811	0.8917	0.103
Mof_C 	C 	0.9313	0.8884	0.9354	0.124
Mof_H 	H 	0.9637	0.8867	0.8944	0.083
Mof_N 	N 	0.9286	0.9316	0.9883	-0.162
Mof_C 	C 	0.8867	0.9343	0.0551	0.074
Mof_H 	H 	0.8887	0.9661	0.0969	0.102
Mof_C 	C 	0.8396	0.889	0.0617	-0.093
Mof_H 	H 	0.8083	0.8909	0.1043	0.101
Mof_N 	N 	0.567	0.5707	0.5148	-0.283
Mof_C 	C 	0.611	0.5715	0.5794	0.064
Mof_H 	H 	0.6105	0.5424	0.6253	-0.033
Mof_C 	C 	0.657	0.6164	0.576	-0.163
Mof_H 	H 	0.6886	0.617	0.6182	0.083
Mof_C 	C 	0.6551	0.6601	0.5089	0.139
Mof_C 	C 	0.609	0.6562	0.4509	-0.208
Mof_H 	H 	0.6067	0.6852	0.405	0.108
Mof_C 	C 	0.5668	0.6135	0.4555	0.128
Mof_H 	H 	0.5349	0.6139	0.4138	-0.05
Mof_C 	C 	0.7043	0.7057	0.5066	-0.082
Mof_C 	C 	0.69118	0.7669	0.4958	0.191
Mof_C 	C 	0.7379	0.8089	0.4898	-0.143
Mof_H 	H 	0.729	0.8507	0.4824	0.093
Mof_C 	C 	0.7979	0.7897	0.4946	-0.017
Mof_C 	C 	0.81101	0.7286	0.5055	0.126
Mof_C 	C 	0.7642	0.6866	0.5115	-0.087
Mof_H 	H 	0.7732	0.6448	0.5189	0.058
Mof_O 	O 	0.6337	0.7836	0.488	-0.275
Mof_C 	C 	0.6139	0.8476	0.5186	0.25
Mof_H 	H 	0.6379	0.874	0.4781	-0.028
Mof_C 	C 	0.6227	0.8807	0.6062	-0.628
Mof_H 	H 	0.5843	0.899	0.6244	0.217
Mof_H 	H 	0.6533	0.9126	0.5992	0.23
Mof_H 	H 	0.6363	0.8518	0.6508	0.225
Mof_C 	C 	0.5492	0.8579	0.4843	-0.133
Mof_H 	H 	0.5329	0.898	0.5014	0.069
Mof_H 	H 	0.5463	0.8527	0.42	0.077
Mof_C 	C 	0.519	0.8056	0.5346	-0.312
Mof_H 	H 	0.5446	0.7695	0.5311	0.136
Mof_H 	H 	0.4793	0.7969	0.5086	0.115
Mof_H 	H 	0.5137	0.8173	0.596	0.114
Mof_O 	O 	0.8716	0.7097	0.5024	-0.246
Mof_C 	C 	0.8906	0.6449	0.4857	0.256
Mof_H 	H 	0.8665	0.6134	0.5175	-0.05
Mof_C 	C 	0.8779	0.6497	0.3878	-0.141
Mof_H 	H 	0.872	0.6939	0.3812	0.099
Mof_H 	H 	0.8365	0.6325	0.3846	0.068
Mof_C 	C 	0.9028	0.6329	0.2972	-0.317
Mof_H 	H 	0.9471	0.6319	0.2993	0.144
Mof_H 	H 	0.8896	0.6631	0.2542	0.135
Mof_H 	H 	0.8875	0.5929	0.2802	0.128
Mof_C 	C 	0.9562	0.6527	0.517	-0.621
Mof_H 	H 	0.9717	0.6921	0.4976	0.244
Mof_H 	H 	0.9814	0.6203	0.4924	0.225
Mof_H 	H 	0.9575	0.6506	0.5811	0.229
Mof_C 	C 	0.8484	0.8376	0.4895	0.098
Mof_C 	C 	0.8959	0.838	0.5492	-0.107
Mof_H 	H 	0.8989	0.8069	0.5921	0.103
Mof_C 	C 	0.9391	0.8838	0.5461	0.089
Mof_H 	H 	0.9716	0.884	0.5869	0.094
Mof_N 	N 	0.9347	0.9292	0.4834	-0.158
Mof_C 	C 	0.8872	0.9288	0.4237	0.1
Mof_H 	H 	0.8842	0.9598	0.3808	0.093
Mof_C 	C 	0.844	0.883	0.4267	-0.117
Mof_H 	H 	0.8115	0.8827	0.3859	0.095
Mof_C 	C 	0.6448	0.8703	0.886	-0.716
Mof_C 	C 	0.6518	0.9566	0.9685	0.062
Mof_C 	C 	0.5945	0.9867	0.0063	0.017
Mof_C 	C 	0.8433	0.5481	0.979	-0
Mof_C 	C 	0.8932	0.5467	0.098	0.006
Mof_F 	F 	0.012	0.0738	0.2402	-0.78
Mof_F 	F 	0.9913	0.0728	0.7401	-0.724
Mof_N 	N 	0.5658	0.4319	0.0189	-0.283
Mof_C 	C 	0.6091	0.4241	0.084	0.078
Mof_H 	H 	0.6074	0.4495	0.1342	-0.031
Mof_C 	C 	0.6533	0.3821	0.0792	-0.157
Mof_H 	H 	0.6855	0.3837	0.1206	0.082
Mof_C 	C 	0.654	0.3362	0.0157	0.104
Mof_C 	C 	0.6058	0.3401	0.9552	-0.138
Mof_H 	H 	0.6022	0.31	0.911	0.09
Mof_C 	C 	0.5635	0.3868	0.9585	0.08
Mof_H 	H 	0.5316	0.3872	0.9167	-0.03
Mof_C 	C 	0.6989	0.2917	0.0107	-0.058
Mof_C 	C 	0.7624	0.3084	0.0188	-0.1
Mof_H 	H 	0.7729	0.3498	0.0273	0.054
Mof_C 	C 	0.8072	0.2658	0.0143	0.135
Mof_C 	C 	0.7929	0.2055	0.0037	-0.025
Mof_C 	C 	0.7339	0.1872	0.0046	-0.123
Mof_H 	H 	0.7255	0.145	0.0032	0.069
Mof_C 	C 	0.6855	0.2274	0.0073	0.155
Mof_O 	O 	0.8663	0.2861	0.0168	-0.189
Mof_C 	C 	0.8873	0.3494	0.9871	0.054
Mof_C 	C 	0.8538	0.3754	0.9064	0.705
Mof_C 	C 	0.9507	0.3499	0.0274	-0.038
Mof_C 	C 	0.997	0.3183	0.967	0.059
Mof_O 	O 	0.6288	0.2139	0.9995	-0.199
Mof_C 	C 	0.6147	0.146	0.0078	0.042
Mof_C 	C 	0.5524	0.13	0.968	0.306
Mof_C 	C 	0.6136	0.1274	0.1061	-0.034
Mof_C 	C 	0.5763	0.1745	0.1585	-0.001
Mof_C 	C 	0.8428	0.1563	0.0012	0.09
Mof_C 	C 	0.8417	0.1132	0.9353	-0.131
Mof_H 	H 	0.811	0.1133	0.8917	0.086
Mof_C 	C 	0.8884	0.0687	0.9354	0.116
Mof_H 	H 	0.8867	0.0363	0.8944	0.023
Mof_N 	N 	0.9316	0.0714	0.9883	-0.194
Mof_C 	C 	0.9343	0.1133	0.0551	0.066
Mof_H 	H 	0.9661	0.1113	0.0969	0.093
Mof_C 	C 	0.889	0.1604	0.0617	-0.103
Mof_H 	H 	0.8909	0.1917	0.1043	0.102
Mof_N 	N 	0.5707	0.433	0.5148	-0.283
Mof_C 	C 	0.5715	0.389	0.5794	0.063
Mof_H 	H 	0.5424	0.3895	0.6253	-0.032
Mof_C 	C 	0.6164	0.343	0.576	-0.163
Mof_H 	H 	0.617	0.3114	0.6182	0.081
Mof_C 	C 	0.6601	0.3449	0.5089	0.138
Mof_C 	C 	0.6562	0.391	0.4509	-0.208
Mof_H 	H 	0.6852	0.3933	0.405	0.108
Mof_C 	C 	0.6135	0.4332	0.4555	0.128
Mof_H 	H 	0.6139	0.4651	0.4138	-0.05
Mof_C 	C 	0.7057	0.2957	0.5066	-0.083
Mof_C 	C 	0.7669	0.30882	0.4958	0.191
Mof_C 	C 	0.8089	0.2621	0.4898	-0.144
Mof_H 	H 	0.8507	0.271	0.4824	0.093
Mof_C 	C 	0.7897	0.2021	0.4946	-0.019
Mof_C 	C 	0.7286	0.18899	0.5055	0.121
Mof_C 	C 	0.6866	0.2358	0.5115	-0.087
Mof_H 	H 	0.6448	0.2268	0.5189	0.056
Mof_O 	O 	0.7836	0.3663	0.488	-0.275
Mof_C 	C 	0.8476	0.3861	0.5186	0.25
Mof_H 	H 	0.874	0.3621	0.4781	-0.027
Mof_C 	C 	0.8807	0.3773	0.6062	-0.627
Mof_H 	H 	0.899	0.4157	0.6244	0.217
Mof_H 	H 	0.9126	0.3467	0.5992	0.23
Mof_H 	H 	0.8518	0.3637	0.6508	0.224
Mof_C 	C 	0.8579	0.4508	0.4843	-0.133
Mof_H 	H 	0.898	0.4671	0.5014	0.069
Mof_H 	H 	0.8527	0.4537	0.42	0.077
Mof_C 	C 	0.8056	0.481	0.5346	-0.312
Mof_H 	H 	0.7695	0.4554	0.5311	0.136
Mof_H 	H 	0.7969	0.5207	0.5086	0.115
Mof_H 	H 	0.8173	0.4863	0.596	0.114
Mof_O 	O 	0.7097	0.1284	0.5024	-0.249
Mof_C 	C 	0.6449	0.1094	0.4857	0.211
Mof_H 	H 	0.6134	0.1335	0.5175	-0.045
Mof_C 	C 	0.6497	0.1221	0.3878	-0.16
Mof_H 	H 	0.6939	0.128	0.3812	0.095
Mof_H 	H 	0.6325	0.1635	0.3846	0.072
Mof_C 	C 	0.6329	0.0972	0.2972	-0.257
Mof_H 	H 	0.6319	0.0529	0.2993	0.083
Mof_H 	H 	0.6631	0.1104	0.2542	0.099
Mof_H 	H 	0.5929	0.1125	0.2802	0.095
Mof_C 	C 	0.6527	0.0438	0.517	-0.487
Mof_H 	H 	0.6921	0.0283	0.4976	0.161
Mof_H 	H 	0.6203	0.0186	0.4924	0.131
Mof_H 	H 	0.6506	0.0425	0.5811	0.148
Mof_C 	C 	0.8376	0.1516	0.4895	0.093
Mof_C 	C 	0.838	0.1041	0.5492	-0.119
Mof_H 	H 	0.8069	0.1011	0.5921	0.088
Mof_C 	C 	0.8838	0.0609	0.5461	0.074
Mof_H 	H 	0.884	0.0284	0.5869	0.036
Mof_N 	N 	0.9292	0.0653	0.4834	-0.19
Mof_C 	C 	0.9288	0.1128	0.4237	0.089
Mof_H 	H 	0.9598	0.1158	0.3808	0.087
Mof_C 	C 	0.883	0.156	0.4267	-0.121
Mof_H 	H 	0.8827	0.1885	0.3859	0.093
Mof_C 	C 	0.8703	0.3552	0.886	-0.715
Mof_C 	C 	0.9566	0.3482	0.9685	0.056
Mof_C 	C 	0.9867	0.4055	0.0063	0.018
Mof_C 	C 	0.5481	0.1567	0.979	-0.322
Mof_C 	C 	0.5467	0.1068	0.098	-0.047
Mof_F 	F 	0.988	0.9262	0.2402	-0.633
Mof_F 	F 	0.0087	0.9272	0.7401	-0.781
Mof_N 	N 	0.4342	0.5681	0.0189	-0.283
Mof_C 	C 	0.3909	0.5759	0.084	0.079
Mof_H 	H 	0.3926	0.5505	0.1342	-0.031
Mof_C 	C 	0.3467	0.6179	0.0792	-0.156
Mof_H 	H 	0.3145	0.6163	0.1206	0.083
Mof_C 	C 	0.346	0.6638	0.0157	0.107
Mof_C 	C 	0.3942	0.6599	0.9552	-0.14
Mof_H 	H 	0.3978	0.69	0.911	0.089
Mof_C 	C 	0.4365	0.6132	0.9585	0.08
Mof_H 	H 	0.4684	0.6128	0.9167	-0.032
Mof_C 	C 	0.3011	0.7083	0.0107	-0.06
Mof_C 	C 	0.2376	0.6916	0.0188	-0.103
Mof_H 	H 	0.2271	0.6502	0.0273	0.074
Mof_C 	C 	0.1928	0.7342	0.0143	0.137
Mof_C 	C 	0.2071	0.7945	0.0037	-0.024
Mof_C 	C 	0.2661	0.8128	0.0046	-0.134
Mof_H 	H 	0.2745	0.855	0.0032	0.098
Mof_C 	C 	0.3145	0.7726	0.0073	0.171
Mof_O 	O 	0.1337	0.7139	0.0168	-0.216
Mof_C 	C 	0.1127	0.6506	0.9871	0.072
Mof_C 	C 	0.1462	0.6246	0.9064	0
Mof_C 	C 	0.0493	0.6501	0.0274	-0.052
Mof_C 	C 	0.003	0.6817	0.967	-0.071
Mof_O 	O 	0.3712	0.7861	0.9995	-0.223
Mof_C 	C 	0.3853	0.854	0.0078	0.077
Mof_C 	C 	0.4476	0.87	0.968	-0.004
Mof_C 	C 	0.3864	0.8726	0.1061	-0.009
Mof_C 	C 	0.4237	0.8255	0.1585	-0.019
Mof_C 	C 	0.1572	0.8437	0.0012	0.092
Mof_C 	C 	0.1583	0.8868	0.9353	-0.122
Mof_H 	H 	0.189	0.8867	0.8917	0.102
Mof_C 	C 	0.1116	0.9313	0.9354	0.12
Mof_H 	H 	0.1133	0.9637	0.8944	0.072
Mof_N 	N 	0.0684	0.9286	0.9883	-0.197
Mof_C 	C 	0.0657	0.8867	0.0551	0.066
Mof_H 	H 	0.0339	0.8887	0.0969	0.044
Mof_C 	C 	0.111	0.8396	0.0617	-0.112
Mof_H 	H 	0.1091	0.8083	0.1043	0.089
Mof_N 	N 	0.4293	0.567	0.5148	-0.282
Mof_C 	C 	0.4285	0.611	0.5794	0.063
Mof_H 	H 	0.4576	0.6105	0.6253	-0.032
Mof_C 	C 	0.3836	0.657	0.576	-0.161
Mof_H 	H 	0.383	0.6886	0.6182	0.082
Mof_C 	C 	0.3399	0.6551	0.5089	0.135
Mof_C 	C 	0.3438	0.609	0.4509	-0.205
Mof_H 	H 	0.3148	0.6067	0.405	0.106
Mof_C 	C 	0.3865	0.5668	0.4555	0.127
Mof_H 	H 	0.3861	0.5349	0.4138	-0.05
Mof_C 	C 	0.2943	0.7043	0.5066	-0.078
Mof_C 	C 	0.2331	0.69118	0.4958	0.181
Mof_C 	C 	0.1911	0.7379	0.4898	-0.135
Mof_H 	H 	0.1493	0.729	0.4824	0.072
Mof_C 	C 	0.2103	0.7979	0.4946	-0.028
Mof_C 	C 	0.2714	0.81101	0.5055	0.129
Mof_C 	C 	0.3134	0.7642	0.5115	-0.093
Mof_H 	H 	0.3552	0.7732	0.5189	0.06
Mof_O 	O 	0.2164	0.6337	0.488	-0.269
Mof_C 	C 	0.1524	0.6139	0.5186	0.208
Mof_H 	H 	0.126	0.6379	0.4781	-0.04
Mof_C 	C 	0.1193	0.6227	0.6062	-0.53
Mof_H 	H 	0.101	0.5843	0.6244	0.157
Mof_H 	H 	0.0874	0.6533	0.5992	0.153
Mof_H 	H 	0.1482	0.6363	0.6508	0.181
Mof_C 	C 	0.1421	0.5492	0.4843	-0.094
Mof_H 	H 	0.102	0.5329	0.5014	0.026
Mof_H 	H 	0.1473	0.5463	0.42	0.05
Mof_C 	C 	0.1944	0.519	0.5346	-0.338
Mof_H 	H 	0.2305	0.5446	0.5311	0.144
Mof_H 	H 	0.2031	0.4793	0.5086	0.119
Mof_H 	H 	0.1827	0.5137	0.596	0.116
Mof_O 	O 	0.2903	0.8716	0.5024	-0.247
Mof_C 	C 	0.3551	0.8906	0.4857	0.256
Mof_H 	H 	0.3866	0.8665	0.5175	-0.051
Mof_C 	C 	0.3503	0.8779	0.3878	-0.141
Mof_H 	H 	0.3061	0.872	0.3812	0.098
Mof_H 	H 	0.3675	0.8365	0.3846	0.068
Mof_C 	C 	0.3671	0.9028	0.2972	-0.317
Mof_H 	H 	0.3681	0.9471	0.2993	0.144
Mof_H 	H 	0.3369	0.8896	0.2542	0.135
Mof_H 	H 	0.4071	0.8875	0.2802	0.128
Mof_C 	C 	0.3473	0.9562	0.517	-0.622
Mof_H 	H 	0.3079	0.9717	0.4976	0.245
Mof_H 	H 	0.3797	0.9814	0.4924	0.226
Mof_H 	H 	0.3494	0.9575	0.5811	0.23
Mof_C 	C 	0.1624	0.8484	0.4895	0.094
Mof_C 	C 	0.162	0.8959	0.5492	-0.114
Mof_H 	H 	0.1931	0.8989	0.5921	0.101
Mof_C 	C 	0.1162	0.9391	0.5461	0.077
Mof_H 	H 	0.116	0.9716	0.5869	0.086
Mof_N 	N 	0.0708	0.9347	0.4834	-0.191
Mof_C 	C 	0.0712	0.8872	0.4237	0.084
Mof_H 	H 	0.0402	0.8842	0.3808	0.037
Mof_C 	C 	0.117	0.844	0.4267	-0.132
Mof_H 	H 	0.1173	0.8115	0.3859	0.078
Mof_C 	C 	0.1297	0.6448	0.886	-0.04
Mof_C 	C 	0.0434	0.6518	0.9685	0.069
Mof_C 	C 	0.0133	0.5945	0.0063	-0.078
Mof_C 	C 	0.4519	0.8433	0.979	0.001
Mof_C 	C 	0.4533	0.8932	0.098	0.007
Mof_Zn	Zn	0.5	0.5	0.02092	1.153
Mof_Zn	Zn	0.5	0.5	0.51983	1.145
Mof_Zn	Zn	9.36126e-33	6.78929e-33	0.99105	1.213
Mof_Zn	Zn	4.66575e-33	3.39465e-33	0.48979	1.213
Mof_Si	Si	2.32147e-33	1.69732e-33	0.2405	2.86
Mof_F 	F 	2.61914e-33	1.69732e-33	0.3552	-0.89
Mof_F 	F 	-5.22445e-34	0	0.1257	-0.896
Mof_Si	Si	1.9259e-33	0	0.7421	3.129
Mof_F 	F 	-1.76564e-33	3.39465e-33	0.6277	-0.906
Mof_F 	F 	-4.56832e-33	0	0.8558	-0.93
_end
