data_functionalizedCrystal
_audit_creation_method	'EQeq! by Chris Wilmer'
_symmetry_space_group_name_H-M	'P1'
_symmetry_Int_Tables_number	1
_symmetry_cell_setting	triclinic
loop_
_symmetry_equiv_pos_as_xyz
  x,y,z
_cell_length_a	11.614
_cell_length_b	16.0888
_cell_length_c	12.0204
_cell_angle_alpha	90
_cell_angle_beta	112.699
_cell_angle_gamma	90
loop_
_atom_site_label
_atom_site_type_symbol
_atom_site_fract_x
_atom_site_fract_y
_atom_site_fract_z
_atom_site_charge
Mof_Er	Er	0.19445	0.02789	0.57939	2.036
Mof_S 	S 	0.05297	0.21983	0.21461	0.1
Mof_S 	S 	0.49008	0.28376	0.75024	0.076
Mof_O 	O 	0.1276	0.0764	0.3826	-0.476
Mof_O 	O 	0.9335	0.03	0.342	-0.531
Mof_O 	O 	0.0588	0.3651	0.0693	-0.513
Mof_O 	O 	0.8597	0.4041	0.0237	-0.511
Mof_O 	O 	0.2751	0.1036	0.7788	-0.368
Mof_O 	O 	0.3342	0.1405	0.6323	-0.424
Mof_O 	O 	0.6502	0.4346	0.7939	-0.406
Mof_O 	O 	0.627	0.4775	0.9589	-0.376
Mof_C 	C 	0.9573	0.154	0.2502	-0.112
Mof_C 	C 	0.8348	0.1777	0.1993	-0.009
Mof_H 	H 	0.7694	0.1488	0.2079	0.053
Mof_C 	C 	0.8206	0.2512	0.1325	0.022
Mof_H 	H 	0.744	0.2771	0.0933	0.042
Mof_C 	C 	0.9291	0.2808	0.1307	-0.139
Mof_C 	C 	0.0109	0.0808	0.3301	0.443
Mof_C 	C 	0.9507	0.3561	0.0695	0.496
Mof_C 	C 	0.3933	0.2285	0.8011	-0.075
Mof_C 	C 	0.3839	0.2653	0.9001	-0.009
Mof_H 	H 	0.3362	0.2439	0.9402	0.057
Mof_C 	C 	0.4544	0.339	0.9347	-0.014
Mof_H 	H 	0.4567	0.372	0.9991	0.07
Mof_C 	C 	0.5185	0.3568	0.8642	-0.067
Mof_C 	C 	0.3308	0.1521	0.7348	0.321
Mof_C 	C 	0.6034	0.4267	0.8723	0.305
Mof_Er	Er	0.80555	0.52789	0.92061	2.052
Mof_S 	S 	0.94703	0.71983	0.28539	0.107
Mof_S 	S 	0.50992	0.78376	0.74976	0.077
Mof_O 	O 	0.8724	0.5764	0.1174	-0.481
Mof_O 	O 	0.0665	0.53	0.158	-0.547
Mof_O 	O 	0.9412	0.8651	0.4307	-0.514
Mof_O 	O 	0.1403	0.9041	0.4763	-0.509
Mof_O 	O 	0.7249	0.6036	0.7212	-0.367
Mof_O 	O 	0.6658	0.6405	0.8677	-0.424
Mof_O 	O 	0.3498	0.9346	0.7061	-0.402
Mof_O 	O 	0.373	0.9775	0.5411	-0.373
Mof_C 	C 	0.0427	0.654	0.2498	-0.128
Mof_C 	C 	0.1652	0.6777	0.3007	-0.001
Mof_H 	H 	0.2306	0.6488	0.2921	0.05
Mof_C 	C 	0.1794	0.7512	0.3675	0.018
Mof_H 	H 	0.256	0.7771	0.4067	0.043
Mof_C 	C 	0.0709	0.7808	0.3693	-0.141
Mof_C 	C 	0.9891	0.5808	0.1699	0.463
Mof_C 	C 	0.0493	0.8561	0.4305	0.497
Mof_C 	C 	0.6067	0.7285	0.6989	-0.075
Mof_C 	C 	0.6161	0.7653	0.5999	-0.009
Mof_H 	H 	0.6638	0.7439	0.5598	0.058
Mof_C 	C 	0.5456	0.839	0.5653	-0.014
Mof_H 	H 	0.5433	0.872	0.5009	0.07
Mof_C 	C 	0.4815	0.8568	0.6358	-0.066
Mof_C 	C 	0.6692	0.6521	0.7652	0.32
Mof_C 	C 	0.3966	0.9267	0.6277	0.305
Mof_Er	Er	0.80555	0.97211	0.42061	2.036
Mof_S 	S 	0.94703	0.78017	0.78539	0.1
Mof_S 	S 	0.50992	0.71624	0.24976	0.076
Mof_O 	O 	0.8724	0.9236	0.6174	-0.476
Mof_O 	O 	0.0665	0.97	0.658	-0.531
Mof_O 	O 	0.9412	0.6349	0.9307	-0.513
Mof_O 	O 	0.1403	0.5959	0.9763	-0.511
Mof_O 	O 	0.7249	0.8964	0.2212	-0.368
Mof_O 	O 	0.6658	0.8595	0.3677	-0.424
Mof_O 	O 	0.3498	0.5654	0.2061	-0.406
Mof_O 	O 	0.373	0.5225	0.0411	-0.376
Mof_C 	C 	0.0427	0.846	0.7498	-0.112
Mof_C 	C 	0.1652	0.8223	0.8007	-0.009
Mof_H 	H 	0.2306	0.8512	0.7921	0.053
Mof_C 	C 	0.1794	0.7488	0.8675	0.022
Mof_H 	H 	0.256	0.7229	0.9067	0.042
Mof_C 	C 	0.0709	0.7192	0.8693	-0.139
Mof_C 	C 	0.9891	0.9192	0.6699	0.443
Mof_C 	C 	0.0493	0.6439	0.9305	0.496
Mof_C 	C 	0.6067	0.7715	0.1989	-0.075
Mof_C 	C 	0.6161	0.7347	0.0999	-0.009
Mof_H 	H 	0.6638	0.7561	0.0598	0.057
Mof_C 	C 	0.5456	0.661	0.0653	-0.014
Mof_H 	H 	0.5433	0.628	0.0009	0.07
Mof_C 	C 	0.4815	0.6432	0.1358	-0.067
Mof_C 	C 	0.6692	0.8479	0.2652	0.321
Mof_C 	C 	0.3966	0.5733	0.1277	0.305
Mof_Er	Er	0.19445	0.47211	0.07939	2.052
Mof_S 	S 	0.05297	0.28017	0.71461	0.107
Mof_S 	S 	0.49008	0.21624	0.25024	0.077
Mof_O 	O 	0.1276	0.4236	0.8826	-0.481
Mof_O 	O 	0.9335	0.47	0.842	-0.547
Mof_O 	O 	0.0588	0.1349	0.5693	-0.514
Mof_O 	O 	0.8597	0.0959	0.5237	-0.509
Mof_O 	O 	0.2751	0.3964	0.2788	-0.367
Mof_O 	O 	0.3342	0.3595	0.1323	-0.424
Mof_O 	O 	0.6502	0.0654	0.2939	-0.402
Mof_O 	O 	0.627	0.0225	0.4589	-0.373
Mof_C 	C 	0.9573	0.346	0.7502	-0.128
Mof_C 	C 	0.8348	0.3223	0.6993	-0.001
Mof_H 	H 	0.7694	0.3512	0.7079	0.05
Mof_C 	C 	0.8206	0.2488	0.6325	0.018
Mof_H 	H 	0.744	0.2229	0.5933	0.043
Mof_C 	C 	0.9291	0.2192	0.6307	-0.141
Mof_C 	C 	0.0109	0.4192	0.8301	0.463
Mof_C 	C 	0.9507	0.1439	0.5695	0.497
Mof_C 	C 	0.3933	0.2715	0.3011	-0.075
Mof_C 	C 	0.3839	0.2347	0.4001	-0.009
Mof_H 	H 	0.3362	0.2561	0.4402	0.058
Mof_C 	C 	0.4544	0.161	0.4347	-0.014
Mof_H 	H 	0.4567	0.128	0.4991	0.07
Mof_C 	C 	0.5185	0.1432	0.3642	-0.066
Mof_C 	C 	0.3308	0.3479	0.2348	0.32
Mof_C 	C 	0.6034	0.0733	0.3723	0.305
_end
