data_functionalizedCrystal
_audit_creation_method	'EQeq! by Chris Wilmer'
_symmetry_space_group_name_H-M	'P1'
_symmetry_Int_Tables_number	1
_symmetry_cell_setting	triclinic
loop_
_symmetry_equiv_pos_as_xyz
  x,y,z
_cell_length_a	17.2857
_cell_length_b	17.2857
_cell_length_c	26.219
_cell_angle_alpha	94.4987
_cell_angle_beta	94.4987
_cell_angle_gamma	110.062
loop_
_atom_site_label
_atom_site_type_symbol
_atom_site_fract_x
_atom_site_fract_y
_atom_site_fract_z
_atom_site_charge
Mof_In	In	0.36637	0.86201	0.88429	2.53
Mof_In	In	0.86201	0.36637	0.38429	2.529
Mof_H 	H 	0.2124	0.769	0.024	0.032
Mof_H 	H 	0.0963	0.6867	0.0599	0.055
Mof_H 	H 	0.9659	0.6301	0.9198	0.058
Mof_H 	H 	0.08	0.7126	0.8848	0.043
Mof_H 	H 	0.8109	0.3439	0.2088	0.04
Mof_H 	H 	0.8015	0.3765	0.1256	0.074
Mof_H 	H 	0.9966	0.591	0.1667	0.059
Mof_H 	H 	0.9995	0.5609	0.2504	0.03
Mof_H 	H 	0.3822	0.1422	0.8708	0.043
Mof_H 	H 	0.4533	0.2851	0.885	0.056
Mof_H 	H 	0.6023	0.2515	0.0012	0.055
Mof_H 	H 	0.5334	0.1076	0.9857	0.039
Mof_H 	H 	0.5971	0.7649	0.8965	0.03
Mof_H 	H 	0.6607	0.6697	0.9142	0.06
Mof_H 	H 	0.4378	0.4988	0.9293	0.065
Mof_H 	H 	0.3762	0.5952	0.9118	0.03
Mof_H 	H 	0.7639	0.4495	0.0696	0.069
Mof_H 	H 	0.8582	0.5894	0.9572	0.063
Mof_H 	H 	0.0093	0.5809	0.0808	0.063
Mof_H 	H 	0.7113	0.6005	0.9684	0.065
Mof_H 	H 	0.6913	0.3649	0.9856	0.069
Mof_H 	H 	0.4943	0.4109	0.9227	0.065
Mof_H 	H 	0.769	0.2124	0.524	0.033
Mof_H 	H 	0.6867	0.0963	0.5599	0.056
Mof_H 	H 	0.6301	0.9659	0.4198	0.058
Mof_H 	H 	0.7126	0.08	0.3848	0.043
Mof_H 	H 	0.3439	0.8109	0.7088	0.04
Mof_H 	H 	0.3765	0.8015	0.6256	0.074
Mof_H 	H 	0.591	0.9966	0.6667	0.059
Mof_H 	H 	0.5609	0.9995	0.7504	0.03
Mof_H 	H 	0.1422	0.3822	0.3708	0.043
Mof_H 	H 	0.2851	0.4533	0.385	0.056
Mof_H 	H 	0.2515	0.6023	0.5012	0.053
Mof_H 	H 	0.1076	0.5334	0.4857	0.04
Mof_H 	H 	0.7649	0.5971	0.3965	0.03
Mof_H 	H 	0.6697	0.6607	0.4142	0.06
Mof_H 	H 	0.4988	0.4378	0.4293	0.065
Mof_H 	H 	0.5952	0.3762	0.4118	0.03
Mof_H 	H 	0.4495	0.7639	0.5696	0.069
Mof_H 	H 	0.5894	0.8582	0.4572	0.063
Mof_H 	H 	0.5809	0.0093	0.5808	0.063
Mof_H 	H 	0.6005	0.7113	0.4684	0.065
Mof_H 	H 	0.3649	0.6913	0.4856	0.07
Mof_H 	H 	0.4109	0.4943	0.4227	0.065
Mof_C 	C 	0.15854	0.74784	0.95095	-0.079
Mof_C 	C 	0.16224	0.74036	0.00245	0.012
Mof_C 	C 	0.09289	0.69097	0.02397	-0.089
Mof_C 	C 	0.01896	0.64812	0.99281	0.032
Mof_C 	C 	0.01621	0.65789	0.94157	-0.086
Mof_C 	C 	0.0842	0.70688	0.92059	0.014
Mof_C 	C 	0.90473	0.44905	0.23825	-0.098
Mof_C 	C 	0.84735	0.39519	0.20033	0.04
Mof_C 	C 	0.84203	0.41419	0.15084	-0.095
Mof_C 	C 	0.89625	0.48915	0.13702	0.033
Mof_C 	C 	0.95695	0.54175	0.17538	-0.095
Mof_C 	C 	0.95969	0.52309	0.22471	0.025
Mof_C 	C 	0.45284	0.1118	0.92631	-0.071
Mof_C 	C 	0.42801	0.16443	0.89672	0.005
Mof_C 	C 	0.47037	0.24939	0.90524	-0.08
Mof_C 	C 	0.53761	0.28281	0.94305	0.019
Mof_C 	C 	0.55885	0.22933	0.97379	-0.077
Mof_C 	C 	0.51725	0.14353	0.96506	0.01
Mof_C 	C 	0.4781	0.68914	0.90499	-0.101
Mof_C 	C 	0.55514	0.5751	0.92869	0.037
Mof_C 	C 	0.565	0.7114	0.9044	0.028
Mof_C 	C 	0.6026	0.6552	0.9154	-0.095
Mof_C 	C 	0.4715	0.5535	0.9246	-0.1
Mof_C 	C 	0.4349	0.6115	0.9135	0.037
Mof_C 	C 	0.88818	0.51316	0.08441	0.043
Mof_C 	C 	0.80985	0.48699	0.05617	-0.103
Mof_C 	C 	0.79766	0.51486	0.0084	0.038
Mof_C 	C 	0.8657	0.56868	0.98903	-0.104
Mof_C 	C 	0.94562	0.59306	0.01582	0.042
Mof_C 	C 	0.95533	0.56475	0.06279	-0.103
Mof_C 	C 	0.59467	0.51613	0.94319	0.039
Mof_C 	C 	0.67852	0.54322	0.96492	-0.105
Mof_C 	C 	0.71319	0.48619	0.9813	0.043
Mof_C 	C 	0.66703	0.40327	0.97443	-0.112
Mof_C 	C 	0.58586	0.3741	0.95152	0.051
Mof_C 	C 	0.55059	0.43063	0.93718	-0.106
Mof_C 	C 	0.23323	0.79541	0.92771	0.308
Mof_C 	C 	0.90687	0.43241	0.29365	0.35
Mof_C 	C 	0.41273	0.01983	0.91411	0.302
Mof_C 	C 	0.43632	0.74906	0.8945	0.34
Mof_C 	C 	0.74784	0.15854	0.45095	-0.081
Mof_C 	C 	0.74036	0.16224	0.50245	0.014
Mof_C 	C 	0.69097	0.09289	0.52397	-0.088
Mof_C 	C 	0.64812	0.01896	0.49281	0.031
Mof_C 	C 	0.65789	0.01621	0.44157	-0.087
Mof_C 	C 	0.70688	0.0842	0.42059	0.015
Mof_C 	C 	0.44905	0.90473	0.73825	-0.098
Mof_C 	C 	0.39519	0.84735	0.70033	0.04
Mof_C 	C 	0.41419	0.84203	0.65084	-0.095
Mof_C 	C 	0.48915	0.89625	0.63702	0.033
Mof_C 	C 	0.54175	0.95695	0.67538	-0.095
Mof_C 	C 	0.52309	0.95969	0.72471	0.025
Mof_C 	C 	0.1118	0.45284	0.42631	-0.071
Mof_C 	C 	0.16443	0.42801	0.39672	0.005
Mof_C 	C 	0.24939	0.47037	0.40524	-0.079
Mof_C 	C 	0.28281	0.53761	0.44305	0.018
Mof_C 	C 	0.22933	0.55885	0.47379	-0.074
Mof_C 	C 	0.14353	0.51725	0.46506	0.009
Mof_C 	C 	0.68914	0.4781	0.40499	-0.101
Mof_C 	C 	0.5751	0.55514	0.42869	0.036
Mof_C 	C 	0.7114	0.565	0.4044	0.028
Mof_C 	C 	0.6552	0.6026	0.4154	-0.095
Mof_C 	C 	0.5535	0.4715	0.4246	-0.1
Mof_C 	C 	0.6115	0.4349	0.4135	0.037
Mof_C 	C 	0.51316	0.88818	0.58441	0.043
Mof_C 	C 	0.48699	0.80985	0.55617	-0.102
Mof_C 	C 	0.51486	0.79766	0.5084	0.036
Mof_C 	C 	0.56868	0.8657	0.48903	-0.102
Mof_C 	C 	0.59306	0.94562	0.51582	0.042
Mof_C 	C 	0.56475	0.95533	0.56279	-0.103
Mof_C 	C 	0.51613	0.59467	0.44319	0.04
Mof_C 	C 	0.54322	0.67852	0.46492	-0.106
Mof_C 	C 	0.48619	0.71319	0.4813	0.044
Mof_C 	C 	0.40327	0.66703	0.47443	-0.113
Mof_C 	C 	0.3741	0.58586	0.45152	0.052
Mof_C 	C 	0.43063	0.55059	0.43718	-0.107
Mof_C 	C 	0.79541	0.23323	0.42771	0.309
Mof_C 	C 	0.43241	0.90687	0.79365	0.35
Mof_C 	C 	0.01983	0.41273	0.41411	0.304
Mof_C 	C 	0.74906	0.43632	0.3945	0.34
Mof_O 	O 	0.22898	0.80222	0.87963	-0.52
Mof_O 	O 	0.3026	0.82786	0.95552	-0.52
Mof_O 	O 	0.85197	0.36541	0.30354	-0.602
Mof_O 	O 	0.95894	0.48294	0.32681	-0.371
Mof_O 	O 	0.34688	0.98752	0.8839	-0.489
Mof_O 	O 	0.4492	0.97466	0.93392	-0.525
Mof_O 	O 	0.47724	0.82646	0.9006	-0.54
Mof_O 	O 	0.35991	0.72483	0.88154	-0.494
Mof_O 	O 	0.80222	0.22898	0.37963	-0.52
Mof_O 	O 	0.82786	0.3026	0.45552	-0.521
Mof_O 	O 	0.36541	0.85197	0.80354	-0.602
Mof_O 	O 	0.48294	0.95894	0.82681	-0.371
Mof_O 	O 	0.98752	0.34688	0.3839	-0.49
Mof_O 	O 	0.97466	0.4492	0.43392	-0.527
Mof_O 	O 	0.82646	0.47724	0.4006	-0.54
Mof_O 	O 	0.72483	0.35991	0.38154	-0.494
Mof_In	In	0.13799	0.63363	0.61571	2.53
Mof_In	In	0.63363	0.13799	0.11571	2.531
Mof_H 	H 	0.231	0.7876	0.476	0.033
Mof_H 	H 	0.3133	0.9037	0.4401	0.056
Mof_H 	H 	0.3699	0.0341	0.5802	0.058
Mof_H 	H 	0.2874	0.92	0.6152	0.043
Mof_H 	H 	0.6561	0.1891	0.2912	0.04
Mof_H 	H 	0.6235	0.1985	0.3744	0.074
Mof_H 	H 	0.409	0.0034	0.3333	0.059
Mof_H 	H 	0.4391	0.0005	0.2496	0.03
Mof_H 	H 	0.8578	0.6178	0.6292	0.043
Mof_H 	H 	0.7149	0.5467	0.615	0.056
Mof_H 	H 	0.7485	0.3977	0.4988	0.053
Mof_H 	H 	0.8924	0.4666	0.5143	0.04
Mof_H 	H 	0.2351	0.4029	0.6035	0.03
Mof_H 	H 	0.3303	0.3393	0.5858	0.06
Mof_H 	H 	0.5012	0.5622	0.5707	0.065
Mof_H 	H 	0.4048	0.6238	0.5882	0.03
Mof_H 	H 	0.5505	0.2361	0.4304	0.069
Mof_H 	H 	0.4106	0.1418	0.5428	0.063
Mof_H 	H 	0.4191	0.9907	0.4192	0.063
Mof_H 	H 	0.3995	0.2887	0.5316	0.065
Mof_H 	H 	0.6351	0.3087	0.5144	0.07
Mof_H 	H 	0.5891	0.5057	0.5773	0.065
Mof_H 	H 	0.7876	0.231	0.976	0.033
Mof_H 	H 	0.9037	0.3133	0.9401	0.056
Mof_H 	H 	0.0341	0.3699	0.0802	0.058
Mof_H 	H 	0.92	0.2874	0.1152	0.043
Mof_H 	H 	0.1891	0.6561	0.7912	0.04
Mof_H 	H 	0.1985	0.6235	0.8744	0.074
Mof_H 	H 	0.0034	0.409	0.8333	0.059
Mof_H 	H 	0.0005	0.4391	0.7496	0.03
Mof_H 	H 	0.6178	0.8578	0.1292	0.043
Mof_H 	H 	0.5467	0.7149	0.115	0.056
Mof_H 	H 	0.3977	0.7485	0.9988	0.055
Mof_H 	H 	0.4666	0.8924	0.0143	0.039
Mof_H 	H 	0.4029	0.2351	0.1035	0.03
Mof_H 	H 	0.3393	0.3303	0.0858	0.06
Mof_H 	H 	0.5622	0.5012	0.0707	0.065
Mof_H 	H 	0.6238	0.4048	0.0882	0.03
Mof_H 	H 	0.2361	0.5505	0.9304	0.069
Mof_H 	H 	0.1418	0.4106	0.0428	0.063
Mof_H 	H 	0.9907	0.4191	0.9192	0.063
Mof_H 	H 	0.2887	0.3995	0.0316	0.065
Mof_H 	H 	0.3087	0.6351	0.0144	0.069
Mof_H 	H 	0.5057	0.5891	0.0773	0.065
Mof_C 	C 	0.25216	0.84146	0.54905	-0.081
Mof_C 	C 	0.25964	0.83776	0.49755	0.014
Mof_C 	C 	0.30903	0.90711	0.47603	-0.088
Mof_C 	C 	0.35188	0.98104	0.50719	0.031
Mof_C 	C 	0.34211	0.98379	0.55843	-0.087
Mof_C 	C 	0.29312	0.9158	0.57941	0.015
Mof_C 	C 	0.55095	0.09527	0.26175	-0.098
Mof_C 	C 	0.60481	0.15265	0.29967	0.04
Mof_C 	C 	0.58581	0.15797	0.34916	-0.095
Mof_C 	C 	0.51085	0.10375	0.36298	0.033
Mof_C 	C 	0.45825	0.04305	0.32462	-0.095
Mof_C 	C 	0.47691	0.04031	0.27529	0.025
Mof_C 	C 	0.8882	0.54716	0.57369	-0.071
Mof_C 	C 	0.83557	0.57199	0.60328	0.005
Mof_C 	C 	0.75061	0.52963	0.59476	-0.079
Mof_C 	C 	0.71719	0.46239	0.55695	0.018
Mof_C 	C 	0.77067	0.44115	0.52621	-0.074
Mof_C 	C 	0.85647	0.48275	0.53494	0.009
Mof_C 	C 	0.31086	0.5219	0.59501	-0.101
Mof_C 	C 	0.4249	0.44486	0.57131	0.036
Mof_C 	C 	0.2886	0.435	0.5956	0.028
Mof_C 	C 	0.3448	0.3974	0.5846	-0.095
Mof_C 	C 	0.4465	0.5285	0.5754	-0.1
Mof_C 	C 	0.3885	0.5651	0.5865	0.037
Mof_C 	C 	0.48684	0.11182	0.41559	0.043
Mof_C 	C 	0.51301	0.19015	0.44383	-0.102
Mof_C 	C 	0.48514	0.20234	0.4916	0.036
Mof_C 	C 	0.43132	0.1343	0.51097	-0.102
Mof_C 	C 	0.40694	0.05438	0.48418	0.042
Mof_C 	C 	0.43525	0.04467	0.43721	-0.103
Mof_C 	C 	0.48387	0.40533	0.55681	0.04
Mof_C 	C 	0.45678	0.32148	0.53508	-0.106
Mof_C 	C 	0.51381	0.28681	0.5187	0.044
Mof_C 	C 	0.59673	0.33297	0.52557	-0.113
Mof_C 	C 	0.6259	0.41414	0.54848	0.052
Mof_C 	C 	0.56937	0.44941	0.56282	-0.107
Mof_C 	C 	0.20459	0.76677	0.57229	0.309
Mof_C 	C 	0.56759	0.09313	0.20635	0.35
Mof_C 	C 	0.98017	0.58727	0.58589	0.304
Mof_C 	C 	0.25094	0.56368	0.6055	0.34
Mof_C 	C 	0.84146	0.25216	0.04905	-0.079
Mof_C 	C 	0.83776	0.25964	0.99755	0.012
Mof_C 	C 	0.90711	0.30903	0.97603	-0.089
Mof_C 	C 	0.98104	0.35188	0.00719	0.032
Mof_C 	C 	0.98379	0.34211	0.05843	-0.086
Mof_C 	C 	0.9158	0.29312	0.07941	0.014
Mof_C 	C 	0.09527	0.55095	0.76175	-0.098
Mof_C 	C 	0.15265	0.60481	0.79967	0.04
Mof_C 	C 	0.15797	0.58581	0.84916	-0.095
Mof_C 	C 	0.10375	0.51085	0.86298	0.033
Mof_C 	C 	0.04305	0.45825	0.82462	-0.095
Mof_C 	C 	0.04031	0.47691	0.77529	0.025
Mof_C 	C 	0.54716	0.8882	0.07369	-0.071
Mof_C 	C 	0.57199	0.83557	0.10328	0.005
Mof_C 	C 	0.52963	0.75061	0.09476	-0.08
Mof_C 	C 	0.46239	0.71719	0.05695	0.019
Mof_C 	C 	0.44115	0.77067	0.02621	-0.077
Mof_C 	C 	0.48275	0.85647	0.03494	0.01
Mof_C 	C 	0.5219	0.31086	0.09501	-0.101
Mof_C 	C 	0.44486	0.4249	0.07131	0.037
Mof_C 	C 	0.435	0.2886	0.0956	0.028
Mof_C 	C 	0.3974	0.3448	0.0846	-0.095
Mof_C 	C 	0.5285	0.4465	0.0754	-0.1
Mof_C 	C 	0.5651	0.3885	0.0865	0.037
Mof_C 	C 	0.11182	0.48684	0.91559	0.043
Mof_C 	C 	0.19015	0.51301	0.94383	-0.103
Mof_C 	C 	0.20234	0.48514	0.9916	0.038
Mof_C 	C 	0.1343	0.43132	0.01097	-0.104
Mof_C 	C 	0.05438	0.40694	0.98418	0.042
Mof_C 	C 	0.04467	0.43525	0.93721	-0.103
Mof_C 	C 	0.40533	0.48387	0.05681	0.039
Mof_C 	C 	0.32148	0.45678	0.03508	-0.105
Mof_C 	C 	0.28681	0.51381	0.0187	0.043
Mof_C 	C 	0.33297	0.59673	0.02557	-0.112
Mof_C 	C 	0.41414	0.6259	0.04848	0.051
Mof_C 	C 	0.44941	0.56937	0.06282	-0.106
Mof_C 	C 	0.76677	0.20459	0.07229	0.308
Mof_C 	C 	0.09313	0.56759	0.70635	0.35
Mof_C 	C 	0.58727	0.98017	0.08589	0.302
Mof_C 	C 	0.56368	0.25094	0.1055	0.34
Mof_O 	O 	0.19778	0.77102	0.62037	-0.52
Mof_O 	O 	0.17214	0.6974	0.54448	-0.521
Mof_O 	O 	0.63459	0.14803	0.19646	-0.602
Mof_O 	O 	0.51706	0.04106	0.17319	-0.371
Mof_O 	O 	0.01248	0.65312	0.6161	-0.49
Mof_O 	O 	0.02534	0.5508	0.56608	-0.527
Mof_O 	O 	0.17354	0.52276	0.5994	-0.54
Mof_O 	O 	0.27517	0.64009	0.61846	-0.494
Mof_O 	O 	0.77102	0.19778	0.12037	-0.52
Mof_O 	O 	0.6974	0.17214	0.04448	-0.52
Mof_O 	O 	0.14803	0.63459	0.69646	-0.602
Mof_O 	O 	0.04106	0.51706	0.67319	-0.371
Mof_O 	O 	0.65312	0.01248	0.1161	-0.489
Mof_O 	O 	0.5508	0.02534	0.06608	-0.525
Mof_O 	O 	0.52276	0.17354	0.0994	-0.54
Mof_O 	O 	0.64009	0.27517	0.11846	-0.494
Mof_H 	H 	0.6292	0.954	0.8832	0.107
Mof_H 	H 	0.561	0.9768	0.9038	0.125
Mof_H 	H 	0.6245	0.9277	0.967	0.105
Mof_H 	H 	0.71	0.9994	0.9609	0.096
Mof_H 	H 	0.6362	0.0226	0.983	0.109
Mof_H 	H 	0.6352	0.0814	0.8579	0.111
Mof_H 	H 	0.6446	0.1162	0.9173	0.113
Mof_H 	H 	0.7173	0.0915	0.8946	0.102
Mof_C 	C 	0.64979	0.98461	0.95863	-0.229
Mof_C 	C 	0.6571	0.0775	0.8928	-0.256
Mof_N 	N 	0.61764	0.99056	0.90609	-0.166
Mof_H 	H 	0.046	0.3708	0.6168	0.106
Mof_H 	H 	0.0232	0.439	0.5962	0.125
Mof_H 	H 	0.0723	0.3755	0.533	0.106
Mof_H 	H 	0.0006	0.29	0.5391	0.097
Mof_H 	H 	0.9774	0.3638	0.517	0.111
Mof_H 	H 	0.9186	0.3648	0.6421	0.111
Mof_H 	H 	0.8838	0.3554	0.5827	0.113
Mof_H 	H 	0.9085	0.2827	0.6054	0.102
Mof_C 	C 	0.01539	0.35021	0.54137	-0.233
Mof_C 	C 	0.9225	0.3429	0.6072	-0.256
Mof_N 	N 	0.00944	0.38236	0.59391	-0.165
Mof_H 	H 	0.3708	0.046	0.1168	0.107
Mof_H 	H 	0.439	0.0232	0.0962	0.125
Mof_H 	H 	0.3755	0.0723	0.033	0.105
Mof_H 	H 	0.29	0.0006	0.0391	0.096
Mof_H 	H 	0.3638	0.9774	0.017	0.109
Mof_H 	H 	0.3648	0.9186	0.1421	0.111
Mof_H 	H 	0.3554	0.8838	0.0827	0.113
Mof_H 	H 	0.2827	0.9085	0.1054	0.102
Mof_C 	C 	0.35021	0.01539	0.04137	-0.229
Mof_C 	C 	0.3429	0.9225	0.1072	-0.256
Mof_N 	N 	0.38236	0.00944	0.09391	-0.166
Mof_H 	H 	0.954	0.6292	0.3832	0.106
Mof_H 	H 	0.9768	0.561	0.4038	0.125
Mof_H 	H 	0.9277	0.6245	0.467	0.106
Mof_H 	H 	0.9994	0.71	0.4609	0.097
Mof_H 	H 	0.0226	0.6362	0.483	0.111
Mof_H 	H 	0.0814	0.6352	0.3579	0.111
Mof_H 	H 	0.1162	0.6446	0.4173	0.113
Mof_H 	H 	0.0915	0.7173	0.3946	0.102
Mof_C 	C 	0.98461	0.64979	0.45863	-0.233
Mof_C 	C 	0.0775	0.6571	0.3928	-0.256
Mof_N 	N 	0.99056	0.61764	0.40609	-0.165
_end
