data_functionalizedCrystal
_audit_creation_method	'EQeq! by Chris Wilmer'
_symmetry_space_group_name_H-M	'P1'
_symmetry_Int_Tables_number	1
_symmetry_cell_setting	triclinic
loop_
_symmetry_equiv_pos_as_xyz
  x,y,z
_cell_length_a	15.745
_cell_length_b	26.506
_cell_length_c	27.765
_cell_angle_alpha	86.976
_cell_angle_beta	84.139
_cell_angle_gamma	88.302
loop_
_atom_site_label
_atom_site_type_symbol
_atom_site_fract_x
_atom_site_fract_y
_atom_site_fract_z
_atom_site_charge
Mof_Mo	Mo	0.27964	0.34571	0.30857	1.05
Mof_Mo	Mo	0.19378	0.39763	0.37551	1.017
Mof_Mo	Mo	0.56812	0.32518	0.41323	1.296
Mof_Mo	Mo	0.49997	0.49369	0.25169	1.07
Mof_Mo	Mo	0.45791	0.40229	0.23763	1.046
Mof_Mo	Mo	0.28657	0.42452	0.48429	0.995
Mof_Mo	Mo	0.48519	0.30223	0.31728	1.3
Mof_Mo	Mo	0.39626	0.56823	0.33714	1.306
Mof_Mo	Mo	0.238	0.51876	0.40113	1.293
Mof_Mo	Mo	0.44314	0.39391	0.49541	1.548
Mof_Mo	Mo	0.59383	0.5206	0.36019	1.07
Mof_Mo	Mo	0.61794	0.44809	0.42534	1.014
Mof_Mo	Mo	0.78232	0.83217	0.10177	1.018
Mof_Mo	Mo	0.70088	0.80119	0.18394	1.039
Mof_Mo	Mo	0.48285	0.80566	0.20832	1.306
Mof_Mo	Mo	0.79473	0.95549	0.06066	1.275
Mof_Mo	Mo	0.59415	0.89132	0.26346	1.062
Mof_Mo	Mo	0.66512	0.8813	0.00338	1.005
Mof_Mo	Mo	0.39485	0.97542	0.09307	1.041
Mof_Mo	Mo	0.5987	0.987	0.23736	1.07
Mof_Mo	Mo	0.7005	0.03534	0.13064	1.3
Mof_Mo	Mo	0.48138	0.03638	0.13953	1.02
Mof_Mo	Mo	0.49807	0.88668	0.01624	1.007
Mof_Mo	Mo	0.37888	0.84825	0.12205	1.268
Mof_Zn	Zn	0.34801	0.30708	0.42447	1.228
Mof_Zn	Zn	0.27626	0.4832	0.28164	1.229
Mof_Zn	Zn	0.63792	0.3976	0.30764	1.223
Mof_Zn	Zn	0.42682	0.52827	0.4573	1.211
Mof_Zn	Zn	0.60145	0.00859	0.02685	1.203
Mof_Zn	Zn	0.3987	0.92914	0.21539	1.228
Mof_Zn	Zn	0.56846	0.78415	0.08926	1.226
Mof_Zn	Zn	0.78892	0.9278	0.18552	1.221
Mof_C 	C 	0.9843	0.0876	0.4764	0.025
Mof_C 	C 	0.9752	0.0571	0.4384	-0.108
Mof_H 	H 	0.0094	0.062	0.4093	0.061
Mof_C 	C 	0.9154	0.019	0.4431	0.042
Mof_C 	C 	0.8726	0.0071	0.4841	-0.107
Mof_H 	H 	0.8397	0.9784	0.4864	0.06
Mof_C 	C 	0.8734	0.0357	0.5255	0.017
Mof_C 	C 	0.934	0.0767	0.5205	-0.094
Mof_H 	H 	0.9394	0.0961	0.5469	0.055
Mof_C 	C 	0.0429	0.131	0.4752	0.047
Mof_C 	C 	0.0201	0.1743	0.4958	-0.135
Mof_H 	H 	0.9665	0.1778	0.5129	0.058
Mof_C 	C 	0.076	0.2141	0.4917	0.044
Mof_H 	H 	0.0584	0.2446	0.5051	0.006
Mof_C 	C 	0.1544	0.2097	0.469	-0.129
Mof_C 	C 	0.1796	0.164	0.4458	0.051
Mof_H 	H 	0.2325	0.1618	0.4277	0.008
Mof_C 	C 	0.1299	0.1257	0.4497	-0.137
Mof_H 	H 	0.1485	0.0952	0.4367	0.072
Mof_C 	C 	0.2102	0.2564	0.4631	0.329
Mof_C 	C 	0.9116	0.9887	0.399	0.031
Mof_C 	C 	0.8871	0.94	0.4002	-0.115
Mof_H 	H 	0.8805	0.923	0.4304	0.064
Mof_C 	C 	0.8715	0.9138	0.3617	0.02
Mof_H 	H 	0.854	0.8805	0.3657	0.018
Mof_C 	C 	0.8828	0.9394	0.3137	-0.122
Mof_C 	C 	0.9074	0.9882	0.3098	0.025
Mof_H 	H 	0.9131	0.0058	0.2798	0.009
Mof_C 	C 	0.9243	0.0119	0.3524	-0.111
Mof_H 	H 	0.9449	0.0446	0.3493	0.051
Mof_C 	C 	0.8603	0.9131	0.2721	0.303
Mof_C 	C 	0.8249	0.0261	0.571	0.06
Mof_C 	C 	0.7506	0.0029	0.5777	-0.149
Mof_H 	H 	0.7302	0.9892	0.5511	0.067
Mof_C 	C 	0.7027	0.9981	0.6213	0.061
Mof_H 	H 	0.6494	0.9836	0.6228	-0.006
Mof_C 	C 	0.7315	0.0146	0.6647	-0.16
Mof_C 	C 	0.8099	0.0352	0.659	0.071
Mof_H 	H 	0.8307	0.0473	0.6862	0.004
Mof_C 	C 	0.8609	0.0392	0.6155	-0.144
Mof_H 	H 	0.9168	0.0501	0.6143	0.078
Mof_C 	C 	0.6736	0.015	0.7112	0.39
Mof_C 	C 	0.0482	0.5875	0.9502	0.032
Mof_C 	C 	0.9678	0.6134	0.9563	-0.11
Mof_H 	H 	0.9451	0.6292	0.9296	0.06
Mof_C 	C 	0.9242	0.6152	0.0008	0.026
Mof_C 	C 	0.9599	0.5904	0.0402	-0.113
Mof_H 	H 	0.9288	0.5907	0.0705	0.059
Mof_C 	C 	0.0361	0.5664	0.0369	0.037
Mof_C 	C 	0.0805	0.5636	0.9898	-0.109
Mof_H 	H 	0.1319	0.5453	0.9858	0.064
Mof_C 	C 	0.0937	0.5868	0.8998	0.047
Mof_C 	C 	0.1285	0.5376	0.8854	-0.116
Mof_H 	H 	0.1195	0.5083	0.9051	0.067
Mof_C 	C 	0.1764	0.5372	0.84	0.03
Mof_H 	H 	0.1984	0.5066	0.8287	0.019
Mof_C 	C 	0.1918	0.5798	0.812	-0.116
Mof_C 	C 	0.1556	0.6244	0.8267	0.03
Mof_H 	H 	0.1636	0.6534	0.8066	0.011
Mof_C 	C 	0.1058	0.6275	0.8722	-0.126
Mof_H 	H 	0.0822	0.6583	0.8821	0.055
Mof_C 	C 	0.2445	0.5758	0.7618	0.33
Mof_C 	C 	0.8339	0.6364	0.0064	0.052
Mof_C 	C 	0.7724	0.6273	0.9777	-0.145
Mof_H 	H 	0.785	0.6042	0.9537	0.074
Mof_C 	C 	0.6942	0.6494	0.9814	0.062
Mof_H 	H 	0.6588	0.6469	0.9569	0.007
Mof_C 	C 	0.6654	0.6772	0.0239	-0.173
Mof_C 	C 	0.7293	0.6866	0.0513	0.08
Mof_H 	H 	0.7156	0.7091	0.0756	-0.034
Mof_C 	C 	0.8111	0.6675	0.0478	-0.153
Mof_H 	H 	0.8493	0.6738	0.0701	0.052
Mof_C 	C 	0.578	0.6986	0.0277	0.353
Mof_C 	C 	0.075	0.5422	0.0777	0.034
Mof_C 	C 	0.063	0.5639	0.1227	-0.113
Mof_H 	H 	0.0293	0.5931	0.1264	0.05
Mof_C 	C 	0.1011	0.542	0.1621	0.035
Mof_H 	H 	0.0904	0.5558	0.1923	0.011
Mof_C 	C 	0.1521	0.5019	0.157	-0.11
Mof_C 	C 	0.1657	0.4785	0.1144	0.021
Mof_H 	H 	0.2002	0.4494	0.1121	0.023
Mof_C 	C 	0.127	0.4989	0.0734	-0.104
Mof_H 	H 	0.1362	0.4834	0.0439	0.064
Mof_C 	C 	0.202	0.4787	0.1967	0.301
Mof_O 	O 	0.6383	0.4513	0.3533	-0.735
Mof_O 	O 	0.3916	0.4614	0.4862	-0.818
Mof_O 	O 	0.4603	0.301	0.3889	-0.784
Mof_O 	O 	0.355	0.5469	0.4069	-0.779
Mof_O 	O 	0.5828	0.3389	0.3406	-0.776
Mof_O 	O 	0.3493	0.361	0.4715	-0.779
Mof_O 	O 	0.2916	0.5284	0.3317	-0.784
Mof_O 	O 	0.5566	0.4284	0.2624	-0.726
Mof_O 	O 	0.2703	0.3385	0.3789	-0.724
Mof_O 	O 	0.5573	0.4282	0.4904	-0.745
Mof_O 	O 	0.24	0.4174	0.3082	-0.716
Mof_O 	O 	0.6448	0.3746	0.4179	-0.655
Mof_O 	O 	0.5975	0.521	0.2842	-0.485
Mof_O 	O 	0.5427	0.5069	0.4255	-0.761
Mof_O 	O 	0.3369	0.3692	0.2425	-0.475
Mof_O 	O 	0.4285	0.3802	0.5554	-0.396
Mof_O 	O 	0.24	0.4926	0.4627	-0.662
Mof_O 	O 	0.1906	0.3937	0.4498	-0.475
Mof_O 	O 	0.5028	0.5738	0.3569	-0.634
Mof_O 	O 	0.4313	0.5538	0.2751	-0.654
Mof_O 	O 	0.3889	0.4642	0.2486	-0.725
Mof_O 	O 	0.5088	0.3308	0.4723	-0.671
Mof_O 	O 	0.1708	0.4722	0.3795	-0.652
Mof_O 	O 	0.5096	0.3359	0.2571	-0.629
Mof_O 	O 	0.3722	0.2934	0.3127	-0.648
Mof_O 	O 	0.2891	0.2478	0.444	-0.481
Mof_O 	O 	0.1806	0.2961	0.4767	-0.33
Mof_O 	O 	0.2632	0.5333	0.7488	-0.338
Mof_O 	O 	0.2663	0.6173	0.7404	-0.48
Mof_O 	O 	0.2025	0.5082	0.2337	-0.462
Mof_O 	O 	0.2389	0.4368	0.1957	-0.307
Mof_O 	O 	0.4969	0.0141	0.0732	-0.772
Mof_O 	O 	0.5053	0.9397	0.2448	-0.728
Mof_O 	O 	0.4133	0.9456	0.0284	-0.721
Mof_O 	O 	0.5861	0.9391	0.008	-0.762
Mof_O 	O 	0.6993	0.0078	0.0647	-0.795
Mof_O 	O 	0.5058	0.8396	0.2601	-0.651
Mof_O 	O 	0.401	0.8628	0.1908	-0.772
Mof_O 	O 	0.6863	0.9335	0.2319	-0.728
Mof_O 	O 	0.6784	0.793	0.1162	-0.726
Mof_O 	O 	0.6847	0.0276	0.1969	-0.652
Mof_O 	O 	0.5071	0.0347	0.2113	-0.482
Mof_O 	O 	0.4756	0.8007	0.137	-0.778
Mof_O 	O 	0.3319	0.9135	0.1174	-0.637
Mof_O 	O 	0.4129	0.844	0.0579	-0.642
Mof_O 	O 	0.755	0.8308	0.0304	-0.496
Mof_O 	O 	0.8456	0.896	0.0819	-0.643
Mof_O 	O 	0.5799	0.8353	0.0348	-0.74
Mof_O 	O 	0.4075	0.9807	0.1613	-0.74
Mof_O 	O 	0.7532	0.9334	0.0071	-0.673
Mof_O 	O 	0.778	0.8564	0.1665	-0.733
Mof_O 	O 	0.5874	0.7726	0.2013	-0.644
Mof_O 	O 	0.597	0.0657	0.1244	-0.669
Mof_O 	O 	0.7813	0.9747	0.1299	-0.784
Mof_O 	O 	0.6803	0.8344	0.2526	-0.47
Mof_O 	O 	0.688	0.0515	0.7358	-0.509
Mof_O 	O 	0.6218	0.9827	0.7206	-0.346
Mof_O 	O 	0.552	0.7195	0.0675	-0.49
Mof_O 	O 	0.5166	0.6742	0.0106	-0.113
Mof_O 	O 	0.8241	0.8702	0.2754	-0.299
Mof_O 	O 	0.8721	0.938	0.2303	-0.47
Mof_O 	O 	0.5318	0.6965	0.9916	-0.205
Mof_O 	O 	0.473	0.3767	0.5514	-0.209
Mof_Mo	Mo	0.72036	0.65429	0.69143	1.051
Mof_Mo	Mo	0.80622	0.60237	0.62449	1.018
Mof_Mo	Mo	0.43188	0.67482	0.58677	1.297
Mof_Mo	Mo	0.50003	0.50631	0.74831	1.071
Mof_Mo	Mo	0.54209	0.59771	0.76237	1.047
Mof_Mo	Mo	0.71343	0.57548	0.51571	0.996
Mof_Mo	Mo	0.51481	0.69777	0.68272	1.301
Mof_Mo	Mo	0.60374	0.43177	0.66286	1.307
Mof_Mo	Mo	0.762	0.48124	0.59887	1.294
Mof_Mo	Mo	0.55686	0.60609	0.50459	1.549
Mof_Mo	Mo	0.40617	0.4794	0.63981	1.071
Mof_Mo	Mo	0.38206	0.55191	0.57466	1.015
Mof_Mo	Mo	0.21768	0.16783	0.89823	1.018
Mof_Mo	Mo	0.29912	0.19881	0.81606	1.039
Mof_Mo	Mo	0.51715	0.19434	0.79168	1.306
Mof_Mo	Mo	0.20527	0.04451	0.93934	1.275
Mof_Mo	Mo	0.40585	0.10868	0.73654	1.062
Mof_Mo	Mo	0.33488	0.1187	0.99662	1.005
Mof_Mo	Mo	0.60515	0.02458	0.90693	1.041
Mof_Mo	Mo	0.4013	0.013	0.76264	1.07
Mof_Mo	Mo	0.2995	0.96466	0.86936	1.3
Mof_Mo	Mo	0.51862	0.96362	0.86047	1.02
Mof_Mo	Mo	0.50193	0.11332	0.98376	1.007
Mof_Mo	Mo	0.62112	0.15175	0.87795	1.268
Mof_Zn	Zn	0.65199	0.69292	0.57553	1.228
Mof_Zn	Zn	0.72374	0.5168	0.71836	1.229
Mof_Zn	Zn	0.36208	0.6024	0.69236	1.223
Mof_Zn	Zn	0.57318	0.47173	0.5427	1.211
Mof_Zn	Zn	0.39855	0.99141	0.97315	1.203
Mof_Zn	Zn	0.6013	0.07086	0.78461	1.228
Mof_Zn	Zn	0.43154	0.21585	0.91074	1.226
Mof_Zn	Zn	0.21108	0.0722	0.81448	1.221
Mof_C 	C 	0.0157	0.9124	0.5236	0.025
Mof_C 	C 	0.0248	0.9429	0.5616	-0.108
Mof_H 	H 	0.9906	0.938	0.5907	0.061
Mof_C 	C 	0.0846	0.981	0.5569	0.042
Mof_C 	C 	0.1274	0.9929	0.5159	-0.107
Mof_H 	H 	0.1603	0.0216	0.5136	0.06
Mof_C 	C 	0.1266	0.9643	0.4745	0.017
Mof_C 	C 	0.066	0.9233	0.4795	-0.094
Mof_H 	H 	0.0606	0.9039	0.4531	0.055
Mof_C 	C 	0.9571	0.869	0.5248	0.047
Mof_C 	C 	0.9799	0.8257	0.5042	-0.135
Mof_H 	H 	0.0335	0.8222	0.4871	0.058
Mof_C 	C 	0.924	0.7859	0.5083	0.044
Mof_H 	H 	0.9416	0.7554	0.4949	0.006
Mof_C 	C 	0.8456	0.7903	0.531	-0.129
Mof_C 	C 	0.8204	0.836	0.5542	0.051
Mof_H 	H 	0.7675	0.8382	0.5723	0.008
Mof_C 	C 	0.8701	0.8743	0.5503	-0.137
Mof_H 	H 	0.8515	0.9048	0.5633	0.072
Mof_C 	C 	0.7898	0.7436	0.5369	0.329
Mof_C 	C 	0.0884	0.0113	0.601	0.031
Mof_C 	C 	0.1129	0.06	0.5998	-0.115
Mof_H 	H 	0.1195	0.077	0.5696	0.064
Mof_C 	C 	0.1285	0.0862	0.6383	0.02
Mof_H 	H 	0.146	0.1195	0.6343	0.018
Mof_C 	C 	0.1172	0.0606	0.6863	-0.122
Mof_C 	C 	0.0926	0.0118	0.6902	0.025
Mof_H 	H 	0.0869	0.9942	0.7202	0.009
Mof_C 	C 	0.0757	0.9881	0.6476	-0.111
Mof_H 	H 	0.0551	0.9554	0.6507	0.051
Mof_C 	C 	0.1397	0.0869	0.7279	0.303
Mof_C 	C 	0.1751	0.9739	0.429	0.06
Mof_C 	C 	0.2494	0.9971	0.4223	-0.149
Mof_H 	H 	0.2698	0.0108	0.4489	0.067
Mof_C 	C 	0.2973	0.0019	0.3787	0.061
Mof_H 	H 	0.3506	0.0164	0.3772	-0.006
Mof_C 	C 	0.2685	0.9854	0.3353	-0.16
Mof_C 	C 	0.1901	0.9648	0.341	0.071
Mof_H 	H 	0.1693	0.9527	0.3138	0.004
Mof_C 	C 	0.1391	0.9608	0.3845	-0.144
Mof_H 	H 	0.0832	0.9499	0.3857	0.078
Mof_C 	C 	0.3264	0.985	0.2888	0.39
Mof_C 	C 	0.9518	0.4125	0.0498	0.032
Mof_C 	C 	0.0322	0.3866	0.0437	-0.11
Mof_H 	H 	0.0549	0.3708	0.0704	0.06
Mof_C 	C 	0.0758	0.3848	0.9992	0.026
Mof_C 	C 	0.0401	0.4096	0.9598	-0.113
Mof_H 	H 	0.0712	0.4093	0.9295	0.059
Mof_C 	C 	0.9639	0.4336	0.9631	0.037
Mof_C 	C 	0.9195	0.4364	0.0102	-0.109
Mof_H 	H 	0.8681	0.4547	0.0142	0.064
Mof_C 	C 	0.9063	0.4132	0.1002	0.047
Mof_C 	C 	0.8715	0.4624	0.1146	-0.116
Mof_H 	H 	0.8805	0.4917	0.0949	0.067
Mof_C 	C 	0.8236	0.4628	0.16	0.03
Mof_H 	H 	0.8016	0.4934	0.1713	0.019
Mof_C 	C 	0.8082	0.4202	0.188	-0.116
Mof_C 	C 	0.8444	0.3756	0.1733	0.03
Mof_H 	H 	0.8364	0.3466	0.1934	0.011
Mof_C 	C 	0.8942	0.3725	0.1278	-0.126
Mof_H 	H 	0.9178	0.3417	0.1179	0.055
Mof_C 	C 	0.7555	0.4242	0.2382	0.33
Mof_C 	C 	0.1661	0.3636	0.9936	0.052
Mof_C 	C 	0.2276	0.3727	0.0223	-0.145
Mof_H 	H 	0.215	0.3958	0.0463	0.074
Mof_C 	C 	0.3058	0.3506	0.0186	0.062
Mof_H 	H 	0.3412	0.3531	0.0431	0.007
Mof_C 	C 	0.3346	0.3228	0.9761	-0.173
Mof_C 	C 	0.2707	0.3134	0.9487	0.08
Mof_H 	H 	0.2844	0.2909	0.9244	-0.034
Mof_C 	C 	0.1889	0.3325	0.9522	-0.153
Mof_H 	H 	0.1507	0.3262	0.9299	0.052
Mof_C 	C 	0.422	0.3014	0.9723	0.353
Mof_C 	C 	0.925	0.4578	0.9223	0.034
Mof_C 	C 	0.937	0.4361	0.8773	-0.113
Mof_H 	H 	0.9707	0.4069	0.8736	0.05
Mof_C 	C 	0.8989	0.458	0.8379	0.035
Mof_H 	H 	0.9096	0.4442	0.8077	0.011
Mof_C 	C 	0.8479	0.4981	0.843	-0.11
Mof_C 	C 	0.8343	0.5215	0.8856	0.021
Mof_H 	H 	0.7998	0.5506	0.8879	0.023
Mof_C 	C 	0.873	0.5011	0.9266	-0.104
Mof_H 	H 	0.8638	0.5166	0.9561	0.064
Mof_C 	C 	0.798	0.5213	0.8033	0.301
Mof_O 	O 	0.3617	0.5487	0.6467	-0.735
Mof_O 	O 	0.6084	0.5386	0.5138	-0.818
Mof_O 	O 	0.5397	0.699	0.6111	-0.784
Mof_O 	O 	0.645	0.4531	0.5931	-0.779
Mof_O 	O 	0.4172	0.6611	0.6594	-0.776
Mof_O 	O 	0.6507	0.639	0.5285	-0.779
Mof_O 	O 	0.7084	0.4716	0.6683	-0.784
Mof_O 	O 	0.4434	0.5716	0.7376	-0.726
Mof_O 	O 	0.7297	0.6615	0.6211	-0.724
Mof_O 	O 	0.4427	0.5718	0.5096	-0.745
Mof_O 	O 	0.76	0.5826	0.6918	-0.716
Mof_O 	O 	0.3552	0.6254	0.5821	-0.655
Mof_O 	O 	0.4025	0.479	0.7158	-0.485
Mof_O 	O 	0.4573	0.4931	0.5745	-0.761
Mof_O 	O 	0.6631	0.6308	0.7575	-0.475
Mof_O 	O 	0.5715	0.6198	0.4446	-0.396
Mof_O 	O 	0.76	0.5074	0.5373	-0.662
Mof_O 	O 	0.8094	0.6063	0.5502	-0.475
Mof_O 	O 	0.4972	0.4262	0.6431	-0.634
Mof_O 	O 	0.5687	0.4462	0.7249	-0.654
Mof_O 	O 	0.6111	0.5358	0.7514	-0.725
Mof_O 	O 	0.4912	0.6692	0.5277	-0.671
Mof_O 	O 	0.8292	0.5278	0.6205	-0.652
Mof_O 	O 	0.4904	0.6641	0.7429	-0.629
Mof_O 	O 	0.6278	0.7066	0.6873	-0.648
Mof_O 	O 	0.7109	0.7522	0.556	-0.481
Mof_O 	O 	0.8194	0.7039	0.5233	-0.33
Mof_O 	O 	0.7368	0.4667	0.2512	-0.338
Mof_O 	O 	0.7337	0.3827	0.2596	-0.48
Mof_O 	O 	0.7975	0.4918	0.7663	-0.462
Mof_O 	O 	0.7611	0.5632	0.8043	-0.307
Mof_O 	O 	0.5031	0.9859	0.9268	-0.772
Mof_O 	O 	0.4947	0.0603	0.7552	-0.728
Mof_O 	O 	0.5867	0.0544	0.9716	-0.721
Mof_O 	O 	0.4139	0.0609	0.992	-0.762
Mof_O 	O 	0.3007	0.9922	0.9353	-0.795
Mof_O 	O 	0.4942	0.1604	0.7399	-0.651
Mof_O 	O 	0.599	0.1372	0.8092	-0.772
Mof_O 	O 	0.3137	0.0665	0.7681	-0.728
Mof_O 	O 	0.3216	0.207	0.8838	-0.726
Mof_O 	O 	0.3153	0.9724	0.8031	-0.652
Mof_O 	O 	0.4929	0.9653	0.7887	-0.482
Mof_O 	O 	0.5244	0.1993	0.863	-0.778
Mof_O 	O 	0.6681	0.0865	0.8826	-0.637
Mof_O 	O 	0.5871	0.156	0.9421	-0.642
Mof_O 	O 	0.245	0.1692	0.9696	-0.496
Mof_O 	O 	0.1544	0.104	0.9181	-0.643
Mof_O 	O 	0.4201	0.1647	0.9652	-0.74
Mof_O 	O 	0.5925	0.0193	0.8387	-0.74
Mof_O 	O 	0.2468	0.0666	0.9929	-0.673
Mof_O 	O 	0.222	0.1436	0.8335	-0.733
Mof_O 	O 	0.4126	0.2274	0.7987	-0.644
Mof_O 	O 	0.403	0.9343	0.8756	-0.669
Mof_O 	O 	0.2187	0.0253	0.8701	-0.784
Mof_O 	O 	0.3197	0.1656	0.7474	-0.47
Mof_O 	O 	0.312	0.9485	0.2642	-0.509
Mof_O 	O 	0.3782	0.0173	0.2794	-0.346
Mof_O 	O 	0.448	0.2805	0.9325	-0.49
Mof_O 	O 	0.4834	0.3258	0.9894	-0.113
Mof_O 	O 	0.1759	0.1298	0.7246	-0.299
Mof_O 	O 	0.1279	0.062	0.7697	-0.47
Mof_O 	O 	0.4682	0.3035	0.0084	-0.205
Mof_O 	O 	0.527	0.6233	0.4486	-0.209
_end
