data_functionalizedCrystal
_audit_creation_method	'EQeq! by Chris Wilmer'
_symmetry_space_group_name_H-M	'P1'
_symmetry_Int_Tables_number	1
_symmetry_cell_setting	triclinic
loop_
_symmetry_equiv_pos_as_xyz
  x,y,z
_cell_length_a	19.9853
_cell_length_b	19.9853
_cell_length_c	19.9853
_cell_angle_alpha	90
_cell_angle_beta	90
_cell_angle_gamma	90
loop_
_atom_site_label
_atom_site_type_symbol
_atom_site_fract_x
_atom_site_fract_y
_atom_site_fract_z
_atom_site_charge
Mof_Pr	Pr	0.51204	0.74408	0.34638	1.901
Mof_O 	O 	0.55063	0.64175	0.29195	-0.567
Mof_O 	O 	0.58086	0.5799	0.20462	-0.518
Mof_O 	O 	0.40902	0.88459	0.19987	-0.527
Mof_O 	O 	0.46156	0.83834	0.28616	-0.565
Mof_N 	N 	0.5006	0.73581	0.21688	-0.205
Mof_C 	C 	0.44563	0.8413	0.22543	0.402
Mof_C 	C 	0.55497	0.63062	0.22963	0.393
Mof_C 	C 	0.47291	0.7856	0.18191	-0.113
Mof_C 	C 	0.52595	0.68365	0.18435	-0.108
Mof_C 	C 	0.4701	0.7856	0.11316	0.01
Mof_H 	H 	0.4504	0.8207	0.0898	-0.017
Mof_C 	C 	0.5253	0.6793	0.11572	0.006
Mof_H 	H 	0.5429	0.6421	0.094	-0.006
Mof_C 	C 	0.4978	0.7314	0.07989	-0.1
Mof_H 	H 	0.4979	0.7302	0.0334	0.018
Mof_Pr	Pr	0.98796	0.25592	0.84638	1.901
Mof_O 	O 	0.94937	0.35825	0.79195	-0.568
Mof_O 	O 	0.91914	0.4201	0.70462	-0.518
Mof_O 	O 	0.09098	0.11541	0.69987	-0.528
Mof_O 	O 	0.03844	0.16166	0.78616	-0.566
Mof_N 	N 	0.9994	0.26419	0.71688	-0.206
Mof_C 	C 	0.05437	0.1587	0.72543	0.402
Mof_C 	C 	0.94503	0.36938	0.72963	0.392
Mof_C 	C 	0.02709	0.2144	0.68191	-0.112
Mof_C 	C 	0.97405	0.31635	0.68435	-0.107
Mof_C 	C 	0.0299	0.2144	0.61316	0.009
Mof_H 	H 	0.0496	0.1793	0.5898	-0.016
Mof_C 	C 	0.9747	0.3207	0.61572	0.005
Mof_H 	H 	0.9571	0.3579	0.594	-0.006
Mof_C 	C 	0.0022	0.2686	0.57989	-0.099
Mof_H 	H 	0.0021	0.2698	0.5334	0.018
Mof_Pr	Pr	0.48796	0.24408	0.15362	1.901
Mof_O 	O 	0.44937	0.14175	0.20805	-0.568
Mof_O 	O 	0.41914	0.0799	0.29538	-0.518
Mof_O 	O 	0.59098	0.38459	0.30013	-0.528
Mof_O 	O 	0.53844	0.33834	0.21384	-0.566
Mof_N 	N 	0.4994	0.23581	0.28312	-0.206
Mof_C 	C 	0.55437	0.3413	0.27457	0.402
Mof_C 	C 	0.44503	0.13062	0.27037	0.392
Mof_C 	C 	0.52709	0.2856	0.31809	-0.113
Mof_C 	C 	0.47405	0.18365	0.31565	-0.108
Mof_C 	C 	0.5299	0.2856	0.38684	0.01
Mof_H 	H 	0.5496	0.3207	0.4102	-0.016
Mof_C 	C 	0.4747	0.1793	0.38428	0.006
Mof_H 	H 	0.4571	0.1421	0.406	-0.006
Mof_C 	C 	0.5022	0.2314	0.42011	-0.1
Mof_H 	H 	0.5021	0.2302	0.4666	0.018
Mof_Pr	Pr	0.01204	0.75592	0.65362	1.896
Mof_O 	O 	0.05063	0.85825	0.70805	-0.568
Mof_O 	O 	0.08086	0.9201	0.79538	-0.519
Mof_O 	O 	0.90902	0.61541	0.80013	-0.528
Mof_O 	O 	0.96156	0.66166	0.71384	-0.564
Mof_N 	N 	0.0006	0.76419	0.78312	-0.208
Mof_C 	C 	0.94563	0.6587	0.77457	0.4
Mof_C 	C 	0.05497	0.86938	0.77037	0.391
Mof_C 	C 	0.97291	0.7144	0.81809	-0.107
Mof_C 	C 	0.02595	0.81635	0.81565	-0.105
Mof_C 	C 	0.9701	0.7144	0.88684	0.004
Mof_H 	H 	0.9504	0.6793	0.9102	-0.013
Mof_C 	C 	0.0253	0.8207	0.88428	-0.003
Mof_H 	H 	0.0429	0.8579	0.906	-0.003
Mof_C 	C 	0.9978	0.7686	0.92011	-0.089
Mof_H 	H 	0.9979	0.7698	0.9666	0.016
Mof_Pr	Pr	0.34638	0.51204	0.74408	1.9
Mof_O 	O 	0.29195	0.55063	0.64175	-0.568
Mof_O 	O 	0.20462	0.58086	0.5799	-0.519
Mof_O 	O 	0.19987	0.40902	0.88459	-0.528
Mof_O 	O 	0.28616	0.46156	0.83834	-0.566
Mof_N 	N 	0.21688	0.5006	0.73581	-0.206
Mof_C 	C 	0.22543	0.44563	0.8413	0.402
Mof_C 	C 	0.22963	0.55497	0.63062	0.393
Mof_C 	C 	0.18191	0.47291	0.7856	-0.113
Mof_C 	C 	0.18435	0.52595	0.68365	-0.108
Mof_C 	C 	0.11316	0.4701	0.7856	0.01
Mof_H 	H 	0.0898	0.4504	0.8207	-0.017
Mof_C 	C 	0.11572	0.5253	0.6793	0.006
Mof_H 	H 	0.094	0.5429	0.6421	-0.006
Mof_C 	C 	0.07989	0.4978	0.7314	-0.1
Mof_H 	H 	0.0334	0.4979	0.7302	0.018
Mof_Pr	Pr	0.84638	0.98796	0.25592	1.901
Mof_O 	O 	0.79195	0.94937	0.35825	-0.568
Mof_O 	O 	0.70462	0.91914	0.4201	-0.518
Mof_O 	O 	0.69987	0.09098	0.11541	-0.528
Mof_O 	O 	0.78616	0.03844	0.16166	-0.566
Mof_N 	N 	0.71688	0.9994	0.26419	-0.206
Mof_C 	C 	0.72543	0.05437	0.1587	0.402
Mof_C 	C 	0.72963	0.94503	0.36938	0.392
Mof_C 	C 	0.68191	0.02709	0.2144	-0.112
Mof_C 	C 	0.68435	0.97405	0.31635	-0.107
Mof_C 	C 	0.61316	0.0299	0.2144	0.009
Mof_H 	H 	0.5898	0.0496	0.1793	-0.016
Mof_C 	C 	0.61572	0.9747	0.3207	0.005
Mof_H 	H 	0.594	0.9571	0.3579	-0.006
Mof_C 	C 	0.57989	0.0022	0.2686	-0.099
Mof_H 	H 	0.5334	0.0021	0.2698	0.018
Mof_Pr	Pr	0.15362	0.48796	0.24408	1.901
Mof_O 	O 	0.20805	0.44937	0.14175	-0.568
Mof_O 	O 	0.29538	0.41914	0.0799	-0.518
Mof_O 	O 	0.30013	0.59098	0.38459	-0.528
Mof_O 	O 	0.21384	0.53844	0.33834	-0.566
Mof_N 	N 	0.28312	0.4994	0.23581	-0.206
Mof_C 	C 	0.27457	0.55437	0.3413	0.402
Mof_C 	C 	0.27037	0.44503	0.13062	0.392
Mof_C 	C 	0.31809	0.52709	0.2856	-0.113
Mof_C 	C 	0.31565	0.47405	0.18365	-0.108
Mof_C 	C 	0.38684	0.5299	0.2856	0.01
Mof_H 	H 	0.4102	0.5496	0.3207	-0.016
Mof_C 	C 	0.38428	0.4747	0.1793	0.006
Mof_H 	H 	0.406	0.4571	0.1421	-0.006
Mof_C 	C 	0.42011	0.5022	0.2314	-0.1
Mof_H 	H 	0.4666	0.5021	0.2302	0.018
Mof_Pr	Pr	0.65362	0.01204	0.75592	1.896
Mof_O 	O 	0.70805	0.05063	0.85825	-0.568
Mof_O 	O 	0.79538	0.08086	0.9201	-0.519
Mof_O 	O 	0.80013	0.90902	0.61541	-0.528
Mof_O 	O 	0.71384	0.96156	0.66166	-0.564
Mof_N 	N 	0.78312	0.0006	0.76419	-0.208
Mof_C 	C 	0.77457	0.94563	0.6587	0.4
Mof_C 	C 	0.77037	0.05497	0.86938	0.391
Mof_C 	C 	0.81809	0.97291	0.7144	-0.107
Mof_C 	C 	0.81565	0.02595	0.81635	-0.105
Mof_C 	C 	0.88684	0.9701	0.7144	0.004
Mof_H 	H 	0.9102	0.9504	0.6793	-0.013
Mof_C 	C 	0.88428	0.0253	0.8207	-0.003
Mof_H 	H 	0.906	0.0429	0.8579	-0.003
Mof_C 	C 	0.92011	0.9978	0.7686	-0.089
Mof_H 	H 	0.9666	0.9979	0.7698	0.016
Mof_Pr	Pr	0.74408	0.34638	0.51204	1.9
Mof_O 	O 	0.64175	0.29195	0.55063	-0.568
Mof_O 	O 	0.5799	0.20462	0.58086	-0.519
Mof_O 	O 	0.88459	0.19987	0.40902	-0.528
Mof_O 	O 	0.83834	0.28616	0.46156	-0.566
Mof_N 	N 	0.73581	0.21688	0.5006	-0.206
Mof_C 	C 	0.8413	0.22543	0.44563	0.402
Mof_C 	C 	0.63062	0.22963	0.55497	0.393
Mof_C 	C 	0.7856	0.18191	0.47291	-0.113
Mof_C 	C 	0.68365	0.18435	0.52595	-0.108
Mof_C 	C 	0.7856	0.11316	0.4701	0.01
Mof_H 	H 	0.8207	0.0898	0.4504	-0.017
Mof_C 	C 	0.6793	0.11572	0.5253	0.006
Mof_H 	H 	0.6421	0.094	0.5429	-0.006
Mof_C 	C 	0.7314	0.07989	0.4978	-0.1
Mof_H 	H 	0.7302	0.0334	0.4979	0.018
Mof_Pr	Pr	0.25592	0.84638	0.98796	1.901
Mof_O 	O 	0.35825	0.79195	0.94937	-0.568
Mof_O 	O 	0.4201	0.70462	0.91914	-0.518
Mof_O 	O 	0.11541	0.69987	0.09098	-0.528
Mof_O 	O 	0.16166	0.78616	0.03844	-0.566
Mof_N 	N 	0.26419	0.71688	0.9994	-0.206
Mof_C 	C 	0.1587	0.72543	0.05437	0.402
Mof_C 	C 	0.36938	0.72963	0.94503	0.392
Mof_C 	C 	0.2144	0.68191	0.02709	-0.112
Mof_C 	C 	0.31635	0.68435	0.97405	-0.107
Mof_C 	C 	0.2144	0.61316	0.0299	0.009
Mof_H 	H 	0.1793	0.5898	0.0496	-0.016
Mof_C 	C 	0.3207	0.61572	0.9747	0.005
Mof_H 	H 	0.3579	0.594	0.9571	-0.006
Mof_C 	C 	0.2686	0.57989	0.0022	-0.099
Mof_H 	H 	0.2698	0.5334	0.0021	0.018
Mof_Pr	Pr	0.24408	0.15362	0.48796	1.901
Mof_O 	O 	0.14175	0.20805	0.44937	-0.568
Mof_O 	O 	0.0799	0.29538	0.41914	-0.518
Mof_O 	O 	0.38459	0.30013	0.59098	-0.528
Mof_O 	O 	0.33834	0.21384	0.53844	-0.566
Mof_N 	N 	0.23581	0.28312	0.4994	-0.206
Mof_C 	C 	0.3413	0.27457	0.55437	0.402
Mof_C 	C 	0.13062	0.27037	0.44503	0.392
Mof_C 	C 	0.2856	0.31809	0.52709	-0.113
Mof_C 	C 	0.18365	0.31565	0.47405	-0.108
Mof_C 	C 	0.2856	0.38684	0.5299	0.01
Mof_H 	H 	0.3207	0.4102	0.5496	-0.016
Mof_C 	C 	0.1793	0.38428	0.4747	0.006
Mof_H 	H 	0.1421	0.406	0.4571	-0.006
Mof_C 	C 	0.2314	0.42011	0.5022	-0.1
Mof_H 	H 	0.2302	0.4666	0.5021	0.018
Mof_Pr	Pr	0.75592	0.65362	0.01204	1.896
Mof_O 	O 	0.85825	0.70805	0.05063	-0.568
Mof_O 	O 	0.9201	0.79538	0.08086	-0.519
Mof_O 	O 	0.61541	0.80013	0.90902	-0.528
Mof_O 	O 	0.66166	0.71384	0.96156	-0.564
Mof_N 	N 	0.76419	0.78312	0.0006	-0.208
Mof_C 	C 	0.6587	0.77457	0.94563	0.4
Mof_C 	C 	0.86938	0.77037	0.05497	0.391
Mof_C 	C 	0.7144	0.81809	0.97291	-0.107
Mof_C 	C 	0.81635	0.81565	0.02595	-0.105
Mof_C 	C 	0.7144	0.88684	0.9701	0.004
Mof_H 	H 	0.6793	0.9102	0.9504	-0.013
Mof_C 	C 	0.8207	0.88428	0.0253	-0.003
Mof_H 	H 	0.8579	0.906	0.0429	-0.003
Mof_C 	C 	0.7686	0.92011	0.9978	-0.089
Mof_H 	H 	0.7698	0.9666	0.9979	0.016
Mof_Pr	Pr	0.48796	0.25592	0.65362	1.9
Mof_O 	O 	0.44937	0.35825	0.70805	-0.568
Mof_O 	O 	0.41914	0.4201	0.79538	-0.519
Mof_O 	O 	0.59098	0.11541	0.80013	-0.528
Mof_O 	O 	0.53844	0.16166	0.71384	-0.566
Mof_N 	N 	0.4994	0.26419	0.78312	-0.206
Mof_C 	C 	0.55437	0.1587	0.77457	0.402
Mof_C 	C 	0.44503	0.36938	0.77037	0.393
Mof_C 	C 	0.52709	0.2144	0.81809	-0.113
Mof_C 	C 	0.47405	0.31635	0.81565	-0.108
Mof_C 	C 	0.5299	0.2144	0.88684	0.01
Mof_H 	H 	0.5496	0.1793	0.9102	-0.017
Mof_C 	C 	0.4747	0.3207	0.88428	0.006
Mof_H 	H 	0.4571	0.3579	0.906	-0.006
Mof_C 	C 	0.5022	0.2686	0.92011	-0.1
Mof_H 	H 	0.5021	0.2698	0.9666	0.018
Mof_Pr	Pr	0.01204	0.74408	0.15362	1.901
Mof_O 	O 	0.05063	0.64175	0.20805	-0.568
Mof_O 	O 	0.08086	0.5799	0.29538	-0.518
Mof_O 	O 	0.90902	0.88459	0.30013	-0.528
Mof_O 	O 	0.96156	0.83834	0.21384	-0.566
Mof_N 	N 	0.0006	0.73581	0.28312	-0.206
Mof_C 	C 	0.94563	0.8413	0.27457	0.402
Mof_C 	C 	0.05497	0.63062	0.27037	0.392
Mof_C 	C 	0.97291	0.7856	0.31809	-0.112
Mof_C 	C 	0.02595	0.68365	0.31565	-0.107
Mof_C 	C 	0.9701	0.7856	0.38684	0.009
Mof_H 	H 	0.9504	0.8207	0.4102	-0.016
Mof_C 	C 	0.0253	0.6793	0.38428	0.005
Mof_H 	H 	0.0429	0.6421	0.406	-0.006
Mof_C 	C 	0.9978	0.7314	0.42011	-0.099
Mof_H 	H 	0.9979	0.7302	0.4666	0.018
Mof_Pr	Pr	0.51204	0.75592	0.84638	1.901
Mof_O 	O 	0.55063	0.85825	0.79195	-0.568
Mof_O 	O 	0.58086	0.9201	0.70462	-0.518
Mof_O 	O 	0.40902	0.61541	0.69987	-0.528
Mof_O 	O 	0.46156	0.66166	0.78616	-0.566
Mof_N 	N 	0.5006	0.76419	0.71688	-0.206
Mof_C 	C 	0.44563	0.6587	0.72543	0.402
Mof_C 	C 	0.55497	0.86938	0.72963	0.392
Mof_C 	C 	0.47291	0.7144	0.68191	-0.113
Mof_C 	C 	0.52595	0.81635	0.68435	-0.108
Mof_C 	C 	0.4701	0.7144	0.61316	0.01
Mof_H 	H 	0.4504	0.6793	0.5898	-0.016
Mof_C 	C 	0.5253	0.8207	0.61572	0.006
Mof_H 	H 	0.5429	0.8579	0.594	-0.006
Mof_C 	C 	0.4978	0.7686	0.57989	-0.1
Mof_H 	H 	0.4979	0.7698	0.5334	0.018
Mof_Pr	Pr	0.98796	0.24408	0.34638	1.896
Mof_O 	O 	0.94937	0.14175	0.29195	-0.568
Mof_O 	O 	0.91914	0.0799	0.20462	-0.519
Mof_O 	O 	0.09098	0.38459	0.19987	-0.528
Mof_O 	O 	0.03844	0.33834	0.28616	-0.564
Mof_N 	N 	0.9994	0.23581	0.21688	-0.208
Mof_C 	C 	0.05437	0.3413	0.22543	0.4
Mof_C 	C 	0.94503	0.13062	0.22963	0.391
Mof_C 	C 	0.02709	0.2856	0.18191	-0.107
Mof_C 	C 	0.97405	0.18365	0.18435	-0.105
Mof_C 	C 	0.0299	0.2856	0.11316	0.004
Mof_H 	H 	0.0496	0.3207	0.0898	-0.013
Mof_C 	C 	0.9747	0.1793	0.11572	-0.003
Mof_H 	H 	0.9571	0.1421	0.094	-0.003
Mof_C 	C 	0.0022	0.2314	0.07989	-0.089
Mof_H 	H 	0.0021	0.2302	0.0334	0.016
Mof_Pr	Pr	0.65362	0.48796	0.25592	1.9
Mof_O 	O 	0.70805	0.44937	0.35825	-0.568
Mof_O 	O 	0.79538	0.41914	0.4201	-0.519
Mof_O 	O 	0.80013	0.59098	0.11541	-0.528
Mof_O 	O 	0.71384	0.53844	0.16166	-0.566
Mof_N 	N 	0.78312	0.4994	0.26419	-0.206
Mof_C 	C 	0.77457	0.55437	0.1587	0.402
Mof_C 	C 	0.77037	0.44503	0.36938	0.393
Mof_C 	C 	0.81809	0.52709	0.2144	-0.113
Mof_C 	C 	0.81565	0.47405	0.31635	-0.108
Mof_C 	C 	0.88684	0.5299	0.2144	0.01
Mof_H 	H 	0.9102	0.5496	0.1793	-0.017
Mof_C 	C 	0.88428	0.4747	0.3207	0.006
Mof_H 	H 	0.906	0.4571	0.3579	-0.006
Mof_C 	C 	0.92011	0.5022	0.2686	-0.1
Mof_H 	H 	0.9666	0.5021	0.2698	0.018
Mof_Pr	Pr	0.15362	0.01204	0.74408	1.901
Mof_O 	O 	0.20805	0.05063	0.64175	-0.568
Mof_O 	O 	0.29538	0.08086	0.5799	-0.518
Mof_O 	O 	0.30013	0.90902	0.88459	-0.528
Mof_O 	O 	0.21384	0.96156	0.83834	-0.566
Mof_N 	N 	0.28312	0.0006	0.73581	-0.206
Mof_C 	C 	0.27457	0.94563	0.8413	0.402
Mof_C 	C 	0.27037	0.05497	0.63062	0.392
Mof_C 	C 	0.31809	0.97291	0.7856	-0.112
Mof_C 	C 	0.31565	0.02595	0.68365	-0.107
Mof_C 	C 	0.38684	0.9701	0.7856	0.009
Mof_H 	H 	0.4102	0.9504	0.8207	-0.016
Mof_C 	C 	0.38428	0.0253	0.6793	0.005
Mof_H 	H 	0.406	0.0429	0.6421	-0.006
Mof_C 	C 	0.42011	0.9978	0.7314	-0.099
Mof_H 	H 	0.4666	0.9979	0.7302	0.018
Mof_Pr	Pr	0.84638	0.51204	0.75592	1.901
Mof_O 	O 	0.79195	0.55063	0.85825	-0.568
Mof_O 	O 	0.70462	0.58086	0.9201	-0.518
Mof_O 	O 	0.69987	0.40902	0.61541	-0.528
Mof_O 	O 	0.78616	0.46156	0.66166	-0.566
Mof_N 	N 	0.71688	0.5006	0.76419	-0.206
Mof_C 	C 	0.72543	0.44563	0.6587	0.402
Mof_C 	C 	0.72963	0.55497	0.86938	0.392
Mof_C 	C 	0.68191	0.47291	0.7144	-0.113
Mof_C 	C 	0.68435	0.52595	0.81635	-0.108
Mof_C 	C 	0.61316	0.4701	0.7144	0.01
Mof_H 	H 	0.5898	0.4504	0.6793	-0.016
Mof_C 	C 	0.61572	0.5253	0.8207	0.006
Mof_H 	H 	0.594	0.5429	0.8579	-0.006
Mof_C 	C 	0.57989	0.4978	0.7686	-0.1
Mof_H 	H 	0.5334	0.4979	0.7698	0.018
Mof_Pr	Pr	0.34638	0.98796	0.24408	1.896
Mof_O 	O 	0.29195	0.94937	0.14175	-0.568
Mof_O 	O 	0.20462	0.91914	0.0799	-0.519
Mof_O 	O 	0.19987	0.09098	0.38459	-0.528
Mof_O 	O 	0.28616	0.03844	0.33834	-0.564
Mof_N 	N 	0.21688	0.9994	0.23581	-0.208
Mof_C 	C 	0.22543	0.05437	0.3413	0.4
Mof_C 	C 	0.22963	0.94503	0.13062	0.391
Mof_C 	C 	0.18191	0.02709	0.2856	-0.107
Mof_C 	C 	0.18435	0.97405	0.18365	-0.105
Mof_C 	C 	0.11316	0.0299	0.2856	0.004
Mof_H 	H 	0.0898	0.0496	0.3207	-0.013
Mof_C 	C 	0.11572	0.9747	0.1793	-0.003
Mof_H 	H 	0.094	0.9571	0.1421	-0.003
Mof_C 	C 	0.07989	0.0022	0.2314	-0.089
Mof_H 	H 	0.0334	0.0021	0.2302	0.016
Mof_Pr	Pr	0.25592	0.65362	0.48796	1.9
Mof_O 	O 	0.35825	0.70805	0.44937	-0.568
Mof_O 	O 	0.4201	0.79538	0.41914	-0.519
Mof_O 	O 	0.11541	0.80013	0.59098	-0.528
Mof_O 	O 	0.16166	0.71384	0.53844	-0.566
Mof_N 	N 	0.26419	0.78312	0.4994	-0.206
Mof_C 	C 	0.1587	0.77457	0.55437	0.402
Mof_C 	C 	0.36938	0.77037	0.44503	0.393
Mof_C 	C 	0.2144	0.81809	0.52709	-0.113
Mof_C 	C 	0.31635	0.81565	0.47405	-0.108
Mof_C 	C 	0.2144	0.88684	0.5299	0.01
Mof_H 	H 	0.1793	0.9102	0.5496	-0.017
Mof_C 	C 	0.3207	0.88428	0.4747	0.006
Mof_H 	H 	0.3579	0.906	0.4571	-0.006
Mof_C 	C 	0.2686	0.92011	0.5022	-0.1
Mof_H 	H 	0.2698	0.9666	0.5021	0.018
Mof_Pr	Pr	0.74408	0.15362	0.01204	1.901
Mof_O 	O 	0.64175	0.20805	0.05063	-0.568
Mof_O 	O 	0.5799	0.29538	0.08086	-0.518
Mof_O 	O 	0.88459	0.30013	0.90902	-0.528
Mof_O 	O 	0.83834	0.21384	0.96156	-0.566
Mof_N 	N 	0.73581	0.28312	0.0006	-0.206
Mof_C 	C 	0.8413	0.27457	0.94563	0.402
Mof_C 	C 	0.63062	0.27037	0.05497	0.392
Mof_C 	C 	0.7856	0.31809	0.97291	-0.112
Mof_C 	C 	0.68365	0.31565	0.02595	-0.107
Mof_C 	C 	0.7856	0.38684	0.9701	0.009
Mof_H 	H 	0.8207	0.4102	0.9504	-0.016
Mof_C 	C 	0.6793	0.38428	0.0253	0.005
Mof_H 	H 	0.6421	0.406	0.0429	-0.006
Mof_C 	C 	0.7314	0.42011	0.9978	-0.099
Mof_H 	H 	0.7302	0.4666	0.9979	0.018
Mof_Pr	Pr	0.75592	0.84638	0.51204	1.901
Mof_O 	O 	0.85825	0.79195	0.55063	-0.568
Mof_O 	O 	0.9201	0.70462	0.58086	-0.518
Mof_O 	O 	0.61541	0.69987	0.40902	-0.528
Mof_O 	O 	0.66166	0.78616	0.46156	-0.566
Mof_N 	N 	0.76419	0.71688	0.5006	-0.206
Mof_C 	C 	0.6587	0.72543	0.44563	0.402
Mof_C 	C 	0.86938	0.72963	0.55497	0.392
Mof_C 	C 	0.7144	0.68191	0.47291	-0.113
Mof_C 	C 	0.81635	0.68435	0.52595	-0.108
Mof_C 	C 	0.7144	0.61316	0.4701	0.01
Mof_H 	H 	0.6793	0.5898	0.4504	-0.016
Mof_C 	C 	0.8207	0.61572	0.5253	0.006
Mof_H 	H 	0.8579	0.594	0.5429	-0.006
Mof_C 	C 	0.7686	0.57989	0.4978	-0.1
Mof_H 	H 	0.7698	0.5334	0.4979	0.018
Mof_Pr	Pr	0.24408	0.34638	0.98796	1.896
Mof_O 	O 	0.14175	0.29195	0.94937	-0.568
Mof_O 	O 	0.0799	0.20462	0.91914	-0.519
Mof_O 	O 	0.38459	0.19987	0.09098	-0.528
Mof_O 	O 	0.33834	0.28616	0.03844	-0.564
Mof_N 	N 	0.23581	0.21688	0.9994	-0.208
Mof_C 	C 	0.3413	0.22543	0.05437	0.4
Mof_C 	C 	0.13062	0.22963	0.94503	0.391
Mof_C 	C 	0.2856	0.18191	0.02709	-0.107
Mof_C 	C 	0.18365	0.18435	0.97405	-0.105
Mof_C 	C 	0.2856	0.11316	0.0299	0.004
Mof_H 	H 	0.3207	0.0898	0.0496	-0.013
Mof_C 	C 	0.1793	0.11572	0.9747	-0.003
Mof_H 	H 	0.1421	0.094	0.9571	-0.003
Mof_C 	C 	0.2314	0.07989	0.0022	-0.089
Mof_H 	H 	0.2302	0.0334	0.0021	0.016
_end
