data_functionalizedCrystal
_audit_creation_method	'EQeq! by Chris Wilmer'
_symmetry_space_group_name_H-M	'P1'
_symmetry_Int_Tables_number	1
_symmetry_cell_setting	triclinic
loop_
_symmetry_equiv_pos_as_xyz
  x,y,z
_cell_length_a	11.2149
_cell_length_b	17.0025
_cell_length_c	20.3176
_cell_angle_alpha	65.2652
_cell_angle_beta	87.9489
_cell_angle_gamma	85.093
loop_
_atom_site_label
_atom_site_type_symbol
_atom_site_fract_x
_atom_site_fract_y
_atom_site_fract_z
_atom_site_charge
Mof_Ni	Ni	0.09149	0.22184	0.95052	1.077
Mof_Ni	Ni	0.40851	0.82764	0.95052	1.079
Mof_Ni	Ni	0.90851	0.77816	0.04948	1.077
Mof_Ni	Ni	0.59149	0.17236	0.04948	1.079
Mof_Ni	Ni	0.25	0.76073	0.47854	1.099
Mof_Ni	Ni	0.75	0.23927	0.52146	1.099
Mof_H 	H 	0.4899	0.3557	0.8118	0.096
Mof_H 	H 	0.5263	0.4253	0.6898	-0.006
Mof_H 	H 	0.7158	0.4167	0.6452	0.13
Mof_H 	H 	0.0296	0.363	0.6024	0.15
Mof_H 	H 	0.1316	0.4855	0.534	-0.011
Mof_H 	H 	0.0147	0.5921	0.668	-0.01
Mof_H 	H 	0.9206	0.4677	0.7384	0.15
Mof_H 	H 	0.1689	0.7702	0.3344	0.005
Mof_H 	H 	0.0364	0.8499	0.2432	0.107
Mof_H 	H 	0.8917	0.9597	0.3706	0.082
Mof_H 	H 	0.0325	0.8804	0.4564	-0.002
Mof_H 	H 	0.8343	0.0731	0.0644	-0.01
Mof_H 	H 	0.9661	0.9816	0.1506	0.088
Mof_H 	H 	0.7249	0.979	0.3012	0.084
Mof_H 	H 	0.5992	0.0689	0.2106	0.009
Mof_H 	H 	0.3187	0.3053	0.9436	0.01
Mof_H 	H 	0.3875	0.4298	0.9372	0.084
Mof_H 	H 	0.0533	0.5404	0.8962	0.077
Mof_H 	H 	0.9939	0.4118	0.904	0.013
Mof_H 	H 	0.0101	0.8325	0.8118	0.09
Mof_H 	H 	0.9737	0.8849	0.6898	-0.003
Mof_H 	H 	0.7842	0.9381	0.6452	0.128
Mof_H 	H 	0.4704	0.0346	0.6024	0.149
Mof_H 	H 	0.3684	0.9805	0.534	-0.011
Mof_H 	H 	0.4853	0.7399	0.668	-0.01
Mof_H 	H 	0.5794	0.7939	0.7384	0.15
Mof_H 	H 	0.3311	0.8954	0.3344	0.004
Mof_H 	H 	0.4636	0.9069	0.2432	0.108
Mof_H 	H 	0.6083	0.6697	0.3706	0.082
Mof_H 	H 	0.4675	0.6632	0.4564	-0.001
Mof_H 	H 	0.6657	0.8625	0.0644	-0.009
Mof_H 	H 	0.5339	0.8678	0.1506	0.088
Mof_H 	H 	0.7751	0.7198	0.3012	0.083
Mof_H 	H 	0.9008	0.7205	0.2106	0.009
Mof_H 	H 	0.1813	0.7511	0.9436	0.009
Mof_H 	H 	0.1125	0.633	0.9372	0.084
Mof_H 	H 	0.4467	0.5634	0.8962	0.08
Mof_H 	H 	0.5061	0.6842	0.904	0.006
Mof_H 	H 	0.5101	0.6443	0.1882	0.096
Mof_H 	H 	0.4737	0.5747	0.3102	-0.006
Mof_H 	H 	0.2842	0.5833	0.3548	0.13
Mof_H 	H 	0.9704	0.637	0.3976	0.15
Mof_H 	H 	0.8684	0.5145	0.466	-0.011
Mof_H 	H 	0.9853	0.4079	0.332	-0.01
Mof_H 	H 	0.0794	0.5323	0.2616	0.15
Mof_H 	H 	0.8311	0.2298	0.6656	0.005
Mof_H 	H 	0.9636	0.1501	0.7568	0.107
Mof_H 	H 	0.1083	0.0403	0.6294	0.082
Mof_H 	H 	0.9675	0.1196	0.5436	-0.002
Mof_H 	H 	0.1657	0.9269	0.9356	-0.01
Mof_H 	H 	0.0339	0.0184	0.8494	0.088
Mof_H 	H 	0.2751	0.021	0.6988	0.084
Mof_H 	H 	0.4008	0.9311	0.7894	0.009
Mof_H 	H 	0.6813	0.6947	0.0564	0.01
Mof_H 	H 	0.6125	0.5702	0.0628	0.084
Mof_H 	H 	0.9467	0.4596	0.1038	0.077
Mof_H 	H 	0.0061	0.5882	0.096	0.013
Mof_H 	H 	0.9899	0.1675	0.1882	0.09
Mof_H 	H 	0.0263	0.1151	0.3102	-0.003
Mof_H 	H 	0.2158	0.0619	0.3548	0.128
Mof_H 	H 	0.5296	0.9654	0.3976	0.149
Mof_H 	H 	0.6316	0.0195	0.466	-0.011
Mof_H 	H 	0.5147	0.2601	0.332	-0.01
Mof_H 	H 	0.4206	0.2061	0.2616	0.15
Mof_H 	H 	0.6689	0.1046	0.6656	0.004
Mof_H 	H 	0.5364	0.0931	0.7568	0.108
Mof_H 	H 	0.3917	0.3303	0.6294	0.082
Mof_H 	H 	0.5325	0.3368	0.5436	-0.001
Mof_H 	H 	0.3343	0.1375	0.9356	-0.009
Mof_H 	H 	0.4661	0.1322	0.8494	0.088
Mof_H 	H 	0.2249	0.2802	0.6988	0.083
Mof_H 	H 	0.0992	0.2795	0.7894	0.009
Mof_H 	H 	0.8187	0.2489	0.0564	0.009
Mof_H 	H 	0.8875	0.367	0.0628	0.084
Mof_H 	H 	0.5533	0.4366	0.1038	0.08
Mof_H 	H 	0.4939	0.3158	0.096	0.006
Mof_C 	C 	0.6309	0.25506	0.92108	0.255
Mof_C 	C 	0.8784	0.23851	0.86192	0.381
Mof_C 	C 	0.6582	0.30089	0.84182	0.045
Mof_C 	C 	0.5665	0.35087	0.79406	-0.144
Mof_C 	C 	0.5884	0.39309	0.72122	0.12
Mof_C 	C 	0.7011	0.38803	0.69454	-0.245
Mof_C 	C 	0.7936	0.33977	0.74166	0.25
Mof_C 	C 	0.7745	0.29401	0.81544	-0.16
Mof_C 	C 	0.9626	0.4064	0.6742	0.324
Mof_C 	C 	0.0263	0.40949	0.61542	-0.306
Mof_C 	C 	0.0873	0.4833	0.5742	0.165
Mof_C 	C 	0.0819	0.55229	0.59302	-0.195
Mof_C 	C 	0.0185	0.54612	0.65436	0.168
Mof_C 	C 	0.9604	0.47224	0.69612	-0.305
Mof_C 	C 	0.1436	0.63217	0.54866	0.336
Mof_C 	C 	0.1138	0.81031	0.34098	0.091
Mof_C 	C 	0.0335	0.85728	0.28604	-0.141
Mof_C 	C 	0.9487	0.91562	0.29556	0.063
Mof_C 	C 	0.9488	0.92257	0.36146	-0.141
Mof_C 	C 	0.0334	0.87434	0.41292	0.087
Mof_C 	C 	0.8122	0.05393	0.11294	0.083
Mof_C 	C 	0.8922	0.99933	0.16434	-0.143
Mof_C 	C 	0.8621	0.97045	0.2375	0.063
Mof_C 	C 	0.7498	0.99756	0.25328	-0.139
Mof_C 	C 	0.6746	0.05188	0.19824	0.082
Mof_C 	C 	0.2641	0.35277	0.93546	0.078
Mof_C 	C 	0.3062	0.42768	0.93124	-0.131
Mof_C 	C 	0.229	0.50045	0.9181	0.055
Mof_C 	C 	0.109	0.49301	0.90698	-0.129
Mof_C 	C 	0.074	0.4151	0.9122	0.071
Mof_C 	C 	0.8691	0.82386	0.92108	0.256
Mof_C 	C 	0.6216	0.89957	0.86192	0.38
Mof_C 	C 	0.8418	0.85729	0.84182	0.041
Mof_C 	C 	0.9335	0.85507	0.79406	-0.133
Mof_C 	C 	0.9116	0.88569	0.72122	0.113
Mof_C 	C 	0.7989	0.91743	0.69454	-0.24
Mof_C 	C 	0.7064	0.91857	0.74166	0.248
Mof_C 	C 	0.7255	0.89055	0.81544	-0.158
Mof_C 	C 	0.5374	0.9194	0.6742	0.322
Mof_C 	C 	0.4737	0.97509	0.61542	-0.303
Mof_C 	C 	0.4127	0.9425	0.5742	0.165
Mof_C 	C 	0.4181	0.85469	0.59302	-0.196
Mof_C 	C 	0.4815	0.79952	0.65436	0.171
Mof_C 	C 	0.5396	0.83164	0.69612	-0.307
Mof_C 	C 	0.3564	0.81917	0.54866	0.336
Mof_C 	C 	0.3862	0.84871	0.34098	0.093
Mof_C 	C 	0.4665	0.85668	0.28604	-0.145
Mof_C 	C 	0.5513	0.78882	0.29556	0.066
Mof_C 	C 	0.5512	0.71597	0.36146	-0.141
Mof_C 	C 	0.4666	0.71274	0.41292	0.086
Mof_C 	C 	0.6878	0.83313	0.11294	0.081
Mof_C 	C 	0.6078	0.83633	0.16434	-0.141
Mof_C 	C 	0.6379	0.79205	0.2375	0.061
Mof_C 	C 	0.7502	0.74916	0.25328	-0.137
Mof_C 	C 	0.8254	0.74988	0.19824	0.081
Mof_C 	C 	0.2359	0.71177	0.93546	0.081
Mof_C 	C 	0.1938	0.64108	0.93124	-0.134
Mof_C 	C 	0.271	0.58145	0.9181	0.06
Mof_C 	C 	0.391	0.60001	0.90698	-0.136
Mof_C 	C 	0.426	0.6727	0.9122	0.083
Mof_C 	C 	0.3691	0.74494	0.07892	0.255
Mof_C 	C 	0.1216	0.76149	0.13808	0.381
Mof_C 	C 	0.3418	0.69911	0.15818	0.045
Mof_C 	C 	0.4335	0.64913	0.20594	-0.144
Mof_C 	C 	0.4116	0.60691	0.27878	0.12
Mof_C 	C 	0.2989	0.61197	0.30546	-0.245
Mof_C 	C 	0.2064	0.66023	0.25834	0.25
Mof_C 	C 	0.2255	0.70599	0.18456	-0.16
Mof_C 	C 	0.0374	0.5936	0.3258	0.324
Mof_C 	C 	0.9737	0.59051	0.38458	-0.306
Mof_C 	C 	0.9127	0.5167	0.4258	0.165
Mof_C 	C 	0.9181	0.44771	0.40698	-0.195
Mof_C 	C 	0.9815	0.45388	0.34564	0.168
Mof_C 	C 	0.0396	0.52776	0.30388	-0.305
Mof_C 	C 	0.8564	0.36783	0.45134	0.336
Mof_C 	C 	0.8862	0.18969	0.65902	0.091
Mof_C 	C 	0.9665	0.14272	0.71396	-0.141
Mof_C 	C 	0.0513	0.08438	0.70444	0.063
Mof_C 	C 	0.0512	0.07743	0.63854	-0.141
Mof_C 	C 	0.9666	0.12566	0.58708	0.087
Mof_C 	C 	0.1878	0.94607	0.88706	0.083
Mof_C 	C 	0.1078	0.00067	0.83566	-0.143
Mof_C 	C 	0.1379	0.02955	0.7625	0.063
Mof_C 	C 	0.2502	0.00244	0.74672	-0.139
Mof_C 	C 	0.3254	0.94812	0.80176	0.082
Mof_C 	C 	0.7359	0.64723	0.06454	0.078
Mof_C 	C 	0.6938	0.57232	0.06876	-0.131
Mof_C 	C 	0.771	0.49955	0.0819	0.055
Mof_C 	C 	0.891	0.50699	0.09302	-0.129
Mof_C 	C 	0.926	0.5849	0.0878	0.071
Mof_C 	C 	0.1309	0.17614	0.07892	0.256
Mof_C 	C 	0.3784	0.10043	0.13808	0.38
Mof_C 	C 	0.1582	0.14271	0.15818	0.041
Mof_C 	C 	0.0665	0.14493	0.20594	-0.133
Mof_C 	C 	0.0884	0.11431	0.27878	0.113
Mof_C 	C 	0.2011	0.08257	0.30546	-0.24
Mof_C 	C 	0.2936	0.08143	0.25834	0.248
Mof_C 	C 	0.2745	0.10945	0.18456	-0.158
Mof_C 	C 	0.4626	0.0806	0.3258	0.322
Mof_C 	C 	0.5263	0.02491	0.38458	-0.303
Mof_C 	C 	0.5873	0.0575	0.4258	0.165
Mof_C 	C 	0.5819	0.14531	0.40698	-0.196
Mof_C 	C 	0.5185	0.20048	0.34564	0.171
Mof_C 	C 	0.4604	0.16836	0.30388	-0.307
Mof_C 	C 	0.6436	0.18083	0.45134	0.336
Mof_C 	C 	0.6138	0.15129	0.65902	0.093
Mof_C 	C 	0.5335	0.14332	0.71396	-0.145
Mof_C 	C 	0.4487	0.21118	0.70444	0.066
Mof_C 	C 	0.4488	0.28403	0.63854	-0.141
Mof_C 	C 	0.5334	0.28726	0.58708	0.086
Mof_C 	C 	0.3122	0.16687	0.88706	0.081
Mof_C 	C 	0.3922	0.16367	0.83566	-0.141
Mof_C 	C 	0.3621	0.20795	0.7625	0.061
Mof_C 	C 	0.2498	0.25084	0.74672	-0.137
Mof_C 	C 	0.1746	0.25012	0.80176	0.081
Mof_C 	C 	0.7641	0.28823	0.06454	0.081
Mof_C 	C 	0.8062	0.35892	0.06876	-0.134
Mof_C 	C 	0.729	0.41855	0.0819	0.06
Mof_C 	C 	0.609	0.39999	0.09302	-0.136
Mof_C 	C 	0.574	0.3273	0.0878	0.083
Mof_N 	N 	0.1169	0.81911	0.40324	-0.242
Mof_N 	N 	0.7034	0.08157	0.12842	-0.245
Mof_N 	N 	0.1482	0.34379	0.92844	-0.227
Mof_N 	N 	0.3831	0.77765	0.40324	-0.242
Mof_N 	N 	0.7966	0.79001	0.12842	-0.245
Mof_N 	N 	0.3518	0.72777	0.92844	-0.228
Mof_N 	N 	0.8831	0.18089	0.59676	-0.242
Mof_N 	N 	0.2966	0.91843	0.87158	-0.245
Mof_N 	N 	0.8518	0.65621	0.07156	-0.227
Mof_N 	N 	0.6169	0.22235	0.59676	-0.242
Mof_N 	N 	0.2034	0.20999	0.87158	-0.245
Mof_N 	N 	0.6482	0.27223	0.07156	-0.228
Mof_O 	O 	0.71052	0.20259	0.96266	-0.373
Mof_O 	O 	0.5304	0.26938	0.94522	-0.363
Mof_O 	O 	0.8948	0.16192	0.8684	-0.29
Mof_O 	O 	0.94478	0.27639	0.88688	-0.414
Mof_O 	O 	0.9083	0.33049	0.71538	-0.304
Mof_O 	O 	0.1235	0.69972	0.56014	-0.371
Mof_O 	O 	0.2171	0.63289	0.49968	-0.385
Mof_O 	O 	0.78948	0.83475	0.96266	-0.372
Mof_O 	O 	0.9696	0.7854	0.94522	-0.36
Mof_O 	O 	0.6052	0.96968	0.8684	-0.291
Mof_O 	O 	0.55522	0.83673	0.88688	-0.415
Mof_O 	O 	0.5917	0.95413	0.71538	-0.304
Mof_O 	O 	0.3765	0.74014	0.56014	-0.371
Mof_O 	O 	0.2829	0.86743	0.49968	-0.386
Mof_O 	O 	0.28948	0.79741	0.03734	-0.373
Mof_O 	O 	0.4696	0.73062	0.05478	-0.363
Mof_O 	O 	0.1052	0.83808	0.1316	-0.29
Mof_O 	O 	0.05522	0.72361	0.11312	-0.414
Mof_O 	O 	0.0917	0.66951	0.28462	-0.304
Mof_O 	O 	0.8765	0.30028	0.43986	-0.371
Mof_O 	O 	0.7829	0.36711	0.50032	-0.385
Mof_O 	O 	0.21052	0.16525	0.03734	-0.372
Mof_O 	O 	0.0304	0.2146	0.05478	-0.36
Mof_O 	O 	0.3948	0.03032	0.1316	-0.291
Mof_O 	O 	0.44478	0.16327	0.11312	-0.415
Mof_O 	O 	0.4083	0.04587	0.28462	-0.304
Mof_O 	O 	0.6235	0.25986	0.43986	-0.371
Mof_O 	O 	0.7171	0.13257	0.50032	-0.386
_end
