data_functionalizedCrystal
_audit_creation_method	'EQeq! by Chris Wilmer'
_symmetry_space_group_name_H-M	'P1'
_symmetry_Int_Tables_number	1
_symmetry_cell_setting	triclinic
loop_
_symmetry_equiv_pos_as_xyz
  x,y,z
_cell_length_a	12.471
_cell_length_b	13.306
_cell_length_c	15.711
_cell_angle_alpha	90
_cell_angle_beta	90
_cell_angle_gamma	90
loop_
_atom_site_label
_atom_site_type_symbol
_atom_site_fract_x
_atom_site_fract_y
_atom_site_fract_z
_atom_site_charge
Mof_C 	C 	0.9678	0.3197	0.1291	0.358
Mof_C 	C 	0.0107	0.3821	0.0582	-0.213
Mof_H 	H 	0.0674	0.3554	0.0272	0.115
Mof_C 	C 	0.976	0.4718	0.0353	0.024
Mof_H 	H 	0.919	0.5003	0.0649	0.041
Mof_C 	C 	0.726	0.3134	0.4072	0.107
Mof_H 	H 	0.7674	0.2654	0.4349	-0.013
Mof_C 	C 	0.6529	0.3686	0.4536	-0.199
Mof_H 	H 	0.6445	0.3569	0.5116	0.11
Mof_C 	C 	0.5926	0.4411	0.4138	0.159
Mof_C 	C 	0.6048	0.4558	0.3294	-0.222
Mof_H 	H 	0.5645	0.5043	0.3012	0.114
Mof_C 	C 	0.6756	0.3997	0.2872	0.131
Mof_H 	H 	0.682	0.4112	0.229	-0.02
Mof_C 	C 	0.5137	0.5055	0.4613	-0.094
Mof_H 	H 	0.4822	0.5581	0.4314	0.077
Mof_N 	N 	0.7391	0.3273	0.3214	-0.271
Mof_O 	O 	0.8924	0.3631	0.1733	-0.438
Mof_O 	O 	0.9919	0.2324	0.1405	-0.37
Mof_C 	C 	0.9678	0.1803	0.3709	0.357
Mof_C 	C 	0.0107	0.1179	0.4418	-0.21
Mof_H 	H 	0.0674	0.1446	0.4728	0.114
Mof_C 	C 	0.976	0.0282	0.4647	0.022
Mof_H 	H 	0.919	0.9997	0.4351	0.041
Mof_C 	C 	0.726	0.1866	0.0928	0.107
Mof_H 	H 	0.7674	0.2346	0.0651	-0.013
Mof_C 	C 	0.6529	0.1314	0.0464	-0.198
Mof_H 	H 	0.6445	0.1431	0.9884	0.11
Mof_C 	C 	0.5926	0.0589	0.0862	0.158
Mof_C 	C 	0.6048	0.0442	0.1706	-0.222
Mof_H 	H 	0.5645	0.9957	0.1988	0.114
Mof_C 	C 	0.6756	0.1003	0.2128	0.131
Mof_H 	H 	0.682	0.0888	0.271	-0.02
Mof_C 	C 	0.5137	0.9945	0.0387	-0.094
Mof_H 	H 	0.4822	0.9419	0.0686	0.076
Mof_N 	N 	0.7391	0.1727	0.1786	-0.271
Mof_O 	O 	0.8924	0.1369	0.3267	-0.438
Mof_O 	O 	0.9919	0.2676	0.3595	-0.37
Mof_C 	C 	0.0322	0.6803	0.8709	0.358
Mof_C 	C 	0.9893	0.6179	0.9418	-0.213
Mof_H 	H 	0.9326	0.6446	0.9728	0.115
Mof_C 	C 	0.024	0.5282	0.9647	0.024
Mof_H 	H 	0.081	0.4997	0.9351	0.041
Mof_C 	C 	0.274	0.6866	0.5928	0.107
Mof_H 	H 	0.2326	0.7346	0.5651	-0.013
Mof_C 	C 	0.3471	0.6314	0.5464	-0.199
Mof_H 	H 	0.3555	0.6431	0.4884	0.11
Mof_C 	C 	0.4074	0.5589	0.5862	0.159
Mof_C 	C 	0.3952	0.5442	0.6706	-0.222
Mof_H 	H 	0.4355	0.4957	0.6988	0.114
Mof_C 	C 	0.3244	0.6003	0.7128	0.131
Mof_H 	H 	0.318	0.5888	0.771	-0.02
Mof_C 	C 	0.4863	0.4945	0.5387	-0.094
Mof_H 	H 	0.5178	0.4419	0.5686	0.077
Mof_N 	N 	0.2609	0.6727	0.6786	-0.271
Mof_O 	O 	0.1076	0.6369	0.8267	-0.438
Mof_O 	O 	0.0081	0.7676	0.8595	-0.37
Mof_C 	C 	0.0322	0.8197	0.6291	0.357
Mof_C 	C 	0.9893	0.8821	0.5582	-0.21
Mof_H 	H 	0.9326	0.8554	0.5272	0.114
Mof_C 	C 	0.024	0.9718	0.5353	0.022
Mof_H 	H 	0.081	0.0003	0.5649	0.041
Mof_C 	C 	0.274	0.8134	0.9072	0.107
Mof_H 	H 	0.2326	0.7654	0.9349	-0.013
Mof_C 	C 	0.3471	0.8686	0.9536	-0.198
Mof_H 	H 	0.3555	0.8569	0.0116	0.11
Mof_C 	C 	0.4074	0.9411	0.9138	0.158
Mof_C 	C 	0.3952	0.9558	0.8294	-0.222
Mof_H 	H 	0.4355	0.0043	0.8012	0.114
Mof_C 	C 	0.3244	0.8997	0.7872	0.131
Mof_H 	H 	0.318	0.9112	0.729	-0.02
Mof_C 	C 	0.4863	0.0055	0.9613	-0.094
Mof_H 	H 	0.5178	0.0581	0.9314	0.076
Mof_N 	N 	0.2609	0.8273	0.8214	-0.271
Mof_O 	O 	0.1076	0.8631	0.6733	-0.438
Mof_O 	O 	0.0081	0.7324	0.6405	-0.37
Mof_Zn	Zn	0.85009	0.25	0.25	1.211
Mof_Zn	Zn	0.14991	0.75	0.75	1.211
Mof_C 	C 	0.5322	0.6803	0.1291	0.357
Mof_C 	C 	0.4893	0.6179	0.0582	-0.21
Mof_H 	H 	0.4326	0.6446	0.0272	0.114
Mof_C 	C 	0.524	0.5282	0.0353	0.022
Mof_H 	H 	0.581	0.4997	0.0649	0.041
Mof_C 	C 	0.774	0.6866	0.4072	0.107
Mof_H 	H 	0.7326	0.7346	0.4349	-0.013
Mof_C 	C 	0.8471	0.6314	0.4536	-0.199
Mof_H 	H 	0.8555	0.6431	0.5116	0.11
Mof_C 	C 	0.9074	0.5589	0.4138	0.159
Mof_C 	C 	0.8952	0.5442	0.3294	-0.222
Mof_H 	H 	0.9355	0.4957	0.3012	0.114
Mof_C 	C 	0.8244	0.6003	0.2872	0.131
Mof_H 	H 	0.818	0.5888	0.229	-0.02
Mof_C 	C 	0.9863	0.4945	0.4613	-0.094
Mof_H 	H 	0.0178	0.4419	0.4314	0.076
Mof_N 	N 	0.7609	0.6727	0.3214	-0.271
Mof_O 	O 	0.6076	0.6369	0.1733	-0.438
Mof_O 	O 	0.5081	0.7676	0.1405	-0.37
Mof_C 	C 	0.5322	0.8197	0.3709	0.357
Mof_C 	C 	0.4893	0.8821	0.4418	-0.21
Mof_H 	H 	0.4326	0.8554	0.4728	0.114
Mof_C 	C 	0.524	0.9718	0.4647	0.022
Mof_H 	H 	0.581	0.0003	0.4351	0.041
Mof_C 	C 	0.774	0.8134	0.0928	0.106
Mof_H 	H 	0.7326	0.7654	0.0651	-0.013
Mof_C 	C 	0.8471	0.8686	0.0464	-0.197
Mof_H 	H 	0.8555	0.8569	0.9884	0.109
Mof_C 	C 	0.9074	0.9411	0.0862	0.158
Mof_C 	C 	0.8952	0.9558	0.1706	-0.221
Mof_H 	H 	0.9355	0.0043	0.1988	0.114
Mof_C 	C 	0.8244	0.8997	0.2128	0.131
Mof_H 	H 	0.818	0.9112	0.271	-0.02
Mof_C 	C 	0.9863	0.0055	0.0387	-0.093
Mof_H 	H 	0.0178	0.0581	0.0686	0.075
Mof_N 	N 	0.7609	0.8273	0.1786	-0.271
Mof_O 	O 	0.6076	0.8631	0.3267	-0.438
Mof_O 	O 	0.5081	0.7324	0.3595	-0.37
Mof_C 	C 	0.4678	0.3197	0.8709	0.357
Mof_C 	C 	0.5107	0.3821	0.9418	-0.21
Mof_H 	H 	0.5674	0.3554	0.9728	0.114
Mof_C 	C 	0.476	0.4718	0.9647	0.022
Mof_H 	H 	0.419	0.5003	0.9351	0.041
Mof_C 	C 	0.226	0.3134	0.5928	0.107
Mof_H 	H 	0.2674	0.2654	0.5651	-0.013
Mof_C 	C 	0.1529	0.3686	0.5464	-0.199
Mof_H 	H 	0.1445	0.3569	0.4884	0.11
Mof_C 	C 	0.0926	0.4411	0.5862	0.159
Mof_C 	C 	0.1048	0.4558	0.6706	-0.222
Mof_H 	H 	0.0645	0.5043	0.6988	0.114
Mof_C 	C 	0.1756	0.3997	0.7128	0.131
Mof_H 	H 	0.182	0.4112	0.771	-0.02
Mof_C 	C 	0.0137	0.5055	0.5387	-0.094
Mof_H 	H 	0.9822	0.5581	0.5686	0.076
Mof_N 	N 	0.2391	0.3273	0.6786	-0.271
Mof_O 	O 	0.3924	0.3631	0.8267	-0.438
Mof_O 	O 	0.4919	0.2324	0.8595	-0.37
Mof_C 	C 	0.4678	0.1803	0.6291	0.357
Mof_C 	C 	0.5107	0.1179	0.5582	-0.21
Mof_H 	H 	0.5674	0.1446	0.5272	0.114
Mof_C 	C 	0.476	0.0282	0.5353	0.022
Mof_H 	H 	0.419	0.9997	0.5649	0.041
Mof_C 	C 	0.226	0.1866	0.9072	0.106
Mof_H 	H 	0.2674	0.2346	0.9349	-0.013
Mof_C 	C 	0.1529	0.1314	0.9536	-0.197
Mof_H 	H 	0.1445	0.1431	0.0116	0.109
Mof_C 	C 	0.0926	0.0589	0.9138	0.158
Mof_C 	C 	0.1048	0.0442	0.8294	-0.221
Mof_H 	H 	0.0645	0.9957	0.8012	0.114
Mof_C 	C 	0.1756	0.1003	0.7872	0.131
Mof_H 	H 	0.182	0.0888	0.729	-0.02
Mof_C 	C 	0.0137	0.9945	0.9613	-0.093
Mof_H 	H 	0.9822	0.9419	0.9314	0.075
Mof_N 	N 	0.2391	0.1727	0.8214	-0.271
Mof_O 	O 	0.3924	0.1369	0.6733	-0.438
Mof_O 	O 	0.4919	0.2676	0.6405	-0.37
Mof_Zn	Zn	0.64991	0.75	0.25	1.211
Mof_Zn	Zn	0.35009	0.25	0.75	1.211
_end
