data_functionalizedCrystal
_audit_creation_method	'EQeq! by Chris Wilmer'
_symmetry_space_group_name_H-M	'P1'
_symmetry_Int_Tables_number	1
_symmetry_cell_setting	triclinic
loop_
_symmetry_equiv_pos_as_xyz
  x,y,z
_cell_length_a	17.809
_cell_length_b	17.812
_cell_length_c	17.831
_cell_angle_alpha	90.031
_cell_angle_beta	89.999
_cell_angle_gamma	90.182
loop_
_atom_site_label
_atom_site_type_symbol
_atom_site_fract_x
_atom_site_fract_y
_atom_site_fract_z
_atom_site_charge
Mof_Zr	Zr	0.48933	0.86237	0.011	3.248
Mof_Zr	Zr	0.0106	0.86228	0.48896	3.239
Mof_Zr	Zr	0.51067	0.13763	0.989	3.246
Mof_Zr	Zr	0.48907	0.51056	0.6377	3.239
Mof_Zr	Zr	0.5105	0.36226	0.51123	3.238
Mof_Zr	Zr	0.86232	0.98882	0.51041	3.247
Mof_Zr	Zr	0.98902	0.48953	0.13765	3.248
Mof_Zr	Zr	0.13761	0.48889	0.01054	3.242
Mof_Zr	Zr	0.01098	0.51047	0.86235	3.249
Mof_Zr	Zr	0.63767	0.98908	0.98952	3.24
Mof_Zr	Zr	0.9894	0.13772	0.51104	3.239
Mof_Zr	Zr	0.63777	0.51099	0.5104	3.239
Mof_Zr	Zr	0.13768	0.01118	0.48959	3.248
Mof_Zr	Zr	0.51093	0.48944	0.3623	3.239
Mof_Zr	Zr	0.98939	0.3622	0.98894	3.242
Mof_Zr	Zr	0.36223	0.48901	0.4896	3.239
Mof_Zr	Zr	0.01095	0.98952	0.63764	3.238
Mof_Zr	Zr	0.01061	0.6378	0.01106	3.243
Mof_Zr	Zr	0.86239	0.51111	0.98946	3.241
Mof_Zr	Zr	0.4895	0.63774	0.48877	3.238
Mof_Zr	Zr	0.48893	0.98954	0.86231	3.242
Mof_Zr	Zr	0.36233	0.01092	0.01048	3.242
Mof_Zr	Zr	0.51107	0.01046	0.13769	3.243
Mof_Zr	Zr	0.98905	0.01048	0.36236	3.239
Mof_H 	H 	0.3066	0.0148	0.3039	0.114
Mof_H 	H 	0.8059	0.1957	0.9925	0.113
Mof_H 	H 	0.695	0.9987	0.3072	0.105
Mof_H 	H 	0.8053	0.0035	0.1914	0.12
Mof_H 	H 	0.5012	0.806	0.3043	0.114
Mof_H 	H 	0.6946	0.193	0.5214	0.121
Mof_H 	H 	0.3054	0.807	0.4786	0.119
Mof_H 	H 	0.305	0.0013	0.6928	0.116
Mof_H 	H 	0.5165	0.304	0.1942	0.105
Mof_H 	H 	0.6938	0.3045	0.9771	0.103
Mof_H 	H 	0.6926	0.6964	0.9987	0.106
Mof_H 	H 	0.9993	0.3092	0.6941	0.106
Mof_H 	H 	0.1935	0.0119	0.1974	0.114
Mof_H 	H 	0.9994	0.8067	0.1952	0.121
Mof_H 	H 	0.0006	0.1933	0.8048	0.121
Mof_H 	H 	0.0107	0.6963	0.6916	0.117
Mof_H 	H 	0.192	0.1924	0.0021	0.107
Mof_H 	H 	0.1947	0.9965	0.8086	0.094
Mof_H 	H 	0.808	0.8076	0.9979	0.085
Mof_H 	H 	0.4962	0.6916	0.1954	0.113
Mof_H 	H 	0.3064	0.4978	0.8084	0.107
Mof_H 	H 	0.8045	0.3055	0.512	0.106
Mof_H 	H 	0.0007	0.6908	0.3059	0.106
Mof_H 	H 	0.8073	0.6951	0.5016	0.106
Mof_H 	H 	0.6916	0.5183	0.8042	0.114
Mof_H 	H 	0.0212	0.8038	0.8081	0.11
Mof_H 	H 	0.6941	0.8033	0.5031	0.117
Mof_H 	H 	0.4873	0.8043	0.6938	0.115
Mof_H 	H 	0.8065	0.9881	0.8026	0.112
Mof_H 	H 	0.805	0.5201	0.6954	0.106
Mof_H 	H 	0.1927	0.3049	0.4984	0.106
Mof_H 	H 	0.5038	0.3084	0.8046	0.112
Mof_H 	H 	0.9788	0.1962	0.1919	0.111
Mof_H 	H 	0.1934	0.5003	0.691	0.121
Mof_H 	H 	0.1941	0.8043	0.0075	0.113
Mof_H 	H 	0.3074	0.3036	0.0013	0.112
Mof_H 	H 	0.4835	0.696	0.8058	0.104
Mof_H 	H 	0.3062	0.6955	0.0229	0.104
Mof_H 	H 	0.5127	0.1957	0.3062	0.116
Mof_H 	H 	0.8066	0.4997	0.309	0.121
Mof_H 	H 	0.9893	0.3037	0.3084	0.117
Mof_H 	H 	0.195	0.4799	0.3046	0.106
Mof_H 	H 	0.3059	0.1967	0.4969	0.118
Mof_H 	H 	0.1955	0.6945	0.488	0.106
Mof_H 	H 	0.6936	0.5022	0.1916	0.108
Mof_H 	H 	0.6934	0.9852	0.6961	0.113
Mof_H 	H 	0.4988	0.194	0.6957	0.115
Mof_H 	H 	0.3084	0.4817	0.1958	0.114
Mof_C 	C 	0.245	0.714	0.485	-0.107
Mof_C 	C 	0.213	0.015	0.2467	-0.132
Mof_C 	C 	0.757	0.501	0.2897	-0.155
Mof_C 	C 	0.692	0.503	0.3401	0.421
Mof_C 	C 	0.48	0.81	0.841	0.393
Mof_C 	C 	0.496	0.1596	0.808	0.405
Mof_C 	C 	0.787	0.985	0.7533	-0.134
Mof_C 	C 	0.504	0.6617	0.3092	0.408
Mof_C 	C 	0.3397	0.309	0.506	0.432
Mof_C 	C 	0.84	0.809	0.498	0.391
Mof_C 	C 	0.8092	0.504	0.1598	0.381
Mof_C 	C 	0.288	0.482	0.245	-0.133
Mof_C 	C 	0.286	0.246	0.5	-0.154
Mof_C 	C 	0.2567	0.497	0.7891	-0.121
Mof_C 	C 	0.003	0.158	0.691	0.454
Mof_C 	C 	0.3113	0.837	0.021	0.408
Mof_C 	C 	0.7446	0.998	0.2876	-0.114
Mof_C 	C 	0.6879	0.339	0.517	0.407
Mof_C 	C 	0.997	0.842	0.309	0.455
Mof_C 	C 	0.34	0.484	0.31	0.391
Mof_C 	C 	0.6603	0.691	0.494	0.432
Mof_C 	C 	0.1589	0.31	0.998	0.426
Mof_C 	C 	0.982	0.1897	0.339	0.402
Mof_C 	C 	0.5	0.7118	0.2445	-0.137
Mof_C 	C 	0.018	0.8103	0.661	0.402
Mof_C 	C 	0.482	0.6887	0.661	0.424
Mof_C 	C 	0.498	0.2131	0.7455	-0.142
Mof_C 	C 	0.712	0.518	0.755	-0.133
Mof_C 	C 	0.7882	0.758	-0	-0.099
Mof_C 	C 	0.504	0.8404	0.192	0.405
Mof_C 	C 	0.786	0.519	0.745	-0.115
Mof_C 	C 	0.7444	0.212	0.519	-0.148
Mof_C 	C 	0.16	0.02	0.3108	0.406
Mof_C 	C 	0.2124	0.2554	0.4999	-0.118
Mof_C 	C 	0.34	0.19	0.995	0.417
Mof_C 	C 	0.002	0.29	0.744	-0.127
Mof_C 	C 	0.7557	0	0.2108	-0.156
Mof_C 	C 	0.7119	0.746	0.001	-0.151
Mof_C 	C 	0.2443	-7.85135e-20	0.7892	-0.113
Mof_C 	C 	0.812	0.996	0.342	0.44
Mof_C 	C 	0.659	0.982	0.8107	0.435
Mof_C 	C 	0.287	0.016	0.2545	-0.131
Mof_C 	C 	0.158	0.482	0.1903	0.39
Mof_C 	C 	0.757	0.215	0.986	-0.132
Mof_C 	C 	0.485	0.755	0.714	-0.137
Mof_C 	C 	0.3121	0.661	0.483	0.407
Mof_C 	C 	0.496	0.3383	0.6908	0.407
Mof_C 	C 	0.31	0.003	0.8416	0.434
Mof_C 	C 	0.5	0.2882	0.7555	-0.137
Mof_C 	C 	0.985	0.255	0.288	-0.143
Mof_C 	C 	0.52	0.19	0.159	0.393
Mof_C 	C 	0.842	0.518	0.8097	0.39
Mof_C 	C 	0.1885	0.6593	0.015	0.389
Mof_C 	C 	0.015	0.745	0.712	-0.144
Mof_C 	C 	0.84	0.98	0.6892	0.405
Mof_C 	C 	0.2554	0.002	0.7124	-0.137
Mof_C 	C 	0.8104	0.158	0.52	0.463
Mof_C 	C 	0.1896	0.842	0.48	0.463
Mof_C 	C 	0.69	0.997	0.1584	0.437
Mof_C 	C 	0.341	0.018	0.1893	0.436
Mof_C 	C 	0.502	0.7869	0.2545	-0.143
Mof_C 	C 	0.998	0.788	0.245	-0.151
Mof_C 	C 	0.017	0.689	0.8388	0.38
Mof_C 	C 	0.308	0.497	0.6599	0.42
Mof_C 	C 	0.515	0.245	0.286	-0.137
Mof_C 	C 	0.002	0.212	0.755	-0.15
Mof_C 	C 	0.1908	0.496	0.8402	0.382
Mof_C 	C 	0.7433	0.503	0.2109	-0.12
Mof_C 	C 	0.7876	0.7446	0.5001	-0.119
Mof_C 	C 	0.66	0.81	0.005	0.431
Mof_C 	C 	0.995	0.659	0.192	0.426
Mof_C 	C 	0.214	0.481	0.255	-0.114
Mof_C 	C 	0.243	0.499	0.7103	-0.155
Mof_C 	C 	0.2556	0.788	0.481	-0.15
Mof_C 	C 	0.16	0.191	0.502	0.391
Mof_C 	C 	0.517	0.254	0.214	-0.112
Mof_C 	C 	0.983	0.311	0.1612	0.38
Mof_C 	C 	0.518	0.3113	0.339	0.424
Mof_C 	C 	0.188	0.004	0.658	0.461
Mof_C 	C 	0.714	0.754	0.5	-0.154
Mof_C 	C 	0.8115	0.3407	0.985	0.388
Mof_C 	C 	0.982	0.245	0.212	-0.126
Mof_C 	C 	0.256	0.714	0.018	-0.101
Mof_C 	C 	0.8411	0.69	0.002	0.425
Mof_C 	C 	0.018	0.755	0.788	-0.127
Mof_C 	C 	0.744	0.286	0.982	-0.102
Mof_C 	C 	0.6887	0.163	0.979	0.407
Mof_C 	C 	0.713	0.984	0.7455	-0.133
Mof_C 	C 	0.005	0.341	0.808	0.426
Mof_C 	C 	0.483	0.746	0.786	-0.113
Mof_C 	C 	0.755	0.286	0.515	-0.107
Mof_C 	C 	0.243	0.785	0.014	-0.132
Mof_C 	C 	0.2881	0.254	0.999	-0.145
Mof_C 	C 	0.2118	0.242	-0	-0.136
Mof_C 	C 	0.66	0.516	0.69	0.391
Mof_C 	C 	0.998	0.71	0.256	-0.127
Mof_O 	O 	0.4211	0.5668	0.4087	0.462
Mof_O 	O 	0.0085	0.6888	0.1247	-0.648
Mof_O 	O 	0.3773	0.6923	0.48	-0.636
Mof_O 	O 	0.9494	0.5685	0.9398	-2.693
Mof_O 	O 	0.4508	0.4336	0.4399	-1.816
Mof_O 	O 	0.5912	0.9817	0.7895	-0.645
Mof_O 	O 	0.9346	0.0594	0.4501	-1.575
Mof_O 	O 	0.4817	0.7114	0.5918	-0.624
Mof_O 	O 	0.2889	0.9098	0.0181	-0.615
Mof_O 	O 	0.931	0.59	0.923	1.615
Mof_O 	O 	0.1256	0.8083	0.4804	-0.655
Mof_O 	O 	0.0909	0.0191	0.2895	-0.646
Mof_O 	O 	0.1902	0.1234	0.49	-0.641
Mof_O 	O 	0.069	0.41	0.077	1.612
Mof_O 	O 	0.566	0.59	0.5796	0.719
Mof_O 	O 	0.8744	0.1917	0.5196	-0.654
Mof_O 	O 	0.0654	0.9406	0.5499	-1.579
Mof_O 	O 	0.0072	0.0905	0.7088	-0.674
Mof_O 	O 	0.0905	0.2108	0.5084	-0.643
Mof_O 	O 	0.9915	0.3112	0.8753	-0.648
Mof_O 	O 	0.5669	0.0586	0.0488	-1.49
Mof_O 	O 	0.5183	0.2886	0.4082	-0.623
Mof_O 	O 	0.5902	0.7912	0.0079	-0.679
Mof_O 	O 	0.4496	0.0667	0.0607	-1.919
Mof_O 	O 	0.5097	0.3089	0.624	-0.633
Mof_O 	O 	0.92	0.581	0.082	0.599
Mof_O 	O 	0.0905	0.9218	0.5656	0.496
Mof_O 	O 	0.4108	0.5776	0.5651	0.261
Mof_O 	O 	0.4909	0.4097	0.7089	-0.643
Mof_O 	O 	0.6912	0.5205	0.6223	-0.637
Mof_O 	O 	0.5492	0.5664	0.5601	-1.816
Mof_O 	O 	0.9095	0.0782	0.4344	0.496
Mof_O 	O 	0.5789	0.4332	0.5913	0.462
Mof_O 	O 	0.9098	0.7093	0.0085	-0.674
Mof_O 	O 	0.0784	0.9342	0.4116	0.854
Mof_O 	O 	0.0902	0.2907	0.9915	-0.678
Mof_O 	O 	0.0899	0.4811	0.2101	-0.654
Mof_O 	O 	0.2904	0.591	0.4801	-0.625
Mof_O 	O 	0.69	0.8757	0.9917	-0.689
Mof_O 	O 	0.9216	0.0658	0.5884	0.851
Mof_O 	O 	0.9414	0.4539	0.9327	-1.334
Mof_O 	O 	0.7096	0.409	0.5199	-0.625
Mof_O 	O 	0.9795	0.3763	0.1926	-0.639
Mof_O 	O 	0.561	0.938	0.06	-2.838
Mof_O 	O 	0.5783	0.068	0.91	0.19
Mof_O 	O 	0.6231	0.0078	0.1891	-0.685
Mof_O 	O 	0.4903	0.6911	0.376	-0.633
Mof_O 	O 	0.4331	0.9414	0.9512	-1.5
Mof_O 	O 	0.9794	0.2893	0.0912	-0.635
Mof_O 	O 	0.9101	0.5189	0.7899	-0.654
Mof_O 	O 	0.7911	0.5082	0.0884	-0.651
Mof_O 	O 	0.4798	0.6232	0.6902	-0.655
Mof_O 	O 	0.4217	0.932	0.09	0.185
Mof_O 	O 	0.8111	0.624	0.9917	-0.695
Mof_O 	O 	0.5202	0.3768	0.3098	-0.655
Mof_O 	O 	0.9807	0.1229	0.3086	-0.655
Mof_O 	O 	0.9091	0.9809	0.7105	-0.65
Mof_O 	O 	0.92	0.921	0.418	0.375
Mof_O 	O 	0.6227	0.3077	0.52	-0.635
Mof_O 	O 	0.061	0.439	0.94	-1.641
Mof_O 	O 	0.9404	0.0492	0.5657	-1.927
Mof_O 	O 	0.9096	0.4218	0.0655	0.822
Mof_O 	O 	0.5892	0.4224	0.4349	0.261
Mof_O 	O 	0.4406	0.5493	0.4334	-1.56
Mof_O 	O 	0.2097	0.9082	0.4812	-0.676
Mof_O 	O 	0.4331	0.091	0.078	0.864
Mof_O 	O 	0.5594	0.4507	0.5666	-1.56
Mof_O 	O 	0.9351	0.908	0.5771	1.187
Mof_O 	O 	0.591	0.0779	0.0658	0.434
Mof_O 	O 	0.1915	0.0213	0.3765	-0.643
Mof_O 	O 	0.3088	0.4795	0.3777	-0.637
Mof_O 	O 	0.3109	0.3761	0.4936	-0.655
Mof_O 	O 	0.443	0.9495	0.0662	-1.223
Mof_O 	O 	0.7097	0.9927	0.0918	-0.677
Mof_O 	O 	0.3769	0.5087	0.6897	-0.637
Mof_O 	O 	0.0904	0.5782	0.9345	0.821
Mof_O 	O 	0.9476	0.933	0.5587	-2.252
Mof_O 	O 	0.58	0.921	0.081	1.763
Mof_O 	O 	0.9834	0.2109	0.4087	-0.648
Mof_O 	O 	0.4096	0.2906	0.5091	-0.662
Mof_O 	O 	0.9338	0.4398	0.0498	-1.867
Mof_O 	O 	0.44	0.441	0.559	-1.486
Mof_O 	O 	0.5904	0.7094	0.4909	-0.663
Mof_O 	O 	0.0785	0.5659	0.0891	0.28
Mof_O 	O 	0.9215	0.4341	0.9109	0.284
Mof_O 	O 	0.4903	0.0897	0.7909	-0.668
Mof_O 	O 	0.4097	0.4812	0.2888	-0.629
Mof_O 	O 	0.4923	0.8102	0.1243	-0.645
Mof_O 	O 	0.56	0.559	0.441	-1.486
Mof_O 	O 	0.9928	0.9095	0.2912	-0.679
Mof_O 	O 	0.5504	0.9333	0.9393	-1.936
Mof_O 	O 	0.2089	0.4918	0.9116	-0.656
Mof_O 	O 	0.409	0.9221	0.9342	0.435
Mof_O 	O 	0.6241	0.1916	0.9792	-0.638
Mof_O 	O 	0.991	0.5887	0.2097	-0.649
Mof_O 	O 	0.5903	0.5188	0.7112	-0.63
Mof_O 	O 	0.06	0.061	0.558	-1.417
Mof_O 	O 	0.2915	0.4927	0.5891	-0.658
Mof_O 	O 	0.009	0.4113	0.7903	-0.649
Mof_O 	O 	0.4088	0.0183	0.2105	-0.641
Mof_O 	O 	0.557	0.0505	0.9338	-1.224
Mof_O 	O 	0.7903	0.0918	0.5188	-0.67
Mof_O 	O 	0.0069	0.8102	0.376	-0.664
Mof_O 	O 	0.3086	0.0192	0.1247	-0.64
Mof_O 	O 	0.4364	0.5589	0.5472	-1.368
Mof_O 	O 	0.3759	0.8084	0.0208	-0.636
Mof_O 	O 	0.481	0.7898	0.9078	-0.646
Mof_O 	O 	0.5091	0.5903	0.2911	-0.643
Mof_O 	O 	0.94	0.939	0.442	-1.422
Mof_O 	O 	0.31	0.1243	0.0083	-0.677
Mof_O 	O 	0.8073	0.5199	0.8758	-0.633
Mof_O 	O 	0.1927	0.4801	0.1242	-0.632
Mof_O 	O 	0.0206	0.7107	0.9088	-0.64
Mof_O 	O 	0.8085	0.9787	0.6235	-0.647
Mof_O 	O 	0.583	0.579	0.42	0.385
Mof_O 	O 	0.519	0.2102	0.0922	-0.641
Mof_O 	O 	0.9095	0.7892	0.4916	-0.643
Mof_O 	O 	0.0662	0.5602	0.9502	-1.871
Mof_O 	O 	0.6231	0.4913	0.3103	-0.636
Mof_O 	O 	0.4098	0.2088	0.9921	-0.681
Mof_O 	O 	0.8098	0.8766	0.51	-0.642
Mof_O 	O 	0.521	0.1217	0.193	-0.629
Mof_O 	O 	0.5097	0.9103	0.2091	-0.673
Mof_O 	O 	0.7111	0.0902	0.9819	-0.613
Mof_O 	O 	0.8771	0.0086	0.3103	-0.663
Mof_O 	O 	0.878	0.4928	0.19	-0.643
Mof_O 	O 	0.5669	0.909	0.922	0.875
Mof_O 	O 	0.08	0.419	0.918	0.604
Mof_O 	O 	0.0193	0.8771	0.6914	-0.657
Mof_O 	O 	0.5077	0.1898	0.8757	-0.646
Mof_O 	O 	0.5636	0.4411	0.4528	-1.368
Mof_O 	O 	0.0166	0.7891	0.5913	-0.649
Mof_O 	O 	0.0524	0.067	0.4413	-2.237
Mof_O 	O 	0.0205	0.6237	0.8074	-0.64
Mof_O 	O 	0.2111	0.5894	0.0187	-0.631
Mof_O 	O 	0.439	0.062	0.94	-2.84
Mof_O 	O 	0.08	0.079	0.582	0.374
Mof_O 	O 	0.9931	0.1898	0.624	-0.663
Mof_O 	O 	0.1229	0.9914	0.6897	-0.678
Mof_O 	O 	0.434	0.41	0.4204	0.72
Mof_O 	O 	0.8771	0.31	0.9813	-0.656
Mof_O 	O 	0.1229	0.69	0.0187	-0.654
Mof_O 	O 	0.0596	0.9508	0.4343	-1.937
Mof_O 	O 	0.7916	0.9906	0.409	-0.668
Mof_O 	O 	0.2903	0.0073	0.9082	-0.676
Mof_O 	O 	0.1889	0.376	0.0083	-0.686
Mof_O 	O 	0.0506	0.4315	0.0602	-2.685
Mof_O 	O 	0.3769	0.9922	0.8109	-0.696
Mof_O 	O 	0.7085	0.5073	0.4109	-0.658
Mof_O 	O 	0.6914	0.9808	0.8753	-0.645
Mof_O 	O 	0.939	0.561	0.06	-1.633
Mof_O 	O 	0.2084	0.0094	0.591	-0.669
Mof_O 	O 	0.0586	0.5461	0.0673	-1.328
Mof_O 	O 	0.7889	0.4106	0.9813	-0.635
Mof_O 	O 	0.122	0.5072	0.81	-0.643
Mof_O 	O 	0.417	0.421	0.58	0.385
Mof_O 	O 	0.0649	0.092	0.4229	1.175
Mof_O 	O 	0.479	0.8783	0.807	-0.631
Mof_O 	O 	0.42	0.079	0.919	1.766
Mof_O 	O 	0.6891	0.6239	0.5064	-0.655
_end
