data_functionalizedCrystal
_audit_creation_method	'EQeq! by Chris Wilmer'
_symmetry_space_group_name_H-M	'P1'
_symmetry_Int_Tables_number	1
_symmetry_cell_setting	triclinic
loop_
_symmetry_equiv_pos_as_xyz
  x,y,z
_cell_length_a	41.616
_cell_length_b	41.616
_cell_length_c	41.616
_cell_angle_alpha	90
_cell_angle_beta	90
_cell_angle_gamma	90
loop_
_atom_site_label
_atom_site_type_symbol
_atom_site_fract_x
_atom_site_fract_y
_atom_site_fract_z
_atom_site_charge
Mof_O 	O 	0.43862	0.29568	0.05976	-0.648
Mof_O 	O 	0.47276	0.24779	0.09375	-0.626
Mof_O 	O 	0.46512	0.33535	0.03228	-0.625
Mof_C 	C 	0.4705	0.2182	0.1881	-0.03
Mof_C 	C 	0.4713	0.2275	0.15683	0.085
Mof_C 	C 	0.42467	0.34965	0.06841	-0.169
Mof_C 	C 	0.40458	0.34059	0.09351	0.084
Mof_C 	C 	0.38879	0.36389	0.1115	-0.029
Mof_C 	C 	0.3931	0.39624	0.10439	0.027
Mof_C 	C 	0.4132	0.40529	0.0793	-0.029
Mof_C 	C 	0.42899	0.382	0.06131	0.084
Mof_C 	C 	0.4444	0.3249	0.05298	0.513
Mof_C 	C 	0.475	0.2002	0.2566	0.008
Mof_C 	C 	0.4158	0.5269	0.363	0.117
Mof_C 	C 	0.3481	0.4771	0.2414	0.001
Mof_O 	O 	0.4481	0.5244	0.4198	-0.599
Mof_C 	C 	0.4019	0.5299	0.3306	-0.031
Mof_C 	C 	0.4761	0.1959	0.2897	-0.001
Mof_C 	C 	0.3619	0.4772	0.2729	0.006
Mof_C 	C 	0.37517	0.41875	0.12602	-0.008
Mof_C 	C 	0.35696	0.44326	0.11247	0.004
Mof_C 	C 	0.34534	0.468	0.13167	-0.001
Mof_C 	C 	0.35193	0.46823	0.16442	0.001
Mof_C 	C 	0.37013	0.44372	0.17796	-0
Mof_C 	C 	0.38175	0.41898	0.15876	0.005
Mof_O 	O 	0.56138	0.70432	0.05976	-0.649
Mof_O 	O 	0.52724	0.75221	0.09375	-0.627
Mof_O 	O 	0.53488	0.66465	0.03228	-0.626
Mof_C 	C 	0.5295	0.7818	0.1881	-0.031
Mof_C 	C 	0.5287	0.7725	0.15683	0.084
Mof_C 	C 	0.57533	0.65035	0.06841	-0.17
Mof_C 	C 	0.59542	0.65941	0.09351	0.083
Mof_C 	C 	0.61121	0.63611	0.1115	-0.03
Mof_C 	C 	0.6069	0.60376	0.10439	0.026
Mof_C 	C 	0.5868	0.59471	0.0793	-0.03
Mof_C 	C 	0.57101	0.618	0.06131	0.083
Mof_C 	C 	0.5556	0.6751	0.05298	0.512
Mof_C 	C 	0.525	0.7998	0.2566	0.007
Mof_C 	C 	0.5842	0.4731	0.363	0.116
Mof_C 	C 	0.6519	0.5229	0.2414	-0
Mof_O 	O 	0.5519	0.4756	0.4198	-0.6
Mof_C 	C 	0.5981	0.4701	0.3306	-0.032
Mof_C 	C 	0.5239	0.8041	0.2897	-0.002
Mof_C 	C 	0.6381	0.5228	0.2729	0.005
Mof_C 	C 	0.62483	0.58125	0.12602	-0.008
Mof_C 	C 	0.64304	0.55674	0.11247	0.004
Mof_C 	C 	0.65466	0.532	0.13167	-0.001
Mof_C 	C 	0.64807	0.53177	0.16442	0.001
Mof_C 	C 	0.62987	0.55628	0.17796	-0
Mof_C 	C 	0.61825	0.58102	0.15876	0.005
Mof_O 	O 	0.56138	0.29568	0.94024	-0.649
Mof_O 	O 	0.52724	0.24779	0.90625	-0.627
Mof_O 	O 	0.53488	0.33535	0.96772	-0.626
Mof_C 	C 	0.5295	0.2182	0.8119	-0.031
Mof_C 	C 	0.5287	0.2275	0.84317	0.084
Mof_C 	C 	0.57533	0.34965	0.93159	-0.17
Mof_C 	C 	0.59542	0.34059	0.90649	0.083
Mof_C 	C 	0.61121	0.36389	0.8885	-0.03
Mof_C 	C 	0.6069	0.39624	0.89561	0.026
Mof_C 	C 	0.5868	0.40529	0.9207	-0.03
Mof_C 	C 	0.57101	0.382	0.93869	0.083
Mof_C 	C 	0.5556	0.3249	0.94702	0.512
Mof_C 	C 	0.525	0.2002	0.7434	0.007
Mof_C 	C 	0.5842	0.5269	0.637	0.116
Mof_C 	C 	0.6519	0.4771	0.7586	-0
Mof_O 	O 	0.5519	0.5244	0.5802	-0.6
Mof_C 	C 	0.5981	0.5299	0.6694	-0.032
Mof_C 	C 	0.5239	0.1959	0.7103	-0.002
Mof_C 	C 	0.6381	0.4772	0.7271	0.005
Mof_C 	C 	0.62483	0.41875	0.87398	-0.008
Mof_C 	C 	0.64304	0.44326	0.88753	0.004
Mof_C 	C 	0.65466	0.468	0.86833	-0.001
Mof_C 	C 	0.64807	0.46823	0.83558	0.001
Mof_C 	C 	0.62987	0.44372	0.82204	-0
Mof_C 	C 	0.61825	0.41898	0.84124	0.005
Mof_O 	O 	0.43862	0.70432	0.94024	-0.649
Mof_O 	O 	0.47276	0.75221	0.90625	-0.627
Mof_O 	O 	0.46512	0.66465	0.96772	-0.626
Mof_C 	C 	0.4705	0.7818	0.8119	-0.031
Mof_C 	C 	0.4713	0.7725	0.84317	0.084
Mof_C 	C 	0.42467	0.65035	0.93159	-0.17
Mof_C 	C 	0.40458	0.65941	0.90649	0.083
Mof_C 	C 	0.38879	0.63611	0.8885	-0.03
Mof_C 	C 	0.3931	0.60376	0.89561	0.026
Mof_C 	C 	0.4132	0.59471	0.9207	-0.03
Mof_C 	C 	0.42899	0.618	0.93869	0.083
Mof_C 	C 	0.4444	0.6751	0.94702	0.512
Mof_C 	C 	0.475	0.7998	0.7434	0.007
Mof_C 	C 	0.4158	0.4731	0.637	0.116
Mof_C 	C 	0.3481	0.5229	0.7586	-0
Mof_O 	O 	0.4481	0.4756	0.5802	-0.6
Mof_C 	C 	0.4019	0.4701	0.6694	-0.032
Mof_C 	C 	0.4761	0.8041	0.7103	-0.002
Mof_C 	C 	0.3619	0.5228	0.7271	0.005
Mof_C 	C 	0.37517	0.58125	0.87398	-0.008
Mof_C 	C 	0.35696	0.55674	0.88753	0.004
Mof_C 	C 	0.34534	0.532	0.86833	-0.001
Mof_C 	C 	0.35193	0.53177	0.83558	0.001
Mof_C 	C 	0.37013	0.55628	0.82204	-0
Mof_C 	C 	0.38175	0.58102	0.84124	0.005
Mof_O 	O 	0.05976	0.43862	0.29568	-0.649
Mof_O 	O 	0.09375	0.47276	0.24779	-0.627
Mof_O 	O 	0.03228	0.46512	0.33535	-0.626
Mof_C 	C 	0.1881	0.4705	0.2182	-0.031
Mof_C 	C 	0.15683	0.4713	0.2275	0.084
Mof_C 	C 	0.06841	0.42467	0.34965	-0.17
Mof_C 	C 	0.09351	0.40458	0.34059	0.083
Mof_C 	C 	0.1115	0.38879	0.36389	-0.03
Mof_C 	C 	0.10439	0.3931	0.39624	0.026
Mof_C 	C 	0.0793	0.4132	0.40529	-0.03
Mof_C 	C 	0.06131	0.42899	0.382	0.083
Mof_C 	C 	0.05298	0.4444	0.3249	0.512
Mof_C 	C 	0.2566	0.475	0.2002	0.007
Mof_C 	C 	0.363	0.4158	0.5269	0.116
Mof_C 	C 	0.2414	0.3481	0.4771	-0
Mof_O 	O 	0.4198	0.4481	0.5244	-0.6
Mof_C 	C 	0.3306	0.4019	0.5299	-0.032
Mof_C 	C 	0.2897	0.4761	0.1959	-0.002
Mof_C 	C 	0.2729	0.3619	0.4772	0.005
Mof_C 	C 	0.12602	0.37517	0.41875	-0.008
Mof_C 	C 	0.11247	0.35696	0.44326	0.004
Mof_C 	C 	0.13167	0.34534	0.468	-0.001
Mof_C 	C 	0.16442	0.35193	0.46823	0.001
Mof_C 	C 	0.17796	0.37013	0.44372	-0
Mof_C 	C 	0.15876	0.38175	0.41898	0.005
Mof_O 	O 	0.05976	0.56138	0.70432	-0.649
Mof_O 	O 	0.09375	0.52724	0.75221	-0.627
Mof_O 	O 	0.03228	0.53488	0.66465	-0.626
Mof_C 	C 	0.1881	0.5295	0.7818	-0.031
Mof_C 	C 	0.15683	0.5287	0.7725	0.084
Mof_C 	C 	0.06841	0.57533	0.65035	-0.17
Mof_C 	C 	0.09351	0.59542	0.65941	0.083
Mof_C 	C 	0.1115	0.61121	0.63611	-0.03
Mof_C 	C 	0.10439	0.6069	0.60376	0.026
Mof_C 	C 	0.0793	0.5868	0.59471	-0.03
Mof_C 	C 	0.06131	0.57101	0.618	0.083
Mof_C 	C 	0.05298	0.5556	0.6751	0.512
Mof_C 	C 	0.2566	0.525	0.7998	0.007
Mof_C 	C 	0.363	0.5842	0.4731	0.116
Mof_C 	C 	0.2414	0.6519	0.5229	-0
Mof_O 	O 	0.4198	0.5519	0.4756	-0.6
Mof_C 	C 	0.3306	0.5981	0.4701	-0.032
Mof_C 	C 	0.2897	0.5239	0.8041	-0.002
Mof_C 	C 	0.2729	0.6381	0.5228	0.005
Mof_C 	C 	0.12602	0.62483	0.58125	-0.008
Mof_C 	C 	0.11247	0.64304	0.55674	0.004
Mof_C 	C 	0.13167	0.65466	0.532	-0.001
Mof_C 	C 	0.16442	0.64807	0.53177	0.001
Mof_C 	C 	0.17796	0.62987	0.55628	-0
Mof_C 	C 	0.15876	0.61825	0.58102	0.005
Mof_O 	O 	0.94024	0.56138	0.29568	-0.649
Mof_O 	O 	0.90625	0.52724	0.24779	-0.627
Mof_O 	O 	0.96772	0.53488	0.33535	-0.626
Mof_C 	C 	0.8119	0.5295	0.2182	-0.031
Mof_C 	C 	0.84317	0.5287	0.2275	0.084
Mof_C 	C 	0.93159	0.57533	0.34965	-0.17
Mof_C 	C 	0.90649	0.59542	0.34059	0.083
Mof_C 	C 	0.8885	0.61121	0.36389	-0.03
Mof_C 	C 	0.89561	0.6069	0.39624	0.026
Mof_C 	C 	0.9207	0.5868	0.40529	-0.03
Mof_C 	C 	0.93869	0.57101	0.382	0.083
Mof_C 	C 	0.94702	0.5556	0.3249	0.512
Mof_C 	C 	0.7434	0.525	0.2002	0.007
Mof_C 	C 	0.637	0.5842	0.5269	0.116
Mof_C 	C 	0.7586	0.6519	0.4771	-0
Mof_O 	O 	0.5802	0.5519	0.5244	-0.6
Mof_C 	C 	0.6694	0.5981	0.5299	-0.032
Mof_C 	C 	0.7103	0.5239	0.1959	-0.002
Mof_C 	C 	0.7271	0.6381	0.4772	0.005
Mof_C 	C 	0.87398	0.62483	0.41875	-0.008
Mof_C 	C 	0.88753	0.64304	0.44326	0.004
Mof_C 	C 	0.86833	0.65466	0.468	-0.001
Mof_C 	C 	0.83558	0.64807	0.46823	0.001
Mof_C 	C 	0.82204	0.62987	0.44372	-0
Mof_C 	C 	0.84124	0.61825	0.41898	0.005
Mof_O 	O 	0.94024	0.43862	0.70432	-0.649
Mof_O 	O 	0.90625	0.47276	0.75221	-0.627
Mof_O 	O 	0.96772	0.46512	0.66465	-0.626
Mof_C 	C 	0.8119	0.4705	0.7818	-0.031
Mof_C 	C 	0.84317	0.4713	0.7725	0.084
Mof_C 	C 	0.93159	0.42467	0.65035	-0.17
Mof_C 	C 	0.90649	0.40458	0.65941	0.083
Mof_C 	C 	0.8885	0.38879	0.63611	-0.03
Mof_C 	C 	0.89561	0.3931	0.60376	0.026
Mof_C 	C 	0.9207	0.4132	0.59471	-0.03
Mof_C 	C 	0.93869	0.42899	0.618	0.083
Mof_C 	C 	0.94702	0.4444	0.6751	0.512
Mof_C 	C 	0.7434	0.475	0.7998	0.007
Mof_C 	C 	0.637	0.4158	0.4731	0.116
Mof_C 	C 	0.7586	0.3481	0.5229	-0
Mof_O 	O 	0.5802	0.4481	0.4756	-0.6
Mof_C 	C 	0.6694	0.4019	0.4701	-0.032
Mof_C 	C 	0.7103	0.4761	0.8041	-0.002
Mof_C 	C 	0.7271	0.3619	0.5228	0.005
Mof_C 	C 	0.87398	0.37517	0.58125	-0.008
Mof_C 	C 	0.88753	0.35696	0.55674	0.004
Mof_C 	C 	0.86833	0.34534	0.532	-0.001
Mof_C 	C 	0.83558	0.35193	0.53177	0.001
Mof_C 	C 	0.82204	0.37013	0.55628	-0
Mof_C 	C 	0.84124	0.38175	0.58102	0.005
Mof_O 	O 	0.29568	0.05976	0.43862	-0.649
Mof_O 	O 	0.24779	0.09375	0.47276	-0.627
Mof_O 	O 	0.33535	0.03228	0.46512	-0.626
Mof_C 	C 	0.2182	0.1881	0.4705	-0.031
Mof_C 	C 	0.2275	0.15683	0.4713	0.084
Mof_C 	C 	0.34965	0.06841	0.42467	-0.17
Mof_C 	C 	0.34059	0.09351	0.40458	0.083
Mof_C 	C 	0.36389	0.1115	0.38879	-0.03
Mof_C 	C 	0.39624	0.10439	0.3931	0.026
Mof_C 	C 	0.40529	0.0793	0.4132	-0.03
Mof_C 	C 	0.382	0.06131	0.42899	0.083
Mof_C 	C 	0.3249	0.05298	0.4444	0.512
Mof_C 	C 	0.2002	0.2566	0.475	0.007
Mof_C 	C 	0.5269	0.363	0.4158	0.116
Mof_C 	C 	0.4771	0.2414	0.3481	-0
Mof_O 	O 	0.5244	0.4198	0.4481	-0.6
Mof_C 	C 	0.5299	0.3306	0.4019	-0.032
Mof_C 	C 	0.1959	0.2897	0.4761	-0.002
Mof_C 	C 	0.4772	0.2729	0.3619	0.005
Mof_C 	C 	0.41875	0.12602	0.37517	-0.008
Mof_C 	C 	0.44326	0.11247	0.35696	0.004
Mof_C 	C 	0.468	0.13167	0.34534	-0.001
Mof_C 	C 	0.46823	0.16442	0.35193	0.001
Mof_C 	C 	0.44372	0.17796	0.37013	-0
Mof_C 	C 	0.41898	0.15876	0.38175	0.005
Mof_O 	O 	0.70432	0.05976	0.56138	-0.649
Mof_O 	O 	0.75221	0.09375	0.52724	-0.627
Mof_O 	O 	0.66465	0.03228	0.53488	-0.626
Mof_C 	C 	0.7818	0.1881	0.5295	-0.031
Mof_C 	C 	0.7725	0.15683	0.5287	0.084
Mof_C 	C 	0.65035	0.06841	0.57533	-0.17
Mof_C 	C 	0.65941	0.09351	0.59542	0.083
Mof_C 	C 	0.63611	0.1115	0.61121	-0.03
Mof_C 	C 	0.60376	0.10439	0.6069	0.026
Mof_C 	C 	0.59471	0.0793	0.5868	-0.03
Mof_C 	C 	0.618	0.06131	0.57101	0.083
Mof_C 	C 	0.6751	0.05298	0.5556	0.512
Mof_C 	C 	0.7998	0.2566	0.525	0.007
Mof_C 	C 	0.4731	0.363	0.5842	0.116
Mof_C 	C 	0.5229	0.2414	0.6519	-0
Mof_O 	O 	0.4756	0.4198	0.5519	-0.6
Mof_C 	C 	0.4701	0.3306	0.5981	-0.032
Mof_C 	C 	0.8041	0.2897	0.5239	-0.002
Mof_C 	C 	0.5228	0.2729	0.6381	0.005
Mof_C 	C 	0.58125	0.12602	0.62483	-0.008
Mof_C 	C 	0.55674	0.11247	0.64304	0.004
Mof_C 	C 	0.532	0.13167	0.65466	-0.001
Mof_C 	C 	0.53177	0.16442	0.64807	0.001
Mof_C 	C 	0.55628	0.17796	0.62987	-0
Mof_C 	C 	0.58102	0.15876	0.61825	0.005
Mof_O 	O 	0.29568	0.94024	0.56138	-0.649
Mof_O 	O 	0.24779	0.90625	0.52724	-0.627
Mof_O 	O 	0.33535	0.96772	0.53488	-0.626
Mof_C 	C 	0.2182	0.8119	0.5295	-0.031
Mof_C 	C 	0.2275	0.84317	0.5287	0.084
Mof_C 	C 	0.34965	0.93159	0.57533	-0.17
Mof_C 	C 	0.34059	0.90649	0.59542	0.083
Mof_C 	C 	0.36389	0.8885	0.61121	-0.03
Mof_C 	C 	0.39624	0.89561	0.6069	0.026
Mof_C 	C 	0.40529	0.9207	0.5868	-0.03
Mof_C 	C 	0.382	0.93869	0.57101	0.083
Mof_C 	C 	0.3249	0.94702	0.5556	0.512
Mof_C 	C 	0.2002	0.7434	0.525	0.007
Mof_C 	C 	0.5269	0.637	0.5842	0.116
Mof_C 	C 	0.4771	0.7586	0.6519	-0
Mof_O 	O 	0.5244	0.5802	0.5519	-0.6
Mof_C 	C 	0.5299	0.6694	0.5981	-0.032
Mof_C 	C 	0.1959	0.7103	0.5239	-0.002
Mof_C 	C 	0.4772	0.7271	0.6381	0.005
Mof_C 	C 	0.41875	0.87398	0.62483	-0.008
Mof_C 	C 	0.44326	0.88753	0.64304	0.004
Mof_C 	C 	0.468	0.86833	0.65466	-0.001
Mof_C 	C 	0.46823	0.83558	0.64807	0.001
Mof_C 	C 	0.44372	0.82204	0.62987	-0
Mof_C 	C 	0.41898	0.84124	0.61825	0.005
Mof_O 	O 	0.70432	0.94024	0.43862	-0.649
Mof_O 	O 	0.75221	0.90625	0.47276	-0.627
Mof_O 	O 	0.66465	0.96772	0.46512	-0.626
Mof_C 	C 	0.7818	0.8119	0.4705	-0.031
Mof_C 	C 	0.7725	0.84317	0.4713	0.084
Mof_C 	C 	0.65035	0.93159	0.42467	-0.17
Mof_C 	C 	0.65941	0.90649	0.40458	0.083
Mof_C 	C 	0.63611	0.8885	0.38879	-0.03
Mof_C 	C 	0.60376	0.89561	0.3931	0.026
Mof_C 	C 	0.59471	0.9207	0.4132	-0.03
Mof_C 	C 	0.618	0.93869	0.42899	0.083
Mof_C 	C 	0.6751	0.94702	0.4444	0.512
Mof_C 	C 	0.7998	0.7434	0.475	0.007
Mof_C 	C 	0.4731	0.637	0.4158	0.116
Mof_C 	C 	0.5229	0.7586	0.3481	-0
Mof_O 	O 	0.4756	0.5802	0.4481	-0.6
Mof_C 	C 	0.4701	0.6694	0.4019	-0.032
Mof_C 	C 	0.8041	0.7103	0.4761	-0.002
Mof_C 	C 	0.5228	0.7271	0.3619	0.005
Mof_C 	C 	0.58125	0.87398	0.37517	-0.008
Mof_C 	C 	0.55674	0.88753	0.35696	0.004
Mof_C 	C 	0.532	0.86833	0.34534	-0.001
Mof_C 	C 	0.53177	0.83558	0.35193	0.001
Mof_C 	C 	0.55628	0.82204	0.37013	-0
Mof_C 	C 	0.58102	0.84124	0.38175	0.005
Mof_O 	O 	0.79568	0.93862	0.44024	-0.649
Mof_O 	O 	0.74779	0.97276	0.40625	-0.627
Mof_O 	O 	0.83535	0.96512	0.46772	-0.626
Mof_C 	C 	0.7182	0.9705	0.3119	-0.031
Mof_C 	C 	0.7275	0.9713	0.34317	0.084
Mof_C 	C 	0.84965	0.92467	0.43159	-0.17
Mof_C 	C 	0.84059	0.90458	0.40649	0.083
Mof_C 	C 	0.86389	0.88879	0.3885	-0.03
Mof_C 	C 	0.89624	0.8931	0.39561	0.026
Mof_C 	C 	0.90529	0.9132	0.4207	-0.03
Mof_C 	C 	0.882	0.92899	0.43869	0.083
Mof_C 	C 	0.8249	0.9444	0.44702	0.512
Mof_C 	C 	0.7002	0.975	0.2434	0.007
Mof_C 	C 	0.0269	0.9158	0.137	0.116
Mof_C 	C 	0.9771	0.8481	0.2586	-0
Mof_O 	O 	0.0244	0.9481	0.0802	-0.6
Mof_C 	C 	0.0299	0.9019	0.1694	-0.032
Mof_C 	C 	0.6959	0.9761	0.2103	-0.003
Mof_C 	C 	0.9772	0.8619	0.2271	0.005
Mof_C 	C 	0.91875	0.87517	0.37398	-0.008
Mof_C 	C 	0.94326	0.85696	0.38753	0.004
Mof_C 	C 	0.968	0.84534	0.36833	-0.001
Mof_C 	C 	0.96823	0.85193	0.33558	0.001
Mof_C 	C 	0.94372	0.87013	0.32204	-0
Mof_C 	C 	0.91898	0.88175	0.34124	0.005
Mof_O 	O 	0.20432	0.06138	0.44024	-0.649
Mof_O 	O 	0.25221	0.02724	0.40625	-0.627
Mof_O 	O 	0.16465	0.03488	0.46772	-0.626
Mof_C 	C 	0.2818	0.0295	0.3119	-0.031
Mof_C 	C 	0.2725	0.0287	0.34317	0.084
Mof_C 	C 	0.15035	0.07533	0.43159	-0.17
Mof_C 	C 	0.15941	0.09542	0.40649	0.083
Mof_C 	C 	0.13611	0.11121	0.3885	-0.03
Mof_C 	C 	0.10376	0.1069	0.39561	0.026
Mof_C 	C 	0.09471	0.0868	0.4207	-0.03
Mof_C 	C 	0.118	0.07101	0.43869	0.083
Mof_C 	C 	0.1751	0.0556	0.44702	0.512
Mof_C 	C 	0.2998	0.025	0.2434	0.007
Mof_C 	C 	0.9731	0.0842	0.137	0.116
Mof_C 	C 	0.0229	0.1519	0.2586	-0
Mof_O 	O 	0.9756	0.0519	0.0802	-0.6
Mof_C 	C 	0.9701	0.0981	0.1694	-0.032
Mof_C 	C 	0.3041	0.0239	0.2103	-0.002
Mof_C 	C 	0.0228	0.1381	0.2271	0.005
Mof_C 	C 	0.08125	0.12483	0.37398	-0.008
Mof_C 	C 	0.05674	0.14304	0.38753	0.004
Mof_C 	C 	0.032	0.15466	0.36833	-0.001
Mof_C 	C 	0.03177	0.14807	0.33558	0.001
Mof_C 	C 	0.05628	0.12987	0.32204	-0
Mof_C 	C 	0.08102	0.11825	0.34124	0.005
Mof_O 	O 	0.79568	0.06138	0.55976	-0.649
Mof_O 	O 	0.74779	0.02724	0.59375	-0.627
Mof_O 	O 	0.83535	0.03488	0.53228	-0.626
Mof_C 	C 	0.7182	0.0295	0.6881	-0.031
Mof_C 	C 	0.7275	0.0287	0.65683	0.084
Mof_C 	C 	0.84965	0.07533	0.56841	-0.17
Mof_C 	C 	0.84059	0.09542	0.59351	0.083
Mof_C 	C 	0.86389	0.11121	0.6115	-0.03
Mof_C 	C 	0.89624	0.1069	0.60439	0.026
Mof_C 	C 	0.90529	0.0868	0.5793	-0.03
Mof_C 	C 	0.882	0.07101	0.56131	0.083
Mof_C 	C 	0.8249	0.0556	0.55298	0.512
Mof_C 	C 	0.7002	0.025	0.7566	0.007
Mof_C 	C 	0.0269	0.0842	0.863	0.116
Mof_C 	C 	0.9771	0.1519	0.7414	-0
Mof_O 	O 	0.0244	0.0519	0.9198	-0.6
Mof_C 	C 	0.0299	0.0981	0.8306	-0.032
Mof_C 	C 	0.6959	0.0239	0.7897	-0.002
Mof_C 	C 	0.9772	0.1381	0.7729	0.005
Mof_C 	C 	0.91875	0.12483	0.62602	-0.008
Mof_C 	C 	0.94326	0.14304	0.61247	0.004
Mof_C 	C 	0.968	0.15466	0.63167	-0.001
Mof_C 	C 	0.96823	0.14807	0.66442	0.001
Mof_C 	C 	0.94372	0.12987	0.67796	-0
Mof_C 	C 	0.91898	0.11825	0.65876	0.005
Mof_O 	O 	0.20432	0.93862	0.55976	-0.649
Mof_O 	O 	0.25221	0.97276	0.59375	-0.627
Mof_O 	O 	0.16465	0.96512	0.53228	-0.626
Mof_C 	C 	0.2818	0.9705	0.6881	-0.031
Mof_C 	C 	0.2725	0.9713	0.65683	0.084
Mof_C 	C 	0.15035	0.92467	0.56841	-0.17
Mof_C 	C 	0.15941	0.90458	0.59351	0.083
Mof_C 	C 	0.13611	0.88879	0.6115	-0.03
Mof_C 	C 	0.10376	0.8931	0.60439	0.026
Mof_C 	C 	0.09471	0.9132	0.5793	-0.03
Mof_C 	C 	0.118	0.92899	0.56131	0.083
Mof_C 	C 	0.1751	0.9444	0.55298	0.512
Mof_C 	C 	0.2998	0.975	0.7566	0.007
Mof_C 	C 	0.9731	0.9158	0.863	0.116
Mof_C 	C 	0.0229	0.8481	0.7414	-0
Mof_O 	O 	0.9756	0.9481	0.9198	-0.6
Mof_C 	C 	0.9701	0.9019	0.8306	-0.032
Mof_C 	C 	0.3041	0.9761	0.7897	-0.003
Mof_C 	C 	0.0228	0.8619	0.7729	0.005
Mof_C 	C 	0.08125	0.87517	0.62602	-0.008
Mof_C 	C 	0.05674	0.85696	0.61247	0.004
Mof_C 	C 	0.032	0.84534	0.63167	-0.001
Mof_C 	C 	0.03177	0.85193	0.66442	0.001
Mof_C 	C 	0.05628	0.87013	0.67796	-0
Mof_C 	C 	0.08102	0.88175	0.65876	0.005
Mof_O 	O 	0.93862	0.55976	0.20432	-0.649
Mof_O 	O 	0.97276	0.59375	0.25221	-0.627
Mof_O 	O 	0.96512	0.53228	0.16465	-0.626
Mof_C 	C 	0.9705	0.6881	0.2818	-0.031
Mof_C 	C 	0.9713	0.65683	0.2725	0.084
Mof_C 	C 	0.92467	0.56841	0.15035	-0.17
Mof_C 	C 	0.90458	0.59351	0.15941	0.083
Mof_C 	C 	0.88879	0.6115	0.13611	-0.03
Mof_C 	C 	0.8931	0.60439	0.10376	0.026
Mof_C 	C 	0.9132	0.5793	0.09471	-0.03
Mof_C 	C 	0.92899	0.56131	0.118	0.083
Mof_C 	C 	0.9444	0.55298	0.1751	0.512
Mof_C 	C 	0.975	0.7566	0.2998	0.007
Mof_C 	C 	0.9158	0.863	0.9731	0.116
Mof_C 	C 	0.8481	0.7414	0.0229	-0
Mof_O 	O 	0.9481	0.9198	0.9756	-0.6
Mof_C 	C 	0.9019	0.8306	0.9701	-0.032
Mof_C 	C 	0.9761	0.7897	0.3041	-0.003
Mof_C 	C 	0.8619	0.7729	0.0228	0.005
Mof_C 	C 	0.87517	0.62602	0.08125	-0.008
Mof_C 	C 	0.85696	0.61247	0.05674	0.004
Mof_C 	C 	0.84534	0.63167	0.032	-0.001
Mof_C 	C 	0.85193	0.66442	0.03177	0.001
Mof_C 	C 	0.87013	0.67796	0.05628	-0
Mof_C 	C 	0.88175	0.65876	0.08102	0.005
Mof_O 	O 	0.06138	0.55976	0.79568	-0.649
Mof_O 	O 	0.02724	0.59375	0.74779	-0.627
Mof_O 	O 	0.03488	0.53228	0.83535	-0.626
Mof_C 	C 	0.0295	0.6881	0.7182	-0.031
Mof_C 	C 	0.0287	0.65683	0.7275	0.084
Mof_C 	C 	0.07533	0.56841	0.84965	-0.17
Mof_C 	C 	0.09542	0.59351	0.84059	0.083
Mof_C 	C 	0.11121	0.6115	0.86389	-0.03
Mof_C 	C 	0.1069	0.60439	0.89624	0.026
Mof_C 	C 	0.0868	0.5793	0.90529	-0.03
Mof_C 	C 	0.07101	0.56131	0.882	0.083
Mof_C 	C 	0.0556	0.55298	0.8249	0.512
Mof_C 	C 	0.025	0.7566	0.7002	0.007
Mof_C 	C 	0.0842	0.863	0.0269	0.116
Mof_C 	C 	0.1519	0.7414	0.9771	-0
Mof_O 	O 	0.0519	0.9198	0.0244	-0.6
Mof_C 	C 	0.0981	0.8306	0.0299	-0.032
Mof_C 	C 	0.0239	0.7897	0.6959	-0.002
Mof_C 	C 	0.1381	0.7729	0.9772	0.005
Mof_C 	C 	0.12483	0.62602	0.91875	-0.008
Mof_C 	C 	0.14304	0.61247	0.94326	0.004
Mof_C 	C 	0.15466	0.63167	0.968	-0.001
Mof_C 	C 	0.14807	0.66442	0.96823	0.001
Mof_C 	C 	0.12987	0.67796	0.94372	-0
Mof_C 	C 	0.11825	0.65876	0.91898	0.005
Mof_O 	O 	0.06138	0.44024	0.20432	-0.649
Mof_O 	O 	0.02724	0.40625	0.25221	-0.627
Mof_O 	O 	0.03488	0.46772	0.16465	-0.626
Mof_C 	C 	0.0295	0.3119	0.2818	-0.031
Mof_C 	C 	0.0287	0.34317	0.2725	0.084
Mof_C 	C 	0.07533	0.43159	0.15035	-0.17
Mof_C 	C 	0.09542	0.40649	0.15941	0.083
Mof_C 	C 	0.11121	0.3885	0.13611	-0.03
Mof_C 	C 	0.1069	0.39561	0.10376	0.026
Mof_C 	C 	0.0868	0.4207	0.09471	-0.03
Mof_C 	C 	0.07101	0.43869	0.118	0.083
Mof_C 	C 	0.0556	0.44702	0.1751	0.512
Mof_C 	C 	0.025	0.2434	0.2998	0.007
Mof_C 	C 	0.0842	0.137	0.9731	0.116
Mof_C 	C 	0.1519	0.2586	0.0229	-0
Mof_O 	O 	0.0519	0.0802	0.9756	-0.6
Mof_C 	C 	0.0981	0.1694	0.9701	-0.032
Mof_C 	C 	0.0239	0.2103	0.3041	-0.002
Mof_C 	C 	0.1381	0.2271	0.0228	0.005
Mof_C 	C 	0.12483	0.37398	0.08125	-0.008
Mof_C 	C 	0.14304	0.38753	0.05674	0.004
Mof_C 	C 	0.15466	0.36833	0.032	-0.001
Mof_C 	C 	0.14807	0.33558	0.03177	0.001
Mof_C 	C 	0.12987	0.32204	0.05628	-0
Mof_C 	C 	0.11825	0.34124	0.08102	0.005
Mof_O 	O 	0.93862	0.44024	0.79568	-0.649
Mof_O 	O 	0.97276	0.40625	0.74779	-0.627
Mof_O 	O 	0.96512	0.46772	0.83535	-0.626
Mof_C 	C 	0.9705	0.3119	0.7182	-0.031
Mof_C 	C 	0.9713	0.34317	0.7275	0.084
Mof_C 	C 	0.92467	0.43159	0.84965	-0.17
Mof_C 	C 	0.90458	0.40649	0.84059	0.083
Mof_C 	C 	0.88879	0.3885	0.86389	-0.03
Mof_C 	C 	0.8931	0.39561	0.89624	0.026
Mof_C 	C 	0.9132	0.4207	0.90529	-0.03
Mof_C 	C 	0.92899	0.43869	0.882	0.083
Mof_C 	C 	0.9444	0.44702	0.8249	0.512
Mof_C 	C 	0.975	0.2434	0.7002	0.007
Mof_C 	C 	0.9158	0.137	0.0269	0.116
Mof_C 	C 	0.8481	0.2586	0.9771	-0
Mof_O 	O 	0.9481	0.0802	0.0244	-0.6
Mof_C 	C 	0.9019	0.1694	0.0299	-0.032
Mof_C 	C 	0.9761	0.2103	0.6959	-0.003
Mof_C 	C 	0.8619	0.2271	0.9772	0.005
Mof_C 	C 	0.87517	0.37398	0.91875	-0.008
Mof_C 	C 	0.85696	0.38753	0.94326	0.004
Mof_C 	C 	0.84534	0.36833	0.968	-0.001
Mof_C 	C 	0.85193	0.33558	0.96823	0.001
Mof_C 	C 	0.87013	0.32204	0.94372	-0
Mof_C 	C 	0.88175	0.34124	0.91898	0.005
Mof_O 	O 	0.55976	0.79568	0.06138	-0.649
Mof_O 	O 	0.59375	0.74779	0.02724	-0.627
Mof_O 	O 	0.53228	0.83535	0.03488	-0.626
Mof_C 	C 	0.6881	0.7182	0.0295	-0.031
Mof_C 	C 	0.65683	0.7275	0.0287	0.084
Mof_C 	C 	0.56841	0.84965	0.07533	-0.17
Mof_C 	C 	0.59351	0.84059	0.09542	0.083
Mof_C 	C 	0.6115	0.86389	0.11121	-0.03
Mof_C 	C 	0.60439	0.89624	0.1069	0.026
Mof_C 	C 	0.5793	0.90529	0.0868	-0.03
Mof_C 	C 	0.56131	0.882	0.07101	0.083
Mof_C 	C 	0.55298	0.8249	0.0556	0.512
Mof_C 	C 	0.7566	0.7002	0.025	0.007
Mof_C 	C 	0.863	0.0269	0.0842	0.116
Mof_C 	C 	0.7414	0.9771	0.1519	-0
Mof_O 	O 	0.9198	0.0244	0.0519	-0.6
Mof_C 	C 	0.8306	0.0299	0.0981	-0.032
Mof_C 	C 	0.7897	0.6959	0.0239	-0.002
Mof_C 	C 	0.7729	0.9772	0.1381	0.005
Mof_C 	C 	0.62602	0.91875	0.12483	-0.008
Mof_C 	C 	0.61247	0.94326	0.14304	0.004
Mof_C 	C 	0.63167	0.968	0.15466	-0.001
Mof_C 	C 	0.66442	0.96823	0.14807	0.001
Mof_C 	C 	0.67796	0.94372	0.12987	-0
Mof_C 	C 	0.65876	0.91898	0.11825	0.005
Mof_O 	O 	0.55976	0.20432	0.93862	-0.649
Mof_O 	O 	0.59375	0.25221	0.97276	-0.627
Mof_O 	O 	0.53228	0.16465	0.96512	-0.626
Mof_C 	C 	0.6881	0.2818	0.9705	-0.031
Mof_C 	C 	0.65683	0.2725	0.9713	0.084
Mof_C 	C 	0.56841	0.15035	0.92467	-0.17
Mof_C 	C 	0.59351	0.15941	0.90458	0.083
Mof_C 	C 	0.6115	0.13611	0.88879	-0.03
Mof_C 	C 	0.60439	0.10376	0.8931	0.026
Mof_C 	C 	0.5793	0.09471	0.9132	-0.03
Mof_C 	C 	0.56131	0.118	0.92899	0.083
Mof_C 	C 	0.55298	0.1751	0.9444	0.512
Mof_C 	C 	0.7566	0.2998	0.975	0.007
Mof_C 	C 	0.863	0.9731	0.9158	0.116
Mof_C 	C 	0.7414	0.0229	0.8481	-0
Mof_O 	O 	0.9198	0.9756	0.9481	-0.6
Mof_C 	C 	0.8306	0.9701	0.9019	-0.032
Mof_C 	C 	0.7897	0.3041	0.9761	-0.003
Mof_C 	C 	0.7729	0.0228	0.8619	0.005
Mof_C 	C 	0.62602	0.08125	0.87517	-0.008
Mof_C 	C 	0.61247	0.05674	0.85696	0.004
Mof_C 	C 	0.63167	0.032	0.84534	-0.001
Mof_C 	C 	0.66442	0.03177	0.85193	0.001
Mof_C 	C 	0.67796	0.05628	0.87013	-0
Mof_C 	C 	0.65876	0.08102	0.88175	0.005
Mof_O 	O 	0.44024	0.79568	0.93862	-0.649
Mof_O 	O 	0.40625	0.74779	0.97276	-0.627
Mof_O 	O 	0.46772	0.83535	0.96512	-0.626
Mof_C 	C 	0.3119	0.7182	0.9705	-0.031
Mof_C 	C 	0.34317	0.7275	0.9713	0.084
Mof_C 	C 	0.43159	0.84965	0.92467	-0.17
Mof_C 	C 	0.40649	0.84059	0.90458	0.083
Mof_C 	C 	0.3885	0.86389	0.88879	-0.03
Mof_C 	C 	0.39561	0.89624	0.8931	0.026
Mof_C 	C 	0.4207	0.90529	0.9132	-0.03
Mof_C 	C 	0.43869	0.882	0.92899	0.083
Mof_C 	C 	0.44702	0.8249	0.9444	0.512
Mof_C 	C 	0.2434	0.7002	0.975	0.007
Mof_C 	C 	0.137	0.0269	0.9158	0.116
Mof_C 	C 	0.2586	0.9771	0.8481	-0
Mof_O 	O 	0.0802	0.0244	0.9481	-0.6
Mof_C 	C 	0.1694	0.0299	0.9019	-0.032
Mof_C 	C 	0.2103	0.6959	0.9761	-0.003
Mof_C 	C 	0.2271	0.9772	0.8619	0.005
Mof_C 	C 	0.37398	0.91875	0.87517	-0.008
Mof_C 	C 	0.38753	0.94326	0.85696	0.004
Mof_C 	C 	0.36833	0.968	0.84534	-0.001
Mof_C 	C 	0.33558	0.96823	0.85193	0.001
Mof_C 	C 	0.32204	0.94372	0.87013	-0
Mof_C 	C 	0.34124	0.91898	0.88175	0.005
Mof_O 	O 	0.44024	0.20432	0.06138	-0.649
Mof_O 	O 	0.40625	0.25221	0.02724	-0.627
Mof_O 	O 	0.46772	0.16465	0.03488	-0.626
Mof_C 	C 	0.3119	0.2818	0.0295	-0.031
Mof_C 	C 	0.34317	0.2725	0.0287	0.084
Mof_C 	C 	0.43159	0.15035	0.07533	-0.17
Mof_C 	C 	0.40649	0.15941	0.09542	0.083
Mof_C 	C 	0.3885	0.13611	0.11121	-0.03
Mof_C 	C 	0.39561	0.10376	0.1069	0.026
Mof_C 	C 	0.4207	0.09471	0.0868	-0.03
Mof_C 	C 	0.43869	0.118	0.07101	0.083
Mof_C 	C 	0.44702	0.1751	0.0556	0.512
Mof_C 	C 	0.2434	0.2998	0.025	0.007
Mof_C 	C 	0.137	0.9731	0.0842	0.116
Mof_C 	C 	0.2586	0.0229	0.1519	-0
Mof_O 	O 	0.0802	0.9756	0.0519	-0.6
Mof_C 	C 	0.1694	0.9701	0.0981	-0.032
Mof_C 	C 	0.2103	0.3041	0.0239	-0.002
Mof_C 	C 	0.2271	0.0228	0.1381	0.005
Mof_C 	C 	0.37398	0.08125	0.12483	-0.008
Mof_C 	C 	0.38753	0.05674	0.14304	0.004
Mof_C 	C 	0.36833	0.032	0.15466	-0.001
Mof_C 	C 	0.33558	0.03177	0.14807	0.001
Mof_C 	C 	0.32204	0.05628	0.12987	-0
Mof_C 	C 	0.34124	0.08102	0.11825	0.005
Mof_O 	O 	0.56138	0.70432	0.94024	-0.649
Mof_O 	O 	0.52724	0.75221	0.90625	-0.627
Mof_O 	O 	0.53488	0.66465	0.96772	-0.626
Mof_C 	C 	0.5295	0.7818	0.8119	-0.031
Mof_C 	C 	0.5287	0.7725	0.84317	0.084
Mof_C 	C 	0.57533	0.65035	0.93159	-0.17
Mof_C 	C 	0.59542	0.65941	0.90649	0.083
Mof_C 	C 	0.61121	0.63611	0.8885	-0.03
Mof_C 	C 	0.6069	0.60376	0.89561	0.026
Mof_C 	C 	0.5868	0.59471	0.9207	-0.03
Mof_C 	C 	0.57101	0.618	0.93869	0.083
Mof_C 	C 	0.5556	0.6751	0.94702	0.512
Mof_C 	C 	0.525	0.7998	0.7434	0.007
Mof_C 	C 	0.5842	0.4731	0.637	0.116
Mof_C 	C 	0.6519	0.5229	0.7586	-0
Mof_O 	O 	0.5519	0.4756	0.5802	-0.6
Mof_C 	C 	0.5981	0.4701	0.6694	-0.032
Mof_C 	C 	0.5239	0.8041	0.7103	-0.002
Mof_C 	C 	0.6381	0.5228	0.7271	0.005
Mof_C 	C 	0.62483	0.58125	0.87398	-0.008
Mof_C 	C 	0.64304	0.55674	0.88753	0.004
Mof_C 	C 	0.65466	0.532	0.86833	-0.001
Mof_C 	C 	0.64807	0.53177	0.83558	0.001
Mof_C 	C 	0.62987	0.55628	0.82204	-0
Mof_C 	C 	0.61825	0.58102	0.84124	0.005
Mof_O 	O 	0.43862	0.29568	0.94024	-0.649
Mof_O 	O 	0.47276	0.24779	0.90625	-0.627
Mof_O 	O 	0.46512	0.33535	0.96772	-0.626
Mof_C 	C 	0.4705	0.2182	0.8119	-0.031
Mof_C 	C 	0.4713	0.2275	0.84317	0.084
Mof_C 	C 	0.42467	0.34965	0.93159	-0.17
Mof_C 	C 	0.40458	0.34059	0.90649	0.083
Mof_C 	C 	0.38879	0.36389	0.8885	-0.03
Mof_C 	C 	0.3931	0.39624	0.89561	0.026
Mof_C 	C 	0.4132	0.40529	0.9207	-0.03
Mof_C 	C 	0.42899	0.382	0.93869	0.083
Mof_C 	C 	0.4444	0.3249	0.94702	0.512
Mof_C 	C 	0.475	0.2002	0.7434	0.007
Mof_C 	C 	0.4158	0.5269	0.637	0.116
Mof_C 	C 	0.3481	0.4771	0.7586	-0
Mof_O 	O 	0.4481	0.5244	0.5802	-0.6
Mof_C 	C 	0.4019	0.5299	0.6694	-0.032
Mof_C 	C 	0.4761	0.1959	0.7103	-0.002
Mof_C 	C 	0.3619	0.4772	0.7271	0.005
Mof_C 	C 	0.37517	0.41875	0.87398	-0.008
Mof_C 	C 	0.35696	0.44326	0.88753	0.004
Mof_C 	C 	0.34534	0.468	0.86833	-0.001
Mof_C 	C 	0.35193	0.46823	0.83558	0.001
Mof_C 	C 	0.37013	0.44372	0.82204	-0
Mof_C 	C 	0.38175	0.41898	0.84124	0.005
Mof_O 	O 	0.43862	0.70432	0.05976	-0.649
Mof_O 	O 	0.47276	0.75221	0.09375	-0.627
Mof_O 	O 	0.46512	0.66465	0.03228	-0.626
Mof_C 	C 	0.4705	0.7818	0.1881	-0.031
Mof_C 	C 	0.4713	0.7725	0.15683	0.084
Mof_C 	C 	0.42467	0.65035	0.06841	-0.17
Mof_C 	C 	0.40458	0.65941	0.09351	0.083
Mof_C 	C 	0.38879	0.63611	0.1115	-0.03
Mof_C 	C 	0.3931	0.60376	0.10439	0.026
Mof_C 	C 	0.4132	0.59471	0.0793	-0.03
Mof_C 	C 	0.42899	0.618	0.06131	0.083
Mof_C 	C 	0.4444	0.6751	0.05298	0.512
Mof_C 	C 	0.475	0.7998	0.2566	0.007
Mof_C 	C 	0.4158	0.4731	0.363	0.116
Mof_C 	C 	0.3481	0.5229	0.2414	-0
Mof_O 	O 	0.4481	0.4756	0.4198	-0.6
Mof_C 	C 	0.4019	0.4701	0.3306	-0.032
Mof_C 	C 	0.4761	0.8041	0.2897	-0.002
Mof_C 	C 	0.3619	0.5228	0.2729	0.005
Mof_C 	C 	0.37517	0.58125	0.12602	-0.008
Mof_C 	C 	0.35696	0.55674	0.11247	0.004
Mof_C 	C 	0.34534	0.532	0.13167	-0.001
Mof_C 	C 	0.35193	0.53177	0.16442	0.001
Mof_C 	C 	0.37013	0.55628	0.17796	-0
Mof_C 	C 	0.38175	0.58102	0.15876	0.005
Mof_O 	O 	0.56138	0.29568	0.05976	-0.649
Mof_O 	O 	0.52724	0.24779	0.09375	-0.627
Mof_O 	O 	0.53488	0.33535	0.03228	-0.626
Mof_C 	C 	0.5295	0.2182	0.1881	-0.031
Mof_C 	C 	0.5287	0.2275	0.15683	0.084
Mof_C 	C 	0.57533	0.34965	0.06841	-0.17
Mof_C 	C 	0.59542	0.34059	0.09351	0.083
Mof_C 	C 	0.61121	0.36389	0.1115	-0.03
Mof_C 	C 	0.6069	0.39624	0.10439	0.026
Mof_C 	C 	0.5868	0.40529	0.0793	-0.03
Mof_C 	C 	0.57101	0.382	0.06131	0.083
Mof_C 	C 	0.5556	0.3249	0.05298	0.512
Mof_C 	C 	0.525	0.2002	0.2566	0.007
Mof_C 	C 	0.5842	0.5269	0.363	0.116
Mof_C 	C 	0.6519	0.4771	0.2414	-0
Mof_O 	O 	0.5519	0.5244	0.4198	-0.6
Mof_C 	C 	0.5981	0.5299	0.3306	-0.032
Mof_C 	C 	0.5239	0.1959	0.2897	-0.002
Mof_C 	C 	0.6381	0.4772	0.2729	0.005
Mof_C 	C 	0.62483	0.41875	0.12602	-0.008
Mof_C 	C 	0.64304	0.44326	0.11247	0.004
Mof_C 	C 	0.65466	0.468	0.13167	-0.001
Mof_C 	C 	0.64807	0.46823	0.16442	0.001
Mof_C 	C 	0.62987	0.44372	0.17796	-0
Mof_C 	C 	0.61825	0.41898	0.15876	0.005
Mof_O 	O 	0.94024	0.56138	0.70432	-0.649
Mof_O 	O 	0.90625	0.52724	0.75221	-0.627
Mof_O 	O 	0.96772	0.53488	0.66465	-0.626
Mof_C 	C 	0.8119	0.5295	0.7818	-0.031
Mof_C 	C 	0.84317	0.5287	0.7725	0.084
Mof_C 	C 	0.93159	0.57533	0.65035	-0.17
Mof_C 	C 	0.90649	0.59542	0.65941	0.083
Mof_C 	C 	0.8885	0.61121	0.63611	-0.03
Mof_C 	C 	0.89561	0.6069	0.60376	0.026
Mof_C 	C 	0.9207	0.5868	0.59471	-0.03
Mof_C 	C 	0.93869	0.57101	0.618	0.083
Mof_C 	C 	0.94702	0.5556	0.6751	0.512
Mof_C 	C 	0.7434	0.525	0.7998	0.007
Mof_C 	C 	0.637	0.5842	0.4731	0.116
Mof_C 	C 	0.7586	0.6519	0.5229	-0
Mof_O 	O 	0.5802	0.5519	0.4756	-0.6
Mof_C 	C 	0.6694	0.5981	0.4701	-0.032
Mof_C 	C 	0.7103	0.5239	0.8041	-0.002
Mof_C 	C 	0.7271	0.6381	0.5228	0.005
Mof_C 	C 	0.87398	0.62483	0.58125	-0.008
Mof_C 	C 	0.88753	0.64304	0.55674	0.004
Mof_C 	C 	0.86833	0.65466	0.532	-0.001
Mof_C 	C 	0.83558	0.64807	0.53177	0.001
Mof_C 	C 	0.82204	0.62987	0.55628	-0
Mof_C 	C 	0.84124	0.61825	0.58102	0.005
Mof_O 	O 	0.94024	0.43862	0.29568	-0.649
Mof_O 	O 	0.90625	0.47276	0.24779	-0.627
Mof_O 	O 	0.96772	0.46512	0.33535	-0.626
Mof_C 	C 	0.8119	0.4705	0.2182	-0.031
Mof_C 	C 	0.84317	0.4713	0.2275	0.084
Mof_C 	C 	0.93159	0.42467	0.34965	-0.17
Mof_C 	C 	0.90649	0.40458	0.34059	0.083
Mof_C 	C 	0.8885	0.38879	0.36389	-0.03
Mof_C 	C 	0.89561	0.3931	0.39624	0.026
Mof_C 	C 	0.9207	0.4132	0.40529	-0.03
Mof_C 	C 	0.93869	0.42899	0.382	0.083
Mof_C 	C 	0.94702	0.4444	0.3249	0.512
Mof_C 	C 	0.7434	0.475	0.2002	0.007
Mof_C 	C 	0.637	0.4158	0.5269	0.116
Mof_C 	C 	0.7586	0.3481	0.4771	-0
Mof_O 	O 	0.5802	0.4481	0.5244	-0.6
Mof_C 	C 	0.6694	0.4019	0.5299	-0.032
Mof_C 	C 	0.7103	0.4761	0.1959	-0.002
Mof_C 	C 	0.7271	0.3619	0.4772	0.005
Mof_C 	C 	0.87398	0.37517	0.41875	-0.008
Mof_C 	C 	0.88753	0.35696	0.44326	0.004
Mof_C 	C 	0.86833	0.34534	0.468	-0.001
Mof_C 	C 	0.83558	0.35193	0.46823	0.001
Mof_C 	C 	0.82204	0.37013	0.44372	-0
Mof_C 	C 	0.84124	0.38175	0.41898	0.005
Mof_O 	O 	0.05976	0.43862	0.70432	-0.649
Mof_O 	O 	0.09375	0.47276	0.75221	-0.627
Mof_O 	O 	0.03228	0.46512	0.66465	-0.626
Mof_C 	C 	0.1881	0.4705	0.7818	-0.031
Mof_C 	C 	0.15683	0.4713	0.7725	0.084
Mof_C 	C 	0.06841	0.42467	0.65035	-0.17
Mof_C 	C 	0.09351	0.40458	0.65941	0.083
Mof_C 	C 	0.1115	0.38879	0.63611	-0.03
Mof_C 	C 	0.10439	0.3931	0.60376	0.026
Mof_C 	C 	0.0793	0.4132	0.59471	-0.03
Mof_C 	C 	0.06131	0.42899	0.618	0.083
Mof_C 	C 	0.05298	0.4444	0.6751	0.512
Mof_C 	C 	0.2566	0.475	0.7998	0.007
Mof_C 	C 	0.363	0.4158	0.4731	0.116
Mof_C 	C 	0.2414	0.3481	0.5229	-0
Mof_O 	O 	0.4198	0.4481	0.4756	-0.6
Mof_C 	C 	0.3306	0.4019	0.4701	-0.032
Mof_C 	C 	0.2897	0.4761	0.8041	-0.002
Mof_C 	C 	0.2729	0.3619	0.5228	0.005
Mof_C 	C 	0.12602	0.37517	0.58125	-0.008
Mof_C 	C 	0.11247	0.35696	0.55674	0.004
Mof_C 	C 	0.13167	0.34534	0.532	-0.001
Mof_C 	C 	0.16442	0.35193	0.53177	0.001
Mof_C 	C 	0.17796	0.37013	0.55628	-0
Mof_C 	C 	0.15876	0.38175	0.58102	0.005
Mof_O 	O 	0.05976	0.56138	0.29568	-0.649
Mof_O 	O 	0.09375	0.52724	0.24779	-0.627
Mof_O 	O 	0.03228	0.53488	0.33535	-0.626
Mof_C 	C 	0.1881	0.5295	0.2182	-0.031
Mof_C 	C 	0.15683	0.5287	0.2275	0.084
Mof_C 	C 	0.06841	0.57533	0.34965	-0.17
Mof_C 	C 	0.09351	0.59542	0.34059	0.083
Mof_C 	C 	0.1115	0.61121	0.36389	-0.03
Mof_C 	C 	0.10439	0.6069	0.39624	0.026
Mof_C 	C 	0.0793	0.5868	0.40529	-0.03
Mof_C 	C 	0.06131	0.57101	0.382	0.083
Mof_C 	C 	0.05298	0.5556	0.3249	0.512
Mof_C 	C 	0.2566	0.525	0.2002	0.007
Mof_C 	C 	0.363	0.5842	0.5269	0.116
Mof_C 	C 	0.2414	0.6519	0.4771	-0
Mof_O 	O 	0.4198	0.5519	0.5244	-0.6
Mof_C 	C 	0.3306	0.5981	0.5299	-0.032
Mof_C 	C 	0.2897	0.5239	0.1959	-0.002
Mof_C 	C 	0.2729	0.6381	0.4772	0.005
Mof_C 	C 	0.12602	0.62483	0.41875	-0.008
Mof_C 	C 	0.11247	0.64304	0.44326	0.004
Mof_C 	C 	0.13167	0.65466	0.468	-0.001
Mof_C 	C 	0.16442	0.64807	0.46823	0.001
Mof_C 	C 	0.17796	0.62987	0.44372	-0
Mof_C 	C 	0.15876	0.61825	0.41898	0.005
Mof_O 	O 	0.70432	0.94024	0.56138	-0.649
Mof_O 	O 	0.75221	0.90625	0.52724	-0.627
Mof_O 	O 	0.66465	0.96772	0.53488	-0.626
Mof_C 	C 	0.7818	0.8119	0.5295	-0.031
Mof_C 	C 	0.7725	0.84317	0.5287	0.084
Mof_C 	C 	0.65035	0.93159	0.57533	-0.17
Mof_C 	C 	0.65941	0.90649	0.59542	0.083
Mof_C 	C 	0.63611	0.8885	0.61121	-0.03
Mof_C 	C 	0.60376	0.89561	0.6069	0.026
Mof_C 	C 	0.59471	0.9207	0.5868	-0.03
Mof_C 	C 	0.618	0.93869	0.57101	0.083
Mof_C 	C 	0.6751	0.94702	0.5556	0.512
Mof_C 	C 	0.7998	0.7434	0.525	0.007
Mof_C 	C 	0.4731	0.637	0.5842	0.116
Mof_C 	C 	0.5229	0.7586	0.6519	-0
Mof_O 	O 	0.4756	0.5802	0.5519	-0.6
Mof_C 	C 	0.4701	0.6694	0.5981	-0.032
Mof_C 	C 	0.8041	0.7103	0.5239	-0.002
Mof_C 	C 	0.5228	0.7271	0.6381	0.005
Mof_C 	C 	0.58125	0.87398	0.62483	-0.008
Mof_C 	C 	0.55674	0.88753	0.64304	0.004
Mof_C 	C 	0.532	0.86833	0.65466	-0.001
Mof_C 	C 	0.53177	0.83558	0.64807	0.001
Mof_C 	C 	0.55628	0.82204	0.62987	-0
Mof_C 	C 	0.58102	0.84124	0.61825	0.005
Mof_O 	O 	0.29568	0.94024	0.43862	-0.649
Mof_O 	O 	0.24779	0.90625	0.47276	-0.627
Mof_O 	O 	0.33535	0.96772	0.46512	-0.626
Mof_C 	C 	0.2182	0.8119	0.4705	-0.031
Mof_C 	C 	0.2275	0.84317	0.4713	0.084
Mof_C 	C 	0.34965	0.93159	0.42467	-0.17
Mof_C 	C 	0.34059	0.90649	0.40458	0.083
Mof_C 	C 	0.36389	0.8885	0.38879	-0.03
Mof_C 	C 	0.39624	0.89561	0.3931	0.026
Mof_C 	C 	0.40529	0.9207	0.4132	-0.03
Mof_C 	C 	0.382	0.93869	0.42899	0.083
Mof_C 	C 	0.3249	0.94702	0.4444	0.512
Mof_C 	C 	0.2002	0.7434	0.475	0.007
Mof_C 	C 	0.5269	0.637	0.4158	0.116
Mof_C 	C 	0.4771	0.7586	0.3481	-0
Mof_O 	O 	0.5244	0.5802	0.4481	-0.6
Mof_C 	C 	0.5299	0.6694	0.4019	-0.032
Mof_C 	C 	0.1959	0.7103	0.4761	-0.002
Mof_C 	C 	0.4772	0.7271	0.3619	0.005
Mof_C 	C 	0.41875	0.87398	0.37517	-0.008
Mof_C 	C 	0.44326	0.88753	0.35696	0.004
Mof_C 	C 	0.468	0.86833	0.34534	-0.001
Mof_C 	C 	0.46823	0.83558	0.35193	0.001
Mof_C 	C 	0.44372	0.82204	0.37013	-0
Mof_C 	C 	0.41898	0.84124	0.38175	0.005
Mof_O 	O 	0.70432	0.05976	0.43862	-0.649
Mof_O 	O 	0.75221	0.09375	0.47276	-0.627
Mof_O 	O 	0.66465	0.03228	0.46512	-0.626
Mof_C 	C 	0.7818	0.1881	0.4705	-0.031
Mof_C 	C 	0.7725	0.15683	0.4713	0.084
Mof_C 	C 	0.65035	0.06841	0.42467	-0.17
Mof_C 	C 	0.65941	0.09351	0.40458	0.083
Mof_C 	C 	0.63611	0.1115	0.38879	-0.03
Mof_C 	C 	0.60376	0.10439	0.3931	0.026
Mof_C 	C 	0.59471	0.0793	0.4132	-0.03
Mof_C 	C 	0.618	0.06131	0.42899	0.083
Mof_C 	C 	0.6751	0.05298	0.4444	0.512
Mof_C 	C 	0.7998	0.2566	0.475	0.007
Mof_C 	C 	0.4731	0.363	0.4158	0.116
Mof_C 	C 	0.5229	0.2414	0.3481	-0
Mof_O 	O 	0.4756	0.4198	0.4481	-0.6
Mof_C 	C 	0.4701	0.3306	0.4019	-0.032
Mof_C 	C 	0.8041	0.2897	0.4761	-0.002
Mof_C 	C 	0.5228	0.2729	0.3619	0.005
Mof_C 	C 	0.58125	0.12602	0.37517	-0.008
Mof_C 	C 	0.55674	0.11247	0.35696	0.004
Mof_C 	C 	0.532	0.13167	0.34534	-0.001
Mof_C 	C 	0.53177	0.16442	0.35193	0.001
Mof_C 	C 	0.55628	0.17796	0.37013	-0
Mof_C 	C 	0.58102	0.15876	0.38175	0.005
Mof_O 	O 	0.29568	0.05976	0.56138	-0.649
Mof_O 	O 	0.24779	0.09375	0.52724	-0.627
Mof_O 	O 	0.33535	0.03228	0.53488	-0.626
Mof_C 	C 	0.2182	0.1881	0.5295	-0.031
Mof_C 	C 	0.2275	0.15683	0.5287	0.084
Mof_C 	C 	0.34965	0.06841	0.57533	-0.17
Mof_C 	C 	0.34059	0.09351	0.59542	0.083
Mof_C 	C 	0.36389	0.1115	0.61121	-0.03
Mof_C 	C 	0.39624	0.10439	0.6069	0.026
Mof_C 	C 	0.40529	0.0793	0.5868	-0.03
Mof_C 	C 	0.382	0.06131	0.57101	0.083
Mof_C 	C 	0.3249	0.05298	0.5556	0.512
Mof_C 	C 	0.2002	0.2566	0.525	0.007
Mof_C 	C 	0.5269	0.363	0.5842	0.116
Mof_C 	C 	0.4771	0.2414	0.6519	-0
Mof_O 	O 	0.5244	0.4198	0.5519	-0.6
Mof_C 	C 	0.5299	0.3306	0.5981	-0.032
Mof_C 	C 	0.1959	0.2897	0.5239	-0.002
Mof_C 	C 	0.4772	0.2729	0.6381	0.005
Mof_C 	C 	0.41875	0.12602	0.62483	-0.008
Mof_C 	C 	0.44326	0.11247	0.64304	0.004
Mof_C 	C 	0.468	0.13167	0.65466	-0.001
Mof_C 	C 	0.46823	0.16442	0.64807	0.001
Mof_C 	C 	0.44372	0.17796	0.62987	-0
Mof_C 	C 	0.41898	0.15876	0.61825	0.005
Mof_O 	O 	0.20432	0.06138	0.55976	-0.649
Mof_O 	O 	0.25221	0.02724	0.59375	-0.627
Mof_O 	O 	0.16465	0.03488	0.53228	-0.626
Mof_C 	C 	0.2818	0.0295	0.6881	-0.031
Mof_C 	C 	0.2725	0.0287	0.65683	0.084
Mof_C 	C 	0.15035	0.07533	0.56841	-0.17
Mof_C 	C 	0.15941	0.09542	0.59351	0.083
Mof_C 	C 	0.13611	0.11121	0.6115	-0.03
Mof_C 	C 	0.10376	0.1069	0.60439	0.026
Mof_C 	C 	0.09471	0.0868	0.5793	-0.03
Mof_C 	C 	0.118	0.07101	0.56131	0.083
Mof_C 	C 	0.1751	0.0556	0.55298	0.512
Mof_C 	C 	0.2998	0.025	0.7566	0.007
Mof_C 	C 	0.9731	0.0842	0.863	0.116
Mof_C 	C 	0.0229	0.1519	0.7414	-0
Mof_O 	O 	0.9756	0.0519	0.9198	-0.6
Mof_C 	C 	0.9701	0.0981	0.8306	-0.032
Mof_C 	C 	0.3041	0.0239	0.7897	-0.002
Mof_C 	C 	0.0228	0.1381	0.7729	0.005
Mof_C 	C 	0.08125	0.12483	0.62602	-0.008
Mof_C 	C 	0.05674	0.14304	0.61247	0.004
Mof_C 	C 	0.032	0.15466	0.63167	-0.001
Mof_C 	C 	0.03177	0.14807	0.66442	0.001
Mof_C 	C 	0.05628	0.12987	0.67796	-0
Mof_C 	C 	0.08102	0.11825	0.65876	0.005
Mof_O 	O 	0.79568	0.93862	0.55976	-0.649
Mof_O 	O 	0.74779	0.97276	0.59375	-0.627
Mof_O 	O 	0.83535	0.96512	0.53228	-0.626
Mof_C 	C 	0.7182	0.9705	0.6881	-0.031
Mof_C 	C 	0.7275	0.9713	0.65683	0.084
Mof_C 	C 	0.84965	0.92467	0.56841	-0.17
Mof_C 	C 	0.84059	0.90458	0.59351	0.083
Mof_C 	C 	0.86389	0.88879	0.6115	-0.03
Mof_C 	C 	0.89624	0.8931	0.60439	0.026
Mof_C 	C 	0.90529	0.9132	0.5793	-0.03
Mof_C 	C 	0.882	0.92899	0.56131	0.083
Mof_C 	C 	0.8249	0.9444	0.55298	0.512
Mof_C 	C 	0.7002	0.975	0.7566	0.007
Mof_C 	C 	0.0269	0.9158	0.863	0.116
Mof_C 	C 	0.9771	0.8481	0.7414	-0
Mof_O 	O 	0.0244	0.9481	0.9198	-0.6
Mof_C 	C 	0.0299	0.9019	0.8306	-0.032
Mof_C 	C 	0.6959	0.9761	0.7897	-0.003
Mof_C 	C 	0.9772	0.8619	0.7729	0.005
Mof_C 	C 	0.91875	0.87517	0.62602	-0.008
Mof_C 	C 	0.94326	0.85696	0.61247	0.004
Mof_C 	C 	0.968	0.84534	0.63167	-0.001
Mof_C 	C 	0.96823	0.85193	0.66442	0.001
Mof_C 	C 	0.94372	0.87013	0.67796	-0
Mof_C 	C 	0.91898	0.88175	0.65876	0.005
Mof_O 	O 	0.20432	0.93862	0.44024	-0.649
Mof_O 	O 	0.25221	0.97276	0.40625	-0.627
Mof_O 	O 	0.16465	0.96512	0.46772	-0.626
Mof_C 	C 	0.2818	0.9705	0.3119	-0.031
Mof_C 	C 	0.2725	0.9713	0.34317	0.084
Mof_C 	C 	0.15035	0.92467	0.43159	-0.17
Mof_C 	C 	0.15941	0.90458	0.40649	0.083
Mof_C 	C 	0.13611	0.88879	0.3885	-0.03
Mof_C 	C 	0.10376	0.8931	0.39561	0.026
Mof_C 	C 	0.09471	0.9132	0.4207	-0.03
Mof_C 	C 	0.118	0.92899	0.43869	0.083
Mof_C 	C 	0.1751	0.9444	0.44702	0.512
Mof_C 	C 	0.2998	0.975	0.2434	0.007
Mof_C 	C 	0.9731	0.9158	0.137	0.116
Mof_C 	C 	0.0229	0.8481	0.2586	-0
Mof_O 	O 	0.9756	0.9481	0.0802	-0.6
Mof_C 	C 	0.9701	0.9019	0.1694	-0.032
Mof_C 	C 	0.3041	0.9761	0.2103	-0.003
Mof_C 	C 	0.0228	0.8619	0.2271	0.005
Mof_C 	C 	0.08125	0.87517	0.37398	-0.008
Mof_C 	C 	0.05674	0.85696	0.38753	0.004
Mof_C 	C 	0.032	0.84534	0.36833	-0.001
Mof_C 	C 	0.03177	0.85193	0.33558	0.001
Mof_C 	C 	0.05628	0.87013	0.32204	-0
Mof_C 	C 	0.08102	0.88175	0.34124	0.005
Mof_O 	O 	0.79568	0.06138	0.44024	-0.649
Mof_O 	O 	0.74779	0.02724	0.40625	-0.627
Mof_O 	O 	0.83535	0.03488	0.46772	-0.626
Mof_C 	C 	0.7182	0.0295	0.3119	-0.031
Mof_C 	C 	0.7275	0.0287	0.34317	0.084
Mof_C 	C 	0.84965	0.07533	0.43159	-0.17
Mof_C 	C 	0.84059	0.09542	0.40649	0.083
Mof_C 	C 	0.86389	0.11121	0.3885	-0.03
Mof_C 	C 	0.89624	0.1069	0.39561	0.026
Mof_C 	C 	0.90529	0.0868	0.4207	-0.03
Mof_C 	C 	0.882	0.07101	0.43869	0.083
Mof_C 	C 	0.8249	0.0556	0.44702	0.512
Mof_C 	C 	0.7002	0.025	0.2434	0.007
Mof_C 	C 	0.0269	0.0842	0.137	0.116
Mof_C 	C 	0.9771	0.1519	0.2586	-0
Mof_O 	O 	0.0244	0.0519	0.0802	-0.6
Mof_C 	C 	0.0299	0.0981	0.1694	-0.032
Mof_C 	C 	0.6959	0.0239	0.2103	-0.002
Mof_C 	C 	0.9772	0.1381	0.2271	0.005
Mof_C 	C 	0.91875	0.12483	0.37398	-0.008
Mof_C 	C 	0.94326	0.14304	0.38753	0.004
Mof_C 	C 	0.968	0.15466	0.36833	-0.001
Mof_C 	C 	0.96823	0.14807	0.33558	0.001
Mof_C 	C 	0.94372	0.12987	0.32204	-0
Mof_C 	C 	0.91898	0.11825	0.34124	0.005
Mof_O 	O 	0.06138	0.44024	0.79568	-0.649
Mof_O 	O 	0.02724	0.40625	0.74779	-0.627
Mof_O 	O 	0.03488	0.46772	0.83535	-0.626
Mof_C 	C 	0.0295	0.3119	0.7182	-0.031
Mof_C 	C 	0.0287	0.34317	0.7275	0.084
Mof_C 	C 	0.07533	0.43159	0.84965	-0.17
Mof_C 	C 	0.09542	0.40649	0.84059	0.083
Mof_C 	C 	0.11121	0.3885	0.86389	-0.03
Mof_C 	C 	0.1069	0.39561	0.89624	0.026
Mof_C 	C 	0.0868	0.4207	0.90529	-0.03
Mof_C 	C 	0.07101	0.43869	0.882	0.083
Mof_C 	C 	0.0556	0.44702	0.8249	0.512
Mof_C 	C 	0.025	0.2434	0.7002	0.007
Mof_C 	C 	0.0842	0.137	0.0269	0.116
Mof_C 	C 	0.1519	0.2586	0.9771	-0
Mof_O 	O 	0.0519	0.0802	0.0244	-0.6
Mof_C 	C 	0.0981	0.1694	0.0299	-0.032
Mof_C 	C 	0.0239	0.2103	0.6959	-0.002
Mof_C 	C 	0.1381	0.2271	0.9772	0.005
Mof_C 	C 	0.12483	0.37398	0.91875	-0.008
Mof_C 	C 	0.14304	0.38753	0.94326	0.004
Mof_C 	C 	0.15466	0.36833	0.968	-0.001
Mof_C 	C 	0.14807	0.33558	0.96823	0.001
Mof_C 	C 	0.12987	0.32204	0.94372	-0
Mof_C 	C 	0.11825	0.34124	0.91898	0.005
Mof_O 	O 	0.93862	0.44024	0.20432	-0.649
Mof_O 	O 	0.97276	0.40625	0.25221	-0.627
Mof_O 	O 	0.96512	0.46772	0.16465	-0.626
Mof_C 	C 	0.9705	0.3119	0.2818	-0.031
Mof_C 	C 	0.9713	0.34317	0.2725	0.084
Mof_C 	C 	0.92467	0.43159	0.15035	-0.17
Mof_C 	C 	0.90458	0.40649	0.15941	0.083
Mof_C 	C 	0.88879	0.3885	0.13611	-0.03
Mof_C 	C 	0.8931	0.39561	0.10376	0.026
Mof_C 	C 	0.9132	0.4207	0.09471	-0.03
Mof_C 	C 	0.92899	0.43869	0.118	0.083
Mof_C 	C 	0.9444	0.44702	0.1751	0.512
Mof_C 	C 	0.975	0.2434	0.2998	0.007
Mof_C 	C 	0.9158	0.137	0.9731	0.116
Mof_C 	C 	0.8481	0.2586	0.0229	-0
Mof_O 	O 	0.9481	0.0802	0.9756	-0.6
Mof_C 	C 	0.9019	0.1694	0.9701	-0.032
Mof_C 	C 	0.9761	0.2103	0.3041	-0.003
Mof_C 	C 	0.8619	0.2271	0.0228	0.005
Mof_C 	C 	0.87517	0.37398	0.08125	-0.008
Mof_C 	C 	0.85696	0.38753	0.05674	0.004
Mof_C 	C 	0.84534	0.36833	0.032	-0.001
Mof_C 	C 	0.85193	0.33558	0.03177	0.001
Mof_C 	C 	0.87013	0.32204	0.05628	-0
Mof_C 	C 	0.88175	0.34124	0.08102	0.005
Mof_O 	O 	0.93862	0.55976	0.79568	-0.649
Mof_O 	O 	0.97276	0.59375	0.74779	-0.627
Mof_O 	O 	0.96512	0.53228	0.83535	-0.626
Mof_C 	C 	0.9705	0.6881	0.7182	-0.031
Mof_C 	C 	0.9713	0.65683	0.7275	0.084
Mof_C 	C 	0.92467	0.56841	0.84965	-0.17
Mof_C 	C 	0.90458	0.59351	0.84059	0.083
Mof_C 	C 	0.88879	0.6115	0.86389	-0.03
Mof_C 	C 	0.8931	0.60439	0.89624	0.026
Mof_C 	C 	0.9132	0.5793	0.90529	-0.03
Mof_C 	C 	0.92899	0.56131	0.882	0.083
Mof_C 	C 	0.9444	0.55298	0.8249	0.512
Mof_C 	C 	0.975	0.7566	0.7002	0.007
Mof_C 	C 	0.9158	0.863	0.0269	0.116
Mof_C 	C 	0.8481	0.7414	0.9771	-0
Mof_O 	O 	0.9481	0.9198	0.0244	-0.6
Mof_C 	C 	0.9019	0.8306	0.0299	-0.032
Mof_C 	C 	0.9761	0.7897	0.6959	-0.003
Mof_C 	C 	0.8619	0.7729	0.9772	0.005
Mof_C 	C 	0.87517	0.62602	0.91875	-0.008
Mof_C 	C 	0.85696	0.61247	0.94326	0.004
Mof_C 	C 	0.84534	0.63167	0.968	-0.001
Mof_C 	C 	0.85193	0.66442	0.96823	0.001
Mof_C 	C 	0.87013	0.67796	0.94372	-0
Mof_C 	C 	0.88175	0.65876	0.91898	0.005
Mof_O 	O 	0.06138	0.55976	0.20432	-0.649
Mof_O 	O 	0.02724	0.59375	0.25221	-0.627
Mof_O 	O 	0.03488	0.53228	0.16465	-0.626
Mof_C 	C 	0.0295	0.6881	0.2818	-0.031
Mof_C 	C 	0.0287	0.65683	0.2725	0.084
Mof_C 	C 	0.07533	0.56841	0.15035	-0.17
Mof_C 	C 	0.09542	0.59351	0.15941	0.083
Mof_C 	C 	0.11121	0.6115	0.13611	-0.03
Mof_C 	C 	0.1069	0.60439	0.10376	0.026
Mof_C 	C 	0.0868	0.5793	0.09471	-0.03
Mof_C 	C 	0.07101	0.56131	0.118	0.083
Mof_C 	C 	0.0556	0.55298	0.1751	0.512
Mof_C 	C 	0.025	0.7566	0.2998	0.007
Mof_C 	C 	0.0842	0.863	0.9731	0.116
Mof_C 	C 	0.1519	0.7414	0.0229	-0
Mof_O 	O 	0.0519	0.9198	0.9756	-0.6
Mof_C 	C 	0.0981	0.8306	0.9701	-0.032
Mof_C 	C 	0.0239	0.7897	0.3041	-0.002
Mof_C 	C 	0.1381	0.7729	0.0228	0.005
Mof_C 	C 	0.12483	0.62602	0.08125	-0.008
Mof_C 	C 	0.14304	0.61247	0.05674	0.004
Mof_C 	C 	0.15466	0.63167	0.032	-0.001
Mof_C 	C 	0.14807	0.66442	0.03177	0.001
Mof_C 	C 	0.12987	0.67796	0.05628	-0
Mof_C 	C 	0.11825	0.65876	0.08102	0.005
Mof_O 	O 	0.44024	0.20432	0.93862	-0.649
Mof_O 	O 	0.40625	0.25221	0.97276	-0.627
Mof_O 	O 	0.46772	0.16465	0.96512	-0.626
Mof_C 	C 	0.3119	0.2818	0.9705	-0.031
Mof_C 	C 	0.34317	0.2725	0.9713	0.084
Mof_C 	C 	0.43159	0.15035	0.92467	-0.17
Mof_C 	C 	0.40649	0.15941	0.90458	0.083
Mof_C 	C 	0.3885	0.13611	0.88879	-0.03
Mof_C 	C 	0.39561	0.10376	0.8931	0.026
Mof_C 	C 	0.4207	0.09471	0.9132	-0.03
Mof_C 	C 	0.43869	0.118	0.92899	0.083
Mof_C 	C 	0.44702	0.1751	0.9444	0.512
Mof_C 	C 	0.2434	0.2998	0.975	0.007
Mof_C 	C 	0.137	0.9731	0.9158	0.116
Mof_C 	C 	0.2586	0.0229	0.8481	-0
Mof_O 	O 	0.0802	0.9756	0.9481	-0.6
Mof_C 	C 	0.1694	0.9701	0.9019	-0.032
Mof_C 	C 	0.2103	0.3041	0.9761	-0.003
Mof_C 	C 	0.2271	0.0228	0.8619	0.005
Mof_C 	C 	0.37398	0.08125	0.87517	-0.008
Mof_C 	C 	0.38753	0.05674	0.85696	0.004
Mof_C 	C 	0.36833	0.032	0.84534	-0.001
Mof_C 	C 	0.33558	0.03177	0.85193	0.001
Mof_C 	C 	0.32204	0.05628	0.87013	-0
Mof_C 	C 	0.34124	0.08102	0.88175	0.005
Mof_O 	O 	0.44024	0.79568	0.06138	-0.649
Mof_O 	O 	0.40625	0.74779	0.02724	-0.627
Mof_O 	O 	0.46772	0.83535	0.03488	-0.626
Mof_C 	C 	0.3119	0.7182	0.0295	-0.031
Mof_C 	C 	0.34317	0.7275	0.0287	0.084
Mof_C 	C 	0.43159	0.84965	0.07533	-0.17
Mof_C 	C 	0.40649	0.84059	0.09542	0.083
Mof_C 	C 	0.3885	0.86389	0.11121	-0.03
Mof_C 	C 	0.39561	0.89624	0.1069	0.026
Mof_C 	C 	0.4207	0.90529	0.0868	-0.03
Mof_C 	C 	0.43869	0.882	0.07101	0.083
Mof_C 	C 	0.44702	0.8249	0.0556	0.512
Mof_C 	C 	0.2434	0.7002	0.025	0.007
Mof_C 	C 	0.137	0.0269	0.0842	0.116
Mof_C 	C 	0.2586	0.9771	0.1519	-0
Mof_O 	O 	0.0802	0.0244	0.0519	-0.6
Mof_C 	C 	0.1694	0.0299	0.0981	-0.032
Mof_C 	C 	0.2103	0.6959	0.0239	-0.002
Mof_C 	C 	0.2271	0.9772	0.1381	0.005
Mof_C 	C 	0.37398	0.91875	0.12483	-0.008
Mof_C 	C 	0.38753	0.94326	0.14304	0.004
Mof_C 	C 	0.36833	0.968	0.15466	-0.001
Mof_C 	C 	0.33558	0.96823	0.14807	0.001
Mof_C 	C 	0.32204	0.94372	0.12987	-0
Mof_C 	C 	0.34124	0.91898	0.11825	0.005
Mof_O 	O 	0.55976	0.20432	0.06138	-0.649
Mof_O 	O 	0.59375	0.25221	0.02724	-0.627
Mof_O 	O 	0.53228	0.16465	0.03488	-0.626
Mof_C 	C 	0.6881	0.2818	0.0295	-0.031
Mof_C 	C 	0.65683	0.2725	0.0287	0.084
Mof_C 	C 	0.56841	0.15035	0.07533	-0.17
Mof_C 	C 	0.59351	0.15941	0.09542	0.083
Mof_C 	C 	0.6115	0.13611	0.11121	-0.03
Mof_C 	C 	0.60439	0.10376	0.1069	0.026
Mof_C 	C 	0.5793	0.09471	0.0868	-0.03
Mof_C 	C 	0.56131	0.118	0.07101	0.083
Mof_C 	C 	0.55298	0.1751	0.0556	0.512
Mof_C 	C 	0.7566	0.2998	0.025	0.007
Mof_C 	C 	0.863	0.9731	0.0842	0.116
Mof_C 	C 	0.7414	0.0229	0.1519	-0
Mof_O 	O 	0.9198	0.9756	0.0519	-0.6
Mof_C 	C 	0.8306	0.9701	0.0981	-0.032
Mof_C 	C 	0.7897	0.3041	0.0239	-0.002
Mof_C 	C 	0.7729	0.0228	0.1381	0.005
Mof_C 	C 	0.62602	0.08125	0.12483	-0.008
Mof_C 	C 	0.61247	0.05674	0.14304	0.004
Mof_C 	C 	0.63167	0.032	0.15466	-0.001
Mof_C 	C 	0.66442	0.03177	0.14807	0.001
Mof_C 	C 	0.67796	0.05628	0.12987	-0
Mof_C 	C 	0.65876	0.08102	0.11825	0.005
Mof_O 	O 	0.55976	0.79568	0.93862	-0.649
Mof_O 	O 	0.59375	0.74779	0.97276	-0.627
Mof_O 	O 	0.53228	0.83535	0.96512	-0.626
Mof_C 	C 	0.6881	0.7182	0.9705	-0.031
Mof_C 	C 	0.65683	0.7275	0.9713	0.084
Mof_C 	C 	0.56841	0.84965	0.92467	-0.17
Mof_C 	C 	0.59351	0.84059	0.90458	0.083
Mof_C 	C 	0.6115	0.86389	0.88879	-0.03
Mof_C 	C 	0.60439	0.89624	0.8931	0.026
Mof_C 	C 	0.5793	0.90529	0.9132	-0.03
Mof_C 	C 	0.56131	0.882	0.92899	0.083
Mof_C 	C 	0.55298	0.8249	0.9444	0.512
Mof_C 	C 	0.7566	0.7002	0.975	0.007
Mof_C 	C 	0.863	0.0269	0.9158	0.116
Mof_C 	C 	0.7414	0.9771	0.8481	-0
Mof_O 	O 	0.9198	0.0244	0.9481	-0.6
Mof_C 	C 	0.8306	0.0299	0.9019	-0.032
Mof_C 	C 	0.7897	0.6959	0.9761	-0.003
Mof_C 	C 	0.7729	0.9772	0.8619	0.005
Mof_C 	C 	0.62602	0.91875	0.87517	-0.008
Mof_C 	C 	0.61247	0.94326	0.85696	0.004
Mof_C 	C 	0.63167	0.968	0.84534	-0.001
Mof_C 	C 	0.66442	0.96823	0.85193	0.001
Mof_C 	C 	0.67796	0.94372	0.87013	-0
Mof_C 	C 	0.65876	0.91898	0.88175	0.005
Mof_Zr	Zr	0.45797	0.25	0.04203	3.217
Mof_Zr	Zr	0.54203	0.75	0.04203	3.217
Mof_Zr	Zr	0.54203	0.25	0.95797	3.217
Mof_Zr	Zr	0.45797	0.75	0.95797	3.217
Mof_Zr	Zr	0.04203	0.45797	0.25	3.217
Mof_Zr	Zr	0.04203	0.54203	0.75	3.217
Mof_Zr	Zr	0.95797	0.54203	0.25	3.217
Mof_Zr	Zr	0.95797	0.45797	0.75	3.217
Mof_Zr	Zr	0.25	0.04203	0.45797	3.217
Mof_Zr	Zr	0.75	0.04203	0.54203	3.217
Mof_Zr	Zr	0.25	0.95797	0.54203	3.217
Mof_Zr	Zr	0.75	0.95797	0.45797	3.217
Mof_Zr	Zr	0.54203	0.75	0.95797	3.217
Mof_Zr	Zr	0.45797	0.25	0.95797	3.217
Mof_Zr	Zr	0.45797	0.75	0.04203	3.217
Mof_Zr	Zr	0.54203	0.25	0.04203	3.217
Mof_Zr	Zr	0.95797	0.54203	0.75	3.217
Mof_Zr	Zr	0.95797	0.45797	0.25	3.217
Mof_Zr	Zr	0.04203	0.45797	0.75	3.217
Mof_Zr	Zr	0.04203	0.54203	0.25	3.217
Mof_Zr	Zr	0.75	0.95797	0.54203	3.217
Mof_Zr	Zr	0.25	0.95797	0.45797	3.217
Mof_Zr	Zr	0.75	0.04203	0.45797	3.217
Mof_Zr	Zr	0.25	0.04203	0.54203	3.217
Mof_Zr	Zr	0.5	0.30968	-0	3.212
Mof_Zr	Zr	0.5	0.69032	-0	3.212
Mof_Zr	Zr	6.765e-33	0.5	0.30968	3.212
Mof_Zr	Zr	8.19217e-33	0.5	0.69032	3.212
Mof_Zr	Zr	0.30968	0	0.5	3.212
Mof_Zr	Zr	0.69032	0	0.5	3.212
Mof_Zr	Zr	0.80968	0	0.5	3.212
Mof_Zr	Zr	0.19032	0	0.5	3.212
Mof_Zr	Zr	3.51553e-33	0.5	0.19032	3.212
Mof_Zr	Zr	8.6397e-33	0.5	0.80968	3.212
Mof_Zr	Zr	0.5	0.80968	-0	3.212
Mof_Zr	Zr	0.5	0.19032	-0	3.212
Mof_O 	O 	0.5	0.28309	0.95308	-1.037
Mof_C 	C 	0.5	0.232	0.1404	-0.166
Mof_C 	C 	0.5	0.2049	0.2389	-0.011
Mof_C 	C 	0.5	0.244	0.1066	0.519
Mof_C 	C 	0.5	0.2136	0.2052	0.027
Mof_C 	C 	0.5	0.1898	0.3056	0.003
Mof_O 	O 	0.5	0.71691	0.95308	-1.037
Mof_C 	C 	0.5	0.768	0.1404	-0.166
Mof_C 	C 	0.5	0.7951	0.2389	-0.011
Mof_C 	C 	0.5	0.756	0.1066	0.519
Mof_C 	C 	0.5	0.7864	0.2052	0.027
Mof_C 	C 	0.5	0.8102	0.3056	0.003
Mof_O 	O 	0.5	0.28309	0.04692	-1.037
Mof_C 	C 	0.5	0.232	0.8596	-0.166
Mof_C 	C 	0.5	0.2049	0.7611	-0.011
Mof_C 	C 	0.5	0.244	0.8934	0.519
Mof_C 	C 	0.5	0.2136	0.7948	0.027
Mof_C 	C 	0.5	0.1898	0.6944	0.003
Mof_O 	O 	0.5	0.71691	0.04692	-1.037
Mof_C 	C 	0.5	0.768	0.8596	-0.166
Mof_C 	C 	0.5	0.7951	0.7611	-0.011
Mof_C 	C 	0.5	0.756	0.8934	0.519
Mof_C 	C 	0.5	0.7864	0.7948	0.027
Mof_C 	C 	0.5	0.8102	0.6944	0.003
Mof_O 	O 	0.95308	0.5	0.28309	-1.037
Mof_C 	C 	0.1404	0.5	0.232	-0.166
Mof_C 	C 	0.2389	0.5	0.2049	-0.011
Mof_C 	C 	0.1066	0.5	0.244	0.519
Mof_C 	C 	0.2052	0.5	0.2136	0.027
Mof_C 	C 	0.3056	0.5	0.1898	0.003
Mof_O 	O 	0.95308	0.5	0.71691	-1.037
Mof_C 	C 	0.1404	0.5	0.768	-0.166
Mof_C 	C 	0.2389	0.5	0.7951	-0.011
Mof_C 	C 	0.1066	0.5	0.756	0.519
Mof_C 	C 	0.2052	0.5	0.7864	0.027
Mof_C 	C 	0.3056	0.5	0.8102	0.003
Mof_O 	O 	0.04692	0.5	0.28309	-1.037
Mof_C 	C 	0.8596	0.5	0.232	-0.166
Mof_C 	C 	0.7611	0.5	0.2049	-0.011
Mof_C 	C 	0.8934	0.5	0.244	0.519
Mof_C 	C 	0.7948	0.5	0.2136	0.027
Mof_C 	C 	0.6944	0.5	0.1898	0.003
Mof_O 	O 	0.04692	0.5	0.71691	-1.037
Mof_C 	C 	0.8596	0.5	0.768	-0.166
Mof_C 	C 	0.7611	0.5	0.7951	-0.011
Mof_C 	C 	0.8934	0.5	0.756	0.519
Mof_C 	C 	0.7948	0.5	0.7864	0.027
Mof_C 	C 	0.6944	0.5	0.8102	0.003
Mof_O 	O 	0.28309	0.95308	0.5	-1.037
Mof_C 	C 	0.232	0.1404	0.5	-0.166
Mof_C 	C 	0.2049	0.2389	0.5	-0.011
Mof_C 	C 	0.244	0.1066	0.5	0.519
Mof_C 	C 	0.2136	0.2052	0.5	0.027
Mof_C 	C 	0.1898	0.3056	0.5	0.003
Mof_O 	O 	0.71691	0.95308	0.5	-1.037
Mof_C 	C 	0.768	0.1404	0.5	-0.166
Mof_C 	C 	0.7951	0.2389	0.5	-0.011
Mof_C 	C 	0.756	0.1066	0.5	0.519
Mof_C 	C 	0.7864	0.2052	0.5	0.027
Mof_C 	C 	0.8102	0.3056	0.5	0.003
Mof_O 	O 	0.28309	0.04692	0.5	-1.037
Mof_C 	C 	0.232	0.8596	0.5	-0.166
Mof_C 	C 	0.2049	0.7611	0.5	-0.011
Mof_C 	C 	0.244	0.8934	0.5	0.519
Mof_C 	C 	0.2136	0.7948	0.5	0.027
Mof_C 	C 	0.1898	0.6944	0.5	0.003
Mof_O 	O 	0.71691	0.04692	0.5	-1.037
Mof_C 	C 	0.768	0.8596	0.5	-0.166
Mof_C 	C 	0.7951	0.7611	0.5	-0.011
Mof_C 	C 	0.756	0.8934	0.5	0.519
Mof_C 	C 	0.7864	0.7948	0.5	0.027
Mof_C 	C 	0.8102	0.6944	0.5	0.003
Mof_O 	O 	0.78309	1.12078e-32	0.54692	-1.037
Mof_C 	C 	0.732	0	0.3596	-0.166
Mof_C 	C 	0.7049	0	0.2611	-0.011
Mof_C 	C 	0.744	2.80194e-33	0.3934	0.519
Mof_C 	C 	0.7136	2.80194e-33	0.2948	0.027
Mof_C 	C 	0.6898	2.80194e-33	0.1944	0.003
Mof_O 	O 	0.21691	1.12078e-32	0.54692	-1.037
Mof_C 	C 	0.268	0	0.3596	-0.166
Mof_C 	C 	0.2951	0	0.2611	-0.011
Mof_C 	C 	0.256	2.80194e-33	0.3934	0.519
Mof_C 	C 	0.2864	2.80194e-33	0.2948	0.027
Mof_C 	C 	0.3102	2.80194e-33	0.1944	0.003
Mof_O 	O 	0.78309	5.60389e-33	0.45308	-1.037
Mof_C 	C 	0.732	5.60389e-33	0.6404	-0.166
Mof_C 	C 	0.7049	5.60389e-33	0.7389	-0.011
Mof_C 	C 	0.744	5.60389e-33	0.6066	0.519
Mof_C 	C 	0.7136	0	0.7052	0.027
Mof_C 	C 	0.6898	5.60389e-33	0.8056	0.003
Mof_O 	O 	0.21691	5.60389e-33	0.45308	-1.037
Mof_C 	C 	0.268	5.60389e-33	0.6404	-0.166
Mof_C 	C 	0.2951	5.60389e-33	0.7389	-0.011
Mof_C 	C 	0.256	5.60389e-33	0.6066	0.519
Mof_C 	C 	0.2864	0	0.7052	0.027
Mof_C 	C 	0.3102	5.60389e-33	0.8056	0.003
Mof_O 	O 	3.61523e-33	0.45308	0.21691	-1.037
Mof_C 	C 	6.60873e-33	0.6404	0.268	-0.166
Mof_C 	C 	6.71034e-33	0.7389	0.2951	-0.011
Mof_C 	C 	9.36568e-33	0.6066	0.256	0.519
Mof_C 	C 	6.67772e-33	0.7052	0.2864	0.027
Mof_C 	C 	9.56889e-33	0.8056	0.3102	0.003
Mof_O 	O 	2.93612e-33	0.45308	0.78309	-1.037
Mof_C 	C 	8.34845e-33	0.6404	0.732	-0.166
Mof_C 	C 	8.24684e-33	0.7389	0.7049	-0.011
Mof_C 	C 	2.78955e-33	0.6066	0.744	0.519
Mof_C 	C 	1.94872e-32	0.7052	0.7136	0.027
Mof_C 	C 	1.37941e-32	0.8056	0.6898	0.003
Mof_O 	O 	9.21911e-33	0.54692	0.21691	-1.037
Mof_C 	C 	6.60873e-33	0.3596	0.268	-0.166
Mof_C 	C 	1.10645e-33	0.2611	0.2951	-0.011
Mof_C 	C 	3.76179e-33	0.3934	0.256	0.519
Mof_C 	C 	3.87577e-33	0.2948	0.2864	0.027
Mof_C 	C 	3.96501e-33	0.1944	0.3102	0.003
Mof_O 	O 	1.41439e-32	0.54692	0.78309	-1.037
Mof_C 	C 	1.39523e-32	0.3596	0.732	-0.166
Mof_C 	C 	-2.96094e-33	0.2611	0.7049	-0.011
Mof_C 	C 	-8.41822e-33	0.3934	0.744	0.519
Mof_C 	C 	2.67557e-33	0.2948	0.7136	0.027
Mof_C 	C 	8.19022e-33	0.1944	0.6898	0.003
Mof_O 	O 	0.45308	0.78309	-0	-1.037
Mof_C 	C 	0.6404	0.732	-0	-0.166
Mof_C 	C 	0.7389	0.7049	-0	-0.011
Mof_C 	C 	0.6066	0.744	-0	0.519
Mof_C 	C 	0.7052	0.7136	-0	0.027
Mof_C 	C 	0.8056	0.6898	-0	0.003
Mof_O 	O 	0.45308	0.21691	-0	-1.037
Mof_C 	C 	0.6404	0.268	-0	-0.166
Mof_C 	C 	0.7389	0.2951	-0	-0.011
Mof_C 	C 	0.6066	0.256	-0	0.519
Mof_C 	C 	0.7052	0.2864	-0	0.027
Mof_C 	C 	0.8056	0.3102	-0	0.003
Mof_O 	O 	0.54692	0.78309	-0	-1.037
Mof_C 	C 	0.3596	0.732	-0	-0.166
Mof_C 	C 	0.2611	0.7049	-0	-0.011
Mof_C 	C 	0.3934	0.744	-0	0.519
Mof_C 	C 	0.2948	0.7136	-0	0.027
Mof_C 	C 	0.1944	0.6898	-0	0.003
Mof_O 	O 	0.54692	0.21691	-0	-1.037
Mof_C 	C 	0.3596	0.268	-0	-0.166
Mof_C 	C 	0.2611	0.2951	-0	-0.011
Mof_C 	C 	0.3934	0.256	-0	0.519
Mof_C 	C 	0.2948	0.2864	-0	0.027
Mof_C 	C 	0.1944	0.3102	-0	0.003
Mof_O 	O 	0.46414	0.2751	-0	-1.414
Mof_O 	O 	0.53586	0.7249	-0	-1.414
Mof_O 	O 	0.53586	0.2751	-0	-1.414
Mof_O 	O 	0.46414	0.7249	-0	-1.414
Mof_O 	O 	6.63535e-33	0.46414	0.2751	-1.414
Mof_O 	O 	2.71794e-33	0.53586	0.7249	-1.414
Mof_O 	O 	1.03146e-33	0.53586	0.2751	-1.414
Mof_O 	O 	8.32183e-33	0.46414	0.7249	-1.414
Mof_O 	O 	0.2751	5.60389e-33	0.46414	-1.414
Mof_O 	O 	0.7249	0	0.53586	-1.414
Mof_O 	O 	0.2751	0	0.53586	-1.414
Mof_O 	O 	0.7249	5.60389e-33	0.46414	-1.414
Mof_O 	O 	0.7751	0.96414	0.5	-1.415
Mof_O 	O 	0.2249	0.03586	0.5	-1.414
Mof_O 	O 	0.7751	0.03586	0.5	-1.414
Mof_O 	O 	0.2249	0.96414	0.5	-1.415
Mof_O 	O 	0.96414	0.5	0.2249	-1.415
Mof_O 	O 	0.03586	0.5	0.7751	-1.414
Mof_O 	O 	0.03586	0.5	0.2249	-1.414
Mof_O 	O 	0.96414	0.5	0.7751	-1.415
Mof_O 	O 	0.5	0.7751	0.03586	-1.414
Mof_O 	O 	0.5	0.2249	0.96414	-1.415
Mof_O 	O 	0.5	0.7751	0.96414	-1.415
Mof_O 	O 	0.5	0.2249	0.03586	-1.414
Mof_C 	C 	0.3419	0.5	0.1846	-0.001
Mof_C 	C 	0.3571	0.5	0.2187	0.002
Mof_C 	C 	0.3966	0.5	0.314	0.027
Mof_C 	C 	0.3828	0.5	0.2808	-0.007
Mof_C 	C 	0.4231	0.5	0.3761	-0.207
Mof_C 	C 	0.4371	0.5	0.4113	0.689
Mof_O 	O 	0.45001	0.5	0.46812	-1.713
Mof_C 	C 	0.6581	0.5	0.1846	-0.001
Mof_C 	C 	0.6429	0.5	0.2187	0.002
Mof_C 	C 	0.6034	0.5	0.314	0.027
Mof_C 	C 	0.6172	0.5	0.2808	-0.007
Mof_C 	C 	0.5769	0.5	0.3761	-0.207
Mof_C 	C 	0.5629	0.5	0.4113	0.689
Mof_O 	O 	0.54999	0.5	0.46812	-1.713
Mof_C 	C 	0.6581	0.5	0.8154	-0.001
Mof_C 	C 	0.6429	0.5	0.7813	0.002
Mof_C 	C 	0.6034	0.5	0.686	0.027
Mof_C 	C 	0.6172	0.5	0.7192	-0.007
Mof_C 	C 	0.5769	0.5	0.6239	-0.207
Mof_C 	C 	0.5629	0.5	0.5887	0.689
Mof_O 	O 	0.54999	0.5	0.53188	-1.713
Mof_C 	C 	0.3419	0.5	0.8154	-0.001
Mof_C 	C 	0.3571	0.5	0.7813	0.002
Mof_C 	C 	0.3966	0.5	0.686	0.027
Mof_C 	C 	0.3828	0.5	0.7192	-0.007
Mof_C 	C 	0.4231	0.5	0.6239	-0.207
Mof_C 	C 	0.4371	0.5	0.5887	0.689
Mof_O 	O 	0.45001	0.5	0.53188	-1.713
Mof_C 	C 	0.1846	0.3419	0.5	-0.001
Mof_C 	C 	0.2187	0.3571	0.5	0.002
Mof_C 	C 	0.314	0.3966	0.5	0.027
Mof_C 	C 	0.2808	0.3828	0.5	-0.007
Mof_C 	C 	0.3761	0.4231	0.5	-0.207
Mof_C 	C 	0.4113	0.4371	0.5	0.689
Mof_O 	O 	0.46812	0.45001	0.5	-1.713
Mof_C 	C 	0.1846	0.6581	0.5	-0.001
Mof_C 	C 	0.2187	0.6429	0.5	0.002
Mof_C 	C 	0.314	0.6034	0.5	0.027
Mof_C 	C 	0.2808	0.6172	0.5	-0.007
Mof_C 	C 	0.3761	0.5769	0.5	-0.207
Mof_C 	C 	0.4113	0.5629	0.5	0.689
Mof_O 	O 	0.46812	0.54999	0.5	-1.713
Mof_C 	C 	0.8154	0.6581	0.5	-0.001
Mof_C 	C 	0.7813	0.6429	0.5	0.002
Mof_C 	C 	0.686	0.6034	0.5	0.027
Mof_C 	C 	0.7192	0.6172	0.5	-0.007
Mof_C 	C 	0.6239	0.5769	0.5	-0.207
Mof_C 	C 	0.5887	0.5629	0.5	0.689
Mof_O 	O 	0.53188	0.54999	0.5	-1.713
Mof_C 	C 	0.8154	0.3419	0.5	-0.001
Mof_C 	C 	0.7813	0.3571	0.5	0.002
Mof_C 	C 	0.686	0.3966	0.5	0.027
Mof_C 	C 	0.7192	0.3828	0.5	-0.007
Mof_C 	C 	0.6239	0.4231	0.5	-0.207
Mof_C 	C 	0.5887	0.4371	0.5	0.689
Mof_O 	O 	0.53188	0.45001	0.5	-1.713
Mof_C 	C 	0.5	0.1846	0.3419	-0.001
Mof_C 	C 	0.5	0.2187	0.3571	0.002
Mof_C 	C 	0.5	0.314	0.3966	0.027
Mof_C 	C 	0.5	0.2808	0.3828	-0.007
Mof_C 	C 	0.5	0.3761	0.4231	-0.207
Mof_C 	C 	0.5	0.4113	0.4371	0.689
Mof_O 	O 	0.5	0.46812	0.45001	-1.713
Mof_C 	C 	0.5	0.1846	0.6581	-0.001
Mof_C 	C 	0.5	0.2187	0.6429	0.002
Mof_C 	C 	0.5	0.314	0.6034	0.027
Mof_C 	C 	0.5	0.2808	0.6172	-0.007
Mof_C 	C 	0.5	0.3761	0.5769	-0.207
Mof_C 	C 	0.5	0.4113	0.5629	0.689
Mof_O 	O 	0.5	0.46812	0.54999	-1.713
Mof_C 	C 	0.5	0.8154	0.6581	-0.001
Mof_C 	C 	0.5	0.7813	0.6429	0.002
Mof_C 	C 	0.5	0.686	0.6034	0.027
Mof_C 	C 	0.5	0.7192	0.6172	-0.007
Mof_C 	C 	0.5	0.6239	0.5769	-0.207
Mof_C 	C 	0.5	0.5887	0.5629	0.689
Mof_O 	O 	0.5	0.53188	0.54999	-1.713
Mof_C 	C 	0.5	0.8154	0.3419	-0.001
Mof_C 	C 	0.5	0.7813	0.3571	0.002
Mof_C 	C 	0.5	0.686	0.3966	0.027
Mof_C 	C 	0.5	0.7192	0.3828	-0.007
Mof_C 	C 	0.5	0.6239	0.4231	-0.207
Mof_C 	C 	0.5	0.5887	0.4371	0.689
Mof_O 	O 	0.5	0.53188	0.45001	-1.713
Mof_C 	C 	1.51923e-32	0.8419	0.3154	-0.001
Mof_C 	C 	1.05471e-33	0.8571	0.2813	0.002
Mof_C 	C 	3.49933e-33	0.8966	0.186	0.027
Mof_C 	C 	1.76335e-32	0.8828	0.2192	-0.007
Mof_C 	C 	1.02714e-32	0.9231	0.1239	-0.207
Mof_C 	C 	8.7384e-33	0.9371	0.0887	0.689
Mof_O 	O 	8.8756e-33	0.95001	0.03188	-1.713
Mof_C 	C 	-1.61938e-33	0.1581	0.3154	-0.001
Mof_C 	C 	6.65859e-33	0.1429	0.2813	0.002
Mof_C 	C 	6.97388e-34	0.1034	0.186	0.027
Mof_C 	C 	6.42576e-33	0.1172	0.2192	-0.006
Mof_C 	C 	1.86552e-33	0.0769	0.1239	-0.207
Mof_C 	C 	3.32572e-34	0.0629	0.0887	0.689
Mof_O 	O 	1.19531e-34	0.04999	0.03188	-1.713
Mof_C 	C 	2.56684e-33	0.1581	0.6846	-0.001
Mof_C 	C 	1.39025e-32	0.1429	0.7187	0.002
Mof_C 	C 	8.6559e-33	0.1034	0.814	0.027
Mof_C 	C 	2.92753e-33	0.1172	0.7808	-0.006
Mof_C 	C 	-7.92293e-33	0.0769	0.8761	-0.207
Mof_C 	C 	1.46246e-32	0.0629	0.9113	0.689
Mof_O 	O 	3.62987e-33	0.04999	0.96812	-1.713
Mof_C 	C 	2.49824e-32	0.8419	0.6846	-0.001
Mof_C 	C 	2.51102e-32	0.8571	0.7187	0.002
Mof_C 	C 	-1.37597e-32	0.8966	0.814	0.027
Mof_C 	C 	8.53142e-33	0.8828	0.7808	-0.007
Mof_C 	C 	3.28485e-33	0.9231	0.8761	-0.207
Mof_C 	C 	1.46246e-32	0.9371	0.9113	0.689
Mof_O 	O 	1.48376e-32	0.95001	0.96812	-1.713
Mof_C 	C 	0.8419	0.6846	-0	-0.001
Mof_C 	C 	0.8571	0.7187	-0	0.002
Mof_C 	C 	0.8966	0.814	-0	0.027
Mof_C 	C 	0.8828	0.7808	-0	-0.007
Mof_C 	C 	0.9231	0.8761	-0	-0.207
Mof_C 	C 	0.9371	0.9113	-0	0.689
Mof_O 	O 	0.95001	0.96812	-0	-1.713
Mof_C 	C 	0.1581	0.6846	-0	-0.001
Mof_C 	C 	0.1429	0.7187	-0	0.002
Mof_C 	C 	0.1034	0.814	-0	0.027
Mof_C 	C 	0.1172	0.7808	-0	-0.006
Mof_C 	C 	0.0769	0.8761	-0	-0.207
Mof_C 	C 	0.0629	0.9113	-0	0.689
Mof_O 	O 	0.04999	0.96812	-0	-1.713
Mof_C 	C 	0.1581	0.3154	-0	-0.001
Mof_C 	C 	0.1429	0.2813	-0	0.002
Mof_C 	C 	0.1034	0.186	-0	0.027
Mof_C 	C 	0.1172	0.2192	-0	-0.006
Mof_C 	C 	0.0769	0.1239	-0	-0.207
Mof_C 	C 	0.0629	0.0887	-0	0.689
Mof_O 	O 	0.04999	0.03188	-0	-1.713
Mof_C 	C 	0.8419	0.3154	-0	-0.001
Mof_C 	C 	0.8571	0.2813	-0	0.002
Mof_C 	C 	0.8966	0.186	-0	0.027
Mof_C 	C 	0.8828	0.2192	-0	-0.007
Mof_C 	C 	0.9231	0.1239	-0	-0.207
Mof_C 	C 	0.9371	0.0887	-0	0.689
Mof_O 	O 	0.95001	0.03188	-0	-1.713
Mof_C 	C 	0.6846	0	0.1581	-0.001
Mof_C 	C 	0.7187	1.40097e-33	0.1429	0.002
Mof_C 	C 	0.814	1.40097e-33	0.1034	0.027
Mof_C 	C 	0.7808	1.40097e-33	0.1172	-0.006
Mof_C 	C 	0.8761	0	0.0769	-0.207
Mof_C 	C 	0.9113	0	0.0629	0.689
Mof_O 	O 	0.96812	0	0.04999	-1.713
Mof_C 	C 	0.6846	1.12078e-32	0.8419	-0.001
Mof_C 	C 	0.7187	0	0.8571	0.002
Mof_C 	C 	0.814	0	0.8966	0.027
Mof_C 	C 	0.7808	1.12078e-32	0.8828	-0.007
Mof_C 	C 	0.8761	1.12078e-32	0.9231	-0.207
Mof_C 	C 	0.9113	1.12078e-32	0.9371	0.689
Mof_O 	O 	0.96812	1.12078e-32	0.95001	-1.713
Mof_C 	C 	0.3154	1.12078e-32	0.8419	-0.001
Mof_C 	C 	0.2813	0	0.8571	0.002
Mof_C 	C 	0.186	0	0.8966	0.027
Mof_C 	C 	0.2192	1.12078e-32	0.8828	-0.007
Mof_C 	C 	0.1239	1.12078e-32	0.9231	-0.207
Mof_C 	C 	0.0887	1.12078e-32	0.9371	0.689
Mof_O 	O 	0.03188	1.12078e-32	0.95001	-1.713
Mof_C 	C 	0.3154	0	0.1581	-0.001
Mof_C 	C 	0.2813	1.40097e-33	0.1429	0.002
Mof_C 	C 	0.186	1.40097e-33	0.1034	0.027
Mof_C 	C 	0.2192	1.40097e-33	0.1172	-0.006
Mof_C 	C 	0.1239	0	0.0769	-0.207
Mof_C 	C 	0.0887	0	0.0629	0.689
Mof_O 	O 	0.03188	0	0.04999	-1.713
Mof_Zr	Zr	0.46634	0.53366	0.46634	3.339
Mof_Zr	Zr	0.53366	0.46634	0.46634	3.339
Mof_Zr	Zr	0.53366	0.53366	0.53366	3.339
Mof_Zr	Zr	0.46634	0.46634	0.53366	3.339
Mof_Zr	Zr	0.03366	0.96634	0.03366	3.338
Mof_Zr	Zr	0.96634	0.03366	0.03366	3.338
Mof_Zr	Zr	0.03366	0.03366	0.96634	3.338
Mof_Zr	Zr	0.96634	0.96634	0.96634	3.338
Mof_Zr	Zr	0.53366	0.46634	0.53366	3.339
Mof_Zr	Zr	0.46634	0.53366	0.53366	3.339
Mof_Zr	Zr	0.46634	0.46634	0.46634	3.339
Mof_Zr	Zr	0.53366	0.53366	0.46634	3.339
Mof_Zr	Zr	0.96634	0.03366	0.96634	3.338
Mof_Zr	Zr	0.03366	0.96634	0.96634	3.338
Mof_Zr	Zr	0.96634	0.96634	0.03366	3.338
Mof_Zr	Zr	0.03366	0.03366	0.03366	3.339
_end
