data_functionalizedCrystal
_audit_creation_method	'EQeq! by Chris Wilmer'
_symmetry_space_group_name_H-M	'P1'
_symmetry_Int_Tables_number	1
_symmetry_cell_setting	triclinic
loop_
_symmetry_equiv_pos_as_xyz
  x,y,z
_cell_length_a	11.5714
_cell_length_b	11.7015
_cell_length_c	11.8399
_cell_angle_alpha	65.118
_cell_angle_beta	78.616
_cell_angle_gamma	71.985
loop_
_atom_site_label
_atom_site_type_symbol
_atom_site_fract_x
_atom_site_fract_y
_atom_site_fract_z
_atom_site_charge
Mof_O 	O 	0.0464	0.4019	0.3778	-0.451
Mof_O 	O 	0.0383	0.4279	0.1843	-0.459
Mof_O 	O 	0.0494	0.8609	0.9158	-0.419
Mof_O 	O 	0.078	0.6528	0.9522	-0.41
Mof_C 	C 	0.034	0.4738	0.264	0.326
Mof_C 	C 	0.0114	0.616	0.231	-0.153
Mof_C 	C 	0.0127	0.7249	0.1218	-0.26
Mof_C 	C 	0.0482	0.7458	0.9881	0.429
Mof_C 	C 	0.9626	0.7862	0.2779	0.135
Mof_C 	C 	0.9263	0.8711	0.3508	0.061
Mof_C 	C 	0.7966	0.9543	0.3393	0.042
Mof_H 	H 	0.7933	0.0334	0.2664	-0.016
Mof_H 	H 	0.7688	0.9749	0.4121	0.121
Mof_H 	H 	0.7452	0.9075	0.3322	0.121
Mof_C 	C 	0.718	0.5997	0.4966	0.09
Mof_H 	H 	0.7369	0.6733	0.4921	-0.009
Mof_C 	C 	0.5974	0.606	0.4944	-0.135
Mof_H 	H 	0.5376	0.6823	0.4884	0.076
Mof_C 	C 	0.5654	0.4987	0.501	0.051
Mof_C 	C 	0.6584	0.3938	0.5048	-0.134
Mof_H 	H 	0.6428	0.3197	0.5066	0.075
Mof_C 	C 	0.7772	0.3964	0.5061	0.089
Mof_H 	H 	0.8391	0.3227	0.508	0.043
Mof_C 	C 	0.7463	0.5798	0.1288	0.051
Mof_H 	H 	0.7746	0.5008	0.1936	0.04
Mof_C 	C 	0.6259	0.6475	0.139	-0.087
Mof_H 	H 	0.5755	0.614	0.2095	0.062
Mof_C 	C 	0.5805	0.7655	0.0441	-0.046
Mof_C 	C 	0.6635	0.8119	0.9468	-0.006
Mof_H 	H 	0.6394	0.8931	0.8832	0.061
Mof_C 	C 	0.7818	0.7383	0.9434	0.122
Mof_H 	H 	0.8354	0.7718	0.8762	0.044
Mof_C 	C 	0.2446	0.8584	0.1374	0.096
Mof_H 	H 	0.1926	0.8328	0.2088	-0.042
Mof_C 	C 	0.368	0.8005	0.1458	-0.166
Mof_H 	H 	0.3962	0.7378	0.2217	0.086
Mof_C 	C 	0.449	0.8341	0.0442	0.034
Mof_C 	C 	0.3994	0.9329	0.939	-0.119
Mof_H 	H 	0.4497	0.9637	0.8674	0.093
Mof_C 	C 	0.2756	0.9867	0.9389	0.256
Mof_H 	H 	0.2455	0.0554	0.8667	-0.09
Mof_N 	N 	0.9816	0.832	0.1525	-0.099
Mof_N 	N 	0.9799	0.6567	0.3288	-0.113
Mof_N 	N 	0.8081	0.4952	0.5048	-0.195
Mof_N 	N 	0.8233	0.6221	0.0311	-0.216
Mof_N 	N 	0.1967	0.9473	0.0347	-0.306
Mof_C 	C 	0.796	0.88	0.413	-0.323
Mof_H 	H 	0.7949	0.8023	0.4865	0.154
Mof_H 	H 	0.7429	0.8881	0.3556	-0.028
Mof_H 	H 	0.7695	0.9543	0.4351	0.002
Mof_O 	O 	0.9536	0.5981	0.6222	-0.325
Mof_O 	O 	0.9617	0.5721	0.8157	-0.295
Mof_O 	O 	0.9506	0.1391	0.0842	-0.323
Mof_O 	O 	0.922	0.3472	0.0478	-0.323
Mof_C 	C 	0.966	0.5262	0.736	0.32
Mof_C 	C 	0.9886	0.384	0.769	0.044
Mof_C 	C 	0.9873	0.2751	0.8782	0.151
Mof_C 	C 	0.9518	0.2542	0.0119	0.219
Mof_C 	C 	0.0374	0.2138	0.7221	0.078
Mof_C 	C 	0.0737	0.1289	0.6492	-0.064
Mof_C 	C 	0.2034	0.0457	0.6607	-0.301
Mof_H 	H 	0.2067	0.9666	0.7336	0.163
Mof_H 	H 	0.2312	0.0251	0.5879	-0.032
Mof_H 	H 	0.2548	0.0925	0.6678	-0.008
Mof_C 	C 	0.282	0.4003	0.5034	0.088
Mof_H 	H 	0.2631	0.3267	0.5079	-0.021
Mof_C 	C 	0.4026	0.394	0.5056	-0.154
Mof_H 	H 	0.4624	0.3177	0.5116	0.074
Mof_C 	C 	0.4346	0.5013	0.499	0.066
Mof_C 	C 	0.3416	0.6062	0.4952	-0.162
Mof_H 	H 	0.3572	0.6803	0.4934	0.081
Mof_C 	C 	0.2228	0.6036	0.4939	0.094
Mof_H 	H 	0.1609	0.6773	0.492	-0.045
Mof_C 	C 	0.2537	0.4202	0.8712	0.114
Mof_H 	H 	0.2254	0.4992	0.8064	-0.022
Mof_C 	C 	0.3741	0.3525	0.861	-0.173
Mof_H 	H 	0.4245	0.386	0.7905	0.094
Mof_C 	C 	0.4195	0.2345	0.9559	0.161
Mof_C 	C 	0.3365	0.1881	0.0532	-0.262
Mof_H 	H 	0.3606	0.1069	0.1168	0.088
Mof_C 	C 	0.2182	0.2617	0.0566	0.013
Mof_H 	H 	0.1646	0.2282	0.1238	-0.016
Mof_C 	C 	0.7554	0.1416	0.8626	0.1
Mof_H 	H 	0.8074	0.1672	0.7912	0.026
Mof_C 	C 	0.632	0.1995	0.8542	-0.14
Mof_H 	H 	0.6038	0.2622	0.7783	0.08
Mof_C 	C 	0.551	0.1659	0.9558	0.113
Mof_C 	C 	0.6006	0.0671	0.061	-0.181
Mof_H 	H 	0.5503	0.0363	0.1326	0.061
Mof_C 	C 	0.7244	0.0133	0.0611	-0.091
Mof_H 	H 	0.7545	0.9446	0.1333	0.079
Mof_N 	N 	0.0184	0.168	0.8475	-0.313
Mof_N 	N 	0.0201	0.3433	0.6712	-0.315
Mof_N 	N 	0.1919	0.5048	0.4952	-0.254
Mof_N 	N 	0.1767	0.3779	0.9689	-0.188
Mof_N 	N 	0.8033	0.0527	0.9653	-0.126
Mof_C 	C 	0.204	0.12	0.587	-0.002
Mof_H 	H 	0.2051	0.1977	0.5135	0.009
Mof_H 	H 	0.2571	0.1119	0.6444	0.098
Mof_H 	H 	0.2305	0.0457	0.5649	0.106
Mof_Co	Co	-0	0	-0	1.002
Mof_Co	Co	-4.12257e-17	0.5	0.5	1.071
Mof_Co	Co	-0	0.5	-0	1.065
_end
