data_functionalizedCrystal
_audit_creation_method	'EQeq! by Chris Wilmer'
_symmetry_space_group_name_H-M	'P1'
_symmetry_Int_Tables_number	1
_symmetry_cell_setting	triclinic
loop_
_symmetry_equiv_pos_as_xyz
  x,y,z
_cell_length_a	8.1737
_cell_length_b	15.0092
_cell_length_c	37.574
_cell_angle_alpha	90
_cell_angle_beta	101.828
_cell_angle_gamma	90
loop_
_atom_site_label
_atom_site_type_symbol
_atom_site_fract_x
_atom_site_fract_y
_atom_site_fract_z
_atom_site_charge
Mof_Eu	Eu	0.31991	0.09839	0.98555	1.988
Mof_O 	O 	0.1498	0.0896	0.03367	-0.477
Mof_O 	O 	0.3896	0.2403	0.95459	-0.41
Mof_O 	O 	0.2655	0.218	0.02674	-0.431
Mof_O 	O 	0.4965	0.0265	0.4652	-0.626
Mof_O 	O 	0.5885	0.1701	0.99217	-0.461
Mof_N 	N 	0.0454	0.4751	0.9527	-0.227
Mof_C 	C 	0.1074	0.2068	0.0734	-0.073
Mof_C 	C 	0.8304	0.2909	0.9825	-0.037
Mof_H 	H 	0.8619	0.2451	0.9991	0.041
Mof_C 	C 	0.5426	0.2336	0.9702	0.325
Mof_N 	N 	0.9325	0.1493	0.15413	-0.215
Mof_H 	H 	0.9228	0.0934	0.1582	0.126
Mof_C 	C 	0.6682	0.2987	0.9634	-0.091
Mof_N 	N 	0.1135	0.3622	0.99112	-0.128
Mof_N 	N 	0.925	0.2974	0.16173	-0.135
Mof_C 	C 	0.9442	0.3532	0.9761	0.017
Mof_C 	C 	0.389	0.546	0.9734	-0.039
Mof_H 	H 	0.3154	0.5771	0.9555	0.044
Mof_C 	C 	0.1771	0.1698	0.0431	0.319
Mof_O 	O 	0.346	0.944	0.42256	-0.472
Mof_C 	C 	0.5436	0.1931	0.3537	0.082
Mof_N 	N 	0.6147	0.0871	0.31743	-0.214
Mof_H 	H 	0.6323	0.0364	0.3082	0.121
Mof_N 	N 	0.5992	0.235	0.3254	-0.131
Mof_C 	C 	0.5088	0.0426	0.3729	-0.033
Mof_H 	H 	0.5087	0.9815	0.3688	0.045
Mof_C 	C 	0.9901	0.1873	0.1256	0.058
Mof_C 	C 	0.5549	0.1017	0.3485	0.045
Mof_C 	C 	0.829	0.2047	0.208	-0.011
Mof_C 	C 	0.4335	0.0128	0.4315	0.396
Mof_C 	C 	0.1661	0.4361	0.976	0.133
Mof_C 	C 	0.4634	0.0761	0.4033	-0.129
Mof_C 	C 	0.9033	0.4241	0.9521	0.103
Mof_C 	C 	0.8951	0.2168	0.1742	0.127
Mof_C 	C 	0.0487	0.1499	0.0969	-0.058
Mof_H 	H 	0.0486	0.0885	0.0936	0.044
Mof_C 	C 	0.7439	0.109	0.252	-0.042
Mof_H 	H 	0.7287	0.0519	0.2604	0.038
Mof_C 	C 	0.9867	0.2783	0.1309	0.069
Mof_C 	C 	0.4529	0.1685	0.4086	0.058
Mof_H 	H 	0.4202	0.1893	0.4294	0.007
Mof_C 	C 	0.1039	0.2993	0.0786	0.009
Mof_H 	H 	0.1439	0.3368	0.0627	0.041
Mof_C 	C 	0.4901	0.229	0.3837	-0.13
Mof_H 	H 	0.48	0.2901	0.3867	0.085
Mof_C 	C 	0.6397	0.1665	0.3047	0.126
Mof_C 	C 	0.6247	0.3696	0.9382	0.035
Mof_H 	H 	0.5153	0.374	0.9251	0.03
Mof_C 	C 	0.0422	0.3358	0.107	-0.107
Mof_H 	H 	0.038	0.3972	0.1099	0.067
Mof_C 	C 	0.707	0.1817	0.2712	-0.011
Mof_C 	C 	0.8042	0.1201	0.22	-0.039
Mof_H 	H 	0.8272	0.0707	0.2069	0.041
Mof_C 	C 	0.7414	0.4324	0.9325	-0.143
Mof_H 	H 	0.7114	0.4788	0.9161	0.082
Mof_C 	C 	0.451	0.4236	0.0147	-0.04
Mof_H 	H 	0.4177	0.3715	0.0246	0.062
Mof_C 	C 	0.337	0.4687	0.9881	-0.014
Mof_C 	C 	0.7917	0.2756	0.2274	-0.037
Mof_H 	H 	0.8064	0.3327	0.2189	0.053
Mof_C 	C 	0.7336	0.2664	0.2588	-0.04
Mof_H 	H 	0.7121	0.3164	0.2717	0.055
Mof_H 	H 	0.053	0.5225	0.9403	0.129
Mof_Eu	Eu	0.68009	0.09839	0.51446	1.989
Mof_O 	O 	0.8502	0.0896	0.46633	-0.477
Mof_O 	O 	0.6104	0.2403	0.54541	-0.41
Mof_O 	O 	0.7345	0.218	0.47326	-0.431
Mof_O 	O 	0.5035	0.0265	0.0348	-0.626
Mof_O 	O 	0.4115	0.1701	0.50783	-0.461
Mof_N 	N 	0.9546	0.4751	0.5473	-0.227
Mof_C 	C 	0.8926	0.2068	0.4266	-0.073
Mof_C 	C 	0.1696	0.2909	0.5175	-0.037
Mof_H 	H 	0.1381	0.2451	0.5009	0.041
Mof_C 	C 	0.4574	0.2336	0.5298	0.325
Mof_N 	N 	0.0675	0.1493	0.34587	-0.215
Mof_H 	H 	0.0772	0.0934	0.3418	0.125
Mof_C 	C 	0.3318	0.2987	0.5366	-0.091
Mof_N 	N 	0.8865	0.3622	0.50888	-0.128
Mof_N 	N 	0.075	0.2974	0.33827	-0.135
Mof_C 	C 	0.0558	0.3532	0.5239	0.017
Mof_C 	C 	0.611	0.546	0.5266	-0.039
Mof_H 	H 	0.6846	0.5771	0.5445	0.044
Mof_C 	C 	0.8229	0.1698	0.4569	0.319
Mof_O 	O 	0.654	0.944	0.07744	-0.472
Mof_C 	C 	0.4564	0.1931	0.1463	0.082
Mof_N 	N 	0.3853	0.0871	0.18257	-0.214
Mof_H 	H 	0.3677	0.0364	0.1918	0.121
Mof_N 	N 	0.4008	0.235	0.1746	-0.131
Mof_C 	C 	0.4912	0.0426	0.1271	-0.032
Mof_H 	H 	0.4913	0.9815	0.1312	0.044
Mof_C 	C 	0.0099	0.1873	0.3744	0.058
Mof_C 	C 	0.4451	0.1017	0.1515	0.044
Mof_C 	C 	0.171	0.2047	0.292	-0.011
Mof_C 	C 	0.5665	0.0128	0.0685	0.396
Mof_C 	C 	0.8339	0.4361	0.524	0.133
Mof_C 	C 	0.5366	0.0761	0.0967	-0.129
Mof_C 	C 	0.0967	0.4241	0.5479	0.103
Mof_C 	C 	0.1049	0.2168	0.3258	0.127
Mof_C 	C 	0.9513	0.1499	0.4031	-0.058
Mof_H 	H 	0.9514	0.0885	0.4064	0.044
Mof_C 	C 	0.2561	0.109	0.248	-0.042
Mof_H 	H 	0.2713	0.0519	0.2396	0.038
Mof_C 	C 	0.0133	0.2783	0.3691	0.069
Mof_C 	C 	0.5471	0.1685	0.0914	0.059
Mof_H 	H 	0.5798	0.1893	0.0706	0.007
Mof_C 	C 	0.8961	0.2993	0.4214	0.009
Mof_H 	H 	0.8561	0.3368	0.4373	0.041
Mof_C 	C 	0.5099	0.229	0.1163	-0.13
Mof_H 	H 	0.52	0.2901	0.1133	0.085
Mof_C 	C 	0.3603	0.1665	0.1953	0.126
Mof_C 	C 	0.3753	0.3696	0.5618	0.035
Mof_H 	H 	0.4847	0.374	0.5749	0.03
Mof_C 	C 	0.9578	0.3358	0.393	-0.107
Mof_H 	H 	0.962	0.3972	0.3901	0.067
Mof_C 	C 	0.293	0.1817	0.2288	-0.011
Mof_C 	C 	0.1958	0.1201	0.28	-0.039
Mof_H 	H 	0.1728	0.0707	0.2931	0.041
Mof_C 	C 	0.2586	0.4324	0.5675	-0.143
Mof_H 	H 	0.2886	0.4788	0.5839	0.082
Mof_C 	C 	0.549	0.4236	0.4853	-0.04
Mof_H 	H 	0.5823	0.3715	0.4754	0.062
Mof_C 	C 	0.663	0.4687	0.5119	-0.014
Mof_C 	C 	0.2083	0.2756	0.2726	-0.037
Mof_H 	H 	0.1936	0.3327	0.2811	0.053
Mof_C 	C 	0.2664	0.2664	0.2412	-0.04
Mof_H 	H 	0.2879	0.3164	0.2283	0.055
Mof_H 	H 	0.947	0.5225	0.5597	0.129
Mof_Eu	Eu	0.68009	0.90161	0.01445	1.988
Mof_O 	O 	0.8502	0.9104	0.96633	-0.477
Mof_O 	O 	0.6104	0.7597	0.04541	-0.41
Mof_O 	O 	0.7345	0.782	0.97326	-0.431
Mof_O 	O 	0.5035	0.9735	0.5348	-0.626
Mof_O 	O 	0.4115	0.8299	0.00783	-0.461
Mof_N 	N 	0.9546	0.5249	0.0473	-0.227
Mof_C 	C 	0.8926	0.7932	0.9266	-0.073
Mof_C 	C 	0.1696	0.7091	0.0175	-0.037
Mof_H 	H 	0.1381	0.7549	0.0009	0.041
Mof_C 	C 	0.4574	0.7664	0.0298	0.325
Mof_N 	N 	0.0675	0.8507	0.84587	-0.215
Mof_H 	H 	0.0772	0.9066	0.8418	0.126
Mof_C 	C 	0.3318	0.7013	0.0366	-0.091
Mof_N 	N 	0.8865	0.6378	0.00888	-0.128
Mof_N 	N 	0.075	0.7026	0.83827	-0.135
Mof_C 	C 	0.0558	0.6468	0.0239	0.017
Mof_C 	C 	0.611	0.454	0.0266	-0.039
Mof_H 	H 	0.6846	0.4229	0.0445	0.044
Mof_C 	C 	0.8229	0.8302	0.9569	0.319
Mof_O 	O 	0.654	0.056	0.57744	-0.472
Mof_C 	C 	0.4564	0.8069	0.6463	0.082
Mof_N 	N 	0.3853	0.9129	0.68257	-0.214
Mof_H 	H 	0.3677	0.9636	0.6918	0.121
Mof_N 	N 	0.4008	0.765	0.6746	-0.131
Mof_C 	C 	0.4912	0.9574	0.6271	-0.033
Mof_H 	H 	0.4913	0.0185	0.6312	0.045
Mof_C 	C 	0.0099	0.8127	0.8744	0.058
Mof_C 	C 	0.4451	0.8983	0.6515	0.045
Mof_C 	C 	0.171	0.7953	0.792	-0.011
Mof_C 	C 	0.5665	0.9872	0.5685	0.396
Mof_C 	C 	0.8339	0.5639	0.024	0.133
Mof_C 	C 	0.5366	0.9239	0.5967	-0.129
Mof_C 	C 	0.0967	0.5759	0.0479	0.103
Mof_C 	C 	0.1049	0.7832	0.8258	0.127
Mof_C 	C 	0.9513	0.8501	0.9031	-0.058
Mof_H 	H 	0.9514	0.9115	0.9064	0.044
Mof_C 	C 	0.2561	0.891	0.748	-0.042
Mof_H 	H 	0.2713	0.9481	0.7396	0.038
Mof_C 	C 	0.0133	0.7217	0.8691	0.069
Mof_C 	C 	0.5471	0.8315	0.5914	0.058
Mof_H 	H 	0.5798	0.8107	0.5706	0.007
Mof_C 	C 	0.8961	0.7007	0.9214	0.009
Mof_H 	H 	0.8561	0.6632	0.9373	0.041
Mof_C 	C 	0.5099	0.771	0.6163	-0.13
Mof_H 	H 	0.52	0.7099	0.6133	0.085
Mof_C 	C 	0.3603	0.8335	0.6953	0.126
Mof_C 	C 	0.3753	0.6304	0.0618	0.035
Mof_H 	H 	0.4847	0.626	0.0749	0.03
Mof_C 	C 	0.9578	0.6642	0.893	-0.107
Mof_H 	H 	0.962	0.6028	0.8901	0.067
Mof_C 	C 	0.293	0.8183	0.7288	-0.011
Mof_C 	C 	0.1958	0.8799	0.78	-0.039
Mof_H 	H 	0.1728	0.9293	0.7931	0.041
Mof_C 	C 	0.2586	0.5676	0.0675	-0.143
Mof_H 	H 	0.2886	0.5212	0.0839	0.082
Mof_C 	C 	0.549	0.5764	0.9853	-0.04
Mof_H 	H 	0.5823	0.6285	0.9754	0.062
Mof_C 	C 	0.663	0.5313	0.0119	-0.014
Mof_C 	C 	0.2083	0.7244	0.7726	-0.037
Mof_H 	H 	0.1936	0.6673	0.7811	0.053
Mof_C 	C 	0.2664	0.7336	0.7412	-0.04
Mof_H 	H 	0.2879	0.6836	0.7283	0.055
Mof_H 	H 	0.947	0.4775	0.0597	0.129
Mof_Eu	Eu	0.31991	0.90161	0.48555	1.989
Mof_O 	O 	0.1498	0.9104	0.53367	-0.477
Mof_O 	O 	0.3896	0.7597	0.45459	-0.41
Mof_O 	O 	0.2655	0.782	0.52674	-0.431
Mof_O 	O 	0.4965	0.9735	0.9652	-0.626
Mof_O 	O 	0.5885	0.8299	0.49217	-0.461
Mof_N 	N 	0.0454	0.5249	0.4527	-0.227
Mof_C 	C 	0.1074	0.7932	0.5734	-0.073
Mof_C 	C 	0.8304	0.7091	0.4825	-0.037
Mof_H 	H 	0.8619	0.7549	0.4991	0.041
Mof_C 	C 	0.5426	0.7664	0.4702	0.325
Mof_N 	N 	0.9325	0.8507	0.65413	-0.215
Mof_H 	H 	0.9228	0.9066	0.6582	0.125
Mof_C 	C 	0.6682	0.7013	0.4634	-0.091
Mof_N 	N 	0.1135	0.6378	0.49112	-0.128
Mof_N 	N 	0.925	0.7026	0.66173	-0.135
Mof_C 	C 	0.9442	0.6468	0.4761	0.017
Mof_C 	C 	0.389	0.454	0.4734	-0.039
Mof_H 	H 	0.3154	0.4229	0.4555	0.044
Mof_C 	C 	0.1771	0.8302	0.5431	0.319
Mof_O 	O 	0.346	0.056	0.92256	-0.472
Mof_C 	C 	0.5436	0.8069	0.8537	0.082
Mof_N 	N 	0.6147	0.9129	0.81743	-0.214
Mof_H 	H 	0.6323	0.9636	0.8082	0.121
Mof_N 	N 	0.5992	0.765	0.8254	-0.131
Mof_C 	C 	0.5088	0.9574	0.8729	-0.032
Mof_H 	H 	0.5087	0.0185	0.8688	0.044
Mof_C 	C 	0.9901	0.8127	0.6256	0.058
Mof_C 	C 	0.5549	0.8983	0.8485	0.044
Mof_C 	C 	0.829	0.7953	0.708	-0.011
Mof_C 	C 	0.4335	0.9872	0.9315	0.396
Mof_C 	C 	0.1661	0.5639	0.476	0.133
Mof_C 	C 	0.4634	0.9239	0.9033	-0.129
Mof_C 	C 	0.9033	0.5759	0.4521	0.103
Mof_C 	C 	0.8951	0.7832	0.6742	0.127
Mof_C 	C 	0.0487	0.8501	0.5969	-0.058
Mof_H 	H 	0.0486	0.9115	0.5936	0.044
Mof_C 	C 	0.7439	0.891	0.752	-0.042
Mof_H 	H 	0.7287	0.9481	0.7604	0.038
Mof_C 	C 	0.9867	0.7217	0.6309	0.069
Mof_C 	C 	0.4529	0.8315	0.9086	0.059
Mof_H 	H 	0.4202	0.8107	0.9294	0.007
Mof_C 	C 	0.1039	0.7007	0.5786	0.009
Mof_H 	H 	0.1439	0.6632	0.5627	0.041
Mof_C 	C 	0.4901	0.771	0.8837	-0.13
Mof_H 	H 	0.48	0.7099	0.8867	0.085
Mof_C 	C 	0.6397	0.8335	0.8047	0.126
Mof_C 	C 	0.6247	0.6304	0.4382	0.035
Mof_H 	H 	0.5153	0.626	0.4251	0.03
Mof_C 	C 	0.0422	0.6642	0.607	-0.107
Mof_H 	H 	0.038	0.6028	0.6099	0.067
Mof_C 	C 	0.707	0.8183	0.7712	-0.011
Mof_C 	C 	0.8042	0.8799	0.72	-0.039
Mof_H 	H 	0.8272	0.9293	0.7069	0.041
Mof_C 	C 	0.7414	0.5676	0.4325	-0.143
Mof_H 	H 	0.7114	0.5212	0.4161	0.082
Mof_C 	C 	0.451	0.5764	0.5147	-0.04
Mof_H 	H 	0.4177	0.6285	0.5246	0.062
Mof_C 	C 	0.337	0.5313	0.4881	-0.014
Mof_C 	C 	0.7917	0.7244	0.7274	-0.037
Mof_H 	H 	0.8064	0.6673	0.7189	0.053
Mof_C 	C 	0.7336	0.7336	0.7588	-0.04
Mof_H 	H 	0.7121	0.6836	0.7717	0.055
Mof_H 	H 	0.053	0.4775	0.4403	0.129
_end
