data_functionalizedCrystal
_audit_creation_method	'EQeq! by Chris Wilmer'
_symmetry_space_group_name_H-M	'P1'
_symmetry_Int_Tables_number	1
_symmetry_cell_setting	triclinic
loop_
_symmetry_equiv_pos_as_xyz
  x,y,z
_cell_length_a	9.806
_cell_length_b	9.998
_cell_length_c	10.674
_cell_angle_alpha	99.98
_cell_angle_beta	111.38
_cell_angle_gamma	108.56
loop_
_atom_site_label
_atom_site_type_symbol
_atom_site_fract_x
_atom_site_fract_y
_atom_site_fract_z
_atom_site_charge
Mof_Mn	Mn	0.07009	0.88684	0.70196	0.797
Mof_Mn	Mn	0.92991	0.11316	0.29804	0.792
Mof_Mn	Mn	-0	0	-0	0.86
Mof_H 	H 	0.6529	0.9291	0.4033	0.092
Mof_H 	H 	0.4825	0.3122	0.8263	0.073
Mof_H 	H 	0.4282	0.9554	0.2599	-0.002
Mof_H 	H 	0.5175	0.6878	0.1737	0.022
Mof_H 	H 	0.1607	0.6055	0.2438	-0.003
Mof_H 	H 	0.3471	0.0709	0.5967	-0.009
Mof_H 	H 	0.8552	0.2439	0.8976	-0.018
Mof_H 	H 	0.1448	0.7561	0.1024	0.121
Mof_H 	H 	0.3253	0.4476	0.1012	0.081
Mof_H 	H 	0.5718	0.0446	0.7401	0.095
Mof_H 	H 	0.8393	0.3945	0.7562	0.103
Mof_H 	H 	0.6747	0.5524	0.8988	0.027
Mof_C 	C 	0.6176	0.6448	0.0446	-0.156
Mof_C 	C 	0.3951	0.4684	0.0601	-0.124
Mof_C 	C 	0.3644	0.0159	0.4129	-0.219
Mof_C 	C 	0.0862	0.6532	0.0613	-0.23
Mof_C 	C 	0.9138	0.3468	0.9387	0.186
Mof_C 	C 	0.2551	0.1989	0.9069	0.341
Mof_C 	C 	0.0108	0.4088	0.0846	-0.24
Mof_C 	C 	0.218	0.033	0.3183	0.399
Mof_C 	C 	0.4891	0.3876	0.8959	-0.091
Mof_C 	C 	0.782	0.967	0.6817	0.31
Mof_C 	C 	0.6356	0.9841	0.5871	0.06
Mof_C 	C 	0.6049	0.5316	0.9399	0.079
Mof_C 	C 	0.457	0.9734	0.3565	0.142
Mof_C 	C 	0.984	0.6904	0.8256	0.296
Mof_C 	C 	0.3824	0.3552	0.9554	0.003
Mof_C 	C 	0.7449	0.8011	0.0931	0.393
Mof_C 	C 	0.543	0.0266	0.6435	-0.189
Mof_C 	C 	0.5916	0.9575	0.4421	-0.148
Mof_C 	C 	0.016	0.3096	0.1744	0.337
Mof_C 	C 	0.0965	0.563	0.1459	0.13
Mof_C 	C 	0.9892	0.5912	0.9154	0.101
Mof_C 	C 	0.5109	0.6124	0.1041	0.056
Mof_C 	C 	0.9035	0.437	0.8541	-0.18
Mof_C 	C 	0.4084	0.0425	0.5579	0.101
Mof_O 	O 	0.1211	0.0435	0.36892	-0.411
Mof_O 	O 	0.2458	0.10422	0.80589	-0.399
Mof_O 	O 	0.8006	0.96501	0.80326	-0.307
Mof_O 	O 	0.83142	0.82602	0.03041	-0.352
Mof_O 	O 	0.94489	0.16831	0.11155	-0.408
Mof_O 	O 	0.9212	0.63848	0.69279	-0.307
Mof_O 	O 	0.7542	0.89578	0.19411	-0.375
Mof_O 	O 	0.1994	0.03499	0.19674	-0.399
Mof_O 	O 	0.16858	0.17398	0.96959	-0.353
Mof_O 	O 	0.8789	0.9565	0.63108	-0.335
Mof_O 	O 	0.0788	0.36152	0.30721	-0.342
Mof_O 	O 	0.05511	0.83169	0.88845	-0.4
_end
