data_functionalizedCrystal
_audit_creation_method	'EQeq! by Chris Wilmer'
_symmetry_space_group_name_H-M	'P1'
_symmetry_Int_Tables_number	1
_symmetry_cell_setting	triclinic
loop_
_symmetry_equiv_pos_as_xyz
  x,y,z
_cell_length_a	5.4573
_cell_length_b	8.965
_cell_length_c	15.253
_cell_angle_alpha	90
_cell_angle_beta	98.924
_cell_angle_gamma	90
loop_
_atom_site_label
_atom_site_type_symbol
_atom_site_fract_x
_atom_site_fract_y
_atom_site_fract_z
_atom_site_charge
Mof_Mn	Mn	0.101	0.4838	0.81816	0.954
Mof_P 	P 	0.6097	0.2596	0.81943	0.61
Mof_O 	O 	0.2249	0.3986	0.9566	-0.325
Mof_O 	O 	0.8524	0.3016	0.7899	-0.325
Mof_O 	O 	0.5463	0.0956	0.8012	-0.33
Mof_O 	O 	0.1248	0.3943	0.0927	-0.292
Mof_O 	O 	0.3975	0.3602	0.7795	-0.37
Mof_O 	O 	0.6548	0.2784	0.9252	-0.74
Mof_C 	C 	0.101	0.4402	0.0142	0.272
Mof_H 	H 	0.54	0.29	0.933	0.546
Mof_Mn	Mn	0.399	0.9838	0.68184	0.957
Mof_P 	P 	0.8903	0.7596	0.68057	0.61
Mof_O 	O 	0.2751	0.8986	0.5434	-0.324
Mof_O 	O 	0.6476	0.8016	0.7101	-0.327
Mof_O 	O 	0.9537	0.5956	0.6988	-0.329
Mof_O 	O 	0.3752	0.8943	0.4073	-0.292
Mof_O 	O 	0.1025	0.8602	0.7205	-0.371
Mof_O 	O 	0.8452	0.7784	0.5748	-0.742
Mof_C 	C 	0.399	0.9402	0.4858	0.272
Mof_H 	H 	0.96	0.79	0.567	0.547
Mof_Mn	Mn	0.899	0.5162	0.18184	0.953
Mof_P 	P 	0.3903	0.7404	0.18057	0.609
Mof_O 	O 	0.7751	0.6014	0.0434	-0.325
Mof_O 	O 	0.1476	0.6984	0.2101	-0.325
Mof_O 	O 	0.4537	0.9044	0.1988	-0.33
Mof_O 	O 	0.8752	0.6057	0.9073	-0.292
Mof_O 	O 	0.6025	0.6398	0.2205	-0.37
Mof_O 	O 	0.3452	0.7216	0.0748	-0.74
Mof_C 	C 	0.899	0.5598	0.9858	0.272
Mof_H 	H 	0.46	0.71	0.067	0.546
Mof_Mn	Mn	0.601	0.0162	0.31816	0.957
Mof_P 	P 	0.1097	0.2404	0.31943	0.61
Mof_O 	O 	0.7249	0.1014	0.4566	-0.324
Mof_O 	O 	0.3524	0.1984	0.2899	-0.327
Mof_O 	O 	0.0463	0.4044	0.3012	-0.329
Mof_O 	O 	0.6248	0.1057	0.5927	-0.292
Mof_O 	O 	0.8975	0.1398	0.2795	-0.371
Mof_O 	O 	0.1548	0.2216	0.4252	-0.742
Mof_C 	C 	0.601	0.0598	0.5142	0.272
Mof_H 	H 	0.04	0.21	0.433	0.547
_end
