data_functionalizedCrystal
_audit_creation_method	'EQeq! by Chris Wilmer'
_symmetry_space_group_name_H-M	'P1'
_symmetry_Int_Tables_number	1
_symmetry_cell_setting	triclinic
loop_
_symmetry_equiv_pos_as_xyz
  x,y,z
_cell_length_a	7.284
_cell_length_b	7.284
_cell_length_c	8.2088
_cell_angle_alpha	90
_cell_angle_beta	90
_cell_angle_gamma	120
loop_
_atom_site_label
_atom_site_type_symbol
_atom_site_fract_x
_atom_site_fract_y
_atom_site_fract_z
_atom_site_charge
Mof_O 	O 	0.10957	0.68966	0.10591	-0.397
Mof_O 	O 	0.31034	0.41991	0.10591	-0.435
Mof_O 	O 	0.58009	0.89043	0.10591	-0.33
Mof_O 	O 	0.89043	0.31034	0.60591	-0.393
Mof_O 	O 	0.68966	0.58009	0.60591	-0.422
Mof_O 	O 	0.41991	0.10957	0.60591	-0.431
Mof_O 	O 	0.68966	0.10957	0.89409	-0.31
Mof_O 	O 	0.41991	0.31034	0.89409	-0.351
Mof_O 	O 	0.89043	0.58009	0.89409	-0.271
Mof_O 	O 	0.31034	0.89043	0.39409	-0.374
Mof_O 	O 	0.58009	0.68966	0.39409	-0.429
Mof_O 	O 	0.10957	0.41991	0.39409	-0.446
Mof_Mg	Mg	0.33333	0.66667	0.25	1.478
Mof_Mg	Mg	0.66667	0.33333	0.75	1.479
Mof_C 	C 	-3.76765e-17	0.5606	-0	0.283
Mof_H 	H 	-0	0.4329	-0	-0.096
Mof_C 	C 	0.4394	0.4394	-0	0.367
Mof_H 	H 	0.5671	0.5671	-0	-0.097
Mof_C 	C 	0.5606	0	-0	0.239
Mof_H 	H 	0.4329	0	-0	-0.088
Mof_C 	C 	-3.13301e-17	0.4394	0.5	0.442
Mof_H 	H 	6.34631e-18	0.5671	0.5	-0.111
Mof_C 	C 	0.5606	0.5606	0.5	0.529
Mof_H 	H 	0.4329	0.4329	0.5	-0.134
Mof_C 	C 	0.4394	0	0.5	0.405
Mof_H 	H 	0.5671	0	0.5	-0.107
_end
