data_functionalizedCrystal
_audit_creation_method	'EQeq! by Chris Wilmer'
_symmetry_space_group_name_H-M	'P1'
_symmetry_Int_Tables_number	1
_symmetry_cell_setting	triclinic
loop_
_symmetry_equiv_pos_as_xyz
  x,y,z
_cell_length_a	15.646
_cell_length_b	17.2762
_cell_length_c	17.8861
_cell_angle_alpha	77.9019
_cell_angle_beta	64.0632
_cell_angle_gamma	63.0753
loop_
_atom_site_label
_atom_site_type_symbol
_atom_site_fract_x
_atom_site_fract_y
_atom_site_fract_z
_atom_site_charge
Mof_La	La	0.52714	0.04998	0.17132	1.627
Mof_La	La	0.20192	0.32428	0.01338	1.644
Mof_La	La	0.74844	0.45002	0.32868	1.634
Mof_La	La	0.53958	0.17572	0.48662	1.648
Mof_La	La	0.47286	0.95002	0.82868	1.627
Mof_La	La	0.79808	0.67572	0.98662	1.644
Mof_La	La	0.25156	0.54998	0.67132	1.634
Mof_La	La	0.46042	0.82428	0.51338	1.648
Mof_H 	H 	0.1947	0.0082	0.432	-0.006
Mof_H 	H 	0.0618	0.1286	0.4038	0.033
Mof_H 	H 	0.1041	0.2052	0.2806	-0.003
Mof_H 	H 	0.8755	0.2205	0.1447	0.014
Mof_H 	H 	0.9514	0.1014	0.0604	0.037
Mof_H 	H 	0.1244	0.0604	0.9628	-0.003
Mof_H 	H 	0.6349	0.4918	0.068	-0.005
Mof_H 	H 	0.5942	0.3714	0.0962	0.033
Mof_H 	H 	0.5899	0.2948	0.2194	-0.002
Mof_H 	H 	0.2407	0.2795	0.3553	0.017
Mof_H 	H 	0.1132	0.3986	0.4396	0.033
Mof_H 	H 	0.1476	0.4396	0.5372	-0.002
Mof_H 	H 	0.8053	0.9918	0.568	-0.006
Mof_H 	H 	0.9382	0.8714	0.5962	0.033
Mof_H 	H 	0.8959	0.7948	0.7194	-0.003
Mof_H 	H 	0.1245	0.7795	0.8553	0.014
Mof_H 	H 	0.0486	0.8986	0.9396	0.037
Mof_H 	H 	0.8756	0.9396	0.0372	-0.003
Mof_H 	H 	0.3651	0.5082	0.932	-0.005
Mof_H 	H 	0.4058	0.6286	0.9038	0.033
Mof_H 	H 	0.4101	0.7052	0.7806	-0.002
Mof_H 	H 	0.7593	0.7205	0.6447	0.017
Mof_H 	H 	0.8868	0.6014	0.5604	0.033
Mof_H 	H 	0.8524	0.5604	0.4628	-0.002
Mof_C 	C 	0.4032	0.955	0.3456	0.397
Mof_C 	C 	0.3114	0.0216	0.3284	-0.101
Mof_C 	C 	0.21	0.0414	0.3838	0.017
Mof_C 	C 	0.1309	0.1122	0.3664	-0.111
Mof_C 	C 	0.1558	0.1576	0.2934	0.021
Mof_C 	C 	0.2582	0.1318	0.2396	-0.097
Mof_C 	C 	0.2929	0.1719	0.1549	0.412
Mof_C 	C 	0.9604	0.3263	0.1453	0.389
Mof_C 	C 	0.0011	0.2499	0.0939	-0.091
Mof_C 	C 	0.9433	0.204	0.1048	0.005
Mof_C 	C 	0.9889	0.1328	0.0548	-0.109
Mof_C 	C 	0.0917	0.1087	0.9959	0.015
Mof_C 	C 	0.1431	0.1599	0.9885	-0.099
Mof_C 	C 	0.254	0.1384	0.931	0.391
Mof_C 	C 	0.7038	0.545	0.1544	0.396
Mof_C 	C 	0.6614	0.4784	0.1716	-0.099
Mof_C 	C 	0.6352	0.4586	0.1162	0.017
Mof_C 	C 	0.6095	0.3878	0.1336	-0.111
Mof_C 	C 	0.6068	0.3424	0.2066	0.021
Mof_C 	C 	0.6296	0.3682	0.2604	-0.096
Mof_C 	C 	0.6197	0.3281	0.3451	0.412
Mof_C 	C 	0.432	0.1737	0.3547	0.384
Mof_C 	C 	0.3449	0.2501	0.4061	-0.085
Mof_C 	C 	0.2521	0.296	0.3952	-0.003
Mof_C 	C 	0.1765	0.3672	0.4452	-0.096
Mof_C 	C 	0.1963	0.3913	0.5041	0.003
Mof_C 	C 	0.2915	0.3401	0.5115	-0.101
Mof_C 	C 	0.3234	0.3616	0.569	0.391
Mof_C 	C 	0.5968	0.045	0.6544	0.397
Mof_C 	C 	0.6886	0.9784	0.6716	-0.101
Mof_C 	C 	0.79	0.9586	0.6162	0.017
Mof_C 	C 	0.8691	0.8878	0.6336	-0.111
Mof_C 	C 	0.8442	0.8424	0.7066	0.021
Mof_C 	C 	0.7418	0.8682	0.7604	-0.097
Mof_C 	C 	0.7071	0.8281	0.8451	0.412
Mof_C 	C 	0.0396	0.6737	0.8547	0.389
Mof_C 	C 	0.9989	0.7501	0.9061	-0.091
Mof_C 	C 	0.0567	0.796	0.8952	0.005
Mof_C 	C 	0.0111	0.8672	0.9452	-0.109
Mof_C 	C 	0.9083	0.8913	0.0041	0.015
Mof_C 	C 	0.8569	0.8401	0.0115	-0.099
Mof_C 	C 	0.746	0.8616	0.069	0.391
Mof_C 	C 	0.2962	0.455	0.8456	0.396
Mof_C 	C 	0.3386	0.5216	0.8284	-0.099
Mof_C 	C 	0.3648	0.5414	0.8838	0.017
Mof_C 	C 	0.3905	0.6122	0.8664	-0.111
Mof_C 	C 	0.3932	0.6576	0.7934	0.021
Mof_C 	C 	0.3704	0.6318	0.7396	-0.096
Mof_C 	C 	0.3803	0.6719	0.6549	0.412
Mof_C 	C 	0.568	0.8263	0.6453	0.384
Mof_C 	C 	0.6551	0.7499	0.5939	-0.085
Mof_C 	C 	0.7479	0.704	0.6048	-0.003
Mof_C 	C 	0.8235	0.6328	0.5548	-0.096
Mof_C 	C 	0.8037	0.6087	0.4959	0.003
Mof_C 	C 	0.7085	0.6599	0.4885	-0.101
Mof_C 	C 	0.6766	0.6384	0.431	0.391
Mof_N 	N 	0.3351	0.0668	0.2568	-0.169
Mof_N 	N 	0.0981	0.2302	0.0358	-0.176
Mof_N 	N 	0.6587	0.4332	0.2432	-0.169
Mof_N 	N 	0.3641	0.2698	0.4642	-0.174
Mof_N 	N 	0.6649	0.9332	0.7432	-0.169
Mof_N 	N 	0.9019	0.7698	0.9642	-0.176
Mof_N 	N 	0.3413	0.5668	0.7568	-0.169
Mof_N 	N 	0.6359	0.7302	0.5358	-0.174
Mof_O 	O 	0.4919	0.9521	0.2953	-0.494
Mof_O 	O 	0.3862	0.9084	0.4094	-0.53
Mof_O 	O 	0.3904	0.1502	0.1168	-0.53
Mof_O 	O 	0.2269	0.2221	0.1279	-0.506
Mof_O 	O 	0.0173	0.3672	0.1258	-0.506
Mof_O 	O 	0.8756	0.3439	0.2059	-0.461
Mof_O 	O 	0.3012	0.0709	0.8883	-0.519
Mof_O 	O 	0.2948	0.1869	0.9303	-0.494
Mof_O 	O 	0.7393	0.5479	0.2047	-0.495
Mof_O 	O 	0.704	0.5916	0.0906	-0.528
Mof_O 	O 	0.6574	0.3498	0.3832	-0.531
Mof_O 	O 	0.5769	0.2779	0.3721	-0.506
Mof_O 	O 	0.5103	0.1328	0.3742	-0.504
Mof_O 	O 	0.4254	0.1561	0.2941	-0.46
Mof_O 	O 	0.2604	0.4291	0.6117	-0.522
Mof_O 	O 	0.412	0.3131	0.5697	-0.497
Mof_O 	O 	0.5081	0.0479	0.7047	-0.494
Mof_O 	O 	0.6138	0.0916	0.5906	-0.53
Mof_O 	O 	0.6096	0.8498	0.8832	-0.53
Mof_O 	O 	0.7731	0.7779	0.8721	-0.506
Mof_O 	O 	0.9827	0.6328	0.8742	-0.506
Mof_O 	O 	0.1244	0.6561	0.7941	-0.461
Mof_O 	O 	0.6988	0.9291	0.1117	-0.519
Mof_O 	O 	0.7052	0.8131	0.0697	-0.494
Mof_O 	O 	0.2607	0.4521	0.7953	-0.495
Mof_O 	O 	0.296	0.4084	0.9094	-0.528
Mof_O 	O 	0.3426	0.6502	0.6168	-0.531
Mof_O 	O 	0.4231	0.7221	0.6279	-0.506
Mof_O 	O 	0.4897	0.8672	0.6258	-0.504
Mof_O 	O 	0.5746	0.8439	0.7059	-0.46
Mof_O 	O 	0.7396	0.5709	0.3883	-0.522
Mof_O 	O 	0.588	0.6869	0.4303	-0.497
_end
