data_functionalizedCrystal
_audit_creation_method	'EQeq! by Chris Wilmer'
_symmetry_space_group_name_H-M	'P1'
_symmetry_Int_Tables_number	1
_symmetry_cell_setting	triclinic
loop_
_symmetry_equiv_pos_as_xyz
  x,y,z
_cell_length_a	27.2658
_cell_length_b	27.2658
_cell_length_c	27.2658
_cell_angle_alpha	90
_cell_angle_beta	90
_cell_angle_gamma	90
loop_
_atom_site_label
_atom_site_type_symbol
_atom_site_fract_x
_atom_site_fract_y
_atom_site_fract_z
_atom_site_charge
Mof_O 	O 	0.1122	0.97354	0.41358	-0.523
Mof_O 	O 	0.18231	0.98087	0.4535	-0.723
Mof_O 	O 	0.17529	0.07989	0.45469	-0.503
Mof_S 	S 	0.11097	0.12227	0.53624	-0.033
Mof_C 	C 	0.1453	0.9976	0.4329	0.551
Mof_C 	C 	0.137	0.0513	0.4319	-0.28
Mof_H 	H 	0.1336	0.0618	0.3974	0.08
Mof_H 	H 	0.1056	0.0585	0.4487	0.075
Mof_C 	C 	0.16525	0.12965	0.4508	0.088
Mof_C 	C 	0.13773	0.15316	0.4864	-0.182
Mof_C 	C 	0.1832	0.1562	0.4103	-0.197
Mof_C 	C 	0.1701	0.2053	0.4049	-0.08
Mof_H 	H 	0.182	0.2229	0.3773	-0.005
Mof_C 	C 	0.1402	0.2294	0.4388	-0.27
Mof_C 	C 	0.1259	0.2031	0.4801	-0.068
Mof_H 	H 	0.1075	0.2193	0.5049	-0.014
Mof_C 	C 	0.1252	0.2829	0.4311	0.436
Mof_C 	C 	0.0889	0.2991	0.4674	-0.684
Mof_H 	H 	0.1006	0.2913	0.5005	0.166
Mof_H 	H 	0.0577	0.2822	0.4615	0.177
Mof_H 	H 	0.084	0.3346	0.4644	0.178
Mof_C 	C 	0.1735	0.3148	0.437	-0.547
Mof_H 	H 	0.1859	0.3117	0.4706	0.037
Mof_H 	H 	0.1659	0.3493	0.4301	0.15
Mof_H 	H 	0.1984	0.3031	0.4139	0.111
Mof_C 	C 	0.1073	0.2906	0.3786	-0.714
Mof_H 	H 	0.133	0.2805	0.3556	0.215
Mof_H 	H 	0.0997	0.3254	0.3735	0.22
Mof_H 	H 	0.0778	0.271	0.373	0.202
Mof_O 	O 	0.6122	0.47354	0.91358	-0.511
Mof_O 	O 	0.68231	0.48087	0.9535	-0.694
Mof_O 	O 	0.67529	0.57989	0.95469	-0.477
Mof_S 	S 	0.61097	0.62227	0.03624	-0.088
Mof_C 	C 	0.6453	0.4976	0.9329	0.47
Mof_C 	C 	0.637	0.5513	0.9319	-0.189
Mof_H 	H 	0.6336	0.5618	0.8974	0.065
Mof_H 	H 	0.6056	0.5585	0.9487	0.085
Mof_C 	C 	0.66525	0.62965	0.9508	0.098
Mof_C 	C 	0.63773	0.65316	0.9864	-0.138
Mof_C 	C 	0.6832	0.6562	0.9103	-0.185
Mof_C 	C 	0.6701	0.7053	0.9049	-0.059
Mof_H 	H 	0.682	0.7229	0.8773	-0.005
Mof_C 	C 	0.6402	0.7294	0.9388	-0.277
Mof_C 	C 	0.6259	0.7031	0.9801	0.069
Mof_H 	H 	0.6075	0.7193	0.0049	-0.093
Mof_C 	C 	0.6252	0.7829	0.9311	0.407
Mof_C 	C 	0.5889	0.7991	0.9674	-0.481
Mof_H 	H 	0.6006	0.7913	0.0005	0.069
Mof_H 	H 	0.5577	0.7822	0.9615	0.157
Mof_H 	H 	0.584	0.8346	0.9644	0.152
Mof_C 	C 	0.6735	0.8148	0.937	-0.559
Mof_H 	H 	0.6859	0.8117	0.9706	0.083
Mof_H 	H 	0.6659	0.8493	0.9301	0.166
Mof_H 	H 	0.6984	0.8031	0.9139	0.128
Mof_C 	C 	0.6073	0.7906	0.8786	-0.698
Mof_H 	H 	0.633	0.7805	0.8556	0.212
Mof_H 	H 	0.5997	0.8254	0.8735	0.221
Mof_H 	H 	0.5778	0.771	0.873	0.207
Mof_O 	O 	0.3878	0.02646	0.91358	-0.512
Mof_O 	O 	0.31769	0.01913	0.9535	-0.733
Mof_O 	O 	0.32471	0.92011	0.95469	-0.515
Mof_S 	S 	0.38903	0.87773	0.03624	-0.084
Mof_C 	C 	0.3547	0.0024	0.9329	0.388
Mof_C 	C 	0.363	0.9487	0.9319	-0.087
Mof_H 	H 	0.3664	0.9382	0.8974	0.047
Mof_H 	H 	0.3944	0.9415	0.9487	0.069
Mof_C 	C 	0.33475	0.87035	0.9508	0.105
Mof_C 	C 	0.36227	0.84684	0.9864	-0.144
Mof_C 	C 	0.3168	0.8438	0.9103	-0.19
Mof_C 	C 	0.3299	0.7947	0.9049	-0.057
Mof_H 	H 	0.318	0.7771	0.8773	-0.006
Mof_C 	C 	0.3598	0.7706	0.9388	-0.278
Mof_C 	C 	0.3741	0.7969	0.9801	0.07
Mof_H 	H 	0.3925	0.7807	0.0049	-0.093
Mof_C 	C 	0.3748	0.7171	0.9311	0.407
Mof_C 	C 	0.4111	0.7009	0.9674	-0.48
Mof_H 	H 	0.3994	0.7087	0.0005	0.068
Mof_H 	H 	0.4423	0.7178	0.9615	0.156
Mof_H 	H 	0.416	0.6654	0.9644	0.149
Mof_C 	C 	0.3265	0.6852	0.937	-0.557
Mof_H 	H 	0.3141	0.6883	0.9706	0.081
Mof_H 	H 	0.3341	0.6507	0.9301	0.164
Mof_H 	H 	0.3016	0.6969	0.9139	0.127
Mof_C 	C 	0.3927	0.7094	0.8786	-0.7
Mof_H 	H 	0.367	0.7195	0.8556	0.212
Mof_H 	H 	0.4003	0.6746	0.8735	0.223
Mof_H 	H 	0.4222	0.729	0.873	0.208
Mof_O 	O 	0.8878	0.52646	0.41358	-0.516
Mof_O 	O 	0.81769	0.51913	0.4535	-0.76
Mof_O 	O 	0.82471	0.42011	0.45469	-0.54
Mof_S 	S 	0.88903	0.37773	0.53624	0.009
Mof_C 	C 	0.8547	0.5024	0.4329	0.472
Mof_C 	C 	0.863	0.4487	0.4319	-0.181
Mof_H 	H 	0.8664	0.4382	0.3974	0.06
Mof_H 	H 	0.8944	0.4415	0.4487	0.07
Mof_C 	C 	0.83475	0.37035	0.4508	0.101
Mof_C 	C 	0.86227	0.34684	0.4864	-0.195
Mof_C 	C 	0.8168	0.3438	0.4103	-0.209
Mof_C 	C 	0.8299	0.2947	0.4049	-0.065
Mof_H 	H 	0.818	0.2771	0.3773	-0.011
Mof_C 	C 	0.8598	0.2706	0.4388	-0.297
Mof_C 	C 	0.8741	0.2969	0.4801	-0.046
Mof_H 	H 	0.8925	0.2807	0.5049	-0.011
Mof_C 	C 	0.8748	0.2171	0.4311	0.506
Mof_C 	C 	0.9111	0.2009	0.4674	-0.795
Mof_H 	H 	0.8994	0.2087	0.5005	0.21
Mof_H 	H 	0.9423	0.2178	0.4615	0.243
Mof_H 	H 	0.916	0.1654	0.4644	0.23
Mof_C 	C 	0.8265	0.1852	0.437	-0.6
Mof_H 	H 	0.8141	0.1883	0.4706	0.055
Mof_H 	H 	0.8341	0.1507	0.4301	0.167
Mof_H 	H 	0.8016	0.1969	0.4139	0.127
Mof_C 	C 	0.8927	0.2094	0.3786	-0.795
Mof_H 	H 	0.867	0.2195	0.3556	0.24
Mof_H 	H 	0.9003	0.1746	0.3735	0.256
Mof_H 	H 	0.9222	0.229	0.373	0.244
Mof_O 	O 	0.8878	0.47354	0.08642	-0.52
Mof_O 	O 	0.81769	0.48087	0.0465	-0.739
Mof_O 	O 	0.82471	0.57989	0.04531	-0.524
Mof_S 	S 	0.88903	0.62227	0.96376	0.082
Mof_C 	C 	0.8547	0.4976	0.0671	0.459
Mof_C 	C 	0.863	0.5513	0.0681	-0.177
Mof_H 	H 	0.8664	0.5618	0.1026	0.06
Mof_H 	H 	0.8944	0.5585	0.0513	0.054
Mof_C 	C 	0.83475	0.62965	0.0492	0.107
Mof_C 	C 	0.86227	0.65316	0.0136	-0.221
Mof_C 	C 	0.8168	0.6562	0.0897	-0.198
Mof_C 	C 	0.8299	0.7053	0.0951	-0.049
Mof_H 	H 	0.818	0.7229	0.1227	-0.015
Mof_C 	C 	0.8598	0.7294	0.0612	-0.298
Mof_C 	C 	0.8741	0.7031	0.0199	-0.144
Mof_H 	H 	0.8925	0.7193	0.9951	0.07
Mof_C 	C 	0.8748	0.7829	0.0689	0.616
Mof_C 	C 	0.9111	0.7991	0.0326	-1.12
Mof_H 	H 	0.8994	0.7913	0.9995	0.359
Mof_H 	H 	0.9423	0.7822	0.0385	0.317
Mof_H 	H 	0.916	0.8346	0.0356	0.311
Mof_C 	C 	0.8265	0.8148	0.063	-0.687
Mof_H 	H 	0.8141	0.8117	0.0294	0.073
Mof_H 	H 	0.8341	0.8493	0.0699	0.187
Mof_H 	H 	0.8016	0.8031	0.0861	0.155
Mof_C 	C 	0.8927	0.7906	0.1214	-0.89
Mof_H 	H 	0.867	0.7805	0.1444	0.266
Mof_H 	H 	0.9003	0.8254	0.1265	0.281
Mof_H 	H 	0.9222	0.771	0.127	0.269
Mof_O 	O 	0.3878	0.97354	0.58642	-0.518
Mof_O 	O 	0.31769	0.98087	0.5465	-0.722
Mof_O 	O 	0.32471	0.07989	0.54531	-0.502
Mof_S 	S 	0.38903	0.12227	0.46376	-0.013
Mof_C 	C 	0.3547	0.9976	0.5671	0.554
Mof_C 	C 	0.363	0.0513	0.5681	-0.282
Mof_H 	H 	0.3664	0.0618	0.6026	0.08
Mof_H 	H 	0.3944	0.0585	0.5513	0.08
Mof_C 	C 	0.33475	0.12965	0.5492	0.091
Mof_C 	C 	0.36227	0.15316	0.5136	-0.186
Mof_C 	C 	0.3168	0.1562	0.5897	-0.2
Mof_C 	C 	0.3299	0.2053	0.5951	-0.073
Mof_H 	H 	0.318	0.2229	0.6227	-0.007
Mof_C 	C 	0.3598	0.2294	0.5612	-0.282
Mof_C 	C 	0.3741	0.2031	0.5199	-0.058
Mof_H 	H 	0.3925	0.2193	0.4951	-0.012
Mof_C 	C 	0.3748	0.2829	0.5689	0.471
Mof_C 	C 	0.4111	0.2991	0.5326	-0.74
Mof_H 	H 	0.3994	0.2913	0.4995	0.189
Mof_H 	H 	0.4423	0.2822	0.5385	0.21
Mof_H 	H 	0.416	0.3346	0.5356	0.206
Mof_C 	C 	0.3265	0.3148	0.563	-0.573
Mof_H 	H 	0.3141	0.3117	0.5294	0.047
Mof_H 	H 	0.3341	0.3493	0.5699	0.159
Mof_H 	H 	0.3016	0.3031	0.5861	0.119
Mof_C 	C 	0.3927	0.2906	0.6214	-0.754
Mof_H 	H 	0.367	0.2805	0.6444	0.227
Mof_H 	H 	0.4003	0.3254	0.6265	0.238
Mof_H 	H 	0.4222	0.271	0.627	0.223
Mof_O 	O 	0.6122	0.52646	0.58642	-0.521
Mof_O 	O 	0.68231	0.51913	0.5465	-0.76
Mof_O 	O 	0.67529	0.42011	0.54531	-0.54
Mof_S 	S 	0.61097	0.37773	0.46376	-0.011
Mof_C 	C 	0.6453	0.5024	0.5671	0.471
Mof_C 	C 	0.637	0.4487	0.5681	-0.18
Mof_H 	H 	0.6336	0.4382	0.6026	0.062
Mof_H 	H 	0.6056	0.4415	0.5513	0.065
Mof_C 	C 	0.66525	0.37035	0.5492	0.099
Mof_C 	C 	0.63773	0.34684	0.5136	-0.191
Mof_C 	C 	0.6832	0.3438	0.5897	-0.204
Mof_C 	C 	0.6701	0.2947	0.5951	-0.071
Mof_H 	H 	0.682	0.2771	0.6227	-0.008
Mof_C 	C 	0.6402	0.2706	0.5612	-0.283
Mof_C 	C 	0.6259	0.2969	0.5199	-0.055
Mof_H 	H 	0.6075	0.2807	0.4951	-0.013
Mof_C 	C 	0.6252	0.2171	0.5689	0.47
Mof_C 	C 	0.5889	0.2009	0.5326	-0.736
Mof_H 	H 	0.6006	0.2087	0.4995	0.186
Mof_H 	H 	0.5577	0.2178	0.5385	0.209
Mof_H 	H 	0.584	0.1654	0.5356	0.202
Mof_C 	C 	0.6735	0.1852	0.563	-0.572
Mof_H 	H 	0.6859	0.1883	0.5294	0.046
Mof_H 	H 	0.6659	0.1507	0.5699	0.158
Mof_H 	H 	0.6984	0.1969	0.5861	0.119
Mof_C 	C 	0.6073	0.2094	0.6214	-0.753
Mof_H 	H 	0.633	0.2195	0.6444	0.227
Mof_H 	H 	0.5997	0.1746	0.6265	0.238
Mof_H 	H 	0.5778	0.229	0.627	0.222
Mof_O 	O 	0.1122	0.02646	0.08642	-0.528
Mof_O 	O 	0.18231	0.01913	0.0465	-0.777
Mof_O 	O 	0.17529	0.92011	0.04531	-0.56
Mof_S 	S 	0.11097	0.87773	0.96376	0.045
Mof_C 	C 	0.1453	0.0024	0.0671	0.38
Mof_C 	C 	0.137	0.9487	0.0681	-0.078
Mof_H 	H 	0.1336	0.9382	0.1026	0.046
Mof_H 	H 	0.1056	0.9415	0.0513	0.032
Mof_C 	C 	0.16525	0.87035	0.0492	0.109
Mof_C 	C 	0.13773	0.84684	0.0136	-0.215
Mof_C 	C 	0.1832	0.8438	0.0897	-0.194
Mof_C 	C 	0.1701	0.7947	0.0951	-0.06
Mof_H 	H 	0.182	0.7771	0.1227	-0.008
Mof_C 	C 	0.1402	0.7706	0.0612	-0.271
Mof_C 	C 	0.1259	0.7969	0.0199	-0.157
Mof_H 	H 	0.1075	0.7807	0.9951	0.064
Mof_C 	C 	0.1252	0.7171	0.0689	0.54
Mof_C 	C 	0.0889	0.7009	0.0326	-0.987
Mof_H 	H 	0.1006	0.7087	0.9995	0.306
Mof_H 	H 	0.0577	0.7178	0.0385	0.246
Mof_H 	H 	0.084	0.6654	0.0356	0.25
Mof_C 	C 	0.1735	0.6852	0.063	-0.626
Mof_H 	H 	0.1859	0.6883	0.0294	0.054
Mof_H 	H 	0.1659	0.6507	0.0699	0.166
Mof_H 	H 	0.1984	0.6969	0.0861	0.138
Mof_C 	C 	0.1073	0.7094	0.1214	-0.804
Mof_H 	H 	0.133	0.7195	0.1444	0.241
Mof_H 	H 	0.0997	0.6746	0.1265	0.245
Mof_H 	H 	0.0778	0.729	0.127	0.225
Mof_O 	O 	0.41358	0.1122	0.97354	-0.522
Mof_O 	O 	0.4535	0.18231	0.98087	-0.722
Mof_O 	O 	0.45469	0.17529	0.07989	-0.502
Mof_S 	S 	0.53624	0.11097	0.12227	-0.032
Mof_C 	C 	0.4329	0.1453	0.9976	0.552
Mof_C 	C 	0.4319	0.137	0.0513	-0.279
Mof_H 	H 	0.3974	0.1336	0.0618	0.081
Mof_H 	H 	0.4487	0.1056	0.0585	0.076
Mof_C 	C 	0.4508	0.16525	0.12965	0.089
Mof_C 	C 	0.4864	0.13773	0.15316	-0.181
Mof_C 	C 	0.4103	0.1832	0.1562	-0.196
Mof_C 	C 	0.4049	0.1701	0.2053	-0.079
Mof_H 	H 	0.3773	0.182	0.2229	-0.004
Mof_C 	C 	0.4388	0.1402	0.2294	-0.269
Mof_C 	C 	0.4801	0.1259	0.2031	-0.067
Mof_H 	H 	0.5049	0.1075	0.2193	-0.013
Mof_C 	C 	0.4311	0.1252	0.2829	0.437
Mof_C 	C 	0.4674	0.0889	0.2991	-0.683
Mof_H 	H 	0.5005	0.1006	0.2913	0.167
Mof_H 	H 	0.4615	0.0577	0.2822	0.178
Mof_H 	H 	0.4644	0.084	0.3346	0.179
Mof_C 	C 	0.437	0.1735	0.3148	-0.546
Mof_H 	H 	0.4706	0.1859	0.3117	0.038
Mof_H 	H 	0.4301	0.1659	0.3493	0.15
Mof_H 	H 	0.4139	0.1984	0.3031	0.111
Mof_C 	C 	0.3786	0.1073	0.2906	-0.714
Mof_H 	H 	0.3556	0.133	0.2805	0.215
Mof_H 	H 	0.3735	0.0997	0.3254	0.22
Mof_H 	H 	0.373	0.0778	0.271	0.202
Mof_O 	O 	0.91358	0.6122	0.47354	-0.511
Mof_O 	O 	0.9535	0.68231	0.48087	-0.694
Mof_O 	O 	0.95469	0.67529	0.57989	-0.477
Mof_S 	S 	0.03624	0.61097	0.62227	-0.088
Mof_C 	C 	0.9329	0.6453	0.4976	0.47
Mof_C 	C 	0.9319	0.637	0.5513	-0.189
Mof_H 	H 	0.8974	0.6336	0.5618	0.065
Mof_H 	H 	0.9487	0.6056	0.5585	0.085
Mof_C 	C 	0.9508	0.66525	0.62965	0.098
Mof_C 	C 	0.9864	0.63773	0.65316	-0.138
Mof_C 	C 	0.9103	0.6832	0.6562	-0.185
Mof_C 	C 	0.9049	0.6701	0.7053	-0.059
Mof_H 	H 	0.8773	0.682	0.7229	-0.005
Mof_C 	C 	0.9388	0.6402	0.7294	-0.277
Mof_C 	C 	0.9801	0.6259	0.7031	0.069
Mof_H 	H 	0.0049	0.6075	0.7193	-0.093
Mof_C 	C 	0.9311	0.6252	0.7829	0.407
Mof_C 	C 	0.9674	0.5889	0.7991	-0.481
Mof_H 	H 	0.0005	0.6006	0.7913	0.069
Mof_H 	H 	0.9615	0.5577	0.7822	0.157
Mof_H 	H 	0.9644	0.584	0.8346	0.152
Mof_C 	C 	0.937	0.6735	0.8148	-0.559
Mof_H 	H 	0.9706	0.6859	0.8117	0.083
Mof_H 	H 	0.9301	0.6659	0.8493	0.166
Mof_H 	H 	0.9139	0.6984	0.8031	0.128
Mof_C 	C 	0.8786	0.6073	0.7906	-0.698
Mof_H 	H 	0.8556	0.633	0.7805	0.212
Mof_H 	H 	0.8735	0.5997	0.8254	0.221
Mof_H 	H 	0.873	0.5778	0.771	0.207
Mof_O 	O 	0.91358	0.3878	0.02646	-0.512
Mof_O 	O 	0.9535	0.31769	0.01913	-0.733
Mof_O 	O 	0.95469	0.32471	0.92011	-0.515
Mof_S 	S 	0.03624	0.38903	0.87773	-0.084
Mof_C 	C 	0.9329	0.3547	0.0024	0.388
Mof_C 	C 	0.9319	0.363	0.9487	-0.087
Mof_H 	H 	0.8974	0.3664	0.9382	0.047
Mof_H 	H 	0.9487	0.3944	0.9415	0.069
Mof_C 	C 	0.9508	0.33475	0.87035	0.105
Mof_C 	C 	0.9864	0.36227	0.84684	-0.144
Mof_C 	C 	0.9103	0.3168	0.8438	-0.19
Mof_C 	C 	0.9049	0.3299	0.7947	-0.057
Mof_H 	H 	0.8773	0.318	0.7771	-0.006
Mof_C 	C 	0.9388	0.3598	0.7706	-0.278
Mof_C 	C 	0.9801	0.3741	0.7969	0.07
Mof_H 	H 	0.0049	0.3925	0.7807	-0.093
Mof_C 	C 	0.9311	0.3748	0.7171	0.407
Mof_C 	C 	0.9674	0.4111	0.7009	-0.48
Mof_H 	H 	0.0005	0.3994	0.7087	0.068
Mof_H 	H 	0.9615	0.4423	0.7178	0.156
Mof_H 	H 	0.9644	0.416	0.6654	0.149
Mof_C 	C 	0.937	0.3265	0.6852	-0.557
Mof_H 	H 	0.9706	0.3141	0.6883	0.081
Mof_H 	H 	0.9301	0.3341	0.6507	0.164
Mof_H 	H 	0.9139	0.3016	0.6969	0.127
Mof_C 	C 	0.8786	0.3927	0.7094	-0.7
Mof_H 	H 	0.8556	0.367	0.7195	0.212
Mof_H 	H 	0.8735	0.4003	0.6746	0.223
Mof_H 	H 	0.873	0.4222	0.729	0.208
Mof_O 	O 	0.41358	0.8878	0.52646	-0.516
Mof_O 	O 	0.4535	0.81769	0.51913	-0.76
Mof_O 	O 	0.45469	0.82471	0.42011	-0.54
Mof_S 	S 	0.53624	0.88903	0.37773	0.009
Mof_C 	C 	0.4329	0.8547	0.5024	0.472
Mof_C 	C 	0.4319	0.863	0.4487	-0.181
Mof_H 	H 	0.3974	0.8664	0.4382	0.06
Mof_H 	H 	0.4487	0.8944	0.4415	0.07
Mof_C 	C 	0.4508	0.83475	0.37035	0.101
Mof_C 	C 	0.4864	0.86227	0.34684	-0.195
Mof_C 	C 	0.4103	0.8168	0.3438	-0.209
Mof_C 	C 	0.4049	0.8299	0.2947	-0.065
Mof_H 	H 	0.3773	0.818	0.2771	-0.011
Mof_C 	C 	0.4388	0.8598	0.2706	-0.297
Mof_C 	C 	0.4801	0.8741	0.2969	-0.046
Mof_H 	H 	0.5049	0.8925	0.2807	-0.011
Mof_C 	C 	0.4311	0.8748	0.2171	0.506
Mof_C 	C 	0.4674	0.9111	0.2009	-0.795
Mof_H 	H 	0.5005	0.8994	0.2087	0.21
Mof_H 	H 	0.4615	0.9423	0.2178	0.243
Mof_H 	H 	0.4644	0.916	0.1654	0.23
Mof_C 	C 	0.437	0.8265	0.1852	-0.6
Mof_H 	H 	0.4706	0.8141	0.1883	0.055
Mof_H 	H 	0.4301	0.8341	0.1507	0.167
Mof_H 	H 	0.4139	0.8016	0.1969	0.127
Mof_C 	C 	0.3786	0.8927	0.2094	-0.795
Mof_H 	H 	0.3556	0.867	0.2195	0.24
Mof_H 	H 	0.3735	0.9003	0.1746	0.256
Mof_H 	H 	0.373	0.9222	0.229	0.244
Mof_O 	O 	0.08642	0.8878	0.47354	-0.52
Mof_O 	O 	0.0465	0.81769	0.48087	-0.739
Mof_O 	O 	0.04531	0.82471	0.57989	-0.524
Mof_S 	S 	0.96376	0.88903	0.62227	0.082
Mof_C 	C 	0.0671	0.8547	0.4976	0.459
Mof_C 	C 	0.0681	0.863	0.5513	-0.177
Mof_H 	H 	0.1026	0.8664	0.5618	0.06
Mof_H 	H 	0.0513	0.8944	0.5585	0.054
Mof_C 	C 	0.0492	0.83475	0.62965	0.107
Mof_C 	C 	0.0136	0.86227	0.65316	-0.221
Mof_C 	C 	0.0897	0.8168	0.6562	-0.198
Mof_C 	C 	0.0951	0.8299	0.7053	-0.049
Mof_H 	H 	0.1227	0.818	0.7229	-0.015
Mof_C 	C 	0.0612	0.8598	0.7294	-0.298
Mof_C 	C 	0.0199	0.8741	0.7031	-0.144
Mof_H 	H 	0.9951	0.8925	0.7193	0.07
Mof_C 	C 	0.0689	0.8748	0.7829	0.616
Mof_C 	C 	0.0326	0.9111	0.7991	-1.12
Mof_H 	H 	0.9995	0.8994	0.7913	0.359
Mof_H 	H 	0.0385	0.9423	0.7822	0.317
Mof_H 	H 	0.0356	0.916	0.8346	0.311
Mof_C 	C 	0.063	0.8265	0.8148	-0.687
Mof_H 	H 	0.0294	0.8141	0.8117	0.073
Mof_H 	H 	0.0699	0.8341	0.8493	0.187
Mof_H 	H 	0.0861	0.8016	0.8031	0.155
Mof_C 	C 	0.1214	0.8927	0.7906	-0.89
Mof_H 	H 	0.1444	0.867	0.7805	0.266
Mof_H 	H 	0.1265	0.9003	0.8254	0.281
Mof_H 	H 	0.127	0.9222	0.771	0.269
Mof_O 	O 	0.58642	0.3878	0.97354	-0.518
Mof_O 	O 	0.5465	0.31769	0.98087	-0.722
Mof_O 	O 	0.54531	0.32471	0.07989	-0.502
Mof_S 	S 	0.46376	0.38903	0.12227	-0.013
Mof_C 	C 	0.5671	0.3547	0.9976	0.554
Mof_C 	C 	0.5681	0.363	0.0513	-0.282
Mof_H 	H 	0.6026	0.3664	0.0618	0.08
Mof_H 	H 	0.5513	0.3944	0.0585	0.08
Mof_C 	C 	0.5492	0.33475	0.12965	0.091
Mof_C 	C 	0.5136	0.36227	0.15316	-0.186
Mof_C 	C 	0.5897	0.3168	0.1562	-0.2
Mof_C 	C 	0.5951	0.3299	0.2053	-0.073
Mof_H 	H 	0.6227	0.318	0.2229	-0.007
Mof_C 	C 	0.5612	0.3598	0.2294	-0.282
Mof_C 	C 	0.5199	0.3741	0.2031	-0.058
Mof_H 	H 	0.4951	0.3925	0.2193	-0.012
Mof_C 	C 	0.5689	0.3748	0.2829	0.471
Mof_C 	C 	0.5326	0.4111	0.2991	-0.74
Mof_H 	H 	0.4995	0.3994	0.2913	0.189
Mof_H 	H 	0.5385	0.4423	0.2822	0.21
Mof_H 	H 	0.5356	0.416	0.3346	0.206
Mof_C 	C 	0.563	0.3265	0.3148	-0.573
Mof_H 	H 	0.5294	0.3141	0.3117	0.047
Mof_H 	H 	0.5699	0.3341	0.3493	0.159
Mof_H 	H 	0.5861	0.3016	0.3031	0.119
Mof_C 	C 	0.6214	0.3927	0.2906	-0.754
Mof_H 	H 	0.6444	0.367	0.2805	0.227
Mof_H 	H 	0.6265	0.4003	0.3254	0.238
Mof_H 	H 	0.627	0.4222	0.271	0.223
Mof_O 	O 	0.58642	0.6122	0.52646	-0.521
Mof_O 	O 	0.5465	0.68231	0.51913	-0.76
Mof_O 	O 	0.54531	0.67529	0.42011	-0.54
Mof_S 	S 	0.46376	0.61097	0.37773	-0.011
Mof_C 	C 	0.5671	0.6453	0.5024	0.471
Mof_C 	C 	0.5681	0.637	0.4487	-0.18
Mof_H 	H 	0.6026	0.6336	0.4382	0.062
Mof_H 	H 	0.5513	0.6056	0.4415	0.065
Mof_C 	C 	0.5492	0.66525	0.37035	0.099
Mof_C 	C 	0.5136	0.63773	0.34684	-0.191
Mof_C 	C 	0.5897	0.6832	0.3438	-0.204
Mof_C 	C 	0.5951	0.6701	0.2947	-0.071
Mof_H 	H 	0.6227	0.682	0.2771	-0.008
Mof_C 	C 	0.5612	0.6402	0.2706	-0.283
Mof_C 	C 	0.5199	0.6259	0.2969	-0.055
Mof_H 	H 	0.4951	0.6075	0.2807	-0.013
Mof_C 	C 	0.5689	0.6252	0.2171	0.47
Mof_C 	C 	0.5326	0.5889	0.2009	-0.736
Mof_H 	H 	0.4995	0.6006	0.2087	0.186
Mof_H 	H 	0.5385	0.5577	0.2178	0.209
Mof_H 	H 	0.5356	0.584	0.1654	0.202
Mof_C 	C 	0.563	0.6735	0.1852	-0.572
Mof_H 	H 	0.5294	0.6859	0.1883	0.046
Mof_H 	H 	0.5699	0.6659	0.1507	0.158
Mof_H 	H 	0.5861	0.6984	0.1969	0.119
Mof_C 	C 	0.6214	0.6073	0.2094	-0.753
Mof_H 	H 	0.6444	0.633	0.2195	0.227
Mof_H 	H 	0.6265	0.5997	0.1746	0.238
Mof_H 	H 	0.627	0.5778	0.229	0.222
Mof_O 	O 	0.08642	0.1122	0.02646	-0.528
Mof_O 	O 	0.0465	0.18231	0.01913	-0.777
Mof_O 	O 	0.04531	0.17529	0.92011	-0.56
Mof_S 	S 	0.96376	0.11097	0.87773	0.045
Mof_C 	C 	0.0671	0.1453	0.0024	0.38
Mof_C 	C 	0.0681	0.137	0.9487	-0.078
Mof_H 	H 	0.1026	0.1336	0.9382	0.046
Mof_H 	H 	0.0513	0.1056	0.9415	0.032
Mof_C 	C 	0.0492	0.16525	0.87035	0.109
Mof_C 	C 	0.0136	0.13773	0.84684	-0.215
Mof_C 	C 	0.0897	0.1832	0.8438	-0.194
Mof_C 	C 	0.0951	0.1701	0.7947	-0.06
Mof_H 	H 	0.1227	0.182	0.7771	-0.008
Mof_C 	C 	0.0612	0.1402	0.7706	-0.271
Mof_C 	C 	0.0199	0.1259	0.7969	-0.157
Mof_H 	H 	0.9951	0.1075	0.7807	0.064
Mof_C 	C 	0.0689	0.1252	0.7171	0.54
Mof_C 	C 	0.0326	0.0889	0.7009	-0.987
Mof_H 	H 	0.9995	0.1006	0.7087	0.306
Mof_H 	H 	0.0385	0.0577	0.7178	0.246
Mof_H 	H 	0.0356	0.084	0.6654	0.25
Mof_C 	C 	0.063	0.1735	0.6852	-0.626
Mof_H 	H 	0.0294	0.1859	0.6883	0.054
Mof_H 	H 	0.0699	0.1659	0.6507	0.166
Mof_H 	H 	0.0861	0.1984	0.6969	0.138
Mof_C 	C 	0.1214	0.1073	0.7094	-0.804
Mof_H 	H 	0.1444	0.133	0.7195	0.241
Mof_H 	H 	0.1265	0.0997	0.6746	0.245
Mof_H 	H 	0.127	0.0778	0.729	0.225
Mof_O 	O 	0.97354	0.41358	0.1122	-0.522
Mof_O 	O 	0.98087	0.4535	0.18231	-0.722
Mof_O 	O 	0.07989	0.45469	0.17529	-0.502
Mof_S 	S 	0.12227	0.53624	0.11097	-0.032
Mof_C 	C 	0.9976	0.4329	0.1453	0.552
Mof_C 	C 	0.0513	0.4319	0.137	-0.279
Mof_H 	H 	0.0618	0.3974	0.1336	0.081
Mof_H 	H 	0.0585	0.4487	0.1056	0.076
Mof_C 	C 	0.12965	0.4508	0.16525	0.089
Mof_C 	C 	0.15316	0.4864	0.13773	-0.181
Mof_C 	C 	0.1562	0.4103	0.1832	-0.196
Mof_C 	C 	0.2053	0.4049	0.1701	-0.079
Mof_H 	H 	0.2229	0.3773	0.182	-0.004
Mof_C 	C 	0.2294	0.4388	0.1402	-0.269
Mof_C 	C 	0.2031	0.4801	0.1259	-0.067
Mof_H 	H 	0.2193	0.5049	0.1075	-0.013
Mof_C 	C 	0.2829	0.4311	0.1252	0.437
Mof_C 	C 	0.2991	0.4674	0.0889	-0.683
Mof_H 	H 	0.2913	0.5005	0.1006	0.167
Mof_H 	H 	0.2822	0.4615	0.0577	0.178
Mof_H 	H 	0.3346	0.4644	0.084	0.179
Mof_C 	C 	0.3148	0.437	0.1735	-0.546
Mof_H 	H 	0.3117	0.4706	0.1859	0.038
Mof_H 	H 	0.3493	0.4301	0.1659	0.15
Mof_H 	H 	0.3031	0.4139	0.1984	0.111
Mof_C 	C 	0.2906	0.3786	0.1073	-0.714
Mof_H 	H 	0.2805	0.3556	0.133	0.215
Mof_H 	H 	0.3254	0.3735	0.0997	0.22
Mof_H 	H 	0.271	0.373	0.0778	0.202
Mof_O 	O 	0.47354	0.91358	0.6122	-0.511
Mof_O 	O 	0.48087	0.9535	0.68231	-0.694
Mof_O 	O 	0.57989	0.95469	0.67529	-0.477
Mof_S 	S 	0.62227	0.03624	0.61097	-0.088
Mof_C 	C 	0.4976	0.9329	0.6453	0.47
Mof_C 	C 	0.5513	0.9319	0.637	-0.189
Mof_H 	H 	0.5618	0.8974	0.6336	0.065
Mof_H 	H 	0.5585	0.9487	0.6056	0.085
Mof_C 	C 	0.62965	0.9508	0.66525	0.098
Mof_C 	C 	0.65316	0.9864	0.63773	-0.138
Mof_C 	C 	0.6562	0.9103	0.6832	-0.185
Mof_C 	C 	0.7053	0.9049	0.6701	-0.059
Mof_H 	H 	0.7229	0.8773	0.682	-0.005
Mof_C 	C 	0.7294	0.9388	0.6402	-0.277
Mof_C 	C 	0.7031	0.9801	0.6259	0.069
Mof_H 	H 	0.7193	0.0049	0.6075	-0.093
Mof_C 	C 	0.7829	0.9311	0.6252	0.407
Mof_C 	C 	0.7991	0.9674	0.5889	-0.481
Mof_H 	H 	0.7913	0.0005	0.6006	0.069
Mof_H 	H 	0.7822	0.9615	0.5577	0.157
Mof_H 	H 	0.8346	0.9644	0.584	0.152
Mof_C 	C 	0.8148	0.937	0.6735	-0.559
Mof_H 	H 	0.8117	0.9706	0.6859	0.083
Mof_H 	H 	0.8493	0.9301	0.6659	0.166
Mof_H 	H 	0.8031	0.9139	0.6984	0.128
Mof_C 	C 	0.7906	0.8786	0.6073	-0.698
Mof_H 	H 	0.7805	0.8556	0.633	0.212
Mof_H 	H 	0.8254	0.8735	0.5997	0.221
Mof_H 	H 	0.771	0.873	0.5778	0.207
Mof_O 	O 	0.02646	0.91358	0.3878	-0.512
Mof_O 	O 	0.01913	0.9535	0.31769	-0.733
Mof_O 	O 	0.92011	0.95469	0.32471	-0.515
Mof_S 	S 	0.87773	0.03624	0.38903	-0.084
Mof_C 	C 	0.0024	0.9329	0.3547	0.388
Mof_C 	C 	0.9487	0.9319	0.363	-0.087
Mof_H 	H 	0.9382	0.8974	0.3664	0.047
Mof_H 	H 	0.9415	0.9487	0.3944	0.069
Mof_C 	C 	0.87035	0.9508	0.33475	0.105
Mof_C 	C 	0.84684	0.9864	0.36227	-0.144
Mof_C 	C 	0.8438	0.9103	0.3168	-0.19
Mof_C 	C 	0.7947	0.9049	0.3299	-0.057
Mof_H 	H 	0.7771	0.8773	0.318	-0.006
Mof_C 	C 	0.7706	0.9388	0.3598	-0.278
Mof_C 	C 	0.7969	0.9801	0.3741	0.07
Mof_H 	H 	0.7807	0.0049	0.3925	-0.093
Mof_C 	C 	0.7171	0.9311	0.3748	0.407
Mof_C 	C 	0.7009	0.9674	0.4111	-0.48
Mof_H 	H 	0.7087	0.0005	0.3994	0.068
Mof_H 	H 	0.7178	0.9615	0.4423	0.156
Mof_H 	H 	0.6654	0.9644	0.416	0.149
Mof_C 	C 	0.6852	0.937	0.3265	-0.557
Mof_H 	H 	0.6883	0.9706	0.3141	0.081
Mof_H 	H 	0.6507	0.9301	0.3341	0.164
Mof_H 	H 	0.6969	0.9139	0.3016	0.127
Mof_C 	C 	0.7094	0.8786	0.3927	-0.7
Mof_H 	H 	0.7195	0.8556	0.367	0.212
Mof_H 	H 	0.6746	0.8735	0.4003	0.223
Mof_H 	H 	0.729	0.873	0.4222	0.208
Mof_O 	O 	0.52646	0.41358	0.8878	-0.516
Mof_O 	O 	0.51913	0.4535	0.81769	-0.76
Mof_O 	O 	0.42011	0.45469	0.82471	-0.54
Mof_S 	S 	0.37773	0.53624	0.88903	0.009
Mof_C 	C 	0.5024	0.4329	0.8547	0.472
Mof_C 	C 	0.4487	0.4319	0.863	-0.181
Mof_H 	H 	0.4382	0.3974	0.8664	0.06
Mof_H 	H 	0.4415	0.4487	0.8944	0.07
Mof_C 	C 	0.37035	0.4508	0.83475	0.101
Mof_C 	C 	0.34684	0.4864	0.86227	-0.195
Mof_C 	C 	0.3438	0.4103	0.8168	-0.209
Mof_C 	C 	0.2947	0.4049	0.8299	-0.065
Mof_H 	H 	0.2771	0.3773	0.818	-0.011
Mof_C 	C 	0.2706	0.4388	0.8598	-0.297
Mof_C 	C 	0.2969	0.4801	0.8741	-0.046
Mof_H 	H 	0.2807	0.5049	0.8925	-0.011
Mof_C 	C 	0.2171	0.4311	0.8748	0.506
Mof_C 	C 	0.2009	0.4674	0.9111	-0.795
Mof_H 	H 	0.2087	0.5005	0.8994	0.21
Mof_H 	H 	0.2178	0.4615	0.9423	0.243
Mof_H 	H 	0.1654	0.4644	0.916	0.23
Mof_C 	C 	0.1852	0.437	0.8265	-0.6
Mof_H 	H 	0.1883	0.4706	0.8141	0.055
Mof_H 	H 	0.1507	0.4301	0.8341	0.167
Mof_H 	H 	0.1969	0.4139	0.8016	0.127
Mof_C 	C 	0.2094	0.3786	0.8927	-0.795
Mof_H 	H 	0.2195	0.3556	0.867	0.24
Mof_H 	H 	0.1746	0.3735	0.9003	0.256
Mof_H 	H 	0.229	0.373	0.9222	0.244
Mof_O 	O 	0.47354	0.08642	0.8878	-0.52
Mof_O 	O 	0.48087	0.0465	0.81769	-0.739
Mof_O 	O 	0.57989	0.04531	0.82471	-0.524
Mof_S 	S 	0.62227	0.96376	0.88903	0.082
Mof_C 	C 	0.4976	0.0671	0.8547	0.459
Mof_C 	C 	0.5513	0.0681	0.863	-0.177
Mof_H 	H 	0.5618	0.1026	0.8664	0.06
Mof_H 	H 	0.5585	0.0513	0.8944	0.054
Mof_C 	C 	0.62965	0.0492	0.83475	0.107
Mof_C 	C 	0.65316	0.0136	0.86227	-0.221
Mof_C 	C 	0.6562	0.0897	0.8168	-0.198
Mof_C 	C 	0.7053	0.0951	0.8299	-0.049
Mof_H 	H 	0.7229	0.1227	0.818	-0.015
Mof_C 	C 	0.7294	0.0612	0.8598	-0.298
Mof_C 	C 	0.7031	0.0199	0.8741	-0.144
Mof_H 	H 	0.7193	0.9951	0.8925	0.07
Mof_C 	C 	0.7829	0.0689	0.8748	0.616
Mof_C 	C 	0.7991	0.0326	0.9111	-1.12
Mof_H 	H 	0.7913	0.9995	0.8994	0.359
Mof_H 	H 	0.7822	0.0385	0.9423	0.317
Mof_H 	H 	0.8346	0.0356	0.916	0.311
Mof_C 	C 	0.8148	0.063	0.8265	-0.687
Mof_H 	H 	0.8117	0.0294	0.8141	0.073
Mof_H 	H 	0.8493	0.0699	0.8341	0.187
Mof_H 	H 	0.8031	0.0861	0.8016	0.155
Mof_C 	C 	0.7906	0.1214	0.8927	-0.89
Mof_H 	H 	0.7805	0.1444	0.867	0.266
Mof_H 	H 	0.8254	0.1265	0.9003	0.281
Mof_H 	H 	0.771	0.127	0.9222	0.269
Mof_O 	O 	0.97354	0.58642	0.3878	-0.518
Mof_O 	O 	0.98087	0.5465	0.31769	-0.722
Mof_O 	O 	0.07989	0.54531	0.32471	-0.502
Mof_S 	S 	0.12227	0.46376	0.38903	-0.013
Mof_C 	C 	0.9976	0.5671	0.3547	0.554
Mof_C 	C 	0.0513	0.5681	0.363	-0.282
Mof_H 	H 	0.0618	0.6026	0.3664	0.08
Mof_H 	H 	0.0585	0.5513	0.3944	0.08
Mof_C 	C 	0.12965	0.5492	0.33475	0.091
Mof_C 	C 	0.15316	0.5136	0.36227	-0.186
Mof_C 	C 	0.1562	0.5897	0.3168	-0.2
Mof_C 	C 	0.2053	0.5951	0.3299	-0.073
Mof_H 	H 	0.2229	0.6227	0.318	-0.007
Mof_C 	C 	0.2294	0.5612	0.3598	-0.282
Mof_C 	C 	0.2031	0.5199	0.3741	-0.058
Mof_H 	H 	0.2193	0.4951	0.3925	-0.012
Mof_C 	C 	0.2829	0.5689	0.3748	0.471
Mof_C 	C 	0.2991	0.5326	0.4111	-0.74
Mof_H 	H 	0.2913	0.4995	0.3994	0.189
Mof_H 	H 	0.2822	0.5385	0.4423	0.21
Mof_H 	H 	0.3346	0.5356	0.416	0.206
Mof_C 	C 	0.3148	0.563	0.3265	-0.573
Mof_H 	H 	0.3117	0.5294	0.3141	0.047
Mof_H 	H 	0.3493	0.5699	0.3341	0.159
Mof_H 	H 	0.3031	0.5861	0.3016	0.119
Mof_C 	C 	0.2906	0.6214	0.3927	-0.754
Mof_H 	H 	0.2805	0.6444	0.367	0.227
Mof_H 	H 	0.3254	0.6265	0.4003	0.238
Mof_H 	H 	0.271	0.627	0.4222	0.223
Mof_O 	O 	0.52646	0.58642	0.6122	-0.521
Mof_O 	O 	0.51913	0.5465	0.68231	-0.76
Mof_O 	O 	0.42011	0.54531	0.67529	-0.54
Mof_S 	S 	0.37773	0.46376	0.61097	-0.011
Mof_C 	C 	0.5024	0.5671	0.6453	0.471
Mof_C 	C 	0.4487	0.5681	0.637	-0.18
Mof_H 	H 	0.4382	0.6026	0.6336	0.062
Mof_H 	H 	0.4415	0.5513	0.6056	0.065
Mof_C 	C 	0.37035	0.5492	0.66525	0.099
Mof_C 	C 	0.34684	0.5136	0.63773	-0.191
Mof_C 	C 	0.3438	0.5897	0.6832	-0.204
Mof_C 	C 	0.2947	0.5951	0.6701	-0.071
Mof_H 	H 	0.2771	0.6227	0.682	-0.008
Mof_C 	C 	0.2706	0.5612	0.6402	-0.283
Mof_C 	C 	0.2969	0.5199	0.6259	-0.055
Mof_H 	H 	0.2807	0.4951	0.6075	-0.013
Mof_C 	C 	0.2171	0.5689	0.6252	0.47
Mof_C 	C 	0.2009	0.5326	0.5889	-0.736
Mof_H 	H 	0.2087	0.4995	0.6006	0.186
Mof_H 	H 	0.2178	0.5385	0.5577	0.209
Mof_H 	H 	0.1654	0.5356	0.584	0.202
Mof_C 	C 	0.1852	0.563	0.6735	-0.572
Mof_H 	H 	0.1883	0.5294	0.6859	0.046
Mof_H 	H 	0.1507	0.5699	0.6659	0.158
Mof_H 	H 	0.1969	0.5861	0.6984	0.119
Mof_C 	C 	0.2094	0.6214	0.6073	-0.753
Mof_H 	H 	0.2195	0.6444	0.633	0.227
Mof_H 	H 	0.1746	0.6265	0.5997	0.238
Mof_H 	H 	0.229	0.627	0.5778	0.222
Mof_O 	O 	0.02646	0.08642	0.1122	-0.528
Mof_O 	O 	0.01913	0.0465	0.18231	-0.777
Mof_O 	O 	0.92011	0.04531	0.17529	-0.56
Mof_S 	S 	0.87773	0.96376	0.11097	0.045
Mof_C 	C 	0.0024	0.0671	0.1453	0.38
Mof_C 	C 	0.9487	0.0681	0.137	-0.078
Mof_H 	H 	0.9382	0.1026	0.1336	0.046
Mof_H 	H 	0.9415	0.0513	0.1056	0.032
Mof_C 	C 	0.87035	0.0492	0.16525	0.109
Mof_C 	C 	0.84684	0.0136	0.13773	-0.215
Mof_C 	C 	0.8438	0.0897	0.1832	-0.194
Mof_C 	C 	0.7947	0.0951	0.1701	-0.06
Mof_H 	H 	0.7771	0.1227	0.182	-0.008
Mof_C 	C 	0.7706	0.0612	0.1402	-0.271
Mof_C 	C 	0.7969	0.0199	0.1259	-0.157
Mof_H 	H 	0.7807	0.9951	0.1075	0.064
Mof_C 	C 	0.7171	0.0689	0.1252	0.54
Mof_C 	C 	0.7009	0.0326	0.0889	-0.987
Mof_H 	H 	0.7087	0.9995	0.1006	0.306
Mof_H 	H 	0.7178	0.0385	0.0577	0.246
Mof_H 	H 	0.6654	0.0356	0.084	0.25
Mof_C 	C 	0.6852	0.063	0.1735	-0.626
Mof_H 	H 	0.6883	0.0294	0.1859	0.054
Mof_H 	H 	0.6507	0.0699	0.1659	0.166
Mof_H 	H 	0.6969	0.0861	0.1984	0.138
Mof_C 	C 	0.7094	0.1214	0.1073	-0.804
Mof_H 	H 	0.7195	0.1444	0.133	0.241
Mof_H 	H 	0.6746	0.1265	0.0997	0.245
Mof_H 	H 	0.729	0.127	0.0778	0.225
Mof_O 	O 	0.22354	0.3622	0.66358	-0.521
Mof_O 	O 	0.23087	0.43231	0.7035	-0.761
Mof_O 	O 	0.32989	0.42529	0.70469	-0.539
Mof_S 	S 	0.37227	0.36097	0.78624	-0.013
Mof_C 	C 	0.2476	0.3953	0.6829	0.471
Mof_C 	C 	0.3013	0.387	0.6819	-0.18
Mof_H 	H 	0.3118	0.3836	0.6474	0.062
Mof_H 	H 	0.3085	0.3556	0.6987	0.065
Mof_C 	C 	0.37965	0.41525	0.7008	0.099
Mof_C 	C 	0.40316	0.38773	0.7364	-0.19
Mof_C 	C 	0.4062	0.4332	0.6603	-0.204
Mof_C 	C 	0.4553	0.4201	0.6549	-0.07
Mof_H 	H 	0.4729	0.432	0.6273	-0.008
Mof_C 	C 	0.4794	0.3902	0.6888	-0.284
Mof_C 	C 	0.4531	0.3759	0.7301	-0.055
Mof_H 	H 	0.4693	0.3575	0.7549	-0.013
Mof_C 	C 	0.5329	0.3752	0.6811	0.474
Mof_C 	C 	0.5491	0.3389	0.7174	-0.742
Mof_H 	H 	0.5413	0.3506	0.7505	0.189
Mof_H 	H 	0.5322	0.3077	0.7115	0.211
Mof_H 	H 	0.5846	0.334	0.7144	0.206
Mof_C 	C 	0.5648	0.4235	0.687	-0.576
Mof_H 	H 	0.5617	0.4359	0.7206	0.048
Mof_H 	H 	0.5993	0.4159	0.6801	0.16
Mof_H 	H 	0.5531	0.4484	0.6639	0.12
Mof_C 	C 	0.5406	0.3573	0.6286	-0.756
Mof_H 	H 	0.5305	0.383	0.6056	0.228
Mof_H 	H 	0.5754	0.3497	0.6235	0.239
Mof_H 	H 	0.521	0.3278	0.623	0.223
Mof_O 	O 	0.72354	0.8622	0.16358	-0.517
Mof_O 	O 	0.73087	0.93231	0.2035	-0.696
Mof_O 	O 	0.82989	0.92529	0.20469	-0.484
Mof_S 	S 	0.87227	0.86097	0.28624	-0.014
Mof_C 	C 	0.7476	0.8953	0.1829	0.459
Mof_C 	C 	0.8013	0.887	0.1819	-0.18
Mof_H 	H 	0.8118	0.8836	0.1474	0.06
Mof_H 	H 	0.8085	0.8556	0.1987	0.065
Mof_C 	C 	0.87965	0.91525	0.2008	0.076
Mof_C 	C 	0.90316	0.88773	0.2364	-0.145
Mof_C 	C 	0.9062	0.9332	0.1603	-0.158
Mof_C 	C 	0.9553	0.9201	0.1549	-0.139
Mof_H 	H 	0.9729	0.932	0.1273	0.051
Mof_C 	C 	0.9794	0.8902	0.1888	-0.12
Mof_C 	C 	0.9531	0.8759	0.2301	-0.128
Mof_H 	H 	0.9693	0.8575	0.2549	0.041
Mof_C 	C 	0.0329	0.8752	0.1811	0.277
Mof_C 	C 	0.0491	0.8389	0.2174	-0.546
Mof_H 	H 	0.0413	0.8506	0.2505	0.116
Mof_H 	H 	0.0322	0.8077	0.2115	0.133
Mof_H 	H 	0.0846	0.834	0.2144	0.151
Mof_C 	C 	0.0648	0.9235	0.187	-0.462
Mof_H 	H 	0.0617	0.9359	0.2206	0.02
Mof_H 	H 	0.0993	0.9159	0.1801	0.137
Mof_H 	H 	0.0531	0.9484	0.1639	0.091
Mof_C 	C 	0.0406	0.8573	0.1286	-0.569
Mof_H 	H 	0.0305	0.883	0.1056	0.15
Mof_H 	H 	0.0754	0.8497	0.1235	0.183
Mof_H 	H 	0.021	0.8278	0.123	0.141
Mof_O 	O 	0.27646	0.6378	0.16358	-0.523
Mof_O 	O 	0.26913	0.56769	0.2035	-0.762
Mof_O 	O 	0.17011	0.57471	0.20469	-0.545
Mof_S 	S 	0.12773	0.63903	0.28624	-0.011
Mof_C 	C 	0.2524	0.6047	0.1829	0.47
Mof_C 	C 	0.1987	0.613	0.1819	-0.178
Mof_H 	H 	0.1882	0.6164	0.1474	0.059
Mof_H 	H 	0.1915	0.6444	0.1987	0.064
Mof_C 	C 	0.12035	0.58475	0.2008	0.129
Mof_C 	C 	0.09684	0.61227	0.2364	-0.222
Mof_C 	C 	0.0938	0.5668	0.1603	-0.232
Mof_C 	C 	0.0447	0.5799	0.1549	0.015
Mof_H 	H 	0.0271	0.568	0.1273	-0.066
Mof_C 	C 	0.0206	0.6098	0.1888	-0.443
Mof_C 	C 	0.0469	0.6241	0.2301	0.032
Mof_H 	H 	0.0307	0.6425	0.2549	-0.067
Mof_C 	C 	0.9671	0.6248	0.1811	0.691
Mof_C 	C 	0.9509	0.6611	0.2174	-0.963
Mof_H 	H 	0.9587	0.6494	0.2505	0.274
Mof_H 	H 	0.9678	0.6923	0.2115	0.294
Mof_H 	H 	0.9154	0.666	0.2144	0.269
Mof_C 	C 	0.9352	0.5765	0.187	-0.745
Mof_H 	H 	0.9383	0.5641	0.2206	0.119
Mof_H 	H 	0.9007	0.5841	0.1801	0.208
Mof_H 	H 	0.9469	0.5516	0.1639	0.188
Mof_C 	C 	0.9594	0.6427	0.1286	-0.946
Mof_H 	H 	0.9695	0.617	0.1056	0.296
Mof_H 	H 	0.9246	0.6503	0.1235	0.291
Mof_H 	H 	0.979	0.6722	0.123	0.294
Mof_O 	O 	0.77646	0.1378	0.66358	-0.52
Mof_O 	O 	0.76913	0.06769	0.7035	-0.736
Mof_O 	O 	0.67011	0.07471	0.70469	-0.512
Mof_S 	S 	0.62773	0.13903	0.78624	-0.016
Mof_C 	C 	0.7524	0.1047	0.6829	0.467
Mof_C 	C 	0.6987	0.113	0.6819	-0.185
Mof_H 	H 	0.6882	0.1164	0.6474	0.064
Mof_H 	H 	0.6915	0.1444	0.6987	0.068
Mof_C 	C 	0.62035	0.08475	0.7008	0.09
Mof_C 	C 	0.59684	0.11227	0.7364	-0.175
Mof_C 	C 	0.5938	0.0668	0.6603	-0.186
Mof_C 	C 	0.5447	0.0799	0.6549	-0.071
Mof_H 	H 	0.5271	0.068	0.6273	-0.013
Mof_C 	C 	0.5206	0.1098	0.6888	-0.27
Mof_C 	C 	0.5469	0.1241	0.7301	-0.052
Mof_H 	H 	0.5307	0.1425	0.7549	-0.01
Mof_C 	C 	0.4671	0.1248	0.6811	0.464
Mof_C 	C 	0.4509	0.1611	0.7174	-0.736
Mof_H 	H 	0.4587	0.1494	0.7505	0.189
Mof_H 	H 	0.4678	0.1923	0.7115	0.21
Mof_H 	H 	0.4154	0.166	0.7144	0.204
Mof_C 	C 	0.4352	0.0765	0.687	-0.558
Mof_H 	H 	0.4383	0.0641	0.7206	0.045
Mof_H 	H 	0.4007	0.0841	0.6801	0.148
Mof_H 	H 	0.4469	0.0516	0.6639	0.105
Mof_C 	C 	0.4594	0.1427	0.6286	-0.746
Mof_H 	H 	0.4695	0.117	0.6056	0.221
Mof_H 	H 	0.4246	0.1503	0.6235	0.235
Mof_H 	H 	0.479	0.1722	0.623	0.22
Mof_O 	O 	0.72354	0.1378	0.33642	-0.521
Mof_O 	O 	0.73087	0.06769	0.2965	-0.736
Mof_O 	O 	0.82989	0.07471	0.29531	-0.508
Mof_S 	S 	0.87227	0.13903	0.21376	-0.01
Mof_C 	C 	0.7476	0.1047	0.3171	0.467
Mof_C 	C 	0.8013	0.113	0.3181	-0.186
Mof_H 	H 	0.8118	0.1164	0.3526	0.064
Mof_H 	H 	0.8085	0.1444	0.3013	0.069
Mof_C 	C 	0.87965	0.08475	0.2992	0.06
Mof_C 	C 	0.90316	0.11227	0.2636	-0.145
Mof_C 	C 	0.9062	0.0668	0.3397	-0.157
Mof_C 	C 	0.9553	0.0799	0.3451	-0.159
Mof_H 	H 	0.9729	0.068	0.3727	0.042
Mof_C 	C 	0.9794	0.1098	0.3112	-0.111
Mof_C 	C 	0.9531	0.1241	0.2699	-0.139
Mof_H 	H 	0.9693	0.1425	0.2451	0.045
Mof_C 	C 	0.0329	0.1248	0.3189	0.244
Mof_C 	C 	0.0491	0.1611	0.2826	-0.514
Mof_H 	H 	0.0413	0.1494	0.2495	0.106
Mof_H 	H 	0.0322	0.1923	0.2885	0.127
Mof_H 	H 	0.0846	0.166	0.2856	0.141
Mof_C 	C 	0.0648	0.0765	0.313	-0.387
Mof_H 	H 	0.0617	0.0641	0.2794	-0.025
Mof_H 	H 	0.0993	0.0841	0.3199	0.1
Mof_H 	H 	0.0531	0.0516	0.3361	0.037
Mof_C 	C 	0.0406	0.1427	0.3714	-0.544
Mof_H 	H 	0.0305	0.117	0.3944	0.142
Mof_H 	H 	0.0754	0.1503	0.3765	0.177
Mof_H 	H 	0.021	0.1722	0.377	0.14
Mof_O 	O 	0.22354	0.6378	0.83642	-0.517
Mof_O 	O 	0.23087	0.56769	0.7965	-0.76
Mof_O 	O 	0.32989	0.57471	0.79531	-0.539
Mof_S 	S 	0.37227	0.63903	0.71376	-0.01
Mof_C 	C 	0.2476	0.6047	0.8171	0.472
Mof_C 	C 	0.3013	0.613	0.8181	-0.181
Mof_H 	H 	0.3118	0.6164	0.8526	0.065
Mof_H 	H 	0.3085	0.6444	0.8013	0.066
Mof_C 	C 	0.37965	0.58475	0.7992	0.101
Mof_C 	C 	0.40316	0.61227	0.7636	-0.192
Mof_C 	C 	0.4062	0.5668	0.8397	-0.207
Mof_C 	C 	0.4553	0.5799	0.8451	-0.066
Mof_H 	H 	0.4729	0.568	0.8727	-0.005
Mof_C 	C 	0.4794	0.6098	0.8112	-0.287
Mof_C 	C 	0.4531	0.6241	0.7699	-0.052
Mof_H 	H 	0.4693	0.6425	0.7451	-0.014
Mof_C 	C 	0.5329	0.6248	0.8189	0.482
Mof_C 	C 	0.5491	0.6611	0.7826	-0.75
Mof_H 	H 	0.5413	0.6494	0.7495	0.192
Mof_H 	H 	0.5322	0.6923	0.7885	0.214
Mof_H 	H 	0.5846	0.666	0.7856	0.208
Mof_C 	C 	0.5648	0.5765	0.813	-0.583
Mof_H 	H 	0.5617	0.5641	0.7794	0.05
Mof_H 	H 	0.5993	0.5841	0.8199	0.162
Mof_H 	H 	0.5531	0.5516	0.8361	0.123
Mof_C 	C 	0.5406	0.6427	0.8714	-0.772
Mof_H 	H 	0.5305	0.617	0.8944	0.239
Mof_H 	H 	0.5754	0.6503	0.8765	0.244
Mof_H 	H 	0.521	0.6722	0.877	0.233
Mof_O 	O 	0.77646	0.8622	0.83642	-0.51
Mof_O 	O 	0.76913	0.93231	0.7965	-0.694
Mof_O 	O 	0.67011	0.92529	0.79531	-0.488
Mof_S 	S 	0.62773	0.86097	0.71376	-0.013
Mof_C 	C 	0.7524	0.8953	0.8171	0.462
Mof_C 	C 	0.6987	0.887	0.8181	-0.181
Mof_H 	H 	0.6882	0.8836	0.8526	0.066
Mof_H 	H 	0.6915	0.8556	0.8013	0.067
Mof_C 	C 	0.62035	0.91525	0.7992	0.113
Mof_C 	C 	0.59684	0.88773	0.7636	-0.18
Mof_C 	C 	0.5938	0.9332	0.8397	-0.195
Mof_C 	C 	0.5447	0.9201	0.8451	-0.04
Mof_H 	H 	0.5271	0.932	0.8727	0.001
Mof_C 	C 	0.5206	0.8902	0.8112	-0.291
Mof_C 	C 	0.5469	0.8759	0.7699	-0.032
Mof_H 	H 	0.5307	0.8575	0.7451	-0.017
Mof_C 	C 	0.4671	0.8752	0.8189	0.524
Mof_C 	C 	0.4509	0.8389	0.7826	-0.797
Mof_H 	H 	0.4587	0.8506	0.7495	0.209
Mof_H 	H 	0.4678	0.8077	0.7885	0.227
Mof_H 	H 	0.4154	0.834	0.7856	0.223
Mof_C 	C 	0.4352	0.9235	0.813	-0.657
Mof_H 	H 	0.4383	0.9359	0.7794	0.099
Mof_H 	H 	0.4007	0.9159	0.8199	0.192
Mof_H 	H 	0.4469	0.9484	0.8361	0.17
Mof_C 	C 	0.4594	0.8573	0.8714	-0.814
Mof_H 	H 	0.4695	0.883	0.8944	0.255
Mof_H 	H 	0.4246	0.8497	0.8765	0.257
Mof_H 	H 	0.479	0.8278	0.877	0.245
Mof_O 	O 	0.27646	0.3622	0.33642	-0.52
Mof_O 	O 	0.26913	0.43231	0.2965	-0.762
Mof_O 	O 	0.17011	0.42529	0.29531	-0.545
Mof_S 	S 	0.12773	0.36097	0.21376	-0.007
Mof_C 	C 	0.2524	0.3953	0.3171	0.471
Mof_C 	C 	0.1987	0.387	0.3181	-0.179
Mof_H 	H 	0.1882	0.3836	0.3526	0.062
Mof_H 	H 	0.1915	0.3556	0.3013	0.065
Mof_C 	C 	0.12035	0.41525	0.2992	0.132
Mof_C 	C 	0.09684	0.38773	0.2636	-0.224
Mof_C 	C 	0.0938	0.4332	0.3397	-0.235
Mof_C 	C 	0.0447	0.4201	0.3451	0.019
Mof_H 	H 	0.0271	0.432	0.3727	-0.064
Mof_C 	C 	0.0206	0.3902	0.3112	-0.447
Mof_C 	C 	0.0469	0.3759	0.2699	0.035
Mof_H 	H 	0.0307	0.3575	0.2451	-0.067
Mof_C 	C 	0.9671	0.3752	0.3189	0.703
Mof_C 	C 	0.9509	0.3389	0.2826	-0.975
Mof_H 	H 	0.9587	0.3506	0.2495	0.278
Mof_H 	H 	0.9678	0.3077	0.2885	0.299
Mof_H 	H 	0.9154	0.334	0.2856	0.274
Mof_C 	C 	0.9352	0.4235	0.313	-0.754
Mof_H 	H 	0.9383	0.4359	0.2794	0.121
Mof_H 	H 	0.9007	0.4159	0.3199	0.21
Mof_H 	H 	0.9469	0.4484	0.3361	0.192
Mof_C 	C 	0.9594	0.3573	0.3714	-0.967
Mof_H 	H 	0.9695	0.383	0.3944	0.31
Mof_H 	H 	0.9246	0.3497	0.3765	0.3
Mof_H 	H 	0.979	0.3278	0.377	0.307
Mof_O 	O 	0.3622	0.66358	0.22354	-0.521
Mof_O 	O 	0.43231	0.7035	0.23087	-0.761
Mof_O 	O 	0.42529	0.70469	0.32989	-0.539
Mof_S 	S 	0.36097	0.78624	0.37227	-0.013
Mof_C 	C 	0.3953	0.6829	0.2476	0.471
Mof_C 	C 	0.387	0.6819	0.3013	-0.18
Mof_H 	H 	0.3836	0.6474	0.3118	0.062
Mof_H 	H 	0.3556	0.6987	0.3085	0.065
Mof_C 	C 	0.41525	0.7008	0.37965	0.099
Mof_C 	C 	0.38773	0.7364	0.40316	-0.19
Mof_C 	C 	0.4332	0.6603	0.4062	-0.204
Mof_C 	C 	0.4201	0.6549	0.4553	-0.07
Mof_H 	H 	0.432	0.6273	0.4729	-0.008
Mof_C 	C 	0.3902	0.6888	0.4794	-0.284
Mof_C 	C 	0.3759	0.7301	0.4531	-0.055
Mof_H 	H 	0.3575	0.7549	0.4693	-0.013
Mof_C 	C 	0.3752	0.6811	0.5329	0.474
Mof_C 	C 	0.3389	0.7174	0.5491	-0.742
Mof_H 	H 	0.3506	0.7505	0.5413	0.189
Mof_H 	H 	0.3077	0.7115	0.5322	0.211
Mof_H 	H 	0.334	0.7144	0.5846	0.206
Mof_C 	C 	0.4235	0.687	0.5648	-0.576
Mof_H 	H 	0.4359	0.7206	0.5617	0.048
Mof_H 	H 	0.4159	0.6801	0.5993	0.16
Mof_H 	H 	0.4484	0.6639	0.5531	0.12
Mof_C 	C 	0.3573	0.6286	0.5406	-0.756
Mof_H 	H 	0.383	0.6056	0.5305	0.228
Mof_H 	H 	0.3497	0.6235	0.5754	0.239
Mof_H 	H 	0.3278	0.623	0.521	0.223
Mof_O 	O 	0.8622	0.16358	0.72354	-0.517
Mof_O 	O 	0.93231	0.2035	0.73087	-0.696
Mof_O 	O 	0.92529	0.20469	0.82989	-0.484
Mof_S 	S 	0.86097	0.28624	0.87227	-0.014
Mof_C 	C 	0.8953	0.1829	0.7476	0.459
Mof_C 	C 	0.887	0.1819	0.8013	-0.18
Mof_H 	H 	0.8836	0.1474	0.8118	0.06
Mof_H 	H 	0.8556	0.1987	0.8085	0.065
Mof_C 	C 	0.91525	0.2008	0.87965	0.076
Mof_C 	C 	0.88773	0.2364	0.90316	-0.145
Mof_C 	C 	0.9332	0.1603	0.9062	-0.158
Mof_C 	C 	0.9201	0.1549	0.9553	-0.139
Mof_H 	H 	0.932	0.1273	0.9729	0.051
Mof_C 	C 	0.8902	0.1888	0.9794	-0.12
Mof_C 	C 	0.8759	0.2301	0.9531	-0.128
Mof_H 	H 	0.8575	0.2549	0.9693	0.041
Mof_C 	C 	0.8752	0.1811	0.0329	0.277
Mof_C 	C 	0.8389	0.2174	0.0491	-0.546
Mof_H 	H 	0.8506	0.2505	0.0413	0.116
Mof_H 	H 	0.8077	0.2115	0.0322	0.133
Mof_H 	H 	0.834	0.2144	0.0846	0.151
Mof_C 	C 	0.9235	0.187	0.0648	-0.462
Mof_H 	H 	0.9359	0.2206	0.0617	0.02
Mof_H 	H 	0.9159	0.1801	0.0993	0.137
Mof_H 	H 	0.9484	0.1639	0.0531	0.091
Mof_C 	C 	0.8573	0.1286	0.0406	-0.569
Mof_H 	H 	0.883	0.1056	0.0305	0.15
Mof_H 	H 	0.8497	0.1235	0.0754	0.183
Mof_H 	H 	0.8278	0.123	0.021	0.141
Mof_O 	O 	0.6378	0.16358	0.27646	-0.523
Mof_O 	O 	0.56769	0.2035	0.26913	-0.762
Mof_O 	O 	0.57471	0.20469	0.17011	-0.545
Mof_S 	S 	0.63903	0.28624	0.12773	-0.011
Mof_C 	C 	0.6047	0.1829	0.2524	0.47
Mof_C 	C 	0.613	0.1819	0.1987	-0.178
Mof_H 	H 	0.6164	0.1474	0.1882	0.059
Mof_H 	H 	0.6444	0.1987	0.1915	0.064
Mof_C 	C 	0.58475	0.2008	0.12035	0.129
Mof_C 	C 	0.61227	0.2364	0.09684	-0.222
Mof_C 	C 	0.5668	0.1603	0.0938	-0.232
Mof_C 	C 	0.5799	0.1549	0.0447	0.015
Mof_H 	H 	0.568	0.1273	0.0271	-0.066
Mof_C 	C 	0.6098	0.1888	0.0206	-0.443
Mof_C 	C 	0.6241	0.2301	0.0469	0.032
Mof_H 	H 	0.6425	0.2549	0.0307	-0.067
Mof_C 	C 	0.6248	0.1811	0.9671	0.691
Mof_C 	C 	0.6611	0.2174	0.9509	-0.963
Mof_H 	H 	0.6494	0.2505	0.9587	0.274
Mof_H 	H 	0.6923	0.2115	0.9678	0.294
Mof_H 	H 	0.666	0.2144	0.9154	0.269
Mof_C 	C 	0.5765	0.187	0.9352	-0.745
Mof_H 	H 	0.5641	0.2206	0.9383	0.119
Mof_H 	H 	0.5841	0.1801	0.9007	0.208
Mof_H 	H 	0.5516	0.1639	0.9469	0.188
Mof_C 	C 	0.6427	0.1286	0.9594	-0.946
Mof_H 	H 	0.617	0.1056	0.9695	0.296
Mof_H 	H 	0.6503	0.1235	0.9246	0.291
Mof_H 	H 	0.6722	0.123	0.979	0.294
Mof_O 	O 	0.1378	0.66358	0.77646	-0.52
Mof_O 	O 	0.06769	0.7035	0.76913	-0.736
Mof_O 	O 	0.07471	0.70469	0.67011	-0.512
Mof_S 	S 	0.13903	0.78624	0.62773	-0.016
Mof_C 	C 	0.1047	0.6829	0.7524	0.467
Mof_C 	C 	0.113	0.6819	0.6987	-0.185
Mof_H 	H 	0.1164	0.6474	0.6882	0.064
Mof_H 	H 	0.1444	0.6987	0.6915	0.068
Mof_C 	C 	0.08475	0.7008	0.62035	0.09
Mof_C 	C 	0.11227	0.7364	0.59684	-0.175
Mof_C 	C 	0.0668	0.6603	0.5938	-0.186
Mof_C 	C 	0.0799	0.6549	0.5447	-0.071
Mof_H 	H 	0.068	0.6273	0.5271	-0.013
Mof_C 	C 	0.1098	0.6888	0.5206	-0.27
Mof_C 	C 	0.1241	0.7301	0.5469	-0.052
Mof_H 	H 	0.1425	0.7549	0.5307	-0.01
Mof_C 	C 	0.1248	0.6811	0.4671	0.464
Mof_C 	C 	0.1611	0.7174	0.4509	-0.736
Mof_H 	H 	0.1494	0.7505	0.4587	0.189
Mof_H 	H 	0.1923	0.7115	0.4678	0.21
Mof_H 	H 	0.166	0.7144	0.4154	0.204
Mof_C 	C 	0.0765	0.687	0.4352	-0.558
Mof_H 	H 	0.0641	0.7206	0.4383	0.045
Mof_H 	H 	0.0841	0.6801	0.4007	0.148
Mof_H 	H 	0.0516	0.6639	0.4469	0.105
Mof_C 	C 	0.1427	0.6286	0.4594	-0.746
Mof_H 	H 	0.117	0.6056	0.4695	0.221
Mof_H 	H 	0.1503	0.6235	0.4246	0.235
Mof_H 	H 	0.1722	0.623	0.479	0.22
Mof_O 	O 	0.1378	0.33642	0.72354	-0.521
Mof_O 	O 	0.06769	0.2965	0.73087	-0.736
Mof_O 	O 	0.07471	0.29531	0.82989	-0.508
Mof_S 	S 	0.13903	0.21376	0.87227	-0.01
Mof_C 	C 	0.1047	0.3171	0.7476	0.467
Mof_C 	C 	0.113	0.3181	0.8013	-0.186
Mof_H 	H 	0.1164	0.3526	0.8118	0.064
Mof_H 	H 	0.1444	0.3013	0.8085	0.069
Mof_C 	C 	0.08475	0.2992	0.87965	0.06
Mof_C 	C 	0.11227	0.2636	0.90316	-0.145
Mof_C 	C 	0.0668	0.3397	0.9062	-0.157
Mof_C 	C 	0.0799	0.3451	0.9553	-0.159
Mof_H 	H 	0.068	0.3727	0.9729	0.042
Mof_C 	C 	0.1098	0.3112	0.9794	-0.111
Mof_C 	C 	0.1241	0.2699	0.9531	-0.139
Mof_H 	H 	0.1425	0.2451	0.9693	0.045
Mof_C 	C 	0.1248	0.3189	0.0329	0.244
Mof_C 	C 	0.1611	0.2826	0.0491	-0.514
Mof_H 	H 	0.1494	0.2495	0.0413	0.106
Mof_H 	H 	0.1923	0.2885	0.0322	0.127
Mof_H 	H 	0.166	0.2856	0.0846	0.141
Mof_C 	C 	0.0765	0.313	0.0648	-0.387
Mof_H 	H 	0.0641	0.2794	0.0617	-0.025
Mof_H 	H 	0.0841	0.3199	0.0993	0.1
Mof_H 	H 	0.0516	0.3361	0.0531	0.037
Mof_C 	C 	0.1427	0.3714	0.0406	-0.544
Mof_H 	H 	0.117	0.3944	0.0305	0.142
Mof_H 	H 	0.1503	0.3765	0.0754	0.177
Mof_H 	H 	0.1722	0.377	0.021	0.14
Mof_O 	O 	0.6378	0.83642	0.22354	-0.517
Mof_O 	O 	0.56769	0.7965	0.23087	-0.76
Mof_O 	O 	0.57471	0.79531	0.32989	-0.539
Mof_S 	S 	0.63903	0.71376	0.37227	-0.01
Mof_C 	C 	0.6047	0.8171	0.2476	0.472
Mof_C 	C 	0.613	0.8181	0.3013	-0.181
Mof_H 	H 	0.6164	0.8526	0.3118	0.065
Mof_H 	H 	0.6444	0.8013	0.3085	0.066
Mof_C 	C 	0.58475	0.7992	0.37965	0.101
Mof_C 	C 	0.61227	0.7636	0.40316	-0.192
Mof_C 	C 	0.5668	0.8397	0.4062	-0.207
Mof_C 	C 	0.5799	0.8451	0.4553	-0.066
Mof_H 	H 	0.568	0.8727	0.4729	-0.005
Mof_C 	C 	0.6098	0.8112	0.4794	-0.287
Mof_C 	C 	0.6241	0.7699	0.4531	-0.052
Mof_H 	H 	0.6425	0.7451	0.4693	-0.014
Mof_C 	C 	0.6248	0.8189	0.5329	0.482
Mof_C 	C 	0.6611	0.7826	0.5491	-0.75
Mof_H 	H 	0.6494	0.7495	0.5413	0.192
Mof_H 	H 	0.6923	0.7885	0.5322	0.214
Mof_H 	H 	0.666	0.7856	0.5846	0.208
Mof_C 	C 	0.5765	0.813	0.5648	-0.583
Mof_H 	H 	0.5641	0.7794	0.5617	0.05
Mof_H 	H 	0.5841	0.8199	0.5993	0.162
Mof_H 	H 	0.5516	0.8361	0.5531	0.123
Mof_C 	C 	0.6427	0.8714	0.5406	-0.772
Mof_H 	H 	0.617	0.8944	0.5305	0.239
Mof_H 	H 	0.6503	0.8765	0.5754	0.244
Mof_H 	H 	0.6722	0.877	0.521	0.233
Mof_O 	O 	0.8622	0.83642	0.77646	-0.51
Mof_O 	O 	0.93231	0.7965	0.76913	-0.694
Mof_O 	O 	0.92529	0.79531	0.67011	-0.488
Mof_S 	S 	0.86097	0.71376	0.62773	-0.013
Mof_C 	C 	0.8953	0.8171	0.7524	0.462
Mof_C 	C 	0.887	0.8181	0.6987	-0.181
Mof_H 	H 	0.8836	0.8526	0.6882	0.066
Mof_H 	H 	0.8556	0.8013	0.6915	0.067
Mof_C 	C 	0.91525	0.7992	0.62035	0.113
Mof_C 	C 	0.88773	0.7636	0.59684	-0.18
Mof_C 	C 	0.9332	0.8397	0.5938	-0.195
Mof_C 	C 	0.9201	0.8451	0.5447	-0.04
Mof_H 	H 	0.932	0.8727	0.5271	0.001
Mof_C 	C 	0.8902	0.8112	0.5206	-0.291
Mof_C 	C 	0.8759	0.7699	0.5469	-0.032
Mof_H 	H 	0.8575	0.7451	0.5307	-0.017
Mof_C 	C 	0.8752	0.8189	0.4671	0.524
Mof_C 	C 	0.8389	0.7826	0.4509	-0.797
Mof_H 	H 	0.8506	0.7495	0.4587	0.209
Mof_H 	H 	0.8077	0.7885	0.4678	0.227
Mof_H 	H 	0.834	0.7856	0.4154	0.223
Mof_C 	C 	0.9235	0.813	0.4352	-0.657
Mof_H 	H 	0.9359	0.7794	0.4383	0.099
Mof_H 	H 	0.9159	0.8199	0.4007	0.192
Mof_H 	H 	0.9484	0.8361	0.4469	0.17
Mof_C 	C 	0.8573	0.8714	0.4594	-0.814
Mof_H 	H 	0.883	0.8944	0.4695	0.255
Mof_H 	H 	0.8497	0.8765	0.4246	0.257
Mof_H 	H 	0.8278	0.877	0.479	0.245
Mof_O 	O 	0.3622	0.33642	0.27646	-0.52
Mof_O 	O 	0.43231	0.2965	0.26913	-0.762
Mof_O 	O 	0.42529	0.29531	0.17011	-0.545
Mof_S 	S 	0.36097	0.21376	0.12773	-0.007
Mof_C 	C 	0.3953	0.3171	0.2524	0.471
Mof_C 	C 	0.387	0.3181	0.1987	-0.179
Mof_H 	H 	0.3836	0.3526	0.1882	0.062
Mof_H 	H 	0.3556	0.3013	0.1915	0.065
Mof_C 	C 	0.41525	0.2992	0.12035	0.132
Mof_C 	C 	0.38773	0.2636	0.09684	-0.224
Mof_C 	C 	0.4332	0.3397	0.0938	-0.235
Mof_C 	C 	0.4201	0.3451	0.0447	0.019
Mof_H 	H 	0.432	0.3727	0.0271	-0.064
Mof_C 	C 	0.3902	0.3112	0.0206	-0.447
Mof_C 	C 	0.3759	0.2699	0.0469	0.035
Mof_H 	H 	0.3575	0.2451	0.0307	-0.067
Mof_C 	C 	0.3752	0.3189	0.9671	0.703
Mof_C 	C 	0.3389	0.2826	0.9509	-0.975
Mof_H 	H 	0.3506	0.2495	0.9587	0.278
Mof_H 	H 	0.3077	0.2885	0.9678	0.299
Mof_H 	H 	0.334	0.2856	0.9154	0.274
Mof_C 	C 	0.4235	0.313	0.9352	-0.754
Mof_H 	H 	0.4359	0.2794	0.9383	0.121
Mof_H 	H 	0.4159	0.3199	0.9007	0.21
Mof_H 	H 	0.4484	0.3361	0.9469	0.192
Mof_C 	C 	0.3573	0.3714	0.9594	-0.967
Mof_H 	H 	0.383	0.3944	0.9695	0.31
Mof_H 	H 	0.3497	0.3765	0.9246	0.3
Mof_H 	H 	0.3278	0.377	0.979	0.307
Mof_O 	O 	0.66358	0.22354	0.3622	-0.521
Mof_O 	O 	0.7035	0.23087	0.43231	-0.761
Mof_O 	O 	0.70469	0.32989	0.42529	-0.539
Mof_S 	S 	0.78624	0.37227	0.36097	-0.013
Mof_C 	C 	0.6829	0.2476	0.3953	0.471
Mof_C 	C 	0.6819	0.3013	0.387	-0.18
Mof_H 	H 	0.6474	0.3118	0.3836	0.062
Mof_H 	H 	0.6987	0.3085	0.3556	0.065
Mof_C 	C 	0.7008	0.37965	0.41525	0.099
Mof_C 	C 	0.7364	0.40316	0.38773	-0.19
Mof_C 	C 	0.6603	0.4062	0.4332	-0.204
Mof_C 	C 	0.6549	0.4553	0.4201	-0.07
Mof_H 	H 	0.6273	0.4729	0.432	-0.008
Mof_C 	C 	0.6888	0.4794	0.3902	-0.284
Mof_C 	C 	0.7301	0.4531	0.3759	-0.055
Mof_H 	H 	0.7549	0.4693	0.3575	-0.013
Mof_C 	C 	0.6811	0.5329	0.3752	0.474
Mof_C 	C 	0.7174	0.5491	0.3389	-0.742
Mof_H 	H 	0.7505	0.5413	0.3506	0.189
Mof_H 	H 	0.7115	0.5322	0.3077	0.211
Mof_H 	H 	0.7144	0.5846	0.334	0.206
Mof_C 	C 	0.687	0.5648	0.4235	-0.576
Mof_H 	H 	0.7206	0.5617	0.4359	0.048
Mof_H 	H 	0.6801	0.5993	0.4159	0.16
Mof_H 	H 	0.6639	0.5531	0.4484	0.12
Mof_C 	C 	0.6286	0.5406	0.3573	-0.756
Mof_H 	H 	0.6056	0.5305	0.383	0.228
Mof_H 	H 	0.6235	0.5754	0.3497	0.239
Mof_H 	H 	0.623	0.521	0.3278	0.223
Mof_O 	O 	0.16358	0.72354	0.8622	-0.517
Mof_O 	O 	0.2035	0.73087	0.93231	-0.696
Mof_O 	O 	0.20469	0.82989	0.92529	-0.484
Mof_S 	S 	0.28624	0.87227	0.86097	-0.014
Mof_C 	C 	0.1829	0.7476	0.8953	0.459
Mof_C 	C 	0.1819	0.8013	0.887	-0.18
Mof_H 	H 	0.1474	0.8118	0.8836	0.06
Mof_H 	H 	0.1987	0.8085	0.8556	0.065
Mof_C 	C 	0.2008	0.87965	0.91525	0.076
Mof_C 	C 	0.2364	0.90316	0.88773	-0.145
Mof_C 	C 	0.1603	0.9062	0.9332	-0.158
Mof_C 	C 	0.1549	0.9553	0.9201	-0.139
Mof_H 	H 	0.1273	0.9729	0.932	0.051
Mof_C 	C 	0.1888	0.9794	0.8902	-0.12
Mof_C 	C 	0.2301	0.9531	0.8759	-0.128
Mof_H 	H 	0.2549	0.9693	0.8575	0.041
Mof_C 	C 	0.1811	0.0329	0.8752	0.277
Mof_C 	C 	0.2174	0.0491	0.8389	-0.546
Mof_H 	H 	0.2505	0.0413	0.8506	0.116
Mof_H 	H 	0.2115	0.0322	0.8077	0.133
Mof_H 	H 	0.2144	0.0846	0.834	0.151
Mof_C 	C 	0.187	0.0648	0.9235	-0.462
Mof_H 	H 	0.2206	0.0617	0.9359	0.02
Mof_H 	H 	0.1801	0.0993	0.9159	0.137
Mof_H 	H 	0.1639	0.0531	0.9484	0.091
Mof_C 	C 	0.1286	0.0406	0.8573	-0.569
Mof_H 	H 	0.1056	0.0305	0.883	0.15
Mof_H 	H 	0.1235	0.0754	0.8497	0.183
Mof_H 	H 	0.123	0.021	0.8278	0.141
Mof_O 	O 	0.16358	0.27646	0.6378	-0.523
Mof_O 	O 	0.2035	0.26913	0.56769	-0.762
Mof_O 	O 	0.20469	0.17011	0.57471	-0.545
Mof_S 	S 	0.28624	0.12773	0.63903	-0.011
Mof_C 	C 	0.1829	0.2524	0.6047	0.47
Mof_C 	C 	0.1819	0.1987	0.613	-0.178
Mof_H 	H 	0.1474	0.1882	0.6164	0.059
Mof_H 	H 	0.1987	0.1915	0.6444	0.064
Mof_C 	C 	0.2008	0.12035	0.58475	0.129
Mof_C 	C 	0.2364	0.09684	0.61227	-0.222
Mof_C 	C 	0.1603	0.0938	0.5668	-0.232
Mof_C 	C 	0.1549	0.0447	0.5799	0.015
Mof_H 	H 	0.1273	0.0271	0.568	-0.066
Mof_C 	C 	0.1888	0.0206	0.6098	-0.443
Mof_C 	C 	0.2301	0.0469	0.6241	0.032
Mof_H 	H 	0.2549	0.0307	0.6425	-0.067
Mof_C 	C 	0.1811	0.9671	0.6248	0.691
Mof_C 	C 	0.2174	0.9509	0.6611	-0.963
Mof_H 	H 	0.2505	0.9587	0.6494	0.274
Mof_H 	H 	0.2115	0.9678	0.6923	0.294
Mof_H 	H 	0.2144	0.9154	0.666	0.269
Mof_C 	C 	0.187	0.9352	0.5765	-0.745
Mof_H 	H 	0.2206	0.9383	0.5641	0.119
Mof_H 	H 	0.1801	0.9007	0.5841	0.208
Mof_H 	H 	0.1639	0.9469	0.5516	0.188
Mof_C 	C 	0.1286	0.9594	0.6427	-0.946
Mof_H 	H 	0.1056	0.9695	0.617	0.296
Mof_H 	H 	0.1235	0.9246	0.6503	0.291
Mof_H 	H 	0.123	0.979	0.6722	0.294
Mof_O 	O 	0.66358	0.77646	0.1378	-0.52
Mof_O 	O 	0.7035	0.76913	0.06769	-0.736
Mof_O 	O 	0.70469	0.67011	0.07471	-0.512
Mof_S 	S 	0.78624	0.62773	0.13903	-0.016
Mof_C 	C 	0.6829	0.7524	0.1047	0.467
Mof_C 	C 	0.6819	0.6987	0.113	-0.185
Mof_H 	H 	0.6474	0.6882	0.1164	0.064
Mof_H 	H 	0.6987	0.6915	0.1444	0.068
Mof_C 	C 	0.7008	0.62035	0.08475	0.09
Mof_C 	C 	0.7364	0.59684	0.11227	-0.175
Mof_C 	C 	0.6603	0.5938	0.0668	-0.186
Mof_C 	C 	0.6549	0.5447	0.0799	-0.071
Mof_H 	H 	0.6273	0.5271	0.068	-0.013
Mof_C 	C 	0.6888	0.5206	0.1098	-0.27
Mof_C 	C 	0.7301	0.5469	0.1241	-0.052
Mof_H 	H 	0.7549	0.5307	0.1425	-0.01
Mof_C 	C 	0.6811	0.4671	0.1248	0.464
Mof_C 	C 	0.7174	0.4509	0.1611	-0.736
Mof_H 	H 	0.7505	0.4587	0.1494	0.189
Mof_H 	H 	0.7115	0.4678	0.1923	0.21
Mof_H 	H 	0.7144	0.4154	0.166	0.204
Mof_C 	C 	0.687	0.4352	0.0765	-0.558
Mof_H 	H 	0.7206	0.4383	0.0641	0.045
Mof_H 	H 	0.6801	0.4007	0.0841	0.148
Mof_H 	H 	0.6639	0.4469	0.0516	0.105
Mof_C 	C 	0.6286	0.4594	0.1427	-0.746
Mof_H 	H 	0.6056	0.4695	0.117	0.221
Mof_H 	H 	0.6235	0.4246	0.1503	0.235
Mof_H 	H 	0.623	0.479	0.1722	0.22
Mof_O 	O 	0.33642	0.72354	0.1378	-0.521
Mof_O 	O 	0.2965	0.73087	0.06769	-0.736
Mof_O 	O 	0.29531	0.82989	0.07471	-0.508
Mof_S 	S 	0.21376	0.87227	0.13903	-0.01
Mof_C 	C 	0.3171	0.7476	0.1047	0.467
Mof_C 	C 	0.3181	0.8013	0.113	-0.186
Mof_H 	H 	0.3526	0.8118	0.1164	0.064
Mof_H 	H 	0.3013	0.8085	0.1444	0.069
Mof_C 	C 	0.2992	0.87965	0.08475	0.06
Mof_C 	C 	0.2636	0.90316	0.11227	-0.145
Mof_C 	C 	0.3397	0.9062	0.0668	-0.157
Mof_C 	C 	0.3451	0.9553	0.0799	-0.159
Mof_H 	H 	0.3727	0.9729	0.068	0.042
Mof_C 	C 	0.3112	0.9794	0.1098	-0.111
Mof_C 	C 	0.2699	0.9531	0.1241	-0.139
Mof_H 	H 	0.2451	0.9693	0.1425	0.045
Mof_C 	C 	0.3189	0.0329	0.1248	0.244
Mof_C 	C 	0.2826	0.0491	0.1611	-0.514
Mof_H 	H 	0.2495	0.0413	0.1494	0.106
Mof_H 	H 	0.2885	0.0322	0.1923	0.127
Mof_H 	H 	0.2856	0.0846	0.166	0.141
Mof_C 	C 	0.313	0.0648	0.0765	-0.387
Mof_H 	H 	0.2794	0.0617	0.0641	-0.025
Mof_H 	H 	0.3199	0.0993	0.0841	0.1
Mof_H 	H 	0.3361	0.0531	0.0516	0.037
Mof_C 	C 	0.3714	0.0406	0.1427	-0.544
Mof_H 	H 	0.3944	0.0305	0.117	0.142
Mof_H 	H 	0.3765	0.0754	0.1503	0.177
Mof_H 	H 	0.377	0.021	0.1722	0.14
Mof_O 	O 	0.83642	0.22354	0.6378	-0.517
Mof_O 	O 	0.7965	0.23087	0.56769	-0.76
Mof_O 	O 	0.79531	0.32989	0.57471	-0.539
Mof_S 	S 	0.71376	0.37227	0.63903	-0.01
Mof_C 	C 	0.8171	0.2476	0.6047	0.472
Mof_C 	C 	0.8181	0.3013	0.613	-0.181
Mof_H 	H 	0.8526	0.3118	0.6164	0.065
Mof_H 	H 	0.8013	0.3085	0.6444	0.066
Mof_C 	C 	0.7992	0.37965	0.58475	0.101
Mof_C 	C 	0.7636	0.40316	0.61227	-0.192
Mof_C 	C 	0.8397	0.4062	0.5668	-0.207
Mof_C 	C 	0.8451	0.4553	0.5799	-0.066
Mof_H 	H 	0.8727	0.4729	0.568	-0.005
Mof_C 	C 	0.8112	0.4794	0.6098	-0.287
Mof_C 	C 	0.7699	0.4531	0.6241	-0.052
Mof_H 	H 	0.7451	0.4693	0.6425	-0.014
Mof_C 	C 	0.8189	0.5329	0.6248	0.482
Mof_C 	C 	0.7826	0.5491	0.6611	-0.75
Mof_H 	H 	0.7495	0.5413	0.6494	0.192
Mof_H 	H 	0.7885	0.5322	0.6923	0.214
Mof_H 	H 	0.7856	0.5846	0.666	0.208
Mof_C 	C 	0.813	0.5648	0.5765	-0.583
Mof_H 	H 	0.7794	0.5617	0.5641	0.05
Mof_H 	H 	0.8199	0.5993	0.5841	0.162
Mof_H 	H 	0.8361	0.5531	0.5516	0.123
Mof_C 	C 	0.8714	0.5406	0.6427	-0.772
Mof_H 	H 	0.8944	0.5305	0.617	0.239
Mof_H 	H 	0.8765	0.5754	0.6503	0.244
Mof_H 	H 	0.877	0.521	0.6722	0.233
Mof_O 	O 	0.83642	0.77646	0.8622	-0.51
Mof_O 	O 	0.7965	0.76913	0.93231	-0.694
Mof_O 	O 	0.79531	0.67011	0.92529	-0.488
Mof_S 	S 	0.71376	0.62773	0.86097	-0.013
Mof_C 	C 	0.8171	0.7524	0.8953	0.462
Mof_C 	C 	0.8181	0.6987	0.887	-0.181
Mof_H 	H 	0.8526	0.6882	0.8836	0.066
Mof_H 	H 	0.8013	0.6915	0.8556	0.067
Mof_C 	C 	0.7992	0.62035	0.91525	0.113
Mof_C 	C 	0.7636	0.59684	0.88773	-0.18
Mof_C 	C 	0.8397	0.5938	0.9332	-0.195
Mof_C 	C 	0.8451	0.5447	0.9201	-0.04
Mof_H 	H 	0.8727	0.5271	0.932	0.001
Mof_C 	C 	0.8112	0.5206	0.8902	-0.291
Mof_C 	C 	0.7699	0.5469	0.8759	-0.032
Mof_H 	H 	0.7451	0.5307	0.8575	-0.017
Mof_C 	C 	0.8189	0.4671	0.8752	0.524
Mof_C 	C 	0.7826	0.4509	0.8389	-0.797
Mof_H 	H 	0.7495	0.4587	0.8506	0.209
Mof_H 	H 	0.7885	0.4678	0.8077	0.227
Mof_H 	H 	0.7856	0.4154	0.834	0.223
Mof_C 	C 	0.813	0.4352	0.9235	-0.657
Mof_H 	H 	0.7794	0.4383	0.9359	0.099
Mof_H 	H 	0.8199	0.4007	0.9159	0.192
Mof_H 	H 	0.8361	0.4469	0.9484	0.17
Mof_C 	C 	0.8714	0.4594	0.8573	-0.814
Mof_H 	H 	0.8944	0.4695	0.883	0.255
Mof_H 	H 	0.8765	0.4246	0.8497	0.257
Mof_H 	H 	0.877	0.479	0.8278	0.245
Mof_O 	O 	0.33642	0.27646	0.3622	-0.52
Mof_O 	O 	0.2965	0.26913	0.43231	-0.762
Mof_O 	O 	0.29531	0.17011	0.42529	-0.545
Mof_S 	S 	0.21376	0.12773	0.36097	-0.007
Mof_C 	C 	0.3171	0.2524	0.3953	0.471
Mof_C 	C 	0.3181	0.1987	0.387	-0.179
Mof_H 	H 	0.3526	0.1882	0.3836	0.062
Mof_H 	H 	0.3013	0.1915	0.3556	0.065
Mof_C 	C 	0.2992	0.12035	0.41525	0.132
Mof_C 	C 	0.2636	0.09684	0.38773	-0.224
Mof_C 	C 	0.3397	0.0938	0.4332	-0.235
Mof_C 	C 	0.3451	0.0447	0.4201	0.019
Mof_H 	H 	0.3727	0.0271	0.432	-0.064
Mof_C 	C 	0.3112	0.0206	0.3902	-0.447
Mof_C 	C 	0.2699	0.0469	0.3759	0.035
Mof_H 	H 	0.2451	0.0307	0.3575	-0.067
Mof_C 	C 	0.3189	0.9671	0.3752	0.703
Mof_C 	C 	0.2826	0.9509	0.3389	-0.975
Mof_H 	H 	0.2495	0.9587	0.3506	0.278
Mof_H 	H 	0.2885	0.9678	0.3077	0.299
Mof_H 	H 	0.2856	0.9154	0.334	0.274
Mof_C 	C 	0.313	0.9352	0.4235	-0.754
Mof_H 	H 	0.2794	0.9383	0.4359	0.121
Mof_H 	H 	0.3199	0.9007	0.4159	0.21
Mof_H 	H 	0.3361	0.9469	0.4484	0.192
Mof_C 	C 	0.3714	0.9594	0.3573	-0.967
Mof_H 	H 	0.3944	0.9695	0.383	0.31
Mof_H 	H 	0.3765	0.9246	0.3497	0.3
Mof_H 	H 	0.377	0.979	0.3278	0.307
Mof_Co	Co	0.09742	0.90258	0.40258	1.102
Mof_Co	Co	0.59742	0.40258	0.90258	1.104
Mof_Co	Co	0.40258	0.09742	0.90258	1.102
Mof_Co	Co	0.90258	0.59742	0.40258	1.104
Mof_Co	Co	0.90258	0.40258	0.09742	1.102
Mof_Co	Co	0.40258	0.90258	0.59742	1.104
Mof_Co	Co	0.59742	0.59742	0.59742	1.101
Mof_Co	Co	0.09742	0.09742	0.09742	1.093
Mof_Co	Co	0.15258	0.34742	0.65258	1.098
Mof_Co	Co	0.65258	0.84742	0.15258	1.101
Mof_Co	Co	0.34742	0.65258	0.15258	1.098
Mof_Co	Co	0.84742	0.15258	0.65258	1.101
Mof_Co	Co	0.65258	0.15258	0.34742	1.098
Mof_Co	Co	0.15258	0.65258	0.84742	1.101
Mof_Co	Co	0.84742	0.84742	0.84742	1.111
Mof_Co	Co	0.34742	0.34742	0.34742	1.101
Mof_K 	K 	0.25	0.03007	0.5	3.18
Mof_K 	K 	0.25	0.96993	-0	3.469
Mof_K 	K 	0.75	0.53007	-0	3.148
Mof_K 	K 	0.75	0.46993	0.5	3.492
Mof_K 	K 	0.5	0.25	0.03007	3.18
Mof_K 	K 	3.63666e-33	0.25	0.96993	3.469
Mof_K 	K 	6.96889e-33	0.75	0.53007	3.148
Mof_K 	K 	0.5	0.75	0.46993	3.492
Mof_K 	K 	0.03007	0.5	0.25	3.18
Mof_K 	K 	0.96993	2.49072e-33	0.25	3.469
Mof_K 	K 	0.53007	9.9629e-33	0.75	3.148
Mof_K 	K 	0.46993	0.5	0.75	3.492
Mof_K 	K 	0.28007	0.5	0.75	3.49
Mof_K 	K 	0.21993	0.5	0.25	3.517
Mof_K 	K 	0.78007	2.49072e-33	0.25	3.134
Mof_K 	K 	0.71993	9.9629e-33	0.75	3.144
Mof_K 	K 	0.5	0.75	0.28007	3.49
Mof_K 	K 	0.5	0.25	0.21993	3.517
Mof_K 	K 	-7.0381e-33	0.25	0.78007	3.134
Mof_K 	K 	1.26622e-32	0.75	0.71993	3.144
Mof_K 	K 	0.75	0.28007	0.5	3.49
Mof_K 	K 	0.25	0.21993	0.5	3.517
Mof_K 	K 	0.25	0.78007	-0	3.134
Mof_K 	K 	0.75	0.71993	-0	3.144
_end
