data_functionalizedCrystal
_audit_creation_method	'EQeq! by Chris Wilmer'
_symmetry_space_group_name_H-M	'P1'
_symmetry_Int_Tables_number	1
_symmetry_cell_setting	triclinic
loop_
_symmetry_equiv_pos_as_xyz
  x,y,z
_cell_length_a	37.856
_cell_length_b	14.1562
_cell_length_c	28.44
_cell_angle_alpha	90
_cell_angle_beta	131.399
_cell_angle_gamma	90
loop_
_atom_site_label
_atom_site_type_symbol
_atom_site_fract_x
_atom_site_fract_y
_atom_site_fract_z
_atom_site_charge
Mof_Ru	Ru	0.7898	0.24479	0.03286	1
Mof_Ru	Ru	0.00837	0.00326	0.04631	0.952
Mof_Mo	Mo	0.97962	0.31585	0.15155	1.694
Mof_Mo	Mo	0.90104	0.13523	0.08624	1.73
Mof_Mo	Mo	0.90789	0.29405	0.18345	1.695
Mof_Mo	Mo	0.90915	0.96139	0.19087	1.667
Mof_Mo	Mo	0.98801	0.93924	0.15685	1.706
Mof_Mo	Mo	0.06359	0.11991	0.19868	1.685
Mof_O 	O 	0.7924	0.2299	0.1052	-0.425
Mof_O 	O 	0.7836	0.1031	0.0205	-0.419
Mof_O 	O 	0.7055	0.1131	0.9565	-0.429
Mof_O 	O 	0.7142	0.2385	0.041	-0.412
Mof_O 	O 	0.0183	0.8616	0.0554	-0.435
Mof_O 	O 	0.0763	0.0269	0.0903	-0.436
Mof_O 	O 	0.0023	0.8565	0.9647	-0.44
Mof_O 	O 	0.0602	0.0211	-0	-0.427
Mof_O 	O 	0.963	0.1894	0.1934	-0.558
Mof_O 	O 	0.9759	0.065	0.2657	-0.551
Mof_O 	O 	0.928	0.2374	0.0801	-0.719
Mof_O 	O 	0.8712	0.2311	0.105	-0.724
Mof_O 	O 	0.9368	0.3663	0.155	-0.717
Mof_O 	O 	0.8894	0.0498	0.1316	-0.713
Mof_O 	O 	0.9528	0.9188	0.179	-0.732
Mof_O 	O 	0.9424	0.0456	0.1047	-0.721
Mof_O 	O 	0.8948	0.0256	0.2332	-0.705
Mof_O 	O 	0.957	0.8892	0.273	-0.706
Mof_O 	O 	0.0262	0.0181	0.1446	-0.724
Mof_O 	O 	0.0179	0.2102	0.1574	-0.721
Mof_O 	O 	0.0947	0.2037	0.2739	-0.727
Mof_O 	O 	0.0331	0.3355	0.234	-0.742
Mof_C 	C 	0.7539	0.2287	0.0949	0.218
Mof_C 	C 	0.7575	0.2131	0.1513	0.334
Mof_C 	C 	0.776	0.1099	0.1733	-0.6
Mof_H 	H 	0.7541	0.0661	0.1388	0.178
Mof_H 	H 	0.7784	0.0945	0.2089	0.168
Mof_H 	H 	0.8071	0.1045	0.186	0.183
Mof_C 	C 	0.7099	0.222	0.1313	-0.648
Mof_H 	H 	0.6984	0.2868	0.1172	0.188
Mof_H 	H 	0.712	0.2073	0.1668	0.184
Mof_H 	H 	0.6881	0.1779	0.0969	0.198
Mof_C 	C 	0.7947	0.2778	0.2032	-0.595
Mof_H 	H 	0.7994	0.2647	0.2409	0.158
Mof_H 	H 	0.7847	0.3436	0.1904	0.161
Mof_H 	H 	0.8243	0.2675	0.2122	0.157
Mof_C 	C 	0.7431	0.0655	0.9836	0.252
Mof_C 	C 	0.7404	0.9592	0.9833	0.085
Mof_C 	C 	0.7484	0.925	0.0398	-0.337
Mof_H 	H 	0.7797	0.8964	0.0697	0.075
Mof_H 	H 	0.7244	0.8779	0.0267	0.084
Mof_H 	H 	0.7462	0.9784	0.0597	0.102
Mof_C 	C 	0.6955	0.922	0.9349	-0.218
Mof_H 	H 	0.672	0.9563	0.9327	-0.069
Mof_H 	H 	0.695	0.8549	0.9432	0.036
Mof_H 	H 	0.6883	0.9283	0.895	0.138
Mof_C 	C 	0.7754	0.923	0.9813	-0.116
Mof_H 	H 	0.807	0.9397	0.0202	0.12
Mof_H 	H 	0.7701	0.9505	0.9455	0.097
Mof_H 	H 	0.7727	0.8539	0.9769	0.059
Mof_C 	C 	0.0122	0.8165	0.0123	0.26
Mof_C 	C 	0.0161	0.7088	0.0162	0.264
Mof_C 	C 	0.0174	0.6742	0.0681	-0.553
Mof_H 	H 	0.9884	0.6935	0.0587	0.154
Mof_H 	H 	0.0446	0.7017	0.1082	0.158
Mof_H 	H 	0.0199	0.6051	0.0707	0.143
Mof_C 	C 	0.9737	0.6676	0.9529	-0.516
Mof_H 	H 	0.9734	0.6905	0.9202	0.131
Mof_H 	H 	0.9446	0.6873	0.9432	0.137
Mof_H 	H 	0.9757	0.5985	0.9548	0.128
Mof_C 	C 	0.0605	0.6827	0.0293	-0.51
Mof_H 	H 	0.0877	0.7112	0.069	0.151
Mof_H 	H 	0.0587	0.7061	0.9953	0.139
Mof_H 	H 	0.064	0.6139	0.032	0.138
Mof_C 	C 	0.0882	0.0365	0.058	0.266
Mof_C 	C 	0.1377	0.0721	0.0898	0.256
Mof_C 	C 	0.1647	0.958	0.1152	-0.449
Mof_H 	H 	0.1516	0.9188	0.0786	0.12
Mof_H 	H 	0.1587	0.9287	0.1404	0.108
Mof_H 	H 	0.1988	0.9651	0.1406	0.079
Mof_C 	C 	0.1401	0.1	0.0426	-0.124
Mof_H 	H 	0.1239	0.0526	0.009	-0.031
Mof_H 	H 	0.1731	0.104	0.062	-0.078
Mof_H 	H 	0.1249	0.1614	0.0251	0
Mof_C 	C 	0.1587	0.125	0.1447	-0.182
Mof_H 	H 	0.1534	0.0928	0.1702	0.03
Mof_H 	H 	0.1448	0.1879	0.1335	0.246
Mof_H 	H 	0.1926	0.1299	0.1688	0.006
Mof_C 	C 	0.7827	0.907	0.0078	-0.283
Mof_H 	H 	0.8071	0.9489	0.0423	-0.001
Mof_H 	H 	0.7944	0.8784	0.989	0.027
Mof_H 	H 	0.775	0.858	0.0238	0.085
Mof_C 	C 	0.6874	0.934	0.9198	-0.188
Mof_H 	H 	0.6835	0.8703	0.903	0.021
Mof_H 	H 	0.6662	0.9777	0.885	0.025
Mof_H 	H 	0.68	0.9324	0.9468	0.198
Mof_C 	C 	0.7382	0.9659	0.9577	0.08
Mof_C 	C 	0.7362	0.9812	0.9008	-0.442
Mof_H 	H 	0.7631	0.9496	0.9097	0.081
Mof_H 	H 	0.7374	0.049	0.8948	0.122
Mof_H 	H 	0.7069	0.9546	0.8626	0.106
Mof_C 	C 	0.1506	0.077	0.0534	-0.225
Mof_H 	H 	0.1231	0.0945	0.0103	0.139
Mof_H 	H 	0.1622	0.015	0.0534	0.073
Mof_H 	H 	0.1754	0.1241	0.0712	0.166
Mof_C 	C 	0.175	0.045	0.1575	-0.283
Mof_H 	H 	0.1617	0.0461	0.1776	0.073
Mof_H 	H 	0.2011	0.0901	0.1787	0.086
Mof_H 	H 	0.1865	0.9814	0.1606	0.165
Mof_C 	C 	0.128	0.193	0.0929	-0.646
Mof_H 	H 	0.1189	0.2013	0.1178	0.065
Mof_H 	H 	0.1028	0.2166	0.0503	0.194
Mof_H 	H 	0.157	0.2285	0.1122	0.139
Mof_Ru	Ru	0.2898	0.74479	0.03286	0.99
Mof_Ru	Ru	0.50837	0.50326	0.04631	0.976
Mof_Mo	Mo	0.47962	0.81585	0.15155	1.671
Mof_Mo	Mo	0.40104	0.63523	0.08624	1.727
Mof_Mo	Mo	0.40789	0.79405	0.18345	1.694
Mof_Mo	Mo	0.40915	0.46139	0.19087	1.675
Mof_Mo	Mo	0.48801	0.43924	0.15685	1.692
Mof_Mo	Mo	0.56359	0.61991	0.19868	1.684
Mof_O 	O 	0.2924	0.7299	0.1052	-0.426
Mof_O 	O 	0.2836	0.6031	0.0205	-0.425
Mof_O 	O 	0.2055	0.6131	0.9565	-0.432
Mof_O 	O 	0.2142	0.7385	0.041	-0.416
Mof_O 	O 	0.5183	0.3616	0.0554	-0.435
Mof_O 	O 	0.5763	0.5269	0.0903	-0.439
Mof_O 	O 	0.5023	0.3565	0.9647	-0.434
Mof_O 	O 	0.5602	0.5211	-0	-0.422
Mof_O 	O 	0.463	0.6894	0.1934	-0.564
Mof_O 	O 	0.4759	0.565	0.2657	-0.562
Mof_O 	O 	0.428	0.7374	0.0801	-0.718
Mof_O 	O 	0.3712	0.7311	0.105	-0.723
Mof_O 	O 	0.4368	0.8663	0.155	-0.716
Mof_O 	O 	0.3894	0.5498	0.1316	-0.716
Mof_O 	O 	0.4528	0.4188	0.179	-0.732
Mof_O 	O 	0.4424	0.5456	0.1047	-0.723
Mof_O 	O 	0.3948	0.5256	0.2332	-0.708
Mof_O 	O 	0.457	0.3892	0.273	-0.714
Mof_O 	O 	0.5262	0.5181	0.1446	-0.722
Mof_O 	O 	0.5179	0.7102	0.1574	-0.714
Mof_O 	O 	0.5947	0.7037	0.2739	-0.727
Mof_O 	O 	0.5331	0.8355	0.234	-0.734
Mof_C 	C 	0.2539	0.7287	0.0949	0.219
Mof_C 	C 	0.2575	0.7131	0.1513	0.331
Mof_C 	C 	0.276	0.6099	0.1733	-0.597
Mof_H 	H 	0.2541	0.5661	0.1388	0.176
Mof_H 	H 	0.2784	0.5945	0.2089	0.167
Mof_H 	H 	0.3071	0.6045	0.186	0.181
Mof_C 	C 	0.2099	0.722	0.1313	-0.644
Mof_H 	H 	0.1984	0.7868	0.1172	0.187
Mof_H 	H 	0.212	0.7073	0.1668	0.182
Mof_H 	H 	0.1881	0.6779	0.0969	0.196
Mof_C 	C 	0.2947	0.7778	0.2032	-0.592
Mof_H 	H 	0.2994	0.7647	0.2409	0.157
Mof_H 	H 	0.2847	0.8436	0.1904	0.16
Mof_H 	H 	0.3243	0.7675	0.2122	0.156
Mof_C 	C 	0.2431	0.5655	0.9836	0.263
Mof_C 	C 	0.2404	0.4592	0.9833	0.085
Mof_C 	C 	0.2484	0.425	0.0398	-0.334
Mof_H 	H 	0.2797	0.3964	0.0697	0.075
Mof_H 	H 	0.2244	0.3779	0.0267	0.085
Mof_H 	H 	0.2462	0.4784	0.0597	0.102
Mof_C 	C 	0.1955	0.422	0.9349	-0.213
Mof_H 	H 	0.172	0.4563	0.9327	-0.065
Mof_H 	H 	0.195	0.3549	0.9432	0.034
Mof_H 	H 	0.1883	0.4283	0.895	0.135
Mof_C 	C 	0.2754	0.423	0.9813	-0.099
Mof_H 	H 	0.307	0.4397	0.0202	0.119
Mof_H 	H 	0.2701	0.4505	0.9455	0.091
Mof_H 	H 	0.2727	0.3539	0.9769	0.056
Mof_C 	C 	0.5122	0.3165	0.0123	0.265
Mof_C 	C 	0.5161	0.2088	0.0162	0.267
Mof_C 	C 	0.5174	0.1742	0.0681	-0.531
Mof_H 	H 	0.4884	0.1935	0.0587	0.143
Mof_H 	H 	0.5446	0.2017	0.1082	0.153
Mof_H 	H 	0.5199	0.1051	0.0707	0.14
Mof_C 	C 	0.4737	0.1676	0.9529	-0.53
Mof_H 	H 	0.4734	0.1905	0.9202	0.131
Mof_H 	H 	0.4446	0.1873	0.9432	0.139
Mof_H 	H 	0.4757	0.0985	0.9548	0.127
Mof_C 	C 	0.5605	0.1827	0.0293	-0.501
Mof_H 	H 	0.5877	0.2112	0.069	0.149
Mof_H 	H 	0.5587	0.2061	0.9953	0.134
Mof_H 	H 	0.564	0.1139	0.032	0.137
Mof_C 	C 	0.5882	0.5365	0.058	0.265
Mof_C 	C 	0.6377	0.5721	0.0898	0.255
Mof_C 	C 	0.6647	0.458	0.1152	-0.448
Mof_H 	H 	0.6516	0.4188	0.0786	0.122
Mof_H 	H 	0.6587	0.4287	0.1404	0.109
Mof_H 	H 	0.6988	0.4651	0.1406	0.079
Mof_C 	C 	0.6401	0.6	0.0426	-0.123
Mof_H 	H 	0.6239	0.5526	0.009	-0.032
Mof_H 	H 	0.6731	0.604	0.062	-0.078
Mof_H 	H 	0.6249	0.6614	0.0251	-0.001
Mof_C 	C 	0.6587	0.625	0.1447	-0.186
Mof_H 	H 	0.6534	0.5928	0.1702	0.032
Mof_H 	H 	0.6448	0.6879	0.1335	0.247
Mof_H 	H 	0.6926	0.6299	0.1688	0.009
Mof_C 	C 	0.2827	0.407	0.0078	-0.285
Mof_H 	H 	0.3071	0.4489	0.0423	0.001
Mof_H 	H 	0.2944	0.3784	0.989	0.021
Mof_H 	H 	0.275	0.358	0.0238	0.087
Mof_C 	C 	0.1874	0.434	0.9198	-0.18
Mof_H 	H 	0.1835	0.3703	0.903	0.019
Mof_H 	H 	0.1662	0.4777	0.885	0.021
Mof_H 	H 	0.18	0.4324	0.9468	0.188
Mof_C 	C 	0.2382	0.4659	0.9577	0.065
Mof_C 	C 	0.2362	0.4812	0.9008	-0.439
Mof_H 	H 	0.2631	0.4496	0.9097	0.082
Mof_H 	H 	0.2374	0.549	0.8948	0.123
Mof_H 	H 	0.2069	0.4546	0.8626	0.105
Mof_C 	C 	0.6506	0.577	0.0534	-0.223
Mof_H 	H 	0.6231	0.5945	0.0103	0.138
Mof_H 	H 	0.6622	0.515	0.0534	0.072
Mof_H 	H 	0.6754	0.6241	0.0712	0.166
Mof_C 	C 	0.675	0.545	0.1575	-0.281
Mof_H 	H 	0.6617	0.5461	0.1776	0.071
Mof_H 	H 	0.7011	0.5901	0.1787	0.084
Mof_H 	H 	0.6865	0.4814	0.1606	0.166
Mof_C 	C 	0.628	0.693	0.0929	-0.643
Mof_H 	H 	0.6189	0.7013	0.1178	0.064
Mof_H 	H 	0.6028	0.7166	0.0503	0.193
Mof_H 	H 	0.657	0.7285	0.1122	0.138
Mof_Ru	Ru	0.2102	0.24479	0.46714	0.958
Mof_Ru	Ru	0.99163	0.00326	0.45369	0.987
Mof_Mo	Mo	0.02038	0.31585	0.34845	1.65
Mof_Mo	Mo	0.09896	0.13523	0.41376	1.715
Mof_Mo	Mo	0.09211	0.29405	0.31655	1.694
Mof_Mo	Mo	0.09085	0.96139	0.30913	1.666
Mof_Mo	Mo	0.01199	0.93924	0.34315	1.662
Mof_Mo	Mo	0.93641	0.11991	0.30132	1.684
Mof_O 	O 	0.2076	0.2299	0.3948	-0.423
Mof_O 	O 	0.2164	0.1031	0.4795	-0.435
Mof_O 	O 	0.2945	0.1131	0.5435	-0.434
Mof_O 	O 	0.2858	0.2385	0.459	-0.428
Mof_O 	O 	0.9817	0.8616	0.4446	-0.43
Mof_O 	O 	0.9237	0.0269	0.4097	-0.441
Mof_O 	O 	0.9977	0.8565	0.5353	-0.411
Mof_O 	O 	0.9398	0.0211	0.5	-0.431
Mof_O 	O 	0.037	0.1894	0.3066	-0.562
Mof_O 	O 	0.0241	0.065	0.2343	-0.562
Mof_O 	O 	0.072	0.2374	0.4199	-0.717
Mof_O 	O 	0.1288	0.2311	0.395	-0.72
Mof_O 	O 	0.0632	0.3663	0.345	-0.714
Mof_O 	O 	0.1106	0.0498	0.3684	-0.713
Mof_O 	O 	0.0472	0.9188	0.321	-0.73
Mof_O 	O 	0.0576	0.0456	0.3953	-0.722
Mof_O 	O 	0.1052	0.0256	0.2668	-0.706
Mof_O 	O 	0.043	0.8892	0.227	-0.721
Mof_O 	O 	0.9738	0.0181	0.3554	-0.714
Mof_O 	O 	0.9821	0.2102	0.3426	-0.706
Mof_O 	O 	0.9053	0.2037	0.2261	-0.727
Mof_O 	O 	0.9669	0.3355	0.266	-0.726
Mof_C 	C 	0.2461	0.2287	0.4051	0.221
Mof_C 	C 	0.2425	0.2131	0.3487	0.326
Mof_C 	C 	0.224	0.1099	0.3267	-0.593
Mof_H 	H 	0.2459	0.0661	0.3612	0.173
Mof_H 	H 	0.2216	0.0945	0.2911	0.166
Mof_H 	H 	0.1929	0.1045	0.314	0.18
Mof_C 	C 	0.2901	0.222	0.3687	-0.637
Mof_H 	H 	0.3016	0.2868	0.3828	0.184
Mof_H 	H 	0.288	0.2073	0.3332	0.18
Mof_H 	H 	0.3119	0.1779	0.4031	0.192
Mof_C 	C 	0.2053	0.2778	0.2968	-0.589
Mof_H 	H 	0.2006	0.2647	0.2591	0.156
Mof_H 	H 	0.2153	0.3436	0.3096	0.159
Mof_H 	H 	0.1757	0.2675	0.2878	0.155
Mof_C 	C 	0.2569	0.0655	0.5164	0.275
Mof_C 	C 	0.2596	0.9592	0.5167	0.088
Mof_C 	C 	0.2516	0.925	0.4602	-0.353
Mof_H 	H 	0.2203	0.8964	0.4303	0.08
Mof_H 	H 	0.2756	0.8779	0.4733	0.084
Mof_H 	H 	0.2538	0.9784	0.4403	0.104
Mof_C 	C 	0.3045	0.922	0.5651	-0.224
Mof_H 	H 	0.328	0.9563	0.5673	-0.085
Mof_H 	H 	0.305	0.8549	0.5568	0.04
Mof_H 	H 	0.3117	0.9283	0.605	0.143
Mof_C 	C 	0.2246	0.923	0.5187	-0.158
Mof_H 	H 	0.193	0.9397	0.4798	0.119
Mof_H 	H 	0.2299	0.9505	0.5545	0.114
Mof_H 	H 	0.2273	0.8539	0.5231	0.066
Mof_C 	C 	0.9878	0.8165	0.4877	0.24
Mof_C 	C 	0.9839	0.7088	0.4838	0.275
Mof_C 	C 	0.9826	0.6742	0.4319	-0.509
Mof_H 	H 	0.0116	0.6935	0.4413	0.126
Mof_H 	H 	0.9554	0.7017	0.3918	0.148
Mof_H 	H 	0.9801	0.6051	0.4293	0.133
Mof_C 	C 	0.0263	0.6676	0.5471	-0.527
Mof_H 	H 	0.0266	0.6905	0.5798	0.129
Mof_H 	H 	0.0554	0.6873	0.5568	0.141
Mof_H 	H 	0.0243	0.5985	0.5452	0.13
Mof_C 	C 	0.9395	0.6827	0.4707	-0.566
Mof_H 	H 	0.9123	0.7112	0.431	0.165
Mof_H 	H 	0.9413	0.7061	0.5047	0.167
Mof_H 	H 	0.936	0.6139	0.468	0.151
Mof_C 	C 	0.9118	0.0365	0.442	0.268
Mof_C 	C 	0.8623	0.0721	0.4102	0.248
Mof_C 	C 	0.8353	0.958	0.3848	-0.442
Mof_H 	H 	0.8484	0.9188	0.4214	0.117
Mof_H 	H 	0.8413	0.9287	0.3596	0.107
Mof_H 	H 	0.8012	0.9651	0.3594	0.078
Mof_C 	C 	0.8599	0.1	0.4574	-0.12
Mof_H 	H 	0.8761	0.0526	0.491	-0.036
Mof_H 	H 	0.8269	0.104	0.438	-0.076
Mof_H 	H 	0.8751	0.1614	0.4749	-0.004
Mof_C 	C 	0.8413	0.125	0.3553	-0.183
Mof_H 	H 	0.8466	0.0928	0.3298	0.031
Mof_H 	H 	0.8552	0.1879	0.3665	0.244
Mof_H 	H 	0.8074	0.1299	0.3312	0.008
Mof_C 	C 	0.2173	0.907	0.4922	-0.262
Mof_H 	H 	0.1929	0.9489	0.4577	-0.005
Mof_H 	H 	0.2056	0.8784	0.511	0.038
Mof_H 	H 	0.225	0.858	0.4762	0.074
Mof_C 	C 	0.3126	0.934	0.5802	-0.2
Mof_H 	H 	0.3165	0.8703	0.597	0.024
Mof_H 	H 	0.3338	0.9777	0.615	0.029
Mof_H 	H 	0.32	0.9324	0.5532	0.223
Mof_C 	C 	0.2618	0.9659	0.5423	0.095
Mof_C 	C 	0.2638	0.9812	0.5992	-0.464
Mof_H 	H 	0.2369	0.9496	0.5903	0.082
Mof_H 	H 	0.2626	0.049	0.6052	0.13
Mof_H 	H 	0.2931	0.9546	0.6374	0.112
Mof_C 	C 	0.8494	0.077	0.4466	-0.218
Mof_H 	H 	0.8769	0.0945	0.4897	0.135
Mof_H 	H 	0.8378	0.015	0.4466	0.069
Mof_H 	H 	0.8246	0.1241	0.4288	0.161
Mof_C 	C 	0.825	0.045	0.3425	-0.278
Mof_H 	H 	0.8383	0.0461	0.3224	0.071
Mof_H 	H 	0.7989	0.0901	0.3213	0.084
Mof_H 	H 	0.8135	0.9814	0.3394	0.163
Mof_C 	C 	0.872	0.193	0.4071	-0.636
Mof_H 	H 	0.8811	0.2013	0.3822	0.063
Mof_H 	H 	0.8972	0.2166	0.4497	0.188
Mof_H 	H 	0.843	0.2285	0.3878	0.136
Mof_Ru	Ru	0.7102	0.74479	0.46714	0.958
Mof_Ru	Ru	0.49163	0.50326	0.45369	0.954
Mof_Mo	Mo	0.52038	0.81585	0.34845	1.669
Mof_Mo	Mo	0.59896	0.63523	0.41376	1.717
Mof_Mo	Mo	0.59211	0.79405	0.31655	1.694
Mof_Mo	Mo	0.59085	0.46139	0.30913	1.672
Mof_Mo	Mo	0.51199	0.43924	0.34315	1.687
Mof_Mo	Mo	0.43641	0.61991	0.30132	1.684
Mof_O 	O 	0.7076	0.7299	0.3948	-0.423
Mof_O 	O 	0.7164	0.6031	0.4795	-0.435
Mof_O 	O 	0.7945	0.6131	0.5435	-0.433
Mof_O 	O 	0.7858	0.7385	0.459	-0.428
Mof_O 	O 	0.4817	0.3616	0.4446	-0.43
Mof_O 	O 	0.4237	0.5269	0.4097	-0.439
Mof_O 	O 	0.4977	0.3565	0.5353	-0.42
Mof_O 	O 	0.4398	0.5211	0.5	-0.437
Mof_O 	O 	0.537	0.6894	0.3066	-0.563
Mof_O 	O 	0.5241	0.565	0.2343	-0.562
Mof_O 	O 	0.572	0.7374	0.4199	-0.718
Mof_O 	O 	0.6288	0.7311	0.395	-0.721
Mof_O 	O 	0.5632	0.8663	0.345	-0.716
Mof_O 	O 	0.6106	0.5498	0.3684	-0.715
Mof_O 	O 	0.5472	0.4188	0.321	-0.732
Mof_O 	O 	0.5576	0.5456	0.3953	-0.723
Mof_O 	O 	0.6052	0.5256	0.2668	-0.708
Mof_O 	O 	0.543	0.3892	0.227	-0.715
Mof_O 	O 	0.4738	0.5181	0.3554	-0.719
Mof_O 	O 	0.4821	0.7102	0.3426	-0.714
Mof_O 	O 	0.4053	0.7037	0.2261	-0.727
Mof_O 	O 	0.4669	0.8355	0.266	-0.734
Mof_C 	C 	0.7461	0.7287	0.4051	0.221
Mof_C 	C 	0.7425	0.7131	0.3487	0.326
Mof_C 	C 	0.724	0.6099	0.3267	-0.592
Mof_H 	H 	0.7459	0.5661	0.3612	0.173
Mof_H 	H 	0.7216	0.5945	0.2911	0.165
Mof_H 	H 	0.6929	0.6045	0.314	0.18
Mof_C 	C 	0.7901	0.722	0.3687	-0.636
Mof_H 	H 	0.8016	0.7868	0.3828	0.184
Mof_H 	H 	0.788	0.7073	0.3332	0.18
Mof_H 	H 	0.8119	0.6779	0.4031	0.192
Mof_C 	C 	0.7053	0.7778	0.2968	-0.589
Mof_H 	H 	0.7006	0.7647	0.2591	0.156
Mof_H 	H 	0.7153	0.8436	0.3096	0.159
Mof_H 	H 	0.6757	0.7675	0.2878	0.155
Mof_C 	C 	0.7569	0.5655	0.5164	0.274
Mof_C 	C 	0.7596	0.4592	0.5167	0.089
Mof_C 	C 	0.7516	0.425	0.4602	-0.354
Mof_H 	H 	0.7203	0.3964	0.4303	0.081
Mof_H 	H 	0.7756	0.3779	0.4733	0.084
Mof_H 	H 	0.7538	0.4784	0.4403	0.105
Mof_C 	C 	0.8045	0.422	0.5651	-0.225
Mof_H 	H 	0.828	0.4563	0.5673	-0.085
Mof_H 	H 	0.805	0.3549	0.5568	0.041
Mof_H 	H 	0.8117	0.4283	0.605	0.143
Mof_C 	C 	0.7246	0.423	0.5187	-0.159
Mof_H 	H 	0.693	0.4397	0.4798	0.119
Mof_H 	H 	0.7299	0.4505	0.5545	0.114
Mof_H 	H 	0.7273	0.3539	0.5231	0.066
Mof_C 	C 	0.4878	0.3165	0.4877	0.24
Mof_C 	C 	0.4839	0.2088	0.4838	0.272
Mof_C 	C 	0.4826	0.1742	0.4319	-0.534
Mof_H 	H 	0.5116	0.1935	0.4413	0.14
Mof_H 	H 	0.4554	0.2017	0.3918	0.154
Mof_H 	H 	0.4801	0.1051	0.4293	0.137
Mof_C 	C 	0.5263	0.1676	0.5471	-0.516
Mof_H 	H 	0.5266	0.1905	0.5798	0.129
Mof_H 	H 	0.5554	0.1873	0.5568	0.139
Mof_H 	H 	0.5243	0.0985	0.5452	0.13
Mof_C 	C 	0.4395	0.1827	0.4707	-0.564
Mof_H 	H 	0.4123	0.2112	0.431	0.165
Mof_H 	H 	0.4413	0.2061	0.5047	0.165
Mof_H 	H 	0.436	0.1139	0.468	0.149
Mof_C 	C 	0.4118	0.5365	0.442	0.268
Mof_C 	C 	0.3623	0.5721	0.4102	0.249
Mof_C 	C 	0.3353	0.458	0.3848	-0.442
Mof_H 	H 	0.3484	0.4188	0.4214	0.117
Mof_H 	H 	0.3413	0.4287	0.3596	0.107
Mof_H 	H 	0.3012	0.4651	0.3594	0.078
Mof_C 	C 	0.3599	0.6	0.4574	-0.12
Mof_H 	H 	0.3761	0.5526	0.491	-0.036
Mof_H 	H 	0.3269	0.604	0.438	-0.076
Mof_H 	H 	0.3751	0.6614	0.4749	-0.004
Mof_C 	C 	0.3413	0.625	0.3553	-0.185
Mof_H 	H 	0.3466	0.5928	0.3298	0.031
Mof_H 	H 	0.3552	0.6879	0.3665	0.244
Mof_H 	H 	0.3074	0.6299	0.3312	0.009
Mof_C 	C 	0.7173	0.407	0.4922	-0.262
Mof_H 	H 	0.6929	0.4489	0.4577	-0.005
Mof_H 	H 	0.7056	0.3784	0.511	0.038
Mof_H 	H 	0.725	0.358	0.4762	0.074
Mof_C 	C 	0.8126	0.434	0.5802	-0.201
Mof_H 	H 	0.8165	0.3703	0.597	0.024
Mof_H 	H 	0.8338	0.4777	0.615	0.029
Mof_H 	H 	0.82	0.4324	0.5532	0.223
Mof_C 	C 	0.7618	0.4659	0.5423	0.095
Mof_C 	C 	0.7638	0.4812	0.5992	-0.467
Mof_H 	H 	0.7369	0.4496	0.5903	0.082
Mof_H 	H 	0.7626	0.549	0.6052	0.132
Mof_H 	H 	0.7931	0.4546	0.6374	0.112
Mof_C 	C 	0.3494	0.577	0.4466	-0.218
Mof_H 	H 	0.3769	0.5945	0.4897	0.135
Mof_H 	H 	0.3378	0.515	0.4466	0.069
Mof_H 	H 	0.3246	0.6241	0.4288	0.161
Mof_C 	C 	0.325	0.545	0.3425	-0.278
Mof_H 	H 	0.3383	0.5461	0.3224	0.07
Mof_H 	H 	0.2989	0.5901	0.3213	0.083
Mof_H 	H 	0.3135	0.4814	0.3394	0.164
Mof_C 	C 	0.372	0.693	0.4071	-0.635
Mof_H 	H 	0.3811	0.7013	0.3822	0.062
Mof_H 	H 	0.3972	0.7166	0.4497	0.187
Mof_H 	H 	0.343	0.7285	0.3878	0.136
Mof_Ru	Ru	0.2102	0.75521	0.96714	0.925
Mof_Ru	Ru	0.99163	0.99674	0.95369	0.956
Mof_Mo	Mo	0.02038	0.68415	0.84845	1.646
Mof_Mo	Mo	0.09896	0.86477	0.91376	1.704
Mof_Mo	Mo	0.09211	0.70595	0.81655	1.693
Mof_Mo	Mo	0.09085	0.03861	0.80913	1.656
Mof_Mo	Mo	0.01199	0.06076	0.84315	1.646
Mof_Mo	Mo	0.93641	0.88009	0.80132	1.683
Mof_O 	O 	0.2076	0.7701	0.8948	-0.421
Mof_O 	O 	0.2164	0.8969	0.9795	-0.44
Mof_O 	O 	0.2945	0.8869	0.0435	-0.434
Mof_O 	O 	0.2858	0.7615	0.959	-0.44
Mof_O 	O 	0.9817	0.1384	0.9446	-0.426
Mof_O 	O 	0.9237	0.9731	0.9097	-0.435
Mof_O 	O 	0.9977	0.1435	0.0353	-0.396
Mof_O 	O 	0.9398	0.9789	-0	-0.422
Mof_O 	O 	0.037	0.8106	0.8066	-0.561
Mof_O 	O 	0.0241	0.935	0.7343	-0.561
Mof_O 	O 	0.072	0.7626	0.9199	-0.717
Mof_O 	O 	0.1288	0.7689	0.895	-0.718
Mof_O 	O 	0.0632	0.6337	0.845	-0.715
Mof_O 	O 	0.1106	0.9502	0.8684	-0.709
Mof_O 	O 	0.0472	0.0812	0.821	-0.729
Mof_O 	O 	0.0576	0.9544	0.8953	-0.72
Mof_O 	O 	0.1052	0.9744	0.7668	-0.703
Mof_O 	O 	0.043	0.1108	0.727	-0.721
Mof_O 	O 	0.9738	0.9819	0.8554	-0.709
Mof_O 	O 	0.9821	0.7898	0.8426	-0.705
Mof_O 	O 	0.9053	0.7963	0.7261	-0.726
Mof_O 	O 	0.9669	0.6645	0.766	-0.725
Mof_C 	C 	0.2461	0.7713	0.9051	0.223
Mof_C 	C 	0.2425	0.7869	0.8487	0.323
Mof_C 	C 	0.224	0.8901	0.8267	-0.59
Mof_H 	H 	0.2459	0.9339	0.8612	0.172
Mof_H 	H 	0.2216	0.9055	0.7911	0.165
Mof_H 	H 	0.1929	0.8955	0.814	0.18
Mof_C 	C 	0.2901	0.778	0.8687	-0.631
Mof_H 	H 	0.3016	0.7132	0.8828	0.181
Mof_H 	H 	0.288	0.7927	0.8332	0.178
Mof_H 	H 	0.3119	0.8221	0.9031	0.188
Mof_C 	C 	0.2053	0.7222	0.7968	-0.586
Mof_H 	H 	0.2006	0.7353	0.7591	0.155
Mof_H 	H 	0.2153	0.6564	0.8096	0.158
Mof_H 	H 	0.1757	0.7325	0.7878	0.154
Mof_C 	C 	0.2569	0.9345	0.0164	0.279
Mof_C 	C 	0.2596	0.0408	0.0167	0.092
Mof_C 	C 	0.2516	0.075	0.9602	-0.375
Mof_H 	H 	0.2203	0.1036	0.9303	0.086
Mof_H 	H 	0.2756	0.1221	0.9733	0.082
Mof_H 	H 	0.2538	0.0216	0.9403	0.106
Mof_C 	C 	0.3045	0.078	0.0651	-0.238
Mof_H 	H 	0.328	0.0437	0.0673	-0.107
Mof_H 	H 	0.305	0.1451	0.0568	0.047
Mof_H 	H 	0.3117	0.0717	0.105	0.152
Mof_C 	C 	0.2246	0.077	0.0187	-0.227
Mof_H 	H 	0.193	0.0603	0.9798	0.119
Mof_H 	H 	0.2299	0.0495	0.0545	0.14
Mof_H 	H 	0.2273	0.1461	0.0231	0.076
Mof_C 	C 	0.9878	0.1835	0.9877	0.214
Mof_C 	C 	0.9839	0.2912	0.9838	0.278
Mof_C 	C 	0.9826	0.3258	0.9319	-0.509
Mof_H 	H 	0.0116	0.3065	0.9413	0.121
Mof_H 	H 	0.9554	0.2983	0.8918	0.148
Mof_H 	H 	0.9801	0.3949	0.9293	0.131
Mof_C 	C 	0.0263	0.3324	0.0471	-0.512
Mof_H 	H 	0.0266	0.3095	0.0798	0.127
Mof_H 	H 	0.0554	0.3127	0.0568	0.141
Mof_H 	H 	0.0243	0.4015	0.0452	0.131
Mof_C 	C 	0.9395	0.3173	0.9707	-0.624
Mof_H 	H 	0.9123	0.2888	0.931	0.18
Mof_H 	H 	0.9413	0.2939	0.0047	0.196
Mof_H 	H 	0.936	0.3861	0.968	0.162
Mof_C 	C 	0.9118	0.9635	0.942	0.255
Mof_C 	C 	0.8623	0.9279	0.9102	0.249
Mof_C 	C 	0.8353	0.042	0.8848	-0.44
Mof_H 	H 	0.8484	0.0812	0.9214	0.113
Mof_H 	H 	0.8413	0.0713	0.8596	0.105
Mof_H 	H 	0.8012	0.0349	0.8594	0.076
Mof_C 	C 	0.8599	0.9	0.9574	-0.119
Mof_H 	H 	0.8761	0.9474	0.991	-0.041
Mof_H 	H 	0.8269	0.896	0.938	-0.075
Mof_H 	H 	0.8751	0.8386	0.9749	-0.007
Mof_C 	C 	0.8413	0.875	0.8553	-0.179
Mof_H 	H 	0.8466	0.9072	0.8298	0.029
Mof_H 	H 	0.8552	0.8121	0.8665	0.242
Mof_H 	H 	0.8074	0.8701	0.8312	0.006
Mof_C 	C 	0.2173	0.093	0.9922	-0.237
Mof_H 	H 	0.1929	0.0511	0.9577	-0.013
Mof_H 	H 	0.2056	0.1216	0.011	0.058
Mof_H 	H 	0.225	0.142	0.9762	0.06
Mof_C 	C 	0.3126	0.066	0.0802	-0.223
Mof_H 	H 	0.3165	0.1297	0.097	0.029
Mof_H 	H 	0.3338	0.0223	0.115	0.036
Mof_H 	H 	0.32	0.0676	0.0532	0.261
Mof_C 	C 	0.2618	0.0341	0.0423	0.134
Mof_C 	C 	0.2638	0.0188	0.0992	-0.493
Mof_H 	H 	0.2369	0.0504	0.0903	0.082
Mof_H 	H 	0.2626	0.951	0.1052	0.138
Mof_H 	H 	0.2931	0.0454	0.1374	0.119
Mof_C 	C 	0.8494	0.923	0.9466	-0.216
Mof_H 	H 	0.8769	0.9055	0.9897	0.135
Mof_H 	H 	0.8378	0.985	0.9466	0.067
Mof_H 	H 	0.8246	0.8759	0.9288	0.159
Mof_C 	C 	0.825	0.955	0.8425	-0.28
Mof_H 	H 	0.8383	0.9539	0.8224	0.073
Mof_H 	H 	0.7989	0.9099	0.8213	0.086
Mof_H 	H 	0.8135	0.0186	0.8394	0.163
Mof_C 	C 	0.872	0.807	0.9071	-0.633
Mof_H 	H 	0.8811	0.7987	0.8822	0.063
Mof_H 	H 	0.8972	0.7834	0.9497	0.184
Mof_H 	H 	0.843	0.7715	0.8878	0.135
Mof_Ru	Ru	0.7102	0.25521	0.96714	0.916
Mof_Ru	Ru	0.49163	0.49674	0.95369	0.92
Mof_Mo	Mo	0.52038	0.18415	0.84845	1.666
Mof_Mo	Mo	0.59896	0.36477	0.91376	1.706
Mof_Mo	Mo	0.59211	0.20595	0.81655	1.693
Mof_Mo	Mo	0.59085	0.53861	0.80913	1.669
Mof_Mo	Mo	0.51199	0.56076	0.84315	1.68
Mof_Mo	Mo	0.43641	0.38009	0.80132	1.684
Mof_O 	O 	0.7076	0.2701	0.8948	-0.42
Mof_O 	O 	0.7164	0.3969	0.9795	-0.446
Mof_O 	O 	0.7945	0.3869	0.0435	-0.436
Mof_O 	O 	0.7858	0.2615	0.959	-0.444
Mof_O 	O 	0.4817	0.6384	0.9446	-0.424
Mof_O 	O 	0.4237	0.4731	0.9097	-0.431
Mof_O 	O 	0.4977	0.6435	0.0353	-0.408
Mof_O 	O 	0.4398	0.4789	-0	-0.42
Mof_O 	O 	0.537	0.3106	0.8066	-0.562
Mof_O 	O 	0.5241	0.435	0.7343	-0.561
Mof_O 	O 	0.572	0.2626	0.9199	-0.719
Mof_O 	O 	0.6288	0.2689	0.895	-0.717
Mof_O 	O 	0.5632	0.1337	0.845	-0.717
Mof_O 	O 	0.6106	0.4502	0.8684	-0.714
Mof_O 	O 	0.5472	0.5812	0.821	-0.732
Mof_O 	O 	0.5576	0.4544	0.8953	-0.724
Mof_O 	O 	0.6052	0.4744	0.7668	-0.707
Mof_O 	O 	0.543	0.6108	0.727	-0.714
Mof_O 	O 	0.4738	0.4819	0.8554	-0.717
Mof_O 	O 	0.4821	0.2898	0.8426	-0.713
Mof_O 	O 	0.4053	0.2963	0.7261	-0.726
Mof_O 	O 	0.4669	0.1645	0.766	-0.734
Mof_C 	C 	0.7461	0.2713	0.9051	0.224
Mof_C 	C 	0.7425	0.2869	0.8487	0.32
Mof_C 	C 	0.724	0.3901	0.8267	-0.586
Mof_H 	H 	0.7459	0.4339	0.8612	0.17
Mof_H 	H 	0.7216	0.4055	0.7911	0.164
Mof_H 	H 	0.6929	0.3955	0.814	0.178
Mof_C 	C 	0.7901	0.278	0.8687	-0.627
Mof_H 	H 	0.8016	0.2132	0.8828	0.179
Mof_H 	H 	0.788	0.2927	0.8332	0.176
Mof_H 	H 	0.8119	0.3221	0.9031	0.186
Mof_C 	C 	0.7053	0.2222	0.7968	-0.583
Mof_H 	H 	0.7006	0.2353	0.7591	0.154
Mof_H 	H 	0.7153	0.1564	0.8096	0.157
Mof_H 	H 	0.6757	0.2325	0.7878	0.153
Mof_C 	C 	0.7569	0.4345	0.0164	0.288
Mof_C 	C 	0.7596	0.5408	0.0167	0.092
Mof_C 	C 	0.7516	0.575	0.9602	-0.372
Mof_H 	H 	0.7203	0.6036	0.9303	0.086
Mof_H 	H 	0.7756	0.6221	0.9733	0.084
Mof_H 	H 	0.7538	0.5216	0.9403	0.107
Mof_C 	C 	0.8045	0.578	0.0651	-0.234
Mof_H 	H 	0.828	0.5437	0.0673	-0.102
Mof_H 	H 	0.805	0.6451	0.0568	0.045
Mof_H 	H 	0.8117	0.5717	0.105	0.15
Mof_C 	C 	0.7246	0.577	0.0187	-0.211
Mof_H 	H 	0.693	0.5603	0.9798	0.118
Mof_H 	H 	0.7299	0.5495	0.0545	0.135
Mof_H 	H 	0.7273	0.6461	0.0231	0.073
Mof_C 	C 	0.4878	0.6835	0.9877	0.217
Mof_C 	C 	0.4839	0.7912	0.9838	0.277
Mof_C 	C 	0.4826	0.8258	0.9319	-0.539
Mof_H 	H 	0.5116	0.8065	0.9413	0.138
Mof_H 	H 	0.4554	0.7983	0.8918	0.155
Mof_H 	H 	0.4801	0.8949	0.9293	0.137
Mof_C 	C 	0.5263	0.8324	0.0471	-0.508
Mof_H 	H 	0.5266	0.8095	0.0798	0.128
Mof_H 	H 	0.5554	0.8127	0.0568	0.14
Mof_H 	H 	0.5243	0.9015	0.0452	0.131
Mof_C 	C 	0.4395	0.8173	0.9707	-0.612
Mof_H 	H 	0.4123	0.7888	0.931	0.177
Mof_H 	H 	0.4413	0.7939	0.0047	0.188
Mof_H 	H 	0.436	0.8861	0.968	0.159
Mof_C 	C 	0.4118	0.4635	0.942	0.248
Mof_C 	C 	0.3623	0.4279	0.9102	0.251
Mof_C 	C 	0.3353	0.542	0.8848	-0.439
Mof_H 	H 	0.3484	0.5812	0.9214	0.114
Mof_H 	H 	0.3413	0.5713	0.8596	0.106
Mof_H 	H 	0.3012	0.5349	0.8594	0.077
Mof_C 	C 	0.3599	0.4	0.9574	-0.119
Mof_H 	H 	0.3761	0.4474	0.991	-0.042
Mof_H 	H 	0.3269	0.396	0.938	-0.076
Mof_H 	H 	0.3751	0.3386	0.9749	-0.008
Mof_C 	C 	0.3413	0.375	0.8553	-0.185
Mof_H 	H 	0.3466	0.4072	0.8298	0.032
Mof_H 	H 	0.3552	0.3121	0.8665	0.244
Mof_H 	H 	0.3074	0.3701	0.8312	0.009
Mof_C 	C 	0.7173	0.593	0.9922	-0.24
Mof_H 	H 	0.6929	0.5511	0.9577	-0.011
Mof_H 	H 	0.7056	0.6216	0.011	0.053
Mof_H 	H 	0.725	0.642	0.9762	0.062
Mof_C 	C 	0.8126	0.566	0.0802	-0.217
Mof_H 	H 	0.8165	0.6297	0.097	0.028
Mof_H 	H 	0.8338	0.5223	0.115	0.034
Mof_H 	H 	0.82	0.5676	0.0532	0.252
Mof_C 	C 	0.7618	0.5341	0.0423	0.121
Mof_C 	C 	0.7638	0.5188	0.0992	-0.49
Mof_H 	H 	0.7369	0.5504	0.0903	0.083
Mof_H 	H 	0.7626	0.451	0.1052	0.139
Mof_H 	H 	0.7931	0.5454	0.1374	0.118
Mof_C 	C 	0.3494	0.423	0.9466	-0.216
Mof_H 	H 	0.3769	0.4055	0.9897	0.135
Mof_H 	H 	0.3378	0.485	0.9466	0.066
Mof_H 	H 	0.3246	0.3759	0.9288	0.159
Mof_C 	C 	0.325	0.455	0.8425	-0.28
Mof_H 	H 	0.3383	0.4539	0.8224	0.071
Mof_H 	H 	0.2989	0.4099	0.8213	0.084
Mof_H 	H 	0.3135	0.5186	0.8394	0.164
Mof_C 	C 	0.372	0.307	0.9071	-0.63
Mof_H 	H 	0.3811	0.2987	0.8822	0.06
Mof_H 	H 	0.3972	0.2834	0.9497	0.182
Mof_H 	H 	0.343	0.2715	0.8878	0.133
Mof_Ru	Ru	0.7898	0.75521	0.53286	0.958
Mof_Ru	Ru	0.00837	0.99674	0.54631	0.926
Mof_Mo	Mo	0.97962	0.68415	0.65155	1.691
Mof_Mo	Mo	0.90104	0.86477	0.58624	1.718
Mof_Mo	Mo	0.90789	0.70595	0.68345	1.694
Mof_Mo	Mo	0.90915	0.03861	0.69087	1.665
Mof_Mo	Mo	0.98801	0.06076	0.65685	1.707
Mof_Mo	Mo	0.06359	0.88009	0.69868	1.684
Mof_O 	O 	0.7924	0.7701	0.6052	-0.423
Mof_O 	O 	0.7836	0.8969	0.5205	-0.435
Mof_O 	O 	0.7055	0.8869	0.4565	-0.434
Mof_O 	O 	0.7142	0.7615	0.541	-0.428
Mof_O 	O 	0.0183	0.1384	0.5554	-0.43
Mof_O 	O 	0.0763	0.9731	0.5903	-0.437
Mof_O 	O 	0.0023	0.1435	0.4647	-0.43
Mof_O 	O 	0.0602	0.9789	0.5	-0.443
Mof_O 	O 	0.963	0.8106	0.6934	-0.557
Mof_O 	O 	0.9759	0.935	0.7657	-0.549
Mof_O 	O 	0.928	0.7626	0.5801	-0.72
Mof_O 	O 	0.8712	0.7689	0.605	-0.721
Mof_O 	O 	0.9368	0.6337	0.655	-0.718
Mof_O 	O 	0.8894	0.9502	0.6316	-0.713
Mof_O 	O 	0.9528	0.0812	0.679	-0.732
Mof_O 	O 	0.9424	0.9544	0.6047	-0.722
Mof_O 	O 	0.8948	0.9744	0.7332	-0.705
Mof_O 	O 	0.957	0.1108	0.773	-0.703
Mof_O 	O 	0.0262	0.9819	0.6446	-0.722
Mof_O 	O 	0.0179	0.7898	0.6574	-0.721
Mof_O 	O 	0.0947	0.7963	0.7739	-0.726
Mof_O 	O 	0.0331	0.6645	0.734	-0.742
Mof_C 	C 	0.7539	0.7713	0.5949	0.221
Mof_C 	C 	0.7575	0.7869	0.6513	0.327
Mof_C 	C 	0.776	0.8901	0.6733	-0.594
Mof_H 	H 	0.7541	0.9339	0.6388	0.174
Mof_H 	H 	0.7784	0.9055	0.7089	0.166
Mof_H 	H 	0.8071	0.8955	0.686	0.181
Mof_C 	C 	0.7099	0.778	0.6313	-0.637
Mof_H 	H 	0.6984	0.7132	0.6172	0.184
Mof_H 	H 	0.712	0.7927	0.6668	0.18
Mof_H 	H 	0.6881	0.8221	0.5969	0.192
Mof_C 	C 	0.7947	0.7222	0.7032	-0.59
Mof_H 	H 	0.7994	0.7353	0.7409	0.157
Mof_H 	H 	0.7847	0.6564	0.6904	0.159
Mof_H 	H 	0.8243	0.7325	0.7122	0.155
Mof_C 	C 	0.7431	0.9345	0.4836	0.275
Mof_C 	C 	0.7404	0.0408	0.4833	0.09
Mof_C 	C 	0.7484	0.075	0.5398	-0.354
Mof_H 	H 	0.7797	0.1036	0.5697	0.081
Mof_H 	H 	0.7244	0.1221	0.5267	0.084
Mof_H 	H 	0.7462	0.0216	0.5597	0.104
Mof_C 	C 	0.6955	0.078	0.4349	-0.224
Mof_H 	H 	0.672	0.0437	0.4327	-0.085
Mof_H 	H 	0.695	0.1451	0.4432	0.04
Mof_H 	H 	0.6883	0.0717	0.395	0.143
Mof_C 	C 	0.7754	0.077	0.4813	-0.158
Mof_H 	H 	0.807	0.0603	0.5202	0.119
Mof_H 	H 	0.7701	0.0495	0.4455	0.114
Mof_H 	H 	0.7727	0.1461	0.4769	0.066
Mof_C 	C 	0.0122	0.1835	0.5123	0.239
Mof_C 	C 	0.0161	0.2912	0.5162	0.269
Mof_C 	C 	0.0174	0.3258	0.5681	-0.562
Mof_H 	H 	0.9884	0.3065	0.5587	0.154
Mof_H 	H 	0.0446	0.2983	0.6082	0.16
Mof_H 	H 	0.0199	0.3949	0.5707	0.142
Mof_C 	C 	0.9737	0.3324	0.4529	-0.506
Mof_H 	H 	0.9734	0.3095	0.4202	0.13
Mof_H 	H 	0.9446	0.3127	0.4432	0.138
Mof_H 	H 	0.9757	0.4015	0.4548	0.13
Mof_C 	C 	0.0605	0.3173	0.5293	-0.562
Mof_H 	H 	0.0877	0.2888	0.569	0.164
Mof_H 	H 	0.0587	0.2939	0.4953	0.164
Mof_H 	H 	0.064	0.3861	0.532	0.148
Mof_C 	C 	0.0882	0.9635	0.558	0.269
Mof_C 	C 	0.1377	0.9279	0.5898	0.247
Mof_C 	C 	0.1647	0.042	0.6152	-0.441
Mof_H 	H 	0.1516	0.0812	0.5786	0.117
Mof_H 	H 	0.1587	0.0713	0.6404	0.106
Mof_H 	H 	0.1988	0.0349	0.6406	0.077
Mof_C 	C 	0.1401	0.9	0.5426	-0.12
Mof_H 	H 	0.1239	0.9474	0.509	-0.035
Mof_H 	H 	0.1731	0.896	0.562	-0.076
Mof_H 	H 	0.1249	0.8386	0.5251	-0.004
Mof_C 	C 	0.1587	0.875	0.6447	-0.18
Mof_H 	H 	0.1534	0.9072	0.6702	0.029
Mof_H 	H 	0.1448	0.8121	0.6335	0.243
Mof_H 	H 	0.1926	0.8701	0.6688	0.007
Mof_C 	C 	0.7827	0.093	0.5078	-0.261
Mof_H 	H 	0.8071	0.0511	0.5423	-0.006
Mof_H 	H 	0.7944	0.1216	0.489	0.038
Mof_H 	H 	0.775	0.142	0.5238	0.074
Mof_C 	C 	0.6874	0.066	0.4198	-0.2
Mof_H 	H 	0.6835	0.1297	0.403	0.024
Mof_H 	H 	0.6662	0.0223	0.385	0.028
Mof_H 	H 	0.68	0.0676	0.4468	0.223
Mof_C 	C 	0.7382	0.0341	0.4577	0.093
Mof_C 	C 	0.7362	0.0188	0.4008	-0.466
Mof_H 	H 	0.7631	0.0504	0.4097	0.082
Mof_H 	H 	0.7374	0.951	0.3948	0.131
Mof_H 	H 	0.7069	0.0454	0.3626	0.112
Mof_C 	C 	0.1506	0.923	0.5534	-0.218
Mof_H 	H 	0.1231	0.9055	0.5103	0.135
Mof_H 	H 	0.1622	0.985	0.5534	0.069
Mof_H 	H 	0.1754	0.8759	0.5712	0.161
Mof_C 	C 	0.175	0.955	0.6575	-0.279
Mof_H 	H 	0.1617	0.9539	0.6776	0.072
Mof_H 	H 	0.2011	0.9099	0.6787	0.085
Mof_H 	H 	0.1865	0.0186	0.6606	0.163
Mof_C 	C 	0.128	0.807	0.5929	-0.635
Mof_H 	H 	0.1189	0.7987	0.6178	0.062
Mof_H 	H 	0.1028	0.7834	0.5503	0.187
Mof_H 	H 	0.157	0.7715	0.6122	0.136
Mof_Ru	Ru	0.2898	0.25521	0.53286	0.958
Mof_Ru	Ru	0.50837	0.49674	0.54631	0.954
Mof_Mo	Mo	0.47962	0.18415	0.65155	1.669
Mof_Mo	Mo	0.40104	0.36477	0.58624	1.717
Mof_Mo	Mo	0.40789	0.20595	0.68345	1.693
Mof_Mo	Mo	0.40915	0.53861	0.69087	1.672
Mof_Mo	Mo	0.48801	0.56076	0.65685	1.687
Mof_Mo	Mo	0.56359	0.38009	0.69868	1.684
Mof_O 	O 	0.2924	0.2701	0.6052	-0.423
Mof_O 	O 	0.2836	0.3969	0.5205	-0.435
Mof_O 	O 	0.2055	0.3869	0.4565	-0.434
Mof_O 	O 	0.2142	0.2615	0.541	-0.428
Mof_O 	O 	0.5183	0.6384	0.5554	-0.43
Mof_O 	O 	0.5763	0.4731	0.5903	-0.439
Mof_O 	O 	0.5023	0.6435	0.4647	-0.42
Mof_O 	O 	0.5602	0.4789	0.5	-0.437
Mof_O 	O 	0.463	0.3106	0.6934	-0.563
Mof_O 	O 	0.4759	0.435	0.7657	-0.561
Mof_O 	O 	0.428	0.2626	0.5801	-0.718
Mof_O 	O 	0.3712	0.2689	0.605	-0.721
Mof_O 	O 	0.4368	0.1337	0.655	-0.716
Mof_O 	O 	0.3894	0.4502	0.6316	-0.715
Mof_O 	O 	0.4528	0.5812	0.679	-0.732
Mof_O 	O 	0.4424	0.4544	0.6047	-0.723
Mof_O 	O 	0.3948	0.4744	0.7332	-0.707
Mof_O 	O 	0.457	0.6108	0.773	-0.713
Mof_O 	O 	0.5262	0.4819	0.6446	-0.719
Mof_O 	O 	0.5179	0.2898	0.6574	-0.714
Mof_O 	O 	0.5947	0.2963	0.7739	-0.726
Mof_O 	O 	0.5331	0.1645	0.734	-0.734
Mof_C 	C 	0.2539	0.2713	0.5949	0.221
Mof_C 	C 	0.2575	0.2869	0.6513	0.325
Mof_C 	C 	0.276	0.3901	0.6733	-0.591
Mof_H 	H 	0.2541	0.4339	0.6388	0.173
Mof_H 	H 	0.2784	0.4055	0.7089	0.165
Mof_H 	H 	0.3071	0.3955	0.686	0.18
Mof_C 	C 	0.2099	0.278	0.6313	-0.636
Mof_H 	H 	0.1984	0.2132	0.6172	0.183
Mof_H 	H 	0.212	0.2927	0.6668	0.179
Mof_H 	H 	0.1881	0.3221	0.5969	0.191
Mof_C 	C 	0.2947	0.2222	0.7032	-0.587
Mof_H 	H 	0.2994	0.2353	0.7409	0.155
Mof_H 	H 	0.2847	0.1564	0.6904	0.158
Mof_H 	H 	0.3243	0.2325	0.7122	0.154
Mof_C 	C 	0.2431	0.4345	0.4836	0.274
Mof_C 	C 	0.2404	0.5408	0.4833	0.089
Mof_C 	C 	0.2484	0.575	0.5398	-0.354
Mof_H 	H 	0.2797	0.6036	0.5697	0.081
Mof_H 	H 	0.2244	0.6221	0.5267	0.084
Mof_H 	H 	0.2462	0.5216	0.5597	0.105
Mof_C 	C 	0.1955	0.578	0.4349	-0.224
Mof_H 	H 	0.172	0.5437	0.4327	-0.085
Mof_H 	H 	0.195	0.6451	0.4432	0.04
Mof_H 	H 	0.1883	0.5717	0.395	0.143
Mof_C 	C 	0.2754	0.577	0.4813	-0.158
Mof_H 	H 	0.307	0.5603	0.5202	0.119
Mof_H 	H 	0.2701	0.5495	0.4455	0.114
Mof_H 	H 	0.2727	0.6461	0.4769	0.066
Mof_C 	C 	0.5122	0.6835	0.5123	0.24
Mof_C 	C 	0.5161	0.7912	0.5162	0.272
Mof_C 	C 	0.5174	0.8258	0.5681	-0.535
Mof_H 	H 	0.4884	0.8065	0.5587	0.14
Mof_H 	H 	0.5446	0.7983	0.6082	0.154
Mof_H 	H 	0.5199	0.8949	0.5707	0.138
Mof_C 	C 	0.4737	0.8324	0.4529	-0.517
Mof_H 	H 	0.4734	0.8095	0.4202	0.13
Mof_H 	H 	0.4446	0.8127	0.4432	0.139
Mof_H 	H 	0.4757	0.9015	0.4548	0.13
Mof_C 	C 	0.5605	0.8173	0.5293	-0.564
Mof_H 	H 	0.5877	0.7888	0.569	0.165
Mof_H 	H 	0.5587	0.7939	0.4953	0.166
Mof_H 	H 	0.564	0.8861	0.532	0.149
Mof_C 	C 	0.5882	0.4635	0.558	0.268
Mof_C 	C 	0.6377	0.4279	0.5898	0.248
Mof_C 	C 	0.6647	0.542	0.6152	-0.442
Mof_H 	H 	0.6516	0.5812	0.5786	0.117
Mof_H 	H 	0.6587	0.5713	0.6404	0.107
Mof_H 	H 	0.6988	0.5349	0.6406	0.078
Mof_C 	C 	0.6401	0.4	0.5426	-0.12
Mof_H 	H 	0.6239	0.4474	0.509	-0.036
Mof_H 	H 	0.6731	0.396	0.562	-0.076
Mof_H 	H 	0.6249	0.3386	0.5251	-0.004
Mof_C 	C 	0.6587	0.375	0.6447	-0.185
Mof_H 	H 	0.6534	0.4072	0.6702	0.031
Mof_H 	H 	0.6448	0.3121	0.6335	0.244
Mof_H 	H 	0.6926	0.3701	0.6688	0.009
Mof_C 	C 	0.2827	0.593	0.5078	-0.262
Mof_H 	H 	0.3071	0.5511	0.5423	-0.005
Mof_H 	H 	0.2944	0.6216	0.489	0.038
Mof_H 	H 	0.275	0.642	0.5238	0.074
Mof_C 	C 	0.1874	0.566	0.4198	-0.2
Mof_H 	H 	0.1835	0.6297	0.403	0.024
Mof_H 	H 	0.1662	0.5223	0.385	0.028
Mof_H 	H 	0.18	0.5676	0.4468	0.223
Mof_C 	C 	0.2382	0.5341	0.4577	0.094
Mof_C 	C 	0.2362	0.5188	0.4008	-0.466
Mof_H 	H 	0.2631	0.5504	0.4097	0.082
Mof_H 	H 	0.2374	0.451	0.3948	0.131
Mof_H 	H 	0.2069	0.5454	0.3626	0.112
Mof_C 	C 	0.6506	0.423	0.5534	-0.218
Mof_H 	H 	0.6231	0.4055	0.5103	0.135
Mof_H 	H 	0.6622	0.485	0.5534	0.069
Mof_H 	H 	0.6754	0.3759	0.5712	0.161
Mof_C 	C 	0.675	0.455	0.6575	-0.278
Mof_H 	H 	0.6617	0.4539	0.6776	0.07
Mof_H 	H 	0.7011	0.4099	0.6787	0.083
Mof_H 	H 	0.6865	0.5186	0.6606	0.164
Mof_C 	C 	0.628	0.307	0.5929	-0.635
Mof_H 	H 	0.6189	0.2987	0.6178	0.062
Mof_H 	H 	0.6028	0.2834	0.5503	0.187
Mof_H 	H 	0.657	0.2715	0.6122	0.136
Mof_P 	P 	1.16989e-33	0.1274	0.25	0.683
Mof_P 	P 	0.5	0.6274	0.25	0.696
Mof_P 	P 	3.50966e-33	0.8726	0.75	0.682
Mof_P 	P 	0.5	0.3726	0.75	0.696
_end
