data_functionalizedCrystal
_audit_creation_method	'EQeq! by Chris Wilmer'
_symmetry_space_group_name_H-M	'P1'
_symmetry_Int_Tables_number	1
_symmetry_cell_setting	triclinic
loop_
_symmetry_equiv_pos_as_xyz
  x,y,z
_cell_length_a	6.7802
_cell_length_b	22.0278
_cell_length_c	24.3992
_cell_angle_alpha	105.096
_cell_angle_beta	90
_cell_angle_gamma	90
loop_
_atom_site_label
_atom_site_type_symbol
_atom_site_fract_x
_atom_site_fract_y
_atom_site_fract_z
_atom_site_charge
Mof_Zn	Zn	0.52972	0.76124	0.5633	1.222
Mof_Zn	Zn	0.52504	0.73508	0.41829	1.206
Mof_Zn	Zn	0.02972	0.23876	0.9367	1.22
Mof_Zn	Zn	0.02504	0.26492	0.08171	1.205
Mof_Zn	Zn	0.47028	0.23876	0.4367	1.223
Mof_Zn	Zn	0.47496	0.26492	0.58171	1.207
Mof_Zn	Zn	0.97028	0.76124	0.0633	1.221
Mof_Zn	Zn	0.97496	0.73508	0.91829	1.206
Mof_H 	H 	0.3091	0.5969	0.6075	0.036
Mof_H 	H 	0.8459	0.633	0.5162	0.027
Mof_H 	H 	0.0849	0.9048	0.601	0.039
Mof_H 	H 	0.5367	0.9994	0.5571	0.032
Mof_H 	H 	0.5915	0.8082	0.8039	0.04
Mof_H 	H 	0.6149	0.6912	0.6526	0.001
Mof_H 	H 	0.8687	0.6778	0.7102	0.082
Mof_H 	H 	0.3297	0.8235	0.7483	0.056
Mof_H 	H 	0.1737	0.6392	0.7206	0.06
Mof_H 	H 	0.9131	0.8234	0.6065	0.001
Mof_H 	H 	0.4397	0.6247	0.7753	0.039
Mof_H 	H 	0.1726	0.8128	0.6624	0.076
Mof_H 	H 	0.0801	0.1327	0.5187	0.081
Mof_H 	H 	0.7526	0.0828	0.639	0.07
Mof_H 	H 	0.5451	0.1665	0.6395	0.003
Mof_H 	H 	0.8769	0.9887	0.6042	0.072
Mof_H 	H 	0.8586	0.2119	0.5208	0.006
Mof_H 	H 	0.3258	0.0814	0.5541	0.063
Mof_H 	H 	0.0342	0.4179	0.6066	0.086
Mof_H 	H 	0.8788	0.3259	0.6081	-0.01
Mof_H 	H 	0.6797	0.5481	0.5325	0.056
Mof_H 	H 	0.1406	0.5124	0.6243	0.058
Mof_H 	H 	0.3713	0.3888	0.5699	-0.013
Mof_H 	H 	0.5119	0.4849	0.5684	0.072
Mof_H 	H 	0.54	0.781	0.495	-0.09
Mof_H 	H 	0.8091	0.4031	0.8925	0.036
Mof_H 	H 	0.3459	0.367	0.9838	0.026
Mof_H 	H 	0.5849	0.0952	0.899	0.035
Mof_H 	H 	0.0367	0.0006	0.9429	0.027
Mof_H 	H 	0.0915	0.1918	0.6961	0.042
Mof_H 	H 	0.1149	0.3088	0.8474	0.001
Mof_H 	H 	0.3687	0.3222	0.7898	0.081
Mof_H 	H 	0.8297	0.1765	0.7517	0.054
Mof_H 	H 	0.6737	0.3608	0.7794	0.059
Mof_H 	H 	0.4131	0.1766	0.8935	-0
Mof_H 	H 	0.9397	0.3753	0.7247	0.038
Mof_H 	H 	0.6726	0.1872	0.8376	0.078
Mof_H 	H 	0.5801	0.8673	0.9813	0.084
Mof_H 	H 	0.2526	0.9172	0.861	0.069
Mof_H 	H 	0.0451	0.8335	0.8605	0.005
Mof_H 	H 	0.3769	0.0113	0.8958	0.076
Mof_H 	H 	0.3586	0.7881	0.9792	0.006
Mof_H 	H 	0.8258	0.9186	0.9459	0.066
Mof_H 	H 	0.5342	0.5821	0.8934	0.088
Mof_H 	H 	0.3788	0.6741	0.8919	-0.011
Mof_H 	H 	0.1797	0.4519	0.9675	0.056
Mof_H 	H 	0.6406	0.4876	0.8757	0.059
Mof_H 	H 	0.8713	0.6112	0.9301	-0.018
Mof_H 	H 	0.0119	0.5151	0.9316	0.074
Mof_H 	H 	0.04	0.219	0.005	-0.092
Mof_H 	H 	0.6909	0.4031	0.3925	0.036
Mof_H 	H 	0.1541	0.367	0.4838	0.027
Mof_H 	H 	0.9151	0.0952	0.399	0.039
Mof_H 	H 	0.4633	0.0006	0.4429	0.032
Mof_H 	H 	0.4085	0.1918	0.1961	0.04
Mof_H 	H 	0.3851	0.3088	0.3474	0.001
Mof_H 	H 	0.1313	0.3222	0.2898	0.082
Mof_H 	H 	0.6703	0.1765	0.2517	0.056
Mof_H 	H 	0.8263	0.3608	0.2794	0.06
Mof_H 	H 	0.0869	0.1766	0.3935	0.001
Mof_H 	H 	0.5603	0.3753	0.2247	0.039
Mof_H 	H 	0.8274	0.1872	0.3376	0.076
Mof_H 	H 	0.9199	0.8673	0.4813	0.081
Mof_H 	H 	0.2474	0.9172	0.361	0.07
Mof_H 	H 	0.4549	0.8335	0.3605	0.003
Mof_H 	H 	0.1231	0.0113	0.3958	0.072
Mof_H 	H 	0.1414	0.7881	0.4792	0.006
Mof_H 	H 	0.6742	0.9186	0.4459	0.063
Mof_H 	H 	0.9658	0.5821	0.3934	0.086
Mof_H 	H 	0.1212	0.6741	0.3919	-0.01
Mof_H 	H 	0.3203	0.4519	0.4675	0.056
Mof_H 	H 	0.8594	0.4876	0.3757	0.058
Mof_H 	H 	0.6287	0.6112	0.4301	-0.013
Mof_H 	H 	0.4881	0.5151	0.4316	0.072
Mof_H 	H 	0.46	0.219	0.505	-0.09
Mof_H 	H 	0.1909	0.5969	0.1075	0.036
Mof_H 	H 	0.6541	0.633	0.0162	0.026
Mof_H 	H 	0.4151	0.9048	0.101	0.035
Mof_H 	H 	0.9633	0.9994	0.0571	0.027
Mof_H 	H 	0.9085	0.8082	0.3039	0.042
Mof_H 	H 	0.8851	0.6912	0.1526	0.001
Mof_H 	H 	0.6313	0.6778	0.2102	0.081
Mof_H 	H 	0.1703	0.8235	0.2483	0.054
Mof_H 	H 	0.3263	0.6392	0.2206	0.059
Mof_H 	H 	0.5869	0.8234	0.1065	-0
Mof_H 	H 	0.0603	0.6247	0.2753	0.038
Mof_H 	H 	0.3274	0.8128	0.1624	0.078
Mof_H 	H 	0.4199	0.1327	0.0187	0.084
Mof_H 	H 	0.7474	0.0828	0.139	0.069
Mof_H 	H 	0.9549	0.1665	0.1395	0.005
Mof_H 	H 	0.6231	0.9887	0.1042	0.076
Mof_H 	H 	0.6414	0.2119	0.0208	0.006
Mof_H 	H 	0.1742	0.0814	0.0541	0.066
Mof_H 	H 	0.4658	0.4179	0.1066	0.088
Mof_H 	H 	0.6212	0.3259	0.1081	-0.011
Mof_H 	H 	0.8203	0.5481	0.0325	0.056
Mof_H 	H 	0.3594	0.5124	0.1243	0.059
Mof_H 	H 	0.1287	0.3888	0.0699	-0.018
Mof_H 	H 	0.9881	0.4849	0.0684	0.074
Mof_H 	H 	0.96	0.781	0.995	-0.092
Mof_C 	C 	0.4663	0.8879	0.5751	0.341
Mof_C 	C 	0.0963	0.6234	0.5599	-0.088
Mof_C 	C 	0.2034	0.6786	0.5483	0.336
Mof_C 	C 	0.1809	0.587	0.5921	0.017
Mof_C 	C 	0.9068	0.6081	0.538	0.015
Mof_C 	C 	0.3323	0.9431	0.5781	-0.106
Mof_C 	C 	0.7008	0.7054	0.8346	0.324
Mof_C 	C 	0.1355	0.9413	0.592	0.035
Mof_C 	C 	0.4008	0.9963	0.5655	0.028
Mof_C 	C 	0.5387	0.7152	0.796	-0.096
Mof_C 	C 	0.5065	0.7741	0.7871	0.017
Mof_C 	C 	0.0522	0.743	0.6925	0.078
Mof_C 	C 	0.7307	0.716	0.6543	0.083
Mof_C 	C 	0.8812	0.7078	0.6887	-0.141
Mof_C 	C 	0.2218	0.7331	0.7277	0.011
Mof_C 	C 	0.3512	0.783	0.7539	-0.085
Mof_C 	C 	0.2578	0.6735	0.7371	-0.084
Mof_C 	C 	0.9052	0.7929	0.6276	0.079
Mof_C 	C 	0.4148	0.6653	0.77	0.008
Mof_C 	C 	0.0593	0.787	0.6608	-0.135
Mof_C 	C 	0.9436	0.0971	0.5788	0.059
Mof_C 	C 	0.9702	0.138	0.5436	-0.117
Mof_C 	C 	0.7791	0.1089	0.6145	-0.12
Mof_C 	C 	0.6541	0.1589	0.6142	0.061
Mof_C 	C 	0.0788	0.0442	0.5786	0.029
Mof_C 	C 	0.0106	0.9909	0.5933	-0.093
Mof_C 	C 	0.8377	0.1855	0.5454	0.068
Mof_C 	C 	0.2753	0.0458	0.5646	-0.091
Mof_C 	C 	0.897	0.4134	0.5987	-0.133
Mof_C 	C 	0.7925	0.4628	0.5858	0.068
Mof_C 	C 	0.8031	0.3587	0.5999	0.091
Mof_C 	C 	0.8929	0.5198	0.5794	0.019
Mof_C 	C 	0.8084	0.5577	0.5477	-0.082
Mof_C 	C 	0.0805	0.5365	0.6017	-0.084
Mof_C 	C 	0.508	0.3952	0.5778	0.077
Mof_C 	C 	0.5921	0.4527	0.5762	-0.13
Mof_C 	C 	0.9663	0.1121	0.9249	0.351
Mof_C 	C 	0.5963	0.3766	0.9401	-0.092
Mof_C 	C 	0.7034	0.3214	0.9517	0.337
Mof_C 	C 	0.6809	0.413	0.9079	0.019
Mof_C 	C 	0.4068	0.3919	0.962	0.02
Mof_C 	C 	0.8323	0.0569	0.9219	-0.115
Mof_C 	C 	0.2008	0.2946	0.6654	0.324
Mof_C 	C 	0.6355	0.0587	0.908	0.043
Mof_C 	C 	0.9008	0.0037	0.9345	0.04
Mof_C 	C 	0.0387	0.2848	0.704	-0.097
Mof_C 	C 	0.0065	0.2259	0.7129	0.009
Mof_C 	C 	0.5522	0.257	0.8075	0.075
Mof_C 	C 	0.2307	0.284	0.8457	0.081
Mof_C 	C 	0.3812	0.2922	0.8113	-0.136
Mof_C 	C 	0.7218	0.2669	0.7723	0.01
Mof_C 	C 	0.8512	0.217	0.7461	-0.077
Mof_C 	C 	0.7578	0.3265	0.7629	-0.084
Mof_C 	C 	0.4052	0.2071	0.8724	0.084
Mof_C 	C 	0.9148	0.3347	0.73	0.012
Mof_C 	C 	0.5593	0.213	0.8392	-0.14
Mof_C 	C 	0.4436	0.9029	0.9212	0.055
Mof_C 	C 	0.4702	0.862	0.9564	-0.12
Mof_C 	C 	0.2791	0.8911	0.8855	-0.117
Mof_C 	C 	0.1541	0.8411	0.8858	0.06
Mof_C 	C 	0.5788	0.9558	0.9214	0.04
Mof_C 	C 	0.5106	0.0091	0.9067	-0.103
Mof_C 	C 	0.3377	0.8145	0.9546	0.069
Mof_C 	C 	0.7753	0.9542	0.9354	-0.1
Mof_C 	C 	0.397	0.5866	0.9013	-0.136
Mof_C 	C 	0.2925	0.5372	0.9142	0.07
Mof_C 	C 	0.3031	0.6413	0.9001	0.093
Mof_C 	C 	0.3929	0.4802	0.9206	0.021
Mof_C 	C 	0.3084	0.4423	0.9523	-0.084
Mof_C 	C 	0.5805	0.4635	0.8983	-0.087
Mof_C 	C 	0.008	0.6048	0.9222	0.087
Mof_C 	C 	0.0921	0.5473	0.9238	-0.135
Mof_C 	C 	0.5337	0.1121	0.4249	0.341
Mof_C 	C 	0.9037	0.3766	0.4401	-0.088
Mof_C 	C 	0.7966	0.3214	0.4517	0.336
Mof_C 	C 	0.8191	0.413	0.4079	0.017
Mof_C 	C 	0.0932	0.3919	0.462	0.015
Mof_C 	C 	0.6677	0.0569	0.4219	-0.106
Mof_C 	C 	0.2992	0.2946	0.1654	0.324
Mof_C 	C 	0.8645	0.0587	0.408	0.035
Mof_C 	C 	0.5992	0.0037	0.4345	0.028
Mof_C 	C 	0.4613	0.2848	0.204	-0.096
Mof_C 	C 	0.4935	0.2259	0.2129	0.017
Mof_C 	C 	0.9478	0.257	0.3075	0.078
Mof_C 	C 	0.2693	0.284	0.3457	0.083
Mof_C 	C 	0.1188	0.2922	0.3113	-0.141
Mof_C 	C 	0.7782	0.2669	0.2723	0.011
Mof_C 	C 	0.6488	0.217	0.2461	-0.085
Mof_C 	C 	0.7422	0.3265	0.2629	-0.084
Mof_C 	C 	0.0948	0.2071	0.3724	0.079
Mof_C 	C 	0.5852	0.3347	0.23	0.008
Mof_C 	C 	0.9407	0.213	0.3392	-0.135
Mof_C 	C 	0.0564	0.9029	0.4212	0.059
Mof_C 	C 	0.0298	0.862	0.4564	-0.117
Mof_C 	C 	0.2209	0.8911	0.3855	-0.12
Mof_C 	C 	0.3459	0.8411	0.3858	0.061
Mof_C 	C 	0.9212	0.9558	0.4214	0.029
Mof_C 	C 	0.9894	0.0091	0.4067	-0.093
Mof_C 	C 	0.1623	0.8145	0.4546	0.068
Mof_C 	C 	0.7247	0.9542	0.4354	-0.091
Mof_C 	C 	0.103	0.5866	0.4013	-0.133
Mof_C 	C 	0.2075	0.5372	0.4142	0.068
Mof_C 	C 	0.1969	0.6413	0.4001	0.091
Mof_C 	C 	0.1071	0.4802	0.4206	0.019
Mof_C 	C 	0.1916	0.4423	0.4523	-0.082
Mof_C 	C 	0.9195	0.4635	0.3983	-0.084
Mof_C 	C 	0.492	0.6048	0.4222	0.077
Mof_C 	C 	0.4079	0.5473	0.4238	-0.13
Mof_C 	C 	0.0337	0.8879	0.0751	0.351
Mof_C 	C 	0.4037	0.6234	0.0599	-0.092
Mof_C 	C 	0.2966	0.6786	0.0483	0.337
Mof_C 	C 	0.3191	0.587	0.0921	0.019
Mof_C 	C 	0.5932	0.6081	0.038	0.02
Mof_C 	C 	0.1677	0.9431	0.0781	-0.115
Mof_C 	C 	0.7992	0.7054	0.3346	0.324
Mof_C 	C 	0.3645	0.9413	0.092	0.043
Mof_C 	C 	0.0992	0.9963	0.0655	0.04
Mof_C 	C 	0.9613	0.7152	0.296	-0.097
Mof_C 	C 	0.9935	0.7741	0.2871	0.009
Mof_C 	C 	0.4478	0.743	0.1925	0.075
Mof_C 	C 	0.7693	0.716	0.1543	0.081
Mof_C 	C 	0.6188	0.7078	0.1887	-0.136
Mof_C 	C 	0.2782	0.7331	0.2277	0.01
Mof_C 	C 	0.1488	0.783	0.2539	-0.077
Mof_C 	C 	0.2422	0.6735	0.2371	-0.084
Mof_C 	C 	0.5948	0.7929	0.1276	0.084
Mof_C 	C 	0.0852	0.6653	0.27	0.012
Mof_C 	C 	0.4407	0.787	0.1608	-0.14
Mof_C 	C 	0.5564	0.0971	0.0788	0.055
Mof_C 	C 	0.5298	0.138	0.0436	-0.12
Mof_C 	C 	0.7209	0.1089	0.1145	-0.117
Mof_C 	C 	0.8459	0.1589	0.1142	0.06
Mof_C 	C 	0.4212	0.0442	0.0786	0.04
Mof_C 	C 	0.4894	0.9909	0.0933	-0.103
Mof_C 	C 	0.6623	0.1855	0.0454	0.069
Mof_C 	C 	0.2247	0.0458	0.0646	-0.1
Mof_C 	C 	0.603	0.4134	0.0987	-0.136
Mof_C 	C 	0.7075	0.4628	0.0858	0.07
Mof_C 	C 	0.6969	0.3587	0.0999	0.093
Mof_C 	C 	0.6071	0.5198	0.0794	0.021
Mof_C 	C 	0.6916	0.5577	0.0477	-0.084
Mof_C 	C 	0.4195	0.5365	0.1017	-0.087
Mof_C 	C 	0.992	0.3952	0.0778	0.087
Mof_C 	C 	0.9079	0.4527	0.0762	-0.135
Mof_N 	N 	0.7399	0.7575	0.62292	-0.258
Mof_N 	N 	0.6806	0.1967	0.57978	-0.265
Mof_N 	N 	0.6108	0.3493	0.59002	-0.273
Mof_N 	N 	0.2399	0.2425	0.87708	-0.259
Mof_N 	N 	0.1806	0.8033	0.92022	-0.264
Mof_N 	N 	0.1108	0.6507	0.90998	-0.274
Mof_N 	N 	0.2601	0.2425	0.37708	-0.258
Mof_N 	N 	0.3194	0.8033	0.42022	-0.265
Mof_N 	N 	0.3892	0.6507	0.40998	-0.273
Mof_N 	N 	0.7601	0.7575	0.12292	-0.259
Mof_N 	N 	0.8194	0.1967	0.07978	-0.264
Mof_N 	N 	0.8892	0.3493	0.09002	-0.274
Mof_O 	O 	0.3734	0.68927	0.57129	-0.459
Mof_O 	O 	0.381	0.83893	0.58191	-0.464
Mof_O 	O 	0.6585	0.74425	0.48963	-0.513
Mof_O 	O 	0.8009	0.7528	0.86038	-0.456
Mof_O 	O 	0.1233	0.71036	0.51939	-0.312
Mof_O 	O 	0.728	0.6515	0.8409	-0.318
Mof_O 	O 	0.6438	0.8911	0.5654	-0.317
Mof_O 	O 	0.8734	0.31073	0.92871	-0.456
Mof_O 	O 	0.881	0.16107	0.91809	-0.464
Mof_O 	O 	0.1585	0.25575	0.01037	-0.513
Mof_O 	O 	0.3009	0.2472	0.63962	-0.455
Mof_O 	O 	0.6233	0.28964	0.98061	-0.312
Mof_O 	O 	0.228	0.3485	0.6591	-0.318
Mof_O 	O 	0.1438	0.1089	0.9346	-0.323
Mof_O 	O 	0.6266	0.31073	0.42871	-0.459
Mof_O 	O 	0.619	0.16107	0.41809	-0.464
Mof_O 	O 	0.3415	0.25575	0.51037	-0.513
Mof_O 	O 	0.1991	0.2472	0.13962	-0.456
Mof_O 	O 	0.8767	0.28964	0.48061	-0.312
Mof_O 	O 	0.272	0.3485	0.1591	-0.318
Mof_O 	O 	0.3562	0.1089	0.4346	-0.317
Mof_O 	O 	0.1266	0.68927	0.07129	-0.456
Mof_O 	O 	0.119	0.83893	0.08191	-0.464
Mof_O 	O 	0.8415	0.74425	0.98963	-0.513
Mof_O 	O 	0.6991	0.7528	0.36038	-0.455
Mof_O 	O 	0.3767	0.71036	0.01939	-0.312
Mof_O 	O 	0.772	0.6515	0.3409	-0.318
Mof_O 	O 	0.8562	0.8911	0.0654	-0.323
_end
