data_functionalizedCrystal
_audit_creation_method	'EQeq! by Chris Wilmer'
_symmetry_space_group_name_H-M	'P1'
_symmetry_Int_Tables_number	1
_symmetry_cell_setting	triclinic
loop_
_symmetry_equiv_pos_as_xyz
  x,y,z
_cell_length_a	29.9525
_cell_length_b	29.9525
_cell_length_c	29.9525
_cell_angle_alpha	90
_cell_angle_beta	90
_cell_angle_gamma	90
loop_
_atom_site_label
_atom_site_type_symbol
_atom_site_fract_x
_atom_site_fract_y
_atom_site_fract_z
_atom_site_charge
Mof_Zn	Zn	0.5	0.05332	0.82264	1.212
Mof_Zn	Zn	0.17736	0.5	0.05332	1.212
Mof_Zn	Zn	5.43254e-33	0.25139	0.44672	1.21
Mof_Zn	Zn	0.17736	0.5	0.94668	1.214
Mof_Zn	Zn	0.82264	0.5	0.94668	1.215
Mof_Zn	Zn	2.07447e-33	0.25139	0.55328	1.21
Mof_Zn	Zn	0.55328	0	0.74861	1.211
Mof_Zn	Zn	0.44672	0	0.74861	1.211
Mof_Zn	Zn	0.5	0.05332	0.17736	1.212
Mof_Zn	Zn	0.05332	0.17736	0.5	1.212
Mof_Zn	Zn	0.94668	0.17736	0.5	1.214
Mof_Zn	Zn	0.55328	-1.8788e-33	0.25139	1.21
Mof_Zn	Zn	1.29477e-32	0.74861	0.44672	1.211
Mof_Zn	Zn	0.94668	0.82264	0.5	1.215
Mof_Zn	Zn	0.5	0.94668	0.82264	1.215
Mof_Zn	Zn	0.25139	0.55328	-0	1.21
Mof_Zn	Zn	0.74861	0.44672	-0	1.211
Mof_Zn	Zn	0.05332	0.82264	0.5	1.212
Mof_Zn	Zn	0.74861	0.55328	-0	1.211
Mof_Zn	Zn	0.44672	-1.8788e-33	0.25139	1.21
Mof_Zn	Zn	0.25139	0.44672	-0	1.21
Mof_Zn	Zn	0.82264	0.5	0.05332	1.212
Mof_Zn	Zn	1.71049e-32	0.74861	0.55328	1.211
Mof_Zn	Zn	0.5	0.94668	0.17736	1.214
Mof_H 	H 	0.2389	0.112	0.7544	0.321
Mof_H 	H 	0.112	0.7544	0.7611	0.323
Mof_H 	H 	0.4671	0.565	-0	0.071
Mof_H 	H 	0.6543	0.2738	0.1737	0.318
Mof_H 	H 	0.1737	0.3457	0.2738	0.318
Mof_H 	H 	0.8095	0.3237	0.6818	0.324
Mof_H 	H 	0.792	0.8407	0.3492	0.043
Mof_H 	H 	0.3349	0.3122	0.1397	0.313
Mof_H 	H 	0.9082	0.2874	0.737	0.323
Mof_H 	H 	0.6098	0.4347	-0	-0.004
Mof_H 	H 	0.7792	0.8779	0.2936	0.326
Mof_H 	H 	0.208	0.8407	0.3492	0.043
Mof_H 	H 	0.5	0.0662	0.0386	0.055
Mof_H 	H 	0.263	0.0918	0.7126	0.315
Mof_H 	H 	0.792	0.8407	0.6508	0.043
Mof_H 	H 	0.0662	0.0386	0.5	0.055
Mof_H 	H 	0.7126	0.737	0.9082	0.324
Mof_H 	H 	0.737	0.0918	0.2874	0.315
Mof_H 	H 	0.4034	0.1533	0.8394	0.007
Mof_H 	H 	0.6536	0.0976	0.7321	-0.016
Mof_H 	H 	0.9024	0.2679	0.6536	-0.014
Mof_H 	H 	0.6878	0.8603	0.6651	0.319
Mof_H 	H 	0.1593	0.6508	0.792	0.042
Mof_H 	H 	0.6651	0.3122	0.1397	0.313
Mof_H 	H 	0.3122	0.8603	0.3349	0.318
Mof_H 	H 	0.2679	0.6536	0.0976	-0.016
Mof_H 	H 	0.737	0.9082	0.2874	0.323
Mof_H 	H 	0.6508	0.208	0.1593	0.042
Mof_H 	H 	0.7064	0.2208	0.1221	0.319
Mof_H 	H 	0.2208	0.8779	0.7064	0.325
Mof_H 	H 	0.1606	0.5966	0.8467	0.006
Mof_H 	H 	0.2738	0.1737	0.6543	0.318
Mof_H 	H 	0.9338	0.9614	0.5	0.024
Mof_H 	H 	0.1606	0.5966	0.1533	0.005
Mof_H 	H 	0.2208	0.1221	0.2936	0.318
Mof_H 	H 	0.3182	0.1905	0.6763	0.32
Mof_H 	H 	0.8394	0.4034	0.1533	0.007
Mof_H 	H 	0.7064	0.7792	0.8779	0.327
Mof_H 	H 	0.7262	0.1737	0.3457	0.319
Mof_H 	H 	0.8394	0.4034	0.8467	0.008
Mof_H 	H 	0.8603	0.3349	0.3122	0.318
Mof_H 	H 	0.1533	0.8394	0.5966	0.007
Mof_H 	H 	0.0918	0.2874	0.737	0.315
Mof_H 	H 	0.8407	0.6508	0.208	0.043
Mof_H 	H 	0.6651	0.3122	0.8603	0.318
Mof_H 	H 	0.435	3.75761e-33	0.5329	0.071
Mof_H 	H 	0.737	0.0918	0.7126	0.316
Mof_H 	H 	0.3182	0.1905	0.3237	0.319
Mof_H 	H 	0.3349	0.3122	0.8603	0.318
Mof_H 	H 	0.263	0.0918	0.2874	0.313
Mof_H 	H 	0.7611	0.888	0.7544	0.329
Mof_H 	H 	0.1905	0.3237	0.3182	0.319
Mof_H 	H 	0.112	0.2456	0.7611	0.321
Mof_H 	H 	0.1905	0.6763	0.6818	0.32
Mof_H 	H 	0.3457	0.7262	0.1737	0.319
Mof_H 	H 	0.6543	0.7262	0.8263	0.323
Mof_H 	H 	0.5329	0.435	-0	0.071
Mof_H 	H 	0.208	0.1593	0.3492	0.043
Mof_H 	H 	0.112	0.7544	0.2389	0.321
Mof_H 	H 	0.6818	0.8095	0.6763	0.324
Mof_H 	H 	0.888	0.2456	0.7611	0.328
Mof_H 	H 	0.6508	0.792	0.8407	0.043
Mof_H 	H 	0.3237	0.3182	0.1905	0.319
Mof_H 	H 	0.792	0.1593	0.3492	0.042
Mof_H 	H 	0.9614	0.5	0.0662	0.025
Mof_H 	H 	0.9024	0.7321	0.6536	-0.014
Mof_H 	H 	0.3349	0.6878	0.1397	0.314
Mof_H 	H 	0.737	0.9082	0.7126	0.324
Mof_H 	H 	0.1533	0.8394	0.4034	0.007
Mof_H 	H 	0.7544	0.2389	0.112	0.321
Mof_H 	H 	0.5653	0	0.6098	-0.004
Mof_H 	H 	0.0976	0.7321	0.6536	-0.016
Mof_H 	H 	0.792	0.1593	0.6508	0.042
Mof_H 	H 	0.2936	0.2208	0.8779	0.324
Mof_H 	H 	0.7064	0.7792	0.1221	0.321
Mof_H 	H 	0.6818	0.8095	0.3237	0.324
Mof_H 	H 	-5.88535e-33	0.6098	0.4347	-0.004
Mof_H 	H 	0.1397	0.6651	0.3122	0.313
Mof_H 	H 	2.11841e-33	0.5329	0.565	0.071
Mof_H 	H 	0.0976	0.7321	0.3464	-0.016
Mof_H 	H 	0.6878	0.8603	0.3349	0.318
Mof_H 	H 	0.3464	0.9024	0.7321	-0.014
Mof_H 	H 	0.2679	0.6536	0.9024	-0.014
Mof_H 	H 	0.6543	0.7262	0.1737	0.319
Mof_H 	H 	0.3457	0.2738	0.8263	0.322
Mof_H 	H 	0.7126	0.263	0.0918	0.315
Mof_H 	H 	0.2874	0.737	0.9082	0.323
Mof_H 	H 	0.435	0	0.4671	0.071
Mof_H 	H 	0.2456	0.2389	0.888	0.326
Mof_H 	H 	0.6878	0.1397	0.3349	0.314
Mof_H 	H 	0.6651	0.6878	0.1397	0.314
Mof_H 	H 	0.7064	0.2208	0.8779	0.325
Mof_H 	H 	0.3182	0.8095	0.3237	0.323
Mof_H 	H 	0.5	0.0662	0.9614	0.025
Mof_H 	H 	-5.3968e-33	0.4671	0.565	0.071
Mof_H 	H 	0.7792	0.8779	0.7064	0.327
Mof_H 	H 	0.0918	0.2874	0.263	0.313
Mof_H 	H 	0.7611	0.888	0.2456	0.328
Mof_H 	H 	0.7544	0.2389	0.888	0.327
Mof_H 	H 	0.0662	0.9614	0.5	0.025
Mof_H 	H 	0.6763	0.3182	0.1905	0.32
Mof_H 	H 	0.7611	0.112	0.7544	0.323
Mof_H 	H 	0.8779	0.2936	0.2208	0.324
Mof_H 	H 	0.5966	0.8467	0.8394	0.008
Mof_H 	H 	0.0918	0.7126	0.263	0.315
Mof_H 	H 	0.1221	0.7064	0.7792	0.321
Mof_H 	H 	0.8407	0.3492	0.208	0.043
Mof_H 	H 	0.3237	0.6818	0.8095	0.324
Mof_H 	H 	0.5966	0.1533	0.1606	0.005
Mof_H 	H 	9.63475e-33	0.3902	0.5653	-0.004
Mof_H 	H 	0.112	0.2456	0.2389	0.319
Mof_H 	H 	0.8467	0.8394	0.5966	0.008
Mof_H 	H 	0.2389	0.888	0.2456	0.326
Mof_H 	H 	0.8603	0.3349	0.6878	0.318
Mof_H 	H 	0.8095	0.6763	0.3182	0.323
Mof_H 	H 	1.62986e-33	0.3902	0.4347	-0.004
Mof_H 	H 	0.4034	0.8467	0.8394	0.008
Mof_H 	H 	0.6543	0.2738	0.8263	0.322
Mof_H 	H 	0.3122	0.1397	0.3349	0.313
Mof_H 	H 	0.2456	0.2389	0.112	0.319
Mof_H 	H 	0.2208	0.1221	0.7064	0.319
Mof_H 	H 	0.6763	0.6818	0.8095	0.324
Mof_H 	H 	0.3182	0.8095	0.6763	0.323
Mof_H 	H 	0.888	0.2456	0.2389	0.326
Mof_H 	H 	0.8603	0.6651	0.6878	0.319
Mof_H 	H 	0.7792	0.1221	0.2936	0.32
Mof_H 	H 	9.63475e-33	0.6098	0.5653	-0.004
Mof_H 	H 	0.7262	0.8263	0.6543	0.323
Mof_H 	H 	0.8394	0.5966	0.8467	0.008
Mof_H 	H 	0.3492	0.792	0.8407	0.043
Mof_H 	H 	0.1737	0.6543	0.7262	0.319
Mof_H 	H 	0.0976	0.2679	0.3464	-0.016
Mof_H 	H 	0.7126	0.263	0.9082	0.322
Mof_H 	H 	0.8407	0.6508	0.792	0.043
Mof_H 	H 	0.7611	0.112	0.2456	0.321
Mof_H 	H 	0.1606	0.4034	0.8467	0.006
Mof_H 	H 	0.2456	0.7611	0.112	0.321
Mof_H 	H 	0.2936	0.7792	0.1221	0.32
Mof_H 	H 	0.1533	0.1606	0.4034	0.005
Mof_H 	H 	0.263	0.9082	0.2874	0.321
Mof_H 	H 	0.1221	0.2936	0.7792	0.32
Mof_H 	H 	0.1606	0.4034	0.1533	0.005
Mof_H 	H 	0.3902	0.4347	-0	-0.004
Mof_H 	H 	0.8263	0.6543	0.7262	0.323
Mof_H 	H 	0.8263	0.3457	0.7262	0.322
Mof_H 	H 	0.208	0.8407	0.6508	0.043
Mof_H 	H 	0.0386	0.5	0.9338	0.054
Mof_H 	H 	0.3492	0.208	0.8407	0.043
Mof_H 	H 	0.2874	0.263	0.0918	0.313
Mof_H 	H 	0.1397	0.3349	0.6878	0.314
Mof_H 	H 	0.0976	0.2679	0.6536	-0.016
Mof_H 	H 	0.9082	0.7126	0.263	0.322
Mof_H 	H 	0.9024	0.2679	0.3464	-0.014
Mof_H 	H 	0.7321	0.6536	0.0976	-0.016
Mof_H 	H 	0.7544	0.7611	0.112	0.323
Mof_H 	H 	0.2936	0.2208	0.1221	0.318
Mof_H 	H 	0.1221	0.2936	0.2208	0.318
Mof_H 	H 	0.2738	0.1737	0.3457	0.318
Mof_H 	H 	0.1593	0.3492	0.208	0.043
Mof_H 	H 	0.8467	0.1606	0.5966	0.006
Mof_H 	H 	0.2874	0.737	0.0918	0.315
Mof_H 	H 	0.1593	0.6508	0.208	0.042
Mof_H 	H 	0.3457	0.7262	0.8263	0.322
Mof_H 	H 	0.3464	0.0976	0.2679	-0.016
Mof_H 	H 	0.8263	0.6543	0.2738	0.322
Mof_H 	H 	0.888	0.7544	0.7611	0.329
Mof_H 	H 	0.7321	0.3464	0.9024	-0.014
Mof_H 	H 	0.5329	0.565	-0	0.071
Mof_H 	H 	0.8779	0.7064	0.2208	0.325
Mof_H 	H 	0.1905	0.3237	0.6818	0.32
Mof_H 	H 	0.6763	0.6818	0.1905	0.32
Mof_H 	H 	0.2874	0.263	0.9082	0.321
Mof_H 	H 	0.2456	0.7611	0.888	0.328
Mof_H 	H 	0.8263	0.3457	0.2738	0.322
Mof_H 	H 	1.29038e-32	0.5329	0.435	0.071
Mof_H 	H 	0.2679	0.3464	0.9024	-0.014
Mof_H 	H 	0.8467	0.1606	0.4034	0.006
Mof_H 	H 	0.6536	0.9024	0.7321	-0.014
Mof_H 	H 	0.8407	0.3492	0.792	0.043
Mof_H 	H 	0.7792	0.1221	0.7064	0.321
Mof_H 	H 	0.2389	0.888	0.7544	0.327
Mof_H 	H 	0.7262	0.8263	0.3457	0.322
Mof_H 	H 	0.7262	0.1737	0.6543	0.319
Mof_H 	H 	0.2738	0.8263	0.3457	0.322
Mof_H 	H 	0.6536	0.9024	0.2679	-0.014
Mof_H 	H 	0.2389	0.112	0.2456	0.319
Mof_H 	H 	0.6098	0.5653	-0	-0.004
Mof_H 	H 	0.0386	0.5	0.0662	0.055
Mof_H 	H 	0.1593	0.3492	0.792	0.042
Mof_H 	H 	0.3237	0.6818	0.1905	0.32
Mof_H 	H 	0.3349	0.6878	0.8603	0.318
Mof_H 	H 	0.6818	0.1905	0.6763	0.32
Mof_H 	H 	0.4347	0	0.6098	-0.004
Mof_H 	H 	0.5	0.9338	0.0386	0.054
Mof_H 	H 	0.2679	0.3464	0.0976	-0.016
Mof_H 	H 	0.8603	0.6651	0.3122	0.318
Mof_H 	H 	0.3457	0.2738	0.1737	0.318
Mof_H 	H 	0.6878	0.1397	0.6651	0.314
Mof_H 	H 	0.5966	0.8467	0.1606	0.006
Mof_H 	H 	0.565	3.75761e-33	0.5329	0.071
Mof_H 	H 	0.7321	0.3464	0.0976	-0.016
Mof_H 	H 	0.208	0.1593	0.6508	0.042
Mof_H 	H 	0.4347	0	0.3902	-0.004
Mof_H 	H 	0.2208	0.8779	0.2936	0.324
Mof_H 	H 	0.8779	0.7064	0.7792	0.327
Mof_H 	H 	0.5966	0.1533	0.8394	0.007
Mof_H 	H 	0.9024	0.7321	0.3464	-0.014
Mof_H 	H 	0.3464	0.9024	0.2679	-0.014
Mof_H 	H 	0.9082	0.2874	0.263	0.321
Mof_H 	H 	0.6508	0.792	0.1593	0.042
Mof_H 	H 	0.6508	0.208	0.8407	0.043
Mof_H 	H 	0.7321	0.6536	0.9024	-0.014
Mof_H 	H 	0.263	0.9082	0.7126	0.322
Mof_H 	H 	0.4034	0.8467	0.1606	0.006
Mof_H 	H 	0.8467	0.8394	0.4034	0.008
Mof_H 	H 	0.7126	0.737	0.0918	0.316
Mof_H 	H 	0.3492	0.208	0.1593	0.043
Mof_H 	H 	0.8779	0.2936	0.7792	0.326
Mof_H 	H 	0.1397	0.3349	0.3122	0.313
Mof_H 	H 	0.3122	0.1397	0.6651	0.313
Mof_H 	H 	0.8095	0.3237	0.3182	0.323
Mof_H 	H 	0.6536	0.0976	0.2679	-0.016
Mof_H 	H 	0.1397	0.6651	0.6878	0.314
Mof_H 	H 	0.4034	0.1533	0.1606	0.005
Mof_H 	H 	0.1533	0.1606	0.5966	0.005
Mof_H 	H 	0.4671	0.435	-0	0.071
Mof_H 	H 	0.888	0.7544	0.2389	0.327
Mof_H 	H 	0.1905	0.6763	0.3182	0.32
Mof_H 	H 	0.2936	0.7792	0.8779	0.326
Mof_H 	H 	0.3464	0.0976	0.7321	-0.016
Mof_H 	H 	0.6818	0.1905	0.3237	0.32
Mof_H 	H 	0.1737	0.6543	0.2738	0.318
Mof_H 	H 	0.5653	0	0.3902	-0.004
Mof_H 	H 	0.3902	0.5653	-0	-0.004
Mof_H 	H 	0.6651	0.6878	0.8603	0.319
Mof_H 	H 	0.2738	0.8263	0.6543	0.322
Mof_H 	H 	0.8095	0.6763	0.6818	0.324
Mof_H 	H 	1.63099e-33	0.4671	0.435	0.071
Mof_H 	H 	0.3492	0.792	0.1593	0.042
Mof_H 	H 	0.6763	0.3182	0.8095	0.323
Mof_H 	H 	0.9082	0.7126	0.737	0.324
Mof_H 	H 	0.8394	0.5966	0.1533	0.007
Mof_H 	H 	0.0918	0.7126	0.737	0.316
Mof_H 	H 	0.565	0	0.4671	0.071
Mof_H 	H 	0.1221	0.7064	0.2208	0.319
Mof_H 	H 	0.3237	0.3182	0.8095	0.323
Mof_H 	H 	0.9338	0.0386	0.5	0.054
Mof_H 	H 	0.5	0.9338	0.9614	0.024
Mof_H 	H 	0.1737	0.3457	0.7262	0.319
Mof_H 	H 	0.7544	0.7611	0.888	0.329
Mof_H 	H 	0.9614	0.5	0.9338	0.024
Mof_H 	H 	0.3122	0.8603	0.6651	0.318
Mof_C 	C 	0.65279	0.88018	0.75372	0.114
Mof_C 	C 	0.40536	0.5382	-0	0.1
Mof_C 	C 	0.27712	0.15846	0.72138	0.529
Mof_C 	C 	0.15313	0.81796	0.619	0.073
Mof_C 	C 	0.61777	0.5	-0	-0.199
Mof_C 	C 	0.88009	0.78574	0.61951	-0.18
Mof_C 	C 	0.72393	0.24719	0.88273	-1.032
Mof_C 	C 	0.27712	0.84154	0.27862	0.535
Mof_C 	C 	0.88273	0.27607	0.24719	-1.029
Mof_C 	C 	0.27712	0.84154	0.72138	0.536
Mof_C 	C 	0.46201	-3.75761e-33	0.54817	-0.162
Mof_C 	C 	0.45183	0.53799	-0	-0.162
Mof_C 	C 	0.5	0.96067	0.02314	-0.057
Mof_C 	C 	0.72288	0.84154	0.27862	0.537
Mof_C 	C 	0.84694	0.7541	0.31511	-0.215
Mof_C 	C 	0.72138	0.27712	0.15846	0.529
Mof_C 	C 	0.34721	0.11982	0.75372	0.113
Mof_C 	C 	0.72358	0.21652	0.77772	0.1
Mof_C 	C 	0.5	0	0.52491	0.067
Mof_C 	C 	1.8747e-33	0.04599	0.5	-0.076
Mof_C 	C 	0.97686	0.5	0.96067	0.046
Mof_C 	C 	1.8747e-33	0.90396	0.5	0.409
Mof_C 	C 	0.41567	0.91545	0.78571	0.428
Mof_C 	C 	0.81796	0.381	0.84687	0.073
Mof_C 	C 	0.84694	0.2459	0.68489	-0.216
Mof_C 	C 	0.5	-3.75761e-33	0.33233	0.448
Mof_C 	C 	0.97686	0.5	0.03933	0.036
Mof_C 	C 	0.65139	0.81391	0.81868	-0.144
Mof_C 	C 	0.78348	0.77772	0.72358	0.101
Mof_C 	C 	0.72138	0.72288	0.15846	0.531
Mof_C 	C 	0.70281	0.16633	0.32511	-1.007
Mof_C 	C 	0.15846	0.27862	0.27712	0.528
Mof_C 	C 	0.68473	0.81351	0.21346	0.048
Mof_C 	C 	0.79954	0.26041	0.74562	-0.223
Mof_C 	C 	0.78571	0.58433	0.08455	0.428
Mof_C 	C 	0.79954	0.73959	0.74562	-0.224
Mof_C 	C 	0.27607	0.24719	0.88273	-1.029
Mof_C 	C 	-1.30133e-32	0.45183	0.53799	-0.162
Mof_C 	C 	0.31511	0.15306	0.7541	-0.214
Mof_C 	C 	1.67619e-32	0.59464	0.4618	0.1
Mof_C 	C 	0.21429	0.58433	0.91545	0.428
Mof_C 	C 	0.72358	0.21652	0.22228	0.098
Mof_C 	C 	0.81391	0.18132	0.65139	-0.145
Mof_C 	C 	0.04599	0.5	-0	-0.076
Mof_C 	C 	0.81351	0.78654	0.68473	0.047
Mof_C 	C 	0.88273	0.72393	0.24719	-1.032
Mof_C 	C 	0.88009	0.78574	0.38049	-0.18
Mof_C 	C 	0.15846	0.72138	0.27712	0.529
Mof_C 	C 	0.24628	0.34721	0.11982	0.113
Mof_C 	C 	0.20046	0.73959	0.74562	-0.222
Mof_C 	C 	0.40536	0.4618	-0	0.1
Mof_C 	C 	0.68489	0.84694	0.7541	-0.216
Mof_C 	C 	0.78574	0.38049	0.88009	-0.18
Mof_C 	C 	0.78348	0.77772	0.27642	0.1
Mof_C 	C 	0.58433	0.91545	0.78571	0.428
Mof_C 	C 	-9.25568e-33	0.54817	0.53799	-0.162
Mof_C 	C 	0.381	0.15313	0.81796	0.073
Mof_C 	C 	0.21426	0.38049	0.88009	-0.181
Mof_C 	C 	0.78348	0.22228	0.72358	0.1
Mof_C 	C 	0.15846	0.72138	0.72288	0.531
Mof_C 	C 	0.59464	0.5382	-0	0.1
Mof_C 	C 	0.72358	0.78348	0.22228	0.1
Mof_C 	C 	0.70281	0.83367	0.32511	-1.018
Mof_C 	C 	0.81391	0.81868	0.34861	-0.144
Mof_C 	C 	0.84687	0.81796	0.381	0.073
Mof_C 	C 	0.5	-3.75761e-33	0.38223	-0.199
Mof_C 	C 	5.63231e-33	0.33233	0.5	0.448
Mof_C 	C 	0.18204	0.381	0.84687	0.073
Mof_C 	C 	0.72288	0.15846	0.72138	0.531
Mof_C 	C 	1.73226e-33	0.45183	0.46201	-0.162
Mof_C 	C 	0.81391	0.81868	0.65139	-0.144
Mof_C 	C 	0.88009	0.21426	0.38049	-0.181
Mof_C 	C 	0.21652	0.22228	0.27642	0.098
Mof_C 	C 	0.22228	0.27642	0.21652	0.098
Mof_C 	C 	0.27712	0.15846	0.27862	0.528
Mof_C 	C 	0.4618	0	0.40536	0.1
Mof_C 	C 	0.70281	0.16633	0.67489	-1.009
Mof_C 	C 	0.65139	0.18609	0.18132	-0.146
Mof_C 	C 	0.24719	0.11727	0.27607	-1.015
Mof_C 	C 	0.41567	0.08455	0.78571	0.428
Mof_C 	C 	0.31511	0.15306	0.2459	-0.214
Mof_C 	C 	1.8747e-33	0.66767	0.5	0.448
Mof_C 	C 	0.21652	0.77772	0.72358	0.1
Mof_C 	C 	0.29719	0.83367	0.67489	-1.017
Mof_C 	C 	0.58433	0.91545	0.21429	0.428
Mof_C 	C 	0.84694	0.2459	0.31511	-0.215
Mof_C 	C 	0.83367	0.32511	0.70281	-1.018
Mof_C 	C 	0.65279	0.11982	0.75372	0.113
Mof_C 	C 	0.31511	0.84694	0.7541	-0.215
Mof_C 	C 	0.75281	0.88273	0.27607	-1.033
Mof_C 	C 	0.15306	0.7541	0.31511	-0.214
Mof_C 	C 	9.38991e-33	0.09604	0.5	0.383
Mof_C 	C 	0.18132	0.65139	0.18609	-0.146
Mof_C 	C 	0.619	0.84687	0.81796	0.073
Mof_C 	C 	0.2459	0.68489	0.15306	-0.215
Mof_C 	C 	0.81868	0.65139	0.81391	-0.144
Mof_C 	C 	0.54817	0.46201	-0	-0.162
Mof_C 	C 	0.11727	0.72393	0.75281	-1.021
Mof_C 	C 	0.18132	0.34861	0.81391	-0.145
Mof_C 	C 	0.81796	0.619	0.15313	0.073
Mof_C 	C 	0.21652	0.77772	0.27642	0.099
Mof_C 	C 	0.29719	0.16633	0.32511	-1.005
Mof_C 	C 	0.78571	0.41567	0.91545	0.428
Mof_C 	C 	0.5	-7.51521e-33	0.66767	0.448
Mof_C 	C 	0.11991	0.21426	0.61951	-0.184
Mof_C 	C 	0.26041	0.25438	0.20046	-0.22
Mof_C 	C 	0.88018	0.75372	0.34721	0.113
Mof_C 	C 	0.7541	0.68489	0.84694	-0.216
Mof_C 	C 	0.31527	0.81351	0.78654	0.047
Mof_C 	C 	0.78654	0.31527	0.18649	0.047
Mof_C 	C 	0.15313	0.81796	0.381	0.073
Mof_C 	C 	0.2459	0.68489	0.84694	-0.216
Mof_C 	C 	0.68473	0.81351	0.78654	0.047
Mof_C 	C 	0.34861	0.81391	0.18132	-0.145
Mof_C 	C 	0.11982	0.24628	0.65279	0.113
Mof_C 	C 	0.26041	0.25438	0.79954	-0.223
Mof_C 	C 	0.38049	0.88009	0.78574	-0.18
Mof_C 	C 	0.15313	0.18204	0.619	0.073
Mof_C 	C 	0.53799	-3.75761e-33	0.45183	-0.162
Mof_C 	C 	0.09604	0.5	-0	0.383
Mof_C 	C 	0.61951	0.88009	0.21426	-0.181
Mof_C 	C 	0.78654	0.68473	0.81351	0.047
Mof_C 	C 	0.5	0	0.04599	-0.076
Mof_C 	C 	2.01793e-33	0.40536	0.5382	0.1
Mof_C 	C 	0.32511	0.29719	0.83367	-1.016
Mof_C 	C 	0.75372	0.65279	0.11982	0.113
Mof_C 	C 	0.29719	0.16633	0.67489	-1.007
Mof_C 	C 	0.5382	0	0.40536	0.1
Mof_C 	C 	0.2459	0.31511	0.15306	-0.214
Mof_C 	C 	0.24719	0.11727	0.72393	-1.017
Mof_C 	C 	0.08455	0.78571	0.41567	0.428
Mof_C 	C 	0.21426	0.61951	0.88009	-0.181
Mof_C 	C 	0.72358	0.78348	0.77772	0.101
Mof_C 	C 	0.16633	0.67489	0.29719	-1.007
Mof_C 	C 	0.08455	0.21429	0.41567	0.428
Mof_C 	C 	0.02314	0.5	0.03933	-0.067
Mof_C 	C 	0.73959	0.74562	0.79954	-0.224
Mof_C 	C 	0.31527	0.18649	0.78654	0.047
Mof_C 	C 	0.74562	0.20046	0.26041	-0.221
Mof_C 	C 	0.27862	0.27712	0.15846	0.528
Mof_C 	C 	0.11982	0.75372	0.65279	0.113
Mof_C 	C 	0.21426	0.61951	0.11991	-0.184
Mof_C 	C 	0.73959	0.25438	0.20046	-0.221
Mof_C 	C 	0.03933	0.02314	0.5	-0.067
Mof_C 	C 	0.72393	0.75281	0.11727	-1.021
Mof_C 	C 	0.68473	0.18649	0.21346	0.047
Mof_C 	C 	-5.64051e-33	0.61777	0.5	-0.199
Mof_C 	C 	0.81868	0.34861	0.81391	-0.144
Mof_C 	C 	0.68489	0.15306	0.7541	-0.214
Mof_C 	C 	0.78654	0.31527	0.81351	0.047
Mof_C 	C 	0.96067	0.97686	0.5	0.046
Mof_C 	C 	0.11727	0.72393	0.24719	-1.017
Mof_C 	C 	0.27607	0.75281	0.88273	-1.033
Mof_C 	C 	0.75372	0.34721	0.88018	0.113
Mof_C 	C 	0.34721	0.88018	0.24628	0.113
Mof_C 	C 	0.18204	0.619	0.15313	0.073
Mof_C 	C 	0.02314	0.5	0.96067	-0.057
Mof_C 	C 	0.66767	0.5	-0	0.448
Mof_C 	C 	0.79954	0.73959	0.25438	-0.223
Mof_C 	C 	0.88018	0.24628	0.65279	0.114
Mof_C 	C 	0.21429	0.41567	0.91545	0.428
Mof_C 	C 	5.63231e-33	0.52491	0.5	0.067
Mof_C 	C 	0.84694	0.7541	0.68489	-0.216
Mof_C 	C 	0.67489	0.29719	0.83367	-1.017
Mof_C 	C 	0.18649	0.78654	0.68473	0.047
Mof_C 	C 	0.75372	0.65279	0.88018	0.114
Mof_C 	C 	0.72393	0.24719	0.11727	-1.017
Mof_C 	C 	0.27642	0.78348	0.22228	0.099
Mof_C 	C 	0.65139	0.81391	0.18132	-0.145
Mof_C 	C 	0.61951	0.11991	0.78574	-0.183
Mof_C 	C 	0.381	0.84687	0.81796	0.073
Mof_C 	C 	0.5382	-7.51521e-33	0.59464	0.1
Mof_C 	C 	0.91545	0.21429	0.58433	0.428
Mof_C 	C 	0.18204	0.619	0.84687	0.073
Mof_C 	C 	0.52491	0.5	-0	0.067
Mof_C 	C 	0.84687	0.81796	0.619	0.073
Mof_C 	C 	0.18609	0.81868	0.34861	-0.145
Mof_C 	C 	0.88273	0.27607	0.75281	-1.033
Mof_C 	C 	0.11727	0.27607	0.24719	-1.015
Mof_C 	C 	0.21652	0.22228	0.72358	0.098
Mof_C 	C 	0.67489	0.70281	0.83367	-1.019
Mof_C 	C 	0.26041	0.74562	0.20046	-0.221
Mof_C 	C 	0.619	0.84687	0.18204	0.073
Mof_C 	C 	0.84687	0.18204	0.381	0.073
Mof_C 	C 	0.619	0.15313	0.18204	0.073
Mof_C 	C 	0.619	0.15313	0.81796	0.073
Mof_C 	C 	0.5	0.96067	0.97686	0.046
Mof_C 	C 	0.4618	-7.51521e-33	0.59464	0.1
Mof_C 	C 	0.78348	0.22228	0.27642	0.099
Mof_C 	C 	0.21346	0.68473	0.18649	0.047
Mof_C 	C 	0.88009	0.21426	0.61951	-0.181
Mof_C 	C 	0.18609	0.18132	0.34861	-0.146
Mof_C 	C 	0.5	0.03933	0.97686	0.036
Mof_C 	C 	0.7541	0.68489	0.15306	-0.214
Mof_C 	C 	0.90396	0.5	-0	0.409
Mof_C 	C 	0.24719	0.88273	0.72393	-1.032
Mof_C 	C 	0.91545	0.78571	0.41567	0.428
Mof_C 	C 	0.27862	0.27712	0.84154	0.535
Mof_C 	C 	0.72288	0.84154	0.72138	0.538
Mof_C 	C 	0.29719	0.83367	0.32511	-1.016
Mof_C 	C 	0.31527	0.81351	0.21346	0.048
Mof_C 	C 	0.32511	0.29719	0.16633	-1.005
Mof_C 	C 	0.24719	0.88273	0.27607	-1.029
Mof_C 	C 	0.18609	0.81868	0.65139	-0.145
Mof_C 	C 	0.15306	0.7541	0.68489	-0.214
Mof_C 	C 	0.21346	0.31527	0.81351	0.048
Mof_C 	C 	0.34721	0.11982	0.24628	0.113
Mof_C 	C 	0.7541	0.31511	0.15306	-0.214
Mof_C 	C 	0.41567	0.91545	0.21429	0.428
Mof_C 	C 	0.72393	0.75281	0.88273	-1.036
Mof_C 	C 	0.27642	0.21652	0.77772	0.099
Mof_C 	C 	0.65279	0.88018	0.24628	0.114
Mof_C 	C 	1.8747e-33	0.47509	0.5	0.067
Mof_C 	C 	1.70483e-32	0.59464	0.5382	0.1
Mof_C 	C 	0.38223	0.5	-0	-0.199
Mof_C 	C 	0.26041	0.74562	0.79954	-0.223
Mof_C 	C 	0.83367	0.32511	0.29719	-1.016
Mof_C 	C 	0.11991	0.21426	0.38049	-0.184
Mof_C 	C 	0.27607	0.24719	0.11727	-1.015
Mof_C 	C 	0.18609	0.18132	0.65139	-0.146
Mof_C 	C 	0.18649	0.78654	0.31527	0.047
Mof_C 	C 	0.41567	0.08455	0.21429	0.428
Mof_C 	C 	0.5	7.51521e-33	0.90396	0.409
Mof_C 	C 	0.18649	0.21346	0.31527	0.047
Mof_C 	C 	0.11991	0.78574	0.38049	-0.183
Mof_C 	C 	0.381	0.15313	0.18204	0.073
Mof_C 	C 	0.22228	0.72358	0.78348	0.1
Mof_C 	C 	0.74562	0.79954	0.73959	-0.224
Mof_C 	C 	0.91545	0.21429	0.41567	0.428
Mof_C 	C 	0.96067	0.02314	0.5	-0.057
Mof_C 	C 	0.67489	0.70281	0.16633	-1.009
Mof_C 	C 	0.27607	0.75281	0.11727	-1.019
Mof_C 	C 	0.34861	0.18609	0.18132	-0.146
Mof_C 	C 	0.22228	0.27642	0.78348	0.099
Mof_C 	C 	0.74562	0.20046	0.73959	-0.222
Mof_C 	C 	0.67489	0.29719	0.16633	-1.007
Mof_C 	C 	0.32511	0.70281	0.83367	-1.018
Mof_C 	C 	0.83367	0.67489	0.29719	-1.017
Mof_C 	C 	0.18204	0.381	0.15313	0.073
Mof_C 	C 	0.03933	0.97686	0.5	0.036
Mof_C 	C 	0.72138	0.72288	0.84154	0.538
Mof_C 	C 	0.81796	0.381	0.15313	0.073
Mof_C 	C 	0.31511	0.84694	0.2459	-0.215
Mof_C 	C 	0.08455	0.78571	0.58433	0.428
Mof_C 	C 	0.81351	0.21346	0.68473	0.048
Mof_C 	C 	0.65139	0.18609	0.81868	-0.145
Mof_C 	C 	0.77772	0.72358	0.21652	0.1
Mof_C 	C 	0.381	0.84687	0.18204	0.073
Mof_C 	C 	0.16633	0.67489	0.70281	-1.009
Mof_C 	C 	0.47509	0.5	-0	0.067
Mof_C 	C 	0.75281	0.11727	0.27607	-1.019
Mof_C 	C 	0.15846	0.27862	0.72288	0.53
Mof_C 	C 	0.25438	0.79954	0.26041	-0.223
Mof_C 	C 	0.21346	0.31527	0.18649	0.047
Mof_C 	C 	0.08455	0.21429	0.58433	0.428
Mof_C 	C 	0.73959	0.25438	0.79954	-0.223
Mof_C 	C 	0.75281	0.88273	0.72393	-1.036
Mof_C 	C 	0.11982	0.24628	0.34721	0.113
Mof_C 	C 	0.7541	0.31511	0.84694	-0.215
Mof_C 	C 	0.31527	0.18649	0.21346	0.047
Mof_C 	C 	0.5	0	0.09604	0.383
Mof_C 	C 	0.11991	0.78574	0.61951	-0.183
Mof_C 	C 	0.20046	0.26041	0.25438	-0.22
Mof_C 	C 	0.11727	0.27607	0.75281	-1.019
Mof_C 	C 	0.73959	0.74562	0.20046	-0.222
Mof_C 	C 	0.81868	0.34861	0.18609	-0.145
Mof_C 	C 	0.78571	0.41567	0.08455	0.428
Mof_C 	C 	0.95401	0.5	-0	-0.144
Mof_C 	C 	0.21426	0.38049	0.11991	-0.184
Mof_C 	C 	0.75372	0.34721	0.11982	0.113
Mof_C 	C 	0.27642	0.78348	0.77772	0.1
Mof_C 	C 	0.84154	0.27862	0.72288	0.537
Mof_C 	C 	0.27642	0.21652	0.22228	0.098
Mof_C 	C 	0.16633	0.32511	0.70281	-1.007
Mof_C 	C 	0.83367	0.67489	0.70281	-1.019
Mof_C 	C 	0.65279	0.11982	0.24628	0.113
Mof_C 	C 	1.73226e-33	0.54817	0.46201	-0.162
Mof_C 	C 	0.53799	-3.75761e-33	0.54817	-0.162
Mof_C 	C 	9.38991e-33	0.38223	0.5	-0.199
Mof_C 	C 	0.34861	0.81391	0.81868	-0.144
Mof_C 	C 	9.38991e-33	0.95401	0.5	-0.144
Mof_C 	C 	0.61951	0.88009	0.78574	-0.18
Mof_C 	C 	0.78574	0.38049	0.11991	-0.183
Mof_C 	C 	0.81868	0.65139	0.18609	-0.145
Mof_C 	C 	0.72288	0.15846	0.27862	0.53
Mof_C 	C 	0.88018	0.75372	0.65279	0.114
Mof_C 	C 	0.45183	0.46201	-0	-0.162
Mof_C 	C 	0.68489	0.84694	0.2459	-0.216
Mof_C 	C 	0.27862	0.72288	0.15846	0.53
Mof_C 	C 	0.81391	0.18132	0.34861	-0.145
Mof_C 	C 	0.88273	0.72393	0.75281	-1.036
Mof_C 	C 	0.34721	0.88018	0.75372	0.113
Mof_C 	C 	0.78571	0.58433	0.91545	0.428
Mof_C 	C 	0.78654	0.68473	0.18649	0.047
Mof_C 	C 	0.32511	0.70281	0.16633	-1.007
Mof_C 	C 	0.84154	0.72138	0.72288	0.538
Mof_C 	C 	0.58433	0.08455	0.21429	0.428
Mof_C 	C 	0.18649	0.21346	0.68473	0.047
Mof_C 	C 	0.38049	0.88009	0.21426	-0.181
Mof_C 	C 	0.21346	0.68473	0.81351	0.048
Mof_C 	C 	0.21429	0.41567	0.08455	0.428
Mof_C 	C 	0.58433	0.08455	0.78571	0.428
Mof_C 	C 	0.15313	0.18204	0.381	0.073
Mof_C 	C 	0.24628	0.65279	0.11982	0.113
Mof_C 	C 	0.15306	0.2459	0.68489	-0.215
Mof_C 	C 	0.75281	0.11727	0.72393	-1.021
Mof_C 	C 	0.25438	0.20046	0.73959	-0.221
Mof_C 	C 	0.54817	0.53799	-0	-0.162
Mof_C 	C 	0.84154	0.27862	0.27712	0.535
Mof_C 	C 	0.59464	0.4618	-0	0.1
Mof_C 	C 	0.5	0	0.47509	0.067
Mof_C 	C 	0.20046	0.73959	0.25438	-0.221
Mof_C 	C 	0.81796	0.619	0.84687	0.073
Mof_C 	C 	0.16633	0.32511	0.29719	-1.005
Mof_C 	C 	0.81351	0.21346	0.31527	0.048
Mof_C 	C 	0.20046	0.26041	0.74562	-0.221
Mof_C 	C 	0.33233	0.5	-0	0.448
Mof_C 	C 	0.18132	0.34861	0.18609	-0.146
Mof_C 	C 	0.11982	0.75372	0.34721	0.113
Mof_C 	C 	0.22228	0.72358	0.21652	0.098
Mof_C 	C 	0.91545	0.78571	0.58433	0.428
Mof_C 	C 	0.88018	0.24628	0.34721	0.113
Mof_C 	C 	0.24628	0.65279	0.88018	0.114
Mof_C 	C 	0.34861	0.18609	0.81868	-0.145
Mof_C 	C 	0.77772	0.27642	0.78348	0.1
Mof_C 	C 	0.5	0.03933	0.02314	-0.067
Mof_C 	C 	0.38049	0.11991	0.21426	-0.184
Mof_C 	C 	0.25438	0.20046	0.26041	-0.22
Mof_C 	C 	0.68473	0.18649	0.78654	0.047
Mof_C 	C 	0.72138	0.27712	0.84154	0.536
Mof_C 	C 	0.77772	0.27642	0.21652	0.099
Mof_C 	C 	0.79954	0.26041	0.25438	-0.223
Mof_C 	C 	0.61951	0.11991	0.21426	-0.184
Mof_C 	C 	0.74562	0.79954	0.26041	-0.223
Mof_C 	C 	0.21429	0.58433	0.08455	0.428
Mof_C 	C 	0.5	0	0.61777	-0.199
Mof_C 	C 	0.27862	0.72288	0.84154	0.537
Mof_C 	C 	0.68489	0.15306	0.2459	-0.215
Mof_C 	C 	0.24628	0.34721	0.88018	0.113
Mof_C 	C 	0.2459	0.31511	0.84694	-0.215
Mof_C 	C 	1.30043e-32	0.40536	0.4618	0.1
Mof_C 	C 	0.18132	0.65139	0.81391	-0.145
Mof_C 	C 	0.38049	0.11991	0.78574	-0.183
Mof_C 	C 	0.84687	0.18204	0.619	0.073
Mof_C 	C 	0.78574	0.61951	0.88009	-0.18
Mof_C 	C 	0.5	0	0.95401	-0.144
Mof_C 	C 	0.15306	0.2459	0.31511	-0.214
Mof_C 	C 	0.84154	0.72138	0.27712	0.536
Mof_C 	C 	0.70281	0.83367	0.67489	-1.019
Mof_C 	C 	0.25438	0.79954	0.73959	-0.223
Mof_C 	C 	0.46201	-3.75761e-33	0.45183	-0.162
Mof_C 	C 	0.77772	0.72358	0.78348	0.101
Mof_C 	C 	0.81351	0.78654	0.31527	0.047
Mof_C 	C 	0.78574	0.61951	0.11991	-0.183
Mof_O 	O 	0.58914	0.94725	0.24117	-0.525
Mof_O 	O 	0.96291	0.88507	0.5	-0.515
Mof_O 	O 	0.96291	0.11493	0.5	-0.51
Mof_O 	O 	0.21437	0.5	-0	-0.965
Mof_O 	O 	0.53707	0	0.31367	-0.541
Mof_O 	O 	0.5	0.03709	0.11493	-0.519
Mof_O 	O 	0.55264	0.91087	0.18763	-0.529
Mof_O 	O 	0.55264	0.91087	0.81237	-0.528
Mof_O 	O 	0.41086	0.94725	0.75883	-0.525
Mof_O 	O 	9.38991e-33	0.78563	0.5	-0.965
Mof_O 	O 	0.41086	0.05275	0.75883	-0.533
Mof_O 	O 	0.75883	0.58914	0.05275	-0.532
Mof_O 	O 	0.75883	0.58914	0.94725	-0.525
Mof_O 	O 	0.18763	0.44736	0.91087	-0.529
Mof_O 	O 	0.91087	0.18763	0.55264	-0.529
Mof_O 	O 	0.78563	0.5	-0	-0.965
Mof_O 	O 	0.03709	0.11493	0.5	-0.519
Mof_O 	O 	0.08913	0.18763	0.55264	-0.532
Mof_O 	O 	0.05275	0.24117	0.41086	-0.533
Mof_O 	O 	2.01369e-33	0.31367	0.53707	-0.541
Mof_O 	O 	0.58914	0.05275	0.75883	-0.532
Mof_O 	O 	0.75883	0.41086	0.94725	-0.525
Mof_O 	O 	0.91087	0.81237	0.55264	-0.528
Mof_O 	O 	0.41086	0.05275	0.24117	-0.533
Mof_O 	O 	0.88507	0.5	0.96291	-0.515
Mof_O 	O 	0.55264	0.08913	0.18763	-0.532
Mof_O 	O 	0.5	0	0.78563	-0.965
Mof_O 	O 	0.88507	0.5	0.03709	-0.524
Mof_O 	O 	0.41086	0.94725	0.24117	-0.525
Mof_O 	O 	0.31367	0.46293	-0	-0.541
Mof_O 	O 	0.31367	0.53707	-0	-0.541
Mof_O 	O 	0.68633	0.46293	-0	-0.541
Mof_O 	O 	0.75883	0.41086	0.05275	-0.533
Mof_O 	O 	0.18763	0.55264	0.91087	-0.529
Mof_O 	O 	0.18763	0.44736	0.08913	-0.532
Mof_O 	O 	0.5	0.96291	0.88507	-0.515
Mof_O 	O 	-2.0219e-33	0.68633	0.46293	-0.541
Mof_O 	O 	0.03709	0.88507	0.5	-0.524
Mof_O 	O 	0.91087	0.18763	0.44736	-0.529
Mof_O 	O 	0.46293	0	0.68633	-0.541
Mof_O 	O 	0.68633	0.53707	-0	-0.541
Mof_O 	O 	9.25092e-33	0.31367	0.46293	-0.541
Mof_O 	O 	0.05275	0.75883	0.41086	-0.533
Mof_O 	O 	1.8747e-33	0.21437	0.5	-0.965
Mof_O 	O 	0.5	1.8788e-33	0.21437	-0.965
Mof_O 	O 	0.81237	0.55264	0.91087	-0.528
Mof_O 	O 	0.55264	0.08913	0.81237	-0.531
Mof_O 	O 	0.94725	0.24117	0.58914	-0.525
Mof_O 	O 	0.05275	0.75883	0.58914	-0.532
Mof_O 	O 	0.08913	0.18763	0.44736	-0.532
Mof_O 	O 	0.91087	0.81237	0.44736	-0.528
Mof_O 	O 	0.94725	0.75883	0.41086	-0.525
Mof_O 	O 	0.11493	0.5	0.96291	-0.51
Mof_O 	O 	0.44736	0.08913	0.18763	-0.532
Mof_O 	O 	0.5	0.03709	0.88507	-0.524
Mof_O 	O 	0.94725	0.24117	0.41086	-0.525
Mof_O 	O 	0.81237	0.55264	0.08913	-0.531
Mof_O 	O 	0.24117	0.41086	0.94725	-0.525
Mof_O 	O 	0.58914	0.05275	0.24117	-0.533
Mof_O 	O 	0.18763	0.55264	0.08913	-0.532
Mof_O 	O 	0.44736	0.08913	0.81237	-0.531
Mof_O 	O 	0.81237	0.44736	0.91087	-0.528
Mof_O 	O 	2.01369e-33	0.68633	0.53707	-0.541
Mof_O 	O 	0.53707	0	0.68633	-0.541
Mof_O 	O 	0.5	0.96291	0.11493	-0.51
Mof_O 	O 	0.44736	0.91087	0.18763	-0.529
Mof_O 	O 	0.08913	0.81237	0.55264	-0.531
Mof_O 	O 	0.44736	0.91087	0.81237	-0.528
Mof_O 	O 	0.46293	0	0.31367	-0.541
Mof_O 	O 	0.24117	0.41086	0.05275	-0.533
Mof_O 	O 	0.81237	0.44736	0.08913	-0.531
Mof_O 	O 	0.11493	0.5	0.03709	-0.519
Mof_O 	O 	0.05275	0.24117	0.58914	-0.533
Mof_O 	O 	0.58914	0.94725	0.75883	-0.525
Mof_O 	O 	0.08913	0.81237	0.44736	-0.531
Mof_O 	O 	0.24117	0.58914	0.94725	-0.525
Mof_O 	O 	0.24117	0.58914	0.05275	-0.533
Mof_O 	O 	0.94725	0.75883	0.58914	-0.525
_end
