data_functionalizedCrystal
_audit_creation_method	'EQeq! by Chris Wilmer'
_symmetry_space_group_name_H-M	'P1'
_symmetry_Int_Tables_number	1
_symmetry_cell_setting	triclinic
loop_
_symmetry_equiv_pos_as_xyz
  x,y,z
_cell_length_a	18.9677
_cell_length_b	19.9186
_cell_length_c	31.739
_cell_angle_alpha	90
_cell_angle_beta	95.287
_cell_angle_gamma	90
loop_
_atom_site_label
_atom_site_type_symbol
_atom_site_fract_x
_atom_site_fract_y
_atom_site_fract_z
_atom_site_charge
Mof_Zn	Zn	0.35819	0.85897	0.4085	1.233
Mof_Zn	Zn	0.1439	0.0889	0.17478	1.166
Mof_O 	O 	0.4258	0.8224	0.3323	-0.316
Mof_O 	O 	0.4625	0.8413	0.3957	-0.452
Mof_O 	O 	0.5607	0.8148	0.3137	-0.316
Mof_O 	O 	0.2384	0.2713	0.0372	-0.263
Mof_O 	O 	0.1672	0.26	0.0896	-0.426
Mof_O 	O 	0.2922	0.1491	0.05081	-0.368
Mof_O 	O 	0.8828	0.3992	0.9649	-0.433
Mof_O 	O 	0.778	0.4452	0.9685	-0.288
Mof_O 	O 	0.8192	0.4784	0.0544	-0.356
Mof_O 	O 	0.1484	0.0944	0.2354	-0.466
Mof_O 	O 	0.113	0.1996	0.2426	-0.27
Mof_O 	O 	0.076	0.183	0.3242	-0.325
Mof_O 	O 	0.3098	0.9188	0.3692	-0.446
Mof_O 	O 	0.2087	0.8632	0.3788	-0.275
Mof_O 	O 	0.1252	0.9578	0.333	-0.298
Mof_O 	O 	0.228	0.4739	0.3138	-0.193
Mof_O 	O 	0.2845	0.554	0.3461	-0.486
Mof_O 	O 	0.0952	0.5254	0.3186	-0.371
Mof_C 	C 	0.4696	0.8263	0.3602	0.348
Mof_C 	C 	0.544	0.7987	0.3554	0.115
Mof_H 	H 	0.5786	0.8192	0.3764	0.003
Mof_C 	C 	0.5484	0.7206	0.3584	-0.482
Mof_H 	H 	0.5961	0.7064	0.3557	0.16
Mof_H 	H 	0.5173	0.701	0.3362	0.154
Mof_H 	H 	0.5344	0.7063	0.3853	0.137
Mof_C 	C 	0.5904	0.874	0.3067	0.487
Mof_C 	C 	0.5823	0.9321	0.331	-0.562
Mof_H 	H 	0.5568	0.9306	0.3546	0.225
Mof_C 	C 	0.6123	0.9905	0.3195	0.505
Mof_C 	C 	0.6485	0.993	0.283	-0.432
Mof_C 	C 	0.6551	0.9363	0.2573	0.552
Mof_C 	C 	0.6231	0.8804	0.2685	-0.589
Mof_H 	H 	0.6222	0.8437	0.2504	0.227
Mof_C 	C 	0.6116	0.0537	0.3467	-0.96
Mof_H 	H 	0.6588	0.0634	0.3586	0.303
Mof_H 	H 	0.5816	0.0466	0.3691	0.306
Mof_H 	H 	0.5939	0.0908	0.3295	0.299
Mof_C 	C 	0.6935	0.9364	0.2182	-1.03
Mof_H 	H 	0.6901	0.8927	0.2054	0.294
Mof_H 	H 	0.7424	0.9473	0.2255	0.299
Mof_H 	H 	0.6726	0.9691	0.1986	0.307
Mof_C 	C 	0.131	0.1493	0.2599	0.205
Mof_C 	C 	0.1278	0.1404	0.3053	0.191
Mof_H 	H 	0.119	0.0931	0.3115	-0.018
Mof_C 	C 	0.2001	0.161	0.3256	-0.635
Mof_H 	H 	0.2335	0.1256	0.3222	0.208
Mof_H 	H 	0.1973	0.1693	0.3552	0.22
Mof_H 	H 	0.2152	0.2011	0.3123	0.218
Mof_C 	C 	0.0064	0.1626	0.3109	0.552
Mof_C 	C 	0.99	0.1103	0.2848	-0.581
Mof_H 	H 	0.0265	0.085	0.2752	0.227
Mof_C 	C 	0.9195	0.0926	0.2718	0.451
Mof_C 	C 	0.8678	0.1376	0.2874	-0.438
Mof_C 	C 	0.8844	0.1921	0.3135	0.667
Mof_C 	C 	0.9547	0.2025	0.3248	-0.692
Mof_H 	H 	0.968	0.2381	0.3428	0.262
Mof_C 	C 	0.9012	0.0356	0.2401	-0.842
Mof_H 	H 	0.8509	0.029	0.2369	0.261
Mof_H 	H 	0.9241	0.995	0.2504	0.229
Mof_H 	H 	0.9174	0.0472	0.2133	0.246
Mof_C 	C 	0.828	0.2335	0.3273	-1.259
Mof_H 	H 	0.8459	0.26	0.3512	0.364
Mof_H 	H 	0.7903	0.2053	0.3351	0.379
Mof_H 	H 	0.8104	0.2626	0.3046	0.374
Mof_C 	C 	0.8377	0.4334	0.9827	0.266
Mof_C 	C 	0.871	0.4653	0.0242	0.135
Mof_H 	H 	0.9098	0.4375	0.0371	-0.002
Mof_C 	C 	0.7835	0.424	0.0731	0.65
Mof_C 	C 	0.7923	0.363	0.0592	-0.64
Mof_H 	H 	0.8223	0.3542	0.0383	0.266
Mof_C 	C 	0.7524	0.3088	0.078	0.527
Mof_C 	C 	0.709	0.325	0.1099	-0.513
Mof_C 	C 	0.7039	0.3909	0.1219	0.68
Mof_C 	C 	0.7431	0.4361	0.1033	-0.793
Mof_H 	H 	0.7413	0.4802	0.1128	0.28
Mof_C 	C 	0.7589	0.2339	0.0638	-0.995
Mof_H 	H 	0.7513	0.2048	0.0871	0.312
Mof_H 	H 	0.8054	0.2263	0.0551	0.316
Mof_H 	H 	0.7241	0.2248	0.0407	0.333
Mof_C 	C 	0.6621	0.4105	0.159	-1.157
Mof_H 	H 	0.6688	0.4575	0.165	0.341
Mof_H 	H 	0.6786	0.3847	0.1835	0.357
Mof_H 	H 	0.6127	0.4018	0.1518	0.351
Mof_C 	C 	0.2096	0.2396	0.0633	0.226
Mof_C 	C 	0.2299	0.1677	0.069	0.205
Mof_H 	H 	0.2345	0.1565	0.0992	-0.049
Mof_C 	C 	0.175	0.1217	0.0454	-0.586
Mof_H 	H 	0.1288	0.1321	0.0537	0.166
Mof_H 	H 	0.1863	0.0757	0.0522	0.184
Mof_H 	H 	0.1755	0.1283	0.0155	0.191
Mof_C 	C 	0.3583	0.1643	0.0714	0.625
Mof_C 	C 	0.4135	0.1383	0.0571	-0.744
Mof_H 	H 	0.4084	0.1114	0.033	0.272
Mof_C 	C 	0.4797	0.1497	0.0768	0.624
Mof_C 	C 	0.4863	0.1946	0.1108	-0.469
Mof_C 	C 	0.4267	0.2219	0.1259	0.523
Mof_C 	C 	0.3608	0.2056	0.1063	-0.629
Mof_H 	H 	0.3196	0.2221	0.1162	0.259
Mof_C 	C 	0.5439	0.1175	0.0592	-1.124
Mof_H 	H 	0.576	0.1015	0.0822	0.35
Mof_H 	H 	0.5674	0.1502	0.0433	0.35
Mof_H 	H 	0.5287	0.0806	0.0412	0.34
Mof_C 	C 	0.4343	0.2714	0.1659	-0.936
Mof_H 	H 	0.4013	0.3078	0.1613	0.319
Mof_H 	H 	0.4817	0.289	0.1695	0.297
Mof_H 	H 	0.4246	0.2472	0.1909	0.286
Mof_C 	C 	0.6862	0.0596	0.2693	0.182
Mof_C 	C 	0.7536	0.0731	0.2855	-0.291
Mof_H 	H 	0.7744	0.0478	0.3079	0.102
Mof_C 	C 	0.7905	0.1239	0.2688	0.174
Mof_C 	C 	0.7627	0.1651	0.2354	-0.082
Mof_C 	C 	0.8009	0.2134	0.2152	-0.055
Mof_H 	H 	0.8481	0.2205	0.2249	0.048
Mof_C 	C 	0.7727	0.2495	0.183	-0.029
Mof_H 	H 	0.7994	0.2829	0.1716	0.042
Mof_C 	C 	0.7001	0.2374	0.1653	-0.124
Mof_C 	C 	0.6693	0.2737	0.1287	0.257
Mof_C 	C 	0.6007	0.2587	0.1145	-0.333
Mof_H 	H 	0.5796	0.2835	0.0919	0.143
Mof_C 	C 	0.5589	0.2073	0.132	0.223
Mof_C 	C 	0.588	0.1737	0.1666	-0.125
Mof_C 	C 	0.5518	0.1222	0.1856	-0.016
Mof_H 	H 	0.5055	0.1128	0.1751	0.042
Mof_C 	C 	0.5809	0.0856	0.2184	-0.061
Mof_H 	H 	0.5544	0.0524	0.2302	0.054
Mof_C 	C 	0.6536	0.0979	0.2355	-0.081
Mof_C 	C 	0.6911	0.1467	0.2196	0.009
Mof_C 	C 	0.6596	0.1888	0.1836	0.043
Mof_C 	C 	0.2436	0.9069	0.3601	0.237
Mof_C 	C 	0.2044	0.9601	0.3295	0.116
Mof_H 	H 	0.2235	0.0053	0.3345	0.006
Mof_C 	C 	0.2148	0.935	0.2839	-0.563
Mof_H 	H 	0.2633	0.941	0.2785	0.203
Mof_H 	H 	0.1847	0.9603	0.2637	0.19
Mof_H 	H 	0.2026	0.8883	0.2815	0.192
Mof_C 	C 	0.1075	0.9943	0.3676	0.377
Mof_C 	C 	0.1551	0.0176	0.3993	-0.427
Mof_H 	H 	0.2034	0.0095	0.3991	0.198
Mof_C 	C 	0.1275	0.0549	0.4328	0.403
Mof_C 	C 	0.0553	0.0673	0.4319	-0.349
Mof_C 	C 	0.0082	0.0409	0.3981	0.493
Mof_C 	C 	0.0346	0.0032	0.3684	-0.47
Mof_H 	H 	0.0038	0.9824	0.348	0.169
Mof_C 	C 	0.0261	0.1068	0.4667	0.141
Mof_C 	C 	0.9307	0.0561	0.3973	-1.019
Mof_H 	H 	0.9082	0.048	0.3694	0.313
Mof_H 	H 	0.9244	0.1023	0.4047	0.323
Mof_H 	H 	0.9098	0.0277	0.4172	0.323
Mof_C 	C 	0.1823	0.0846	0.4682	-0.869
Mof_H 	H 	0.1573	0.1075	0.4889	0.279
Mof_H 	H 	0.2131	0.1156	0.4557	0.272
Mof_H 	H 	0.2099	0.0488	0.4816	0.304
Mof_C 	C 	0.027	0.18	0.4663	-0.051
Mof_C 	C 	0.024	0.3214	0.465	-0.12
Mof_C 	C 	0.0479	0.28	0.4318	-0.005
Mof_H 	H 	0.0637	0.3021	0.4087	0.031
Mof_C 	C 	0.0494	0.2147	0.4312	-0.083
Mof_H 	H 	0.0649	0.1917	0.4083	0.063
Mof_C 	C 	0.0229	0.3914	0.4657	0.229
Mof_C 	C 	0.0432	0.4262	0.4282	-0.393
Mof_C 	C 	0.9969	0.4349	0.3923	0.483
Mof_C 	C 	0.0149	0.4637	0.3546	-0.596
Mof_H 	H 	0.9848	0.4603	0.3299	0.239
Mof_C 	C 	0.0757	0.4957	0.3552	0.526
Mof_C 	C 	0.1241	0.494	0.3914	-0.54
Mof_H 	H 	0.1677	0.515	0.3906	0.231
Mof_C 	C 	0.1093	0.4626	0.4278	0.428
Mof_C 	C 	0.1614	0.4565	0.4696	-0.839
Mof_H 	H 	0.2045	0.4801	0.4659	0.259
Mof_H 	H 	0.1717	0.41	0.4753	0.26
Mof_H 	H 	0.1394	0.4756	0.4929	0.252
Mof_C 	C 	0.9241	0.4022	0.3933	-0.929
Mof_H 	H 	0.8895	0.4282	0.3764	0.268
Mof_H 	H 	0.9117	0.4006	0.4219	0.284
Mof_H 	H 	0.9254	0.3575	0.3821	0.278
Mof_C 	C 	0.8977	0.5389	0.0158	-0.506
Mof_H 	H 	0.9025	0.5444	0.9861	0.159
Mof_H 	H 	0.9427	0.5461	0.0315	0.16
Mof_H 	H 	0.8641	0.5708	0.0245	0.171
Mof_C 	C 	0.1508	0.6052	0.2774	-0.813
Mof_H 	H 	0.1338	0.5756	0.2549	0.276
Mof_H 	H 	0.1979	0.6197	0.2732	0.247
Mof_H 	H 	0.1202	0.6436	0.2777	0.253
Mof_C 	C 	0.217	0.54	0.3215	0.066
Mof_C 	C 	0.1517	0.5693	0.3186	0.349
Mof_H 	H 	0.1494	0.602	0.3415	-0.074
Mof_Zn	Zn	0.85819	0.35897	0.9085	1.232
Mof_Zn	Zn	0.6439	0.5889	0.67478	1.163
Mof_O 	O 	0.9258	0.3224	0.8323	-0.314
Mof_O 	O 	0.9625	0.3413	0.8957	-0.451
Mof_O 	O 	0.0607	0.3148	0.8137	-0.319
Mof_O 	O 	0.7384	0.7713	0.5372	-0.265
Mof_O 	O 	0.6672	0.76	0.5896	-0.428
Mof_O 	O 	0.7922	0.6491	0.55081	-0.367
Mof_O 	O 	0.3828	0.8992	0.4649	-0.436
Mof_O 	O 	0.278	0.9452	0.4685	-0.296
Mof_O 	O 	0.3192	0.9784	0.5544	-0.358
Mof_O 	O 	0.6484	0.5944	0.7354	-0.471
Mof_O 	O 	0.613	0.6996	0.7426	-0.272
Mof_O 	O 	0.576	0.683	0.8242	-0.325
Mof_O 	O 	0.8098	0.4188	0.8692	-0.439
Mof_O 	O 	0.7087	0.3632	0.8788	-0.271
Mof_O 	O 	0.6252	0.4578	0.833	-0.322
Mof_O 	O 	0.728	0.9739	0.8138	-0.211
Mof_O 	O 	0.7845	0.054	0.8461	-0.485
Mof_O 	O 	0.5952	0.0254	0.8186	-0.355
Mof_C 	C 	0.9696	0.3263	0.8602	0.344
Mof_C 	C 	0.044	0.2987	0.8554	0.122
Mof_H 	H 	0.0786	0.3192	0.8764	0.002
Mof_C 	C 	0.0484	0.2206	0.8584	-0.492
Mof_H 	H 	0.0961	0.2064	0.8557	0.164
Mof_H 	H 	0.0173	0.201	0.8362	0.159
Mof_H 	H 	0.0344	0.2063	0.8853	0.142
Mof_C 	C 	0.0904	0.374	0.8067	0.496
Mof_C 	C 	0.0823	0.4321	0.831	-0.578
Mof_H 	H 	0.0568	0.4306	0.8546	0.234
Mof_C 	C 	0.1123	0.4905	0.8195	0.533
Mof_C 	C 	0.1485	0.493	0.783	-0.425
Mof_C 	C 	0.1551	0.4363	0.7573	0.561
Mof_C 	C 	0.1231	0.3804	0.7685	-0.597
Mof_H 	H 	0.1222	0.3437	0.7504	0.23
Mof_C 	C 	0.1116	0.5537	0.8467	-1.004
Mof_H 	H 	0.1588	0.5634	0.8586	0.31
Mof_H 	H 	0.0816	0.5466	0.8691	0.313
Mof_H 	H 	0.0939	0.5908	0.8295	0.309
Mof_C 	C 	0.1935	0.4364	0.7182	-1.045
Mof_H 	H 	0.1901	0.3927	0.7054	0.299
Mof_H 	H 	0.2424	0.4473	0.7255	0.307
Mof_H 	H 	0.1726	0.4691	0.6986	0.316
Mof_C 	C 	0.631	0.6493	0.7599	0.205
Mof_C 	C 	0.6278	0.6404	0.8053	0.19
Mof_H 	H 	0.619	0.5931	0.8115	-0.021
Mof_C 	C 	0.7001	0.661	0.8256	-0.631
Mof_H 	H 	0.7335	0.6256	0.8222	0.205
Mof_H 	H 	0.6973	0.6693	0.8552	0.218
Mof_H 	H 	0.7152	0.7011	0.8123	0.216
Mof_C 	C 	0.5064	0.6626	0.8109	0.549
Mof_C 	C 	0.49	0.6103	0.7848	-0.584
Mof_H 	H 	0.5265	0.585	0.7752	0.224
Mof_C 	C 	0.4195	0.5926	0.7718	0.467
Mof_C 	C 	0.3678	0.6376	0.7874	-0.444
Mof_C 	C 	0.3844	0.6921	0.8135	0.667
Mof_C 	C 	0.4547	0.7025	0.8248	-0.69
Mof_H 	H 	0.468	0.7381	0.8428	0.262
Mof_C 	C 	0.4012	0.5356	0.7401	-0.921
Mof_H 	H 	0.3509	0.529	0.7369	0.279
Mof_H 	H 	0.4241	0.495	0.7504	0.265
Mof_H 	H 	0.4174	0.5472	0.7133	0.266
Mof_C 	C 	0.328	0.7335	0.8273	-1.257
Mof_H 	H 	0.3459	0.76	0.8512	0.363
Mof_H 	H 	0.2903	0.7053	0.8351	0.377
Mof_H 	H 	0.3104	0.7626	0.8046	0.374
Mof_C 	C 	0.3377	0.9334	0.4827	0.273
Mof_C 	C 	0.371	0.9653	0.5242	0.113
Mof_H 	H 	0.4098	0.9375	0.5371	0.002
Mof_C 	C 	0.2835	0.924	0.5731	0.641
Mof_C 	C 	0.2923	0.863	0.5592	-0.634
Mof_H 	H 	0.3223	0.8542	0.5383	0.263
Mof_C 	C 	0.2524	0.8088	0.578	0.52
Mof_C 	C 	0.209	0.825	0.6099	-0.507
Mof_C 	C 	0.2039	0.8909	0.6219	0.669
Mof_C 	C 	0.2431	0.9361	0.6033	-0.784
Mof_H 	H 	0.2413	0.9802	0.6128	0.272
Mof_C 	C 	0.2589	0.7339	0.5638	-0.985
Mof_H 	H 	0.2513	0.7048	0.5871	0.308
Mof_H 	H 	0.3054	0.7263	0.5551	0.312
Mof_H 	H 	0.2241	0.7248	0.5407	0.329
Mof_C 	C 	0.1621	0.9105	0.659	-1.141
Mof_H 	H 	0.1688	0.9575	0.665	0.332
Mof_H 	H 	0.1786	0.8847	0.6835	0.352
Mof_H 	H 	0.1127	0.9018	0.6518	0.346
Mof_C 	C 	0.7096	0.7396	0.5633	0.228
Mof_C 	C 	0.7299	0.6677	0.569	0.198
Mof_H 	H 	0.7345	0.6565	0.5992	-0.047
Mof_C 	C 	0.675	0.6217	0.5454	-0.571
Mof_H 	H 	0.6288	0.6321	0.5537	0.16
Mof_H 	H 	0.6863	0.5757	0.5522	0.175
Mof_H 	H 	0.6755	0.6283	0.5155	0.184
Mof_C 	C 	0.8583	0.6643	0.5714	0.617
Mof_C 	C 	0.9135	0.6383	0.5571	-0.733
Mof_H 	H 	0.9084	0.6114	0.533	0.264
Mof_C 	C 	0.9797	0.6497	0.5768	0.607
Mof_C 	C 	0.9863	0.6946	0.6108	-0.464
Mof_C 	C 	0.9267	0.7219	0.6259	0.517
Mof_C 	C 	0.8608	0.7056	0.6063	-0.623
Mof_H 	H 	0.8196	0.7221	0.6162	0.257
Mof_C 	C 	0.0439	0.6175	0.5592	-1.095
Mof_H 	H 	0.076	0.6015	0.5822	0.338
Mof_H 	H 	0.0674	0.6502	0.5433	0.341
Mof_H 	H 	0.0287	0.5806	0.5412	0.327
Mof_C 	C 	0.9343	0.7714	0.6659	-0.929
Mof_H 	H 	0.9013	0.8078	0.6613	0.316
Mof_H 	H 	0.9817	0.789	0.6695	0.294
Mof_H 	H 	0.9246	0.7472	0.6909	0.283
Mof_C 	C 	0.1862	0.5596	0.7693	0.165
Mof_C 	C 	0.2536	0.5731	0.7855	-0.285
Mof_H 	H 	0.2744	0.5478	0.8079	0.093
Mof_C 	C 	0.2905	0.6239	0.7688	0.17
Mof_C 	C 	0.2627	0.6651	0.7354	-0.081
Mof_C 	C 	0.3009	0.7134	0.7152	-0.056
Mof_H 	H 	0.3481	0.7205	0.7249	0.049
Mof_C 	C 	0.2727	0.7495	0.683	-0.029
Mof_H 	H 	0.2994	0.7829	0.6716	0.042
Mof_C 	C 	0.2001	0.7374	0.6653	-0.123
Mof_C 	C 	0.1693	0.7737	0.6287	0.254
Mof_C 	C 	0.1007	0.7587	0.6145	-0.33
Mof_H 	H 	0.0796	0.7835	0.5919	0.142
Mof_C 	C 	0.0589	0.7073	0.632	0.222
Mof_C 	C 	0.088	0.6737	0.6666	-0.125
Mof_C 	C 	0.0518	0.6222	0.6856	-0.016
Mof_H 	H 	0.0055	0.6128	0.6751	0.041
Mof_C 	C 	0.0809	0.5856	0.7184	-0.066
Mof_H 	H 	0.0544	0.5524	0.7302	0.05
Mof_C 	C 	0.1536	0.5979	0.7355	-0.078
Mof_C 	C 	0.1911	0.6467	0.7196	0.005
Mof_C 	C 	0.1596	0.6888	0.6836	0.042
Mof_C 	C 	0.7436	0.4069	0.8601	0.225
Mof_C 	C 	0.7044	0.4601	0.8295	0.165
Mof_H 	H 	0.7235	0.5053	0.8345	-0.023
Mof_C 	C 	0.7148	0.435	0.7839	-0.611
Mof_H 	H 	0.7633	0.441	0.7785	0.221
Mof_H 	H 	0.6847	0.4603	0.7637	0.21
Mof_H 	H 	0.7026	0.3883	0.7815	0.207
Mof_C 	C 	0.6075	0.4943	0.8676	0.472
Mof_C 	C 	0.6551	0.5176	0.8993	-0.503
Mof_H 	H 	0.7034	0.5095	0.8991	0.217
Mof_C 	C 	0.6275	0.5549	0.9328	0.438
Mof_C 	C 	0.5553	0.5673	0.9319	-0.387
Mof_C 	C 	0.5082	0.5409	0.8981	0.554
Mof_C 	C 	0.5346	0.5032	0.8684	-0.589
Mof_H 	H 	0.5038	0.4824	0.848	0.221
Mof_C 	C 	0.5261	0.6068	0.9667	0.156
Mof_C 	C 	0.4307	0.5561	0.8973	-1.079
Mof_H 	H 	0.4082	0.548	0.8694	0.326
Mof_H 	H 	0.4244	0.6023	0.9047	0.339
Mof_H 	H 	0.4098	0.5277	0.9172	0.336
Mof_C 	C 	0.6823	0.5846	0.9682	-0.895
Mof_H 	H 	0.6573	0.6075	0.9889	0.284
Mof_H 	H 	0.7131	0.6156	0.9557	0.278
Mof_H 	H 	0.7099	0.5488	0.9816	0.306
Mof_C 	C 	0.527	0.68	0.9663	-0.066
Mof_C 	C 	0.524	0.8214	0.965	-0.117
Mof_C 	C 	0.5479	0.78	0.9318	-0.014
Mof_H 	H 	0.5637	0.8021	0.9087	0.033
Mof_C 	C 	0.5494	0.7147	0.9312	-0.074
Mof_H 	H 	0.5649	0.6917	0.9083	0.06
Mof_C 	C 	0.5229	0.8914	0.9657	0.223
Mof_C 	C 	0.5432	0.9262	0.9282	-0.399
Mof_C 	C 	0.4969	0.9349	0.8923	0.489
Mof_C 	C 	0.5149	0.9637	0.8546	-0.605
Mof_H 	H 	0.4848	0.9603	0.8299	0.239
Mof_C 	C 	0.5757	0.9957	0.8552	0.52
Mof_C 	C 	0.6241	0.994	0.8914	-0.576
Mof_H 	H 	0.6677	0.015	0.8906	0.255
Mof_C 	C 	0.6093	0.9626	0.9278	0.435
Mof_C 	C 	0.6614	0.9565	0.9696	-0.837
Mof_H 	H 	0.7045	0.9801	0.9659	0.252
Mof_H 	H 	0.6717	0.91	0.9753	0.258
Mof_H 	H 	0.6394	0.9756	0.9929	0.246
Mof_C 	C 	0.4241	0.9022	0.8933	-0.931
Mof_H 	H 	0.3895	0.9282	0.8764	0.266
Mof_H 	H 	0.4117	0.9006	0.9219	0.283
Mof_H 	H 	0.4254	0.8575	0.8821	0.278
Mof_C 	C 	0.3977	0.0389	0.5158	-0.481
Mof_H 	H 	0.4025	0.0444	0.4861	0.16
Mof_H 	H 	0.4427	0.0461	0.5315	0.158
Mof_H 	H 	0.3641	0.0708	0.5245	0.168
Mof_C 	C 	0.6508	0.1052	0.7774	-0.801
Mof_H 	H 	0.6338	0.0756	0.7549	0.276
Mof_H 	H 	0.6979	0.1197	0.7732	0.244
Mof_H 	H 	0.6202	0.1436	0.7777	0.249
Mof_C 	C 	0.717	0.04	0.8215	0.087
Mof_C 	C 	0.6517	0.0693	0.8186	0.334
Mof_H 	H 	0.6494	0.102	0.8415	-0.069
Mof_Zn	Zn	0.64181	0.85897	0.5915	1.232
Mof_Zn	Zn	0.8561	0.0889	0.82522	1.164
Mof_O 	O 	0.5742	0.8224	0.6677	-0.316
Mof_O 	O 	0.5375	0.8413	0.6043	-0.452
Mof_O 	O 	0.4393	0.8148	0.6863	-0.316
Mof_O 	O 	0.7616	0.2713	0.9628	-0.265
Mof_O 	O 	0.8328	0.26	0.9104	-0.428
Mof_O 	O 	0.7078	0.1491	0.94919	-0.368
Mof_O 	O 	0.1172	0.3992	0.0351	-0.431
Mof_O 	O 	0.222	0.4452	0.0315	-0.287
Mof_O 	O 	0.1808	0.4784	0.9456	-0.357
Mof_O 	O 	0.8516	0.0944	0.7646	-0.466
Mof_O 	O 	0.887	0.1996	0.7574	-0.272
Mof_O 	O 	0.924	0.183	0.6758	-0.319
Mof_O 	O 	0.6902	0.9188	0.6308	-0.446
Mof_O 	O 	0.7913	0.8632	0.6212	-0.275
Mof_O 	O 	0.8748	0.9578	0.667	-0.297
Mof_O 	O 	0.772	0.4739	0.6862	-0.193
Mof_O 	O 	0.7155	0.554	0.6539	-0.486
Mof_O 	O 	0.9048	0.5254	0.6814	-0.377
Mof_C 	C 	0.5304	0.8263	0.6398	0.348
Mof_C 	C 	0.456	0.7987	0.6446	0.115
Mof_H 	H 	0.4214	0.8192	0.6236	0.003
Mof_C 	C 	0.4516	0.7206	0.6416	-0.482
Mof_H 	H 	0.4039	0.7064	0.6443	0.16
Mof_H 	H 	0.4827	0.701	0.6638	0.154
Mof_H 	H 	0.4656	0.7063	0.6147	0.137
Mof_C 	C 	0.4096	0.874	0.6933	0.487
Mof_C 	C 	0.4177	0.9321	0.669	-0.562
Mof_H 	H 	0.4432	0.9306	0.6454	0.225
Mof_C 	C 	0.3877	0.9905	0.6805	0.505
Mof_C 	C 	0.3515	0.993	0.717	-0.432
Mof_C 	C 	0.3449	0.9363	0.7427	0.552
Mof_C 	C 	0.3769	0.8804	0.7315	-0.589
Mof_H 	H 	0.3778	0.8437	0.7496	0.227
Mof_C 	C 	0.3884	0.0537	0.6533	-0.96
Mof_H 	H 	0.3412	0.0634	0.6414	0.303
Mof_H 	H 	0.4184	0.0466	0.6309	0.306
Mof_H 	H 	0.4061	0.0908	0.6705	0.299
Mof_C 	C 	0.3065	0.9364	0.7818	-1.03
Mof_H 	H 	0.3099	0.8927	0.7946	0.294
Mof_H 	H 	0.2576	0.9473	0.7745	0.299
Mof_H 	H 	0.3274	0.9691	0.8014	0.307
Mof_C 	C 	0.869	0.1493	0.7401	0.207
Mof_C 	C 	0.8722	0.1404	0.6947	0.187
Mof_H 	H 	0.881	0.0931	0.6885	-0.017
Mof_C 	C 	0.7999	0.161	0.6744	-0.632
Mof_H 	H 	0.7665	0.1256	0.6778	0.207
Mof_H 	H 	0.8027	0.1693	0.6448	0.219
Mof_H 	H 	0.7848	0.2011	0.6877	0.217
Mof_C 	C 	0.9936	0.1626	0.6891	0.524
Mof_C 	C 	0.01	0.1103	0.7152	-0.548
Mof_H 	H 	0.9735	0.085	0.7248	0.213
Mof_C 	C 	0.0805	0.0926	0.7282	0.435
Mof_C 	C 	0.1322	0.1376	0.7126	-0.426
Mof_C 	C 	0.1156	0.1921	0.6865	0.648
Mof_C 	C 	0.0453	0.2025	0.6752	-0.665
Mof_H 	H 	0.032	0.2381	0.6572	0.255
Mof_C 	C 	0.0988	0.0356	0.7599	-0.824
Mof_H 	H 	0.1491	0.029	0.7631	0.256
Mof_H 	H 	0.0759	0.995	0.7496	0.225
Mof_H 	H 	0.0826	0.0472	0.7867	0.242
Mof_C 	C 	0.172	0.2335	0.6727	-1.234
Mof_H 	H 	0.1541	0.26	0.6488	0.357
Mof_H 	H 	0.2097	0.2053	0.6649	0.372
Mof_H 	H 	0.1896	0.2626	0.6954	0.367
Mof_C 	C 	0.1623	0.4334	0.0173	0.269
Mof_C 	C 	0.129	0.4653	0.9758	0.137
Mof_H 	H 	0.0902	0.4375	0.9629	-0.003
Mof_C 	C 	0.2165	0.424	0.9269	0.649
Mof_C 	C 	0.2077	0.363	0.9408	-0.639
Mof_H 	H 	0.1777	0.3542	0.9617	0.264
Mof_C 	C 	0.2476	0.3088	0.922	0.525
Mof_C 	C 	0.291	0.325	0.8901	-0.512
Mof_C 	C 	0.2961	0.3909	0.8781	0.679
Mof_C 	C 	0.2569	0.4361	0.8967	-0.792
Mof_H 	H 	0.2587	0.4802	0.8872	0.279
Mof_C 	C 	0.2411	0.2339	0.9362	-0.99
Mof_H 	H 	0.2487	0.2048	0.9129	0.31
Mof_H 	H 	0.1946	0.2263	0.9449	0.314
Mof_H 	H 	0.2759	0.2248	0.9593	0.33
Mof_C 	C 	0.3379	0.4105	0.841	-1.156
Mof_H 	H 	0.3312	0.4575	0.835	0.34
Mof_H 	H 	0.3214	0.3847	0.8165	0.357
Mof_H 	H 	0.3873	0.4018	0.8482	0.351
Mof_C 	C 	0.7904	0.2396	0.9367	0.227
Mof_C 	C 	0.7701	0.1677	0.931	0.201
Mof_H 	H 	0.7655	0.1565	0.9008	-0.048
Mof_C 	C 	0.825	0.1217	0.9546	-0.579
Mof_H 	H 	0.8712	0.1321	0.9463	0.163
Mof_H 	H 	0.8137	0.0757	0.9478	0.181
Mof_H 	H 	0.8245	0.1283	0.9845	0.188
Mof_C 	C 	0.6417	0.1643	0.9286	0.623
Mof_C 	C 	0.5865	0.1383	0.9429	-0.741
Mof_H 	H 	0.5916	0.1114	0.967	0.27
Mof_C 	C 	0.5203	0.1497	0.9232	0.621
Mof_C 	C 	0.5137	0.1946	0.8892	-0.468
Mof_C 	C 	0.5733	0.2219	0.8741	0.522
Mof_C 	C 	0.6392	0.2056	0.8937	-0.628
Mof_H 	H 	0.6804	0.2221	0.8838	0.259
Mof_C 	C 	0.4561	0.1175	0.9408	-1.118
Mof_H 	H 	0.424	0.1015	0.9178	0.348
Mof_H 	H 	0.4326	0.1502	0.9567	0.347
Mof_H 	H 	0.4713	0.0806	0.9588	0.337
Mof_C 	C 	0.5657	0.2714	0.8341	-0.935
Mof_H 	H 	0.5987	0.3078	0.8387	0.318
Mof_H 	H 	0.5183	0.289	0.8305	0.296
Mof_H 	H 	0.5754	0.2472	0.8091	0.285
Mof_C 	C 	0.3138	0.0596	0.7307	0.181
Mof_C 	C 	0.2464	0.0731	0.7145	-0.288
Mof_H 	H 	0.2256	0.0478	0.6921	0.101
Mof_C 	C 	0.2095	0.1239	0.7312	0.169
Mof_C 	C 	0.2373	0.1651	0.7646	-0.08
Mof_C 	C 	0.1991	0.2134	0.7848	-0.057
Mof_H 	H 	0.1519	0.2205	0.7751	0.049
Mof_C 	C 	0.2273	0.2495	0.817	-0.028
Mof_H 	H 	0.2006	0.2829	0.8284	0.042
Mof_C 	C 	0.2999	0.2374	0.8347	-0.124
Mof_C 	C 	0.3307	0.2737	0.8713	0.257
Mof_C 	C 	0.3993	0.2587	0.8855	-0.332
Mof_H 	H 	0.4204	0.2835	0.9081	0.142
Mof_C 	C 	0.4411	0.2073	0.868	0.222
Mof_C 	C 	0.412	0.1737	0.8334	-0.125
Mof_C 	C 	0.4482	0.1222	0.8144	-0.016
Mof_H 	H 	0.4945	0.1128	0.8249	0.042
Mof_C 	C 	0.4191	0.0856	0.7816	-0.062
Mof_H 	H 	0.4456	0.0524	0.7698	0.054
Mof_C 	C 	0.3464	0.0979	0.7645	-0.079
Mof_C 	C 	0.3089	0.1467	0.7804	0.008
Mof_C 	C 	0.3404	0.1888	0.8164	0.043
Mof_C 	C 	0.7564	0.9069	0.6399	0.237
Mof_C 	C 	0.7956	0.9601	0.6705	0.116
Mof_H 	H 	0.7765	0.0053	0.6655	0.006
Mof_C 	C 	0.7852	0.935	0.7161	-0.562
Mof_H 	H 	0.7367	0.941	0.7215	0.202
Mof_H 	H 	0.8153	0.9603	0.7363	0.19
Mof_H 	H 	0.7974	0.8883	0.7185	0.191
Mof_C 	C 	0.8925	0.9943	0.6324	0.373
Mof_C 	C 	0.8449	0.0176	0.6007	-0.424
Mof_H 	H 	0.7966	0.0095	0.6009	0.197
Mof_C 	C 	0.8725	0.0549	0.5672	0.399
Mof_C 	C 	0.9447	0.0673	0.5681	-0.344
Mof_C 	C 	0.9918	0.0409	0.6019	0.482
Mof_C 	C 	0.9654	0.0032	0.6316	-0.463
Mof_H 	H 	0.9962	0.9824	0.652	0.165
Mof_C 	C 	0.9739	0.1068	0.5333	0.137
Mof_C 	C 	0.0693	0.0561	0.6027	-1.002
Mof_H 	H 	0.0918	0.048	0.6306	0.309
Mof_H 	H 	0.0756	0.1023	0.5953	0.319
Mof_H 	H 	0.0902	0.0277	0.5828	0.319
Mof_C 	C 	0.8177	0.0846	0.5318	-0.865
Mof_H 	H 	0.8427	0.1075	0.5111	0.278
Mof_H 	H 	0.7869	0.1156	0.5443	0.271
Mof_H 	H 	0.7901	0.0488	0.5184	0.303
Mof_C 	C 	0.973	0.18	0.5337	-0.052
Mof_C 	C 	0.976	0.3214	0.535	-0.124
Mof_C 	C 	0.9521	0.28	0.5682	-0.004
Mof_H 	H 	0.9363	0.3021	0.5913	0.03
Mof_C 	C 	0.9506	0.2147	0.5688	-0.084
Mof_H 	H 	0.9351	0.1917	0.5917	0.064
Mof_C 	C 	0.9771	0.3914	0.5343	0.232
Mof_C 	C 	0.9568	0.4262	0.5718	-0.41
Mof_C 	C 	0.0031	0.4349	0.6077	0.513
Mof_C 	C 	0.9851	0.4637	0.6454	-0.631
Mof_H 	H 	0.0152	0.4603	0.6701	0.253
Mof_C 	C 	0.9243	0.4957	0.6448	0.544
Mof_C 	C 	0.8759	0.494	0.6086	-0.555
Mof_H 	H 	0.8323	0.515	0.6094	0.236
Mof_C 	C 	0.8907	0.4626	0.5722	0.44
Mof_C 	C 	0.8386	0.4565	0.5304	-0.849
Mof_H 	H 	0.7955	0.4801	0.5341	0.262
Mof_H 	H 	0.8283	0.41	0.5247	0.264
Mof_H 	H 	0.8606	0.4756	0.5071	0.255
Mof_C 	C 	0.0759	0.4022	0.6067	-0.96
Mof_H 	H 	0.1105	0.4282	0.6236	0.278
Mof_H 	H 	0.0883	0.4006	0.5781	0.295
Mof_H 	H 	0.0746	0.3575	0.6179	0.288
Mof_C 	C 	0.1023	0.5389	0.9842	-0.528
Mof_H 	H 	0.0975	0.5444	0.0139	0.17
Mof_H 	H 	0.0573	0.5461	0.9685	0.167
Mof_H 	H 	0.1359	0.5708	0.9755	0.176
Mof_C 	C 	0.8492	0.6052	0.7226	-0.815
Mof_H 	H 	0.8662	0.5756	0.7451	0.276
Mof_H 	H 	0.8021	0.6197	0.7268	0.247
Mof_H 	H 	0.8798	0.6436	0.7223	0.252
Mof_C 	C 	0.783	0.54	0.6785	0.065
Mof_C 	C 	0.8483	0.5693	0.6814	0.352
Mof_H 	H 	0.8506	0.602	0.6585	-0.076
Mof_Zn	Zn	0.14181	0.35897	0.0915	1.232
Mof_Zn	Zn	0.3561	0.5889	0.32522	1.163
Mof_O 	O 	0.0742	0.3224	0.1677	-0.315
Mof_O 	O 	0.0375	0.3413	0.1043	-0.45
Mof_O 	O 	0.9393	0.3148	0.1863	-0.318
Mof_O 	O 	0.2616	0.7713	0.4628	-0.265
Mof_O 	O 	0.3328	0.76	0.4104	-0.428
Mof_O 	O 	0.2078	0.6491	0.44919	-0.368
Mof_O 	O 	0.6172	0.8992	0.5351	-0.436
Mof_O 	O 	0.722	0.9452	0.5315	-0.296
Mof_O 	O 	0.6808	0.9784	0.4456	-0.357
Mof_O 	O 	0.3516	0.5944	0.2646	-0.471
Mof_O 	O 	0.387	0.6996	0.2574	-0.271
Mof_O 	O 	0.424	0.683	0.1758	-0.325
Mof_O 	O 	0.1902	0.4188	0.1308	-0.438
Mof_O 	O 	0.2913	0.3632	0.1212	-0.271
Mof_O 	O 	0.3748	0.4578	0.167	-0.322
Mof_O 	O 	0.272	0.9739	0.1862	-0.211
Mof_O 	O 	0.2155	0.054	0.1539	-0.484
Mof_O 	O 	0.4048	0.0254	0.1814	-0.355
Mof_C 	C 	0.0304	0.3263	0.1398	0.35
Mof_C 	C 	0.956	0.2987	0.1446	0.115
Mof_H 	H 	0.9214	0.3192	0.1236	0.004
Mof_C 	C 	0.9516	0.2206	0.1416	-0.484
Mof_H 	H 	0.9039	0.2064	0.1443	0.162
Mof_H 	H 	0.9827	0.201	0.1638	0.155
Mof_H 	H 	0.9656	0.2063	0.1147	0.139
Mof_C 	C 	0.9096	0.374	0.1933	0.494
Mof_C 	C 	0.9177	0.4321	0.169	-0.576
Mof_H 	H 	0.9432	0.4306	0.1454	0.232
Mof_C 	C 	0.8877	0.4905	0.1805	0.531
Mof_C 	C 	0.8515	0.493	0.217	-0.425
Mof_C 	C 	0.8449	0.4363	0.2427	0.56
Mof_C 	C 	0.8769	0.3804	0.2315	-0.596
Mof_H 	H 	0.8778	0.3437	0.2496	0.229
Mof_C 	C 	0.8884	0.5537	0.1533	-1.002
Mof_H 	H 	0.8412	0.5634	0.1414	0.31
Mof_H 	H 	0.9184	0.5466	0.1309	0.312
Mof_H 	H 	0.9061	0.5908	0.1705	0.308
Mof_C 	C 	0.8065	0.4364	0.2818	-1.044
Mof_H 	H 	0.8099	0.3927	0.2946	0.299
Mof_H 	H 	0.7576	0.4473	0.2745	0.307
Mof_H 	H 	0.8274	0.4691	0.3014	0.316
Mof_C 	C 	0.369	0.6493	0.2401	0.205
Mof_C 	C 	0.3722	0.6404	0.1947	0.19
Mof_H 	H 	0.381	0.5931	0.1885	-0.021
Mof_C 	C 	0.2999	0.661	0.1744	-0.632
Mof_H 	H 	0.2665	0.6256	0.1778	0.206
Mof_H 	H 	0.3027	0.6693	0.1448	0.219
Mof_H 	H 	0.2848	0.7011	0.1877	0.216
Mof_C 	C 	0.4936	0.6626	0.1891	0.549
Mof_C 	C 	0.51	0.6103	0.2152	-0.585
Mof_H 	H 	0.4735	0.585	0.2248	0.224
Mof_C 	C 	0.5805	0.5926	0.2282	0.467
Mof_C 	C 	0.6322	0.6376	0.2126	-0.445
Mof_C 	C 	0.6156	0.6921	0.1865	0.667
Mof_C 	C 	0.5453	0.7025	0.1752	-0.69
Mof_H 	H 	0.532	0.7381	0.1572	0.262
Mof_C 	C 	0.5988	0.5356	0.2599	-0.921
Mof_H 	H 	0.6491	0.529	0.2631	0.279
Mof_H 	H 	0.5759	0.495	0.2496	0.265
Mof_H 	H 	0.5826	0.5472	0.2867	0.266
Mof_C 	C 	0.672	0.7335	0.1727	-1.257
Mof_H 	H 	0.6541	0.76	0.1488	0.363
Mof_H 	H 	0.7097	0.7053	0.1649	0.378
Mof_H 	H 	0.6896	0.7626	0.1954	0.374
Mof_C 	C 	0.6623	0.9334	0.5173	0.273
Mof_C 	C 	0.629	0.9653	0.4758	0.113
Mof_H 	H 	0.5902	0.9375	0.4629	0.002
Mof_C 	C 	0.7165	0.924	0.4269	0.64
Mof_C 	C 	0.7077	0.863	0.4408	-0.633
Mof_H 	H 	0.6777	0.8542	0.4617	0.263
Mof_C 	C 	0.7476	0.8088	0.422	0.519
Mof_C 	C 	0.791	0.825	0.3901	-0.505
Mof_C 	C 	0.7961	0.8909	0.3781	0.666
Mof_C 	C 	0.7569	0.9361	0.3967	-0.782
Mof_H 	H 	0.7587	0.9802	0.3872	0.271
Mof_C 	C 	0.7411	0.7339	0.4362	-0.984
Mof_H 	H 	0.7487	0.7048	0.4129	0.307
Mof_H 	H 	0.6946	0.7263	0.4449	0.311
Mof_H 	H 	0.7759	0.7248	0.4593	0.328
Mof_C 	C 	0.8379	0.9105	0.341	-1.137
Mof_H 	H 	0.8312	0.9575	0.335	0.33
Mof_H 	H 	0.8214	0.8847	0.3165	0.35
Mof_H 	H 	0.8873	0.9018	0.3482	0.343
Mof_C 	C 	0.2904	0.7396	0.4367	0.228
Mof_C 	C 	0.2701	0.6677	0.431	0.198
Mof_H 	H 	0.2655	0.6565	0.4008	-0.047
Mof_C 	C 	0.325	0.6217	0.4546	-0.572
Mof_H 	H 	0.3712	0.6321	0.4463	0.16
Mof_H 	H 	0.3137	0.5757	0.4478	0.176
Mof_H 	H 	0.3245	0.6283	0.4845	0.184
Mof_C 	C 	0.1417	0.6643	0.4286	0.619
Mof_C 	C 	0.0865	0.6383	0.4429	-0.737
Mof_H 	H 	0.0916	0.6114	0.467	0.267
Mof_C 	C 	0.0203	0.6497	0.4232	0.615
Mof_C 	C 	0.0137	0.6946	0.3892	-0.462
Mof_C 	C 	0.0733	0.7219	0.3741	0.519
Mof_C 	C 	0.1392	0.7056	0.3937	-0.625
Mof_H 	H 	0.1804	0.7221	0.3838	0.258
Mof_C 	C 	0.9561	0.6175	0.4408	-1.108
Mof_H 	H 	0.924	0.6015	0.4178	0.341
Mof_H 	H 	0.9326	0.6502	0.4567	0.343
Mof_H 	H 	0.9713	0.5806	0.4588	0.329
Mof_C 	C 	0.0657	0.7714	0.3341	-0.932
Mof_H 	H 	0.0987	0.8078	0.3387	0.317
Mof_H 	H 	0.0183	0.789	0.3305	0.296
Mof_H 	H 	0.0754	0.7472	0.3091	0.284
Mof_C 	C 	0.8138	0.5596	0.2307	0.165
Mof_C 	C 	0.7464	0.5731	0.2145	-0.285
Mof_H 	H 	0.7256	0.5478	0.1921	0.093
Mof_C 	C 	0.7095	0.6239	0.2312	0.171
Mof_C 	C 	0.7373	0.6651	0.2646	-0.081
Mof_C 	C 	0.6991	0.7134	0.2848	-0.056
Mof_H 	H 	0.6519	0.7205	0.2751	0.048
Mof_C 	C 	0.7273	0.7495	0.317	-0.03
Mof_H 	H 	0.7006	0.7829	0.3284	0.043
Mof_C 	C 	0.7999	0.7374	0.3347	-0.122
Mof_C 	C 	0.8307	0.7737	0.3713	0.253
Mof_C 	C 	0.8993	0.7587	0.3855	-0.328
Mof_H 	H 	0.9204	0.7835	0.4081	0.14
Mof_C 	C 	0.9411	0.7073	0.368	0.217
Mof_C 	C 	0.912	0.6737	0.3334	-0.124
Mof_C 	C 	0.9482	0.6222	0.3144	-0.018
Mof_H 	H 	0.9945	0.6128	0.3249	0.039
Mof_C 	C 	0.9191	0.5856	0.2816	-0.065
Mof_H 	H 	0.9456	0.5524	0.2698	0.049
Mof_C 	C 	0.8464	0.5979	0.2645	-0.079
Mof_C 	C 	0.8089	0.6467	0.2804	0.006
Mof_C 	C 	0.8404	0.6888	0.3164	0.041
Mof_C 	C 	0.2564	0.4069	0.1399	0.225
Mof_C 	C 	0.2956	0.4601	0.1705	0.166
Mof_H 	H 	0.2765	0.5053	0.1655	-0.023
Mof_C 	C 	0.2852	0.435	0.2161	-0.611
Mof_H 	H 	0.2367	0.441	0.2215	0.221
Mof_H 	H 	0.3153	0.4603	0.2363	0.21
Mof_H 	H 	0.2974	0.3883	0.2185	0.207
Mof_C 	C 	0.3925	0.4943	0.1324	0.473
Mof_C 	C 	0.3449	0.5176	0.1007	-0.504
Mof_H 	H 	0.2966	0.5095	0.1009	0.218
Mof_C 	C 	0.3725	0.5549	0.0672	0.441
Mof_C 	C 	0.4447	0.5673	0.0681	-0.389
Mof_C 	C 	0.4918	0.5409	0.1019	0.556
Mof_C 	C 	0.4654	0.5032	0.1316	-0.591
Mof_H 	H 	0.4962	0.4824	0.152	0.221
Mof_C 	C 	0.4739	0.6068	0.0333	0.158
Mof_C 	C 	0.5693	0.5561	0.1027	-1.082
Mof_H 	H 	0.5918	0.548	0.1306	0.327
Mof_H 	H 	0.5756	0.6023	0.0953	0.341
Mof_H 	H 	0.5902	0.5277	0.0828	0.337
Mof_C 	C 	0.3177	0.5846	0.0318	-0.901
Mof_H 	H 	0.3427	0.6075	0.0111	0.287
Mof_H 	H 	0.2869	0.6156	0.0443	0.28
Mof_H 	H 	0.2901	0.5488	0.0184	0.309
Mof_C 	C 	0.473	0.68	0.0337	-0.064
Mof_C 	C 	0.476	0.8214	0.035	-0.115
Mof_C 	C 	0.4521	0.78	0.0682	-0.013
Mof_H 	H 	0.4363	0.8021	0.0913	0.033
Mof_C 	C 	0.4506	0.7147	0.0688	-0.074
Mof_H 	H 	0.4351	0.6917	0.0917	0.06
Mof_C 	C 	0.4771	0.8914	0.0343	0.225
Mof_C 	C 	0.4568	0.9262	0.0718	-0.4
Mof_C 	C 	0.5031	0.9349	0.1077	0.491
Mof_C 	C 	0.4851	0.9637	0.1454	-0.607
Mof_H 	H 	0.5152	0.9603	0.1701	0.239
Mof_C 	C 	0.4243	0.9957	0.1448	0.521
Mof_C 	C 	0.3759	0.994	0.1086	-0.578
Mof_H 	H 	0.3323	0.015	0.1094	0.256
Mof_C 	C 	0.3907	0.9626	0.0722	0.438
Mof_C 	C 	0.3386	0.9565	0.0304	-0.843
Mof_H 	H 	0.2955	0.9801	0.0341	0.254
Mof_H 	H 	0.3283	0.91	0.0247	0.26
Mof_H 	H 	0.3606	0.9756	0.0071	0.249
Mof_C 	C 	0.5759	0.9022	0.1067	-0.935
Mof_H 	H 	0.6105	0.9282	0.1236	0.268
Mof_H 	H 	0.5883	0.9006	0.0781	0.285
Mof_H 	H 	0.5746	0.8575	0.1179	0.28
Mof_C 	C 	0.6023	0.0389	0.4842	-0.481
Mof_H 	H 	0.5975	0.0444	0.5139	0.16
Mof_H 	H 	0.5573	0.0461	0.4685	0.158
Mof_H 	H 	0.6359	0.0708	0.4755	0.168
Mof_C 	C 	0.3492	0.1052	0.2226	-0.802
Mof_H 	H 	0.3662	0.0756	0.2451	0.276
Mof_H 	H 	0.3021	0.1197	0.2268	0.244
Mof_H 	H 	0.3798	0.1436	0.2223	0.249
Mof_C 	C 	0.283	0.04	0.1785	0.087
Mof_C 	C 	0.3483	0.0693	0.1814	0.334
Mof_H 	H 	0.3506	0.102	0.1585	-0.069
Mof_C 	C 	3.42602e-33	0.0721	0.5	-0.238
Mof_H 	H 	3.42602e-33	0.0254	0.5	0.117
Mof_C 	C 	3.42602e-33	0.2116	0.5	-0.012
Mof_C 	C 	9.52127e-18	0.2835	0.5	0.048
Mof_C 	C 	3.42602e-33	0.4208	0.5	-0.352
Mof_H 	H 	9.52127e-18	0.4674	0.5	0.114
Mof_C 	C 	0.5	0.5721	-0	-0.257
Mof_H 	H 	0.5	0.5254	-0	0.119
Mof_C 	C 	0.5	0.7116	-0	-0.002
Mof_C 	C 	0.5	0.7835	-0	0.041
Mof_C 	C 	0.5	0.9208	-0	-0.345
Mof_H 	H 	0.5	0.9674	-0	0.106
_end
