data_functionalizedCrystal
_audit_creation_method	'EQeq! by Chris Wilmer'
_symmetry_space_group_name_H-M	'P1'
_symmetry_Int_Tables_number	1
_symmetry_cell_setting	triclinic
loop_
_symmetry_equiv_pos_as_xyz
  x,y,z
_cell_length_a	17.9304
_cell_length_b	18.8321
_cell_length_c	20.2922
_cell_angle_alpha	90
_cell_angle_beta	90
_cell_angle_gamma	90
loop_
_atom_site_label
_atom_site_type_symbol
_atom_site_fract_x
_atom_site_fract_y
_atom_site_fract_z
_atom_site_charge
Mof_Ag	Ag	0.16479	0.63298	0.15193	0.563
Mof_Si	Si	0.55284	0.67456	0.12986	1.541
Mof_Si	Si	0.02887	0.8237	0.42317	0.892
Mof_N 	N 	0.2931	0.6405	0.1395	-0.139
Mof_N 	N 	0.6216	0.7941	0.9352	-0.132
Mof_N 	N 	0.1321	0.7043	0.2416	-0.159
Mof_N 	N 	0.8969	0.0281	0.3571	-0.169
Mof_C 	C 	0.3248	0.7045	0.1426	-0.091
Mof_H 	H 	0.2928	0.7443	0.1473	0.036
Mof_C 	C 	0.4004	0.7172	0.1395	0.184
Mof_H 	H 	0.4188	0.7644	0.1427	-0.072
Mof_C 	C 	0.4497	0.6607	0.1315	-0.516
Mof_C 	C 	0.4167	0.5947	0.1238	0.177
Mof_H 	H 	0.4465	0.5541	0.1151	-0.065
Mof_C 	C 	0.3382	0.5882	0.129	-0.076
Mof_H 	H 	0.3172	0.5421	0.1244	0.03
Mof_C 	C 	0.6016	0.5846	0.1326	-1.34
Mof_H 	H 	0.5857	0.556	0.0948	0.383
Mof_H 	H 	0.5883	0.5601	0.1736	0.392
Mof_H 	H 	0.6557	0.5916	0.131	0.381
Mof_C 	C 	0.5805	0.7362	0.1992	-1.768
Mof_H 	H 	0.6246	0.7638	0.1848	0.503
Mof_H 	H 	0.5393	0.7704	0.2063	0.513
Mof_C 	C 	0.5965	0.7062	0.2566	1.696
Mof_H 	H 	0.5838	0.7389	0.2925	-0.484
Mof_H 	H 	0.6499	0.6952	0.2584	-0.487
Mof_H 	H 	0.5677	0.6623	0.2615	-0.487
Mof_C 	C 	0.5768	0.7209	0.0497	-0.518
Mof_C 	C 	0.6527	0.7248	0.0293	0.154
Mof_H 	H 	0.6914	0.7037	0.0546	-0.069
Mof_C 	C 	0.6674	0.7594	0.9733	-0.086
Mof_H 	H 	0.7179	0.7586	0.9594	0.037
Mof_C 	C 	0.5501	0.7923	0.9552	-0.104
Mof_H 	H 	0.5138	0.817	0.9299	0.041
Mof_C 	C 	0.5269	0.7555	0.0117	0.199
Mof_H 	H 	0.4755	0.7549	0.0233	-0.065
Mof_C 	C 	0.0745	0.7519	0.2333	-0.056
Mof_H 	H 	0.0543	0.7592	0.1905	0.021
Mof_C 	C 	0.046	0.7886	0.2854	0.081
Mof_H 	H 	0.0067	0.8213	0.2773	-0.028
Mof_C 	C 	0.0712	0.7806	0.3489	-0.305
Mof_C 	C 	0.1337	0.7352	0.3537	0.042
Mof_H 	H 	0.1568	0.7279	0.3952	-0.019
Mof_C 	C 	0.1618	0.7011	0.2981	-0.019
Mof_H 	H 	0.206	0.6738	0.3029	0.013
Mof_C 	C 	0.1012	0.8501	0.4818	-0.537
Mof_H 	H 	0.133	0.8087	0.4925	0.155
Mof_H 	H 	0.1331	0.8873	0.462	0.155
Mof_C 	C 	0.0631	0.8796	0.5471	-0.033
Mof_H 	H 	0.1018	0.8943	0.5784	0.031
Mof_H 	H 	0.0323	0.8423	0.567	0.021
Mof_H 	H 	0.0316	0.9205	0.5362	0.017
Mof_C 	C 	0.9632	0.7595	0.4639	-0.505
Mof_H 	H 	0.9936	0.721	0.4834	0.148
Mof_H 	H 	0.9387	0.7847	0.5009	0.154
Mof_C 	C 	0.899	0.7233	0.4206	-0.026
Mof_H 	H 	0.8702	0.6905	0.4482	0.028
Mof_H 	H 	0.9217	0.697	0.3841	0.012
Mof_H 	H 	0.8659	0.7601	0.4031	0.018
Mof_C 	C 	0.9776	0.9062	0.3968	-0.29
Mof_C 	C 	0.9003	0.9047	0.3791	0.036
Mof_H 	H 	0.8734	0.8613	0.3801	-0.005
Mof_C 	C 	0.8666	0.9644	0.3612	-0.024
Mof_H 	H 	0.8152	0.9609	0.3502	0.013
Mof_C 	C 	0.9704	0.0302	0.3711	-0.05
Mof_H 	H 	0.9962	0.074	0.3668	0.015
Mof_C 	C 	0.0104	0.9697	0.3918	0.068
Mof_H 	H 	0.0618	0.9742	0.4025	-0.023
Mof_Ag	Ag	0.33521	0.36702	0.65193	0.564
Mof_Si	Si	0.94716	0.32544	0.62986	1.537
Mof_Si	Si	0.47113	0.1763	0.92317	0.898
Mof_N 	N 	0.2069	0.3595	0.6395	-0.138
Mof_N 	N 	0.8784	0.2059	0.4352	-0.132
Mof_N 	N 	0.3679	0.2957	0.7416	-0.157
Mof_N 	N 	0.6031	0.9719	0.8571	-0.167
Mof_C 	C 	0.1752	0.2955	0.6426	-0.091
Mof_H 	H 	0.2072	0.2557	0.6473	0.036
Mof_C 	C 	0.0996	0.2828	0.6395	0.183
Mof_H 	H 	0.0812	0.2356	0.6427	-0.071
Mof_C 	C 	0.0503	0.3393	0.6315	-0.513
Mof_C 	C 	0.0833	0.4053	0.6238	0.175
Mof_H 	H 	0.0535	0.4459	0.6151	-0.065
Mof_C 	C 	0.1618	0.4118	0.629	-0.075
Mof_H 	H 	0.1828	0.4579	0.6244	0.03
Mof_C 	C 	0.8984	0.4154	0.6326	-1.337
Mof_H 	H 	0.9143	0.444	0.5948	0.382
Mof_H 	H 	0.9117	0.4399	0.6736	0.391
Mof_H 	H 	0.8443	0.4084	0.631	0.38
Mof_C 	C 	0.9195	0.2638	0.6992	-1.761
Mof_H 	H 	0.8754	0.2362	0.6848	0.501
Mof_H 	H 	0.9607	0.2296	0.7063	0.511
Mof_C 	C 	0.9035	0.2938	0.7566	1.689
Mof_H 	H 	0.9162	0.2611	0.7925	-0.482
Mof_H 	H 	0.8501	0.3048	0.7584	-0.484
Mof_H 	H 	0.9323	0.3377	0.7615	-0.485
Mof_C 	C 	0.9232	0.2791	0.5497	-0.515
Mof_C 	C 	0.8473	0.2752	0.5293	0.153
Mof_H 	H 	0.8086	0.2963	0.5546	-0.068
Mof_C 	C 	0.8326	0.2406	0.4733	-0.085
Mof_H 	H 	0.7821	0.2414	0.4594	0.037
Mof_C 	C 	0.9499	0.2077	0.4552	-0.102
Mof_H 	H 	0.9862	0.183	0.4299	0.04
Mof_C 	C 	0.9731	0.2445	0.5117	0.194
Mof_H 	H 	0.0245	0.2451	0.5233	-0.062
Mof_C 	C 	0.4255	0.2481	0.7333	-0.057
Mof_H 	H 	0.4457	0.2408	0.6905	0.021
Mof_C 	C 	0.454	0.2114	0.7854	0.082
Mof_H 	H 	0.4933	0.1787	0.7773	-0.028
Mof_C 	C 	0.4288	0.2194	0.8489	-0.307
Mof_C 	C 	0.3663	0.2648	0.8537	0.043
Mof_H 	H 	0.3432	0.2721	0.8952	-0.02
Mof_C 	C 	0.3382	0.2989	0.7981	-0.02
Mof_H 	H 	0.294	0.3262	0.8029	0.013
Mof_C 	C 	0.3988	0.1499	0.9818	-0.538
Mof_H 	H 	0.367	0.1913	0.9925	0.155
Mof_H 	H 	0.3669	0.1127	0.962	0.155
Mof_C 	C 	0.4369	0.1204	0.0471	-0.033
Mof_H 	H 	0.3982	0.1057	0.0784	0.032
Mof_H 	H 	0.4677	0.1577	0.067	0.022
Mof_H 	H 	0.4684	0.0795	0.0362	0.017
Mof_C 	C 	0.5368	0.2405	0.9639	-0.507
Mof_H 	H 	0.5064	0.279	0.9834	0.149
Mof_H 	H 	0.5613	0.2153	0.0009	0.154
Mof_C 	C 	0.601	0.2767	0.9206	-0.025
Mof_H 	H 	0.6298	0.3095	0.9482	0.028
Mof_H 	H 	0.5783	0.303	0.8841	0.012
Mof_H 	H 	0.6341	0.2399	0.9031	0.018
Mof_C 	C 	0.5224	0.0938	0.8968	-0.297
Mof_C 	C 	0.5997	0.0953	0.8791	0.04
Mof_H 	H 	0.6266	0.1387	0.8801	-0.007
Mof_C 	C 	0.6334	0.0356	0.8612	-0.029
Mof_H 	H 	0.6848	0.0391	0.8502	0.014
Mof_C 	C 	0.5296	0.9698	0.8711	-0.054
Mof_H 	H 	0.5038	0.926	0.8668	0.017
Mof_C 	C 	0.4896	0.0303	0.8918	0.076
Mof_H 	H 	0.4382	0.0258	0.9025	-0.025
Mof_Ag	Ag	0.83521	0.13298	0.34807	0.564
Mof_Si	Si	0.44716	0.17456	0.37014	1.543
Mof_Si	Si	0.97113	0.3237	0.07683	0.89
Mof_N 	N 	0.7069	0.1405	0.3605	-0.138
Mof_N 	N 	0.3784	0.2941	0.5648	-0.131
Mof_N 	N 	0.8679	0.2043	0.2584	-0.158
Mof_N 	N 	0.1031	0.5281	0.1429	-0.169
Mof_C 	C 	0.6752	0.2045	0.3574	-0.092
Mof_H 	H 	0.7072	0.2443	0.3527	0.036
Mof_C 	C 	0.5996	0.2172	0.3605	0.185
Mof_H 	H 	0.5812	0.2644	0.3573	-0.072
Mof_C 	C 	0.5503	0.1607	0.3685	-0.516
Mof_C 	C 	0.5833	0.0947	0.3762	0.177
Mof_H 	H 	0.5535	0.0541	0.3849	-0.065
Mof_C 	C 	0.6618	0.0882	0.371	-0.076
Mof_H 	H 	0.6828	0.0421	0.3756	0.03
Mof_C 	C 	0.3984	0.0846	0.3674	-1.341
Mof_H 	H 	0.4143	0.056	0.4052	0.384
Mof_H 	H 	0.4117	0.0601	0.3264	0.393
Mof_H 	H 	0.3443	0.0916	0.369	0.382
Mof_C 	C 	0.4195	0.2362	0.3008	-1.769
Mof_H 	H 	0.3754	0.2638	0.3152	0.503
Mof_H 	H 	0.4607	0.2704	0.2937	0.513
Mof_C 	C 	0.4035	0.2062	0.2434	1.697
Mof_H 	H 	0.4162	0.2389	0.2075	-0.484
Mof_H 	H 	0.3501	0.1952	0.2416	-0.487
Mof_H 	H 	0.4323	0.1623	0.2385	-0.488
Mof_C 	C 	0.4232	0.2209	0.4503	-0.519
Mof_C 	C 	0.3473	0.2248	0.4707	0.155
Mof_H 	H 	0.3086	0.2037	0.4454	-0.069
Mof_C 	C 	0.3326	0.2594	0.5267	-0.086
Mof_H 	H 	0.2821	0.2586	0.5406	0.037
Mof_C 	C 	0.4499	0.2923	0.5448	-0.104
Mof_H 	H 	0.4862	0.317	0.5701	0.041
Mof_C 	C 	0.4731	0.2555	0.4883	0.2
Mof_H 	H 	0.5245	0.2549	0.4767	-0.065
Mof_C 	C 	0.9255	0.2519	0.2667	-0.057
Mof_H 	H 	0.9457	0.2592	0.3095	0.021
Mof_C 	C 	0.954	0.2886	0.2146	0.08
Mof_H 	H 	0.9933	0.3213	0.2227	-0.028
Mof_C 	C 	0.9288	0.2806	0.1511	-0.305
Mof_C 	C 	0.8663	0.2352	0.1463	0.042
Mof_H 	H 	0.8432	0.2279	0.1048	-0.019
Mof_C 	C 	0.8382	0.2011	0.2019	-0.019
Mof_H 	H 	0.794	0.1738	0.1971	0.013
Mof_C 	C 	0.8988	0.3501	0.0182	-0.537
Mof_H 	H 	0.867	0.3087	0.0075	0.154
Mof_H 	H 	0.8669	0.3873	0.038	0.155
Mof_C 	C 	0.9369	0.3796	0.9529	-0.032
Mof_H 	H 	0.8982	0.3943	0.9216	0.031
Mof_H 	H 	0.9677	0.3423	0.933	0.022
Mof_H 	H 	0.9684	0.4205	0.9638	0.017
Mof_C 	C 	0.0368	0.2595	0.0361	-0.504
Mof_H 	H 	0.0064	0.221	0.0166	0.148
Mof_H 	H 	0.0613	0.2847	0.9991	0.153
Mof_C 	C 	0.101	0.2233	0.0794	-0.028
Mof_H 	H 	0.1298	0.1905	0.0518	0.029
Mof_H 	H 	0.0783	0.197	0.1159	0.013
Mof_H 	H 	0.1341	0.2601	0.0969	0.019
Mof_C 	C 	0.0224	0.4062	0.1032	-0.29
Mof_C 	C 	0.0997	0.4047	0.1209	0.036
Mof_H 	H 	0.1266	0.3613	0.1199	-0.006
Mof_C 	C 	0.1334	0.4644	0.1388	-0.027
Mof_H 	H 	0.1848	0.4609	0.1498	0.014
Mof_C 	C 	0.0296	0.5302	0.1289	-0.048
Mof_H 	H 	0.0038	0.574	0.1332	0.016
Mof_C 	C 	0.9896	0.4697	0.1082	0.067
Mof_H 	H 	0.9382	0.4742	0.0975	-0.023
Mof_Ag	Ag	0.66479	0.86702	0.84807	0.564
Mof_Si	Si	0.05284	0.82544	0.87014	1.532
Mof_Si	Si	0.52887	0.6763	0.57683	0.899
Mof_N 	N 	0.7931	0.8595	0.8605	-0.139
Mof_N 	N 	0.1216	0.7059	0.0648	-0.132
Mof_N 	N 	0.6321	0.7957	0.7584	-0.157
Mof_N 	N 	0.3969	0.4719	0.6429	-0.168
Mof_C 	C 	0.8248	0.7955	0.8574	-0.09
Mof_H 	H 	0.7928	0.7557	0.8527	0.036
Mof_C 	C 	0.9004	0.7828	0.8605	0.182
Mof_H 	H 	0.9188	0.7356	0.8573	-0.071
Mof_C 	C 	0.9497	0.8393	0.8685	-0.511
Mof_C 	C 	0.9167	0.9053	0.8762	0.174
Mof_H 	H 	0.9465	0.9459	0.8849	-0.064
Mof_C 	C 	0.8382	0.9118	0.871	-0.075
Mof_H 	H 	0.8172	0.9579	0.8756	0.03
Mof_C 	C 	0.1016	0.9154	0.8674	-1.332
Mof_H 	H 	0.0857	0.944	0.9052	0.38
Mof_H 	H 	0.0883	0.9399	0.8264	0.389
Mof_H 	H 	0.1557	0.9084	0.869	0.378
Mof_C 	C 	0.0805	0.7638	0.8008	-1.758
Mof_H 	H 	0.1246	0.7362	0.8152	0.5
Mof_H 	H 	0.0393	0.7296	0.7937	0.51
Mof_C 	C 	0.0965	0.7938	0.7434	1.685
Mof_H 	H 	0.0838	0.7611	0.7075	-0.48
Mof_H 	H 	0.1499	0.8048	0.7416	-0.483
Mof_H 	H 	0.0677	0.8377	0.7385	-0.485
Mof_C 	C 	0.0768	0.7791	0.9503	-0.513
Mof_C 	C 	0.1527	0.7752	0.9707	0.15
Mof_H 	H 	0.1914	0.7963	0.9454	-0.068
Mof_C 	C 	0.1674	0.7406	0.0267	-0.083
Mof_H 	H 	0.2179	0.7414	0.0406	0.036
Mof_C 	C 	0.0501	0.7077	0.0448	-0.1
Mof_H 	H 	0.0138	0.683	0.0701	0.039
Mof_C 	C 	0.0269	0.7445	0.9883	0.192
Mof_H 	H 	0.9755	0.7451	0.9767	-0.062
Mof_C 	C 	0.5745	0.7481	0.7667	-0.057
Mof_H 	H 	0.5543	0.7408	0.8095	0.021
Mof_C 	C 	0.546	0.7114	0.7146	0.082
Mof_H 	H 	0.5067	0.6787	0.7227	-0.028
Mof_C 	C 	0.5712	0.7194	0.6511	-0.307
Mof_C 	C 	0.6337	0.7648	0.6463	0.043
Mof_H 	H 	0.6568	0.7721	0.6048	-0.02
Mof_C 	C 	0.6618	0.7989	0.7019	-0.02
Mof_H 	H 	0.706	0.8262	0.6971	0.013
Mof_C 	C 	0.6012	0.6499	0.5182	-0.539
Mof_H 	H 	0.633	0.6913	0.5075	0.156
Mof_H 	H 	0.6331	0.6127	0.538	0.155
Mof_C 	C 	0.5631	0.6204	0.4529	-0.032
Mof_H 	H 	0.6018	0.6057	0.4216	0.031
Mof_H 	H 	0.5323	0.6577	0.433	0.021
Mof_H 	H 	0.5316	0.5795	0.4638	0.017
Mof_C 	C 	0.4632	0.7405	0.5361	-0.509
Mof_H 	H 	0.4936	0.779	0.5166	0.149
Mof_H 	H 	0.4387	0.7153	0.4991	0.155
Mof_C 	C 	0.399	0.7767	0.5794	-0.024
Mof_H 	H 	0.3702	0.8095	0.5518	0.028
Mof_H 	H 	0.4217	0.803	0.6159	0.011
Mof_H 	H 	0.3659	0.7399	0.5969	0.017
Mof_C 	C 	0.4776	0.5938	0.6032	-0.297
Mof_C 	C 	0.4003	0.5953	0.6209	0.04
Mof_H 	H 	0.3734	0.6387	0.6199	-0.007
Mof_C 	C 	0.3666	0.5356	0.6388	-0.029
Mof_H 	H 	0.3152	0.5391	0.6498	0.014
Mof_C 	C 	0.4704	0.4698	0.6289	-0.052
Mof_H 	H 	0.4962	0.426	0.6332	0.017
Mof_C 	C 	0.5104	0.5303	0.6082	0.074
Mof_H 	H 	0.5618	0.5258	0.5975	-0.025
Mof_Ag	Ag	0.65779	0.37394	0.15935	0.558
Mof_Si	Si	0.95767	0.4764	0.3621	1.132
Mof_Si	Si	0.35608	0.50131	0.35362	0.743
Mof_N 	N 	0.5574	0.4058	0.2322	-0.151
Mof_N 	N 	0.3582	0.7508	0.3537	-0.166
Mof_N 	N 	0.7569	0.4132	0.2208	-0.155
Mof_N 	N 	0.8678	0.5857	0.5542	-0.16
Mof_C 	C 	0.8033	0.4655	0.2061	-0.045
Mof_H 	H 	0.7981	0.4876	0.1643	0.012
Mof_C 	C 	0.8589	0.4903	0.2476	0.093
Mof_H 	H 	0.8862	0.5317	0.2358	-0.033
Mof_C 	C 	0.8757	0.4548	0.3073	-0.379
Mof_C 	C 	0.8287	0.4008	0.3212	0.116
Mof_H 	H 	0.8355	0.3741	0.3605	-0.041
Mof_C 	C 	0.7706	0.3837	0.2789	-0.05
Mof_H 	H 	0.7375	0.3474	0.2929	0.023
Mof_C 	C 	0.0201	0.5421	0.317	-1.101
Mof_H 	H 	0.0631	0.5538	0.3447	0.317
Mof_H 	H 	0.9918	0.5854	0.3073	0.317
Mof_H 	H 	0.0374	0.5208	0.2756	0.316
Mof_C 	C 	0.005	0.3958	0.3839	-0.684
Mof_H 	H 	0.9676	0.3616	0.4008	0.197
Mof_H 	H 	0.0269	0.3751	0.3434	0.193
Mof_C 	C 	0.0713	0.4042	0.4391	0.062
Mof_H 	H 	0.0957	0.3581	0.4459	-0.005
Mof_H 	H 	0.0497	0.4205	0.4808	-0.016
Mof_H 	H 	0.1081	0.4388	0.4237	-0.02
Mof_C 	C 	0.9195	0.5202	0.4376	-0.369
Mof_C 	C 	0.8428	0.5198	0.4561	0.061
Mof_H 	H 	0.8061	0.4971	0.4297	-0.014
Mof_C 	C 	0.8234	0.5555	0.5169	-0.021
Mof_H 	H 	0.7723	0.5557	0.5292	0.005
Mof_C 	C 	0.9391	0.5874	0.5373	-0.065
Mof_H 	H 	0.9741	0.6072	0.5673	0.023
Mof_C 	C 	0.9644	0.5616	0.4778	0.097
Mof_H 	H 	0.0137	0.5725	0.464	-0.039
Mof_C 	C 	0.5662	0.4396	0.2917	-0.059
Mof_H 	H 	0.6147	0.4437	0.31	0.032
Mof_C 	C 	0.5078	0.4671	0.3248	0.066
Mof_H 	H 	0.5177	0.49	0.3656	-0.012
Mof_C 	C 	0.4358	0.4645	0.304	-0.28
Mof_C 	C 	0.4276	0.4323	0.2465	0.065
Mof_H 	H 	0.3792	0.431	0.2276	-0.014
Mof_C 	C 	0.485	0.4009	0.2127	-0.061
Mof_H 	H 	0.4737	0.3746	0.1741	0.034
Mof_C 	C 	0.362	0.4636	0.4393	-0.428
Mof_H 	H 	0.3108	0.4623	0.4575	0.12
Mof_H 	H 	0.3791	0.4137	0.4355	0.122
Mof_C 	C 	0.4138	0.5019	0.492	-0.084
Mof_H 	H 	0.4629	0.4789	0.4926	0.039
Mof_H 	H 	0.391	0.4983	0.5357	0.049
Mof_H 	H 	0.4196	0.552	0.4801	0.035
Mof_C 	C 	0.263	0.4843	0.3063	-0.297
Mof_H 	H 	0.2391	0.5218	0.2832	0.095
Mof_C 	C 	0.23	0.4118	0.3069	-0.097
Mof_H 	H 	0.1829	0.4121	0.2822	0.035
Mof_H 	H 	0.2203	0.3972	0.3525	0.027
Mof_H 	H 	0.2647	0.3783	0.2863	0.028
Mof_C 	C 	0.3609	0.6016	0.3549	-0.235
Mof_C 	C 	0.323	0.64	0.4042	0.009
Mof_H 	H 	0.2968	0.6161	0.4384	-0.001
Mof_C 	C 	0.325	0.7128	0.4014	-0.009
Mof_H 	H 	0.301	0.7383	0.4359	0.01
Mof_C 	C 	0.3951	0.7144	0.3106	0.007
Mof_H 	H 	0.4223	0.7395	0.2779	0.005
Mof_C 	C 	0.3972	0.6393	0.3093	0.028
Mof_H 	H 	0.4247	0.6156	0.2759	0.011
Mof_Ag	Ag	0.84221	0.62606	0.65935	0.558
Mof_Si	Si	0.54233	0.5236	0.8621	1.137
Mof_Si	Si	0.14392	0.49869	0.85362	0.743
Mof_N 	N 	0.9426	0.5942	0.7322	-0.15
Mof_N 	N 	0.1418	0.2492	0.8537	-0.166
Mof_N 	N 	0.7431	0.5868	0.7208	-0.155
Mof_N 	N 	0.6322	0.4143	0.0542	-0.16
Mof_C 	C 	0.6967	0.5345	0.7061	-0.045
Mof_H 	H 	0.7019	0.5124	0.6643	0.013
Mof_C 	C 	0.6411	0.5097	0.7476	0.094
Mof_H 	H 	0.6138	0.4683	0.7358	-0.034
Mof_C 	C 	0.6243	0.5452	0.8073	-0.381
Mof_C 	C 	0.6713	0.5992	0.8212	0.117
Mof_H 	H 	0.6645	0.6259	0.8605	-0.041
Mof_C 	C 	0.7294	0.6163	0.7789	-0.05
Mof_H 	H 	0.7625	0.6526	0.7929	0.023
Mof_C 	C 	0.4799	0.4579	0.817	-1.105
Mof_H 	H 	0.4369	0.4462	0.8447	0.318
Mof_H 	H 	0.5082	0.4146	0.8073	0.318
Mof_H 	H 	0.4626	0.4792	0.7756	0.317
Mof_C 	C 	0.495	0.6042	0.8839	-0.689
Mof_H 	H 	0.5324	0.6384	0.9008	0.199
Mof_H 	H 	0.4731	0.6249	0.8434	0.194
Mof_C 	C 	0.4287	0.5958	0.9391	0.065
Mof_H 	H 	0.4043	0.6419	0.9459	-0.007
Mof_H 	H 	0.4503	0.5795	0.9808	-0.018
Mof_H 	H 	0.3919	0.5612	0.9237	-0.021
Mof_C 	C 	0.5805	0.4798	0.9376	-0.371
Mof_C 	C 	0.6572	0.4802	0.9561	0.063
Mof_H 	H 	0.6939	0.5029	0.9297	-0.015
Mof_C 	C 	0.6766	0.4445	0.0169	-0.022
Mof_H 	H 	0.7277	0.4443	0.0292	0.005
Mof_C 	C 	0.5609	0.4126	0.0373	-0.066
Mof_H 	H 	0.5259	0.3928	0.0673	0.023
Mof_C 	C 	0.5356	0.4384	0.9778	0.099
Mof_H 	H 	0.4863	0.4275	0.964	-0.04
Mof_C 	C 	0.9338	0.5604	0.7917	-0.059
Mof_H 	H 	0.8853	0.5563	0.81	0.032
Mof_C 	C 	0.9922	0.5329	0.8248	0.067
Mof_H 	H 	0.9823	0.51	0.8656	-0.012
Mof_C 	C 	0.0642	0.5355	0.804	-0.281
Mof_C 	C 	0.0724	0.5677	0.7465	0.066
Mof_H 	H 	0.1208	0.569	0.7276	-0.014
Mof_C 	C 	0.015	0.5991	0.7127	-0.062
Mof_H 	H 	0.0263	0.6254	0.6741	0.034
Mof_C 	C 	0.138	0.5364	0.9393	-0.428
Mof_H 	H 	0.1892	0.5377	0.9575	0.12
Mof_H 	H 	0.1209	0.5863	0.9355	0.122
Mof_C 	C 	0.0862	0.4981	0.992	-0.085
Mof_H 	H 	0.0371	0.5211	0.9926	0.039
Mof_H 	H 	0.109	0.5017	0.0357	0.05
Mof_H 	H 	0.0804	0.448	0.9801	0.036
Mof_C 	C 	0.237	0.5157	0.8063	-0.297
Mof_H 	H 	0.2609	0.4782	0.7832	0.095
Mof_C 	C 	0.27	0.5882	0.8069	-0.097
Mof_H 	H 	0.3171	0.5879	0.7822	0.035
Mof_H 	H 	0.2797	0.6028	0.8525	0.027
Mof_H 	H 	0.2353	0.6217	0.7863	0.028
Mof_C 	C 	0.1391	0.3984	0.8549	-0.235
Mof_C 	C 	0.177	0.36	0.9042	0.009
Mof_H 	H 	0.2032	0.3839	0.9384	-0.001
Mof_C 	C 	0.175	0.2872	0.9014	-0.009
Mof_H 	H 	0.199	0.2617	0.9359	0.009
Mof_C 	C 	0.1049	0.2856	0.8106	0.007
Mof_H 	H 	0.0777	0.2605	0.7779	0.005
Mof_C 	C 	0.1028	0.3607	0.8093	0.028
Mof_H 	H 	0.0753	0.3844	0.7759	0.011
Mof_Ag	Ag	0.34221	0.87394	0.34065	0.557
Mof_Si	Si	0.04233	0.9764	0.1379	1.135
Mof_Si	Si	0.64392	0.00131	0.14638	0.738
Mof_N 	N 	0.4426	0.9058	0.2678	-0.151
Mof_N 	N 	0.6418	0.2508	0.1463	-0.166
Mof_N 	N 	0.2431	0.9132	0.2792	-0.156
Mof_N 	N 	0.1322	0.0857	0.9458	-0.159
Mof_C 	C 	0.1967	0.9655	0.2939	-0.042
Mof_H 	H 	0.2019	0.9876	0.3357	0.011
Mof_C 	C 	0.1411	0.9903	0.2524	0.088
Mof_H 	H 	0.1138	0.0317	0.2642	-0.03
Mof_C 	C 	0.1243	0.9548	0.1927	-0.379
Mof_C 	C 	0.1713	0.9008	0.1788	0.116
Mof_H 	H 	0.1645	0.8741	0.1395	-0.041
Mof_C 	C 	0.2294	0.8837	0.2211	-0.049
Mof_H 	H 	0.2625	0.8474	0.2071	0.023
Mof_C 	C 	0.9799	0.0421	0.183	-1.114
Mof_H 	H 	0.9369	0.0538	0.1553	0.32
Mof_H 	H 	0.0082	0.0854	0.1927	0.323
Mof_H 	H 	0.9626	0.0208	0.2244	0.318
Mof_C 	C 	0.995	0.8958	0.1161	-0.684
Mof_H 	H 	0.0324	0.8616	0.0992	0.197
Mof_H 	H 	0.9731	0.8751	0.1566	0.193
Mof_C 	C 	0.9287	0.9042	0.0609	0.063
Mof_H 	H 	0.9043	0.8581	0.0541	-0.006
Mof_H 	H 	0.9503	0.9205	0.0192	-0.016
Mof_H 	H 	0.8919	0.9388	0.0763	-0.019
Mof_C 	C 	0.0805	0.0202	0.0624	-0.371
Mof_C 	C 	0.1572	0.0198	0.0439	0.066
Mof_H 	H 	0.1939	0.9971	0.0703	-0.017
Mof_C 	C 	0.1766	0.0555	0.9831	-0.022
Mof_H 	H 	0.2277	0.0557	0.9708	0.006
Mof_C 	C 	0.0609	0.0874	0.9627	-0.068
Mof_H 	H 	0.0259	0.1072	0.9327	0.024
Mof_C 	C 	0.0356	0.0616	0.0222	0.106
Mof_H 	H 	0.9863	0.0725	0.036	-0.045
Mof_C 	C 	0.4338	0.9396	0.2083	-0.058
Mof_H 	H 	0.3853	0.9437	0.19	0.032
Mof_C 	C 	0.4922	0.9671	0.1752	0.064
Mof_H 	H 	0.4823	0.99	0.1344	-0.012
Mof_C 	C 	0.5642	0.9645	0.196	-0.278
Mof_C 	C 	0.5724	0.9323	0.2535	0.064
Mof_H 	H 	0.6208	0.931	0.2724	-0.014
Mof_C 	C 	0.515	0.9009	0.2873	-0.061
Mof_H 	H 	0.5263	0.8746	0.3259	0.034
Mof_C 	C 	0.638	0.9636	0.0607	-0.424
Mof_H 	H 	0.6892	0.9623	0.0425	0.119
Mof_H 	H 	0.6209	0.9137	0.0645	0.121
Mof_C 	C 	0.5862	0.0019	0.008	-0.089
Mof_H 	H 	0.5371	0.9789	0.0074	0.041
Mof_H 	H 	0.609	0.9983	0.9643	0.051
Mof_H 	H 	0.5804	0.052	0.0199	0.037
Mof_C 	C 	0.737	0.9843	0.1937	-0.292
Mof_H 	H 	0.7609	0.0218	0.2168	0.093
Mof_C 	C 	0.77	0.9118	0.1931	-0.101
Mof_H 	H 	0.8171	0.9121	0.2178	0.037
Mof_H 	H 	0.7797	0.8972	0.1475	0.029
Mof_H 	H 	0.7353	0.8783	0.2137	0.029
Mof_C 	C 	0.6391	0.1016	0.1451	-0.233
Mof_C 	C 	0.677	0.14	0.0958	0.008
Mof_H 	H 	0.7032	0.1161	0.0616	-0.001
Mof_C 	C 	0.675	0.2128	0.0986	-0.009
Mof_H 	H 	0.699	0.2383	0.0641	0.009
Mof_C 	C 	0.6049	0.2144	0.1894	0.008
Mof_H 	H 	0.5777	0.2395	0.2221	0.005
Mof_C 	C 	0.6028	0.1393	0.1907	0.027
Mof_H 	H 	0.5753	0.1156	0.2241	0.011
Mof_Ag	Ag	0.15779	0.12606	0.84065	0.559
Mof_Si	Si	0.45767	0.0236	0.6379	1.141
Mof_Si	Si	0.85608	0.99869	0.64638	0.756
Mof_N 	N 	0.0574	0.0942	0.7678	-0.148
Mof_N 	N 	0.8582	0.7492	0.6463	-0.165
Mof_N 	N 	0.2569	0.0868	0.7792	-0.154
Mof_N 	N 	0.3678	0.9143	0.4458	-0.161
Mof_C 	C 	0.3033	0.0345	0.7939	-0.047
Mof_H 	H 	0.2981	0.0124	0.8357	0.014
Mof_C 	C 	0.3589	0.0097	0.7524	0.099
Mof_H 	H 	0.3862	0.9683	0.7642	-0.036
Mof_C 	C 	0.3757	0.0452	0.6927	-0.383
Mof_C 	C 	0.3287	0.0992	0.6788	0.119
Mof_H 	H 	0.3355	0.1259	0.6395	-0.042
Mof_C 	C 	0.2706	0.1163	0.7211	-0.051
Mof_H 	H 	0.2375	0.1526	0.7071	0.023
Mof_C 	C 	0.5201	0.9579	0.683	-1.108
Mof_H 	H 	0.5631	0.9462	0.6553	0.319
Mof_H 	H 	0.4918	0.9146	0.6927	0.319
Mof_H 	H 	0.5374	0.9792	0.7244	0.317
Mof_C 	C 	0.505	0.1042	0.6161	-0.691
Mof_H 	H 	0.4676	0.1384	0.5992	0.2
Mof_H 	H 	0.5269	0.1249	0.6566	0.194
Mof_C 	C 	0.5713	0.0958	0.5609	0.066
Mof_H 	H 	0.5957	0.1419	0.5541	-0.007
Mof_H 	H 	0.5497	0.0795	0.5192	-0.018
Mof_H 	H 	0.6081	0.0612	0.5763	-0.021
Mof_C 	C 	0.4195	0.9798	0.5624	-0.371
Mof_C 	C 	0.3428	0.9802	0.5439	0.059
Mof_H 	H 	0.3061	0.0029	0.5703	-0.012
Mof_C 	C 	0.3234	0.9445	0.4831	-0.02
Mof_H 	H 	0.2723	0.9443	0.4708	0.005
Mof_C 	C 	0.4391	0.9126	0.4627	-0.065
Mof_H 	H 	0.4741	0.8928	0.4327	0.023
Mof_C 	C 	0.4644	0.9384	0.5222	0.098
Mof_H 	H 	0.5137	0.9275	0.536	-0.04
Mof_C 	C 	0.0662	0.0604	0.7083	-0.063
Mof_H 	H 	0.1147	0.0563	0.69	0.034
Mof_C 	C 	0.0078	0.0329	0.6752	0.076
Mof_H 	H 	0.0177	0.01	0.6344	-0.014
Mof_C 	C 	0.9358	0.0355	0.696	-0.291
Mof_C 	C 	0.9276	0.0677	0.7535	0.073
Mof_H 	H 	0.8792	0.069	0.7724	-0.017
Mof_C 	C 	0.985	0.0991	0.7873	-0.067
Mof_H 	H 	0.9737	0.1254	0.8259	0.035
Mof_C 	C 	0.862	0.0364	0.5607	-0.443
Mof_H 	H 	0.8108	0.0377	0.5425	0.124
Mof_H 	H 	0.8791	0.0863	0.5645	0.126
Mof_C 	C 	0.9138	0.9981	0.508	-0.061
Mof_H 	H 	0.9629	0.0211	0.5074	0.031
Mof_H 	H 	0.891	0.0017	0.4643	0.042
Mof_H 	H 	0.9196	0.948	0.5199	0.029
Mof_C 	C 	0.763	0.0157	0.6937	-0.303
Mof_H 	H 	0.7391	0.9782	0.7168	0.098
Mof_C 	C 	0.73	0.0882	0.6931	-0.091
Mof_H 	H 	0.6829	0.0879	0.7178	0.034
Mof_H 	H 	0.7203	0.1028	0.6475	0.025
Mof_H 	H 	0.7647	0.1217	0.7137	0.026
Mof_C 	C 	0.8609	0.8984	0.6451	-0.239
Mof_C 	C 	0.823	0.86	0.5958	0.011
Mof_H 	H 	0.7968	0.8839	0.5616	-0.002
Mof_C 	C 	0.825	0.7872	0.5986	-0.01
Mof_H 	H 	0.801	0.7617	0.5641	0.01
Mof_C 	C 	0.8951	0.7856	0.6894	0.006
Mof_H 	H 	0.9223	0.7605	0.7221	0.006
Mof_C 	C 	0.8972	0.8607	0.6907	0.031
Mof_H 	H 	0.9247	0.8844	0.7241	0.01
_end
