data_functionalizedCrystal
_audit_creation_method	'EQeq! by Chris Wilmer'
_symmetry_space_group_name_H-M	'P1'
_symmetry_Int_Tables_number	1
_symmetry_cell_setting	triclinic
loop_
_symmetry_equiv_pos_as_xyz
  x,y,z
_cell_length_a	15.0005
_cell_length_b	15.0005
_cell_length_c	23.9639
_cell_angle_alpha	80.5058
_cell_angle_beta	76.3967
_cell_angle_gamma	111.146
loop_
_atom_site_label
_atom_site_type_symbol
_atom_site_fract_x
_atom_site_fract_y
_atom_site_fract_z
_atom_site_charge
Mof_Tb	Tb	0.69104	0.14589	0.96557	1.73
Mof_Tb	Tb	0.38854	0.34339	0.46557	1.729
Mof_Tb	Tb	0.61146	0.65661	0.53443	1.73
Mof_Tb	Tb	0.30896	0.85411	0.03443	1.731
Mof_H 	H 	0.5745	0.9761	0.5024	0.028
Mof_H 	H 	0.9785	0.0769	0.9976	0.028
Mof_H 	H 	0.6774	0.9229	0.6397	0.038
Mof_H 	H 	0.2604	0.0057	0.2027	0.03
Mof_H 	H 	0.7084	0.4631	0.2973	0.029
Mof_H 	H 	0.5779	0.2572	0.8553	0.003
Mof_H 	H 	0.1411	0.0929	0.9742	0.072
Mof_H 	H 	0.6125	0.4332	0.6447	0.003
Mof_H 	H 	0.0626	0.3171	0.8603	0.038
Mof_H 	H 	0.5608	0.2385	0.5451	0.03
Mof_H 	H 	0.6917	0.2398	0.7601	0.038
Mof_H 	H 	0.3083	0.7602	0.2399	0.038
Mof_H 	H 	0.2862	0.0402	0.2888	0.061
Mof_H 	H 	0.6578	0.3325	0.7045	0.069
Mof_H 	H 	0.2836	0.1059	0.9549	0.03
Mof_H 	H 	0.463	0.6377	0.2045	0.069
Mof_H 	H 	0.5671	0.1153	0.5258	0.072
Mof_H 	H 	0.9374	0.6829	0.1397	0.038
Mof_H 	H 	0.3422	0.6675	0.2955	0.069
Mof_H 	H 	0.4329	0.8847	0.4742	0.072
Mof_H 	H 	0.3875	0.5668	0.3553	0.003
Mof_H 	H 	0.5001	0.5482	0.2601	0.038
Mof_H 	H 	0.537	0.3623	0.7955	0.069
Mof_H 	H 	0.4221	0.7428	0.1447	0.003
Mof_H 	H 	0.4392	0.7615	0.4549	0.03
Mof_H 	H 	0.3226	0.0771	0.3603	0.038
Mof_H 	H 	0.8589	0.9071	0.0258	0.072
Mof_H 	H 	0.0215	0.9231	0.0024	0.028
Mof_H 	H 	0.4999	0.4518	0.7399	0.038
Mof_H 	H 	0.171	0.425	0.7888	0.06
Mof_H 	H 	0.7164	0.8941	0.0451	0.03
Mof_H 	H 	0.829	0.575	0.2112	0.06
Mof_H 	H 	0.7138	0.9598	0.7112	0.061
Mof_H 	H 	0.4255	0.0239	0.4976	0.028
Mof_H 	H 	0.7396	0.9943	0.7973	0.03
Mof_H 	H 	0.2916	0.5369	0.7027	0.029
Mof_C 	C 	0.6124	0.1953	0.6125	-0.061
Mof_C 	C 	0.9706	0.8712	0.0356	0.023
Mof_C 	C 	0.6101	0.3722	0.6373	0.066
Mof_C 	C 	0.5429	0.9065	0.0536	0.499
Mof_C 	C 	0.8742	0.8609	0.0495	-0.11
Mof_C 	C 	0.2046	0.2153	0.9025	0.051
Mof_C 	C 	0.4231	0.6585	0.4092	-0.184
Mof_C 	C 	0.722	0.0368	0.7724	0.021
Mof_C 	C 	0.6908	0.5056	0.2724	0.022
Mof_C 	C 	0.7053	0.0154	0.7215	-0.106
Mof_C 	C 	0.3069	0.8189	0.2494	-0.002
Mof_C 	C 	0.3461	0.0378	0.3831	-0.003
Mof_C 	C 	0.278	0.9632	0.2276	0.021
Mof_C 	C 	0.2859	0.8818	0.2115	-0.092
Mof_C 	C 	0.5152	0.6893	0.1717	-0.132
Mof_C 	C 	0.5683	0.5563	0.2506	-0.002
Mof_C 	C 	0.3596	0.3712	0.802	-0.045
Mof_C 	C 	0.3346	0.1584	0.922	0.038
Mof_C 	C 	0.4571	0.0935	0.9464	0.499
Mof_C 	C 	0.4068	0.0062	0.4644	0.022
Mof_C 	C 	0.6422	0.2243	0.6609	0.057
Mof_C 	C 	0.5896	0.0763	0.5495	-0.11
Mof_C 	C 	0.4601	0.5965	0.4464	0.499
Mof_C 	C 	0.5144	0.4275	0.3453	0.328
Mof_C 	C 	0.65	0.047	0.6322	-0.044
Mof_C 	C 	0.8208	0.7178	0.1322	-0.044
Mof_C 	C 	0.361	0.6869	0.3283	-0.132
Mof_C 	C 	0.6654	0.8416	0.078	0.038
Mof_C 	C 	0.4905	0.7526	0.1373	0.066
Mof_C 	C 	0.7272	0.1403	0.8453	0.328
Mof_C 	C 	0.3268	0.8384	0.302	-0.045
Mof_C 	C 	0.3852	0.3031	0.8391	0.057
Mof_C 	C 	0.6253	0.9342	0.5707	-0.088
Mof_C 	C 	0.3092	0.4944	0.7276	0.022
Mof_C 	C 	0.7426	0.64	0.184	0.043
Mof_C 	C 	0.2369	0.4268	0.7785	-0.106
Mof_C 	C 	0.4104	0.9237	0.4505	-0.11
Mof_C 	C 	0.5095	0.2474	0.8627	0.066
Mof_C 	C 	0.1258	0.1391	0.9505	-0.11
Mof_C 	C 	0.6922	0.7751	0.1125	-0.061
Mof_C 	C 	0.6178	0.1071	0.5975	0.051
Mof_C 	C 	0.3822	0.8929	0.4025	0.051
Mof_C 	C 	0.5399	0.4035	0.5536	0.499
Mof_C 	C 	0.7631	0.5732	0.2215	-0.106
Mof_C 	C 	0.0791	0.2708	0.8831	-0.003
Mof_C 	C 	0.5932	0.9938	0.5356	0.022
Mof_C 	C 	0.2574	0.36	0.816	0.043
Mof_C 	C 	0.4848	0.3107	0.8283	-0.132
Mof_C 	C 	0.4196	0.7434	0.422	0.038
Mof_C 	C 	0.6148	0.6969	0.1609	0.057
Mof_C 	C 	0.1792	0.2822	0.8678	-0.044
Mof_C 	C 	0.4856	0.5725	0.6547	0.328
Mof_C 	C 	0.5677	0.8323	0.0908	-0.184
Mof_C 	C 	0.9209	0.7292	0.1169	-0.003
Mof_C 	C 	0.639	0.3131	0.6717	-0.132
Mof_C 	C 	0.2728	0.8597	0.1547	0.328
Mof_C 	C 	0.6198	0.8375	0.5567	0.318
Mof_C 	C 	0.4323	0.1677	0.9092	-0.184
Mof_C 	C 	0.0049	0.196	0.9293	-0.088
Mof_C 	C 	0.6404	0.6288	0.198	-0.045
Mof_C 	C 	0.3899	0.6278	0.3627	0.066
Mof_C 	C 	0.4067	0.5026	0.7115	-0.092
Mof_C 	C 	0.3747	0.0658	0.4293	-0.088
Mof_C 	C 	0.35	0.953	0.3678	-0.044
Mof_C 	C 	0.1058	0.8235	0.0567	0.317
Mof_C 	C 	0.3078	0.2249	0.8875	-0.061
Mof_C 	C 	0.3578	0.7757	0.3391	0.057
Mof_C 	C 	0.324	0.9266	0.316	0.043
Mof_C 	C 	0.6931	0.1811	0.7506	-0.002
Mof_C 	C 	0.676	0.0734	0.684	0.043
Mof_C 	C 	0.8942	0.1765	0.9433	0.317
Mof_C 	C 	0.7954	0.7847	0.0975	0.051
Mof_C 	C 	0.3876	0.8047	0.3875	-0.061
Mof_C 	C 	0.6732	0.1616	0.698	-0.045
Mof_C 	C 	0.2947	0.9846	0.2785	-0.106
Mof_C 	C 	0.7141	0.1182	0.7885	-0.092
Mof_C 	C 	0.9951	0.804	0.0707	-0.088
Mof_C 	C 	0.3802	0.1625	0.4433	0.318
Mof_C 	C 	0.6539	0.9622	0.6169	-0.003
Mof_C 	C 	0.4317	0.4437	0.7494	-0.002
Mof_C 	C 	0.5804	0.2566	0.578	0.038
Mof_C 	C 	0.5769	0.3415	0.5908	-0.184
Mof_C 	C 	0.5933	0.4974	0.2885	-0.092
Mof_C 	C 	0.0294	0.1288	0.9644	0.023
Mof_O 	O 	0.67382	0.79788	0.5765	-0.421
Mof_O 	O 	0.42441	0.40938	0.35461	-0.396
Mof_O 	O 	0.38351	0.02239	0.9847	-0.521
Mof_O 	O 	0.42815	0.19785	0.4748	-0.416
Mof_O 	O 	0.87438	0.25032	0.9235	-0.421
Mof_O 	O 	0.17265	0.90295	0.0252	-0.416
Mof_O 	O 	0.32618	0.20212	0.4235	-0.421
Mof_O 	O 	0.27806	0.93034	0.1144	-0.386
Mof_O 	O 	0.4608	0.5203	0.4361	-0.534
Mof_O 	O 	0.4564	0.8969	0.0639	-0.534
Mof_O 	O 	0.57559	0.59062	0.64539	-0.396
Mof_O 	O 	0.82735	0.09705	0.9748	-0.416
Mof_O 	O 	0.12562	0.74968	0.0765	-0.421
Mof_O 	O 	0.5436	0.1031	0.9361	-0.534
Mof_O 	O 	0.45526	0.60754	0.6144	-0.386
Mof_O 	O 	0.5392	0.4797	0.5639	-0.534
Mof_O 	O 	0.73601	0.22098	0.85461	-0.396
Mof_O 	O 	0.50709	0.36821	0.5153	-0.522
Mof_O 	O 	0.49291	0.63179	0.4847	-0.522
Mof_O 	O 	0.57185	0.80215	0.5252	-0.416
Mof_O 	O 	0.54474	0.39246	0.3856	-0.386
Mof_O 	O 	0.72194	0.06966	0.8856	-0.386
Mof_O 	O 	0.26399	0.77902	0.14539	-0.396
Mof_O 	O 	0.61649	0.97761	0.0153	-0.521
_end
