data_functionalizedCrystal
_audit_creation_method	'EQeq! by Chris Wilmer'
_symmetry_space_group_name_H-M	'P1'
_symmetry_Int_Tables_number	1
_symmetry_cell_setting	triclinic
loop_
_symmetry_equiv_pos_as_xyz
  x,y,z
_cell_length_a	11.4527
_cell_length_b	11.6239
_cell_length_c	11.7754
_cell_angle_alpha	64.825
_cell_angle_beta	81.406
_cell_angle_gamma	72.316
loop_
_atom_site_label
_atom_site_type_symbol
_atom_site_fract_x
_atom_site_fract_y
_atom_site_fract_z
_atom_site_charge
Mof_Co	Co	-0	0	-0	0.961
Mof_Co	Co	1.05165e-17	0	0.5	1.044
Mof_Co	Co	-2.1033e-17	0.5	0.5	1.072
Mof_H 	H 	0.5616	0.5649	0.6541	0.076
Mof_H 	H 	0.2212	0.0008	0.3088	-0.232
Mof_H 	H 	0.1589	0.1806	0.9867	-0.019
Mof_H 	H 	0.3616	0.5981	0.6255	0.113
Mof_H 	H 	0.8316	0.2753	0.371	0.059
Mof_H 	H 	0.6491	0.8127	0.018	0.061
Mof_H 	H 	0.7374	0.1874	0.9612	0.034
Mof_H 	H 	0.4176	0.8794	0.2965	0.17
Mof_H 	H 	0.4614	0.8086	0.0302	0.076
Mof_H 	H 	0.2331	0.5271	0.3402	-0.02
Mof_H 	H 	0.3509	0.1873	0.982	0.096
Mof_H 	H 	0.5824	0.1206	0.7035	0.006
Mof_H 	H 	0.7788	0.9992	0.6912	0.223
Mof_H 	H 	0.7958	0.6266	0.2953	0.038
Mof_H 	H 	0.7669	0.4729	0.6598	0.03
Mof_H 	H 	0.5386	0.1914	0.9698	0.077
Mof_H 	H 	0.4384	0.4351	0.3459	0.081
Mof_H 	H 	0.6384	0.4019	0.3745	0.052
Mof_H 	H 	0.2042	0.3734	0.7047	-0.035
Mof_H 	H 	0.8411	0.8194	0.0133	0.038
Mof_H 	H 	0.2626	0.8126	0.0388	-0.028
Mof_H 	H 	0.1684	0.7247	0.629	-0.024
Mof_H 	H 	0.4094	0.2777	0.7192	0.089
Mof_H 	H 	0.5906	0.7223	0.2808	0.063
Mof_C 	C 	0.2691	0.4741	0.4179	0.094
Mof_C 	C 	0.4511	0.3429	0.5324	0.103
Mof_C 	C 	0.3751	0.3275	0.6403	-0.174
Mof_C 	C 	0.0386	0.9674	0.7677	0.476
Mof_C 	C 	0.4014	0.8866	0.0207	-0.167
Mof_C 	C 	0.7185	0.1099	0.9754	0.075
Mof_C 	C 	0.5642	0.0011	0.9976	0.016
Mof_C 	C 	0.2499	0.9192	0.3742	0.412
Mof_C 	C 	0.9614	0.0326	0.2323	0.19
Mof_C 	C 	0.631	0.1528	0.6329	0.044
Mof_C 	C 	0.393	0.4197	0.4208	-0.173
Mof_C 	C 	0.0192	0.1107	0.7302	-0.3
Mof_C 	C 	0.5489	0.6571	0.4676	0.006
Mof_C 	C 	0.9511	0.7521	0.5142	0.31
Mof_C 	C 	0.664	0.8907	0.0083	-0.107
Mof_C 	C 	0.9791	0.7798	0.3797	0.057
Mof_C 	C 	0.7501	0.0808	0.6258	-0.2
Mof_C 	C 	0.7803	0.2423	0.4387	0.035
Mof_C 	C 	0.5986	0.1134	0.9793	-0.106
Mof_C 	C 	0.2516	0.3845	0.6313	0.095
Mof_C 	C 	0.0209	0.2202	0.6203	-0.144
Mof_C 	C 	0.9808	0.8893	0.2698	0.183
Mof_C 	C 	0.2815	0.8901	0.0246	0.098
Mof_C 	C 	0.4358	0.9989	0.0024	0.092
Mof_C 	C 	0.7309	0.5259	0.5821	0.067
Mof_C 	C 	0.607	0.5803	0.5792	-0.087
Mof_C 	C 	0.369	0.8472	0.3671	-0.339
Mof_C 	C 	0.7788	0.8954	0.005	0.07
Mof_C 	C 	0.0489	0.2479	0.4858	0.31
Mof_C 	C 	0.5837	0.2713	0.5369	-0.039
Mof_C 	C 	0.6249	0.6725	0.3597	-0.092
Mof_C 	C 	0.2197	0.7577	0.5613	0.136
Mof_C 	C 	0.7484	0.6155	0.3687	0.067
Mof_C 	C 	0.6639	0.3188	0.439	-0.058
Mof_C 	C 	0.2212	0.1046	0.995	0.096
Mof_C 	C 	0.4163	0.7287	0.4631	0.177
Mof_C 	C 	0.3361	0.6812	0.561	-0.22
Mof_C 	C 	0.336	0.1093	0.9917	-0.171
Mof_N 	N 	0.9956	0.3249	0.6523	-0.053
Mof_N 	N 	0.8109	0.0029	0.9905	-0.179
Mof_N 	N 	0.1891	0.9971	0.0095	-0.236
Mof_N 	N 	0.0241	0.7158	0.2251	-0.093
Mof_N 	N 	0.1965	0.4553	0.5212	-0.254
Mof_N 	N 	0.0044	0.6751	0.3477	-0.283
Mof_N 	N 	0.8267	0.1235	0.5282	-0.138
Mof_N 	N 	0.99	0.1539	0.8244	-0.024
Mof_N 	N 	0.1733	0.8765	0.4718	-0.285
Mof_N 	N 	0.01	0.8461	0.1756	-0.279
Mof_N 	N 	0.9759	0.2842	0.7749	-0.007
Mof_N 	N 	0.8035	0.5447	0.4788	-0.183
Mof_O 	O 	0.0462	0.9221	0.6871	-0.413
Mof_O 	O 	0.951	0.1039	0.1166	-0.343
Mof_O 	O 	0.049	0.8961	0.8834	-0.377
Mof_O 	O 	0.9554	0.6344	0.586	-0.293
Mof_O 	O 	0.9206	0.8451	0.5509	-0.266
Mof_O 	O 	0.0446	0.3656	0.414	-0.458
Mof_O 	O 	0.9538	0.0779	0.3129	-0.314
Mof_O 	O 	0.0794	0.1549	0.4491	-0.455
_end
