data_functionalizedCrystal
_audit_creation_method	'EQeq! by Chris Wilmer'
_symmetry_space_group_name_H-M	'P1'
_symmetry_Int_Tables_number	1
_symmetry_cell_setting	triclinic
loop_
_symmetry_equiv_pos_as_xyz
  x,y,z
_cell_length_a	9.5307
_cell_length_b	12.7016
_cell_length_c	18.8199
_cell_angle_alpha	106.349
_cell_angle_beta	98.629
_cell_angle_gamma	100.06
loop_
_atom_site_label
_atom_site_type_symbol
_atom_site_fract_x
_atom_site_fract_y
_atom_site_fract_z
_atom_site_charge
Mof_Tb	Tb	0.76664	0.98367	0.99669	1.896
Mof_N 	N 	0.0003	0.1482	0.6798	-0.113
Mof_O 	O 	0.6864	0.024	0.1172	-0.507
Mof_O 	O 	0.8609	0.0653	0.904	-0.478
Mof_O 	O 	0.0087	0.8907	0.9262	-0.52
Mof_N 	N 	0.9582	0.6074	0.6748	-0.11
Mof_O 	O 	0.7698	0.8227	0.8878	-0.465
Mof_O 	O 	0.1053	0.12	0.9366	-0.488
Mof_N 	N 	0.5666	0.1668	0.3679	-0.112
Mof_C 	C 	0.92	0.231	0.5777	-0.149
Mof_C 	C 	0.5667	0.0418	0.1328	0.465
Mof_C 	C 	0.5646	0.082	0.216	-0.123
Mof_C 	C 	0.9055	0.4184	0.5743	-0.152
Mof_C 	C 	0.4379	0.1022	0.2404	-0.008
Mof_H 	H 	0.3495	0.087	0.2044	0.04
Mof_C 	C 	0.6892	0.1461	0.346	0.002
Mof_H 	H 	0.7759	0.1615	0.3831	0.032
Mof_C 	C 	0.7718	0.375	0.5233	0.189
Mof_C 	C 	0.9793	0.3471	0.6026	0.197
Mof_C 	C 	0.7091	0.2586	0.5021	-0.151
Mof_C 	C 	0.7818	0.1861	0.5283	0.195
Mof_C 	C 	0.8979	0.8232	0.8798	0.413
Mof_C 	C 	0.9885	0.1189	0.8169	-0.098
Mof_C 	C 	0.6911	0.1029	0.2706	-0.016
Mof_H 	H 	0.7782	0.0874	0.2557	0.043
Mof_C 	C 	0.0593	0.7374	0.7972	0.003
Mof_H 	H 	0.1424	0.7807	0.8355	0.011
Mof_C 	C 	0.9833	0.1004	0.893	0.438
Mof_C 	C 	0.8019	0.6758	0.7533	-0.018
Mof_H 	H 	0.706	0.6765	0.7614	0.039
Mof_C 	C 	0.123	0.3963	0.6595	-0.545
Mof_H 	H 	0.1603	0.3354	0.6725	0.184
Mof_H 	H 	0.1081	0.4493	0.7053	0.186
Mof_H 	H 	0.1935	0.4359	0.6374	0.172
Mof_C 	C 	0.0066	0.154	0.6004	-0.019
Mof_H 	H 	0.1095	0.1801	0.5981	0.022
Mof_H 	H 	0.9696	0.0774	0.5635	0.03
Mof_C 	C 	0.8738	0.1439	0.7032	0.013
Mof_H 	H 	0.7899	0.151	0.6721	0.023
Mof_C 	C 	0.9205	0.7424	0.8088	-0.118
Mof_C 	C 	0.441	0.1441	0.3164	-0.005
Mof_H 	H 	0.3544	0.1573	0.3329	0.028
Mof_C 	C 	0.1178	0.1251	0.7913	-0.02
Mof_H 	H 	0.2037	0.1203	0.822	0.039
Mof_C 	C 	0.8661	0.1295	0.7718	-0.026
Mof_H 	H 	0.7768	0.1267	0.7886	0.04
Mof_C 	C 	0.0756	0.6688	0.7293	-0.007
Mof_H 	H 	0.1706	0.6648	0.7208	0.025
Mof_C 	C 	0.8222	0.6082	0.6861	0.005
Mof_H 	H 	0.7404	0.5622	0.6478	0.022
Mof_C 	C 	0.979	0.543	0.5987	-0.012
Mof_H 	H 	0.0846	0.551	0.6001	0.028
Mof_H 	H 	0.939	0.5761	0.5606	0.027
Mof_C 	C 	0.5593	0.2107	0.4503	-0.011
Mof_H 	H 	0.5067	0.1486	0.4652	0.018
Mof_H 	H 	0.5032	0.2702	0.457	0.024
Mof_C 	C 	0.6881	0.4481	0.4901	-0.528
Mof_H 	H 	0.6118	0.4653	0.5182	0.165
Mof_H 	H 	0.6434	0.4075	0.4367	0.174
Mof_H 	H 	0.7551	0.5184	0.4942	0.17
Mof_C 	C 	0.1218	0.1382	0.7216	0.002
Mof_H 	H 	0.2094	0.1403	0.7032	0.019
Mof_C 	C 	0.7176	0.0608	0.5031	-0.546
Mof_H 	H 	0.7179	0.0352	0.5476	0.18
Mof_H 	H 	0.776	0.0212	0.4707	0.179
Mof_H 	H 	0.6172	0.0447	0.4746	0.179
Mof_O 	O 	0.454	0.0302	0.0869	-0.566
Mof_Tb	Tb	0.23336	0.01633	0.00331	1.895
Mof_N 	N 	0.9997	0.8518	0.3202	-0.114
Mof_O 	O 	0.3136	0.976	0.8828	-0.508
Mof_O 	O 	0.1391	0.9347	0.096	-0.479
Mof_O 	O 	0.9913	0.1093	0.0738	-0.521
Mof_N 	N 	0.0418	0.3926	0.3252	-0.111
Mof_O 	O 	0.2302	0.1773	0.1122	-0.466
Mof_O 	O 	0.8947	0.88	0.0634	-0.489
Mof_N 	N 	0.4334	0.8332	0.6321	-0.113
Mof_C 	C 	0.08	0.769	0.4223	-0.15
Mof_C 	C 	0.4333	0.9582	0.8672	0.464
Mof_C 	C 	0.4354	0.918	0.784	-0.124
Mof_C 	C 	0.0945	0.5816	0.4257	-0.152
Mof_C 	C 	0.5621	0.8978	0.7596	-0.008
Mof_H 	H 	0.6505	0.913	0.7956	0.04
Mof_C 	C 	0.3108	0.8539	0.654	0.002
Mof_H 	H 	0.2241	0.8385	0.6169	0.032
Mof_C 	C 	0.2282	0.625	0.4767	0.189
Mof_C 	C 	0.0207	0.6529	0.3974	0.197
Mof_C 	C 	0.2909	0.7414	0.4979	-0.151
Mof_C 	C 	0.2182	0.8139	0.4717	0.195
Mof_C 	C 	0.1021	0.1768	0.1202	0.413
Mof_C 	C 	0.0115	0.8811	0.1831	-0.098
Mof_C 	C 	0.3089	0.8971	0.7294	-0.016
Mof_H 	H 	0.2218	0.9126	0.7443	0.043
Mof_C 	C 	0.9407	0.2626	0.2028	0.003
Mof_H 	H 	0.8576	0.2193	0.1645	0.011
Mof_C 	C 	0.0167	0.8996	0.107	0.438
Mof_C 	C 	0.1981	0.3242	0.2467	-0.018
Mof_H 	H 	0.294	0.3235	0.2386	0.039
Mof_C 	C 	0.877	0.6037	0.3405	-0.545
Mof_H 	H 	0.8397	0.6646	0.3275	0.184
Mof_H 	H 	0.8919	0.5507	0.2947	0.186
Mof_H 	H 	0.8065	0.5641	0.3626	0.172
Mof_C 	C 	0.9934	0.846	0.3996	-0.019
Mof_H 	H 	0.8905	0.8199	0.4019	0.022
Mof_H 	H 	0.0304	0.9226	0.4365	0.03
Mof_C 	C 	0.1262	0.8561	0.2968	0.013
Mof_H 	H 	0.2101	0.849	0.3279	0.023
Mof_C 	C 	0.0795	0.2576	0.1912	-0.118
Mof_C 	C 	0.559	0.8559	0.6836	-0.005
Mof_H 	H 	0.6456	0.8427	0.6671	0.028
Mof_C 	C 	0.8822	0.8749	0.2087	-0.02
Mof_H 	H 	0.7963	0.8797	0.178	0.039
Mof_C 	C 	0.1339	0.8705	0.2282	-0.026
Mof_H 	H 	0.2232	0.8733	0.2114	0.04
Mof_C 	C 	0.9244	0.3312	0.2707	-0.007
Mof_H 	H 	0.8294	0.3352	0.2792	0.025
Mof_C 	C 	0.1778	0.3918	0.3139	0.005
Mof_H 	H 	0.2596	0.4378	0.3522	0.022
Mof_C 	C 	0.021	0.457	0.4013	-0.012
Mof_H 	H 	0.9154	0.449	0.3999	0.028
Mof_H 	H 	0.061	0.4239	0.4394	0.027
Mof_C 	C 	0.4407	0.7893	0.5497	-0.011
Mof_H 	H 	0.4933	0.8514	0.5348	0.018
Mof_H 	H 	0.4968	0.7298	0.543	0.024
Mof_C 	C 	0.3119	0.5519	0.5099	-0.528
Mof_H 	H 	0.3882	0.5347	0.4818	0.165
Mof_H 	H 	0.3566	0.5925	0.5633	0.174
Mof_H 	H 	0.2449	0.4816	0.5058	0.17
Mof_C 	C 	0.8782	0.8618	0.2784	0.002
Mof_H 	H 	0.7906	0.8597	0.2968	0.019
Mof_C 	C 	0.2824	0.9392	0.4969	-0.546
Mof_H 	H 	0.2821	0.9648	0.4524	0.18
Mof_H 	H 	0.224	0.9788	0.5293	0.179
Mof_H 	H 	0.3828	0.9553	0.5254	0.179
Mof_O 	O 	0.546	0.9698	0.9131	-0.566
_end
