data_functionalizedCrystal
_audit_creation_method	'EQeq! by Chris Wilmer'
_symmetry_space_group_name_H-M	'P1'
_symmetry_Int_Tables_number	1
_symmetry_cell_setting	triclinic
loop_
_symmetry_equiv_pos_as_xyz
  x,y,z
_cell_length_a	9.3078
_cell_length_b	9.9938
_cell_length_c	13.2647
_cell_angle_alpha	78.154
_cell_angle_beta	73.742
_cell_angle_gamma	82.751
loop_
_atom_site_label
_atom_site_type_symbol
_atom_site_fract_x
_atom_site_fract_y
_atom_site_fract_z
_atom_site_charge
Mof_C 	C 	0.1773	0.3058	0.6514	-0.012
Mof_H 	H 	0.2659	0.3053	0.5972	0.025
Mof_C 	C 	0.1664	0.2616	0.7564	-0.001
Mof_H 	H 	0.2447	0.2271	0.7874	0.025
Mof_C 	C 	0.946	0.3306	0.733	0.169
Mof_H 	H 	0.8427	0.3501	0.7476	-0.032
Mof_C 	C 	0.9553	0.2595	0.9244	-0.024
Mof_H 	H 	0.0041	0.1786	0.9589	0.007
Mof_H 	H 	0.8491	0.2462	0.9415	0.04
Mof_C 	C 	0.9767	0.383	0.9651	0.094
Mof_C 	C 	0.8875	0.5035	0.9513	-0.102
Mof_H 	H 	0.8105	0.5066	0.9186	0.072
Mof_C 	C 	0.0901	0.3819	0.0152	-0.131
Mof_H 	H 	0.1514	0.3022	0.026	0.066
Mof_C 	C 	0.3589	0.5124	0.4161	0
Mof_H 	H 	0.3601	0.572	0.4613	0.022
Mof_C 	C 	0.4811	0.4651	0.3452	-0.009
Mof_H 	H 	0.5799	0.4852	0.3337	0.035
Mof_C 	C 	0.2827	0.3806	0.3362	0.082
Mof_H 	H 	0.2216	0.3304	0.3155	-0.014
Mof_C 	C 	0.5181	0.3234	0.201	-0.12
Mof_H 	H 	0.4808	0.2357	0.2044	0.064
Mof_H 	H 	0.6225	0.3073	0.2024	0.071
Mof_C 	C 	0.5067	0.4172	0.0975	0.049
Mof_C 	C 	0.4964	0.5593	0.0854	-0.055
Mof_H 	H 	0.4931	0.5999	0.1432	0.053
Mof_C 	C 	0.5089	0.3589	0.0115	-0.064
Mof_H 	H 	0.514	0.2641	0.0186	0.046
Mof_C 	C 	0.0811	0.6472	0.6668	0.001
Mof_H 	H 	0.0634	0.5719	0.7218	0.014
Mof_C 	C 	0.1187	0.7691	0.6755	-0.016
Mof_H 	H 	0.1316	0.7936	0.7361	0.028
Mof_C 	C 	0.1066	0.7745	0.5134	0.076
Mof_H 	H 	0.1108	0.8059	0.4417	-0.018
Mof_C 	C 	0.1789	0.9921	0.5453	-0.127
Mof_H 	H 	0.1294	0.0429	0.602	0.063
Mof_H 	H 	0.1466	0.0358	0.4821	0.061
Mof_C 	C 	0.3454	0.997	0.5224	0.062
Mof_C 	C 	0.4118	0.9991	0.6025	-0.071
Mof_H 	H 	0.353	0.9982	0.672	0.05
Mof_C 	C 	0.4343	0.9975	0.42	-0.07
Mof_H 	H 	0.3904	0.9955	0.3655	0.05
Mof_N 	N 	0.0378	0.3517	0.6367	-0.263
Mof_N 	N 	0.0193	0.2775	0.8078	-0.162
Mof_N 	N 	0.2336	0.4584	0.4104	-0.231
Mof_N 	N 	0.4313	0.3831	0.2947	-0.107
Mof_N 	N 	0.0728	0.6501	0.5648	-0.243
Mof_N 	N 	0.1338	0.8494	0.5772	-0.109
Mof_C 	C 	0.8227	0.6942	0.3486	0.001
Mof_H 	H 	0.7341	0.6947	0.4028	0.022
Mof_C 	C 	0.8336	0.7384	0.2436	-0.011
Mof_H 	H 	0.7553	0.7729	0.2126	0.035
Mof_C 	C 	0.054	0.6694	0.267	-0.006
Mof_H 	H 	0.1573	0.6499	0.2524	0.02
Mof_C 	C 	0.0447	0.7405	0.0756	-0.224
Mof_H 	H 	0.9959	0.8214	0.0411	0.121
Mof_H 	H 	0.1509	0.7538	0.0585	0.091
Mof_C 	C 	0.0233	0.617	0.0349	0.023
Mof_C 	C 	0.1125	0.4965	0.0487	-0.044
Mof_H 	H 	0.1895	0.4934	0.0814	0.048
Mof_C 	C 	0.9099	0.6181	0.9848	-0.009
Mof_H 	H 	0.8486	0.6978	0.974	0.036
Mof_C 	C 	0.6411	0.4876	0.5839	0.001
Mof_H 	H 	0.6399	0.428	0.5387	0.022
Mof_C 	C 	0.5189	0.5349	0.6548	-0.008
Mof_H 	H 	0.4201	0.5148	0.6663	0.034
Mof_C 	C 	0.7173	0.6194	0.6638	0.083
Mof_H 	H 	0.7784	0.6696	0.6845	0.001
Mof_C 	C 	0.4819	0.6766	0.799	-0.129
Mof_H 	H 	0.5192	0.7643	0.7956	0.067
Mof_H 	H 	0.3775	0.6927	0.7976	0.069
Mof_C 	C 	0.4933	0.5828	0.9025	0.067
Mof_C 	C 	0.5036	0.4407	0.9146	-0.085
Mof_H 	H 	0.5069	0.4001	0.8568	0.063
Mof_C 	C 	0.4911	0.6411	0.9885	-0.094
Mof_H 	H 	0.486	0.7359	0.9814	0.053
Mof_C 	C 	0.9189	0.3528	0.3332	0.008
Mof_H 	H 	0.9366	0.4281	0.2782	0.036
Mof_C 	C 	0.8813	0.2309	0.3245	-0.003
Mof_H 	H 	0.8684	0.2064	0.2639	0.038
Mof_C 	C 	0.8934	0.2255	0.4866	0.089
Mof_H 	H 	0.8892	0.1941	0.5583	-0.004
Mof_C 	C 	0.8211	0.0079	0.4547	-0.132
Mof_H 	H 	0.8706	0.9571	0.398	0.079
Mof_H 	H 	0.8534	0.9642	0.5179	0.078
Mof_C 	C 	0.6546	0.003	0.4776	0.068
Mof_C 	C 	0.5882	0.0009	0.3975	-0.074
Mof_H 	H 	0.647	0.0018	0.328	0.055
Mof_C 	C 	0.5657	0.0025	0.58	-0.073
Mof_H 	H 	0.6096	0.0045	0.6345	0.054
Mof_N 	N 	0.9622	0.6483	0.3633	-0.194
Mof_N 	N 	0.9807	0.7225	0.1922	-0.055
Mof_N 	N 	0.7664	0.5416	0.5896	-0.221
Mof_N 	N 	0.5687	0.6169	0.7053	-0.105
Mof_N 	N 	0.9272	0.3499	0.4352	-0.227
Mof_N 	N 	0.8662	0.1506	0.4228	-0.104
Mof_Co	Co	1.84363e-17	0.5	0.5	1.096
_end
