data_functionalizedCrystal
_audit_creation_method	'EQeq! by Chris Wilmer'
_symmetry_space_group_name_H-M	'P1'
_symmetry_Int_Tables_number	1
_symmetry_cell_setting	triclinic
loop_
_symmetry_equiv_pos_as_xyz
  x,y,z
_cell_length_a	27.2662
_cell_length_b	11.5396
_cell_length_c	13.9678
_cell_angle_alpha	90
_cell_angle_beta	90
_cell_angle_gamma	90
loop_
_atom_site_label
_atom_site_type_symbol
_atom_site_fract_x
_atom_site_fract_y
_atom_site_fract_z
_atom_site_charge
Mof_O 	O 	0.05617	0.9674	0.2782	-0.384
Mof_O 	O 	0.0525	0.0623	0.4157	-0.414
Mof_C 	C 	0.0722	0.0371	0.3387	0.347
Mof_C 	C 	0.20504	0.2223	0.2747	0.078
Mof_C 	C 	0.29486	0.4768	0.2272	0.097
Mof_C 	C 	0.1197	0.0988	0.3165	-0.124
Mof_C 	C 	0.1841	0.2262	0.3646	-0.121
Mof_H 	H 	0.1994	0.2716	0.4138	0.072
Mof_C 	C 	0.142	0.1666	0.3849	0.05
Mof_H 	H 	0.1278	0.1722	0.4476	0.043
Mof_C 	C 	0.1824	0.1543	0.2057	-0.128
Mof_H 	H 	0.1962	0.1496	0.1426	0.061
Mof_C 	C 	0.1402	0.0932	0.227	0.047
Mof_H 	H 	0.1251	0.0463	0.1785	0.003
Mof_C 	C 	0.3319	0.4934	0.291	-0.139
Mof_H 	H 	0.3306	0.4552	0.352	0.077
Mof_C 	C 	0.299	0.529	0.1397	-0.134
Mof_H 	H 	0.2736	0.5191	0.0928	0.064
Mof_C 	C 	0.3398	0.5964	0.1181	0.06
Mof_H 	H 	0.3424	0.6311	0.0558	0.017
Mof_C 	C 	0.37619	0.6142	0.1836	-0.121
Mof_C 	C 	0.41947	0.6902	0.1586	0.356
Mof_C 	C 	0.3708	0.5628	0.2705	0.069
Mof_H 	H 	0.3951	0.5761	0.319	0.024
Mof_O 	O 	0.44657	0.7217	0.2258	-0.38
Mof_O 	O 	0.42521	0.7147	0.0725	-0.252
Mof_O 	O 	0.44383	0.0326	0.7782	-0.483
Mof_O 	O 	0.4475	0.9377	0.9157	-0.39
Mof_C 	C 	0.4278	0.9629	0.8387	0.478
Mof_C 	C 	0.29496	0.7777	0.7747	0.098
Mof_C 	C 	0.20514	0.5232	0.7272	0.096
Mof_C 	C 	0.3803	0.9012	0.8165	-0.145
Mof_C 	C 	0.3159	0.7738	0.8646	-0.132
Mof_H 	H 	0.3006	0.7284	0.9138	0.088
Mof_C 	C 	0.358	0.8334	0.8849	0.082
Mof_H 	H 	0.3722	0.8278	0.9476	0.053
Mof_C 	C 	0.3176	0.8457	0.7057	-0.137
Mof_H 	H 	0.3038	0.8504	0.6426	0.085
Mof_C 	C 	0.3598	0.9068	0.727	0.084
Mof_H 	H 	0.3749	0.9537	0.6785	0.031
Mof_C 	C 	0.1681	0.5066	0.791	-0.142
Mof_H 	H 	0.1694	0.5448	0.852	0.082
Mof_C 	C 	0.201	0.471	0.6397	-0.135
Mof_H 	H 	0.2264	0.4809	0.5928	0.071
Mof_C 	C 	0.1602	0.4036	0.6181	0.06
Mof_H 	H 	0.1576	0.3689	0.5558	0.023
Mof_C 	C 	0.12381	0.3858	0.6836	-0.126
Mof_C 	C 	0.08053	0.3098	0.6586	0.353
Mof_C 	C 	0.1292	0.4372	0.7705	0.071
Mof_H 	H 	0.1049	0.4239	0.819	0.02
Mof_O 	O 	0.05343	0.2783	0.7258	-0.394
Mof_O 	O 	0.07479	0.2853	0.5725	-0.253
Mof_O 	O 	0.44383	0.9674	0.2218	-0.373
Mof_O 	O 	0.4475	0.0623	0.0843	-0.418
Mof_C 	C 	0.4278	0.0371	0.1613	0.347
Mof_C 	C 	0.29496	0.2223	0.2253	0.078
Mof_C 	C 	0.20514	0.4768	0.2728	0.096
Mof_C 	C 	0.3803	0.0988	0.1835	-0.125
Mof_C 	C 	0.3159	0.2262	0.1354	-0.125
Mof_H 	H 	0.3006	0.2716	0.0862	0.063
Mof_C 	C 	0.358	0.1666	0.1151	0.049
Mof_H 	H 	0.3722	0.1722	0.0524	0.031
Mof_C 	C 	0.3176	0.1543	0.2943	-0.128
Mof_H 	H 	0.3038	0.1496	0.3574	0.067
Mof_C 	C 	0.3598	0.0932	0.273	0.05
Mof_H 	H 	0.3749	0.0463	0.3215	0.011
Mof_C 	C 	0.1681	0.4934	0.209	-0.141
Mof_H 	H 	0.1694	0.4552	0.148	0.07
Mof_C 	C 	0.201	0.529	0.3603	-0.134
Mof_H 	H 	0.2264	0.5191	0.4072	0.072
Mof_C 	C 	0.1602	0.5964	0.3819	0.062
Mof_H 	H 	0.1576	0.6311	0.4442	0.026
Mof_C 	C 	0.12381	0.6142	0.3164	-0.124
Mof_C 	C 	0.08053	0.6902	0.3414	0.356
Mof_C 	C 	0.1292	0.5628	0.2295	0.069
Mof_H 	H 	0.1049	0.5761	0.181	0.013
Mof_O 	O 	0.05343	0.7217	0.2742	-0.395
Mof_O 	O 	0.07479	0.7147	0.4275	-0.247
Mof_O 	O 	0.05617	0.0326	0.7218	-0.493
Mof_O 	O 	0.0525	0.9377	0.5843	-0.413
Mof_C 	C 	0.0722	0.9629	0.6613	0.483
Mof_C 	C 	0.20504	0.7777	0.7253	0.1
Mof_C 	C 	0.29486	0.5232	0.7728	0.093
Mof_C 	C 	0.1197	0.9012	0.6835	-0.154
Mof_C 	C 	0.1841	0.7738	0.6354	-0.138
Mof_H 	H 	0.1994	0.7284	0.5862	0.082
Mof_C 	C 	0.142	0.8334	0.6151	0.084
Mof_H 	H 	0.1278	0.8278	0.5524	0.041
Mof_C 	C 	0.1824	0.8457	0.7943	-0.141
Mof_H 	H 	0.1962	0.8504	0.8574	0.09
Mof_C 	C 	0.1402	0.9068	0.773	0.088
Mof_H 	H 	0.1251	0.9537	0.8215	0.03
Mof_C 	C 	0.3319	0.5066	0.709	-0.136
Mof_H 	H 	0.3306	0.5448	0.648	0.077
Mof_C 	C 	0.299	0.471	0.8603	-0.128
Mof_H 	H 	0.2736	0.4809	0.9072	0.077
Mof_C 	C 	0.3398	0.4036	0.8819	0.056
Mof_H 	H 	0.3424	0.3689	0.9442	0.036
Mof_C 	C 	0.37619	0.3858	0.8164	-0.114
Mof_C 	C 	0.41947	0.3098	0.8414	0.349
Mof_C 	C 	0.3708	0.4372	0.7295	0.065
Mof_H 	H 	0.3951	0.4239	0.681	0.024
Mof_O 	O 	0.44657	0.2783	0.7742	-0.382
Mof_O 	O 	0.42521	0.2853	0.9275	-0.232
Mof_O 	O 	0.94383	0.0326	0.7218	-0.456
Mof_O 	O 	0.9475	0.9377	0.5843	-0.376
Mof_C 	C 	0.9278	0.9629	0.6613	0.474
Mof_C 	C 	0.79496	0.7777	0.7253	0.097
Mof_C 	C 	0.70514	0.5232	0.7728	0.092
Mof_C 	C 	0.8803	0.9012	0.6835	-0.14
Mof_C 	C 	0.8159	0.7738	0.6354	-0.132
Mof_H 	H 	0.8006	0.7284	0.5862	0.08
Mof_C 	C 	0.858	0.8334	0.6151	0.08
Mof_H 	H 	0.8722	0.8278	0.5524	0.045
Mof_C 	C 	0.8176	0.8457	0.7943	-0.134
Mof_H 	H 	0.8038	0.8504	0.8574	0.09
Mof_C 	C 	0.8598	0.9068	0.773	0.083
Mof_H 	H 	0.8749	0.9537	0.8215	0.039
Mof_C 	C 	0.6681	0.5066	0.709	-0.135
Mof_H 	H 	0.6694	0.5448	0.648	0.077
Mof_C 	C 	0.701	0.471	0.8603	-0.128
Mof_H 	H 	0.7264	0.4809	0.9072	0.078
Mof_C 	C 	0.6602	0.4036	0.8819	0.056
Mof_H 	H 	0.6576	0.3689	0.9442	0.036
Mof_C 	C 	0.62381	0.3858	0.8164	-0.114
Mof_C 	C 	0.58053	0.3098	0.8414	0.349
Mof_C 	C 	0.6292	0.4372	0.7295	0.064
Mof_H 	H 	0.6049	0.4239	0.681	0.024
Mof_O 	O 	0.55343	0.2783	0.7742	-0.382
Mof_O 	O 	0.57479	0.2853	0.9275	-0.232
Mof_O 	O 	0.55617	0.9674	0.2218	-0.373
Mof_O 	O 	0.5525	0.0623	0.0843	-0.418
Mof_C 	C 	0.5722	0.0371	0.1613	0.348
Mof_C 	C 	0.70504	0.2223	0.2253	0.078
Mof_C 	C 	0.79486	0.4768	0.2728	0.092
Mof_C 	C 	0.6197	0.0988	0.1835	-0.125
Mof_C 	C 	0.6841	0.2262	0.1354	-0.125
Mof_H 	H 	0.6994	0.2716	0.0862	0.064
Mof_C 	C 	0.642	0.1666	0.1151	0.049
Mof_H 	H 	0.6278	0.1722	0.0524	0.031
Mof_C 	C 	0.6824	0.1543	0.2943	-0.128
Mof_H 	H 	0.6962	0.1496	0.3574	0.067
Mof_C 	C 	0.6402	0.0932	0.273	0.05
Mof_H 	H 	0.6251	0.0463	0.3215	0.011
Mof_C 	C 	0.8319	0.4934	0.209	-0.131
Mof_H 	H 	0.8306	0.4552	0.148	0.071
Mof_C 	C 	0.799	0.529	0.3603	-0.126
Mof_H 	H 	0.7736	0.5191	0.4072	0.07
Mof_C 	C 	0.8398	0.5964	0.3819	0.055
Mof_H 	H 	0.8424	0.6311	0.4442	0.03
Mof_C 	C 	0.87619	0.6142	0.3164	-0.108
Mof_C 	C 	0.91947	0.6902	0.3414	0.349
Mof_C 	C 	0.8708	0.5628	0.2295	0.062
Mof_H 	H 	0.8951	0.5761	0.181	0.029
Mof_O 	O 	0.94657	0.7217	0.2742	-0.355
Mof_O 	O 	0.92521	0.7147	0.4275	-0.221
Mof_O 	O 	0.55617	0.0326	0.7782	-0.482
Mof_O 	O 	0.5525	0.9377	0.9157	-0.39
Mof_C 	C 	0.5722	0.9629	0.8387	0.478
Mof_C 	C 	0.70504	0.7777	0.7747	0.098
Mof_C 	C 	0.79486	0.5232	0.7272	0.092
Mof_C 	C 	0.6197	0.9012	0.8165	-0.145
Mof_C 	C 	0.6841	0.7738	0.8646	-0.132
Mof_H 	H 	0.6994	0.7284	0.9138	0.088
Mof_C 	C 	0.642	0.8334	0.8849	0.082
Mof_H 	H 	0.6278	0.8278	0.9476	0.053
Mof_C 	C 	0.6824	0.8457	0.7057	-0.137
Mof_H 	H 	0.6962	0.8504	0.6426	0.084
Mof_C 	C 	0.6402	0.9068	0.727	0.084
Mof_H 	H 	0.6251	0.9537	0.6785	0.031
Mof_C 	C 	0.8319	0.5066	0.791	-0.131
Mof_H 	H 	0.8306	0.5448	0.852	0.084
Mof_C 	C 	0.799	0.471	0.6397	-0.128
Mof_H 	H 	0.7736	0.4809	0.5928	0.069
Mof_C 	C 	0.8398	0.4036	0.6181	0.053
Mof_H 	H 	0.8424	0.3689	0.5558	0.027
Mof_C 	C 	0.87619	0.3858	0.6836	-0.109
Mof_C 	C 	0.91947	0.3098	0.6586	0.346
Mof_C 	C 	0.8708	0.4372	0.7705	0.064
Mof_H 	H 	0.8951	0.4239	0.819	0.036
Mof_O 	O 	0.94657	0.2783	0.7258	-0.353
Mof_O 	O 	0.92521	0.2853	0.5725	-0.227
Mof_O 	O 	0.94383	0.9674	0.2782	-0.351
Mof_O 	O 	0.9475	0.0623	0.4157	-0.378
Mof_C 	C 	0.9278	0.0371	0.3387	0.341
Mof_C 	C 	0.79496	0.2223	0.2747	0.075
Mof_C 	C 	0.70514	0.4768	0.2272	0.096
Mof_C 	C 	0.8803	0.0988	0.3165	-0.112
Mof_C 	C 	0.8159	0.2262	0.3646	-0.117
Mof_H 	H 	0.8006	0.2716	0.4138	0.07
Mof_C 	C 	0.858	0.1666	0.3849	0.045
Mof_H 	H 	0.8722	0.1722	0.4476	0.046
Mof_C 	C 	0.8176	0.1543	0.2057	-0.122
Mof_H 	H 	0.8038	0.1496	0.1426	0.061
Mof_C 	C 	0.8598	0.0932	0.227	0.043
Mof_H 	H 	0.8749	0.0463	0.1785	0.012
Mof_C 	C 	0.6681	0.4934	0.291	-0.138
Mof_H 	H 	0.6694	0.4552	0.352	0.077
Mof_C 	C 	0.701	0.529	0.1397	-0.134
Mof_H 	H 	0.7264	0.5191	0.0928	0.065
Mof_C 	C 	0.6602	0.5964	0.1181	0.06
Mof_H 	H 	0.6576	0.6311	0.0558	0.017
Mof_C 	C 	0.62381	0.6142	0.1836	-0.121
Mof_C 	C 	0.58053	0.6902	0.1586	0.356
Mof_C 	C 	0.6292	0.5628	0.2705	0.069
Mof_H 	H 	0.6049	0.5761	0.319	0.024
Mof_O 	O 	0.55343	0.7217	0.2258	-0.38
Mof_O 	O 	0.57479	0.7147	0.0725	-0.252
Mof_Ni	Ni	5.40434e-34	0.8503	0.28137	1.098
Mof_O 	O 	-2.047e-33	0.8442	0.4295	-0.356
Mof_Ni	Ni	0.5	0.1497	0.78137	1.116
Mof_O 	O 	0.5	0.1558	0.9295	-0.336
Mof_Ni	Ni	0.5	0.8503	0.21863	1.119
Mof_O 	O 	0.5	0.8442	0.0705	-0.337
Mof_Ni	Ni	1.38029e-33	0.1497	0.71863	1.097
Mof_O 	O 	-4.64813e-33	0.1558	0.5705	-0.38
Mof_Ni	Ni	9.60362e-34	-5.7439e-33	0.5	1.121
Mof_Ni	Ni	0.5	0	-0	1.123
Mof_C 	C 	0.25	0.2895	0.25	-0.049
Mof_C 	C 	0.25	0.4066	0.25	-0.061
Mof_C 	C 	0.25	0.7105	0.75	-0.055
Mof_C 	C 	0.25	0.5934	0.75	-0.054
Mof_C 	C 	0.75	0.7105	0.75	-0.054
Mof_C 	C 	0.75	0.5934	0.75	-0.053
Mof_C 	C 	0.75	0.2895	0.25	-0.048
Mof_C 	C 	0.75	0.4066	0.25	-0.059
_end
