data_functionalizedCrystal
_audit_creation_method	'EQeq! by Chris Wilmer'
_symmetry_space_group_name_H-M	'P1'
_symmetry_Int_Tables_number	1
_symmetry_cell_setting	triclinic
loop_
_symmetry_equiv_pos_as_xyz
  x,y,z
_cell_length_a	15.329
_cell_length_b	15.329
_cell_length_c	15.403
_cell_angle_alpha	90
_cell_angle_beta	90
_cell_angle_gamma	120
loop_
_atom_site_label
_atom_site_type_symbol
_atom_site_fract_x
_atom_site_fract_y
_atom_site_fract_z
_atom_site_charge
Mof_Nd	Nd	0.33333	0.66666	0.75	2.502
Mof_Nd	Nd	0.66667	0.33334	0.75	2.502
Mof_Nd	Nd	0.66667	0.33334	0.25	2.487
Mof_Nd	Nd	0.33333	0.66666	0.25	2.487
Mof_Fe	Fe	-0	0.5	-0	0.628
Mof_Fe	Fe	0.5	0	-0	0.628
Mof_Fe	Fe	0.5	0.5	-0	0.696
Mof_Fe	Fe	0.5	0.5	0.5	0.816
Mof_Fe	Fe	0.5	0	0.5	0.746
Mof_Fe	Fe	-2.5258e-17	0.5	0.5	0.746
Mof_H 	H 	0.054	0.7677	0.8445	0.051
Mof_H 	H 	0.7137	0.946	0.8445	0.075
Mof_H 	H 	0.2323	0.2863	0.8445	0.055
Mof_H 	H 	0.946	0.2323	0.8445	0.07
Mof_H 	H 	0.2863	0.054	0.8445	0.046
Mof_H 	H 	0.7677	0.7137	0.8445	0.065
Mof_H 	H 	0.2863	0.2323	0.6555	0.041
Mof_H 	H 	0.7677	0.054	0.6555	0.037
Mof_H 	H 	0.946	0.7137	0.6555	0.062
Mof_H 	H 	0.7137	0.7677	0.6555	0.052
Mof_H 	H 	0.2323	0.946	0.6555	0.057
Mof_H 	H 	0.054	0.2863	0.6555	0.032
Mof_H 	H 	0.946	0.2323	0.1555	0.045
Mof_H 	H 	0.2863	0.054	0.1555	0.019
Mof_H 	H 	0.7677	0.7137	0.1555	0.039
Mof_H 	H 	0.054	0.7677	0.1555	0.025
Mof_H 	H 	0.7137	0.946	0.1555	0.05
Mof_H 	H 	0.2323	0.2863	0.1555	0.028
Mof_H 	H 	0.7137	0.7677	0.3445	0.05
Mof_H 	H 	0.2323	0.946	0.3445	0.055
Mof_H 	H 	0.054	0.2863	0.3445	0.03
Mof_H 	H 	0.2863	0.2323	0.3445	0.039
Mof_H 	H 	0.7677	0.054	0.3445	0.035
Mof_H 	H 	0.946	0.7137	0.3445	0.06
Mof_H 	H 	0.09925	0.90075	0.75	0.045
Mof_H 	H 	0.8015	0.90075	0.75	0.061
Mof_H 	H 	0.09925	0.1985	0.75	0.029
Mof_H 	H 	0.90075	0.09925	0.75	0.045
Mof_H 	H 	0.1985	0.09925	0.75	0.029
Mof_H 	H 	0.90075	0.8015	0.75	0.061
Mof_H 	H 	0.90075	0.09925	0.25	0.042
Mof_H 	H 	0.1985	0.09925	0.25	0.026
Mof_H 	H 	0.90075	0.8015	0.25	0.059
Mof_H 	H 	0.09925	0.90075	0.25	0.042
Mof_H 	H 	0.8015	0.90075	0.25	0.059
Mof_H 	H 	0.09925	0.1985	0.25	0.026
Mof_C 	C 	0.1365	0.6488	0.8613	0.369
Mof_C 	C 	0.16	0.7369	0.8039	-0.033
Mof_C 	C 	0.1072	0.7868	0.8059	-0.02
Mof_C 	C 	0.5123	0.8635	0.8613	0.365
Mof_C 	C 	0.5769	0.84	0.8039	-0.021
Mof_C 	C 	0.6796	0.8928	0.8059	-0.016
Mof_C 	C 	0.3512	0.4877	0.8613	0.37
Mof_C 	C 	0.2631	0.4231	0.8039	-0.034
Mof_C 	C 	0.2132	0.3204	0.8059	-0.021
Mof_C 	C 	0.8635	0.3512	0.8613	0.365
Mof_C 	C 	0.84	0.2631	0.8039	-0.024
Mof_C 	C 	0.8928	0.2132	0.8059	-0.02
Mof_C 	C 	0.4877	0.1365	0.8613	0.368
Mof_C 	C 	0.4231	0.16	0.8039	-0.037
Mof_C 	C 	0.3204	0.1072	0.8059	-0.022
Mof_C 	C 	0.6488	0.5123	0.8613	0.371
Mof_C 	C 	0.7369	0.5769	0.8039	-0.027
Mof_C 	C 	0.7868	0.6796	0.8059	-0.016
Mof_C 	C 	0.4877	0.3512	0.6387	0.38
Mof_C 	C 	0.4231	0.2631	0.6961	-0.046
Mof_C 	C 	0.3204	0.2132	0.6941	-0.019
Mof_C 	C 	0.6488	0.1365	0.6387	0.378
Mof_C 	C 	0.7369	0.16	0.6961	-0.045
Mof_C 	C 	0.7868	0.1072	0.6941	-0.017
Mof_C 	C 	0.8635	0.5123	0.6387	0.374
Mof_C 	C 	0.84	0.5769	0.6961	-0.032
Mof_C 	C 	0.8928	0.6796	0.6941	-0.014
Mof_C 	C 	0.5123	0.6488	0.6387	0.381
Mof_C 	C 	0.5769	0.7369	0.6961	-0.039
Mof_C 	C 	0.6796	0.7868	0.6941	-0.013
Mof_C 	C 	0.3512	0.8635	0.6387	0.374
Mof_C 	C 	0.2631	0.84	0.6961	-0.035
Mof_C 	C 	0.2132	0.8928	0.6941	-0.018
Mof_C 	C 	0.1365	0.4877	0.6387	0.377
Mof_C 	C 	0.16	0.4231	0.6961	-0.049
Mof_C 	C 	0.1072	0.3204	0.6941	-0.02
Mof_C 	C 	0.8635	0.3512	0.1387	0.37
Mof_C 	C 	0.84	0.2631	0.1961	-0.045
Mof_C 	C 	0.8928	0.2132	0.1941	-0.012
Mof_C 	C 	0.4877	0.1365	0.1387	0.373
Mof_C 	C 	0.4231	0.16	0.1961	-0.059
Mof_C 	C 	0.3204	0.1072	0.1941	-0.014
Mof_C 	C 	0.6488	0.5123	0.1387	0.377
Mof_C 	C 	0.7369	0.5769	0.1961	-0.048
Mof_C 	C 	0.7868	0.6796	0.1941	-0.007
Mof_C 	C 	0.1365	0.6488	0.1387	0.374
Mof_C 	C 	0.16	0.7369	0.1961	-0.054
Mof_C 	C 	0.1072	0.7868	0.1941	-0.012
Mof_C 	C 	0.5123	0.8635	0.1387	0.37
Mof_C 	C 	0.5769	0.84	0.1961	-0.042
Mof_C 	C 	0.6796	0.8928	0.1941	-0.008
Mof_C 	C 	0.3512	0.4877	0.1387	0.376
Mof_C 	C 	0.2631	0.4231	0.1961	-0.056
Mof_C 	C 	0.2132	0.3204	0.1941	-0.013
Mof_C 	C 	0.5123	0.6488	0.3613	0.381
Mof_C 	C 	0.5769	0.7369	0.3039	-0.044
Mof_C 	C 	0.6796	0.7868	0.3059	-0.007
Mof_C 	C 	0.3512	0.8635	0.3613	0.375
Mof_C 	C 	0.2631	0.84	0.3039	-0.04
Mof_C 	C 	0.2132	0.8928	0.3059	-0.012
Mof_C 	C 	0.1365	0.4877	0.3613	0.378
Mof_C 	C 	0.16	0.4231	0.3039	-0.054
Mof_C 	C 	0.1072	0.3204	0.3059	-0.014
Mof_C 	C 	0.4877	0.3512	0.3613	0.38
Mof_C 	C 	0.4231	0.2631	0.3039	-0.051
Mof_C 	C 	0.3204	0.2132	0.3059	-0.013
Mof_C 	C 	0.6488	0.1365	0.3613	0.379
Mof_C 	C 	0.7369	0.16	0.3039	-0.05
Mof_C 	C 	0.7868	0.1072	0.3059	-0.011
Mof_C 	C 	0.8635	0.5123	0.3613	0.375
Mof_C 	C 	0.84	0.5769	0.3039	-0.037
Mof_C 	C 	0.8928	0.6796	0.3059	-0.008
Mof_C 	C 	0.13425	0.86575	0.75	-0.044
Mof_C 	C 	0.7315	0.86575	0.75	-0.038
Mof_C 	C 	0.13425	0.2685	0.75	-0.052
Mof_C 	C 	0.86575	0.13425	0.75	-0.044
Mof_C 	C 	0.2685	0.13425	0.75	-0.052
Mof_C 	C 	0.86575	0.7315	0.75	-0.038
Mof_C 	C 	0.86575	0.13425	0.25	-0.058
Mof_C 	C 	0.2685	0.13425	0.25	-0.067
Mof_C 	C 	0.86575	0.7315	0.25	-0.053
Mof_C 	C 	0.13425	0.86575	0.25	-0.058
Mof_C 	C 	0.7315	0.86575	0.25	-0.053
Mof_C 	C 	0.13425	0.2685	0.25	-0.067
Mof_N 	N 	0.2372	0.7628	0.75	-0.223
Mof_N 	N 	0.5256	0.7628	0.75	-0.222
Mof_N 	N 	0.2372	0.4744	0.75	-0.223
Mof_N 	N 	0.7628	0.2372	0.75	-0.223
Mof_N 	N 	0.4744	0.2372	0.75	-0.223
Mof_N 	N 	0.7628	0.5256	0.75	-0.222
Mof_N 	N 	0.7628	0.2372	0.25	-0.22
Mof_N 	N 	0.4744	0.2372	0.25	-0.22
Mof_N 	N 	0.7628	0.5256	0.25	-0.219
Mof_N 	N 	0.2372	0.7628	0.25	-0.22
Mof_N 	N 	0.5256	0.7628	0.25	-0.219
Mof_N 	N 	0.2372	0.4744	0.25	-0.22
Mof_O 	O 	0.1963	0.6146	0.8581	-0.482
Mof_O 	O 	0.0603	0.6161	0.9073	-0.318
Mof_O 	O 	0.4183	0.8037	0.8581	-0.469
Mof_O 	O 	0.5558	0.9397	0.9073	-0.279
Mof_O 	O 	0.3854	0.5817	0.8581	-0.48
Mof_O 	O 	0.3839	0.4442	0.9073	-0.314
Mof_O 	O 	0.8037	0.3854	0.8581	-0.47
Mof_O 	O 	0.9397	0.3839	0.9073	-0.281
Mof_O 	O 	0.5817	0.1963	0.8581	-0.483
Mof_O 	O 	0.4442	0.0603	0.9073	-0.32
Mof_O 	O 	0.6146	0.4183	0.8581	-0.479
Mof_O 	O 	0.6161	0.5558	0.9073	-0.31
Mof_O 	O 	0.5817	0.3854	0.6419	-0.504
Mof_O 	O 	0.4442	0.3839	0.5927	-0.369
Mof_O 	O 	0.6146	0.1963	0.6419	-0.506
Mof_O 	O 	0.6161	0.0603	0.5927	-0.373
Mof_O 	O 	0.8037	0.4183	0.6419	-0.493
Mof_O 	O 	0.9397	0.5558	0.5927	-0.332
Mof_O 	O 	0.4183	0.6146	0.6419	-0.503
Mof_O 	O 	0.5558	0.6161	0.5927	-0.365
Mof_O 	O 	0.3854	0.8037	0.6419	-0.493
Mof_O 	O 	0.3839	0.9397	0.5927	-0.334
Mof_O 	O 	0.1963	0.5817	0.6419	-0.507
Mof_O 	O 	0.0603	0.4442	0.5927	-0.375
Mof_O 	O 	0.8037	0.3854	0.1419	-0.501
Mof_O 	O 	0.9397	0.3839	0.0927	-0.341
Mof_O 	O 	0.5817	0.1963	0.1419	-0.515
Mof_O 	O 	0.4442	0.0603	0.0927	-0.383
Mof_O 	O 	0.6146	0.4183	0.1419	-0.511
Mof_O 	O 	0.6161	0.5558	0.0927	-0.372
Mof_O 	O 	0.1963	0.6146	0.1419	-0.514
Mof_O 	O 	0.0603	0.6161	0.0927	-0.381
Mof_O 	O 	0.4183	0.8037	0.1419	-0.501
Mof_O 	O 	0.5558	0.9397	0.0927	-0.339
Mof_O 	O 	0.3854	0.5817	0.1419	-0.512
Mof_O 	O 	0.3839	0.4442	0.0927	-0.377
Mof_O 	O 	0.4183	0.6146	0.3581	-0.502
Mof_O 	O 	0.5558	0.6161	0.4073	-0.365
Mof_O 	O 	0.3854	0.8037	0.3581	-0.492
Mof_O 	O 	0.3839	0.9397	0.4073	-0.334
Mof_O 	O 	0.1963	0.5817	0.3581	-0.506
Mof_O 	O 	0.0603	0.4442	0.4073	-0.375
Mof_O 	O 	0.5817	0.3854	0.3581	-0.503
Mof_O 	O 	0.4442	0.3839	0.4073	-0.369
Mof_O 	O 	0.6146	0.1963	0.3581	-0.505
Mof_O 	O 	0.6161	0.0603	0.4073	-0.373
Mof_O 	O 	0.8037	0.4183	0.3581	-0.491
Mof_O 	O 	0.9397	0.5558	0.4073	-0.332
_end
