data_functionalizedCrystal
_audit_creation_method	'EQeq! by Chris Wilmer'
_symmetry_space_group_name_H-M	'P1'
_symmetry_Int_Tables_number	1
_symmetry_cell_setting	triclinic
loop_
_symmetry_equiv_pos_as_xyz
  x,y,z
_cell_length_a	12.2624
_cell_length_b	12.2624
_cell_length_c	16.375
_cell_angle_alpha	77.6267
_cell_angle_beta	70.5271
_cell_angle_gamma	105.586
loop_
_atom_site_label
_atom_site_type_symbol
_atom_site_fract_x
_atom_site_fract_y
_atom_site_fract_z
_atom_site_charge
Mof_Cd	Cd	0.83095	0.45691	0.36856	0.423
Mof_Cd	Cd	0.32547	0.19951	0.13144	0.424
Mof_Cd	Cd	0.16905	0.54309	0.63144	0.423
Mof_Cd	Cd	0.67453	0.80049	0.86856	0.424
Mof_H 	H 	0.1453	0.6881	0.4164	0.03
Mof_H 	H 	0.2971	0.8458	0.4261	0.072
Mof_H 	H 	0.3618	0.0403	0.3205	0.052
Mof_H 	H 	0.5529	0.2866	0.5099	0.013
Mof_H 	H 	0.7555	0.5855	0.5172	0.034
Mof_H 	H 	0.5583	0.5157	0.6414	0.055
Mof_H 	H 	0.3587	0.2355	0.6272	0.06
Mof_H 	H 	0.3336	0.3342	0.6698	0.063
Mof_H 	H 	0.4116	0.2718	0.781	0.073
Mof_H 	H 	0.3015	0.1626	0.7909	0.073
Mof_H 	H 	0.0527	0.944	0.4463	0.07
Mof_H 	H 	0.1234	0.0556	0.4648	0.072
Mof_H 	H 	0.1269	0.1216	0.3175	0.059
Mof_H 	H 	0.9826	0.0604	0.3558	0.055
Mof_H 	H 	0.8672	0.1961	0.3759	0.019
Mof_H 	H 	0.1116	0.4746	0.3748	0.028
Mof_H 	H 	0.2003	0.3204	0.3705	0.055
Mof_H 	H 	0.6045	0.5617	0.0836	0.029
Mof_H 	H 	0.7719	0.7232	0.0739	0.073
Mof_H 	H 	0.8608	0.6823	0.1795	0.049
Mof_H 	H 	0.2965	0.0628	0.9901	0.014
Mof_H 	H 	0.6027	0.2727	0.9828	0.035
Mof_H 	H 	0.6571	0.1997	0.8586	0.055
Mof_H 	H 	0.3627	0.9859	0.8728	0.061
Mof_H 	H 	0.504	0.0034	0.8302	0.063
Mof_H 	H 	0.5528	0.1926	0.719	0.072
Mof_H 	H 	0.4535	0.0924	0.7091	0.072
Mof_H 	H 	0.8903	0.499	0.0537	0.073
Mof_H 	H 	0.0204	0.5882	0.0352	0.072
Mof_H 	H 	0.9391	0.4444	0.1825	0.06
Mof_H 	H 	0.9162	0.3384	0.1442	0.058
Mof_H 	H 	0.072	0.2431	0.1241	0.02
Mof_H 	H 	0.3494	0.4864	0.1252	0.028
Mof_H 	H 	0.1909	0.5708	0.1295	0.054
Mof_H 	H 	0.8547	0.3119	0.5836	0.03
Mof_H 	H 	0.7029	0.1542	0.5739	0.072
Mof_H 	H 	0.6382	0.9597	0.6795	0.052
Mof_H 	H 	0.4471	0.7134	0.4901	0.013
Mof_H 	H 	0.2445	0.4145	0.4828	0.034
Mof_H 	H 	0.4417	0.4843	0.3586	0.055
Mof_H 	H 	0.6413	0.7645	0.3728	0.06
Mof_H 	H 	0.6664	0.6658	0.3302	0.063
Mof_H 	H 	0.5884	0.7282	0.219	0.073
Mof_H 	H 	0.6985	0.8374	0.2091	0.073
Mof_H 	H 	0.9473	0.056	0.5537	0.07
Mof_H 	H 	0.8766	0.9444	0.5352	0.072
Mof_H 	H 	0.8731	0.8784	0.6825	0.059
Mof_H 	H 	0.0174	0.9396	0.6442	0.055
Mof_H 	H 	0.1328	0.8039	0.6241	0.019
Mof_H 	H 	0.8884	0.5254	0.6252	0.028
Mof_H 	H 	0.7997	0.6796	0.6295	0.055
Mof_H 	H 	0.3955	0.4383	0.9164	0.029
Mof_H 	H 	0.2281	0.2768	0.9261	0.073
Mof_H 	H 	0.1392	0.3177	0.8205	0.049
Mof_H 	H 	0.7035	0.9372	0.0099	0.014
Mof_H 	H 	0.3973	0.7273	0.0172	0.035
Mof_H 	H 	0.3429	0.8003	0.1414	0.055
Mof_H 	H 	0.6373	0.0141	0.1272	0.061
Mof_H 	H 	0.496	0.9966	0.1698	0.063
Mof_H 	H 	0.4472	0.8074	0.281	0.072
Mof_H 	H 	0.5465	0.9076	0.2909	0.072
Mof_H 	H 	0.1097	0.501	0.9463	0.073
Mof_H 	H 	0.9796	0.4118	0.9648	0.072
Mof_H 	H 	0.0609	0.5556	0.8175	0.06
Mof_H 	H 	0.0838	0.6616	0.8558	0.058
Mof_H 	H 	0.928	0.7569	0.8759	0.02
Mof_H 	H 	0.6506	0.5136	0.8748	0.028
Mof_H 	H 	0.8091	0.4292	0.8705	0.054
Mof_C 	C 	0.0268	0.6896	0.3068	0.426
Mof_C 	C 	0.1226	0.7972	0.3106	-0.097
Mof_C 	C 	0.1728	0.7669	0.3781	0.019
Mof_C 	C 	0.2631	0.8594	0.3837	-0.091
Mof_C 	C 	0.3002	0.9782	0.319	0.018
Mof_C 	C 	0.1591	0.9218	0.2479	0.02
Mof_C 	C 	0.1038	0.9668	0.1824	0.233
Mof_C 	C 	0.5773	0.3522	0.5285	0.11
Mof_C 	C 	0.6888	0.5155	0.5323	0.042
Mof_C 	C 	0.5832	0.4787	0.5983	-0.025
Mof_C 	C 	0.3889	0.2906	0.6563	-0.054
Mof_C 	C 	0.3871	0.215	0.7513	-0.103
Mof_C 	C 	0.0476	0.0168	0.4588	-0.094
Mof_C 	C 	0.0493	0.1045	0.369	-0.052
Mof_C 	C 	0.9392	0.247	0.3752	0.089
Mof_C 	C 	0.0723	0.3983	0.3748	0.029
Mof_C 	C 	0.1224	0.3143	0.3721	-0.009
Mof_C 	C 	0.4964	0.3336	0.1932	0.428
Mof_C 	C 	0.6078	0.4332	0.1894	-0.099
Mof_C 	C 	0.645	0.5509	0.1219	0.021
Mof_C 	C 	0.7431	0.6468	0.1163	-0.095
Mof_C 	C 	0.7972	0.6192	0.181	0.025
Mof_C 	C 	0.6697	0.407	0.2521	0.022
Mof_C 	C 	0.6492	0.2862	0.3176	0.236
Mof_C 	C 	0.3807	0.1058	0.9715	0.108
Mof_C 	C 	0.5478	0.2211	0.9677	0.04
Mof_C 	C 	0.577	0.1815	0.9017	-0.024
Mof_C 	C 	0.4469	0.0452	0.8437	-0.056
Mof_C 	C 	0.4663	0.1384	0.7487	-0.102
Mof_C 	C 	0.9756	0.5064	0.0412	-0.097
Mof_C 	C 	0.9735	0.4183	0.131	-0.057
Mof_C 	C 	0.1222	0.3144	0.1248	0.091
Mof_C 	C 	0.2731	0.4471	0.1252	0.028
Mof_C 	C 	0.1864	0.4945	0.1279	-0.009
Mof_C 	C 	0.9732	0.3104	0.6932	0.426
Mof_C 	C 	0.8774	0.2028	0.6894	-0.097
Mof_C 	C 	0.8272	0.2331	0.6219	0.019
Mof_C 	C 	0.7369	0.1406	0.6163	-0.091
Mof_C 	C 	0.6998	0.0218	0.681	0.018
Mof_C 	C 	0.8409	0.0782	0.7521	0.02
Mof_C 	C 	0.8962	0.0332	0.8176	0.233
Mof_C 	C 	0.4227	0.6478	0.4715	0.11
Mof_C 	C 	0.3112	0.4845	0.4677	0.042
Mof_C 	C 	0.4168	0.5213	0.4017	-0.025
Mof_C 	C 	0.6111	0.7094	0.3437	-0.054
Mof_C 	C 	0.6129	0.785	0.2487	-0.103
Mof_C 	C 	0.9524	0.9832	0.5412	-0.094
Mof_C 	C 	0.9507	0.8955	0.631	-0.052
Mof_C 	C 	0.0608	0.753	0.6248	0.089
Mof_C 	C 	0.9277	0.6017	0.6252	0.029
Mof_C 	C 	0.8776	0.6857	0.6279	-0.009
Mof_C 	C 	0.5036	0.6664	0.8068	0.428
Mof_C 	C 	0.3922	0.5668	0.8106	-0.099
Mof_C 	C 	0.355	0.4491	0.8781	0.021
Mof_C 	C 	0.2569	0.3532	0.8837	-0.095
Mof_C 	C 	0.2028	0.3808	0.819	0.025
Mof_C 	C 	0.3303	0.593	0.7479	0.022
Mof_C 	C 	0.3508	0.7138	0.6824	0.236
Mof_C 	C 	0.6193	0.8942	0.0285	0.108
Mof_C 	C 	0.4522	0.7789	0.0323	0.04
Mof_C 	C 	0.423	0.8185	0.0983	-0.024
Mof_C 	C 	0.5531	0.9548	0.1563	-0.056
Mof_C 	C 	0.5337	0.8616	0.2513	-0.102
Mof_C 	C 	0.0244	0.4936	0.9588	-0.097
Mof_C 	C 	0.0265	0.5817	0.869	-0.057
Mof_C 	C 	0.8778	0.6856	0.8752	0.091
Mof_C 	C 	0.7269	0.5529	0.8748	0.028
Mof_C 	C 	0.8136	0.5055	0.8721	-0.009
Mof_N 	N 	0.6877	0.439	0.4895	-0.158
Mof_N 	N 	0.5118	0.3737	0.5945	-0.118
Mof_N 	N 	0.0371	0.2194	0.3721	-0.111
Mof_N 	N 	0.9584	0.3577	0.3775	-0.147
Mof_N 	N 	0.2511	0.0087	0.2532	-0.126
Mof_N 	N 	0.4285	0.1772	0.0105	-0.156
Mof_N 	N 	0.4682	0.1063	0.9055	-0.117
Mof_N 	N 	0.0915	0.4092	0.1279	-0.111
Mof_N 	N 	0.2352	0.3359	0.1225	-0.147
Mof_N 	N 	0.7619	0.5043	0.2468	-0.129
Mof_N 	N 	0.3123	0.561	0.5105	-0.158
Mof_N 	N 	0.4882	0.6263	0.4055	-0.118
Mof_N 	N 	0.9629	0.7806	0.6279	-0.111
Mof_N 	N 	0.0416	0.6423	0.6225	-0.147
Mof_N 	N 	0.7489	0.9913	0.7468	-0.126
Mof_N 	N 	0.5715	0.8228	0.9895	-0.156
Mof_N 	N 	0.5318	0.8937	0.0945	-0.117
Mof_N 	N 	0.9085	0.5908	0.8721	-0.111
Mof_N 	N 	0.7648	0.6641	0.8775	-0.147
Mof_N 	N 	0.2381	0.4957	0.7532	-0.129
Mof_O 	O 	0.9329	0.6377	0.3694	-0.343
Mof_O 	O 	0.0531	0.6603	0.2416	-0.309
Mof_O 	O 	0.1535	0.0733	0.1184	-0.242
Mof_O 	O 	0.003	0.8953	0.1901	-0.213
Mof_O 	O 	0.5071	0.3023	0.1306	-0.344
Mof_O 	O 	0.4019	0.2947	0.2584	-0.31
Mof_O 	O 	0.6917	0.2719	0.3816	-0.246
Mof_O 	O 	0.5854	0.1931	0.3099	-0.212
Mof_O 	O 	0.0671	0.3623	0.6306	-0.343
Mof_O 	O 	0.9469	0.3397	0.7584	-0.309
Mof_O 	O 	0.8465	0.9267	0.8816	-0.242
Mof_O 	O 	0.997	0.1047	0.8099	-0.213
Mof_O 	O 	0.4929	0.6977	0.8694	-0.344
Mof_O 	O 	0.5981	0.7053	0.7416	-0.31
Mof_O 	O 	0.3083	0.7281	0.6184	-0.246
Mof_O 	O 	0.4146	0.8069	0.6901	-0.212
_end
