data_functionalizedCrystal
_audit_creation_method	'EQeq! by Chris Wilmer'
_symmetry_space_group_name_H-M	'P1'
_symmetry_Int_Tables_number	1
_symmetry_cell_setting	triclinic
loop_
_symmetry_equiv_pos_as_xyz
  x,y,z
_cell_length_a	27.819
_cell_length_b	27.819
_cell_length_c	12.613
_cell_angle_alpha	90
_cell_angle_beta	90
_cell_angle_gamma	120
loop_
_atom_site_label
_atom_site_type_symbol
_atom_site_fract_x
_atom_site_fract_y
_atom_site_fract_z
_atom_site_charge
Mof_O 	O 	0.59414	0.08791	0.0813	-0.573
Mof_O 	O 	0.6208	0.0928	0.9153	-0.342
Mof_O 	O 	0.59597	0.08815	0.3046	-0.559
Mof_O 	O 	0.60871	0.07291	0.4701	-0.432
Mof_O 	O 	0.6256	0.01289	0.1218	-1.011
Mof_H 	H 	0.6222	0.0406	0.107	0.376
Mof_H 	H 	0.5958	0.9828	0.112	0.404
Mof_C 	C 	0.59656	0.1035	0.9853	0.383
Mof_H 	H 	0.5599	0.1762	0.827	0.164
Mof_H 	H 	0.6342	0.2121	0.014	0.137
Mof_C 	C 	0.59104	0.09295	0.4035	0.313
Mof_H 	H 	0.6052	0.1541	0.581	0.135
Mof_H 	H 	0.5736	0.2036	0.4071	0.121
Mof_O 	O 	0.26081	0.42124	0.41463	-0.508
Mof_O 	O 	0.28747	0.42613	0.24863	-0.345
Mof_O 	O 	0.26264	0.42148	0.63793	-0.552
Mof_O 	O 	0.27538	0.40624	0.80343	-0.406
Mof_O 	O 	0.29227	0.34622	0.45513	-0.955
Mof_H 	H 	0.28887	0.37393	0.44033	0.366
Mof_H 	H 	0.26247	0.31613	0.44533	0.361
Mof_C 	C 	0.26323	0.43683	0.31863	0.313
Mof_H 	H 	0.22657	0.50953	0.16033	0.116
Mof_H 	H 	0.30087	0.54543	0.34733	0.115
Mof_C 	C 	0.25771	0.42628	0.73683	0.294
Mof_H 	H 	0.27187	0.48743	0.91433	0.189
Mof_H 	H 	0.24027	0.53693	0.74043	0.142
Mof_O 	O 	0.92747	0.75458	0.74797	-0.492
Mof_O 	O 	0.95413	0.75947	0.58197	-0.324
Mof_O 	O 	0.9293	0.75482	0.97127	-0.439
Mof_O 	O 	0.94204	0.73958	0.13677	-0.362
Mof_O 	O 	0.95893	0.67956	0.78847	-0.9
Mof_H 	H 	0.95553	0.70727	0.77367	0.365
Mof_H 	H 	0.92913	0.64947	0.77867	0.356
Mof_C 	C 	0.92989	0.77017	0.65197	0.293
Mof_H 	H 	0.89323	0.84287	0.49367	0.162
Mof_H 	H 	0.96753	0.87877	0.68067	0.162
Mof_C 	C 	0.92437	0.75962	0.07017	0.151
Mof_H 	H 	0.93853	0.82077	0.24767	0.225
Mof_H 	H 	0.90693	0.87027	0.07377	0.27
Mof_O 	O 	0.91209	0.50623	0.0813	-0.558
Mof_O 	O 	0.9072	0.528	0.9153	-0.335
Mof_O 	O 	0.91185	0.50782	0.3046	-0.555
Mof_O 	O 	0.92709	0.5358	0.4701	-0.42
Mof_O 	O 	0.98711	0.61271	0.1218	-0.866
Mof_H 	H 	0.9594	0.5816	0.107	0.334
Mof_H 	H 	0.0172	0.613	0.112	0.299
Mof_C 	C 	0.8965	0.49306	0.9853	0.38
Mof_H 	H 	0.8238	0.3837	0.827	0.169
Mof_H 	H 	0.7879	0.4221	0.014	0.138
Mof_C 	C 	0.90705	0.49809	0.4035	0.31
Mof_H 	H 	0.8459	0.4511	0.581	0.144
Mof_H 	H 	0.7964	0.37	0.4071	0.124
Mof_O 	O 	0.57876	0.83956	0.41463	-0.507
Mof_O 	O 	0.57387	0.86133	0.24863	-0.34
Mof_O 	O 	0.57852	0.84115	0.63793	-0.555
Mof_O 	O 	0.59376	0.86913	0.80343	-0.407
Mof_O 	O 	0.65378	0.94604	0.45513	-0.941
Mof_H 	H 	0.62607	0.91493	0.44033	0.363
Mof_H 	H 	0.68387	0.94633	0.44533	0.362
Mof_C 	C 	0.56317	0.82639	0.31863	0.312
Mof_H 	H 	0.49047	0.71703	0.16033	0.117
Mof_H 	H 	0.45457	0.75543	0.34733	0.115
Mof_C 	C 	0.57372	0.83142	0.73683	0.294
Mof_H 	H 	0.51257	0.78443	0.91433	0.187
Mof_H 	H 	0.46307	0.70333	0.74043	0.141
Mof_O 	O 	0.24542	0.1729	0.74797	-0.503
Mof_O 	O 	0.24053	0.19467	0.58197	-0.34
Mof_O 	O 	0.24518	0.17449	0.97127	-0.45
Mof_O 	O 	0.26042	0.20247	0.13677	-0.381
Mof_O 	O 	0.32044	0.27938	0.78847	-0.929
Mof_H 	H 	0.29273	0.24827	0.77367	0.366
Mof_H 	H 	0.35053	0.27967	0.77867	0.36
Mof_C 	C 	0.22983	0.15973	0.65197	0.312
Mof_H 	H 	0.15713	0.05037	0.49367	0.123
Mof_H 	H 	0.12123	0.08877	0.68067	0.113
Mof_C 	C 	0.24038	0.16476	0.07017	0.157
Mof_H 	H 	0.17923	0.11777	0.24767	0.199
Mof_H 	H 	0.12973	0.03667	0.07377	0.235
Mof_O 	O 	0.49377	0.40586	0.0813	-0.567
Mof_O 	O 	0.472	0.3792	0.9153	-0.34
Mof_O 	O 	0.49218	0.40403	0.3046	-0.556
Mof_O 	O 	0.4642	0.39129	0.4701	-0.425
Mof_O 	O 	0.38729	0.3744	0.1218	-0.943
Mof_H 	H 	0.4184	0.3778	0.107	0.355
Mof_H 	H 	0.387	0.4042	0.112	0.349
Mof_C 	C 	0.50694	0.40344	0.9853	0.383
Mof_H 	H 	0.6163	0.4401	0.827	0.167
Mof_H 	H 	0.5779	0.3658	0.014	0.138
Mof_C 	C 	0.50191	0.40896	0.4035	0.311
Mof_H 	H 	0.5489	0.3948	0.581	0.14
Mof_H 	H 	0.63	0.4264	0.4071	0.123
Mof_O 	O 	0.16044	0.73919	0.41463	-0.509
Mof_O 	O 	0.13867	0.71253	0.24863	-0.347
Mof_O 	O 	0.15885	0.73736	0.63793	-0.549
Mof_O 	O 	0.13087	0.72462	0.80343	-0.402
Mof_O 	O 	0.05396	0.70773	0.45513	-0.969
Mof_H 	H 	0.08507	0.71113	0.44033	0.369
Mof_H 	H 	0.05367	0.73753	0.44533	0.359
Mof_C 	C 	0.17361	0.73677	0.31863	0.313
Mof_H 	H 	0.28297	0.77343	0.16033	0.117
Mof_H 	H 	0.24457	0.69913	0.34733	0.116
Mof_C 	C 	0.16858	0.74229	0.73683	0.293
Mof_H 	H 	0.21557	0.72813	0.91433	0.189
Mof_H 	H 	0.29667	0.75973	0.74043	0.141
Mof_O 	O 	0.8271	0.07253	0.74797	-0.507
Mof_O 	O 	0.80533	0.04587	0.58197	-0.352
Mof_O 	O 	0.82551	0.0707	0.97127	-0.453
Mof_O 	O 	0.79753	0.05796	0.13677	-0.384
Mof_O 	O 	0.72062	0.04107	0.78847	-0.944
Mof_H 	H 	0.75173	0.04447	0.77367	0.366
Mof_H 	H 	0.72033	0.07087	0.77867	0.362
Mof_C 	C 	0.84027	0.07011	0.65197	0.302
Mof_H 	H 	0.94963	0.10677	0.49367	0.154
Mof_H 	H 	0.91123	0.03247	0.68067	0.124
Mof_C 	C 	0.83524	0.07563	0.07017	0.153
Mof_H 	H 	0.88223	0.06147	0.24767	0.201
Mof_H 	H 	0.96333	0.09307	0.07377	0.264
Mof_O 	O 	0.08791	0.59414	0.9187	-0.445
Mof_O 	O 	0.0928	0.6208	0.0847	-0.333
Mof_O 	O 	0.08815	0.59597	0.6954	-0.559
Mof_O 	O 	0.07291	0.60871	0.5299	-0.432
Mof_O 	O 	0.01289	0.6256	0.8782	-0.985
Mof_H 	H 	0.0406	0.6222	0.893	0.39
Mof_H 	H 	0.9828	0.5958	0.888	0.414
Mof_C 	C 	0.1035	0.59656	0.0147	0.22
Mof_H 	H 	0.1762	0.5599	0.173	0.126
Mof_H 	H 	0.2121	0.6342	0.986	0.114
Mof_C 	C 	0.09295	0.59104	0.5965	0.312
Mof_H 	H 	0.1541	0.6052	0.419	0.137
Mof_H 	H 	0.2036	0.5736	0.5929	0.123
Mof_O 	O 	0.75458	0.92747	0.25203	-0.494
Mof_O 	O 	0.75947	0.95413	0.41803	-0.324
Mof_O 	O 	0.75482	0.9293	0.02873	-0.613
Mof_O 	O 	0.73958	0.94204	0.86323	-0.415
Mof_O 	O 	0.67956	0.95893	0.21153	-0.911
Mof_H 	H 	0.70727	0.95553	0.22633	0.363
Mof_H 	H 	0.64947	0.92913	0.22133	0.352
Mof_C 	C 	0.77017	0.92989	0.34803	0.293
Mof_H 	H 	0.84287	0.89323	0.50633	0.165
Mof_H 	H 	0.87877	0.96753	0.31933	0.15
Mof_C 	C 	0.75962	0.92437	0.92983	0.449
Mof_H 	H 	0.82077	0.93853	0.75233	0.099
Mof_H 	H 	0.87027	0.90693	0.92623	0.017
Mof_O 	O 	0.42124	0.26081	0.58537	-0.503
Mof_O 	O 	0.42613	0.28747	0.75137	-0.328
Mof_O 	O 	0.42148	0.26264	0.36207	-0.56
Mof_O 	O 	0.40624	0.27538	0.19657	-0.432
Mof_O 	O 	0.34622	0.29227	0.54487	-0.955
Mof_H 	H 	0.37393	0.28887	0.55967	0.366
Mof_H 	H 	0.31613	0.26247	0.55467	0.361
Mof_C 	C 	0.43683	0.26323	0.68137	0.291
Mof_H 	H 	0.50953	0.22657	0.83967	0.183
Mof_H 	H 	0.54543	0.30087	0.65267	0.139
Mof_C 	C 	0.42628	0.25771	0.26317	0.321
Mof_H 	H 	0.48743	0.27187	0.08567	0.103
Mof_H 	H 	0.53693	0.24027	0.25957	0.112
Mof_O 	O 	0.50623	0.91209	0.9187	-0.436
Mof_O 	O 	0.528	0.9072	0.0847	-0.327
Mof_O 	O 	0.50782	0.91185	0.6954	-0.556
Mof_O 	O 	0.5358	0.92709	0.5299	-0.419
Mof_O 	O 	0.61271	0.98711	0.8782	-0.849
Mof_H 	H 	0.5816	0.9594	0.893	0.35
Mof_H 	H 	0.613	0.0172	0.888	0.316
Mof_C 	C 	0.49306	0.8965	0.0147	0.224
Mof_H 	H 	0.3837	0.8238	0.173	0.131
Mof_H 	H 	0.4221	0.7879	0.986	0.116
Mof_C 	C 	0.49809	0.90705	0.5965	0.31
Mof_H 	H 	0.4511	0.8459	0.419	0.147
Mof_H 	H 	0.37	0.7964	0.5929	0.126
Mof_O 	O 	0.1729	0.24542	0.25203	-0.506
Mof_O 	O 	0.19467	0.24053	0.41803	-0.341
Mof_O 	O 	0.17449	0.24518	0.02873	-0.637
Mof_O 	O 	0.20247	0.26042	0.86323	-0.439
Mof_O 	O 	0.27938	0.32044	0.21153	-0.945
Mof_H 	H 	0.24827	0.29273	0.22633	0.365
Mof_H 	H 	0.27967	0.35053	0.22133	0.357
Mof_C 	C 	0.15973	0.22983	0.34803	0.311
Mof_H 	H 	0.05037	0.15713	0.50633	0.127
Mof_H 	H 	0.08877	0.12123	0.31933	0.098
Mof_C 	C 	0.16476	0.24038	0.92983	0.474
Mof_H 	H 	0.11777	0.17923	0.75233	0.064
Mof_H 	H 	0.03667	0.12973	0.92623	-0.033
Mof_O 	O 	0.83956	0.57876	0.58537	-0.502
Mof_O 	O 	0.86133	0.57387	0.75137	-0.324
Mof_O 	O 	0.84115	0.57852	0.36207	-0.562
Mof_O 	O 	0.86913	0.59376	0.19657	-0.432
Mof_O 	O 	0.94604	0.65378	0.54487	-0.943
Mof_H 	H 	0.91493	0.62607	0.55967	0.363
Mof_H 	H 	0.94633	0.68387	0.55467	0.362
Mof_C 	C 	0.82639	0.56317	0.68137	0.291
Mof_H 	H 	0.71703	0.49047	0.83967	0.182
Mof_H 	H 	0.75543	0.45457	0.65267	0.138
Mof_C 	C 	0.83142	0.57372	0.26317	0.321
Mof_H 	H 	0.78443	0.51257	0.08567	0.104
Mof_H 	H 	0.70333	0.46307	0.25957	0.111
Mof_O 	O 	0.40586	0.49377	0.9187	-0.441
Mof_O 	O 	0.3792	0.472	0.0847	-0.332
Mof_O 	O 	0.40403	0.49218	0.6954	-0.558
Mof_O 	O 	0.39129	0.4642	0.5299	-0.426
Mof_O 	O 	0.3744	0.38729	0.8782	-0.93
Mof_H 	H 	0.3778	0.4184	0.893	0.373
Mof_H 	H 	0.4042	0.387	0.888	0.37
Mof_C 	C 	0.40344	0.50694	0.0147	0.222
Mof_H 	H 	0.4401	0.6163	0.173	0.128
Mof_H 	H 	0.3658	0.5779	0.986	0.115
Mof_C 	C 	0.40896	0.50191	0.5965	0.311
Mof_H 	H 	0.3948	0.5489	0.419	0.142
Mof_H 	H 	0.4264	0.63	0.5929	0.124
Mof_O 	O 	0.07253	0.8271	0.25203	-0.509
Mof_O 	O 	0.04587	0.80533	0.41803	-0.351
Mof_O 	O 	0.0707	0.82551	0.02873	-0.634
Mof_O 	O 	0.05796	0.79753	0.86323	-0.438
Mof_O 	O 	0.04107	0.72062	0.21153	-0.959
Mof_H 	H 	0.04447	0.75173	0.22633	0.365
Mof_H 	H 	0.07087	0.72033	0.22133	0.359
Mof_C 	C 	0.07011	0.84027	0.34803	0.3
Mof_H 	H 	0.10677	0.94963	0.50633	0.159
Mof_H 	H 	0.03247	0.91123	0.31933	0.114
Mof_C 	C 	0.07563	0.83524	0.92983	0.46
Mof_H 	H 	0.06147	0.88223	0.75233	0.073
Mof_H 	H 	0.09307	0.96333	0.92623	0.007
Mof_O 	O 	0.73919	0.16044	0.58537	-0.504
Mof_O 	O 	0.71253	0.13867	0.75137	-0.33
Mof_O 	O 	0.73736	0.15885	0.36207	-0.557
Mof_O 	O 	0.72462	0.13087	0.19657	-0.427
Mof_O 	O 	0.70773	0.05396	0.54487	-0.97
Mof_H 	H 	0.71113	0.08507	0.55967	0.369
Mof_H 	H 	0.73753	0.05367	0.55467	0.359
Mof_C 	C 	0.73677	0.17361	0.68137	0.292
Mof_H 	H 	0.77343	0.28297	0.83967	0.183
Mof_H 	H 	0.69913	0.24457	0.65267	0.139
Mof_C 	C 	0.74229	0.16858	0.26317	0.32
Mof_H 	H 	0.72813	0.21557	0.08567	0.105
Mof_H 	H 	0.75973	0.29667	0.25957	0.111
Mof_O 	O 	0.40586	0.91209	0.9187	-0.435
Mof_O 	O 	0.3792	0.9072	0.0847	-0.327
Mof_O 	O 	0.40403	0.91185	0.6954	-0.556
Mof_O 	O 	0.39129	0.92709	0.5299	-0.419
Mof_O 	O 	0.3744	0.98711	0.8782	-0.848
Mof_H 	H 	0.3778	0.9594	0.893	0.35
Mof_H 	H 	0.4042	0.0172	0.888	0.316
Mof_C 	C 	0.40344	0.8965	0.0147	0.223
Mof_H 	H 	0.4401	0.8238	0.173	0.131
Mof_H 	H 	0.3658	0.7879	0.986	0.116
Mof_C 	C 	0.40896	0.90705	0.5965	0.31
Mof_H 	H 	0.3948	0.8459	0.419	0.147
Mof_H 	H 	0.4264	0.7964	0.5929	0.126
Mof_O 	O 	0.07253	0.24542	0.25203	-0.511
Mof_O 	O 	0.04587	0.24053	0.41803	-0.353
Mof_O 	O 	0.0707	0.24518	0.02873	-0.638
Mof_O 	O 	0.05796	0.26042	0.86323	-0.441
Mof_O 	O 	0.04107	0.32044	0.21153	-0.959
Mof_H 	H 	0.04447	0.29273	0.22633	0.365
Mof_H 	H 	0.07087	0.35053	0.22133	0.359
Mof_C 	C 	0.07011	0.22983	0.34803	0.31
Mof_H 	H 	0.10677	0.15713	0.50633	0.134
Mof_H 	H 	0.03247	0.12123	0.31933	0.091
Mof_C 	C 	0.07563	0.24038	0.92983	0.472
Mof_H 	H 	0.06147	0.17923	0.75233	0.058
Mof_H 	H 	0.09307	0.12973	0.92623	-0.026
Mof_O 	O 	0.73919	0.57876	0.58537	-0.503
Mof_O 	O 	0.71253	0.57387	0.75137	-0.328
Mof_O 	O 	0.73736	0.57852	0.36207	-0.56
Mof_O 	O 	0.72462	0.59376	0.19657	-0.432
Mof_O 	O 	0.70773	0.65378	0.54487	-0.955
Mof_H 	H 	0.71113	0.62607	0.55967	0.366
Mof_H 	H 	0.73753	0.68387	0.55467	0.36
Mof_C 	C 	0.73677	0.56317	0.68137	0.292
Mof_H 	H 	0.77343	0.49047	0.83967	0.182
Mof_H 	H 	0.69913	0.45457	0.65267	0.138
Mof_C 	C 	0.74229	0.57372	0.26317	0.321
Mof_H 	H 	0.72813	0.51257	0.08567	0.104
Mof_H 	H 	0.75973	0.46307	0.25957	0.111
Mof_O 	O 	0.08791	0.49377	0.9187	-0.444
Mof_O 	O 	0.0928	0.472	0.0847	-0.333
Mof_O 	O 	0.08815	0.49218	0.6954	-0.559
Mof_O 	O 	0.07291	0.4642	0.5299	-0.432
Mof_O 	O 	0.01289	0.38729	0.8782	-0.985
Mof_H 	H 	0.0406	0.4184	0.893	0.39
Mof_H 	H 	0.9828	0.387	0.888	0.414
Mof_C 	C 	0.1035	0.50694	0.0147	0.22
Mof_H 	H 	0.1762	0.6163	0.173	0.126
Mof_H 	H 	0.2121	0.5779	0.986	0.114
Mof_C 	C 	0.09295	0.50191	0.5965	0.312
Mof_H 	H 	0.1541	0.5489	0.419	0.137
Mof_H 	H 	0.2036	0.63	0.5929	0.123
Mof_O 	O 	0.75458	0.8271	0.25203	-0.503
Mof_O 	O 	0.75947	0.80533	0.41803	-0.337
Mof_O 	O 	0.75482	0.82551	0.02873	-0.629
Mof_O 	O 	0.73958	0.79753	0.86323	-0.434
Mof_O 	O 	0.67956	0.72062	0.21153	-0.945
Mof_H 	H 	0.70727	0.75173	0.22633	0.364
Mof_H 	H 	0.64947	0.72033	0.22133	0.357
Mof_C 	C 	0.77017	0.84027	0.34803	0.293
Mof_H 	H 	0.84287	0.94963	0.50633	0.173
Mof_H 	H 	0.87877	0.91123	0.31933	0.14
Mof_C 	C 	0.75962	0.83524	0.92983	0.45
Mof_H 	H 	0.82077	0.88223	0.75233	0.091
Mof_H 	H 	0.87027	0.96333	0.92623	0.026
Mof_O 	O 	0.42124	0.16044	0.58537	-0.503
Mof_O 	O 	0.42613	0.13867	0.75137	-0.33
Mof_O 	O 	0.42148	0.15885	0.36207	-0.557
Mof_O 	O 	0.40624	0.13087	0.19657	-0.427
Mof_O 	O 	0.34622	0.05396	0.54487	-0.97
Mof_H 	H 	0.37393	0.08507	0.55967	0.369
Mof_H 	H 	0.31613	0.05367	0.55467	0.359
Mof_C 	C 	0.43683	0.17361	0.68137	0.292
Mof_H 	H 	0.50953	0.28297	0.83967	0.183
Mof_H 	H 	0.54543	0.24457	0.65267	0.139
Mof_C 	C 	0.42628	0.16858	0.26317	0.32
Mof_H 	H 	0.48743	0.21557	0.08567	0.104
Mof_H 	H 	0.53693	0.29667	0.25957	0.111
Mof_O 	O 	0.50623	0.59414	0.9187	-0.442
Mof_O 	O 	0.528	0.6208	0.0847	-0.332
Mof_O 	O 	0.50782	0.59597	0.6954	-0.558
Mof_O 	O 	0.5358	0.60871	0.5299	-0.426
Mof_O 	O 	0.61271	0.6256	0.8782	-0.931
Mof_H 	H 	0.5816	0.6222	0.893	0.373
Mof_H 	H 	0.613	0.5958	0.888	0.369
Mof_C 	C 	0.49306	0.59656	0.0147	0.223
Mof_H 	H 	0.3837	0.5599	0.173	0.128
Mof_H 	H 	0.4221	0.6342	0.986	0.114
Mof_C 	C 	0.49809	0.59104	0.5965	0.311
Mof_H 	H 	0.4511	0.6052	0.419	0.142
Mof_H 	H 	0.37	0.5736	0.5929	0.124
Mof_O 	O 	0.1729	0.92747	0.25203	-0.495
Mof_O 	O 	0.19467	0.95413	0.41803	-0.325
Mof_O 	O 	0.17449	0.9293	0.02873	-0.617
Mof_O 	O 	0.20247	0.94204	0.86323	-0.417
Mof_O 	O 	0.27938	0.95893	0.21153	-0.91
Mof_H 	H 	0.24827	0.95553	0.22633	0.364
Mof_H 	H 	0.27967	0.92913	0.22133	0.352
Mof_C 	C 	0.15973	0.92989	0.34803	0.301
Mof_H 	H 	0.05037	0.89323	0.50633	0.144
Mof_H 	H 	0.08877	0.96753	0.31933	0.131
Mof_C 	C 	0.16476	0.92437	0.92983	0.46
Mof_H 	H 	0.11777	0.93853	0.75233	0.086
Mof_H 	H 	0.03667	0.90693	0.92623	-0.01
Mof_O 	O 	0.83956	0.26081	0.58537	-0.502
Mof_O 	O 	0.86133	0.28747	0.75137	-0.324
Mof_O 	O 	0.84115	0.26264	0.36207	-0.562
Mof_O 	O 	0.86913	0.27538	0.19657	-0.432
Mof_O 	O 	0.94604	0.29227	0.54487	-0.943
Mof_H 	H 	0.91493	0.28887	0.55967	0.364
Mof_H 	H 	0.94633	0.26247	0.55467	0.362
Mof_C 	C 	0.82639	0.26323	0.68137	0.291
Mof_H 	H 	0.71703	0.22657	0.83967	0.183
Mof_H 	H 	0.75543	0.30087	0.65267	0.139
Mof_C 	C 	0.83142	0.25771	0.26317	0.32
Mof_H 	H 	0.78443	0.27187	0.08567	0.105
Mof_H 	H 	0.70333	0.24027	0.25957	0.112
Mof_O 	O 	0.91209	0.40586	0.0813	-0.558
Mof_O 	O 	0.9072	0.3792	0.9153	-0.335
Mof_O 	O 	0.91185	0.40403	0.3046	-0.555
Mof_O 	O 	0.92709	0.39129	0.4701	-0.42
Mof_O 	O 	0.98711	0.3744	0.1218	-0.865
Mof_H 	H 	0.9594	0.3778	0.107	0.334
Mof_H 	H 	0.0172	0.4042	0.112	0.298
Mof_C 	C 	0.8965	0.40344	0.9853	0.38
Mof_H 	H 	0.8238	0.4401	0.827	0.169
Mof_H 	H 	0.7879	0.3658	0.014	0.138
Mof_C 	C 	0.90705	0.40896	0.4035	0.31
Mof_H 	H 	0.8459	0.3948	0.581	0.144
Mof_H 	H 	0.7964	0.4264	0.4071	0.124
Mof_O 	O 	0.57876	0.73919	0.41463	-0.508
Mof_O 	O 	0.57387	0.71253	0.24863	-0.345
Mof_O 	O 	0.57852	0.73736	0.63793	-0.552
Mof_O 	O 	0.59376	0.72462	0.80343	-0.407
Mof_O 	O 	0.65378	0.70773	0.45513	-0.955
Mof_H 	H 	0.62607	0.71113	0.44033	0.366
Mof_H 	H 	0.68387	0.73753	0.44533	0.361
Mof_C 	C 	0.56317	0.73677	0.31863	0.312
Mof_H 	H 	0.49047	0.77343	0.16033	0.117
Mof_H 	H 	0.45457	0.69913	0.34733	0.115
Mof_C 	C 	0.57372	0.74229	0.73683	0.295
Mof_H 	H 	0.51257	0.72813	0.91433	0.187
Mof_H 	H 	0.46307	0.75973	0.74043	0.14
Mof_O 	O 	0.24542	0.07253	0.74797	-0.509
Mof_O 	O 	0.24053	0.04587	0.58197	-0.353
Mof_O 	O 	0.24518	0.0707	0.97127	-0.451
Mof_O 	O 	0.26042	0.05796	0.13677	-0.384
Mof_O 	O 	0.32044	0.04107	0.78847	-0.944
Mof_H 	H 	0.29273	0.04447	0.77367	0.366
Mof_H 	H 	0.35053	0.07087	0.77867	0.362
Mof_C 	C 	0.22983	0.07011	0.65197	0.311
Mof_H 	H 	0.15713	0.10677	0.49367	0.131
Mof_H 	H 	0.12123	0.03247	0.68067	0.105
Mof_C 	C 	0.24038	0.07563	0.07017	0.154
Mof_H 	H 	0.17923	0.06147	0.24767	0.192
Mof_H 	H 	0.12973	0.09307	0.07377	0.244
Mof_O 	O 	0.49377	0.08791	0.0813	-0.573
Mof_O 	O 	0.472	0.0928	0.9153	-0.341
Mof_O 	O 	0.49218	0.08815	0.3046	-0.558
Mof_O 	O 	0.4642	0.07291	0.4701	-0.432
Mof_O 	O 	0.38729	0.01289	0.1218	-1.011
Mof_H 	H 	0.4184	0.0406	0.107	0.376
Mof_H 	H 	0.387	0.9828	0.112	0.404
Mof_C 	C 	0.50694	0.1035	0.9853	0.383
Mof_H 	H 	0.6163	0.1762	0.827	0.164
Mof_H 	H 	0.5779	0.2121	0.014	0.137
Mof_C 	C 	0.50191	0.09295	0.4035	0.313
Mof_H 	H 	0.5489	0.1541	0.581	0.135
Mof_H 	H 	0.63	0.2036	0.4071	0.121
Mof_O 	O 	0.16044	0.42124	0.41463	-0.509
Mof_O 	O 	0.13867	0.42613	0.24863	-0.347
Mof_O 	O 	0.15885	0.42148	0.63793	-0.549
Mof_O 	O 	0.13087	0.40624	0.80343	-0.402
Mof_O 	O 	0.05396	0.34622	0.45513	-0.969
Mof_H 	H 	0.08507	0.37393	0.44033	0.369
Mof_H 	H 	0.05367	0.31613	0.44533	0.36
Mof_C 	C 	0.17361	0.43683	0.31863	0.313
Mof_H 	H 	0.28297	0.50953	0.16033	0.116
Mof_H 	H 	0.24457	0.54543	0.34733	0.115
Mof_C 	C 	0.16858	0.42628	0.73683	0.293
Mof_H 	H 	0.21557	0.48743	0.91433	0.189
Mof_H 	H 	0.29667	0.53693	0.74043	0.141
Mof_O 	O 	0.8271	0.75458	0.74797	-0.5
Mof_O 	O 	0.80533	0.75947	0.58197	-0.337
Mof_O 	O 	0.82551	0.75482	0.97127	-0.452
Mof_O 	O 	0.79753	0.73958	0.13677	-0.38
Mof_O 	O 	0.72062	0.67956	0.78847	-0.929
Mof_H 	H 	0.75173	0.70727	0.77367	0.366
Mof_H 	H 	0.72033	0.64947	0.77867	0.36
Mof_C 	C 	0.84027	0.77017	0.65197	0.293
Mof_H 	H 	0.94963	0.84287	0.49367	0.169
Mof_H 	H 	0.91123	0.87877	0.68067	0.154
Mof_C 	C 	0.83524	0.75962	0.07017	0.15
Mof_H 	H 	0.88223	0.82077	0.24767	0.219
Mof_H 	H 	0.96333	0.87027	0.07377	0.279
Mof_O 	O 	0.59414	0.50623	0.0813	-0.567
Mof_O 	O 	0.6208	0.528	0.9153	-0.34
Mof_O 	O 	0.59597	0.50782	0.3046	-0.556
Mof_O 	O 	0.60871	0.5358	0.4701	-0.425
Mof_O 	O 	0.6256	0.61271	0.1218	-0.944
Mof_H 	H 	0.6222	0.5816	0.107	0.355
Mof_H 	H 	0.5958	0.613	0.112	0.349
Mof_C 	C 	0.59656	0.49306	0.9853	0.383
Mof_H 	H 	0.5599	0.3837	0.827	0.167
Mof_H 	H 	0.6342	0.4221	0.014	0.138
Mof_C 	C 	0.59104	0.49809	0.4035	0.311
Mof_H 	H 	0.6052	0.4511	0.581	0.14
Mof_H 	H 	0.5736	0.37	0.4071	0.123
Mof_O 	O 	0.26081	0.83956	0.41463	-0.507
Mof_O 	O 	0.28747	0.86133	0.24863	-0.34
Mof_O 	O 	0.26264	0.84115	0.63793	-0.554
Mof_O 	O 	0.27538	0.86913	0.80343	-0.407
Mof_O 	O 	0.29227	0.94604	0.45513	-0.941
Mof_H 	H 	0.28887	0.91493	0.44033	0.363
Mof_H 	H 	0.26247	0.94633	0.44533	0.363
Mof_C 	C 	0.26323	0.82639	0.31863	0.312
Mof_H 	H 	0.22657	0.71703	0.16033	0.117
Mof_H 	H 	0.30087	0.75543	0.34733	0.116
Mof_C 	C 	0.25771	0.83142	0.73683	0.294
Mof_H 	H 	0.27187	0.78443	0.91433	0.189
Mof_H 	H 	0.24027	0.70333	0.74043	0.142
Mof_O 	O 	0.92747	0.1729	0.74797	-0.494
Mof_O 	O 	0.95413	0.19467	0.58197	-0.326
Mof_O 	O 	0.9293	0.17449	0.97127	-0.438
Mof_O 	O 	0.94204	0.20247	0.13677	-0.363
Mof_O 	O 	0.95893	0.27938	0.78847	-0.9
Mof_H 	H 	0.95553	0.24827	0.77367	0.365
Mof_H 	H 	0.92913	0.27967	0.77867	0.356
Mof_C 	C 	0.92989	0.15973	0.65197	0.303
Mof_H 	H 	0.89323	0.05037	0.49367	0.138
Mof_H 	H 	0.96753	0.08877	0.68067	0.141
Mof_C 	C 	0.92437	0.16476	0.07017	0.156
Mof_H 	H 	0.93853	0.11777	0.24767	0.215
Mof_H 	H 	0.90693	0.03667	0.07377	0.246
Mof_Ba	Ba	0.66667	0.03962	0.33333	1.728
Mof_Ba	Ba	0.96038	0.62704	0.33333	1.835
Mof_Ba	Ba	0.37296	0.33333	0.33333	1.783
Mof_Ba	Ba	0.03962	0.66667	0.66667	1.751
Mof_Ba	Ba	0.70629	0	-0	1.531
Mof_Ba	Ba	0.62704	0.96038	0.66667	1.855
Mof_Ba	Ba	0.29371	0.29371	-0	1.615
Mof_Ba	Ba	0.33333	0.37296	0.66667	1.799
Mof_Ba	Ba	5.37945e-17	0.70629	-0	1.537
Mof_Ba	Ba	0.33333	0.96038	0.66667	1.857
Mof_Ba	Ba	2.68973e-17	0.29371	-0	1.537
Mof_Ba	Ba	0.03962	0.37296	0.66667	1.752
Mof_Ba	Ba	0.70629	0.70629	-0	1.619
Mof_Ba	Ba	0.62704	0.66667	0.66667	1.797
Mof_Ba	Ba	0.29371	0	-0	1.528
Mof_Ba	Ba	0.96038	0.33333	0.33333	1.837
Mof_Ba	Ba	0.37296	0.03962	0.33333	1.728
Mof_Ba	Ba	0.66667	0.62704	0.33333	1.782
Mof_Zn	Zn	0.53775	0.0755	0.19346	1.188
Mof_C 	C 	0.56905	0.1381	0.9586	0.032
Mof_C 	C 	0.57735	0.1547	0.8421	-0.461
Mof_H 	H 	0.56095	0.1219	0.7988	0.144
Mof_C 	C 	0.5952	0.1904	0.0288	-0.511
Mof_H 	H 	0.58985	0.1797	0.1021	0.128
Mof_C 	C 	0.56305	0.1261	0.4408	-0.023
Mof_C 	C 	0.5669	0.1338	0.5602	-0.394
Mof_H 	H 	0.54905	0.0981	0.5942	0.121
Mof_C 	C 	0.59165	0.1833	0.3863	-0.379
Mof_H 	H 	0.5892	0.1784	0.3107	0.101
Mof_Zn	Zn	0.20442	0.40883	0.52679	1.192
Mof_C 	C 	0.23572	0.47143	0.29193	-0.041
Mof_C 	C 	0.24402	0.48803	0.17543	-0.361
Mof_H 	H 	0.22762	0.45523	0.13213	0.104
Mof_C 	C 	0.26187	0.52373	0.36213	-0.363
Mof_H 	H 	0.25652	0.51303	0.43543	0.091
Mof_C 	C 	0.22972	0.45943	0.77413	0.033
Mof_C 	C 	0.23357	0.46713	0.89353	-0.515
Mof_H 	H 	0.21572	0.43143	0.92753	0.186
Mof_C 	C 	0.25832	0.51663	0.71963	-0.441
Mof_H 	H 	0.25587	0.51173	0.64403	0.12
Mof_Zn	Zn	0.87108	0.74217	0.86013	1.192
Mof_C 	C 	0.90238	0.80477	0.62527	0.017
Mof_C 	C 	0.91068	0.82137	0.50877	-0.469
Mof_H 	H 	0.89428	0.78857	0.46547	0.151
Mof_C 	C 	0.92853	0.85707	0.69547	-0.454
Mof_H 	H 	0.92318	0.84637	0.76877	0.125
Mof_C 	C 	0.89638	0.79277	0.10747	0.217
Mof_C 	C 	0.90023	0.80047	0.22687	-0.667
Mof_H 	H 	0.88238	0.76477	0.26087	0.208
Mof_C 	C 	0.92498	0.84997	0.05297	-0.902
Mof_H 	H 	0.92253	0.84507	0.97737	0.311
Mof_Zn	Zn	0.9245	0.46225	0.19346	1.194
Mof_C 	C 	0.8619	0.43095	0.9586	0.039
Mof_C 	C 	0.8453	0.42265	0.8421	-0.475
Mof_H 	H 	0.8781	0.43905	0.7988	0.155
Mof_C 	C 	0.8096	0.4048	0.0288	-0.515
Mof_H 	H 	0.8203	0.41015	0.1021	0.129
Mof_C 	C 	0.8739	0.43695	0.4408	-0.009
Mof_C 	C 	0.8662	0.4331	0.5602	-0.42
Mof_H 	H 	0.9019	0.45095	0.5942	0.139
Mof_C 	C 	0.8167	0.40835	0.3863	-0.393
Mof_H 	H 	0.8216	0.4108	0.3107	0.104
Mof_Zn	Zn	0.59117	0.79558	0.52679	1.191
Mof_C 	C 	0.52857	0.76428	0.29193	-0.04
Mof_C 	C 	0.51197	0.75598	0.17543	-0.363
Mof_H 	H 	0.54477	0.77238	0.13213	0.105
Mof_C 	C 	0.47627	0.73813	0.36213	-0.364
Mof_H 	H 	0.48697	0.74348	0.43543	0.091
Mof_C 	C 	0.54057	0.77028	0.77413	0.031
Mof_C 	C 	0.53287	0.76643	0.89353	-0.511
Mof_H 	H 	0.56857	0.78428	0.92753	0.184
Mof_C 	C 	0.48337	0.74168	0.71963	-0.439
Mof_H 	H 	0.48827	0.74413	0.64403	0.119
Mof_Zn	Zn	0.25783	0.12892	0.86013	1.193
Mof_C 	C 	0.19523	0.09762	0.62527	-0.037
Mof_C 	C 	0.17863	0.08932	0.50877	-0.384
Mof_H 	H 	0.21143	0.10572	0.46547	0.123
Mof_C 	C 	0.14293	0.07147	0.69547	-0.355
Mof_H 	H 	0.15363	0.07682	0.76877	0.087
Mof_C 	C 	0.20723	0.10362	0.10747	0.185
Mof_C 	C 	0.19953	0.09977	0.22687	-0.612
Mof_H 	H 	0.23523	0.11762	0.26087	0.191
Mof_C 	C 	0.15003	0.07502	0.05297	-0.848
Mof_H 	H 	0.15493	0.07747	0.97737	0.29
Mof_Zn	Zn	0.53775	0.46225	0.19346	1.191
Mof_C 	C 	0.56905	0.43095	0.9586	0.035
Mof_C 	C 	0.57735	0.42265	0.8421	-0.468
Mof_H 	H 	0.56095	0.43905	0.7988	0.15
Mof_C 	C 	0.5952	0.4048	0.0288	-0.514
Mof_H 	H 	0.58985	0.41015	0.1021	0.129
Mof_C 	C 	0.56305	0.43695	0.4408	-0.015
Mof_C 	C 	0.5669	0.4331	0.5602	-0.408
Mof_H 	H 	0.54905	0.45095	0.5942	0.131
Mof_C 	C 	0.59165	0.40835	0.3863	-0.386
Mof_H 	H 	0.5892	0.4108	0.3107	0.103
Mof_Zn	Zn	0.20442	0.79558	0.52679	1.192
Mof_C 	C 	0.23572	0.76428	0.29193	-0.04
Mof_C 	C 	0.24402	0.75598	0.17543	-0.363
Mof_H 	H 	0.22762	0.77238	0.13213	0.106
Mof_C 	C 	0.26187	0.73813	0.36213	-0.364
Mof_H 	H 	0.25652	0.74348	0.43543	0.091
Mof_C 	C 	0.22972	0.77028	0.77413	0.034
Mof_C 	C 	0.23357	0.76643	0.89353	-0.516
Mof_H 	H 	0.21572	0.78428	0.92753	0.186
Mof_C 	C 	0.25832	0.74168	0.71963	-0.441
Mof_H 	H 	0.25587	0.74413	0.64403	0.12
Mof_Zn	Zn	0.87108	0.12892	0.86013	1.193
Mof_C 	C 	0.90238	0.09762	0.62527	-0.011
Mof_C 	C 	0.91068	0.08932	0.50877	-0.426
Mof_H 	H 	0.89428	0.10572	0.46547	0.136
Mof_C 	C 	0.92853	0.07147	0.69547	-0.403
Mof_H 	H 	0.92318	0.07682	0.76877	0.106
Mof_C 	C 	0.89638	0.10362	0.10747	0.199
Mof_C 	C 	0.90023	0.09977	0.22687	-0.637
Mof_H 	H 	0.88238	0.11762	0.26087	0.199
Mof_C 	C 	0.92498	0.07502	0.05297	-0.868
Mof_H 	H 	0.92253	0.07747	0.97737	0.298
Mof_Zn	Zn	0.0755	0.53775	0.80654	1.189
Mof_C 	C 	0.1381	0.56905	0.0414	-0.064
Mof_C 	C 	0.1547	0.57735	0.1579	-0.38
Mof_H 	H 	0.1219	0.56095	0.2012	0.124
Mof_C 	C 	0.1904	0.5952	0.9712	-0.27
Mof_H 	H 	0.1797	0.58985	0.8979	0.072
Mof_C 	C 	0.1261	0.56305	0.5592	-0.02
Mof_C 	C 	0.1338	0.5669	0.4398	-0.399
Mof_H 	H 	0.0981	0.54905	0.4058	0.124
Mof_C 	C 	0.1833	0.59165	0.6137	-0.386
Mof_H 	H 	0.1784	0.5892	0.6893	0.105
Mof_Zn	Zn	0.74217	0.87108	0.13987	1.193
Mof_C 	C 	0.80477	0.90238	0.37473	0.014
Mof_C 	C 	0.82137	0.91068	0.49123	-0.473
Mof_H 	H 	0.78857	0.89428	0.53453	0.157
Mof_C 	C 	0.85707	0.92853	0.30453	-0.438
Mof_H 	H 	0.84637	0.92318	0.23123	0.117
Mof_C 	C 	0.79277	0.89638	0.89253	-0.187
Mof_C 	C 	0.80047	0.90023	0.77313	-0.238
Mof_H 	H 	0.76477	0.88238	0.73913	0.082
Mof_C 	C 	0.84997	0.92498	0.94703	0.024
Mof_H 	H 	0.84507	0.92253	0.02263	-0.062
Mof_Zn	Zn	0.40883	0.20442	0.47321	1.191
Mof_C 	C 	0.47143	0.23572	0.70807	0.021
Mof_C 	C 	0.48803	0.24402	0.82457	-0.505
Mof_H 	H 	0.45523	0.22762	0.86787	0.182
Mof_C 	C 	0.52373	0.26187	0.63787	-0.432
Mof_H 	H 	0.51303	0.25652	0.56457	0.113
Mof_C 	C 	0.45943	0.22972	0.22587	-0.046
Mof_C 	C 	0.46713	0.23357	0.10647	-0.333
Mof_H 	H 	0.43143	0.21572	0.07247	0.093
Mof_C 	C 	0.51663	0.25832	0.28037	-0.354
Mof_H 	H 	0.51173	0.25587	0.35597	0.094
Mof_Zn	Zn	0.46225	0.9245	0.80654	1.194
Mof_C 	C 	0.43095	0.8619	0.0414	-0.056
Mof_C 	C 	0.42265	0.8453	0.1579	-0.395
Mof_H 	H 	0.43905	0.8781	0.2012	0.135
Mof_C 	C 	0.4048	0.8096	0.9712	-0.28
Mof_H 	H 	0.41015	0.8203	0.8979	0.074
Mof_C 	C 	0.43695	0.8739	0.5592	-0.005
Mof_C 	C 	0.4331	0.8662	0.4398	-0.426
Mof_H 	H 	0.45095	0.9019	0.4058	0.142
Mof_C 	C 	0.40835	0.8167	0.6137	-0.399
Mof_H 	H 	0.4108	0.8216	0.6893	0.108
Mof_Zn	Zn	0.12892	0.25783	0.13987	1.194
Mof_C 	C 	0.09762	0.19523	0.37473	-0.041
Mof_C 	C 	0.08932	0.17863	0.49123	-0.388
Mof_H 	H 	0.10572	0.21143	0.53453	0.129
Mof_C 	C 	0.07147	0.14293	0.30453	-0.336
Mof_H 	H 	0.07682	0.15363	0.23123	0.077
Mof_C 	C 	0.10362	0.20723	0.89253	-0.246
Mof_C 	C 	0.09977	0.19953	0.77313	-0.155
Mof_H 	H 	0.11762	0.23523	0.73913	0.057
Mof_C 	C 	0.07502	0.15003	0.94703	0.141
Mof_H 	H 	0.07747	0.15493	0.02263	-0.11
Mof_Zn	Zn	0.79558	0.59117	0.47321	1.191
Mof_C 	C 	0.76428	0.52857	0.70807	0.02
Mof_C 	C 	0.75598	0.51197	0.82457	-0.504
Mof_H 	H 	0.77238	0.54477	0.86787	0.181
Mof_C 	C 	0.73813	0.47627	0.63787	-0.431
Mof_H 	H 	0.74348	0.48697	0.56457	0.112
Mof_C 	C 	0.77028	0.54057	0.22587	-0.046
Mof_C 	C 	0.76643	0.53287	0.10647	-0.334
Mof_H 	H 	0.78428	0.56857	0.07247	0.094
Mof_C 	C 	0.74168	0.48337	0.28037	-0.353
Mof_H 	H 	0.74413	0.48827	0.35597	0.094
Mof_Zn	Zn	0.46225	0.53775	0.80654	1.192
Mof_C 	C 	0.43095	0.56905	0.0414	-0.061
Mof_C 	C 	0.42265	0.57735	0.1579	-0.386
Mof_H 	H 	0.43905	0.56095	0.2012	0.129
Mof_C 	C 	0.4048	0.5952	0.9712	-0.274
Mof_H 	H 	0.41015	0.58985	0.8979	0.073
Mof_C 	C 	0.43695	0.56305	0.5592	-0.013
Mof_C 	C 	0.4331	0.5669	0.4398	-0.412
Mof_H 	H 	0.45095	0.54905	0.4058	0.133
Mof_C 	C 	0.40835	0.59165	0.6137	-0.392
Mof_H 	H 	0.4108	0.5892	0.6893	0.107
Mof_Zn	Zn	0.12892	0.87108	0.13987	1.193
Mof_C 	C 	0.09762	0.90238	0.37473	-0.011
Mof_C 	C 	0.08932	0.91068	0.49123	-0.435
Mof_H 	H 	0.10572	0.89428	0.53453	0.145
Mof_C 	C 	0.07147	0.92853	0.30453	-0.392
Mof_H 	H 	0.07682	0.92318	0.23123	0.099
Mof_C 	C 	0.10362	0.89638	0.89253	-0.214
Mof_C 	C 	0.09977	0.90023	0.77313	-0.2
Mof_H 	H 	0.11762	0.88238	0.73913	0.071
Mof_C 	C 	0.07502	0.92498	0.94703	0.079
Mof_H 	H 	0.07747	0.92253	0.02263	-0.085
Mof_Zn	Zn	0.79558	0.20442	0.47321	1.191
Mof_C 	C 	0.76428	0.23572	0.70807	0.021
Mof_C 	C 	0.75598	0.24402	0.82457	-0.505
Mof_H 	H 	0.77238	0.22762	0.86787	0.182
Mof_C 	C 	0.73813	0.26187	0.63787	-0.432
Mof_H 	H 	0.74348	0.25652	0.56457	0.112
Mof_C 	C 	0.77028	0.22972	0.22587	-0.044
Mof_C 	C 	0.76643	0.23357	0.10647	-0.337
Mof_H 	H 	0.78428	0.21572	0.07247	0.096
Mof_C 	C 	0.74168	0.25832	0.28037	-0.355
Mof_H 	H 	0.74413	0.25587	0.35597	0.094
_end
