data_functionalizedCrystal
_audit_creation_method	'EQeq! by Chris Wilmer'
_symmetry_space_group_name_H-M	'P1'
_symmetry_Int_Tables_number	1
_symmetry_cell_setting	triclinic
loop_
_symmetry_equiv_pos_as_xyz
  x,y,z
_cell_length_a	14.8731
_cell_length_b	6.8365
_cell_length_c	15.2449
_cell_angle_alpha	90
_cell_angle_beta	90
_cell_angle_gamma	90
loop_
_atom_site_label
_atom_site_type_symbol
_atom_site_fract_x
_atom_site_fract_y
_atom_site_fract_z
_atom_site_charge
Mof_H 	H 	0.1968	0.4523	0.693	0.008
Mof_C 	C 	0.219	0.5765	0.7168	0.062
Mof_O 	O 	0.093	0.5918	0.5821	-0.705
Mof_H 	H 	0.5	0.75	0.1171	0.293
Mof_H 	H 	0.6968	0.9523	0.193	0.135
Mof_C 	C 	0.719	0.0765	0.2168	-0.105
Mof_O 	O 	0.593	0.0918	0.0821	-0.653
Mof_H 	H 	0.8032	0.0477	0.693	-0.059
Mof_C 	C 	0.781	0.9235	0.7168	0.166
Mof_O 	O 	0.907	0.9082	0.5821	-0.469
Mof_H 	H 	0.3032	0.5477	0.193	0.028
Mof_C 	C 	0.281	0.4235	0.2168	-0.017
Mof_O 	O 	0.407	0.4082	0.0821	-0.658
Mof_H 	H 	2.37159e-33	0.25	0.6171	0.229
Mof_H 	H 	0.8032	0.9523	0.307	0.158
Mof_C 	C 	0.781	0.0765	0.2832	-0.123
Mof_O 	O 	0.907	0.0918	0.4179	-0.57
Mof_H 	H 	0.5	0.25	0.8829	0.223
Mof_H 	H 	0.3032	0.4523	0.807	0.046
Mof_C 	C 	0.281	0.5765	0.7832	-0.015
Mof_O 	O 	0.407	0.5918	0.9179	-0.499
Mof_H 	H 	9.61409e-33	0.75	0.3829	0.247
Mof_H 	H 	0.1968	0.5477	0.307	0.025
Mof_C 	C 	0.219	0.4235	0.2832	0.004
Mof_O 	O 	0.093	0.4082	0.4179	-0.703
Mof_H 	H 	0.6968	0.0477	0.807	-0.051
Mof_C 	C 	0.719	0.9235	0.7832	0.135
Mof_O 	O 	0.593	0.9082	0.9179	-0.39
Mof_H 	H 	0.8032	0.5477	0.307	0.057
Mof_C 	C 	0.781	0.4235	0.2832	-0.005
Mof_O 	O 	0.907	0.4082	0.4179	-0.57
Mof_H 	H 	0.3032	0.0477	0.807	-0.057
Mof_C 	C 	0.281	0.9235	0.7832	0.104
Mof_O 	O 	0.407	0.9082	0.9179	-0.396
Mof_H 	H 	0.1968	0.9523	0.307	0.13
Mof_C 	C 	0.219	0.0765	0.2832	-0.119
Mof_O 	O 	0.093	0.0918	0.4179	-0.705
Mof_H 	H 	0.6968	0.4523	0.807	0.051
Mof_C 	C 	0.719	0.5765	0.7832	0.018
Mof_O 	O 	0.593	0.5918	0.9179	-0.492
Mof_H 	H 	0.1968	0.0477	0.693	-0.098
Mof_C 	C 	0.219	0.9235	0.7168	0.185
Mof_O 	O 	0.093	0.9082	0.5821	-0.598
Mof_H 	H 	0.6968	0.5477	0.193	0.032
Mof_C 	C 	0.719	0.4235	0.2168	0.015
Mof_O 	O 	0.593	0.4082	0.0821	-0.652
Mof_H 	H 	0.8032	0.4523	0.693	0.042
Mof_C 	C 	0.781	0.5765	0.7168	0.05
Mof_O 	O 	0.907	0.5918	0.5821	-0.572
Mof_H 	H 	0.3032	0.9523	0.193	0.133
Mof_C 	C 	0.281	0.0765	0.2168	-0.139
Mof_O 	O 	0.407	0.0918	0.0821	-0.661
Mof_Cr	Cr	-2.14971e-33	0.5	0.5	2.367
Mof_Cr	Cr	0.5	0	-0	1.623
Mof_Cr	Cr	1.92156e-33	8.14255e-33	0.5	2.029
Mof_Cr	Cr	0.5	0.5	-0	1.95
Mof_C 	C 	0.1879	0.75	0.6836	-0.247
Mof_C 	C 	0.1213	0.75	0.6123	0.633
Mof_C 	C 	0.6879	0.25	0.1836	-0.149
Mof_C 	C 	0.6213	0.25	0.1123	0.548
Mof_C 	C 	0.8121	0.75	0.6836	-0.184
Mof_C 	C 	0.8787	0.75	0.6123	0.612
Mof_C 	C 	0.3121	0.25	0.1836	-0.147
Mof_C 	C 	0.3787	0.25	0.1123	0.536
Mof_C 	C 	0.8121	0.25	0.3164	-0.113
Mof_C 	C 	0.8787	0.25	0.3877	0.57
Mof_C 	C 	0.3121	0.75	0.8164	-0.141
Mof_C 	C 	0.3787	0.75	0.8877	0.537
Mof_C 	C 	0.1879	0.25	0.3164	-0.172
Mof_C 	C 	0.1213	0.25	0.3877	0.588
Mof_C 	C 	0.6879	0.75	0.8164	-0.144
Mof_C 	C 	0.6213	0.75	0.8877	0.549
Mof_O 	O 	5.79492e-33	0.75	0.4485	-1.038
Mof_O 	O 	0.5	0.25	0.9485	-0.705
Mof_O 	O 	6.19076e-33	0.25	0.5515	-1.082
Mof_O 	O 	0.5	0.75	0.0515	-0.915
_end
