data_functionalizedCrystal
_audit_creation_method	'EQeq! by Chris Wilmer'
_symmetry_space_group_name_H-M	'P1'
_symmetry_Int_Tables_number	1
_symmetry_cell_setting	triclinic
loop_
_symmetry_equiv_pos_as_xyz
  x,y,z
_cell_length_a	16.1895
_cell_length_b	16.1895
_cell_length_c	10.0036
_cell_angle_alpha	90
_cell_angle_beta	90
_cell_angle_gamma	120
loop_
_atom_site_label
_atom_site_type_symbol
_atom_site_fract_x
_atom_site_fract_y
_atom_site_fract_z
_atom_site_charge
Mof_P 	P 	0.6042	0.4511	0.0632	0.489
Mof_P 	P 	0.2036	0.4715	0.4505	0.476
Mof_O 	O 	0.6584	0.4414	0.174	-0.412
Mof_O 	O 	0.6359	0.4274	0.9373	-0.39
Mof_O 	O 	0.6219	0.5518	0.0591	-0.211
Mof_O 	O 	0.2158	0.5405	0.56	-0.391
Mof_O 	O 	0.2507	0.5245	0.329	-0.397
Mof_O 	O 	0.1013	0.4018	0.4278	-0.22
Mof_N 	N 	0.4159	0.3839	0.1771	-0.096
Mof_N 	N 	0.3221	0.3835	0.4174	-0.095
Mof_C 	C 	0.475	0.36	0.089	-0.003
Mof_C 	C 	0.3306	0.2946	0.2258	0.043
Mof_C 	C 	0.2693	0.3169	0.3074	0.048
Mof_C 	C 	0.2593	0.3999	0.5101	-0.002
Mof_C 	C 	0.4118	0.4681	0.3796	0.05
Mof_C 	C 	0.469	0.4553	0.2787	0.058
Mof_C 	C 	0.1891	0.2301	0.3665	0.019
Mof_C 	C 	0.2781	0.2409	0.1036	0.027
Mof_P 	P 	0.5489	0.1531	0.0632	0.488
Mof_P 	P 	0.5285	0.7321	0.4505	0.475
Mof_O 	O 	0.5586	0.217	0.174	-0.413
Mof_O 	O 	0.5726	0.2085	0.9373	-0.39
Mof_O 	O 	0.4482	0.0701	0.0591	-0.212
Mof_O 	O 	0.4595	0.6753	0.56	-0.392
Mof_O 	O 	0.4755	0.7262	0.329	-0.398
Mof_O 	O 	0.5982	0.6995	0.4278	-0.221
Mof_N 	N 	0.6161	0.032	0.1771	-0.097
Mof_N 	N 	0.6165	0.9386	0.4174	-0.096
Mof_C 	C 	0.64	0.115	0.089	-0.004
Mof_C 	C 	0.7054	0.036	0.2258	0.042
Mof_C 	C 	0.6831	0.9524	0.3074	0.048
Mof_C 	C 	0.6001	0.8594	0.5101	-0.002
Mof_C 	C 	0.5319	0.9437	0.3796	0.051
Mof_C 	C 	0.5447	0.0137	0.2787	0.057
Mof_C 	C 	0.7699	0.959	0.3665	0.019
Mof_C 	C 	0.7591	0.0372	0.1036	0.026
Mof_P 	P 	0.8469	0.3958	0.0632	0.488
Mof_P 	P 	0.2679	0.7964	0.4505	0.475
Mof_O 	O 	0.783	0.3416	0.174	-0.413
Mof_O 	O 	0.7915	0.3641	0.9373	-0.39
Mof_O 	O 	0.9299	0.3781	0.0591	-0.212
Mof_O 	O 	0.3247	0.7842	0.56	-0.392
Mof_O 	O 	0.2738	0.7493	0.329	-0.398
Mof_O 	O 	0.3005	0.8987	0.4278	-0.221
Mof_N 	N 	0.968	0.5841	0.1771	-0.097
Mof_N 	N 	0.0614	0.6779	0.4174	-0.096
Mof_C 	C 	0.885	0.525	0.089	-0.004
Mof_C 	C 	0.964	0.6694	0.2258	0.042
Mof_C 	C 	0.0476	0.7307	0.3074	0.048
Mof_C 	C 	0.1406	0.7407	0.5101	-0.002
Mof_C 	C 	0.0563	0.5882	0.3796	0.051
Mof_C 	C 	0.9863	0.531	0.2787	0.057
Mof_C 	C 	0.041	0.8109	0.3665	0.019
Mof_C 	C 	0.9628	0.7219	0.1036	0.027
Mof_P 	P 	0.3958	0.5489	0.9368	0.488
Mof_P 	P 	0.7964	0.5285	0.5495	0.475
Mof_O 	O 	0.3416	0.5586	0.826	-0.413
Mof_O 	O 	0.3641	0.5726	0.0627	-0.391
Mof_O 	O 	0.3781	0.4482	0.9409	-0.212
Mof_O 	O 	0.7842	0.4595	0.44	-0.392
Mof_O 	O 	0.7493	0.4755	0.671	-0.398
Mof_O 	O 	0.8987	0.5982	0.5722	-0.221
Mof_N 	N 	0.5841	0.6161	0.8229	-0.097
Mof_N 	N 	0.6779	0.6165	0.5826	-0.096
Mof_C 	C 	0.525	0.64	0.911	-0.004
Mof_C 	C 	0.6694	0.7054	0.7742	0.042
Mof_C 	C 	0.7307	0.6831	0.6926	0.048
Mof_C 	C 	0.7407	0.6001	0.4899	-0.002
Mof_C 	C 	0.5882	0.5319	0.6204	0.05
Mof_C 	C 	0.531	0.5447	0.7213	0.058
Mof_C 	C 	0.8109	0.7699	0.6335	0.019
Mof_C 	C 	0.7219	0.7591	0.8964	0.027
Mof_P 	P 	0.4511	0.8469	0.9368	0.488
Mof_P 	P 	0.4715	0.2679	0.5495	0.475
Mof_O 	O 	0.4414	0.783	0.826	-0.413
Mof_O 	O 	0.4274	0.7915	0.0627	-0.39
Mof_O 	O 	0.5518	0.9299	0.9409	-0.212
Mof_O 	O 	0.5405	0.3247	0.44	-0.392
Mof_O 	O 	0.5245	0.2738	0.671	-0.398
Mof_O 	O 	0.4018	0.3005	0.5722	-0.221
Mof_N 	N 	0.3839	0.968	0.8229	-0.097
Mof_N 	N 	0.3835	0.0614	0.5826	-0.096
Mof_C 	C 	0.36	0.885	0.911	-0.004
Mof_C 	C 	0.2946	0.964	0.7742	0.042
Mof_C 	C 	0.3169	0.0476	0.6926	0.048
Mof_C 	C 	0.3999	0.1406	0.4899	-0.002
Mof_C 	C 	0.4681	0.0563	0.6204	0.051
Mof_C 	C 	0.4553	0.9863	0.7213	0.057
Mof_C 	C 	0.2301	0.041	0.6335	0.019
Mof_C 	C 	0.2409	0.9628	0.8964	0.026
Mof_P 	P 	0.1531	0.6042	0.9368	0.488
Mof_P 	P 	0.7321	0.2036	0.5495	0.475
Mof_O 	O 	0.217	0.6584	0.826	-0.413
Mof_O 	O 	0.2085	0.6359	0.0627	-0.39
Mof_O 	O 	0.0701	0.6219	0.9409	-0.212
Mof_O 	O 	0.6753	0.2158	0.44	-0.392
Mof_O 	O 	0.7262	0.2507	0.671	-0.398
Mof_O 	O 	0.6995	0.1013	0.5722	-0.221
Mof_N 	N 	0.032	0.4159	0.8229	-0.097
Mof_N 	N 	0.9386	0.3221	0.5826	-0.096
Mof_C 	C 	0.115	0.475	0.911	-0.004
Mof_C 	C 	0.036	0.3306	0.7742	0.042
Mof_C 	C 	0.9524	0.2693	0.6926	0.048
Mof_C 	C 	0.8594	0.2593	0.4899	-0.002
Mof_C 	C 	0.9437	0.4118	0.6204	0.051
Mof_C 	C 	0.0137	0.469	0.7213	0.057
Mof_C 	C 	0.959	0.1891	0.6335	0.019
Mof_C 	C 	0.0372	0.2781	0.8964	0.027
Mof_Y 	Y 	0.66667	0.33333	0.3081	1.524
Mof_Y 	Y 	0.66667	0.33333	0.7947	1.526
Mof_Y 	Y 	0.33333	0.66667	0.6919	1.524
Mof_Y 	Y 	0.33333	0.66667	0.2053	1.526
_end
