data_functionalizedCrystal
_audit_creation_method	'EQeq! by Chris Wilmer'
_symmetry_space_group_name_H-M	'P1'
_symmetry_Int_Tables_number	1
_symmetry_cell_setting	triclinic
loop_
_symmetry_equiv_pos_as_xyz
  x,y,z
_cell_length_a	10.23
_cell_length_b	9.468
_cell_length_c	28.006
_cell_angle_alpha	90
_cell_angle_beta	98.048
_cell_angle_gamma	90
loop_
_atom_site_label
_atom_site_type_symbol
_atom_site_fract_x
_atom_site_fract_y
_atom_site_fract_z
_atom_site_charge
Mof_Co	Co	0.77973	0.38336	0.69352	1.184
Mof_Co	Co	0.55644	0.4397	0.5972	1.159
Mof_O 	O 	0.5327	0.2463	0.6264	-0.427
Mof_O 	O 	0.7099	0.1869	0.6778	-0.424
Mof_O 	O 	0.7825	0.6527	0.7059	-0.315
Mof_O 	O 	0.6326	0.5183	0.666	-0.543
Mof_O 	O 	0.2877	0.878	0.735	-0.341
Mof_O 	O 	0.0812	0.8486	0.7452	-0.357
Mof_O 	O 	0.5897	0.6259	0.4642	-0.377
Mof_O 	O 	0.6521	0.5388	0.3992	-0.384
Mof_O 	O 	0.1006	0.6078	0.359	-0.418
Mof_O 	O 	0.2626	0.6108	0.4219	-0.467
Mof_C 	C 	0.603	0.159	0.652	0.378
Mof_C 	C 	0.5518	0.0101	0.6533	-0.075
Mof_C 	C 	0.6357	0.8988	0.6678	0.025
Mof_H 	H 	0.7255	0.9144	0.677	0.05
Mof_C 	C 	0.5837	0.7629	0.6687	-0.099
Mof_C 	C 	0.4491	0.7417	0.6579	-0.024
Mof_H 	H 	0.4149	0.6513	0.6601	0.057
Mof_C 	C 	0.3639	0.8537	0.6437	0.002
Mof_C 	C 	0.4157	0.9846	0.6403	-0.024
Mof_H 	H 	0.3603	0.0591	0.6293	0.067
Mof_C 	C 	0.6739	0.6395	0.6811	0.341
Mof_C 	C 	0.219	0.8246	0.6314	0.076
Mof_C 	C 	0.1307	0.8252	0.6649	-0.09
Mof_C 	C 	0.9982	0.7915	0.6487	0.025
Mof_H 	H 	0.9389	0.7926	0.671	0.058
Mof_C 	C 	0.9503	0.7563	0.6008	-0.104
Mof_H 	H 	0.862	0.7331	0.5916	0.062
Mof_C 	C 	0.0392	0.7572	0.5674	0.074
Mof_C 	C 	0.1692	0.7928	0.5838	-0.13
Mof_H 	H 	0.2278	0.7956	0.5612	0.079
Mof_C 	C 	0.1712	0.8528	0.718	0.305
Mof_C 	C 	0.9948	0.713	0.5166	-0.026
Mof_C 	C 	0.8623	0.6819	0.5005	-0.005
Mof_H 	H 	0.8	0.6965	0.5212	0.038
Mof_C 	C 	0.8221	0.6308	0.4553	-0.077
Mof_C 	C 	0.9125	0.6087	0.4232	0.026
Mof_H 	H 	0.8843	0.5726	0.3926	0.059
Mof_C 	C 	0.0444	0.6405	0.437	-0.094
Mof_C 	C 	0.0849	0.689	0.4844	-0.002
Mof_H 	H 	0.1741	0.7055	0.4944	0.042
Mof_C 	C 	0.1466	0.6159	0.4042	0.379
Mof_C 	C 	0.6791	0.5951	0.4379	0.317
Mof_Co	Co	0.22027	0.88336	0.80648	1.182
Mof_Co	Co	0.44356	0.9397	0.9028	1.158
Mof_O 	O 	0.4673	0.7463	0.8736	-0.429
Mof_O 	O 	0.2901	0.6869	0.8222	-0.427
Mof_O 	O 	0.2175	0.1527	0.7941	-0.315
Mof_O 	O 	0.3674	0.0183	0.834	-0.542
Mof_O 	O 	0.7123	0.378	0.765	-0.34
Mof_O 	O 	0.9188	0.3486	0.7548	-0.356
Mof_O 	O 	0.4103	0.1259	0.0358	-0.378
Mof_O 	O 	0.3479	0.0388	0.1008	-0.385
Mof_O 	O 	0.8994	0.1078	0.141	-0.419
Mof_O 	O 	0.7374	0.1108	0.0781	-0.468
Mof_C 	C 	0.397	0.659	0.848	0.383
Mof_C 	C 	0.4482	0.5101	0.8467	-0.089
Mof_C 	C 	0.3643	0.3988	0.8322	0.036
Mof_H 	H 	0.2745	0.4144	0.823	0.047
Mof_C 	C 	0.4163	0.2629	0.8313	-0.104
Mof_C 	C 	0.5509	0.2417	0.8421	-0.017
Mof_H 	H 	0.5851	0.1513	0.8399	0.056
Mof_C 	C 	0.6361	0.3537	0.8563	-0.006
Mof_C 	C 	0.5843	0.4846	0.8597	-0.006
Mof_H 	H 	0.6397	0.5591	0.8707	0.059
Mof_C 	C 	0.3261	0.1395	0.8189	0.343
Mof_C 	C 	0.781	0.3246	0.8686	0.08
Mof_C 	C 	0.8693	0.3252	0.8351	-0.091
Mof_C 	C 	0.0018	0.2915	0.8513	0.026
Mof_H 	H 	0.0611	0.2926	0.829	0.058
Mof_C 	C 	0.0497	0.2563	0.8992	-0.104
Mof_H 	H 	0.138	0.2331	0.9084	0.063
Mof_C 	C 	0.9608	0.2572	0.9326	0.075
Mof_C 	C 	0.8308	0.2928	0.9162	-0.132
Mof_H 	H 	0.7722	0.2956	0.9388	0.08
Mof_C 	C 	0.8288	0.3528	0.782	0.306
Mof_C 	C 	0.0052	0.213	0.9834	-0.026
Mof_C 	C 	0.1377	0.1819	0.9995	-0.003
Mof_H 	H 	0.2	0.1965	0.9788	0.038
Mof_C 	C 	0.1779	0.1308	0.0447	-0.079
Mof_C 	C 	0.0875	0.1087	0.0768	0.028
Mof_H 	H 	0.1157	0.0726	0.1074	0.059
Mof_C 	C 	0.9556	0.1405	0.063	-0.095
Mof_C 	C 	0.9151	0.189	0.0156	-0.002
Mof_H 	H 	0.8259	0.2055	0.0056	0.042
Mof_C 	C 	0.8534	0.1159	0.0958	0.379
Mof_C 	C 	0.3209	0.0951	0.0621	0.318
Mof_Co	Co	0.22027	0.61664	0.30648	1.183
Mof_Co	Co	0.44356	0.5603	0.4028	1.158
Mof_O 	O 	0.4673	0.7537	0.3736	-0.428
Mof_O 	O 	0.2901	0.8131	0.3222	-0.425
Mof_O 	O 	0.2175	0.3473	0.2941	-0.316
Mof_O 	O 	0.3674	0.4817	0.334	-0.544
Mof_O 	O 	0.7123	0.122	0.265	-0.341
Mof_O 	O 	0.9188	0.1514	0.2548	-0.357
Mof_O 	O 	0.4103	0.3741	0.5358	-0.377
Mof_O 	O 	0.3479	0.4612	0.6008	-0.384
Mof_O 	O 	0.8994	0.3922	0.641	-0.418
Mof_O 	O 	0.7374	0.3892	0.5781	-0.467
Mof_C 	C 	0.397	0.841	0.348	0.378
Mof_C 	C 	0.4482	0.9899	0.3467	-0.075
Mof_C 	C 	0.3643	0.1012	0.3322	0.025
Mof_H 	H 	0.2745	0.0856	0.323	0.05
Mof_C 	C 	0.4163	0.2371	0.3313	-0.099
Mof_C 	C 	0.5509	0.2583	0.3421	-0.024
Mof_H 	H 	0.5851	0.3487	0.3399	0.057
Mof_C 	C 	0.6361	0.1463	0.3563	0.002
Mof_C 	C 	0.5843	0.0154	0.3597	-0.024
Mof_H 	H 	0.6397	0.9409	0.3707	0.067
Mof_C 	C 	0.3261	0.3605	0.3189	0.341
Mof_C 	C 	0.781	0.1754	0.3686	0.076
Mof_C 	C 	0.8693	0.1748	0.3351	-0.09
Mof_C 	C 	0.0018	0.2085	0.3513	0.025
Mof_H 	H 	0.0611	0.2074	0.329	0.058
Mof_C 	C 	0.0497	0.2437	0.3992	-0.104
Mof_H 	H 	0.138	0.2669	0.4084	0.062
Mof_C 	C 	0.9608	0.2428	0.4326	0.074
Mof_C 	C 	0.8308	0.2072	0.4162	-0.13
Mof_H 	H 	0.7722	0.2044	0.4388	0.079
Mof_C 	C 	0.8288	0.1472	0.282	0.305
Mof_C 	C 	0.0052	0.287	0.4834	-0.026
Mof_C 	C 	0.1377	0.3181	0.4995	-0.005
Mof_H 	H 	0.2	0.3035	0.4788	0.038
Mof_C 	C 	0.1779	0.3692	0.5447	-0.077
Mof_C 	C 	0.0875	0.3913	0.5768	0.026
Mof_H 	H 	0.1157	0.4274	0.6074	0.059
Mof_C 	C 	0.9556	0.3595	0.563	-0.094
Mof_C 	C 	0.9151	0.311	0.5156	-0.002
Mof_H 	H 	0.8259	0.2945	0.5056	0.042
Mof_C 	C 	0.8534	0.3841	0.5958	0.379
Mof_C 	C 	0.3209	0.4049	0.5621	0.317
Mof_Co	Co	0.77973	0.11664	0.19352	1.182
Mof_Co	Co	0.55644	0.0603	0.0972	1.158
Mof_O 	O 	0.5327	0.2537	0.1264	-0.429
Mof_O 	O 	0.7099	0.3131	0.1778	-0.427
Mof_O 	O 	0.7825	0.8473	0.2059	-0.315
Mof_O 	O 	0.6326	0.9817	0.166	-0.542
Mof_O 	O 	0.2877	0.622	0.235	-0.34
Mof_O 	O 	0.0812	0.6514	0.2452	-0.356
Mof_O 	O 	0.5897	0.8741	0.9642	-0.378
Mof_O 	O 	0.6521	0.9612	0.8992	-0.385
Mof_O 	O 	0.1006	0.8922	0.859	-0.419
Mof_O 	O 	0.2626	0.8892	0.9219	-0.468
Mof_C 	C 	0.603	0.341	0.152	0.383
Mof_C 	C 	0.5518	0.4899	0.1533	-0.089
Mof_C 	C 	0.6357	0.6012	0.1678	0.036
Mof_H 	H 	0.7255	0.5856	0.177	0.047
Mof_C 	C 	0.5837	0.7371	0.1687	-0.104
Mof_C 	C 	0.4491	0.7583	0.1579	-0.017
Mof_H 	H 	0.4149	0.8487	0.1601	0.056
Mof_C 	C 	0.3639	0.6463	0.1437	-0.006
Mof_C 	C 	0.4157	0.5154	0.1403	-0.006
Mof_H 	H 	0.3603	0.4409	0.1293	0.059
Mof_C 	C 	0.6739	0.8605	0.1811	0.343
Mof_C 	C 	0.219	0.6754	0.1314	0.08
Mof_C 	C 	0.1307	0.6748	0.1649	-0.091
Mof_C 	C 	0.9982	0.7085	0.1487	0.026
Mof_H 	H 	0.9389	0.7074	0.171	0.058
Mof_C 	C 	0.9503	0.7437	0.1008	-0.104
Mof_H 	H 	0.862	0.7669	0.0916	0.063
Mof_C 	C 	0.0392	0.7428	0.0674	0.075
Mof_C 	C 	0.1692	0.7072	0.0838	-0.132
Mof_H 	H 	0.2278	0.7044	0.0612	0.08
Mof_C 	C 	0.1712	0.6472	0.218	0.306
Mof_C 	C 	0.9948	0.787	0.0166	-0.026
Mof_C 	C 	0.8623	0.8181	0.0005	-0.003
Mof_H 	H 	0.8	0.8035	0.0212	0.038
Mof_C 	C 	0.8221	0.8692	0.9553	-0.079
Mof_C 	C 	0.9125	0.8913	0.9232	0.028
Mof_H 	H 	0.8843	0.9274	0.8926	0.059
Mof_C 	C 	0.0444	0.8595	0.937	-0.095
Mof_C 	C 	0.0849	0.811	0.9844	-0.002
Mof_H 	H 	0.1741	0.7945	0.9944	0.042
Mof_C 	C 	0.1466	0.8841	0.9042	0.379
Mof_C 	C 	0.6791	0.9049	0.9379	0.318
_end
