data_functionalizedCrystal
_audit_creation_method	'EQeq! by Chris Wilmer'
_symmetry_space_group_name_H-M	'P1'
_symmetry_Int_Tables_number	1
_symmetry_cell_setting	triclinic
loop_
_symmetry_equiv_pos_as_xyz
  x,y,z
_cell_length_a	11.248
_cell_length_b	14.945
_cell_length_c	16.801
_cell_angle_alpha	90
_cell_angle_beta	90
_cell_angle_gamma	103.732
loop_
_atom_site_label
_atom_site_type_symbol
_atom_site_fract_x
_atom_site_fract_y
_atom_site_fract_z
_atom_site_charge
Mof_Ni	Ni	0.01458	0.86709	0.0401	1.101
Mof_Ni	Ni	0.98542	0.63291	0.5401	1.119
Mof_Ni	Ni	0.98542	0.13291	0.9599	1.116
Mof_Ni	Ni	0.01458	0.36709	0.4599	1.105
Mof_H 	H 	0.9692	0.3404	0.0412	0.289
Mof_H 	H 	0.8272	0.9228	0.1459	0.013
Mof_H 	H 	0.7884	0.79	0.9423	0.023
Mof_H 	H 	0.6257	0.9327	0.1441	0.075
Mof_H 	H 	0.5838	0.7966	0.9351	0.074
Mof_H 	H 	0.4484	0.938	0.1418	0.075
Mof_H 	H 	0.4065	0.8112	0.9294	0.074
Mof_H 	H 	0.2438	0.9403	0.1371	0.014
Mof_H 	H 	0.2007	0.814	0.9335	0.007
Mof_H 	H 	0.0091	0.5629	0.0722	0.067
Mof_H 	H 	0.0013	0.6969	0.2812	0.059
Mof_H 	H 	0.0504	0.4367	0.2813	0.046
Mof_H 	H 	0.0308	0.1596	0.5412	0.289
Mof_H 	H 	0.1728	0.5772	0.6459	-0.005
Mof_H 	H 	0.2116	0.71	0.4423	0.017
Mof_H 	H 	0.3743	0.5673	0.6441	0.074
Mof_H 	H 	0.4162	0.7034	0.4351	0.076
Mof_H 	H 	0.5516	0.562	0.6418	0.074
Mof_H 	H 	0.5935	0.6888	0.4294	0.076
Mof_H 	H 	0.7562	0.5597	0.6371	0.014
Mof_H 	H 	0.7993	0.686	0.4335	0.015
Mof_H 	H 	0.9909	0.9371	0.5722	0.082
Mof_H 	H 	0.9987	0.8031	0.7812	0.067
Mof_H 	H 	0.9496	0.0633	0.7813	0.042
Mof_H 	H 	0.0308	0.6596	0.9588	0.289
Mof_H 	H 	0.1728	0.0772	0.8541	-0.004
Mof_H 	H 	0.2116	0.21	0.0577	0.017
Mof_H 	H 	0.3743	0.0673	0.8559	0.074
Mof_H 	H 	0.4162	0.2034	0.0649	0.076
Mof_H 	H 	0.5516	0.062	0.8582	0.074
Mof_H 	H 	0.5935	0.1888	0.0706	0.076
Mof_H 	H 	0.7562	0.0597	0.8629	0.014
Mof_H 	H 	0.7993	0.186	0.0665	0.015
Mof_H 	H 	0.9909	0.4371	0.9278	0.078
Mof_H 	H 	0.9987	0.3031	0.7188	0.066
Mof_H 	H 	0.9496	0.5633	0.7187	0.041
Mof_H 	H 	0.9692	0.8404	0.4588	0.29
Mof_H 	H 	0.8272	0.4228	0.3541	0.013
Mof_H 	H 	0.7884	0.29	0.5577	0.023
Mof_H 	H 	0.6257	0.4327	0.3559	0.076
Mof_H 	H 	0.5838	0.2966	0.5649	0.074
Mof_H 	H 	0.4484	0.438	0.3582	0.076
Mof_H 	H 	0.4065	0.3112	0.5706	0.074
Mof_H 	H 	0.2438	0.4403	0.3629	0.014
Mof_H 	H 	0.2007	0.314	0.5665	0.008
Mof_H 	H 	0.0091	0.0629	0.4278	0.069
Mof_H 	H 	0.0013	0.1969	0.2188	0.058
Mof_H 	H 	0.0504	0.9367	0.2187	0.046
Mof_C 	C 	0.7773	0.8974	0.102	0.077
Mof_C 	C 	0.7551	0.8201	0.9836	0.07
Mof_C 	C 	0.6573	0.9037	0.1014	-0.118
Mof_C 	C 	0.6326	0.8239	0.9788	-0.114
Mof_C 	C 	0.583	0.8672	0.0378	0.055
Mof_C 	C 	0.4512	0.8714	0.0372	0.055
Mof_C 	C 	0.3999	0.9111	0.0977	-0.121
Mof_C 	C 	0.3752	0.8368	0.9742	-0.12
Mof_C 	C 	0.2765	0.9119	0.0945	0.08
Mof_C 	C 	0.2515	0.8396	0.9769	0.084
Mof_C 	C 	0.022	0.5621	0.384	0.349
Mof_C 	C 	0.0079	0.6433	0.1691	-0.078
Mof_C 	C 	0.0144	0.5642	0.1287	0.022
Mof_C 	C 	0.0095	0.6438	0.2527	0.027
Mof_C 	C 	0.0286	0.4861	0.1696	-0.092
Mof_C 	C 	0.0231	0.5659	0.2931	-0.103
Mof_C 	C 	0.0363	0.4881	0.2529	0.029
Mof_C 	C 	0.0378	0.4017	0.1266	0.352
Mof_C 	C 	-1.48115e-17	0.727	0.1235	0.268
Mof_C 	C 	0.2227	0.6026	0.602	0.078
Mof_C 	C 	0.2449	0.6799	0.4836	0.075
Mof_C 	C 	0.3427	0.5963	0.6014	-0.123
Mof_C 	C 	0.3674	0.6761	0.4788	-0.118
Mof_C 	C 	0.417	0.6328	0.5378	0.057
Mof_C 	C 	0.5488	0.6286	0.5372	0.056
Mof_C 	C 	0.6001	0.5889	0.5977	-0.12
Mof_C 	C 	0.6248	0.6632	0.4742	-0.119
Mof_C 	C 	0.7235	0.5881	0.5945	0.081
Mof_C 	C 	0.7485	0.6604	0.4769	0.078
Mof_C 	C 	0.978	0.9379	0.884	0.405
Mof_C 	C 	0.9921	0.8567	0.6691	-0.057
Mof_C 	C 	0.9856	0.9358	0.6287	0.028
Mof_C 	C 	0.9905	0.8562	0.7527	0.033
Mof_C 	C 	0.9714	0.0139	0.6696	-0.102
Mof_C 	C 	0.9769	0.9341	0.7931	-0.116
Mof_C 	C 	0.9637	0.0119	0.7529	0.051
Mof_C 	C 	0.9622	0.0983	0.6266	0.418
Mof_C 	C 	-3.33393e-17	0.773	0.6235	0.258
Mof_C 	C 	0.2227	0.1026	0.898	0.079
Mof_C 	C 	0.2449	0.1799	0.0164	0.071
Mof_C 	C 	0.3427	0.0963	0.8986	-0.123
Mof_C 	C 	0.3674	0.1761	0.0212	-0.117
Mof_C 	C 	0.417	0.1328	0.9622	0.059
Mof_C 	C 	0.5488	0.1286	0.9628	0.054
Mof_C 	C 	0.6001	0.0889	0.9023	-0.12
Mof_C 	C 	0.6248	0.1632	0.0258	-0.118
Mof_C 	C 	0.7235	0.0881	0.9055	0.081
Mof_C 	C 	0.7485	0.1604	0.0231	0.084
Mof_C 	C 	0.978	0.4379	0.616	0.416
Mof_C 	C 	0.9921	0.3567	0.8309	-0.064
Mof_C 	C 	0.9856	0.4358	0.8713	0.035
Mof_C 	C 	0.9905	0.3562	0.7473	0.038
Mof_C 	C 	0.9714	0.5139	0.8304	-0.106
Mof_C 	C 	0.9769	0.4341	0.7069	-0.117
Mof_C 	C 	0.9637	0.5119	0.7471	0.051
Mof_C 	C 	0.9622	0.5983	0.8734	0.411
Mof_C 	C 	8.83449e-18	0.273	0.8765	0.264
Mof_C 	C 	0.7773	0.3974	0.398	0.077
Mof_C 	C 	0.7551	0.3201	0.5164	0.075
Mof_C 	C 	0.6573	0.4037	0.3986	-0.118
Mof_C 	C 	0.6326	0.3239	0.5212	-0.114
Mof_C 	C 	0.583	0.3672	0.4622	0.055
Mof_C 	C 	0.4512	0.3714	0.4628	0.058
Mof_C 	C 	0.3999	0.4111	0.4023	-0.121
Mof_C 	C 	0.3752	0.3368	0.5258	-0.121
Mof_C 	C 	0.2765	0.4119	0.4055	0.081
Mof_C 	C 	0.2515	0.3396	0.5231	0.078
Mof_C 	C 	0.022	0.0621	0.116	0.345
Mof_C 	C 	0.0079	0.1433	0.3309	-0.08
Mof_C 	C 	0.0144	0.0642	0.3713	0.028
Mof_C 	C 	0.0095	0.1438	0.2473	0.027
Mof_C 	C 	0.0286	0.9861	0.3304	-0.096
Mof_C 	C 	0.0231	0.0659	0.2069	-0.1
Mof_C 	C 	0.0363	0.9881	0.2471	0.027
Mof_C 	C 	0.0378	0.9017	0.3734	0.36
Mof_C 	C 	-1.40757e-17	0.227	0.3765	0.275
Mof_N 	N 	0.8274	0.8573	0.044	-0.213
Mof_N 	N 	0.2015	0.8755	0.0358	-0.226
Mof_N 	N 	0.1726	0.6427	0.544	-0.229
Mof_N 	N 	0.7985	0.6245	0.5358	-0.219
Mof_N 	N 	0.1726	0.1427	0.956	-0.226
Mof_N 	N 	0.7985	0.1245	0.9642	-0.223
Mof_N 	N 	0.8274	0.3573	0.456	-0.216
Mof_N 	N 	0.2015	0.3755	0.4642	-0.222
Mof_O 	O 	0.0091	0.8021	0.1573	-0.352
Mof_O 	O 	0.9872	0.7225	0.0473	-0.333
Mof_O 	O 	0.9852	0.6237	0.4203	-0.387
Mof_O 	O 	0.0566	0.4966	0.4153	-0.44
Mof_O 	O 	0.0918	0.3472	0.1506	-0.272
Mof_O 	O 	0.9769	0.3938	0.0594	-0.422
Mof_O 	O 	0.9909	0.6979	0.6573	-0.328
Mof_O 	O 	0.0128	0.7775	0.5473	-0.38
Mof_O 	O 	0.0148	0.8763	0.9203	-0.439
Mof_O 	O 	0.9434	0.0034	0.9153	-0.443
Mof_O 	O 	0.9082	0.1528	0.6506	-0.281
Mof_O 	O 	0.0231	0.1062	0.5594	-0.484
Mof_O 	O 	0.9909	0.1979	0.8427	-0.331
Mof_O 	O 	0.0128	0.2775	0.9527	-0.378
Mof_O 	O 	0.0148	0.3763	0.5797	-0.448
Mof_O 	O 	0.9434	0.5034	0.5847	-0.445
Mof_O 	O 	0.9082	0.6528	0.8494	-0.281
Mof_O 	O 	0.0231	0.6062	0.9406	-0.478
Mof_O 	O 	0.0091	0.3021	0.3427	-0.353
Mof_O 	O 	0.9872	0.2225	0.4527	-0.338
Mof_O 	O 	0.9852	0.1237	0.0797	-0.38
Mof_O 	O 	0.0566	0.9966	0.0847	-0.443
Mof_O 	O 	0.0918	0.8472	0.3494	-0.274
Mof_O 	O 	0.9769	0.8938	0.4406	-0.43
_end
