data_functionalizedCrystal
_audit_creation_method	'EQeq! by Chris Wilmer'
_symmetry_space_group_name_H-M	'P1'
_symmetry_Int_Tables_number	1
_symmetry_cell_setting	triclinic
loop_
_symmetry_equiv_pos_as_xyz
  x,y,z
_cell_length_a	28.4784
_cell_length_b	28.4784
_cell_length_c	13.6334
_cell_angle_alpha	90
_cell_angle_beta	90
_cell_angle_gamma	90
loop_
_atom_site_label
_atom_site_type_symbol
_atom_site_fract_x
_atom_site_fract_y
_atom_site_fract_z
_atom_site_charge
Mof_Sr	Sr	0.1906	0.50219	0.62309	1.553
Mof_O 	O 	0.2597	0.4539	0.6771	-0.531
Mof_O 	O 	0.1322	0.5545	0.5264	-0.357
Mof_O 	O 	0.298	0.4901	0.3176	-0.525
Mof_O 	O 	0.3293	0.4293	0.2389	-0.409
Mof_O 	O 	0.3107	0.4112	0.7555	-0.442
Mof_C 	C 	0.295	0.4288	0.6796	0.415
Mof_C 	C 	0.1303	0.5914	0.466	0.092
Mof_C 	C 	0.3206	0.418	0.5844	-0.119
Mof_N 	N 	0.0895	0.6069	0.504	-0.071
Mof_C 	C 	0.3087	0.4396	0.4983	0.067
Mof_C 	C 	0.355	0.3837	0.5865	-0.049
Mof_C 	C 	0.073	0.577	0.595	-0.271
Mof_C 	C 	0.3181	0.4502	0.3156	0.365
Mof_H 	H 	0.2857	0.4628	0.4981	-0.014
Mof_C 	C 	0.3302	0.4273	0.4128	-0.104
Mof_C 	C 	0.3759	0.3712	0.4988	0.1
Mof_H 	H 	0.3638	0.3695	0.6451	0.071
Mof_H 	H 	0.039	0.5778	0.5995	0.122
Mof_H 	H 	0.0859	0.5897	0.6543	0.123
Mof_H 	H 	0.0828	0.545	0.5877	0.12
Mof_C 	C 	0.3642	0.3925	0.4118	-0.05
Mof_C 	C 	0.4116	0.3355	0.4996	-0.157
Mof_H 	H 	0.3787	0.3838	0.3535	0.068
Mof_C 	C 	0.4581	0.3527	0.5038	0.202
Mof_C 	C 	0.3975	0.2893	0.5013	0.22
Mof_C 	C 	0.496	0.3144	0.5046	-0.035
Mof_O 	O 	0.4686	0.3936	0.5065	-0.212
Mof_C 	C 	0.4344	0.2533	0.5036	-0.065
Mof_O 	O 	0.3564	0.2794	0.5005	-0.241
Mof_C 	C 	0.4819	0.267	0.5037	0.029
Mof_C 	C 	0.5421	0.3278	0.5047	-0.042
Mof_C 	C 	0.4243	0.2078	0.5025	-0.004
Mof_H 	H 	0.5507	0.3593	0.5062	0.07
Mof_H 	H 	0.3928	0.1992	0.5	0.045
Mof_H 	H 	0.164	0.556	0.487	0.007
Mof_C 	C 	0.1224	0.5584	0.43	0.077
Mof_O 	O 	0.0089	0.58	0.264	-0.242
Mof_N 	N 	0.0876	0.5353	0.3911	-0.024
Mof_C 	C 	0.0559	0.5013	0.418	-0.276
Mof_C 	C 	0.068	0.5356	0.284	-0.603
Mof_H 	H 	0.0656	0.4875	0.4794	0.105
Mof_H 	H 	0.0546	0.4774	0.3687	0.118
Mof_H 	H 	0.0254	0.5151	0.4261	0.118
Mof_H 	H 	0.0437	0.5586	0.2788	0.321
Mof_H 	H 	0.056	0.5052	0.2683	0.228
Mof_H 	H 	0.0932	0.5434	0.2395	0.228
Mof_Sr	Sr	0.6906	0.00219	0.12309	1.552
Mof_O 	O 	0.7597	0.9539	0.1771	-0.531
Mof_O 	O 	0.6322	0.0545	0.0264	-0.36
Mof_O 	O 	0.798	0.9901	0.8176	-0.526
Mof_O 	O 	0.8293	0.9293	0.7389	-0.41
Mof_O 	O 	0.8107	0.9112	0.2555	-0.443
Mof_C 	C 	0.795	0.9288	0.1796	0.414
Mof_C 	C 	0.6303	0.0914	0.966	0.093
Mof_C 	C 	0.8206	0.918	0.0844	-0.121
Mof_N 	N 	0.5895	0.1069	0.004	-0.073
Mof_C 	C 	0.8087	0.9396	0.9983	0.066
Mof_C 	C 	0.855	0.8837	0.0865	-0.05
Mof_C 	C 	0.573	0.077	0.095	-0.272
Mof_C 	C 	0.8181	0.9502	0.8156	0.364
Mof_H 	H 	0.7857	0.9628	0.9981	-0.015
Mof_C 	C 	0.8302	0.9273	0.9128	-0.105
Mof_C 	C 	0.8759	0.8712	0.9988	0.099
Mof_H 	H 	0.8638	0.8695	0.1451	0.07
Mof_H 	H 	0.539	0.0778	0.0995	0.121
Mof_H 	H 	0.5859	0.0897	0.1543	0.122
Mof_H 	H 	0.5828	0.045	0.0877	0.119
Mof_C 	C 	0.8642	0.8925	0.9118	-0.051
Mof_C 	C 	0.9116	0.8355	0.9996	-0.157
Mof_H 	H 	0.8787	0.8838	0.8535	0.067
Mof_C 	C 	0.9581	0.8527	0.0038	0.2
Mof_C 	C 	0.8975	0.7893	0.0013	0.219
Mof_C 	C 	0.996	0.8144	0.0046	-0.035
Mof_O 	O 	0.9686	0.8936	0.0065	-0.212
Mof_C 	C 	0.9344	0.7533	0.0036	-0.065
Mof_O 	O 	0.8564	0.7794	0.0005	-0.241
Mof_C 	C 	0.9819	0.767	0.0037	0.028
Mof_C 	C 	0.0421	0.8278	0.0047	-0.042
Mof_C 	C 	0.9243	0.7078	0.0025	-0.004
Mof_H 	H 	0.0507	0.8593	0.0062	0.07
Mof_H 	H 	0.8928	0.6992	-0	0.044
Mof_H 	H 	0.664	0.056	0.987	0.008
Mof_C 	C 	0.6224	0.0584	0.93	0.078
Mof_O 	O 	0.5089	0.08	0.764	-0.241
Mof_N 	N 	0.5876	0.0353	0.8911	-0.024
Mof_C 	C 	0.5559	0.0013	0.918	-0.27
Mof_C 	C 	0.568	0.0356	0.784	-0.604
Mof_H 	H 	0.5656	0.9875	0.9794	0.104
Mof_H 	H 	0.5546	0.9774	0.8687	0.116
Mof_H 	H 	0.5254	0.0151	0.9261	0.117
Mof_H 	H 	0.5437	0.0586	0.7788	0.322
Mof_H 	H 	0.556	0.0052	0.7683	0.229
Mof_H 	H 	0.5932	0.0434	0.7395	0.229
Mof_Sr	Sr	0.3094	0.49781	0.12309	1.551
Mof_O 	O 	0.2403	0.5461	0.1771	-0.532
Mof_O 	O 	0.3678	0.4455	0.0264	-0.36
Mof_O 	O 	0.202	0.5099	0.8176	-0.526
Mof_O 	O 	0.1707	0.5707	0.7389	-0.41
Mof_O 	O 	0.1893	0.5888	0.2555	-0.443
Mof_C 	C 	0.205	0.5712	0.1796	0.415
Mof_C 	C 	0.3697	0.4086	0.966	0.093
Mof_C 	C 	0.1794	0.582	0.0844	-0.121
Mof_N 	N 	0.4105	0.3931	0.004	-0.073
Mof_C 	C 	0.1913	0.5604	0.9983	0.067
Mof_C 	C 	0.145	0.6163	0.0865	-0.05
Mof_C 	C 	0.427	0.423	0.095	-0.272
Mof_C 	C 	0.1819	0.5498	0.8156	0.364
Mof_H 	H 	0.2143	0.5372	0.9981	-0.015
Mof_C 	C 	0.1698	0.5727	0.9128	-0.105
Mof_C 	C 	0.1241	0.6288	0.9988	0.099
Mof_H 	H 	0.1362	0.6305	0.1451	0.07
Mof_H 	H 	0.461	0.4222	0.0995	0.121
Mof_H 	H 	0.4141	0.4103	0.1543	0.122
Mof_H 	H 	0.4172	0.455	0.0877	0.119
Mof_C 	C 	0.1358	0.6075	0.9118	-0.051
Mof_C 	C 	0.0884	0.6645	0.9996	-0.157
Mof_H 	H 	0.1213	0.6162	0.8535	0.067
Mof_C 	C 	0.0419	0.6473	0.0038	0.2
Mof_C 	C 	0.1025	0.7107	0.0013	0.219
Mof_C 	C 	0.004	0.6856	0.0046	-0.035
Mof_O 	O 	0.0314	0.6064	0.0065	-0.212
Mof_C 	C 	0.0656	0.7467	0.0036	-0.065
Mof_O 	O 	0.1436	0.7206	0.0005	-0.241
Mof_C 	C 	0.0181	0.733	0.0037	0.028
Mof_C 	C 	0.9579	0.6722	0.0047	-0.043
Mof_C 	C 	0.0757	0.7922	0.0025	-0.004
Mof_H 	H 	0.9493	0.6407	0.0062	0.07
Mof_H 	H 	0.1072	0.8008	-0	0.045
Mof_H 	H 	0.336	0.444	0.987	0.008
Mof_C 	C 	0.3776	0.4416	0.93	0.077
Mof_O 	O 	0.4911	0.42	0.764	-0.241
Mof_N 	N 	0.4124	0.4647	0.8911	-0.023
Mof_C 	C 	0.4441	0.4987	0.918	-0.277
Mof_C 	C 	0.432	0.4644	0.784	-0.603
Mof_H 	H 	0.4344	0.5125	0.9794	0.106
Mof_H 	H 	0.4454	0.5226	0.8687	0.118
Mof_H 	H 	0.4746	0.4849	0.9261	0.119
Mof_H 	H 	0.4563	0.4414	0.7788	0.322
Mof_H 	H 	0.444	0.4948	0.7683	0.229
Mof_H 	H 	0.4068	0.4566	0.7395	0.228
Mof_Sr	Sr	0.8094	0.99781	0.62309	1.553
Mof_O 	O 	0.7403	0.0461	0.6771	-0.532
Mof_O 	O 	0.8678	0.9455	0.5264	-0.358
Mof_O 	O 	0.702	0.0099	0.3176	-0.526
Mof_O 	O 	0.6707	0.0707	0.2389	-0.41
Mof_O 	O 	0.6893	0.0888	0.7555	-0.443
Mof_C 	C 	0.705	0.0712	0.6796	0.414
Mof_C 	C 	0.8697	0.9086	0.466	0.091
Mof_C 	C 	0.6794	0.082	0.5844	-0.12
Mof_N 	N 	0.9105	0.8931	0.504	-0.072
Mof_C 	C 	0.6913	0.0604	0.4983	0.066
Mof_C 	C 	0.645	0.1163	0.5865	-0.05
Mof_C 	C 	0.927	0.923	0.595	-0.272
Mof_C 	C 	0.6819	0.0498	0.3156	0.364
Mof_H 	H 	0.7143	0.0372	0.4981	-0.015
Mof_C 	C 	0.6698	0.0727	0.4128	-0.104
Mof_C 	C 	0.6241	0.1288	0.4988	0.099
Mof_H 	H 	0.6362	0.1305	0.6451	0.07
Mof_H 	H 	0.961	0.9222	0.5995	0.121
Mof_H 	H 	0.9141	0.9103	0.6543	0.122
Mof_H 	H 	0.9172	0.955	0.5877	0.119
Mof_C 	C 	0.6358	0.1075	0.4118	-0.051
Mof_C 	C 	0.5884	0.1645	0.4996	-0.158
Mof_H 	H 	0.6213	0.1162	0.3535	0.067
Mof_C 	C 	0.5419	0.1473	0.5038	0.201
Mof_C 	C 	0.6025	0.2107	0.5013	0.22
Mof_C 	C 	0.504	0.1856	0.5046	-0.035
Mof_O 	O 	0.5314	0.1064	0.5065	-0.212
Mof_C 	C 	0.5656	0.2467	0.5036	-0.065
Mof_O 	O 	0.6436	0.2206	0.5005	-0.241
Mof_C 	C 	0.5181	0.233	0.5037	0.029
Mof_C 	C 	0.4579	0.1722	0.5047	-0.043
Mof_C 	C 	0.5757	0.2922	0.5025	-0.004
Mof_H 	H 	0.4493	0.1407	0.5062	0.07
Mof_H 	H 	0.6072	0.3008	0.5	0.045
Mof_H 	H 	0.836	0.944	0.487	0.007
Mof_C 	C 	0.8776	0.9416	0.43	0.077
Mof_O 	O 	0.9911	0.92	0.264	-0.241
Mof_N 	N 	0.9124	0.9647	0.3911	-0.024
Mof_C 	C 	0.9441	0.9987	0.418	-0.275
Mof_C 	C 	0.932	0.9644	0.284	-0.603
Mof_H 	H 	0.9344	0.0125	0.4794	0.105
Mof_H 	H 	0.9454	0.0226	0.3687	0.117
Mof_H 	H 	0.9746	0.9849	0.4261	0.118
Mof_H 	H 	0.9563	0.9414	0.2788	0.322
Mof_H 	H 	0.944	0.9948	0.2683	0.229
Mof_H 	H 	0.9068	0.9566	0.2395	0.228
Mof_Sr	Sr	0.24781	0.4406	0.87309	1.553
Mof_O 	O 	0.2961	0.5097	0.9271	-0.532
Mof_O 	O 	0.1955	0.3822	0.7764	-0.358
Mof_O 	O 	0.2599	0.548	0.5676	-0.526
Mof_O 	O 	0.3207	0.5793	0.4889	-0.41
Mof_O 	O 	0.3388	0.5607	0.0055	-0.444
Mof_C 	C 	0.3212	0.545	0.9296	0.416
Mof_C 	C 	0.1586	0.3803	0.716	0.091
Mof_C 	C 	0.332	0.5706	0.8344	-0.121
Mof_N 	N 	0.1431	0.3395	0.754	-0.072
Mof_C 	C 	0.3104	0.5587	0.7483	0.066
Mof_C 	C 	0.3663	0.605	0.8365	-0.05
Mof_C 	C 	0.173	0.323	0.845	-0.273
Mof_C 	C 	0.2998	0.5681	0.5656	0.364
Mof_H 	H 	0.2872	0.5357	0.7481	-0.015
Mof_C 	C 	0.3227	0.5802	0.6628	-0.105
Mof_C 	C 	0.3788	0.6259	0.7488	0.099
Mof_H 	H 	0.3805	0.6138	0.8951	0.07
Mof_H 	H 	0.1722	0.289	0.8495	0.121
Mof_H 	H 	0.1603	0.3359	0.9043	0.123
Mof_H 	H 	0.205	0.3328	0.8377	0.12
Mof_C 	C 	0.3575	0.6142	0.6618	-0.051
Mof_C 	C 	0.4145	0.6616	0.7496	-0.158
Mof_H 	H 	0.3662	0.6287	0.6035	0.067
Mof_C 	C 	0.3973	0.7081	0.7538	0.201
Mof_C 	C 	0.4607	0.6475	0.7513	0.22
Mof_C 	C 	0.4356	0.746	0.7546	-0.035
Mof_O 	O 	0.3564	0.7186	0.7565	-0.212
Mof_C 	C 	0.4967	0.6844	0.7536	-0.065
Mof_O 	O 	0.4706	0.6064	0.7505	-0.241
Mof_C 	C 	0.483	0.7319	0.7537	0.029
Mof_C 	C 	0.4222	0.7921	0.7547	-0.042
Mof_C 	C 	0.5422	0.6743	0.7525	-0.004
Mof_H 	H 	0.3907	0.8007	0.7562	0.07
Mof_H 	H 	0.5508	0.6428	0.75	0.045
Mof_H 	H 	0.194	0.414	0.737	0.007
Mof_C 	C 	0.1916	0.3724	0.68	0.077
Mof_O 	O 	0.17	0.2589	0.514	-0.241
Mof_N 	N 	0.2147	0.3376	0.6411	-0.024
Mof_C 	C 	0.2487	0.3059	0.668	-0.276
Mof_C 	C 	0.2144	0.318	0.534	-0.603
Mof_H 	H 	0.2625	0.3156	0.7294	0.106
Mof_H 	H 	0.2726	0.3046	0.6187	0.118
Mof_H 	H 	0.2349	0.2754	0.6761	0.119
Mof_H 	H 	0.1914	0.2937	0.5288	0.322
Mof_H 	H 	0.2448	0.306	0.5183	0.229
Mof_H 	H 	0.2066	0.3432	0.4895	0.228
Mof_Sr	Sr	0.74781	0.9406	0.37309	1.553
Mof_O 	O 	0.7961	0.0097	0.4271	-0.531
Mof_O 	O 	0.6955	0.8822	0.2764	-0.358
Mof_O 	O 	0.7599	0.048	0.0676	-0.526
Mof_O 	O 	0.8207	0.0793	0.9889	-0.408
Mof_O 	O 	0.8388	0.0607	0.5055	-0.443
Mof_C 	C 	0.8212	0.045	0.4296	0.414
Mof_C 	C 	0.6586	0.8803	0.216	0.091
Mof_C 	C 	0.832	0.0706	0.3344	-0.12
Mof_N 	N 	0.6431	0.8395	0.254	-0.072
Mof_C 	C 	0.8104	0.0587	0.2483	0.065
Mof_C 	C 	0.8663	0.105	0.3365	-0.051
Mof_C 	C 	0.673	0.823	0.345	-0.272
Mof_C 	C 	0.7998	0.0681	0.0656	0.361
Mof_H 	H 	0.7872	0.0357	0.2481	-0.015
Mof_C 	C 	0.8227	0.0802	0.1628	-0.104
Mof_C 	C 	0.8788	0.1259	0.2488	0.099
Mof_H 	H 	0.8805	0.1138	0.3951	0.07
Mof_H 	H 	0.6722	0.789	0.3495	0.121
Mof_H 	H 	0.6603	0.8359	0.4043	0.122
Mof_H 	H 	0.705	0.8328	0.3377	0.119
Mof_C 	C 	0.8575	0.1142	0.1618	-0.052
Mof_C 	C 	0.9145	0.1616	0.2496	-0.159
Mof_H 	H 	0.8662	0.1287	0.1035	0.067
Mof_C 	C 	0.8973	0.2081	0.2538	0.201
Mof_C 	C 	0.9607	0.1475	0.2513	0.22
Mof_C 	C 	0.9356	0.246	0.2546	-0.035
Mof_O 	O 	0.8564	0.2186	0.2565	-0.212
Mof_C 	C 	0.9967	0.1844	0.2536	-0.066
Mof_O 	O 	0.9706	0.1064	0.2505	-0.241
Mof_C 	C 	0.983	0.2319	0.2537	0.029
Mof_C 	C 	0.9222	0.2921	0.2547	-0.043
Mof_C 	C 	0.0422	0.1743	0.2525	-0.004
Mof_H 	H 	0.8907	0.3007	0.2562	0.07
Mof_H 	H 	0.0508	0.1428	0.25	0.044
Mof_H 	H 	0.694	0.914	0.237	0.007
Mof_C 	C 	0.6916	0.8724	0.18	0.077
Mof_O 	O 	0.67	0.7589	0.014	-0.242
Mof_N 	N 	0.7147	0.8376	0.1411	-0.023
Mof_C 	C 	0.7487	0.8059	0.168	-0.276
Mof_C 	C 	0.7144	0.818	0.034	-0.605
Mof_H 	H 	0.7625	0.8156	0.2294	0.105
Mof_H 	H 	0.7726	0.8046	0.1187	0.118
Mof_H 	H 	0.7349	0.7754	0.1761	0.118
Mof_H 	H 	0.6914	0.7937	0.0288	0.322
Mof_H 	H 	0.7448	0.806	0.0183	0.229
Mof_H 	H 	0.7066	0.8432	0.9895	0.229
Mof_Sr	Sr	0.25219	0.5594	0.37309	1.552
Mof_O 	O 	0.2039	0.4903	0.4271	-0.532
Mof_O 	O 	0.3045	0.6178	0.2764	-0.358
Mof_O 	O 	0.2401	0.452	0.0676	-0.526
Mof_O 	O 	0.1793	0.4207	0.9889	-0.409
Mof_O 	O 	0.1612	0.4393	0.5055	-0.443
Mof_C 	C 	0.1788	0.455	0.4296	0.414
Mof_C 	C 	0.3414	0.6197	0.216	0.091
Mof_C 	C 	0.168	0.4294	0.3344	-0.12
Mof_N 	N 	0.3569	0.6605	0.254	-0.072
Mof_C 	C 	0.1896	0.4413	0.2483	0.065
Mof_C 	C 	0.1337	0.395	0.3365	-0.05
Mof_C 	C 	0.327	0.677	0.345	-0.272
Mof_C 	C 	0.2002	0.4319	0.0656	0.362
Mof_H 	H 	0.2128	0.4643	0.2481	-0.015
Mof_C 	C 	0.1773	0.4198	0.1628	-0.104
Mof_C 	C 	0.1212	0.3741	0.2488	0.099
Mof_H 	H 	0.1195	0.3862	0.3951	0.07
Mof_H 	H 	0.3278	0.711	0.3495	0.121
Mof_H 	H 	0.3397	0.6641	0.4043	0.122
Mof_H 	H 	0.295	0.6672	0.3377	0.119
Mof_C 	C 	0.1425	0.3858	0.1618	-0.052
Mof_C 	C 	0.0855	0.3384	0.2496	-0.159
Mof_H 	H 	0.1338	0.3713	0.1035	0.067
Mof_C 	C 	0.1027	0.2919	0.2538	0.201
Mof_C 	C 	0.0393	0.3525	0.2513	0.22
Mof_C 	C 	0.0644	0.254	0.2546	-0.035
Mof_O 	O 	0.1436	0.2814	0.2565	-0.212
Mof_C 	C 	0.0033	0.3156	0.2536	-0.066
Mof_O 	O 	0.0294	0.3936	0.2505	-0.241
Mof_C 	C 	0.017	0.2681	0.2537	0.029
Mof_C 	C 	0.0778	0.2079	0.2547	-0.043
Mof_C 	C 	0.9578	0.3257	0.2525	-0.004
Mof_H 	H 	0.1093	0.1993	0.2562	0.07
Mof_H 	H 	0.9492	0.3572	0.25	0.044
Mof_H 	H 	0.306	0.586	0.237	0.007
Mof_C 	C 	0.3084	0.6276	0.18	0.077
Mof_O 	O 	0.33	0.7411	0.014	-0.242
Mof_N 	N 	0.2853	0.6624	0.1411	-0.023
Mof_C 	C 	0.2513	0.6941	0.168	-0.276
Mof_C 	C 	0.2856	0.682	0.034	-0.606
Mof_H 	H 	0.2375	0.6844	0.2294	0.105
Mof_H 	H 	0.2274	0.6954	0.1187	0.118
Mof_H 	H 	0.2651	0.7246	0.1761	0.118
Mof_H 	H 	0.3086	0.7063	0.0288	0.323
Mof_H 	H 	0.2552	0.694	0.0183	0.229
Mof_H 	H 	0.2934	0.6568	0.9895	0.23
Mof_Sr	Sr	0.75219	0.0594	0.87309	1.554
Mof_O 	O 	0.7039	0.9903	0.9271	-0.532
Mof_O 	O 	0.8045	0.1178	0.7764	-0.358
Mof_O 	O 	0.7401	0.952	0.5676	-0.526
Mof_O 	O 	0.6793	0.9207	0.4889	-0.41
Mof_O 	O 	0.6612	0.9393	0.0055	-0.443
Mof_C 	C 	0.6788	0.955	0.9296	0.415
Mof_C 	C 	0.8414	0.1197	0.716	0.091
Mof_C 	C 	0.668	0.9294	0.8344	-0.12
Mof_N 	N 	0.8569	0.1605	0.754	-0.072
Mof_C 	C 	0.6896	0.9413	0.7483	0.066
Mof_C 	C 	0.6337	0.895	0.8365	-0.05
Mof_C 	C 	0.827	0.177	0.845	-0.273
Mof_C 	C 	0.7002	0.9319	0.5656	0.364
Mof_H 	H 	0.7128	0.9643	0.7481	-0.015
Mof_C 	C 	0.6773	0.9198	0.6628	-0.105
Mof_C 	C 	0.6212	0.8741	0.7488	0.099
Mof_H 	H 	0.6195	0.8862	0.8951	0.07
Mof_H 	H 	0.8278	0.211	0.8495	0.121
Mof_H 	H 	0.8397	0.1641	0.9043	0.123
Mof_H 	H 	0.795	0.1672	0.8377	0.12
Mof_C 	C 	0.6425	0.8858	0.6618	-0.051
Mof_C 	C 	0.5855	0.8384	0.7496	-0.158
Mof_H 	H 	0.6338	0.8713	0.6035	0.067
Mof_C 	C 	0.6027	0.7919	0.7538	0.201
Mof_C 	C 	0.5393	0.8525	0.7513	0.22
Mof_C 	C 	0.5644	0.754	0.7546	-0.035
Mof_O 	O 	0.6436	0.7814	0.7565	-0.212
Mof_C 	C 	0.5033	0.8156	0.7536	-0.065
Mof_O 	O 	0.5294	0.8936	0.7505	-0.24
Mof_C 	C 	0.517	0.7681	0.7537	0.029
Mof_C 	C 	0.5778	0.7079	0.7547	-0.043
Mof_C 	C 	0.4578	0.8257	0.7525	-0.004
Mof_H 	H 	0.6093	0.6993	0.7562	0.07
Mof_H 	H 	0.4492	0.8572	0.75	0.045
Mof_H 	H 	0.806	0.086	0.737	0.007
Mof_C 	C 	0.8084	0.1276	0.68	0.077
Mof_O 	O 	0.83	0.2411	0.514	-0.241
Mof_N 	N 	0.7853	0.1624	0.6411	-0.024
Mof_C 	C 	0.7513	0.1941	0.668	-0.276
Mof_C 	C 	0.7856	0.182	0.534	-0.603
Mof_H 	H 	0.7375	0.1844	0.7294	0.105
Mof_H 	H 	0.7274	0.1954	0.6187	0.118
Mof_H 	H 	0.7651	0.2246	0.6761	0.119
Mof_H 	H 	0.8086	0.2063	0.5288	0.322
Mof_H 	H 	0.7552	0.194	0.5183	0.229
Mof_H 	H 	0.7934	0.1568	0.4895	0.228
Mof_Sr	Sr	0.8094	0.49781	0.37691	1.552
Mof_O 	O 	0.7403	0.5461	0.3229	-0.532
Mof_O 	O 	0.8678	0.4455	0.4736	-0.358
Mof_O 	O 	0.702	0.5099	0.6824	-0.526
Mof_O 	O 	0.6707	0.5707	0.7611	-0.41
Mof_O 	O 	0.6893	0.5888	0.2445	-0.443
Mof_C 	C 	0.705	0.5712	0.3204	0.414
Mof_C 	C 	0.8697	0.4086	0.534	0.091
Mof_C 	C 	0.6794	0.582	0.4156	-0.12
Mof_N 	N 	0.9105	0.3931	0.496	-0.072
Mof_C 	C 	0.6913	0.5604	0.5017	0.066
Mof_C 	C 	0.645	0.6163	0.4135	-0.05
Mof_C 	C 	0.927	0.423	0.405	-0.272
Mof_C 	C 	0.6819	0.5498	0.6844	0.364
Mof_H 	H 	0.7143	0.5372	0.5019	-0.015
Mof_C 	C 	0.6698	0.5727	0.5872	-0.105
Mof_C 	C 	0.6241	0.6288	0.5012	0.099
Mof_H 	H 	0.6362	0.6305	0.3549	0.07
Mof_H 	H 	0.961	0.4222	0.4005	0.121
Mof_H 	H 	0.9141	0.4103	0.3457	0.122
Mof_H 	H 	0.9172	0.455	0.4123	0.119
Mof_C 	C 	0.6358	0.6075	0.5882	-0.051
Mof_C 	C 	0.5884	0.6645	0.5004	-0.158
Mof_H 	H 	0.6213	0.6162	0.6465	0.067
Mof_C 	C 	0.5419	0.6473	0.4962	0.201
Mof_C 	C 	0.6025	0.7107	0.4987	0.22
Mof_C 	C 	0.504	0.6856	0.4954	-0.035
Mof_O 	O 	0.5314	0.6064	0.4935	-0.212
Mof_C 	C 	0.5656	0.7467	0.4964	-0.065
Mof_O 	O 	0.6436	0.7206	0.4995	-0.241
Mof_C 	C 	0.5181	0.733	0.4963	0.029
Mof_C 	C 	0.4579	0.6722	0.4953	-0.043
Mof_C 	C 	0.5757	0.7922	0.4975	-0.004
Mof_H 	H 	0.4493	0.6407	0.4938	0.07
Mof_H 	H 	0.6072	0.8008	0.5	0.045
Mof_H 	H 	0.836	0.444	0.513	0.007
Mof_C 	C 	0.8776	0.4416	0.57	0.077
Mof_O 	O 	0.9911	0.42	0.736	-0.241
Mof_N 	N 	0.9124	0.4647	0.6089	-0.024
Mof_C 	C 	0.9441	0.4987	0.582	-0.276
Mof_C 	C 	0.932	0.4644	0.716	-0.603
Mof_H 	H 	0.9344	0.5125	0.5206	0.105
Mof_H 	H 	0.9454	0.5226	0.6313	0.118
Mof_H 	H 	0.9746	0.4849	0.5739	0.118
Mof_H 	H 	0.9563	0.4414	0.7212	0.322
Mof_H 	H 	0.944	0.4948	0.7317	0.229
Mof_H 	H 	0.9068	0.4566	0.7605	0.228
Mof_Sr	Sr	0.3094	0.99781	0.87691	1.553
Mof_O 	O 	0.2403	0.0461	0.8229	-0.531
Mof_O 	O 	0.3678	0.9455	0.9736	-0.357
Mof_O 	O 	0.202	0.0099	0.1824	-0.526
Mof_O 	O 	0.1707	0.0707	0.2611	-0.41
Mof_O 	O 	0.1893	0.0888	0.7445	-0.443
Mof_C 	C 	0.205	0.0712	0.8204	0.414
Mof_C 	C 	0.3697	0.9086	0.034	0.09
Mof_C 	C 	0.1794	0.082	0.9156	-0.117
Mof_N 	N 	0.4105	0.8931	0.996	-0.071
Mof_C 	C 	0.1913	0.0604	0.0017	0.062
Mof_C 	C 	0.145	0.1163	0.9135	-0.05
Mof_C 	C 	0.427	0.923	0.905	-0.273
Mof_C 	C 	0.1819	0.0498	0.1844	0.363
Mof_H 	H 	0.2143	0.0372	0.0019	-0.014
Mof_C 	C 	0.1698	0.0727	0.0872	-0.103
Mof_C 	C 	0.1241	0.1288	0.0012	0.098
Mof_H 	H 	0.1362	0.1305	0.8549	0.07
Mof_H 	H 	0.461	0.9222	0.9005	0.121
Mof_H 	H 	0.4141	0.9103	0.8457	0.122
Mof_H 	H 	0.4172	0.955	0.9123	0.12
Mof_C 	C 	0.1358	0.1075	0.0882	-0.053
Mof_C 	C 	0.0884	0.1645	0.0004	-0.163
Mof_H 	H 	0.1213	0.1162	0.1465	0.067
Mof_C 	C 	0.0419	0.1473	0.9962	0.204
Mof_C 	C 	0.1025	0.2107	0.9987	0.224
Mof_C 	C 	0.004	0.1856	0.9954	-0.035
Mof_O 	O 	0.0314	0.1064	0.9935	-0.212
Mof_C 	C 	0.0656	0.2467	0.9964	-0.068
Mof_O 	O 	0.1436	0.2206	0.9995	-0.241
Mof_C 	C 	0.0181	0.233	0.9963	0.029
Mof_C 	C 	0.9579	0.1722	0.9953	-0.045
Mof_C 	C 	0.0757	0.2922	0.9975	0.002
Mof_H 	H 	0.9493	0.1407	0.9938	0.072
Mof_H 	H 	0.1072	0.3008	-0	0.041
Mof_H 	H 	0.336	0.944	0.013	0.006
Mof_C 	C 	0.3776	0.9416	0.07	0.078
Mof_O 	O 	0.4911	0.92	0.236	-0.241
Mof_N 	N 	0.4124	0.9647	0.1089	-0.025
Mof_C 	C 	0.4441	0.9987	0.082	-0.268
Mof_C 	C 	0.432	0.9644	0.216	-0.604
Mof_H 	H 	0.4344	0.0125	0.0206	0.102
Mof_H 	H 	0.4454	0.0226	0.1313	0.115
Mof_H 	H 	0.4746	0.9849	0.0739	0.116
Mof_H 	H 	0.4563	0.9414	0.2212	0.322
Mof_H 	H 	0.444	0.9948	0.2317	0.229
Mof_H 	H 	0.4068	0.9566	0.2605	0.229
Mof_Sr	Sr	0.6906	0.50219	0.87691	1.553
Mof_O 	O 	0.7597	0.4539	0.8229	-0.531
Mof_O 	O 	0.6322	0.5545	0.9736	-0.357
Mof_O 	O 	0.798	0.4901	0.1824	-0.526
Mof_O 	O 	0.8293	0.4293	0.2611	-0.41
Mof_O 	O 	0.8107	0.4112	0.7445	-0.443
Mof_C 	C 	0.795	0.4288	0.8204	0.414
Mof_C 	C 	0.6303	0.5914	0.034	0.09
Mof_C 	C 	0.8206	0.418	0.9156	-0.118
Mof_N 	N 	0.5895	0.6069	0.996	-0.071
Mof_C 	C 	0.8087	0.4396	0.0017	0.063
Mof_C 	C 	0.855	0.3837	0.9135	-0.05
Mof_C 	C 	0.573	0.577	0.905	-0.273
Mof_C 	C 	0.8181	0.4502	0.1844	0.363
Mof_H 	H 	0.7857	0.4628	0.0019	-0.014
Mof_C 	C 	0.8302	0.4273	0.0872	-0.104
Mof_C 	C 	0.8759	0.3712	0.0012	0.099
Mof_H 	H 	0.8638	0.3695	0.8549	0.07
Mof_H 	H 	0.539	0.5778	0.9005	0.121
Mof_H 	H 	0.5859	0.5897	0.8457	0.122
Mof_H 	H 	0.5828	0.545	0.9123	0.12
Mof_C 	C 	0.8642	0.3925	0.0882	-0.052
Mof_C 	C 	0.9116	0.3355	0.0004	-0.163
Mof_H 	H 	0.8787	0.3838	0.1465	0.067
Mof_C 	C 	0.9581	0.3527	0.9962	0.204
Mof_C 	C 	0.8975	0.2893	0.9987	0.224
Mof_C 	C 	0.996	0.3144	0.9954	-0.035
Mof_O 	O 	0.9686	0.3936	0.9935	-0.212
Mof_C 	C 	0.9344	0.2533	0.9964	-0.068
Mof_O 	O 	0.8564	0.2794	0.9995	-0.241
Mof_C 	C 	0.9819	0.267	0.9963	0.03
Mof_C 	C 	0.0421	0.3278	0.9953	-0.045
Mof_C 	C 	0.9243	0.2078	0.9975	0.002
Mof_H 	H 	0.0507	0.3593	0.9938	0.071
Mof_H 	H 	0.8928	0.1992	-0	0.041
Mof_H 	H 	0.664	0.556	0.013	0.006
Mof_C 	C 	0.6224	0.5584	0.07	0.077
Mof_O 	O 	0.5089	0.58	0.236	-0.241
Mof_N 	N 	0.5876	0.5353	0.1089	-0.024
Mof_C 	C 	0.5559	0.5013	0.082	-0.275
Mof_C 	C 	0.568	0.5356	0.216	-0.603
Mof_H 	H 	0.5656	0.4875	0.0206	0.105
Mof_H 	H 	0.5546	0.4774	0.1313	0.118
Mof_H 	H 	0.5254	0.5151	0.0739	0.118
Mof_H 	H 	0.5437	0.5586	0.2212	0.322
Mof_H 	H 	0.556	0.5052	0.2317	0.229
Mof_H 	H 	0.5932	0.5434	0.2605	0.228
Mof_Sr	Sr	0.1906	0.00219	0.37691	1.553
Mof_O 	O 	0.2597	0.9539	0.3229	-0.532
Mof_O 	O 	0.1322	0.0545	0.4736	-0.358
Mof_O 	O 	0.298	0.9901	0.6824	-0.526
Mof_O 	O 	0.3293	0.9293	0.7611	-0.41
Mof_O 	O 	0.3107	0.9112	0.2445	-0.443
Mof_C 	C 	0.295	0.9288	0.3204	0.414
Mof_C 	C 	0.1303	0.0914	0.534	0.091
Mof_C 	C 	0.3206	0.918	0.4156	-0.12
Mof_N 	N 	0.0895	0.1069	0.496	-0.072
Mof_C 	C 	0.3087	0.9396	0.5017	0.066
Mof_C 	C 	0.355	0.8837	0.4135	-0.05
Mof_C 	C 	0.073	0.077	0.405	-0.272
Mof_C 	C 	0.3181	0.9502	0.6844	0.364
Mof_H 	H 	0.2857	0.9628	0.5019	-0.015
Mof_C 	C 	0.3302	0.9273	0.5872	-0.104
Mof_C 	C 	0.3759	0.8712	0.5012	0.099
Mof_H 	H 	0.3638	0.8695	0.3549	0.07
Mof_H 	H 	0.039	0.0778	0.4005	0.121
Mof_H 	H 	0.0859	0.0897	0.3457	0.122
Mof_H 	H 	0.0828	0.045	0.4123	0.119
Mof_C 	C 	0.3642	0.8925	0.5882	-0.051
Mof_C 	C 	0.4116	0.8355	0.5004	-0.158
Mof_H 	H 	0.3787	0.8838	0.6465	0.067
Mof_C 	C 	0.4581	0.8527	0.4962	0.201
Mof_C 	C 	0.3975	0.7893	0.4987	0.22
Mof_C 	C 	0.496	0.8144	0.4954	-0.035
Mof_O 	O 	0.4686	0.8936	0.4935	-0.212
Mof_C 	C 	0.4344	0.7533	0.4964	-0.065
Mof_O 	O 	0.3564	0.7794	0.4995	-0.241
Mof_C 	C 	0.4819	0.767	0.4963	0.029
Mof_C 	C 	0.5421	0.8278	0.4953	-0.043
Mof_C 	C 	0.4243	0.7078	0.4975	-0.004
Mof_H 	H 	0.5507	0.8593	0.4938	0.07
Mof_H 	H 	0.3928	0.6992	0.5	0.045
Mof_H 	H 	0.164	0.056	0.513	0.007
Mof_C 	C 	0.1224	0.0584	0.57	0.077
Mof_O 	O 	0.0089	0.08	0.736	-0.241
Mof_N 	N 	0.0876	0.0353	0.6089	-0.024
Mof_C 	C 	0.0559	0.0013	0.582	-0.274
Mof_C 	C 	0.068	0.0356	0.716	-0.604
Mof_H 	H 	0.0656	0.9875	0.5206	0.105
Mof_H 	H 	0.0546	0.9774	0.6313	0.117
Mof_H 	H 	0.0254	0.0151	0.5739	0.118
Mof_H 	H 	0.0437	0.0586	0.7212	0.322
Mof_H 	H 	0.056	0.0052	0.7317	0.229
Mof_H 	H 	0.0932	0.0434	0.7605	0.229
Mof_Sr	Sr	0.75219	0.5594	0.12691	1.552
Mof_O 	O 	0.7039	0.4903	0.0729	-0.532
Mof_O 	O 	0.8045	0.6178	0.2236	-0.358
Mof_O 	O 	0.7401	0.452	0.4324	-0.526
Mof_O 	O 	0.6793	0.4207	0.5111	-0.41
Mof_O 	O 	0.6612	0.4393	0.9945	-0.442
Mof_C 	C 	0.6788	0.455	0.0704	0.413
Mof_C 	C 	0.8414	0.6197	0.284	0.091
Mof_C 	C 	0.668	0.4294	0.1656	-0.12
Mof_N 	N 	0.8569	0.6605	0.246	-0.072
Mof_C 	C 	0.6896	0.4413	0.2517	0.065
Mof_C 	C 	0.6337	0.395	0.1635	-0.051
Mof_C 	C 	0.827	0.677	0.155	-0.272
Mof_C 	C 	0.7002	0.4319	0.4344	0.364
Mof_H 	H 	0.7128	0.4643	0.2519	-0.015
Mof_C 	C 	0.6773	0.4198	0.3372	-0.104
Mof_C 	C 	0.6212	0.3741	0.2512	0.099
Mof_H 	H 	0.6195	0.3862	0.1049	0.07
Mof_H 	H 	0.8278	0.711	0.1505	0.121
Mof_H 	H 	0.8397	0.6641	0.0957	0.122
Mof_H 	H 	0.795	0.6672	0.1623	0.119
Mof_C 	C 	0.6425	0.3858	0.3382	-0.052
Mof_C 	C 	0.5855	0.3384	0.2504	-0.159
Mof_H 	H 	0.6338	0.3713	0.3965	0.067
Mof_C 	C 	0.6027	0.2919	0.2462	0.201
Mof_C 	C 	0.5393	0.3525	0.2487	0.22
Mof_C 	C 	0.5644	0.254	0.2454	-0.035
Mof_O 	O 	0.6436	0.2814	0.2435	-0.212
Mof_C 	C 	0.5033	0.3156	0.2464	-0.066
Mof_O 	O 	0.5294	0.3936	0.2495	-0.241
Mof_C 	C 	0.517	0.2681	0.2463	0.029
Mof_C 	C 	0.5778	0.2079	0.2453	-0.043
Mof_C 	C 	0.4578	0.3257	0.2475	-0.004
Mof_H 	H 	0.6093	0.1993	0.2438	0.07
Mof_H 	H 	0.4492	0.3572	0.25	0.045
Mof_H 	H 	0.806	0.586	0.263	0.007
Mof_C 	C 	0.8084	0.6276	0.32	0.077
Mof_O 	O 	0.83	0.7411	0.486	-0.241
Mof_N 	N 	0.7853	0.6624	0.3589	-0.024
Mof_C 	C 	0.7513	0.6941	0.332	-0.276
Mof_C 	C 	0.7856	0.682	0.466	-0.603
Mof_H 	H 	0.7375	0.6844	0.2706	0.105
Mof_H 	H 	0.7274	0.6954	0.3813	0.118
Mof_H 	H 	0.7651	0.7246	0.3239	0.119
Mof_H 	H 	0.8086	0.7063	0.4712	0.322
Mof_H 	H 	0.7552	0.694	0.4817	0.229
Mof_H 	H 	0.7934	0.6568	0.5105	0.228
Mof_Sr	Sr	0.25219	0.0594	0.62691	1.553
Mof_O 	O 	0.2039	0.9903	0.5729	-0.532
Mof_O 	O 	0.3045	0.1178	0.7236	-0.358
Mof_O 	O 	0.2401	0.952	0.9324	-0.526
Mof_O 	O 	0.1793	0.9207	0.0111	-0.41
Mof_O 	O 	0.1612	0.9393	0.4945	-0.443
Mof_C 	C 	0.1788	0.955	0.5704	0.414
Mof_C 	C 	0.3414	0.1197	0.784	0.091
Mof_C 	C 	0.168	0.9294	0.6656	-0.12
Mof_N 	N 	0.3569	0.1605	0.746	-0.072
Mof_C 	C 	0.1896	0.9413	0.7517	0.066
Mof_C 	C 	0.1337	0.895	0.6635	-0.05
Mof_C 	C 	0.327	0.177	0.655	-0.272
Mof_C 	C 	0.2002	0.9319	0.9344	0.364
Mof_H 	H 	0.2128	0.9643	0.7519	-0.015
Mof_C 	C 	0.1773	0.9198	0.8372	-0.105
Mof_C 	C 	0.1212	0.8741	0.7512	0.099
Mof_H 	H 	0.1195	0.8862	0.6049	0.07
Mof_H 	H 	0.3278	0.211	0.6505	0.121
Mof_H 	H 	0.3397	0.1641	0.5957	0.122
Mof_H 	H 	0.295	0.1672	0.6623	0.119
Mof_C 	C 	0.1425	0.8858	0.8382	-0.051
Mof_C 	C 	0.0855	0.8384	0.7504	-0.158
Mof_H 	H 	0.1338	0.8713	0.8965	0.067
Mof_C 	C 	0.1027	0.7919	0.7462	0.201
Mof_C 	C 	0.0393	0.8525	0.7487	0.22
Mof_C 	C 	0.0644	0.754	0.7454	-0.035
Mof_O 	O 	0.1436	0.7814	0.7435	-0.212
Mof_C 	C 	0.0033	0.8156	0.7464	-0.066
Mof_O 	O 	0.0294	0.8936	0.7495	-0.241
Mof_C 	C 	0.017	0.7681	0.7463	0.029
Mof_C 	C 	0.0778	0.7079	0.7453	-0.043
Mof_C 	C 	0.9578	0.8257	0.7475	-0.004
Mof_H 	H 	0.1093	0.6993	0.7438	0.07
Mof_H 	H 	0.9492	0.8572	0.75	0.045
Mof_H 	H 	0.306	0.086	0.763	0.007
Mof_C 	C 	0.3084	0.1276	0.82	0.077
Mof_O 	O 	0.33	0.2411	0.986	-0.24
Mof_N 	N 	0.2853	0.1624	0.8589	-0.024
Mof_C 	C 	0.2513	0.1941	0.832	-0.277
Mof_C 	C 	0.2856	0.182	0.966	-0.595
Mof_H 	H 	0.2375	0.1844	0.7706	0.106
Mof_H 	H 	0.2274	0.1954	0.8813	0.118
Mof_H 	H 	0.2651	0.2246	0.8239	0.119
Mof_H 	H 	0.3086	0.2063	0.9712	0.319
Mof_H 	H 	0.2552	0.194	0.9817	0.227
Mof_H 	H 	0.2934	0.1568	0.0105	0.224
Mof_Sr	Sr	0.74781	0.4406	0.62691	1.552
Mof_O 	O 	0.7961	0.5097	0.5729	-0.532
Mof_O 	O 	0.6955	0.3822	0.7236	-0.358
Mof_O 	O 	0.7599	0.548	0.9324	-0.526
Mof_O 	O 	0.8207	0.5793	0.0111	-0.411
Mof_O 	O 	0.8388	0.5607	0.4945	-0.443
Mof_C 	C 	0.8212	0.545	0.5704	0.414
Mof_C 	C 	0.6586	0.3803	0.784	0.091
Mof_C 	C 	0.832	0.5706	0.6656	-0.12
Mof_N 	N 	0.6431	0.3395	0.746	-0.072
Mof_C 	C 	0.8104	0.5587	0.7517	0.066
Mof_C 	C 	0.8663	0.605	0.6635	-0.05
Mof_C 	C 	0.673	0.323	0.655	-0.272
Mof_C 	C 	0.7998	0.5681	0.9344	0.365
Mof_H 	H 	0.7872	0.5357	0.7519	-0.015
Mof_C 	C 	0.8227	0.5802	0.8372	-0.105
Mof_C 	C 	0.8788	0.6259	0.7512	0.099
Mof_H 	H 	0.8805	0.6138	0.6049	0.07
Mof_H 	H 	0.6722	0.289	0.6505	0.121
Mof_H 	H 	0.6603	0.3359	0.5957	0.122
Mof_H 	H 	0.705	0.3328	0.6623	0.119
Mof_C 	C 	0.8575	0.6142	0.8382	-0.051
Mof_C 	C 	0.9145	0.6616	0.7504	-0.158
Mof_H 	H 	0.8662	0.6287	0.8965	0.067
Mof_C 	C 	0.8973	0.7081	0.7462	0.201
Mof_C 	C 	0.9607	0.6475	0.7487	0.22
Mof_C 	C 	0.9356	0.746	0.7454	-0.035
Mof_O 	O 	0.8564	0.7186	0.7435	-0.212
Mof_C 	C 	0.9967	0.6844	0.7464	-0.066
Mof_O 	O 	0.9706	0.6064	0.7495	-0.241
Mof_C 	C 	0.983	0.7319	0.7463	0.029
Mof_C 	C 	0.9222	0.7921	0.7453	-0.043
Mof_C 	C 	0.0422	0.6743	0.7475	-0.004
Mof_H 	H 	0.8907	0.8007	0.7438	0.07
Mof_H 	H 	0.0508	0.6428	0.75	0.045
Mof_H 	H 	0.694	0.414	0.763	0.007
Mof_C 	C 	0.6916	0.3724	0.82	0.077
Mof_O 	O 	0.67	0.2589	0.986	-0.24
Mof_N 	N 	0.7147	0.3376	0.8589	-0.024
Mof_C 	C 	0.7487	0.3059	0.832	-0.277
Mof_C 	C 	0.7144	0.318	0.966	-0.596
Mof_H 	H 	0.7625	0.3156	0.7706	0.106
Mof_H 	H 	0.7726	0.3046	0.8813	0.118
Mof_H 	H 	0.7349	0.2754	0.8239	0.119
Mof_H 	H 	0.6914	0.2937	0.9712	0.319
Mof_H 	H 	0.7448	0.306	0.9817	0.227
Mof_H 	H 	0.7066	0.3432	0.0105	0.225
Mof_Sr	Sr	0.24781	0.9406	0.12691	1.553
Mof_O 	O 	0.2961	0.0097	0.0729	-0.531
Mof_O 	O 	0.1955	0.8822	0.2236	-0.358
Mof_O 	O 	0.2599	0.048	0.4324	-0.526
Mof_O 	O 	0.3207	0.0793	0.5111	-0.41
Mof_O 	O 	0.3388	0.0607	0.9945	-0.441
Mof_C 	C 	0.3212	0.045	0.0704	0.412
Mof_C 	C 	0.1586	0.8803	0.284	0.091
Mof_C 	C 	0.332	0.0706	0.1656	-0.119
Mof_N 	N 	0.1431	0.8395	0.246	-0.072
Mof_C 	C 	0.3104	0.0587	0.2517	0.065
Mof_C 	C 	0.3663	0.105	0.1635	-0.051
Mof_C 	C 	0.173	0.823	0.155	-0.272
Mof_C 	C 	0.2998	0.0681	0.4344	0.364
Mof_H 	H 	0.2872	0.0357	0.2519	-0.015
Mof_C 	C 	0.3227	0.0802	0.3372	-0.104
Mof_C 	C 	0.3788	0.1259	0.2512	0.099
Mof_H 	H 	0.3805	0.1138	0.1049	0.07
Mof_H 	H 	0.1722	0.789	0.1505	0.121
Mof_H 	H 	0.1603	0.8359	0.0957	0.122
Mof_H 	H 	0.205	0.8328	0.1623	0.119
Mof_C 	C 	0.3575	0.1142	0.3382	-0.052
Mof_C 	C 	0.4145	0.1616	0.2504	-0.159
Mof_H 	H 	0.3662	0.1287	0.3965	0.067
Mof_C 	C 	0.3973	0.2081	0.2462	0.201
Mof_C 	C 	0.4607	0.1475	0.2487	0.22
Mof_C 	C 	0.4356	0.246	0.2454	-0.035
Mof_O 	O 	0.3564	0.2186	0.2435	-0.212
Mof_C 	C 	0.4967	0.1844	0.2464	-0.066
Mof_O 	O 	0.4706	0.1064	0.2495	-0.241
Mof_C 	C 	0.483	0.2319	0.2463	0.029
Mof_C 	C 	0.4222	0.2921	0.2453	-0.043
Mof_C 	C 	0.5422	0.1743	0.2475	-0.004
Mof_H 	H 	0.3907	0.3007	0.2438	0.07
Mof_H 	H 	0.5508	0.1428	0.25	0.045
Mof_H 	H 	0.194	0.914	0.263	0.007
Mof_C 	C 	0.1916	0.8724	0.32	0.077
Mof_O 	O 	0.17	0.7589	0.486	-0.241
Mof_N 	N 	0.2147	0.8376	0.3589	-0.024
Mof_C 	C 	0.2487	0.8059	0.332	-0.276
Mof_C 	C 	0.2144	0.818	0.466	-0.603
Mof_H 	H 	0.2625	0.8156	0.2706	0.105
Mof_H 	H 	0.2726	0.8046	0.3813	0.118
Mof_H 	H 	0.2349	0.7754	0.3239	0.119
Mof_H 	H 	0.1914	0.7937	0.4712	0.322
Mof_H 	H 	0.2448	0.806	0.4817	0.229
Mof_H 	H 	0.2066	0.8432	0.5105	0.228
_end
