data_functionalizedCrystal
_audit_creation_method	'EQeq! by Chris Wilmer'
_symmetry_space_group_name_H-M	'P1'
_symmetry_Int_Tables_number	1
_symmetry_cell_setting	triclinic
loop_
_symmetry_equiv_pos_as_xyz
  x,y,z
_cell_length_a	35.4
_cell_length_b	35.4
_cell_length_c	35.4
_cell_angle_alpha	90
_cell_angle_beta	90
_cell_angle_gamma	90
loop_
_atom_site_label
_atom_site_type_symbol
_atom_site_fract_x
_atom_site_fract_y
_atom_site_fract_z
_atom_site_charge
Mof_O 	O 	0.0394	0.53921	0.78158	-0.422
Mof_C 	C 	0.0958	0.5922	0.7838	0.078
Mof_H 	H 	0.0876	0.5821	0.8066	0.009
Mof_C 	C 	0.124	0.6193	0.7831	-0.168
Mof_H 	H 	0.1351	0.6266	0.8058	0.077
Mof_C 	C 	0.1926	0.6671	0.7779	0.062
Mof_H 	H 	0.1929	0.6493	0.7972	-0.013
Mof_C 	C 	0.2198	0.696	0.7768	-0.202
Mof_C 	C 	0.2695	0.6522	0.8062	-0.753
Mof_H 	H 	0.2503	0.6332	0.8077	0.243
Mof_H 	H 	0.2836	0.649	0.7833	0.246
Mof_H 	H 	0.2862	0.65	0.8275	0.241
Mof_O 	O 	0.9606	0.46079	0.78158	-0.417
Mof_C 	C 	0.9042	0.4078	0.7838	0.077
Mof_H 	H 	0.9124	0.4179	0.8066	0.011
Mof_C 	C 	0.876	0.3807	0.7831	-0.166
Mof_H 	H 	0.8649	0.3734	0.8058	0.077
Mof_C 	C 	0.8074	0.3329	0.7779	0.063
Mof_H 	H 	0.8071	0.3507	0.7972	-0.012
Mof_C 	C 	0.7802	0.304	0.7768	-0.201
Mof_C 	C 	0.7305	0.3478	0.8062	-0.752
Mof_H 	H 	0.7497	0.3668	0.8077	0.244
Mof_H 	H 	0.7164	0.351	0.7833	0.247
Mof_H 	H 	0.7138	0.35	0.8275	0.242
Mof_O 	O 	0.9606	0.53921	0.21842	-0.417
Mof_C 	C 	0.9042	0.5922	0.2162	0.078
Mof_H 	H 	0.9124	0.5821	0.1934	0.011
Mof_C 	C 	0.876	0.6193	0.2169	-0.166
Mof_H 	H 	0.8649	0.6266	0.1942	0.077
Mof_C 	C 	0.8074	0.6671	0.2221	0.063
Mof_H 	H 	0.8071	0.6493	0.2028	-0.012
Mof_C 	C 	0.7802	0.696	0.2232	-0.2
Mof_C 	C 	0.7305	0.6522	0.1938	-0.75
Mof_H 	H 	0.7497	0.6332	0.1923	0.243
Mof_H 	H 	0.7164	0.649	0.2167	0.246
Mof_H 	H 	0.7138	0.65	0.1725	0.24
Mof_O 	O 	0.0394	0.46079	0.21842	-0.422
Mof_C 	C 	0.0958	0.4078	0.2162	0.078
Mof_H 	H 	0.0876	0.4179	0.1934	0.009
Mof_C 	C 	0.124	0.3807	0.2169	-0.167
Mof_H 	H 	0.1351	0.3734	0.1942	0.077
Mof_C 	C 	0.1926	0.3329	0.2221	0.062
Mof_H 	H 	0.1929	0.3507	0.2028	-0.012
Mof_C 	C 	0.2198	0.304	0.2232	-0.2
Mof_C 	C 	0.2695	0.3478	0.1938	-0.748
Mof_H 	H 	0.2503	0.3668	0.1923	0.242
Mof_H 	H 	0.2836	0.351	0.2167	0.245
Mof_H 	H 	0.2862	0.35	0.1725	0.24
Mof_O 	O 	0.78158	0.0394	0.53921	-0.421
Mof_C 	C 	0.7838	0.0958	0.5922	0.079
Mof_H 	H 	0.8066	0.0876	0.5821	0.01
Mof_C 	C 	0.7831	0.124	0.6193	-0.167
Mof_H 	H 	0.8058	0.1351	0.6266	0.078
Mof_C 	C 	0.7779	0.1926	0.6671	0.063
Mof_H 	H 	0.7972	0.1929	0.6493	-0.012
Mof_C 	C 	0.7768	0.2198	0.696	-0.201
Mof_C 	C 	0.8062	0.2695	0.6522	-0.752
Mof_H 	H 	0.8077	0.2503	0.6332	0.244
Mof_H 	H 	0.7833	0.2836	0.649	0.247
Mof_H 	H 	0.8275	0.2862	0.65	0.242
Mof_O 	O 	0.78158	0.9606	0.46079	-0.416
Mof_C 	C 	0.7838	0.9042	0.4078	0.078
Mof_H 	H 	0.8066	0.9124	0.4179	0.012
Mof_C 	C 	0.7831	0.876	0.3807	-0.165
Mof_H 	H 	0.8058	0.8649	0.3734	0.078
Mof_C 	C 	0.7779	0.8074	0.3329	0.063
Mof_H 	H 	0.7972	0.8071	0.3507	-0.012
Mof_C 	C 	0.7768	0.7802	0.304	-0.201
Mof_C 	C 	0.8062	0.7305	0.3478	-0.752
Mof_H 	H 	0.8077	0.7497	0.3668	0.244
Mof_H 	H 	0.7833	0.7164	0.351	0.247
Mof_H 	H 	0.8275	0.7138	0.35	0.242
Mof_O 	O 	0.21842	0.9606	0.53921	-0.417
Mof_C 	C 	0.2162	0.9042	0.5922	0.078
Mof_H 	H 	0.1934	0.9124	0.5821	0.011
Mof_C 	C 	0.2169	0.876	0.6193	-0.166
Mof_H 	H 	0.1942	0.8649	0.6266	0.077
Mof_C 	C 	0.2221	0.8074	0.6671	0.063
Mof_H 	H 	0.2028	0.8071	0.6493	-0.012
Mof_C 	C 	0.2232	0.7802	0.696	-0.2
Mof_C 	C 	0.1938	0.7305	0.6522	-0.75
Mof_H 	H 	0.1923	0.7497	0.6332	0.243
Mof_H 	H 	0.2167	0.7164	0.649	0.246
Mof_H 	H 	0.1725	0.7138	0.65	0.24
Mof_O 	O 	0.21842	0.0394	0.46079	-0.422
Mof_C 	C 	0.2162	0.0958	0.4078	0.078
Mof_H 	H 	0.1934	0.0876	0.4179	0.009
Mof_C 	C 	0.2169	0.124	0.3807	-0.167
Mof_H 	H 	0.1942	0.1351	0.3734	0.077
Mof_C 	C 	0.2221	0.1926	0.3329	0.062
Mof_H 	H 	0.2028	0.1929	0.3507	-0.012
Mof_C 	C 	0.2232	0.2198	0.304	-0.2
Mof_C 	C 	0.1938	0.2695	0.3478	-0.748
Mof_H 	H 	0.1923	0.2503	0.3668	0.242
Mof_H 	H 	0.2167	0.2836	0.351	0.245
Mof_H 	H 	0.1725	0.2862	0.35	0.24
Mof_O 	O 	0.53921	0.78158	0.0394	-0.421
Mof_C 	C 	0.5922	0.7838	0.0958	0.079
Mof_H 	H 	0.5821	0.8066	0.0876	0.01
Mof_C 	C 	0.6193	0.7831	0.124	-0.167
Mof_H 	H 	0.6266	0.8058	0.1351	0.078
Mof_C 	C 	0.6671	0.7779	0.1926	0.063
Mof_H 	H 	0.6493	0.7972	0.1929	-0.012
Mof_C 	C 	0.696	0.7768	0.2198	-0.201
Mof_C 	C 	0.6522	0.8062	0.2695	-0.752
Mof_H 	H 	0.6332	0.8077	0.2503	0.244
Mof_H 	H 	0.649	0.7833	0.2836	0.247
Mof_H 	H 	0.65	0.8275	0.2862	0.242
Mof_O 	O 	0.46079	0.78158	0.9606	-0.416
Mof_C 	C 	0.4078	0.7838	0.9042	0.078
Mof_H 	H 	0.4179	0.8066	0.9124	0.012
Mof_C 	C 	0.3807	0.7831	0.876	-0.165
Mof_H 	H 	0.3734	0.8058	0.8649	0.078
Mof_C 	C 	0.3329	0.7779	0.8074	0.063
Mof_H 	H 	0.3507	0.7972	0.8071	-0.012
Mof_C 	C 	0.304	0.7768	0.7802	-0.201
Mof_C 	C 	0.3478	0.8062	0.7305	-0.752
Mof_H 	H 	0.3668	0.8077	0.7497	0.244
Mof_H 	H 	0.351	0.7833	0.7164	0.247
Mof_H 	H 	0.35	0.8275	0.7138	0.242
Mof_O 	O 	0.53921	0.21842	0.9606	-0.417
Mof_C 	C 	0.5922	0.2162	0.9042	0.078
Mof_H 	H 	0.5821	0.1934	0.9124	0.011
Mof_C 	C 	0.6193	0.2169	0.876	-0.166
Mof_H 	H 	0.6266	0.1942	0.8649	0.077
Mof_C 	C 	0.6671	0.2221	0.8074	0.063
Mof_H 	H 	0.6493	0.2028	0.8071	-0.012
Mof_C 	C 	0.696	0.2232	0.7802	-0.2
Mof_C 	C 	0.6522	0.1938	0.7305	-0.75
Mof_H 	H 	0.6332	0.1923	0.7497	0.243
Mof_H 	H 	0.649	0.2167	0.7164	0.246
Mof_H 	H 	0.65	0.1725	0.7138	0.24
Mof_O 	O 	0.46079	0.21842	0.0394	-0.422
Mof_C 	C 	0.4078	0.2162	0.0958	0.078
Mof_H 	H 	0.4179	0.1934	0.0876	0.009
Mof_C 	C 	0.3807	0.2169	0.124	-0.167
Mof_H 	H 	0.3734	0.1942	0.1351	0.077
Mof_C 	C 	0.3329	0.2221	0.1926	0.062
Mof_H 	H 	0.3507	0.2028	0.1929	-0.012
Mof_C 	C 	0.304	0.2232	0.2198	-0.2
Mof_C 	C 	0.3478	0.1938	0.2695	-0.748
Mof_H 	H 	0.3668	0.1923	0.2503	0.242
Mof_H 	H 	0.351	0.2167	0.2836	0.245
Mof_H 	H 	0.35	0.1725	0.2862	0.24
Mof_O 	O 	0.03921	0.5394	0.71842	-0.422
Mof_C 	C 	0.0922	0.5958	0.7162	0.079
Mof_H 	H 	0.0821	0.5876	0.6934	0.01
Mof_C 	C 	0.1193	0.624	0.7169	-0.167
Mof_H 	H 	0.1266	0.6351	0.6942	0.077
Mof_C 	C 	0.1671	0.6926	0.7221	0.063
Mof_H 	H 	0.1493	0.6929	0.7028	-0.013
Mof_C 	C 	0.196	0.7198	0.7232	-0.201
Mof_C 	C 	0.1522	0.7695	0.6938	-0.75
Mof_H 	H 	0.1332	0.7503	0.6923	0.243
Mof_H 	H 	0.149	0.7836	0.7167	0.246
Mof_H 	H 	0.15	0.7862	0.6725	0.24
Mof_O 	O 	0.96079	0.4606	0.71842	-0.416
Mof_C 	C 	0.9078	0.4042	0.7162	0.078
Mof_H 	H 	0.9179	0.4124	0.6934	0.012
Mof_C 	C 	0.8807	0.376	0.7169	-0.165
Mof_H 	H 	0.8734	0.3649	0.6942	0.078
Mof_C 	C 	0.8329	0.3074	0.7221	0.063
Mof_H 	H 	0.8507	0.3071	0.7028	-0.012
Mof_C 	C 	0.804	0.2802	0.7232	-0.201
Mof_C 	C 	0.8478	0.2305	0.6938	-0.753
Mof_H 	H 	0.8668	0.2497	0.6923	0.245
Mof_H 	H 	0.851	0.2164	0.7167	0.247
Mof_H 	H 	0.85	0.2138	0.6725	0.242
Mof_O 	O 	0.03921	0.4606	0.28158	-0.422
Mof_C 	C 	0.0922	0.4042	0.2838	0.079
Mof_H 	H 	0.0821	0.4124	0.3066	0.01
Mof_C 	C 	0.1193	0.376	0.2831	-0.167
Mof_H 	H 	0.1266	0.3649	0.3058	0.077
Mof_C 	C 	0.1671	0.3074	0.2779	0.062
Mof_H 	H 	0.1493	0.3071	0.2972	-0.012
Mof_C 	C 	0.196	0.2802	0.2768	-0.2
Mof_C 	C 	0.1522	0.2305	0.3062	-0.746
Mof_H 	H 	0.1332	0.2497	0.3077	0.241
Mof_H 	H 	0.149	0.2164	0.2833	0.244
Mof_H 	H 	0.15	0.2138	0.3275	0.239
Mof_O 	O 	0.96079	0.5394	0.28158	-0.416
Mof_C 	C 	0.9078	0.5958	0.2838	0.078
Mof_H 	H 	0.9179	0.5876	0.3066	0.012
Mof_C 	C 	0.8807	0.624	0.2831	-0.165
Mof_H 	H 	0.8734	0.6351	0.3058	0.078
Mof_C 	C 	0.8329	0.6926	0.2779	0.063
Mof_H 	H 	0.8507	0.6929	0.2972	-0.012
Mof_C 	C 	0.804	0.7198	0.2768	-0.201
Mof_C 	C 	0.8478	0.7695	0.3062	-0.754
Mof_H 	H 	0.8668	0.7503	0.3077	0.245
Mof_H 	H 	0.851	0.7836	0.2833	0.248
Mof_H 	H 	0.85	0.7862	0.3275	0.243
Mof_O 	O 	0.5394	0.28158	0.96079	-0.416
Mof_C 	C 	0.5958	0.2838	0.9078	0.078
Mof_H 	H 	0.5876	0.3066	0.9179	0.012
Mof_C 	C 	0.624	0.2831	0.8807	-0.165
Mof_H 	H 	0.6351	0.3058	0.8734	0.078
Mof_C 	C 	0.6926	0.2779	0.8329	0.063
Mof_H 	H 	0.6929	0.2972	0.8507	-0.012
Mof_C 	C 	0.7198	0.2768	0.804	-0.201
Mof_C 	C 	0.7695	0.3062	0.8478	-0.754
Mof_H 	H 	0.7503	0.3077	0.8668	0.245
Mof_H 	H 	0.7836	0.2833	0.851	0.248
Mof_H 	H 	0.7862	0.3275	0.85	0.243
Mof_O 	O 	0.4606	0.28158	0.03921	-0.422
Mof_C 	C 	0.4042	0.2838	0.0922	0.079
Mof_H 	H 	0.4124	0.3066	0.0821	0.01
Mof_C 	C 	0.376	0.2831	0.1193	-0.167
Mof_H 	H 	0.3649	0.3058	0.1266	0.077
Mof_C 	C 	0.3074	0.2779	0.1671	0.062
Mof_H 	H 	0.3071	0.2972	0.1493	-0.012
Mof_C 	C 	0.2802	0.2768	0.196	-0.2
Mof_C 	C 	0.2305	0.3062	0.1522	-0.746
Mof_H 	H 	0.2497	0.3077	0.1332	0.241
Mof_H 	H 	0.2164	0.2833	0.149	0.244
Mof_H 	H 	0.2138	0.3275	0.15	0.239
Mof_O 	O 	0.4606	0.71842	0.96079	-0.416
Mof_C 	C 	0.4042	0.7162	0.9078	0.078
Mof_H 	H 	0.4124	0.6934	0.9179	0.012
Mof_C 	C 	0.376	0.7169	0.8807	-0.165
Mof_H 	H 	0.3649	0.6942	0.8734	0.078
Mof_C 	C 	0.3074	0.7221	0.8329	0.063
Mof_H 	H 	0.3071	0.7028	0.8507	-0.012
Mof_C 	C 	0.2802	0.7232	0.804	-0.201
Mof_C 	C 	0.2305	0.6938	0.8478	-0.753
Mof_H 	H 	0.2497	0.6923	0.8668	0.245
Mof_H 	H 	0.2164	0.7167	0.851	0.247
Mof_H 	H 	0.2138	0.6725	0.85	0.242
Mof_O 	O 	0.5394	0.71842	0.03921	-0.422
Mof_C 	C 	0.5958	0.7162	0.0922	0.079
Mof_H 	H 	0.5876	0.6934	0.0821	0.01
Mof_C 	C 	0.624	0.7169	0.1193	-0.167
Mof_H 	H 	0.6351	0.6942	0.1266	0.077
Mof_C 	C 	0.6926	0.7221	0.1671	0.063
Mof_H 	H 	0.6929	0.7028	0.1493	-0.013
Mof_C 	C 	0.7198	0.7232	0.196	-0.201
Mof_C 	C 	0.7695	0.6938	0.1522	-0.75
Mof_H 	H 	0.7503	0.6923	0.1332	0.243
Mof_H 	H 	0.7836	0.7167	0.149	0.246
Mof_H 	H 	0.7862	0.6725	0.15	0.24
Mof_O 	O 	0.28158	0.03921	0.4606	-0.422
Mof_C 	C 	0.2838	0.0922	0.4042	0.079
Mof_H 	H 	0.3066	0.0821	0.4124	0.01
Mof_C 	C 	0.2831	0.1193	0.376	-0.167
Mof_H 	H 	0.3058	0.1266	0.3649	0.077
Mof_C 	C 	0.2779	0.1671	0.3074	0.062
Mof_H 	H 	0.2972	0.1493	0.3071	-0.012
Mof_C 	C 	0.2768	0.196	0.2802	-0.2
Mof_C 	C 	0.3062	0.1522	0.2305	-0.746
Mof_H 	H 	0.3077	0.1332	0.2497	0.241
Mof_H 	H 	0.2833	0.149	0.2164	0.244
Mof_H 	H 	0.3275	0.15	0.2138	0.239
Mof_O 	O 	0.28158	0.96079	0.5394	-0.416
Mof_C 	C 	0.2838	0.9078	0.5958	0.078
Mof_H 	H 	0.3066	0.9179	0.5876	0.012
Mof_C 	C 	0.2831	0.8807	0.624	-0.165
Mof_H 	H 	0.3058	0.8734	0.6351	0.078
Mof_C 	C 	0.2779	0.8329	0.6926	0.063
Mof_H 	H 	0.2972	0.8507	0.6929	-0.012
Mof_C 	C 	0.2768	0.804	0.7198	-0.201
Mof_C 	C 	0.3062	0.8478	0.7695	-0.754
Mof_H 	H 	0.3077	0.8668	0.7503	0.245
Mof_H 	H 	0.2833	0.851	0.7836	0.248
Mof_H 	H 	0.3275	0.85	0.7862	0.243
Mof_O 	O 	0.71842	0.03921	0.5394	-0.422
Mof_C 	C 	0.7162	0.0922	0.5958	0.079
Mof_H 	H 	0.6934	0.0821	0.5876	0.01
Mof_C 	C 	0.7169	0.1193	0.624	-0.167
Mof_H 	H 	0.6942	0.1266	0.6351	0.077
Mof_C 	C 	0.7221	0.1671	0.6926	0.063
Mof_H 	H 	0.7028	0.1493	0.6929	-0.013
Mof_C 	C 	0.7232	0.196	0.7198	-0.201
Mof_C 	C 	0.6938	0.1522	0.7695	-0.75
Mof_H 	H 	0.6923	0.1332	0.7503	0.243
Mof_H 	H 	0.7167	0.149	0.7836	0.246
Mof_H 	H 	0.6725	0.15	0.7862	0.24
Mof_O 	O 	0.71842	0.96079	0.4606	-0.416
Mof_C 	C 	0.7162	0.9078	0.4042	0.078
Mof_H 	H 	0.6934	0.9179	0.4124	0.012
Mof_C 	C 	0.7169	0.8807	0.376	-0.165
Mof_H 	H 	0.6942	0.8734	0.3649	0.078
Mof_C 	C 	0.7221	0.8329	0.3074	0.063
Mof_H 	H 	0.7028	0.8507	0.3071	-0.012
Mof_C 	C 	0.7232	0.804	0.2802	-0.201
Mof_C 	C 	0.6938	0.8478	0.2305	-0.753
Mof_H 	H 	0.6923	0.8668	0.2497	0.245
Mof_H 	H 	0.7167	0.851	0.2164	0.247
Mof_H 	H 	0.6725	0.85	0.2138	0.242
Mof_O 	O 	0.9606	0.46079	0.21842	-0.417
Mof_C 	C 	0.9042	0.4078	0.2162	0.078
Mof_H 	H 	0.9124	0.4179	0.1934	0.011
Mof_C 	C 	0.876	0.3807	0.2169	-0.166
Mof_H 	H 	0.8649	0.3734	0.1942	0.077
Mof_C 	C 	0.8074	0.3329	0.2221	0.063
Mof_H 	H 	0.8071	0.3507	0.2028	-0.012
Mof_C 	C 	0.7802	0.304	0.2232	-0.2
Mof_C 	C 	0.7305	0.3478	0.1938	-0.749
Mof_H 	H 	0.7497	0.3668	0.1923	0.243
Mof_H 	H 	0.7164	0.351	0.2167	0.246
Mof_H 	H 	0.7138	0.35	0.1725	0.24
Mof_O 	O 	0.0394	0.53921	0.21842	-0.422
Mof_C 	C 	0.0958	0.5922	0.2162	0.079
Mof_H 	H 	0.0876	0.5821	0.1934	0.009
Mof_C 	C 	0.124	0.6193	0.2169	-0.167
Mof_H 	H 	0.1351	0.6266	0.1942	0.077
Mof_C 	C 	0.1926	0.6671	0.2221	0.063
Mof_H 	H 	0.1929	0.6493	0.2028	-0.012
Mof_C 	C 	0.2198	0.696	0.2232	-0.2
Mof_C 	C 	0.2695	0.6522	0.1938	-0.748
Mof_H 	H 	0.2503	0.6332	0.1923	0.243
Mof_H 	H 	0.2836	0.649	0.2167	0.245
Mof_H 	H 	0.2862	0.65	0.1725	0.24
Mof_O 	O 	0.0394	0.46079	0.78158	-0.421
Mof_C 	C 	0.0958	0.4078	0.7838	0.079
Mof_H 	H 	0.0876	0.4179	0.8066	0.01
Mof_C 	C 	0.124	0.3807	0.7831	-0.167
Mof_H 	H 	0.1351	0.3734	0.8058	0.078
Mof_C 	C 	0.1926	0.3329	0.7779	0.063
Mof_H 	H 	0.1929	0.3507	0.7972	-0.012
Mof_C 	C 	0.2198	0.304	0.7768	-0.201
Mof_C 	C 	0.2695	0.3478	0.8062	-0.751
Mof_H 	H 	0.2503	0.3668	0.8077	0.244
Mof_H 	H 	0.2836	0.351	0.7833	0.247
Mof_H 	H 	0.2862	0.35	0.8275	0.241
Mof_O 	O 	0.9606	0.53921	0.78158	-0.416
Mof_C 	C 	0.9042	0.5922	0.7838	0.078
Mof_H 	H 	0.9124	0.5821	0.8066	0.012
Mof_C 	C 	0.876	0.6193	0.7831	-0.165
Mof_H 	H 	0.8649	0.6266	0.8058	0.078
Mof_C 	C 	0.8074	0.6671	0.7779	0.064
Mof_H 	H 	0.8071	0.6493	0.7972	-0.012
Mof_C 	C 	0.7802	0.696	0.7768	-0.201
Mof_C 	C 	0.7305	0.6522	0.8062	-0.753
Mof_H 	H 	0.7497	0.6332	0.8077	0.245
Mof_H 	H 	0.7164	0.649	0.7833	0.247
Mof_H 	H 	0.7138	0.65	0.8275	0.242
Mof_O 	O 	0.21842	0.9606	0.46079	-0.417
Mof_C 	C 	0.2162	0.9042	0.4078	0.078
Mof_H 	H 	0.1934	0.9124	0.4179	0.011
Mof_C 	C 	0.2169	0.876	0.3807	-0.166
Mof_H 	H 	0.1942	0.8649	0.3734	0.077
Mof_C 	C 	0.2221	0.8074	0.3329	0.063
Mof_H 	H 	0.2028	0.8071	0.3507	-0.012
Mof_C 	C 	0.2232	0.7802	0.304	-0.2
Mof_C 	C 	0.1938	0.7305	0.3478	-0.749
Mof_H 	H 	0.1923	0.7497	0.3668	0.243
Mof_H 	H 	0.2167	0.7164	0.351	0.246
Mof_H 	H 	0.1725	0.7138	0.35	0.24
Mof_O 	O 	0.21842	0.0394	0.53921	-0.422
Mof_C 	C 	0.2162	0.0958	0.5922	0.079
Mof_H 	H 	0.1934	0.0876	0.5821	0.009
Mof_C 	C 	0.2169	0.124	0.6193	-0.167
Mof_H 	H 	0.1942	0.1351	0.6266	0.077
Mof_C 	C 	0.2221	0.1926	0.6671	0.063
Mof_H 	H 	0.2028	0.1929	0.6493	-0.012
Mof_C 	C 	0.2232	0.2198	0.696	-0.2
Mof_C 	C 	0.1938	0.2695	0.6522	-0.748
Mof_H 	H 	0.1923	0.2503	0.6332	0.243
Mof_H 	H 	0.2167	0.2836	0.649	0.245
Mof_H 	H 	0.1725	0.2862	0.65	0.24
Mof_O 	O 	0.78158	0.0394	0.46079	-0.421
Mof_C 	C 	0.7838	0.0958	0.4078	0.079
Mof_H 	H 	0.8066	0.0876	0.4179	0.01
Mof_C 	C 	0.7831	0.124	0.3807	-0.167
Mof_H 	H 	0.8058	0.1351	0.3734	0.078
Mof_C 	C 	0.7779	0.1926	0.3329	0.063
Mof_H 	H 	0.7972	0.1929	0.3507	-0.012
Mof_C 	C 	0.7768	0.2198	0.304	-0.201
Mof_C 	C 	0.8062	0.2695	0.3478	-0.751
Mof_H 	H 	0.8077	0.2503	0.3668	0.244
Mof_H 	H 	0.7833	0.2836	0.351	0.247
Mof_H 	H 	0.8275	0.2862	0.35	0.241
Mof_O 	O 	0.78158	0.9606	0.53921	-0.416
Mof_C 	C 	0.7838	0.9042	0.5922	0.078
Mof_H 	H 	0.8066	0.9124	0.5821	0.012
Mof_C 	C 	0.7831	0.876	0.6193	-0.165
Mof_H 	H 	0.8058	0.8649	0.6266	0.078
Mof_C 	C 	0.7779	0.8074	0.6671	0.064
Mof_H 	H 	0.7972	0.8071	0.6493	-0.012
Mof_C 	C 	0.7768	0.7802	0.696	-0.201
Mof_C 	C 	0.8062	0.7305	0.6522	-0.753
Mof_H 	H 	0.8077	0.7497	0.6332	0.245
Mof_H 	H 	0.7833	0.7164	0.649	0.247
Mof_H 	H 	0.8275	0.7138	0.65	0.242
Mof_O 	O 	0.46079	0.21842	0.9606	-0.417
Mof_C 	C 	0.4078	0.2162	0.9042	0.078
Mof_H 	H 	0.4179	0.1934	0.9124	0.011
Mof_C 	C 	0.3807	0.2169	0.876	-0.166
Mof_H 	H 	0.3734	0.1942	0.8649	0.077
Mof_C 	C 	0.3329	0.2221	0.8074	0.063
Mof_H 	H 	0.3507	0.2028	0.8071	-0.012
Mof_C 	C 	0.304	0.2232	0.7802	-0.2
Mof_C 	C 	0.3478	0.1938	0.7305	-0.749
Mof_H 	H 	0.3668	0.1923	0.7497	0.243
Mof_H 	H 	0.351	0.2167	0.7164	0.246
Mof_H 	H 	0.35	0.1725	0.7138	0.24
Mof_O 	O 	0.53921	0.21842	0.0394	-0.422
Mof_C 	C 	0.5922	0.2162	0.0958	0.079
Mof_H 	H 	0.5821	0.1934	0.0876	0.009
Mof_C 	C 	0.6193	0.2169	0.124	-0.167
Mof_H 	H 	0.6266	0.1942	0.1351	0.077
Mof_C 	C 	0.6671	0.2221	0.1926	0.063
Mof_H 	H 	0.6493	0.2028	0.1929	-0.012
Mof_C 	C 	0.696	0.2232	0.2198	-0.2
Mof_C 	C 	0.6522	0.1938	0.2695	-0.748
Mof_H 	H 	0.6332	0.1923	0.2503	0.243
Mof_H 	H 	0.649	0.2167	0.2836	0.245
Mof_H 	H 	0.65	0.1725	0.2862	0.24
Mof_O 	O 	0.46079	0.78158	0.0394	-0.421
Mof_C 	C 	0.4078	0.7838	0.0958	0.079
Mof_H 	H 	0.4179	0.8066	0.0876	0.01
Mof_C 	C 	0.3807	0.7831	0.124	-0.167
Mof_H 	H 	0.3734	0.8058	0.1351	0.078
Mof_C 	C 	0.3329	0.7779	0.1926	0.063
Mof_H 	H 	0.3507	0.7972	0.1929	-0.012
Mof_C 	C 	0.304	0.7768	0.2198	-0.201
Mof_C 	C 	0.3478	0.8062	0.2695	-0.751
Mof_H 	H 	0.3668	0.8077	0.2503	0.244
Mof_H 	H 	0.351	0.7833	0.2836	0.247
Mof_H 	H 	0.35	0.8275	0.2862	0.241
Mof_O 	O 	0.53921	0.78158	0.9606	-0.416
Mof_C 	C 	0.5922	0.7838	0.9042	0.078
Mof_H 	H 	0.5821	0.8066	0.9124	0.012
Mof_C 	C 	0.6193	0.7831	0.876	-0.165
Mof_H 	H 	0.6266	0.8058	0.8649	0.078
Mof_C 	C 	0.6671	0.7779	0.8074	0.064
Mof_H 	H 	0.6493	0.7972	0.8071	-0.012
Mof_C 	C 	0.696	0.7768	0.7802	-0.201
Mof_C 	C 	0.6522	0.8062	0.7305	-0.753
Mof_H 	H 	0.6332	0.8077	0.7497	0.245
Mof_H 	H 	0.649	0.7833	0.7164	0.247
Mof_H 	H 	0.65	0.8275	0.7138	0.242
Mof_O 	O 	0.96079	0.4606	0.28158	-0.416
Mof_C 	C 	0.9078	0.4042	0.2838	0.078
Mof_H 	H 	0.9179	0.4124	0.3066	0.012
Mof_C 	C 	0.8807	0.376	0.2831	-0.165
Mof_H 	H 	0.8734	0.3649	0.3058	0.078
Mof_C 	C 	0.8329	0.3074	0.2779	0.063
Mof_H 	H 	0.8507	0.3071	0.2972	-0.012
Mof_C 	C 	0.804	0.2802	0.2768	-0.201
Mof_C 	C 	0.8478	0.2305	0.3062	-0.751
Mof_H 	H 	0.8668	0.2497	0.3077	0.244
Mof_H 	H 	0.851	0.2164	0.2833	0.246
Mof_H 	H 	0.85	0.2138	0.3275	0.241
Mof_O 	O 	0.03921	0.5394	0.28158	-0.422
Mof_C 	C 	0.0922	0.5958	0.2838	0.079
Mof_H 	H 	0.0821	0.5876	0.3066	0.01
Mof_C 	C 	0.1193	0.624	0.2831	-0.167
Mof_H 	H 	0.1266	0.6351	0.3058	0.077
Mof_C 	C 	0.1671	0.6926	0.2779	0.063
Mof_H 	H 	0.1493	0.6929	0.2972	-0.013
Mof_C 	C 	0.196	0.7198	0.2768	-0.2
Mof_C 	C 	0.1522	0.7695	0.3062	-0.748
Mof_H 	H 	0.1332	0.7503	0.3077	0.242
Mof_H 	H 	0.149	0.7836	0.2833	0.245
Mof_H 	H 	0.15	0.7862	0.3275	0.24
Mof_O 	O 	0.96079	0.5394	0.71842	-0.416
Mof_C 	C 	0.9078	0.5958	0.7162	0.078
Mof_H 	H 	0.9179	0.5876	0.6934	0.012
Mof_C 	C 	0.8807	0.624	0.7169	-0.165
Mof_H 	H 	0.8734	0.6351	0.6942	0.078
Mof_C 	C 	0.8329	0.6926	0.7221	0.064
Mof_H 	H 	0.8507	0.6929	0.7028	-0.012
Mof_C 	C 	0.804	0.7198	0.7232	-0.201
Mof_C 	C 	0.8478	0.7695	0.6938	-0.755
Mof_H 	H 	0.8668	0.7503	0.6923	0.246
Mof_H 	H 	0.851	0.7836	0.7167	0.249
Mof_H 	H 	0.85	0.7862	0.6725	0.243
Mof_O 	O 	0.03921	0.4606	0.71842	-0.422
Mof_C 	C 	0.0922	0.4042	0.7162	0.079
Mof_H 	H 	0.0821	0.4124	0.6934	0.01
Mof_C 	C 	0.1193	0.376	0.7169	-0.167
Mof_H 	H 	0.1266	0.3649	0.6942	0.077
Mof_C 	C 	0.1671	0.3074	0.7221	0.063
Mof_H 	H 	0.1493	0.3071	0.7028	-0.013
Mof_C 	C 	0.196	0.2802	0.7232	-0.2
Mof_C 	C 	0.1522	0.2305	0.6938	-0.747
Mof_H 	H 	0.1332	0.2497	0.6923	0.242
Mof_H 	H 	0.149	0.2164	0.7167	0.244
Mof_H 	H 	0.15	0.2138	0.6725	0.239
Mof_O 	O 	0.4606	0.71842	0.03921	-0.422
Mof_C 	C 	0.4042	0.7162	0.0922	0.079
Mof_H 	H 	0.4124	0.6934	0.0821	0.01
Mof_C 	C 	0.376	0.7169	0.1193	-0.167
Mof_H 	H 	0.3649	0.6942	0.1266	0.077
Mof_C 	C 	0.3074	0.7221	0.1671	0.063
Mof_H 	H 	0.3071	0.7028	0.1493	-0.013
Mof_C 	C 	0.2802	0.7232	0.196	-0.2
Mof_C 	C 	0.2305	0.6938	0.1522	-0.747
Mof_H 	H 	0.2497	0.6923	0.1332	0.242
Mof_H 	H 	0.2164	0.7167	0.149	0.244
Mof_H 	H 	0.2138	0.6725	0.15	0.239
Mof_O 	O 	0.5394	0.71842	0.96079	-0.416
Mof_C 	C 	0.5958	0.7162	0.9078	0.078
Mof_H 	H 	0.5876	0.6934	0.9179	0.012
Mof_C 	C 	0.624	0.7169	0.8807	-0.165
Mof_H 	H 	0.6351	0.6942	0.8734	0.078
Mof_C 	C 	0.6926	0.7221	0.8329	0.064
Mof_H 	H 	0.6929	0.7028	0.8507	-0.012
Mof_C 	C 	0.7198	0.7232	0.804	-0.201
Mof_C 	C 	0.7695	0.6938	0.8478	-0.755
Mof_H 	H 	0.7503	0.6923	0.8668	0.246
Mof_H 	H 	0.7836	0.7167	0.851	0.249
Mof_H 	H 	0.7862	0.6725	0.85	0.243
Mof_O 	O 	0.5394	0.28158	0.03921	-0.422
Mof_C 	C 	0.5958	0.2838	0.0922	0.079
Mof_H 	H 	0.5876	0.3066	0.0821	0.01
Mof_C 	C 	0.624	0.2831	0.1193	-0.167
Mof_H 	H 	0.6351	0.3058	0.1266	0.077
Mof_C 	C 	0.6926	0.2779	0.1671	0.063
Mof_H 	H 	0.6929	0.2972	0.1493	-0.013
Mof_C 	C 	0.7198	0.2768	0.196	-0.2
Mof_C 	C 	0.7695	0.3062	0.1522	-0.748
Mof_H 	H 	0.7503	0.3077	0.1332	0.242
Mof_H 	H 	0.7836	0.2833	0.149	0.245
Mof_H 	H 	0.7862	0.3275	0.15	0.24
Mof_O 	O 	0.4606	0.28158	0.96079	-0.416
Mof_C 	C 	0.4042	0.2838	0.9078	0.078
Mof_H 	H 	0.4124	0.3066	0.9179	0.012
Mof_C 	C 	0.376	0.2831	0.8807	-0.165
Mof_H 	H 	0.3649	0.3058	0.8734	0.078
Mof_C 	C 	0.3074	0.2779	0.8329	0.063
Mof_H 	H 	0.3071	0.2972	0.8507	-0.012
Mof_C 	C 	0.2802	0.2768	0.804	-0.201
Mof_C 	C 	0.2305	0.3062	0.8478	-0.751
Mof_H 	H 	0.2497	0.3077	0.8668	0.244
Mof_H 	H 	0.2164	0.2833	0.851	0.246
Mof_H 	H 	0.2138	0.3275	0.85	0.241
Mof_O 	O 	0.71842	0.96079	0.5394	-0.416
Mof_C 	C 	0.7162	0.9078	0.5958	0.078
Mof_H 	H 	0.6934	0.9179	0.5876	0.012
Mof_C 	C 	0.7169	0.8807	0.624	-0.165
Mof_H 	H 	0.6942	0.8734	0.6351	0.078
Mof_C 	C 	0.7221	0.8329	0.6926	0.064
Mof_H 	H 	0.7028	0.8507	0.6929	-0.012
Mof_C 	C 	0.7232	0.804	0.7198	-0.201
Mof_C 	C 	0.6938	0.8478	0.7695	-0.755
Mof_H 	H 	0.6923	0.8668	0.7503	0.246
Mof_H 	H 	0.7167	0.851	0.7836	0.249
Mof_H 	H 	0.6725	0.85	0.7862	0.243
Mof_O 	O 	0.71842	0.03921	0.4606	-0.422
Mof_C 	C 	0.7162	0.0922	0.4042	0.079
Mof_H 	H 	0.6934	0.0821	0.4124	0.01
Mof_C 	C 	0.7169	0.1193	0.376	-0.167
Mof_H 	H 	0.6942	0.1266	0.3649	0.077
Mof_C 	C 	0.7221	0.1671	0.3074	0.063
Mof_H 	H 	0.7028	0.1493	0.3071	-0.013
Mof_C 	C 	0.7232	0.196	0.2802	-0.2
Mof_C 	C 	0.6938	0.1522	0.2305	-0.747
Mof_H 	H 	0.6923	0.1332	0.2497	0.242
Mof_H 	H 	0.7167	0.149	0.2164	0.244
Mof_H 	H 	0.6725	0.15	0.2138	0.239
Mof_O 	O 	0.28158	0.96079	0.4606	-0.416
Mof_C 	C 	0.2838	0.9078	0.4042	0.078
Mof_H 	H 	0.3066	0.9179	0.4124	0.012
Mof_C 	C 	0.2831	0.8807	0.376	-0.165
Mof_H 	H 	0.3058	0.8734	0.3649	0.078
Mof_C 	C 	0.2779	0.8329	0.3074	0.063
Mof_H 	H 	0.2972	0.8507	0.3071	-0.012
Mof_C 	C 	0.2768	0.804	0.2802	-0.201
Mof_C 	C 	0.3062	0.8478	0.2305	-0.751
Mof_H 	H 	0.3077	0.8668	0.2497	0.244
Mof_H 	H 	0.2833	0.851	0.2164	0.246
Mof_H 	H 	0.3275	0.85	0.2138	0.241
Mof_O 	O 	0.28158	0.03921	0.5394	-0.422
Mof_C 	C 	0.2838	0.0922	0.5958	0.079
Mof_H 	H 	0.3066	0.0821	0.5876	0.01
Mof_C 	C 	0.2831	0.1193	0.624	-0.167
Mof_H 	H 	0.3058	0.1266	0.6351	0.077
Mof_C 	C 	0.2779	0.1671	0.6926	0.063
Mof_H 	H 	0.2972	0.1493	0.6929	-0.013
Mof_C 	C 	0.2768	0.196	0.7198	-0.2
Mof_C 	C 	0.3062	0.1522	0.7695	-0.748
Mof_H 	H 	0.3077	0.1332	0.7503	0.242
Mof_H 	H 	0.2833	0.149	0.7836	0.245
Mof_H 	H 	0.3275	0.15	0.7862	0.24
Mof_Cu	Cu	-6.15112e-33	0.5	0.78772	0.895
Mof_Cu	Cu	3.07207e-33	0.5	0.21228	0.895
Mof_Cu	Cu	0.78772	0	0.5	0.895
Mof_Cu	Cu	0.21228	0	0.5	0.895
Mof_Cu	Cu	0.5	0.78772	-0	0.895
Mof_Cu	Cu	0.5	0.21228	-0	0.895
Mof_Cu	Cu	2.67062e-33	0.5	0.71228	0.895
Mof_Cu	Cu	-3.47352e-33	0.5	0.28772	0.895
Mof_Cu	Cu	0.5	0.28772	-0	0.895
Mof_Cu	Cu	0.5	0.71228	-0	0.895
Mof_Cu	Cu	0.28772	0	0.5	0.895
Mof_Cu	Cu	0.71228	0	0.5	0.895
Mof_N 	N 	0.25	0.75	0.75	-0.231
Mof_N 	N 	0.75	0.25	0.75	-0.231
Mof_N 	N 	0.75	0.75	0.25	-0.231
Mof_N 	N 	0.25	0.25	0.25	-0.231
Mof_N 	N 	0.75	0.25	0.25	-0.231
Mof_N 	N 	0.25	0.75	0.25	-0.231
Mof_N 	N 	0.25	0.25	0.75	-0.231
Mof_N 	N 	0.75	0.75	0.75	-0.232
Mof_C 	C 	0.0505	0.5505	0.75	0.386
Mof_C 	C 	0.0802	0.5802	0.75	-0.151
Mof_C 	C 	0.136	0.636	0.75	0.114
Mof_C 	C 	0.1655	0.6655	0.75	-0.101
Mof_C 	C 	0.2235	0.7235	0.75	0.197
Mof_C 	C 	0.9495	0.4495	0.75	0.385
Mof_C 	C 	0.9198	0.4198	0.75	-0.148
Mof_C 	C 	0.864	0.364	0.75	0.113
Mof_C 	C 	0.8345	0.3345	0.75	-0.1
Mof_C 	C 	0.7765	0.2765	0.75	0.198
Mof_C 	C 	0.9495	0.5505	0.25	0.386
Mof_C 	C 	0.9198	0.5802	0.25	-0.148
Mof_C 	C 	0.864	0.636	0.25	0.113
Mof_C 	C 	0.8345	0.6655	0.25	-0.1
Mof_C 	C 	0.7765	0.7235	0.25	0.197
Mof_C 	C 	0.0505	0.4495	0.25	0.386
Mof_C 	C 	0.0802	0.4198	0.25	-0.151
Mof_C 	C 	0.136	0.364	0.25	0.113
Mof_C 	C 	0.1655	0.3345	0.25	-0.101
Mof_C 	C 	0.2235	0.2765	0.25	0.196
Mof_C 	C 	0.75	0.0505	0.5505	0.386
Mof_C 	C 	0.75	0.0802	0.5802	-0.151
Mof_C 	C 	0.75	0.136	0.636	0.114
Mof_C 	C 	0.75	0.1655	0.6655	-0.101
Mof_C 	C 	0.75	0.2235	0.7235	0.197
Mof_C 	C 	0.75	0.9495	0.4495	0.385
Mof_C 	C 	0.75	0.9198	0.4198	-0.148
Mof_C 	C 	0.75	0.864	0.364	0.113
Mof_C 	C 	0.75	0.8345	0.3345	-0.1
Mof_C 	C 	0.75	0.7765	0.2765	0.198
Mof_C 	C 	0.25	0.9495	0.5505	0.386
Mof_C 	C 	0.25	0.9198	0.5802	-0.148
Mof_C 	C 	0.25	0.864	0.636	0.113
Mof_C 	C 	0.25	0.8345	0.6655	-0.1
Mof_C 	C 	0.25	0.7765	0.7235	0.197
Mof_C 	C 	0.25	0.0505	0.4495	0.386
Mof_C 	C 	0.25	0.0802	0.4198	-0.151
Mof_C 	C 	0.25	0.136	0.364	0.113
Mof_C 	C 	0.25	0.1655	0.3345	-0.101
Mof_C 	C 	0.25	0.2235	0.2765	0.196
Mof_C 	C 	0.5505	0.75	0.0505	0.386
Mof_C 	C 	0.5802	0.75	0.0802	-0.151
Mof_C 	C 	0.636	0.75	0.136	0.114
Mof_C 	C 	0.6655	0.75	0.1655	-0.101
Mof_C 	C 	0.7235	0.75	0.2235	0.197
Mof_C 	C 	0.4495	0.75	0.9495	0.385
Mof_C 	C 	0.4198	0.75	0.9198	-0.148
Mof_C 	C 	0.364	0.75	0.864	0.113
Mof_C 	C 	0.3345	0.75	0.8345	-0.1
Mof_C 	C 	0.2765	0.75	0.7765	0.198
Mof_C 	C 	0.5505	0.25	0.9495	0.386
Mof_C 	C 	0.5802	0.25	0.9198	-0.148
Mof_C 	C 	0.636	0.25	0.864	0.113
Mof_C 	C 	0.6655	0.25	0.8345	-0.1
Mof_C 	C 	0.7235	0.25	0.7765	0.197
Mof_C 	C 	0.4495	0.25	0.0505	0.386
Mof_C 	C 	0.4198	0.25	0.0802	-0.151
Mof_C 	C 	0.364	0.25	0.136	0.113
Mof_C 	C 	0.3345	0.25	0.1655	-0.101
Mof_C 	C 	0.2765	0.25	0.2235	0.196
Mof_C 	C 	0.9495	0.4495	0.25	0.385
Mof_C 	C 	0.9198	0.4198	0.25	-0.148
Mof_C 	C 	0.864	0.364	0.25	0.113
Mof_C 	C 	0.8345	0.3345	0.25	-0.1
Mof_C 	C 	0.7765	0.2765	0.25	0.197
Mof_C 	C 	0.0505	0.5505	0.25	0.386
Mof_C 	C 	0.0802	0.5802	0.25	-0.151
Mof_C 	C 	0.136	0.636	0.25	0.113
Mof_C 	C 	0.1655	0.6655	0.25	-0.101
Mof_C 	C 	0.2235	0.7235	0.25	0.197
Mof_C 	C 	0.0505	0.4495	0.75	0.386
Mof_C 	C 	0.0802	0.4198	0.75	-0.151
Mof_C 	C 	0.136	0.364	0.75	0.113
Mof_C 	C 	0.1655	0.3345	0.75	-0.101
Mof_C 	C 	0.2235	0.2765	0.75	0.197
Mof_C 	C 	0.9495	0.5505	0.75	0.385
Mof_C 	C 	0.9198	0.5802	0.75	-0.148
Mof_C 	C 	0.864	0.636	0.75	0.113
Mof_C 	C 	0.8345	0.6655	0.75	-0.1
Mof_C 	C 	0.7765	0.7235	0.75	0.198
Mof_C 	C 	0.25	0.9495	0.4495	0.385
Mof_C 	C 	0.25	0.9198	0.4198	-0.148
Mof_C 	C 	0.25	0.864	0.364	0.113
Mof_C 	C 	0.25	0.8345	0.3345	-0.1
Mof_C 	C 	0.25	0.7765	0.2765	0.197
Mof_C 	C 	0.25	0.0505	0.5505	0.386
Mof_C 	C 	0.25	0.0802	0.5802	-0.151
Mof_C 	C 	0.25	0.136	0.636	0.113
Mof_C 	C 	0.25	0.1655	0.6655	-0.101
Mof_C 	C 	0.25	0.2235	0.7235	0.197
Mof_C 	C 	0.75	0.0505	0.4495	0.386
Mof_C 	C 	0.75	0.0802	0.4198	-0.151
Mof_C 	C 	0.75	0.136	0.364	0.113
Mof_C 	C 	0.75	0.1655	0.3345	-0.101
Mof_C 	C 	0.75	0.2235	0.2765	0.197
Mof_C 	C 	0.75	0.9495	0.5505	0.385
Mof_C 	C 	0.75	0.9198	0.5802	-0.148
Mof_C 	C 	0.75	0.864	0.636	0.113
Mof_C 	C 	0.75	0.8345	0.6655	-0.1
Mof_C 	C 	0.75	0.7765	0.7235	0.198
Mof_C 	C 	0.4495	0.25	0.9495	0.385
Mof_C 	C 	0.4198	0.25	0.9198	-0.148
Mof_C 	C 	0.364	0.25	0.864	0.113
Mof_C 	C 	0.3345	0.25	0.8345	-0.1
Mof_C 	C 	0.2765	0.25	0.7765	0.197
Mof_C 	C 	0.5505	0.25	0.0505	0.386
Mof_C 	C 	0.5802	0.25	0.0802	-0.151
Mof_C 	C 	0.636	0.25	0.136	0.113
Mof_C 	C 	0.6655	0.25	0.1655	-0.101
Mof_C 	C 	0.7235	0.25	0.2235	0.197
Mof_C 	C 	0.4495	0.75	0.0505	0.386
Mof_C 	C 	0.4198	0.75	0.0802	-0.151
Mof_C 	C 	0.364	0.75	0.136	0.113
Mof_C 	C 	0.3345	0.75	0.1655	-0.101
Mof_C 	C 	0.2765	0.75	0.2235	0.197
Mof_C 	C 	0.5505	0.75	0.9495	0.385
Mof_C 	C 	0.5802	0.75	0.9198	-0.148
Mof_C 	C 	0.636	0.75	0.864	0.113
Mof_C 	C 	0.6655	0.75	0.8345	-0.1
Mof_C 	C 	0.7235	0.75	0.7765	0.198
Mof_C 	C 	0.25	0.6936	0.8064	0.361
Mof_C 	C 	0.75	0.3064	0.8064	0.362
Mof_C 	C 	0.75	0.6936	0.1936	0.36
Mof_C 	C 	0.25	0.3064	0.1936	0.359
Mof_C 	C 	0.8064	0.25	0.6936	0.361
Mof_C 	C 	0.8064	0.75	0.3064	0.362
Mof_C 	C 	0.1936	0.75	0.6936	0.36
Mof_C 	C 	0.1936	0.25	0.3064	0.359
Mof_C 	C 	0.6936	0.8064	0.25	0.361
Mof_C 	C 	0.3064	0.8064	0.75	0.362
Mof_C 	C 	0.6936	0.1936	0.75	0.36
Mof_C 	C 	0.3064	0.1936	0.25	0.359
Mof_C 	C 	0.75	0.3064	0.1936	0.36
Mof_C 	C 	0.25	0.6936	0.1936	0.359
Mof_C 	C 	0.25	0.3064	0.8064	0.361
Mof_C 	C 	0.75	0.6936	0.8064	0.362
Mof_C 	C 	0.1936	0.75	0.3064	0.36
Mof_C 	C 	0.1936	0.25	0.6936	0.359
Mof_C 	C 	0.8064	0.25	0.3064	0.361
Mof_C 	C 	0.8064	0.75	0.6936	0.362
Mof_C 	C 	0.3064	0.1936	0.75	0.36
Mof_C 	C 	0.6936	0.1936	0.25	0.359
Mof_C 	C 	0.3064	0.8064	0.25	0.361
Mof_C 	C 	0.6936	0.8064	0.75	0.362
_end
