data_functionalizedCrystal
_audit_creation_method	'EQeq! by Chris Wilmer'
_symmetry_space_group_name_H-M	'P1'
_symmetry_Int_Tables_number	1
_symmetry_cell_setting	triclinic
loop_
_symmetry_equiv_pos_as_xyz
  x,y,z
_cell_length_a	13.5497
_cell_length_b	13.6454
_cell_length_c	27.2037
_cell_angle_alpha	90
_cell_angle_beta	90
_cell_angle_gamma	90
loop_
_atom_site_label
_atom_site_type_symbol
_atom_site_fract_x
_atom_site_fract_y
_atom_site_fract_z
_atom_site_charge
Mof_Cd	Cd	0.98658	0.17433	0.12428	0.38
Mof_Cd	Cd	0.88326	0.55231	0.19193	0.286
Mof_Cd	Cd	0.1248	0.79445	0.07687	0.27
Mof_Cd	Cd	0.48658	0.32567	0.87572	0.38
Mof_Cd	Cd	0.38326	0.94769	0.80807	0.286
Mof_Cd	Cd	0.6248	0.70555	0.92313	0.27
Mof_Cd	Cd	0.51342	0.82567	0.62428	0.379
Mof_Cd	Cd	0.61674	0.44769	0.69193	0.285
Mof_Cd	Cd	0.3752	0.20555	0.57687	0.269
Mof_Cd	Cd	0.01342	0.67433	0.37572	0.379
Mof_Cd	Cd	0.11674	0.05231	0.30807	0.285
Mof_Cd	Cd	0.8752	0.29445	0.42313	0.269
Mof_Cd	Cd	0.01342	0.82567	0.87572	0.379
Mof_Cd	Cd	0.11674	0.44769	0.80807	0.285
Mof_Cd	Cd	0.8752	0.20555	0.92313	0.269
Mof_Cd	Cd	0.51342	0.67433	0.12428	0.379
Mof_Cd	Cd	0.61674	0.05231	0.19193	0.285
Mof_Cd	Cd	0.3752	0.29445	0.07687	0.269
Mof_Cd	Cd	0.48658	0.17433	0.37572	0.379
Mof_Cd	Cd	0.38326	0.55231	0.30807	0.285
Mof_Cd	Cd	0.6248	0.79445	0.42313	0.269
Mof_Cd	Cd	0.98658	0.32567	0.62428	0.379
Mof_Cd	Cd	0.88326	0.94769	0.69193	0.285
Mof_Cd	Cd	0.1248	0.70555	0.57687	0.269
Mof_C 	C 	0.9238	0.402	0.1692	-0.006
Mof_C 	C 	0.7606	0.0897	0.1597	-0.003
Mof_C 	C 	0.0757	0.9443	0.094	-0.015
Mof_C 	C 	0.218	0.2637	0.0889	-0.006
Mof_C 	C 	0.0308	0.6887	0.1162	-0.012
Mof_C 	C 	0.9065	0.2118	0.004	0.002
Mof_C 	C 	0.0747	0.1074	0.2367	-0.01
Mof_C 	C 	0.4238	0.098	0.8308	-0.006
Mof_C 	C 	0.2606	0.4103	0.8403	-0.003
Mof_C 	C 	0.5757	0.5557	0.906	-0.014
Mof_C 	C 	0.718	0.2363	0.9111	-0.007
Mof_C 	C 	0.5308	0.8113	0.8838	-0.011
Mof_C 	C 	0.4065	0.2882	0.996	0.002
Mof_C 	C 	0.5747	0.3926	0.7633	-0.011
Mof_C 	C 	0.5762	0.598	0.6692	-0.006
Mof_C 	C 	0.7394	0.9103	0.6597	-0.002
Mof_C 	C 	0.4243	0.0557	0.594	-0.013
Mof_C 	C 	0.282	0.7363	0.5889	-0.007
Mof_C 	C 	0.4692	0.3113	0.6162	-0.011
Mof_C 	C 	0.5935	0.7882	0.504	0.002
Mof_C 	C 	0.4253	0.8926	0.7367	-0.011
Mof_C 	C 	0.0762	0.902	0.3308	-0.007
Mof_C 	C 	0.2394	0.5897	0.3403	-0.003
Mof_C 	C 	0.9243	0.4443	0.406	-0.014
Mof_C 	C 	0.782	0.7637	0.4111	-0.006
Mof_C 	C 	0.9692	0.1887	0.3838	-0.012
Mof_C 	C 	0.0935	0.7118	0.496	0.002
Mof_C 	C 	0.9253	0.6074	0.2633	-0.01
Mof_C 	C 	0.0762	0.598	0.8308	-0.006
Mof_C 	C 	0.2394	0.9103	0.8403	-0.003
Mof_C 	C 	0.9243	0.0557	0.906	-0.015
Mof_C 	C 	0.782	0.7363	0.9111	-0.006
Mof_C 	C 	0.9692	0.3113	0.8838	-0.012
Mof_C 	C 	0.0935	0.7882	0.996	0.002
Mof_C 	C 	0.9253	0.8926	0.7633	-0.01
Mof_C 	C 	0.5762	0.902	0.1692	-0.006
Mof_C 	C 	0.7394	0.5897	0.1597	-0.003
Mof_C 	C 	0.4243	0.4443	0.094	-0.014
Mof_C 	C 	0.282	0.7637	0.0889	-0.007
Mof_C 	C 	0.4692	0.1887	0.1162	-0.011
Mof_C 	C 	0.5935	0.7118	0.004	0.002
Mof_C 	C 	0.4253	0.6074	0.2367	-0.011
Mof_C 	C 	0.4238	0.402	0.3308	-0.006
Mof_C 	C 	0.2606	0.0897	0.3403	-0.002
Mof_C 	C 	0.5757	0.9443	0.406	-0.013
Mof_C 	C 	0.718	0.2637	0.4111	-0.007
Mof_C 	C 	0.5308	0.6887	0.3838	-0.011
Mof_C 	C 	0.4065	0.2118	0.496	0.002
Mof_C 	C 	0.5747	0.1074	0.2633	-0.011
Mof_C 	C 	0.9238	0.098	0.6692	-0.007
Mof_C 	C 	0.7606	0.4103	0.6597	-0.003
Mof_C 	C 	0.0757	0.5557	0.594	-0.014
Mof_C 	C 	0.218	0.2363	0.5889	-0.006
Mof_C 	C 	0.0308	0.8113	0.6162	-0.012
Mof_C 	C 	0.9065	0.2882	0.504	0.002
Mof_C 	C 	0.0747	0.3926	0.7367	-0.01
Mof_N 	N 	0.9439	0.3286	0.15324	-0.134
Mof_N 	N 	0.8335	0.1106	0.1427	-0.135
Mof_N 	N 	0.0464	0.0211	0.09809	-0.136
Mof_N 	N 	0.1383	0.2425	0.0969	-0.131
Mof_N 	N 	0.9813	0.6368	0.1382	-0.141
Mof_N 	N 	0.9266	0.2056	0.04401	-0.134
Mof_N 	N 	0.0515	0.1382	0.1998	-0.133
Mof_N 	N 	0.4439	0.1714	0.84676	-0.134
Mof_N 	N 	0.3335	0.3894	0.8573	-0.135
Mof_N 	N 	0.5464	0.4789	0.90191	-0.137
Mof_N 	N 	0.6383	0.2575	0.9031	-0.132
Mof_N 	N 	0.4813	0.8632	0.8618	-0.142
Mof_N 	N 	0.4266	0.2944	0.95599	-0.134
Mof_N 	N 	0.5515	0.3618	0.8002	-0.133
Mof_N 	N 	0.5561	0.6714	0.65324	-0.134
Mof_N 	N 	0.6665	0.8894	0.6427	-0.135
Mof_N 	N 	0.4536	0.9789	0.59809	-0.137
Mof_N 	N 	0.3617	0.7575	0.5969	-0.132
Mof_N 	N 	0.5187	0.3632	0.6382	-0.142
Mof_N 	N 	0.5734	0.7944	0.54401	-0.134
Mof_N 	N 	0.4485	0.8618	0.6998	-0.133
Mof_N 	N 	0.0561	0.8286	0.34676	-0.134
Mof_N 	N 	0.1665	0.6106	0.3573	-0.135
Mof_N 	N 	0.9536	0.5211	0.40191	-0.137
Mof_N 	N 	0.8617	0.7425	0.4031	-0.131
Mof_N 	N 	0.0187	0.1368	0.3618	-0.141
Mof_N 	N 	0.0734	0.7056	0.45599	-0.134
Mof_N 	N 	0.9485	0.6382	0.3002	-0.133
Mof_N 	N 	0.0561	0.6714	0.84676	-0.134
Mof_N 	N 	0.1665	0.8894	0.8573	-0.135
Mof_N 	N 	0.9536	0.9789	0.90191	-0.136
Mof_N 	N 	0.8617	0.7575	0.9031	-0.131
Mof_N 	N 	0.0187	0.3632	0.8618	-0.141
Mof_N 	N 	0.0734	0.7944	0.95599	-0.134
Mof_N 	N 	0.9485	0.8618	0.8002	-0.133
Mof_N 	N 	0.5561	0.8286	0.15324	-0.134
Mof_N 	N 	0.6665	0.6106	0.1427	-0.135
Mof_N 	N 	0.4536	0.5211	0.09809	-0.137
Mof_N 	N 	0.3617	0.7425	0.0969	-0.132
Mof_N 	N 	0.5187	0.1368	0.1382	-0.142
Mof_N 	N 	0.5734	0.7056	0.04401	-0.134
Mof_N 	N 	0.4485	0.6382	0.1998	-0.133
Mof_N 	N 	0.4439	0.3286	0.34676	-0.134
Mof_N 	N 	0.3335	0.1106	0.3573	-0.135
Mof_N 	N 	0.5464	0.0211	0.40191	-0.137
Mof_N 	N 	0.6383	0.2425	0.4031	-0.132
Mof_N 	N 	0.4813	0.6368	0.3618	-0.142
Mof_N 	N 	0.4266	0.2056	0.45599	-0.134
Mof_N 	N 	0.5515	0.1382	0.3002	-0.133
Mof_N 	N 	0.9439	0.1714	0.65324	-0.134
Mof_N 	N 	0.8335	0.3894	0.6427	-0.135
Mof_N 	N 	0.0464	0.4789	0.59809	-0.137
Mof_N 	N 	0.1383	0.2575	0.5969	-0.131
Mof_N 	N 	0.9813	0.8632	0.6382	-0.141
Mof_N 	N 	0.9266	0.2944	0.54401	-0.134
Mof_N 	N 	0.0515	0.3618	0.6998	-0.133
Mof_H 	H 	0.7936	0.414	0.0849	0.015
Mof_H 	H 	0.9548	0.4545	0.0748	0.075
Mof_H 	H 	0.9004	0.5097	0.9345	0.071
Mof_H 	H 	0.7406	0.4684	0.9468	0.015
Mof_H 	H 	0.6118	0.4691	0.0386	0.146
Mof_H 	H 	0.6176	0.394	0.9951	0.146
Mof_H 	H 	0.6433	0.3604	0.0487	0.141
Mof_H 	H 	0.2064	0.586	0.9151	0.015
Mof_H 	H 	0.0452	0.5455	0.9252	0.075
Mof_H 	H 	0.0996	0.4903	0.0655	0.071
Mof_H 	H 	0.2594	0.5316	0.0532	0.015
Mof_H 	H 	0.3882	0.5309	0.9614	0.146
Mof_H 	H 	0.3824	0.606	0.0049	0.146
Mof_H 	H 	0.3567	0.6396	0.9513	0.141
Mof_C 	C 	0.8155	0.4347	0.0542	0.059
Mof_C 	C 	0.912	0.4583	0.0481	-0.123
Mof_C 	C 	0.9473	0.4874	0.0037	0.052
Mof_C 	C 	0.8798	0.4907	0.9657	-0.125
Mof_C 	C 	0.7845	0.4667	0.9731	0.047
Mof_C 	C 	0.6468	0.4136	0.0257	-0.371
Mof_C 	C 	0.1845	0.5653	0.9458	0.059
Mof_C 	C 	0.088	0.5417	0.9519	-0.123
Mof_C 	C 	0.0527	0.5126	0.9963	0.052
Mof_C 	C 	0.1202	0.5093	0.0343	-0.125
Mof_C 	C 	0.2155	0.5333	0.0269	0.047
Mof_C 	C 	0.3532	0.5864	0.9743	-0.371
Mof_N 	N 	0.7518	0.4406	0.0175	-0.087
Mof_N 	N 	0.2482	0.5594	0.9825	-0.087
Mof_H 	H 	0.2936	0.086	0.9151	0.015
Mof_H 	H 	0.4548	0.0455	0.9252	0.075
Mof_H 	H 	0.4004	0.9903	0.0655	0.071
Mof_H 	H 	0.2406	0.0316	0.0532	0.015
Mof_H 	H 	0.1118	0.0309	0.9614	0.147
Mof_H 	H 	0.1176	0.106	0.0049	0.146
Mof_H 	H 	0.1433	0.1396	0.9513	0.142
Mof_H 	H 	0.7064	0.914	0.0849	0.015
Mof_H 	H 	0.5452	0.9545	0.0748	0.075
Mof_H 	H 	0.5996	0.0097	0.9345	0.071
Mof_H 	H 	0.7594	0.9684	0.9468	0.015
Mof_H 	H 	0.8882	0.9691	0.0386	0.147
Mof_H 	H 	0.8824	0.894	0.9951	0.146
Mof_H 	H 	0.8567	0.8604	0.0487	0.142
Mof_C 	C 	0.3155	0.0653	0.9458	0.058
Mof_C 	C 	0.412	0.0417	0.9519	-0.122
Mof_C 	C 	0.4473	0.0126	0.9963	0.051
Mof_C 	C 	0.3798	0.0093	0.0343	-0.123
Mof_C 	C 	0.2845	0.0333	0.0269	0.047
Mof_C 	C 	0.1468	0.0864	0.9743	-0.371
Mof_C 	C 	0.6845	0.9347	0.0542	0.058
Mof_C 	C 	0.588	0.9583	0.0481	-0.122
Mof_C 	C 	0.5527	0.9874	0.0037	0.051
Mof_C 	C 	0.6202	0.9907	0.9657	-0.123
Mof_C 	C 	0.7155	0.9667	0.9731	0.047
Mof_C 	C 	0.8532	0.9136	0.0257	-0.371
Mof_N 	N 	0.2518	0.0594	0.9825	-0.087
Mof_N 	N 	0.7482	0.9406	0.0175	-0.087
Mof_H 	H 	0.7064	0.586	0.5849	0.015
Mof_H 	H 	0.5452	0.5455	0.5748	0.075
Mof_H 	H 	0.5996	0.4903	0.4345	0.071
Mof_H 	H 	0.7594	0.5316	0.4468	0.015
Mof_H 	H 	0.8882	0.5309	0.5386	0.146
Mof_H 	H 	0.8824	0.606	0.4951	0.146
Mof_H 	H 	0.8567	0.6396	0.5487	0.142
Mof_H 	H 	0.2936	0.414	0.4151	0.015
Mof_H 	H 	0.4548	0.4545	0.4252	0.075
Mof_H 	H 	0.4004	0.5097	0.5655	0.071
Mof_H 	H 	0.2406	0.4684	0.5532	0.015
Mof_H 	H 	0.1118	0.4691	0.4614	0.146
Mof_H 	H 	0.1176	0.394	0.5049	0.146
Mof_H 	H 	0.1433	0.3604	0.4513	0.142
Mof_C 	C 	0.6845	0.5653	0.5542	0.058
Mof_C 	C 	0.588	0.5417	0.5481	-0.123
Mof_C 	C 	0.5527	0.5126	0.5037	0.051
Mof_C 	C 	0.6202	0.5093	0.4657	-0.124
Mof_C 	C 	0.7155	0.5333	0.4731	0.047
Mof_C 	C 	0.8532	0.5864	0.5257	-0.371
Mof_C 	C 	0.3155	0.4347	0.4458	0.058
Mof_C 	C 	0.412	0.4583	0.4519	-0.123
Mof_C 	C 	0.4473	0.4874	0.4963	0.051
Mof_C 	C 	0.3798	0.4907	0.5343	-0.124
Mof_C 	C 	0.2845	0.4667	0.5269	0.047
Mof_C 	C 	0.1468	0.4136	0.4743	-0.371
Mof_N 	N 	0.7482	0.5594	0.5175	-0.087
Mof_N 	N 	0.2518	0.4406	0.4825	-0.087
Mof_H 	H 	0.2064	0.914	0.4151	0.015
Mof_H 	H 	0.0452	0.9545	0.4252	0.074
Mof_H 	H 	0.0996	0.0097	0.5655	0.073
Mof_H 	H 	0.2594	0.9684	0.5532	0.014
Mof_H 	H 	0.3882	0.9691	0.4614	0.146
Mof_H 	H 	0.3824	0.894	0.5049	0.146
Mof_H 	H 	0.3567	0.8604	0.4513	0.141
Mof_H 	H 	0.7936	0.086	0.5849	0.015
Mof_H 	H 	0.9548	0.0455	0.5748	0.074
Mof_H 	H 	0.9004	0.9903	0.4345	0.073
Mof_H 	H 	0.7406	0.0316	0.4468	0.014
Mof_H 	H 	0.6118	0.0309	0.5386	0.146
Mof_H 	H 	0.6176	0.106	0.4951	0.146
Mof_H 	H 	0.6433	0.1396	0.5487	0.141
Mof_C 	C 	0.1845	0.9347	0.4458	0.059
Mof_C 	C 	0.088	0.9583	0.4519	-0.123
Mof_C 	C 	0.0527	0.9874	0.4963	0.052
Mof_C 	C 	0.1202	0.9907	0.5343	-0.127
Mof_C 	C 	0.2155	0.9667	0.5269	0.049
Mof_C 	C 	0.3532	0.9136	0.4743	-0.371
Mof_C 	C 	0.8155	0.0653	0.5542	0.059
Mof_C 	C 	0.912	0.0417	0.5481	-0.123
Mof_C 	C 	0.9473	0.0126	0.5037	0.052
Mof_C 	C 	0.8798	0.0093	0.4657	-0.127
Mof_C 	C 	0.7845	0.0333	0.4731	0.049
Mof_C 	C 	0.6468	0.0864	0.5257	-0.371
Mof_N 	N 	0.2482	0.9406	0.4825	-0.088
Mof_N 	N 	0.7518	0.0594	0.5175	-0.088
_end
