data_functionalizedCrystal
_audit_creation_method	'EQeq! by Chris Wilmer'
_symmetry_space_group_name_H-M	'P1'
_symmetry_Int_Tables_number	1
_symmetry_cell_setting	triclinic
loop_
_symmetry_equiv_pos_as_xyz
  x,y,z
_cell_length_a	20.6958
_cell_length_b	27.2441
_cell_length_c	31.2425
_cell_angle_alpha	90
_cell_angle_beta	90
_cell_angle_gamma	90
loop_
_atom_site_label
_atom_site_type_symbol
_atom_site_fract_x
_atom_site_fract_y
_atom_site_fract_z
_atom_site_charge
Mof_N 	N 	0.0709	0.05267	0.2528	-0.23
Mof_C 	C 	0.1184	0.048	0.28184	0.058
Mof_C 	C 	0.0732	0.0909	0.2265	0.053
Mof_H 	H 	0.1177	0.0214	0.3005	-0.015
Mof_C 	C 	0.168	0.0815	0.2849	-0.094
Mof_C 	C 	0.1232	0.1232	0.2279	-0.095
Mof_H 	H 	0.0402	0.0957	0.2067	0.008
Mof_H 	H 	0.1998	0.0777	0.3056	0.074
Mof_C 	C 	0.1703	0.1195	0.2579	0.001
Mof_H 	H 	0.1252	0.1484	0.2079	0.07
Mof_C 	C 	0.2234	0.1571	0.258	0.269
Mof_O 	O 	0.2231	0.19177	0.23649	-0.259
Mof_O 	O 	0.2683	0.14497	0.28714	-0.214
Mof_C 	C 	0.3184	0.1806	0.2943	-0.148
Mof_H 	H 	0.3406	0.1733	0.3209	0.085
Mof_H 	H 	0.2994	0.213	0.2967	0.101
Mof_C 	C 	0.3664	0.1801	0.2576	0.272
Mof_C 	C 	0.3927	0.2232	0.2435	-0.318
Mof_C 	C 	0.3887	0.1386	0.2402	-0.34
Mof_C 	C 	0.4372	0.2248	0.2124	0.237
Mof_H 	H 	0.3793	0.2525	0.256	0.155
Mof_H 	H 	0.3719	0.1089	0.2498	0.171
Mof_C 	C 	0.4334	0.1377	0.2104	0.25
Mof_C 	C 	0.4634	0.2738	0.1969	-0.125
Mof_C 	C 	0.4589	0.1818	0.1939	-0.284
Mof_C 	C 	0.4524	0.0867	0.1898	-0.144
Mof_O 	O 	0.4209	0.29068	0.16215	-0.222
Mof_H 	H 	0.4636	0.2975	0.2201	0.081
Mof_H 	H 	0.5073	0.27	0.1864	0.076
Mof_H 	H 	0.4888	0.1819	0.1718	0.147
Mof_O 	O 	0.5041	0.0965	0.1564	-0.224
Mof_H 	H 	0.4688	0.0646	0.2116	0.101
Mof_H 	H 	0.4149	0.0716	0.1765	0.085
Mof_C 	C 	0.4291	0.3347	0.1466	0.273
Mof_C 	C 	0.5478	0.0631	0.1564	0.229
Mof_O 	O 	0.4679	0.36169	0.16054	-0.268
Mof_C 	C 	0.3839	0.3452	0.1125	0.013
Mof_O 	O 	0.5746	0.0478	0.1894	-0.239
Mof_C 	C 	0.582	0.0773	0.1144	0.046
Mof_C 	C 	0.4021	0.376	0.0871	-0.162
Mof_C 	C 	0.3239	0.3209	0.1141	-0.101
Mof_C 	C 	0.5993	0.125	0.0995	0.029
Mof_C 	C 	0.593	0.0429	0.0804	-0.042
Mof_C 	C 	0.3655	0.3894	0.0552	0.083
Mof_H 	H 	0.4427	0.3901	0.0904	0.087
Mof_H 	H 	0.3121	0.2986	0.1353	0.082
Mof_C 	C 	0.2845	0.3344	0.0799	0.043
Mof_C 	C 	0.6482	0.1287	0.0674	0.067
Mof_H 	H 	0.5794	0.153	0.1104	0.016
Mof_H 	H 	0.5669	0.0152	0.0793	0.037
Mof_C 	C 	0.6415	0.0484	0.048	0.003
Mof_N 	N 	0.301	0.3702	0.04622	-0.221
Mof_H 	H 	0.3818	0.4131	0.0367	-0.022
Mof_H 	H 	0.2442	0.3195	0.0781	-0.004
Mof_N 	N 	0.6719	0.0955	0.0458	-0.232
Mof_H 	H 	0.6641	0.16	0.0622	-0.029
Mof_H 	H 	0.6526	0.0229	0.0296	0
Mof_C 	C 	0.3199	0.4016	0.0706	-0.022
Mof_H 	H 	0.3048	0.4334	0.0661	0.002
Mof_C 	C 	0.3616	0.3945	0.1041	0.024
Mof_H 	H 	0.3752	0.4207	0.121	0.021
Mof_C 	C 	0.3652	0.3116	0.081	-0.008
Mof_H 	H 	0.3787	0.2792	0.0838	0.037
Mof_C 	C 	0.3291	0.3237	0.047	-0.03
Mof_H 	H 	0.3228	0.3017	0.0247	0.01
Mof_C 	C 	0.6075	0.1175	0.0545	-0.024
Mof_H 	H 	0.5907	0.1397	0.0348	0.015
Mof_C 	C 	0.5715	0.1064	0.0903	-0.139
Mof_H 	H 	0.5346	0.1252	0.0949	0.08
Mof_C 	C 	0.6461	0.0577	0.1163	-0.096
Mof_H 	H 	0.6597	0.0414	0.1409	0.075
Mof_C 	C 	0.6883	0.0627	0.082	0.022
Mof_H 	H 	0.7271	0.0454	0.0818	0.002
Mof_N 	N 	0.5709	0.55267	0.7528	-0.225
Mof_C 	C 	0.6184	0.548	0.78184	0.061
Mof_C 	C 	0.5732	0.5909	0.7265	0.056
Mof_H 	H 	0.6177	0.5214	0.8005	-0.009
Mof_C 	C 	0.668	0.5815	0.7849	-0.091
Mof_C 	C 	0.6232	0.6232	0.7279	-0.092
Mof_H 	H 	0.5402	0.5957	0.7067	0.014
Mof_H 	H 	0.6998	0.5777	0.8056	0.076
Mof_C 	C 	0.6703	0.6195	0.7579	0.003
Mof_H 	H 	0.6252	0.6484	0.7079	0.073
Mof_C 	C 	0.7234	0.6571	0.758	0.271
Mof_O 	O 	0.7231	0.69177	0.73649	-0.257
Mof_O 	O 	0.7683	0.64497	0.78714	-0.213
Mof_C 	C 	0.8184	0.6806	0.7943	-0.147
Mof_H 	H 	0.8406	0.6733	0.8209	0.086
Mof_H 	H 	0.7994	0.713	0.7967	0.101
Mof_C 	C 	0.8664	0.6801	0.7576	0.269
Mof_C 	C 	0.8927	0.7232	0.7435	-0.309
Mof_C 	C 	0.8887	0.6386	0.7402	-0.334
Mof_C 	C 	0.9372	0.7248	0.7124	0.227
Mof_H 	H 	0.8793	0.7525	0.756	0.152
Mof_H 	H 	0.8719	0.6089	0.7498	0.171
Mof_C 	C 	0.9334	0.6377	0.7104	0.248
Mof_C 	C 	0.9634	0.7738	0.6969	-0.093
Mof_C 	C 	0.9589	0.6818	0.6939	-0.274
Mof_C 	C 	0.9524	0.5867	0.6898	-0.132
Mof_O 	O 	0.9209	0.79068	0.66215	-0.226
Mof_H 	H 	0.9636	0.7975	0.7201	0.075
Mof_H 	H 	0.0073	0.77	0.6864	0.058
Mof_H 	H 	0.9888	0.6819	0.6718	0.15
Mof_O 	O 	0.0041	0.5965	0.6564	-0.233
Mof_H 	H 	0.9688	0.5646	0.7116	0.104
Mof_H 	H 	0.9149	0.5716	0.6765	0.087
Mof_C 	C 	0.9291	0.8347	0.6466	0.275
Mof_C 	C 	0.0478	0.5631	0.6564	0.231
Mof_O 	O 	0.9679	0.86169	0.66054	-0.262
Mof_C 	C 	0.8839	0.8452	0.6125	0.012
Mof_O 	O 	0.0746	0.5478	0.6894	-0.24
Mof_C 	C 	0.082	0.5773	0.6144	0.044
Mof_C 	C 	0.9021	0.876	0.5871	-0.157
Mof_C 	C 	0.8239	0.8209	0.6141	-0.1
Mof_C 	C 	0.0993	0.625	0.5995	0.028
Mof_C 	C 	0.093	0.5429	0.5804	-0.041
Mof_C 	C 	0.8655	0.8894	0.5552	0.082
Mof_H 	H 	0.9427	0.8901	0.5904	0.091
Mof_H 	H 	0.8121	0.7986	0.6353	0.082
Mof_C 	C 	0.7845	0.8344	0.5799	0.042
Mof_C 	C 	0.1482	0.6287	0.5674	0.062
Mof_H 	H 	0.0794	0.653	0.6104	0.015
Mof_H 	H 	0.0669	0.5152	0.5793	0.04
Mof_C 	C 	0.1415	0.5484	0.548	0.004
Mof_N 	N 	0.801	0.8702	0.54622	-0.218
Mof_H 	H 	0.8818	0.9131	0.5367	-0.013
Mof_H 	H 	0.7442	0.8195	0.5781	-0.002
Mof_N 	N 	0.1719	0.5955	0.5458	-0.229
Mof_H 	H 	0.1641	0.66	0.5622	-0.026
Mof_H 	H 	0.1526	0.5229	0.5296	0.007
Mof_C 	C 	0.8199	0.9016	0.5706	-0.022
Mof_H 	H 	0.8048	0.9334	0.5661	0.006
Mof_C 	C 	0.8616	0.8945	0.6041	0.02
Mof_H 	H 	0.8752	0.9207	0.621	0.026
Mof_C 	C 	0.8652	0.8116	0.581	-0.006
Mof_H 	H 	0.8787	0.7792	0.5838	0.041
Mof_C 	C 	0.8291	0.8237	0.547	-0.029
Mof_H 	H 	0.8228	0.8017	0.5247	0.019
Mof_C 	C 	0.1075	0.6175	0.5545	-0.021
Mof_H 	H 	0.0907	0.6397	0.5348	0.019
Mof_C 	C 	0.0715	0.6064	0.5903	-0.136
Mof_H 	H 	0.0346	0.6252	0.5949	0.079
Mof_C 	C 	0.1461	0.5577	0.6163	-0.094
Mof_H 	H 	0.1597	0.5414	0.6409	0.076
Mof_C 	C 	0.1883	0.5627	0.582	0.022
Mof_H 	H 	0.2271	0.5454	0.5818	0.004
Mof_N 	N 	0.9291	0.94733	0.2528	-0.218
Mof_C 	C 	0.8816	0.952	0.28184	0.062
Mof_C 	C 	0.9268	0.9091	0.2265	0.057
Mof_H 	H 	0.8823	0.9786	0.3005	-0.004
Mof_C 	C 	0.832	0.9185	0.2849	-0.09
Mof_C 	C 	0.8768	0.8768	0.2279	-0.089
Mof_H 	H 	0.9598	0.9043	0.2067	0.02
Mof_H 	H 	0.8002	0.9223	0.3056	0.077
Mof_C 	C 	0.8297	0.8805	0.2579	0.003
Mof_H 	H 	0.8748	0.8516	0.2079	0.074
Mof_C 	C 	0.7766	0.8429	0.258	0.271
Mof_O 	O 	0.7769	0.80823	0.23649	-0.256
Mof_O 	O 	0.7317	0.85503	0.28714	-0.212
Mof_C 	C 	0.6816	0.8194	0.2943	-0.151
Mof_H 	H 	0.6594	0.8267	0.3209	0.086
Mof_H 	H 	0.7006	0.787	0.2967	0.102
Mof_C 	C 	0.6336	0.8199	0.2576	0.276
Mof_C 	C 	0.6073	0.7768	0.2435	-0.321
Mof_C 	C 	0.6113	0.8614	0.2402	-0.345
Mof_C 	C 	0.5628	0.7752	0.2124	0.24
Mof_H 	H 	0.6207	0.7475	0.256	0.156
Mof_H 	H 	0.6281	0.8911	0.2498	0.175
Mof_C 	C 	0.5666	0.8623	0.2104	0.256
Mof_C 	C 	0.5366	0.7262	0.1969	-0.126
Mof_C 	C 	0.5411	0.8182	0.1939	-0.288
Mof_C 	C 	0.5476	0.9133	0.1898	-0.151
Mof_O 	O 	0.5791	0.70932	0.16215	-0.222
Mof_H 	H 	0.5364	0.7025	0.2201	0.082
Mof_H 	H 	0.4927	0.73	0.1864	0.077
Mof_H 	H 	0.5112	0.8181	0.1718	0.148
Mof_O 	O 	0.4959	0.9035	0.1564	-0.221
Mof_H 	H 	0.5312	0.9354	0.2116	0.107
Mof_H 	H 	0.5851	0.9284	0.1765	0.093
Mof_C 	C 	0.5709	0.6653	0.1466	0.272
Mof_C 	C 	0.4522	0.9369	0.1564	0.232
Mof_O 	O 	0.5321	0.63831	0.16054	-0.268
Mof_C 	C 	0.6161	0.6548	0.1125	0.013
Mof_O 	O 	0.4254	0.9522	0.1894	-0.232
Mof_C 	C 	0.418	0.9227	0.1144	0.048
Mof_C 	C 	0.5979	0.624	0.0871	-0.162
Mof_C 	C 	0.6761	0.6791	0.1141	-0.1
Mof_C 	C 	0.4007	0.875	0.0995	0.027
Mof_C 	C 	0.407	0.9571	0.0804	-0.042
Mof_C 	C 	0.6345	0.6106	0.0552	0.083
Mof_H 	H 	0.5573	0.6099	0.0904	0.087
Mof_H 	H 	0.6879	0.7014	0.1353	0.082
Mof_C 	C 	0.7155	0.6656	0.0799	0.043
Mof_C 	C 	0.3518	0.8713	0.0674	0.064
Mof_H 	H 	0.4206	0.847	0.1104	0.017
Mof_H 	H 	0.4331	0.9848	0.0793	0.046
Mof_C 	C 	0.3585	0.9516	0.048	0.004
Mof_N 	N 	0.699	0.6298	0.04622	-0.221
Mof_H 	H 	0.6182	0.5869	0.0367	-0.022
Mof_H 	H 	0.7558	0.6805	0.0781	-0.003
Mof_N 	N 	0.3281	0.9045	0.0458	-0.232
Mof_H 	H 	0.3359	0.84	0.0622	-0.029
Mof_H 	H 	0.3474	0.9771	0.0296	0.003
Mof_C 	C 	0.6801	0.5984	0.0706	-0.023
Mof_H 	H 	0.6952	0.5666	0.0661	0.002
Mof_C 	C 	0.6384	0.6055	0.1041	0.024
Mof_H 	H 	0.6248	0.5793	0.121	0.021
Mof_C 	C 	0.6348	0.6884	0.081	-0.009
Mof_H 	H 	0.6213	0.7208	0.0838	0.038
Mof_C 	C 	0.6709	0.6763	0.047	-0.03
Mof_H 	H 	0.6772	0.6983	0.0247	0.011
Mof_C 	C 	0.3925	0.8825	0.0545	-0.021
Mof_H 	H 	0.4093	0.8603	0.0348	0.015
Mof_C 	C 	0.4285	0.8936	0.0903	-0.138
Mof_H 	H 	0.4654	0.8748	0.0949	0.082
Mof_C 	C 	0.3539	0.9423	0.1163	-0.095
Mof_H 	H 	0.3403	0.9586	0.1409	0.079
Mof_C 	C 	0.3117	0.9373	0.082	0.023
Mof_H 	H 	0.2729	0.9546	0.0818	0.004
Mof_N 	N 	0.4291	0.44733	0.7528	-0.225
Mof_C 	C 	0.3816	0.452	0.78184	0.061
Mof_C 	C 	0.4268	0.4091	0.7265	0.056
Mof_H 	H 	0.3823	0.4786	0.8005	-0.009
Mof_C 	C 	0.332	0.4185	0.7849	-0.092
Mof_C 	C 	0.3768	0.3768	0.7279	-0.092
Mof_H 	H 	0.4598	0.4043	0.7067	0.014
Mof_H 	H 	0.3002	0.4223	0.8056	0.076
Mof_C 	C 	0.3297	0.3805	0.7579	0.003
Mof_H 	H 	0.3748	0.3516	0.7079	0.073
Mof_C 	C 	0.2766	0.3429	0.758	0.27
Mof_O 	O 	0.2769	0.30823	0.73649	-0.257
Mof_O 	O 	0.2317	0.35503	0.78714	-0.211
Mof_C 	C 	0.1816	0.3194	0.7943	-0.154
Mof_H 	H 	0.1594	0.3267	0.8209	0.086
Mof_H 	H 	0.2006	0.287	0.7967	0.102
Mof_C 	C 	0.1336	0.3199	0.7576	0.282
Mof_C 	C 	0.1073	0.2768	0.7435	-0.332
Mof_C 	C 	0.1113	0.3614	0.7402	-0.352
Mof_C 	C 	0.0628	0.2752	0.7124	0.252
Mof_H 	H 	0.1207	0.2475	0.756	0.159
Mof_H 	H 	0.1281	0.3911	0.7498	0.176
Mof_C 	C 	0.0666	0.3623	0.7104	0.26
Mof_C 	C 	0.0366	0.2262	0.6969	-0.161
Mof_C 	C 	0.0411	0.3182	0.6939	-0.299
Mof_C 	C 	0.0476	0.4133	0.6898	-0.165
Mof_O 	O 	0.0791	0.20932	0.66215	-0.217
Mof_H 	H 	0.0364	0.2025	0.7201	0.089
Mof_H 	H 	0.9927	0.23	0.6864	0.098
Mof_H 	H 	0.0112	0.3181	0.6718	0.147
Mof_O 	O 	0.9959	0.4035	0.6564	-0.21
Mof_H 	H 	0.0312	0.4354	0.7116	0.104
Mof_H 	H 	0.0851	0.4284	0.6765	0.093
Mof_C 	C 	0.0709	0.1653	0.6466	0.271
Mof_C 	C 	0.9522	0.4369	0.6564	0.23
Mof_O 	O 	0.0321	0.13831	0.66054	-0.273
Mof_C 	C 	0.1161	0.1548	0.6125	0.01
Mof_O 	O 	0.9254	0.4522	0.6894	-0.232
Mof_C 	C 	0.918	0.4227	0.6144	0.048
Mof_C 	C 	0.0979	0.124	0.5871	-0.159
Mof_C 	C 	0.1761	0.1791	0.6141	-0.1
Mof_C 	C 	0.9007	0.375	0.5995	0.023
Mof_C 	C 	0.907	0.4571	0.5804	-0.042
Mof_C 	C 	0.1345	0.1106	0.5552	0.082
Mof_H 	H 	0.0573	0.1099	0.5904	0.084
Mof_H 	H 	0.1879	0.2014	0.6353	0.082
Mof_C 	C 	0.2155	0.1656	0.5799	0.043
Mof_C 	C 	0.8518	0.3713	0.5674	0.06
Mof_H 	H 	0.9206	0.347	0.6104	0.02
Mof_H 	H 	0.9331	0.4848	0.5793	0.047
Mof_C 	C 	0.8585	0.4516	0.548	0.006
Mof_N 	N 	0.199	0.1298	0.54622	-0.218
Mof_H 	H 	0.1182	0.0869	0.5367	-0.018
Mof_H 	H 	0.2558	0.1805	0.5781	-0.002
Mof_N 	N 	0.8281	0.4045	0.5458	-0.229
Mof_H 	H 	0.8359	0.34	0.5622	-0.025
Mof_H 	H 	0.8474	0.4771	0.5296	0.009
Mof_C 	C 	0.1801	0.0984	0.5706	-0.023
Mof_H 	H 	0.1952	0.0666	0.5661	0.003
Mof_C 	C 	0.1384	0.1055	0.6041	0.023
Mof_H 	H 	0.1248	0.0793	0.621	0.02
Mof_C 	C 	0.1348	0.1884	0.581	-0.006
Mof_H 	H 	0.1213	0.2208	0.5838	0.037
Mof_C 	C 	0.1709	0.1763	0.547	-0.031
Mof_H 	H 	0.1772	0.1983	0.5247	0.018
Mof_C 	C 	0.8925	0.3825	0.5545	-0.016
Mof_H 	H 	0.9093	0.3603	0.5348	0.02
Mof_C 	C 	0.9285	0.3936	0.5903	-0.136
Mof_H 	H 	0.9654	0.3748	0.5949	0.084
Mof_C 	C 	0.8539	0.4423	0.6163	-0.095
Mof_H 	H 	0.8403	0.4586	0.6409	0.077
Mof_C 	C 	0.8117	0.4373	0.582	0.022
Mof_H 	H 	0.7729	0.4546	0.5818	0.005
Mof_N 	N 	0.4291	0.55267	0.7472	-0.225
Mof_C 	C 	0.3816	0.548	0.71816	0.061
Mof_C 	C 	0.4268	0.5909	0.7735	0.057
Mof_H 	H 	0.3823	0.5214	0.6995	-0.01
Mof_C 	C 	0.332	0.5815	0.7151	-0.092
Mof_C 	C 	0.3768	0.6232	0.7721	-0.092
Mof_H 	H 	0.4598	0.5957	0.7933	0.015
Mof_H 	H 	0.3002	0.5777	0.6944	0.076
Mof_C 	C 	0.3297	0.6195	0.7421	0.003
Mof_H 	H 	0.3748	0.6484	0.7921	0.074
Mof_C 	C 	0.2766	0.6571	0.742	0.27
Mof_O 	O 	0.2769	0.69177	0.76351	-0.256
Mof_O 	O 	0.2317	0.64497	0.71286	-0.211
Mof_C 	C 	0.1816	0.6806	0.7057	-0.154
Mof_H 	H 	0.1594	0.6733	0.6791	0.086
Mof_H 	H 	0.2006	0.713	0.7033	0.102
Mof_C 	C 	0.1336	0.6801	0.7424	0.282
Mof_C 	C 	0.1073	0.7232	0.7565	-0.332
Mof_C 	C 	0.1113	0.6386	0.7598	-0.352
Mof_C 	C 	0.0628	0.7248	0.7876	0.252
Mof_H 	H 	0.1207	0.7525	0.744	0.159
Mof_H 	H 	0.1281	0.6089	0.7502	0.176
Mof_C 	C 	0.0666	0.6377	0.7896	0.261
Mof_C 	C 	0.0366	0.7738	0.8031	-0.16
Mof_C 	C 	0.0411	0.6818	0.8061	-0.299
Mof_C 	C 	0.0476	0.5867	0.8102	-0.165
Mof_O 	O 	0.0791	0.79068	0.83785	-0.217
Mof_H 	H 	0.0364	0.7975	0.7799	0.089
Mof_H 	H 	0.9927	0.77	0.8136	0.098
Mof_H 	H 	0.0112	0.6819	0.8282	0.148
Mof_O 	O 	0.9959	0.5965	0.8436	-0.21
Mof_H 	H 	0.0312	0.5646	0.7884	0.105
Mof_H 	H 	0.0851	0.5716	0.8235	0.093
Mof_C 	C 	0.0709	0.8347	0.8534	0.272
Mof_C 	C 	0.9522	0.5631	0.8436	0.231
Mof_O 	O 	0.0321	0.86169	0.83946	-0.27
Mof_C 	C 	0.1161	0.8452	0.8875	0.009
Mof_O 	O 	0.9254	0.5478	0.8106	-0.232
Mof_C 	C 	0.918	0.5773	0.8856	0.047
Mof_C 	C 	0.0979	0.876	0.9129	-0.152
Mof_C 	C 	0.1761	0.8209	0.8859	-0.099
Mof_C 	C 	0.9007	0.625	0.9005	0.021
Mof_C 	C 	0.907	0.5429	0.9196	-0.041
Mof_C 	C 	0.1345	0.8894	0.9448	0.08
Mof_H 	H 	0.0573	0.8901	0.9096	0.087
Mof_H 	H 	0.1879	0.7986	0.8647	0.082
Mof_C 	C 	0.2155	0.8344	0.9201	0.042
Mof_C 	C 	0.8518	0.6287	0.9326	0.055
Mof_H 	H 	0.9206	0.653	0.8896	0.022
Mof_H 	H 	0.9331	0.5152	0.9207	0.049
Mof_C 	C 	0.8585	0.5484	0.952	0.008
Mof_N 	N 	0.199	0.8702	0.95378	-0.212
Mof_H 	H 	0.1182	0.9131	0.9633	-0.008
Mof_H 	H 	0.2558	0.8195	0.9219	0
Mof_N 	N 	0.8281	0.5955	0.9542	-0.223
Mof_H 	H 	0.8359	0.66	0.9378	-0.019
Mof_H 	H 	0.8474	0.5229	0.9704	0.016
Mof_C 	C 	0.1801	0.9016	0.9294	-0.022
Mof_H 	H 	0.1952	0.9334	0.9339	0.008
Mof_C 	C 	0.1384	0.8945	0.8959	0.019
Mof_H 	H 	0.1248	0.9207	0.879	0.025
Mof_C 	C 	0.1348	0.8116	0.919	-0.004
Mof_H 	H 	0.1213	0.7792	0.9162	0.039
Mof_C 	C 	0.1709	0.8237	0.953	-0.03
Mof_H 	H 	0.1772	0.8017	0.9753	0.027
Mof_C 	C 	0.8925	0.6175	0.9455	-0.012
Mof_H 	H 	0.9093	0.6397	0.9652	0.025
Mof_C 	C 	0.9285	0.6064	0.9097	-0.132
Mof_H 	H 	0.9654	0.6252	0.9051	0.085
Mof_C 	C 	0.8539	0.5577	0.8837	-0.093
Mof_H 	H 	0.8403	0.5414	0.8591	0.077
Mof_C 	C 	0.8117	0.5627	0.918	0.021
Mof_H 	H 	0.7729	0.5454	0.9182	0.007
Mof_N 	N 	0.9291	0.05267	0.2472	-0.223
Mof_C 	C 	0.8816	0.048	0.21816	0.06
Mof_C 	C 	0.9268	0.0909	0.2735	0.055
Mof_H 	H 	0.8823	0.0214	0.1995	-0.012
Mof_C 	C 	0.832	0.0815	0.2151	-0.092
Mof_C 	C 	0.8768	0.1232	0.2721	-0.091
Mof_H 	H 	0.9598	0.0957	0.2933	0.019
Mof_H 	H 	0.8002	0.0777	0.1944	0.075
Mof_C 	C 	0.8297	0.1195	0.2421	0.002
Mof_H 	H 	0.8748	0.1484	0.2921	0.074
Mof_C 	C 	0.7766	0.1571	0.242	0.271
Mof_O 	O 	0.7769	0.19177	0.26351	-0.257
Mof_O 	O 	0.7317	0.14497	0.21286	-0.213
Mof_C 	C 	0.6816	0.1806	0.2057	-0.148
Mof_H 	H 	0.6594	0.1733	0.1791	0.084
Mof_H 	H 	0.7006	0.213	0.2033	0.101
Mof_C 	C 	0.6336	0.1801	0.2424	0.273
Mof_C 	C 	0.6073	0.2232	0.2565	-0.318
Mof_C 	C 	0.6113	0.1386	0.2598	-0.34
Mof_C 	C 	0.5628	0.2248	0.2876	0.238
Mof_H 	H 	0.6207	0.2525	0.244	0.155
Mof_H 	H 	0.6281	0.1089	0.2502	0.171
Mof_C 	C 	0.5666	0.1377	0.2896	0.251
Mof_C 	C 	0.5366	0.2738	0.3031	-0.125
Mof_C 	C 	0.5411	0.1818	0.3061	-0.285
Mof_C 	C 	0.5476	0.0867	0.3102	-0.145
Mof_O 	O 	0.5791	0.29068	0.33785	-0.222
Mof_H 	H 	0.5364	0.2975	0.2799	0.081
Mof_H 	H 	0.4927	0.27	0.3136	0.077
Mof_H 	H 	0.5112	0.1819	0.3282	0.148
Mof_O 	O 	0.4959	0.0965	0.3436	-0.223
Mof_H 	H 	0.5312	0.0646	0.2884	0.101
Mof_H 	H 	0.5851	0.0716	0.3235	0.086
Mof_C 	C 	0.5709	0.3347	0.3534	0.274
Mof_C 	C 	0.4522	0.0631	0.3436	0.229
Mof_O 	O 	0.5321	0.36169	0.33946	-0.267
Mof_C 	C 	0.6161	0.3452	0.3875	0.011
Mof_O 	O 	0.4254	0.0478	0.3106	-0.239
Mof_C 	C 	0.418	0.0773	0.3856	0.045
Mof_C 	C 	0.5979	0.376	0.4129	-0.158
Mof_C 	C 	0.6761	0.3209	0.3859	-0.1
Mof_C 	C 	0.4007	0.125	0.4005	0.027
Mof_C 	C 	0.407	0.0429	0.4196	-0.041
Mof_C 	C 	0.6345	0.3894	0.4448	0.082
Mof_H 	H 	0.5573	0.3901	0.4096	0.088
Mof_H 	H 	0.6879	0.2986	0.3647	0.082
Mof_C 	C 	0.7155	0.3344	0.4201	0.043
Mof_C 	C 	0.3518	0.1287	0.4326	0.062
Mof_H 	H 	0.4206	0.153	0.3896	0.017
Mof_H 	H 	0.4331	0.0152	0.4207	0.039
Mof_C 	C 	0.3585	0.0484	0.452	0.004
Mof_N 	N 	0.699	0.3702	0.45378	-0.218
Mof_H 	H 	0.6182	0.4131	0.4633	-0.015
Mof_H 	H 	0.7558	0.3195	0.4219	-0.002
Mof_N 	N 	0.3281	0.0955	0.4542	-0.229
Mof_H 	H 	0.3359	0.16	0.4378	-0.026
Mof_H 	H 	0.3474	0.0229	0.4704	0.006
Mof_C 	C 	0.6801	0.4016	0.4294	-0.022
Mof_H 	H 	0.6952	0.4334	0.4339	0.004
Mof_C 	C 	0.6384	0.3945	0.3959	0.022
Mof_H 	H 	0.6248	0.4207	0.379	0.023
Mof_C 	C 	0.6348	0.3116	0.419	-0.006
Mof_H 	H 	0.6213	0.2792	0.4162	0.039
Mof_C 	C 	0.6709	0.3237	0.453	-0.03
Mof_H 	H 	0.6772	0.3017	0.4753	0.018
Mof_C 	C 	0.3925	0.1175	0.4455	-0.02
Mof_H 	H 	0.4093	0.1397	0.4652	0.02
Mof_C 	C 	0.4285	0.1064	0.4097	-0.136
Mof_H 	H 	0.4654	0.1252	0.4051	0.081
Mof_C 	C 	0.3539	0.0577	0.3837	-0.095
Mof_H 	H 	0.3403	0.0414	0.3591	0.074
Mof_C 	C 	0.3117	0.0627	0.418	0.022
Mof_H 	H 	0.2729	0.0454	0.4182	0.003
Mof_N 	N 	0.5709	0.44733	0.7472	-0.225
Mof_C 	C 	0.6184	0.452	0.71816	0.061
Mof_C 	C 	0.5732	0.4091	0.7735	0.057
Mof_H 	H 	0.6177	0.4786	0.6995	-0.01
Mof_C 	C 	0.668	0.4185	0.7151	-0.092
Mof_C 	C 	0.6232	0.3768	0.7721	-0.092
Mof_H 	H 	0.5402	0.4043	0.7933	0.015
Mof_H 	H 	0.6998	0.4223	0.6944	0.076
Mof_C 	C 	0.6703	0.3805	0.7421	0.003
Mof_H 	H 	0.6252	0.3516	0.7921	0.074
Mof_C 	C 	0.7234	0.3429	0.742	0.271
Mof_O 	O 	0.7231	0.30823	0.76351	-0.256
Mof_O 	O 	0.7683	0.35503	0.71286	-0.213
Mof_C 	C 	0.8184	0.3194	0.7057	-0.146
Mof_H 	H 	0.8406	0.3267	0.6791	0.085
Mof_H 	H 	0.7994	0.287	0.7033	0.1
Mof_C 	C 	0.8664	0.3199	0.7424	0.268
Mof_C 	C 	0.8927	0.2768	0.7565	-0.308
Mof_C 	C 	0.8887	0.3614	0.7598	-0.334
Mof_C 	C 	0.9372	0.2752	0.7876	0.227
Mof_H 	H 	0.8793	0.2475	0.744	0.152
Mof_H 	H 	0.8719	0.3911	0.7502	0.171
Mof_C 	C 	0.9334	0.3623	0.7896	0.248
Mof_C 	C 	0.9634	0.2262	0.8031	-0.091
Mof_C 	C 	0.9589	0.3182	0.8061	-0.274
Mof_C 	C 	0.9524	0.4133	0.8102	-0.131
Mof_O 	O 	0.9209	0.20932	0.83785	-0.226
Mof_H 	H 	0.9636	0.2025	0.7799	0.075
Mof_H 	H 	0.0073	0.23	0.8136	0.057
Mof_H 	H 	0.9888	0.3181	0.8282	0.15
Mof_O 	O 	0.0041	0.4035	0.8436	-0.233
Mof_H 	H 	0.9688	0.4354	0.7884	0.104
Mof_H 	H 	0.9149	0.4284	0.8235	0.087
Mof_C 	C 	0.9291	0.1653	0.8534	0.277
Mof_C 	C 	0.0478	0.4369	0.8436	0.232
Mof_O 	O 	0.9679	0.13831	0.83946	-0.263
Mof_C 	C 	0.8839	0.1548	0.8875	0.009
Mof_O 	O 	0.0746	0.4522	0.8106	-0.24
Mof_C 	C 	0.082	0.4227	0.8856	0.042
Mof_C 	C 	0.9021	0.124	0.9129	-0.152
Mof_C 	C 	0.8239	0.1791	0.8859	-0.099
Mof_C 	C 	0.0993	0.375	0.9005	0.025
Mof_C 	C 	0.093	0.4571	0.9196	-0.04
Mof_C 	C 	0.8655	0.1106	0.9448	0.081
Mof_H 	H 	0.9427	0.1099	0.9096	0.089
Mof_H 	H 	0.8121	0.2014	0.8647	0.083
Mof_C 	C 	0.7845	0.1656	0.9201	0.042
Mof_C 	C 	0.1482	0.3713	0.9326	0.057
Mof_H 	H 	0.0794	0.347	0.8896	0.017
Mof_H 	H 	0.0669	0.4848	0.9207	0.042
Mof_C 	C 	0.1415	0.4516	0.952	0.006
Mof_N 	N 	0.801	0.1298	0.95378	-0.213
Mof_H 	H 	0.8818	0.0869	0.9633	-0.009
Mof_H 	H 	0.7442	0.1805	0.9219	0
Mof_N 	N 	0.1719	0.4045	0.9542	-0.223
Mof_H 	H 	0.1641	0.34	0.9378	-0.021
Mof_H 	H 	0.1526	0.4771	0.9704	0.015
Mof_C 	C 	0.8199	0.0984	0.9294	-0.022
Mof_H 	H 	0.8048	0.0666	0.9339	0.006
Mof_C 	C 	0.8616	0.1055	0.8959	0.019
Mof_H 	H 	0.8752	0.0793	0.879	0.024
Mof_C 	C 	0.8652	0.1884	0.919	-0.004
Mof_H 	H 	0.8787	0.2208	0.9162	0.042
Mof_C 	C 	0.8291	0.1763	0.953	-0.03
Mof_H 	H 	0.8228	0.1983	0.9753	0.028
Mof_C 	C 	0.1075	0.3825	0.9455	-0.016
Mof_H 	H 	0.0907	0.3603	0.9652	0.023
Mof_C 	C 	0.0715	0.3936	0.9097	-0.133
Mof_H 	H 	0.0346	0.3748	0.9051	0.08
Mof_C 	C 	0.1461	0.4423	0.8837	-0.093
Mof_H 	H 	0.1597	0.4586	0.8591	0.076
Mof_C 	C 	0.1883	0.4373	0.918	0.021
Mof_H 	H 	0.2271	0.4546	0.9182	0.007
Mof_N 	N 	0.0709	0.94733	0.2472	-0.223
Mof_C 	C 	0.1184	0.952	0.21816	0.062
Mof_C 	C 	0.0732	0.9091	0.2735	0.057
Mof_H 	H 	0.1177	0.9786	0.1995	-0.007
Mof_C 	C 	0.168	0.9185	0.2151	-0.091
Mof_C 	C 	0.1232	0.8768	0.2721	-0.092
Mof_H 	H 	0.0402	0.9043	0.2933	0.011
Mof_H 	H 	0.1998	0.9223	0.1944	0.077
Mof_C 	C 	0.1703	0.8805	0.2421	0.004
Mof_H 	H 	0.1252	0.8516	0.2921	0.073
Mof_C 	C 	0.2234	0.8429	0.242	0.271
Mof_O 	O 	0.2231	0.80823	0.26351	-0.257
Mof_O 	O 	0.2683	0.85503	0.21286	-0.212
Mof_C 	C 	0.3184	0.8194	0.2057	-0.15
Mof_H 	H 	0.3406	0.8267	0.1791	0.085
Mof_H 	H 	0.2994	0.787	0.2033	0.101
Mof_C 	C 	0.3664	0.8199	0.2424	0.276
Mof_C 	C 	0.3927	0.7768	0.2565	-0.321
Mof_C 	C 	0.3887	0.8614	0.2598	-0.345
Mof_C 	C 	0.4372	0.7752	0.2876	0.24
Mof_H 	H 	0.3793	0.7475	0.244	0.156
Mof_H 	H 	0.3719	0.8911	0.2502	0.175
Mof_C 	C 	0.4334	0.8623	0.2896	0.256
Mof_C 	C 	0.4634	0.7262	0.3031	-0.127
Mof_C 	C 	0.4589	0.8182	0.3061	-0.288
Mof_C 	C 	0.4524	0.9133	0.3102	-0.151
Mof_O 	O 	0.4209	0.70932	0.33785	-0.221
Mof_H 	H 	0.4636	0.7025	0.2799	0.082
Mof_H 	H 	0.5073	0.73	0.3136	0.077
Mof_H 	H 	0.4888	0.8181	0.3282	0.149
Mof_O 	O 	0.5041	0.9035	0.3436	-0.22
Mof_H 	H 	0.4688	0.9354	0.2884	0.107
Mof_H 	H 	0.4149	0.9284	0.3235	0.094
Mof_C 	C 	0.4291	0.6653	0.3534	0.273
Mof_C 	C 	0.5478	0.9369	0.3436	0.232
Mof_O 	O 	0.4679	0.63831	0.33946	-0.267
Mof_C 	C 	0.3839	0.6548	0.3875	0.011
Mof_O 	O 	0.5746	0.9522	0.3106	-0.232
Mof_C 	C 	0.582	0.9227	0.3856	0.047
Mof_C 	C 	0.4021	0.624	0.4129	-0.158
Mof_C 	C 	0.3239	0.6791	0.3859	-0.1
Mof_C 	C 	0.5993	0.875	0.4005	0.025
Mof_C 	C 	0.593	0.9571	0.4196	-0.042
Mof_C 	C 	0.3655	0.6106	0.4448	0.082
Mof_H 	H 	0.4427	0.6099	0.4096	0.088
Mof_H 	H 	0.3121	0.7014	0.3647	0.082
Mof_C 	C 	0.2845	0.6656	0.4201	0.043
Mof_C 	C 	0.6482	0.8713	0.4326	0.06
Mof_H 	H 	0.5794	0.847	0.3896	0.018
Mof_H 	H 	0.5669	0.9848	0.4207	0.048
Mof_C 	C 	0.6415	0.9516	0.452	0.006
Mof_N 	N 	0.301	0.6298	0.45378	-0.218
Mof_H 	H 	0.3818	0.5869	0.4633	-0.016
Mof_H 	H 	0.2442	0.6805	0.4219	-0.002
Mof_N 	N 	0.6719	0.9045	0.4542	-0.229
Mof_H 	H 	0.6641	0.84	0.4378	-0.025
Mof_H 	H 	0.6526	0.9771	0.4704	0.01
Mof_C 	C 	0.3199	0.5984	0.4294	-0.022
Mof_H 	H 	0.3048	0.5666	0.4339	0.004
Mof_C 	C 	0.3616	0.6055	0.3959	0.021
Mof_H 	H 	0.3752	0.5793	0.379	0.023
Mof_C 	C 	0.3652	0.6884	0.419	-0.006
Mof_H 	H 	0.3787	0.7208	0.4162	0.039
Mof_C 	C 	0.3291	0.6763	0.453	-0.03
Mof_H 	H 	0.3228	0.6983	0.4753	0.019
Mof_C 	C 	0.6075	0.8825	0.4455	-0.017
Mof_H 	H 	0.5907	0.8603	0.4652	0.019
Mof_C 	C 	0.5715	0.8936	0.4097	-0.136
Mof_H 	H 	0.5346	0.8748	0.4051	0.082
Mof_C 	C 	0.6461	0.9423	0.3837	-0.094
Mof_H 	H 	0.6597	0.9586	0.3591	0.079
Mof_C 	C 	0.6883	0.9373	0.418	0.022
Mof_H 	H 	0.7271	0.9546	0.4182	0.007
Mof_N 	N 	0.9291	0.94733	0.7472	-0.218
Mof_C 	C 	0.8816	0.952	0.71816	0.063
Mof_C 	C 	0.9268	0.9091	0.7735	0.058
Mof_H 	H 	0.8823	0.9786	0.6995	-0.004
Mof_C 	C 	0.832	0.9185	0.7151	-0.09
Mof_C 	C 	0.8768	0.8768	0.7721	-0.09
Mof_H 	H 	0.9598	0.9043	0.7933	0.021
Mof_H 	H 	0.8002	0.9223	0.6944	0.077
Mof_C 	C 	0.8297	0.8805	0.7421	0.003
Mof_H 	H 	0.8748	0.8516	0.7921	0.075
Mof_C 	C 	0.7766	0.8429	0.742	0.271
Mof_O 	O 	0.7769	0.80823	0.76351	-0.255
Mof_O 	O 	0.7317	0.85503	0.71286	-0.211
Mof_C 	C 	0.6816	0.8194	0.7057	-0.151
Mof_H 	H 	0.6594	0.8267	0.6791	0.086
Mof_H 	H 	0.7006	0.787	0.7033	0.102
Mof_C 	C 	0.6336	0.8199	0.7424	0.277
Mof_C 	C 	0.6073	0.7768	0.7565	-0.322
Mof_C 	C 	0.6113	0.8614	0.7598	-0.345
Mof_C 	C 	0.5628	0.7752	0.7876	0.241
Mof_H 	H 	0.6207	0.7475	0.744	0.156
Mof_H 	H 	0.6281	0.8911	0.7502	0.175
Mof_C 	C 	0.5666	0.8623	0.7896	0.257
Mof_C 	C 	0.5366	0.7262	0.8031	-0.127
Mof_C 	C 	0.5411	0.8182	0.8061	-0.288
Mof_C 	C 	0.5476	0.9133	0.8102	-0.152
Mof_O 	O 	0.5791	0.70932	0.83785	-0.221
Mof_H 	H 	0.5364	0.7025	0.7799	0.082
Mof_H 	H 	0.4927	0.73	0.8136	0.078
Mof_H 	H 	0.5112	0.8181	0.8282	0.15
Mof_O 	O 	0.4959	0.9035	0.8436	-0.22
Mof_H 	H 	0.5312	0.9354	0.7884	0.107
Mof_H 	H 	0.5851	0.9284	0.8235	0.095
Mof_C 	C 	0.5709	0.6653	0.8534	0.275
Mof_C 	C 	0.4522	0.9369	0.8436	0.233
Mof_O 	O 	0.5321	0.63831	0.83946	-0.267
Mof_C 	C 	0.6161	0.6548	0.8875	0.009
Mof_O 	O 	0.4254	0.9522	0.8106	-0.232
Mof_C 	C 	0.418	0.9227	0.8856	0.046
Mof_C 	C 	0.5979	0.624	0.9129	-0.152
Mof_C 	C 	0.6761	0.6791	0.8859	-0.099
Mof_C 	C 	0.4007	0.875	0.9005	0.022
Mof_C 	C 	0.407	0.9571	0.9196	-0.041
Mof_C 	C 	0.6345	0.6106	0.9448	0.081
Mof_H 	H 	0.5573	0.6099	0.9096	0.088
Mof_H 	H 	0.6879	0.7014	0.8647	0.083
Mof_C 	C 	0.7155	0.6656	0.9201	0.042
Mof_C 	C 	0.3518	0.8713	0.9326	0.055
Mof_H 	H 	0.4206	0.847	0.8896	0.02
Mof_H 	H 	0.4331	0.9848	0.9207	0.05
Mof_C 	C 	0.3585	0.9516	0.952	0.007
Mof_N 	N 	0.699	0.6298	0.95378	-0.212
Mof_H 	H 	0.6182	0.5869	0.9633	-0.009
Mof_H 	H 	0.7558	0.6805	0.9219	0.001
Mof_N 	N 	0.3281	0.9045	0.9542	-0.223
Mof_H 	H 	0.3359	0.84	0.9378	-0.02
Mof_H 	H 	0.3474	0.9771	0.9704	0.017
Mof_C 	C 	0.6801	0.5984	0.9294	-0.022
Mof_H 	H 	0.6952	0.5666	0.9339	0.007
Mof_C 	C 	0.6384	0.6055	0.8959	0.019
Mof_H 	H 	0.6248	0.5793	0.879	0.024
Mof_C 	C 	0.6348	0.6884	0.919	-0.004
Mof_H 	H 	0.6213	0.7208	0.9162	0.041
Mof_C 	C 	0.6709	0.6763	0.953	-0.03
Mof_H 	H 	0.6772	0.6983	0.9753	0.028
Mof_C 	C 	0.3925	0.8825	0.9455	-0.012
Mof_H 	H 	0.4093	0.8603	0.9652	0.024
Mof_C 	C 	0.4285	0.8936	0.9097	-0.132
Mof_H 	H 	0.4654	0.8748	0.9051	0.083
Mof_C 	C 	0.3539	0.9423	0.8837	-0.093
Mof_H 	H 	0.3403	0.9586	0.8591	0.079
Mof_C 	C 	0.3117	0.9373	0.918	0.021
Mof_H 	H 	0.2729	0.9546	0.9182	0.008
Mof_N 	N 	0.4291	0.44733	0.2472	-0.225
Mof_C 	C 	0.3816	0.452	0.21816	0.061
Mof_C 	C 	0.4268	0.4091	0.2735	0.056
Mof_H 	H 	0.3823	0.4786	0.1995	-0.01
Mof_C 	C 	0.332	0.4185	0.2151	-0.092
Mof_C 	C 	0.3768	0.3768	0.2721	-0.092
Mof_H 	H 	0.4598	0.4043	0.2933	0.014
Mof_H 	H 	0.3002	0.4223	0.1944	0.076
Mof_C 	C 	0.3297	0.3805	0.2421	0.003
Mof_H 	H 	0.3748	0.3516	0.2921	0.073
Mof_C 	C 	0.2766	0.3429	0.242	0.27
Mof_O 	O 	0.2769	0.30823	0.26351	-0.257
Mof_O 	O 	0.2317	0.35503	0.21286	-0.212
Mof_C 	C 	0.1816	0.3194	0.2057	-0.153
Mof_H 	H 	0.1594	0.3267	0.1791	0.085
Mof_H 	H 	0.2006	0.287	0.2033	0.101
Mof_C 	C 	0.1336	0.3199	0.2424	0.281
Mof_C 	C 	0.1073	0.2768	0.2565	-0.332
Mof_C 	C 	0.1113	0.3614	0.2598	-0.351
Mof_C 	C 	0.0628	0.2752	0.2876	0.252
Mof_H 	H 	0.1207	0.2475	0.244	0.159
Mof_H 	H 	0.1281	0.3911	0.2502	0.176
Mof_C 	C 	0.0666	0.3623	0.2896	0.26
Mof_C 	C 	0.0366	0.2262	0.3031	-0.161
Mof_C 	C 	0.0411	0.3182	0.3061	-0.299
Mof_C 	C 	0.0476	0.4133	0.3102	-0.165
Mof_O 	O 	0.0791	0.20932	0.33785	-0.217
Mof_H 	H 	0.0364	0.2025	0.2799	0.089
Mof_H 	H 	0.9927	0.23	0.3136	0.098
Mof_H 	H 	0.0112	0.3181	0.3282	0.147
Mof_O 	O 	0.9959	0.4035	0.3436	-0.21
Mof_H 	H 	0.0312	0.4354	0.2884	0.104
Mof_H 	H 	0.0851	0.4284	0.3235	0.093
Mof_C 	C 	0.0709	0.1653	0.3534	0.271
Mof_C 	C 	0.9522	0.4369	0.3436	0.23
Mof_O 	O 	0.0321	0.13831	0.33946	-0.273
Mof_C 	C 	0.1161	0.1548	0.3875	0.01
Mof_O 	O 	0.9254	0.4522	0.3106	-0.232
Mof_C 	C 	0.918	0.4227	0.3856	0.048
Mof_C 	C 	0.0979	0.124	0.4129	-0.159
Mof_C 	C 	0.1761	0.1791	0.3859	-0.1
Mof_C 	C 	0.9007	0.375	0.4005	0.023
Mof_C 	C 	0.907	0.4571	0.4196	-0.042
Mof_C 	C 	0.1345	0.1106	0.4448	0.082
Mof_H 	H 	0.0573	0.1099	0.4096	0.084
Mof_H 	H 	0.1879	0.2014	0.3647	0.082
Mof_C 	C 	0.2155	0.1656	0.4201	0.043
Mof_C 	C 	0.8518	0.3713	0.4326	0.06
Mof_H 	H 	0.9206	0.347	0.3896	0.02
Mof_H 	H 	0.9331	0.4848	0.4207	0.047
Mof_C 	C 	0.8585	0.4516	0.452	0.006
Mof_N 	N 	0.199	0.1298	0.45378	-0.218
Mof_H 	H 	0.1182	0.0869	0.4633	-0.018
Mof_H 	H 	0.2558	0.1805	0.4219	-0.002
Mof_N 	N 	0.8281	0.4045	0.4542	-0.229
Mof_H 	H 	0.8359	0.34	0.4378	-0.025
Mof_H 	H 	0.8474	0.4771	0.4704	0.009
Mof_C 	C 	0.1801	0.0984	0.4294	-0.023
Mof_H 	H 	0.1952	0.0666	0.4339	0.003
Mof_C 	C 	0.1384	0.1055	0.3959	0.023
Mof_H 	H 	0.1248	0.0793	0.379	0.02
Mof_C 	C 	0.1348	0.1884	0.419	-0.006
Mof_H 	H 	0.1213	0.2208	0.4162	0.037
Mof_C 	C 	0.1709	0.1763	0.453	-0.031
Mof_H 	H 	0.1772	0.1983	0.4753	0.018
Mof_C 	C 	0.8925	0.3825	0.4455	-0.016
Mof_H 	H 	0.9093	0.3603	0.4652	0.02
Mof_C 	C 	0.9285	0.3936	0.4097	-0.136
Mof_H 	H 	0.9654	0.3748	0.4051	0.084
Mof_C 	C 	0.8539	0.4423	0.3837	-0.095
Mof_H 	H 	0.8403	0.4586	0.3591	0.077
Mof_C 	C 	0.8117	0.4373	0.418	0.022
Mof_H 	H 	0.7729	0.4546	0.4182	0.005
Mof_N 	N 	0.0709	0.05267	0.7472	-0.229
Mof_C 	C 	0.1184	0.048	0.71816	0.06
Mof_C 	C 	0.0732	0.0909	0.7735	0.055
Mof_H 	H 	0.1177	0.0214	0.6995	-0.014
Mof_C 	C 	0.168	0.0815	0.7151	-0.093
Mof_C 	C 	0.1232	0.1232	0.7721	-0.094
Mof_H 	H 	0.0402	0.0957	0.7933	0.009
Mof_H 	H 	0.1998	0.0777	0.6944	0.075
Mof_C 	C 	0.1703	0.1195	0.7421	0.003
Mof_H 	H 	0.1252	0.1484	0.7921	0.072
Mof_C 	C 	0.2234	0.1571	0.742	0.27
Mof_O 	O 	0.2231	0.19177	0.76351	-0.257
Mof_O 	O 	0.2683	0.14497	0.71286	-0.213
Mof_C 	C 	0.3184	0.1806	0.7057	-0.149
Mof_H 	H 	0.3406	0.1733	0.6791	0.085
Mof_H 	H 	0.2994	0.213	0.7033	0.101
Mof_C 	C 	0.3664	0.1801	0.7424	0.273
Mof_C 	C 	0.3927	0.2232	0.7565	-0.319
Mof_C 	C 	0.3887	0.1386	0.7598	-0.341
Mof_C 	C 	0.4372	0.2248	0.7876	0.239
Mof_H 	H 	0.3793	0.2525	0.744	0.155
Mof_H 	H 	0.3719	0.1089	0.7502	0.171
Mof_C 	C 	0.4334	0.1377	0.7896	0.251
Mof_C 	C 	0.4634	0.2738	0.8031	-0.126
Mof_C 	C 	0.4589	0.1818	0.8061	-0.285
Mof_C 	C 	0.4524	0.0867	0.8102	-0.145
Mof_O 	O 	0.4209	0.29068	0.83785	-0.221
Mof_H 	H 	0.4636	0.2975	0.7799	0.082
Mof_H 	H 	0.5073	0.27	0.8136	0.078
Mof_H 	H 	0.4888	0.1819	0.8282	0.148
Mof_O 	O 	0.5041	0.0965	0.8436	-0.223
Mof_H 	H 	0.4688	0.0646	0.7884	0.101
Mof_H 	H 	0.4149	0.0716	0.8235	0.086
Mof_C 	C 	0.4291	0.3347	0.8534	0.275
Mof_C 	C 	0.5478	0.0631	0.8436	0.23
Mof_O 	O 	0.4679	0.36169	0.83946	-0.267
Mof_C 	C 	0.3839	0.3452	0.8875	0.009
Mof_O 	O 	0.5746	0.0478	0.8106	-0.239
Mof_C 	C 	0.582	0.0773	0.8856	0.043
Mof_C 	C 	0.4021	0.376	0.9129	-0.152
Mof_C 	C 	0.3239	0.3209	0.8859	-0.1
Mof_C 	C 	0.5993	0.125	0.9005	0.024
Mof_C 	C 	0.593	0.0429	0.9196	-0.04
Mof_C 	C 	0.3655	0.3894	0.9448	0.081
Mof_H 	H 	0.4427	0.3901	0.9096	0.088
Mof_H 	H 	0.3121	0.2986	0.8647	0.082
Mof_C 	C 	0.2845	0.3344	0.9201	0.042
Mof_C 	C 	0.6482	0.1287	0.9326	0.057
Mof_H 	H 	0.5794	0.153	0.8896	0.019
Mof_H 	H 	0.5669	0.0152	0.9207	0.042
Mof_C 	C 	0.6415	0.0484	0.952	0.006
Mof_N 	N 	0.301	0.3702	0.95378	-0.213
Mof_H 	H 	0.3818	0.4131	0.9633	-0.009
Mof_H 	H 	0.2442	0.3195	0.9219	-0
Mof_N 	N 	0.6719	0.0955	0.9542	-0.223
Mof_H 	H 	0.6641	0.16	0.9378	-0.021
Mof_H 	H 	0.6526	0.0229	0.9704	0.014
Mof_C 	C 	0.3199	0.4016	0.9294	-0.022
Mof_H 	H 	0.3048	0.4334	0.9339	0.007
Mof_C 	C 	0.3616	0.3945	0.8959	0.019
Mof_H 	H 	0.3752	0.4207	0.879	0.024
Mof_C 	C 	0.3652	0.3116	0.919	-0.004
Mof_H 	H 	0.3787	0.2792	0.9162	0.04
Mof_C 	C 	0.3291	0.3237	0.953	-0.03
Mof_H 	H 	0.3228	0.3017	0.9753	0.027
Mof_C 	C 	0.6075	0.1175	0.9455	-0.016
Mof_H 	H 	0.5907	0.1397	0.9652	0.025
Mof_C 	C 	0.5715	0.1064	0.9097	-0.133
Mof_H 	H 	0.5346	0.1252	0.9051	0.081
Mof_C 	C 	0.6461	0.0577	0.8837	-0.093
Mof_H 	H 	0.6597	0.0414	0.8591	0.074
Mof_C 	C 	0.6883	0.0627	0.918	0.021
Mof_H 	H 	0.7271	0.0454	0.9182	0.006
Mof_N 	N 	0.5709	0.55267	0.2472	-0.225
Mof_C 	C 	0.6184	0.548	0.21816	0.061
Mof_C 	C 	0.5732	0.5909	0.2735	0.056
Mof_H 	H 	0.6177	0.5214	0.1995	-0.01
Mof_C 	C 	0.668	0.5815	0.2151	-0.092
Mof_C 	C 	0.6232	0.6232	0.2721	-0.092
Mof_H 	H 	0.5402	0.5957	0.2933	0.014
Mof_H 	H 	0.6998	0.5777	0.1944	0.076
Mof_C 	C 	0.6703	0.6195	0.2421	0.003
Mof_H 	H 	0.6252	0.6484	0.2921	0.073
Mof_C 	C 	0.7234	0.6571	0.242	0.271
Mof_O 	O 	0.7231	0.69177	0.26351	-0.257
Mof_O 	O 	0.7683	0.64497	0.21286	-0.213
Mof_C 	C 	0.8184	0.6806	0.2057	-0.146
Mof_H 	H 	0.8406	0.6733	0.1791	0.085
Mof_H 	H 	0.7994	0.713	0.2033	0.1
Mof_C 	C 	0.8664	0.6801	0.2424	0.268
Mof_C 	C 	0.8927	0.7232	0.2565	-0.309
Mof_C 	C 	0.8887	0.6386	0.2598	-0.334
Mof_C 	C 	0.9372	0.7248	0.2876	0.227
Mof_H 	H 	0.8793	0.7525	0.244	0.152
Mof_H 	H 	0.8719	0.6089	0.2502	0.171
Mof_C 	C 	0.9334	0.6377	0.2896	0.247
Mof_C 	C 	0.9634	0.7738	0.3031	-0.093
Mof_C 	C 	0.9589	0.6818	0.3061	-0.274
Mof_C 	C 	0.9524	0.5867	0.3102	-0.131
Mof_O 	O 	0.9209	0.79068	0.33785	-0.226
Mof_H 	H 	0.9636	0.7975	0.2799	0.075
Mof_H 	H 	0.0073	0.77	0.3136	0.058
Mof_H 	H 	0.9888	0.6819	0.3282	0.15
Mof_O 	O 	0.0041	0.5965	0.3436	-0.233
Mof_H 	H 	0.9688	0.5646	0.2884	0.104
Mof_H 	H 	0.9149	0.5716	0.3235	0.087
Mof_C 	C 	0.9291	0.8347	0.3534	0.275
Mof_C 	C 	0.0478	0.5631	0.3436	0.231
Mof_O 	O 	0.9679	0.86169	0.33946	-0.262
Mof_C 	C 	0.8839	0.8452	0.3875	0.012
Mof_O 	O 	0.0746	0.5478	0.3106	-0.24
Mof_C 	C 	0.082	0.5773	0.3856	0.044
Mof_C 	C 	0.9021	0.876	0.4129	-0.157
Mof_C 	C 	0.8239	0.8209	0.3859	-0.1
Mof_C 	C 	0.0993	0.625	0.4005	0.028
Mof_C 	C 	0.093	0.5429	0.4196	-0.041
Mof_C 	C 	0.8655	0.8894	0.4448	0.082
Mof_H 	H 	0.9427	0.8901	0.4096	0.091
Mof_H 	H 	0.8121	0.7986	0.3647	0.083
Mof_C 	C 	0.7845	0.8344	0.4201	0.042
Mof_C 	C 	0.1482	0.6287	0.4326	0.062
Mof_H 	H 	0.0794	0.653	0.3896	0.016
Mof_H 	H 	0.0669	0.5152	0.4207	0.04
Mof_C 	C 	0.1415	0.5484	0.452	0.004
Mof_N 	N 	0.801	0.8702	0.45378	-0.218
Mof_H 	H 	0.8818	0.9131	0.4633	-0.013
Mof_H 	H 	0.7442	0.8195	0.4219	-0.002
Mof_N 	N 	0.1719	0.5955	0.4542	-0.229
Mof_H 	H 	0.1641	0.66	0.4378	-0.026
Mof_H 	H 	0.1526	0.5229	0.4704	0.007
Mof_C 	C 	0.8199	0.9016	0.4294	-0.022
Mof_H 	H 	0.8048	0.9334	0.4339	0.006
Mof_C 	C 	0.8616	0.8945	0.3959	0.02
Mof_H 	H 	0.8752	0.9207	0.379	0.026
Mof_C 	C 	0.8652	0.8116	0.419	-0.006
Mof_H 	H 	0.8787	0.7792	0.4162	0.041
Mof_C 	C 	0.8291	0.8237	0.453	-0.029
Mof_H 	H 	0.8228	0.8017	0.4753	0.019
Mof_C 	C 	0.1075	0.6175	0.4455	-0.021
Mof_H 	H 	0.0907	0.6397	0.4652	0.019
Mof_C 	C 	0.0715	0.6064	0.4097	-0.136
Mof_H 	H 	0.0346	0.6252	0.4051	0.079
Mof_C 	C 	0.1461	0.5577	0.3837	-0.094
Mof_H 	H 	0.1597	0.5414	0.3591	0.076
Mof_C 	C 	0.1883	0.5627	0.418	0.022
Mof_H 	H 	0.2271	0.5454	0.4182	0.004
Mof_N 	N 	0.5709	0.44733	0.2528	-0.225
Mof_C 	C 	0.6184	0.452	0.28184	0.061
Mof_C 	C 	0.5732	0.4091	0.2265	0.056
Mof_H 	H 	0.6177	0.4786	0.3005	-0.01
Mof_C 	C 	0.668	0.4185	0.2849	-0.091
Mof_C 	C 	0.6232	0.3768	0.2279	-0.092
Mof_H 	H 	0.5402	0.4043	0.2067	0.014
Mof_H 	H 	0.6998	0.4223	0.3056	0.076
Mof_C 	C 	0.6703	0.3805	0.2579	0.002
Mof_H 	H 	0.6252	0.3516	0.2079	0.073
Mof_C 	C 	0.7234	0.3429	0.258	0.271
Mof_O 	O 	0.7231	0.30823	0.23649	-0.257
Mof_O 	O 	0.7683	0.35503	0.28714	-0.213
Mof_C 	C 	0.8184	0.3194	0.2943	-0.145
Mof_H 	H 	0.8406	0.3267	0.3209	0.085
Mof_H 	H 	0.7994	0.287	0.2967	0.1
Mof_C 	C 	0.8664	0.3199	0.2576	0.267
Mof_C 	C 	0.8927	0.2768	0.2435	-0.307
Mof_C 	C 	0.8887	0.3614	0.2402	-0.333
Mof_C 	C 	0.9372	0.2752	0.2124	0.226
Mof_H 	H 	0.8793	0.2475	0.256	0.152
Mof_H 	H 	0.8719	0.3911	0.2498	0.17
Mof_C 	C 	0.9334	0.3623	0.2104	0.246
Mof_C 	C 	0.9634	0.2262	0.1969	-0.09
Mof_C 	C 	0.9589	0.3182	0.1939	-0.273
Mof_C 	C 	0.9524	0.4133	0.1898	-0.131
Mof_O 	O 	0.9209	0.20932	0.16215	-0.227
Mof_H 	H 	0.9636	0.2025	0.2201	0.074
Mof_H 	H 	0.0073	0.23	0.1864	0.056
Mof_H 	H 	0.9888	0.3181	0.1718	0.149
Mof_O 	O 	0.0041	0.4035	0.1564	-0.234
Mof_H 	H 	0.9688	0.4354	0.2116	0.103
Mof_H 	H 	0.9149	0.4284	0.1765	0.086
Mof_C 	C 	0.9291	0.1653	0.1466	0.275
Mof_C 	C 	0.0478	0.4369	0.1564	0.231
Mof_O 	O 	0.9679	0.13831	0.16054	-0.264
Mof_C 	C 	0.8839	0.1548	0.1125	0.013
Mof_O 	O 	0.0746	0.4522	0.1894	-0.24
Mof_C 	C 	0.082	0.4227	0.1144	0.045
Mof_C 	C 	0.9021	0.124	0.0871	-0.162
Mof_C 	C 	0.8239	0.1791	0.1141	-0.1
Mof_C 	C 	0.0993	0.375	0.0995	0.03
Mof_C 	C 	0.093	0.4571	0.0804	-0.042
Mof_C 	C 	0.8655	0.1106	0.0552	0.083
Mof_H 	H 	0.9427	0.1099	0.0904	0.088
Mof_H 	H 	0.8121	0.2014	0.1353	0.082
Mof_C 	C 	0.7845	0.1656	0.0799	0.043
Mof_C 	C 	0.1482	0.3713	0.0674	0.066
Mof_H 	H 	0.0794	0.347	0.1104	0.014
Mof_H 	H 	0.0669	0.4848	0.0793	0.038
Mof_C 	C 	0.1415	0.4516	0.048	0.003
Mof_N 	N 	0.801	0.1298	0.04622	-0.221
Mof_H 	H 	0.8818	0.0869	0.0367	-0.022
Mof_H 	H 	0.7442	0.1805	0.0781	-0.003
Mof_N 	N 	0.1719	0.4045	0.0458	-0.232
Mof_H 	H 	0.1641	0.34	0.0622	-0.03
Mof_H 	H 	0.1526	0.4771	0.0296	0.001
Mof_C 	C 	0.8199	0.0984	0.0706	-0.023
Mof_H 	H 	0.8048	0.0666	0.0661	0.001
Mof_C 	C 	0.8616	0.1055	0.1041	0.023
Mof_H 	H 	0.8752	0.0793	0.121	0.021
Mof_C 	C 	0.8652	0.1884	0.081	-0.008
Mof_H 	H 	0.8787	0.2208	0.0838	0.039
Mof_C 	C 	0.8291	0.1763	0.047	-0.03
Mof_H 	H 	0.8228	0.1983	0.0247	0.011
Mof_C 	C 	0.1075	0.3825	0.0545	-0.025
Mof_H 	H 	0.0907	0.3603	0.0348	0.014
Mof_C 	C 	0.0715	0.3936	0.0903	-0.139
Mof_H 	H 	0.0346	0.3748	0.0949	0.078
Mof_C 	C 	0.1461	0.4423	0.1163	-0.095
Mof_H 	H 	0.1597	0.4586	0.1409	0.076
Mof_C 	C 	0.1883	0.4373	0.082	0.023
Mof_H 	H 	0.2271	0.4546	0.0818	0.003
Mof_N 	N 	0.0709	0.94733	0.7528	-0.223
Mof_C 	C 	0.1184	0.952	0.78184	0.062
Mof_C 	C 	0.0732	0.9091	0.7265	0.057
Mof_H 	H 	0.1177	0.9786	0.8005	-0.006
Mof_C 	C 	0.168	0.9185	0.7849	-0.091
Mof_C 	C 	0.1232	0.8768	0.7279	-0.092
Mof_H 	H 	0.0402	0.9043	0.7067	0.011
Mof_H 	H 	0.1998	0.9223	0.8056	0.077
Mof_C 	C 	0.1703	0.8805	0.7579	0.004
Mof_H 	H 	0.1252	0.8516	0.7079	0.073
Mof_C 	C 	0.2234	0.8429	0.758	0.271
Mof_O 	O 	0.2231	0.80823	0.73649	-0.257
Mof_O 	O 	0.2683	0.85503	0.78714	-0.211
Mof_C 	C 	0.3184	0.8194	0.7943	-0.151
Mof_H 	H 	0.3406	0.8267	0.8209	0.086
Mof_H 	H 	0.2994	0.787	0.7967	0.102
Mof_C 	C 	0.3664	0.8199	0.7576	0.277
Mof_C 	C 	0.3927	0.7768	0.7435	-0.322
Mof_C 	C 	0.3887	0.8614	0.7402	-0.345
Mof_C 	C 	0.4372	0.7752	0.7124	0.241
Mof_H 	H 	0.3793	0.7475	0.756	0.156
Mof_H 	H 	0.3719	0.8911	0.7498	0.175
Mof_C 	C 	0.4334	0.8623	0.7104	0.256
Mof_C 	C 	0.4634	0.7262	0.6969	-0.127
Mof_C 	C 	0.4589	0.8182	0.6939	-0.288
Mof_C 	C 	0.4524	0.9133	0.6898	-0.151
Mof_O 	O 	0.4209	0.70932	0.66215	-0.221
Mof_H 	H 	0.4636	0.7025	0.7201	0.082
Mof_H 	H 	0.5073	0.73	0.6864	0.077
Mof_H 	H 	0.4888	0.8181	0.6718	0.149
Mof_O 	O 	0.5041	0.9035	0.6564	-0.22
Mof_H 	H 	0.4688	0.9354	0.7116	0.107
Mof_H 	H 	0.4149	0.9284	0.6765	0.094
Mof_C 	C 	0.4291	0.6653	0.6466	0.273
Mof_C 	C 	0.5478	0.9369	0.6564	0.232
Mof_O 	O 	0.4679	0.63831	0.66054	-0.267
Mof_C 	C 	0.3839	0.6548	0.6125	0.011
Mof_O 	O 	0.5746	0.9522	0.6894	-0.232
Mof_C 	C 	0.582	0.9227	0.6144	0.047
Mof_C 	C 	0.4021	0.624	0.5871	-0.158
Mof_C 	C 	0.3239	0.6791	0.6141	-0.1
Mof_C 	C 	0.5993	0.875	0.5995	0.025
Mof_C 	C 	0.593	0.9571	0.5804	-0.042
Mof_C 	C 	0.3655	0.6106	0.5552	0.082
Mof_H 	H 	0.4427	0.6099	0.5904	0.088
Mof_H 	H 	0.3121	0.7014	0.6353	0.082
Mof_C 	C 	0.2845	0.6656	0.5799	0.043
Mof_C 	C 	0.6482	0.8713	0.5674	0.06
Mof_H 	H 	0.5794	0.847	0.6104	0.018
Mof_H 	H 	0.5669	0.9848	0.5793	0.048
Mof_C 	C 	0.6415	0.9516	0.548	0.006
Mof_N 	N 	0.301	0.6298	0.54622	-0.218
Mof_H 	H 	0.3818	0.5869	0.5367	-0.016
Mof_H 	H 	0.2442	0.6805	0.5781	-0.002
Mof_N 	N 	0.6719	0.9045	0.5458	-0.229
Mof_H 	H 	0.6641	0.84	0.5622	-0.025
Mof_H 	H 	0.6526	0.9771	0.5296	0.01
Mof_C 	C 	0.3199	0.5984	0.5706	-0.022
Mof_H 	H 	0.3048	0.5666	0.5661	0.004
Mof_C 	C 	0.3616	0.6055	0.6041	0.021
Mof_H 	H 	0.3752	0.5793	0.621	0.023
Mof_C 	C 	0.3652	0.6884	0.581	-0.006
Mof_H 	H 	0.3787	0.7208	0.5838	0.039
Mof_C 	C 	0.3291	0.6763	0.547	-0.03
Mof_H 	H 	0.3228	0.6983	0.5247	0.019
Mof_C 	C 	0.6075	0.8825	0.5545	-0.017
Mof_H 	H 	0.5907	0.8603	0.5348	0.019
Mof_C 	C 	0.5715	0.8936	0.5903	-0.136
Mof_H 	H 	0.5346	0.8748	0.5949	0.082
Mof_C 	C 	0.6461	0.9423	0.6163	-0.094
Mof_H 	H 	0.6597	0.9586	0.6409	0.079
Mof_C 	C 	0.6883	0.9373	0.582	0.022
Mof_H 	H 	0.7271	0.9546	0.5818	0.007
Mof_N 	N 	0.4291	0.55267	0.2528	-0.225
Mof_C 	C 	0.3816	0.548	0.28184	0.061
Mof_C 	C 	0.4268	0.5909	0.2265	0.056
Mof_H 	H 	0.3823	0.5214	0.3005	-0.01
Mof_C 	C 	0.332	0.5815	0.2849	-0.092
Mof_C 	C 	0.3768	0.6232	0.2279	-0.092
Mof_H 	H 	0.4598	0.5957	0.2067	0.014
Mof_H 	H 	0.3002	0.5777	0.3056	0.076
Mof_C 	C 	0.3297	0.6195	0.2579	0.002
Mof_H 	H 	0.3748	0.6484	0.2079	0.073
Mof_C 	C 	0.2766	0.6571	0.258	0.27
Mof_O 	O 	0.2769	0.69177	0.23649	-0.257
Mof_O 	O 	0.2317	0.64497	0.28714	-0.212
Mof_C 	C 	0.1816	0.6806	0.2943	-0.154
Mof_H 	H 	0.1594	0.6733	0.3209	0.086
Mof_H 	H 	0.2006	0.713	0.2967	0.102
Mof_C 	C 	0.1336	0.6801	0.2576	0.281
Mof_C 	C 	0.1073	0.7232	0.2435	-0.331
Mof_C 	C 	0.1113	0.6386	0.2402	-0.351
Mof_C 	C 	0.0628	0.7248	0.2124	0.251
Mof_H 	H 	0.1207	0.7525	0.256	0.159
Mof_H 	H 	0.1281	0.6089	0.2498	0.175
Mof_C 	C 	0.0666	0.6377	0.2104	0.259
Mof_C 	C 	0.0366	0.7738	0.1969	-0.159
Mof_C 	C 	0.0411	0.6818	0.1939	-0.299
Mof_C 	C 	0.0476	0.5867	0.1898	-0.164
Mof_O 	O 	0.0791	0.79068	0.16215	-0.217
Mof_H 	H 	0.0364	0.7975	0.2201	0.088
Mof_H 	H 	0.9927	0.77	0.1864	0.096
Mof_H 	H 	0.0112	0.6819	0.1718	0.146
Mof_O 	O 	0.9959	0.5965	0.1564	-0.211
Mof_H 	H 	0.0312	0.5646	0.2116	0.104
Mof_H 	H 	0.0851	0.5716	0.1765	0.092
Mof_C 	C 	0.0709	0.8347	0.1466	0.27
Mof_C 	C 	0.9522	0.5631	0.1564	0.23
Mof_O 	O 	0.0321	0.86169	0.16054	-0.271
Mof_C 	C 	0.1161	0.8452	0.1125	0.013
Mof_O 	O 	0.9254	0.5478	0.1894	-0.232
Mof_C 	C 	0.918	0.5773	0.1144	0.049
Mof_C 	C 	0.0979	0.876	0.0871	-0.162
Mof_C 	C 	0.1761	0.8209	0.1141	-0.1
Mof_C 	C 	0.9007	0.625	0.0995	0.025
Mof_C 	C 	0.907	0.5429	0.0804	-0.043
Mof_C 	C 	0.1345	0.8894	0.0552	0.082
Mof_H 	H 	0.0573	0.8901	0.0904	0.086
Mof_H 	H 	0.1879	0.7986	0.1353	0.082
Mof_C 	C 	0.2155	0.8344	0.0799	0.043
Mof_C 	C 	0.8518	0.6287	0.0674	0.065
Mof_H 	H 	0.9206	0.653	0.1104	0.019
Mof_H 	H 	0.9331	0.5152	0.0793	0.045
Mof_C 	C 	0.8585	0.5484	0.048	0.005
Mof_N 	N 	0.199	0.8702	0.04622	-0.221
Mof_H 	H 	0.1182	0.9131	0.0367	-0.021
Mof_H 	H 	0.2558	0.8195	0.0781	-0.004
Mof_N 	N 	0.8281	0.5955	0.0458	-0.232
Mof_H 	H 	0.8359	0.66	0.0622	-0.028
Mof_H 	H 	0.8474	0.5229	0.0296	0.002
Mof_C 	C 	0.1801	0.9016	0.0706	-0.022
Mof_H 	H 	0.1952	0.9334	0.0661	0.003
Mof_C 	C 	0.1384	0.8945	0.1041	0.024
Mof_H 	H 	0.1248	0.9207	0.121	0.022
Mof_C 	C 	0.1348	0.8116	0.081	-0.009
Mof_H 	H 	0.1213	0.7792	0.0838	0.036
Mof_C 	C 	0.1709	0.8237	0.047	-0.03
Mof_H 	H 	0.1772	0.8017	0.0247	0.01
Mof_C 	C 	0.8925	0.6175	0.0545	-0.021
Mof_H 	H 	0.9093	0.6397	0.0348	0.016
Mof_C 	C 	0.9285	0.6064	0.0903	-0.139
Mof_H 	H 	0.9654	0.6252	0.0949	0.083
Mof_C 	C 	0.8539	0.5577	0.1163	-0.096
Mof_H 	H 	0.8403	0.5414	0.1409	0.077
Mof_C 	C 	0.8117	0.5627	0.082	0.023
Mof_H 	H 	0.7729	0.5454	0.0818	0.003
Mof_N 	N 	0.9291	0.05267	0.7528	-0.223
Mof_C 	C 	0.8816	0.048	0.78184	0.06
Mof_C 	C 	0.9268	0.0909	0.7265	0.055
Mof_H 	H 	0.8823	0.0214	0.8005	-0.011
Mof_C 	C 	0.832	0.0815	0.7849	-0.092
Mof_C 	C 	0.8768	0.1232	0.7279	-0.091
Mof_H 	H 	0.9598	0.0957	0.7067	0.019
Mof_H 	H 	0.8002	0.0777	0.8056	0.075
Mof_C 	C 	0.8297	0.1195	0.7579	0.002
Mof_H 	H 	0.8748	0.1484	0.7079	0.074
Mof_C 	C 	0.7766	0.1571	0.758	0.271
Mof_O 	O 	0.7769	0.19177	0.73649	-0.257
Mof_O 	O 	0.7317	0.14497	0.78714	-0.213
Mof_C 	C 	0.6816	0.1806	0.7943	-0.149
Mof_H 	H 	0.6594	0.1733	0.8209	0.085
Mof_H 	H 	0.7006	0.213	0.7967	0.102
Mof_C 	C 	0.6336	0.1801	0.7576	0.274
Mof_C 	C 	0.6073	0.2232	0.7435	-0.319
Mof_C 	C 	0.6113	0.1386	0.7402	-0.341
Mof_C 	C 	0.5628	0.2248	0.7124	0.238
Mof_H 	H 	0.6207	0.2525	0.756	0.155
Mof_H 	H 	0.6281	0.1089	0.7498	0.171
Mof_C 	C 	0.5666	0.1377	0.7104	0.251
Mof_C 	C 	0.5366	0.2738	0.6969	-0.125
Mof_C 	C 	0.5411	0.1818	0.6939	-0.285
Mof_C 	C 	0.5476	0.0867	0.6898	-0.145
Mof_O 	O 	0.5791	0.29068	0.66215	-0.222
Mof_H 	H 	0.5364	0.2975	0.7201	0.081
Mof_H 	H 	0.4927	0.27	0.6864	0.077
Mof_H 	H 	0.5112	0.1819	0.6718	0.148
Mof_O 	O 	0.4959	0.0965	0.6564	-0.223
Mof_H 	H 	0.5312	0.0646	0.7116	0.101
Mof_H 	H 	0.5851	0.0716	0.6765	0.086
Mof_C 	C 	0.5709	0.3347	0.6466	0.274
Mof_C 	C 	0.4522	0.0631	0.6564	0.229
Mof_O 	O 	0.5321	0.36169	0.66054	-0.268
Mof_C 	C 	0.6161	0.3452	0.6125	0.011
Mof_O 	O 	0.4254	0.0478	0.6894	-0.24
Mof_C 	C 	0.418	0.0773	0.6144	0.045
Mof_C 	C 	0.5979	0.376	0.5871	-0.158
Mof_C 	C 	0.6761	0.3209	0.6141	-0.1
Mof_C 	C 	0.4007	0.125	0.5995	0.027
Mof_C 	C 	0.407	0.0429	0.5804	-0.041
Mof_C 	C 	0.6345	0.3894	0.5552	0.082
Mof_H 	H 	0.5573	0.3901	0.5904	0.088
Mof_H 	H 	0.6879	0.2986	0.6353	0.082
Mof_C 	C 	0.7155	0.3344	0.5799	0.043
Mof_C 	C 	0.3518	0.1287	0.5674	0.062
Mof_H 	H 	0.4206	0.153	0.6104	0.017
Mof_H 	H 	0.4331	0.0152	0.5793	0.039
Mof_C 	C 	0.3585	0.0484	0.548	0.004
Mof_N 	N 	0.699	0.3702	0.54622	-0.218
Mof_H 	H 	0.6182	0.4131	0.5367	-0.015
Mof_H 	H 	0.7558	0.3195	0.5781	-0.002
Mof_N 	N 	0.3281	0.0955	0.5458	-0.229
Mof_H 	H 	0.3359	0.16	0.5622	-0.026
Mof_H 	H 	0.3474	0.0229	0.5296	0.006
Mof_C 	C 	0.6801	0.4016	0.5706	-0.022
Mof_H 	H 	0.6952	0.4334	0.5661	0.004
Mof_C 	C 	0.6384	0.3945	0.6041	0.022
Mof_H 	H 	0.6248	0.4207	0.621	0.023
Mof_C 	C 	0.6348	0.3116	0.581	-0.006
Mof_H 	H 	0.6213	0.2792	0.5838	0.039
Mof_C 	C 	0.6709	0.3237	0.547	-0.03
Mof_H 	H 	0.6772	0.3017	0.5247	0.018
Mof_C 	C 	0.3925	0.1175	0.5545	-0.02
Mof_H 	H 	0.4093	0.1397	0.5348	0.02
Mof_C 	C 	0.4285	0.1064	0.5903	-0.136
Mof_H 	H 	0.4654	0.1252	0.5949	0.081
Mof_C 	C 	0.3539	0.0577	0.6163	-0.095
Mof_H 	H 	0.3403	0.0414	0.6409	0.074
Mof_C 	C 	0.3117	0.0627	0.582	0.022
Mof_H 	H 	0.2729	0.0454	0.5818	0.003
Mof_Cu	Cu	4.28105e-33	0	0.25	0.838
Mof_Cu	Cu	0.5	0.5	0.75	0.85
Mof_Cu	Cu	1.57092e-32	0	0.75	0.838
Mof_Cu	Cu	0.5	0.5	0.25	0.85
Mof_Cu	Cu	0.2358	0.38789	-0	0.841
Mof_Cu	Cu	0.7358	0.88789	0.5	0.851
Mof_Cu	Cu	0.7642	0.61211	-0	0.841
Mof_Cu	Cu	0.2642	0.11211	0.5	0.85
Mof_Cu	Cu	0.2642	0.88789	-0	0.841
Mof_Cu	Cu	0.7642	0.38789	0.5	0.851
Mof_Cu	Cu	0.7358	0.11211	-0	0.841
Mof_Cu	Cu	0.2358	0.61211	0.5	0.851
_end
