data_functionalizedCrystal
_audit_creation_method	'EQeq! by Chris Wilmer'
_symmetry_space_group_name_H-M	'P1'
_symmetry_Int_Tables_number	1
_symmetry_cell_setting	triclinic
loop_
_symmetry_equiv_pos_as_xyz
  x,y,z
_cell_length_a	11.589
_cell_length_b	17.792
_cell_length_c	16.441
_cell_angle_alpha	90
_cell_angle_beta	109.73
_cell_angle_gamma	90
loop_
_atom_site_label
_atom_site_type_symbol
_atom_site_fract_x
_atom_site_fract_y
_atom_site_fract_z
_atom_site_charge
Mof_Tb	Tb	0.91119	0.01015	0.86194	2.32
Mof_Zn	Zn	0.58823	0.1152	0.69953	1.229
Mof_C 	C 	0.8048	0.9412	0.0158	0.551
Mof_C 	C 	0.6796	0.9233	0.0176	-0.152
Mof_C 	C 	0.66	0.9185	0.0943	0.075
Mof_H 	H 	0.7258	0.9246	0.1452	0.036
Mof_C 	C 	0.544	0.9046	0.0989	-0.087
Mof_C 	C 	0.4514	0.8943	0.0257	-0.037
Mof_H 	H 	0.3726	0.8865	0.0269	0.072
Mof_C 	C 	0.4718	0.8951	0.948	0.071
Mof_C 	C 	0.5828	0.9098	0.9414	0.008
Mof_H 	H 	0.594	0.9108	0.888	0.068
Mof_C 	C 	0.5222	0.9011	0.1861	0.384
Mof_C 	C 	0.6355	0.9616	0.6989	0.521
Mof_C 	C 	0.5849	0.8837	0.6819	-0.162
Mof_C 	C 	0.6459	0.82	0.7179	0.115
Mof_H 	H 	0.7246	0.8249	0.7577	0.007
Mof_C 	C 	0.5987	0.7497	0.6992	-0.151
Mof_C 	C 	0.4869	0.741	0.6352	0.006
Mof_H 	H 	0.4533	0.6933	0.621	0.054
Mof_C 	C 	0.425	0.8032	0.5921	0.07
Mof_C 	C 	0.4748	0.8743	0.6119	-0.003
Mof_H 	H 	0.4359	0.9155	0.5794	0.069
Mof_C 	C 	0.6732	0.6792	0.7391	0.511
Mof_C 	C 	0.3645	0.136	0.5465	0.123
Mof_H 	H 	0.3542	0.0848	0.5528	-0.005
Mof_C 	C 	0.2772	0.1743	0.4788	-0.188
Mof_H 	H 	0.2098	0.1495	0.4407	0.101
Mof_C 	C 	0.2956	0.25	0.4711	0.154
Mof_H 	H 	0.2409	0.2773	0.4264	-0.007
Mof_C 	C 	0.3943	0.2853	0.5293	-0.232
Mof_C 	C 	0.4723	0.2438	0.5948	0.157
Mof_H 	H 	0.5364	0.2683	0.6362	-0.016
Mof_C 	C 	0.4227	0.3684	0.5241	0.592
Mof_N 	N 	0.3684	0.8827	0.8674	-0.002
Mof_N 	N 	0.461	0.1698	0.6021	-0.274
Mof_O 	O 	0.8117	0.9522	0.9429	-0.575
Mof_O 	O 	0.8917	0.9447	0.0863	-0.59
Mof_O 	O 	0.5998	0.9223	0.2489	-0.331
Mof_O 	O 	0.418	0.8845	0.1854	-0.476
Mof_O 	O 	0.26	0.8965	0.869	-0.082
Mof_O 	O 	0.382	0.907	0.799	-0.06
Mof_O 	O 	0.5812	0.0124	0.655	-0.521
Mof_O 	O 	0.72	0.9863	0.786	-0.273
Mof_O 	O 	0.7818	0.6901	0.7833	-0.5
Mof_O 	O 	0.622	0.6173	0.7211	-0.592
Mof_N 	N 	0.308	0.794	0.537	-0.096
Mof_O 	O 	0.253	0.7394	0.527	-0.035
Mof_O 	O 	0.25	0.846	0.498	0.01
Mof_O 	O 	0.3826	0.3968	0.4514	-0.604
Mof_O 	O 	0.4861	0.3992	0.5931	-0.61
Mof_O 	O 	0.275	0.853	0.876	-0.057
Mof_O 	O 	0.392	0.863	0.801	-0.057
Mof_N 	N 	0.32	0.796	0.505	0.087
Mof_O 	O 	0.285	0.7319	0.4808	-0.1
Mof_O 	O 	0.277	0.85	0.4625	-0.153
Mof_O 	O 	0.739	0.9665	0.7522	-0.377
Mof_Tb	Tb	0.58881	0.51015	0.63806	2.347
Mof_Zn	Zn	0.91177	0.6152	0.80047	1.23
Mof_C 	C 	0.6952	0.4412	0.4842	0.56
Mof_C 	C 	0.8204	0.4233	0.4824	-0.149
Mof_C 	C 	0.84	0.4185	0.4057	0.079
Mof_H 	H 	0.7742	0.4246	0.3548	0.035
Mof_C 	C 	0.956	0.4046	0.4011	-0.09
Mof_C 	C 	0.0486	0.3943	0.4743	-0.025
Mof_H 	H 	0.1274	0.3865	0.4731	0.072
Mof_C 	C 	0.0282	0.3951	0.552	0.066
Mof_C 	C 	0.9172	0.4098	0.5586	0.005
Mof_H 	H 	0.906	0.4108	0.612	0.069
Mof_C 	C 	0.9778	0.4011	0.3139	0.387
Mof_C 	C 	0.8645	0.4616	0.8011	0.522
Mof_C 	C 	0.9151	0.3837	0.8181	-0.17
Mof_C 	C 	0.8541	0.32	0.7821	0.122
Mof_H 	H 	0.7754	0.3249	0.7423	0.004
Mof_C 	C 	0.9013	0.2497	0.8008	-0.16
Mof_C 	C 	0.0131	0.241	0.8648	0.017
Mof_H 	H 	0.0467	0.1933	0.879	0.052
Mof_C 	C 	0.075	0.3032	0.9079	0.063
Mof_C 	C 	0.0252	0.3743	0.8881	0.006
Mof_H 	H 	0.0641	0.4155	0.9206	0.066
Mof_C 	C 	0.8268	0.1792	0.7609	0.512
Mof_C 	C 	0.1355	0.636	0.9535	0.126
Mof_H 	H 	0.1458	0.5848	0.9472	-0.006
Mof_C 	C 	0.2228	0.6743	0.0212	-0.19
Mof_H 	H 	0.2902	0.6495	0.0593	0.101
Mof_C 	C 	0.2044	0.75	0.0289	0.146
Mof_H 	H 	0.2591	0.7773	0.0736	-0.005
Mof_C 	C 	0.1057	0.7853	0.9707	-0.226
Mof_C 	C 	0.0277	0.7438	0.9052	0.154
Mof_H 	H 	0.9636	0.7683	0.8638	-0.014
Mof_C 	C 	0.0773	0.8684	0.9759	0.596
Mof_N 	N 	0.1316	0.3827	0.6326	-0.002
Mof_N 	N 	0.039	0.6698	0.8979	-0.274
Mof_O 	O 	0.6883	0.4522	0.5571	-0.587
Mof_O 	O 	0.6083	0.4447	0.4137	-0.598
Mof_O 	O 	0.9002	0.4223	0.2511	-0.331
Mof_O 	O 	0.082	0.3845	0.3146	-0.475
Mof_O 	O 	0.24	0.3965	0.631	-0.084
Mof_O 	O 	0.118	0.407	0.701	-0.062
Mof_O 	O 	0.9188	0.5124	0.845	-0.52
Mof_O 	O 	0.78	0.4863	0.714	-0.28
Mof_O 	O 	0.7182	0.1901	0.7167	-0.5
Mof_O 	O 	0.878	0.1173	0.7789	-0.592
Mof_N 	N 	0.192	0.294	0.963	-0.089
Mof_O 	O 	0.247	0.2394	0.973	-0.041
Mof_O 	O 	0.25	0.346	0.002	0.009
Mof_O 	O 	0.1174	0.8968	0.0486	-0.608
Mof_O 	O 	0.0139	0.8992	0.9069	-0.607
Mof_O 	O 	0.225	0.353	0.624	-0.057
Mof_O 	O 	0.108	0.363	0.699	-0.055
Mof_N 	N 	0.18	0.296	0.995	0.08
Mof_O 	O 	0.215	0.2319	0.0192	-0.094
Mof_O 	O 	0.223	0.35	0.0375	-0.15
Mof_O 	O 	0.761	0.4665	0.7478	-0.378
Mof_Tb	Tb	0.08881	0.98985	0.13806	2.321
Mof_Zn	Zn	0.41177	0.8848	0.30047	1.23
Mof_C 	C 	0.1952	0.0588	0.9842	0.552
Mof_C 	C 	0.3204	0.0767	0.9824	-0.151
Mof_C 	C 	0.34	0.0815	0.9057	0.076
Mof_H 	H 	0.2742	0.0754	0.8548	0.037
Mof_C 	C 	0.456	0.0954	0.9011	-0.086
Mof_C 	C 	0.5486	0.1057	0.9743	-0.036
Mof_H 	H 	0.6274	0.1135	0.9731	0.073
Mof_C 	C 	0.5282	0.1049	0.052	0.072
Mof_C 	C 	0.4172	0.0902	0.0586	0.009
Mof_H 	H 	0.406	0.0892	0.112	0.069
Mof_C 	C 	0.4778	0.0989	0.8139	0.385
Mof_C 	C 	0.3645	0.0384	0.3011	0.522
Mof_C 	C 	0.4151	0.1163	0.3181	-0.162
Mof_C 	C 	0.3541	0.18	0.2821	0.115
Mof_H 	H 	0.2754	0.1751	0.2423	0.007
Mof_C 	C 	0.4013	0.2503	0.3008	-0.151
Mof_C 	C 	0.5131	0.259	0.3648	0.006
Mof_H 	H 	0.5467	0.3067	0.379	0.054
Mof_C 	C 	0.575	0.1968	0.4079	0.07
Mof_C 	C 	0.5252	0.1257	0.3881	-0.003
Mof_H 	H 	0.5641	0.0845	0.4206	0.069
Mof_C 	C 	0.3268	0.3208	0.2609	0.511
Mof_C 	C 	0.6355	0.864	0.4535	0.123
Mof_H 	H 	0.6458	0.9152	0.4472	-0.005
Mof_C 	C 	0.7228	0.8257	0.5212	-0.188
Mof_H 	H 	0.7902	0.8505	0.5593	0.101
Mof_C 	C 	0.7044	0.75	0.5289	0.154
Mof_H 	H 	0.7591	0.7227	0.5736	-0.007
Mof_C 	C 	0.6057	0.7147	0.4707	-0.232
Mof_C 	C 	0.5277	0.7562	0.4052	0.157
Mof_H 	H 	0.4636	0.7317	0.3638	-0.016
Mof_C 	C 	0.5773	0.6316	0.4759	0.592
Mof_N 	N 	0.6316	0.1173	0.1326	-0.002
Mof_N 	N 	0.539	0.8302	0.3979	-0.274
Mof_O 	O 	0.1883	0.0478	0.0571	-0.575
Mof_O 	O 	0.1083	0.0553	0.9137	-0.59
Mof_O 	O 	0.4002	0.0777	0.7511	-0.331
Mof_O 	O 	0.582	0.1155	0.8146	-0.476
Mof_O 	O 	0.74	0.1035	0.131	-0.082
Mof_O 	O 	0.618	0.093	0.201	-0.06
Mof_O 	O 	0.4188	0.9876	0.345	-0.521
Mof_O 	O 	0.28	0.0137	0.214	-0.273
Mof_O 	O 	0.2182	0.3099	0.2167	-0.5
Mof_O 	O 	0.378	0.3827	0.2789	-0.592
Mof_N 	N 	0.692	0.206	0.463	-0.096
Mof_O 	O 	0.747	0.2606	0.473	-0.035
Mof_O 	O 	0.75	0.154	0.502	0.01
Mof_O 	O 	0.6174	0.6032	0.5486	-0.604
Mof_O 	O 	0.5139	0.6008	0.4069	-0.61
Mof_O 	O 	0.725	0.147	0.124	-0.057
Mof_O 	O 	0.608	0.137	0.199	-0.057
Mof_N 	N 	0.68	0.204	0.495	0.087
Mof_O 	O 	0.715	0.2681	0.5192	-0.1
Mof_O 	O 	0.723	0.15	0.5375	-0.153
Mof_O 	O 	0.261	0.0335	0.2478	-0.377
Mof_Tb	Tb	0.41119	0.48985	0.36194	2.347
Mof_Zn	Zn	0.08823	0.3848	0.19953	1.23
Mof_C 	C 	0.3048	0.5588	0.5158	0.56
Mof_C 	C 	0.1796	0.5767	0.5176	-0.149
Mof_C 	C 	0.16	0.5815	0.5943	0.079
Mof_H 	H 	0.2258	0.5754	0.6452	0.035
Mof_C 	C 	0.044	0.5954	0.5989	-0.09
Mof_C 	C 	0.9514	0.6057	0.5257	-0.025
Mof_H 	H 	0.8726	0.6135	0.5269	0.072
Mof_C 	C 	0.9718	0.6049	0.448	0.066
Mof_C 	C 	0.0828	0.5902	0.4414	0.005
Mof_H 	H 	0.094	0.5892	0.388	0.069
Mof_C 	C 	0.0222	0.5989	0.6861	0.387
Mof_C 	C 	0.1355	0.5384	0.1989	0.522
Mof_C 	C 	0.0849	0.6163	0.1819	-0.17
Mof_C 	C 	0.1459	0.68	0.2179	0.122
Mof_H 	H 	0.2246	0.6751	0.2577	0.004
Mof_C 	C 	0.0987	0.7503	0.1992	-0.16
Mof_C 	C 	0.9869	0.759	0.1352	0.017
Mof_H 	H 	0.9533	0.8067	0.121	0.052
Mof_C 	C 	0.925	0.6968	0.0921	0.063
Mof_C 	C 	0.9748	0.6257	0.1119	0.006
Mof_H 	H 	0.9359	0.5845	0.0794	0.066
Mof_C 	C 	0.1732	0.8208	0.2391	0.512
Mof_C 	C 	0.8645	0.364	0.0465	0.126
Mof_H 	H 	0.8542	0.4152	0.0528	-0.006
Mof_C 	C 	0.7772	0.3257	0.9788	-0.19
Mof_H 	H 	0.7098	0.3505	0.9407	0.101
Mof_C 	C 	0.7956	0.25	0.9711	0.146
Mof_H 	H 	0.7409	0.2227	0.9264	-0.005
Mof_C 	C 	0.8943	0.2147	0.0293	-0.226
Mof_C 	C 	0.9723	0.2562	0.0948	0.154
Mof_H 	H 	0.0364	0.2317	0.1362	-0.014
Mof_C 	C 	0.9227	0.1316	0.0241	0.596
Mof_N 	N 	0.8684	0.6173	0.3674	-0.002
Mof_N 	N 	0.961	0.3302	0.1021	-0.274
Mof_O 	O 	0.3117	0.5478	0.4429	-0.587
Mof_O 	O 	0.3917	0.5553	0.5863	-0.598
Mof_O 	O 	0.0998	0.5777	0.7489	-0.331
Mof_O 	O 	0.918	0.6155	0.6854	-0.475
Mof_O 	O 	0.76	0.6035	0.369	-0.084
Mof_O 	O 	0.882	0.593	0.299	-0.062
Mof_O 	O 	0.0812	0.4876	0.155	-0.52
Mof_O 	O 	0.22	0.5137	0.286	-0.28
Mof_O 	O 	0.2818	0.8099	0.2833	-0.5
Mof_O 	O 	0.122	0.8827	0.2211	-0.592
Mof_N 	N 	0.808	0.706	0.037	-0.089
Mof_O 	O 	0.753	0.7606	0.027	-0.041
Mof_O 	O 	0.75	0.654	0.998	0.009
Mof_O 	O 	0.8826	0.1032	0.9514	-0.608
Mof_O 	O 	0.9861	0.1008	0.0931	-0.607
Mof_O 	O 	0.775	0.647	0.376	-0.057
Mof_O 	O 	0.892	0.637	0.301	-0.055
Mof_N 	N 	0.82	0.704	0.005	0.08
Mof_O 	O 	0.785	0.7681	0.9808	-0.094
Mof_O 	O 	0.777	0.65	0.9625	-0.15
Mof_O 	O 	0.239	0.5335	0.2522	-0.378
_end
