data_functionalizedCrystal
_audit_creation_method	'EQeq! by Chris Wilmer'
_symmetry_space_group_name_H-M	'P1'
_symmetry_Int_Tables_number	1
_symmetry_cell_setting	triclinic
loop_
_symmetry_equiv_pos_as_xyz
  x,y,z
_cell_length_a	18.7772
_cell_length_b	18.7772
_cell_length_c	19.744
_cell_angle_alpha	112.881
_cell_angle_beta	112.881
_cell_angle_gamma	100.505
loop_
_atom_site_label
_atom_site_type_symbol
_atom_site_fract_x
_atom_site_fract_y
_atom_site_fract_z
_atom_site_charge
Mof_Mn	Mn	0.31527	0.31527	0.30246	0.712
Mof_Mn	Mn	0.98719	0.98719	0.30246	0.799
Mof_Mn	Mn	0.68473	0.68473	0.69754	0.773
Mof_Mn	Mn	0.01281	0.01281	0.69754	0.69
Mof_Mn	Mn	0.5	0.5	0.5	0.988
Mof_Mn	Mn	5.23055e-18	0	0.5	0.88
Mof_Mn	Mn	0.03029	0.58589	-0	0.884
Mof_Mn	Mn	0.96971	0.41411	-0	0.978
Mof_Mn	Mn	0.41411	0.96971	-0	0.978
Mof_Mn	Mn	0.58589	0.03029	-0	0.884
Mof_Ni	Ni	0.5	0	0.5	1.028
Mof_Ni	Ni	-3.66139e-17	0.5	0.5	1.028
Mof_H 	H 	0.2941	0.7381	0.4414	0.057
Mof_H 	H 	0.4467	0.7191	0.2654	0.065
Mof_H 	H 	0.4264	0.6634	0.4098	0.061
Mof_H 	H 	0.2259	0.4647	0.2048	0.033
Mof_H 	H 	0.2602	0.6904	0.2318	0.065
Mof_H 	H 	0.1473	0.7033	0.4414	0.047
Mof_H 	H 	0.8187	0.5463	0.2654	0.059
Mof_H 	H 	0.9834	0.7464	0.4098	0.069
Mof_H 	H 	0.9789	0.7401	0.2048	0.045
Mof_H 	H 	0.9716	0.5414	0.2318	0.069
Mof_H 	H 	0.2619	0.7059	0.5586	0.072
Mof_H 	H 	0.2809	0.5533	0.7346	0.071
Mof_H 	H 	0.3366	0.5736	0.5902	0.062
Mof_H 	H 	0.5353	0.7741	0.7952	0.059
Mof_H 	H 	0.3096	0.7398	0.7682	0.081
Mof_H 	H 	0.2967	0.8527	0.5586	0.082
Mof_H 	H 	0.4537	0.1813	0.7346	0.077
Mof_H 	H 	0.2536	0.0166	0.5902	0.058
Mof_H 	H 	0.2599	0.0211	0.7952	0.05
Mof_H 	H 	0.4586	0.0284	0.7682	0.078
Mof_H 	H 	0.7059	0.2619	0.5586	0.072
Mof_H 	H 	0.5533	0.2809	0.7346	0.071
Mof_H 	H 	0.5736	0.3366	0.5902	0.062
Mof_H 	H 	0.7741	0.5353	0.7952	0.059
Mof_H 	H 	0.7398	0.3096	0.7682	0.081
Mof_H 	H 	0.8527	0.2967	0.5586	0.082
Mof_H 	H 	0.1813	0.4537	0.7346	0.077
Mof_H 	H 	0.0166	0.2536	0.5902	0.058
Mof_H 	H 	0.0211	0.2599	0.7952	0.05
Mof_H 	H 	0.0284	0.4586	0.7682	0.078
Mof_H 	H 	0.7381	0.2941	0.4414	0.057
Mof_H 	H 	0.7191	0.4467	0.2654	0.065
Mof_H 	H 	0.6634	0.4264	0.4098	0.061
Mof_H 	H 	0.4647	0.2259	0.2048	0.033
Mof_H 	H 	0.6904	0.2602	0.2318	0.065
Mof_H 	H 	0.7033	0.1473	0.4414	0.047
Mof_H 	H 	0.5463	0.8187	0.2654	0.059
Mof_H 	H 	0.7464	0.9834	0.4098	0.069
Mof_H 	H 	0.7401	0.9789	0.2048	0.045
Mof_H 	H 	0.5414	0.9716	0.2318	0.069
Mof_C 	C 	0.3259	0.7951	0.468	-0.063
Mof_C 	C 	0.3826	0.8324	0.4484	0.089
Mof_C 	C 	0.39753	0.78633	0.38406	-0.117
Mof_C 	C 	0.4514	0.8236	0.3672	0.1
Mof_C 	C 	0.4697	0.7771	0.301	-0.078
Mof_C 	C 	0.349	0.6928	0.332	0.044
Mof_C 	C 	0.3761	0.6409	0.359	-0.039
Mof_C 	C 	0.329	0.554	0.3112	-0.111
Mof_C 	C 	0.2574	0.5224	0.2366	0.041
Mof_C 	C 	0.2292	0.5722	0.2062	-0.096
Mof_C 	C 	0.27674	0.65634	0.25328	-0.043
Mof_C 	C 	0.1463	0.5353	0.1238	0.384
Mof_C 	C 	0.3612	0.4992	0.3428	0.419
Mof_C 	C 	0.1421	0.6729	0.468	-0.053
Mof_C 	C 	0.0658	0.616	0.4484	0.038
Mof_C 	C 	0.98653	0.59773	0.38406	-0.067
Mof_C 	C 	0.9158	0.5436	0.3672	0.084
Mof_C 	C 	0.8313	0.5239	0.301	-0.064
Mof_C 	C 	0.983	0.6392	0.332	0.041
Mof_C 	C 	0.9829	0.7181	0.359	-0.034
Mof_C 	C 	0.9822	0.7572	0.3112	-0.097
Mof_C 	C 	0.9792	0.7142	0.2366	0.037
Mof_C 	C 	0.977	0.634	0.2062	-0.083
Mof_C 	C 	0.97654	0.59694	0.25328	-0.038
Mof_C 	C 	0.9775	0.5885	0.1238	0.382
Mof_C 	C 	0.9816	0.8436	0.3428	0.414
Mof_C 	C 	0.2049	0.6741	0.532	-0.097
Mof_C 	C 	0.1676	0.6174	0.5516	0.1
Mof_C 	C 	0.21367	0.60247	0.61594	-0.128
Mof_C 	C 	0.1764	0.5486	0.6328	0.1
Mof_C 	C 	0.2229	0.5303	0.699	-0.068
Mof_C 	C 	0.3072	0.651	0.668	0.06
Mof_C 	C 	0.3591	0.6239	0.641	-0.051
Mof_C 	C 	0.446	0.671	0.6888	-0.091
Mof_C 	C 	0.4776	0.7426	0.7634	0.024
Mof_C 	C 	0.4278	0.7708	0.7938	-0.06
Mof_C 	C 	0.34366	0.72326	0.74672	-0.059
Mof_C 	C 	0.4647	0.8537	0.8762	0.371
Mof_C 	C 	0.5008	0.6388	0.6572	0.416
Mof_C 	C 	0.3271	0.8579	0.532	-0.108
Mof_C 	C 	0.384	0.9342	0.5516	0.152
Mof_C 	C 	0.40227	0.01347	0.61594	-0.179
Mof_C 	C 	0.4564	0.0842	0.6328	0.116
Mof_C 	C 	0.4761	0.1687	0.699	-0.083
Mof_C 	C 	0.3608	0.017	0.668	0.067
Mof_C 	C 	0.2819	0.0171	0.641	-0.062
Mof_C 	C 	0.2428	0.0178	0.6888	-0.096
Mof_C 	C 	0.2858	0.0208	0.7634	0.022
Mof_C 	C 	0.366	0.023	0.7938	-0.069
Mof_C 	C 	0.40306	0.02346	0.74672	-0.068
Mof_C 	C 	0.4115	0.0225	0.8762	0.372
Mof_C 	C 	0.1564	0.0184	0.6572	0.406
Mof_C 	C 	0.6741	0.2049	0.532	-0.097
Mof_C 	C 	0.6174	0.1676	0.5516	0.1
Mof_C 	C 	0.60247	0.21367	0.61594	-0.128
Mof_C 	C 	0.5486	0.1764	0.6328	0.1
Mof_C 	C 	0.5303	0.2229	0.699	-0.068
Mof_C 	C 	0.651	0.3072	0.668	0.06
Mof_C 	C 	0.6239	0.3591	0.641	-0.051
Mof_C 	C 	0.671	0.446	0.6888	-0.091
Mof_C 	C 	0.7426	0.4776	0.7634	0.024
Mof_C 	C 	0.7708	0.4278	0.7938	-0.06
Mof_C 	C 	0.72326	0.34366	0.74672	-0.059
Mof_C 	C 	0.8537	0.4647	0.8762	0.371
Mof_C 	C 	0.6388	0.5008	0.6572	0.416
Mof_C 	C 	0.8579	0.3271	0.532	-0.108
Mof_C 	C 	0.9342	0.384	0.5516	0.152
Mof_C 	C 	0.01347	0.40227	0.61594	-0.179
Mof_C 	C 	0.0842	0.4564	0.6328	0.116
Mof_C 	C 	0.1687	0.4761	0.699	-0.083
Mof_C 	C 	0.017	0.3608	0.668	0.067
Mof_C 	C 	0.0171	0.2819	0.641	-0.062
Mof_C 	C 	0.0178	0.2428	0.6888	-0.096
Mof_C 	C 	0.0208	0.2858	0.7634	0.022
Mof_C 	C 	0.023	0.366	0.7938	-0.069
Mof_C 	C 	0.02346	0.40306	0.74672	-0.068
Mof_C 	C 	0.0225	0.4115	0.8762	0.372
Mof_C 	C 	0.0184	0.1564	0.6572	0.406
Mof_C 	C 	0.7951	0.3259	0.468	-0.063
Mof_C 	C 	0.8324	0.3826	0.4484	0.089
Mof_C 	C 	0.78633	0.39753	0.38406	-0.117
Mof_C 	C 	0.8236	0.4514	0.3672	0.1
Mof_C 	C 	0.7771	0.4697	0.301	-0.078
Mof_C 	C 	0.6928	0.349	0.332	0.044
Mof_C 	C 	0.6409	0.3761	0.359	-0.039
Mof_C 	C 	0.554	0.329	0.3112	-0.111
Mof_C 	C 	0.5224	0.2574	0.2366	0.041
Mof_C 	C 	0.5722	0.2292	0.2062	-0.096
Mof_C 	C 	0.65634	0.27674	0.25328	-0.043
Mof_C 	C 	0.5353	0.1463	0.1238	0.384
Mof_C 	C 	0.4992	0.3612	0.3428	0.419
Mof_C 	C 	0.6729	0.1421	0.468	-0.053
Mof_C 	C 	0.616	0.0658	0.4484	0.038
Mof_C 	C 	0.59773	0.98653	0.38406	-0.067
Mof_C 	C 	0.5436	0.9158	0.3672	0.084
Mof_C 	C 	0.5239	0.8313	0.301	-0.064
Mof_C 	C 	0.6392	0.983	0.332	0.041
Mof_C 	C 	0.7181	0.9829	0.359	-0.034
Mof_C 	C 	0.7572	0.9822	0.3112	-0.097
Mof_C 	C 	0.7142	0.9792	0.2366	0.037
Mof_C 	C 	0.634	0.977	0.2062	-0.083
Mof_C 	C 	0.59694	0.97654	0.25328	-0.038
Mof_C 	C 	0.5885	0.9775	0.1238	0.382
Mof_C 	C 	0.8436	0.9816	0.3428	0.414
Mof_N 	N 	0.419	0.919	0.5	-0.274
Mof_N 	N 	0.081	0.581	0.5	-0.276
Mof_N 	N 	0.581	0.081	0.5	-0.276
Mof_N 	N 	0.919	0.419	0.5	-0.274
Mof_N 	N 	0.4984	0.9062	0.4046	-0.258
Mof_N 	N 	0.9062	0.4984	0.4046	-0.258
Mof_N 	N 	0.0938	0.5016	0.5954	-0.28
Mof_N 	N 	0.5016	0.0938	0.5954	-0.28
Mof_Cl	Cl	0.08857	0.70677	-0	-0.44
Mof_Cl	Cl	0.91143	0.29323	-0	-0.426
Mof_Cl	Cl	0.29323	0.91143	-0	-0.426
Mof_Cl	Cl	0.70677	0.08857	-0	-0.44
Mof_O 	O 	0.13303	0.58323	0.09506	-0.392
Mof_O 	O 	0.09654	0.46334	0.09328	-0.411
Mof_O 	O 	0.3173	0.4239	0.2966	-0.414
Mof_O 	O 	0.42714	0.53342	0.41236	-0.393
Mof_O 	O 	0.96203	0.51183	0.09506	-0.383
Mof_O 	O 	0.99674	0.62994	0.09328	-0.367
Mof_O 	O 	0.9793	0.8727	0.2966	-0.402
Mof_O 	O 	0.98522	0.87894	0.41236	-0.353
Mof_O 	O 	0.41677	0.86697	0.90494	-0.342
Mof_O 	O 	0.53666	0.90346	0.90672	-0.324
Mof_O 	O 	0.5761	0.6827	0.7034	-0.402
Mof_O 	O 	0.46658	0.57286	0.58764	-0.392
Mof_O 	O 	0.48817	0.03797	0.90494	-0.351
Mof_O 	O 	0.37006	0.00326	0.90672	-0.368
Mof_O 	O 	0.1273	0.0207	0.7034	-0.405
Mof_O 	O 	0.12106	0.01478	0.58764	-0.395
Mof_O 	O 	0.86697	0.41677	0.90494	-0.342
Mof_O 	O 	0.90346	0.53666	0.90672	-0.324
Mof_O 	O 	0.6827	0.5761	0.7034	-0.402
Mof_O 	O 	0.57286	0.46658	0.58764	-0.392
Mof_O 	O 	0.03797	0.48817	0.90494	-0.351
Mof_O 	O 	0.00326	0.37006	0.90672	-0.368
Mof_O 	O 	0.0207	0.1273	0.7034	-0.405
Mof_O 	O 	0.01478	0.12106	0.58764	-0.395
Mof_O 	O 	0.58323	0.13303	0.09506	-0.392
Mof_O 	O 	0.46334	0.09654	0.09328	-0.411
Mof_O 	O 	0.4239	0.3173	0.2966	-0.414
Mof_O 	O 	0.53342	0.42714	0.41236	-0.393
Mof_O 	O 	0.51183	0.96203	0.09506	-0.383
Mof_O 	O 	0.62994	0.99674	0.09328	-0.367
Mof_O 	O 	0.8727	0.9793	0.2966	-0.402
Mof_O 	O 	0.87894	0.98522	0.41236	-0.353
Mof_O 	O 	0.3827	0.3827	0.4474	-0.31
Mof_O 	O 	0.0647	0.0647	0.4474	-0.342
Mof_O 	O 	0.6173	0.6173	0.5526	-0.303
Mof_O 	O 	0.9353	0.9353	0.5526	-0.245
_end
