data_functionalizedCrystal
_audit_creation_method	'EQeq! by Chris Wilmer'
_symmetry_space_group_name_H-M	'P1'
_symmetry_Int_Tables_number	1
_symmetry_cell_setting	triclinic
loop_
_symmetry_equiv_pos_as_xyz
  x,y,z
_cell_length_a	24.97
_cell_length_b	19.252
_cell_length_c	15.913
_cell_angle_alpha	90
_cell_angle_beta	129.46
_cell_angle_gamma	90
loop_
_atom_site_label
_atom_site_type_symbol
_atom_site_fract_x
_atom_site_fract_y
_atom_site_fract_z
_atom_site_charge
Mof_N 	N 	0.4541	0.0634	0.2606	-0.088
Mof_N 	N 	0.0459	0.9363	0.8535	-0.091
Mof_O 	O 	0.3457	0.9905	0.4165	-0.445
Mof_O 	O 	0.2941	0.0647	0.2818	-0.349
Mof_C 	C 	0.3449	0.0293	0.3528	0.411
Mof_C 	C 	0.4104	0.0286	0.3644	-0.387
Mof_C 	C 	0.3935	0.0662	0.265	0.04
Mof_C 	C 	0.4699	0.9897	0.2503	-0.069
Mof_C 	C 	0.4298	0.1023	0.1612	-0.071
Mof_C 	C 	0.5181	0.0948	0.3573	-0.06
Mof_O 	O 	0.1531	0.0109	0.2249	-0.453
Mof_O 	O 	0.2051	0.9367	0.1931	-0.352
Mof_C 	C 	0.1551	0.9727	0.1634	0.421
Mof_C 	C 	0.0912	0.9712	0.0449	-0.392
Mof_C 	C 	0.1055	0.9347	0.9769	0.046
Mof_C 	C 	0.0307	0.0092	0.8096	-0.064
Mof_C 	C 	0.0703	0.8974	0.8031	-0.066
Mof_C 	C 	0.9813	0.9037	0.8212	-0.063
Mof_O 	O 	0.2395	0.0962	0.4189	-0.463
Mof_O 	O 	0.3147	0.0459	0.5762	-0.348
Mof_C 	C 	0.2766	0.0958	0.5186	0.436
Mof_C 	C 	0.279	0.1586	0.5774	-0.42
Mof_C 	C 	0.3159	0.1454	0.6965	0.075
Mof_N 	N 	0.3127	0.2034	0.7552	-0.093
Mof_C 	C 	0.2402	0.2206	0.7098	-0.064
Mof_C 	C 	0.2396	0.2807	0.7722	-0.074
Mof_C 	C 	0.3452	0.2671	0.7556	-0.061
Mof_C 	C 	0.3524	0.3197	0.8348	-0.068
Mof_C 	C 	0.3528	0.179	0.8712	-0.069
Mof_C 	C 	0.3453	0.2294	0.9354	-0.063
Mof_N 	N 	0.314	0.297	0.872	-0.09
Mof_C 	C 	0.317	0.3559	0.9382	0.061
Mof_C 	C 	0.2796	0.3402	0.9826	-0.401
Mof_C 	C 	0.279	0.4046	0.0374	0.422
Mof_O 	O 	0.2406	0.404	0.0629	-0.45
Mof_O 	O 	0.314	0.455	0.0527	-0.356
Mof_Zn	Zn	0.2489	0.0004	0.3739	1.235
Mof_H 	H 	0.4468	0.053	0.4294	0.145
Mof_H 	H 	0.4251	0.9819	0.3676	0.153
Mof_H 	H 	0.3529	0.0452	0.2006	0.05
Mof_H 	H 	0.3844	0.1142	0.2677	0.02
Mof_H 	H 	0.4295	0.9693	0.1848	0.073
Mof_H 	H 	0.4821	0.9627	0.3109	0.049
Mof_H 	H 	0.4248	0.1503	0.1714	0.047
Mof_H 	H 	0.3856	0.0851	0.0988	0.068
Mof_H 	H 	0.5373	0.0676	0.4213	0.057
Mof_H 	H 	0.5063	0.1397	0.3675	0.042
Mof_H 	H 	0.0764	0.0178	0.0181	0.152
Mof_H 	H 	0.0548	0.9468	0.0373	0.148
Mof_H 	H 	0.1453	0.9565	0.9919	0.048
Mof_H 	H 	0.1161	0.8871	0.0001	0.022
Mof_H 	H 	0.0711	0.0287	0.8237	0.072
Mof_H 	H 	0.0195	0.0366	0.8469	0.049
Mof_H 	H 	0.0763	0.8495	0.8241	0.046
Mof_H 	H 	0.1145	0.9156	0.8301	0.067
Mof_H 	H 	0.9622	0.9314	0.8467	0.059
Mof_H 	H 	0.9921	0.8585	0.854	0.043
Mof_H 	H 	0.3029	0.1951	0.5719	0.154
Mof_H 	H 	0.2324	0.1732	0.543	0.161
Mof_H 	H 	0.3636	0.1356	0.7314	0.012
Mof_H 	H 	0.2949	0.1051	0.7006	0.041
Mof_H 	H 	0.2153	0.2357	0.636	0.047
Mof_H 	H 	0.218	0.1803	0.7107	0.07
Mof_H 	H 	0.2145	0.2659	0.7961	0.05
Mof_H 	H 	0.218	0.3214	0.7276	0.074
Mof_H 	H 	0.3899	0.2569	0.7767	0.042
Mof_H 	H 	0.3158	0.2864	0.6836	0.059
Mof_H 	H 	0.3356	0.3643	0.8005	0.068
Mof_H 	H 	0.4005	0.3234	0.8979	0.047
Mof_H 	H 	0.3356	0.1344	0.8715	0.07
Mof_H 	H 	0.401	0.1752	0.905	0.048
Mof_H 	H 	0.3899	0.2402	0.0033	0.042
Mof_H 	H 	0.3162	0.2097	0.9493	0.06
Mof_H 	H 	0.3649	0.3653	0.998	0.015
Mof_H 	H 	0.2961	0.3964	0.8927	0.044
Mof_H 	H 	0.2329	0.3261	0.9241	0.156
Mof_H 	H 	0.3035	0.3033	0.0348	0.148
Mof_N 	N 	0.9541	0.5634	0.2606	-0.086
Mof_N 	N 	0.5459	0.4363	0.8535	-0.09
Mof_O 	O 	0.8457	0.4905	0.4165	-0.445
Mof_O 	O 	0.7941	0.5647	0.2818	-0.348
Mof_C 	C 	0.8449	0.5293	0.3528	0.412
Mof_C 	C 	0.9104	0.5286	0.3644	-0.384
Mof_C 	C 	0.8935	0.5662	0.265	0.04
Mof_C 	C 	0.9699	0.4897	0.2503	-0.069
Mof_C 	C 	0.9298	0.6023	0.1612	-0.07
Mof_C 	C 	0.0181	0.5948	0.3573	-0.058
Mof_O 	O 	0.6531	0.5109	0.2249	-0.453
Mof_O 	O 	0.7051	0.4367	0.1931	-0.353
Mof_C 	C 	0.6551	0.4727	0.1634	0.425
Mof_C 	C 	0.5912	0.4712	0.0449	-0.409
Mof_C 	C 	0.6055	0.4347	0.9769	0.063
Mof_C 	C 	0.5307	0.5092	0.8096	-0.067
Mof_C 	C 	0.5703	0.3974	0.8031	-0.066
Mof_C 	C 	0.4813	0.4037	0.8212	-0.064
Mof_O 	O 	0.7395	0.5962	0.4189	-0.463
Mof_O 	O 	0.8147	0.5459	0.5762	-0.349
Mof_C 	C 	0.7766	0.5958	0.5186	0.436
Mof_C 	C 	0.779	0.6586	0.5774	-0.42
Mof_C 	C 	0.8159	0.6454	0.6965	0.076
Mof_N 	N 	0.8127	0.7034	0.7552	-0.093
Mof_C 	C 	0.7402	0.7206	0.7098	-0.063
Mof_C 	C 	0.7396	0.7807	0.7722	-0.074
Mof_C 	C 	0.8452	0.7671	0.7556	-0.061
Mof_C 	C 	0.8524	0.8197	0.8348	-0.067
Mof_C 	C 	0.8528	0.679	0.8712	-0.065
Mof_C 	C 	0.8453	0.7294	0.9354	-0.071
Mof_N 	N 	0.814	0.797	0.872	-0.09
Mof_C 	C 	0.817	0.8559	0.9382	0.068
Mof_C 	C 	0.7796	0.8402	0.9826	-0.416
Mof_C 	C 	0.779	0.9046	0.0374	0.428
Mof_O 	O 	0.7406	0.904	0.0629	-0.451
Mof_O 	O 	0.814	0.955	0.0527	-0.356
Mof_Zn	Zn	0.7489	0.5004	0.3739	1.235
Mof_H 	H 	0.9468	0.553	0.4294	0.144
Mof_H 	H 	0.9251	0.4819	0.3676	0.152
Mof_H 	H 	0.8529	0.5452	0.2006	0.051
Mof_H 	H 	0.8844	0.6142	0.2677	0.021
Mof_H 	H 	0.9295	0.4693	0.1848	0.073
Mof_H 	H 	0.9821	0.4627	0.3109	0.049
Mof_H 	H 	0.9248	0.6503	0.1714	0.047
Mof_H 	H 	0.8856	0.5851	0.0988	0.069
Mof_H 	H 	0.0373	0.5676	0.4213	0.057
Mof_H 	H 	0.0063	0.6397	0.3675	0.042
Mof_H 	H 	0.5764	0.5178	0.0181	0.159
Mof_H 	H 	0.5548	0.4468	0.0373	0.152
Mof_H 	H 	0.6453	0.4565	0.9919	0.044
Mof_H 	H 	0.6161	0.3871	0.0001	0.014
Mof_H 	H 	0.5711	0.5287	0.8237	0.071
Mof_H 	H 	0.5195	0.5366	0.8469	0.048
Mof_H 	H 	0.5763	0.3495	0.8241	0.046
Mof_H 	H 	0.6145	0.4156	0.8301	0.068
Mof_H 	H 	0.4622	0.4314	0.8467	0.059
Mof_H 	H 	0.4921	0.3585	0.854	0.044
Mof_H 	H 	0.8029	0.6951	0.5719	0.154
Mof_H 	H 	0.7324	0.6732	0.543	0.161
Mof_H 	H 	0.8636	0.6356	0.7314	0.011
Mof_H 	H 	0.7949	0.6051	0.7006	0.041
Mof_H 	H 	0.7153	0.7357	0.636	0.047
Mof_H 	H 	0.718	0.6803	0.7107	0.069
Mof_H 	H 	0.7145	0.7659	0.7961	0.05
Mof_H 	H 	0.718	0.8214	0.7276	0.074
Mof_H 	H 	0.8899	0.7569	0.7767	0.042
Mof_H 	H 	0.8158	0.7864	0.6836	0.059
Mof_H 	H 	0.8356	0.8643	0.8005	0.068
Mof_H 	H 	0.9005	0.8234	0.8979	0.047
Mof_H 	H 	0.8356	0.6344	0.8715	0.068
Mof_H 	H 	0.901	0.6752	0.905	0.046
Mof_H 	H 	0.8899	0.7402	0.0033	0.047
Mof_H 	H 	0.8162	0.7097	0.9493	0.062
Mof_H 	H 	0.8649	0.8653	0.998	0.012
Mof_H 	H 	0.7961	0.8964	0.8927	0.042
Mof_H 	H 	0.7329	0.8261	0.9241	0.16
Mof_H 	H 	0.8035	0.8033	0.0348	0.154
Mof_N 	N 	0.5459	0.0634	0.2394	-0.087
Mof_N 	N 	0.9541	0.9363	0.6465	-0.09
Mof_O 	O 	0.6543	0.9905	0.0835	-0.441
Mof_O 	O 	0.7059	0.0647	0.2182	-0.348
Mof_C 	C 	0.6551	0.0293	0.1472	0.409
Mof_C 	C 	0.5896	0.0286	0.1356	-0.389
Mof_C 	C 	0.6065	0.0662	0.235	0.042
Mof_C 	C 	0.5301	0.9897	0.2497	-0.067
Mof_C 	C 	0.5702	0.1023	0.3388	-0.07
Mof_C 	C 	0.4819	0.0948	0.1427	-0.058
Mof_O 	O 	0.8469	0.0109	0.2751	-0.455
Mof_O 	O 	0.7949	0.9367	0.3069	-0.353
Mof_C 	C 	0.8449	0.9727	0.3366	0.426
Mof_C 	C 	0.9088	0.9712	0.4551	-0.407
Mof_C 	C 	0.8945	0.9347	0.5231	0.06
Mof_C 	C 	0.9693	0.0092	0.6904	-0.069
Mof_C 	C 	0.9297	0.8974	0.6969	-0.066
Mof_C 	C 	0.0187	0.9037	0.6788	-0.065
Mof_O 	O 	0.7605	0.0962	0.0811	-0.466
Mof_O 	O 	0.6853	0.0459	0.9238	-0.349
Mof_C 	C 	0.7234	0.0958	0.9814	0.44
Mof_C 	C 	0.721	0.1586	0.9226	-0.423
Mof_C 	C 	0.6841	0.1454	0.8035	0.077
Mof_N 	N 	0.6873	0.2034	0.7448	-0.093
Mof_C 	C 	0.7598	0.2206	0.7902	-0.063
Mof_C 	C 	0.7604	0.2807	0.7278	-0.074
Mof_C 	C 	0.6548	0.2671	0.7444	-0.061
Mof_C 	C 	0.6476	0.3197	0.6652	-0.068
Mof_C 	C 	0.6472	0.179	0.6288	-0.067
Mof_C 	C 	0.6547	0.2294	0.5646	-0.067
Mof_N 	N 	0.686	0.297	0.628	-0.089
Mof_C 	C 	0.683	0.3559	0.5618	0.063
Mof_C 	C 	0.7204	0.3402	0.5174	-0.406
Mof_C 	C 	0.721	0.4046	0.4626	0.424
Mof_O 	O 	0.7594	0.404	0.4371	-0.451
Mof_O 	O 	0.686	0.455	0.4473	-0.357
Mof_Zn	Zn	0.7511	0.0004	0.1261	1.234
Mof_H 	H 	0.5532	0.053	0.0706	0.144
Mof_H 	H 	0.5749	0.9819	0.1324	0.155
Mof_H 	H 	0.6471	0.0452	0.2994	0.05
Mof_H 	H 	0.6156	0.1142	0.2323	0.02
Mof_H 	H 	0.5705	0.9693	0.3152	0.073
Mof_H 	H 	0.5179	0.9627	0.1891	0.049
Mof_H 	H 	0.5752	0.1503	0.3286	0.047
Mof_H 	H 	0.6144	0.0851	0.4012	0.069
Mof_H 	H 	0.4627	0.0676	0.0787	0.056
Mof_H 	H 	0.4937	0.1397	0.1325	0.042
Mof_H 	H 	0.9236	0.0178	0.4819	0.157
Mof_H 	H 	0.9452	0.9468	0.4627	0.151
Mof_H 	H 	0.8547	0.9565	0.5081	0.045
Mof_H 	H 	0.8839	0.8871	0.4999	0.016
Mof_H 	H 	0.9289	0.0287	0.6763	0.072
Mof_H 	H 	0.9805	0.0366	0.6531	0.049
Mof_H 	H 	0.9237	0.8495	0.6759	0.046
Mof_H 	H 	0.8855	0.9156	0.6699	0.068
Mof_H 	H 	0.0378	0.9314	0.6533	0.059
Mof_H 	H 	0.0079	0.8585	0.646	0.044
Mof_H 	H 	0.6971	0.1951	0.9281	0.155
Mof_H 	H 	0.7676	0.1732	0.957	0.162
Mof_H 	H 	0.6364	0.1356	0.7686	0.011
Mof_H 	H 	0.7051	0.1051	0.7994	0.04
Mof_H 	H 	0.7847	0.2357	0.864	0.047
Mof_H 	H 	0.782	0.1803	0.7893	0.069
Mof_H 	H 	0.7855	0.2659	0.7039	0.05
Mof_H 	H 	0.782	0.3214	0.7724	0.074
Mof_H 	H 	0.6101	0.2569	0.7233	0.042
Mof_H 	H 	0.6842	0.2864	0.8164	0.059
Mof_H 	H 	0.6644	0.3643	0.6995	0.068
Mof_H 	H 	0.5995	0.3234	0.6021	0.047
Mof_H 	H 	0.6644	0.1344	0.6285	0.068
Mof_H 	H 	0.599	0.1752	0.595	0.047
Mof_H 	H 	0.6101	0.2402	0.4967	0.045
Mof_H 	H 	0.6838	0.2097	0.5507	0.061
Mof_H 	H 	0.6351	0.3653	0.502	0.014
Mof_H 	H 	0.7039	0.3964	0.6073	0.044
Mof_H 	H 	0.7671	0.3261	0.5759	0.157
Mof_H 	H 	0.6965	0.3033	0.4652	0.15
Mof_N 	N 	0.0459	0.5634	0.2394	-0.086
Mof_N 	N 	0.4541	0.4363	0.6465	-0.09
Mof_O 	O 	0.1543	0.4905	0.0835	-0.445
Mof_O 	O 	0.2059	0.5647	0.2182	-0.348
Mof_C 	C 	0.1551	0.5293	0.1472	0.412
Mof_C 	C 	0.0896	0.5286	0.1356	-0.384
Mof_C 	C 	0.1065	0.5662	0.235	0.04
Mof_C 	C 	0.0301	0.4897	0.2497	-0.069
Mof_C 	C 	0.0702	0.6023	0.3388	-0.07
Mof_C 	C 	0.9819	0.5948	0.1427	-0.059
Mof_O 	O 	0.3469	0.5109	0.2751	-0.453
Mof_O 	O 	0.2949	0.4367	0.3069	-0.353
Mof_C 	C 	0.3449	0.4727	0.3366	0.424
Mof_C 	C 	0.4088	0.4712	0.4551	-0.408
Mof_C 	C 	0.3945	0.4347	0.5231	0.06
Mof_C 	C 	0.4693	0.5092	0.6904	-0.068
Mof_C 	C 	0.4297	0.3974	0.6969	-0.066
Mof_C 	C 	0.5187	0.4037	0.6788	-0.064
Mof_O 	O 	0.2605	0.5962	0.0811	-0.462
Mof_O 	O 	0.1853	0.5459	0.9238	-0.348
Mof_C 	C 	0.2234	0.5958	0.9814	0.435
Mof_C 	C 	0.221	0.6586	0.9226	-0.419
Mof_C 	C 	0.1841	0.6454	0.8035	0.075
Mof_N 	N 	0.1873	0.7034	0.7448	-0.093
Mof_C 	C 	0.2598	0.7206	0.7902	-0.063
Mof_C 	C 	0.2604	0.7807	0.7278	-0.074
Mof_C 	C 	0.1548	0.7671	0.7444	-0.061
Mof_C 	C 	0.1476	0.8197	0.6652	-0.068
Mof_C 	C 	0.1472	0.679	0.6288	-0.067
Mof_C 	C 	0.1547	0.7294	0.5646	-0.067
Mof_N 	N 	0.186	0.797	0.628	-0.089
Mof_C 	C 	0.183	0.8559	0.5618	0.063
Mof_C 	C 	0.2204	0.8402	0.5174	-0.406
Mof_C 	C 	0.221	0.9046	0.4626	0.424
Mof_O 	O 	0.2594	0.904	0.4371	-0.451
Mof_O 	O 	0.186	0.955	0.4473	-0.357
Mof_Zn	Zn	0.2511	0.5004	0.1261	1.235
Mof_H 	H 	0.0532	0.553	0.0706	0.144
Mof_H 	H 	0.0749	0.4819	0.1324	0.152
Mof_H 	H 	0.1471	0.5452	0.2994	0.051
Mof_H 	H 	0.1156	0.6142	0.2323	0.021
Mof_H 	H 	0.0705	0.4693	0.3152	0.073
Mof_H 	H 	0.0179	0.4627	0.1891	0.049
Mof_H 	H 	0.0752	0.6503	0.3286	0.047
Mof_H 	H 	0.1144	0.5851	0.4012	0.069
Mof_H 	H 	0.9627	0.5676	0.0787	0.057
Mof_H 	H 	0.9937	0.6397	0.1325	0.042
Mof_H 	H 	0.4236	0.5178	0.4819	0.158
Mof_H 	H 	0.4452	0.4468	0.4627	0.151
Mof_H 	H 	0.3547	0.4565	0.5081	0.045
Mof_H 	H 	0.3839	0.3871	0.4999	0.016
Mof_H 	H 	0.4289	0.5287	0.6763	0.072
Mof_H 	H 	0.4805	0.5366	0.6531	0.048
Mof_H 	H 	0.4237	0.3495	0.6759	0.046
Mof_H 	H 	0.3855	0.4156	0.6699	0.068
Mof_H 	H 	0.5378	0.4314	0.6533	0.059
Mof_H 	H 	0.5079	0.3585	0.646	0.043
Mof_H 	H 	0.1971	0.6951	0.9281	0.153
Mof_H 	H 	0.2676	0.6732	0.957	0.16
Mof_H 	H 	0.1364	0.6356	0.7686	0.012
Mof_H 	H 	0.2051	0.6051	0.7994	0.041
Mof_H 	H 	0.2847	0.7357	0.864	0.046
Mof_H 	H 	0.282	0.6803	0.7893	0.069
Mof_H 	H 	0.2855	0.7659	0.7039	0.05
Mof_H 	H 	0.282	0.8214	0.7724	0.074
Mof_H 	H 	0.1101	0.7569	0.7233	0.042
Mof_H 	H 	0.1842	0.7864	0.8164	0.058
Mof_H 	H 	0.1644	0.8643	0.6995	0.068
Mof_H 	H 	0.0995	0.8234	0.6021	0.047
Mof_H 	H 	0.1644	0.6344	0.6285	0.068
Mof_H 	H 	0.099	0.6752	0.595	0.047
Mof_H 	H 	0.1101	0.7402	0.4967	0.045
Mof_H 	H 	0.1838	0.7097	0.5507	0.061
Mof_H 	H 	0.1351	0.8653	0.502	0.014
Mof_H 	H 	0.2039	0.8964	0.6073	0.043
Mof_H 	H 	0.2671	0.8261	0.5759	0.157
Mof_H 	H 	0.1965	0.8033	0.4652	0.15
Mof_N 	N 	0.5459	0.9366	0.7394	-0.087
Mof_N 	N 	0.9541	0.0637	0.1465	-0.09
Mof_O 	O 	0.6543	0.0095	0.5835	-0.444
Mof_O 	O 	0.7059	0.9353	0.7182	-0.348
Mof_C 	C 	0.6551	0.9707	0.6472	0.412
Mof_C 	C 	0.5896	0.9714	0.6356	-0.386
Mof_C 	C 	0.6065	0.9338	0.735	0.041
Mof_C 	C 	0.5301	0.0103	0.7497	-0.068
Mof_C 	C 	0.5702	0.8977	0.8388	-0.07
Mof_C 	C 	0.4819	0.9052	0.6427	-0.059
Mof_O 	O 	0.8469	0.9891	0.7751	-0.453
Mof_O 	O 	0.7949	0.0633	0.8069	-0.352
Mof_C 	C 	0.8449	0.0273	0.8366	0.421
Mof_C 	C 	0.9088	0.0288	0.9551	-0.392
Mof_C 	C 	0.8945	0.0653	0.0231	0.046
Mof_C 	C 	0.9693	0.9908	0.1904	-0.064
Mof_C 	C 	0.9297	0.1026	0.1969	-0.066
Mof_C 	C 	0.0187	0.0963	0.1788	-0.063
Mof_O 	O 	0.7605	0.9038	0.5811	-0.463
Mof_O 	O 	0.6853	0.9541	0.4238	-0.348
Mof_C 	C 	0.7234	0.9042	0.4814	0.436
Mof_C 	C 	0.721	0.8414	0.4226	-0.42
Mof_C 	C 	0.6841	0.8546	0.3035	0.075
Mof_N 	N 	0.6873	0.7966	0.2448	-0.093
Mof_C 	C 	0.7598	0.7794	0.2902	-0.064
Mof_C 	C 	0.7604	0.7193	0.2278	-0.074
Mof_C 	C 	0.6548	0.7329	0.2444	-0.061
Mof_C 	C 	0.6476	0.6803	0.1652	-0.068
Mof_C 	C 	0.6472	0.821	0.1288	-0.069
Mof_C 	C 	0.6547	0.7706	0.0646	-0.063
Mof_N 	N 	0.686	0.703	0.128	-0.09
Mof_C 	C 	0.683	0.6441	0.0618	0.061
Mof_C 	C 	0.7204	0.6598	0.0174	-0.401
Mof_C 	C 	0.721	0.5954	0.9626	0.422
Mof_O 	O 	0.7594	0.596	0.9371	-0.45
Mof_O 	O 	0.686	0.545	0.9473	-0.356
Mof_Zn	Zn	0.7511	0.9996	0.6261	1.235
Mof_H 	H 	0.5532	0.947	0.5706	0.145
Mof_H 	H 	0.5749	0.0181	0.6324	0.153
Mof_H 	H 	0.6471	0.9548	0.7994	0.05
Mof_H 	H 	0.6156	0.8858	0.7323	0.02
Mof_H 	H 	0.5705	0.0307	0.8152	0.073
Mof_H 	H 	0.5179	0.0373	0.6891	0.049
Mof_H 	H 	0.5752	0.8497	0.8286	0.047
Mof_H 	H 	0.6144	0.9149	0.9012	0.068
Mof_H 	H 	0.4627	0.9324	0.5787	0.057
Mof_H 	H 	0.4937	0.8603	0.6325	0.042
Mof_H 	H 	0.9236	0.9822	0.9819	0.152
Mof_H 	H 	0.9452	0.0532	0.9627	0.148
Mof_H 	H 	0.8547	0.0435	0.0081	0.048
Mof_H 	H 	0.8839	0.1129	0.9999	0.022
Mof_H 	H 	0.9289	0.9713	0.1763	0.072
Mof_H 	H 	0.9805	0.9634	0.1531	0.049
Mof_H 	H 	0.9237	0.1505	0.1759	0.046
Mof_H 	H 	0.8855	0.0844	0.1699	0.067
Mof_H 	H 	0.0378	0.0686	0.1533	0.059
Mof_H 	H 	0.0079	0.1415	0.146	0.043
Mof_H 	H 	0.6971	0.8049	0.4281	0.154
Mof_H 	H 	0.7676	0.8268	0.457	0.161
Mof_H 	H 	0.6364	0.8644	0.2686	0.012
Mof_H 	H 	0.7051	0.8949	0.2994	0.041
Mof_H 	H 	0.7847	0.7643	0.364	0.047
Mof_H 	H 	0.782	0.8197	0.2893	0.07
Mof_H 	H 	0.7855	0.7341	0.2039	0.05
Mof_H 	H 	0.782	0.6786	0.2724	0.074
Mof_H 	H 	0.6101	0.7431	0.2233	0.042
Mof_H 	H 	0.6842	0.7136	0.3164	0.059
Mof_H 	H 	0.6644	0.6357	0.1995	0.068
Mof_H 	H 	0.5995	0.6766	0.1021	0.047
Mof_H 	H 	0.6644	0.8656	0.1285	0.07
Mof_H 	H 	0.599	0.8248	0.095	0.048
Mof_H 	H 	0.6101	0.7598	0.9967	0.042
Mof_H 	H 	0.6838	0.7903	0.0507	0.06
Mof_H 	H 	0.6351	0.6347	0.002	0.015
Mof_H 	H 	0.7039	0.6036	0.1073	0.044
Mof_H 	H 	0.7671	0.6739	0.0759	0.156
Mof_H 	H 	0.6965	0.6967	0.9652	0.148
Mof_N 	N 	0.0459	0.4366	0.7394	-0.086
Mof_N 	N 	0.4541	0.5637	0.1465	-0.09
Mof_O 	O 	0.1543	0.5095	0.5835	-0.445
Mof_O 	O 	0.2059	0.4353	0.7182	-0.348
Mof_C 	C 	0.1551	0.4707	0.6472	0.412
Mof_C 	C 	0.0896	0.4714	0.6356	-0.384
Mof_C 	C 	0.1065	0.4338	0.735	0.04
Mof_C 	C 	0.0301	0.5103	0.7497	-0.069
Mof_C 	C 	0.0702	0.3977	0.8388	-0.07
Mof_C 	C 	0.9819	0.4052	0.6427	-0.058
Mof_O 	O 	0.3469	0.4891	0.7751	-0.453
Mof_O 	O 	0.2949	0.5633	0.8069	-0.353
Mof_C 	C 	0.3449	0.5273	0.8366	0.425
Mof_C 	C 	0.4088	0.5288	0.9551	-0.409
Mof_C 	C 	0.3945	0.5653	0.0231	0.063
Mof_C 	C 	0.4693	0.4908	0.1904	-0.067
Mof_C 	C 	0.4297	0.6026	0.1969	-0.066
Mof_C 	C 	0.5187	0.5963	0.1788	-0.064
Mof_O 	O 	0.2605	0.4038	0.5811	-0.463
Mof_O 	O 	0.1853	0.4541	0.4238	-0.349
Mof_C 	C 	0.2234	0.4042	0.4814	0.436
Mof_C 	C 	0.221	0.3414	0.4226	-0.42
Mof_C 	C 	0.1841	0.3546	0.3035	0.076
Mof_N 	N 	0.1873	0.2966	0.2448	-0.093
Mof_C 	C 	0.2598	0.2794	0.2902	-0.063
Mof_C 	C 	0.2604	0.2193	0.2278	-0.074
Mof_C 	C 	0.1548	0.2329	0.2444	-0.061
Mof_C 	C 	0.1476	0.1803	0.1652	-0.067
Mof_C 	C 	0.1472	0.321	0.1288	-0.065
Mof_C 	C 	0.1547	0.2706	0.0646	-0.071
Mof_N 	N 	0.186	0.203	0.128	-0.09
Mof_C 	C 	0.183	0.1441	0.0618	0.068
Mof_C 	C 	0.2204	0.1598	0.0174	-0.416
Mof_C 	C 	0.221	0.0954	0.9626	0.428
Mof_O 	O 	0.2594	0.096	0.9371	-0.451
Mof_O 	O 	0.186	0.045	0.9473	-0.356
Mof_Zn	Zn	0.2511	0.4996	0.6261	1.235
Mof_H 	H 	0.0532	0.447	0.5706	0.144
Mof_H 	H 	0.0749	0.5181	0.6324	0.152
Mof_H 	H 	0.1471	0.4548	0.7994	0.051
Mof_H 	H 	0.1156	0.3858	0.7323	0.021
Mof_H 	H 	0.0705	0.5307	0.8152	0.073
Mof_H 	H 	0.0179	0.5373	0.6891	0.049
Mof_H 	H 	0.0752	0.3497	0.8286	0.047
Mof_H 	H 	0.1144	0.4149	0.9012	0.069
Mof_H 	H 	0.9627	0.4324	0.5787	0.057
Mof_H 	H 	0.9937	0.3603	0.6325	0.042
Mof_H 	H 	0.4236	0.4822	0.9819	0.159
Mof_H 	H 	0.4452	0.5532	0.9627	0.152
Mof_H 	H 	0.3547	0.5435	0.0081	0.044
Mof_H 	H 	0.3839	0.6129	0.9999	0.014
Mof_H 	H 	0.4289	0.4713	0.1763	0.071
Mof_H 	H 	0.4805	0.4634	0.1531	0.048
Mof_H 	H 	0.4237	0.6505	0.1759	0.046
Mof_H 	H 	0.3855	0.5844	0.1699	0.068
Mof_H 	H 	0.5378	0.5686	0.1533	0.059
Mof_H 	H 	0.5079	0.6415	0.146	0.044
Mof_H 	H 	0.1971	0.3049	0.4281	0.154
Mof_H 	H 	0.2676	0.3268	0.457	0.161
Mof_H 	H 	0.1364	0.3644	0.2686	0.011
Mof_H 	H 	0.2051	0.3949	0.2994	0.041
Mof_H 	H 	0.2847	0.2643	0.364	0.047
Mof_H 	H 	0.282	0.3197	0.2893	0.069
Mof_H 	H 	0.2855	0.2341	0.2039	0.05
Mof_H 	H 	0.282	0.1786	0.2724	0.074
Mof_H 	H 	0.1101	0.2431	0.2233	0.042
Mof_H 	H 	0.1842	0.2136	0.3164	0.059
Mof_H 	H 	0.1644	0.1357	0.1995	0.068
Mof_H 	H 	0.0995	0.1766	0.1021	0.047
Mof_H 	H 	0.1644	0.3656	0.1285	0.068
Mof_H 	H 	0.099	0.3248	0.095	0.046
Mof_H 	H 	0.1101	0.2598	0.9967	0.047
Mof_H 	H 	0.1838	0.2903	0.0507	0.062
Mof_H 	H 	0.1351	0.1347	0.002	0.012
Mof_H 	H 	0.2039	0.1036	0.1073	0.042
Mof_H 	H 	0.2671	0.1739	0.0759	0.16
Mof_H 	H 	0.1965	0.1967	0.9652	0.154
Mof_N 	N 	0.4541	0.9366	0.7606	-0.087
Mof_N 	N 	0.0459	0.0637	0.3535	-0.09
Mof_O 	O 	0.3457	0.0095	0.9165	-0.441
Mof_O 	O 	0.2941	0.9353	0.7818	-0.348
Mof_C 	C 	0.3449	0.9707	0.8528	0.409
Mof_C 	C 	0.4104	0.9714	0.8644	-0.389
Mof_C 	C 	0.3935	0.9338	0.765	0.042
Mof_C 	C 	0.4699	0.0103	0.7503	-0.067
Mof_C 	C 	0.4298	0.8977	0.6612	-0.07
Mof_C 	C 	0.5181	0.9052	0.8573	-0.058
Mof_O 	O 	0.1531	0.9891	0.7249	-0.455
Mof_O 	O 	0.2051	0.0633	0.6931	-0.353
Mof_C 	C 	0.1551	0.0273	0.6634	0.426
Mof_C 	C 	0.0912	0.0288	0.5449	-0.407
Mof_C 	C 	0.1055	0.0653	0.4769	0.06
Mof_C 	C 	0.0307	0.9908	0.3096	-0.069
Mof_C 	C 	0.0703	0.1026	0.3031	-0.066
Mof_C 	C 	0.9813	0.0963	0.3212	-0.065
Mof_O 	O 	0.2395	0.9038	0.9189	-0.466
Mof_O 	O 	0.3147	0.9541	0.0762	-0.349
Mof_C 	C 	0.2766	0.9042	0.0186	0.44
Mof_C 	C 	0.279	0.8414	0.0774	-0.423
Mof_C 	C 	0.3159	0.8546	0.1965	0.077
Mof_N 	N 	0.3127	0.7966	0.2552	-0.093
Mof_C 	C 	0.2402	0.7794	0.2098	-0.063
Mof_C 	C 	0.2396	0.7193	0.2722	-0.074
Mof_C 	C 	0.3452	0.7329	0.2556	-0.061
Mof_C 	C 	0.3524	0.6803	0.3348	-0.068
Mof_C 	C 	0.3528	0.821	0.3712	-0.067
Mof_C 	C 	0.3453	0.7706	0.4354	-0.067
Mof_N 	N 	0.314	0.703	0.372	-0.089
Mof_C 	C 	0.317	0.6441	0.4382	0.063
Mof_C 	C 	0.2796	0.6598	0.4826	-0.406
Mof_C 	C 	0.279	0.5954	0.5374	0.424
Mof_O 	O 	0.2406	0.596	0.5629	-0.451
Mof_O 	O 	0.314	0.545	0.5527	-0.357
Mof_Zn	Zn	0.2489	0.9996	0.8739	1.234
Mof_H 	H 	0.4468	0.947	0.9294	0.144
Mof_H 	H 	0.4251	0.0181	0.8676	0.155
Mof_H 	H 	0.3529	0.9548	0.7006	0.05
Mof_H 	H 	0.3844	0.8858	0.7677	0.02
Mof_H 	H 	0.4295	0.0307	0.6848	0.073
Mof_H 	H 	0.4821	0.0373	0.8109	0.049
Mof_H 	H 	0.4248	0.8497	0.6714	0.047
Mof_H 	H 	0.3856	0.9149	0.5988	0.069
Mof_H 	H 	0.5373	0.9324	0.9213	0.056
Mof_H 	H 	0.5063	0.8603	0.8675	0.042
Mof_H 	H 	0.0764	0.9822	0.5181	0.157
Mof_H 	H 	0.0548	0.0532	0.5373	0.151
Mof_H 	H 	0.1453	0.0435	0.4919	0.045
Mof_H 	H 	0.1161	0.1129	0.5001	0.016
Mof_H 	H 	0.0711	0.9713	0.3237	0.072
Mof_H 	H 	0.0195	0.9634	0.3469	0.049
Mof_H 	H 	0.0763	0.1505	0.3241	0.046
Mof_H 	H 	0.1145	0.0844	0.3301	0.068
Mof_H 	H 	0.9622	0.0686	0.3467	0.059
Mof_H 	H 	0.9921	0.1415	0.354	0.044
Mof_H 	H 	0.3029	0.8049	0.0719	0.155
Mof_H 	H 	0.2324	0.8268	0.043	0.162
Mof_H 	H 	0.3636	0.8644	0.2314	0.011
Mof_H 	H 	0.2949	0.8949	0.2006	0.04
Mof_H 	H 	0.2153	0.7643	0.136	0.047
Mof_H 	H 	0.218	0.8197	0.2107	0.069
Mof_H 	H 	0.2145	0.7341	0.2961	0.05
Mof_H 	H 	0.218	0.6786	0.2276	0.074
Mof_H 	H 	0.3899	0.7431	0.2767	0.042
Mof_H 	H 	0.3158	0.7136	0.1836	0.059
Mof_H 	H 	0.3356	0.6357	0.3005	0.068
Mof_H 	H 	0.4005	0.6766	0.3979	0.047
Mof_H 	H 	0.3356	0.8656	0.3715	0.068
Mof_H 	H 	0.401	0.8248	0.405	0.047
Mof_H 	H 	0.3899	0.7598	0.5033	0.045
Mof_H 	H 	0.3162	0.7903	0.4493	0.061
Mof_H 	H 	0.3649	0.6347	0.498	0.014
Mof_H 	H 	0.2961	0.6036	0.3927	0.044
Mof_H 	H 	0.2329	0.6739	0.4241	0.157
Mof_H 	H 	0.3035	0.6967	0.5348	0.15
Mof_N 	N 	0.9541	0.4366	0.7606	-0.086
Mof_N 	N 	0.5459	0.5637	0.3535	-0.09
Mof_O 	O 	0.8457	0.5095	0.9165	-0.445
Mof_O 	O 	0.7941	0.4353	0.7818	-0.348
Mof_C 	C 	0.8449	0.4707	0.8528	0.412
Mof_C 	C 	0.9104	0.4714	0.8644	-0.384
Mof_C 	C 	0.8935	0.4338	0.765	0.04
Mof_C 	C 	0.9699	0.5103	0.7503	-0.069
Mof_C 	C 	0.9298	0.3977	0.6612	-0.07
Mof_C 	C 	0.0181	0.4052	0.8573	-0.059
Mof_O 	O 	0.6531	0.4891	0.7249	-0.453
Mof_O 	O 	0.7051	0.5633	0.6931	-0.353
Mof_C 	C 	0.6551	0.5273	0.6634	0.424
Mof_C 	C 	0.5912	0.5288	0.5449	-0.408
Mof_C 	C 	0.6055	0.5653	0.4769	0.06
Mof_C 	C 	0.5307	0.4908	0.3096	-0.068
Mof_C 	C 	0.5703	0.6026	0.3031	-0.066
Mof_C 	C 	0.4813	0.5963	0.3212	-0.064
Mof_O 	O 	0.7395	0.4038	0.9189	-0.462
Mof_O 	O 	0.8147	0.4541	0.0762	-0.348
Mof_C 	C 	0.7766	0.4042	0.0186	0.435
Mof_C 	C 	0.779	0.3414	0.0774	-0.419
Mof_C 	C 	0.8159	0.3546	0.1965	0.075
Mof_N 	N 	0.8127	0.2966	0.2552	-0.093
Mof_C 	C 	0.7402	0.2794	0.2098	-0.063
Mof_C 	C 	0.7396	0.2193	0.2722	-0.074
Mof_C 	C 	0.8452	0.2329	0.2556	-0.061
Mof_C 	C 	0.8524	0.1803	0.3348	-0.068
Mof_C 	C 	0.8528	0.321	0.3712	-0.067
Mof_C 	C 	0.8453	0.2706	0.4354	-0.067
Mof_N 	N 	0.814	0.203	0.372	-0.089
Mof_C 	C 	0.817	0.1441	0.4382	0.063
Mof_C 	C 	0.7796	0.1598	0.4826	-0.406
Mof_C 	C 	0.779	0.0954	0.5374	0.424
Mof_O 	O 	0.7406	0.096	0.5629	-0.451
Mof_O 	O 	0.814	0.045	0.5527	-0.357
Mof_Zn	Zn	0.7489	0.4996	0.8739	1.235
Mof_H 	H 	0.9468	0.447	0.9294	0.144
Mof_H 	H 	0.9251	0.5181	0.8676	0.152
Mof_H 	H 	0.8529	0.4548	0.7006	0.051
Mof_H 	H 	0.8844	0.3858	0.7677	0.021
Mof_H 	H 	0.9295	0.5307	0.6848	0.073
Mof_H 	H 	0.9821	0.5373	0.8109	0.049
Mof_H 	H 	0.9248	0.3497	0.6714	0.047
Mof_H 	H 	0.8856	0.4149	0.5988	0.069
Mof_H 	H 	0.0373	0.4324	0.9213	0.057
Mof_H 	H 	0.0063	0.3603	0.8675	0.042
Mof_H 	H 	0.5764	0.4822	0.5181	0.158
Mof_H 	H 	0.5548	0.5532	0.5373	0.151
Mof_H 	H 	0.6453	0.5435	0.4919	0.045
Mof_H 	H 	0.6161	0.6129	0.5001	0.016
Mof_H 	H 	0.5711	0.4713	0.3237	0.072
Mof_H 	H 	0.5195	0.4634	0.3469	0.048
Mof_H 	H 	0.5763	0.6505	0.3241	0.046
Mof_H 	H 	0.6145	0.5844	0.3301	0.068
Mof_H 	H 	0.4622	0.5686	0.3467	0.059
Mof_H 	H 	0.4921	0.6415	0.354	0.043
Mof_H 	H 	0.8029	0.3049	0.0719	0.153
Mof_H 	H 	0.7324	0.3268	0.043	0.16
Mof_H 	H 	0.8636	0.3644	0.2314	0.012
Mof_H 	H 	0.7949	0.3949	0.2006	0.041
Mof_H 	H 	0.7153	0.2643	0.136	0.046
Mof_H 	H 	0.718	0.3197	0.2107	0.069
Mof_H 	H 	0.7145	0.2341	0.2961	0.05
Mof_H 	H 	0.718	0.1786	0.2276	0.074
Mof_H 	H 	0.8899	0.2431	0.2767	0.042
Mof_H 	H 	0.8158	0.2136	0.1836	0.058
Mof_H 	H 	0.8356	0.1357	0.3005	0.068
Mof_H 	H 	0.9005	0.1766	0.3979	0.047
Mof_H 	H 	0.8356	0.3656	0.3715	0.068
Mof_H 	H 	0.901	0.3248	0.405	0.047
Mof_H 	H 	0.8899	0.2598	0.5033	0.045
Mof_H 	H 	0.8162	0.2903	0.4493	0.061
Mof_H 	H 	0.8649	0.1347	0.498	0.014
Mof_H 	H 	0.7961	0.1036	0.3927	0.043
Mof_H 	H 	0.7329	0.1739	0.4241	0.157
Mof_H 	H 	0.8035	0.1967	0.5348	0.15
_end
