data_functionalizedCrystal
_audit_creation_method	'EQeq! by Chris Wilmer'
_symmetry_space_group_name_H-M	'P1'
_symmetry_Int_Tables_number	1
_symmetry_cell_setting	triclinic
loop_
_symmetry_equiv_pos_as_xyz
  x,y,z
_cell_length_a	16.0824
_cell_length_b	23.8642
_cell_length_c	23.8642
_cell_angle_alpha	83.4806
_cell_angle_beta	70.3084
_cell_angle_gamma	70.3085
loop_
_atom_site_label
_atom_site_type_symbol
_atom_site_fract_x
_atom_site_fract_y
_atom_site_fract_z
_atom_site_charge
Mof_Co	Co	0.35048	0.06758	0.65412	1.154
Mof_Co	Co	0.57218	0.43242	0.84588	1.159
Mof_Co	Co	0.0046	0.34588	0.56758	1.153
Mof_Co	Co	0.41806	0.15412	0.93242	1.163
Mof_Co	Co	0.64952	0.93242	0.34588	1.163
Mof_Co	Co	0.42782	0.56758	0.15412	1.158
Mof_Co	Co	0.9954	0.65412	0.43242	1.164
Mof_Co	Co	0.58194	0.84588	0.06758	1.155
Mof_Co	Co	0.5	4.17308e-25	0.5	1.104
Mof_Co	Co	0.5	0.5	-0	1.104
Mof_Co	Co	-9.17327e-18	0.5	0.5	1.109
Mof_Co	Co	0.5	0	-0	1.093
Mof_H 	H 	0.3592	0.1998	0.6074	0.017
Mof_H 	H 	0.5176	0.1325	0.4503	0.009
Mof_H 	H 	0.5782	0.2146	0.4418	0.089
Mof_H 	H 	0.3248	0.2925	0.5541	0.089
Mof_H 	H 	0.5909	0.3066	0.407	0.079
Mof_H 	H 	0.339	0.3847	0.5207	0.093
Mof_H 	H 	0.4209	0.4476	0.4586	0.139
Mof_H 	H 	0.4882	0.4195	0.3967	0.14
Mof_H 	H 	0.629	0.4394	0.3684	0.091
Mof_H 	H 	0.5103	0.4149	0.5399	0.092
Mof_H 	H 	0.7586	0.4443	0.3875	0.085
Mof_H 	H 	0.6359	0.4209	0.5613	0.079
Mof_H 	H 	0.8211	0.3536	0.536	0.013
Mof_H 	H 	0.8222	0.5061	0.4559	0.011
Mof_H 	H 	0.4963	0.9783	0.7139	0.028
Mof_H 	H 	0.6479	0.9043	0.5579	0.013
Mof_H 	H 	0.7633	0.8546	0.5952	0.071
Mof_H 	H 	0.5731	0.8944	0.7578	0.064
Mof_H 	H 	0.8617	0.7834	0.6376	0.112
Mof_H 	H 	0.6768	0.8251	0.7983	0.106
Mof_H 	H 	0.8561	0.7675	0.7803	0.165
Mof_H 	H 	0.6664	0.3002	0.8926	0.02
Mof_H 	H 	0.6004	0.3675	0.0497	0.027
Mof_H 	H 	0.7346	0.2854	0.0582	0.084
Mof_H 	H 	0.6714	0.2075	0.9459	0.084
Mof_H 	H 	0.8045	0.1934	0.093	0.072
Mof_H 	H 	0.7444	0.1153	0.9793	0.083
Mof_H 	H 	0.8271	0.0524	0.0414	0.1
Mof_H 	H 	0.8044	0.0805	0.1033	0.111
Mof_H 	H 	0.9368	0.0606	0.1316	0.057
Mof_H 	H 	0.9651	0.0851	0.9601	0.054
Mof_H 	H 	0.0904	0.0557	0.1125	0.104
Mof_H 	H 	0.1181	0.0791	0.9387	0.099
Mof_H 	H 	0.2107	0.1464	0.964	0.006
Mof_H 	H 	0.2842	0.9939	0.0441	0.044
Mof_H 	H 	0.6885	0.5217	0.7861	0.02
Mof_H 	H 	0.6101	0.5957	0.9421	0.02
Mof_H 	H 	0.7131	0.6454	0.9048	0.076
Mof_H 	H 	0.7253	0.6056	0.7422	0.062
Mof_H 	H 	0.7827	0.7166	0.8624	0.112
Mof_H 	H 	0.8002	0.6749	0.7017	0.106
Mof_H 	H 	0.9039	0.7325	0.7197	0.167
Mof_H 	H 	0.9666	0.3926	0.6998	0.021
Mof_H 	H 	0.9679	0.5497	0.6325	0.012
Mof_H 	H 	0.02	0.5582	0.7146	0.061
Mof_H 	H 	0.8789	0.4459	0.7925	0.083
Mof_H 	H 	0.9979	0.593	0.8066	0.093
Mof_H 	H 	0.8597	0.4793	0.8847	0.102
Mof_H 	H 	0.8795	0.5414	0.9476	0.151
Mof_H 	H 	0.8849	0.6033	0.9195	0.147
Mof_H 	H 	0.9974	0.6316	0.9394	0.118
Mof_H 	H 	0.0502	0.4601	0.9149	0.093
Mof_H 	H 	0.1461	0.6125	0.9443	0.08
Mof_H 	H 	0.1972	0.4387	0.9209	0.078
Mof_H 	H 	0.3571	0.464	0.8536	0.012
Mof_H 	H 	0.2781	0.5441	0.0061	-0.023
Mof_H 	H 	0.2102	0.2861	0.4783	0.02
Mof_H 	H 	0.2058	0.4421	0.4043	0.012
Mof_H 	H 	0.3585	0.4048	0.3546	0.07
Mof_H 	H 	0.3309	0.2422	0.3944	0.061
Mof_H 	H 	0.4993	0.3624	0.2834	0.11
Mof_H 	H 	0.4751	0.2017	0.3251	0.106
Mof_H 	H 	0.6364	0.2197	0.2675	0.164
Mof_H 	H 	0.559	0.1074	0.8002	0.016
Mof_H 	H 	0.6501	0.9503	0.8675	-0.007
Mof_H 	H 	0.7928	0.9418	0.7854	0.098
Mof_H 	H 	0.6173	0.0541	0.7075	0.098
Mof_H 	H 	0.8975	0.907	0.6934	0.082
Mof_H 	H 	0.7237	0.0207	0.6153	0.095
Mof_H 	H 	0.8685	0.9586	0.5524	0.157
Mof_H 	H 	0.9077	0.8967	0.5805	0.153
Mof_H 	H 	0.0684	0.8684	0.5606	0.097
Mof_H 	H 	0.9252	0.0399	0.5851	0.093
Mof_H 	H 	0.2029	0.8875	0.5557	0.083
Mof_H 	H 	0.0568	0.0613	0.5791	0.089
Mof_H 	H 	0.1747	0.036	0.6464	0.014
Mof_H 	H 	0.3283	0.9559	0.4939	0.011
Mof_H 	H 	0.4746	0.2139	0.0217	0.011
Mof_H 	H 	0.5522	0.0579	0.0957	0.003
Mof_H 	H 	0.6179	0.0952	0.1454	0.063
Mof_H 	H 	0.4675	0.2578	0.1056	0.057
Mof_H 	H 	0.6451	0.1376	0.2166	0.111
Mof_H 	H 	0.5019	0.2983	0.1749	0.107
Mof_H 	H 	0.6236	0.2803	0.2325	0.164
Mof_H 	H 	0.6408	0.8002	0.3926	0.018
Mof_H 	H 	0.4824	0.8675	0.5497	0.01
Mof_H 	H 	0.4218	0.7854	0.5582	0.089
Mof_H 	H 	0.6752	0.7075	0.4459	0.09
Mof_H 	H 	0.4091	0.6934	0.593	0.078
Mof_H 	H 	0.661	0.6153	0.4793	0.092
Mof_H 	H 	0.5791	0.5524	0.5414	0.139
Mof_H 	H 	0.5118	0.5805	0.6033	0.14
Mof_H 	H 	0.371	0.5606	0.6316	0.09
Mof_H 	H 	0.4897	0.5851	0.4601	0.092
Mof_H 	H 	0.2414	0.5557	0.6125	0.084
Mof_H 	H 	0.3641	0.5791	0.4387	0.079
Mof_H 	H 	0.1789	0.6464	0.464	0.011
Mof_H 	H 	0.1778	0.4939	0.5441	0.009
Mof_H 	H 	0.5037	0.0217	0.2861	0.011
Mof_H 	H 	0.3521	0.0957	0.4421	0.011
Mof_H 	H 	0.2367	0.1454	0.4048	0.069
Mof_H 	H 	0.4269	0.1056	0.2422	0.059
Mof_H 	H 	0.1383	0.2166	0.3624	0.107
Mof_H 	H 	0.3232	0.1749	0.2017	0.105
Mof_H 	H 	0.1439	0.2325	0.2197	0.16
Mof_H 	H 	0.3336	0.6998	0.1074	0.015
Mof_H 	H 	0.3996	0.6325	0.9503	-0.008
Mof_H 	H 	0.2654	0.7146	0.9418	0.095
Mof_H 	H 	0.3286	0.7925	0.0541	0.095
Mof_H 	H 	0.1955	0.8066	0.907	0.083
Mof_H 	H 	0.2556	0.8847	0.0207	0.101
Mof_H 	H 	0.1729	0.9476	0.9586	0.173
Mof_H 	H 	0.1956	0.9195	0.8967	0.164
Mof_H 	H 	0.0632	0.9394	0.8684	0.119
Mof_H 	H 	0.0349	0.9149	0.0399	0.122
Mof_H 	H 	0.9096	0.9443	0.8875	0.069
Mof_H 	H 	0.8819	0.9209	0.0613	0.065
Mof_H 	H 	0.7893	0.8536	0.036	0.017
Mof_H 	H 	0.7158	0.0061	0.9559	-0.017
Mof_H 	H 	0.3115	0.4783	0.2139	0.02
Mof_H 	H 	0.3899	0.4043	0.0579	0.004
Mof_H 	H 	0.2869	0.3546	0.0952	0.064
Mof_H 	H 	0.2747	0.3944	0.2578	0.061
Mof_H 	H 	0.2173	0.2834	0.1376	0.108
Mof_H 	H 	0.1998	0.3251	0.2983	0.105
Mof_H 	H 	0.0961	0.2675	0.2803	0.159
Mof_H 	H 	0.0334	0.6074	0.3002	0.014
Mof_H 	H 	0.0321	0.4503	0.3675	0.006
Mof_H 	H 	0.98	0.4418	0.2854	0.116
Mof_H 	H 	0.1211	0.5541	0.2075	0.096
Mof_H 	H 	0.0021	0.407	0.1934	0.063
Mof_H 	H 	0.1403	0.5207	0.1153	0.084
Mof_H 	H 	0.1205	0.4586	0.0524	0.128
Mof_H 	H 	0.1151	0.3967	0.0805	0.132
Mof_H 	H 	0.0026	0.3684	0.0606	0.065
Mof_H 	H 	0.9498	0.5399	0.0851	0.091
Mof_H 	H 	0.8539	0.3875	0.0557	0.088
Mof_H 	H 	0.8028	0.5613	0.0791	0.08
Mof_H 	H 	0.6429	0.536	0.1464	0.012
Mof_H 	H 	0.7219	0.4559	0.9939	0.044
Mof_H 	H 	0.7898	0.7139	0.5217	0.02
Mof_H 	H 	0.7942	0.5579	0.5957	0.012
Mof_H 	H 	0.6415	0.5952	0.6454	0.07
Mof_H 	H 	0.6691	0.7578	0.6056	0.062
Mof_H 	H 	0.5007	0.6376	0.7166	0.109
Mof_H 	H 	0.5249	0.7983	0.6749	0.105
Mof_H 	H 	0.3636	0.7803	0.7325	0.161
Mof_H 	H 	0.441	0.8926	0.1998	0.02
Mof_H 	H 	0.3499	0.0497	0.1325	0.027
Mof_H 	H 	0.2072	0.0582	0.2146	0.08
Mof_H 	H 	0.3827	0.9459	0.2925	0.081
Mof_H 	H 	0.1025	0.093	0.3066	0.072
Mof_H 	H 	0.2763	0.9793	0.3847	0.088
Mof_H 	H 	0.1315	0.0414	0.4476	0.116
Mof_H 	H 	0.0923	0.1033	0.4195	0.121
Mof_H 	H 	0.9316	0.1316	0.4394	0.077
Mof_H 	H 	0.0748	0.9601	0.4149	0.081
Mof_H 	H 	0.7971	0.1125	0.4443	0.092
Mof_H 	H 	0.9432	0.9387	0.4209	0.078
Mof_H 	H 	0.8253	0.964	0.3536	0.01
Mof_H 	H 	0.6717	0.0441	0.5061	0.008
Mof_H 	H 	0.5254	0.7861	0.9783	0.028
Mof_H 	H 	0.4478	0.9421	0.9043	0.021
Mof_H 	H 	0.3821	0.9048	0.8546	0.077
Mof_H 	H 	0.5325	0.7422	0.8944	0.066
Mof_H 	H 	0.3549	0.8624	0.7834	0.109
Mof_H 	H 	0.4981	0.7017	0.8251	0.104
Mof_H 	H 	0.3764	0.7197	0.7675	0.162
Mof_C 	C 	0.3941	0.17298	0.57622	0.14
Mof_C 	C 	0.48086	0.13626	0.49002	0.124
Mof_C 	C 	0.45065	0.24515	0.49995	0.111
Mof_C 	C 	0.5294	0.249	0.4574	-0.069
Mof_C 	C 	0.3784	0.2954	0.5246	-0.059
Mof_C 	C 	0.5372	0.3042	0.437	-0.089
Mof_C 	C 	0.3874	0.3505	0.5043	-0.1
Mof_C 	C 	0.4657	0.3561	0.4607	0.131
Mof_C 	C 	0.4778	0.4163	0.4393	-0.323
Mof_C 	C 	0.558	0.4251	0.4521	0.149
Mof_C 	C 	0.6312	0.4349	0.4071	-0.118
Mof_C 	C 	0.5607	0.4205	0.5091	-0.116
Mof_C 	C 	0.7087	0.4381	0.4183	-0.047
Mof_C 	C 	0.6353	0.4239	0.5223	-0.052
Mof_C 	C 	0.8375	0.38747	0.52073	0.142
Mof_C 	C 	0.83789	0.47099	0.47703	0.124
Mof_C 	C 	0.7104	0.4319	0.4755	0.091
Mof_C 	C 	0.51802	0.96973	0.67343	0.118
Mof_C 	C 	0.6013	0.92921	0.58799	0.111
Mof_C 	C 	0.65864	0.88151	0.67221	0.074
Mof_C 	C 	0.7452	0.84851	0.63609	-0.033
Mof_C 	C 	0.63178	0.87264	0.7334	-0.027
Mof_C 	C 	0.80405	0.80654	0.66176	-0.151
Mof_C 	C 	0.6939	0.8309	0.7573	-0.146
Mof_C 	C 	0.77983	0.79785	0.72249	0.182
Mof_C 	C 	0.6433	0.32702	0.92378	0.139
Mof_C 	C 	0.60714	0.36374	0.00998	0.064
Mof_C 	C 	0.69575	0.25485	5e-05	0.064
Mof_C 	C 	0.7358	0.251	0.0426	-0.064
Mof_C 	C 	0.6984	0.2046	0.9754	-0.032
Mof_C 	C 	0.7784	0.1958	0.063	-0.07
Mof_C 	C 	0.7422	0.1495	0.9957	-0.052
Mof_C 	C 	0.7825	0.1439	0.0393	0.07
Mof_C 	C 	0.8334	0.0837	0.0607	-0.233
Mof_C 	C 	0.9352	0.0749	0.0479	0.035
Mof_C 	C 	0.9732	0.0651	0.0929	-0.021
Mof_C 	C 	0.9903	0.0795	0.9909	0.013
Mof_C 	C 	0.0651	0.0619	0.0817	-0.129
Mof_C 	C 	0.0815	0.0761	0.9777	-0.119
Mof_C 	C 	0.2457	0.11253	0.97927	0.171
Mof_C 	C 	0.28591	0.02901	0.02297	0.067
Mof_C 	C 	0.1178	0.0681	0.0245	0.109
Mof_C 	C 	0.66118	0.53027	0.82657	0.115
Mof_C 	C 	0.6185	0.57079	0.91201	0.108
Mof_C 	C 	0.71236	0.61849	0.82779	0.073
Mof_C 	C 	0.7298	0.65149	0.86391	-0.035
Mof_C 	C 	0.73782	0.62736	0.7666	-0.028
Mof_C 	C 	0.77235	0.69346	0.83824	-0.149
Mof_C 	C 	0.7821	0.6691	0.7427	-0.146
Mof_C 	C 	0.80017	0.70215	0.77751	0.181
Mof_C 	C 	0.97032	0.42378	0.67298	0.141
Mof_C 	C 	0.97088	0.50998	0.63626	0.125
Mof_C 	C 	0.9506	0.50005	0.74515	0.09
Mof_C 	C 	0.9868	0.5426	0.749	-0.018
Mof_C 	C 	0.903	0.4754	0.7954	-0.037
Mof_C 	C 	0.9742	0.563	0.8042	-0.12
Mof_C 	C 	0.8917	0.4957	0.8505	-0.119
Mof_C 	C 	0.9264	0.5393	0.8561	0.154
Mof_C 	C 	0.9171	0.5607	0.9163	-0.333
Mof_C 	C 	0.0101	0.5479	0.9251	0.159
Mof_C 	C 	0.0383	0.5929	0.9349	-0.156
Mof_C 	C 	0.0698	0.4909	0.9205	-0.125
Mof_C 	C 	0.127	0.5817	0.9381	-0.025
Mof_C 	C 	0.1576	0.4777	0.9239	-0.043
Mof_C 	C 	0.35823	0.47927	0.88747	0.142
Mof_C 	C 	0.31492	0.52297	0.97099	0.17
Mof_C 	C 	0.1859	0.5245	0.9319	0.086
Mof_C 	C 	0.19145	0.32657	0.46973	0.115
Mof_C 	C 	0.18929	0.41201	0.42921	0.108
Mof_C 	C 	0.33085	0.32779	0.38151	0.071
Mof_C 	C 	0.38129	0.36391	0.34851	-0.033
Mof_C 	C 	0.36518	0.2666	0.37264	-0.026
Mof_C 	C 	0.46581	0.33824	0.30654	-0.151
Mof_C 	C 	0.4512	0.2427	0.3309	-0.147
Mof_C 	C 	0.50232	0.27751	0.29785	0.181
Mof_C 	C 	0.56708	0.07622	0.82702	0.141
Mof_C 	C 	0.61712	0.99002	0.86374	0.178
Mof_C 	C 	0.6958	0.99995	0.75485	0.162
Mof_C 	C 	0.7784	0.9574	0.751	-0.084
Mof_C 	C 	0.6738	0.0246	0.7046	-0.095
Mof_C 	C 	0.8414	0.937	0.6958	-0.09
Mof_C 	C 	0.7379	0.0043	0.6495	-0.126
Mof_C 	C 	0.8218	0.9607	0.6439	0.166
Mof_C 	C 	0.8941	0.9393	0.5837	-0.36
Mof_C 	C 	0.9831	0.9521	0.5749	0.197
Mof_C 	C 	0.0661	0.9071	0.5651	-0.148
Mof_C 	C 	0.9812	0.0091	0.5795	-0.126
Mof_C 	C 	0.1468	0.9183	0.5619	-0.045
Mof_C 	C 	0.0592	0.0223	0.5761	-0.099
Mof_C 	C 	0.22497	0.02073	0.61253	0.115
Mof_C 	C 	0.30888	0.97703	0.52901	0.13
Mof_C 	C 	0.1423	0.9755	0.5681	0.121
Mof_C 	C 	0.48775	0.17343	0.03027	0.111
Mof_C 	C 	0.53051	0.08799	0.07079	0.104
Mof_C 	C 	0.54015	0.17221	0.11849	0.064
Mof_C 	C 	0.59371	0.13609	0.15149	-0.027
Mof_C 	C 	0.50442	0.2334	0.12736	-0.022
Mof_C 	C 	0.61059	0.16176	0.19346	-0.155
Mof_C 	C 	0.5248	0.2573	0.1691	-0.151
Mof_C 	C 	0.57768	0.22249	0.20215	0.184
Mof_C 	C 	0.6059	0.82702	0.42378	0.14
Mof_C 	C 	0.51914	0.86374	0.50998	0.123
Mof_C 	C 	0.54935	0.75485	0.50005	0.111
Mof_C 	C 	0.4706	0.751	0.5426	-0.069
Mof_C 	C 	0.6216	0.7046	0.4754	-0.059
Mof_C 	C 	0.4628	0.6958	0.563	-0.088
Mof_C 	C 	0.6126	0.6495	0.4957	-0.099
Mof_C 	C 	0.5343	0.6439	0.5393	0.13
Mof_C 	C 	0.5222	0.5837	0.5607	-0.323
Mof_C 	C 	0.442	0.5749	0.5479	0.149
Mof_C 	C 	0.3688	0.5651	0.5929	-0.119
Mof_C 	C 	0.4393	0.5795	0.4909	-0.117
Mof_C 	C 	0.2913	0.5619	0.5817	-0.047
Mof_C 	C 	0.3647	0.5761	0.4777	-0.052
Mof_C 	C 	0.1625	0.61253	0.47927	0.141
Mof_C 	C 	0.16211	0.52901	0.52297	0.122
Mof_C 	C 	0.2896	0.5681	0.5245	0.09
Mof_C 	C 	0.48198	0.03027	0.32657	0.112
Mof_C 	C 	0.3987	0.07079	0.41201	0.104
Mof_C 	C 	0.34136	0.11849	0.32779	0.069
Mof_C 	C 	0.2548	0.15149	0.36391	-0.034
Mof_C 	C 	0.36822	0.12736	0.2666	-0.027
Mof_C 	C 	0.19595	0.19346	0.33824	-0.148
Mof_C 	C 	0.3061	0.1691	0.2427	-0.146
Mof_C 	C 	0.22017	0.20215	0.27751	0.178
Mof_C 	C 	0.3567	0.67298	0.07622	0.141
Mof_C 	C 	0.39286	0.63626	0.99002	0.18
Mof_C 	C 	0.30425	0.74515	0.99995	0.157
Mof_C 	C 	0.2642	0.749	0.9574	-0.077
Mof_C 	C 	0.3016	0.7954	0.0246	-0.087
Mof_C 	C 	0.2216	0.8042	0.937	-0.102
Mof_C 	C 	0.2578	0.8505	0.0043	-0.138
Mof_C 	C 	0.2175	0.8561	0.9607	0.181
Mof_C 	C 	0.1666	0.9163	0.9393	-0.398
Mof_C 	C 	0.0648	0.9251	0.9521	0.243
Mof_C 	C 	0.0268	0.9349	0.9071	-0.199
Mof_C 	C 	0.0097	0.9205	0.0091	-0.219
Mof_C 	C 	0.9349	0.9381	0.9183	0.02
Mof_C 	C 	0.9185	0.9239	0.0223	-0.004
Mof_C 	C 	0.7543	0.88747	0.02073	0.115
Mof_C 	C 	0.71409	0.97099	0.97703	0.172
Mof_C 	C 	0.8822	0.9319	0.9755	0.081
Mof_C 	C 	0.33882	0.46973	0.17343	0.115
Mof_C 	C 	0.3815	0.42921	0.08799	0.108
Mof_C 	C 	0.28764	0.38151	0.17221	0.07
Mof_C 	C 	0.2702	0.34851	0.13609	-0.032
Mof_C 	C 	0.26218	0.37264	0.2334	-0.027
Mof_C 	C 	0.22765	0.30654	0.16176	-0.151
Mof_C 	C 	0.2179	0.3309	0.2573	-0.146
Mof_C 	C 	0.19983	0.29785	0.22249	0.178
Mof_C 	C 	0.02968	0.57622	0.32702	0.139
Mof_C 	C 	0.02912	0.49002	0.36374	0.122
Mof_C 	C 	0.0494	0.49995	0.25485	0.133
Mof_C 	C 	0.0132	0.4574	0.251	-0.118
Mof_C 	C 	0.097	0.5246	0.2046	-0.08
Mof_C 	C 	0.0258	0.437	0.1958	-0.058
Mof_C 	C 	0.1083	0.5043	0.1495	-0.08
Mof_C 	C 	0.0736	0.4607	0.1439	0.108
Mof_C 	C 	0.0829	0.4393	0.0837	-0.313
Mof_C 	C 	0.9899	0.4521	0.0749	0.14
Mof_C 	C 	0.9617	0.4071	0.0651	-0.083
Mof_C 	C 	0.9302	0.5091	0.0795	-0.109
Mof_C 	C 	0.873	0.4183	0.0619	-0.068
Mof_C 	C 	0.8424	0.5223	0.0761	-0.062
Mof_C 	C 	0.64177	0.52073	0.11253	0.142
Mof_C 	C 	0.68508	0.47703	0.02901	0.075
Mof_C 	C 	0.8141	0.4755	0.0681	0.094
Mof_C 	C 	0.80855	0.67343	0.53027	0.115
Mof_C 	C 	0.81071	0.58799	0.57079	0.108
Mof_C 	C 	0.66915	0.67221	0.61849	0.072
Mof_C 	C 	0.61871	0.63609	0.65149	-0.034
Mof_C 	C 	0.63482	0.7334	0.62736	-0.028
Mof_C 	C 	0.53419	0.66176	0.69346	-0.148
Mof_C 	C 	0.5488	0.7573	0.6691	-0.145
Mof_C 	C 	0.49768	0.72249	0.70215	0.178
Mof_C 	C 	0.43292	0.92378	0.17298	0.139
Mof_C 	C 	0.38288	0.00998	0.13626	0.062
Mof_C 	C 	0.3042	5e-05	0.24515	0.058
Mof_C 	C 	0.2216	0.0426	0.249	-0.056
Mof_C 	C 	0.3262	0.9754	0.2954	-0.023
Mof_C 	C 	0.1586	0.063	0.3042	-0.083
Mof_C 	C 	0.2621	0.9957	0.3505	-0.065
Mof_C 	C 	0.1782	0.0393	0.3561	0.086
Mof_C 	C 	0.1059	0.0607	0.4163	-0.268
Mof_C 	C 	0.0169	0.0479	0.4251	0.076
Mof_C 	C 	0.9339	0.0929	0.4349	-0.067
Mof_C 	C 	0.0188	0.9909	0.4205	-0.076
Mof_C 	C 	0.8532	0.0817	0.4381	-0.068
Mof_C 	C 	0.9408	0.9777	0.4239	-0.031
Mof_C 	C 	0.77503	0.97927	0.38747	0.168
Mof_C 	C 	0.69112	0.02297	0.47099	0.118
Mof_C 	C 	0.8577	0.0245	0.4319	0.076
Mof_C 	C 	0.51225	0.82657	0.96973	0.119
Mof_C 	C 	0.46949	0.91201	0.92921	0.111
Mof_C 	C 	0.45985	0.82779	0.88151	0.078
Mof_C 	C 	0.40629	0.86391	0.84851	-0.039
Mof_C 	C 	0.49558	0.7666	0.87264	-0.032
Mof_C 	C 	0.38941	0.83824	0.80654	-0.144
Mof_C 	C 	0.4752	0.7427	0.8309	-0.141
Mof_C 	C 	0.42232	0.77751	0.79785	0.176
Mof_C 	C 	0.8447	0.75	0.75	-0.376
Mof_C 	C 	0.5947	0.25	0.25	-0.376
Mof_C 	C 	0.1553	0.25	0.25	-0.369
Mof_C 	C 	0.4053	0.75	0.75	-0.369
Mof_N 	N 	0.44336	0.18741	0.52107	-0.145
Mof_N 	N 	0.40239	0.11676	0.57926	-0.203
Mof_N 	N 	0.45893	0.09261	0.52293	-0.209
Mof_N 	N 	0.79281	0.43056	0.48942	-0.144
Mof_N 	N 	0.90616	0.45415	0.49873	-0.203
Mof_N 	N 	0.90592	0.4	0.52636	-0.196
Mof_N 	N 	0.59596	0.92396	0.64592	-0.141
Mof_N 	N 	0.53245	0.97384	0.57966	-0.204
Mof_N 	N 	0.47892	0.9994	0.63496	-0.19
Mof_N 	N 	0.65184	0.31259	0.97893	-0.111
Mof_N 	N 	0.59841	0.38324	0.92074	-0.199
Mof_N 	N 	0.57447	0.40739	0.97707	-0.181
Mof_N 	N 	0.21279	0.06944	0.01058	-0.156
Mof_N 	N 	0.35904	0.04585	0.00127	-0.213
Mof_N 	N 	0.33228	0.1	0.97364	-0.193
Mof_N 	N 	0.66584	0.57604	0.85408	-0.142
Mof_N 	N 	0.58595	0.52616	0.92034	-0.206
Mof_N 	N 	0.61328	0.5006	0.86504	-0.2
Mof_N 	N 	0.96443	0.47893	0.68741	-0.14
Mof_N 	N 	0.98165	0.42074	0.61676	-0.197
Mof_N 	N 	0.98186	0.47707	0.59261	-0.202
Mof_N 	N 	0.28223	0.51058	0.93056	-0.15
Mof_N 	N 	0.40489	0.50127	0.95415	-0.209
Mof_N 	N 	0.43228	0.47364	0.9	-0.199
Mof_N 	N 	0.24188	0.35408	0.42396	-0.142
Mof_N 	N 	0.11211	0.42034	0.47384	-0.213
Mof_N 	N 	0.11388	0.36504	0.4994	-0.201
Mof_N 	N 	0.63077	0.02107	0.81259	-0.176
Mof_N 	N 	0.51915	0.07926	0.88324	-0.2
Mof_N 	N 	0.55154	0.02293	0.90739	-0.222
Mof_N 	N 	0.22337	0.98942	0.56944	-0.133
Mof_N 	N 	0.36031	0.99873	0.54585	-0.193
Mof_N 	N 	0.30592	0.02636	0.6	-0.207
Mof_N 	N 	0.51992	0.14592	0.07604	-0.143
Mof_N 	N 	0.50629	0.07966	0.02616	-0.219
Mof_N 	N 	0.47832	0.13496	0.0006	-0.21
Mof_N 	N 	0.55664	0.81259	0.47893	-0.145
Mof_N 	N 	0.59761	0.88324	0.42074	-0.199
Mof_N 	N 	0.54107	0.90739	0.47707	-0.201
Mof_N 	N 	0.20719	0.56944	0.51058	-0.144
Mof_N 	N 	0.09384	0.54585	0.50127	-0.209
Mof_N 	N 	0.09408	0.6	0.47364	-0.203
Mof_N 	N 	0.40404	0.07604	0.35408	-0.143
Mof_N 	N 	0.46755	0.02616	0.42034	-0.216
Mof_N 	N 	0.52108	0.0006	0.36504	-0.209
Mof_N 	N 	0.34816	0.68741	0.02107	-0.177
Mof_N 	N 	0.40159	0.61676	0.07926	-0.202
Mof_N 	N 	0.42553	0.59261	0.02293	-0.228
Mof_N 	N 	0.78721	0.93056	0.98942	-0.133
Mof_N 	N 	0.64096	0.95415	0.99873	-0.195
Mof_N 	N 	0.66772	0.9	0.02636	-0.205
Mof_N 	N 	0.33416	0.42396	0.14592	-0.142
Mof_N 	N 	0.41405	0.47384	0.07966	-0.214
Mof_N 	N 	0.38672	0.4994	0.13496	-0.2
Mof_N 	N 	0.03557	0.52107	0.31259	-0.15
Mof_N 	N 	0.01835	0.57926	0.38324	-0.204
Mof_N 	N 	0.01814	0.52293	0.40739	-0.209
Mof_N 	N 	0.71777	0.48942	0.06944	-0.138
Mof_N 	N 	0.59511	0.49873	0.04585	-0.201
Mof_N 	N 	0.56772	0.52636	0.1	-0.2
Mof_N 	N 	0.75812	0.64592	0.57604	-0.142
Mof_N 	N 	0.88789	0.57966	0.52616	-0.208
Mof_N 	N 	0.88612	0.63496	0.5006	-0.198
Mof_N 	N 	0.36923	0.97893	0.18741	-0.109
Mof_N 	N 	0.48085	0.92074	0.11676	-0.201
Mof_N 	N 	0.44846	0.97707	0.09261	-0.183
Mof_N 	N 	0.77663	0.01058	0.43056	-0.156
Mof_N 	N 	0.63969	0.00127	0.45415	-0.218
Mof_N 	N 	0.69408	0.97364	0.4	-0.193
Mof_N 	N 	0.48008	0.85408	0.92396	-0.141
Mof_N 	N 	0.49371	0.92034	0.97384	-0.199
Mof_N 	N 	0.52168	0.86504	0.9994	-0.19
Mof_O 	O 	0.3008	0.01744	0.73016	-0.248
Mof_O 	O 	0.21972	0.13215	0.67901	-0.241
Mof_O 	O 	0.39195	0.11077	0.70673	-0.236
Mof_O 	O 	0.5484	0.48256	0.76984	-0.235
Mof_O 	O 	0.53088	0.36785	0.82099	-0.237
Mof_O 	O 	0.70945	0.38923	0.79327	-0.232
Mof_O 	O 	0.03096	0.26984	0.51744	-0.241
Mof_O 	O 	0.89873	0.32099	0.63215	-0.232
Mof_O 	O 	0.09868	0.29327	0.61077	-0.237
Mof_O 	O 	0.31824	0.23016	0.98256	-0.223
Mof_O 	O 	0.35187	0.17901	0.86785	-0.238
Mof_O 	O 	0.50272	0.20673	0.88923	-0.229
Mof_O 	O 	0.6992	0.98256	0.26984	-0.221
Mof_O 	O 	0.78028	0.86785	0.32099	-0.235
Mof_O 	O 	0.60805	0.88923	0.29327	-0.229
Mof_O 	O 	0.4516	0.51744	0.23016	-0.235
Mof_O 	O 	0.46912	0.63215	0.17901	-0.238
Mof_O 	O 	0.29055	0.61077	0.20673	-0.233
Mof_O 	O 	0.96904	0.73016	0.48256	-0.229
Mof_O 	O 	0.10127	0.67901	0.36785	-0.243
Mof_O 	O 	0.90132	0.70673	0.38923	-0.228
Mof_O 	O 	0.68176	0.76984	0.01744	-0.246
Mof_O 	O 	0.64813	0.82099	0.13215	-0.238
Mof_O 	O 	0.49728	0.79327	0.11077	-0.235
Mof_N 	N 	0.73785	0.46572	0.65938	0.047
Mof_O 	O 	0.73944	0.41261	0.67611	-0.08
Mof_O 	O 	0.76099	0.49583	0.68679	-0.123
Mof_O 	O 	0.71284	0.48623	0.61529	-0.129
Mof_N 	N 	0.37993	0.61072	0.83582	0.05
Mof_O 	O 	0.44718	0.60513	0.85031	-0.135
Mof_O 	O 	0.3899	0.5853	0.7889	-0.113
Mof_O 	O 	0.30164	0.64086	0.86586	-0.125
Mof_N 	N 	0.6039	0.139	0.5892	0.057
Mof_O 	O 	0.5525	0.1871	0.6235	-0.085
Mof_O 	O 	0.5868	0.0946	0.5986	-0.139
Mof_O 	O 	0.6669	0.1438	0.5464	-0.116
Mof_N 	N 	0.36295	0.03428	0.84062	0.048
Mof_O 	O 	0.32816	0.08739	0.82389	-0.083
Mof_O 	O 	0.44361	0.00417	0.81321	-0.136
Mof_O 	O 	0.31436	0.01377	0.88471	-0.137
Mof_N 	N 	0.32647	0.88928	0.66418	0.05
Mof_O 	O 	0.40262	0.89487	0.64969	-0.133
Mof_O 	O 	0.2641	0.9147	0.7111	-0.107
Mof_O 	O 	0.30836	0.85914	0.63414	-0.126
Mof_N 	N 	0.8321	0.361	0.9108	0.055
Mof_O 	O 	0.8631	0.3129	0.8765	-0.078
Mof_O 	O 	0.78	0.4054	0.9014	-0.132
Mof_O 	O 	0.8571	0.3562	0.9536	-0.101
Mof_N 	N 	0.39723	0.34062	0.96572	0.045
Mof_O 	O 	0.41555	0.32389	0.91261	-0.079
Mof_O 	O 	0.44778	0.31321	0.99583	-0.108
Mof_O 	O 	0.32813	0.38471	0.98623	-0.118
Mof_N 	N 	0.21575	0.16418	0.11072	0.051
Mof_O 	O 	0.29749	0.14969	0.10513	-0.141
Mof_O 	O 	0.1788	0.2111	0.0853	-0.122
Mof_O 	O 	0.1675	0.13414	0.14086	-0.131
Mof_N 	N 	0.1931	0.4108	0.639	0.056
Mof_O 	O 	0.176	0.3765	0.6871	-0.089
Mof_O 	O 	0.1854	0.4014	0.5946	-0.137
Mof_O 	O 	0.2133	0.4536	0.6438	-0.117
Mof_N 	N 	0.20357	0.15938	0.53428	0.047
Mof_O 	O 	0.15205	0.17611	0.58739	-0.083
Mof_O 	O 	0.25682	0.18679	0.50417	-0.123
Mof_O 	O 	0.19907	0.11529	0.51377	-0.133
Mof_N 	N 	0.99065	0.33582	0.38928	0.057
Mof_O 	O 	0.05231	0.35031	0.39487	-0.146
Mof_O 	O 	0.9752	0.2889	0.4147	-0.106
Mof_O 	O 	0.9425	0.36586	0.35914	-0.122
Mof_N 	N 	0.7429	0.0892	0.861	0.055
Mof_O 	O 	0.7396	0.1235	0.8129	-0.086
Mof_O 	O 	0.6814	0.0986	0.9054	-0.131
Mof_O 	O 	0.8107	0.0464	0.8562	-0.12
Mof_N 	N 	0.26215	0.53428	0.34062	0.047
Mof_O 	O 	0.26056	0.58739	0.32389	-0.081
Mof_O 	O 	0.23901	0.50417	0.31321	-0.123
Mof_O 	O 	0.28716	0.51377	0.38471	-0.129
Mof_N 	N 	0.62007	0.38928	0.16418	0.051
Mof_O 	O 	0.55282	0.39487	0.14969	-0.137
Mof_O 	O 	0.6101	0.4147	0.2111	-0.112
Mof_O 	O 	0.69836	0.35914	0.13414	-0.127
Mof_N 	N 	0.3961	0.861	0.4108	0.055
Mof_O 	O 	0.4475	0.8129	0.3765	-0.085
Mof_O 	O 	0.4132	0.9054	0.4014	-0.13
Mof_O 	O 	0.3331	0.8562	0.4536	-0.114
Mof_N 	N 	0.63705	0.96572	0.15938	0.046
Mof_O 	O 	0.67184	0.91261	0.17611	-0.078
Mof_O 	O 	0.55639	0.99583	0.18679	-0.108
Mof_O 	O 	0.68564	0.98623	0.11529	-0.119
Mof_N 	N 	0.67353	0.11072	0.33582	0.05
Mof_O 	O 	0.59738	0.10513	0.35031	-0.139
Mof_O 	O 	0.7359	0.0853	0.2889	-0.118
Mof_O 	O 	0.69164	0.14086	0.36586	-0.126
Mof_N 	N 	0.1679	0.639	0.0892	0.057
Mof_O 	O 	0.1369	0.6871	0.1235	-0.091
Mof_O 	O 	0.22	0.5946	0.0986	-0.137
Mof_O 	O 	0.1429	0.6438	0.0464	-0.127
Mof_N 	N 	0.60277	0.65938	0.03428	0.048
Mof_O 	O 	0.58445	0.67611	0.08739	-0.082
Mof_O 	O 	0.55222	0.68679	0.00417	-0.137
Mof_O 	O 	0.67187	0.61529	0.01377	-0.14
Mof_N 	N 	0.78425	0.83582	0.88928	0.05
Mof_O 	O 	0.70251	0.85031	0.89487	-0.131
Mof_O 	O 	0.8212	0.7889	0.9147	-0.103
Mof_O 	O 	0.8325	0.86586	0.85914	-0.121
Mof_N 	N 	0.8069	0.5892	0.361	0.056
Mof_O 	O 	0.824	0.6235	0.3129	-0.081
Mof_O 	O 	0.8146	0.5986	0.4054	-0.132
Mof_O 	O 	0.7867	0.5464	0.3562	-0.113
Mof_N 	N 	0.79643	0.84062	0.46572	0.046
Mof_O 	O 	0.84795	0.82389	0.41261	-0.078
Mof_O 	O 	0.74318	0.81321	0.49583	-0.122
Mof_O 	O 	0.80093	0.88471	0.48623	-0.124
Mof_N 	N 	0.00935	0.66418	0.61072	0.043
Mof_O 	O 	0.94769	0.64969	0.60513	-0.126
Mof_O 	O 	0.0248	0.7111	0.5853	-0.119
Mof_O 	O 	0.0575	0.63414	0.64086	-0.129
Mof_N 	N 	0.2571	0.9108	0.139	0.056
Mof_O 	O 	0.2604	0.8765	0.1871	-0.083
Mof_O 	O 	0.3186	0.9014	0.0946	-0.137
Mof_O 	O 	0.1893	0.9536	0.1438	-0.107
_end
