data_functionalizedCrystal
_audit_creation_method	'EQeq! by Chris Wilmer'
_symmetry_space_group_name_H-M	'P1'
_symmetry_Int_Tables_number	1
_symmetry_cell_setting	triclinic
loop_
_symmetry_equiv_pos_as_xyz
  x,y,z
_cell_length_a	8.8723
_cell_length_b	10.7152
_cell_length_c	18.92
_cell_angle_alpha	75.496
_cell_angle_beta	83.797
_cell_angle_gamma	69.336
loop_
_atom_site_label
_atom_site_type_symbol
_atom_site_fract_x
_atom_site_fract_y
_atom_site_fract_z
_atom_site_charge
Mof_Pr	Pr	0.49816	0.58858	0.213	2.465
Mof_O 	O 	0.2802	0.6035	0.31043	-0.692
Mof_O 	O 	0.2024	0.6079	0.1679	-0.674
Mof_O 	O 	0.4034	0.5719	0.0881	-0.494
Mof_O 	O 	0.4348	0.3718	0.2443	-0.657
Mof_O 	O 	0.6506	0.4425	0.31892	-0.601
Mof_O 	O 	0.7366	0.4584	0.15957	-0.631
Mof_O 	O 	0.6095	0.7311	0.2588	-0.625
Mof_Pr	Pr	0.104	0.46808	0.27628	2.577
Mof_C 	C 	0.4267	0.2562	0.2459	0.466
Mof_C 	C 	0.7586	0.4063	0.3646	0.614
Mof_C 	C 	0.885	0.4169	0.1438	0.594
Mof_O 	O 	0.0702	0.591	0.3807	-0.513
Mof_O 	O 	0.2952	0.2387	0.2461	-0.519
Mof_O 	O 	0.9024	0.3976	0.3511	-0.65
Mof_O 	O 	0.9948	0.4097	0.18211	-0.607
Mof_O 	O 	0.876	0.6737	0.2435	-0.621
Mof_C 	C 	0.5813	0.1356	0.2498	-0.238
Mof_C 	C 	0.71	0.3688	0.4436	-0.289
Mof_C 	C 	0.9311	0.3756	0.072	-0.256
Mof_C 	C 	0.7279	0.1527	0.2539	0.141
Mof_C 	C 	0.5819	0.0064	0.2496	0.174
Mof_C 	C 	0.5788	0.324	0.463	0.174
Mof_C 	C 	0.7871	0.3838	0.4987	0.193
Mof_C 	C 	0.8132	0.4009	0.022	0.169
Mof_C 	C 	0.092	0.3194	0.0526	0.134
Mof_H 	H 	0.7274	0.2393	0.2546	-0.015
Mof_N 	N 	0.8705	0.0507	0.257	-0.172
Mof_H 	H 	0.4855	0.9914	0.2477	-0.035
Mof_C 	C 	0.727	0.8996	0.2523	-0.275
Mof_N 	N 	0.526	0.2911	0.5307	-0.177
Mof_H 	H 	0.5243	0.3168	0.4257	-0.044
Mof_C 	C 	0.7301	0.3565	0.5704	-0.251
Mof_H 	H 	0.8766	0.4119	0.4882	-0.032
Mof_C 	C 	0.8615	0.3703	0.9543	-0.243
Mof_H 	H 	0.7045	0.4375	0.0338	-0.016
Mof_N 	N 	0.1397	0.2891	0.9869	-0.182
Mof_H 	H 	0.1701	0.3019	0.0862	-0.014
Mof_C 	C 	0.8683	0.9279	0.2553	0.16
Mof_C 	C 	0.7384	0.7562	0.252	0.574
Mof_C 	C 	0.6015	0.3073	0.5832	0.153
Mof_C 	C 	0.7991	0.3867	0.6297	0.457
Mof_C 	C 	0.0239	0.3157	0.9396	0.144
Mof_C 	C 	0.7435	0.4007	0.8964	0.443
Mof_H 	H 	0.9662	0.8568	0.2562	-0.039
Mof_H 	H 	0.5662	0.2844	0.6312	-0.033
Mof_H 	H 	0.0554	0.2959	0.894	-0.036
Mof_Pr	Pr	0.50184	0.41142	0.787	2.464
Mof_O 	O 	0.7198	0.3965	0.68957	-0.693
Mof_O 	O 	0.7976	0.3921	0.8321	-0.674
Mof_O 	O 	0.5966	0.4281	0.9119	-0.494
Mof_O 	O 	0.5652	0.6282	0.7557	-0.657
Mof_O 	O 	0.3494	0.5575	0.68108	-0.601
Mof_O 	O 	0.2634	0.5416	0.84043	-0.631
Mof_O 	O 	0.3905	0.2689	0.7412	-0.625
Mof_Pr	Pr	0.896	0.53192	0.72372	2.577
Mof_C 	C 	0.5733	0.7438	0.7541	0.466
Mof_C 	C 	0.2414	0.5937	0.6354	0.614
Mof_C 	C 	0.115	0.5831	0.8562	0.594
Mof_O 	O 	0.9298	0.409	0.6193	-0.513
Mof_O 	O 	0.7048	0.7613	0.7539	-0.519
Mof_O 	O 	0.0976	0.6024	0.6489	-0.65
Mof_O 	O 	0.0052	0.5903	0.81789	-0.607
Mof_O 	O 	0.124	0.3263	0.7565	-0.621
Mof_C 	C 	0.4187	0.8644	0.7502	-0.238
Mof_C 	C 	0.29	0.6312	0.5564	-0.289
Mof_C 	C 	0.0689	0.6244	0.928	-0.256
Mof_C 	C 	0.2721	0.8473	0.7461	0.141
Mof_C 	C 	0.4181	0.9936	0.7504	0.174
Mof_C 	C 	0.4212	0.676	0.537	0.174
Mof_C 	C 	0.2129	0.6162	0.5013	0.193
Mof_C 	C 	0.1868	0.5991	0.978	0.169
Mof_C 	C 	0.908	0.6806	0.9474	0.134
Mof_H 	H 	0.2726	0.7607	0.7454	-0.015
Mof_N 	N 	0.1295	0.9493	0.743	-0.172
Mof_H 	H 	0.5145	0.0086	0.7523	-0.035
Mof_C 	C 	0.273	0.1004	0.7477	-0.275
Mof_N 	N 	0.474	0.7089	0.4693	-0.177
Mof_H 	H 	0.4757	0.6832	0.5743	-0.044
Mof_C 	C 	0.2699	0.6435	0.4296	-0.251
Mof_H 	H 	0.1234	0.5881	0.5118	-0.032
Mof_C 	C 	0.1385	0.6297	0.0457	-0.243
Mof_H 	H 	0.2955	0.5625	0.9662	-0.016
Mof_N 	N 	0.8603	0.7109	0.0131	-0.182
Mof_H 	H 	0.8299	0.6981	0.9138	-0.014
Mof_C 	C 	0.1317	0.0721	0.7447	0.16
Mof_C 	C 	0.2616	0.2438	0.748	0.574
Mof_C 	C 	0.3985	0.6927	0.4168	0.153
Mof_C 	C 	0.2009	0.6133	0.3703	0.457
Mof_C 	C 	0.9761	0.6843	0.0604	0.144
Mof_C 	C 	0.2565	0.5993	0.1036	0.443
Mof_H 	H 	0.0338	0.1432	0.7438	-0.039
Mof_H 	H 	0.4338	0.7156	0.3688	-0.033
Mof_H 	H 	0.9446	0.7041	0.106	-0.036
_end
