data_functionalizedCrystal
_audit_creation_method	'EQeq! by Chris Wilmer'
_symmetry_space_group_name_H-M	'P1'
_symmetry_Int_Tables_number	1
_symmetry_cell_setting	triclinic
loop_
_symmetry_equiv_pos_as_xyz
  x,y,z
_cell_length_a	12.143
_cell_length_b	24.875
_cell_length_c	19.669
_cell_angle_alpha	90
_cell_angle_beta	102.9
_cell_angle_gamma	90
loop_
_atom_site_label
_atom_site_type_symbol
_atom_site_fract_x
_atom_site_fract_y
_atom_site_fract_z
_atom_site_charge
Mof_Nd	Nd	0.92056	0.44954	0.05523	2.245
Mof_O 	O 	0.025	0.3993	0.9838	-0.582
Mof_O 	O 	0.7418	0.4532	0.103	-0.411
Mof_O 	O 	0.9028	0.4686	0.1757	-0.481
Mof_O 	O 	0.7631	0.4543	0.9496	-0.487
Mof_O 	O 	0.0917	0.5013	0.0703	-0.657
Mof_O 	O 	0.864	0.5435	0.0571	-0.526
Mof_C 	C 	0.1123	0.412	0.9645	0.494
Mof_C 	C 	0.7972	0.4673	0.1621	0.325
Mof_C 	C 	0.2063	0.3708	0.9787	-0.14
Mof_C 	C 	0.7364	0.4818	0.2185	-0.079
Mof_C 	C 	0.1827	0.3172	0.9864	-0.005
Mof_C 	C 	0.3246	0.3898	0.9976	0.033
Mof_C 	C 	0.6193	0.4821	0.2052	-0.033
Mof_C 	C 	0.7994	0.4931	0.2853	0.042
Mof_C 	C 	0.273	0.2818	0.0115	-0.005
Mof_H 	H 	0.1086	0.3047	0.9753	0.03
Mof_C 	C 	0.4158	0.3562	0.0237	-0.086
Mof_H 	H 	0.3388	0.4261	0.9918	0.049
Mof_H 	H 	0.5779	0.4732	0.1609	0.074
Mof_C 	C 	0.5623	0.4955	0.2574	0.001
Mof_H 	H 	0.8779	0.4919	0.2948	0.009
Mof_C 	C 	0.7438	0.5061	0.3375	-0.141
Mof_C 	C 	0.3911	0.3019	0.0311	-0.027
Mof_C 	C 	0.5375	0.3738	0.0325	0.385
Mof_C 	C 	0.6265	0.5083	0.3233	-0.005
Mof_C 	C 	0.8087	0.5186	0.4101	0.449
Mof_H 	H 	0.4494	0.278	0.0486	0.049
Mof_O 	O 	0.5349	0.4206	0.0375	-0.267
Mof_O 	O 	0.6105	0.3411	0.0463	-0.306
Mof_H 	H 	0.5904	0.5184	0.3583	0.055
Mof_Nd	Nd	0.07944	0.44954	0.44477	2.248
Mof_O 	O 	0.975	0.3993	0.5162	-0.581
Mof_O 	O 	0.2582	0.4532	0.397	-0.411
Mof_O 	O 	0.0972	0.4686	0.3243	-0.48
Mof_O 	O 	0.2369	0.4543	0.5504	-0.488
Mof_O 	O 	0.9083	0.5013	0.4297	-0.659
Mof_O 	O 	0.136	0.5435	0.4429	-0.526
Mof_C 	C 	0.8877	0.412	0.5355	0.496
Mof_C 	C 	0.2028	0.4673	0.3379	0.325
Mof_C 	C 	0.7937	0.3708	0.5213	-0.144
Mof_C 	C 	0.2636	0.4818	0.2815	-0.078
Mof_C 	C 	0.8173	0.3172	0.5136	0.003
Mof_C 	C 	0.6754	0.3898	0.5024	0.039
Mof_C 	C 	0.3807	0.4821	0.2948	-0.033
Mof_C 	C 	0.2006	0.4931	0.2147	0.041
Mof_C 	C 	0.727	0.2818	0.4885	-0.015
Mof_H 	H 	0.8914	0.3047	0.5247	0.028
Mof_C 	C 	0.5842	0.3562	0.4763	-0.092
Mof_H 	H 	0.6612	0.4261	0.5082	0.048
Mof_H 	H 	0.4221	0.4732	0.3391	0.074
Mof_C 	C 	0.4377	0.4955	0.2426	0.001
Mof_H 	H 	0.1221	0.4919	0.2052	0.01
Mof_C 	C 	0.2562	0.5061	0.1625	-0.14
Mof_C 	C 	0.6089	0.3019	0.4689	-0.022
Mof_C 	C 	0.4625	0.3738	0.4675	0.387
Mof_C 	C 	0.3735	0.5083	0.1767	-0.006
Mof_C 	C 	0.1913	0.5186	0.0899	0.449
Mof_H 	H 	0.5506	0.278	0.4514	0.047
Mof_O 	O 	0.4651	0.4206	0.4625	-0.268
Mof_O 	O 	0.3895	0.3411	0.4537	-0.307
Mof_H 	H 	0.4096	0.5184	0.1417	0.056
Mof_Nd	Nd	0.07944	0.55046	0.94477	2.246
Mof_O 	O 	0.975	0.6007	0.0162	-0.581
Mof_O 	O 	0.2582	0.5468	0.897	-0.411
Mof_O 	O 	0.0972	0.5314	0.8243	-0.481
Mof_O 	O 	0.2369	0.5457	0.0504	-0.487
Mof_O 	O 	0.9083	0.4987	0.9297	-0.657
Mof_O 	O 	0.136	0.4565	0.9429	-0.526
Mof_C 	C 	0.8877	0.588	0.0355	0.494
Mof_C 	C 	0.2028	0.5327	0.8379	0.325
Mof_C 	C 	0.7937	0.6292	0.0213	-0.14
Mof_C 	C 	0.2636	0.5182	0.7815	-0.079
Mof_C 	C 	0.8173	0.6828	0.0136	-0.005
Mof_C 	C 	0.6754	0.6102	0.0024	0.033
Mof_C 	C 	0.3807	0.5179	0.7948	-0.033
Mof_C 	C 	0.2006	0.5069	0.7147	0.042
Mof_C 	C 	0.727	0.7182	0.9885	-0.005
Mof_H 	H 	0.8914	0.6953	0.0247	0.03
Mof_C 	C 	0.5842	0.6438	0.9763	-0.086
Mof_H 	H 	0.6612	0.5739	0.0082	0.049
Mof_H 	H 	0.4221	0.5268	0.8391	0.074
Mof_C 	C 	0.4377	0.5045	0.7426	0.001
Mof_H 	H 	0.1221	0.5081	0.7052	0.009
Mof_C 	C 	0.2562	0.4939	0.6625	-0.141
Mof_C 	C 	0.6089	0.6981	0.9689	-0.027
Mof_C 	C 	0.4625	0.6262	0.9675	0.385
Mof_C 	C 	0.3735	0.4917	0.6767	-0.005
Mof_C 	C 	0.1913	0.4814	0.5899	0.449
Mof_H 	H 	0.5506	0.722	0.9514	0.049
Mof_O 	O 	0.4651	0.5794	0.9625	-0.267
Mof_O 	O 	0.3895	0.6589	0.9537	-0.306
Mof_H 	H 	0.4096	0.4816	0.6417	0.055
Mof_Nd	Nd	0.92056	0.55046	0.55523	2.248
Mof_O 	O 	0.025	0.6007	0.4838	-0.581
Mof_O 	O 	0.7418	0.5468	0.603	-0.411
Mof_O 	O 	0.9028	0.5314	0.6757	-0.48
Mof_O 	O 	0.7631	0.5457	0.4496	-0.488
Mof_O 	O 	0.0917	0.4987	0.5703	-0.659
Mof_O 	O 	0.864	0.4565	0.5571	-0.526
Mof_C 	C 	0.1123	0.588	0.4645	0.496
Mof_C 	C 	0.7972	0.5327	0.6621	0.325
Mof_C 	C 	0.2063	0.6292	0.4787	-0.144
Mof_C 	C 	0.7364	0.5182	0.7185	-0.078
Mof_C 	C 	0.1827	0.6828	0.4864	0.003
Mof_C 	C 	0.3246	0.6102	0.4976	0.039
Mof_C 	C 	0.6193	0.5179	0.7052	-0.033
Mof_C 	C 	0.7994	0.5069	0.7853	0.041
Mof_C 	C 	0.273	0.7182	0.5115	-0.015
Mof_H 	H 	0.1086	0.6953	0.4753	0.028
Mof_C 	C 	0.4158	0.6438	0.5237	-0.092
Mof_H 	H 	0.3388	0.5739	0.4918	0.048
Mof_H 	H 	0.5779	0.5268	0.6609	0.074
Mof_C 	C 	0.5623	0.5045	0.7574	0.001
Mof_H 	H 	0.8779	0.5081	0.7948	0.01
Mof_C 	C 	0.7438	0.4939	0.8375	-0.14
Mof_C 	C 	0.3911	0.6981	0.5311	-0.022
Mof_C 	C 	0.5375	0.6262	0.5325	0.387
Mof_C 	C 	0.6265	0.4917	0.8233	-0.006
Mof_C 	C 	0.8087	0.4814	0.9101	0.449
Mof_H 	H 	0.4494	0.722	0.5486	0.047
Mof_O 	O 	0.5349	0.5794	0.5375	-0.268
Mof_O 	O 	0.6105	0.6589	0.5463	-0.307
Mof_H 	H 	0.5904	0.4816	0.8583	0.056
Mof_Nd	Nd	0.42056	0.94954	0.05523	2.234
Mof_O 	O 	0.525	0.8993	0.9838	-0.578
Mof_O 	O 	0.2418	0.9532	0.103	-0.411
Mof_O 	O 	0.4028	0.9686	0.1757	-0.48
Mof_O 	O 	0.2631	0.9543	0.9496	-0.484
Mof_O 	O 	0.5917	0.0013	0.0703	-0.655
Mof_O 	O 	0.364	0.0435	0.0571	-0.523
Mof_C 	C 	0.6123	0.912	0.9645	0.497
Mof_C 	C 	0.2972	0.9673	0.1621	0.324
Mof_C 	C 	0.7063	0.8708	0.9787	-0.15
Mof_C 	C 	0.2364	0.9818	0.2185	-0.077
Mof_C 	C 	0.6827	0.8172	0.9864	0.015
Mof_C 	C 	0.8246	0.8898	0.9976	0.052
Mof_C 	C 	0.1193	0.9821	0.2052	-0.035
Mof_C 	C 	0.2994	0.9931	0.2853	0.038
Mof_C 	C 	0.773	0.7818	0.0115	-0.026
Mof_H 	H 	0.6086	0.8047	0.9753	0.024
Mof_C 	C 	0.9158	0.8562	0.0237	-0.105
Mof_H 	H 	0.8388	0.9261	0.9918	0.045
Mof_H 	H 	0.0779	0.9732	0.1609	0.075
Mof_C 	C 	0.0623	0.9955	0.2574	0.003
Mof_H 	H 	0.3779	0.9919	0.2948	0.01
Mof_C 	C 	0.2438	0.0061	0.3375	-0.138
Mof_C 	C 	0.8911	0.8019	0.0311	-0.013
Mof_C 	C 	0.0375	0.8738	0.0325	0.394
Mof_C 	C 	0.1265	0.0083	0.3233	-0.006
Mof_C 	C 	0.3087	0.0186	0.4101	0.449
Mof_H 	H 	0.9494	0.778	0.0486	0.043
Mof_O 	O 	0.0349	0.9206	0.0375	-0.271
Mof_O 	O 	0.1105	0.8411	0.0463	-0.308
Mof_H 	H 	0.0904	0.0184	0.3583	0.056
Mof_Nd	Nd	0.57944	0.94954	0.44477	2.247
Mof_O 	O 	0.475	0.8993	0.5162	-0.58
Mof_O 	O 	0.7582	0.9532	0.397	-0.411
Mof_O 	O 	0.5972	0.9686	0.3243	-0.481
Mof_O 	O 	0.7369	0.9543	0.5504	-0.487
Mof_O 	O 	0.4083	0.0013	0.4297	-0.658
Mof_O 	O 	0.636	0.0435	0.4429	-0.526
Mof_C 	C 	0.3877	0.912	0.5355	0.495
Mof_C 	C 	0.7028	0.9673	0.3379	0.324
Mof_C 	C 	0.2937	0.8708	0.5213	-0.143
Mof_C 	C 	0.7636	0.9818	0.2815	-0.078
Mof_C 	C 	0.3173	0.8172	0.5136	0.003
Mof_C 	C 	0.1754	0.8898	0.5024	0.038
Mof_C 	C 	0.8807	0.9821	0.2948	-0.032
Mof_C 	C 	0.7006	0.9931	0.2147	0.036
Mof_C 	C 	0.227	0.7818	0.4885	-0.014
Mof_H 	H 	0.3914	0.8047	0.5247	0.028
Mof_C 	C 	0.0842	0.8562	0.4763	-0.091
Mof_H 	H 	0.1612	0.9261	0.5082	0.048
Mof_H 	H 	0.9221	0.9732	0.3391	0.073
Mof_C 	C 	0.9377	0.9955	0.2426	-0.005
Mof_H 	H 	0.6221	0.9919	0.2052	0.01
Mof_C 	C 	0.7562	0.0061	0.1625	-0.137
Mof_C 	C 	0.1089	0.8019	0.4689	-0.022
Mof_C 	C 	0.9625	0.8738	0.4675	0.387
Mof_C 	C 	0.8735	0.0083	0.1767	-0.002
Mof_C 	C 	0.6913	0.0186	0.0899	0.447
Mof_H 	H 	0.0506	0.778	0.4514	0.047
Mof_O 	O 	0.9651	0.9206	0.4625	-0.268
Mof_O 	O 	0.8895	0.8411	0.4537	-0.307
Mof_H 	H 	0.9096	0.0184	0.1417	0.055
Mof_Nd	Nd	0.57944	0.05046	0.94477	2.234
Mof_O 	O 	0.475	0.1007	0.0162	-0.578
Mof_O 	O 	0.7582	0.0468	0.897	-0.411
Mof_O 	O 	0.5972	0.0314	0.8243	-0.48
Mof_O 	O 	0.7369	0.0457	0.0504	-0.484
Mof_O 	O 	0.4083	0.9987	0.9297	-0.655
Mof_O 	O 	0.636	0.9565	0.9429	-0.523
Mof_C 	C 	0.3877	0.088	0.0355	0.497
Mof_C 	C 	0.7028	0.0327	0.8379	0.324
Mof_C 	C 	0.2937	0.1292	0.0213	-0.15
Mof_C 	C 	0.7636	0.0182	0.7815	-0.077
Mof_C 	C 	0.3173	0.1828	0.0136	0.015
Mof_C 	C 	0.1754	0.1102	0.0024	0.052
Mof_C 	C 	0.8807	0.0179	0.7948	-0.035
Mof_C 	C 	0.7006	0.0069	0.7147	0.038
Mof_C 	C 	0.227	0.2182	0.9885	-0.026
Mof_H 	H 	0.3914	0.1953	0.0247	0.024
Mof_C 	C 	0.0842	0.1438	0.9763	-0.105
Mof_H 	H 	0.1612	0.0739	0.0082	0.045
Mof_H 	H 	0.9221	0.0268	0.8391	0.075
Mof_C 	C 	0.9377	0.0045	0.7426	0.003
Mof_H 	H 	0.6221	0.0081	0.7052	0.01
Mof_C 	C 	0.7562	0.9939	0.6625	-0.138
Mof_C 	C 	0.1089	0.1981	0.9689	-0.013
Mof_C 	C 	0.9625	0.1262	0.9675	0.394
Mof_C 	C 	0.8735	0.9917	0.6767	-0.006
Mof_C 	C 	0.6913	0.9814	0.5899	0.449
Mof_H 	H 	0.0506	0.222	0.9514	0.043
Mof_O 	O 	0.9651	0.0794	0.9625	-0.271
Mof_O 	O 	0.8895	0.1589	0.9537	-0.308
Mof_H 	H 	0.9096	0.9816	0.6417	0.056
Mof_Nd	Nd	0.42056	0.05046	0.55523	2.247
Mof_O 	O 	0.525	0.1007	0.4838	-0.58
Mof_O 	O 	0.2418	0.0468	0.603	-0.411
Mof_O 	O 	0.4028	0.0314	0.6757	-0.481
Mof_O 	O 	0.2631	0.0457	0.4496	-0.487
Mof_O 	O 	0.5917	0.9987	0.5703	-0.658
Mof_O 	O 	0.364	0.9565	0.5571	-0.526
Mof_C 	C 	0.6123	0.088	0.4645	0.495
Mof_C 	C 	0.2972	0.0327	0.6621	0.324
Mof_C 	C 	0.7063	0.1292	0.4787	-0.143
Mof_C 	C 	0.2364	0.0182	0.7185	-0.078
Mof_C 	C 	0.6827	0.1828	0.4864	0.003
Mof_C 	C 	0.8246	0.1102	0.4976	0.038
Mof_C 	C 	0.1193	0.0179	0.7052	-0.032
Mof_C 	C 	0.2994	0.0069	0.7853	0.036
Mof_C 	C 	0.773	0.2182	0.5115	-0.014
Mof_H 	H 	0.6086	0.1953	0.4753	0.028
Mof_C 	C 	0.9158	0.1438	0.5237	-0.091
Mof_H 	H 	0.8388	0.0739	0.4918	0.048
Mof_H 	H 	0.0779	0.0268	0.6609	0.073
Mof_C 	C 	0.0623	0.0045	0.7574	-0.005
Mof_H 	H 	0.3779	0.0081	0.7948	0.01
Mof_C 	C 	0.2438	0.9939	0.8375	-0.137
Mof_C 	C 	0.8911	0.1981	0.5311	-0.022
Mof_C 	C 	0.0375	0.1262	0.5325	0.387
Mof_C 	C 	0.1265	0.9917	0.8233	-0.002
Mof_C 	C 	0.3087	0.9814	0.9101	0.447
Mof_H 	H 	0.9494	0.222	0.5486	0.047
Mof_O 	O 	0.0349	0.0794	0.5375	-0.268
Mof_O 	O 	0.1105	0.1589	0.5463	-0.307
Mof_H 	H 	0.0904	0.9816	0.8583	0.055
_end
