data_functionalizedCrystal
_audit_creation_method	'EQeq! by Chris Wilmer'
_symmetry_space_group_name_H-M	'P1'
_symmetry_Int_Tables_number	1
_symmetry_cell_setting	triclinic
loop_
_symmetry_equiv_pos_as_xyz
  x,y,z
_cell_length_a	11.3273
_cell_length_b	11.5744
_cell_length_c	16.2434
_cell_angle_alpha	105.505
_cell_angle_beta	110.406
_cell_angle_gamma	90
loop_
_atom_site_label
_atom_site_type_symbol
_atom_site_fract_x
_atom_site_fract_y
_atom_site_fract_z
_atom_site_charge
Mof_V 	V 	0.76421	0.06031	0.71038	1.718
Mof_V 	V 	0.05383	0.43969	0.28962	1.717
Mof_V 	V 	0.94617	0.56031	0.71038	1.745
Mof_V 	V 	0.80301	0.81828	0.78482	1.738
Mof_V 	V 	0.19699	0.18172	0.21518	1.726
Mof_V 	V 	0.98181	0.31828	0.78482	1.758
Mof_V 	V 	0.23579	0.93969	0.28962	1.743
Mof_V 	V 	0.01819	0.68172	0.21518	1.701
Mof_Cu	Cu	-0	0	-0	0.744
Mof_Cu	Cu	-0	0.5	-0	0.764
Mof_Cu	Cu	-4.14497e-17	0.5	0.5	0.863
Mof_Cu	Cu	0.5	0	0.5	0.873
Mof_H 	H 	0.6876	0.8082	0.5558	-0.009
Mof_H 	H 	0.2113	0.8096	0.7718	0.029
Mof_H 	H 	0.3186	0.5542	0.4098	0.046
Mof_H 	H 	0.2354	0.683	0.1264	-0.105
Mof_H 	H 	0.7293	0.364	0.4166	0.015
Mof_H 	H 	0.4395	0.6904	0.2282	0.032
Mof_H 	H 	0.8068	0.6698	0.938	0.004
Mof_H 	H 	0.929	0.7509	0.6004	-0.021
Mof_H 	H 	0.3127	0.136	0.5834	0.017
Mof_H 	H 	0.5045	0.1387	0.3602	-0.053
Mof_H 	H 	0.7813	0.8604	0.3114	0.029
Mof_H 	H 	0.3421	0.3513	0.7424	0.037
Mof_H 	H 	0.4003	0.8513	0.7424	0.046
Mof_H 	H 	0.1443	0.3613	0.6398	-0.076
Mof_H 	H 	0.071	0.2491	0.3996	-0.035
Mof_H 	H 	0.3934	0.3257	0.1596	-0
Mof_H 	H 	0.1932	0.3302	0.062	-0.056
Mof_H 	H 	0.7662	0.8257	0.1596	-0.005
Mof_H 	H 	0.6873	0.864	0.4166	0.007
Mof_H 	H 	0.6066	0.6743	0.8404	0.017
Mof_H 	H 	0.7887	0.1904	0.2282	0.031
Mof_H 	H 	0.5301	0.3604	0.3114	0.024
Mof_H 	H 	0.4699	0.6396	0.6886	0.03
Mof_H 	H 	0.3099	0.3858	0.431	0.048
Mof_H 	H 	0.1211	0.8858	0.431	0.021
Mof_H 	H 	0.6579	0.6487	0.2576	0.032
Mof_H 	H 	0.9088	0.9458	0.5902	0.021
Mof_H 	H 	0.6901	0.6142	0.569	0.048
Mof_H 	H 	0.2707	0.636	0.5834	0.01
Mof_H 	H 	0.0912	0.0542	0.4098	0.072
Mof_H 	H 	0.5997	0.1487	0.2576	0.023
Mof_H 	H 	0.1318	0.6918	0.4442	-0.002
Mof_H 	H 	0.891	0.183	0.1264	-0.069
Mof_H 	H 	0.8557	0.6387	0.3602	-0.025
Mof_H 	H 	0.3124	0.1918	0.4442	-0.026
Mof_H 	H 	0.3286	0.7491	0.3996	-0.027
Mof_H 	H 	0.1312	0.1698	0.938	0
Mof_H 	H 	0.2187	0.1396	0.6886	0.027
Mof_H 	H 	0.5605	0.3096	0.7718	0.028
Mof_H 	H 	0.109	0.817	0.8736	-0.094
Mof_H 	H 	0.4955	0.8613	0.6398	-0.052
Mof_H 	H 	0.2338	0.1743	0.8404	0.022
Mof_H 	H 	0.7646	0.317	0.8736	-0.07
Mof_H 	H 	0.8682	0.3082	0.5558	-0.033
Mof_H 	H 	0.8789	0.1142	0.569	0.072
Mof_H 	H 	0.8688	0.8302	0.062	-0.04
Mof_H 	H 	0.6714	0.2509	0.6004	-0.029
Mof_H 	H 	0.6814	0.4458	0.5902	0.047
Mof_C 	C 	0.08503	0.7439	0.47406	-0.027
Mof_C 	C 	0.27359	0.0799	0.67858	-0.162
Mof_C 	C 	0.38098	0.9112	0.71096	-0.139
Mof_C 	C 	0.56913	0.5064	0.27266	0.014
Mof_C 	C 	0.49827	0.4385	0.50614	0.041
Mof_C 	C 	0.14734	0.0954	0.90348	-0.026
Mof_C 	C 	0.71477	0.4224	0.38374	0.033
Mof_C 	C 	0.40286	0.7222	0.43572	0.06
Mof_C 	C 	0.91497	0.2561	0.52594	0.099
Mof_C 	C 	0.03286	0.2222	0.43572	0.036
Mof_C 	C 	0.72641	0.9201	0.32142	-0.039
Mof_C 	C 	0.38903	0.2439	0.47406	0.037
Mof_C 	C 	0.79138	0.901	0.15456	-0.068
Mof_C 	C 	0.43087	0.4936	0.72734	0.026
Mof_C 	C 	0.59714	0.2778	0.56428	0.061
Mof_C 	C 	0.56359	0.0829	0.35138	-0.005
Mof_C 	C 	0.44145	0.5086	0.2069	0.033
Mof_C 	C 	0.73181	0.3906	0.86602	0.041
Mof_C 	C 	0.78779	0.5829	0.35138	0.014
Mof_C 	C 	0.39063	0.6148	0.19486	-0.145
Mof_C 	C 	0.80423	0.1148	0.19486	-0.118
Mof_C 	C 	0.61097	0.7561	0.52594	0.038
Mof_C 	C 	0.40499	0.5799	0.67858	-0.104
Mof_C 	C 	0.60937	0.3852	0.80514	-0.13
Mof_C 	C 	0.50173	0.5615	0.49386	0.04
Mof_C 	C 	0.43641	0.9171	0.64862	0.038
Mof_C 	C 	0.24386	0.4046	0.09652	0.01
Mof_C 	C 	0.23455	0.9914	0.7931	0.082
Mof_C 	C 	0.96714	0.7778	0.56428	0.087
Mof_C 	C 	0.38668	0.36	0.46496	-0.131
Mof_C 	C 	0.61332	0.64	0.53504	-0.129
Mof_C 	C 	0.60396	0.3951	0.55832	-0.114
Mof_C 	C 	0.86579	0.1094	0.13398	0.025
Mof_C 	C 	0.66897	0.9224	0.38374	0.078
Mof_C 	C 	0.85266	0.9046	0.09652	0.059
Mof_C 	C 	0.29647	0.9936	0.72734	0.071
Mof_C 	C 	0.99213	0.0615	0.49386	0.228
Mof_C 	C 	0.33103	0.0776	0.61626	-0.01
Mof_C 	C 	0.21221	0.4171	0.64862	0.019
Mof_C 	C 	0.07828	0.86	0.46496	-0.043
Mof_C 	C 	0.95436	0.8951	0.55832	0.052
Mof_C 	C 	0.92172	0.14	0.53504	-0.216
Mof_C 	C 	0.75614	0.5954	0.90348	0.021
Mof_C 	C 	0.00787	0.9385	0.50614	-0.152
Mof_C 	C 	0.26819	0.6094	0.13398	0.031
Mof_C 	C 	0.28523	0.5776	0.61626	0.034
Mof_C 	C 	0.59501	0.4201	0.32142	-0.097
Mof_C 	C 	0.36318	0.401	0.15456	-0.14
Mof_C 	C 	0.55855	0.4914	0.7931	0.034
Mof_C 	C 	0.67002	0.5888	0.28904	-0.121
Mof_C 	C 	0.76545	0.0086	0.2069	-0.017
Mof_C 	C 	0.70353	0.0064	0.27266	-0.031
Mof_C 	C 	0.20862	0.099	0.84544	-0.188
Mof_C 	C 	0.19577	0.8852	0.80514	-0.153
Mof_C 	C 	0.32998	0.4112	0.71096	-0.134
Mof_C 	C 	0.13421	0.8906	0.86602	0.048
Mof_C 	C 	0.61902	0.0888	0.28904	-0.117
Mof_C 	C 	0.04564	0.1049	0.44168	-0.27
Mof_C 	C 	0.63682	0.599	0.84544	-0.121
Mof_C 	C 	0.39604	0.6049	0.44168	-0.113
Mof_N 	N 	0.10835	0.9933	0.9149	-0.191
Mof_N 	N 	0.19345	0.5067	0.0851	-0.259
Mof_N 	N 	0.49211	0.2005	0.52202	-0.205
Mof_N 	N 	0.18772	0.4978	0.59924	-0.221
Mof_N 	N 	0.02991	0.7005	0.52202	-0.233
Mof_N 	N 	0.58848	0.0022	0.40076	-0.243
Mof_N 	N 	0.97009	0.2995	0.47798	-0.161
Mof_N 	N 	0.81228	0.5022	0.40076	-0.192
Mof_N 	N 	0.41152	0.9978	0.59924	-0.173
Mof_N 	N 	0.50789	0.7995	0.47798	-0.191
Mof_N 	N 	0.89165	0.0067	0.0851	-0.257
Mof_N 	N 	0.80655	0.4933	0.9149	-0.204
Mof_O 	O 	0.88501	0.1762	0.73442	-0.863
Mof_O 	O 	0.9258	0.5269	0.5994	-0.67
Mof_O 	O 	0.12301	0.137	0.10182	-0.817
Mof_O 	O 	0.11499	0.8238	0.26558	-0.889
Mof_O 	O 	0.02119	0.363	0.89818	-0.774
Mof_O 	O 	0.1022	0.5721	0.267	-0.903
Mof_O 	O 	0.0742	0.4731	0.4006	-0.723
Mof_O 	O 	0.87699	0.863	0.89818	-0.683
Mof_O 	O 	0.8978	0.4279	0.733	-0.861
Mof_O 	O 	0.15059	0.3238	0.26558	-0.889
Mof_O 	O 	0.8352	0.9279	0.733	-0.834
Mof_O 	O 	0.97881	0.637	0.10182	-0.71
Mof_O 	O 	0.6736	0.0269	0.5994	-0.731
Mof_O 	O 	0.1648	0.0721	0.267	-0.925
Mof_O 	O 	0.84941	0.6762	0.73442	-0.858
Mof_O 	O 	0.3264	0.9731	0.4006	-0.668
_end
