data_functionalizedCrystal
_audit_creation_method	'EQeq! by Chris Wilmer'
_symmetry_space_group_name_H-M	'P1'
_symmetry_Int_Tables_number	1
_symmetry_cell_setting	triclinic
loop_
_symmetry_equiv_pos_as_xyz
  x,y,z
_cell_length_a	26.991
_cell_length_b	26.991
_cell_length_c	26.991
_cell_angle_alpha	90
_cell_angle_beta	90
_cell_angle_gamma	90
loop_
_atom_site_label
_atom_site_type_symbol
_atom_site_fract_x
_atom_site_fract_y
_atom_site_fract_z
_atom_site_charge
Mof_O 	O 	0.4477	0.05012	0.14885	-0.427
Mof_O 	O 	0.44846	0.04949	0.23158	-0.431
Mof_C 	C 	0.29494	0.1461	0.19809	0.029
Mof_C 	C 	0.43074	0.06227	0.1908	0.364
Mof_C 	C 	0.36036	0.10734	0.14953	0.028
Mof_H 	H 	0.3741	0.099	0.1182	0.021
Mof_C 	C 	0.31973	0.1302	0.24134	-0.104
Mof_H 	H 	0.3059	0.1374	0.2729	0.067
Mof_C 	C 	0.31581	0.13446	0.15208	-0.103
Mof_H 	H 	0.2999	0.1449	0.1225	0.052
Mof_C 	C 	0.36396	0.10428	0.23833	0.032
Mof_H 	H 	0.3805	0.0944	0.2678	0.031
Mof_C 	C 	0.21687	0.17033	0.24212	-0.105
Mof_H 	H 	0.2215	0.1431	0.2639	0.061
Mof_C 	C 	0.38425	0.09275	0.19261	-0.117
Mof_C 	C 	0.24977	0.17751	0.20261	0.036
Mof_O 	O 	0.5523	0.94988	0.14885	-0.383
Mof_O 	O 	0.55154	0.95051	0.23158	-0.388
Mof_C 	C 	0.70506	0.8539	0.19809	0.03
Mof_C 	C 	0.56926	0.93773	0.1908	0.36
Mof_C 	C 	0.63964	0.89266	0.14953	0.026
Mof_H 	H 	0.6259	0.901	0.1182	0.037
Mof_C 	C 	0.68027	0.8698	0.24134	-0.09
Mof_H 	H 	0.6941	0.8626	0.2729	0.068
Mof_C 	C 	0.68419	0.86554	0.15208	-0.089
Mof_H 	H 	0.7001	0.8551	0.1225	0.06
Mof_C 	C 	0.63604	0.89572	0.23833	0.029
Mof_H 	H 	0.6195	0.9056	0.2678	0.045
Mof_C 	C 	0.78313	0.82967	0.24212	-0.109
Mof_H 	H 	0.7785	0.8569	0.2639	0.073
Mof_C 	C 	0.61575	0.90725	0.19261	-0.095
Mof_C 	C 	0.75023	0.82249	0.20261	0.05
Mof_O 	O 	0.5523	0.05012	0.85115	-0.413
Mof_O 	O 	0.55154	0.04949	0.76842	-0.429
Mof_C 	C 	0.70506	0.1461	0.80191	0.032
Mof_C 	C 	0.56926	0.06227	0.8092	0.362
Mof_C 	C 	0.63964	0.10734	0.85047	0.029
Mof_H 	H 	0.6259	0.099	0.8818	0.037
Mof_C 	C 	0.68027	0.1302	0.75866	-0.101
Mof_H 	H 	0.6941	0.1374	0.7271	0.067
Mof_C 	C 	0.68419	0.13446	0.84792	-0.097
Mof_H 	H 	0.7001	0.1449	0.8775	0.069
Mof_C 	C 	0.63604	0.10428	0.76167	0.031
Mof_H 	H 	0.6195	0.0944	0.7322	0.032
Mof_C 	C 	0.78313	0.17033	0.75788	-0.108
Mof_H 	H 	0.7785	0.1431	0.7361	0.066
Mof_C 	C 	0.61575	0.09275	0.80739	-0.11
Mof_C 	C 	0.75023	0.17751	0.79739	0.047
Mof_O 	O 	0.4477	0.94988	0.85115	-0.371
Mof_O 	O 	0.44846	0.95051	0.76842	-0.387
Mof_C 	C 	0.29494	0.8539	0.80191	0.03
Mof_C 	C 	0.43074	0.93773	0.8092	0.358
Mof_C 	C 	0.36036	0.89266	0.85047	0.025
Mof_H 	H 	0.3741	0.901	0.8818	0.051
Mof_C 	C 	0.31973	0.8698	0.75866	-0.089
Mof_H 	H 	0.3059	0.8626	0.7271	0.068
Mof_C 	C 	0.31581	0.86554	0.84792	-0.085
Mof_H 	H 	0.2999	0.8551	0.8775	0.071
Mof_C 	C 	0.36396	0.89572	0.76167	0.027
Mof_H 	H 	0.3805	0.9056	0.7322	0.046
Mof_C 	C 	0.21687	0.82967	0.75788	-0.108
Mof_H 	H 	0.2215	0.8569	0.7361	0.073
Mof_C 	C 	0.38425	0.90725	0.80739	-0.09
Mof_C 	C 	0.24977	0.82249	0.79739	0.052
Mof_O 	O 	0.14885	0.4477	0.05012	-0.426
Mof_O 	O 	0.23158	0.44846	0.04949	-0.43
Mof_C 	C 	0.19809	0.29494	0.1461	0.03
Mof_C 	C 	0.1908	0.43074	0.06227	0.364
Mof_C 	C 	0.14953	0.36036	0.10734	0.028
Mof_H 	H 	0.1182	0.3741	0.099	0.021
Mof_C 	C 	0.24134	0.31973	0.1302	-0.104
Mof_H 	H 	0.2729	0.3059	0.1374	0.067
Mof_C 	C 	0.15208	0.31581	0.13446	-0.103
Mof_H 	H 	0.1225	0.2999	0.1449	0.052
Mof_C 	C 	0.23833	0.36396	0.10428	0.032
Mof_H 	H 	0.2678	0.3805	0.0944	0.031
Mof_C 	C 	0.24212	0.21687	0.17033	-0.105
Mof_H 	H 	0.2639	0.2215	0.1431	0.061
Mof_C 	C 	0.19261	0.38425	0.09275	-0.117
Mof_C 	C 	0.20261	0.24977	0.17751	0.036
Mof_O 	O 	0.14885	0.5523	0.94988	-0.383
Mof_O 	O 	0.23158	0.55154	0.95051	-0.388
Mof_C 	C 	0.19809	0.70506	0.8539	0.03
Mof_C 	C 	0.1908	0.56926	0.93773	0.36
Mof_C 	C 	0.14953	0.63964	0.89266	0.026
Mof_H 	H 	0.1182	0.6259	0.901	0.037
Mof_C 	C 	0.24134	0.68027	0.8698	-0.09
Mof_H 	H 	0.2729	0.6941	0.8626	0.068
Mof_C 	C 	0.15208	0.68419	0.86554	-0.089
Mof_H 	H 	0.1225	0.7001	0.8551	0.06
Mof_C 	C 	0.23833	0.63604	0.89572	0.029
Mof_H 	H 	0.2678	0.6195	0.9056	0.045
Mof_C 	C 	0.24212	0.78313	0.82967	-0.109
Mof_H 	H 	0.2639	0.7785	0.8569	0.073
Mof_C 	C 	0.19261	0.61575	0.90725	-0.095
Mof_C 	C 	0.20261	0.75023	0.82249	0.05
Mof_O 	O 	0.85115	0.5523	0.05012	-0.413
Mof_O 	O 	0.76842	0.55154	0.04949	-0.429
Mof_C 	C 	0.80191	0.70506	0.1461	0.032
Mof_C 	C 	0.8092	0.56926	0.06227	0.362
Mof_C 	C 	0.85047	0.63964	0.10734	0.029
Mof_H 	H 	0.8818	0.6259	0.099	0.037
Mof_C 	C 	0.75866	0.68027	0.1302	-0.101
Mof_H 	H 	0.7271	0.6941	0.1374	0.067
Mof_C 	C 	0.84792	0.68419	0.13446	-0.097
Mof_H 	H 	0.8775	0.7001	0.1449	0.069
Mof_C 	C 	0.76167	0.63604	0.10428	0.031
Mof_H 	H 	0.7322	0.6195	0.0944	0.032
Mof_C 	C 	0.75788	0.78313	0.17033	-0.108
Mof_H 	H 	0.7361	0.7785	0.1431	0.066
Mof_C 	C 	0.80739	0.61575	0.09275	-0.11
Mof_C 	C 	0.79739	0.75023	0.17751	0.047
Mof_O 	O 	0.85115	0.4477	0.94988	-0.371
Mof_O 	O 	0.76842	0.44846	0.95051	-0.387
Mof_C 	C 	0.80191	0.29494	0.8539	0.03
Mof_C 	C 	0.8092	0.43074	0.93773	0.358
Mof_C 	C 	0.85047	0.36036	0.89266	0.025
Mof_H 	H 	0.8818	0.3741	0.901	0.051
Mof_C 	C 	0.75866	0.31973	0.8698	-0.089
Mof_H 	H 	0.7271	0.3059	0.8626	0.068
Mof_C 	C 	0.84792	0.31581	0.86554	-0.085
Mof_H 	H 	0.8775	0.2999	0.8551	0.071
Mof_C 	C 	0.76167	0.36396	0.89572	0.027
Mof_H 	H 	0.7322	0.3805	0.9056	0.046
Mof_C 	C 	0.75788	0.21687	0.82967	-0.108
Mof_H 	H 	0.7361	0.2215	0.8569	0.073
Mof_C 	C 	0.80739	0.38425	0.90725	-0.09
Mof_C 	C 	0.79739	0.24977	0.82249	0.052
Mof_O 	O 	0.05012	0.14885	0.4477	-0.426
Mof_O 	O 	0.04949	0.23158	0.44846	-0.43
Mof_C 	C 	0.1461	0.19809	0.29494	0.03
Mof_C 	C 	0.06227	0.1908	0.43074	0.364
Mof_C 	C 	0.10734	0.14953	0.36036	0.028
Mof_H 	H 	0.099	0.1182	0.3741	0.021
Mof_C 	C 	0.1302	0.24134	0.31973	-0.104
Mof_H 	H 	0.1374	0.2729	0.3059	0.067
Mof_C 	C 	0.13446	0.15208	0.31581	-0.103
Mof_H 	H 	0.1449	0.1225	0.2999	0.052
Mof_C 	C 	0.10428	0.23833	0.36396	0.032
Mof_H 	H 	0.0944	0.2678	0.3805	0.031
Mof_C 	C 	0.17033	0.24212	0.21687	-0.105
Mof_H 	H 	0.1431	0.2639	0.2215	0.061
Mof_C 	C 	0.09275	0.19261	0.38425	-0.117
Mof_C 	C 	0.17751	0.20261	0.24977	0.036
Mof_O 	O 	0.94988	0.14885	0.5523	-0.383
Mof_O 	O 	0.95051	0.23158	0.55154	-0.388
Mof_C 	C 	0.8539	0.19809	0.70506	0.03
Mof_C 	C 	0.93773	0.1908	0.56926	0.36
Mof_C 	C 	0.89266	0.14953	0.63964	0.026
Mof_H 	H 	0.901	0.1182	0.6259	0.037
Mof_C 	C 	0.8698	0.24134	0.68027	-0.09
Mof_H 	H 	0.8626	0.2729	0.6941	0.068
Mof_C 	C 	0.86554	0.15208	0.68419	-0.089
Mof_H 	H 	0.8551	0.1225	0.7001	0.06
Mof_C 	C 	0.89572	0.23833	0.63604	0.029
Mof_H 	H 	0.9056	0.2678	0.6195	0.045
Mof_C 	C 	0.82967	0.24212	0.78313	-0.109
Mof_H 	H 	0.8569	0.2639	0.7785	0.073
Mof_C 	C 	0.90725	0.19261	0.61575	-0.095
Mof_C 	C 	0.82249	0.20261	0.75023	0.05
Mof_O 	O 	0.05012	0.85115	0.5523	-0.413
Mof_O 	O 	0.04949	0.76842	0.55154	-0.429
Mof_C 	C 	0.1461	0.80191	0.70506	0.032
Mof_C 	C 	0.06227	0.8092	0.56926	0.362
Mof_C 	C 	0.10734	0.85047	0.63964	0.029
Mof_H 	H 	0.099	0.8818	0.6259	0.037
Mof_C 	C 	0.1302	0.75866	0.68027	-0.101
Mof_H 	H 	0.1374	0.7271	0.6941	0.067
Mof_C 	C 	0.13446	0.84792	0.68419	-0.097
Mof_H 	H 	0.1449	0.8775	0.7001	0.069
Mof_C 	C 	0.10428	0.76167	0.63604	0.031
Mof_H 	H 	0.0944	0.7322	0.6195	0.032
Mof_C 	C 	0.17033	0.75788	0.78313	-0.108
Mof_H 	H 	0.1431	0.7361	0.7785	0.066
Mof_C 	C 	0.09275	0.80739	0.61575	-0.11
Mof_C 	C 	0.17751	0.79739	0.75023	0.047
Mof_O 	O 	0.94988	0.85115	0.4477	-0.371
Mof_O 	O 	0.95051	0.76842	0.44846	-0.387
Mof_C 	C 	0.8539	0.80191	0.29494	0.03
Mof_C 	C 	0.93773	0.8092	0.43074	0.358
Mof_C 	C 	0.89266	0.85047	0.36036	0.025
Mof_H 	H 	0.901	0.8818	0.3741	0.051
Mof_C 	C 	0.8698	0.75866	0.31973	-0.089
Mof_H 	H 	0.8626	0.7271	0.3059	0.068
Mof_C 	C 	0.86554	0.84792	0.31581	-0.085
Mof_H 	H 	0.8551	0.8775	0.2999	0.071
Mof_C 	C 	0.89572	0.76167	0.36396	0.027
Mof_H 	H 	0.9056	0.7322	0.3805	0.046
Mof_C 	C 	0.82967	0.75788	0.21687	-0.108
Mof_H 	H 	0.8569	0.7361	0.2215	0.073
Mof_C 	C 	0.90725	0.80739	0.38425	-0.09
Mof_C 	C 	0.82249	0.79739	0.24977	0.052
Mof_O 	O 	0.5523	0.94988	0.85115	-0.37
Mof_O 	O 	0.55154	0.95051	0.76842	-0.387
Mof_C 	C 	0.70506	0.8539	0.80191	0.031
Mof_C 	C 	0.56926	0.93773	0.8092	0.358
Mof_C 	C 	0.63964	0.89266	0.85047	0.026
Mof_H 	H 	0.6259	0.901	0.8818	0.052
Mof_C 	C 	0.68027	0.8698	0.75866	-0.088
Mof_H 	H 	0.6941	0.8626	0.7271	0.068
Mof_C 	C 	0.68419	0.86554	0.84792	-0.084
Mof_H 	H 	0.7001	0.8551	0.8775	0.074
Mof_C 	C 	0.63604	0.89572	0.76167	0.027
Mof_H 	H 	0.6195	0.9056	0.7322	0.046
Mof_C 	C 	0.78313	0.82967	0.75788	-0.11
Mof_H 	H 	0.7785	0.8569	0.7361	0.076
Mof_C 	C 	0.61575	0.90725	0.80739	-0.089
Mof_C 	C 	0.75023	0.82249	0.79739	0.056
Mof_O 	O 	0.4477	0.05012	0.85115	-0.413
Mof_O 	O 	0.44846	0.04949	0.76842	-0.429
Mof_C 	C 	0.29494	0.1461	0.80191	0.031
Mof_C 	C 	0.43074	0.06227	0.8092	0.362
Mof_C 	C 	0.36036	0.10734	0.85047	0.028
Mof_H 	H 	0.3741	0.099	0.8818	0.036
Mof_C 	C 	0.31973	0.1302	0.75866	-0.102
Mof_H 	H 	0.3059	0.1374	0.7271	0.066
Mof_C 	C 	0.31581	0.13446	0.84792	-0.098
Mof_H 	H 	0.2999	0.1449	0.8775	0.066
Mof_C 	C 	0.36396	0.10428	0.76167	0.03
Mof_H 	H 	0.3805	0.0944	0.7322	0.032
Mof_C 	C 	0.21687	0.17033	0.75788	-0.106
Mof_H 	H 	0.2215	0.1431	0.7361	0.063
Mof_C 	C 	0.38425	0.09275	0.80739	-0.111
Mof_C 	C 	0.24977	0.17751	0.79739	0.043
Mof_O 	O 	0.4477	0.94988	0.14885	-0.383
Mof_O 	O 	0.44846	0.95051	0.23158	-0.388
Mof_C 	C 	0.29494	0.8539	0.19809	0.03
Mof_C 	C 	0.43074	0.93773	0.1908	0.36
Mof_C 	C 	0.36036	0.89266	0.14953	0.025
Mof_H 	H 	0.3741	0.901	0.1182	0.036
Mof_C 	C 	0.31973	0.8698	0.24134	-0.091
Mof_H 	H 	0.3059	0.8626	0.2729	0.068
Mof_C 	C 	0.31581	0.86554	0.15208	-0.09
Mof_H 	H 	0.2999	0.8551	0.1225	0.057
Mof_C 	C 	0.36396	0.89572	0.23833	0.029
Mof_H 	H 	0.3805	0.9056	0.2678	0.045
Mof_C 	C 	0.21687	0.82967	0.24212	-0.107
Mof_H 	H 	0.2215	0.8569	0.2639	0.07
Mof_C 	C 	0.38425	0.90725	0.19261	-0.096
Mof_C 	C 	0.24977	0.82249	0.20261	0.045
Mof_O 	O 	0.5523	0.05012	0.14885	-0.425
Mof_O 	O 	0.55154	0.04949	0.23158	-0.43
Mof_C 	C 	0.70506	0.1461	0.19809	0.031
Mof_C 	C 	0.56926	0.06227	0.1908	0.364
Mof_C 	C 	0.63964	0.10734	0.14953	0.029
Mof_H 	H 	0.6259	0.099	0.1182	0.022
Mof_C 	C 	0.68027	0.1302	0.24134	-0.104
Mof_H 	H 	0.6941	0.1374	0.2729	0.067
Mof_C 	C 	0.68419	0.13446	0.15208	-0.102
Mof_H 	H 	0.7001	0.1449	0.1225	0.055
Mof_C 	C 	0.63604	0.10428	0.23833	0.032
Mof_H 	H 	0.6195	0.0944	0.2678	0.031
Mof_C 	C 	0.78313	0.17033	0.24212	-0.107
Mof_H 	H 	0.7785	0.1431	0.2639	0.064
Mof_C 	C 	0.61575	0.09275	0.19261	-0.116
Mof_C 	C 	0.75023	0.17751	0.20261	0.041
Mof_O 	O 	0.85115	0.5523	0.94988	-0.37
Mof_O 	O 	0.76842	0.55154	0.95051	-0.387
Mof_C 	C 	0.80191	0.70506	0.8539	0.031
Mof_C 	C 	0.8092	0.56926	0.93773	0.358
Mof_C 	C 	0.85047	0.63964	0.89266	0.026
Mof_H 	H 	0.8818	0.6259	0.901	0.052
Mof_C 	C 	0.75866	0.68027	0.8698	-0.088
Mof_H 	H 	0.7271	0.6941	0.8626	0.068
Mof_C 	C 	0.84792	0.68419	0.86554	-0.084
Mof_H 	H 	0.8775	0.7001	0.8551	0.074
Mof_C 	C 	0.76167	0.63604	0.89572	0.027
Mof_H 	H 	0.7322	0.6195	0.9056	0.046
Mof_C 	C 	0.75788	0.78313	0.82967	-0.11
Mof_H 	H 	0.7361	0.7785	0.8569	0.076
Mof_C 	C 	0.80739	0.61575	0.90725	-0.089
Mof_C 	C 	0.79739	0.75023	0.82249	0.056
Mof_O 	O 	0.85115	0.4477	0.05012	-0.413
Mof_O 	O 	0.76842	0.44846	0.04949	-0.429
Mof_C 	C 	0.80191	0.29494	0.1461	0.031
Mof_C 	C 	0.8092	0.43074	0.06227	0.362
Mof_C 	C 	0.85047	0.36036	0.10734	0.028
Mof_H 	H 	0.8818	0.3741	0.099	0.036
Mof_C 	C 	0.75866	0.31973	0.1302	-0.102
Mof_H 	H 	0.7271	0.3059	0.1374	0.066
Mof_C 	C 	0.84792	0.31581	0.13446	-0.098
Mof_H 	H 	0.8775	0.2999	0.1449	0.066
Mof_C 	C 	0.76167	0.36396	0.10428	0.03
Mof_H 	H 	0.7322	0.3805	0.0944	0.032
Mof_C 	C 	0.75788	0.21687	0.17033	-0.106
Mof_H 	H 	0.7361	0.2215	0.1431	0.063
Mof_C 	C 	0.80739	0.38425	0.09275	-0.111
Mof_C 	C 	0.79739	0.24977	0.17751	0.043
Mof_O 	O 	0.14885	0.4477	0.94988	-0.383
Mof_O 	O 	0.23158	0.44846	0.95051	-0.388
Mof_C 	C 	0.19809	0.29494	0.8539	0.03
Mof_C 	C 	0.1908	0.43074	0.93773	0.36
Mof_C 	C 	0.14953	0.36036	0.89266	0.025
Mof_H 	H 	0.1182	0.3741	0.901	0.036
Mof_C 	C 	0.24134	0.31973	0.8698	-0.091
Mof_H 	H 	0.2729	0.3059	0.8626	0.068
Mof_C 	C 	0.15208	0.31581	0.86554	-0.09
Mof_H 	H 	0.1225	0.2999	0.8551	0.057
Mof_C 	C 	0.23833	0.36396	0.89572	0.029
Mof_H 	H 	0.2678	0.3805	0.9056	0.045
Mof_C 	C 	0.24212	0.21687	0.82967	-0.107
Mof_H 	H 	0.2639	0.2215	0.8569	0.07
Mof_C 	C 	0.19261	0.38425	0.90725	-0.096
Mof_C 	C 	0.20261	0.24977	0.82249	0.045
Mof_O 	O 	0.14885	0.5523	0.05012	-0.425
Mof_O 	O 	0.23158	0.55154	0.04949	-0.43
Mof_C 	C 	0.19809	0.70506	0.1461	0.031
Mof_C 	C 	0.1908	0.56926	0.06227	0.364
Mof_C 	C 	0.14953	0.63964	0.10734	0.029
Mof_H 	H 	0.1182	0.6259	0.099	0.022
Mof_C 	C 	0.24134	0.68027	0.1302	-0.104
Mof_H 	H 	0.2729	0.6941	0.1374	0.067
Mof_C 	C 	0.15208	0.68419	0.13446	-0.102
Mof_H 	H 	0.1225	0.7001	0.1449	0.055
Mof_C 	C 	0.23833	0.63604	0.10428	0.032
Mof_H 	H 	0.2678	0.6195	0.0944	0.031
Mof_C 	C 	0.24212	0.78313	0.17033	-0.107
Mof_H 	H 	0.2639	0.7785	0.1431	0.064
Mof_C 	C 	0.19261	0.61575	0.09275	-0.116
Mof_C 	C 	0.20261	0.75023	0.17751	0.041
Mof_O 	O 	0.94988	0.85115	0.5523	-0.37
Mof_O 	O 	0.95051	0.76842	0.55154	-0.387
Mof_C 	C 	0.8539	0.80191	0.70506	0.031
Mof_C 	C 	0.93773	0.8092	0.56926	0.358
Mof_C 	C 	0.89266	0.85047	0.63964	0.026
Mof_H 	H 	0.901	0.8818	0.6259	0.052
Mof_C 	C 	0.8698	0.75866	0.68027	-0.088
Mof_H 	H 	0.8626	0.7271	0.6941	0.068
Mof_C 	C 	0.86554	0.84792	0.68419	-0.084
Mof_H 	H 	0.8551	0.8775	0.7001	0.074
Mof_C 	C 	0.89572	0.76167	0.63604	0.027
Mof_H 	H 	0.9056	0.7322	0.6195	0.046
Mof_C 	C 	0.82967	0.75788	0.78313	-0.11
Mof_H 	H 	0.8569	0.7361	0.7785	0.076
Mof_C 	C 	0.90725	0.80739	0.61575	-0.089
Mof_C 	C 	0.82249	0.79739	0.75023	0.056
Mof_O 	O 	0.05012	0.85115	0.4477	-0.413
Mof_O 	O 	0.04949	0.76842	0.44846	-0.429
Mof_C 	C 	0.1461	0.80191	0.29494	0.031
Mof_C 	C 	0.06227	0.8092	0.43074	0.362
Mof_C 	C 	0.10734	0.85047	0.36036	0.028
Mof_H 	H 	0.099	0.8818	0.3741	0.036
Mof_C 	C 	0.1302	0.75866	0.31973	-0.102
Mof_H 	H 	0.1374	0.7271	0.3059	0.066
Mof_C 	C 	0.13446	0.84792	0.31581	-0.098
Mof_H 	H 	0.1449	0.8775	0.2999	0.066
Mof_C 	C 	0.10428	0.76167	0.36396	0.03
Mof_H 	H 	0.0944	0.7322	0.3805	0.032
Mof_C 	C 	0.17033	0.75788	0.21687	-0.106
Mof_H 	H 	0.1431	0.7361	0.2215	0.063
Mof_C 	C 	0.09275	0.80739	0.38425	-0.111
Mof_C 	C 	0.17751	0.79739	0.24977	0.043
Mof_O 	O 	0.94988	0.14885	0.4477	-0.383
Mof_O 	O 	0.95051	0.23158	0.44846	-0.388
Mof_C 	C 	0.8539	0.19809	0.29494	0.03
Mof_C 	C 	0.93773	0.1908	0.43074	0.36
Mof_C 	C 	0.89266	0.14953	0.36036	0.025
Mof_H 	H 	0.901	0.1182	0.3741	0.036
Mof_C 	C 	0.8698	0.24134	0.31973	-0.091
Mof_H 	H 	0.8626	0.2729	0.3059	0.068
Mof_C 	C 	0.86554	0.15208	0.31581	-0.09
Mof_H 	H 	0.8551	0.1225	0.2999	0.057
Mof_C 	C 	0.89572	0.23833	0.36396	0.029
Mof_H 	H 	0.9056	0.2678	0.3805	0.045
Mof_C 	C 	0.82967	0.24212	0.21687	-0.107
Mof_H 	H 	0.8569	0.2639	0.2215	0.07
Mof_C 	C 	0.90725	0.19261	0.38425	-0.096
Mof_C 	C 	0.82249	0.20261	0.24977	0.045
Mof_O 	O 	0.05012	0.14885	0.5523	-0.425
Mof_O 	O 	0.04949	0.23158	0.55154	-0.43
Mof_C 	C 	0.1461	0.19809	0.70506	0.031
Mof_C 	C 	0.06227	0.1908	0.56926	0.364
Mof_C 	C 	0.10734	0.14953	0.63964	0.029
Mof_H 	H 	0.099	0.1182	0.6259	0.022
Mof_C 	C 	0.1302	0.24134	0.68027	-0.104
Mof_H 	H 	0.1374	0.2729	0.6941	0.067
Mof_C 	C 	0.13446	0.15208	0.68419	-0.102
Mof_H 	H 	0.1449	0.1225	0.7001	0.055
Mof_C 	C 	0.10428	0.23833	0.63604	0.032
Mof_H 	H 	0.0944	0.2678	0.6195	0.031
Mof_C 	C 	0.17033	0.24212	0.78313	-0.107
Mof_H 	H 	0.1431	0.2639	0.7785	0.064
Mof_C 	C 	0.09275	0.19261	0.61575	-0.116
Mof_C 	C 	0.17751	0.20261	0.75023	0.041
Mof_Cu	Cu	0.5	1.28379e-33	0.1444	0.874
Mof_Cu	Cu	0.5	2.56758e-33	0.24029	0.88
Mof_Cu	Cu	0.5	0	0.8556	0.88
Mof_Cu	Cu	0.5	1.02703e-32	0.75971	0.88
Mof_Cu	Cu	0.1444	0.5	-0	0.874
Mof_Cu	Cu	0.24029	0.5	-0	0.88
Mof_Cu	Cu	0.8556	0.5	-0	0.88
Mof_Cu	Cu	0.75971	0.5	-0	0.88
Mof_Cu	Cu	7.00985e-33	0.1444	0.5	0.874
Mof_Cu	Cu	7.00985e-33	0.24029	0.5	0.88
Mof_Cu	Cu	7.00985e-33	0.8556	0.5	0.88
Mof_Cu	Cu	1.72802e-32	0.75971	0.5	0.88
Mof_O 	O 	0.9477	0.55012	0.64885	-0.376
Mof_O 	O 	0.94846	0.54949	0.73158	-0.386
Mof_C 	C 	0.79494	0.6461	0.69809	0.027
Mof_C 	C 	0.93074	0.56227	0.6908	0.357
Mof_C 	C 	0.86036	0.60734	0.64953	0.022
Mof_H 	H 	0.8741	0.599	0.6182	0.042
Mof_C 	C 	0.81973	0.6302	0.74134	-0.09
Mof_H 	H 	0.8059	0.6374	0.7729	0.066
Mof_C 	C 	0.81581	0.63446	0.65208	-0.089
Mof_H 	H 	0.7999	0.6449	0.6225	0.062
Mof_C 	C 	0.86396	0.60428	0.73833	0.024
Mof_H 	H 	0.8805	0.5944	0.7678	0.045
Mof_C 	C 	0.71687	0.67033	0.74212	-0.11
Mof_H 	H 	0.7215	0.6431	0.7639	0.069
Mof_C 	C 	0.88425	0.59275	0.69261	-0.093
Mof_C 	C 	0.74977	0.67751	0.70261	0.049
Mof_O 	O 	0.0523	0.44988	0.64885	-0.42
Mof_O 	O 	0.05154	0.45051	0.73158	-0.429
Mof_C 	C 	0.20506	0.3539	0.69809	0.033
Mof_C 	C 	0.06926	0.43773	0.6908	0.365
Mof_C 	C 	0.13964	0.39266	0.64953	0.031
Mof_H 	H 	0.1259	0.401	0.6182	0.031
Mof_C 	C 	0.18027	0.3698	0.74134	-0.1
Mof_H 	H 	0.1941	0.3626	0.7729	0.068
Mof_C 	C 	0.18419	0.36554	0.65208	-0.098
Mof_H 	H 	0.2001	0.3551	0.6225	0.063
Mof_C 	C 	0.13604	0.39572	0.73833	0.033
Mof_H 	H 	0.1195	0.4056	0.7678	0.033
Mof_C 	C 	0.28313	0.32967	0.74212	-0.107
Mof_H 	H 	0.2785	0.3569	0.7639	0.068
Mof_C 	C 	0.11575	0.40725	0.69261	-0.112
Mof_C 	C 	0.25023	0.32249	0.70261	0.045
Mof_O 	O 	0.0523	0.55012	0.35115	-0.42
Mof_O 	O 	0.05154	0.54949	0.26842	-0.431
Mof_C 	C 	0.20506	0.6461	0.30191	0.034
Mof_C 	C 	0.06926	0.56227	0.3092	0.365
Mof_C 	C 	0.13964	0.60734	0.35047	0.032
Mof_H 	H 	0.1259	0.599	0.3818	0.03
Mof_C 	C 	0.18027	0.6302	0.25866	-0.102
Mof_H 	H 	0.1941	0.6374	0.2271	0.069
Mof_C 	C 	0.18419	0.63446	0.34792	-0.099
Mof_H 	H 	0.2001	0.6449	0.3775	0.063
Mof_C 	C 	0.13604	0.60428	0.26167	0.034
Mof_H 	H 	0.1195	0.5944	0.2322	0.031
Mof_C 	C 	0.28313	0.67033	0.25788	-0.106
Mof_H 	H 	0.2785	0.6431	0.2361	0.067
Mof_C 	C 	0.11575	0.59275	0.30739	-0.113
Mof_C 	C 	0.25023	0.67751	0.29739	0.045
Mof_O 	O 	0.9477	0.44988	0.35115	-0.377
Mof_O 	O 	0.94846	0.45051	0.26842	-0.388
Mof_C 	C 	0.79494	0.3539	0.30191	0.029
Mof_C 	C 	0.93074	0.43773	0.3092	0.357
Mof_C 	C 	0.86036	0.39266	0.35047	0.024
Mof_H 	H 	0.8741	0.401	0.3818	0.042
Mof_C 	C 	0.81973	0.3698	0.25866	-0.093
Mof_H 	H 	0.8059	0.3626	0.2271	0.067
Mof_C 	C 	0.81581	0.36554	0.34792	-0.09
Mof_H 	H 	0.7999	0.3551	0.3775	0.063
Mof_C 	C 	0.86396	0.39572	0.26167	0.026
Mof_H 	H 	0.8805	0.4056	0.2322	0.043
Mof_C 	C 	0.71687	0.32967	0.25788	-0.106
Mof_H 	H 	0.7215	0.3569	0.2361	0.068
Mof_C 	C 	0.88425	0.40725	0.30739	-0.095
Mof_C 	C 	0.74977	0.32249	0.29739	0.047
Mof_O 	O 	0.64885	0.9477	0.55012	-0.376
Mof_O 	O 	0.73158	0.94846	0.54949	-0.386
Mof_C 	C 	0.69809	0.79494	0.6461	0.027
Mof_C 	C 	0.6908	0.93074	0.56227	0.357
Mof_C 	C 	0.64953	0.86036	0.60734	0.022
Mof_H 	H 	0.6182	0.8741	0.599	0.042
Mof_C 	C 	0.74134	0.81973	0.6302	-0.09
Mof_H 	H 	0.7729	0.8059	0.6374	0.066
Mof_C 	C 	0.65208	0.81581	0.63446	-0.089
Mof_H 	H 	0.6225	0.7999	0.6449	0.062
Mof_C 	C 	0.73833	0.86396	0.60428	0.024
Mof_H 	H 	0.7678	0.8805	0.5944	0.045
Mof_C 	C 	0.74212	0.71687	0.67033	-0.11
Mof_H 	H 	0.7639	0.7215	0.6431	0.069
Mof_C 	C 	0.69261	0.88425	0.59275	-0.093
Mof_C 	C 	0.70261	0.74977	0.67751	0.049
Mof_O 	O 	0.64885	0.0523	0.44988	-0.42
Mof_O 	O 	0.73158	0.05154	0.45051	-0.429
Mof_C 	C 	0.69809	0.20506	0.3539	0.033
Mof_C 	C 	0.6908	0.06926	0.43773	0.365
Mof_C 	C 	0.64953	0.13964	0.39266	0.031
Mof_H 	H 	0.6182	0.1259	0.401	0.031
Mof_C 	C 	0.74134	0.18027	0.3698	-0.1
Mof_H 	H 	0.7729	0.1941	0.3626	0.068
Mof_C 	C 	0.65208	0.18419	0.36554	-0.098
Mof_H 	H 	0.6225	0.2001	0.3551	0.063
Mof_C 	C 	0.73833	0.13604	0.39572	0.033
Mof_H 	H 	0.7678	0.1195	0.4056	0.033
Mof_C 	C 	0.74212	0.28313	0.32967	-0.107
Mof_H 	H 	0.7639	0.2785	0.3569	0.068
Mof_C 	C 	0.69261	0.11575	0.40725	-0.112
Mof_C 	C 	0.70261	0.25023	0.32249	0.045
Mof_O 	O 	0.35115	0.0523	0.55012	-0.42
Mof_O 	O 	0.26842	0.05154	0.54949	-0.431
Mof_C 	C 	0.30191	0.20506	0.6461	0.034
Mof_C 	C 	0.3092	0.06926	0.56227	0.365
Mof_C 	C 	0.35047	0.13964	0.60734	0.032
Mof_H 	H 	0.3818	0.1259	0.599	0.03
Mof_C 	C 	0.25866	0.18027	0.6302	-0.102
Mof_H 	H 	0.2271	0.1941	0.6374	0.069
Mof_C 	C 	0.34792	0.18419	0.63446	-0.099
Mof_H 	H 	0.3775	0.2001	0.6449	0.063
Mof_C 	C 	0.26167	0.13604	0.60428	0.034
Mof_H 	H 	0.2322	0.1195	0.5944	0.031
Mof_C 	C 	0.25788	0.28313	0.67033	-0.106
Mof_H 	H 	0.2361	0.2785	0.6431	0.067
Mof_C 	C 	0.30739	0.11575	0.59275	-0.113
Mof_C 	C 	0.29739	0.25023	0.67751	0.045
Mof_O 	O 	0.35115	0.9477	0.44988	-0.377
Mof_O 	O 	0.26842	0.94846	0.45051	-0.388
Mof_C 	C 	0.30191	0.79494	0.3539	0.029
Mof_C 	C 	0.3092	0.93074	0.43773	0.357
Mof_C 	C 	0.35047	0.86036	0.39266	0.024
Mof_H 	H 	0.3818	0.8741	0.401	0.042
Mof_C 	C 	0.25866	0.81973	0.3698	-0.093
Mof_H 	H 	0.2271	0.8059	0.3626	0.067
Mof_C 	C 	0.34792	0.81581	0.36554	-0.09
Mof_H 	H 	0.3775	0.7999	0.3551	0.063
Mof_C 	C 	0.26167	0.86396	0.39572	0.026
Mof_H 	H 	0.2322	0.8805	0.4056	0.043
Mof_C 	C 	0.25788	0.71687	0.32967	-0.106
Mof_H 	H 	0.2361	0.7215	0.3569	0.068
Mof_C 	C 	0.30739	0.88425	0.40725	-0.095
Mof_C 	C 	0.29739	0.74977	0.32249	0.047
Mof_O 	O 	0.55012	0.64885	0.9477	-0.376
Mof_O 	O 	0.54949	0.73158	0.94846	-0.386
Mof_C 	C 	0.6461	0.69809	0.79494	0.027
Mof_C 	C 	0.56227	0.6908	0.93074	0.357
Mof_C 	C 	0.60734	0.64953	0.86036	0.022
Mof_H 	H 	0.599	0.6182	0.8741	0.042
Mof_C 	C 	0.6302	0.74134	0.81973	-0.09
Mof_H 	H 	0.6374	0.7729	0.8059	0.066
Mof_C 	C 	0.63446	0.65208	0.81581	-0.089
Mof_H 	H 	0.6449	0.6225	0.7999	0.062
Mof_C 	C 	0.60428	0.73833	0.86396	0.024
Mof_H 	H 	0.5944	0.7678	0.8805	0.045
Mof_C 	C 	0.67033	0.74212	0.71687	-0.11
Mof_H 	H 	0.6431	0.7639	0.7215	0.069
Mof_C 	C 	0.59275	0.69261	0.88425	-0.093
Mof_C 	C 	0.67751	0.70261	0.74977	0.049
Mof_O 	O 	0.44988	0.64885	0.0523	-0.42
Mof_O 	O 	0.45051	0.73158	0.05154	-0.429
Mof_C 	C 	0.3539	0.69809	0.20506	0.033
Mof_C 	C 	0.43773	0.6908	0.06926	0.365
Mof_C 	C 	0.39266	0.64953	0.13964	0.031
Mof_H 	H 	0.401	0.6182	0.1259	0.031
Mof_C 	C 	0.3698	0.74134	0.18027	-0.1
Mof_H 	H 	0.3626	0.7729	0.1941	0.068
Mof_C 	C 	0.36554	0.65208	0.18419	-0.098
Mof_H 	H 	0.3551	0.6225	0.2001	0.063
Mof_C 	C 	0.39572	0.73833	0.13604	0.033
Mof_H 	H 	0.4056	0.7678	0.1195	0.033
Mof_C 	C 	0.32967	0.74212	0.28313	-0.107
Mof_H 	H 	0.3569	0.7639	0.2785	0.068
Mof_C 	C 	0.40725	0.69261	0.11575	-0.112
Mof_C 	C 	0.32249	0.70261	0.25023	0.045
Mof_O 	O 	0.55012	0.35115	0.0523	-0.42
Mof_O 	O 	0.54949	0.26842	0.05154	-0.431
Mof_C 	C 	0.6461	0.30191	0.20506	0.034
Mof_C 	C 	0.56227	0.3092	0.06926	0.365
Mof_C 	C 	0.60734	0.35047	0.13964	0.032
Mof_H 	H 	0.599	0.3818	0.1259	0.03
Mof_C 	C 	0.6302	0.25866	0.18027	-0.102
Mof_H 	H 	0.6374	0.2271	0.1941	0.069
Mof_C 	C 	0.63446	0.34792	0.18419	-0.099
Mof_H 	H 	0.6449	0.3775	0.2001	0.063
Mof_C 	C 	0.60428	0.26167	0.13604	0.034
Mof_H 	H 	0.5944	0.2322	0.1195	0.031
Mof_C 	C 	0.67033	0.25788	0.28313	-0.106
Mof_H 	H 	0.6431	0.2361	0.2785	0.067
Mof_C 	C 	0.59275	0.30739	0.11575	-0.113
Mof_C 	C 	0.67751	0.29739	0.25023	0.045
Mof_O 	O 	0.44988	0.35115	0.9477	-0.377
Mof_O 	O 	0.45051	0.26842	0.94846	-0.388
Mof_C 	C 	0.3539	0.30191	0.79494	0.029
Mof_C 	C 	0.43773	0.3092	0.93074	0.357
Mof_C 	C 	0.39266	0.35047	0.86036	0.024
Mof_H 	H 	0.401	0.3818	0.8741	0.042
Mof_C 	C 	0.3698	0.25866	0.81973	-0.093
Mof_H 	H 	0.3626	0.2271	0.8059	0.067
Mof_C 	C 	0.36554	0.34792	0.81581	-0.09
Mof_H 	H 	0.3551	0.3775	0.7999	0.063
Mof_C 	C 	0.39572	0.26167	0.86396	0.026
Mof_H 	H 	0.4056	0.2322	0.8805	0.043
Mof_C 	C 	0.32967	0.25788	0.71687	-0.106
Mof_H 	H 	0.3569	0.2361	0.7215	0.068
Mof_C 	C 	0.40725	0.30739	0.88425	-0.095
Mof_C 	C 	0.32249	0.29739	0.74977	0.047
Mof_O 	O 	0.0523	0.44988	0.35115	-0.42
Mof_O 	O 	0.05154	0.45051	0.26842	-0.431
Mof_C 	C 	0.20506	0.3539	0.30191	0.034
Mof_C 	C 	0.06926	0.43773	0.3092	0.365
Mof_C 	C 	0.13964	0.39266	0.35047	0.032
Mof_H 	H 	0.1259	0.401	0.3818	0.03
Mof_C 	C 	0.18027	0.3698	0.25866	-0.102
Mof_H 	H 	0.1941	0.3626	0.2271	0.069
Mof_C 	C 	0.18419	0.36554	0.34792	-0.099
Mof_H 	H 	0.2001	0.3551	0.3775	0.064
Mof_C 	C 	0.13604	0.39572	0.26167	0.035
Mof_H 	H 	0.1195	0.4056	0.2322	0.031
Mof_C 	C 	0.28313	0.32967	0.25788	-0.104
Mof_H 	H 	0.2785	0.3569	0.2361	0.067
Mof_C 	C 	0.11575	0.40725	0.30739	-0.113
Mof_C 	C 	0.25023	0.32249	0.29739	0.044
Mof_O 	O 	0.9477	0.55012	0.35115	-0.377
Mof_O 	O 	0.94846	0.54949	0.26842	-0.388
Mof_C 	C 	0.79494	0.6461	0.30191	0.028
Mof_C 	C 	0.93074	0.56227	0.3092	0.357
Mof_C 	C 	0.86036	0.60734	0.35047	0.023
Mof_H 	H 	0.8741	0.599	0.3818	0.042
Mof_C 	C 	0.81973	0.6302	0.25866	-0.092
Mof_H 	H 	0.8059	0.6374	0.2271	0.067
Mof_C 	C 	0.81581	0.63446	0.34792	-0.09
Mof_H 	H 	0.7999	0.6449	0.3775	0.062
Mof_C 	C 	0.86396	0.60428	0.26167	0.026
Mof_H 	H 	0.8805	0.5944	0.2322	0.043
Mof_C 	C 	0.71687	0.67033	0.25788	-0.108
Mof_H 	H 	0.7215	0.6431	0.2361	0.068
Mof_C 	C 	0.88425	0.59275	0.30739	-0.094
Mof_C 	C 	0.74977	0.67751	0.29739	0.048
Mof_O 	O 	0.9477	0.44988	0.64885	-0.376
Mof_O 	O 	0.94846	0.45051	0.73158	-0.386
Mof_C 	C 	0.79494	0.3539	0.69809	0.028
Mof_C 	C 	0.93074	0.43773	0.6908	0.357
Mof_C 	C 	0.86036	0.39266	0.64953	0.023
Mof_H 	H 	0.8741	0.401	0.6182	0.042
Mof_C 	C 	0.81973	0.3698	0.74134	-0.091
Mof_H 	H 	0.8059	0.3626	0.7729	0.066
Mof_C 	C 	0.81581	0.36554	0.65208	-0.089
Mof_H 	H 	0.7999	0.3551	0.6225	0.062
Mof_C 	C 	0.86396	0.39572	0.73833	0.025
Mof_H 	H 	0.8805	0.4056	0.7678	0.045
Mof_C 	C 	0.71687	0.32967	0.74212	-0.109
Mof_H 	H 	0.7215	0.3569	0.7639	0.069
Mof_C 	C 	0.88425	0.40725	0.69261	-0.093
Mof_C 	C 	0.74977	0.32249	0.70261	0.048
Mof_O 	O 	0.0523	0.55012	0.64885	-0.419
Mof_O 	O 	0.05154	0.54949	0.73158	-0.429
Mof_C 	C 	0.20506	0.6461	0.69809	0.032
Mof_C 	C 	0.06926	0.56227	0.6908	0.365
Mof_C 	C 	0.13964	0.60734	0.64953	0.03
Mof_H 	H 	0.1259	0.599	0.6182	0.031
Mof_C 	C 	0.18027	0.6302	0.74134	-0.1
Mof_H 	H 	0.1941	0.6374	0.7729	0.068
Mof_C 	C 	0.18419	0.63446	0.65208	-0.098
Mof_H 	H 	0.2001	0.6449	0.6225	0.063
Mof_C 	C 	0.13604	0.60428	0.73833	0.033
Mof_H 	H 	0.1195	0.5944	0.7678	0.034
Mof_C 	C 	0.28313	0.67033	0.74212	-0.108
Mof_H 	H 	0.2785	0.6431	0.7639	0.068
Mof_C 	C 	0.11575	0.59275	0.69261	-0.111
Mof_C 	C 	0.25023	0.67751	0.70261	0.046
Mof_O 	O 	0.35115	0.0523	0.44988	-0.42
Mof_O 	O 	0.26842	0.05154	0.45051	-0.431
Mof_C 	C 	0.30191	0.20506	0.3539	0.034
Mof_C 	C 	0.3092	0.06926	0.43773	0.365
Mof_C 	C 	0.35047	0.13964	0.39266	0.032
Mof_H 	H 	0.3818	0.1259	0.401	0.03
Mof_C 	C 	0.25866	0.18027	0.3698	-0.102
Mof_H 	H 	0.2271	0.1941	0.3626	0.069
Mof_C 	C 	0.34792	0.18419	0.36554	-0.099
Mof_H 	H 	0.3775	0.2001	0.3551	0.064
Mof_C 	C 	0.26167	0.13604	0.39572	0.035
Mof_H 	H 	0.2322	0.1195	0.4056	0.031
Mof_C 	C 	0.25788	0.28313	0.32967	-0.104
Mof_H 	H 	0.2361	0.2785	0.3569	0.067
Mof_C 	C 	0.30739	0.11575	0.40725	-0.113
Mof_C 	C 	0.29739	0.25023	0.32249	0.044
Mof_O 	O 	0.35115	0.9477	0.55012	-0.377
Mof_O 	O 	0.26842	0.94846	0.54949	-0.388
Mof_C 	C 	0.30191	0.79494	0.6461	0.028
Mof_C 	C 	0.3092	0.93074	0.56227	0.357
Mof_C 	C 	0.35047	0.86036	0.60734	0.023
Mof_H 	H 	0.3818	0.8741	0.599	0.042
Mof_C 	C 	0.25866	0.81973	0.6302	-0.092
Mof_H 	H 	0.2271	0.8059	0.6374	0.067
Mof_C 	C 	0.34792	0.81581	0.63446	-0.09
Mof_H 	H 	0.3775	0.7999	0.6449	0.062
Mof_C 	C 	0.26167	0.86396	0.60428	0.026
Mof_H 	H 	0.2322	0.8805	0.5944	0.043
Mof_C 	C 	0.25788	0.71687	0.67033	-0.108
Mof_H 	H 	0.2361	0.7215	0.6431	0.068
Mof_C 	C 	0.30739	0.88425	0.59275	-0.094
Mof_C 	C 	0.29739	0.74977	0.67751	0.048
Mof_O 	O 	0.64885	0.9477	0.44988	-0.376
Mof_O 	O 	0.73158	0.94846	0.45051	-0.386
Mof_C 	C 	0.69809	0.79494	0.3539	0.028
Mof_C 	C 	0.6908	0.93074	0.43773	0.357
Mof_C 	C 	0.64953	0.86036	0.39266	0.023
Mof_H 	H 	0.6182	0.8741	0.401	0.042
Mof_C 	C 	0.74134	0.81973	0.3698	-0.091
Mof_H 	H 	0.7729	0.8059	0.3626	0.066
Mof_C 	C 	0.65208	0.81581	0.36554	-0.089
Mof_H 	H 	0.6225	0.7999	0.3551	0.062
Mof_C 	C 	0.73833	0.86396	0.39572	0.025
Mof_H 	H 	0.7678	0.8805	0.4056	0.045
Mof_C 	C 	0.74212	0.71687	0.32967	-0.109
Mof_H 	H 	0.7639	0.7215	0.3569	0.069
Mof_C 	C 	0.69261	0.88425	0.40725	-0.093
Mof_C 	C 	0.70261	0.74977	0.32249	0.048
Mof_O 	O 	0.64885	0.0523	0.55012	-0.419
Mof_O 	O 	0.73158	0.05154	0.54949	-0.429
Mof_C 	C 	0.69809	0.20506	0.6461	0.032
Mof_C 	C 	0.6908	0.06926	0.56227	0.365
Mof_C 	C 	0.64953	0.13964	0.60734	0.03
Mof_H 	H 	0.6182	0.1259	0.599	0.031
Mof_C 	C 	0.74134	0.18027	0.6302	-0.1
Mof_H 	H 	0.7729	0.1941	0.6374	0.068
Mof_C 	C 	0.65208	0.18419	0.63446	-0.098
Mof_H 	H 	0.6225	0.2001	0.6449	0.063
Mof_C 	C 	0.73833	0.13604	0.60428	0.033
Mof_H 	H 	0.7678	0.1195	0.5944	0.034
Mof_C 	C 	0.74212	0.28313	0.67033	-0.108
Mof_H 	H 	0.7639	0.2785	0.6431	0.068
Mof_C 	C 	0.69261	0.11575	0.59275	-0.111
Mof_C 	C 	0.70261	0.25023	0.67751	0.046
Mof_O 	O 	0.44988	0.35115	0.0523	-0.42
Mof_O 	O 	0.45051	0.26842	0.05154	-0.431
Mof_C 	C 	0.3539	0.30191	0.20506	0.034
Mof_C 	C 	0.43773	0.3092	0.06926	0.365
Mof_C 	C 	0.39266	0.35047	0.13964	0.032
Mof_H 	H 	0.401	0.3818	0.1259	0.03
Mof_C 	C 	0.3698	0.25866	0.18027	-0.102
Mof_H 	H 	0.3626	0.2271	0.1941	0.069
Mof_C 	C 	0.36554	0.34792	0.18419	-0.099
Mof_H 	H 	0.3551	0.3775	0.2001	0.064
Mof_C 	C 	0.39572	0.26167	0.13604	0.035
Mof_H 	H 	0.4056	0.2322	0.1195	0.031
Mof_C 	C 	0.32967	0.25788	0.28313	-0.104
Mof_H 	H 	0.3569	0.2361	0.2785	0.067
Mof_C 	C 	0.40725	0.30739	0.11575	-0.113
Mof_C 	C 	0.32249	0.29739	0.25023	0.044
Mof_O 	O 	0.55012	0.35115	0.9477	-0.377
Mof_O 	O 	0.54949	0.26842	0.94846	-0.388
Mof_C 	C 	0.6461	0.30191	0.79494	0.028
Mof_C 	C 	0.56227	0.3092	0.93074	0.357
Mof_C 	C 	0.60734	0.35047	0.86036	0.023
Mof_H 	H 	0.599	0.3818	0.8741	0.042
Mof_C 	C 	0.6302	0.25866	0.81973	-0.092
Mof_H 	H 	0.6374	0.2271	0.8059	0.067
Mof_C 	C 	0.63446	0.34792	0.81581	-0.09
Mof_H 	H 	0.6449	0.3775	0.7999	0.062
Mof_C 	C 	0.60428	0.26167	0.86396	0.026
Mof_H 	H 	0.5944	0.2322	0.8805	0.043
Mof_C 	C 	0.67033	0.25788	0.71687	-0.108
Mof_H 	H 	0.6431	0.2361	0.7215	0.068
Mof_C 	C 	0.59275	0.30739	0.88425	-0.094
Mof_C 	C 	0.67751	0.29739	0.74977	0.048
Mof_O 	O 	0.44988	0.64885	0.9477	-0.376
Mof_O 	O 	0.45051	0.73158	0.94846	-0.386
Mof_C 	C 	0.3539	0.69809	0.79494	0.028
Mof_C 	C 	0.43773	0.6908	0.93074	0.357
Mof_C 	C 	0.39266	0.64953	0.86036	0.023
Mof_H 	H 	0.401	0.6182	0.8741	0.042
Mof_C 	C 	0.3698	0.74134	0.81973	-0.091
Mof_H 	H 	0.3626	0.7729	0.8059	0.066
Mof_C 	C 	0.36554	0.65208	0.81581	-0.089
Mof_H 	H 	0.3551	0.6225	0.7999	0.062
Mof_C 	C 	0.39572	0.73833	0.86396	0.025
Mof_H 	H 	0.4056	0.7678	0.8805	0.045
Mof_C 	C 	0.32967	0.74212	0.71687	-0.109
Mof_H 	H 	0.3569	0.7639	0.7215	0.069
Mof_C 	C 	0.40725	0.69261	0.88425	-0.093
Mof_C 	C 	0.32249	0.70261	0.74977	0.048
Mof_O 	O 	0.55012	0.64885	0.0523	-0.419
Mof_O 	O 	0.54949	0.73158	0.05154	-0.429
Mof_C 	C 	0.6461	0.69809	0.20506	0.032
Mof_C 	C 	0.56227	0.6908	0.06926	0.365
Mof_C 	C 	0.60734	0.64953	0.13964	0.03
Mof_H 	H 	0.599	0.6182	0.1259	0.031
Mof_C 	C 	0.6302	0.74134	0.18027	-0.1
Mof_H 	H 	0.6374	0.7729	0.1941	0.068
Mof_C 	C 	0.63446	0.65208	0.18419	-0.098
Mof_H 	H 	0.6449	0.6225	0.2001	0.063
Mof_C 	C 	0.60428	0.73833	0.13604	0.033
Mof_H 	H 	0.5944	0.7678	0.1195	0.034
Mof_C 	C 	0.67033	0.74212	0.28313	-0.108
Mof_H 	H 	0.6431	0.7639	0.2785	0.068
Mof_C 	C 	0.59275	0.69261	0.11575	-0.111
Mof_C 	C 	0.67751	0.70261	0.25023	0.046
Mof_Cu	Cu	1.26864e-32	0.5	0.6444	0.877
Mof_Cu	Cu	2.77564e-33	0.5	0.74029	0.88
Mof_Cu	Cu	-1.23429e-33	0.5	0.3556	0.877
Mof_Cu	Cu	8.67649e-33	0.5	0.25971	0.879
Mof_Cu	Cu	0.6444	5.13515e-33	0.5	0.877
Mof_Cu	Cu	0.74029	5.13515e-33	0.5	0.88
Mof_Cu	Cu	0.3556	5.13515e-33	0.5	0.877
Mof_Cu	Cu	0.25971	5.13515e-33	0.5	0.879
Mof_Cu	Cu	0.5	0.6444	-0	0.877
Mof_Cu	Cu	0.5	0.74029	-0	0.88
Mof_Cu	Cu	0.5	0.3556	-0	0.877
Mof_Cu	Cu	0.5	0.25971	-0	0.879
_end
