data_functionalizedCrystal
_audit_creation_method	'EQeq! by Chris Wilmer'
_symmetry_space_group_name_H-M	'P1'
_symmetry_Int_Tables_number	1
_symmetry_cell_setting	triclinic
loop_
_symmetry_equiv_pos_as_xyz
  x,y,z
_cell_length_a	18.0208
_cell_length_b	27.0111
_cell_length_c	27.0111
_cell_angle_alpha	120
_cell_angle_beta	90
_cell_angle_gamma	90
loop_
_atom_site_label
_atom_site_type_symbol
_atom_site_fract_x
_atom_site_fract_y
_atom_site_fract_z
_atom_site_charge
Mof_Zn	Zn	0.57966	0.33278	0.44352	1.179
Mof_Zn	Zn	0.57966	0.11074	0.66722	1.179
Mof_Zn	Zn	0.57966	0.55648	0.88926	1.179
Mof_Zn	Zn	0.07966	0.66722	0.55648	1.179
Mof_Zn	Zn	0.07966	0.88926	0.33278	1.179
Mof_Zn	Zn	0.07966	0.44352	0.11074	1.179
Mof_Zn	Zn	0.42034	0.88926	0.55648	1.179
Mof_Zn	Zn	0.42034	0.44352	0.33278	1.179
Mof_Zn	Zn	0.42034	0.66722	0.11074	1.179
Mof_Zn	Zn	0.92034	0.11074	0.44352	1.179
Mof_Zn	Zn	0.92034	0.55648	0.66722	1.178
Mof_Zn	Zn	0.92034	0.33278	0.88926	1.178
Mof_Zn	Zn	0.42034	0.66722	0.55648	1.178
Mof_Zn	Zn	0.42034	0.88926	0.33278	1.178
Mof_Zn	Zn	0.42034	0.44352	0.11074	1.178
Mof_Zn	Zn	0.92034	0.33278	0.44352	1.178
Mof_Zn	Zn	0.92034	0.11074	0.66722	1.178
Mof_Zn	Zn	0.92034	0.55648	0.88926	1.178
Mof_Zn	Zn	0.57966	0.11074	0.44352	1.178
Mof_Zn	Zn	0.57966	0.55648	0.66722	1.178
Mof_Zn	Zn	0.57966	0.33278	0.88926	1.178
Mof_Zn	Zn	0.07966	0.88926	0.55648	1.178
Mof_Zn	Zn	0.07966	0.44352	0.33278	1.178
Mof_Zn	Zn	0.07966	0.66722	0.11074	1.178
Mof_H 	H 	0.4452	0.2447	0.3981	0.006
Mof_H 	H 	0.6821	0.3319	0.3473	0.004
Mof_H 	H 	0.432	0.4013	0.5089	0.003
Mof_H 	H 	0.5304	0.262	0.3084	-0.001
Mof_H 	H 	0.4452	0.1534	0.7553	0.006
Mof_H 	H 	0.6821	0.0154	0.6681	0.003
Mof_H 	H 	0.432	0.1076	0.5987	0.003
Mof_H 	H 	0.5304	0.0464	0.738	0
Mof_H 	H 	0.4452	0.6019	0.8466	0.007
Mof_H 	H 	0.6821	0.6527	0.9846	0.004
Mof_H 	H 	0.432	0.4911	0.8924	0.003
Mof_H 	H 	0.5304	0.6916	0.9536	-0.001
Mof_H 	H 	0.9452	0.7553	0.6019	0.007
Mof_H 	H 	0.1821	0.6681	0.6527	0.004
Mof_H 	H 	0.932	0.5987	0.4911	0.003
Mof_H 	H 	0.0304	0.738	0.6916	0
Mof_H 	H 	0.9452	0.8466	0.2447	0.007
Mof_H 	H 	0.1821	0.9846	0.3319	0.004
Mof_H 	H 	0.932	0.8924	0.4013	0.003
Mof_H 	H 	0.0304	0.9536	0.262	-0.001
Mof_H 	H 	0.9452	0.3981	0.1534	0.006
Mof_H 	H 	0.1821	0.3473	0.0154	0.003
Mof_H 	H 	0.932	0.5089	0.1076	0.003
Mof_H 	H 	0.0304	0.3084	0.0464	0.001
Mof_H 	H 	0.5548	0.8466	0.6019	0.007
Mof_H 	H 	0.3179	0.9846	0.6527	0.004
Mof_H 	H 	0.568	0.8924	0.4911	0.004
Mof_H 	H 	0.4696	0.9536	0.6916	-0.002
Mof_H 	H 	0.5548	0.3981	0.2447	0.006
Mof_H 	H 	0.3179	0.3473	0.3319	0.003
Mof_H 	H 	0.568	0.5089	0.4013	0.003
Mof_H 	H 	0.4696	0.3084	0.262	-0.001
Mof_H 	H 	0.5548	0.7553	0.1534	0.006
Mof_H 	H 	0.3179	0.6681	0.0154	0.003
Mof_H 	H 	0.568	0.5987	0.1076	0.003
Mof_H 	H 	0.4696	0.738	0.0464	0
Mof_H 	H 	0.0548	0.1534	0.3981	0.006
Mof_H 	H 	0.8179	0.0154	0.3473	0.003
Mof_H 	H 	0.068	0.1076	0.5089	0.003
Mof_H 	H 	0.9696	0.0464	0.3084	-0.001
Mof_H 	H 	0.0548	0.6019	0.7553	0.007
Mof_H 	H 	0.8179	0.6527	0.6681	0.004
Mof_H 	H 	0.068	0.4911	0.5987	0.003
Mof_H 	H 	0.9696	0.6916	0.738	-0.001
Mof_H 	H 	0.0548	0.2447	0.8466	0.007
Mof_H 	H 	0.8179	0.3319	0.9846	0.004
Mof_H 	H 	0.068	0.4013	0.8924	0.004
Mof_H 	H 	0.9696	0.262	0.9536	-0.002
Mof_H 	H 	0.5548	0.7553	0.6019	0.007
Mof_H 	H 	0.3179	0.6681	0.6527	0.004
Mof_H 	H 	0.568	0.5987	0.4911	0.003
Mof_H 	H 	0.4696	0.738	0.6916	-0
Mof_H 	H 	0.5548	0.8466	0.2447	0.007
Mof_H 	H 	0.3179	0.9846	0.3319	0.004
Mof_H 	H 	0.568	0.8924	0.4013	0.004
Mof_H 	H 	0.4696	0.9536	0.262	-0.002
Mof_H 	H 	0.5548	0.3981	0.1534	0.006
Mof_H 	H 	0.3179	0.3473	0.0154	0.003
Mof_H 	H 	0.568	0.5089	0.1076	0.003
Mof_H 	H 	0.4696	0.3084	0.0464	0
Mof_H 	H 	0.0548	0.2447	0.3981	0.006
Mof_H 	H 	0.8179	0.3319	0.3473	0.004
Mof_H 	H 	0.068	0.4013	0.5089	0.003
Mof_H 	H 	0.9696	0.262	0.3084	-0.002
Mof_H 	H 	0.0548	0.1534	0.7553	0.006
Mof_H 	H 	0.8179	0.0154	0.6681	0.003
Mof_H 	H 	0.068	0.1076	0.5987	0.003
Mof_H 	H 	0.9696	0.0464	0.738	-0.001
Mof_H 	H 	0.0548	0.6019	0.8466	0.007
Mof_H 	H 	0.8179	0.6527	0.9846	0.004
Mof_H 	H 	0.068	0.4911	0.8924	0.004
Mof_H 	H 	0.9696	0.6916	0.9536	-0.002
Mof_H 	H 	0.4452	0.1534	0.3981	0.006
Mof_H 	H 	0.6821	0.0154	0.3473	0.003
Mof_H 	H 	0.432	0.1076	0.5089	0.003
Mof_H 	H 	0.5304	0.0464	0.3084	0
Mof_H 	H 	0.4452	0.6019	0.7553	0.007
Mof_H 	H 	0.6821	0.6527	0.6681	0.004
Mof_H 	H 	0.432	0.4911	0.5987	0.003
Mof_H 	H 	0.5304	0.6916	0.738	-0
Mof_H 	H 	0.4452	0.2447	0.8466	0.007
Mof_H 	H 	0.6821	0.3319	0.9846	0.004
Mof_H 	H 	0.432	0.4013	0.8924	0.003
Mof_H 	H 	0.5304	0.262	0.9536	-0.001
Mof_H 	H 	0.9452	0.8466	0.6019	0.007
Mof_H 	H 	0.1821	0.9846	0.6527	0.004
Mof_H 	H 	0.932	0.8924	0.4911	0.003
Mof_H 	H 	0.0304	0.9536	0.6916	-0.001
Mof_H 	H 	0.9452	0.3981	0.2447	0.006
Mof_H 	H 	0.1821	0.3473	0.3319	0.003
Mof_H 	H 	0.932	0.5089	0.4013	0.003
Mof_H 	H 	0.0304	0.3084	0.262	0
Mof_H 	H 	0.9452	0.7553	0.1534	0.006
Mof_H 	H 	0.1821	0.6681	0.0154	0.003
Mof_H 	H 	0.932	0.5987	0.1076	0.003
Mof_H 	H 	0.0304	0.738	0.0464	0.001
Mof_H 	H 	0.6289	0.2234	0.4468	-0.059
Mof_H 	H 	0.6289	0.2234	0.7766	-0.059
Mof_H 	H 	0.6289	0.5532	0.7766	-0.059
Mof_H 	H 	0.1289	0.7766	0.5532	-0.059
Mof_H 	H 	0.1289	0.7766	0.2234	-0.059
Mof_H 	H 	0.1289	0.4468	0.2234	-0.059
Mof_H 	H 	0.3711	0.7766	0.5532	-0.059
Mof_H 	H 	0.3711	0.4468	0.2234	-0.059
Mof_H 	H 	0.3711	0.7766	0.2234	-0.059
Mof_H 	H 	0.8711	0.2234	0.4468	-0.059
Mof_H 	H 	0.8711	0.5532	0.7766	-0.059
Mof_H 	H 	0.8711	0.2234	0.7766	-0.059
Mof_H 	H 	0.6273	0.45385	0.54615	-0.061
Mof_H 	H 	0.6273	0.0923	0.54615	-0.061
Mof_H 	H 	0.6273	0.45385	0.9077	-0.061
Mof_H 	H 	0.1273	0.54615	0.45385	-0.061
Mof_H 	H 	0.1273	0.9077	0.45385	-0.061
Mof_H 	H 	0.1273	0.54615	0.0923	-0.061
Mof_H 	H 	0.3727	0.9077	0.45385	-0.061
Mof_H 	H 	0.3727	0.54615	0.45385	-0.061
Mof_H 	H 	0.3727	0.54615	0.0923	-0.061
Mof_H 	H 	0.8727	0.0923	0.54615	-0.061
Mof_H 	H 	0.8727	0.45385	0.54615	-0.061
Mof_H 	H 	0.8727	0.45385	0.9077	-0.061
Mof_H 	H 	0.5	0.4215	0.4215	-0.06
Mof_H 	H 	0.5	0	0.5785	-0.06
Mof_H 	H 	0.5	0.5785	-0	-0.06
Mof_H 	H 	-0	0.5785	0.5785	-0.06
Mof_H 	H 	-1.10849e-32	0	0.4215	-0.059
Mof_H 	H 	-0	0.4215	-0	-0.059
Mof_H 	H 	0.5	0.5785	0.5785	-0.06
Mof_H 	H 	0.5	0	0.4215	-0.06
Mof_H 	H 	0.5	0.4215	-0	-0.06
Mof_H 	H 	-1.10849e-32	0.4215	0.4215	-0.06
Mof_H 	H 	-0	0	0.5785	-0.059
Mof_H 	H 	-8.86791e-33	0.5785	-0	-0.059
Mof_C 	C 	0.4814	0.2325	0.4142	-0.022
Mof_C 	C 	0.712	0.3316	0.3752	-0.012
Mof_C 	C 	0.4736	0.4195	0.5307	-0.013
Mof_C 	C 	0.517	0.30039	0.32612	-0.004
Mof_C 	C 	0.4814	0.1817	0.7675	-0.021
Mof_C 	C 	0.712	0.0436	0.6684	-0.012
Mof_C 	C 	0.4736	0.1112	0.5805	-0.013
Mof_C 	C 	0.517	0.02573	0.69961	-0.008
Mof_C 	C 	0.4814	0.5858	0.8183	-0.021
Mof_C 	C 	0.712	0.6248	0.9564	-0.012
Mof_C 	C 	0.4736	0.4693	0.8888	-0.013
Mof_C 	C 	0.517	0.67388	0.97427	-0.001
Mof_C 	C 	0.9814	0.7675	0.5858	-0.02
Mof_C 	C 	0.212	0.6684	0.6248	-0.012
Mof_C 	C 	0.9736	0.5805	0.4693	-0.011
Mof_C 	C 	0.017	0.69961	0.67388	-0.008
Mof_C 	C 	0.9814	0.8183	0.2325	-0.02
Mof_C 	C 	0.212	0.9564	0.3316	-0.012
Mof_C 	C 	0.9736	0.8888	0.4195	-0.011
Mof_C 	C 	0.017	0.97427	0.30039	-0.004
Mof_C 	C 	0.9814	0.4142	0.1817	-0.02
Mof_C 	C 	0.212	0.3752	0.0436	-0.012
Mof_C 	C 	0.9736	0.5307	0.1112	-0.011
Mof_C 	C 	0.017	0.32612	0.02573	-0.011
Mof_C 	C 	0.5186	0.8183	0.5858	-0.021
Mof_C 	C 	0.288	0.9564	0.6248	-0.012
Mof_C 	C 	0.5264	0.8888	0.4693	-0.013
Mof_C 	C 	0.483	0.97427	0.67388	0
Mof_C 	C 	0.5186	0.4142	0.2325	-0.022
Mof_C 	C 	0.288	0.3752	0.3316	-0.012
Mof_C 	C 	0.5264	0.5307	0.4195	-0.013
Mof_C 	C 	0.483	0.32612	0.30039	-0.004
Mof_C 	C 	0.5186	0.7675	0.1817	-0.021
Mof_C 	C 	0.288	0.6684	0.0436	-0.012
Mof_C 	C 	0.5264	0.5805	0.1112	-0.013
Mof_C 	C 	0.483	0.69961	0.02573	-0.007
Mof_C 	C 	0.0186	0.1817	0.4142	-0.023
Mof_C 	C 	0.788	0.0436	0.3752	-0.012
Mof_C 	C 	0.0264	0.1112	0.5307	-0.015
Mof_C 	C 	0.983	0.02573	0.32612	-0.003
Mof_C 	C 	0.0186	0.5858	0.7675	-0.023
Mof_C 	C 	0.788	0.6248	0.6684	-0.012
Mof_C 	C 	0.0264	0.4693	0.5805	-0.015
Mof_C 	C 	0.983	0.67388	0.69961	0.001
Mof_C 	C 	0.0186	0.2325	0.8183	-0.023
Mof_C 	C 	0.788	0.3316	0.9564	-0.012
Mof_C 	C 	0.0264	0.4195	0.8888	-0.015
Mof_C 	C 	0.983	0.30039	0.97427	0.004
Mof_C 	C 	0.5186	0.7675	0.5858	-0.021
Mof_C 	C 	0.288	0.6684	0.6248	-0.012
Mof_C 	C 	0.5264	0.5805	0.4693	-0.013
Mof_C 	C 	0.483	0.69961	0.67388	-0.004
Mof_C 	C 	0.5186	0.8183	0.2325	-0.022
Mof_C 	C 	0.288	0.9564	0.3316	-0.012
Mof_C 	C 	0.5264	0.8888	0.4195	-0.013
Mof_C 	C 	0.483	0.97427	0.30039	0
Mof_C 	C 	0.5186	0.4142	0.1817	-0.022
Mof_C 	C 	0.288	0.3752	0.0436	-0.012
Mof_C 	C 	0.5264	0.5307	0.1112	-0.013
Mof_C 	C 	0.483	0.32612	0.02573	-0.007
Mof_C 	C 	0.0186	0.2325	0.4142	-0.023
Mof_C 	C 	0.788	0.3316	0.3752	-0.012
Mof_C 	C 	0.0264	0.4195	0.5307	-0.015
Mof_C 	C 	0.983	0.30039	0.32612	0.001
Mof_C 	C 	0.0186	0.1817	0.7675	-0.023
Mof_C 	C 	0.788	0.0436	0.6684	-0.012
Mof_C 	C 	0.0264	0.1112	0.5805	-0.015
Mof_C 	C 	0.983	0.02573	0.69961	-0.003
Mof_C 	C 	0.0186	0.5858	0.8183	-0.023
Mof_C 	C 	0.788	0.6248	0.9564	-0.012
Mof_C 	C 	0.0264	0.4693	0.8888	-0.015
Mof_C 	C 	0.983	0.67388	0.97427	0.004
Mof_C 	C 	0.4814	0.1817	0.4142	-0.022
Mof_C 	C 	0.712	0.0436	0.3752	-0.012
Mof_C 	C 	0.4736	0.1112	0.5307	-0.013
Mof_C 	C 	0.517	0.02573	0.32612	-0.008
Mof_C 	C 	0.4814	0.5858	0.7675	-0.021
Mof_C 	C 	0.712	0.6248	0.6684	-0.012
Mof_C 	C 	0.4736	0.4693	0.5805	-0.013
Mof_C 	C 	0.517	0.67388	0.69961	-0.004
Mof_C 	C 	0.4814	0.2325	0.8183	-0.022
Mof_C 	C 	0.712	0.3316	0.9564	-0.012
Mof_C 	C 	0.4736	0.4195	0.8888	-0.013
Mof_C 	C 	0.517	0.30039	0.97427	-0.001
Mof_C 	C 	0.9814	0.8183	0.5858	-0.02
Mof_C 	C 	0.212	0.9564	0.6248	-0.012
Mof_C 	C 	0.9736	0.8888	0.4693	-0.011
Mof_C 	C 	0.017	0.97427	0.67388	-0.004
Mof_C 	C 	0.9814	0.4142	0.2325	-0.02
Mof_C 	C 	0.212	0.3752	0.3316	-0.012
Mof_C 	C 	0.9736	0.5307	0.4195	-0.011
Mof_C 	C 	0.017	0.32612	0.30039	-0.008
Mof_C 	C 	0.9814	0.7675	0.1817	-0.02
Mof_C 	C 	0.212	0.6684	0.0436	-0.012
Mof_C 	C 	0.9736	0.5805	0.1112	-0.011
Mof_C 	C 	0.017	0.69961	0.02573	-0.011
Mof_C 	C 	0.5774	0.22206	0.44412	0.186
Mof_C 	C 	0.5774	0.22206	0.77794	0.186
Mof_C 	C 	0.5774	0.55588	0.77794	0.186
Mof_C 	C 	0.0774	0.77794	0.55588	0.185
Mof_C 	C 	0.0774	0.77794	0.22206	0.185
Mof_C 	C 	0.0774	0.44412	0.22206	0.185
Mof_C 	C 	0.4226	0.77794	0.55588	0.186
Mof_C 	C 	0.4226	0.44412	0.22206	0.186
Mof_C 	C 	0.4226	0.77794	0.22206	0.186
Mof_C 	C 	0.9226	0.22206	0.44412	0.187
Mof_C 	C 	0.9226	0.55588	0.77794	0.187
Mof_C 	C 	0.9226	0.22206	0.77794	0.187
Mof_C 	C 	0.75	0.33153	0.44716	0.148
Mof_C 	C 	0.75	0.11563	0.66847	0.148
Mof_C 	C 	0.75	0.55284	0.88437	0.148
Mof_C 	C 	0.25	0.66847	0.55284	0.148
Mof_C 	C 	0.25	0.88437	0.33153	0.148
Mof_C 	C 	0.25	0.44716	0.11563	0.148
Mof_C 	C 	0.25	0.88437	0.55284	0.148
Mof_C 	C 	0.25	0.44716	0.33153	0.148
Mof_C 	C 	0.25	0.66847	0.11563	0.148
Mof_C 	C 	0.75	0.11563	0.44716	0.148
Mof_C 	C 	0.75	0.55284	0.66847	0.148
Mof_C 	C 	0.75	0.33153	0.88437	0.148
Mof_C 	C 	0.5795	0.4464	0.5536	0.154
Mof_C 	C 	0.5795	0.1072	0.5536	0.154
Mof_C 	C 	0.5795	0.4464	0.8928	0.154
Mof_C 	C 	0.0795	0.5536	0.4464	0.154
Mof_C 	C 	0.0795	0.8928	0.4464	0.154
Mof_C 	C 	0.0795	0.5536	0.1072	0.154
Mof_C 	C 	0.4205	0.8928	0.4464	0.154
Mof_C 	C 	0.4205	0.5536	0.4464	0.154
Mof_C 	C 	0.4205	0.5536	0.1072	0.154
Mof_C 	C 	0.9205	0.1072	0.5536	0.155
Mof_C 	C 	0.9205	0.4464	0.5536	0.155
Mof_C 	C 	0.9205	0.4464	0.8928	0.155
Mof_C 	C 	0.5	0.38708	0.38708	0.097
Mof_C 	C 	0.5	0	0.61292	0.094
Mof_C 	C 	0.5	0.61292	-0	0.095
Mof_C 	C 	-0	0.61292	0.61292	0.094
Mof_C 	C 	-6.65093e-33	3.99375e-17	0.38708	0.092
Mof_C 	C 	-0	0.38708	-0	0.092
Mof_C 	C 	0.5	0.61292	0.61292	0.097
Mof_C 	C 	0.5	3.99375e-17	0.38708	0.094
Mof_C 	C 	0.5	0.38708	-0	0.095
Mof_C 	C 	-6.65093e-33	0.38708	0.38708	0.094
Mof_C 	C 	-0	0	0.61292	0.092
Mof_C 	C 	-0	0.61292	-0	0.092
Mof_N 	N 	0.54544	0.26262	0.4425	-0.303
Mof_N 	N 	0.6876	0.33109	0.4221	-0.284
Mof_N 	N 	0.5462	0.3998	0.51741	-0.288
Mof_N 	N 	0.52836	0.3396	0.38191	-0.289
Mof_N 	N 	0.54544	0.17988	0.73738	-0.303
Mof_N 	N 	0.6876	0.09101	0.66891	-0.284
Mof_N 	N 	0.5462	0.11761	0.6002	-0.288
Mof_N 	N 	0.52836	0.04231	0.6604	-0.288
Mof_N 	N 	0.54544	0.5575	0.82012	-0.303
Mof_N 	N 	0.6876	0.5779	0.90899	-0.283
Mof_N 	N 	0.5462	0.48259	0.88239	-0.288
Mof_N 	N 	0.52836	0.61809	0.95769	-0.288
Mof_N 	N 	0.04544	0.73738	0.5575	-0.304
Mof_N 	N 	0.1876	0.66891	0.5779	-0.284
Mof_N 	N 	0.0462	0.6002	0.48259	-0.289
Mof_N 	N 	0.02836	0.6604	0.61809	-0.288
Mof_N 	N 	0.04544	0.82012	0.26262	-0.304
Mof_N 	N 	0.1876	0.90899	0.33109	-0.284
Mof_N 	N 	0.0462	0.88239	0.3998	-0.289
Mof_N 	N 	0.02836	0.95769	0.3396	-0.287
Mof_N 	N 	0.04544	0.4425	0.17988	-0.304
Mof_N 	N 	0.1876	0.4221	0.09101	-0.284
Mof_N 	N 	0.0462	0.51741	0.11761	-0.289
Mof_N 	N 	0.02836	0.38191	0.04231	-0.287
Mof_N 	N 	0.45456	0.82012	0.5575	-0.303
Mof_N 	N 	0.3124	0.90899	0.5779	-0.283
Mof_N 	N 	0.4538	0.88239	0.48259	-0.288
Mof_N 	N 	0.47164	0.95769	0.61809	-0.288
Mof_N 	N 	0.45456	0.4425	0.26262	-0.303
Mof_N 	N 	0.3124	0.4221	0.33109	-0.284
Mof_N 	N 	0.4538	0.51741	0.3998	-0.288
Mof_N 	N 	0.47164	0.38191	0.3396	-0.289
Mof_N 	N 	0.45456	0.73738	0.17988	-0.303
Mof_N 	N 	0.3124	0.66891	0.09101	-0.284
Mof_N 	N 	0.4538	0.6002	0.11761	-0.288
Mof_N 	N 	0.47164	0.6604	0.04231	-0.288
Mof_N 	N 	0.95456	0.17988	0.4425	-0.302
Mof_N 	N 	0.8124	0.09101	0.4221	-0.284
Mof_N 	N 	0.9538	0.11761	0.51741	-0.287
Mof_N 	N 	0.97164	0.04231	0.38191	-0.287
Mof_N 	N 	0.95456	0.5575	0.73738	-0.302
Mof_N 	N 	0.8124	0.5779	0.66891	-0.283
Mof_N 	N 	0.9538	0.48259	0.6002	-0.287
Mof_N 	N 	0.97164	0.61809	0.6604	-0.288
Mof_N 	N 	0.95456	0.26262	0.82012	-0.302
Mof_N 	N 	0.8124	0.33109	0.90899	-0.283
Mof_N 	N 	0.9538	0.3998	0.88239	-0.287
Mof_N 	N 	0.97164	0.3396	0.95769	-0.287
Mof_N 	N 	0.45456	0.73738	0.5575	-0.303
Mof_N 	N 	0.3124	0.66891	0.5779	-0.284
Mof_N 	N 	0.4538	0.6002	0.48259	-0.288
Mof_N 	N 	0.47164	0.6604	0.61809	-0.289
Mof_N 	N 	0.45456	0.82012	0.26262	-0.303
Mof_N 	N 	0.3124	0.90899	0.33109	-0.283
Mof_N 	N 	0.4538	0.88239	0.3998	-0.288
Mof_N 	N 	0.47164	0.95769	0.3396	-0.288
Mof_N 	N 	0.45456	0.4425	0.17988	-0.303
Mof_N 	N 	0.3124	0.4221	0.09101	-0.284
Mof_N 	N 	0.4538	0.51741	0.11761	-0.288
Mof_N 	N 	0.47164	0.38191	0.04231	-0.288
Mof_N 	N 	0.95456	0.26262	0.4425	-0.302
Mof_N 	N 	0.8124	0.33109	0.4221	-0.283
Mof_N 	N 	0.9538	0.3998	0.51741	-0.287
Mof_N 	N 	0.97164	0.3396	0.38191	-0.288
Mof_N 	N 	0.95456	0.17988	0.73738	-0.302
Mof_N 	N 	0.8124	0.09101	0.66891	-0.284
Mof_N 	N 	0.9538	0.11761	0.6002	-0.287
Mof_N 	N 	0.97164	0.04231	0.6604	-0.287
Mof_N 	N 	0.95456	0.5575	0.82012	-0.302
Mof_N 	N 	0.8124	0.5779	0.90899	-0.283
Mof_N 	N 	0.9538	0.48259	0.88239	-0.287
Mof_N 	N 	0.97164	0.61809	0.95769	-0.287
Mof_N 	N 	0.54544	0.17988	0.4425	-0.303
Mof_N 	N 	0.6876	0.09101	0.4221	-0.284
Mof_N 	N 	0.5462	0.11761	0.51741	-0.288
Mof_N 	N 	0.52836	0.04231	0.38191	-0.288
Mof_N 	N 	0.54544	0.5575	0.73738	-0.303
Mof_N 	N 	0.6876	0.5779	0.66891	-0.284
Mof_N 	N 	0.5462	0.48259	0.6002	-0.288
Mof_N 	N 	0.52836	0.61809	0.6604	-0.289
Mof_N 	N 	0.54544	0.26262	0.82012	-0.303
Mof_N 	N 	0.6876	0.33109	0.90899	-0.283
Mof_N 	N 	0.5462	0.3998	0.88239	-0.288
Mof_N 	N 	0.52836	0.3396	0.95769	-0.288
Mof_N 	N 	0.04544	0.82012	0.5575	-0.304
Mof_N 	N 	0.1876	0.90899	0.5779	-0.284
Mof_N 	N 	0.0462	0.88239	0.48259	-0.289
Mof_N 	N 	0.02836	0.95769	0.61809	-0.287
Mof_N 	N 	0.04544	0.4425	0.26262	-0.304
Mof_N 	N 	0.1876	0.4221	0.33109	-0.284
Mof_N 	N 	0.0462	0.51741	0.3998	-0.289
Mof_N 	N 	0.02836	0.38191	0.3396	-0.288
Mof_N 	N 	0.04544	0.73738	0.17988	-0.304
Mof_N 	N 	0.1876	0.66891	0.09101	-0.284
Mof_N 	N 	0.0462	0.6002	0.11761	-0.289
Mof_N 	N 	0.02836	0.6604	0.04231	-0.287
Mof_N 	N 	0.75	0.33199	0.50153	-0.025
Mof_N 	N 	0.75	0.16954	0.66801	-0.025
Mof_N 	N 	0.75	0.49847	0.83046	-0.025
Mof_N 	N 	0.25	0.66801	0.49847	-0.025
Mof_N 	N 	0.25	0.83046	0.33199	-0.025
Mof_N 	N 	0.25	0.50153	0.16954	-0.025
Mof_N 	N 	0.25	0.83046	0.49847	-0.025
Mof_N 	N 	0.25	0.50153	0.33199	-0.025
Mof_N 	N 	0.25	0.66801	0.16954	-0.025
Mof_N 	N 	0.75	0.16954	0.50153	-0.025
Mof_N 	N 	0.75	0.49847	0.66801	-0.025
Mof_N 	N 	0.75	0.33199	0.83046	-0.025
Mof_O 	O 	0.69035	0.33212	0.52274	-0.167
Mof_O 	O 	0.69035	0.19062	0.66788	-0.167
Mof_O 	O 	0.69035	0.47726	0.80938	-0.167
Mof_O 	O 	0.19035	0.66788	0.47726	-0.167
Mof_O 	O 	0.19035	0.80938	0.33212	-0.167
Mof_O 	O 	0.19035	0.52274	0.19062	-0.167
Mof_O 	O 	0.30965	0.80938	0.47726	-0.167
Mof_O 	O 	0.30965	0.52274	0.33212	-0.167
Mof_O 	O 	0.30965	0.66788	0.19062	-0.167
Mof_O 	O 	0.80965	0.19062	0.52274	-0.167
Mof_O 	O 	0.80965	0.47726	0.66788	-0.167
Mof_O 	O 	0.80965	0.33212	0.80938	-0.167
Mof_O 	O 	0.30965	0.66788	0.47726	-0.167
Mof_O 	O 	0.30965	0.80938	0.33212	-0.167
Mof_O 	O 	0.30965	0.52274	0.19062	-0.167
Mof_O 	O 	0.80965	0.33212	0.52274	-0.167
Mof_O 	O 	0.80965	0.19062	0.66788	-0.167
Mof_O 	O 	0.80965	0.47726	0.80938	-0.167
Mof_O 	O 	0.69035	0.19062	0.52274	-0.167
Mof_O 	O 	0.69035	0.47726	0.66788	-0.167
Mof_O 	O 	0.69035	0.33212	0.80938	-0.167
Mof_O 	O 	0.19035	0.80938	0.47726	-0.167
Mof_O 	O 	0.19035	0.52274	0.33212	-0.167
Mof_O 	O 	0.19035	0.66788	0.19062	-0.167
_end
