data_functionalizedCrystal
_audit_creation_method	'EQeq! by Chris Wilmer'
_symmetry_space_group_name_H-M	'P1'
_symmetry_Int_Tables_number	1
_symmetry_cell_setting	triclinic
loop_
_symmetry_equiv_pos_as_xyz
  x,y,z
_cell_length_a	10.097
_cell_length_b	12.8101
_cell_length_c	10.9229
_cell_angle_alpha	90
_cell_angle_beta	102.581
_cell_angle_gamma	90
loop_
_atom_site_label
_atom_site_type_symbol
_atom_site_fract_x
_atom_site_fract_y
_atom_site_fract_z
_atom_site_charge
Mof_Zn	Zn	0.73124	0.35523	0.27988	1.214
Mof_N 	N 	0.2584	0.7411	0.5739	-0.236
Mof_N 	N 	0.2655	0.8462	0.5881	-0.048
Mof_N 	N 	0.2806	0.8859	0.4818	-0.047
Mof_N 	N 	0.2818	0.8107	0.3977	-0.232
Mof_O 	O 	0.8895	0.4528	0.3059	-0.409
Mof_O 	O 	0.0002	0.3063	0.2859	-0.293
Mof_O 	O 	0.4752	0.3254	0.2491	-0.312
Mof_O 	O 	0.5995	0.4667	0.3054	-0.398
Mof_C 	C 	0.9966	0.401	0.3037	0.308
Mof_C 	C 	0.4867	0.4166	0.2861	0.294
Mof_C 	C 	0.2678	0.7229	0.4578	0.145
Mof_C 	C 	0.1286	0.463	0.3293	-0.046
Mof_C 	C 	0.2422	0.4174	0.2982	-0.004
Mof_H 	H 	0.2356	0.3511	0.2629	0.075
Mof_C 	C 	0.3656	0.4706	0.3197	-0.044
Mof_C 	C 	0.3752	0.5715	0.3696	-0.011
Mof_H 	H 	0.4568	0.6078	0.382	0.06
Mof_C 	C 	0.2605	0.6177	0.4009	-0.069
Mof_C 	C 	0.1377	0.5631	0.38	-0.009
Mof_H 	H 	0.0617	0.5938	0.4	0.059
Mof_Zn	Zn	0.26876	0.85523	0.22012	1.215
Mof_N 	N 	0.7416	0.2411	0.9261	-0.234
Mof_N 	N 	0.7345	0.3462	0.9119	-0.048
Mof_N 	N 	0.7194	0.3859	0.0182	-0.047
Mof_N 	N 	0.7182	0.3107	0.1023	-0.231
Mof_O 	O 	0.1105	0.9528	0.1941	-0.408
Mof_O 	O 	0.9998	0.8063	0.2141	-0.289
Mof_O 	O 	0.5248	0.8254	0.2509	-0.311
Mof_O 	O 	0.4005	0.9667	0.1946	-0.397
Mof_C 	C 	0.0034	0.901	0.1963	0.3
Mof_C 	C 	0.5133	0.9166	0.2139	0.292
Mof_C 	C 	0.7322	0.2229	0.0422	0.143
Mof_C 	C 	0.8714	0.963	0.1707	-0.033
Mof_C 	C 	0.7578	0.9174	0.2018	-0.012
Mof_H 	H 	0.7644	0.8511	0.2371	0.078
Mof_C 	C 	0.6344	0.9706	0.1803	-0.037
Mof_C 	C 	0.6248	0.0715	0.1304	-0.02
Mof_H 	H 	0.5432	0.1078	0.118	0.063
Mof_C 	C 	0.7395	0.1177	0.0991	-0.062
Mof_C 	C 	0.8623	0.0631	0.12	-0.022
Mof_H 	H 	0.9383	0.0938	0.1	0.062
Mof_Zn	Zn	0.26876	0.64477	0.72012	1.215
Mof_N 	N 	0.7416	0.2589	0.4261	-0.235
Mof_N 	N 	0.7345	0.1538	0.4119	-0.048
Mof_N 	N 	0.7194	0.1141	0.5182	-0.047
Mof_N 	N 	0.7182	0.1893	0.6023	-0.232
Mof_O 	O 	0.1105	0.5472	0.6941	-0.409
Mof_O 	O 	0.9998	0.6937	0.7141	-0.293
Mof_O 	O 	0.5248	0.6746	0.7509	-0.312
Mof_O 	O 	0.4005	0.5333	0.6946	-0.398
Mof_C 	C 	0.0034	0.599	0.6963	0.308
Mof_C 	C 	0.5133	0.5834	0.7139	0.294
Mof_C 	C 	0.7322	0.2771	0.5422	0.145
Mof_C 	C 	0.8714	0.537	0.6707	-0.046
Mof_C 	C 	0.7578	0.5826	0.7018	-0.004
Mof_H 	H 	0.7644	0.6489	0.7371	0.075
Mof_C 	C 	0.6344	0.5294	0.6803	-0.044
Mof_C 	C 	0.6248	0.4285	0.6304	-0.011
Mof_H 	H 	0.5432	0.3922	0.618	0.06
Mof_C 	C 	0.7395	0.3823	0.5991	-0.069
Mof_C 	C 	0.8623	0.4369	0.62	-0.009
Mof_H 	H 	0.9383	0.4062	0.6	0.059
Mof_Zn	Zn	0.73124	0.14477	0.77988	1.215
Mof_N 	N 	0.2584	0.7589	0.0739	-0.234
Mof_N 	N 	0.2655	0.6538	0.0881	-0.048
Mof_N 	N 	0.2806	0.6141	0.9818	-0.047
Mof_N 	N 	0.2818	0.6893	0.8977	-0.231
Mof_O 	O 	0.8895	0.0472	0.8059	-0.408
Mof_O 	O 	0.0002	0.1937	0.7859	-0.289
Mof_O 	O 	0.4752	0.1746	0.7491	-0.311
Mof_O 	O 	0.5995	0.0333	0.8054	-0.397
Mof_C 	C 	0.9966	0.099	0.8037	0.3
Mof_C 	C 	0.4867	0.0834	0.7861	0.292
Mof_C 	C 	0.2678	0.7771	0.9578	0.143
Mof_C 	C 	0.1286	0.037	0.8293	-0.033
Mof_C 	C 	0.2422	0.0826	0.7982	-0.012
Mof_H 	H 	0.2356	0.1489	0.7629	0.078
Mof_C 	C 	0.3656	0.0294	0.8197	-0.037
Mof_C 	C 	0.3752	0.9285	0.8696	-0.02
Mof_H 	H 	0.4568	0.8922	0.882	0.063
Mof_C 	C 	0.2605	0.8823	0.9009	-0.062
Mof_C 	C 	0.1377	0.9369	0.88	-0.022
Mof_H 	H 	0.0617	0.9062	0.9	0.062
_end
