data_functionalizedCrystal
_audit_creation_method	'EQeq! by Chris Wilmer'
_symmetry_space_group_name_H-M	'P1'
_symmetry_Int_Tables_number	1
_symmetry_cell_setting	triclinic
loop_
_symmetry_equiv_pos_as_xyz
  x,y,z
_cell_length_a	11.44
_cell_length_b	12.288
_cell_length_c	36.854
_cell_angle_alpha	90
_cell_angle_beta	90
_cell_angle_gamma	117.642
loop_
_atom_site_label
_atom_site_type_symbol
_atom_site_fract_x
_atom_site_fract_y
_atom_site_fract_z
_atom_site_charge
Mof_Ce	Ce	0.13023	0.62999	0.53649	2.594
Mof_Ce	Ce	0.36977	0.37001	0.03649	2.593
Mof_Ce	Ce	0.86977	0.37001	0.46351	2.594
Mof_Ce	Ce	0.63023	0.62999	0.96351	2.593
Mof_H 	H 	0.4517	0.4506	0.1717	0.005
Mof_H 	H 	0.5268	0.1826	0.1353	-0.005
Mof_H 	H 	0.5753	0.1478	0.1937	0.14
Mof_H 	H 	0.5012	0.4164	0.2299	0.118
Mof_H 	H 	0.5412	0.2925	0.271	0.143
Mof_H 	H 	0.8112	0.0677	0.405	0.146
Mof_H 	H 	0.4547	0.2974	0.3704	0.145
Mof_H 	H 	0.254	0.2734	0.3924	0.149
Mof_H 	H 	0.686	0.0459	0.3003	0.048
Mof_H 	H 	0.6426	0.1137	0.4049	-0.033
Mof_H 	H 	0.0203	0.9238	0.4779	-0.048
Mof_H 	H 	0.5895	0.3123	0.3248	0.001
Mof_H 	H 	0.952	0.0483	0.4472	0.131
Mof_H 	H 	0.7888	0.6408	0.4158	-0.039
Mof_H 	H 	0.7203	0.7642	0.3844	0.166
Mof_H 	H 	0.4783	0.5773	0.4748	-0.04
Mof_H 	H 	0.583	0.4803	0.4459	0.159
Mof_H 	H 	0.1468	0.3629	0.4254	-0.066
Mof_H 	H 	0.0483	0.5494	0.6717	0.005
Mof_H 	H 	0.9732	0.8174	0.6353	-0.005
Mof_H 	H 	0.9247	0.8522	0.6937	0.139
Mof_H 	H 	0.9988	0.5836	0.7299	0.118
Mof_H 	H 	0.9588	0.7075	0.771	0.143
Mof_H 	H 	0.6888	0.9323	0.905	0.145
Mof_H 	H 	0.0453	0.7026	0.8704	0.145
Mof_H 	H 	0.246	0.7266	0.8924	0.149
Mof_H 	H 	0.814	0.9541	0.8003	0.048
Mof_H 	H 	0.8574	0.8863	0.9049	-0.033
Mof_H 	H 	0.4797	0.0762	0.9779	-0.048
Mof_H 	H 	0.9105	0.6877	0.8248	0.001
Mof_H 	H 	0.548	0.9517	0.9472	0.13
Mof_H 	H 	0.7112	0.3592	0.9158	-0.038
Mof_H 	H 	0.7797	0.2358	0.8844	0.166
Mof_H 	H 	0.0217	0.4227	0.9748	-0.04
Mof_H 	H 	0.917	0.5197	0.9459	0.159
Mof_H 	H 	0.3532	0.6371	0.9254	-0.065
Mof_H 	H 	0.5483	0.5494	0.8283	0.005
Mof_H 	H 	0.4732	0.8174	0.8647	-0.005
Mof_H 	H 	0.4247	0.8522	0.8063	0.14
Mof_H 	H 	0.4988	0.5836	0.7701	0.118
Mof_H 	H 	0.4588	0.7075	0.729	0.143
Mof_H 	H 	0.1888	0.9323	0.595	0.146
Mof_H 	H 	0.5453	0.7026	0.6296	0.145
Mof_H 	H 	0.746	0.7266	0.6076	0.149
Mof_H 	H 	0.314	0.9541	0.6997	0.048
Mof_H 	H 	0.3574	0.8863	0.5951	-0.033
Mof_H 	H 	0.9797	0.0762	0.5221	-0.048
Mof_H 	H 	0.4105	0.6877	0.6752	0.001
Mof_H 	H 	0.048	0.9517	0.5528	0.131
Mof_H 	H 	0.2112	0.3592	0.5842	-0.039
Mof_H 	H 	0.2797	0.2358	0.6156	0.166
Mof_H 	H 	0.5217	0.4227	0.5252	-0.04
Mof_H 	H 	0.417	0.5197	0.5541	0.159
Mof_H 	H 	0.8532	0.6371	0.5746	-0.066
Mof_H 	H 	0.9517	0.4506	0.3283	0.005
Mof_H 	H 	0.0268	0.1826	0.3647	-0.005
Mof_H 	H 	0.0753	0.1478	0.3063	0.139
Mof_H 	H 	0.0012	0.4164	0.2701	0.118
Mof_H 	H 	0.0412	0.2925	0.229	0.143
Mof_H 	H 	0.3112	0.0677	0.095	0.145
Mof_H 	H 	0.9547	0.2974	0.1296	0.145
Mof_H 	H 	0.754	0.2734	0.1076	0.149
Mof_H 	H 	0.186	0.0459	0.1997	0.048
Mof_H 	H 	0.1426	0.1137	0.0951	-0.033
Mof_H 	H 	0.5203	0.9238	0.0221	-0.048
Mof_H 	H 	0.0895	0.3123	0.1752	0.001
Mof_H 	H 	0.452	0.0483	0.0528	0.13
Mof_H 	H 	0.2888	0.6408	0.0842	-0.038
Mof_H 	H 	0.2203	0.7642	0.1156	0.166
Mof_H 	H 	0.9783	0.5773	0.0252	-0.04
Mof_H 	H 	0.083	0.4803	0.0541	0.159
Mof_H 	H 	0.6468	0.3629	0.0746	-0.065
Mof_C 	C 	0.4472	0.3389	0.10967	0.35
Mof_C 	C 	0.4823	0.3182	0.14717	-0.162
Mof_C 	C 	0.476	0.3893	0.17599	0.125
Mof_C 	C 	0.5207	0.2295	0.15432	0.128
Mof_C 	C 	0.5503	0.2087	0.18936	-0.238
Mof_C 	C 	0.5059	0.3689	0.21083	-0.232
Mof_C 	C 	0.5426	0.2785	0.21762	0.231
Mof_C 	C 	0.5956	0.302	0.39805	0.338
Mof_C 	C 	0.432	0.3769	0.4139	0.3
Mof_C 	C 	0.3009	0.3365	0.4087	-0.339
Mof_C 	C 	0.6805	0.0734	0.35388	-0.105
Mof_C 	C 	0.6702	0.0931	0.31747	0.038
Mof_C 	C 	0.3018	0.485	0.45201	-0.31
Mof_C 	C 	0.2341	0.5464	0.47217	0.519
Mof_C 	C 	0.9102	0.7686	0.45024	-0.303
Mof_C 	C 	0.9517	0.6834	0.4694	0.582
Mof_C 	C 	0.6225	0.2332	0.36901	-0.157
Mof_C 	C 	0.6477	0.1354	0.3806	0.065
Mof_C 	C 	0.9592	0.8911	0.45919	0.219
Mof_C 	C 	0.6125	0.2523	0.33209	0.057
Mof_C 	C 	0.8283	0.9187	0.41274	0.271
Mof_C 	C 	0.9185	0.9661	0.44071	-0.307
Mof_C 	C 	0.6363	0.1833	0.30613	-0.104
Mof_C 	C 	0.8219	0.723	0.4223	0.23
Mof_C 	C 	0.7803	0.7969	0.4033	-0.313
Mof_C 	C 	0.4314	0.5161	0.458	0.234
Mof_C 	C 	0.7149	0.9739	0.36425	0.253
Mof_C 	C 	0.4964	0.4603	0.44	-0.33
Mof_C 	C 	0.6296	0.1986	0.26605	0.261
Mof_C 	C 	0.237	0.3918	0.4286	0.25
Mof_C 	C 	0.0528	0.6611	0.60967	0.349
Mof_C 	C 	0.0177	0.6818	0.64717	-0.161
Mof_C 	C 	0.024	0.6107	0.67599	0.126
Mof_C 	C 	0.9793	0.7705	0.65432	0.128
Mof_C 	C 	0.9497	0.7913	0.68936	-0.238
Mof_C 	C 	0.9941	0.6311	0.71083	-0.233
Mof_C 	C 	0.9574	0.7215	0.71762	0.231
Mof_C 	C 	0.9044	0.698	0.89805	0.338
Mof_C 	C 	0.068	0.6231	0.9139	0.3
Mof_C 	C 	0.1991	0.6635	0.9087	-0.339
Mof_C 	C 	0.8195	0.9266	0.85388	-0.106
Mof_C 	C 	0.8298	0.9069	0.81747	0.039
Mof_C 	C 	0.1982	0.515	0.95201	-0.309
Mof_C 	C 	0.2659	0.4536	0.97217	0.519
Mof_C 	C 	0.5898	0.2314	0.95024	-0.302
Mof_C 	C 	0.5483	0.3166	0.9694	0.582
Mof_C 	C 	0.8775	0.7668	0.86901	-0.157
Mof_C 	C 	0.8523	0.8646	0.8806	0.066
Mof_C 	C 	0.5408	0.1089	0.95919	0.219
Mof_C 	C 	0.8875	0.7477	0.83209	0.057
Mof_C 	C 	0.6717	0.0813	0.91274	0.271
Mof_C 	C 	0.5815	0.0339	0.94071	-0.306
Mof_C 	C 	0.8637	0.8167	0.80613	-0.105
Mof_C 	C 	0.6781	0.277	0.9223	0.23
Mof_C 	C 	0.7197	0.2031	0.9033	-0.312
Mof_C 	C 	0.0686	0.4839	0.958	0.233
Mof_C 	C 	0.7851	0.0261	0.86425	0.254
Mof_C 	C 	0.0036	0.5397	0.94	-0.329
Mof_C 	C 	0.8704	0.8014	0.76605	0.261
Mof_C 	C 	0.263	0.6082	0.9286	0.249
Mof_C 	C 	0.5528	0.6611	0.89033	0.35
Mof_C 	C 	0.5177	0.6818	0.85283	-0.162
Mof_C 	C 	0.524	0.6107	0.82401	0.125
Mof_C 	C 	0.4793	0.7705	0.84568	0.128
Mof_C 	C 	0.4497	0.7913	0.81064	-0.238
Mof_C 	C 	0.4941	0.6311	0.78917	-0.232
Mof_C 	C 	0.4574	0.7215	0.78238	0.231
Mof_C 	C 	0.4044	0.698	0.60195	0.338
Mof_C 	C 	0.568	0.6231	0.5861	0.3
Mof_C 	C 	0.6991	0.6635	0.5913	-0.339
Mof_C 	C 	0.3195	0.9266	0.64612	-0.105
Mof_C 	C 	0.3298	0.9069	0.68253	0.038
Mof_C 	C 	0.6982	0.515	0.54799	-0.31
Mof_C 	C 	0.7659	0.4536	0.52783	0.519
Mof_C 	C 	0.0898	0.2314	0.54976	-0.303
Mof_C 	C 	0.0483	0.3166	0.5306	0.582
Mof_C 	C 	0.3775	0.7668	0.63099	-0.157
Mof_C 	C 	0.3523	0.8646	0.6194	0.065
Mof_C 	C 	0.0408	0.1089	0.54081	0.219
Mof_C 	C 	0.3875	0.7477	0.66791	0.057
Mof_C 	C 	0.1717	0.0813	0.58726	0.271
Mof_C 	C 	0.0815	0.0339	0.55929	-0.307
Mof_C 	C 	0.3637	0.8167	0.69387	-0.104
Mof_C 	C 	0.1781	0.277	0.5777	0.23
Mof_C 	C 	0.2197	0.2031	0.5967	-0.313
Mof_C 	C 	0.5686	0.4839	0.542	0.234
Mof_C 	C 	0.2851	0.0261	0.63575	0.253
Mof_C 	C 	0.5036	0.5397	0.56	-0.33
Mof_C 	C 	0.3704	0.8014	0.73395	0.261
Mof_C 	C 	0.763	0.6082	0.5714	0.25
Mof_C 	C 	0.9472	0.3389	0.39033	0.349
Mof_C 	C 	0.9823	0.3182	0.35283	-0.161
Mof_C 	C 	0.976	0.3893	0.32401	0.126
Mof_C 	C 	0.0207	0.2295	0.34568	0.128
Mof_C 	C 	0.0503	0.2087	0.31064	-0.238
Mof_C 	C 	0.0059	0.3689	0.28917	-0.233
Mof_C 	C 	0.0426	0.2785	0.28238	0.231
Mof_C 	C 	0.0956	0.302	0.10195	0.338
Mof_C 	C 	0.932	0.3769	0.0861	0.3
Mof_C 	C 	0.8009	0.3365	0.0913	-0.339
Mof_C 	C 	0.1805	0.0734	0.14612	-0.106
Mof_C 	C 	0.1702	0.0931	0.18253	0.039
Mof_C 	C 	0.8018	0.485	0.04799	-0.309
Mof_C 	C 	0.7341	0.5464	0.02783	0.519
Mof_C 	C 	0.4102	0.7686	0.04976	-0.302
Mof_C 	C 	0.4517	0.6834	0.0306	0.582
Mof_C 	C 	0.1225	0.2332	0.13099	-0.157
Mof_C 	C 	0.1477	0.1354	0.1194	0.066
Mof_C 	C 	0.4592	0.8911	0.04081	0.219
Mof_C 	C 	0.1125	0.2523	0.16791	0.057
Mof_C 	C 	0.3283	0.9187	0.08726	0.271
Mof_C 	C 	0.4185	0.9661	0.05929	-0.306
Mof_C 	C 	0.1363	0.1833	0.19387	-0.105
Mof_C 	C 	0.3219	0.723	0.0777	0.23
Mof_C 	C 	0.2803	0.7969	0.0967	-0.312
Mof_C 	C 	0.9314	0.5161	0.042	0.233
Mof_C 	C 	0.2149	0.9739	0.13575	0.254
Mof_C 	C 	0.9964	0.4603	0.06	-0.329
Mof_C 	C 	0.1296	0.1986	0.23395	0.261
Mof_C 	C 	0.737	0.3918	0.0714	0.249
Mof_N 	N 	0.5685	0.26	0.25457	-0.27
Mof_N 	N 	0.7875	0.9972	0.39509	-0.279
Mof_N 	N 	0.491	0.3216	0.39131	-0.302
Mof_N 	N 	0.9315	0.74	0.75457	-0.27
Mof_N 	N 	0.7125	0.0028	0.89509	-0.278
Mof_N 	N 	0.009	0.6784	0.89131	-0.301
Mof_N 	N 	0.4315	0.74	0.74543	-0.27
Mof_N 	N 	0.2125	0.0028	0.60491	-0.279
Mof_N 	N 	0.509	0.6784	0.60869	-0.302
Mof_N 	N 	0.0685	0.26	0.24543	-0.27
Mof_N 	N 	0.2875	0.9972	0.10491	-0.278
Mof_N 	N 	0.991	0.3216	0.10869	-0.301
Mof_O 	O 	0.0387	0.7262	0.49367	-0.625
Mof_O 	O 	0.6583	0.3317	0.42667	-0.482
Mof_O 	O 	0.4356	0.4327	0.10243	-0.459
Mof_O 	O 	0.4248	0.2554	0.08576	-0.503
Mof_O 	O 	0.8946	0.5741	0.45871	-0.624
Mof_O 	O 	0.1111	0.5079	0.46837	-0.67
Mof_O 	O 	0.6867	0.1621	0.2454	-0.246
Mof_O 	O 	0.3005	0.6325	0.49322	-0.564
Mof_O 	O 	0.6784	0.8818	0.3461	-0.243
Mof_O 	O 	0.4613	0.2738	0.99367	-0.625
Mof_O 	O 	0.8417	0.6683	0.92667	-0.482
Mof_O 	O 	0.0644	0.5673	0.60243	-0.459
Mof_O 	O 	0.0752	0.7446	0.58576	-0.503
Mof_O 	O 	0.6054	0.4259	0.95871	-0.624
Mof_O 	O 	0.3889	0.4921	0.96837	-0.67
Mof_O 	O 	0.8133	0.8379	0.7454	-0.246
Mof_O 	O 	0.1995	0.3675	0.99322	-0.564
Mof_O 	O 	0.8216	0.1182	0.8461	-0.243
Mof_O 	O 	0.9613	0.2738	0.50633	-0.625
Mof_O 	O 	0.3417	0.6683	0.57333	-0.482
Mof_O 	O 	0.5644	0.5673	0.89757	-0.459
Mof_O 	O 	0.5752	0.7446	0.91424	-0.503
Mof_O 	O 	0.1054	0.4259	0.54129	-0.624
Mof_O 	O 	0.8889	0.4921	0.53163	-0.67
Mof_O 	O 	0.3133	0.8379	0.7546	-0.246
Mof_O 	O 	0.6995	0.3675	0.50678	-0.564
Mof_O 	O 	0.3216	0.1182	0.6539	-0.243
Mof_O 	O 	0.5387	0.7262	0.00633	-0.625
Mof_O 	O 	0.1583	0.3317	0.07333	-0.482
Mof_O 	O 	0.9356	0.4327	0.39757	-0.459
Mof_O 	O 	0.9248	0.2554	0.41424	-0.503
Mof_O 	O 	0.3946	0.5741	0.04129	-0.624
Mof_O 	O 	0.6111	0.5079	0.03163	-0.67
Mof_O 	O 	0.1867	0.1621	0.2546	-0.246
Mof_O 	O 	0.8005	0.6325	0.00678	-0.564
Mof_O 	O 	0.1784	0.8818	0.1539	-0.243
_end
