data_functionalizedCrystal
_audit_creation_method	'EQeq! by Chris Wilmer'
_symmetry_space_group_name_H-M	'P1'
_symmetry_Int_Tables_number	1
_symmetry_cell_setting	triclinic
loop_
_symmetry_equiv_pos_as_xyz
  x,y,z
_cell_length_a	6.9128
_cell_length_b	9.24
_cell_length_c	16.095
_cell_angle_alpha	90
_cell_angle_beta	90
_cell_angle_gamma	90
loop_
_atom_site_label
_atom_site_type_symbol
_atom_site_fract_x
_atom_site_fract_y
_atom_site_fract_z
_atom_site_charge
Mof_Mn	Mn	0.75	0.19779	0.16521	0.819
Mof_Mn	Mn	0.25	0.30221	0.66521	0.766
Mof_Mn	Mn	0.25	0.80221	0.83479	0.853
Mof_Mn	Mn	0.75	0.69779	0.33479	0.886
Mof_Mn	Mn	0.5	0.5	0.5	0.888
Mof_Mn	Mn	0.5	0	-0	0.646
Mof_Mn	Mn	-7.91247e-33	0.5	0.5	0.761
Mof_Mn	Mn	-0	0	-0	0.523
Mof_H 	H 	0.1423	0.3667	0.2879	0.141
Mof_H 	H 	0.8577	0.1333	0.7879	0.194
Mof_H 	H 	0.6423	0.6333	0.7121	0.184
Mof_H 	H 	0.3577	0.8667	0.2121	0.184
Mof_H 	H 	0.8577	0.6333	0.7121	0.206
Mof_H 	H 	0.1423	0.8667	0.2121	0.164
Mof_H 	H 	0.3577	0.3667	0.2879	0.162
Mof_H 	H 	0.6423	0.1333	0.7879	0.172
Mof_H 	H 	0.75	0.205	0.009	0.242
Mof_H 	H 	0.25	0.295	0.509	0.24
Mof_H 	H 	0.25	0.795	0.991	0.258
Mof_H 	H 	0.75	0.705	0.491	0.282
Mof_C 	C 	0.25	0.247	0.2004	0.195
Mof_C 	C 	0.75	0.253	0.7004	0.229
Mof_C 	C 	0.75	0.753	0.7996	0.254
Mof_C 	C 	0.25	0.747	0.2996	0.22
Mof_S 	S 	0.75	0.33681	0.35526	0.765
Mof_S 	S 	0.25	0.16319	0.85526	0.74
Mof_S 	S 	0.25	0.66319	0.64474	0.76
Mof_S 	S 	0.75	0.83681	0.14474	0.743
Mof_N 	N 	0.3434	0.1187	0.10019	-0.136
Mof_N 	N 	0.411	0.1988	0.16298	-0.181
Mof_N 	N 	0.6566	0.3813	0.60019	-0.126
Mof_N 	N 	0.589	0.3012	0.66298	-0.174
Mof_N 	N 	0.8434	0.8813	0.89981	-0.039
Mof_N 	N 	0.911	0.8012	0.83702	-0.137
Mof_N 	N 	0.1566	0.6187	0.39981	-0.133
Mof_N 	N 	0.089	0.6988	0.33702	-0.198
Mof_N 	N 	0.6566	0.8813	0.89981	-0.063
Mof_N 	N 	0.589	0.8012	0.83702	-0.163
Mof_N 	N 	0.3434	0.6187	0.39981	-0.128
Mof_N 	N 	0.411	0.6988	0.33702	-0.174
Mof_N 	N 	0.1566	0.1187	0.10019	-0.141
Mof_N 	N 	0.089	0.1988	0.16298	-0.205
Mof_N 	N 	0.8434	0.3813	0.60019	-0.1
Mof_N 	N 	0.911	0.3012	0.66298	-0.147
Mof_N 	N 	0.25	0.3372	0.2672	-0.339
Mof_N 	N 	0.75	0.1628	0.7672	-0.349
Mof_N 	N 	0.75	0.6628	0.7328	-0.353
Mof_N 	N 	0.25	0.8372	0.2328	-0.347
Mof_O 	O 	0.5766	0.3323	0.40792	-0.44
Mof_O 	O 	0.4234	0.1677	0.90792	-0.365
Mof_O 	O 	0.0766	0.6677	0.59208	-0.447
Mof_O 	O 	0.9234	0.8323	0.09208	-0.34
Mof_O 	O 	0.4234	0.6677	0.59208	-0.418
Mof_O 	O 	0.5766	0.8323	0.09208	-0.397
Mof_O 	O 	0.9234	0.3323	0.40792	-0.382
Mof_O 	O 	0.0766	0.1677	0.90792	-0.393
Mof_O 	O 	0.75	0.4692	0.3046	-0.421
Mof_O 	O 	0.75	0.2107	0.2992	-0.411
Mof_O 	O 	0.75	0.1262	0.03498	-0.597
Mof_O 	O 	0.25	0.0308	0.8046	-0.477
Mof_O 	O 	0.25	0.2893	0.7992	-0.403
Mof_O 	O 	0.25	0.3738	0.53498	-0.64
Mof_O 	O 	0.25	0.5308	0.6954	-0.439
Mof_O 	O 	0.25	0.7893	0.7008	-0.398
Mof_O 	O 	0.25	0.8738	0.96502	-0.504
Mof_O 	O 	0.75	0.9692	0.1954	-0.357
Mof_O 	O 	0.75	0.7107	0.2008	-0.393
Mof_O 	O 	0.75	0.6262	0.46502	-0.622
_end
