data_functionalizedCrystal
_audit_creation_method	'EQeq! by Chris Wilmer'
_symmetry_space_group_name_H-M	'P1'
_symmetry_Int_Tables_number	1
_symmetry_cell_setting	triclinic
loop_
_symmetry_equiv_pos_as_xyz
  x,y,z
_cell_length_a	11.6599
_cell_length_b	10.9336
_cell_length_c	11.7669
_cell_angle_alpha	90
_cell_angle_beta	90
_cell_angle_gamma	90
loop_
_atom_site_label
_atom_site_type_symbol
_atom_site_fract_x
_atom_site_fract_y
_atom_site_fract_z
_atom_site_charge
Mof_Mn	Mn	0.28234	0.27214	0.31355	0.996
Mof_Mn	Mn	0.31784	0.74035	0.0983	0.936
Mof_P 	P 	0.21359	0.97898	0.24598	0.631
Mof_O 	O 	0.2288	0.1132	0.2385	-0.368
Mof_O 	O 	0.28	0.9068	0.1629	-0.383
Mof_O 	O 	0.2456	0.9295	0.3674	-0.443
Mof_H 	H 	0.2227	0.9776	0.4158	0.305
Mof_O 	O 	0.0819	0.955	0.2307	-0.449
Mof_H 	H 	0.0717	0.8841	0.2105	0.295
Mof_O 	O 	0.2811	0.3595	0.1452	-0.295
Mof_O 	O 	0.3108	0.5398	0.0606	-0.35
Mof_O 	O 	0.3024	0.4692	0.3483	-0.298
Mof_O 	O 	0.3112	0.6505	0.2619	-0.291
Mof_O 	O 	0.3752	0.7748	0.9197	-0.396
Mof_O 	O 	0.5304	0.7643	0.8086	-0.329
Mof_O 	O 	0.5063	0.7418	0.1031	-0.303
Mof_O 	O 	0.6611	0.7601	0.9924	-0.301
Mof_C 	C 	0.2999	0.4728	0.1464	0.245
Mof_C 	C 	0.3055	0.5366	0.2642	0.256
Mof_C 	C 	0.4802	0.7648	0.9016	0.362
Mof_C 	C 	0.5561	0.7546	0.0082	0.111
Mof_Mn	Mn	0.71766	0.72786	0.81355	1.008
Mof_Mn	Mn	0.68216	0.25965	0.5983	1.005
Mof_P 	P 	0.78641	0.02102	0.74598	0.635
Mof_O 	O 	0.7712	0.8868	0.7385	-0.359
Mof_O 	O 	0.72	0.0932	0.6629	-0.374
Mof_O 	O 	0.7544	0.0705	0.8674	-0.436
Mof_H 	H 	0.7773	0.0224	0.9158	0.323
Mof_O 	O 	0.9181	0.045	0.7307	-0.446
Mof_H 	H 	0.9283	0.1159	0.7105	0.299
Mof_O 	O 	0.7189	0.6405	0.6452	-0.28
Mof_O 	O 	0.6892	0.4602	0.5606	-0.32
Mof_O 	O 	0.6976	0.5308	0.8483	-0.284
Mof_O 	O 	0.6888	0.3495	0.7619	-0.287
Mof_O 	O 	0.6248	0.2252	0.4197	-0.402
Mof_O 	O 	0.4696	0.2357	0.3086	-0.314
Mof_O 	O 	0.4937	0.2582	0.6031	-0.335
Mof_O 	O 	0.3389	0.2399	0.4924	-0.409
Mof_C 	C 	0.7001	0.5272	0.6464	0.242
Mof_C 	C 	0.6945	0.4634	0.7642	0.259
Mof_C 	C 	0.5198	0.2352	0.4016	0.273
Mof_C 	C 	0.4439	0.2454	0.5082	0.269
Mof_Mn	Mn	0.78234	0.22786	0.31355	0.995
Mof_Mn	Mn	0.81784	0.75965	0.0983	0.934
Mof_P 	P 	0.71359	0.52102	0.24598	0.631
Mof_O 	O 	0.7288	0.3868	0.2385	-0.369
Mof_O 	O 	0.78	0.5932	0.1629	-0.383
Mof_O 	O 	0.7456	0.5705	0.3674	-0.444
Mof_H 	H 	0.7227	0.5224	0.4158	0.304
Mof_O 	O 	0.5819	0.545	0.2307	-0.452
Mof_H 	H 	0.5717	0.6159	0.2105	0.295
Mof_O 	O 	0.7811	0.1405	0.1452	-0.296
Mof_O 	O 	0.8108	0.9602	0.0606	-0.351
Mof_O 	O 	0.8024	0.0308	0.3483	-0.299
Mof_O 	O 	0.8112	0.8495	0.2619	-0.292
Mof_O 	O 	0.8752	0.7252	0.9197	-0.393
Mof_O 	O 	0.0304	0.7357	0.8086	-0.32
Mof_O 	O 	0.0063	0.7582	0.1031	-0.302
Mof_O 	O 	0.1611	0.7399	0.9924	-0.304
Mof_C 	C 	0.7999	0.0272	0.1464	0.247
Mof_C 	C 	0.8055	0.9634	0.2642	0.254
Mof_C 	C 	0.9802	0.7352	0.9016	0.346
Mof_C 	C 	0.0561	0.7454	0.0082	0.12
Mof_Mn	Mn	0.21766	0.77214	0.81355	1.01
Mof_Mn	Mn	0.18216	0.24035	0.5983	1.009
Mof_P 	P 	0.28641	0.47898	0.74598	0.637
Mof_O 	O 	0.2712	0.6132	0.7385	-0.36
Mof_O 	O 	0.22	0.4068	0.6629	-0.373
Mof_O 	O 	0.2544	0.4295	0.8674	-0.436
Mof_H 	H 	0.2773	0.4776	0.9158	0.324
Mof_O 	O 	0.4181	0.455	0.7307	-0.444
Mof_H 	H 	0.4283	0.3841	0.7105	0.299
Mof_O 	O 	0.2189	0.8595	0.6452	-0.28
Mof_O 	O 	0.1892	0.0398	0.5606	-0.323
Mof_O 	O 	0.1976	0.9692	0.8483	-0.277
Mof_O 	O 	0.1888	0.1505	0.7619	-0.284
Mof_O 	O 	0.1248	0.2748	0.4197	-0.405
Mof_O 	O 	0.9696	0.2643	0.3086	-0.321
Mof_O 	O 	0.9937	0.2418	0.6031	-0.336
Mof_O 	O 	0.8389	0.2601	0.4924	-0.407
Mof_C 	C 	0.2001	0.9728	0.6464	0.25
Mof_C 	C 	0.1945	0.0366	0.7642	0.251
Mof_C 	C 	0.0198	0.2648	0.4016	0.285
Mof_C 	C 	0.9439	0.2546	0.5082	0.262
_end
