data_functionalizedCrystal
_audit_creation_method	'EQeq! by Chris Wilmer'
_symmetry_space_group_name_H-M	'P1'
_symmetry_Int_Tables_number	1
_symmetry_cell_setting	triclinic
loop_
_symmetry_equiv_pos_as_xyz
  x,y,z
_cell_length_a	16.1475
_cell_length_b	12.516
_cell_length_c	19.8687
_cell_angle_alpha	90
_cell_angle_beta	93.321
_cell_angle_gamma	90
loop_
_atom_site_label
_atom_site_type_symbol
_atom_site_fract_x
_atom_site_fract_y
_atom_site_fract_z
_atom_site_charge
Mof_Zn	Zn	0.14325	0.56476	0.21031	1.222
Mof_O 	O 	0.70104	0.01174	0.4116	-0.452
Mof_O 	O 	0.81071	0.9635	0.35695	-0.486
Mof_O 	O 	0.0529	0.6138	0.28492	-0.36
Mof_O 	O 	0.04441	0.4598	0.23531	-0.381
Mof_O 	O 	0.73383	0.25219	0.36859	-0.484
Mof_O 	O 	0.8113	0.2137	0.28743	-0.502
Mof_O 	O 	0.64983	0.4653	0.76605	-0.473
Mof_O 	O 	0.77026	0.483	0.71794	-0.446
Mof_O 	O 	0.44199	0.835	0.61782	-0.408
Mof_O 	O 	0.43417	0.7401	0.70941	-0.31
Mof_C 	C 	0.7552	0.9454	0.39676	0.385
Mof_C 	C 	0.7544	0.8365	0.42671	-0.052
Mof_C 	C 	0.7951	0.7547	0.39656	-0.061
Mof_H 	H 	0.8263	0.7701	0.3599	0.071
Mof_C 	C 	0.7912	0.6509	0.41876	0.054
Mof_C 	C 	0.74759	0.6302	0.47567	-0.115
Mof_H 	H 	0.7453	0.5606	0.4919	0.079
Mof_C 	C 	0.70746	0.7108	0.50876	0.054
Mof_C 	C 	0.7098	0.8139	0.48323	-0.06
Mof_H 	H 	0.6815	0.8684	0.5039	0.073
Mof_C 	C 	0.0169	0.5269	0.2754	0.303
Mof_C 	C 	0.7902	0.2737	0.3328	0.414
Mof_C 	C 	0.9403	0.502	0.31111	-0.068
Mof_C 	C 	0.9032	0.4034	0.30564	0.024
Mof_H 	H 	0.9259	0.3507	0.2793	0.049
Mof_C 	C 	0.8313	0.382	0.33958	-0.106
Mof_C 	C 	0.7964	0.4621	0.37702	-0.001
Mof_H 	H 	0.7486	0.448	0.3994	0.053
Mof_C 	C 	0.8318	0.5626	0.38143	-0.013
Mof_C 	C 	0.9047	0.5819	0.34899	-0.023
Mof_H 	H 	0.9298	0.6487	0.3526	0.061
Mof_C 	C 	0.6954	0.5042	0.72314	0.406
Mof_C 	C 	0.4698	0.7647	0.6583	0.319
Mof_C 	C 	0.6566	0.5827	0.67387	-0.095
Mof_C 	C 	0.5828	0.6326	0.68676	0.025
Mof_H 	H 	0.555	0.6138	0.7247	0.056
Mof_C 	C 	0.5502	0.7103	0.64324	-0.064
Mof_C 	C 	0.5904	0.7355	0.58593	-0.021
Mof_H 	H 	0.5678	0.787	0.5565	0.063
Mof_C 	C 	0.6637	0.6856	0.57134	-0.011
Mof_C 	C 	0.6963	0.6099	0.61646	-0.006
Mof_H 	H 	0.7461	0.5766	0.6079	0.053
Mof_Zn	Zn	0.66581	0.12584	0.34604	1.235
Mof_Zn	Zn	0.85675	0.06476	0.28969	1.221
Mof_O 	O 	0.29896	0.51174	0.0884	-0.452
Mof_O 	O 	0.18929	0.4635	0.14305	-0.487
Mof_O 	O 	0.9471	0.1138	0.21508	-0.358
Mof_O 	O 	0.95559	0.9598	0.26469	-0.377
Mof_O 	O 	0.26617	0.75219	0.13141	-0.483
Mof_O 	O 	0.1887	0.7137	0.21257	-0.501
Mof_O 	O 	0.35017	0.9653	0.73395	-0.474
Mof_O 	O 	0.22974	0.983	0.78206	-0.448
Mof_O 	O 	0.55801	0.335	0.88218	-0.408
Mof_O 	O 	0.56583	0.2401	0.79059	-0.311
Mof_C 	C 	0.2448	0.4454	0.10324	0.384
Mof_C 	C 	0.2456	0.3365	0.07329	-0.054
Mof_C 	C 	0.2049	0.2547	0.10344	-0.059
Mof_H 	H 	0.1737	0.2701	0.1401	0.071
Mof_C 	C 	0.2088	0.1509	0.08124	0.051
Mof_C 	C 	0.25241	0.1302	0.02433	-0.112
Mof_H 	H 	0.2547	0.0606	0.0081	0.079
Mof_C 	C 	0.29254	0.2108	0.99124	0.052
Mof_C 	C 	0.2902	0.3139	0.01677	-0.058
Mof_H 	H 	0.3185	0.3684	0.9961	0.072
Mof_C 	C 	0.9831	0.0269	0.2246	0.295
Mof_C 	C 	0.2098	0.7737	0.1672	0.412
Mof_C 	C 	0.0597	0.002	0.18889	-0.058
Mof_C 	C 	0.0968	0.9034	0.19436	0.015
Mof_H 	H 	0.0741	0.8507	0.2207	0.052
Mof_C 	C 	0.1687	0.882	0.16042	-0.1
Mof_C 	C 	0.2036	0.9621	0.12298	-0.009
Mof_H 	H 	0.2514	0.948	0.1006	0.055
Mof_C 	C 	0.1682	0.0626	0.11857	-0.006
Mof_C 	C 	0.0953	0.0819	0.15101	-0.029
Mof_H 	H 	0.0702	0.1487	0.1474	0.063
Mof_C 	C 	0.3046	0.0042	0.77686	0.408
Mof_C 	C 	0.5302	0.2647	0.8417	0.318
Mof_C 	C 	0.3434	0.0827	0.82613	-0.096
Mof_C 	C 	0.4172	0.1326	0.81324	0.025
Mof_H 	H 	0.445	0.1138	0.7753	0.056
Mof_C 	C 	0.4498	0.2103	0.85676	-0.064
Mof_C 	C 	0.4096	0.2355	0.91407	-0.021
Mof_H 	H 	0.4322	0.287	0.9435	0.063
Mof_C 	C 	0.3363	0.1856	0.92866	-0.01
Mof_C 	C 	0.3037	0.1099	0.88354	-0.006
Mof_H 	H 	0.2539	0.0766	0.8921	0.054
Mof_Zn	Zn	0.33419	0.62584	0.15396	1.235
Mof_Zn	Zn	0.85675	0.43524	0.78969	1.221
Mof_O 	O 	0.29896	0.98826	0.5884	-0.453
Mof_O 	O 	0.18929	0.0365	0.64305	-0.486
Mof_O 	O 	0.9471	0.3862	0.71508	-0.36
Mof_O 	O 	0.95559	0.5402	0.76469	-0.381
Mof_O 	O 	0.26617	0.74781	0.63141	-0.484
Mof_O 	O 	0.1887	0.7863	0.71257	-0.502
Mof_O 	O 	0.35017	0.5347	0.23395	-0.473
Mof_O 	O 	0.22974	0.517	0.28206	-0.446
Mof_O 	O 	0.55801	0.165	0.38218	-0.408
Mof_O 	O 	0.56583	0.2599	0.29059	-0.31
Mof_C 	C 	0.2448	0.0546	0.60324	0.385
Mof_C 	C 	0.2456	0.1635	0.57329	-0.052
Mof_C 	C 	0.2049	0.2453	0.60344	-0.061
Mof_H 	H 	0.1737	0.2299	0.6401	0.071
Mof_C 	C 	0.2088	0.3491	0.58124	0.054
Mof_C 	C 	0.25241	0.3698	0.52433	-0.115
Mof_H 	H 	0.2547	0.4394	0.5081	0.079
Mof_C 	C 	0.29254	0.2892	0.49124	0.054
Mof_C 	C 	0.2902	0.1861	0.51677	-0.06
Mof_H 	H 	0.3185	0.1316	0.4961	0.073
Mof_C 	C 	0.9831	0.4731	0.7246	0.303
Mof_C 	C 	0.2098	0.7263	0.6672	0.414
Mof_C 	C 	0.0597	0.498	0.68889	-0.068
Mof_C 	C 	0.0968	0.5966	0.69436	0.024
Mof_H 	H 	0.0741	0.6493	0.7207	0.049
Mof_C 	C 	0.1687	0.618	0.66042	-0.106
Mof_C 	C 	0.2036	0.5379	0.62298	-0.001
Mof_H 	H 	0.2514	0.552	0.6006	0.053
Mof_C 	C 	0.1682	0.4374	0.61857	-0.013
Mof_C 	C 	0.0953	0.4181	0.65101	-0.023
Mof_H 	H 	0.0702	0.3513	0.6474	0.061
Mof_C 	C 	0.3046	0.4958	0.27686	0.406
Mof_C 	C 	0.5302	0.2353	0.3417	0.319
Mof_C 	C 	0.3434	0.4173	0.32613	-0.095
Mof_C 	C 	0.4172	0.3674	0.31324	0.025
Mof_H 	H 	0.445	0.3862	0.2753	0.056
Mof_C 	C 	0.4498	0.2897	0.35676	-0.064
Mof_C 	C 	0.4096	0.2645	0.41407	-0.021
Mof_H 	H 	0.4322	0.213	0.4435	0.063
Mof_C 	C 	0.3363	0.3144	0.42866	-0.011
Mof_C 	C 	0.3037	0.3901	0.38354	-0.006
Mof_H 	H 	0.2539	0.4234	0.3921	0.053
Mof_Zn	Zn	0.33419	0.87416	0.65396	1.235
Mof_Zn	Zn	0.14325	0.93524	0.71031	1.221
Mof_O 	O 	0.70104	0.48826	0.9116	-0.452
Mof_O 	O 	0.81071	0.5365	0.85695	-0.487
Mof_O 	O 	0.0529	0.8862	0.78492	-0.358
Mof_O 	O 	0.04441	0.0402	0.73531	-0.377
Mof_O 	O 	0.73383	0.24781	0.86859	-0.483
Mof_O 	O 	0.8113	0.2863	0.78743	-0.501
Mof_O 	O 	0.64983	0.0347	0.26605	-0.474
Mof_O 	O 	0.77026	0.017	0.21794	-0.448
Mof_O 	O 	0.44199	0.665	0.11782	-0.408
Mof_O 	O 	0.43417	0.7599	0.20941	-0.311
Mof_C 	C 	0.7552	0.5546	0.89676	0.384
Mof_C 	C 	0.7544	0.6635	0.92671	-0.054
Mof_C 	C 	0.7951	0.7453	0.89656	-0.059
Mof_H 	H 	0.8263	0.7299	0.8599	0.071
Mof_C 	C 	0.7912	0.8491	0.91876	0.051
Mof_C 	C 	0.74759	0.8698	0.97567	-0.112
Mof_H 	H 	0.7453	0.9394	0.9919	0.079
Mof_C 	C 	0.70746	0.7892	0.00876	0.052
Mof_C 	C 	0.7098	0.6861	0.98323	-0.058
Mof_H 	H 	0.6815	0.6316	0.0039	0.072
Mof_C 	C 	0.0169	0.9731	0.7754	0.295
Mof_C 	C 	0.7902	0.2263	0.8328	0.412
Mof_C 	C 	0.9403	0.998	0.81111	-0.058
Mof_C 	C 	0.9032	0.0966	0.80564	0.015
Mof_H 	H 	0.9259	0.1493	0.7793	0.052
Mof_C 	C 	0.8313	0.118	0.83958	-0.1
Mof_C 	C 	0.7964	0.0379	0.87702	-0.009
Mof_H 	H 	0.7486	0.052	0.8994	0.055
Mof_C 	C 	0.8318	0.9374	0.88143	-0.006
Mof_C 	C 	0.9047	0.9181	0.84899	-0.029
Mof_H 	H 	0.9298	0.8513	0.8526	0.063
Mof_C 	C 	0.6954	0.9958	0.22314	0.408
Mof_C 	C 	0.4698	0.7353	0.1583	0.318
Mof_C 	C 	0.6566	0.9173	0.17387	-0.096
Mof_C 	C 	0.5828	0.8674	0.18676	0.025
Mof_H 	H 	0.555	0.8862	0.2247	0.056
Mof_C 	C 	0.5502	0.7897	0.14324	-0.064
Mof_C 	C 	0.5904	0.7645	0.08593	-0.021
Mof_H 	H 	0.5678	0.713	0.0565	0.063
Mof_C 	C 	0.6637	0.8144	0.07134	-0.01
Mof_C 	C 	0.6963	0.8901	0.11646	-0.006
Mof_H 	H 	0.7461	0.9234	0.1079	0.054
Mof_Zn	Zn	0.66581	0.37416	0.84604	1.235
_end
