data_functionalizedCrystal
_audit_creation_method	'EQeq! by Chris Wilmer'
_symmetry_space_group_name_H-M	'P1'
_symmetry_Int_Tables_number	1
_symmetry_cell_setting	triclinic
loop_
_symmetry_equiv_pos_as_xyz
  x,y,z
_cell_length_a	7.6681
_cell_length_b	31.909
_cell_length_c	15.4268
_cell_angle_alpha	90
_cell_angle_beta	90
_cell_angle_gamma	90
loop_
_atom_site_label
_atom_site_type_symbol
_atom_site_fract_x
_atom_site_fract_y
_atom_site_fract_z
_atom_site_charge
Mof_Cu	Cu	0.08571	0.06192	0.32611	0.765
Mof_Cu	Cu	0.0783	0.03422	0.02995	0.76
Mof_Cu	Cu	0.24911	0.22911	0.87333	0.892
Mof_I 	I 	0.26207	0.02377	0.45058	-0.572
Mof_I 	I 	0.25545	0.04787	0.17888	-0.563
Mof_C 	C 	0.4834	0.1695	0.9296	0.301
Mof_C 	C 	0.3055	0.1486	0.9355	-0.048
Mof_C 	C 	0.2803	0.1081	0.9649	0.031
Mof_H 	H 	0.3758	0.0924	0.983	0.032
Mof_C 	C 	0.9879	0.1142	0.9392	-0.015
Mof_H 	H 	0.8763	0.1028	0.9388	0.028
Mof_C 	C 	0.0125	0.155	0.9102	0.02
Mof_H 	H 	0.917	0.1706	0.8916	0.036
Mof_C 	C 	0.4867	0.2057	0.3609	0.308
Mof_C 	C 	0.3107	0.1851	0.3599	-0.042
Mof_C 	C 	0.2862	0.142	0.3503	0.052
Mof_H 	H 	0.3825	0.1244	0.3454	0.031
Mof_C 	C 	0.9909	0.1524	0.3581	-0.002
Mof_H 	H 	0.8781	0.1416	0.3584	0.031
Mof_C 	C 	0.0139	0.19504	0.3679	0.017
Mof_H 	H 	0.9173	0.2124	0.3744	0.041
Mof_N 	N 	0.1209	0.09112	0.9677	-0.219
Mof_N 	N 	0.1712	0.17226	0.9088	-0.194
Mof_N 	N 	0.1261	0.12576	0.3481	-0.218
Mof_N 	N 	0.1743	0.21159	0.3681	-0.189
Mof_O 	O 	0.4789	0.20715	0.8993	-0.39
Mof_O 	O 	0.6122	0.15115	0.9546	-0.255
Mof_O 	O 	0.6189	0.1849	0.3555	-0.258
Mof_O 	O 	0.4834	0.246	0.3659	-0.387
Mof_Cu	Cu	0.41429	0.43808	0.82611	0.766
Mof_Cu	Cu	0.4217	0.46578	0.52995	0.761
Mof_Cu	Cu	0.25089	0.27089	0.37333	0.893
Mof_I 	I 	0.23793	0.47623	0.95058	-0.572
Mof_I 	I 	0.24455	0.45213	0.67888	-0.563
Mof_C 	C 	0.0166	0.3305	0.4296	0.302
Mof_C 	C 	0.1945	0.3514	0.4355	-0.047
Mof_C 	C 	0.2197	0.3919	0.4649	0.032
Mof_H 	H 	0.1242	0.4076	0.483	0.033
Mof_C 	C 	0.5121	0.3858	0.4392	-0.011
Mof_H 	H 	0.6237	0.3972	0.4388	0.027
Mof_C 	C 	0.4875	0.345	0.4102	0.016
Mof_H 	H 	0.583	0.3294	0.3916	0.038
Mof_C 	C 	0.0133	0.2943	0.8609	0.309
Mof_C 	C 	0.1893	0.3149	0.8599	-0.043
Mof_C 	C 	0.2138	0.358	0.8503	0.052
Mof_H 	H 	0.1175	0.3756	0.8454	0.031
Mof_C 	C 	0.5091	0.3476	0.8581	-0.004
Mof_H 	H 	0.6219	0.3584	0.8584	0.031
Mof_C 	C 	0.4861	0.30496	0.8679	0.018
Mof_H 	H 	0.5827	0.2876	0.8744	0.041
Mof_N 	N 	0.3791	0.40888	0.4677	-0.22
Mof_N 	N 	0.3288	0.32774	0.4088	-0.193
Mof_N 	N 	0.3739	0.37424	0.8481	-0.218
Mof_N 	N 	0.3257	0.28841	0.8681	-0.189
Mof_O 	O 	0.0211	0.29285	0.3993	-0.39
Mof_O 	O 	0.8878	0.34885	0.4546	-0.255
Mof_O 	O 	0.8811	0.3151	0.8555	-0.259
Mof_O 	O 	0.0166	0.254	0.8659	-0.386
Mof_Cu	Cu	0.91429	0.06192	0.17389	0.767
Mof_Cu	Cu	0.9217	0.03422	0.47005	0.761
Mof_Cu	Cu	0.75089	0.22911	0.62667	0.893
Mof_I 	I 	0.73793	0.02377	0.04942	-0.571
Mof_I 	I 	0.74455	0.04787	0.32112	-0.561
Mof_C 	C 	0.5166	0.1695	0.5704	0.302
Mof_C 	C 	0.6945	0.1486	0.5645	-0.047
Mof_C 	C 	0.7197	0.1081	0.5351	0.033
Mof_H 	H 	0.6242	0.0924	0.517	0.033
Mof_C 	C 	0.0121	0.1142	0.5608	-0.01
Mof_H 	H 	0.1237	0.1028	0.5612	0.026
Mof_C 	C 	0.9875	0.155	0.5898	0.015
Mof_H 	H 	0.083	0.1706	0.6084	0.038
Mof_C 	C 	0.5133	0.2057	0.1391	0.308
Mof_C 	C 	0.6893	0.1851	0.1401	-0.042
Mof_C 	C 	0.7138	0.142	0.1497	0.052
Mof_H 	H 	0.6175	0.1244	0.1546	0.031
Mof_C 	C 	0.0091	0.1524	0.1419	-0.006
Mof_H 	H 	0.1219	0.1416	0.1416	0.032
Mof_C 	C 	0.9861	0.19504	0.1321	0.022
Mof_H 	H 	0.0827	0.2124	0.1256	0.039
Mof_N 	N 	0.8791	0.09112	0.5323	-0.22
Mof_N 	N 	0.8288	0.17226	0.5912	-0.193
Mof_N 	N 	0.8739	0.12576	0.1519	-0.217
Mof_N 	N 	0.8257	0.21159	0.1319	-0.19
Mof_O 	O 	0.5211	0.20715	0.6007	-0.39
Mof_O 	O 	0.3878	0.15115	0.5454	-0.255
Mof_O 	O 	0.3811	0.1849	0.1445	-0.258
Mof_O 	O 	0.5166	0.246	0.1341	-0.387
Mof_Cu	Cu	0.58571	0.43808	0.67389	0.766
Mof_Cu	Cu	0.5783	0.46578	0.97005	0.761
Mof_Cu	Cu	0.74911	0.27089	0.12667	0.893
Mof_I 	I 	0.76207	0.47623	0.54942	-0.573
Mof_I 	I 	0.75545	0.45213	0.82112	-0.563
Mof_C 	C 	0.9834	0.3305	0.0704	0.303
Mof_C 	C 	0.8055	0.3514	0.0645	-0.048
Mof_C 	C 	0.7803	0.3919	0.0351	0.033
Mof_H 	H 	0.8758	0.4076	0.017	0.033
Mof_C 	C 	0.4879	0.3858	0.0608	-0.011
Mof_H 	H 	0.3763	0.3972	0.0612	0.026
Mof_C 	C 	0.5125	0.345	0.0898	0.016
Mof_H 	H 	0.417	0.3294	0.1084	0.038
Mof_C 	C 	0.9867	0.2943	0.6391	0.307
Mof_C 	C 	0.8107	0.3149	0.6401	-0.042
Mof_C 	C 	0.7862	0.358	0.6497	0.052
Mof_H 	H 	0.8825	0.3756	0.6546	0.03
Mof_C 	C 	0.4909	0.3476	0.6419	-0.004
Mof_H 	H 	0.3781	0.3584	0.6416	0.031
Mof_C 	C 	0.5139	0.30496	0.6321	0.018
Mof_H 	H 	0.4173	0.2876	0.6256	0.041
Mof_N 	N 	0.6209	0.40888	0.0323	-0.22
Mof_N 	N 	0.6712	0.32774	0.0912	-0.193
Mof_N 	N 	0.6261	0.37424	0.6519	-0.218
Mof_N 	N 	0.6743	0.28841	0.6319	-0.189
Mof_O 	O 	0.9789	0.29285	0.1007	-0.39
Mof_O 	O 	0.1122	0.34885	0.0454	-0.256
Mof_O 	O 	0.1189	0.3151	0.6445	-0.258
Mof_O 	O 	0.9834	0.254	0.6341	-0.386
Mof_Cu	Cu	0.91429	0.93808	0.67389	0.766
Mof_Cu	Cu	0.9217	0.96578	0.97005	0.761
Mof_Cu	Cu	0.75089	0.77089	0.12667	0.893
Mof_I 	I 	0.73793	0.97623	0.54942	-0.571
Mof_I 	I 	0.74455	0.95213	0.82112	-0.562
Mof_C 	C 	0.5166	0.8305	0.0704	0.302
Mof_C 	C 	0.6945	0.8514	0.0645	-0.047
Mof_C 	C 	0.7197	0.8919	0.0351	0.032
Mof_H 	H 	0.6242	0.9076	0.017	0.033
Mof_C 	C 	0.0121	0.8858	0.0608	-0.014
Mof_H 	H 	0.1237	0.8972	0.0612	0.028
Mof_C 	C 	0.9875	0.845	0.0898	0.02
Mof_H 	H 	0.083	0.8294	0.1084	0.036
Mof_C 	C 	0.5133	0.7943	0.6391	0.308
Mof_C 	C 	0.6893	0.8149	0.6401	-0.042
Mof_C 	C 	0.7138	0.858	0.6497	0.052
Mof_H 	H 	0.6175	0.8756	0.6546	0.031
Mof_C 	C 	0.0091	0.8476	0.6419	-0.002
Mof_H 	H 	0.1219	0.8584	0.6416	0.031
Mof_C 	C 	0.9861	0.80496	0.6321	0.017
Mof_H 	H 	0.0827	0.7876	0.6256	0.041
Mof_N 	N 	0.8791	0.90888	0.0323	-0.219
Mof_N 	N 	0.8288	0.82774	0.0912	-0.194
Mof_N 	N 	0.8739	0.87424	0.6519	-0.218
Mof_N 	N 	0.8257	0.78841	0.6319	-0.189
Mof_O 	O 	0.5211	0.79285	0.1007	-0.39
Mof_O 	O 	0.3878	0.84885	0.0454	-0.255
Mof_O 	O 	0.3811	0.8151	0.6445	-0.258
Mof_O 	O 	0.5166	0.754	0.6341	-0.387
Mof_Cu	Cu	0.58571	0.56192	0.17389	0.766
Mof_Cu	Cu	0.5783	0.53422	0.47005	0.761
Mof_Cu	Cu	0.74911	0.72911	0.62667	0.893
Mof_I 	I 	0.76207	0.52377	0.04942	-0.572
Mof_I 	I 	0.75545	0.54787	0.32112	-0.563
Mof_C 	C 	0.9834	0.6695	0.5704	0.302
Mof_C 	C 	0.8055	0.6486	0.5645	-0.047
Mof_C 	C 	0.7803	0.6081	0.5351	0.032
Mof_H 	H 	0.8758	0.5924	0.517	0.033
Mof_C 	C 	0.4879	0.6142	0.5608	-0.011
Mof_H 	H 	0.3763	0.6028	0.5612	0.027
Mof_C 	C 	0.5125	0.655	0.5898	0.016
Mof_H 	H 	0.417	0.6706	0.6084	0.038
Mof_C 	C 	0.9867	0.7057	0.1391	0.309
Mof_C 	C 	0.8107	0.6851	0.1401	-0.043
Mof_C 	C 	0.7862	0.642	0.1497	0.052
Mof_H 	H 	0.8825	0.6244	0.1546	0.031
Mof_C 	C 	0.4909	0.6524	0.1419	-0.004
Mof_H 	H 	0.3781	0.6416	0.1416	0.031
Mof_C 	C 	0.5139	0.69504	0.1321	0.018
Mof_H 	H 	0.4173	0.7124	0.1256	0.041
Mof_N 	N 	0.6209	0.59112	0.5323	-0.22
Mof_N 	N 	0.6712	0.67226	0.5912	-0.193
Mof_N 	N 	0.6261	0.62576	0.1519	-0.218
Mof_N 	N 	0.6743	0.71159	0.1319	-0.189
Mof_O 	O 	0.9789	0.70715	0.6007	-0.39
Mof_O 	O 	0.1122	0.65115	0.5454	-0.255
Mof_O 	O 	0.1189	0.6849	0.1445	-0.259
Mof_O 	O 	0.9834	0.746	0.1341	-0.386
Mof_Cu	Cu	0.08571	0.93808	0.82611	0.767
Mof_Cu	Cu	0.0783	0.96578	0.52995	0.761
Mof_Cu	Cu	0.24911	0.77089	0.37333	0.893
Mof_I 	I 	0.26207	0.97623	0.95058	-0.571
Mof_I 	I 	0.25545	0.95213	0.67888	-0.561
Mof_C 	C 	0.4834	0.8305	0.4296	0.302
Mof_C 	C 	0.3055	0.8514	0.4355	-0.047
Mof_C 	C 	0.2803	0.8919	0.4649	0.033
Mof_H 	H 	0.3758	0.9076	0.483	0.033
Mof_C 	C 	0.9879	0.8858	0.4392	-0.01
Mof_H 	H 	0.8763	0.8972	0.4388	0.026
Mof_C 	C 	0.0125	0.845	0.4102	0.015
Mof_H 	H 	0.917	0.8294	0.3916	0.038
Mof_C 	C 	0.4867	0.7943	0.8609	0.308
Mof_C 	C 	0.3107	0.8149	0.8599	-0.042
Mof_C 	C 	0.2862	0.858	0.8503	0.052
Mof_H 	H 	0.3825	0.8756	0.8454	0.031
Mof_C 	C 	0.9909	0.8476	0.8581	-0.006
Mof_H 	H 	0.8781	0.8584	0.8584	0.032
Mof_C 	C 	0.0139	0.80496	0.8679	0.022
Mof_H 	H 	0.9173	0.7876	0.8744	0.039
Mof_N 	N 	0.1209	0.90888	0.4677	-0.22
Mof_N 	N 	0.1712	0.82774	0.4088	-0.193
Mof_N 	N 	0.1261	0.87424	0.8481	-0.217
Mof_N 	N 	0.1743	0.78841	0.8681	-0.19
Mof_O 	O 	0.4789	0.79285	0.3993	-0.39
Mof_O 	O 	0.6122	0.84885	0.4546	-0.255
Mof_O 	O 	0.6189	0.8151	0.8555	-0.258
Mof_O 	O 	0.4834	0.754	0.8659	-0.387
Mof_Cu	Cu	0.41429	0.56192	0.32611	0.766
Mof_Cu	Cu	0.4217	0.53422	0.02995	0.761
Mof_Cu	Cu	0.25089	0.72911	0.87333	0.893
Mof_I 	I 	0.23793	0.52377	0.45058	-0.573
Mof_I 	I 	0.24455	0.54787	0.17888	-0.563
Mof_C 	C 	0.0166	0.6695	0.9296	0.303
Mof_C 	C 	0.1945	0.6486	0.9355	-0.048
Mof_C 	C 	0.2197	0.6081	0.9649	0.033
Mof_H 	H 	0.1242	0.5924	0.983	0.033
Mof_C 	C 	0.5121	0.6142	0.9392	-0.011
Mof_H 	H 	0.6237	0.6028	0.9388	0.026
Mof_C 	C 	0.4875	0.655	0.9102	0.016
Mof_H 	H 	0.583	0.6706	0.8916	0.038
Mof_C 	C 	0.0133	0.7057	0.3609	0.307
Mof_C 	C 	0.1893	0.6851	0.3599	-0.042
Mof_C 	C 	0.2138	0.642	0.3503	0.052
Mof_H 	H 	0.1175	0.6244	0.3454	0.03
Mof_C 	C 	0.5091	0.6524	0.3581	-0.004
Mof_H 	H 	0.6219	0.6416	0.3584	0.031
Mof_C 	C 	0.4861	0.69504	0.3679	0.018
Mof_H 	H 	0.5827	0.7124	0.3744	0.041
Mof_N 	N 	0.3791	0.59112	0.9677	-0.22
Mof_N 	N 	0.3288	0.67226	0.9088	-0.193
Mof_N 	N 	0.3739	0.62576	0.3481	-0.218
Mof_N 	N 	0.3257	0.71159	0.3681	-0.189
Mof_O 	O 	0.0211	0.70715	0.8993	-0.39
Mof_O 	O 	0.8878	0.65115	0.9546	-0.256
Mof_O 	O 	0.8811	0.6849	0.3555	-0.258
Mof_O 	O 	0.0166	0.746	0.3659	-0.386
_end
