data_functionalizedCrystal
_audit_creation_method	'EQeq! by Chris Wilmer'
_symmetry_space_group_name_H-M	'P1'
_symmetry_Int_Tables_number	1
_symmetry_cell_setting	triclinic
loop_
_symmetry_equiv_pos_as_xyz
  x,y,z
_cell_length_a	9.825
_cell_length_b	11.2958
_cell_length_c	14.7329
_cell_angle_alpha	91.4943
_cell_angle_beta	90
_cell_angle_gamma	90
loop_
_atom_site_label
_atom_site_type_symbol
_atom_site_fract_x
_atom_site_fract_y
_atom_site_fract_z
_atom_site_charge
Mof_Zn	Zn	0.92633	0.75695	0.13171	1.285
Mof_Zn	Zn	0.11504	0.74172	0.30792	1.239
Mof_Zn	Zn	0.42633	0.74305	0.36829	1.248
Mof_Zn	Zn	0.61504	0.75828	0.19208	1.253
Mof_Zn	Zn	0.07367	0.24305	0.86829	1.207
Mof_Zn	Zn	0.88496	0.25828	0.69208	1.264
Mof_Zn	Zn	0.57367	0.25695	0.63171	1.243
Mof_Zn	Zn	0.38496	0.24172	0.80792	1.248
Mof_Zn	Zn	-7.72201e-33	0.5	-0	1.179
Mof_Zn	Zn	0.5	0	0.5	1.231
Mof_Zn	Zn	-0	0	-0	1.158
Mof_Zn	Zn	0.5	0.5	0.5	1.256
Mof_H 	H 	0.7627	0.8555	0.3682	-0.083
Mof_H 	H 	0.0498	0.4781	0.2599	-0.14
Mof_H 	H 	0.6181	0.5608	0.0462	-0.128
Mof_H 	H 	0.2074	0.9791	0.2228	-0.153
Mof_H 	H 	0.1636	0.6958	0.9288	-0.148
Mof_H 	H 	0.7065	0.9981	0.0218	-0.095
Mof_H 	H 	0.2627	0.6445	0.1318	-0.134
Mof_H 	H 	0.5498	0.0219	0.2401	-0.254
Mof_H 	H 	0.1181	0.9392	0.4538	-0.108
Mof_H 	H 	0.7074	0.5209	0.2772	-0.098
Mof_H 	H 	0.6636	0.8042	0.5712	-0.073
Mof_H 	H 	0.2065	0.5019	0.4782	-0.115
Mof_H 	H 	0.2373	0.1445	0.6318	-0.132
Mof_H 	H 	0.9502	0.5219	0.7401	-0.064
Mof_H 	H 	0.3819	0.4392	0.9538	-0.056
Mof_H 	H 	0.7926	0.0209	0.7772	-0.073
Mof_H 	H 	0.8364	0.3042	0.0712	-0.034
Mof_H 	H 	0.2935	0.0019	0.9782	-0.083
Mof_H 	H 	0.7373	0.3555	0.8682	-0.079
Mof_H 	H 	0.4502	0.9781	0.7599	0.051
Mof_H 	H 	0.8819	0.0608	0.5462	-0.075
Mof_H 	H 	0.2926	0.4791	0.7228	-0.13
Mof_H 	H 	0.3364	0.1958	0.4288	-0.12
Mof_H 	H 	0.7935	0.4981	0.5218	-0.07
Mof_C 	C 	0.8346	0.8265	0.3308	0.483
Mof_C 	C 	0.0236	0.519	0.2071	0.539
Mof_C 	C 	0.7127	0.5767	0.0521	0.5
Mof_C 	C 	0.1419	0.9522	0.1795	0.648
Mof_C 	C 	0.1057	0.7416	0.9676	0.678
Mof_C 	C 	0.7248	0.9343	0.0607	0.481
Mof_C 	C 	0.3346	0.6735	0.1692	0.5
Mof_C 	C 	0.5236	0.981	0.2929	0.805
Mof_C 	C 	0.2127	0.9233	0.4479	0.482
Mof_C 	C 	0.6419	0.5478	0.3205	0.5
Mof_C 	C 	0.6057	0.7584	0.5324	0.485
Mof_C 	C 	0.2248	0.5657	0.4393	0.503
Mof_C 	C 	0.1654	0.1735	0.6692	0.503
Mof_C 	C 	0.9764	0.481	0.7929	0.483
Mof_C 	C 	0.2873	0.4233	0.9479	0.459
Mof_C 	C 	0.8581	0.0478	0.8205	0.36
Mof_C 	C 	0.8943	0.2584	0.0324	0.294
Mof_C 	C 	0.2752	0.0657	0.9393	0.494
Mof_C 	C 	0.6654	0.3265	0.8308	0.485
Mof_C 	C 	0.4764	0.019	0.7071	0.22
Mof_C 	C 	0.7873	0.0767	0.5521	0.483
Mof_C 	C 	0.3581	0.4522	0.6795	0.513
Mof_C 	C 	0.3943	0.2416	0.4676	0.505
Mof_C 	C 	0.7752	0.4343	0.5607	0.481
Mof_O 	O 	0.8072	0.80729	0.24739	-0.532
Mof_O 	O 	0.9465	0.81079	0.36809	-0.363
Mof_O 	O 	0.0128	0.63001	0.21531	-0.64
Mof_O 	O 	0.0036	0.4578	0.1376	-0.533
Mof_O 	O 	0.7483	0.655	0.1121	-0.562
Mof_O 	O 	0.7908	0.51993	0.00093	-0.468
Mof_O 	O 	0.0873	0.85116	0.19316	-0.652
Mof_O 	O 	0.1185	0.0178	0.1163	-0.616
Mof_O 	O 	0.0293	0.68501	0.02351	-0.748
Mof_O 	O 	0.1094	0.84928	0.96078	-0.448
Mof_O 	O 	0.8485	0.89969	0.06489	-0.54
Mof_O 	O 	0.6266	0.89376	0.10186	-0.438
Mof_O 	O 	0.3072	0.69271	0.25261	-0.574
Mof_O 	O 	0.4465	0.68921	0.13191	-0.471
Mof_O 	O 	0.5128	0.86999	0.28469	-0.65
Mof_O 	O 	0.5036	0.0422	0.3624	-0.579
Mof_O 	O 	0.2483	0.845	0.3879	-0.577
Mof_O 	O 	0.2908	0.98007	0.49907	-0.403
Mof_O 	O 	0.5873	0.64884	0.30684	-0.57
Mof_O 	O 	0.6185	0.4822	0.3837	-0.442
Mof_O 	O 	0.5293	0.81499	0.47649	-0.555
Mof_O 	O 	0.6094	0.65072	0.53922	-0.439
Mof_O 	O 	0.3485	0.60031	0.43511	-0.587
Mof_O 	O 	0.1266	0.60624	0.39814	-0.482
Mof_O 	O 	0.1928	0.19271	0.75261	-0.61
Mof_O 	O 	0.0535	0.18921	0.63191	-0.536
Mof_O 	O 	0.9872	0.36999	0.78469	-0.523
Mof_O 	O 	0.9964	0.5422	0.8624	-0.332
Mof_O 	O 	0.2517	0.345	0.8879	-0.58
Mof_O 	O 	0.2092	0.48007	0.99907	-0.381
Mof_O 	O 	0.9127	0.14884	0.80684	-0.494
Mof_O 	O 	0.8815	0.9822	0.8837	-0.253
Mof_O 	O 	0.9707	0.31499	0.97649	-0.368
Mof_O 	O 	0.8906	0.15072	0.03922	-0.414
Mof_O 	O 	0.1515	0.10031	0.93511	-0.591
Mof_O 	O 	0.3734	0.10624	0.89814	-0.448
Mof_O 	O 	0.6928	0.30729	0.74739	-0.566
Mof_O 	O 	0.5535	0.31079	0.86809	-0.425
Mof_O 	O 	0.4872	0.13001	0.71531	-0.517
Mof_O 	O 	0.4964	0.9578	0.6376	-0.302
Mof_O 	O 	0.7517	0.155	0.6121	-0.567
Mof_O 	O 	0.7092	0.01993	0.50093	-0.461
Mof_O 	O 	0.4127	0.35116	0.69316	-0.583
Mof_O 	O 	0.3815	0.5178	0.6163	-0.456
Mof_O 	O 	0.4707	0.18501	0.52351	-0.584
Mof_O 	O 	0.3906	0.34928	0.46078	-0.463
Mof_O 	O 	0.6515	0.39969	0.56489	-0.572
Mof_O 	O 	0.8734	0.39376	0.60186	-0.406
_end
