data_functionalizedCrystal
_audit_creation_method	'EQeq! by Chris Wilmer'
_symmetry_space_group_name_H-M	'P1'
_symmetry_Int_Tables_number	1
_symmetry_cell_setting	triclinic
loop_
_symmetry_equiv_pos_as_xyz
  x,y,z
_cell_length_a	12.0733
_cell_length_b	19.5077
_cell_length_c	19.5077
_cell_angle_alpha	84.5049
_cell_angle_beta	71.9739
_cell_angle_gamma	71.9738
loop_
_atom_site_label
_atom_site_type_symbol
_atom_site_fract_x
_atom_site_fract_y
_atom_site_fract_z
_atom_site_charge
Mof_Nd	Nd	0.9873	0.20204	0.637	2.75
Mof_Nd	Nd	0.93119	0.02054	0.60584	2.537
Mof_Nd	Nd	0.32634	0.29796	0.863	2.779
Mof_Nd	Nd	0.05757	0.47946	0.89416	2.599
Mof_Nd	Nd	0.6243	0.363	0.70204	2.779
Mof_Nd	Nd	0.53702	0.39417	0.52054	2.59
Mof_Nd	Nd	0.18934	0.137	0.79796	2.791
Mof_Nd	Nd	0.95173	0.10584	0.97946	2.511
Mof_Nd	Nd	0.0127	0.79796	0.363	2.748
Mof_Nd	Nd	0.06881	0.97946	0.39416	2.536
Mof_Nd	Nd	0.67366	0.70204	0.137	2.779
Mof_Nd	Nd	0.94243	0.52054	0.10584	2.599
Mof_Nd	Nd	0.3757	0.637	0.29796	2.779
Mof_Nd	Nd	0.46298	0.60583	0.47946	2.59
Mof_Nd	Nd	0.81066	0.863	0.20204	2.791
Mof_Nd	Nd	0.04826	0.89417	0.02054	2.511
Mof_H 	H 	0.159	0.2069	0.4397	0.148
Mof_H 	H 	0.2725	0.1397	0.4377	0.159
Mof_H 	H 	0.3046	0.0903	0.5499	0.116
Mof_H 	H 	0.3693	0.151	0.5342	0.133
Mof_H 	H 	0.0387	0.945	0.7778	0.121
Mof_H 	H 	0.1721	0.9139	0.7279	0.144
Mof_H 	H 	0.9669	0.8399	0.6843	0.114
Mof_H 	H 	0.9853	0.8517	0.7581	0.123
Mof_H 	H 	0.5558	0.152	0.6694	0.149
Mof_H 	H 	0.6195	0.1011	0.7223	0.136
Mof_H 	H 	0.5991	0.073	0.5512	0.131
Mof_H 	H 	0.6422	0.1414	0.5484	0.121
Mof_H 	H 	0.2064	0.2316	0.5286	0.079
Mof_H 	H 	0.1109	0.8876	0.6478	0.073
Mof_H 	H 	0.6648	0.0303	0.6359	0.073
Mof_H 	H 	0.3056	0.2931	0.0603	0.148
Mof_H 	H 	0.3499	0.3603	0.0623	0.159
Mof_H 	H 	0.4448	0.4097	0.9501	0.115
Mof_H 	H 	0.5545	0.349	0.9658	0.133
Mof_H 	H 	0.2615	0.555	0.7222	0.121
Mof_H 	H 	0.3139	0.5861	0.7721	0.142
Mof_H 	H 	0.9911	0.6601	0.8157	0.117
Mof_H 	H 	0.0951	0.6483	0.7419	0.124
Mof_H 	H 	0.8772	0.348	0.8306	0.152
Mof_H 	H 	0.9429	0.3989	0.7777	0.14
Mof_H 	H 	0.7233	0.427	0.9488	0.133
Mof_H 	H 	0.832	0.3586	0.9516	0.12
Mof_H 	H 	0.4666	0.2684	0.9714	0.078
Mof_H 	H 	0.1463	0.6124	0.8522	0.073
Mof_H 	H 	0.831	0.4697	0.8641	0.076
Mof_H 	H 	0.5987	0.5603	0.7069	0.147
Mof_H 	H 	0.7102	0.5623	0.6397	0.159
Mof_H 	H 	0.8545	0.4501	0.5903	0.114
Mof_H 	H 	0.9035	0.4658	0.651	0.132
Mof_H 	H 	0.8165	0.2222	0.445	0.12
Mof_H 	H 	0.9	0.2721	0.4139	0.141
Mof_H 	H 	0.6512	0.3157	0.3399	0.114
Mof_H 	H 	0.7434	0.2419	0.3517	0.123
Mof_H 	H 	0.2252	0.3306	0.652	0.15
Mof_H 	H 	0.3418	0.2777	0.6011	0.138
Mof_H 	H 	0.1503	0.4488	0.573	0.132
Mof_H 	H 	0.1906	0.4516	0.6414	0.121
Mof_H 	H 	0.735	0.4714	0.7316	0.079
Mof_H 	H 	0.7587	0.3522	0.3876	0.073
Mof_H 	H 	0.3007	0.3641	0.5303	0.077
Mof_H 	H 	0.3659	0.9397	0.7931	0.146
Mof_H 	H 	0.4122	0.9377	0.8603	0.159
Mof_H 	H 	0.3949	0.0499	0.9097	0.113
Mof_H 	H 	0.5203	0.0342	0.849	0.129
Mof_H 	H 	0.9837	0.2778	0.055	0.115
Mof_H 	H 	0.086	0.2279	0.0861	0.139
Mof_H 	H 	0.8068	0.1843	0.1601	0.113
Mof_H 	H 	0.837	0.2581	0.1483	0.122
Mof_H 	H 	0.7078	0.1694	0.848	0.15
Mof_H 	H 	0.7206	0.2223	0.8989	0.138
Mof_H 	H 	0.6721	0.0512	0.927	0.134
Mof_H 	H 	0.7836	0.0484	0.8586	0.122
Mof_H 	H 	0.438	0.0286	0.7684	0.077
Mof_H 	H 	0.9985	0.1478	0.1124	0.072
Mof_H 	H 	0.6951	0.1359	0.9697	0.074
Mof_H 	H 	0.841	0.7931	0.5603	0.148
Mof_H 	H 	0.7275	0.8603	0.5623	0.159
Mof_H 	H 	0.6954	0.9097	0.4501	0.116
Mof_H 	H 	0.6307	0.849	0.4658	0.133
Mof_H 	H 	0.9613	0.055	0.2222	0.121
Mof_H 	H 	0.8279	0.0861	0.2721	0.144
Mof_H 	H 	0.0331	0.1601	0.3157	0.114
Mof_H 	H 	0.0147	0.1483	0.2419	0.123
Mof_H 	H 	0.4442	0.848	0.3306	0.149
Mof_H 	H 	0.3805	0.8989	0.2777	0.136
Mof_H 	H 	0.4009	0.927	0.4488	0.131
Mof_H 	H 	0.3578	0.8586	0.4516	0.121
Mof_H 	H 	0.7936	0.7684	0.4714	0.079
Mof_H 	H 	0.8891	0.1124	0.3522	0.073
Mof_H 	H 	0.3352	0.9697	0.3641	0.073
Mof_H 	H 	0.6944	0.7069	0.9397	0.148
Mof_H 	H 	0.6501	0.6397	0.9377	0.159
Mof_H 	H 	0.5552	0.5903	0.0499	0.115
Mof_H 	H 	0.4455	0.651	0.0342	0.133
Mof_H 	H 	0.7385	0.445	0.2778	0.121
Mof_H 	H 	0.6861	0.4139	0.2279	0.142
Mof_H 	H 	0.0089	0.3399	0.1843	0.117
Mof_H 	H 	0.9049	0.3517	0.2581	0.124
Mof_H 	H 	0.1228	0.652	0.1694	0.152
Mof_H 	H 	0.0571	0.6011	0.2223	0.14
Mof_H 	H 	0.2767	0.573	0.0512	0.133
Mof_H 	H 	0.168	0.6414	0.0484	0.12
Mof_H 	H 	0.5334	0.7316	0.0286	0.078
Mof_H 	H 	0.8537	0.3876	0.1478	0.073
Mof_H 	H 	0.169	0.5303	0.1359	0.076
Mof_H 	H 	0.4013	0.4397	0.2931	0.147
Mof_H 	H 	0.2898	0.4377	0.3603	0.159
Mof_H 	H 	0.1455	0.5499	0.4097	0.114
Mof_H 	H 	0.0965	0.5342	0.349	0.132
Mof_H 	H 	0.1835	0.7778	0.555	0.12
Mof_H 	H 	0.1	0.7279	0.5861	0.141
Mof_H 	H 	0.3488	0.6843	0.6601	0.114
Mof_H 	H 	0.2566	0.7581	0.6483	0.123
Mof_H 	H 	0.7748	0.6694	0.348	0.15
Mof_H 	H 	0.6582	0.7223	0.3989	0.138
Mof_H 	H 	0.8497	0.5512	0.427	0.132
Mof_H 	H 	0.8094	0.5484	0.3586	0.121
Mof_H 	H 	0.265	0.5286	0.2684	0.079
Mof_H 	H 	0.2413	0.6478	0.6124	0.073
Mof_H 	H 	0.6993	0.6359	0.4697	0.077
Mof_H 	H 	0.6341	0.0603	0.2069	0.146
Mof_H 	H 	0.5878	0.0623	0.1397	0.159
Mof_H 	H 	0.6051	0.9501	0.0903	0.113
Mof_H 	H 	0.4797	0.9658	0.151	0.129
Mof_H 	H 	0.0163	0.7222	0.945	0.115
Mof_H 	H 	0.914	0.7721	0.9139	0.139
Mof_H 	H 	0.1932	0.8157	0.8399	0.113
Mof_H 	H 	0.163	0.7419	0.8517	0.122
Mof_H 	H 	0.2922	0.8306	0.152	0.15
Mof_H 	H 	0.2794	0.7777	0.1011	0.138
Mof_H 	H 	0.3279	0.9488	0.073	0.134
Mof_H 	H 	0.2164	0.9516	0.1414	0.122
Mof_H 	H 	0.562	0.9714	0.2316	0.077
Mof_H 	H 	0.0015	0.8522	0.8876	0.071
Mof_H 	H 	0.3049	0.8641	0.0303	0.074
Mof_C 	C 	0.11095	0.11549	0.47821	0.614
Mof_C 	C 	0.1904	0.1646	0.4664	-0.42
Mof_C 	C 	0.2945	0.1398	0.5604	-0.338
Mof_C 	C 	0.27191	0.14761	0.64057	0.459
Mof_C 	C 	0.10179	0.02205	0.71297	0.622
Mof_C 	C 	0.0921	0.9459	0.7291	-0.399
Mof_C 	C 	0.9618	0.8762	0.7168	-0.316
Mof_C 	C 	0.8327	0.9244	0.7416	0.411
Mof_C 	C 	0.70964	0.17353	0.67179	0.649
Mof_C 	C 	0.6341	0.124	0.6752	-0.429
Mof_C 	C 	0.6673	0.0892	0.5514	-0.344
Mof_C 	C 	0.7727	0.0595	0.4857	0.466
Mof_C 	C 	0.20465	0.38451	0.02179	0.619
Mof_C 	C 	0.3214	0.3354	0.0336	-0.422
Mof_C 	C 	0.4947	0.3602	0.9396	-0.339
Mof_C 	C 	0.56009	0.35239	0.85943	0.46
Mof_C 	C 	0.33681	0.47795	0.78703	0.615
Mof_C 	C 	0.2671	0.5541	0.7709	-0.39
Mof_C 	C 	0.0548	0.6238	0.7832	-0.333
Mof_C 	C 	0.9987	0.5756	0.7584	0.415
Mof_C 	C 	0.05496	0.32647	0.82821	0.661
Mof_C 	C 	0.9333	0.376	0.8248	-0.441
Mof_C 	C 	0.8079	0.4108	0.9486	-0.351
Mof_C 	C 	0.8179	0.4405	0.0143	0.475
Mof_C 	C 	0.58916	0.52179	0.61549	0.619
Mof_C 	C 	0.6568	0.5336	0.6646	-0.424
Mof_C 	C 	0.8549	0.4396	0.6398	-0.336
Mof_C 	C 	0.91248	0.35943	0.64761	0.452
Mof_C 	C 	0.81476	0.28703	0.52205	0.614
Mof_C 	C 	0.8212	0.2709	0.4459	-0.389
Mof_C 	C 	0.6786	0.2832	0.3762	-0.329
Mof_C 	C 	0.5743	0.2584	0.4244	0.414
Mof_C 	C 	0.38143	0.32821	0.67353	0.652
Mof_C 	C 	0.3093	0.3248	0.624	-0.43
Mof_C 	C 	0.2187	0.4486	0.5892	-0.345
Mof_C 	C 	0.2584	0.5143	0.5595	0.469
Mof_C 	C 	0.22644	0.97821	0.88451	0.608
Mof_C 	C 	0.355	0.9664	0.8354	-0.418
Mof_C 	C 	0.4343	0.0604	0.8602	-0.337
Mof_C 	C 	0.41952	0.14057	0.85239	0.46
Mof_C 	C 	0.12384	0.21297	0.97795	0.608
Mof_C 	C 	0.038	0.2291	0.0541	-0.372
Mof_C 	C 	0.838	0.2168	0.1238	-0.326
Mof_C 	C 	0.7571	0.2416	0.0756	0.411
Mof_C 	C 	0.88317	0.17179	0.82647	0.649
Mof_C 	C 	0.7581	0.1752	0.876	-0.43
Mof_C 	C 	0.7565	0.0514	0.9108	-0.367
Mof_C 	C 	0.8322	0.9857	0.9405	0.484
Mof_C 	C 	0.88905	0.88451	0.52179	0.614
Mof_C 	C 	0.8096	0.8354	0.5336	-0.42
Mof_C 	C 	0.7055	0.8602	0.4396	-0.338
Mof_C 	C 	0.72809	0.85239	0.35943	0.459
Mof_C 	C 	0.89821	0.97795	0.28703	0.622
Mof_C 	C 	0.9079	0.0541	0.2709	-0.399
Mof_C 	C 	0.0382	0.1238	0.2832	-0.316
Mof_C 	C 	0.1673	0.0756	0.2584	0.411
Mof_C 	C 	0.29036	0.82647	0.32821	0.649
Mof_C 	C 	0.3659	0.876	0.3248	-0.429
Mof_C 	C 	0.3327	0.9108	0.4486	-0.344
Mof_C 	C 	0.2273	0.9405	0.5143	0.466
Mof_C 	C 	0.79535	0.61549	0.97821	0.619
Mof_C 	C 	0.6786	0.6646	0.9664	-0.422
Mof_C 	C 	0.5053	0.6398	0.0604	-0.339
Mof_C 	C 	0.43991	0.64761	0.14057	0.46
Mof_C 	C 	0.66319	0.52205	0.21297	0.615
Mof_C 	C 	0.7329	0.4459	0.2291	-0.39
Mof_C 	C 	0.9452	0.3762	0.2168	-0.333
Mof_C 	C 	0.0013	0.4244	0.2416	0.415
Mof_C 	C 	0.94504	0.67353	0.17179	0.661
Mof_C 	C 	0.0667	0.624	0.1752	-0.441
Mof_C 	C 	0.1921	0.5892	0.0514	-0.351
Mof_C 	C 	0.1821	0.5595	0.9857	0.475
Mof_C 	C 	0.41084	0.47821	0.38451	0.619
Mof_C 	C 	0.3432	0.4664	0.3354	-0.424
Mof_C 	C 	0.1451	0.5604	0.3602	-0.336
Mof_C 	C 	0.08752	0.64057	0.35239	0.452
Mof_C 	C 	0.18524	0.71297	0.47795	0.614
Mof_C 	C 	0.1788	0.7291	0.5541	-0.389
Mof_C 	C 	0.3214	0.7168	0.6238	-0.329
Mof_C 	C 	0.4257	0.7416	0.5756	0.414
Mof_C 	C 	0.61857	0.67179	0.32647	0.652
Mof_C 	C 	0.6907	0.6752	0.376	-0.43
Mof_C 	C 	0.7813	0.5514	0.4108	-0.345
Mof_C 	C 	0.7416	0.4857	0.4405	0.469
Mof_C 	C 	0.77356	0.02179	0.11549	0.608
Mof_C 	C 	0.645	0.0336	0.1646	-0.418
Mof_C 	C 	0.5657	0.9396	0.1398	-0.337
Mof_C 	C 	0.58048	0.85943	0.14761	0.46
Mof_C 	C 	0.87616	0.78703	0.02205	0.608
Mof_C 	C 	0.962	0.7709	0.9459	-0.372
Mof_C 	C 	0.162	0.7832	0.8762	-0.326
Mof_C 	C 	0.2429	0.7584	0.9244	0.411
Mof_C 	C 	0.11683	0.82821	0.17353	0.649
Mof_C 	C 	0.2419	0.8248	0.124	-0.43
Mof_C 	C 	0.2435	0.9486	0.0892	-0.367
Mof_C 	C 	0.1678	0.0143	0.0595	0.484
Mof_N 	N 	0.19415	0.1874	0.5359	-0.197
Mof_N 	N 	0.04593	0.91751	0.67983	-0.189
Mof_N 	N 	0.69481	0.06814	0.61904	-0.176
Mof_N 	N 	0.41745	0.3126	0.9641	-0.2
Mof_N 	N 	0.14327	0.58249	0.82017	-0.186
Mof_N 	N 	0.88199	0.43186	0.88096	-0.177
Mof_N 	N 	0.73005	0.4641	0.6874	-0.2
Mof_N 	N 	0.72576	0.32017	0.41751	-0.186
Mof_N 	N 	0.31385	0.38096	0.56814	-0.177
Mof_N 	N 	0.38155	0.0359	0.8126	-0.202
Mof_N 	N 	0.96344	0.17983	0.08249	-0.185
Mof_N 	N 	0.76295	0.11904	0.93186	-0.173
Mof_N 	N 	0.80585	0.8126	0.4641	-0.197
Mof_N 	N 	0.95407	0.08249	0.32017	-0.189
Mof_N 	N 	0.30519	0.93186	0.38096	-0.176
Mof_N 	N 	0.58255	0.6874	0.0359	-0.2
Mof_N 	N 	0.85673	0.41751	0.17983	-0.186
Mof_N 	N 	0.11801	0.56814	0.11904	-0.177
Mof_N 	N 	0.26995	0.5359	0.3126	-0.2
Mof_N 	N 	0.27424	0.67983	0.58249	-0.186
Mof_N 	N 	0.68615	0.61904	0.43186	-0.177
Mof_N 	N 	0.61845	0.9641	0.1874	-0.202
Mof_N 	N 	0.03656	0.82017	0.91751	-0.185
Mof_N 	N 	0.23705	0.88096	0.06814	-0.173
Mof_O 	O 	0.04511	0.10869	0.54129	-0.762
Mof_O 	O 	0.11458	0.08472	0.42372	-0.616
Mof_O 	O 	0.16293	0.18071	0.67763	-0.797
Mof_O 	O 	0.35293	0.12143	0.66951	-0.51
Mof_O 	O 	0.03557	0.06364	0.67742	-0.737
Mof_O 	O 	0.17079	0.03884	0.73978	-0.655
Mof_O 	O 	0.81289	0.98937	0.72385	-0.533
Mof_O 	O 	0.7509	0.894	0.773	-0.281
Mof_O 	O 	0.82481	0.14755	0.64383	-0.823
Mof_O 	O 	0.66008	0.23498	0.69766	-0.695
Mof_O 	O 	0.88173	0.0464	0.49054	-0.741
Mof_O 	O 	0.75239	0.05	0.43002	-0.375
Mof_O 	O 	0.19509	0.39131	0.95871	-0.779
Mof_O 	O 	0.12302	0.41528	0.07628	-0.631
Mof_O 	O 	0.52127	0.31929	0.82237	-0.803
Mof_O 	O 	0.64387	0.37857	0.83049	-0.509
Mof_O 	O 	0.27663	0.43636	0.82258	-0.751
Mof_O 	O 	0.44941	0.46116	0.76022	-0.655
Mof_O 	O 	0.02611	0.51063	0.77615	-0.547
Mof_O 	O 	0.9179	0.606	0.727	-0.284
Mof_O 	O 	0.11619	0.35245	0.85617	-0.829
Mof_O 	O 	0.09272	0.26502	0.80234	-0.696
Mof_O 	O 	0.91867	0.4536	0.00946	-0.747
Mof_O 	O 	0.73241	0.45	0.06998	-0.375
Mof_O 	O 	0.5864	0.45871	0.60869	-0.779
Mof_O 	O 	0.5383	0.57628	0.58472	-0.63
Mof_O 	O 	0.84056	0.32237	0.68071	-0.799
Mof_O 	O 	0.02244	0.33049	0.62143	-0.499
Mof_O 	O 	0.71299	0.32258	0.56364	-0.749
Mof_O 	O 	0.91057	0.26022	0.53884	-0.654
Mof_O 	O 	0.53674	0.27615	0.48937	-0.548
Mof_O 	O 	0.5239	0.227	0.394	-0.285
Mof_O 	O 	0.46864	0.35617	0.64755	-0.827
Mof_O 	O 	0.35774	0.30234	0.73498	-0.696
Mof_O 	O 	0.37227	0.50946	0.5464	-0.747
Mof_O 	O 	0.18241	0.56998	0.55	-0.374
Mof_O 	O 	0.1538	0.04129	0.89131	-0.767
Mof_O 	O 	0.1993	0.92372	0.91528	-0.617
Mof_O 	O 	0.34364	0.17763	0.81929	-0.804
Mof_O 	O 	0.47436	0.16951	0.87857	-0.51
Mof_O 	O 	0.09921	0.17742	0.93636	-0.738
Mof_O 	O 	0.20963	0.23978	0.96116	-0.653
Mof_O 	O 	0.80226	0.22385	0.01063	-0.534
Mof_O 	O 	0.6449	0.273	0.106	-0.282
Mof_O 	O 	0.97236	0.14383	0.85245	-0.829
Mof_O 	O 	0.89506	0.19766	0.76502	-0.695
Mof_O 	O 	0.92813	0.99054	0.9536	-0.724
Mof_O 	O 	0.80239	0.93002	0.95	-0.37
Mof_O 	O 	0.95489	0.89131	0.45871	-0.762
Mof_O 	O 	0.88542	0.91528	0.57628	-0.616
Mof_O 	O 	0.83707	0.81929	0.32237	-0.797
Mof_O 	O 	0.64707	0.87857	0.33049	-0.51
Mof_O 	O 	0.96443	0.93636	0.32258	-0.737
Mof_O 	O 	0.82921	0.96116	0.26022	-0.655
Mof_O 	O 	0.18711	0.01063	0.27615	-0.533
Mof_O 	O 	0.2491	0.106	0.227	-0.281
Mof_O 	O 	0.17519	0.85245	0.35617	-0.823
Mof_O 	O 	0.33992	0.76502	0.30234	-0.695
Mof_O 	O 	0.11827	0.9536	0.50946	-0.741
Mof_O 	O 	0.24761	0.95	0.56998	-0.375
Mof_O 	O 	0.80491	0.60869	0.04129	-0.779
Mof_O 	O 	0.87698	0.58472	0.92372	-0.631
Mof_O 	O 	0.47873	0.68071	0.17763	-0.803
Mof_O 	O 	0.35613	0.62143	0.16951	-0.509
Mof_O 	O 	0.72337	0.56364	0.17742	-0.751
Mof_O 	O 	0.55059	0.53884	0.23978	-0.655
Mof_O 	O 	0.97389	0.48937	0.22385	-0.547
Mof_O 	O 	0.0821	0.394	0.273	-0.284
Mof_O 	O 	0.88381	0.64755	0.14383	-0.829
Mof_O 	O 	0.90728	0.73498	0.19766	-0.696
Mof_O 	O 	0.08133	0.5464	0.99054	-0.747
Mof_O 	O 	0.26759	0.55	0.93002	-0.375
Mof_O 	O 	0.4136	0.54129	0.39131	-0.779
Mof_O 	O 	0.4617	0.42372	0.41528	-0.63
Mof_O 	O 	0.15944	0.67763	0.31929	-0.799
Mof_O 	O 	0.97756	0.66951	0.37857	-0.499
Mof_O 	O 	0.28701	0.67742	0.43636	-0.749
Mof_O 	O 	0.08943	0.73978	0.46116	-0.654
Mof_O 	O 	0.46326	0.72385	0.51063	-0.548
Mof_O 	O 	0.4761	0.773	0.606	-0.285
Mof_O 	O 	0.53136	0.64383	0.35245	-0.827
Mof_O 	O 	0.64226	0.69766	0.26502	-0.696
Mof_O 	O 	0.62773	0.49054	0.4536	-0.747
Mof_O 	O 	0.81759	0.43002	0.45	-0.374
Mof_O 	O 	0.8462	0.95871	0.10869	-0.767
Mof_O 	O 	0.8007	0.07628	0.08472	-0.617
Mof_O 	O 	0.65636	0.82237	0.18071	-0.804
Mof_O 	O 	0.52564	0.83049	0.12143	-0.51
Mof_O 	O 	0.90079	0.82258	0.06364	-0.738
Mof_O 	O 	0.79037	0.76022	0.03884	-0.653
Mof_O 	O 	0.19774	0.77615	0.98937	-0.534
Mof_O 	O 	0.3551	0.727	0.894	-0.282
Mof_O 	O 	0.02764	0.85617	0.14755	-0.829
Mof_O 	O 	0.10494	0.80234	0.23498	-0.695
Mof_O 	O 	0.07187	0.00946	0.0464	-0.724
Mof_O 	O 	0.19761	0.06998	0.05	-0.37
_end
