data_functionalizedCrystal
_audit_creation_method	'EQeq! by Chris Wilmer'
_symmetry_space_group_name_H-M	'P1'
_symmetry_Int_Tables_number	1
_symmetry_cell_setting	triclinic
loop_
_symmetry_equiv_pos_as_xyz
  x,y,z
_cell_length_a	14.767
_cell_length_b	18.5814
_cell_length_c	30.7
_cell_angle_alpha	98.9879
_cell_angle_beta	90
_cell_angle_gamma	113.413
loop_
_atom_site_label
_atom_site_type_symbol
_atom_site_fract_x
_atom_site_fract_y
_atom_site_fract_z
_atom_site_charge
Mof_Zn	Zn	0.02462	0.25888	0.55846	1.163
Mof_Zn	Zn	0.97113	0.65722	0.73178	1.163
Mof_Zn	Zn	0.29433	0.84334	0.90222	1.165
Mof_Zn	Zn	0.23426	0.25888	0.05846	1.164
Mof_Zn	Zn	0.68609	0.65722	0.23178	1.165
Mof_Zn	Zn	0.54901	0.84334	0.40222	1.165
Mof_H 	H 	0.0452	0.3724	0.644	-0.003
Mof_H 	H 	0.1659	0.4738	0.6911	0.097
Mof_H 	H 	0.3712	0.427	0.6201	0.088
Mof_H 	H 	0.2419	0.327	0.5736	-0.005
Mof_H 	H 	0.4657	0.8304	0.8619	-0.009
Mof_H 	H 	0.5138	0.7546	0.8056	0.09
Mof_H 	H 	0.2234	0.6112	0.7782	0.077
Mof_H 	H 	0.1849	0.6878	0.8357	-0.006
Mof_H 	H 	0.7811	0.5398	0.6776	-0.014
Mof_H 	H 	0.616	0.5188	0.6689	0.084
Mof_H 	H 	0.6706	0.7082	0.7646	0.086
Mof_H 	H 	0.8321	0.722	0.7714	-0.014
Mof_H 	H 	0.348	0.773	0.9727	-0.015
Mof_H 	H 	0.4818	0.7874	0.0179	0.084
Mof_H 	H 	0.6417	0.9886	0.9735	0.078
Mof_H 	H 	0.5023	0.9716	0.9308	-0.011
Mof_H 	H 	0.8437	0.7598	0.1801	-0.018
Mof_H 	H 	0.863	0.8366	0.1262	0.089
Mof_H 	H 	0.5699	0.766	0.1156	0.092
Mof_H 	H 	0.557	0.6924	0.17	-0.02
Mof_H 	H 	0.0573	0.1602	0.9907	0.003
Mof_H 	H 	0.9046	0.052	0.989	0.073
Mof_H 	H 	0.9621	0.0446	0.1156	0.085
Mof_H 	H 	0.1136	0.147	0.1149	-0.013
Mof_H 	H 	0.3272	0.3724	0.144	-0.004
Mof_H 	H 	0.3079	0.4738	0.1911	0.096
Mof_H 	H 	0.0558	0.427	0.1201	0.088
Mof_H 	H 	0.0851	0.327	0.0736	-0.005
Mof_H 	H 	0.3647	0.8304	0.3619	-0.009
Mof_H 	H 	0.2408	0.7546	0.3056	0.091
Mof_H 	H 	0.3878	0.6112	0.2782	0.077
Mof_H 	H 	0.5029	0.6878	0.3357	-0.006
Mof_H 	H 	0.7587	0.5398	0.1776	-0.014
Mof_H 	H 	0.9028	0.5188	0.1689	0.084
Mof_H 	H 	0.0376	0.7082	0.2646	0.086
Mof_H 	H 	0.8899	0.722	0.2714	-0.013
Mof_H 	H 	0.425	0.773	0.4727	-0.015
Mof_H 	H 	0.3056	0.7874	0.5179	0.085
Mof_H 	H 	0.3469	0.9886	0.4735	0.078
Mof_H 	H 	0.4693	0.9716	0.4308	-0.011
Mof_H 	H 	0.9161	0.7598	0.6801	-0.015
Mof_H 	H 	0.9736	0.8366	0.6262	0.083
Mof_H 	H 	0.1961	0.766	0.6156	0.091
Mof_H 	H 	0.1354	0.6924	0.67	-0.019
Mof_H 	H 	0.1029	0.1602	0.4907	-0
Mof_H 	H 	0.1474	0.052	0.489	0.076
Mof_H 	H 	0.0825	0.0446	0.6156	0.086
Mof_H 	H 	0.0334	0.147	0.6149	-0.015
Mof_C 	C 	0.1126	0.3846	0.6387	0.074
Mof_C 	C 	0.1839	0.4444	0.6671	-0.134
Mof_C 	C 	0.2807	0.461	0.6608	0.057
Mof_C 	C 	0.3043	0.4172	0.6255	-0.127
Mof_C 	C 	0.2263	0.3578	0.5978	0.085
Mof_C 	C 	0.3599	0.5258	0.6914	0.085
Mof_C 	C 	0.401	0.6276	0.7492	0.103
Mof_C 	C 	0.5191	0.5974	0.7149	0.1
Mof_C 	C 	0.4161	0.7842	0.8451	0.076
Mof_C 	C 	0.446	0.7402	0.8109	-0.115
Mof_C 	C 	0.3726	0.6752	0.7855	0.055
Mof_C 	C 	0.2746	0.6558	0.7953	-0.12
Mof_C 	C 	0.2522	0.7012	0.8295	0.059
Mof_C 	C 	0.7583	0.5748	0.6957	0.086
Mof_C 	C 	0.6591	0.5614	0.6903	-0.132
Mof_C 	C 	0.6244	0.6102	0.7161	0.066
Mof_C 	C 	0.6914	0.6722	0.7464	-0.122
Mof_C 	C 	0.7875	0.6804	0.7499	0.067
Mof_C 	C 	0.4086	0.8178	0.9729	0.076
Mof_C 	C 	0.4878	0.8262	0.0002	-0.129
Mof_C 	C 	0.574	0.8906	0.0013	0.064
Mof_C 	C 	0.581	0.9442	0.9744	-0.13
Mof_C 	C 	0.4981	0.9326	0.9484	0.083
Mof_C 	C 	0.6622	0.9006	0.0291	0.084
Mof_C 	C 	0.7272	0.8632	0.0833	0.098
Mof_C 	C 	0.8219	0.9664	0.0516	0.092
Mof_C 	C 	0.7866	0.762	0.1672	0.086
Mof_C 	C 	0.7989	0.8078	0.1353	-0.132
Mof_C 	C 	0.7167	0.8118	0.1163	0.082
Mof_C 	C 	0.6283	0.767	0.1291	-0.138
Mof_C 	C 	0.621	0.7226	0.1614	0.092
Mof_C 	C 	0.0377	0.1358	0.016	0.052
Mof_C 	C 	0.9474	0.0712	0.0151	-0.103
Mof_C 	C 	0.9198	0.0354	0.0505	0.047
Mof_C 	C 	0.9816	0.0664	0.0894	-0.115
Mof_C 	C 	0.0698	0.1282	0.0891	0.071
Mof_C 	C 	0.272	0.3846	0.1387	0.074
Mof_C 	C 	0.2605	0.4444	0.1671	-0.134
Mof_C 	C 	0.1803	0.461	0.1608	0.056
Mof_C 	C 	0.1129	0.4172	0.1255	-0.127
Mof_C 	C 	0.1315	0.3578	0.0978	0.085
Mof_C 	C 	0.1659	0.5258	0.1914	0.085
Mof_C 	C 	0.2266	0.6276	0.2492	0.103
Mof_C 	C 	0.0783	0.5974	0.2149	0.099
Mof_C 	C 	0.3681	0.7842	0.3451	0.076
Mof_C 	C 	0.2942	0.7402	0.3109	-0.115
Mof_C 	C 	0.3026	0.6752	0.2855	0.055
Mof_C 	C 	0.3812	0.6558	0.2953	-0.12
Mof_C 	C 	0.449	0.7012	0.3295	0.059
Mof_C 	C 	0.8165	0.5748	0.1957	0.087
Mof_C 	C 	0.9023	0.5614	0.1903	-0.132
Mof_C 	C 	0.9858	0.6102	0.2161	0.067
Mof_C 	C 	0.9808	0.6722	0.2464	-0.123
Mof_C 	C 	0.8929	0.6804	0.2499	0.068
Mof_C 	C 	0.4092	0.8178	0.4729	0.075
Mof_C 	C 	0.3384	0.8262	0.5002	-0.129
Mof_C 	C 	0.3166	0.8906	0.5013	0.064
Mof_C 	C 	0.3632	0.9442	0.4744	-0.13
Mof_C 	C 	0.4345	0.9326	0.4484	0.083
Mof_C 	C 	0.2384	0.9006	0.5291	0.084
Mof_C 	C 	0.136	0.8632	0.5833	0.101
Mof_C 	C 	0.1445	0.9664	0.5516	0.094
Mof_C 	C 	0.9754	0.762	0.6672	0.076
Mof_C 	C 	0.0089	0.8078	0.6353	-0.118
Mof_C 	C 	0.0951	0.8118	0.6163	0.076
Mof_C 	C 	0.1387	0.767	0.6291	-0.133
Mof_C 	C 	0.1016	0.7226	0.6614	0.089
Mof_C 	C 	0.0981	0.1358	0.516	0.061
Mof_C 	C 	0.1238	0.0712	0.5151	-0.112
Mof_C 	C 	0.1156	0.0354	0.5505	0.049
Mof_C 	C 	0.0848	0.0664	0.5894	-0.122
Mof_C 	C 	0.0584	0.1282	0.5891	0.078
Mof_I 	I 	0.86564	0.21778	0.59862	-0.376
Mof_I 	I 	0.0538	0.30922	0.48637	-0.376
Mof_I 	I 	0.99846	0.53134	0.70868	-0.382
Mof_I 	I 	0.03622	0.75142	0.80527	-0.402
Mof_I 	I 	0.14142	0.7659	0.93943	-0.373
Mof_I 	I 	0.33132	0.96494	0.86567	-0.35
Mof_I 	I 	0.35214	0.21778	0.09862	-0.378
Mof_I 	I 	0.25542	0.30922	0.98637	-0.375
Mof_I 	I 	0.53288	0.53134	0.20868	-0.381
Mof_I 	I 	0.7152	0.75142	0.30527	-0.405
Mof_I 	I 	0.62448	0.7659	0.43943	-0.375
Mof_I 	I 	0.63362	0.96494	0.36567	-0.352
Mof_N 	N 	0.1339	0.3428	0.6034	-0.276
Mof_N 	N 	0.3279	0.5656	0.7241	-0.139
Mof_N 	N 	0.4966	0.6466	0.7462	-0.134
Mof_N 	N 	0.454	0.5386	0.6854	-0.138
Mof_N 	N 	0.3241	0.7652	0.8552	-0.27
Mof_N 	N 	0.8217	0.6328	0.7243	-0.276
Mof_N 	N 	0.4139	0.8702	0.947	-0.273
Mof_N 	N 	0.6477	0.8516	0.0582	-0.135
Mof_N 	N 	0.8172	0.9202	0.0811	-0.137
Mof_N 	N 	0.7488	0.959	0.024	-0.149
Mof_N 	N 	0.0973	0.1632	0.0539	-0.264
Mof_N 	N 	0.6985	0.7196	0.1813	-0.283
Mof_N 	N 	0.2089	0.3428	0.1034	-0.276
Mof_N 	N 	0.2377	0.5656	0.2241	-0.139
Mof_N 	N 	0.15	0.6466	0.2462	-0.134
Mof_N 	N 	0.0846	0.5386	0.1854	-0.138
Mof_N 	N 	0.4411	0.7652	0.3552	-0.27
Mof_N 	N 	0.8111	0.6328	0.2243	-0.276
Mof_N 	N 	0.4563	0.8702	0.447	-0.273
Mof_N 	N 	0.2039	0.8516	0.5582	-0.135
Mof_N 	N 	0.103	0.9202	0.5811	-0.136
Mof_N 	N 	0.2102	0.959	0.524	-0.149
Mof_N 	N 	0.0659	0.1632	0.5539	-0.266
Mof_N 	N 	0.0211	0.7196	0.6813	-0.28
Mof_Zn	Zn	0.76574	0.74112	0.94154	1.164
Mof_Zn	Zn	0.31391	0.34278	0.76822	1.165
Mof_Zn	Zn	0.45099	0.15666	0.59778	1.165
Mof_Zn	Zn	0.97538	0.74112	0.44154	1.164
Mof_Zn	Zn	0.02887	0.34278	0.26822	1.164
Mof_Zn	Zn	0.70567	0.15666	0.09778	1.165
Mof_H 	H 	0.6728	0.6276	0.856	-0.004
Mof_H 	H 	0.6921	0.5262	0.8089	0.096
Mof_H 	H 	0.9442	0.573	0.8799	0.088
Mof_H 	H 	0.9149	0.673	0.9264	-0.005
Mof_H 	H 	0.6353	0.1696	0.6381	-0.009
Mof_H 	H 	0.7592	0.2454	0.6944	0.091
Mof_H 	H 	0.6122	0.3888	0.7218	0.077
Mof_H 	H 	0.4971	0.3122	0.6643	-0.006
Mof_H 	H 	0.2413	0.4602	0.8224	-0.014
Mof_H 	H 	0.0972	0.4812	0.8311	0.084
Mof_H 	H 	0.9624	0.2918	0.7354	0.086
Mof_H 	H 	0.1101	0.278	0.7286	-0.013
Mof_H 	H 	0.575	0.227	0.5273	-0.015
Mof_H 	H 	0.6944	0.2126	0.4821	0.085
Mof_H 	H 	0.6531	0.0114	0.5265	0.078
Mof_H 	H 	0.5307	0.0284	0.5692	-0.011
Mof_H 	H 	0.0839	0.2402	0.3199	-0.015
Mof_H 	H 	0.0264	0.1634	0.3738	0.083
Mof_H 	H 	0.8039	0.234	0.3844	0.091
Mof_H 	H 	0.8646	0.3076	0.33	-0.019
Mof_H 	H 	0.8971	0.8398	0.5093	-0
Mof_H 	H 	0.8526	0.948	0.511	0.076
Mof_H 	H 	0.9175	0.9554	0.3844	0.086
Mof_H 	H 	0.9666	0.853	0.3851	-0.015
Mof_H 	H 	0.9548	0.6276	0.356	-0.003
Mof_H 	H 	0.8341	0.5262	0.3089	0.097
Mof_H 	H 	0.6288	0.573	0.3799	0.088
Mof_H 	H 	0.7581	0.673	0.4264	-0.005
Mof_H 	H 	0.5343	0.1696	0.1381	-0.009
Mof_H 	H 	0.4862	0.2454	0.1944	0.09
Mof_H 	H 	0.7766	0.3888	0.2218	0.077
Mof_H 	H 	0.8151	0.3122	0.1643	-0.006
Mof_H 	H 	0.2189	0.4602	0.3224	-0.014
Mof_H 	H 	0.384	0.4812	0.3311	0.084
Mof_H 	H 	0.3294	0.2918	0.2354	0.086
Mof_H 	H 	0.1679	0.278	0.2286	-0.014
Mof_H 	H 	0.652	0.227	0.0273	-0.015
Mof_H 	H 	0.5182	0.2126	0.9821	0.084
Mof_H 	H 	0.3583	0.0114	0.0265	0.078
Mof_H 	H 	0.4977	0.0284	0.0692	-0.011
Mof_H 	H 	0.1563	0.2402	0.8199	-0.018
Mof_H 	H 	0.137	0.1634	0.8738	0.089
Mof_H 	H 	0.4301	0.234	0.8844	0.092
Mof_H 	H 	0.443	0.3076	0.83	-0.02
Mof_H 	H 	0.9427	0.8398	0.0093	0.003
Mof_H 	H 	0.0954	0.948	0.011	0.073
Mof_H 	H 	0.0379	0.9554	0.8844	0.085
Mof_H 	H 	0.8864	0.853	0.8851	-0.013
Mof_C 	C 	0.728	0.6154	0.8613	0.074
Mof_C 	C 	0.7395	0.5556	0.8329	-0.134
Mof_C 	C 	0.8197	0.539	0.8392	0.056
Mof_C 	C 	0.8871	0.5828	0.8745	-0.127
Mof_C 	C 	0.8685	0.6422	0.9022	0.085
Mof_C 	C 	0.8341	0.4742	0.8086	0.085
Mof_C 	C 	0.7734	0.3724	0.7508	0.103
Mof_C 	C 	0.9217	0.4026	0.7851	0.099
Mof_C 	C 	0.6319	0.2158	0.6549	0.076
Mof_C 	C 	0.7058	0.2598	0.6891	-0.115
Mof_C 	C 	0.6974	0.3248	0.7145	0.055
Mof_C 	C 	0.6188	0.3442	0.7047	-0.12
Mof_C 	C 	0.551	0.2988	0.6705	0.059
Mof_C 	C 	0.1835	0.4252	0.8043	0.087
Mof_C 	C 	0.0977	0.4386	0.8097	-0.132
Mof_C 	C 	0.0142	0.3898	0.7839	0.067
Mof_C 	C 	0.0192	0.3278	0.7536	-0.123
Mof_C 	C 	0.1071	0.3196	0.7501	0.068
Mof_C 	C 	0.5908	0.1822	0.5271	0.075
Mof_C 	C 	0.6616	0.1738	0.4998	-0.129
Mof_C 	C 	0.6834	0.1094	0.4987	0.064
Mof_C 	C 	0.6368	0.0558	0.5256	-0.13
Mof_C 	C 	0.5655	0.0674	0.5516	0.083
Mof_C 	C 	0.7616	0.0994	0.4709	0.084
Mof_C 	C 	0.864	0.1368	0.4167	0.101
Mof_C 	C 	0.8555	0.0336	0.4484	0.094
Mof_C 	C 	0.0246	0.238	0.3328	0.076
Mof_C 	C 	0.9911	0.1922	0.3647	-0.118
Mof_C 	C 	0.9049	0.1882	0.3837	0.076
Mof_C 	C 	0.8613	0.233	0.3709	-0.133
Mof_C 	C 	0.8984	0.2774	0.3386	0.089
Mof_C 	C 	0.9019	0.8642	0.484	0.061
Mof_C 	C 	0.8762	0.9288	0.4849	-0.112
Mof_C 	C 	0.8844	0.9646	0.4495	0.049
Mof_C 	C 	0.9152	0.9336	0.4106	-0.122
Mof_C 	C 	0.9416	0.8718	0.4109	0.078
Mof_C 	C 	0.8874	0.6154	0.3613	0.074
Mof_C 	C 	0.8161	0.5556	0.3329	-0.134
Mof_C 	C 	0.7193	0.539	0.3392	0.057
Mof_C 	C 	0.6957	0.5828	0.3745	-0.127
Mof_C 	C 	0.7737	0.6422	0.4022	0.085
Mof_C 	C 	0.6401	0.4742	0.3086	0.085
Mof_C 	C 	0.599	0.3724	0.2508	0.103
Mof_C 	C 	0.4809	0.4026	0.2851	0.1
Mof_C 	C 	0.5839	0.2158	0.1549	0.076
Mof_C 	C 	0.554	0.2598	0.1891	-0.115
Mof_C 	C 	0.6274	0.3248	0.2145	0.055
Mof_C 	C 	0.7254	0.3442	0.2047	-0.12
Mof_C 	C 	0.7478	0.2988	0.1705	0.059
Mof_C 	C 	0.2417	0.4252	0.3043	0.086
Mof_C 	C 	0.3409	0.4386	0.3097	-0.132
Mof_C 	C 	0.3756	0.3898	0.2839	0.066
Mof_C 	C 	0.3086	0.3278	0.2536	-0.122
Mof_C 	C 	0.2125	0.3196	0.2501	0.067
Mof_C 	C 	0.5914	0.1822	0.0271	0.076
Mof_C 	C 	0.5122	0.1738	0.9998	-0.129
Mof_C 	C 	0.426	0.1094	0.9987	0.064
Mof_C 	C 	0.419	0.0558	0.0256	-0.13
Mof_C 	C 	0.5019	0.0674	0.0516	0.083
Mof_C 	C 	0.3378	0.0994	0.9709	0.084
Mof_C 	C 	0.2728	0.1368	0.9167	0.098
Mof_C 	C 	0.1781	0.0336	0.9484	0.092
Mof_C 	C 	0.2134	0.238	0.8328	0.086
Mof_C 	C 	0.2011	0.1922	0.8647	-0.132
Mof_C 	C 	0.2833	0.1882	0.8837	0.082
Mof_C 	C 	0.3717	0.233	0.8709	-0.138
Mof_C 	C 	0.379	0.2774	0.8386	0.092
Mof_C 	C 	0.9623	0.8642	0.984	0.052
Mof_C 	C 	0.0526	0.9288	0.9849	-0.103
Mof_C 	C 	0.0802	0.9646	0.9495	0.047
Mof_C 	C 	0.0184	0.9336	0.9106	-0.115
Mof_C 	C 	0.9302	0.8718	0.9109	0.071
Mof_I 	I 	0.64786	0.78222	0.90138	-0.378
Mof_I 	I 	0.74458	0.69078	0.01363	-0.375
Mof_I 	I 	0.46712	0.46866	0.79132	-0.381
Mof_I 	I 	0.2848	0.24858	0.69473	-0.405
Mof_I 	I 	0.37552	0.2341	0.56057	-0.375
Mof_I 	I 	0.36638	0.03506	0.63433	-0.352
Mof_I 	I 	0.13436	0.78222	0.40138	-0.376
Mof_I 	I 	0.9462	0.69078	0.51363	-0.376
Mof_I 	I 	0.00154	0.46866	0.29132	-0.382
Mof_I 	I 	0.96378	0.24858	0.19473	-0.402
Mof_I 	I 	0.85858	0.2341	0.06057	-0.373
Mof_I 	I 	0.66868	0.03506	0.13433	-0.35
Mof_N 	N 	0.7911	0.6572	0.8966	-0.276
Mof_N 	N 	0.7623	0.4344	0.7759	-0.139
Mof_N 	N 	0.85	0.3534	0.7538	-0.134
Mof_N 	N 	0.9154	0.4614	0.8146	-0.138
Mof_N 	N 	0.5589	0.2348	0.6448	-0.27
Mof_N 	N 	0.1889	0.3672	0.7757	-0.276
Mof_N 	N 	0.5437	0.1298	0.553	-0.273
Mof_N 	N 	0.7961	0.1484	0.4418	-0.135
Mof_N 	N 	0.897	0.0798	0.4189	-0.136
Mof_N 	N 	0.7898	0.041	0.476	-0.149
Mof_N 	N 	0.9341	0.8368	0.4461	-0.266
Mof_N 	N 	0.9789	0.2804	0.3187	-0.28
Mof_N 	N 	0.8661	0.6572	0.3966	-0.276
Mof_N 	N 	0.6721	0.4344	0.2759	-0.139
Mof_N 	N 	0.5034	0.3534	0.2538	-0.134
Mof_N 	N 	0.546	0.4614	0.3146	-0.138
Mof_N 	N 	0.6759	0.2348	0.1448	-0.27
Mof_N 	N 	0.1783	0.3672	0.2757	-0.276
Mof_N 	N 	0.5861	0.1298	0.053	-0.273
Mof_N 	N 	0.3523	0.1484	0.9418	-0.135
Mof_N 	N 	0.1828	0.0798	0.9189	-0.137
Mof_N 	N 	0.2512	0.041	0.976	-0.149
Mof_N 	N 	0.9027	0.8368	0.9461	-0.264
Mof_N 	N 	0.3015	0.2804	0.8187	-0.283
_end
