data_functionalizedCrystal
_audit_creation_method	'EQeq! by Chris Wilmer'
_symmetry_space_group_name_H-M	'P1'
_symmetry_Int_Tables_number	1
_symmetry_cell_setting	triclinic
loop_
_symmetry_equiv_pos_as_xyz
  x,y,z
_cell_length_a	8.8515
_cell_length_b	15.6733
_cell_length_c	17.9457
_cell_angle_alpha	105.459
_cell_angle_beta	99.1
_cell_angle_gamma	98.586
loop_
_atom_site_label
_atom_site_type_symbol
_atom_site_fract_x
_atom_site_fract_y
_atom_site_fract_z
_atom_site_charge
Mof_Yb	Yb	0.31963	0.16822	0.27452	0.71
Mof_Yb	Yb	0.68037	0.83178	0.72548	0.711
Mof_K 	K 	0.5543	0.7063	0.1191	1.75
Mof_K 	K 	0.4457	0.2937	0.8809	1.746
Mof_Pt	Pt	0.5	0	0.5	0.026
Mof_Pt	Pt	0.5	0.5	0.5	0.058
Mof_Pt	Pt	0.5	0	-0	0.012
Mof_Pt	Pt	-0	0.5	-0	-0.027
Mof_C 	C 	0.438	0.0624	0.4221	-0.03
Mof_C 	C 	0.686	0.1013	0.5485	-0.045
Mof_C 	C 	0.408	0.3755	0.4256	-0.018
Mof_C 	C 	0.329	0.493	0.5576	-0.039
Mof_C 	C 	0.455	0.0626	0.1041	-0.052
Mof_C 	C 	0.595	0.9146	0.0484	-0.066
Mof_C 	C 	0.171	0.6053	0.0092	-0.11
Mof_C 	C 	0.879	0.5814	0.0581	-0.071
Mof_C 	C 	0.562	0.9376	0.5779	-0.028
Mof_C 	C 	0.314	0.8987	0.4515	-0.042
Mof_C 	C 	0.592	0.6245	0.5744	-0.018
Mof_C 	C 	0.671	0.507	0.4424	-0.039
Mof_C 	C 	0.545	0.9374	0.8959	-0.051
Mof_C 	C 	0.405	0.0854	0.9516	-0.069
Mof_C 	C 	0.829	0.3947	0.9908	-0.113
Mof_C 	C 	0.121	0.4186	0.9419	-0.07
Mof_N 	N 	0.405	0.1016	0.3785	-0.23
Mof_N 	N 	0.791	0.1596	0.5758	-0.174
Mof_N 	N 	0.3598	0.3057	0.3796	-0.235
Mof_N 	N 	0.232	0.4888	0.5945	-0.162
Mof_N 	N 	0.4231	0.0968	0.1622	-0.251
Mof_N 	N 	0.647	0.8609	0.0751	-0.33
Mof_N 	N 	0.266	0.6649	0.0154	-0.324
Mof_N 	N 	0.808	0.6273	0.0904	-0.357
Mof_N 	N 	0.595	0.8984	0.6215	-0.23
Mof_N 	N 	0.209	0.8404	0.4242	-0.173
Mof_N 	N 	0.6402	0.6943	0.6204	-0.235
Mof_N 	N 	0.768	0.5112	0.4055	-0.163
Mof_N 	N 	0.5769	0.9032	0.8378	-0.251
Mof_N 	N 	0.353	0.1391	0.9249	-0.33
Mof_N 	N 	0.734	0.3351	0.9846	-0.324
Mof_N 	N 	0.192	0.3727	0.9096	-0.356
_end
