data_functionalizedCrystal
_audit_creation_method	'EQeq! by Chris Wilmer'
_symmetry_space_group_name_H-M	'P1'
_symmetry_Int_Tables_number	1
_symmetry_cell_setting	triclinic
loop_
_symmetry_equiv_pos_as_xyz
  x,y,z
_cell_length_a	43.986
_cell_length_b	14.1893
_cell_length_c	26.3617
_cell_angle_alpha	90
_cell_angle_beta	107.283
_cell_angle_gamma	90
loop_
_atom_site_label
_atom_site_type_symbol
_atom_site_fract_x
_atom_site_fract_y
_atom_site_fract_z
_atom_site_charge
Mof_O 	O 	0.26	0.0919	0.7281	0.474
Mof_H 	H 	0.2554	0.0664	0.7537	-0.051
Mof_Ca	Ca	0.13716	0.15554	0.43964	1.407
Mof_Ca	Ca	0.20968	0.30803	0.45716	1.238
Mof_Ca	Ca	0.05499	0.22706	0.34374	1.361
Mof_C 	C 	0.05722	0.4481	0.11353	0.012
Mof_C 	C 	0.07011	0.4413	0.1689	0.086
Mof_C 	C 	0.06039	0.3703	0.19601	-0.046
Mof_H 	H 	0.0697	0.3665	0.2334	0.029
Mof_C 	C 	0.03796	0.3048	0.17162	-0.142
Mof_C 	C 	0.0261	0.3074	0.1174	0.023
Mof_H 	H 	0.0111	0.2617	0.0989	0.012
Mof_C 	C 	0.03645	0.379	0.09	-0.099
Mof_H 	H 	0.0284	0.3792	0.0523	0.057
Mof_O 	O 	0.09292	0.5026	0.19529	-0.214
Mof_C 	C 	0.02611	0.2336	0.20301	0.4
Mof_O 	O 	0.04203	0.2167	0.25001	-0.515
Mof_O 	O 	0.00075	0.1891	0.18061	-0.539
Mof_C 	C 	0.06454	0.5286	0.08176	-0.078
Mof_C 	C 	0.09456	0.5673	0.089	0.218
Mof_C 	C 	0.09925	0.6362	0.0549	-0.128
Mof_H 	H 	0.1199	0.6622	0.0606	0.087
Mof_C 	C 	0.07444	0.6676	0.01273	-0.061
Mof_C 	C 	0.04448	0.633	0.007	-0.034
Mof_H 	H 	0.0269	0.6551	0.979	0.039
Mof_C 	C 	0.03985	0.5667	0.0417	-0.022
Mof_H 	H 	0.0188	0.546	0.038	0.034
Mof_O 	O 	0.12028	0.5387	0.1284	-0.405
Mof_H 	H 	0.1149	0.4963	0.1463	0.259
Mof_C 	C 	0.08005	0.7423	0.97478	0.401
Mof_O 	O 	0.05816	0.7545	0.93236	-0.471
Mof_O 	O 	0.10626	0.7832	0.98834	-0.477
Mof_C 	C 	0.1098	0.6373	0.3588	-0.024
Mof_C 	C 	0.09941	0.5702	0.3183	0.198
Mof_C 	C 	0.1064	0.4749	0.3304	-0.109
Mof_H 	H 	0.0989	0.4291	0.3033	0.052
Mof_C 	C 	0.12369	0.4459	0.38024	-0.118
Mof_C 	C 	0.13577	0.513	0.4195	0.003
Mof_H 	H 	0.1492	0.4944	0.4533	0.001
Mof_C 	C 	0.12814	0.6068	0.4091	-0.065
Mof_H 	H 	0.1355	0.6517	0.4367	0.046
Mof_O 	O 	0.08397	0.5964	0.269	-0.363
Mof_H 	H 	0.0796	0.5486	0.2494	0.246
Mof_C 	C 	0.12892	0.3433	0.39246	0.41
Mof_O 	O 	0.15356	0.31722	0.4271	-0.553
Mof_O 	O 	0.1078	0.28545	0.3681	-0.517
Mof_C 	C 	0.10074	0.7397	0.3504	0.014
Mof_C 	C 	0.07029	0.7698	0.3236	0.144
Mof_C 	C 	0.06206	0.8635	0.324	-0.061
Mof_H 	H 	0.0407	0.8823	0.3072	0.013
Mof_C 	C 	0.08454	0.931	0.34864	-0.145
Mof_C 	C 	0.1154	0.903	0.3721	0.049
Mof_H 	H 	0.1313	0.9486	0.3873	0.001
Mof_C 	C 	0.12352	0.808	0.3736	-0.079
Mof_H 	H 	0.1449	0.7894	0.3906	0.077
Mof_O 	O 	0.04704	0.708	0.2952	-0.342
Mof_H 	H 	0.0302	0.7379	0.2809	0.196
Mof_C 	C 	0.07495	0.0313	0.34748	0.424
Mof_O 	O 	0.09385	0.09165	0.37473	-0.546
Mof_O 	O 	0.04699	0.05577	0.3204	-0.538
Mof_C 	C 	0.20488	0.0629	0.6885	-0.909
Mof_C 	C 	0.23286	0.0943	0.6836	0.922
Mof_C 	C 	0.2351	0.134	0.6371	-0.718
Mof_H 	H 	0.2551	0.1551	0.6347	0.242
Mof_C 	C 	0.20803	0.1431	0.59398	0.4
Mof_C 	C 	0.17882	0.1236	0.6003	-0.865
Mof_H 	H 	0.1599	0.1406	0.5733	0.313
Mof_C 	C 	0.17688	0.0788	0.6462	1.278
Mof_H 	H 	0.1568	0.059	0.649	-1.508
Mof_C 	C 	0.20995	0.181	0.54173	0.234
Mof_O 	O 	0.23622	0.2009	0.53589	-0.501
Mof_O 	O 	0.18458	0.1959	0.50604	-0.499
Mof_C 	C 	0.20202	0.0137	0.7375	0.448
Mof_O 	O 	0.172	0.1571	0.7631	-2.311
Mof_H 	H 	0.175	0.1823	0.7361	0.744
Mof_C 	C 	0.1816	0.0551	0.7655	-1.368
Mof_C 	C 	0.1781	0.0027	0.8092	0.709
Mof_H 	H 	0.1637	0.0246	0.8272	-0.166
Mof_C 	C 	0.19506	0.9207	0.8268	-0.338
Mof_C 	C 	0.21301	0.8854	0.7983	-0.101
Mof_H 	H 	0.2234	0.8265	0.808	0.083
Mof_C 	C 	0.2167	0.9346	0.7542	0.472
Mof_H 	H 	0.2304	0.9092	0.7358	-1.255
Mof_C 	C 	0.18965	0.8675	0.87278	0.502
Mof_O 	O 	0.20575	0.7958	0.88874	-0.497
Mof_O 	O 	0.16918	0.9012	0.89221	-0.501
Mof_H 	H 	0.2515	0.0888	0.713	-0.712
Mof_O 	O 	0.1459	0.0698	0.6531	1.437
Mof_H 	H 	0.1322	0.0923	0.6265	-0.421
Mof_H 	H 	0.1711	0.1136	0.7552	1.968
Mof_O 	O 	0.2372	0.89	0.7272	1.424
Mof_H 	H 	0.2447	0.84	0.7431	-0.41
Mof_O 	O 	0.76	0.5919	0.7281	0.475
Mof_H 	H 	0.7554	0.5664	0.7537	-0.05
Mof_Ca	Ca	0.63716	0.65554	0.43964	1.408
Mof_Ca	Ca	0.70968	0.80803	0.45716	1.239
Mof_Ca	Ca	0.55499	0.72706	0.34374	1.364
Mof_C 	C 	0.55722	0.9481	0.11353	0.013
Mof_C 	C 	0.57011	0.9413	0.1689	0.087
Mof_C 	C 	0.56039	0.8703	0.19601	-0.045
Mof_H 	H 	0.5697	0.8665	0.2334	0.03
Mof_C 	C 	0.53796	0.8048	0.17162	-0.14
Mof_C 	C 	0.5261	0.8074	0.1174	0.024
Mof_H 	H 	0.5111	0.7617	0.0989	0.014
Mof_C 	C 	0.53645	0.879	0.09	-0.098
Mof_H 	H 	0.5284	0.8792	0.0523	0.059
Mof_O 	O 	0.59292	0.0026	0.19529	-0.213
Mof_C 	C 	0.52611	0.7336	0.20301	0.401
Mof_O 	O 	0.54203	0.7167	0.25001	-0.514
Mof_O 	O 	0.50075	0.6891	0.18061	-0.537
Mof_C 	C 	0.56454	0.0286	0.08176	-0.076
Mof_C 	C 	0.59456	0.0673	0.089	0.219
Mof_C 	C 	0.59925	0.1362	0.0549	-0.128
Mof_H 	H 	0.6199	0.1622	0.0606	0.087
Mof_C 	C 	0.57444	0.1676	0.01273	-0.06
Mof_C 	C 	0.54448	0.133	0.007	-0.034
Mof_H 	H 	0.5269	0.1551	0.979	0.039
Mof_C 	C 	0.53985	0.0667	0.0417	-0.022
Mof_H 	H 	0.5188	0.046	0.038	0.035
Mof_O 	O 	0.62028	0.0387	0.1284	-0.405
Mof_H 	H 	0.6149	0.9963	0.1463	0.258
Mof_C 	C 	0.58005	0.2423	0.97478	0.401
Mof_O 	O 	0.55816	0.2545	0.93236	-0.47
Mof_O 	O 	0.60626	0.2832	0.98834	-0.477
Mof_C 	C 	0.6098	0.1373	0.3588	-0.024
Mof_C 	C 	0.59941	0.0702	0.3183	0.199
Mof_C 	C 	0.6064	0.9749	0.3304	-0.11
Mof_H 	H 	0.5989	0.9291	0.3033	0.052
Mof_C 	C 	0.62369	0.9459	0.38024	-0.118
Mof_C 	C 	0.63577	0.013	0.4195	0.004
Mof_H 	H 	0.6492	0.9944	0.4533	0.001
Mof_C 	C 	0.62814	0.1068	0.4091	-0.065
Mof_H 	H 	0.6355	0.1517	0.4367	0.046
Mof_O 	O 	0.58397	0.0964	0.269	-0.363
Mof_H 	H 	0.5796	0.0486	0.2494	0.246
Mof_C 	C 	0.62892	0.8433	0.39246	0.41
Mof_O 	O 	0.65356	0.81722	0.4271	-0.553
Mof_O 	O 	0.6078	0.78545	0.3681	-0.518
Mof_C 	C 	0.60074	0.2397	0.3504	0.014
Mof_C 	C 	0.57029	0.2698	0.3236	0.144
Mof_C 	C 	0.56206	0.3635	0.324	-0.061
Mof_H 	H 	0.5407	0.3823	0.3072	0.013
Mof_C 	C 	0.58454	0.431	0.34864	-0.145
Mof_C 	C 	0.6154	0.403	0.3721	0.049
Mof_H 	H 	0.6313	0.4486	0.3873	0.001
Mof_C 	C 	0.62352	0.308	0.3736	-0.079
Mof_H 	H 	0.6449	0.2894	0.3906	0.077
Mof_O 	O 	0.54704	0.208	0.2952	-0.342
Mof_H 	H 	0.5302	0.2379	0.2809	0.197
Mof_C 	C 	0.57495	0.5313	0.34748	0.424
Mof_O 	O 	0.59385	0.59165	0.37473	-0.546
Mof_O 	O 	0.54699	0.55577	0.3204	-0.538
Mof_C 	C 	0.70488	0.5629	0.6885	-0.909
Mof_C 	C 	0.73286	0.5943	0.6836	0.922
Mof_C 	C 	0.7351	0.634	0.6371	-0.718
Mof_H 	H 	0.7551	0.6551	0.6347	0.242
Mof_C 	C 	0.70803	0.6431	0.59398	0.4
Mof_C 	C 	0.67882	0.6236	0.6003	-0.865
Mof_H 	H 	0.6599	0.6406	0.5733	0.313
Mof_C 	C 	0.67688	0.5788	0.6462	1.278
Mof_H 	H 	0.6568	0.559	0.649	-1.508
Mof_C 	C 	0.70995	0.681	0.54173	0.234
Mof_O 	O 	0.73622	0.7009	0.53589	-0.501
Mof_O 	O 	0.68458	0.6959	0.50604	-0.499
Mof_C 	C 	0.70202	0.5137	0.7375	0.449
Mof_O 	O 	0.672	0.6571	0.7631	-2.312
Mof_H 	H 	0.675	0.6823	0.7361	0.744
Mof_C 	C 	0.6816	0.5551	0.7655	-1.369
Mof_C 	C 	0.6781	0.5027	0.8092	0.709
Mof_H 	H 	0.6637	0.5246	0.8272	-0.166
Mof_C 	C 	0.69506	0.4207	0.8268	-0.339
Mof_C 	C 	0.71301	0.3854	0.7983	-0.1
Mof_H 	H 	0.7234	0.3265	0.808	0.083
Mof_C 	C 	0.7167	0.4346	0.7542	0.471
Mof_H 	H 	0.7304	0.4092	0.7358	-1.255
Mof_C 	C 	0.68965	0.3675	0.87278	0.502
Mof_O 	O 	0.70575	0.2958	0.88874	-0.497
Mof_O 	O 	0.66918	0.4012	0.89221	-0.501
Mof_H 	H 	0.7515	0.5888	0.713	-0.712
Mof_O 	O 	0.6459	0.5698	0.6531	1.437
Mof_H 	H 	0.6322	0.5923	0.6265	-0.421
Mof_H 	H 	0.6711	0.6136	0.7552	1.968
Mof_O 	O 	0.7372	0.39	0.7272	1.425
Mof_H 	H 	0.7447	0.34	0.7431	-0.41
Mof_O 	O 	0.74	0.0919	0.7719	0.475
Mof_H 	H 	0.7446	0.0664	0.7463	-0.05
Mof_Ca	Ca	0.86284	0.15554	0.06036	1.409
Mof_Ca	Ca	0.79032	0.30803	0.04284	1.24
Mof_Ca	Ca	0.94501	0.22706	0.15626	1.368
Mof_C 	C 	0.94278	0.4481	0.38647	0.013
Mof_C 	C 	0.92989	0.4413	0.3311	0.088
Mof_C 	C 	0.93961	0.3703	0.30399	-0.045
Mof_H 	H 	0.9303	0.3665	0.2666	0.03
Mof_C 	C 	0.96204	0.3048	0.32838	-0.14
Mof_C 	C 	0.9739	0.3074	0.3826	0.024
Mof_H 	H 	0.9889	0.2617	0.4011	0.015
Mof_C 	C 	0.96355	0.379	0.41	-0.097
Mof_H 	H 	0.9716	0.3792	0.4477	0.06
Mof_O 	O 	0.90708	0.5026	0.30471	-0.213
Mof_C 	C 	0.97389	0.2336	0.29699	0.401
Mof_O 	O 	0.95797	0.2167	0.24999	-0.513
Mof_O 	O 	0.99925	0.1891	0.31939	-0.533
Mof_C 	C 	0.93546	0.5286	0.41824	-0.077
Mof_C 	C 	0.90544	0.5673	0.411	0.219
Mof_C 	C 	0.90075	0.6362	0.4451	-0.128
Mof_H 	H 	0.8801	0.6622	0.4394	0.087
Mof_C 	C 	0.92556	0.6676	0.48727	-0.06
Mof_C 	C 	0.95552	0.633	0.493	-0.035
Mof_H 	H 	0.9731	0.6551	0.521	0.041
Mof_C 	C 	0.96015	0.5667	0.4583	-0.021
Mof_H 	H 	0.9812	0.546	0.462	0.036
Mof_O 	O 	0.87972	0.5387	0.3716	-0.405
Mof_H 	H 	0.8851	0.4963	0.3537	0.259
Mof_C 	C 	0.91995	0.7423	0.52522	0.401
Mof_O 	O 	0.94184	0.7545	0.56764	-0.47
Mof_O 	O 	0.89374	0.7832	0.51166	-0.477
Mof_C 	C 	0.8902	0.6373	0.1412	-0.023
Mof_C 	C 	0.90059	0.5702	0.1817	0.198
Mof_C 	C 	0.8936	0.4749	0.1696	-0.109
Mof_H 	H 	0.9011	0.4291	0.1967	0.052
Mof_C 	C 	0.87631	0.4459	0.11976	-0.118
Mof_C 	C 	0.86423	0.513	0.0805	0.003
Mof_H 	H 	0.8508	0.4944	0.0467	0.001
Mof_C 	C 	0.87186	0.6068	0.0909	-0.065
Mof_H 	H 	0.8645	0.6517	0.0633	0.046
Mof_O 	O 	0.91603	0.5964	0.231	-0.363
Mof_H 	H 	0.9204	0.5486	0.2506	0.246
Mof_C 	C 	0.87108	0.3433	0.10754	0.411
Mof_O 	O 	0.84644	0.31722	0.0729	-0.553
Mof_O 	O 	0.8922	0.28545	0.1319	-0.518
Mof_C 	C 	0.89926	0.7397	0.1496	0.014
Mof_C 	C 	0.92971	0.7698	0.1764	0.145
Mof_C 	C 	0.93794	0.8635	0.176	-0.061
Mof_H 	H 	0.9593	0.8823	0.1928	0.014
Mof_C 	C 	0.91546	0.931	0.15136	-0.145
Mof_C 	C 	0.8846	0.903	0.1279	0.049
Mof_H 	H 	0.8687	0.9486	0.1127	0.001
Mof_C 	C 	0.87648	0.808	0.1264	-0.078
Mof_H 	H 	0.8551	0.7894	0.1094	0.077
Mof_O 	O 	0.95296	0.708	0.2048	-0.342
Mof_H 	H 	0.9698	0.7379	0.2191	0.198
Mof_C 	C 	0.92505	0.0313	0.15252	0.424
Mof_O 	O 	0.90615	0.09165	0.12527	-0.546
Mof_O 	O 	0.95301	0.05577	0.1796	-0.536
Mof_C 	C 	0.79512	0.0629	0.8115	-0.909
Mof_C 	C 	0.76714	0.0943	0.8164	0.922
Mof_C 	C 	0.7649	0.134	0.8629	-0.718
Mof_H 	H 	0.7449	0.1551	0.8653	0.242
Mof_C 	C 	0.79197	0.1431	0.90602	0.4
Mof_C 	C 	0.82118	0.1236	0.8997	-0.865
Mof_H 	H 	0.8401	0.1406	0.9267	0.313
Mof_C 	C 	0.82312	0.0788	0.8538	1.278
Mof_H 	H 	0.8432	0.059	0.851	-1.508
Mof_C 	C 	0.79005	0.181	0.95827	0.234
Mof_O 	O 	0.76378	0.2009	0.96411	-0.501
Mof_O 	O 	0.81542	0.1959	0.99396	-0.5
Mof_C 	C 	0.79798	0.0137	0.7625	0.448
Mof_O 	O 	0.828	0.1571	0.7369	-2.311
Mof_H 	H 	0.825	0.1823	0.7639	0.744
Mof_C 	C 	0.8184	0.0551	0.7345	-1.368
Mof_C 	C 	0.8219	0.0027	0.6908	0.709
Mof_H 	H 	0.8363	0.0246	0.6728	-0.166
Mof_C 	C 	0.80494	0.9207	0.6732	-0.339
Mof_C 	C 	0.78699	0.8854	0.7017	-0.101
Mof_H 	H 	0.7766	0.8265	0.692	0.083
Mof_C 	C 	0.7833	0.9346	0.7458	0.472
Mof_H 	H 	0.7696	0.9092	0.7642	-1.255
Mof_C 	C 	0.81035	0.8675	0.62722	0.502
Mof_O 	O 	0.79425	0.7958	0.61126	-0.497
Mof_O 	O 	0.83082	0.9012	0.60779	-0.501
Mof_H 	H 	0.7485	0.0888	0.787	-0.712
Mof_O 	O 	0.8541	0.0698	0.8469	1.436
Mof_H 	H 	0.8678	0.0923	0.8735	-0.42
Mof_H 	H 	0.8289	0.1136	0.7448	1.968
Mof_O 	O 	0.7628	0.89	0.7728	1.425
Mof_H 	H 	0.7553	0.84	0.7569	-0.41
Mof_O 	O 	0.24	0.5919	0.7719	0.475
Mof_H 	H 	0.2446	0.5664	0.7463	-0.05
Mof_Ca	Ca	0.36284	0.65554	0.06036	1.408
Mof_Ca	Ca	0.29032	0.80803	0.04284	1.239
Mof_Ca	Ca	0.44501	0.72706	0.15626	1.364
Mof_C 	C 	0.44278	0.9481	0.38647	0.013
Mof_C 	C 	0.42989	0.9413	0.3311	0.087
Mof_C 	C 	0.43961	0.8703	0.30399	-0.045
Mof_H 	H 	0.4303	0.8665	0.2666	0.03
Mof_C 	C 	0.46204	0.8048	0.32838	-0.14
Mof_C 	C 	0.4739	0.8074	0.3826	0.024
Mof_H 	H 	0.4889	0.7617	0.4011	0.014
Mof_C 	C 	0.46355	0.879	0.41	-0.098
Mof_H 	H 	0.4716	0.8792	0.4477	0.059
Mof_O 	O 	0.40708	0.0026	0.30471	-0.213
Mof_C 	C 	0.47389	0.7336	0.29699	0.401
Mof_O 	O 	0.45797	0.7167	0.24999	-0.514
Mof_O 	O 	0.49925	0.6891	0.31939	-0.537
Mof_C 	C 	0.43546	0.0286	0.41824	-0.077
Mof_C 	C 	0.40544	0.0673	0.411	0.219
Mof_C 	C 	0.40075	0.1362	0.4451	-0.128
Mof_H 	H 	0.3801	0.1622	0.4394	0.087
Mof_C 	C 	0.42556	0.1676	0.48727	-0.06
Mof_C 	C 	0.45552	0.133	0.493	-0.035
Mof_H 	H 	0.4731	0.1551	0.521	0.04
Mof_C 	C 	0.46015	0.0667	0.4583	-0.021
Mof_H 	H 	0.4812	0.046	0.462	0.035
Mof_O 	O 	0.37972	0.0387	0.3716	-0.405
Mof_H 	H 	0.3851	0.9963	0.3537	0.259
Mof_C 	C 	0.41995	0.2423	0.52522	0.401
Mof_O 	O 	0.44184	0.2545	0.56764	-0.47
Mof_O 	O 	0.39374	0.2832	0.51166	-0.477
Mof_C 	C 	0.3902	0.1373	0.1412	-0.023
Mof_C 	C 	0.40059	0.0702	0.1817	0.198
Mof_C 	C 	0.3936	0.9749	0.1696	-0.109
Mof_H 	H 	0.4011	0.9291	0.1967	0.052
Mof_C 	C 	0.37631	0.9459	0.11976	-0.119
Mof_C 	C 	0.36423	0.013	0.0805	0.005
Mof_H 	H 	0.3508	0.9944	0.0467	-0
Mof_C 	C 	0.37186	0.1068	0.0909	-0.066
Mof_H 	H 	0.3645	0.1517	0.0633	0.046
Mof_O 	O 	0.41603	0.0964	0.231	-0.363
Mof_H 	H 	0.4204	0.0486	0.2506	0.246
Mof_C 	C 	0.37108	0.8433	0.10754	0.411
Mof_O 	O 	0.34644	0.81722	0.0729	-0.553
Mof_O 	O 	0.3922	0.78545	0.1319	-0.518
Mof_C 	C 	0.39926	0.2397	0.1496	0.014
Mof_C 	C 	0.42971	0.2698	0.1764	0.144
Mof_C 	C 	0.43794	0.3635	0.176	-0.061
Mof_H 	H 	0.4593	0.3823	0.1928	0.013
Mof_C 	C 	0.41546	0.431	0.15136	-0.145
Mof_C 	C 	0.3846	0.403	0.1279	0.049
Mof_H 	H 	0.3687	0.4486	0.1127	0.001
Mof_C 	C 	0.37648	0.308	0.1264	-0.079
Mof_H 	H 	0.3551	0.2894	0.1094	0.077
Mof_O 	O 	0.45296	0.208	0.2048	-0.342
Mof_H 	H 	0.4698	0.2379	0.2191	0.197
Mof_C 	C 	0.42505	0.5313	0.15252	0.424
Mof_O 	O 	0.40615	0.59165	0.12527	-0.546
Mof_O 	O 	0.45301	0.55577	0.1796	-0.538
Mof_C 	C 	0.29512	0.5629	0.8115	-0.909
Mof_C 	C 	0.26714	0.5943	0.8164	0.922
Mof_C 	C 	0.2649	0.634	0.8629	-0.718
Mof_H 	H 	0.2449	0.6551	0.8653	0.242
Mof_C 	C 	0.29197	0.6431	0.90602	0.4
Mof_C 	C 	0.32118	0.6236	0.8997	-0.865
Mof_H 	H 	0.3401	0.6406	0.9267	0.313
Mof_C 	C 	0.32312	0.5788	0.8538	1.278
Mof_H 	H 	0.3432	0.559	0.851	-1.508
Mof_C 	C 	0.29005	0.681	0.95827	0.234
Mof_O 	O 	0.26378	0.7009	0.96411	-0.501
Mof_O 	O 	0.31542	0.6959	0.99396	-0.499
Mof_C 	C 	0.29798	0.5137	0.7625	0.449
Mof_O 	O 	0.328	0.6571	0.7369	-2.312
Mof_H 	H 	0.325	0.6823	0.7639	0.744
Mof_C 	C 	0.3184	0.5551	0.7345	-1.369
Mof_C 	C 	0.3219	0.5027	0.6908	0.709
Mof_H 	H 	0.3363	0.5246	0.6728	-0.166
Mof_C 	C 	0.30494	0.4207	0.6732	-0.339
Mof_C 	C 	0.28699	0.3854	0.7017	-0.1
Mof_H 	H 	0.2766	0.3265	0.692	0.083
Mof_C 	C 	0.2833	0.4346	0.7458	0.471
Mof_H 	H 	0.2696	0.4092	0.7642	-1.255
Mof_C 	C 	0.31035	0.3675	0.62722	0.502
Mof_O 	O 	0.29425	0.2958	0.61126	-0.497
Mof_O 	O 	0.33082	0.4012	0.60779	-0.501
Mof_H 	H 	0.2485	0.5888	0.787	-0.712
Mof_O 	O 	0.3541	0.5698	0.8469	1.437
Mof_H 	H 	0.3678	0.5923	0.8735	-0.42
Mof_H 	H 	0.3289	0.6136	0.7448	1.968
Mof_O 	O 	0.2628	0.39	0.7728	1.425
Mof_H 	H 	0.2553	0.34	0.7569	-0.41
Mof_O 	O 	0.74	0.9081	0.2719	0.475
Mof_H 	H 	0.7446	0.9336	0.2463	-0.05
Mof_Ca	Ca	0.86284	0.84446	0.56036	1.409
Mof_Ca	Ca	0.79032	0.69197	0.54284	1.239
Mof_Ca	Ca	0.94501	0.77294	0.65626	1.368
Mof_C 	C 	0.94278	0.5519	0.88647	0.014
Mof_C 	C 	0.92989	0.5587	0.8311	0.088
Mof_C 	C 	0.93961	0.6297	0.80399	-0.045
Mof_H 	H 	0.9303	0.6335	0.7666	0.03
Mof_C 	C 	0.96204	0.6952	0.82838	-0.14
Mof_C 	C 	0.9739	0.6926	0.8826	0.024
Mof_H 	H 	0.9889	0.7383	0.9011	0.015
Mof_C 	C 	0.96355	0.621	0.91	-0.097
Mof_H 	H 	0.9716	0.6208	0.9477	0.06
Mof_O 	O 	0.90708	0.4974	0.80471	-0.213
Mof_C 	C 	0.97389	0.7664	0.79699	0.401
Mof_O 	O 	0.95797	0.7833	0.74999	-0.513
Mof_O 	O 	0.99925	0.8109	0.81939	-0.533
Mof_C 	C 	0.93546	0.4714	0.91824	-0.077
Mof_C 	C 	0.90544	0.4327	0.911	0.219
Mof_C 	C 	0.90075	0.3638	0.9451	-0.128
Mof_H 	H 	0.8801	0.3378	0.9394	0.087
Mof_C 	C 	0.92556	0.3324	0.98727	-0.06
Mof_C 	C 	0.95552	0.367	0.993	-0.035
Mof_H 	H 	0.9731	0.3449	0.021	0.042
Mof_C 	C 	0.96015	0.4333	0.9583	-0.021
Mof_H 	H 	0.9812	0.454	0.962	0.036
Mof_O 	O 	0.87972	0.4613	0.8716	-0.405
Mof_H 	H 	0.8851	0.5037	0.8537	0.259
Mof_C 	C 	0.91995	0.2577	0.02522	0.402
Mof_O 	O 	0.94184	0.2455	0.06764	-0.47
Mof_O 	O 	0.89374	0.2168	0.01166	-0.477
Mof_C 	C 	0.8902	0.3627	0.6412	-0.023
Mof_C 	C 	0.90059	0.4298	0.6817	0.198
Mof_C 	C 	0.8936	0.5251	0.6696	-0.109
Mof_H 	H 	0.9011	0.5709	0.6967	0.052
Mof_C 	C 	0.87631	0.5541	0.61976	-0.118
Mof_C 	C 	0.86423	0.487	0.5805	0.003
Mof_H 	H 	0.8508	0.5056	0.5467	0.001
Mof_C 	C 	0.87186	0.3932	0.5909	-0.065
Mof_H 	H 	0.8645	0.3483	0.5633	0.046
Mof_O 	O 	0.91603	0.4036	0.731	-0.363
Mof_H 	H 	0.9204	0.4514	0.7506	0.246
Mof_C 	C 	0.87108	0.6567	0.60754	0.411
Mof_O 	O 	0.84644	0.68278	0.5729	-0.553
Mof_O 	O 	0.8922	0.71455	0.6319	-0.518
Mof_C 	C 	0.89926	0.2603	0.6496	0.014
Mof_C 	C 	0.92971	0.2302	0.6764	0.145
Mof_C 	C 	0.93794	0.1365	0.676	-0.061
Mof_H 	H 	0.9593	0.1177	0.6928	0.014
Mof_C 	C 	0.91546	0.069	0.65136	-0.144
Mof_C 	C 	0.8846	0.097	0.6279	0.049
Mof_H 	H 	0.8687	0.0514	0.6127	0.002
Mof_C 	C 	0.87648	0.192	0.6264	-0.078
Mof_H 	H 	0.8551	0.2106	0.6094	0.077
Mof_O 	O 	0.95296	0.292	0.7048	-0.342
Mof_H 	H 	0.9698	0.2621	0.7191	0.198
Mof_C 	C 	0.92505	0.9687	0.65252	0.424
Mof_O 	O 	0.90615	0.90835	0.62527	-0.546
Mof_O 	O 	0.95301	0.94423	0.6796	-0.536
Mof_C 	C 	0.79512	0.9371	0.3115	-0.909
Mof_C 	C 	0.76714	0.9057	0.3164	0.922
Mof_C 	C 	0.7649	0.866	0.3629	-0.718
Mof_H 	H 	0.7449	0.8449	0.3653	0.242
Mof_C 	C 	0.79197	0.8569	0.40602	0.4
Mof_C 	C 	0.82118	0.8764	0.3997	-0.865
Mof_H 	H 	0.8401	0.8594	0.4267	0.313
Mof_C 	C 	0.82312	0.9212	0.3538	1.278
Mof_H 	H 	0.8432	0.941	0.351	-1.508
Mof_C 	C 	0.79005	0.819	0.45827	0.234
Mof_O 	O 	0.76378	0.7991	0.46411	-0.501
Mof_O 	O 	0.81542	0.8041	0.49396	-0.5
Mof_C 	C 	0.79798	0.9863	0.2625	0.448
Mof_O 	O 	0.828	0.8429	0.2369	-2.311
Mof_H 	H 	0.825	0.8177	0.2639	0.744
Mof_C 	C 	0.8184	0.9449	0.2345	-1.368
Mof_C 	C 	0.8219	0.9973	0.1908	0.709
Mof_H 	H 	0.8363	0.9754	0.1728	-0.166
Mof_C 	C 	0.80494	0.0793	0.1732	-0.338
Mof_C 	C 	0.78699	0.1146	0.2017	-0.101
Mof_H 	H 	0.7766	0.1735	0.192	0.083
Mof_C 	C 	0.7833	0.0654	0.2458	0.472
Mof_H 	H 	0.7696	0.0908	0.2642	-1.255
Mof_C 	C 	0.81035	0.1325	0.12722	0.502
Mof_O 	O 	0.79425	0.2042	0.11126	-0.497
Mof_O 	O 	0.83082	0.0988	0.10779	-0.501
Mof_H 	H 	0.7485	0.9112	0.287	-0.712
Mof_O 	O 	0.8541	0.9302	0.3469	1.437
Mof_H 	H 	0.8678	0.9077	0.3735	-0.42
Mof_H 	H 	0.8289	0.8864	0.2448	1.968
Mof_O 	O 	0.7628	0.11	0.2728	1.424
Mof_H 	H 	0.7553	0.16	0.2569	-0.41
Mof_O 	O 	0.24	0.4081	0.2719	0.475
Mof_H 	H 	0.2446	0.4336	0.2463	-0.05
Mof_Ca	Ca	0.36284	0.34446	0.56036	1.408
Mof_Ca	Ca	0.29032	0.19197	0.54284	1.239
Mof_Ca	Ca	0.44501	0.27294	0.65626	1.364
Mof_C 	C 	0.44278	0.0519	0.88647	0.013
Mof_C 	C 	0.42989	0.0587	0.8311	0.087
Mof_C 	C 	0.43961	0.1297	0.80399	-0.045
Mof_H 	H 	0.4303	0.1335	0.7666	0.03
Mof_C 	C 	0.46204	0.1952	0.82838	-0.14
Mof_C 	C 	0.4739	0.1926	0.8826	0.024
Mof_H 	H 	0.4889	0.2383	0.9011	0.014
Mof_C 	C 	0.46355	0.121	0.91	-0.098
Mof_H 	H 	0.4716	0.1208	0.9477	0.059
Mof_O 	O 	0.40708	0.9974	0.80471	-0.213
Mof_C 	C 	0.47389	0.2664	0.79699	0.401
Mof_O 	O 	0.45797	0.2833	0.74999	-0.514
Mof_O 	O 	0.49925	0.3109	0.81939	-0.537
Mof_C 	C 	0.43546	0.9714	0.91824	-0.076
Mof_C 	C 	0.40544	0.9327	0.911	0.219
Mof_C 	C 	0.40075	0.8638	0.9451	-0.128
Mof_H 	H 	0.3801	0.8378	0.9394	0.087
Mof_C 	C 	0.42556	0.8324	0.98727	-0.06
Mof_C 	C 	0.45552	0.867	0.993	-0.034
Mof_H 	H 	0.4731	0.8449	0.021	0.04
Mof_C 	C 	0.46015	0.9333	0.9583	-0.022
Mof_H 	H 	0.4812	0.954	0.962	0.035
Mof_O 	O 	0.37972	0.9613	0.8716	-0.405
Mof_H 	H 	0.3851	0.0037	0.8537	0.258
Mof_C 	C 	0.41995	0.7577	0.02522	0.401
Mof_O 	O 	0.44184	0.7455	0.06764	-0.47
Mof_O 	O 	0.39374	0.7168	0.01166	-0.477
Mof_C 	C 	0.3902	0.8627	0.6412	-0.024
Mof_C 	C 	0.40059	0.9298	0.6817	0.199
Mof_C 	C 	0.3936	0.0251	0.6696	-0.11
Mof_H 	H 	0.4011	0.0709	0.6967	0.052
Mof_C 	C 	0.37631	0.0541	0.61976	-0.118
Mof_C 	C 	0.36423	0.987	0.5805	0.004
Mof_H 	H 	0.3508	0.0056	0.5467	0.001
Mof_C 	C 	0.37186	0.8932	0.5909	-0.065
Mof_H 	H 	0.3645	0.8483	0.5633	0.046
Mof_O 	O 	0.41603	0.9036	0.731	-0.363
Mof_H 	H 	0.4204	0.9514	0.7506	0.246
Mof_C 	C 	0.37108	0.1567	0.60754	0.41
Mof_O 	O 	0.34644	0.18278	0.5729	-0.553
Mof_O 	O 	0.3922	0.21455	0.6319	-0.518
Mof_C 	C 	0.39926	0.7603	0.6496	0.014
Mof_C 	C 	0.42971	0.7302	0.6764	0.144
Mof_C 	C 	0.43794	0.6365	0.676	-0.061
Mof_H 	H 	0.4593	0.6177	0.6928	0.013
Mof_C 	C 	0.41546	0.569	0.65136	-0.145
Mof_C 	C 	0.3846	0.597	0.6279	0.049
Mof_H 	H 	0.3687	0.5514	0.6127	0.001
Mof_C 	C 	0.37648	0.692	0.6264	-0.079
Mof_H 	H 	0.3551	0.7106	0.6094	0.077
Mof_O 	O 	0.45296	0.792	0.7048	-0.342
Mof_H 	H 	0.4698	0.7621	0.7191	0.197
Mof_C 	C 	0.42505	0.4687	0.65252	0.424
Mof_O 	O 	0.40615	0.40835	0.62527	-0.546
Mof_O 	O 	0.45301	0.44423	0.6796	-0.538
Mof_C 	C 	0.29512	0.4371	0.3115	-0.909
Mof_C 	C 	0.26714	0.4057	0.3164	0.922
Mof_C 	C 	0.2649	0.366	0.3629	-0.718
Mof_H 	H 	0.2449	0.3449	0.3653	0.242
Mof_C 	C 	0.29197	0.3569	0.40602	0.4
Mof_C 	C 	0.32118	0.3764	0.3997	-0.865
Mof_H 	H 	0.3401	0.3594	0.4267	0.313
Mof_C 	C 	0.32312	0.4212	0.3538	1.278
Mof_H 	H 	0.3432	0.441	0.351	-1.508
Mof_C 	C 	0.29005	0.319	0.45827	0.234
Mof_O 	O 	0.26378	0.2991	0.46411	-0.501
Mof_O 	O 	0.31542	0.3041	0.49396	-0.499
Mof_C 	C 	0.29798	0.4863	0.2625	0.449
Mof_O 	O 	0.328	0.3429	0.2369	-2.312
Mof_H 	H 	0.325	0.3177	0.2639	0.744
Mof_C 	C 	0.3184	0.4449	0.2345	-1.368
Mof_C 	C 	0.3219	0.4973	0.1908	0.709
Mof_H 	H 	0.3363	0.4754	0.1728	-0.166
Mof_C 	C 	0.30494	0.5793	0.1732	-0.339
Mof_C 	C 	0.28699	0.6146	0.2017	-0.1
Mof_H 	H 	0.2766	0.6735	0.192	0.083
Mof_C 	C 	0.2833	0.5654	0.2458	0.471
Mof_H 	H 	0.2696	0.5908	0.2642	-1.255
Mof_C 	C 	0.31035	0.6325	0.12722	0.502
Mof_O 	O 	0.29425	0.7042	0.11126	-0.497
Mof_O 	O 	0.33082	0.5988	0.10779	-0.501
Mof_H 	H 	0.2485	0.4112	0.287	-0.712
Mof_O 	O 	0.3541	0.4302	0.3469	1.437
Mof_H 	H 	0.3678	0.4077	0.3735	-0.42
Mof_H 	H 	0.3289	0.3864	0.2448	1.968
Mof_O 	O 	0.2628	0.61	0.2728	1.425
Mof_H 	H 	0.2553	0.66	0.2569	-0.41
Mof_O 	O 	0.26	0.9081	0.2281	0.475
Mof_H 	H 	0.2554	0.9336	0.2537	-0.05
Mof_Ca	Ca	0.13716	0.84446	0.93964	1.409
Mof_Ca	Ca	0.20968	0.69197	0.95716	1.24
Mof_Ca	Ca	0.05499	0.77294	0.84374	1.361
Mof_C 	C 	0.05722	0.5519	0.61353	0.013
Mof_C 	C 	0.07011	0.5587	0.6689	0.087
Mof_C 	C 	0.06039	0.6297	0.69601	-0.045
Mof_H 	H 	0.0697	0.6335	0.7334	0.03
Mof_C 	C 	0.03796	0.6952	0.67162	-0.141
Mof_C 	C 	0.0261	0.6926	0.6174	0.024
Mof_H 	H 	0.0111	0.7383	0.5989	0.013
Mof_C 	C 	0.03645	0.621	0.59	-0.098
Mof_H 	H 	0.0284	0.6208	0.5523	0.058
Mof_O 	O 	0.09292	0.4974	0.69529	-0.213
Mof_C 	C 	0.02611	0.7664	0.70301	0.401
Mof_O 	O 	0.04203	0.7833	0.75001	-0.514
Mof_O 	O 	0.00075	0.8109	0.68061	-0.539
Mof_C 	C 	0.06454	0.4714	0.58176	-0.077
Mof_C 	C 	0.09456	0.4327	0.589	0.219
Mof_C 	C 	0.09925	0.3638	0.5549	-0.128
Mof_H 	H 	0.1199	0.3378	0.5606	0.087
Mof_C 	C 	0.07444	0.3324	0.51273	-0.061
Mof_C 	C 	0.04448	0.367	0.507	-0.035
Mof_H 	H 	0.0269	0.3449	0.479	0.039
Mof_C 	C 	0.03985	0.4333	0.5417	-0.022
Mof_H 	H 	0.0188	0.454	0.538	0.034
Mof_O 	O 	0.12028	0.4613	0.6284	-0.405
Mof_H 	H 	0.1149	0.5037	0.6463	0.259
Mof_C 	C 	0.08005	0.2577	0.47478	0.401
Mof_O 	O 	0.05816	0.2455	0.43236	-0.471
Mof_O 	O 	0.10626	0.2168	0.48834	-0.477
Mof_C 	C 	0.1098	0.3627	0.8588	-0.024
Mof_C 	C 	0.09941	0.4298	0.8183	0.198
Mof_C 	C 	0.1064	0.5251	0.8304	-0.109
Mof_H 	H 	0.0989	0.5709	0.8033	0.052
Mof_C 	C 	0.12369	0.5541	0.88024	-0.118
Mof_C 	C 	0.13577	0.487	0.9195	0.003
Mof_H 	H 	0.1492	0.5056	0.9533	0.001
Mof_C 	C 	0.12814	0.3932	0.9091	-0.065
Mof_H 	H 	0.1355	0.3483	0.9367	0.046
Mof_O 	O 	0.08397	0.4036	0.769	-0.363
Mof_H 	H 	0.0796	0.4514	0.7494	0.246
Mof_C 	C 	0.12892	0.6567	0.89246	0.41
Mof_O 	O 	0.15356	0.68278	0.9271	-0.553
Mof_O 	O 	0.1078	0.71455	0.8681	-0.517
Mof_C 	C 	0.10074	0.2603	0.8504	0.014
Mof_C 	C 	0.07029	0.2302	0.8236	0.143
Mof_C 	C 	0.06206	0.1365	0.824	-0.06
Mof_H 	H 	0.0407	0.1177	0.8072	0.013
Mof_C 	C 	0.08454	0.069	0.84864	-0.146
Mof_C 	C 	0.1154	0.097	0.8721	0.049
Mof_H 	H 	0.1313	0.0514	0.8873	0.001
Mof_C 	C 	0.12352	0.192	0.8736	-0.079
Mof_H 	H 	0.1449	0.2106	0.8906	0.077
Mof_O 	O 	0.04704	0.292	0.7952	-0.342
Mof_H 	H 	0.0302	0.2621	0.7809	0.196
Mof_C 	C 	0.07495	0.9687	0.84748	0.424
Mof_O 	O 	0.09385	0.90835	0.87473	-0.546
Mof_O 	O 	0.04699	0.94423	0.8204	-0.538
Mof_C 	C 	0.20488	0.9371	0.1885	-0.909
Mof_C 	C 	0.23286	0.9057	0.1836	0.922
Mof_C 	C 	0.2351	0.866	0.1371	-0.718
Mof_H 	H 	0.2551	0.8449	0.1347	0.242
Mof_C 	C 	0.20803	0.8569	0.09398	0.4
Mof_C 	C 	0.17882	0.8764	0.1003	-0.865
Mof_H 	H 	0.1599	0.8594	0.0733	0.313
Mof_C 	C 	0.17688	0.9212	0.1462	1.278
Mof_H 	H 	0.1568	0.941	0.149	-1.508
Mof_C 	C 	0.20995	0.819	0.04173	0.234
Mof_O 	O 	0.23622	0.7991	0.03589	-0.501
Mof_O 	O 	0.18458	0.8041	0.00604	-0.499
Mof_C 	C 	0.20202	0.9863	0.2375	0.448
Mof_O 	O 	0.172	0.8429	0.2631	-2.311
Mof_H 	H 	0.175	0.8177	0.2361	0.744
Mof_C 	C 	0.1816	0.9449	0.2655	-1.368
Mof_C 	C 	0.1781	0.9973	0.3092	0.709
Mof_H 	H 	0.1637	0.9754	0.3272	-0.166
Mof_C 	C 	0.19506	0.0793	0.3268	-0.339
Mof_C 	C 	0.21301	0.1146	0.2983	-0.101
Mof_H 	H 	0.2234	0.1735	0.308	0.083
Mof_C 	C 	0.2167	0.0654	0.2542	0.472
Mof_H 	H 	0.2304	0.0908	0.2358	-1.255
Mof_C 	C 	0.18965	0.1325	0.37278	0.502
Mof_O 	O 	0.20575	0.2042	0.38874	-0.497
Mof_O 	O 	0.16918	0.0988	0.39221	-0.501
Mof_H 	H 	0.2515	0.9112	0.213	-0.712
Mof_O 	O 	0.1459	0.9302	0.1531	1.437
Mof_H 	H 	0.1322	0.9077	0.1265	-0.421
Mof_H 	H 	0.1711	0.8864	0.2552	1.968
Mof_O 	O 	0.2372	0.11	0.2272	1.425
Mof_H 	H 	0.2447	0.16	0.2431	-0.41
Mof_O 	O 	0.76	0.4081	0.2281	0.475
Mof_H 	H 	0.7554	0.4336	0.2537	-0.05
Mof_Ca	Ca	0.63716	0.34446	0.93964	1.408
Mof_Ca	Ca	0.70968	0.19197	0.95716	1.239
Mof_Ca	Ca	0.55499	0.27294	0.84374	1.364
Mof_C 	C 	0.55722	0.0519	0.61353	0.013
Mof_C 	C 	0.57011	0.0587	0.6689	0.087
Mof_C 	C 	0.56039	0.1297	0.69601	-0.045
Mof_H 	H 	0.5697	0.1335	0.7334	0.03
Mof_C 	C 	0.53796	0.1952	0.67162	-0.14
Mof_C 	C 	0.5261	0.1926	0.6174	0.024
Mof_H 	H 	0.5111	0.2383	0.5989	0.014
Mof_C 	C 	0.53645	0.121	0.59	-0.098
Mof_H 	H 	0.5284	0.1208	0.5523	0.059
Mof_O 	O 	0.59292	0.9974	0.69529	-0.213
Mof_C 	C 	0.52611	0.2664	0.70301	0.401
Mof_O 	O 	0.54203	0.2833	0.75001	-0.514
Mof_O 	O 	0.50075	0.3109	0.68061	-0.537
Mof_C 	C 	0.56454	0.9714	0.58176	-0.077
Mof_C 	C 	0.59456	0.9327	0.589	0.219
Mof_C 	C 	0.59925	0.8638	0.5549	-0.128
Mof_H 	H 	0.6199	0.8378	0.5606	0.087
Mof_C 	C 	0.57444	0.8324	0.51273	-0.06
Mof_C 	C 	0.54448	0.867	0.507	-0.035
Mof_H 	H 	0.5269	0.8449	0.479	0.04
Mof_C 	C 	0.53985	0.9333	0.5417	-0.021
Mof_H 	H 	0.5188	0.954	0.538	0.035
Mof_O 	O 	0.62028	0.9613	0.6284	-0.405
Mof_H 	H 	0.6149	0.0037	0.6463	0.259
Mof_C 	C 	0.58005	0.7577	0.47478	0.401
Mof_O 	O 	0.55816	0.7455	0.43236	-0.47
Mof_O 	O 	0.60626	0.7168	0.48834	-0.477
Mof_C 	C 	0.6098	0.8627	0.8588	-0.023
Mof_C 	C 	0.59941	0.9298	0.8183	0.198
Mof_C 	C 	0.6064	0.0251	0.8304	-0.109
Mof_H 	H 	0.5989	0.0709	0.8033	0.052
Mof_C 	C 	0.62369	0.0541	0.88024	-0.119
Mof_C 	C 	0.63577	0.987	0.9195	0.005
Mof_H 	H 	0.6492	0.0056	0.9533	-0
Mof_C 	C 	0.62814	0.8932	0.9091	-0.066
Mof_H 	H 	0.6355	0.8483	0.9367	0.046
Mof_O 	O 	0.58397	0.9036	0.769	-0.363
Mof_H 	H 	0.5796	0.9514	0.7494	0.246
Mof_C 	C 	0.62892	0.1567	0.89246	0.411
Mof_O 	O 	0.65356	0.18278	0.9271	-0.553
Mof_O 	O 	0.6078	0.21455	0.8681	-0.518
Mof_C 	C 	0.60074	0.7603	0.8504	0.014
Mof_C 	C 	0.57029	0.7302	0.8236	0.144
Mof_C 	C 	0.56206	0.6365	0.824	-0.061
Mof_H 	H 	0.5407	0.6177	0.8072	0.013
Mof_C 	C 	0.58454	0.569	0.84864	-0.145
Mof_C 	C 	0.6154	0.597	0.8721	0.049
Mof_H 	H 	0.6313	0.5514	0.8873	0.001
Mof_C 	C 	0.62352	0.692	0.8736	-0.079
Mof_H 	H 	0.6449	0.7106	0.8906	0.077
Mof_O 	O 	0.54704	0.792	0.7952	-0.342
Mof_H 	H 	0.5302	0.7621	0.7809	0.197
Mof_C 	C 	0.57495	0.4687	0.84748	0.424
Mof_O 	O 	0.59385	0.40835	0.87473	-0.546
Mof_O 	O 	0.54699	0.44423	0.8204	-0.538
Mof_C 	C 	0.70488	0.4371	0.1885	-0.909
Mof_C 	C 	0.73286	0.4057	0.1836	0.922
Mof_C 	C 	0.7351	0.366	0.1371	-0.718
Mof_H 	H 	0.7551	0.3449	0.1347	0.242
Mof_C 	C 	0.70803	0.3569	0.09398	0.4
Mof_C 	C 	0.67882	0.3764	0.1003	-0.865
Mof_H 	H 	0.6599	0.3594	0.0733	0.313
Mof_C 	C 	0.67688	0.4212	0.1462	1.278
Mof_H 	H 	0.6568	0.441	0.149	-1.508
Mof_C 	C 	0.70995	0.319	0.04173	0.234
Mof_O 	O 	0.73622	0.2991	0.03589	-0.501
Mof_O 	O 	0.68458	0.3041	0.00604	-0.499
Mof_C 	C 	0.70202	0.4863	0.2375	0.449
Mof_O 	O 	0.672	0.3429	0.2631	-2.312
Mof_H 	H 	0.675	0.3177	0.2361	0.744
Mof_C 	C 	0.6816	0.4449	0.2655	-1.369
Mof_C 	C 	0.6781	0.4973	0.3092	0.709
Mof_H 	H 	0.6637	0.4754	0.3272	-0.166
Mof_C 	C 	0.69506	0.5793	0.3268	-0.339
Mof_C 	C 	0.71301	0.6146	0.2983	-0.1
Mof_H 	H 	0.7234	0.6735	0.308	0.083
Mof_C 	C 	0.7167	0.5654	0.2542	0.471
Mof_H 	H 	0.7304	0.5908	0.2358	-1.255
Mof_C 	C 	0.68965	0.6325	0.37278	0.502
Mof_O 	O 	0.70575	0.7042	0.38874	-0.497
Mof_O 	O 	0.66918	0.5988	0.39221	-0.501
Mof_H 	H 	0.7515	0.4112	0.213	-0.712
Mof_O 	O 	0.6459	0.4302	0.1531	1.437
Mof_H 	H 	0.6322	0.4077	0.1265	-0.42
Mof_H 	H 	0.6711	0.3864	0.2552	1.968
Mof_O 	O 	0.7372	0.61	0.2272	1.425
Mof_H 	H 	0.7447	0.66	0.2431	-0.41
Mof_Ca	Ca	7.28671e-34	0.07505	0.25	1.203
Mof_Ca	Ca	0.5	0.57505	0.25	1.21
Mof_Ca	Ca	-2.89459e-17	0.92495	0.75	1.203
Mof_Ca	Ca	0.5	0.42495	0.75	1.21
_end
