data_functionalizedCrystal
_audit_creation_method	'EQeq! by Chris Wilmer'
_symmetry_space_group_name_H-M	'P1'
_symmetry_Int_Tables_number	1
_symmetry_cell_setting	triclinic
loop_
_symmetry_equiv_pos_as_xyz
  x,y,z
_cell_length_a	21.4457
_cell_length_b	21.4457
_cell_length_c	21.4457
_cell_angle_alpha	109.471
_cell_angle_beta	109.471
_cell_angle_gamma	109.471
loop_
_atom_site_label
_atom_site_type_symbol
_atom_site_fract_x
_atom_site_fract_y
_atom_site_fract_z
_atom_site_charge
Mof_Cd	Cd	0.5	0.5	-0	0.368
Mof_Cd	Cd	-0	0.5	0.5	0.368
Mof_Cd	Cd	0.5	2.99459e-17	0.5	0.368
Mof_Cd	Cd	-0	0	-0	0.351
Mof_H 	H 	0.8612	0.5408	0.1544	0.151
Mof_H 	H 	0.5801	0.4212	0.0877	0.005
Mof_H 	H 	0.689	0.417	0.1372	0.139
Mof_H 	H 	0.7929	0.5896	0.1029	0.132
Mof_H 	H 	0.6794	0.5892	0.0542	0.006
Mof_H 	H 	0.9725	0.5997	0.2664	0.051
Mof_H 	H 	0.8864	0.7068	0.3456	0.151
Mof_H 	H 	0.8335	0.4924	0.4123	0.006
Mof_H 	H 	0.7798	0.5518	0.3628	0.14
Mof_H 	H 	0.9867	0.69	0.3971	0.138
Mof_H 	H 	0.035	0.6252	0.4458	-0.003
Mof_H 	H 	0.8333	0.7061	0.2336	0.057
Mof_H 	H 	0.6136	0.9592	0.8204	0.151
Mof_H 	H 	0.6665	0.0788	0.6589	0.006
Mof_H 	H 	0.7202	0.083	0.772	0.142
Mof_H 	H 	0.5133	0.9104	0.7033	0.133
Mof_H 	H 	0.465	0.9108	0.5902	0.008
Mof_H 	H 	0.6667	0.9003	0.8728	0.056
Mof_H 	H 	0.6388	0.7932	0.6796	0.15
Mof_H 	H 	0.9199	0.0076	0.8411	-0.003
Mof_H 	H 	0.811	0.9482	0.728	0.145
Mof_H 	H 	0.7071	0.81	0.7967	0.132
Mof_H 	H 	0.8206	0.8748	0.9098	0.01
Mof_H 	H 	0.5275	0.7939	0.6272	0.057
Mof_H 	H 	0.3204	0.6136	0.4592	0.15
Mof_H 	H 	0.1589	0.6665	0.5788	0.006
Mof_H 	H 	0.272	0.7202	0.583	0.139
Mof_H 	H 	0.2033	0.5133	0.4104	0.131
Mof_H 	H 	0.0902	0.465	0.4108	0.006
Mof_H 	H 	0.3728	0.6667	0.4003	0.057
Mof_H 	H 	0.1796	0.6388	0.2932	0.149
Mof_H 	H 	0.3411	0.9199	0.5076	0.009
Mof_H 	H 	0.228	0.811	0.4482	0.139
Mof_H 	H 	0.2967	0.7071	0.31	0.131
Mof_H 	H 	0.4098	0.8206	0.3748	0.008
Mof_H 	H 	0.1272	0.5275	0.2939	0.052
Mof_H 	H 	0.6544	0.8612	0.0408	0.149
Mof_H 	H 	0.5877	0.5801	0.9212	0.006
Mof_H 	H 	0.6372	0.689	0.917	0.137
Mof_H 	H 	0.6029	0.7929	0.0896	0.129
Mof_H 	H 	0.5542	0.6794	0.0892	0.009
Mof_H 	H 	0.7664	0.9725	0.0997	0.058
Mof_H 	H 	0.8456	0.8864	0.2068	0.151
Mof_H 	H 	0.9123	0.8335	0.9924	0.019
Mof_H 	H 	0.8628	0.7798	0.0518	0.135
Mof_H 	H 	0.8971	0.9867	0.19	0.137
Mof_H 	H 	0.9458	0.035	0.1252	-0.001
Mof_H 	H 	0.7336	0.8333	0.2061	0.057
Mof_H 	H 	0.7068	0.8456	0.3864	0.151
Mof_H 	H 	0.4924	0.9123	0.3335	0.007
Mof_H 	H 	0.5518	0.8628	0.2798	0.139
Mof_H 	H 	0.69	0.8971	0.4867	0.132
Mof_H 	H 	0.6252	0.9458	0.535	0.01
Mof_H 	H 	0.7061	0.7336	0.3333	0.057
Mof_H 	H 	0.5408	0.6544	0.3612	0.15
Mof_H 	H 	0.4212	0.5877	0.0801	0.003
Mof_H 	H 	0.417	0.6372	0.189	0.138
Mof_H 	H 	0.5896	0.6029	0.2929	0.131
Mof_H 	H 	0.5892	0.5542	0.1794	0.008
Mof_H 	H 	0.5997	0.7664	0.4725	0.057
Mof_H 	H 	0.7932	0.1796	0.1388	0.149
Mof_H 	H 	0.0076	0.3411	0.4199	-0.006
Mof_H 	H 	0.9482	0.228	0.311	0.144
Mof_H 	H 	0.81	0.2967	0.2071	0.132
Mof_H 	H 	0.8748	0.4098	0.3206	0.008
Mof_H 	H 	0.7939	0.1272	0.0275	0.058
Mof_H 	H 	0.9592	0.3204	0.1136	0.15
Mof_H 	H 	0.0788	0.1589	0.1665	0.007
Mof_H 	H 	0.083	0.272	0.2202	0.14
Mof_H 	H 	0.9104	0.2033	0.0133	0.127
Mof_H 	H 	0.9108	0.0902	0.965	0.018
Mof_H 	H 	0.9003	0.3728	0.1667	0.05
Mof_H 	H 	0.1388	0.4592	0.8456	0.149
Mof_H 	H 	0.4199	0.5788	0.9123	0.008
Mof_H 	H 	0.311	0.583	0.8628	0.139
Mof_H 	H 	0.2071	0.4104	0.8971	0.132
Mof_H 	H 	0.3206	0.4108	0.9458	0.01
Mof_H 	H 	0.0275	0.4003	0.7336	0.062
Mof_H 	H 	0.1136	0.2932	0.6544	0.148
Mof_H 	H 	0.1665	0.5076	0.5877	0.006
Mof_H 	H 	0.2202	0.4482	0.6372	0.138
Mof_H 	H 	0.0133	0.31	0.6029	0.125
Mof_H 	H 	0.965	0.3748	0.5542	0.02
Mof_H 	H 	0.1667	0.2939	0.7664	0.057
Mof_H 	H 	0.3864	0.0408	0.1796	0.148
Mof_H 	H 	0.3335	0.9212	0.3411	0.006
Mof_H 	H 	0.2798	0.917	0.228	0.136
Mof_H 	H 	0.4867	0.0896	0.2967	0.129
Mof_H 	H 	0.535	0.0892	0.4098	0.009
Mof_H 	H 	0.3333	0.0997	0.1272	0.058
Mof_H 	H 	0.3612	0.2068	0.3204	0.149
Mof_H 	H 	0.0801	0.9924	0.1589	0.017
Mof_H 	H 	0.189	0.0518	0.272	0.133
Mof_H 	H 	0.2929	0.19	0.2033	0.13
Mof_H 	H 	0.1794	0.1252	0.0902	0.007
Mof_H 	H 	0.4725	0.2061	0.3728	0.057
Mof_H 	H 	0.6796	0.3864	0.5408	0.15
Mof_H 	H 	0.8411	0.3335	0.4212	0.006
Mof_H 	H 	0.728	0.2798	0.417	0.138
Mof_H 	H 	0.7967	0.4867	0.5896	0.131
Mof_H 	H 	0.9098	0.535	0.5892	0.01
Mof_H 	H 	0.6272	0.3333	0.5997	0.057
Mof_H 	H 	0.8204	0.3612	0.7068	0.15
Mof_H 	H 	0.6589	0.0801	0.4924	0.004
Mof_H 	H 	0.772	0.189	0.5518	0.139
Mof_H 	H 	0.7033	0.2929	0.69	0.132
Mof_H 	H 	0.5902	0.1794	0.6252	0.008
Mof_H 	H 	0.8728	0.4725	0.7061	0.062
Mof_H 	H 	0.3456	0.1388	0.9592	0.15
Mof_H 	H 	0.4123	0.4199	0.0788	0.006
Mof_H 	H 	0.3628	0.311	0.083	0.141
Mof_H 	H 	0.3971	0.2071	0.9104	0.133
Mof_H 	H 	0.4458	0.3206	0.9108	0.008
Mof_H 	H 	0.2336	0.0275	0.9003	0.056
Mof_H 	H 	0.1544	0.1136	0.7932	0.148
Mof_H 	H 	0.0877	0.1665	0.0076	-0.009
Mof_H 	H 	0.1372	0.2202	0.9482	0.143
Mof_H 	H 	0.1029	0.0133	0.81	0.125
Mof_H 	H 	0.0542	0.965	0.8748	0.019
Mof_H 	H 	0.2664	0.1667	0.7939	0.057
Mof_H 	H 	0.2932	0.1544	0.6136	0.149
Mof_H 	H 	0.5076	0.0877	0.6665	0.005
Mof_H 	H 	0.4482	0.1372	0.7202	0.139
Mof_H 	H 	0.31	0.1029	0.5133	0.13
Mof_H 	H 	0.3748	0.0542	0.465	0.006
Mof_H 	H 	0.2939	0.2664	0.6667	0.057
Mof_H 	H 	0.4592	0.3456	0.6388	0.15
Mof_H 	H 	0.5788	0.4123	0.9199	0.009
Mof_H 	H 	0.583	0.3628	0.811	0.14
Mof_H 	H 	0.4104	0.3971	0.7071	0.131
Mof_H 	H 	0.4108	0.4458	0.8206	0.008
Mof_H 	H 	0.4003	0.2336	0.5275	0.057
Mof_H 	H 	0.2068	0.8204	0.8612	0.15
Mof_H 	H 	0.9924	0.6589	0.5801	0.018
Mof_H 	H 	0.0518	0.772	0.689	0.134
Mof_H 	H 	0.19	0.7033	0.7929	0.131
Mof_H 	H 	0.1252	0.5902	0.6794	0.008
Mof_H 	H 	0.2061	0.8728	0.9725	0.056
Mof_H 	H 	0.0408	0.6796	0.8864	0.15
Mof_H 	H 	0.9212	0.8411	0.8335	0.006
Mof_H 	H 	0.917	0.728	0.7798	0.138
Mof_H 	H 	0.0896	0.7967	0.9867	0.136
Mof_H 	H 	0.0892	0.9098	0.035	-0.002
Mof_H 	H 	0.0997	0.6272	0.8333	0.063
Mof_C 	C 	0.62339	0.45692	0.09007	0.125
Mof_C 	C 	0.68902	0.45362	0.1208	-0.208
Mof_C 	C 	0.75444	0.50435	0.12641	0.227
Mof_C 	C 	0.74899	0.55449	0.1003	-0.22
Mof_C 	C 	0.6807	0.55319	0.07111	0.125
Mof_C 	C 	0.84322	0.46429	0.18313	0.248
Mof_C 	C 	0.92506	0.48388	0.21244	-0.069
Mof_C 	C 	0.98379	0.55886	0.25703	0.023
Mof_C 	C 	0.86685	0.53332	0.40993	0.128
Mof_C 	C 	0.83282	0.56822	0.3792	-0.211
Mof_C 	C 	0.87794	0.62803	0.37359	0.232
Mof_C 	C 	0.95419	0.64869	0.3997	-0.229
Mof_C 	C 	0.98208	0.60959	0.42889	0.145
Mof_C 	C 	0.78116	0.66009	0.31687	0.243
Mof_C 	C 	0.77144	0.71262	0.28756	-0.054
Mof_C 	C 	0.80183	0.72676	0.24297	-0.001
Mof_C 	C 	0.63315	0.04308	0.66647	0.12
Mof_C 	C 	0.66718	0.04638	0.7354	-0.219
Mof_C 	C 	0.62206	0.99565	0.75009	0.24
Mof_C 	C 	0.54581	0.94551	0.6945	-0.223
Mof_C 	C 	0.51792	0.94681	0.62751	0.13
Mof_C 	C 	0.71884	0.03571	0.87893	0.235
Mof_C 	C 	0.72856	0.01612	0.94118	-0.053
Mof_C 	C 	0.69817	0.94114	0.92493	0.006
Mof_C 	C 	0.87661	0.96668	0.83353	0.145
Mof_C 	C 	0.81098	0.93178	0.7646	-0.215
Mof_C 	C 	0.74556	0.87197	0.74991	0.232
Mof_C 	C 	0.75101	0.85131	0.8055	-0.221
Mof_C 	C 	0.8193	0.89041	0.87249	0.128
Mof_C 	C 	0.65678	0.83991	0.62107	0.243
Mof_C 	C 	0.57494	0.78738	0.55882	-0.054
Mof_C 	C 	0.51621	0.77324	0.57507	-0.002
Mof_C 	C 	0.16647	0.63315	0.54308	0.126
Mof_C 	C 	0.2354	0.66718	0.54638	-0.208
Mof_C 	C 	0.25009	0.62206	0.49565	0.227
Mof_C 	C 	0.1945	0.54581	0.44551	-0.219
Mof_C 	C 	0.12751	0.51792	0.44681	0.126
Mof_C 	C 	0.37893	0.71884	0.53571	0.242
Mof_C 	C 	0.44118	0.72856	0.51612	-0.054
Mof_C 	C 	0.42493	0.69817	0.44114	-0.002
Mof_C 	C 	0.33353	0.87661	0.46668	0.126
Mof_C 	C 	0.2646	0.81098	0.43178	-0.207
Mof_C 	C 	0.24991	0.74556	0.37197	0.227
Mof_C 	C 	0.3055	0.75101	0.35131	-0.219
Mof_C 	C 	0.37249	0.8193	0.39041	0.126
Mof_C 	C 	0.12107	0.65678	0.33991	0.248
Mof_C 	C 	0.05882	0.57494	0.28738	-0.075
Mof_C 	C 	0.07507	0.51621	0.27324	0.013
Mof_C 	C 	0.59007	0.62339	0.95692	0.132
Mof_C 	C 	0.6208	0.68902	0.95362	-0.196
Mof_C 	C 	0.62641	0.75444	0.00435	0.215
Mof_C 	C 	0.6003	0.74899	0.05449	-0.215
Mof_C 	C 	0.57111	0.6807	0.05319	0.121
Mof_C 	C 	0.68313	0.84322	0.96429	0.249
Mof_C 	C 	0.71244	0.92506	0.98388	-0.048
Mof_C 	C 	0.75703	0.98379	0.05886	-0
Mof_C 	C 	0.90993	0.86685	0.03332	0.11
Mof_C 	C 	0.8792	0.83282	0.06822	-0.201
Mof_C 	C 	0.87359	0.87794	0.12803	0.228
Mof_C 	C 	0.8997	0.95419	0.14869	-0.225
Mof_C 	C 	0.92889	0.98208	0.10959	0.143
Mof_C 	C 	0.81687	0.78116	0.16009	0.243
Mof_C 	C 	0.78756	0.77144	0.21262	-0.054
Mof_C 	C 	0.74297	0.80183	0.22676	-0.001
Mof_C 	C 	0.53332	0.90993	0.36685	0.127
Mof_C 	C 	0.56822	0.8792	0.33282	-0.207
Mof_C 	C 	0.62803	0.87359	0.37794	0.228
Mof_C 	C 	0.64869	0.8997	0.45419	-0.218
Mof_C 	C 	0.60959	0.92889	0.48208	0.127
Mof_C 	C 	0.66009	0.81687	0.28116	0.243
Mof_C 	C 	0.71262	0.78756	0.27144	-0.054
Mof_C 	C 	0.72676	0.74297	0.30183	-0.001
Mof_C 	C 	0.45692	0.59007	0.12339	0.126
Mof_C 	C 	0.45362	0.6208	0.18902	-0.208
Mof_C 	C 	0.50435	0.62641	0.25444	0.227
Mof_C 	C 	0.55449	0.6003	0.24899	-0.219
Mof_C 	C 	0.55319	0.57111	0.1807	0.125
Mof_C 	C 	0.46429	0.68313	0.34322	0.243
Mof_C 	C 	0.48388	0.71244	0.42506	-0.054
Mof_C 	C 	0.55886	0.75703	0.48379	-0.002
Mof_C 	C 	0.96668	0.33353	0.37661	0.145
Mof_C 	C 	0.93178	0.2646	0.31098	-0.216
Mof_C 	C 	0.87197	0.24991	0.24556	0.232
Mof_C 	C 	0.85131	0.3055	0.25101	-0.222
Mof_C 	C 	0.89041	0.37249	0.3193	0.128
Mof_C 	C 	0.83991	0.12107	0.15678	0.244
Mof_C 	C 	0.78738	0.05882	0.07494	-0.06
Mof_C 	C 	0.77324	0.07507	0.01621	-0.011
Mof_C 	C 	0.04308	0.16647	0.13315	0.118
Mof_C 	C 	0.04638	0.2354	0.16718	-0.217
Mof_C 	C 	0.99565	0.25009	0.12206	0.235
Mof_C 	C 	0.94551	0.1945	0.04581	-0.214
Mof_C 	C 	0.94681	0.12751	0.01792	0.112
Mof_C 	C 	0.03571	0.37893	0.21884	0.24
Mof_C 	C 	0.01612	0.44118	0.22856	-0.074
Mof_C 	C 	0.94114	0.42493	0.19817	0.022
Mof_C 	C 	0.37661	0.54308	0.90993	0.127
Mof_C 	C 	0.31098	0.54638	0.8792	-0.207
Mof_C 	C 	0.24556	0.49565	0.87359	0.228
Mof_C 	C 	0.25101	0.44551	0.8997	-0.218
Mof_C 	C 	0.3193	0.44681	0.92889	0.127
Mof_C 	C 	0.15678	0.53571	0.81687	0.238
Mof_C 	C 	0.07494	0.51612	0.78756	-0.04
Mof_C 	C 	0.01621	0.44114	0.74297	-0.024
Mof_C 	C 	0.13315	0.46668	0.59007	0.124
Mof_C 	C 	0.16718	0.43178	0.6208	-0.204
Mof_C 	C 	0.12206	0.37197	0.62641	0.222
Mof_C 	C 	0.04581	0.35131	0.6003	-0.209
Mof_C 	C 	0.01792	0.39041	0.57111	0.107
Mof_C 	C 	0.21884	0.33991	0.68313	0.242
Mof_C 	C 	0.22856	0.28738	0.71244	-0.054
Mof_C 	C 	0.19817	0.27324	0.75703	-0.002
Mof_C 	C 	0.36685	0.95692	0.33353	0.131
Mof_C 	C 	0.33282	0.95362	0.2646	-0.195
Mof_C 	C 	0.37794	0.00435	0.24991	0.214
Mof_C 	C 	0.45419	0.05449	0.3055	-0.215
Mof_C 	C 	0.48208	0.05319	0.37249	0.121
Mof_C 	C 	0.28116	0.96429	0.12107	0.251
Mof_C 	C 	0.27144	0.98388	0.05882	-0.055
Mof_C 	C 	0.30183	0.05886	0.07507	-0.009
Mof_C 	C 	0.12339	0.03332	0.16647	0.105
Mof_C 	C 	0.18902	0.06822	0.2354	-0.198
Mof_C 	C 	0.25444	0.12803	0.25009	0.222
Mof_C 	C 	0.24899	0.14869	0.1945	-0.216
Mof_C 	C 	0.1807	0.10959	0.12751	0.123
Mof_C 	C 	0.34322	0.16009	0.37893	0.242
Mof_C 	C 	0.42506	0.21262	0.44118	-0.054
Mof_C 	C 	0.48379	0.22676	0.42493	-0.002
Mof_C 	C 	0.83353	0.36685	0.45692	0.126
Mof_C 	C 	0.7646	0.33282	0.45362	-0.207
Mof_C 	C 	0.74991	0.37794	0.50435	0.227
Mof_C 	C 	0.8055	0.45419	0.55449	-0.219
Mof_C 	C 	0.87249	0.48208	0.55319	0.126
Mof_C 	C 	0.62107	0.28116	0.46429	0.243
Mof_C 	C 	0.55882	0.27144	0.48388	-0.054
Mof_C 	C 	0.57507	0.30183	0.55886	-0.002
Mof_C 	C 	0.66647	0.12339	0.53332	0.126
Mof_C 	C 	0.7354	0.18902	0.56822	-0.208
Mof_C 	C 	0.75009	0.25444	0.62803	0.227
Mof_C 	C 	0.6945	0.24899	0.64869	-0.219
Mof_C 	C 	0.62751	0.1807	0.60959	0.126
Mof_C 	C 	0.87893	0.34322	0.66009	0.237
Mof_C 	C 	0.94118	0.42506	0.71262	-0.034
Mof_C 	C 	0.92493	0.48379	0.72676	-0.015
Mof_C 	C 	0.40993	0.37661	0.04308	0.12
Mof_C 	C 	0.3792	0.31098	0.04638	-0.22
Mof_C 	C 	0.37359	0.24556	0.99565	0.24
Mof_C 	C 	0.3997	0.25101	0.94551	-0.223
Mof_C 	C 	0.42889	0.3193	0.94681	0.13
Mof_C 	C 	0.31687	0.15678	0.03571	0.235
Mof_C 	C 	0.28756	0.07494	0.01612	-0.061
Mof_C 	C 	0.24297	0.01621	0.94114	-0
Mof_C 	C 	0.09007	0.13315	0.96668	0.145
Mof_C 	C 	0.1208	0.16718	0.93178	-0.215
Mof_C 	C 	0.12641	0.12206	0.87197	0.227
Mof_C 	C 	0.1003	0.04581	0.85131	-0.213
Mof_C 	C 	0.07111	0.01792	0.89041	0.109
Mof_C 	C 	0.18313	0.21884	0.83991	0.242
Mof_C 	C 	0.21244	0.22856	0.78738	-0.054
Mof_C 	C 	0.25703	0.19817	0.77324	-0.002
Mof_C 	C 	0.46668	0.09007	0.63315	0.125
Mof_C 	C 	0.43178	0.1208	0.66718	-0.208
Mof_C 	C 	0.37197	0.12641	0.62206	0.226
Mof_C 	C 	0.35131	0.1003	0.54581	-0.219
Mof_C 	C 	0.39041	0.07111	0.51792	0.125
Mof_C 	C 	0.33991	0.18313	0.71884	0.242
Mof_C 	C 	0.28738	0.21244	0.72856	-0.054
Mof_C 	C 	0.27324	0.25703	0.69817	-0.002
Mof_C 	C 	0.54308	0.40993	0.87661	0.126
Mof_C 	C 	0.54638	0.3792	0.81098	-0.207
Mof_C 	C 	0.49565	0.37359	0.74556	0.227
Mof_C 	C 	0.44551	0.3997	0.75101	-0.219
Mof_C 	C 	0.44681	0.42889	0.8193	0.126
Mof_C 	C 	0.53571	0.31687	0.65678	0.243
Mof_C 	C 	0.51612	0.28756	0.57494	-0.054
Mof_C 	C 	0.44114	0.24297	0.51621	-0.002
Mof_C 	C 	0.03332	0.66647	0.62339	0.107
Mof_C 	C 	0.06822	0.7354	0.68902	-0.199
Mof_C 	C 	0.12803	0.75009	0.75444	0.223
Mof_C 	C 	0.14869	0.6945	0.74899	-0.216
Mof_C 	C 	0.10959	0.62751	0.6807	0.123
Mof_C 	C 	0.16009	0.87893	0.84322	0.242
Mof_C 	C 	0.21262	0.94118	0.92506	-0.048
Mof_C 	C 	0.22676	0.92493	0.98379	0.009
Mof_C 	C 	0.95692	0.83353	0.86685	0.132
Mof_C 	C 	0.95362	0.7646	0.83282	-0.2
Mof_C 	C 	0.00435	0.74991	0.87794	0.221
Mof_C 	C 	0.05449	0.8055	0.95419	-0.225
Mof_C 	C 	0.05319	0.87249	0.98208	0.142
Mof_C 	C 	0.96429	0.62107	0.78116	0.244
Mof_C 	C 	0.98388	0.55882	0.77144	-0.035
Mof_C 	C 	0.05886	0.57507	0.80183	-0.023
Mof_N 	N 	0.61702	0.50438	0.06466	-0.172
Mof_N 	N 	0.82455	0.50705	0.15488	-0.257
Mof_N 	N 	0.93972	0.55236	0.43534	-0.173
Mof_N 	N 	0.85217	0.66967	0.34512	-0.257
Mof_N 	N 	0.56028	0.99562	0.61264	-0.166
Mof_N 	N 	0.64783	0.99295	0.8175	-0.253
Mof_N 	N 	0.88298	0.94764	0.88736	-0.168
Mof_N 	N 	0.67545	0.83033	0.6825	-0.256
Mof_N 	N 	0.11264	0.56028	0.49562	-0.172
Mof_N 	N 	0.3175	0.64783	0.49295	-0.256
Mof_N 	N 	0.38736	0.88298	0.44764	-0.169
Mof_N 	N 	0.1825	0.67545	0.33033	-0.257
Mof_N 	N 	0.56466	0.61702	0.00438	-0.176
Mof_N 	N 	0.65488	0.82455	0.00705	-0.259
Mof_N 	N 	0.93534	0.93972	0.05236	-0.168
Mof_N 	N 	0.84512	0.85217	0.16967	-0.256
Mof_N 	N 	0.55236	0.93534	0.43972	-0.169
Mof_N 	N 	0.66967	0.84512	0.35217	-0.256
Mof_N 	N 	0.50438	0.56466	0.11702	-0.172
Mof_N 	N 	0.50705	0.65488	0.32455	-0.256
Mof_N 	N 	0.94764	0.38736	0.38298	-0.172
Mof_N 	N 	0.83033	0.1825	0.17545	-0.257
Mof_N 	N 	0.99562	0.11264	0.06028	-0.163
Mof_N 	N 	0.99295	0.3175	0.14783	-0.253
Mof_N 	N 	0.38298	0.49562	0.93534	-0.169
Mof_N 	N 	0.17545	0.49295	0.84512	-0.255
Mof_N 	N 	0.06028	0.44764	0.56466	-0.169
Mof_N 	N 	0.14783	0.33033	0.65488	-0.255
Mof_N 	N 	0.43972	0.00438	0.38736	-0.176
Mof_N 	N 	0.35217	0.00705	0.1825	-0.259
Mof_N 	N 	0.11702	0.05236	0.11264	-0.17
Mof_N 	N 	0.32455	0.16967	0.3175	-0.255
Mof_N 	N 	0.88736	0.43972	0.50438	-0.169
Mof_N 	N 	0.6825	0.35217	0.50705	-0.256
Mof_N 	N 	0.61264	0.11702	0.55236	-0.172
Mof_N 	N 	0.8175	0.32455	0.66967	-0.255
Mof_N 	N 	0.43534	0.38298	0.99562	-0.165
Mof_N 	N 	0.34512	0.17545	0.99295	-0.252
Mof_N 	N 	0.06466	0.06028	0.94764	-0.17
Mof_N 	N 	0.15488	0.14783	0.83033	-0.256
Mof_N 	N 	0.44764	0.06466	0.56028	-0.172
Mof_N 	N 	0.33033	0.15488	0.64783	-0.256
Mof_N 	N 	0.49562	0.43534	0.88298	-0.169
Mof_N 	N 	0.49295	0.34512	0.67545	-0.256
Mof_N 	N 	0.05236	0.61264	0.61702	-0.169
Mof_N 	N 	0.16967	0.8175	0.82455	-0.255
Mof_N 	N 	0.00438	0.88736	0.93972	-0.174
Mof_N 	N 	0.00705	0.6825	0.85217	-0.259
Mof_O 	O 	0.79853	0.41309	0.18544	-0.224
Mof_O 	O 	0.72765	0.61309	0.31456	-0.223
Mof_O 	O 	0.77235	0.08691	0.88544	-0.22
Mof_O 	O 	0.70147	0.88691	0.61456	-0.221
Mof_O 	O 	0.38544	0.77235	0.58691	-0.222
Mof_O 	O 	0.11456	0.70147	0.38691	-0.226
Mof_O 	O 	0.68544	0.79853	0.91309	-0.222
Mof_O 	O 	0.81456	0.72765	0.11309	-0.224
Mof_O 	O 	0.61309	0.81456	0.22765	-0.223
Mof_O 	O 	0.41309	0.68544	0.29853	-0.223
Mof_O 	O 	0.88691	0.11456	0.20147	-0.223
Mof_O 	O 	0.08691	0.38544	0.27235	-0.224
Mof_O 	O 	0.20147	0.58691	0.81456	-0.221
Mof_O 	O 	0.27235	0.38691	0.68544	-0.222
Mof_O 	O 	0.22765	0.91309	0.11456	-0.225
Mof_O 	O 	0.29853	0.11309	0.38544	-0.224
Mof_O 	O 	0.61456	0.22765	0.41309	-0.223
Mof_O 	O 	0.88544	0.29853	0.61309	-0.219
Mof_O 	O 	0.31456	0.20147	0.08691	-0.223
Mof_O 	O 	0.18544	0.27235	0.88691	-0.221
Mof_O 	O 	0.38691	0.18544	0.77235	-0.222
Mof_O 	O 	0.58691	0.31456	0.70147	-0.222
Mof_O 	O 	0.11309	0.88544	0.79853	-0.221
Mof_O 	O 	0.91309	0.61456	0.72765	-0.221
Mof_Cl	Cl	0.49904	0.24904	0.25	-0.247
Mof_O 	O 	0.5495	0.3073	0.3274	-0.01
Mof_O 	O 	0.543	0.2158	0.2328	-0.011
Mof_O 	O 	0.4799	0.2221	0.1726	-0.012
Mof_O 	O 	0.483	0.3102	0.2672	-0.01
Mof_Cl	Cl	0.00096	0.25096	0.75	-0.26
Mof_O 	O 	0.0201	0.1927	0.7422	-0.013
Mof_O 	O 	0.017	0.2842	0.8272	-0.01
Mof_O 	O 	0.9505	0.2779	0.7578	-0.001
Mof_O 	O 	0.957	0.1898	0.6728	-0.002
Mof_Cl	Cl	0.25	0.00096	0.75096	-0.261
Mof_O 	O 	0.2422	0.0201	0.6927	-0.013
Mof_O 	O 	0.3272	0.017	0.7842	-0.011
Mof_O 	O 	0.2578	0.9505	0.7779	-0
Mof_O 	O 	0.1728	0.957	0.6898	-0.001
Mof_Cl	Cl	0.75	0.49904	0.74904	-0.248
Mof_O 	O 	0.8274	0.5495	0.8073	-0.008
Mof_O 	O 	0.7328	0.543	0.7158	-0.009
Mof_O 	O 	0.6726	0.4799	0.7221	-0.009
Mof_O 	O 	0.7672	0.483	0.8102	-0.007
Mof_Cl	Cl	0.24904	0.75	0.99904	-0.232
Mof_O 	O 	0.2221	0.6726	0.9799	-0.008
Mof_O 	O 	0.3102	0.7672	0.983	-0.006
Mof_O 	O 	0.3073	0.8274	0.0495	-0.019
Mof_O 	O 	0.2158	0.7328	0.043	-0.02
Mof_Cl	Cl	0.25096	0.25	0.50096	-0.246
Mof_O 	O 	0.2779	0.2578	0.4505	-0.011
Mof_O 	O 	0.1898	0.1728	0.457	-0.012
Mof_O 	O 	0.1927	0.2422	0.5201	-0.012
Mof_O 	O 	0.2842	0.3272	0.517	-0.01
Mof_Cl	Cl	0.50096	0.75096	0.75	-0.248
Mof_O 	O 	0.4505	0.6927	0.6726	-0.01
Mof_O 	O 	0.457	0.7842	0.7672	-0.008
Mof_O 	O 	0.5201	0.7779	0.8274	-0.008
Mof_O 	O 	0.517	0.6898	0.7328	-0.009
Mof_Cl	Cl	0.99904	0.74904	0.25	-0.233
Mof_O 	O 	0.9799	0.8073	0.2578	-0.007
Mof_O 	O 	0.983	0.7158	0.1728	-0.008
Mof_O 	O 	0.0495	0.7221	0.2422	-0.019
Mof_O 	O 	0.043	0.8102	0.3272	-0.017
Mof_Cl	Cl	0.75	0.99904	0.24904	-0.233
Mof_O 	O 	0.7578	0.9799	0.3073	-0.008
Mof_O 	O 	0.6728	0.983	0.2158	-0.008
Mof_O 	O 	0.7422	0.0495	0.2221	-0.02
Mof_O 	O 	0.8272	0.043	0.3102	-0.018
Mof_Cl	Cl	0.25	0.50096	0.25096	-0.246
Mof_O 	O 	0.1726	0.4505	0.1927	-0.013
Mof_O 	O 	0.2672	0.457	0.2842	-0.01
Mof_O 	O 	0.3274	0.5201	0.2779	-0.011
Mof_O 	O 	0.2328	0.517	0.1898	-0.012
Mof_Cl	Cl	0.75096	0.25	0.00096	-0.261
Mof_O 	O 	0.7779	0.3274	0.0201	-0.012
Mof_O 	O 	0.6898	0.2328	0.017	-0.012
Mof_O 	O 	0.6927	0.1726	0.9505	-0.002
Mof_O 	O 	0.7842	0.2672	0.957	0.001
Mof_Cl	Cl	0.74904	0.75	0.49904	-0.248
Mof_O 	O 	0.7221	0.7422	0.5495	-0.009
Mof_O 	O 	0.8102	0.8272	0.543	-0.006
Mof_O 	O 	0.8073	0.7578	0.4799	-0.009
Mof_O 	O 	0.7158	0.6728	0.483	-0.009
_end
