data_functionalizedCrystal
_audit_creation_method	'EQeq! by Chris Wilmer'
_symmetry_space_group_name_H-M	'P1'
_symmetry_Int_Tables_number	1
_symmetry_cell_setting	triclinic
loop_
_symmetry_equiv_pos_as_xyz
  x,y,z
_cell_length_a	14.3049
_cell_length_b	10.1537
_cell_length_c	18.3128
_cell_angle_alpha	90
_cell_angle_beta	90.107
_cell_angle_gamma	90
loop_
_atom_site_label
_atom_site_type_symbol
_atom_site_fract_x
_atom_site_fract_y
_atom_site_fract_z
_atom_site_charge
Mof_V 	V 	0.28821	0.2004	0.1968	1.696
Mof_V 	V 	0.24235	0.6845	0.10383	1.696
Mof_V 	V 	0.25322	0.84789	0.80339	1.698
Mof_V 	V 	0.25326	0.36237	0.89246	1.696
Mof_P 	P 	0.34595	0.63699	0.69779	0.54
Mof_P 	P 	0.18414	0.64285	0.93046	0.643
Mof_P 	P 	0.3332	0.42923	0.31365	0.55
Mof_P 	P 	0.19833	0.38912	0.06685	0.559
Mof_O 	O 	0.197	0.7124	0.00388	-0.644
Mof_O 	O 	0.4298	0.4874	0.2948	-0.263
Mof_O 	O 	0.4444	0.6743	0.7246	-0.304
Mof_O 	O 	0.2873	0.3714	0.24552	-0.6
Mof_O 	O 	0.0961	0.5587	0.92851	-0.573
Mof_O 	O 	0.218	0.326	0.99354	-0.548
Mof_O 	O 	0.3259	0.7088	0.62652	-0.559
Mof_O 	O 	0.0981	0.444	0.07087	-0.598
Mof_O 	O 	0.2065	0.284	0.12597	-0.556
Mof_O 	O 	0.2746	0.6768	0.75658	-0.605
Mof_O 	O 	0.1725	0.7486	0.87146	-0.527
Mof_O 	O 	0.2817	0.9257	0.70617	-0.676
Mof_O 	O 	0.2723	0.5402	0.34112	-0.573
Mof_O 	O 	0.268	0.5005	0.08161	-0.621
Mof_O 	O 	0.2838	0.1189	0.29521	-0.718
Mof_O 	O 	0.3466	0.3254	0.37284	-0.55
Mof_O 	O 	0.3409	0.4884	0.68434	-0.526
Mof_O 	O 	0.268	0.5539	0.91424	-0.581
Mof_V 	V 	0.21179	0.7004	0.3032	1.698
Mof_V 	V 	0.25765	0.1845	0.39617	1.69
Mof_V 	V 	0.24678	0.34789	0.69661	1.688
Mof_V 	V 	0.24674	0.86237	0.60754	1.703
Mof_P 	P 	0.15405	0.13699	0.80221	0.5
Mof_P 	P 	0.31586	0.14285	0.56954	0.59
Mof_P 	P 	0.1668	0.92923	0.18635	0.592
Mof_P 	P 	0.30167	0.88912	0.43315	0.656
Mof_O 	O 	0.303	0.2124	0.49612	-0.599
Mof_O 	O 	0.0702	0.9874	0.2052	-0.285
Mof_O 	O 	0.0556	0.1743	0.7754	-0.357
Mof_O 	O 	0.2127	0.8714	0.25448	-0.587
Mof_O 	O 	0.4039	0.0587	0.57149	-0.594
Mof_O 	O 	0.282	0.826	0.50646	-0.592
Mof_O 	O 	0.1741	0.2088	0.87348	-0.566
Mof_O 	O 	0.4019	0.944	0.42913	-0.532
Mof_O 	O 	0.2935	0.784	0.37403	-0.538
Mof_O 	O 	0.2254	0.1768	0.74342	-0.616
Mof_O 	O 	0.3275	0.2486	0.62854	-0.532
Mof_O 	O 	0.2183	0.4257	0.79383	-0.709
Mof_O 	O 	0.2277	0.0402	0.15888	-0.628
Mof_O 	O 	0.232	0.0005	0.41839	-0.67
Mof_O 	O 	0.2162	0.6189	0.20479	-0.702
Mof_O 	O 	0.1534	0.8254	0.12716	-0.565
Mof_O 	O 	0.1591	0.9884	0.81566	-0.485
Mof_O 	O 	0.232	0.0539	0.58576	-0.633
Mof_V 	V 	0.71179	0.7996	0.8032	1.71
Mof_V 	V 	0.75765	0.3155	0.89617	1.699
Mof_V 	V 	0.74678	0.15211	0.19661	1.685
Mof_V 	V 	0.74674	0.63763	0.10754	1.694
Mof_P 	P 	0.65405	0.36301	0.30221	0.541
Mof_P 	P 	0.81586	0.35715	0.06954	0.539
Mof_P 	P 	0.6668	0.57077	0.68635	0.551
Mof_P 	P 	0.80167	0.61088	0.93315	0.661
Mof_O 	O 	0.803	0.2876	0.99612	-0.532
Mof_O 	O 	0.5702	0.5126	0.7052	-0.261
Mof_O 	O 	0.5556	0.3257	0.2754	-0.325
Mof_O 	O 	0.7127	0.6286	0.75448	-0.584
Mof_O 	O 	0.9039	0.4413	0.07149	-0.543
Mof_O 	O 	0.782	0.674	0.00646	-0.635
Mof_O 	O 	0.6741	0.2912	0.37348	-0.562
Mof_O 	O 	0.9019	0.556	0.92913	-0.501
Mof_O 	O 	0.7935	0.716	0.87403	-0.516
Mof_O 	O 	0.7254	0.3232	0.24342	-0.602
Mof_O 	O 	0.8275	0.2514	0.12854	-0.521
Mof_O 	O 	0.7183	0.0743	0.29383	-0.729
Mof_O 	O 	0.7277	0.4598	0.65888	-0.557
Mof_O 	O 	0.732	0.4995	0.91839	-0.597
Mof_O 	O 	0.7162	0.8811	0.70479	-0.666
Mof_O 	O 	0.6534	0.6746	0.62716	-0.536
Mof_O 	O 	0.6591	0.5116	0.31566	-0.521
Mof_O 	O 	0.732	0.4461	0.08576	-0.604
Mof_V 	V 	0.78821	0.2996	0.6968	1.707
Mof_V 	V 	0.74235	0.8155	0.60383	1.706
Mof_V 	V 	0.75322	0.65211	0.30339	1.697
Mof_V 	V 	0.75326	0.13763	0.39246	1.686
Mof_P 	P 	0.84595	0.86301	0.19779	0.585
Mof_P 	P 	0.68414	0.85715	0.43046	0.591
Mof_P 	P 	0.8332	0.07077	0.81365	0.506
Mof_P 	P 	0.69833	0.11088	0.56685	0.566
Mof_O 	O 	0.697	0.7876	0.50388	-0.575
Mof_O 	O 	0.9298	0.0126	0.7948	-0.243
Mof_O 	O 	0.9444	0.8257	0.2246	-0.267
Mof_O 	O 	0.7873	0.1286	0.74552	-0.598
Mof_O 	O 	0.5961	0.9413	0.42851	-0.539
Mof_O 	O 	0.718	0.174	0.49354	-0.598
Mof_O 	O 	0.8259	0.7912	0.12652	-0.552
Mof_O 	O 	0.5981	0.056	0.57087	-0.58
Mof_O 	O 	0.7065	0.216	0.62597	-0.534
Mof_O 	O 	0.7746	0.8232	0.25658	-0.591
Mof_O 	O 	0.6725	0.7514	0.37146	-0.517
Mof_O 	O 	0.7817	0.5743	0.20617	-0.695
Mof_O 	O 	0.7723	0.9598	0.84112	-0.501
Mof_O 	O 	0.768	0.9995	0.58161	-0.546
Mof_O 	O 	0.7838	0.3811	0.79521	-0.682
Mof_O 	O 	0.8466	0.1746	0.87284	-0.522
Mof_O 	O 	0.8409	0.0116	0.18434	-0.566
Mof_O 	O 	0.768	0.9461	0.41424	-0.551
Mof_V 	V 	-0	0.5	-0	1.652
Mof_V 	V 	0.5	9.49046e-33	0.5	1.69
_end
