data_functionalizedCrystal
_audit_creation_method	'EQeq! by Chris Wilmer'
_symmetry_space_group_name_H-M	'P1'
_symmetry_Int_Tables_number	1
_symmetry_cell_setting	triclinic
loop_
_symmetry_equiv_pos_as_xyz
  x,y,z
_cell_length_a	20.015
_cell_length_b	38.064
_cell_length_c	25.197
_cell_angle_alpha	90
_cell_angle_beta	109.846
_cell_angle_gamma	90
loop_
_atom_site_label
_atom_site_type_symbol
_atom_site_fract_x
_atom_site_fract_y
_atom_site_fract_z
_atom_site_charge
Mof_Cu	Cu	0.03921	0.12744	0.83152	0.762
Mof_Cu	Cu	0.59375	0.25458	0.00012	0.808
Mof_Cu	Cu	0.2955	0.21803	0.88224	0.827
Mof_Cu	Cu	0.50675	0.32876	0.93212	0.808
Mof_Cu	Cu	0.81646	0.20695	0.88293	0.83
Mof_Cu	Cu	0.05204	0.97394	0.86547	0.823
Mof_Cu	Cu	0.84942	0.16904	0.09197	0.813
Mof_Cu	Cu	0.10917	0.09408	0.74664	0.777
Mof_Br	Br	0.63085	0.32094	0.01091	-0.75
Mof_N 	N 	0.94814	0.14766	0.82977	-0.275
Mof_N 	N 	0.85925	0.17505	0.84647	-0.279
Mof_N 	N 	0.88599	0.13022	0.80145	-0.272
Mof_N 	N 	0.1462	0.27196	0.9623	-0.323
Mof_H 	H 	0.1851	0.265	0.9872	0.111
Mof_H 	H 	0.1412	0.2936	0.9521	0.132
Mof_N 	N 	0.59179	0.37144	0.89273	-0.257
Mof_N 	N 	0.55861	0.42714	0.88954	-0.289
Mof_N 	N 	0.53131	0.3732	0.90792	-0.248
Mof_N 	N 	0.8655	0.4391	0.851	-0.323
Mof_H 	H 	0.8894	0.4569	0.8684	0.13
Mof_H 	H 	0.8819	0.4261	0.8303	0.128
Mof_H 	H 	0.2676	0.451	0.9855	0.138
Mof_H 	H 	0.3041	0.4856	0.9916	0.135
Mof_N 	N 	0.11444	0.16117	0.83578	-0.271
Mof_N 	N 	0.09392	0.18989	0.80005	-0.272
Mof_N 	N 	0.20664	0.19723	0.85181	-0.29
Mof_N 	N 	0.3527	0.07642	0.0388	-0.323
Mof_H 	H 	0.3564	0.0545	0.0323	0.128
Mof_H 	H 	0.3746	0.0849	0.0718	0.132
Mof_N 	N 	0.1321	0.33168	0.6779	-0.33
Mof_H 	H 	0.1635	0.3354	0.6623	0.138
Mof_H 	H 	0.0966	0.3457	0.6717	0.132
Mof_N 	N 	0.09215	0.06332	0.79825	-0.268
Mof_N 	N 	0.05073	0.07695	0.82753	-0.281
Mof_N 	N 	0.2385	0.94795	0.6905	-0.33
Mof_H 	H 	0.2208	0.9284	0.6748	0.145
Mof_H 	H 	0.2776	0.9556	0.6878	0.136
Mof_N 	N 	0.05385	0.01906	0.83713	-0.289
Mof_N 	N 	0.8266	0.08212	0.9537	-0.335
Mof_H 	H 	0.8352	0.0989	0.9779	0.155
Mof_H 	H 	0.7874	0.0706	0.9454	0.141
Mof_N 	N 	0.49575	0.25465	0.95433	-0.255
Mof_N 	N 	0.46008	0.28509	0.92957	-0.256
Mof_N 	N 	0.38158	0.24159	0.91237	-0.287
Mof_N 	N 	0.5087	0.08766	0.0113	-0.329
Mof_H 	H 	0.54	0.083	0.0436	0.138
Mof_H 	H 	0.4874	0.0709	0.9893	0.134
Mof_N 	N 	0.1763	0.37587	0.8046	-0.327
Mof_H 	H 	0.1371	0.3751	0.8115	0.13
Mof_H 	H 	0.1832	0.3922	0.7834	0.133
Mof_N 	N 	0.68263	0.23522	0.0467	-0.248
Mof_N 	N 	0.77996	0.20414	0.08833	-0.285
Mof_N 	N 	0.72413	0.25343	0.0938	-0.245
Mof_N 	N 	0.5777	0.09472	0.9005	-0.324
Mof_H 	H 	0.5827	0.0735	0.913	0.13
Mof_H 	H 	0.5488	0.0992	0.8672	0.133
Mof_N 	N 	0.9815	0.2739	0.3287	-0.308
Mof_H 	H 	0.0066	0.258	0.3509	0.107
Mof_H 	H 	0.9865	0.2956	0.3388	0.136
Mof_C 	C 	0.0912	0.2482	0.9387	0.196
Mof_C 	C 	0.0986	0.21363	0.9547	-0.23
Mof_H 	H 	0.1401	0.2062	0.9826	0.092
Mof_C 	C 	0.0451	0.18946	0.93	0.062
Mof_H 	H 	0.0511	0.1661	0.9412	-0.037
Mof_C 	C 	0.9829	0.20014	0.88869	-0.183
Mof_C 	C 	0.9748	0.23507	0.8739	0.067
Mof_H 	H 	0.9325	0.2428	0.8474	-0.036
Mof_C 	C 	0.0286	0.25886	0.898	-0.244
Mof_H 	H 	0.0228	0.2823	0.8867	0.097
Mof_C 	C 	0.93	0.17416	0.85617	0.108
Mof_C 	C 	0.6563	0.1111	0.8004	-0.231
Mof_H 	H 	0.6285	0.1075	0.8229	0.098
Mof_C 	C 	0.6322	0.0994	0.7434	0.2
Mof_C 	C 	0.6707	0.1065	0.7116	-0.254
Mof_H 	H 	0.6545	0.0995	0.674	0.1
Mof_C 	C 	0.7349	0.12412	0.733	0.091
Mof_H 	H 	0.7609	0.1291	0.7095	-0.055
Mof_C 	C 	0.7607	0.13434	0.78899	-0.179
Mof_C 	C 	0.7207	0.12782	0.8222	0.102
Mof_H 	H 	0.7371	0.1347	0.8599	-0.025
Mof_C 	C 	0.8336	0.14729	0.81167	0.137
Mof_C 	C 	0.3526	0.4498	0.964	0.245
Mof_C 	C 	0.3512	0.4143	0.9487	-0.276
Mof_H 	H 	0.3145	0.4	0.9508	0.118
Mof_C 	C 	0.4032	0.40024	0.9307	0.147
Mof_H 	H 	0.4023	0.3764	0.9222	-0.069
Mof_C 	C 	0.4568	0.42114	0.9251	-0.207
Mof_C 	C 	0.4588	0.45609	0.9414	0.16
Mof_H 	H 	0.4953	0.4705	0.9393	-0.086
Mof_C 	C 	0.4076	0.46974	0.9606	-0.288
Mof_H 	H 	0.4105	0.4932	0.9716	0.117
Mof_C 	C 	0.5132	0.40685	0.90628	0.143
Mof_C 	C 	0.7727	0.45206	0.8893	-0.236
Mof_H 	H 	0.7974	0.472	0.9066	0.093
Mof_C 	C 	0.7993	0.43121	0.8562	0.204
Mof_C 	C 	0.7604	0.40251	0.8286	-0.236
Mof_H 	H 	0.7767	0.389	0.8047	0.095
Mof_C 	C 	0.6976	0.39397	0.8366	0.1
Mof_H 	H 	0.6725	0.3743	0.8187	-0.049
Mof_C 	C 	0.6711	0.414	0.8707	-0.186
Mof_C 	C 	0.7097	0.44339	0.8968	0.1
Mof_H 	H 	0.6927	0.4574	0.9197	-0.058
Mof_C 	C 	0.6069	0.40419	0.88284	0.121
Mof_C 	C 	0.311	0.09837	0.9956	0.198
Mof_C 	C 	0.2754	0.0855	0.9425	-0.244
Mof_H 	H 	0.2799	0.0619	0.9347	0.094
Mof_C 	C 	0.2328	0.10739	0.9006	0.11
Mof_H 	H 	0.2085	0.0982	0.865	-0.058
Mof_C 	C 	0.2258	0.14247	0.9107	-0.184
Mof_C 	C 	0.2614	0.15512	0.9644	0.092
Mof_H 	H 	0.2568	0.1787	0.9724	-0.044
Mof_C 	C 	0.3035	0.13357	0.0064	-0.229
Mof_H 	H 	0.3271	0.1427	0.0421	0.093
Mof_C 	C 	0.1821	0.16637	0.86608	0.126
Mof_C 	C 	0.1955	0.28034	0.7234	-0.249
Mof_H 	H 	0.2309	0.285	0.7083	0.101
Mof_C 	C 	0.2004	0.2506	0.7561	0.089
Mof_H 	H 	0.2385	0.2353	0.7621	-0.052
Mof_C 	C 	0.1487	0.24352	0.77997	-0.181
Mof_C 	C 	0.0935	0.26731	0.77191	0.089
Mof_H 	H 	0.0595	0.2633	0.7888	-0.037
Mof_C 	C 	0.0888	0.29674	0.739	-0.233
Mof_H 	H 	0.0517	0.3125	0.7342	0.09
Mof_C 	C 	0.1386	0.30323	0.7129	0.21
Mof_C 	C 	0.1495	0.21078	0.81076	0.131
Mof_C 	C 	0.2329	0.99829	0.7479	-0.237
Mof_H 	H 	0.2762	0.0062	0.7466	0.098
Mof_C 	C 	0.2037	0.96717	0.7203	0.213
Mof_C 	C 	0.1413	0.9551	0.7249	-0.247
Mof_H 	H 	0.1222	0.934	0.7079	0.093
Mof_C 	C 	0.1061	0.97411	0.7545	0.091
Mof_H 	H 	0.064	0.9656	0.7575	-0.072
Mof_C 	C 	0.1338	0.00593	0.77977	-0.18
Mof_C 	C 	0.198	0.01733	0.777	0.096
Mof_H 	H 	0.218	0.0381	0.795	-0.04
Mof_C 	C 	0.0934	0.0288	0.80507	0.12
Mof_C 	C 	0.8644	0.04598	0.8902	-0.244
Mof_H 	H 	0.8222	0.0334	0.8802	0.103
Mof_C 	C 	0.8754	0.07369	0.9283	0.218
Mof_C 	C 	0.9383	0.09201	0.9413	-0.244
Mof_H 	H 	0.9463	0.1109	0.9662	0.104
Mof_C 	C 	0.9895	0.08325	0.91847	0.115
Mof_H 	H 	0.0318	0.0959	0.9286	-0.058
Mof_C 	C 	0.9784	0.05535	0.88013	-0.189
Mof_C 	C 	0.9157	0.03701	0.8672	0.079
Mof_H 	H 	0.9076	0.0181	0.8423	-0.029
Mof_C 	C 	0.0281	0.04988	0.84981	0.103
Mof_C 	C 	0.4926	0.12217	0.995	0.221
Mof_C 	C 	0.4421	0.1306	0.9429	-0.244
Mof_H 	H 	0.4182	0.1127	0.9188	0.101
Mof_C 	C 	0.4271	0.16499	0.9265	0.117
Mof_H 	H 	0.393	0.1699	0.8916	-0.066
Mof_C 	C 	0.4623	0.19265	0.96115	-0.194
Mof_C 	C 	0.512	0.18395	0.0132	0.126
Mof_H 	H 	0.5362	0.2018	0.0372	-0.066
Mof_C 	C 	0.5263	0.14963	0.0299	-0.251
Mof_H 	H 	0.5592	0.1447	0.0653	0.104
Mof_C 	C 	0.4475	0.22925	0.94343	0.135
Mof_C 	C 	0.2282	0.35086	0.8276	0.215
Mof_C 	C 	0.292	0.35142	0.8166	-0.243
Mof_H 	H 	0.299	0.3685	0.7925	0.099
Mof_C 	C 	0.3447	0.32734	0.8406	0.112
Mof_H 	H 	0.387	0.3285	0.833	-0.061
Mof_C 	C 	0.3356	0.30109	0.87614	-0.19
Mof_C 	C 	0.2706	0.30013	0.8857	0.109
Mof_H 	H 	0.2626	0.2827	0.9088	-0.061
Mof_C 	C 	0.2186	0.32449	0.8616	-0.242
Mof_H 	H 	0.1758	0.3231	0.8685	0.098
Mof_C 	C 	0.3924	0.27617	0.90484	0.127
Mof_C 	C 	0.6104	0.15621	0.9148	-0.238
Mof_H 	H 	0.5821	0.1608	0.8777	0.099
Mof_C 	C 	0.617	0.12212	0.9347	0.213
Mof_C 	C 	0.6635	0.11542	0.9881	-0.246
Mof_H 	H 	0.6721	0.0924	0.0007	0.105
Mof_C 	C 	0.6974	0.14241	0.0227	0.114
Mof_H 	H 	0.7274	0.1374	0.0591	-0.056
Mof_C 	C 	0.6878	0.17731	0.00467	-0.181
Mof_C 	C 	0.6456	0.1838	0.9496	0.104
Mof_H 	H 	0.6405	0.2066	0.9356	-0.059
Mof_C 	C 	0.7171	0.20573	0.04489	0.125
Mof_C 	C 	0.9323	0.2644	0.2761	0.201
Mof_C 	C 	0.8918	0.2894	0.2392	-0.247
Mof_H 	H 	0.8963	0.313	0.2496	0.105
Mof_C 	C 	0.8449	0.27964	0.1873	0.108
Mof_H 	H 	0.8184	0.2968	0.1629	-0.062
Mof_C 	C 	0.8365	0.2446	0.17065	-0.188
Mof_C 	C 	0.8773	0.21982	0.2084	0.098
Mof_H 	H 	0.8726	0.1962	0.1984	-0.063
Mof_C 	C 	0.9248	0.2296	0.2604	-0.231
Mof_H 	H 	0.9517	0.2126	0.2849	0.079
Mof_C 	C 	0.7818	0.23417	0.11771	0.122
Mof_N 	N 	0.3025	0.4641	0.9831	-0.341
Mof_N 	N 	0.5655	0.0816	0.7209	-0.319
Mof_H 	H 	0.5501	0.0753	0.6861	0.127
Mof_H 	H 	0.5409	0.0771	0.7422	0.124
Mof_Cu	Cu	0.53921	0.62744	0.83152	0.765
Mof_Cu	Cu	0.09375	0.75458	0.00012	0.808
Mof_Cu	Cu	0.7955	0.71803	0.88224	0.828
Mof_Cu	Cu	0.00675	0.82876	0.93212	0.805
Mof_Cu	Cu	0.31646	0.70695	0.88293	0.831
Mof_Cu	Cu	0.55204	0.47394	0.86547	0.826
Mof_Cu	Cu	0.34942	0.66904	0.09197	0.814
Mof_Cu	Cu	0.60917	0.59408	0.74664	0.779
Mof_Br	Br	0.13085	0.82094	0.01091	-0.749
Mof_N 	N 	0.44814	0.64766	0.82977	-0.277
Mof_N 	N 	0.35925	0.67505	0.84647	-0.278
Mof_N 	N 	0.38599	0.63022	0.80145	-0.271
Mof_N 	N 	0.6462	0.77196	0.9623	-0.322
Mof_H 	H 	0.6851	0.765	0.9872	0.113
Mof_H 	H 	0.6412	0.7936	0.9521	0.133
Mof_N 	N 	0.09179	0.87144	0.89273	-0.257
Mof_N 	N 	0.05861	0.92714	0.88954	-0.288
Mof_N 	N 	0.03131	0.8732	0.90792	-0.247
Mof_N 	N 	0.3655	0.9391	0.851	-0.322
Mof_H 	H 	0.3894	0.9569	0.8684	0.129
Mof_H 	H 	0.3819	0.9261	0.8303	0.128
Mof_H 	H 	0.7676	0.951	0.9855	0.14
Mof_H 	H 	0.8041	0.9856	0.9916	0.137
Mof_N 	N 	0.61444	0.66117	0.83578	-0.27
Mof_N 	N 	0.59392	0.68989	0.80005	-0.272
Mof_N 	N 	0.70664	0.69723	0.85181	-0.29
Mof_N 	N 	0.8527	0.57642	0.0388	-0.325
Mof_H 	H 	0.8564	0.5545	0.0323	0.129
Mof_H 	H 	0.8746	0.5849	0.0718	0.133
Mof_N 	N 	0.6321	0.83168	0.6779	-0.331
Mof_H 	H 	0.6635	0.8354	0.6623	0.139
Mof_H 	H 	0.5966	0.8457	0.6717	0.134
Mof_N 	N 	0.59215	0.56332	0.79825	-0.267
Mof_N 	N 	0.55073	0.57695	0.82753	-0.281
Mof_N 	N 	0.7385	0.44795	0.6905	-0.33
Mof_H 	H 	0.7208	0.4284	0.6748	0.146
Mof_H 	H 	0.7776	0.4556	0.6878	0.137
Mof_N 	N 	0.55385	0.51906	0.83713	-0.288
Mof_N 	N 	0.3266	0.58212	0.9537	-0.334
Mof_H 	H 	0.3352	0.5989	0.9779	0.154
Mof_H 	H 	0.2874	0.5706	0.9454	0.14
Mof_N 	N 	0.99575	0.75465	0.95433	-0.251
Mof_N 	N 	0.96008	0.78509	0.92957	-0.253
Mof_N 	N 	0.88158	0.74159	0.91237	-0.287
Mof_N 	N 	0.0087	0.58766	0.0113	-0.346
Mof_H 	H 	0.04	0.583	0.0436	0.141
Mof_H 	H 	0.9874	0.5709	0.9893	0.145
Mof_N 	N 	0.6763	0.87587	0.8046	-0.328
Mof_H 	H 	0.6371	0.8751	0.8115	0.132
Mof_H 	H 	0.6832	0.8922	0.7834	0.134
Mof_N 	N 	0.18263	0.73522	0.0467	-0.248
Mof_N 	N 	0.27996	0.70414	0.08833	-0.285
Mof_N 	N 	0.22413	0.75343	0.0938	-0.245
Mof_N 	N 	0.0777	0.59472	0.9005	-0.323
Mof_H 	H 	0.0827	0.5735	0.913	0.128
Mof_H 	H 	0.0488	0.5992	0.8672	0.129
Mof_N 	N 	0.4815	0.7739	0.3287	-0.316
Mof_H 	H 	0.5066	0.758	0.3509	0.116
Mof_H 	H 	0.4865	0.7956	0.3388	0.135
Mof_C 	C 	0.5912	0.7482	0.9387	0.194
Mof_C 	C 	0.5986	0.71363	0.9547	-0.233
Mof_H 	H 	0.6401	0.7062	0.9826	0.093
Mof_C 	C 	0.5451	0.68946	0.93	0.076
Mof_H 	H 	0.5511	0.6661	0.9412	-0.04
Mof_C 	C 	0.4829	0.70014	0.88869	-0.192
Mof_C 	C 	0.4748	0.73507	0.8739	0.053
Mof_H 	H 	0.4325	0.7428	0.8474	-0.033
Mof_C 	C 	0.5286	0.75886	0.898	-0.229
Mof_H 	H 	0.5228	0.7823	0.8867	0.095
Mof_C 	C 	0.43	0.67416	0.85617	0.108
Mof_C 	C 	0.1563	0.6111	0.8004	-0.23
Mof_H 	H 	0.1285	0.6075	0.8229	0.097
Mof_C 	C 	0.1322	0.5994	0.7434	0.198
Mof_C 	C 	0.1707	0.6065	0.7116	-0.253
Mof_H 	H 	0.1545	0.5995	0.674	0.099
Mof_C 	C 	0.2349	0.62412	0.733	0.09
Mof_H 	H 	0.2609	0.6291	0.7095	-0.055
Mof_C 	C 	0.2607	0.63434	0.78899	-0.179
Mof_C 	C 	0.2207	0.62782	0.8222	0.101
Mof_H 	H 	0.2371	0.6347	0.8599	-0.025
Mof_C 	C 	0.3336	0.64729	0.81167	0.136
Mof_C 	C 	0.8526	0.9498	0.964	0.239
Mof_C 	C 	0.8512	0.9143	0.9487	-0.268
Mof_H 	H 	0.8145	0.9	0.9508	0.116
Mof_C 	C 	0.9032	0.90024	0.9307	0.136
Mof_H 	H 	0.9023	0.8764	0.9222	-0.063
Mof_C 	C 	0.9568	0.92114	0.9251	-0.189
Mof_C 	C 	0.9588	0.95609	0.9414	0.15
Mof_H 	H 	0.9953	0.9705	0.9393	-0.079
Mof_C 	C 	0.9076	0.96974	0.9606	-0.278
Mof_H 	H 	0.9105	0.9932	0.9716	0.116
Mof_C 	C 	0.0132	0.90685	0.90628	0.129
Mof_C 	C 	0.2727	0.95206	0.8893	-0.236
Mof_H 	H 	0.2974	0.972	0.9066	0.093
Mof_C 	C 	0.2993	0.93121	0.8562	0.203
Mof_C 	C 	0.2604	0.90251	0.8286	-0.236
Mof_H 	H 	0.2767	0.889	0.8047	0.095
Mof_C 	C 	0.1976	0.89397	0.8366	0.1
Mof_H 	H 	0.1725	0.8743	0.8187	-0.049
Mof_C 	C 	0.1711	0.914	0.8707	-0.186
Mof_C 	C 	0.2097	0.94339	0.8968	0.1
Mof_H 	H 	0.1927	0.9574	0.9197	-0.059
Mof_C 	C 	0.1069	0.90419	0.88284	0.12
Mof_C 	C 	0.811	0.59837	0.9956	0.204
Mof_C 	C 	0.7754	0.5855	0.9425	-0.249
Mof_H 	H 	0.7799	0.5619	0.9347	0.096
Mof_C 	C 	0.7328	0.60739	0.9006	0.114
Mof_H 	H 	0.7085	0.5982	0.865	-0.06
Mof_C 	C 	0.7258	0.64247	0.9107	-0.188
Mof_C 	C 	0.7614	0.65512	0.9644	0.099
Mof_H 	H 	0.7568	0.6787	0.9724	-0.046
Mof_C 	C 	0.8035	0.63357	0.0064	-0.237
Mof_H 	H 	0.8271	0.6427	0.0421	0.096
Mof_C 	C 	0.6821	0.66637	0.86608	0.128
Mof_C 	C 	0.6955	0.78034	0.7234	-0.249
Mof_H 	H 	0.7309	0.785	0.7083	0.101
Mof_C 	C 	0.7004	0.7506	0.7561	0.089
Mof_H 	H 	0.7385	0.7353	0.7621	-0.052
Mof_C 	C 	0.6487	0.74352	0.77997	-0.181
Mof_C 	C 	0.5935	0.76731	0.77191	0.09
Mof_H 	H 	0.5595	0.7633	0.7888	-0.035
Mof_C 	C 	0.5888	0.79674	0.739	-0.233
Mof_H 	H 	0.5517	0.8125	0.7342	0.093
Mof_C 	C 	0.6386	0.80323	0.7129	0.211
Mof_C 	C 	0.6495	0.71078	0.81076	0.131
Mof_C 	C 	0.7329	0.49829	0.7479	-0.236
Mof_H 	H 	0.7762	0.5062	0.7466	0.098
Mof_C 	C 	0.7037	0.46717	0.7203	0.213
Mof_C 	C 	0.6413	0.4551	0.7249	-0.247
Mof_H 	H 	0.6222	0.434	0.7079	0.094
Mof_C 	C 	0.6061	0.47411	0.7545	0.091
Mof_H 	H 	0.564	0.4656	0.7575	-0.07
Mof_C 	C 	0.6338	0.50593	0.77977	-0.18
Mof_C 	C 	0.698	0.51733	0.777	0.095
Mof_H 	H 	0.718	0.5381	0.795	-0.04
Mof_C 	C 	0.5934	0.5288	0.80507	0.121
Mof_C 	C 	0.3644	0.54598	0.8902	-0.241
Mof_H 	H 	0.3222	0.5334	0.8802	0.101
Mof_C 	C 	0.3754	0.57369	0.9283	0.211
Mof_C 	C 	0.4383	0.59201	0.9413	-0.231
Mof_H 	H 	0.4463	0.6109	0.9662	0.097
Mof_C 	C 	0.4895	0.58325	0.91847	0.09
Mof_H 	H 	0.5318	0.5959	0.9286	-0.043
Mof_C 	C 	0.4784	0.55535	0.88013	-0.191
Mof_C 	C 	0.4157	0.53701	0.8672	0.077
Mof_H 	H 	0.4076	0.5181	0.8423	-0.03
Mof_C 	C 	0.5281	0.54988	0.84981	0.111
Mof_C 	C 	0.9926	0.62217	0.995	0.244
Mof_C 	C 	0.9421	0.6306	0.9429	-0.254
Mof_H 	H 	0.9182	0.6127	0.9188	0.106
Mof_C 	C 	0.9271	0.66499	0.9265	0.123
Mof_H 	H 	0.893	0.6699	0.8916	-0.068
Mof_C 	C 	0.9623	0.69265	0.96115	-0.188
Mof_C 	C 	0.012	0.68395	0.0132	0.123
Mof_H 	H 	0.0362	0.7018	0.0372	-0.068
Mof_C 	C 	0.0263	0.64963	0.0299	-0.269
Mof_H 	H 	0.0592	0.6447	0.0653	0.109
Mof_C 	C 	0.9475	0.72925	0.94343	0.136
Mof_C 	C 	0.7282	0.85086	0.8276	0.215
Mof_C 	C 	0.792	0.85142	0.8166	-0.243
Mof_H 	H 	0.799	0.8685	0.7925	0.099
Mof_C 	C 	0.8447	0.82734	0.8406	0.112
Mof_H 	H 	0.887	0.8285	0.833	-0.059
Mof_C 	C 	0.8356	0.80109	0.87614	-0.189
Mof_C 	C 	0.7706	0.80013	0.8857	0.109
Mof_H 	H 	0.7626	0.7827	0.9088	-0.061
Mof_C 	C 	0.7186	0.82449	0.8616	-0.242
Mof_H 	H 	0.6758	0.8231	0.8685	0.099
Mof_C 	C 	0.8924	0.77617	0.90484	0.127
Mof_C 	C 	0.1104	0.65621	0.9148	-0.238
Mof_H 	H 	0.0821	0.6608	0.8777	0.097
Mof_C 	C 	0.117	0.62212	0.9347	0.212
Mof_C 	C 	0.1635	0.61542	0.9881	-0.252
Mof_H 	H 	0.1721	0.5924	0.0007	0.107
Mof_C 	C 	0.1974	0.64241	0.0227	0.117
Mof_H 	H 	0.2274	0.6374	0.0591	-0.057
Mof_C 	C 	0.1878	0.67731	0.00467	-0.18
Mof_C 	C 	0.1456	0.6838	0.9496	0.102
Mof_H 	H 	0.1405	0.7066	0.9356	-0.059
Mof_C 	C 	0.2171	0.70573	0.04489	0.125
Mof_C 	C 	0.4323	0.7644	0.2761	0.2
Mof_C 	C 	0.3918	0.7894	0.2392	-0.248
Mof_H 	H 	0.3963	0.813	0.2496	0.105
Mof_C 	C 	0.3449	0.77964	0.1873	0.108
Mof_H 	H 	0.3184	0.7968	0.1629	-0.062
Mof_C 	C 	0.3365	0.7446	0.17065	-0.188
Mof_C 	C 	0.3773	0.71982	0.2084	0.097
Mof_H 	H 	0.3726	0.6962	0.1984	-0.064
Mof_C 	C 	0.4248	0.7296	0.2604	-0.232
Mof_H 	H 	0.4517	0.7126	0.2849	0.077
Mof_C 	C 	0.2818	0.73417	0.11771	0.122
Mof_N 	N 	0.8025	0.9641	0.9831	-0.34
Mof_N 	N 	0.0655	0.5816	0.7209	-0.317
Mof_H 	H 	0.0501	0.5753	0.6861	0.124
Mof_H 	H 	0.0409	0.5771	0.7422	0.12
Mof_Cu	Cu	0.96079	0.12744	0.66848	0.769
Mof_Cu	Cu	0.40625	0.25458	0.49988	0.809
Mof_Cu	Cu	0.7045	0.21803	0.61776	0.828
Mof_Cu	Cu	0.49325	0.32876	0.56788	0.809
Mof_Cu	Cu	0.18354	0.20695	0.61707	0.831
Mof_Cu	Cu	0.94796	0.97394	0.63453	0.829
Mof_Cu	Cu	0.15058	0.16904	0.40803	0.813
Mof_Cu	Cu	0.89083	0.09408	0.75336	0.78
Mof_Br	Br	0.36915	0.32094	0.48909	-0.749
Mof_N 	N 	0.05186	0.14766	0.67023	-0.28
Mof_N 	N 	0.14075	0.17505	0.65353	-0.278
Mof_N 	N 	0.11401	0.13022	0.69855	-0.271
Mof_N 	N 	0.8538	0.27196	0.5377	-0.321
Mof_H 	H 	0.8149	0.265	0.5128	0.113
Mof_H 	H 	0.8588	0.2936	0.5479	0.134
Mof_N 	N 	0.40821	0.37144	0.60727	-0.256
Mof_N 	N 	0.44139	0.42714	0.61046	-0.288
Mof_N 	N 	0.46869	0.3732	0.59208	-0.247
Mof_N 	N 	0.1345	0.4391	0.649	-0.321
Mof_H 	H 	0.1106	0.4569	0.6316	0.127
Mof_H 	H 	0.1181	0.4261	0.6697	0.126
Mof_H 	H 	0.7324	0.451	0.5145	0.14
Mof_H 	H 	0.6959	0.4856	0.5084	0.137
Mof_N 	N 	0.88556	0.16117	0.66422	-0.269
Mof_N 	N 	0.90608	0.18989	0.69995	-0.269
Mof_N 	N 	0.79336	0.19723	0.64819	-0.29
Mof_N 	N 	0.6473	0.07642	0.4612	-0.325
Mof_H 	H 	0.6436	0.0545	0.4677	0.128
Mof_H 	H 	0.6254	0.0849	0.4282	0.132
Mof_N 	N 	0.8679	0.33168	0.8221	-0.332
Mof_H 	H 	0.8365	0.3354	0.8377	0.139
Mof_H 	H 	0.9034	0.3457	0.8283	0.136
Mof_N 	N 	0.90785	0.06332	0.70175	-0.266
Mof_N 	N 	0.94927	0.07695	0.67247	-0.28
Mof_N 	N 	0.7615	0.94795	0.8095	-0.33
Mof_H 	H 	0.7792	0.9284	0.8252	0.146
Mof_H 	H 	0.7224	0.9556	0.8122	0.136
Mof_N 	N 	0.94615	0.01906	0.66287	-0.288
Mof_N 	N 	0.1734	0.08212	0.5463	-0.333
Mof_H 	H 	0.1648	0.0989	0.5221	0.154
Mof_H 	H 	0.2126	0.0706	0.5546	0.14
Mof_N 	N 	0.50425	0.25465	0.54567	-0.254
Mof_N 	N 	0.53992	0.28509	0.57043	-0.256
Mof_N 	N 	0.61842	0.24159	0.58763	-0.287
Mof_N 	N 	0.4913	0.08766	0.4887	-0.331
Mof_H 	H 	0.46	0.083	0.4564	0.139
Mof_H 	H 	0.5126	0.0709	0.5107	0.135
Mof_N 	N 	0.8237	0.37587	0.6954	-0.328
Mof_H 	H 	0.8629	0.3751	0.6885	0.133
Mof_H 	H 	0.8168	0.3922	0.7166	0.135
Mof_N 	N 	0.31737	0.23522	0.4533	-0.248
Mof_N 	N 	0.22004	0.20414	0.41167	-0.286
Mof_N 	N 	0.27587	0.25343	0.4062	-0.245
Mof_N 	N 	0.4223	0.09472	0.5995	-0.324
Mof_H 	H 	0.4173	0.0735	0.587	0.13
Mof_H 	H 	0.4512	0.0992	0.6328	0.133
Mof_N 	N 	0.0185	0.2739	0.1713	-0.324
Mof_H 	H 	0.9934	0.258	0.1491	0.124
Mof_H 	H 	0.0135	0.2956	0.1612	0.135
Mof_C 	C 	0.9088	0.2482	0.5613	0.192
Mof_C 	C 	0.9014	0.21363	0.5453	-0.235
Mof_H 	H 	0.8599	0.2062	0.5174	0.095
Mof_C 	C 	0.9549	0.18946	0.57	0.088
Mof_H 	H 	0.9489	0.1661	0.5588	-0.042
Mof_C 	C 	0.0171	0.20014	0.61131	-0.199
Mof_C 	C 	0.0252	0.23507	0.6261	0.041
Mof_H 	H 	0.0675	0.2428	0.6526	-0.029
Mof_C 	C 	0.9714	0.25886	0.602	-0.214
Mof_H 	H 	0.9772	0.2823	0.6133	0.093
Mof_C 	C 	0.07	0.17416	0.64383	0.109
Mof_C 	C 	0.3437	0.1111	0.6996	-0.231
Mof_H 	H 	0.3715	0.1075	0.6771	0.099
Mof_C 	C 	0.3678	0.0994	0.7566	0.2
Mof_C 	C 	0.3293	0.1065	0.7884	-0.254
Mof_H 	H 	0.3455	0.0995	0.826	0.1
Mof_C 	C 	0.2651	0.12412	0.767	0.091
Mof_H 	H 	0.2391	0.1291	0.7905	-0.055
Mof_C 	C 	0.2393	0.13434	0.71101	-0.179
Mof_C 	C 	0.2793	0.12782	0.6778	0.102
Mof_H 	H 	0.2629	0.1347	0.6401	-0.025
Mof_C 	C 	0.1664	0.14729	0.68833	0.137
Mof_C 	C 	0.6474	0.4498	0.536	0.245
Mof_C 	C 	0.6488	0.4143	0.5513	-0.276
Mof_H 	H 	0.6855	0.4	0.5492	0.119
Mof_C 	C 	0.5968	0.40024	0.5693	0.147
Mof_H 	H 	0.5977	0.3764	0.5778	-0.069
Mof_C 	C 	0.5432	0.42114	0.5749	-0.207
Mof_C 	C 	0.5412	0.45609	0.5586	0.161
Mof_H 	H 	0.5047	0.4705	0.5607	-0.087
Mof_C 	C 	0.5924	0.46974	0.5394	-0.288
Mof_H 	H 	0.5895	0.4932	0.5284	0.118
Mof_C 	C 	0.4868	0.40685	0.59372	0.143
Mof_C 	C 	0.2273	0.45206	0.6107	-0.235
Mof_H 	H 	0.2026	0.472	0.5934	0.092
Mof_C 	C 	0.2007	0.43121	0.6438	0.202
Mof_C 	C 	0.2396	0.40251	0.6714	-0.235
Mof_H 	H 	0.2233	0.389	0.6953	0.095
Mof_C 	C 	0.3024	0.39397	0.6634	0.099
Mof_H 	H 	0.3275	0.3743	0.6813	-0.048
Mof_C 	C 	0.3289	0.414	0.6293	-0.185
Mof_C 	C 	0.2903	0.44339	0.6032	0.099
Mof_H 	H 	0.3073	0.4574	0.5803	-0.058
Mof_C 	C 	0.3931	0.40419	0.61716	0.121
Mof_C 	C 	0.689	0.09837	0.5044	0.204
Mof_C 	C 	0.7246	0.0855	0.5575	-0.249
Mof_H 	H 	0.7201	0.0619	0.5653	0.096
Mof_C 	C 	0.7672	0.10739	0.5994	0.114
Mof_H 	H 	0.7915	0.0982	0.635	-0.06
Mof_C 	C 	0.7742	0.14247	0.5893	-0.188
Mof_C 	C 	0.7386	0.15512	0.5356	0.099
Mof_H 	H 	0.7432	0.1787	0.5276	-0.046
Mof_C 	C 	0.6965	0.13357	0.4936	-0.237
Mof_H 	H 	0.6729	0.1427	0.4579	0.095
Mof_C 	C 	0.8179	0.16637	0.63392	0.127
Mof_C 	C 	0.8045	0.28034	0.7766	-0.249
Mof_H 	H 	0.7691	0.285	0.7917	0.101
Mof_C 	C 	0.7996	0.2506	0.7439	0.09
Mof_H 	H 	0.7615	0.2353	0.7379	-0.052
Mof_C 	C 	0.8513	0.24352	0.72003	-0.18
Mof_C 	C 	0.9065	0.26731	0.72809	0.091
Mof_H 	H 	0.9405	0.2633	0.7112	-0.033
Mof_C 	C 	0.9112	0.29674	0.761	-0.233
Mof_H 	H 	0.9483	0.3125	0.7658	0.096
Mof_C 	C 	0.8614	0.30323	0.7871	0.213
Mof_C 	C 	0.8505	0.21078	0.68924	0.131
Mof_C 	C 	0.7671	0.99829	0.7521	-0.236
Mof_H 	H 	0.7238	0.0062	0.7534	0.097
Mof_C 	C 	0.7963	0.96717	0.7797	0.213
Mof_C 	C 	0.8587	0.9551	0.7751	-0.246
Mof_H 	H 	0.8778	0.934	0.7921	0.095
Mof_C 	C 	0.8939	0.97411	0.7455	0.091
Mof_H 	H 	0.936	0.9656	0.7425	-0.067
Mof_C 	C 	0.8662	0.00593	0.72023	-0.179
Mof_C 	C 	0.802	0.01733	0.723	0.095
Mof_H 	H 	0.782	0.0381	0.705	-0.04
Mof_C 	C 	0.9066	0.0288	0.69493	0.122
Mof_C 	C 	0.1356	0.04598	0.6098	-0.238
Mof_H 	H 	0.1778	0.0334	0.6198	0.101
Mof_C 	C 	0.1246	0.07369	0.5717	0.206
Mof_C 	C 	0.0617	0.09201	0.5587	-0.22
Mof_H 	H 	0.0537	0.1109	0.5338	0.092
Mof_C 	C 	0.0105	0.08325	0.58153	0.069
Mof_H 	H 	0.9682	0.0959	0.5714	-0.03
Mof_C 	C 	0.0216	0.05535	0.61987	-0.194
Mof_C 	C 	0.0843	0.03701	0.6328	0.076
Mof_H 	H 	0.0924	0.0181	0.6577	-0.031
Mof_C 	C 	0.9719	0.04988	0.65019	0.119
Mof_C 	C 	0.5074	0.12217	0.505	0.223
Mof_C 	C 	0.5579	0.1306	0.5571	-0.245
Mof_H 	H 	0.5818	0.1127	0.5812	0.102
Mof_C 	C 	0.5729	0.16499	0.5735	0.118
Mof_H 	H 	0.607	0.1699	0.6084	-0.066
Mof_C 	C 	0.5377	0.19265	0.53885	-0.193
Mof_C 	C 	0.488	0.18395	0.4868	0.125
Mof_H 	H 	0.4638	0.2018	0.4628	-0.066
Mof_C 	C 	0.4737	0.14963	0.4701	-0.252
Mof_H 	H 	0.4408	0.1447	0.4347	0.104
Mof_C 	C 	0.5525	0.22925	0.55657	0.135
Mof_C 	C 	0.7718	0.35086	0.6724	0.216
Mof_C 	C 	0.708	0.35142	0.6834	-0.244
Mof_H 	H 	0.701	0.3685	0.7075	0.099
Mof_C 	C 	0.6553	0.32734	0.6594	0.113
Mof_H 	H 	0.613	0.3285	0.667	-0.061
Mof_C 	C 	0.6644	0.30109	0.62386	-0.191
Mof_C 	C 	0.7294	0.30013	0.6143	0.11
Mof_H 	H 	0.7374	0.2827	0.5912	-0.061
Mof_C 	C 	0.7814	0.32449	0.6384	-0.244
Mof_H 	H 	0.8242	0.3231	0.6315	0.1
Mof_C 	C 	0.6076	0.27617	0.59516	0.127
Mof_C 	C 	0.3896	0.15621	0.5852	-0.237
Mof_H 	H 	0.4179	0.1608	0.6223	0.099
Mof_C 	C 	0.383	0.12212	0.5653	0.212
Mof_C 	C 	0.3365	0.11542	0.5119	-0.244
Mof_H 	H 	0.3279	0.0924	0.4993	0.104
Mof_C 	C 	0.3026	0.14241	0.4773	0.113
Mof_H 	H 	0.2726	0.1374	0.4409	-0.055
Mof_C 	C 	0.3122	0.17731	0.49533	-0.18
Mof_C 	C 	0.3544	0.1838	0.5504	0.104
Mof_H 	H 	0.3595	0.2066	0.5644	-0.059
Mof_C 	C 	0.2829	0.20573	0.45511	0.124
Mof_C 	C 	0.0677	0.2644	0.2239	0.2
Mof_C 	C 	0.1082	0.2894	0.2608	-0.249
Mof_H 	H 	0.1037	0.313	0.2504	0.104
Mof_C 	C 	0.1551	0.27964	0.3127	0.108
Mof_H 	H 	0.1816	0.2968	0.3371	-0.062
Mof_C 	C 	0.1635	0.2446	0.32935	-0.189
Mof_C 	C 	0.1227	0.21982	0.2916	0.097
Mof_H 	H 	0.1274	0.1962	0.3016	-0.065
Mof_C 	C 	0.0752	0.2296	0.2396	-0.233
Mof_H 	H 	0.0483	0.2126	0.2151	0.075
Mof_C 	C 	0.2182	0.23417	0.38229	0.122
Mof_N 	N 	0.6975	0.4641	0.5169	-0.342
Mof_N 	N 	0.4345	0.0816	0.7791	-0.319
Mof_H 	H 	0.4499	0.0753	0.8139	0.127
Mof_H 	H 	0.4591	0.0771	0.7578	0.124
Mof_Cu	Cu	0.46079	0.62744	0.66848	0.765
Mof_Cu	Cu	0.90625	0.75458	0.49988	0.811
Mof_Cu	Cu	0.2045	0.71803	0.61776	0.828
Mof_Cu	Cu	0.99325	0.82876	0.56788	0.813
Mof_Cu	Cu	0.68354	0.70695	0.61707	0.831
Mof_Cu	Cu	0.44796	0.47394	0.63453	0.826
Mof_Cu	Cu	0.65058	0.66904	0.40803	0.813
Mof_Cu	Cu	0.39083	0.59408	0.75336	0.779
Mof_Br	Br	0.86915	0.82094	0.48909	-0.747
Mof_N 	N 	0.55186	0.64766	0.67023	-0.277
Mof_N 	N 	0.64075	0.67505	0.65353	-0.278
Mof_N 	N 	0.61401	0.63022	0.69855	-0.271
Mof_N 	N 	0.3538	0.77196	0.5377	-0.322
Mof_H 	H 	0.3149	0.765	0.5128	0.113
Mof_H 	H 	0.3588	0.7936	0.5479	0.134
Mof_N 	N 	0.90821	0.87144	0.60727	-0.255
Mof_N 	N 	0.94139	0.92714	0.61046	-0.289
Mof_N 	N 	0.96869	0.8732	0.59208	-0.247
Mof_N 	N 	0.6345	0.9391	0.649	-0.321
Mof_H 	H 	0.6106	0.9569	0.6316	0.129
Mof_H 	H 	0.6181	0.9261	0.6697	0.128
Mof_H 	H 	0.2324	0.951	0.5145	0.14
Mof_H 	H 	0.1959	0.9856	0.5084	0.137
Mof_N 	N 	0.38556	0.66117	0.66422	-0.27
Mof_N 	N 	0.40608	0.68989	0.69995	-0.272
Mof_N 	N 	0.29336	0.69723	0.64819	-0.29
Mof_N 	N 	0.1473	0.57642	0.4612	-0.324
Mof_H 	H 	0.1436	0.5545	0.4677	0.127
Mof_H 	H 	0.1254	0.5849	0.4282	0.131
Mof_N 	N 	0.3679	0.83168	0.8221	-0.331
Mof_H 	H 	0.3365	0.8354	0.8377	0.139
Mof_H 	H 	0.4034	0.8457	0.8283	0.134
Mof_N 	N 	0.40785	0.56332	0.70175	-0.267
Mof_N 	N 	0.44927	0.57695	0.67247	-0.281
Mof_N 	N 	0.2615	0.44795	0.8095	-0.329
Mof_H 	H 	0.2792	0.4284	0.8252	0.145
Mof_H 	H 	0.2224	0.4556	0.8122	0.136
Mof_N 	N 	0.44615	0.51906	0.66287	-0.288
Mof_N 	N 	0.6734	0.58212	0.5463	-0.334
Mof_H 	H 	0.6648	0.5989	0.5221	0.155
Mof_H 	H 	0.7126	0.5706	0.5546	0.141
Mof_N 	N 	0.00425	0.75465	0.54567	-0.258
Mof_N 	N 	0.03992	0.78509	0.57043	-0.258
Mof_N 	N 	0.11842	0.74159	0.58763	-0.287
Mof_N 	N 	0.9913	0.58766	0.4887	-0.313
Mof_H 	H 	0.96	0.583	0.4564	0.136
Mof_H 	H 	0.0126	0.5709	0.5107	0.125
Mof_N 	N 	0.3237	0.87587	0.6954	-0.328
Mof_H 	H 	0.3629	0.8751	0.6885	0.132
Mof_H 	H 	0.3168	0.8922	0.7166	0.134
Mof_N 	N 	0.81737	0.73522	0.4533	-0.248
Mof_N 	N 	0.72004	0.70414	0.41167	-0.285
Mof_N 	N 	0.77587	0.75343	0.4062	-0.245
Mof_N 	N 	0.9223	0.59472	0.5995	-0.325
Mof_H 	H 	0.9173	0.5735	0.587	0.133
Mof_H 	H 	0.9512	0.5992	0.6328	0.136
Mof_N 	N 	0.5185	0.7739	0.1713	-0.316
Mof_H 	H 	0.4934	0.758	0.1491	0.116
Mof_H 	H 	0.5135	0.7956	0.1612	0.135
Mof_C 	C 	0.4088	0.7482	0.5613	0.194
Mof_C 	C 	0.4014	0.71363	0.5453	-0.233
Mof_H 	H 	0.3599	0.7062	0.5174	0.094
Mof_C 	C 	0.4549	0.68946	0.57	0.076
Mof_H 	H 	0.4489	0.6661	0.5588	-0.04
Mof_C 	C 	0.5171	0.70014	0.61131	-0.192
Mof_C 	C 	0.5252	0.73507	0.6261	0.053
Mof_H 	H 	0.5675	0.7428	0.6526	-0.033
Mof_C 	C 	0.4714	0.75886	0.602	-0.229
Mof_H 	H 	0.4772	0.7823	0.6133	0.095
Mof_C 	C 	0.57	0.67416	0.64383	0.108
Mof_C 	C 	0.8437	0.6111	0.6996	-0.232
Mof_H 	H 	0.8715	0.6075	0.6771	0.1
Mof_C 	C 	0.8678	0.5994	0.7566	0.203
Mof_C 	C 	0.8293	0.6065	0.7884	-0.255
Mof_H 	H 	0.8455	0.5995	0.826	0.101
Mof_C 	C 	0.7651	0.62412	0.767	0.093
Mof_H 	H 	0.7391	0.6291	0.7905	-0.055
Mof_C 	C 	0.7393	0.63434	0.71101	-0.18
Mof_C 	C 	0.7793	0.62782	0.6778	0.103
Mof_H 	H 	0.7629	0.6347	0.6401	-0.026
Mof_C 	C 	0.6664	0.64729	0.68833	0.137
Mof_C 	C 	0.1474	0.9498	0.536	0.25
Mof_C 	C 	0.1488	0.9143	0.5513	-0.284
Mof_H 	H 	0.1855	0.9	0.5492	0.121
Mof_C 	C 	0.0968	0.90024	0.5693	0.158
Mof_H 	H 	0.0977	0.8764	0.5778	-0.074
Mof_C 	C 	0.0432	0.92114	0.5749	-0.225
Mof_C 	C 	0.0412	0.95609	0.5586	0.171
Mof_H 	H 	0.0047	0.9705	0.5607	-0.094
Mof_C 	C 	0.0924	0.96974	0.5394	-0.297
Mof_H 	H 	0.0895	0.9932	0.5284	0.119
Mof_C 	C 	0.9868	0.90685	0.59372	0.156
Mof_C 	C 	0.7273	0.95206	0.6107	-0.235
Mof_H 	H 	0.7026	0.972	0.5934	0.092
Mof_C 	C 	0.7007	0.93121	0.6438	0.203
Mof_C 	C 	0.7396	0.90251	0.6714	-0.235
Mof_H 	H 	0.7233	0.889	0.6953	0.095
Mof_C 	C 	0.8024	0.89397	0.6634	0.099
Mof_H 	H 	0.8275	0.8743	0.6813	-0.048
Mof_C 	C 	0.8289	0.914	0.6293	-0.185
Mof_C 	C 	0.7903	0.94339	0.6032	0.099
Mof_H 	H 	0.8073	0.9574	0.5803	-0.057
Mof_C 	C 	0.8931	0.90419	0.61716	0.121
Mof_C 	C 	0.189	0.59837	0.5044	0.203
Mof_C 	C 	0.2246	0.5855	0.5575	-0.248
Mof_H 	H 	0.2201	0.5619	0.5653	0.096
Mof_C 	C 	0.2672	0.60739	0.5994	0.113
Mof_H 	H 	0.2915	0.5982	0.635	-0.059
Mof_C 	C 	0.2742	0.64247	0.5893	-0.188
Mof_C 	C 	0.2386	0.65512	0.5356	0.098
Mof_H 	H 	0.2432	0.6787	0.5276	-0.046
Mof_C 	C 	0.1965	0.63357	0.4936	-0.237
Mof_H 	H 	0.1729	0.6427	0.4579	0.095
Mof_C 	C 	0.3179	0.66637	0.63392	0.127
Mof_C 	C 	0.3045	0.78034	0.7766	-0.249
Mof_H 	H 	0.2691	0.785	0.7917	0.101
Mof_C 	C 	0.2996	0.7506	0.7439	0.089
Mof_H 	H 	0.2615	0.7353	0.7379	-0.052
Mof_C 	C 	0.3513	0.74352	0.72003	-0.181
Mof_C 	C 	0.4065	0.76731	0.72809	0.09
Mof_H 	H 	0.4405	0.7633	0.7112	-0.035
Mof_C 	C 	0.4112	0.79674	0.761	-0.233
Mof_H 	H 	0.4483	0.8125	0.7658	0.093
Mof_C 	C 	0.3614	0.80323	0.7871	0.211
Mof_C 	C 	0.3505	0.71078	0.68924	0.131
Mof_C 	C 	0.2671	0.49829	0.7521	-0.236
Mof_H 	H 	0.2238	0.5062	0.7534	0.097
Mof_C 	C 	0.2963	0.46717	0.7797	0.213
Mof_C 	C 	0.3587	0.4551	0.7751	-0.246
Mof_H 	H 	0.3778	0.434	0.7921	0.094
Mof_C 	C 	0.3939	0.47411	0.7455	0.09
Mof_H 	H 	0.436	0.4656	0.7425	-0.069
Mof_C 	C 	0.3662	0.50593	0.72023	-0.179
Mof_C 	C 	0.302	0.51733	0.723	0.095
Mof_H 	H 	0.282	0.5381	0.705	-0.04
Mof_C 	C 	0.4066	0.5288	0.69493	0.121
Mof_C 	C 	0.6356	0.54598	0.6098	-0.241
Mof_H 	H 	0.6778	0.5334	0.6198	0.102
Mof_C 	C 	0.6246	0.57369	0.5717	0.212
Mof_C 	C 	0.5617	0.59201	0.5587	-0.231
Mof_H 	H 	0.5537	0.6109	0.5338	0.098
Mof_C 	C 	0.5105	0.58325	0.58153	0.091
Mof_H 	H 	0.4682	0.5959	0.5714	-0.043
Mof_C 	C 	0.5216	0.55535	0.61987	-0.191
Mof_C 	C 	0.5843	0.53701	0.6328	0.077
Mof_H 	H 	0.5924	0.5181	0.6577	-0.03
Mof_C 	C 	0.4719	0.54988	0.65019	0.111
Mof_C 	C 	0.0074	0.62217	0.505	0.2
Mof_C 	C 	0.0579	0.6306	0.5571	-0.236
Mof_H 	H 	0.0818	0.6127	0.5812	0.098
Mof_C 	C 	0.0729	0.66499	0.5735	0.113
Mof_H 	H 	0.107	0.6699	0.6084	-0.065
Mof_C 	C 	0.0377	0.69265	0.53885	-0.199
Mof_C 	C 	0.988	0.68395	0.4868	0.129
Mof_H 	H 	0.9638	0.7018	0.4628	-0.065
Mof_C 	C 	0.9737	0.64963	0.4701	-0.234
Mof_H 	H 	0.9408	0.6447	0.4347	0.099
Mof_C 	C 	0.0525	0.72925	0.55657	0.135
Mof_C 	C 	0.2718	0.85086	0.6724	0.216
Mof_C 	C 	0.208	0.85142	0.6834	-0.244
Mof_H 	H 	0.201	0.8685	0.7075	0.099
Mof_C 	C 	0.1553	0.82734	0.6594	0.114
Mof_H 	H 	0.113	0.8285	0.667	-0.062
Mof_C 	C 	0.1644	0.80109	0.62386	-0.191
Mof_C 	C 	0.2294	0.80013	0.6143	0.11
Mof_H 	H 	0.2374	0.7827	0.5912	-0.062
Mof_C 	C 	0.2814	0.82449	0.6384	-0.243
Mof_H 	H 	0.3242	0.8231	0.6315	0.099
Mof_C 	C 	0.1076	0.77617	0.59516	0.127
Mof_C 	C 	0.8896	0.65621	0.5852	-0.239
Mof_H 	H 	0.9179	0.6608	0.6223	0.101
Mof_C 	C 	0.883	0.62212	0.5653	0.215
Mof_C 	C 	0.8365	0.61542	0.5119	-0.246
Mof_H 	H 	0.8279	0.5924	0.4993	0.105
Mof_C 	C 	0.8026	0.64241	0.4773	0.114
Mof_H 	H 	0.7726	0.6374	0.4409	-0.056
Mof_C 	C 	0.8122	0.67731	0.49533	-0.181
Mof_C 	C 	0.8544	0.6838	0.5504	0.106
Mof_H 	H 	0.8595	0.7066	0.5644	-0.059
Mof_C 	C 	0.7829	0.70573	0.45511	0.125
Mof_C 	C 	0.5677	0.7644	0.2239	0.201
Mof_C 	C 	0.6082	0.7894	0.2608	-0.248
Mof_H 	H 	0.6037	0.813	0.2504	0.105
Mof_C 	C 	0.6551	0.77964	0.3127	0.108
Mof_H 	H 	0.6816	0.7968	0.3371	-0.062
Mof_C 	C 	0.6635	0.7446	0.32935	-0.188
Mof_C 	C 	0.6227	0.71982	0.2916	0.097
Mof_H 	H 	0.6274	0.6962	0.3016	-0.064
Mof_C 	C 	0.5752	0.7296	0.2396	-0.232
Mof_H 	H 	0.5483	0.7126	0.2151	0.077
Mof_C 	C 	0.7182	0.73417	0.38229	0.122
Mof_N 	N 	0.1975	0.9641	0.5169	-0.343
Mof_N 	N 	0.9345	0.5816	0.7791	-0.321
Mof_H 	H 	0.9499	0.5753	0.8139	0.13
Mof_H 	H 	0.9591	0.5771	0.7578	0.128
Mof_Cu	Cu	0.96079	0.87256	0.16848	0.768
Mof_Cu	Cu	0.40625	0.74542	0.99988	0.809
Mof_Cu	Cu	0.7045	0.78197	0.11776	0.828
Mof_Cu	Cu	0.49325	0.67124	0.06788	0.809
Mof_Cu	Cu	0.18354	0.79305	0.11707	0.831
Mof_Cu	Cu	0.94796	0.02606	0.13453	0.828
Mof_Cu	Cu	0.15058	0.83096	0.90803	0.813
Mof_Cu	Cu	0.89083	0.90592	0.25336	0.78
Mof_Br	Br	0.36915	0.67906	0.98909	-0.75
Mof_N 	N 	0.05186	0.85234	0.17023	-0.279
Mof_N 	N 	0.14075	0.82495	0.15353	-0.278
Mof_N 	N 	0.11401	0.86978	0.19855	-0.271
Mof_N 	N 	0.8538	0.72804	0.0377	-0.322
Mof_H 	H 	0.8149	0.735	0.0128	0.113
Mof_H 	H 	0.8588	0.7064	0.0479	0.134
Mof_N 	N 	0.40821	0.62856	0.10727	-0.256
Mof_N 	N 	0.44139	0.57286	0.11046	-0.288
Mof_N 	N 	0.46869	0.6268	0.09208	-0.247
Mof_N 	N 	0.1345	0.5609	0.149	-0.321
Mof_H 	H 	0.1106	0.5431	0.1316	0.127
Mof_H 	H 	0.1181	0.5739	0.1697	0.126
Mof_H 	H 	0.7324	0.549	0.0145	0.14
Mof_H 	H 	0.6959	0.5144	0.0084	0.137
Mof_N 	N 	0.88556	0.83883	0.16422	-0.269
Mof_N 	N 	0.90608	0.81011	0.19995	-0.27
Mof_N 	N 	0.79336	0.80277	0.14819	-0.29
Mof_N 	N 	0.6473	0.92358	0.9612	-0.325
Mof_H 	H 	0.6436	0.9455	0.9677	0.128
Mof_H 	H 	0.6254	0.9151	0.9282	0.132
Mof_N 	N 	0.8679	0.66832	0.3221	-0.331
Mof_H 	H 	0.8365	0.6646	0.3377	0.139
Mof_H 	H 	0.9034	0.6543	0.3283	0.136
Mof_N 	N 	0.90785	0.93668	0.20175	-0.266
Mof_N 	N 	0.94927	0.92305	0.17247	-0.28
Mof_N 	N 	0.7615	0.05205	0.3095	-0.33
Mof_H 	H 	0.7792	0.0716	0.3252	0.146
Mof_H 	H 	0.7224	0.0444	0.3122	0.136
Mof_N 	N 	0.94615	0.98094	0.16287	-0.288
Mof_N 	N 	0.1734	0.91788	0.0463	-0.333
Mof_H 	H 	0.1648	0.9011	0.0221	0.155
Mof_H 	H 	0.2126	0.9294	0.0546	0.141
Mof_N 	N 	0.50425	0.74535	0.04567	-0.254
Mof_N 	N 	0.53992	0.71491	0.07043	-0.256
Mof_N 	N 	0.61842	0.75841	0.08763	-0.287
Mof_N 	N 	0.4913	0.91234	0.9887	-0.332
Mof_H 	H 	0.46	0.917	0.9564	0.139
Mof_H 	H 	0.5126	0.9291	0.0107	0.136
Mof_N 	N 	0.8237	0.62413	0.1954	-0.328
Mof_H 	H 	0.8629	0.6249	0.1885	0.133
Mof_H 	H 	0.8168	0.6078	0.2166	0.135
Mof_N 	N 	0.31737	0.76478	0.9533	-0.248
Mof_N 	N 	0.22004	0.79586	0.91167	-0.286
Mof_N 	N 	0.27587	0.74657	0.9062	-0.245
Mof_N 	N 	0.4223	0.90528	0.0995	-0.323
Mof_H 	H 	0.4173	0.9265	0.087	0.13
Mof_H 	H 	0.4512	0.9008	0.1328	0.132
Mof_N 	N 	0.0185	0.7261	0.6713	-0.325
Mof_H 	H 	0.9934	0.742	0.6491	0.126
Mof_H 	H 	0.0135	0.7044	0.6612	0.135
Mof_C 	C 	0.9088	0.7518	0.0613	0.192
Mof_C 	C 	0.9014	0.78637	0.0453	-0.235
Mof_H 	H 	0.8599	0.7938	0.0174	0.095
Mof_C 	C 	0.9549	0.81054	0.07	0.086
Mof_H 	H 	0.9489	0.8339	0.0588	-0.041
Mof_C 	C 	0.0171	0.79986	0.11131	-0.198
Mof_C 	C 	0.0252	0.76493	0.1261	0.042
Mof_H 	H 	0.0675	0.7572	0.1526	-0.03
Mof_C 	C 	0.9714	0.74114	0.102	-0.216
Mof_H 	H 	0.9772	0.7177	0.1133	0.094
Mof_C 	C 	0.07	0.82584	0.14383	0.109
Mof_C 	C 	0.3437	0.8889	0.1996	-0.231
Mof_H 	H 	0.3715	0.8925	0.1771	0.099
Mof_C 	C 	0.3678	0.9006	0.2566	0.201
Mof_C 	C 	0.3293	0.8935	0.2884	-0.254
Mof_H 	H 	0.3455	0.9005	0.326	0.1
Mof_C 	C 	0.2651	0.87588	0.267	0.091
Mof_H 	H 	0.2391	0.8709	0.2905	-0.055
Mof_C 	C 	0.2393	0.86566	0.21101	-0.179
Mof_C 	C 	0.2793	0.87218	0.1778	0.102
Mof_H 	H 	0.2629	0.8653	0.1401	-0.025
Mof_C 	C 	0.1664	0.85271	0.18833	0.137
Mof_C 	C 	0.6474	0.5502	0.036	0.245
Mof_C 	C 	0.6488	0.5857	0.0513	-0.276
Mof_H 	H 	0.6855	0.6	0.0492	0.119
Mof_C 	C 	0.5968	0.59976	0.0693	0.147
Mof_H 	H 	0.5977	0.6236	0.0778	-0.069
Mof_C 	C 	0.5432	0.57886	0.0749	-0.207
Mof_C 	C 	0.5412	0.54391	0.0586	0.161
Mof_H 	H 	0.5047	0.5295	0.0607	-0.086
Mof_C 	C 	0.5924	0.53026	0.0394	-0.288
Mof_H 	H 	0.5895	0.5068	0.0284	0.118
Mof_C 	C 	0.4868	0.59315	0.09372	0.143
Mof_C 	C 	0.2273	0.54794	0.1107	-0.235
Mof_H 	H 	0.2026	0.528	0.0934	0.092
Mof_C 	C 	0.2007	0.56879	0.1438	0.202
Mof_C 	C 	0.2396	0.59749	0.1714	-0.235
Mof_H 	H 	0.2233	0.611	0.1953	0.095
Mof_C 	C 	0.3024	0.60603	0.1634	0.099
Mof_H 	H 	0.3275	0.6257	0.1813	-0.048
Mof_C 	C 	0.3289	0.586	0.1293	-0.185
Mof_C 	C 	0.2903	0.55661	0.1032	0.099
Mof_H 	H 	0.3073	0.5426	0.0803	-0.057
Mof_C 	C 	0.3931	0.59581	0.11716	0.121
Mof_C 	C 	0.689	0.90163	0.0044	0.205
Mof_C 	C 	0.7246	0.9145	0.0575	-0.25
Mof_H 	H 	0.7201	0.9381	0.0653	0.097
Mof_C 	C 	0.7672	0.89261	0.0994	0.115
Mof_H 	H 	0.7915	0.9018	0.135	-0.06
Mof_C 	C 	0.7742	0.85753	0.0893	-0.189
Mof_C 	C 	0.7386	0.84488	0.0356	0.1
Mof_H 	H 	0.7432	0.8213	0.0276	-0.047
Mof_C 	C 	0.6965	0.86643	0.9936	-0.24
Mof_H 	H 	0.6729	0.8573	0.9579	0.096
Mof_C 	C 	0.8179	0.83363	0.13392	0.128
Mof_C 	C 	0.8045	0.71966	0.2766	-0.249
Mof_H 	H 	0.7691	0.715	0.2917	0.101
Mof_C 	C 	0.7996	0.7494	0.2439	0.09
Mof_H 	H 	0.7615	0.7647	0.2379	-0.052
Mof_C 	C 	0.8513	0.75648	0.22003	-0.18
Mof_C 	C 	0.9065	0.73269	0.22809	0.091
Mof_H 	H 	0.9405	0.7367	0.2112	-0.033
Mof_C 	C 	0.9112	0.70326	0.261	-0.233
Mof_H 	H 	0.9483	0.6875	0.2658	0.095
Mof_C 	C 	0.8614	0.69677	0.2871	0.212
Mof_C 	C 	0.8505	0.78922	0.18924	0.131
Mof_C 	C 	0.7671	0.00171	0.2521	-0.236
Mof_H 	H 	0.7238	0.9938	0.2534	0.097
Mof_C 	C 	0.7963	0.03283	0.2797	0.213
Mof_C 	C 	0.8587	0.0449	0.2751	-0.246
Mof_H 	H 	0.8778	0.066	0.2921	0.095
Mof_C 	C 	0.8939	0.02589	0.2455	0.091
Mof_H 	H 	0.936	0.0344	0.2425	-0.067
Mof_C 	C 	0.8662	0.99407	0.22023	-0.179
Mof_C 	C 	0.802	0.98267	0.223	0.095
Mof_H 	H 	0.782	0.9619	0.205	-0.04
Mof_C 	C 	0.9066	0.9712	0.19493	0.122
Mof_C 	C 	0.1356	0.95402	0.1098	-0.239
Mof_H 	H 	0.1778	0.9666	0.1198	0.101
Mof_C 	C 	0.1246	0.92631	0.0717	0.208
Mof_C 	C 	0.0617	0.90799	0.0587	-0.222
Mof_H 	H 	0.0537	0.8891	0.0338	0.093
Mof_C 	C 	0.0105	0.91675	0.08153	0.073
Mof_H 	H 	0.9682	0.9041	0.0714	-0.032
Mof_C 	C 	0.0216	0.94465	0.11987	-0.194
Mof_C 	C 	0.0843	0.96299	0.1328	0.076
Mof_H 	H 	0.0924	0.9819	0.1577	-0.031
Mof_C 	C 	0.9719	0.95012	0.15019	0.118
Mof_C 	C 	0.5074	0.87783	0.005	0.225
Mof_C 	C 	0.5579	0.8694	0.0571	-0.246
Mof_H 	H 	0.5818	0.8873	0.0812	0.102
Mof_C 	C 	0.5729	0.83501	0.0735	0.118
Mof_H 	H 	0.607	0.8301	0.1084	-0.067
Mof_C 	C 	0.5377	0.80735	0.03885	-0.193
Mof_C 	C 	0.488	0.81605	0.9868	0.125
Mof_H 	H 	0.4638	0.7982	0.9628	-0.066
Mof_C 	C 	0.4737	0.85037	0.9701	-0.254
Mof_H 	H 	0.4408	0.8553	0.9347	0.105
Mof_C 	C 	0.5525	0.77075	0.05657	0.135
Mof_C 	C 	0.7718	0.64914	0.1724	0.216
Mof_C 	C 	0.708	0.64858	0.1834	-0.244
Mof_H 	H 	0.701	0.6315	0.2075	0.099
Mof_C 	C 	0.6553	0.67266	0.1594	0.113
Mof_H 	H 	0.613	0.6715	0.167	-0.061
Mof_C 	C 	0.6644	0.69891	0.12386	-0.191
Mof_C 	C 	0.7294	0.69987	0.1143	0.11
Mof_H 	H 	0.7374	0.7173	0.0912	-0.061
Mof_C 	C 	0.7814	0.67551	0.1384	-0.244
Mof_H 	H 	0.8242	0.6769	0.1315	0.1
Mof_C 	C 	0.6076	0.72383	0.09516	0.127
Mof_C 	C 	0.3896	0.84379	0.0852	-0.236
Mof_H 	H 	0.4179	0.8392	0.1223	0.098
Mof_C 	C 	0.383	0.87788	0.0653	0.209
Mof_C 	C 	0.3365	0.88458	0.0119	-0.237
Mof_H 	H 	0.3279	0.9076	0.9993	0.1
Mof_C 	C 	0.3026	0.85759	0.9773	0.107
Mof_H 	H 	0.2726	0.8626	0.9409	-0.054
Mof_C 	C 	0.3122	0.82269	0.99533	-0.18
Mof_C 	C 	0.3544	0.8162	0.0504	0.104
Mof_H 	H 	0.3595	0.7934	0.0644	-0.058
Mof_C 	C 	0.2829	0.79427	0.95511	0.124
Mof_C 	C 	0.0677	0.7356	0.7239	0.2
Mof_C 	C 	0.1082	0.7106	0.7608	-0.249
Mof_H 	H 	0.1037	0.687	0.7504	0.104
Mof_C 	C 	0.1551	0.72036	0.8127	0.108
Mof_H 	H 	0.1816	0.7032	0.8371	-0.062
Mof_C 	C 	0.1635	0.7554	0.82935	-0.189
Mof_C 	C 	0.1227	0.78018	0.7916	0.097
Mof_H 	H 	0.1274	0.8038	0.8016	-0.065
Mof_C 	C 	0.0752	0.7704	0.7396	-0.234
Mof_H 	H 	0.0483	0.7874	0.7151	0.075
Mof_C 	C 	0.2182	0.76583	0.88229	0.122
Mof_N 	N 	0.6975	0.5359	0.0169	-0.342
Mof_N 	N 	0.4345	0.9184	0.2791	-0.319
Mof_H 	H 	0.4499	0.9247	0.3139	0.127
Mof_H 	H 	0.4591	0.9229	0.2578	0.124
Mof_Cu	Cu	0.46079	0.37256	0.16848	0.765
Mof_Cu	Cu	0.90625	0.24542	0.99988	0.811
Mof_Cu	Cu	0.2045	0.28197	0.11776	0.828
Mof_Cu	Cu	0.99325	0.17124	0.06788	0.813
Mof_Cu	Cu	0.68354	0.29305	0.11707	0.831
Mof_Cu	Cu	0.44796	0.52606	0.13453	0.826
Mof_Cu	Cu	0.65058	0.33096	0.90803	0.813
Mof_Cu	Cu	0.39083	0.40592	0.25336	0.779
Mof_Br	Br	0.86915	0.17906	0.98909	-0.747
Mof_N 	N 	0.55186	0.35234	0.17023	-0.277
Mof_N 	N 	0.64075	0.32495	0.15353	-0.278
Mof_N 	N 	0.61401	0.36978	0.19855	-0.271
Mof_N 	N 	0.3538	0.22804	0.0377	-0.322
Mof_H 	H 	0.3149	0.235	0.0128	0.113
Mof_H 	H 	0.3588	0.2064	0.0479	0.134
Mof_N 	N 	0.90821	0.12856	0.10727	-0.256
Mof_N 	N 	0.94139	0.07286	0.11046	-0.289
Mof_N 	N 	0.96869	0.1268	0.09208	-0.247
Mof_N 	N 	0.6345	0.0609	0.149	-0.321
Mof_H 	H 	0.6106	0.0431	0.1316	0.129
Mof_H 	H 	0.6181	0.0739	0.1697	0.128
Mof_H 	H 	0.2324	0.049	0.0145	0.141
Mof_H 	H 	0.1959	0.0144	0.0084	0.138
Mof_N 	N 	0.38556	0.33883	0.16422	-0.27
Mof_N 	N 	0.40608	0.31011	0.19995	-0.272
Mof_N 	N 	0.29336	0.30277	0.14819	-0.29
Mof_N 	N 	0.1473	0.42358	0.9612	-0.326
Mof_H 	H 	0.1436	0.4455	0.9677	0.126
Mof_H 	H 	0.1254	0.4151	0.9282	0.131
Mof_N 	N 	0.3679	0.16832	0.3221	-0.331
Mof_H 	H 	0.3365	0.1646	0.3377	0.139
Mof_H 	H 	0.4034	0.1543	0.3283	0.134
Mof_N 	N 	0.40785	0.43668	0.20175	-0.267
Mof_N 	N 	0.44927	0.42305	0.17247	-0.281
Mof_N 	N 	0.2615	0.55205	0.3095	-0.33
Mof_H 	H 	0.2792	0.5716	0.3252	0.145
Mof_H 	H 	0.2224	0.5444	0.3122	0.136
Mof_N 	N 	0.44615	0.48094	0.16287	-0.288
Mof_N 	N 	0.6734	0.41788	0.0463	-0.334
Mof_H 	H 	0.6648	0.4011	0.0221	0.155
Mof_H 	H 	0.7126	0.4294	0.0546	0.141
Mof_N 	N 	0.00425	0.24535	0.04567	-0.257
Mof_N 	N 	0.03992	0.21491	0.07043	-0.258
Mof_N 	N 	0.11842	0.25841	0.08763	-0.287
Mof_N 	N 	0.9913	0.41234	0.9887	-0.315
Mof_H 	H 	0.96	0.417	0.9564	0.137
Mof_H 	H 	0.0126	0.4291	0.0107	0.126
Mof_N 	N 	0.3237	0.12413	0.1954	-0.328
Mof_H 	H 	0.3629	0.1249	0.1885	0.132
Mof_H 	H 	0.3168	0.1078	0.2166	0.134
Mof_N 	N 	0.81737	0.26478	0.9533	-0.248
Mof_N 	N 	0.72004	0.29586	0.91167	-0.286
Mof_N 	N 	0.77587	0.24657	0.9062	-0.245
Mof_N 	N 	0.9223	0.40528	0.0995	-0.325
Mof_H 	H 	0.9173	0.4265	0.087	0.133
Mof_H 	H 	0.9512	0.4008	0.1328	0.136
Mof_N 	N 	0.5185	0.2261	0.6713	-0.316
Mof_H 	H 	0.4934	0.242	0.6491	0.116
Mof_H 	H 	0.5135	0.2044	0.6612	0.135
Mof_C 	C 	0.4088	0.2518	0.0613	0.195
Mof_C 	C 	0.4014	0.28637	0.0453	-0.233
Mof_H 	H 	0.3599	0.2938	0.0174	0.094
Mof_C 	C 	0.4549	0.31054	0.07	0.076
Mof_H 	H 	0.4489	0.3339	0.0588	-0.039
Mof_C 	C 	0.5171	0.29986	0.11131	-0.192
Mof_C 	C 	0.5252	0.26493	0.1261	0.054
Mof_H 	H 	0.5675	0.2572	0.1526	-0.033
Mof_C 	C 	0.4714	0.24114	0.102	-0.229
Mof_H 	H 	0.4772	0.2177	0.1133	0.095
Mof_C 	C 	0.57	0.32584	0.14383	0.109
Mof_C 	C 	0.8437	0.3889	0.1996	-0.232
Mof_H 	H 	0.8715	0.3925	0.1771	0.099
Mof_C 	C 	0.8678	0.4006	0.2566	0.203
Mof_C 	C 	0.8293	0.3935	0.2884	-0.255
Mof_H 	H 	0.8455	0.4005	0.326	0.101
Mof_C 	C 	0.7651	0.37588	0.267	0.092
Mof_H 	H 	0.7391	0.3709	0.2905	-0.055
Mof_C 	C 	0.7393	0.36566	0.21101	-0.18
Mof_C 	C 	0.7793	0.37218	0.1778	0.103
Mof_H 	H 	0.7629	0.3653	0.1401	-0.026
Mof_C 	C 	0.6664	0.35271	0.18833	0.137
Mof_C 	C 	0.1474	0.0502	0.036	0.25
Mof_C 	C 	0.1488	0.0857	0.0513	-0.283
Mof_H 	H 	0.1855	0.1	0.0492	0.121
Mof_C 	C 	0.0968	0.09976	0.0693	0.156
Mof_H 	H 	0.0977	0.1236	0.0778	-0.073
Mof_C 	C 	0.0432	0.07886	0.0749	-0.222
Mof_C 	C 	0.0412	0.04391	0.0586	0.17
Mof_H 	H 	0.0047	0.0295	0.0607	-0.093
Mof_C 	C 	0.0924	0.03026	0.0394	-0.296
Mof_H 	H 	0.0895	0.0068	0.0284	0.119
Mof_C 	C 	0.9868	0.09315	0.09372	0.154
Mof_C 	C 	0.7273	0.04794	0.1107	-0.235
Mof_H 	H 	0.7026	0.028	0.0934	0.092
Mof_C 	C 	0.7007	0.06879	0.1438	0.203
Mof_C 	C 	0.7396	0.09749	0.1714	-0.235
Mof_H 	H 	0.7233	0.111	0.1953	0.095
Mof_C 	C 	0.8024	0.10603	0.1634	0.099
Mof_H 	H 	0.8275	0.1257	0.1813	-0.048
Mof_C 	C 	0.8289	0.086	0.1293	-0.185
Mof_C 	C 	0.7903	0.05661	0.1032	0.099
Mof_H 	H 	0.8073	0.0426	0.0803	-0.057
Mof_C 	C 	0.8931	0.09581	0.11716	0.121
Mof_C 	C 	0.189	0.40163	0.0044	0.21
Mof_C 	C 	0.2246	0.4145	0.0575	-0.253
Mof_H 	H 	0.2201	0.4381	0.0653	0.098
Mof_C 	C 	0.2672	0.39261	0.0994	0.118
Mof_H 	H 	0.2915	0.4018	0.135	-0.061
Mof_C 	C 	0.2742	0.35753	0.0893	-0.192
Mof_C 	C 	0.2386	0.34488	0.0356	0.106
Mof_H 	H 	0.2432	0.3213	0.0276	-0.048
Mof_C 	C 	0.1965	0.36643	0.9936	-0.247
Mof_H 	H 	0.1729	0.3573	0.9579	0.098
Mof_C 	C 	0.3179	0.33363	0.13392	0.129
Mof_C 	C 	0.3045	0.21966	0.2766	-0.249
Mof_H 	H 	0.2691	0.215	0.2917	0.101
Mof_C 	C 	0.2996	0.2494	0.2439	0.089
Mof_H 	H 	0.2615	0.2647	0.2379	-0.052
Mof_C 	C 	0.3513	0.25648	0.22003	-0.181
Mof_C 	C 	0.4065	0.23269	0.22809	0.09
Mof_H 	H 	0.4405	0.2367	0.2112	-0.035
Mof_C 	C 	0.4112	0.20326	0.261	-0.233
Mof_H 	H 	0.4483	0.1875	0.2658	0.093
Mof_C 	C 	0.3614	0.19677	0.2871	0.211
Mof_C 	C 	0.3505	0.28922	0.18924	0.131
Mof_C 	C 	0.2671	0.50171	0.2521	-0.236
Mof_H 	H 	0.2238	0.4938	0.2534	0.097
Mof_C 	C 	0.2963	0.53283	0.2797	0.213
Mof_C 	C 	0.3587	0.5449	0.2751	-0.246
Mof_H 	H 	0.3778	0.566	0.2921	0.094
Mof_C 	C 	0.3939	0.52589	0.2455	0.09
Mof_H 	H 	0.436	0.5344	0.2425	-0.069
Mof_C 	C 	0.3662	0.49407	0.22023	-0.179
Mof_C 	C 	0.302	0.48267	0.223	0.095
Mof_H 	H 	0.282	0.4619	0.205	-0.04
Mof_C 	C 	0.4066	0.4712	0.19493	0.121
Mof_C 	C 	0.6356	0.45402	0.1098	-0.241
Mof_H 	H 	0.6778	0.4666	0.1198	0.102
Mof_C 	C 	0.6246	0.42631	0.0717	0.212
Mof_C 	C 	0.5617	0.40799	0.0587	-0.231
Mof_H 	H 	0.5537	0.3891	0.0338	0.098
Mof_C 	C 	0.5105	0.41675	0.08153	0.091
Mof_H 	H 	0.4682	0.4041	0.0714	-0.043
Mof_C 	C 	0.5216	0.44465	0.11987	-0.191
Mof_C 	C 	0.5843	0.46299	0.1328	0.077
Mof_H 	H 	0.5924	0.4819	0.1577	-0.03
Mof_C 	C 	0.4719	0.45012	0.15019	0.111
Mof_C 	C 	0.0074	0.37783	0.005	0.203
Mof_C 	C 	0.0579	0.3694	0.0571	-0.237
Mof_H 	H 	0.0818	0.3873	0.0812	0.098
Mof_C 	C 	0.0729	0.33501	0.0735	0.114
Mof_H 	H 	0.107	0.3301	0.1084	-0.065
Mof_C 	C 	0.0377	0.30735	0.03885	-0.198
Mof_C 	C 	0.988	0.31605	0.9868	0.129
Mof_H 	H 	0.9638	0.2982	0.9628	-0.065
Mof_C 	C 	0.9737	0.35037	0.9701	-0.236
Mof_H 	H 	0.9408	0.3553	0.9347	0.1
Mof_C 	C 	0.0525	0.27075	0.05657	0.135
Mof_C 	C 	0.2718	0.14914	0.1724	0.216
Mof_C 	C 	0.208	0.14858	0.1834	-0.244
Mof_H 	H 	0.201	0.1315	0.2075	0.099
Mof_C 	C 	0.1553	0.17266	0.1594	0.113
Mof_H 	H 	0.113	0.1715	0.167	-0.062
Mof_C 	C 	0.1644	0.19891	0.12386	-0.191
Mof_C 	C 	0.2294	0.19987	0.1143	0.11
Mof_H 	H 	0.2374	0.2173	0.0912	-0.061
Mof_C 	C 	0.2814	0.17551	0.1384	-0.243
Mof_H 	H 	0.3242	0.1769	0.1315	0.1
Mof_C 	C 	0.1076	0.22383	0.09516	0.127
Mof_C 	C 	0.8896	0.34379	0.0852	-0.238
Mof_H 	H 	0.9179	0.3392	0.1223	0.101
Mof_C 	C 	0.883	0.37788	0.0653	0.215
Mof_C 	C 	0.8365	0.38458	0.0119	-0.245
Mof_H 	H 	0.8279	0.4076	0.9993	0.105
Mof_C 	C 	0.8026	0.35759	0.9773	0.114
Mof_H 	H 	0.7726	0.3626	0.9409	-0.056
Mof_C 	C 	0.8122	0.32269	0.99533	-0.181
Mof_C 	C 	0.8544	0.3162	0.0504	0.106
Mof_H 	H 	0.8595	0.2934	0.0644	-0.059
Mof_C 	C 	0.7829	0.29427	0.95511	0.125
Mof_C 	C 	0.5677	0.2356	0.7239	0.2
Mof_C 	C 	0.6082	0.2106	0.7608	-0.248
Mof_H 	H 	0.6037	0.187	0.7504	0.105
Mof_C 	C 	0.6551	0.22036	0.8127	0.108
Mof_H 	H 	0.6816	0.2032	0.8371	-0.062
Mof_C 	C 	0.6635	0.2554	0.82935	-0.188
Mof_C 	C 	0.6227	0.28018	0.7916	0.097
Mof_H 	H 	0.6274	0.3038	0.8016	-0.064
Mof_C 	C 	0.5752	0.2704	0.7396	-0.232
Mof_H 	H 	0.5483	0.2874	0.7151	0.077
Mof_C 	C 	0.7182	0.26583	0.88229	0.122
Mof_N 	N 	0.1975	0.0359	0.0169	-0.343
Mof_N 	N 	0.9345	0.4184	0.2791	-0.32
Mof_H 	H 	0.9499	0.4247	0.3139	0.13
Mof_H 	H 	0.9591	0.4229	0.2578	0.127
Mof_Cu	Cu	0.03921	0.87256	0.33152	0.763
Mof_Cu	Cu	0.59375	0.74542	0.50012	0.809
Mof_Cu	Cu	0.2955	0.78197	0.38224	0.828
Mof_Cu	Cu	0.50675	0.67124	0.43212	0.809
Mof_Cu	Cu	0.81646	0.79305	0.38293	0.831
Mof_Cu	Cu	0.05204	0.02606	0.36547	0.824
Mof_Cu	Cu	0.84942	0.83096	0.59197	0.814
Mof_Cu	Cu	0.10917	0.90592	0.24664	0.778
Mof_Br	Br	0.63085	0.67906	0.51091	-0.749
Mof_N 	N 	0.94814	0.85234	0.32977	-0.274
Mof_N 	N 	0.85925	0.82495	0.34647	-0.278
Mof_N 	N 	0.88599	0.86978	0.30145	-0.271
Mof_N 	N 	0.1462	0.72804	0.4623	-0.322
Mof_H 	H 	0.1851	0.735	0.4872	0.113
Mof_H 	H 	0.1412	0.7064	0.4521	0.133
Mof_N 	N 	0.59179	0.62856	0.39273	-0.256
Mof_N 	N 	0.55861	0.57286	0.38954	-0.288
Mof_N 	N 	0.53131	0.6268	0.40792	-0.247
Mof_N 	N 	0.8655	0.5609	0.351	-0.322
Mof_H 	H 	0.8894	0.5431	0.3684	0.13
Mof_H 	H 	0.8819	0.5739	0.3303	0.129
Mof_H 	H 	0.2676	0.549	0.4855	0.14
Mof_H 	H 	0.3041	0.5144	0.4916	0.137
Mof_N 	N 	0.11444	0.83883	0.33578	-0.27
Mof_N 	N 	0.09392	0.81011	0.30005	-0.272
Mof_N 	N 	0.20664	0.80277	0.35181	-0.29
Mof_N 	N 	0.3527	0.92358	0.5388	-0.325
Mof_H 	H 	0.3564	0.9455	0.5323	0.128
Mof_H 	H 	0.3746	0.9151	0.5718	0.132
Mof_N 	N 	0.1321	0.66832	0.1779	-0.331
Mof_H 	H 	0.1635	0.6646	0.1623	0.138
Mof_H 	H 	0.0966	0.6543	0.1717	0.133
Mof_N 	N 	0.09215	0.93668	0.29825	-0.267
Mof_N 	N 	0.05073	0.92305	0.32753	-0.281
Mof_N 	N 	0.2385	0.05205	0.1905	-0.33
Mof_H 	H 	0.2208	0.0716	0.1748	0.145
Mof_H 	H 	0.2776	0.0444	0.1878	0.136
Mof_N 	N 	0.05385	0.98094	0.33713	-0.288
Mof_N 	N 	0.8266	0.91788	0.4537	-0.335
Mof_H 	H 	0.8352	0.9011	0.4779	0.155
Mof_H 	H 	0.7874	0.9294	0.4454	0.141
Mof_N 	N 	0.49575	0.74535	0.45433	-0.254
Mof_N 	N 	0.46008	0.71491	0.42957	-0.256
Mof_N 	N 	0.38158	0.75841	0.41237	-0.287
Mof_N 	N 	0.5087	0.91234	0.5113	-0.331
Mof_H 	H 	0.54	0.917	0.5436	0.139
Mof_H 	H 	0.4874	0.9291	0.4893	0.135
Mof_N 	N 	0.1763	0.62413	0.3046	-0.327
Mof_H 	H 	0.1371	0.6249	0.3115	0.131
Mof_H 	H 	0.1832	0.6078	0.2834	0.133
Mof_N 	N 	0.68263	0.76478	0.5467	-0.248
Mof_N 	N 	0.77996	0.79586	0.58833	-0.285
Mof_N 	N 	0.72413	0.74657	0.5938	-0.245
Mof_N 	N 	0.5777	0.90528	0.4005	-0.324
Mof_H 	H 	0.5827	0.9265	0.413	0.13
Mof_H 	H 	0.5488	0.9008	0.3672	0.133
Mof_N 	N 	0.9815	0.7261	0.8287	-0.307
Mof_H 	H 	0.0066	0.742	0.8509	0.105
Mof_H 	H 	0.9865	0.7044	0.8388	0.136
Mof_C 	C 	0.0912	0.7518	0.4387	0.196
Mof_C 	C 	0.0986	0.78637	0.4547	-0.23
Mof_H 	H 	0.1401	0.7938	0.4826	0.093
Mof_C 	C 	0.0451	0.81054	0.43	0.064
Mof_H 	H 	0.0511	0.8339	0.4412	-0.037
Mof_C 	C 	0.9829	0.79986	0.38869	-0.184
Mof_C 	C 	0.9748	0.76493	0.3739	0.066
Mof_H 	H 	0.9325	0.7572	0.3474	-0.036
Mof_C 	C 	0.0286	0.74114	0.398	-0.242
Mof_H 	H 	0.0228	0.7177	0.3867	0.097
Mof_C 	C 	0.93	0.82584	0.35617	0.108
Mof_C 	C 	0.6563	0.8889	0.3004	-0.231
Mof_H 	H 	0.6285	0.8925	0.3229	0.098
Mof_C 	C 	0.6322	0.9006	0.2434	0.2
Mof_C 	C 	0.6707	0.8935	0.2116	-0.254
Mof_H 	H 	0.6545	0.9005	0.174	0.1
Mof_C 	C 	0.7349	0.87588	0.233	0.091
Mof_H 	H 	0.7609	0.8709	0.2095	-0.055
Mof_C 	C 	0.7607	0.86566	0.28899	-0.179
Mof_C 	C 	0.7207	0.87218	0.3222	0.102
Mof_H 	H 	0.7371	0.8653	0.3599	-0.025
Mof_C 	C 	0.8336	0.85271	0.31167	0.137
Mof_C 	C 	0.3526	0.5502	0.464	0.245
Mof_C 	C 	0.3512	0.5857	0.4487	-0.276
Mof_H 	H 	0.3145	0.6	0.4508	0.119
Mof_C 	C 	0.4032	0.59976	0.4307	0.147
Mof_H 	H 	0.4023	0.6236	0.4222	-0.069
Mof_C 	C 	0.4568	0.57886	0.4251	-0.207
Mof_C 	C 	0.4588	0.54391	0.4414	0.161
Mof_H 	H 	0.4953	0.5295	0.4393	-0.086
Mof_C 	C 	0.4076	0.53026	0.4606	-0.288
Mof_H 	H 	0.4105	0.5068	0.4716	0.117
Mof_C 	C 	0.5132	0.59315	0.40628	0.143
Mof_C 	C 	0.7727	0.54794	0.3893	-0.236
Mof_H 	H 	0.7974	0.528	0.4066	0.093
Mof_C 	C 	0.7993	0.56879	0.3562	0.204
Mof_C 	C 	0.7604	0.59749	0.3286	-0.236
Mof_H 	H 	0.7767	0.611	0.3047	0.095
Mof_C 	C 	0.6976	0.60603	0.3366	0.1
Mof_H 	H 	0.6725	0.6257	0.3187	-0.049
Mof_C 	C 	0.6711	0.586	0.3707	-0.186
Mof_C 	C 	0.7097	0.55661	0.3968	0.1
Mof_H 	H 	0.6927	0.5426	0.4197	-0.058
Mof_C 	C 	0.6069	0.59581	0.38284	0.121
Mof_C 	C 	0.311	0.90163	0.4956	0.203
Mof_C 	C 	0.2754	0.9145	0.4425	-0.249
Mof_H 	H 	0.2799	0.9381	0.4347	0.096
Mof_C 	C 	0.2328	0.89261	0.4006	0.114
Mof_H 	H 	0.2085	0.9018	0.365	-0.06
Mof_C 	C 	0.2258	0.85753	0.4107	-0.188
Mof_C 	C 	0.2614	0.84488	0.4644	0.099
Mof_H 	H 	0.2568	0.8213	0.4724	-0.046
Mof_C 	C 	0.3035	0.86643	0.5064	-0.238
Mof_H 	H 	0.3271	0.8573	0.5421	0.095
Mof_C 	C 	0.1821	0.83363	0.36608	0.127
Mof_C 	C 	0.1955	0.71966	0.2234	-0.249
Mof_H 	H 	0.2309	0.715	0.2083	0.101
Mof_C 	C 	0.2004	0.7494	0.2561	0.089
Mof_H 	H 	0.2385	0.7647	0.2621	-0.052
Mof_C 	C 	0.1487	0.75648	0.27997	-0.181
Mof_C 	C 	0.0935	0.73269	0.27191	0.09
Mof_H 	H 	0.0595	0.7367	0.2888	-0.037
Mof_C 	C 	0.0888	0.70326	0.239	-0.233
Mof_H 	H 	0.0517	0.6875	0.2342	0.091
Mof_C 	C 	0.1386	0.69677	0.2129	0.21
Mof_C 	C 	0.1495	0.78922	0.31076	0.131
Mof_C 	C 	0.2329	0.00171	0.2479	-0.237
Mof_H 	H 	0.2762	0.9938	0.2466	0.098
Mof_C 	C 	0.2037	0.03283	0.2203	0.213
Mof_C 	C 	0.1413	0.0449	0.2249	-0.247
Mof_H 	H 	0.1222	0.066	0.2079	0.093
Mof_C 	C 	0.1061	0.02589	0.2545	0.091
Mof_H 	H 	0.064	0.0344	0.2575	-0.072
Mof_C 	C 	0.1338	0.99407	0.27977	-0.18
Mof_C 	C 	0.198	0.98267	0.277	0.096
Mof_H 	H 	0.218	0.9619	0.295	-0.04
Mof_C 	C 	0.0934	0.9712	0.30507	0.121
Mof_C 	C 	0.8644	0.95402	0.3902	-0.244
Mof_H 	H 	0.8222	0.9666	0.3802	0.103
Mof_C 	C 	0.8754	0.92631	0.4283	0.217
Mof_C 	C 	0.9383	0.90799	0.4413	-0.242
Mof_H 	H 	0.9463	0.8891	0.4662	0.103
Mof_C 	C 	0.9895	0.91675	0.41847	0.112
Mof_H 	H 	0.0318	0.9041	0.4286	-0.056
Mof_C 	C 	0.9784	0.94465	0.38013	-0.19
Mof_C 	C 	0.9157	0.96299	0.3672	0.079
Mof_H 	H 	0.9076	0.9819	0.3423	-0.029
Mof_C 	C 	0.0281	0.95012	0.34981	0.104
Mof_C 	C 	0.4926	0.87783	0.495	0.223
Mof_C 	C 	0.4421	0.8694	0.4429	-0.245
Mof_H 	H 	0.4182	0.8873	0.4188	0.102
Mof_C 	C 	0.4271	0.83501	0.4265	0.118
Mof_H 	H 	0.393	0.8301	0.3916	-0.066
Mof_C 	C 	0.4623	0.80735	0.46115	-0.193
Mof_C 	C 	0.512	0.81605	0.5132	0.125
Mof_H 	H 	0.5362	0.7982	0.5372	-0.066
Mof_C 	C 	0.5263	0.85037	0.5299	-0.252
Mof_H 	H 	0.5592	0.8553	0.5653	0.104
Mof_C 	C 	0.4475	0.77075	0.44343	0.135
Mof_C 	C 	0.2282	0.64914	0.3276	0.215
Mof_C 	C 	0.292	0.64858	0.3166	-0.243
Mof_H 	H 	0.299	0.6315	0.2925	0.099
Mof_C 	C 	0.3447	0.67266	0.3406	0.112
Mof_H 	H 	0.387	0.6715	0.333	-0.061
Mof_C 	C 	0.3356	0.69891	0.37614	-0.19
Mof_C 	C 	0.2706	0.69987	0.3857	0.109
Mof_H 	H 	0.2626	0.7173	0.4088	-0.061
Mof_C 	C 	0.2186	0.67551	0.3616	-0.242
Mof_H 	H 	0.1758	0.6769	0.3685	0.099
Mof_C 	C 	0.3924	0.72383	0.40484	0.127
Mof_C 	C 	0.6104	0.84379	0.4148	-0.237
Mof_H 	H 	0.5821	0.8392	0.3777	0.099
Mof_C 	C 	0.617	0.87788	0.4347	0.212
Mof_C 	C 	0.6635	0.88458	0.4881	-0.244
Mof_H 	H 	0.6721	0.9076	0.5007	0.104
Mof_C 	C 	0.6974	0.85759	0.5227	0.113
Mof_H 	H 	0.7274	0.8626	0.5591	-0.056
Mof_C 	C 	0.6878	0.82269	0.50467	-0.18
Mof_C 	C 	0.6456	0.8162	0.4496	0.104
Mof_H 	H 	0.6405	0.7934	0.4356	-0.059
Mof_C 	C 	0.7171	0.79427	0.54489	0.124
Mof_C 	C 	0.9323	0.7356	0.7761	0.201
Mof_C 	C 	0.8918	0.7106	0.7392	-0.247
Mof_H 	H 	0.8963	0.687	0.7496	0.105
Mof_C 	C 	0.8449	0.72036	0.6873	0.108
Mof_H 	H 	0.8184	0.7032	0.6629	-0.062
Mof_C 	C 	0.8365	0.7554	0.67065	-0.188
Mof_C 	C 	0.8773	0.78018	0.7084	0.098
Mof_H 	H 	0.8726	0.8038	0.6984	-0.063
Mof_C 	C 	0.9248	0.7704	0.7604	-0.231
Mof_H 	H 	0.9517	0.7874	0.7849	0.08
Mof_C 	C 	0.7818	0.76583	0.61771	0.122
Mof_N 	N 	0.3025	0.5359	0.4831	-0.341
Mof_N 	N 	0.5655	0.9184	0.2209	-0.319
Mof_H 	H 	0.5501	0.9247	0.1861	0.127
Mof_H 	H 	0.5409	0.9229	0.2422	0.124
Mof_Cu	Cu	0.53921	0.37256	0.33152	0.765
Mof_Cu	Cu	0.09375	0.24542	0.50012	0.807
Mof_Cu	Cu	0.7955	0.28197	0.38224	0.828
Mof_Cu	Cu	0.00675	0.17124	0.43212	0.806
Mof_Cu	Cu	0.31646	0.29305	0.38293	0.831
Mof_Cu	Cu	0.55204	0.52606	0.36547	0.826
Mof_Cu	Cu	0.34942	0.33096	0.59197	0.813
Mof_Cu	Cu	0.60917	0.40592	0.24664	0.779
Mof_Br	Br	0.13085	0.17906	0.51091	-0.751
Mof_N 	N 	0.44814	0.35234	0.32977	-0.277
Mof_N 	N 	0.35925	0.32495	0.34647	-0.278
Mof_N 	N 	0.38599	0.36978	0.30145	-0.271
Mof_N 	N 	0.6462	0.22804	0.4623	-0.322
Mof_H 	H 	0.6851	0.235	0.4872	0.113
Mof_H 	H 	0.6412	0.2064	0.4521	0.134
Mof_N 	N 	0.09179	0.12856	0.39273	-0.256
Mof_N 	N 	0.05861	0.07286	0.38954	-0.288
Mof_N 	N 	0.03131	0.1268	0.40792	-0.247
Mof_N 	N 	0.3655	0.0609	0.351	-0.322
Mof_H 	H 	0.3894	0.0431	0.3684	0.129
Mof_H 	H 	0.3819	0.0739	0.3303	0.128
Mof_H 	H 	0.7676	0.049	0.4855	0.14
Mof_H 	H 	0.8041	0.0144	0.4916	0.137
Mof_N 	N 	0.61444	0.33883	0.33578	-0.27
Mof_N 	N 	0.59392	0.31011	0.30005	-0.272
Mof_N 	N 	0.70664	0.30277	0.35181	-0.29
Mof_N 	N 	0.8527	0.42358	0.5388	-0.325
Mof_H 	H 	0.8564	0.4455	0.5323	0.129
Mof_H 	H 	0.8746	0.4151	0.5718	0.134
Mof_N 	N 	0.6321	0.16832	0.1779	-0.331
Mof_H 	H 	0.6635	0.1646	0.1623	0.139
Mof_H 	H 	0.5966	0.1543	0.1717	0.134
Mof_N 	N 	0.59215	0.43668	0.29825	-0.267
Mof_N 	N 	0.55073	0.42305	0.32753	-0.281
Mof_N 	N 	0.7385	0.55205	0.1905	-0.33
Mof_H 	H 	0.7208	0.5716	0.1748	0.146
Mof_H 	H 	0.7776	0.5444	0.1878	0.137
Mof_N 	N 	0.55385	0.48094	0.33713	-0.288
Mof_N 	N 	0.3266	0.41788	0.4537	-0.334
Mof_H 	H 	0.3352	0.4011	0.4779	0.154
Mof_H 	H 	0.2874	0.4294	0.4454	0.14
Mof_N 	N 	0.99575	0.24535	0.45433	-0.251
Mof_N 	N 	0.96008	0.21491	0.42957	-0.253
Mof_N 	N 	0.88158	0.25841	0.41237	-0.287
Mof_N 	N 	0.0087	0.41234	0.5113	-0.348
Mof_H 	H 	0.04	0.417	0.5436	0.141
Mof_H 	H 	0.9874	0.4291	0.4893	0.146
Mof_N 	N 	0.6763	0.12413	0.3046	-0.328
Mof_H 	H 	0.6371	0.1249	0.3115	0.132
Mof_H 	H 	0.6832	0.1078	0.2834	0.134
Mof_N 	N 	0.18263	0.26478	0.5467	-0.248
Mof_N 	N 	0.27996	0.29586	0.58833	-0.285
Mof_N 	N 	0.22413	0.24657	0.5938	-0.245
Mof_N 	N 	0.0777	0.40528	0.4005	-0.322
Mof_H 	H 	0.0827	0.4265	0.413	0.128
Mof_H 	H 	0.0488	0.4008	0.3672	0.13
Mof_N 	N 	0.4815	0.2261	0.8287	-0.316
Mof_H 	H 	0.5066	0.242	0.8509	0.116
Mof_H 	H 	0.4865	0.2044	0.8388	0.135
Mof_C 	C 	0.5912	0.2518	0.4387	0.194
Mof_C 	C 	0.5986	0.28637	0.4547	-0.233
Mof_H 	H 	0.6401	0.2938	0.4826	0.094
Mof_C 	C 	0.5451	0.31054	0.43	0.076
Mof_H 	H 	0.5511	0.3339	0.4412	-0.04
Mof_C 	C 	0.4829	0.29986	0.38869	-0.192
Mof_C 	C 	0.4748	0.26493	0.3739	0.053
Mof_H 	H 	0.4325	0.2572	0.3474	-0.033
Mof_C 	C 	0.5286	0.24114	0.398	-0.229
Mof_H 	H 	0.5228	0.2177	0.3867	0.095
Mof_C 	C 	0.43	0.32584	0.35617	0.108
Mof_C 	C 	0.1563	0.3889	0.3004	-0.23
Mof_H 	H 	0.1285	0.3925	0.3229	0.098
Mof_C 	C 	0.1322	0.4006	0.2434	0.199
Mof_C 	C 	0.1707	0.3935	0.2116	-0.253
Mof_H 	H 	0.1545	0.4005	0.174	0.1
Mof_C 	C 	0.2349	0.37588	0.233	0.09
Mof_H 	H 	0.2609	0.3709	0.2095	-0.055
Mof_C 	C 	0.2607	0.36566	0.28899	-0.179
Mof_C 	C 	0.2207	0.37218	0.3222	0.101
Mof_H 	H 	0.2371	0.3653	0.3599	-0.025
Mof_C 	C 	0.3336	0.35271	0.31167	0.136
Mof_C 	C 	0.8526	0.0502	0.464	0.24
Mof_C 	C 	0.8512	0.0857	0.4487	-0.269
Mof_H 	H 	0.8145	0.1	0.4508	0.116
Mof_C 	C 	0.9032	0.09976	0.4307	0.137
Mof_H 	H 	0.9023	0.1236	0.4222	-0.064
Mof_C 	C 	0.9568	0.07886	0.4251	-0.191
Mof_C 	C 	0.9588	0.04391	0.4414	0.151
Mof_H 	H 	0.9953	0.0295	0.4393	-0.079
Mof_C 	C 	0.9076	0.03026	0.4606	-0.28
Mof_H 	H 	0.9105	0.0068	0.4716	0.116
Mof_C 	C 	0.0132	0.09315	0.40628	0.131
Mof_C 	C 	0.2727	0.04794	0.3893	-0.236
Mof_H 	H 	0.2974	0.028	0.4066	0.093
Mof_C 	C 	0.2993	0.06879	0.3562	0.203
Mof_C 	C 	0.2604	0.09749	0.3286	-0.236
Mof_H 	H 	0.2767	0.111	0.3047	0.095
Mof_C 	C 	0.1976	0.10603	0.3366	0.1
Mof_H 	H 	0.1725	0.1257	0.3187	-0.049
Mof_C 	C 	0.1711	0.086	0.3707	-0.186
Mof_C 	C 	0.2097	0.05661	0.3968	0.1
Mof_H 	H 	0.1927	0.0426	0.4197	-0.058
Mof_C 	C 	0.1069	0.09581	0.38284	0.121
Mof_C 	C 	0.811	0.40163	0.4956	0.205
Mof_C 	C 	0.7754	0.4145	0.4425	-0.249
Mof_H 	H 	0.7799	0.4381	0.4347	0.097
Mof_C 	C 	0.7328	0.39261	0.4006	0.114
Mof_H 	H 	0.7085	0.4018	0.365	-0.06
Mof_C 	C 	0.7258	0.35753	0.4107	-0.188
Mof_C 	C 	0.7614	0.34488	0.4644	0.099
Mof_H 	H 	0.7568	0.3213	0.4724	-0.046
Mof_C 	C 	0.8035	0.36643	0.5064	-0.238
Mof_H 	H 	0.8271	0.3573	0.5421	0.096
Mof_C 	C 	0.6821	0.33363	0.36608	0.128
Mof_C 	C 	0.6955	0.21966	0.2234	-0.249
Mof_H 	H 	0.7309	0.215	0.2083	0.101
Mof_C 	C 	0.7004	0.2494	0.2561	0.089
Mof_H 	H 	0.7385	0.2647	0.2621	-0.052
Mof_C 	C 	0.6487	0.25648	0.27997	-0.181
Mof_C 	C 	0.5935	0.23269	0.27191	0.09
Mof_H 	H 	0.5595	0.2367	0.2888	-0.035
Mof_C 	C 	0.5888	0.20326	0.239	-0.233
Mof_H 	H 	0.5517	0.1875	0.2342	0.093
Mof_C 	C 	0.6386	0.19677	0.2129	0.211
Mof_C 	C 	0.6495	0.28922	0.31076	0.131
Mof_C 	C 	0.7329	0.50171	0.2479	-0.236
Mof_H 	H 	0.7762	0.4938	0.2466	0.098
Mof_C 	C 	0.7037	0.53283	0.2203	0.213
Mof_C 	C 	0.6413	0.5449	0.2249	-0.247
Mof_H 	H 	0.6222	0.566	0.2079	0.094
Mof_C 	C 	0.6061	0.52589	0.2545	0.091
Mof_H 	H 	0.564	0.5344	0.2575	-0.07
Mof_C 	C 	0.6338	0.49407	0.27977	-0.18
Mof_C 	C 	0.698	0.48267	0.277	0.095
Mof_H 	H 	0.718	0.4619	0.295	-0.04
Mof_C 	C 	0.5934	0.4712	0.30507	0.121
Mof_C 	C 	0.3644	0.45402	0.3902	-0.241
Mof_H 	H 	0.3222	0.4666	0.3802	0.102
Mof_C 	C 	0.3754	0.42631	0.4283	0.212
Mof_C 	C 	0.4383	0.40799	0.4413	-0.231
Mof_H 	H 	0.4463	0.3891	0.4662	0.098
Mof_C 	C 	0.4895	0.41675	0.41847	0.091
Mof_H 	H 	0.5318	0.4041	0.4286	-0.043
Mof_C 	C 	0.4784	0.44465	0.38013	-0.191
Mof_C 	C 	0.4157	0.46299	0.3672	0.077
Mof_H 	H 	0.4076	0.4819	0.3423	-0.03
Mof_C 	C 	0.5281	0.45012	0.34981	0.111
Mof_C 	C 	0.9926	0.37783	0.495	0.246
Mof_C 	C 	0.9421	0.3694	0.4429	-0.255
Mof_H 	H 	0.9182	0.3873	0.4188	0.106
Mof_C 	C 	0.9271	0.33501	0.4265	0.123
Mof_H 	H 	0.893	0.3301	0.3916	-0.068
Mof_C 	C 	0.9623	0.30735	0.46115	-0.187
Mof_C 	C 	0.012	0.31605	0.5132	0.122
Mof_H 	H 	0.0362	0.2982	0.5372	-0.068
Mof_C 	C 	0.0263	0.35037	0.5299	-0.271
Mof_H 	H 	0.0592	0.3553	0.5653	0.109
Mof_C 	C 	0.9475	0.27075	0.44343	0.136
Mof_C 	C 	0.7282	0.14914	0.3276	0.215
Mof_C 	C 	0.792	0.14858	0.3166	-0.243
Mof_H 	H 	0.799	0.1315	0.2925	0.099
Mof_C 	C 	0.8447	0.17266	0.3406	0.112
Mof_H 	H 	0.887	0.1715	0.333	-0.059
Mof_C 	C 	0.8356	0.19891	0.37614	-0.189
Mof_C 	C 	0.7706	0.19987	0.3857	0.109
Mof_H 	H 	0.7626	0.2173	0.4088	-0.061
Mof_C 	C 	0.7186	0.17551	0.3616	-0.242
Mof_H 	H 	0.6758	0.1769	0.3685	0.099
Mof_C 	C 	0.8924	0.22383	0.40484	0.127
Mof_C 	C 	0.1104	0.34379	0.4148	-0.236
Mof_H 	H 	0.0821	0.3392	0.3777	0.097
Mof_C 	C 	0.117	0.37788	0.4347	0.209
Mof_C 	C 	0.1635	0.38458	0.4881	-0.243
Mof_H 	H 	0.1721	0.4076	0.5007	0.103
Mof_C 	C 	0.1974	0.35759	0.5227	0.111
Mof_H 	H 	0.2274	0.3626	0.5591	-0.055
Mof_C 	C 	0.1878	0.32269	0.50467	-0.18
Mof_C 	C 	0.1456	0.3162	0.4496	0.102
Mof_H 	H 	0.1405	0.2934	0.4356	-0.059
Mof_C 	C 	0.2171	0.29427	0.54489	0.124
Mof_C 	C 	0.4323	0.2356	0.7761	0.2
Mof_C 	C 	0.3918	0.2106	0.7392	-0.248
Mof_H 	H 	0.3963	0.187	0.7496	0.105
Mof_C 	C 	0.3449	0.22036	0.6873	0.108
Mof_H 	H 	0.3184	0.2032	0.6629	-0.062
Mof_C 	C 	0.3365	0.2554	0.67065	-0.188
Mof_C 	C 	0.3773	0.28018	0.7084	0.097
Mof_H 	H 	0.3726	0.3038	0.6984	-0.064
Mof_C 	C 	0.4248	0.2704	0.7604	-0.232
Mof_H 	H 	0.4517	0.2874	0.7849	0.077
Mof_C 	C 	0.2818	0.26583	0.61771	0.122
Mof_N 	N 	0.8025	0.0359	0.4831	-0.34
Mof_N 	N 	0.0655	0.4184	0.2209	-0.318
Mof_H 	H 	0.0501	0.4247	0.1861	0.124
Mof_H 	H 	0.0409	0.4229	0.2422	0.12
Mof_Cu	Cu	4.74195e-33	0.19123	0.75	0.769
Mof_Cu	Cu	0.5	0.69123	0.75	0.773
Mof_Cu	Cu	1.58065e-33	0.80877	0.25	0.769
Mof_Cu	Cu	0.5	0.30877	0.25	0.773
_end
