data_functionalizedCrystal
_audit_creation_method	'EQeq! by Chris Wilmer'
_symmetry_space_group_name_H-M	'P1'
_symmetry_Int_Tables_number	1
_symmetry_cell_setting	triclinic
loop_
_symmetry_equiv_pos_as_xyz
  x,y,z
_cell_length_a	9.8459
_cell_length_b	11.2911
_cell_length_c	14.825
_cell_angle_alpha	90.8266
_cell_angle_beta	90
_cell_angle_gamma	90
loop_
_atom_site_label
_atom_site_type_symbol
_atom_site_fract_x
_atom_site_fract_y
_atom_site_fract_z
_atom_site_charge
Mof_Fe	Fe	0.91876	0.75508	0.1335	1.016
Mof_Fe	Fe	0.89216	0.26222	0.69005	0.956
Mof_Fe	Fe	0.41876	0.74492	0.3665	0.93
Mof_Fe	Fe	0.39216	0.23778	0.80995	0.915
Mof_Fe	Fe	0.08124	0.24492	0.8665	0.826
Mof_Fe	Fe	0.10784	0.73778	0.30995	0.889
Mof_Fe	Fe	0.58124	0.25508	0.6335	0.911
Mof_Fe	Fe	0.60784	0.76222	0.19005	0.929
Mof_Fe	Fe	-0	0.5	-0	0.753
Mof_Fe	Fe	0.5	0	0.5	0.879
Mof_Fe	Fe	-0	0	-0	0.685
Mof_Fe	Fe	0.5	0.5	0.5	0.949
Mof_H 	H 	0.754	0.8691	0.3641	-0.081
Mof_H 	H 	0.03	0.4694	0.2644	-0.113
Mof_H 	H 	0.613	0.5519	0.0459	-0.104
Mof_H 	H 	0.207	0.9797	0.2257	-0.1
Mof_H 	H 	0.154	0.6897	0.9317	-0.119
Mof_H 	H 	0.703	0.988	0.007	-0.089
Mof_H 	H 	0.254	0.6309	0.1359	-0.109
Mof_H 	H 	0.53	0.0306	0.2356	-0.189
Mof_H 	H 	0.113	0.9481	0.4541	-0.087
Mof_H 	H 	0.707	0.5203	0.2743	-0.079
Mof_H 	H 	0.654	0.8103	0.5683	-0.083
Mof_H 	H 	0.203	0.512	0.493	-0.104
Mof_H 	H 	0.246	0.1309	0.6359	-0.109
Mof_H 	H 	0.97	0.5306	0.7356	-0.065
Mof_H 	H 	0.387	0.4481	0.9541	-0.056
Mof_H 	H 	0.793	0.0203	0.7743	-0.061
Mof_H 	H 	0.846	0.3103	0.0683	-0.046
Mof_H 	H 	0.297	0.012	0.993	-0.072
Mof_H 	H 	0.746	0.3691	0.8641	-0.075
Mof_H 	H 	0.47	0.9694	0.7644	0.009
Mof_H 	H 	0.887	0.0519	0.5459	-0.078
Mof_H 	H 	0.293	0.4797	0.7257	-0.094
Mof_H 	H 	0.346	0.1897	0.4317	-0.112
Mof_H 	H 	0.797	0.488	0.507	-0.08
Mof_C 	C 	0.8263	0.83307	0.32987	0.467
Mof_C 	C 	0.0169	0.51315	0.21015	0.49
Mof_C 	C 	0.7084	0.57151	0.05321	0.473
Mof_C 	C 	0.1342	0.95267	0.18387	0.528
Mof_C 	C 	0.105	0.74305	0.96895	0.586
Mof_C 	C 	0.7174	0.92994	0.05144	0.469
Mof_C 	C 	0.3263	0.66693	0.17013	0.47
Mof_C 	C 	0.5169	0.98685	0.28985	0.665
Mof_C 	C 	0.2084	0.92849	0.44679	0.462
Mof_C 	C 	0.6342	0.54733	0.31613	0.456
Mof_C 	C 	0.605	0.75695	0.53105	0.488
Mof_C 	C 	0.2174	0.57006	0.44856	0.487
Mof_C 	C 	0.1737	0.16693	0.67013	0.47
Mof_C 	C 	0.9831	0.48685	0.78985	0.449
Mof_C 	C 	0.2916	0.42849	0.94679	0.44
Mof_C 	C 	0.8658	0.04733	0.81613	0.353
Mof_C 	C 	0.895	0.25695	0.03105	0.336
Mof_C 	C 	0.2826	0.07006	0.94856	0.462
Mof_C 	C 	0.6737	0.33307	0.82987	0.464
Mof_C 	C 	0.4831	0.01315	0.71015	0.288
Mof_C 	C 	0.7916	0.07151	0.55321	0.47
Mof_C 	C 	0.3658	0.45267	0.68387	0.461
Mof_C 	C 	0.395	0.24305	0.46895	0.499
Mof_C 	C 	0.7826	0.42994	0.55144	0.479
Mof_O 	O 	0.79913	0.81143	0.24685	-0.452
Mof_O 	O 	0.93677	0.81371	0.36791	-0.336
Mof_O 	O 	0.00235	0.62436	0.21803	-0.501
Mof_O 	O 	0.00693	0.45486	0.13886	-0.406
Mof_O 	O 	0.74017	0.65029	0.11175	-0.464
Mof_O 	O 	0.78894	0.51567	0.00427	-0.38
Mof_O 	O 	0.08484	0.84963	0.19439	-0.5
Mof_O 	O 	0.10744	0.02101	0.12191	-0.446
Mof_O 	O 	0.02643	0.68683	0.02317	-0.55
Mof_O 	O 	0.11499	0.85095	0.96285	-0.356
Mof_O 	O 	0.84097	0.89685	0.06115	-0.428
Mof_O 	O 	0.61818	0.89462	0.09492	-0.384
Mof_O 	O 	0.29913	0.68857	0.25315	-0.461
Mof_O 	O 	0.43677	0.68629	0.13209	-0.399
Mof_O 	O 	0.50235	0.87564	0.28197	-0.509
Mof_O 	O 	0.50693	0.04514	0.36114	-0.458
Mof_O 	O 	0.24017	0.84971	0.38825	-0.458
Mof_O 	O 	0.28894	0.98433	0.49573	-0.348
Mof_O 	O 	0.58484	0.65037	0.30561	-0.459
Mof_O 	O 	0.60744	0.47899	0.37809	-0.377
Mof_O 	O 	0.52643	0.81317	0.47683	-0.448
Mof_O 	O 	0.61499	0.64905	0.53715	-0.389
Mof_O 	O 	0.34097	0.60315	0.43885	-0.471
Mof_O 	O 	0.11818	0.60538	0.40508	-0.404
Mof_O 	O 	0.20087	0.18857	0.75315	-0.471
Mof_O 	O 	0.06323	0.18629	0.63209	-0.434
Mof_O 	O 	0.99765	0.37564	0.78197	-0.42
Mof_O 	O 	0.99307	0.54514	0.86114	-0.29
Mof_O 	O 	0.25983	0.34971	0.88825	-0.446
Mof_O 	O 	0.21106	0.48433	0.99573	-0.319
Mof_O 	O 	0.91516	0.15037	0.80561	-0.398
Mof_O 	O 	0.89256	0.97899	0.87809	-0.223
Mof_O 	O 	0.97357	0.31317	0.97683	-0.3
Mof_O 	O 	0.88501	0.14905	0.03715	-0.336
Mof_O 	O 	0.15903	0.10315	0.93885	-0.427
Mof_O 	O 	0.38182	0.10538	0.90508	-0.38
Mof_O 	O 	0.70087	0.31143	0.74685	-0.461
Mof_O 	O 	0.56323	0.31371	0.86791	-0.368
Mof_O 	O 	0.49765	0.12436	0.71803	-0.421
Mof_O 	O 	0.49307	0.95486	0.63886	-0.278
Mof_O 	O 	0.75983	0.15029	0.61175	-0.461
Mof_O 	O 	0.71106	0.01567	0.50427	-0.392
Mof_O 	O 	0.41516	0.34963	0.69439	-0.462
Mof_O 	O 	0.39256	0.52101	0.62191	-0.382
Mof_O 	O 	0.47357	0.18683	0.52317	-0.464
Mof_O 	O 	0.38501	0.35095	0.46285	-0.404
Mof_O 	O 	0.65903	0.39685	0.56115	-0.462
Mof_O 	O 	0.88182	0.39462	0.59492	-0.371
_end
