data_functionalizedCrystal
_audit_creation_method	'EQeq! by Chris Wilmer'
_symmetry_space_group_name_H-M	'P1'
_symmetry_Int_Tables_number	1
_symmetry_cell_setting	triclinic
loop_
_symmetry_equiv_pos_as_xyz
  x,y,z
_cell_length_a	20.435
_cell_length_b	20.435
_cell_length_c	20.435
_cell_angle_alpha	90
_cell_angle_beta	90
_cell_angle_gamma	90
loop_
_atom_site_label
_atom_site_type_symbol
_atom_site_fract_x
_atom_site_fract_y
_atom_site_fract_z
_atom_site_charge
Mof_Nd	Nd	0.25768	0.35613	0.01998	1.837
Mof_O 	O 	0.3555	0.3028	0.0646	-0.549
Mof_O 	O 	0.4231	0.2181	0.0801	-0.516
Mof_O 	O 	0.1233	0.2114	0.9148	-0.527
Mof_O 	O 	0.168	0.2971	0.9662	-0.539
Mof_N 	N 	0.2694	0.2308	0.0045	-0.207
Mof_C 	C 	0.3706	0.2426	0.0599	0.385
Mof_C 	C 	0.3221	0.1987	0.027	-0.097
Mof_C 	C 	0.3288	0.1323	0.0228	-0.009
Mof_C 	C 	0.2801	0.0959	0.9926	-0.067
Mof_C 	C 	0.2256	0.1287	0.9686	-0.014
Mof_C 	C 	0.2216	0.1959	0.9747	-0.098
Mof_C 	C 	0.1663	0.2369	0.9498	0.391
Mof_Nd	Nd	0.24232	0.64387	0.51998	1.842
Mof_O 	O 	0.1445	0.6972	0.5646	-0.548
Mof_O 	O 	0.0769	0.7819	0.5801	-0.514
Mof_O 	O 	0.3767	0.7886	0.4148	-0.526
Mof_O 	O 	0.332	0.7029	0.4662	-0.539
Mof_N 	N 	0.2306	0.7692	0.5045	-0.204
Mof_C 	C 	0.1294	0.7574	0.5599	0.385
Mof_C 	C 	0.1779	0.8013	0.527	-0.097
Mof_C 	C 	0.1712	0.8677	0.5228	-0.005
Mof_C 	C 	0.2199	0.9041	0.4926	-0.069
Mof_C 	C 	0.2744	0.8713	0.4686	-0.013
Mof_C 	C 	0.2784	0.8041	0.4747	-0.101
Mof_C 	C 	0.3337	0.7631	0.4498	0.391
Mof_Nd	Nd	0.74232	0.85613	0.48002	1.841
Mof_O 	O 	0.6445	0.8028	0.4354	-0.548
Mof_O 	O 	0.5769	0.7181	0.4199	-0.515
Mof_O 	O 	0.8767	0.7114	0.5852	-0.526
Mof_O 	O 	0.832	0.7971	0.5338	-0.539
Mof_N 	N 	0.7306	0.7308	0.4955	-0.204
Mof_C 	C 	0.6294	0.7426	0.4401	0.386
Mof_C 	C 	0.6779	0.6987	0.473	-0.097
Mof_C 	C 	0.6712	0.6323	0.4772	-0.005
Mof_C 	C 	0.7199	0.5959	0.5074	-0.07
Mof_C 	C 	0.7744	0.6287	0.5314	-0.013
Mof_C 	C 	0.7784	0.6959	0.5253	-0.101
Mof_C 	C 	0.8337	0.7369	0.5502	0.391
Mof_Nd	Nd	0.75768	0.14387	0.98002	1.844
Mof_O 	O 	0.8555	0.1972	0.9354	-0.548
Mof_O 	O 	0.9231	0.2819	0.9199	-0.516
Mof_O 	O 	0.6233	0.2886	0.0852	-0.526
Mof_O 	O 	0.668	0.2029	0.0338	-0.539
Mof_N 	N 	0.7694	0.2692	0.9955	-0.204
Mof_C 	C 	0.8706	0.2574	0.9401	0.386
Mof_C 	C 	0.8221	0.3013	0.973	-0.097
Mof_C 	C 	0.8288	0.3677	0.9772	-0.006
Mof_C 	C 	0.7801	0.4041	0.0074	-0.069
Mof_C 	C 	0.7256	0.3713	0.0314	-0.013
Mof_C 	C 	0.7216	0.3041	0.0253	-0.1
Mof_C 	C 	0.6663	0.2631	0.0502	0.391
Mof_Nd	Nd	0.01998	0.25768	0.35613	1.838
Mof_O 	O 	0.0646	0.3555	0.3028	-0.548
Mof_O 	O 	0.0801	0.4231	0.2181	-0.515
Mof_O 	O 	0.9148	0.1233	0.2114	-0.526
Mof_O 	O 	0.9662	0.168	0.2971	-0.538
Mof_N 	N 	0.0045	0.2694	0.2308	-0.206
Mof_C 	C 	0.0599	0.3706	0.2426	0.385
Mof_C 	C 	0.027	0.3221	0.1987	-0.097
Mof_C 	C 	0.0228	0.3288	0.1323	-0.009
Mof_C 	C 	0.9926	0.2801	0.0959	-0.067
Mof_C 	C 	0.9686	0.2256	0.1287	-0.014
Mof_C 	C 	0.9747	0.2216	0.1959	-0.098
Mof_C 	C 	0.9498	0.1663	0.2369	0.391
Mof_Nd	Nd	0.51998	0.24232	0.64387	1.842
Mof_O 	O 	0.5646	0.1445	0.6972	-0.548
Mof_O 	O 	0.5801	0.0769	0.7819	-0.514
Mof_O 	O 	0.4148	0.3767	0.7886	-0.526
Mof_O 	O 	0.4662	0.332	0.7029	-0.539
Mof_N 	N 	0.5045	0.2306	0.7692	-0.204
Mof_C 	C 	0.5599	0.1294	0.7574	0.385
Mof_C 	C 	0.527	0.1779	0.8013	-0.097
Mof_C 	C 	0.5228	0.1712	0.8677	-0.005
Mof_C 	C 	0.4926	0.2199	0.9041	-0.069
Mof_C 	C 	0.4686	0.2744	0.8713	-0.013
Mof_C 	C 	0.4747	0.2784	0.8041	-0.101
Mof_C 	C 	0.4498	0.3337	0.7631	0.391
Mof_Nd	Nd	0.48002	0.74232	0.85613	1.841
Mof_O 	O 	0.4354	0.6445	0.8028	-0.548
Mof_O 	O 	0.4199	0.5769	0.7181	-0.515
Mof_O 	O 	0.5852	0.8767	0.7114	-0.526
Mof_O 	O 	0.5338	0.832	0.7971	-0.539
Mof_N 	N 	0.4955	0.7306	0.7308	-0.204
Mof_C 	C 	0.4401	0.6294	0.7426	0.386
Mof_C 	C 	0.473	0.6779	0.6987	-0.097
Mof_C 	C 	0.4772	0.6712	0.6323	-0.005
Mof_C 	C 	0.5074	0.7199	0.5959	-0.07
Mof_C 	C 	0.5314	0.7744	0.6287	-0.013
Mof_C 	C 	0.5253	0.7784	0.6959	-0.101
Mof_C 	C 	0.5502	0.8337	0.7369	0.391
Mof_Nd	Nd	0.98002	0.75768	0.14387	1.844
Mof_O 	O 	0.9354	0.8555	0.1972	-0.548
Mof_O 	O 	0.9199	0.9231	0.2819	-0.516
Mof_O 	O 	0.0852	0.6233	0.2886	-0.526
Mof_O 	O 	0.0338	0.668	0.2029	-0.539
Mof_N 	N 	0.9955	0.7694	0.2692	-0.204
Mof_C 	C 	0.9401	0.8706	0.2574	0.386
Mof_C 	C 	0.973	0.8221	0.3013	-0.097
Mof_C 	C 	0.9772	0.8288	0.3677	-0.006
Mof_C 	C 	0.0074	0.7801	0.4041	-0.069
Mof_C 	C 	0.0314	0.7256	0.3713	-0.013
Mof_C 	C 	0.0253	0.7216	0.3041	-0.1
Mof_C 	C 	0.0502	0.6663	0.2631	0.391
Mof_Nd	Nd	0.35613	0.01998	0.25768	1.838
Mof_O 	O 	0.3028	0.0646	0.3555	-0.548
Mof_O 	O 	0.2181	0.0801	0.4231	-0.515
Mof_O 	O 	0.2114	0.9148	0.1233	-0.526
Mof_O 	O 	0.2971	0.9662	0.168	-0.538
Mof_N 	N 	0.2308	0.0045	0.2694	-0.206
Mof_C 	C 	0.2426	0.0599	0.3706	0.385
Mof_C 	C 	0.1987	0.027	0.3221	-0.097
Mof_C 	C 	0.1323	0.0228	0.3288	-0.009
Mof_C 	C 	0.0959	0.9926	0.2801	-0.067
Mof_C 	C 	0.1287	0.9686	0.2256	-0.014
Mof_C 	C 	0.1959	0.9747	0.2216	-0.098
Mof_C 	C 	0.2369	0.9498	0.1663	0.391
Mof_Nd	Nd	0.64387	0.51998	0.24232	1.842
Mof_O 	O 	0.6972	0.5646	0.1445	-0.548
Mof_O 	O 	0.7819	0.5801	0.0769	-0.514
Mof_O 	O 	0.7886	0.4148	0.3767	-0.526
Mof_O 	O 	0.7029	0.4662	0.332	-0.539
Mof_N 	N 	0.7692	0.5045	0.2306	-0.204
Mof_C 	C 	0.7574	0.5599	0.1294	0.385
Mof_C 	C 	0.8013	0.527	0.1779	-0.097
Mof_C 	C 	0.8677	0.5228	0.1712	-0.005
Mof_C 	C 	0.9041	0.4926	0.2199	-0.069
Mof_C 	C 	0.8713	0.4686	0.2744	-0.013
Mof_C 	C 	0.8041	0.4747	0.2784	-0.101
Mof_C 	C 	0.7631	0.4498	0.3337	0.391
Mof_Nd	Nd	0.85613	0.48002	0.74232	1.841
Mof_O 	O 	0.8028	0.4354	0.6445	-0.548
Mof_O 	O 	0.7181	0.4199	0.5769	-0.515
Mof_O 	O 	0.7114	0.5852	0.8767	-0.526
Mof_O 	O 	0.7971	0.5338	0.832	-0.539
Mof_N 	N 	0.7308	0.4955	0.7306	-0.204
Mof_C 	C 	0.7426	0.4401	0.6294	0.386
Mof_C 	C 	0.6987	0.473	0.6779	-0.097
Mof_C 	C 	0.6323	0.4772	0.6712	-0.005
Mof_C 	C 	0.5959	0.5074	0.7199	-0.07
Mof_C 	C 	0.6287	0.5314	0.7744	-0.013
Mof_C 	C 	0.6959	0.5253	0.7784	-0.101
Mof_C 	C 	0.7369	0.5502	0.8337	0.391
Mof_Nd	Nd	0.14387	0.98002	0.75768	1.844
Mof_O 	O 	0.1972	0.9354	0.8555	-0.548
Mof_O 	O 	0.2819	0.9199	0.9231	-0.516
Mof_O 	O 	0.2886	0.0852	0.6233	-0.526
Mof_O 	O 	0.2029	0.0338	0.668	-0.539
Mof_N 	N 	0.2692	0.9955	0.7694	-0.204
Mof_C 	C 	0.2574	0.9401	0.8706	0.386
Mof_C 	C 	0.3013	0.973	0.8221	-0.097
Mof_C 	C 	0.3677	0.9772	0.8288	-0.006
Mof_C 	C 	0.4041	0.0074	0.7801	-0.069
Mof_C 	C 	0.3713	0.0314	0.7256	-0.013
Mof_C 	C 	0.3041	0.0253	0.7216	-0.1
Mof_C 	C 	0.2631	0.0502	0.6663	0.391
Mof_Nd	Nd	0.74232	0.64387	0.98002	1.838
Mof_O 	O 	0.6445	0.6972	0.9354	-0.548
Mof_O 	O 	0.5769	0.7819	0.9199	-0.515
Mof_O 	O 	0.8767	0.7886	0.0852	-0.526
Mof_O 	O 	0.832	0.7029	0.0338	-0.538
Mof_N 	N 	0.7306	0.7692	0.9955	-0.206
Mof_C 	C 	0.6294	0.7574	0.9401	0.385
Mof_C 	C 	0.6779	0.8013	0.973	-0.097
Mof_C 	C 	0.6712	0.8677	0.9772	-0.009
Mof_C 	C 	0.7199	0.9041	0.0074	-0.067
Mof_C 	C 	0.7744	0.8713	0.0314	-0.014
Mof_C 	C 	0.7784	0.8041	0.0253	-0.098
Mof_C 	C 	0.8337	0.7631	0.0502	0.391
Mof_Nd	Nd	0.75768	0.35613	0.48002	1.842
Mof_O 	O 	0.8555	0.3028	0.4354	-0.548
Mof_O 	O 	0.9231	0.2181	0.4199	-0.514
Mof_O 	O 	0.6233	0.2114	0.5852	-0.526
Mof_O 	O 	0.668	0.2971	0.5338	-0.539
Mof_N 	N 	0.7694	0.2308	0.4955	-0.204
Mof_C 	C 	0.8706	0.2426	0.4401	0.385
Mof_C 	C 	0.8221	0.1987	0.473	-0.097
Mof_C 	C 	0.8288	0.1323	0.4772	-0.005
Mof_C 	C 	0.7801	0.0959	0.5074	-0.069
Mof_C 	C 	0.7256	0.1287	0.5314	-0.013
Mof_C 	C 	0.7216	0.1959	0.5253	-0.101
Mof_C 	C 	0.6663	0.2369	0.5502	0.391
Mof_Nd	Nd	0.25768	0.14387	0.51998	1.841
Mof_O 	O 	0.3555	0.1972	0.5646	-0.548
Mof_O 	O 	0.4231	0.2819	0.5801	-0.515
Mof_O 	O 	0.1233	0.2886	0.4148	-0.526
Mof_O 	O 	0.168	0.2029	0.4662	-0.539
Mof_N 	N 	0.2694	0.2692	0.5045	-0.204
Mof_C 	C 	0.3706	0.2574	0.5599	0.386
Mof_C 	C 	0.3221	0.3013	0.527	-0.097
Mof_C 	C 	0.3288	0.3677	0.5228	-0.005
Mof_C 	C 	0.2801	0.4041	0.4926	-0.07
Mof_C 	C 	0.2256	0.3713	0.4686	-0.013
Mof_C 	C 	0.2216	0.3041	0.4747	-0.101
Mof_C 	C 	0.1663	0.2631	0.4498	0.391
Mof_Nd	Nd	0.24232	0.85613	0.01998	1.844
Mof_O 	O 	0.1445	0.8028	0.0646	-0.548
Mof_O 	O 	0.0769	0.7181	0.0801	-0.516
Mof_O 	O 	0.3767	0.7114	0.9148	-0.526
Mof_O 	O 	0.332	0.7971	0.9662	-0.539
Mof_N 	N 	0.2306	0.7308	0.0045	-0.204
Mof_C 	C 	0.1294	0.7426	0.0599	0.386
Mof_C 	C 	0.1779	0.6987	0.027	-0.097
Mof_C 	C 	0.1712	0.6323	0.0228	-0.006
Mof_C 	C 	0.2199	0.5959	0.9926	-0.069
Mof_C 	C 	0.2744	0.6287	0.9686	-0.013
Mof_C 	C 	0.2784	0.6959	0.9747	-0.1
Mof_C 	C 	0.3337	0.7369	0.9498	0.391
Mof_Nd	Nd	0.98002	0.74232	0.64387	1.838
Mof_O 	O 	0.9354	0.6445	0.6972	-0.548
Mof_O 	O 	0.9199	0.5769	0.7819	-0.515
Mof_O 	O 	0.0852	0.8767	0.7886	-0.526
Mof_O 	O 	0.0338	0.832	0.7029	-0.538
Mof_N 	N 	0.9955	0.7306	0.7692	-0.206
Mof_C 	C 	0.9401	0.6294	0.7574	0.385
Mof_C 	C 	0.973	0.6779	0.8013	-0.097
Mof_C 	C 	0.9772	0.6712	0.8677	-0.009
Mof_C 	C 	0.0074	0.7199	0.9041	-0.067
Mof_C 	C 	0.0314	0.7744	0.8713	-0.014
Mof_C 	C 	0.0253	0.7784	0.8041	-0.098
Mof_C 	C 	0.0502	0.8337	0.7631	0.391
Mof_Nd	Nd	0.48002	0.75768	0.35613	1.842
Mof_O 	O 	0.4354	0.8555	0.3028	-0.548
Mof_O 	O 	0.4199	0.9231	0.2181	-0.514
Mof_O 	O 	0.5852	0.6233	0.2114	-0.526
Mof_O 	O 	0.5338	0.668	0.2971	-0.539
Mof_N 	N 	0.4955	0.7694	0.2308	-0.204
Mof_C 	C 	0.4401	0.8706	0.2426	0.385
Mof_C 	C 	0.473	0.8221	0.1987	-0.097
Mof_C 	C 	0.4772	0.8288	0.1323	-0.005
Mof_C 	C 	0.5074	0.7801	0.0959	-0.069
Mof_C 	C 	0.5314	0.7256	0.1287	-0.013
Mof_C 	C 	0.5253	0.7216	0.1959	-0.101
Mof_C 	C 	0.5502	0.6663	0.2369	0.391
Mof_Nd	Nd	0.51998	0.25768	0.14387	1.841
Mof_O 	O 	0.5646	0.3555	0.1972	-0.548
Mof_O 	O 	0.5801	0.4231	0.2819	-0.515
Mof_O 	O 	0.4148	0.1233	0.2886	-0.526
Mof_O 	O 	0.4662	0.168	0.2029	-0.539
Mof_N 	N 	0.5045	0.2694	0.2692	-0.204
Mof_C 	C 	0.5599	0.3706	0.2574	0.386
Mof_C 	C 	0.527	0.3221	0.3013	-0.097
Mof_C 	C 	0.5228	0.3288	0.3677	-0.005
Mof_C 	C 	0.4926	0.2801	0.4041	-0.07
Mof_C 	C 	0.4686	0.2256	0.3713	-0.013
Mof_C 	C 	0.4747	0.2216	0.3041	-0.101
Mof_C 	C 	0.4498	0.1663	0.2631	0.391
Mof_Nd	Nd	0.01998	0.24232	0.85613	1.844
Mof_O 	O 	0.0646	0.1445	0.8028	-0.548
Mof_O 	O 	0.0801	0.0769	0.7181	-0.516
Mof_O 	O 	0.9148	0.3767	0.7114	-0.526
Mof_O 	O 	0.9662	0.332	0.7971	-0.539
Mof_N 	N 	0.0045	0.2306	0.7308	-0.204
Mof_C 	C 	0.0599	0.1294	0.7426	0.386
Mof_C 	C 	0.027	0.1779	0.6987	-0.097
Mof_C 	C 	0.0228	0.1712	0.6323	-0.006
Mof_C 	C 	0.9926	0.2199	0.5959	-0.069
Mof_C 	C 	0.9686	0.2744	0.6287	-0.013
Mof_C 	C 	0.9747	0.2784	0.6959	-0.1
Mof_C 	C 	0.9498	0.3337	0.7369	0.391
Mof_Nd	Nd	0.64387	0.98002	0.74232	1.838
Mof_O 	O 	0.6972	0.9354	0.6445	-0.548
Mof_O 	O 	0.7819	0.9199	0.5769	-0.515
Mof_O 	O 	0.7886	0.0852	0.8767	-0.526
Mof_O 	O 	0.7029	0.0338	0.832	-0.538
Mof_N 	N 	0.7692	0.9955	0.7306	-0.206
Mof_C 	C 	0.7574	0.9401	0.6294	0.385
Mof_C 	C 	0.8013	0.973	0.6779	-0.097
Mof_C 	C 	0.8677	0.9772	0.6712	-0.009
Mof_C 	C 	0.9041	0.0074	0.7199	-0.067
Mof_C 	C 	0.8713	0.0314	0.7744	-0.014
Mof_C 	C 	0.8041	0.0253	0.7784	-0.098
Mof_C 	C 	0.7631	0.0502	0.8337	0.391
Mof_Nd	Nd	0.35613	0.48002	0.75768	1.842
Mof_O 	O 	0.3028	0.4354	0.8555	-0.548
Mof_O 	O 	0.2181	0.4199	0.9231	-0.514
Mof_O 	O 	0.2114	0.5852	0.6233	-0.526
Mof_O 	O 	0.2971	0.5338	0.668	-0.539
Mof_N 	N 	0.2308	0.4955	0.7694	-0.204
Mof_C 	C 	0.2426	0.4401	0.8706	0.385
Mof_C 	C 	0.1987	0.473	0.8221	-0.097
Mof_C 	C 	0.1323	0.4772	0.8288	-0.005
Mof_C 	C 	0.0959	0.5074	0.7801	-0.069
Mof_C 	C 	0.1287	0.5314	0.7256	-0.013
Mof_C 	C 	0.1959	0.5253	0.7216	-0.101
Mof_C 	C 	0.2369	0.5502	0.6663	0.391
Mof_Nd	Nd	0.14387	0.51998	0.25768	1.841
Mof_O 	O 	0.1972	0.5646	0.3555	-0.548
Mof_O 	O 	0.2819	0.5801	0.4231	-0.515
Mof_O 	O 	0.2886	0.4148	0.1233	-0.526
Mof_O 	O 	0.2029	0.4662	0.168	-0.539
Mof_N 	N 	0.2692	0.5045	0.2694	-0.204
Mof_C 	C 	0.2574	0.5599	0.3706	0.386
Mof_C 	C 	0.3013	0.527	0.3221	-0.097
Mof_C 	C 	0.3677	0.5228	0.3288	-0.005
Mof_C 	C 	0.4041	0.4926	0.2801	-0.07
Mof_C 	C 	0.3713	0.4686	0.2256	-0.013
Mof_C 	C 	0.3041	0.4747	0.2216	-0.101
Mof_C 	C 	0.2631	0.4498	0.1663	0.391
Mof_Nd	Nd	0.85613	0.01998	0.24232	1.844
Mof_O 	O 	0.8028	0.0646	0.1445	-0.548
Mof_O 	O 	0.7181	0.0801	0.0769	-0.516
Mof_O 	O 	0.7114	0.9148	0.3767	-0.526
Mof_O 	O 	0.7971	0.9662	0.332	-0.539
Mof_N 	N 	0.7308	0.0045	0.2306	-0.204
Mof_C 	C 	0.7426	0.0599	0.1294	0.386
Mof_C 	C 	0.6987	0.027	0.1779	-0.097
Mof_C 	C 	0.6323	0.0228	0.1712	-0.006
Mof_C 	C 	0.5959	0.9926	0.2199	-0.069
Mof_C 	C 	0.6287	0.9686	0.2744	-0.013
Mof_C 	C 	0.6959	0.9747	0.2784	-0.1
Mof_C 	C 	0.7369	0.9498	0.3337	0.391
_end
