data_functionalizedCrystal
_audit_creation_method	'EQeq! by Chris Wilmer'
_symmetry_space_group_name_H-M	'P1'
_symmetry_Int_Tables_number	1
_symmetry_cell_setting	triclinic
loop_
_symmetry_equiv_pos_as_xyz
  x,y,z
_cell_length_a	18.8991
_cell_length_b	15.5229
_cell_length_c	9.0702
_cell_angle_alpha	90
_cell_angle_beta	90
_cell_angle_gamma	90
loop_
_atom_site_label
_atom_site_type_symbol
_atom_site_fract_x
_atom_site_fract_y
_atom_site_fract_z
_atom_site_charge
Mof_C 	C 	0.0138	0.1556	0.3566	0.246
Mof_C 	C 	1.52252e-33	0.1537	0.1871	0.264
Mof_C 	C 	0.8433	0.0131	0.5777	0.28
Mof_C 	C 	0.8453	0.9586	0.4336	0.272
Mof_C 	C 	0.8459	0.348	0.145	0.483
Mof_C 	C 	0.8841	0.4204	0.0673	-0.132
Mof_C 	C 	0.845	0.4857	0.0006	0.083
Mof_H 	H 	0.7958	0.4833	0.0031	0.016
Mof_C 	C 	0.878	0.5542	0.9304	-0.134
Mof_C 	C 	0.9517	0.5574	0.9318	-0.006
Mof_H 	H 	0.9744	0.6035	0.8865	0.058
Mof_C 	C 	0.993	0.4933	0.9997	0.05
Mof_C 	C 	0.9572	0.4253	0.0669	-0.017
Mof_H 	H 	0.9832	0.382	0.1127	0.061
Mof_C 	C 	0.8366	0.6265	0.8635	0.491
Mof_C 	C 	0.0712	0.4999	0.0035	-0.082
Mof_C 	C 	0.1049	0.5796	0.9885	0.067
Mof_H 	H 	0.0779	0.6291	0.9759	0.024
Mof_C 	C 	0.1789	0.5858	0.9921	-0.168
Mof_C 	C 	0.2193	0.5117	0.0101	0.112
Mof_H 	H 	0.2684	0.5153	0.0094	0.022
Mof_C 	C 	0.1874	0.4339	0.0287	-0.179
Mof_C 	C 	0.1136	0.4276	0.0222	0.063
Mof_H 	H 	0.0925	0.3738	0.0305	0.02
Mof_C 	C 	0.2307	0.354	0.057	0.506
Mof_C 	C 	0.2141	0.6694	0.962	0.483
Mof_Er	Er	0.1655	0.17774	0.20479	2.105
Mof_Er	Er	0.84693	0.15256	0.31714	2.088
Mof_O 	O 	0.077	0.1497	0.3953	-0.355
Mof_O 	O 	0.05	0.1778	0.1069	-0.411
Mof_O 	O 	0.9405	0.1272	0.1502	-0.374
Mof_O 	O 	0.9596	0.1624	0.4346	-0.37
Mof_O 	O 	0.8407	0.0926	0.5628	-0.364
Mof_O 	O 	0.84358	0.9722	0.6987	-0.413
Mof_O 	O 	0.855	0.0007	0.3177	-0.398
Mof_O 	O 	0.8388	0.8799	0.4472	-0.346
Mof_O 	O 	0.8817	0.2859	0.1949	-0.462
Mof_O 	O 	0.7801	0.3564	0.1574	-0.542
Mof_O 	O 	0.7712	0.6205	0.8596	-0.53
Mof_O 	O 	0.8717	0.6908	0.8161	-0.478
Mof_O 	O 	0.1768	0.7365	0.9721	-0.501
Mof_O 	O 	0.279	0.6697	0.9311	-0.492
Mof_O 	O 	0.2943	0.3642	0.0882	-0.497
Mof_O 	O 	0.1982	0.284	0.0518	-0.533
Mof_C 	C 	0.9862	0.8444	0.8566	0.298
Mof_C 	C 	1.2364e-33	0.8463	0.6871	0.245
Mof_C 	C 	0.1567	0.9869	0.0777	0.268
Mof_C 	C 	0.1547	0.0414	0.9336	0.28
Mof_C 	C 	0.1541	0.652	0.645	0.498
Mof_C 	C 	0.1159	0.5796	0.5673	-0.173
Mof_C 	C 	0.155	0.5143	0.5006	0.128
Mof_H 	H 	0.2042	0.5167	0.5031	0.004
Mof_C 	C 	0.122	0.4458	0.4304	-0.18
Mof_C 	C 	0.0483	0.4426	0.4318	0.05
Mof_H 	H 	0.0256	0.3965	0.3865	0.026
Mof_C 	C 	0.007	0.5067	0.4997	-0.051
Mof_C 	C 	0.0428	0.5747	0.5669	0.049
Mof_H 	H 	0.0168	0.618	0.6127	0.026
Mof_C 	C 	0.1634	0.3735	0.3635	0.505
Mof_C 	C 	0.9288	0.5001	0.5035	0.012
Mof_C 	C 	0.8951	0.4204	0.4885	0.011
Mof_H 	H 	0.9221	0.3709	0.4759	0.05
Mof_C 	C 	0.8211	0.4142	0.4921	-0.148
Mof_C 	C 	0.7807	0.4883	0.5101	0.098
Mof_H 	H 	0.7316	0.4847	0.5094	0.03
Mof_C 	C 	0.8126	0.5661	0.5287	-0.153
Mof_C 	C 	0.8864	0.5724	0.5222	0.015
Mof_H 	H 	0.9075	0.6262	0.5305	0.045
Mof_C 	C 	0.7693	0.646	0.557	0.498
Mof_C 	C 	0.7859	0.3306	0.462	0.475
Mof_Er	Er	0.8345	0.82226	0.70479	2.112
Mof_Er	Er	0.15307	0.84744	0.81714	2.092
Mof_O 	O 	0.923	0.8503	0.8953	-0.362
Mof_O 	O 	0.95	0.8222	0.6069	-0.391
Mof_O 	O 	0.0595	0.8728	0.6502	-0.382
Mof_O 	O 	0.0404	0.8376	0.9346	-0.402
Mof_O 	O 	0.1593	0.9074	0.0628	-0.37
Mof_O 	O 	0.15642	0.0278	0.1987	-0.414
Mof_O 	O 	0.145	0.9993	0.8177	-0.403
Mof_O 	O 	0.1612	0.1201	0.9472	-0.343
Mof_O 	O 	0.1183	0.7141	0.6949	-0.471
Mof_O 	O 	0.2199	0.6436	0.6574	-0.545
Mof_O 	O 	0.2288	0.3795	0.3596	-0.535
Mof_O 	O 	0.1283	0.3092	0.3161	-0.485
Mof_O 	O 	0.8232	0.2635	0.4721	-0.499
Mof_O 	O 	0.721	0.3303	0.4311	-0.491
Mof_O 	O 	0.7057	0.6358	0.5882	-0.494
Mof_O 	O 	0.8018	0.716	0.5518	-0.53
Mof_C 	C 	0.5138	0.3444	0.3566	0.262
Mof_C 	C 	0.5	0.3463	0.1871	0.281
Mof_C 	C 	0.3433	0.4869	0.5777	0.275
Mof_C 	C 	0.3453	0.5414	0.4336	0.275
Mof_C 	C 	0.3459	0.152	0.145	0.487
Mof_C 	C 	0.3841	0.0796	0.0673	-0.143
Mof_C 	C 	0.345	0.0143	0.0006	0.091
Mof_H 	H 	0.2958	0.0167	0.0031	0.013
Mof_C 	C 	0.378	0.9458	0.9304	-0.144
Mof_C 	C 	0.4517	0.9426	0.9318	0.01
Mof_H 	H 	0.4744	0.8965	0.8865	0.047
Mof_C 	C 	0.493	0.0067	0.9997	0.018
Mof_C 	C 	0.4572	0.0747	0.0669	0
Mof_H 	H 	0.4832	0.118	0.1127	0.049
Mof_C 	C 	0.3366	0.8735	0.8635	0.494
Mof_C 	C 	0.5712	0.0001	0.0035	-0.049
Mof_C 	C 	0.6049	0.9204	0.9885	0.047
Mof_H 	H 	0.5779	0.8709	0.9759	0.034
Mof_C 	C 	0.6789	0.9142	0.9921	-0.157
Mof_C 	C 	0.7193	0.9883	0.0101	0.1
Mof_H 	H 	0.7684	0.9847	0.0094	0.026
Mof_C 	C 	0.6874	0.0661	0.0287	-0.166
Mof_C 	C 	0.6136	0.0724	0.0222	0.044
Mof_H 	H 	0.5925	0.1262	0.0305	0.03
Mof_C 	C 	0.7307	0.146	0.057	0.502
Mof_C 	C 	0.7141	0.8306	0.962	0.479
Mof_Er	Er	0.6655	0.32226	0.20479	2.106
Mof_Er	Er	0.34693	0.34744	0.31714	2.088
Mof_O 	O 	0.577	0.3503	0.3953	-0.357
Mof_O 	O 	0.55	0.3222	0.1069	-0.411
Mof_O 	O 	0.4405	0.3728	0.1502	-0.39
Mof_O 	O 	0.4596	0.3376	0.4346	-0.386
Mof_O 	O 	0.3407	0.4074	0.5628	-0.364
Mof_O 	O 	0.34358	0.5278	0.6987	-0.412
Mof_O 	O 	0.355	0.4993	0.3177	-0.402
Mof_O 	O 	0.3388	0.6201	0.4472	-0.347
Mof_O 	O 	0.3817	0.2141	0.1949	-0.466
Mof_O 	O 	0.2801	0.1436	0.1574	-0.543
Mof_O 	O 	0.2712	0.8795	0.8596	-0.531
Mof_O 	O 	0.3717	0.8092	0.8161	-0.481
Mof_O 	O 	0.6768	0.7635	0.9721	-0.5
Mof_O 	O 	0.779	0.8303	0.9311	-0.491
Mof_O 	O 	0.7943	0.1358	0.0882	-0.495
Mof_O 	O 	0.6982	0.216	0.0518	-0.532
Mof_C 	C 	0.4862	0.6556	0.8566	0.262
Mof_C 	C 	0.5	0.6537	0.6871	0.282
Mof_C 	C 	0.6567	0.5131	0.0777	0.268
Mof_C 	C 	0.6547	0.4586	0.9336	0.281
Mof_C 	C 	0.6541	0.848	0.645	0.494
Mof_C 	C 	0.6159	0.9204	0.5673	-0.162
Mof_C 	C 	0.655	0.9857	0.5006	0.117
Mof_H 	H 	0.7042	0.9833	0.5031	0.007
Mof_C 	C 	0.622	0.0542	0.4304	-0.167
Mof_C 	C 	0.5483	0.0574	0.4318	0.034
Mof_H 	H 	0.5256	0.1035	0.3865	0.038
Mof_C 	C 	0.507	0.9933	0.4997	-0.019
Mof_C 	C 	0.5428	0.9253	0.5669	0.032
Mof_H 	H 	0.5168	0.882	0.6127	0.038
Mof_C 	C 	0.6634	0.1265	0.3635	0.501
Mof_C 	C 	0.4288	0.9999	0.5035	-0.02
Mof_C 	C 	0.3951	0.0796	0.4885	0.029
Mof_H 	H 	0.4221	0.1291	0.4759	0.04
Mof_C 	C 	0.3211	0.0858	0.4921	-0.159
Mof_C 	C 	0.2807	0.0117	0.5101	0.108
Mof_H 	H 	0.2316	0.0153	0.5094	0.026
Mof_C 	C 	0.3126	0.9339	0.5287	-0.164
Mof_C 	C 	0.3864	0.9276	0.5222	0.033
Mof_H 	H 	0.4075	0.8738	0.5305	0.036
Mof_C 	C 	0.2693	0.854	0.557	0.502
Mof_C 	C 	0.2859	0.1694	0.462	0.479
Mof_Er	Er	0.3345	0.67774	0.70479	2.112
Mof_Er	Er	0.65307	0.65256	0.81714	2.092
Mof_O 	O 	0.423	0.6497	0.8953	-0.356
Mof_O 	O 	0.45	0.6778	0.6069	-0.41
Mof_O 	O 	0.5595	0.6272	0.6502	-0.389
Mof_O 	O 	0.5404	0.6624	0.9346	-0.384
Mof_O 	O 	0.6593	0.5926	0.0628	-0.369
Mof_O 	O 	0.65642	0.4722	0.1987	-0.413
Mof_O 	O 	0.645	0.5007	0.8177	-0.402
Mof_O 	O 	0.6612	0.3799	0.9472	-0.343
Mof_O 	O 	0.6183	0.7859	0.6949	-0.468
Mof_O 	O 	0.7199	0.8564	0.6574	-0.544
Mof_O 	O 	0.7288	0.1205	0.3596	-0.534
Mof_O 	O 	0.6283	0.1908	0.3161	-0.482
Mof_O 	O 	0.3232	0.2365	0.4721	-0.5
Mof_O 	O 	0.221	0.1697	0.4311	-0.493
Mof_O 	O 	0.2057	0.8642	0.5882	-0.496
Mof_O 	O 	0.3018	0.784	0.5518	-0.531
_end
