data_functionalizedCrystal
_audit_creation_method	'EQeq! by Chris Wilmer'
_symmetry_space_group_name_H-M	'P1'
_symmetry_Int_Tables_number	1
_symmetry_cell_setting	triclinic
loop_
_symmetry_equiv_pos_as_xyz
  x,y,z
_cell_length_a	10.5672
_cell_length_b	14.5418
_cell_length_c	17.0574
_cell_angle_alpha	69.3819
_cell_angle_beta	71.9555
_cell_angle_gamma	68.6946
loop_
_atom_site_label
_atom_site_type_symbol
_atom_site_fract_x
_atom_site_fract_y
_atom_site_fract_z
_atom_site_charge
Mof_La	La	0.23802	0.79808	0.86584	2.189
Mof_La	La	0.94226	0.93126	0.7147	2.183
Mof_La	La	0.90194	0.70192	0.63416	2.173
Mof_La	La	0.58822	0.56874	0.7853	2.245
Mof_La	La	0.76198	0.20192	0.13416	2.189
Mof_La	La	0.05774	0.06874	0.2853	2.183
Mof_La	La	0.09806	0.29808	0.36584	2.173
Mof_La	La	0.41178	0.43126	0.2147	2.245
Mof_H 	H 	0.1459	0.8811	0.9841	0.135
Mof_H 	H 	0.0528	0.8782	0.9426	0.07
Mof_H 	H 	0.4451	0.6144	0.9698	0.338
Mof_H 	H 	0.5182	0.6719	0.9365	0.334
Mof_H 	H 	0.3316	0.1855	0.5413	0.019
Mof_H 	H 	0.5465	0.1348	0.5738	0.075
Mof_H 	H 	0.2472	0.1623	0.7661	0.047
Mof_H 	H 	0.0111	0.6189	0.5159	0.142
Mof_H 	H 	0.8736	0.6218	0.5574	0.072
Mof_H 	H 	0.0293	0.8856	0.5302	0.34
Mof_H 	H 	0.1266	0.8281	0.5635	0.333
Mof_H 	H 	0.0584	0.3145	0.9587	0.017
Mof_H 	H 	0.2551	0.3652	0.9262	0.076
Mof_H 	H 	0.1756	0.3377	0.7339	0.051
Mof_H 	H 	0.8541	0.1189	0.0159	0.135
Mof_H 	H 	0.9472	0.1218	0.0574	0.07
Mof_H 	H 	0.5549	0.3856	0.0302	0.338
Mof_H 	H 	0.4818	0.3281	0.0635	0.334
Mof_H 	H 	0.6684	0.8145	0.4587	0.019
Mof_H 	H 	0.4535	0.8652	0.4262	0.075
Mof_H 	H 	0.7528	0.8377	0.2339	0.047
Mof_H 	H 	0.9889	0.3811	0.4841	0.142
Mof_H 	H 	0.1264	0.3782	0.4426	0.072
Mof_H 	H 	0.9707	0.1144	0.4698	0.34
Mof_H 	H 	0.8734	0.1719	0.4365	0.333
Mof_H 	H 	0.9416	0.6855	0.0413	0.017
Mof_H 	H 	0.7449	0.6348	0.0738	0.076
Mof_H 	H 	0.8244	0.6623	0.2661	0.051
Mof_C 	C 	0.2997	0.047	0.5828	-0.157
Mof_C 	C 	0.3712	0.1165	0.5661	0.055
Mof_C 	C 	0.5007	0.0861	0.5853	-0.073
Mof_C 	C 	0.5625	0.9835	0.6217	-0.033
Mof_C 	C 	0.4918	0.9122	0.6402	-0.11
Mof_C 	C 	0.3589	0.9438	0.6214	-0.021
Mof_C 	C 	0.1633	0.0837	0.5565	0.514
Mof_C 	C 	0.2864	0.8644	0.6408	0.374
Mof_C 	C 	0.5431	0.8003	0.6819	0.449
Mof_C 	C 	0.7038	0.9552	0.6402	0.34
Mof_C 	C 	0.1558	0.1975	0.7609	-0.014
Mof_C 	C 	0.0648	0.1437	0.7751	-0.076
Mof_C 	C 	0.9294	0.1969	0.7639	-0.038
Mof_C 	C 	0.1148	0.0278	0.8014	0.36
Mof_C 	C 	0.8228	0.1399	0.7867	0.381
Mof_C 	C 	0.9295	0.453	0.9172	-0.155
Mof_C 	C 	0.0538	0.3835	0.9339	0.059
Mof_C 	C 	0.1721	0.4139	0.9147	-0.073
Mof_C 	C 	0.1677	0.5165	0.8783	-0.037
Mof_C 	C 	0.0442	0.5878	0.8598	-0.101
Mof_C 	C 	0.9241	0.5562	0.8786	-0.038
Mof_C 	C 	0.8035	0.4163	0.9435	0.51
Mof_C 	C 	0.7916	0.6356	0.8592	0.378
Mof_C 	C 	0.0253	0.6997	0.8181	0.459
Mof_C 	C 	0.2992	0.5448	0.8598	0.355
Mof_C 	C 	0.1142	0.3025	0.7391	-0.023
Mof_C 	C 	0.9836	0.3563	0.7249	-0.067
Mof_C 	C 	0.8902	0.3031	0.7361	-0.05
Mof_C 	C 	0.944	0.4722	0.6986	0.376
Mof_C 	C 	0.7494	0.3601	0.7133	0.387
Mof_C 	C 	0.7003	0.953	0.4172	-0.157
Mof_C 	C 	0.6288	0.8835	0.4339	0.055
Mof_C 	C 	0.4993	0.9139	0.4147	-0.073
Mof_C 	C 	0.4375	0.0165	0.3783	-0.033
Mof_C 	C 	0.5082	0.0878	0.3598	-0.11
Mof_C 	C 	0.6411	0.0562	0.3786	-0.021
Mof_C 	C 	0.8367	0.9163	0.4435	0.514
Mof_C 	C 	0.7136	0.1356	0.3592	0.374
Mof_C 	C 	0.4569	0.1997	0.3181	0.449
Mof_C 	C 	0.2962	0.0448	0.3598	0.34
Mof_C 	C 	0.8442	0.8025	0.2391	-0.014
Mof_C 	C 	0.9352	0.8563	0.2249	-0.076
Mof_C 	C 	0.0706	0.8031	0.2361	-0.038
Mof_C 	C 	0.8852	0.9722	0.1986	0.36
Mof_C 	C 	0.1772	0.8601	0.2133	0.381
Mof_C 	C 	0.0705	0.547	0.0828	-0.155
Mof_C 	C 	0.9462	0.6165	0.0661	0.059
Mof_C 	C 	0.8279	0.5861	0.0853	-0.073
Mof_C 	C 	0.8323	0.4835	0.1217	-0.037
Mof_C 	C 	0.9558	0.4122	0.1402	-0.101
Mof_C 	C 	0.0759	0.4438	0.1214	-0.038
Mof_C 	C 	0.1965	0.5837	0.0565	0.51
Mof_C 	C 	0.2084	0.3644	0.1408	0.378
Mof_C 	C 	0.9747	0.3003	0.1819	0.459
Mof_C 	C 	0.7008	0.4552	0.1402	0.355
Mof_C 	C 	0.8858	0.6975	0.2609	-0.023
Mof_C 	C 	0.0164	0.6437	0.2751	-0.067
Mof_C 	C 	0.1098	0.6969	0.2639	-0.05
Mof_C 	C 	0.056	0.5278	0.3014	0.376
Mof_C 	C 	0.2506	0.6399	0.2867	0.387
Mof_O 	O 	0.0777	0.0328	0.5906	-0.538
Mof_O 	O 	0.1412	0.1654	0.4992	-0.538
Mof_O 	O 	0.1985	0.852	0.7112	-0.597
Mof_O 	O 	0.3156	0.8143	0.5887	-0.332
Mof_O 	O 	0.4699	0.7671	0.7551	-0.615
Mof_O 	O 	0.6431	0.7398	0.6466	-0.578
Mof_O 	O 	0.7587	0.8647	0.6803	-0.561
Mof_O 	O 	0.7633	0.0231	0.6173	-0.429
Mof_O 	O 	0.2384	0.9857	0.8079	-0.467
Mof_O 	O 	0.0318	0.9756	0.8164	-0.549
Mof_O 	O 	0.8172	0.1016	0.7338	-0.485
Mof_O 	O 	0.7463	0.1375	0.8587	-0.29
Mof_O 	O 	0.0657	0.8759	0.9901	-0.456
Mof_O 	O 	0.4728	0.648	0.919	-0.912
Mof_O 	O 	0.7011	0.4672	0.9094	-0.536
Mof_O 	O 	0.8058	0.3346	0.0008	-0.534
Mof_O 	O 	0.7617	0.648	0.7888	-0.607
Mof_O 	O 	0.7186	0.6857	0.9113	-0.338
Mof_O 	O 	0.9921	0.7329	0.7449	-0.623
Mof_O 	O 	0.0295	0.7602	0.8534	-0.575
Mof_O 	O 	0.3037	0.6353	0.8197	-0.568
Mof_O 	O 	0.4037	0.4769	0.8827	-0.446
Mof_O 	O 	0.032	0.5143	0.6921	-0.473
Mof_O 	O 	0.8238	0.5244	0.6836	-0.568
Mof_O 	O 	0.6526	0.3984	0.7662	-0.497
Mof_O 	O 	0.7425	0.3625	0.6413	-0.292
Mof_O 	O 	0.9317	0.6241	0.5099	-0.469
Mof_O 	O 	0.0398	0.852	0.581	-0.897
Mof_O 	O 	0.9223	0.9672	0.4094	-0.538
Mof_O 	O 	0.8588	0.8346	0.5008	-0.538
Mof_O 	O 	0.8015	0.148	0.2888	-0.597
Mof_O 	O 	0.6844	0.1857	0.4113	-0.332
Mof_O 	O 	0.5301	0.2329	0.2449	-0.615
Mof_O 	O 	0.3569	0.2602	0.3534	-0.578
Mof_O 	O 	0.2413	0.1353	0.3197	-0.561
Mof_O 	O 	0.2367	0.9769	0.3827	-0.429
Mof_O 	O 	0.7616	0.0143	0.1921	-0.467
Mof_O 	O 	0.9682	0.0244	0.1836	-0.549
Mof_O 	O 	0.1828	0.8984	0.2662	-0.485
Mof_O 	O 	0.2537	0.8625	0.1413	-0.29
Mof_O 	O 	0.9343	0.1241	0.0099	-0.456
Mof_O 	O 	0.5272	0.352	0.081	-0.912
Mof_O 	O 	0.2989	0.5328	0.0906	-0.536
Mof_O 	O 	0.1942	0.6654	0.9992	-0.534
Mof_O 	O 	0.2383	0.352	0.2112	-0.607
Mof_O 	O 	0.2814	0.3143	0.0887	-0.338
Mof_O 	O 	0.0079	0.2671	0.2551	-0.623
Mof_O 	O 	0.9705	0.2398	0.1466	-0.575
Mof_O 	O 	0.6963	0.3647	0.1803	-0.568
Mof_O 	O 	0.5963	0.5231	0.1173	-0.446
Mof_O 	O 	0.968	0.4857	0.3079	-0.473
Mof_O 	O 	0.1762	0.4756	0.3164	-0.568
Mof_O 	O 	0.3474	0.6016	0.2338	-0.497
Mof_O 	O 	0.2575	0.6375	0.3587	-0.292
Mof_O 	O 	0.0683	0.3759	0.4901	-0.469
Mof_O 	O 	0.9602	0.148	0.419	-0.897
_end
