data_functionalizedCrystal
_audit_creation_method	'EQeq! by Chris Wilmer'
_symmetry_space_group_name_H-M	'P1'
_symmetry_Int_Tables_number	1
_symmetry_cell_setting	triclinic
loop_
_symmetry_equiv_pos_as_xyz
  x,y,z
_cell_length_a	10.496
_cell_length_b	12.396
_cell_length_c	16.254
_cell_angle_alpha	90
_cell_angle_beta	90
_cell_angle_gamma	90
loop_
_atom_site_label
_atom_site_type_symbol
_atom_site_fract_x
_atom_site_fract_y
_atom_site_fract_z
_atom_site_charge
Mof_C 	C 	0.3289	0.1054	0.9844	0.182
Mof_C 	C 	0.3525	0.0629	0.1187	0.183
Mof_C 	C 	0.0862	0.838	0.8342	0.163
Mof_C 	C 	0.0042	0.6998	0.7599	0.171
Mof_C 	C 	0.4439	0.8581	0.8188	0.192
Mof_C 	C 	0.5821	0.7186	0.794	0.197
Mof_Mn	Mn	0.22651	0.04889	0.79988	0.781
Mof_N 	N 	0.2812	0.1098	0.9224	-0.221
Mof_N 	N 	0.3909	0.1126	0.0524	-0.183
Mof_N 	N 	0.3285	0.0229	0.1785	-0.221
Mof_N 	N 	0.0975	0.9239	0.8571	-0.207
Mof_N 	N 	0.0865	0.7361	0.8127	-0.177
Mof_N 	N 	0.9375	0.6601	0.7131	-0.213
Mof_N 	N 	0.3832	0.929	0.8087	-0.227
Mof_N 	N 	0.5165	0.7787	0.8442	-0.187
Mof_N 	N 	0.6464	0.6653	0.7602	-0.233
Mof_C 	C 	0.1711	0.8946	0.4844	0.185
Mof_C 	C 	0.1475	0.9371	0.6187	0.183
Mof_C 	C 	0.4138	0.162	0.3342	0.164
Mof_C 	C 	0.4958	0.3002	0.2599	0.171
Mof_C 	C 	0.0561	0.1419	0.3188	0.192
Mof_C 	C 	0.9179	0.2814	0.294	0.197
Mof_Mn	Mn	0.27349	0.95111	0.29988	0.781
Mof_N 	N 	0.2188	0.8902	0.4224	-0.221
Mof_N 	N 	0.1091	0.8874	0.5524	-0.184
Mof_N 	N 	0.1715	0.9771	0.6785	-0.221
Mof_N 	N 	0.4025	0.0761	0.3571	-0.207
Mof_N 	N 	0.4135	0.2639	0.3127	-0.177
Mof_N 	N 	0.5625	0.3399	0.2131	-0.213
Mof_N 	N 	0.1168	0.071	0.3087	-0.227
Mof_N 	N 	0.9835	0.2213	0.3442	-0.187
Mof_N 	N 	0.8536	0.3347	0.2602	-0.233
Mof_C 	C 	0.6711	0.6054	0.5156	0.185
Mof_C 	C 	0.6475	0.5629	0.3813	0.183
Mof_C 	C 	0.9138	0.338	0.6658	0.164
Mof_C 	C 	0.9958	0.1998	0.7401	0.172
Mof_C 	C 	0.5561	0.3581	0.6812	0.192
Mof_C 	C 	0.4179	0.2186	0.706	0.196
Mof_Mn	Mn	0.77349	0.54889	0.70012	0.782
Mof_N 	N 	0.7188	0.6098	0.5776	-0.221
Mof_N 	N 	0.6091	0.6126	0.4476	-0.185
Mof_N 	N 	0.6715	0.5229	0.3215	-0.222
Mof_N 	N 	0.9025	0.4239	0.6429	-0.207
Mof_N 	N 	0.9135	0.2361	0.6873	-0.178
Mof_N 	N 	0.0625	0.1601	0.7869	-0.214
Mof_N 	N 	0.6168	0.429	0.6913	-0.228
Mof_N 	N 	0.4835	0.2787	0.6558	-0.187
Mof_N 	N 	0.3536	0.1653	0.7398	-0.233
Mof_C 	C 	0.8289	0.3946	0.0156	0.185
Mof_C 	C 	0.8525	0.4371	0.8813	0.183
Mof_C 	C 	0.5862	0.662	0.1658	0.163
Mof_C 	C 	0.5042	0.8002	0.2401	0.171
Mof_C 	C 	0.9439	0.6419	0.1812	0.191
Mof_C 	C 	0.0821	0.7814	0.206	0.196
Mof_Mn	Mn	0.72651	0.45111	0.20012	0.782
Mof_N 	N 	0.7812	0.3902	0.0776	-0.221
Mof_N 	N 	0.8909	0.3874	0.9476	-0.184
Mof_N 	N 	0.8285	0.4771	0.8215	-0.222
Mof_N 	N 	0.5975	0.5761	0.1429	-0.207
Mof_N 	N 	0.5865	0.7639	0.1873	-0.178
Mof_N 	N 	0.4375	0.8399	0.2869	-0.213
Mof_N 	N 	0.8832	0.571	0.1913	-0.228
Mof_N 	N 	0.0165	0.7213	0.1558	-0.187
Mof_N 	N 	0.1464	0.8347	0.2398	-0.233
_end
