data_functionalizedCrystal
_audit_creation_method	'EQeq! by Chris Wilmer'
_symmetry_space_group_name_H-M	'P1'
_symmetry_Int_Tables_number	1
_symmetry_cell_setting	triclinic
loop_
_symmetry_equiv_pos_as_xyz
  x,y,z
_cell_length_a	7.2214
_cell_length_b	10.295
_cell_length_c	11.041
_cell_angle_alpha	90
_cell_angle_beta	90
_cell_angle_gamma	90
loop_
_atom_site_label
_atom_site_type_symbol
_atom_site_fract_x
_atom_site_fract_y
_atom_site_fract_z
_atom_site_charge
Mof_Cu	Cu	0.3994	0.93303	0.02927	0.898
Mof_Cu	Cu	0.1006	0.06697	0.52927	0.897
Mof_H 	H 	0.3302	0.7152	0.7708	0.073
Mof_H 	H 	0.3201	0.9645	0.813	0.1
Mof_H 	H 	0.1832	0.8641	0.8674	0.124
Mof_H 	H 	0.5059	0.8837	0.6427	0.036
Mof_H 	H 	0.6115	0.7654	0.6735	0.022
Mof_H 	H 	0.6661	0.9777	0.8108	0.15
Mof_H 	H 	0.7707	0.847	0.8133	0.121
Mof_H 	H 	0.1698	0.2848	0.2708	0.074
Mof_H 	H 	0.1799	0.0355	0.313	0.097
Mof_H 	H 	0.3168	0.1359	0.3674	0.122
Mof_H 	H 	0.9941	0.1163	0.1427	0.035
Mof_H 	H 	0.8885	0.2346	0.1735	0.02
Mof_H 	H 	0.8339	0.0223	0.3108	0.154
Mof_H 	H 	0.7293	0.153	0.3133	0.124
Mof_C 	C 	0.528	0.7163	0.9101	0.327
Mof_C 	C 	0.4211	0.7834	0.8101	-0.133
Mof_C 	C 	0.5495	0.8322	0.712	0.028
Mof_C 	C 	0.708	0.9182	0.7562	-0.349
Mof_C 	C 	0.827	0.9676	0.6541	0.386
Mof_C 	C 	0.972	0.2837	0.4101	0.333
Mof_C 	C 	0.0789	0.2166	0.3101	-0.142
Mof_C 	C 	0.9505	0.1678	0.212	0.037
Mof_C 	C 	0.792	0.0818	0.2562	-0.355
Mof_C 	C 	0.673	0.0324	0.1541	0.391
Mof_N 	N 	0.3086	0.8909	0.8629	-0.291
Mof_N 	N 	0.1914	0.1091	0.3629	-0.29
Mof_O 	O 	0.5186	0.7627	0.0169	-0.392
Mof_O 	O 	0.6246	0.6203	0.8814	-0.358
Mof_O 	O 	0.9751	0.0291	0.6844	-0.398
Mof_O 	O 	0.7851	0.9499	0.547	-0.347
Mof_O 	O 	0.9814	0.2373	0.5169	-0.394
Mof_O 	O 	0.8754	0.3797	0.3814	-0.358
Mof_O 	O 	0.5249	0.9709	0.1844	-0.399
Mof_O 	O 	0.7149	0.0501	0.047	-0.345
Mof_Cu	Cu	0.6006	0.43303	0.47073	0.898
Mof_Cu	Cu	0.8994	0.56697	0.97073	0.894
Mof_H 	H 	0.6698	0.2152	0.7292	0.072
Mof_H 	H 	0.6799	0.4645	0.687	0.098
Mof_H 	H 	0.8168	0.3641	0.6326	0.121
Mof_H 	H 	0.4941	0.3837	0.8573	0.035
Mof_H 	H 	0.3885	0.2654	0.8265	0.021
Mof_H 	H 	0.3339	0.4777	0.6892	0.152
Mof_H 	H 	0.2293	0.347	0.6867	0.124
Mof_H 	H 	0.8302	0.7848	0.2292	0.071
Mof_H 	H 	0.8201	0.5355	0.187	0.099
Mof_H 	H 	0.6832	0.6359	0.1326	0.122
Mof_H 	H 	0.0059	0.6163	0.3573	0.037
Mof_H 	H 	0.1115	0.7346	0.3265	0.024
Mof_H 	H 	0.1661	0.5223	0.1892	0.15
Mof_H 	H 	0.2707	0.653	0.1867	0.123
Mof_C 	C 	0.472	0.2163	0.5899	0.329
Mof_C 	C 	0.5789	0.2834	0.6899	-0.134
Mof_C 	C 	0.4505	0.3322	0.788	0.03
Mof_C 	C 	0.292	0.4182	0.7438	-0.351
Mof_C 	C 	0.173	0.4676	0.8459	0.39
Mof_C 	C 	0.028	0.7837	0.0899	0.321
Mof_C 	C 	0.9211	0.7166	0.1899	-0.129
Mof_C 	C 	0.0495	0.6678	0.288	0.025
Mof_C 	C 	0.208	0.5818	0.2438	-0.349
Mof_C 	C 	0.327	0.5324	0.3459	0.389
Mof_N 	N 	0.6914	0.3909	0.6371	-0.291
Mof_N 	N 	0.8086	0.6091	0.1371	-0.291
Mof_O 	O 	0.4814	0.2627	0.4831	-0.393
Mof_O 	O 	0.3754	0.1203	0.6186	-0.357
Mof_O 	O 	0.0249	0.5291	0.8156	-0.396
Mof_O 	O 	0.2149	0.4499	0.953	-0.346
Mof_O 	O 	0.0186	0.7373	0.9831	-0.386
Mof_O 	O 	0.1246	0.8797	0.1186	-0.355
Mof_O 	O 	0.4751	0.4709	0.3156	-0.399
Mof_O 	O 	0.2851	0.5501	0.453	-0.346
_end
