data_functionalizedCrystal
_audit_creation_method	'EQeq! by Chris Wilmer'
_symmetry_space_group_name_H-M	'P1'
_symmetry_Int_Tables_number	1
_symmetry_cell_setting	triclinic
loop_
_symmetry_equiv_pos_as_xyz
  x,y,z
_cell_length_a	13.6945
_cell_length_b	14.7711
_cell_length_c	16.0651
_cell_angle_alpha	117.369
_cell_angle_beta	97.9829
_cell_angle_gamma	90
loop_
_atom_site_label
_atom_site_type_symbol
_atom_site_fract_x
_atom_site_fract_y
_atom_site_fract_z
_atom_site_charge
Mof_Nd	Nd	0.96041	0.39327	0.36342	2.694
Mof_Nd	Nd	0.53959	0.02985	0.63658	2.694
Mof_Nd	Nd	0.03959	0.60673	0.63658	2.695
Mof_Nd	Nd	0.46041	0.97015	0.36342	2.691
Mof_H 	H 	0.1059	0.1962	0.0654	0.055
Mof_H 	H 	0.1541	0.1653	0.9232	0.093
Mof_H 	H 	0.0927	0.4485	0.9716	0.083
Mof_H 	H 	0.0373	0.4772	0.1098	0.036
Mof_H 	H 	0.177	0.205	0.812	0.046
Mof_H 	H 	0.0838	0.3928	0.6782	0.031
Mof_H 	H 	0.2832	0.2095	0.7166	0.049
Mof_H 	H 	0.2187	0.2036	0.462	0.036
Mof_H 	H 	0.3941	0.1308	0.9346	0.047
Mof_H 	H 	0.3459	0.2421	0.0768	0.101
Mof_H 	H 	0.4073	0.4769	0.0284	0.09
Mof_H 	H 	0.4627	0.3674	0.8902	0.028
Mof_H 	H 	0.323	0.393	0.188	0.047
Mof_H 	H 	0.4162	0.7146	0.3218	0.031
Mof_H 	H 	0.2168	0.4929	0.2834	0.049
Mof_H 	H 	0.2813	0.7416	0.538	0.036
Mof_H 	H 	0.8941	0.8038	0.9346	0.042
Mof_H 	H 	0.8459	0.8347	0.0768	0.106
Mof_H 	H 	0.9073	0.5515	0.0284	0.096
Mof_H 	H 	0.9627	0.5228	0.8902	0.023
Mof_H 	H 	0.823	0.795	0.188	0.049
Mof_H 	H 	0.9162	0.6072	0.3218	0.031
Mof_H 	H 	0.7168	0.7905	0.2834	0.049
Mof_H 	H 	0.7813	0.7964	0.538	0.036
Mof_H 	H 	0.6059	0.8692	0.0654	0.059
Mof_H 	H 	0.6541	0.7579	0.9232	0.087
Mof_H 	H 	0.5927	0.5231	0.9716	0.077
Mof_H 	H 	0.5373	0.6326	0.1098	0.042
Mof_H 	H 	0.677	0.607	0.812	0.044
Mof_H 	H 	0.5838	0.2854	0.6782	0.031
Mof_H 	H 	0.7832	0.5071	0.7166	0.049
Mof_H 	H 	0.7187	0.2584	0.462	0.036
Mof_C 	C 	0.0276	0.3557	0.1894	0.331
Mof_C 	C 	0.0663	0.3389	0.1022	-0.086
Mof_C 	C 	0.1018	0.2467	0.046	0.04
Mof_C 	C 	0.1315	0.2284	0.9612	-0.118
Mof_C 	C 	0.1277	0.3032	0.9328	0.081
Mof_C 	C 	0.0938	0.3971	0.9898	-0.113
Mof_C 	C 	0.0618	0.4149	0.073	0.033
Mof_C 	C 	0.1557	0.2779	0.8398	-0.007
Mof_C 	C 	0.0852	0.3404	0.4966	0.485
Mof_C 	C 	0.1429	0.304	0.5606	-0.148
Mof_C 	C 	0.1274	0.3421	0.6542	0.013
Mof_C 	C 	0.1778	0.3039	0.7122	0.043
Mof_C 	C 	0.2472	0.2325	0.6774	0.001
Mof_C 	C 	0.2629	0.1952	0.5838	-0.152
Mof_C 	C 	0.2096	0.2299	0.525	0.087
Mof_C 	C 	0.3373	0.1163	0.545	0.542
Mof_C 	C 	0.4724	0.1663	0.8106	0.336
Mof_C 	C 	0.4337	0.2367	0.8978	-0.102
Mof_C 	C 	0.3982	0.2007	0.954	0.063
Mof_C 	C 	0.3685	0.2672	0.0388	-0.142
Mof_C 	C 	0.3723	0.3704	0.0672	0.097
Mof_C 	C 	0.4062	0.4073	0.0102	-0.141
Mof_C 	C 	0.4382	0.3419	0.927	0.061
Mof_C 	C 	0.3443	0.4381	0.1602	-0.014
Mof_C 	C 	0.4148	0.8438	0.5034	0.485
Mof_C 	C 	0.3571	0.7434	0.4394	-0.149
Mof_C 	C 	0.3726	0.6879	0.3458	0.013
Mof_C 	C 	0.3222	0.5917	0.2878	0.042
Mof_C 	C 	0.2528	0.5551	0.3226	0.001
Mof_C 	C 	0.2371	0.6114	0.4162	-0.153
Mof_C 	C 	0.2904	0.7049	0.475	0.087
Mof_C 	C 	0.1627	0.5713	0.455	0.542
Mof_C 	C 	0.9724	0.6443	0.8106	0.342
Mof_C 	C 	0.9337	0.6611	0.8978	-0.114
Mof_C 	C 	0.8982	0.7533	0.954	0.085
Mof_C 	C 	0.8685	0.7716	0.0388	-0.164
Mof_C 	C 	0.8723	0.6968	0.0672	0.11
Mof_C 	C 	0.9062	0.6029	0.0102	-0.158
Mof_C 	C 	0.9382	0.5851	0.927	0.078
Mof_C 	C 	0.8443	0.7221	0.1602	-0.02
Mof_C 	C 	0.9148	0.6596	0.5034	0.485
Mof_C 	C 	0.8571	0.696	0.4394	-0.148
Mof_C 	C 	0.8726	0.6579	0.3458	0.013
Mof_C 	C 	0.8222	0.6961	0.2878	0.042
Mof_C 	C 	0.7528	0.7675	0.3226	0.001
Mof_C 	C 	0.7371	0.8048	0.4162	-0.152
Mof_C 	C 	0.7904	0.7701	0.475	0.087
Mof_C 	C 	0.6627	0.8837	0.455	0.542
Mof_C 	C 	0.5276	0.8337	0.1894	0.325
Mof_C 	C 	0.5663	0.7633	0.1022	-0.073
Mof_C 	C 	0.6018	0.7993	0.046	0.018
Mof_C 	C 	0.6315	0.7328	0.9612	-0.096
Mof_C 	C 	0.6277	0.6296	0.9328	0.068
Mof_C 	C 	0.5938	0.5927	0.9898	-0.095
Mof_C 	C 	0.5618	0.6581	0.073	0.016
Mof_C 	C 	0.6557	0.5619	0.8398	-0.002
Mof_C 	C 	0.5852	0.1562	0.4966	0.485
Mof_C 	C 	0.6429	0.2566	0.5606	-0.148
Mof_C 	C 	0.6274	0.3121	0.6542	0.013
Mof_C 	C 	0.6778	0.4083	0.7122	0.043
Mof_C 	C 	0.7472	0.4449	0.6774	0.001
Mof_C 	C 	0.7629	0.3886	0.5838	-0.153
Mof_C 	C 	0.7096	0.2951	0.525	0.087
Mof_C 	C 	0.8373	0.4287	0.545	0.542
Mof_N 	N 	0.1538	0.341	0.8058	-0.107
Mof_N 	N 	0.3462	0.5352	0.1942	-0.106
Mof_N 	N 	0.8462	0.659	0.1942	-0.105
Mof_N 	N 	0.6538	0.4648	0.8058	-0.108
Mof_Cl	Cl	0.8655	0.2036	0.2372	-0.504
Mof_Cl	Cl	0.6345	0.9664	0.7628	-0.499
Mof_Cl	Cl	0.1345	0.7964	0.7628	-0.502
Mof_Cl	Cl	0.3655	0.0336	0.2372	-0.5
Mof_O 	O 	0.0535	0.2985	0.2256	-0.417
Mof_O 	O 	0.9701	0.426	0.2252	-0.457
Mof_O 	O 	0.0673	0.28309	0.40998	-0.505
Mof_O 	O 	0.0545	0.42864	0.53308	-0.723
Mof_O 	O 	0.3813	0.0888	0.6018	-0.585
Mof_O 	O 	0.3511	0.08817	0.46234	-0.577
Mof_O 	O 	0.7852	0.4253	0.3032	-0.311
Mof_O 	O 	0.4465	0.0729	0.7744	-0.419
Mof_O 	O 	0.5299	0.2008	0.7748	-0.458
Mof_O 	O 	0.4327	0.87311	0.59002	-0.505
Mof_O 	O 	0.4455	0.89556	0.46692	-0.723
Mof_O 	O 	0.1187	0.487	0.3982	-0.585
Mof_O 	O 	0.1489	0.62583	0.53766	-0.578
Mof_O 	O 	0.7148	0.1221	0.6968	-0.312
Mof_O 	O 	0.9465	0.7015	0.7744	-0.419
Mof_O 	O 	0.0299	0.574	0.7748	-0.459
Mof_O 	O 	0.9327	0.71691	0.59002	-0.505
Mof_O 	O 	0.9455	0.57136	0.46692	-0.723
Mof_O 	O 	0.6187	0.9112	0.3982	-0.585
Mof_O 	O 	0.6489	0.91183	0.53766	-0.577
Mof_O 	O 	0.2148	0.5747	0.6968	-0.311
Mof_O 	O 	0.5535	0.9271	0.2256	-0.417
Mof_O 	O 	0.4701	0.7992	0.2252	-0.455
Mof_O 	O 	0.5673	0.12689	0.40998	-0.505
Mof_O 	O 	0.5545	0.10444	0.53308	-0.723
Mof_O 	O 	0.8813	0.513	0.6018	-0.586
Mof_O 	O 	0.8511	0.37417	0.46234	-0.578
Mof_O 	O 	0.2852	0.8779	0.3032	-0.312
Mof_H 	H 	0.7684	0.4794	0.0874	0.05
Mof_H 	H 	0.7316	0.392	0.9126	0.046
Mof_H 	H 	0.75	0.1776	-0	0.051
Mof_C 	C 	0.7637	0.4092	0.0476	0.003
Mof_C 	C 	0.7363	0.3616	0.9524	0.02
Mof_C 	C 	0.75	0.241	-0	0.085
Mof_N 	N 	0.7828	0.3357	0.0744	-0.093
Mof_N 	N 	0.7172	0.2613	0.9256	-0.094
Mof_H 	H 	0.2316	0.5206	0.9126	0.045
Mof_H 	H 	0.2684	0.608	0.0874	0.051
Mof_H 	H 	0.25	0.8224	-0	0.05
Mof_C 	C 	0.2363	0.5908	0.9524	0.024
Mof_C 	C 	0.2637	0.6384	0.0476	-0.001
Mof_C 	C 	0.25	0.759	-0	0.081
Mof_N 	N 	0.2172	0.6643	0.9256	-0.092
Mof_N 	N 	0.2828	0.7387	0.0744	-0.092
_end
