data_functionalizedCrystal
_audit_creation_method	'EQeq! by Chris Wilmer'
_symmetry_space_group_name_H-M	'P1'
_symmetry_Int_Tables_number	1
_symmetry_cell_setting	triclinic
loop_
_symmetry_equiv_pos_as_xyz
  x,y,z
_cell_length_a	16.285
_cell_length_b	11.9314
_cell_length_c	12.2099
_cell_angle_alpha	90
_cell_angle_beta	90
_cell_angle_gamma	90
loop_
_atom_site_label
_atom_site_type_symbol
_atom_site_fract_x
_atom_site_fract_y
_atom_site_fract_z
_atom_site_charge
Mof_Eu	Eu	0.97045	0.1606	0.28216	2.57
Mof_Br	Br	0.9699	0.195	0.515	-0.498
Mof_Cl	Cl	0.9873	0.2045	0.5	0.053
Mof_S 	S 	0.79013	0.5208	0.5209	0.133
Mof_O 	O 	0.9165	0.353	0.302	-0.638
Mof_O 	O 	0.9227	0.7359	0.2153	-0.599
Mof_C 	C 	0.6509	0.503	0.6417	0.455
Mof_O 	O 	0.6684	0.5995	0.6776	-0.503
Mof_O 	O 	0.5806	0.4619	0.6587	-0.665
Mof_O 	O 	0.914	0.5284	0.3574	-0.457
Mof_C 	C 	0.8724	0.6887	0.1534	0.512
Mof_O 	O 	0.8759	0.5868	0.1282	-0.486
Mof_C 	C 	0.709	0.4448	0.5716	-0.15
Mof_C 	C 	0.82	0.4097	0.4429	-0.126
Mof_C 	C 	0.8882	0.4296	0.3653	0.429
Mof_C 	C 	0.7065	0.3394	0.5285	0.033
Mof_H 	H 	0.6658	0.2854	0.5465	0.025
Mof_C 	C 	0.8021	0.753	0.1085	-0.153
Mof_S 	S 	0.73328	0.6854	0.0236	0.135
Mof_O 	O 	0.5556	0.8852	0.9411	-0.531
Mof_O 	O 	0.5944	0.718	0.8813	-0.558
Mof_C 	C 	0.6033	0.8041	0.9365	0.539
Mof_C 	C 	0.7108	0.8939	0.0646	0.013
Mof_H 	H 	0.6884	0.9674	0.066	0.064
Mof_C 	C 	0.6762	0.8052	0.0085	-0.145
Mof_C 	C 	0.771	0.3197	0.4543	0.006
Mof_H 	H 	0.7791	0.2509	0.4167	0.041
Mof_C 	C 	0.7835	0.8622	0.1198	0.047
Mof_H 	H 	0.8162	0.9131	0.1608	0.038
Mof_Eu	Eu	0.02955	0.8394	0.28216	2.321
Mof_Br	Br	0.0301	0.805	0.515	-0.541
Mof_Cl	Cl	0.0127	0.7955	0.5	0.044
Mof_S 	S 	0.20987	0.4792	0.5209	0.104
Mof_O 	O 	0.0835	0.647	0.302	-0.644
Mof_O 	O 	0.0773	0.2641	0.2153	-0.7
Mof_C 	C 	0.3491	0.497	0.6417	0.453
Mof_O 	O 	0.3316	0.4005	0.6776	-0.51
Mof_O 	O 	0.4194	0.5381	0.6587	-0.666
Mof_O 	O 	0.086	0.4716	0.3574	-0.502
Mof_C 	C 	0.1276	0.3113	0.1534	0.531
Mof_O 	O 	0.1241	0.4132	0.1282	-0.519
Mof_C 	C 	0.291	0.5552	0.5716	-0.148
Mof_C 	C 	0.18	0.5903	0.4429	-0.123
Mof_C 	C 	0.1118	0.5704	0.3653	0.422
Mof_C 	C 	0.2935	0.6606	0.5285	0.034
Mof_H 	H 	0.3342	0.7146	0.5465	0.023
Mof_C 	C 	0.1979	0.247	0.1085	-0.179
Mof_S 	S 	0.26672	0.3146	0.0236	0.126
Mof_O 	O 	0.4444	0.1148	0.9411	-0.565
Mof_O 	O 	0.4056	0.282	0.8813	-0.562
Mof_C 	C 	0.3967	0.1959	0.9365	0.532
Mof_C 	C 	0.2892	0.1061	0.0646	-0.004
Mof_H 	H 	0.3116	0.0326	0.066	0.039
Mof_C 	C 	0.3238	0.1948	0.0085	-0.148
Mof_C 	C 	0.229	0.6803	0.4543	0.001
Mof_H 	H 	0.2209	0.7491	0.4167	0.047
Mof_C 	C 	0.2165	0.1378	0.1198	0.048
Mof_H 	H 	0.1838	0.0869	0.1608	0.005
Mof_Eu	Eu	0.52955	0.6606	0.71784	2.441
Mof_Br	Br	0.5301	0.695	0.485	-0.518
Mof_Cl	Cl	0.5127	0.7045	0.5	0.052
Mof_S 	S 	0.70987	0.0208	0.4791	0.019
Mof_O 	O 	0.5835	0.853	0.698	-0.651
Mof_O 	O 	0.5773	0.2359	0.7847	-0.66
Mof_C 	C 	0.8491	0.003	0.3583	0.297
Mof_O 	O 	0.8316	0.0995	0.3224	-0.486
Mof_O 	O 	0.9194	0.9619	0.3413	-0.549
Mof_O 	O 	0.586	0.0284	0.6426	-0.532
Mof_C 	C 	0.6276	0.1887	0.8466	0.526
Mof_O 	O 	0.6241	0.0868	0.8718	-0.531
Mof_C 	C 	0.791	0.9448	0.4284	-0.004
Mof_C 	C 	0.68	0.9097	0.5571	-0.095
Mof_C 	C 	0.6118	0.9296	0.6347	0.479
Mof_C 	C 	0.7935	0.8394	0.4715	-0.033
Mof_H 	H 	0.8342	0.7854	0.4535	0.061
Mof_C 	C 	0.6979	0.253	0.8915	-0.171
Mof_S 	S 	0.76672	0.1854	0.9764	0.114
Mof_O 	O 	0.9444	0.3852	0.0589	-0.513
Mof_O 	O 	0.9056	0.218	0.1187	-0.56
Mof_C 	C 	0.8967	0.3041	0.0635	0.537
Mof_C 	C 	0.7892	0.3939	0.9354	0
Mof_H 	H 	0.8116	0.4674	0.934	0.057
Mof_C 	C 	0.8238	0.3052	0.9915	-0.143
Mof_C 	C 	0.729	0.8197	0.5457	0.034
Mof_H 	H 	0.7209	0.7509	0.5833	0.038
Mof_C 	C 	0.7165	0.3622	0.8802	0.051
Mof_H 	H 	0.6838	0.4131	0.8392	0.015
Mof_Eu	Eu	0.47045	0.3394	0.71784	2.43
Mof_Br	Br	0.4699	0.305	0.485	-0.518
Mof_Cl	Cl	0.4873	0.2955	0.5	0.047
Mof_S 	S 	0.29013	0.9792	0.4791	0.194
Mof_O 	O 	0.4165	0.147	0.698	-0.641
Mof_O 	O 	0.4227	0.7641	0.7847	-0.657
Mof_C 	C 	0.1509	0.997	0.3583	0.566
Mof_O 	O 	0.1684	0.9005	0.3224	-0.519
Mof_O 	O 	0.0806	0.0381	0.3413	-0.748
Mof_O 	O 	0.414	0.9716	0.6426	-0.445
Mof_C 	C 	0.3724	0.8113	0.8466	0.52
Mof_O 	O 	0.3759	0.9132	0.8718	-0.493
Mof_C 	C 	0.209	0.0552	0.4284	-0.258
Mof_C 	C 	0.32	0.0903	0.5571	-0.147
Mof_C 	C 	0.3882	0.0704	0.6347	0.377
Mof_C 	C 	0.2065	0.1606	0.4715	0.083
Mof_H 	H 	0.1658	0.2146	0.4535	-0.005
Mof_C 	C 	0.3021	0.747	0.8915	-0.17
Mof_S 	S 	0.23328	0.8146	0.9764	0.145
Mof_O 	O 	0.0556	0.6148	0.0589	-0.563
Mof_O 	O 	0.0944	0.782	0.1187	-0.549
Mof_C 	C 	0.1033	0.6959	0.0635	0.53
Mof_C 	C 	0.2108	0.6061	0.9354	0.002
Mof_H 	H 	0.1884	0.5326	0.934	0.045
Mof_C 	C 	0.1762	0.6948	0.9915	-0.149
Mof_C 	C 	0.271	0.1803	0.5457	-0.02
Mof_H 	H 	0.2791	0.2491	0.5833	0.049
Mof_C 	C 	0.2835	0.6378	0.8802	0.046
Mof_H 	H 	0.3162	0.5869	0.8392	0.015
Mof_Eu	Eu	4.54472e-33	0.5	0.19727	2.239
Mof_Eu	Eu	0.5	1.06404e-32	0.80273	2.301
Mof_Cl	Cl	-9.93557e-34	0	0.1197	-0.781
Mof_Cl	Cl	0.5	0.5	0.8803	-0.704
_end
