data_functionalizedCrystal
_audit_creation_method	'EQeq! by Chris Wilmer'
_symmetry_space_group_name_H-M	'P1'
_symmetry_Int_Tables_number	1
_symmetry_cell_setting	triclinic
loop_
_symmetry_equiv_pos_as_xyz
  x,y,z
_cell_length_a	9.758
_cell_length_b	16.575
_cell_length_c	21.452
_cell_angle_alpha	104.13
_cell_angle_beta	100.68
_cell_angle_gamma	96.53
loop_
_atom_site_label
_atom_site_type_symbol
_atom_site_fract_x
_atom_site_fract_y
_atom_site_fract_z
_atom_site_charge
Mof_Ce	Ce	0.2772	0.51746	0.99827	2.686
Mof_I 	I 	0.76373	0.99164	0.50025	-0.718
Mof_I 	I 	0.98493	0.77848	0.46957	-0.614
Mof_I 	I 	0.08712	0.97835	0.67145	-0.613
Mof_I 	I 	0.70094	0.78769	0.6122	-0.597
Mof_Cu	Cu	0.01258	0.94228	0.53908	0.698
Mof_Cu	Cu	0.75388	0.82695	0.50223	0.732
Mof_Cu	Cu	0.82017	0.94511	0.62078	0.73
Mof_Cu	Cu	0.96305	0.81685	0.59713	0.723
Mof_O 	O 	0.1732	0.5493	0.0943	-0.635
Mof_O 	O 	0.9459	0.4892	0.0751	-0.681
Mof_O 	O 	0.5438	0.3703	0.9264	-0.622
Mof_O 	O 	0.3243	0.4052	0.912	-0.637
Mof_O 	O 	0.355	0.5871	0.9188	-0.591
Mof_O 	O 	0.5688	0.5499	0.9372	-0.68
Mof_N 	N 	0.5782	0.7631	0.4349	-0.249
Mof_N 	N 	0.7056	0.0261	0.6661	-0.25
Mof_N 	N 	0.0979	0.7499	0.6375	-0.246
Mof_C 	C 	0.4528	0.7862	0.4383	0.104
Mof_H 	H 	0.4494	0.8347	0.4703	-0.013
Mof_C 	C 	0.3279	0.7417	0.3965	-0.179
Mof_H 	H 	0.2424	0.758	0.4031	0.111
Mof_C 	C 	0.3289	0.6721	0.3444	0.124
Mof_C 	C 	0.4599	0.6483	0.3402	-0.176
Mof_H 	H 	0.4675	0.6011	0.3079	0.095
Mof_C 	C 	0.5786	0.6966	0.3854	0.099
Mof_H 	H 	0.6658	0.6814	0.3807	-0.016
Mof_C 	C 	0.1964	0.6232	0.298	-0.083
Mof_C 	C 	0.1908	0.5971	0.2308	0.066
Mof_H 	H 	0.2716	0.6089	0.2154	0.009
Mof_C 	C 	0.0674	0.5538	0.1863	-0.214
Mof_C 	C 	0.9469	0.5318	0.2098	0.091
Mof_H 	H 	0.8655	0.4995	0.1806	-0.009
Mof_C 	C 	0.9499	0.5578	0.2757	-0.135
Mof_H 	H 	0.8702	0.5435	0.2912	0.077
Mof_C 	C 	0.0706	0.6053	0.3192	0.019
Mof_H 	H 	0.0691	0.6259	0.3634	0.039
Mof_C 	C 	0.0605	0.5274	0.1142	0.524
Mof_C 	C 	0.7601	0.1038	0.7087	0.1
Mof_H 	H 	0.8579	0.1199	0.7207	-0.02
Mof_C 	C 	0.6806	0.1573	0.7337	-0.18
Mof_H 	H 	0.7241	0.2086	0.7636	0.088
Mof_C 	C 	0.5317	0.1386	0.7163	0.121
Mof_C 	C 	0.473	0.0564	0.6703	-0.176
Mof_H 	H 	0.3759	0.0387	0.6556	0.109
Mof_C 	C 	0.5664	0.0064	0.6497	0.111
Mof_H 	H 	0.5284	0.9532	0.6214	-0.023
Mof_C 	C 	0.4333	0.1944	0.7406	-0.088
Mof_C 	C 	0.4718	0.2543	0.8032	0.082
Mof_H 	H 	0.5625	0.261	0.8289	-0
Mof_C 	C 	0.3772	0.3025	0.8265	-0.215
Mof_C 	C 	0.2441	0.2943	0.787	0.111
Mof_H 	H 	0.1793	0.3263	0.8029	-0.01
Mof_C 	C 	0.2057	0.2399	0.7247	-0.157
Mof_H 	H 	0.1179	0.2376	0.698	0.088
Mof_C 	C 	0.2982	0.1883	0.7018	0.051
Mof_H 	H 	0.2705	0.1496	0.6605	0.002
Mof_C 	C 	0.4176	0.3638	0.893	0.531
Mof_C 	C 	0.2382	0.7677	0.6366	0.089
Mof_H 	H 	0.2665	0.8054	0.6139	-0.017
Mof_C 	C 	0.3382	0.7303	0.6689	-0.173
Mof_H 	H 	0.4317	0.7405	0.6653	0.109
Mof_C 	C 	0.3009	0.6777	0.7069	0.122
Mof_C 	C 	0.1596	0.6624	0.7073	-0.186
Mof_H 	H 	0.1299	0.6283	0.7325	0.093
Mof_C 	C 	0.0641	0.6952	0.6725	0.102
Mof_H 	H 	0.9692	0.6798	0.6721	-0.02
Mof_C 	C 	0.4103	0.6393	0.7434	-0.071
Mof_C 	C 	0.3918	0.6239	0.8029	0.049
Mof_H 	H 	0.3105	0.6348	0.818	0.017
Mof_C 	C 	0.4953	0.5921	0.8396	-0.188
Mof_C 	C 	0.6169	0.5758	0.8189	0.073
Mof_H 	H 	0.6885	0.5588	0.8453	-0.014
Mof_C 	C 	0.6308	0.5859	0.7549	-0.117
Mof_H 	H 	0.7082	0.5703	0.7382	0.07
Mof_C 	C 	0.5305	0.6182	0.7188	0.009
Mof_H 	H 	0.5413	0.6262	0.6785	0.036
Mof_C 	C 	0.4724	0.575	0.9032	0.519
Mof_Ce	Ce	0.7228	0.48254	0.00173	2.687
Mof_I 	I 	0.23627	0.00836	0.49975	-0.717
Mof_I 	I 	0.01507	0.22152	0.53043	-0.613
Mof_I 	I 	0.91288	0.02165	0.32855	-0.612
Mof_I 	I 	0.29906	0.21231	0.3878	-0.596
Mof_Cu	Cu	0.98742	0.05772	0.46092	0.699
Mof_Cu	Cu	0.24612	0.17305	0.49777	0.733
Mof_Cu	Cu	0.17983	0.05489	0.37922	0.731
Mof_Cu	Cu	0.03695	0.18315	0.40287	0.723
Mof_O 	O 	0.8268	0.4507	0.9057	-0.635
Mof_O 	O 	0.0541	0.5108	0.9249	-0.681
Mof_O 	O 	0.4562	0.6297	0.0736	-0.622
Mof_O 	O 	0.6757	0.5948	0.088	-0.637
Mof_O 	O 	0.645	0.4129	0.0812	-0.591
Mof_O 	O 	0.4312	0.4501	0.0628	-0.68
Mof_N 	N 	0.4218	0.2369	0.5651	-0.249
Mof_N 	N 	0.2944	0.9739	0.3339	-0.25
Mof_N 	N 	0.9021	0.2501	0.3625	-0.246
Mof_C 	C 	0.5472	0.2138	0.5617	0.104
Mof_H 	H 	0.5506	0.1653	0.5297	-0.013
Mof_C 	C 	0.6721	0.2583	0.6035	-0.179
Mof_H 	H 	0.7576	0.242	0.5969	0.111
Mof_C 	C 	0.6711	0.3279	0.6556	0.124
Mof_C 	C 	0.5401	0.3517	0.6598	-0.176
Mof_H 	H 	0.5325	0.3989	0.6921	0.095
Mof_C 	C 	0.4214	0.3034	0.6146	0.099
Mof_H 	H 	0.3342	0.3186	0.6193	-0.016
Mof_C 	C 	0.8036	0.3768	0.702	-0.083
Mof_C 	C 	0.8092	0.4029	0.7692	0.066
Mof_H 	H 	0.7284	0.3911	0.7846	0.009
Mof_C 	C 	0.9326	0.4462	0.8137	-0.214
Mof_C 	C 	0.0531	0.4682	0.7902	0.091
Mof_H 	H 	0.1345	0.5005	0.8194	-0.009
Mof_C 	C 	0.0501	0.4422	0.7243	-0.135
Mof_H 	H 	0.1298	0.4565	0.7088	0.077
Mof_C 	C 	0.9294	0.3947	0.6808	0.019
Mof_H 	H 	0.9309	0.3741	0.6366	0.039
Mof_C 	C 	0.9395	0.4726	0.8858	0.524
Mof_C 	C 	0.2399	0.8962	0.2913	0.1
Mof_H 	H 	0.1421	0.8801	0.2793	-0.02
Mof_C 	C 	0.3194	0.8427	0.2663	-0.18
Mof_H 	H 	0.2759	0.7914	0.2364	0.088
Mof_C 	C 	0.4683	0.8614	0.2837	0.121
Mof_C 	C 	0.527	0.9436	0.3297	-0.176
Mof_H 	H 	0.6241	0.9613	0.3444	0.109
Mof_C 	C 	0.4336	0.9936	0.3503	0.111
Mof_H 	H 	0.4716	0.0468	0.3786	-0.023
Mof_C 	C 	0.5667	0.8056	0.2594	-0.088
Mof_C 	C 	0.5282	0.7457	0.1968	0.082
Mof_H 	H 	0.4375	0.739	0.1711	-0
Mof_C 	C 	0.6228	0.6975	0.1735	-0.215
Mof_C 	C 	0.7559	0.7057	0.213	0.111
Mof_H 	H 	0.8207	0.6737	0.1971	-0.01
Mof_C 	C 	0.7943	0.7601	0.2753	-0.157
Mof_H 	H 	0.8821	0.7624	0.302	0.088
Mof_C 	C 	0.7018	0.8117	0.2982	0.051
Mof_H 	H 	0.7295	0.8504	0.3395	0.002
Mof_C 	C 	0.5824	0.6362	0.107	0.531
Mof_C 	C 	0.7618	0.2323	0.3634	0.089
Mof_H 	H 	0.7335	0.1946	0.3861	-0.017
Mof_C 	C 	0.6618	0.2697	0.3311	-0.173
Mof_H 	H 	0.5683	0.2595	0.3347	0.109
Mof_C 	C 	0.6991	0.3223	0.2931	0.122
Mof_C 	C 	0.8404	0.3376	0.2927	-0.186
Mof_H 	H 	0.8701	0.3717	0.2675	0.093
Mof_C 	C 	0.9359	0.3048	0.3275	0.102
Mof_H 	H 	0.0308	0.3202	0.3279	-0.02
Mof_C 	C 	0.5897	0.3607	0.2566	-0.071
Mof_C 	C 	0.6082	0.3761	0.1971	0.049
Mof_H 	H 	0.6895	0.3652	0.182	0.017
Mof_C 	C 	0.5047	0.4079	0.1604	-0.188
Mof_C 	C 	0.3831	0.4242	0.1811	0.073
Mof_H 	H 	0.3115	0.4412	0.1547	-0.014
Mof_C 	C 	0.3692	0.4141	0.2451	-0.117
Mof_H 	H 	0.2918	0.4297	0.2618	0.07
Mof_C 	C 	0.4695	0.3818	0.2812	0.009
Mof_H 	H 	0.4587	0.3738	0.3215	0.036
Mof_C 	C 	0.5276	0.425	0.0968	0.519
_end
