data_functionalizedCrystal
_audit_creation_method	'EQeq! by Chris Wilmer'
_symmetry_space_group_name_H-M	'P1'
_symmetry_Int_Tables_number	1
_symmetry_cell_setting	triclinic
loop_
_symmetry_equiv_pos_as_xyz
  x,y,z
_cell_length_a	8.717
_cell_length_b	13.083
_cell_length_c	31.05
_cell_angle_alpha	90
_cell_angle_beta	90
_cell_angle_gamma	90
loop_
_atom_site_label
_atom_site_type_symbol
_atom_site_fract_x
_atom_site_fract_y
_atom_site_fract_z
_atom_site_charge
Mof_Pr	Pr	0.66878	0.23915	0.9067	2.336
Mof_Pr	Pr	0.83122	0.73915	0.0933	2.319
Mof_Pr	Pr	0.33122	0.76085	0.4067	2.336
Mof_Pr	Pr	0.16878	0.26085	0.5933	2.319
Mof_Pr	Pr	0.33122	0.76085	0.0933	2.335
Mof_Pr	Pr	0.16878	0.26085	0.9067	2.318
Mof_Pr	Pr	0.66878	0.23915	0.5933	2.335
Mof_Pr	Pr	0.83122	0.73915	0.4067	2.318
Mof_H 	H 	0.6171	0.8761	0.8738	0.176
Mof_H 	H 	0.76	0.8675	0.9044	0.178
Mof_H 	H 	0.5336	0.783	0.9326	-0.099
Mof_H 	H 	0.457	0.8909	0.9373	-0.083
Mof_H 	H 	0.6449	0.9396	0.9873	0.189
Mof_H 	H 	0.7275	0.8341	0.9817	0.18
Mof_H 	H 	0.9956	0.0928	0.7916	0.191
Mof_H 	H 	0.0561	0.2056	0.7906	0.195
Mof_H 	H 	0.8829	0.3761	0.1262	0.173
Mof_H 	H 	0.74	0.3675	0.0956	0.177
Mof_H 	H 	0.9664	0.283	0.0674	-0.097
Mof_H 	H 	0.043	0.3909	0.0627	-0.078
Mof_H 	H 	0.8551	0.4396	0.0127	0.189
Mof_H 	H 	0.7725	0.3341	0.0183	0.179
Mof_H 	H 	0.5044	0.5928	0.2084	0.203
Mof_H 	H 	0.4439	0.7056	0.2094	0.219
Mof_H 	H 	0.3829	0.1239	0.3738	0.176
Mof_H 	H 	0.24	0.1325	0.4044	0.178
Mof_H 	H 	0.4664	0.217	0.4326	-0.099
Mof_H 	H 	0.543	0.1091	0.4373	-0.083
Mof_H 	H 	0.3551	0.0604	0.4873	0.189
Mof_H 	H 	0.2725	0.1659	0.4817	0.18
Mof_H 	H 	0.0044	0.9072	0.2916	0.191
Mof_H 	H 	0.9439	0.7944	0.2906	0.195
Mof_H 	H 	0.1171	0.6239	0.6262	0.173
Mof_H 	H 	0.26	0.6325	0.5956	0.177
Mof_H 	H 	0.0336	0.717	0.5674	-0.097
Mof_H 	H 	0.957	0.6091	0.5627	-0.079
Mof_H 	H 	0.1449	0.5604	0.5127	0.189
Mof_H 	H 	0.2275	0.6659	0.5183	0.179
Mof_H 	H 	0.4956	0.4072	0.7084	0.203
Mof_H 	H 	0.5561	0.2944	0.7094	0.219
Mof_H 	H 	0.3829	0.1239	0.1262	0.176
Mof_H 	H 	0.24	0.1325	0.0956	0.178
Mof_H 	H 	0.4664	0.217	0.0674	-0.099
Mof_H 	H 	0.543	0.1091	0.0627	-0.083
Mof_H 	H 	0.3551	0.0604	0.0127	0.189
Mof_H 	H 	0.2725	0.1659	0.0183	0.18
Mof_H 	H 	0.0044	0.9072	0.2084	0.191
Mof_H 	H 	0.9439	0.7944	0.2094	0.195
Mof_H 	H 	0.1171	0.6239	0.8738	0.173
Mof_H 	H 	0.26	0.6325	0.9044	0.177
Mof_H 	H 	0.0336	0.717	0.9326	-0.097
Mof_H 	H 	0.957	0.6091	0.9373	-0.078
Mof_H 	H 	0.1449	0.5604	0.9873	0.189
Mof_H 	H 	0.2275	0.6659	0.9817	0.179
Mof_H 	H 	0.4956	0.4072	0.7916	0.203
Mof_H 	H 	0.5561	0.2944	0.7906	0.219
Mof_H 	H 	0.6171	0.8761	0.6262	0.176
Mof_H 	H 	0.76	0.8675	0.5956	0.178
Mof_H 	H 	0.5336	0.783	0.5674	-0.099
Mof_H 	H 	0.457	0.8909	0.5627	-0.083
Mof_H 	H 	0.6449	0.9396	0.5127	0.189
Mof_H 	H 	0.7275	0.8341	0.5183	0.18
Mof_H 	H 	0.9956	0.0928	0.7084	0.191
Mof_H 	H 	0.0561	0.2056	0.7094	0.195
Mof_H 	H 	0.8829	0.3761	0.3738	0.173
Mof_H 	H 	0.74	0.3675	0.4044	0.177
Mof_H 	H 	0.9664	0.283	0.4326	-0.097
Mof_H 	H 	0.043	0.3909	0.4373	-0.079
Mof_H 	H 	0.8551	0.4396	0.4873	0.189
Mof_H 	H 	0.7725	0.3341	0.4817	0.179
Mof_H 	H 	0.5044	0.5928	0.2916	0.203
Mof_H 	H 	0.4439	0.7056	0.2906	0.219
Mof_H 	H 	0.7845	0.1396	0.75	-0.095
Mof_H 	H 	0.8396	0.2535	0.75	-0.118
Mof_H 	H 	0.7155	0.6396	0.25	-0.109
Mof_H 	H 	0.6604	0.7535	0.25	-0.134
Mof_H 	H 	0.2155	0.8604	0.25	-0.095
Mof_H 	H 	0.1604	0.7465	0.25	-0.118
Mof_H 	H 	0.2845	0.3604	0.75	-0.109
Mof_H 	H 	0.3396	0.2465	0.75	-0.134
Mof_C 	C 	0.6677	0.0131	0.90388	0.463
Mof_C 	C 	0.6581	0.8964	0.9016	-0.539
Mof_C 	C 	0.5541	0.8548	0.9378	0.355
Mof_C 	C 	0.628	0.8674	0.982	-0.589
Mof_C 	C 	0.5354	0.8243	0.0185	0.552
Mof_C 	C 	0.8736	0.1875	0.83093	0.574
Mof_C 	C 	0.9641	0.1639	0.7909	-0.632
Mof_C 	C 	0.8323	0.5131	0.09612	0.461
Mof_C 	C 	0.8419	0.3964	0.0984	-0.534
Mof_C 	C 	0.9459	0.3548	0.0622	0.346
Mof_C 	C 	0.872	0.3674	0.018	-0.588
Mof_C 	C 	0.9646	0.3243	0.9815	0.556
Mof_C 	C 	0.6264	0.6875	0.16907	0.59
Mof_C 	C 	0.5359	0.6639	0.2091	-0.686
Mof_C 	C 	0.3323	0.9869	0.40388	0.463
Mof_C 	C 	0.3419	0.1036	0.4016	-0.539
Mof_C 	C 	0.4459	0.1452	0.4378	0.355
Mof_C 	C 	0.372	0.1326	0.482	-0.59
Mof_C 	C 	0.4646	0.1757	0.5185	0.553
Mof_C 	C 	0.1264	0.8125	0.33093	0.574
Mof_C 	C 	0.0359	0.8361	0.2909	-0.632
Mof_C 	C 	0.1677	0.4869	0.59612	0.461
Mof_C 	C 	0.1581	0.6036	0.5984	-0.534
Mof_C 	C 	0.0541	0.6452	0.5622	0.347
Mof_C 	C 	0.128	0.6326	0.518	-0.588
Mof_C 	C 	0.0354	0.6757	0.4815	0.556
Mof_C 	C 	0.3736	0.3125	0.66907	0.59
Mof_C 	C 	0.4641	0.3361	0.7091	-0.686
Mof_C 	C 	0.3323	0.9869	0.09612	0.463
Mof_C 	C 	0.3419	0.1036	0.0984	-0.539
Mof_C 	C 	0.4459	0.1452	0.0622	0.355
Mof_C 	C 	0.372	0.1326	0.018	-0.589
Mof_C 	C 	0.4646	0.1757	0.9815	0.552
Mof_C 	C 	0.1264	0.8125	0.16907	0.574
Mof_C 	C 	0.0359	0.8361	0.2091	-0.632
Mof_C 	C 	0.1677	0.4869	0.90388	0.461
Mof_C 	C 	0.1581	0.6036	0.9016	-0.534
Mof_C 	C 	0.0541	0.6452	0.9378	0.346
Mof_C 	C 	0.128	0.6326	0.982	-0.588
Mof_C 	C 	0.0354	0.6757	0.0185	0.556
Mof_C 	C 	0.3736	0.3125	0.83093	0.59
Mof_C 	C 	0.4641	0.3361	0.7909	-0.686
Mof_C 	C 	0.6677	0.0131	0.59612	0.463
Mof_C 	C 	0.6581	0.8964	0.5984	-0.539
Mof_C 	C 	0.5541	0.8548	0.5622	0.355
Mof_C 	C 	0.628	0.8674	0.518	-0.59
Mof_C 	C 	0.5354	0.8243	0.4815	0.553
Mof_C 	C 	0.8736	0.1875	0.66907	0.574
Mof_C 	C 	0.9641	0.1639	0.7091	-0.632
Mof_C 	C 	0.8323	0.5131	0.40388	0.461
Mof_C 	C 	0.8419	0.3964	0.4016	-0.534
Mof_C 	C 	0.9459	0.3548	0.4378	0.347
Mof_C 	C 	0.872	0.3674	0.482	-0.588
Mof_C 	C 	0.9646	0.3243	0.5185	0.556
Mof_C 	C 	0.6264	0.6875	0.33093	0.59
Mof_C 	C 	0.5359	0.6639	0.2909	-0.686
Mof_C 	C 	0.8746	0.1831	0.75	0.435
Mof_C 	C 	0.6254	0.6831	0.25	0.481
Mof_C 	C 	0.1254	0.8169	0.25	0.435
Mof_C 	C 	0.3746	0.3169	0.75	0.481
Mof_O 	O 	0.7875	0.0579	0.91538	-0.505
Mof_O 	O 	0.5477	0.0648	0.89508	-0.505
Mof_O 	O 	0.3915	0.8262	0.01751	-0.54
Mof_O 	O 	0.6056	0.787	0.05114	-0.718
Mof_O 	O 	0.7319	0.1762	0.83135	-0.548
Mof_O 	O 	0.9432	0.2162	0.86528	-0.727
Mof_O 	O 	0.7125	0.5579	0.08462	-0.505
Mof_O 	O 	0.9523	0.5648	0.10492	-0.506
Mof_O 	O 	0.1085	0.3262	0.98249	-0.542
Mof_O 	O 	0.8944	0.287	0.94886	-0.718
Mof_O 	O 	0.7681	0.6762	0.16865	-0.553
Mof_O 	O 	0.5568	0.7162	0.13472	-0.738
Mof_O 	O 	0.2125	0.9421	0.41538	-0.505
Mof_O 	O 	0.4523	0.9352	0.39508	-0.505
Mof_O 	O 	0.6085	0.1738	0.51751	-0.54
Mof_O 	O 	0.3944	0.213	0.55114	-0.718
Mof_O 	O 	0.2681	0.8238	0.33135	-0.548
Mof_O 	O 	0.0568	0.7838	0.36528	-0.728
Mof_O 	O 	0.2875	0.4421	0.58462	-0.505
Mof_O 	O 	0.0477	0.4352	0.60492	-0.506
Mof_O 	O 	0.8915	0.6738	0.48249	-0.541
Mof_O 	O 	0.1056	0.713	0.44886	-0.718
Mof_O 	O 	0.2319	0.3238	0.66865	-0.553
Mof_O 	O 	0.4432	0.2838	0.63472	-0.738
Mof_O 	O 	0.2125	0.9421	0.08462	-0.505
Mof_O 	O 	0.4523	0.9352	0.10492	-0.505
Mof_O 	O 	0.6085	0.1738	0.98249	-0.54
Mof_O 	O 	0.3944	0.213	0.94886	-0.718
Mof_O 	O 	0.2681	0.8238	0.16865	-0.548
Mof_O 	O 	0.0568	0.7838	0.13472	-0.727
Mof_O 	O 	0.2875	0.4421	0.91538	-0.505
Mof_O 	O 	0.0477	0.4352	0.89508	-0.506
Mof_O 	O 	0.8915	0.6738	0.01751	-0.542
Mof_O 	O 	0.1056	0.713	0.05114	-0.718
Mof_O 	O 	0.2319	0.3238	0.83135	-0.553
Mof_O 	O 	0.4432	0.2838	0.86528	-0.738
Mof_O 	O 	0.7875	0.0579	0.58462	-0.505
Mof_O 	O 	0.5477	0.0648	0.60492	-0.505
Mof_O 	O 	0.3915	0.8262	0.48249	-0.54
Mof_O 	O 	0.6056	0.787	0.44886	-0.718
Mof_O 	O 	0.7319	0.1762	0.66865	-0.548
Mof_O 	O 	0.9432	0.2162	0.63472	-0.728
Mof_O 	O 	0.7125	0.5579	0.41538	-0.505
Mof_O 	O 	0.9523	0.5648	0.39508	-0.506
Mof_O 	O 	0.1085	0.3262	0.51751	-0.541
Mof_O 	O 	0.8944	0.287	0.55114	-0.718
Mof_O 	O 	0.7681	0.6762	0.33135	-0.553
Mof_O 	O 	0.5568	0.7162	0.36528	-0.738
_end
