data_functionalizedCrystal
_audit_creation_method	'EQeq! by Chris Wilmer'
_symmetry_space_group_name_H-M	'P1'
_symmetry_Int_Tables_number	1
_symmetry_cell_setting	triclinic
loop_
_symmetry_equiv_pos_as_xyz
  x,y,z
_cell_length_a	13.775
_cell_length_b	14.507
_cell_length_c	24.244
_cell_angle_alpha	83.217
_cell_angle_beta	81.797
_cell_angle_gamma	65.572
loop_
_atom_site_label
_atom_site_type_symbol
_atom_site_fract_x
_atom_site_fract_y
_atom_site_fract_z
_atom_site_charge
Mof_Cd	Cd	0.74745	0.77374	0.60062	0.502
Mof_Cd	Cd	0.75074	0.74967	0.74979	0.536
Mof_Cd	Cd	0.2716	0.2598	0.1036	0.245
Mof_O 	O 	0.361	0.3003	0.0271	-0.157
Mof_Si	Si	0.36915	0.39464	0.73624	0.733
Mof_Si	Si	0.1289	0.1054	0.7647	0.837
Mof_O 	O 	0.8684	0.7265	0.6699	-0.291
Mof_O 	O 	0.9138	0.6285	0.5996	-0.252
Mof_O 	O 	0.2172	0.2802	0.0096	-0.221
Mof_O 	O 	0.629	0.8817	0.6927	-0.295
Mof_O 	O 	0.6519	0.9344	0.6181	-0.277
Mof_O 	O 	0.6502	0.6837	0.6292	-0.284
Mof_O 	O 	0.6792	0.6628	0.716	-0.297
Mof_O 	O 	0.2844	0.2093	0.4904	-0.272
Mof_O 	O 	0.1578	0.1625	0.4775	-0.294
Mof_O 	O 	0.8515	0.5961	0.7896	-0.28
Mof_O 	O 	0.631	0.7686	0.8311	-0.266
Mof_O 	O 	0.5894	0.8717	0.8999	-0.273
Mof_O 	O 	0.8979	0.5662	0.8778	-0.222
Mof_C 	C 	0.9337	0.6519	0.6447	0.271
Mof_C 	C 	0.0405	0.5868	0.6659	0.001
Mof_C 	C 	0.1104	0.4998	0.6397	-0.107
Mof_H 	H 	0.0913	0.4813	0.6078	0.082
Mof_C 	C 	0.2082	0.44	0.66	0.088
Mof_H 	H 	0.2559	0.3806	0.6421	-0.01
Mof_C 	C 	0.2361	0.4672	0.7066	-0.26
Mof_C 	C 	0.1662	0.5541	0.7328	0.082
Mof_H 	H 	0.1853	0.5727	0.7646	-0.003
Mof_C 	C 	0.0684	0.6139	0.7125	-0.1
Mof_H 	H 	0.0206	0.6733	0.7304	0.079
Mof_C 	C 	0.3014	0.308	0.9904	0.26
Mof_C 	C 	0.3061	0.3423	0.9292	0.022
Mof_C 	C 	0.3888	0.3716	0.9077	-0.11
Mof_H 	H 	0.4325	0.3796	0.9322	0.088
Mof_C 	C 	0.4077	0.3894	0.8504	0.098
Mof_H 	H 	0.4643	0.4095	0.8357	-0.011
Mof_C 	C 	0.3438	0.3778	0.8146	-0.263
Mof_C 	C 	0.261	0.3484	0.8361	0.093
Mof_H 	H 	0.2174	0.3405	0.8116	-0.007
Mof_C 	C 	0.2422	0.3307	0.8934	-0.105
Mof_H 	H 	0.1856	0.3106	0.9081	0.085
Mof_C 	C 	0.6267	0.9552	0.6652	0.37
Mof_C 	C 	0.5635	0.0628	0.6814	-0.037
Mof_C 	C 	0.5378	0.1425	0.6406	-0.075
Mof_H 	H 	0.5611	0.1293	0.6025	0.077
Mof_C 	C 	0.4781	0.2415	0.6556	0.071
Mof_H 	H 	0.4606	0.2959	0.6277	-0.007
Mof_C 	C 	0.4439	0.261	0.7115	-0.245
Mof_C 	C 	0.4695	0.1813	0.7523	0.062
Mof_H 	H 	0.4462	0.1945	0.7905	0.003
Mof_C 	C 	0.5293	0.0823	0.7373	-0.066
Mof_H 	H 	0.5468	0.0279	0.7652	0.073
Mof_C 	C 	0.6402	0.6504	0.6776	0.328
Mof_C 	C 	0.5752	0.587	0.6887	-0.001
Mof_C 	C 	0.4548	0.4712	0.7156	-0.273
Mof_C 	C 	0.4786	0.6159	0.6664	-0.071
Mof_H 	H 	0.4536	0.6752	0.642	0.07
Mof_C 	C 	0.4183	0.5581	0.6798	0.052
Mof_H 	H 	0.3523	0.5778	0.6645	0.003
Mof_C 	C 	0.5514	0.4423	0.7379	0.055
Mof_H 	H 	0.5764	0.383	0.7623	-0.001
Mof_C 	C 	0.6116	0.5002	0.7245	-0.071
Mof_H 	H 	0.6776	0.4805	0.7398	0.063
Mof_O 	O 	0.8444	0.8192	0.8711	-0.073
Mof_O 	O 	0.8829	0.7847	0.7869	-0.039
Mof_C 	C 	0.8976	0.8231	0.83	-1.037
Mof_C 	C 	0.9608	0.8876	0.8146	1.879
Mof_C 	C 	0.0379	0.8674	0.7687	-1.451
Mof_H 	H 	0.0511	0.8126	0.7467	0.538
Mof_C 	C 	0.0957	0.9275	0.755	1.4
Mof_H 	H 	0.1483	0.9137	0.7236	-0.44
Mof_C 	C 	0.0764	0.0077	0.7871	-1.47
Mof_C 	C 	0.9993	0.0279	0.833	1.69
Mof_H 	H 	0.9861	0.0827	0.855	-0.593
Mof_C 	C 	0.9416	0.9678	0.8467	-1.123
Mof_H 	H 	0.8889	0.9816	0.8781	0.449
Mof_C 	C 	0.2154	0.1791	0.5077	0.302
Mof_C 	C 	0.1983	0.1544	0.5696	0.005
Mof_C 	C 	0.1137	0.1295	0.5937	-0.102
Mof_H 	H 	0.0645	0.1282	0.5704	0.087
Mof_C 	C 	0.0988	0.1065	0.6507	0.1
Mof_H 	H 	0.0402	0.0898	0.6657	-0.019
Mof_C 	C 	0.1697	0.1079	0.6857	-0.273
Mof_C 	C 	0.2545	0.1327	0.6619	0.102
Mof_H 	H 	0.3038	0.1341	0.6852	-0.008
Mof_C 	C 	0.2689	0.1557	0.6048	-0.102
Mof_H 	H 	0.3275	0.1724	0.5898	0.085
Mof_C 	C 	0.8776	0.5424	0.8296	0.273
Mof_C 	C 	0.9503	0.4344	0.8172	0.038
Mof_C 	C 	0.9838	0.4133	0.7615	-0.139
Mof_H 	H 	0.9674	0.467	0.7332	0.098
Mof_C 	C 	0.0412	0.3135	0.7473	0.127
Mof_H 	H 	0.064	0.2992	0.7092	-0.029
Mof_C 	C 	0.0652	0.2348	0.7887	-0.351
Mof_C 	C 	0.0319	0.2557	0.8444	0.145
Mof_H 	H 	0.0482	0.202	0.8727	-0.018
Mof_C 	C 	0.9744	0.3555	0.8585	-0.146
Mof_H 	H 	0.9516	0.3699	0.8966	0.099
Mof_C 	C 	0.5666	0.8534	0.8586	0.266
Mof_C 	C 	0.4612	0.9138	0.8349	0.009
Mof_C 	C 	0.4348	0.8857	0.7882	-0.1
Mof_H 	H 	0.4834	0.8265	0.7704	0.087
Mof_C 	C 	0.3371	0.9444	0.7674	0.088
Mof_H 	H 	0.319	0.9251	0.7355	0.013
Mof_C 	C 	0.2658	0.0311	0.7934	-0.254
Mof_C 	C 	0.2923	0.0592	0.8401	0.086
Mof_H 	H 	0.2436	0.1185	0.8579	-0.008
Mof_C 	C 	0.39	0.0006	0.8609	-0.111
Mof_H 	H 	0.4081	0.0198	0.8928	0.084
Mof_Cd	Cd	0.2262	0.2859	0.09812	0.217
Mof_O 	O 	0.3106	0.3691	0.0202	-0.138
Mof_C 	C 	0.4371	0.5513	0.7475	0.047
Mof_H 	H 	0.3838	0.5664	0.7786	0.006
Mof_C 	C 	0.4972	0.6092	0.7342	-0.06
Mof_H 	H 	0.485	0.6639	0.7561	0.06
Mof_C 	C 	0.5927	0.507	0.6569	-0.064
Mof_H 	H 	0.646	0.4919	0.6258	0.054
Mof_C 	C 	0.5327	0.4489	0.6701	0.048
Mof_H 	H 	0.5449	0.3942	0.6482	-0.002
Mof_O 	O 	0.7688	0.8778	0.7822	-0.423
Mof_C 	C 	0.8343	0.8771	0.8211	1.218
Mof_C 	C 	0.8952	0.9442	0.8095	-1.655
Mof_C 	C 	0.9892	0.9142	0.8346	0.614
Mof_H 	H 	0.0099	0.8562	0.8602	-0.301
Mof_C 	C 	0.0529	0.9688	0.8223	-1.325
Mof_H 	H 	0.1171	0.9482	0.8395	0.523
Mof_C 	C 	0.0227	0.0536	0.7848	1.063
Mof_C 	C 	0.9287	0.0837	0.7596	-1.202
Mof_H 	H 	0.908	0.1417	0.734	0.409
Mof_C 	C 	0.8651	0.029	0.772	1.256
Mof_H 	H 	0.8009	0.0496	0.7548	-0.373
Mof_Cd	Cd	0.2301	0.7816	0.4819	0.355
Mof_O 	O 	0.208	0.9191	0.4159	-0.349
Mof_O 	O 	0.288	0.861	0.5413	-0.123
Mof_O 	O 	0.0489	0.876	0.5116	-0.134
Mof_O 	O 	0.696	0.949	0.61	-0.037
Mof_Cd	Cd	0.1783	0.0042	0.44838	0.57
Mof_O 	O 	0.3132	0.92	0.5082	-0.123
Mof_O 	O 	0.072	0.95	0.5177	-0.12
Mof_Cd	Cd	0.25255	0.22626	0.39938	0.502
Mof_Cd	Cd	0.24926	0.25033	0.25021	0.536
Mof_Cd	Cd	0.7284	0.7402	0.8964	0.245
Mof_O 	O 	0.639	0.6997	0.9729	-0.157
Mof_Si	Si	0.63085	0.60536	0.26376	0.733
Mof_Si	Si	0.8711	0.8946	0.2353	0.837
Mof_O 	O 	0.1316	0.2735	0.3301	-0.291
Mof_O 	O 	0.0862	0.3715	0.4004	-0.252
Mof_O 	O 	0.7828	0.7198	0.9904	-0.221
Mof_O 	O 	0.371	0.1183	0.3073	-0.295
Mof_O 	O 	0.3481	0.0656	0.3819	-0.277
Mof_O 	O 	0.3498	0.3163	0.3708	-0.284
Mof_O 	O 	0.3208	0.3372	0.284	-0.297
Mof_O 	O 	0.7156	0.7907	0.5096	-0.272
Mof_O 	O 	0.8422	0.8375	0.5225	-0.294
Mof_O 	O 	0.1485	0.4039	0.2104	-0.28
Mof_O 	O 	0.369	0.2314	0.1689	-0.266
Mof_O 	O 	0.4106	0.1283	0.1001	-0.273
Mof_O 	O 	0.1021	0.4338	0.1222	-0.222
Mof_C 	C 	0.0663	0.3481	0.3553	0.271
Mof_C 	C 	0.9595	0.4132	0.3341	0.001
Mof_C 	C 	0.8896	0.5002	0.3603	-0.107
Mof_H 	H 	0.9087	0.5187	0.3922	0.082
Mof_C 	C 	0.7918	0.56	0.34	0.088
Mof_H 	H 	0.7441	0.6194	0.3579	-0.01
Mof_C 	C 	0.7639	0.5328	0.2934	-0.26
Mof_C 	C 	0.8338	0.4459	0.2672	0.082
Mof_H 	H 	0.8147	0.4273	0.2354	-0.003
Mof_C 	C 	0.9316	0.3861	0.2875	-0.1
Mof_H 	H 	0.9794	0.3267	0.2696	0.079
Mof_C 	C 	0.6986	0.692	0.0096	0.26
Mof_C 	C 	0.6939	0.6577	0.0708	0.022
Mof_C 	C 	0.6112	0.6284	0.0923	-0.11
Mof_H 	H 	0.5675	0.6204	0.0678	0.088
Mof_C 	C 	0.5923	0.6106	0.1496	0.098
Mof_H 	H 	0.5357	0.5905	0.1643	-0.011
Mof_C 	C 	0.6562	0.6222	0.1854	-0.263
Mof_C 	C 	0.739	0.6516	0.1639	0.093
Mof_H 	H 	0.7826	0.6595	0.1884	-0.007
Mof_C 	C 	0.7578	0.6693	0.1066	-0.105
Mof_H 	H 	0.8144	0.6894	0.0919	0.085
Mof_C 	C 	0.3733	0.0448	0.3348	0.37
Mof_C 	C 	0.4365	0.9372	0.3186	-0.037
Mof_C 	C 	0.4622	0.8575	0.3594	-0.075
Mof_H 	H 	0.4389	0.8707	0.3975	0.077
Mof_C 	C 	0.5219	0.7585	0.3444	0.071
Mof_H 	H 	0.5394	0.7041	0.3723	-0.007
Mof_C 	C 	0.5561	0.739	0.2885	-0.245
Mof_C 	C 	0.5305	0.8187	0.2477	0.062
Mof_H 	H 	0.5538	0.8055	0.2095	0.003
Mof_C 	C 	0.4707	0.9177	0.2627	-0.066
Mof_H 	H 	0.4532	0.9721	0.2348	0.073
Mof_C 	C 	0.3598	0.3496	0.3224	0.328
Mof_C 	C 	0.4248	0.413	0.3113	-0.001
Mof_C 	C 	0.5452	0.5288	0.2844	-0.273
Mof_C 	C 	0.5214	0.3841	0.3336	-0.071
Mof_H 	H 	0.5464	0.3248	0.358	0.07
Mof_C 	C 	0.5817	0.4419	0.3202	0.052
Mof_H 	H 	0.6477	0.4222	0.3355	0.003
Mof_C 	C 	0.4486	0.5577	0.2621	0.055
Mof_H 	H 	0.4236	0.617	0.2377	-0.001
Mof_C 	C 	0.3884	0.4998	0.2755	-0.071
Mof_H 	H 	0.3224	0.5195	0.2602	0.063
Mof_O 	O 	0.1556	0.1808	0.1289	-0.073
Mof_O 	O 	0.1171	0.2153	0.2131	-0.039
Mof_C 	C 	0.1024	0.1769	0.17	-1.037
Mof_C 	C 	0.0392	0.1124	0.1854	1.879
Mof_C 	C 	0.9621	0.1326	0.2313	-1.451
Mof_H 	H 	0.9489	0.1874	0.2533	0.538
Mof_C 	C 	0.9043	0.0725	0.245	1.4
Mof_H 	H 	0.8517	0.0863	0.2764	-0.44
Mof_C 	C 	0.9236	0.9923	0.2129	-1.47
Mof_C 	C 	0.0007	0.9721	0.167	1.69
Mof_H 	H 	0.0139	0.9173	0.145	-0.593
Mof_C 	C 	0.0584	0.0322	0.1533	-1.123
Mof_H 	H 	0.1111	0.0184	0.1219	0.449
Mof_C 	C 	0.7846	0.8209	0.4923	0.302
Mof_C 	C 	0.8017	0.8456	0.4304	0.005
Mof_C 	C 	0.8863	0.8705	0.4063	-0.102
Mof_H 	H 	0.9355	0.8718	0.4296	0.087
Mof_C 	C 	0.9012	0.8935	0.3493	0.1
Mof_H 	H 	0.9598	0.9102	0.3343	-0.019
Mof_C 	C 	0.8303	0.8921	0.3143	-0.273
Mof_C 	C 	0.7455	0.8673	0.3381	0.102
Mof_H 	H 	0.6962	0.8659	0.3148	-0.008
Mof_C 	C 	0.7311	0.8443	0.3952	-0.102
Mof_H 	H 	0.6725	0.8276	0.4102	0.085
Mof_C 	C 	0.1224	0.4576	0.1704	0.273
Mof_C 	C 	0.0497	0.5656	0.1828	0.038
Mof_C 	C 	0.0162	0.5867	0.2385	-0.139
Mof_H 	H 	0.0326	0.533	0.2668	0.098
Mof_C 	C 	0.9588	0.6865	0.2527	0.127
Mof_H 	H 	0.936	0.7008	0.2908	-0.029
Mof_C 	C 	0.9348	0.7652	0.2113	-0.351
Mof_C 	C 	0.9681	0.7443	0.1556	0.145
Mof_H 	H 	0.9518	0.798	0.1273	-0.018
Mof_C 	C 	0.0256	0.6445	0.1415	-0.146
Mof_H 	H 	0.0484	0.6301	0.1034	0.099
Mof_C 	C 	0.4334	0.1466	0.1414	0.266
Mof_C 	C 	0.5388	0.0862	0.1651	0.009
Mof_C 	C 	0.5652	0.1143	0.2118	-0.1
Mof_H 	H 	0.5166	0.1735	0.2296	0.087
Mof_C 	C 	0.6629	0.0556	0.2326	0.088
Mof_H 	H 	0.681	0.0749	0.2645	0.013
Mof_C 	C 	0.7342	0.9689	0.2066	-0.254
Mof_C 	C 	0.7077	0.9408	0.1599	0.086
Mof_H 	H 	0.7564	0.8815	0.1421	-0.008
Mof_C 	C 	0.61	0.9994	0.1391	-0.111
Mof_H 	H 	0.5919	0.9802	0.1072	0.084
Mof_Cd	Cd	0.7738	0.7141	0.90188	0.217
Mof_O 	O 	0.6894	0.6309	0.9798	-0.138
Mof_C 	C 	0.5629	0.4487	0.2525	0.047
Mof_H 	H 	0.6162	0.4336	0.2214	0.006
Mof_C 	C 	0.5028	0.3908	0.2658	-0.06
Mof_H 	H 	0.515	0.3361	0.2439	0.06
Mof_C 	C 	0.4073	0.493	0.3431	-0.064
Mof_H 	H 	0.354	0.5081	0.3742	0.054
Mof_C 	C 	0.4673	0.5511	0.3299	0.048
Mof_H 	H 	0.4551	0.6058	0.3518	-0.002
Mof_O 	O 	0.2312	0.1222	0.2178	-0.423
Mof_C 	C 	0.1657	0.1229	0.1789	1.218
Mof_C 	C 	0.1048	0.0558	0.1905	-1.655
Mof_C 	C 	0.0108	0.0858	0.1654	0.614
Mof_H 	H 	0.9901	0.1438	0.1398	-0.301
Mof_C 	C 	0.9471	0.0312	0.1777	-1.325
Mof_H 	H 	0.8829	0.0518	0.1605	0.523
Mof_C 	C 	0.9773	0.9464	0.2152	1.063
Mof_C 	C 	0.0713	0.9163	0.2404	-1.202
Mof_H 	H 	0.092	0.8583	0.266	0.409
Mof_C 	C 	0.1349	0.971	0.228	1.256
Mof_H 	H 	0.1991	0.9504	0.2452	-0.373
Mof_Cd	Cd	0.7699	0.2184	0.5181	0.355
Mof_O 	O 	0.792	0.0809	0.5841	-0.349
Mof_O 	O 	0.712	0.139	0.4587	-0.123
Mof_O 	O 	0.9511	0.124	0.4884	-0.134
Mof_O 	O 	0.304	0.051	0.39	-0.037
Mof_Cd	Cd	0.8217	0.9958	0.55162	0.57
Mof_O 	O 	0.6868	0.08	0.4918	-0.123
Mof_O 	O 	0.928	0.05	0.4823	-0.12
_end
