data_functionalizedCrystal
_audit_creation_method	'EQeq! by Chris Wilmer'
_symmetry_space_group_name_H-M	'P1'
_symmetry_Int_Tables_number	1
_symmetry_cell_setting	triclinic
loop_
_symmetry_equiv_pos_as_xyz
  x,y,z
_cell_length_a	9.846
_cell_length_b	10.9975
_cell_length_c	12.8415
_cell_angle_alpha	90
_cell_angle_beta	90
_cell_angle_gamma	99.39
loop_
_atom_site_label
_atom_site_type_symbol
_atom_site_fract_x
_atom_site_fract_y
_atom_site_fract_z
_atom_site_charge
Mof_Mg	Mg	0.1241	0.7521	0.0579	1.472
Mof_Mg	Mg	0.3724	0.25096	0.5573	1.475
Mof_Mg	Mg	0.6276	0.74904	0.0573	1.473
Mof_Mg	Mg	0.8759	0.2479	0.5579	1.474
Mof_H 	H 	0.1014	0.0135	0.2793	0.059
Mof_H 	H 	0.6494	0.4768	0.1173	0.009
Mof_H 	H 	0.6207	0.7527	0.3023	0.021
Mof_H 	H 	0.393	0.1334	0.1682	0.034
Mof_H 	H 	0.333	0.648	0.7567	0.037
Mof_H 	H 	0.0514	0.4946	0.8855	0.075
Mof_H 	H 	0.3869	0.2575	0.3105	0.017
Mof_H 	H 	0.6183	0.0211	0.996	0.036
Mof_H 	H 	0.0862	0.1376	0.4195	0.011
Mof_H 	H 	0.6547	0.4983	0.8273	0.062
Mof_H 	H 	0.3793	0.2473	0.8023	0.026
Mof_H 	H 	0.607	0.8666	0.6682	0.046
Mof_H 	H 	0.381	0.3709	0.9448	0.05
Mof_H 	H 	0.9138	0.8624	0.9195	0.024
Mof_H 	H 	0.3058	0.8794	0.8787	0.023
Mof_H 	H 	0.8986	0.9865	0.7793	0.061
Mof_H 	H 	0.619	0.6291	0.4448	0.042
Mof_H 	H 	0.6131	0.7425	0.8105	0.021
Mof_H 	H 	0.3051	0.0071	0.7386	0.059
Mof_H 	H 	0.6949	0.9929	0.2386	0.058
Mof_H 	H 	0.6942	0.1206	0.3787	0.014
Mof_H 	H 	0.9486	0.5054	0.3855	0.07
Mof_H 	H 	0.3453	0.5017	0.3273	0.062
Mof_H 	H 	0.6678	0.3664	0.6907	0.011
Mof_H 	H 	0.9451	0.6352	0.247	0.012
Mof_H 	H 	0.0549	0.3648	0.747	0.015
Mof_H 	H 	0.3949	0.8482	0.36	0.04
Mof_H 	H 	0.667	0.352	0.2567	0.039
Mof_H 	H 	0.3817	0.9789	0.496	0.023
Mof_H 	H 	0.3322	0.6336	0.1907	0.006
Mof_H 	H 	0.3506	0.5232	0.6173	0.026
Mof_H 	H 	0.6051	0.1518	0.86	0.048
Mof_C 	C 	0.9836	0.9677	0.7992	-0.031
Mof_C 	C 	0.9734	0.3938	0.7618	0.043
Mof_C 	C 	0.7761	0.0202	0.2747	-0.042
Mof_C 	C 	0.2528	0.6053	0.2285	0.035
Mof_C 	C 	0.3542	0.523	0.8687	-0.124
Mof_C 	C 	0.6277	0.6702	0.2922	0.018
Mof_C 	C 	0.9035	0.8977	0.1542	0.467
Mof_C 	C 	0.3922	0.931	0.3474	-0.022
Mof_C 	C 	0.647	0.5094	0.184	0.02
Mof_C 	C 	0.1539	0.3977	0.461	0.446
Mof_C 	C 	0.3878	0.174	0.3208	0.023
Mof_C 	C 	0.6081	0.9002	0.7347	-0.031
Mof_C 	C 	0.3919	0.0998	0.2347	-0.027
Mof_C 	C 	0.6078	0.069	0.8474	-0.03
Mof_C 	C 	0.3858	0.0107	0.4288	0.019
Mof_C 	C 	0.3448	0.5668	0.7676	-0.01
Mof_C 	C 	0.3945	0.9747	0.2473	-0.104
Mof_C 	C 	0.353	0.4906	0.684	0.012
Mof_C 	C 	0.6142	0.9893	0.9288	0.033
Mof_C 	C 	0.6122	0.826	0.8208	0.028
Mof_C 	C 	0.3707	0.4033	0.879	-0.003
Mof_C 	C 	0.2229	0.9026	0.8587	0.044
Mof_C 	C 	0.6293	0.5967	0.379	-0.02
Mof_C 	C 	0.0066	0.1077	0.3824	0.035
Mof_C 	C 	0.0965	0.1023	0.6542	0.466
Mof_C 	C 	0.9721	0.4706	0.8464	-0.043
Mof_C 	C 	0.898	0.9839	0.2447	-0.095
Mof_C 	C 	0.9934	0.8923	0.8824	0.036
Mof_C 	C 	0.6552	0.4332	0.2676	-0.028
Mof_C 	C 	0.7378	0.4725	0.812	-0.035
Mof_C 	C 	0.7771	0.0974	0.3587	0.042
Mof_C 	C 	0.2622	0.5275	0.312	-0.048
Mof_C 	C 	0.0279	0.5294	0.3464	-0.056
Mof_C 	C 	0.0266	0.6062	0.2618	0.044
Mof_C 	C 	0.5972	0.1084	0.6542	0.452
Mof_C 	C 	0.6055	0.0253	0.7473	-0.095
Mof_C 	C 	0.102	0.0161	0.7447	-0.094
Mof_C 	C 	0.0164	0.0323	0.2992	-0.038
Mof_C 	C 	0.2239	0.9798	0.7747	-0.034
Mof_C 	C 	0.3723	0.3298	0.7922	0.012
Mof_C 	C 	0.1485	0.4888	0.372	-0.074
Mof_C 	C 	0.8461	0.6023	0.961	0.512
Mof_C 	C 	0.6524	0.3926	0.4605	0.467
Mof_C 	C 	0.7472	0.3947	0.7285	0.035
Mof_C 	C 	0.4028	0.8916	0.1542	0.455
Mof_C 	C 	0.8515	0.5112	0.872	-0.086
Mof_C 	C 	0.6458	0.477	0.3687	-0.104
Mof_C 	C 	0.3476	0.6074	0.9605	0.538
Mof_N 	N 	0.1353	0.6419	0.1994	-0.235
Mof_N 	N 	0.1117	0.8593	0.9131	-0.208
Mof_N 	N 	0.8883	0.1407	0.4131	-0.223
Mof_N 	N 	0.8647	0.3581	0.6994	-0.229
Mof_N 	N 	0.3851	0.1321	0.4172	-0.217
Mof_N 	N 	0.3643	0.37	0.6943	-0.218
Mof_N 	N 	0.6357	0.63	0.1943	-0.224
Mof_N 	N 	0.6149	0.8679	0.9172	-0.207
Mof_O 	O 	0.5138	0.8539	0.146	-0.511
Mof_O 	O 	0.9506	0.6305	0.0137	-0.566
Mof_O 	O 	0.7648	0.3571	0.4746	-0.505
Mof_O 	O 	0.2039	0.1318	0.6014	-0.517
Mof_O 	O 	0.7961	0.8682	0.1014	-0.537
Mof_O 	O 	0.0494	0.3695	0.5137	-0.505
Mof_O 	O 	0.0154	0.8652	0.1379	-0.524
Mof_O 	O 	0.5468	0.3678	0.5129	-0.513
Mof_O 	O 	0.7338	0.6421	0.9705	-0.493
Mof_O 	O 	0.9846	0.1348	0.6379	-0.511
Mof_O 	O 	0.3033	0.8724	0.0941	-0.521
Mof_O 	O 	0.4532	0.6322	0.0129	-0.576
Mof_O 	O 	0.4862	0.1461	0.646	-0.5
Mof_O 	O 	0.2352	0.6429	0.9746	-0.497
Mof_O 	O 	0.2662	0.3579	0.4705	-0.503
Mof_O 	O 	0.6967	0.1276	0.5941	-0.499
_end
