data_functionalizedCrystal
_audit_creation_method	'EQeq! by Chris Wilmer'
_symmetry_space_group_name_H-M	'P1'
_symmetry_Int_Tables_number	1
_symmetry_cell_setting	triclinic
loop_
_symmetry_equiv_pos_as_xyz
  x,y,z
_cell_length_a	16.169
_cell_length_b	16.169
_cell_length_c	18.199
_cell_angle_alpha	90
_cell_angle_beta	90
_cell_angle_gamma	90
loop_
_atom_site_label
_atom_site_type_symbol
_atom_site_fract_x
_atom_site_fract_y
_atom_site_fract_z
_atom_site_charge
Mof_V 	V 	0.0042	0.82246	0.86407	1.637
Mof_V 	V 	0.17532	0.83103	0.0001	1.666
Mof_V 	V 	0.24685	0.00457	0.99245	1.613
Mof_V 	V 	0.2139	0.2514	0.72758	1.654
Mof_V 	V 	0.9958	0.17754	0.86407	1.688
Mof_V 	V 	0.82468	0.16897	0.0001	1.664
Mof_V 	V 	0.75315	0.99543	0.99245	1.665
Mof_V 	V 	0.7861	0.7486	0.72758	1.665
Mof_V 	V 	0.82246	0.9958	0.13593	1.687
Mof_V 	V 	0.83103	0.82468	0.9999	1.667
Mof_V 	V 	0.00457	0.75315	0.00755	1.615
Mof_V 	V 	0.2514	0.7861	0.27242	1.663
Mof_V 	V 	0.17754	0.0042	0.13593	1.631
Mof_V 	V 	0.16897	0.17532	0.9999	1.662
Mof_V 	V 	0.99543	0.24685	0.00755	1.666
Mof_V 	V 	0.7486	0.2139	0.27242	1.656
Mof_V 	V 	0.4958	0.32246	0.63593	1.658
Mof_V 	V 	0.32468	0.33103	0.4999	1.66
Mof_V 	V 	0.25315	0.50457	0.50755	1.633
Mof_V 	V 	0.2861	0.7514	0.77242	1.66
Mof_V 	V 	0.5042	0.67754	0.63593	1.662
Mof_V 	V 	0.67532	0.66897	0.4999	1.668
Mof_V 	V 	0.74685	0.49543	0.50755	1.645
Mof_V 	V 	0.7139	0.2486	0.77242	1.658
Mof_V 	V 	0.67754	0.4958	0.36407	1.662
Mof_V 	V 	0.66897	0.32468	0.5001	1.663
Mof_V 	V 	0.49543	0.25315	0.49245	1.633
Mof_V 	V 	0.2486	0.2861	0.22758	1.657
Mof_V 	V 	0.32246	0.5042	0.36407	1.658
Mof_V 	V 	0.33103	0.67532	0.5001	1.665
Mof_V 	V 	0.50457	0.74685	0.49245	1.645
Mof_V 	V 	0.7514	0.7139	0.22758	1.661
Mof_V 	V 	3.36336e-33	0	0.79698	1.61
Mof_V 	V 	8.56771e-34	0	0.20302	1.609
Mof_V 	V 	0.5	0.5	0.70302	1.666
Mof_V 	V 	0.5	0.5	0.29698	1.666
Mof_Si	Si	0.177	0.093	0.8377	2.053
Mof_Si	Si	0.1799	0.9146	0.8378	2.14
Mof_Si	Si	0.823	0.907	0.8377	2.042
Mof_Si	Si	0.8201	0.0854	0.8378	1.892
Mof_Si	Si	0.093	0.823	0.1623	2.055
Mof_Si	Si	0.9146	0.8201	0.1622	2.13
Mof_Si	Si	0.907	0.177	0.1623	2.039
Mof_Si	Si	0.0854	0.1799	0.1622	1.878
Mof_Si	Si	0.323	0.593	0.6623	2.047
Mof_Si	Si	0.3201	0.4146	0.6622	2.006
Mof_Si	Si	0.677	0.407	0.6623	2.05
Mof_Si	Si	0.6799	0.5854	0.6622	2.015
Mof_Si	Si	0.407	0.323	0.3377	2.045
Mof_Si	Si	0.5854	0.3201	0.3378	2.008
Mof_Si	Si	0.593	0.677	0.3377	2.052
Mof_Si	Si	0.4146	0.6799	0.3378	2.013
Mof_H 	H 	0.2888	0.073	0.7069	-0.086
Mof_H 	H 	0.2435	0.0782	0.6312	-0.161
Mof_H 	H 	0.4153	0.0626	0.6462	0.09
Mof_H 	H 	0.3697	0.0672	0.5708	0.057
Mof_H 	H 	0.4179	0.9357	0.6081	-0.205
Mof_H 	H 	0.329	0.9399	0.5752	-0.209
Mof_H 	H 	0.3692	0.9281	0.7133	0.101
Mof_H 	H 	0.2802	0.9352	0.6822	0.143
Mof_H 	H 	0.7112	0.927	0.7069	0.125
Mof_H 	H 	0.7565	0.9218	0.6312	0.055
Mof_H 	H 	0.5847	0.9374	0.6462	-0.195
Mof_H 	H 	0.6303	0.9328	0.5708	-0.236
Mof_H 	H 	0.5821	0.0643	0.6081	0.189
Mof_H 	H 	0.671	0.0601	0.5752	0.183
Mof_H 	H 	0.6308	0.0719	0.7133	-0.269
Mof_H 	H 	0.7198	0.0648	0.6822	-0.227
Mof_H 	H 	0.073	0.7112	0.2931	-0.074
Mof_H 	H 	0.0782	0.7565	0.3688	-0.136
Mof_H 	H 	0.0626	0.5847	0.3538	0.075
Mof_H 	H 	0.0672	0.6303	0.4292	0.046
Mof_H 	H 	0.9357	0.5821	0.3919	-0.186
Mof_H 	H 	0.9399	0.671	0.4248	-0.186
Mof_H 	H 	0.9281	0.6308	0.2867	0.086
Mof_H 	H 	0.9352	0.7198	0.3178	0.133
Mof_H 	H 	0.927	0.2888	0.2931	0.124
Mof_H 	H 	0.9218	0.2435	0.3688	0.044
Mof_H 	H 	0.9374	0.4153	0.3538	-0.199
Mof_H 	H 	0.9328	0.3697	0.4292	-0.242
Mof_H 	H 	0.0643	0.4179	0.3919	0.194
Mof_H 	H 	0.0601	0.329	0.4248	0.181
Mof_H 	H 	0.0719	0.3692	0.2867	-0.274
Mof_H 	H 	0.0648	0.2802	0.3178	-0.24
Mof_H 	H 	0.2112	0.573	0.7931	0.022
Mof_H 	H 	0.2565	0.5782	0.8688	-0.047
Mof_H 	H 	0.0847	0.5626	0.8538	-0.078
Mof_H 	H 	0.1303	0.5672	0.9292	-0.107
Mof_H 	H 	0.0821	0.4357	0.8919	-0.018
Mof_H 	H 	0.171	0.4399	0.9248	-0.01
Mof_H 	H 	0.1308	0.4281	0.7867	-0.103
Mof_H 	H 	0.2198	0.4352	0.8178	-0.051
Mof_H 	H 	0.7888	0.427	0.7931	0.021
Mof_H 	H 	0.7435	0.4218	0.8688	-0.053
Mof_H 	H 	0.9153	0.4374	0.8538	-0.035
Mof_H 	H 	0.8697	0.4328	0.9292	-0.079
Mof_H 	H 	0.9179	0.5643	0.8919	0.013
Mof_H 	H 	0.829	0.5601	0.9248	-0.006
Mof_H 	H 	0.8692	0.5719	0.7867	-0.075
Mof_H 	H 	0.7802	0.5648	0.8178	-0.045
Mof_H 	H 	0.427	0.2112	0.2069	0.022
Mof_H 	H 	0.4218	0.2565	0.1312	-0.047
Mof_H 	H 	0.4374	0.0847	0.1462	-0.079
Mof_H 	H 	0.4328	0.1303	0.0708	-0.108
Mof_H 	H 	0.5643	0.0821	0.1081	-0.017
Mof_H 	H 	0.5601	0.171	0.0752	-0.009
Mof_H 	H 	0.5719	0.1308	0.2133	-0.103
Mof_H 	H 	0.5648	0.2198	0.1822	-0.052
Mof_H 	H 	0.573	0.7888	0.2069	0.023
Mof_H 	H 	0.5782	0.7435	0.1312	-0.052
Mof_H 	H 	0.5626	0.9153	0.1462	-0.036
Mof_H 	H 	0.5672	0.8697	0.0708	-0.08
Mof_H 	H 	0.4357	0.9179	0.1081	0.015
Mof_H 	H 	0.4399	0.829	0.0752	-0.004
Mof_H 	H 	0.4281	0.8692	0.2133	-0.076
Mof_H 	H 	0.4352	0.7802	0.1822	-0.046
Mof_C 	C 	0.294	0.0929	0.6568	0.165
Mof_C 	C 	0.3649	0.0471	0.621	-0.552
Mof_C 	C 	0.362	0.9547	0.6177	0.537
Mof_C 	C 	0.335	0.9129	0.672	-0.476
Mof_C 	C 	0.706	0.9071	0.6568	-0.388
Mof_C 	C 	0.6351	0.9529	0.621	0.571
Mof_C 	C 	0.638	0.0453	0.6177	-0.953
Mof_C 	C 	0.665	0.0871	0.672	0.659
Mof_C 	C 	0.0929	0.706	0.3432	0.135
Mof_C 	C 	0.0471	0.6351	0.379	-0.5
Mof_C 	C 	0.9547	0.638	0.3823	0.471
Mof_C 	C 	0.9129	0.665	0.328	-0.427
Mof_C 	C 	0.9071	0.294	0.3432	-0.39
Mof_C 	C 	0.9529	0.3649	0.379	0.584
Mof_C 	C 	0.0453	0.362	0.3823	-0.972
Mof_C 	C 	0.0871	0.335	0.328	0.675
Mof_C 	C 	0.206	0.5929	0.8432	-0.129
Mof_C 	C 	0.1351	0.5471	0.879	0.041
Mof_C 	C 	0.138	0.4547	0.8823	-0.237
Mof_C 	C 	0.165	0.4129	0.828	0.115
Mof_C 	C 	0.794	0.4071	0.8432	-0.107
Mof_C 	C 	0.8649	0.4529	0.879	0.008
Mof_C 	C 	0.862	0.5453	0.8823	-0.22
Mof_C 	C 	0.835	0.5871	0.828	0.1
Mof_C 	C 	0.4071	0.206	0.1568	-0.131
Mof_C 	C 	0.4529	0.1351	0.121	0.044
Mof_C 	C 	0.5453	0.138	0.1177	-0.241
Mof_C 	C 	0.5871	0.165	0.172	0.118
Mof_C 	C 	0.5929	0.794	0.1568	-0.109
Mof_C 	C 	0.5471	0.8649	0.121	0.011
Mof_C 	C 	0.4547	0.862	0.1177	-0.225
Mof_C 	C 	0.4129	0.835	0.172	0.104
Mof_N 	N 	0.3	0.1847	0.6589	-0.411
Mof_N 	N 	0.3257	0.8261	0.6764	-0.295
Mof_N 	N 	0.7	0.8153	0.6589	-0.329
Mof_N 	N 	0.6743	0.1739	0.6764	-0.471
Mof_N 	N 	0.1847	0.7	0.3411	-0.401
Mof_N 	N 	0.8261	0.6743	0.3236	-0.299
Mof_N 	N 	0.8153	0.3	0.3411	-0.334
Mof_N 	N 	0.1739	0.3257	0.3236	-0.478
Mof_N 	N 	0.2	0.6847	0.8411	-0.371
Mof_N 	N 	0.1743	0.3261	0.8236	-0.395
Mof_N 	N 	0.8	0.3153	0.8411	-0.366
Mof_N 	N 	0.8257	0.6739	0.8236	-0.378
Mof_N 	N 	0.3153	0.2	0.1589	-0.372
Mof_N 	N 	0.6739	0.1743	0.1764	-0.393
Mof_N 	N 	0.6847	0.8	0.1589	-0.366
Mof_N 	N 	0.3261	0.8257	0.1764	-0.379
Mof_O 	O 	0.0848	0.7974	0.936	-1.079
Mof_O 	O 	0.2088	0.0025	0.8056	-1.222
Mof_O 	O 	0.2184	0.1667	0.7972	-1.109
Mof_O 	O 	0.2068	0.9142	0.9255	-1.182
Mof_O 	O 	0.2002	0.0915	0.924	-1.219
Mof_O 	O 	0.078	0.9138	0.8361	-1.183
Mof_O 	O 	0.0742	0.0887	0.8274	-1.24
Mof_O 	O 	0.9254	0.7928	0.9395	-1.05
Mof_O 	O 	0.2182	0.8374	0.7936	-1.099
Mof_O 	O 	0.9152	0.2026	0.936	-1.049
Mof_O 	O 	0.7912	0.9975	0.8056	-1.063
Mof_O 	O 	0.7816	0.8333	0.7972	-1.093
Mof_O 	O 	0.7932	0.0858	0.9255	-1.183
Mof_O 	O 	0.7998	0.9085	0.924	-1.182
Mof_O 	O 	0.922	0.0862	0.8361	-1.135
Mof_O 	O 	0.9258	0.9113	0.8274	-1.131
Mof_O 	O 	0.0746	0.2072	0.9395	-1.131
Mof_O 	O 	0.7818	0.1626	0.7936	-1.05
Mof_O 	O 	0.7974	0.9152	0.064	-1.05
Mof_O 	O 	0.0025	0.7912	0.1944	-1.21
Mof_O 	O 	0.1667	0.7816	0.2028	-1.101
Mof_O 	O 	0.9142	0.7932	0.0745	-1.178
Mof_O 	O 	0.0915	0.7998	0.076	-1.213
Mof_O 	O 	0.9138	0.922	0.1639	-1.14
Mof_O 	O 	0.0887	0.9258	0.1726	-1.169
Mof_O 	O 	0.7928	0.0746	0.0605	-1.122
Mof_O 	O 	0.8374	0.7818	0.2064	-1.089
Mof_O 	O 	0.2026	0.0848	0.064	-1.081
Mof_O 	O 	0.9975	0.2088	0.1944	-1.06
Mof_O 	O 	0.8333	0.2184	0.2028	-1.1
Mof_O 	O 	0.0858	0.2068	0.0745	-1.187
Mof_O 	O 	0.9085	0.2002	0.076	-1.185
Mof_O 	O 	0.0862	0.078	0.1639	-1.182
Mof_O 	O 	0.9113	0.0742	0.1726	-1.191
Mof_O 	O 	0.2072	0.9254	0.0605	-1.052
Mof_O 	O 	0.1626	0.2182	0.2064	-1.057
Mof_O 	O 	0.4152	0.2974	0.564	-1.072
Mof_O 	O 	0.2912	0.5025	0.6944	-1.143
Mof_O 	O 	0.2816	0.6667	0.7028	-1.105
Mof_O 	O 	0.2932	0.4142	0.5745	-1.189
Mof_O 	O 	0.2998	0.5915	0.576	-1.204
Mof_O 	O 	0.422	0.4138	0.6639	-1.17
Mof_O 	O 	0.4258	0.5887	0.6726	-1.193
Mof_O 	O 	0.5746	0.2928	0.5605	-1.096
Mof_O 	O 	0.2818	0.3374	0.7064	-1.078
Mof_O 	O 	0.5848	0.7026	0.564	-1.059
Mof_O 	O 	0.7088	0.4975	0.6944	-1.139
Mof_O 	O 	0.7184	0.3333	0.7028	-1.098
Mof_O 	O 	0.7068	0.5858	0.5745	-1.178
Mof_O 	O 	0.7002	0.4085	0.576	-1.197
Mof_O 	O 	0.578	0.5862	0.6639	-1.171
Mof_O 	O 	0.5742	0.4113	0.6726	-1.195
Mof_O 	O 	0.4254	0.7072	0.5605	-1.083
Mof_O 	O 	0.7182	0.6626	0.7064	-1.07
Mof_O 	O 	0.7026	0.4152	0.436	-1.061
Mof_O 	O 	0.4975	0.2912	0.3056	-1.143
Mof_O 	O 	0.3333	0.2816	0.2972	-1.106
Mof_O 	O 	0.5858	0.2932	0.4255	-1.188
Mof_O 	O 	0.4085	0.2998	0.424	-1.206
Mof_O 	O 	0.5862	0.422	0.3361	-1.169
Mof_O 	O 	0.4113	0.4258	0.3274	-1.194
Mof_O 	O 	0.7072	0.5746	0.4395	-1.082
Mof_O 	O 	0.6626	0.2818	0.2936	-1.076
Mof_O 	O 	0.2974	0.5848	0.436	-1.07
Mof_O 	O 	0.5025	0.7088	0.3056	-1.139
Mof_O 	O 	0.6667	0.7184	0.2972	-1.097
Mof_O 	O 	0.4142	0.7068	0.4255	-1.178
Mof_O 	O 	0.5915	0.7002	0.424	-1.196
Mof_O 	O 	0.4138	0.578	0.3361	-1.172
Mof_O 	O 	0.5887	0.5742	0.3274	-1.194
Mof_O 	O 	0.2928	0.4254	0.4395	-1.097
Mof_O 	O 	0.3374	0.7182	0.2936	-1.072
_end
