data_functionalizedCrystal
_audit_creation_method	'EQeq! by Chris Wilmer'
_symmetry_space_group_name_H-M	'P1'
_symmetry_Int_Tables_number	1
_symmetry_cell_setting	triclinic
loop_
_symmetry_equiv_pos_as_xyz
  x,y,z
_cell_length_a	21.1318
_cell_length_b	21.1318
_cell_length_c	21.1318
_cell_angle_alpha	90
_cell_angle_beta	90
_cell_angle_gamma	90
loop_
_atom_site_label
_atom_site_type_symbol
_atom_site_fract_x
_atom_site_fract_y
_atom_site_fract_z
_atom_site_charge
Mof_C 	C 	0.6711	0.934	0.7435	0.09
Mof_H 	H 	0.6354	0.9439	0.7672	-0.01
Mof_N 	N 	0.7118	0.8908	0.7573	-0.221
Mof_C 	C 	0.1711	0.434	0.2435	0.09
Mof_H 	H 	0.1354	0.4439	0.2672	-0.01
Mof_N 	N 	0.2118	0.3908	0.2573	-0.221
Mof_C 	C 	0.3289	0.066	0.7435	0.09
Mof_H 	H 	0.3646	0.0561	0.7672	-0.01
Mof_N 	N 	0.2882	0.1092	0.7573	-0.221
Mof_C 	C 	0.8289	0.566	0.2435	0.09
Mof_H 	H 	0.8646	0.5561	0.2672	-0.01
Mof_N 	N 	0.7882	0.6092	0.2573	-0.221
Mof_C 	C 	0.3289	0.934	0.2565	0.089
Mof_H 	H 	0.3646	0.9439	0.2328	-0.011
Mof_N 	N 	0.2882	0.8908	0.2427	-0.222
Mof_C 	C 	0.8289	0.434	0.7565	0.089
Mof_H 	H 	0.8646	0.4439	0.7328	-0.011
Mof_N 	N 	0.7882	0.3908	0.7427	-0.222
Mof_C 	C 	0.6711	0.066	0.2565	0.089
Mof_H 	H 	0.6354	0.0561	0.2328	-0.011
Mof_N 	N 	0.7118	0.1092	0.2427	-0.222
Mof_C 	C 	0.1711	0.566	0.7565	0.089
Mof_H 	H 	0.1354	0.5561	0.7328	-0.011
Mof_N 	N 	0.2118	0.6092	0.7427	-0.222
Mof_C 	C 	0.7435	0.6711	0.934	0.089
Mof_H 	H 	0.7672	0.6354	0.9439	-0.011
Mof_N 	N 	0.7573	0.7118	0.8908	-0.222
Mof_C 	C 	0.2435	0.1711	0.434	0.089
Mof_H 	H 	0.2672	0.1354	0.4439	-0.011
Mof_N 	N 	0.2573	0.2118	0.3908	-0.222
Mof_C 	C 	0.7435	0.3289	0.066	0.089
Mof_H 	H 	0.7672	0.3646	0.0561	-0.011
Mof_N 	N 	0.7573	0.2882	0.1092	-0.222
Mof_C 	C 	0.2435	0.8289	0.566	0.089
Mof_H 	H 	0.2672	0.8646	0.5561	-0.011
Mof_N 	N 	0.2573	0.7882	0.6092	-0.222
Mof_C 	C 	0.2565	0.3289	0.934	0.089
Mof_H 	H 	0.2328	0.3646	0.9439	-0.011
Mof_N 	N 	0.2427	0.2882	0.8908	-0.222
Mof_C 	C 	0.7565	0.8289	0.434	0.089
Mof_H 	H 	0.7328	0.8646	0.4439	-0.011
Mof_N 	N 	0.7427	0.7882	0.3908	-0.222
Mof_C 	C 	0.2565	0.6711	0.066	0.089
Mof_H 	H 	0.2328	0.6354	0.0561	-0.011
Mof_N 	N 	0.2427	0.7118	0.1092	-0.222
Mof_C 	C 	0.7565	0.1711	0.566	0.089
Mof_H 	H 	0.7328	0.1354	0.5561	-0.011
Mof_N 	N 	0.7427	0.2118	0.6092	-0.222
Mof_C 	C 	0.934	0.7435	0.6711	0.089
Mof_H 	H 	0.9439	0.7672	0.6354	-0.011
Mof_N 	N 	0.8908	0.7573	0.7118	-0.222
Mof_C 	C 	0.434	0.2435	0.1711	0.089
Mof_H 	H 	0.4439	0.2672	0.1354	-0.011
Mof_N 	N 	0.3908	0.2573	0.2118	-0.222
Mof_C 	C 	0.066	0.7435	0.3289	0.089
Mof_H 	H 	0.0561	0.7672	0.3646	-0.011
Mof_N 	N 	0.1092	0.7573	0.2882	-0.222
Mof_C 	C 	0.566	0.2435	0.8289	0.089
Mof_H 	H 	0.5561	0.2672	0.8646	-0.011
Mof_N 	N 	0.6092	0.2573	0.7882	-0.222
Mof_C 	C 	0.934	0.2565	0.3289	0.089
Mof_H 	H 	0.9439	0.2328	0.3646	-0.011
Mof_N 	N 	0.8908	0.2427	0.2882	-0.222
Mof_C 	C 	0.434	0.7565	0.8289	0.089
Mof_H 	H 	0.4439	0.7328	0.8646	-0.011
Mof_N 	N 	0.3908	0.7427	0.7882	-0.222
Mof_C 	C 	0.066	0.2565	0.6711	0.089
Mof_H 	H 	0.0561	0.2328	0.6354	-0.011
Mof_N 	N 	0.1092	0.2427	0.7118	-0.222
Mof_C 	C 	0.566	0.7565	0.1711	0.089
Mof_H 	H 	0.5561	0.7328	0.1354	-0.011
Mof_N 	N 	0.6092	0.7427	0.2118	-0.222
Mof_C 	C 	0.934	0.6711	0.7435	0.089
Mof_H 	H 	0.9439	0.6354	0.7672	-0.011
Mof_N 	N 	0.8908	0.7118	0.7573	-0.222
Mof_C 	C 	0.434	0.1711	0.2435	0.089
Mof_H 	H 	0.4439	0.1354	0.2672	-0.011
Mof_N 	N 	0.3908	0.2118	0.2573	-0.222
Mof_C 	C 	0.066	0.3289	0.7435	0.089
Mof_H 	H 	0.0561	0.3646	0.7672	-0.011
Mof_N 	N 	0.1092	0.2882	0.7573	-0.222
Mof_C 	C 	0.566	0.8289	0.2435	0.089
Mof_H 	H 	0.5561	0.8646	0.2672	-0.011
Mof_N 	N 	0.6092	0.7882	0.2573	-0.222
Mof_C 	C 	0.934	0.3289	0.2565	0.089
Mof_H 	H 	0.9439	0.3646	0.2328	-0.011
Mof_N 	N 	0.8908	0.2882	0.2427	-0.222
Mof_C 	C 	0.434	0.8289	0.7565	0.089
Mof_H 	H 	0.4439	0.8646	0.7328	-0.011
Mof_N 	N 	0.3908	0.7882	0.7427	-0.222
Mof_C 	C 	0.066	0.6711	0.2565	0.089
Mof_H 	H 	0.0561	0.6354	0.2328	-0.011
Mof_N 	N 	0.1092	0.7118	0.2427	-0.222
Mof_C 	C 	0.566	0.1711	0.7565	0.089
Mof_H 	H 	0.5561	0.1354	0.7328	-0.011
Mof_N 	N 	0.6092	0.2118	0.7427	-0.222
Mof_C 	C 	0.6711	0.7435	0.934	0.089
Mof_H 	H 	0.6354	0.7672	0.9439	-0.011
Mof_N 	N 	0.7118	0.7573	0.8908	-0.222
Mof_C 	C 	0.1711	0.2435	0.434	0.089
Mof_H 	H 	0.1354	0.2672	0.4439	-0.011
Mof_N 	N 	0.2118	0.2573	0.3908	-0.222
Mof_C 	C 	0.3289	0.7435	0.066	0.089
Mof_H 	H 	0.3646	0.7672	0.0561	-0.011
Mof_N 	N 	0.2882	0.7573	0.1092	-0.222
Mof_C 	C 	0.8289	0.2435	0.566	0.089
Mof_H 	H 	0.8646	0.2672	0.5561	-0.011
Mof_N 	N 	0.7882	0.2573	0.6092	-0.222
Mof_C 	C 	0.3289	0.2565	0.934	0.089
Mof_H 	H 	0.3646	0.2328	0.9439	-0.011
Mof_N 	N 	0.2882	0.2427	0.8908	-0.222
Mof_C 	C 	0.8289	0.7565	0.434	0.089
Mof_H 	H 	0.8646	0.7328	0.4439	-0.011
Mof_N 	N 	0.7882	0.7427	0.3908	-0.222
Mof_C 	C 	0.6711	0.2565	0.066	0.089
Mof_H 	H 	0.6354	0.2328	0.0561	-0.011
Mof_N 	N 	0.7118	0.2427	0.1092	-0.222
Mof_C 	C 	0.1711	0.7565	0.566	0.089
Mof_H 	H 	0.1354	0.7328	0.5561	-0.011
Mof_N 	N 	0.2118	0.7427	0.6092	-0.222
Mof_C 	C 	0.7435	0.934	0.6711	0.089
Mof_H 	H 	0.7672	0.9439	0.6354	-0.011
Mof_N 	N 	0.7573	0.8908	0.7118	-0.222
Mof_C 	C 	0.2435	0.434	0.1711	0.089
Mof_H 	H 	0.2672	0.4439	0.1354	-0.011
Mof_N 	N 	0.2573	0.3908	0.2118	-0.222
Mof_C 	C 	0.7435	0.066	0.3289	0.089
Mof_H 	H 	0.7672	0.0561	0.3646	-0.011
Mof_N 	N 	0.7573	0.1092	0.2882	-0.222
Mof_C 	C 	0.2435	0.566	0.8289	0.089
Mof_H 	H 	0.2672	0.5561	0.8646	-0.011
Mof_N 	N 	0.2573	0.6092	0.7882	-0.222
Mof_C 	C 	0.2565	0.934	0.3289	0.089
Mof_H 	H 	0.2328	0.9439	0.3646	-0.011
Mof_N 	N 	0.2427	0.8908	0.2882	-0.222
Mof_C 	C 	0.7565	0.434	0.8289	0.089
Mof_H 	H 	0.7328	0.4439	0.8646	-0.011
Mof_N 	N 	0.7427	0.3908	0.7882	-0.222
Mof_C 	C 	0.2565	0.066	0.6711	0.089
Mof_H 	H 	0.2328	0.0561	0.6354	-0.011
Mof_N 	N 	0.2427	0.1092	0.7118	-0.222
Mof_C 	C 	0.7565	0.566	0.1711	0.089
Mof_H 	H 	0.7328	0.5561	0.1354	-0.011
Mof_N 	N 	0.7427	0.6092	0.2118	-0.222
Mof_Cu	Cu	0.7139	0.82825	0.82825	0.844
Mof_Cu	Cu	0.2139	0.32825	0.32825	0.844
Mof_Cu	Cu	0.2861	0.17175	0.82825	0.844
Mof_Cu	Cu	0.7861	0.67175	0.32825	0.844
Mof_Cu	Cu	0.2861	0.82825	0.17175	0.844
Mof_Cu	Cu	0.7861	0.32825	0.67175	0.844
Mof_Cu	Cu	0.7139	0.17175	0.17175	0.844
Mof_Cu	Cu	0.2139	0.67175	0.67175	0.844
Mof_Cu	Cu	0.82825	0.7139	0.82825	0.844
Mof_Cu	Cu	0.32825	0.2139	0.32825	0.844
Mof_Cu	Cu	0.82825	0.2861	0.17175	0.844
Mof_Cu	Cu	0.32825	0.7861	0.67175	0.844
Mof_Cu	Cu	0.17175	0.2861	0.82825	0.844
Mof_Cu	Cu	0.67175	0.7861	0.32825	0.844
Mof_Cu	Cu	0.17175	0.7139	0.17175	0.844
Mof_Cu	Cu	0.67175	0.2139	0.67175	0.844
Mof_Cu	Cu	0.82825	0.82825	0.7139	0.844
Mof_Cu	Cu	0.32825	0.32825	0.2139	0.844
Mof_Cu	Cu	0.17175	0.82825	0.2861	0.844
Mof_Cu	Cu	0.67175	0.32825	0.7861	0.844
Mof_Cu	Cu	0.82825	0.17175	0.2861	0.844
Mof_Cu	Cu	0.32825	0.67175	0.7861	0.844
Mof_Cu	Cu	0.17175	0.17175	0.7139	0.844
Mof_Cu	Cu	0.67175	0.67175	0.2139	0.844
Mof_O 	O 	0.8007	0.8007	0.8007	-0.594
Mof_O 	O 	0.3007	0.3007	0.3007	-0.594
Mof_O 	O 	0.1993	0.1993	0.8007	-0.594
Mof_O 	O 	0.6993	0.6993	0.3007	-0.594
Mof_O 	O 	0.1993	0.8007	0.1993	-0.594
Mof_O 	O 	0.6993	0.3007	0.6993	-0.594
Mof_O 	O 	0.8007	0.1993	0.1993	-0.594
Mof_O 	O 	0.3007	0.6993	0.6993	-0.594
Mof_C 	C 	0.6018	0.1151	0.6018	0.04
Mof_H 	H 	0.5823	0.1494	0.5823	-0.024
Mof_C 	C 	0.5849	0.0562	0.5849	-0.067
Mof_H 	H 	0.554	0.0506	0.554	0.043
Mof_C 	C 	0.6127	0.0036	0.6127	-0.075
Mof_H 	H 	0.6013	0.9627	0.6013	0.052
Mof_C 	C 	0.657	0.0148	0.657	0.066
Mof_C 	C 	0.6739	0.076	0.6739	-0.027
Mof_H 	H 	0.7046	0.0829	0.7046	0.005
Mof_N 	N 	0.6454	0.1256	0.6454	-0.221
Mof_N 	N 	0.6887	0.9631	0.6887	-0.15
Mof_C 	C 	0.1018	0.6151	0.1018	0.04
Mof_H 	H 	0.0823	0.6494	0.0823	-0.024
Mof_C 	C 	0.0849	0.5562	0.0849	-0.068
Mof_H 	H 	0.054	0.5506	0.054	0.043
Mof_C 	C 	0.1127	0.5036	0.1127	-0.075
Mof_H 	H 	0.1013	0.4627	0.1013	0.052
Mof_C 	C 	0.157	0.5148	0.157	0.066
Mof_C 	C 	0.1739	0.576	0.1739	-0.027
Mof_H 	H 	0.2046	0.5829	0.2046	0.005
Mof_N 	N 	0.1454	0.6256	0.1454	-0.221
Mof_N 	N 	0.1887	0.4631	0.1887	-0.15
Mof_C 	C 	0.3982	0.8849	0.6018	0.04
Mof_H 	H 	0.4177	0.8506	0.5823	-0.024
Mof_C 	C 	0.4151	0.9438	0.5849	-0.067
Mof_H 	H 	0.446	0.9494	0.554	0.043
Mof_C 	C 	0.3873	0.9964	0.6127	-0.075
Mof_H 	H 	0.3987	0.0373	0.6013	0.052
Mof_C 	C 	0.343	0.9852	0.657	0.066
Mof_C 	C 	0.3261	0.924	0.6739	-0.027
Mof_H 	H 	0.2954	0.9171	0.7046	0.005
Mof_N 	N 	0.3546	0.8744	0.6454	-0.221
Mof_N 	N 	0.3113	0.0369	0.6887	-0.15
Mof_C 	C 	0.8982	0.3849	0.1018	0.04
Mof_H 	H 	0.9177	0.3506	0.0823	-0.024
Mof_C 	C 	0.9151	0.4438	0.0849	-0.068
Mof_H 	H 	0.946	0.4494	0.054	0.043
Mof_C 	C 	0.8873	0.4964	0.1127	-0.075
Mof_H 	H 	0.8987	0.5373	0.1013	0.052
Mof_C 	C 	0.843	0.4852	0.157	0.066
Mof_C 	C 	0.8261	0.424	0.1739	-0.027
Mof_H 	H 	0.7954	0.4171	0.2046	0.005
Mof_N 	N 	0.8546	0.3744	0.1454	-0.221
Mof_N 	N 	0.8113	0.5369	0.1887	-0.15
Mof_C 	C 	0.3982	0.1151	0.3982	0.04
Mof_H 	H 	0.4177	0.1494	0.4177	-0.024
Mof_C 	C 	0.4151	0.0562	0.4151	-0.067
Mof_H 	H 	0.446	0.0506	0.446	0.043
Mof_C 	C 	0.3873	0.0036	0.3873	-0.075
Mof_H 	H 	0.3987	0.9627	0.3987	0.052
Mof_C 	C 	0.343	0.0148	0.343	0.066
Mof_C 	C 	0.3261	0.076	0.3261	-0.027
Mof_H 	H 	0.2954	0.0829	0.2954	0.005
Mof_N 	N 	0.3546	0.1256	0.3546	-0.221
Mof_N 	N 	0.3113	0.9631	0.3113	-0.15
Mof_C 	C 	0.8982	0.6151	0.8982	0.04
Mof_H 	H 	0.9177	0.6494	0.9177	-0.024
Mof_C 	C 	0.9151	0.5562	0.9151	-0.068
Mof_H 	H 	0.946	0.5506	0.946	0.043
Mof_C 	C 	0.8873	0.5036	0.8873	-0.075
Mof_H 	H 	0.8987	0.4627	0.8987	0.052
Mof_C 	C 	0.843	0.5148	0.843	0.066
Mof_C 	C 	0.8261	0.576	0.8261	-0.027
Mof_H 	H 	0.7954	0.5829	0.7954	0.005
Mof_N 	N 	0.8546	0.6256	0.8546	-0.221
Mof_N 	N 	0.8113	0.4631	0.8113	-0.15
Mof_C 	C 	0.6018	0.8849	0.3982	0.04
Mof_H 	H 	0.5823	0.8506	0.4177	-0.024
Mof_C 	C 	0.5849	0.9438	0.4151	-0.067
Mof_H 	H 	0.554	0.9494	0.446	0.043
Mof_C 	C 	0.6127	0.9964	0.3873	-0.075
Mof_H 	H 	0.6013	0.0373	0.3987	0.052
Mof_C 	C 	0.657	0.9852	0.343	0.066
Mof_C 	C 	0.6739	0.924	0.3261	-0.027
Mof_H 	H 	0.7046	0.9171	0.2954	0.005
Mof_N 	N 	0.6454	0.8744	0.3546	-0.221
Mof_N 	N 	0.6887	0.0369	0.3113	-0.15
Mof_C 	C 	0.1018	0.3849	0.8982	0.04
Mof_H 	H 	0.0823	0.3506	0.9177	-0.024
Mof_C 	C 	0.0849	0.4438	0.9151	-0.068
Mof_H 	H 	0.054	0.4494	0.946	0.043
Mof_C 	C 	0.1127	0.4964	0.8873	-0.075
Mof_H 	H 	0.1013	0.5373	0.8987	0.052
Mof_C 	C 	0.157	0.4852	0.843	0.066
Mof_C 	C 	0.1739	0.424	0.8261	-0.027
Mof_H 	H 	0.2046	0.4171	0.7954	0.005
Mof_N 	N 	0.1454	0.3744	0.8546	-0.221
Mof_N 	N 	0.1887	0.5369	0.8113	-0.15
Mof_C 	C 	0.6018	0.6018	0.1151	0.04
Mof_H 	H 	0.5823	0.5823	0.1494	-0.024
Mof_C 	C 	0.5849	0.5849	0.0562	-0.067
Mof_H 	H 	0.554	0.554	0.0506	0.043
Mof_C 	C 	0.6127	0.6127	0.0036	-0.075
Mof_H 	H 	0.6013	0.6013	0.9627	0.052
Mof_C 	C 	0.657	0.657	0.0148	0.066
Mof_C 	C 	0.6739	0.6739	0.076	-0.027
Mof_H 	H 	0.7046	0.7046	0.0829	0.005
Mof_N 	N 	0.6454	0.6454	0.1256	-0.221
Mof_N 	N 	0.6887	0.6887	0.9631	-0.15
Mof_C 	C 	0.1018	0.1018	0.6151	0.04
Mof_H 	H 	0.0823	0.0823	0.6494	-0.024
Mof_C 	C 	0.0849	0.0849	0.5562	-0.068
Mof_H 	H 	0.054	0.054	0.5506	0.043
Mof_C 	C 	0.1127	0.1127	0.5036	-0.075
Mof_H 	H 	0.1013	0.1013	0.4627	0.052
Mof_C 	C 	0.157	0.157	0.5148	0.066
Mof_C 	C 	0.1739	0.1739	0.576	-0.027
Mof_H 	H 	0.2046	0.2046	0.5829	0.005
Mof_N 	N 	0.1454	0.1454	0.6256	-0.221
Mof_N 	N 	0.1887	0.1887	0.4631	-0.15
Mof_C 	C 	0.6018	0.3982	0.8849	0.04
Mof_H 	H 	0.5823	0.4177	0.8506	-0.024
Mof_C 	C 	0.5849	0.4151	0.9438	-0.067
Mof_H 	H 	0.554	0.446	0.9494	0.043
Mof_C 	C 	0.6127	0.3873	0.9964	-0.075
Mof_H 	H 	0.6013	0.3987	0.0373	0.052
Mof_C 	C 	0.657	0.343	0.9852	0.066
Mof_C 	C 	0.6739	0.3261	0.924	-0.027
Mof_H 	H 	0.7046	0.2954	0.9171	0.005
Mof_N 	N 	0.6454	0.3546	0.8744	-0.221
Mof_N 	N 	0.6887	0.3113	0.0369	-0.15
Mof_C 	C 	0.1018	0.8982	0.3849	0.04
Mof_H 	H 	0.0823	0.9177	0.3506	-0.024
Mof_C 	C 	0.0849	0.9151	0.4438	-0.068
Mof_H 	H 	0.054	0.946	0.4494	0.043
Mof_C 	C 	0.1127	0.8873	0.4964	-0.075
Mof_H 	H 	0.1013	0.8987	0.5373	0.052
Mof_C 	C 	0.157	0.843	0.4852	0.066
Mof_C 	C 	0.1739	0.8261	0.424	-0.027
Mof_H 	H 	0.2046	0.7954	0.4171	0.005
Mof_N 	N 	0.1454	0.8546	0.3744	-0.221
Mof_N 	N 	0.1887	0.8113	0.5369	-0.15
Mof_C 	C 	0.3982	0.3982	0.1151	0.04
Mof_H 	H 	0.4177	0.4177	0.1494	-0.024
Mof_C 	C 	0.4151	0.4151	0.0562	-0.067
Mof_H 	H 	0.446	0.446	0.0506	0.043
Mof_C 	C 	0.3873	0.3873	0.0036	-0.075
Mof_H 	H 	0.3987	0.3987	0.9627	0.052
Mof_C 	C 	0.343	0.343	0.0148	0.066
Mof_C 	C 	0.3261	0.3261	0.076	-0.027
Mof_H 	H 	0.2954	0.2954	0.0829	0.005
Mof_N 	N 	0.3546	0.3546	0.1256	-0.221
Mof_N 	N 	0.3113	0.3113	0.9631	-0.15
Mof_C 	C 	0.8982	0.8982	0.6151	0.04
Mof_H 	H 	0.9177	0.9177	0.6494	-0.024
Mof_C 	C 	0.9151	0.9151	0.5562	-0.068
Mof_H 	H 	0.946	0.946	0.5506	0.043
Mof_C 	C 	0.8873	0.8873	0.5036	-0.075
Mof_H 	H 	0.8987	0.8987	0.4627	0.052
Mof_C 	C 	0.843	0.843	0.5148	0.066
Mof_C 	C 	0.8261	0.8261	0.576	-0.027
Mof_H 	H 	0.7954	0.7954	0.5829	0.005
Mof_N 	N 	0.8546	0.8546	0.6256	-0.221
Mof_N 	N 	0.8113	0.8113	0.4631	-0.15
Mof_C 	C 	0.3982	0.6018	0.8849	0.04
Mof_H 	H 	0.4177	0.5823	0.8506	-0.024
Mof_C 	C 	0.4151	0.5849	0.9438	-0.067
Mof_H 	H 	0.446	0.554	0.9494	0.043
Mof_C 	C 	0.3873	0.6127	0.9964	-0.075
Mof_H 	H 	0.3987	0.6013	0.0373	0.052
Mof_C 	C 	0.343	0.657	0.9852	0.066
Mof_C 	C 	0.3261	0.6739	0.924	-0.027
Mof_H 	H 	0.2954	0.7046	0.9171	0.005
Mof_N 	N 	0.3546	0.6454	0.8744	-0.221
Mof_N 	N 	0.3113	0.6887	0.0369	-0.15
Mof_C 	C 	0.8982	0.1018	0.3849	0.04
Mof_H 	H 	0.9177	0.0823	0.3506	-0.024
Mof_C 	C 	0.9151	0.0849	0.4438	-0.068
Mof_H 	H 	0.946	0.054	0.4494	0.043
Mof_C 	C 	0.8873	0.1127	0.4964	-0.075
Mof_H 	H 	0.8987	0.1013	0.5373	0.052
Mof_C 	C 	0.843	0.157	0.4852	0.066
Mof_C 	C 	0.8261	0.1739	0.424	-0.027
Mof_H 	H 	0.7954	0.2046	0.4171	0.005
Mof_N 	N 	0.8546	0.1454	0.3744	-0.221
Mof_N 	N 	0.8113	0.1887	0.5369	-0.15
Mof_C 	C 	0.1151	0.6018	0.6018	0.04
Mof_H 	H 	0.1494	0.5823	0.5823	-0.024
Mof_C 	C 	0.0562	0.5849	0.5849	-0.067
Mof_H 	H 	0.0506	0.554	0.554	0.043
Mof_C 	C 	0.0036	0.6127	0.6127	-0.075
Mof_H 	H 	0.9627	0.6013	0.6013	0.052
Mof_C 	C 	0.0148	0.657	0.657	0.066
Mof_C 	C 	0.076	0.6739	0.6739	-0.027
Mof_H 	H 	0.0829	0.7046	0.7046	0.005
Mof_N 	N 	0.1256	0.6454	0.6454	-0.221
Mof_N 	N 	0.9631	0.6887	0.6887	-0.15
Mof_C 	C 	0.6151	0.1018	0.1018	0.04
Mof_H 	H 	0.6494	0.0823	0.0823	-0.024
Mof_C 	C 	0.5562	0.0849	0.0849	-0.068
Mof_H 	H 	0.5506	0.054	0.054	0.043
Mof_C 	C 	0.5036	0.1127	0.1127	-0.075
Mof_H 	H 	0.4627	0.1013	0.1013	0.052
Mof_C 	C 	0.5148	0.157	0.157	0.066
Mof_C 	C 	0.576	0.1739	0.1739	-0.027
Mof_H 	H 	0.5829	0.2046	0.2046	0.005
Mof_N 	N 	0.6256	0.1454	0.1454	-0.221
Mof_N 	N 	0.4631	0.1887	0.1887	-0.15
Mof_C 	C 	0.8849	0.6018	0.3982	0.04
Mof_H 	H 	0.8506	0.5823	0.4177	-0.024
Mof_C 	C 	0.9438	0.5849	0.4151	-0.067
Mof_H 	H 	0.9494	0.554	0.446	0.043
Mof_C 	C 	0.9964	0.6127	0.3873	-0.075
Mof_H 	H 	0.0373	0.6013	0.3987	0.052
Mof_C 	C 	0.9852	0.657	0.343	0.066
Mof_C 	C 	0.924	0.6739	0.3261	-0.027
Mof_H 	H 	0.9171	0.7046	0.2954	0.005
Mof_N 	N 	0.8744	0.6454	0.3546	-0.221
Mof_N 	N 	0.0369	0.6887	0.3113	-0.15
Mof_C 	C 	0.3849	0.1018	0.8982	0.04
Mof_H 	H 	0.3506	0.0823	0.9177	-0.024
Mof_C 	C 	0.4438	0.0849	0.9151	-0.068
Mof_H 	H 	0.4494	0.054	0.946	0.043
Mof_C 	C 	0.4964	0.1127	0.8873	-0.075
Mof_H 	H 	0.5373	0.1013	0.8987	0.052
Mof_C 	C 	0.4852	0.157	0.843	0.066
Mof_C 	C 	0.424	0.1739	0.8261	-0.027
Mof_H 	H 	0.4171	0.2046	0.7954	0.005
Mof_N 	N 	0.3744	0.1454	0.8546	-0.221
Mof_N 	N 	0.5369	0.1887	0.8113	-0.15
Mof_C 	C 	0.1151	0.3982	0.3982	0.04
Mof_H 	H 	0.1494	0.4177	0.4177	-0.024
Mof_C 	C 	0.0562	0.4151	0.4151	-0.067
Mof_H 	H 	0.0506	0.446	0.446	0.043
Mof_C 	C 	0.0036	0.3873	0.3873	-0.075
Mof_H 	H 	0.9627	0.3987	0.3987	0.052
Mof_C 	C 	0.0148	0.343	0.343	0.066
Mof_C 	C 	0.076	0.3261	0.3261	-0.027
Mof_H 	H 	0.0829	0.2954	0.2954	0.005
Mof_N 	N 	0.1256	0.3546	0.3546	-0.221
Mof_N 	N 	0.9631	0.3113	0.3113	-0.15
Mof_C 	C 	0.6151	0.8982	0.8982	0.04
Mof_H 	H 	0.6494	0.9177	0.9177	-0.024
Mof_C 	C 	0.5562	0.9151	0.9151	-0.068
Mof_H 	H 	0.5506	0.946	0.946	0.043
Mof_C 	C 	0.5036	0.8873	0.8873	-0.075
Mof_H 	H 	0.4627	0.8987	0.8987	0.052
Mof_C 	C 	0.5148	0.843	0.843	0.066
Mof_C 	C 	0.576	0.8261	0.8261	-0.027
Mof_H 	H 	0.5829	0.7954	0.7954	0.005
Mof_N 	N 	0.6256	0.8546	0.8546	-0.221
Mof_N 	N 	0.4631	0.8113	0.8113	-0.15
Mof_C 	C 	0.8849	0.3982	0.6018	0.04
Mof_H 	H 	0.8506	0.4177	0.5823	-0.024
Mof_C 	C 	0.9438	0.4151	0.5849	-0.067
Mof_H 	H 	0.9494	0.446	0.554	0.043
Mof_C 	C 	0.9964	0.3873	0.6127	-0.075
Mof_H 	H 	0.0373	0.3987	0.6013	0.052
Mof_C 	C 	0.9852	0.343	0.657	0.066
Mof_C 	C 	0.924	0.3261	0.6739	-0.027
Mof_H 	H 	0.9171	0.2954	0.7046	0.005
Mof_N 	N 	0.8744	0.3546	0.6454	-0.221
Mof_N 	N 	0.0369	0.3113	0.6887	-0.15
Mof_C 	C 	0.3849	0.8982	0.1018	0.04
Mof_H 	H 	0.3506	0.9177	0.0823	-0.024
Mof_C 	C 	0.4438	0.9151	0.0849	-0.068
Mof_H 	H 	0.4494	0.946	0.054	0.043
Mof_C 	C 	0.4964	0.8873	0.1127	-0.075
Mof_H 	H 	0.5373	0.8987	0.1013	0.052
Mof_C 	C 	0.4852	0.843	0.157	0.066
Mof_C 	C 	0.424	0.8261	0.1739	-0.027
Mof_H 	H 	0.4171	0.7954	0.2046	0.005
Mof_N 	N 	0.3744	0.8546	0.1454	-0.221
Mof_N 	N 	0.5369	0.8113	0.1887	-0.15
_end
