data_functionalizedCrystal
_audit_creation_method	'EQeq! by Chris Wilmer'
_symmetry_space_group_name_H-M	'P1'
_symmetry_Int_Tables_number	1
_symmetry_cell_setting	triclinic
loop_
_symmetry_equiv_pos_as_xyz
  x,y,z
_cell_length_a	33.02
_cell_length_b	13.317
_cell_length_c	14.22
_cell_angle_alpha	90
_cell_angle_beta	101.739
_cell_angle_gamma	90
loop_
_atom_site_label
_atom_site_type_symbol
_atom_site_fract_x
_atom_site_fract_y
_atom_site_fract_z
_atom_site_charge
Mof_C 	C 	0.1168	0.7505	0.5039	0.324
Mof_C 	C 	0.0781	0.7739	0.5405	-0.114
Mof_C 	C 	0.0697	0.8712	0.5654	0.053
Mof_H 	H 	0.0882	0.9228	0.5608	0.02
Mof_C 	C 	0.0336	0.891	0.5974	-0.152
Mof_H 	H 	0.0293	0.9559	0.6175	0.08
Mof_C 	C 	0.0043	0.8219	0.601	0.106
Mof_C 	C 	0.0128	0.7297	0.5786	-0.152
Mof_H 	H 	0.9932	0.6805	0.5826	0.075
Mof_C 	C 	0.0495	0.6988	0.5488	0.046
Mof_H 	H 	0.0542	0.6319	0.5355	0.016
Mof_C 	C 	0.9649	0.849	0.6291	-0.059
Mof_C 	C 	0.9492	0.944	0.6202	0.013
Mof_H 	H 	0.9649	0.9955	0.6016	0.022
Mof_C 	C 	0.9106	0.9655	0.6382	-0.128
Mof_H 	H 	0.9004	0.0307	0.6291	0.075
Mof_C 	C 	0.8869	0.8932	0.6693	0.088
Mof_C 	C 	0.9033	0.7976	0.6814	-0.122
Mof_H 	H 	0.8882	0.7477	0.7046	0.071
Mof_C 	C 	0.9408	0.7734	0.6606	0.012
Mof_H 	H 	0.9504	0.7076	0.6672	0.019
Mof_C 	C 	0.8444	0.9136	0.6827	-0.092
Mof_C 	C 	0.82	0.9853	0.6277	0.063
Mof_H 	H 	0.8311	0.0253	0.5857	0.002
Mof_C 	C 	0.7791	0.998	0.6346	-0.21
Mof_C 	C 	0.7633	0.942	0.7014	0.132
Mof_H 	H 	0.7357	0.9491	0.7055	-0.009
Mof_C 	C 	0.7879	0.8775	0.7604	-0.197
Mof_C 	C 	0.8278	0.8593	0.75	0.066
Mof_H 	H 	0.8437	0.8109	0.7878	0.019
Mof_C 	C 	0.753	0.0709	0.5715	0.471
Mof_C 	C 	0.7706	0.8157	0.8356	0.517
Mof_Eu	Eu	0.19208	0.70332	0.45242	2.109
Mof_O 	O 	0.1376	0.8211	0.4812	-0.452
Mof_O 	O 	0.1274	0.6595	0.5036	-0.46
Mof_O 	O 	0.7944	0.7544	0.8844	-0.529
Mof_O 	O 	0.73498	0.839	0.8436	-0.586
Mof_O 	O 	0.71548	0.0538	0.5496	-0.5
Mof_O 	O 	0.76868	0.1495	0.5422	-0.641
Mof_C 	C 	0.6168	0.2505	0.5039	0.324
Mof_C 	C 	0.5781	0.2739	0.5405	-0.113
Mof_C 	C 	0.5697	0.3712	0.5654	0.054
Mof_H 	H 	0.5882	0.4228	0.5608	0.021
Mof_C 	C 	0.5336	0.391	0.5974	-0.151
Mof_H 	H 	0.5293	0.4559	0.6175	0.081
Mof_C 	C 	0.5043	0.3219	0.601	0.106
Mof_C 	C 	0.5128	0.2297	0.5786	-0.151
Mof_H 	H 	0.4932	0.1805	0.5826	0.075
Mof_C 	C 	0.5495	0.1988	0.5488	0.045
Mof_H 	H 	0.5542	0.1319	0.5355	0.016
Mof_C 	C 	0.4649	0.349	0.6291	-0.059
Mof_C 	C 	0.4492	0.444	0.6202	0.012
Mof_H 	H 	0.4649	0.4955	0.6016	0.022
Mof_C 	C 	0.4106	0.4655	0.6382	-0.126
Mof_H 	H 	0.4004	0.5307	0.6291	0.074
Mof_C 	C 	0.3869	0.3932	0.6693	0.087
Mof_C 	C 	0.4033	0.2976	0.6814	-0.121
Mof_H 	H 	0.3882	0.2477	0.7046	0.071
Mof_C 	C 	0.4408	0.2734	0.6606	0.011
Mof_H 	H 	0.4504	0.2076	0.6672	0.019
Mof_C 	C 	0.3444	0.4136	0.6827	-0.092
Mof_C 	C 	0.32	0.4853	0.6277	0.064
Mof_H 	H 	0.3311	0.5253	0.5857	0.002
Mof_C 	C 	0.2791	0.498	0.6346	-0.21
Mof_C 	C 	0.2633	0.442	0.7014	0.132
Mof_H 	H 	0.2357	0.4491	0.7055	-0.009
Mof_C 	C 	0.2879	0.3775	0.7604	-0.196
Mof_C 	C 	0.3278	0.3593	0.75	0.065
Mof_H 	H 	0.3437	0.3109	0.7878	0.019
Mof_C 	C 	0.253	0.5709	0.5715	0.471
Mof_C 	C 	0.2706	0.3157	0.8356	0.517
Mof_Eu	Eu	0.69208	0.20332	0.45242	2.108
Mof_O 	O 	0.6376	0.3211	0.4812	-0.452
Mof_O 	O 	0.6274	0.1595	0.5036	-0.46
Mof_O 	O 	0.2944	0.2544	0.8844	-0.529
Mof_O 	O 	0.23498	0.339	0.8436	-0.586
Mof_O 	O 	0.21548	0.5538	0.5496	-0.5
Mof_O 	O 	0.26868	0.6495	0.5422	-0.641
Mof_C 	C 	0.8832	0.7505	0.9961	0.323
Mof_C 	C 	0.9219	0.7739	0.9595	-0.112
Mof_C 	C 	0.9303	0.8712	0.9346	0.054
Mof_H 	H 	0.9118	0.9228	0.9392	0.021
Mof_C 	C 	0.9664	0.891	0.9026	-0.151
Mof_H 	H 	0.9707	0.9559	0.8825	0.081
Mof_C 	C 	0.9957	0.8219	0.899	0.107
Mof_C 	C 	0.9872	0.7297	0.9214	-0.151
Mof_H 	H 	0.0068	0.6805	0.9174	0.075
Mof_C 	C 	0.9505	0.6988	0.9512	0.045
Mof_H 	H 	0.9458	0.6319	0.9645	0.016
Mof_C 	C 	0.0351	0.849	0.8709	-0.061
Mof_C 	C 	0.0508	0.944	0.8798	0.015
Mof_H 	H 	0.0351	0.9955	0.8984	0.021
Mof_C 	C 	0.0894	0.9655	0.8618	-0.131
Mof_H 	H 	0.0996	0.0307	0.8709	0.076
Mof_C 	C 	0.1131	0.8932	0.8307	0.089
Mof_C 	C 	0.0967	0.7976	0.8186	-0.123
Mof_H 	H 	0.1118	0.7477	0.7954	0.071
Mof_C 	C 	0.0592	0.7734	0.8394	0.013
Mof_H 	H 	0.0496	0.7076	0.8328	0.018
Mof_C 	C 	0.1556	0.9136	0.8173	-0.092
Mof_C 	C 	0.18	0.9853	0.8723	0.062
Mof_H 	H 	0.1689	0.0253	0.9143	0.003
Mof_C 	C 	0.2209	0.998	0.8654	-0.211
Mof_C 	C 	0.2367	0.942	0.7986	0.132
Mof_H 	H 	0.2643	0.9491	0.7945	-0.009
Mof_C 	C 	0.2121	0.8775	0.7396	-0.197
Mof_C 	C 	0.1722	0.8593	0.75	0.066
Mof_H 	H 	0.1563	0.8109	0.7122	0.019
Mof_C 	C 	0.247	0.0709	0.9285	0.472
Mof_C 	C 	0.2294	0.8157	0.6644	0.517
Mof_Eu	Eu	0.80792	0.70332	0.04758	2.11
Mof_O 	O 	0.8624	0.8211	0.0188	-0.451
Mof_O 	O 	0.8726	0.6595	0.9964	-0.46
Mof_O 	O 	0.2056	0.7544	0.6156	-0.529
Mof_O 	O 	0.26502	0.839	0.6564	-0.586
Mof_O 	O 	0.28452	0.0538	0.9504	-0.499
Mof_O 	O 	0.23132	0.1495	0.9578	-0.641
Mof_C 	C 	0.3832	0.2505	0.9961	0.325
Mof_C 	C 	0.4219	0.2739	0.9595	-0.113
Mof_C 	C 	0.4303	0.3712	0.9346	0.054
Mof_H 	H 	0.4118	0.4228	0.9392	0.021
Mof_C 	C 	0.4664	0.391	0.9026	-0.151
Mof_H 	H 	0.4707	0.4559	0.8825	0.081
Mof_C 	C 	0.4957	0.3219	0.899	0.106
Mof_C 	C 	0.4872	0.2297	0.9214	-0.151
Mof_H 	H 	0.5068	0.1805	0.9174	0.075
Mof_C 	C 	0.4505	0.1988	0.9512	0.046
Mof_H 	H 	0.4458	0.1319	0.9645	0.016
Mof_C 	C 	0.5351	0.349	0.8709	-0.059
Mof_C 	C 	0.5508	0.444	0.8798	0.012
Mof_H 	H 	0.5351	0.4955	0.8984	0.022
Mof_C 	C 	0.5894	0.4655	0.8618	-0.126
Mof_H 	H 	0.5996	0.5307	0.8709	0.074
Mof_C 	C 	0.6131	0.3932	0.8307	0.087
Mof_C 	C 	0.5967	0.2976	0.8186	-0.121
Mof_H 	H 	0.6118	0.2477	0.7954	0.071
Mof_C 	C 	0.5592	0.2734	0.8394	0.011
Mof_H 	H 	0.5496	0.2076	0.8328	0.019
Mof_C 	C 	0.6556	0.4136	0.8173	-0.092
Mof_C 	C 	0.68	0.4853	0.8723	0.064
Mof_H 	H 	0.6689	0.5253	0.9143	0.002
Mof_C 	C 	0.7209	0.498	0.8654	-0.21
Mof_C 	C 	0.7367	0.442	0.7986	0.132
Mof_H 	H 	0.7643	0.4491	0.7945	-0.009
Mof_C 	C 	0.7121	0.3775	0.7396	-0.196
Mof_C 	C 	0.6722	0.3593	0.75	0.065
Mof_H 	H 	0.6563	0.3109	0.7122	0.019
Mof_C 	C 	0.747	0.5709	0.9285	0.471
Mof_C 	C 	0.7294	0.3157	0.6644	0.517
Mof_Eu	Eu	0.30792	0.20332	0.04758	2.106
Mof_O 	O 	0.3624	0.3211	0.0188	-0.453
Mof_O 	O 	0.3726	0.1595	0.9964	-0.46
Mof_O 	O 	0.7056	0.2544	0.6156	-0.529
Mof_O 	O 	0.76502	0.339	0.6564	-0.586
Mof_O 	O 	0.78452	0.5538	0.9504	-0.5
Mof_O 	O 	0.73132	0.6495	0.9578	-0.641
Mof_C 	C 	0.8832	0.2495	0.4961	0.325
Mof_C 	C 	0.9219	0.2261	0.4595	-0.113
Mof_C 	C 	0.9303	0.1288	0.4346	0.054
Mof_H 	H 	0.9118	0.0772	0.4392	0.021
Mof_C 	C 	0.9664	0.109	0.4026	-0.151
Mof_H 	H 	0.9707	0.0441	0.3825	0.081
Mof_C 	C 	0.9957	0.1781	0.399	0.106
Mof_C 	C 	0.9872	0.2703	0.4214	-0.152
Mof_H 	H 	0.0068	0.3195	0.4174	0.075
Mof_C 	C 	0.9505	0.3012	0.4512	0.046
Mof_H 	H 	0.9458	0.3681	0.4645	0.016
Mof_C 	C 	0.0351	0.151	0.3709	-0.059
Mof_C 	C 	0.0508	0.056	0.3798	0.013
Mof_H 	H 	0.0351	0.0045	0.3984	0.022
Mof_C 	C 	0.0894	0.0345	0.3618	-0.128
Mof_H 	H 	0.0996	0.9693	0.3709	0.075
Mof_C 	C 	0.1131	0.1068	0.3307	0.088
Mof_C 	C 	0.0967	0.2024	0.3186	-0.122
Mof_H 	H 	0.1118	0.2523	0.2954	0.071
Mof_C 	C 	0.0592	0.2266	0.3394	0.012
Mof_H 	H 	0.0496	0.2924	0.3328	0.019
Mof_C 	C 	0.1556	0.0864	0.3173	-0.092
Mof_C 	C 	0.18	0.0147	0.3723	0.063
Mof_H 	H 	0.1689	0.9747	0.4143	0.002
Mof_C 	C 	0.2209	0.002	0.3654	-0.21
Mof_C 	C 	0.2367	0.058	0.2986	0.132
Mof_H 	H 	0.2643	0.0509	0.2945	-0.009
Mof_C 	C 	0.2121	0.1225	0.2396	-0.197
Mof_C 	C 	0.1722	0.1407	0.25	0.066
Mof_H 	H 	0.1563	0.1891	0.2122	0.019
Mof_C 	C 	0.247	0.9291	0.4285	0.471
Mof_C 	C 	0.2294	0.1843	0.1644	0.517
Mof_Eu	Eu	0.80792	0.29668	0.54758	2.109
Mof_O 	O 	0.8624	0.1789	0.5188	-0.452
Mof_O 	O 	0.8726	0.3405	0.4964	-0.46
Mof_O 	O 	0.2056	0.2456	0.1156	-0.529
Mof_O 	O 	0.26502	0.161	0.1564	-0.586
Mof_O 	O 	0.28452	0.9462	0.4504	-0.5
Mof_O 	O 	0.23132	0.8505	0.4578	-0.641
Mof_C 	C 	0.3832	0.7495	0.4961	0.324
Mof_C 	C 	0.4219	0.7261	0.4595	-0.113
Mof_C 	C 	0.4303	0.6288	0.4346	0.054
Mof_H 	H 	0.4118	0.5772	0.4392	0.021
Mof_C 	C 	0.4664	0.609	0.4026	-0.151
Mof_H 	H 	0.4707	0.5441	0.3825	0.081
Mof_C 	C 	0.4957	0.6781	0.399	0.106
Mof_C 	C 	0.4872	0.7703	0.4214	-0.151
Mof_H 	H 	0.5068	0.8195	0.4174	0.075
Mof_C 	C 	0.4505	0.8012	0.4512	0.045
Mof_H 	H 	0.4458	0.8681	0.4645	0.016
Mof_C 	C 	0.5351	0.651	0.3709	-0.059
Mof_C 	C 	0.5508	0.556	0.3798	0.012
Mof_H 	H 	0.5351	0.5045	0.3984	0.022
Mof_C 	C 	0.5894	0.5345	0.3618	-0.126
Mof_H 	H 	0.5996	0.4693	0.3709	0.074
Mof_C 	C 	0.6131	0.6068	0.3307	0.087
Mof_C 	C 	0.5967	0.7024	0.3186	-0.121
Mof_H 	H 	0.6118	0.7523	0.2954	0.071
Mof_C 	C 	0.5592	0.7266	0.3394	0.011
Mof_H 	H 	0.5496	0.7924	0.3328	0.019
Mof_C 	C 	0.6556	0.5864	0.3173	-0.092
Mof_C 	C 	0.68	0.5147	0.3723	0.064
Mof_H 	H 	0.6689	0.4747	0.4143	0.002
Mof_C 	C 	0.7209	0.502	0.3654	-0.21
Mof_C 	C 	0.7367	0.558	0.2986	0.132
Mof_H 	H 	0.7643	0.5509	0.2945	-0.009
Mof_C 	C 	0.7121	0.6225	0.2396	-0.196
Mof_C 	C 	0.6722	0.6407	0.25	0.065
Mof_H 	H 	0.6563	0.6891	0.2122	0.019
Mof_C 	C 	0.747	0.4291	0.4285	0.471
Mof_C 	C 	0.7294	0.6843	0.1644	0.517
Mof_Eu	Eu	0.30792	0.79668	0.54758	2.108
Mof_O 	O 	0.3624	0.6789	0.5188	-0.452
Mof_O 	O 	0.3726	0.8405	0.4964	-0.46
Mof_O 	O 	0.7056	0.7456	0.1156	-0.529
Mof_O 	O 	0.76502	0.661	0.1564	-0.586
Mof_O 	O 	0.78452	0.4462	0.4504	-0.5
Mof_O 	O 	0.73132	0.3505	0.4578	-0.641
Mof_C 	C 	0.1168	0.2495	0.0039	0.323
Mof_C 	C 	0.0781	0.2261	0.0405	-0.112
Mof_C 	C 	0.0697	0.1288	0.0654	0.054
Mof_H 	H 	0.0882	0.0772	0.0608	0.021
Mof_C 	C 	0.0336	0.109	0.0974	-0.151
Mof_H 	H 	0.0293	0.0441	0.1175	0.081
Mof_C 	C 	0.0043	0.1781	0.101	0.107
Mof_C 	C 	0.0128	0.2703	0.0786	-0.151
Mof_H 	H 	0.9932	0.3195	0.0826	0.075
Mof_C 	C 	0.0495	0.3012	0.0488	0.045
Mof_H 	H 	0.0542	0.3681	0.0355	0.016
Mof_C 	C 	0.9649	0.151	0.1291	-0.061
Mof_C 	C 	0.9492	0.056	0.1202	0.015
Mof_H 	H 	0.9649	0.0045	0.1016	0.021
Mof_C 	C 	0.9106	0.0345	0.1382	-0.131
Mof_H 	H 	0.9004	0.9693	0.1291	0.076
Mof_C 	C 	0.8869	0.1068	0.1693	0.089
Mof_C 	C 	0.9033	0.2024	0.1814	-0.123
Mof_H 	H 	0.8882	0.2523	0.2046	0.071
Mof_C 	C 	0.9408	0.2266	0.1606	0.013
Mof_H 	H 	0.9504	0.2924	0.1672	0.018
Mof_C 	C 	0.8444	0.0864	0.1827	-0.092
Mof_C 	C 	0.82	0.0147	0.1277	0.062
Mof_H 	H 	0.8311	0.9747	0.0857	0.003
Mof_C 	C 	0.7791	0.002	0.1346	-0.211
Mof_C 	C 	0.7633	0.058	0.2014	0.132
Mof_H 	H 	0.7357	0.0509	0.2055	-0.009
Mof_C 	C 	0.7879	0.1225	0.2604	-0.197
Mof_C 	C 	0.8278	0.1407	0.25	0.066
Mof_H 	H 	0.8437	0.1891	0.2878	0.019
Mof_C 	C 	0.753	0.9291	0.0715	0.472
Mof_C 	C 	0.7706	0.1843	0.3356	0.517
Mof_Eu	Eu	0.19208	0.29668	0.95242	2.11
Mof_O 	O 	0.1376	0.1789	0.9812	-0.451
Mof_O 	O 	0.1274	0.3405	0.0036	-0.46
Mof_O 	O 	0.7944	0.2456	0.3844	-0.529
Mof_O 	O 	0.73498	0.161	0.3436	-0.586
Mof_O 	O 	0.71548	0.9462	0.0496	-0.499
Mof_O 	O 	0.76868	0.8505	0.0422	-0.641
Mof_C 	C 	0.6168	0.7495	0.0039	0.325
Mof_C 	C 	0.5781	0.7261	0.0405	-0.113
Mof_C 	C 	0.5697	0.6288	0.0654	0.054
Mof_H 	H 	0.5882	0.5772	0.0608	0.021
Mof_C 	C 	0.5336	0.609	0.0974	-0.151
Mof_H 	H 	0.5293	0.5441	0.1175	0.081
Mof_C 	C 	0.5043	0.6781	0.101	0.106
Mof_C 	C 	0.5128	0.7703	0.0786	-0.151
Mof_H 	H 	0.4932	0.8195	0.0826	0.075
Mof_C 	C 	0.5495	0.8012	0.0488	0.046
Mof_H 	H 	0.5542	0.8681	0.0355	0.016
Mof_C 	C 	0.4649	0.651	0.1291	-0.059
Mof_C 	C 	0.4492	0.556	0.1202	0.012
Mof_H 	H 	0.4649	0.5045	0.1016	0.022
Mof_C 	C 	0.4106	0.5345	0.1382	-0.126
Mof_H 	H 	0.4004	0.4693	0.1291	0.074
Mof_C 	C 	0.3869	0.6068	0.1693	0.087
Mof_C 	C 	0.4033	0.7024	0.1814	-0.121
Mof_H 	H 	0.3882	0.7523	0.2046	0.071
Mof_C 	C 	0.4408	0.7266	0.1606	0.011
Mof_H 	H 	0.4504	0.7924	0.1672	0.019
Mof_C 	C 	0.3444	0.5864	0.1827	-0.092
Mof_C 	C 	0.32	0.5147	0.1277	0.064
Mof_H 	H 	0.3311	0.4747	0.0857	0.002
Mof_C 	C 	0.2791	0.502	0.1346	-0.21
Mof_C 	C 	0.2633	0.558	0.2014	0.132
Mof_H 	H 	0.2357	0.5509	0.2055	-0.009
Mof_C 	C 	0.2879	0.6225	0.2604	-0.196
Mof_C 	C 	0.3278	0.6407	0.25	0.065
Mof_H 	H 	0.3437	0.6891	0.2878	0.019
Mof_C 	C 	0.253	0.4291	0.0715	0.471
Mof_C 	C 	0.2706	0.6843	0.3356	0.517
Mof_Eu	Eu	0.69208	0.79668	0.95242	2.106
Mof_O 	O 	0.6376	0.6789	0.9812	-0.453
Mof_O 	O 	0.6274	0.8405	0.0036	-0.46
Mof_O 	O 	0.2944	0.7456	0.3844	-0.529
Mof_O 	O 	0.23498	0.661	0.3436	-0.586
Mof_O 	O 	0.21548	0.4462	0.0496	-0.5
Mof_O 	O 	0.26868	0.3505	0.0422	-0.641
_end
