data_functionalizedCrystal
_audit_creation_method	'EQeq! by Chris Wilmer'
_symmetry_space_group_name_H-M	'P1'
_symmetry_Int_Tables_number	1
_symmetry_cell_setting	triclinic
loop_
_symmetry_equiv_pos_as_xyz
  x,y,z
_cell_length_a	25.9989
_cell_length_b	25.9989
_cell_length_c	42.656
_cell_angle_alpha	90
_cell_angle_beta	90
_cell_angle_gamma	120
loop_
_atom_site_label
_atom_site_type_symbol
_atom_site_fract_x
_atom_site_fract_y
_atom_site_fract_z
_atom_site_charge
Mof_Y 	Y 	0.093	0	0.792	-1.291
Mof_Y 	Y 	0.907	-8.0876e-33	0.292	-1.291
Mof_Y 	Y 	0.15449	0	0.75	2.282
Mof_Y 	Y 	0.91545	0.91545	0.29479	2.301
Mof_Y 	Y 	-5.00119e-18	0.8467	0.75	0.71
Mof_Y 	Y 	0.41114	1.61752e-32	0.53318	1.619
Mof_Y 	Y 	0.08455	0.08455	0.70521	2.065
Mof_Y 	Y 	0.43904	0.87808	0.5	1.819
Mof_Y 	Y 	-4.41295e-17	0.55487	0.94474	1.723
Mof_Y 	Y 	-1.14639e-16	0.907	0.208	-1.291
Mof_Y 	Y 	0.55487	0.55487	0.44474	1.869
Mof_Y 	Y 	0.84551	0	0.25	2.274
Mof_Y 	Y 	-4.309e-17	0.58886	0.03318	1.602
Mof_Y 	Y 	0.44513	0.44513	0.55526	1.868
Mof_Y 	Y 	0.41114	-3.23504e-32	0.96682	1.634
Mof_Y 	Y 	0.41114	0.41114	0.46682	1.773
Mof_Y 	Y 	-4.33426e-18	0.093	0.792	-1.292
Mof_Y 	Y 	0.58886	0	0.46682	1.618
Mof_Y 	Y 	-4.8087e-18	0.08455	0.20521	1.954
Mof_Y 	Y 	-1.11032e-17	0.44513	0.05526	1.715
Mof_Y 	Y 	0.12192	0.56096	0.5	1.815
Mof_Y 	Y 	0.907	0.907	0.792	-1.332
Mof_Y 	Y 	-1.65132e-17	0.44513	0.44474	1.719
Mof_Y 	Y 	-1.21426e-17	0.41114	0.96682	1.634
Mof_Y 	Y 	-4.59599e-18	0.08455	0.29479	1.954
Mof_Y 	Y 	0.56096	0.43904	-0	1.796
Mof_Y 	Y 	0.58886	0	0.03318	1.601
Mof_Y 	Y 	0.41114	0.41114	0.03318	1.755
Mof_Y 	Y 	0.55487	0	0.94474	1.722
Mof_Y 	Y 	-2.09496e-17	0.58886	0.46682	1.618
Mof_Y 	Y 	3.99828e-18	0.91545	0.70521	2.068
Mof_Y 	Y 	0.55487	0.55487	0.05526	1.864
Mof_Y 	Y 	0.8467	0	0.75	0.709
Mof_Y 	Y 	0.43904	0.56096	0.5	1.825
Mof_Y 	Y 	0.44513	0.44513	0.94474	1.871
Mof_Y 	Y 	0.8467	0.8467	0.25	0.807
Mof_Y 	Y 	-1.4774e-17	0.093	0.708	-1.292
Mof_Y 	Y 	-5.02315e-17	0.84551	0.25	2.273
Mof_Y 	Y 	-1.31517e-16	0.907	0.292	-1.292
Mof_Y 	Y 	0.91545	0.91545	0.20521	2.3
Mof_Y 	Y 	0.907	0.907	0.708	-1.332
Mof_Y 	Y 	0.907	0	0.208	-1.292
Mof_Y 	Y 	0.12192	0.56096	-0	1.787
Mof_Y 	Y 	0.44513	0	0.44474	1.719
Mof_Y 	Y 	0.87808	0.43904	0.5	1.818
Mof_Y 	Y 	0.91545	0	0.70521	2.068
Mof_Y 	Y 	0.55487	0	0.55526	1.719
Mof_Y 	Y 	0.87808	0.43904	-0	1.79
Mof_Y 	Y 	0.84551	0.84551	0.75	2.462
Mof_Y 	Y 	0.56096	0.12192	0.5	1.815
Mof_Y 	Y 	2.14025e-18	0.41114	0.53318	1.618
Mof_Y 	Y 	-1.40007e-17	0.91545	0.79479	2.068
Mof_Y 	Y 	0.58886	0.58886	0.53318	1.773
Mof_Y 	Y 	-3.87195e-17	0.55487	0.55526	1.719
Mof_Y 	Y 	0.58886	0.58886	0.96682	1.79
Mof_Y 	Y 	0.43904	0.87808	-0	1.79
Mof_Y 	Y 	0.91545	0	0.79479	2.068
Mof_Y 	Y 	0.093	0.093	0.292	-1.33
Mof_Y 	Y 	0.08455	0	0.20521	1.954
Mof_Y 	Y 	-1.4107e-17	0.15449	0.75	2.281
Mof_Y 	Y 	4.40349e-18	0.1533	0.25	0.764
Mof_Y 	Y 	0.08455	8.0876e-33	0.29479	1.954
Mof_Y 	Y 	0.093	0.093	0.208	-1.33
Mof_Y 	Y 	0.15449	0.15449	0.25	2.47
Mof_Y 	Y 	0.1533	0	0.25	0.764
Mof_Y 	Y 	0.1533	0.1533	0.75	0.911
Mof_Y 	Y 	0.56096	0.43904	0.5	1.825
Mof_Y 	Y 	0.43904	0.56096	-0	1.796
Mof_Y 	Y 	0.093	0	0.708	-1.292
Mof_Y 	Y 	0.08455	0.08455	0.79479	2.064
Mof_Y 	Y 	0.56096	0.12192	-0	1.787
Mof_Y 	Y 	0.44513	0	0.05526	1.715
Mof_H 	H 	0.9188	0.6943	0.1831	0.037
Mof_H 	H 	0.7423	0.6208	0.8554	0.094
Mof_H 	H 	0.3057	0.0812	0.6831	0.001
Mof_H 	H 	0.6383	0.3912	0.5403	-0.113
Mof_H 	H 	0.3894	0.7139	0.5093	0.056
Mof_H 	H 	0.3543	0.6186	0.4516	0.189
Mof_H 	H 	0.682	0.3307	0.4318	0.082
Mof_H 	H 	0.8468	0.8468	0.0049	-0.05
Mof_H 	H 	0.6145	0.2916	0.4453	0.103
Mof_H 	H 	0.6106	0.2861	0.4907	0.055
Mof_H 	H 	0.8702	0.2913	0.3953	0.024
Mof_H 	H 	0.2402	0.2402	0.491	0.093
Mof_H 	H 	0.3241	0.657	0.476	-0.192
Mof_H 	H 	-3.59806e-19	0.4082	0.7269	-0.058
Mof_H 	H 	0.767	0.0886	0.8821	0.005
Mof_H 	H 	0.1735	0.2345	0.3558	0.017
Mof_H 	H 	0.7923	0.6914	0.6059	0.092
Mof_H 	H 	0.2553	0.3932	0.655	0.084
Mof_H 	H 	0.6755	0.2861	0.5093	0.056
Mof_H 	H 	0.7294	0.1271	0.0905	0.036
Mof_H 	H 	0.7357	0.3543	0.5484	0.189
Mof_H 	H 	0.1215	0.3792	0.8554	0.095
Mof_H 	H 	0.2503	0.515	0.4629	0.015
Mof_H 	H 	0.6771	0.2916	0.9453	0.108
Mof_H 	H 	0.4941	0.4941	0.2105	0.128
Mof_H 	H 	0.9443	0.7521	0.8441	0.036
Mof_H 	H 	0.3307	0.682	0.0682	0.075
Mof_H 	H 	0.9443	0.1922	0.3441	0.035
Mof_H 	H 	0.2643	0.6186	0.9516	0.226
Mof_H 	H 	0.2706	0.8729	0.5905	0.056
Mof_H 	H 	0.4211	0.2913	0.6047	0.002
Mof_H 	H 	0.7529	0.3617	0.5403	-0.112
Mof_H 	H 	0.3543	0.7357	0.5484	0.189
Mof_H 	H 	0.6487	0.3307	0.5682	0.082
Mof_H 	H 	0.1926	4.0438e-33	0.0968	-0.265
Mof_H 	H 	0.6383	0.2471	0.0403	-0.071
Mof_H 	H 	0.6784	0.9114	0.6179	0.031
Mof_H 	H 	0.3912	0.6383	0.5403	-0.113
Mof_H 	H 	0.1271	0.7294	0.0905	0.036
Mof_H 	H 	0.6202	0.3511	0.4966	0.196
Mof_H 	H 	0.3617	0.6088	0.0403	-0.07
Mof_H 	H 	0.4941	-3.23504e-32	0.7895	0.115
Mof_H 	H 	0.343	0.6759	0.524	-0.194
Mof_H 	H 	0.0886	0.767	0.6179	0.006
Mof_H 	H 	0.8962	0.6811	0.6934	0.018
Mof_H 	H 	0.2471	0.6383	0.0403	-0.071
Mof_H 	H 	0.5059	0.5059	0.7895	0.127
Mof_H 	H 	0.7309	0.3511	0.5034	0.194
Mof_H 	H 	0.8265	0.7655	0.8558	0.026
Mof_H 	H 	0.2643	0.6186	0.5484	0.189
Mof_H 	H 	0.8729	0.6023	0.4095	0.056
Mof_H 	H 	0.6755	0.3894	0.0093	0.055
Mof_H 	H 	0.1009	0.3086	0.6059	0.084
Mof_H 	H 	0.9443	0.7521	0.6559	0.036
Mof_H 	H 	0.12935	0.12935	0.9422	0.176
Mof_H 	H 	0.2151	0.8962	0.3066	0.016
Mof_H 	H 	0.1532	1.26369e-34	0.0049	-0.103
Mof_H 	H 	0.12935	0	0.4422	0.182
Mof_H 	H 	0.8621	0.2553	0.345	0.095
Mof_H 	H 	0.0812	0.3057	0.8169	0.001
Mof_H 	H 	0.0557	0.2479	0.3441	-0.02
Mof_H 	H 	0.48615	0	0.343	-0.057
Mof_H 	H 	0.2691	0.6202	0.9966	0.198
Mof_H 	H 	0.1379	0.3932	0.345	0.077
Mof_H 	H 	4.87794e-18	0.48615	0.157	-0.058
Mof_H 	H 	0.3932	0.2553	0.655	0.084
Mof_H 	H 	0.7849	0.6811	0.3066	0.004
Mof_H 	H 	0.7923	0.6914	0.8941	0.093
Mof_H 	H 	0.6759	0.343	0.976	-0.194
Mof_H 	H 	0.3057	0.2245	0.1831	0.006
Mof_H 	H 	0.7294	0.6023	0.9095	0.039
Mof_H 	H 	0.0557	0.8078	0.6559	-0.014
Mof_H 	H 	0.1271	0.3977	0.9095	0.034
Mof_H 	H 	0.3932	0.1379	0.345	0.077
Mof_H 	H 	-1.94496e-17	0.1926	0.0968	-0.265
Mof_H 	H 	0.6208	0.8785	0.3554	0.113
Mof_H 	H 	0.342	0.342	0.3103	0.185
Mof_H 	H 	0.7655	0.939	0.3558	0.047
Mof_H 	H 	0.7598	0.7598	0.991	0.129
Mof_H 	H 	0.233	0.3216	0.8821	0.009
Mof_H 	H 	-4.36192e-17	0.87065	0.9422	0.198
Mof_H 	H 	0.1532	0.1532	0.5049	-0.071
Mof_H 	H 	0.6023	0.7294	0.9095	0.039
Mof_H 	H 	0.6771	0.3855	0.4453	0.104
Mof_H 	H 	0.1735	0.939	0.8558	0.046
Mof_H 	H 	0.1922	0.9443	0.1559	0.035
Mof_H 	H 	0.2503	0.7353	0.5371	0.02
Mof_H 	H 	-1.7117e-17	0.342	0.8103	0.167
Mof_H 	H 	0.2151	0.3189	0.8066	-0.003
Mof_H 	H 	0.6759	0.3329	0.476	-0.193
Mof_H 	H 	0.6487	0.318	0.0682	0.075
Mof_H 	H 	0.6186	0.3543	0.4516	0.189
Mof_H 	H 	0.3814	0.6457	0.5484	0.188
Mof_H 	H 	0.2479	0.0557	0.3441	-0.02
Mof_H 	H 	0.0812	0.3057	0.6831	0.001
Mof_H 	H 	0.6088	0.3617	0.0403	-0.07
Mof_H 	H 	0.233	0.9114	0.3821	0.03
Mof_H 	H 	0.3912	0.7529	0.4597	-0.112
Mof_H 	H 	0.2913	0.4211	0.6047	0.002
Mof_H 	H 	0.5918	0	0.2269	-0.057
Mof_H 	H 	0.7521	0.8078	0.3441	0.006
Mof_H 	H 	0.7521	0.9443	0.8441	0.036
Mof_H 	H 	0.6208	0.7423	0.6446	0.094
Mof_H 	H 	0.343	0.6759	0.976	-0.194
Mof_H 	H 	0.3229	0.7084	0.0547	0.099
Mof_H 	H 	0.51385	0	0.843	-0.057
Mof_H 	H 	0.5918	0.5918	0.7731	-0.051
Mof_H 	H 	-1.05577e-17	0.3089	0.4151	-4.322
Mof_H 	H 	0.51385	0.51385	0.343	-0.051
Mof_H 	H 	0.3511	0.7309	0.9966	0.196
Mof_H 	H 	0.2151	0.3189	0.6934	-0.003
Mof_H 	H 	0.1379	0.7447	0.845	0.076
Mof_H 	H 	0.6914	0.8991	0.1059	0.104
Mof_H 	H 	0.3229	0.6145	0.5547	0.104
Mof_H 	H 	0.9114	0.233	0.3821	0.03
Mof_H 	H 	-1.1213e-17	0.2402	0.509	0.09
Mof_H 	H 	0.8991	0.6914	0.1059	0.104
Mof_H 	H 	0.5059	0.5059	0.7105	0.127
Mof_H 	H 	0.4082	0	0.7269	-0.058
Mof_H 	H 	0.7357	0.3543	0.9516	0.226
Mof_H 	H 	0.2916	0.6771	0.9453	0.108
Mof_H 	H 	0.6489	0.2691	0.0034	0.188
Mof_H 	H 	0.3086	0.2077	0.3941	0.087
Mof_H 	H 	0.3912	0.6383	0.9597	-0.157
Mof_H 	H 	0.4941	0	0.7105	0.115
Mof_H 	H 	0.8078	0.7521	0.1559	0.006
Mof_H 	H 	0.0557	0.8078	0.8441	-0.014
Mof_H 	H 	0.6023	0.7294	0.5905	0.038
Mof_H 	H 	0.3894	0.6755	0.4907	0.056
Mof_H 	H 	0.87065	0.87065	0.0578	0.235
Mof_H 	H 	-1.27095e-16	0.8468	0.9951	-0.055
Mof_H 	H 	0.2077	0.3086	0.1059	0.086
Mof_H 	H 	0.8078	0.0557	0.8441	-0.014
Mof_H 	H 	-9.84537e-19	0.1532	0.0049	-0.103
Mof_H 	H 	0.3513	0.6693	0.4318	0.083
Mof_H 	H 	0.2345	0.061	0.8558	-0.004
Mof_H 	H 	0.2916	0.6145	0.0547	0.099
Mof_H 	H 	0.8074	0.8074	0.4032	-0.226
Mof_H 	H 	0.8078	0.0557	0.6559	-0.014
Mof_H 	H 	0.2691	0.6489	0.4966	0.192
Mof_H 	H 	0.1922	0.2479	0.6559	-0.001
Mof_H 	H 	-9.64258e-18	0.4082	0.7731	-0.057
Mof_H 	H 	2.20884e-18	0.12935	0.4422	0.182
Mof_H 	H 	0.3855	0.6771	0.0547	0.099
Mof_H 	H 	0.6911	0.6911	0.0849	-4.26
Mof_H 	H 	0.6811	0.8962	0.8066	0.018
Mof_H 	H 	0.7087	0.5789	0.1047	0.006
Mof_H 	H 	0.7139	0.3245	0.4907	0.056
Mof_H 	H 	0.3977	0.2706	0.4095	0.034
Mof_H 	H 	0.2345	0.1735	0.3558	0.017
Mof_H 	H 	0.3057	0.0812	0.8169	0.001
Mof_H 	H 	0.7529	0.3617	0.9597	-0.155
Mof_H 	H 	0.7529	0.3912	0.4597	-0.112
Mof_H 	H 	0.3089	0	0.4151	-4.322
Mof_H 	H 	0.4082	0	0.7731	-0.057
Mof_H 	H 	0.682	0.3513	0.9318	0.089
Mof_H 	H 	0.6457	0.3814	0.5484	0.188
Mof_H 	H 	0.48615	0.48615	0.843	-0.051
Mof_H 	H 	0.6811	0.7849	0.1934	0.005
Mof_H 	H 	0.1009	0.7923	0.3941	0.086
Mof_H 	H 	0.0812	0.7755	0.1831	0.007
Mof_H 	H 	0.2647	0.515	0.9629	0.017
Mof_H 	H 	0.2706	0.3977	0.0905	0.034
Mof_H 	H 	0.2577	0.3792	0.3554	0.098
Mof_H 	H 	0.6693	0.3513	0.4318	0.083
Mof_H 	H 	0.8962	0.2151	0.3066	0.016
Mof_H 	H 	0.6023	0.8729	0.0905	0.055
Mof_H 	H 	1.36849e-17	0.51385	0.657	-0.058
Mof_H 	H 	0.6023	0.8729	0.4095	0.056
Mof_H 	H 	0.6202	0.2691	0.9966	0.198
Mof_H 	H 	0.8962	0.2151	0.1934	0.016
Mof_H 	H 	6.59814e-18	0.12935	0.0578	0.189
Mof_H 	H 	0.6693	0.3513	0.0682	0.076
Mof_H 	H 	0.9188	0.2245	0.8169	0.035
Mof_H 	H 	0.2706	0.3977	0.4095	0.034
Mof_H 	H 	0.0812	0.7755	0.3169	0.007
Mof_H 	H 	-3.81741e-17	0.6911	0.9151	-4.322
Mof_H 	H 	0.3511	0.7309	0.5034	0.194
Mof_H 	H 	0.1532	0.1532	0.9951	-0.055
Mof_H 	H 	0.1009	0.7923	0.1059	0.085
Mof_H 	H 	0.6811	0.7849	0.3066	0.004
Mof_H 	H 	0.485	0.7497	0.5371	0.019
Mof_H 	H 	3.36168e-17	0.87065	0.5578	0.205
Mof_H 	H 	0.7497	0.2647	0.0371	0.018
Mof_H 	H 	0.7598	0.7598	0.509	0.101
Mof_H 	H 	0.3089	0	0.0849	-4.319
Mof_H 	H 	0.2245	0.9188	0.8169	0.035
Mof_H 	H 	-2.86009e-17	0.8468	0.5049	-0.07
Mof_H 	H 	0.7529	0.3912	0.0403	-0.07
Mof_H 	H 	0.2345	0.1735	0.1442	0.017
Mof_H 	H 	0.3977	0.2706	0.0905	0.034
Mof_H 	H 	0.1038	0.3189	0.1934	-0.006
Mof_H 	H 	0.7139	0.3245	0.0093	0.054
Mof_H 	H 	0.7423	0.1215	0.1446	0.093
Mof_H 	H 	0.7087	0.5789	0.3953	0.006
Mof_H 	H 	0.2077	0.8991	0.6059	0.102
Mof_H 	H 	0.6911	0.6911	0.4151	-4.262
Mof_H 	H 	0.3855	0.6771	0.4453	0.104
Mof_H 	H 	0.8074	0.8074	0.0968	-0.232
Mof_H 	H 	0.2916	0.6145	0.4453	0.103
Mof_H 	H 	0.7755	0.6943	0.6831	0.014
Mof_H 	H 	0.3513	0.6693	0.0682	0.076
Mof_H 	H 	0.2077	0.3086	0.3941	0.087
Mof_H 	H 	-1.7001e-17	0.2402	0.991	0.118
Mof_H 	H 	0.8621	0.6068	0.655	0.093
Mof_H 	H 	0.87065	0.87065	0.4422	0.228
Mof_H 	H 	0.3894	0.6755	0.0093	0.055
Mof_H 	H 	0.0886	0.767	0.8821	0.005
Mof_H 	H 	0.6811	0.8962	0.6934	0.018
Mof_H 	H 	0.1735	0.939	0.6442	0.046
Mof_H 	H 	0.8078	0.7521	0.3441	0.006
Mof_H 	H 	0.2913	0.4211	0.8953	0.003
Mof_H 	H 	0.939	0.1735	0.8558	0.046
Mof_H 	H 	0.8785	0.2577	0.8554	0.115
Mof_H 	H 	0.1926	0.1926	0.5968	-0.236
Mof_H 	H 	0.3086	0.2077	0.1059	0.086
Mof_H 	H 	0.6489	0.2691	0.4966	0.192
Mof_H 	H 	0.8991	0.6914	0.3941	0.105
Mof_H 	H 	-1.70586e-17	0.3089	0.0849	-4.319
Mof_H 	H 	0.9114	0.233	0.1179	0.03
Mof_H 	H 	0.7353	0.2503	0.9629	0.022
Mof_H 	H 	-8.42015e-18	0.1532	0.4951	-0.087
Mof_H 	H 	0.6914	0.8991	0.3941	0.105
Mof_H 	H 	0.657	0.3329	0.976	-0.192
Mof_H 	H 	0.3513	0.682	0.5682	0.082
Mof_H 	H 	0.51385	0.51385	0.157	-0.051
Mof_H 	H 	0.1379	0.7447	0.655	0.076
Mof_H 	H 	0.2577	0.8785	0.6446	0.115
Mof_H 	H 	0.3229	0.7084	0.4453	0.103
Mof_H 	H 	0.3855	0.7084	0.9453	0.108
Mof_H 	H 	0.3241	0.6671	0.524	-0.19
Mof_H 	H 	0.7521	0.8078	0.1559	0.006
Mof_H 	H 	0.5918	0	0.2731	-0.057
Mof_H 	H 	0.1735	0.2345	0.1442	0.017
Mof_H 	H 	0.9114	0.6784	0.6179	0.031
Mof_H 	H 	0.7447	0.1379	0.655	0.076
Mof_H 	H 	0.233	0.9114	0.1179	0.03
Mof_H 	H 	0.6088	0.3617	0.4597	-0.112
Mof_H 	H 	0.2479	0.0557	0.1559	-0.02
Mof_H 	H 	0.6186	0.3543	0.0484	0.153
Mof_H 	H 	0.6487	0.318	0.4318	0.082
Mof_H 	H 	0.6759	0.3329	0.024	-0.193
Mof_H 	H 	0.1922	0.9443	0.3441	0.035
Mof_H 	H 	0.233	0.3216	0.6179	0.009
Mof_H 	H 	0.6771	0.3855	0.0547	0.099
Mof_H 	H 	0.7423	0.6208	0.6446	0.094
Mof_H 	H 	0.48615	4.0438e-33	0.157	-0.058
Mof_H 	H 	0.3814	0.7357	0.4516	0.189
Mof_H 	H 	0.5789	0.8702	0.8953	0.024
Mof_H 	H 	0.7655	0.939	0.1442	0.047
Mof_H 	H 	0.2479	0.1922	0.6559	-0.001
Mof_H 	H 	0.342	0.342	0.1897	0.185
Mof_H 	H 	0.6208	0.8785	0.1446	0.113
Mof_H 	H 	-8.16671e-18	0.1926	0.4032	-0.259
Mof_H 	H 	0.6088	0.2471	0.9597	-0.155
Mof_H 	H 	0.6671	0.3241	0.524	-0.19
Mof_H 	H 	0.3932	0.1379	0.155	0.077
Mof_H 	H 	0.318	0.6693	0.5682	0.083
Mof_H 	H 	0.2913	0.8702	0.3953	0.024
Mof_H 	H 	0.2077	0.8991	0.8941	0.103
Mof_H 	H 	0.3057	0.2245	0.3169	0.006
Mof_H 	H 	0.6068	0.8621	0.655	0.093
Mof_H 	H 	0.7849	0.6811	0.1934	0.005
Mof_H 	H 	0.4211	0.2913	0.8953	0.003
Mof_H 	H 	3.92903e-18	0.48615	0.343	-0.057
Mof_H 	H 	0.1379	0.3932	0.155	0.077
Mof_H 	H 	0.2577	0.8785	0.8554	0.115
Mof_H 	H 	0.12935	0.12935	0.5578	0.182
Mof_H 	H 	0.7849	0.1038	0.6934	-0.001
Mof_H 	H 	0.3216	0.233	0.6179	0.009
Mof_H 	H 	0.0557	0.2479	0.1559	-0.02
Mof_H 	H 	0.3932	0.2553	0.845	0.084
Mof_H 	H 	0.1922	0.2479	0.8441	-0.001
Mof_H 	H 	0.6457	0.3814	0.9516	0.225
Mof_H 	H 	0.8621	0.2553	0.155	0.095
Mof_H 	H 	0.6759	0.343	0.524	-0.194
Mof_H 	H 	0.12935	0	0.0578	0.189
Mof_H 	H 	0.061	0.2345	0.6442	-0.004
Mof_H 	H 	0.1532	0	0.4951	-0.087
Mof_H 	H 	0.6186	0.2643	0.9516	0.226
Mof_H 	H 	0.2151	0.8962	0.1934	0.016
Mof_H 	H 	0.6208	0.7423	0.8554	0.094
Mof_H 	H 	0.1271	0.3977	0.5905	0.033
Mof_H 	H 	0.3089	0.3089	0.5849	-4.269
Mof_H 	H 	0.6755	0.3894	0.4907	0.056
Mof_H 	H 	0.8729	0.6023	0.0905	0.055
Mof_H 	H 	-4.7066e-17	0.8074	0.5968	-0.254
Mof_H 	H 	0.9443	0.1922	0.1559	0.035
Mof_H 	H 	0.2913	0.8702	0.1047	0.024
Mof_H 	H 	0.9188	0.2245	0.6831	0.035
Mof_H 	H 	0.1298	0.7087	0.6047	0.006
Mof_H 	H 	0.2471	0.6383	0.4597	-0.113
Mof_H 	H 	0.6693	0.318	0.5682	0.083
Mof_H 	H 	0.3894	0.7139	0.9907	0.057
Mof_H 	H 	0.3617	0.6088	0.4597	-0.112
Mof_H 	H 	0.6202	0.3511	0.0034	0.193
Mof_H 	H 	0.1271	0.7294	0.4095	0.037
Mof_H 	H 	0.2691	0.6202	0.5034	0.196
Mof_H 	H 	0.3543	0.7357	0.9516	0.226
Mof_H 	H 	0.3977	0.1271	0.9095	0.034
Mof_H 	H 	0.8962	0.6811	0.8066	0.018
Mof_H 	H 	0.3912	0.7529	0.0403	-0.07
Mof_H 	H 	0.8702	0.5789	0.6047	0.024
Mof_H 	H 	0.6383	0.2471	0.4597	-0.113
Mof_H 	H 	0.1926	0	0.4032	-0.259
Mof_H 	H 	-1.29378e-17	0.4941	0.7895	0.115
Mof_H 	H 	0.8468	3.23504e-32	0.9951	-0.055
Mof_H 	H 	0.3086	0.1009	0.6059	0.084
Mof_H 	H 	0.7084	0.3855	0.5547	0.103
Mof_H 	H 	0.2691	0.6489	0.0034	0.188
Mof_H 	H 	0.3307	0.682	0.4318	0.082
Mof_H 	H 	0.6943	0.7755	0.6831	0.014
Mof_H 	H 	0.2479	0.1922	0.8441	-0.001
Mof_H 	H 	0.4941	0.4941	0.2895	0.128
Mof_H 	H 	0.2503	0.515	0.0371	0.014
Mof_H 	H 	0.2861	0.6755	0.9907	0.058
Mof_H 	H 	0.7294	0.1271	0.4095	0.037
Mof_H 	H 	0.7139	0.3894	0.9907	0.057
Mof_H 	H 	0.6755	0.2861	0.9907	0.058
Mof_H 	H 	0.3089	0.3089	0.9151	-4.271
Mof_H 	H 	0.3189	0.2151	0.6934	-0.003
Mof_H 	H 	0.342	0	0.8103	0.167
Mof_H 	H 	0.3241	0.657	0.024	-0.192
Mof_H 	H 	0.2402	0.2402	0.009	0.065
Mof_H 	H 	0.6671	0.3241	0.976	-0.19
Mof_H 	H 	0.8702	0.2913	0.1047	0.024
Mof_H 	H 	0.6106	0.2861	0.0093	0.053
Mof_H 	H 	0.6145	0.2916	0.0547	0.099
Mof_H 	H 	0.8468	0.8468	0.4951	-0.034
Mof_H 	H 	0.682	0.3307	0.0682	0.075
Mof_H 	H 	0.1038	0.3189	0.3066	-0.006
Mof_H 	H 	0.3245	0.6106	0.9907	0.056
Mof_H 	H 	0.3792	0.1215	0.6446	0.096
Mof_H 	H 	0.3543	0.6186	0.0484	0.153
Mof_H 	H 	0.6693	0.318	0.9318	0.091
Mof_H 	H 	0.9188	0.6943	0.3169	0.037
Mof_H 	H 	0.2245	0.3057	0.1831	0.006
Mof_H 	H 	0.2245	0.9188	0.6831	0.035
Mof_H 	H 	0.2861	0.6106	0.0093	0.053
Mof_H 	H 	0.3329	0.6759	0.476	-0.193
Mof_H 	H 	0.515	0.2647	0.5371	0.015
Mof_H 	H 	0.318	0.6487	0.4318	0.082
Mof_H 	H 	0.8702	0.5789	0.8953	0.024
Mof_H 	H 	0.485	0.7353	0.0371	0.017
Mof_H 	H 	0.2647	0.515	0.5371	0.015
Mof_H 	H 	0.87065	0	0.5578	0.205
Mof_H 	H 	-7.4655e-17	0.7598	0.009	0.067
Mof_H 	H 	0.3329	0.657	0.976	-0.192
Mof_H 	H 	0.8991	0.2077	0.8941	0.103
Mof_H 	H 	0.7447	0.6068	0.155	0.081
Mof_H 	H 	0.3245	0.6106	0.5093	0.055
Mof_H 	H 	0.3216	0.233	0.8821	0.009
Mof_H 	H 	0.2402	0	0.991	0.118
Mof_H 	H 	0.6943	0.9188	0.3169	0.037
Mof_H 	H 	0.3814	0.6457	0.9516	0.225
Mof_H 	H 	-3.81157e-17	0.658	0.1897	0.167
Mof_H 	H 	0.658	0.658	0.8103	0.184
Mof_H 	H 	0.9114	0.6784	0.8821	0.031
Mof_H 	H 	0.7849	0.1038	0.8066	-0.001
Mof_H 	H 	0.6784	0.9114	0.8821	0.031
Mof_H 	H 	0.3189	0.1038	0.3066	-0.006
Mof_H 	H 	0.5789	0.7087	0.3953	0.006
Mof_H 	H 	0.2647	0.7497	0.4629	0.019
Mof_H 	H 	2.93538e-18	0.4941	0.7105	0.115
Mof_H 	H 	0.6914	0.7923	0.6059	0.092
Mof_H 	H 	0.1009	0.3086	0.8941	0.085
Mof_H 	H 	0.657	0.3241	0.476	-0.192
Mof_H 	H 	0.2471	0.6088	0.9597	-0.155
Mof_H 	H 	7.11464e-18	0.342	0.6897	0.167
Mof_H 	H 	0.6202	0.2691	0.5034	0.196
Mof_H 	H 	0.6068	0.7447	0.345	0.081
Mof_H 	H 	0.7923	0.1009	0.1059	0.085
Mof_H 	H 	0.1215	0.7423	0.3554	0.093
Mof_H 	H 	0.6106	0.3245	0.5093	0.055
Mof_H 	H 	0.6489	0.3798	0.5034	0.193
Mof_H 	H 	0.8265	0.7655	0.6442	0.026
Mof_H 	H 	0.2706	0.8729	0.9095	0.056
Mof_H 	H 	0.3086	0.1009	0.8941	0.085
Mof_H 	H 	0.658	0.658	0.6897	0.185
Mof_H 	H 	0.7084	0.3229	0.4453	0.103
Mof_H 	H 	0.7087	0.1298	0.8953	0.006
Mof_H 	H 	1.46786e-17	0.5059	0.2895	0.115
Mof_H 	H 	0.658	0	0.3103	0.167
Mof_H 	H 	0.8991	0.2077	0.6059	0.102
Mof_H 	H 	0.3329	0.657	0.524	-0.192
Mof_H 	H 	0.1038	0.7849	0.6934	-0.001
Mof_H 	H 	0.3792	0.2577	0.3554	0.098
Mof_H 	H 	0.7353	0.485	0.0371	0.017
Mof_H 	H 	0.7087	0.1298	0.6047	0.006
Mof_H 	H 	0.7521	0.9443	0.6559	0.036
Mof_H 	H 	0.682	0.3513	0.5682	0.082
Mof_H 	H 	0.8468	0	0.5049	-0.07
Mof_H 	H 	0.7755	0.0812	0.1831	0.007
Mof_H 	H 	0.7423	0.1215	0.3554	0.093
Mof_H 	H 	0.657	0.3329	0.524	-0.192
Mof_H 	H 	0.48615	0.48615	0.657	-0.051
Mof_H 	H 	0.7497	0.2647	0.4629	0.019
Mof_H 	H 	0.1298	0.4211	0.1047	0.002
Mof_H 	H 	0.2553	0.8621	0.155	0.095
Mof_H 	H 	0.7447	0.1379	0.845	0.076
Mof_H 	H 	0.2643	0.6457	0.0484	0.152
Mof_H 	H 	0.939	0.7655	0.1442	0.047
Mof_H 	H 	0.485	0.7497	0.9629	0.021
Mof_H 	H 	0.7139	0.3894	0.5093	0.056
Mof_H 	H 	0.7497	0.485	0.9629	0.021
Mof_H 	H 	0.6943	0.7755	0.8169	0.014
Mof_H 	H 	0.4211	0.1298	0.3953	0.002
Mof_H 	H 	2.81717e-17	0.6911	0.5849	-4.32
Mof_H 	H 	0.515	0.2503	0.0371	0.014
Mof_H 	H 	0.3855	0.7084	0.5547	0.103
Mof_H 	H 	0.6088	0.2471	0.5403	-0.112
Mof_H 	H 	0.343	0.6671	0.024	-0.19
Mof_H 	H 	0.3245	0.7139	0.0093	0.054
Mof_H 	H 	0.3241	0.6671	0.976	-0.19
Mof_H 	H 	0.4082	0.4082	0.2731	-0.052
Mof_H 	H 	0.6911	0	0.5849	-4.32
Mof_H 	H 	0.7357	0.3814	0.4516	0.189
Mof_H 	H 	0.8265	0.061	0.3558	0.003
Mof_H 	H 	0.061	0.8265	0.1442	0.003
Mof_H 	H 	0.2861	0.6755	0.5093	0.056
Mof_H 	H 	0.6457	0.2643	0.0484	0.152
Mof_H 	H 	0.6489	0.3798	0.9966	0.194
Mof_H 	H 	0.8785	0.6208	0.1446	0.113
Mof_H 	H 	0.6784	0.767	0.1179	0.007
Mof_H 	H 	0.7084	0.3855	0.9453	0.108
Mof_H 	H 	0.7598	0	0.009	0.067
Mof_H 	H 	0.51385	0	0.657	-0.058
Mof_H 	H 	0.3798	0.7309	0.4966	0.195
Mof_H 	H 	0.3216	0.0886	0.3821	0.008
Mof_H 	H 	0.7309	0.3798	0.0034	0.191
Mof_H 	H 	0.0886	0.3216	0.1179	0.009
Mof_H 	H 	0.5918	0.5918	0.7269	-0.051
Mof_H 	H 	0.7353	0.2503	0.5371	0.02
Mof_H 	H 	0.3977	0.1271	0.5905	0.033
Mof_H 	H 	2.72565e-17	0.5918	0.2269	-0.057
Mof_H 	H 	0.8074	0	0.5968	-0.254
Mof_H 	H 	0.5059	0	0.2895	0.115
Mof_H 	H 	0.3511	0.6202	0.0034	0.193
Mof_H 	H 	0.6671	0.343	0.024	-0.19
Mof_H 	H 	0.2916	0.6771	0.5547	0.104
Mof_H 	H 	0.7655	0.8265	0.8558	0.026
Mof_H 	H 	0.342	1.61752e-32	0.6897	0.167
Mof_H 	H 	0.061	0.2345	0.8558	-0.004
Mof_H 	H 	0.6186	0.2643	0.5484	0.189
Mof_H 	H 	0.3216	0.0886	0.1179	0.009
Mof_H 	H 	0.3798	0.6489	0.9966	0.194
Mof_H 	H 	0.2553	0.3932	0.845	0.084
Mof_H 	H 	0.7598	0	0.491	0.094
Mof_H 	H 	0.8785	0.2577	0.6446	0.115
Mof_H 	H 	0.3617	0.7529	0.9597	-0.155
Mof_H 	H 	0.6671	0.343	0.476	-0.19
Mof_H 	H 	0.3511	0.6202	0.4966	0.196
Mof_H 	H 	0.5059	8.0876e-33	0.2105	0.115
Mof_H 	H 	1.79738e-17	0.5918	0.2731	-0.057
Mof_H 	H 	0.7923	0.1009	0.3941	0.086
Mof_H 	H 	0.2471	0.6088	0.5403	-0.112
Mof_H 	H 	0.2345	0.061	0.6442	-0.004
Mof_H 	H 	0.939	0.1735	0.6442	0.046
Mof_H 	H 	0.87065	-3.23504e-32	0.9422	0.198
Mof_H 	H 	0.6771	0.2916	0.5547	0.104
Mof_H 	H 	0.0886	0.3216	0.3821	0.008
Mof_H 	H 	0.7294	0.6023	0.5905	0.038
Mof_H 	H 	0.7309	0.3798	0.4966	0.195
Mof_H 	H 	0.3798	0.7309	0.0034	0.191
Mof_H 	H 	0.2577	0.3792	0.1446	0.099
Mof_H 	H 	0.8621	0.6068	0.845	0.093
Mof_H 	H 	0.6784	0.767	0.3821	0.007
Mof_H 	H 	0.3229	0.6145	0.9453	0.108
Mof_H 	H 	0.8785	0.6208	0.3554	0.113
Mof_H 	H 	0.6383	0.3912	0.9597	-0.157
Mof_H 	H 	0.6457	0.2643	0.4516	0.188
Mof_H 	H 	0.7655	0.8265	0.6442	0.026
Mof_H 	H 	0.5789	0.8702	0.6047	0.024
Mof_H 	H 	0.6145	0.3229	0.5547	0.104
Mof_H 	H 	0.6145	0.3229	0.9453	0.108
Mof_H 	H 	0.061	0.8265	0.3558	0.003
Mof_H 	H 	0.8729	0.2706	0.9095	0.056
Mof_H 	H 	0.6911	0	0.9151	-4.322
Mof_H 	H 	0.8265	0.061	0.1442	0.003
Mof_H 	H 	0.7357	0.3814	0.0484	0.153
Mof_H 	H 	0.4082	0.4082	0.2269	-0.052
Mof_H 	H 	0.6106	0.3245	0.9907	0.056
Mof_H 	H 	0.3245	0.7139	0.4907	0.056
Mof_H 	H 	0.343	0.6671	0.476	-0.19
Mof_H 	H 	0.2402	1.61752e-32	0.509	0.09
Mof_H 	H 	0.1038	0.7849	0.8066	-0.001
Mof_H 	H 	0.515	0.2503	0.4629	0.015
Mof_H 	H 	0.4211	0.1298	0.1047	0.002
Mof_H 	H 	0.3798	0.6489	0.5034	0.193
Mof_H 	H 	0.7497	0.485	0.5371	0.019
Mof_H 	H 	0.939	0.7655	0.3558	0.047
Mof_H 	H 	0.2643	0.6457	0.4516	0.188
Mof_H 	H 	0.2553	0.8621	0.345	0.095
Mof_H 	H 	0.1298	0.4211	0.3953	0.002
Mof_H 	H 	0.8729	0.2706	0.5905	0.056
Mof_H 	H 	0.7755	0.0812	0.3169	0.007
Mof_H 	H 	0.767	0.6784	0.3821	0.007
Mof_H 	H 	0.7353	0.485	0.4629	0.019
Mof_H 	H 	0.3792	0.2577	0.1446	0.099
Mof_H 	H 	0.7309	0.3511	0.9966	0.196
Mof_H 	H 	0.658	0	0.1897	0.167
Mof_H 	H 	0.3792	0.1215	0.8554	0.095
Mof_H 	H 	3.05517e-17	0.5059	0.2105	0.115
Mof_H 	H 	0.7084	0.3229	0.0547	0.099
Mof_H 	H 	0.3814	0.7357	0.0484	0.153
Mof_H 	H 	0.6914	0.7923	0.8941	0.093
Mof_H 	H 	0.7755	0.6943	0.8169	0.014
Mof_H 	H 	-1.0863e-16	0.8074	0.9032	-0.248
Mof_H 	H 	0.1215	0.7423	0.1446	0.093
Mof_H 	H 	0.767	0.0886	0.6179	0.006
Mof_H 	H 	0.6068	0.7447	0.155	0.081
Mof_H 	H 	0.3189	0.2151	0.8066	-0.003
Mof_H 	H 	0.3307	0.6487	0.9318	0.09
Mof_H 	H 	0.657	0.3241	0.024	-0.192
Mof_H 	H 	0.318	0.6487	0.0682	0.075
Mof_H 	H 	0.767	0.6784	0.1179	0.007
Mof_H 	H 	0.2647	0.7497	0.0371	0.018
Mof_H 	H 	0.3307	0.6487	0.5682	0.082
Mof_H 	H 	0.5789	0.7087	0.1047	0.006
Mof_H 	H 	0.3189	0.1038	0.1934	-0.006
Mof_H 	H 	0.6487	0.3307	0.9318	0.09
Mof_H 	H 	-6.23473e-17	0.658	0.3103	0.167
Mof_H 	H 	0.318	0.6693	0.9318	0.091
Mof_H 	H 	0.6943	0.9188	0.1831	0.037
Mof_H 	H 	0.6068	0.8621	0.845	0.093
Mof_H 	H 	0.7447	0.6068	0.345	0.081
Mof_H 	H 	-2.5808e-17	0.7598	0.491	0.094
Mof_H 	H 	0.3617	0.7529	0.5403	-0.112
Mof_H 	H 	0.1215	0.3792	0.6446	0.096
Mof_H 	H 	-2.36873e-17	0.51385	0.843	-0.057
Mof_H 	H 	0.8074	-3.23504e-32	0.9032	-0.248
Mof_H 	H 	0.485	0.7353	0.4629	0.019
Mof_H 	H 	0.1298	0.7087	0.8953	0.006
Mof_H 	H 	0.3329	0.6759	0.024	-0.193
Mof_H 	H 	0.515	0.2647	0.9629	0.017
Mof_H 	H 	0.2861	0.6106	0.4907	0.055
Mof_H 	H 	0.1926	0.1926	0.9032	-0.229
Mof_H 	H 	0.2503	0.7353	0.9629	0.022
Mof_H 	H 	0.3513	0.682	0.9318	0.089
Mof_H 	H 	0.2245	0.3057	0.3169	0.006
Mof_C 	C 	-1.16829e-17	0.3443	0.4207	3.656
Mof_C 	C 	0.469	0.1467	0.95696	0.445
Mof_C 	C 	0.8026	0.5971	0.60231	-0.098
Mof_C 	C 	0.4162	0	0.7949	0.228
Mof_C 	C 	0.6427	0.8242	0.62716	0.173
Mof_C 	C 	0.1681	0.7514	0.08539	0.049
Mof_C 	C 	0.2158	0.3609	0.653	-0.157
Mof_C 	C 	0.351	0.8547	0.44016	0.44
Mof_C 	C 	0.2672	0.6273	0.5214	0.072
Mof_C 	C 	0.3106	0.1867	0.1237	-0.141
Mof_C 	C 	0.6399	0.3727	0.5214	0.078
Mof_C 	C 	0.8533	0.3223	0.95696	0.435
Mof_C 	C 	0.5971	0.7945	0.10231	-0.099
Mof_C 	C 	0.6391	0.7842	0.347	-0.145
Mof_C 	C 	0.6894	0.8133	0.8763	-0.133
Mof_C 	C 	0.1838	0.4712	0.43068	-0.178
Mof_C 	C 	0.358	0.666	0.9494	-0.278
Mof_C 	C 	0.6815	0.8834	0.8691	-0.097
Mof_C 	C 	0.8031	0.6913	0.6697	0.088
Mof_C 	C 	0.4305	0.1652	0.4063	0.066
Mof_C 	C 	5.96936e-18	0.46725	0.6954	-0.294
Mof_C 	C 	0.3087	0.1118	0.6697	0.1
Mof_C 	C 	0.521	0	0.1636	0.23
Mof_C 	C 	0.1239	0.8133	0.3763	-0.142
Mof_C 	C 	0.6114	4.0438e-33	0.1513	0.519
Mof_C 	C 	0.3601	0.6273	0.0214	0.037
Mof_C 	C 	0.1919	0.3168	0.6757	0.107
Mof_C 	C 	0.3223	0.8533	0.95696	0.435
Mof_C 	C 	0.8751	0.1919	0.3243	0.101
Mof_C 	C 	0.6114	0.6114	0.6513	0.533
Mof_C 	C 	0.8133	0.6894	0.8763	-0.133
Mof_C 	C 	0.7313	0.8646	0.6726	-0.3
Mof_C 	C 	0.312	0.672	0.4941	-0.174
Mof_C 	C 	0.6894	0.8761	0.1237	-0.132
Mof_C 	C 	4.02038e-18	0.4162	0.7051	0.229
Mof_C 	C 	0.8185	0.6427	0.12716	0.171
Mof_C 	C 	0.1647	0.1647	0.5522	-0.476
Mof_C 	C 	0.1453	0.4963	0.44016	0.449
Mof_C 	C 	0.2055	0.8026	0.39769	-0.099
Mof_C 	C 	0.2019	0.8834	0.3691	-0.098
Mof_C 	C 	-6.23782e-18	0.5445	0.3936	0.567
Mof_C 	C 	0.3573	0.1815	0.62716	0.191
Mof_C 	C 	0.56034	0.56034	0.6416	-0.36
Mof_C 	C 	0.36	0.672	0.9941	-0.185
Mof_C 	C 	-3.16938e-17	0.254	0.0671	-1.166
Mof_C 	C 	0.4162	0	0.7051	0.229
Mof_C 	C 	0.1974	0.4029	0.39769	-0.116
Mof_C 	C 	0.2874	0.4712	0.56932	-0.181
Mof_C 	C 	0.1774	0.2746	0.8463	0.095
Mof_C 	C 	0.692	0.334	0.9494	-0.28
Mof_C 	C 	0.1919	0.8751	0.3243	0.101
Mof_C 	C 	0.1969	0.3087	0.1697	0.108
Mof_C 	C 	0.8162	0.2874	0.06932	-0.159
Mof_C 	C 	0.53275	8.0876e-33	0.1954	-0.293
Mof_C 	C 	0.5141	0.7637	0.94676	0.089
Mof_C 	C 	0.746	0.746	0.4329	-1.099
Mof_C 	C 	0.6777	0.1467	0.04304	0.443
Mof_C 	C 	0.2496	0.4859	0.55324	0.098
Mof_C 	C 	0.642	0.334	0.4494	-0.254
Mof_C 	C 	-4.7866e-18	0.5838	0.2051	0.229
Mof_C 	C 	0.4167	0.1681	0.58539	0.056
Mof_C 	C 	0.0972	0.2746	0.1537	0.108
Mof_C 	C 	0.8242	0.6427	0.62716	0.173
Mof_C 	C 	0.1166	0.7981	0.6309	-0.114
Mof_C 	C 	0.1239	0.3106	0.8763	-0.153
Mof_C 	C 	-2.23163e-18	0.26815	0.4643	0.206
Mof_C 	C 	0.7842	0.1451	0.653	-0.14
Mof_C 	C 	0.56034	0	0.1416	-0.362
Mof_C 	C 	0.5418	0.8094	0.06095	-0.144
Mof_C 	C 	0.73185	0.73185	0.0357	0.222
Mof_C 	C 	0.358	0.666	0.5506	-0.251
Mof_C 	C 	0.8353	0.8353	0.0522	-0.49
Mof_C 	C 	0.8533	0.3223	0.54304	0.437
Mof_C 	C 	0.1652	0.7347	0.9063	0.056
Mof_C 	C 	0.1662	0.8996	0.6465	0.094
Mof_C 	C 	0.43966	0	0.8584	-0.361
Mof_C 	C 	0.7504	0.5141	0.05324	0.089
Mof_C 	C 	0.7334	0.8338	0.8535	0.105
Mof_C 	C 	0.4859	0.2496	0.94676	0.096
Mof_C 	C 	0.8185	0.1758	0.87284	0.174
Mof_C 	C 	0.8081	0.6832	0.3243	0.093
Mof_C 	C 	0.7945	0.1974	0.60231	-0.099
Mof_C 	C 	0.7328	0.3601	0.5214	0.074
Mof_C 	C 	0.2672	0.6273	0.9786	0.111
Mof_C 	C 	0.2486	0.4167	0.08539	0.056
Mof_C 	C 	0.6477	0.8641	0.3531	-0.122
Mof_C 	C 	3.00805e-17	0.7977	0.5754	0.65
Mof_C 	C 	0.6273	0.3601	0.0214	0.037
Mof_C 	C 	0.4582	0.1906	0.93905	-0.16
Mof_C 	C 	0.4555	0	0.6064	0.567
Mof_C 	C 	0.9028	0.7254	0.8463	0.082
Mof_C 	C 	0.0972	0.8226	0.6537	0.095
Mof_C 	C 	0.6231	0.6231	0.6831	-0.402
Mof_C 	C 	0.1249	0.3168	0.3243	0.094
Mof_C 	C 	0.2653	0.8348	0.0937	0.056
Mof_C 	C 	0.26815	0	0.0357	0.239
Mof_C 	C 	0.1359	0.3523	0.6469	-0.133
Mof_C 	C 	0.7313	0.8646	0.8274	-0.3
Mof_C 	C 	0.1662	0.8996	0.8535	0.094
Mof_C 	C 	0.3523	0.2164	0.3531	-0.138
Mof_C 	C 	0.2746	0.0972	0.3463	0.108
Mof_C 	C 	9.64175e-18	0.43966	0.8584	-0.361
Mof_C 	C 	0.8348	0.5695	0.5937	0.055
Mof_C 	C 	0.8353	0	0.5522	-0.498
Mof_C 	C 	0.3443	0.3443	0.9207	3.649
Mof_C 	C 	0.3609	0.2158	0.653	-0.157
Mof_C 	C 	0.3087	0.1969	0.1697	0.108
Mof_C 	C 	0.351	0.4963	0.55984	0.455
Mof_C 	C 	0.5695	0.8348	0.5937	0.055
Mof_C 	C 	0.6477	0.7836	0.8531	-0.123
Mof_C 	C 	0.8226	0.7254	0.1537	0.084
Mof_C 	C 	0.3601	0.7328	0.5214	0.074
Mof_C 	C 	-3.55885e-17	0.56034	0.3584	-0.361
Mof_C 	C 	0.5445	0	0.3936	0.567
Mof_C 	C 	0.8549	0.2158	0.153	-0.151
Mof_C 	C 	0.1758	0.3573	0.12716	0.189
Mof_C 	C 	0.7328	0.3601	0.9786	0.113
Mof_C 	C 	-2.83761e-18	0.53275	0.1954	-0.293
Mof_C 	C 	0.672	0.312	0.0059	-0.163
Mof_C 	C 	0.8868	0.7802	0.6966	0.75
Mof_C 	C 	0.6815	0.7981	0.1309	-0.104
Mof_C 	C 	0.3264	0.3264	0.5272	1.166
Mof_C 	C 	-4.00829e-17	0.7977	0.9246	0.631
Mof_C 	C 	0.8641	0.2164	0.6469	-0.127
Mof_C 	C 	0.2874	0.4712	0.93068	-0.179
Mof_C 	C 	0.5833	0.8319	0.08539	0.043
Mof_C 	C 	0.2666	0.1662	0.3535	0.105
Mof_C 	C 	-7.12645e-18	0.6557	0.5793	3.655
Mof_C 	C 	7.72332e-18	0.1647	0.0522	-0.527
Mof_C 	C 	0.351	0.4963	0.94016	0.453
Mof_C 	C 	0.8348	0.2653	0.0937	0.056
Mof_C 	C 	0.7328	0.3727	0.4786	0.074
Mof_C 	C 	0.8081	0.1249	0.6757	0.086
Mof_C 	C 	0.8547	0.5037	0.94016	0.438
Mof_C 	C 	0.7802	0.8868	0.8034	0.75
Mof_C 	C 	0.6557	0.6557	0.0793	3.626
Mof_C 	C 	0.531	0.8533	0.45696	0.437
Mof_C 	C 	0.334	0.692	0.9494	-0.28
Mof_C 	C 	0.2363	0.4859	0.44676	0.098
Mof_C 	C 	0.1359	0.7836	0.3531	-0.123
Mof_C 	C 	0.666	0.308	0.0506	-0.225
Mof_C 	C 	-1.59718e-17	0.46725	0.8046	-0.293
Mof_C 	C 	0.6832	0.8751	0.6757	0.095
Mof_C 	C 	0.5695	0.8348	0.9063	0.054
Mof_C 	C 	0.1867	0.3106	0.1237	-0.141
Mof_C 	C 	0.2672	0.6399	0.4786	0.078
Mof_C 	C 	0.4712	0.2874	0.93068	-0.179
Mof_C 	C 	0.64	0.328	0.0059	-0.163
Mof_C 	C 	0.8834	0.2019	0.3691	-0.098
Mof_C 	C 	0.4305	0.2653	0.5937	0.067
Mof_C 	C 	0.5037	0.8547	0.55984	0.44
Mof_C 	C 	0.3769	1.61752e-32	0.6831	-0.405
Mof_C 	C 	4.27187e-17	0.7694	0.5125	-0.289
Mof_C 	C 	0.666	0.358	0.9494	-0.278
Mof_C 	C 	0.3264	1.01095e-33	0.0272	1.069
Mof_C 	C 	0.3223	0.469	0.04304	0.451
Mof_C 	C 	0.5037	0.649	0.44016	0.453
Mof_C 	C 	0.1652	0.4305	0.0937	0.066
Mof_C 	C 	0.254	0	0.4329	-1.147
Mof_C 	C 	0.7324	0.5418	0.93905	-0.152
Mof_C 	C 	-3.28715e-17	0.521	0.1636	0.23
Mof_C 	C 	0.5833	0.7514	0.58539	0.049
Mof_C 	C 	0.254	0.254	0.9329	-1.087
Mof_C 	C 	0.1681	0.4167	0.91461	0.054
Mof_C 	C 	0.2198	0.1132	0.1966	0.788
Mof_C 	C 	0.1974	0.7945	0.60231	-0.099
Mof_C 	C 	0.2158	0.8549	0.347	-0.152
Mof_C 	C 	0.3185	0.2019	0.8691	-0.115
Mof_C 	C 	0.7126	0.5288	0.06932	-0.172
Mof_C 	C 	0.2306	0	0.0125	-0.345
Mof_C 	C 	0.2653	0.4305	0.9063	0.066
Mof_C 	C 	0.6815	0.8834	0.6309	-0.098
Mof_C 	C 	0.8162	0.5288	0.56932	-0.159
Mof_C 	C 	1.48302e-17	0.3886	0.6513	0.519
Mof_C 	C 	0.82115	0.82115	0.0208	0.319
Mof_C 	C 	0.312	0.64	0.9941	-0.184
Mof_C 	C 	0.4555	0.4555	0.3936	0.592
Mof_C 	C 	0.7977	-1.61752e-32	0.5754	0.65
Mof_C 	C 	0.334	0.642	0.4494	-0.254
Mof_C 	C 	0.308	0.642	0.9494	-0.282
Mof_C 	C 	0.6557	-3.23504e-32	0.9207	3.665
Mof_C 	C 	0.8996	0.7334	0.3535	0.098
Mof_C 	C 	0.3573	0.1758	0.37284	0.189
Mof_C 	C 	0.5418	0.7324	0.56095	-0.155
Mof_C 	C 	0.7945	0.5971	0.10231	-0.099
Mof_C 	C 	0.1239	0.8133	0.1237	-0.142
Mof_C 	C 	0.8547	0.351	0.44016	0.44
Mof_C 	C 	0.5141	0.7504	0.44676	0.089
Mof_C 	C 	0.4167	0.1681	0.91461	0.054
Mof_C 	C 	0.8646	0.1333	0.1726	-0.306
Mof_C 	C 	0.328	0.64	0.4941	-0.174
Mof_C 	C 	0.328	0.688	0.9941	-0.183
Mof_C 	C 	0.8667	0.7313	0.3274	-0.301
Mof_C 	C 	0.46725	0.46725	0.3046	-0.292
Mof_C 	C 	0.7836	0.1359	0.3531	-0.123
Mof_C 	C 	0.8882	0.6913	0.3303	0.093
Mof_C 	C 	0.1838	0.7126	0.93068	-0.167
Mof_C 	C 	0.642	0.308	0.9494	-0.282
Mof_C 	C 	0.1815	0.3573	0.87284	0.19
Mof_C 	C 	0.6427	0.8185	0.37284	0.171
Mof_C 	C 	0.2486	0.8319	0.58539	0.043
Mof_C 	C 	0.2198	0.1066	0.8034	0.795
Mof_C 	C 	0.3106	0.1239	0.6237	-0.153
Mof_C 	C 	0.1166	0.7981	0.8691	-0.114
Mof_C 	C 	0.7334	0.8996	0.3535	0.098
Mof_C 	C 	0.1774	0.9028	0.3463	0.08
Mof_C 	C 	0.479	0	0.8364	0.229
Mof_C 	C 	0.3443	0.3443	0.5793	3.639
Mof_C 	C 	0.8338	0.7334	0.6465	0.105
Mof_C 	C 	0.1774	0.9028	0.1537	0.081
Mof_C 	C 	0.7334	0.8996	0.1465	0.098
Mof_C 	C 	0.5695	0.7347	0.0937	0.058
Mof_C 	C 	0.4963	0.351	0.55984	0.455
Mof_C 	C 	0.3601	0.7328	0.9786	0.113
Mof_C 	C 	0.8242	0.6427	0.87284	0.172
Mof_C 	C 	0.6427	0.8185	0.12716	0.171
Mof_C 	C 	0.2874	0.8162	0.43068	-0.159
Mof_C 	C 	0.6114	0.6114	0.8487	0.533
Mof_C 	C 	-2.48326e-17	0.3886	0.8487	0.519
Mof_C 	C 	0.1118	0.3087	0.8303	0.1
Mof_C 	C 	0.8882	0.6913	0.1697	0.093
Mof_C 	C 	0.7836	0.1359	0.1469	-0.124
Mof_C 	C 	0.328	0.688	0.5059	-0.172
Mof_C 	C 	0.46725	0.46725	0.1954	-0.293
Mof_C 	C 	0.1969	0.8882	0.6697	0.098
Mof_C 	C 	0.7254	0.9028	0.8463	0.082
Mof_C 	C 	0.328	0.64	0.0059	-0.163
Mof_C 	C 	0.8646	0.1333	0.3274	-0.306
Mof_C 	C 	0.642	0.308	0.5506	-0.255
Mof_C 	C 	0.5141	0.7504	0.05324	0.089
Mof_C 	C 	0.8547	0.351	0.05984	0.439
Mof_C 	C 	0.6391	0.8549	0.653	-0.147
Mof_C 	C 	0.5833	0.7514	0.91461	0.048
Mof_C 	C 	0.7945	0.5971	0.39769	-0.098
Mof_C 	C 	0.7637	0.5141	0.55324	0.09
Mof_C 	C 	0.3573	0.1758	0.12716	0.189
Mof_C 	C 	0.2306	0.2306	0.9875	-0.214
Mof_C 	C 	0.7504	0.2363	0.94676	0.086
Mof_C 	C 	0.4555	0.4555	0.1064	0.593
Mof_C 	C 	0.8226	0.0972	0.6537	0.095
Mof_C 	C 	0.3769	0.3769	0.3169	-0.403
Mof_C 	C 	0.672	0.36	0.5059	-0.174
Mof_C 	C 	0.8133	0.1239	0.1237	-0.142
Mof_C 	C 	0.7836	0.6477	0.6469	-0.124
Mof_C 	C 	-2.79826e-17	0.3769	0.6831	-0.405
Mof_C 	C 	0.26815	0.26815	0.9643	0.154
Mof_C 	C 	0.82115	0.82115	0.4792	0.286
Mof_C 	C 	0.3886	3.23504e-32	0.8487	0.519
Mof_C 	C 	0.3185	0.2019	0.6309	-0.116
Mof_C 	C 	0.1333	0.2687	0.6726	-0.338
Mof_C 	C 	0.2306	0	0.4875	-0.294
Mof_C 	C 	0.7126	0.5288	0.43068	-0.172
Mof_C 	C 	0.2158	0.8549	0.153	-0.151
Mof_C 	C 	0.2023	0.2023	0.5754	0.628
Mof_C 	C 	0.2198	0.1132	0.3034	0.787
Mof_C 	C 	0.8882	0.1969	0.6697	0.098
Mof_C 	C 	0.1359	0.3523	0.8531	-0.132
Mof_C 	C 	0.4305	0.2653	0.9063	0.066
Mof_C 	C 	0.7334	0.8338	0.6465	0.105
Mof_C 	C 	5.25514e-18	0.521	0.3364	0.229
Mof_C 	C 	0.254	0	0.0671	-1.166
Mof_C 	C 	0.1249	0.8081	0.8243	0.086
Mof_C 	C 	0.5037	0.649	0.05984	0.452
Mof_C 	C 	0.3223	0.469	0.45696	0.452
Mof_C 	C 	0.3264	-1.61752e-32	0.4728	1.124
Mof_C 	C 	0.6913	0.8031	0.8303	0.087
Mof_C 	C 	0.5971	0.8026	0.89769	-0.096
Mof_C 	C 	0.1652	0.4305	0.4063	0.066
Mof_C 	C 	0.8834	0.2019	0.1309	-0.099
Mof_C 	C 	0.64	0.328	0.4941	-0.174
Mof_C 	C 	0.6427	0.8242	0.87284	0.172
Mof_C 	C 	0.1333	0.2687	0.8274	-0.338
Mof_C 	C 	0.2672	0.6399	0.0214	0.042
Mof_C 	C 	0.6557	0.6557	0.4207	3.636
Mof_C 	C 	0.6391	0.8549	0.847	-0.148
Mof_C 	C 	0.1004	0.2666	0.8535	0.118
Mof_C 	C 	1.16446e-17	0.53275	0.3046	-0.293
Mof_C 	C 	0.1132	0.8934	0.6966	0.744
Mof_C 	C 	0.1867	0.3106	0.3763	-0.142
Mof_C 	C 	0.1969	0.8882	0.8303	0.098
Mof_C 	C 	0.666	0.308	0.4494	-0.251
Mof_C 	C 	0.6273	0.2672	0.5214	0.072
Mof_C 	C 	0.7126	0.1838	0.93068	-0.167
Mof_C 	C 	0.1359	0.7836	0.1469	-0.124
Mof_C 	C 	0.36	0.688	0.4941	-0.173
Mof_C 	C 	0.2363	0.4859	0.05324	0.098
Mof_C 	C 	0.53275	0.53275	0.8046	-0.291
Mof_C 	C 	0.1453	0.649	0.55984	0.447
Mof_C 	C 	0.531	0.8533	0.04304	0.436
Mof_C 	C 	0.0972	0.8226	0.8463	0.094
Mof_C 	C 	0.2653	0.4305	0.5937	0.067
Mof_C 	C 	0.4029	0.2055	0.60231	-0.117
Mof_C 	C 	0.1681	0.4167	0.58539	0.056
Mof_C 	C 	0.7694	0	0.9875	-0.238
Mof_C 	C 	0.7328	0.3727	0.0214	0.038
Mof_C 	C 	0.8348	0.2653	0.4063	0.056
Mof_C 	C 	0.2055	0.4029	0.60231	-0.117
Mof_C 	C 	0.7694	0.7694	0.4875	-0.256
Mof_C 	C 	1.08365e-18	0.1647	0.4478	-0.502
Mof_C 	C 	0.3168	0.1249	0.1757	0.094
Mof_C 	C 	0.6736	0	0.9728	1.183
Mof_C 	C 	-5.10534e-17	0.82115	0.9792	0.259
Mof_C 	C 	0.2666	0.1662	0.1465	0.104
Mof_C 	C 	0.5833	0.8319	0.41461	0.043
Mof_C 	C 	0.7637	0.2496	0.44676	0.089
Mof_C 	C 	0.6815	0.7981	0.3691	-0.103
Mof_C 	C 	0.8547	0.5037	0.55984	0.44
Mof_C 	C 	0.1132	0.8934	0.8034	0.744
Mof_C 	C 	0.672	0.312	0.4941	-0.174
Mof_C 	C 	0.8761	0.1867	0.6237	-0.129
Mof_C 	C 	0.7637	0.2496	0.05324	0.089
Mof_C 	C 	0.3168	0.1919	0.8243	0.107
Mof_C 	C 	0.1758	0.3573	0.37284	0.189
Mof_C 	C 	0.64	0.312	0.5059	-0.173
Mof_C 	C 	0.8549	0.2158	0.347	-0.152
Mof_C 	C 	0.8133	0.1239	0.3763	-0.142
Mof_C 	C 	0.5445	0	0.1064	0.568
Mof_C 	C 	0.2496	0.4859	0.94676	0.096
Mof_C 	C 	-6.48744e-17	0.56034	0.1416	-0.362
Mof_C 	C 	0.5141	0.7637	0.55324	0.09
Mof_C 	C 	0.8226	0.7254	0.3463	0.084
Mof_C 	C 	0.82115	3.23504e-32	0.9792	0.259
Mof_C 	C 	0.73185	1.61752e-32	0.5357	0.206
Mof_C 	C 	0.3087	0.1969	0.3303	0.108
Mof_C 	C 	-3.81047e-17	0.8353	0.5522	-0.498
Mof_C 	C 	0.4582	0.1906	0.56095	-0.162
Mof_C 	C 	0.688	0.328	0.5059	-0.172
Mof_C 	C 	0.5288	0.8162	0.56932	-0.159
Mof_C 	C 	2.56915e-18	0.4555	0.8936	0.566
Mof_C 	C 	0.2746	0.0972	0.1537	0.108
Mof_C 	C 	0.3523	0.2164	0.1469	-0.139
Mof_C 	C 	0.17885	5.05475e-34	0.0208	0.316
Mof_C 	C 	0.2158	0.3609	0.847	-0.157
Mof_C 	C 	0.672	0.36	0.9941	-0.185
Mof_C 	C 	-2.40645e-17	0.479	0.6636	0.229
Mof_C 	C 	0.312	0.64	0.5059	-0.173
Mof_C 	C 	0.5838	0	0.2949	0.229
Mof_C 	C 	0.26815	0	0.4643	0.206
Mof_C 	C 	0.2653	0.8348	0.4063	0.056
Mof_C 	C 	0.1249	0.3168	0.1757	0.094
Mof_C 	C 	0.2363	0.7504	0.55324	0.088
Mof_C 	C 	0.6273	0.3601	0.4786	0.073
Mof_C 	C 	0.6477	0.8641	0.1469	-0.122
Mof_C 	C 	0.2676	0.8094	0.93905	-0.14
Mof_C 	C 	0.2486	0.4167	0.41461	0.056
Mof_C 	C 	0.692	0.334	0.5506	-0.252
Mof_C 	C 	0.531	0.6777	0.54304	0.45
Mof_C 	C 	0.6557	1.61752e-32	0.5793	3.655
Mof_C 	C 	0.8081	0.6832	0.1757	0.093
Mof_C 	C 	0.5037	0.8547	0.94016	0.438
Mof_C 	C 	0.46725	3.23504e-32	0.8046	-0.293
Mof_C 	C 	-4.17505e-17	0.746	0.9329	-1.127
Mof_C 	C 	0.7504	0.5141	0.44676	0.089
Mof_C 	C 	-1.41342e-17	0.254	0.4329	-1.147
Mof_C 	C 	0.8353	0.8353	0.4478	-0.465
Mof_C 	C 	0.3886	0.3886	0.3487	0.534
Mof_C 	C 	0.5418	0.8094	0.43905	-0.143
Mof_C 	C 	0.56034	0	0.3584	-0.361
Mof_C 	C 	-2.53847e-17	0.26815	0.0357	0.239
Mof_C 	C 	-1.17591e-16	0.8353	0.9478	-0.473
Mof_C 	C 	0.8934	0.1132	0.8034	0.744
Mof_C 	C 	0.2164	0.8641	0.6469	-0.127
Mof_C 	C 	0.17885	0.17885	0.9792	0.241
Mof_C 	C 	0.1867	0.8761	0.8763	-0.129
Mof_C 	C 	0.0972	0.2746	0.3463	0.108
Mof_C 	C 	0.2746	0.1774	0.6537	0.095
Mof_C 	C 	-2.28297e-17	0.5838	0.2949	0.229
Mof_C 	C 	0.6777	0.1467	0.45696	0.444
Mof_C 	C 	0.746	0.746	0.0671	-1.118
Mof_C 	C 	0.53275	0	0.3046	-0.293
Mof_C 	C 	0.8162	0.2874	0.43068	-0.159
Mof_C 	C 	0.7504	0.2363	0.55324	0.088
Mof_C 	C 	0.1969	0.3087	0.3303	0.108
Mof_C 	C 	0.1919	0.8751	0.1757	0.101
Mof_C 	C 	0.1974	0.4029	0.10231	-0.117
Mof_C 	C 	0.8094	0.2676	0.93905	-0.14
Mof_C 	C 	0.469	0.1467	0.54304	0.446
Mof_C 	C 	0.3769	0.3769	0.1831	-0.404
Mof_C 	C 	0.7347	0.1652	0.9063	0.056
Mof_C 	C 	-5.78018e-17	0.5445	0.1064	0.568
Mof_C 	C 	0.2019	0.8834	0.1309	-0.099
Mof_C 	C 	0.2055	0.8026	0.10231	-0.1
Mof_C 	C 	0.521	0.521	0.8364	0.241
Mof_C 	C 	0.1453	0.4963	0.05984	0.448
Mof_C 	C 	0.6894	0.8133	0.6237	-0.133
Mof_C 	C 	0.1451	0.7842	0.847	-0.14
Mof_C 	C 	0.8185	0.6427	0.37284	0.171
Mof_C 	C 	0.6894	0.8761	0.3763	-0.132
Mof_C 	C 	0.312	0.672	0.0059	-0.163
Mof_C 	C 	0.1652	0.7347	0.5937	0.058
Mof_C 	C 	0.8549	0.6391	0.653	-0.147
Mof_C 	C 	0.334	0.642	0.0506	-0.228
Mof_C 	C 	0.8751	0.1919	0.1757	0.101
Mof_C 	C 	0.1815	0.3573	0.62716	0.191
Mof_C 	C 	0.6477	0.7836	0.6469	-0.124
Mof_C 	C 	0.3601	0.6273	0.4786	0.073
Mof_C 	C 	0.6114	0	0.3487	0.519
Mof_C 	C 	0.521	8.0876e-33	0.3364	0.229
Mof_C 	C 	0.1239	0.3106	0.6237	-0.153
Mof_C 	C 	0.8751	0.6832	0.6757	0.095
Mof_C 	C 	0.4305	0.1652	0.0937	0.066
Mof_C 	C 	0.8834	0.6815	0.6309	-0.098
Mof_C 	C 	0.746	0	0.9329	-1.127
Mof_C 	C 	0.1838	0.4712	0.06932	-0.178
Mof_C 	C 	-3.92993e-17	0.6557	0.9207	3.665
Mof_C 	C 	0.6391	0.7842	0.153	-0.144
Mof_C 	C 	0.5971	0.7945	0.39769	-0.098
Mof_C 	C 	-1.40228e-17	0.4162	0.7949	0.228
Mof_C 	C 	0.3106	0.1867	0.3763	-0.142
Mof_C 	C 	0.649	0.1453	0.55984	0.447
Mof_C 	C 	0.351	0.8547	0.05984	0.439
Mof_C 	C 	0.2746	0.1774	0.8463	0.095
Mof_C 	C 	0.1681	0.7514	0.41461	0.049
Mof_C 	C 	-1.59334e-17	0.3443	0.0793	3.646
Mof_C 	C 	0.1118	0.8031	0.1697	0.086
Mof_C 	C 	0.46725	0	0.6954	-0.294
Mof_C 	C 	-3.06782e-17	0.2023	0.4246	0.644
Mof_C 	C 	0.3609	0.2158	0.847	-0.157
Mof_C 	C 	0.1919	0.3168	0.8243	0.107
Mof_C 	C 	4.1051e-17	0.82115	0.5208	0.291
Mof_C 	C 	-3.04001e-17	0.6114	0.1513	0.519
Mof_C 	C 	0.2687	0.1333	0.8274	-0.338
Mof_C 	C 	0.2687	0.1354	0.1726	-0.334
Mof_C 	C 	0.4029	0.1974	0.10231	-0.117
Mof_C 	C 	0.7324	0.1906	0.06095	-0.154
Mof_C 	C 	0.1647	0	0.4478	-0.502
Mof_C 	C 	0.7945	0.1974	0.89769	-0.098
Mof_C 	C 	0.1333	0.8646	0.3274	-0.306
Mof_C 	C 	0.2676	0.4582	0.43905	-0.164
Mof_C 	C 	0.7981	0.6815	0.1309	-0.104
Mof_C 	C 	0.4859	0.2496	0.55324	0.098
Mof_C 	C 	0.8646	0.7313	0.8274	-0.3
Mof_C 	C 	0.479	0.479	0.3364	0.242
Mof_C 	C 	0.688	0.36	0.4941	-0.173
Mof_C 	C 	0.1758	0.8185	0.87284	0.174
Mof_C 	C 	0.7842	0.1451	0.847	-0.14
Mof_C 	C 	0.7313	0.8667	0.1726	-0.301
Mof_C 	C 	0.2496	0.7637	0.05324	0.089
Mof_C 	C 	0.8761	0.6894	0.1237	-0.132
Mof_C 	C 	0.7637	0.5141	0.94676	0.089
Mof_C 	C 	0.6913	0.8882	0.1697	0.093
Mof_C 	C 	0.1066	0.8868	0.1966	0.75
Mof_C 	C 	0.308	0.666	0.4494	-0.251
Mof_C 	C 	0.7514	0.1681	0.08539	0.049
Mof_C 	C 	0.1132	0.2198	0.1966	0.788
Mof_C 	C 	1.67792e-17	0.43966	0.6416	-0.362
Mof_C 	C 	0.1974	0.7945	0.89769	-0.098
Mof_C 	C 	0.8868	0.1066	0.3034	0.75
Mof_C 	C 	0.7802	0.8934	0.1966	0.751
Mof_C 	C 	0.4712	0.2874	0.56932	-0.181
Mof_C 	C 	0.7694	0	0.5125	-0.289
Mof_C 	C 	0.2306	0.2306	0.5125	-0.267
Mof_C 	C 	0.692	0.358	0.0506	-0.226
Mof_C 	C 	0.8094	0.5418	0.43905	-0.143
Mof_C 	C 	0.1774	0.2746	0.6537	0.095
Mof_C 	C 	0.2874	0.8162	0.06932	-0.159
Mof_C 	C 	0.4167	0.2486	0.41461	0.056
Mof_C 	C 	0.1467	0.469	0.95696	0.445
Mof_C 	C 	0.1066	0.2198	0.6966	0.795
Mof_C 	C 	0.469	0.3223	0.45696	0.452
Mof_C 	C 	0.8646	0.7313	0.6726	-0.3
Mof_C 	C 	0.8934	0.7802	0.1966	0.751
Mof_C 	C 	0.7981	0.1166	0.8691	-0.114
Mof_C 	C 	0.3264	0.3264	0.9728	1.222
Mof_C 	C 	0.9028	0.1774	0.1537	0.081
Mof_C 	C 	0.8338	0.7334	0.8535	0.105
Mof_C 	C 	0.1815	0.8242	0.37284	0.177
Mof_C 	C 	0.6273	0.2672	0.9786	0.111
Mof_C 	C 	0.8081	0.1249	0.8243	0.086
Mof_C 	C 	0.1354	0.2687	0.1726	-0.334
Mof_C 	C 	-6.36734e-17	0.6231	0.3169	-0.405
Mof_C 	C 	0.5445	0.5445	0.8936	0.589
Mof_C 	C 	0.7254	0.8226	0.1537	0.084
Mof_C 	C 	0.53275	0.53275	0.6954	-0.292
Mof_C 	C 	0.1004	0.2666	0.6465	0.118
Mof_C 	C 	0.4555	3.23504e-32	0.8936	0.566
Mof_C 	C 	0.3168	0.1249	0.3243	0.094
Mof_C 	C 	0.7694	0.7694	0.0125	-0.308
Mof_C 	C 	0.7842	0.6391	0.347	-0.145
Mof_C 	C 	0.7254	0.9028	0.6537	0.083
Mof_C 	C 	0.36	0.688	0.0059	-0.162
Mof_C 	C 	0.7981	0.1166	0.6309	-0.114
Mof_C 	C 	0.8319	0.2486	0.58539	0.043
Mof_C 	C 	0.7836	0.6477	0.8531	-0.123
Mof_C 	C 	0.4582	0.2676	0.43905	-0.164
Mof_C 	C 	0.8641	0.6477	0.3531	-0.122
Mof_C 	C 	0.2164	0.3523	0.3531	-0.138
Mof_C 	C 	0.5288	0.7126	0.06932	-0.172
Mof_C 	C 	0.6399	0.2672	0.4786	0.078
Mof_C 	C 	0.6736	0.6736	0.4728	1.177
Mof_C 	C 	0.5695	0.7347	0.4063	0.058
Mof_C 	C 	-5.22542e-18	0.17885	0.4792	0.284
Mof_C 	C 	0.7802	0.8868	0.6966	0.75
Mof_C 	C 	0.1354	0.8667	0.6726	-0.302
Mof_C 	C 	0.5838	0.5838	0.7949	0.242
Mof_C 	C 	0.3106	0.1239	0.8763	-0.153
Mof_C 	C 	0.8162	0.5288	0.93068	-0.157
Mof_C 	C 	0.5838	0	0.2051	0.229
Mof_C 	C 	0.8882	0.1969	0.8303	0.098
Mof_C 	C 	0.7514	0.5833	0.91461	0.048
Mof_C 	C 	-2.21512e-17	0.3264	0.4728	1.124
Mof_C 	C 	0.64	0.312	0.9941	-0.184
Mof_C 	C 	0.1249	0.8081	0.6757	0.086
Mof_C 	C 	0.56034	0.56034	0.8584	-0.359
Mof_C 	C 	0.7977	0.7977	0.0754	0.658
Mof_C 	C 	0.4162	0.4162	0.2051	0.243
Mof_C 	C 	0.2666	0.1004	0.6465	0.118
Mof_C 	C 	0.479	1.61752e-32	0.6636	0.229
Mof_C 	C 	0.1838	0.7126	0.56932	-0.169
Mof_C 	C 	0.3223	0.8533	0.54304	0.437
Mof_C 	C 	0.4712	0.1838	0.06932	-0.178
Mof_C 	C 	0.1004	0.8338	0.1465	0.112
Mof_C 	C 	0.1906	0.7324	0.06095	-0.154
Mof_C 	C 	0.8185	0.1758	0.62716	0.174
Mof_C 	C 	0.1906	0.4582	0.93905	-0.16
Mof_C 	C 	0.2687	0.1333	0.6726	-0.338
Mof_C 	C 	0.8834	0.6815	0.8691	-0.097
Mof_C 	C 	0.1451	0.3609	0.347	-0.148
Mof_C 	C 	0.3443	0	0.4207	3.656
Mof_C 	C 	0.7347	0.1652	0.5937	0.058
Mof_C 	C 	0.17885	-1.61752e-32	0.4792	0.284
Mof_C 	C 	0.73185	0.73185	0.4643	0.188
Mof_C 	C 	0.642	0.334	0.0506	-0.228
Mof_C 	C 	0.358	0.692	0.4494	-0.253
Mof_C 	C 	0.8031	0.1118	0.1697	0.086
Mof_C 	C 	0.1647	0.1647	0.9478	-0.451
Mof_C 	C 	0.2363	0.7504	0.94676	0.086
Mof_C 	C 	0.8226	0.0972	0.8463	0.094
Mof_C 	C 	0.8761	0.1867	0.8763	-0.129
Mof_C 	C 	-4.80596e-17	0.73185	0.9643	0.173
Mof_C 	C 	0.6832	0.8081	0.3243	0.093
Mof_C 	C 	0.1066	0.2198	0.8034	0.795
Mof_C 	C 	0.2023	1.61752e-32	0.4246	0.644
Mof_C 	C 	0.649	0.5037	0.44016	0.453
Mof_C 	C 	0.6231	0	0.1831	-0.405
Mof_C 	C 	0.8868	0.7802	0.8034	0.75
Mof_C 	C 	0.26815	0.26815	0.5357	0.188
Mof_C 	C 	0.5445	0.5445	0.6064	0.59
Mof_C 	C 	0.4963	0.1453	0.44016	0.449
Mof_C 	C 	0.8353	-3.23504e-32	0.9478	-0.473
Mof_C 	C 	0.1662	0.2666	0.1465	0.104
Mof_C 	C 	0.8242	0.1815	0.37284	0.177
Mof_C 	C 	0.8533	0.531	0.04304	0.436
Mof_C 	C 	0.3727	0.7328	0.0214	0.038
Mof_C 	C 	0.43966	1.61752e-32	0.6416	-0.362
Mof_C 	C 	0.6399	0.3727	0.9786	0.117
Mof_C 	C 	0.7347	0.5695	0.0937	0.058
Mof_C 	C 	0.43966	0.43966	0.1416	-0.361
Mof_C 	C 	0.8338	0.1004	0.3535	0.113
Mof_C 	C 	0.3168	0.1919	0.6757	0.107
Mof_C 	C 	0.1166	0.3185	0.1309	-0.127
Mof_C 	C 	0.3609	0.1451	0.153	-0.148
Mof_C 	C 	0.1453	0.649	0.94016	0.445
Mof_C 	C 	0.3523	0.1359	0.6469	-0.133
Mof_C 	C 	-2.51048e-17	0.2306	0.4875	-0.294
Mof_C 	C 	0.3185	0.1166	0.3691	-0.126
Mof_C 	C 	0.4859	0.2363	0.44676	0.098
Mof_C 	C 	0.8319	0.5833	0.41461	0.043
Mof_C 	C 	0.1467	0.6777	0.04304	0.443
Mof_C 	C 	0.6832	0.8751	0.8243	0.095
Mof_C 	C 	0.36	0.672	0.5059	-0.174
Mof_C 	C 	0.9028	0.7254	0.6537	0.083
Mof_C 	C 	0.82115	0	0.5208	0.291
Mof_C 	C 	0.6231	0.6231	0.8169	-0.402
Mof_C 	C 	0.8026	0.2055	0.39769	-0.099
Mof_C 	C 	0.8667	0.1354	0.8274	-0.302
Mof_C 	C 	0.3727	0.6399	0.9786	0.117
Mof_C 	C 	0.8026	0.2055	0.10231	-0.1
Mof_C 	C 	0.8094	0.2676	0.56095	-0.142
Mof_C 	C 	0.1467	0.6777	0.45696	0.444
Mof_C 	C 	0.6913	0.8031	0.6697	0.088
Mof_C 	C 	0.8319	0.5833	0.08539	0.043
Mof_C 	C 	0.4859	0.2363	0.05324	0.098
Mof_C 	C 	0.3185	0.1166	0.1309	-0.127
Mof_C 	C 	-2.07232e-17	0.2306	0.0125	-0.345
Mof_C 	C 	0.3609	0.1451	0.347	-0.148
Mof_C 	C 	0.1166	0.3185	0.3691	-0.126
Mof_C 	C 	0.3886	0.3886	0.1513	0.534
Mof_C 	C 	0.8338	0.1004	0.1465	0.112
Mof_C 	C 	0.3769	3.23504e-32	0.8169	-0.405
Mof_C 	C 	0.7324	0.5418	0.56095	-0.155
Mof_C 	C 	0.3443	2.0219e-33	0.0793	3.646
Mof_C 	C 	0.1451	0.3609	0.153	-0.148
Mof_C 	C 	0.43966	0.43966	0.3584	-0.361
Mof_C 	C 	0.7347	0.5695	0.4063	0.058
Mof_C 	C 	0.8348	0.5695	0.9063	0.054
Mof_C 	C 	0.3727	0.7328	0.4786	0.074
Mof_C 	C 	0.8533	0.531	0.45696	0.437
Mof_C 	C 	0.6777	0.531	0.95696	0.449
Mof_C 	C 	0.8242	0.1815	0.12716	0.177
Mof_C 	C 	0.1662	0.2666	0.3535	0.105
Mof_C 	C 	0.4963	0.1453	0.05984	0.448
Mof_C 	C 	0.6231	0	0.3169	-0.405
Mof_C 	C 	0.649	0.5037	0.05984	0.452
Mof_C 	C 	0.2023	0	0.0754	0.663
Mof_C 	C 	0.3523	0.1359	0.8531	-0.132
Mof_C 	C 	0.2486	0.8319	0.91461	0.042
Mof_C 	C 	0.8996	0.1662	0.6465	0.094
Mof_C 	C 	0.7514	0.5833	0.58539	0.049
Mof_C 	C 	0.8641	0.2164	0.8531	-0.127
Mof_C 	C 	0.6832	0.8081	0.1757	0.093
Mof_C 	C 	0.1906	0.4582	0.56095	-0.162
Mof_C 	C 	0.8031	0.1118	0.3303	0.086
Mof_C 	C 	0.358	0.692	0.0506	-0.226
Mof_C 	C 	0.2019	0.3185	0.6309	-0.116
Mof_C 	C 	0.521	0.521	0.6636	0.241
Mof_C 	C 	-5.87845e-17	0.479	0.8364	0.229
Mof_C 	C 	0.8026	0.5971	0.89769	-0.096
Mof_C 	C 	0.3573	0.1815	0.87284	0.19
Mof_C 	C 	0.1906	0.7324	0.43905	-0.153
Mof_C 	C 	0.1004	0.8338	0.3535	0.113
Mof_C 	C 	0.4712	0.1838	0.43068	-0.178
Mof_C 	C 	0.3727	0.6399	0.5214	0.078
Mof_C 	C 	0.4963	0.351	0.94016	0.453
Mof_C 	C 	0.7981	0.6815	0.3691	-0.103
Mof_C 	C 	0.4162	0.4162	0.2949	0.243
Mof_C 	C 	0.7977	0.7977	0.4246	0.638
Mof_C 	C 	-5.46519e-18	0.3264	0.0272	1.069
Mof_C 	C 	0.8667	0.1354	0.6726	-0.302
Mof_C 	C 	0.8319	0.2486	0.91461	0.042
Mof_C 	C 	0.8751	0.6832	0.8243	0.095
Mof_C 	C 	0.308	0.642	0.5506	-0.255
Mof_C 	C 	0.2198	0.1066	0.6966	0.795
Mof_C 	C 	-2.23909e-17	0.17885	0.0208	0.316
Mof_C 	C 	0.8996	0.7334	0.1465	0.098
Mof_C 	C 	0.1758	0.8185	0.62716	0.174
Mof_C 	C 	0.6736	0.6736	0.0272	1.121
Mof_C 	C 	0.3886	0	0.6513	0.519
Mof_C 	C 	0.5288	0.7126	0.43068	-0.172
Mof_C 	C 	0.2164	0.3523	0.1469	-0.139
Mof_C 	C 	0.8641	0.6477	0.1469	-0.122
Mof_C 	C 	0.4582	0.2676	0.06095	-0.165
Mof_C 	C 	0.4029	0.2055	0.89769	-0.116
Mof_C 	C 	0.1118	0.3087	0.6697	0.1
Mof_C 	C 	0.649	0.1453	0.94016	0.445
Mof_C 	C 	0.7842	0.6391	0.153	-0.144
Mof_C 	C 	-5.27211e-17	0.7694	0.9875	-0.238
Mof_C 	C 	0.5971	0.8026	0.60231	-0.098
Mof_C 	C 	2.38518e-17	0.4555	0.6064	0.567
Mof_C 	C 	0.1354	0.8667	0.8274	-0.302
Mof_C 	C 	0.73185	3.23504e-32	0.9643	0.173
Mof_C 	C 	0.1451	0.7842	0.653	-0.14
Mof_C 	C 	-3.30815e-17	0.6736	0.5272	1.128
Mof_C 	C 	0.8934	0.1132	0.6966	0.744
Mof_C 	C 	0.7254	0.8226	0.3463	0.084
Mof_C 	C 	0.5838	0.5838	0.7051	0.242
Mof_C 	C 	0.1354	0.2687	0.3274	-0.334
Mof_C 	C 	0.666	0.358	0.5506	-0.251
Mof_C 	C 	-5.48665e-17	0.3769	0.8169	-0.405
Mof_C 	C 	0.1815	0.8242	0.12716	0.177
Mof_C 	C 	0.9028	0.1774	0.3463	0.08
Mof_C 	C 	0.17885	0.17885	0.5208	0.273
Mof_C 	C 	0.7126	0.1838	0.56932	-0.169
Mof_C 	C 	0.8934	0.7802	0.3034	0.751
Mof_C 	C 	0.2023	0.2023	0.9246	0.609
Mof_C 	C 	0.334	0.692	0.5506	-0.252
Mof_C 	C 	0.8549	0.6391	0.847	-0.148
Mof_C 	C 	-4.97675e-17	0.6736	0.9728	1.183
Mof_C 	C 	0.469	0.3223	0.04304	0.451
Mof_C 	C 	0.4167	0.2486	0.08539	0.056
Mof_C 	C 	0.2055	0.4029	0.89769	-0.116
Mof_C 	C 	0.3087	0.1118	0.8303	0.1
Mof_C 	C 	0.8094	0.5418	0.06095	-0.144
Mof_C 	C 	0.2019	0.3185	0.8691	-0.115
Mof_C 	C 	0.692	0.358	0.4494	-0.253
Mof_C 	C 	0.7802	0.8934	0.3034	0.751
Mof_C 	C 	0.8031	0.6913	0.8303	0.087
Mof_C 	C 	0.8868	0.1066	0.1966	0.75
Mof_C 	C 	0.6777	0.531	0.54304	0.45
Mof_C 	C 	0.8133	0.6894	0.6237	-0.133
Mof_C 	C 	0.1132	0.2198	0.3034	0.787
Mof_C 	C 	3.80572e-17	0.73185	0.5357	0.206
Mof_C 	C 	3.17482e-17	0.746	0.5671	-1.145
Mof_C 	C 	0.7514	0.1681	0.41461	0.049
Mof_C 	C 	0.308	0.666	0.0506	-0.225
Mof_C 	C 	0.8996	0.1662	0.8535	0.094
Mof_C 	C 	0.1066	0.8868	0.3034	0.75
Mof_C 	C 	0.254	0.254	0.5671	-1.105
Mof_C 	C 	0.6913	0.8882	0.3303	0.093
Mof_C 	C 	0.746	0	0.5671	-1.145
Mof_C 	C 	0.8761	0.6894	0.3763	-0.132
Mof_C 	C 	0.2496	0.7637	0.44676	0.089
Mof_C 	C 	0.7313	0.8667	0.3274	-0.301
Mof_C 	C 	0.2676	0.8094	0.56095	-0.142
Mof_C 	C 	0.5418	0.7324	0.93905	-0.152
Mof_C 	C 	-7.32129e-17	0.6231	0.1831	-0.405
Mof_C 	C 	0.8667	0.7313	0.1726	-0.301
Mof_C 	C 	0.688	0.36	0.0059	-0.162
Mof_C 	C 	0.479	0.479	0.1636	0.243
Mof_C 	C 	0.6399	0.2672	0.0214	0.042
Mof_C 	C 	0.2666	0.1004	0.8535	0.118
Mof_C 	C 	0.2676	0.4582	0.06095	-0.165
Mof_C 	C 	0.1333	0.8646	0.1726	-0.306
Mof_C 	C 	0.6736	0	0.5272	1.128
Mof_C 	C 	0.5288	0.8162	0.93068	-0.157
Mof_C 	C 	0.1647	-2.0219e-33	0.0522	-0.527
Mof_C 	C 	0.2164	0.8641	0.8531	-0.127
Mof_C 	C 	0.7324	0.1906	0.43905	-0.153
Mof_C 	C 	0.531	0.6777	0.95696	0.449
Mof_C 	C 	0.4029	0.1974	0.39769	-0.116
Mof_C 	C 	0.1467	0.469	0.54304	0.446
Mof_C 	C 	0.2687	0.1354	0.3274	-0.334
Mof_C 	C 	0.7977	0	0.9246	0.631
Mof_C 	C 	2.78375e-18	0.6114	0.3487	0.519
Mof_C 	C 	0.688	0.328	0.9941	-0.183
Mof_C 	C 	0.1867	0.8761	0.6237	-0.129
Mof_C 	C 	-3.33615e-17	0.2023	0.0754	0.663
Mof_C 	C 	0.1118	0.8031	0.3303	0.086
Mof_N 	N 	0.6592	0.3335	0.4778	0.266
Mof_N 	N 	0.3257	0.6665	0.0222	0.262
Mof_N 	N 	0.3408	0.6665	0.5222	0.264
Mof_N 	N 	0.6592	0.3257	0.9778	0.269
Mof_N 	N 	0.6665	0.3408	0.5222	0.264
Mof_N 	N 	0.6743	0.3335	0.5222	0.265
Mof_N 	N 	0.6743	0.3335	0.9778	0.268
Mof_N 	N 	0.3408	0.6665	0.9778	0.266
Mof_N 	N 	0.6743	0.3408	0.0222	0.263
Mof_N 	N 	0.6592	0.3335	0.0222	0.264
Mof_N 	N 	0.3335	0.6743	0.9778	0.268
Mof_N 	N 	0.6592	0.3257	0.5222	0.266
Mof_N 	N 	0.3257	0.6665	0.4778	0.264
Mof_N 	N 	0.3257	0.6592	0.5222	0.266
Mof_N 	N 	0.6665	0.3408	0.9778	0.266
Mof_N 	N 	0.3335	0.6592	0.4778	0.266
Mof_N 	N 	0.3408	0.6743	0.0222	0.263
Mof_N 	N 	0.6665	0.3257	0.0222	0.262
Mof_N 	N 	0.3257	0.6592	0.9778	0.269
Mof_N 	N 	0.3335	0.6743	0.5222	0.265
Mof_N 	N 	0.6665	0.3257	0.4778	0.264
Mof_N 	N 	0.3408	0.6743	0.4778	0.265
Mof_N 	N 	0.3335	0.6592	0.0222	0.264
Mof_N 	N 	0.6743	0.3408	0.4778	0.265
Mof_O 	O 	0.2189	0.1509	0.2153	-0.546
Mof_O 	O 	0.62828	0.46239	0.45999	-0.446
Mof_O 	O 	0.94475	0.40592	0.48998	-0.51
Mof_O 	O 	0.4741	0	0.1058	0.941
Mof_O 	O 	0.0949	0.4739	0.07254	-0.46
Mof_O 	O 	0.5259	0.5259	0.1058	0.985
Mof_O 	O 	0.4183	0.4183	0.0875	0.373
Mof_O 	O 	0.9184	0	0.3001	0.31
Mof_O 	O 	0.94474	0.45645	0.95886	-0.522
Mof_O 	O 	0.0816	0.0816	0.1999	0.389
Mof_O 	O 	0.62828	0.16589	0.95999	-0.435
Mof_O 	O 	0.4961	0	0.101	-1.394
Mof_O 	O 	0.0556	0.9371	0.75	-0.627
Mof_O 	O 	0.1458	0.9308	0.288	-0.264
Mof_O 	O 	0.383	0.763	0.0022	-0.213
Mof_O 	O 	0.621	0.5261	0.42746	-0.476
Mof_O 	O 	-7.13625e-17	0.6212	0.899	-1.273
Mof_O 	O 	0.6212	-1.61752e-32	0.601	-1.271
Mof_O 	O 	0.0273	0.9684	0.65	0.047
Mof_O 	O 	0.94474	0.48829	0.04114	-0.523
Mof_O 	O 	0.8807	0.0571	0.1899	-0.217
Mof_O 	O 	0.215	0.1458	0.788	-0.302
Mof_O 	O 	0.5166	0.34958	0.47254	-0.434
Mof_O 	O 	-5.67168e-17	0.4961	0.101	-1.394
Mof_O 	O 	0.0589	0.0273	0.35	-0.043
Mof_O 	O 	0.0692	0.215	0.288	-0.302
Mof_O 	O 	0.48829	0.54355	0.95886	-0.6
Mof_O 	O 	0.05525	0.59408	0.51002	-0.575
Mof_O 	O 	0.62	0.383	0.9978	-0.259
Mof_O 	O 	0.48829	0.94474	0.45886	-0.526
Mof_O 	O 	0.9259	0.9259	0.343	-0.435
Mof_O 	O 	0.94474	0.45645	0.54114	-0.526
Mof_O 	O 	0.16589	0.62828	0.95999	-0.435
Mof_O 	O 	0.59408	0.05525	0.51002	-0.575
Mof_O 	O 	0.0589	0.0316	0.65	-0.085
Mof_O 	O 	0.932	0.1509	0.7153	-0.489
Mof_O 	O 	-1.83472e-17	0.3353	0.9977	-1.273
Mof_O 	O 	0.8807	0.8236	0.6899	-0.202
Mof_O 	O 	0.16702	0.5166	0.52746	-0.429
Mof_O 	O 	-5.1768e-18	0.0741	0.343	-0.449
Mof_O 	O 	0.237	0.62	0.0022	-0.213
Mof_O 	O 	0.0949	0.621	0.92746	-0.459
Mof_O 	O 	0.1226	0.1818	0.8054	-0.438
Mof_O 	O 	0.05525	0.46117	0.01002	-0.581
Mof_O 	O 	0.59408	0.53883	0.01002	-0.592
Mof_O 	O 	0.83298	0.4834	0.02746	-0.426
Mof_O 	O 	0.83298	0.34958	0.97254	-0.415
Mof_O 	O 	0.45645	0.51171	0.45886	-0.604
Mof_O 	O 	0.0933	0.4292	0.54524	-0.456
Mof_O 	O 	0.9408	0.1226	0.1946	-0.384
Mof_O 	O 	0.3353	0.3353	0.4977	-1.412
Mof_O 	O 	0.3353	-1.61752e-32	0.5023	-1.362
Mof_O 	O 	0.4292	0.0933	0.54524	-0.456
Mof_O 	O 	0.05525	0.59408	0.98998	-0.562
Mof_O 	O 	-1.00353e-17	0.5994	0.4125	-0.716
Mof_O 	O 	0.6641	0.5708	0.95476	-0.466
Mof_O 	O 	0.0741	0.0741	0.657	-0.337
Mof_O 	O 	0.9727	0.9411	0.85	0.112
Mof_O 	O 	0.9051	0.5261	0.92746	-0.415
Mof_O 	O 	0.0629	0.1185	0.75	-0.691
Mof_O 	O 	8.34485e-18	0.3353	0.5023	-1.362
Mof_O 	O 	0.59408	0.05525	0.98998	-0.562
Mof_O 	O 	-1.22835e-18	0.4006	0.9125	-0.718
Mof_O 	O 	0.34958	0.5166	0.02746	-0.435
Mof_O 	O 	0.3282	0.3282	0.4832	0.802
Mof_O 	O 	0.9067	0.3359	0.95476	-0.408
Mof_O 	O 	0.0933	0.4292	0.95476	-0.453
Mof_O 	O 	0.8542	0.0692	0.788	-0.286
Mof_O 	O 	0.9067	0.5708	0.04524	-0.412
Mof_O 	O 	0.068	0.8491	0.2847	-0.531
Mof_O 	O 	0.05526	0.54355	0.04114	-0.588
Mof_O 	O 	0.0571	0.8807	0.3101	-0.217
Mof_O 	O 	0.932	0.7811	0.2847	-0.493
Mof_O 	O 	0.8542	0.785	0.212	-0.281
Mof_O 	O 	-0	0	0.7812	-0.702
Mof_O 	O 	0.0816	0	0.6999	0.295
Mof_O 	O 	0.6212	0.6212	0.399	-1.246
Mof_O 	O 	0.5708	0.9067	0.04524	-0.412
Mof_O 	O 	0.0589	0.0316	0.85	-0.085
Mof_O 	O 	-2.42408e-17	0.6718	0.4832	0.759
Mof_O 	O 	0.8182	0.9408	0.8054	-0.395
Mof_O 	O 	0.4834	0.65042	0.97254	-0.424
Mof_O 	O 	0.9051	0.379	0.42746	-0.416
Mof_O 	O 	-4.6213e-19	0.6647	0.0023	-1.459
Mof_O 	O 	0.62	0.237	0.0022	-0.213
Mof_O 	O 	-1.14865e-17	0.5039	0.601	-1.393
Mof_O 	O 	0.3788	0.3788	0.601	-1.247
Mof_O 	O 	0.38	0.763	0.5022	-0.237
Mof_O 	O 	0.1818	0.0592	0.3054	-0.436
Mof_O 	O 	0.1509	0.2189	0.2153	-0.546
Mof_O 	O 	0.8182	0.8774	0.3054	-0.45
Mof_O 	O 	0.1193	0.1764	0.3101	-0.214
Mof_O 	O 	0.53883	0.59408	0.01002	-0.592
Mof_O 	O 	0.8542	0.785	0.288	-0.281
Mof_O 	O 	0.6641	0.5708	0.54524	-0.469
Mof_O 	O 	-1.33145e-16	0.9184	0.3001	0.31
Mof_O 	O 	0.0933	0.6641	0.04524	-0.455
Mof_O 	O 	0.3788	0.3788	0.899	-1.25
Mof_O 	O 	0.83411	0.46239	0.54001	-0.438
Mof_O 	O 	0.83411	0.37172	0.04001	-0.437
Mof_O 	O 	0.1818	0.1226	0.6946	-0.438
Mof_O 	O 	0.4006	-3.23504e-32	0.9125	-0.718
Mof_O 	O 	0.1509	0.932	0.7847	-0.489
Mof_O 	O 	0.0571	0.1764	0.6899	-0.235
Mof_O 	O 	0.62	0.383	0.5022	-0.237
Mof_O 	O 	0.65042	0.4834	0.97254	-0.424
Mof_O 	O 	0.5994	0.5994	0.9125	-0.743
Mof_O 	O 	0.8807	0.8236	0.8101	-0.202
Mof_O 	O 	0.1764	0.0571	0.8101	-0.235
Mof_O 	O 	0.6647	0.6647	0.9977	-1.34
Mof_O 	O 	-0	0	0.2188	-0.703
Mof_O 	O 	0.9184	0.9184	0.8001	0.423
Mof_O 	O 	0.9429	0.8236	0.3101	-0.176
Mof_O 	O 	0.785	0.9308	0.712	-0.259
Mof_O 	O 	0.4834	0.83298	0.02746	-0.426
Mof_O 	O 	-6.35838e-18	0.4741	0.3942	0.94
Mof_O 	O 	0.379	0.9051	0.07254	-0.416
Mof_O 	O 	0.37172	0.83411	0.45999	-0.438
Mof_O 	O 	0.83298	0.34958	0.52746	-0.424
Mof_O 	O 	0.9727	0.9411	0.65	0.111
Mof_O 	O 	0.37172	0.83411	0.04001	-0.437
Mof_O 	O 	0.621	0.0949	0.92746	-0.459
Mof_O 	O 	0.763	0.383	0.4978	-0.237
Mof_O 	O 	0.9184	0.9184	0.6999	0.423
Mof_O 	O 	0.379	0.9051	0.42746	-0.416
Mof_O 	O 	-2.1258e-17	0.4741	0.1058	0.941
Mof_O 	O 	0.4834	0.83298	0.47254	-0.424
Mof_O 	O 	0.8491	0.7811	0.7847	-0.538
Mof_O 	O 	0.34958	0.83298	0.52746	-0.424
Mof_O 	O 	0.1458	0.9308	0.212	-0.264
Mof_O 	O 	0.8491	0.068	0.2847	-0.531
Mof_O 	O 	4.56924e-17	0.6647	0.4977	-1.37
Mof_O 	O 	0.9429	0.8236	0.1899	-0.176
Mof_O 	O 	8.0876e-33	8.0876e-33	0.2812	-0.703
Mof_O 	O 	0.7811	0.8491	0.7847	-0.538
Mof_O 	O 	0.2189	0.068	0.7153	-0.543
Mof_O 	O 	0.4961	0.4961	0.601	-1.431
Mof_O 	O 	0.53761	0.37172	0.54001	-0.447
Mof_O 	O 	0.8774	0.0592	0.6946	-0.436
Mof_O 	O 	0.379	0.4739	0.57254	-0.477
Mof_O 	O 	0.763	0.38	0.5022	-0.237
Mof_O 	O 	0.1764	0.1193	0.3101	-0.214
Mof_O 	O 	0.83411	0.37172	0.45999	-0.438
Mof_O 	O 	0.068	0.2189	0.7153	-0.543
Mof_O 	O 	0.0933	0.6641	0.45476	-0.453
Mof_O 	O 	-1.13012e-16	0.9184	0.1999	0.31
Mof_O 	O 	0.53883	0.59408	0.48998	-0.587
Mof_O 	O 	0.53761	0.37172	0.95999	-0.44
Mof_O 	O 	0.1193	0.1764	0.1899	-0.214
Mof_O 	O 	0.5708	0.9067	0.45476	-0.41
Mof_O 	O 	0.8182	0.8774	0.1946	-0.45
Mof_O 	O 	0.1509	0.2189	0.2847	-0.546
Mof_O 	O 	0.1818	0.0592	0.1946	-0.436
Mof_O 	O 	0.4741	0.4741	0.8942	0.98
Mof_O 	O 	0.9408	0.8182	0.8054	-0.395
Mof_O 	O 	0.9684	0.0273	0.85	0.048
Mof_O 	O 	0.62	0.237	0.4978	-0.237
Mof_O 	O 	0.53761	0.16589	0.45999	-0.443
Mof_O 	O 	0.9051	0.379	0.07254	-0.416
Mof_O 	O 	0.6444	0	0.9493	-1.755
Mof_O 	O 	-3.37556e-18	0.6718	0.0168	0.828
Mof_O 	O 	0.0629	0.9444	0.25	-0.606
Mof_O 	O 	0.6212	0.6212	0.101	-1.243
Mof_O 	O 	0.9259	0	0.657	-0.499
Mof_O 	O 	0.6444	0	0.5507	-1.737
Mof_O 	O 	-4.51974e-17	0.4183	0.5875	0.342
Mof_O 	O 	-5.40043e-17	0.5994	0.0875	-0.714
Mof_O 	O 	0.5817	0.5817	0.9125	0.376
Mof_O 	O 	0.932	0.7811	0.2153	-0.493
Mof_O 	O 	0.46239	0.83411	0.95999	-0.431
Mof_O 	O 	0.0571	0.8807	0.1899	-0.217
Mof_O 	O 	0.05526	0.54355	0.45886	-0.591
Mof_O 	O 	0.617	0.237	0.9978	-0.259
Mof_O 	O 	0.16702	0.5166	0.97254	-0.42
Mof_O 	O 	0.0589	0.0273	0.15	-0.043
Mof_O 	O 	0.068	0.8491	0.2153	-0.531
Mof_O 	O 	0.9067	0.5708	0.45476	-0.41
Mof_O 	O 	0.5259	0.5259	0.3942	0.984
Mof_O 	O 	0.5817	0.5817	0.5875	0.374
Mof_O 	O 	-4.50457e-17	0.6444	0.9493	-1.755
Mof_O 	O 	0.34958	0.5166	0.47254	-0.434
Mof_O 	O 	0.0556	0.1185	0.25	-0.673
Mof_O 	O 	0.05525	0.46117	0.48998	-0.575
Mof_O 	O 	0.51171	0.05526	0.95886	-0.587
Mof_O 	O 	0.1193	0.9429	0.6899	-0.169
Mof_O 	O 	0.40592	0.46117	0.51002	-0.587
Mof_O 	O 	0.62828	0.16589	0.54001	-0.442
Mof_O 	O 	0.3359	0.4292	0.45476	-0.471
Mof_O 	O 	0.3353	0.3353	0.0023	-1.502
Mof_O 	O 	0.9408	0.1226	0.3054	-0.384
Mof_O 	O 	0.46239	0.83411	0.54001	-0.438
Mof_O 	O 	0.0692	0.8542	0.712	-0.286
Mof_O 	O 	0.8542	0.0692	0.712	-0.286
Mof_O 	O 	0.5039	3.23504e-32	0.899	-1.393
Mof_O 	O 	0.9684	0.9411	0.35	0.065
Mof_O 	O 	0.3359	0.9067	0.54524	-0.411
Mof_O 	O 	0.45645	0.51171	0.04114	-0.601
Mof_O 	O 	0.4006	-1.61752e-32	0.5875	-0.716
Mof_O 	O 	0.83298	0.4834	0.47254	-0.424
Mof_O 	O 	0.59408	0.53883	0.48998	-0.587
Mof_O 	O 	0.65042	0.4834	0.52746	-0.433
Mof_O 	O 	0.237	0.62	0.4978	-0.237
Mof_O 	O 	0.9308	0.785	0.712	-0.259
Mof_O 	O 	-4.22789e-18	0.0741	0.157	-0.449
Mof_O 	O 	0.54355	0.48829	0.54114	-0.604
Mof_O 	O 	0.46239	0.62828	0.45999	-0.446
Mof_O 	O 	0.621	0.0949	0.57254	-0.46
Mof_O 	O 	0.53883	0.94475	0.98998	-0.498
Mof_O 	O 	0.9259	0.9259	0.157	-0.435
Mof_O 	O 	0.48829	0.94474	0.04114	-0.523
Mof_O 	O 	-1.14865e-17	0.6212	0.601	-1.271
Mof_O 	O 	0.4292	0.0933	0.95476	-0.453
Mof_O 	O 	0.45645	0.94474	0.95886	-0.522
Mof_O 	O 	0.6718	0.6718	0.5168	0.822
Mof_O 	O 	-8.77404e-18	0.4006	0.5875	-0.716
Mof_O 	O 	0.5261	0.9051	0.57254	-0.416
Mof_O 	O 	0.0692	0.215	0.212	-0.302
Mof_O 	O 	-4.37461e-17	0.4961	0.399	-1.393
Mof_O 	O 	0.0316	0.0589	0.85	-0.085
Mof_O 	O 	0.5166	0.34958	0.02746	-0.435
Mof_O 	O 	0.37172	0.53761	0.54001	-0.447
Mof_O 	O 	0.51171	0.05526	0.54114	-0.591
Mof_O 	O 	0.8807	0.0571	0.3101	-0.217
Mof_O 	O 	0.94474	0.48829	0.45886	-0.526
Mof_O 	O 	0.46239	0.62828	0.04001	-0.445
Mof_O 	O 	0.621	0.5261	0.07254	-0.475
Mof_O 	O 	0.383	0.763	0.4978	-0.237
Mof_O 	O 	0.5994	0.5994	0.5875	-0.741
Mof_O 	O 	0.1458	0.215	0.712	-0.302
Mof_O 	O 	0.237	0.617	0.5022	-0.237
Mof_O 	O 	2.39723e-17	0.5259	0.6058	0.939
Mof_O 	O 	0.4961	0	0.399	-1.393
Mof_O 	O 	0.9411	0.9727	0.65	0.111
Mof_O 	O 	-1.37997e-18	0.6444	0.5507	-1.737
Mof_O 	O 	0.0816	0.0816	0.3001	0.389
Mof_O 	O 	-1.54338e-17	0.3282	0.9832	0.682
Mof_O 	O 	0.617	0.237	0.5022	-0.237
Mof_O 	O 	0.9184	-8.0876e-33	0.1999	0.31
Mof_O 	O 	0.4183	0.4183	0.4125	0.374
Mof_O 	O 	0.6647	0.6647	0.5023	-1.43
Mof_O 	O 	0.38	0.763	0.9978	-0.259
Mof_O 	O 	0.8182	0.9408	0.6946	-0.395
Mof_O 	O 	0.0949	0.4739	0.42746	-0.461
Mof_O 	O 	0.5259	-3.23504e-32	0.8942	0.939
Mof_O 	O 	0.4741	1.61752e-32	0.3942	0.94
Mof_O 	O 	0.94475	0.40592	0.01002	-0.516
Mof_O 	O 	0.62828	0.46239	0.04001	-0.445
Mof_O 	O 	0.2189	0.1509	0.2847	-0.546
Mof_O 	O 	0.9259	0	0.843	-0.499
Mof_O 	O 	0.54355	0.48829	0.95886	-0.6
Mof_O 	O 	0.0592	0.8774	0.6946	-0.436
Mof_O 	O 	0.9408	0.8182	0.6946	-0.395
Mof_O 	O 	0.1226	0.9408	0.1946	-0.384
Mof_O 	O 	0.6444	0.6444	0.0507	-1.721
Mof_O 	O 	0.1764	0.0571	0.6899	-0.235
Mof_O 	O 	0.9727	0.0316	0.35	0.051
Mof_O 	O 	0.4183	-3.23504e-32	0.9125	0.343
Mof_O 	O 	0.1509	0.932	0.7153	-0.489
Mof_O 	O 	0.0592	0.8774	0.8054	-0.436
Mof_O 	O 	0.45645	0.94474	0.54114	-0.526
Mof_O 	O 	0.3282	1.61752e-32	0.5168	0.751
Mof_O 	O 	-2.02935e-17	0.3788	0.101	-1.268
Mof_O 	O 	5.43142e-18	0.3282	0.5168	0.751
Mof_O 	O 	0.6647	0	0.4977	-1.37
Mof_O 	O 	0.0273	0.9684	0.85	0.048
Mof_O 	O 	0.46117	0.40592	0.51002	-0.587
Mof_O 	O 	-1.7581e-17	0.5817	0.0875	0.341
Mof_O 	O 	0.51171	0.45645	0.45886	-0.604
Mof_O 	O 	0.6212	3.23504e-32	0.899	-1.273
Mof_O 	O 	0.7811	0.932	0.2847	-0.493
Mof_O 	O 	0.8815	0.9371	0.25	-0.657
Mof_O 	O 	0.215	0.0692	0.212	-0.302
Mof_O 	O 	0.8774	0.0592	0.8054	-0.436
Mof_O 	O 	0.5039	0.5039	0.399	-1.435
Mof_O 	O 	0.8774	0.8182	0.3054	-0.45
Mof_O 	O 	0.8236	0.8807	0.8101	-0.202
Mof_O 	O 	0.932	0.1509	0.7847	-0.489
Mof_O 	O 	0.0592	0.1818	0.3054	-0.436
Mof_O 	O 	0.0741	0.0741	0.843	-0.337
Mof_O 	O 	0.3788	0	0.101	-1.268
Mof_O 	O 	0.4739	0.379	0.57254	-0.477
Mof_O 	O 	0.0949	0.621	0.57254	-0.46
Mof_O 	O 	0.0571	0.1764	0.8101	-0.235
Mof_O 	O 	0.0273	0.0589	0.35	-0.043
Mof_O 	O 	0.8491	0.068	0.2153	-0.531
Mof_O 	O 	0.4739	0.0949	0.07254	-0.46
Mof_O 	O 	0.9411	0.9684	0.15	0.065
Mof_O 	O 	0.1458	0.215	0.788	-0.302
Mof_O 	O 	0.53883	0.94475	0.51002	-0.51
Mof_O 	O 	0.16589	0.62828	0.54001	-0.442
Mof_O 	O 	0.46117	0.05525	0.48998	-0.575
Mof_O 	O 	0.3556	0	0.0507	-1.718
Mof_O 	O 	0.9684	0.9411	0.15	0.065
Mof_O 	O 	0.4183	-1.61752e-32	0.5875	0.342
Mof_O 	O 	0.4961	0.4961	0.899	-1.431
Mof_O 	O 	0.40592	0.94475	0.01002	-0.516
Mof_O 	O 	0.9308	0.1458	0.288	-0.264
Mof_O 	O 	0.4741	0.4741	0.6058	0.981
Mof_O 	O 	0.215	0.1458	0.712	-0.302
Mof_O 	O 	0.1764	0.1193	0.1899	-0.214
Mof_O 	O 	0.5994	-2.0219e-33	0.0875	-0.714
Mof_O 	O 	0.9051	0.5261	0.57254	-0.416
Mof_O 	O 	-1.01869e-17	0.3556	0.0507	-1.718
Mof_O 	O 	0.8491	0.7811	0.7153	-0.538
Mof_O 	O 	0.5817	1.61752e-32	0.4125	0.342
Mof_O 	O 	0.9371	0.0556	0.75	-0.627
Mof_O 	O 	0.54355	0.05526	0.04114	-0.588
Mof_O 	O 	0.0316	0.9727	0.15	0.051
Mof_O 	O 	0.5039	-1.61752e-32	0.601	-1.393
Mof_O 	O 	0.3353	0	0.9977	-1.273
Mof_O 	O 	0.0741	0	0.343	-0.449
Mof_O 	O 	0.7811	0.8491	0.7153	-0.538
Mof_O 	O 	0.068	0.2189	0.7847	-0.543
Mof_O 	O 	0.9308	0.785	0.788	-0.259
Mof_O 	O 	0.9411	0.9727	0.85	0.112
Mof_O 	O 	0.3282	0.3282	0.0168	0.872
Mof_O 	O 	0.3359	0.4292	0.04524	-0.473
Mof_O 	O 	-3.76517e-17	0.4183	0.9125	0.343
Mof_O 	O 	0.4006	0.4006	0.0875	-0.739
Mof_O 	O 	0.6641	0.0933	0.45476	-0.453
Mof_O 	O 	0.763	0.383	0.0022	-0.213
Mof_O 	O 	0.4292	0.3359	0.45476	-0.471
Mof_O 	O 	0.16589	0.53761	0.45999	-0.443
Mof_O 	O 	0.6718	0	0.0168	0.828
Mof_O 	O 	0.94475	0.53883	0.98998	-0.498
Mof_O 	O 	0.4834	0.65042	0.52746	-0.433
Mof_O 	O 	0.383	0.62	0.5022	-0.237
Mof_O 	O 	0.40592	0.46117	0.98998	-0.575
Mof_O 	O 	0.9371	0.8815	0.25	-0.657
Mof_O 	O 	2.4486e-18	0.5259	0.8942	0.939
Mof_O 	O 	0.5259	0	0.6058	0.939
Mof_O 	O 	0.0692	0.8542	0.788	-0.286
Mof_O 	O 	0.8236	0.9429	0.1899	-0.176
Mof_O 	O 	0.9684	0.0273	0.65	0.047
Mof_O 	O 	0.6718	0.6718	0.9832	0.753
Mof_O 	O 	0.617	0.38	0.0022	-0.214
Mof_O 	O 	-9.65339e-17	0.9259	0.843	-0.499
Mof_O 	O 	0.5708	0.6641	0.54524	-0.469
Mof_O 	O 	0.38	0.617	0.4978	-0.238
Mof_O 	O 	0.5261	0.621	0.42746	-0.476
Mof_O 	O 	0.4739	0.379	0.92746	-0.476
Mof_O 	O 	0.16702	0.65042	0.47254	-0.428
Mof_O 	O 	0.785	0.8542	0.212	-0.281
Mof_O 	O 	0.5166	0.16702	0.52746	-0.429
Mof_O 	O 	0.65042	0.16702	0.47254	-0.428
Mof_O 	O 	0.65042	0.16702	0.02746	-0.43
Mof_O 	O 	0.785	0.8542	0.288	-0.281
Mof_O 	O 	-1.40884e-18	0.0816	0.8001	0.295
Mof_O 	O 	0.16702	0.65042	0.02746	-0.43
Mof_O 	O 	0.5261	0.9051	0.92746	-0.415
Mof_O 	O 	0.9444	0.8815	0.75	-0.616
Mof_O 	O 	0.1185	0.0556	0.25	-0.673
Mof_O 	O 	0.5261	0.621	0.07254	-0.475
Mof_O 	O 	0.38	0.617	0.0022	-0.214
Mof_O 	O 	0.46117	0.40592	0.98998	-0.575
Mof_O 	O 	0.617	0.38	0.4978	-0.238
Mof_O 	O 	0.8236	0.9429	0.3101	-0.176
Mof_O 	O 	0.2189	0.068	0.7847	-0.543
Mof_O 	O 	0.5166	0.16702	0.97254	-0.42
Mof_O 	O 	0.05526	0.51171	0.54114	-0.591
Mof_O 	O 	0.6718	0	0.4832	0.759
Mof_O 	O 	0.16589	0.53761	0.04001	-0.442
Mof_O 	O 	-3.49392e-17	0.5039	0.899	-1.393
Mof_O 	O 	0.6641	0.0933	0.04524	-0.455
Mof_O 	O 	0.9444	0.0629	0.25	-0.606
Mof_O 	O 	-1.74294e-17	0.3556	0.4493	-1.736
Mof_O 	O 	0.4006	0.4006	0.4125	-0.741
Mof_O 	O 	0.3359	0.9067	0.95476	-0.408
Mof_O 	O 	-4.04063e-18	0.0816	0.6999	0.295
Mof_O 	O 	0.1818	0.1226	0.8054	-0.438
Mof_O 	O 	0.53761	0.16589	0.04001	-0.442
Mof_O 	O 	0.8236	0.8807	0.6899	-0.202
Mof_O 	O 	0.763	0.38	0.9978	-0.259
Mof_O 	O 	0.0741	4.0438e-33	0.157	-0.449
Mof_O 	O 	0.0316	0.9727	0.35	0.051
Mof_O 	O 	0.54355	0.05526	0.45886	-0.591
Mof_O 	O 	0.379	0.4739	0.92746	-0.476
Mof_O 	O 	0.5817	-2.0219e-33	0.0875	0.341
Mof_O 	O 	0.5994	1.61752e-32	0.4125	-0.716
Mof_O 	O 	0.237	0.617	0.9978	-0.259
Mof_O 	O 	0.9308	0.1458	0.212	-0.264
Mof_O 	O 	0.37172	0.53761	0.95999	-0.44
Mof_O 	O 	0.40592	0.94475	0.48998	-0.51
Mof_O 	O 	0.0816	0	0.8001	0.295
Mof_O 	O 	0.1226	0.1818	0.6946	-0.438
Mof_O 	O 	0.383	0.62	0.9978	-0.259
Mof_O 	O 	0.0316	0.0589	0.65	-0.085
Mof_O 	O 	0.9429	0.1193	0.6899	-0.169
Mof_O 	O 	0.3556	0	0.4493	-1.736
Mof_O 	O 	0.46117	0.05525	0.01002	-0.581
Mof_O 	O 	0.9411	0.9684	0.35	0.065
Mof_O 	O 	0.51171	0.45645	0.04114	-0.601
Mof_O 	O 	0.83411	0.46239	0.95999	-0.431
Mof_O 	O 	0.4739	0.0949	0.42746	-0.461
Mof_O 	O 	0.1185	0.0629	0.75	-0.691
Mof_O 	O 	0.0273	0.0589	0.15	-0.043
Mof_O 	O 	0.05526	0.51171	0.95886	-0.587
Mof_O 	O 	0.3788	0	0.399	-1.27
Mof_O 	O 	0.8815	0.9444	0.75	-0.616
Mof_O 	O 	0.3282	0	0.9832	0.682
Mof_O 	O 	0.9429	0.1193	0.8101	-0.169
Mof_O 	O 	0.5708	0.6641	0.95476	-0.466
Mof_O 	O 	0.0592	0.1818	0.1946	-0.436
Mof_O 	O 	0.8774	0.8182	0.1946	-0.45
Mof_O 	O 	0.5039	0.5039	0.101	-1.435
Mof_O 	O 	0.215	0.0692	0.288	-0.302
Mof_O 	O 	0.94475	0.53883	0.51002	-0.51
Mof_O 	O 	0.7811	0.932	0.2153	-0.493
Mof_O 	O 	0.3556	0.3556	0.5507	-1.737
Mof_O 	O 	-1.00353e-17	0.5817	0.4125	0.342
Mof_O 	O 	3.23504e-32	1.61752e-32	0.7188	-0.702
Mof_O 	O 	0.1193	0.9429	0.8101	-0.169
Mof_O 	O 	0.6647	0	0.0023	-1.459
Mof_O 	O 	0.4292	0.3359	0.04524	-0.473
Mof_O 	O 	-7.32282e-18	0.3788	0.399	-1.27
Mof_O 	O 	0.48829	0.54355	0.54114	-0.604
Mof_O 	O 	0.34958	0.83298	0.97254	-0.415
Mof_O 	O 	0.9727	0.0316	0.15	0.051
Mof_O 	O 	0.785	0.9308	0.788	-0.259
Mof_O 	O 	-5.91617e-17	0.9259	0.657	-0.499
Mof_O 	O 	0.6444	0.6444	0.4493	-1.739
Mof_O 	O 	0.1226	0.9408	0.3054	-0.384
Mof_O 	O 	0.3556	0.3556	0.9493	-1.756
Mof_O 	O 	0.9067	0.3359	0.54524	-0.411
Mof_F 	F 	-1.19458e-18	0.6508	0.3685	-0.516
Mof_F 	F 	-1.10398e-16	0.7098	0.912	3.453
Mof_F 	F 	0.2902	1.61752e-32	0.412	3.458
Mof_F 	F 	0.2902	0.2902	0.588	3.418
Mof_F 	F 	0.3492	0	0.6315	-0.516
Mof_F 	F 	0.7098	0	0.588	3.456
Mof_F 	F 	0.3492	0.3492	0.1315	-0.496
Mof_F 	F 	0.6508	0.6508	0.8685	-0.495
Mof_F 	F 	-2.81465e-17	0.2902	0.412	3.458
Mof_F 	F 	-1.76815e-17	0.2902	0.088	3.461
Mof_F 	F 	0.6508	0.6508	0.6315	-0.495
Mof_F 	F 	0.7098	-3.23504e-32	0.912	3.453
Mof_F 	F 	0.3492	0.3492	0.3685	-0.496
Mof_F 	F 	-4.52978e-17	0.7098	0.588	3.456
Mof_F 	F 	7.6124e-18	0.3492	0.8685	-0.516
Mof_F 	F 	0.2902	0	0.088	3.461
Mof_F 	F 	-6.28451e-17	0.6508	0.1315	-0.516
Mof_F 	F 	-1.76148e-17	0.3492	0.6315	-0.516
Mof_F 	F 	0.3492	0	0.8685	-0.516
Mof_F 	F 	0.7098	0.7098	0.088	3.415
Mof_F 	F 	0.2902	0.2902	0.912	3.415
Mof_F 	F 	0.6508	0	0.1315	-0.516
Mof_F 	F 	0.6508	0	0.3685	-0.516
Mof_F 	F 	0.7098	0.7098	0.412	3.412
_end
