data_functionalizedCrystal
_audit_creation_method	'EQeq! by Chris Wilmer'
_symmetry_space_group_name_H-M	'P1'
_symmetry_Int_Tables_number	1
_symmetry_cell_setting	triclinic
loop_
_symmetry_equiv_pos_as_xyz
  x,y,z
_cell_length_a	18.2591
_cell_length_b	18.2591
_cell_length_c	6.6274
_cell_angle_alpha	90
_cell_angle_beta	90
_cell_angle_gamma	120
loop_
_atom_site_label
_atom_site_type_symbol
_atom_site_fract_x
_atom_site_fract_y
_atom_site_fract_z
_atom_site_charge
Mof_O 	O 	0.4384	0.4121	0.2572	-0.41
Mof_O 	O 	0.4812	0.3715	0.989	-0.387
Mof_O 	O 	0.295	0.0857	0.809	-0.21
Mof_C 	C 	0.4478	0.359	0.162	0.354
Mof_C 	C 	0.422	0.2763	0.261	-0.119
Mof_C 	C 	0.3811	0.2562	0.446	0.029
Mof_C 	C 	0.2519	0.0578	0.997	-0.139
Mof_H 	H 	0.368	0.2958	0.5112	0.052
Mof_H 	H 	0.2812	0.0941	0.1049	0.073
Mof_H 	H 	0.1956	0.0523	0.9906	0.061
Mof_O 	O 	0.5879	0.0263	0.2572	-0.419
Mof_O 	O 	0.6285	0.1097	0.989	-0.389
Mof_O 	O 	0.9143	0.2093	0.809	-0.201
Mof_C 	C 	0.641	0.0888	0.162	0.355
Mof_C 	C 	0.7237	0.1457	0.261	-0.12
Mof_C 	C 	0.7438	0.1249	0.446	0.038
Mof_C 	C 	0.9422	0.1941	0.997	-0.194
Mof_H 	H 	0.7042	0.0722	0.5112	0.048
Mof_H 	H 	0.9059	0.1871	0.1049	0.098
Mof_H 	H 	0.9477	0.1433	0.9906	0.092
Mof_O 	O 	0.9737	0.5616	0.2572	-0.398
Mof_O 	O 	0.8903	0.5188	0.989	-0.383
Mof_O 	O 	0.7907	0.705	0.809	-0.135
Mof_C 	C 	0.9112	0.5522	0.162	0.351
Mof_C 	C 	0.8543	0.578	0.261	-0.109
Mof_C 	C 	0.8751	0.6189	0.446	0.023
Mof_C 	C 	0.8059	0.7481	0.997	-0.541
Mof_H 	H 	0.9278	0.632	0.5112	0.061
Mof_H 	H 	0.8129	0.7188	0.1049	0.209
Mof_H 	H 	0.8567	0.8044	0.9906	0.185
Mof_O 	O 	0.4121	0.4384	0.7428	-0.417
Mof_O 	O 	0.3715	0.4812	0.011	-0.43
Mof_O 	O 	0.0857	0.295	0.191	-0.168
Mof_C 	C 	0.359	0.4478	0.838	0.405
Mof_C 	C 	0.2763	0.422	0.739	-0.134
Mof_C 	C 	0.2562	0.3811	0.554	0.032
Mof_C 	C 	0.0578	0.2519	0.003	-0.362
Mof_H 	H 	0.2958	0.368	0.4888	0.049
Mof_H 	H 	0.0941	0.2812	0.8951	0.165
Mof_H 	H 	0.0523	0.1956	0.0094	0.108
Mof_O 	O 	0.0263	0.5879	0.7428	-0.427
Mof_O 	O 	0.1097	0.6285	0.011	-0.431
Mof_O 	O 	0.2093	0.9143	0.191	-0.186
Mof_C 	C 	0.0888	0.641	0.838	0.405
Mof_C 	C 	0.1457	0.7237	0.739	-0.136
Mof_C 	C 	0.1249	0.7438	0.554	0.04
Mof_C 	C 	0.1941	0.9422	0.003	-0.25
Mof_H 	H 	0.0722	0.7042	0.4888	0.045
Mof_H 	H 	0.1871	0.9059	0.8951	0.134
Mof_H 	H 	0.1433	0.9477	0.0094	0.091
Mof_O 	O 	0.5616	0.9737	0.7428	-0.406
Mof_O 	O 	0.5188	0.8903	0.011	-0.424
Mof_O 	O 	0.705	0.7907	0.191	-0.112
Mof_C 	C 	0.5522	0.9112	0.838	0.402
Mof_C 	C 	0.578	0.8543	0.739	-0.125
Mof_C 	C 	0.6189	0.8751	0.554	0.031
Mof_C 	C 	0.7481	0.8059	0.003	-0.685
Mof_H 	H 	0.632	0.9278	0.4888	0.058
Mof_H 	H 	0.7188	0.8129	0.8951	0.277
Mof_H 	H 	0.8044	0.8567	0.0094	0.212
Mof_O 	O 	0.5616	0.5879	0.7428	-0.417
Mof_O 	O 	0.5188	0.6285	0.011	-0.43
Mof_O 	O 	0.705	0.9143	0.191	-0.175
Mof_C 	C 	0.5522	0.641	0.838	0.404
Mof_C 	C 	0.578	0.7237	0.739	-0.132
Mof_C 	C 	0.6189	0.7438	0.554	0.029
Mof_C 	C 	0.7481	0.9422	0.003	-0.262
Mof_H 	H 	0.632	0.7042	0.4888	0.05
Mof_H 	H 	0.7188	0.9059	0.8951	0.136
Mof_H 	H 	0.8044	0.9477	0.0094	0.092
Mof_O 	O 	0.4121	0.9737	0.7428	-0.406
Mof_O 	O 	0.3715	0.8903	0.011	-0.424
Mof_O 	O 	0.0857	0.7907	0.191	-0.167
Mof_C 	C 	0.359	0.9112	0.838	0.403
Mof_C 	C 	0.2763	0.8543	0.739	-0.13
Mof_C 	C 	0.2562	0.8751	0.554	0.04
Mof_C 	C 	0.0578	0.8059	0.003	-0.415
Mof_H 	H 	0.2958	0.9278	0.4888	0.055
Mof_H 	H 	0.0941	0.8129	0.8951	0.186
Mof_H 	H 	0.0523	0.8567	0.0094	0.132
Mof_O 	O 	0.0263	0.4384	0.7428	-0.427
Mof_O 	O 	0.1097	0.4812	0.011	-0.431
Mof_O 	O 	0.2093	0.295	0.191	-0.122
Mof_C 	C 	0.0888	0.4478	0.838	0.406
Mof_C 	C 	0.1457	0.422	0.739	-0.133
Mof_C 	C 	0.1249	0.3811	0.554	0.035
Mof_C 	C 	0.1941	0.2519	0.003	-0.629
Mof_H 	H 	0.0722	0.368	0.4888	0.047
Mof_H 	H 	0.1871	0.2812	0.8951	0.257
Mof_H 	H 	0.1433	0.1956	0.0094	0.19
Mof_O 	O 	0.5879	0.5616	0.2572	-0.408
Mof_O 	O 	0.6285	0.5188	0.989	-0.387
Mof_O 	O 	0.9143	0.705	0.809	-0.178
Mof_C 	C 	0.641	0.5522	0.162	0.352
Mof_C 	C 	0.7237	0.578	0.261	-0.114
Mof_C 	C 	0.7438	0.6189	0.446	0.021
Mof_C 	C 	0.9422	0.7481	0.997	-0.248
Mof_H 	H 	0.7042	0.632	0.5112	0.054
Mof_H 	H 	0.9059	0.7188	0.1049	0.112
Mof_H 	H 	0.9477	0.8044	0.9906	0.103
Mof_O 	O 	0.9737	0.4121	0.2572	-0.398
Mof_O 	O 	0.8903	0.3715	0.989	-0.383
Mof_O 	O 	0.7907	0.0857	0.809	-0.216
Mof_C 	C 	0.9112	0.359	0.162	0.353
Mof_C 	C 	0.8543	0.2763	0.261	-0.116
Mof_C 	C 	0.8751	0.2562	0.446	0.036
Mof_C 	C 	0.8059	0.0578	0.997	-0.147
Mof_H 	H 	0.9278	0.2958	0.5112	0.057
Mof_H 	H 	0.8129	0.0941	0.1049	0.079
Mof_H 	H 	0.8567	0.0523	0.9906	0.071
Mof_O 	O 	0.4384	0.0263	0.2572	-0.418
Mof_O 	O 	0.4812	0.1097	0.989	-0.389
Mof_O 	O 	0.295	0.2093	0.809	-0.151
Mof_C 	C 	0.4478	0.0888	0.162	0.355
Mof_C 	C 	0.422	0.1457	0.261	-0.118
Mof_C 	C 	0.3811	0.1249	0.446	0.033
Mof_C 	C 	0.2519	0.1941	0.997	-0.486
Mof_H 	H 	0.368	0.0722	0.5112	0.05
Mof_H 	H 	0.2812	0.1871	0.1049	0.191
Mof_H 	H 	0.1956	0.1433	0.9906	0.166
Mof_Cu	Cu	0.47513	0.52487	0.1565	0.916
Mof_Cu	Cu	0.47513	0.95026	0.1565	0.924
Mof_Cu	Cu	0.04974	0.52487	0.1565	0.91
Mof_Cu	Cu	0.52487	0.47513	0.8435	0.92
Mof_Cu	Cu	0.95026	0.47513	0.8435	0.928
Mof_Cu	Cu	0.52487	0.04974	0.8435	0.914
Mof_C 	C 	0.3584	0.1792	0.536	-0.082
Mof_C 	C 	0.4404	0.2202	0.169	0.051
Mof_C 	C 	0.3148	0.1574	0.73	0.237
Mof_H 	H 	0.4692	0.2346	0.0447	0.041
Mof_C 	C 	0.8208	0.1792	0.536	-0.088
Mof_C 	C 	0.7798	0.2202	0.169	0.053
Mof_C 	C 	0.8426	0.1574	0.73	0.262
Mof_H 	H 	0.7654	0.2346	0.0447	0.039
Mof_C 	C 	0.8208	0.6416	0.536	-0.069
Mof_C 	C 	0.7798	0.5596	0.169	0.043
Mof_C 	C 	0.8426	0.6852	0.73	0.221
Mof_H 	H 	0.7654	0.5308	0.0447	0.043
Mof_C 	C 	0.1792	0.3584	0.464	-0.078
Mof_C 	C 	0.2202	0.4404	0.831	0.066
Mof_C 	C 	0.1574	0.3148	0.27	0.203
Mof_H 	H 	0.2346	0.4692	0.9553	0.053
Mof_C 	C 	0.1792	0.8208	0.464	-0.086
Mof_C 	C 	0.2202	0.7798	0.831	0.069
Mof_C 	C 	0.1574	0.8426	0.27	0.231
Mof_H 	H 	0.2346	0.7654	0.9553	0.051
Mof_C 	C 	0.6416	0.8208	0.464	-0.073
Mof_C 	C 	0.5596	0.7798	0.831	0.062
Mof_C 	C 	0.6852	0.8426	0.27	0.205
Mof_H 	H 	0.5308	0.7654	0.9553	0.054
Mof_H 	H 	0.2408	0	-0	0.171
Mof_H 	H 	1.48531e-17	0.2408	-0	0.227
Mof_H 	H 	0.7592	0.7592	-0	0.452
Mof_H 	H 	0.7592	0	-0	0.177
Mof_H 	H 	-5.94125e-17	0.7592	-0	0.263
Mof_H 	H 	0.2408	0.2408	-0	0.416
_end
