data_functionalizedCrystal
_audit_creation_method	'EQeq! by Chris Wilmer'
_symmetry_space_group_name_H-M	'P1'
_symmetry_Int_Tables_number	1
_symmetry_cell_setting	triclinic
loop_
_symmetry_equiv_pos_as_xyz
  x,y,z
_cell_length_a	12.5247
_cell_length_b	32.2184
_cell_length_c	7.6101
_cell_angle_alpha	90
_cell_angle_beta	98.856
_cell_angle_gamma	90
loop_
_atom_site_label
_atom_site_type_symbol
_atom_site_fract_x
_atom_site_fract_y
_atom_site_fract_z
_atom_site_charge
Mof_Tb	Tb	0.97132	0.61501	0.18995	1.689
Mof_O 	O 	0.1316	0.5916	0.0969	-0.433
Mof_O 	O 	0.8147	0.5839	0.276	-0.463
Mof_Cd	Cd	0.47213	0.55056	0.18983	0.487
Mof_N 	N 	0.5484	0.6021	0.0378	-0.141
Mof_Cd	Cd	0.07574	0.76239	0.44372	0.485
Mof_N 	N 	0.5753	0.6689	0.983	-0.129
Mof_Cl	Cl	0.9725	0.73319	0.6643	-0.42
Mof_C 	C 	0.2963	0.6195	0.2537	-0.035
Mof_C 	C 	0.65	0.6119	0.1157	-0.039
Mof_C 	C 	0.2735	0.6597	0.2969	-0.012
Mof_C 	C 	0.7101	0.6168	0.6667	0.085
Mof_H 	H 	0.7459	0.5932	0.7152	0.011
Mof_C 	C 	0.6672	0.6536	0.0814	-0.055
Mof_C 	C 	0.4433	0.6444	0.4005	0.116
Mof_C 	C 	0.2432	0.6081	0.6842	0.09
Mof_H 	H 	0.2123	0.5856	0.6189	0.008
Mof_C 	C 	0.5068	0.6371	0.9605	0.116
Mof_C 	C 	0.7582	0.683	0.139	0.358
Mof_C 	C 	0.7148	0.5808	0.2278	0.332
Mof_N 	N 	0.7632	0.6528	0.6802	-0.136
Mof_N 	N 	0.1835	0.6419	0.6901	-0.135
Mof_C 	C 	0.2303	0.586	0.1447	0.345
Mof_C 	C 	0.7135	0.6865	0.6015	0.067
Mof_H 	H 	0.7499	0.7117	0.6134	0.049
Mof_C 	C 	0.3975	0.6394	0.8656	0.041
Mof_C 	C 	0.5551	0.6482	0.4953	0.044
Mof_C 	C 	0.2275	0.6746	0.7806	0.077
Mof_H 	H 	0.1854	0.6982	0.788	0.049
Mof_O 	O 	0.6615	0.5491	0.2728	-0.26
Mof_C 	C 	0.6096	0.6854	0.5027	-0.123
Mof_H 	H 	0.5787	0.7089	0.4444	0.097
Mof_C 	C 	0.3501	0.6043	0.7705	-0.115
Mof_H 	H 	0.3885	0.5797	0.7656	0.106
Mof_O 	O 	0.7394	0.7213	0.126	-0.282
Mof_C 	C 	0.3332	0.6748	0.8637	-0.112
Mof_H 	H 	0.3623	0.6989	0.9193	0.091
Mof_C 	C 	0.6061	0.613	0.5853	-0.128
Mof_H 	H 	0.5691	0.588	0.5882	0.106
Mof_O 	O 	0.9031	0.5625	0.9829	-0.558
Mof_H 	H 	0.8839	0.5363	0.0209	0.185
Mof_H 	H 	0.8372	0.5723	0.0051	0.139
Mof_N 	N 	0.3686	0.6742	0.3897	-0.196
Mof_H 	H 	0.3786	0.6987	0.434	0.152
Mof_N 	N 	0.4026	0.6103	0.3175	-0.128
Mof_C 	C 	0.1756	0.6869	0.2727	0.356
Mof_Cl	Cl	0.4578	0.48724	0.9888	-0.341
Mof_O 	O 	0.1956	0.7233	0.3326	-0.282
Mof_O 	O 	0.8512	0.6688	0.1991	-0.47
Mof_O 	O 	0.0868	0.674	0.2048	-0.427
Mof_O 	O 	0.2818	0.5541	0.1082	-0.26
Mof_Tb	Tb	0.47132	0.11501	0.18995	1.82
Mof_O 	O 	0.6316	0.0916	0.0969	-0.478
Mof_O 	O 	0.3147	0.0839	0.276	-0.472
Mof_Cd	Cd	0.97213	0.05056	0.18983	0.445
Mof_N 	N 	0.0484	0.1021	0.0378	-0.132
Mof_Cd	Cd	0.57574	0.26239	0.44372	0.441
Mof_N 	N 	0.0753	0.1689	0.983	-0.136
Mof_Cl	Cl	0.4725	0.23319	0.6643	-0.371
Mof_C 	C 	0.7963	0.1195	0.2537	-0.041
Mof_C 	C 	0.15	0.1119	0.1157	-0.035
Mof_C 	C 	0.7735	0.1597	0.2969	-0.023
Mof_C 	C 	0.2101	0.1168	0.6667	0.116
Mof_H 	H 	0.2459	0.0932	0.7152	0.004
Mof_C 	C 	0.1672	0.1536	0.0814	-0.054
Mof_C 	C 	0.9433	0.1444	0.4005	0.037
Mof_C 	C 	0.7432	0.1081	0.6842	0.07
Mof_H 	H 	0.7123	0.0856	0.6189	0.003
Mof_C 	C 	0.0068	0.1371	0.9605	0.189
Mof_C 	C 	0.2582	0.183	0.139	0.362
Mof_C 	C 	0.2148	0.0808	0.2278	0.335
Mof_N 	N 	0.2632	0.1528	0.6802	-0.146
Mof_N 	N 	0.6835	0.1419	0.6901	-0.14
Mof_C 	C 	0.7303	0.086	0.1447	0.353
Mof_C 	C 	0.2135	0.1865	0.6015	0.098
Mof_H 	H 	0.2499	0.2117	0.6134	0.04
Mof_C 	C 	0.8975	0.1394	0.8656	-0.042
Mof_C 	C 	0.0551	0.1482	0.4953	0.143
Mof_C 	C 	0.7275	0.1746	0.7806	0.053
Mof_H 	H 	0.6854	0.1982	0.788	0.047
Mof_O 	O 	0.1615	0.0491	0.2728	-0.237
Mof_C 	C 	0.1096	0.1854	0.5027	-0.178
Mof_H 	H 	0.0787	0.2089	0.4444	0.135
Mof_C 	C 	0.8501	0.1043	0.7705	-0.078
Mof_H 	H 	0.8885	0.0797	0.7656	0.082
Mof_O 	O 	0.2394	0.2213	0.126	-0.276
Mof_C 	C 	0.8332	0.1748	0.8637	-0.07
Mof_H 	H 	0.8623	0.1989	0.9193	0.065
Mof_C 	C 	0.1061	0.113	0.5853	-0.181
Mof_H 	H 	0.0691	0.088	0.5882	0.146
Mof_O 	O 	0.4031	0.0625	0.9829	-0.562
Mof_H 	H 	0.3839	0.0363	0.0209	0.196
Mof_H 	H 	0.3372	0.0723	0.0051	0.139
Mof_N 	N 	0.8686	0.1742	0.3897	-0.18
Mof_H 	H 	0.8786	0.1987	0.434	0.135
Mof_N 	N 	0.9026	0.1103	0.3175	-0.124
Mof_C 	C 	0.6756	0.1869	0.2727	0.365
Mof_Cl	Cl	0.9578	0.98724	0.9888	-0.366
Mof_O 	O 	0.6956	0.2233	0.3326	-0.291
Mof_O 	O 	0.3512	0.1688	0.1991	-0.473
Mof_O 	O 	0.5868	0.174	0.2048	-0.473
Mof_O 	O 	0.7818	0.0541	0.1082	-0.27
Mof_Tb	Tb	0.97132	0.38499	0.68995	1.723
Mof_O 	O 	0.1316	0.4084	0.5969	-0.431
Mof_O 	O 	0.8147	0.4161	0.776	-0.464
Mof_Cd	Cd	0.47213	0.44944	0.68983	0.496
Mof_N 	N 	0.5484	0.3979	0.5378	-0.131
Mof_Cd	Cd	0.07574	0.23761	0.94372	0.497
Mof_N 	N 	0.5753	0.3311	0.483	-0.138
Mof_Cl	Cl	0.9725	0.26681	0.1643	-0.436
Mof_C 	C 	0.2963	0.3805	0.7537	-0.031
Mof_C 	C 	0.65	0.3881	0.6157	-0.041
Mof_C 	C 	0.2735	0.3403	0.7969	-0.009
Mof_C 	C 	0.7101	0.3832	0.1667	0.113
Mof_H 	H 	0.7459	0.4068	0.2152	-0.006
Mof_C 	C 	0.6672	0.3464	0.5814	-0.038
Mof_C 	C 	0.4433	0.3556	0.9005	0.098
Mof_C 	C 	0.2432	0.3919	0.1842	0.087
Mof_H 	H 	0.2123	0.4144	0.1189	0.002
Mof_C 	C 	0.5068	0.3629	0.4605	0.098
Mof_C 	C 	0.7582	0.317	0.639	0.357
Mof_C 	C 	0.7148	0.4192	0.7278	0.335
Mof_N 	N 	0.7632	0.3472	0.1802	-0.155
Mof_N 	N 	0.1835	0.3581	0.1901	-0.14
Mof_C 	C 	0.2303	0.414	0.6447	0.348
Mof_C 	C 	0.7135	0.3135	0.1015	0.109
Mof_H 	H 	0.7499	0.2883	0.1134	0.029
Mof_C 	C 	0.3975	0.3606	0.3656	0.042
Mof_C 	C 	0.5551	0.3518	0.9953	0.122
Mof_C 	C 	0.2275	0.3254	0.2806	0.074
Mof_H 	H 	0.1854	0.3018	0.288	0.046
Mof_O 	O 	0.6615	0.4509	0.7728	-0.255
Mof_C 	C 	0.6096	0.3146	0.0027	-0.222
Mof_H 	H 	0.5787	0.2911	0.9444	0.143
Mof_C 	C 	0.3501	0.3957	0.2705	-0.121
Mof_H 	H 	0.3885	0.4203	0.2656	0.102
Mof_O 	O 	0.7394	0.2787	0.626	-0.272
Mof_C 	C 	0.3332	0.3252	0.3637	-0.117
Mof_H 	H 	0.3623	0.3011	0.4193	0.088
Mof_C 	C 	0.6061	0.387	0.0853	-0.192
Mof_H 	H 	0.5691	0.412	0.0882	0.12
Mof_O 	O 	0.9031	0.4375	0.4829	-0.609
Mof_H 	H 	0.8839	0.4637	0.5209	0.21
Mof_H 	H 	0.8372	0.4277	0.5051	0.162
Mof_N 	N 	0.3686	0.3258	0.8897	-0.191
Mof_H 	H 	0.3786	0.3013	0.934	0.154
Mof_N 	N 	0.4026	0.3897	0.8175	-0.123
Mof_C 	C 	0.1756	0.3131	0.7727	0.359
Mof_Cl	Cl	0.4578	0.51276	0.4888	-0.356
Mof_O 	O 	0.1956	0.2767	0.8326	-0.279
Mof_O 	O 	0.8512	0.3312	0.6991	-0.468
Mof_O 	O 	0.0868	0.326	0.7048	-0.427
Mof_O 	O 	0.2818	0.4459	0.6082	-0.254
Mof_Tb	Tb	0.47132	0.88499	0.68995	1.848
Mof_O 	O 	0.6316	0.9084	0.5969	-0.474
Mof_O 	O 	0.3147	0.9161	0.776	-0.471
Mof_Cd	Cd	0.97213	0.94944	0.68983	0.457
Mof_N 	N 	0.0484	0.8979	0.5378	-0.123
Mof_Cd	Cd	0.57574	0.73761	0.94372	0.455
Mof_N 	N 	0.0753	0.8311	0.483	-0.143
Mof_Cl	Cl	0.4725	0.76681	0.1643	-0.384
Mof_C 	C 	0.7963	0.8805	0.7537	-0.037
Mof_C 	C 	0.15	0.8881	0.6157	-0.037
Mof_C 	C 	0.7735	0.8403	0.7969	-0.019
Mof_C 	C 	0.2101	0.8832	0.1667	0.138
Mof_H 	H 	0.2459	0.9068	0.2152	-0.01
Mof_C 	C 	0.1672	0.8464	0.5814	-0.04
Mof_C 	C 	0.9433	0.8556	0.9005	0.028
Mof_C 	C 	0.7432	0.8919	0.1842	0.065
Mof_H 	H 	0.7123	0.9144	0.1189	-0.003
Mof_C 	C 	0.0068	0.8629	0.4605	0.178
Mof_C 	C 	0.2582	0.817	0.639	0.361
Mof_C 	C 	0.2148	0.9192	0.7278	0.338
Mof_N 	N 	0.2632	0.8472	0.1802	-0.161
Mof_N 	N 	0.6835	0.8581	0.1901	-0.144
Mof_C 	C 	0.7303	0.914	0.6447	0.355
Mof_C 	C 	0.2135	0.8135	0.1015	0.131
Mof_H 	H 	0.2499	0.7883	0.1134	0.024
Mof_C 	C 	0.8975	0.8606	0.3656	-0.048
Mof_C 	C 	0.0551	0.8518	0.9953	0.2
Mof_C 	C 	0.7275	0.8254	0.2806	0.047
Mof_H 	H 	0.6854	0.8018	0.288	0.044
Mof_O 	O 	0.1615	0.9509	0.7728	-0.233
Mof_C 	C 	0.1096	0.8146	0.0027	-0.256
Mof_H 	H 	0.0787	0.7911	0.9444	0.17
Mof_C 	C 	0.8501	0.8957	0.2705	-0.082
Mof_H 	H 	0.8885	0.9203	0.2656	0.077
Mof_O 	O 	0.2394	0.7787	0.626	-0.267
Mof_C 	C 	0.8332	0.8252	0.3637	-0.072
Mof_H 	H 	0.8623	0.8011	0.4193	0.06
Mof_C 	C 	0.1061	0.887	0.0853	-0.229
Mof_H 	H 	0.0691	0.912	0.0882	0.155
Mof_O 	O 	0.4031	0.9375	0.4829	-0.606
Mof_H 	H 	0.3839	0.9637	0.5209	0.217
Mof_H 	H 	0.3372	0.9277	0.5051	0.159
Mof_N 	N 	0.8686	0.8258	0.8897	-0.177
Mof_H 	H 	0.8786	0.8013	0.934	0.139
Mof_N 	N 	0.9026	0.8897	0.8175	-0.12
Mof_C 	C 	0.6756	0.8131	0.7727	0.368
Mof_Cl	Cl	0.9578	0.01276	0.4888	-0.383
Mof_O 	O 	0.6956	0.7767	0.8326	-0.287
Mof_O 	O 	0.3512	0.8312	0.6991	-0.471
Mof_O 	O 	0.5868	0.826	0.7048	-0.472
Mof_O 	O 	0.7818	0.9459	0.6082	-0.264
_end
