data_functionalizedCrystal
_audit_creation_method	'EQeq! by Chris Wilmer'
_symmetry_space_group_name_H-M	'P1'
_symmetry_Int_Tables_number	1
_symmetry_cell_setting	triclinic
loop_
_symmetry_equiv_pos_as_xyz
  x,y,z
_cell_length_a	20.4029
_cell_length_b	17.331
_cell_length_c	38.6793
_cell_angle_alpha	90
_cell_angle_beta	91.038
_cell_angle_gamma	90
loop_
_atom_site_label
_atom_site_type_symbol
_atom_site_fract_x
_atom_site_fract_y
_atom_site_fract_z
_atom_site_charge
Mof_Br	Br	0.57316	0.3469	0.60709	-0.196
Mof_Br	Br	0.43298	0.67064	0.64985	-0.182
Mof_Br	Br	0.58235	0.62621	0.68045	-0.206
Mof_Br	Br	0.95296	0.31562	0.62378	-0.195
Mof_Br	Br	0.05093	0.67333	0.62129	-0.194
Mof_Br	Br	0.11161	0.35849	0.62752	-0.196
Mof_Br	Br	0.89141	0.6308	0.62441	-0.195
Mof_Br	Br	0.4258	0.39326	0.57555	-0.211
Mof_Co	Co	0.25287	0.57651	0.58626	1.158
Mof_Co	Co	0.75027	0.43134	0.67051	1.159
Mof_N 	N 	0.2469	0.689	0.5991	-0.243
Mof_N 	N 	0.7556	0.1847	0.825	-0.243
Mof_O 	O 	0.6326	0.4294	0.68208	-0.34
Mof_N 	N 	0.2325	0.0467	0.5203	-0.095
Mof_O 	O 	0.1654	0.5316	0.59431	-0.429
Mof_O 	O 	0.6852	0.487	0.64023	-0.41
Mof_O 	O 	0.3255	0.5263	0.61206	-0.422
Mof_O 	O 	0.8309	0.4474	0.5998	-0.295
Mof_O 	O 	0.3761	0.597	0.57356	-0.329
Mof_C 	C 	0.9555	0.5527	0.6237	0.11
Mof_C 	C 	0.1136	0.8475	0.5643	-0.053
Mof_H 	H 	0.1242	0.7987	0.5727	0.08
Mof_C 	C 	0.0477	0.437	0.6255	0.111
Mof_N 	N 	0.7354	0.5113	0.7713	-0.096
Mof_O 	O 	0.1698	0.5473	0.6514	-0.293
Mof_C 	C 	0.022	0.5698	0.6235	0.108
Mof_C 	C 	0.3769	0.5539	0.5978	0.369
Mof_N 	N 	0.2557	0.0591	0.4652	-0.24
Mof_O 	O 	0.8403	0.4549	0.65697	-0.439
Mof_C 	C 	0.9812	0.4195	0.6252	0.107
Mof_C 	C 	0.2502	0.7472	0.5774	0.106
Mof_H 	H 	0.259	0.742	0.554	-0.003
Mof_C 	C 	0.232	0.8904	0.5764	-0.112
Mof_H 	H 	0.2612	0.8934	0.5569	0.089
Mof_H 	H 	0.2446	0.9304	0.5928	0.097
Mof_C 	C 	0.9346	0.4773	0.6252	-0.118
Mof_C 	C 	0.0521	0.8621	0.5529	-0.028
Mof_H 	H 	0.0205	0.8235	0.5537	0.076
Mof_C 	C 	0.5382	0.5611	0.649	0.107
Mof_C 	C 	0.4756	0.5789	0.636	0.102
Mof_C 	C 	0.4729	0.4611	0.6051	0.101
Mof_C 	C 	0.6325	0.4673	0.6554	0.357
Mof_N 	N 	0.2391	0.8149	0.593	-0.097
Mof_C 	C 	0.6398	0.4755	0.806	0.049
Mof_N 	N 	0.7361	0.3094	0.8297	-0.097
Mof_C 	C 	0.568	0.492	0.6399	-0.12
Mof_C 	C 	0.5268	0.4443	0.7928	-0.012
Mof_H 	H 	0.4865	0.457	0.7827	0.059
Mof_N 	N 	0.7598	0.4746	0.719	-0.24
Mof_C 	C 	0.594	0.3556	0.8238	-0.067
Mof_H 	H 	0.599	0.3077	0.8343	0.091
Mof_C 	C 	0.0687	0.5121	0.6244	-0.119
Mof_C 	C 	0.0355	0.9348	0.5401	0.003
Mof_H 	H 	0.9931	0.9446	0.5319	0.055
Mof_C 	C 	0.4423	0.5307	0.614	-0.115
Mof_C 	C 	0.1443	0.9786	0.5516	0.061
Mof_C 	C 	0.2088	0.061	0.4887	0.091
Mof_H 	H 	0.165	0.0711	0.4836	0.017
Mof_C 	C 	0.162	0.905	0.5637	0.036
Mof_C 	C 	0.6954	0.5323	0.8015	-0.13
Mof_H 	H 	0.6775	0.5838	0.7982	0.099
Mof_H 	H 	0.7229	0.5328	0.8222	0.095
Mof_C 	C 	0.1414	0.5312	0.6239	0.389
Mof_C 	C 	0.5344	0.4437	0.618	0.099
Mof_C 	C 	0.801	0.5185	0.7685	-0.01
Mof_H 	H 	0.8304	0.536	0.7854	0.074
Mof_C 	C 	0.2271	0.7983	0.6264	0.012
Mof_H 	H 	0.2171	0.8337	0.6436	0.066
Mof_C 	C 	0.7282	0.2397	0.8429	0.11
Mof_H 	H 	0.7052	0.2306	0.863	0.011
Mof_C 	C 	0.3115	0.0418	0.4834	0.023
Mof_H 	H 	0.3527	0.0354	0.474	0.042
Mof_C 	C 	0.7105	0.3835	0.8415	-0.121
Mof_H 	H 	0.7021	0.3805	0.866	0.102
Mof_H 	H 	0.7434	0.4231	0.8381	0.095
Mof_C 	C 	0.1933	0.0447	0.5516	-0.139
Mof_H 	H 	0.1699	0.0931	0.5537	0.103
Mof_H 	H 	0.2224	0.0398	0.5716	0.102
Mof_C 	C 	0.082	0.9918	0.5396	-0.087
Mof_H 	H 	0.0709	0.0403	0.531	0.086
Mof_C 	C 	0.2322	0.7223	0.6303	0.033
Mof_H 	H 	0.2266	0.6958	0.6509	0.042
Mof_C 	C 	0.6475	0.4069	0.8223	0.045
Mof_C 	C 	0.5785	0.4929	0.7911	-0.079
Mof_H 	H 	0.5731	0.5396	0.7796	0.087
Mof_C 	C 	0.7121	0.4851	0.7414	0.091
Mof_H 	H 	0.6681	0.4752	0.7367	0.018
Mof_C 	C 	0.5355	0.3763	0.8098	-0.019
Mof_H 	H 	0.5001	0.343	0.8118	0.072
Mof_C 	C 	0.8156	0.4947	0.7356	0.028
Mof_H 	H 	0.8573	0.4928	0.7263	0.038
Mof_C 	C 	0.8611	0.4576	0.6266	0.405
Mof_C 	C 	0.7825	0.2224	0.7972	0.018
Mof_H 	H 	0.8048	0.1983	0.7795	0.025
Mof_C 	C 	0.772	0.2997	0.7994	-0.001
Mof_H 	H 	0.7856	0.3378	0.7842	0.047
Mof_C 	C 	0.2975	0.0352	0.5177	-0.007
Mof_H 	H 	0.3271	0.0249	0.5356	0.069
Mof_Br	Br	0.92684	0.8469	0.39291	-0.196
Mof_Br	Br	0.06702	0.17064	0.35015	-0.182
Mof_Br	Br	0.91765	0.12621	0.31955	-0.206
Mof_Br	Br	0.54704	0.81562	0.37622	-0.195
Mof_Br	Br	0.44907	0.17333	0.37871	-0.194
Mof_Br	Br	0.38839	0.85849	0.37248	-0.196
Mof_Br	Br	0.60859	0.1308	0.37559	-0.195
Mof_Br	Br	0.0742	0.89326	0.42445	-0.211
Mof_Co	Co	0.24713	0.07651	0.41374	1.158
Mof_Co	Co	0.74973	0.93134	0.32949	1.159
Mof_N 	N 	0.2531	0.189	0.4009	-0.243
Mof_N 	N 	0.7444	0.6847	0.175	-0.243
Mof_O 	O 	0.8674	0.9294	0.31792	-0.34
Mof_N 	N 	0.2675	0.5467	0.4797	-0.095
Mof_O 	O 	0.3346	0.0316	0.40569	-0.429
Mof_O 	O 	0.8148	0.987	0.35977	-0.41
Mof_O 	O 	0.1745	0.0263	0.38794	-0.421
Mof_O 	O 	0.6691	0.9474	0.4002	-0.295
Mof_O 	O 	0.1239	0.097	0.42644	-0.329
Mof_C 	C 	0.5445	0.0527	0.3763	0.11
Mof_C 	C 	0.3864	0.3475	0.4357	-0.052
Mof_H 	H 	0.3758	0.2987	0.4273	0.08
Mof_C 	C 	0.4523	0.937	0.3745	0.11
Mof_N 	N 	0.7646	0.0113	0.2287	-0.096
Mof_O 	O 	0.3302	0.0473	0.3486	-0.293
Mof_C 	C 	0.478	0.0698	0.3765	0.108
Mof_C 	C 	0.1231	0.0539	0.4022	0.368
Mof_N 	N 	0.2443	0.5591	0.5348	-0.24
Mof_O 	O 	0.6597	0.9549	0.34303	-0.439
Mof_C 	C 	0.5188	0.9195	0.3748	0.107
Mof_C 	C 	0.2498	0.2472	0.4226	0.106
Mof_H 	H 	0.241	0.242	0.446	-0.003
Mof_C 	C 	0.268	0.3904	0.4236	-0.111
Mof_H 	H 	0.2388	0.3934	0.4431	0.089
Mof_H 	H 	0.2554	0.4304	0.4072	0.097
Mof_C 	C 	0.5654	0.9773	0.3748	-0.118
Mof_C 	C 	0.4479	0.3621	0.4471	-0.028
Mof_H 	H 	0.4795	0.3235	0.4463	0.076
Mof_C 	C 	0.9618	0.0611	0.351	0.107
Mof_C 	C 	0.0244	0.0789	0.364	0.102
Mof_C 	C 	0.0271	0.9611	0.3949	0.101
Mof_C 	C 	0.8675	0.9673	0.3446	0.357
Mof_N 	N 	0.2609	0.3149	0.407	-0.097
Mof_C 	C 	0.8602	0.9755	0.194	0.049
Mof_N 	N 	0.7639	0.8094	0.1703	-0.097
Mof_C 	C 	0.932	0.992	0.3601	-0.12
Mof_C 	C 	0.9732	0.9443	0.2072	-0.012
Mof_H 	H 	0.0135	0.957	0.2173	0.059
Mof_N 	N 	0.7402	0.9746	0.281	-0.24
Mof_C 	C 	0.906	0.8556	0.1762	-0.067
Mof_H 	H 	0.901	0.8077	0.1657	0.091
Mof_C 	C 	0.4313	0.0121	0.3756	-0.119
Mof_C 	C 	0.4645	0.4348	0.4599	0.003
Mof_H 	H 	0.5069	0.4446	0.4681	0.055
Mof_C 	C 	0.0577	0.0307	0.386	-0.115
Mof_C 	C 	0.3557	0.4786	0.4484	0.061
Mof_C 	C 	0.2912	0.561	0.5113	0.091
Mof_H 	H 	0.335	0.5711	0.5164	0.017
Mof_C 	C 	0.338	0.405	0.4363	0.036
Mof_C 	C 	0.8046	0.0323	0.1985	-0.13
Mof_H 	H 	0.8225	0.0838	0.2018	0.099
Mof_H 	H 	0.7771	0.0328	0.1778	0.095
Mof_C 	C 	0.3586	0.0312	0.3761	0.389
Mof_C 	C 	0.9656	0.9437	0.382	0.099
Mof_C 	C 	0.699	0.0185	0.2315	-0.01
Mof_H 	H 	0.6696	0.036	0.2146	0.074
Mof_C 	C 	0.2729	0.2983	0.3736	0.012
Mof_H 	H 	0.2829	0.3337	0.3564	0.065
Mof_C 	C 	0.7718	0.7397	0.1571	0.11
Mof_H 	H 	0.7948	0.7306	0.137	0.011
Mof_C 	C 	0.1885	0.5418	0.5166	0.023
Mof_H 	H 	0.1473	0.5354	0.526	0.042
Mof_C 	C 	0.7895	0.8835	0.1585	-0.121
Mof_H 	H 	0.7979	0.8805	0.134	0.102
Mof_H 	H 	0.7566	0.9231	0.1619	0.095
Mof_C 	C 	0.3067	0.5447	0.4484	-0.139
Mof_H 	H 	0.3301	0.5931	0.4463	0.103
Mof_H 	H 	0.2776	0.5398	0.4284	0.102
Mof_C 	C 	0.418	0.4918	0.4604	-0.088
Mof_H 	H 	0.4291	0.5403	0.469	0.086
Mof_C 	C 	0.2678	0.2223	0.3697	0.033
Mof_H 	H 	0.2734	0.1958	0.3491	0.042
Mof_C 	C 	0.8525	0.9069	0.1777	0.045
Mof_C 	C 	0.9215	0.9929	0.2089	-0.08
Mof_H 	H 	0.9269	0.0396	0.2204	0.088
Mof_C 	C 	0.7879	0.9851	0.2586	0.091
Mof_H 	H 	0.8319	0.9752	0.2633	0.018
Mof_C 	C 	0.9645	0.8763	0.1902	-0.02
Mof_H 	H 	0.9999	0.843	0.1882	0.072
Mof_C 	C 	0.6844	0.9947	0.2644	0.027
Mof_H 	H 	0.6427	0.9928	0.2737	0.038
Mof_C 	C 	0.6389	0.9576	0.3734	0.405
Mof_C 	C 	0.7175	0.7224	0.2028	0.018
Mof_H 	H 	0.6952	0.6983	0.2205	0.025
Mof_C 	C 	0.728	0.7997	0.2006	-0.001
Mof_H 	H 	0.7144	0.8378	0.2158	0.047
Mof_C 	C 	0.2025	0.5352	0.4823	-0.007
Mof_H 	H 	0.1729	0.5249	0.4644	0.069
Mof_Br	Br	0.92684	0.1531	0.89291	-0.196
Mof_Br	Br	0.06702	0.82936	0.85015	-0.182
Mof_Br	Br	0.91765	0.87379	0.81955	-0.206
Mof_Br	Br	0.54704	0.18438	0.87622	-0.195
Mof_Br	Br	0.44907	0.82667	0.87871	-0.194
Mof_Br	Br	0.38839	0.14151	0.87248	-0.196
Mof_Br	Br	0.60859	0.8692	0.87559	-0.195
Mof_Br	Br	0.0742	0.10674	0.92445	-0.211
Mof_Co	Co	0.24713	0.92349	0.91374	1.158
Mof_Co	Co	0.74973	0.06866	0.82949	1.159
Mof_N 	N 	0.2531	0.811	0.9009	-0.243
Mof_N 	N 	0.7444	0.3153	0.675	-0.243
Mof_O 	O 	0.8674	0.0706	0.81792	-0.34
Mof_N 	N 	0.2675	0.4533	0.9797	-0.095
Mof_O 	O 	0.3346	0.9684	0.90569	-0.429
Mof_O 	O 	0.8148	0.013	0.85977	-0.41
Mof_O 	O 	0.1745	0.9737	0.88794	-0.421
Mof_O 	O 	0.6691	0.0526	0.9002	-0.295
Mof_O 	O 	0.1239	0.903	0.92644	-0.329
Mof_C 	C 	0.5445	0.9473	0.8763	0.11
Mof_C 	C 	0.3864	0.6525	0.9357	-0.052
Mof_H 	H 	0.3758	0.7013	0.9273	0.08
Mof_C 	C 	0.4523	0.063	0.8745	0.11
Mof_N 	N 	0.7646	0.9887	0.7287	-0.096
Mof_O 	O 	0.3302	0.9527	0.8486	-0.293
Mof_C 	C 	0.478	0.9302	0.8765	0.108
Mof_C 	C 	0.1231	0.9461	0.9022	0.368
Mof_N 	N 	0.2443	0.4409	0.0348	-0.24
Mof_O 	O 	0.6597	0.0451	0.84303	-0.439
Mof_C 	C 	0.5188	0.0805	0.8748	0.107
Mof_C 	C 	0.2498	0.7528	0.9226	0.106
Mof_H 	H 	0.241	0.758	0.946	-0.003
Mof_C 	C 	0.268	0.6096	0.9236	-0.111
Mof_H 	H 	0.2388	0.6066	0.9431	0.089
Mof_H 	H 	0.2554	0.5696	0.9072	0.097
Mof_C 	C 	0.5654	0.0227	0.8748	-0.118
Mof_C 	C 	0.4479	0.6379	0.9471	-0.028
Mof_H 	H 	0.4795	0.6765	0.9463	0.076
Mof_C 	C 	0.9618	0.9389	0.851	0.107
Mof_C 	C 	0.0244	0.9211	0.864	0.102
Mof_C 	C 	0.0271	0.0389	0.8949	0.101
Mof_C 	C 	0.8675	0.0327	0.8446	0.357
Mof_N 	N 	0.2609	0.6851	0.907	-0.097
Mof_C 	C 	0.8602	0.0245	0.694	0.049
Mof_N 	N 	0.7639	0.1906	0.6703	-0.097
Mof_C 	C 	0.932	0.008	0.8601	-0.12
Mof_C 	C 	0.9732	0.0557	0.7072	-0.012
Mof_H 	H 	0.0135	0.043	0.7173	0.059
Mof_N 	N 	0.7402	0.0254	0.781	-0.24
Mof_C 	C 	0.906	0.1444	0.6762	-0.067
Mof_H 	H 	0.901	0.1923	0.6657	0.091
Mof_C 	C 	0.4313	0.9879	0.8756	-0.119
Mof_C 	C 	0.4645	0.5652	0.9599	0.003
Mof_H 	H 	0.5069	0.5554	0.9681	0.055
Mof_C 	C 	0.0577	0.9693	0.886	-0.115
Mof_C 	C 	0.3557	0.5214	0.9484	0.061
Mof_C 	C 	0.2912	0.439	0.0113	0.091
Mof_H 	H 	0.335	0.4289	0.0164	0.017
Mof_C 	C 	0.338	0.595	0.9363	0.036
Mof_C 	C 	0.8046	0.9677	0.6985	-0.13
Mof_H 	H 	0.8225	0.9162	0.7018	0.099
Mof_H 	H 	0.7771	0.9672	0.6778	0.095
Mof_C 	C 	0.3586	0.9688	0.8761	0.389
Mof_C 	C 	0.9656	0.0563	0.882	0.099
Mof_C 	C 	0.699	0.9815	0.7315	-0.01
Mof_H 	H 	0.6696	0.964	0.7146	0.074
Mof_C 	C 	0.2729	0.7017	0.8736	0.012
Mof_H 	H 	0.2829	0.6663	0.8564	0.065
Mof_C 	C 	0.7718	0.2603	0.6571	0.11
Mof_H 	H 	0.7948	0.2694	0.637	0.011
Mof_C 	C 	0.1885	0.4582	0.0166	0.023
Mof_H 	H 	0.1473	0.4646	0.026	0.042
Mof_C 	C 	0.7895	0.1165	0.6585	-0.121
Mof_H 	H 	0.7979	0.1195	0.634	0.102
Mof_H 	H 	0.7566	0.0769	0.6619	0.095
Mof_C 	C 	0.3067	0.4553	0.9484	-0.139
Mof_H 	H 	0.3301	0.4069	0.9463	0.103
Mof_H 	H 	0.2776	0.4602	0.9284	0.102
Mof_C 	C 	0.418	0.5082	0.9604	-0.088
Mof_H 	H 	0.4291	0.4597	0.969	0.086
Mof_C 	C 	0.2678	0.7777	0.8697	0.033
Mof_H 	H 	0.2734	0.8042	0.8491	0.042
Mof_C 	C 	0.8525	0.0931	0.6777	0.045
Mof_C 	C 	0.9215	0.0071	0.7089	-0.08
Mof_H 	H 	0.9269	0.9604	0.7204	0.087
Mof_C 	C 	0.7879	0.0149	0.7586	0.091
Mof_H 	H 	0.8319	0.0248	0.7633	0.018
Mof_C 	C 	0.9645	0.1237	0.6902	-0.02
Mof_H 	H 	0.9999	0.157	0.6882	0.072
Mof_C 	C 	0.6844	0.0053	0.7644	0.027
Mof_H 	H 	0.6427	0.0072	0.7737	0.038
Mof_C 	C 	0.6389	0.0424	0.8734	0.405
Mof_C 	C 	0.7175	0.2776	0.7028	0.018
Mof_H 	H 	0.6952	0.3017	0.7205	0.025
Mof_C 	C 	0.728	0.2003	0.7006	-0.001
Mof_H 	H 	0.7144	0.1622	0.7158	0.047
Mof_C 	C 	0.2025	0.4648	0.9823	-0.007
Mof_H 	H 	0.1729	0.4751	0.9644	0.069
Mof_Br	Br	0.57316	0.6531	0.10709	-0.196
Mof_Br	Br	0.43298	0.32936	0.14985	-0.182
Mof_Br	Br	0.58235	0.37379	0.18045	-0.206
Mof_Br	Br	0.95296	0.68438	0.12378	-0.195
Mof_Br	Br	0.05093	0.32667	0.12129	-0.194
Mof_Br	Br	0.11161	0.64151	0.12752	-0.196
Mof_Br	Br	0.89141	0.3692	0.12441	-0.195
Mof_Br	Br	0.4258	0.60674	0.07555	-0.211
Mof_Co	Co	0.25287	0.42349	0.08626	1.158
Mof_Co	Co	0.75027	0.56866	0.17051	1.159
Mof_N 	N 	0.2469	0.311	0.0991	-0.243
Mof_N 	N 	0.7556	0.8153	0.325	-0.243
Mof_O 	O 	0.6326	0.5706	0.18208	-0.34
Mof_N 	N 	0.2325	0.9533	0.0203	-0.095
Mof_O 	O 	0.1654	0.4684	0.09431	-0.429
Mof_O 	O 	0.6852	0.513	0.14023	-0.41
Mof_O 	O 	0.3255	0.4737	0.11206	-0.422
Mof_O 	O 	0.8309	0.5526	0.0998	-0.295
Mof_O 	O 	0.3761	0.403	0.07356	-0.329
Mof_C 	C 	0.9555	0.4473	0.1237	0.11
Mof_C 	C 	0.1136	0.1525	0.0643	-0.053
Mof_H 	H 	0.1242	0.2013	0.0727	0.08
Mof_C 	C 	0.0477	0.563	0.1255	0.111
Mof_N 	N 	0.7354	0.4887	0.2713	-0.096
Mof_O 	O 	0.1698	0.4527	0.1514	-0.293
Mof_C 	C 	0.022	0.4302	0.1235	0.108
Mof_C 	C 	0.3769	0.4461	0.0978	0.369
Mof_N 	N 	0.2557	0.9409	0.9652	-0.24
Mof_O 	O 	0.8403	0.5451	0.15697	-0.439
Mof_C 	C 	0.9812	0.5805	0.1252	0.107
Mof_C 	C 	0.2502	0.2528	0.0774	0.106
Mof_H 	H 	0.259	0.258	0.054	-0.003
Mof_C 	C 	0.232	0.1096	0.0764	-0.112
Mof_H 	H 	0.2612	0.1066	0.0569	0.089
Mof_H 	H 	0.2446	0.0696	0.0928	0.097
Mof_C 	C 	0.9346	0.5227	0.1252	-0.118
Mof_C 	C 	0.0521	0.1379	0.0529	-0.028
Mof_H 	H 	0.0205	0.1765	0.0537	0.076
Mof_C 	C 	0.5382	0.4389	0.149	0.107
Mof_C 	C 	0.4756	0.4211	0.136	0.102
Mof_C 	C 	0.4729	0.5389	0.1051	0.101
Mof_C 	C 	0.6325	0.5327	0.1554	0.357
Mof_N 	N 	0.2391	0.1851	0.093	-0.097
Mof_C 	C 	0.6398	0.5245	0.306	0.049
Mof_N 	N 	0.7361	0.6906	0.3297	-0.097
Mof_C 	C 	0.568	0.508	0.1399	-0.12
Mof_C 	C 	0.5268	0.5557	0.2928	-0.012
Mof_H 	H 	0.4865	0.543	0.2827	0.059
Mof_N 	N 	0.7598	0.5254	0.219	-0.24
Mof_C 	C 	0.594	0.6444	0.3238	-0.067
Mof_H 	H 	0.599	0.6923	0.3343	0.091
Mof_C 	C 	0.0687	0.4879	0.1244	-0.119
Mof_C 	C 	0.0355	0.0652	0.0401	0.003
Mof_H 	H 	0.9931	0.0554	0.0319	0.055
Mof_C 	C 	0.4423	0.4693	0.114	-0.115
Mof_C 	C 	0.1443	0.0214	0.0516	0.061
Mof_C 	C 	0.2088	0.939	0.9887	0.091
Mof_H 	H 	0.165	0.9289	0.9836	0.017
Mof_C 	C 	0.162	0.095	0.0637	0.036
Mof_C 	C 	0.6954	0.4677	0.3015	-0.13
Mof_H 	H 	0.6775	0.4162	0.2982	0.099
Mof_H 	H 	0.7229	0.4672	0.3222	0.095
Mof_C 	C 	0.1414	0.4688	0.1239	0.389
Mof_C 	C 	0.5344	0.5563	0.118	0.099
Mof_C 	C 	0.801	0.4815	0.2685	-0.01
Mof_H 	H 	0.8304	0.464	0.2854	0.074
Mof_C 	C 	0.2271	0.2017	0.1264	0.012
Mof_H 	H 	0.2171	0.1663	0.1436	0.065
Mof_C 	C 	0.7282	0.7603	0.3429	0.11
Mof_H 	H 	0.7052	0.7694	0.363	0.011
Mof_C 	C 	0.3115	0.9582	0.9834	0.023
Mof_H 	H 	0.3527	0.9646	0.974	0.042
Mof_C 	C 	0.7105	0.6165	0.3415	-0.121
Mof_H 	H 	0.7021	0.6195	0.366	0.102
Mof_H 	H 	0.7434	0.5769	0.3381	0.095
Mof_C 	C 	0.1933	0.9553	0.0516	-0.139
Mof_H 	H 	0.1699	0.9069	0.0537	0.103
Mof_H 	H 	0.2224	0.9602	0.0716	0.102
Mof_C 	C 	0.082	0.0082	0.0396	-0.087
Mof_H 	H 	0.0709	0.9597	0.031	0.086
Mof_C 	C 	0.2322	0.2777	0.1303	0.033
Mof_H 	H 	0.2266	0.3042	0.1509	0.042
Mof_C 	C 	0.6475	0.5931	0.3223	0.045
Mof_C 	C 	0.5785	0.5071	0.2911	-0.079
Mof_H 	H 	0.5731	0.4604	0.2796	0.087
Mof_C 	C 	0.7121	0.5149	0.2414	0.091
Mof_H 	H 	0.6681	0.5248	0.2367	0.018
Mof_C 	C 	0.5355	0.6237	0.3098	-0.019
Mof_H 	H 	0.5001	0.657	0.3118	0.072
Mof_C 	C 	0.8156	0.5053	0.2356	0.028
Mof_H 	H 	0.8573	0.5072	0.2263	0.038
Mof_C 	C 	0.8611	0.5424	0.1266	0.405
Mof_C 	C 	0.7825	0.7776	0.2972	0.018
Mof_H 	H 	0.8048	0.8017	0.2795	0.025
Mof_C 	C 	0.772	0.7003	0.2994	-0.001
Mof_H 	H 	0.7856	0.6622	0.2842	0.047
Mof_C 	C 	0.2975	0.9648	0.0177	-0.007
Mof_H 	H 	0.3271	0.9751	0.0356	0.069
Mof_Br	Br	0.07316	0.8469	0.10709	-0.196
Mof_Br	Br	0.93298	0.17064	0.14985	-0.182
Mof_Br	Br	0.08235	0.12621	0.18045	-0.206
Mof_Br	Br	0.45296	0.81562	0.12378	-0.195
Mof_Br	Br	0.55093	0.17333	0.12129	-0.194
Mof_Br	Br	0.61161	0.85849	0.12752	-0.196
Mof_Br	Br	0.39141	0.1308	0.12441	-0.195
Mof_Br	Br	0.9258	0.89326	0.07555	-0.211
Mof_Co	Co	0.75287	0.07651	0.08626	1.158
Mof_Co	Co	0.25027	0.93134	0.17051	1.159
Mof_N 	N 	0.7469	0.189	0.0991	-0.243
Mof_N 	N 	0.2556	0.6847	0.325	-0.243
Mof_O 	O 	0.1326	0.9294	0.18208	-0.34
Mof_N 	N 	0.7325	0.5467	0.0203	-0.095
Mof_O 	O 	0.6654	0.0316	0.09431	-0.429
Mof_O 	O 	0.1852	0.987	0.14023	-0.41
Mof_O 	O 	0.8255	0.0263	0.11206	-0.421
Mof_O 	O 	0.3309	0.9474	0.0998	-0.295
Mof_O 	O 	0.8761	0.097	0.07356	-0.329
Mof_C 	C 	0.4555	0.0527	0.1237	0.11
Mof_C 	C 	0.6136	0.3475	0.0643	-0.052
Mof_H 	H 	0.6242	0.2987	0.0727	0.08
Mof_C 	C 	0.5477	0.937	0.1255	0.11
Mof_N 	N 	0.2354	0.0113	0.2713	-0.096
Mof_O 	O 	0.6698	0.0473	0.1514	-0.293
Mof_C 	C 	0.522	0.0698	0.1235	0.108
Mof_C 	C 	0.8769	0.0539	0.0978	0.368
Mof_N 	N 	0.7557	0.5591	0.9652	-0.24
Mof_O 	O 	0.3403	0.9549	0.15697	-0.439
Mof_C 	C 	0.4812	0.9195	0.1252	0.107
Mof_C 	C 	0.7502	0.2472	0.0774	0.106
Mof_H 	H 	0.759	0.242	0.054	-0.003
Mof_C 	C 	0.732	0.3904	0.0764	-0.111
Mof_H 	H 	0.7612	0.3934	0.0569	0.089
Mof_H 	H 	0.7446	0.4304	0.0928	0.097
Mof_C 	C 	0.4346	0.9773	0.1252	-0.118
Mof_C 	C 	0.5521	0.3621	0.0529	-0.028
Mof_H 	H 	0.5205	0.3235	0.0537	0.076
Mof_C 	C 	0.0382	0.0611	0.149	0.107
Mof_C 	C 	0.9756	0.0789	0.136	0.102
Mof_C 	C 	0.9729	0.9611	0.1051	0.101
Mof_C 	C 	0.1325	0.9673	0.1554	0.357
Mof_N 	N 	0.7391	0.3149	0.093	-0.097
Mof_C 	C 	0.1398	0.9755	0.306	0.049
Mof_N 	N 	0.2361	0.8094	0.3297	-0.097
Mof_C 	C 	0.068	0.992	0.1399	-0.12
Mof_C 	C 	0.0268	0.9443	0.2928	-0.012
Mof_H 	H 	0.9865	0.957	0.2827	0.059
Mof_N 	N 	0.2598	0.9746	0.219	-0.24
Mof_C 	C 	0.094	0.8556	0.3238	-0.067
Mof_H 	H 	0.099	0.8077	0.3343	0.091
Mof_C 	C 	0.5687	0.0121	0.1244	-0.119
Mof_C 	C 	0.5355	0.4348	0.0401	0.003
Mof_H 	H 	0.4931	0.4446	0.0319	0.055
Mof_C 	C 	0.9423	0.0307	0.114	-0.115
Mof_C 	C 	0.6443	0.4786	0.0516	0.061
Mof_C 	C 	0.7088	0.561	0.9887	0.091
Mof_H 	H 	0.665	0.5711	0.9836	0.017
Mof_C 	C 	0.662	0.405	0.0637	0.036
Mof_C 	C 	0.1954	0.0323	0.3015	-0.13
Mof_H 	H 	0.1775	0.0838	0.2982	0.099
Mof_H 	H 	0.2229	0.0328	0.3222	0.095
Mof_C 	C 	0.6414	0.0312	0.1239	0.389
Mof_C 	C 	0.0344	0.9437	0.118	0.099
Mof_C 	C 	0.301	0.0185	0.2685	-0.01
Mof_H 	H 	0.3304	0.036	0.2854	0.074
Mof_C 	C 	0.7271	0.2983	0.1264	0.012
Mof_H 	H 	0.7171	0.3337	0.1436	0.065
Mof_C 	C 	0.2282	0.7397	0.3429	0.11
Mof_H 	H 	0.2052	0.7306	0.363	0.011
Mof_C 	C 	0.8115	0.5418	0.9834	0.023
Mof_H 	H 	0.8527	0.5354	0.974	0.042
Mof_C 	C 	0.2105	0.8835	0.3415	-0.121
Mof_H 	H 	0.2021	0.8805	0.366	0.102
Mof_H 	H 	0.2434	0.9231	0.3381	0.095
Mof_C 	C 	0.6933	0.5447	0.0516	-0.139
Mof_H 	H 	0.6699	0.5931	0.0537	0.103
Mof_H 	H 	0.7224	0.5398	0.0716	0.102
Mof_C 	C 	0.582	0.4918	0.0396	-0.088
Mof_H 	H 	0.5709	0.5403	0.031	0.086
Mof_C 	C 	0.7322	0.2223	0.1303	0.033
Mof_H 	H 	0.7266	0.1958	0.1509	0.042
Mof_C 	C 	0.1475	0.9069	0.3223	0.045
Mof_C 	C 	0.0785	0.9929	0.2911	-0.08
Mof_H 	H 	0.0731	0.0396	0.2796	0.087
Mof_C 	C 	0.2121	0.9851	0.2414	0.091
Mof_H 	H 	0.1681	0.9752	0.2367	0.018
Mof_C 	C 	0.0355	0.8763	0.3098	-0.02
Mof_H 	H 	0.0001	0.843	0.3118	0.072
Mof_C 	C 	0.3156	0.9947	0.2356	0.027
Mof_H 	H 	0.3573	0.9928	0.2263	0.038
Mof_C 	C 	0.3611	0.9576	0.1266	0.405
Mof_C 	C 	0.2825	0.7224	0.2972	0.018
Mof_H 	H 	0.3048	0.6983	0.2795	0.025
Mof_C 	C 	0.272	0.7997	0.2994	-0.001
Mof_H 	H 	0.2856	0.8378	0.2842	0.047
Mof_C 	C 	0.7975	0.5352	0.0177	-0.007
Mof_H 	H 	0.8271	0.5249	0.0356	0.069
Mof_Br	Br	0.42684	0.3469	0.89291	-0.196
Mof_Br	Br	0.56702	0.67064	0.85015	-0.182
Mof_Br	Br	0.41765	0.62621	0.81955	-0.206
Mof_Br	Br	0.04704	0.31562	0.87622	-0.195
Mof_Br	Br	0.94907	0.67333	0.87871	-0.194
Mof_Br	Br	0.88839	0.35849	0.87248	-0.196
Mof_Br	Br	0.10859	0.6308	0.87559	-0.195
Mof_Br	Br	0.5742	0.39326	0.92445	-0.211
Mof_Co	Co	0.74713	0.57651	0.91374	1.158
Mof_Co	Co	0.24973	0.43134	0.82949	1.159
Mof_N 	N 	0.7531	0.689	0.9009	-0.243
Mof_N 	N 	0.2444	0.1847	0.675	-0.243
Mof_O 	O 	0.3674	0.4294	0.81792	-0.34
Mof_N 	N 	0.7675	0.0467	0.9797	-0.095
Mof_O 	O 	0.8346	0.5316	0.90569	-0.429
Mof_O 	O 	0.3148	0.487	0.85977	-0.41
Mof_O 	O 	0.6745	0.5263	0.88794	-0.422
Mof_O 	O 	0.1691	0.4474	0.9002	-0.295
Mof_O 	O 	0.6239	0.597	0.92644	-0.329
Mof_C 	C 	0.0445	0.5527	0.8763	0.11
Mof_C 	C 	0.8864	0.8475	0.9357	-0.053
Mof_H 	H 	0.8758	0.7987	0.9273	0.08
Mof_C 	C 	0.9523	0.437	0.8745	0.111
Mof_N 	N 	0.2646	0.5113	0.7287	-0.096
Mof_O 	O 	0.8302	0.5473	0.8486	-0.293
Mof_C 	C 	0.978	0.5698	0.8765	0.108
Mof_C 	C 	0.6231	0.5539	0.9022	0.369
Mof_N 	N 	0.7443	0.0591	0.0348	-0.24
Mof_O 	O 	0.1597	0.4549	0.84303	-0.439
Mof_C 	C 	0.0188	0.4195	0.8748	0.107
Mof_C 	C 	0.7498	0.7472	0.9226	0.106
Mof_H 	H 	0.741	0.742	0.946	-0.003
Mof_C 	C 	0.768	0.8904	0.9236	-0.112
Mof_H 	H 	0.7388	0.8934	0.9431	0.089
Mof_H 	H 	0.7554	0.9304	0.9072	0.097
Mof_C 	C 	0.0654	0.4773	0.8748	-0.118
Mof_C 	C 	0.9479	0.8621	0.9471	-0.028
Mof_H 	H 	0.9795	0.8235	0.9463	0.076
Mof_C 	C 	0.4618	0.5611	0.851	0.107
Mof_C 	C 	0.5244	0.5789	0.864	0.102
Mof_C 	C 	0.5271	0.4611	0.8949	0.101
Mof_C 	C 	0.3675	0.4673	0.8446	0.357
Mof_N 	N 	0.7609	0.8149	0.907	-0.097
Mof_C 	C 	0.3602	0.4755	0.694	0.049
Mof_N 	N 	0.2639	0.3094	0.6703	-0.097
Mof_C 	C 	0.432	0.492	0.8601	-0.12
Mof_C 	C 	0.4732	0.4443	0.7072	-0.012
Mof_H 	H 	0.5135	0.457	0.7173	0.059
Mof_N 	N 	0.2402	0.4746	0.781	-0.24
Mof_C 	C 	0.406	0.3556	0.6762	-0.067
Mof_H 	H 	0.401	0.3077	0.6657	0.091
Mof_C 	C 	0.9313	0.5121	0.8756	-0.119
Mof_C 	C 	0.9645	0.9348	0.9599	0.003
Mof_H 	H 	0.0069	0.9446	0.9681	0.055
Mof_C 	C 	0.5577	0.5307	0.886	-0.115
Mof_C 	C 	0.8557	0.9786	0.9484	0.061
Mof_C 	C 	0.7912	0.061	0.0113	0.091
Mof_H 	H 	0.835	0.0711	0.0164	0.017
Mof_C 	C 	0.838	0.905	0.9363	0.036
Mof_C 	C 	0.3046	0.5323	0.6985	-0.13
Mof_H 	H 	0.3225	0.5838	0.7018	0.099
Mof_H 	H 	0.2771	0.5328	0.6778	0.095
Mof_C 	C 	0.8586	0.5312	0.8761	0.389
Mof_C 	C 	0.4656	0.4437	0.882	0.099
Mof_C 	C 	0.199	0.5185	0.7315	-0.01
Mof_H 	H 	0.1696	0.536	0.7146	0.074
Mof_C 	C 	0.7729	0.7983	0.8736	0.012
Mof_H 	H 	0.7829	0.8337	0.8564	0.065
Mof_C 	C 	0.2718	0.2397	0.6571	0.11
Mof_H 	H 	0.2948	0.2306	0.637	0.011
Mof_C 	C 	0.6885	0.0418	0.0166	0.023
Mof_H 	H 	0.6473	0.0354	0.026	0.042
Mof_C 	C 	0.2895	0.3835	0.6585	-0.121
Mof_H 	H 	0.2979	0.3805	0.634	0.102
Mof_H 	H 	0.2566	0.4231	0.6619	0.095
Mof_C 	C 	0.8067	0.0447	0.9484	-0.139
Mof_H 	H 	0.8301	0.0931	0.9463	0.103
Mof_H 	H 	0.7776	0.0398	0.9284	0.102
Mof_C 	C 	0.918	0.9918	0.9604	-0.087
Mof_H 	H 	0.9291	0.0403	0.969	0.086
Mof_C 	C 	0.7678	0.7223	0.8697	0.033
Mof_H 	H 	0.7734	0.6958	0.8491	0.042
Mof_C 	C 	0.3525	0.4069	0.6777	0.045
Mof_C 	C 	0.4215	0.4929	0.7089	-0.079
Mof_H 	H 	0.4269	0.5396	0.7204	0.087
Mof_C 	C 	0.2879	0.4851	0.7586	0.091
Mof_H 	H 	0.3319	0.4752	0.7633	0.018
Mof_C 	C 	0.4645	0.3763	0.6902	-0.019
Mof_H 	H 	0.4999	0.343	0.6882	0.072
Mof_C 	C 	0.1844	0.4947	0.7644	0.028
Mof_H 	H 	0.1427	0.4928	0.7737	0.038
Mof_C 	C 	0.1389	0.4576	0.8734	0.405
Mof_C 	C 	0.2175	0.2224	0.7028	0.018
Mof_H 	H 	0.1952	0.1983	0.7205	0.025
Mof_C 	C 	0.228	0.2997	0.7006	-0.001
Mof_H 	H 	0.2144	0.3378	0.7158	0.047
Mof_C 	C 	0.7025	0.0352	0.9823	-0.007
Mof_H 	H 	0.6729	0.0249	0.9644	0.069
Mof_Br	Br	0.42684	0.6531	0.39291	-0.196
Mof_Br	Br	0.56702	0.32936	0.35015	-0.182
Mof_Br	Br	0.41765	0.37379	0.31955	-0.206
Mof_Br	Br	0.04704	0.68438	0.37622	-0.195
Mof_Br	Br	0.94907	0.32667	0.37871	-0.194
Mof_Br	Br	0.88839	0.64151	0.37248	-0.196
Mof_Br	Br	0.10859	0.3692	0.37559	-0.195
Mof_Br	Br	0.5742	0.60674	0.42445	-0.211
Mof_Co	Co	0.74713	0.42349	0.41374	1.158
Mof_Co	Co	0.24973	0.56866	0.32949	1.159
Mof_N 	N 	0.7531	0.311	0.4009	-0.243
Mof_N 	N 	0.2444	0.8153	0.175	-0.243
Mof_O 	O 	0.3674	0.5706	0.31792	-0.34
Mof_N 	N 	0.7675	0.9533	0.4797	-0.095
Mof_O 	O 	0.8346	0.4684	0.40569	-0.429
Mof_O 	O 	0.3148	0.513	0.35977	-0.41
Mof_O 	O 	0.6745	0.4737	0.38794	-0.422
Mof_O 	O 	0.1691	0.5526	0.4002	-0.295
Mof_O 	O 	0.6239	0.403	0.42644	-0.329
Mof_C 	C 	0.0445	0.4473	0.3763	0.11
Mof_C 	C 	0.8864	0.1525	0.4357	-0.053
Mof_H 	H 	0.8758	0.2013	0.4273	0.08
Mof_C 	C 	0.9523	0.563	0.3745	0.111
Mof_N 	N 	0.2646	0.4887	0.2287	-0.096
Mof_O 	O 	0.8302	0.4527	0.3486	-0.293
Mof_C 	C 	0.978	0.4302	0.3765	0.108
Mof_C 	C 	0.6231	0.4461	0.4022	0.369
Mof_N 	N 	0.7443	0.9409	0.5348	-0.24
Mof_O 	O 	0.1597	0.5451	0.34303	-0.439
Mof_C 	C 	0.0188	0.5805	0.3748	0.107
Mof_C 	C 	0.7498	0.2528	0.4226	0.106
Mof_H 	H 	0.741	0.258	0.446	-0.003
Mof_C 	C 	0.768	0.1096	0.4236	-0.112
Mof_H 	H 	0.7388	0.1066	0.4431	0.089
Mof_H 	H 	0.7554	0.0696	0.4072	0.097
Mof_C 	C 	0.0654	0.5227	0.3748	-0.118
Mof_C 	C 	0.9479	0.1379	0.4471	-0.028
Mof_H 	H 	0.9795	0.1765	0.4463	0.076
Mof_C 	C 	0.4618	0.4389	0.351	0.107
Mof_C 	C 	0.5244	0.4211	0.364	0.102
Mof_C 	C 	0.5271	0.5389	0.3949	0.101
Mof_C 	C 	0.3675	0.5327	0.3446	0.357
Mof_N 	N 	0.7609	0.1851	0.407	-0.097
Mof_C 	C 	0.3602	0.5245	0.194	0.049
Mof_N 	N 	0.2639	0.6906	0.1703	-0.097
Mof_C 	C 	0.432	0.508	0.3601	-0.12
Mof_C 	C 	0.4732	0.5557	0.2072	-0.012
Mof_H 	H 	0.5135	0.543	0.2173	0.059
Mof_N 	N 	0.2402	0.5254	0.281	-0.24
Mof_C 	C 	0.406	0.6444	0.1762	-0.067
Mof_H 	H 	0.401	0.6923	0.1657	0.091
Mof_C 	C 	0.9313	0.4879	0.3756	-0.119
Mof_C 	C 	0.9645	0.0652	0.4599	0.003
Mof_H 	H 	0.0069	0.0554	0.4681	0.055
Mof_C 	C 	0.5577	0.4693	0.386	-0.115
Mof_C 	C 	0.8557	0.0214	0.4484	0.061
Mof_C 	C 	0.7912	0.939	0.5113	0.091
Mof_H 	H 	0.835	0.9289	0.5164	0.017
Mof_C 	C 	0.838	0.095	0.4363	0.036
Mof_C 	C 	0.3046	0.4677	0.1985	-0.13
Mof_H 	H 	0.3225	0.4162	0.2018	0.099
Mof_H 	H 	0.2771	0.4672	0.1778	0.095
Mof_C 	C 	0.8586	0.4688	0.3761	0.389
Mof_C 	C 	0.4656	0.5563	0.382	0.099
Mof_C 	C 	0.199	0.4815	0.2315	-0.01
Mof_H 	H 	0.1696	0.464	0.2146	0.074
Mof_C 	C 	0.7729	0.2017	0.3736	0.012
Mof_H 	H 	0.7829	0.1663	0.3564	0.066
Mof_C 	C 	0.2718	0.7603	0.1571	0.11
Mof_H 	H 	0.2948	0.7694	0.137	0.011
Mof_C 	C 	0.6885	0.9582	0.5166	0.023
Mof_H 	H 	0.6473	0.9646	0.526	0.042
Mof_C 	C 	0.2895	0.6165	0.1585	-0.121
Mof_H 	H 	0.2979	0.6195	0.134	0.102
Mof_H 	H 	0.2566	0.5769	0.1619	0.095
Mof_C 	C 	0.8067	0.9553	0.4484	-0.139
Mof_H 	H 	0.8301	0.9069	0.4463	0.103
Mof_H 	H 	0.7776	0.9602	0.4284	0.102
Mof_C 	C 	0.918	0.0082	0.4604	-0.087
Mof_H 	H 	0.9291	0.9597	0.469	0.086
Mof_C 	C 	0.7678	0.2777	0.3697	0.033
Mof_H 	H 	0.7734	0.3042	0.3491	0.042
Mof_C 	C 	0.3525	0.5931	0.1777	0.045
Mof_C 	C 	0.4215	0.5071	0.2089	-0.079
Mof_H 	H 	0.4269	0.4604	0.2204	0.087
Mof_C 	C 	0.2879	0.5149	0.2586	0.091
Mof_H 	H 	0.3319	0.5248	0.2633	0.018
Mof_C 	C 	0.4645	0.6237	0.1902	-0.019
Mof_H 	H 	0.4999	0.657	0.1882	0.072
Mof_C 	C 	0.1844	0.5053	0.2644	0.028
Mof_H 	H 	0.1427	0.5072	0.2737	0.038
Mof_C 	C 	0.1389	0.5424	0.3734	0.405
Mof_C 	C 	0.2175	0.7776	0.2028	0.018
Mof_H 	H 	0.1952	0.8017	0.2205	0.025
Mof_C 	C 	0.228	0.7003	0.2006	-0.001
Mof_H 	H 	0.2144	0.6622	0.2158	0.047
Mof_C 	C 	0.7025	0.9648	0.4823	-0.007
Mof_H 	H 	0.6729	0.9751	0.4644	0.069
Mof_Br	Br	0.07316	0.1531	0.60709	-0.196
Mof_Br	Br	0.93298	0.82936	0.64985	-0.182
Mof_Br	Br	0.08235	0.87379	0.68045	-0.206
Mof_Br	Br	0.45296	0.18438	0.62378	-0.195
Mof_Br	Br	0.55093	0.82667	0.62129	-0.194
Mof_Br	Br	0.61161	0.14151	0.62752	-0.196
Mof_Br	Br	0.39141	0.8692	0.62441	-0.195
Mof_Br	Br	0.9258	0.10674	0.57555	-0.211
Mof_Co	Co	0.75287	0.92349	0.58626	1.158
Mof_Co	Co	0.25027	0.06866	0.67051	1.159
Mof_N 	N 	0.7469	0.811	0.5991	-0.243
Mof_N 	N 	0.2556	0.3153	0.825	-0.243
Mof_O 	O 	0.1326	0.0706	0.68208	-0.34
Mof_N 	N 	0.7325	0.4533	0.5203	-0.095
Mof_O 	O 	0.6654	0.9684	0.59431	-0.429
Mof_O 	O 	0.1852	0.013	0.64023	-0.41
Mof_O 	O 	0.8255	0.9737	0.61206	-0.421
Mof_O 	O 	0.3309	0.0526	0.5998	-0.295
Mof_O 	O 	0.8761	0.903	0.57356	-0.329
Mof_C 	C 	0.4555	0.9473	0.6237	0.11
Mof_C 	C 	0.6136	0.6525	0.5643	-0.052
Mof_H 	H 	0.6242	0.7013	0.5727	0.08
Mof_C 	C 	0.5477	0.063	0.6255	0.11
Mof_N 	N 	0.2354	0.9887	0.7713	-0.096
Mof_O 	O 	0.6698	0.9527	0.6514	-0.293
Mof_C 	C 	0.522	0.9302	0.6235	0.108
Mof_C 	C 	0.8769	0.9461	0.5978	0.368
Mof_N 	N 	0.7557	0.4409	0.4652	-0.24
Mof_O 	O 	0.3403	0.0451	0.65697	-0.439
Mof_C 	C 	0.4812	0.0805	0.6252	0.107
Mof_C 	C 	0.7502	0.7528	0.5774	0.106
Mof_H 	H 	0.759	0.758	0.554	-0.003
Mof_C 	C 	0.732	0.6096	0.5764	-0.111
Mof_H 	H 	0.7612	0.6066	0.5569	0.089
Mof_H 	H 	0.7446	0.5696	0.5928	0.097
Mof_C 	C 	0.4346	0.0227	0.6252	-0.118
Mof_C 	C 	0.5521	0.6379	0.5529	-0.028
Mof_H 	H 	0.5205	0.6765	0.5537	0.076
Mof_C 	C 	0.0382	0.9389	0.649	0.107
Mof_C 	C 	0.9756	0.9211	0.636	0.102
Mof_C 	C 	0.9729	0.0389	0.6051	0.101
Mof_C 	C 	0.1325	0.0327	0.6554	0.357
Mof_N 	N 	0.7391	0.6851	0.593	-0.097
Mof_C 	C 	0.1398	0.0245	0.806	0.049
Mof_N 	N 	0.2361	0.1906	0.8297	-0.097
Mof_C 	C 	0.068	0.008	0.6399	-0.12
Mof_C 	C 	0.0268	0.0557	0.7928	-0.012
Mof_H 	H 	0.9865	0.043	0.7827	0.059
Mof_N 	N 	0.2598	0.0254	0.719	-0.24
Mof_C 	C 	0.094	0.1444	0.8238	-0.067
Mof_H 	H 	0.099	0.1923	0.8343	0.091
Mof_C 	C 	0.5687	0.9879	0.6244	-0.119
Mof_C 	C 	0.5355	0.5652	0.5401	0.003
Mof_H 	H 	0.4931	0.5554	0.5319	0.055
Mof_C 	C 	0.9423	0.9693	0.614	-0.115
Mof_C 	C 	0.6443	0.5214	0.5516	0.061
Mof_C 	C 	0.7088	0.439	0.4887	0.091
Mof_H 	H 	0.665	0.4289	0.4836	0.017
Mof_C 	C 	0.662	0.595	0.5637	0.036
Mof_C 	C 	0.1954	0.9677	0.8015	-0.13
Mof_H 	H 	0.1775	0.9162	0.7982	0.099
Mof_H 	H 	0.2229	0.9672	0.8222	0.095
Mof_C 	C 	0.6414	0.9688	0.6239	0.389
Mof_C 	C 	0.0344	0.0563	0.618	0.099
Mof_C 	C 	0.301	0.9815	0.7685	-0.01
Mof_H 	H 	0.3304	0.964	0.7854	0.074
Mof_C 	C 	0.7271	0.7017	0.6264	0.012
Mof_H 	H 	0.7171	0.6663	0.6436	0.065
Mof_C 	C 	0.2282	0.2603	0.8429	0.11
Mof_H 	H 	0.2052	0.2694	0.863	0.011
Mof_C 	C 	0.8115	0.4582	0.4834	0.023
Mof_H 	H 	0.8527	0.4646	0.474	0.042
Mof_C 	C 	0.2105	0.1165	0.8415	-0.121
Mof_H 	H 	0.2021	0.1195	0.866	0.102
Mof_H 	H 	0.2434	0.0769	0.8381	0.095
Mof_C 	C 	0.6933	0.4553	0.5516	-0.139
Mof_H 	H 	0.6699	0.4069	0.5537	0.103
Mof_H 	H 	0.7224	0.4602	0.5716	0.102
Mof_C 	C 	0.582	0.5082	0.5396	-0.088
Mof_H 	H 	0.5709	0.4597	0.531	0.086
Mof_C 	C 	0.7322	0.7777	0.6303	0.033
Mof_H 	H 	0.7266	0.8042	0.6509	0.042
Mof_C 	C 	0.1475	0.0931	0.8223	0.045
Mof_C 	C 	0.0785	0.0071	0.7911	-0.08
Mof_H 	H 	0.0731	0.9604	0.7796	0.088
Mof_C 	C 	0.2121	0.0149	0.7414	0.091
Mof_H 	H 	0.1681	0.0248	0.7367	0.018
Mof_C 	C 	0.0355	0.1237	0.8098	-0.02
Mof_H 	H 	0.0001	0.157	0.8118	0.072
Mof_C 	C 	0.3156	0.0053	0.7356	0.027
Mof_H 	H 	0.3573	0.0072	0.7263	0.038
Mof_C 	C 	0.3611	0.0424	0.6266	0.405
Mof_C 	C 	0.2825	0.2776	0.7972	0.018
Mof_H 	H 	0.3048	0.3017	0.7795	0.025
Mof_C 	C 	0.272	0.2003	0.7994	-0.001
Mof_H 	H 	0.2856	0.1622	0.7842	0.047
Mof_C 	C 	0.7975	0.4648	0.5177	-0.007
Mof_H 	H 	0.8271	0.4751	0.5356	0.069
_end
