data_functionalizedCrystal
_audit_creation_method	'EQeq! by Chris Wilmer'
_symmetry_space_group_name_H-M	'P1'
_symmetry_Int_Tables_number	1
_symmetry_cell_setting	triclinic
loop_
_symmetry_equiv_pos_as_xyz
  x,y,z
_cell_length_a	33.843
_cell_length_b	9.954
_cell_length_c	35.817
_cell_angle_alpha	90
_cell_angle_beta	106.562
_cell_angle_gamma	90
loop_
_atom_site_label
_atom_site_type_symbol
_atom_site_fract_x
_atom_site_fract_y
_atom_site_fract_z
_atom_site_charge
Mof_Zn	Zn	0.87268	0.43594	0.14406	1.246
Mof_Zn	Zn	0.8611	0.67895	0.07371	1.237
Mof_Zn	Zn	0.09273	0.99573	0.12875	1.232
Mof_Zn	Zn	0.16658	0.75199	0.15989	1.249
Mof_O 	O 	0.8748	0.2325	0.1455	-0.271
Mof_O 	O 	0.8	0.8225	0.0434	-0.314
Mof_O 	O 	0.8574	0.7838	0.0276	-0.419
Mof_O 	O 	0.9205	0.4351	0.1224	-0.47
Mof_O 	O 	0.9192	0.6228	0.0875	-0.467
Mof_O 	O 	0.8586	0.7512	0.1236	-0.476
Mof_O 	O 	0.8809	0.6067	0.1741	-0.444
Mof_O 	O 	0.6775	0.9746	0.9382	-0.481
Mof_O 	O 	0.6851	0.0514	0.8832	-0.466
Mof_O 	O 	0.0604	0.8266	0.1194	-0.452
Mof_O 	O 	0.1141	0.6903	0.1234	-0.461
Mof_O 	O 	0.888	0.004	0.3133	-0.446
Mof_O 	O 	0.8623	0.7983	0.2991	-0.474
Mof_O 	O 	0.8218	0.0794	0.8641	-0.489
Mof_O 	O 	0.8771	0.0124	0.9114	-0.45
Mof_O 	O 	0.0389	0.1187	0.1117	-0.375
Mof_O 	O 	0.0987	0.2142	0.1273	-0.366
Mof_C 	C 	0.8765	0.222	0.1731	-0.116
Mof_O 	O 	0.8799	0.3144	0.1945	-0.359
Mof_C 	C 	0.8719	0.0793	0.1946	-0.178
Mof_C 	C 	0.8743	0.0577	0.2342	0.103
Mof_H 	H 	0.8767	0.1311	0.2507	0.035
Mof_C 	C 	0.8731	0.9277	0.2491	-0.154
Mof_C 	C 	0.8736	0.8148	0.2247	0.094
Mof_H 	H 	0.875	0.7276	0.2343	0.037
Mof_C 	C 	0.872	0.8386	0.1862	-0.155
Mof_C 	C 	0.8715	0.9668	0.1718	0.119
Mof_H 	H 	0.8709	0.9783	0.1458	0.028
Mof_C 	C 	0.8207	0.8324	0.02	0.312
Mof_C 	C 	0.8033	0.9059	0.9825	-0.102
Mof_C 	C 	0.7633	0.9309	0.9699	0.066
Mof_H 	H 	0.7467	0.9093	0.9857	0.041
Mof_C 	C 	0.7448	0.9898	0.9327	-0.124
Mof_C 	C 	0.7699	0.0288	0.9105	0.058
Mof_H 	H 	0.759	0.0728	0.8869	0.052
Mof_C 	C 	0.8124	0.0012	0.9239	-0.106
Mof_C 	C 	0.9366	0.5182	0.1056	0.414
Mof_C 	C 	0.8286	0.94	0.9597	0.055
Mof_H 	H 	0.8566	0.9215	0.9685	0.054
Mof_C 	C 	0.9809	0.4999	0.1079	-0.135
Mof_C 	C 	0.9981	0.3701	0.1096	0.068
Mof_H 	H 	0.9814	0.2948	0.1079	0.046
Mof_C 	C 	0.0394	0.3554	0.1139	-0.101
Mof_C 	C 	0.0636	0.4654	0.1157	0.061
Mof_H 	H 	0.0915	0.4544	0.1182	0.048
Mof_C 	C 	0.0475	0.5932	0.1139	-0.124
Mof_C 	C 	0.0059	0.6087	0.1095	0.081
Mof_H 	H 	0.9947	0.6947	0.1076	0.039
Mof_C 	C 	0.0766	0.7136	0.1196	0.401
Mof_C 	C 	0.8725	0.9082	0.2898	0.407
Mof_C 	C 	0.8394	0.0366	0.897	0.389
Mof_C 	C 	0.061	0.2193	0.1175	0.337
Mof_C 	C 	0.6998	0.0085	0.9173	0.403
Mof_C 	C 	0.8708	0.7223	0.1599	0.403
Mof_O 	O 	0.1999	0.689	0.1239	-0.386
Mof_N 	N 	0.2316	0.526	0.087	-0.222
Mof_C 	C 	0.1942	0.587	0.1004	-0.19
Mof_C 	C 	0.1625	0.485	0.0882	0.06
Mof_C 	C 	0.1802	0.387	0.0706	-0.016
Mof_C 	C 	0.2189	0.431	0.0584	0.1
Mof_C 	C 	0.2744	0.621	0.0972	-0.351
Mof_C 	C 	0.8634	0.219	0.1858	0.546
Mof_O 	O 	0.843	0.31	0.1994	-0.21
Mof_O 	O 	0.1919	0.585	0.1669	-0.423
Mof_N 	N 	0.1969	0.641	0.1	0.145
Mof_C 	C 	0.2113	0.562	0.1406	0.384
Mof_C 	C 	0.2561	0.557	0.1465	-0.222
Mof_C 	C 	0.262	0.581	0.1106	0.501
Mof_C 	C 	0.2249	0.635	0.0781	0.127
Mof_C 	C 	0.1454	0.629	0.0784	0.031
Mof_Zn	Zn	0.37268	0.93594	0.14406	1.244
Mof_Zn	Zn	0.3611	0.17895	0.07371	1.236
Mof_Zn	Zn	0.59273	0.49573	0.12875	1.233
Mof_Zn	Zn	0.66658	0.25199	0.15989	1.248
Mof_O 	O 	0.3748	0.7325	0.1455	-0.276
Mof_O 	O 	0.3	0.3225	0.0434	-0.314
Mof_O 	O 	0.3574	0.2838	0.0276	-0.419
Mof_O 	O 	0.4205	0.9351	0.1224	-0.478
Mof_O 	O 	0.4192	0.1228	0.0875	-0.47
Mof_O 	O 	0.3586	0.2512	0.1236	-0.476
Mof_O 	O 	0.3809	0.1067	0.1741	-0.442
Mof_O 	O 	0.1775	0.4746	0.9382	-0.487
Mof_O 	O 	0.1851	0.5514	0.8832	-0.468
Mof_O 	O 	0.5604	0.3266	0.1194	-0.452
Mof_O 	O 	0.6141	0.1903	0.1234	-0.461
Mof_O 	O 	0.388	0.504	0.3133	-0.456
Mof_O 	O 	0.3623	0.2983	0.2991	-0.475
Mof_O 	O 	0.3218	0.5794	0.8641	-0.487
Mof_O 	O 	0.3771	0.5124	0.9114	-0.449
Mof_O 	O 	0.5389	0.6187	0.1117	-0.377
Mof_O 	O 	0.5987	0.7142	0.1273	-0.369
Mof_C 	C 	0.3765	0.722	0.1731	-0.111
Mof_O 	O 	0.3799	0.8144	0.1945	-0.361
Mof_C 	C 	0.3719	0.5793	0.1946	-0.185
Mof_C 	C 	0.3743	0.5577	0.2342	0.095
Mof_H 	H 	0.3767	0.6311	0.2507	0.036
Mof_C 	C 	0.3731	0.4277	0.2491	-0.147
Mof_C 	C 	0.3736	0.3148	0.2247	0.094
Mof_H 	H 	0.375	0.2276	0.2343	0.038
Mof_C 	C 	0.372	0.3386	0.1862	-0.157
Mof_C 	C 	0.3715	0.4668	0.1718	0.13
Mof_H 	H 	0.3709	0.4783	0.1458	0.026
Mof_C 	C 	0.3207	0.3324	0.02	0.313
Mof_C 	C 	0.3033	0.4059	0.9825	-0.105
Mof_C 	C 	0.2633	0.4309	0.9699	0.071
Mof_H 	H 	0.2467	0.4093	0.9857	0.039
Mof_C 	C 	0.2448	0.4898	0.9327	-0.136
Mof_C 	C 	0.2699	0.5288	0.9105	0.067
Mof_H 	H 	0.259	0.5728	0.8869	0.05
Mof_C 	C 	0.3124	0.5012	0.9239	-0.106
Mof_C 	C 	0.4366	0.0182	0.1056	0.426
Mof_C 	C 	0.3286	0.44	0.9597	0.053
Mof_H 	H 	0.3566	0.4215	0.9685	0.054
Mof_C 	C 	0.4809	0.9999	0.1079	-0.149
Mof_C 	C 	0.4981	0.8701	0.1096	0.074
Mof_H 	H 	0.4814	0.7948	0.1079	0.044
Mof_C 	C 	0.5394	0.8554	0.1139	-0.104
Mof_C 	C 	0.5636	0.9654	0.1157	0.057
Mof_H 	H 	0.5915	0.9544	0.1182	0.048
Mof_C 	C 	0.5475	0.0932	0.1139	-0.122
Mof_C 	C 	0.5059	0.1087	0.1095	0.091
Mof_H 	H 	0.4947	0.1947	0.1076	0.037
Mof_C 	C 	0.5766	0.2136	0.1196	0.401
Mof_C 	C 	0.3725	0.4082	0.2898	0.414
Mof_C 	C 	0.3394	0.5366	0.897	0.389
Mof_C 	C 	0.561	0.7193	0.1175	0.338
Mof_C 	C 	0.1998	0.5085	0.9173	0.412
Mof_C 	C 	0.3708	0.2223	0.1599	0.404
Mof_O 	O 	0.6999	0.189	0.1239	-0.388
Mof_N 	N 	0.7316	0.026	0.087	-0.218
Mof_C 	C 	0.6942	0.087	0.1004	-0.198
Mof_C 	C 	0.6625	0.985	0.0882	0.056
Mof_C 	C 	0.6802	0.887	0.0706	-0.016
Mof_C 	C 	0.7189	0.931	0.0584	0.096
Mof_C 	C 	0.7744	0.121	0.0972	-0.345
Mof_C 	C 	0.3634	0.719	0.1858	0.544
Mof_O 	O 	0.343	0.81	0.1994	-0.211
Mof_O 	O 	0.6919	0.085	0.1669	-0.422
Mof_N 	N 	0.6969	0.141	0.1	0.152
Mof_C 	C 	0.7113	0.062	0.1406	0.388
Mof_C 	C 	0.7561	0.057	0.1465	-0.218
Mof_C 	C 	0.762	0.081	0.1106	0.494
Mof_C 	C 	0.7249	0.135	0.0781	0.126
Mof_C 	C 	0.6454	0.129	0.0784	0.034
Mof_Zn	Zn	0.12732	0.43594	0.35594	1.245
Mof_Zn	Zn	0.1389	0.67895	0.42629	1.236
Mof_Zn	Zn	0.90727	0.99573	0.37125	1.231
Mof_Zn	Zn	0.83342	0.75199	0.34011	1.248
Mof_O 	O 	0.1252	0.2325	0.3545	-0.272
Mof_O 	O 	0.2	0.8225	0.4566	-0.315
Mof_O 	O 	0.1426	0.7838	0.4724	-0.42
Mof_O 	O 	0.0795	0.4351	0.3776	-0.471
Mof_O 	O 	0.0808	0.6228	0.4125	-0.468
Mof_O 	O 	0.1414	0.7512	0.3764	-0.477
Mof_O 	O 	0.1191	0.6067	0.3259	-0.445
Mof_O 	O 	0.3225	0.9746	0.5618	-0.482
Mof_O 	O 	0.3149	0.0514	0.6168	-0.467
Mof_O 	O 	0.9396	0.8266	0.3806	-0.453
Mof_O 	O 	0.8859	0.6903	0.3766	-0.462
Mof_O 	O 	0.112	0.004	0.1867	-0.447
Mof_O 	O 	0.1377	0.7983	0.2009	-0.474
Mof_O 	O 	0.1782	0.0794	0.6359	-0.489
Mof_O 	O 	0.1229	0.0124	0.5886	-0.45
Mof_O 	O 	0.9611	0.1187	0.3883	-0.375
Mof_O 	O 	0.9013	0.2142	0.3727	-0.367
Mof_C 	C 	0.1235	0.222	0.3269	-0.116
Mof_O 	O 	0.1201	0.3144	0.3055	-0.359
Mof_C 	C 	0.1281	0.0793	0.3054	-0.178
Mof_C 	C 	0.1257	0.0577	0.2658	0.103
Mof_H 	H 	0.1233	0.1311	0.2493	0.035
Mof_C 	C 	0.1269	0.9277	0.2509	-0.154
Mof_C 	C 	0.1264	0.8148	0.2753	0.094
Mof_H 	H 	0.125	0.7276	0.2657	0.037
Mof_C 	C 	0.128	0.8386	0.3138	-0.155
Mof_C 	C 	0.1285	0.9668	0.3282	0.119
Mof_H 	H 	0.1291	0.9783	0.3542	0.028
Mof_C 	C 	0.1793	0.8324	0.48	0.313
Mof_C 	C 	0.1967	0.9059	0.5175	-0.103
Mof_C 	C 	0.2367	0.9309	0.5301	0.066
Mof_H 	H 	0.2533	0.9093	0.5143	0.041
Mof_C 	C 	0.2552	0.9898	0.5673	-0.125
Mof_C 	C 	0.2301	0.0288	0.5895	0.059
Mof_H 	H 	0.241	0.0728	0.6131	0.052
Mof_C 	C 	0.1876	0.0012	0.5761	-0.106
Mof_C 	C 	0.0634	0.5182	0.3944	0.414
Mof_C 	C 	0.1714	0.94	0.5403	0.055
Mof_H 	H 	0.1434	0.9215	0.5315	0.054
Mof_C 	C 	0.0191	0.4999	0.3921	-0.135
Mof_C 	C 	0.0019	0.3701	0.3904	0.068
Mof_H 	H 	0.0186	0.2948	0.3921	0.046
Mof_C 	C 	0.9606	0.3554	0.3861	-0.101
Mof_C 	C 	0.9364	0.4654	0.3843	0.061
Mof_H 	H 	0.9085	0.4544	0.3818	0.048
Mof_C 	C 	0.9525	0.5932	0.3861	-0.124
Mof_C 	C 	0.9941	0.6087	0.3905	0.081
Mof_H 	H 	0.0053	0.6947	0.3924	0.04
Mof_C 	C 	0.9234	0.7136	0.3804	0.401
Mof_C 	C 	0.1275	0.9082	0.2102	0.407
Mof_C 	C 	0.1606	0.0366	0.603	0.389
Mof_C 	C 	0.939	0.2193	0.3825	0.337
Mof_C 	C 	0.3002	0.0085	0.5827	0.404
Mof_C 	C 	0.1292	0.7223	0.3401	0.403
Mof_O 	O 	0.8001	0.689	0.3761	-0.386
Mof_N 	N 	0.7684	0.526	0.413	-0.222
Mof_C 	C 	0.8058	0.587	0.3996	-0.19
Mof_C 	C 	0.8375	0.485	0.4118	0.06
Mof_C 	C 	0.8198	0.387	0.4294	-0.016
Mof_C 	C 	0.7811	0.431	0.4416	0.1
Mof_C 	C 	0.7256	0.621	0.4028	-0.351
Mof_C 	C 	0.1366	0.219	0.3142	0.546
Mof_O 	O 	0.157	0.31	0.3006	-0.21
Mof_O 	O 	0.8081	0.585	0.3331	-0.423
Mof_N 	N 	0.8031	0.641	0.4	0.145
Mof_C 	C 	0.7887	0.562	0.3594	0.384
Mof_C 	C 	0.7439	0.557	0.3535	-0.222
Mof_C 	C 	0.738	0.581	0.3894	0.501
Mof_C 	C 	0.7751	0.635	0.4219	0.127
Mof_C 	C 	0.8546	0.629	0.4216	0.031
Mof_Zn	Zn	0.62732	0.93594	0.35594	1.244
Mof_Zn	Zn	0.6389	0.17895	0.42629	1.236
Mof_Zn	Zn	0.40727	0.49573	0.37125	1.233
Mof_Zn	Zn	0.33342	0.25199	0.34011	1.248
Mof_O 	O 	0.6252	0.7325	0.3545	-0.276
Mof_O 	O 	0.7	0.3225	0.4566	-0.314
Mof_O 	O 	0.6426	0.2838	0.4724	-0.419
Mof_O 	O 	0.5795	0.9351	0.3776	-0.478
Mof_O 	O 	0.5808	0.1228	0.4125	-0.47
Mof_O 	O 	0.6414	0.2512	0.3764	-0.476
Mof_O 	O 	0.6191	0.1067	0.3259	-0.442
Mof_O 	O 	0.8225	0.4746	0.5618	-0.487
Mof_O 	O 	0.8149	0.5514	0.6168	-0.468
Mof_O 	O 	0.4396	0.3266	0.3806	-0.452
Mof_O 	O 	0.3859	0.1903	0.3766	-0.461
Mof_O 	O 	0.612	0.504	0.1867	-0.456
Mof_O 	O 	0.6377	0.2983	0.2009	-0.475
Mof_O 	O 	0.6782	0.5794	0.6359	-0.487
Mof_O 	O 	0.6229	0.5124	0.5886	-0.449
Mof_O 	O 	0.4611	0.6187	0.3883	-0.377
Mof_O 	O 	0.4013	0.7142	0.3727	-0.369
Mof_C 	C 	0.6235	0.722	0.3269	-0.111
Mof_O 	O 	0.6201	0.8144	0.3055	-0.361
Mof_C 	C 	0.6281	0.5793	0.3054	-0.185
Mof_C 	C 	0.6257	0.5577	0.2658	0.095
Mof_H 	H 	0.6233	0.6311	0.2493	0.036
Mof_C 	C 	0.6269	0.4277	0.2509	-0.147
Mof_C 	C 	0.6264	0.3148	0.2753	0.094
Mof_H 	H 	0.625	0.2276	0.2657	0.038
Mof_C 	C 	0.628	0.3386	0.3138	-0.157
Mof_C 	C 	0.6285	0.4668	0.3282	0.13
Mof_H 	H 	0.6291	0.4783	0.3542	0.026
Mof_C 	C 	0.6793	0.3324	0.48	0.313
Mof_C 	C 	0.6967	0.4059	0.5175	-0.104
Mof_C 	C 	0.7367	0.4309	0.5301	0.071
Mof_H 	H 	0.7533	0.4093	0.5143	0.039
Mof_C 	C 	0.7552	0.4898	0.5673	-0.136
Mof_C 	C 	0.7301	0.5288	0.5895	0.067
Mof_H 	H 	0.741	0.5728	0.6131	0.05
Mof_C 	C 	0.6876	0.5012	0.5761	-0.106
Mof_C 	C 	0.5634	0.0182	0.3944	0.426
Mof_C 	C 	0.6714	0.44	0.5403	0.053
Mof_H 	H 	0.6434	0.4215	0.5315	0.054
Mof_C 	C 	0.5191	0.9999	0.3921	-0.148
Mof_C 	C 	0.5019	0.8701	0.3904	0.073
Mof_H 	H 	0.5186	0.7948	0.3921	0.044
Mof_C 	C 	0.4606	0.8554	0.3861	-0.104
Mof_C 	C 	0.4364	0.9654	0.3843	0.057
Mof_H 	H 	0.4085	0.9544	0.3818	0.048
Mof_C 	C 	0.4525	0.0932	0.3861	-0.122
Mof_C 	C 	0.4941	0.1087	0.3905	0.09
Mof_H 	H 	0.5053	0.1947	0.3924	0.037
Mof_C 	C 	0.4234	0.2136	0.3804	0.401
Mof_C 	C 	0.6275	0.4082	0.2102	0.414
Mof_C 	C 	0.6606	0.5366	0.603	0.389
Mof_C 	C 	0.439	0.7193	0.3825	0.338
Mof_C 	C 	0.8002	0.5085	0.5827	0.412
Mof_C 	C 	0.6292	0.2223	0.3401	0.404
Mof_O 	O 	0.3001	0.189	0.3761	-0.388
Mof_N 	N 	0.2684	0.026	0.413	-0.218
Mof_C 	C 	0.3058	0.087	0.3996	-0.197
Mof_C 	C 	0.3375	0.985	0.4118	0.056
Mof_C 	C 	0.3198	0.887	0.4294	-0.016
Mof_C 	C 	0.2811	0.931	0.4416	0.097
Mof_C 	C 	0.2256	0.121	0.4028	-0.345
Mof_C 	C 	0.6366	0.719	0.3142	0.544
Mof_O 	O 	0.657	0.81	0.3006	-0.211
Mof_O 	O 	0.3081	0.085	0.3331	-0.422
Mof_N 	N 	0.3031	0.141	0.4	0.151
Mof_C 	C 	0.2887	0.062	0.3594	0.387
Mof_C 	C 	0.2439	0.057	0.3535	-0.218
Mof_C 	C 	0.238	0.081	0.3894	0.495
Mof_C 	C 	0.2751	0.135	0.4219	0.126
Mof_C 	C 	0.3546	0.129	0.4216	0.034
Mof_Zn	Zn	0.12732	0.56406	0.85594	1.245
Mof_Zn	Zn	0.1389	0.32105	0.92629	1.236
Mof_Zn	Zn	0.90727	0.00427	0.87125	1.231
Mof_Zn	Zn	0.83342	0.24801	0.84011	1.248
Mof_O 	O 	0.1252	0.7675	0.8545	-0.272
Mof_O 	O 	0.2	0.1775	0.9566	-0.315
Mof_O 	O 	0.1426	0.2162	0.9724	-0.42
Mof_O 	O 	0.0795	0.5649	0.8776	-0.471
Mof_O 	O 	0.0808	0.3772	0.9125	-0.468
Mof_O 	O 	0.1414	0.2488	0.8764	-0.477
Mof_O 	O 	0.1191	0.3933	0.8259	-0.445
Mof_O 	O 	0.3225	0.0254	0.0618	-0.482
Mof_O 	O 	0.3149	0.9486	0.1168	-0.467
Mof_O 	O 	0.9396	0.1734	0.8806	-0.453
Mof_O 	O 	0.8859	0.3097	0.8766	-0.462
Mof_O 	O 	0.112	0.996	0.6867	-0.447
Mof_O 	O 	0.1377	0.2017	0.7009	-0.474
Mof_O 	O 	0.1782	0.9206	0.1359	-0.489
Mof_O 	O 	0.1229	0.9876	0.0886	-0.45
Mof_O 	O 	0.9611	0.8813	0.8883	-0.375
Mof_O 	O 	0.9013	0.7858	0.8727	-0.366
Mof_C 	C 	0.1235	0.778	0.8269	-0.116
Mof_O 	O 	0.1201	0.6856	0.8055	-0.359
Mof_C 	C 	0.1281	0.9207	0.8054	-0.178
Mof_C 	C 	0.1257	0.9423	0.7658	0.103
Mof_H 	H 	0.1233	0.8689	0.7493	0.035
Mof_C 	C 	0.1269	0.0723	0.7509	-0.154
Mof_C 	C 	0.1264	0.1852	0.7753	0.094
Mof_H 	H 	0.125	0.2724	0.7657	0.037
Mof_C 	C 	0.128	0.1614	0.8138	-0.155
Mof_C 	C 	0.1285	0.0332	0.8282	0.119
Mof_H 	H 	0.1291	0.0217	0.8542	0.028
Mof_C 	C 	0.1793	0.1676	0.98	0.312
Mof_C 	C 	0.1967	0.0941	0.0175	-0.102
Mof_C 	C 	0.2367	0.0691	0.0301	0.066
Mof_H 	H 	0.2533	0.0907	0.0143	0.041
Mof_C 	C 	0.2552	0.0102	0.0673	-0.124
Mof_C 	C 	0.2301	0.9712	0.0895	0.058
Mof_H 	H 	0.241	0.9272	0.1131	0.052
Mof_C 	C 	0.1876	0.9988	0.0761	-0.106
Mof_C 	C 	0.0634	0.4818	0.8944	0.414
Mof_C 	C 	0.1714	0.06	0.0403	0.055
Mof_H 	H 	0.1434	0.0785	0.0315	0.054
Mof_C 	C 	0.0191	0.5001	0.8921	-0.135
Mof_C 	C 	0.0019	0.6299	0.8904	0.068
Mof_H 	H 	0.0186	0.7052	0.8921	0.046
Mof_C 	C 	0.9606	0.6446	0.8861	-0.101
Mof_C 	C 	0.9364	0.5346	0.8843	0.061
Mof_H 	H 	0.9085	0.5456	0.8818	0.048
Mof_C 	C 	0.9525	0.4068	0.8861	-0.124
Mof_C 	C 	0.9941	0.3913	0.8905	0.081
Mof_H 	H 	0.0053	0.3053	0.8924	0.039
Mof_C 	C 	0.9234	0.2864	0.8804	0.401
Mof_C 	C 	0.1275	0.0918	0.7102	0.407
Mof_C 	C 	0.1606	0.9634	0.103	0.389
Mof_C 	C 	0.939	0.7807	0.8825	0.337
Mof_C 	C 	0.3002	0.9915	0.0827	0.403
Mof_C 	C 	0.1292	0.2777	0.8401	0.403
Mof_O 	O 	0.8001	0.311	0.8761	-0.386
Mof_N 	N 	0.7684	0.474	0.913	-0.222
Mof_C 	C 	0.8058	0.413	0.8996	-0.19
Mof_C 	C 	0.8375	0.515	0.9118	0.06
Mof_C 	C 	0.8198	0.613	0.9294	-0.016
Mof_C 	C 	0.7811	0.569	0.9416	0.1
Mof_C 	C 	0.7256	0.379	0.9028	-0.351
Mof_C 	C 	0.1366	0.781	0.8142	0.546
Mof_O 	O 	0.157	0.69	0.8006	-0.21
Mof_O 	O 	0.8081	0.415	0.8331	-0.423
Mof_N 	N 	0.8031	0.359	0.9	0.145
Mof_C 	C 	0.7887	0.438	0.8594	0.384
Mof_C 	C 	0.7439	0.443	0.8535	-0.222
Mof_C 	C 	0.738	0.419	0.8894	0.501
Mof_C 	C 	0.7751	0.365	0.9219	0.127
Mof_C 	C 	0.8546	0.371	0.9216	0.031
Mof_Zn	Zn	0.62732	0.06406	0.85594	1.244
Mof_Zn	Zn	0.6389	0.82105	0.92629	1.236
Mof_Zn	Zn	0.40727	0.50427	0.87125	1.233
Mof_Zn	Zn	0.33342	0.74801	0.84011	1.248
Mof_O 	O 	0.6252	0.2675	0.8545	-0.276
Mof_O 	O 	0.7	0.6775	0.9566	-0.314
Mof_O 	O 	0.6426	0.7162	0.9724	-0.419
Mof_O 	O 	0.5795	0.0649	0.8776	-0.478
Mof_O 	O 	0.5808	0.8772	0.9125	-0.47
Mof_O 	O 	0.6414	0.7488	0.8764	-0.476
Mof_O 	O 	0.6191	0.8933	0.8259	-0.442
Mof_O 	O 	0.8225	0.5254	0.0618	-0.487
Mof_O 	O 	0.8149	0.4486	0.1168	-0.468
Mof_O 	O 	0.4396	0.6734	0.8806	-0.452
Mof_O 	O 	0.3859	0.8097	0.8766	-0.461
Mof_O 	O 	0.612	0.496	0.6867	-0.456
Mof_O 	O 	0.6377	0.7017	0.7009	-0.475
Mof_O 	O 	0.6782	0.4206	0.1359	-0.487
Mof_O 	O 	0.6229	0.4876	0.0886	-0.449
Mof_O 	O 	0.4611	0.3813	0.8883	-0.377
Mof_O 	O 	0.4013	0.2858	0.8727	-0.369
Mof_C 	C 	0.6235	0.278	0.8269	-0.111
Mof_O 	O 	0.6201	0.1856	0.8055	-0.361
Mof_C 	C 	0.6281	0.4207	0.8054	-0.185
Mof_C 	C 	0.6257	0.4423	0.7658	0.095
Mof_H 	H 	0.6233	0.3689	0.7493	0.036
Mof_C 	C 	0.6269	0.5723	0.7509	-0.147
Mof_C 	C 	0.6264	0.6852	0.7753	0.094
Mof_H 	H 	0.625	0.7724	0.7657	0.038
Mof_C 	C 	0.628	0.6614	0.8138	-0.157
Mof_C 	C 	0.6285	0.5332	0.8282	0.13
Mof_H 	H 	0.6291	0.5217	0.8542	0.026
Mof_C 	C 	0.6793	0.6676	0.98	0.313
Mof_C 	C 	0.6967	0.5941	0.0175	-0.105
Mof_C 	C 	0.7367	0.5691	0.0301	0.071
Mof_H 	H 	0.7533	0.5907	0.0143	0.039
Mof_C 	C 	0.7552	0.5102	0.0673	-0.136
Mof_C 	C 	0.7301	0.4712	0.0895	0.067
Mof_H 	H 	0.741	0.4272	0.1131	0.05
Mof_C 	C 	0.6876	0.4988	0.0761	-0.106
Mof_C 	C 	0.5634	0.9818	0.8944	0.426
Mof_C 	C 	0.6714	0.56	0.0403	0.053
Mof_H 	H 	0.6434	0.5785	0.0315	0.054
Mof_C 	C 	0.5191	0.0001	0.8921	-0.149
Mof_C 	C 	0.5019	0.1299	0.8904	0.074
Mof_H 	H 	0.5186	0.2052	0.8921	0.044
Mof_C 	C 	0.4606	0.1446	0.8861	-0.104
Mof_C 	C 	0.4364	0.0346	0.8843	0.057
Mof_H 	H 	0.4085	0.0456	0.8818	0.048
Mof_C 	C 	0.4525	0.9068	0.8861	-0.122
Mof_C 	C 	0.4941	0.8913	0.8905	0.091
Mof_H 	H 	0.5053	0.8053	0.8924	0.037
Mof_C 	C 	0.4234	0.7864	0.8804	0.401
Mof_C 	C 	0.6275	0.5918	0.7102	0.414
Mof_C 	C 	0.6606	0.4634	0.103	0.389
Mof_C 	C 	0.439	0.2807	0.8825	0.338
Mof_C 	C 	0.8002	0.4915	0.0827	0.412
Mof_C 	C 	0.6292	0.7777	0.8401	0.404
Mof_O 	O 	0.3001	0.811	0.8761	-0.388
Mof_N 	N 	0.2684	0.974	0.913	-0.218
Mof_C 	C 	0.3058	0.913	0.8996	-0.198
Mof_C 	C 	0.3375	0.015	0.9118	0.056
Mof_C 	C 	0.3198	0.113	0.9294	-0.016
Mof_C 	C 	0.2811	0.069	0.9416	0.096
Mof_C 	C 	0.2256	0.879	0.9028	-0.345
Mof_C 	C 	0.6366	0.281	0.8142	0.544
Mof_O 	O 	0.657	0.19	0.8006	-0.211
Mof_O 	O 	0.3081	0.915	0.8331	-0.422
Mof_N 	N 	0.3031	0.859	0.9	0.152
Mof_C 	C 	0.2887	0.938	0.8594	0.388
Mof_C 	C 	0.2439	0.943	0.8535	-0.218
Mof_C 	C 	0.238	0.919	0.8894	0.494
Mof_C 	C 	0.2751	0.865	0.9219	0.126
Mof_C 	C 	0.3546	0.871	0.9216	0.034
Mof_Zn	Zn	0.87268	0.56406	0.64406	1.245
Mof_Zn	Zn	0.8611	0.32105	0.57371	1.236
Mof_Zn	Zn	0.09273	0.00427	0.62875	1.231
Mof_Zn	Zn	0.16658	0.24801	0.65989	1.248
Mof_O 	O 	0.8748	0.7675	0.6455	-0.272
Mof_O 	O 	0.8	0.1775	0.5434	-0.315
Mof_O 	O 	0.8574	0.2162	0.5276	-0.42
Mof_O 	O 	0.9205	0.5649	0.6224	-0.471
Mof_O 	O 	0.9192	0.3772	0.5875	-0.468
Mof_O 	O 	0.8586	0.2488	0.6236	-0.477
Mof_O 	O 	0.8809	0.3933	0.6741	-0.445
Mof_O 	O 	0.6775	0.0254	0.4382	-0.482
Mof_O 	O 	0.6851	0.9486	0.3832	-0.467
Mof_O 	O 	0.0604	0.1734	0.6194	-0.453
Mof_O 	O 	0.1141	0.3097	0.6234	-0.462
Mof_O 	O 	0.888	0.996	0.8133	-0.447
Mof_O 	O 	0.8623	0.2017	0.7991	-0.474
Mof_O 	O 	0.8218	0.9206	0.3641	-0.489
Mof_O 	O 	0.8771	0.9876	0.4114	-0.45
Mof_O 	O 	0.0389	0.8813	0.6117	-0.375
Mof_O 	O 	0.0987	0.7858	0.6273	-0.367
Mof_C 	C 	0.8765	0.778	0.6731	-0.116
Mof_O 	O 	0.8799	0.6856	0.6945	-0.359
Mof_C 	C 	0.8719	0.9207	0.6946	-0.178
Mof_C 	C 	0.8743	0.9423	0.7342	0.103
Mof_H 	H 	0.8767	0.8689	0.7507	0.035
Mof_C 	C 	0.8731	0.0723	0.7491	-0.154
Mof_C 	C 	0.8736	0.1852	0.7247	0.094
Mof_H 	H 	0.875	0.2724	0.7343	0.037
Mof_C 	C 	0.872	0.1614	0.6862	-0.155
Mof_C 	C 	0.8715	0.0332	0.6718	0.119
Mof_H 	H 	0.8709	0.0217	0.6458	0.028
Mof_C 	C 	0.8207	0.1676	0.52	0.313
Mof_C 	C 	0.8033	0.0941	0.4825	-0.103
Mof_C 	C 	0.7633	0.0691	0.4699	0.066
Mof_H 	H 	0.7467	0.0907	0.4857	0.041
Mof_C 	C 	0.7448	0.0102	0.4327	-0.125
Mof_C 	C 	0.7699	0.9712	0.4105	0.059
Mof_H 	H 	0.759	0.9272	0.3869	0.052
Mof_C 	C 	0.8124	0.9988	0.4239	-0.106
Mof_C 	C 	0.9366	0.4818	0.6056	0.414
Mof_C 	C 	0.8286	0.06	0.4597	0.055
Mof_H 	H 	0.8566	0.0785	0.4685	0.054
Mof_C 	C 	0.9809	0.5001	0.6079	-0.135
Mof_C 	C 	0.9981	0.6299	0.6096	0.068
Mof_H 	H 	0.9814	0.7052	0.6079	0.046
Mof_C 	C 	0.0394	0.6446	0.6139	-0.101
Mof_C 	C 	0.0636	0.5346	0.6157	0.061
Mof_H 	H 	0.0915	0.5456	0.6182	0.048
Mof_C 	C 	0.0475	0.4068	0.6139	-0.124
Mof_C 	C 	0.0059	0.3913	0.6095	0.081
Mof_H 	H 	0.9947	0.3053	0.6076	0.04
Mof_C 	C 	0.0766	0.2864	0.6196	0.401
Mof_C 	C 	0.8725	0.0918	0.7898	0.407
Mof_C 	C 	0.8394	0.9634	0.397	0.389
Mof_C 	C 	0.061	0.7807	0.6175	0.337
Mof_C 	C 	0.6998	0.9915	0.4173	0.404
Mof_C 	C 	0.8708	0.2777	0.6599	0.403
Mof_O 	O 	0.1999	0.311	0.6239	-0.386
Mof_N 	N 	0.2316	0.474	0.587	-0.222
Mof_C 	C 	0.1942	0.413	0.6004	-0.19
Mof_C 	C 	0.1625	0.515	0.5882	0.06
Mof_C 	C 	0.1802	0.613	0.5706	-0.016
Mof_C 	C 	0.2189	0.569	0.5584	0.1
Mof_C 	C 	0.2744	0.379	0.5972	-0.351
Mof_C 	C 	0.8634	0.781	0.6858	0.546
Mof_O 	O 	0.843	0.69	0.6994	-0.21
Mof_O 	O 	0.1919	0.415	0.6669	-0.423
Mof_N 	N 	0.1969	0.359	0.6	0.145
Mof_C 	C 	0.2113	0.438	0.6406	0.384
Mof_C 	C 	0.2561	0.443	0.6465	-0.222
Mof_C 	C 	0.262	0.419	0.6106	0.501
Mof_C 	C 	0.2249	0.365	0.5781	0.127
Mof_C 	C 	0.1454	0.371	0.5784	0.031
Mof_Zn	Zn	0.37268	0.06406	0.64406	1.244
Mof_Zn	Zn	0.3611	0.82105	0.57371	1.236
Mof_Zn	Zn	0.59273	0.50427	0.62875	1.233
Mof_Zn	Zn	0.66658	0.74801	0.65989	1.248
Mof_O 	O 	0.3748	0.2675	0.6455	-0.276
Mof_O 	O 	0.3	0.6775	0.5434	-0.314
Mof_O 	O 	0.3574	0.7162	0.5276	-0.419
Mof_O 	O 	0.4205	0.0649	0.6224	-0.478
Mof_O 	O 	0.4192	0.8772	0.5875	-0.47
Mof_O 	O 	0.3586	0.7488	0.6236	-0.476
Mof_O 	O 	0.3809	0.8933	0.6741	-0.442
Mof_O 	O 	0.1775	0.5254	0.4382	-0.487
Mof_O 	O 	0.1851	0.4486	0.3832	-0.468
Mof_O 	O 	0.5604	0.6734	0.6194	-0.452
Mof_O 	O 	0.6141	0.8097	0.6234	-0.461
Mof_O 	O 	0.388	0.496	0.8133	-0.456
Mof_O 	O 	0.3623	0.7017	0.7991	-0.475
Mof_O 	O 	0.3218	0.4206	0.3641	-0.487
Mof_O 	O 	0.3771	0.4876	0.4114	-0.449
Mof_O 	O 	0.5389	0.3813	0.6117	-0.377
Mof_O 	O 	0.5987	0.2858	0.6273	-0.369
Mof_C 	C 	0.3765	0.278	0.6731	-0.111
Mof_O 	O 	0.3799	0.1856	0.6945	-0.361
Mof_C 	C 	0.3719	0.4207	0.6946	-0.185
Mof_C 	C 	0.3743	0.4423	0.7342	0.095
Mof_H 	H 	0.3767	0.3689	0.7507	0.036
Mof_C 	C 	0.3731	0.5723	0.7491	-0.147
Mof_C 	C 	0.3736	0.6852	0.7247	0.094
Mof_H 	H 	0.375	0.7724	0.7343	0.038
Mof_C 	C 	0.372	0.6614	0.6862	-0.157
Mof_C 	C 	0.3715	0.5332	0.6718	0.13
Mof_H 	H 	0.3709	0.5217	0.6458	0.026
Mof_C 	C 	0.3207	0.6676	0.52	0.313
Mof_C 	C 	0.3033	0.5941	0.4825	-0.104
Mof_C 	C 	0.2633	0.5691	0.4699	0.071
Mof_H 	H 	0.2467	0.5907	0.4857	0.039
Mof_C 	C 	0.2448	0.5102	0.4327	-0.136
Mof_C 	C 	0.2699	0.4712	0.4105	0.067
Mof_H 	H 	0.259	0.4272	0.3869	0.05
Mof_C 	C 	0.3124	0.4988	0.4239	-0.106
Mof_C 	C 	0.4366	0.9818	0.6056	0.426
Mof_C 	C 	0.3286	0.56	0.4597	0.053
Mof_H 	H 	0.3566	0.5785	0.4685	0.054
Mof_C 	C 	0.4809	0.0001	0.6079	-0.148
Mof_C 	C 	0.4981	0.1299	0.6096	0.073
Mof_H 	H 	0.4814	0.2052	0.6079	0.044
Mof_C 	C 	0.5394	0.1446	0.6139	-0.104
Mof_C 	C 	0.5636	0.0346	0.6157	0.057
Mof_H 	H 	0.5915	0.0456	0.6182	0.048
Mof_C 	C 	0.5475	0.9068	0.6139	-0.122
Mof_C 	C 	0.5059	0.8913	0.6095	0.09
Mof_H 	H 	0.4947	0.8053	0.6076	0.037
Mof_C 	C 	0.5766	0.7864	0.6196	0.401
Mof_C 	C 	0.3725	0.5918	0.7898	0.414
Mof_C 	C 	0.3394	0.4634	0.397	0.389
Mof_C 	C 	0.561	0.2807	0.6175	0.338
Mof_C 	C 	0.1998	0.4915	0.4173	0.412
Mof_C 	C 	0.3708	0.7777	0.6599	0.404
Mof_O 	O 	0.6999	0.811	0.6239	-0.388
Mof_N 	N 	0.7316	0.974	0.587	-0.218
Mof_C 	C 	0.6942	0.913	0.6004	-0.197
Mof_C 	C 	0.6625	0.015	0.5882	0.056
Mof_C 	C 	0.6802	0.113	0.5706	-0.016
Mof_C 	C 	0.7189	0.069	0.5584	0.097
Mof_C 	C 	0.7744	0.879	0.5972	-0.345
Mof_C 	C 	0.3634	0.281	0.6858	0.544
Mof_O 	O 	0.343	0.19	0.6994	-0.211
Mof_O 	O 	0.6919	0.915	0.6669	-0.422
Mof_N 	N 	0.6969	0.859	0.6	0.151
Mof_C 	C 	0.7113	0.938	0.6406	0.387
Mof_C 	C 	0.7561	0.943	0.6465	-0.218
Mof_C 	C 	0.762	0.919	0.6106	0.495
Mof_C 	C 	0.7249	0.865	0.5781	0.126
Mof_C 	C 	0.6454	0.871	0.5784	0.034
_end
