data_functionalizedCrystal
_audit_creation_method	'EQeq! by Chris Wilmer'
_symmetry_space_group_name_H-M	'P1'
_symmetry_Int_Tables_number	1
_symmetry_cell_setting	triclinic
loop_
_symmetry_equiv_pos_as_xyz
  x,y,z
_cell_length_a	22.0354
_cell_length_b	22.0354
_cell_length_c	22.0354
_cell_angle_alpha	90
_cell_angle_beta	90
_cell_angle_gamma	90
loop_
_atom_site_label
_atom_site_type_symbol
_atom_site_fract_x
_atom_site_fract_y
_atom_site_fract_z
_atom_site_charge
Mof_Mg	Mg	0.17839	0.23958	0.30571	1.475
Mof_C 	C 	0.982	0.2941	0.078	0.077
Mof_C 	C 	0.9306	0.2958	0.1125	-0.047
Mof_H 	H 	0.8932	0.2995	0.0934	0.069
Mof_C 	C 	0.9327	0.292	0.1749	-0.1
Mof_C 	C 	0.9886	0.2852	0.2017	0.04
Mof_H 	H 	0.991	0.2796	0.2435	0.038
Mof_C 	C 	0.0421	0.2866	0.1672	-0.096
Mof_C 	C 	0.0402	0.2883	0.1065	-0.039
Mof_H 	H 	0.0755	0.2858	0.0836	0.07
Mof_C 	C 	0.8733	0.2918	0.2079	0.429
Mof_C 	C 	0.1031	0.2779	0.1975	0.414
Mof_O 	O 	0.8276	0.3099	0.1779	-0.512
Mof_O 	O 	0.8739	0.2785	0.2633	-0.506
Mof_O 	O 	0.1489	0.2923	0.1661	-0.498
Mof_O 	O 	0.1052	0.2586	0.2517	-0.491
Mof_N 	N 	0.9765	0.2959	0.0142	-0.084
Mof_Mg	Mg	0.82161	0.76042	0.30571	1.476
Mof_C 	C 	0.018	0.7059	0.078	0.078
Mof_C 	C 	0.0694	0.7042	0.1125	-0.046
Mof_H 	H 	0.1068	0.7005	0.0934	0.07
Mof_C 	C 	0.0673	0.708	0.1749	-0.099
Mof_C 	C 	0.0114	0.7148	0.2017	0.041
Mof_H 	H 	0.009	0.7204	0.2435	0.039
Mof_C 	C 	0.9579	0.7134	0.1672	-0.095
Mof_C 	C 	0.9598	0.7117	0.1065	-0.038
Mof_H 	H 	0.9245	0.7142	0.0836	0.071
Mof_C 	C 	0.1267	0.7082	0.2079	0.43
Mof_C 	C 	0.8969	0.7221	0.1975	0.415
Mof_O 	O 	0.1724	0.6901	0.1779	-0.511
Mof_O 	O 	0.1261	0.7215	0.2633	-0.505
Mof_O 	O 	0.8511	0.7077	0.1661	-0.497
Mof_O 	O 	0.8948	0.7414	0.2517	-0.49
Mof_N 	N 	0.0235	0.7041	0.0142	-0.084
Mof_Mg	Mg	0.82161	0.23958	0.69429	1.476
Mof_C 	C 	0.018	0.2941	0.922	0.078
Mof_C 	C 	0.0694	0.2958	0.8875	-0.046
Mof_H 	H 	0.1068	0.2995	0.9066	0.07
Mof_C 	C 	0.0673	0.292	0.8251	-0.099
Mof_C 	C 	0.0114	0.2852	0.7983	0.041
Mof_H 	H 	0.009	0.2796	0.7565	0.039
Mof_C 	C 	0.9579	0.2866	0.8328	-0.095
Mof_C 	C 	0.9598	0.2883	0.8935	-0.038
Mof_H 	H 	0.9245	0.2858	0.9164	0.071
Mof_C 	C 	0.1267	0.2918	0.7921	0.43
Mof_C 	C 	0.8969	0.2779	0.8025	0.415
Mof_O 	O 	0.1724	0.3099	0.8221	-0.511
Mof_O 	O 	0.1261	0.2785	0.7367	-0.505
Mof_O 	O 	0.8511	0.2923	0.8339	-0.497
Mof_O 	O 	0.8948	0.2586	0.7483	-0.49
Mof_N 	N 	0.0235	0.2959	0.9858	-0.084
Mof_Mg	Mg	0.17839	0.76042	0.69429	1.476
Mof_C 	C 	0.982	0.7059	0.922	0.078
Mof_C 	C 	0.9306	0.7042	0.8875	-0.046
Mof_H 	H 	0.8932	0.7005	0.9066	0.07
Mof_C 	C 	0.9327	0.708	0.8251	-0.099
Mof_C 	C 	0.9886	0.7148	0.7983	0.041
Mof_H 	H 	0.991	0.7204	0.7565	0.039
Mof_C 	C 	0.0421	0.7134	0.8328	-0.095
Mof_C 	C 	0.0402	0.7117	0.8935	-0.038
Mof_H 	H 	0.0755	0.7142	0.9164	0.071
Mof_C 	C 	0.8733	0.7082	0.7921	0.43
Mof_C 	C 	0.1031	0.7221	0.8025	0.415
Mof_O 	O 	0.8276	0.6901	0.8221	-0.511
Mof_O 	O 	0.8739	0.7215	0.7367	-0.505
Mof_O 	O 	0.1489	0.7077	0.8339	-0.497
Mof_O 	O 	0.1052	0.7414	0.7483	-0.49
Mof_N 	N 	0.9765	0.7041	0.9858	-0.084
Mof_Mg	Mg	0.30571	0.17839	0.23958	1.476
Mof_C 	C 	0.078	0.982	0.2941	0.078
Mof_C 	C 	0.1125	0.9306	0.2958	-0.046
Mof_H 	H 	0.0934	0.8932	0.2995	0.07
Mof_C 	C 	0.1749	0.9327	0.292	-0.099
Mof_C 	C 	0.2017	0.9886	0.2852	0.041
Mof_H 	H 	0.2435	0.991	0.2796	0.039
Mof_C 	C 	0.1672	0.0421	0.2866	-0.095
Mof_C 	C 	0.1065	0.0402	0.2883	-0.038
Mof_H 	H 	0.0836	0.0755	0.2858	0.071
Mof_C 	C 	0.2079	0.8733	0.2918	0.43
Mof_C 	C 	0.1975	0.1031	0.2779	0.415
Mof_O 	O 	0.1779	0.8276	0.3099	-0.511
Mof_O 	O 	0.2633	0.8739	0.2785	-0.505
Mof_O 	O 	0.1661	0.1489	0.2923	-0.497
Mof_O 	O 	0.2517	0.1052	0.2586	-0.49
Mof_N 	N 	0.0142	0.9765	0.2959	-0.084
Mof_Mg	Mg	0.30571	0.82161	0.76042	1.476
Mof_C 	C 	0.078	0.018	0.7059	0.078
Mof_C 	C 	0.1125	0.0694	0.7042	-0.046
Mof_H 	H 	0.0934	0.1068	0.7005	0.07
Mof_C 	C 	0.1749	0.0673	0.708	-0.099
Mof_C 	C 	0.2017	0.0114	0.7148	0.041
Mof_H 	H 	0.2435	0.009	0.7204	0.039
Mof_C 	C 	0.1672	0.9579	0.7134	-0.095
Mof_C 	C 	0.1065	0.9598	0.7117	-0.038
Mof_H 	H 	0.0836	0.9245	0.7142	0.071
Mof_C 	C 	0.2079	0.1267	0.7082	0.43
Mof_C 	C 	0.1975	0.8969	0.7221	0.415
Mof_O 	O 	0.1779	0.1724	0.6901	-0.511
Mof_O 	O 	0.2633	0.1261	0.7215	-0.505
Mof_O 	O 	0.1661	0.8511	0.7077	-0.497
Mof_O 	O 	0.2517	0.8948	0.7414	-0.49
Mof_N 	N 	0.0142	0.0235	0.7041	-0.084
Mof_Mg	Mg	0.69429	0.82161	0.23958	1.476
Mof_C 	C 	0.922	0.018	0.2941	0.078
Mof_C 	C 	0.8875	0.0694	0.2958	-0.046
Mof_H 	H 	0.9066	0.1068	0.2995	0.07
Mof_C 	C 	0.8251	0.0673	0.292	-0.099
Mof_C 	C 	0.7983	0.0114	0.2852	0.041
Mof_H 	H 	0.7565	0.009	0.2796	0.039
Mof_C 	C 	0.8328	0.9579	0.2866	-0.095
Mof_C 	C 	0.8935	0.9598	0.2883	-0.038
Mof_H 	H 	0.9164	0.9245	0.2858	0.071
Mof_C 	C 	0.7921	0.1267	0.2918	0.43
Mof_C 	C 	0.8025	0.8969	0.2779	0.415
Mof_O 	O 	0.8221	0.1724	0.3099	-0.511
Mof_O 	O 	0.7367	0.1261	0.2785	-0.505
Mof_O 	O 	0.8339	0.8511	0.2923	-0.497
Mof_O 	O 	0.7483	0.8948	0.2586	-0.49
Mof_N 	N 	0.9858	0.0235	0.2959	-0.084
Mof_Mg	Mg	0.69429	0.17839	0.76042	1.476
Mof_C 	C 	0.922	0.982	0.7059	0.078
Mof_C 	C 	0.8875	0.9306	0.7042	-0.046
Mof_H 	H 	0.9066	0.8932	0.7005	0.07
Mof_C 	C 	0.8251	0.9327	0.708	-0.099
Mof_C 	C 	0.7983	0.9886	0.7148	0.041
Mof_H 	H 	0.7565	0.991	0.7204	0.039
Mof_C 	C 	0.8328	0.0421	0.7134	-0.095
Mof_C 	C 	0.8935	0.0402	0.7117	-0.038
Mof_H 	H 	0.9164	0.0755	0.7142	0.071
Mof_C 	C 	0.7921	0.8733	0.7082	0.43
Mof_C 	C 	0.8025	0.1031	0.7221	0.415
Mof_O 	O 	0.8221	0.8276	0.6901	-0.511
Mof_O 	O 	0.7367	0.8739	0.7215	-0.505
Mof_O 	O 	0.8339	0.1489	0.7077	-0.497
Mof_O 	O 	0.7483	0.1052	0.7414	-0.49
Mof_N 	N 	0.9858	0.9765	0.7041	-0.084
Mof_Mg	Mg	0.23958	0.30571	0.17839	1.476
Mof_C 	C 	0.2941	0.078	0.982	0.078
Mof_C 	C 	0.2958	0.1125	0.9306	-0.046
Mof_H 	H 	0.2995	0.0934	0.8932	0.07
Mof_C 	C 	0.292	0.1749	0.9327	-0.099
Mof_C 	C 	0.2852	0.2017	0.9886	0.041
Mof_H 	H 	0.2796	0.2435	0.991	0.039
Mof_C 	C 	0.2866	0.1672	0.0421	-0.095
Mof_C 	C 	0.2883	0.1065	0.0402	-0.038
Mof_H 	H 	0.2858	0.0836	0.0755	0.071
Mof_C 	C 	0.2918	0.2079	0.8733	0.43
Mof_C 	C 	0.2779	0.1975	0.1031	0.415
Mof_O 	O 	0.3099	0.1779	0.8276	-0.511
Mof_O 	O 	0.2785	0.2633	0.8739	-0.505
Mof_O 	O 	0.2923	0.1661	0.1489	-0.497
Mof_O 	O 	0.2586	0.2517	0.1052	-0.49
Mof_N 	N 	0.2959	0.0142	0.9765	-0.084
Mof_Mg	Mg	0.76042	0.30571	0.82161	1.476
Mof_C 	C 	0.7059	0.078	0.018	0.078
Mof_C 	C 	0.7042	0.1125	0.0694	-0.046
Mof_H 	H 	0.7005	0.0934	0.1068	0.07
Mof_C 	C 	0.708	0.1749	0.0673	-0.099
Mof_C 	C 	0.7148	0.2017	0.0114	0.041
Mof_H 	H 	0.7204	0.2435	0.009	0.039
Mof_C 	C 	0.7134	0.1672	0.9579	-0.095
Mof_C 	C 	0.7117	0.1065	0.9598	-0.038
Mof_H 	H 	0.7142	0.0836	0.9245	0.071
Mof_C 	C 	0.7082	0.2079	0.1267	0.43
Mof_C 	C 	0.7221	0.1975	0.8969	0.415
Mof_O 	O 	0.6901	0.1779	0.1724	-0.511
Mof_O 	O 	0.7215	0.2633	0.1261	-0.505
Mof_O 	O 	0.7077	0.1661	0.8511	-0.497
Mof_O 	O 	0.7414	0.2517	0.8948	-0.49
Mof_N 	N 	0.7041	0.0142	0.0235	-0.084
Mof_Mg	Mg	0.23958	0.69429	0.82161	1.476
Mof_C 	C 	0.2941	0.922	0.018	0.078
Mof_C 	C 	0.2958	0.8875	0.0694	-0.046
Mof_H 	H 	0.2995	0.9066	0.1068	0.07
Mof_C 	C 	0.292	0.8251	0.0673	-0.099
Mof_C 	C 	0.2852	0.7983	0.0114	0.041
Mof_H 	H 	0.2796	0.7565	0.009	0.039
Mof_C 	C 	0.2866	0.8328	0.9579	-0.095
Mof_C 	C 	0.2883	0.8935	0.9598	-0.038
Mof_H 	H 	0.2858	0.9164	0.9245	0.071
Mof_C 	C 	0.2918	0.7921	0.1267	0.43
Mof_C 	C 	0.2779	0.8025	0.8969	0.415
Mof_O 	O 	0.3099	0.8221	0.1724	-0.511
Mof_O 	O 	0.2785	0.7367	0.1261	-0.505
Mof_O 	O 	0.2923	0.8339	0.8511	-0.497
Mof_O 	O 	0.2586	0.7483	0.8948	-0.49
Mof_N 	N 	0.2959	0.9858	0.0235	-0.084
Mof_Mg	Mg	0.76042	0.69429	0.17839	1.476
Mof_C 	C 	0.7059	0.922	0.982	0.078
Mof_C 	C 	0.7042	0.8875	0.9306	-0.046
Mof_H 	H 	0.7005	0.9066	0.8932	0.07
Mof_C 	C 	0.708	0.8251	0.9327	-0.099
Mof_C 	C 	0.7148	0.7983	0.9886	0.041
Mof_H 	H 	0.7204	0.7565	0.991	0.039
Mof_C 	C 	0.7134	0.8328	0.0421	-0.095
Mof_C 	C 	0.7117	0.8935	0.0402	-0.038
Mof_H 	H 	0.7142	0.9164	0.0755	0.071
Mof_C 	C 	0.7082	0.7921	0.8733	0.43
Mof_C 	C 	0.7221	0.8025	0.1031	0.415
Mof_O 	O 	0.6901	0.8221	0.8276	-0.511
Mof_O 	O 	0.7215	0.7367	0.8739	-0.505
Mof_O 	O 	0.7077	0.8339	0.1489	-0.497
Mof_O 	O 	0.7414	0.7483	0.1052	-0.49
Mof_N 	N 	0.7041	0.9858	0.9765	-0.084
Mof_Mg	Mg	0.73958	0.67839	0.80571	1.476
Mof_C 	C 	0.7941	0.482	0.578	0.078
Mof_C 	C 	0.7958	0.4306	0.6125	-0.046
Mof_H 	H 	0.7995	0.3932	0.5934	0.07
Mof_C 	C 	0.792	0.4327	0.6749	-0.099
Mof_C 	C 	0.7852	0.4886	0.7017	0.041
Mof_H 	H 	0.7796	0.491	0.7435	0.039
Mof_C 	C 	0.7866	0.5421	0.6672	-0.095
Mof_C 	C 	0.7883	0.5402	0.6065	-0.038
Mof_H 	H 	0.7858	0.5755	0.5836	0.071
Mof_C 	C 	0.7918	0.3733	0.7079	0.43
Mof_C 	C 	0.7779	0.6031	0.6975	0.415
Mof_O 	O 	0.8099	0.3276	0.6779	-0.511
Mof_O 	O 	0.7785	0.3739	0.7633	-0.505
Mof_O 	O 	0.7923	0.6489	0.6661	-0.497
Mof_O 	O 	0.7586	0.6052	0.7517	-0.49
Mof_N 	N 	0.7959	0.4765	0.5142	-0.084
Mof_Mg	Mg	0.26042	0.32161	0.80571	1.476
Mof_C 	C 	0.2059	0.518	0.578	0.078
Mof_C 	C 	0.2042	0.5694	0.6125	-0.046
Mof_H 	H 	0.2005	0.6068	0.5934	0.07
Mof_C 	C 	0.208	0.5673	0.6749	-0.099
Mof_C 	C 	0.2148	0.5114	0.7017	0.041
Mof_H 	H 	0.2204	0.509	0.7435	0.039
Mof_C 	C 	0.2134	0.4579	0.6672	-0.095
Mof_C 	C 	0.2117	0.4598	0.6065	-0.038
Mof_H 	H 	0.2142	0.4245	0.5836	0.071
Mof_C 	C 	0.2082	0.6267	0.7079	0.43
Mof_C 	C 	0.2221	0.3969	0.6975	0.415
Mof_O 	O 	0.1901	0.6724	0.6779	-0.511
Mof_O 	O 	0.2215	0.6261	0.7633	-0.505
Mof_O 	O 	0.2077	0.3511	0.6661	-0.497
Mof_O 	O 	0.2414	0.3948	0.7517	-0.49
Mof_N 	N 	0.2041	0.5235	0.5142	-0.084
Mof_Mg	Mg	0.73958	0.32161	0.19429	1.476
Mof_C 	C 	0.7941	0.518	0.422	0.078
Mof_C 	C 	0.7958	0.5694	0.3875	-0.046
Mof_H 	H 	0.7995	0.6068	0.4066	0.07
Mof_C 	C 	0.792	0.5673	0.3251	-0.099
Mof_C 	C 	0.7852	0.5114	0.2983	0.041
Mof_H 	H 	0.7796	0.509	0.2565	0.039
Mof_C 	C 	0.7866	0.4579	0.3328	-0.095
Mof_C 	C 	0.7883	0.4598	0.3935	-0.038
Mof_H 	H 	0.7858	0.4245	0.4164	0.071
Mof_C 	C 	0.7918	0.6267	0.2921	0.43
Mof_C 	C 	0.7779	0.3969	0.3025	0.415
Mof_O 	O 	0.8099	0.6724	0.3221	-0.511
Mof_O 	O 	0.7785	0.6261	0.2367	-0.505
Mof_O 	O 	0.7923	0.3511	0.3339	-0.497
Mof_O 	O 	0.7586	0.3948	0.2483	-0.49
Mof_N 	N 	0.7959	0.5235	0.4858	-0.084
Mof_Mg	Mg	0.26042	0.67839	0.19429	1.476
Mof_C 	C 	0.2059	0.482	0.422	0.078
Mof_C 	C 	0.2042	0.4306	0.3875	-0.046
Mof_H 	H 	0.2005	0.3932	0.4066	0.07
Mof_C 	C 	0.208	0.4327	0.3251	-0.099
Mof_C 	C 	0.2148	0.4886	0.2983	0.041
Mof_H 	H 	0.2204	0.491	0.2565	0.039
Mof_C 	C 	0.2134	0.5421	0.3328	-0.095
Mof_C 	C 	0.2117	0.5402	0.3935	-0.038
Mof_H 	H 	0.2142	0.5755	0.4164	0.071
Mof_C 	C 	0.2082	0.3733	0.2921	0.43
Mof_C 	C 	0.2221	0.6031	0.3025	0.415
Mof_O 	O 	0.1901	0.3276	0.3221	-0.511
Mof_O 	O 	0.2215	0.3739	0.2367	-0.505
Mof_O 	O 	0.2077	0.6489	0.3339	-0.497
Mof_O 	O 	0.2414	0.6052	0.2483	-0.49
Mof_N 	N 	0.2041	0.4765	0.4858	-0.084
Mof_Mg	Mg	0.67839	0.80571	0.73958	1.476
Mof_C 	C 	0.482	0.578	0.7941	0.078
Mof_C 	C 	0.4306	0.6125	0.7958	-0.046
Mof_H 	H 	0.3932	0.5934	0.7995	0.07
Mof_C 	C 	0.4327	0.6749	0.792	-0.099
Mof_C 	C 	0.4886	0.7017	0.7852	0.041
Mof_H 	H 	0.491	0.7435	0.7796	0.039
Mof_C 	C 	0.5421	0.6672	0.7866	-0.095
Mof_C 	C 	0.5402	0.6065	0.7883	-0.038
Mof_H 	H 	0.5755	0.5836	0.7858	0.071
Mof_C 	C 	0.3733	0.7079	0.7918	0.43
Mof_C 	C 	0.6031	0.6975	0.7779	0.415
Mof_O 	O 	0.3276	0.6779	0.8099	-0.511
Mof_O 	O 	0.3739	0.7633	0.7785	-0.505
Mof_O 	O 	0.6489	0.6661	0.7923	-0.497
Mof_O 	O 	0.6052	0.7517	0.7586	-0.49
Mof_N 	N 	0.4765	0.5142	0.7959	-0.084
Mof_Mg	Mg	0.32161	0.80571	0.26042	1.476
Mof_C 	C 	0.518	0.578	0.2059	0.078
Mof_C 	C 	0.5694	0.6125	0.2042	-0.046
Mof_H 	H 	0.6068	0.5934	0.2005	0.07
Mof_C 	C 	0.5673	0.6749	0.208	-0.099
Mof_C 	C 	0.5114	0.7017	0.2148	0.041
Mof_H 	H 	0.509	0.7435	0.2204	0.039
Mof_C 	C 	0.4579	0.6672	0.2134	-0.095
Mof_C 	C 	0.4598	0.6065	0.2117	-0.038
Mof_H 	H 	0.4245	0.5836	0.2142	0.071
Mof_C 	C 	0.6267	0.7079	0.2082	0.43
Mof_C 	C 	0.3969	0.6975	0.2221	0.415
Mof_O 	O 	0.6724	0.6779	0.1901	-0.511
Mof_O 	O 	0.6261	0.7633	0.2215	-0.505
Mof_O 	O 	0.3511	0.6661	0.2077	-0.497
Mof_O 	O 	0.3948	0.7517	0.2414	-0.49
Mof_N 	N 	0.5235	0.5142	0.2041	-0.084
Mof_Mg	Mg	0.32161	0.19429	0.73958	1.476
Mof_C 	C 	0.518	0.422	0.7941	0.078
Mof_C 	C 	0.5694	0.3875	0.7958	-0.046
Mof_H 	H 	0.6068	0.4066	0.7995	0.07
Mof_C 	C 	0.5673	0.3251	0.792	-0.099
Mof_C 	C 	0.5114	0.2983	0.7852	0.041
Mof_H 	H 	0.509	0.2565	0.7796	0.039
Mof_C 	C 	0.4579	0.3328	0.7866	-0.095
Mof_C 	C 	0.4598	0.3935	0.7883	-0.038
Mof_H 	H 	0.4245	0.4164	0.7858	0.071
Mof_C 	C 	0.6267	0.2921	0.7918	0.43
Mof_C 	C 	0.3969	0.3025	0.7779	0.415
Mof_O 	O 	0.6724	0.3221	0.8099	-0.511
Mof_O 	O 	0.6261	0.2367	0.7785	-0.505
Mof_O 	O 	0.3511	0.3339	0.7923	-0.497
Mof_O 	O 	0.3948	0.2483	0.7586	-0.49
Mof_N 	N 	0.5235	0.4858	0.7959	-0.084
Mof_Mg	Mg	0.67839	0.19429	0.26042	1.476
Mof_C 	C 	0.482	0.422	0.2059	0.078
Mof_C 	C 	0.4306	0.3875	0.2042	-0.046
Mof_H 	H 	0.3932	0.4066	0.2005	0.07
Mof_C 	C 	0.4327	0.3251	0.208	-0.099
Mof_C 	C 	0.4886	0.2983	0.2148	0.041
Mof_H 	H 	0.491	0.2565	0.2204	0.039
Mof_C 	C 	0.5421	0.3328	0.2134	-0.095
Mof_C 	C 	0.5402	0.3935	0.2117	-0.038
Mof_H 	H 	0.5755	0.4164	0.2142	0.071
Mof_C 	C 	0.3733	0.2921	0.2082	0.43
Mof_C 	C 	0.6031	0.3025	0.2221	0.415
Mof_O 	O 	0.3276	0.3221	0.1901	-0.511
Mof_O 	O 	0.3739	0.2367	0.2215	-0.505
Mof_O 	O 	0.6489	0.3339	0.2077	-0.497
Mof_O 	O 	0.6052	0.2483	0.2414	-0.49
Mof_N 	N 	0.4765	0.4858	0.2041	-0.084
Mof_Mg	Mg	0.80571	0.73958	0.67839	1.476
Mof_C 	C 	0.578	0.7941	0.482	0.078
Mof_C 	C 	0.6125	0.7958	0.4306	-0.046
Mof_H 	H 	0.5934	0.7995	0.3932	0.07
Mof_C 	C 	0.6749	0.792	0.4327	-0.099
Mof_C 	C 	0.7017	0.7852	0.4886	0.041
Mof_H 	H 	0.7435	0.7796	0.491	0.039
Mof_C 	C 	0.6672	0.7866	0.5421	-0.095
Mof_C 	C 	0.6065	0.7883	0.5402	-0.038
Mof_H 	H 	0.5836	0.7858	0.5755	0.071
Mof_C 	C 	0.7079	0.7918	0.3733	0.43
Mof_C 	C 	0.6975	0.7779	0.6031	0.415
Mof_O 	O 	0.6779	0.8099	0.3276	-0.511
Mof_O 	O 	0.7633	0.7785	0.3739	-0.505
Mof_O 	O 	0.6661	0.7923	0.6489	-0.497
Mof_O 	O 	0.7517	0.7586	0.6052	-0.49
Mof_N 	N 	0.5142	0.7959	0.4765	-0.084
Mof_Mg	Mg	0.80571	0.26042	0.32161	1.476
Mof_C 	C 	0.578	0.2059	0.518	0.078
Mof_C 	C 	0.6125	0.2042	0.5694	-0.046
Mof_H 	H 	0.5934	0.2005	0.6068	0.07
Mof_C 	C 	0.6749	0.208	0.5673	-0.099
Mof_C 	C 	0.7017	0.2148	0.5114	0.041
Mof_H 	H 	0.7435	0.2204	0.509	0.039
Mof_C 	C 	0.6672	0.2134	0.4579	-0.095
Mof_C 	C 	0.6065	0.2117	0.4598	-0.038
Mof_H 	H 	0.5836	0.2142	0.4245	0.071
Mof_C 	C 	0.7079	0.2082	0.6267	0.43
Mof_C 	C 	0.6975	0.2221	0.3969	0.415
Mof_O 	O 	0.6779	0.1901	0.6724	-0.511
Mof_O 	O 	0.7633	0.2215	0.6261	-0.505
Mof_O 	O 	0.6661	0.2077	0.3511	-0.497
Mof_O 	O 	0.7517	0.2414	0.3948	-0.49
Mof_N 	N 	0.5142	0.2041	0.5235	-0.084
Mof_Mg	Mg	0.19429	0.73958	0.32161	1.476
Mof_C 	C 	0.422	0.7941	0.518	0.078
Mof_C 	C 	0.3875	0.7958	0.5694	-0.046
Mof_H 	H 	0.4066	0.7995	0.6068	0.07
Mof_C 	C 	0.3251	0.792	0.5673	-0.099
Mof_C 	C 	0.2983	0.7852	0.5114	0.041
Mof_H 	H 	0.2565	0.7796	0.509	0.039
Mof_C 	C 	0.3328	0.7866	0.4579	-0.095
Mof_C 	C 	0.3935	0.7883	0.4598	-0.038
Mof_H 	H 	0.4164	0.7858	0.4245	0.071
Mof_C 	C 	0.2921	0.7918	0.6267	0.43
Mof_C 	C 	0.3025	0.7779	0.3969	0.415
Mof_O 	O 	0.3221	0.8099	0.6724	-0.511
Mof_O 	O 	0.2367	0.7785	0.6261	-0.505
Mof_O 	O 	0.3339	0.7923	0.3511	-0.497
Mof_O 	O 	0.2483	0.7586	0.3948	-0.49
Mof_N 	N 	0.4858	0.7959	0.5235	-0.084
Mof_Mg	Mg	0.19429	0.26042	0.67839	1.476
Mof_C 	C 	0.422	0.2059	0.482	0.078
Mof_C 	C 	0.3875	0.2042	0.4306	-0.046
Mof_H 	H 	0.4066	0.2005	0.3932	0.07
Mof_C 	C 	0.3251	0.208	0.4327	-0.099
Mof_C 	C 	0.2983	0.2148	0.4886	0.041
Mof_H 	H 	0.2565	0.2204	0.491	0.039
Mof_C 	C 	0.3328	0.2134	0.5421	-0.095
Mof_C 	C 	0.3935	0.2117	0.5402	-0.038
Mof_H 	H 	0.4164	0.2142	0.5755	0.071
Mof_C 	C 	0.2921	0.2082	0.3733	0.43
Mof_C 	C 	0.3025	0.2221	0.6031	0.415
Mof_O 	O 	0.3221	0.1901	0.3276	-0.511
Mof_O 	O 	0.2367	0.2215	0.3739	-0.505
Mof_O 	O 	0.3339	0.2077	0.6489	-0.497
Mof_O 	O 	0.2483	0.2414	0.6052	-0.49
Mof_N 	N 	0.4858	0.2041	0.4765	-0.084
Mof_O 	O 	0.2415	0.2415	0.2415	-0.763
Mof_O 	O 	0.7585	0.7585	0.2415	-0.763
Mof_O 	O 	0.7585	0.2415	0.7585	-0.763
Mof_O 	O 	0.2415	0.7585	0.7585	-0.763
Mof_O 	O 	0.7415	0.7415	0.7415	-0.763
Mof_O 	O 	0.2585	0.2585	0.7415	-0.763
Mof_O 	O 	0.7415	0.2585	0.2585	-0.763
Mof_O 	O 	0.2585	0.7415	0.2585	-0.763
_end
