data_functionalizedCrystal
_audit_creation_method	'EQeq! by Chris Wilmer'
_symmetry_space_group_name_H-M	'P1'
_symmetry_Int_Tables_number	1
_symmetry_cell_setting	triclinic
loop_
_symmetry_equiv_pos_as_xyz
  x,y,z
_cell_length_a	10.5626
_cell_length_b	11.4559
_cell_length_c	13.4839
_cell_angle_alpha	69.112
_cell_angle_beta	78.889
_cell_angle_gamma	63.614
loop_
_atom_site_label
_atom_site_type_symbol
_atom_site_fract_x
_atom_site_fract_y
_atom_site_fract_z
_atom_site_charge
Mof_U 	U 	0.62316	0.71341	0.83667	0.004
Mof_Ho	Ho	0.59942	0.23148	0.7505	1.422
Mof_C 	C 	0.9977	0.3457	0.85	-0.016
Mof_C 	C 	0.113	0.3165	0.9072	-0.028
Mof_H 	H 	0.0987	0.3632	0.9553	0.077
Mof_C 	C 	0.2483	0.2187	0.8927	-0.065
Mof_C 	C 	0.2669	0.144	0.8226	-0.085
Mof_C 	C 	0.147	0.1662	0.7746	0.024
Mof_H 	H 	0.1571	0.1115	0.7341	0.044
Mof_C 	C 	0.0146	0.2674	0.7862	-0.069
Mof_C 	C 	0.6281	0.9996	0.4501	-0.013
Mof_H 	H 	0.7138	0.9998	0.4169	0.058
Mof_C 	C 	0.618	0.8743	0.5057	-0.04
Mof_C 	C 	0.491	0.8737	0.5561	-0.031
Mof_C 	C 	0.8618	0.4656	0.8541	0.27
Mof_C 	C 	0.3634	0.1957	0.9554	0.349
Mof_C 	C 	0.4074	0.0424	0.7978	0.368
Mof_C 	C 	0.8943	0.2921	0.7249	0.38
Mof_C 	C 	0.4717	0.7442	0.622	0.293
Mof_C 	C 	0.7443	0.7473	0.5079	0.273
Mof_O 	O 	0.8509	0.5387	0.9119	-0.192
Mof_O 	O 	0.7622	0.4958	0.801	-0.198
Mof_O 	O 	0.8145	0.2354	0.7709	-0.446
Mof_O 	O 	0.8872	0.3617	0.628	-0.234
Mof_O 	O 	0.4168	0.9221	0.8175	-0.214
Mof_O 	O 	0.5023	0.0801	0.754	-0.428
Mof_O 	O 	0.4816	0.1806	0.9151	-0.425
Mof_O 	O 	0.327	0.1952	0.0519	-0.215
Mof_O 	O 	0.5027	0.694	0.7184	-0.194
Mof_O 	O 	0.417	0.6973	0.5801	-0.274
Mof_O 	O 	0.737	0.6346	0.5368	-0.202
Mof_O 	O 	0.8659	0.751	0.4776	-0.197
Mof_U 	U 	0.37684	0.28659	0.16333	0.005
Mof_Ho	Ho	0.40058	0.76852	0.2495	1.423
Mof_C 	C 	0.0023	0.6543	0.15	-0.015
Mof_C 	C 	0.887	0.6835	0.0928	-0.026
Mof_H 	H 	0.9013	0.6368	0.0447	0.077
Mof_C 	C 	0.7517	0.7813	0.1073	-0.065
Mof_C 	C 	0.7331	0.856	0.1774	-0.084
Mof_C 	C 	0.853	0.8338	0.2254	0.023
Mof_H 	H 	0.8429	0.8885	0.2659	0.044
Mof_C 	C 	0.9854	0.7326	0.2138	-0.069
Mof_C 	C 	0.3719	0.0004	0.5499	-0.013
Mof_H 	H 	0.2862	0.0002	0.5831	0.058
Mof_C 	C 	0.382	0.1257	0.4943	-0.04
Mof_C 	C 	0.509	0.1263	0.4439	-0.031
Mof_C 	C 	0.1382	0.5344	0.1459	0.27
Mof_C 	C 	0.6366	0.8043	0.0446	0.349
Mof_C 	C 	0.5926	0.9576	0.2022	0.368
Mof_C 	C 	0.1057	0.7079	0.2751	0.38
Mof_C 	C 	0.5283	0.2558	0.378	0.293
Mof_C 	C 	0.2557	0.2527	0.4921	0.273
Mof_O 	O 	0.1491	0.4613	0.0881	-0.192
Mof_O 	O 	0.2378	0.5042	0.199	-0.198
Mof_O 	O 	0.1855	0.7646	0.2291	-0.446
Mof_O 	O 	0.1128	0.6383	0.372	-0.234
Mof_O 	O 	0.5832	0.0779	0.1825	-0.214
Mof_O 	O 	0.4977	0.9199	0.246	-0.428
Mof_O 	O 	0.5184	0.8194	0.0849	-0.425
Mof_O 	O 	0.673	0.8048	0.9481	-0.215
Mof_O 	O 	0.4973	0.306	0.2816	-0.194
Mof_O 	O 	0.583	0.3027	0.4199	-0.274
Mof_O 	O 	0.263	0.3654	0.4632	-0.202
Mof_O 	O 	0.1341	0.249	0.5224	-0.197
Mof_U 	U 	-2.08306e-17	0.5	0.5	0.003
_end
