data_functionalizedCrystal
_audit_creation_method	'EQeq! by Chris Wilmer'
_symmetry_space_group_name_H-M	'P1'
_symmetry_Int_Tables_number	1
_symmetry_cell_setting	triclinic
loop_
_symmetry_equiv_pos_as_xyz
  x,y,z
_cell_length_a	11.081
_cell_length_b	7.0226
_cell_length_c	6.485
_cell_angle_alpha	90
_cell_angle_beta	109.129
_cell_angle_gamma	90
loop_
_atom_site_label
_atom_site_type_symbol
_atom_site_fract_x
_atom_site_fract_y
_atom_site_fract_z
_atom_site_charge
Mof_O 	O 	0.9938	0.3291	0.6671	-0.143
Mof_O 	O 	0.8293	0.3745	0.8848	-0.541
Mof_O 	O 	0.6522	0.5201	0.878	-0.672
Mof_C 	C 	0.7643	0.4758	0.9657	1.163
Mof_H 	H 	0.8046	0.5223	0.1058	-0.468
Mof_O 	O 	0.4938	0.8291	0.6671	-0.538
Mof_O 	O 	0.3293	0.8745	0.8848	-0.641
Mof_O 	O 	0.1522	0.0201	0.878	-0.524
Mof_C 	C 	0.2643	0.9758	0.9657	0.899
Mof_H 	H 	0.3046	0.0223	0.1058	-0.368
Mof_O 	O 	0.0062	0.3291	0.3329	-0.497
Mof_O 	O 	0.1707	0.3745	0.1152	-0.54
Mof_O 	O 	0.3478	0.5201	0.122	-0.582
Mof_C 	C 	0.2357	0.4758	0.0343	0.228
Mof_H 	H 	0.1954	0.5223	0.8942	0.029
Mof_O 	O 	0.5062	0.8291	0.3329	-0.613
Mof_O 	O 	0.6707	0.8745	0.1152	-0.498
Mof_O 	O 	0.8478	0.0201	0.122	-0.273
Mof_C 	C 	0.7357	0.9758	0.0343	-0.102
Mof_H 	H 	0.6954	0.0223	0.8942	0.236
Mof_Lu	Lu	-0	0.1813	-0	1.631
Mof_Lu	Lu	0.5	0.6813	-0	2.289
Mof_C 	C 	1.45667e-33	0.2464	0.5	0.209
Mof_H 	H 	1.49029e-17	0.1139	0.5	-0.102
Mof_C 	C 	0.5	0.7464	0.5	0.636
Mof_H 	H 	0.5	0.6139	0.5	-0.218
_end
