data_functionalizedCrystal
_audit_creation_method	'EQeq! by Chris Wilmer'
_symmetry_space_group_name_H-M	'P1'
_symmetry_Int_Tables_number	1
_symmetry_cell_setting	triclinic
loop_
_symmetry_equiv_pos_as_xyz
  x,y,z
_cell_length_a	9.9518
_cell_length_b	11.5761
_cell_length_c	15.5562
_cell_angle_alpha	72.377
_cell_angle_beta	83.165
_cell_angle_gamma	84.326
loop_
_atom_site_label
_atom_site_type_symbol
_atom_site_fract_x
_atom_site_fract_y
_atom_site_fract_z
_atom_site_charge
Mof_Zn	Zn	0.5854	0.9073	0.1122	1.233
Mof_Zn	Zn	0.4146	0.0927	0.8878	1.233
Mof_H 	H 	0.7591	0.6147	0.0232	0.061
Mof_H 	H 	0.7668	0.4125	0.9904	0.065
Mof_H 	H 	0.11	0.7507	0.039	0.038
Mof_H 	H 	0.5164	0.2835	0.1278	0.045
Mof_H 	H 	0.4657	0.4675	0.1768	0.055
Mof_H 	H 	0.5661	0.3211	0.8582	0.026
Mof_H 	H 	0.7497	0.7042	0.4346	0.039
Mof_H 	H 	0.7144	0.5481	0.5673	0.048
Mof_H 	H 	0.4215	0.6241	0.3376	0.049
Mof_H 	H 	0.2409	0.3853	0.9768	0.061
Mof_H 	H 	0.2332	0.5875	0.0096	0.065
Mof_H 	H 	0.89	0.2493	0.961	0.038
Mof_H 	H 	0.4836	0.7165	0.8722	0.045
Mof_H 	H 	0.5343	0.5325	0.8232	0.055
Mof_H 	H 	0.4339	0.6789	0.1418	0.026
Mof_H 	H 	0.2503	0.2958	0.5654	0.039
Mof_H 	H 	0.2856	0.4519	0.4327	0.048
Mof_H 	H 	0.5785	0.3759	0.6624	0.049
Mof_C 	C 	0.8429	0.8024	0.0616	0.327
Mof_C 	C 	0.92	0.6977	0.035	-0.076
Mof_C 	C 	0.8553	0.6081	0.0207	-0.045
Mof_C 	C 	0.928	0.5039	0.0021	0.019
Mof_C 	C 	0.863	0.4085	0.9877	-0.089
Mof_C 	C 	0.064	0.6879	0.0299	-0.005
Mof_C 	C 	0.5693	0.1464	0.0158	0.352
Mof_C 	C 	0.5454	0.2829	0.9977	-0.097
Mof_C 	C 	0.5195	0.3334	0.0667	-0.03
Mof_C 	C 	0.4961	0.4667	0.0458	0.015
Mof_C 	C 	0.4701	0.517	0.1156	-0.086
Mof_C 	C 	0.5495	0.3579	0.9057	0.004
Mof_C 	C 	0.6148	0.7785	0.2857	0.312
Mof_C 	C 	0.5889	0.679	0.3729	-0.066
Mof_C 	C 	0.6755	0.6552	0.4424	-0.002
Mof_C 	C 	0.6548	0.5625	0.5212	-0.08
Mof_C 	C 	0.5443	0.4881	0.5342	0.019
Mof_C 	C 	0.4802	0.6083	0.3843	-0.043
Mof_C 	C 	0.1571	0.1976	0.9384	0.327
Mof_C 	C 	0.08	0.3023	0.965	-0.076
Mof_C 	C 	0.1447	0.3919	0.9793	-0.045
Mof_C 	C 	0.072	0.4961	0.9979	0.019
Mof_C 	C 	0.137	0.5915	0.0123	-0.089
Mof_C 	C 	0.936	0.3121	0.9701	-0.005
Mof_C 	C 	0.4307	0.8536	0.9842	0.352
Mof_C 	C 	0.4546	0.7171	0.0023	-0.097
Mof_C 	C 	0.4805	0.6666	0.9333	-0.03
Mof_C 	C 	0.5039	0.5333	0.9542	0.015
Mof_C 	C 	0.5299	0.483	0.8844	-0.086
Mof_C 	C 	0.4505	0.6421	0.0943	0.004
Mof_C 	C 	0.3852	0.2215	0.7143	0.312
Mof_C 	C 	0.4111	0.321	0.6271	-0.066
Mof_C 	C 	0.3245	0.3448	0.5576	-0.002
Mof_C 	C 	0.3452	0.4375	0.4788	-0.08
Mof_C 	C 	0.4557	0.5119	0.4658	0.019
Mof_C 	C 	0.5198	0.3917	0.6157	-0.043
Mof_O 	O 	0.7133	0.8094	0.0561	-0.453
Mof_O 	O 	0.9027	0.8725	0.0869	-0.307
Mof_O 	O 	0.579	0.0814	0.0975	-0.472
Mof_O 	O 	0.5803	0.1049	0.9501	-0.479
Mof_O 	O 	0.5218	0.8065	0.2325	-0.448
Mof_O 	O 	0.7258	0.8263	0.2706	-0.311
Mof_O 	O 	0.2867	0.1906	0.9439	-0.453
Mof_O 	O 	0.0973	0.1275	0.9131	-0.307
Mof_O 	O 	0.421	0.9186	0.9025	-0.472
Mof_O 	O 	0.4197	0.8951	0.0499	-0.479
Mof_O 	O 	0.4782	0.1935	0.7675	-0.448
Mof_O 	O 	0.2742	0.1737	0.7294	-0.311
Mof_H 	H 	0.951	0.908	0.197	0.173
Mof_H 	H 	0.795	0.1759	0.2351	0.192
Mof_H 	H 	0.9153	0.1691	0.1584	0.196
Mof_H 	H 	0.7861	0.0911	0.1719	0.202
Mof_H 	H 	0.9753	0.0527	0.3019	-0.033
Mof_H 	H 	0.8471	0.9742	0.3143	-0.017
Mof_H 	H 	0.2845	0.0812	0.1424	0.176
Mof_H 	H 	0.1728	0.1081	0.2182	0.174
Mof_H 	H 	0.2608	0.981	0.2386	0.174
Mof_H 	H 	0.0687	0.0575	0.1077	-0.004
Mof_H 	H 	0.1571	0.9309	0.1275	-0.003
Mof_H 	H 	0.1083	0.8543	0.3367	-0.026
Mof_H 	H 	0.9747	0.7866	0.3391	-0.016
Mof_H 	H 	0.1687	0.6649	0.3132	0.182
Mof_H 	H 	0.0827	0.7014	0.2272	0.192
Mof_H 	H 	0.2161	0.7698	0.224	0.194
Mof_C 	C 	0.8473	0.1228	0.203	-0.571
Mof_C 	C 	0.9166	0.0196	0.2692	0.193
Mof_C 	C 	0.2166	0.0452	0.1919	-0.507
Mof_C 	C 	0.1114	0.9922	0.1557	0.145
Mof_C 	C 	0.0529	0.8257	0.2993	0.178
Mof_C 	C 	0.1375	0.7323	0.2627	-0.548
Mof_N 	N 	0.0013	0.933	0.2269	-0.264
Mof_H 	H 	0.049	0.092	0.803	0.173
Mof_H 	H 	0.205	0.8241	0.7649	0.192
Mof_H 	H 	0.0847	0.8309	0.8416	0.196
Mof_H 	H 	0.2139	0.9089	0.8281	0.202
Mof_H 	H 	0.0247	0.9473	0.6981	-0.033
Mof_H 	H 	0.1529	0.0258	0.6857	-0.017
Mof_H 	H 	0.7155	0.9188	0.8576	0.176
Mof_H 	H 	0.8272	0.8919	0.7818	0.174
Mof_H 	H 	0.7392	0.019	0.7614	0.174
Mof_H 	H 	0.9313	0.9425	0.8923	-0.004
Mof_H 	H 	0.8429	0.0691	0.8725	-0.003
Mof_H 	H 	0.8917	0.1457	0.6633	-0.026
Mof_H 	H 	0.0253	0.2134	0.6609	-0.016
Mof_H 	H 	0.8313	0.3351	0.6868	0.182
Mof_H 	H 	0.9173	0.2986	0.7728	0.192
Mof_H 	H 	0.7839	0.2302	0.776	0.194
Mof_C 	C 	0.1527	0.8772	0.797	-0.571
Mof_C 	C 	0.0834	0.9804	0.7308	0.193
Mof_C 	C 	0.7834	0.9548	0.8081	-0.507
Mof_C 	C 	0.8886	0.0078	0.8443	0.145
Mof_C 	C 	0.9471	0.1743	0.7007	0.178
Mof_C 	C 	0.8625	0.2677	0.7373	-0.548
Mof_N 	N 	0.9987	0.067	0.7731	-0.264
_end
