data_functionalizedCrystal
_audit_creation_method	'EQeq! by Chris Wilmer'
_symmetry_space_group_name_H-M	'P1'
_symmetry_Int_Tables_number	1
_symmetry_cell_setting	triclinic
loop_
_symmetry_equiv_pos_as_xyz
  x,y,z
_cell_length_a	9.1461
_cell_length_b	9.6587
_cell_length_c	12.7617
_cell_angle_alpha	94.664
_cell_angle_beta	103.837
_cell_angle_gamma	114.83
loop_
_atom_site_label
_atom_site_type_symbol
_atom_site_fract_x
_atom_site_fract_y
_atom_site_fract_z
_atom_site_charge
Mof_C 	C 	0.768	0.3101	0.26072	0.336
Mof_O 	O 	0.2889	0.3397	0.56498	-0.434
Mof_O 	O 	0.4367	0.3155	0.34398	-0.412
Mof_O 	O 	0.372	0.453	0.2342	-0.37
Mof_C 	C 	0.3272	0.3453	0.2845	0.316
Mof_C 	C 	0.1434	0.2449	0.27324	-0.08
Mof_H 	H 	0.1096	0.1451	0.2255	0.038
Mof_O 	O 	0.6881	0.0398	0.42575	-0.488
Mof_O 	O 	0.8982	0.26994	0.51672	-0.429
Mof_C 	C 	0.8286	0.1528	0.43905	0.364
Mof_Co	Co	0.63443	0.48781	0.30123	1.171
Mof_O 	O 	0.19381	0.4743	0.45822	-0.423
Mof_O 	O 	0.8362	0.4291	0.339	-0.513
Mof_C 	C 	0.203	0.3501	0.47567	0.341
Mof_C 	C 	0.1062	0.2072	0.38247	-0.132
Mof_H 	H 	0.1369	0.125	0.4026	0.051
Mof_N 	N 	0.7288	0.6349	0.19836	-0.219
Mof_C 	C 	0.8579	0.2113	0.24751	-0.097
Mof_H 	H 	0.7833	0.1239	0.1851	0.063
Mof_C 	C 	0.0225	0.307	0.2195	-0.103
Mof_H 	H 	0.0025	0.2914	0.1403	0.057
Mof_H 	H 	0.0673	0.4173	0.2493	0.074
Mof_C 	C 	0.92	0.9575	0.997	0.125
Mof_H 	H 	0.8393	0.9707	0.9446	0.008
Mof_C 	C 	0.858	0.8443	0.0655	0.014
Mof_C 	C 	0.9106	0.1419	0.34912	-0.097
Mof_H 	H 	0.8651	0.0301	0.32	0.06
Mof_O 	O 	0.63	0.2796	0.19409	-0.379
Mof_C 	C 	0.9633	0.8225	0.1531	-0.01
Mof_H 	H 	0.0799	0.8779	0.1688	0.025
Mof_C 	C 	0.6279	0.6546	0.1135	0.043
Mof_H 	H 	0.5118	0.5969	0.0987	0.023
Mof_C 	C 	0.6863	0.7561	0.0461	-0.043
Mof_H 	H 	0.61	0.7651	0.9876	0.044
Mof_C 	C 	0.8963	0.719	0.2171	0.027
Mof_H 	H 	0.9698	0.7068	0.2757	0.033
Mof_C 	C 	0.232	0.6899	0.73928	0.354
Mof_O 	O 	0.7111	0.6603	0.43502	-0.403
Mof_O 	O 	0.5633	0.6845	0.65602	-0.403
Mof_O 	O 	0.628	0.547	0.7658	-0.386
Mof_C 	C 	0.6728	0.6547	0.7155	0.34
Mof_C 	C 	0.8566	0.7551	0.72676	-0.144
Mof_H 	H 	0.8904	0.8549	0.7745	0.098
Mof_O 	O 	0.3119	0.9602	0.57425	-0.434
Mof_O 	O 	0.1018	0.73006	0.48328	-0.451
Mof_C 	C 	0.1714	0.8472	0.56095	0.379
Mof_Co	Co	0.36557	0.51219	0.69877	1.169
Mof_O 	O 	0.80619	0.5257	0.54178	-0.408
Mof_O 	O 	0.1638	0.5709	0.661	-0.536
Mof_C 	C 	0.797	0.6499	0.52433	0.33
Mof_C 	C 	0.8938	0.7928	0.61753	-0.047
Mof_H 	H 	0.8631	0.875	0.5974	0.073
Mof_N 	N 	0.2712	0.3651	0.80164	-0.281
Mof_C 	C 	0.1421	0.7887	0.75249	-0.17
Mof_H 	H 	0.2167	0.8761	0.8149	0.099
Mof_C 	C 	0.9775	0.693	0.7805	0.017
Mof_H 	H 	0.9975	0.7086	0.8597	0.041
Mof_H 	H 	0.9327	0.5827	0.7507	0.05
Mof_C 	C 	0.08	0.0425	0.003	-0.317
Mof_H 	H 	0.1607	0.0293	0.0554	0.115
Mof_C 	C 	0.142	0.1557	0.9345	0.249
Mof_C 	C 	0.0894	0.8581	0.65088	-0.152
Mof_H 	H 	0.1349	0.9699	0.68	0.101
Mof_O 	O 	0.37	0.7204	0.80591	-0.373
Mof_C 	C 	0.0367	0.1775	0.8469	-0.351
Mof_H 	H 	0.9201	0.1221	0.8312	0.143
Mof_C 	C 	0.3721	0.3454	0.8865	0.173
Mof_H 	H 	0.4882	0.4031	0.9013	-0.041
Mof_C 	C 	0.3137	0.2439	0.9539	-0.34
Mof_H 	H 	0.39	0.2349	0.0124	0.168
Mof_C 	C 	0.1037	0.281	0.7829	0.168
Mof_H 	H 	0.0302	0.2932	0.7243	-0.055
Mof_Co	Co	-2.19282e-17	0.5	0.5	1.186
Mof_Co	Co	0.5	0	0.5	1.055
_end
