data_functionalizedCrystal
_audit_creation_method	'EQeq! by Chris Wilmer'
_symmetry_space_group_name_H-M	'P1'
_symmetry_Int_Tables_number	1
_symmetry_cell_setting	triclinic
loop_
_symmetry_equiv_pos_as_xyz
  x,y,z
_cell_length_a	9.1631
_cell_length_b	9.1631
_cell_length_c	14.8213
_cell_angle_alpha	100.019
_cell_angle_beta	100.02
_cell_angle_gamma	115.923
loop_
_atom_site_label
_atom_site_type_symbol
_atom_site_fract_x
_atom_site_fract_y
_atom_site_fract_z
_atom_site_charge
Mof_Pr	Pr	0.24054	0.49054	0.98108	2.359
Mof_Pr	Pr	0.00946	0.25946	0.51892	2.357
Mof_Pr	Pr	0.75946	0.50946	0.01892	2.358
Mof_Pr	Pr	0.99054	0.74054	0.48108	2.356
Mof_H 	H 	0.6585	0.0619	0.9696	0.075
Mof_H 	H 	0.6367	0.0217	0.8598	0.068
Mof_H 	H 	0.8111	0.9077	0.9696	0.077
Mof_H 	H 	0.7231	0.8381	0.8598	0.071
Mof_H 	H 	0.4381	0.8415	0.5304	0.075
Mof_H 	H 	0.4783	0.8633	0.6402	0.069
Mof_H 	H 	0.5923	0.6889	0.5304	0.074
Mof_H 	H 	0.6619	0.7769	0.6402	0.068
Mof_H 	H 	0.3415	0.9381	0.0304	0.075
Mof_H 	H 	0.3633	0.9783	0.1402	0.068
Mof_H 	H 	0.1889	0.0923	0.0304	0.077
Mof_H 	H 	0.2769	0.1619	0.1402	0.071
Mof_H 	H 	0.5619	0.1585	0.4696	0.075
Mof_H 	H 	0.5217	0.1367	0.3598	0.069
Mof_H 	H 	0.4077	0.3111	0.4696	0.074
Mof_H 	H 	0.3381	0.2231	0.3598	0.068
Mof_C 	C 	0.87637	0.19317	0.93754	0.455
Mof_C 	C 	0.7098	0.0386	0.921	-0.232
Mof_C 	C 	0.56117	0.74437	0.93754	0.45
Mof_C 	C 	0.7112	0.8824	0.921	-0.247
Mof_C 	C 	0.30683	0.62363	0.56246	0.448
Mof_C 	C 	0.4614	0.7902	0.579	-0.24
Mof_C 	C 	0.75563	0.93883	0.56246	0.442
Mof_C 	C 	0.6176	0.7888	0.579	-0.236
Mof_C 	C 	0.12363	0.80683	0.06246	0.455
Mof_C 	C 	0.2902	0.9614	0.079	-0.232
Mof_C 	C 	0.43883	0.25563	0.06246	0.45
Mof_C 	C 	0.2888	0.1176	0.079	-0.247
Mof_C 	C 	0.69317	0.37637	0.43754	0.448
Mof_C 	C 	0.5386	0.2098	0.421	-0.24
Mof_C 	C 	0.24437	0.06117	0.43754	0.442
Mof_C 	C 	0.3824	0.2112	0.421	-0.236
Mof_C 	C 	0.1751	0.3249	0.75	0.282
Mof_C 	C 	0.0749	0.4251	0.75	0.282
Mof_C 	C 	0.8249	0.6751	0.25	0.282
Mof_C 	C 	0.9251	0.5749	0.25	0.282
Mof_O 	O 	0.00131	0.18219	0.9203	-0.52
Mof_O 	O 	0.26202	0.33966	0.82948	-0.48
Mof_O 	O 	0.88513	0.33439	0.96712	-0.678
Mof_O 	O 	0.41899	0.73811	0.9203	-0.516
Mof_O 	O 	0.06746	0.48982	0.82948	-0.481
Mof_O 	O 	0.58199	0.63273	0.96712	-0.679
Mof_O 	O 	0.31781	0.49869	0.5797	-0.514
Mof_O 	O 	0.16034	0.23798	0.67052	-0.481
Mof_O 	O 	0.16561	0.61487	0.53288	-0.678
Mof_O 	O 	0.76189	0.08101	0.5797	-0.51
Mof_O 	O 	0.01018	0.43254	0.67052	-0.48
Mof_O 	O 	0.86727	0.91801	0.53288	-0.679
Mof_O 	O 	0.99869	0.81781	0.0797	-0.52
Mof_O 	O 	0.73798	0.66034	0.17052	-0.48
Mof_O 	O 	0.11487	0.66561	0.03288	-0.678
Mof_O 	O 	0.58101	0.26189	0.0797	-0.516
Mof_O 	O 	0.93254	0.51018	0.17052	-0.481
Mof_O 	O 	0.41801	0.36727	0.03288	-0.679
Mof_O 	O 	0.68219	0.50131	0.4203	-0.514
Mof_O 	O 	0.83966	0.76202	0.32948	-0.481
Mof_O 	O 	0.83439	0.38513	0.46712	-0.678
Mof_O 	O 	0.23811	0.91899	0.4203	-0.51
Mof_O 	O 	0.98982	0.56746	0.32948	-0.48
Mof_O 	O 	0.13273	0.08199	0.46712	-0.679
_end
