data_functionalizedCrystal
_audit_creation_method	'EQeq! by Chris Wilmer'
_symmetry_space_group_name_H-M	'P1'
_symmetry_Int_Tables_number	1
_symmetry_cell_setting	triclinic
loop_
_symmetry_equiv_pos_as_xyz
  x,y,z
_cell_length_a	21.1031
_cell_length_b	21.1031
_cell_length_c	21.1031
_cell_angle_alpha	92.0599
_cell_angle_beta	118.818
_cell_angle_gamma	118.818
loop_
_atom_site_label
_atom_site_type_symbol
_atom_site_fract_x
_atom_site_fract_y
_atom_site_fract_z
_atom_site_charge
Mof_Cu	Cu	0.60506	0.63937	0.54115	0.92
Mof_Cu	Cu	0.39494	0.93609	0.03431	0.917
Mof_Cu	Cu	0.09822	0.45885	0.06391	0.906
Mof_Cu	Cu	0.90178	0.96569	0.36063	0.932
Mof_Cu	Cu	0.59822	0.81391	0.70885	0.92
Mof_Cu	Cu	0.40178	0.11063	0.21569	0.922
Mof_Cu	Cu	0.89494	0.78431	0.18609	0.925
Mof_Cu	Cu	0.10506	0.29115	0.88937	0.916
Mof_H 	H 	0.8089	0.7556	0.6515	0.077
Mof_H 	H 	0.9123	0.8766	0.6575	0.155
Mof_H 	H 	0.8683	0.936	0.5837	0.077
Mof_H 	H 	0.7141	0.8731	0.4846	0.158
Mof_H 	H 	0.5699	0.8078	0.4013	0.136
Mof_H 	H 	0.4175	0.7409	0.3354	0.094
Mof_H 	H 	0.6967	0.6719	0.709	-0.01
Mof_H 	H 	0.7917	0.6537	0.8056	0.187
Mof_H 	H 	0.7837	0.5339	0.6486	0.112
Mof_H 	H 	0.6968	0.5661	0.5561	0.045
Mof_H 	H 	0.9023	0.5739	0.7904	0.115
Mof_H 	H 	0.9234	0.6405	0.8501	0.156
Mof_H 	H 	0.0451	0.5648	0.0695	0.066
Mof_H 	H 	0.953	0.5962	0.9906	0.163
Mof_H 	H 	0.8848	0.448	0.813	0.13
Mof_H 	H 	0.9837	0.4234	0.8995	-0.02
Mof_H 	H 	0.7786	0.4845	0.7961	0.097
Mof_H 	H 	0.816	0.5522	0.8662	0.146
Mof_H 	H 	0.3416	0.6121	0.3213	0.133
Mof_H 	H 	0.4179	0.5759	0.4084	-0.014
Mof_H 	H 	0.1911	0.8426	0.9467	0.081
Mof_H 	H 	0.0877	0.7452	0.9643	0.076
Mof_H 	H 	0.1317	0.7154	0.0677	0.073
Mof_H 	H 	0.2859	0.7705	0.159	0.149
Mof_H 	H 	0.4301	0.8314	0.2379	0.138
Mof_H 	H 	0.5825	0.9179	0.3234	0.092
Mof_H 	H 	0.3033	0.0123	0.9752	0.01
Mof_H 	H 	0.2083	0.0139	0.862	0.204
Mof_H 	H 	0.2163	0.8649	0.7502	0.096
Mof_H 	H 	0.3032	0.8593	0.8693	0.039
Mof_H 	H 	0.0977	0.8881	0.6716	0.083
Mof_H 	H 	0.0766	0.9267	0.7171	0.116
Mof_H 	H 	0.9549	0.0244	0.5197	-0.011
Mof_H 	H 	0.047	0.0376	0.6432	0.232
Mof_H 	H 	0.1152	0.9282	0.5632	0.107
Mof_H 	H 	0.0163	0.9158	0.4397	-0.008
Mof_H 	H 	0.2214	0.0175	0.7059	0.104
Mof_H 	H 	0.184	0.0502	0.7362	0.15
Mof_H 	H 	0.6584	0.9797	0.2705	0.133
Mof_H 	H 	0.5821	0.9905	0.158	-0.016
Mof_H 	H 	0.1041	0.3485	0.1574	0.054
Mof_H 	H 	0.2191	0.3425	0.2548	0.126
Mof_H 	H 	0.3523	0.4163	0.2846	0.07
Mof_H 	H 	0.3885	0.5154	0.2295	0.159
Mof_H 	H 	0.4065	0.5987	0.1686	0.137
Mof_H 	H 	0.4055	0.6646	0.0821	0.093
Mof_H 	H 	0.9629	0.291	0.9877	-0
Mof_H 	H 	0.8481	0.1944	0.9861	0.193
Mof_H 	H 	0.8853	0.3514	0.1351	0.155
Mof_H 	H 	0.01	0.4439	0.1407	-0.086
Mof_H 	H 	0.7835	0.2096	0.1119	0.106
Mof_H 	H 	0.7904	0.1499	0.0733	0.142
Mof_H 	H 	0.4953	0.9305	0.9756	0.043
Mof_H 	H 	0.6056	0.0094	0.9624	0.197
Mof_H 	H 	0.635	0.187	0.0718	0.126
Mof_H 	H 	0.5239	0.1005	0.0842	-0.012
Mof_H 	H 	0.6884	0.2039	0.9825	0.107
Mof_H 	H 	0.686	0.1338	0.9498	0.157
Mof_H 	H 	0.2908	0.6787	0.0203	0.134
Mof_H 	H 	0.1675	0.5916	0.0095	-0.023
Mof_H 	H 	0.8959	0.0533	0.2444	0.068
Mof_H 	H 	0.7809	0.0357	0.1234	0.182
Mof_H 	H 	0.6477	0.9323	0.064	0.038
Mof_H 	H 	0.6115	0.841	0.1269	0.176
Mof_H 	H 	0.5935	0.7621	0.1922	0.133
Mof_H 	H 	0.5945	0.6766	0.2591	0.097
Mof_H 	H 	0.0371	0.0248	0.3281	-0.012
Mof_H 	H 	0.1519	0.138	0.3463	0.164
Mof_H 	H 	0.1147	0.2498	0.4661	0.048
Mof_H 	H 	0.99	0.1307	0.4339	0.174
Mof_H 	H 	0.2165	0.3284	0.4261	0.065
Mof_H 	H 	0.2096	0.2829	0.3595	0.106
Mof_H 	H 	0.5047	0.4803	0.4352	0.022
Mof_H 	H 	0.3944	0.3568	0.4038	0.213
Mof_H 	H 	0.365	0.4368	0.552	0.132
Mof_H 	H 	0.4761	0.5603	0.5766	-0.022
Mof_H 	H 	0.3116	0.2941	0.5155	0.123
Mof_H 	H 	0.314	0.2638	0.4478	0.174
Mof_H 	H 	0.7092	0.7295	0.3879	0.134
Mof_H 	H 	0.8325	0.842	0.4241	-0.001
Mof_H 	H 	0.6041	0.9074	0.5985	0.071
Mof_H 	H 	0.7191	0.0048	0.5925	0.147
Mof_H 	H 	0.8523	0.0346	0.6663	0.101
Mof_H 	H 	0.8885	0.9795	0.7654	0.17
Mof_H 	H 	0.9065	0.9186	0.8487	0.156
Mof_H 	H 	0.9055	0.8321	0.9146	0.102
Mof_H 	H 	0.4629	0.7377	0.541	-0.012
Mof_H 	H 	0.3481	0.7361	0.4444	0.185
Mof_H 	H 	0.3853	0.8851	0.6014	0.103
Mof_H 	H 	0.51	0.8907	0.6939	0.039
Mof_H 	H 	0.2835	0.8619	0.4596	0.109
Mof_H 	H 	0.2904	0.8233	0.3999	0.147
Mof_H 	H 	0.9953	0.7256	0.1805	0.22
Mof_H 	H 	0.1056	0.7124	0.2594	0.098
Mof_H 	H 	0.135	0.8218	0.437	0.055
Mof_H 	H 	0.0239	0.8342	0.3505	0.029
Mof_H 	H 	0.1884	0.7325	0.4539	0.063
Mof_H 	H 	0.186	0.6998	0.3838	0.114
Mof_H 	H 	0.7908	0.7703	0.9287	0.136
Mof_H 	H 	0.6675	0.7595	0.8416	-0.014
Mof_H 	H 	0.3959	0.9944	0.3033	0.085
Mof_H 	H 	0.2809	0.8734	0.2857	0.106
Mof_H 	H 	0.1477	0.814	0.1823	0.078
Mof_H 	H 	0.1115	0.8769	0.091	0.114
Mof_H 	H 	0.0935	0.9422	0.0121	0.149
Mof_H 	H 	0.0945	0.0091	0.9266	0.06
Mof_H 	H 	0.5371	0.0781	0.2748	-0.001
Mof_H 	H 	0.6519	0.0963	0.388	0.176
Mof_H 	H 	0.6147	0.2161	0.4998	0.097
Mof_H 	H 	0.49	0.1839	0.3807	0.048
Mof_H 	H 	0.7165	0.1761	0.5784	0.063
Mof_H 	H 	0.7096	0.1095	0.5329	0.102
Mof_H 	H 	0.0047	0.1852	0.7303	-0.167
Mof_H 	H 	0.8944	0.1538	0.6068	0.319
Mof_H 	H 	0.865	0.302	0.6868	0.205
Mof_H 	H 	0.9761	0.3266	0.8103	-0.068
Mof_H 	H 	0.8116	0.2655	0.5441	0.165
Mof_H 	H 	0.814	0.1978	0.5138	0.214
Mof_H 	H 	0.2092	0.1379	0.9795	0.149
Mof_H 	H 	0.3325	0.1741	0.092	-0.023
Mof_H 	H 	0.6911	0.6967	0.0926	0.074
Mof_H 	H 	0.5877	0.7143	0.9952	0.125
Mof_H 	H 	0.6317	0.8177	0.9654	0.06
Mof_H 	H 	0.7859	0.909	0.0205	0.17
Mof_H 	H 	0.9301	0.9879	0.0814	0.079
Mof_H 	H 	0.0825	0.0734	0.1679	0.153
Mof_H 	H 	0.8033	0.7252	0.2623	-0.003
Mof_H 	H 	0.7083	0.612	0.2639	0.181
Mof_H 	H 	0.7163	0.5002	0.1149	0.105
Mof_H 	H 	0.8032	0.6193	0.1093	0.048
Mof_H 	H 	0.5977	0.4216	0.1381	0.084
Mof_H 	H 	0.5766	0.4671	0.1767	0.12
Mof_H 	H 	0.4549	0.2697	0.2744	0.021
Mof_H 	H 	0.547	0.3932	0.2876	0.214
Mof_H 	H 	0.6152	0.3132	0.1782	0.137
Mof_H 	H 	0.5163	0.1897	0.1658	-0.02
Mof_H 	H 	0.7214	0.4559	0.2675	0.128
Mof_H 	H 	0.684	0.4862	0.3002	0.174
Mof_H 	H 	0.1584	0.0205	0.2297	0.099
Mof_H 	H 	0.0821	0.908	0.2405	0.034
Mof_H 	H 	0.3089	0.4015	0.0056	0.079
Mof_H 	H 	0.4123	0.4075	0.1266	0.12
Mof_H 	H 	0.3683	0.3337	0.186	0.08
Mof_H 	H 	0.2141	0.2346	0.1231	0.142
Mof_H 	H 	0.0699	0.1513	0.0578	0.229
Mof_H 	H 	0.9175	0.0854	0.9909	-0.023
Mof_H 	H 	0.1967	0.459	0.9219	-0.013
Mof_H 	H 	0.2917	0.5556	0.9037	0.176
Mof_H 	H 	0.2837	0.3986	0.7839	0.097
Mof_H 	H 	0.1968	0.3061	0.8161	0.041
Mof_H 	H 	0.4023	0.5404	0.8239	0.086
Mof_H 	H 	0.4234	0.6001	0.8905	0.124
Mof_H 	H 	0.5451	0.8195	0.8148	0.024
Mof_H 	H 	0.453	0.7406	0.8462	0.207
Mof_H 	H 	0.3848	0.563	0.698	0.126
Mof_H 	H 	0.4837	0.6495	0.6734	-0.019
Mof_H 	H 	0.2786	0.5461	0.7345	0.102
Mof_H 	H 	0.316	0.6162	0.8022	0.155
Mof_H 	H 	0.8416	0.0713	0.8621	0.257
Mof_H 	H 	0.9179	0.1584	0.8259	-0.095
Mof_C 	C 	0.7903	0.7776	0.6153	0.096
Mof_C 	C 	0.8524	0.8527	0.6209	-0.127
Mof_C 	C 	0.8272	0.8866	0.5774	0.091
Mof_C 	C 	0.7347	0.8496	0.5177	-0.146
Mof_C 	C 	0.6813	0.7788	0.5137	0.1
Mof_C 	C 	0.5813	0.7349	0.457	0.1
Mof_C 	C 	0.5378	0.7612	0.406	-0.132
Mof_C 	C 	0.4468	0.7189	0.3615	0.108
Mof_C 	C 	0.7154	0.6447	0.6963	0.175
Mof_C 	C 	0.7737	0.6338	0.7555	-0.218
Mof_C 	C 	0.8054	0.5953	0.7433	0.217
Mof_C 	C 	0.77	0.5648	0.6634	-0.166
Mof_C 	C 	0.7142	0.5816	0.6068	0.121
Mof_C 	C 	0.877	0.5905	0.8091	-0.195
Mof_C 	C 	0.0106	0.5395	0.0163	0.009
Mof_C 	C 	0.9544	0.5576	0.97	-0.106
Mof_C 	C 	0.8996	0.5173	0.8919	0.189
Mof_C 	C 	0.9145	0.471	0.8659	-0.258
Mof_C 	C 	0.9755	0.4571	0.9186	0.259
Mof_C 	C 	0.8315	0.5317	0.8384	-0.2
Mof_C 	C 	0.4022	0.646	0.357	-0.161
Mof_C 	C 	0.4498	0.6246	0.407	0.158
Mof_C 	C 	0.2097	0.825	0.9873	0.041
Mof_C 	C 	0.1476	0.7685	0.0003	-0.067
Mof_C 	C 	0.1728	0.7502	0.0594	0.034
Mof_C 	C 	0.2653	0.783	0.1149	-0.118
Mof_C 	C 	0.3187	0.8324	0.0975	0.084
Mof_C 	C 	0.4187	0.8757	0.1536	0.104
Mof_C 	C 	0.4622	0.8682	0.2234	-0.137
Mof_C 	C 	0.5532	0.9147	0.2721	0.109
Mof_C 	C 	0.2846	0.9809	0.9293	0.143
Mof_C 	C 	0.2263	0.9818	0.8601	-0.238
Mof_C 	C 	0.1946	0.9379	0.7899	0.204
Mof_C 	C 	0.23	0.8934	0.7948	-0.166
Mof_C 	C 	0.2858	0.8926	0.8674	0.111
Mof_C 	C 	0.123	0.9321	0.7135	-0.184
Mof_C 	C 	0.9894	0.0057	0.5289	0.34
Mof_C 	C 	0.0456	0.0156	0.6032	-0.402
Mof_C 	C 	0.1004	0.9923	0.6177	0.22
Mof_C 	C 	0.0855	0.9514	0.5565	-0.242
Mof_C 	C 	0.0245	0.9431	0.4816	0.053
Mof_C 	C 	0.1685	0.0069	0.7002	-0.204
Mof_C 	C 	0.5978	0.9548	0.2438	-0.164
Mof_C 	C 	0.5502	0.9572	0.1748	0.158
Mof_C 	C 	0.1623	0.3847	0.175	0.086
Mof_C 	C 	0.2318	0.3791	0.2315	-0.127
Mof_C 	C 	0.3092	0.4226	0.2498	0.083
Mof_C 	C 	0.3319	0.4823	0.217	-0.145
Mof_C 	C 	0.2651	0.4863	0.1676	0.098
Mof_C 	C 	0.2779	0.543	0.1243	0.102
Mof_C 	C 	0.3552	0.594	0.1318	-0.135
Mof_C 	C 	0.3574	0.6385	0.0853	0.112
Mof_C 	C 	0.9484	0.3037	0.0191	0.209
Mof_C 	C 	0.8783	0.2445	0.0182	-0.233
Mof_C 	C 	0.852	0.2567	0.0621	0.254
Mof_C 	C 	0.9014	0.3366	0.1066	-0.256
Mof_C 	C 	0.9748	0.3932	0.1074	0.326
Mof_C 	C 	0.7814	0.1909	0.0679	-0.185
Mof_C 	C 	0.5232	0.9837	0.9943	0.114
Mof_C 	C 	0.5876	0.03	0.9844	-0.236
Mof_C 	C 	0.6254	0.1081	0.0077	0.231
Mof_C 	C 	0.6051	0.1341	0.0486	-0.256
Mof_C 	C 	0.5385	0.0814	0.0569	0.166
Mof_C 	C 	0.6933	0.1616	0.9931	-0.239
Mof_C 	C 	0.289	0.643	0.0452	-0.167
Mof_C 	C 	0.2176	0.593	0.0428	0.162
Mof_C 	C 	0.8377	0.0127	0.2224	0.169
Mof_C 	C 	0.7682	0.9997	0.1473	-0.241
Mof_C 	C 	0.6908	0.9406	0.1134	0.169
Mof_C 	C 	0.6681	0.8851	0.1504	-0.194
Mof_C 	C 	0.7349	0.9025	0.2212	0.12
Mof_C 	C 	0.7221	0.8464	0.2651	0.092
Mof_C 	C 	0.6448	0.7766	0.2388	-0.124
Mof_C 	C 	0.6426	0.7279	0.2811	0.1
Mof_C 	C 	0.0516	0.0707	0.3553	0.128
Mof_C 	C 	0.1217	0.1399	0.3662	-0.164
Mof_C 	C 	0.148	0.2101	0.4047	0.127
Mof_C 	C 	0.0986	0.2052	0.4352	-0.053
Mof_C 	C 	0.0252	0.1326	0.4184	-0.097
Mof_C 	C 	0.2186	0.2865	0.4095	-0.096
Mof_C 	C 	0.4768	0.4711	0.4605	0.188
Mof_C 	C 	0.4124	0.3968	0.4424	-0.302
Mof_C 	C 	0.3746	0.3823	0.4827	0.268
Mof_C 	C 	0.3949	0.4435	0.529	-0.29
Mof_C 	C 	0.4615	0.5184	0.5429	0.181
Mof_C 	C 	0.3067	0.2998	0.4683	-0.293
Mof_C 	C 	0.711	0.7562	0.354	-0.151
Mof_C 	C 	0.7824	0.8252	0.3754	0.153
Mof_C 	C 	0.6623	0.925	0.6347	0.091
Mof_C 	C 	0.7318	0.9815	0.6291	-0.142
Mof_C 	C 	0.8092	0.9998	0.6726	0.062
Mof_C 	C 	0.8319	0.967	0.7323	-0.135
Mof_C 	C 	0.7651	0.9176	0.7363	0.094
Mof_C 	C 	0.7779	0.8743	0.793	0.106
Mof_C 	C 	0.8552	0.8818	0.844	-0.139
Mof_C 	C 	0.8574	0.8353	0.8885	0.119
Mof_C 	C 	0.4484	0.7691	0.5537	0.174
Mof_C 	C 	0.3783	0.7682	0.4945	-0.222
Mof_C 	C 	0.352	0.8121	0.5067	0.218
Mof_C 	C 	0.4014	0.8566	0.5866	-0.172
Mof_C 	C 	0.4748	0.8574	0.6432	0.119
Mof_C 	C 	0.2814	0.8179	0.4409	-0.222
Mof_C 	C 	0.0232	0.7443	0.2337	-0.223
Mof_C 	C 	0.0876	0.7344	0.28	-0.01
Mof_C 	C 	0.1254	0.7577	0.3581	0.047
Mof_C 	C 	0.1051	0.7986	0.3841	-0.08
Mof_C 	C 	0.0385	0.8069	0.3314	-0.05
Mof_C 	C 	0.1933	0.7431	0.4116	-0.115
Mof_C 	C 	0.789	0.7952	0.893	-0.166
Mof_C 	C 	0.7176	0.7928	0.843	0.162
Mof_C 	C 	0.3377	0.9724	0.2627	0.039
Mof_C 	C 	0.2682	0.8973	0.2497	-0.069
Mof_C 	C 	0.1908	0.8634	0.1906	0.021
Mof_C 	C 	0.1681	0.9004	0.1351	-0.085
Mof_C 	C 	0.2349	0.9712	0.1525	0.027
Mof_C 	C 	0.2221	0.0151	0.0964	0.174
Mof_C 	C 	0.1448	0.9888	0.0266	-0.235
Mof_C 	C 	0.1426	0.0311	0.9779	0.184
Mof_C 	C 	0.5516	0.1053	0.3207	0.158
Mof_C 	C 	0.6217	0.1162	0.3899	-0.18
Mof_C 	C 	0.648	0.1547	0.4601	0.166
Mof_C 	C 	0.5986	0.1852	0.4552	-0.136
Mof_C 	C 	0.5252	0.1684	0.3826	0.107
Mof_C 	C 	0.7186	0.1595	0.5365	-0.065
Mof_C 	C 	0.9768	0.2105	0.7211	0.576
Mof_C 	C 	0.9124	0.1924	0.6468	-0.568
Mof_C 	C 	0.8746	0.2327	0.6323	0.459
Mof_C 	C 	0.8949	0.279	0.6935	-0.477
Mof_C 	C 	0.9615	0.2929	0.7684	0.398
Mof_C 	C 	0.8067	0.2183	0.5498	-0.411
Mof_C 	C 	0.211	0.104	0.0062	-0.209
Mof_C 	C 	0.2824	0.1254	0.0752	0.191
Mof_C 	C 	0.7097	0.7373	0.075	0.089
Mof_C 	C 	0.6476	0.7503	0.0185	-0.127
Mof_C 	C 	0.6728	0.8094	0.0002	0.102
Mof_C 	C 	0.7653	0.8649	0.033	-0.167
Mof_C 	C 	0.8187	0.8475	0.0824	0.129
Mof_C 	C 	0.9187	0.9036	0.1257	0.033
Mof_C 	C 	0.9622	0.9734	0.1182	0.072
Mof_C 	C 	0.0532	0.0221	0.1647	-0.098
Mof_C 	C 	0.7846	0.6793	0.2309	0.171
Mof_C 	C 	0.7263	0.6101	0.2318	-0.197
Mof_C 	C 	0.6946	0.5399	0.1879	0.191
Mof_C 	C 	0.73	0.5448	0.1434	-0.149
Mof_C 	C 	0.7858	0.6174	0.1426	0.119
Mof_C 	C 	0.623	0.4635	0.1821	-0.133
Mof_C 	C 	0.4894	0.2789	0.2557	0.189
Mof_C 	C 	0.5456	0.3532	0.2656	-0.301
Mof_C 	C 	0.6004	0.3677	0.2423	0.268
Mof_C 	C 	0.5855	0.3065	0.2014	-0.288
Mof_C 	C 	0.5245	0.2316	0.1931	0.184
Mof_C 	C 	0.6685	0.4502	0.2569	-0.28
Mof_C 	C 	0.0978	0.9938	0.2048	-0.032
Mof_C 	C 	0.0502	0.9248	0.2072	-0.035
Mof_C 	C 	0.2903	0.3653	0.0276	0.078
Mof_C 	C 	0.3524	0.3709	0.1027	-0.101
Mof_C 	C 	0.3272	0.3274	0.1366	0.056
Mof_C 	C 	0.2347	0.2677	0.0996	-0.109
Mof_C 	C 	0.1813	0.2637	0.0288	0.057
Mof_C 	C 	0.0813	0.207	0.9849	0.205
Mof_C 	C 	0.0378	0.156	0.0112	-0.442
Mof_C 	C 	0.9468	0.1115	0.9689	0.492
Mof_C 	C 	0.2154	0.4463	0.8947	0.157
Mof_C 	C 	0.2737	0.5055	0.8838	-0.205
Mof_C 	C 	0.3054	0.4933	0.8453	0.188
Mof_C 	C 	0.27	0.4134	0.8148	-0.158
Mof_C 	C 	0.2142	0.3568	0.8316	0.104
Mof_C 	C 	0.377	0.5591	0.8405	-0.148
Mof_C 	C 	0.5106	0.7663	0.7895	0.18
Mof_C 	C 	0.4544	0.72	0.8076	-0.29
Mof_C 	C 	0.3996	0.6419	0.7673	0.247
Mof_C 	C 	0.4145	0.6159	0.721	-0.277
Mof_C 	C 	0.4755	0.6686	0.7071	0.173
Mof_C 	C 	0.3315	0.5884	0.7817	-0.253
Mof_C 	C 	0.9022	0.107	0.896	-0.484
Mof_C 	C 	0.9498	0.157	0.8746	0.451
Mof_N 	N 	0.6863	0.6194	0.6255	-0.233
Mof_N 	N 	0.0189	0.4883	0.99	-0.293
Mof_N 	N 	0.7053	0.7402	0.5571	-0.199
Mof_N 	N 	0.5344	0.6627	0.4537	-0.216
Mof_N 	N 	0.3137	0.9392	0.9331	-0.231
Mof_N 	N 	0.9811	0.9711	0.4694	-0.223
Mof_N 	N 	0.2947	0.8518	0.0349	-0.188
Mof_N 	N 	0.4656	0.9193	0.1283	-0.219
Mof_N 	N 	0.9939	0.3745	0.0608	-0.239
Mof_N 	N 	0.4983	0.01	0.0289	-0.231
Mof_N 	N 	0.1831	0.4429	0.1482	-0.204
Mof_N 	N 	0.209	0.5463	0.0807	-0.218
Mof_N 	N 	0.0061	0.0669	0.3806	-0.216
Mof_N 	N 	0.5017	0.5306	0.5117	-0.262
Mof_N 	N 	0.8169	0.9651	0.2598	-0.217
Mof_N 	N 	0.791	0.8717	0.3373	-0.213
Mof_N 	N 	0.4939	0.8108	0.6245	-0.233
Mof_N 	N 	0.9983	0.7789	0.26	-0.07
Mof_N 	N 	0.6831	0.8982	0.6929	-0.199
Mof_N 	N 	0.709	0.8307	0.7963	-0.218
Mof_N 	N 	0.5061	0.1306	0.3169	-0.225
Mof_N 	N 	0.0017	0.2617	0.7806	-0.444
Mof_N 	N 	0.3169	0.0098	0.2151	-0.164
Mof_N 	N 	0.291	0.0873	0.1217	-0.234
Mof_N 	N 	0.8137	0.6831	0.1892	-0.225
Mof_N 	N 	0.4811	0.2194	0.2211	-0.262
Mof_N 	N 	0.7947	0.7849	0.1018	-0.204
Mof_N 	N 	0.9656	0.8783	0.1693	-0.129
Mof_N 	N 	0.1863	0.3755	0.8694	-0.233
Mof_N 	N 	0.5189	0.74	0.7383	-0.259
Mof_N 	N 	0.2053	0.3071	0.9902	-0.192
Mof_N 	N 	0.0344	0.2037	0.9127	-0.33
Mof_Cl	Cl	0.58525	0.71025	0.625	-0.517
Mof_Cl	Cl	0.41475	0.03975	0.125	-0.506
Mof_Cl	Cl	0.08525	0.375	0.96025	-0.569
Mof_Cl	Cl	0.91475	0.875	0.28975	-0.472
Mof_B 	B 	0.5859	0.5562	0.3585	3.721
Mof_F 	F 	0.6288	0.5882	0.4356	-1.212
Mof_F 	F 	0.5437	0.5904	0.3245	-1.149
Mof_F 	F 	0.5244	0.4799	0.3329	-1.183
Mof_F 	F 	0.6435	0.5681	0.3414	-1.192
Mof_B 	B 	0.4141	0.7726	0.9703	3.711
Mof_F 	F 	0.3712	0.8068	0.9594	-1.218
Mof_F 	F 	0.4563	0.7808	0.0467	-1.146
Mof_F 	F 	0.4756	0.8085	0.9555	-1.184
Mof_F 	F 	0.3565	0.6979	0.9246	-1.198
Mof_B 	B 	0.1977	0.6415	0.2274	3.72
Mof_F 	F 	0.1526	0.5644	0.1932	-1.221
Mof_F 	F 	0.2659	0.6755	0.2192	-1.15
Mof_F 	F 	0.147	0.6671	0.1915	-1.192
Mof_F 	F 	0.2267	0.6586	0.3021	-1.197
Mof_B 	B 	0.8023	0.0297	0.4438	3.748
Mof_F 	F 	0.8474	0.0406	0.4118	-1.21
Mof_F 	F 	0.7341	0.9533	0.4096	-1.162
Mof_F 	F 	0.853	0.0445	0.5201	-1.178
Mof_F 	F 	0.7733	0.0754	0.4319	-1.196
Mof_B 	B 	0.6977	0.9774	0.8915	3.687
Mof_F 	F 	0.6526	0.9432	0.8144	-1.213
Mof_F 	F 	0.7659	0.9692	0.9255	-1.145
Mof_F 	F 	0.647	0.9415	0.9171	-1.181
Mof_F 	F 	0.7267	0.0521	0.9086	-1.179
Mof_B 	B 	0.3023	0.1938	0.2797	3.721
Mof_F 	F 	0.3474	0.1618	0.2906	-1.213
Mof_F 	F 	0.2341	0.1596	0.2033	-1.153
Mof_F 	F 	0.353	0.2701	0.2945	-1.184
Mof_F 	F 	0.2733	0.1819	0.3254	-1.195
Mof_B 	B 	0.9141	0.7203	0.0226	3.723
Mof_F 	F 	0.8712	0.7094	0.0568	-1.213
Mof_F 	F 	0.9563	0.7967	0.0308	-1.123
Mof_F 	F 	0.9756	0.7055	0.0585	-1.156
Mof_F 	F 	0.8565	0.6746	0.9479	-1.194
Mof_B 	B 	0.0859	0.1085	0.8062	3.725
Mof_F 	F 	0.1288	0.1856	0.8382	-1.219
Mof_F 	F 	0.0437	0.0745	0.8404	-1.172
Mof_F 	F 	0.0244	0.0829	0.7299	-1.207
Mof_F 	F 	0.1435	0.0914	0.8181	-1.198
Mof_B 	B 	0.5	0.5673	0.0673	3.764
Mof_F 	F 	0.4899	0.625	0.0531	-1.174
Mof_F 	F 	0.5716	0.5817	0.0715	-1.191
Mof_F 	F 	0.5101	0.5632	0.1351	-1.175
Mof_F 	F 	0.4284	0.4999	0.0101	-1.19
Mof_B 	B 	0.5	0.9327	0.4327	3.764
Mof_F 	F 	0.5719	0.9469	0.4368	-1.18
Mof_F 	F 	0.5102	0.9285	0.5001	-1.194
Mof_F 	F 	0.4281	0.8649	0.375	-1.176
Mof_F 	F 	0.4898	0.9899	0.4183	-1.198
Mof_B 	B 	1.6819e-17	0.1827	0.1827	3.47
Mof_F 	F 	0.0719	0.1868	0.1969	-1.133
Mof_F 	F 	0.0102	0.2501	0.1785	-1.167
Mof_F 	F 	0.9281	0.125	0.1149	-1.068
Mof_F 	F 	0.9898	0.1683	0.2399	-1.067
Mof_B 	B 	5.0457e-17	0.8173	0.8173	3.455
Mof_F 	F 	0.0101	0.8851	0.8132	-1.15
Mof_F 	F 	0.9284	0.7601	0.7499	-1.081
Mof_F 	F 	0.9899	0.8031	0.875	-1.055
Mof_F 	F 	0.0716	0.8215	0.8317	-1.148
_end
