data_functionalizedCrystal
_audit_creation_method	'EQeq! by Chris Wilmer'
_symmetry_space_group_name_H-M	'P1'
_symmetry_Int_Tables_number	1
_symmetry_cell_setting	triclinic
loop_
_symmetry_equiv_pos_as_xyz
  x,y,z
_cell_length_a	34.6711
_cell_length_b	34.6711
_cell_length_c	8.4273
_cell_angle_alpha	90
_cell_angle_beta	90
_cell_angle_gamma	120
loop_
_atom_site_label
_atom_site_type_symbol
_atom_site_fract_x
_atom_site_fract_y
_atom_site_fract_z
_atom_site_charge
Mof_Ag	Ag	0.14648	0.3174	0.50825	0.442
Mof_O 	O 	0.33431	0.3279	0.7538	-0.214
Mof_N 	N 	0.20503	0.33641	0.659	-0.193
Mof_N 	N 	0.27698	0.19613	0.607	-0.197
Mof_C 	C 	0.21861	0.3715	0.7573	0.047
Mof_H 	H 	0.2018	0.3863	0.7619	-0.017
Mof_C 	C 	0.25614	0.38686	0.852	-0.116
Mof_H 	H 	0.2647	0.4116	0.9202	0.048
Mof_C 	C 	0.28093	0.36583	0.8462	0.006
Mof_H 	H 	0.3072	0.3763	0.9083	0.044
Mof_C 	C 	0.26676	0.32891	0.7476	-0.065
Mof_C 	C 	0.22857	0.31526	0.6558	0.041
Mof_H 	H 	0.2189	0.2901	0.5885	-0.001
Mof_C 	C 	0.29405	0.30658	0.7377	0.171
Mof_C 	C 	0.27114	0.25732	0.7124	-0.067
Mof_C 	C 	0.23044	0.22813	0.7813	0.011
Mof_H 	H 	0.2144	0.239	0.8397	0.017
Mof_C 	C 	0.2137	0.18281	0.7629	-0.111
Mof_H 	H 	0.1861	0.162	0.8101	0.053
Mof_C 	C 	0.23748	0.16826	0.6753	0.053
Mof_H 	H 	0.2255	0.1371	0.6623	-0.019
Mof_C 	C 	0.29334	0.23987	0.6269	0.048
Mof_H 	H 	0.3213	0.2599	0.5807	0.015
Mof_Ag	Ag	0.6826	0.82907	0.50825	0.443
Mof_O 	O 	0.6721	0.00641	0.7538	-0.213
Mof_N 	N 	0.66359	0.86862	0.659	-0.192
Mof_N 	N 	0.80387	0.08085	0.607	-0.195
Mof_C 	C 	0.6285	0.84711	0.7573	0.047
Mof_H 	H 	0.6137	0.8155	0.7619	-0.017
Mof_C 	C 	0.61314	0.86928	0.852	-0.116
Mof_H 	H 	0.5884	0.8531	0.9202	0.048
Mof_C 	C 	0.63417	0.9151	0.8462	0.006
Mof_H 	H 	0.6237	0.9309	0.9083	0.044
Mof_C 	C 	0.67109	0.93785	0.7476	-0.065
Mof_C 	C 	0.68474	0.91331	0.6558	0.041
Mof_H 	H 	0.7099	0.9288	0.5885	-0.001
Mof_C 	C 	0.69342	0.98747	0.7377	0.171
Mof_C 	C 	0.74268	0.01382	0.7124	-0.067
Mof_C 	C 	0.77187	0.00231	0.7813	0.011
Mof_H 	H 	0.761	0.9754	0.8397	0.017
Mof_C 	C 	0.81719	0.03089	0.7629	-0.111
Mof_H 	H 	0.838	0.0241	0.8101	0.053
Mof_C 	C 	0.83174	0.06922	0.6753	0.053
Mof_H 	H 	0.8629	0.0884	0.6623	-0.019
Mof_C 	C 	0.76013	0.05347	0.6269	0.048
Mof_H 	H 	0.7401	0.0614	0.5807	0.015
Mof_Ag	Ag	0.17093	0.85352	0.50825	0.443
Mof_O 	O 	0.99359	0.66569	0.7538	-0.213
Mof_N 	N 	0.13138	0.79497	0.659	-0.192
Mof_N 	N 	0.91915	0.72302	0.607	-0.196
Mof_C 	C 	0.15289	0.78139	0.7573	0.047
Mof_H 	H 	0.1845	0.7982	0.7619	-0.017
Mof_C 	C 	0.13072	0.74386	0.852	-0.116
Mof_H 	H 	0.1469	0.7353	0.9202	0.048
Mof_C 	C 	0.0849	0.71907	0.8462	0.006
Mof_H 	H 	0.0691	0.6928	0.9083	0.044
Mof_C 	C 	0.06215	0.73324	0.7476	-0.065
Mof_C 	C 	0.08669	0.77143	0.6558	0.041
Mof_H 	H 	0.0712	0.7811	0.5885	-0.001
Mof_C 	C 	0.01253	0.70595	0.7377	0.171
Mof_C 	C 	0.98618	0.72886	0.7124	-0.067
Mof_C 	C 	0.99769	0.76956	0.7813	0.011
Mof_H 	H 	0.0246	0.7856	0.8397	0.017
Mof_C 	C 	0.96911	0.7863	0.7629	-0.111
Mof_H 	H 	0.9759	0.8139	0.8101	0.053
Mof_C 	C 	0.93078	0.76252	0.6753	0.053
Mof_H 	H 	0.9116	0.7745	0.6623	-0.019
Mof_C 	C 	0.94653	0.70666	0.6269	0.048
Mof_H 	H 	0.9386	0.6787	0.5807	0.015
Mof_Ag	Ag	0.85352	0.6826	0.49175	0.443
Mof_O 	O 	0.66569	0.6721	0.2462	-0.213
Mof_N 	N 	0.79497	0.66359	0.341	-0.192
Mof_N 	N 	0.72302	0.80387	0.393	-0.196
Mof_C 	C 	0.78139	0.6285	0.2427	0.047
Mof_H 	H 	0.7982	0.6137	0.2381	-0.017
Mof_C 	C 	0.74386	0.61314	0.148	-0.116
Mof_H 	H 	0.7353	0.5884	0.0798	0.048
Mof_C 	C 	0.71907	0.63417	0.1538	0.006
Mof_H 	H 	0.6928	0.6237	0.0917	0.044
Mof_C 	C 	0.73324	0.67109	0.2524	-0.065
Mof_C 	C 	0.77143	0.68474	0.3442	0.041
Mof_H 	H 	0.7811	0.7099	0.4115	-0.001
Mof_C 	C 	0.70595	0.69342	0.2623	0.171
Mof_C 	C 	0.72886	0.74268	0.2876	-0.067
Mof_C 	C 	0.76956	0.77187	0.2187	0.011
Mof_H 	H 	0.7856	0.761	0.1603	0.017
Mof_C 	C 	0.7863	0.81719	0.2371	-0.111
Mof_H 	H 	0.8139	0.838	0.1899	0.053
Mof_C 	C 	0.76252	0.83174	0.3247	0.053
Mof_H 	H 	0.7745	0.8629	0.3377	-0.019
Mof_C 	C 	0.70666	0.76013	0.3731	0.048
Mof_H 	H 	0.6787	0.7401	0.4193	0.015
Mof_Ag	Ag	0.3174	0.17093	0.49175	0.443
Mof_O 	O 	0.3279	0.99359	0.2462	-0.213
Mof_N 	N 	0.33641	0.13138	0.341	-0.192
Mof_N 	N 	0.19613	0.91915	0.393	-0.195
Mof_C 	C 	0.3715	0.15289	0.2427	0.047
Mof_H 	H 	0.3863	0.1845	0.2381	-0.017
Mof_C 	C 	0.38686	0.13072	0.148	-0.116
Mof_H 	H 	0.4116	0.1469	0.0798	0.048
Mof_C 	C 	0.36583	0.0849	0.1538	0.006
Mof_H 	H 	0.3763	0.0691	0.0917	0.044
Mof_C 	C 	0.32891	0.06215	0.2524	-0.065
Mof_C 	C 	0.31526	0.08669	0.3442	0.041
Mof_H 	H 	0.2901	0.0712	0.4115	-0.001
Mof_C 	C 	0.30658	0.01253	0.2623	0.171
Mof_C 	C 	0.25732	0.98618	0.2876	-0.067
Mof_C 	C 	0.22813	0.99769	0.2187	0.011
Mof_H 	H 	0.239	0.0246	0.1603	0.017
Mof_C 	C 	0.18281	0.96911	0.2371	-0.111
Mof_H 	H 	0.162	0.9759	0.1899	0.053
Mof_C 	C 	0.16826	0.93078	0.3247	0.053
Mof_H 	H 	0.1371	0.9116	0.3377	-0.019
Mof_C 	C 	0.23987	0.94653	0.3731	0.048
Mof_H 	H 	0.2599	0.9386	0.4193	0.015
Mof_Ag	Ag	0.82907	0.14648	0.49175	0.443
Mof_O 	O 	0.00641	0.33431	0.2462	-0.213
Mof_N 	N 	0.86862	0.20503	0.341	-0.192
Mof_N 	N 	0.08085	0.27698	0.393	-0.196
Mof_C 	C 	0.84711	0.21861	0.2427	0.047
Mof_H 	H 	0.8155	0.2018	0.2381	-0.017
Mof_C 	C 	0.86928	0.25614	0.148	-0.116
Mof_H 	H 	0.8531	0.2647	0.0798	0.048
Mof_C 	C 	0.9151	0.28093	0.1538	0.006
Mof_H 	H 	0.9309	0.3072	0.0917	0.044
Mof_C 	C 	0.93785	0.26676	0.2524	-0.065
Mof_C 	C 	0.91331	0.22857	0.3442	0.041
Mof_H 	H 	0.9288	0.2189	0.4115	-0.001
Mof_C 	C 	0.98747	0.29405	0.2623	0.171
Mof_C 	C 	0.01382	0.27114	0.2876	-0.067
Mof_C 	C 	0.00231	0.23044	0.2187	0.011
Mof_H 	H 	0.9754	0.2144	0.1603	0.017
Mof_C 	C 	0.03089	0.2137	0.2371	-0.111
Mof_H 	H 	0.0241	0.1861	0.1899	0.053
Mof_C 	C 	0.06922	0.23748	0.3247	0.053
Mof_H 	H 	0.0884	0.2255	0.3377	-0.019
Mof_C 	C 	0.05347	0.29334	0.3731	0.048
Mof_H 	H 	0.0614	0.3213	0.4193	0.015
Mof_Ag	Ag	0.81314	0.65074	0.84158	0.443
Mof_O 	O 	0.00098	0.66123	0.08713	-0.213
Mof_N 	N 	0.8717	0.66974	0.99233	-0.192
Mof_N 	N 	0.94365	0.52946	0.94033	-0.196
Mof_C 	C 	0.88528	0.70483	0.09063	0.047
Mof_H 	H 	0.86847	0.71963	0.09523	-0.017
Mof_C 	C 	0.92281	0.72019	0.18533	-0.116
Mof_H 	H 	0.93137	0.74493	0.25353	0.048
Mof_C 	C 	0.9476	0.69916	0.17953	0.006
Mof_H 	H 	0.97387	0.70963	0.24163	0.044
Mof_C 	C 	0.93343	0.66224	0.08093	-0.065
Mof_C 	C 	0.89524	0.64859	0.98913	0.041
Mof_H 	H 	0.88557	0.62343	0.92183	-0.001
Mof_C 	C 	0.96072	0.63991	0.07103	0.171
Mof_C 	C 	0.93781	0.59065	0.04573	-0.067
Mof_C 	C 	0.89711	0.56146	0.11463	0.011
Mof_H 	H 	0.88107	0.57233	0.17303	0.017
Mof_C 	C 	0.88037	0.51614	0.09623	-0.111
Mof_H 	H 	0.85277	0.49533	0.14343	0.053
Mof_C 	C 	0.90415	0.50159	0.00863	0.053
Mof_H 	H 	0.89217	0.47043	0.99563	-0.019
Mof_C 	C 	0.96001	0.5732	0.96023	0.048
Mof_H 	H 	0.98797	0.59323	0.91403	0.015
Mof_Ag	Ag	0.34926	0.16241	0.84158	0.443
Mof_O 	O 	0.33877	0.33974	0.08713	-0.213
Mof_N 	N 	0.33026	0.20195	0.99233	-0.192
Mof_N 	N 	0.47054	0.41418	0.94033	-0.196
Mof_C 	C 	0.29517	0.18044	0.09063	0.047
Mof_H 	H 	0.28037	0.14883	0.09523	-0.017
Mof_C 	C 	0.27981	0.20261	0.18533	-0.116
Mof_H 	H 	0.25507	0.18643	0.25353	0.048
Mof_C 	C 	0.30084	0.24843	0.17953	0.006
Mof_H 	H 	0.29037	0.26423	0.24163	0.044
Mof_C 	C 	0.33776	0.27118	0.08093	-0.065
Mof_C 	C 	0.35141	0.24664	0.98913	0.041
Mof_H 	H 	0.37657	0.26213	0.92183	-0.001
Mof_C 	C 	0.36009	0.3208	0.07103	0.171
Mof_C 	C 	0.40935	0.34715	0.04573	-0.067
Mof_C 	C 	0.43854	0.33564	0.11463	0.011
Mof_H 	H 	0.42767	0.30873	0.17303	0.017
Mof_C 	C 	0.48386	0.36422	0.09623	-0.111
Mof_H 	H 	0.50467	0.35743	0.14343	0.053
Mof_C 	C 	0.49841	0.40255	0.00863	0.053
Mof_H 	H 	0.52957	0.42173	0.99563	-0.019
Mof_C 	C 	0.4268	0.3868	0.96023	0.048
Mof_H 	H 	0.40677	0.39473	0.91403	0.015
Mof_Ag	Ag	0.83759	0.18686	0.84158	0.443
Mof_O 	O 	0.66026	0.99902	0.08713	-0.213
Mof_N 	N 	0.79805	0.1283	0.99233	-0.192
Mof_N 	N 	0.58582	0.05635	0.94033	-0.196
Mof_C 	C 	0.81956	0.11472	0.09063	0.047
Mof_H 	H 	0.85117	0.13153	0.09523	-0.017
Mof_C 	C 	0.79739	0.07719	0.18533	-0.116
Mof_H 	H 	0.81357	0.06863	0.25353	0.048
Mof_C 	C 	0.75157	0.0524	0.17953	0.006
Mof_H 	H 	0.73577	0.02613	0.24163	0.044
Mof_C 	C 	0.72882	0.06657	0.08093	-0.065
Mof_C 	C 	0.75336	0.10476	0.98913	0.041
Mof_H 	H 	0.73787	0.11443	0.92183	-0.001
Mof_C 	C 	0.6792	0.03928	0.07103	0.171
Mof_C 	C 	0.65285	0.06219	0.04573	-0.067
Mof_C 	C 	0.66436	0.10289	0.11463	0.011
Mof_H 	H 	0.69127	0.11893	0.17303	0.017
Mof_C 	C 	0.63578	0.11963	0.09623	-0.111
Mof_H 	H 	0.64257	0.14723	0.14343	0.053
Mof_C 	C 	0.59745	0.09585	0.00863	0.053
Mof_H 	H 	0.57827	0.10783	0.99563	-0.019
Mof_C 	C 	0.6132	0.03999	0.96023	0.048
Mof_H 	H 	0.60527	0.01203	0.91403	0.015
Mof_Ag	Ag	0.52019	0.01593	0.82508	0.443
Mof_O 	O 	0.33236	0.00543	0.57953	-0.213
Mof_N 	N 	0.46164	0.99692	0.67433	-0.192
Mof_N 	N 	0.38969	0.1372	0.72633	-0.195
Mof_C 	C 	0.44806	0.96183	0.57603	0.047
Mof_H 	H 	0.46487	0.94703	0.57143	-0.017
Mof_C 	C 	0.41053	0.94647	0.48133	-0.116
Mof_H 	H 	0.40197	0.92173	0.41313	0.048
Mof_C 	C 	0.38574	0.9675	0.48713	0.006
Mof_H 	H 	0.35947	0.95703	0.42503	0.044
Mof_C 	C 	0.39991	0.00442	0.58573	-0.065
Mof_C 	C 	0.4381	0.01807	0.67753	0.041
Mof_H 	H 	0.44777	0.04323	0.74483	-0.001
Mof_C 	C 	0.37262	0.02675	0.59563	0.171
Mof_C 	C 	0.39553	0.07601	0.62093	-0.067
Mof_C 	C 	0.43623	0.1052	0.55203	0.011
Mof_H 	H 	0.45227	0.09433	0.49363	0.017
Mof_C 	C 	0.45297	0.15052	0.57043	-0.111
Mof_H 	H 	0.48057	0.17133	0.52323	0.053
Mof_C 	C 	0.42919	0.16507	0.65803	0.053
Mof_H 	H 	0.44117	0.19623	0.67103	-0.019
Mof_C 	C 	0.37333	0.09346	0.70643	0.048
Mof_H 	H 	0.34537	0.07343	0.75263	0.015
Mof_Ag	Ag	0.98407	0.50426	0.82508	0.443
Mof_O 	O 	0.99457	0.32692	0.57953	-0.213
Mof_N 	N 	0.00308	0.46471	0.67433	-0.192
Mof_N 	N 	0.8628	0.25248	0.72633	-0.196
Mof_C 	C 	0.03817	0.48622	0.57603	0.047
Mof_H 	H 	0.05297	0.51783	0.57143	-0.017
Mof_C 	C 	0.05353	0.46405	0.48133	-0.116
Mof_H 	H 	0.07827	0.48023	0.41313	0.048
Mof_C 	C 	0.0325	0.41823	0.48713	0.006
Mof_H 	H 	0.04297	0.40243	0.42503	0.044
Mof_C 	C 	0.99558	0.39548	0.58573	-0.065
Mof_C 	C 	0.98193	0.42002	0.67753	0.041
Mof_H 	H 	0.95677	0.40453	0.74483	-0.001
Mof_C 	C 	0.97325	0.34586	0.59563	0.171
Mof_C 	C 	0.92399	0.31951	0.62093	-0.067
Mof_C 	C 	0.8948	0.33102	0.55203	0.011
Mof_H 	H 	0.90567	0.35793	0.49363	0.017
Mof_C 	C 	0.84948	0.30244	0.57043	-0.111
Mof_H 	H 	0.82867	0.30923	0.52323	0.053
Mof_C 	C 	0.83493	0.26411	0.65803	0.053
Mof_H 	H 	0.80377	0.24493	0.67103	-0.019
Mof_C 	C 	0.90654	0.27986	0.70643	0.048
Mof_H 	H 	0.92657	0.27193	0.75263	0.015
Mof_Ag	Ag	0.49574	0.47981	0.82508	0.443
Mof_O 	O 	0.67308	0.66764	0.57953	-0.213
Mof_N 	N 	0.53529	0.53836	0.67433	-0.192
Mof_N 	N 	0.74752	0.61031	0.72633	-0.196
Mof_C 	C 	0.51378	0.55194	0.57603	0.047
Mof_H 	H 	0.48217	0.53513	0.57143	-0.017
Mof_C 	C 	0.53595	0.58947	0.48133	-0.116
Mof_H 	H 	0.51977	0.59803	0.41313	0.048
Mof_C 	C 	0.58177	0.61426	0.48713	0.006
Mof_H 	H 	0.59757	0.64053	0.42503	0.044
Mof_C 	C 	0.60452	0.60009	0.58573	-0.065
Mof_C 	C 	0.57998	0.5619	0.67753	0.041
Mof_H 	H 	0.59547	0.55223	0.74483	-0.001
Mof_C 	C 	0.65414	0.62738	0.59563	0.171
Mof_C 	C 	0.68049	0.60447	0.62093	-0.067
Mof_C 	C 	0.66898	0.56377	0.55203	0.011
Mof_H 	H 	0.64207	0.54773	0.49363	0.017
Mof_C 	C 	0.69756	0.54703	0.57043	-0.111
Mof_H 	H 	0.69077	0.51943	0.52323	0.053
Mof_C 	C 	0.73589	0.57081	0.65803	0.053
Mof_H 	H 	0.75507	0.55883	0.67103	-0.019
Mof_C 	C 	0.72014	0.62667	0.70643	0.048
Mof_H 	H 	0.72807	0.65463	0.75263	0.015
Mof_Ag	Ag	0.47981	0.98407	0.17492	0.443
Mof_O 	O 	0.66764	0.99457	0.42047	-0.213
Mof_N 	N 	0.53836	0.00308	0.32567	-0.192
Mof_N 	N 	0.61031	0.8628	0.27367	-0.195
Mof_C 	C 	0.55194	0.03817	0.42397	0.047
Mof_H 	H 	0.53513	0.05297	0.42857	-0.017
Mof_C 	C 	0.58947	0.05353	0.51867	-0.116
Mof_H 	H 	0.59803	0.07827	0.58687	0.048
Mof_C 	C 	0.61426	0.0325	0.51287	0.006
Mof_H 	H 	0.64053	0.04297	0.57497	0.044
Mof_C 	C 	0.60009	0.99558	0.41427	-0.065
Mof_C 	C 	0.5619	0.98193	0.32247	0.041
Mof_H 	H 	0.55223	0.95677	0.25517	-0.001
Mof_C 	C 	0.62738	0.97325	0.40437	0.171
Mof_C 	C 	0.60447	0.92399	0.37907	-0.067
Mof_C 	C 	0.56377	0.8948	0.44797	0.011
Mof_H 	H 	0.54773	0.90567	0.50637	0.017
Mof_C 	C 	0.54703	0.84948	0.42957	-0.111
Mof_H 	H 	0.51943	0.82867	0.47677	0.053
Mof_C 	C 	0.57081	0.83493	0.34197	0.053
Mof_H 	H 	0.55883	0.80377	0.32897	-0.019
Mof_C 	C 	0.62667	0.90654	0.29357	0.048
Mof_H 	H 	0.65463	0.92657	0.24737	0.015
Mof_Ag	Ag	0.01593	0.49574	0.17492	0.443
Mof_O 	O 	0.00543	0.67308	0.42047	-0.213
Mof_N 	N 	0.99692	0.53529	0.32567	-0.192
Mof_N 	N 	0.1372	0.74752	0.27367	-0.196
Mof_C 	C 	0.96183	0.51378	0.42397	0.047
Mof_H 	H 	0.94703	0.48217	0.42857	-0.017
Mof_C 	C 	0.94647	0.53595	0.51867	-0.116
Mof_H 	H 	0.92173	0.51977	0.58687	0.048
Mof_C 	C 	0.9675	0.58177	0.51287	0.006
Mof_H 	H 	0.95703	0.59757	0.57497	0.044
Mof_C 	C 	0.00442	0.60452	0.41427	-0.065
Mof_C 	C 	0.01807	0.57998	0.32247	0.041
Mof_H 	H 	0.04323	0.59547	0.25517	-0.001
Mof_C 	C 	0.02675	0.65414	0.40437	0.171
Mof_C 	C 	0.07601	0.68049	0.37907	-0.067
Mof_C 	C 	0.1052	0.66898	0.44797	0.011
Mof_H 	H 	0.09433	0.64207	0.50637	0.017
Mof_C 	C 	0.15052	0.69756	0.42957	-0.111
Mof_H 	H 	0.17133	0.69077	0.47677	0.053
Mof_C 	C 	0.16507	0.73589	0.34197	0.053
Mof_H 	H 	0.19623	0.75507	0.32897	-0.019
Mof_C 	C 	0.09346	0.72014	0.29357	0.048
Mof_H 	H 	0.07343	0.72807	0.24737	0.015
Mof_Ag	Ag	0.50426	0.52019	0.17492	0.443
Mof_O 	O 	0.32692	0.33236	0.42047	-0.213
Mof_N 	N 	0.46471	0.46164	0.32567	-0.192
Mof_N 	N 	0.25248	0.38969	0.27367	-0.196
Mof_C 	C 	0.48622	0.44806	0.42397	0.047
Mof_H 	H 	0.51783	0.46487	0.42857	-0.017
Mof_C 	C 	0.46405	0.41053	0.51867	-0.116
Mof_H 	H 	0.48023	0.40197	0.58687	0.048
Mof_C 	C 	0.41823	0.38574	0.51287	0.006
Mof_H 	H 	0.40243	0.35947	0.57497	0.044
Mof_C 	C 	0.39548	0.39991	0.41427	-0.065
Mof_C 	C 	0.42002	0.4381	0.32247	0.041
Mof_H 	H 	0.40453	0.44777	0.25517	-0.001
Mof_C 	C 	0.34586	0.37262	0.40437	0.171
Mof_C 	C 	0.31951	0.39553	0.37907	-0.067
Mof_C 	C 	0.33102	0.43623	0.44797	0.011
Mof_H 	H 	0.35793	0.45227	0.50637	0.017
Mof_C 	C 	0.30244	0.45297	0.42957	-0.111
Mof_H 	H 	0.30923	0.48057	0.47677	0.053
Mof_C 	C 	0.26411	0.42919	0.34197	0.053
Mof_H 	H 	0.24493	0.44117	0.32897	-0.019
Mof_C 	C 	0.27986	0.37333	0.29357	0.048
Mof_H 	H 	0.27193	0.34537	0.24737	0.015
Mof_Ag	Ag	0.18686	0.34926	0.15842	0.443
Mof_O 	O 	0.99902	0.33877	0.91287	-0.213
Mof_N 	N 	0.1283	0.33026	0.00767	-0.192
Mof_N 	N 	0.05635	0.47054	0.05967	-0.196
Mof_C 	C 	0.11472	0.29517	0.90937	0.047
Mof_H 	H 	0.13153	0.28037	0.90477	-0.017
Mof_C 	C 	0.07719	0.27981	0.81467	-0.116
Mof_H 	H 	0.06863	0.25507	0.74647	0.048
Mof_C 	C 	0.0524	0.30084	0.82047	0.006
Mof_H 	H 	0.02613	0.29037	0.75837	0.044
Mof_C 	C 	0.06657	0.33776	0.91907	-0.065
Mof_C 	C 	0.10476	0.35141	0.01087	0.041
Mof_H 	H 	0.11443	0.37657	0.07817	-0.001
Mof_C 	C 	0.03928	0.36009	0.92897	0.171
Mof_C 	C 	0.06219	0.40935	0.95427	-0.067
Mof_C 	C 	0.10289	0.43854	0.88537	0.011
Mof_H 	H 	0.11893	0.42767	0.82697	0.017
Mof_C 	C 	0.11963	0.48386	0.90377	-0.111
Mof_H 	H 	0.14723	0.50467	0.85657	0.053
Mof_C 	C 	0.09585	0.49841	0.99137	0.053
Mof_H 	H 	0.10783	0.52957	0.00437	-0.019
Mof_C 	C 	0.03999	0.4268	0.03977	0.048
Mof_H 	H 	0.01203	0.40677	0.08597	0.015
Mof_Ag	Ag	0.65074	0.83759	0.15842	0.443
Mof_O 	O 	0.66123	0.66026	0.91287	-0.213
Mof_N 	N 	0.66974	0.79805	0.00767	-0.192
Mof_N 	N 	0.52946	0.58582	0.05967	-0.196
Mof_C 	C 	0.70483	0.81956	0.90937	0.047
Mof_H 	H 	0.71963	0.85117	0.90477	-0.017
Mof_C 	C 	0.72019	0.79739	0.81467	-0.116
Mof_H 	H 	0.74493	0.81357	0.74647	0.048
Mof_C 	C 	0.69916	0.75157	0.82047	0.006
Mof_H 	H 	0.70963	0.73577	0.75837	0.044
Mof_C 	C 	0.66224	0.72882	0.91907	-0.065
Mof_C 	C 	0.64859	0.75336	0.01087	0.041
Mof_H 	H 	0.62343	0.73787	0.07817	-0.001
Mof_C 	C 	0.63991	0.6792	0.92897	0.171
Mof_C 	C 	0.59065	0.65285	0.95427	-0.067
Mof_C 	C 	0.56146	0.66436	0.88537	0.011
Mof_H 	H 	0.57233	0.69127	0.82697	0.017
Mof_C 	C 	0.51614	0.63578	0.90377	-0.111
Mof_H 	H 	0.49533	0.64257	0.85657	0.053
Mof_C 	C 	0.50159	0.59745	0.99137	0.053
Mof_H 	H 	0.47043	0.57827	0.00437	-0.019
Mof_C 	C 	0.5732	0.6132	0.03977	0.048
Mof_H 	H 	0.59323	0.60527	0.08597	0.015
Mof_Ag	Ag	0.16241	0.81314	0.15842	0.443
Mof_O 	O 	0.33974	0.00098	0.91287	-0.213
Mof_N 	N 	0.20195	0.8717	0.00767	-0.192
Mof_N 	N 	0.41418	0.94365	0.05967	-0.196
Mof_C 	C 	0.18044	0.88528	0.90937	0.047
Mof_H 	H 	0.14883	0.86847	0.90477	-0.017
Mof_C 	C 	0.20261	0.92281	0.81467	-0.116
Mof_H 	H 	0.18643	0.93137	0.74647	0.048
Mof_C 	C 	0.24843	0.9476	0.82047	0.006
Mof_H 	H 	0.26423	0.97387	0.75837	0.044
Mof_C 	C 	0.27118	0.93343	0.91907	-0.065
Mof_C 	C 	0.24664	0.89524	0.01087	0.041
Mof_H 	H 	0.26213	0.88557	0.07817	-0.001
Mof_C 	C 	0.3208	0.96072	0.92897	0.171
Mof_C 	C 	0.34715	0.93781	0.95427	-0.067
Mof_C 	C 	0.33564	0.89711	0.88537	0.011
Mof_H 	H 	0.30873	0.88107	0.82697	0.017
Mof_C 	C 	0.36422	0.88037	0.90377	-0.111
Mof_H 	H 	0.35743	0.85277	0.85657	0.053
Mof_C 	C 	0.40255	0.90415	0.99137	0.053
Mof_H 	H 	0.42173	0.89217	0.00437	-0.019
Mof_C 	C 	0.3868	0.96001	0.03977	0.048
Mof_H 	H 	0.39473	0.98797	0.08597	0.015
_end
