data_functionalizedCrystal
_audit_creation_method	'EQeq! by Chris Wilmer'
_symmetry_space_group_name_H-M	'P1'
_symmetry_Int_Tables_number	1
_symmetry_cell_setting	triclinic
loop_
_symmetry_equiv_pos_as_xyz
  x,y,z
_cell_length_a	19.8943
_cell_length_b	26.2204
_cell_length_c	17.9454
_cell_angle_alpha	90
_cell_angle_beta	119.636
_cell_angle_gamma	90
loop_
_atom_site_label
_atom_site_type_symbol
_atom_site_fract_x
_atom_site_fract_y
_atom_site_fract_z
_atom_site_charge
Mof_Ag	Ag	0.13908	0.05477	0.20142	0.573
Mof_Ag	Ag	0.85293	0.06247	0.06745	0.542
Mof_Ag	Ag	0.8851	0.96419	0.13011	0.37
Mof_Ag	Ag	0.04091	0.93599	0.15269	0.211
Mof_Ag	Ag	0.08234	0.00443	0.04173	0.246
Mof_Ag	Ag	0.00439	0.10996	0.07575	0.36
Mof_C 	C 	0.9614	0.0174	0.1181	-0.294
Mof_C 	C 	0.0224	0.0256	0.117	-0.33
Mof_C 	C 	0.1347	0.1525	0.2983	0.13
Mof_C 	C 	0.1596	0.2076	0.3323	0.889
Mof_C 	C 	0.7427	0.9794	0.1434	0.166
Mof_C 	C 	0.6561	0.9709	0.1174	0.839
Mof_C 	C 	0.2503	0.0379	0.1199	0.083
Mof_C 	C 	0.332	0.0397	0.1284	1.164
Mof_C 	C 	0.6794	0.113	0.9902	0.184
Mof_C 	C 	0.6045	0.1366	0.9446	0.098
Mof_C 	C 	0.5417	0.1077	0.8909	-0.092
Mof_H 	H 	0.5471	0.073	0.8844	0.206
Mof_C 	C 	0.4699	0.1311	0.8461	0.107
Mof_H 	H 	0.4269	0.1117	0.8097	0.103
Mof_C 	C 	0.4613	0.1812	0.8546	-0.088
Mof_H 	H 	0.4127	0.1961	0.8243	0.148
Mof_C 	C 	0.5259	0.2114	0.9093	0.097
Mof_C 	C 	0.5981	0.1884	0.9545	-0.089
Mof_H 	H 	0.6415	0.2076	0.9907	0.159
Mof_C 	C 	0.5175	0.2647	0.9152	0.157
Mof_F 	F 	0.2078	0.2261	0.3137	-0.497
Mof_F 	F 	0.1001	0.23923	0.3014	-0.479
Mof_F 	F 	0.1869	0.2097	0.4158	-0.484
Mof_F 	F 	0.6267	0.9286	0.0777	-0.418
Mof_F 	F 	0.6458	0.9742	0.1828	-0.435
Mof_F 	F 	0.6113	0.0098	0.0627	-0.352
Mof_F 	F 	0.3386	0.0116	0.0718	-0.278
Mof_F 	F 	0.3845	0.0267	0.2028	-0.259
Mof_F 	F 	0.3467	0.0847	0.1124	-0.316
Mof_N 	N 	0.7388	0.0949	0.0246	-0.152
Mof_N 	N 	0.51	0.3079	0.9174	-0.165
Mof_O 	O 	0.1644	0.13583	0.258	-0.233
Mof_O 	O 	0.088	0.13267	0.317	-0.288
Mof_O 	O 	0.765	0.02228	0.1687	-0.257
Mof_O 	O 	0.7757	0.94282	0.1308	-0.221
Mof_O 	O 	0.2041	0.0079	0.0637	-0.266
Mof_O 	O 	0.2408	0.0658	0.1685	-0.168
Mof_F 	F 	0.3689	0.9936	0.1618	-0.287
Mof_F 	F 	0.3774	0.0718	0.1783	-0.279
Mof_F 	F 	0.3305	0.0433	0.0571	-0.28
Mof_Ag	Ag	0.63908	0.55477	0.20142	0.569
Mof_Ag	Ag	0.35293	0.56247	0.06745	0.539
Mof_Ag	Ag	0.3851	0.46419	0.13011	0.371
Mof_Ag	Ag	0.54091	0.43599	0.15269	0.224
Mof_Ag	Ag	0.58234	0.50443	0.04173	0.252
Mof_Ag	Ag	0.50439	0.60996	0.07575	0.372
Mof_C 	C 	0.4614	0.5174	0.1181	-0.309
Mof_C 	C 	0.5224	0.5256	0.117	-0.321
Mof_C 	C 	0.6347	0.6525	0.2983	0.131
Mof_C 	C 	0.6596	0.7076	0.3323	0.889
Mof_C 	C 	0.2427	0.4794	0.1434	0.168
Mof_C 	C 	0.1561	0.4709	0.1174	0.839
Mof_C 	C 	0.7503	0.5379	0.1199	0.083
Mof_C 	C 	0.832	0.5397	0.1284	1.163
Mof_C 	C 	0.1794	0.613	0.9902	0.185
Mof_C 	C 	0.1045	0.6366	0.9446	0.1
Mof_C 	C 	0.0417	0.6077	0.8909	-0.105
Mof_H 	H 	0.0471	0.573	0.8844	0.209
Mof_C 	C 	0.9699	0.6311	0.8461	0.118
Mof_H 	H 	0.9269	0.6117	0.8097	0.1
Mof_C 	C 	0.9613	0.6812	0.8546	-0.082
Mof_H 	H 	0.9127	0.6961	0.8243	0.148
Mof_C 	C 	0.0259	0.7114	0.9093	0.09
Mof_C 	C 	0.0981	0.6884	0.9545	-0.089
Mof_H 	H 	0.1415	0.7076	0.9907	0.159
Mof_C 	C 	0.0175	0.7647	0.9152	0.157
Mof_F 	F 	0.7078	0.7261	0.3137	-0.496
Mof_F 	F 	0.6001	0.73923	0.3014	-0.478
Mof_F 	F 	0.6869	0.7097	0.4158	-0.484
Mof_F 	F 	0.1267	0.4286	0.0777	-0.419
Mof_F 	F 	0.1458	0.4742	0.1828	-0.435
Mof_F 	F 	0.1113	0.5098	0.0627	-0.354
Mof_F 	F 	0.8386	0.5116	0.0718	-0.278
Mof_F 	F 	0.8845	0.5267	0.2028	-0.259
Mof_F 	F 	0.8467	0.5847	0.1124	-0.315
Mof_N 	N 	0.2388	0.5949	0.0246	-0.154
Mof_N 	N 	0.01	0.8079	0.9174	-0.169
Mof_O 	O 	0.6644	0.63583	0.258	-0.232
Mof_O 	O 	0.588	0.63267	0.317	-0.287
Mof_O 	O 	0.265	0.52228	0.1687	-0.259
Mof_O 	O 	0.2757	0.44282	0.1308	-0.221
Mof_O 	O 	0.7041	0.5079	0.0637	-0.266
Mof_O 	O 	0.7408	0.5658	0.1685	-0.167
Mof_F 	F 	0.8689	0.4936	0.1618	-0.285
Mof_F 	F 	0.8774	0.5718	0.1783	-0.278
Mof_F 	F 	0.8305	0.5433	0.0571	-0.28
Mof_Ag	Ag	0.86092	0.05477	0.29858	0.567
Mof_Ag	Ag	0.14707	0.06247	0.43255	0.538
Mof_Ag	Ag	0.1149	0.96419	0.36989	0.368
Mof_Ag	Ag	0.95909	0.93599	0.34731	0.234
Mof_Ag	Ag	0.91766	0.00443	0.45827	0.254
Mof_Ag	Ag	0.99561	0.10996	0.42425	0.388
Mof_C 	C 	0.0386	0.0174	0.3819	-0.319
Mof_C 	C 	0.9776	0.0256	0.383	-0.312
Mof_C 	C 	0.8653	0.1525	0.2017	0.13
Mof_C 	C 	0.8404	0.2076	0.1677	0.889
Mof_C 	C 	0.2573	0.9794	0.3566	0.167
Mof_C 	C 	0.3439	0.9709	0.3826	0.839
Mof_C 	C 	0.7497	0.0379	0.3801	0.083
Mof_C 	C 	0.668	0.0397	0.3716	1.164
Mof_C 	C 	0.3206	0.113	0.5098	0.188
Mof_C 	C 	0.3955	0.1366	0.5554	0.096
Mof_C 	C 	0.4583	0.1077	0.6091	-0.091
Mof_H 	H 	0.4529	0.073	0.6156	0.206
Mof_C 	C 	0.5301	0.1311	0.6539	0.106
Mof_H 	H 	0.5731	0.1117	0.6903	0.103
Mof_C 	C 	0.5387	0.1812	0.6454	-0.087
Mof_H 	H 	0.5873	0.1961	0.6757	0.148
Mof_C 	C 	0.4741	0.2114	0.5907	0.097
Mof_C 	C 	0.4019	0.1884	0.5455	-0.088
Mof_H 	H 	0.3585	0.2076	0.5093	0.159
Mof_C 	C 	0.4825	0.2647	0.5848	0.158
Mof_F 	F 	0.7922	0.2261	0.1863	-0.496
Mof_F 	F 	0.8999	0.23923	0.1986	-0.476
Mof_F 	F 	0.8131	0.2097	0.0842	-0.483
Mof_F 	F 	0.3733	0.9286	0.4223	-0.418
Mof_F 	F 	0.3542	0.9742	0.3172	-0.435
Mof_F 	F 	0.3887	0.0098	0.4373	-0.353
Mof_F 	F 	0.6614	0.0116	0.4282	-0.278
Mof_F 	F 	0.6155	0.0267	0.2972	-0.259
Mof_F 	F 	0.6533	0.0847	0.3876	-0.316
Mof_N 	N 	0.2612	0.0949	0.4754	-0.154
Mof_N 	N 	0.49	0.3079	0.5826	-0.165
Mof_O 	O 	0.8356	0.13583	0.242	-0.232
Mof_O 	O 	0.912	0.13267	0.183	-0.283
Mof_O 	O 	0.235	0.02228	0.3313	-0.259
Mof_O 	O 	0.2243	0.94282	0.3692	-0.221
Mof_O 	O 	0.7959	0.0079	0.4363	-0.267
Mof_O 	O 	0.7592	0.0658	0.3315	-0.167
Mof_F 	F 	0.6311	0.9936	0.3382	-0.286
Mof_F 	F 	0.6226	0.0718	0.3217	-0.279
Mof_F 	F 	0.6695	0.0433	0.4429	-0.28
Mof_Ag	Ag	0.36092	0.55477	0.29858	0.569
Mof_Ag	Ag	0.64707	0.56247	0.43255	0.539
Mof_Ag	Ag	0.6149	0.46419	0.36989	0.37
Mof_Ag	Ag	0.45909	0.43599	0.34731	0.223
Mof_Ag	Ag	0.41766	0.50443	0.45827	0.25
Mof_Ag	Ag	0.49561	0.60996	0.42425	0.372
Mof_C 	C 	0.5386	0.5174	0.3819	-0.309
Mof_C 	C 	0.4776	0.5256	0.383	-0.321
Mof_C 	C 	0.3653	0.6525	0.2017	0.131
Mof_C 	C 	0.3404	0.7076	0.1677	0.889
Mof_C 	C 	0.7573	0.4794	0.3566	0.168
Mof_C 	C 	0.8439	0.4709	0.3826	0.839
Mof_C 	C 	0.2497	0.5379	0.3801	0.082
Mof_C 	C 	0.168	0.5397	0.3716	1.165
Mof_C 	C 	0.8206	0.613	0.5098	0.19
Mof_C 	C 	0.8955	0.6366	0.5554	0.093
Mof_C 	C 	0.9583	0.6077	0.6091	-0.077
Mof_H 	H 	0.9529	0.573	0.6156	0.203
Mof_C 	C 	0.0301	0.6311	0.6539	0.094
Mof_H 	H 	0.0731	0.6117	0.6903	0.106
Mof_C 	C 	0.0387	0.6812	0.6454	-0.092
Mof_H 	H 	0.0873	0.6961	0.6757	0.149
Mof_C 	C 	0.9741	0.7114	0.5907	0.104
Mof_C 	C 	0.9019	0.6884	0.5455	-0.087
Mof_H 	H 	0.8585	0.7076	0.5093	0.159
Mof_C 	C 	0.9825	0.7647	0.5848	0.158
Mof_F 	F 	0.2922	0.7261	0.1863	-0.497
Mof_F 	F 	0.3999	0.73923	0.1986	-0.478
Mof_F 	F 	0.3131	0.7097	0.0842	-0.484
Mof_F 	F 	0.8733	0.4286	0.4223	-0.416
Mof_F 	F 	0.8542	0.4742	0.3172	-0.433
Mof_F 	F 	0.8887	0.5098	0.4373	-0.352
Mof_F 	F 	0.1614	0.5116	0.4282	-0.279
Mof_F 	F 	0.1155	0.5267	0.2972	-0.261
Mof_F 	F 	0.1533	0.5847	0.3876	-0.317
Mof_N 	N 	0.7612	0.5949	0.4754	-0.155
Mof_N 	N 	0.99	0.8079	0.5826	-0.16
Mof_O 	O 	0.3356	0.63583	0.242	-0.233
Mof_O 	O 	0.412	0.63267	0.183	-0.287
Mof_O 	O 	0.735	0.52228	0.3313	-0.259
Mof_O 	O 	0.7243	0.44282	0.3692	-0.221
Mof_O 	O 	0.2959	0.5079	0.4363	-0.267
Mof_O 	O 	0.2592	0.5658	0.3315	-0.168
Mof_F 	F 	0.1311	0.4936	0.3382	-0.287
Mof_F 	F 	0.1226	0.5718	0.3217	-0.28
Mof_F 	F 	0.1695	0.5433	0.4429	-0.281
Mof_Ag	Ag	0.86092	0.94522	0.79858	0.568
Mof_Ag	Ag	0.14707	0.93753	0.93255	0.539
Mof_Ag	Ag	0.1149	0.03581	0.86989	0.365
Mof_Ag	Ag	0.95909	0.06401	0.84731	0.232
Mof_Ag	Ag	0.91766	0.99557	0.95827	0.254
Mof_Ag	Ag	0.99561	0.89004	0.92425	0.386
Mof_C 	C 	0.0386	0.9826	0.8819	-0.316
Mof_C 	C 	0.9776	0.9744	0.883	-0.314
Mof_C 	C 	0.8653	0.8475	0.7017	0.13
Mof_C 	C 	0.8404	0.7924	0.6677	0.889
Mof_C 	C 	0.2573	0.0206	0.8566	0.166
Mof_C 	C 	0.3439	0.0291	0.8826	0.838
Mof_C 	C 	0.7497	0.9621	0.8801	0.083
Mof_C 	C 	0.668	0.9603	0.8716	1.165
Mof_C 	C 	0.3206	0.887	0.0098	0.187
Mof_C 	C 	0.3955	0.8634	0.0554	0.097
Mof_C 	C 	0.4583	0.8923	0.1091	-0.091
Mof_H 	H 	0.4529	0.927	0.1156	0.206
Mof_C 	C 	0.5301	0.8689	0.1539	0.106
Mof_H 	H 	0.5731	0.8883	0.1903	0.103
Mof_C 	C 	0.5387	0.8188	0.1454	-0.087
Mof_H 	H 	0.5873	0.8039	0.1757	0.148
Mof_C 	C 	0.4741	0.7886	0.0907	0.097
Mof_C 	C 	0.4019	0.8116	0.0455	-0.088
Mof_H 	H 	0.3585	0.7924	0.0093	0.159
Mof_C 	C 	0.4825	0.7353	0.0848	0.157
Mof_F 	F 	0.7922	0.7739	0.6863	-0.497
Mof_F 	F 	0.8999	0.76077	0.6986	-0.476
Mof_F 	F 	0.8131	0.7903	0.5842	-0.484
Mof_F 	F 	0.3733	0.0714	0.9223	-0.418
Mof_F 	F 	0.3542	0.0258	0.8172	-0.435
Mof_F 	F 	0.3887	0.9902	0.9373	-0.352
Mof_F 	F 	0.6614	0.9884	0.9282	-0.278
Mof_F 	F 	0.6155	0.9733	0.7972	-0.259
Mof_F 	F 	0.6533	0.9153	0.8876	-0.316
Mof_N 	N 	0.2612	0.9051	0.9754	-0.154
Mof_N 	N 	0.49	0.6921	0.0826	-0.165
Mof_O 	O 	0.8356	0.86417	0.742	-0.232
Mof_O 	O 	0.912	0.86733	0.683	-0.283
Mof_O 	O 	0.235	0.97772	0.8313	-0.257
Mof_O 	O 	0.2243	0.05718	0.8692	-0.221
Mof_O 	O 	0.7959	0.9921	0.9363	-0.267
Mof_O 	O 	0.7592	0.9342	0.8315	-0.167
Mof_F 	F 	0.6311	0.0064	0.8382	-0.287
Mof_F 	F 	0.6226	0.9282	0.8217	-0.279
Mof_F 	F 	0.6695	0.9567	0.9429	-0.28
Mof_Ag	Ag	0.36092	0.44523	0.79858	0.569
Mof_Ag	Ag	0.64707	0.43753	0.93255	0.538
Mof_Ag	Ag	0.6149	0.53581	0.86989	0.37
Mof_Ag	Ag	0.45909	0.56401	0.84731	0.223
Mof_Ag	Ag	0.41766	0.49557	0.95827	0.249
Mof_Ag	Ag	0.49561	0.39004	0.92425	0.371
Mof_C 	C 	0.5386	0.4826	0.8819	-0.309
Mof_C 	C 	0.4776	0.4744	0.883	-0.321
Mof_C 	C 	0.3653	0.3475	0.7017	0.131
Mof_C 	C 	0.3404	0.2924	0.6677	0.889
Mof_C 	C 	0.7573	0.5206	0.8566	0.168
Mof_C 	C 	0.8439	0.5291	0.8826	0.839
Mof_C 	C 	0.2497	0.4621	0.8801	0.082
Mof_C 	C 	0.168	0.4603	0.8716	1.165
Mof_C 	C 	0.8206	0.387	0.0098	0.192
Mof_C 	C 	0.8955	0.3634	0.0554	0.092
Mof_C 	C 	0.9583	0.3923	0.1091	-0.076
Mof_H 	H 	0.9529	0.427	0.1156	0.203
Mof_C 	C 	0.0301	0.3689	0.1539	0.093
Mof_H 	H 	0.0731	0.3883	0.1903	0.106
Mof_C 	C 	0.0387	0.3188	0.1454	-0.092
Mof_H 	H 	0.0873	0.3039	0.1757	0.149
Mof_C 	C 	0.9741	0.2886	0.0907	0.104
Mof_C 	C 	0.9019	0.3116	0.0455	-0.087
Mof_H 	H 	0.8585	0.2924	0.0093	0.159
Mof_C 	C 	0.9825	0.2353	0.0848	0.159
Mof_F 	F 	0.2922	0.2739	0.6863	-0.497
Mof_F 	F 	0.3999	0.26077	0.6986	-0.478
Mof_F 	F 	0.3131	0.2903	0.5842	-0.484
Mof_F 	F 	0.8733	0.5714	0.9223	-0.416
Mof_F 	F 	0.8542	0.5258	0.8172	-0.434
Mof_F 	F 	0.8887	0.4902	0.9373	-0.352
Mof_F 	F 	0.1614	0.4884	0.9282	-0.279
Mof_F 	F 	0.1155	0.4733	0.7972	-0.261
Mof_F 	F 	0.1533	0.4153	0.8876	-0.317
Mof_N 	N 	0.7612	0.4051	0.9754	-0.156
Mof_N 	N 	0.99	0.1921	0.0826	-0.16
Mof_O 	O 	0.3356	0.36417	0.742	-0.233
Mof_O 	O 	0.412	0.36733	0.683	-0.287
Mof_O 	O 	0.735	0.47772	0.8313	-0.259
Mof_O 	O 	0.7243	0.55718	0.8692	-0.221
Mof_O 	O 	0.2959	0.4921	0.9363	-0.267
Mof_O 	O 	0.2592	0.4342	0.8315	-0.168
Mof_F 	F 	0.1311	0.5064	0.8382	-0.287
Mof_F 	F 	0.1226	0.4282	0.8217	-0.28
Mof_F 	F 	0.1695	0.4567	0.9429	-0.281
Mof_Ag	Ag	0.13908	0.94522	0.70142	0.574
Mof_Ag	Ag	0.85293	0.93753	0.56745	0.541
Mof_Ag	Ag	0.8851	0.03581	0.63011	0.373
Mof_Ag	Ag	0.04091	0.06401	0.65269	0.212
Mof_Ag	Ag	0.08234	0.99557	0.54173	0.245
Mof_Ag	Ag	0.00439	0.89004	0.57575	0.36
Mof_C 	C 	0.9614	0.9826	0.6181	-0.297
Mof_C 	C 	0.0224	0.9744	0.617	-0.329
Mof_C 	C 	0.1347	0.8475	0.7983	0.13
Mof_C 	C 	0.1596	0.7924	0.8323	0.889
Mof_C 	C 	0.7427	0.0206	0.6434	0.167
Mof_C 	C 	0.6561	0.0291	0.6174	0.839
Mof_C 	C 	0.2503	0.9621	0.6199	0.083
Mof_C 	C 	0.332	0.9603	0.6284	1.165
Mof_C 	C 	0.6794	0.887	0.4902	0.188
Mof_C 	C 	0.6045	0.8634	0.4446	0.096
Mof_C 	C 	0.5417	0.8923	0.3909	-0.091
Mof_H 	H 	0.5471	0.927	0.3844	0.206
Mof_C 	C 	0.4699	0.8689	0.3461	0.106
Mof_H 	H 	0.4269	0.8883	0.3097	0.103
Mof_C 	C 	0.4613	0.8188	0.3546	-0.087
Mof_H 	H 	0.4127	0.8039	0.3243	0.148
Mof_C 	C 	0.5259	0.7886	0.4093	0.097
Mof_C 	C 	0.5981	0.8116	0.4545	-0.088
Mof_H 	H 	0.6415	0.7924	0.4907	0.159
Mof_C 	C 	0.5175	0.7353	0.4152	0.157
Mof_F 	F 	0.2078	0.7739	0.8137	-0.497
Mof_F 	F 	0.1001	0.76077	0.8014	-0.479
Mof_F 	F 	0.1869	0.7903	0.9158	-0.484
Mof_F 	F 	0.6267	0.0714	0.5777	-0.417
Mof_F 	F 	0.6458	0.0258	0.6828	-0.435
Mof_F 	F 	0.6113	0.9902	0.5627	-0.353
Mof_F 	F 	0.3386	0.9884	0.5718	-0.278
Mof_F 	F 	0.3845	0.9733	0.7028	-0.259
Mof_F 	F 	0.3467	0.9153	0.6124	-0.316
Mof_N 	N 	0.7388	0.9051	0.5246	-0.155
Mof_N 	N 	0.51	0.6921	0.4174	-0.165
Mof_O 	O 	0.1644	0.86417	0.758	-0.233
Mof_O 	O 	0.088	0.86733	0.817	-0.288
Mof_O 	O 	0.765	0.97772	0.6687	-0.258
Mof_O 	O 	0.7757	0.05718	0.6308	-0.221
Mof_O 	O 	0.2041	0.9921	0.5637	-0.266
Mof_O 	O 	0.2408	0.9342	0.6685	-0.168
Mof_F 	F 	0.3689	0.0064	0.6618	-0.287
Mof_F 	F 	0.3774	0.9282	0.6783	-0.279
Mof_F 	F 	0.3305	0.9567	0.5571	-0.281
Mof_Ag	Ag	0.63908	0.44523	0.70142	0.569
Mof_Ag	Ag	0.35293	0.43753	0.56745	0.538
Mof_Ag	Ag	0.3851	0.53581	0.63011	0.37
Mof_Ag	Ag	0.54091	0.56401	0.65269	0.223
Mof_Ag	Ag	0.58234	0.49557	0.54173	0.25
Mof_Ag	Ag	0.50439	0.39004	0.57575	0.372
Mof_C 	C 	0.4614	0.4826	0.6181	-0.309
Mof_C 	C 	0.5224	0.4744	0.617	-0.321
Mof_C 	C 	0.6347	0.3475	0.7983	0.131
Mof_C 	C 	0.6596	0.2924	0.8323	0.889
Mof_C 	C 	0.2427	0.5206	0.6434	0.168
Mof_C 	C 	0.1561	0.5291	0.6174	0.839
Mof_C 	C 	0.7503	0.4621	0.6199	0.083
Mof_C 	C 	0.832	0.4603	0.6284	1.163
Mof_C 	C 	0.1794	0.387	0.4902	0.186
Mof_C 	C 	0.1045	0.3634	0.4446	0.1
Mof_C 	C 	0.0417	0.3923	0.3909	-0.105
Mof_H 	H 	0.0471	0.427	0.3844	0.209
Mof_C 	C 	0.9699	0.3689	0.3461	0.119
Mof_H 	H 	0.9269	0.3883	0.3097	0.1
Mof_C 	C 	0.9613	0.3188	0.3546	-0.082
Mof_H 	H 	0.9127	0.3039	0.3243	0.148
Mof_C 	C 	0.0259	0.2886	0.4093	0.089
Mof_C 	C 	0.0981	0.3116	0.4545	-0.088
Mof_H 	H 	0.1415	0.2924	0.4907	0.159
Mof_C 	C 	0.0175	0.2353	0.4152	0.157
Mof_F 	F 	0.7078	0.2739	0.8137	-0.497
Mof_F 	F 	0.6001	0.26077	0.8014	-0.478
Mof_F 	F 	0.6869	0.2903	0.9158	-0.484
Mof_F 	F 	0.1267	0.5714	0.5777	-0.419
Mof_F 	F 	0.1458	0.5258	0.6828	-0.435
Mof_F 	F 	0.1113	0.4902	0.5627	-0.355
Mof_F 	F 	0.8386	0.4884	0.5718	-0.278
Mof_F 	F 	0.8845	0.4733	0.7028	-0.259
Mof_F 	F 	0.8467	0.4153	0.6124	-0.315
Mof_N 	N 	0.2388	0.4051	0.5246	-0.154
Mof_N 	N 	0.01	0.1921	0.4174	-0.169
Mof_O 	O 	0.6644	0.36417	0.758	-0.233
Mof_O 	O 	0.588	0.36733	0.817	-0.287
Mof_O 	O 	0.265	0.47772	0.6687	-0.259
Mof_O 	O 	0.2757	0.55718	0.6308	-0.221
Mof_O 	O 	0.7041	0.4921	0.5637	-0.267
Mof_O 	O 	0.7408	0.4342	0.6685	-0.167
Mof_F 	F 	0.8689	0.5064	0.6618	-0.285
Mof_F 	F 	0.8774	0.4282	0.6783	-0.278
Mof_F 	F 	0.8305	0.4567	0.5571	-0.28
Mof_Ag	Ag	1.26363e-33	0.06328	0.25	0.296
Mof_Ag	Ag	0.5	0.56328	0.25	0.311
Mof_Ag	Ag	5.58904e-17	0.93672	0.75	0.298
Mof_Ag	Ag	0.5	0.43672	0.75	0.311
_end
