data_functionalizedCrystal
_audit_creation_method	'EQeq! by Chris Wilmer'
_symmetry_space_group_name_H-M	'P1'
_symmetry_Int_Tables_number	1
_symmetry_cell_setting	triclinic
loop_
_symmetry_equiv_pos_as_xyz
  x,y,z
_cell_length_a	8.613
_cell_length_b	10.122
_cell_length_c	11.095
_cell_angle_alpha	65.205
_cell_angle_beta	71.609
_cell_angle_gamma	78.617
loop_
_atom_site_label
_atom_site_type_symbol
_atom_site_fract_x
_atom_site_fract_y
_atom_site_fract_z
_atom_site_charge
Mof_Eu	Eu	0.36782	0.06061	0.34674	1.968
Mof_Eu	Eu	0.63218	0.93939	0.65326	1.968
Mof_H 	H 	0.5759	0.7169	0.3176	0.032
Mof_H 	H 	0.4915	0.4732	0.717	0.043
Mof_H 	H 	0.9577	0.1484	0.1204	0.045
Mof_H 	H 	0.7847	0.8794	0.02	0.049
Mof_H 	H 	0.2705	0.4345	0.9157	0.055
Mof_H 	H 	0.8663	0.3859	0.229	0.037
Mof_H 	H 	0.4241	0.2831	0.6824	0.032
Mof_H 	H 	0.5085	0.5268	0.283	0.043
Mof_H 	H 	0.0423	0.8516	0.8796	0.045
Mof_H 	H 	0.2153	0.1206	0.98	0.049
Mof_H 	H 	0.7295	0.5655	0.0843	0.055
Mof_H 	H 	0.1337	0.6141	0.771	0.037
Mof_C 	C 	0.5714	0.7353	0.5496	0.396
Mof_C 	C 	0.5311	0.6135	0.524	-0.118
Mof_C 	C 	0.5436	0.6305	0.3915	-0.029
Mof_C 	C 	0.4931	0.485	0.6288	-0.013
Mof_C 	C 	0.679	0.0411	0.1679	0.317
Mof_C 	C 	0.8454	0.0178	0.082	-0.073
Mof_C 	C 	0.9749	0.0891	0.0714	-0.039
Mof_C 	C 	0.8707	0.9282	0.0118	-0.022
Mof_C 	C 	0.1742	0.2664	0.1826	0.328
Mof_C 	C 	0.082	0.3884	0.0878	-0.065
Mof_C 	C 	0.1608	0.4608	0.9494	-0.025
Mof_C 	C 	0.92	0.4313	0.1366	-0.016
Mof_C 	C 	0.4286	0.2647	0.4504	0.396
Mof_C 	C 	0.4689	0.3865	0.476	-0.118
Mof_C 	C 	0.4564	0.3695	0.6085	-0.029
Mof_C 	C 	0.5069	0.515	0.3712	-0.013
Mof_C 	C 	0.321	0.9589	0.8321	0.317
Mof_C 	C 	0.1546	0.9822	0.918	-0.073
Mof_C 	C 	0.0251	0.9109	0.9286	-0.039
Mof_C 	C 	0.1293	0.0718	0.9882	-0.022
Mof_C 	C 	0.8258	0.7336	0.8174	0.328
Mof_C 	C 	0.918	0.6116	0.9122	-0.065
Mof_C 	C 	0.8392	0.5392	0.0506	-0.025
Mof_C 	C 	0.08	0.5687	0.8634	-0.016
Mof_O 	O 	0.5368	0.8682	0.478	-0.608
Mof_O 	O 	0.6338	0.7036	0.6464	-0.466
Mof_O 	O 	0.6557	0.1206	0.2347	-0.436
Mof_O 	O 	0.5632	0.9752	0.1762	-0.439
Mof_O 	O 	0.1012	0.2012	0.3041	-0.479
Mof_O 	O 	0.322	0.2354	0.1309	-0.442
Mof_O 	O 	0.4632	0.1318	0.522	-0.608
Mof_O 	O 	0.3662	0.2964	0.3536	-0.466
Mof_O 	O 	0.3443	0.8794	0.7653	-0.436
Mof_O 	O 	0.4368	0.0248	0.8238	-0.439
Mof_O 	O 	0.8988	0.7988	0.6959	-0.479
Mof_O 	O 	0.678	0.7646	0.8691	-0.442
_end
