data_functionalizedCrystal
_audit_creation_method	'EQeq! by Chris Wilmer'
_symmetry_space_group_name_H-M	'P1'
_symmetry_Int_Tables_number	1
_symmetry_cell_setting	triclinic
loop_
_symmetry_equiv_pos_as_xyz
  x,y,z
_cell_length_a	19.8953
_cell_length_b	18.6848
_cell_length_c	27.9037
_cell_angle_alpha	90
_cell_angle_beta	107.266
_cell_angle_gamma	90
loop_
_atom_site_label
_atom_site_type_symbol
_atom_site_fract_x
_atom_site_fract_y
_atom_site_fract_z
_atom_site_charge
Mof_Sm	Sm	0.49451	0.01622	0.41361	0.648
Mof_Sm	Sm	0.45628	0.43118	0.44133	2.125
Mof_O 	O 	0.40771	0.92582	0.36681	-0.033
Mof_O 	O 	0.48816	0.88729	0.43482	-0.095
Mof_O 	O 	0.5765	0.1057	0.3906	-0.309
Mof_O 	O 	0.079	0.7011	0.11503	-0.39
Mof_O 	O 	0.0918	0.58898	0.13871	-0.579
Mof_O 	O 	0.421	0.55305	0.42546	-0.52
Mof_O 	O 	0.48797	0.62949	0.48147	-0.571
Mof_O 	O 	0.43817	0.50442	0.52859	-0.622
Mof_O 	O 	0.4681	0.5355	0.85656	-0.445
Mof_O 	O 	0.3637	0.5687	0.85881	-0.453
Mof_O 	O 	0.08292	0.49177	0.53744	-0.651
Mof_O 	O 	0.10995	0.5	0.46692	-0.599
Mof_O 	O 	0.35508	0.4466	0.47122	-0.52
Mof_C 	C 	0.4353	0.8762	0.39653	0.266
Mof_C 	C 	0.406	0.8017	0.38614	-0.032
Mof_C 	C 	0.4351	0.7458	0.41837	0.038
Mof_H 	H 	0.4718	0.755	0.4484	0.033
Mof_C 	C 	0.4106	0.6765	0.40682	-0.127
Mof_C 	C 	0.4437	0.6138	0.44087	0.494
Mof_C 	C 	0.3568	0.6632	0.36272	0.003
Mof_H 	H 	0.3405	0.6156	0.3548	0.044
Mof_C 	C 	0.3263	0.7192	0.32968	0.009
Mof_C 	C 	0.3516	0.7884	0.34249	-0.028
Mof_H 	H 	0.3314	0.8271	0.321	0.055
Mof_C 	C 	0.2696	0.7039	0.28241	-0.015
Mof_C 	C 	0.2618	0.6356	0.2614	-0.379
Mof_H 	H 	0.2934	0.5987	0.2775	0.142
Mof_C 	C 	0.209	0.6202	0.2176	-0.281
Mof_H 	H 	0.204	0.5728	0.2047	0.112
Mof_C 	C 	0.1731	0.7423	0.2114	-1.362
Mof_H 	H 	0.1438	0.7797	0.1936	0.395
Mof_C 	C 	0.2247	0.7574	0.2558	-1.542
Mof_H 	H 	0.2296	0.805	0.2685	0.517
Mof_C 	C 	0.1637	0.6726	0.19237	-0.261
Mof_C 	C 	0.1074	0.6534	0.14528	0.498
Mof_C 	C 	0.3757	0.4816	0.51112	0.477
Mof_C 	C 	0.3241	0.4946	0.54003	-0.198
Mof_C 	C 	0.2526	0.4897	0.51515	0.129
Mof_H 	H 	0.237	0.4805	0.4801	0.009
Mof_C 	C 	0.2038	0.4984	0.54163	-0.224
Mof_C 	C 	0.127	0.4963	0.51382	0.553
Mof_C 	C 	0.2271	0.5087	0.59306	0.08
Mof_H 	H 	0.1938	0.5124	0.6113	0.005
Mof_C 	C 	0.2996	0.5138	0.61887	-0.085
Mof_C 	C 	0.3472	0.5076	0.59112	0.063
Mof_H 	H 	0.3962	0.5123	0.6075	-0
Mof_C 	C 	0.3253	0.5226	0.67439	0.058
Mof_C 	C 	0.3757	0.5383	0.77895	-0.096
Mof_C 	C 	0.4038	0.5492	0.83472	0.328
Mof_C 	C 	0.2793	0.544	0.7001	-0.01
Mof_H 	H 	0.2312	0.5537	0.6832	0.048
Mof_C 	C 	0.3069	0.5507	0.7517	-0.015
Mof_H 	H 	0.2755	0.565	0.7698	0.004
Mof_C 	C 	0.4161	0.501	0.7532	-0.024
Mof_H 	H 	0.4604	0.4811	0.7713	0.04
Mof_C 	C 	0.3908	0.4934	0.7014	-0.028
Mof_H 	H 	0.418	0.4683	0.684	0.039
Mof_O 	O 	0.5438	0.9638	0.3542	0.162
Mof_N 	N 	0.5807	0.9618	0.2841	0.532
Mof_C 	C 	0.5629	0.9373	0.3212	0.161
Mof_C 	C 	0.6077	0.9239	0.2488	-1.296
Mof_H 	H 	0.6101	0.8726	0.2566	0.702
Mof_H 	H 	0.6549	0.9416	0.2511	0.59
Mof_H 	H 	0.5765	0.9316	0.2147	0.558
Mof_C 	C 	0.5764	0.0388	0.2789	-1.35
Mof_H 	H 	0.5578	0.059	0.3048	0.343
Mof_H 	H 	0.5451	0.0512	0.2457	0.269
Mof_H 	H 	0.6235	0.0583	0.2828	0.416
Mof_C 	C 	0.576	0.8542	0.327	-0.009
Mof_H 	H 	0.5621	0.8367	0.3558	0.393
Mof_H 	H 	0.6261	0.8442	0.3323	0.052
Mof_H 	H 	0.5481	0.8299	0.2964	0.068
Mof_O 	O 	0.5496	0.1123	0.3754	-0.03
Mof_C 	C 	0.2298	0.6413	0.2786	0.25
Mof_H 	H 	0.2386	0.609	0.3061	-0.033
Mof_C 	C 	0.1773	0.6266	0.2342	0.367
Mof_H 	H 	0.1498	0.5845	0.2319	-0.087
Mof_C 	C 	0.1977	0.7348	0.199	1.433
Mof_H 	H 	0.1858	0.7696	0.173	-0.415
Mof_C 	C 	0.2508	0.7498	0.2436	1.462
Mof_H 	H 	0.2746	0.7944	0.2466	-0.437
Mof_C 	C 	0.2894	0.55	0.706	-0.057
Mof_H 	H 	0.2424	0.5633	0.6889	-0.003
Mof_C 	C 	0.3073	0.561	0.7575	0.026
Mof_H 	H 	0.2776	0.5816	0.7749	0.013
Mof_C 	C 	0.4174	0.5597	0.7502	0.028
Mof_H 	H 	0.4621	0.5811	0.765	0.011
Mof_C 	C 	0.392	0.5487	0.6988	-0.095
Mof_H 	H 	0.4222	0.5598	0.6791	0.058
Mof_O 	O 	0.537	0.819	0.3293	-0.726
Mof_C 	C 	0.5581	0.7873	0.2981	0.702
Mof_N 	N 	0.5337	0.7256	0.2783	-0.252
Mof_C 	C 	0.4836	0.6878	0.2978	0.198
Mof_H 	H 	0.4728	0.7154	0.3236	-0.016
Mof_H 	H 	0.4411	0.678	0.2715	-0.033
Mof_H 	H 	0.5052	0.6435	0.3117	-0.009
Mof_C 	C 	0.5569	0.6831	0.2427	0.045
Mof_H 	H 	0.5885	0.7132	0.2317	0.003
Mof_H 	H 	0.58	0.6389	0.2553	0.015
Mof_H 	H 	0.5159	0.6735	0.2151	-0.081
Mof_C 	C 	0.6122	0.8287	0.2769	-1.743
Mof_H 	H 	0.6239	0.8727	0.2952	0.513
Mof_H 	H 	0.6543	0.8011	0.2809	0.531
Mof_H 	H 	0.5909	0.8389	0.242	0.302
Mof_O 	O 	0.6387	0.028	0.3288	-0.531
Mof_Sm	Sm	0.99451	0.51622	0.41361	2.418
Mof_Sm	Sm	0.95628	0.93118	0.44133	2.998
Mof_O 	O 	0.90771	0.42582	0.36681	-0.459
Mof_O 	O 	0.98816	0.38729	0.43482	-0.473
Mof_O 	O 	0.0765	0.6057	0.3906	0.041
Mof_O 	O 	0.579	0.2011	0.11503	-0.37
Mof_O 	O 	0.5918	0.08898	0.13871	-0.571
Mof_O 	O 	0.921	0.05305	0.42546	-1.016
Mof_O 	O 	0.98797	0.12949	0.48147	-0.604
Mof_O 	O 	0.93817	0.00442	0.52859	-1.316
Mof_O 	O 	0.9681	0.0355	0.85656	-0.462
Mof_O 	O 	0.8637	0.0687	0.85881	-0.404
Mof_O 	O 	0.58292	0.99177	0.53744	-0.635
Mof_O 	O 	0.60995	0	0.46692	-1.295
Mof_O 	O 	0.85508	0.9466	0.47122	-0.52
Mof_C 	C 	0.9353	0.3762	0.39653	0.331
Mof_C 	C 	0.906	0.3017	0.38614	-0.115
Mof_C 	C 	0.9351	0.2458	0.41837	0.084
Mof_H 	H 	0.9718	0.255	0.4484	0.001
Mof_C 	C 	0.9106	0.1765	0.40682	-0.239
Mof_C 	C 	0.9437	0.1138	0.44087	0.542
Mof_C 	C 	0.8568	0.1632	0.36272	0.054
Mof_H 	H 	0.8405	0.1156	0.3548	-0.05
Mof_C 	C 	0.8263	0.2192	0.32968	-0.032
Mof_C 	C 	0.8516	0.2884	0.34249	-0.001
Mof_H 	H 	0.8314	0.3271	0.321	0.031
Mof_C 	C 	0.7696	0.2039	0.28241	-0.053
Mof_C 	C 	0.7618	0.1356	0.2614	-0.714
Mof_H 	H 	0.7934	0.0987	0.2775	0.16
Mof_C 	C 	0.709	0.1202	0.2176	-0.585
Mof_H 	H 	0.704	0.0728	0.2047	-0.06
Mof_C 	C 	0.6731	0.2423	0.2114	-2.392
Mof_H 	H 	0.6438	0.2797	0.1936	0.783
Mof_C 	C 	0.7247	0.2574	0.2558	-2.645
Mof_H 	H 	0.7296	0.305	0.2685	0.872
Mof_C 	C 	0.6637	0.1726	0.19237	-0.389
Mof_C 	C 	0.6074	0.1534	0.14528	0.467
Mof_C 	C 	0.8757	0.9816	0.51112	0.901
Mof_C 	C 	0.8241	0.9946	0.54003	1.497
Mof_C 	C 	0.7526	0.9897	0.51515	-0.972
Mof_H 	H 	0.737	0.9805	0.4801	0.554
Mof_C 	C 	0.7038	0.9984	0.54163	1.379
Mof_C 	C 	0.627	0.9963	0.51382	1.112
Mof_C 	C 	0.7271	0.0087	0.59306	-2.039
Mof_H 	H 	0.6938	0.0124	0.6113	0.437
Mof_C 	C 	0.7996	0.0138	0.61887	1.453
Mof_C 	C 	0.8472	0.0076	0.59112	-2.165
Mof_H 	H 	0.8962	0.0123	0.6075	0.571
Mof_C 	C 	0.8253	0.0226	0.67439	-1.604
Mof_C 	C 	0.8757	0.0383	0.77895	1.077
Mof_C 	C 	0.9038	0.0492	0.83472	-0.186
Mof_C 	C 	0.7793	0.044	0.7001	-0.094
Mof_H 	H 	0.7312	0.0537	0.6832	-0.025
Mof_C 	C 	0.8069	0.0507	0.7517	-0.096
Mof_H 	H 	0.7755	0.065	0.7698	0.087
Mof_C 	C 	0.9161	0.001	0.7532	10.781
Mof_H 	H 	0.9604	0.9811	0.7713	-2.929
Mof_C 	C 	0.8908	0.9934	0.7014	-12.591
Mof_H 	H 	0.918	0.9683	0.684	4.579
Mof_O 	O 	0.0438	0.4638	0.3542	-0.518
Mof_N 	N 	0.0807	0.4618	0.2841	-0.061
Mof_C 	C 	0.0629	0.4373	0.3212	0.333
Mof_C 	C 	0.1077	0.4239	0.2488	-0.738
Mof_H 	H 	0.1101	0.3726	0.2566	0.429
Mof_H 	H 	0.1549	0.4416	0.2511	0.242
Mof_H 	H 	0.0765	0.4316	0.2147	0.253
Mof_C 	C 	0.0764	0.5388	0.2789	-0.238
Mof_H 	H 	0.0578	0.559	0.3048	0.14
Mof_H 	H 	0.0451	0.5512	0.2457	0.103
Mof_H 	H 	0.1235	0.5583	0.2828	0.152
Mof_C 	C 	0.076	0.3542	0.327	-0.26
Mof_H 	H 	0.0621	0.3367	0.3558	0.374
Mof_H 	H 	0.1261	0.3442	0.3323	0.075
Mof_H 	H 	0.0481	0.3299	0.2964	0.191
Mof_O 	O 	0.0496	0.6123	0.3754	-0.377
Mof_C 	C 	0.7298	0.1413	0.2786	0.507
Mof_H 	H 	0.7386	0.109	0.3061	-0.195
Mof_C 	C 	0.6773	0.1266	0.2342	0.747
Mof_H 	H 	0.6498	0.0845	0.2319	-0.322
Mof_C 	C 	0.6977	0.2348	0.199	2.47
Mof_H 	H 	0.6858	0.2696	0.173	-0.733
Mof_C 	C 	0.7508	0.2498	0.2436	2.575
Mof_H 	H 	0.7746	0.2944	0.2466	-0.75
Mof_C 	C 	0.7894	0.05	0.706	0.23
Mof_H 	H 	0.7424	0.0633	0.6889	-0.065
Mof_C 	C 	0.8073	0.061	0.7575	-0.394
Mof_H 	H 	0.7776	0.0816	0.7749	0.019
Mof_C 	C 	0.9174	0.0597	0.7502	-13.813
Mof_H 	H 	0.9621	0.0811	0.765	4.443
Mof_C 	C 	0.892	0.0487	0.6988	14.525
Mof_H 	H 	0.9222	0.0598	0.6791	-4.782
Mof_O 	O 	0.037	0.319	0.3293	-0.601
Mof_C 	C 	0.0581	0.2873	0.2981	0.424
Mof_N 	N 	0.0337	0.2256	0.2783	-0.228
Mof_C 	C 	0.9836	0.1878	0.2978	0.181
Mof_H 	H 	0.9728	0.2154	0.3236	-0.021
Mof_H 	H 	0.9411	0.178	0.2715	-0.037
Mof_H 	H 	0.0052	0.1435	0.3117	-0.038
Mof_C 	C 	0.0569	0.1831	0.2427	0.093
Mof_H 	H 	0.0885	0.2132	0.2317	-0.03
Mof_H 	H 	0.08	0.1389	0.2553	-0.105
Mof_H 	H 	0.0159	0.1735	0.2151	-0.098
Mof_C 	C 	0.1122	0.3287	0.2769	-1.222
Mof_H 	H 	0.1239	0.3727	0.2952	0.351
Mof_H 	H 	0.1543	0.3011	0.2809	0.329
Mof_H 	H 	0.0909	0.3389	0.242	0.24
Mof_O 	O 	0.1387	0.528	0.3288	-0.169
Mof_Sm	Sm	0.50549	0.01622	0.08639	0.651
Mof_Sm	Sm	0.54372	0.43118	0.05867	2.123
Mof_O 	O 	0.59229	0.92582	0.13319	-0.035
Mof_O 	O 	0.51184	0.88729	0.06518	-0.096
Mof_O 	O 	0.4235	0.1057	0.1094	-0.307
Mof_O 	O 	0.921	0.7011	0.38497	-0.39
Mof_O 	O 	0.9082	0.58898	0.36129	-0.58
Mof_O 	O 	0.579	0.55305	0.07454	-0.52
Mof_O 	O 	0.51203	0.62949	0.01853	-0.571
Mof_O 	O 	0.56183	0.50442	0.97141	-0.622
Mof_O 	O 	0.5319	0.5355	0.64344	-0.445
Mof_O 	O 	0.6363	0.5687	0.64119	-0.453
Mof_O 	O 	0.91708	0.49177	0.96256	-0.65
Mof_O 	O 	0.89005	0.5	0.03308	-0.595
Mof_O 	O 	0.64492	0.4466	0.02878	-0.519
Mof_C 	C 	0.5647	0.8762	0.10347	0.266
Mof_C 	C 	0.594	0.8017	0.11386	-0.032
Mof_C 	C 	0.5649	0.7458	0.08163	0.038
Mof_H 	H 	0.5282	0.755	0.0516	0.033
Mof_C 	C 	0.5894	0.6765	0.09318	-0.127
Mof_C 	C 	0.5563	0.6138	0.05913	0.494
Mof_C 	C 	0.6432	0.6632	0.13728	0.003
Mof_H 	H 	0.6595	0.6156	0.1452	0.044
Mof_C 	C 	0.6737	0.7192	0.17032	0.009
Mof_C 	C 	0.6484	0.7884	0.15751	-0.028
Mof_H 	H 	0.6686	0.8271	0.179	0.055
Mof_C 	C 	0.7304	0.7039	0.21759	-0.015
Mof_C 	C 	0.7382	0.6356	0.2386	-0.381
Mof_H 	H 	0.7066	0.5987	0.2225	0.143
Mof_C 	C 	0.791	0.6202	0.2824	-0.282
Mof_H 	H 	0.796	0.5728	0.2953	0.112
Mof_C 	C 	0.8269	0.7423	0.2886	-1.371
Mof_H 	H 	0.8562	0.7797	0.3064	0.397
Mof_C 	C 	0.7753	0.7574	0.2442	-1.55
Mof_H 	H 	0.7704	0.805	0.2315	0.52
Mof_C 	C 	0.8363	0.6726	0.30763	-0.262
Mof_C 	C 	0.8926	0.6534	0.35472	0.498
Mof_C 	C 	0.6243	0.4816	0.98888	0.475
Mof_C 	C 	0.6759	0.4946	0.95997	-0.196
Mof_C 	C 	0.7474	0.4897	0.98485	0.123
Mof_H 	H 	0.763	0.4805	0.0199	0.011
Mof_C 	C 	0.7962	0.4984	0.95837	-0.221
Mof_C 	C 	0.873	0.4963	0.98618	0.549
Mof_C 	C 	0.7729	0.5087	0.90694	0.078
Mof_H 	H 	0.8062	0.5124	0.8887	0.006
Mof_C 	C 	0.7004	0.5138	0.88113	-0.084
Mof_C 	C 	0.6528	0.5076	0.90888	0.061
Mof_H 	H 	0.6038	0.5123	0.8925	0
Mof_C 	C 	0.6747	0.5226	0.82561	0.058
Mof_C 	C 	0.6243	0.5383	0.72105	-0.096
Mof_C 	C 	0.5962	0.5492	0.66528	0.328
Mof_C 	C 	0.7207	0.544	0.7999	-0.01
Mof_H 	H 	0.7688	0.5537	0.8168	0.048
Mof_C 	C 	0.6931	0.5507	0.7483	-0.015
Mof_H 	H 	0.7245	0.565	0.7302	0.004
Mof_C 	C 	0.5839	0.501	0.7468	-0.024
Mof_H 	H 	0.5396	0.4811	0.7287	0.04
Mof_C 	C 	0.6092	0.4934	0.7986	-0.028
Mof_H 	H 	0.582	0.4683	0.816	0.039
Mof_O 	O 	0.4562	0.9638	0.1458	0.161
Mof_N 	N 	0.4193	0.9618	0.2159	0.531
Mof_C 	C 	0.4371	0.9373	0.1788	0.162
Mof_C 	C 	0.3923	0.9239	0.2512	-1.297
Mof_H 	H 	0.3899	0.8726	0.2434	0.702
Mof_H 	H 	0.3451	0.9416	0.2489	0.59
Mof_H 	H 	0.4235	0.9316	0.2853	0.558
Mof_C 	C 	0.4236	0.0388	0.2211	-1.35
Mof_H 	H 	0.4422	0.059	0.1952	0.343
Mof_H 	H 	0.4549	0.0512	0.2543	0.269
Mof_H 	H 	0.3765	0.0583	0.2172	0.416
Mof_C 	C 	0.424	0.8542	0.173	-0.01
Mof_H 	H 	0.4379	0.8367	0.1442	0.392
Mof_H 	H 	0.3739	0.8442	0.1677	0.053
Mof_H 	H 	0.4519	0.8299	0.2036	0.068
Mof_O 	O 	0.4504	0.1123	0.1246	-0.032
Mof_C 	C 	0.7702	0.6413	0.2214	0.253
Mof_H 	H 	0.7614	0.609	0.1939	-0.033
Mof_C 	C 	0.8227	0.6266	0.2658	0.369
Mof_H 	H 	0.8502	0.5845	0.2681	-0.088
Mof_C 	C 	0.8023	0.7348	0.301	1.441
Mof_H 	H 	0.8142	0.7696	0.327	-0.418
Mof_C 	C 	0.7492	0.7498	0.2564	1.471
Mof_H 	H 	0.7254	0.7944	0.2534	-0.439
Mof_C 	C 	0.7106	0.55	0.794	-0.056
Mof_H 	H 	0.7576	0.5633	0.8111	-0.003
Mof_C 	C 	0.6927	0.561	0.7425	0.026
Mof_H 	H 	0.7224	0.5816	0.7251	0.013
Mof_C 	C 	0.5826	0.5597	0.7498	0.028
Mof_H 	H 	0.5379	0.5811	0.735	0.011
Mof_C 	C 	0.608	0.5487	0.8012	-0.094
Mof_H 	H 	0.5778	0.5598	0.8209	0.058
Mof_O 	O 	0.463	0.819	0.1707	-0.726
Mof_C 	C 	0.4419	0.7873	0.2019	0.702
Mof_N 	N 	0.4663	0.7256	0.2217	-0.252
Mof_C 	C 	0.5164	0.6878	0.2022	0.198
Mof_H 	H 	0.5272	0.7154	0.1764	-0.016
Mof_H 	H 	0.5589	0.678	0.2285	-0.033
Mof_H 	H 	0.4948	0.6435	0.1883	-0.009
Mof_C 	C 	0.4431	0.6831	0.2573	0.045
Mof_H 	H 	0.4115	0.7132	0.2683	0.004
Mof_H 	H 	0.42	0.6389	0.2447	0.015
Mof_H 	H 	0.4841	0.6735	0.2849	-0.081
Mof_C 	C 	0.3878	0.8287	0.2231	-1.743
Mof_H 	H 	0.3761	0.8727	0.2048	0.513
Mof_H 	H 	0.3457	0.8011	0.2191	0.531
Mof_H 	H 	0.4091	0.8389	0.258	0.302
Mof_O 	O 	0.3613	0.028	0.1712	-0.53
Mof_Sm	Sm	0.00549	0.51622	0.08639	2.412
Mof_Sm	Sm	0.04372	0.93118	0.05867	2.993
Mof_O 	O 	0.09229	0.42582	0.13319	-0.459
Mof_O 	O 	0.01184	0.38729	0.06518	-0.473
Mof_O 	O 	0.9235	0.6057	0.1094	0.039
Mof_O 	O 	0.421	0.2011	0.38497	-0.37
Mof_O 	O 	0.4082	0.08898	0.36129	-0.571
Mof_O 	O 	0.079	0.05305	0.07454	-1.015
Mof_O 	O 	0.01203	0.12949	0.01853	-0.605
Mof_O 	O 	0.06183	0.00442	0.97141	-1.301
Mof_O 	O 	0.0319	0.0355	0.64344	-0.462
Mof_O 	O 	0.1363	0.0687	0.64119	-0.405
Mof_O 	O 	0.41708	0.99177	0.96256	-0.635
Mof_O 	O 	0.39005	0	0.03308	-1.289
Mof_O 	O 	0.14492	0.9466	0.02878	-0.515
Mof_C 	C 	0.0647	0.3762	0.10347	0.33
Mof_C 	C 	0.094	0.3017	0.11386	-0.115
Mof_C 	C 	0.0649	0.2458	0.08163	0.084
Mof_H 	H 	0.0282	0.255	0.0516	0
Mof_C 	C 	0.0894	0.1765	0.09318	-0.239
Mof_C 	C 	0.0563	0.1138	0.05913	0.542
Mof_C 	C 	0.1432	0.1632	0.13728	0.054
Mof_H 	H 	0.1595	0.1156	0.1452	-0.05
Mof_C 	C 	0.1737	0.2192	0.17032	-0.031
Mof_C 	C 	0.1484	0.2884	0.15751	-0.002
Mof_H 	H 	0.1686	0.3271	0.179	0.031
Mof_C 	C 	0.2304	0.2039	0.21759	-0.054
Mof_C 	C 	0.2382	0.1356	0.2386	-0.716
Mof_H 	H 	0.2066	0.0987	0.2225	0.161
Mof_C 	C 	0.291	0.1202	0.2824	-0.586
Mof_H 	H 	0.296	0.0728	0.2953	-0.06
Mof_C 	C 	0.3269	0.2423	0.2886	-2.399
Mof_H 	H 	0.3562	0.2797	0.3064	0.786
Mof_C 	C 	0.2753	0.2574	0.2442	-2.652
Mof_H 	H 	0.2704	0.305	0.2315	0.874
Mof_C 	C 	0.3363	0.1726	0.30763	-0.389
Mof_C 	C 	0.3926	0.1534	0.35472	0.467
Mof_C 	C 	0.1243	0.9816	0.98888	0.887
Mof_C 	C 	0.1759	0.9946	0.95997	1.486
Mof_C 	C 	0.2474	0.9897	0.98485	-0.971
Mof_H 	H 	0.263	0.9805	0.0199	0.555
Mof_C 	C 	0.2962	0.9984	0.95837	1.367
Mof_C 	C 	0.373	0.9963	0.98618	1.105
Mof_C 	C 	0.2729	0.0087	0.90694	-2.02
Mof_H 	H 	0.3062	0.0124	0.8887	0.433
Mof_C 	C 	0.2004	0.0138	0.88113	1.442
Mof_C 	C 	0.1528	0.0076	0.90888	-2.146
Mof_H 	H 	0.1038	0.0123	0.8925	0.568
Mof_C 	C 	0.1747	0.0226	0.82561	-1.595
Mof_C 	C 	0.1243	0.0383	0.72105	1.073
Mof_C 	C 	0.0962	0.0492	0.66528	-0.185
Mof_C 	C 	0.2207	0.044	0.7999	-0.095
Mof_H 	H 	0.2688	0.0537	0.8168	-0.024
Mof_C 	C 	0.1931	0.0507	0.7483	-0.095
Mof_H 	H 	0.2245	0.065	0.7302	0.087
Mof_C 	C 	0.0839	0.001	0.7468	10.746
Mof_H 	H 	0.0396	0.9811	0.7287	-2.918
Mof_C 	C 	0.1092	0.9934	0.7986	-12.555
Mof_H 	H 	0.082	0.9683	0.816	4.565
Mof_O 	O 	0.9562	0.4638	0.1458	-0.517
Mof_N 	N 	0.9193	0.4618	0.2159	-0.061
Mof_C 	C 	0.9371	0.4373	0.1788	0.333
Mof_C 	C 	0.8923	0.4239	0.2512	-0.738
Mof_H 	H 	0.8899	0.3726	0.2434	0.429
Mof_H 	H 	0.8451	0.4416	0.2489	0.242
Mof_H 	H 	0.9235	0.4316	0.2853	0.254
Mof_C 	C 	0.9236	0.5388	0.2211	-0.239
Mof_H 	H 	0.9422	0.559	0.1952	0.14
Mof_H 	H 	0.9549	0.5512	0.2543	0.104
Mof_H 	H 	0.8765	0.5583	0.2172	0.152
Mof_C 	C 	0.924	0.3542	0.173	-0.262
Mof_H 	H 	0.9379	0.3367	0.1442	0.374
Mof_H 	H 	0.8739	0.3442	0.1677	0.076
Mof_H 	H 	0.9519	0.3299	0.2036	0.192
Mof_O 	O 	0.9504	0.6123	0.1246	-0.374
Mof_C 	C 	0.2702	0.1413	0.2214	0.508
Mof_H 	H 	0.2614	0.109	0.1939	-0.195
Mof_C 	C 	0.3227	0.1266	0.2658	0.749
Mof_H 	H 	0.3502	0.0845	0.2681	-0.323
Mof_C 	C 	0.3023	0.2348	0.301	2.478
Mof_H 	H 	0.3142	0.2696	0.327	-0.736
Mof_C 	C 	0.2492	0.2498	0.2564	2.582
Mof_H 	H 	0.2254	0.2944	0.2534	-0.752
Mof_C 	C 	0.2106	0.05	0.794	0.229
Mof_H 	H 	0.2576	0.0633	0.8111	-0.064
Mof_C 	C 	0.1927	0.061	0.7425	-0.392
Mof_H 	H 	0.2224	0.0816	0.7251	0.019
Mof_C 	C 	0.0826	0.0597	0.7498	-13.769
Mof_H 	H 	0.0379	0.0811	0.735	4.429
Mof_C 	C 	0.108	0.0487	0.8012	14.481
Mof_H 	H 	0.0778	0.0598	0.8209	-4.766
Mof_O 	O 	0.963	0.319	0.1707	-0.6
Mof_C 	C 	0.9419	0.2873	0.2019	0.424
Mof_N 	N 	0.9663	0.2256	0.2217	-0.227
Mof_C 	C 	0.0164	0.1878	0.2022	0.182
Mof_H 	H 	0.0272	0.2154	0.1764	-0.022
Mof_H 	H 	0.0589	0.178	0.2285	-0.036
Mof_H 	H 	0.9948	0.1435	0.1883	-0.035
Mof_C 	C 	0.9431	0.1831	0.2573	0.093
Mof_H 	H 	0.9115	0.2132	0.2683	-0.029
Mof_H 	H 	0.92	0.1389	0.2447	-0.104
Mof_H 	H 	0.9841	0.1735	0.2849	-0.095
Mof_C 	C 	0.8878	0.3287	0.2231	-1.222
Mof_H 	H 	0.8761	0.3727	0.2048	0.351
Mof_H 	H 	0.8457	0.3011	0.2191	0.329
Mof_H 	H 	0.9091	0.3389	0.258	0.24
Mof_O 	O 	0.8613	0.528	0.1712	-0.168
Mof_Sm	Sm	0.50549	0.98378	0.58639	5.013
Mof_Sm	Sm	0.54372	0.56882	0.55867	2.154
Mof_O 	O 	0.59229	0.07418	0.63319	-0.938
Mof_O 	O 	0.51184	0.11271	0.56518	-0.845
Mof_O 	O 	0.4235	0.8943	0.6094	0.838
Mof_O 	O 	0.921	0.2989	0.88497	-0.344
Mof_O 	O 	0.9082	0.41102	0.86129	-0.564
Mof_O 	O 	0.579	0.44695	0.57454	-0.529
Mof_O 	O 	0.51203	0.37051	0.51853	-0.584
Mof_O 	O 	0.56183	0.49558	0.47141	-0.621
Mof_O 	O 	0.5319	0.4645	0.14344	-0.443
Mof_O 	O 	0.6363	0.4313	0.14119	-0.456
Mof_O 	O 	0.91708	0.50823	0.46256	-0.653
Mof_O 	O 	0.89005	0.5	0.53308	-0.599
Mof_O 	O 	0.64492	0.5534	0.52878	-0.513
Mof_C 	C 	0.5647	0.1238	0.60347	0.384
Mof_C 	C 	0.594	0.1983	0.61386	-0.16
Mof_C 	C 	0.5649	0.2542	0.58163	0.08
Mof_H 	H 	0.5282	0.245	0.5516	-0.001
Mof_C 	C 	0.5894	0.3235	0.59318	-0.18
Mof_C 	C 	0.5563	0.3862	0.55913	0.505
Mof_C 	C 	0.6432	0.3368	0.63728	0.044
Mof_H 	H 	0.6595	0.3844	0.6452	0.024
Mof_C 	C 	0.6737	0.2808	0.67032	-0.087
Mof_C 	C 	0.6484	0.2116	0.65751	0.024
Mof_H 	H 	0.6686	0.1729	0.679	0.005
Mof_C 	C 	0.7304	0.2961	0.71759	0.08
Mof_C 	C 	0.7382	0.3644	0.7386	0.02
Mof_H 	H 	0.7066	0.4013	0.7225	0.027
Mof_C 	C 	0.791	0.3798	0.7824	0.103
Mof_H 	H 	0.796	0.4272	0.7953	0
Mof_C 	C 	0.8269	0.2577	0.7886	0.389
Mof_H 	H 	0.8562	0.2203	0.8064	-0.046
Mof_C 	C 	0.7753	0.2426	0.7442	0.33
Mof_H 	H 	0.7704	0.195	0.7315	-0.076
Mof_C 	C 	0.8363	0.3274	0.80763	-0.119
Mof_C 	C 	0.8926	0.3466	0.85472	0.431
Mof_C 	C 	0.6243	0.5184	0.48888	0.472
Mof_C 	C 	0.6759	0.5054	0.45997	-0.198
Mof_C 	C 	0.7474	0.5103	0.48485	0.124
Mof_H 	H 	0.763	0.5195	0.5199	0.011
Mof_C 	C 	0.7962	0.5016	0.45837	-0.226
Mof_C 	C 	0.873	0.5037	0.48618	0.552
Mof_C 	C 	0.7729	0.4913	0.40694	0.074
Mof_H 	H 	0.8062	0.4876	0.3887	0.004
Mof_C 	C 	0.7004	0.4862	0.38113	-0.086
Mof_C 	C 	0.6528	0.4924	0.40888	0.059
Mof_H 	H 	0.6038	0.4877	0.3925	0
Mof_C 	C 	0.6747	0.4774	0.32561	0.057
Mof_C 	C 	0.6243	0.4617	0.22105	-0.092
Mof_C 	C 	0.5962	0.4508	0.16528	0.324
Mof_C 	C 	0.7207	0.456	0.2999	-0.013
Mof_H 	H 	0.7688	0.4463	0.3168	0.041
Mof_C 	C 	0.6931	0.4493	0.2483	-0.022
Mof_H 	H 	0.7245	0.435	0.2302	0
Mof_C 	C 	0.5839	0.499	0.2468	-0.045
Mof_H 	H 	0.5396	0.5189	0.2287	0.046
Mof_C 	C 	0.6092	0.5066	0.2986	-0.032
Mof_H 	H 	0.582	0.5317	0.316	0.038
Mof_O 	O 	0.4562	0.0362	0.6458	-1.218
Mof_N 	N 	0.4193	0.0382	0.7159	-0.647
Mof_C 	C 	0.4371	0.0627	0.6788	0.514
Mof_C 	C 	0.3923	0.0761	0.7512	-0.28
Mof_H 	H 	0.3899	0.1274	0.7434	0.224
Mof_H 	H 	0.3451	0.0584	0.7489	-0.086
Mof_H 	H 	0.4235	0.0684	0.7853	-0.033
Mof_C 	C 	0.4236	0.9612	0.7211	0.88
Mof_H 	H 	0.4422	0.941	0.6952	-0.069
Mof_H 	H 	0.4549	0.9488	0.7543	-0.076
Mof_H 	H 	0.3765	0.9417	0.7172	-0.126
Mof_C 	C 	0.424	0.1458	0.673	-0.453
Mof_H 	H 	0.4379	0.1633	0.6442	0.396
Mof_H 	H 	0.3739	0.1558	0.6677	0.123
Mof_H 	H 	0.4519	0.1701	0.7036	0.231
Mof_O 	O 	0.4504	0.8877	0.6246	-1.193
Mof_C 	C 	0.7702	0.3587	0.7214	-0.155
Mof_H 	H 	0.7614	0.391	0.6939	0.079
Mof_C 	C 	0.8227	0.3734	0.7658	-0.08
Mof_H 	H 	0.8502	0.4155	0.7681	0.043
Mof_C 	C 	0.8023	0.2652	0.801	-0.38
Mof_H 	H 	0.8142	0.2304	0.827	0.129
Mof_C 	C 	0.7492	0.2502	0.7564	-0.451
Mof_H 	H 	0.7254	0.2056	0.7534	0.13
Mof_C 	C 	0.7106	0.45	0.294	-0.058
Mof_H 	H 	0.7576	0.4367	0.3111	-0.001
Mof_C 	C 	0.6927	0.439	0.2425	0.025
Mof_H 	H 	0.7224	0.4184	0.2251	0.018
Mof_C 	C 	0.5826	0.4403	0.2498	0.052
Mof_H 	H 	0.5379	0.4189	0.235	0.018
Mof_C 	C 	0.608	0.4513	0.3012	-0.084
Mof_H 	H 	0.5778	0.4402	0.3209	0.06
Mof_O 	O 	0.463	0.181	0.6707	-0.549
Mof_C 	C 	0.4419	0.2127	0.7019	0.393
Mof_N 	N 	0.4663	0.2744	0.7217	-0.204
Mof_C 	C 	0.5164	0.3122	0.7022	0.198
Mof_H 	H 	0.5272	0.2846	0.6764	-0.018
Mof_H 	H 	0.5589	0.322	0.7285	-0.056
Mof_H 	H 	0.4948	0.3565	0.6883	-0.005
Mof_C 	C 	0.4431	0.3169	0.7573	0.069
Mof_H 	H 	0.4115	0.2868	0.7683	0.023
Mof_H 	H 	0.42	0.3611	0.7447	0.022
Mof_H 	H 	0.4841	0.3265	0.7849	-0.087
Mof_C 	C 	0.3878	0.1713	0.7231	-1.071
Mof_H 	H 	0.3761	0.1273	0.7048	0.295
Mof_H 	H 	0.3457	0.1989	0.7191	0.342
Mof_H 	H 	0.4091	0.1611	0.758	0.264
Mof_O 	O 	0.3613	0.972	0.6712	0.201
Mof_Sm	Sm	0.00549	0.48378	0.58639	2.406
Mof_Sm	Sm	0.04372	0.06882	0.55867	1.293
Mof_O 	O 	0.09229	0.57418	0.63319	-0.459
Mof_O 	O 	0.01184	0.61271	0.56518	-0.465
Mof_O 	O 	0.9235	0.3943	0.6094	0.01
Mof_O 	O 	0.421	0.7989	0.88497	-0.379
Mof_O 	O 	0.4082	0.91102	0.86129	-0.661
Mof_O 	O 	0.079	0.94695	0.57454	-0.033
Mof_O 	O 	0.01203	0.87051	0.51853	-0.553
Mof_O 	O 	0.06183	0.99558	0.47141	0.057
Mof_O 	O 	0.0319	0.9645	0.14344	-0.425
Mof_O 	O 	0.1363	0.9313	0.14119	-0.502
Mof_O 	O 	0.41708	0.00823	0.46256	-1.042
Mof_O 	O 	0.39005	0	0.53308	-1.401
Mof_O 	O 	0.14492	0.0534	0.52878	-0.523
Mof_C 	C 	0.0647	0.6238	0.60347	0.325
Mof_C 	C 	0.094	0.6983	0.61386	-0.084
Mof_C 	C 	0.0649	0.7542	0.58163	0.037
Mof_H 	H 	0.0282	0.745	0.5516	0.027
Mof_C 	C 	0.0894	0.8235	0.59318	-0.069
Mof_C 	C 	0.0563	0.8862	0.55913	0.458
Mof_C 	C 	0.1432	0.8368	0.63728	-0.005
Mof_H 	H 	0.1595	0.8844	0.6452	0.12
Mof_C 	C 	0.1737	0.7808	0.67032	-0.045
Mof_C 	C 	0.1484	0.7116	0.65751	0
Mof_H 	H 	0.1686	0.6729	0.679	0.027
Mof_C 	C 	0.2304	0.7961	0.71759	0.116
Mof_C 	C 	0.2382	0.8644	0.7386	0.315
Mof_H 	H 	0.2066	0.9013	0.7225	0.021
Mof_C 	C 	0.291	0.8798	0.7824	0.384
Mof_H 	H 	0.296	0.9272	0.7953	0.175
Mof_C 	C 	0.3269	0.7577	0.7886	1.285
Mof_H 	H 	0.3562	0.7203	0.8064	-0.391
Mof_C 	C 	0.2753	0.7426	0.7442	1.282
Mof_H 	H 	0.2704	0.695	0.7315	-0.382
Mof_C 	C 	0.3363	0.8274	0.80763	-0.02
Mof_C 	C 	0.3926	0.8466	0.85472	0.513
Mof_C 	C 	0.1243	0.0184	0.48888	0.104
Mof_C 	C 	0.1759	0.0054	0.45997	-2.048
Mof_C 	C 	0.2474	0.0103	0.48485	1.53
Mof_H 	H 	0.263	0.0195	0.5199	-0.562
Mof_C 	C 	0.2962	0.0016	0.45837	-2.283
Mof_C 	C 	0.373	0.0037	0.48618	1.185
Mof_C 	C 	0.2729	0.9913	0.40694	2.476
Mof_H 	H 	0.3062	0.9876	0.3887	-0.539
Mof_C 	C 	0.2004	0.9862	0.38113	-1.777
Mof_C 	C 	0.1528	0.9924	0.40888	2.431
Mof_H 	H 	0.1038	0.9877	0.3925	-0.619
Mof_C 	C 	0.1747	0.9774	0.32561	1.783
Mof_C 	C 	0.1243	0.9617	0.22105	-1.278
Mof_C 	C 	0.0962	0.9508	0.16528	0.841
Mof_C 	C 	0.2207	0.956	0.2999	0.062
Mof_H 	H 	0.2688	0.9463	0.3168	0.124
Mof_C 	C 	0.1931	0.9493	0.2483	0.063
Mof_H 	H 	0.2245	0.935	0.2302	-0.079
Mof_C 	C 	0.0839	0.999	0.2468	-10.873
Mof_H 	H 	0.0396	0.0189	0.2287	3.021
Mof_C 	C 	0.1092	0.0066	0.2986	12.554
Mof_H 	H 	0.082	0.0317	0.316	-4.509
Mof_O 	O 	0.9562	0.5362	0.6458	-0.508
Mof_N 	N 	0.9193	0.5382	0.7159	-0.042
Mof_C 	C 	0.9371	0.5627	0.6788	0.304
Mof_C 	C 	0.8923	0.5761	0.7512	-0.866
Mof_H 	H 	0.8899	0.6274	0.7434	0.509
Mof_H 	H 	0.8451	0.5584	0.7489	0.27
Mof_H 	H 	0.9235	0.5684	0.7853	0.287
Mof_C 	C 	0.9236	0.4612	0.7211	-0.23
Mof_H 	H 	0.9422	0.441	0.6952	0.126
Mof_H 	H 	0.9549	0.4488	0.7543	0.089
Mof_H 	H 	0.8765	0.4417	0.7172	0.139
Mof_C 	C 	0.924	0.6458	0.673	-0.185
Mof_H 	H 	0.9379	0.6633	0.6442	0.398
Mof_H 	H 	0.8739	0.6558	0.6677	0.088
Mof_H 	H 	0.9519	0.6701	0.7036	0.105
Mof_O 	O 	0.9504	0.3877	0.6246	-0.376
Mof_C 	C 	0.2702	0.8587	0.7214	-0.379
Mof_H 	H 	0.2614	0.891	0.6939	0.234
Mof_C 	C 	0.3227	0.8734	0.7658	-0.418
Mof_H 	H 	0.3502	0.9155	0.7681	0.265
Mof_C 	C 	0.3023	0.7652	0.801	-1.272
Mof_H 	H 	0.3142	0.7304	0.827	0.402
Mof_C 	C 	0.2492	0.7502	0.7564	-1.414
Mof_H 	H 	0.2254	0.7056	0.7534	0.4
Mof_C 	C 	0.2106	0.95	0.294	-0.359
Mof_H 	H 	0.2576	0.9367	0.3111	0.059
Mof_C 	C 	0.1927	0.939	0.2425	0.453
Mof_H 	H 	0.2224	0.9184	0.2251	0.007
Mof_C 	C 	0.0826	0.9403	0.2498	13.944
Mof_H 	H 	0.0379	0.9189	0.235	-4.432
Mof_C 	C 	0.108	0.9513	0.3012	-14.77
Mof_H 	H 	0.0778	0.9402	0.3209	4.923
Mof_O 	O 	0.963	0.681	0.6707	-0.669
Mof_C 	C 	0.9419	0.7127	0.7019	0.668
Mof_N 	N 	0.9663	0.7744	0.7217	-0.228
Mof_C 	C 	0.0164	0.8122	0.7022	0.213
Mof_H 	H 	0.0272	0.7846	0.6764	-0.013
Mof_H 	H 	0.0589	0.822	0.7285	-0.052
Mof_H 	H 	0.9948	0.8565	0.6883	0.023
Mof_C 	C 	0.9431	0.8169	0.7573	0.022
Mof_H 	H 	0.9115	0.7868	0.7683	0.055
Mof_H 	H 	0.92	0.8611	0.7447	0.139
Mof_H 	H 	0.9841	0.8265	0.7849	-0.073
Mof_C 	C 	0.8878	0.6713	0.7231	-1.594
Mof_H 	H 	0.8761	0.6273	0.7048	0.457
Mof_H 	H 	0.8457	0.6989	0.7191	0.541
Mof_H 	H 	0.9091	0.6611	0.758	0.323
Mof_O 	O 	0.8613	0.472	0.6712	-0.178
Mof_Sm	Sm	0.49451	0.98378	0.91361	4.989
Mof_Sm	Sm	0.45628	0.56882	0.94133	2.151
Mof_O 	O 	0.40771	0.07418	0.86681	-0.934
Mof_O 	O 	0.48816	0.11271	0.93482	-0.841
Mof_O 	O 	0.5765	0.8943	0.8906	0.827
Mof_O 	O 	0.079	0.2989	0.61503	-0.344
Mof_O 	O 	0.0918	0.41102	0.63871	-0.564
Mof_O 	O 	0.421	0.44695	0.92546	-0.529
Mof_O 	O 	0.48797	0.37051	0.98147	-0.583
Mof_O 	O 	0.43817	0.49558	0.02859	-0.621
Mof_O 	O 	0.4681	0.4645	0.35656	-0.443
Mof_O 	O 	0.3637	0.4313	0.35881	-0.456
Mof_O 	O 	0.08292	0.50823	0.03744	-0.652
Mof_O 	O 	0.10995	0.5	0.96692	-0.595
Mof_O 	O 	0.35508	0.5534	0.97122	-0.512
Mof_C 	C 	0.4353	0.1238	0.89653	0.384
Mof_C 	C 	0.406	0.1983	0.88614	-0.159
Mof_C 	C 	0.4351	0.2542	0.91837	0.08
Mof_H 	H 	0.4718	0.245	0.9484	-0.001
Mof_C 	C 	0.4106	0.3235	0.90682	-0.18
Mof_C 	C 	0.4437	0.3862	0.94087	0.504
Mof_C 	C 	0.3568	0.3368	0.86272	0.043
Mof_H 	H 	0.3405	0.3844	0.8548	0.024
Mof_C 	C 	0.3263	0.2808	0.82968	-0.086
Mof_C 	C 	0.3516	0.2116	0.84249	0.024
Mof_H 	H 	0.3314	0.1729	0.821	0.005
Mof_C 	C 	0.2696	0.2961	0.78241	0.079
Mof_C 	C 	0.2618	0.3644	0.7614	0.016
Mof_H 	H 	0.2934	0.4013	0.7775	0.028
Mof_C 	C 	0.209	0.3798	0.7176	0.099
Mof_H 	H 	0.204	0.4272	0.7047	0.001
Mof_C 	C 	0.1731	0.2577	0.7114	0.371
Mof_H 	H 	0.1438	0.2203	0.6936	-0.04
Mof_C 	C 	0.2247	0.2426	0.7558	0.31
Mof_H 	H 	0.2296	0.195	0.7685	-0.07
Mof_C 	C 	0.1637	0.3274	0.69237	-0.12
Mof_C 	C 	0.1074	0.3466	0.64528	0.432
Mof_C 	C 	0.3757	0.5184	0.01112	0.47
Mof_C 	C 	0.3241	0.5054	0.04003	-0.196
Mof_C 	C 	0.2526	0.5103	0.01515	0.12
Mof_H 	H 	0.237	0.5195	0.9801	0.013
Mof_C 	C 	0.2038	0.5016	0.04163	-0.223
Mof_C 	C 	0.127	0.5037	0.01382	0.548
Mof_C 	C 	0.2271	0.4913	0.09306	0.073
Mof_H 	H 	0.1938	0.4876	0.1113	0.005
Mof_C 	C 	0.2996	0.4862	0.11887	-0.085
Mof_C 	C 	0.3472	0.4924	0.09112	0.058
Mof_H 	H 	0.3962	0.4877	0.1075	0.001
Mof_C 	C 	0.3253	0.4774	0.17439	0.057
Mof_C 	C 	0.3757	0.4617	0.27895	-0.092
Mof_C 	C 	0.4038	0.4508	0.33472	0.324
Mof_C 	C 	0.2793	0.456	0.2001	-0.013
Mof_H 	H 	0.2312	0.4463	0.1832	0.041
Mof_C 	C 	0.3069	0.4493	0.2517	-0.022
Mof_H 	H 	0.2755	0.435	0.2698	0
Mof_C 	C 	0.4161	0.499	0.2532	-0.045
Mof_H 	H 	0.4604	0.5189	0.2713	0.046
Mof_C 	C 	0.3908	0.5066	0.2014	-0.032
Mof_H 	H 	0.418	0.5317	0.184	0.038
Mof_O 	O 	0.5438	0.0362	0.8542	-1.213
Mof_N 	N 	0.5807	0.0382	0.7841	-0.646
Mof_C 	C 	0.5629	0.0627	0.8212	0.512
Mof_C 	C 	0.6077	0.0761	0.7488	-0.281
Mof_H 	H 	0.6101	0.1274	0.7566	0.225
Mof_H 	H 	0.6549	0.0584	0.7511	-0.086
Mof_H 	H 	0.5765	0.0684	0.7147	-0.033
Mof_C 	C 	0.5764	0.9612	0.7789	0.879
Mof_H 	H 	0.5578	0.941	0.8048	-0.07
Mof_H 	H 	0.5451	0.9488	0.7457	-0.076
Mof_H 	H 	0.6235	0.9417	0.7828	-0.125
Mof_C 	C 	0.576	0.1458	0.827	-0.451
Mof_H 	H 	0.5621	0.1633	0.8558	0.396
Mof_H 	H 	0.6261	0.1558	0.8323	0.122
Mof_H 	H 	0.5481	0.1701	0.7964	0.23
Mof_O 	O 	0.5496	0.8877	0.8754	-1.182
Mof_C 	C 	0.2298	0.3587	0.7786	-0.15
Mof_H 	H 	0.2386	0.391	0.8061	0.077
Mof_C 	C 	0.1773	0.3734	0.7342	-0.075
Mof_H 	H 	0.1498	0.4155	0.7319	0.042
Mof_C 	C 	0.1977	0.2652	0.699	-0.361
Mof_H 	H 	0.1858	0.2304	0.673	0.123
Mof_C 	C 	0.2508	0.2502	0.7436	-0.431
Mof_H 	H 	0.2746	0.2056	0.7466	0.125
Mof_C 	C 	0.2894	0.45	0.206	-0.058
Mof_H 	H 	0.2424	0.4367	0.1889	-0
Mof_C 	C 	0.3073	0.439	0.2575	0.025
Mof_H 	H 	0.2776	0.4184	0.2749	0.018
Mof_C 	C 	0.4174	0.4403	0.2502	0.052
Mof_H 	H 	0.4621	0.4189	0.265	0.018
Mof_C 	C 	0.392	0.4513	0.1988	-0.084
Mof_H 	H 	0.4222	0.4402	0.1791	0.06
Mof_O 	O 	0.537	0.181	0.8293	-0.549
Mof_C 	C 	0.5581	0.2127	0.7981	0.395
Mof_N 	N 	0.5337	0.2744	0.7783	-0.204
Mof_C 	C 	0.4836	0.3122	0.7978	0.198
Mof_H 	H 	0.4728	0.2846	0.8236	-0.018
Mof_H 	H 	0.4411	0.322	0.7715	-0.056
Mof_H 	H 	0.5052	0.3565	0.8117	-0.005
Mof_C 	C 	0.5569	0.3169	0.7427	0.069
Mof_H 	H 	0.5885	0.2868	0.7317	0.024
Mof_H 	H 	0.58	0.3611	0.7553	0.022
Mof_H 	H 	0.5159	0.3265	0.7151	-0.087
Mof_C 	C 	0.6122	0.1713	0.7769	-1.073
Mof_H 	H 	0.6239	0.1273	0.7952	0.296
Mof_H 	H 	0.6543	0.1989	0.7809	0.343
Mof_H 	H 	0.5909	0.1611	0.742	0.265
Mof_O 	O 	0.6387	0.972	0.8288	0.199
Mof_Sm	Sm	0.99451	0.48378	0.91361	2.399
Mof_Sm	Sm	0.95628	0.06882	0.94133	1.296
Mof_O 	O 	0.90771	0.57418	0.86681	-0.458
Mof_O 	O 	0.98816	0.61271	0.93482	-0.466
Mof_O 	O 	0.0765	0.3943	0.8906	0.008
Mof_O 	O 	0.579	0.7989	0.61503	-0.379
Mof_O 	O 	0.5918	0.91102	0.63871	-0.662
Mof_O 	O 	0.921	0.94695	0.92546	-0.038
Mof_O 	O 	0.98797	0.87051	0.98147	-0.556
Mof_O 	O 	0.93817	0.99558	0.02859	0.055
Mof_O 	O 	0.9681	0.9645	0.35656	-0.425
Mof_O 	O 	0.8637	0.9313	0.35881	-0.502
Mof_O 	O 	0.58292	0.00823	0.03744	-1.038
Mof_O 	O 	0.60995	0	0.96692	-1.392
Mof_O 	O 	0.85508	0.0534	0.97122	-0.522
Mof_C 	C 	0.9353	0.6238	0.89653	0.325
Mof_C 	C 	0.906	0.6983	0.88614	-0.085
Mof_C 	C 	0.9351	0.7542	0.91837	0.038
Mof_H 	H 	0.9718	0.745	0.9484	0.026
Mof_C 	C 	0.9106	0.8235	0.90682	-0.071
Mof_C 	C 	0.9437	0.8862	0.94087	0.459
Mof_C 	C 	0.8568	0.8368	0.86272	-0.005
Mof_H 	H 	0.8405	0.8844	0.8548	0.119
Mof_C 	C 	0.8263	0.7808	0.82968	-0.046
Mof_C 	C 	0.8516	0.7116	0.84249	0.001
Mof_H 	H 	0.8314	0.6729	0.821	0.027
Mof_C 	C 	0.7696	0.7961	0.78241	0.117
Mof_C 	C 	0.7618	0.8644	0.7614	0.32
Mof_H 	H 	0.7934	0.9013	0.7775	0.019
Mof_C 	C 	0.709	0.8798	0.7176	0.388
Mof_H 	H 	0.704	0.9272	0.7047	0.175
Mof_C 	C 	0.6731	0.7577	0.7114	1.302
Mof_H 	H 	0.6438	0.7203	0.6936	-0.396
Mof_C 	C 	0.7247	0.7426	0.7558	1.3
Mof_H 	H 	0.7296	0.695	0.7685	-0.388
Mof_C 	C 	0.6637	0.8274	0.69237	-0.018
Mof_C 	C 	0.6074	0.8466	0.64528	0.513
Mof_C 	C 	0.8757	0.0184	0.01112	0.107
Mof_C 	C 	0.8241	0.0054	0.04003	-2.039
Mof_C 	C 	0.7526	0.0103	0.01515	1.522
Mof_H 	H 	0.737	0.0195	0.9801	-0.558
Mof_C 	C 	0.7038	0.0016	0.04163	-2.272
Mof_C 	C 	0.627	0.0037	0.01382	1.179
Mof_C 	C 	0.7271	0.9913	0.09306	2.465
Mof_H 	H 	0.6938	0.9876	0.1113	-0.536
Mof_C 	C 	0.7996	0.9862	0.11887	-1.77
Mof_C 	C 	0.8472	0.9924	0.09112	2.421
Mof_H 	H 	0.8962	0.9877	0.1075	-0.615
Mof_C 	C 	0.8253	0.9774	0.17439	1.778
Mof_C 	C 	0.8757	0.9617	0.27895	-1.276
Mof_C 	C 	0.9038	0.9508	0.33472	0.84
Mof_C 	C 	0.7793	0.956	0.2001	0.062
Mof_H 	H 	0.7312	0.9463	0.1832	0.123
Mof_C 	C 	0.8069	0.9493	0.2517	0.063
Mof_H 	H 	0.7755	0.935	0.2698	-0.079
Mof_C 	C 	0.9161	0.999	0.2532	-10.859
Mof_H 	H 	0.9604	0.0189	0.2713	3.017
Mof_C 	C 	0.8908	0.0066	0.2014	12.539
Mof_H 	H 	0.918	0.0317	0.184	-4.503
Mof_O 	O 	0.0438	0.5362	0.8542	-0.506
Mof_N 	N 	0.0807	0.5382	0.7841	-0.042
Mof_C 	C 	0.0629	0.5627	0.8212	0.304
Mof_C 	C 	0.1077	0.5761	0.7488	-0.865
Mof_H 	H 	0.1101	0.6274	0.7566	0.508
Mof_H 	H 	0.1549	0.5584	0.7511	0.27
Mof_H 	H 	0.0765	0.5684	0.7147	0.287
Mof_C 	C 	0.0764	0.4612	0.7789	-0.231
Mof_H 	H 	0.0578	0.441	0.8048	0.127
Mof_H 	H 	0.0451	0.4488	0.7457	0.09
Mof_H 	H 	0.1235	0.4417	0.7828	0.139
Mof_C 	C 	0.076	0.6458	0.827	-0.186
Mof_H 	H 	0.0621	0.6633	0.8558	0.398
Mof_H 	H 	0.1261	0.6558	0.8323	0.088
Mof_H 	H 	0.0481	0.6701	0.7964	0.106
Mof_O 	O 	0.0496	0.3877	0.8754	-0.372
Mof_C 	C 	0.7298	0.8587	0.7786	-0.383
Mof_H 	H 	0.7386	0.891	0.8061	0.234
Mof_C 	C 	0.6773	0.8734	0.7342	-0.423
Mof_H 	H 	0.6498	0.9155	0.7319	0.267
Mof_C 	C 	0.6977	0.7652	0.699	-1.289
Mof_H 	H 	0.6858	0.7304	0.673	0.407
Mof_C 	C 	0.7508	0.7502	0.7436	-1.432
Mof_H 	H 	0.7746	0.7056	0.7466	0.405
Mof_C 	C 	0.7894	0.95	0.206	-0.358
Mof_H 	H 	0.7424	0.9367	0.1889	0.059
Mof_C 	C 	0.8073	0.939	0.2575	0.452
Mof_H 	H 	0.7776	0.9184	0.2749	0.007
Mof_C 	C 	0.9174	0.9403	0.2502	13.926
Mof_H 	H 	0.9621	0.9189	0.265	-4.425
Mof_C 	C 	0.892	0.9513	0.1988	-14.751
Mof_H 	H 	0.9222	0.9402	0.1791	4.918
Mof_O 	O 	0.037	0.681	0.8293	-0.668
Mof_C 	C 	0.0581	0.7127	0.7981	0.666
Mof_N 	N 	0.0337	0.7744	0.7783	-0.228
Mof_C 	C 	0.9836	0.8122	0.7978	0.214
Mof_H 	H 	0.9728	0.7846	0.8236	-0.014
Mof_H 	H 	0.9411	0.822	0.7715	-0.052
Mof_H 	H 	0.0052	0.8565	0.8117	0.024
Mof_C 	C 	0.0569	0.8169	0.7427	0.022
Mof_H 	H 	0.0885	0.7868	0.7317	0.055
Mof_H 	H 	0.08	0.8611	0.7553	0.139
Mof_H 	H 	0.0159	0.8265	0.7151	-0.071
Mof_C 	C 	0.1122	0.6713	0.7769	-1.592
Mof_H 	H 	0.1239	0.6273	0.7952	0.456
Mof_H 	H 	0.1543	0.6989	0.7809	0.54
Mof_H 	H 	0.0909	0.6611	0.742	0.323
Mof_O 	O 	0.1387	0.472	0.8288	-0.178
_end
