data_functionalizedCrystal
_audit_creation_method	'EQeq! by Chris Wilmer'
_symmetry_space_group_name_H-M	'P1'
_symmetry_Int_Tables_number	1
_symmetry_cell_setting	triclinic
loop_
_symmetry_equiv_pos_as_xyz
  x,y,z
_cell_length_a	18.3014
_cell_length_b	18.3014
_cell_length_c	18.3014
_cell_angle_alpha	60
_cell_angle_beta	60
_cell_angle_gamma	60
loop_
_atom_site_label
_atom_site_type_symbol
_atom_site_fract_x
_atom_site_fract_y
_atom_site_fract_z
_atom_site_charge
Mof_Zn	Zn	0.2064	0.3808	0.2064	1.21
Mof_Zn	Zn	0.3808	0.2064	0.2064	1.21
Mof_Zn	Zn	0.2064	0.2064	0.2064	1.21
Mof_Zn	Zn	0.2064	0.2064	0.3808	1.21
Mof_Zn	Zn	0.6192	0.7936	0.7936	1.21
Mof_Zn	Zn	0.7936	0.6192	0.7936	1.21
Mof_Zn	Zn	0.7936	0.7936	0.7936	1.21
Mof_Zn	Zn	0.7936	0.7936	0.6192	1.21
Mof_H 	H 	0.0485	0.5657	0.0485	0.044
Mof_H 	H 	0.5657	0.0485	0.3373	0.044
Mof_H 	H 	0.0485	0.3373	0.0485	0.044
Mof_H 	H 	0.3373	0.0485	0.5657	0.044
Mof_H 	H 	0.0485	0.0485	0.3373	0.044
Mof_H 	H 	0.5657	0.3373	0.0485	0.044
Mof_H 	H 	0.0485	0.0485	0.5657	0.044
Mof_H 	H 	0.3373	0.5657	0.0485	0.044
Mof_H 	H 	0.0485	0.3373	0.5657	0.043
Mof_H 	H 	0.5657	0.0485	0.0485	0.043
Mof_H 	H 	0.0485	0.5657	0.3373	0.043
Mof_H 	H 	0.3373	0.0485	0.0485	0.043
Mof_H 	H 	0.4343	0.9515	0.9515	0.043
Mof_H 	H 	0.9515	0.4343	0.6627	0.043
Mof_H 	H 	0.6627	0.9515	0.9515	0.043
Mof_H 	H 	0.9515	0.6627	0.4343	0.043
Mof_H 	H 	0.9515	0.9515	0.6627	0.043
Mof_H 	H 	0.6627	0.4343	0.9515	0.043
Mof_H 	H 	0.9515	0.9515	0.4343	0.043
Mof_H 	H 	0.4343	0.6627	0.9515	0.043
Mof_H 	H 	0.6627	0.9515	0.4343	0.043
Mof_H 	H 	0.9515	0.4343	0.9515	0.043
Mof_H 	H 	0.4343	0.9515	0.6627	0.043
Mof_H 	H 	0.9515	0.6627	0.9515	0.043
Mof_C 	C 	0.0264	0.5392	0.0264	-0.004
Mof_C 	C 	0.5392	0.0264	0.408	-0.004
Mof_C 	C 	0.0264	0.408	0.0264	-0.004
Mof_C 	C 	0.408	0.0264	0.5392	-0.004
Mof_C 	C 	0.0264	0.0264	0.408	-0.004
Mof_C 	C 	0.5392	0.408	0.0264	-0.004
Mof_C 	C 	0.0264	0.0264	0.5392	-0.004
Mof_C 	C 	0.408	0.5392	0.0264	-0.004
Mof_C 	C 	0.0264	0.408	0.5392	-0.004
Mof_C 	C 	0.5392	0.0264	0.0264	-0.004
Mof_C 	C 	0.0264	0.5392	0.408	-0.004
Mof_C 	C 	0.408	0.0264	0.0264	-0.004
Mof_C 	C 	0.4608	0.9736	0.9736	-0.004
Mof_C 	C 	0.9736	0.4608	0.592	-0.004
Mof_C 	C 	0.592	0.9736	0.9736	-0.004
Mof_C 	C 	0.9736	0.592	0.4608	-0.004
Mof_C 	C 	0.9736	0.9736	0.592	-0.004
Mof_C 	C 	0.592	0.4608	0.9736	-0.004
Mof_C 	C 	0.9736	0.9736	0.4608	-0.004
Mof_C 	C 	0.4608	0.592	0.9736	-0.004
Mof_C 	C 	0.592	0.9736	0.4608	-0.004
Mof_C 	C 	0.9736	0.4608	0.9736	-0.004
Mof_C 	C 	0.4608	0.9736	0.592	-0.004
Mof_C 	C 	0.9736	0.592	0.9736	-0.004
Mof_C 	C 	0.1105	0.3895	0.1105	0.38
Mof_C 	C 	0.0543	0.4457	0.0543	-0.102
Mof_C 	C 	0.3895	0.1105	0.3895	0.38
Mof_C 	C 	0.4457	0.0543	0.4457	-0.102
Mof_C 	C 	0.1105	0.1105	0.3895	0.38
Mof_C 	C 	0.0543	0.0543	0.4457	-0.102
Mof_C 	C 	0.3895	0.3895	0.1105	0.38
Mof_C 	C 	0.4457	0.4457	0.0543	-0.102
Mof_C 	C 	0.1105	0.3895	0.3895	0.38
Mof_C 	C 	0.0543	0.4457	0.4457	-0.102
Mof_C 	C 	0.3895	0.1105	0.1105	0.38
Mof_C 	C 	0.4457	0.0543	0.0543	-0.102
Mof_C 	C 	0.6105	0.8895	0.8895	0.38
Mof_C 	C 	0.5543	0.9457	0.9457	-0.102
Mof_C 	C 	0.8895	0.6105	0.6105	0.38
Mof_C 	C 	0.9457	0.5543	0.5543	-0.102
Mof_C 	C 	0.8895	0.8895	0.6105	0.38
Mof_C 	C 	0.9457	0.9457	0.5543	-0.102
Mof_C 	C 	0.6105	0.6105	0.8895	0.38
Mof_C 	C 	0.5543	0.5543	0.9457	-0.102
Mof_C 	C 	0.6105	0.8895	0.6105	0.38
Mof_C 	C 	0.5543	0.9457	0.5543	-0.102
Mof_C 	C 	0.8895	0.6105	0.8895	0.38
Mof_C 	C 	0.9457	0.5543	0.9457	-0.102
Mof_O 	O 	0.25	0.25	0.25	-0.956
Mof_O 	O 	0.75	0.75	0.75	-0.956
Mof_O 	O 	0.1333	0.4283	0.1333	-0.502
Mof_O 	O 	0.4283	0.1333	0.3051	-0.502
Mof_O 	O 	0.1333	0.3051	0.1333	-0.502
Mof_O 	O 	0.3051	0.1333	0.4283	-0.502
Mof_O 	O 	0.1333	0.1333	0.3051	-0.502
Mof_O 	O 	0.4283	0.3051	0.1333	-0.502
Mof_O 	O 	0.1333	0.1333	0.4283	-0.502
Mof_O 	O 	0.3051	0.4283	0.1333	-0.502
Mof_O 	O 	0.1333	0.3051	0.4283	-0.502
Mof_O 	O 	0.4283	0.1333	0.1333	-0.502
Mof_O 	O 	0.1333	0.4283	0.3051	-0.502
Mof_O 	O 	0.3051	0.1333	0.1333	-0.502
Mof_O 	O 	0.5717	0.8667	0.8667	-0.502
Mof_O 	O 	0.8667	0.5717	0.6949	-0.502
Mof_O 	O 	0.6949	0.8667	0.8667	-0.502
Mof_O 	O 	0.8667	0.6949	0.5717	-0.502
Mof_O 	O 	0.8667	0.8667	0.6949	-0.502
Mof_O 	O 	0.6949	0.5717	0.8667	-0.502
Mof_O 	O 	0.8667	0.8667	0.5717	-0.502
Mof_O 	O 	0.5717	0.6949	0.8667	-0.502
Mof_O 	O 	0.6949	0.8667	0.5717	-0.502
Mof_O 	O 	0.8667	0.5717	0.8667	-0.502
Mof_O 	O 	0.5717	0.8667	0.6949	-0.502
Mof_O 	O 	0.8667	0.6949	0.8667	-0.502
_end
