data_functionalizedCrystal
_audit_creation_method	'EQeq! by Chris Wilmer'
_symmetry_space_group_name_H-M	'P1'
_symmetry_Int_Tables_number	1
_symmetry_cell_setting	triclinic
loop_
_symmetry_equiv_pos_as_xyz
  x,y,z
_cell_length_a	17.7658
_cell_length_b	17.7658
_cell_length_c	17.7658
_cell_angle_alpha	90
_cell_angle_beta	90
_cell_angle_gamma	90
loop_
_atom_site_label
_atom_site_type_symbol
_atom_site_fract_x
_atom_site_fract_y
_atom_site_fract_z
_atom_site_charge
Mof_C 	C 	0.46457	0.75577	0.65706	0.131
Mof_C 	C 	0.55779	0.6588	0.65908	0.015
Mof_C 	C 	0.49499	0.69276	0.6906	-0.084
Mof_O 	O 	0.4073	0.79113	0.68152	-0.432
Mof_H 	H 	0.46858	0.66892	0.74382	0.07
Mof_C 	C 	0.03543	0.24423	0.15706	0.13
Mof_C 	C 	0.94221	0.3412	0.15908	0.014
Mof_C 	C 	0.00501	0.30724	0.1906	-0.085
Mof_O 	O 	0.0927	0.20887	0.18152	-0.433
Mof_H 	H 	0.03142	0.33108	0.24382	0.07
Mof_C 	C 	0.53543	0.25577	0.84294	0.13
Mof_C 	C 	0.44221	0.1588	0.84092	0.014
Mof_C 	C 	0.50501	0.19276	0.8094	-0.085
Mof_O 	O 	0.5927	0.29113	0.81848	-0.433
Mof_H 	H 	0.53142	0.16892	0.75618	0.07
Mof_C 	C 	0.96457	0.74423	0.34294	0.13
Mof_C 	C 	0.05779	0.8412	0.34092	0.014
Mof_C 	C 	0.99499	0.80724	0.3094	-0.085
Mof_O 	O 	0.9073	0.70887	0.31848	-0.433
Mof_H 	H 	0.96858	0.83108	0.25618	0.07
Mof_C 	C 	0.65706	0.46457	0.75577	0.13
Mof_C 	C 	0.65908	0.55779	0.6588	0.014
Mof_C 	C 	0.6906	0.49499	0.69276	-0.085
Mof_O 	O 	0.68152	0.4073	0.79113	-0.433
Mof_H 	H 	0.74382	0.46858	0.66892	0.07
Mof_C 	C 	0.15706	0.03543	0.24423	0.13
Mof_C 	C 	0.15908	0.94221	0.3412	0.014
Mof_C 	C 	0.1906	0.00501	0.30724	-0.085
Mof_O 	O 	0.18152	0.0927	0.20887	-0.433
Mof_H 	H 	0.24382	0.03142	0.33108	0.07
Mof_C 	C 	0.84294	0.53543	0.25577	0.13
Mof_C 	C 	0.84092	0.44221	0.1588	0.014
Mof_C 	C 	0.8094	0.50501	0.19276	-0.085
Mof_O 	O 	0.81848	0.5927	0.29113	-0.433
Mof_H 	H 	0.75618	0.53142	0.16892	0.07
Mof_C 	C 	0.34294	0.96457	0.74423	0.13
Mof_C 	C 	0.34092	0.05779	0.8412	0.014
Mof_C 	C 	0.3094	0.99499	0.80724	-0.085
Mof_O 	O 	0.31848	0.9073	0.70887	-0.433
Mof_H 	H 	0.25618	0.96858	0.83108	0.07
Mof_C 	C 	0.75577	0.65706	0.46457	0.13
Mof_C 	C 	0.6588	0.65908	0.55779	0.014
Mof_C 	C 	0.69276	0.6906	0.49499	-0.085
Mof_O 	O 	0.79113	0.68152	0.4073	-0.433
Mof_H 	H 	0.66892	0.74382	0.46858	0.07
Mof_C 	C 	0.24423	0.15706	0.03543	0.13
Mof_C 	C 	0.3412	0.15908	0.94221	0.014
Mof_C 	C 	0.30724	0.1906	0.00501	-0.085
Mof_O 	O 	0.20887	0.18152	0.0927	-0.433
Mof_H 	H 	0.33108	0.24382	0.03142	0.07
Mof_C 	C 	0.25577	0.84294	0.53543	0.13
Mof_C 	C 	0.1588	0.84092	0.44221	0.014
Mof_C 	C 	0.19276	0.8094	0.50501	-0.085
Mof_O 	O 	0.29113	0.81848	0.5927	-0.433
Mof_H 	H 	0.16892	0.75618	0.53142	0.07
Mof_C 	C 	0.74423	0.34294	0.96457	0.13
Mof_C 	C 	0.8412	0.34092	0.05779	0.014
Mof_C 	C 	0.80724	0.3094	0.99499	-0.085
Mof_O 	O 	0.70887	0.31848	0.9073	-0.433
Mof_H 	H 	0.83108	0.25618	0.96858	0.07
Mof_C 	C 	0.00577	0.21457	0.09294	0.13
Mof_C 	C 	0.9088	0.30779	0.09092	0.014
Mof_C 	C 	0.94276	0.24499	0.0594	-0.085
Mof_O 	O 	0.04113	0.1573	0.06848	-0.433
Mof_H 	H 	0.91892	0.21858	0.00618	0.07
Mof_C 	C 	0.49423	0.78543	0.59294	0.13
Mof_C 	C 	0.5912	0.69221	0.59092	0.014
Mof_C 	C 	0.55724	0.75501	0.5594	-0.085
Mof_O 	O 	0.45887	0.8427	0.56848	-0.433
Mof_H 	H 	0.58108	0.78142	0.50618	0.07
Mof_C 	C 	0.50577	0.28543	0.90706	0.13
Mof_C 	C 	0.4088	0.19221	0.90908	0.014
Mof_C 	C 	0.44276	0.25501	0.9406	-0.085
Mof_O 	O 	0.54113	0.3427	0.93152	-0.433
Mof_H 	H 	0.41892	0.28142	0.99382	0.07
Mof_C 	C 	0.99423	0.71457	0.40706	0.13
Mof_C 	C 	0.0912	0.80779	0.40908	0.014
Mof_C 	C 	0.05724	0.74499	0.4406	-0.085
Mof_O 	O 	0.95887	0.6573	0.43152	-0.433
Mof_H 	H 	0.08108	0.71858	0.49382	0.07
Mof_C 	C 	0.71457	0.40706	0.99423	0.13
Mof_C 	C 	0.80779	0.40908	0.0912	0.014
Mof_C 	C 	0.74499	0.4406	0.05724	-0.085
Mof_O 	O 	0.6573	0.43152	0.95887	-0.433
Mof_H 	H 	0.71858	0.49382	0.08108	0.07
Mof_C 	C 	0.28543	0.90706	0.50577	0.13
Mof_C 	C 	0.19221	0.90908	0.4088	0.014
Mof_C 	C 	0.25501	0.9406	0.44276	-0.085
Mof_O 	O 	0.3427	0.93152	0.54113	-0.433
Mof_H 	H 	0.28142	0.99382	0.41892	0.07
Mof_C 	C 	0.78543	0.59294	0.49423	0.13
Mof_C 	C 	0.69221	0.59092	0.5912	0.014
Mof_C 	C 	0.75501	0.5594	0.55724	-0.085
Mof_O 	O 	0.8427	0.56848	0.45887	-0.433
Mof_H 	H 	0.78142	0.50618	0.58108	0.07
Mof_C 	C 	0.21457	0.09294	0.00577	0.13
Mof_C 	C 	0.30779	0.09092	0.9088	0.014
Mof_C 	C 	0.24499	0.0594	0.94276	-0.085
Mof_O 	O 	0.1573	0.06848	0.04113	-0.433
Mof_H 	H 	0.21858	0.00618	0.91892	0.07
Mof_C 	C 	0.90706	0.50577	0.28543	0.13
Mof_C 	C 	0.90908	0.4088	0.19221	0.014
Mof_C 	C 	0.9406	0.44276	0.25501	-0.085
Mof_O 	O 	0.93152	0.54113	0.3427	-0.433
Mof_H 	H 	0.99382	0.41892	0.28142	0.07
Mof_C 	C 	0.40706	0.99423	0.71457	0.13
Mof_C 	C 	0.40908	0.0912	0.80779	0.014
Mof_C 	C 	0.4406	0.05724	0.74499	-0.085
Mof_O 	O 	0.43152	0.95887	0.6573	-0.433
Mof_H 	H 	0.49382	0.08108	0.71858	0.07
Mof_C 	C 	0.09294	0.00577	0.21457	0.13
Mof_C 	C 	0.09092	0.9088	0.30779	0.014
Mof_C 	C 	0.0594	0.94276	0.24499	-0.085
Mof_O 	O 	0.06848	0.04113	0.1573	-0.433
Mof_H 	H 	0.00618	0.91892	0.21858	0.07
Mof_C 	C 	0.59294	0.49423	0.78543	0.13
Mof_C 	C 	0.59092	0.5912	0.69221	0.014
Mof_C 	C 	0.5594	0.55724	0.75501	-0.085
Mof_O 	O 	0.56848	0.45887	0.8427	-0.433
Mof_H 	H 	0.50618	0.58108	0.78142	0.07
Mof_V 	V 	0.875	0.625	0.375	1.823
Mof_V 	V 	0.625	0.375	0.875	1.823
Mof_V 	V 	0.125	0.125	0.125	1.823
Mof_V 	V 	0.375	0.875	0.625	1.823
_end
