data_functionalizedCrystal
_audit_creation_method	'EQeq! by Chris Wilmer'
_symmetry_space_group_name_H-M	'P1'
_symmetry_Int_Tables_number	1
_symmetry_cell_setting	triclinic
loop_
_symmetry_equiv_pos_as_xyz
  x,y,z
_cell_length_a	12.332
_cell_length_b	12.461
_cell_length_c	12.85
_cell_angle_alpha	90
_cell_angle_beta	91.31
_cell_angle_gamma	90
loop_
_atom_site_label
_atom_site_type_symbol
_atom_site_fract_x
_atom_site_fract_y
_atom_site_fract_z
_atom_site_charge
Mof_Mn	Mn	0.23949	0.75287	0.00823	1.083
Mof_Mn	Mn	0.73998	0.74768	0.00685	1.086
Mof_C 	C 	0.48867	0.78333	0.00373	0.485
Mof_H 	H 	0.49	0.7308	0.0551	-0.102
Mof_C 	C 	0.99166	0.72988	0.04414	0.547
Mof_H 	H 	0.9946	0.7993	0.0706	-0.127
Mof_C 	C 	0.24711	0.781	0.25854	0.55
Mof_H 	H 	0.1994	0.8388	0.2594	-0.13
Mof_C 	C 	0.73572	0.72935	0.25561	0.52
Mof_H 	H 	0.788	0.6755	0.2573	-0.119
Mof_C 	C 	0.78179	0.99722	0.97698	0.54
Mof_H 	H 	0.7297	0.9968	0.9235	-0.122
Mof_C 	C 	0.72475	0.49882	0.01305	0.498
Mof_H 	H 	0.7851	0.5006	0.0578	-0.106
Mof_O 	O 	0.07757	0.69195	0.01836	-0.396
Mof_O 	O 	0.27906	0.75159	0.17279	-0.397
Mof_O 	O 	0.39848	0.81763	0.97454	-0.374
Mof_O 	O 	0.5776	0.81345	0.96991	-0.358
Mof_O 	O 	0.79963	0.91219	0.02088	-0.392
Mof_O 	O 	0.6815	0.58561	0.99042	-0.382
Mof_O 	O 	0.7012	0.75907	0.17015	-0.389
Mof_O 	O 	0.27267	0.74094	0.34257	-0.397
Mof_O 	O 	0.90071	0.6883	0.03988	-0.4
Mof_O 	O 	0.69399	0.40918	0.98079	-0.364
Mof_O 	O 	0.70566	0.76626	0.34045	-0.37
Mof_O 	O 	0.82668	0.08493	0.99692	-0.384
Mof_Mn	Mn	0.26051	0.25287	0.49177	1.081
Mof_Mn	Mn	0.76002	0.24768	0.49315	1.089
Mof_C 	C 	0.01133	0.28333	0.49627	0.489
Mof_H 	H 	0.01	0.2308	0.4449	-0.104
Mof_C 	C 	0.50834	0.22988	0.45586	0.559
Mof_H 	H 	0.5054	0.2993	0.4294	-0.128
Mof_C 	C 	0.25289	0.281	0.24146	0.549
Mof_H 	H 	0.3006	0.3388	0.2406	-0.13
Mof_C 	C 	0.76428	0.22935	0.24439	0.52
Mof_H 	H 	0.712	0.1755	0.2427	-0.118
Mof_C 	C 	0.71821	0.49722	0.52302	0.528
Mof_H 	H 	0.7703	0.4968	0.5765	-0.119
Mof_C 	C 	0.77525	0.99882	0.48695	0.49
Mof_H 	H 	0.7149	0.0006	0.4422	-0.101
Mof_O 	O 	0.42243	0.19195	0.48164	-0.404
Mof_O 	O 	0.22094	0.25159	0.32721	-0.397
Mof_O 	O 	0.10152	0.31763	0.52546	-0.377
Mof_O 	O 	0.9224	0.31345	0.53009	-0.361
Mof_O 	O 	0.70037	0.41219	0.47912	-0.384
Mof_O 	O 	0.8185	0.08561	0.50958	-0.38
Mof_O 	O 	0.7988	0.25907	0.32985	-0.388
Mof_O 	O 	0.22733	0.24094	0.15743	-0.395
Mof_O 	O 	0.59929	0.1883	0.46012	-0.402
Mof_O 	O 	0.80601	0.90918	0.51921	-0.364
Mof_O 	O 	0.79434	0.26626	0.15955	-0.369
Mof_O 	O 	0.67332	0.58493	0.50308	-0.383
Mof_Mn	Mn	0.76051	0.24713	0.99177	1.082
Mof_Mn	Mn	0.26002	0.25232	0.99315	1.085
Mof_C 	C 	0.51133	0.21667	0.99627	0.485
Mof_H 	H 	0.51	0.2692	0.9449	-0.102
Mof_C 	C 	0.00834	0.27012	0.95586	0.547
Mof_H 	H 	0.0054	0.2007	0.9294	-0.127
Mof_C 	C 	0.75289	0.219	0.74146	0.55
Mof_H 	H 	0.8006	0.1612	0.7406	-0.13
Mof_C 	C 	0.26428	0.27065	0.74439	0.52
Mof_H 	H 	0.212	0.3245	0.7427	-0.119
Mof_C 	C 	0.21821	0.00278	0.02302	0.54
Mof_H 	H 	0.2703	0.0032	0.0765	-0.122
Mof_C 	C 	0.27525	0.50118	0.98695	0.498
Mof_H 	H 	0.2149	0.4994	0.9422	-0.106
Mof_O 	O 	0.92243	0.30805	0.98164	-0.396
Mof_O 	O 	0.72094	0.24841	0.82721	-0.397
Mof_O 	O 	0.60152	0.18237	0.02546	-0.374
Mof_O 	O 	0.4224	0.18655	0.03009	-0.358
Mof_O 	O 	0.20037	0.08781	0.97912	-0.392
Mof_O 	O 	0.3185	0.41439	0.00958	-0.382
Mof_O 	O 	0.2988	0.24093	0.82985	-0.389
Mof_O 	O 	0.72733	0.25906	0.65743	-0.397
Mof_O 	O 	0.09929	0.3117	0.96012	-0.4
Mof_O 	O 	0.30601	0.59082	0.01921	-0.364
Mof_O 	O 	0.29434	0.23374	0.65955	-0.37
Mof_O 	O 	0.17332	0.91507	0.00308	-0.384
Mof_Mn	Mn	0.73949	0.74713	0.50823	1.081
Mof_Mn	Mn	0.23998	0.75232	0.50685	1.089
Mof_C 	C 	0.98867	0.71667	0.50373	0.489
Mof_H 	H 	0.99	0.7692	0.5551	-0.104
Mof_C 	C 	0.49166	0.77012	0.54414	0.559
Mof_H 	H 	0.4946	0.7007	0.5706	-0.128
Mof_C 	C 	0.74711	0.719	0.75854	0.549
Mof_H 	H 	0.6994	0.6612	0.7594	-0.13
Mof_C 	C 	0.23572	0.77065	0.75561	0.52
Mof_H 	H 	0.288	0.8245	0.7573	-0.118
Mof_C 	C 	0.28179	0.50278	0.47698	0.528
Mof_H 	H 	0.2297	0.5032	0.4235	-0.119
Mof_C 	C 	0.22475	0.00118	0.51305	0.49
Mof_H 	H 	0.2851	0.9994	0.5578	-0.101
Mof_O 	O 	0.57757	0.80805	0.51836	-0.404
Mof_O 	O 	0.77906	0.74841	0.67279	-0.397
Mof_O 	O 	0.89848	0.68237	0.47454	-0.377
Mof_O 	O 	0.0776	0.68655	0.46991	-0.361
Mof_O 	O 	0.29963	0.58781	0.52088	-0.384
Mof_O 	O 	0.1815	0.91439	0.49042	-0.38
Mof_O 	O 	0.2012	0.74093	0.67015	-0.388
Mof_O 	O 	0.77267	0.75906	0.84257	-0.395
Mof_O 	O 	0.40071	0.8117	0.53988	-0.402
Mof_O 	O 	0.19399	0.09082	0.48079	-0.364
Mof_O 	O 	0.20566	0.73374	0.84045	-0.369
Mof_O 	O 	0.32668	0.41507	0.49692	-0.383
_end
