data_functionalizedCrystal
_audit_creation_method	'EQeq! by Chris Wilmer'
_symmetry_space_group_name_H-M	'P1'
_symmetry_Int_Tables_number	1
_symmetry_cell_setting	triclinic
loop_
_symmetry_equiv_pos_as_xyz
  x,y,z
_cell_length_a	23.412
_cell_length_b	11.374
_cell_length_c	19.755
_cell_angle_alpha	90
_cell_angle_beta	122.518
_cell_angle_gamma	90
loop_
_atom_site_label
_atom_site_type_symbol
_atom_site_fract_x
_atom_site_fract_y
_atom_site_fract_z
_atom_site_charge
Mof_C 	C 	0.52521	0.1113	0.5049	0.215
Mof_C 	C 	0.54224	0.9123	0.5491	0.217
Mof_C 	C 	0.56827	0.0238	0.5556	-0.252
Mof_C 	C 	0.6421	0.0497	0.6148	0.454
Mof_N 	N 	0.995	0.9277	0.9276	-0.172
Mof_O 	O 	0.8822	0.8345	0.8113	0.28
Mof_C 	C 	0.0256	0.8304	0.9105	0.063
Mof_C 	C 	0.0328	0.0047	0.9947	0.033
Mof_C 	C 	0.9244	0.9419	0.8659	0.413
Mof_Mn	Mn	0.78494	0.92203	0.73594	1.032
Mof_O 	O 	0.66356	0.1502	0.61526	-0.376
Mof_O 	O 	0.67719	0.9677	0.6603	-0.418
Mof_O 	O 	0.5468	0.2087	0.502	-0.421
Mof_H 	H 	0.5185	0.2423	0.4606	0.268
Mof_C 	C 	0.79351	0.0341	0.59379	0.362
Mof_C 	C 	0.7958	0.9909	0.52341	0.027
Mof_C 	C 	0.78865	0.0677	0.46468	-0.222
Mof_H 	H 	0.7855	0.1479	0.4712	0.115
Mof_C 	C 	0.8017	0.8705	0.5157	-0.143
Mof_H 	H 	0.809	0.819	0.5562	0.094
Mof_C 	C 	0.78605	0.028	0.39548	0.315
Mof_C 	C 	0.78893	0.9047	0.38732	-0.279
Mof_C 	C 	0.79657	0.8288	0.447	0.133
Mof_H 	H 	0.7982	0.7482	0.4404	-0.001
Mof_C 	C 	0.78214	0.8503	0.31538	0.477
Mof_Mn	Mn	0.76361	0.22565	0.67474	0.881
Mof_O 	O 	0.80045	0.96	0.6435	-0.394
Mof_O 	O 	0.80402	0.90031	0.27687	-0.493
Mof_O 	O 	0.75544	0.7516	0.293	-0.468
Mof_O 	O 	0.78398	0.1418	0.5973	-0.398
Mof_O 	O 	0.77851	0.10424	0.3412	-0.455
Mof_O 	O 	0.8932	0.8895	0.8129	-0.687
Mof_O 	O 	0.5772	0.83	0.5876	-0.466
Mof_H 	H 	0.6071	0.8525	0.6324	0.275
Mof_C 	C 	0.02521	0.6113	0.5049	0.214
Mof_C 	C 	0.04224	0.4123	0.5491	0.216
Mof_C 	C 	0.06827	0.5238	0.5556	-0.253
Mof_C 	C 	0.1421	0.5497	0.6148	0.453
Mof_N 	N 	0.495	0.4277	0.9276	-0.176
Mof_O 	O 	0.3822	0.3345	0.8113	0.278
Mof_C 	C 	0.5256	0.3304	0.9105	0.064
Mof_C 	C 	0.5328	0.5047	0.9947	0.034
Mof_C 	C 	0.4244	0.4419	0.8659	0.411
Mof_Mn	Mn	0.28494	0.42203	0.73594	1.032
Mof_O 	O 	0.16356	0.6502	0.61526	-0.376
Mof_O 	O 	0.17719	0.4677	0.6603	-0.418
Mof_O 	O 	0.0468	0.7087	0.502	-0.421
Mof_H 	H 	0.0185	0.7423	0.4606	0.268
Mof_C 	C 	0.29351	0.5341	0.59379	0.362
Mof_C 	C 	0.2958	0.4909	0.52341	0.027
Mof_C 	C 	0.28865	0.5677	0.46468	-0.222
Mof_H 	H 	0.2855	0.6479	0.4712	0.115
Mof_C 	C 	0.3017	0.3705	0.5157	-0.143
Mof_H 	H 	0.309	0.319	0.5562	0.093
Mof_C 	C 	0.28605	0.528	0.39548	0.315
Mof_C 	C 	0.28893	0.4047	0.38732	-0.279
Mof_C 	C 	0.29657	0.3288	0.447	0.132
Mof_H 	H 	0.2982	0.2482	0.4404	-0.001
Mof_C 	C 	0.28214	0.3503	0.31538	0.477
Mof_Mn	Mn	0.26361	0.72565	0.67474	0.881
Mof_O 	O 	0.30045	0.46	0.6435	-0.395
Mof_O 	O 	0.30402	0.40031	0.27687	-0.493
Mof_O 	O 	0.25544	0.2516	0.293	-0.468
Mof_O 	O 	0.28398	0.6418	0.5973	-0.398
Mof_O 	O 	0.27851	0.60424	0.3412	-0.455
Mof_O 	O 	0.3932	0.3895	0.8129	-0.685
Mof_O 	O 	0.0772	0.33	0.5876	-0.466
Mof_H 	H 	0.1071	0.3525	0.6324	0.275
Mof_C 	C 	0.47479	0.1113	0.9951	0.213
Mof_C 	C 	0.45776	0.9123	0.9509	0.216
Mof_C 	C 	0.43173	0.0238	0.9444	-0.253
Mof_C 	C 	0.3579	0.0497	0.8852	0.453
Mof_N 	N 	0.005	0.9277	0.5724	-0.176
Mof_O 	O 	0.1178	0.8345	0.6887	0.277
Mof_C 	C 	0.9744	0.8304	0.5895	0.064
Mof_C 	C 	0.9672	0.0047	0.5053	0.035
Mof_C 	C 	0.0756	0.9419	0.6341	0.411
Mof_Mn	Mn	0.21506	0.92203	0.76406	1.032
Mof_O 	O 	0.33644	0.1502	0.88474	-0.376
Mof_O 	O 	0.32281	0.9677	0.8397	-0.418
Mof_O 	O 	0.4532	0.2087	0.998	-0.421
Mof_H 	H 	0.4815	0.2423	0.0394	0.268
Mof_C 	C 	0.20649	0.0341	0.90621	0.362
Mof_C 	C 	0.2042	0.9909	0.97659	0.027
Mof_C 	C 	0.21135	0.0677	0.03532	-0.221
Mof_H 	H 	0.2145	0.1479	0.0288	0.115
Mof_C 	C 	0.1983	0.8705	0.9843	-0.145
Mof_H 	H 	0.191	0.819	0.9438	0.094
Mof_C 	C 	0.21395	0.028	0.10452	0.315
Mof_C 	C 	0.21107	0.9047	0.11268	-0.28
Mof_C 	C 	0.20343	0.8288	0.053	0.135
Mof_H 	H 	0.2018	0.7482	0.0596	-0.002
Mof_C 	C 	0.21786	0.8503	0.18462	0.478
Mof_Mn	Mn	0.23639	0.22565	0.82526	0.881
Mof_O 	O 	0.19955	0.96	0.8565	-0.394
Mof_O 	O 	0.19598	0.90031	0.22313	-0.493
Mof_O 	O 	0.24456	0.7516	0.207	-0.468
Mof_O 	O 	0.21602	0.1418	0.9027	-0.398
Mof_O 	O 	0.22149	0.10424	0.1588	-0.455
Mof_O 	O 	0.1068	0.8895	0.6871	-0.685
Mof_O 	O 	0.4228	0.83	0.9124	-0.467
Mof_H 	H 	0.3929	0.8525	0.8676	0.275
Mof_C 	C 	0.97479	0.6113	0.9951	0.213
Mof_C 	C 	0.95776	0.4123	0.9509	0.217
Mof_C 	C 	0.93173	0.5238	0.9444	-0.253
Mof_C 	C 	0.8579	0.5497	0.8852	0.453
Mof_N 	N 	0.505	0.4277	0.5724	-0.176
Mof_O 	O 	0.6178	0.3345	0.6887	0.278
Mof_C 	C 	0.4744	0.3304	0.5895	0.064
Mof_C 	C 	0.4672	0.5047	0.5053	0.034
Mof_C 	C 	0.5756	0.4419	0.6341	0.411
Mof_Mn	Mn	0.71506	0.42203	0.76406	1.032
Mof_O 	O 	0.83644	0.6502	0.88474	-0.376
Mof_O 	O 	0.82281	0.4677	0.8397	-0.418
Mof_O 	O 	0.9532	0.7087	0.998	-0.417
Mof_H 	H 	0.9815	0.7423	0.0394	0.264
Mof_C 	C 	0.70649	0.5341	0.90621	0.362
Mof_C 	C 	0.7042	0.4909	0.97659	0.028
Mof_C 	C 	0.71135	0.5677	0.03532	-0.223
Mof_H 	H 	0.7145	0.6479	0.0288	0.115
Mof_C 	C 	0.6983	0.3705	0.9843	-0.142
Mof_H 	H 	0.691	0.319	0.9438	0.093
Mof_C 	C 	0.71395	0.528	0.10452	0.315
Mof_C 	C 	0.71107	0.4047	0.11268	-0.279
Mof_C 	C 	0.70343	0.3288	0.053	0.131
Mof_H 	H 	0.7018	0.2482	0.0596	-0.001
Mof_C 	C 	0.71786	0.3503	0.18462	0.477
Mof_Mn	Mn	0.73639	0.72565	0.82526	0.881
Mof_O 	O 	0.69955	0.46	0.8565	-0.395
Mof_O 	O 	0.69598	0.40031	0.22313	-0.493
Mof_O 	O 	0.74456	0.2516	0.207	-0.468
Mof_O 	O 	0.71602	0.6418	0.9027	-0.398
Mof_O 	O 	0.72149	0.60424	0.1588	-0.455
Mof_O 	O 	0.6068	0.3895	0.6871	-0.685
Mof_O 	O 	0.9228	0.33	0.9124	-0.466
Mof_H 	H 	0.8929	0.3525	0.8676	0.275
Mof_C 	C 	0.47479	0.8887	0.4951	0.214
Mof_C 	C 	0.45776	0.0877	0.4509	0.216
Mof_C 	C 	0.43173	0.9762	0.4444	-0.253
Mof_C 	C 	0.3579	0.9503	0.3852	0.453
Mof_N 	N 	0.005	0.0723	0.0724	-0.173
Mof_O 	O 	0.1178	0.1655	0.1887	0.279
Mof_C 	C 	0.9744	0.1696	0.0895	0.062
Mof_C 	C 	0.9672	0.9953	0.0053	0.032
Mof_C 	C 	0.0756	0.0581	0.1341	0.413
Mof_Mn	Mn	0.21506	0.07797	0.26406	1.032
Mof_O 	O 	0.33644	0.8498	0.38474	-0.376
Mof_O 	O 	0.32281	0.0323	0.3397	-0.418
Mof_O 	O 	0.4532	0.7913	0.498	-0.421
Mof_H 	H 	0.4815	0.7577	0.5394	0.268
Mof_C 	C 	0.20649	0.9659	0.40621	0.362
Mof_C 	C 	0.2042	0.0091	0.47659	0.027
Mof_C 	C 	0.21135	0.9323	0.53532	-0.222
Mof_H 	H 	0.2145	0.8521	0.5288	0.115
Mof_C 	C 	0.1983	0.1295	0.4843	-0.143
Mof_H 	H 	0.191	0.181	0.4438	0.094
Mof_C 	C 	0.21395	0.972	0.60452	0.315
Mof_C 	C 	0.21107	0.0953	0.61268	-0.279
Mof_C 	C 	0.20343	0.1712	0.553	0.133
Mof_H 	H 	0.2018	0.2518	0.5596	-0.001
Mof_C 	C 	0.21786	0.1497	0.68462	0.477
Mof_Mn	Mn	0.23639	0.77435	0.32526	0.881
Mof_O 	O 	0.19955	0.04	0.3565	-0.394
Mof_O 	O 	0.19598	0.09969	0.72313	-0.493
Mof_O 	O 	0.24456	0.2484	0.707	-0.468
Mof_O 	O 	0.21602	0.8582	0.4027	-0.398
Mof_O 	O 	0.22149	0.89576	0.6588	-0.455
Mof_O 	O 	0.1068	0.1105	0.1871	-0.687
Mof_O 	O 	0.4228	0.17	0.4124	-0.466
Mof_H 	H 	0.3929	0.1475	0.3676	0.275
Mof_C 	C 	0.97479	0.3887	0.4951	0.214
Mof_C 	C 	0.95776	0.5877	0.4509	0.216
Mof_C 	C 	0.93173	0.4762	0.4444	-0.253
Mof_C 	C 	0.8579	0.4503	0.3852	0.453
Mof_N 	N 	0.505	0.5723	0.0724	-0.176
Mof_O 	O 	0.6178	0.6655	0.1887	0.278
Mof_C 	C 	0.4744	0.6696	0.0895	0.064
Mof_C 	C 	0.4672	0.4953	0.0053	0.034
Mof_C 	C 	0.5756	0.5581	0.1341	0.411
Mof_Mn	Mn	0.71506	0.57797	0.26406	1.032
Mof_O 	O 	0.83644	0.3498	0.38474	-0.376
Mof_O 	O 	0.82281	0.5323	0.3397	-0.418
Mof_O 	O 	0.9532	0.2913	0.498	-0.421
Mof_H 	H 	0.9815	0.2577	0.5394	0.268
Mof_C 	C 	0.70649	0.4659	0.40621	0.362
Mof_C 	C 	0.7042	0.5091	0.47659	0.027
Mof_C 	C 	0.71135	0.4323	0.53532	-0.222
Mof_H 	H 	0.7145	0.3521	0.5288	0.115
Mof_C 	C 	0.6983	0.6295	0.4843	-0.143
Mof_H 	H 	0.691	0.681	0.4438	0.093
Mof_C 	C 	0.71395	0.472	0.60452	0.315
Mof_C 	C 	0.71107	0.5953	0.61268	-0.279
Mof_C 	C 	0.70343	0.6712	0.553	0.132
Mof_H 	H 	0.7018	0.7518	0.5596	-0.001
Mof_C 	C 	0.71786	0.6497	0.68462	0.477
Mof_Mn	Mn	0.73639	0.27435	0.32526	0.881
Mof_O 	O 	0.69955	0.54	0.3565	-0.395
Mof_O 	O 	0.69598	0.59969	0.72313	-0.493
Mof_O 	O 	0.74456	0.7484	0.707	-0.468
Mof_O 	O 	0.71602	0.3582	0.4027	-0.398
Mof_O 	O 	0.72149	0.39576	0.6588	-0.455
Mof_O 	O 	0.6068	0.6105	0.1871	-0.685
Mof_O 	O 	0.9228	0.67	0.4124	-0.466
Mof_H 	H 	0.8929	0.6475	0.3676	0.275
Mof_C 	C 	0.52521	0.8887	0.0049	0.213
Mof_C 	C 	0.54224	0.0877	0.0491	0.216
Mof_C 	C 	0.56827	0.9762	0.0556	-0.253
Mof_C 	C 	0.6421	0.9503	0.1148	0.453
Mof_N 	N 	0.995	0.0723	0.4276	-0.176
Mof_O 	O 	0.8822	0.1655	0.3113	0.277
Mof_C 	C 	0.0256	0.1696	0.4105	0.064
Mof_C 	C 	0.0328	0.9953	0.4947	0.035
Mof_C 	C 	0.9244	0.0581	0.3659	0.411
Mof_Mn	Mn	0.78494	0.07797	0.23594	1.032
Mof_O 	O 	0.66356	0.8498	0.11526	-0.376
Mof_O 	O 	0.67719	0.0323	0.1603	-0.418
Mof_O 	O 	0.5468	0.7913	0.002	-0.421
Mof_H 	H 	0.5185	0.7577	0.9606	0.268
Mof_C 	C 	0.79351	0.9659	0.09379	0.362
Mof_C 	C 	0.7958	0.0091	0.02341	0.027
Mof_C 	C 	0.78865	0.9323	0.96468	-0.221
Mof_H 	H 	0.7855	0.8521	0.9712	0.115
Mof_C 	C 	0.8017	0.1295	0.0157	-0.145
Mof_H 	H 	0.809	0.181	0.0562	0.094
Mof_C 	C 	0.78605	0.972	0.89548	0.315
Mof_C 	C 	0.78893	0.0953	0.88732	-0.28
Mof_C 	C 	0.79657	0.1712	0.947	0.135
Mof_H 	H 	0.7982	0.2518	0.9404	-0.002
Mof_C 	C 	0.78214	0.1497	0.81538	0.478
Mof_Mn	Mn	0.76361	0.77435	0.17474	0.881
Mof_O 	O 	0.80045	0.04	0.1435	-0.394
Mof_O 	O 	0.80402	0.09969	0.77687	-0.493
Mof_O 	O 	0.75544	0.2484	0.793	-0.468
Mof_O 	O 	0.78398	0.8582	0.0973	-0.398
Mof_O 	O 	0.77851	0.89576	0.8412	-0.455
Mof_O 	O 	0.8932	0.1105	0.3129	-0.685
Mof_O 	O 	0.5772	0.17	0.0876	-0.467
Mof_H 	H 	0.6071	0.1475	0.1324	0.275
Mof_C 	C 	0.02521	0.3887	0.0049	0.213
Mof_C 	C 	0.04224	0.5877	0.0491	0.217
Mof_C 	C 	0.06827	0.4762	0.0556	-0.253
Mof_C 	C 	0.1421	0.4503	0.1148	0.453
Mof_N 	N 	0.495	0.5723	0.4276	-0.176
Mof_O 	O 	0.3822	0.6655	0.3113	0.278
Mof_C 	C 	0.5256	0.6696	0.4105	0.064
Mof_C 	C 	0.5328	0.4953	0.4947	0.034
Mof_C 	C 	0.4244	0.5581	0.3659	0.411
Mof_Mn	Mn	0.28494	0.57797	0.23594	1.032
Mof_O 	O 	0.16356	0.3498	0.11526	-0.376
Mof_O 	O 	0.17719	0.5323	0.1603	-0.418
Mof_O 	O 	0.0468	0.2913	0.002	-0.417
Mof_H 	H 	0.0185	0.2577	0.9606	0.264
Mof_C 	C 	0.29351	0.4659	0.09379	0.362
Mof_C 	C 	0.2958	0.5091	0.02341	0.028
Mof_C 	C 	0.28865	0.4323	0.96468	-0.223
Mof_H 	H 	0.2855	0.3521	0.9712	0.115
Mof_C 	C 	0.3017	0.6295	0.0157	-0.142
Mof_H 	H 	0.309	0.681	0.0562	0.093
Mof_C 	C 	0.28605	0.472	0.89548	0.315
Mof_C 	C 	0.28893	0.5953	0.88732	-0.279
Mof_C 	C 	0.29657	0.6712	0.947	0.131
Mof_H 	H 	0.2982	0.7518	0.9404	-0.001
Mof_C 	C 	0.28214	0.6497	0.81538	0.477
Mof_Mn	Mn	0.26361	0.27435	0.17474	0.881
Mof_O 	O 	0.30045	0.54	0.1435	-0.395
Mof_O 	O 	0.30402	0.59969	0.77687	-0.493
Mof_O 	O 	0.25544	0.7484	0.793	-0.468
Mof_O 	O 	0.28398	0.3582	0.0973	-0.398
Mof_O 	O 	0.27851	0.39576	0.8412	-0.455
Mof_O 	O 	0.3932	0.6105	0.3129	-0.685
Mof_O 	O 	0.0772	0.67	0.0876	-0.466
Mof_H 	H 	0.1071	0.6475	0.1324	0.275
_end
