data_functionalizedCrystal
_audit_creation_method	'EQeq! by Chris Wilmer'
_symmetry_space_group_name_H-M	'P1'
_symmetry_Int_Tables_number	1
_symmetry_cell_setting	triclinic
loop_
_symmetry_equiv_pos_as_xyz
  x,y,z
_cell_length_a	26.783
_cell_length_b	26.783
_cell_length_c	26.783
_cell_angle_alpha	90
_cell_angle_beta	90
_cell_angle_gamma	90
loop_
_atom_site_label
_atom_site_type_symbol
_atom_site_fract_x
_atom_site_fract_y
_atom_site_fract_z
_atom_site_charge
Mof_O 	O 	0.87103	0.0684	0.00201	-0.727
Mof_O 	O 	0.12915	0.06807	0.9981	-0.576
Mof_O 	O 	0.99813	0.12907	0.06822	-0.632
Mof_O 	O 	0.00223	0.12904	0.93177	-0.627
Mof_O 	O 	0.00112	0.06814	0.87086	-0.701
Mof_O 	O 	0.99883	0.06816	0.12912	-0.604
Mof_O 	O 	0.06829	0.12905	0.99899	-0.554
Mof_O 	O 	0.932	0.12925	0.00105	-0.708
Mof_Zr	Zr	0.00011	0.08839	1e-05	3.201
Mof_O 	O 	0.04543	0.04529	0.95467	-1.261
Mof_O 	O 	0.9547	0.04546	0.0454	-1.297
Mof_C 	C 	0.88554	0.11484	0.00225	0.507
Mof_C 	C 	0.11471	0.11455	0.99785	0.428
Mof_C 	C 	0.99782	0.1146	0.11467	0.453
Mof_C 	C 	0.0024	0.11457	0.88531	0.483
Mof_H 	H 	0.0665	0.06632	0.06639	0.273
Mof_O 	O 	0.04516	0.04503	0.04509	-1.616
Mof_H 	H 	0.93369	0.06651	0.9336	0.336
Mof_O 	O 	0.95496	0.04517	0.95491	-1.424
Mof_O 	O 	0.12898	0.93161	0.00201	-0.695
Mof_O 	O 	0.87086	0.93195	0.9981	-0.523
Mof_O 	O 	0.06816	0.99869	0.12913	-0.604
Mof_O 	O 	0.06825	0.00198	0.87099	-0.69
Mof_O 	O 	0.93176	0.99803	0.87099	-0.566
Mof_O 	O 	0.93185	0.00133	0.12913	-0.66
Mof_O 	O 	0.00188	0.87094	0.06822	-0.714
Mof_O 	O 	0.99778	0.87097	0.93177	-0.547
Mof_O 	O 	0.00118	0.93186	0.12912	-0.661
Mof_O 	O 	0.99889	0.93188	0.87086	-0.559
Mof_O 	O 	0.12909	0.99803	0.06823	-0.637
Mof_O 	O 	0.87092	0.00199	0.06823	-0.711
Mof_O 	O 	0.87084	0.99919	0.93189	-0.536
Mof_O 	O 	0.12917	0.00083	0.93189	-0.642
Mof_O 	O 	0.06801	0.87077	0.00105	-0.753
Mof_O 	O 	0.93172	0.87097	0.99899	-0.511
Mof_Zr	Zr	0.0884	0.99985	3e-05	3.224
Mof_Zr	Zr	0.91161	0.00016	3e-05	3.201
Mof_Zr	Zr	9.88375e-34	1e-05	0.08839	3.213
Mof_Zr	Zr	1.39296e-32	1e-05	0.91164	3.212
Mof_Zr	Zr	0.9999	0.91163	1e-05	3.223
Mof_O 	O 	0.95458	0.95472	0.95467	-1.181
Mof_O 	O 	0.04531	0.95456	0.0454	-1.303
Mof_C 	C 	0.11447	0.88518	0.00225	0.509
Mof_C 	C 	0.8853	0.88547	0.99785	0.415
Mof_C 	C 	0.11461	0.99766	0.11468	0.453
Mof_C 	C 	0.11471	0.00209	0.88545	0.483
Mof_C 	C 	0.8853	0.99793	0.88545	0.433
Mof_C 	C 	0.8854	0.00235	0.11468	0.488
Mof_C 	C 	0.00219	0.88542	0.11467	0.49
Mof_C 	C 	0.99761	0.88544	0.88531	0.434
Mof_H 	H 	0.93351	0.9337	0.06639	0.314
Mof_O 	O 	0.95485	0.95498	0.04509	-1.492
Mof_H 	H 	0.06632	0.9335	0.9336	0.336
Mof_O 	O 	0.04505	0.95484	0.95491	-1.43
Mof_O 	O 	0.37103	0.5684	0.00201	-0.714
Mof_O 	O 	0.62915	0.56807	0.9981	-0.547
Mof_O 	O 	0.49813	0.62907	0.06822	-0.675
Mof_O 	O 	0.50223	0.62904	0.93177	-0.586
Mof_O 	O 	0.50112	0.56814	0.87086	-0.633
Mof_O 	O 	0.49883	0.56816	0.12912	-0.637
Mof_O 	O 	0.56829	0.62905	0.99899	-0.529
Mof_O 	O 	0.432	0.62925	0.00105	-0.732
Mof_Zr	Zr	0.50011	0.58839	1e-05	3.212
Mof_O 	O 	0.54543	0.54529	0.95467	-1.222
Mof_O 	O 	0.4547	0.54546	0.0454	-1.305
Mof_C 	C 	0.38554	0.61484	0.00225	0.509
Mof_C 	C 	0.61471	0.61455	0.99785	0.421
Mof_C 	C 	0.49782	0.6146	0.11467	0.473
Mof_C 	C 	0.5024	0.61457	0.88531	0.459
Mof_H 	H 	0.5665	0.56632	0.06639	0.294
Mof_O 	O 	0.54516	0.54503	0.04509	-1.558
Mof_H 	H 	0.43369	0.56651	0.9336	0.336
Mof_O 	O 	0.45496	0.54517	0.95491	-1.43
Mof_O 	O 	0.62898	0.43161	0.00201	-0.713
Mof_O 	O 	0.37086	0.43195	0.9981	-0.548
Mof_O 	O 	0.56816	0.49869	0.12913	-0.637
Mof_O 	O 	0.56825	0.50198	0.87099	-0.631
Mof_O 	O 	0.43176	0.49803	0.87099	-0.631
Mof_O 	O 	0.43185	0.50133	0.12913	-0.637
Mof_O 	O 	0.50188	0.37094	0.06822	-0.676
Mof_O 	O 	0.49778	0.37097	0.93177	-0.587
Mof_O 	O 	0.50118	0.43186	0.12912	-0.637
Mof_O 	O 	0.49889	0.43188	0.87086	-0.633
Mof_O 	O 	0.62909	0.49803	0.06823	-0.676
Mof_O 	O 	0.37092	0.50199	0.06823	-0.677
Mof_O 	O 	0.37084	0.49919	0.93189	-0.588
Mof_O 	O 	0.62917	0.50083	0.93189	-0.587
Mof_O 	O 	0.56801	0.37077	0.00105	-0.733
Mof_O 	O 	0.43172	0.37097	0.99899	-0.531
Mof_Zr	Zr	0.5884	0.49985	3e-05	3.212
Mof_Zr	Zr	0.41161	0.50016	3e-05	3.212
Mof_Zr	Zr	0.5	0.50001	0.08839	3.235
Mof_Zr	Zr	0.5	0.50001	0.91164	3.234
Mof_Zr	Zr	0.4999	0.41163	1e-05	3.212
Mof_O 	O 	0.45458	0.45472	0.95467	-1.222
Mof_O 	O 	0.54531	0.45456	0.0454	-1.305
Mof_C 	C 	0.61447	0.38518	0.00225	0.509
Mof_C 	C 	0.3853	0.38547	0.99785	0.421
Mof_C 	C 	0.61461	0.49766	0.11468	0.472
Mof_C 	C 	0.61471	0.50209	0.88545	0.459
Mof_C 	C 	0.3853	0.49793	0.88545	0.458
Mof_C 	C 	0.3854	0.50235	0.11468	0.472
Mof_C 	C 	0.50219	0.38542	0.11467	0.472
Mof_C 	C 	0.49761	0.38544	0.88531	0.459
Mof_H 	H 	0.43351	0.4337	0.06639	0.294
Mof_O 	O 	0.45485	0.45498	0.04509	-1.558
Mof_H 	H 	0.56632	0.4335	0.9336	0.336
Mof_O 	O 	0.54505	0.45484	0.95491	-1.43
Mof_O 	O 	0.87081	0.568	0.50112	-0.634
Mof_O 	O 	0.12904	0.56834	0.4988	-0.637
Mof_O 	O 	0.99801	0.62909	0.5682	-0.594
Mof_O 	O 	0.00164	0.62912	0.43178	-0.676
Mof_O 	O 	0.00117	0.56818	0.37088	-0.684
Mof_O 	O 	0.9989	0.56816	0.62911	-0.582
Mof_O 	O 	0.06808	0.6292	0.49818	-0.657
Mof_O 	O 	0.93165	0.629	0.50181	-0.614
Mof_Zr	Zr	0.9999	0.58841	0.49998	3.246
Mof_O 	O 	0.04531	0.54546	0.45458	-1.29
Mof_O 	O 	0.95458	0.54529	0.54531	-1.249
Mof_C 	C 	0.88522	0.61447	0.50219	0.464
Mof_C 	C 	0.11455	0.61476	0.49779	0.47
Mof_C 	C 	0.99773	0.6146	0.61466	0.445
Mof_C 	C 	0.00208	0.61463	0.38533	0.488
Mof_H 	H 	0.06631	0.56652	0.56638	0.306
Mof_O 	O 	0.04504	0.54518	0.54507	-1.533
Mof_H 	H 	0.93351	0.56633	0.4336	0.326
Mof_O 	O 	0.95486	0.54505	0.45489	-1.469
Mof_O 	O 	0.1292	0.43201	0.50112	-0.636
Mof_O 	O 	0.87097	0.43168	0.4988	-0.634
Mof_O 	O 	0.06823	0.49801	0.62901	-0.653
Mof_O 	O 	0.06814	0.50134	0.37083	-0.657
Mof_O 	O 	0.93187	0.49868	0.37083	-0.612
Mof_O 	O 	0.93178	0.502	0.62901	-0.609
Mof_O 	O 	0.002	0.37093	0.5682	-0.674
Mof_O 	O 	0.99837	0.3709	0.43178	-0.592
Mof_O 	O 	0.00111	0.43186	0.62911	-0.682
Mof_O 	O 	0.99884	0.43183	0.37088	-0.582
Mof_O 	O 	0.12914	0.49896	0.56809	-0.636
Mof_O 	O 	0.87087	0.50105	0.56809	-0.633
Mof_O 	O 	0.87096	0.49779	0.43173	-0.633
Mof_O 	O 	0.12905	0.50223	0.43173	-0.636
Mof_O 	O 	0.06836	0.37102	0.50181	-0.656
Mof_O 	O 	0.93193	0.37081	0.49818	-0.611
Mof_Zr	Zr	0.08838	0.50017	0.49994	3.235
Mof_Zr	Zr	0.91163	0.49985	0.49994	3.234
Mof_Zr	Zr	2.20596e-33	0.50001	0.58835	3.223
Mof_Zr	Zr	6.79898e-33	0.50001	0.4116	3.223
Mof_Zr	Zr	0.00011	0.41161	0.49998	3.223
Mof_O 	O 	0.9547	0.45455	0.45458	-1.246
Mof_O 	O 	0.04543	0.45473	0.54531	-1.287
Mof_C 	C 	0.11479	0.38555	0.50219	0.469
Mof_C 	C 	0.88546	0.38526	0.49779	0.463
Mof_C 	C 	0.11469	0.49782	0.61453	0.47
Mof_C 	C 	0.11457	0.50247	0.38528	0.469
Mof_C 	C 	0.88544	0.49755	0.38528	0.462
Mof_C 	C 	0.88532	0.5022	0.61453	0.463
Mof_C 	C 	0.00228	0.38542	0.61466	0.488
Mof_C 	C 	0.99793	0.38539	0.38533	0.443
Mof_H 	H 	0.9337	0.4335	0.56638	0.327
Mof_O 	O 	0.95497	0.45484	0.54507	-1.466
Mof_H 	H 	0.0665	0.43369	0.4336	0.305
Mof_O 	O 	0.04515	0.45497	0.45489	-1.529
Mof_O 	O 	0.37081	0.068	0.50112	-0.661
Mof_O 	O 	0.62904	0.06834	0.4988	-0.653
Mof_O 	O 	0.49801	0.12909	0.5682	-0.635
Mof_O 	O 	0.50164	0.12912	0.43178	-0.636
Mof_O 	O 	0.50117	0.06818	0.37088	-0.656
Mof_O 	O 	0.4989	0.06816	0.62911	-0.654
Mof_O 	O 	0.56808	0.1292	0.49818	-0.635
Mof_O 	O 	0.43165	0.129	0.50181	-0.637
Mof_Zr	Zr	0.4999	0.08841	0.49998	3.235
Mof_O 	O 	0.54531	0.04546	0.45458	-1.287
Mof_O 	O 	0.45458	0.04529	0.54531	-1.29
Mof_C 	C 	0.38522	0.11447	0.50219	0.47
Mof_C 	C 	0.61455	0.11476	0.49779	0.47
Mof_C 	C 	0.49773	0.1146	0.61466	0.47
Mof_C 	C 	0.50208	0.11463	0.38533	0.469
Mof_H 	H 	0.56631	0.06652	0.56638	0.306
Mof_O 	O 	0.54504	0.04518	0.54507	-1.53
Mof_H 	H 	0.43351	0.06633	0.4336	0.305
Mof_O 	O 	0.45486	0.04505	0.45489	-1.533
Mof_O 	O 	0.6292	0.93201	0.50112	-0.608
Mof_O 	O 	0.37097	0.93168	0.4988	-0.617
Mof_O 	O 	0.56823	0.99801	0.62901	-0.589
Mof_O 	O 	0.56814	0.00134	0.37083	-0.684
Mof_O 	O 	0.43187	0.99868	0.37083	-0.583
Mof_O 	O 	0.43178	0.002	0.62901	-0.673
Mof_O 	O 	0.502	0.87093	0.5682	-0.633
Mof_O 	O 	0.49837	0.8709	0.43178	-0.633
Mof_O 	O 	0.50111	0.93186	0.62911	-0.61
Mof_O 	O 	0.49884	0.93183	0.37088	-0.612
Mof_O 	O 	0.62914	0.99896	0.56809	-0.58
Mof_O 	O 	0.37087	0.00105	0.56809	-0.688
Mof_O 	O 	0.37096	0.99779	0.43173	-0.595
Mof_O 	O 	0.62905	0.00223	0.43173	-0.672
Mof_O 	O 	0.56836	0.87102	0.50181	-0.633
Mof_O 	O 	0.43193	0.87081	0.49818	-0.633
Mof_Zr	Zr	0.58838	0.00017	0.49994	3.223
Mof_Zr	Zr	0.41163	0.99985	0.49994	3.246
Mof_Zr	Zr	0.5	1e-05	0.58835	3.223
Mof_Zr	Zr	0.5	1e-05	0.4116	3.223
Mof_Zr	Zr	0.50011	0.91161	0.49998	3.234
Mof_O 	O 	0.4547	0.95455	0.45458	-1.249
Mof_O 	O 	0.54543	0.95473	0.54531	-1.246
Mof_C 	C 	0.61479	0.88555	0.50219	0.463
Mof_C 	C 	0.38546	0.88526	0.49779	0.463
Mof_C 	C 	0.61469	0.99782	0.61453	0.445
Mof_C 	C 	0.61457	0.00247	0.38528	0.487
Mof_C 	C 	0.38544	0.99755	0.38528	0.445
Mof_C 	C 	0.38532	0.0022	0.61453	0.489
Mof_C 	C 	0.50228	0.88542	0.61466	0.463
Mof_C 	C 	0.49793	0.88539	0.38533	0.462
Mof_H 	H 	0.4337	0.9335	0.56638	0.327
Mof_O 	O 	0.45497	0.95484	0.54507	-1.469
Mof_H 	H 	0.5665	0.93369	0.4336	0.326
Mof_O 	O 	0.54515	0.95497	0.45489	-1.466
Mof_C 	C 	0.23001	0.23004	0.9961	0.165
Mof_C 	C 	0.18004	0.24141	0.00838	-0.229
Mof_C 	C 	0.14288	0.20428	0.00851	-0.155
Mof_C 	C 	0.15434	0.15427	0.99693	0.068
Mof_C 	C 	0.20418	0.14274	0.98474	0.01
Mof_C 	C 	0.24127	0.17997	0.98406	-0.054
Mof_C 	C 	0.27	0.26997	0.9961	0.162
Mof_C 	C 	0.31997	0.25861	0.00838	-0.223
Mof_C 	C 	0.35713	0.29573	0.00851	-0.16
Mof_C 	C 	0.34567	0.34575	0.99693	0.083
Mof_C 	C 	0.29583	0.35727	0.98474	0.008
Mof_C 	C 	0.25874	0.32005	0.98406	-0.047
Mof_H 	H 	0.10512	0.21477	0.01848	0.012
Mof_H 	H 	0.21458	0.10486	0.97517	0.058
Mof_H 	H 	0.39489	0.28525	0.01848	0.025
Mof_H 	H 	0.28543	0.39516	0.97517	0.071
Mof_H 	H 	0.27876	0.16938	0.97338	0.077
Mof_H 	H 	0.33048	0.22104	0.01885	0.016
Mof_H 	H 	0.16953	0.27898	0.01885	0.015
Mof_H 	H 	0.22125	0.33063	0.97338	0.079
Mof_C 	C 	0.23004	0.73002	0.49602	0.026
Mof_C 	C 	0.18	0.74127	0.48386	-0.073
Mof_C 	C 	0.14277	0.70419	0.48453	0.038
Mof_C 	C 	0.15427	0.65437	0.49687	-0.132
Mof_C 	C 	0.20425	0.64293	0.50859	0.038
Mof_C 	C 	0.24138	0.68008	0.50844	-0.072
Mof_C 	C 	0.26997	0.76999	0.49602	0.024
Mof_C 	C 	0.32001	0.75875	0.48386	-0.069
Mof_C 	C 	0.35724	0.79583	0.48453	0.037
Mof_C 	C 	0.34574	0.84564	0.49687	-0.121
Mof_C 	C 	0.29576	0.85709	0.50859	0.036
Mof_C 	C 	0.25863	0.81993	0.50844	-0.068
Mof_H 	H 	0.10491	0.71456	0.47483	0.03
Mof_H 	H 	0.2147	0.60519	0.51869	0.034
Mof_H 	H 	0.3951	0.78546	0.47483	0.038
Mof_H 	H 	0.28531	0.89482	0.51869	0.043
Mof_H 	H 	0.27894	0.6696	0.51899	0.047
Mof_H 	H 	0.33056	0.72127	0.47309	0.047
Mof_H 	H 	0.16945	0.77875	0.47309	0.046
Mof_H 	H 	0.22107	0.83042	0.51899	0.047
Mof_C 	C 	0.77	0.76997	0.9961	0.166
Mof_C 	C 	0.75874	0.82005	0.98406	-0.04
Mof_C 	C 	0.79583	0.85727	0.98474	0.011
Mof_C 	C 	0.84567	0.84575	0.99693	0.094
Mof_C 	C 	0.85713	0.79573	0.00851	-0.155
Mof_C 	C 	0.81997	0.75861	0.00838	-0.216
Mof_C 	C 	0.73001	0.73004	0.9961	0.169
Mof_C 	C 	0.74127	0.67997	0.98406	-0.046
Mof_C 	C 	0.70418	0.64274	0.98474	0.012
Mof_C 	C 	0.65434	0.65427	0.99693	0.084
Mof_C 	C 	0.64288	0.70428	0.00851	-0.155
Mof_C 	C 	0.68004	0.74141	0.00838	-0.221
Mof_H 	H 	0.78543	0.89516	0.97517	0.087
Mof_H 	H 	0.89489	0.78525	0.01848	0.042
Mof_H 	H 	0.71458	0.60486	0.97517	0.075
Mof_H 	H 	0.60512	0.71477	0.01848	0.029
Mof_H 	H 	0.83048	0.72104	0.01885	0.028
Mof_H 	H 	0.77876	0.66938	0.97338	0.088
Mof_H 	H 	0.72125	0.83063	0.97338	0.09
Mof_H 	H 	0.66953	0.77898	0.01885	0.028
Mof_C 	C 	0.76997	0.26999	0.49602	0.025
Mof_C 	C 	0.75863	0.31993	0.50844	-0.068
Mof_C 	C 	0.79576	0.35709	0.50859	0.036
Mof_C 	C 	0.84574	0.34564	0.49687	-0.12
Mof_C 	C 	0.85724	0.29583	0.48453	0.039
Mof_C 	C 	0.82001	0.25875	0.48386	-0.067
Mof_C 	C 	0.73004	0.23002	0.49602	0.027
Mof_C 	C 	0.74138	0.18008	0.50844	-0.073
Mof_C 	C 	0.70425	0.14293	0.50859	0.038
Mof_C 	C 	0.65427	0.15438	0.49687	-0.13
Mof_C 	C 	0.64277	0.20419	0.48453	0.04
Mof_C 	C 	0.68	0.24127	0.48386	-0.072
Mof_H 	H 	0.78531	0.39482	0.51869	0.036
Mof_H 	H 	0.8951	0.28546	0.47483	0.045
Mof_H 	H 	0.7147	0.10519	0.51869	0.028
Mof_H 	H 	0.60491	0.21456	0.47483	0.036
Mof_H 	H 	0.83056	0.22127	0.47309	0.049
Mof_H 	H 	0.77894	0.1696	0.51899	0.047
Mof_H 	H 	0.72107	0.33042	0.51899	0.047
Mof_H 	H 	0.66945	0.27875	0.47309	0.047
Mof_C 	C 	0.77005	0.23011	0.00412	-0.115
Mof_C 	C 	0.75893	0.18003	0.01622	-0.094
Mof_C 	C 	0.7961	0.1429	0.01554	0.063
Mof_C 	C 	0.8459	0.15453	0.00327	-0.329
Mof_C 	C 	0.85725	0.20455	0.99163	0.228
Mof_C 	C 	0.81999	0.24159	0.99178	0.085
Mof_C 	C 	0.72996	0.26991	0.00412	-0.115
Mof_C 	C 	0.74108	0.31999	0.01622	-0.093
Mof_C 	C 	0.70391	0.35711	0.01554	0.067
Mof_C 	C 	0.65411	0.34548	0.00327	-0.333
Mof_C 	C 	0.64276	0.29546	0.99163	0.23
Mof_C 	C 	0.68002	0.25843	0.99178	0.081
Mof_H 	H 	0.78579	0.10501	0.02518	-0.002
Mof_H 	H 	0.89497	0.2151	0.98161	0.058
Mof_H 	H 	0.71422	0.39501	0.02518	0.005
Mof_H 	H 	0.60504	0.28491	0.98161	0.043
Mof_H 	H 	0.83039	0.27918	0.98128	0.078
Mof_H 	H 	0.77854	0.33065	0.02695	0.015
Mof_H 	H 	0.72147	0.16936	0.02695	0.007
Mof_H 	H 	0.66962	0.22084	0.98128	0.068
Mof_C 	C 	0.76991	0.72996	0.50402	0.028
Mof_C 	C 	0.75845	0.68003	0.49164	-0.068
Mof_C 	C 	0.7955	0.64277	0.4915	0.037
Mof_C 	C 	0.84551	0.65411	0.50319	-0.12
Mof_C 	C 	0.85712	0.70391	0.5155	0.042
Mof_C 	C 	0.81998	0.74109	0.51616	-0.066
Mof_C 	C 	0.7301	0.77005	0.50402	0.027
Mof_C 	C 	0.74156	0.81998	0.49164	-0.065
Mof_C 	C 	0.70451	0.85724	0.4915	0.04
Mof_C 	C 	0.6545	0.84591	0.50319	-0.118
Mof_C 	C 	0.64289	0.7961	0.5155	0.037
Mof_C 	C 	0.68003	0.75893	0.51616	-0.068
Mof_H 	H 	0.78496	0.60506	0.48144	0.037
Mof_H 	H 	0.895	0.71422	0.52518	0.048
Mof_H 	H 	0.71505	0.89496	0.48144	0.054
Mof_H 	H 	0.60501	0.7858	0.52518	0.038
Mof_H 	H 	0.83063	0.77854	0.52692	0.058
Mof_H 	H 	0.77914	0.83039	0.48111	0.058
Mof_H 	H 	0.72087	0.66963	0.48111	0.047
Mof_H 	H 	0.66938	0.72148	0.52692	0.048
Mof_C 	C 	0.2301	0.27005	0.50402	0.022
Mof_C 	C 	0.18003	0.25893	0.51616	-0.074
Mof_C 	C 	0.14289	0.2961	0.5155	0.035
Mof_C 	C 	0.1545	0.34591	0.50319	-0.131
Mof_C 	C 	0.20451	0.35724	0.4915	0.036
Mof_C 	C 	0.24156	0.31998	0.49164	-0.072
Mof_C 	C 	0.26991	0.22996	0.50402	0.023
Mof_C 	C 	0.31998	0.24109	0.51616	-0.073
Mof_C 	C 	0.35712	0.20391	0.5155	0.039
Mof_C 	C 	0.34551	0.15411	0.50319	-0.133
Mof_C 	C 	0.2955	0.14277	0.4915	0.034
Mof_C 	C 	0.25845	0.18003	0.49164	-0.076
Mof_H 	H 	0.10501	0.2858	0.52518	0.026
Mof_H 	H 	0.21505	0.39496	0.48144	0.035
Mof_H 	H 	0.395	0.21422	0.52518	0.036
Mof_H 	H 	0.28496	0.10506	0.48144	0.018
Mof_H 	H 	0.27914	0.33039	0.48111	0.045
Mof_H 	H 	0.33063	0.27854	0.52692	0.047
Mof_H 	H 	0.16938	0.22148	0.52692	0.037
Mof_H 	H 	0.22087	0.16963	0.48111	0.034
Mof_C 	C 	0.22996	0.76991	0.00412	-0.114
Mof_C 	C 	0.18002	0.75843	0.99178	0.079
Mof_C 	C 	0.14276	0.79546	0.99163	0.228
Mof_C 	C 	0.15411	0.84548	0.00327	-0.332
Mof_C 	C 	0.20391	0.85711	0.01554	0.068
Mof_C 	C 	0.24108	0.81999	0.01622	-0.092
Mof_C 	C 	0.27005	0.73011	0.00412	-0.116
Mof_C 	C 	0.31999	0.74159	0.99178	0.082
Mof_C 	C 	0.35725	0.70455	0.99163	0.231
Mof_C 	C 	0.3459	0.65453	0.00327	-0.333
Mof_C 	C 	0.2961	0.6429	0.01554	0.065
Mof_C 	C 	0.25893	0.68003	0.01622	-0.094
Mof_H 	H 	0.10504	0.78491	0.98161	0.033
Mof_H 	H 	0.21422	0.89501	0.02518	0.01
Mof_H 	H 	0.39497	0.7151	0.98161	0.047
Mof_H 	H 	0.28579	0.60501	0.02518	0.002
Mof_H 	H 	0.27854	0.83065	0.02695	0.016
Mof_H 	H 	0.33039	0.77918	0.98128	0.076
Mof_H 	H 	0.16962	0.72084	0.98128	0.066
Mof_H 	H 	0.22147	0.66936	0.02695	0.008
Mof_C 	C 	0.99633	0.22999	0.23007	0.095
Mof_C 	C 	0.00842	0.17999	0.2415	-0.154
Mof_C 	C 	0.00849	0.14278	0.20442	-0.06
Mof_C 	C 	0.99698	0.15424	0.15438	-0.037
Mof_C 	C 	0.98502	0.20413	0.14279	0.024
Mof_C 	C 	0.98444	0.24125	0.17997	-0.068
Mof_C 	C 	0.99635	0.27001	0.26995	0.091
Mof_C 	C 	0.00902	0.3199	0.25861	-0.148
Mof_C 	C 	0.0091	0.35711	0.2957	-0.063
Mof_C 	C 	0.99706	0.34576	0.34562	-0.021
Mof_C 	C 	0.9845	0.296	0.35712	0.022
Mof_C 	C 	0.98389	0.25887	0.31994	-0.059
Mof_H 	H 	0.01833	0.105	0.21494	0.018
Mof_H 	H 	0.97555	0.21453	0.10488	0.032
Mof_H 	H 	0.0194	0.39479	0.28526	0.027
Mof_H 	H 	0.97456	0.28571	0.39494	0.052
Mof_H 	H 	0.97394	0.27878	0.16933	0.054
Mof_H 	H 	0.01981	0.33029	0.2211	0.024
Mof_H 	H 	0.01878	0.16949	0.27911	0.028
Mof_H 	H 	0.97292	0.22145	0.33048	0.06
Mof_C 	C 	0.49581	0.27004	0.76991	0.024
Mof_C 	C 	0.48403	0.25879	0.82004	-0.062
Mof_C 	C 	0.48471	0.29592	0.85722	0.037
Mof_C 	C 	0.49663	0.34581	0.84559	-0.113
Mof_C 	C 	0.50796	0.35726	0.79552	0.035
Mof_C 	C 	0.50782	0.32005	0.75844	-0.066
Mof_C 	C 	0.49582	0.22999	0.73004	0.029
Mof_C 	C 	0.48347	0.24112	0.68002	-0.072
Mof_C 	C 	0.48418	0.20399	0.64284	0.041
Mof_C 	C 	0.49671	0.15423	0.65437	-0.131
Mof_C 	C 	0.50858	0.14288	0.70434	0.039
Mof_C 	C 	0.50842	0.1801	0.74141	-0.073
Mof_H 	H 	0.47535	0.28551	0.89515	0.06
Mof_H 	H 	0.51771	0.39505	0.78495	0.039
Mof_H 	H 	0.47434	0.21428	0.60499	0.036
Mof_H 	H 	0.51881	0.10519	0.71481	0.027
Mof_H 	H 	0.51808	0.33056	0.72081	0.047
Mof_H 	H 	0.47253	0.27854	0.66944	0.048
Mof_H 	H 	0.47357	0.22126	0.83072	0.055
Mof_H 	H 	0.51912	0.16969	0.77895	0.05
Mof_C 	C 	0.99581	0.77004	0.76991	0.095
Mof_C 	C 	0.98403	0.75879	0.82004	-0.049
Mof_C 	C 	0.98471	0.79592	0.85722	0.024
Mof_C 	C 	0.99663	0.84581	0.84559	-0.006
Mof_C 	C 	0.00796	0.85726	0.79552	-0.058
Mof_C 	C 	0.00782	0.82005	0.75844	-0.136
Mof_C 	C 	0.99582	0.72999	0.73004	0.1
Mof_C 	C 	0.98347	0.74112	0.68002	-0.058
Mof_C 	C 	0.98418	0.70399	0.64284	0.027
Mof_C 	C 	0.99671	0.65423	0.65437	-0.022
Mof_C 	C 	0.00858	0.64288	0.70434	-0.056
Mof_C 	C 	0.00842	0.6801	0.74141	-0.143
Mof_H 	H 	0.97535	0.78551	0.89515	0.08
Mof_H 	H 	0.01771	0.89505	0.78495	0.048
Mof_H 	H 	0.97434	0.71428	0.60499	0.056
Mof_H 	H 	0.01881	0.60519	0.71481	0.036
Mof_H 	H 	0.01807	0.83056	0.72081	0.041
Mof_H 	H 	0.97253	0.77854	0.66944	0.07
Mof_H 	H 	0.97357	0.72126	0.83072	0.077
Mof_H 	H 	0.01912	0.66969	0.77895	0.045
Mof_C 	C 	0.49633	0.72999	0.23007	0.026
Mof_C 	C 	0.50842	0.67999	0.2415	-0.074
Mof_C 	C 	0.50849	0.64278	0.20442	0.039
Mof_C 	C 	0.49698	0.65424	0.15438	-0.137
Mof_C 	C 	0.48502	0.70413	0.14279	0.038
Mof_C 	C 	0.48444	0.74125	0.17997	-0.078
Mof_C 	C 	0.49635	0.77001	0.26995	0.022
Mof_C 	C 	0.50902	0.8199	0.25861	-0.067
Mof_C 	C 	0.5091	0.85711	0.2957	0.036
Mof_C 	C 	0.49706	0.84576	0.34562	-0.12
Mof_C 	C 	0.4845	0.796	0.35712	0.036
Mof_C 	C 	0.48389	0.75887	0.31994	-0.068
Mof_H 	H 	0.51833	0.605	0.21494	0.033
Mof_H 	H 	0.47555	0.71453	0.10488	0.017
Mof_H 	H 	0.5194	0.89479	0.28526	0.043
Mof_H 	H 	0.47456	0.78571	0.39494	0.038
Mof_H 	H 	0.47394	0.77878	0.16933	0.04
Mof_H 	H 	0.51981	0.83029	0.2211	0.043
Mof_H 	H 	0.51878	0.66949	0.27911	0.047
Mof_H 	H 	0.47292	0.72145	0.33048	0.046
Mof_C 	C 	0.00367	0.77002	0.23007	-0.044
Mof_C 	C 	0.01557	0.75876	0.17997	-0.087
Mof_C 	C 	0.01499	0.79589	0.14279	0.049
Mof_C 	C 	0.00303	0.84578	0.15438	-0.231
Mof_C 	C 	0.99152	0.85723	0.20442	0.133
Mof_C 	C 	0.99158	0.82003	0.2415	0.005
Mof_C 	C 	0.00366	0.73	0.26995	-0.045
Mof_C 	C 	0.01612	0.74114	0.31994	-0.081
Mof_C 	C 	0.01551	0.70402	0.35712	0.053
Mof_C 	C 	0.00295	0.65426	0.34562	-0.228
Mof_C 	C 	0.9909	0.64291	0.2957	0.131
Mof_C 	C 	0.99099	0.68012	0.25861	0.003
Mof_H 	H 	0.02446	0.78549	0.10488	-0.001
Mof_H 	H 	0.98168	0.89501	0.21494	0.049
Mof_H 	H 	0.02545	0.71431	0.39494	0.023
Mof_H 	H 	0.98061	0.60523	0.28526	0.035
Mof_H 	H 	0.98123	0.83053	0.27911	0.064
Mof_H 	H 	0.02709	0.77856	0.33048	0.034
Mof_H 	H 	0.02607	0.72124	0.16933	0.018
Mof_H 	H 	0.9802	0.66972	0.2211	0.05
Mof_C 	C 	0.5042	0.72998	0.76991	0.027
Mof_C 	C 	0.49219	0.67997	0.75844	-0.066
Mof_C 	C 	0.49205	0.64275	0.79552	0.036
Mof_C 	C 	0.50338	0.65421	0.84559	-0.113
Mof_C 	C 	0.5153	0.7041	0.85722	0.04
Mof_C 	C 	0.51597	0.74123	0.82004	-0.061
Mof_C 	C 	0.50419	0.77002	0.73004	0.029
Mof_C 	C 	0.49159	0.81992	0.74141	-0.065
Mof_C 	C 	0.49143	0.85713	0.70434	0.04
Mof_C 	C 	0.5033	0.84579	0.65437	-0.119
Mof_C 	C 	0.51583	0.79603	0.64284	0.038
Mof_C 	C 	0.51654	0.7589	0.68002	-0.068
Mof_H 	H 	0.4823	0.60497	0.78495	0.039
Mof_H 	H 	0.52466	0.71451	0.89515	0.065
Mof_H 	H 	0.4812	0.89482	0.71481	0.054
Mof_H 	H 	0.52567	0.78573	0.60499	0.038
Mof_H 	H 	0.52644	0.77876	0.83072	0.063
Mof_H 	H 	0.48089	0.83033	0.77895	0.062
Mof_H 	H 	0.48193	0.66945	0.72081	0.047
Mof_H 	H 	0.52748	0.72148	0.66944	0.048
Mof_C 	C 	0.50367	0.27002	0.23007	0.022
Mof_C 	C 	0.51557	0.25876	0.17997	-0.079
Mof_C 	C 	0.51499	0.29589	0.14279	0.035
Mof_C 	C 	0.50303	0.34578	0.15438	-0.138
Mof_C 	C 	0.49152	0.35723	0.20442	0.037
Mof_C 	C 	0.49158	0.32003	0.2415	-0.075
Mof_C 	C 	0.50366	0.23	0.26995	0.021
Mof_C 	C 	0.51612	0.24114	0.31994	-0.072
Mof_C 	C 	0.51551	0.20402	0.35712	0.038
Mof_C 	C 	0.50295	0.15426	0.34562	-0.132
Mof_C 	C 	0.4909	0.14291	0.2957	0.033
Mof_C 	C 	0.49099	0.18012	0.25861	-0.076
Mof_H 	H 	0.52446	0.28549	0.10488	0.013
Mof_H 	H 	0.48168	0.39501	0.21494	0.033
Mof_H 	H 	0.52545	0.21431	0.39494	0.036
Mof_H 	H 	0.48061	0.10523	0.28526	0.019
Mof_H 	H 	0.48123	0.33053	0.27911	0.045
Mof_H 	H 	0.52709	0.27856	0.33048	0.046
Mof_H 	H 	0.52607	0.22124	0.16933	0.031
Mof_H 	H 	0.4802	0.16972	0.2211	0.031
Mof_C 	C 	0.0042	0.22998	0.76991	-0.045
Mof_C 	C 	0.99219	0.17997	0.75844	0.007
Mof_C 	C 	0.99205	0.14275	0.79552	0.132
Mof_C 	C 	0.00338	0.15421	0.84559	-0.223
Mof_C 	C 	0.0153	0.2041	0.85722	0.054
Mof_C 	C 	0.01597	0.24123	0.82004	-0.075
Mof_C 	C 	0.00419	0.27002	0.73004	-0.043
Mof_C 	C 	0.99159	0.31992	0.74141	0.008
Mof_C 	C 	0.99143	0.35713	0.70434	0.136
Mof_C 	C 	0.0033	0.34579	0.65437	-0.229
Mof_C 	C 	0.01583	0.29603	0.64284	0.052
Mof_C 	C 	0.01654	0.2589	0.68002	-0.082
Mof_H 	H 	0.9823	0.10497	0.78495	0.03
Mof_H 	H 	0.02466	0.21451	0.89515	0.045
Mof_H 	H 	0.9812	0.39482	0.71481	0.045
Mof_H 	H 	0.02567	0.28573	0.60499	0.019
Mof_H 	H 	0.02644	0.27876	0.83072	0.041
Mof_H 	H 	0.98089	0.33033	0.77895	0.068
Mof_H 	H 	0.98193	0.16945	0.72081	0.054
Mof_H 	H 	0.02748	0.22148	0.66944	0.026
Mof_C 	C 	0.23	0.99599	0.23004	0.095
Mof_C 	C 	0.24112	0.98353	0.18005	-0.068
Mof_C 	C 	0.20399	0.98415	0.14288	0.022
Mof_C 	C 	0.15423	0.99674	0.15438	-0.038
Mof_C 	C 	0.1429	0.00879	0.20431	-0.061
Mof_C 	C 	0.18012	0.00868	0.24139	-0.154
Mof_C 	C 	0.27003	0.99598	0.2699	0.091
Mof_C 	C 	0.25879	0.98407	0.32	-0.059
Mof_C 	C 	0.29592	0.98467	0.35717	0.022
Mof_C 	C 	0.3458	0.99666	0.34557	-0.021
Mof_C 	C 	0.35724	0.00818	0.29553	-0.063
Mof_C 	C 	0.32002	0.0081	0.25845	-0.148
Mof_H 	H 	0.21426	0.97421	0.10505	0.034
Mof_H 	H 	0.10523	0.01911	0.21475	0.018
Mof_H 	H 	0.28553	0.97519	0.39508	0.053
Mof_H 	H 	0.39501	0.01804	0.285	0.027
Mof_H 	H 	0.16974	0.01948	0.2789	0.028
Mof_H 	H 	0.22127	0.97355	0.33064	0.061
Mof_H 	H 	0.27853	0.97254	0.1695	0.054
Mof_H 	H 	0.33051	0.01846	0.22085	0.023
Mof_C 	C 	0.26993	0.49632	0.77	0.024
Mof_C 	C 	0.32008	0.48466	0.75873	-0.066
Mof_C 	C 	0.35724	0.48527	0.79587	0.035
Mof_C 	C 	0.34559	0.49704	0.8458	-0.113
Mof_C 	C 	0.2955	0.50828	0.85727	0.036
Mof_C 	C 	0.25843	0.5082	0.82004	-0.062
Mof_C 	C 	0.23006	0.49632	0.72996	0.028
Mof_C 	C 	0.18007	0.48382	0.74107	-0.073
Mof_C 	C 	0.1429	0.48441	0.70393	0.04
Mof_C 	C 	0.15439	0.49697	0.65417	-0.131
Mof_C 	C 	0.20431	0.50908	0.64285	0.039
Mof_C 	C 	0.24138	0.50903	0.68008	-0.072
Mof_H 	H 	0.39519	0.47599	0.78545	0.04
Mof_H 	H 	0.28491	0.51791	0.89508	0.062
Mof_H 	H 	0.10508	0.47446	0.71422	0.031
Mof_H 	H 	0.21475	0.5194	0.60517	0.034
Mof_H 	H 	0.22078	0.51837	0.83058	0.055
Mof_H 	H 	0.16952	0.47282	0.77847	0.05
Mof_H 	H 	0.33078	0.47431	0.72118	0.047
Mof_H 	H 	0.27888	0.51987	0.66969	0.048
Mof_C 	C 	0.76993	0.99632	0.77	0.095
Mof_C 	C 	0.82008	0.98466	0.75873	-0.051
Mof_C 	C 	0.85724	0.98527	0.79587	0.023
Mof_C 	C 	0.84559	0.99704	0.8458	-0.006
Mof_C 	C 	0.7955	0.00828	0.85727	-0.057
Mof_C 	C 	0.75843	0.0082	0.82004	-0.134
Mof_C 	C 	0.73006	0.99632	0.72996	0.1
Mof_C 	C 	0.68007	0.98382	0.74107	-0.057
Mof_C 	C 	0.6429	0.98441	0.70393	0.027
Mof_C 	C 	0.65439	0.99697	0.65417	-0.021
Mof_C 	C 	0.70431	0.00908	0.64285	-0.056
Mof_C 	C 	0.74138	0.00903	0.68008	-0.143
Mof_H 	H 	0.89519	0.97599	0.78545	0.069
Mof_H 	H 	0.78491	0.01791	0.89508	0.061
Mof_H 	H 	0.60508	0.97446	0.71422	0.06
Mof_H 	H 	0.71475	0.0194	0.60517	0.035
Mof_H 	H 	0.72078	0.01837	0.83058	0.047
Mof_H 	H 	0.66952	0.97282	0.77847	0.074
Mof_H 	H 	0.83078	0.97431	0.72118	0.071
Mof_H 	H 	0.77888	0.01987	0.66969	0.041
Mof_C 	C 	0.73	0.49599	0.23004	0.026
Mof_C 	C 	0.74112	0.48353	0.18005	-0.077
Mof_C 	C 	0.70399	0.48415	0.14288	0.036
Mof_C 	C 	0.65423	0.49674	0.15438	-0.137
Mof_C 	C 	0.6429	0.50879	0.20431	0.038
Mof_C 	C 	0.68012	0.50868	0.24139	-0.074
Mof_C 	C 	0.77003	0.49598	0.2699	0.022
Mof_C 	C 	0.75879	0.48407	0.32	-0.068
Mof_C 	C 	0.79592	0.48467	0.35717	0.036
Mof_C 	C 	0.8458	0.49666	0.34557	-0.12
Mof_C 	C 	0.85724	0.50818	0.29553	0.035
Mof_C 	C 	0.82002	0.5081	0.25845	-0.067
Mof_H 	H 	0.71426	0.47421	0.10505	0.021
Mof_H 	H 	0.60523	0.51911	0.21475	0.033
Mof_H 	H 	0.78553	0.47519	0.39508	0.039
Mof_H 	H 	0.89501	0.51804	0.285	0.043
Mof_H 	H 	0.66974	0.51948	0.2789	0.047
Mof_H 	H 	0.72127	0.47355	0.33064	0.047
Mof_H 	H 	0.77853	0.47254	0.1695	0.041
Mof_H 	H 	0.83051	0.51846	0.22085	0.042
Mof_C 	C 	0.23008	0.00369	0.77	-0.046
Mof_C 	C 	0.17993	0.01536	0.75873	-0.082
Mof_C 	C 	0.14277	0.01475	0.79587	0.048
Mof_C 	C 	0.15442	0.00298	0.8458	-0.223
Mof_C 	C 	0.20451	0.99174	0.85727	0.135
Mof_C 	C 	0.24158	0.99182	0.82004	0.013
Mof_C 	C 	0.26995	0.0037	0.72996	-0.044
Mof_C 	C 	0.31994	0.0162	0.74107	-0.081
Mof_C 	C 	0.35711	0.01561	0.70393	0.054
Mof_C 	C 	0.34562	0.00305	0.65417	-0.23
Mof_C 	C 	0.2957	0.99094	0.64285	0.134
Mof_C 	C 	0.25863	0.99099	0.68008	0.006
Mof_H 	H 	0.10482	0.02403	0.78545	0.011
Mof_H 	H 	0.2151	0.9821	0.89508	0.067
Mof_H 	H 	0.39493	0.02556	0.71422	0.026
Mof_H 	H 	0.28526	0.98062	0.60517	0.037
Mof_H 	H 	0.27923	0.98165	0.83058	0.071
Mof_H 	H 	0.33049	0.0272	0.77847	0.038
Mof_H 	H 	0.16923	0.02571	0.72118	0.023
Mof_H 	H 	0.22113	0.98014	0.66969	0.055
Mof_C 	C 	0.27001	0.50402	0.23004	0.022
Mof_C 	C 	0.25889	0.51649	0.18005	-0.078
Mof_C 	C 	0.29602	0.51587	0.14288	0.033
Mof_C 	C 	0.34578	0.50328	0.15438	-0.138
Mof_C 	C 	0.3571	0.49123	0.20431	0.037
Mof_C 	C 	0.31989	0.49133	0.24139	-0.075
Mof_C 	C 	0.22998	0.50404	0.2699	0.021
Mof_C 	C 	0.24122	0.51594	0.32	-0.072
Mof_C 	C 	0.20409	0.51535	0.35717	0.037
Mof_C 	C 	0.15421	0.50336	0.34557	-0.132
Mof_C 	C 	0.14277	0.49184	0.29553	0.033
Mof_C 	C 	0.17999	0.49192	0.25845	-0.076
Mof_H 	H 	0.28575	0.52581	0.10505	0.017
Mof_H 	H 	0.39478	0.48091	0.21475	0.033
Mof_H 	H 	0.21448	0.52483	0.39508	0.038
Mof_H 	H 	0.105	0.48197	0.285	0.019
Mof_H 	H 	0.33027	0.48054	0.2789	0.045
Mof_H 	H 	0.27874	0.52646	0.33064	0.047
Mof_H 	H 	0.22147	0.52747	0.1695	0.032
Mof_H 	H 	0.1695	0.48156	0.22085	0.03
Mof_C 	C 	0.77001	0.00402	0.23004	-0.044
Mof_C 	C 	0.75889	0.01649	0.18005	-0.086
Mof_C 	C 	0.79602	0.01587	0.14288	0.047
Mof_C 	C 	0.84578	0.00328	0.15438	-0.231
Mof_C 	C 	0.8571	0.99123	0.20431	0.132
Mof_C 	C 	0.81989	0.99133	0.24139	0.005
Mof_C 	C 	0.72998	0.00404	0.2699	-0.046
Mof_C 	C 	0.74122	0.01594	0.32	-0.081
Mof_C 	C 	0.70409	0.01535	0.35717	0.052
Mof_C 	C 	0.65421	0.00336	0.34557	-0.228
Mof_C 	C 	0.64277	0.99184	0.29553	0.131
Mof_C 	C 	0.67999	0.99192	0.25845	0.003
Mof_H 	H 	0.78575	0.02581	0.10505	0.005
Mof_H 	H 	0.89478	0.98091	0.21475	0.049
Mof_H 	H 	0.71448	0.02483	0.39508	0.025
Mof_H 	H 	0.605	0.98197	0.285	0.036
Mof_H 	H 	0.83027	0.98054	0.2789	0.064
Mof_H 	H 	0.77874	0.02646	0.33064	0.034
Mof_H 	H 	0.72147	0.02747	0.1695	0.019
Mof_H 	H 	0.6695	0.98156	0.22085	0.05
Mof_C 	C 	0.73008	0.50369	0.77	0.027
Mof_C 	C 	0.67993	0.51536	0.75873	-0.066
Mof_C 	C 	0.64277	0.51475	0.79587	0.036
Mof_C 	C 	0.65442	0.50298	0.8458	-0.113
Mof_C 	C 	0.70451	0.49174	0.85727	0.039
Mof_C 	C 	0.74158	0.49182	0.82004	-0.061
Mof_C 	C 	0.76995	0.5037	0.72996	0.029
Mof_C 	C 	0.81994	0.5162	0.74107	-0.065
Mof_C 	C 	0.85711	0.51561	0.70393	0.041
Mof_C 	C 	0.84562	0.50305	0.65417	-0.119
Mof_C 	C 	0.7957	0.49094	0.64285	0.038
Mof_C 	C 	0.75863	0.49099	0.68008	-0.068
Mof_H 	H 	0.60482	0.52403	0.78545	0.04
Mof_H 	H 	0.7151	0.4821	0.89508	0.066
Mof_H 	H 	0.89493	0.52556	0.71422	0.055
Mof_H 	H 	0.78526	0.48062	0.60517	0.037
Mof_H 	H 	0.77923	0.48165	0.83058	0.064
Mof_H 	H 	0.83049	0.5272	0.77847	0.062
Mof_H 	H 	0.66923	0.52571	0.72118	0.048
Mof_H 	H 	0.72113	0.48014	0.66969	0.048
_end
