data_functionalizedCrystal
_audit_creation_method	'EQeq! by Chris Wilmer'
_symmetry_space_group_name_H-M	'P1'
_symmetry_Int_Tables_number	1
_symmetry_cell_setting	triclinic
loop_
_symmetry_equiv_pos_as_xyz
  x,y,z
_cell_length_a	10.3144
_cell_length_b	16.81
_cell_length_c	44.985
_cell_angle_alpha	90
_cell_angle_beta	101.869
_cell_angle_gamma	90
loop_
_atom_site_label
_atom_site_type_symbol
_atom_site_fract_x
_atom_site_fract_y
_atom_site_fract_z
_atom_site_charge
Mof_Mn	Mn	0.10432	0.00427	0.81165	0.923
Mof_Mn	Mn	0.29609	0.0916	0.75759	0.757
Mof_C 	C 	0.7481	0.0945	0.00149	0.092
Mof_C 	C 	0.6611	0.1512	0.98461	-0.082
Mof_H 	H 	0.5872	0.1735	0.9903	0.059
Mof_C 	C 	0.7037	0.1669	0.9593	-0.081
Mof_H 	H 	0.6652	0.2017	0.9439	0.06
Mof_C 	C 	0.8228	0.1189	0.96021	0.098
Mof_C 	C 	0.8913	0.1151	0.93681	-0.103
Mof_C 	C 	0.9999	0.0665	0.93743	0.124
Mof_C 	C 	0.0681	0.0576	0.91247	-0.079
Mof_H 	H 	0.0448	0.0813	0.8934	0.058
Mof_C 	C 	0.17	0.0093	0.92189	-0.127
Mof_H 	H 	0.2333	0.9951	0.9108	0.092
Mof_C 	C 	0.1661	0.9828	0.95174	0.135
Mof_C 	C 	0.2567	0.9352	0.96919	-0.107
Mof_C 	C 	0.3777	0.9102	0.95628	-0.004
Mof_C 	C 	0.4716	0.9671	0.95527	0.027
Mof_H 	H 	0.4649	0.0156	0.9648	0.017
Mof_C 	C 	0.5772	0.9557	0.94051	-0.194
Mof_H 	H 	0.6406	0.9949	0.9401	0.108
Mof_C 	C 	0.5815	0.8829	0.92661	0.224
Mof_C 	C 	0.4944	0.8237	0.92829	-0.186
Mof_H 	H 	0.503	0.774	0.9198	0.106
Mof_C 	C 	0.3885	0.8403	0.94357	0.005
Mof_H 	H 	0.326	0.801	0.9446	0.032
Mof_C 	C 	0.6646	0.9142	0.88272	0.207
Mof_C 	C 	0.5446	0.9396	0.86688	-0.153
Mof_H 	H 	0.4691	0.9296	0.8746	0.103
Mof_C 	C 	0.5328	0.9791	0.84009	-0.023
Mof_C 	C 	0.6482	0.9943	0.82893	-0.031
Mof_H 	H 	0.6432	0.0231	0.8111	0.05
Mof_C 	C 	0.7698	0.9661	0.84467	-0.009
Mof_C 	C 	0.7765	0.9276	0.8713	-0.153
Mof_H 	H 	0.8581	0.91	0.8821	0.114
Mof_C 	C 	0.8924	0.9838	0.83118	0.333
Mof_C 	C 	0.4009	0.009	0.8227	0.354
Mof_C 	C 	0.852	0.1697	0.90998	0.005
Mof_C 	C 	0.7512	0.1498	0.88617	0.02
Mof_H 	H 	0.7031	0.1035	0.8873	0.028
Mof_C 	C 	0.7202	0.1955	0.8612	-0.195
Mof_H 	H 	0.6505	0.1804	0.8456	0.106
Mof_C 	C 	0.7883	0.2634	0.8581	0.225
Mof_C 	C 	0.8872	0.2863	0.8817	-0.173
Mof_H 	H 	0.9331	0.3333	0.8802	0.106
Mof_C 	C 	0.9215	0.239	0.9088	-0.001
Mof_H 	H 	0.9882	0.2547	0.9249	0.038
Mof_C 	C 	0.8442	0.3064	0.81214	0.185
Mof_C 	C 	0.8295	0.3677	0.79095	-0.11
Mof_H 	H 	0.7738	0.4103	0.7926	0.08
Mof_C 	C 	0.8961	0.3656	0.76783	-0.06
Mof_C 	C 	0.9815	0.3034	0.76643	0.01
Mof_H 	H 	0.0276	0.3009	0.7507	0.036
Mof_C 	C 	0.9986	0.2449	0.78837	-0.022
Mof_C 	C 	0.9317	0.2459	0.8115	-0.144
Mof_H 	H 	0.9452	0.2066	0.8264	0.103
Mof_C 	C 	0.0883	0.1717	0.78672	0.348
Mof_C 	C 	0.8799	0.43	0.7436	0.388
Mof_N 	N 	0.8483	0.0767	0.98655	-0.216
Mof_N 	N 	0.0602	0.0174	0.96078	-0.245
Mof_O 	O 	0.0023	0.9622	0.84625	-0.355
Mof_O 	O 	0.8795	0.0138	0.80642	-0.339
Mof_O 	O 	0.399	0.0517	0.80038	-0.402
Mof_O 	O 	0.3027	0.9862	0.83245	-0.374
Mof_O 	O 	0.147	0.1701	0.76454	-0.39
Mof_O 	O 	0.1063	0.126	0.80851	-0.409
Mof_O 	O 	0.9227	0.4143	0.72054	-0.395
Mof_O 	O 	0.8215	0.4908	0.7488	-0.424
Mof_O 	O 	0.6795	0.8699	0.90951	-0.271
Mof_O 	O 	0.7688	0.3182	0.83436	-0.271
Mof_Mn	Mn	0.89568	0.50427	0.68835	0.966
Mof_Mn	Mn	0.70391	0.5916	0.74241	0.774
Mof_C 	C 	0.2519	0.5945	0.49851	0.095
Mof_C 	C 	0.3389	0.6512	0.51539	-0.087
Mof_H 	H 	0.4128	0.6735	0.5097	0.063
Mof_C 	C 	0.2963	0.6669	0.5407	-0.071
Mof_H 	H 	0.3348	0.7017	0.5561	0.059
Mof_C 	C 	0.1772	0.6189	0.53979	0.084
Mof_C 	C 	0.1087	0.6151	0.56319	-0.078
Mof_C 	C 	0.0001	0.5665	0.56257	0.053
Mof_C 	C 	0.9319	0.5576	0.58753	-0.027
Mof_H 	H 	0.9552	0.5813	0.6066	0.056
Mof_C 	C 	0.83	0.5093	0.57811	-0.104
Mof_H 	H 	0.7667	0.4951	0.5892	0.078
Mof_C 	C 	0.8339	0.4828	0.54826	0.115
Mof_C 	C 	0.7433	0.4352	0.53081	-0.102
Mof_C 	C 	0.6223	0.4102	0.54372	0.007
Mof_C 	C 	0.5284	0.4671	0.54473	-0.002
Mof_H 	H 	0.5351	0.5156	0.5352	0.035
Mof_C 	C 	0.4228	0.4557	0.55949	-0.178
Mof_H 	H 	0.3594	0.4949	0.5599	0.098
Mof_C 	C 	0.4185	0.3829	0.57339	0.213
Mof_C 	C 	0.5056	0.3237	0.57171	-0.177
Mof_H 	H 	0.497	0.274	0.5802	0.102
Mof_C 	C 	0.6115	0.3403	0.55643	-0.006
Mof_H 	H 	0.674	0.301	0.5554	0.037
Mof_C 	C 	0.3354	0.4142	0.61728	0.207
Mof_C 	C 	0.4554	0.4396	0.63312	-0.152
Mof_H 	H 	0.5309	0.4296	0.6254	0.102
Mof_C 	C 	0.4672	0.4791	0.65991	-0.031
Mof_C 	C 	0.3518	0.4943	0.67107	-0.054
Mof_H 	H 	0.3568	0.5231	0.6889	0.062
Mof_C 	C 	0.2302	0.4661	0.65533	0.005
Mof_C 	C 	0.2235	0.4276	0.6287	-0.165
Mof_H 	H 	0.1419	0.41	0.6179	0.107
Mof_C 	C 	0.1076	0.4838	0.66882	0.28
Mof_C 	C 	0.5991	0.509	0.6773	0.38
Mof_C 	C 	0.148	0.6697	0.59002	-0.014
Mof_C 	C 	0.2488	0.6498	0.61383	0.033
Mof_H 	H 	0.2969	0.6035	0.6127	0.026
Mof_C 	C 	0.2798	0.6955	0.6388	-0.205
Mof_H 	H 	0.3495	0.6804	0.6544	0.111
Mof_C 	C 	0.2117	0.7634	0.6419	0.232
Mof_C 	C 	0.1128	0.7863	0.6183	-0.183
Mof_H 	H 	0.0669	0.8333	0.6198	0.105
Mof_C 	C 	0.0785	0.739	0.5912	0.008
Mof_H 	H 	0.0118	0.7547	0.5751	0.027
Mof_C 	C 	0.1558	0.8064	0.68786	0.193
Mof_C 	C 	0.1705	0.8677	0.70905	-0.129
Mof_H 	H 	0.2262	0.9103	0.7074	0.087
Mof_C 	C 	0.1039	0.8656	0.73217	-0.031
Mof_C 	C 	0.0185	0.8034	0.73357	-0.061
Mof_H 	H 	0.9724	0.8009	0.7493	0.086
Mof_C 	C 	0.0014	0.7449	0.71163	-0.029
Mof_C 	C 	0.0683	0.7459	0.6885	-0.15
Mof_H 	H 	0.0548	0.7066	0.6736	0.096
Mof_C 	C 	0.9117	0.6717	0.71328	0.374
Mof_C 	C 	0.1201	0.93	0.7564	0.373
Mof_N 	N 	0.1517	0.5767	0.51345	-0.221
Mof_N 	N 	0.9398	0.5174	0.53922	-0.208
Mof_O 	O 	0.9977	0.4622	0.65375	-0.327
Mof_O 	O 	0.1205	0.5138	0.69358	-0.337
Mof_O 	O 	0.601	0.5517	0.69962	-0.408
Mof_O 	O 	0.6973	0.4862	0.66755	-0.395
Mof_O 	O 	0.853	0.6701	0.73546	-0.388
Mof_O 	O 	0.8937	0.626	0.69149	-0.407
Mof_O 	O 	0.0773	0.9143	0.77946	-0.392
Mof_O 	O 	0.1785	0.9908	0.7512	-0.412
Mof_O 	O 	0.3205	0.3699	0.59049	-0.275
Mof_O 	O 	0.2312	0.8182	0.66564	-0.273
Mof_Mn	Mn	0.89568	0.99573	0.18835	0.969
Mof_Mn	Mn	0.70391	0.9084	0.24241	0.777
Mof_C 	C 	0.2519	0.9055	0.99851	0.104
Mof_C 	C 	0.3389	0.8488	0.01539	-0.092
Mof_H 	H 	0.4128	0.8265	0.0097	0.065
Mof_C 	C 	0.2963	0.8331	0.0407	-0.069
Mof_H 	H 	0.3348	0.7983	0.0561	0.058
Mof_C 	C 	0.1772	0.8811	0.03979	0.086
Mof_C 	C 	0.1087	0.8849	0.06319	-0.081
Mof_C 	C 	0.0001	0.9335	0.06257	0.065
Mof_C 	C 	0.9319	0.9424	0.08753	-0.045
Mof_H 	H 	0.9552	0.9187	0.1066	0.063
Mof_C 	C 	0.83	0.9907	0.07811	-0.077
Mof_H 	H 	0.7667	0.0049	0.0892	0.066
Mof_C 	C 	0.8339	0.0172	0.04826	0.1
Mof_C 	C 	0.7433	0.0648	0.03081	-0.099
Mof_C 	C 	0.6223	0.0898	0.04372	0.015
Mof_C 	C 	0.5284	0.0329	0.04473	-0.024
Mof_H 	H 	0.5351	0.9844	0.0352	0.047
Mof_C 	C 	0.4228	0.0443	0.05949	-0.166
Mof_H 	H 	0.3594	0.0051	0.0599	0.09
Mof_C 	C 	0.4185	0.1171	0.07339	0.206
Mof_C 	C 	0.5056	0.1763	0.07171	-0.17
Mof_H 	H 	0.497	0.226	0.0802	0.1
Mof_C 	C 	0.6115	0.1597	0.05643	-0.012
Mof_H 	H 	0.674	0.199	0.0554	0.04
Mof_C 	C 	0.3354	0.0858	0.11728	0.209
Mof_C 	C 	0.4554	0.0604	0.13312	-0.153
Mof_H 	H 	0.5309	0.0704	0.1254	0.103
Mof_C 	C 	0.4672	0.0209	0.15991	-0.031
Mof_C 	C 	0.3518	0.0057	0.17107	-0.069
Mof_H 	H 	0.3568	0.9769	0.1889	0.071
Mof_C 	C 	0.2302	0.0339	0.15533	0.014
Mof_C 	C 	0.2235	0.0724	0.1287	-0.171
Mof_H 	H 	0.1419	0.09	0.1179	0.108
Mof_C 	C 	0.1076	0.0162	0.16882	0.263
Mof_C 	C 	0.5991	0.991	0.1773	0.389
Mof_C 	C 	0.148	0.8303	0.09002	-0.01
Mof_C 	C 	0.2488	0.8502	0.11383	0.03
Mof_H 	H 	0.2969	0.8965	0.1127	0.029
Mof_C 	C 	0.2798	0.8045	0.1388	-0.202
Mof_H 	H 	0.3495	0.8196	0.1544	0.11
Mof_C 	C 	0.2117	0.7366	0.1419	0.23
Mof_C 	C 	0.1128	0.7137	0.1183	-0.182
Mof_H 	H 	0.0669	0.6667	0.1198	0.103
Mof_C 	C 	0.0785	0.761	0.0912	0.006
Mof_H 	H 	0.0118	0.7453	0.0751	0.027
Mof_C 	C 	0.1558	0.6936	0.18786	0.193
Mof_C 	C 	0.1705	0.6323	0.20905	-0.129
Mof_H 	H 	0.2262	0.5897	0.2074	0.085
Mof_C 	C 	0.1039	0.6344	0.23217	-0.034
Mof_C 	C 	0.0185	0.6966	0.23357	-0.062
Mof_H 	H 	0.9724	0.6991	0.2493	0.086
Mof_C 	C 	0.0014	0.7551	0.21163	-0.028
Mof_C 	C 	0.0683	0.7541	0.1885	-0.15
Mof_H 	H 	0.0548	0.7934	0.1736	0.097
Mof_C 	C 	0.9117	0.8283	0.21328	0.374
Mof_C 	C 	0.1201	0.57	0.2564	0.375
Mof_N 	N 	0.1517	0.9233	0.01345	-0.219
Mof_N 	N 	0.9398	0.9826	0.03922	-0.204
Mof_O 	O 	0.9977	0.0378	0.15375	-0.322
Mof_O 	O 	0.1205	0.9862	0.19358	-0.326
Mof_O 	O 	0.601	0.9483	0.19962	-0.41
Mof_O 	O 	0.6973	0.0138	0.16755	-0.4
Mof_O 	O 	0.853	0.8299	0.23546	-0.389
Mof_O 	O 	0.8937	0.874	0.19149	-0.407
Mof_O 	O 	0.0773	0.5857	0.27946	-0.4
Mof_O 	O 	0.1785	0.5092	0.2512	-0.423
Mof_O 	O 	0.3205	0.1301	0.09049	-0.274
Mof_O 	O 	0.2312	0.6818	0.16564	-0.274
Mof_Mn	Mn	0.10432	0.49573	0.31165	0.949
Mof_Mn	Mn	0.29609	0.4084	0.25759	0.769
Mof_C 	C 	0.7481	0.4055	0.50149	0.098
Mof_C 	C 	0.6611	0.3488	0.48461	-0.083
Mof_H 	H 	0.5872	0.3265	0.4903	0.06
Mof_C 	C 	0.7037	0.3331	0.4593	-0.079
Mof_H 	H 	0.6652	0.2983	0.4439	0.061
Mof_C 	C 	0.8228	0.3811	0.46021	0.099
Mof_C 	C 	0.8913	0.3849	0.43681	-0.106
Mof_C 	C 	0.9999	0.4335	0.43743	0.13
Mof_C 	C 	0.0681	0.4424	0.41247	-0.106
Mof_H 	H 	0.0448	0.4187	0.3934	0.071
Mof_C 	C 	0.17	0.4907	0.42189	-0.067
Mof_H 	H 	0.2333	0.5049	0.4108	0.063
Mof_C 	C 	0.1661	0.5172	0.45174	0.097
Mof_C 	C 	0.2567	0.5648	0.46919	-0.097
Mof_C 	C 	0.3777	0.5898	0.45628	0.002
Mof_C 	C 	0.4716	0.5329	0.45527	0.002
Mof_H 	H 	0.4649	0.4844	0.4648	0.032
Mof_C 	C 	0.5772	0.5443	0.44051	-0.18
Mof_H 	H 	0.6406	0.5051	0.4401	0.099
Mof_C 	C 	0.5815	0.6171	0.42661	0.216
Mof_C 	C 	0.4944	0.6763	0.42829	-0.18
Mof_H 	H 	0.503	0.726	0.4198	0.104
Mof_C 	C 	0.3885	0.6597	0.44357	-0.001
Mof_H 	H 	0.326	0.699	0.4446	0.034
Mof_C 	C 	0.6646	0.5858	0.38272	0.205
Mof_C 	C 	0.5446	0.5604	0.36688	-0.148
Mof_H 	H 	0.4691	0.5704	0.3746	0.101
Mof_C 	C 	0.5328	0.5209	0.34009	-0.034
Mof_C 	C 	0.6482	0.5057	0.32893	-0.047
Mof_H 	H 	0.6432	0.4769	0.3111	0.061
Mof_C 	C 	0.7698	0.5339	0.34467	-0.003
Mof_C 	C 	0.7765	0.5724	0.3713	-0.156
Mof_H 	H 	0.8581	0.59	0.3821	0.115
Mof_C 	C 	0.8924	0.5162	0.33118	0.324
Mof_C 	C 	0.4009	0.491	0.3227	0.381
Mof_C 	C 	0.852	0.3303	0.40998	0.008
Mof_C 	C 	0.7512	0.3502	0.38617	0.018
Mof_H 	H 	0.7031	0.3965	0.3873	0.032
Mof_C 	C 	0.7202	0.3045	0.3612	-0.192
Mof_H 	H 	0.6505	0.3196	0.3456	0.106
Mof_C 	C 	0.7883	0.2366	0.3581	0.224
Mof_C 	C 	0.8872	0.2137	0.3817	-0.172
Mof_H 	H 	0.9331	0.1667	0.3802	0.105
Mof_C 	C 	0.9215	0.261	0.4088	-0.003
Mof_H 	H 	0.9882	0.2453	0.4249	0.038
Mof_C 	C 	0.8442	0.1936	0.31214	0.184
Mof_C 	C 	0.8295	0.1323	0.29095	-0.109
Mof_H 	H 	0.7738	0.0897	0.2926	0.079
Mof_C 	C 	0.8961	0.1344	0.26783	-0.062
Mof_C 	C 	0.9815	0.1966	0.26643	0.014
Mof_H 	H 	0.0276	0.1991	0.2507	0.034
Mof_C 	C 	0.9986	0.2551	0.28837	-0.025
Mof_C 	C 	0.9317	0.2541	0.3115	-0.142
Mof_H 	H 	0.9452	0.2934	0.3264	0.102
Mof_C 	C 	0.0883	0.3283	0.28672	0.35
Mof_C 	C 	0.8799	0.07	0.2436	0.39
Mof_N 	N 	0.8483	0.4233	0.48655	-0.219
Mof_N 	N 	0.0602	0.4826	0.46078	-0.236
Mof_O 	O 	0.0023	0.5378	0.34625	-0.362
Mof_O 	O 	0.8795	0.4862	0.30642	-0.332
Mof_O 	O 	0.399	0.4483	0.30038	-0.408
Mof_O 	O 	0.3027	0.5138	0.33245	-0.394
Mof_O 	O 	0.147	0.3299	0.26454	-0.39
Mof_O 	O 	0.1063	0.374	0.30851	-0.411
Mof_O 	O 	0.9227	0.0857	0.22054	-0.396
Mof_O 	O 	0.8215	0.0092	0.2488	-0.426
Mof_O 	O 	0.6795	0.6301	0.40951	-0.27
Mof_O 	O 	0.7688	0.1818	0.33436	-0.271
Mof_Mn	Mn	-0	0	-0	0.704
Mof_Mn	Mn	9.85793e-33	0.5	0.5	0.719
_end
