data_functionalizedCrystal
_audit_creation_method	'EQeq! by Chris Wilmer'
_symmetry_space_group_name_H-M	'P1'
_symmetry_Int_Tables_number	1
_symmetry_cell_setting	triclinic
loop_
_symmetry_equiv_pos_as_xyz
  x,y,z
_cell_length_a	16.1159
_cell_length_b	16.4422
_cell_length_c	16.4422
_cell_angle_alpha	76.103
_cell_angle_beta	60.6542
_cell_angle_gamma	60.6543
loop_
_atom_site_label
_atom_site_type_symbol
_atom_site_fract_x
_atom_site_fract_y
_atom_site_fract_z
_atom_site_charge
Mof_Gd	Gd	0.91548	0.96807	0.37923	1.495
Mof_Gd	Gd	0.35039	0.61337	0.02367	1.632
Mof_Gd	Gd	0.76278	0.53193	0.12077	1.51
Mof_Gd	Gd	0.48743	0.88663	0.47633	1.635
Mof_Gd	Gd	0.29471	0.62077	0.46807	1.511
Mof_Gd	Gd	0.37406	0.97633	0.11337	1.628
Mof_Gd	Gd	0.88355	0.87923	0.03193	1.485
Mof_Gd	Gd	0.96376	0.52367	0.38663	1.629
Mof_Gd	Gd	0.08452	0.03193	0.62077	1.494
Mof_Gd	Gd	0.64961	0.38663	0.97633	1.631
Mof_Gd	Gd	0.23722	0.46807	0.87923	1.509
Mof_Gd	Gd	0.51257	0.11337	0.52367	1.634
Mof_Gd	Gd	0.70529	0.37923	0.53193	1.511
Mof_Gd	Gd	0.62594	0.02367	0.88663	1.628
Mof_Gd	Gd	0.11645	0.12077	0.96807	1.485
Mof_Gd	Gd	0.03624	0.47633	0.61337	1.629
Mof_H 	H 	0.192	0.746	0.26	-0.025
Mof_H 	H 	0.017	0.722	0.394	-0.047
Mof_H 	H 	0.698	0.754	0.24	-0.025
Mof_H 	H 	0.633	0.778	0.106	-0.051
Mof_H 	H 	0.452	0.74	0.246	-0.025
Mof_H 	H 	0.411	0.606	0.222	-0.051
Mof_H 	H 	0.938	0.76	0.254	-0.026
Mof_H 	H 	0.739	0.894	0.278	-0.051
Mof_H 	H 	0.808	0.254	0.74	-0.025
Mof_H 	H 	0.983	0.278	0.606	-0.047
Mof_H 	H 	0.302	0.246	0.76	-0.025
Mof_H 	H 	0.367	0.222	0.894	-0.051
Mof_H 	H 	0.548	0.26	0.754	-0.025
Mof_H 	H 	0.589	0.394	0.778	-0.051
Mof_H 	H 	0.062	0.24	0.746	-0.026
Mof_H 	H 	0.261	0.106	0.722	-0.051
Mof_C 	C 	0.1533	0.7773	0.2173	0.122
Mof_C 	C 	0.0345	0.8687	0.1711	-0.068
Mof_C 	C 	0.1119	0.7969	0.1055	-0.059
Mof_C 	C 	0.1298	0.7764	0.0154	0.365
Mof_C 	C 	0.9349	0.9477	0.1789	0.361
Mof_C 	C 	0.9464	0.7415	0.4139	0.142
Mof_C 	C 	0.7854	0.8366	0.4422	-0.045
Mof_C 	C 	0.7977	0.7458	0.4502	-0.07
Mof_C 	C 	0.7268	0.7058	0.4676	0.393
Mof_C 	C 	0.6979	0.9308	0.4536	0.349
Mof_C 	C 	0.6479	0.7227	0.2827	0.122
Mof_C 	C 	0.5743	0.6313	0.3289	-0.079
Mof_C 	C 	0.5143	0.7031	0.3945	-0.059
Mof_C 	C 	0.4216	0.7236	0.4846	0.369
Mof_C 	C 	0.5615	0.5523	0.3211	0.381
Mof_C 	C 	0.6018	0.7585	0.0861	0.147
Mof_C 	C 	0.5642	0.6634	0.0578	-0.046
Mof_C 	C 	0.4937	0.7542	0.0498	-0.071
Mof_C 	C 	0.4002	0.7942	0.0324	0.392
Mof_C 	C 	0.5823	0.5692	0.0464	0.348
Mof_C 	C 	0.3706	0.7827	0.2773	0.122
Mof_C 	C 	0.2056	0.8289	0.3687	-0.079
Mof_C 	C 	0.2174	0.8945	0.2969	-0.056
Mof_C 	C 	0.1452	0.9846	0.2764	0.362
Mof_C 	C 	0.1138	0.8211	0.4477	0.381
Mof_C 	C 	0.3603	0.5861	0.2415	0.148
Mof_C 	C 	0.2276	0.5578	0.3366	-0.045
Mof_C 	C 	0.2479	0.5498	0.2458	-0.07
Mof_C 	C 	0.1944	0.5324	0.2058	0.393
Mof_C 	C 	0.1515	0.5464	0.4308	0.349
Mof_C 	C 	0.9306	0.7173	0.2227	0.121
Mof_C 	C 	0.9032	0.6711	0.1313	-0.076
Mof_C 	C 	0.9088	0.6055	0.2031	-0.061
Mof_C 	C 	0.9062	0.5154	0.2236	0.37
Mof_C 	C 	0.8826	0.6789	0.0523	0.368
Mof_C 	C 	0.6879	0.9139	0.2585	0.147
Mof_C 	C 	0.622	0.9422	0.1634	-0.046
Mof_C 	C 	0.5435	0.9502	0.2542	-0.07
Mof_C 	C 	0.4326	0.9676	0.2942	0.392
Mof_C 	C 	0.6287	0.9536	0.0692	0.349
Mof_C 	C 	0.8467	0.2227	0.7827	0.122
Mof_C 	C 	0.9655	0.1313	0.8289	-0.068
Mof_C 	C 	0.8881	0.2031	0.8945	-0.059
Mof_C 	C 	0.8702	0.2236	0.9846	0.365
Mof_C 	C 	0.0651	0.0523	0.8211	0.361
Mof_C 	C 	0.0536	0.2585	0.5861	0.142
Mof_C 	C 	0.2146	0.1634	0.5578	-0.045
Mof_C 	C 	0.2023	0.2542	0.5498	-0.07
Mof_C 	C 	0.2732	0.2942	0.5324	0.393
Mof_C 	C 	0.3021	0.0692	0.5464	0.349
Mof_C 	C 	0.3521	0.2773	0.7173	0.122
Mof_C 	C 	0.4257	0.3687	0.6711	-0.079
Mof_C 	C 	0.4857	0.2969	0.6055	-0.059
Mof_C 	C 	0.5784	0.2764	0.5154	0.369
Mof_C 	C 	0.4385	0.4477	0.6789	0.381
Mof_C 	C 	0.3982	0.2415	0.9139	0.147
Mof_C 	C 	0.4358	0.3366	0.9422	-0.046
Mof_C 	C 	0.5063	0.2458	0.9502	-0.071
Mof_C 	C 	0.5998	0.2058	0.9676	0.392
Mof_C 	C 	0.4177	0.4308	0.9536	0.348
Mof_C 	C 	0.6294	0.2173	0.7227	0.122
Mof_C 	C 	0.7944	0.1711	0.6313	-0.079
Mof_C 	C 	0.7826	0.1055	0.7031	-0.056
Mof_C 	C 	0.8548	0.0154	0.7236	0.362
Mof_C 	C 	0.8862	0.1789	0.5523	0.381
Mof_C 	C 	0.6397	0.4139	0.7585	0.148
Mof_C 	C 	0.7724	0.4422	0.6634	-0.045
Mof_C 	C 	0.7521	0.4502	0.7542	-0.07
Mof_C 	C 	0.8056	0.4676	0.7942	0.393
Mof_C 	C 	0.8485	0.4536	0.5692	0.349
Mof_C 	C 	0.0694	0.2827	0.7773	0.121
Mof_C 	C 	0.0968	0.3289	0.8687	-0.076
Mof_C 	C 	0.0912	0.3945	0.7969	-0.061
Mof_C 	C 	0.0938	0.4846	0.7764	0.37
Mof_C 	C 	0.1174	0.3211	0.9477	0.368
Mof_C 	C 	0.3121	0.0861	0.7415	0.147
Mof_C 	C 	0.378	0.0578	0.8366	-0.046
Mof_C 	C 	0.4565	0.0498	0.7458	-0.07
Mof_C 	C 	0.5674	0.0324	0.7058	0.392
Mof_C 	C 	0.3713	0.0464	0.9308	0.349
Mof_N 	N 	0.1877	0.7394	0.136	-0.206
Mof_N 	N 	0.0624	0.8546	0.242	-0.203
Mof_N 	N 	0.8825	0.8329	0.4175	-0.234
Mof_N 	N 	0.9008	0.6859	0.4317	-0.226
Mof_N 	N 	0.5631	0.7606	0.364	-0.206
Mof_N 	N 	0.659	0.6454	0.258	-0.203
Mof_N 	N 	0.6329	0.6671	0.0825	-0.236
Mof_N 	N 	0.5184	0.8141	0.0683	-0.227
Mof_N 	N 	0.3237	0.864	0.2394	-0.206
Mof_N 	N 	0.3044	0.758	0.3546	-0.203
Mof_N 	N 	0.3	0.5825	0.3329	-0.236
Mof_N 	N 	0.3325	0.5683	0.1859	-0.227
Mof_N 	N 	0.9271	0.636	0.2606	-0.206
Mof_N 	N 	0.917	0.742	0.1454	-0.203
Mof_N 	N 	0.7154	0.9175	0.1671	-0.235
Mof_N 	N 	0.5867	0.9317	0.3141	-0.228
Mof_N 	N 	0.8123	0.2606	0.864	-0.206
Mof_N 	N 	0.9376	0.1454	0.758	-0.203
Mof_N 	N 	0.1175	0.1671	0.5825	-0.234
Mof_N 	N 	0.0992	0.3141	0.5683	-0.226
Mof_N 	N 	0.4369	0.2394	0.636	-0.206
Mof_N 	N 	0.341	0.3546	0.742	-0.203
Mof_N 	N 	0.3671	0.3329	0.9175	-0.236
Mof_N 	N 	0.4816	0.1859	0.9317	-0.227
Mof_N 	N 	0.6763	0.136	0.7606	-0.206
Mof_N 	N 	0.6956	0.242	0.6454	-0.203
Mof_N 	N 	0.7	0.4175	0.6671	-0.236
Mof_N 	N 	0.6675	0.4317	0.8141	-0.227
Mof_N 	N 	0.0729	0.364	0.7394	-0.206
Mof_N 	N 	0.083	0.258	0.8546	-0.203
Mof_N 	N 	0.2846	0.0825	0.8329	-0.235
Mof_N 	N 	0.4133	0.0683	0.6859	-0.228
Mof_O 	O 	0.2186	0.7073	0.9699	-0.436
Mof_O 	O 	0.0637	0.8211	0.9821	-0.451
Mof_O 	O 	0.8936	0.9547	0.1285	-0.457
Mof_O 	O 	0.8919	0.0078	0.2408	-0.427
Mof_O 	O 	0.7711	0.6183	0.4573	-0.43
Mof_O 	O 	0.6296	0.7563	0.4941	-0.469
Mof_O 	O 	0.6017	0.9446	0.4854	-0.529
Mof_O 	O 	0.7198	0.999	0.432	-0.469
Mof_O 	O 	0.3958	0.7927	0.5301	-0.439
Mof_O 	O 	0.3669	0.6789	0.5179	-0.46
Mof_O 	O 	0.4768	0.5453	0.3715	-0.46
Mof_O 	O 	0.6405	0.4922	0.2592	-0.442
Mof_O 	O 	0.3467	0.8817	0.0427	-0.43
Mof_O 	O 	0.38	0.7437	0.0059	-0.47
Mof_O 	O 	0.5317	0.5554	0.0146	-0.53
Mof_O 	O 	0.6508	0.501	0.068	-0.469
Mof_O 	O 	0.1885	0.0301	0.2073	-0.431
Mof_O 	O 	0.0458	0.0179	0.3211	-0.455
Mof_O 	O 	0.0221	0.8715	0.4547	-0.456
Mof_O 	O 	0.1327	0.7592	0.5078	-0.441
Mof_O 	O 	0.2284	0.5427	0.1183	-0.429
Mof_O 	O 	0.1237	0.5059	0.2563	-0.467
Mof_O 	O 	0.0871	0.5146	0.4446	-0.529
Mof_O 	O 	0.1518	0.568	0.499	-0.469
Mof_O 	O 	0.9259	0.4699	0.2927	-0.439
Mof_O 	O 	0.8848	0.4821	0.1789	-0.461
Mof_O 	O 	0.8483	0.6285	0.0453	-0.458
Mof_O 	O 	0.8997	0.7408	0.9922	-0.426
Mof_O 	O 	0.3894	0.9573	0.3817	-0.429
Mof_O 	O 	0.3859	0.9941	0.2437	-0.469
Mof_O 	O 	0.5463	0.9854	0.0554	-0.531
Mof_O 	O 	0.7188	0.932	0.001	-0.472
Mof_O 	O 	0.7814	0.2927	0.0301	-0.436
Mof_O 	O 	0.9363	0.1789	0.0179	-0.451
Mof_O 	O 	0.1064	0.0453	0.8715	-0.457
Mof_O 	O 	0.1081	0.9922	0.7592	-0.427
Mof_O 	O 	0.2289	0.3817	0.5427	-0.43
Mof_O 	O 	0.3704	0.2437	0.5059	-0.469
Mof_O 	O 	0.3983	0.0554	0.5146	-0.529
Mof_O 	O 	0.2802	0.001	0.568	-0.469
Mof_O 	O 	0.6042	0.2073	0.4699	-0.439
Mof_O 	O 	0.6331	0.3211	0.4821	-0.46
Mof_O 	O 	0.5232	0.4547	0.6285	-0.46
Mof_O 	O 	0.3595	0.5078	0.7408	-0.442
Mof_O 	O 	0.6533	0.1183	0.9573	-0.43
Mof_O 	O 	0.62	0.2563	0.9941	-0.47
Mof_O 	O 	0.4683	0.4446	0.9854	-0.53
Mof_O 	O 	0.3492	0.499	0.932	-0.469
Mof_O 	O 	0.8115	0.9699	0.7927	-0.431
Mof_O 	O 	0.9542	0.9821	0.6789	-0.455
Mof_O 	O 	0.9779	0.1285	0.5453	-0.456
Mof_O 	O 	0.8673	0.2408	0.4922	-0.441
Mof_O 	O 	0.7716	0.4573	0.8817	-0.429
Mof_O 	O 	0.8763	0.4941	0.7437	-0.467
Mof_O 	O 	0.9129	0.4854	0.5554	-0.529
Mof_O 	O 	0.8482	0.432	0.501	-0.469
Mof_O 	O 	0.0741	0.5301	0.7073	-0.439
Mof_O 	O 	0.1152	0.5179	0.8211	-0.461
Mof_O 	O 	0.1517	0.3715	0.9547	-0.458
Mof_O 	O 	0.1003	0.2592	0.0078	-0.426
Mof_O 	O 	0.6106	0.0427	0.6183	-0.429
Mof_O 	O 	0.6141	0.0059	0.7563	-0.469
Mof_O 	O 	0.4537	0.0146	0.9446	-0.531
Mof_O 	O 	0.2812	0.068	0.999	-0.472
_end
