data_functionalizedCrystal
_audit_creation_method	'EQeq! by Chris Wilmer'
_symmetry_space_group_name_H-M	'P1'
_symmetry_Int_Tables_number	1
_symmetry_cell_setting	triclinic
loop_
_symmetry_equiv_pos_as_xyz
  x,y,z
_cell_length_a	13.0887
_cell_length_b	14.9813
_cell_length_c	17.1216
_cell_angle_alpha	69.184
_cell_angle_beta	70.767
_cell_angle_gamma	86.494
loop_
_atom_site_label
_atom_site_type_symbol
_atom_site_fract_x
_atom_site_fract_y
_atom_site_fract_z
_atom_site_charge
Mof_W 	W 	0.35073	0.18251	0.23006	1.047
Mof_W 	W 	0.12325	0.33003	0.22468	1.032
Mof_W 	W 	0.87266	0.22846	0.28804	1
Mof_W 	W 	0.83475	0.97201	0.34943	0.937
Mof_W 	W 	0.31343	0.94364	0.29592	1.297
Mof_W 	W 	0.04809	0.83491	0.3526	0.917
Mof_Co	Co	0.10302	0.93325	0.50212	1.153
Mof_Co	Co	0.0675	0.0637	0.00714	0.845
Mof_Co	Co	0.8399	0.957	0.0061	1.014
Mof_Na	Na	0.1467	0.1793	0.4514	2.831
Mof_Na	Na	0.4213	0.7039	0.3684	1.934
Mof_P 	P 	0.9472	0.8885	0.18857	0.543
Mof_P 	P 	0.4112	0.071	0.08029	0.531
Mof_P 	P 	0.0097	0.3356	0.07514	0.479
Mof_P 	P 	0.08484	0.07847	0.31347	0.558
Mof_O 	O 	0.8936	0.85	0.3765	-0.668
Mof_O 	O 	0.2561	0.2728	0.1865	-0.479
Mof_O 	O 	0.9657	0.3389	0.2524	-0.44
Mof_O 	O 	0.0588	0.061	0.4131	-0.774
Mof_O 	O 	0.2488	0.9318	0.4084	-0.541
Mof_O 	O 	0.4045	0.0551	0.2595	-0.454
Mof_O 	O 	0.8607	0.1839	0.4019	-0.484
Mof_O 	O 	0.8324	0.9833	0.45	-0.781
Mof_O 	O 	0.8386	0.1053	0.2874	-0.416
Mof_O 	O 	0.8856	0.9666	0.2226	-0.352
Mof_O 	O 	0.9251	0.2551	0.1509	-0.318
Mof_O 	O 	0.8726	0.799	0.2218	-0.325
Mof_O 	O 	0.0429	0.8649	0.225	-0.344
Mof_O 	O 	0.9933	0.9324	0.0881	-0.628
Mof_O 	O 	0.1964	0.8761	0.2913	-0.479
Mof_O 	O 	0.1178	0.3009	0.3332	-0.776
Mof_O 	O 	0.0231	-1.9223e-17	0.3043	-0.337
Mof_O 	O 	0.3843	0.1604	0.104	-0.335
Mof_O 	O 	0.9566	0.4331	0.0674	-0.212
Mof_O 	O 	0.1127	0.3342	0.1013	-0.327
Mof_O 	O 	0.207	0.0737	0.2678	-0.387
Mof_O 	O 	0.4094	0.8591	0.3037	-0.714
Mof_O 	O 	0.3493	0.9818	0.1578	-0.349
Mof_O 	O 	0.3021	0.1805	0.3378	-0.78
Mof_O 	O 	0.52	0.7618	0.4403	-0.491
Mof_O 	O 	0.0491	0.1762	0.2653	-0.381
Mof_O 	O 	0.5368	0.0613	0.0642	-0.198
Mof_O 	O 	0.2348	0.7022	0.4804	-0.457
Mof_O 	O 	0.044	0.8481	0.4539	-0.776
Mof_O 	O 	0.0404	0.3205	0.9874	-0.263
Mof_O 	O 	0.3872	0.0781	0.9977	-0.26
Mof_O 	O 	0.2132	0.9984	0.9452	-0.695
Mof_O 	O 	0.0954	0.0992	0.1114	0.001
Mof_O 	O 	0.72	0.993	0.129	-0.023
Mof_O 	O 	0.861	0.9294	0.8996	-0.401
Mof_C 	C 	0.2132	0.6178	0.5539	0.261
Mof_H 	H 	0.2567	0.5684	0.5375	-0.165
Mof_H 	H 	0.2336	0.6282	0.5997	-0.091
Mof_C 	C 	0.0955	0.5842	0.5898	-0.207
Mof_H 	H 	0.0838	0.527	0.6421	0.076
Mof_H 	H 	0.0526	0.6331	0.6078	0.085
Mof_C 	C 	0.1128	0.4845	0.4961	-0.021
Mof_H 	H 	0.1897	0.5027	0.4675	-0.052
Mof_H 	H 	0.1037	0.4267	0.5475	-0.018
Mof_C 	C 	0.9339	0.5343	0.5685	-0.051
Mof_H 	H 	0.9222	0.4772	0.6209	0.006
Mof_H 	H 	0.8968	0.5853	0.5867	-0.046
Mof_C 	C 	0.4181	0.9402	0.5005	-0.075
Mof_H 	H 	0.364	0.9343	0.557	0.029
Mof_H 	H 	0.3901	0.9049	0.4733	0.052
Mof_C 	C 	0.4646	0.7392	0.5348	0.156
Mof_H 	H 	0.471	0.6721	0.5662	-0.113
Mof_H 	H 	0.3881	0.7496	0.5451	-0.062
Mof_C 	C 	0.5086	0.7967	0.5693	-0.107
Mof_H 	H 	0.4617	0.7878	0.629	0.028
Mof_H 	H 	0.5792	0.7753	0.5721	-0.02
Mof_C 	C 	0.5601	0.9623	0.5549	-0.077
Mof_H 	H 	0.6256	0.937	0.5669	0.008
Mof_H 	H 	0.5055	0.9576	0.6109	0.047
Mof_N 	N 	0.5199	0.9008	0.5139	-0.106
Mof_N 	N 	0.0555	0.5625	0.5241	-0.115
Mof_W 	W 	0.64927	0.81749	0.76994	1.046
Mof_W 	W 	0.87675	0.66997	0.77532	1.035
Mof_W 	W 	0.12734	0.77154	0.71196	0.998
Mof_W 	W 	0.16525	0.02799	0.65057	0.969
Mof_W 	W 	0.68657	0.05636	0.70408	1.334
Mof_W 	W 	0.95191	0.16509	0.6474	0.925
Mof_Co	Co	0.89698	0.06675	0.49788	1.163
Mof_Co	Co	0.9325	0.9363	0.99286	0.838
Mof_Co	Co	0.1601	0.043	0.9939	1.031
Mof_Na	Na	0.8533	0.8207	0.5486	2.827
Mof_Na	Na	0.5787	0.2961	0.6316	1.938
Mof_P 	P 	0.0528	0.1115	0.81143	0.542
Mof_P 	P 	0.5888	0.929	0.91971	0.508
Mof_P 	P 	0.9903	0.6644	0.92486	0.481
Mof_P 	P 	0.91516	0.92153	0.68653	0.545
Mof_O 	O 	0.1064	0.15	0.6235	-0.674
Mof_O 	O 	0.7439	0.7272	0.8135	-0.479
Mof_O 	O 	0.0343	0.6611	0.7476	-0.441
Mof_O 	O 	0.9412	0.939	0.5869	-0.785
Mof_O 	O 	0.7512	0.0682	0.5916	-0.533
Mof_O 	O 	0.5955	0.9449	0.7405	-0.477
Mof_O 	O 	0.1393	0.8161	0.5981	-0.487
Mof_O 	O 	0.1676	0.0167	0.55	-0.768
Mof_O 	O 	0.1614	0.8947	0.7126	-0.437
Mof_O 	O 	0.1144	0.0334	0.7774	-0.344
Mof_O 	O 	0.0749	0.7449	0.8491	-0.322
Mof_O 	O 	0.1274	0.201	0.7782	-0.325
Mof_O 	O 	0.9571	0.1351	0.775	-0.338
Mof_O 	O 	0.0067	0.0676	0.9119	-0.617
Mof_O 	O 	0.8036	0.1239	0.7087	-0.48
Mof_O 	O 	0.8822	0.6991	0.6668	-0.775
Mof_O 	O 	0.9769	0	0.6957	-0.332
Mof_O 	O 	0.6157	0.8396	0.896	-0.334
Mof_O 	O 	0.0434	0.5669	0.9326	-0.215
Mof_O 	O 	0.8873	0.6658	0.8987	-0.327
Mof_O 	O 	0.793	0.9263	0.7322	-0.4
Mof_O 	O 	0.5906	0.1409	0.6963	-0.716
Mof_O 	O 	0.6507	0.0182	0.8422	-0.326
Mof_O 	O 	0.6979	0.8195	0.6622	-0.782
Mof_O 	O 	0.48	0.2382	0.5597	-0.489
Mof_O 	O 	0.9509	0.8238	0.7347	-0.38
Mof_O 	O 	0.4632	0.9387	0.9358	-0.21
Mof_O 	O 	0.7652	0.2978	0.5196	-0.458
Mof_O 	O 	0.956	0.1519	0.5461	-0.774
Mof_O 	O 	0.9596	0.6795	0.0126	-0.262
Mof_O 	O 	0.6128	0.9219	0.0023	-0.267
Mof_O 	O 	0.7868	0.0016	0.0548	-0.648
Mof_O 	O 	0.9046	0.9008	0.8886	0.002
Mof_O 	O 	0.28	0.007	0.871	0.012
Mof_O 	O 	0.139	0.0706	0.1004	-0.386
Mof_C 	C 	0.7868	0.3822	0.4461	0.262
Mof_H 	H 	0.7433	0.4316	0.4625	-0.165
Mof_H 	H 	0.7664	0.3718	0.4003	-0.091
Mof_C 	C 	0.9045	0.4158	0.4102	-0.208
Mof_H 	H 	0.9162	0.473	0.3579	0.077
Mof_H 	H 	0.9474	0.3669	0.3922	0.086
Mof_C 	C 	0.8872	0.5155	0.5039	-0.022
Mof_H 	H 	0.8103	0.4973	0.5325	-0.052
Mof_H 	H 	0.8963	0.5733	0.4525	-0.017
Mof_C 	C 	0.0661	0.4657	0.4315	-0.054
Mof_H 	H 	0.0778	0.5228	0.3791	0.006
Mof_H 	H 	0.1032	0.4147	0.4133	-0.046
Mof_C 	C 	0.5819	0.0598	0.4995	-0.003
Mof_H 	H 	0.636	0.0657	0.443	0.017
Mof_H 	H 	0.6099	0.0951	0.5267	0.035
Mof_C 	C 	0.5354	0.2608	0.4652	0.153
Mof_H 	H 	0.529	0.3279	0.4338	-0.112
Mof_H 	H 	0.6119	0.2504	0.4549	-0.061
Mof_C 	C 	0.4914	0.2033	0.4307	-0.102
Mof_H 	H 	0.5383	0.2122	0.371	0.027
Mof_H 	H 	0.4208	0.2247	0.4279	-0.022
Mof_C 	C 	0.4399	0.0377	0.4451	-0.005
Mof_H 	H 	0.3744	0.063	0.4331	-0.008
Mof_H 	H 	0.4945	0.0424	0.3891	0.035
Mof_N 	N 	0.4801	0.0992	0.4861	-0.118
Mof_N 	N 	0.9445	0.4375	0.4759	-0.114
_end
