data_functionalizedCrystal
_audit_creation_method	'EQeq! by Chris Wilmer'
_symmetry_space_group_name_H-M	'P1'
_symmetry_Int_Tables_number	1
_symmetry_cell_setting	triclinic
loop_
_symmetry_equiv_pos_as_xyz
  x,y,z
_cell_length_a	13.198
_cell_length_b	14.852
_cell_length_c	23.407
_cell_angle_alpha	90
_cell_angle_beta	90
_cell_angle_gamma	90
loop_
_atom_site_label
_atom_site_type_symbol
_atom_site_fract_x
_atom_site_fract_y
_atom_site_fract_z
_atom_site_charge
Mof_U 	U 	0.32341	0.20023	0.19747	0.036
Mof_U 	U 	0.00131	0.18899	0.18708	0.036
Mof_U 	U 	0.1865	0.31653	0.31263	0.036
Mof_O 	O 	0.15594	0.24989	0.22553	-0.022
Mof_O 	O 	0.03049	0.88277	0.13048	-0.115
Mof_O 	O 	0.62927	0.12567	0.12532	-0.114
Mof_O 	O 	0.13125	0.09796	0.1592	-0.13
Mof_O 	O 	0.18395	0.85457	0.16167	-0.116
Mof_O 	O 	0.50524	0.19493	0.22213	-0.011
Mof_O 	O 	0.34904	0.33775	0.16365	-0.044
Mof_O 	O 	0.29722	0.06366	0.23014	-0.036
Mof_O 	O 	0.03112	0.28604	0.11705	-0.084
Mof_O 	O 	0.24853	0.42506	0.25855	-0.029
Mof_O 	O 	0.97072	0.09425	0.25732	-0.018
Mof_O 	O 	0.26811	0.15103	0.11461	-0.16
Mof_O 	O 	0.47938	0.15435	0.16206	-0.112
Mof_O 	O 	0.33697	0.23647	0.29096	-0.038
Mof_O 	O 	0.12838	0.20479	0.36624	-0.06
Mof_C 	C 	0.18691	0.10334	0.11363	0.256
Mof_C 	C 	0.53164	0.11477	0.12007	0.217
Mof_C 	C 	0.49407	0.05982	0.06562	0.006
Mof_C 	C 	0.17053	0.04368	0.06204	-0.02
Mof_C 	C 	0.15659	0.94684	0.06577	0.004
Mof_C 	C 	0.12684	0.89369	0.12195	0.22
Mof_N 	N 	0.31444	0.04804	0.39018	-0.278
Mof_U 	U 	0.65796	0.81706	0.19044	0.036
Mof_U 	U 	0.98582	0.80757	0.20979	0.034
Mof_U 	U 	0.80747	0.72484	0.30814	0.033
Mof_O 	O 	0.81511	0.82451	0.23849	-0.025
Mof_O 	O 	0.90967	0.1074	0.12257	-0.139
Mof_O 	O 	0.39728	0.92324	0.1471	-0.147
Mof_O 	O 	0.92842	0.88193	0.12717	-0.105
Mof_O 	O 	0.7336	0.12985	0.11908	-0.111
Mof_O 	O 	0.50469	0.79294	0.24422	-0.024
Mof_O 	O 	0.67672	0.67534	0.16276	-0.042
Mof_O 	O 	0.63543	0.95802	0.21665	-0.045
Mof_O 	O 	0.95162	0.68126	0.16313	-0.07
Mof_O 	O 	0.8025	0.61374	0.2458	-0.033
Mof_O 	O 	0.02304	0.93133	0.25702	-0.021
Mof_O 	O 	0.75145	0.86618	0.11579	-0.143
Mof_O 	O 	0.52773	0.83385	0.12858	-0.14
Mof_O 	O 	0.63474	0.76339	0.28301	-0.033
Mof_O 	O 	0.81178	0.8374	0.37031	-0.067
Mof_C 	C 	0.84064	0.89311	0.09911	0.221
Mof_C 	C 	0.47827	0.90763	0.11846	0.256
Mof_C 	C 	0.49556	0.96247	0.06447	-0.021
Mof_C 	C 	0.8374	0.94602	0.04209	-0.01
Mof_C 	C 	0.82052	0.04152	0.04222	-0.011
Mof_C 	C 	0.8206	0.09707	0.09888	0.222
Mof_N 	N 	0.59686	0.95546	0.37464	-0.279
Mof_U 	U 	0.16943	0.69196	0.3062	0.036
Mof_U 	U 	0.48851	0.67672	0.30876	0.037
Mof_U 	U 	0.33698	0.81681	0.20394	0.037
Mof_O 	O 	0.32953	0.69948	0.26402	-0.023
Mof_O 	O 	0.45561	0.36393	0.38069	-0.11
Mof_O 	O 	0.86723	0.63807	0.38169	-0.114
Mof_O 	O 	0.39235	0.57418	0.35708	-0.127
Mof_O 	O 	0.27794	0.36718	0.38647	-0.148
Mof_O 	O 	0.98912	0.73222	0.29389	-0.009
Mof_O 	O 	0.19299	0.82223	0.3504	-0.048
Mof_O 	O 	0.14066	0.5636	0.2621	-0.04
Mof_O 	O 	0.44975	0.77653	0.37571	-0.078
Mof_O 	O 	0.31199	0.9115	0.27529	-0.043
Mof_O 	O 	0.52766	0.57792	0.24153	-0.021
Mof_O 	O 	0.23545	0.62294	0.38625	-0.146
Mof_O 	O 	0.0149	0.67315	0.34777	-0.113
Mof_O 	O 	0.16116	0.76327	0.21839	-0.022
Mof_O 	O 	0.36209	0.71771	0.13437	-0.057
Mof_C 	C 	0.32272	0.58268	0.3963	0.241
Mof_C 	C 	0.96464	0.63164	0.38889	0.217
Mof_C 	C 	0.00495	0.57762	0.44307	0.005
Mof_C 	C 	0.34077	0.53403	0.45493	-0.009
Mof_C 	C 	0.36779	0.44073	0.45937	-0.011
Mof_C 	C 	0.36812	0.38462	0.40535	0.227
Mof_N 	N 	0.14812	0.52179	0.12065	-0.278
Mof_U 	U 	0.86599	0.31821	0.29861	0.035
Mof_U 	U 	0.50602	0.28371	0.30112	0.033
Mof_U 	U 	0.68292	0.21425	0.1981	0.033
Mof_O 	O 	0.68308	0.30359	0.27686	-0.011
Mof_O 	O 	0.59523	0.60614	0.36991	-0.141
Mof_O 	O 	0.07167	0.42153	0.34644	-0.128
Mof_O 	O 	0.55697	0.36713	0.37622	-0.113
Mof_O 	O 	0.76842	0.62478	0.37521	-0.118
Mof_O 	O 	0.03339	0.29293	0.25885	-0.022
Mof_O 	O 	0.86369	0.18143	0.33637	-0.035
Mof_O 	O 	0.869	0.45465	0.26202	-0.044
Mof_O 	O 	0.54033	0.16309	0.35339	-0.083
Mof_O 	O 	0.72314	0.09916	0.25351	-0.033
Mof_O 	O 	0.47229	0.40416	0.24914	-0.019
Mof_O 	O 	0.70831	0.34692	0.33869	-0.113
Mof_O 	O 	0.92148	0.37607	0.38153	-0.152
Mof_O 	O 	0.84953	0.2668	0.20737	-0.038
Mof_O 	O 	0.64513	0.33184	0.14373	-0.059
Mof_C 	C 	0.65388	0.38031	0.38189	0.218
Mof_C 	C 	0.00521	0.42032	0.38778	0.247
Mof_C 	C 	0.01703	0.48026	0.44216	-0.015
Mof_C 	C 	0.68795	0.43098	0.43816	0.003
Mof_C 	C 	0.69095	0.52768	0.44184	-0.018
Mof_C 	C 	0.68372	0.58824	0.39086	0.237
Mof_N 	N 	0.84002	0.47298	0.1102	-0.278
Mof_U 	U 	0.64955	0.81319	0.80205	0.035
Mof_U 	U 	0.00903	0.7891	0.79879	0.033
Mof_U 	U 	0.83186	0.71591	0.69836	0.033
Mof_O 	O 	0.83151	0.80759	0.77579	-0.011
Mof_O 	O 	0.96077	0.10848	0.87404	-0.131
Mof_O 	O 	0.4452	0.90959	0.85579	-0.128
Mof_O 	O 	0.9602	0.87668	0.8717	-0.116
Mof_O 	O 	0.81247	0.1426	0.84323	-0.127
Mof_O 	O 	0.4824	0.7873	0.76235	-0.022
Mof_O 	O 	0.66218	0.67464	0.83638	-0.043
Mof_O 	O 	0.63625	0.95026	0.77029	-0.04
Mof_O 	O 	0.975	0.67081	0.85328	-0.085
Mof_O 	O 	0.79987	0.60205	0.7562	-0.042
Mof_O 	O 	0.04192	0.90789	0.74474	-0.022
Mof_O 	O 	0.80837	0.84848	0.83739	-0.115
Mof_O 	O 	0.59465	0.86048	0.88871	-0.149
Mof_O 	O 	0.66438	0.76592	0.70955	-0.036
Mof_O 	O 	0.86317	0.83273	0.64204	-0.058
Mof_C 	C 	0.86344	0.8885	0.87775	0.219
Mof_C 	C 	0.50919	0.90103	0.89805	0.244
Mof_C 	C 	0.49694	0.95699	0.95496	-0.007
Mof_C 	C 	0.83044	0.94354	0.93171	0
Mof_C 	C 	0.82701	0.04133	0.93219	-0.012
Mof_C 	C 	0.86498	0.09765	0.8807	0.237
Mof_N 	N 	0.63626	0.96815	0.61923	-0.278
Mof_U 	U 	0.33654	0.19982	0.79874	0.038
Mof_U 	U 	0.99963	0.20602	0.80426	0.035
Mof_U 	U 	0.16599	0.30178	0.70014	0.035
Mof_O 	O 	0.16646	0.19474	0.76784	-0.024
Mof_O 	O 	0.06014	0.87337	0.87645	-0.11
Mof_O 	O 	0.57458	0.10817	0.87236	-0.139
Mof_O 	O 	0.08023	0.11631	0.87233	-0.107
Mof_O 	O 	0.23677	0.86629	0.88724	-0.147
Mof_O 	O 	0.50288	0.25144	0.78583	-0.024
Mof_O 	O 	0.30439	0.32747	0.84428	-0.047
Mof_O 	O 	0.37424	0.07389	0.75363	-0.041
Mof_O 	O 	0.02822	0.31885	0.86416	-0.078
Mof_O 	O 	0.19258	0.40757	0.76436	-0.039
Mof_O 	O 	0.97236	0.09244	0.74494	-0.022
Mof_O 	O 	0.26104	0.12405	0.8757	-0.115
Mof_O 	O 	0.3987	0.13637	0.88059	-0.125
Mof_O 	O 	0.34364	0.26887	0.71055	-0.016
Mof_O 	O 	0.1374	0.19348	0.63693	-0.058
Mof_C 	C 	0.17037	0.09773	0.89541	0.214
Mof_C 	C 	0.48648	0.10427	0.89865	0.235
Mof_C 	C 	0.48683	0.05315	0.95525	-0.007
Mof_C 	C 	0.16705	0.04238	0.95293	0.004
Mof_C 	C 	0.14668	0.94744	0.95625	-0.011
Mof_C 	C 	0.14693	0.89114	0.90264	0.228
Mof_N 	N 	0.34031	0.02689	0.60846	-0.277
Mof_U 	U 	0.84614	0.31074	0.68516	0.034
Mof_U 	U 	0.52121	0.31804	0.70083	0.036
Mof_U 	U 	0.6641	0.19718	0.81079	0.036
Mof_O 	O 	0.69118	0.30254	0.74057	-0.025
Mof_O 	O 	0.60634	0.59949	0.62756	-0.136
Mof_O 	O 	0.11072	0.40429	0.63345	-0.109
Mof_O 	O 	0.57409	0.39438	0.62483	-0.153
Mof_O 	O 	0.78177	0.62433	0.62305	-0.11
Mof_O 	O 	5e-05	0.31006	0.73477	-0.029
Mof_O 	O 	0.85974	0.16702	0.66097	-0.036
Mof_O 	O 	0.83198	0.45381	0.70729	-0.049
Mof_O 	O 	0.54416	0.19054	0.65325	-0.068
Mof_O 	O 	0.66233	0.10243	0.73855	-0.035
Mof_O 	O 	0.49334	0.44116	0.74935	-0.023
Mof_O 	O 	0.71541	0.31467	0.62234	-0.142
Mof_O 	O 	0.94554	0.3595	0.61067	-0.142
Mof_O 	O 	0.8273	0.2581	0.77882	-0.027
Mof_O 	O 	0.66741	0.29942	0.87979	-0.071
Mof_C 	C 	0.66222	0.38134	0.6032	0.254
Mof_C 	C 	0.0251	0.41213	0.6043	0.227
Mof_C 	C 	0.02487	0.47619	0.55219	-0.013
Mof_C 	C 	0.68851	0.43199	0.5485	-0.019
Mof_C 	C 	0.69914	0.5282	0.54979	-0.003
Mof_C 	C 	0.69596	0.58696	0.60493	0.221
Mof_N 	N 	0.84055	0.46894	0.86191	-0.28
Mof_U 	U 	0.19154	0.70247	0.69591	0.036
Mof_U 	U 	0.51376	0.68578	0.68953	0.035
Mof_U 	U 	0.32875	0.81343	0.8146	0.036
Mof_O 	O 	0.35914	0.74938	0.7265	-0.022
Mof_O 	O 	0.36498	0.34393	0.66129	-0.117
Mof_O 	O 	0.88394	0.6304	0.62333	-0.114
Mof_O 	O 	0.3831	0.59585	0.66071	-0.128
Mof_O 	O 	0.21929	0.39326	0.63018	-0.121
Mof_O 	O 	0.00986	0.69876	0.72075	-0.014
Mof_O 	O 	0.16976	0.84034	0.66179	-0.046
Mof_O 	O 	0.21403	0.56585	0.72946	-0.037
Mof_O 	O 	0.48569	0.78078	0.61816	-0.084
Mof_O 	O 	0.27714	0.9281	0.76231	-0.029
Mof_O 	O 	0.54366	0.59621	0.76218	-0.02
Mof_O 	O 	0.24964	0.65242	0.61416	-0.159
Mof_O 	O 	0.03669	0.65828	0.65671	-0.111
Mof_O 	O 	0.1765	0.73991	0.78895	-0.036
Mof_O 	O 	0.37666	0.696	0.86651	-0.059
Mof_C 	C 	0.32895	0.60246	0.61444	0.256
Mof_C 	C 	0.98123	0.62198	0.61465	0.212
Mof_C 	C 	0.01427	0.57349	0.55621	0.005
Mof_C 	C 	0.34496	0.5418	0.56334	-0.021
Mof_C 	C 	0.35744	0.44547	0.56877	0.006
Mof_C 	C 	0.31638	0.39278	0.62245	0.223
Mof_N 	N 	0.17145	0.53865	0.88457	-0.279
Mof_C 	C 	0.17871	0.08702	0.00669	-0.011
Mof_C 	C 	0.14309	0.90278	0.01138	-0.015
Mof_C 	C 	0.48935	0.1018	0.00962	-0.016
Mof_H 	H 	0.19235	0.15894	0.0056	0.069
Mof_H 	H 	0.12829	0.83105	0.01176	0.06
Mof_H 	H 	0.49198	0.17462	0.00798	0.071
Mof_C 	C 	0.8371	0.89985	0.98729	-0.008
Mof_C 	C 	0.8177	0.08617	0.98718	-0.004
Mof_C 	C 	0.50038	0.91477	0.01026	-0.006
Mof_H 	H 	0.84736	0.82751	0.98785	0.065
Mof_H 	H 	0.81613	0.15908	0.98728	0.065
Mof_H 	H 	0.50384	0.84191	0.01126	0.072
Mof_C 	C 	0.33334	0.58212	0.50752	-0.003
Mof_C 	C 	0.37173	0.39823	0.51533	-0.013
Mof_C 	C 	0.00265	0.61976	0.50054	-0.016
Mof_H 	H 	0.31717	0.65354	0.50509	0.069
Mof_H 	H 	0.37783	0.32556	0.51685	0.06
Mof_H 	H 	0.98444	0.69077	0.5021	0.071
Mof_C 	C 	0.68494	0.38601	0.49327	-0.006
Mof_C 	C 	0.70192	0.57229	0.49595	-0.008
Mof_C 	C 	0.02693	0.4347	0.4963	-0.005
Mof_H 	H 	0.67183	0.31403	0.49338	0.066
Mof_H 	H 	0.70658	0.6452	0.49616	0.065
Mof_H 	H 	0.03264	0.36193	0.49498	0.071
Mof_H 	H 	0.24098	0.02985	0.37826	0.142
Mof_H 	H 	0.31179	0.10523	0.4161	0.122
Mof_H 	H 	0.35703	0.06196	0.35364	0.14
Mof_H 	H 	0.52471	0.958	0.35639	0.132
Mof_H 	H 	0.6016	0.00226	0.40783	0.119
Mof_H 	H 	0.65107	0.97052	0.34358	0.151
Mof_H 	H 	0.15596	0.4813	0.08444	0.117
Mof_H 	H 	0.12396	0.58593	0.10845	0.124
Mof_H 	H 	0.21781	0.52674	0.14156	0.145
Mof_H 	H 	0.79939	0.47505	0.07194	0.12
Mof_H 	H 	0.9057	0.51168	0.10622	0.118
Mof_H 	H 	0.85967	0.40645	0.11944	0.137
Mof_H 	H 	0.64924	0.9101	0.59514	0.128
Mof_H 	H 	0.61309	0.02026	0.59227	0.117
Mof_H 	H 	0.70299	0.98673	0.64011	0.147
Mof_H 	H 	0.32461	0.0754	0.57739	0.117
Mof_H 	H 	0.2791	0.02196	0.63657	0.145
Mof_H 	H 	0.40516	0.04555	0.6311	0.128
Mof_H 	H 	0.78526	0.44472	0.83393	0.153
Mof_H 	H 	0.81728	0.53072	0.87869	0.133
Mof_H 	H 	0.90865	0.4774	0.83982	0.139
Mof_H 	H 	0.11913	0.52788	0.8518	0.14
Mof_H 	H 	0.17015	0.60638	0.89656	0.132
Mof_H 	H 	0.24394	0.52175	0.87024	0.145
Mof_H 	H 	0.61016	0.89102	0.3908	0.135
Mof_H 	H 	0.57974	0.95549	0.64941	0.138
Mof_H 	H 	0.79528	0.49866	0.14319	0.148
Mof_H 	H 	0.85093	0.42296	0.89515	0.127
Mof_H 	H 	0.15258	0.49857	0.91965	0.118
Mof_H 	H 	0.09477	0.49316	0.14815	0.136
Mof_H 	H 	0.35244	0.96467	0.58882	0.12
Mof_H 	H 	0.34799	0.99509	0.41265	0.114
_end
