data_functionalizedCrystal
_audit_creation_method	'EQeq! by Chris Wilmer'
_symmetry_space_group_name_H-M	'P1'
_symmetry_Int_Tables_number	1
_symmetry_cell_setting	triclinic
loop_
_symmetry_equiv_pos_as_xyz
  x,y,z
_cell_length_a	12.446
_cell_length_b	7.287
_cell_length_c	17.819
_cell_angle_alpha	90
_cell_angle_beta	97.23
_cell_angle_gamma	90
loop_
_atom_site_label
_atom_site_type_symbol
_atom_site_fract_x
_atom_site_fract_y
_atom_site_fract_z
_atom_site_charge
Mof_P 	P 	0.19048	0.8674	0.87992	0.549
Mof_O 	O 	0.1032	0.0482	0.7242	-0.684
Mof_O 	O 	0.7183	0.8677	0.7766	-0.619
Mof_O 	O 	0.2437	0.6904	0.8563	-0.472
Mof_O 	O 	0.9037	0.6738	0.7708	-0.537
Mof_O 	O 	0.2436	0.037	0.849	-0.433
Mof_O 	O 	0.0682	0.8651	0.8525	-0.523
Mof_O 	O 	0.2044	0.8803	0.9668	-0.267
Mof_H 	H 	0.2558	0.2713	0.5014	0.11
Mof_V 	V 	0.23658	0.07414	0.73904	1.852
Mof_P 	P 	0.69048	0.3674	0.87992	0.546
Mof_O 	O 	0.6032	0.5482	0.7242	-0.611
Mof_O 	O 	0.2183	0.3677	0.7766	-0.65
Mof_O 	O 	0.7437	0.1904	0.8563	-0.443
Mof_O 	O 	0.4037	0.1738	0.7708	-0.648
Mof_O 	O 	0.7436	0.537	0.849	-0.401
Mof_O 	O 	0.5682	0.3651	0.8525	-0.439
Mof_O 	O 	0.7044	0.3803	0.9668	-0.222
Mof_H 	H 	0.7558	0.7713	0.5014	0.114
Mof_V 	V 	0.73658	0.57414	0.73904	1.853
Mof_P 	P 	0.80952	0.8674	0.62008	0.539
Mof_O 	O 	0.8968	0.0482	0.7758	-0.518
Mof_O 	O 	0.2817	0.8677	0.7234	-0.628
Mof_O 	O 	0.7563	0.6904	0.6437	-0.447
Mof_O 	O 	0.0963	0.6738	0.7292	-0.716
Mof_O 	O 	0.7564	0.037	0.651	-0.409
Mof_O 	O 	0.9318	0.8651	0.6475	-0.323
Mof_O 	O 	0.7956	0.8803	0.5332	-0.198
Mof_H 	H 	0.7442	0.2713	0.9986	0.122
Mof_V 	V 	0.76342	0.07414	0.76096	1.852
Mof_P 	P 	0.30952	0.3674	0.62008	0.542
Mof_O 	O 	0.3968	0.5482	0.7758	-0.61
Mof_O 	O 	0.7817	0.3677	0.7234	-0.599
Mof_O 	O 	0.2563	0.1904	0.6437	-0.479
Mof_O 	O 	0.5963	0.1738	0.7292	-0.648
Mof_O 	O 	0.2564	0.537	0.651	-0.441
Mof_O 	O 	0.4318	0.3651	0.6475	-0.436
Mof_O 	O 	0.2956	0.3803	0.5332	-0.245
Mof_H 	H 	0.2442	0.7713	0.9986	0.114
Mof_V 	V 	0.26342	0.57414	0.76096	1.852
Mof_P 	P 	0.80952	0.1326	0.12008	0.538
Mof_O 	O 	0.8968	0.9518	0.2758	-0.518
Mof_O 	O 	0.2817	0.1323	0.2234	-0.628
Mof_O 	O 	0.7563	0.3096	0.1437	-0.447
Mof_O 	O 	0.0963	0.3262	0.2292	-0.715
Mof_O 	O 	0.7564	0.963	0.151	-0.409
Mof_O 	O 	0.9318	0.1349	0.1475	-0.322
Mof_O 	O 	0.7956	0.1197	0.0332	-0.191
Mof_H 	H 	0.7442	0.7287	0.4986	0.103
Mof_V 	V 	0.76342	0.92586	0.26096	1.852
Mof_P 	P 	0.30952	0.6326	0.12008	0.541
Mof_O 	O 	0.3968	0.4518	0.2758	-0.61
Mof_O 	O 	0.7817	0.6323	0.2234	-0.599
Mof_O 	O 	0.2563	0.8096	0.1437	-0.478
Mof_O 	O 	0.5963	0.8262	0.2292	-0.648
Mof_O 	O 	0.2564	0.463	0.151	-0.441
Mof_O 	O 	0.4318	0.6349	0.1475	-0.436
Mof_O 	O 	0.2956	0.6197	0.0332	-0.239
Mof_H 	H 	0.2442	0.2287	0.4986	0.099
Mof_V 	V 	0.26342	0.42586	0.26096	1.852
Mof_P 	P 	0.19048	0.1326	0.37992	0.547
Mof_O 	O 	0.1032	0.9518	0.2242	-0.684
Mof_O 	O 	0.7183	0.1323	0.2766	-0.618
Mof_O 	O 	0.2437	0.3096	0.3563	-0.471
Mof_O 	O 	0.9037	0.3262	0.2708	-0.537
Mof_O 	O 	0.2436	0.963	0.349	-0.432
Mof_O 	O 	0.0682	0.1349	0.3525	-0.523
Mof_O 	O 	0.2044	0.1197	0.4668	-0.261
Mof_H 	H 	0.2558	0.7287	0.0014	0.094
Mof_V 	V 	0.23658	0.92586	0.23904	1.852
Mof_P 	P 	0.69048	0.6326	0.37992	0.545
Mof_O 	O 	0.6032	0.4518	0.2242	-0.61
Mof_O 	O 	0.2183	0.6323	0.2766	-0.65
Mof_O 	O 	0.7437	0.8096	0.3563	-0.442
Mof_O 	O 	0.4037	0.8262	0.2708	-0.648
Mof_O 	O 	0.7436	0.463	0.349	-0.4
Mof_O 	O 	0.5682	0.6349	0.3525	-0.438
Mof_O 	O 	0.7044	0.6197	0.4668	-0.213
Mof_H 	H 	0.7558	0.2287	0.0014	0.095
Mof_V 	V 	0.73658	0.42586	0.23904	1.853
Mof_V 	V 	4.53271e-33	0.8117	0.75	1.764
Mof_V 	V 	0.5	0.3117	0.75	1.855
Mof_V 	V 	8.86391e-18	0.1883	0.25	1.764
Mof_V 	V 	0.5	0.6883	0.25	1.855
_end
