data_functionalizedCrystal
_audit_creation_method	'EQeq! by Chris Wilmer'
_symmetry_space_group_name_H-M	'P1'
_symmetry_Int_Tables_number	1
_symmetry_cell_setting	triclinic
loop_
_symmetry_equiv_pos_as_xyz
  x,y,z
_cell_length_a	29.5994
_cell_length_b	29.5994
_cell_length_c	52.255
_cell_angle_alpha	90
_cell_angle_beta	90
_cell_angle_gamma	120
loop_
_atom_site_label
_atom_site_type_symbol
_atom_site_fract_x
_atom_site_fract_y
_atom_site_fract_z
_atom_site_charge
Mof_Cu	Cu	0.28871	0.48534	0.38208	0.857
Mof_O 	O 	0.1068	0.4965	0.56068	-0.148
Mof_O 	O 	0.06709	0.45334	0.60542	-0.227
Mof_O 	O 	0.05246	0.51718	0.60893	-0.264
Mof_O 	O 	0.3808	0.4838	0.53933	-0.145
Mof_O 	O 	0.3289	0.5185	0.51169	-0.256
Mof_O 	O 	0.2592	0.4348	0.51539	-0.276
Mof_O 	O 	0.1991	0.35717	0.66282	-0.13
Mof_O 	O 	0.2879	0.3676	0.6436	-0.455
Mof_O 	O 	0.3426	0.4031	0.6751	-0.297
Mof_N 	N 	0.2821	0.4807	0.42161	-0.226
Mof_N 	N 	0.3263	0.5966	0.37433	-0.208
Mof_N 	N 	0.3948	0.1925	0.64672	-0.202
Mof_C 	C 	0.2158	0.53223	0.61949	0.084
Mof_C 	C 	0.16298	0.50085	0.62482	-0.156
Mof_H 	H 	0.152	0.4877	0.6416	0.102
Mof_C 	C 	0.12629	0.48865	0.60554	0.126
Mof_C 	C 	0.14242	0.50784	0.58094	0.085
Mof_C 	C 	0.19524	0.53921	0.57561	-0.114
Mof_H 	H 	0.2063	0.5523	0.5588	0.077
Mof_C 	C 	0.23193	0.55141	0.59489	0.035
Mof_C 	C 	0.2878	0.58787	0.58834	-0.177
Mof_H 	H 	0.3065	0.6063	0.6041	0.065
Mof_H 	H 	0.2895	0.6144	0.5762	0.074
Mof_C 	C 	0.31628	0.56164	0.57649	0.041
Mof_C 	C 	0.30965	0.55309	0.55002	-0.118
Mof_H 	H 	0.2921	0.5664	0.54	0.08
Mof_C 	C 	0.33241	0.52077	0.53783	0.134
Mof_C 	C 	0.35722	0.50904	0.55293	0.051
Mof_C 	C 	0.36576	0.51879	0.57992	-0.099
Mof_H 	H 	0.3865	0.5089	0.5897	0.082
Mof_C 	C 	0.33946	0.54562	0.59118	0.051
Mof_C 	C 	0.34799	0.55146	0.6197	-0.209
Mof_H 	H 	0.3447	0.5813	0.6258	0.077
Mof_H 	H 	0.3836	0.5586	0.6238	0.095
Mof_C 	C 	0.30836	0.50215	0.63318	0.077
Mof_C 	C 	0.31692	0.46143	0.63614	-0.179
Mof_H 	H 	0.3494	0.4655	0.6307	0.105
Mof_C 	C 	0.28189	0.41627	0.6463	0.158
Mof_C 	C 	0.23625	0.40721	0.65391	0.064
Mof_C 	C 	0.22316	0.44795	0.65144	-0.102
Mof_H 	H 	0.1896	0.4424	0.6559	0.079
Mof_C 	C 	0.263	0.49651	0.64205	0.039
Mof_C 	C 	0.24588	0.53573	0.64023	-0.211
Mof_H 	H 	0.226	0.5332	0.6559	0.084
Mof_H 	H 	0.2774	0.5708	0.6401	0.073
Mof_C 	C 	0.12063	0.51128	0.53482	-0.184
Mof_H 	H 	0.1447	0.549	0.5339	0.097
Mof_H 	H 	0.0892	0.5023	0.5249	0.096
Mof_H 	H 	0.1376	0.4928	0.5278	0.094
Mof_C 	C 	0.03224	0.47231	0.60516	0.295
Mof_C 	C 	0.98552	0.43227	0.61149	-0.056
Mof_C 	C 	0.97432	0.38072	0.61145	-0.016
Mof_H 	H 	0.0017	0.373	0.6095	0.058
Mof_C 	C 	0.92312	0.34048	0.61427	0.011
Mof_H 	H 	0.9155	0.3052	0.6142	0.01
Mof_N 	N 	0.88313	0.35178	0.61714	-0.196
Mof_C 	C 	0.89432	0.40333	0.61718	0.017
Mof_H 	H 	0.867	0.4111	0.6191	0.008
Mof_C 	C 	0.94552	0.44357	0.61436	-0.038
Mof_H 	H 	0.9532	0.4788	0.6144	0.051
Mof_C 	C 	0.14362	0.3425	0.66662	-0.212
Mof_H 	H 	0.1418	0.368	0.678	0.112
Mof_H 	H 	0.1245	0.3078	0.6744	0.1
Mof_H 	H 	0.1279	0.3422	0.6501	0.111
Mof_C 	C 	0.3113	0.3714	0.6569	0.51
Mof_C 	C 	0.3266	0.32153	0.66085	-0.023
Mof_C 	C 	0.3632	0.31982	0.67684	-0.065
Mof_H 	H 	0.3848	0.3488	0.6874	0.06
Mof_C 	C 	0.36842	0.27568	0.67732	0.023
Mof_H 	H 	0.3935	0.2745	0.6882	-0.007
Mof_N 	N 	0.33694	0.23323	0.66182	-0.228
Mof_C 	C 	0.30029	0.23493	0.64583	0.024
Mof_H 	H 	0.2788	0.2059	0.6352	-0.01
Mof_C 	C 	0.29511	0.27908	0.64535	-0.071
Mof_H 	H 	0.2701	0.2802	0.6344	0.071
Mof_C 	C 	0.41042	0.47113	0.55228	-0.153
Mof_H 	H 	0.4378	0.5021	0.561	0.097
Mof_H 	H 	0.4264	0.4572	0.5406	0.085
Mof_H 	H 	0.3893	0.4445	0.565	0.088
Mof_C 	C 	0.2917	0.46555	0.50495	0.306
Mof_C 	C 	0.29435	0.47921	0.47472	-0
Mof_C 	C 	0.25244	0.43039	0.4604	-0.112
Mof_H 	H 	0.2279	0.3986	0.4683	0.079
Mof_C 	C 	0.25584	0.43956	0.43515	0.09
Mof_H 	H 	0.2343	0.4093	0.4253	-0.022
Mof_C 	C 	0.31653	0.52882	0.43168	0.01
Mof_H 	H 	0.3345	0.5596	0.4217	-0.002
Mof_C 	C 	0.32254	0.52761	0.45977	-0.061
Mof_H 	H 	0.3454	0.5592	0.4684	0.062
Mof_C 	C 	0.3213	0.55149	0.37503	-0.253
Mof_C 	C 	0.428	0.1986	0.63471	-0.175
Mof_Cu	Cu	0.95538	0.81867	0.71541	0.859
Mof_O 	O 	0.77347	0.82983	0.89401	-0.146
Mof_O 	O 	0.73376	0.78667	0.93875	-0.226
Mof_O 	O 	0.71913	0.85051	0.94226	-0.264
Mof_O 	O 	0.04747	0.81713	0.87266	-0.143
Mof_O 	O 	0.99557	0.85183	0.84502	-0.256
Mof_O 	O 	0.92587	0.76813	0.84872	-0.274
Mof_O 	O 	0.86577	0.6905	0.99615	-0.129
Mof_O 	O 	0.95457	0.70093	0.97693	-0.455
Mof_O 	O 	0.00927	0.73643	0.00843	-0.307
Mof_N 	N 	0.94877	0.81403	0.75494	-0.227
Mof_N 	N 	0.99297	0.92993	0.70766	-0.203
Mof_N 	N 	0.06147	0.52583	0.98005	-0.203
Mof_C 	C 	0.88247	0.86556	0.95282	0.082
Mof_C 	C 	0.82965	0.83418	0.95815	-0.155
Mof_H 	H 	0.81867	0.82103	0.97493	0.102
Mof_C 	C 	0.79296	0.82198	0.93887	0.126
Mof_C 	C 	0.80909	0.84117	0.91427	0.086
Mof_C 	C 	0.86191	0.87254	0.90894	-0.117
Mof_H 	H 	0.87297	0.88563	0.89213	0.078
Mof_C 	C 	0.8986	0.88474	0.92822	0.041
Mof_C 	C 	0.95447	0.9212	0.92167	-0.191
Mof_H 	H 	0.97317	0.93963	0.93743	0.074
Mof_H 	H 	0.95617	0.94773	0.90953	0.082
Mof_C 	C 	0.98295	0.89497	0.90982	0.065
Mof_C 	C 	0.97632	0.88642	0.88335	-0.13
Mof_H 	H 	0.95877	0.89973	0.87333	0.086
Mof_C 	C 	0.99908	0.8541	0.87116	0.153
Mof_C 	C 	0.02389	0.84237	0.88626	0.032
Mof_C 	C 	0.03243	0.85212	0.91325	-0.086
Mof_H 	H 	0.05317	0.84223	0.92303	0.077
Mof_C 	C 	0.00613	0.87895	0.92451	0.031
Mof_C 	C 	0.01466	0.88479	0.95303	-0.204
Mof_H 	H 	0.01137	0.91463	0.95913	0.074
Mof_H 	H 	0.05027	0.89193	0.95713	0.094
Mof_C 	C 	0.97503	0.83548	0.96651	0.076
Mof_C 	C 	0.98359	0.79476	0.96947	-0.161
Mof_H 	H 	0.01607	0.79883	0.96403	0.094
Mof_C 	C 	0.94856	0.7496	0.97963	0.152
Mof_C 	C 	0.90292	0.74054	0.98724	0.068
Mof_C 	C 	0.88983	0.78128	0.98477	-0.105
Mof_H 	H 	0.85627	0.77573	0.98923	0.08
Mof_C 	C 	0.92967	0.82984	0.97538	0.043
Mof_C 	C 	0.91255	0.86906	0.97356	-0.212
Mof_H 	H 	0.89267	0.86653	0.98923	0.085
Mof_H 	H 	0.94407	0.90413	0.97343	0.076
Mof_C 	C 	0.7873	0.84461	0.86815	-0.188
Mof_H 	H 	0.81137	0.88233	0.86723	0.1
Mof_H 	H 	0.75587	0.83563	0.85823	0.099
Mof_H 	H 	0.80427	0.82613	0.86113	0.096
Mof_C 	C 	0.69891	0.80564	0.93849	0.305
Mof_C 	C 	0.65219	0.7656	0.94482	-0.063
Mof_C 	C 	0.64099	0.71405	0.94478	-0.03
Mof_H 	H 	0.66837	0.70633	0.94283	0.068
Mof_C 	C 	0.58979	0.67381	0.9476	0.016
Mof_H 	H 	0.58217	0.63853	0.94753	0.007
Mof_N 	N 	0.5498	0.68511	0.95047	-0.197
Mof_C 	C 	0.56099	0.73666	0.95051	0.015
Mof_H 	H 	0.53367	0.74443	0.95243	0.008
Mof_C 	C 	0.61219	0.7769	0.94769	-0.037
Mof_H 	H 	0.61987	0.81213	0.94773	0.048
Mof_C 	C 	0.81029	0.67583	0.99995	-0.211
Mof_H 	H 	0.80847	0.70133	0.01133	0.111
Mof_H 	H 	0.79117	0.64113	0.00773	0.1
Mof_H 	H 	0.79457	0.67553	0.98343	0.111
Mof_C 	C 	0.97797	0.70473	0.99023	0.519
Mof_C 	C 	0.99327	0.65486	0.99418	-0.009
Mof_C 	C 	0.02987	0.65315	0.01017	-0.082
Mof_H 	H 	0.05147	0.68213	0.02073	0.064
Mof_C 	C 	0.03509	0.60901	0.01065	0.027
Mof_H 	H 	0.06017	0.60783	0.02153	-0.01
Mof_N 	N 	0.00361	0.56656	0.99515	-0.234
Mof_C 	C 	0.96696	0.56826	0.97916	0.037
Mof_H 	H 	0.94547	0.53923	0.96853	-0.012
Mof_C 	C 	0.96178	0.61241	0.97868	-0.079
Mof_H 	H 	0.93677	0.61353	0.96773	0.076
Mof_C 	C 	0.07709	0.80446	0.88561	-0.154
Mof_H 	H 	0.10447	0.83543	0.89433	0.097
Mof_H 	H 	0.09307	0.79053	0.87393	0.085
Mof_H 	H 	0.05597	0.77783	0.89833	0.087
Mof_C 	C 	0.95837	0.79888	0.83828	0.308
Mof_C 	C 	0.96102	0.81254	0.80805	-0.001
Mof_C 	C 	0.91911	0.76372	0.79373	-0.111
Mof_H 	H 	0.89457	0.73193	0.80163	0.081
Mof_C 	C 	0.92251	0.77289	0.76848	0.091
Mof_H 	H 	0.90097	0.74263	0.75863	-0.021
Mof_C 	C 	0.9832	0.86215	0.76501	0.021
Mof_H 	H 	0.00117	0.89293	0.75503	-0.01
Mof_C 	C 	0.98921	0.86094	0.7931	-0.051
Mof_H 	H 	0.01207	0.89253	0.80173	0.054
Mof_C 	C 	0.98797	0.88482	0.70836	-0.248
Mof_C 	C 	0.09467	0.53193	0.96804	-0.175
Mof_Cu	Cu	0.62204	0.15201	0.04875	0.858
Mof_O 	O 	0.44013	0.16317	0.22735	-0.146
Mof_O 	O 	0.40042	0.12001	0.27209	-0.227
Mof_O 	O 	0.38579	0.18385	0.2756	-0.264
Mof_O 	O 	0.71413	0.15047	0.206	-0.145
Mof_O 	O 	0.66223	0.18517	0.17836	-0.255
Mof_O 	O 	0.59253	0.10147	0.18206	-0.276
Mof_O 	O 	0.53243	0.02384	0.32949	-0.126
Mof_O 	O 	0.62123	0.03427	0.31027	-0.455
Mof_O 	O 	0.67593	0.06977	0.34177	-0.298
Mof_N 	N 	0.61543	0.14737	0.08828	-0.226
Mof_N 	N 	0.65963	0.26327	0.041	-0.208
Mof_N 	N 	0.72813	0.85917	0.31339	-0.202
Mof_C 	C 	0.54913	0.1989	0.28616	0.084
Mof_C 	C 	0.49631	0.16752	0.29149	-0.157
Mof_H 	H 	0.48533	0.15437	0.30827	0.102
Mof_C 	C 	0.45962	0.15532	0.27221	0.127
Mof_C 	C 	0.47575	0.17451	0.24761	0.085
Mof_C 	C 	0.52857	0.20588	0.24228	-0.114
Mof_H 	H 	0.53963	0.21897	0.22547	0.077
Mof_C 	C 	0.56526	0.21808	0.26156	0.035
Mof_C 	C 	0.62113	0.25454	0.25501	-0.176
Mof_H 	H 	0.63983	0.27297	0.27077	0.065
Mof_H 	H 	0.62283	0.28107	0.24287	0.074
Mof_C 	C 	0.64961	0.22831	0.24316	0.041
Mof_C 	C 	0.64298	0.21976	0.21669	-0.118
Mof_H 	H 	0.62543	0.23307	0.20667	0.08
Mof_C 	C 	0.66574	0.18744	0.2045	0.134
Mof_C 	C 	0.69055	0.17571	0.2196	0.051
Mof_C 	C 	0.69909	0.18546	0.24659	-0.099
Mof_H 	H 	0.71983	0.17557	0.25637	0.082
Mof_C 	C 	0.67279	0.21229	0.25785	0.051
Mof_C 	C 	0.68132	0.21813	0.28637	-0.209
Mof_H 	H 	0.67803	0.24797	0.29247	0.077
Mof_H 	H 	0.71693	0.22527	0.29047	0.095
Mof_C 	C 	0.64169	0.16882	0.29985	0.078
Mof_C 	C 	0.65025	0.1281	0.30281	-0.18
Mof_H 	H 	0.68273	0.13217	0.29737	0.105
Mof_C 	C 	0.61522	0.08294	0.31297	0.158
Mof_C 	C 	0.56958	0.07388	0.32058	0.062
Mof_C 	C 	0.55649	0.11462	0.31811	-0.101
Mof_H 	H 	0.52293	0.10907	0.32257	0.079
Mof_C 	C 	0.59633	0.16318	0.30872	0.038
Mof_C 	C 	0.57921	0.2024	0.3069	-0.211
Mof_H 	H 	0.55933	0.19987	0.32257	0.084
Mof_H 	H 	0.61073	0.23747	0.30677	0.073
Mof_C 	C 	0.45396	0.17795	0.20149	-0.185
Mof_H 	H 	0.47803	0.21567	0.20057	0.098
Mof_H 	H 	0.42253	0.16897	0.19157	0.097
Mof_H 	H 	0.47093	0.15947	0.19447	0.095
Mof_C 	C 	0.36557	0.13898	0.27183	0.307
Mof_C 	C 	0.31885	0.09894	0.27816	-0.068
Mof_C 	C 	0.30765	0.04739	0.27812	-0.02
Mof_H 	H 	0.33503	0.03967	0.27617	0.063
Mof_C 	C 	0.25645	0.00715	0.28094	-0.003
Mof_H 	H 	0.24883	0.97187	0.28087	0.018
Mof_N 	N 	0.21646	0.01845	0.28381	-0.197
Mof_C 	C 	0.22765	0.07	0.28385	0.012
Mof_H 	H 	0.20033	0.07777	0.28577	0.007
Mof_C 	C 	0.27885	0.11024	0.28103	-0.033
Mof_H 	H 	0.28653	0.14547	0.28107	0.046
Mof_C 	C 	0.47695	0.00917	0.33329	-0.239
Mof_H 	H 	0.47513	0.03467	0.34467	0.118
Mof_H 	H 	0.45783	0.97447	0.34107	0.114
Mof_H 	H 	0.46123	0.00887	0.31677	0.117
Mof_C 	C 	0.64463	0.03807	0.32357	0.506
Mof_C 	C 	0.65993	0.9882	0.32752	-0.021
Mof_C 	C 	0.69653	0.98649	0.34351	-0.049
Mof_H 	H 	0.71813	0.01547	0.35407	0.05
Mof_C 	C 	0.70175	0.94235	0.34399	0.017
Mof_H 	H 	0.72683	0.94117	0.35487	-0.002
Mof_N 	N 	0.67027	0.8999	0.32849	-0.226
Mof_C 	C 	0.63362	0.9016	0.3125	0.024
Mof_H 	H 	0.61213	0.87257	0.30187	-0.009
Mof_C 	C 	0.62844	0.94575	0.31202	-0.069
Mof_H 	H 	0.60343	0.94687	0.30107	0.074
Mof_C 	C 	0.74375	0.1378	0.21895	-0.152
Mof_H 	H 	0.77113	0.16877	0.22767	0.096
Mof_H 	H 	0.75973	0.12387	0.20727	0.085
Mof_H 	H 	0.72263	0.11117	0.23167	0.087
Mof_C 	C 	0.62503	0.13222	0.17162	0.306
Mof_C 	C 	0.62768	0.14588	0.14139	-0
Mof_C 	C 	0.58577	0.09706	0.12707	-0.113
Mof_H 	H 	0.56123	0.06527	0.13497	0.079
Mof_C 	C 	0.58917	0.10623	0.10182	0.09
Mof_H 	H 	0.56763	0.07597	0.09197	-0.022
Mof_C 	C 	0.64986	0.19549	0.09835	0.01
Mof_H 	H 	0.66783	0.22627	0.08837	-0.002
Mof_C 	C 	0.65587	0.19428	0.12644	-0.061
Mof_H 	H 	0.67873	0.22587	0.13507	0.062
Mof_C 	C 	0.65463	0.21816	0.0417	-0.253
Mof_C 	C 	0.76133	0.86527	0.30138	-0.172
Mof_Cu	Cu	0.51466	0.80337	0.38208	0.858
Mof_O 	O 	0.5035	0.6103	0.56068	-0.146
Mof_O 	O 	0.54666	0.61375	0.60542	-0.226
Mof_O 	O 	0.48282	0.53528	0.60893	-0.264
Mof_O 	O 	0.5162	0.897	0.53933	-0.142
Mof_O 	O 	0.4815	0.8104	0.51169	-0.255
Mof_O 	O 	0.5652	0.8244	0.51539	-0.273
Mof_O 	O 	0.64283	0.84193	0.66282	-0.127
Mof_O 	O 	0.6324	0.9203	0.6436	-0.454
Mof_O 	O 	0.5969	0.9395	0.6751	-0.296
Mof_N 	N 	0.5193	0.8014	0.42161	-0.226
Mof_N 	N 	0.4034	0.7297	0.37433	-0.208
Mof_N 	N 	0.8075	0.2023	0.64672	-0.202
Mof_C 	C 	0.46777	0.68357	0.61949	0.084
Mof_C 	C 	0.49915	0.66213	0.62482	-0.156
Mof_H 	H 	0.5123	0.6643	0.6416	0.102
Mof_C 	C 	0.51135	0.63764	0.60554	0.127
Mof_C 	C 	0.49216	0.63458	0.58094	0.085
Mof_C 	C 	0.46079	0.65603	0.57561	-0.114
Mof_H 	H 	0.4477	0.654	0.5588	0.077
Mof_C 	C 	0.44859	0.68052	0.59489	0.035
Mof_C 	C 	0.41213	0.69993	0.58834	-0.176
Mof_H 	H 	0.3937	0.7002	0.6041	0.065
Mof_H 	H 	0.3856	0.6751	0.5762	0.074
Mof_C 	C 	0.43836	0.75464	0.57649	0.041
Mof_C 	C 	0.44691	0.75656	0.55002	-0.118
Mof_H 	H 	0.4336	0.7257	0.54	0.08
Mof_C 	C 	0.47923	0.81164	0.53783	0.135
Mof_C 	C 	0.49096	0.84818	0.55293	0.05
Mof_C 	C 	0.48121	0.84697	0.57992	-0.098
Mof_H 	H 	0.4911	0.8776	0.5897	0.082
Mof_C 	C 	0.45438	0.79384	0.59118	0.052
Mof_C 	C 	0.44854	0.79653	0.6197	-0.209
Mof_H 	H 	0.4187	0.7634	0.6258	0.077
Mof_H 	H 	0.4414	0.825	0.6238	0.096
Mof_C 	C 	0.49785	0.80621	0.63318	0.078
Mof_C 	C 	0.53857	0.85549	0.63614	-0.179
Mof_H 	H 	0.5345	0.8839	0.6307	0.105
Mof_C 	C 	0.58373	0.86562	0.6463	0.158
Mof_C 	C 	0.59279	0.82904	0.65391	0.064
Mof_C 	C 	0.55205	0.77521	0.65144	-0.102
Mof_H 	H 	0.5576	0.7472	0.6559	0.079
Mof_C 	C 	0.50349	0.76649	0.64205	0.039
Mof_C 	C 	0.46427	0.71015	0.64023	-0.211
Mof_H 	H 	0.4668	0.6928	0.6559	0.084
Mof_H 	H 	0.4292	0.7066	0.6401	0.073
Mof_C 	C 	0.48872	0.60935	0.53482	-0.186
Mof_H 	H 	0.451	0.5957	0.5339	0.098
Mof_H 	H 	0.4977	0.5869	0.5249	0.098
Mof_H 	H 	0.5072	0.6448	0.5278	0.096
Mof_C 	C 	0.52769	0.55993	0.60516	0.305
Mof_C 	C 	0.56773	0.55325	0.61149	-0.063
Mof_C 	C 	0.61928	0.5936	0.61145	-0.029
Mof_H 	H 	0.627	0.6287	0.6095	0.068
Mof_C 	C 	0.65952	0.58264	0.61427	0.016
Mof_H 	H 	0.6948	0.6103	0.6142	0.007
Mof_N 	N 	0.64822	0.53135	0.61714	-0.197
Mof_C 	C 	0.59667	0.49099	0.61718	0.015
Mof_H 	H 	0.5889	0.4559	0.6191	0.008
Mof_C 	C 	0.55643	0.50195	0.61436	-0.036
Mof_H 	H 	0.5212	0.4744	0.6144	0.048
Mof_C 	C 	0.6575	0.80112	0.66662	-0.215
Mof_H 	H 	0.632	0.7738	0.678	0.113
Mof_H 	H 	0.6922	0.8167	0.6744	0.102
Mof_H 	H 	0.6578	0.7857	0.6501	0.113
Mof_C 	C 	0.6286	0.9399	0.6569	0.515
Mof_C 	C 	0.67847	0.00507	0.66085	-0.024
Mof_C 	C 	0.68018	0.04338	0.67684	-0.066
Mof_H 	H 	0.6512	0.036	0.6874	0.058
Mof_C 	C 	0.72432	0.09274	0.67732	0.023
Mof_H 	H 	0.7255	0.119	0.6882	-0.007
Mof_N 	N 	0.76677	0.10371	0.66182	-0.229
Mof_C 	C 	0.76507	0.06536	0.64583	0.03
Mof_H 	H 	0.7941	0.0729	0.6352	-0.013
Mof_C 	C 	0.72092	0.01603	0.64535	-0.087
Mof_H 	H 	0.7198	0.9899	0.6344	0.083
Mof_C 	C 	0.52887	0.93929	0.55228	-0.159
Mof_H 	H 	0.4979	0.9357	0.561	0.099
Mof_H 	H 	0.5428	0.9692	0.5406	0.089
Mof_H 	H 	0.5555	0.9448	0.565	0.091
Mof_C 	C 	0.53445	0.82615	0.50495	0.306
Mof_C 	C 	0.52079	0.81514	0.47472	0.001
Mof_C 	C 	0.56961	0.82205	0.4604	-0.112
Mof_H 	H 	0.6014	0.8293	0.4683	0.081
Mof_C 	C 	0.56044	0.81628	0.43515	0.09
Mof_H 	H 	0.5907	0.825	0.4253	-0.021
Mof_C 	C 	0.47118	0.78771	0.43168	0.011
Mof_H 	H 	0.4404	0.7749	0.4217	-0.002
Mof_C 	C 	0.47239	0.79493	0.45977	-0.061
Mof_H 	H 	0.4408	0.7862	0.4684	0.062
Mof_C 	C 	0.44851	0.76981	0.37503	-0.253
Mof_C 	C 	0.8014	0.2294	0.63471	-0.174
Mof_Cu	Cu	0.18133	0.1367	0.71541	0.858
Mof_O 	O 	0.17017	0.94363	0.89401	-0.144
Mof_O 	O 	0.21333	0.94708	0.93875	-0.225
Mof_O 	O 	0.14949	0.86861	0.94226	-0.263
Mof_O 	O 	0.18287	0.23033	0.87266	-0.144
Mof_O 	O 	0.14817	0.14373	0.84502	-0.256
Mof_O 	O 	0.23187	0.15773	0.84872	-0.276
Mof_O 	O 	0.3095	0.17526	0.99615	-0.128
Mof_O 	O 	0.29907	0.25363	0.97693	-0.454
Mof_O 	O 	0.26357	0.27283	0.00843	-0.298
Mof_N 	N 	0.18597	0.13473	0.75494	-0.226
Mof_N 	N 	0.07007	0.06303	0.70766	-0.211
Mof_N 	N 	0.47417	0.53563	0.98005	-0.202
Mof_C 	C 	0.13444	0.0169	0.95282	0.074
Mof_C 	C 	0.16582	0.99546	0.95815	-0.145
Mof_H 	H 	0.17897	0.99763	0.97493	0.101
Mof_C 	C 	0.17802	0.97097	0.93887	0.126
Mof_C 	C 	0.15883	0.96791	0.91427	0.083
Mof_C 	C 	0.12746	0.98936	0.90894	-0.102
Mof_H 	H 	0.11437	0.98733	0.89213	0.074
Mof_C 	C 	0.11526	0.01385	0.92822	0.025
Mof_C 	C 	0.0788	0.03326	0.92167	-0.168
Mof_H 	H 	0.06037	0.03353	0.93743	0.06
Mof_H 	H 	0.05227	0.00843	0.90953	0.066
Mof_C 	C 	0.10503	0.08797	0.90982	0.035
Mof_C 	C 	0.11358	0.08989	0.88335	-0.116
Mof_H 	H 	0.10027	0.05903	0.87333	0.076
Mof_C 	C 	0.1459	0.14497	0.87116	0.133
Mof_C 	C 	0.15763	0.18151	0.88626	0.052
Mof_C 	C 	0.14788	0.1803	0.91325	-0.1
Mof_H 	H 	0.15777	0.21093	0.92303	0.082
Mof_C 	C 	0.12105	0.12717	0.92451	0.054
Mof_C 	C 	0.11521	0.12986	0.95303	-0.211
Mof_H 	H 	0.08537	0.09673	0.95913	0.077
Mof_H 	H 	0.10807	0.15833	0.95713	0.095
Mof_C 	C 	0.16452	0.13954	0.96651	0.08
Mof_C 	C 	0.20524	0.18882	0.96947	-0.181
Mof_H 	H 	0.20117	0.21723	0.96403	0.105
Mof_C 	C 	0.2504	0.19895	0.97963	0.159
Mof_C 	C 	0.25946	0.16237	0.98724	0.063
Mof_C 	C 	0.21872	0.10854	0.98477	-0.1
Mof_H 	H 	0.22427	0.08053	0.98923	0.077
Mof_C 	C 	0.17016	0.09982	0.97538	0.035
Mof_C 	C 	0.13094	0.04348	0.97356	-0.203
Mof_H 	H 	0.13347	0.02613	0.98923	0.08
Mof_H 	H 	0.09587	0.03993	0.97343	0.07
Mof_C 	C 	0.15539	0.94268	0.86815	-0.188
Mof_H 	H 	0.11767	0.92903	0.86723	0.099
Mof_H 	H 	0.16437	0.92023	0.85823	0.099
Mof_H 	H 	0.17387	0.97813	0.86113	0.098
Mof_C 	C 	0.19436	0.89326	0.93849	0.304
Mof_C 	C 	0.2344	0.88658	0.94482	-0.062
Mof_C 	C 	0.28595	0.92693	0.94478	-0.03
Mof_H 	H 	0.29367	0.96203	0.94283	0.07
Mof_C 	C 	0.32619	0.91597	0.9476	0.016
Mof_H 	H 	0.36147	0.94363	0.94753	0.009
Mof_N 	N 	0.31489	0.86468	0.95047	-0.197
Mof_C 	C 	0.26334	0.82432	0.95051	0.015
Mof_H 	H 	0.25557	0.78923	0.95243	0.008
Mof_C 	C 	0.2231	0.83528	0.94769	-0.037
Mof_H 	H 	0.18787	0.80773	0.94773	0.048
Mof_C 	C 	0.32417	0.13445	0.99995	-0.21
Mof_H 	H 	0.29867	0.10713	0.01133	0.111
Mof_H 	H 	0.35887	0.15003	0.00773	0.1
Mof_H 	H 	0.32447	0.11903	0.98343	0.11
Mof_C 	C 	0.29527	0.27323	0.99023	0.511
Mof_C 	C 	0.34514	0.3384	0.99418	-0.022
Mof_C 	C 	0.34685	0.37671	0.01017	-0.066
Mof_H 	H 	0.31787	0.36933	0.02073	0.06
Mof_C 	C 	0.39099	0.42607	0.01065	0.022
Mof_H 	H 	0.39217	0.45233	0.02153	-0.007
Mof_N 	N 	0.43344	0.43704	0.99515	-0.228
Mof_C 	C 	0.43174	0.39869	0.97916	0.024
Mof_H 	H 	0.46077	0.40623	0.96853	-0.01
Mof_C 	C 	0.38759	0.34936	0.97868	-0.071
Mof_H 	H 	0.38647	0.32323	0.96773	0.072
Mof_C 	C 	0.19554	0.27262	0.88561	-0.153
Mof_H 	H 	0.16457	0.26903	0.89433	0.097
Mof_H 	H 	0.20947	0.30253	0.87393	0.085
Mof_H 	H 	0.22217	0.27813	0.89833	0.088
Mof_C 	C 	0.20112	0.15948	0.83828	0.306
Mof_C 	C 	0.18746	0.14847	0.80805	-0.001
Mof_C 	C 	0.23628	0.15538	0.79373	-0.113
Mof_H 	H 	0.26807	0.16263	0.80163	0.079
Mof_C 	C 	0.22711	0.14961	0.76848	0.089
Mof_H 	H 	0.25737	0.15833	0.75863	-0.022
Mof_C 	C 	0.13785	0.12104	0.76501	0.009
Mof_H 	H 	0.10707	0.10823	0.75503	-0.003
Mof_C 	C 	0.13906	0.12826	0.7931	-0.062
Mof_H 	H 	0.10747	0.11953	0.80173	0.06
Mof_C 	C 	0.11518	0.10314	0.70836	-0.256
Mof_C 	C 	0.46807	0.56273	0.96804	-0.174
Mof_Cu	Cu	0.84799	0.47004	0.04875	0.858
Mof_O 	O 	0.83683	0.27697	0.22735	-0.145
Mof_O 	O 	0.87999	0.28042	0.27209	-0.225
Mof_O 	O 	0.81615	0.20195	0.2756	-0.263
Mof_O 	O 	0.84953	0.56367	0.206	-0.143
Mof_O 	O 	0.81483	0.47707	0.17836	-0.255
Mof_O 	O 	0.89853	0.49107	0.18206	-0.273
Mof_O 	O 	0.97616	0.5086	0.32949	-0.13
Mof_O 	O 	0.96573	0.58697	0.31027	-0.453
Mof_O 	O 	0.93023	0.60617	0.34177	-0.297
Mof_N 	N 	0.85263	0.46807	0.08828	-0.226
Mof_N 	N 	0.73673	0.39637	0.041	-0.208
Mof_N 	N 	0.14083	0.86897	0.31339	-0.202
Mof_C 	C 	0.8011	0.35024	0.28616	0.084
Mof_C 	C 	0.83248	0.3288	0.29149	-0.156
Mof_H 	H 	0.84563	0.33097	0.30827	0.102
Mof_C 	C 	0.84468	0.30431	0.27221	0.127
Mof_C 	C 	0.82549	0.30125	0.24761	0.085
Mof_C 	C 	0.79412	0.3227	0.24228	-0.114
Mof_H 	H 	0.78103	0.32067	0.22547	0.077
Mof_C 	C 	0.78192	0.34719	0.26156	0.035
Mof_C 	C 	0.74546	0.3666	0.25501	-0.176
Mof_H 	H 	0.72703	0.36687	0.27077	0.065
Mof_H 	H 	0.71893	0.34177	0.24287	0.074
Mof_C 	C 	0.77169	0.42131	0.24316	0.041
Mof_C 	C 	0.78024	0.42323	0.21669	-0.117
Mof_H 	H 	0.76693	0.39237	0.20667	0.08
Mof_C 	C 	0.81256	0.47831	0.2045	0.135
Mof_C 	C 	0.82429	0.51485	0.2196	0.051
Mof_C 	C 	0.81454	0.51364	0.24659	-0.098
Mof_H 	H 	0.82443	0.54427	0.25637	0.082
Mof_C 	C 	0.78771	0.46051	0.25785	0.051
Mof_C 	C 	0.78187	0.4632	0.28637	-0.209
Mof_H 	H 	0.75203	0.43007	0.29247	0.077
Mof_H 	H 	0.77473	0.49167	0.29047	0.095
Mof_C 	C 	0.83118	0.47288	0.29985	0.077
Mof_C 	C 	0.8719	0.52216	0.30281	-0.179
Mof_H 	H 	0.86783	0.55057	0.29737	0.105
Mof_C 	C 	0.91706	0.53229	0.31297	0.157
Mof_C 	C 	0.92612	0.49571	0.32058	0.066
Mof_C 	C 	0.88538	0.44188	0.31811	-0.103
Mof_H 	H 	0.89093	0.41387	0.32257	0.08
Mof_C 	C 	0.83682	0.43316	0.30872	0.039
Mof_C 	C 	0.7976	0.37682	0.3069	-0.211
Mof_H 	H 	0.80013	0.35947	0.32257	0.085
Mof_H 	H 	0.76253	0.37327	0.30677	0.073
Mof_C 	C 	0.82205	0.27602	0.20149	-0.187
Mof_H 	H 	0.78433	0.26237	0.20057	0.099
Mof_H 	H 	0.83103	0.25357	0.19157	0.099
Mof_H 	H 	0.84053	0.31147	0.19447	0.096
Mof_C 	C 	0.86102	0.2266	0.27183	0.302
Mof_C 	C 	0.90106	0.21992	0.27816	-0.057
Mof_C 	C 	0.95261	0.26027	0.27812	-0.039
Mof_H 	H 	0.96033	0.29537	0.27617	0.073
Mof_C 	C 	0.99285	0.24931	0.28094	0.035
Mof_H 	H 	0.02813	0.27697	0.28087	-0.004
Mof_N 	N 	0.98155	0.19802	0.28381	-0.197
Mof_C 	C 	0.93	0.15766	0.28385	0.018
Mof_H 	H 	0.92223	0.12257	0.28577	0.008
Mof_C 	C 	0.88976	0.16862	0.28103	-0.04
Mof_H 	H 	0.85453	0.14107	0.28107	0.049
Mof_C 	C 	0.99083	0.46779	0.33329	-0.189
Mof_H 	H 	0.96533	0.44047	0.34467	0.107
Mof_H 	H 	0.02553	0.48337	0.34107	0.089
Mof_H 	H 	0.99113	0.45237	0.31677	0.107
Mof_C 	C 	0.96193	0.60657	0.32357	0.514
Mof_C 	C 	0.0118	0.67174	0.32752	-0.024
Mof_C 	C 	0.01351	0.71005	0.34351	-0.081
Mof_H 	H 	0.98453	0.70267	0.35407	0.07
Mof_C 	C 	0.05765	0.75941	0.34399	0.029
Mof_H 	H 	0.05883	0.78567	0.35487	-0.01
Mof_N 	N 	0.1001	0.77038	0.32849	-0.229
Mof_C 	C 	0.0984	0.73203	0.3125	0.024
Mof_H 	H 	0.12743	0.73957	0.30187	-0.01
Mof_C 	C 	0.05425	0.6827	0.31202	-0.071
Mof_H 	H 	0.05313	0.65657	0.30107	0.07
Mof_C 	C 	0.8622	0.60596	0.21895	-0.156
Mof_H 	H 	0.83123	0.60237	0.22767	0.098
Mof_H 	H 	0.87613	0.63587	0.20727	0.087
Mof_H 	H 	0.88883	0.61147	0.23167	0.09
Mof_C 	C 	0.86778	0.49282	0.17162	0.306
Mof_C 	C 	0.85412	0.48181	0.14139	0.001
Mof_C 	C 	0.90294	0.48872	0.12707	-0.112
Mof_H 	H 	0.93473	0.49597	0.13497	0.081
Mof_C 	C 	0.89377	0.48295	0.10182	0.09
Mof_H 	H 	0.92403	0.49167	0.09197	-0.02
Mof_C 	C 	0.80451	0.45438	0.09835	0.011
Mof_H 	H 	0.77373	0.44157	0.08837	-0.002
Mof_C 	C 	0.80572	0.4616	0.12644	-0.061
Mof_H 	H 	0.77413	0.45287	0.13507	0.062
Mof_C 	C 	0.78184	0.43648	0.0417	-0.253
Mof_C 	C 	0.13473	0.89607	0.30138	-0.174
Mof_Cu	Cu	0.19663	0.71129	0.38208	0.858
Mof_O 	O 	0.3897	0.8932	0.56068	-0.144
Mof_O 	O 	0.38625	0.93291	0.60542	-0.227
Mof_O 	O 	0.46472	0.94754	0.60893	-0.265
Mof_O 	O 	0.103	0.6192	0.53933	-0.146
Mof_O 	O 	0.1896	0.6711	0.51169	-0.255
Mof_O 	O 	0.1756	0.7408	0.51539	-0.274
Mof_O 	O 	0.15807	0.8009	0.66282	-0.128
Mof_O 	O 	0.0797	0.7121	0.6436	-0.453
Mof_O 	O 	0.0605	0.6574	0.6751	-0.298
Mof_N 	N 	0.1986	0.7179	0.42161	-0.226
Mof_N 	N 	0.2703	0.6737	0.37433	-0.208
Mof_N 	N 	0.7977	0.6052	0.64672	-0.202
Mof_C 	C 	0.31643	0.7842	0.61949	0.084
Mof_C 	C 	0.33787	0.83702	0.62482	-0.157
Mof_H 	H 	0.3357	0.848	0.6416	0.102
Mof_C 	C 	0.36236	0.87371	0.60554	0.127
Mof_C 	C 	0.36542	0.85758	0.58094	0.084
Mof_C 	C 	0.34397	0.80476	0.57561	-0.113
Mof_H 	H 	0.346	0.7937	0.5588	0.077
Mof_C 	C 	0.31948	0.76807	0.59489	0.035
Mof_C 	C 	0.30007	0.7122	0.58834	-0.176
Mof_H 	H 	0.2998	0.6935	0.6041	0.065
Mof_H 	H 	0.3249	0.7105	0.5762	0.074
Mof_C 	C 	0.24536	0.68372	0.57649	0.041
Mof_C 	C 	0.24344	0.69035	0.55002	-0.117
Mof_H 	H 	0.2743	0.7079	0.54	0.08
Mof_C 	C 	0.18836	0.66759	0.53783	0.134
Mof_C 	C 	0.15182	0.64278	0.55293	0.051
Mof_C 	C 	0.15303	0.63424	0.57992	-0.099
Mof_H 	H 	0.1224	0.6135	0.5897	0.081
Mof_C 	C 	0.20616	0.66054	0.59118	0.051
Mof_C 	C 	0.20347	0.65201	0.6197	-0.209
Mof_H 	H 	0.2366	0.6553	0.6258	0.077
Mof_H 	H 	0.175	0.6164	0.6238	0.095
Mof_C 	C 	0.19379	0.69164	0.63318	0.077
Mof_C 	C 	0.14451	0.68308	0.63614	-0.179
Mof_H 	H 	0.1161	0.6506	0.6307	0.104
Mof_C 	C 	0.13438	0.71811	0.6463	0.157
Mof_C 	C 	0.17096	0.76375	0.65391	0.064
Mof_C 	C 	0.22479	0.77684	0.65144	-0.102
Mof_H 	H 	0.2528	0.8104	0.6559	0.079
Mof_C 	C 	0.23351	0.737	0.64205	0.039
Mof_C 	C 	0.28985	0.75412	0.64023	-0.211
Mof_H 	H 	0.3072	0.774	0.6559	0.085
Mof_H 	H 	0.2934	0.7226	0.6401	0.073
Mof_C 	C 	0.39065	0.87937	0.53482	-0.188
Mof_H 	H 	0.4043	0.8553	0.5339	0.099
Mof_H 	H 	0.4131	0.9108	0.5249	0.1
Mof_H 	H 	0.3552	0.8624	0.5278	0.097
Mof_C 	C 	0.44007	0.96776	0.60516	0.314
Mof_C 	C 	0.44675	0.01448	0.61149	-0.07
Mof_C 	C 	0.4064	0.02568	0.61145	-0.043
Mof_H 	H 	0.3713	0.9983	0.6095	0.078
Mof_C 	C 	0.41736	0.07688	0.61427	0.021
Mof_H 	H 	0.3897	0.0845	0.6142	0.004
Mof_N 	N 	0.46865	0.11687	0.61714	-0.198
Mof_C 	C 	0.50901	0.10568	0.61718	0.014
Mof_H 	H 	0.5441	0.133	0.6191	0.008
Mof_C 	C 	0.49805	0.05448	0.61436	-0.034
Mof_H 	H 	0.5256	0.0468	0.6144	0.045
Mof_C 	C 	0.19888	0.85638	0.66662	-0.215
Mof_H 	H 	0.2262	0.8582	0.678	0.113
Mof_H 	H 	0.1833	0.8755	0.6744	0.102
Mof_H 	H 	0.2143	0.8721	0.6501	0.112
Mof_C 	C 	0.0601	0.6887	0.6569	0.506
Mof_C 	C 	0.99493	0.6734	0.66085	-0.021
Mof_C 	C 	0.95662	0.6368	0.67684	-0.064
Mof_H 	H 	0.964	0.6152	0.6874	0.062
Mof_C 	C 	0.90726	0.63158	0.67732	0.023
Mof_H 	H 	0.881	0.6065	0.6882	-0.006
Mof_N 	N 	0.89629	0.66306	0.66182	-0.227
Mof_C 	C 	0.93464	0.69971	0.64583	0.018
Mof_H 	H 	0.9271	0.7212	0.6352	-0.006
Mof_C 	C 	0.98397	0.70489	0.64535	-0.054
Mof_H 	H 	0.0101	0.7299	0.6344	0.062
Mof_C 	C 	0.06071	0.58958	0.55228	-0.149
Mof_H 	H 	0.0643	0.5622	0.561	0.095
Mof_H 	H 	0.0308	0.5736	0.5406	0.082
Mof_H 	H 	0.0552	0.6107	0.565	0.086
Mof_C 	C 	0.17385	0.7083	0.50495	0.306
Mof_C 	C 	0.18486	0.70565	0.47472	-0
Mof_C 	C 	0.17795	0.74756	0.4604	-0.112
Mof_H 	H 	0.1707	0.7721	0.4683	0.08
Mof_C 	C 	0.18372	0.74416	0.43515	0.09
Mof_H 	H 	0.175	0.7657	0.4253	-0.021
Mof_C 	C 	0.21229	0.68347	0.43168	0.01
Mof_H 	H 	0.2251	0.6655	0.4217	-0.002
Mof_C 	C 	0.20507	0.67746	0.45977	-0.061
Mof_H 	H 	0.2138	0.6546	0.4684	0.061
Mof_C 	C 	0.23019	0.6787	0.37503	-0.253
Mof_C 	C 	0.7706	0.572	0.63471	-0.174
Mof_Cu	Cu	0.8633	0.04462	0.71541	0.857
Mof_O 	O 	0.05637	0.22653	0.89401	-0.147
Mof_O 	O 	0.05292	0.26624	0.93875	-0.228
Mof_O 	O 	0.13139	0.28087	0.94226	-0.264
Mof_O 	O 	0.76967	0.95253	0.87266	-0.144
Mof_O 	O 	0.85627	0.00443	0.84502	-0.253
Mof_O 	O 	0.84227	0.07413	0.84872	-0.273
Mof_O 	O 	0.82474	0.13423	0.99615	-0.128
Mof_O 	O 	0.74637	0.04543	0.97693	-0.452
Mof_O 	O 	0.72717	0.99073	0.00843	-0.289
Mof_N 	N 	0.86527	0.05123	0.75494	-0.225
Mof_N 	N 	0.93697	0.00703	0.70766	-0.207
Mof_N 	N 	0.46437	0.93853	0.98005	-0.199
Mof_C 	C 	0.9831	0.11753	0.95282	0.096
Mof_C 	C 	0.00454	0.17035	0.95815	-0.17
Mof_H 	H 	0.00237	0.18133	0.97493	0.104
Mof_C 	C 	0.02903	0.20704	0.93887	0.129
Mof_C 	C 	0.03209	0.19091	0.91427	0.085
Mof_C 	C 	0.01064	0.13809	0.90894	-0.122
Mof_H 	H 	0.01267	0.12703	0.89213	0.077
Mof_C 	C 	0.98615	0.1014	0.92822	0.039
Mof_C 	C 	0.96674	0.04553	0.92167	-0.17
Mof_H 	H 	0.96647	0.02683	0.93743	0.062
Mof_H 	H 	0.99157	0.04383	0.90953	0.074
Mof_C 	C 	0.91203	0.01705	0.90982	0.022
Mof_C 	C 	0.91011	0.02368	0.88335	-0.107
Mof_H 	H 	0.94097	0.04123	0.87333	0.077
Mof_C 	C 	0.85503	0.00092	0.87116	0.117
Mof_C 	C 	0.81849	0.97611	0.88626	0.069
Mof_C 	C 	0.8197	0.96757	0.91325	-0.11
Mof_H 	H 	0.78907	0.94683	0.92303	0.086
Mof_C 	C 	0.87283	0.99387	0.92451	0.07
Mof_C 	C 	0.87014	0.98534	0.95303	-0.213
Mof_H 	H 	0.90327	0.98863	0.95913	0.081
Mof_H 	H 	0.84167	0.94973	0.95713	0.097
Mof_C 	C 	0.86046	0.02497	0.96651	0.077
Mof_C 	C 	0.81118	0.01641	0.96947	-0.195
Mof_H 	H 	0.78277	0.98393	0.96403	0.114
Mof_C 	C 	0.80105	0.05144	0.97963	0.162
Mof_C 	C 	0.83763	0.09708	0.98724	0.062
Mof_C 	C 	0.89146	0.11017	0.98477	-0.102
Mof_H 	H 	0.91947	0.14373	0.98923	0.08
Mof_C 	C 	0.90018	0.07033	0.97538	0.04
Mof_C 	C 	0.95652	0.08745	0.97356	-0.219
Mof_H 	H 	0.97387	0.10733	0.98923	0.089
Mof_H 	H 	0.96007	0.05593	0.97343	0.075
Mof_C 	C 	0.05732	0.2127	0.86815	-0.183
Mof_H 	H 	0.07097	0.18863	0.86723	0.097
Mof_H 	H 	0.07977	0.24413	0.85823	0.096
Mof_H 	H 	0.02187	0.19573	0.86113	0.093
Mof_C 	C 	0.10674	0.30109	0.93849	0.305
Mof_C 	C 	0.11342	0.34781	0.94482	-0.064
Mof_C 	C 	0.07307	0.35901	0.94478	-0.029
Mof_H 	H 	0.03797	0.33163	0.94283	0.066
Mof_C 	C 	0.08403	0.41021	0.9476	0.016
Mof_H 	H 	0.05637	0.41783	0.94753	0.006
Mof_N 	N 	0.13532	0.4502	0.95047	-0.197
Mof_C 	C 	0.17568	0.43901	0.95051	0.015
Mof_H 	H 	0.21077	0.46633	0.95243	0.008
Mof_C 	C 	0.16472	0.38781	0.94769	-0.036
Mof_H 	H 	0.19227	0.38013	0.94773	0.048
Mof_C 	C 	0.86555	0.18971	0.99995	-0.212
Mof_H 	H 	0.89287	0.19153	0.01133	0.113
Mof_H 	H 	0.84997	0.20883	0.00773	0.101
Mof_H 	H 	0.88097	0.20543	0.98343	0.112
Mof_C 	C 	0.72677	0.02203	0.99023	0.503
Mof_C 	C 	0.6616	0.00673	0.99418	-0.036
Mof_C 	C 	0.62329	0.97013	0.01017	-0.05
Mof_H 	H 	0.63067	0.94853	0.02073	0.056
Mof_C 	C 	0.57393	0.96491	0.01065	0.018
Mof_H 	H 	0.54767	0.93983	0.02153	-0.003
Mof_N 	N 	0.56296	0.99639	0.99515	-0.22
Mof_C 	C 	0.60131	0.03304	0.97916	0.012
Mof_H 	H 	0.59377	0.05453	0.96853	-0.007
Mof_C 	C 	0.65064	0.03822	0.97868	-0.062
Mof_H 	H 	0.67677	0.06323	0.96773	0.069
Mof_C 	C 	0.72738	0.92291	0.88561	-0.154
Mof_H 	H 	0.73097	0.89553	0.89433	0.097
Mof_H 	H 	0.69747	0.90693	0.87393	0.087
Mof_H 	H 	0.72187	0.94403	0.89833	0.09
Mof_C 	C 	0.84052	0.04163	0.83828	0.303
Mof_C 	C 	0.85153	0.03898	0.80805	0.002
Mof_C 	C 	0.84462	0.08089	0.79373	-0.113
Mof_H 	H 	0.83737	0.10543	0.80163	0.081
Mof_C 	C 	0.85039	0.07749	0.76848	0.09
Mof_H 	H 	0.84167	0.09903	0.75863	-0.021
Mof_C 	C 	0.87896	0.0168	0.76501	0.001
Mof_H 	H 	0.89177	0.99883	0.75503	0.008
Mof_C 	C 	0.87174	0.01079	0.7931	-0.07
Mof_H 	H 	0.88047	0.98793	0.80173	0.071
Mof_C 	C 	0.89686	0.01203	0.70836	-0.256
Mof_C 	C 	0.43727	0.90533	0.96804	-0.173
Mof_Cu	Cu	0.52996	0.37796	0.04875	0.858
Mof_O 	O 	0.72303	0.55987	0.22735	-0.146
Mof_O 	O 	0.71958	0.59958	0.27209	-0.226
Mof_O 	O 	0.79805	0.61421	0.2756	-0.263
Mof_O 	O 	0.43633	0.28587	0.206	-0.144
Mof_O 	O 	0.52293	0.33777	0.17836	-0.255
Mof_O 	O 	0.50893	0.40747	0.18206	-0.274
Mof_O 	O 	0.4914	0.46757	0.32949	-0.128
Mof_O 	O 	0.41303	0.37877	0.31027	-0.454
Mof_O 	O 	0.39383	0.32407	0.34177	-0.297
Mof_N 	N 	0.53193	0.38457	0.08828	-0.226
Mof_N 	N 	0.60363	0.34037	0.041	-0.208
Mof_N 	N 	0.13103	0.27187	0.31339	-0.202
Mof_C 	C 	0.64976	0.45087	0.28616	0.084
Mof_C 	C 	0.6712	0.50369	0.29149	-0.157
Mof_H 	H 	0.66903	0.51467	0.30827	0.102
Mof_C 	C 	0.69569	0.54038	0.27221	0.127
Mof_C 	C 	0.69875	0.52425	0.24761	0.085
Mof_C 	C 	0.6773	0.47143	0.24228	-0.114
Mof_H 	H 	0.67933	0.46037	0.22547	0.077
Mof_C 	C 	0.65281	0.43474	0.26156	0.035
Mof_C 	C 	0.6334	0.37887	0.25501	-0.176
Mof_H 	H 	0.63313	0.36017	0.27077	0.065
Mof_H 	H 	0.65823	0.37717	0.24287	0.074
Mof_C 	C 	0.57869	0.35039	0.24316	0.041
Mof_C 	C 	0.57677	0.35702	0.21669	-0.117
Mof_H 	H 	0.60763	0.37457	0.20667	0.08
Mof_C 	C 	0.52169	0.33426	0.2045	0.134
Mof_C 	C 	0.48515	0.30945	0.2196	0.051
Mof_C 	C 	0.48636	0.30091	0.24659	-0.099
Mof_H 	H 	0.45573	0.28017	0.25637	0.082
Mof_C 	C 	0.53949	0.32721	0.25785	0.052
Mof_C 	C 	0.5368	0.31868	0.28637	-0.209
Mof_H 	H 	0.56993	0.32197	0.29247	0.077
Mof_H 	H 	0.50833	0.28307	0.29047	0.095
Mof_C 	C 	0.52712	0.35831	0.29985	0.078
Mof_C 	C 	0.47784	0.34975	0.30281	-0.179
Mof_H 	H 	0.44943	0.31727	0.29737	0.105
Mof_C 	C 	0.46771	0.38478	0.31297	0.158
Mof_C 	C 	0.50429	0.43042	0.32058	0.064
Mof_C 	C 	0.55812	0.44351	0.31811	-0.102
Mof_H 	H 	0.58613	0.47707	0.32257	0.079
Mof_C 	C 	0.56684	0.40367	0.30872	0.039
Mof_C 	C 	0.62318	0.42079	0.3069	-0.211
Mof_H 	H 	0.64053	0.44067	0.32257	0.084
Mof_H 	H 	0.62673	0.38927	0.30677	0.073
Mof_C 	C 	0.72398	0.54604	0.20149	-0.186
Mof_H 	H 	0.73763	0.52197	0.20057	0.098
Mof_H 	H 	0.74643	0.57747	0.19157	0.098
Mof_H 	H 	0.68853	0.52907	0.19447	0.096
Mof_C 	C 	0.7734	0.63443	0.27183	0.305
Mof_C 	C 	0.78008	0.68115	0.27816	-0.063
Mof_C 	C 	0.73973	0.69235	0.27812	-0.029
Mof_H 	H 	0.70463	0.66497	0.27617	0.068
Mof_C 	C 	0.75069	0.74355	0.28094	0.016
Mof_H 	H 	0.72303	0.75117	0.28087	0.007
Mof_N 	N 	0.80198	0.78354	0.28381	-0.197
Mof_C 	C 	0.84234	0.77235	0.28385	0.016
Mof_H 	H 	0.87743	0.79967	0.28577	0.009
Mof_C 	C 	0.83138	0.72115	0.28103	-0.036
Mof_H 	H 	0.85893	0.71347	0.28107	0.049
Mof_C 	C 	0.53221	0.52305	0.33329	-0.214
Mof_H 	H 	0.55953	0.52487	0.34467	0.113
Mof_H 	H 	0.51663	0.54217	0.34107	0.102
Mof_H 	H 	0.54763	0.53877	0.31677	0.112
Mof_C 	C 	0.39343	0.35537	0.32357	0.51
Mof_C 	C 	0.32826	0.34007	0.32752	-0.023
Mof_C 	C 	0.28995	0.30347	0.34351	-0.065
Mof_H 	H 	0.29733	0.28187	0.35407	0.059
Mof_C 	C 	0.24059	0.29825	0.34399	0.023
Mof_H 	H 	0.21433	0.27317	0.35487	-0.007
Mof_N 	N 	0.22962	0.32973	0.32849	-0.228
Mof_C 	C 	0.26797	0.36638	0.3125	0.024
Mof_H 	H 	0.26043	0.38787	0.30187	-0.01
Mof_C 	C 	0.3173	0.37156	0.31202	-0.07
Mof_H 	H 	0.34343	0.39657	0.30107	0.072
Mof_C 	C 	0.39404	0.25625	0.21895	-0.153
Mof_H 	H 	0.39763	0.22887	0.22767	0.096
Mof_H 	H 	0.36413	0.24027	0.20727	0.085
Mof_H 	H 	0.38853	0.27737	0.23167	0.088
Mof_C 	C 	0.50718	0.37497	0.17162	0.306
Mof_C 	C 	0.51819	0.37232	0.14139	0
Mof_C 	C 	0.51128	0.41423	0.12707	-0.112
Mof_H 	H 	0.50403	0.43877	0.13497	0.08
Mof_C 	C 	0.51705	0.41083	0.10182	0.09
Mof_H 	H 	0.50833	0.43237	0.09197	-0.021
Mof_C 	C 	0.54562	0.35014	0.09835	0.01
Mof_H 	H 	0.55843	0.33217	0.08837	-0.002
Mof_C 	C 	0.5384	0.34413	0.12644	-0.061
Mof_H 	H 	0.54713	0.32127	0.13507	0.062
Mof_C 	C 	0.56352	0.34537	0.0417	-0.253
Mof_C 	C 	0.10393	0.23867	0.30138	-0.176
Mof_Cu	Cu	0.71129	0.51466	0.61792	0.858
Mof_O 	O 	0.8932	0.5035	0.43932	-0.144
Mof_O 	O 	0.93291	0.54666	0.39458	-0.227
Mof_O 	O 	0.94754	0.48282	0.39107	-0.265
Mof_O 	O 	0.6192	0.5162	0.46067	-0.144
Mof_O 	O 	0.6711	0.4815	0.48831	-0.255
Mof_O 	O 	0.7408	0.5652	0.48461	-0.273
Mof_O 	O 	0.8009	0.64283	0.33718	-0.127
Mof_O 	O 	0.7121	0.6324	0.3564	-0.453
Mof_O 	O 	0.6574	0.5969	0.3249	-0.297
Mof_N 	N 	0.7179	0.5193	0.57839	-0.226
Mof_N 	N 	0.6737	0.4034	0.62567	-0.208
Mof_N 	N 	0.6052	0.8075	0.35328	-0.202
Mof_C 	C 	0.7842	0.46777	0.38051	0.084
Mof_C 	C 	0.83702	0.49915	0.37518	-0.157
Mof_H 	H 	0.848	0.5123	0.3584	0.102
Mof_C 	C 	0.87371	0.51135	0.39446	0.127
Mof_C 	C 	0.85758	0.49216	0.41906	0.084
Mof_C 	C 	0.80476	0.46079	0.42439	-0.113
Mof_H 	H 	0.7937	0.4477	0.4412	0.077
Mof_C 	C 	0.76807	0.44859	0.40511	0.035
Mof_C 	C 	0.7122	0.41213	0.41166	-0.176
Mof_H 	H 	0.6935	0.3937	0.3959	0.065
Mof_H 	H 	0.7105	0.3856	0.4238	0.074
Mof_C 	C 	0.68372	0.43836	0.42351	0.041
Mof_C 	C 	0.69035	0.44691	0.44998	-0.117
Mof_H 	H 	0.7079	0.4336	0.46	0.08
Mof_C 	C 	0.66759	0.47923	0.46217	0.134
Mof_C 	C 	0.64278	0.49096	0.44707	0.051
Mof_C 	C 	0.63424	0.48121	0.42008	-0.099
Mof_H 	H 	0.6135	0.4911	0.4103	0.082
Mof_C 	C 	0.66054	0.45438	0.40882	0.052
Mof_C 	C 	0.65201	0.44854	0.3803	-0.209
Mof_H 	H 	0.6553	0.4187	0.3742	0.077
Mof_H 	H 	0.6164	0.4414	0.3762	0.095
Mof_C 	C 	0.69164	0.49785	0.36682	0.078
Mof_C 	C 	0.68308	0.53857	0.36386	-0.179
Mof_H 	H 	0.6506	0.5345	0.3693	0.105
Mof_C 	C 	0.71811	0.58373	0.3537	0.158
Mof_C 	C 	0.76375	0.59279	0.34609	0.064
Mof_C 	C 	0.77684	0.55205	0.34856	-0.102
Mof_H 	H 	0.8104	0.5576	0.3441	0.079
Mof_C 	C 	0.737	0.50349	0.35795	0.039
Mof_C 	C 	0.75412	0.46427	0.35977	-0.211
Mof_H 	H 	0.774	0.4668	0.3441	0.084
Mof_H 	H 	0.7226	0.4292	0.3599	0.073
Mof_C 	C 	0.87937	0.48872	0.46518	-0.188
Mof_H 	H 	0.8553	0.451	0.4661	0.099
Mof_H 	H 	0.9108	0.4977	0.4751	0.1
Mof_H 	H 	0.8624	0.5072	0.4722	0.097
Mof_C 	C 	0.96776	0.52769	0.39484	0.314
Mof_C 	C 	0.01448	0.56773	0.38851	-0.07
Mof_C 	C 	0.02568	0.61928	0.38855	-0.042
Mof_H 	H 	0.9983	0.627	0.3905	0.078
Mof_C 	C 	0.07688	0.65952	0.38573	0.021
Mof_H 	H 	0.0845	0.6948	0.3858	0.005
Mof_N 	N 	0.11687	0.64822	0.38286	-0.198
Mof_C 	C 	0.10568	0.59667	0.38282	0.014
Mof_H 	H 	0.133	0.5889	0.3809	0.008
Mof_C 	C 	0.05448	0.55643	0.38564	-0.034
Mof_H 	H 	0.0468	0.5212	0.3856	0.045
Mof_C 	C 	0.85638	0.6575	0.33338	-0.216
Mof_H 	H 	0.8582	0.632	0.322	0.114
Mof_H 	H 	0.8755	0.6922	0.3256	0.103
Mof_H 	H 	0.8721	0.6578	0.3499	0.113
Mof_C 	C 	0.6887	0.6286	0.3431	0.51
Mof_C 	C 	0.6734	0.67847	0.33915	-0.023
Mof_C 	C 	0.6368	0.68018	0.32316	-0.065
Mof_H 	H 	0.6152	0.6512	0.3126	0.06
Mof_C 	C 	0.63158	0.72432	0.32268	0.023
Mof_H 	H 	0.6065	0.7255	0.3118	-0.006
Mof_N 	N 	0.66306	0.76677	0.33818	-0.228
Mof_C 	C 	0.69971	0.76507	0.35417	0.024
Mof_H 	H 	0.7212	0.7941	0.3648	-0.009
Mof_C 	C 	0.70489	0.72092	0.35465	-0.07
Mof_H 	H 	0.7299	0.7198	0.3656	0.072
Mof_C 	C 	0.58958	0.52887	0.44772	-0.154
Mof_H 	H 	0.5622	0.4979	0.439	0.097
Mof_H 	H 	0.5736	0.5428	0.4594	0.086
Mof_H 	H 	0.6107	0.5555	0.435	0.089
Mof_C 	C 	0.7083	0.53445	0.49505	0.306
Mof_C 	C 	0.70565	0.52079	0.52528	0
Mof_C 	C 	0.74756	0.56961	0.5396	-0.112
Mof_H 	H 	0.7721	0.6014	0.5317	0.081
Mof_C 	C 	0.74416	0.56044	0.56485	0.09
Mof_H 	H 	0.7657	0.5907	0.5747	-0.021
Mof_C 	C 	0.68347	0.47118	0.56832	0.011
Mof_H 	H 	0.6655	0.4404	0.5783	-0.002
Mof_C 	C 	0.67746	0.47239	0.54023	-0.061
Mof_H 	H 	0.6546	0.4408	0.5316	0.062
Mof_C 	C 	0.6787	0.44851	0.62497	-0.253
Mof_C 	C 	0.572	0.8014	0.36529	-0.174
Mof_Cu	Cu	0.37796	0.84799	0.95125	0.858
Mof_O 	O 	0.55987	0.83683	0.77265	-0.145
Mof_O 	O 	0.59958	0.87999	0.72791	-0.226
Mof_O 	O 	0.61421	0.81615	0.7244	-0.263
Mof_O 	O 	0.28587	0.84953	0.794	-0.143
Mof_O 	O 	0.33777	0.81483	0.82164	-0.255
Mof_O 	O 	0.40747	0.89853	0.81794	-0.273
Mof_O 	O 	0.46757	0.97616	0.67051	-0.129
Mof_O 	O 	0.37877	0.96573	0.68973	-0.453
Mof_O 	O 	0.32407	0.93023	0.65823	-0.297
Mof_N 	N 	0.38457	0.85263	0.91172	-0.226
Mof_N 	N 	0.34037	0.73673	0.959	-0.208
Mof_N 	N 	0.27187	0.14083	0.68661	-0.202
Mof_C 	C 	0.45087	0.8011	0.71384	0.084
Mof_C 	C 	0.50369	0.83248	0.70851	-0.156
Mof_H 	H 	0.51467	0.84563	0.69173	0.102
Mof_C 	C 	0.54038	0.84468	0.72779	0.127
Mof_C 	C 	0.52425	0.82549	0.75239	0.085
Mof_C 	C 	0.47143	0.79412	0.75772	-0.114
Mof_H 	H 	0.46037	0.78103	0.77453	0.077
Mof_C 	C 	0.43474	0.78192	0.73844	0.035
Mof_C 	C 	0.37887	0.74546	0.74499	-0.176
Mof_H 	H 	0.36017	0.72703	0.72923	0.065
Mof_H 	H 	0.37717	0.71893	0.75713	0.074
Mof_C 	C 	0.35039	0.77169	0.75684	0.041
Mof_C 	C 	0.35702	0.78024	0.78331	-0.117
Mof_H 	H 	0.37457	0.76693	0.79333	0.08
Mof_C 	C 	0.33426	0.81256	0.7955	0.135
Mof_C 	C 	0.30945	0.82429	0.7804	0.051
Mof_C 	C 	0.30091	0.81454	0.75341	-0.098
Mof_H 	H 	0.28017	0.82443	0.74363	0.082
Mof_C 	C 	0.32721	0.78771	0.74215	0.051
Mof_C 	C 	0.31868	0.78187	0.71363	-0.209
Mof_H 	H 	0.32197	0.75203	0.70753	0.077
Mof_H 	H 	0.28307	0.77473	0.70953	0.095
Mof_C 	C 	0.35831	0.83118	0.70015	0.077
Mof_C 	C 	0.34975	0.8719	0.69719	-0.179
Mof_H 	H 	0.31727	0.86783	0.70263	0.105
Mof_C 	C 	0.38478	0.91706	0.68703	0.157
Mof_C 	C 	0.43042	0.92612	0.67942	0.066
Mof_C 	C 	0.44351	0.88538	0.68189	-0.103
Mof_H 	H 	0.47707	0.89093	0.67743	0.08
Mof_C 	C 	0.40367	0.83682	0.69128	0.039
Mof_C 	C 	0.42079	0.7976	0.6931	-0.211
Mof_H 	H 	0.44067	0.80013	0.67743	0.085
Mof_H 	H 	0.38927	0.76253	0.69323	0.073
Mof_C 	C 	0.54604	0.82205	0.79851	-0.187
Mof_H 	H 	0.52197	0.78433	0.79943	0.099
Mof_H 	H 	0.57747	0.83103	0.80843	0.099
Mof_H 	H 	0.52907	0.84053	0.80553	0.096
Mof_C 	C 	0.63443	0.86102	0.72817	0.303
Mof_C 	C 	0.68115	0.90106	0.72184	-0.057
Mof_C 	C 	0.69235	0.95261	0.72188	-0.039
Mof_H 	H 	0.66497	0.96033	0.72383	0.073
Mof_C 	C 	0.74355	0.99285	0.71906	0.034
Mof_H 	H 	0.75117	0.02813	0.71913	-0.004
Mof_N 	N 	0.78354	0.98155	0.71619	-0.197
Mof_C 	C 	0.77235	0.93	0.71615	0.018
Mof_H 	H 	0.79967	0.92223	0.71423	0.009
Mof_C 	C 	0.72115	0.88976	0.71897	-0.04
Mof_H 	H 	0.71347	0.85453	0.71893	0.049
Mof_C 	C 	0.52305	0.99083	0.66671	-0.189
Mof_H 	H 	0.52487	0.96533	0.65533	0.107
Mof_H 	H 	0.54217	0.02553	0.65893	0.089
Mof_H 	H 	0.53877	0.99113	0.68323	0.107
Mof_C 	C 	0.35537	0.96193	0.67643	0.515
Mof_C 	C 	0.34007	0.0118	0.67248	-0.024
Mof_C 	C 	0.30347	0.01351	0.65649	-0.082
Mof_H 	H 	0.28187	0.98453	0.64593	0.071
Mof_C 	C 	0.29825	0.05765	0.65601	0.029
Mof_H 	H 	0.27317	0.05883	0.64513	-0.011
Mof_N 	N 	0.32973	0.1001	0.67151	-0.229
Mof_C 	C 	0.36638	0.0984	0.6875	0.024
Mof_H 	H 	0.38787	0.12743	0.69813	-0.01
Mof_C 	C 	0.37156	0.05425	0.68798	-0.072
Mof_H 	H 	0.39657	0.05313	0.69893	0.07
Mof_C 	C 	0.25625	0.8622	0.78105	-0.155
Mof_H 	H 	0.22887	0.83123	0.77233	0.097
Mof_H 	H 	0.24027	0.87613	0.79273	0.087
Mof_H 	H 	0.27737	0.88883	0.76833	0.09
Mof_C 	C 	0.37497	0.86778	0.82838	0.306
Mof_C 	C 	0.37232	0.85412	0.85861	0.001
Mof_C 	C 	0.41423	0.90294	0.87293	-0.112
Mof_H 	H 	0.43877	0.93473	0.86503	0.081
Mof_C 	C 	0.41083	0.89377	0.89818	0.09
Mof_H 	H 	0.43237	0.92403	0.90803	-0.02
Mof_C 	C 	0.35014	0.80451	0.90165	0.011
Mof_H 	H 	0.33217	0.77373	0.91163	-0.002
Mof_C 	C 	0.34413	0.80572	0.87356	-0.061
Mof_H 	H 	0.32127	0.77413	0.86493	0.062
Mof_C 	C 	0.34537	0.78184	0.9583	-0.253
Mof_C 	C 	0.23867	0.13473	0.69862	-0.176
Mof_Cu	Cu	0.04462	0.18133	0.28459	0.856
Mof_O 	O 	0.22653	0.17017	0.10599	-0.146
Mof_O 	O 	0.26624	0.21333	0.06125	-0.227
Mof_O 	O 	0.28087	0.14949	0.05774	-0.264
Mof_O 	O 	0.95253	0.18287	0.12734	-0.145
Mof_O 	O 	0.00443	0.14817	0.15498	-0.254
Mof_O 	O 	0.07413	0.23187	0.15128	-0.275
Mof_O 	O 	0.13423	0.3095	0.00385	-0.127
Mof_O 	O 	0.04543	0.29907	0.02307	-0.452
Mof_O 	O 	0.99073	0.26357	0.99157	-0.287
Mof_N 	N 	0.05123	0.18597	0.24506	-0.225
Mof_N 	N 	0.00703	0.07007	0.29234	-0.211
Mof_N 	N 	0.93853	0.47417	0.01995	-0.2
Mof_C 	C 	0.11753	0.13444	0.04718	0.086
Mof_C 	C 	0.17035	0.16582	0.04185	-0.158
Mof_H 	H 	0.18133	0.17897	0.02507	0.103
Mof_C 	C 	0.20704	0.17802	0.06113	0.128
Mof_C 	C 	0.19091	0.15883	0.08573	0.083
Mof_C 	C 	0.13809	0.12746	0.09106	-0.11
Mof_H 	H 	0.12703	0.11437	0.10787	0.075
Mof_C 	C 	0.1014	0.11526	0.07178	0.029
Mof_C 	C 	0.04553	0.0788	0.07833	-0.161
Mof_H 	H 	0.02683	0.06037	0.06257	0.056
Mof_H 	H 	0.04383	0.05227	0.09047	0.066
Mof_C 	C 	0.01705	0.10503	0.09018	0.015
Mof_C 	C 	0.02368	0.11358	0.11665	-0.104
Mof_H 	H 	0.04123	0.10027	0.12667	0.073
Mof_C 	C 	0.00092	0.1459	0.12884	0.114
Mof_C 	C 	0.97611	0.15763	0.11374	0.071
Mof_C 	C 	0.96757	0.14788	0.08675	-0.112
Mof_H 	H 	0.94683	0.15777	0.07697	0.087
Mof_C 	C 	0.99387	0.12105	0.07549	0.074
Mof_C 	C 	0.98534	0.11521	0.04697	-0.215
Mof_H 	H 	0.98863	0.08537	0.04087	0.081
Mof_H 	H 	0.94973	0.10807	0.04287	0.097
Mof_C 	C 	0.02497	0.16452	0.03349	0.079
Mof_C 	C 	0.01641	0.20524	0.03053	-0.198
Mof_H 	H 	0.98393	0.20117	0.03597	0.116
Mof_C 	C 	0.05144	0.2504	0.02037	0.163
Mof_C 	C 	0.09708	0.25946	0.01276	0.06
Mof_C 	C 	0.11017	0.21872	0.01523	-0.099
Mof_H 	H 	0.14373	0.22427	0.01077	0.078
Mof_C 	C 	0.07033	0.17016	0.02462	0.035
Mof_C 	C 	0.08745	0.13094	0.02644	-0.21
Mof_H 	H 	0.10733	0.13347	0.01077	0.083
Mof_H 	H 	0.05593	0.09587	0.02657	0.07
Mof_C 	C 	0.2127	0.15539	0.13185	-0.185
Mof_H 	H 	0.18863	0.11767	0.13277	0.097
Mof_H 	H 	0.24413	0.16437	0.14177	0.097
Mof_H 	H 	0.19573	0.17387	0.13887	0.095
Mof_C 	C 	0.30109	0.19436	0.06151	0.305
Mof_C 	C 	0.34781	0.2344	0.05518	-0.063
Mof_C 	C 	0.35901	0.28595	0.05522	-0.029
Mof_H 	H 	0.33163	0.29367	0.05717	0.068
Mof_C 	C 	0.41021	0.32619	0.0524	0.016
Mof_H 	H 	0.41783	0.36147	0.05247	0.007
Mof_N 	N 	0.4502	0.31489	0.04953	-0.197
Mof_C 	C 	0.43901	0.26334	0.04949	0.015
Mof_H 	H 	0.46633	0.25557	0.04757	0.008
Mof_C 	C 	0.38781	0.2231	0.05231	-0.036
Mof_H 	H 	0.38013	0.18787	0.05227	0.047
Mof_C 	C 	0.18971	0.32417	5e-05	-0.217
Mof_H 	H 	0.19153	0.29867	0.98867	0.114
Mof_H 	H 	0.20883	0.35887	0.99227	0.103
Mof_H 	H 	0.20543	0.32447	0.01657	0.113
Mof_C 	C 	0.02203	0.29527	0.00977	0.501
Mof_C 	C 	0.00673	0.34514	0.00582	-0.037
Mof_C 	C 	0.97013	0.34685	0.98983	-0.048
Mof_H 	H 	0.94853	0.31787	0.97927	0.056
Mof_C 	C 	0.96491	0.39099	0.98935	0.018
Mof_H 	H 	0.93983	0.39217	0.97847	-0.003
Mof_N 	N 	0.99639	0.43344	0.00485	-0.22
Mof_C 	C 	0.03304	0.43174	0.02084	0.011
Mof_H 	H 	0.05453	0.46077	0.03147	-0.007
Mof_C 	C 	0.03822	0.38759	0.02132	-0.061
Mof_H 	H 	0.06323	0.38647	0.03227	0.068
Mof_C 	C 	0.92291	0.19554	0.11439	-0.153
Mof_H 	H 	0.89553	0.16457	0.10567	0.097
Mof_H 	H 	0.90693	0.20947	0.12607	0.087
Mof_H 	H 	0.94403	0.22217	0.10167	0.089
Mof_C 	C 	0.04163	0.20112	0.16172	0.303
Mof_C 	C 	0.03898	0.18746	0.19195	0.001
Mof_C 	C 	0.08089	0.23628	0.20627	-0.113
Mof_H 	H 	0.10543	0.26807	0.19837	0.08
Mof_C 	C 	0.07749	0.22711	0.23152	0.089
Mof_H 	H 	0.09903	0.25737	0.24137	-0.022
Mof_C 	C 	0.0168	0.13785	0.23499	-0.001
Mof_H 	H 	0.99883	0.10707	0.24497	0.007
Mof_C 	C 	0.01079	0.13906	0.2069	-0.072
Mof_H 	H 	0.98793	0.10747	0.19827	0.07
Mof_C 	C 	0.01203	0.11518	0.29164	-0.259
Mof_C 	C 	0.90533	0.46807	0.03196	-0.173
Mof_Cu	Cu	0.48534	0.19663	0.61792	0.858
Mof_O 	O 	0.4965	0.3897	0.43932	-0.146
Mof_O 	O 	0.45334	0.38625	0.39458	-0.227
Mof_O 	O 	0.51718	0.46472	0.39107	-0.264
Mof_O 	O 	0.4838	0.103	0.46067	-0.146
Mof_O 	O 	0.5185	0.1896	0.48831	-0.255
Mof_O 	O 	0.4348	0.1756	0.48461	-0.275
Mof_O 	O 	0.35717	0.15807	0.33718	-0.129
Mof_O 	O 	0.3676	0.0797	0.3564	-0.453
Mof_O 	O 	0.4031	0.0605	0.3249	-0.299
Mof_N 	N 	0.4807	0.1986	0.57839	-0.226
Mof_N 	N 	0.5966	0.2703	0.62567	-0.208
Mof_N 	N 	0.1925	0.7977	0.35328	-0.202
Mof_C 	C 	0.53223	0.31643	0.38051	0.084
Mof_C 	C 	0.50085	0.33787	0.37518	-0.157
Mof_H 	H 	0.4877	0.3357	0.3584	0.102
Mof_C 	C 	0.48865	0.36236	0.39446	0.127
Mof_C 	C 	0.50784	0.36542	0.41906	0.085
Mof_C 	C 	0.53921	0.34397	0.42439	-0.114
Mof_H 	H 	0.5523	0.346	0.4412	0.077
Mof_C 	C 	0.55141	0.31948	0.40511	0.035
Mof_C 	C 	0.58787	0.30007	0.41166	-0.176
Mof_H 	H 	0.6063	0.2998	0.3959	0.065
Mof_H 	H 	0.6144	0.3249	0.4238	0.074
Mof_C 	C 	0.56164	0.24536	0.42351	0.041
Mof_C 	C 	0.55309	0.24344	0.44998	-0.117
Mof_H 	H 	0.5664	0.2743	0.46	0.08
Mof_C 	C 	0.52077	0.18836	0.46217	0.134
Mof_C 	C 	0.50904	0.15182	0.44707	0.051
Mof_C 	C 	0.51879	0.15303	0.42008	-0.099
Mof_H 	H 	0.5089	0.1224	0.4103	0.081
Mof_C 	C 	0.54562	0.20616	0.40882	0.051
Mof_C 	C 	0.55146	0.20347	0.3803	-0.209
Mof_H 	H 	0.5813	0.2366	0.3742	0.077
Mof_H 	H 	0.5586	0.175	0.3762	0.095
Mof_C 	C 	0.50215	0.19379	0.36682	0.077
Mof_C 	C 	0.46143	0.14451	0.36386	-0.179
Mof_H 	H 	0.4655	0.1161	0.3693	0.104
Mof_C 	C 	0.41627	0.13438	0.3537	0.157
Mof_C 	C 	0.40721	0.17096	0.34609	0.064
Mof_C 	C 	0.44795	0.22479	0.34856	-0.102
Mof_H 	H 	0.4424	0.2528	0.3441	0.079
Mof_C 	C 	0.49651	0.23351	0.35795	0.039
Mof_C 	C 	0.53573	0.28985	0.35977	-0.211
Mof_H 	H 	0.5332	0.3072	0.3441	0.085
Mof_H 	H 	0.5708	0.2934	0.3599	0.073
Mof_C 	C 	0.51128	0.39065	0.46518	-0.186
Mof_H 	H 	0.549	0.4043	0.4661	0.098
Mof_H 	H 	0.5023	0.4131	0.4751	0.098
Mof_H 	H 	0.4928	0.3552	0.4722	0.095
Mof_C 	C 	0.47231	0.44007	0.39484	0.305
Mof_C 	C 	0.43227	0.44675	0.38851	-0.063
Mof_C 	C 	0.38072	0.4064	0.38855	-0.03
Mof_H 	H 	0.373	0.3713	0.3905	0.068
Mof_C 	C 	0.34048	0.41736	0.38573	0.016
Mof_H 	H 	0.3052	0.3897	0.3858	0.007
Mof_N 	N 	0.35178	0.46865	0.38286	-0.197
Mof_C 	C 	0.40333	0.50901	0.38282	0.015
Mof_H 	H 	0.4111	0.5441	0.3809	0.008
Mof_C 	C 	0.44357	0.49805	0.38564	-0.036
Mof_H 	H 	0.4788	0.5256	0.3856	0.048
Mof_C 	C 	0.3425	0.19888	0.33338	-0.213
Mof_H 	H 	0.368	0.2262	0.322	0.113
Mof_H 	H 	0.3078	0.1833	0.3256	0.101
Mof_H 	H 	0.3422	0.2143	0.3499	0.111
Mof_C 	C 	0.3714	0.0601	0.3431	0.506
Mof_C 	C 	0.32153	0.99493	0.33915	-0.021
Mof_C 	C 	0.31982	0.95662	0.32316	-0.064
Mof_H 	H 	0.3488	0.964	0.3126	0.062
Mof_C 	C 	0.27568	0.90726	0.32268	0.023
Mof_H 	H 	0.2745	0.881	0.3118	-0.006
Mof_N 	N 	0.23323	0.89629	0.33818	-0.227
Mof_C 	C 	0.23493	0.93464	0.35417	0.018
Mof_H 	H 	0.2059	0.9271	0.3648	-0.006
Mof_C 	C 	0.27908	0.98397	0.35465	-0.054
Mof_H 	H 	0.2802	0.0101	0.3656	0.061
Mof_C 	C 	0.47113	0.06071	0.44772	-0.148
Mof_H 	H 	0.5021	0.0643	0.439	0.094
Mof_H 	H 	0.4572	0.0308	0.4594	0.082
Mof_H 	H 	0.4445	0.0552	0.435	0.085
Mof_C 	C 	0.46555	0.17385	0.49505	0.306
Mof_C 	C 	0.47921	0.18486	0.52528	-0
Mof_C 	C 	0.43039	0.17795	0.5396	-0.113
Mof_H 	H 	0.3986	0.1707	0.5317	0.079
Mof_C 	C 	0.43956	0.18372	0.56485	0.089
Mof_H 	H 	0.4093	0.175	0.5747	-0.022
Mof_C 	C 	0.52882	0.21229	0.56832	0.01
Mof_H 	H 	0.5596	0.2251	0.5783	-0.002
Mof_C 	C 	0.52761	0.20507	0.54023	-0.061
Mof_H 	H 	0.5592	0.2138	0.5316	0.061
Mof_C 	C 	0.55149	0.23019	0.62497	-0.254
Mof_C 	C 	0.1986	0.7706	0.36529	-0.174
Mof_Cu	Cu	0.15201	0.52996	0.95125	0.858
Mof_O 	O 	0.16317	0.72303	0.77265	-0.146
Mof_O 	O 	0.12001	0.71958	0.72791	-0.227
Mof_O 	O 	0.18385	0.79805	0.7244	-0.264
Mof_O 	O 	0.15047	0.43633	0.794	-0.145
Mof_O 	O 	0.18517	0.52293	0.82164	-0.255
Mof_O 	O 	0.10147	0.50893	0.81794	-0.276
Mof_O 	O 	0.02384	0.4914	0.67051	-0.126
Mof_O 	O 	0.03427	0.41303	0.68973	-0.455
Mof_O 	O 	0.06977	0.39383	0.65823	-0.298
Mof_N 	N 	0.14737	0.53193	0.91172	-0.226
Mof_N 	N 	0.26327	0.60363	0.959	-0.208
Mof_N 	N 	0.85917	0.13103	0.68661	-0.202
Mof_C 	C 	0.1989	0.64976	0.71384	0.084
Mof_C 	C 	0.16752	0.6712	0.70851	-0.157
Mof_H 	H 	0.15437	0.66903	0.69173	0.102
Mof_C 	C 	0.15532	0.69569	0.72779	0.127
Mof_C 	C 	0.17451	0.69875	0.75239	0.085
Mof_C 	C 	0.20588	0.6773	0.75772	-0.114
Mof_H 	H 	0.21897	0.67933	0.77453	0.077
Mof_C 	C 	0.21808	0.65281	0.73844	0.035
Mof_C 	C 	0.25454	0.6334	0.74499	-0.176
Mof_H 	H 	0.27297	0.63313	0.72923	0.065
Mof_H 	H 	0.28107	0.65823	0.75713	0.074
Mof_C 	C 	0.22831	0.57869	0.75684	0.041
Mof_C 	C 	0.21976	0.57677	0.78331	-0.118
Mof_H 	H 	0.23307	0.60763	0.79333	0.08
Mof_C 	C 	0.18744	0.52169	0.7955	0.134
Mof_C 	C 	0.17571	0.48515	0.7804	0.051
Mof_C 	C 	0.18546	0.48636	0.75341	-0.099
Mof_H 	H 	0.17557	0.45573	0.74363	0.082
Mof_C 	C 	0.21229	0.53949	0.74215	0.052
Mof_C 	C 	0.21813	0.5368	0.71363	-0.209
Mof_H 	H 	0.24797	0.56993	0.70753	0.077
Mof_H 	H 	0.22527	0.50833	0.70953	0.096
Mof_C 	C 	0.16882	0.52712	0.70015	0.078
Mof_C 	C 	0.1281	0.47784	0.69719	-0.18
Mof_H 	H 	0.13217	0.44943	0.70263	0.105
Mof_C 	C 	0.08294	0.46771	0.68703	0.158
Mof_C 	C 	0.07388	0.50429	0.67942	0.062
Mof_C 	C 	0.11462	0.55812	0.68189	-0.101
Mof_H 	H 	0.10907	0.58613	0.67743	0.079
Mof_C 	C 	0.16318	0.56684	0.69128	0.038
Mof_C 	C 	0.2024	0.62318	0.6931	-0.211
Mof_H 	H 	0.19987	0.64053	0.67743	0.084
Mof_H 	H 	0.23747	0.62673	0.69323	0.073
Mof_C 	C 	0.17795	0.72398	0.79851	-0.185
Mof_H 	H 	0.21567	0.73763	0.79943	0.098
Mof_H 	H 	0.16897	0.74643	0.80843	0.097
Mof_H 	H 	0.15947	0.68853	0.80553	0.095
Mof_C 	C 	0.13898	0.7734	0.72817	0.307
Mof_C 	C 	0.09894	0.78008	0.72184	-0.068
Mof_C 	C 	0.04739	0.73973	0.72188	-0.021
Mof_H 	H 	0.03967	0.70463	0.72383	0.063
Mof_C 	C 	0.00715	0.75069	0.71906	-0.002
Mof_H 	H 	0.97187	0.72303	0.71913	0.018
Mof_N 	N 	0.01845	0.80198	0.71619	-0.197
Mof_C 	C 	0.07	0.84234	0.71615	0.013
Mof_H 	H 	0.07777	0.87743	0.71423	0.009
Mof_C 	C 	0.11024	0.83138	0.71897	-0.033
Mof_H 	H 	0.14547	0.85893	0.71893	0.047
Mof_C 	C 	0.00917	0.53221	0.66671	-0.238
Mof_H 	H 	0.03467	0.55953	0.65533	0.118
Mof_H 	H 	0.97447	0.51663	0.65893	0.114
Mof_H 	H 	0.00887	0.54763	0.68323	0.117
Mof_C 	C 	0.03807	0.39343	0.67643	0.506
Mof_C 	C 	0.9882	0.32826	0.67248	-0.021
Mof_C 	C 	0.98649	0.28995	0.65649	-0.049
Mof_H 	H 	0.01547	0.29733	0.64593	0.049
Mof_C 	C 	0.94235	0.24059	0.65601	0.016
Mof_H 	H 	0.94117	0.21433	0.64513	-0.003
Mof_N 	N 	0.8999	0.22962	0.67151	-0.227
Mof_C 	C 	0.9016	0.26797	0.6875	0.024
Mof_H 	H 	0.87257	0.26043	0.69813	-0.009
Mof_C 	C 	0.94575	0.3173	0.68798	-0.069
Mof_H 	H 	0.94687	0.34343	0.69893	0.074
Mof_C 	C 	0.1378	0.39404	0.78105	-0.151
Mof_H 	H 	0.16877	0.39763	0.77233	0.096
Mof_H 	H 	0.12387	0.36413	0.79273	0.084
Mof_H 	H 	0.11117	0.38853	0.76833	0.087
Mof_C 	C 	0.13222	0.50718	0.82838	0.306
Mof_C 	C 	0.14588	0.51819	0.85861	-0
Mof_C 	C 	0.09706	0.51128	0.87293	-0.113
Mof_H 	H 	0.06527	0.50403	0.86503	0.079
Mof_C 	C 	0.10623	0.51705	0.89818	0.09
Mof_H 	H 	0.07597	0.50833	0.90803	-0.022
Mof_C 	C 	0.19549	0.54562	0.90165	0.01
Mof_H 	H 	0.22627	0.55843	0.91163	-0.002
Mof_C 	C 	0.19428	0.5384	0.87356	-0.061
Mof_H 	H 	0.22587	0.54713	0.86493	0.062
Mof_C 	C 	0.21816	0.56352	0.9583	-0.253
Mof_C 	C 	0.86527	0.10393	0.69862	-0.174
Mof_Cu	Cu	0.81867	0.8633	0.28459	0.858
Mof_O 	O 	0.82983	0.05637	0.10599	-0.147
Mof_O 	O 	0.78667	0.05292	0.06125	-0.228
Mof_O 	O 	0.85051	0.13139	0.05774	-0.264
Mof_O 	O 	0.81713	0.76967	0.12734	-0.143
Mof_O 	O 	0.85183	0.85627	0.15498	-0.254
Mof_O 	O 	0.76813	0.84227	0.15128	-0.273
Mof_O 	O 	0.6905	0.82474	0.00385	-0.127
Mof_O 	O 	0.70093	0.74637	0.02307	-0.453
Mof_O 	O 	0.73643	0.72717	0.99157	-0.297
Mof_N 	N 	0.81403	0.86527	0.24506	-0.226
Mof_N 	N 	0.92993	0.93697	0.29234	-0.203
Mof_N 	N 	0.52583	0.46437	0.01995	-0.202
Mof_C 	C 	0.86556	0.9831	0.04718	0.093
Mof_C 	C 	0.83418	0.00454	0.04185	-0.168
Mof_H 	H 	0.82103	0.00237	0.02507	0.103
Mof_C 	C 	0.82198	0.02903	0.06113	0.127
Mof_C 	C 	0.84117	0.03209	0.08573	0.086
Mof_C 	C 	0.87254	0.01064	0.09106	-0.125
Mof_H 	H 	0.88563	0.01267	0.10787	0.079
Mof_C 	C 	0.88474	0.98615	0.07178	0.045
Mof_C 	C 	0.9212	0.96674	0.07833	-0.184
Mof_H 	H 	0.93963	0.96647	0.06257	0.07
Mof_H 	H 	0.94773	0.99157	0.09047	0.082
Mof_C 	C 	0.89497	0.91203	0.09018	0.046
Mof_C 	C 	0.88642	0.91011	0.11665	-0.119
Mof_H 	H 	0.89973	0.94097	0.12667	0.083
Mof_C 	C 	0.8541	0.85503	0.12884	0.136
Mof_C 	C 	0.84237	0.81849	0.11374	0.05
Mof_C 	C 	0.85212	0.8197	0.08675	-0.097
Mof_H 	H 	0.84223	0.78907	0.07697	0.081
Mof_C 	C 	0.87895	0.87283	0.07549	0.049
Mof_C 	C 	0.88479	0.87014	0.04697	-0.208
Mof_H 	H 	0.91463	0.90327	0.04087	0.078
Mof_H 	H 	0.89193	0.84167	0.04287	0.096
Mof_C 	C 	0.83548	0.86046	0.03349	0.075
Mof_C 	C 	0.79476	0.81118	0.03053	-0.178
Mof_H 	H 	0.79883	0.78277	0.03597	0.104
Mof_C 	C 	0.7496	0.80105	0.02037	0.157
Mof_C 	C 	0.74054	0.83763	0.01276	0.065
Mof_C 	C 	0.78128	0.89146	0.01523	-0.104
Mof_H 	H 	0.77573	0.91947	0.01077	0.081
Mof_C 	C 	0.82984	0.90018	0.02462	0.043
Mof_C 	C 	0.86906	0.95652	0.02644	-0.219
Mof_H 	H 	0.86653	0.97387	0.01077	0.089
Mof_H 	H 	0.90413	0.96007	0.02657	0.077
Mof_C 	C 	0.84461	0.05732	0.13185	-0.185
Mof_H 	H 	0.88233	0.07097	0.13277	0.098
Mof_H 	H 	0.83563	0.07977	0.14177	0.097
Mof_H 	H 	0.82613	0.02187	0.13887	0.094
Mof_C 	C 	0.80564	0.10674	0.06151	0.305
Mof_C 	C 	0.7656	0.11342	0.05518	-0.063
Mof_C 	C 	0.71405	0.07307	0.05522	-0.029
Mof_H 	H 	0.70633	0.03797	0.05717	0.066
Mof_C 	C 	0.67381	0.08403	0.0524	0.016
Mof_H 	H 	0.63853	0.05637	0.05247	0.006
Mof_N 	N 	0.68511	0.13532	0.04953	-0.197
Mof_C 	C 	0.73666	0.17568	0.04949	0.015
Mof_H 	H 	0.74443	0.21077	0.04757	0.008
Mof_C 	C 	0.7769	0.16472	0.05231	-0.036
Mof_H 	H 	0.81213	0.19227	0.05227	0.048
Mof_C 	C 	0.67583	0.86555	5e-05	-0.218
Mof_H 	H 	0.70133	0.89287	0.98867	0.115
Mof_H 	H 	0.64113	0.84997	0.99227	0.103
Mof_H 	H 	0.67553	0.88097	0.01657	0.114
Mof_C 	C 	0.70473	0.72677	0.00977	0.509
Mof_C 	C 	0.65486	0.6616	0.00582	-0.023
Mof_C 	C 	0.65315	0.62329	0.98983	-0.065
Mof_H 	H 	0.68213	0.63067	0.97927	0.06
Mof_C 	C 	0.60901	0.57393	0.98935	0.023
Mof_H 	H 	0.60783	0.54767	0.97847	-0.007
Mof_N 	N 	0.56656	0.56296	0.00485	-0.228
Mof_C 	C 	0.56826	0.60131	0.02084	0.024
Mof_H 	H 	0.53923	0.59377	0.03147	-0.009
Mof_C 	C 	0.61241	0.65064	0.02132	-0.07
Mof_H 	H 	0.61353	0.67677	0.03227	0.072
Mof_C 	C 	0.80446	0.72738	0.11439	-0.154
Mof_H 	H 	0.83543	0.73097	0.10567	0.097
Mof_H 	H 	0.79053	0.69747	0.12607	0.086
Mof_H 	H 	0.77783	0.72187	0.10167	0.089
Mof_C 	C 	0.79888	0.84052	0.16172	0.306
Mof_C 	C 	0.81254	0.85153	0.19195	0.001
Mof_C 	C 	0.76372	0.84462	0.20627	-0.112
Mof_H 	H 	0.73193	0.83737	0.19837	0.081
Mof_C 	C 	0.77289	0.85039	0.23152	0.091
Mof_H 	H 	0.74263	0.84167	0.24137	-0.021
Mof_C 	C 	0.86215	0.87896	0.23499	0.011
Mof_H 	H 	0.89293	0.89177	0.24497	-0
Mof_C 	C 	0.86094	0.87174	0.2069	-0.061
Mof_H 	H 	0.89253	0.88047	0.19827	0.063
Mof_C 	C 	0.88482	0.89686	0.29164	-0.251
Mof_C 	C 	0.53193	0.43727	0.03196	-0.174
Mof_Cu	Cu	0.80337	0.28871	0.61792	0.858
Mof_O 	O 	0.6103	0.1068	0.43932	-0.147
Mof_O 	O 	0.61375	0.06709	0.39458	-0.226
Mof_O 	O 	0.53528	0.05246	0.39107	-0.263
Mof_O 	O 	0.897	0.3808	0.46067	-0.142
Mof_O 	O 	0.8104	0.3289	0.48831	-0.255
Mof_O 	O 	0.8244	0.2592	0.48461	-0.274
Mof_O 	O 	0.84193	0.1991	0.33718	-0.128
Mof_O 	O 	0.9203	0.2879	0.3564	-0.455
Mof_O 	O 	0.9395	0.3426	0.3249	-0.296
Mof_N 	N 	0.8014	0.2821	0.57839	-0.226
Mof_N 	N 	0.7297	0.3263	0.62567	-0.208
Mof_N 	N 	0.2023	0.3948	0.35328	-0.202
Mof_C 	C 	0.68357	0.2158	0.38051	0.084
Mof_C 	C 	0.66213	0.16298	0.37518	-0.156
Mof_H 	H 	0.6643	0.152	0.3584	0.102
Mof_C 	C 	0.63764	0.12629	0.39446	0.126
Mof_C 	C 	0.63458	0.14242	0.41906	0.085
Mof_C 	C 	0.65603	0.19524	0.42439	-0.114
Mof_H 	H 	0.654	0.2063	0.4412	0.077
Mof_C 	C 	0.68052	0.23193	0.40511	0.035
Mof_C 	C 	0.69993	0.2878	0.41166	-0.177
Mof_H 	H 	0.7002	0.3065	0.3959	0.065
Mof_H 	H 	0.6751	0.2895	0.4238	0.074
Mof_C 	C 	0.75464	0.31628	0.42351	0.041
Mof_C 	C 	0.75656	0.30965	0.44998	-0.118
Mof_H 	H 	0.7257	0.2921	0.46	0.08
Mof_C 	C 	0.81164	0.33241	0.46217	0.135
Mof_C 	C 	0.84818	0.35722	0.44707	0.05
Mof_C 	C 	0.84697	0.36576	0.42008	-0.098
Mof_H 	H 	0.8776	0.3865	0.4103	0.082
Mof_C 	C 	0.79384	0.33946	0.40882	0.051
Mof_C 	C 	0.79653	0.34799	0.3803	-0.209
Mof_H 	H 	0.7634	0.3447	0.3742	0.077
Mof_H 	H 	0.825	0.3836	0.3762	0.096
Mof_C 	C 	0.80621	0.30836	0.36682	0.078
Mof_C 	C 	0.85549	0.31692	0.36386	-0.179
Mof_H 	H 	0.8839	0.3494	0.3693	0.105
Mof_C 	C 	0.86562	0.28189	0.3537	0.158
Mof_C 	C 	0.82904	0.23625	0.34609	0.064
Mof_C 	C 	0.77521	0.22316	0.34856	-0.102
Mof_H 	H 	0.7472	0.1896	0.3441	0.079
Mof_C 	C 	0.76649	0.263	0.35795	0.039
Mof_C 	C 	0.71015	0.24588	0.35977	-0.211
Mof_H 	H 	0.6928	0.226	0.3441	0.084
Mof_H 	H 	0.7066	0.2774	0.3599	0.073
Mof_C 	C 	0.60935	0.12063	0.46518	-0.184
Mof_H 	H 	0.5957	0.1447	0.4661	0.098
Mof_H 	H 	0.5869	0.0892	0.4751	0.096
Mof_H 	H 	0.6448	0.1376	0.4722	0.094
Mof_C 	C 	0.55993	0.03224	0.39484	0.295
Mof_C 	C 	0.55325	0.98552	0.38851	-0.056
Mof_C 	C 	0.5936	0.97432	0.38855	-0.017
Mof_H 	H 	0.6287	0.0017	0.3905	0.059
Mof_C 	C 	0.58264	0.92312	0.38573	0.011
Mof_H 	H 	0.6103	0.9155	0.3858	0.01
Mof_N 	N 	0.53135	0.88313	0.38286	-0.196
Mof_C 	C 	0.49099	0.89432	0.38282	0.017
Mof_H 	H 	0.4559	0.867	0.3809	0.008
Mof_C 	C 	0.50195	0.94552	0.38564	-0.039
Mof_H 	H 	0.4744	0.9532	0.3856	0.051
Mof_C 	C 	0.80112	0.14362	0.33338	-0.213
Mof_H 	H 	0.7738	0.1418	0.322	0.112
Mof_H 	H 	0.8167	0.1245	0.3256	0.101
Mof_H 	H 	0.7857	0.1279	0.3499	0.111
Mof_C 	C 	0.9399	0.3113	0.3431	0.515
Mof_C 	C 	0.00507	0.3266	0.33915	-0.024
Mof_C 	C 	0.04338	0.3632	0.32316	-0.066
Mof_H 	H 	0.036	0.3848	0.3126	0.058
Mof_C 	C 	0.09274	0.36842	0.32268	0.023
Mof_H 	H 	0.119	0.3935	0.3118	-0.007
Mof_N 	N 	0.10371	0.33694	0.33818	-0.229
Mof_C 	C 	0.06536	0.30029	0.35417	0.03
Mof_H 	H 	0.0729	0.2788	0.3648	-0.014
Mof_C 	C 	0.01603	0.29511	0.35465	-0.087
Mof_H 	H 	0.9899	0.2701	0.3656	0.083
Mof_C 	C 	0.93929	0.41042	0.44772	-0.158
Mof_H 	H 	0.9357	0.4378	0.439	0.099
Mof_H 	H 	0.9692	0.4264	0.4594	0.089
Mof_H 	H 	0.9448	0.3893	0.435	0.091
Mof_C 	C 	0.82615	0.2917	0.49505	0.306
Mof_C 	C 	0.81514	0.29435	0.52528	0
Mof_C 	C 	0.82205	0.25244	0.5396	-0.112
Mof_H 	H 	0.8293	0.2279	0.5317	0.08
Mof_C 	C 	0.81628	0.25584	0.56485	0.09
Mof_H 	H 	0.825	0.2343	0.5747	-0.021
Mof_C 	C 	0.78771	0.31653	0.56832	0.01
Mof_H 	H 	0.7749	0.3345	0.5783	-0.002
Mof_C 	C 	0.79493	0.32254	0.54023	-0.061
Mof_H 	H 	0.7862	0.3454	0.5316	0.062
Mof_C 	C 	0.76981	0.3213	0.62497	-0.253
Mof_C 	C 	0.2294	0.428	0.36529	-0.175
Mof_Cu	Cu	0.47004	0.62204	0.95125	0.858
Mof_O 	O 	0.27697	0.44013	0.77265	-0.146
Mof_O 	O 	0.28042	0.40042	0.72791	-0.226
Mof_O 	O 	0.20195	0.38579	0.7244	-0.264
Mof_O 	O 	0.56367	0.71413	0.794	-0.144
Mof_O 	O 	0.47707	0.66223	0.82164	-0.255
Mof_O 	O 	0.49107	0.59253	0.81794	-0.274
Mof_O 	O 	0.5086	0.53243	0.67051	-0.128
Mof_O 	O 	0.58697	0.62123	0.68973	-0.454
Mof_O 	O 	0.60617	0.67593	0.65823	-0.297
Mof_N 	N 	0.46807	0.61543	0.91172	-0.226
Mof_N 	N 	0.39637	0.65963	0.959	-0.208
Mof_N 	N 	0.86897	0.72813	0.68661	-0.202
Mof_C 	C 	0.35024	0.54913	0.71384	0.084
Mof_C 	C 	0.3288	0.49631	0.70851	-0.157
Mof_H 	H 	0.33097	0.48533	0.69173	0.102
Mof_C 	C 	0.30431	0.45962	0.72779	0.127
Mof_C 	C 	0.30125	0.47575	0.75239	0.085
Mof_C 	C 	0.3227	0.52857	0.75772	-0.114
Mof_H 	H 	0.32067	0.53963	0.77453	0.077
Mof_C 	C 	0.34719	0.56526	0.73844	0.035
Mof_C 	C 	0.3666	0.62113	0.74499	-0.176
Mof_H 	H 	0.36687	0.63983	0.72923	0.065
Mof_H 	H 	0.34177	0.62283	0.75713	0.074
Mof_C 	C 	0.42131	0.64961	0.75684	0.041
Mof_C 	C 	0.42323	0.64298	0.78331	-0.118
Mof_H 	H 	0.39237	0.62543	0.79333	0.08
Mof_C 	C 	0.47831	0.66574	0.7955	0.134
Mof_C 	C 	0.51485	0.69055	0.7804	0.051
Mof_C 	C 	0.51364	0.69909	0.75341	-0.099
Mof_H 	H 	0.54427	0.71983	0.74363	0.082
Mof_C 	C 	0.46051	0.67279	0.74215	0.051
Mof_C 	C 	0.4632	0.68132	0.71363	-0.209
Mof_H 	H 	0.43007	0.67803	0.70753	0.077
Mof_H 	H 	0.49167	0.71693	0.70953	0.095
Mof_C 	C 	0.47288	0.64169	0.70015	0.077
Mof_C 	C 	0.52216	0.65025	0.69719	-0.179
Mof_H 	H 	0.55057	0.68273	0.70263	0.105
Mof_C 	C 	0.53229	0.61522	0.68703	0.158
Mof_C 	C 	0.49571	0.56958	0.67942	0.064
Mof_C 	C 	0.44188	0.55649	0.68189	-0.102
Mof_H 	H 	0.41387	0.52293	0.67743	0.079
Mof_C 	C 	0.43316	0.59633	0.69128	0.039
Mof_C 	C 	0.37682	0.57921	0.6931	-0.211
Mof_H 	H 	0.35947	0.55933	0.67743	0.084
Mof_H 	H 	0.37327	0.61073	0.69323	0.073
Mof_C 	C 	0.27602	0.45396	0.79851	-0.186
Mof_H 	H 	0.26237	0.47803	0.79943	0.098
Mof_H 	H 	0.25357	0.42253	0.80843	0.098
Mof_H 	H 	0.31147	0.47093	0.80553	0.095
Mof_C 	C 	0.2266	0.36557	0.72817	0.305
Mof_C 	C 	0.21992	0.31885	0.72184	-0.063
Mof_C 	C 	0.26027	0.30765	0.72188	-0.03
Mof_H 	H 	0.29537	0.33503	0.72383	0.068
Mof_C 	C 	0.24931	0.25645	0.71906	0.016
Mof_H 	H 	0.27697	0.24883	0.71913	0.007
Mof_N 	N 	0.19802	0.21646	0.71619	-0.197
Mof_C 	C 	0.15766	0.22765	0.71615	0.015
Mof_H 	H 	0.12257	0.20033	0.71423	0.007
Mof_C 	C 	0.16862	0.27885	0.71897	-0.037
Mof_H 	H 	0.14107	0.28653	0.71893	0.047
Mof_C 	C 	0.46779	0.47695	0.66671	-0.214
Mof_H 	H 	0.44047	0.47513	0.65533	0.113
Mof_H 	H 	0.48337	0.45783	0.65893	0.101
Mof_H 	H 	0.45237	0.46123	0.68323	0.112
Mof_C 	C 	0.60657	0.64463	0.67643	0.51
Mof_C 	C 	0.67174	0.65993	0.67248	-0.023
Mof_C 	C 	0.71005	0.69653	0.65649	-0.065
Mof_H 	H 	0.70267	0.71813	0.64593	0.06
Mof_C 	C 	0.75941	0.70175	0.65601	0.023
Mof_H 	H 	0.78567	0.72683	0.64513	-0.006
Mof_N 	N 	0.77038	0.67027	0.67151	-0.228
Mof_C 	C 	0.73203	0.63362	0.6875	0.024
Mof_H 	H 	0.73957	0.61213	0.69813	-0.009
Mof_C 	C 	0.6827	0.62844	0.68798	-0.07
Mof_H 	H 	0.65657	0.60343	0.69893	0.072
Mof_C 	C 	0.60596	0.74375	0.78105	-0.154
Mof_H 	H 	0.60237	0.77113	0.77233	0.097
Mof_H 	H 	0.63587	0.75973	0.79273	0.086
Mof_H 	H 	0.61147	0.72263	0.76833	0.089
Mof_C 	C 	0.49282	0.62503	0.82838	0.306
Mof_C 	C 	0.48181	0.62768	0.85861	0
Mof_C 	C 	0.48872	0.58577	0.87293	-0.112
Mof_H 	H 	0.49597	0.56123	0.86503	0.08
Mof_C 	C 	0.48295	0.58917	0.89818	0.09
Mof_H 	H 	0.49167	0.56763	0.90803	-0.021
Mof_C 	C 	0.45438	0.64986	0.90165	0.01
Mof_H 	H 	0.44157	0.66783	0.91163	-0.002
Mof_C 	C 	0.4616	0.65587	0.87356	-0.061
Mof_H 	H 	0.45287	0.67873	0.86493	0.062
Mof_C 	C 	0.43648	0.65463	0.9583	-0.253
Mof_C 	C 	0.89607	0.76133	0.69862	-0.172
Mof_Cu	Cu	0.1367	0.95538	0.28459	0.859
Mof_O 	O 	0.94363	0.77347	0.10599	-0.144
Mof_O 	O 	0.94708	0.73376	0.06125	-0.225
Mof_O 	O 	0.86861	0.71913	0.05774	-0.263
Mof_O 	O 	0.23033	0.04747	0.12734	-0.143
Mof_O 	O 	0.14373	0.99557	0.15498	-0.257
Mof_O 	O 	0.15773	0.92587	0.15128	-0.275
Mof_O 	O 	0.17526	0.86577	0.00385	-0.128
Mof_O 	O 	0.25363	0.95457	0.02307	-0.455
Mof_O 	O 	0.27283	0.00927	0.99157	-0.306
Mof_N 	N 	0.13473	0.94877	0.24506	-0.227
Mof_N 	N 	0.06303	0.99297	0.29234	-0.207
Mof_N 	N 	0.53563	0.06147	0.01995	-0.203
Mof_C 	C 	0.0169	0.88247	0.04718	0.072
Mof_C 	C 	0.99546	0.82965	0.04185	-0.144
Mof_H 	H 	0.99763	0.81867	0.02507	0.101
Mof_C 	C 	0.97097	0.79296	0.06113	0.125
Mof_C 	C 	0.96791	0.80909	0.08573	0.085
Mof_C 	C 	0.98936	0.86191	0.09106	-0.106
Mof_H 	H 	0.98733	0.87297	0.10787	0.076
Mof_C 	C 	0.01385	0.8986	0.07178	0.032
Mof_C 	C 	0.03326	0.95447	0.07833	-0.184
Mof_H 	H 	0.03353	0.97317	0.06257	0.069
Mof_H 	H 	0.00843	0.95617	0.09047	0.075
Mof_C 	C 	0.08797	0.98295	0.09018	0.061
Mof_C 	C 	0.08989	0.97632	0.11665	-0.129
Mof_H 	H 	0.05903	0.95877	0.12667	0.083
Mof_C 	C 	0.14497	0.99908	0.12884	0.153
Mof_C 	C 	0.18151	0.02389	0.11374	0.032
Mof_C 	C 	0.1803	0.03243	0.08675	-0.086
Mof_H 	H 	0.21093	0.05317	0.07697	0.077
Mof_C 	C 	0.12717	0.00613	0.07549	0.031
Mof_C 	C 	0.12986	0.01466	0.04697	-0.205
Mof_H 	H 	0.09673	0.01137	0.04087	0.073
Mof_H 	H 	0.15833	0.05027	0.04287	0.094
Mof_C 	C 	0.13954	0.97503	0.03349	0.078
Mof_C 	C 	0.18882	0.98359	0.03053	-0.162
Mof_H 	H 	0.21723	0.01607	0.03597	0.094
Mof_C 	C 	0.19895	0.94856	0.02037	0.153
Mof_C 	C 	0.16237	0.90292	0.01276	0.066
Mof_C 	C 	0.10854	0.88983	0.01523	-0.103
Mof_H 	H 	0.08053	0.85627	0.01077	0.078
Mof_C 	C 	0.09982	0.92967	0.02462	0.038
Mof_C 	C 	0.04348	0.91255	0.02644	-0.204
Mof_H 	H 	0.02613	0.89267	0.01077	0.08
Mof_H 	H 	0.03993	0.94407	0.02657	0.072
Mof_C 	C 	0.94268	0.7873	0.13185	-0.189
Mof_H 	H 	0.92903	0.81137	0.13277	0.1
Mof_H 	H 	0.92023	0.75587	0.14177	0.099
Mof_H 	H 	0.97813	0.80427	0.13887	0.098
Mof_C 	C 	0.89326	0.69891	0.06151	0.304
Mof_C 	C 	0.88658	0.65219	0.05518	-0.062
Mof_C 	C 	0.92693	0.64099	0.05522	-0.03
Mof_H 	H 	0.96203	0.66837	0.05717	0.07
Mof_C 	C 	0.91597	0.58979	0.0524	0.016
Mof_H 	H 	0.94363	0.58217	0.05247	0.009
Mof_N 	N 	0.86468	0.5498	0.04953	-0.197
Mof_C 	C 	0.82432	0.56099	0.04949	0.016
Mof_H 	H 	0.78923	0.53367	0.04757	0.008
Mof_C 	C 	0.83528	0.61219	0.05231	-0.037
Mof_H 	H 	0.80773	0.61987	0.05227	0.048
Mof_C 	C 	0.13445	0.81029	5e-05	-0.215
Mof_H 	H 	0.10713	0.80847	0.98867	0.113
Mof_H 	H 	0.15003	0.79117	0.99227	0.102
Mof_H 	H 	0.11903	0.79457	0.01657	0.111
Mof_C 	C 	0.27323	0.97797	0.00977	0.518
Mof_C 	C 	0.3384	0.99327	0.00582	-0.009
Mof_C 	C 	0.37671	0.02987	0.98983	-0.081
Mof_H 	H 	0.36933	0.05147	0.97927	0.063
Mof_C 	C 	0.42607	0.03509	0.98935	0.028
Mof_H 	H 	0.45233	0.06017	0.97847	-0.01
Mof_N 	N 	0.43704	0.00361	0.00485	-0.235
Mof_C 	C 	0.39869	0.96696	0.02084	0.037
Mof_H 	H 	0.40623	0.94547	0.03147	-0.012
Mof_C 	C 	0.34936	0.96178	0.02132	-0.079
Mof_H 	H 	0.32323	0.93677	0.03227	0.075
Mof_C 	C 	0.27262	0.07709	0.11439	-0.153
Mof_H 	H 	0.26903	0.10447	0.10567	0.097
Mof_H 	H 	0.30253	0.09307	0.12607	0.085
Mof_H 	H 	0.27813	0.05597	0.10167	0.087
Mof_C 	C 	0.15948	0.95837	0.16172	0.309
Mof_C 	C 	0.14847	0.96102	0.19195	-0.002
Mof_C 	C 	0.15538	0.91911	0.20627	-0.112
Mof_H 	H 	0.16263	0.89457	0.19837	0.08
Mof_C 	C 	0.14961	0.92251	0.23152	0.09
Mof_H 	H 	0.15833	0.90097	0.24137	-0.021
Mof_C 	C 	0.12104	0.9832	0.23499	0.02
Mof_H 	H 	0.10823	0.00117	0.24497	-0.012
Mof_C 	C 	0.12826	0.98921	0.2069	-0.051
Mof_H 	H 	0.11953	0.01207	0.19827	0.052
Mof_C 	C 	0.10314	0.98797	0.29164	-0.25
Mof_C 	C 	0.56273	0.09467	0.03196	-0.175
Mof_Cu	Cu	0.33333	0.16667	0.66667	0.862
Mof_Cu	Cu	-0	0.5	-0	0.859
Mof_Cu	Cu	0.83333	0.16667	0.66667	0.862
Mof_Cu	Cu	0.5	0.5	-0	0.862
Mof_Cu	Cu	0.83333	0.66667	0.66667	0.863
Mof_Cu	Cu	0.5	0	-0	0.859
Mof_Cu	Cu	0.66667	0.83333	0.33333	0.863
Mof_Cu	Cu	0.16667	0.83333	0.33333	0.862
Mof_Cu	Cu	0.16667	0.33333	0.33333	0.862
Mof_Cu	Cu	0.33333	0.66667	0.37324	0.816
Mof_Cu	Cu	1.0187e-32	0	0.70657	0.81
Mof_Cu	Cu	0.66667	0.33333	0.03991	0.816
Mof_Cu	Cu	0.66667	0.33333	0.62676	0.816
Mof_Cu	Cu	0.33333	0.66667	0.96009	0.816
Mof_Cu	Cu	-5.0935e-33	1.0187e-32	0.29343	0.81
_end
