data_functionalizedCrystal
_audit_creation_method	'EQeq! by Chris Wilmer'
_symmetry_space_group_name_H-M	'P1'
_symmetry_Int_Tables_number	1
_symmetry_cell_setting	triclinic
loop_
_symmetry_equiv_pos_as_xyz
  x,y,z
_cell_length_a	15.466
_cell_length_b	8.0557
_cell_length_c	18.445
_cell_angle_alpha	90
_cell_angle_beta	123.605
_cell_angle_gamma	90
loop_
_atom_site_label
_atom_site_type_symbol
_atom_site_fract_x
_atom_site_fract_y
_atom_site_fract_z
_atom_site_charge
Mof_Cd	Cd	0.02571	0.61005	0.86584	0.461
Mof_Br	Br	0.67401	0.7939	0.64821	-0.259
Mof_C 	C 	0.8447	0.9687	0.7902	-0.152
Mof_C 	C 	0.8933	0.0578	0.8682	0.079
Mof_H 	H 	0.9594	0.1007	0.8914	0.029
Mof_C 	C 	0.8445	0.0833	0.9115	-0.116
Mof_C 	C 	0.7472	0.0139	0.8778	0.092
Mof_H 	H 	0.7151	0.0267	0.9077	0.017
Mof_C 	C 	0.6975	0.9267	0.8009	-0.192
Mof_H 	H 	0.6319	0.8822	0.7784	0.119
Mof_C 	C 	0.7464	0.9058	0.7572	0.196
Mof_C 	C 	0.9007	0.9488	0.7441	0.358
Mof_C 	C 	0.8946	0.1889	0.9924	0.296
Mof_C 	C 	0.8196	0.3996	0.7287	0.097
Mof_H 	H 	0.8463	0.3725	0.6958	0.04
Mof_C 	C 	0.7989	0.4955	0.8233	0.11
Mof_H 	H 	0.8118	0.551	0.8726	0.017
Mof_C 	C 	0.644	0.2647	0.6321	-0.15
Mof_H 	H 	0.607	0.1928	0.6484	0.102
Mof_H 	H 	0.675	0.1957	0.6093	0.108
Mof_C 	C 	0.5683	0.3849	0.5624	0.1
Mof_C 	C 	0.4799	0.4355	0.5575	-0.053
Mof_H 	H 	0.465	0.3918	0.596	0.067
Mof_C 	C 	0.5867	0.4494	0.5041	-0.065
Mof_H 	H 	0.6451	0.4156	0.5056	0.079
Mof_N 	N 	0.8684	0.4892	0.8015	-0.15
Mof_N 	N 	0.711	0.4173	0.7698	-0.086
Mof_N 	N 	0.7267	0.355	0.7101	-0.066
Mof_O 	O 	0.9626	0.8325	0.7639	-0.278
Mof_O 	O 	0.8794	0.058	0.6878	-0.279
Mof_O 	O 	0.9763	0.2681	0.01653	-0.264
Mof_O 	O 	0.8527	0.1938	0.0353	-0.255
Mof_Cd	Cd	0.97429	0.11005	0.63416	0.457
Mof_Br	Br	0.32599	0.2939	0.85179	-0.261
Mof_C 	C 	0.1553	0.4687	0.7098	-0.154
Mof_C 	C 	0.1067	0.5578	0.6318	0.084
Mof_H 	H 	0.0406	0.6007	0.6086	0.028
Mof_C 	C 	0.1555	0.5833	0.5885	-0.121
Mof_C 	C 	0.2528	0.5139	0.6222	0.097
Mof_H 	H 	0.2849	0.5267	0.5923	0.016
Mof_C 	C 	0.3025	0.4267	0.6991	-0.197
Mof_H 	H 	0.3681	0.3822	0.7216	0.12
Mof_C 	C 	0.2536	0.4058	0.7428	0.198
Mof_C 	C 	0.0993	0.4488	0.7559	0.358
Mof_C 	C 	0.1054	0.6889	0.5076	0.306
Mof_C 	C 	0.1804	0.8996	0.7713	0.097
Mof_H 	H 	0.1537	0.8725	0.8042	0.04
Mof_C 	C 	0.2011	0.9955	0.6767	0.11
Mof_H 	H 	0.1882	0.051	0.6274	0.018
Mof_C 	C 	0.356	0.7647	0.8679	-0.15
Mof_H 	H 	0.393	0.6928	0.8516	0.102
Mof_H 	H 	0.325	0.6957	0.8907	0.108
Mof_C 	C 	0.4317	0.8849	0.9376	0.1
Mof_C 	C 	0.5201	0.9355	0.9425	-0.054
Mof_H 	H 	0.535	0.8918	0.904	0.067
Mof_C 	C 	0.4133	0.9494	0.9959	-0.065
Mof_H 	H 	0.3549	0.9156	0.9944	0.079
Mof_N 	N 	0.1316	0.9892	0.6985	-0.149
Mof_N 	N 	0.289	0.9173	0.7302	-0.086
Mof_N 	N 	0.2733	0.855	0.7899	-0.066
Mof_O 	O 	0.0374	0.3325	0.7361	-0.276
Mof_O 	O 	0.1206	0.558	0.8122	-0.278
Mof_O 	O 	0.0237	0.7681	0.48347	-0.27
Mof_O 	O 	0.1473	0.6938	0.4647	-0.259
Mof_Cd	Cd	0.97429	0.38995	0.13416	0.46
Mof_Br	Br	0.32599	0.2061	0.35179	-0.26
Mof_C 	C 	0.1553	0.0313	0.2098	-0.152
Mof_C 	C 	0.1067	0.9422	0.1318	0.079
Mof_H 	H 	0.0406	0.8993	0.1086	0.029
Mof_C 	C 	0.1555	0.9167	0.0885	-0.116
Mof_C 	C 	0.2528	0.9861	0.1222	0.092
Mof_H 	H 	0.2849	0.9733	0.0923	0.017
Mof_C 	C 	0.3025	0.0733	0.1991	-0.192
Mof_H 	H 	0.3681	0.1178	0.2216	0.119
Mof_C 	C 	0.2536	0.0942	0.2428	0.196
Mof_C 	C 	0.0993	0.0512	0.2559	0.358
Mof_C 	C 	0.1054	0.8111	0.0076	0.296
Mof_C 	C 	0.1804	0.6004	0.2713	0.097
Mof_H 	H 	0.1537	0.6275	0.3042	0.04
Mof_C 	C 	0.2011	0.5045	0.1767	0.11
Mof_H 	H 	0.1882	0.449	0.1274	0.017
Mof_C 	C 	0.356	0.7353	0.3679	-0.15
Mof_H 	H 	0.393	0.8072	0.3516	0.102
Mof_H 	H 	0.325	0.8043	0.3907	0.108
Mof_C 	C 	0.4317	0.6151	0.4376	0.1
Mof_C 	C 	0.5201	0.5645	0.4425	-0.053
Mof_H 	H 	0.535	0.6082	0.404	0.067
Mof_C 	C 	0.4133	0.5506	0.4959	-0.065
Mof_H 	H 	0.3549	0.5844	0.4944	0.079
Mof_N 	N 	0.1316	0.5108	0.1985	-0.15
Mof_N 	N 	0.289	0.5827	0.2302	-0.086
Mof_N 	N 	0.2733	0.645	0.2899	-0.066
Mof_O 	O 	0.0374	0.1675	0.2361	-0.278
Mof_O 	O 	0.1206	0.942	0.3122	-0.279
Mof_O 	O 	0.0237	0.7319	0.98347	-0.264
Mof_O 	O 	0.1473	0.8062	0.9647	-0.255
Mof_Cd	Cd	0.02571	0.88995	0.36584	0.457
Mof_Br	Br	0.67401	0.7061	0.14821	-0.261
Mof_C 	C 	0.8447	0.5313	0.2902	-0.154
Mof_C 	C 	0.8933	0.4422	0.3682	0.084
Mof_H 	H 	0.9594	0.3993	0.3914	0.028
Mof_C 	C 	0.8445	0.4167	0.4115	-0.121
Mof_C 	C 	0.7472	0.4861	0.3778	0.097
Mof_H 	H 	0.7151	0.4733	0.4077	0.016
Mof_C 	C 	0.6975	0.5733	0.3009	-0.197
Mof_H 	H 	0.6319	0.6178	0.2784	0.12
Mof_C 	C 	0.7464	0.5942	0.2572	0.198
Mof_C 	C 	0.9007	0.5512	0.2441	0.358
Mof_C 	C 	0.8946	0.3111	0.4924	0.306
Mof_C 	C 	0.8196	0.1004	0.2287	0.097
Mof_H 	H 	0.8463	0.1275	0.1958	0.04
Mof_C 	C 	0.7989	0.0045	0.3233	0.11
Mof_H 	H 	0.8118	0.949	0.3726	0.018
Mof_C 	C 	0.644	0.2353	0.1321	-0.15
Mof_H 	H 	0.607	0.3072	0.1484	0.102
Mof_H 	H 	0.675	0.3043	0.1093	0.108
Mof_C 	C 	0.5683	0.1151	0.0624	0.1
Mof_C 	C 	0.4799	0.0645	0.0575	-0.054
Mof_H 	H 	0.465	0.1082	0.096	0.067
Mof_C 	C 	0.5867	0.0506	0.0041	-0.065
Mof_H 	H 	0.6451	0.0844	0.0056	0.079
Mof_N 	N 	0.8684	0.0108	0.3015	-0.149
Mof_N 	N 	0.711	0.0827	0.2698	-0.086
Mof_N 	N 	0.7267	0.145	0.2101	-0.066
Mof_O 	O 	0.9626	0.6675	0.2639	-0.276
Mof_O 	O 	0.8794	0.442	0.1878	-0.278
Mof_O 	O 	0.9763	0.2319	0.51653	-0.27
Mof_O 	O 	0.8527	0.3062	0.5353	-0.259
_end
