data_functionalizedCrystal
_audit_creation_method	'EQeq! by Chris Wilmer'
_symmetry_space_group_name_H-M	'P1'
_symmetry_Int_Tables_number	1
_symmetry_cell_setting	triclinic
loop_
_symmetry_equiv_pos_as_xyz
  x,y,z
_cell_length_a	8.0987
_cell_length_b	9.7728
_cell_length_c	11.1806
_cell_angle_alpha	97.1269
_cell_angle_beta	90
_cell_angle_gamma	114.478
loop_
_atom_site_label
_atom_site_type_symbol
_atom_site_fract_x
_atom_site_fract_y
_atom_site_fract_z
_atom_site_charge
Mof_Sr	Sr	0.89256	0.51716	0.68609	1.58
Mof_Sr	Sr	0.3754	0.48284	0.81391	1.584
Mof_Sr	Sr	0.10744	0.48284	0.31391	1.579
Mof_Sr	Sr	0.6246	0.51716	0.18609	1.583
Mof_H 	H 	0.9952	0.2536	0.6609	0.302
Mof_H 	H 	0.0962	0.35	0.5885	0.277
Mof_H 	H 	0.3605	0.0522	0.8445	0.034
Mof_H 	H 	0.7416	0.7464	0.8391	0.304
Mof_H 	H 	0.7462	0.65	0.9115	0.277
Mof_H 	H 	0.3083	0.9478	0.6555	0.033
Mof_H 	H 	0.0048	0.7464	0.3391	0.302
Mof_H 	H 	0.9038	0.65	0.4115	0.277
Mof_H 	H 	0.6395	0.9478	0.1555	0.034
Mof_H 	H 	0.2584	0.2536	0.1609	0.304
Mof_H 	H 	0.2538	0.35	0.0885	0.277
Mof_H 	H 	0.6917	0.0522	0.3445	0.033
Mof_C 	C 	0.1953	0.7608	0.8556	0.335
Mof_C 	C 	0.3493	0.884	0.9346	-0.082
Mof_C 	C 	0.43181	0.85182	0.0306	-0.111
Mof_C 	C 	0.41768	0.03096	0.9072	-0.004
Mof_C 	C 	0.36158	0.69756	0.0752	0.388
Mof_C 	C 	0.4345	0.2392	0.6444	0.335
Mof_C 	C 	0.4653	0.116	0.5654	-0.084
Mof_C 	C 	0.57999	0.14818	0.4694	-0.109
Mof_C 	C 	0.38672	0.96904	0.5928	-0.003
Mof_C 	C 	0.66402	0.30244	0.4248	0.388
Mof_C 	C 	0.8047	0.2392	0.1444	0.335
Mof_C 	C 	0.6507	0.116	0.0654	-0.082
Mof_C 	C 	0.56819	0.14818	0.9694	-0.111
Mof_C 	C 	0.58232	0.96904	0.0928	-0.004
Mof_C 	C 	0.63842	0.30244	0.9248	0.388
Mof_C 	C 	0.5655	0.7608	0.3556	0.335
Mof_C 	C 	0.5347	0.884	0.4346	-0.084
Mof_C 	C 	0.42001	0.85182	0.5306	-0.109
Mof_C 	C 	0.61328	0.03096	0.4072	-0.003
Mof_C 	C 	0.33598	0.69756	0.5752	0.388
Mof_O 	O 	0.16992	0.62464	0.8572	-0.502
Mof_O 	O 	0.10148	0.79876	0.7887	-0.402
Mof_O 	O 	0.44419	0.61558	0.0449	-0.535
Mof_O 	O 	0.23326	0.66652	0.1444	-0.433
Mof_O 	O 	0.06747	0.34634	0.6614	-0.847
Mof_O 	O 	0.54528	0.37536	0.6428	-0.504
Mof_O 	O 	0.30272	0.20124	0.7113	-0.403
Mof_O 	O 	0.82861	0.38442	0.4551	-0.534
Mof_O 	O 	0.56674	0.33348	0.3556	-0.432
Mof_O 	O 	0.72113	0.65366	0.8386	-0.851
Mof_O 	O 	0.83008	0.37536	0.1428	-0.502
Mof_O 	O 	0.89852	0.20124	0.2113	-0.402
Mof_O 	O 	0.55581	0.38442	0.9551	-0.535
Mof_O 	O 	0.76674	0.33348	0.8556	-0.433
Mof_O 	O 	0.93253	0.65366	0.3386	-0.847
Mof_O 	O 	0.45472	0.62464	0.3572	-0.504
Mof_O 	O 	0.69728	0.79876	0.2887	-0.403
Mof_O 	O 	0.17139	0.61558	0.5449	-0.534
Mof_O 	O 	0.43326	0.66652	0.6444	-0.432
Mof_O 	O 	0.27887	0.34634	0.1614	-0.851
_end
