data_functionalizedCrystal
_audit_creation_method	'EQeq! by Chris Wilmer'
_symmetry_space_group_name_H-M	'P1'
_symmetry_Int_Tables_number	1
_symmetry_cell_setting	triclinic
loop_
_symmetry_equiv_pos_as_xyz
  x,y,z
_cell_length_a	8.5776
_cell_length_b	10.195
_cell_length_c	10.9115
_cell_angle_alpha	66.672
_cell_angle_beta	69.425
_cell_angle_gamma	78.113
loop_
_atom_site_label
_atom_site_type_symbol
_atom_site_fract_x
_atom_site_fract_y
_atom_site_fract_z
_atom_site_charge
Mof_Er	Er	0.34667	0.56606	0.84658	1.659
Mof_Er	Er	0.65333	0.43394	0.15342	1.659
Mof_H 	H 	0.795	0.3713	0.515	0.052
Mof_H 	H 	0.9351	0.6586	0.6166	0.048
Mof_H 	H 	0.2887	0.1784	0.0221	0.007
Mof_H 	H 	0.7644	0.028	0.995	0.045
Mof_H 	H 	0.8533	0.8764	0.7263	0.047
Mof_H 	H 	0.2858	0.9492	0.4184	0.061
Mof_H 	H 	0.205	0.6287	0.485	0.052
Mof_H 	H 	0.0649	0.3414	0.3834	0.048
Mof_H 	H 	0.7113	0.8216	0.9779	0.007
Mof_H 	H 	0.2356	0.972	0.005	0.045
Mof_H 	H 	0.1467	0.1236	0.2737	0.047
Mof_H 	H 	0.7142	0.0508	0.5816	0.061
Mof_C 	C 	0.6622	0.5401	0.667	0.311
Mof_C 	C 	0.8375	0.5182	0.581	-0.063
Mof_C 	C 	0.8771	0.4224	0.5091	-0.032
Mof_C 	C 	0.9622	0.5945	0.5695	-0.031
Mof_C 	C 	0.5639	0.2557	0.0203	0.449
Mof_C 	C 	0.5301	0.124	0.0074	-0.122
Mof_C 	C 	0.374	0.1069	0.0126	0.008
Mof_C 	C 	0.6587	0.0171	0.9964	-0.015
Mof_C 	C 	0.1717	0.78	0.6843	0.301
Mof_C 	C 	0.0824	0.8941	0.59	-0.058
Mof_C 	C 	0.9132	0.9263	0.6348	-0.022
Mof_C 	C 	0.1712	0.9693	0.4518	-0.027
Mof_C 	C 	0.3378	0.4599	0.333	0.311
Mof_C 	C 	0.1625	0.4818	0.419	-0.063
Mof_C 	C 	0.1229	0.5776	0.4909	-0.032
Mof_C 	C 	0.0378	0.4055	0.4305	-0.031
Mof_C 	C 	0.4361	0.7443	0.9797	0.449
Mof_C 	C 	0.4699	0.876	0.9926	-0.122
Mof_C 	C 	0.626	0.8931	0.9874	0.008
Mof_C 	C 	0.3413	0.9829	0.0036	-0.015
Mof_C 	C 	0.8283	0.22	0.3157	0.301
Mof_C 	C 	0.9176	0.1059	0.41	-0.058
Mof_C 	C 	0.0868	0.0737	0.3652	-0.022
Mof_C 	C 	0.8288	0.0307	0.5482	-0.027
Mof_O 	O 	0.6316	0.6192	0.7396	-0.397
Mof_O 	O 	0.5471	0.4801	0.6697	-0.397
Mof_O 	O 	0.4798	0.3705	0.9763	-0.533
Mof_O 	O 	0.6686	0.2451	0.0794	-0.469
Mof_O 	O 	0.3269	0.7503	0.6364	-0.395
Mof_O 	O 	0.0908	0.711	0.809	-0.427
Mof_O 	O 	0.3684	0.3808	0.2604	-0.397
Mof_O 	O 	0.4529	0.5199	0.3303	-0.397
Mof_O 	O 	0.5202	0.6295	0.0237	-0.533
Mof_O 	O 	0.3314	0.7549	0.9206	-0.469
Mof_O 	O 	0.6731	0.2497	0.3636	-0.395
Mof_O 	O 	0.9092	0.289	0.191	-0.427
_end
