data_functionalizedCrystal
_audit_creation_method	'EQeq! by Chris Wilmer'
_symmetry_space_group_name_H-M	'P1'
_symmetry_Int_Tables_number	1
_symmetry_cell_setting	triclinic
loop_
_symmetry_equiv_pos_as_xyz
  x,y,z
_cell_length_a	11.3605
_cell_length_b	18.312
_cell_length_c	12.4463
_cell_angle_alpha	90
_cell_angle_beta	108.491
_cell_angle_gamma	90
loop_
_atom_site_label
_atom_site_type_symbol
_atom_site_fract_x
_atom_site_fract_y
_atom_site_fract_z
_atom_site_charge
Mof_Zn	Zn	0.26629	0.4782	0.90906	1.213
Mof_Zn	Zn	0.08276	0.32757	0.44064	1.162
Mof_O 	O 	0.3683	0.47684	0.8103	-0.435
Mof_O 	O 	0.454	0.3734	0.8931	-0.279
Mof_O 	O 	0.6411	0.48703	0.9399	-0.448
Mof_O 	O 	0.8164	0.47229	0.8972	-0.454
Mof_O 	O 	0.7752	0.4596	0.4973	-0.15
Mof_O 	O 	0.6197	0.407	0.3825	-0.123
Mof_O 	O 	0.2504	0.36466	0.4856	-0.474
Mof_O 	O 	0.2736	0.3383	0.6648	-0.339
Mof_N 	N 	0.8705	0.45379	0.1737	-0.259
Mof_N 	N 	0.9753	0.44576	0.1426	-0.185
Mof_N 	N 	0.0003	0.38353	0.3011	-0.336
Mof_N 	N 	0.0654	0.39828	0.9523	-0.208
Mof_N 	N 	0.1726	0.38938	0.9248	-0.248
Mof_N 	N 	0.0921	0.28058	0.9277	-0.289
Mof_N 	N 	0.674	0.4309	0.4746	-0.008
Mof_C 	C 	0.8893	0.4165	0.2678	0.167
Mof_H 	H 	0.832	0.4133	0.3069	-0.038
Mof_C 	C 	0.0503	0.4039	0.2206	0.027
Mof_H 	H 	0.1289	0.3899	0.2204	-0.014
Mof_C 	C 	0.0207	0.3325	0.9532	-0.02
Mof_H 	H 	0.9479	0.3226	0.9696	0.051
Mof_C 	C 	0.1856	0.3189	0.9106	0.107
Mof_H 	H 	0.2509	0.2983	0.8913	-0.014
Mof_C 	C 	0.3122	0.3637	0.5915	0.33
Mof_C 	C 	0.4411	0.3951	0.622	-0.022
Mof_C 	C 	0.4975	0.3994	0.5373	-0.08
Mof_H 	H 	0.4553	0.3844	0.4637	0.094
Mof_C 	C 	0.6166	0.4261	0.5646	0.105
Mof_C 	C 	0.6833	0.4478	0.6718	-0.081
Mof_H 	H 	0.7644	0.4644	0.6882	0.085
Mof_C 	C 	0.6258	0.4442	0.7564	-0.033
Mof_C 	C 	0.504	0.4196	0.7314	-0.02
Mof_C 	C 	0.4372	0.4218	0.82	0.339
Mof_C 	C 	0.7023	0.4701	0.8745	0.373
Mof_Zn	Zn	0.73371	0.9782	0.59094	1.223
Mof_Zn	Zn	0.91724	0.82757	0.05936	1.174
Mof_O 	O 	0.6317	0.97684	0.6897	-0.412
Mof_O 	O 	0.546	0.8734	0.6069	-0.283
Mof_O 	O 	0.3589	0.98703	0.5601	-0.445
Mof_O 	O 	0.1836	0.97229	0.6028	-0.476
Mof_O 	O 	0.2248	0.9596	0.0027	-0.172
Mof_O 	O 	0.3803	0.907	0.1175	-0.118
Mof_O 	O 	0.7496	0.86466	0.0144	-0.497
Mof_O 	O 	0.7264	0.8383	0.8352	-0.332
Mof_N 	N 	0.1295	0.95379	0.3263	-0.228
Mof_N 	N 	0.0247	0.94576	0.3574	-0.256
Mof_N 	N 	0.9997	0.88353	0.1989	-0.277
Mof_N 	N 	0.9346	0.89828	0.5477	-0.221
Mof_N 	N 	0.8274	0.88938	0.5752	-0.24
Mof_N 	N 	0.9079	0.78058	0.5723	-0.313
Mof_N 	N 	0.326	0.9309	0.0254	-0.016
Mof_C 	C 	0.1107	0.9165	0.2322	0.038
Mof_H 	H 	0.168	0.9133	0.1931	-0.004
Mof_C 	C 	0.9497	0.9039	0.2794	0.177
Mof_H 	H 	0.8711	0.8899	0.2796	-0.04
Mof_C 	C 	0.9793	0.8325	0.5468	0.215
Mof_H 	H 	0.0521	0.8226	0.5304	-0.121
Mof_C 	C 	0.8144	0.8189	0.5894	0.11
Mof_H 	H 	0.7491	0.7983	0.6087	-0.011
Mof_C 	C 	0.6878	0.8637	0.9085	0.389
Mof_C 	C 	0.5589	0.8951	0.878	-0.055
Mof_C 	C 	0.5025	0.8994	0.9627	0.012
Mof_H 	H 	0.5447	0.8844	0.0363	0.048
Mof_C 	C 	0.3834	0.9261	0.9354	0.105
Mof_C 	C 	0.3167	0.9478	0.8282	-0.065
Mof_H 	H 	0.2356	0.9644	0.8118	0.082
Mof_C 	C 	0.3742	0.9442	0.7436	-0.045
Mof_C 	C 	0.496	0.9196	0.7686	0.002
Mof_C 	C 	0.5628	0.9218	0.68	0.332
Mof_C 	C 	0.2977	0.9701	0.6255	0.383
Mof_Zn	Zn	0.73371	0.5218	0.09094	1.201
Mof_Zn	Zn	0.91724	0.67243	0.55936	1.177
Mof_O 	O 	0.6317	0.52316	0.1897	-0.444
Mof_O 	O 	0.546	0.6266	0.1069	-0.301
Mof_O 	O 	0.3589	0.51297	0.0601	-0.49
Mof_O 	O 	0.1836	0.52771	0.1028	-0.512
Mof_O 	O 	0.2248	0.5404	0.5027	-0.176
Mof_O 	O 	0.3803	0.593	0.6175	-0.126
Mof_O 	O 	0.7496	0.63534	0.5144	-0.464
Mof_O 	O 	0.7264	0.6617	0.3352	-0.328
Mof_N 	N 	0.1295	0.54621	0.8263	-0.238
Mof_N 	N 	0.0247	0.55424	0.8574	-0.265
Mof_N 	N 	0.9997	0.61647	0.6989	-0.274
Mof_N 	N 	0.9346	0.60172	0.0477	-0.238
Mof_N 	N 	0.8274	0.61062	0.0752	-0.253
Mof_N 	N 	0.9079	0.71942	0.0723	-0.318
Mof_N 	N 	0.326	0.5691	0.5254	-0.006
Mof_C 	C 	0.1107	0.5835	0.7322	0.029
Mof_H 	H 	0.168	0.5867	0.6931	-0.006
Mof_C 	C 	0.9497	0.5961	0.7794	0.183
Mof_H 	H 	0.8711	0.6101	0.7796	-0.044
Mof_C 	C 	0.9793	0.6675	0.0468	0.21
Mof_H 	H 	0.0521	0.6774	0.0304	-0.13
Mof_C 	C 	0.8144	0.6811	0.0894	0.102
Mof_H 	H 	0.7491	0.7017	0.1087	-0.015
Mof_C 	C 	0.6878	0.6363	0.4085	0.329
Mof_C 	C 	0.5589	0.6049	0.378	-0.023
Mof_C 	C 	0.5025	0.6006	0.4627	-0.077
Mof_H 	H 	0.5447	0.6156	0.5363	0.095
Mof_C 	C 	0.3834	0.5739	0.4354	0.094
Mof_C 	C 	0.3167	0.5522	0.3282	-0.073
Mof_H 	H 	0.2356	0.5356	0.3118	0.067
Mof_C 	C 	0.3742	0.5558	0.2436	-0.05
Mof_C 	C 	0.496	0.5804	0.2686	-0.019
Mof_C 	C 	0.5628	0.5782	0.18	0.342
Mof_C 	C 	0.2977	0.5299	0.1255	0.386
Mof_Zn	Zn	0.26629	0.0218	0.40906	1.188
Mof_Zn	Zn	0.08276	0.17243	0.94064	1.163
Mof_O 	O 	0.3683	0.02316	0.3103	-0.471
Mof_O 	O 	0.454	0.1266	0.3931	-0.299
Mof_O 	O 	0.6411	0.01297	0.4399	-0.49
Mof_O 	O 	0.8164	0.02771	0.3972	-0.483
Mof_O 	O 	0.7752	0.0404	0.9973	-0.152
Mof_O 	O 	0.6197	0.093	0.8825	-0.13
Mof_O 	O 	0.2504	0.13534	0.9856	-0.444
Mof_O 	O 	0.2736	0.1617	0.1648	-0.336
Mof_N 	N 	0.8705	0.04621	0.6737	-0.267
Mof_N 	N 	0.9753	0.05424	0.6426	-0.182
Mof_N 	N 	0.0003	0.11647	0.8011	-0.337
Mof_N 	N 	0.0654	0.10172	0.4523	-0.225
Mof_N 	N 	0.1726	0.11062	0.4248	-0.262
Mof_N 	N 	0.0921	0.21942	0.4277	-0.293
Mof_N 	N 	0.674	0.0691	0.9746	0.002
Mof_C 	C 	0.8893	0.0835	0.7678	0.17
Mof_H 	H 	0.832	0.0867	0.8069	-0.042
Mof_C 	C 	0.0503	0.0961	0.7206	0.017
Mof_H 	H 	0.1289	0.1101	0.7204	-0.014
Mof_C 	C 	0.0207	0.1675	0.4532	-0.03
Mof_H 	H 	0.9479	0.1774	0.4696	0.046
Mof_C 	C 	0.1856	0.1811	0.4106	0.099
Mof_H 	H 	0.2509	0.2017	0.3913	-0.018
Mof_C 	C 	0.3122	0.1363	0.0915	0.271
Mof_C 	C 	0.4411	0.1049	0.122	0.009
Mof_C 	C 	0.4975	0.1006	0.0373	-0.168
Mof_H 	H 	0.4553	0.1156	0.9637	0.14
Mof_C 	C 	0.6166	0.0739	0.0646	0.094
Mof_C 	C 	0.6833	0.0522	0.1718	-0.089
Mof_H 	H 	0.7644	0.0356	0.1882	0.071
Mof_C 	C 	0.6258	0.0558	0.2564	-0.036
Mof_C 	C 	0.504	0.0804	0.2314	-0.043
Mof_C 	C 	0.4372	0.0782	0.32	0.35
Mof_C 	C 	0.7023	0.0299	0.3745	0.374
Mof_Zn	Zn	-0	0.5	-0	1.161
Mof_Zn	Zn	2.70528e-33	-5.14005e-33	0.5	1.152
_end
