data_functionalizedCrystal
_audit_creation_method	'EQeq! by Chris Wilmer'
_symmetry_space_group_name_H-M	'P1'
_symmetry_Int_Tables_number	1
_symmetry_cell_setting	triclinic
loop_
_symmetry_equiv_pos_as_xyz
  x,y,z
_cell_length_a	7.7385
_cell_length_b	19.4728
_cell_length_c	25.6963
_cell_angle_alpha	88.2856
_cell_angle_beta	81.34
_cell_angle_gamma	78.5393
loop_
_atom_site_label
_atom_site_type_symbol
_atom_site_fract_x
_atom_site_fract_y
_atom_site_fract_z
_atom_site_charge
Mof_Si	Si	0.77263	0.45474	0.75	2.904
Mof_F 	F 	0.96782	0.46154	0.77262	-0.68
Mof_F 	F 	0.66955	0.52	0.7955	-0.673
Mof_F 	F 	0.74127	0.3901	0.79396	-0.709
Mof_F 	F 	0.57064	0.46154	0.72738	-0.679
Mof_F 	F 	0.81045	0.52	0.7045	-0.674
Mof_F 	F 	0.86863	0.3901	0.70604	-0.711
Mof_Si	Si	0.97737	0.04526	0.75	2.89
Mof_F 	F 	0.75956	0.03846	0.77262	-0.679
Mof_F 	F 	0.03495	0.98	0.7955	-0.671
Mof_F 	F 	0.96477	0.1099	0.79396	-0.711
Mof_F 	F 	0.20198	0.03846	0.72738	-0.676
Mof_F 	F 	0.98505	0.98	0.7045	-0.674
Mof_F 	F 	0.92533	0.1099	0.70604	-0.71
Mof_Si	Si	0.22737	0.54526	0.25	2.903
Mof_F 	F 	0.03218	0.53846	0.22738	-0.681
Mof_F 	F 	0.33045	0.48	0.2045	-0.674
Mof_F 	F 	0.25873	0.6099	0.20604	-0.71
Mof_F 	F 	0.42936	0.53846	0.27262	-0.68
Mof_F 	F 	0.18955	0.48	0.2955	-0.675
Mof_F 	F 	0.13137	0.6099	0.29396	-0.711
Mof_Si	Si	0.02263	0.95474	0.25	2.89
Mof_F 	F 	0.24044	0.96154	0.22738	-0.679
Mof_F 	F 	0.96505	0.02	0.2045	-0.671
Mof_F 	F 	0.03523	0.8901	0.20604	-0.711
Mof_F 	F 	0.79802	0.96154	0.27262	-0.676
Mof_F 	F 	0.01495	0.02	0.2955	-0.674
Mof_F 	F 	0.07467	0.8901	0.29396	-0.71
Mof_Si	Si	0.30895	0.75	0.8821	3.429
Mof_F 	F 	0.37639	0.6937	0.92952	-0.813
Mof_F 	F 	0.41961	0.69186	0.83732	-0.804
Mof_F 	F 	0.12699	0.71604	0.88318	-0.803
Mof_F 	F 	0.19409	0.8063	0.92952	-0.812
Mof_F 	F 	0.24307	0.80814	0.83732	-0.804
Mof_F 	F 	0.48983	0.78396	0.88318	-0.804
Mof_Si	Si	0.94105	0.75	0.6179	3.425
Mof_F 	F 	0.92991	0.6937	0.57048	-0.812
Mof_F 	F 	0.88853	0.69186	0.66268	-0.805
Mof_F 	F 	0.15697	0.71604	0.61682	-0.802
Mof_F 	F 	0.99961	0.8063	0.57048	-0.812
Mof_F 	F 	0.94879	0.80814	0.66268	-0.805
Mof_F 	F 	0.72621	0.78396	0.61682	-0.803
Mof_Si	Si	0.69105	0.25	0.1179	3.429
Mof_F 	F 	0.62361	0.3063	0.07048	-0.813
Mof_F 	F 	0.58039	0.30814	0.16268	-0.804
Mof_F 	F 	0.87301	0.28396	0.11682	-0.803
Mof_F 	F 	0.80591	0.1937	0.07048	-0.812
Mof_F 	F 	0.75693	0.19186	0.16268	-0.804
Mof_F 	F 	0.51017	0.21604	0.11682	-0.804
Mof_Si	Si	0.05895	0.25	0.3821	3.425
Mof_F 	F 	0.07009	0.3063	0.42952	-0.812
Mof_F 	F 	0.11147	0.30814	0.33732	-0.805
Mof_F 	F 	0.84303	0.28396	0.38318	-0.802
Mof_F 	F 	0.00039	0.1937	0.42952	-0.812
Mof_F 	F 	0.05121	0.19186	0.33732	-0.805
Mof_F 	F 	0.27379	0.21604	0.38318	-0.803
Mof_Ag	Ag	0.76953	0.46609	0.06124	0.597
Mof_Ag	Ag	0.22708	0.4307	0.05278	0.604
Mof_Ag	Ag	0.66922	0.03392	0.06124	0.595
Mof_Ag	Ag	0.22014	0.0693	0.05278	0.602
Mof_Ag	Ag	0.76438	0.46609	0.43875	0.597
Mof_Ag	Ag	0.34222	0.4307	0.44722	0.604
Mof_Ag	Ag	0.29687	0.03391	0.43875	0.596
Mof_Ag	Ag	0.71056	0.0693	0.44722	0.605
Mof_Ag	Ag	0.23047	0.53391	0.93876	0.597
Mof_Ag	Ag	0.77292	0.5693	0.94722	0.604
Mof_Ag	Ag	0.33078	0.96608	0.93876	0.595
Mof_Ag	Ag	0.77986	0.9307	0.94722	0.602
Mof_Ag	Ag	0.23562	0.53391	0.56125	0.597
Mof_Ag	Ag	0.65778	0.5693	0.55278	0.604
Mof_Ag	Ag	0.70314	0.96608	0.56125	0.596
Mof_Ag	Ag	0.28944	0.9307	0.55278	0.605
Mof_H 	H 	0.938	0.443	0.8638	0.066
Mof_H 	H 	0.0365	0.3232	0.8554	0.113
Mof_H 	H 	0.9114	0.3116	0.0116	0.072
Mof_H 	H 	0.1573	0.0876	0.8606	0.057
Mof_H 	H 	0.0431	0.2066	0.8558	0.125
Mof_H 	H 	0.0819	0.2146	0.0076	0.053
Mof_H 	H 	0.2593	0.3482	0.1638	0.067
Mof_H 	H 	0.094	0.3392	0.2456	0.16
Mof_H 	H 	0.6745	0.4452	0.1852	0.082
Mof_H 	H 	0.6982	0.057	0.8638	0.068
Mof_H 	H 	0.6081	0.1768	0.8554	0.108
Mof_H 	H 	0.577	0.1884	0.0116	0.071
Mof_H 	H 	0.4821	0.4124	0.8606	0.056
Mof_H 	H 	0.6011	0.2934	0.8558	0.124
Mof_H 	H 	0.4105	0.2854	0.0076	0.055
Mof_H 	H 	0.0769	0.1518	0.1638	0.067
Mof_H 	H 	0.1604	0.1608	0.2456	0.157
Mof_H 	H 	0.6403	0.0548	0.1852	0.081
Mof_H 	H 	0.619	0.443	0.6362	0.068
Mof_H 	H 	0.6403	0.3232	0.6446	0.108
Mof_H 	H 	0.777	0.3116	0.4884	0.072
Mof_H 	H 	0.7551	0.0876	0.6394	0.055
Mof_H 	H 	0.7503	0.2066	0.6442	0.124
Mof_H 	H 	0.7035	0.2146	0.4924	0.055
Mof_H 	H 	0.3925	0.3482	0.3362	0.069
Mof_H 	H 	0.5668	0.3392	0.2544	0.156
Mof_H 	H 	0.8803	0.4452	0.3148	0.081
Mof_H 	H 	0.2448	0.057	0.6362	0.069
Mof_H 	H 	0.2151	0.1768	0.6446	0.109
Mof_H 	H 	0.2346	0.1884	0.4884	0.072
Mof_H 	H 	0.1055	0.4124	0.6394	0.056
Mof_H 	H 	0.1055	0.2934	0.6442	0.125
Mof_H 	H 	0.3041	0.2854	0.4924	0.055
Mof_H 	H 	0.7713	0.1518	0.3362	0.069
Mof_H 	H 	0.6788	0.1608	0.2544	0.158
Mof_H 	H 	0.3049	0.0548	0.3148	0.081
Mof_H 	H 	0.062	0.557	0.1362	0.066
Mof_H 	H 	0.9635	0.6768	0.1446	0.113
Mof_H 	H 	0.0886	0.6884	0.9884	0.072
Mof_H 	H 	0.8427	0.9124	0.1394	0.057
Mof_H 	H 	0.9569	0.7934	0.1442	0.125
Mof_H 	H 	0.9181	0.7854	0.9924	0.053
Mof_H 	H 	0.7407	0.6518	0.8362	0.067
Mof_H 	H 	0.906	0.6608	0.7544	0.16
Mof_H 	H 	0.3255	0.5548	0.8148	0.082
Mof_H 	H 	0.3018	0.943	0.1362	0.068
Mof_H 	H 	0.3919	0.8232	0.1446	0.108
Mof_H 	H 	0.423	0.8116	0.9884	0.071
Mof_H 	H 	0.5179	0.5876	0.1394	0.056
Mof_H 	H 	0.3989	0.7066	0.1442	0.124
Mof_H 	H 	0.5895	0.7146	0.9924	0.055
Mof_H 	H 	0.9231	0.8482	0.8362	0.067
Mof_H 	H 	0.8396	0.8392	0.7544	0.157
Mof_H 	H 	0.3597	0.9452	0.8148	0.081
Mof_H 	H 	0.381	0.557	0.3638	0.068
Mof_H 	H 	0.3597	0.6768	0.3554	0.108
Mof_H 	H 	0.223	0.6884	0.5116	0.072
Mof_H 	H 	0.2449	0.9124	0.3606	0.055
Mof_H 	H 	0.2497	0.7934	0.3558	0.124
Mof_H 	H 	0.2965	0.7854	0.5076	0.055
Mof_H 	H 	0.6075	0.6518	0.6638	0.069
Mof_H 	H 	0.4332	0.6608	0.7456	0.156
Mof_H 	H 	0.1197	0.5548	0.6852	0.081
Mof_H 	H 	0.7552	0.943	0.3638	0.069
Mof_H 	H 	0.7849	0.8232	0.3554	0.109
Mof_H 	H 	0.7654	0.8116	0.5116	0.072
Mof_H 	H 	0.8945	0.5876	0.3606	0.056
Mof_H 	H 	0.8945	0.7066	0.3558	0.125
Mof_H 	H 	0.6959	0.7146	0.5076	0.055
Mof_H 	H 	0.2287	0.8482	0.6638	0.069
Mof_H 	H 	0.3212	0.8392	0.7456	0.158
Mof_H 	H 	0.6951	0.9452	0.6852	0.081
Mof_C 	C 	0.937	0.4154	0.894	0.063
Mof_C 	C 	0.99481	0.34332	0.88846	-0.091
Mof_C 	C 	0.98857	0.3028	0.93326	0.022
Mof_C 	C 	0.92087	0.338	0.98086	0.006
Mof_C 	C 	0.14388	0.11492	0.89052	0.081
Mof_C 	C 	0.07419	0.1864	0.88722	-0.098
Mof_C 	C 	0.05308	0.22584	0.9318	0.031
Mof_C 	C 	0.0992	0.18958	0.97642	0.018
Mof_C 	C 	0.13895	0.36882	0.16908	0.149
Mof_C 	C 	0.041	0.36248	0.21812	-0.098
Mof_C 	C 	0.86421	0.39172	0.22466	0.088
Mof_C 	C 	0.7956	0.42586	0.18154	0.057
Mof_C 	C 	0.669	0.0846	0.894	0.059
Mof_C 	C 	0.61673	0.15668	0.88846	-0.082
Mof_C 	C 	0.57817	0.1972	0.93326	0.02
Mof_C 	C 	0.59827	0.162	0.98086	0.008
Mof_C 	C 	0.4656	0.38508	0.89052	0.081
Mof_C 	C 	0.53859	0.3136	0.88722	-0.099
Mof_C 	C 	0.51512	0.27416	0.9318	0.031
Mof_C 	C 	0.42438	0.31042	0.97642	0.017
Mof_C 	C 	0.19197	0.13118	0.16908	0.145
Mof_C 	C 	0.24088	0.13752	0.21812	-0.088
Mof_C 	C 	0.41113	0.10828	0.22466	0.08
Mof_C 	C 	0.52286	0.07414	0.18154	0.06
Mof_C 	C 	0.6476	0.4154	0.606	0.059
Mof_C 	C 	0.66187	0.34332	0.61154	-0.082
Mof_C 	C 	0.70863	0.3028	0.56674	0.021
Mof_C 	C 	0.74113	0.338	0.51914	0.007
Mof_C 	C 	0.7412	0.11492	0.60948	0.08
Mof_C 	C 	0.73941	0.1864	0.61278	-0.099
Mof_C 	C 	0.72108	0.22584	0.5682	0.031
Mof_C 	C 	0.71122	0.18958	0.52358	0.016
Mof_C 	C 	0.49223	0.36882	0.33092	0.144
Mof_C 	C 	0.59652	0.36248	0.28188	-0.086
Mof_C 	C 	0.74407	0.39172	0.27534	0.077
Mof_C 	C 	0.77854	0.42586	0.31846	0.062
Mof_C 	C 	0.2464	0.0846	0.606	0.059
Mof_C 	C 	0.22659	0.15668	0.61154	-0.081
Mof_C 	C 	0.22463	0.1972	0.56674	0.021
Mof_C 	C 	0.23973	0.162	0.51914	0.007
Mof_C 	C 	0.14932	0.38508	0.60948	0.081
Mof_C 	C 	0.14781	0.3136	0.61278	-0.099
Mof_C 	C 	0.21072	0.27416	0.5682	0.032
Mof_C 	C 	0.2652	0.31042	0.52358	0.016
Mof_C 	C 	0.67685	0.13118	0.33092	0.145
Mof_C 	C 	0.6216	0.13752	0.28188	-0.087
Mof_C 	C 	0.48059	0.10828	0.27534	0.079
Mof_C 	C 	0.403	0.07414	0.31846	0.06
Mof_C 	C 	0.063	0.5846	0.106	0.063
Mof_C 	C 	0.00519	0.65668	0.11154	-0.091
Mof_C 	C 	0.01143	0.6972	0.06674	0.022
Mof_C 	C 	0.07913	0.662	0.01914	0.006
Mof_C 	C 	0.85612	0.88508	0.10948	0.081
Mof_C 	C 	0.92581	0.8136	0.11278	-0.098
Mof_C 	C 	0.94692	0.77416	0.0682	0.031
Mof_C 	C 	0.9008	0.81042	0.02358	0.018
Mof_C 	C 	0.86105	0.63118	0.83092	0.149
Mof_C 	C 	0.959	0.63752	0.78188	-0.098
Mof_C 	C 	0.13579	0.60828	0.77534	0.088
Mof_C 	C 	0.2044	0.57414	0.81846	0.057
Mof_C 	C 	0.331	0.9154	0.106	0.059
Mof_C 	C 	0.38327	0.84332	0.11154	-0.082
Mof_C 	C 	0.42183	0.8028	0.06674	0.02
Mof_C 	C 	0.40173	0.838	0.01914	0.008
Mof_C 	C 	0.5344	0.61492	0.10948	0.081
Mof_C 	C 	0.46141	0.6864	0.11278	-0.099
Mof_C 	C 	0.48488	0.72584	0.0682	0.031
Mof_C 	C 	0.57562	0.68958	0.02358	0.017
Mof_C 	C 	0.80803	0.86882	0.83092	0.145
Mof_C 	C 	0.75912	0.86248	0.78188	-0.088
Mof_C 	C 	0.58887	0.89172	0.77534	0.08
Mof_C 	C 	0.47714	0.92586	0.81846	0.06
Mof_C 	C 	0.3524	0.5846	0.394	0.059
Mof_C 	C 	0.33813	0.65668	0.38846	-0.082
Mof_C 	C 	0.29137	0.6972	0.43326	0.021
Mof_C 	C 	0.25887	0.662	0.48086	0.007
Mof_C 	C 	0.2588	0.88508	0.39052	0.08
Mof_C 	C 	0.26059	0.8136	0.38722	-0.099
Mof_C 	C 	0.27892	0.77416	0.4318	0.031
Mof_C 	C 	0.28878	0.81042	0.47642	0.016
Mof_C 	C 	0.50777	0.63118	0.66908	0.144
Mof_C 	C 	0.40348	0.63752	0.71812	-0.086
Mof_C 	C 	0.25593	0.60828	0.72466	0.077
Mof_C 	C 	0.22146	0.57414	0.68154	0.062
Mof_C 	C 	0.7536	0.9154	0.394	0.059
Mof_C 	C 	0.77341	0.84332	0.38846	-0.081
Mof_C 	C 	0.77537	0.8028	0.43326	0.021
Mof_C 	C 	0.76027	0.838	0.48086	0.007
Mof_C 	C 	0.85068	0.61492	0.39052	0.081
Mof_C 	C 	0.85219	0.6864	0.38722	-0.099
Mof_C 	C 	0.78928	0.72584	0.4318	0.032
Mof_C 	C 	0.7348	0.68958	0.47642	0.016
Mof_C 	C 	0.32315	0.86882	0.66908	0.145
Mof_C 	C 	0.3784	0.86248	0.71812	-0.087
Mof_C 	C 	0.51941	0.89172	0.72466	0.079
Mof_C 	C 	0.597	0.92586	0.68154	0.06
Mof_N 	N 	0.86953	0.407	0.98434	-0.158
Mof_N 	N 	0.87971	0.4471	0.94088	-0.174
Mof_N 	N 	0.16662	0.12134	0.97762	-0.151
Mof_N 	N 	0.1921	0.0837	0.9341	-0.161
Mof_N 	N 	0.06968	0.40294	0.1293	-0.138
Mof_N 	N 	0.89496	0.43202	0.13566	-0.12
Mof_N 	N 	0.64613	0.093	0.98434	-0.158
Mof_N 	N 	0.67941	0.0529	0.94088	-0.173
Mof_N 	N 	0.35576	0.37866	0.97762	-0.151
Mof_N 	N 	0.3738	0.4163	0.9341	-0.162
Mof_N 	N 	0.30102	0.09706	0.1293	-0.136
Mof_N 	N 	0.46938	0.06798	0.13566	-0.122
Mof_N 	N 	0.72347	0.407	0.51566	-0.158
Mof_N 	N 	0.67319	0.4471	0.55912	-0.173
Mof_N 	N 	0.71204	0.12134	0.52238	-0.151
Mof_N 	N 	0.7242	0.0837	0.5659	-0.162
Mof_N 	N 	0.52738	0.40294	0.3707	-0.135
Mof_N 	N 	0.67302	0.43202	0.36434	-0.122
Mof_N 	N 	0.26087	0.093	0.51566	-0.158
Mof_N 	N 	0.26769	0.0529	0.55912	-0.172
Mof_N 	N 	0.26558	0.37866	0.52238	-0.151
Mof_N 	N 	0.2099	0.4163	0.5659	-0.162
Mof_N 	N 	0.60192	0.09706	0.3707	-0.136
Mof_N 	N 	0.46264	0.06798	0.36434	-0.122
Mof_N 	N 	0.13047	0.593	0.01566	-0.158
Mof_N 	N 	0.12029	0.5529	0.05912	-0.174
Mof_N 	N 	0.83338	0.87866	0.02238	-0.151
Mof_N 	N 	0.8079	0.9163	0.0659	-0.161
Mof_N 	N 	0.93032	0.59706	0.8707	-0.138
Mof_N 	N 	0.10504	0.56798	0.86434	-0.12
Mof_N 	N 	0.35387	0.907	0.01566	-0.158
Mof_N 	N 	0.32059	0.9471	0.05912	-0.173
Mof_N 	N 	0.64424	0.62134	0.02238	-0.151
Mof_N 	N 	0.6262	0.5837	0.0659	-0.162
Mof_N 	N 	0.69898	0.90294	0.8707	-0.136
Mof_N 	N 	0.53062	0.93202	0.86434	-0.122
Mof_N 	N 	0.27653	0.593	0.48434	-0.158
Mof_N 	N 	0.32681	0.5529	0.44088	-0.173
Mof_N 	N 	0.28796	0.87866	0.47762	-0.151
Mof_N 	N 	0.2758	0.9163	0.4341	-0.162
Mof_N 	N 	0.47262	0.59706	0.6293	-0.135
Mof_N 	N 	0.32698	0.56798	0.63566	-0.122
Mof_N 	N 	0.73913	0.907	0.48434	-0.158
Mof_N 	N 	0.73231	0.9471	0.44088	-0.172
Mof_N 	N 	0.73442	0.62134	0.47762	-0.151
Mof_N 	N 	0.7901	0.5837	0.4341	-0.162
Mof_N 	N 	0.39808	0.90294	0.6293	-0.136
Mof_N 	N 	0.53736	0.93202	0.63566	-0.122
_end
