data_functionalizedCrystal
_audit_creation_method	'EQeq! by Chris Wilmer'
_symmetry_space_group_name_H-M	'P1'
_symmetry_Int_Tables_number	1
_symmetry_cell_setting	triclinic
loop_
_symmetry_equiv_pos_as_xyz
  x,y,z
_cell_length_a	9.574
_cell_length_b	14
_cell_length_c	17.435
_cell_angle_alpha	90
_cell_angle_beta	90
_cell_angle_gamma	90
loop_
_atom_site_label
_atom_site_type_symbol
_atom_site_fract_x
_atom_site_fract_y
_atom_site_fract_z
_atom_site_charge
Mof_Ga	Ga	0.22463	0.29395	0.69846	4.121
Mof_Ga	Ga	0.45118	0.50175	0.45624	3.932
Mof_Ga	Ga	0.24554	0.20719	0.47185	4.69
Mof_Ga	Ga	0.46107	0.5115	0.9271	3.961
Mof_P 	P 	0.2547	0.34939	0.87405	0.996
Mof_P 	P 	0.2219	0.42018	0.55107	1.065
Mof_P 	P 	0.4832	0.21287	0.61963	1.085
Mof_P 	P 	0.7634	0.52288	0.51133	0.95
Mof_P 	P 	0.0022	0.18191	0.60985	0.997
Mof_O 	O 	0.1903	0.339	0.7942	-1.165
Mof_O 	O 	0.4012	0.2463	0.6927	-1.174
Mof_O 	O 	0.0896	0.204	0.683	-1.17
Mof_O 	O 	0.1961	0.397	0.6359	-1.175
Mof_O 	O 	0.367	0.4673	0.5466	-1.164
Mof_O 	O 	0.1374	0.3873	0.926	-1.094
Mof_O 	O 	0.6184	0.553	0.483	-1.108
Mof_O 	O 	0.9337	0.0819	0.6243	-1.121
Mof_O 	O 	0.2089	0.3385	0.4976	-1.373
Mof_O 	O 	0.6029	0.2825	0.6094	-1.078
Mof_O 	O 	0.386	0.2027	0.5527	-1.33
Mof_O 	O 	0.769	0.4297	0.5541	-1.106
Mof_O 	O 	0.8925	0.2594	0.6021	-1.107
Mof_O 	O 	0.095	0.1655	0.541	-1.325
Mof_O 	O 	0.3749	0.421	0.8679	-1.175
Mof_O 	O 	0.1113	0.4931	0.5244	-1.161
Mof_O 	O 	0.5411	0.1122	0.6388	-1.163
Mof_O 	O 	0.857	0.5245	0.4399	-1.157
Mof_O 	O 	0.3078	0.2564	0.9048	-0.358
Mof_O 	O 	0.8121	0.5997	0.5685	-0.303
Mof_Ga	Ga	0.27537	0.70605	0.19846	4.136
Mof_Ga	Ga	0.04882	0.49825	0.95624	3.847
Mof_Ga	Ga	0.25446	0.79281	0.97185	4.671
Mof_Ga	Ga	0.03893	0.4885	0.4271	3.973
Mof_P 	P 	0.2453	0.65061	0.37405	1.001
Mof_P 	P 	0.2781	0.57982	0.05107	1.068
Mof_P 	P 	0.0168	0.78713	0.11963	1.109
Mof_P 	P 	0.7366	0.47712	0.01133	0.935
Mof_P 	P 	0.4978	0.81809	0.10985	1.018
Mof_O 	O 	0.3097	0.661	0.2942	-1.165
Mof_O 	O 	0.0988	0.7537	0.1927	-1.173
Mof_O 	O 	0.4104	0.796	0.183	-1.166
Mof_O 	O 	0.3039	0.603	0.1359	-1.176
Mof_O 	O 	0.133	0.5327	0.0466	-1.139
Mof_O 	O 	0.3626	0.6127	0.426	-1.103
Mof_O 	O 	0.8816	0.447	0.983	-1.076
Mof_O 	O 	0.5663	0.9181	0.1243	-1.138
Mof_O 	O 	0.2911	0.6615	0.9976	-1.374
Mof_O 	O 	0.8971	0.7175	0.1094	-1.089
Mof_O 	O 	0.114	0.7973	0.0527	-1.317
Mof_O 	O 	0.731	0.5703	0.0541	-1.103
Mof_O 	O 	0.6075	0.7406	0.1021	-1.115
Mof_O 	O 	0.405	0.8345	0.041	-1.317
Mof_O 	O 	0.1251	0.579	0.3679	-1.177
Mof_O 	O 	0.3887	0.5069	0.0244	-1.153
Mof_O 	O 	0.9589	0.8878	0.1388	-1.164
Mof_O 	O 	0.643	0.4755	0.9399	-1.148
Mof_O 	O 	0.1922	0.7436	0.4048	-0.353
Mof_O 	O 	0.6879	0.4003	0.0685	-0.302
Mof_Ga	Ga	0.77537	0.79395	0.80154	4.135
Mof_Ga	Ga	0.54882	0.00175	0.04376	3.929
Mof_Ga	Ga	0.75446	0.70719	0.02815	4.664
Mof_Ga	Ga	0.53893	0.0115	0.5729	3.945
Mof_P 	P 	0.7453	0.84939	0.62595	0.998
Mof_P 	P 	0.7781	0.92018	0.94893	1.071
Mof_P 	P 	0.5168	0.71287	0.88037	1.084
Mof_P 	P 	0.2366	0.02288	0.98867	0.906
Mof_P 	P 	0.9978	0.68191	0.89015	1.031
Mof_O 	O 	0.8097	0.839	0.7058	-1.164
Mof_O 	O 	0.5988	0.7463	0.8073	-1.174
Mof_O 	O 	0.9104	0.704	0.817	-1.167
Mof_O 	O 	0.8039	0.897	0.8641	-1.173
Mof_O 	O 	0.633	0.9673	0.9534	-1.157
Mof_O 	O 	0.8626	0.8873	0.574	-1.099
Mof_O 	O 	0.3816	0.053	0.017	-1.092
Mof_O 	O 	0.0663	0.5819	0.8757	-1.133
Mof_O 	O 	0.7911	0.8385	0.0024	-1.377
Mof_O 	O 	0.3971	0.7825	0.8906	-1.075
Mof_O 	O 	0.614	0.7027	0.9473	-1.321
Mof_O 	O 	0.231	0.9297	0.9459	-1.087
Mof_O 	O 	0.1075	0.7594	0.8979	-1.123
Mof_O 	O 	0.905	0.6655	0.959	-1.31
Mof_O 	O 	0.6251	0.921	0.6321	-1.169
Mof_O 	O 	0.8887	0.9931	0.9756	-1.129
Mof_O 	O 	0.4589	0.6122	0.8612	-1.164
Mof_O 	O 	0.143	0.0245	0.0601	-1.122
Mof_O 	O 	0.6922	0.7564	0.5952	-0.354
Mof_O 	O 	0.1879	0.0997	0.9315	-0.309
Mof_Ga	Ga	0.72463	0.20605	0.30154	4.131
Mof_Ga	Ga	0.95118	0.99825	0.54376	3.904
Mof_Ga	Ga	0.74554	0.29281	0.52815	4.691
Mof_Ga	Ga	0.96107	0.9885	0.0729	3.873
Mof_P 	P 	0.7547	0.15061	0.12595	0.996
Mof_P 	P 	0.7219	0.07982	0.44893	1.064
Mof_P 	P 	0.9832	0.28713	0.38037	1.091
Mof_P 	P 	0.2634	0.97712	0.48867	0.959
Mof_P 	P 	0.5022	0.31809	0.39015	1.019
Mof_O 	O 	0.6903	0.161	0.2058	-1.164
Mof_O 	O 	0.9012	0.2537	0.3073	-1.175
Mof_O 	O 	0.5896	0.296	0.317	-1.168
Mof_O 	O 	0.6961	0.103	0.3641	-1.174
Mof_O 	O 	0.867	0.0327	0.4534	-1.154
Mof_O 	O 	0.6374	0.1127	0.074	-1.1
Mof_O 	O 	0.1184	0.947	0.517	-1.096
Mof_O 	O 	0.4337	0.4181	0.3757	-1.14
Mof_O 	O 	0.7089	0.1615	0.5024	-1.37
Mof_O 	O 	0.1029	0.2175	0.3906	-1.084
Mof_O 	O 	0.886	0.2973	0.4473	-1.329
Mof_O 	O 	0.269	0.0703	0.4459	-1.116
Mof_O 	O 	0.3925	0.2406	0.3979	-1.119
Mof_O 	O 	0.595	0.3345	0.459	-1.324
Mof_O 	O 	0.8749	0.079	0.1321	-1.154
Mof_O 	O 	0.6113	0.0069	0.4756	-1.155
Mof_O 	O 	0.0411	0.3878	0.3612	-1.169
Mof_O 	O 	0.357	0.9755	0.5601	-1.146
Mof_O 	O 	0.8078	0.2436	0.0952	-0.354
Mof_O 	O 	0.3121	0.9003	0.4315	-0.301
_end
