data_functionalizedCrystal
_audit_creation_method	'EQeq! by Chris Wilmer'
_symmetry_space_group_name_H-M	'P1'
_symmetry_Int_Tables_number	1
_symmetry_cell_setting	triclinic
loop_
_symmetry_equiv_pos_as_xyz
  x,y,z
_cell_length_a	10.391
_cell_length_b	15.056
_cell_length_c	10.121
_cell_angle_alpha	101.363
_cell_angle_beta	101.115
_cell_angle_gamma	105.737
loop_
_atom_site_label
_atom_site_type_symbol
_atom_site_fract_x
_atom_site_fract_y
_atom_site_fract_z
_atom_site_charge
Mof_Pr	Pr	0.03242	0.19445	0.78012	2.571
Mof_Pr	Pr	0.00639	0.22275	0.28923	2.4
Mof_O 	O 	0.1989	0.3236	0.2278	-0.639
Mof_O 	O 	0.1812	0.2596	0.0075	-0.669
Mof_O 	O 	0.8407	0.6435	0.2384	-0.527
Mof_O 	O 	0.845	0.5377	0.0507	-0.316
Mof_O 	O 	0.8422	0.1032	0.8567	-0.638
Mof_O 	O 	0.8358	0.1564	0.0727	-0.654
Mof_O 	O 	0.1093	0.9419	0.6893	-0.522
Mof_O 	O 	0.1218	0.0656	0.8576	-0.527
Mof_O 	O 	0.8807	0.2184	0.5932	-0.69
Mof_O 	O 	0.8219	0.2453	0.3875	-0.614
Mof_O 	O 	0.2238	0.1829	0.6812	-0.603
Mof_O 	O 	0.159	0.1953	0.4694	-0.685
Mof_N 	N 	0.3927	0.4965	0.3472	-0.123
Mof_N 	N 	0.659	0.371	0.969	-0.118
Mof_N 	N 	0.6011	0.9914	0.6671	-0.135
Mof_N 	N 	0.358	0.131	0.058	-0.129
Mof_N 	N 	0.5995	0.293	0.3187	-0.117
Mof_N 	N 	0.497	0.2441	0.797	-0.115
Mof_C 	C 	0.2462	0.3183	0.1232	0.581
Mof_C 	C 	0.3866	0.3829	0.1361	-0.195
Mof_C 	C 	0.4549	0.3567	0.0347	-0
Mof_H 	H 	0.4095	0.3013	0.9626	0.046
Mof_C 	C 	0.5886	0.4112	0.0393	0.098
Mof_C 	C 	0.6497	0.4968	0.1453	-0.098
Mof_C 	C 	0.5846	0.5238	0.2427	-0.069
Mof_H 	H 	0.6283	0.5812	0.3113	0.058
Mof_C 	C 	0.4527	0.4667	0.2422	0.145
Mof_C 	C 	0.7888	0.5638	0.1442	0.359
Mof_C 	C 	0.7782	0.1172	0.9468	0.56
Mof_C 	C 	0.6226	0.0862	0.9018	-0.178
Mof_C 	C 	0.5541	0.1213	0.9963	-0.042
Mof_H 	H 	0.6064	0.1604	0.0841	0.063
Mof_C 	C 	0.4115	0.0998	0.9639	0.122
Mof_C 	C 	0.3335	0.0378	0.833	-0.125
Mof_C 	C 	0.3982	0.0011	0.739	-0.066
Mof_H 	H 	0.3448	0.9591	0.6535	0.059
Mof_C 	C 	0.5446	0.0263	0.7701	0.129
Mof_C 	C 	0.1787	0.0141	0.7922	0.401
Mof_C 	C 	0.7975	0.2341	0.5012	0.566
Mof_C 	C 	0.6609	0.2372	0.5238	-0.195
Mof_C 	C 	0.6267	0.2186	0.6436	-0.004
Mof_H 	H 	0.6926	0.21	0.7119	0.005
Mof_C 	C 	0.4966	0.2123	0.6647	0.125
Mof_C 	C 	0.3971	0.2216	0.5606	-0.195
Mof_C 	C 	0.431	0.2441	0.4434	-0.007
Mof_H 	H 	0.3638	0.2508	0.3744	0.018
Mof_C 	C 	0.5644	0.2569	0.4266	0.121
Mof_C 	C 	0.2507	0.1992	0.5718	0.569
Mof_Pr	Pr	0.96758	0.80555	0.21988	2.57
Mof_Pr	Pr	0.99361	0.77725	0.71077	2.399
Mof_O 	O 	0.8011	0.6764	0.7722	-0.639
Mof_O 	O 	0.8188	0.7404	0.9925	-0.669
Mof_O 	O 	0.1593	0.3565	0.7616	-0.527
Mof_O 	O 	0.155	0.4623	0.9493	-0.316
Mof_O 	O 	0.1578	0.8968	0.1433	-0.638
Mof_O 	O 	0.1642	0.8436	0.9273	-0.654
Mof_O 	O 	0.8907	0.0581	0.3107	-0.522
Mof_O 	O 	0.8782	0.9344	0.1424	-0.527
Mof_O 	O 	0.1193	0.7816	0.4068	-0.69
Mof_O 	O 	0.1781	0.7547	0.6125	-0.614
Mof_O 	O 	0.7762	0.8171	0.3188	-0.603
Mof_O 	O 	0.841	0.8047	0.5306	-0.685
Mof_N 	N 	0.6073	0.5035	0.6528	-0.123
Mof_N 	N 	0.341	0.629	0.031	-0.118
Mof_N 	N 	0.3989	0.0086	0.3329	-0.135
Mof_N 	N 	0.642	0.869	0.942	-0.129
Mof_N 	N 	0.4005	0.707	0.6813	-0.117
Mof_N 	N 	0.503	0.7559	0.203	-0.115
Mof_C 	C 	0.7538	0.6817	0.8768	0.581
Mof_C 	C 	0.6134	0.6171	0.8639	-0.195
Mof_C 	C 	0.5451	0.6433	0.9653	-0
Mof_H 	H 	0.5905	0.6987	0.0374	0.046
Mof_C 	C 	0.4114	0.5888	0.9607	0.098
Mof_C 	C 	0.3503	0.5032	0.8547	-0.098
Mof_C 	C 	0.4154	0.4762	0.7573	-0.069
Mof_H 	H 	0.3717	0.4188	0.6887	0.058
Mof_C 	C 	0.5473	0.5333	0.7578	0.145
Mof_C 	C 	0.2112	0.4362	0.8558	0.359
Mof_C 	C 	0.2218	0.8828	0.0532	0.56
Mof_C 	C 	0.3774	0.9138	0.0982	-0.178
Mof_C 	C 	0.4459	0.8787	0.0037	-0.042
Mof_H 	H 	0.3936	0.8396	0.9159	0.063
Mof_C 	C 	0.5885	0.9002	0.0361	0.122
Mof_C 	C 	0.6665	0.9622	0.167	-0.125
Mof_C 	C 	0.6018	0.9989	0.261	-0.066
Mof_H 	H 	0.6552	0.0409	0.3465	0.059
Mof_C 	C 	0.4554	0.9737	0.2299	0.129
Mof_C 	C 	0.8213	0.9859	0.2078	0.401
Mof_C 	C 	0.2025	0.7659	0.4988	0.566
Mof_C 	C 	0.3391	0.7628	0.4762	-0.195
Mof_C 	C 	0.3733	0.7814	0.3564	-0.004
Mof_H 	H 	0.3074	0.79	0.2881	0.005
Mof_C 	C 	0.5034	0.7877	0.3353	0.125
Mof_C 	C 	0.6029	0.7784	0.4394	-0.195
Mof_C 	C 	0.569	0.7559	0.5566	-0.007
Mof_H 	H 	0.6362	0.7492	0.6256	0.018
Mof_C 	C 	0.4356	0.7431	0.5734	0.121
Mof_C 	C 	0.7493	0.8008	0.4282	0.569
_end
