data_functionalizedCrystal
_audit_creation_method	'EQeq! by Chris Wilmer'
_symmetry_space_group_name_H-M	'P1'
_symmetry_Int_Tables_number	1
_symmetry_cell_setting	triclinic
loop_
_symmetry_equiv_pos_as_xyz
  x,y,z
_cell_length_a	21.4934
_cell_length_b	21.4934
_cell_length_c	21.4934
_cell_angle_alpha	90
_cell_angle_beta	90
_cell_angle_gamma	90
loop_
_atom_site_label
_atom_site_type_symbol
_atom_site_fract_x
_atom_site_fract_y
_atom_site_fract_z
_atom_site_charge
Mof_Al	Al	0.26072	0.19852	0.31923	4.235
Mof_C 	C 	0.4567	0.21435	0.33007	-0.415
Mof_C 	C 	0.51089	0.21889	0.29435	0.326
Mof_H 	H 	0.5089	0.2301	0.2516	-0.091
Mof_C 	C 	0.56837	0.20653	0.32299	-0.431
Mof_C 	C 	0.57052	0.1952	0.38539	0.198
Mof_H 	H 	0.6096	0.1887	0.405	-0.039
Mof_C 	C 	0.51682	0.193	0.42029	-0.108
Mof_C 	C 	0.45909	0.2023	0.39172	0.194
Mof_H 	H 	0.4219	0.2003	0.4155	-0.029
Mof_C 	C 	0.39346	0.22341	0.30089	0.947
Mof_C 	C 	0.62813	0.20719	0.28809	0.973
Mof_N 	N 	0.524	0.1912	0.48586	-0.071
Mof_O 	O 	0.3483	0.19978	0.33058	-1.214
Mof_O 	O 	0.38945	0.25297	0.25128	-1.217
Mof_O 	O 	0.67323	0.1812	0.31413	-1.229
Mof_O 	O 	0.62961	0.2332	0.23604	-1.213
Mof_Al	Al	0.73928	0.80148	0.31923	4.234
Mof_C 	C 	0.5433	0.78565	0.33007	-0.416
Mof_C 	C 	0.48911	0.78111	0.29435	0.325
Mof_H 	H 	0.4911	0.7699	0.2516	-0.092
Mof_C 	C 	0.43163	0.79347	0.32299	-0.431
Mof_C 	C 	0.42948	0.8048	0.38539	0.198
Mof_H 	H 	0.3904	0.8113	0.405	-0.039
Mof_C 	C 	0.48318	0.807	0.42029	-0.108
Mof_C 	C 	0.54091	0.7977	0.39172	0.194
Mof_H 	H 	0.5781	0.7997	0.4155	-0.029
Mof_C 	C 	0.60654	0.77659	0.30089	0.947
Mof_C 	C 	0.37187	0.79281	0.28809	0.973
Mof_N 	N 	0.476	0.8088	0.48586	-0.071
Mof_O 	O 	0.6517	0.80022	0.33058	-1.214
Mof_O 	O 	0.61055	0.74703	0.25128	-1.217
Mof_O 	O 	0.32677	0.8188	0.31413	-1.229
Mof_O 	O 	0.37039	0.7668	0.23604	-1.213
Mof_Al	Al	0.73928	0.19852	0.68077	4.234
Mof_C 	C 	0.5433	0.21435	0.66993	-0.416
Mof_C 	C 	0.48911	0.21889	0.70565	0.325
Mof_H 	H 	0.4911	0.2301	0.7484	-0.092
Mof_C 	C 	0.43163	0.20653	0.67701	-0.431
Mof_C 	C 	0.42948	0.1952	0.61461	0.198
Mof_H 	H 	0.3904	0.1887	0.595	-0.039
Mof_C 	C 	0.48318	0.193	0.57971	-0.108
Mof_C 	C 	0.54091	0.2023	0.60828	0.194
Mof_H 	H 	0.5781	0.2003	0.5845	-0.029
Mof_C 	C 	0.60654	0.22341	0.69911	0.947
Mof_C 	C 	0.37187	0.20719	0.71191	0.973
Mof_N 	N 	0.476	0.1912	0.51414	-0.071
Mof_O 	O 	0.6517	0.19978	0.66942	-1.214
Mof_O 	O 	0.61055	0.25297	0.74872	-1.217
Mof_O 	O 	0.32677	0.1812	0.68587	-1.229
Mof_O 	O 	0.37039	0.2332	0.76396	-1.213
Mof_Al	Al	0.26072	0.80148	0.68077	4.234
Mof_C 	C 	0.4567	0.78565	0.66993	-0.416
Mof_C 	C 	0.51089	0.78111	0.70565	0.325
Mof_H 	H 	0.5089	0.7699	0.7484	-0.092
Mof_C 	C 	0.56837	0.79347	0.67701	-0.431
Mof_C 	C 	0.57052	0.8048	0.61461	0.198
Mof_H 	H 	0.6096	0.8113	0.595	-0.039
Mof_C 	C 	0.51682	0.807	0.57971	-0.108
Mof_C 	C 	0.45909	0.7977	0.60828	0.194
Mof_H 	H 	0.4219	0.7997	0.5845	-0.029
Mof_C 	C 	0.39346	0.77659	0.69911	0.947
Mof_C 	C 	0.62813	0.79281	0.71191	0.973
Mof_N 	N 	0.524	0.8088	0.51414	-0.071
Mof_O 	O 	0.3483	0.80022	0.66942	-1.214
Mof_O 	O 	0.38945	0.74703	0.74872	-1.217
Mof_O 	O 	0.67323	0.8188	0.68587	-1.229
Mof_O 	O 	0.62961	0.7668	0.76396	-1.213
Mof_Al	Al	0.31923	0.26072	0.19852	4.234
Mof_C 	C 	0.33007	0.4567	0.21435	-0.416
Mof_C 	C 	0.29435	0.51089	0.21889	0.325
Mof_H 	H 	0.2516	0.5089	0.2301	-0.092
Mof_C 	C 	0.32299	0.56837	0.20653	-0.431
Mof_C 	C 	0.38539	0.57052	0.1952	0.198
Mof_H 	H 	0.405	0.6096	0.1887	-0.039
Mof_C 	C 	0.42029	0.51682	0.193	-0.108
Mof_C 	C 	0.39172	0.45909	0.2023	0.194
Mof_H 	H 	0.4155	0.4219	0.2003	-0.029
Mof_C 	C 	0.30089	0.39346	0.22341	0.947
Mof_C 	C 	0.28809	0.62813	0.20719	0.973
Mof_N 	N 	0.48586	0.524	0.1912	-0.071
Mof_O 	O 	0.33058	0.3483	0.19978	-1.214
Mof_O 	O 	0.25128	0.38945	0.25297	-1.217
Mof_O 	O 	0.31413	0.67323	0.1812	-1.229
Mof_O 	O 	0.23604	0.62961	0.2332	-1.213
Mof_Al	Al	0.31923	0.73928	0.80148	4.234
Mof_C 	C 	0.33007	0.5433	0.78565	-0.416
Mof_C 	C 	0.29435	0.48911	0.78111	0.325
Mof_H 	H 	0.2516	0.4911	0.7699	-0.092
Mof_C 	C 	0.32299	0.43163	0.79347	-0.431
Mof_C 	C 	0.38539	0.42948	0.8048	0.198
Mof_H 	H 	0.405	0.3904	0.8113	-0.039
Mof_C 	C 	0.42029	0.48318	0.807	-0.108
Mof_C 	C 	0.39172	0.54091	0.7977	0.194
Mof_H 	H 	0.4155	0.5781	0.7997	-0.029
Mof_C 	C 	0.30089	0.60654	0.77659	0.947
Mof_C 	C 	0.28809	0.37187	0.79281	0.973
Mof_N 	N 	0.48586	0.476	0.8088	-0.071
Mof_O 	O 	0.33058	0.6517	0.80022	-1.214
Mof_O 	O 	0.25128	0.61055	0.74703	-1.217
Mof_O 	O 	0.31413	0.32677	0.8188	-1.229
Mof_O 	O 	0.23604	0.37039	0.7668	-1.213
Mof_Al	Al	0.68077	0.73928	0.19852	4.234
Mof_C 	C 	0.66993	0.5433	0.21435	-0.416
Mof_C 	C 	0.70565	0.48911	0.21889	0.325
Mof_H 	H 	0.7484	0.4911	0.2301	-0.092
Mof_C 	C 	0.67701	0.43163	0.20653	-0.431
Mof_C 	C 	0.61461	0.42948	0.1952	0.198
Mof_H 	H 	0.595	0.3904	0.1887	-0.039
Mof_C 	C 	0.57971	0.48318	0.193	-0.108
Mof_C 	C 	0.60828	0.54091	0.2023	0.194
Mof_H 	H 	0.5845	0.5781	0.2003	-0.029
Mof_C 	C 	0.69911	0.60654	0.22341	0.947
Mof_C 	C 	0.71191	0.37187	0.20719	0.973
Mof_N 	N 	0.51414	0.476	0.1912	-0.071
Mof_O 	O 	0.66942	0.6517	0.19978	-1.214
Mof_O 	O 	0.74872	0.61055	0.25297	-1.217
Mof_O 	O 	0.68587	0.32677	0.1812	-1.229
Mof_O 	O 	0.76396	0.37039	0.2332	-1.213
Mof_Al	Al	0.68077	0.26072	0.80148	4.234
Mof_C 	C 	0.66993	0.4567	0.78565	-0.416
Mof_C 	C 	0.70565	0.51089	0.78111	0.325
Mof_H 	H 	0.7484	0.5089	0.7699	-0.092
Mof_C 	C 	0.67701	0.56837	0.79347	-0.431
Mof_C 	C 	0.61461	0.57052	0.8048	0.198
Mof_H 	H 	0.595	0.6096	0.8113	-0.039
Mof_C 	C 	0.57971	0.51682	0.807	-0.108
Mof_C 	C 	0.60828	0.45909	0.7977	0.194
Mof_H 	H 	0.5845	0.4219	0.7997	-0.029
Mof_C 	C 	0.69911	0.39346	0.77659	0.947
Mof_C 	C 	0.71191	0.62813	0.79281	0.973
Mof_N 	N 	0.51414	0.524	0.8088	-0.071
Mof_O 	O 	0.66942	0.3483	0.80022	-1.214
Mof_O 	O 	0.74872	0.38945	0.74703	-1.217
Mof_O 	O 	0.68587	0.67323	0.8188	-1.229
Mof_O 	O 	0.76396	0.62961	0.7668	-1.213
Mof_Al	Al	0.19852	0.31923	0.26072	4.234
Mof_C 	C 	0.21435	0.33007	0.4567	-0.416
Mof_C 	C 	0.21889	0.29435	0.51089	0.325
Mof_H 	H 	0.2301	0.2516	0.5089	-0.092
Mof_C 	C 	0.20653	0.32299	0.56837	-0.431
Mof_C 	C 	0.1952	0.38539	0.57052	0.198
Mof_H 	H 	0.1887	0.405	0.6096	-0.039
Mof_C 	C 	0.193	0.42029	0.51682	-0.108
Mof_C 	C 	0.2023	0.39172	0.45909	0.194
Mof_H 	H 	0.2003	0.4155	0.4219	-0.029
Mof_C 	C 	0.22341	0.30089	0.39346	0.947
Mof_C 	C 	0.20719	0.28809	0.62813	0.973
Mof_N 	N 	0.1912	0.48586	0.524	-0.071
Mof_O 	O 	0.19978	0.33058	0.3483	-1.214
Mof_O 	O 	0.25297	0.25128	0.38945	-1.217
Mof_O 	O 	0.1812	0.31413	0.67323	-1.229
Mof_O 	O 	0.2332	0.23604	0.62961	-1.213
Mof_Al	Al	0.80148	0.31923	0.73928	4.234
Mof_C 	C 	0.78565	0.33007	0.5433	-0.416
Mof_C 	C 	0.78111	0.29435	0.48911	0.325
Mof_H 	H 	0.7699	0.2516	0.4911	-0.092
Mof_C 	C 	0.79347	0.32299	0.43163	-0.431
Mof_C 	C 	0.8048	0.38539	0.42948	0.198
Mof_H 	H 	0.8113	0.405	0.3904	-0.039
Mof_C 	C 	0.807	0.42029	0.48318	-0.108
Mof_C 	C 	0.7977	0.39172	0.54091	0.194
Mof_H 	H 	0.7997	0.4155	0.5781	-0.029
Mof_C 	C 	0.77659	0.30089	0.60654	0.947
Mof_C 	C 	0.79281	0.28809	0.37187	0.973
Mof_N 	N 	0.8088	0.48586	0.476	-0.071
Mof_O 	O 	0.80022	0.33058	0.6517	-1.214
Mof_O 	O 	0.74703	0.25128	0.61055	-1.217
Mof_O 	O 	0.8188	0.31413	0.32677	-1.229
Mof_O 	O 	0.7668	0.23604	0.37039	-1.213
Mof_Al	Al	0.19852	0.68077	0.73928	4.234
Mof_C 	C 	0.21435	0.66993	0.5433	-0.416
Mof_C 	C 	0.21889	0.70565	0.48911	0.325
Mof_H 	H 	0.2301	0.7484	0.4911	-0.092
Mof_C 	C 	0.20653	0.67701	0.43163	-0.431
Mof_C 	C 	0.1952	0.61461	0.42948	0.198
Mof_H 	H 	0.1887	0.595	0.3904	-0.039
Mof_C 	C 	0.193	0.57971	0.48318	-0.108
Mof_C 	C 	0.2023	0.60828	0.54091	0.194
Mof_H 	H 	0.2003	0.5845	0.5781	-0.029
Mof_C 	C 	0.22341	0.69911	0.60654	0.947
Mof_C 	C 	0.20719	0.71191	0.37187	0.973
Mof_N 	N 	0.1912	0.51414	0.476	-0.071
Mof_O 	O 	0.19978	0.66942	0.6517	-1.214
Mof_O 	O 	0.25297	0.74872	0.61055	-1.217
Mof_O 	O 	0.1812	0.68587	0.32677	-1.229
Mof_O 	O 	0.2332	0.76396	0.37039	-1.213
Mof_Al	Al	0.80148	0.68077	0.26072	4.234
Mof_C 	C 	0.78565	0.66993	0.4567	-0.416
Mof_C 	C 	0.78111	0.70565	0.51089	0.325
Mof_H 	H 	0.7699	0.7484	0.5089	-0.092
Mof_C 	C 	0.79347	0.67701	0.56837	-0.431
Mof_C 	C 	0.8048	0.61461	0.57052	0.198
Mof_H 	H 	0.8113	0.595	0.6096	-0.039
Mof_C 	C 	0.807	0.57971	0.51682	-0.108
Mof_C 	C 	0.7977	0.60828	0.45909	0.194
Mof_H 	H 	0.7997	0.5845	0.4219	-0.029
Mof_C 	C 	0.77659	0.69911	0.39346	0.947
Mof_C 	C 	0.79281	0.71191	0.62813	0.973
Mof_N 	N 	0.8088	0.51414	0.524	-0.071
Mof_O 	O 	0.80022	0.66942	0.3483	-1.214
Mof_O 	O 	0.74703	0.74872	0.38945	-1.217
Mof_O 	O 	0.8188	0.68587	0.67323	-1.229
Mof_O 	O 	0.7668	0.76396	0.62961	-1.213
Mof_Al	Al	0.69852	0.76072	0.81923	4.234
Mof_C 	C 	0.71435	0.9567	0.83007	-0.416
Mof_C 	C 	0.71889	0.01089	0.79435	0.325
Mof_H 	H 	0.7301	0.0089	0.7516	-0.092
Mof_C 	C 	0.70653	0.06837	0.82299	-0.431
Mof_C 	C 	0.6952	0.07052	0.88539	0.198
Mof_H 	H 	0.6887	0.1096	0.905	-0.039
Mof_C 	C 	0.693	0.01682	0.92029	-0.109
Mof_C 	C 	0.7023	0.95909	0.89172	0.194
Mof_H 	H 	0.7003	0.9219	0.9155	-0.029
Mof_C 	C 	0.72341	0.89346	0.80089	0.947
Mof_C 	C 	0.70719	0.12813	0.78809	0.973
Mof_N 	N 	0.6912	0.024	0.98586	-0.071
Mof_O 	O 	0.69978	0.8483	0.83058	-1.214
Mof_O 	O 	0.75297	0.88945	0.75128	-1.217
Mof_O 	O 	0.6812	0.17323	0.81413	-1.229
Mof_O 	O 	0.7332	0.12961	0.73604	-1.213
Mof_Al	Al	0.30148	0.23928	0.81923	4.234
Mof_C 	C 	0.28565	0.0433	0.83007	-0.416
Mof_C 	C 	0.28111	0.98911	0.79435	0.325
Mof_H 	H 	0.2699	0.9911	0.7516	-0.092
Mof_C 	C 	0.29347	0.93163	0.82299	-0.431
Mof_C 	C 	0.3048	0.92948	0.88539	0.198
Mof_H 	H 	0.3113	0.8904	0.905	-0.039
Mof_C 	C 	0.307	0.98318	0.92029	-0.109
Mof_C 	C 	0.2977	0.04091	0.89172	0.194
Mof_H 	H 	0.2997	0.0781	0.9155	-0.029
Mof_C 	C 	0.27659	0.10654	0.80089	0.947
Mof_C 	C 	0.29281	0.87187	0.78809	0.973
Mof_N 	N 	0.3088	0.976	0.98586	-0.071
Mof_O 	O 	0.30022	0.1517	0.83058	-1.214
Mof_O 	O 	0.24703	0.11055	0.75128	-1.217
Mof_O 	O 	0.3188	0.82677	0.81413	-1.229
Mof_O 	O 	0.2668	0.87039	0.73604	-1.213
Mof_Al	Al	0.69852	0.23928	0.18077	4.234
Mof_C 	C 	0.71435	0.0433	0.16993	-0.416
Mof_C 	C 	0.71889	0.98911	0.20565	0.325
Mof_H 	H 	0.7301	0.9911	0.2484	-0.092
Mof_C 	C 	0.70653	0.93163	0.17701	-0.431
Mof_C 	C 	0.6952	0.92948	0.11461	0.198
Mof_H 	H 	0.6887	0.8904	0.095	-0.039
Mof_C 	C 	0.693	0.98318	0.07971	-0.109
Mof_C 	C 	0.7023	0.04091	0.10828	0.194
Mof_H 	H 	0.7003	0.0781	0.0845	-0.029
Mof_C 	C 	0.72341	0.10654	0.19911	0.947
Mof_C 	C 	0.70719	0.87187	0.21191	0.973
Mof_N 	N 	0.6912	0.976	0.01414	-0.071
Mof_O 	O 	0.69978	0.1517	0.16942	-1.214
Mof_O 	O 	0.75297	0.11055	0.24872	-1.217
Mof_O 	O 	0.6812	0.82677	0.18587	-1.229
Mof_O 	O 	0.7332	0.87039	0.26396	-1.213
Mof_Al	Al	0.30148	0.76072	0.18077	4.234
Mof_C 	C 	0.28565	0.9567	0.16993	-0.416
Mof_C 	C 	0.28111	0.01089	0.20565	0.325
Mof_H 	H 	0.2699	0.0089	0.2484	-0.092
Mof_C 	C 	0.29347	0.06837	0.17701	-0.431
Mof_C 	C 	0.3048	0.07052	0.11461	0.198
Mof_H 	H 	0.3113	0.1096	0.095	-0.039
Mof_C 	C 	0.307	0.01682	0.07971	-0.109
Mof_C 	C 	0.2977	0.95909	0.10828	0.194
Mof_H 	H 	0.2997	0.9219	0.0845	-0.029
Mof_C 	C 	0.27659	0.89346	0.19911	0.947
Mof_C 	C 	0.29281	0.12813	0.21191	0.973
Mof_N 	N 	0.3088	0.024	0.01414	-0.071
Mof_O 	O 	0.30022	0.8483	0.16942	-1.214
Mof_O 	O 	0.24703	0.88945	0.24872	-1.217
Mof_O 	O 	0.3188	0.17323	0.18587	-1.229
Mof_O 	O 	0.2668	0.12961	0.26396	-1.213
Mof_Al	Al	0.76072	0.81923	0.69852	4.234
Mof_C 	C 	0.9567	0.83007	0.71435	-0.416
Mof_C 	C 	0.01089	0.79435	0.71889	0.325
Mof_H 	H 	0.0089	0.7516	0.7301	-0.092
Mof_C 	C 	0.06837	0.82299	0.70653	-0.431
Mof_C 	C 	0.07052	0.88539	0.6952	0.198
Mof_H 	H 	0.1096	0.905	0.6887	-0.039
Mof_C 	C 	0.01682	0.92029	0.693	-0.109
Mof_C 	C 	0.95909	0.89172	0.7023	0.194
Mof_H 	H 	0.9219	0.9155	0.7003	-0.029
Mof_C 	C 	0.89346	0.80089	0.72341	0.947
Mof_C 	C 	0.12813	0.78809	0.70719	0.973
Mof_N 	N 	0.024	0.98586	0.6912	-0.071
Mof_O 	O 	0.8483	0.83058	0.69978	-1.214
Mof_O 	O 	0.88945	0.75128	0.75297	-1.217
Mof_O 	O 	0.17323	0.81413	0.6812	-1.229
Mof_O 	O 	0.12961	0.73604	0.7332	-1.213
Mof_Al	Al	0.23928	0.81923	0.30148	4.234
Mof_C 	C 	0.0433	0.83007	0.28565	-0.416
Mof_C 	C 	0.98911	0.79435	0.28111	0.325
Mof_H 	H 	0.9911	0.7516	0.2699	-0.092
Mof_C 	C 	0.93163	0.82299	0.29347	-0.431
Mof_C 	C 	0.92948	0.88539	0.3048	0.198
Mof_H 	H 	0.8904	0.905	0.3113	-0.039
Mof_C 	C 	0.98318	0.92029	0.307	-0.109
Mof_C 	C 	0.04091	0.89172	0.2977	0.194
Mof_H 	H 	0.0781	0.9155	0.2997	-0.029
Mof_C 	C 	0.10654	0.80089	0.27659	0.947
Mof_C 	C 	0.87187	0.78809	0.29281	0.973
Mof_N 	N 	0.976	0.98586	0.3088	-0.071
Mof_O 	O 	0.1517	0.83058	0.30022	-1.214
Mof_O 	O 	0.11055	0.75128	0.24703	-1.217
Mof_O 	O 	0.82677	0.81413	0.3188	-1.229
Mof_O 	O 	0.87039	0.73604	0.2668	-1.213
Mof_Al	Al	0.23928	0.18077	0.69852	4.234
Mof_C 	C 	0.0433	0.16993	0.71435	-0.416
Mof_C 	C 	0.98911	0.20565	0.71889	0.325
Mof_H 	H 	0.9911	0.2484	0.7301	-0.092
Mof_C 	C 	0.93163	0.17701	0.70653	-0.431
Mof_C 	C 	0.92948	0.11461	0.6952	0.198
Mof_H 	H 	0.8904	0.095	0.6887	-0.039
Mof_C 	C 	0.98318	0.07971	0.693	-0.109
Mof_C 	C 	0.04091	0.10828	0.7023	0.194
Mof_H 	H 	0.0781	0.0845	0.7003	-0.029
Mof_C 	C 	0.10654	0.19911	0.72341	0.947
Mof_C 	C 	0.87187	0.21191	0.70719	0.973
Mof_N 	N 	0.976	0.01414	0.6912	-0.071
Mof_O 	O 	0.1517	0.16942	0.69978	-1.214
Mof_O 	O 	0.11055	0.24872	0.75297	-1.217
Mof_O 	O 	0.82677	0.18587	0.6812	-1.229
Mof_O 	O 	0.87039	0.26396	0.7332	-1.213
Mof_Al	Al	0.76072	0.18077	0.30148	4.234
Mof_C 	C 	0.9567	0.16993	0.28565	-0.416
Mof_C 	C 	0.01089	0.20565	0.28111	0.325
Mof_H 	H 	0.0089	0.2484	0.2699	-0.092
Mof_C 	C 	0.06837	0.17701	0.29347	-0.431
Mof_C 	C 	0.07052	0.11461	0.3048	0.198
Mof_H 	H 	0.1096	0.095	0.3113	-0.039
Mof_C 	C 	0.01682	0.07971	0.307	-0.109
Mof_C 	C 	0.95909	0.10828	0.2977	0.194
Mof_H 	H 	0.9219	0.0845	0.2997	-0.029
Mof_C 	C 	0.89346	0.19911	0.27659	0.947
Mof_C 	C 	0.12813	0.21191	0.29281	0.973
Mof_N 	N 	0.024	0.01414	0.3088	-0.071
Mof_O 	O 	0.8483	0.16942	0.30022	-1.214
Mof_O 	O 	0.88945	0.24872	0.24703	-1.217
Mof_O 	O 	0.17323	0.18587	0.3188	-1.229
Mof_O 	O 	0.12961	0.26396	0.2668	-1.213
Mof_Al	Al	0.81923	0.69852	0.76072	4.234
Mof_C 	C 	0.83007	0.71435	0.9567	-0.416
Mof_C 	C 	0.79435	0.71889	0.01089	0.325
Mof_H 	H 	0.7516	0.7301	0.0089	-0.092
Mof_C 	C 	0.82299	0.70653	0.06837	-0.431
Mof_C 	C 	0.88539	0.6952	0.07052	0.198
Mof_H 	H 	0.905	0.6887	0.1096	-0.039
Mof_C 	C 	0.92029	0.693	0.01682	-0.109
Mof_C 	C 	0.89172	0.7023	0.95909	0.194
Mof_H 	H 	0.9155	0.7003	0.9219	-0.029
Mof_C 	C 	0.80089	0.72341	0.89346	0.947
Mof_C 	C 	0.78809	0.70719	0.12813	0.973
Mof_N 	N 	0.98586	0.6912	0.024	-0.071
Mof_O 	O 	0.83058	0.69978	0.8483	-1.214
Mof_O 	O 	0.75128	0.75297	0.88945	-1.217
Mof_O 	O 	0.81413	0.6812	0.17323	-1.229
Mof_O 	O 	0.73604	0.7332	0.12961	-1.213
Mof_Al	Al	0.81923	0.30148	0.23928	4.234
Mof_C 	C 	0.83007	0.28565	0.0433	-0.416
Mof_C 	C 	0.79435	0.28111	0.98911	0.325
Mof_H 	H 	0.7516	0.2699	0.9911	-0.092
Mof_C 	C 	0.82299	0.29347	0.93163	-0.431
Mof_C 	C 	0.88539	0.3048	0.92948	0.198
Mof_H 	H 	0.905	0.3113	0.8904	-0.039
Mof_C 	C 	0.92029	0.307	0.98318	-0.109
Mof_C 	C 	0.89172	0.2977	0.04091	0.194
Mof_H 	H 	0.9155	0.2997	0.0781	-0.029
Mof_C 	C 	0.80089	0.27659	0.10654	0.947
Mof_C 	C 	0.78809	0.29281	0.87187	0.973
Mof_N 	N 	0.98586	0.3088	0.976	-0.071
Mof_O 	O 	0.83058	0.30022	0.1517	-1.214
Mof_O 	O 	0.75128	0.24703	0.11055	-1.217
Mof_O 	O 	0.81413	0.3188	0.82677	-1.229
Mof_O 	O 	0.73604	0.2668	0.87039	-1.213
Mof_Al	Al	0.18077	0.69852	0.23928	4.234
Mof_C 	C 	0.16993	0.71435	0.0433	-0.416
Mof_C 	C 	0.20565	0.71889	0.98911	0.325
Mof_H 	H 	0.2484	0.7301	0.9911	-0.092
Mof_C 	C 	0.17701	0.70653	0.93163	-0.431
Mof_C 	C 	0.11461	0.6952	0.92948	0.198
Mof_H 	H 	0.095	0.6887	0.8904	-0.039
Mof_C 	C 	0.07971	0.693	0.98318	-0.109
Mof_C 	C 	0.10828	0.7023	0.04091	0.194
Mof_H 	H 	0.0845	0.7003	0.0781	-0.029
Mof_C 	C 	0.19911	0.72341	0.10654	0.947
Mof_C 	C 	0.21191	0.70719	0.87187	0.973
Mof_N 	N 	0.01414	0.6912	0.976	-0.071
Mof_O 	O 	0.16942	0.69978	0.1517	-1.214
Mof_O 	O 	0.24872	0.75297	0.11055	-1.217
Mof_O 	O 	0.18587	0.6812	0.82677	-1.229
Mof_O 	O 	0.26396	0.7332	0.87039	-1.213
Mof_Al	Al	0.18077	0.30148	0.76072	4.234
Mof_C 	C 	0.16993	0.28565	0.9567	-0.416
Mof_C 	C 	0.20565	0.28111	0.01089	0.325
Mof_H 	H 	0.2484	0.2699	0.0089	-0.092
Mof_C 	C 	0.17701	0.29347	0.06837	-0.431
Mof_C 	C 	0.11461	0.3048	0.07052	0.198
Mof_H 	H 	0.095	0.3113	0.1096	-0.039
Mof_C 	C 	0.07971	0.307	0.01682	-0.109
Mof_C 	C 	0.10828	0.2977	0.95909	0.194
Mof_H 	H 	0.0845	0.2997	0.9219	-0.029
Mof_C 	C 	0.19911	0.27659	0.89346	0.947
Mof_C 	C 	0.21191	0.29281	0.12813	0.973
Mof_N 	N 	0.01414	0.3088	0.024	-0.071
Mof_O 	O 	0.16942	0.30022	0.8483	-1.214
Mof_O 	O 	0.24872	0.24703	0.88945	-1.217
Mof_O 	O 	0.18587	0.3188	0.17323	-1.229
Mof_O 	O 	0.26396	0.2668	0.12961	-1.213
Mof_O 	O 	0.25938	0.25938	0.25938	-2.435
Mof_O 	O 	0.74062	0.74062	0.25938	-2.435
Mof_O 	O 	0.74062	0.25938	0.74062	-2.435
Mof_O 	O 	0.25938	0.74062	0.74062	-2.435
Mof_O 	O 	0.75938	0.75938	0.75938	-2.435
Mof_O 	O 	0.24062	0.24062	0.75938	-2.435
Mof_O 	O 	0.75938	0.24062	0.24062	-2.435
Mof_O 	O 	0.24062	0.75938	0.24062	-2.435
_end
