data_functionalizedCrystal
_audit_creation_method	'EQeq! by Chris Wilmer'
_symmetry_space_group_name_H-M	'P1'
_symmetry_Int_Tables_number	1
_symmetry_cell_setting	triclinic
loop_
_symmetry_equiv_pos_as_xyz
  x,y,z
_cell_length_a	14.2786
_cell_length_b	13.0268
_cell_length_c	17.8255
_cell_angle_alpha	90
_cell_angle_beta	95.847
_cell_angle_gamma	90
loop_
_atom_site_label
_atom_site_type_symbol
_atom_site_fract_x
_atom_site_fract_y
_atom_site_fract_z
_atom_site_charge
Mof_Zn	Zn	0.00776	0.55605	0.72653	1.234
Mof_Zn	Zn	0.07331	0.71941	0.86464	1.155
Mof_C 	C 	0.1696	0.7866	0.6401	-0.126
Mof_C 	C 	0.2241	0.8686	0.6696	0.061
Mof_H 	H 	0.2253	0.8855	0.7203	0.02
Mof_C 	C 	0.2757	0.9241	0.6236	-0.123
Mof_C 	C 	0.2749	0.8995	0.5472	-0.001
Mof_H 	H 	0.3079	0.9398	0.5158	0.033
Mof_C 	C 	0.2245	0.8144	0.5182	-0.023
Mof_C 	C 	0.1726	0.7601	0.5649	0.002
Mof_H 	H 	0.1383	0.7036	0.5457	0.044
Mof_C 	C 	0.1126	0.7242	0.6906	0.416
Mof_C 	C 	0.3401	0.0085	0.6563	0.404
Mof_C 	C 	0.2302	0.7821	0.4376	0.006
Mof_C 	C 	0.3008	0.8186	0.3969	-0.035
Mof_H 	H 	0.3472	0.861	0.4204	0.03
Mof_C 	C 	0.3033	0.7929	0.322	-0.107
Mof_C 	C 	0.2367	0.7285	0.2872	0.013
Mof_H 	H 	0.2369	0.7138	0.2361	0.045
Mof_C 	C 	0.1691	0.6852	0.3277	-0.071
Mof_C 	C 	0.1649	0.7141	0.4018	-0.039
Mof_H 	H 	0.1175	0.6877	0.4283	0.06
Mof_C 	C 	0.3765	0.8376	0.2769	0.33
Mof_C 	C 	0.1014	0.6072	0.2897	0.321
Mof_O 	O 	0.0676	0.6496	0.65944	-0.471
Mof_O 	O 	0.1153	0.7496	0.75719	-0.524
Mof_O 	O 	0.375	0.9935	0.72266	-0.473
Mof_O 	O 	0.3542	0.0845	0.61558	-0.503
Mof_O 	O 	0.4547	0.869	0.31319	-0.577
Mof_O 	O 	0.3612	0.8467	0.20917	-0.358
Mof_O 	O 	0.0963	0.5943	0.22258	-0.323
Mof_O 	O 	0.0524	0.5563	0.33385	-0.422
Mof_Zn	Zn	0.49224	0.05605	0.77347	1.235
Mof_Zn	Zn	0.42669	0.21941	0.63536	1.155
Mof_C 	C 	0.3304	0.2866	0.8599	-0.129
Mof_C 	C 	0.2759	0.3686	0.8304	0.064
Mof_H 	H 	0.2747	0.3855	0.7797	0.019
Mof_C 	C 	0.2243	0.4241	0.8764	-0.126
Mof_C 	C 	0.2251	0.3995	0.9528	0.003
Mof_H 	H 	0.1921	0.4398	0.9842	0.03
Mof_C 	C 	0.2755	0.3144	0.9818	-0.031
Mof_C 	C 	0.3274	0.2601	0.9351	0.007
Mof_H 	H 	0.3617	0.2036	0.9543	0.042
Mof_C 	C 	0.3874	0.2242	0.8094	0.417
Mof_C 	C 	0.1599	0.5085	0.8437	0.407
Mof_C 	C 	0.2698	0.2821	0.0624	0.013
Mof_C 	C 	0.1992	0.3186	0.1031	-0.04
Mof_H 	H 	0.1528	0.361	0.0796	0.033
Mof_C 	C 	0.1967	0.2929	0.178	-0.103
Mof_C 	C 	0.2633	0.2285	0.2128	0.011
Mof_H 	H 	0.2631	0.2138	0.2639	0.046
Mof_C 	C 	0.3309	0.1852	0.1723	-0.068
Mof_C 	C 	0.3351	0.2141	0.0982	-0.043
Mof_H 	H 	0.3825	0.1877	0.0717	0.062
Mof_C 	C 	0.1235	0.3376	0.2231	0.329
Mof_C 	C 	0.3986	0.1072	0.2103	0.32
Mof_O 	O 	0.4324	0.1496	0.84056	-0.471
Mof_O 	O 	0.3847	0.2496	0.74281	-0.524
Mof_O 	O 	0.125	0.4935	0.77734	-0.474
Mof_O 	O 	0.1458	0.5845	0.88442	-0.504
Mof_O 	O 	0.0453	0.369	0.18681	-0.574
Mof_O 	O 	0.1388	0.3467	0.29083	-0.357
Mof_O 	O 	0.4037	0.0943	0.27742	-0.324
Mof_O 	O 	0.4476	0.0563	0.16615	-0.423
Mof_Zn	Zn	0.99224	0.44395	0.27347	1.234
Mof_Zn	Zn	0.92669	0.28059	0.13536	1.155
Mof_C 	C 	0.8304	0.2134	0.3599	-0.126
Mof_C 	C 	0.7759	0.1314	0.3304	0.061
Mof_H 	H 	0.7747	0.1145	0.2797	0.02
Mof_C 	C 	0.7243	0.0759	0.3764	-0.123
Mof_C 	C 	0.7251	0.1005	0.4528	-0.001
Mof_H 	H 	0.6921	0.0602	0.4842	0.033
Mof_C 	C 	0.7755	0.1856	0.4818	-0.023
Mof_C 	C 	0.8274	0.2399	0.4351	0.002
Mof_H 	H 	0.8617	0.2964	0.4543	0.044
Mof_C 	C 	0.8874	0.2758	0.3094	0.416
Mof_C 	C 	0.6599	0.9915	0.3437	0.404
Mof_C 	C 	0.7698	0.2179	0.5624	0.006
Mof_C 	C 	0.6992	0.1814	0.6031	-0.035
Mof_H 	H 	0.6528	0.139	0.5796	0.03
Mof_C 	C 	0.6967	0.2071	0.678	-0.107
Mof_C 	C 	0.7633	0.2715	0.7128	0.013
Mof_H 	H 	0.7631	0.2862	0.7639	0.045
Mof_C 	C 	0.8309	0.3148	0.6723	-0.071
Mof_C 	C 	0.8351	0.2859	0.5982	-0.039
Mof_H 	H 	0.8825	0.3123	0.5717	0.06
Mof_C 	C 	0.6235	0.1624	0.7231	0.33
Mof_C 	C 	0.8986	0.3928	0.7103	0.321
Mof_O 	O 	0.9324	0.3504	0.34056	-0.471
Mof_O 	O 	0.8847	0.2504	0.24281	-0.524
Mof_O 	O 	0.625	0.0065	0.27734	-0.473
Mof_O 	O 	0.6458	0.9155	0.38442	-0.503
Mof_O 	O 	0.5453	0.131	0.68681	-0.577
Mof_O 	O 	0.6388	0.1533	0.79083	-0.358
Mof_O 	O 	0.9037	0.4057	0.77742	-0.323
Mof_O 	O 	0.9476	0.4437	0.66615	-0.422
Mof_Zn	Zn	0.50776	0.94395	0.22653	1.235
Mof_Zn	Zn	0.57331	0.78059	0.36464	1.155
Mof_C 	C 	0.6696	0.7134	0.1401	-0.129
Mof_C 	C 	0.7241	0.6314	0.1696	0.064
Mof_H 	H 	0.7253	0.6145	0.2203	0.019
Mof_C 	C 	0.7757	0.5759	0.1236	-0.126
Mof_C 	C 	0.7749	0.6005	0.0472	0.003
Mof_H 	H 	0.8079	0.5602	0.0158	0.03
Mof_C 	C 	0.7245	0.6856	0.0182	-0.031
Mof_C 	C 	0.6726	0.7399	0.0649	0.007
Mof_H 	H 	0.6383	0.7964	0.0457	0.042
Mof_C 	C 	0.6126	0.7758	0.1906	0.417
Mof_C 	C 	0.8401	0.4915	0.1563	0.407
Mof_C 	C 	0.7302	0.7179	0.9376	0.013
Mof_C 	C 	0.8008	0.6814	0.8969	-0.04
Mof_H 	H 	0.8472	0.639	0.9204	0.033
Mof_C 	C 	0.8033	0.7071	0.822	-0.103
Mof_C 	C 	0.7367	0.7715	0.7872	0.011
Mof_H 	H 	0.7369	0.7862	0.7361	0.046
Mof_C 	C 	0.6691	0.8148	0.8277	-0.068
Mof_C 	C 	0.6649	0.7859	0.9018	-0.043
Mof_H 	H 	0.6175	0.8123	0.9283	0.062
Mof_C 	C 	0.8765	0.6624	0.7769	0.329
Mof_C 	C 	0.6014	0.8928	0.7897	0.32
Mof_O 	O 	0.5676	0.8504	0.15944	-0.471
Mof_O 	O 	0.6153	0.7504	0.25719	-0.524
Mof_O 	O 	0.875	0.5065	0.22266	-0.474
Mof_O 	O 	0.8542	0.4155	0.11558	-0.504
Mof_O 	O 	0.9547	0.631	0.81319	-0.574
Mof_O 	O 	0.8612	0.6533	0.70917	-0.357
Mof_O 	O 	0.5963	0.9057	0.72258	-0.324
Mof_O 	O 	0.5524	0.9437	0.83385	-0.423
_end
