data_functionalizedCrystal
_audit_creation_method	'EQeq! by Chris Wilmer'
_symmetry_space_group_name_H-M	'P1'
_symmetry_Int_Tables_number	1
_symmetry_cell_setting	triclinic
loop_
_symmetry_equiv_pos_as_xyz
  x,y,z
_cell_length_a	8.4787
_cell_length_b	15.2456
_cell_length_c	13.3806
_cell_angle_alpha	90
_cell_angle_beta	90
_cell_angle_gamma	90
loop_
_atom_site_label
_atom_site_type_symbol
_atom_site_fract_x
_atom_site_fract_y
_atom_site_fract_z
_atom_site_charge
Mof_P 	P 	0.02482	0.09831	0.88852	0.442
Mof_H 	H 	0.156	0.0876	0.8397	-0.021
Mof_P 	P 	0.25259	0.36997	0.77111	0.511
Mof_H 	H 	0.163	0.4424	0.7566	-0.028
Mof_Be	Be	0.4654	0.4117	0.6095	0.767
Mof_O 	O 	0.937	0.17426	0.84023	-0.278
Mof_O 	O 	0.0669	0.12166	0.99505	-0.335
Mof_O 	O 	0.9319	0.01468	0.87943	-0.35
Mof_O 	O 	0.1417	0.2954	0.794	-0.356
Mof_O 	O 	0.3439	0.35508	0.67627	-0.361
Mof_O 	O 	0.3528	0.38701	0.86288	-0.359
Mof_P 	P 	0.47518	0.40169	0.38852	0.514
Mof_H 	H 	0.344	0.4124	0.3397	-0.032
Mof_P 	P 	0.24741	0.13003	0.27111	0.515
Mof_H 	H 	0.337	0.0576	0.2566	-0.019
Mof_Be	Be	0.0346	0.0883	0.1095	0.726
Mof_O 	O 	0.563	0.32574	0.34023	-0.335
Mof_O 	O 	0.4331	0.37834	0.49505	-0.342
Mof_O 	O 	0.5681	0.48532	0.37943	-0.383
Mof_O 	O 	0.3583	0.2046	0.294	-0.359
Mof_O 	O 	0.1561	0.14492	0.17627	-0.365
Mof_O 	O 	0.1472	0.11299	0.36288	-0.385
Mof_P 	P 	0.97518	0.09831	0.61148	0.581
Mof_H 	H 	0.844	0.0876	0.6603	-0.029
Mof_P 	P 	0.74741	0.36997	0.72889	0.512
Mof_H 	H 	0.837	0.4424	0.7434	-0.005
Mof_Be	Be	0.5346	0.4117	0.8905	0.768
Mof_O 	O 	0.063	0.17426	0.65977	-0.368
Mof_O 	O 	0.9331	0.12166	0.50495	-0.338
Mof_O 	O 	0.0681	0.01468	0.62057	-0.418
Mof_O 	O 	0.8583	0.2954	0.706	-0.321
Mof_O 	O 	0.6561	0.35508	0.82373	-0.355
Mof_O 	O 	0.6472	0.38701	0.63712	-0.352
Mof_P 	P 	0.52482	0.40169	0.11148	0.514
Mof_H 	H 	0.656	0.4124	0.1603	-0.022
Mof_P 	P 	0.75259	0.13003	0.22889	0.515
Mof_H 	H 	0.663	0.0576	0.2434	-0.018
Mof_Be	Be	0.9654	0.0883	0.3905	0.803
Mof_O 	O 	0.437	0.32574	0.15977	-0.342
Mof_O 	O 	0.5669	0.37834	0.00495	-0.337
Mof_O 	O 	0.4319	0.48532	0.12057	-0.389
Mof_O 	O 	0.6417	0.2046	0.206	-0.352
Mof_O 	O 	0.8439	0.14492	0.32373	-0.354
Mof_O 	O 	0.8528	0.11299	0.13712	-0.328
Mof_P 	P 	0.97518	0.90169	0.11148	0.582
Mof_H 	H 	0.844	0.9124	0.1603	-0.029
Mof_P 	P 	0.74741	0.63003	0.22889	0.511
Mof_H 	H 	0.837	0.5576	0.2434	-0.004
Mof_Be	Be	0.5346	0.5883	0.3905	0.768
Mof_O 	O 	0.063	0.82574	0.15977	-0.368
Mof_O 	O 	0.9331	0.87834	0.00495	-0.336
Mof_O 	O 	0.0681	0.98532	0.12057	-0.417
Mof_O 	O 	0.8583	0.7046	0.206	-0.32
Mof_O 	O 	0.6561	0.64492	0.32373	-0.354
Mof_O 	O 	0.6472	0.61299	0.13712	-0.352
Mof_P 	P 	0.52482	0.59831	0.61148	0.514
Mof_H 	H 	0.656	0.5876	0.6603	-0.022
Mof_P 	P 	0.75259	0.86997	0.72889	0.515
Mof_H 	H 	0.663	0.9424	0.7434	-0.018
Mof_Be	Be	0.9654	0.9117	0.8905	0.798
Mof_O 	O 	0.437	0.67426	0.65977	-0.341
Mof_O 	O 	0.5669	0.62166	0.50495	-0.336
Mof_O 	O 	0.4319	0.51468	0.62057	-0.389
Mof_O 	O 	0.6417	0.7954	0.706	-0.352
Mof_O 	O 	0.8439	0.85508	0.82373	-0.354
Mof_O 	O 	0.8528	0.88701	0.63712	-0.328
Mof_P 	P 	0.02482	0.90169	0.38852	0.44
Mof_H 	H 	0.156	0.9124	0.3397	-0.021
Mof_P 	P 	0.25259	0.63003	0.27111	0.511
Mof_H 	H 	0.163	0.5576	0.2566	-0.028
Mof_Be	Be	0.4654	0.5883	0.1095	0.767
Mof_O 	O 	0.937	0.82574	0.34023	-0.276
Mof_O 	O 	0.0669	0.87834	0.49505	-0.338
Mof_O 	O 	0.9319	0.98532	0.37943	-0.351
Mof_O 	O 	0.1417	0.7046	0.294	-0.356
Mof_O 	O 	0.3439	0.64492	0.17627	-0.361
Mof_O 	O 	0.3528	0.61299	0.36288	-0.359
Mof_P 	P 	0.47518	0.59831	0.88852	0.514
Mof_H 	H 	0.344	0.5876	0.8397	-0.032
Mof_P 	P 	0.24741	0.86997	0.77111	0.515
Mof_H 	H 	0.337	0.9424	0.7566	-0.019
Mof_Be	Be	0.0346	0.9117	0.6095	0.731
Mof_O 	O 	0.563	0.67426	0.84023	-0.336
Mof_O 	O 	0.4331	0.62166	0.99505	-0.343
Mof_O 	O 	0.5681	0.51468	0.87943	-0.383
Mof_O 	O 	0.3583	0.7954	0.794	-0.359
Mof_O 	O 	0.1561	0.85508	0.67627	-0.365
Mof_O 	O 	0.1472	0.88701	0.86288	-0.385
Mof_Be	Be	1.90327e-32	0.2377	0.75	0.702
Mof_Be	Be	0.5	0.2623	0.25	0.766
Mof_Be	Be	-2.16945e-33	0.7623	0.25	0.7
Mof_Be	Be	0.5	0.7377	0.75	0.766
_end
