data_functionalizedCrystal
_audit_creation_method	'EQeq! by Chris Wilmer'
_symmetry_space_group_name_H-M	'P1'
_symmetry_Int_Tables_number	1
_symmetry_cell_setting	triclinic
loop_
_symmetry_equiv_pos_as_xyz
  x,y,z
_cell_length_a	28.735
_cell_length_b	14.2112
_cell_length_c	14.3322
_cell_angle_alpha	90
_cell_angle_beta	95.126
_cell_angle_gamma	90
loop_
_atom_site_label
_atom_site_type_symbol
_atom_site_fract_x
_atom_site_fract_y
_atom_site_fract_z
_atom_site_charge
Mof_Eu	Eu	0.31478	0.19578	0.52389	2.113
Mof_C 	C 	0.4024	0.2535	0.4698	0.356
Mof_C 	C 	0.4461	0.2866	0.4314	-0.134
Mof_C 	C 	0.4734	0.2235	0.3903	0.066
Mof_H 	H 	0.4634	0.1617	0.3808	0.009
Mof_C 	C 	0.5164	0.252	0.3625	-0.157
Mof_H 	H 	0.5363	0.2073	0.3405	0.076
Mof_C 	C 	0.5297	0.3427	0.3668	0.097
Mof_C 	C 	0.5023	0.4064	0.4024	-0.149
Mof_H 	H 	0.5113	0.4692	0.4046	0.089
Mof_C 	C 	0.4595	0.38	0.4371	0.061
Mof_H 	H 	0.4408	0.4246	0.4631	0.021
Mof_C 	C 	0.5765	0.3709	0.334	-0.01
Mof_H 	H 	0.594	0.316	0.354	0.031
Mof_C 	C 	0.7439	0.6029	0.3922	0.441
Mof_C 	C 	0.7124	0.5388	0.3338	-0.158
Mof_C 	C 	0.6655	0.5303	0.3495	-0.016
Mof_H 	H 	0.6527	0.5715	0.3907	0.04
Mof_C 	C 	0.6377	0.4624	0.3055	0.041
Mof_C 	C 	0.6558	0.408	0.236	-0.013
Mof_H 	H 	0.6368	0.3646	0.2024	0.051
Mof_C 	C 	0.7023	0.4183	0.2166	-0.157
Mof_C 	C 	0.7305	0.4829	0.2667	0.081
Mof_H 	H 	0.7617	0.4888	0.2553	0.005
Mof_C 	C 	0.7219	0.355	0.1454	0.494
Mof_N 	N 	0.5918	0.4498	0.3331	-0.114
Mof_O 	O 	0.3815	0.308	0.5219	-0.452
Mof_O 	O 	0.3876	0.1737	0.4508	-0.482
Mof_O 	O 	0.7871	0.5851	0.4029	-0.502
Mof_O 	O 	0.727	0.6721	0.434	-0.627
Mof_O 	O 	0.7623	0.3731	0.1238	-0.575
Mof_O 	O 	0.6958	0.2899	0.1121	-0.523
Mof_Eu	Eu	0.81478	0.69578	0.52389	2.113
Mof_C 	C 	0.9024	0.7535	0.4698	0.354
Mof_C 	C 	0.9461	0.7866	0.4314	-0.134
Mof_C 	C 	0.9734	0.7235	0.3903	0.065
Mof_H 	H 	0.9634	0.6617	0.3808	0.009
Mof_C 	C 	0.0164	0.752	0.3625	-0.157
Mof_H 	H 	0.0363	0.7073	0.3405	0.076
Mof_C 	C 	0.0297	0.8427	0.3668	0.097
Mof_C 	C 	0.0023	0.9064	0.4024	-0.148
Mof_H 	H 	0.0113	0.9692	0.4046	0.089
Mof_C 	C 	0.9595	0.88	0.4371	0.06
Mof_H 	H 	0.9408	0.9246	0.4631	0.021
Mof_C 	C 	0.0765	0.8709	0.334	-0.01
Mof_H 	H 	0.094	0.816	0.354	0.031
Mof_C 	C 	0.2439	0.1029	0.3922	0.441
Mof_C 	C 	0.2124	0.0388	0.3338	-0.157
Mof_C 	C 	0.1655	0.0303	0.3495	-0.016
Mof_H 	H 	0.1527	0.0715	0.3907	0.039
Mof_C 	C 	0.1377	0.9624	0.3055	0.04
Mof_C 	C 	0.1558	0.908	0.236	-0.013
Mof_H 	H 	0.1368	0.8646	0.2024	0.051
Mof_C 	C 	0.2023	0.9183	0.2166	-0.157
Mof_C 	C 	0.2305	0.9829	0.2667	0.08
Mof_H 	H 	0.2617	0.9888	0.2553	0.005
Mof_C 	C 	0.2219	0.855	0.1454	0.494
Mof_N 	N 	0.0918	0.9498	0.3331	-0.114
Mof_O 	O 	0.8815	0.808	0.5219	-0.451
Mof_O 	O 	0.8876	0.6737	0.4508	-0.482
Mof_O 	O 	0.2871	0.0851	0.4029	-0.502
Mof_O 	O 	0.227	0.1721	0.434	-0.627
Mof_O 	O 	0.2623	0.8731	0.1238	-0.575
Mof_O 	O 	0.1958	0.7899	0.1121	-0.524
Mof_Eu	Eu	0.68522	0.19578	0.97611	2.11
Mof_C 	C 	0.5976	0.2535	0.0302	0.356
Mof_C 	C 	0.5539	0.2866	0.0686	-0.135
Mof_C 	C 	0.5266	0.2235	0.1097	0.066
Mof_H 	H 	0.5366	0.1617	0.1192	0.009
Mof_C 	C 	0.4836	0.252	0.1375	-0.157
Mof_H 	H 	0.4637	0.2073	0.1595	0.076
Mof_C 	C 	0.4703	0.3427	0.1332	0.097
Mof_C 	C 	0.4977	0.4064	0.0976	-0.149
Mof_H 	H 	0.4887	0.4692	0.0954	0.089
Mof_C 	C 	0.5405	0.38	0.0629	0.061
Mof_H 	H 	0.5592	0.4246	0.0369	0.021
Mof_C 	C 	0.4235	0.3709	0.166	-0.01
Mof_H 	H 	0.406	0.316	0.146	0.031
Mof_C 	C 	0.2561	0.6029	0.1078	0.441
Mof_C 	C 	0.2876	0.5388	0.1662	-0.158
Mof_C 	C 	0.3345	0.5303	0.1505	-0.017
Mof_H 	H 	0.3473	0.5715	0.1093	0.04
Mof_C 	C 	0.3623	0.4624	0.1945	0.041
Mof_C 	C 	0.3442	0.408	0.264	-0.013
Mof_H 	H 	0.3632	0.3646	0.2976	0.051
Mof_C 	C 	0.2977	0.4183	0.2834	-0.157
Mof_C 	C 	0.2695	0.4829	0.2333	0.081
Mof_H 	H 	0.2383	0.4888	0.2447	0.005
Mof_C 	C 	0.2781	0.355	0.3546	0.494
Mof_N 	N 	0.4082	0.4498	0.1669	-0.114
Mof_O 	O 	0.6185	0.308	0.9781	-0.452
Mof_O 	O 	0.6124	0.1737	0.0492	-0.481
Mof_O 	O 	0.2129	0.5851	0.0971	-0.502
Mof_O 	O 	0.273	0.6721	0.066	-0.627
Mof_O 	O 	0.2377	0.3731	0.3762	-0.575
Mof_O 	O 	0.3042	0.2899	0.3879	-0.523
Mof_Eu	Eu	0.18522	0.69578	0.97611	2.116
Mof_C 	C 	0.0976	0.7535	0.0302	0.353
Mof_C 	C 	0.0539	0.7866	0.0686	-0.135
Mof_C 	C 	0.0266	0.7235	0.1097	0.067
Mof_H 	H 	0.0366	0.6617	0.1192	0.009
Mof_C 	C 	0.9836	0.752	0.1375	-0.158
Mof_H 	H 	0.9637	0.7073	0.1595	0.076
Mof_C 	C 	0.9703	0.8427	0.1332	0.097
Mof_C 	C 	0.9977	0.9064	0.0976	-0.15
Mof_H 	H 	0.9887	0.9692	0.0954	0.089
Mof_C 	C 	0.0405	0.88	0.0629	0.062
Mof_H 	H 	0.0592	0.9246	0.0369	0.02
Mof_C 	C 	0.9235	0.8709	0.166	-0.01
Mof_H 	H 	0.906	0.816	0.146	0.031
Mof_C 	C 	0.7561	0.1029	0.1078	0.441
Mof_C 	C 	0.7876	0.0388	0.1662	-0.157
Mof_C 	C 	0.8345	0.0303	0.1505	-0.014
Mof_H 	H 	0.8473	0.0715	0.1093	0.039
Mof_C 	C 	0.8623	0.9624	0.1945	0.038
Mof_C 	C 	0.8442	0.908	0.264	-0.013
Mof_H 	H 	0.8632	0.8646	0.2976	0.051
Mof_C 	C 	0.7977	0.9183	0.2834	-0.157
Mof_C 	C 	0.7695	0.9829	0.2333	0.079
Mof_H 	H 	0.7383	0.9888	0.2447	0.005
Mof_C 	C 	0.7781	0.855	0.3546	0.494
Mof_N 	N 	0.9082	0.9498	0.1669	-0.114
Mof_O 	O 	0.1185	0.808	0.9781	-0.45
Mof_O 	O 	0.1124	0.6737	0.0492	-0.482
Mof_O 	O 	0.7129	0.0851	0.0971	-0.501
Mof_O 	O 	0.773	0.1721	0.066	-0.627
Mof_O 	O 	0.7377	0.8731	0.3762	-0.575
Mof_O 	O 	0.8042	0.7899	0.3879	-0.523
Mof_Eu	Eu	0.68522	0.80422	0.47611	2.112
Mof_C 	C 	0.5976	0.7465	0.5302	0.355
Mof_C 	C 	0.5539	0.7134	0.5686	-0.134
Mof_C 	C 	0.5266	0.7765	0.6097	0.066
Mof_H 	H 	0.5366	0.8383	0.6192	0.009
Mof_C 	C 	0.4836	0.748	0.6375	-0.157
Mof_H 	H 	0.4637	0.7927	0.6595	0.076
Mof_C 	C 	0.4703	0.6573	0.6332	0.097
Mof_C 	C 	0.4977	0.5936	0.5976	-0.149
Mof_H 	H 	0.4887	0.5308	0.5954	0.089
Mof_C 	C 	0.5405	0.62	0.5629	0.061
Mof_H 	H 	0.5592	0.5754	0.5369	0.021
Mof_C 	C 	0.4235	0.6291	0.666	-0.01
Mof_H 	H 	0.406	0.684	0.646	0.031
Mof_C 	C 	0.2561	0.3971	0.6078	0.441
Mof_C 	C 	0.2876	0.4612	0.6662	-0.158
Mof_C 	C 	0.3345	0.4697	0.6505	-0.016
Mof_H 	H 	0.3473	0.4285	0.6093	0.04
Mof_C 	C 	0.3623	0.5376	0.6945	0.041
Mof_C 	C 	0.3442	0.592	0.764	-0.013
Mof_H 	H 	0.3632	0.6354	0.7976	0.051
Mof_C 	C 	0.2977	0.5817	0.7834	-0.157
Mof_C 	C 	0.2695	0.5171	0.7333	0.081
Mof_H 	H 	0.2383	0.5112	0.7447	0.005
Mof_C 	C 	0.2781	0.645	0.8546	0.494
Mof_N 	N 	0.4082	0.5502	0.6669	-0.114
Mof_O 	O 	0.6185	0.692	0.4781	-0.452
Mof_O 	O 	0.6124	0.8263	0.5492	-0.482
Mof_O 	O 	0.2129	0.4149	0.5971	-0.502
Mof_O 	O 	0.273	0.3279	0.566	-0.627
Mof_O 	O 	0.2377	0.6269	0.8762	-0.575
Mof_O 	O 	0.3042	0.7101	0.8879	-0.523
Mof_Eu	Eu	0.18522	0.30422	0.47611	2.113
Mof_C 	C 	0.0976	0.2465	0.5302	0.354
Mof_C 	C 	0.0539	0.2134	0.5686	-0.134
Mof_C 	C 	0.0266	0.2765	0.6097	0.065
Mof_H 	H 	0.0366	0.3383	0.6192	0.009
Mof_C 	C 	0.9836	0.248	0.6375	-0.157
Mof_H 	H 	0.9637	0.2927	0.6595	0.076
Mof_C 	C 	0.9703	0.1573	0.6332	0.097
Mof_C 	C 	0.9977	0.0936	0.5976	-0.148
Mof_H 	H 	0.9887	0.0308	0.5954	0.089
Mof_C 	C 	0.0405	0.12	0.5629	0.06
Mof_H 	H 	0.0592	0.0754	0.5369	0.021
Mof_C 	C 	0.9235	0.1291	0.666	-0.01
Mof_H 	H 	0.906	0.184	0.646	0.031
Mof_C 	C 	0.7561	0.8971	0.6078	0.441
Mof_C 	C 	0.7876	0.9612	0.6662	-0.157
Mof_C 	C 	0.8345	0.9697	0.6505	-0.016
Mof_H 	H 	0.8473	0.9285	0.6093	0.039
Mof_C 	C 	0.8623	0.0376	0.6945	0.04
Mof_C 	C 	0.8442	0.092	0.764	-0.013
Mof_H 	H 	0.8632	0.1354	0.7976	0.051
Mof_C 	C 	0.7977	0.0817	0.7834	-0.157
Mof_C 	C 	0.7695	0.0171	0.7333	0.08
Mof_H 	H 	0.7383	0.0112	0.7447	0.005
Mof_C 	C 	0.7781	0.145	0.8546	0.494
Mof_N 	N 	0.9082	0.0502	0.6669	-0.114
Mof_O 	O 	0.1185	0.192	0.4781	-0.451
Mof_O 	O 	0.1124	0.3263	0.5492	-0.482
Mof_O 	O 	0.7129	0.9149	0.5971	-0.502
Mof_O 	O 	0.773	0.8279	0.566	-0.627
Mof_O 	O 	0.7377	0.1269	0.8762	-0.575
Mof_O 	O 	0.8042	0.2101	0.8879	-0.524
Mof_Eu	Eu	0.31478	0.80422	0.02389	2.11
Mof_C 	C 	0.4024	0.7465	0.9698	0.356
Mof_C 	C 	0.4461	0.7134	0.9314	-0.135
Mof_C 	C 	0.4734	0.7765	0.8903	0.066
Mof_H 	H 	0.4634	0.8383	0.8808	0.009
Mof_C 	C 	0.5164	0.748	0.8625	-0.157
Mof_H 	H 	0.5363	0.7927	0.8405	0.076
Mof_C 	C 	0.5297	0.6573	0.8668	0.097
Mof_C 	C 	0.5023	0.5936	0.9024	-0.149
Mof_H 	H 	0.5113	0.5308	0.9046	0.089
Mof_C 	C 	0.4595	0.62	0.9371	0.061
Mof_H 	H 	0.4408	0.5754	0.9631	0.021
Mof_C 	C 	0.5765	0.6291	0.834	-0.01
Mof_H 	H 	0.594	0.684	0.854	0.031
Mof_C 	C 	0.7439	0.3971	0.8922	0.441
Mof_C 	C 	0.7124	0.4612	0.8338	-0.158
Mof_C 	C 	0.6655	0.4697	0.8495	-0.017
Mof_H 	H 	0.6527	0.4285	0.8907	0.04
Mof_C 	C 	0.6377	0.5376	0.8055	0.041
Mof_C 	C 	0.6558	0.592	0.736	-0.013
Mof_H 	H 	0.6368	0.6354	0.7024	0.051
Mof_C 	C 	0.7023	0.5817	0.7166	-0.157
Mof_C 	C 	0.7305	0.5171	0.7667	0.081
Mof_H 	H 	0.7617	0.5112	0.7553	0.005
Mof_C 	C 	0.7219	0.645	0.6454	0.494
Mof_N 	N 	0.5918	0.5502	0.8331	-0.114
Mof_O 	O 	0.3815	0.692	0.0219	-0.452
Mof_O 	O 	0.3876	0.8263	0.9508	-0.481
Mof_O 	O 	0.7871	0.4149	0.9029	-0.502
Mof_O 	O 	0.727	0.3279	0.934	-0.627
Mof_O 	O 	0.7623	0.6269	0.6238	-0.575
Mof_O 	O 	0.6958	0.7101	0.6121	-0.523
Mof_Eu	Eu	0.81478	0.30422	0.02389	2.116
Mof_C 	C 	0.9024	0.2465	0.9698	0.353
Mof_C 	C 	0.9461	0.2134	0.9314	-0.135
Mof_C 	C 	0.9734	0.2765	0.8903	0.067
Mof_H 	H 	0.9634	0.3383	0.8808	0.009
Mof_C 	C 	0.0164	0.248	0.8625	-0.158
Mof_H 	H 	0.0363	0.2927	0.8405	0.076
Mof_C 	C 	0.0297	0.1573	0.8668	0.097
Mof_C 	C 	0.0023	0.0936	0.9024	-0.15
Mof_H 	H 	0.0113	0.0308	0.9046	0.089
Mof_C 	C 	0.9595	0.12	0.9371	0.062
Mof_H 	H 	0.9408	0.0754	0.9631	0.02
Mof_C 	C 	0.0765	0.1291	0.834	-0.01
Mof_H 	H 	0.094	0.184	0.854	0.031
Mof_C 	C 	0.2439	0.8971	0.8922	0.441
Mof_C 	C 	0.2124	0.9612	0.8338	-0.157
Mof_C 	C 	0.1655	0.9697	0.8495	-0.014
Mof_H 	H 	0.1527	0.9285	0.8907	0.039
Mof_C 	C 	0.1377	0.0376	0.8055	0.038
Mof_C 	C 	0.1558	0.092	0.736	-0.013
Mof_H 	H 	0.1368	0.1354	0.7024	0.051
Mof_C 	C 	0.2023	0.0817	0.7166	-0.157
Mof_C 	C 	0.2305	0.0171	0.7667	0.079
Mof_H 	H 	0.2617	0.0112	0.7553	0.005
Mof_C 	C 	0.2219	0.145	0.6454	0.494
Mof_N 	N 	0.0918	0.0502	0.8331	-0.114
Mof_O 	O 	0.8815	0.192	0.0219	-0.45
Mof_O 	O 	0.8876	0.3263	0.9508	-0.482
Mof_O 	O 	0.2871	0.9149	0.9029	-0.501
Mof_O 	O 	0.227	0.8279	0.934	-0.627
Mof_O 	O 	0.2623	0.1269	0.6238	-0.575
Mof_O 	O 	0.1958	0.2101	0.6121	-0.523
_end
