data_functionalizedCrystal
_audit_creation_method	'EQeq! by Chris Wilmer'
_symmetry_space_group_name_H-M	'P1'
_symmetry_Int_Tables_number	1
_symmetry_cell_setting	triclinic
loop_
_symmetry_equiv_pos_as_xyz
  x,y,z
_cell_length_a	21.918
_cell_length_b	14.033
_cell_length_c	22.467
_cell_angle_alpha	90
_cell_angle_beta	92.639
_cell_angle_gamma	90
loop_
_atom_site_label
_atom_site_type_symbol
_atom_site_fract_x
_atom_site_fract_y
_atom_site_fract_z
_atom_site_charge
Mof_Cr	Cr	0.7641	0.9619	0.65939	1.851
Mof_Cr	Cr	0.51994	0.96637	0.67579	1.774
Mof_Cr	Cr	0.88276	0.22569	0.53793	1.735
Mof_Cr	Cr	0.91044	0.74084	0.80089	1.842
Mof_O 	O 	0.6867	0.9434	0.6064	-0.447
Mof_O 	O 	0.6993	0.9629	0.7233	-0.442
Mof_O 	O 	0.5842	0.9593	0.6119	-0.44
Mof_O 	O 	0.5985	0.9628	0.7311	-0.424
Mof_O 	O 	0.7626	0.1069	0.6463	-0.425
Mof_O 	O 	0.8245	0.9696	0.5923	-0.448
Mof_O 	O 	0.808	0.2173	0.5935	-0.39
Mof_O 	O 	0.8732	0.0798	0.5412	-0.421
Mof_O 	O 	0.834	0.976	0.7238	-0.423
Mof_O 	O 	0.7832	0.8229	0.6749	-0.455
Mof_O 	O 	0.8951	0.8832	0.7849	-0.436
Mof_O 	O 	0.8451	0.7297	0.7323	-0.429
Mof_O 	O 	0.4496	0.9696	0.6106	-0.423
Mof_O 	O 	0.5019	0.8208	0.6703	-0.414
Mof_O 	O 	0.3928	0.8708	0.5559	-0.42
Mof_O 	O 	0.4468	0.7215	0.6103	-0.414
Mof_O 	O 	0.5199	0.116	0.6833	-0.408
Mof_O 	O 	0.4602	0.9828	0.7427	-0.433
Mof_O 	O 	0.4778	0.2284	0.7399	-0.313
Mof_O 	O 	0.4195	0.0953	0.7991	-0.316
Mof_O 	O 	0.8308	0.2516	0.4584	-0.428
Mof_O 	O 	0.9506	0.2236	0.4749	-0.408
Mof_O 	O 	0.842	0.2647	0.3613	-0.466
Mof_O 	O 	0.9627	0.2389	0.3775	-0.452
Mof_C 	C 	0.6373	0.954	0.6337	0.269
Mof_C 	C 	0.6468	0.9588	0.7021	0.277
Mof_C 	C 	0.7986	0.1302	0.6069	0.226
Mof_C 	C 	0.8342	0.0521	0.5795	0.27
Mof_C 	C 	0.8546	0.8959	0.745	0.262
Mof_C 	C 	0.8238	0.8103	0.7146	0.278
Mof_C 	C 	0.4323	0.8876	0.596	0.271
Mof_C 	C 	0.4625	0.8014	0.6277	0.256
Mof_C 	C 	0.4864	0.1443	0.7237	0.254
Mof_C 	C 	0.4528	0.0677	0.7592	0.275
Mof_C 	C 	0.8603	0.2528	0.4109	0.314
Mof_C 	C 	0.9314	0.2373	0.4209	0.265
Mof_Mn	Mn	0.41044	0.24084	0.80089	1.09
Mof_Cr	Cr	0.2641	0.4619	0.65939	1.844
Mof_Cr	Cr	0.01994	0.46637	0.67579	1.729
Mof_Cr	Cr	0.38276	0.72569	0.53793	1.727
Mof_O 	O 	0.1867	0.4434	0.6064	-0.45
Mof_O 	O 	0.1993	0.4629	0.7233	-0.442
Mof_O 	O 	0.0842	0.4593	0.6119	-0.443
Mof_O 	O 	0.0985	0.4628	0.7311	-0.427
Mof_O 	O 	0.2626	0.6069	0.6463	-0.428
Mof_O 	O 	0.3245	0.4696	0.5923	-0.446
Mof_O 	O 	0.308	0.7173	0.5935	-0.392
Mof_O 	O 	0.3732	0.5798	0.5412	-0.421
Mof_O 	O 	0.334	0.476	0.7238	-0.42
Mof_O 	O 	0.2832	0.3229	0.6749	-0.453
Mof_O 	O 	0.3951	0.3832	0.7849	-0.313
Mof_O 	O 	0.3451	0.2297	0.7323	-0.31
Mof_O 	O 	0.9496	0.4696	0.6106	-0.404
Mof_O 	O 	0.0019	0.3208	0.6703	-0.44
Mof_O 	O 	0.8928	0.3708	0.5559	-0.417
Mof_O 	O 	0.9468	0.2215	0.6103	-0.419
Mof_O 	O 	0.0199	0.616	0.6833	-0.44
Mof_O 	O 	0.9602	0.4828	0.7427	-0.414
Mof_O 	O 	0.9778	0.7284	0.7399	-0.441
Mof_O 	O 	0.9195	0.5953	0.7991	-0.434
Mof_O 	O 	0.3308	0.7516	0.4584	-0.424
Mof_O 	O 	0.4506	0.7236	0.4749	-0.409
Mof_O 	O 	0.342	0.7647	0.3613	-0.345
Mof_O 	O 	0.4627	0.7389	0.3775	-0.329
Mof_C 	C 	0.1373	0.454	0.6337	0.268
Mof_C 	C 	0.1468	0.4588	0.7021	0.276
Mof_C 	C 	0.2986	0.6302	0.6069	0.226
Mof_C 	C 	0.3342	0.5521	0.5795	0.267
Mof_C 	C 	0.3546	0.3959	0.745	0.251
Mof_C 	C 	0.3238	0.3103	0.7146	0.267
Mof_C 	C 	0.9323	0.3876	0.596	0.263
Mof_C 	C 	0.9625	0.3014	0.6277	0.29
Mof_C 	C 	0.9864	0.6443	0.7237	0.303
Mof_C 	C 	0.9528	0.5677	0.7592	0.274
Mof_C 	C 	0.3603	0.7528	0.4109	0.298
Mof_C 	C 	0.4314	0.7373	0.4209	0.257
Mof_Cr	Cr	0.7641	0.0381	0.15939	1.846
Mof_Cr	Cr	0.51994	0.03363	0.17579	1.769
Mof_Cr	Cr	0.88276	0.77431	0.03793	1.642
Mof_Cr	Cr	0.91044	0.25916	0.30089	1.835
Mof_O 	O 	0.6867	0.0566	0.1064	-0.455
Mof_O 	O 	0.6993	0.0371	0.2233	-0.446
Mof_O 	O 	0.5842	0.0407	0.1119	-0.448
Mof_O 	O 	0.5985	0.0372	0.2311	-0.429
Mof_O 	O 	0.7626	0.8931	0.1463	-0.43
Mof_O 	O 	0.8245	0.0304	0.0923	-0.453
Mof_O 	O 	0.808	0.7827	0.0935	-0.389
Mof_O 	O 	0.8732	0.9202	0.0412	-0.427
Mof_O 	O 	0.834	0.024	0.2238	-0.425
Mof_O 	O 	0.7832	0.1771	0.1749	-0.46
Mof_O 	O 	0.8951	0.1168	0.2849	-0.441
Mof_O 	O 	0.8451	0.2703	0.2323	-0.432
Mof_O 	O 	0.4496	0.0304	0.1106	-0.429
Mof_O 	O 	0.5019	0.1792	0.1703	-0.417
Mof_O 	O 	0.3928	0.1292	0.0559	-0.426
Mof_O 	O 	0.4468	0.2785	0.1103	-0.411
Mof_O 	O 	0.5199	0.884	0.1833	-0.414
Mof_O 	O 	0.4602	0.0172	0.2427	-0.435
Mof_O 	O 	0.4778	0.7716	0.2399	-0.318
Mof_O 	O 	0.4195	0.9047	0.2991	-0.322
Mof_O 	O 	0.8308	0.7484	0.9584	-0.386
Mof_O 	O 	0.9506	0.7764	0.9749	-0.365
Mof_O 	O 	0.842	0.7353	0.8613	-0.459
Mof_O 	O 	0.9627	0.7611	0.8775	-0.443
Mof_C 	C 	0.6373	0.046	0.1337	0.268
Mof_C 	C 	0.6468	0.0412	0.2021	0.275
Mof_C 	C 	0.7986	0.8698	0.1069	0.223
Mof_C 	C 	0.8342	0.9479	0.0795	0.267
Mof_C 	C 	0.8546	0.1041	0.245	0.26
Mof_C 	C 	0.8238	0.1897	0.2146	0.277
Mof_C 	C 	0.4323	0.1124	0.096	0.27
Mof_C 	C 	0.4625	0.1986	0.1277	0.251
Mof_C 	C 	0.4864	0.8557	0.2237	0.254
Mof_C 	C 	0.4528	0.9323	0.2592	0.27
Mof_C 	C 	0.8603	0.7472	0.9109	0.315
Mof_C 	C 	0.9314	0.7627	0.9209	0.266
Mof_Mn	Mn	0.41044	0.75916	0.30089	1.086
Mof_Cr	Cr	0.2641	0.5381	0.15939	1.838
Mof_Cr	Cr	0.01994	0.53363	0.17579	1.724
Mof_Cr	Cr	0.38276	0.27431	0.03793	1.633
Mof_O 	O 	0.1867	0.5566	0.1064	-0.458
Mof_O 	O 	0.1993	0.5371	0.2233	-0.446
Mof_O 	O 	0.0842	0.5407	0.1119	-0.45
Mof_O 	O 	0.0985	0.5372	0.2311	-0.432
Mof_O 	O 	0.2626	0.3931	0.1463	-0.431
Mof_O 	O 	0.3245	0.5304	0.0923	-0.454
Mof_O 	O 	0.308	0.2827	0.0935	-0.39
Mof_O 	O 	0.3732	0.4202	0.0412	-0.427
Mof_O 	O 	0.334	0.524	0.2238	-0.423
Mof_O 	O 	0.2832	0.6771	0.1749	-0.458
Mof_O 	O 	0.3951	0.6168	0.2849	-0.319
Mof_O 	O 	0.3451	0.7703	0.2323	-0.314
Mof_O 	O 	0.9496	0.5304	0.1106	-0.411
Mof_O 	O 	0.0019	0.6792	0.1703	-0.443
Mof_O 	O 	0.8928	0.6292	0.0559	-0.424
Mof_O 	O 	0.9468	0.7785	0.1103	-0.416
Mof_O 	O 	0.0199	0.384	0.1833	-0.444
Mof_O 	O 	0.9602	0.5172	0.2427	-0.419
Mof_O 	O 	0.9778	0.2716	0.2399	-0.445
Mof_O 	O 	0.9195	0.4047	0.2991	-0.44
Mof_O 	O 	0.3308	0.2484	0.9584	-0.381
Mof_O 	O 	0.4506	0.2764	0.9749	-0.365
Mof_O 	O 	0.342	0.2353	0.8613	-0.337
Mof_O 	O 	0.4627	0.2611	0.8775	-0.319
Mof_C 	C 	0.1373	0.546	0.1337	0.267
Mof_C 	C 	0.1468	0.5412	0.2021	0.274
Mof_C 	C 	0.2986	0.3698	0.1069	0.223
Mof_C 	C 	0.3342	0.4479	0.0795	0.266
Mof_C 	C 	0.3546	0.6041	0.245	0.25
Mof_C 	C 	0.3238	0.6897	0.2146	0.266
Mof_C 	C 	0.9323	0.6124	0.096	0.262
Mof_C 	C 	0.9625	0.6986	0.1277	0.285
Mof_C 	C 	0.9864	0.3557	0.2237	0.301
Mof_C 	C 	0.9528	0.4323	0.2592	0.273
Mof_C 	C 	0.3603	0.2472	0.9109	0.299
Mof_C 	C 	0.4314	0.2627	0.9209	0.258
_end
