data_functionalizedCrystal
_audit_creation_method	'EQeq! by Chris Wilmer'
_symmetry_space_group_name_H-M	'P1'
_symmetry_Int_Tables_number	1
_symmetry_cell_setting	triclinic
loop_
_symmetry_equiv_pos_as_xyz
  x,y,z
_cell_length_a	29.054
_cell_length_b	29.054
_cell_length_c	12.6638
_cell_angle_alpha	90
_cell_angle_beta	90
_cell_angle_gamma	120
loop_
_atom_site_label
_atom_site_type_symbol
_atom_site_fract_x
_atom_site_fract_y
_atom_site_fract_z
_atom_site_charge
Mof_Ag	Ag	0.4707	0.07052	0.21322	0.569
Mof_N 	N 	0.444	0.1304	0.2982	-0.171
Mof_N 	N 	0.418	0.2018	0.3865	-0.167
Mof_N 	N 	0.344	0.0782	0.9511	-0.151
Mof_N 	N 	0.4256	0.0796	0.0712	-0.189
Mof_C 	C 	0.4432	0.1693	0.2399	0.105
Mof_C 	C 	0.3784	0.1209	0.0058	-0.054
Mof_H 	H 	0.3748	0.1516	0.0044	0.029
Mof_C 	C 	0.3925	0.037	0.0151	0.013
Mof_H 	H 	0.3966	0.0066	0.0168	0.001
Mof_C 	C 	0.4194	0.1223	0.0647	0.106
Mof_C 	C 	0.3526	0.0359	0.9549	-0.018
Mof_H 	H 	0.3303	0.0049	0.9149	0.022
Mof_C 	C 	0.4153	0.1625	0.4416	0.003
Mof_H 	H 	0.4038	0.1582	0.5129	-0.002
Mof_C 	C 	0.4286	0.1277	0.3999	-0.005
Mof_H 	H 	0.4271	0.1004	0.4437	0.015
Mof_C 	C 	0.4305	0.2044	0.2841	-0.056
Mof_H 	H 	0.4307	0.2313	0.2412	0.027
Mof_C 	C 	0.4581	0.1713	0.126	-0.254
Mof_H 	H 	0.4939	0.1752	0.1217	0.076
Mof_H 	H 	0.4599	0.203	0.0927	0.086
Mof_Ag	Ag	0.13737	0.40385	0.54655	0.57
Mof_N 	N 	0.11067	0.46373	0.63153	-0.17
Mof_N 	N 	0.08467	0.53513	0.71983	-0.166
Mof_N 	N 	0.01067	0.41153	0.28443	-0.15
Mof_N 	N 	0.09227	0.41293	0.40453	-0.188
Mof_C 	C 	0.10987	0.50263	0.57323	0.106
Mof_C 	C 	0.04507	0.45423	0.33913	-0.053
Mof_H 	H 	0.04147	0.48493	0.33773	0.03
Mof_C 	C 	0.05917	0.37033	0.34843	0.014
Mof_H 	H 	0.06327	0.33993	0.35013	0.002
Mof_C 	C 	0.08607	0.45563	0.39803	0.107
Mof_C 	C 	0.01927	0.36923	0.28823	-0.017
Mof_H 	H 	0.99697	0.33823	0.24823	0.023
Mof_C 	C 	0.08197	0.49583	0.77493	0.004
Mof_H 	H 	0.07047	0.49153	0.84623	-0.001
Mof_C 	C 	0.09527	0.46103	0.73323	-0.004
Mof_H 	H 	0.09377	0.43373	0.77703	0.015
Mof_C 	C 	0.09717	0.53773	0.61743	-0.056
Mof_H 	H 	0.09737	0.56463	0.57453	0.027
Mof_C 	C 	0.12477	0.50463	0.45933	-0.254
Mof_H 	H 	0.16057	0.50853	0.45503	0.076
Mof_H 	H 	0.12657	0.53633	0.42603	0.086
Mof_Ag	Ag	0.80403	0.73719	0.87989	0.57
Mof_N 	N 	0.77733	0.79707	0.96487	-0.17
Mof_N 	N 	0.75133	0.86847	0.05317	-0.166
Mof_N 	N 	0.67733	0.74487	0.61777	-0.15
Mof_N 	N 	0.75893	0.74627	0.73787	-0.188
Mof_C 	C 	0.77653	0.83597	0.90657	0.106
Mof_C 	C 	0.71173	0.78757	0.67247	-0.053
Mof_H 	H 	0.70813	0.81827	0.67107	0.03
Mof_C 	C 	0.72583	0.70367	0.68177	0.014
Mof_H 	H 	0.72993	0.67327	0.68347	0.002
Mof_C 	C 	0.75273	0.78897	0.73137	0.107
Mof_C 	C 	0.68593	0.70257	0.62157	-0.017
Mof_H 	H 	0.66363	0.67157	0.58157	0.023
Mof_C 	C 	0.74863	0.82917	0.10827	0.004
Mof_H 	H 	0.73713	0.82487	0.17957	-0.001
Mof_C 	C 	0.76193	0.79437	0.06657	-0.004
Mof_H 	H 	0.76043	0.76707	0.11037	0.015
Mof_C 	C 	0.76383	0.87107	0.95077	-0.056
Mof_H 	H 	0.76403	0.89797	0.90787	0.027
Mof_C 	C 	0.79143	0.83797	0.79267	-0.254
Mof_H 	H 	0.82723	0.84187	0.78837	0.076
Mof_H 	H 	0.79323	0.86967	0.75937	0.086
Mof_Ag	Ag	0.92948	0.40018	0.21322	0.57
Mof_N 	N 	0.8696	0.3136	0.2982	-0.17
Mof_N 	N 	0.7982	0.2162	0.3865	-0.166
Mof_N 	N 	0.9218	0.2658	0.9511	-0.15
Mof_N 	N 	0.9204	0.346	0.0712	-0.188
Mof_C 	C 	0.8307	0.2739	0.2399	0.106
Mof_C 	C 	0.8791	0.2575	0.0058	-0.053
Mof_H 	H 	0.8484	0.2232	0.0044	0.03
Mof_C 	C 	0.963	0.3555	0.0151	0.014
Mof_H 	H 	0.9934	0.39	0.0168	0.002
Mof_C 	C 	0.8777	0.2971	0.0647	0.107
Mof_C 	C 	0.9641	0.3167	0.9549	-0.017
Mof_H 	H 	0.9951	0.3254	0.9149	0.023
Mof_C 	C 	0.8375	0.2528	0.4416	0.004
Mof_H 	H 	0.8418	0.2456	0.5129	-0.001
Mof_C 	C 	0.8723	0.3009	0.3999	-0.004
Mof_H 	H 	0.8996	0.3267	0.4437	0.015
Mof_C 	C 	0.7956	0.2261	0.2841	-0.056
Mof_H 	H 	0.7687	0.1994	0.2412	0.027
Mof_C 	C 	0.8287	0.2868	0.126	-0.254
Mof_H 	H 	0.8248	0.3187	0.1217	0.076
Mof_H 	H 	0.797	0.2569	0.0927	0.086
Mof_Ag	Ag	0.59615	0.73351	0.54655	0.57
Mof_N 	N 	0.53627	0.64693	0.63153	-0.17
Mof_N 	N 	0.46487	0.54953	0.71983	-0.166
Mof_N 	N 	0.58847	0.59913	0.28443	-0.15
Mof_N 	N 	0.58707	0.67933	0.40453	-0.188
Mof_C 	C 	0.49737	0.60723	0.57323	0.106
Mof_C 	C 	0.54577	0.59083	0.33913	-0.053
Mof_H 	H 	0.51507	0.55653	0.33773	0.03
Mof_C 	C 	0.62967	0.68883	0.34843	0.014
Mof_H 	H 	0.66007	0.72333	0.35013	0.002
Mof_C 	C 	0.54437	0.63043	0.39803	0.107
Mof_C 	C 	0.63077	0.65003	0.28823	-0.017
Mof_H 	H 	0.66177	0.65873	0.24823	0.023
Mof_C 	C 	0.50417	0.58613	0.77493	0.004
Mof_H 	H 	0.50847	0.57893	0.84623	-0.001
Mof_C 	C 	0.53897	0.63423	0.73323	-0.004
Mof_H 	H 	0.56627	0.66003	0.77703	0.015
Mof_C 	C 	0.46227	0.55943	0.61743	-0.056
Mof_H 	H 	0.43537	0.53273	0.57453	0.027
Mof_C 	C 	0.49537	0.62013	0.45933	-0.254
Mof_H 	H 	0.49147	0.65203	0.45503	0.076
Mof_H 	H 	0.46367	0.59023	0.42603	0.086
Mof_Ag	Ag	0.26281	0.06685	0.87989	0.57
Mof_N 	N 	0.20293	0.98027	0.96487	-0.17
Mof_N 	N 	0.13153	0.88287	0.05317	-0.166
Mof_N 	N 	0.25513	0.93247	0.61777	-0.15
Mof_N 	N 	0.25373	0.01267	0.73787	-0.188
Mof_C 	C 	0.16403	0.94057	0.90657	0.106
Mof_C 	C 	0.21243	0.92417	0.67247	-0.053
Mof_H 	H 	0.18173	0.88987	0.67107	0.03
Mof_C 	C 	0.29633	0.02217	0.68177	0.014
Mof_H 	H 	0.32673	0.05667	0.68347	0.002
Mof_C 	C 	0.21103	0.96377	0.73137	0.107
Mof_C 	C 	0.29743	0.98337	0.62157	-0.017
Mof_H 	H 	0.32843	0.99207	0.58157	0.023
Mof_C 	C 	0.17083	0.91947	0.10827	0.004
Mof_H 	H 	0.17513	0.91227	0.17957	-0.001
Mof_C 	C 	0.20563	0.96757	0.06657	-0.004
Mof_H 	H 	0.23293	0.99337	0.11037	0.015
Mof_C 	C 	0.12893	0.89277	0.95077	-0.056
Mof_H 	H 	0.10203	0.86607	0.90787	0.027
Mof_C 	C 	0.16203	0.95347	0.79267	-0.254
Mof_H 	H 	0.15813	0.98537	0.78837	0.076
Mof_H 	H 	0.13033	0.92357	0.75937	0.086
Mof_Ag	Ag	0.59982	0.5293	0.21322	0.57
Mof_N 	N 	0.6864	0.556	0.2982	-0.17
Mof_N 	N 	0.7838	0.582	0.3865	-0.166
Mof_N 	N 	0.7342	0.656	0.9511	-0.15
Mof_N 	N 	0.654	0.5744	0.0712	-0.188
Mof_C 	C 	0.7261	0.5568	0.2399	0.106
Mof_C 	C 	0.7425	0.6216	0.0058	-0.053
Mof_H 	H 	0.7768	0.6252	0.0044	0.03
Mof_C 	C 	0.6445	0.6075	0.0151	0.014
Mof_H 	H 	0.61	0.6034	0.0168	0.002
Mof_C 	C 	0.7029	0.5806	0.0647	0.107
Mof_C 	C 	0.6833	0.6474	0.9549	-0.017
Mof_H 	H 	0.6746	0.6697	0.9149	0.023
Mof_C 	C 	0.7472	0.5847	0.4416	0.004
Mof_H 	H 	0.7544	0.5962	0.5129	-0.001
Mof_C 	C 	0.6991	0.5714	0.3999	-0.004
Mof_H 	H 	0.6733	0.5729	0.4437	0.015
Mof_C 	C 	0.7739	0.5695	0.2841	-0.056
Mof_H 	H 	0.8006	0.5693	0.2412	0.027
Mof_C 	C 	0.7132	0.5419	0.126	-0.254
Mof_H 	H 	0.6813	0.5061	0.1217	0.076
Mof_H 	H 	0.7431	0.5401	0.0927	0.086
Mof_Ag	Ag	0.26649	0.86263	0.54655	0.57
Mof_N 	N 	0.35307	0.88933	0.63153	-0.17
Mof_N 	N 	0.45047	0.91533	0.71983	-0.166
Mof_N 	N 	0.40087	0.98933	0.28443	-0.15
Mof_N 	N 	0.32067	0.90773	0.40453	-0.188
Mof_C 	C 	0.39277	0.89013	0.57323	0.106
Mof_C 	C 	0.40917	0.95493	0.33913	-0.053
Mof_H 	H 	0.44347	0.95853	0.33773	0.03
Mof_C 	C 	0.31117	0.94083	0.34843	0.014
Mof_H 	H 	0.27667	0.93673	0.35013	0.002
Mof_C 	C 	0.36957	0.91393	0.39803	0.107
Mof_C 	C 	0.34997	0.98073	0.28823	-0.017
Mof_H 	H 	0.34127	0.00303	0.24823	0.023
Mof_C 	C 	0.41387	0.91803	0.77493	0.004
Mof_H 	H 	0.42107	0.92953	0.84623	-0.001
Mof_C 	C 	0.36577	0.90473	0.73323	-0.004
Mof_H 	H 	0.33997	0.90623	0.77703	0.015
Mof_C 	C 	0.44057	0.90283	0.61743	-0.056
Mof_H 	H 	0.46727	0.90263	0.57453	0.027
Mof_C 	C 	0.37987	0.87523	0.45933	-0.254
Mof_H 	H 	0.34797	0.83943	0.45503	0.076
Mof_H 	H 	0.40977	0.87343	0.42603	0.086
Mof_Ag	Ag	0.93315	0.19597	0.87989	0.569
Mof_N 	N 	0.01973	0.22267	0.96487	-0.17
Mof_N 	N 	0.11713	0.24867	0.05317	-0.166
Mof_N 	N 	0.06753	0.32267	0.61777	-0.15
Mof_N 	N 	0.98733	0.24107	0.73787	-0.188
Mof_C 	C 	0.05943	0.22347	0.90657	0.106
Mof_C 	C 	0.07583	0.28827	0.67247	-0.053
Mof_H 	H 	0.11013	0.29187	0.67107	0.03
Mof_C 	C 	0.97783	0.27417	0.68177	0.014
Mof_H 	H 	0.94333	0.27007	0.68347	0.002
Mof_C 	C 	0.03623	0.24727	0.73137	0.107
Mof_C 	C 	0.01663	0.31407	0.62157	-0.017
Mof_H 	H 	0.00793	0.33637	0.58157	0.023
Mof_C 	C 	0.08053	0.25137	0.10827	0.004
Mof_H 	H 	0.08773	0.26287	0.17957	-0.001
Mof_C 	C 	0.03243	0.23807	0.06657	-0.004
Mof_H 	H 	0.00663	0.23957	0.11037	0.015
Mof_C 	C 	0.10723	0.23617	0.95077	-0.056
Mof_H 	H 	0.13393	0.23597	0.90787	0.027
Mof_C 	C 	0.04653	0.20857	0.79267	-0.254
Mof_H 	H 	0.01463	0.17277	0.78837	0.076
Mof_H 	H 	0.07643	0.20677	0.75937	0.086
Mof_Ag	Ag	0.5293	0.92948	0.78678	0.57
Mof_N 	N 	0.556	0.8696	0.7018	-0.17
Mof_N 	N 	0.582	0.7982	0.6135	-0.166
Mof_N 	N 	0.656	0.9218	0.0489	-0.15
Mof_N 	N 	0.5744	0.9204	0.9288	-0.188
Mof_C 	C 	0.5568	0.8307	0.7601	0.106
Mof_C 	C 	0.6216	0.8791	0.9942	-0.053
Mof_H 	H 	0.6252	0.8484	0.9956	0.03
Mof_C 	C 	0.6075	0.963	0.9849	0.014
Mof_H 	H 	0.6034	0.9934	0.9832	0.002
Mof_C 	C 	0.5806	0.8777	0.9353	0.107
Mof_C 	C 	0.6474	0.9641	0.0451	-0.017
Mof_H 	H 	0.6697	0.9951	0.0851	0.023
Mof_C 	C 	0.5847	0.8375	0.5584	0.004
Mof_H 	H 	0.5962	0.8418	0.4871	-0.001
Mof_C 	C 	0.5714	0.8723	0.6001	-0.004
Mof_H 	H 	0.5729	0.8996	0.5563	0.015
Mof_C 	C 	0.5695	0.7956	0.7159	-0.056
Mof_H 	H 	0.5693	0.7687	0.7588	0.027
Mof_C 	C 	0.5419	0.8287	0.874	-0.254
Mof_H 	H 	0.5061	0.8248	0.8783	0.076
Mof_H 	H 	0.5401	0.797	0.9073	0.086
Mof_Ag	Ag	0.19597	0.26281	0.12011	0.57
Mof_N 	N 	0.22267	0.20293	0.03513	-0.17
Mof_N 	N 	0.24867	0.13153	0.94683	-0.166
Mof_N 	N 	0.32267	0.25513	0.38223	-0.15
Mof_N 	N 	0.24107	0.25373	0.26213	-0.188
Mof_C 	C 	0.22347	0.16403	0.09343	0.106
Mof_C 	C 	0.28827	0.21243	0.32753	-0.053
Mof_H 	H 	0.29187	0.18173	0.32893	0.03
Mof_C 	C 	0.27417	0.29633	0.31823	0.014
Mof_H 	H 	0.27007	0.32673	0.31653	0.002
Mof_C 	C 	0.24727	0.21103	0.26863	0.107
Mof_C 	C 	0.31407	0.29743	0.37843	-0.017
Mof_H 	H 	0.33637	0.32843	0.41843	0.023
Mof_C 	C 	0.25137	0.17083	0.89173	0.004
Mof_H 	H 	0.26287	0.17513	0.82043	-0.001
Mof_C 	C 	0.23807	0.20563	0.93343	-0.004
Mof_H 	H 	0.23957	0.23293	0.88963	0.015
Mof_C 	C 	0.23617	0.12893	0.04923	-0.056
Mof_H 	H 	0.23597	0.10203	0.09213	0.027
Mof_C 	C 	0.20857	0.16203	0.20733	-0.254
Mof_H 	H 	0.17277	0.15813	0.21163	0.076
Mof_H 	H 	0.20677	0.13033	0.24063	0.086
Mof_Ag	Ag	0.86263	0.59615	0.45345	0.57
Mof_N 	N 	0.88933	0.53627	0.36847	-0.17
Mof_N 	N 	0.91533	0.46487	0.28017	-0.166
Mof_N 	N 	0.98933	0.58847	0.71557	-0.15
Mof_N 	N 	0.90773	0.58707	0.59547	-0.188
Mof_C 	C 	0.89013	0.49737	0.42677	0.106
Mof_C 	C 	0.95493	0.54577	0.66087	-0.053
Mof_H 	H 	0.95853	0.51507	0.66227	0.03
Mof_C 	C 	0.94083	0.62967	0.65157	0.014
Mof_H 	H 	0.93673	0.66007	0.64987	0.002
Mof_C 	C 	0.91393	0.54437	0.60197	0.107
Mof_C 	C 	0.98073	0.63077	0.71177	-0.017
Mof_H 	H 	0.00303	0.66177	0.75177	0.023
Mof_C 	C 	0.91803	0.50417	0.22507	0.004
Mof_H 	H 	0.92953	0.50847	0.15377	-0.001
Mof_C 	C 	0.90473	0.53897	0.26677	-0.004
Mof_H 	H 	0.90623	0.56627	0.22297	0.015
Mof_C 	C 	0.90283	0.46227	0.38257	-0.056
Mof_H 	H 	0.90263	0.43537	0.42547	0.027
Mof_C 	C 	0.87523	0.49537	0.54067	-0.254
Mof_H 	H 	0.83943	0.49147	0.54497	0.076
Mof_H 	H 	0.87343	0.46367	0.57397	0.086
Mof_Ag	Ag	0.07052	0.59982	0.78678	0.57
Mof_N 	N 	0.1304	0.6864	0.7018	-0.17
Mof_N 	N 	0.2018	0.7838	0.6135	-0.166
Mof_N 	N 	0.0782	0.7342	0.0489	-0.15
Mof_N 	N 	0.0796	0.654	0.9288	-0.188
Mof_C 	C 	0.1693	0.7261	0.7601	0.106
Mof_C 	C 	0.1209	0.7425	0.9942	-0.053
Mof_H 	H 	0.1516	0.7768	0.9956	0.03
Mof_C 	C 	0.037	0.6445	0.9849	0.014
Mof_H 	H 	0.0066	0.61	0.9832	0.002
Mof_C 	C 	0.1223	0.7029	0.9353	0.107
Mof_C 	C 	0.0359	0.6833	0.0451	-0.017
Mof_H 	H 	0.0049	0.6746	0.0851	0.023
Mof_C 	C 	0.1625	0.7472	0.5584	0.004
Mof_H 	H 	0.1582	0.7544	0.4871	-0.001
Mof_C 	C 	0.1277	0.6991	0.6001	-0.004
Mof_H 	H 	0.1004	0.6733	0.5563	0.015
Mof_C 	C 	0.2044	0.7739	0.7159	-0.056
Mof_H 	H 	0.2313	0.8006	0.7588	0.027
Mof_C 	C 	0.1713	0.7132	0.874	-0.254
Mof_H 	H 	0.1752	0.6813	0.8783	0.076
Mof_H 	H 	0.203	0.7431	0.9073	0.086
Mof_Ag	Ag	0.73719	0.93315	0.12011	0.57
Mof_N 	N 	0.79707	0.01973	0.03513	-0.17
Mof_N 	N 	0.86847	0.11713	0.94683	-0.166
Mof_N 	N 	0.74487	0.06753	0.38223	-0.15
Mof_N 	N 	0.74627	0.98733	0.26213	-0.188
Mof_C 	C 	0.83597	0.05943	0.09343	0.106
Mof_C 	C 	0.78757	0.07583	0.32753	-0.053
Mof_H 	H 	0.81827	0.11013	0.32893	0.03
Mof_C 	C 	0.70367	0.97783	0.31823	0.014
Mof_H 	H 	0.67327	0.94333	0.31653	0.002
Mof_C 	C 	0.78897	0.03623	0.26863	0.107
Mof_C 	C 	0.70257	0.01663	0.37843	-0.017
Mof_H 	H 	0.67157	0.00793	0.41843	0.023
Mof_C 	C 	0.82917	0.08053	0.89173	0.004
Mof_H 	H 	0.82487	0.08773	0.82043	-0.001
Mof_C 	C 	0.79437	0.03243	0.93343	-0.004
Mof_H 	H 	0.76707	0.00663	0.88963	0.015
Mof_C 	C 	0.87107	0.10723	0.04923	-0.056
Mof_H 	H 	0.89797	0.13393	0.09213	0.027
Mof_C 	C 	0.83797	0.04653	0.20733	-0.254
Mof_H 	H 	0.84187	0.01463	0.21163	0.076
Mof_H 	H 	0.86967	0.07643	0.24063	0.086
Mof_Ag	Ag	0.40385	0.26649	0.45345	0.57
Mof_N 	N 	0.46373	0.35307	0.36847	-0.17
Mof_N 	N 	0.53513	0.45047	0.28017	-0.166
Mof_N 	N 	0.41153	0.40087	0.71557	-0.15
Mof_N 	N 	0.41293	0.32067	0.59547	-0.188
Mof_C 	C 	0.50263	0.39277	0.42677	0.106
Mof_C 	C 	0.45423	0.40917	0.66087	-0.053
Mof_H 	H 	0.48493	0.44347	0.66227	0.03
Mof_C 	C 	0.37033	0.31117	0.65157	0.014
Mof_H 	H 	0.33993	0.27667	0.64987	0.002
Mof_C 	C 	0.45563	0.36957	0.60197	0.107
Mof_C 	C 	0.36923	0.34997	0.71177	-0.017
Mof_H 	H 	0.33823	0.34127	0.75177	0.023
Mof_C 	C 	0.49583	0.41387	0.22507	0.004
Mof_H 	H 	0.49153	0.42107	0.15377	-0.001
Mof_C 	C 	0.46103	0.36577	0.26677	-0.004
Mof_H 	H 	0.43373	0.33997	0.22297	0.015
Mof_C 	C 	0.53773	0.44057	0.38257	-0.056
Mof_H 	H 	0.56463	0.46727	0.42547	0.027
Mof_C 	C 	0.50463	0.37987	0.54067	-0.254
Mof_H 	H 	0.50853	0.34797	0.54497	0.076
Mof_H 	H 	0.53633	0.40977	0.57397	0.086
Mof_Ag	Ag	0.40018	0.4707	0.78678	0.57
Mof_N 	N 	0.3136	0.444	0.7018	-0.17
Mof_N 	N 	0.2162	0.418	0.6135	-0.166
Mof_N 	N 	0.2658	0.344	0.0489	-0.15
Mof_N 	N 	0.346	0.4256	0.9288	-0.188
Mof_C 	C 	0.2739	0.4432	0.7601	0.106
Mof_C 	C 	0.2575	0.3784	0.9942	-0.053
Mof_H 	H 	0.2232	0.3748	0.9956	0.03
Mof_C 	C 	0.3555	0.3925	0.9849	0.014
Mof_H 	H 	0.39	0.3966	0.9832	0.002
Mof_C 	C 	0.2971	0.4194	0.9353	0.107
Mof_C 	C 	0.3167	0.3526	0.0451	-0.017
Mof_H 	H 	0.3254	0.3303	0.0851	0.023
Mof_C 	C 	0.2528	0.4153	0.5584	0.004
Mof_H 	H 	0.2456	0.4038	0.4871	-0.001
Mof_C 	C 	0.3009	0.4286	0.6001	-0.004
Mof_H 	H 	0.3267	0.4271	0.5563	0.015
Mof_C 	C 	0.2261	0.4305	0.7159	-0.056
Mof_H 	H 	0.1994	0.4307	0.7588	0.027
Mof_C 	C 	0.2868	0.4581	0.874	-0.254
Mof_H 	H 	0.3187	0.4939	0.8783	0.076
Mof_H 	H 	0.2569	0.4599	0.9073	0.086
Mof_Ag	Ag	0.06685	0.80403	0.12011	0.569
Mof_N 	N 	0.98027	0.77733	0.03513	-0.17
Mof_N 	N 	0.88287	0.75133	0.94683	-0.166
Mof_N 	N 	0.93247	0.67733	0.38223	-0.15
Mof_N 	N 	0.01267	0.75893	0.26213	-0.188
Mof_C 	C 	0.94057	0.77653	0.09343	0.106
Mof_C 	C 	0.92417	0.71173	0.32753	-0.053
Mof_H 	H 	0.88987	0.70813	0.32893	0.03
Mof_C 	C 	0.02217	0.72583	0.31823	0.014
Mof_H 	H 	0.05667	0.72993	0.31653	0.002
Mof_C 	C 	0.96377	0.75273	0.26863	0.107
Mof_C 	C 	0.98337	0.68593	0.37843	-0.017
Mof_H 	H 	0.99207	0.66363	0.41843	0.023
Mof_C 	C 	0.91947	0.74863	0.89173	0.004
Mof_H 	H 	0.91227	0.73713	0.82043	-0.001
Mof_C 	C 	0.96757	0.76193	0.93343	-0.004
Mof_H 	H 	0.99337	0.76043	0.88963	0.015
Mof_C 	C 	0.89277	0.76383	0.04923	-0.056
Mof_H 	H 	0.86607	0.76403	0.09213	0.027
Mof_C 	C 	0.95347	0.79143	0.20733	-0.254
Mof_H 	H 	0.98537	0.82723	0.21163	0.076
Mof_H 	H 	0.92357	0.79323	0.24063	0.086
Mof_Ag	Ag	0.73351	0.13737	0.45345	0.57
Mof_N 	N 	0.64693	0.11067	0.36847	-0.17
Mof_N 	N 	0.54953	0.08467	0.28017	-0.166
Mof_N 	N 	0.59913	0.01067	0.71557	-0.15
Mof_N 	N 	0.67933	0.09227	0.59547	-0.188
Mof_C 	C 	0.60723	0.10987	0.42677	0.106
Mof_C 	C 	0.59083	0.04507	0.66087	-0.053
Mof_H 	H 	0.55653	0.04147	0.66227	0.03
Mof_C 	C 	0.68883	0.05917	0.65157	0.014
Mof_H 	H 	0.72333	0.06327	0.64987	0.002
Mof_C 	C 	0.63043	0.08607	0.60197	0.107
Mof_C 	C 	0.65003	0.01927	0.71177	-0.017
Mof_H 	H 	0.65873	0.99697	0.75177	0.023
Mof_C 	C 	0.58613	0.08197	0.22507	0.004
Mof_H 	H 	0.57893	0.07047	0.15377	-0.001
Mof_C 	C 	0.63423	0.09527	0.26677	-0.004
Mof_H 	H 	0.66003	0.09377	0.22297	0.015
Mof_C 	C 	0.55943	0.09717	0.38257	-0.056
Mof_H 	H 	0.53273	0.09737	0.42547	0.027
Mof_C 	C 	0.62013	0.12477	0.54067	-0.254
Mof_H 	H 	0.65203	0.16057	0.54497	0.076
Mof_H 	H 	0.59023	0.12657	0.57397	0.086
_end
