data_functionalizedCrystal
_audit_creation_method	'EQeq! by Chris Wilmer'
_symmetry_space_group_name_H-M	'P1'
_symmetry_Int_Tables_number	1
_symmetry_cell_setting	triclinic
loop_
_symmetry_equiv_pos_as_xyz
  x,y,z
_cell_length_a	7.0249
_cell_length_b	7.0249
_cell_length_c	19.936
_cell_angle_alpha	90
_cell_angle_beta	90
_cell_angle_gamma	90
loop_
_atom_site_label
_atom_site_type_symbol
_atom_site_fract_x
_atom_site_fract_y
_atom_site_fract_z
_atom_site_charge
Mof_Zn	Zn	3.33625e-32	2.56585e-32	0.72403	1.177
Mof_Zn	Zn	0.5	0.5	0.22403	1.233
Mof_Zn	Zn	0.5	0.5	0.77597	1.234
Mof_Zn	Zn	2.93644e-33	0	0.27597	1.178
Mof_H 	H 	0.833	0.2335	0.9493	0.045
Mof_H 	H 	0.167	0.7665	0.9493	0.032
Mof_H 	H 	0.2665	0.333	0.4493	0.047
Mof_H 	H 	0.7335	0.667	0.4493	0.098
Mof_H 	H 	0.667	0.7335	0.5507	0.098
Mof_H 	H 	0.333	0.2665	0.5507	0.047
Mof_H 	H 	0.2335	0.833	0.0507	0.045
Mof_H 	H 	0.7665	0.167	0.0507	0.032
Mof_C 	C 	0.8987	0.1378	0.9269	0.079
Mof_C 	C 	0.8978	0.1295	0.8574	0.031
Mof_C 	C 	0.781	0.2553	0.8119	0.308
Mof_C 	C 	0.1013	0.8622	0.9269	0.079
Mof_C 	C 	0.1022	0.8705	0.8574	0.025
Mof_C 	C 	0.219	0.7447	0.8119	0.307
Mof_C 	C 	0.3622	0.3987	0.4269	-0.06
Mof_C 	C 	0.3705	0.3978	0.3574	-0.022
Mof_C 	C 	0.2447	0.281	0.3119	0.316
Mof_C 	C 	0.6378	0.6013	0.4269	-0.066
Mof_C 	C 	0.6295	0.6022	0.3574	0.02
Mof_C 	C 	0.7553	0.719	0.3119	0.301
Mof_C 	C 	0.6013	0.6378	0.5731	-0.066
Mof_C 	C 	0.6022	0.6295	0.6426	0.02
Mof_C 	C 	0.719	0.7553	0.6881	0.301
Mof_C 	C 	0.3987	0.3622	0.5731	-0.06
Mof_C 	C 	0.3978	0.3705	0.6426	-0.022
Mof_C 	C 	0.281	0.2447	0.6881	0.316
Mof_C 	C 	0.1378	0.8987	0.0731	0.079
Mof_C 	C 	0.1295	0.8978	0.1426	0.031
Mof_C 	C 	0.2553	0.781	0.1881	0.308
Mof_C 	C 	0.8622	0.1013	0.0731	0.079
Mof_C 	C 	0.8705	0.1022	0.1426	0.025
Mof_C 	C 	0.7447	0.219	0.1881	0.307
Mof_C 	C 	3.5901e-32	2.56585e-32	0.9626	-0.165
Mof_C 	C 	0.5	0.5	0.4626	0.033
Mof_C 	C 	0.5	0.5	0.5374	0.033
Mof_C 	C 	1.19978e-33	8.0183e-34	0.0374	-0.165
Mof_N 	N 	3.44348e-32	2.56585e-32	0.8248	-0.331
Mof_N 	N 	0.5	0.5	0.3248	-0.219
Mof_N 	N 	0.5	0.5	0.6752	-0.219
Mof_N 	N 	1.86421e-33	0	0.1752	-0.331
Mof_O 	O 	0.6639	0.3654	0.83965	-0.416
Mof_O 	O 	0.8058	0.2359	0.75045	-0.396
Mof_O 	O 	0.3361	0.6346	0.83965	-0.42
Mof_O 	O 	0.1942	0.7641	0.75045	-0.405
Mof_O 	O 	0.1346	0.1639	0.33965	-0.491
Mof_O 	O 	0.2641	0.3058	0.25045	-0.45
Mof_O 	O 	0.8654	0.8361	0.33965	-0.324
Mof_O 	O 	0.7359	0.6942	0.25045	-0.367
Mof_O 	O 	0.8361	0.8654	0.66035	-0.324
Mof_O 	O 	0.6942	0.7359	0.74955	-0.367
Mof_O 	O 	0.1639	0.1346	0.66035	-0.491
Mof_O 	O 	0.3058	0.2641	0.74955	-0.45
Mof_O 	O 	0.3654	0.6639	0.16035	-0.416
Mof_O 	O 	0.2359	0.8058	0.24955	-0.396
Mof_O 	O 	0.6346	0.3361	0.16035	-0.42
Mof_O 	O 	0.7641	0.1942	0.24955	-0.405
_end
