data_functionalizedCrystal
_audit_creation_method	'EQeq! by Chris Wilmer'
_symmetry_space_group_name_H-M	'P1'
_symmetry_Int_Tables_number	1
_symmetry_cell_setting	triclinic
loop_
_symmetry_equiv_pos_as_xyz
  x,y,z
_cell_length_a	22.1386
_cell_length_b	22.1386
_cell_length_c	36.2651
_cell_angle_alpha	90
_cell_angle_beta	90
_cell_angle_gamma	90
loop_
_atom_site_label
_atom_site_type_symbol
_atom_site_fract_x
_atom_site_fract_y
_atom_site_fract_z
_atom_site_charge
Mof_In	In	0.21649	0.50344	0.65404	4.096
Mof_In	In	0.15662	0.50044	0.73829	4.587
Mof_In	In	0.80831	0.98284	0.52189	4.486
Mof_O 	O 	0.3036	0.94336	0.97804	-1.189
Mof_O 	O 	0.20315	0.95456	0.98217	-1.118
Mof_O 	O 	0.18053	0.56794	0.77079	-1.085
Mof_O 	O 	0.27796	0.58559	0.75778	-1.106
Mof_O 	O 	0.1497	0.56449	0.65465	-1.001
Mof_O 	O 	0.10846	0.56012	0.71118	-1.096
Mof_O 	O 	0.77955	0.93489	0.60949	-1.017
Mof_O 	O 	0.84167	0.93115	0.5607	-1.138
Mof_O 	O 	0.15605	0.43541	0.65423	-1.025
Mof_O 	O 	0.11606	0.43313	0.71094	-1.116
Mof_O 	O 	0.77855	0.06165	0.60132	-1.038
Mof_O 	O 	0.84016	0.05163	0.55233	-1.081
Mof_O 	O 	0.88469	0.96124	0.4944	-1.083
Mof_O 	O 	0.0871	0.50167	0.77194	-1.004
Mof_O 	O 	0.04422	0.41103	0.79662	-0.364
Mof_O 	O 	0.22609	0.51759	0.70682	-2.25
Mof_O 	O 	0.20265	0.50897	0.60013	-0.842
Mof_N 	N 	0.21545	0.66294	0.4931	-0.206
Mof_C 	C 	0.11052	0.58179	0.67863	0.793
Mof_C 	C 	0.06475	0.62871	0.66861	-0.251
Mof_C 	C 	0.04825	0.63766	0.63171	0.088
Mof_H 	H 	0.06819	0.61029	0.61024	0.023
Mof_C 	C 	0.00579	0.6818	0.62202	-0.083
Mof_H 	H 	0.99442	0.68733	0.59318	0.043
Mof_C 	C 	0.97872	0.71889	0.64895	0.029
Mof_C 	C 	0.99307	0.70823	0.68616	-0.098
Mof_H 	H 	0.97289	0.7356	0.70766	0.051
Mof_C 	C 	0.03561	0.66367	0.69589	0.095
Mof_H 	H 	0.04657	0.65752	0.72476	0.019
Mof_C 	C 	0.82675	0.91444	0.59315	0.808
Mof_C 	C 	0.95673	0.80495	0.6066	-0.107
Mof_H 	H 	0.99809	0.79496	0.59204	0.042
Mof_C 	C 	0.92117	0.85243	0.59393	0.108
Mof_H 	H 	0.93669	0.87679	0.57013	0.012
Mof_C 	C 	0.86634	0.86773	0.61103	-0.272
Mof_C 	C 	0.84971	0.83517	0.64292	0.095
Mof_H 	H 	0.80803	0.84549	0.6571	0.006
Mof_C 	C 	0.88624	0.78735	0.65609	-0.104
Mof_H 	H 	0.87193	0.76231	0.6802	0.052
Mof_C 	C 	0.9397	0.77086	0.63741	0.04
Mof_C 	C 	0.22878	0.59932	0.7742	0.835
Mof_C 	C 	0.22756	0.65375	0.79854	-0.277
Mof_C 	C 	0.27656	0.69412	0.79893	0.106
Mof_H 	H 	0.31504	0.68676	0.78122	-0.004
Mof_C 	C 	0.27786	0.7433	0.82319	-0.099
Mof_H 	H 	0.31685	0.77284	0.8225	0.026
Mof_C 	C 	0.23061	0.7531	0.84849	0.035
Mof_C 	C 	0.18052	0.71379	0.84725	-0.105
Mof_H 	H 	0.14335	0.71932	0.86634	0.054
Mof_C 	C 	0.17882	0.66514	0.8224	0.104
Mof_H 	H 	0.13993	0.63546	0.82271	0.02
Mof_C 	C 	0.23517	0.80159	0.87733	0.04
Mof_C 	C 	0.18351	0.83178	0.89073	-0.107
Mof_H 	H 	0.13962	0.82309	0.87867	0.054
Mof_C 	C 	0.18776	0.87377	0.91978	0.102
Mof_H 	H 	0.14727	0.89661	0.92894	0.009
Mof_C 	C 	0.24373	0.88613	0.93656	-0.284
Mof_C 	C 	0.29535	0.8571	0.92238	0.105
Mof_H 	H 	0.33949	0.86579	0.93408	0.017
Mof_C 	C 	0.29134	0.8162	0.8931	-0.104
Mof_H 	H 	0.33248	0.79489	0.88362	0.062
Mof_C 	C 	0.25008	0.93048	0.96757	0.837
Mof_C 	C 	0.11856	0.41327	0.67778	0.761
Mof_C 	C 	0.07511	0.36347	0.66563	-0.239
Mof_C 	C 	0.07375	0.34427	0.62872	0.082
Mof_H 	H 	0.10437	0.36437	0.60896	0.019
Mof_C 	C 	0.03279	0.29996	0.61619	-0.101
Mof_H 	H 	0.03482	0.28954	0.58724	0.051
Mof_C 	C 	0.99079	0.27101	0.63988	0.037
Mof_C 	C 	0.99191	0.29092	0.67725	-0.087
Mof_H 	H 	0.96153	0.27187	0.69742	0.052
Mof_C 	C 	0.03274	0.3363	0.68974	0.073
Mof_H 	H 	0.03076	0.35017	0.7184	0.02
Mof_C 	C 	0.9471	0.22143	0.62546	0.035
Mof_C 	C 	0.95101	0.19841	0.58891	-0.097
Mof_H 	H 	0.98503	0.21393	0.5699	0.051
Mof_C 	C 	0.91138	0.15359	0.57534	0.083
Mof_H 	H 	0.91668	0.13868	0.54708	0.01
Mof_C 	C 	0.86584	0.12808	0.59746	-0.246
Mof_C 	C 	0.86142	0.14991	0.63395	0.081
Mof_H 	H 	0.82792	0.131	0.6524	0.007
Mof_C 	C 	0.90063	0.19572	0.64753	-0.096
Mof_H 	H 	0.89371	0.21039	0.6756	0.051
Mof_C 	C 	0.82553	0.07769	0.58279	0.756
Mof_C 	C 	0.06561	0.4563	0.78424	0.559
Mof_C 	C 	0.27383	0.64158	0.50692	-0.081
Mof_In	In	0.78377	0.49703	0.154	4.093
Mof_In	In	0.84306	0.49953	0.2382	4.549
Mof_In	In	0.1915	0.01656	0.02154	4.525
Mof_O 	O 	0.69609	0.05703	0.47856	-1.187
Mof_O 	O 	0.79656	0.04493	0.48256	-1.107
Mof_O 	O 	0.82016	0.43228	0.27106	-1.075
Mof_O 	O 	0.7227	0.41416	0.25728	-1.099
Mof_O 	O 	0.8512	0.43652	0.15409	-1.017
Mof_O 	O 	0.89089	0.43958	0.21104	-1.093
Mof_O 	O 	0.22061	0.06519	0.10884	-0.996
Mof_O 	O 	0.15786	0.06799	0.06028	-1.143
Mof_O 	O 	0.84496	0.56445	0.15424	-1.043
Mof_O 	O 	0.88398	0.56693	0.2111	-1.112
Mof_O 	O 	0.2214	0.93774	0.10083	-1.025
Mof_O 	O 	0.15959	0.94788	0.05189	-1.086
Mof_O 	O 	0.11489	0.03811	0.99415	-1.084
Mof_O 	O 	0.91251	0.49887	0.2719	-0.995
Mof_O 	O 	0.95462	0.58993	0.29653	-0.35
Mof_O 	O 	0.77306	0.4829	0.20681	-2.255
Mof_O 	O 	0.79299	0.49266	0.09969	-0.855
Mof_N 	N 	0.78136	0.33629	0.9927	-0.207
Mof_C 	C 	0.8897	0.41856	0.1783	0.791
Mof_C 	C 	0.93558	0.37156	0.16831	-0.253
Mof_C 	C 	0.95191	0.36239	0.13138	0.086
Mof_H 	H 	0.93189	0.38955	0.10987	0.017
Mof_C 	C 	0.9941	0.31801	0.12169	-0.078
Mof_H 	H 	0.0052	0.31219	0.09283	0.04
Mof_C 	C 	0.02112	0.28086	0.14857	0.026
Mof_C 	C 	0.0069	0.29156	0.18581	-0.101
Mof_H 	H 	0.02688	0.26393	0.20723	0.052
Mof_C 	C 	0.96459	0.33635	0.19558	0.098
Mof_H 	H 	0.95359	0.34237	0.22445	0.019
Mof_C 	C 	0.17306	0.08519	0.09259	0.805
Mof_C 	C 	0.04269	0.19456	0.10618	-0.106
Mof_H 	H 	0.00117	0.2044	0.09182	0.042
Mof_C 	C 	0.07833	0.14714	0.09345	0.106
Mof_H 	H 	0.06261	0.12253	0.06977	0.013
Mof_C 	C 	0.13339	0.13203	0.11043	-0.265
Mof_C 	C 	0.15013	0.1648	0.14216	0.095
Mof_H 	H 	0.19188	0.15464	0.1561	0.01
Mof_C 	C 	0.11359	0.21247	0.15542	-0.104
Mof_H 	H 	0.12803	0.23758	0.17948	0.052
Mof_C 	C 	0.05992	0.2288	0.1369	0.04
Mof_C 	C 	0.77202	0.40068	0.27409	0.816
Mof_C 	C 	0.77257	0.34622	0.29861	-0.267
Mof_C 	C 	0.72343	0.30592	0.29916	0.1
Mof_H 	H 	0.68502	0.31301	0.28132	-0.003
Mof_C 	C 	0.72201	0.25688	0.32361	-0.096
Mof_H 	H 	0.68308	0.22724	0.32305	0.023
Mof_C 	C 	0.76932	0.24708	0.3489	0.033
Mof_C 	C 	0.81949	0.28623	0.34748	-0.102
Mof_H 	H 	0.85682	0.28054	0.36644	0.054
Mof_C 	C 	0.82125	0.3348	0.32256	0.099
Mof_H 	H 	0.8602	0.36428	0.3227	0.022
Mof_C 	C 	0.7648	0.19873	0.37791	0.04
Mof_C 	C 	0.81637	0.16817	0.39115	-0.106
Mof_H 	H 	0.86013	0.17637	0.37884	0.054
Mof_C 	C 	0.81211	0.12639	0.42031	0.1
Mof_H 	H 	0.85253	0.10333	0.42941	0.01
Mof_C 	C 	0.75618	0.11434	0.43726	-0.28
Mof_C 	C 	0.70464	0.14377	0.42328	0.103
Mof_H 	H 	0.6605	0.13505	0.43487	0.006
Mof_C 	C 	0.7087	0.18462	0.39396	-0.104
Mof_H 	H 	0.66765	0.2062	0.38457	0.048
Mof_C 	C 	0.74972	0.0696	0.46811	0.831
Mof_C 	C 	0.88206	0.58666	0.17792	0.765
Mof_C 	C 	0.92554	0.6364	0.16586	-0.246
Mof_C 	C 	0.9266	0.65579	0.129	0.084
Mof_H 	H 	0.89584	0.63589	0.10927	0.011
Mof_C 	C 	0.96736	0.70016	0.11645	-0.1
Mof_H 	H 	0.96513	0.71053	0.0875	0.05
Mof_C 	C 	0.00942	0.72912	0.14009	0.036
Mof_C 	C 	0.00851	0.70918	0.17747	-0.092
Mof_H 	H 	0.03896	0.72824	0.19762	0.051
Mof_C 	C 	0.96787	0.66361	0.18995	0.077
Mof_H 	H 	0.96986	0.64969	0.21859	0.019
Mof_C 	C 	0.05289	0.77868	0.1255	0.034
Mof_C 	C 	0.04867	0.80149	0.08893	-0.097
Mof_H 	H 	0.01452	0.78594	0.07005	0.051
Mof_C 	C 	0.08817	0.84619	0.07515	0.082
Mof_H 	H 	0.08249	0.86117	0.04692	0.011
Mof_C 	C 	0.13397	0.87167	0.0971	-0.242
Mof_C 	C 	0.13849	0.85026	0.13368	0.08
Mof_H 	H 	0.17188	0.86957	0.15201	0.015
Mof_C 	C 	0.09939	0.80459	0.14746	-0.095
Mof_H 	H 	0.10636	0.7902	0.17556	0.05
Mof_C 	C 	0.17438	0.9218	0.08233	0.758
Mof_C 	C 	0.93364	0.54445	0.2842	0.554
Mof_C 	C 	0.72585	0.36015	0.00912	-0.083
Mof_In	In	0.99758	0.71605	0.40403	4.1
Mof_In	In	0.99963	0.65675	0.48832	4.589
Mof_In	In	0.51695	0.30875	0.27169	4.528
Mof_O 	O 	0.55671	0.80358	0.72804	-1.197
Mof_O 	O 	0.54575	0.7031	0.73245	-1.118
Mof_O 	O 	0.93247	0.67991	0.52106	-1.086
Mof_O 	O 	0.91415	0.77703	0.50716	-1.098
Mof_O 	O 	0.9371	0.64872	0.40423	-1.005
Mof_O 	O 	0.93961	0.609	0.46126	-1.098
Mof_O 	O 	0.56628	0.27933	0.35907	-1.021
Mof_O 	O 	0.56752	0.34283	0.31085	-1.142
Mof_O 	O 	0.0649	0.655	0.40433	-1.044
Mof_O 	O 	0.06714	0.61574	0.46111	-1.113
Mof_O 	O 	0.43877	0.27882	0.35104	-1.027
Mof_O 	O 	0.44809	0.34029	0.30196	-1.092
Mof_O 	O 	0.53833	0.38501	0.24419	-1.09
Mof_O 	O 	0.99884	0.58715	0.52187	-0.999
Mof_O 	O 	0.08973	0.54489	0.54683	-0.344
Mof_O 	O 	0.98329	0.7264	0.45681	-2.247
Mof_O 	O 	0.99391	0.70446	0.34991	-0.849
Mof_N 	N 	0.84236	0.71869	0.24312	-0.206
Mof_C 	C 	0.91886	0.61031	0.42844	0.791
Mof_C 	C 	0.87177	0.56473	0.41842	-0.251
Mof_C 	C 	0.86257	0.5485	0.38148	0.089
Mof_H 	H 	0.88966	0.56877	0.35996	0.022
Mof_C 	C 	0.81829	0.50622	0.37177	-0.088
Mof_H 	H 	0.81264	0.49498	0.34292	0.044
Mof_C 	C 	0.78116	0.47923	0.39867	0.031
Mof_C 	C 	0.79181	0.49351	0.4359	-0.099
Mof_H 	H 	0.76427	0.47347	0.45737	0.052
Mof_C 	C 	0.8365	0.53587	0.44567	0.094
Mof_H 	H 	0.84236	0.54708	0.47452	0.019
Mof_C 	C 	0.58538	0.3274	0.34301	0.812
Mof_C 	C 	0.69475	0.45769	0.35646	-0.107
Mof_H 	H 	0.7047	0.49913	0.34198	0.043
Mof_C 	C 	0.64705	0.42228	0.3439	0.109
Mof_H 	H 	0.6223	0.4381	0.32027	0.012
Mof_C 	C 	0.63206	0.36723	0.36085	-0.272
Mof_C 	C 	0.66496	0.35037	0.39249	0.098
Mof_H 	H 	0.65481	0.30856	0.40638	0.003
Mof_C 	C 	0.71281	0.38676	0.40565	-0.105
Mof_H 	H 	0.73809	0.37219	0.42963	0.053
Mof_C 	C 	0.72914	0.44041	0.38711	0.039
Mof_C 	C 	0.90078	0.72791	0.52402	0.827
Mof_C 	C 	0.84631	0.72721	0.54846	-0.272
Mof_C 	C 	0.80599	0.77624	0.54893	0.103
Mof_H 	H 	0.81317	0.81466	0.53114	-0.003
Mof_C 	C 	0.75694	0.77768	0.57334	-0.097
Mof_H 	H 	0.72736	0.81666	0.57273	0.026
Mof_C 	C 	0.7472	0.73042	0.59869	0.034
Mof_C 	C 	0.78638	0.68029	0.59737	-0.103
Mof_H 	H 	0.78077	0.64314	0.61643	0.054
Mof_C 	C 	0.83491	0.67848	0.57246	0.101
Mof_H 	H 	0.86445	0.63956	0.57268	0.021
Mof_C 	C 	0.69883	0.73507	0.62765	0.04
Mof_C 	C 	0.66858	0.68343	0.64104	-0.108
Mof_H 	H 	0.67702	0.63957	0.62887	0.053
Mof_C 	C 	0.62673	0.68766	0.67015	0.102
Mof_H 	H 	0.60389	0.64725	0.67934	0.007
Mof_C 	C 	0.61441	0.74361	0.68691	-0.285
Mof_C 	C 	0.64349	0.79527	0.67274	0.106
Mof_H 	H 	0.63447	0.83951	0.68417	0.015
Mof_C 	C 	0.68442	0.79124	0.64348	-0.104
Mof_H 	H 	0.70569	0.83231	0.63396	0.061
Mof_C 	C 	0.5698	0.75004	0.71779	0.839
Mof_C 	C 	0.08701	0.61782	0.42796	0.77
Mof_C 	C 	0.13676	0.57448	0.4159	-0.247
Mof_C 	C 	0.15622	0.57334	0.37905	0.085
Mof_H 	H 	0.13632	0.60412	0.35928	0.011
Mof_C 	C 	0.20052	0.5324	0.36654	-0.098
Mof_H 	H 	0.21089	0.53455	0.33759	0.05
Mof_C 	C 	0.22933	0.49029	0.39022	0.034
Mof_C 	C 	0.20929	0.49137	0.42758	-0.094
Mof_H 	H 	0.22821	0.46086	0.44775	0.05
Mof_C 	C 	0.16383	0.5322	0.44003	0.081
Mof_H 	H 	0.14976	0.53034	0.46864	0.018
Mof_C 	C 	0.27884	0.44663	0.37573	0.033
Mof_C 	C 	0.30162	0.45071	0.33914	-0.098
Mof_H 	H 	0.28609	0.48482	0.32023	0.049
Mof_C 	C 	0.3463	0.41124	0.32536	0.083
Mof_H 	H 	0.36117	0.41681	0.29709	0.009
Mof_C 	C 	0.37199	0.36563	0.34731	-0.245
Mof_C 	C 	0.3505	0.36095	0.38385	0.08
Mof_H 	H 	0.36978	0.32741	0.40212	0.016
Mof_C 	C 	0.30476	0.40004	0.39769	-0.095
Mof_H 	H 	0.29037	0.39303	0.4258	0.049
Mof_C 	C 	0.42234	0.32556	0.33247	0.763
Mof_C 	C 	0.04439	0.56596	0.53433	0.552
Mof_C 	C 	0.8614	0.77673	0.25854	-0.084
Mof_In	In	0.0038	0.28367	0.90362	4.104
Mof_In	In	0.00124	0.34298	0.988	4.541
Mof_In	In	0.48344	0.69125	0.77163	4.501
Mof_O 	O 	0.4431	0.19589	0.22882	-1.191
Mof_O 	O 	0.45482	0.29642	0.23255	-1.122
Mof_O 	O 	0.06759	0.3189	0.02135	-1.074
Mof_O 	O 	0.08672	0.22223	0.00694	-1.094
Mof_O 	O 	0.06456	0.35094	0.90365	-1.029
Mof_O 	O 	0.06137	0.39036	0.96065	-1.096
Mof_O 	O 	0.43535	0.7211	0.8591	-0.997
Mof_O 	O 	0.4321	0.65824	0.81055	-1.141
Mof_O 	O 	0.93668	0.34504	0.90411	-1.019
Mof_O 	O 	0.93339	0.38367	0.96113	-1.103
Mof_O 	O 	0.56283	0.72168	0.85087	-1.042
Mof_O 	O 	0.55208	0.65955	0.80223	-1.087
Mof_O 	O 	0.46163	0.61422	0.74457	-1.084
Mof_O 	O 	0.00398	0.41318	0.02114	-0.998
Mof_O 	O 	0.91511	0.45695	0.04754	-0.371
Mof_O 	O 	0.01702	0.27315	0.95651	-2.243
Mof_O 	O 	0.00358	0.29304	0.84916	-0.861
Mof_N 	N 	0.16858	0.28136	0.74391	-0.206
Mof_C 	C 	0.08242	0.38935	0.92792	0.798
Mof_C 	C 	0.1292	0.43548	0.91804	-0.258
Mof_C 	C 	0.13823	0.45223	0.88116	0.092
Mof_H 	H 	0.11115	0.43225	0.85959	0.012
Mof_C 	C 	0.18233	0.49479	0.87162	-0.09
Mof_H 	H 	0.18811	0.50618	0.8428	0.044
Mof_C 	C 	0.21932	0.52175	0.89862	0.033
Mof_C 	C 	0.20862	0.50726	0.9358	-0.1
Mof_H 	H 	0.23607	0.52731	0.9573	0.052
Mof_C 	C 	0.1641	0.46461	0.9454	0.096
Mof_H 	H 	0.15806	0.45344	0.97424	0.017
Mof_C 	C 	0.41511	0.67358	0.8429	0.803
Mof_C 	C 	0.30574	0.54325	0.85646	-0.105
Mof_H 	H 	0.29583	0.50178	0.84205	0.043
Mof_C 	C 	0.35328	0.57879	0.84385	0.106
Mof_H 	H 	0.37801	0.56291	0.82026	0.014
Mof_C 	C 	0.36829	0.63394	0.86079	-0.264
Mof_C 	C 	0.33545	0.65077	0.89246	0.094
Mof_H 	H 	0.34559	0.69261	0.90631	0.01
Mof_C 	C 	0.28776	0.61418	0.90569	-0.102
Mof_H 	H 	0.2626	0.62855	0.92976	0.051
Mof_C 	C 	0.27144	0.56054	0.88711	0.037
Mof_C 	C 	0.09971	0.27105	0.02414	0.818
Mof_C 	C 	0.15406	0.27187	0.0488	-0.268
Mof_C 	C 	0.19458	0.22291	0.04932	0.101
Mof_H 	H 	0.18753	0.18449	0.03155	-0.002
Mof_C 	C 	0.24359	0.22163	0.07379	-0.096
Mof_H 	H 	0.27329	0.18271	0.07328	0.025
Mof_C 	C 	0.25322	0.26891	0.0991	0.033
Mof_C 	C 	0.214	0.31903	0.09769	-0.102
Mof_H 	H 	0.21967	0.35635	0.11663	0.053
Mof_C 	C 	0.16533	0.32055	0.0728	0.099
Mof_H 	H 	0.13562	0.35939	0.07305	0.021
Mof_C 	C 	0.30134	0.26426	0.12819	0.041
Mof_C 	C 	0.33223	0.31574	0.14121	-0.108
Mof_H 	H 	0.32442	0.35941	0.12867	0.054
Mof_C 	C 	0.37389	0.31152	0.17041	0.103
Mof_H 	H 	0.39732	0.35184	0.1793	0.008
Mof_C 	C 	0.38547	0.25571	0.18761	-0.285
Mof_C 	C 	0.35565	0.20417	0.17389	0.106
Mof_H 	H 	0.36387	0.1601	0.18582	0.014
Mof_C 	C 	0.31487	0.20823	0.14451	-0.105
Mof_H 	H 	0.29299	0.1673	0.13527	0.061
Mof_C 	C 	0.43025	0.2494	0.21834	0.839
Mof_C 	C 	0.91392	0.38171	0.92788	0.758
Mof_C 	C 	0.86389	0.42484	0.91582	-0.238
Mof_C 	C 	0.8445	0.42595	0.87893	0.08
Mof_H 	H 	0.86442	0.39518	0.85919	0.024
Mof_C 	C 	0.80013	0.4668	0.86637	-0.094
Mof_H 	H 	0.78971	0.46465	0.83743	0.051
Mof_C 	C 	0.77118	0.50883	0.89005	0.032
Mof_C 	C 	0.79103	0.50769	0.92743	-0.092
Mof_H 	H 	0.77191	0.53806	0.94762	0.051
Mof_C 	C 	0.83648	0.46693	0.93994	0.077
Mof_H 	H 	0.85019	0.46875	0.96862	0.019
Mof_C 	C 	0.72158	0.55245	0.87561	0.035
Mof_C 	C 	0.69863	0.54844	0.83905	-0.099
Mof_H 	H 	0.71421	0.51442	0.82009	0.05
Mof_C 	C 	0.65387	0.58806	0.82542	0.084
Mof_H 	H 	0.63875	0.58245	0.79721	0.008
Mof_C 	C 	0.6285	0.63379	0.8474	-0.247
Mof_C 	C 	0.65004	0.63813	0.88401	0.081
Mof_H 	H 	0.63077	0.67136	0.90248	0.007
Mof_C 	C 	0.69574	0.59889	0.89766	-0.097
Mof_H 	H 	0.71031	0.60575	0.92575	0.049
Mof_C 	C 	0.57843	0.67443	0.8326	0.761
Mof_C 	C 	0.95948	0.43509	0.03429	0.565
Mof_C 	C 	0.14163	0.22611	0.7586	-0.083
Mof_In	In	0.2835	0.00329	0.09567	4.1
Mof_In	In	0.34315	0.00066	0.01149	4.577
Mof_In	In	0.69189	0.48333	0.22796	4.512
Mof_O 	O 	0.19605	0.44257	0.77127	-1.195
Mof_O 	O 	0.29647	0.45449	0.76726	-1.111
Mof_O 	O 	0.32019	0.0688	0.97937	-1.085
Mof_O 	O 	0.2225	0.08584	0.99237	-1.108
Mof_O 	O 	0.35082	0.06397	0.09561	-1.018
Mof_O 	O 	0.3909	0.06051	0.03875	-1.097
Mof_O 	O 	0.72101	0.4353	0.14039	-0.993
Mof_O 	O 	0.65811	0.43184	0.18886	-1.129
Mof_O 	O 	0.34527	0.93639	0.09586	-1.041
Mof_O 	O 	0.38427	0.93363	0.03899	-1.111
Mof_O 	O 	0.72166	0.56242	0.14872	-1.026
Mof_O 	O 	0.66004	0.55225	0.19787	-1.09
Mof_O 	O 	0.61469	0.46146	0.25522	-1.073
Mof_O 	O 	0.41277	0.00098	0.97794	-1.002
Mof_O 	O 	0.45488	0.90975	0.95351	-0.352
Mof_O 	O 	0.27315	0.01635	0.04283	-2.26
Mof_O 	O 	0.29183	0.00787	0.15	-0.861
Mof_N 	N 	0.28188	0.16803	0.26225	-0.206
Mof_C 	C 	0.38953	0.08169	0.07145	0.793
Mof_C 	C 	0.43553	0.12858	0.08139	-0.254
Mof_C 	C 	0.4522	0.13771	0.11827	0.09
Mof_H 	H 	0.43225	0.11062	0.13985	0.015
Mof_C 	C 	0.49468	0.18192	0.12782	-0.089
Mof_H 	H 	0.50603	0.18767	0.15665	0.044
Mof_C 	C 	0.52162	0.21899	0.10084	0.033
Mof_C 	C 	0.50709	0.20823	0.06365	-0.099
Mof_H 	H 	0.52704	0.23566	0.04213	0.053
Mof_C 	C 	0.4645	0.16362	0.05404	0.095
Mof_H 	H 	0.45326	0.15759	0.02521	0.019
Mof_C 	C 	0.67351	0.41497	0.15655	0.8
Mof_C 	C 	0.54384	0.30489	0.14338	-0.104
Mof_H 	H 	0.50272	0.29467	0.15809	0.042
Mof_C 	C 	0.57945	0.35236	0.15599	0.104
Mof_H 	H 	0.56406	0.37649	0.17992	0.014
Mof_C 	C 	0.63403	0.36807	0.13864	-0.263
Mof_C 	C 	0.6503	0.33583	0.10659	0.093
Mof_H 	H 	0.69158	0.34653	0.09218	0.011
Mof_C 	C 	0.61367	0.28806	0.09345	-0.101
Mof_H 	H 	0.62761	0.26339	0.06911	0.051
Mof_C 	C 	0.56054	0.2711	0.11238	0.037
Mof_C 	C 	0.27177	0.09988	0.97598	0.83
Mof_C 	C 	0.27244	0.15423	0.95148	-0.274
Mof_C 	C 	0.22314	0.19432	0.95073	0.103
Mof_H 	H 	0.18468	0.18718	0.96851	-0.005
Mof_C 	C 	0.22164	0.24309	0.92611	-0.098
Mof_H 	H 	0.18258	0.2726	0.92645	0.024
Mof_C 	C 	0.269	0.25278	0.90089	0.034
Mof_C 	C 	0.31931	0.21386	0.90246	-0.104
Mof_H 	H 	0.35662	0.21951	0.88348	0.054
Mof_C 	C 	0.32115	0.16553	0.92752	0.102
Mof_H 	H 	0.36015	0.13607	0.92743	0.02
Mof_C 	C 	0.26448	0.30085	0.87182	0.039
Mof_C 	C 	0.31594	0.33211	0.85909	-0.107
Mof_H 	H 	0.35948	0.32453	0.87186	0.053
Mof_C 	C 	0.31185	0.37377	0.82987	0.101
Mof_H 	H 	0.35221	0.3973	0.82111	0.008
Mof_C 	C 	0.25608	0.38521	0.81254	-0.284
Mof_C 	C 	0.20461	0.35513	0.82608	0.103
Mof_H 	H 	0.16064	0.36316	0.81401	0.006
Mof_C 	C 	0.20859	0.31406	0.85525	-0.105
Mof_H 	H 	0.16772	0.29166	0.86416	0.049
Mof_C 	C 	0.24964	0.4299	0.78172	0.834
Mof_C 	C 	0.38259	0.91427	0.07227	0.765
Mof_C 	C 	0.4264	0.86483	0.08449	-0.245
Mof_C 	C 	0.42655	0.84448	0.12118	0.083
Mof_H 	H 	0.39516	0.86377	0.14076	0.012
Mof_C 	C 	0.46711	0.79984	0.13372	-0.097
Mof_H 	H 	0.46413	0.78866	0.16254	0.05
Mof_C 	C 	0.5098	0.77151	0.11022	0.033
Mof_C 	C 	0.50995	0.79258	0.07308	-0.094
Mof_H 	H 	0.5409	0.77408	0.05301	0.05
Mof_C 	C 	0.46979	0.83861	0.06068	0.079
Mof_H 	H 	0.47295	0.85355	0.03228	0.018
Mof_C 	C 	0.55302	0.7216	0.12466	0.033
Mof_C 	C 	0.54881	0.69853	0.16119	-0.097
Mof_H 	H 	0.51474	0.71404	0.18014	0.049
Mof_C 	C 	0.58833	0.65367	0.17481	0.081
Mof_H 	H 	0.58271	0.6385	0.20302	0.01
Mof_C 	C 	0.63411	0.62837	0.15276	-0.241
Mof_C 	C 	0.63844	0.64989	0.11621	0.079
Mof_H 	H 	0.67172	0.63062	0.0978	0.014
Mof_C 	C 	0.59934	0.69564	0.10258	-0.095
Mof_H 	H 	0.60619	0.70997	0.07447	0.049
Mof_C 	C 	0.67474	0.57834	0.16742	0.753
Mof_C 	C 	0.4339	0.9553	0.96575	0.555
Mof_C 	C 	0.22859	0.1416	0.24484	-0.083
Mof_In	In	0.71624	0.99614	0.59592	4.095
Mof_In	In	0.65655	0.99929	0.51164	4.571
Mof_In	In	0.30818	0.51689	0.72796	4.504
Mof_O 	O 	0.80335	0.55745	0.27106	-1.187
Mof_O 	O 	0.70293	0.54547	0.26714	-1.119
Mof_O 	O 	0.67983	0.93142	0.47933	-1.082
Mof_O 	O 	0.7772	0.91378	0.49268	-1.104
Mof_O 	O 	0.64972	0.93482	0.59521	-1.003
Mof_O 	O 	0.60844	0.93954	0.53872	-1.095
Mof_O 	O 	0.27978	0.56462	0.64038	-1.017
Mof_O 	O 	0.34176	0.56813	0.68923	-1.146
Mof_O 	O 	0.6546	0.06308	0.59614	-1.02
Mof_O 	O 	0.61524	0.06602	0.53928	-1.108
Mof_O 	O 	0.27909	0.4383	0.64883	-1.045
Mof_O 	O 	0.34074	0.44835	0.69774	-1.092
Mof_O 	O 	0.38472	0.53845	0.75519	-1.086
Mof_O 	O 	0.58716	0.99835	0.47781	-1.001
Mof_O 	O 	0.54416	0.08914	0.45341	-0.364
Mof_O 	O 	0.72634	0.98319	0.54307	-2.248
Mof_O 	O 	0.70299	0.99099	0.6499	-0.847
Mof_N 	N 	0.71773	0.83666	0.75884	-0.206
Mof_C 	C 	0.61043	0.91778	0.57125	0.793
Mof_C 	C 	0.56437	0.87115	0.58128	-0.252
Mof_C 	C 	0.54739	0.86269	0.61815	0.09
Mof_H 	H 	0.56693	0.89047	0.63956	0.022
Mof_C 	C 	0.50502	0.81849	0.62789	-0.088
Mof_H 	H 	0.49343	0.81314	0.65672	0.044
Mof_C 	C 	0.47835	0.78104	0.60101	0.032
Mof_C 	C 	0.4928	0.79152	0.56379	-0.099
Mof_H 	H 	0.47272	0.76401	0.54231	0.052
Mof_C 	C 	0.53535	0.83602	0.55404	0.094
Mof_H 	H 	0.54644	0.842	0.52519	0.019
Mof_C 	C 	0.32701	0.58489	0.65678	0.811
Mof_C 	C 	0.45673	0.69501	0.64344	-0.106
Mof_H 	H 	0.49798	0.70525	0.65804	0.042
Mof_C 	C 	0.42132	0.64738	0.65609	0.108
Mof_H 	H 	0.43674	0.62319	0.67994	0.012
Mof_C 	C 	0.36665	0.63168	0.63891	-0.271
Mof_C 	C 	0.35009	0.66406	0.60694	0.095
Mof_H 	H 	0.30861	0.65335	0.59268	0.007
Mof_C 	C 	0.38637	0.71209	0.5938	-0.104
Mof_H 	H 	0.37207	0.73703	0.56964	0.052
Mof_C 	C 	0.43963	0.72891	0.61257	0.039
Mof_C 	C 	0.72813	0.90006	0.47609	0.83
Mof_C 	C 	0.7274	0.84579	0.45153	-0.275
Mof_C 	C 	0.77668	0.80568	0.45072	0.104
Mof_H 	H 	0.81532	0.81289	0.46838	-0.003
Mof_C 	C 	0.77814	0.75694	0.42606	-0.098
Mof_H 	H 	0.81726	0.72748	0.42634	0.026
Mof_C 	C 	0.73075	0.74731	0.40083	0.034
Mof_C 	C 	0.6805	0.78634	0.40244	-0.104
Mof_H 	H 	0.64319	0.78089	0.38344	0.054
Mof_C 	C 	0.67875	0.83463	0.42755	0.102
Mof_H 	H 	0.63993	0.86431	0.4274	0.02
Mof_C 	C 	0.7353	0.69936	0.37168	0.04
Mof_C 	C 	0.68385	0.66803	0.35898	-0.107
Mof_H 	H 	0.64035	0.67544	0.37186	0.053
Mof_C 	C 	0.68793	0.62639	0.32974	0.101
Mof_H 	H 	0.64764	0.60266	0.32108	0.008
Mof_C 	C 	0.74356	0.61514	0.31225	-0.283
Mof_C 	C 	0.79506	0.64532	0.32574	0.105
Mof_H 	H 	0.83905	0.63727	0.31367	0.016
Mof_C 	C 	0.79113	0.68621	0.35506	-0.104
Mof_H 	H 	0.83209	0.70839	0.36407	0.062
Mof_C 	C 	0.74982	0.57027	0.28149	0.833
Mof_C 	C 	0.61706	0.08517	0.57262	0.759
Mof_C 	C 	0.5731	0.13439	0.58496	-0.239
Mof_C 	C 	0.57291	0.15477	0.62165	0.081
Mof_H 	H 	0.60418	0.13544	0.6413	0.02
Mof_C 	C 	0.53252	0.19966	0.63408	-0.094
Mof_H 	H 	0.53558	0.21115	0.66286	0.051
Mof_C 	C 	0.4899	0.22798	0.6105	0.032
Mof_C 	C 	0.4898	0.20679	0.5734	-0.092
Mof_H 	H 	0.45898	0.22534	0.55329	0.051
Mof_C 	C 	0.52995	0.16073	0.56106	0.077
Mof_H 	H 	0.5272	0.14605	0.53259	0.021
Mof_C 	C 	0.4468	0.27815	0.62476	0.035
Mof_C 	C 	0.45102	0.30138	0.66125	-0.099
Mof_H 	H 	0.48495	0.28587	0.68028	0.05
Mof_C 	C 	0.41166	0.34636	0.67478	0.084
Mof_H 	H 	0.41715	0.36153	0.70293	0.009
Mof_C 	C 	0.36617	0.37188	0.65262	-0.249
Mof_C 	C 	0.36161	0.35008	0.61616	0.083
Mof_H 	H 	0.32828	0.36924	0.59765	0.005
Mof_C 	C 	0.40058	0.30414	0.60261	-0.098
Mof_H 	H 	0.39371	0.28955	0.57452	0.05
Mof_C 	C 	0.32618	0.42233	0.66737	0.761
Mof_C 	C 	0.56559	0.04377	0.46564	0.562
Mof_C 	C 	0.77256	0.86217	0.74252	-0.082
Mof_In	In	0.50411	0.21657	0.34611	4.121
Mof_In	In	0.50129	0.15694	0.26185	4.576
Mof_In	In	0.98329	0.80845	0.47794	4.486
Mof_O 	O 	0.94289	0.30396	0.02085	-1.179
Mof_O 	O 	0.95494	0.20345	0.01708	-1.102
Mof_O 	O 	0.56821	0.18076	0.22886	-1.082
Mof_O 	O 	0.58669	0.27771	0.24279	-1.105
Mof_O 	O 	0.5648	0.14922	0.34618	-1.033
Mof_O 	O 	0.56133	0.10963	0.28923	-1.102
Mof_O 	O 	0.9358	0.77875	0.3902	-0.997
Mof_O 	O 	0.93206	0.84144	0.43882	-1.135
Mof_O 	O 	0.43728	0.1548	0.34601	-1.024
Mof_O 	O 	0.4339	0.11599	0.28902	-1.111
Mof_O 	O 	0.06293	0.7783	0.39881	-1.042
Mof_O 	O 	0.05194	0.84035	0.44745	-1.083
Mof_O 	O 	0.96127	0.8849	0.50522	-1.083
Mof_O 	O 	0.50393	0.08688	0.22857	-1.002
Mof_O 	O 	0.41502	0.04279	0.2024	-0.372
Mof_O 	O 	0.5168	0.22699	0.29316	-2.256
Mof_O 	O 	0.50431	0.20828	0.40065	-0.861
Mof_N 	N 	0.65958	0.21699	0.51247	-0.206
Mof_C 	C 	0.58247	0.11069	0.32193	0.802
Mof_C 	C 	0.62916	0.06446	0.33174	-0.258
Mof_C 	C 	0.63803	0.04728	0.36855	0.09
Mof_H 	H 	0.61083	0.06699	0.39016	0.013
Mof_C 	C 	0.68212	0.00463	0.37796	-0.08
Mof_H 	H 	0.68782	0.99299	0.40675	0.039
Mof_C 	C 	0.71918	0.97793	0.35089	0.028
Mof_C 	C 	0.70845	0.99271	0.31375	-0.102
Mof_H 	H 	0.73578	0.97277	0.29215	0.052
Mof_C 	C 	0.66403	0.03554	0.30429	0.1
Mof_H 	H 	0.65799	0.04698	0.27549	0.018
Mof_C 	C 	0.91531	0.82617	0.40642	0.799
Mof_C 	C 	0.80518	0.95596	0.39325	-0.105
Mof_H 	H 	0.79491	0.99707	0.40795	0.041
Mof_C 	C 	0.85268	0.92039	0.40584	0.105
Mof_H 	H 	0.8768	0.93586	0.42975	0.013
Mof_C 	C 	0.86842	0.86576	0.38851	-0.264
Mof_C 	C 	0.83622	0.84952	0.35644	0.093
Mof_H 	H 	0.84699	0.80831	0.34199	0.01
Mof_C 	C 	0.78837	0.88605	0.34334	-0.102
Mof_H 	H 	0.76367	0.87205	0.319	0.051
Mof_C 	C 	0.77139	0.93914	0.36231	0.039
Mof_C 	C 	0.59996	0.22881	0.2258	0.826
Mof_C 	C 	0.65428	0.22804	0.20112	-0.272
Mof_C 	C 	0.69466	0.2771	0.20045	0.103
Mof_H 	H 	0.68761	0.31557	0.2182	-0.004
Mof_C 	C 	0.7435	0.27844	0.17586	-0.097
Mof_H 	H 	0.77314	0.31742	0.17623	0.026
Mof_C 	C 	0.75308	0.23109	0.15058	0.034
Mof_C 	C 	0.71401	0.18088	0.15215	-0.103
Mof_H 	H 	0.71966	0.14354	0.13323	0.054
Mof_C 	C 	0.6655	0.1793	0.17714	0.101
Mof_H 	H 	0.63584	0.14045	0.17696	0.021
Mof_C 	C 	0.80101	0.23568	0.12138	0.04
Mof_C 	C 	0.83216	0.18424	0.10853	-0.107
Mof_H 	H 	0.82466	0.14069	0.12128	0.054
Mof_C 	C 	0.8737	0.18839	0.07926	0.101
Mof_H 	H 	0.89732	0.1481	0.07051	0.01
Mof_C 	C 	0.88507	0.24415	0.06193	-0.281
Mof_C 	C 	0.85501	0.29564	0.07548	0.105
Mof_H 	H 	0.86323	0.33969	0.06356	0.014
Mof_C 	C 	0.81416	0.2916	0.10481	-0.104
Mof_H 	H 	0.79196	0.33248	0.1139	0.061
Mof_C 	C 	0.93008	0.25042	0.03129	0.829
Mof_C 	C 	0.41463	0.11787	0.32232	0.76
Mof_C 	C 	0.36477	0.07455	0.33449	-0.238
Mof_C 	C 	0.34482	0.07395	0.37128	0.081
Mof_H 	H 	0.36441	0.10506	0.39094	0.022
Mof_C 	C 	0.30024	0.03326	0.38379	-0.098
Mof_H 	H 	0.28934	0.03581	0.41265	0.051
Mof_C 	C 	0.27161	0.99094	0.36014	0.035
Mof_C 	C 	0.29207	0.99155	0.3229	-0.089
Mof_H 	H 	0.27315	0.96104	0.30272	0.051
Mof_C 	C 	0.33786	0.03194	0.31048	0.074
Mof_H 	H 	0.35209	0.02952	0.28192	0.019
Mof_C 	C 	0.22176	0.94749	0.37445	0.035
Mof_C 	C 	0.19862	0.95148	0.41096	-0.098
Mof_H 	H 	0.21421	0.98537	0.42999	0.051
Mof_C 	C 	0.15372	0.9119	0.42446	0.084
Mof_H 	H 	0.13849	0.91741	0.45265	0.009
Mof_C 	C 	0.12843	0.86625	0.4024	-0.246
Mof_C 	C 	0.15008	0.86199	0.36582	0.082
Mof_H 	H 	0.13087	0.82881	0.34729	0.008
Mof_C 	C 	0.1959	0.90118	0.3523	-0.097
Mof_H 	H 	0.21053	0.89435	0.32422	0.05
Mof_C 	C 	0.0784	0.82554	0.41712	0.762
Mof_C 	C 	0.45939	0.06482	0.21555	0.564
Mof_C 	C 	0.63837	0.27141	0.49383	-0.082
Mof_In	In	0.4973	0.78379	0.84559	4.102
Mof_In	In	0.49954	0.84312	0.76137	4.589
Mof_In	In	0.01717	0.19139	0.97782	4.469
Mof_O 	O 	0.05726	0.69634	0.52128	-1.196
Mof_O 	O 	0.04563	0.79675	0.5171	-1.113
Mof_O 	O 	0.43164	0.82005	0.72916	-1.086
Mof_O 	O 	0.41426	0.72248	0.74233	-1.1
Mof_O 	O 	0.43697	0.85135	0.8455	-1.005
Mof_O 	O 	0.43983	0.8911	0.7885	-1.099
Mof_O 	O 	0.06573	0.22092	0.89022	-1.019
Mof_O 	O 	0.06779	0.15767	0.9385	-1.133
Mof_O 	O 	0.56424	0.84524	0.84565	-1.045
Mof_O 	O 	0.56711	0.88394	0.78873	-1.112
Mof_O 	O 	0.93853	0.22134	0.8987	-1.019
Mof_O 	O 	0.94808	0.15976	0.94776	-1.077
Mof_O 	O 	0.03855	0.11463	0.00505	-1.077
Mof_O 	O 	0.49888	0.91278	0.72786	-1
Mof_O 	O 	0.58984	0.95535	0.70321	-0.344
Mof_O 	O 	0.48348	0.77331	0.79277	-2.25
Mof_O 	O 	0.49318	0.79404	0.8998	-0.846
Mof_N 	N 	0.33774	0.7875	0.01015	-0.203
Mof_C 	C 	0.41899	0.88989	0.82129	0.791
Mof_C 	C 	0.37209	0.93577	0.8312	-0.251
Mof_C 	C 	0.36333	0.95277	0.86804	0.087
Mof_H 	H 	0.39083	0.9331	0.88956	0.022
Mof_C 	C 	0.3189	0.99501	0.87764	-0.081
Mof_H 	H 	0.3134	0.00661	0.90645	0.041
Mof_C 	C 	0.28143	0.02144	0.85069	0.028
Mof_C 	C 	0.29197	0.00673	0.81351	-0.099
Mof_H 	H 	0.26436	0.02649	0.79198	0.052
Mof_C 	C 	0.33662	0.96421	0.80388	0.096
Mof_H 	H 	0.3423	0.95261	0.77508	0.02
Mof_C 	C 	0.0852	0.17304	0.90627	0.809
Mof_C 	C 	0.19534	0.04336	0.8931	-0.107
Mof_H 	H 	0.20571	0.00229	0.90788	0.042
Mof_C 	C 	0.14759	0.07871	0.90563	0.108
Mof_H 	H 	0.12335	0.06321	0.9295	0.012
Mof_C 	C 	0.13189	0.13329	0.88836	-0.271
Mof_C 	C 	0.16411	0.1496	0.85628	0.096
Mof_H 	H 	0.15322	0.19082	0.84176	0.004
Mof_C 	C 	0.21215	0.11324	0.84322	-0.104
Mof_H 	H 	0.23696	0.12732	0.81896	0.052
Mof_C 	C 	0.22923	0.0602	0.86217	0.04
Mof_C 	C 	0.40038	0.77181	0.72586	0.828
Mof_C 	C 	0.34588	0.77254	0.70142	-0.273
Mof_C 	C 	0.30566	0.72343	0.70078	0.104
Mof_H 	H 	0.31278	0.68496	0.71854	-0.004
Mof_C 	C 	0.25679	0.72197	0.67622	-0.098
Mof_H 	H 	0.22731	0.68289	0.6766	0.026
Mof_C 	C 	0.24712	0.76931	0.65095	0.034
Mof_C 	C 	0.2861	0.81958	0.65246	-0.104
Mof_H 	H 	0.28046	0.85679	0.63344	0.054
Mof_C 	C 	0.3345	0.82136	0.67748	0.102
Mof_H 	H 	0.36401	0.8603	0.67734	0.021
Mof_C 	C 	0.19901	0.76463	0.62186	0.04
Mof_C 	C 	0.16787	0.81609	0.60901	-0.107
Mof_H 	H 	0.17547	0.8597	0.62173	0.054
Mof_C 	C 	0.1262	0.81195	0.57979	0.102
Mof_H 	H 	0.10271	0.8522	0.571	0.008
Mof_C 	C 	0.11477	0.75627	0.56249	-0.284
Mof_C 	C 	0.14473	0.70469	0.57616	0.105
Mof_H 	H 	0.13657	0.66061	0.56422	0.017
Mof_C 	C 	0.18567	0.70867	0.60543	-0.104
Mof_H 	H 	0.20776	0.66777	0.61454	0.061
Mof_C 	C 	0.07008	0.74988	0.53162	0.838
Mof_C 	C 	0.58656	0.88225	0.82199	0.769
Mof_C 	C 	0.63618	0.92577	0.83414	-0.246
Mof_C 	C 	0.65576	0.92679	0.87099	0.085
Mof_H 	H 	0.63592	0.89593	0.89072	0.01
Mof_C 	C 	0.70021	0.96763	0.88348	-0.103
Mof_H 	H 	0.71075	0.9653	0.91241	0.05
Mof_C 	C 	0.72898	0.00976	0.85981	0.038
Mof_C 	C 	0.70879	0.00883	0.82248	-0.09
Mof_H 	H 	0.72771	0.03932	0.8023	0.051
Mof_C 	C 	0.66323	0.96811	0.81004	0.075
Mof_H 	H 	0.6492	0.96994	0.78142	0.02
Mof_C 	C 	0.77861	0.05336	0.87424	0.033
Mof_C 	C 	0.80149	0.04933	0.9108	-0.096
Mof_H 	H 	0.78598	0.01524	0.92974	0.05
Mof_C 	C 	0.84624	0.08883	0.92452	0.082
Mof_H 	H 	0.8612	0.08331	0.95276	0.011
Mof_C 	C 	0.87184	0.13443	0.90251	-0.24
Mof_C 	C 	0.85028	0.139	0.86598	0.079
Mof_H 	H 	0.86952	0.17249	0.84766	0.018
Mof_C 	C 	0.80451	0.09989	0.85223	-0.094
Mof_H 	H 	0.7901	0.10684	0.82412	0.05
Mof_C 	C 	0.92225	0.1745	0.91727	0.756
Mof_C 	C 	0.54446	0.93414	0.71556	0.553
Mof_C 	C 	0.35786	0.7288	0.99636	-0.091
Mof_C 	C 	0.92187	0.92197	0.49976	0.855
Mof_C 	C 	0.07779	0.07743	0.99964	0.852
Mof_C 	C 	0.5776	0.42216	0.24969	0.855
Mof_C 	C 	0.42197	0.57753	0.74979	0.867
Mof_H 	H 	0.24068	0.49557	0.58826	0.223
Mof_H 	H 	0.21704	0.66756	0.4644	0.064
Mof_H 	H 	0.20513	0.70491	0.50476	0.065
Mof_H 	H 	0.30781	0.64044	0.48433	0.04
Mof_H 	H 	0.26956	0.59528	0.51858	0.047
Mof_H 	H 	0.29091	0.67221	0.52885	0.041
Mof_H 	H 	0.83449	0.50659	0.09418	0.245
Mof_H 	H 	0.78836	0.29183	0.0015	0.067
Mof_H 	H 	0.81823	0.3628	0.0007	0.08
Mof_H 	H 	0.69765	0.3227	0.0202	0.041
Mof_H 	H 	0.69898	0.38506	0.98811	0.043
Mof_H 	H 	0.73664	0.39166	0.0321	0.057
Mof_H 	H 	0.03638	0.70181	0.34138	0.23
Mof_H 	H 	0.84205	0.72112	0.21432	0.068
Mof_H 	H 	0.79887	0.70813	0.2524	0.065
Mof_H 	H 	0.88708	0.80311	0.23763	0.043
Mof_H 	H 	0.89095	0.76951	0.28296	0.055
Mof_H 	H 	0.8214	0.8037	0.26724	0.04
Mof_H 	H 	0.04498	0.30481	0.84157	0.252
Mof_H 	H 	0.20722	0.29241	0.75903	0.067
Mof_H 	H 	0.13752	0.31685	0.74574	0.074
Mof_H 	H 	0.17715	0.19689	0.77093	0.039
Mof_H 	H 	0.11862	0.20054	0.73623	0.042
Mof_H 	H 	0.10783	0.23712	0.78028	0.046
Mof_H 	H 	0.33324	0.99393	0.15573	0.249
Mof_H 	H 	0.31529	0.13504	0.26508	0.076
Mof_H 	H 	0.27058	0.185	0.28827	0.066
Mof_H 	H 	0.22384	0.09334	0.25279	0.048
Mof_H 	H 	0.23272	0.14416	0.21439	0.05
Mof_H 	H 	0.1872	0.16629	0.25347	0.04
Mof_H 	H 	0.74108	0.00446	0.66169	0.23
Mof_H 	H 	0.67981	0.85097	0.74405	0.076
Mof_H 	H 	0.7135	0.85105	0.78618	0.068
Mof_H 	H 	0.76302	0.87986	0.71441	0.048
Mof_H 	H 	0.80845	0.82713	0.74043	0.039
Mof_H 	H 	0.78994	0.9	0.75971	0.042
Mof_H 	H 	0.54554	0.1958	0.40813	0.252
Mof_H 	H 	0.63806	0.21286	0.53795	0.073
Mof_H 	H 	0.7062	0.21984	0.5167	0.062
Mof_H 	H 	0.58937	0.27822	0.49911	0.047
Mof_H 	H 	0.6456	0.26715	0.46368	0.042
Mof_H 	H 	0.66349	0.31161	0.50394	0.04
Mof_H 	H 	0.53549	0.79806	0.90843	0.228
Mof_H 	H 	0.30538	0.80577	0.99241	0.064
Mof_H 	H 	0.37437	0.81707	0.01179	0.081
Mof_H 	H 	0.34745	0.72428	0.96655	0.048
Mof_H 	H 	0.33445	0.69172	0.01124	0.044
Mof_H 	H 	0.40735	0.72327	0.00045	0.052
Mof_H 	H 	0.6498	0.17908	0.49638	0.072
Mof_H 	H 	0.77796	0.33686	0.96394	0.068
Mof_H 	H 	0.18069	0.27492	0.71633	0.065
Mof_H 	H 	0.87224	0.68478	0.25142	0.083
Mof_H 	H 	0.18149	0.63212	0.50002	0.08
Mof_H 	H 	0.29864	0.20314	0.24593	0.066
Mof_H 	H 	0.71976	0.78946	0.75833	0.063
Mof_H 	H 	0.31863	0.78268	0.03632	0.063
_end
