data_functionalizedCrystal
_audit_creation_method	'EQeq! by Chris Wilmer'
_symmetry_space_group_name_H-M	'P1'
_symmetry_Int_Tables_number	1
_symmetry_cell_setting	triclinic
loop_
_symmetry_equiv_pos_as_xyz
  x,y,z
_cell_length_a	13.38
_cell_length_b	17.64
_cell_length_c	21.46
_cell_angle_alpha	90
_cell_angle_beta	90
_cell_angle_gamma	90
loop_
_atom_site_label
_atom_site_type_symbol
_atom_site_fract_x
_atom_site_fract_y
_atom_site_fract_z
_atom_site_charge
Mof_Cd	Cd	0.70294	0.87222	0.14313	0.504
Mof_Cd	Cd	0.67052	0.05659	0.23425	0.519
Mof_Cd	Cd	0.85288	0.19928	0.21988	0.483
Mof_Cd	Cd	0.29706	0.12778	0.64313	0.502
Mof_Cd	Cd	0.32948	0.94341	0.73425	0.517
Mof_Cd	Cd	0.14712	0.80072	0.71988	0.482
Mof_Cd	Cd	0.79706	0.37222	0.14313	0.503
Mof_Cd	Cd	0.82948	0.55659	0.23425	0.518
Mof_Cd	Cd	0.64712	0.69928	0.21988	0.483
Mof_Cd	Cd	0.20294	0.62778	0.64313	0.502
Mof_Cd	Cd	0.17052	0.44341	0.73425	0.517
Mof_Cd	Cd	0.35288	0.30072	0.71988	0.482
Mof_H 	H 	0.0066	0.9079	0.1621	0.024
Mof_H 	H 	0.9502	0.9146	0.0982	0.02
Mof_H 	H 	0.0124	0.0428	0.1678	0.197
Mof_H 	H 	0.9493	0.0469	0.106	0.193
Mof_H 	H 	0.3261	0.035	0.1687	0.023
Mof_H 	H 	0.3784	0.0556	0.1055	0.008
Mof_H 	H 	0.4485	0.9331	0.103	0.187
Mof_H 	H 	0.4009	0.917	0.1687	0.18
Mof_H 	H 	0.24	0.9704	0.918	0.033
Mof_H 	H 	0.1396	0.9247	0.9172	0.034
Mof_H 	H 	0.3295	0.8539	0.9366	0.169
Mof_H 	H 	0.2276	0.8093	0.9307	0.161
Mof_H 	H 	0.3963	0.637	0.08	0.019
Mof_H 	H 	0.3492	0.6873	0.1328	0.018
Mof_H 	H 	0.4437	0.7452	0.0247	0.185
Mof_H 	H 	0.3904	0.7973	0.0736	0.177
Mof_H 	H 	0.9606	0.767	0.0453	0.032
Mof_H 	H 	0.0225	0.7886	0.1047	0.019
Mof_H 	H 	0.9896	0.6703	0.1486	0.186
Mof_H 	H 	0.9322	0.6453	0.0883	0.185
Mof_H 	H 	0.097	0.5886	0.9043	0.027
Mof_H 	H 	0.2131	0.5768	0.9019	0.022
Mof_H 	H 	0.1103	0.702	0.8515	0.19
Mof_H 	H 	0.2272	0.6988	0.8548	0.184
Mof_H 	H 	0.9934	0.0921	0.6621	0.022
Mof_H 	H 	0.0498	0.0854	0.5982	0.019
Mof_H 	H 	0.9876	0.9572	0.6678	0.195
Mof_H 	H 	0.0507	0.9531	0.606	0.192
Mof_H 	H 	0.6739	0.965	0.6687	0.022
Mof_H 	H 	0.6216	0.9444	0.6055	0.006
Mof_H 	H 	0.5515	0.0669	0.603	0.186
Mof_H 	H 	0.5991	0.083	0.6687	0.179
Mof_H 	H 	0.76	0.0296	0.418	0.03
Mof_H 	H 	0.8604	0.0753	0.4172	0.032
Mof_H 	H 	0.6705	0.1461	0.4366	0.179
Mof_H 	H 	0.7724	0.1907	0.4307	0.168
Mof_H 	H 	0.6037	0.363	0.58	0.017
Mof_H 	H 	0.6508	0.3127	0.6328	0.018
Mof_H 	H 	0.5563	0.2548	0.5247	0.178
Mof_H 	H 	0.6096	0.2027	0.5736	0.173
Mof_H 	H 	0.0394	0.233	0.5453	0.03
Mof_H 	H 	0.9775	0.2114	0.6047	0.019
Mof_H 	H 	0.0104	0.3297	0.6486	0.185
Mof_H 	H 	0.0678	0.3547	0.5883	0.182
Mof_H 	H 	0.903	0.4114	0.4043	0.029
Mof_H 	H 	0.7869	0.4232	0.4019	0.023
Mof_H 	H 	0.8897	0.298	0.3515	0.191
Mof_H 	H 	0.7728	0.3012	0.3548	0.184
Mof_H 	H 	0.4934	0.4079	0.1621	0.021
Mof_H 	H 	0.5498	0.4146	0.0982	0.019
Mof_H 	H 	0.4876	0.5428	0.1678	0.198
Mof_H 	H 	0.5507	0.5469	0.106	0.195
Mof_H 	H 	0.1739	0.535	0.1687	0.023
Mof_H 	H 	0.1216	0.5556	0.1055	0.008
Mof_H 	H 	0.0515	0.4331	0.103	0.188
Mof_H 	H 	0.0991	0.417	0.1687	0.18
Mof_H 	H 	0.26	0.4704	0.918	0.034
Mof_H 	H 	0.3604	0.4247	0.9172	0.034
Mof_H 	H 	0.1705	0.3539	0.9366	0.17
Mof_H 	H 	0.2724	0.3093	0.9307	0.161
Mof_H 	H 	0.1037	0.137	0.08	0.019
Mof_H 	H 	0.1508	0.1873	0.1328	0.018
Mof_H 	H 	0.0563	0.2452	0.0247	0.184
Mof_H 	H 	0.1096	0.2973	0.0736	0.176
Mof_H 	H 	0.5394	0.267	0.0453	0.034
Mof_H 	H 	0.4775	0.2886	0.1047	0.02
Mof_H 	H 	0.5104	0.1703	0.1486	0.185
Mof_H 	H 	0.5678	0.1453	0.0883	0.184
Mof_H 	H 	0.403	0.0886	0.9043	0.027
Mof_H 	H 	0.2869	0.0768	0.9019	0.022
Mof_H 	H 	0.3897	0.202	0.8515	0.19
Mof_H 	H 	0.2728	0.1988	0.8548	0.184
Mof_H 	H 	0.5066	0.5921	0.6621	0.021
Mof_H 	H 	0.4502	0.5854	0.5982	0.018
Mof_H 	H 	0.5124	0.4572	0.6678	0.197
Mof_H 	H 	0.4493	0.4531	0.606	0.193
Mof_H 	H 	0.8261	0.465	0.6687	0.021
Mof_H 	H 	0.8784	0.4444	0.6055	0.006
Mof_H 	H 	0.9485	0.5669	0.603	0.187
Mof_H 	H 	0.9009	0.583	0.6687	0.18
Mof_H 	H 	0.74	0.5296	0.418	0.03
Mof_H 	H 	0.6396	0.5753	0.4172	0.032
Mof_H 	H 	0.8295	0.6461	0.4366	0.179
Mof_H 	H 	0.7276	0.6907	0.4307	0.168
Mof_H 	H 	0.8963	0.863	0.58	0.016
Mof_H 	H 	0.8492	0.8127	0.6328	0.018
Mof_H 	H 	0.9437	0.7548	0.5247	0.178
Mof_H 	H 	0.8904	0.7027	0.5736	0.174
Mof_H 	H 	0.4606	0.733	0.5453	0.03
Mof_H 	H 	0.5225	0.7114	0.6047	0.019
Mof_H 	H 	0.4896	0.8297	0.6486	0.185
Mof_H 	H 	0.4322	0.8547	0.5883	0.181
Mof_H 	H 	0.597	0.9114	0.4043	0.029
Mof_H 	H 	0.7131	0.9232	0.4019	0.023
Mof_H 	H 	0.6103	0.798	0.3515	0.191
Mof_H 	H 	0.7272	0.8012	0.3548	0.184
Mof_C 	C 	0.1789	0.9661	0.1286	0.288
Mof_C 	C 	0.2755	0.9672	0.0328	0.289
Mof_C 	C 	0.1008	0.9302	0.0298	0.294
Mof_C 	C 	0.999	0.9388	0.125	0.146
Mof_C 	C 	0.9623	0.0169	0.1431	-0.453
Mof_C 	C 	0.8672	0.0073	0.1803	0.439
Mof_C 	C 	0.3494	0.0144	0.1294	0.152
Mof_C 	C 	0.4274	0.9563	0.1418	-0.422
Mof_C 	C 	0.5179	0.9959	0.1738	0.4
Mof_C 	C 	0.2058	0.9268	0.9355	0.094
Mof_C 	C 	0.2637	0.8543	0.9176	-0.405
Mof_C 	C 	0.2712	0.8582	0.8472	0.424
Mof_C 	C 	0.2604	0.6478	0.9973	0.256
Mof_C 	C 	0.0826	0.6841	0.9919	0.271
Mof_C 	C 	0.1861	0.7227	0.0798	0.274
Mof_C 	C 	0.3621	0.6844	0.0884	0.132
Mof_C 	C 	0.4281	0.7507	0.0686	-0.435
Mof_C 	C 	0.5247	0.7578	0.1045	0.445
Mof_C 	C 	0.0041	0.747	0.0775	0.146
Mof_C 	C 	0.9475	0.6882	0.1149	-0.427
Mof_C 	C 	0.8499	0.72	0.1421	0.416
Mof_C 	C 	0.1609	0.6147	0.9055	0.15
Mof_C 	C 	0.1674	0.6682	0.8506	-0.454
Mof_C 	C 	0.1701	0.6283	0.7888	0.447
Mof_C 	C 	0.8211	0.0339	0.6286	0.287
Mof_C 	C 	0.7245	0.0328	0.5328	0.288
Mof_C 	C 	0.8992	0.0698	0.5298	0.293
Mof_C 	C 	0.001	0.0612	0.625	0.149
Mof_C 	C 	0.0377	0.9831	0.6431	-0.452
Mof_C 	C 	0.1328	0.9927	0.6803	0.437
Mof_C 	C 	0.6506	0.9856	0.6294	0.151
Mof_C 	C 	0.5726	0.0437	0.6418	-0.422
Mof_C 	C 	0.4821	0.0041	0.6738	0.401
Mof_C 	C 	0.7942	0.0732	0.4355	0.119
Mof_C 	C 	0.7363	0.1457	0.4176	-0.418
Mof_C 	C 	0.7288	0.1418	0.3472	0.429
Mof_C 	C 	0.7396	0.3522	0.4973	0.275
Mof_C 	C 	0.9174	0.3159	0.4919	0.29
Mof_C 	C 	0.8139	0.2773	0.5798	0.273
Mof_C 	C 	0.6379	0.3156	0.5884	0.13
Mof_C 	C 	0.5719	0.2493	0.5686	-0.432
Mof_C 	C 	0.4753	0.2422	0.6045	0.443
Mof_C 	C 	0.9959	0.253	0.5775	0.144
Mof_C 	C 	0.0525	0.3118	0.6149	-0.425
Mof_C 	C 	0.1501	0.28	0.6421	0.415
Mof_C 	C 	0.8391	0.3853	0.4055	0.15
Mof_C 	C 	0.8326	0.3318	0.3506	-0.455
Mof_C 	C 	0.8299	0.3717	0.2888	0.448
Mof_C 	C 	0.3211	0.4661	0.1286	0.288
Mof_C 	C 	0.2245	0.4672	0.0328	0.289
Mof_C 	C 	0.3992	0.4302	0.0298	0.294
Mof_C 	C 	0.501	0.4388	0.125	0.152
Mof_C 	C 	0.5377	0.5169	0.1431	-0.457
Mof_C 	C 	0.6328	0.5073	0.1803	0.44
Mof_C 	C 	0.1506	0.5144	0.1294	0.153
Mof_C 	C 	0.0726	0.4563	0.1418	-0.422
Mof_C 	C 	0.9821	0.4959	0.1738	0.4
Mof_C 	C 	0.2942	0.4268	0.9355	0.095
Mof_C 	C 	0.2363	0.3543	0.9176	-0.405
Mof_C 	C 	0.2288	0.3582	0.8472	0.424
Mof_C 	C 	0.2396	0.1478	0.9973	0.257
Mof_C 	C 	0.4174	0.1841	0.9919	0.272
Mof_C 	C 	0.3139	0.2227	0.0798	0.274
Mof_C 	C 	0.1379	0.1844	0.0884	0.131
Mof_C 	C 	0.0719	0.2507	0.0686	-0.434
Mof_C 	C 	0.9753	0.2578	0.1045	0.444
Mof_C 	C 	0.4959	0.247	0.0775	0.142
Mof_C 	C 	0.5525	0.1882	0.1149	-0.424
Mof_C 	C 	0.6501	0.22	0.1421	0.415
Mof_C 	C 	0.3391	0.1147	0.9055	0.149
Mof_C 	C 	0.3326	0.1682	0.8506	-0.454
Mof_C 	C 	0.3299	0.1283	0.7888	0.447
Mof_C 	C 	0.6789	0.5339	0.6286	0.287
Mof_C 	C 	0.7755	0.5328	0.5328	0.288
Mof_C 	C 	0.6008	0.5698	0.5298	0.293
Mof_C 	C 	0.499	0.5612	0.625	0.151
Mof_C 	C 	0.4623	0.4831	0.6431	-0.455
Mof_C 	C 	0.3672	0.4927	0.6803	0.439
Mof_C 	C 	0.8494	0.4856	0.6294	0.155
Mof_C 	C 	0.9274	0.5437	0.6418	-0.424
Mof_C 	C 	0.0179	0.5041	0.6738	0.401
Mof_C 	C 	0.7058	0.5732	0.4355	0.119
Mof_C 	C 	0.7637	0.6457	0.4176	-0.418
Mof_C 	C 	0.7712	0.6418	0.3472	0.429
Mof_C 	C 	0.7604	0.8522	0.4973	0.275
Mof_C 	C 	0.5826	0.8159	0.4919	0.29
Mof_C 	C 	0.6861	0.7773	0.5798	0.273
Mof_C 	C 	0.8621	0.8156	0.5884	0.13
Mof_C 	C 	0.9281	0.7493	0.5686	-0.433
Mof_C 	C 	0.0247	0.7422	0.6045	0.444
Mof_C 	C 	0.5041	0.753	0.5775	0.143
Mof_C 	C 	0.4475	0.8118	0.6149	-0.424
Mof_C 	C 	0.3499	0.78	0.6421	0.415
Mof_C 	C 	0.6609	0.8853	0.4055	0.15
Mof_C 	C 	0.6674	0.8318	0.3506	-0.455
Mof_C 	C 	0.6701	0.8717	0.2888	0.448
Mof_N 	N 	0.0952	0.9442	0.0924	-0.203
Mof_N 	N 	0.265	0.9833	0.0954	-0.208
Mof_N 	N 	0.1962	0.9372	0.003	-0.192
Mof_N 	N 	0.2642	0.6864	0.0531	-0.197
Mof_N 	N 	0.093	0.7169	0.0489	-0.196
Mof_N 	N 	0.1709	0.6531	0.9651	-0.201
Mof_N 	N 	0.9048	0.0558	0.5924	-0.204
Mof_N 	N 	0.735	0.0167	0.5954	-0.208
Mof_N 	N 	0.8038	0.0628	0.503	-0.203
Mof_N 	N 	0.7358	0.3136	0.5531	-0.207
Mof_N 	N 	0.907	0.2831	0.5489	-0.207
Mof_N 	N 	0.8291	0.3469	0.4651	-0.203
Mof_N 	N 	0.4048	0.4442	0.0924	-0.204
Mof_N 	N 	0.235	0.4833	0.0954	-0.208
Mof_N 	N 	0.3038	0.4372	0.003	-0.192
Mof_N 	N 	0.2358	0.1864	0.0531	-0.197
Mof_N 	N 	0.407	0.2169	0.0489	-0.197
Mof_N 	N 	0.3291	0.1531	0.9651	-0.201
Mof_N 	N 	0.5952	0.5558	0.5924	-0.205
Mof_N 	N 	0.765	0.5167	0.5954	-0.209
Mof_N 	N 	0.6962	0.5628	0.503	-0.203
Mof_N 	N 	0.7642	0.8136	0.5531	-0.207
Mof_N 	N 	0.593	0.7831	0.5489	-0.207
Mof_N 	N 	0.6709	0.8469	0.4651	-0.203
Mof_O 	O 	0.1746	0.9742	0.1836	-0.24
Mof_O 	O 	0.353	0.9839	0.006	-0.233
Mof_O 	O 	0.0289	0.9114	0.0002	-0.228
Mof_O 	O 	0.8266	0.9451	0.1851	-0.315
Mof_O 	O 	0.8305	0.0669	0.2056	-0.326
Mof_O 	O 	0.502	0.0426	0.2151	-0.295
Mof_O 	O 	0.6057	0.9819	0.1538	-0.322
Mof_O 	O 	0.3441	0.8895	0.8253	-0.311
Mof_O 	O 	0.1961	0.8354	0.8161	-0.318
Mof_O 	O 	0.3298	0.609	0.9786	-0.242
Mof_O 	O 	0.0062	0.6819	0.9642	-0.244
Mof_O 	O 	0.1932	0.7583	0.1287	-0.233
Mof_O 	O 	0.5527	0.7022	0.1353	-0.333
Mof_O 	O 	0.5685	0.8198	0.0994	-0.332
Mof_O 	O 	0.1652	0.5599	0.7871	-0.31
Mof_O 	O 	0.1708	0.6718	0.7398	-0.335
Mof_O 	O 	0.805	0.6802	0.1845	-0.314
Mof_O 	O 	0.8203	0.783	0.1251	-0.307
Mof_O 	O 	0.8254	0.0258	0.6836	-0.241
Mof_O 	O 	0.647	0.0161	0.506	-0.243
Mof_O 	O 	0.9711	0.0886	0.5002	-0.236
Mof_O 	O 	0.1734	0.0549	0.6851	-0.314
Mof_O 	O 	0.1695	0.9331	0.7056	-0.326
Mof_O 	O 	0.498	0.9574	0.7151	-0.298
Mof_O 	O 	0.3943	0.0181	0.6538	-0.322
Mof_O 	O 	0.6559	0.1105	0.3253	-0.31
Mof_O 	O 	0.8039	0.1646	0.3161	-0.319
Mof_O 	O 	0.6702	0.391	0.4786	-0.237
Mof_O 	O 	0.9938	0.3181	0.4642	-0.242
Mof_O 	O 	0.8068	0.2417	0.6287	-0.234
Mof_O 	O 	0.4473	0.2978	0.6353	-0.333
Mof_O 	O 	0.4315	0.1802	0.5994	-0.334
Mof_O 	O 	0.8348	0.4401	0.2871	-0.309
Mof_O 	O 	0.8292	0.3282	0.2398	-0.335
Mof_O 	O 	0.195	0.3198	0.6845	-0.314
Mof_O 	O 	0.1797	0.217	0.6251	-0.308
Mof_O 	O 	0.3254	0.4742	0.1836	-0.24
Mof_O 	O 	0.147	0.4839	0.006	-0.233
Mof_O 	O 	0.4711	0.4114	0.0002	-0.229
Mof_O 	O 	0.6734	0.4451	0.1851	-0.315
Mof_O 	O 	0.6695	0.5669	0.2056	-0.327
Mof_O 	O 	0.998	0.5426	0.2151	-0.296
Mof_O 	O 	0.8943	0.4819	0.1538	-0.322
Mof_O 	O 	0.1559	0.3895	0.8253	-0.311
Mof_O 	O 	0.3039	0.3354	0.8161	-0.318
Mof_O 	O 	0.1702	0.109	0.9786	-0.242
Mof_O 	O 	0.4938	0.1819	0.9642	-0.244
Mof_O 	O 	0.3068	0.2583	0.1287	-0.233
Mof_O 	O 	0.9473	0.2022	0.1353	-0.333
Mof_O 	O 	0.9315	0.3198	0.0994	-0.332
Mof_O 	O 	0.3348	0.0599	0.7871	-0.309
Mof_O 	O 	0.3292	0.1718	0.7398	-0.335
Mof_O 	O 	0.695	0.1802	0.1845	-0.313
Mof_O 	O 	0.6797	0.283	0.1251	-0.307
Mof_O 	O 	0.6746	0.5258	0.6836	-0.241
Mof_O 	O 	0.853	0.5161	0.506	-0.244
Mof_O 	O 	0.5289	0.5886	0.5002	-0.237
Mof_O 	O 	0.3266	0.5549	0.6851	-0.315
Mof_O 	O 	0.3305	0.4331	0.7056	-0.327
Mof_O 	O 	0.002	0.4574	0.7151	-0.297
Mof_O 	O 	0.1057	0.5181	0.6538	-0.323
Mof_O 	O 	0.8441	0.6105	0.3253	-0.31
Mof_O 	O 	0.6961	0.6646	0.3161	-0.319
Mof_O 	O 	0.8298	0.891	0.4786	-0.238
Mof_O 	O 	0.5062	0.8181	0.4642	-0.241
Mof_O 	O 	0.6932	0.7417	0.6287	-0.234
Mof_O 	O 	0.0527	0.7978	0.6353	-0.333
Mof_O 	O 	0.0685	0.6802	0.5994	-0.334
Mof_O 	O 	0.6652	0.9401	0.2871	-0.31
Mof_O 	O 	0.6708	0.8282	0.2398	-0.335
Mof_O 	O 	0.305	0.8198	0.6845	-0.314
Mof_O 	O 	0.3203	0.717	0.6251	-0.308
_end
