data_functionalizedCrystal
_audit_creation_method	'EQeq! by Chris Wilmer'
_symmetry_space_group_name_H-M	'P1'
_symmetry_Int_Tables_number	1
_symmetry_cell_setting	triclinic
loop_
_symmetry_equiv_pos_as_xyz
  x,y,z
_cell_length_a	25.8033
_cell_length_b	8.6742
_cell_length_c	8.4557
_cell_angle_alpha	90
_cell_angle_beta	90
_cell_angle_gamma	90
loop_
_atom_site_label
_atom_site_type_symbol
_atom_site_fract_x
_atom_site_fract_y
_atom_site_fract_z
_atom_site_charge
Mof_Zn	Zn	0.68745	0.72502	0.38022	1.242
Mof_P 	P 	0.76672	0.94168	0.18056	0.645
Mof_H 	H 	0.751	0.007	0.072	-0.181
Mof_P 	P 	0.56185	0.80857	0.355	0.502
Mof_H 	H 	0.552	0.708	0.273	-0.081
Mof_O 	O 	0.72169	0.8961	0.2811	-0.461
Mof_O 	O 	0.80779	0.032	0.2706	-0.527
Mof_O 	O 	0.79259	0.8023	0.103	-0.44
Mof_O 	O 	0.61533	0.7829	0.417	-0.418
Mof_O 	O 	0.55962	0.9428	0.2382	-0.408
Mof_O 	O 	0.52212	0.8236	0.4876	-0.422
Mof_Zn	Zn	0.18745	0.22502	0.88022	1.238
Mof_P 	P 	0.26672	0.44168	0.68056	0.509
Mof_H 	H 	0.251	0.507	0.572	-0.101
Mof_P 	P 	0.06185	0.30857	0.855	0.501
Mof_H 	H 	0.052	0.208	0.773	-0.111
Mof_O 	O 	0.22169	0.3961	0.7811	-0.463
Mof_O 	O 	0.30779	0.532	0.7706	-0.45
Mof_O 	O 	0.29259	0.3023	0.603	-0.441
Mof_O 	O 	0.11533	0.2829	0.917	-0.439
Mof_O 	O 	0.05962	0.4428	0.7382	-0.467
Mof_O 	O 	0.02212	0.3236	0.9876	-0.486
Mof_Zn	Zn	0.31255	0.27498	0.38022	1.236
Mof_P 	P 	0.23328	0.05832	0.18056	0.376
Mof_H 	H 	0.249	0.993	0.072	-0.031
Mof_P 	P 	0.43815	0.19143	0.355	0.498
Mof_H 	H 	0.448	0.292	0.273	-0.087
Mof_O 	O 	0.27831	0.1039	0.2811	-0.468
Mof_O 	O 	0.19221	0.968	0.2706	-0.384
Mof_O 	O 	0.20741	0.1977	0.103	-0.44
Mof_O 	O 	0.38467	0.2171	0.417	-0.445
Mof_O 	O 	0.44038	0.0572	0.2382	-0.49
Mof_O 	O 	0.47788	0.1764	0.4876	-0.471
Mof_Zn	Zn	0.81255	0.77498	0.88022	1.246
Mof_P 	P 	0.73328	0.55832	0.68056	0.51
Mof_H 	H 	0.749	0.493	0.572	-0.102
Mof_P 	P 	0.93815	0.69143	0.855	0.497
Mof_H 	H 	0.948	0.792	0.773	-0.05
Mof_O 	O 	0.77831	0.6039	0.7811	-0.455
Mof_O 	O 	0.69221	0.468	0.7706	-0.449
Mof_O 	O 	0.70741	0.6977	0.603	-0.421
Mof_O 	O 	0.88467	0.7171	0.917	-0.411
Mof_O 	O 	0.94038	0.5572	0.7382	-0.419
Mof_O 	O 	0.97788	0.6764	0.9876	-0.39
Mof_Zn	Zn	0.18745	0.77498	0.38022	1.242
Mof_P 	P 	0.26672	0.55832	0.18056	0.511
Mof_H 	H 	0.251	0.493	0.072	-0.109
Mof_P 	P 	0.06185	0.69143	0.355	0.5
Mof_H 	H 	0.052	0.792	0.273	-0.088
Mof_O 	O 	0.22169	0.6039	0.2811	-0.463
Mof_O 	O 	0.30779	0.468	0.2706	-0.455
Mof_O 	O 	0.29259	0.6977	0.103	-0.43
Mof_O 	O 	0.11533	0.7171	0.417	-0.429
Mof_O 	O 	0.05962	0.5572	0.2382	-0.473
Mof_O 	O 	0.02212	0.6764	0.4876	-0.476
Mof_Zn	Zn	0.68745	0.27498	0.88022	1.24
Mof_P 	P 	0.76672	0.05832	0.68056	0.378
Mof_H 	H 	0.751	0.993	0.572	-0.026
Mof_P 	P 	0.56185	0.19143	0.855	0.498
Mof_H 	H 	0.552	0.292	0.773	-0.082
Mof_O 	O 	0.72169	0.1039	0.7811	-0.462
Mof_O 	O 	0.80779	0.968	0.7706	-0.372
Mof_O 	O 	0.79259	0.1977	0.603	-0.427
Mof_O 	O 	0.61533	0.2171	0.917	-0.439
Mof_O 	O 	0.55962	0.0572	0.7382	-0.483
Mof_O 	O 	0.52212	0.1764	0.9876	-0.461
Mof_Zn	Zn	0.81255	0.22502	0.38022	1.236
Mof_P 	P 	0.73328	0.44168	0.18056	0.51
Mof_H 	H 	0.749	0.507	0.072	-0.105
Mof_P 	P 	0.93815	0.30857	0.355	0.498
Mof_H 	H 	0.948	0.208	0.273	-0.081
Mof_O 	O 	0.77831	0.3961	0.2811	-0.467
Mof_O 	O 	0.69221	0.532	0.2706	-0.456
Mof_O 	O 	0.70741	0.3023	0.103	-0.449
Mof_O 	O 	0.88467	0.2829	0.417	-0.435
Mof_O 	O 	0.94038	0.4428	0.2382	-0.426
Mof_O 	O 	0.97788	0.3236	0.4876	-0.417
Mof_Zn	Zn	0.31255	0.72502	0.88022	1.244
Mof_P 	P 	0.23328	0.94168	0.68056	0.642
Mof_H 	H 	0.249	0.007	0.572	-0.177
Mof_P 	P 	0.43815	0.80857	0.855	0.5
Mof_H 	H 	0.448	0.708	0.773	-0.078
Mof_O 	O 	0.27831	0.8961	0.7811	-0.456
Mof_O 	O 	0.19221	0.032	0.7706	-0.526
Mof_O 	O 	0.20741	0.8023	0.603	-0.436
Mof_O 	O 	0.38467	0.7829	0.917	-0.412
Mof_O 	O 	0.44038	0.9428	0.7382	-0.402
Mof_O 	O 	0.47788	0.8236	0.9876	-0.414
Mof_Zn	Zn	0.5	0	0.10714	1.202
Mof_Zn	Zn	2.41325e-33	0.5	0.60714	1.209
Mof_Zn	Zn	3.46618e-33	0.5	0.10714	1.203
Mof_Zn	Zn	0.5	0	0.60714	1.208
_end
