data_functionalizedCrystal
_audit_creation_method	'EQeq! by Chris Wilmer'
_symmetry_space_group_name_H-M	'P1'
_symmetry_Int_Tables_number	1
_symmetry_cell_setting	triclinic
loop_
_symmetry_equiv_pos_as_xyz
  x,y,z
_cell_length_a	16.145
_cell_length_b	17.9775
_cell_length_c	17.9775
_cell_angle_alpha	68.5568
_cell_angle_beta	72.5811
_cell_angle_gamma	107.419
loop_
_atom_site_label
_atom_site_type_symbol
_atom_site_fract_x
_atom_site_fract_y
_atom_site_fract_z
_atom_site_charge
Mof_Fe	Fe	1.38174e-17	0	0.5	0.645
Mof_Fe	Fe	0.5	0.5	0.5	0.746
Mof_Fe	Fe	-0	0.5	-0	0.637
Mof_H 	H 	0.8489	0.0527	0.7425	0.115
Mof_H 	H 	0.6939	0.9348	0.8142	-0.012
Mof_H 	H 	0.6601	0.8421	0.7515	0.106
Mof_H 	H 	0.7801	0.8694	0.624	-0.007
Mof_H 	H 	0.3276	0.274	0.434	0.091
Mof_H 	H 	0.4562	0.3816	0.4225	-0.003
Mof_H 	H 	0.2827	0.4273	0.5786	-0.006
Mof_H 	H 	0.1512	0.3215	0.5937	0.091
Mof_H 	H 	0.5914	0.7425	0.2048	0.082
Mof_H 	H 	0.5081	0.8142	0.251	0.011
Mof_H 	H 	0.4116	0.7515	0.4064	0.089
Mof_H 	H 	0.4041	0.624	0.5066	-0.003
Mof_H 	H 	0.7616	0.434	0.292	0.085
Mof_H 	H 	0.8787	0.4225	0.1959	0.01
Mof_H 	H 	0.8613	0.5786	0.9941	0.052
Mof_H 	H 	0.7449	0.5937	0.0848	0.077
Mof_H 	H 	0.7962	0.2048	0.0527	0.098
Mof_H 	H 	0.7591	0.251	0.9348	-0.011
Mof_H 	H 	0.818	0.4064	0.8421	0.103
Mof_H 	H 	0.9107	0.5066	0.8694	0.005
Mof_H 	H 	0.0536	0.292	0.274	0.102
Mof_H 	H 	0.0746	0.1959	0.3816	0.004
Mof_H 	H 	0.8554	0.9941	0.4273	0.031
Mof_H 	H 	0.8297	0.0848	0.3215	0.092
Mof_H 	H 	0.1511	0.9473	0.2575	0.047
Mof_H 	H 	0.3061	0.0652	0.1858	0.03
Mof_H 	H 	0.3399	0.1579	0.2485	0.067
Mof_H 	H 	0.2199	0.1306	0.376	0.01
Mof_H 	H 	0.6724	0.726	0.566	0.095
Mof_H 	H 	0.5438	0.6184	0.5775	-0.004
Mof_H 	H 	0.7173	0.5727	0.4214	-0.007
Mof_H 	H 	0.8488	0.6785	0.4063	0.112
Mof_H 	H 	0.4086	0.2575	0.7952	0.082
Mof_H 	H 	0.4919	0.1858	0.749	0.007
Mof_H 	H 	0.5884	0.2485	0.5936	0.088
Mof_H 	H 	0.5959	0.376	0.4934	-0.002
Mof_H 	H 	0.2384	0.566	0.708	0.099
Mof_H 	H 	0.1213	0.5775	0.8041	-0.008
Mof_H 	H 	0.1387	0.4214	0.0059	-0.063
Mof_H 	H 	0.2551	0.4063	0.9152	0.126
Mof_H 	H 	0.2038	0.7952	0.9473	0.064
Mof_H 	H 	0.2409	0.749	0.0652	0.032
Mof_H 	H 	0.182	0.5936	0.1579	0.07
Mof_H 	H 	0.0893	0.4934	0.1306	-0.001
Mof_H 	H 	0.9464	0.708	0.726	0.084
Mof_H 	H 	0.9254	0.8041	0.6184	-0.003
Mof_H 	H 	0.1446	0.0059	0.5727	-0.04
Mof_H 	H 	0.1703	0.9152	0.6785	0.111
Mof_C 	C 	0.004	0.0959	0.5928	0.027
Mof_C 	C 	0.1412	0.2027	0.5361	0.076
Mof_C 	C 	0.9028	0.0254	0.6432	0.126
Mof_C 	C 	0.8331	0.014	0.7203	-0.228
Mof_C 	C 	0.7421	0.9453	0.762	0.156
Mof_C 	C 	0.7222	0.8898	0.7245	-0.198
Mof_C 	C 	0.7947	0.9063	0.6483	0.13
Mof_C 	C 	0.2233	0.2796	0.5209	0.085
Mof_C 	C 	0.3162	0.3031	0.4664	-0.168
Mof_C 	C 	0.3934	0.369	0.4591	0.109
Mof_C 	C 	0.2932	0.3954	0.5491	0.112
Mof_C 	C 	0.2133	0.3307	0.5597	-0.168
Mof_C 	C 	0.5968	0.5928	0.3113	0.083
Mof_C 	C 	0.6773	0.5361	0.2612	0.088
Mof_C 	C 	0.546	0.6432	0.3314	0.073
Mof_C 	C 	0.5534	0.7203	0.2657	-0.136
Mof_C 	C 	0.5041	0.762	0.2927	0.064
Mof_C 	C 	0.4467	0.7245	0.3857	-0.154
Mof_C 	C 	0.443	0.6483	0.4454	0.1
Mof_C 	C 	0.7442	0.5209	0.1995	0.064
Mof_C 	C 	0.7826	0.4664	0.2305	-0.144
Mof_C 	C 	0.8525	0.4591	0.1719	0.097
Mof_C 	C 	0.8423	0.5491	0.0555	0.035
Mof_C 	C 	0.773	0.5597	0.1096	-0.116
Mof_C 	C 	0.9081	0.3113	0.0959	0.084
Mof_C 	C 	0.9385	0.2612	0.2027	0.071
Mof_C 	C 	0.8774	0.3314	0.0254	0.074
Mof_C 	C 	0.8191	0.2657	0.014	-0.201
Mof_C 	C 	0.7968	0.2927	0.9453	0.14
Mof_C 	C 	0.8324	0.3857	0.8898	-0.183
Mof_C 	C 	0.8884	0.4454	0.9063	0.124
Mof_C 	C 	0.9437	0.1995	0.2796	0.143
Mof_C 	C 	0.0131	0.2305	0.3031	-0.229
Mof_C 	C 	0.0244	0.1719	0.369	0.08
Mof_C 	C 	0.8978	0.0555	0.3954	0.07
Mof_C 	C 	0.8826	0.1096	0.3307	-0.162
Mof_C 	C 	0.996	0.9041	0.4072	0.139
Mof_C 	C 	0.8588	0.7973	0.4639	0.077
Mof_C 	C 	0.0972	0.9746	0.3568	0.023
Mof_C 	C 	0.1669	0.986	0.2797	-0.044
Mof_C 	C 	0.2579	0.0547	0.238	-0.033
Mof_C 	C 	0.2778	0.1102	0.2755	-0.103
Mof_C 	C 	0.2053	0.0937	0.3517	0.062
Mof_C 	C 	0.7767	0.7204	0.4791	0.1
Mof_C 	C 	0.6838	0.6969	0.5336	-0.177
Mof_C 	C 	0.6066	0.631	0.5409	0.115
Mof_C 	C 	0.7068	0.6046	0.4509	0.122
Mof_C 	C 	0.7867	0.6693	0.4403	-0.179
Mof_C 	C 	0.4032	0.4072	0.6887	0.082
Mof_C 	C 	0.3227	0.4639	0.7388	0.067
Mof_C 	C 	0.454	0.3568	0.6686	0.073
Mof_C 	C 	0.4466	0.2797	0.7343	-0.139
Mof_C 	C 	0.4959	0.238	0.7073	0.065
Mof_C 	C 	0.5533	0.2755	0.6143	-0.155
Mof_C 	C 	0.557	0.3517	0.5546	0.1
Mof_C 	C 	0.2558	0.4791	0.8005	0.118
Mof_C 	C 	0.2174	0.5336	0.7695	-0.193
Mof_C 	C 	0.1475	0.5409	0.8281	0.119
Mof_C 	C 	0.1577	0.4509	0.9445	0.199
Mof_C 	C 	0.227	0.4403	0.8904	-0.226
Mof_C 	C 	0.0919	0.6887	0.9041	0.085
Mof_C 	C 	0.0615	0.7388	0.7973	0.083
Mof_C 	C 	0.1226	0.6686	0.9746	0.075
Mof_C 	C 	0.1809	0.7343	0.986	-0.064
Mof_C 	C 	0.2032	0.7073	0.0547	-0.024
Mof_C 	C 	0.1676	0.6143	0.1102	-0.115
Mof_C 	C 	0.1116	0.5546	0.0937	0.065
Mof_C 	C 	0.0563	0.8005	0.7204	0.045
Mof_C 	C 	0.9869	0.7695	0.6969	-0.115
Mof_C 	C 	0.9756	0.8281	0.631	0.136
Mof_C 	C 	0.1022	0.9445	0.6046	0.162
Mof_C 	C 	0.1174	0.8904	0.6693	-0.182
Mof_N 	N 	0.0624	0.095	0.522	-0.16
Mof_N 	N 	0.1511	0.1639	0.4871	-0.097
Mof_N 	N 	0.0507	0.1631	0.6039	-0.131
Mof_N 	N 	0.8849	0.9726	0.6075	-0.184
Mof_N 	N 	0.385	0.4163	0.5001	-0.215
Mof_N 	N 	0.5844	0.522	0.383	-0.169
Mof_N 	N 	0.6382	0.4871	0.349	-0.097
Mof_N 	N 	0.6546	0.6039	0.233	-0.13
Mof_N 	N 	0.4924	0.6075	0.4199	-0.205
Mof_N 	N 	0.8851	0.5001	0.0836	-0.183
Mof_N 	N 	0.9674	0.383	0.095	-0.148
Mof_N 	N 	0.9872	0.349	0.1639	-0.079
Mof_N 	N 	0.8876	0.233	0.1631	-0.126
Mof_N 	N 	0.9123	0.4199	0.9726	-0.173
Mof_N 	N 	0.9687	0.0836	0.4163	-0.172
Mof_N 	N 	0.9376	0.905	0.478	-0.151
Mof_N 	N 	0.8489	0.8361	0.5129	-0.094
Mof_N 	N 	0.9493	0.8369	0.3961	-0.126
Mof_N 	N 	0.1151	0.0274	0.3925	-0.202
Mof_N 	N 	0.615	0.5837	0.4999	-0.217
Mof_N 	N 	0.4156	0.478	0.617	-0.169
Mof_N 	N 	0.3618	0.5129	0.651	-0.094
Mof_N 	N 	0.3454	0.3961	0.767	-0.127
Mof_N 	N 	0.5076	0.3925	0.5801	-0.205
Mof_N 	N 	0.1149	0.4999	0.9164	-0.219
Mof_N 	N 	0.0326	0.617	0.905	-0.16
Mof_N 	N 	0.0128	0.651	0.8361	-0.11
Mof_N 	N 	0.1124	0.767	0.8369	-0.13
Mof_N 	N 	0.0877	0.5801	0.0274	-0.212
Mof_N 	N 	0.0313	0.9164	0.5837	-0.231
Mof_Fe	Fe	-4.14523e-17	0.5	0.5	0.685
Mof_Fe	Fe	0.5	0	0.5	0.707
Mof_Fe	Fe	0.5	0.5	-0	0.703
Mof_H 	H 	0.9086	0.2048	0.7425	0.117
Mof_H 	H 	0.9919	0.251	0.8142	-0.026
Mof_H 	H 	0.0884	0.4064	0.7515	0.126
Mof_H 	H 	0.0959	0.5066	0.624	-0.026
Mof_H 	H 	0.7384	0.292	0.434	0.088
Mof_H 	H 	0.6213	0.1959	0.4225	0.001
Mof_H 	H 	0.6387	0.9941	0.5786	0.039
Mof_H 	H 	0.7551	0.0848	0.5937	0.081
Mof_H 	H 	0.7038	0.0527	0.2048	0.095
Mof_H 	H 	0.7409	0.9348	0.251	-0.007
Mof_H 	H 	0.682	0.8421	0.4064	0.101
Mof_H 	H 	0.5893	0.8694	0.5066	-0.008
Mof_H 	H 	0.4464	0.274	0.292	0.085
Mof_H 	H 	0.4254	0.3816	0.1959	0.002
Mof_H 	H 	0.6446	0.4273	0.9941	0.044
Mof_H 	H 	0.6703	0.3215	0.0848	0.076
Mof_H 	H 	0.6511	0.7425	0.0527	0.102
Mof_H 	H 	0.8061	0.8142	0.9348	-0
Mof_H 	H 	0.8399	0.7515	0.8421	0.109
Mof_H 	H 	0.7199	0.624	0.8694	-0.007
Mof_H 	H 	0.1724	0.434	0.274	0.09
Mof_H 	H 	0.0438	0.4225	0.3816	-0.016
Mof_H 	H 	0.2173	0.5786	0.4273	-0.005
Mof_H 	H 	0.3488	0.5937	0.3215	0.101
Mof_H 	H 	0.0914	0.7952	0.2575	0.046
Mof_H 	H 	0.0081	0.749	0.1858	0.045
Mof_H 	H 	0.9116	0.5936	0.2485	0.048
Mof_H 	H 	0.9041	0.4934	0.376	0.026
Mof_H 	H 	0.2616	0.708	0.566	0.098
Mof_H 	H 	0.3787	0.8041	0.5775	-0.005
Mof_H 	H 	0.3613	0.0059	0.4214	-0.049
Mof_H 	H 	0.2449	0.9152	0.4063	0.122
Mof_H 	H 	0.2962	0.9473	0.7952	0.068
Mof_H 	H 	0.2591	0.0652	0.749	0.026
Mof_H 	H 	0.318	0.1579	0.5936	0.074
Mof_H 	H 	0.4107	0.1306	0.4934	0.006
Mof_H 	H 	0.5536	0.726	0.708	0.1
Mof_H 	H 	0.5746	0.6184	0.8041	-0.006
Mof_H 	H 	0.3554	0.5727	0.0059	-0.056
Mof_H 	H 	0.3297	0.6785	0.9152	0.129
Mof_H 	H 	0.3489	0.2575	0.9473	0.061
Mof_H 	H 	0.1939	0.1858	0.0652	0.019
Mof_H 	H 	0.1601	0.2485	0.1579	0.066
Mof_H 	H 	0.2801	0.376	0.1306	0.006
Mof_H 	H 	0.8276	0.566	0.726	0.095
Mof_H 	H 	0.9562	0.5775	0.6184	0.014
Mof_H 	H 	0.7827	0.4214	0.5727	-0.003
Mof_H 	H 	0.6512	0.4063	0.6785	0.1
Mof_C 	C 	0.9032	0.3113	0.5928	0.071
Mof_C 	C 	0.8227	0.2612	0.5361	0.09
Mof_C 	C 	0.954	0.3314	0.6432	0.149
Mof_C 	C 	0.9466	0.2657	0.7203	-0.223
Mof_C 	C 	0.9959	0.2927	0.762	0.207
Mof_C 	C 	0.0533	0.3857	0.7245	-0.286
Mof_C 	C 	0.057	0.4454	0.6483	0.155
Mof_C 	C 	0.7558	0.1995	0.5209	0.069
Mof_C 	C 	0.7174	0.2305	0.4664	-0.152
Mof_C 	C 	0.6475	0.1719	0.4591	0.099
Mof_C 	C 	0.6577	0.0555	0.5491	0.041
Mof_C 	C 	0.727	0.1096	0.5597	-0.125
Mof_C 	C 	0.5919	0.0959	0.3113	0.078
Mof_C 	C 	0.5615	0.2027	0.2612	0.085
Mof_C 	C 	0.6226	0.0254	0.3314	0.068
Mof_C 	C 	0.6809	0.014	0.2657	-0.197
Mof_C 	C 	0.7032	0.9453	0.2927	0.132
Mof_C 	C 	0.6676	0.8898	0.3857	-0.185
Mof_C 	C 	0.6116	0.9063	0.4454	0.122
Mof_C 	C 	0.5563	0.2796	0.1995	0.063
Mof_C 	C 	0.4869	0.3031	0.2305	-0.149
Mof_C 	C 	0.4756	0.369	0.1719	0.096
Mof_C 	C 	0.6022	0.3954	0.0555	0.031
Mof_C 	C 	0.6174	0.3307	0.1096	-0.121
Mof_C 	C 	0.496	0.5928	0.0959	0.078
Mof_C 	C 	0.3588	0.5361	0.2027	0.076
Mof_C 	C 	0.5972	0.6432	0.0254	0.069
Mof_C 	C 	0.6669	0.7203	0.014	-0.203
Mof_C 	C 	0.7579	0.762	0.9453	0.143
Mof_C 	C 	0.7778	0.7245	0.8898	-0.188
Mof_C 	C 	0.7053	0.6483	0.9063	0.125
Mof_C 	C 	0.2767	0.5209	0.2796	0.092
Mof_C 	C 	0.1838	0.4664	0.3031	-0.173
Mof_C 	C 	0.1066	0.4591	0.369	0.109
Mof_C 	C 	0.2068	0.5491	0.3954	0.115
Mof_C 	C 	0.2867	0.5597	0.3307	-0.173
Mof_C 	C 	0.0968	0.6887	0.4072	0.096
Mof_C 	C 	0.1773	0.7388	0.4639	0.064
Mof_C 	C 	0.046	0.6686	0.3568	-0.004
Mof_C 	C 	0.0534	0.7343	0.2797	-0.047
Mof_C 	C 	0.0041	0.7073	0.238	-0.085
Mof_C 	C 	0.9467	0.6143	0.2755	-0.014
Mof_C 	C 	0.943	0.5546	0.3517	0.039
Mof_C 	C 	0.2442	0.8005	0.4791	0.114
Mof_C 	C 	0.2826	0.7695	0.5336	-0.19
Mof_C 	C 	0.3525	0.8281	0.5409	0.121
Mof_C 	C 	0.3423	0.9445	0.4509	0.191
Mof_C 	C 	0.273	0.8904	0.4403	-0.219
Mof_C 	C 	0.4081	0.9041	0.6887	0.088
Mof_C 	C 	0.4385	0.7973	0.7388	0.069
Mof_C 	C 	0.3774	0.9746	0.6686	0.078
Mof_C 	C 	0.3191	0.986	0.7343	-0.074
Mof_C 	C 	0.2968	0.0547	0.7073	-0.009
Mof_C 	C 	0.3324	0.1102	0.6143	-0.119
Mof_C 	C 	0.3884	0.0937	0.5546	0.074
Mof_C 	C 	0.4437	0.7204	0.8005	0.121
Mof_C 	C 	0.5131	0.6969	0.7695	-0.193
Mof_C 	C 	0.5244	0.631	0.8281	0.124
Mof_C 	C 	0.3978	0.6046	0.9445	0.203
Mof_C 	C 	0.3826	0.6693	0.8904	-0.224
Mof_C 	C 	0.504	0.4072	0.9041	0.088
Mof_C 	C 	0.6412	0.4639	0.7973	0.079
Mof_C 	C 	0.4028	0.3568	0.9746	0.077
Mof_C 	C 	0.3331	0.2797	0.986	-0.066
Mof_C 	C 	0.2421	0.238	0.0547	-0.021
Mof_C 	C 	0.2222	0.2755	0.1102	-0.116
Mof_C 	C 	0.2947	0.3517	0.0937	0.07
Mof_C 	C 	0.7233	0.4791	0.7204	0.09
Mof_C 	C 	0.8162	0.5336	0.6969	-0.167
Mof_C 	C 	0.8934	0.5409	0.631	0.11
Mof_C 	C 	0.7932	0.4509	0.6046	0.114
Mof_C 	C 	0.7133	0.4403	0.6693	-0.169
Mof_N 	N 	0.9156	0.383	0.522	-0.148
Mof_N 	N 	0.8618	0.349	0.4871	-0.094
Mof_N 	N 	0.8454	0.233	0.6039	-0.125
Mof_N 	N 	0.0076	0.4199	0.6075	-0.246
Mof_N 	N 	0.6149	0.0836	0.5001	-0.201
Mof_N 	N 	0.5326	0.095	0.383	-0.168
Mof_N 	N 	0.5128	0.1639	0.349	-0.097
Mof_N 	N 	0.6124	0.1631	0.233	-0.132
Mof_N 	N 	0.5877	0.9726	0.4199	-0.189
Mof_N 	N 	0.5313	0.4163	0.0836	-0.199
Mof_N 	N 	0.4376	0.522	0.095	-0.168
Mof_N 	N 	0.3489	0.4871	0.1639	-0.096
Mof_N 	N 	0.4493	0.6039	0.1631	-0.128
Mof_N 	N 	0.6151	0.6075	0.9726	-0.187
Mof_N 	N 	0.115	0.5001	0.4163	-0.215
Mof_N 	N 	0.0844	0.617	0.478	-0.173
Mof_N 	N 	0.1382	0.651	0.5129	-0.097
Mof_N 	N 	0.1546	0.767	0.3961	-0.132
Mof_N 	N 	0.9924	0.5801	0.3925	-0.147
Mof_N 	N 	0.3851	0.9164	0.4999	-0.22
Mof_N 	N 	0.4674	0.905	0.617	-0.16
Mof_N 	N 	0.4872	0.8361	0.651	-0.094
Mof_N 	N 	0.3876	0.8369	0.767	-0.125
Mof_N 	N 	0.4123	0.0274	0.5801	-0.211
Mof_N 	N 	0.4687	0.5837	0.9164	-0.22
Mof_N 	N 	0.5624	0.478	0.905	-0.158
Mof_N 	N 	0.6511	0.5129	0.8361	-0.095
Mof_N 	N 	0.5507	0.3961	0.8369	-0.129
Mof_N 	N 	0.3849	0.3925	0.0274	-0.212
Mof_N 	N 	0.885	0.4999	0.5837	-0.199
_end
