data_functionalizedCrystal
_audit_creation_method	'EQeq! by Chris Wilmer'
_symmetry_space_group_name_H-M	'P1'
_symmetry_Int_Tables_number	1
_symmetry_cell_setting	triclinic
loop_
_symmetry_equiv_pos_as_xyz
  x,y,z
_cell_length_a	15.8274
_cell_length_b	9.6221
_cell_length_c	20.2022
_cell_angle_alpha	90
_cell_angle_beta	96.855
_cell_angle_gamma	90
loop_
_atom_site_label
_atom_site_type_symbol
_atom_site_fract_x
_atom_site_fract_y
_atom_site_fract_z
_atom_site_charge
Mof_U 	U 	0.28412	0.53175	0.49231	-0.002
Mof_U 	U 	0.11439	0.7833	0.72436	0.015
Mof_O 	O 	0.3484	0.7241	0.5612	-0.169
Mof_O 	O 	0.3841	0.515	0.5954	-0.195
Mof_O 	O 	0.2474	0.7032	0.6746	-0.177
Mof_O 	O 	0.2642	0.8457	0.76	-0.188
Mof_O 	O 	0.8092	0.5598	0.5931	-0.156
Mof_O 	O 	0.866	0.4402	0.6807	-0.146
Mof_O 	O 	0.9837	0.8226	0.7808	-0.155
Mof_O 	O 	0.9671	0.7054	0.6872	-0.16
Mof_C 	C 	0.5694	0.7579	0.7286	0.04
Mof_C 	C 	0.5191	0.6996	0.6745	-0.06
Mof_H 	H 	0.5462	0.6556	0.6405	0.073
Mof_C 	C 	0.4301	0.7034	0.6682	-0.01
Mof_C 	C 	0.3901	0.7672	0.7188	-0.042
Mof_C 	C 	0.4394	0.8255	0.7735	0.009
Mof_H 	H 	0.4125	0.8673	0.8081	0.057
Mof_C 	C 	0.5267	0.8229	0.7777	-0.075
Mof_H 	H 	0.5592	0.8659	0.8147	0.085
Mof_C 	C 	0.3839	0.6457	0.6056	0.27
Mof_C 	C 	0.2949	0.772	0.7174	0.279
Mof_C 	C 	0.6636	0.753	0.7341	0.032
Mof_C 	C 	0.7036	0.6569	0.6969	-0.047
Mof_H 	H 	0.6697	0.5932	0.6693	0.074
Mof_C 	C 	0.7921	0.6512	0.699	0.004
Mof_C 	C 	0.8421	0.7455	0.7404	-0.021
Mof_C 	C 	0.803	0.8397	0.7789	0.002
Mof_H 	H 	0.8369	0.9011	0.8078	0.084
Mof_C 	C 	0.7163	0.8453	0.7759	-0.053
Mof_H 	H 	0.6909	0.9117	0.8021	0.082
Mof_C 	C 	0.8264	0.5423	0.6568	0.272
Mof_C 	C 	0.9365	0.7566	0.7365	0.275
Mof_U 	U 	0.71588	0.03175	0.00769	-0.001
Mof_U 	U 	0.88561	0.2833	0.77564	0.016
Mof_O 	O 	0.6516	0.2241	0.9388	-0.168
Mof_O 	O 	0.6159	0.015	0.9046	-0.194
Mof_O 	O 	0.7526	0.2032	0.8254	-0.177
Mof_O 	O 	0.7358	0.3457	0.74	-0.188
Mof_O 	O 	0.1908	0.0598	0.9069	-0.156
Mof_O 	O 	0.134	0.9402	0.8193	-0.145
Mof_O 	O 	0.0163	0.3226	0.7192	-0.155
Mof_O 	O 	0.0329	0.2054	0.8128	-0.16
Mof_C 	C 	0.4306	0.2579	0.7714	0.04
Mof_C 	C 	0.4809	0.1996	0.8255	-0.06
Mof_H 	H 	0.4538	0.1556	0.8595	0.073
Mof_C 	C 	0.5699	0.2034	0.8318	-0.01
Mof_C 	C 	0.6099	0.2672	0.7812	-0.042
Mof_C 	C 	0.5606	0.3255	0.7265	0.009
Mof_H 	H 	0.5875	0.3673	0.6919	0.057
Mof_C 	C 	0.4733	0.3229	0.7223	-0.075
Mof_H 	H 	0.4408	0.3659	0.6853	0.085
Mof_C 	C 	0.6161	0.1457	0.8944	0.27
Mof_C 	C 	0.7051	0.272	0.7826	0.279
Mof_C 	C 	0.3364	0.253	0.7659	0.032
Mof_C 	C 	0.2964	0.1569	0.8031	-0.047
Mof_H 	H 	0.3303	0.0932	0.8307	0.074
Mof_C 	C 	0.2079	0.1512	0.801	0.004
Mof_C 	C 	0.1579	0.2455	0.7596	-0.021
Mof_C 	C 	0.197	0.3397	0.7211	0.002
Mof_H 	H 	0.1631	0.4011	0.6922	0.084
Mof_C 	C 	0.2837	0.3453	0.7241	-0.053
Mof_H 	H 	0.3091	0.4117	0.6979	0.082
Mof_C 	C 	0.1736	0.0423	0.8432	0.271
Mof_C 	C 	0.0635	0.2566	0.7635	0.275
Mof_U 	U 	0.71588	0.46825	0.50769	-0.001
Mof_U 	U 	0.88561	0.2167	0.27564	0.016
Mof_O 	O 	0.6516	0.2759	0.4388	-0.168
Mof_O 	O 	0.6159	0.485	0.4046	-0.194
Mof_O 	O 	0.7526	0.2968	0.3254	-0.177
Mof_O 	O 	0.7358	0.1543	0.24	-0.188
Mof_O 	O 	0.1908	0.4402	0.4069	-0.156
Mof_O 	O 	0.134	0.5598	0.3193	-0.146
Mof_O 	O 	0.0163	0.1774	0.2192	-0.155
Mof_O 	O 	0.0329	0.2946	0.3128	-0.16
Mof_C 	C 	0.4306	0.2421	0.2714	0.04
Mof_C 	C 	0.4809	0.3004	0.3255	-0.06
Mof_H 	H 	0.4538	0.3444	0.3595	0.073
Mof_C 	C 	0.5699	0.2966	0.3318	-0.01
Mof_C 	C 	0.6099	0.2328	0.2812	-0.042
Mof_C 	C 	0.5606	0.1745	0.2265	0.009
Mof_H 	H 	0.5875	0.1327	0.1919	0.057
Mof_C 	C 	0.4733	0.1771	0.2223	-0.075
Mof_H 	H 	0.4408	0.1341	0.1853	0.085
Mof_C 	C 	0.6161	0.3543	0.3944	0.27
Mof_C 	C 	0.7051	0.228	0.2826	0.279
Mof_C 	C 	0.3364	0.247	0.2659	0.032
Mof_C 	C 	0.2964	0.3431	0.3031	-0.047
Mof_H 	H 	0.3303	0.4068	0.3307	0.074
Mof_C 	C 	0.2079	0.3488	0.301	0.004
Mof_C 	C 	0.1579	0.2545	0.2596	-0.021
Mof_C 	C 	0.197	0.1603	0.2211	0.002
Mof_H 	H 	0.1631	0.0989	0.1922	0.084
Mof_C 	C 	0.2837	0.1547	0.2241	-0.053
Mof_H 	H 	0.3091	0.0883	0.1979	0.082
Mof_C 	C 	0.1736	0.4577	0.3432	0.272
Mof_C 	C 	0.0635	0.2434	0.2635	0.275
Mof_U 	U 	0.28412	0.96825	0.99231	-0.001
Mof_U 	U 	0.11439	0.7167	0.22436	0.016
Mof_O 	O 	0.3484	0.7759	0.0612	-0.168
Mof_O 	O 	0.3841	0.985	0.0954	-0.194
Mof_O 	O 	0.2474	0.7968	0.1746	-0.177
Mof_O 	O 	0.2642	0.6543	0.26	-0.188
Mof_O 	O 	0.8092	0.9402	0.0931	-0.156
Mof_O 	O 	0.866	0.0598	0.1807	-0.145
Mof_O 	O 	0.9837	0.6774	0.2808	-0.155
Mof_O 	O 	0.9671	0.7946	0.1872	-0.16
Mof_C 	C 	0.5694	0.7421	0.2286	0.04
Mof_C 	C 	0.5191	0.8004	0.1745	-0.06
Mof_H 	H 	0.5462	0.8444	0.1405	0.073
Mof_C 	C 	0.4301	0.7966	0.1682	-0.01
Mof_C 	C 	0.3901	0.7328	0.2188	-0.042
Mof_C 	C 	0.4394	0.6745	0.2735	0.009
Mof_H 	H 	0.4125	0.6327	0.3081	0.057
Mof_C 	C 	0.5267	0.6771	0.2777	-0.075
Mof_H 	H 	0.5592	0.6341	0.3147	0.085
Mof_C 	C 	0.3839	0.8543	0.1056	0.27
Mof_C 	C 	0.2949	0.728	0.2174	0.279
Mof_C 	C 	0.6636	0.747	0.2341	0.032
Mof_C 	C 	0.7036	0.8431	0.1969	-0.047
Mof_H 	H 	0.6697	0.9068	0.1693	0.074
Mof_C 	C 	0.7921	0.8488	0.199	0.004
Mof_C 	C 	0.8421	0.7545	0.2404	-0.021
Mof_C 	C 	0.803	0.6603	0.2789	0.002
Mof_H 	H 	0.8369	0.5989	0.3078	0.084
Mof_C 	C 	0.7163	0.6547	0.2759	-0.053
Mof_H 	H 	0.6909	0.5883	0.3021	0.082
Mof_C 	C 	0.8264	0.9577	0.1568	0.271
Mof_C 	C 	0.9365	0.7434	0.2365	0.275
_end
