data_functionalizedCrystal
_audit_creation_method	'EQeq! by Chris Wilmer'
_symmetry_space_group_name_H-M	'P1'
_symmetry_Int_Tables_number	1
_symmetry_cell_setting	triclinic
loop_
_symmetry_equiv_pos_as_xyz
  x,y,z
_cell_length_a	17.591
_cell_length_b	19.058
_cell_length_c	22.781
_cell_angle_alpha	90
_cell_angle_beta	90
_cell_angle_gamma	93.225
loop_
_atom_site_label
_atom_site_type_symbol
_atom_site_fract_x
_atom_site_fract_y
_atom_site_fract_z
_atom_site_charge
Mof_Ni	Ni	0.98216	0.17534	0.36096	1.067
Mof_Ni	Ni	0.46064	0.45043	0.37481	1.137
Mof_Ni	Ni	0.54118	0.61919	0.41527	1.131
Mof_Ni	Ni	0.01784	0.32466	0.86096	1.062
Mof_Ni	Ni	0.53936	0.04957	0.87481	1.133
Mof_Ni	Ni	0.45882	0.88081	0.91527	1.13
Mof_Ni	Ni	0.01784	0.82466	0.63904	1.06
Mof_Ni	Ni	0.53936	0.54957	0.62519	1.136
Mof_Ni	Ni	0.45882	0.38081	0.58473	1.129
Mof_Ni	Ni	0.98216	0.67534	0.13904	1.066
Mof_Ni	Ni	0.46064	0.95043	0.12519	1.139
Mof_Ni	Ni	0.54118	0.11919	0.08473	1.129
Mof_Ni	Ni	0.5	0.5	0.5	1.104
Mof_Ni	Ni	0.5	0	-0	1.093
Mof_H 	H 	0.3916	0.0124	0.3544	-0.053
Mof_H 	H 	0.3539	0.1091	0.409	0.184
Mof_H 	H 	0.646	0.9077	0.2363	0.007
Mof_H 	H 	0.6847	0.2229	0.2044	0.08
Mof_H 	H 	0.9528	0.2563	0.2108	0.068
Mof_H 	H 	0.2886	0.397	0.5801	-0.001
Mof_H 	H 	0.8523	0.0192	0.3471	0.13
Mof_H 	H 	0.9178	0.9926	0.3868	0.154
Mof_H 	H 	0.7613	0.8767	0.2711	0.122
Mof_H 	H 	0.2234	0.4097	0.4116	0.015
Mof_H 	H 	0.9257	0.4449	0.5153	0.057
Mof_H 	H 	0.0431	0.1821	0.5177	0.129
Mof_H 	H 	0.1064	0.2247	0.4818	0.116
Mof_H 	H 	0.0283	0.0403	0.4325	0.074
Mof_H 	H 	0.0341	0.0708	0.4967	0.088
Mof_H 	H 	0.0996	0.3742	0.4392	0.101
Mof_H 	H 	0.8823	0.2929	0.1318	0.057
Mof_H 	H 	0.3211	0.2601	0.3831	0.146
Mof_H 	H 	0.2801	0.2023	0.4228	0.139
Mof_H 	H 	0.7837	0.4147	0.3775	0.038
Mof_H 	H 	0.1211	0.1636	0.2406	0.081
Mof_H 	H 	0.7524	0.281	0.1304	0.076
Mof_H 	H 	0.9169	0.9066	0.2271	0.097
Mof_H 	H 	0.8946	0.9093	0.2936	0.11
Mof_H 	H 	0.8293	0.481	0.456	0.052
Mof_H 	H 	0.6282	0.37	0.3792	0.004
Mof_H 	H 	0.1673	0.1407	0.4394	0.135
Mof_H 	H 	0.1317	0.0983	0.3856	0.109
Mof_H 	H 	0.5867	0.1316	0.4121	0.108
Mof_H 	H 	0.0142	0.9564	0.1554	0.035
Mof_H 	H 	0.6869	0.2898	0.3215	0.109
Mof_H 	H 	0.0361	0.3324	0.2633	0.057
Mof_H 	H 	0.1141	0.418	0.2214	0.062
Mof_H 	H 	0.523	0.214	0.4678	0.013
Mof_H 	H 	0.297	0.3501	0.3036	0.088
Mof_H 	H 	0.1641	0.124	0.1518	0.029
Mof_H 	H 	0.1126	0.0186	0.1109	0.059
Mof_H 	H 	0.3327	0.1074	0.2134	-0.059
Mof_H 	H 	0.2881	0.1943	0.2688	0.2
Mof_H 	H 	0.2416	0.4248	0.2388	0.055
Mof_H 	H 	0.9181	0.1248	0.483	0.084
Mof_H 	H 	0.9059	0.0431	0.4745	0.091
Mof_H 	H 	0.7863	0.0922	0.3996	0.119
Mof_H 	H 	0.8227	0.1627	0.4262	0.104
Mof_H 	H 	0.8393	0.3107	0.3526	0.067
Mof_H 	H 	0.1673	0.3599	0.6058	0.106
Mof_H 	H 	0.8571	0.0599	0.2108	0.117
Mof_H 	H 	0.7416	0.089	0.1772	-0.002
Mof_H 	H 	0.6503	0.1425	0.2857	0.101
Mof_H 	H 	0.6805	0.1051	0.3417	0.092
Mof_H 	H 	0.0191	0.3765	0.5672	0.09
Mof_H 	H 	0.0463	0.3	0.574	0.096
Mof_H 	H 	0.6084	0.4876	0.8544	-0.038
Mof_H 	H 	0.6461	0.3909	0.909	0.179
Mof_H 	H 	0.354	0.5923	0.7363	0.021
Mof_H 	H 	0.3153	0.2771	0.7044	0.08
Mof_H 	H 	0.0472	0.2437	0.7108	0.064
Mof_H 	H 	0.7114	0.103	0.0801	0.016
Mof_H 	H 	0.1477	0.4808	0.8471	0.128
Mof_H 	H 	0.0822	0.5074	0.8868	0.138
Mof_H 	H 	0.2387	0.6233	0.7711	0.109
Mof_H 	H 	0.7766	0.0903	0.9116	0.026
Mof_H 	H 	0.0743	0.0551	0.0153	0.031
Mof_H 	H 	0.9569	0.3179	0.0177	0.109
Mof_H 	H 	0.8936	0.2753	0.9818	0.11
Mof_H 	H 	0.9717	0.4597	0.9325	0.077
Mof_H 	H 	0.9659	0.4292	0.9967	0.094
Mof_H 	H 	0.9004	0.1258	0.9392	0.087
Mof_H 	H 	0.1177	0.2071	0.6318	0.057
Mof_H 	H 	0.6789	0.2399	0.8831	0.143
Mof_H 	H 	0.7199	0.2977	0.9228	0.139
Mof_H 	H 	0.2163	0.0853	0.8775	0.03
Mof_H 	H 	0.8789	0.3364	0.7406	0.071
Mof_H 	H 	0.2476	0.219	0.6304	0.076
Mof_H 	H 	0.0831	0.5934	0.7271	0.085
Mof_H 	H 	0.1054	0.5907	0.7936	0.101
Mof_H 	H 	0.1707	0.019	0.956	0.06
Mof_H 	H 	0.3718	0.13	0.8792	0.001
Mof_H 	H 	0.8327	0.3593	0.9394	0.139
Mof_H 	H 	0.8683	0.4017	0.8856	0.112
Mof_H 	H 	0.4133	0.3684	0.9121	0.113
Mof_H 	H 	0.9858	0.5436	0.6554	0.06
Mof_H 	H 	0.3131	0.2102	0.8215	0.111
Mof_H 	H 	0.9639	0.1676	0.7633	0.062
Mof_H 	H 	0.8859	0.082	0.7214	0.06
Mof_H 	H 	0.477	0.286	0.9678	0.015
Mof_H 	H 	0.703	0.1499	0.8036	0.087
Mof_H 	H 	0.8359	0.376	0.6518	0.044
Mof_H 	H 	0.8874	0.4814	0.6109	0.043
Mof_H 	H 	0.6673	0.3926	0.7134	-0.047
Mof_H 	H 	0.7119	0.3057	0.7688	0.19
Mof_H 	H 	0.7584	0.0752	0.7388	0.053
Mof_H 	H 	0.0819	0.3752	0.983	0.091
Mof_H 	H 	0.0941	0.4569	0.9745	0.103
Mof_H 	H 	0.2137	0.4078	0.8996	0.123
Mof_H 	H 	0.1773	0.3373	0.9262	0.107
Mof_H 	H 	0.1607	0.1893	0.8526	0.072
Mof_H 	H 	0.8327	0.1401	0.1058	0.091
Mof_H 	H 	0.1429	0.4401	0.7108	0.102
Mof_H 	H 	0.2584	0.411	0.6772	0.009
Mof_H 	H 	0.3497	0.3575	0.7857	0.102
Mof_H 	H 	0.3195	0.3949	0.8417	0.094
Mof_H 	H 	0.9809	0.1235	0.0672	0.087
Mof_H 	H 	0.9537	0.2	0.074	0.092
Mof_H 	H 	0.6084	0.9876	0.6456	-0.022
Mof_H 	H 	0.6461	0.8909	0.591	0.165
Mof_H 	H 	0.354	0.0923	0.7637	0.032
Mof_H 	H 	0.3153	0.7771	0.7956	0.08
Mof_H 	H 	0.0472	0.7437	0.7892	0.063
Mof_H 	H 	0.7114	0.603	0.4199	-0
Mof_H 	H 	0.1477	0.9808	0.6529	0.126
Mof_H 	H 	0.0822	0.0074	0.6132	0.126
Mof_H 	H 	0.2387	0.1233	0.7289	0.097
Mof_H 	H 	0.7766	0.5903	0.5884	0.015
Mof_H 	H 	0.0743	0.5551	0.4847	0.055
Mof_H 	H 	0.9569	0.8179	0.4823	0.13
Mof_H 	H 	0.8936	0.7753	0.5182	0.115
Mof_H 	H 	0.9717	0.9597	0.5675	0.08
Mof_H 	H 	0.9659	0.9292	0.5033	0.09
Mof_H 	H 	0.9004	0.6258	0.5608	0.103
Mof_H 	H 	0.1177	0.7071	0.8682	0.058
Mof_H 	H 	0.6789	0.7399	0.6169	0.137
Mof_H 	H 	0.7199	0.7977	0.5772	0.13
Mof_H 	H 	0.2163	0.5853	0.6225	0.038
Mof_H 	H 	0.8789	0.8364	0.7594	0.059
Mof_H 	H 	0.2476	0.719	0.8696	0.077
Mof_H 	H 	0.0831	0.0934	0.7729	0.078
Mof_H 	H 	0.1054	0.0907	0.7064	0.094
Mof_H 	H 	0.1707	0.519	0.544	0.051
Mof_H 	H 	0.3718	0.63	0.6208	0.004
Mof_H 	H 	0.8327	0.8593	0.5606	0.137
Mof_H 	H 	0.8683	0.9017	0.6144	0.113
Mof_H 	H 	0.4133	0.8684	0.5879	0.111
Mof_H 	H 	0.9858	0.0436	0.8446	0.085
Mof_H 	H 	0.3131	0.7102	0.6785	0.11
Mof_H 	H 	0.9639	0.6676	0.7367	0.062
Mof_H 	H 	0.8859	0.582	0.7786	0.063
Mof_H 	H 	0.477	0.786	0.5322	0.014
Mof_H 	H 	0.703	0.6499	0.6964	0.088
Mof_H 	H 	0.8359	0.876	0.8482	0.063
Mof_H 	H 	0.8874	0.9814	0.8891	0.024
Mof_H 	H 	0.6673	0.8926	0.7866	-0.03
Mof_H 	H 	0.7119	0.8057	0.7312	0.177
Mof_H 	H 	0.7584	0.5752	0.7612	0.056
Mof_H 	H 	0.0819	0.8752	0.517	0.087
Mof_H 	H 	0.0941	0.9569	0.5255	0.102
Mof_H 	H 	0.2137	0.9078	0.6004	0.123
Mof_H 	H 	0.1773	0.8373	0.5738	0.105
Mof_H 	H 	0.1607	0.6893	0.6474	0.067
Mof_H 	H 	0.8327	0.6401	0.3942	0.106
Mof_H 	H 	0.1429	0.9401	0.7892	0.088
Mof_H 	H 	0.2584	0.911	0.8228	0.02
Mof_H 	H 	0.3497	0.8575	0.7143	0.103
Mof_H 	H 	0.3195	0.8949	0.6583	0.095
Mof_H 	H 	0.9809	0.6235	0.4328	0.092
Mof_H 	H 	0.9537	0.7	0.426	0.096
Mof_H 	H 	0.3916	0.5124	0.1456	-0.039
Mof_H 	H 	0.3539	0.6091	0.091	0.172
Mof_H 	H 	0.646	0.4077	0.2637	0.02
Mof_H 	H 	0.6847	0.7229	0.2956	0.08
Mof_H 	H 	0.9528	0.7563	0.2892	0.069
Mof_H 	H 	0.2886	0.897	0.9199	-0.016
Mof_H 	H 	0.8523	0.5192	0.1529	0.128
Mof_H 	H 	0.9178	0.4926	0.1132	0.139
Mof_H 	H 	0.7613	0.3767	0.2289	0.109
Mof_H 	H 	0.2234	0.9097	0.0884	0.005
Mof_H 	H 	0.9257	0.9449	0.9847	0.092
Mof_H 	H 	0.0431	0.6821	0.9823	0.146
Mof_H 	H 	0.1064	0.7247	0.0182	0.12
Mof_H 	H 	0.0283	0.5403	0.0675	0.076
Mof_H 	H 	0.0341	0.5708	0.0033	0.085
Mof_H 	H 	0.0996	0.8742	0.0608	0.115
Mof_H 	H 	0.8823	0.7929	0.3682	0.057
Mof_H 	H 	0.3211	0.7601	0.1169	0.14
Mof_H 	H 	0.2801	0.7023	0.0772	0.132
Mof_H 	H 	0.7837	0.9147	0.1225	0.05
Mof_H 	H 	0.1211	0.6636	0.2594	0.072
Mof_H 	H 	0.7524	0.781	0.3696	0.077
Mof_H 	H 	0.9169	0.4066	0.2729	0.089
Mof_H 	H 	0.8946	0.4093	0.2064	0.103
Mof_H 	H 	0.8293	0.981	0.044	0.038
Mof_H 	H 	0.6282	0.87	0.1208	0.007
Mof_H 	H 	0.1673	0.6407	0.0606	0.133
Mof_H 	H 	0.1317	0.5983	0.1144	0.11
Mof_H 	H 	0.5867	0.6316	0.0879	0.107
Mof_H 	H 	0.0142	0.4564	0.3446	0.053
Mof_H 	H 	0.6869	0.7898	0.1785	0.108
Mof_H 	H 	0.0361	0.8324	0.2367	0.056
Mof_H 	H 	0.1141	0.918	0.2786	0.064
Mof_H 	H 	0.523	0.714	0.0322	0.012
Mof_H 	H 	0.297	0.8501	0.1964	0.089
Mof_H 	H 	0.1641	0.624	0.3482	0.042
Mof_H 	H 	0.1126	0.5186	0.3891	0.045
Mof_H 	H 	0.3327	0.6074	0.2866	-0.045
Mof_H 	H 	0.2881	0.6943	0.2312	0.188
Mof_H 	H 	0.2416	0.9248	0.2612	0.057
Mof_H 	H 	0.9181	0.6248	0.017	0.079
Mof_H 	H 	0.9059	0.5431	0.0255	0.09
Mof_H 	H 	0.7863	0.5922	0.1004	0.12
Mof_H 	H 	0.8227	0.6627	0.0738	0.103
Mof_H 	H 	0.8393	0.8107	0.1474	0.06
Mof_H 	H 	0.1673	0.8599	0.8942	0.119
Mof_H 	H 	0.8571	0.5599	0.2892	0.104
Mof_H 	H 	0.7416	0.589	0.3228	0.009
Mof_H 	H 	0.6503	0.6425	0.2143	0.101
Mof_H 	H 	0.6805	0.6051	0.1583	0.092
Mof_H 	H 	0.0191	0.8765	0.9328	0.094
Mof_H 	H 	0.0463	0.8	0.926	0.099
Mof_C 	C 	0.3732	0.0509	0.3351	0.305
Mof_C 	C 	0.3478	0.1094	0.3684	-0.411
Mof_C 	C 	0.7801	0.2064	0.2537	0.041
Mof_C 	C 	0.9121	0.314	0.4217	0.065
Mof_C 	C 	0.937	0.3527	0.4697	0.041
Mof_C 	C 	0.6431	0.203	0.36	0.169
Mof_C 	C 	0.1207	0.3634	0.5266	0.157
Mof_C 	C 	0.8229	0.1628	0.3359	0.137
Mof_C 	C 	1.86171e-18	0.2574	0.4658	0.133
Mof_C 	C 	0.6888	0.9378	0.2306	0.144
Mof_C 	C 	0.6079	0.0185	0.1716	0.388
Mof_C 	C 	0.7374	0.2298	0.206	-0.078
Mof_C 	C 	0.9	0.2494	0.2101	-0.11
Mof_C 	C 	0.2513	0.3911	0.5513	0.116
Mof_C 	C 	0.1971	0.2939	0.3216	0.044
Mof_C 	C 	0.9032	0.031	0.3619	-0.271
Mof_C 	C 	0.9562	0.0389	0.3125	0.153
Mof_C 	C 	0.7581	0.9187	0.2509	-0.236
Mof_C 	C 	0.2121	0.399	0.4506	0.098
Mof_C 	C 	0.0113	0.022	0.2275	-0.007
Mof_C 	C 	0.3167	0.1625	0.3446	0.403
Mof_C 	C 	0.1425	0.2041	0.3704	0.133
Mof_C 	C 	0.9076	0.4178	0.4837	-0.069
Mof_C 	C 	0.0553	0.2029	0.4797	-0.229
Mof_C 	C 	0.0156	0.0793	0.4573	-0.117
Mof_C 	C 	0.3509	0.4243	0.4753	0.405
Mof_C 	C 	0.119	0.2874	0.3096	0.058
Mof_C 	C 	0.1379	0.3783	0.4673	-0.189
Mof_C 	C 	0.8572	0.2715	0.1636	-0.017
Mof_C 	C 	0.2855	0.2194	0.3828	-0.322
Mof_C 	C 	0.8235	0.3989	0.3999	-0.007
Mof_C 	C 	0.1006	0.122	0.2243	-0.142
Mof_C 	C 	0.7783	0.2632	0.1622	-0.042
Mof_C 	C 	0.8995	0.937	0.2579	-0.203
Mof_C 	C 	0.8508	0.4386	0.448	-0.041
Mof_C 	C 	0.6195	0.3221	0.3861	0.12
Mof_C 	C 	0.5356	0.3522	0.4693	0.403
Mof_C 	C 	0.1293	0.1411	0.4085	-0.243
Mof_C 	C 	0.5947	0.1794	0.4047	-0.198
Mof_C 	C 	0.3704	0.0518	0.2774	-0.353
Mof_C 	C 	0.0364	0.9969	0.1725	-0.013
Mof_C 	C 	0.6545	0.2737	0.3515	-0.198
Mof_C 	C 	0.088	0.3352	0.2715	-0.094
Mof_C 	C 	0.1346	0.3857	0.2466	-0.018
Mof_C 	C 	0.5576	0.2293	0.439	0.12
Mof_C 	C 	0.2451	0.3459	0.2956	-0.086
Mof_C 	C 	0.1256	0.0983	0.1716	0.028
Mof_C 	C 	0.0934	0.0343	0.1463	-0.091
Mof_C 	C 	0.3982	0.9936	0.2398	0.464
Mof_C 	C 	0.338	0.1052	0.254	0.348
Mof_C 	C 	0.3116	0.1584	0.2881	-0.445
Mof_C 	C 	0.2113	0.3902	0.2578	-0.014
Mof_C 	C 	0.86	0.2161	0.2561	0.057
Mof_C 	C 	0.9306	0.0856	0.4583	-0.117
Mof_C 	C 	0.827	0.1283	0.3952	-0.234
Mof_C 	C 	0.8554	0.3365	0.3854	-0.113
Mof_C 	C 	0.2694	0.4035	0.4933	-0.169
Mof_C 	C 	0.8233	0.9612	0.2416	0.19
Mof_C 	C 	0.1781	0.37	0.5667	-0.21
Mof_C 	C 	0.8151	0.0284	0.2148	-0.233
Mof_C 	C 	0.0435	0.0821	0.253	0.091
Mof_C 	C 	0.746	0.0457	0.1954	0.134
Mof_C 	C 	0.6816	0.0014	0.2016	-0.191
Mof_C 	C 	0.5719	0.2989	0.4304	-0.176
Mof_C 	C 	0.6805	0.1497	0.3211	-0.18
Mof_C 	C 	0.0421	0.3386	0.5466	-0.186
Mof_C 	C 	0.6268	0.4491	0.8351	0.276
Mof_C 	C 	0.6522	0.3906	0.8684	-0.385
Mof_C 	C 	0.2199	0.2936	0.7537	0.041
Mof_C 	C 	0.0879	0.186	0.9217	0.074
Mof_C 	C 	0.063	0.1473	0.9697	0.026
Mof_C 	C 	0.3569	0.297	0.86	0.174
Mof_C 	C 	0.8793	0.1366	0.0266	0.112
Mof_C 	C 	0.1771	0.3372	0.8359	0.138
Mof_C 	C 	-1.01391e-18	0.2426	0.9658	0.129
Mof_C 	C 	0.3112	0.5622	0.7306	0.101
Mof_C 	C 	0.3921	0.4815	0.6716	0.39
Mof_C 	C 	0.2626	0.2702	0.706	-0.08
Mof_C 	C 	0.1	0.2506	0.7101	-0.109
Mof_C 	C 	0.7487	0.1089	0.0513	0.063
Mof_C 	C 	0.8029	0.2061	0.8216	0.044
Mof_C 	C 	0.0968	0.469	0.8619	-0.249
Mof_C 	C 	0.0438	0.4611	0.8125	0.149
Mof_C 	C 	0.2419	0.5813	0.7509	-0.2
Mof_C 	C 	0.7879	0.101	0.9506	0.063
Mof_C 	C 	0.9887	0.478	0.7275	0.045
Mof_C 	C 	0.6833	0.3375	0.8446	0.38
Mof_C 	C 	0.8575	0.2959	0.8704	0.135
Mof_C 	C 	0.0924	0.0822	0.9837	-0.031
Mof_C 	C 	0.9447	0.2971	0.9797	-0.19
Mof_C 	C 	0.9844	0.4207	0.9573	-0.098
Mof_C 	C 	0.6491	0.0757	0.9753	0.409
Mof_C 	C 	0.881	0.2126	0.8096	0.061
Mof_C 	C 	0.8621	0.1217	0.9673	-0.14
Mof_C 	C 	0.1428	0.2285	0.6636	-0.019
Mof_C 	C 	0.7145	0.2806	0.8828	-0.311
Mof_C 	C 	0.1765	0.1011	0.8999	0.012
Mof_C 	C 	0.8994	0.378	0.7243	-0.109
Mof_C 	C 	0.2217	0.2368	0.6622	-0.04
Mof_C 	C 	0.1005	0.563	0.7579	-0.179
Mof_C 	C 	0.1492	0.0614	0.948	-0.069
Mof_C 	C 	0.3805	0.1779	0.8861	0.127
Mof_C 	C 	0.4644	0.1478	0.9693	0.421
Mof_C 	C 	0.8707	0.3589	0.9085	-0.244
Mof_C 	C 	0.4053	0.3206	0.9047	-0.202
Mof_C 	C 	0.6296	0.4482	0.7774	-0.315
Mof_C 	C 	0.9636	0.5031	0.6725	-0.076
Mof_C 	C 	0.3455	0.2263	0.8515	-0.203
Mof_C 	C 	0.912	0.1648	0.7715	-0.097
Mof_C 	C 	0.8654	0.1143	0.7466	-0.016
Mof_C 	C 	0.4424	0.2707	0.939	0.128
Mof_C 	C 	0.7549	0.1541	0.7956	-0.085
Mof_C 	C 	0.8744	0.4017	0.6716	-0.009
Mof_C 	C 	0.9066	0.4657	0.6463	-0.034
Mof_C 	C 	0.6018	0.5064	0.7398	0.431
Mof_C 	C 	0.662	0.3948	0.754	0.315
Mof_C 	C 	0.6884	0.3416	0.7881	-0.416
Mof_C 	C 	0.7887	0.1098	0.7578	-0.016
Mof_C 	C 	0.14	0.2839	0.7561	0.055
Mof_C 	C 	0.0694	0.4144	0.9583	-0.137
Mof_C 	C 	0.173	0.3717	0.8952	-0.236
Mof_C 	C 	0.1446	0.1635	0.8854	-0.128
Mof_C 	C 	0.7306	0.0965	0.9933	-0.13
Mof_C 	C 	0.1767	0.5388	0.7416	0.15
Mof_C 	C 	0.8219	0.13	0.0667	-0.168
Mof_C 	C 	0.1849	0.4716	0.7148	-0.188
Mof_C 	C 	0.9565	0.4179	0.753	0.068
Mof_C 	C 	0.254	0.4543	0.6954	0.1
Mof_C 	C 	0.3184	0.4986	0.7016	-0.157
Mof_C 	C 	0.4281	0.2011	0.9304	-0.183
Mof_C 	C 	0.3195	0.3503	0.8211	-0.183
Mof_C 	C 	0.9579	0.1614	0.0466	-0.169
Mof_C 	C 	0.6268	0.9491	0.6649	0.235
Mof_C 	C 	0.6522	0.8906	0.6316	-0.348
Mof_C 	C 	0.2199	0.7936	0.7463	0.041
Mof_C 	C 	0.0879	0.686	0.5783	0.064
Mof_C 	C 	0.063	0.6473	0.5303	0.039
Mof_C 	C 	0.3569	0.797	0.64	0.171
Mof_C 	C 	0.8793	0.6366	0.4734	0.156
Mof_C 	C 	0.1771	0.8372	0.6641	0.138
Mof_C 	C 	-1.58285e-19	0.7426	0.5342	0.134
Mof_C 	C 	0.3112	0.0622	0.7694	0.061
Mof_C 	C 	0.3921	0.9815	0.8284	0.394
Mof_C 	C 	0.2626	0.7702	0.794	-0.08
Mof_C 	C 	0.1	0.7506	0.7899	-0.109
Mof_C 	C 	0.7487	0.6089	0.4487	0.115
Mof_C 	C 	0.8029	0.7061	0.6784	0.046
Mof_C 	C 	0.0968	0.969	0.6381	-0.234
Mof_C 	C 	0.0438	0.9611	0.6875	0.153
Mof_C 	C 	0.2419	0.0813	0.7491	-0.167
Mof_C 	C 	0.7879	0.601	0.5494	0.098
Mof_C 	C 	0.9887	0.978	0.7725	0.095
Mof_C 	C 	0.6833	0.8375	0.6554	0.345
Mof_C 	C 	0.8575	0.7959	0.6296	0.136
Mof_C 	C 	0.0924	0.5822	0.5163	-0.07
Mof_C 	C 	0.9447	0.7971	0.5203	-0.223
Mof_C 	C 	0.9844	0.9207	0.5427	-0.101
Mof_C 	C 	0.6491	0.5757	0.5247	0.405
Mof_C 	C 	0.881	0.7126	0.6904	0.061
Mof_C 	C 	0.8621	0.6217	0.5327	-0.187
Mof_C 	C 	0.1428	0.7285	0.8364	-0.02
Mof_C 	C 	0.7145	0.7806	0.6172	-0.29
Mof_C 	C 	0.1765	0.6011	0.6001	-0.007
Mof_C 	C 	0.8994	0.878	0.7757	-0.072
Mof_C 	C 	0.2217	0.7368	0.8378	-0.041
Mof_C 	C 	0.1005	0.063	0.7421	-0.157
Mof_C 	C 	0.1492	0.5614	0.552	-0.042
Mof_C 	C 	0.3805	0.6779	0.6139	0.121
Mof_C 	C 	0.4644	0.6478	0.5307	0.403
Mof_C 	C 	0.8707	0.8589	0.5915	-0.245
Mof_C 	C 	0.4053	0.8206	0.5953	-0.2
Mof_C 	C 	0.6296	0.9482	0.7226	-0.265
Mof_C 	C 	0.9636	0.0031	0.8275	-0.155
Mof_C 	C 	0.3455	0.7263	0.6485	-0.2
Mof_C 	C 	0.912	0.6648	0.7285	-0.095
Mof_C 	C 	0.8654	0.6143	0.7534	-0.016
Mof_C 	C 	0.4424	0.7707	0.561	0.122
Mof_C 	C 	0.7549	0.6541	0.7044	-0.085
Mof_C 	C 	0.8744	0.9017	0.8284	-0.054
Mof_C 	C 	0.9066	0.9657	0.8537	0.036
Mof_C 	C 	0.6018	0.0064	0.7602	0.389
Mof_C 	C 	0.662	0.8948	0.746	0.27
Mof_C 	C 	0.6884	0.8416	0.7119	-0.375
Mof_C 	C 	0.7887	0.6098	0.7422	-0.014
Mof_C 	C 	0.14	0.7839	0.7439	0.055
Mof_C 	C 	0.0694	0.9144	0.5417	-0.134
Mof_C 	C 	0.173	0.8717	0.6048	-0.235
Mof_C 	C 	0.1446	0.6635	0.6146	-0.114
Mof_C 	C 	0.7306	0.5965	0.5067	-0.168
Mof_C 	C 	0.1767	0.0388	0.7584	0.114
Mof_C 	C 	0.8219	0.63	0.4333	-0.208
Mof_C 	C 	0.1849	0.9716	0.7852	-0.147
Mof_C 	C 	0.9565	0.9179	0.747	0.041
Mof_C 	C 	0.254	0.9543	0.8046	0.07
Mof_C 	C 	0.3184	0.9986	0.7984	-0.126
Mof_C 	C 	0.4281	0.7011	0.5696	-0.177
Mof_C 	C 	0.3195	0.8503	0.6789	-0.183
Mof_C 	C 	0.9579	0.6614	0.4534	-0.176
Mof_C 	C 	0.3732	0.5509	0.1649	0.27
Mof_C 	C 	0.3478	0.6094	0.1316	-0.38
Mof_C 	C 	0.7801	0.7064	0.2463	0.04
Mof_C 	C 	0.9121	0.814	0.0783	0.051
Mof_C 	C 	0.937	0.8527	0.0303	0.061
Mof_C 	C 	0.6431	0.703	0.14	0.166
Mof_C 	C 	0.1207	0.8634	0.9734	0.197
Mof_C 	C 	0.8229	0.6628	0.1641	0.137
Mof_C 	C 	-2.87366e-18	0.7574	0.0342	0.136
Mof_C 	C 	0.6888	0.4378	0.2694	0.103
Mof_C 	C 	0.6079	0.5185	0.3284	0.39
Mof_C 	C 	0.7374	0.7298	0.294	-0.078
Mof_C 	C 	0.9	0.7494	0.2899	-0.111
Mof_C 	C 	0.2513	0.8911	0.9487	0.165
Mof_C 	C 	0.1971	0.7939	0.1784	0.046
Mof_C 	C 	0.9032	0.531	0.1381	-0.252
Mof_C 	C 	0.9562	0.5389	0.1875	0.16
Mof_C 	C 	0.7581	0.4187	0.2491	-0.202
Mof_C 	C 	0.2121	0.899	0.0494	0.13
Mof_C 	C 	0.0113	0.522	0.2725	0.029
Mof_C 	C 	0.3167	0.6625	0.1554	0.373
Mof_C 	C 	0.1425	0.7041	0.1296	0.134
Mof_C 	C 	0.9076	0.9178	0.0163	-0.126
Mof_C 	C 	0.0553	0.7029	0.0203	-0.256
Mof_C 	C 	0.0156	0.5793	0.0427	-0.12
Mof_C 	C 	0.3509	0.9243	0.0247	0.398
Mof_C 	C 	0.119	0.7874	0.1904	0.058
Mof_C 	C 	0.1379	0.8783	0.0327	-0.233
Mof_C 	C 	0.8572	0.7715	0.3364	-0.017
Mof_C 	C 	0.2855	0.7194	0.1172	-0.304
Mof_C 	C 	0.8235	0.8989	0.1001	-0.034
Mof_C 	C 	0.1006	0.622	0.2757	-0.116
Mof_C 	C 	0.7783	0.7632	0.3378	-0.043
Mof_C 	C 	0.8995	0.437	0.2421	-0.181
Mof_C 	C 	0.8508	0.9386	0.052	-0.001
Mof_C 	C 	0.6195	0.8221	0.1139	0.114
Mof_C 	C 	0.5356	0.8522	0.0307	0.382
Mof_C 	C 	0.1293	0.6411	0.0915	-0.243
Mof_C 	C 	0.5947	0.6794	0.0953	-0.195
Mof_C 	C 	0.3704	0.5518	0.2226	-0.311
Mof_C 	C 	0.0364	0.4969	0.3275	-0.067
Mof_C 	C 	0.6545	0.7737	0.1485	-0.194
Mof_C 	C 	0.088	0.8352	0.2285	-0.093
Mof_C 	C 	0.1346	0.8857	0.2534	-0.018
Mof_C 	C 	0.5576	0.7293	0.061	0.114
Mof_C 	C 	0.2451	0.8459	0.2044	-0.086
Mof_C 	C 	0.1256	0.5983	0.3284	-0.004
Mof_C 	C 	0.0934	0.5343	0.3537	-0.043
Mof_C 	C 	0.3982	0.4936	0.2602	0.429
Mof_C 	C 	0.338	0.6052	0.246	0.31
Mof_C 	C 	0.3116	0.6584	0.2119	-0.41
Mof_C 	C 	0.2113	0.8902	0.2422	-0.012
Mof_C 	C 	0.86	0.7161	0.2439	0.058
Mof_C 	C 	0.9306	0.5856	0.0417	-0.112
Mof_C 	C 	0.827	0.6283	0.1048	-0.233
Mof_C 	C 	0.8554	0.8365	0.1146	-0.092
Mof_C 	C 	0.2694	0.9035	0.0067	-0.204
Mof_C 	C 	0.8233	0.4612	0.2584	0.152
Mof_C 	C 	0.1781	0.87	0.9333	-0.246
Mof_C 	C 	0.8151	0.5284	0.2852	-0.19
Mof_C 	C 	0.0435	0.5821	0.247	0.072
Mof_C 	C 	0.746	0.5457	0.3046	0.102
Mof_C 	C 	0.6816	0.5014	0.2984	-0.158
Mof_C 	C 	0.5719	0.7989	0.0696	-0.169
Mof_C 	C 	0.6805	0.6497	0.1789	-0.179
Mof_C 	C 	0.0421	0.8386	0.9534	-0.191
Mof_N 	N 	0.9923	0.3152	0.4978	-0.109
Mof_N 	N 	0.7577	0.1711	0.3049	-0.115
Mof_N 	N 	0.8845	0.1886	0.3095	-0.248
Mof_N 	N 	0.9024	0.0969	0.3976	-0.122
Mof_N 	N 	0.9564	0.9945	0.2671	-0.096
Mof_N 	N 	0.0523	0.1467	0.4338	-0.126
Mof_N 	N 	0.9531	0.2525	0.4195	-0.246
Mof_N 	N 	0.0073	0.0926	0.3063	-0.257
Mof_N 	N 	0.2107	0.2401	0.3612	-0.099
Mof_N 	N 	0.0864	0.2313	0.3406	-0.248
Mof_N 	N 	0.0077	0.1848	0.9978	-0.109
Mof_N 	N 	0.2423	0.3289	0.8049	-0.115
Mof_N 	N 	0.1155	0.3114	0.8095	-0.249
Mof_N 	N 	0.0976	0.4031	0.8976	-0.122
Mof_N 	N 	0.0436	0.5055	0.7671	-0.119
Mof_N 	N 	0.9477	0.3533	0.9338	-0.129
Mof_N 	N 	0.0469	0.2475	0.9195	-0.25
Mof_N 	N 	0.9927	0.4074	0.8063	-0.245
Mof_N 	N 	0.7893	0.2599	0.8612	-0.1
Mof_N 	N 	0.9136	0.2687	0.8406	-0.246
Mof_N 	N 	0.0077	0.6848	0.5022	-0.118
Mof_N 	N 	0.2423	0.8289	0.6951	-0.115
Mof_N 	N 	0.1155	0.8114	0.6905	-0.249
Mof_N 	N 	0.0976	0.9031	0.6024	-0.125
Mof_N 	N 	0.0436	0.0055	0.7329	-0.137
Mof_N 	N 	0.9477	0.8533	0.5662	-0.125
Mof_N 	N 	0.0469	0.7475	0.5805	-0.249
Mof_N 	N 	0.9927	0.9074	0.6937	-0.241
Mof_N 	N 	0.7893	0.7599	0.6388	-0.103
Mof_N 	N 	0.9136	0.7687	0.6594	-0.245
Mof_N 	N 	0.9923	0.8152	0.0022	-0.119
Mof_N 	N 	0.7577	0.6711	0.1951	-0.115
Mof_N 	N 	0.8845	0.6886	0.1905	-0.248
Mof_N 	N 	0.9024	0.5969	0.1024	-0.124
Mof_N 	N 	0.9564	0.4945	0.2329	-0.113
Mof_N 	N 	0.0523	0.6467	0.0662	-0.124
Mof_N 	N 	0.9531	0.7525	0.0805	-0.245
Mof_N 	N 	0.0073	0.5926	0.1937	-0.255
Mof_N 	N 	0.2107	0.7401	0.1388	-0.101
Mof_N 	N 	0.0864	0.7313	0.1594	-0.248
Mof_O 	O 	0.5298	0.414	0.45	-0.51
Mof_O 	O 	0.4691	0.5389	0.42233	-0.556
Mof_O 	O 	0.4484	0.3556	0.3275	-0.24
Mof_O 	O 	0.5127	0.3302	0.5188	-0.406
Mof_O 	O 	0.4	0.0017	0.1865	-0.416
Mof_O 	O 	0.6093	0.7105	0.407	-0.252
Mof_O 	O 	0.4703	0.6617	0.3535	-0.233
Mof_O 	O 	0.3655	0.42	0.4214	-0.418
Mof_O 	O 	0.3974	0.4425	0.5154	-0.509
Mof_O 	O 	0.5564	0.9694	0.1704	-0.402
Mof_O 	O 	0.6044	0.0788	0.1497	-0.415
Mof_O 	O 	0.4141	0.9372	0.2641	-0.267
Mof_O 	O 	0.4702	0.086	0.95	-0.512
Mof_O 	O 	0.5309	0.9611	0.92233	-0.546
Mof_O 	O 	0.5516	0.1444	0.8275	-0.241
Mof_O 	O 	0.4873	0.1698	0.0188	-0.421
Mof_O 	O 	0.6	0.4983	0.6865	-0.398
Mof_O 	O 	0.3907	0.7895	0.907	-0.25
Mof_O 	O 	0.5297	0.8383	0.8535	-0.232
Mof_O 	O 	0.6345	0.08	0.9214	-0.421
Mof_O 	O 	0.6026	0.0575	0.0154	-0.522
Mof_O 	O 	0.4436	0.5306	0.6704	-0.41
Mof_O 	O 	0.3956	0.4212	0.6497	-0.414
Mof_O 	O 	0.5859	0.5628	0.7641	-0.261
Mof_O 	O 	0.4702	0.586	0.55	-0.51
Mof_O 	O 	0.5309	0.4611	0.57767	-0.556
Mof_O 	O 	0.5516	0.6444	0.6725	-0.239
Mof_O 	O 	0.4873	0.6698	0.4812	-0.405
Mof_O 	O 	0.6	0.9983	0.8135	-0.376
Mof_O 	O 	0.3907	0.2895	0.593	-0.254
Mof_O 	O 	0.5297	0.3383	0.6465	-0.233
Mof_O 	O 	0.6345	0.58	0.5786	-0.418
Mof_O 	O 	0.6026	0.5575	0.4846	-0.509
Mof_O 	O 	0.4436	0.0306	0.8296	-0.419
Mof_O 	O 	0.3956	0.9212	0.8503	-0.413
Mof_O 	O 	0.5859	0.0628	0.7359	-0.255
Mof_O 	O 	0.5298	0.914	0.05	-0.505
Mof_O 	O 	0.4691	0.0389	0.07767	-0.562
Mof_O 	O 	0.4484	0.8556	0.1725	-0.239
Mof_O 	O 	0.5127	0.8302	0.9812	-0.388
Mof_O 	O 	0.4	0.5017	0.3135	-0.398
Mof_O 	O 	0.6093	0.2105	0.093	-0.256
Mof_O 	O 	0.4703	0.1617	0.1465	-0.234
Mof_O 	O 	0.3655	0.92	0.0786	-0.415
Mof_O 	O 	0.3974	0.9425	0.9846	-0.492
Mof_O 	O 	0.5564	0.4694	0.3296	-0.41
Mof_O 	O 	0.6044	0.5788	0.3503	-0.414
Mof_O 	O 	0.4141	0.4372	0.2359	-0.262
Mof_N 	N 	0.9578	0.6172	0.8907	0.101
Mof_O 	O 	0.9043	0.5751	0.8958	-0.131
Mof_O 	O 	0.9254	0.6702	0.9049	-0.124
Mof_O 	O 	0.0113	0.615	0.883	-0.183
Mof_N 	N 	0.0422	0.8828	0.3907	0.087
Mof_O 	O 	0.0957	0.9249	0.3958	-0.132
Mof_O 	O 	0.0746	0.8298	0.4049	-0.131
Mof_O 	O 	0.9887	0.885	0.383	-0.166
Mof_N 	N 	0.0422	0.3828	0.1093	0.09
Mof_O 	O 	0.0957	0.4249	0.1042	-0.139
Mof_O 	O 	0.0746	0.3298	0.0951	-0.134
Mof_O 	O 	0.9887	0.385	0.117	-0.171
Mof_N 	N 	0.9578	0.1172	0.6093	0.1
Mof_O 	O 	0.9043	0.0751	0.6042	-0.139
Mof_O 	O 	0.9254	0.1702	0.5951	-0.129
Mof_O 	O 	0.0113	0.115	0.617	-0.182
Mof_Cl	Cl	0.7806	0.91318	0.45579	-0.314
Mof_Cl	Cl	0.2194	0.58682	0.95579	-0.311
Mof_Cl	Cl	0.2194	0.08682	0.54421	-0.324
Mof_Cl	Cl	0.7806	0.41318	0.04421	-0.328
_end
