data_functionalizedCrystal
_audit_creation_method	'EQeq! by Chris Wilmer'
_symmetry_space_group_name_H-M	'P1'
_symmetry_Int_Tables_number	1
_symmetry_cell_setting	triclinic
loop_
_symmetry_equiv_pos_as_xyz
  x,y,z
_cell_length_a	13.4107
_cell_length_b	13.4107
_cell_length_c	27.5678
_cell_angle_alpha	90
_cell_angle_beta	90
_cell_angle_gamma	120
loop_
_atom_site_label
_atom_site_type_symbol
_atom_site_fract_x
_atom_site_fract_y
_atom_site_fract_z
_atom_site_charge
Mof_V 	V 	0.29205	0.85656	0.52727	1.791
Mof_P 	P 	0.16072	0.97361	0.58504	0.741
Mof_P 	P 	0.12631	0.63004	0.46384	0.566
Mof_O 	O 	0.1495	0.7162	0.50424	-0.537
Mof_O 	O 	0.1689	0.5475	0.47584	-0.531
Mof_O 	O 	-7.30553e-18	0.5686	0.44972	-0.572
Mof_O 	O 	0.1879	0.8798	0.5711	-0.489
Mof_O 	O 	0.3247	0.7713	0.57724	-0.475
Mof_O 	O 	0.1438	0.0714	0.70438	-0.587
Mof_O 	O 	0.0656	0.9253	0.62269	-0.481
Mof_O 	O 	0.1361	0.0266	0.54056	-0.64
Mof_H 	H 	0.2524	0.0561	0.6054	-0.49
Mof_O 	O 	0.1945	0.695	0.4189	0.369
Mof_H 	H 	0.1751	0.7415	0.4106	0.02
Mof_O 	O 	0.2631	0.0704	0.6104	0.31
Mof_H 	H 	0.3178	0.1001	0.5916	0.041
Mof_H 	H 	0.3379	0.6114	0.6557	0.042
Mof_H 	H 	0.184	0.689	0.4261	-0.452
Mof_V 	V 	0.14344	0.43549	0.52727	1.755
Mof_P 	P 	0.02639	0.18711	0.58504	0.364
Mof_P 	P 	0.36996	0.49627	0.46384	0.564
Mof_O 	O 	0.2838	0.4333	0.50424	-0.533
Mof_O 	O 	0.4525	0.6214	0.47584	-0.518
Mof_O 	O 	0.4314	0.4314	0.44972	-0.499
Mof_O 	O 	0.1202	0.3081	0.5711	-0.483
Mof_O 	O 	0.2287	0.5534	0.57724	-0.502
Mof_O 	O 	0.9286	0.0724	0.70438	-0.494
Mof_O 	O 	0.0747	0.1403	0.62269	-0.508
Mof_O 	O 	0.9734	0.1095	0.54056	-0.408
Mof_H 	H 	0.9439	0.1963	0.6054	-0.423
Mof_O 	O 	0.305	0.4995	0.4189	0.372
Mof_H 	H 	0.2585	0.4336	0.4106	0.008
Mof_O 	O 	0.9296	0.1927	0.6104	0.418
Mof_H 	H 	0.8999	0.2177	0.5916	0.025
Mof_H 	H 	0.3886	0.7265	0.6557	0.054
Mof_H 	H 	0.311	0.495	0.4261	-0.452
Mof_V 	V 	0.56451	0.70795	0.52727	1.764
Mof_P 	P 	0.81289	0.83928	0.58504	0.55
Mof_P 	P 	0.50373	0.87369	0.46384	0.659
Mof_O 	O 	0.5667	0.8505	0.50424	-0.511
Mof_O 	O 	0.3786	0.8311	0.47584	-0.5
Mof_O 	O 	0.5686	0	0.44972	-0.597
Mof_O 	O 	0.6919	0.8121	0.5711	-0.467
Mof_O 	O 	0.4466	0.6753	0.57724	-0.488
Mof_O 	O 	0.9276	0.8562	0.70438	-0.43
Mof_O 	O 	0.8597	0.9344	0.62269	-0.364
Mof_O 	O 	0.8905	0.8639	0.54056	-0.422
Mof_H 	H 	0.8037	0.7476	0.6054	-0.432
Mof_O 	O 	0.5005	0.8055	0.4189	0.358
Mof_H 	H 	0.5664	0.8249	0.4106	0.037
Mof_O 	O 	0.8073	0.7369	0.6104	0.356
Mof_H 	H 	0.7823	0.6822	0.5916	0.04
Mof_H 	H 	0.2735	0.6621	0.6557	0.039
Mof_H 	H 	0.505	0.816	0.4261	-0.447
Mof_V 	V 	0.70795	0.14344	0.02727	1.75
Mof_P 	P 	0.83928	0.02639	0.08504	0.387
Mof_P 	P 	0.87369	0.36996	0.96384	0.683
Mof_O 	O 	0.8505	0.2838	0.00424	-0.539
Mof_O 	O 	0.8311	0.4525	0.97584	-0.49
Mof_O 	O 	-7.91456e-19	0.4314	0.94972	-0.596
Mof_O 	O 	0.8121	0.1202	0.0711	-0.468
Mof_O 	O 	0.6753	0.2287	0.07724	-0.499
Mof_O 	O 	0.8562	0.9286	0.20438	-0.428
Mof_O 	O 	0.9344	0.0747	0.12269	-0.408
Mof_O 	O 	0.8639	0.9734	0.04056	-0.366
Mof_H 	H 	0.7476	0.9439	0.1054	-0.411
Mof_O 	O 	0.8055	0.305	0.9189	0.357
Mof_H 	H 	0.8249	0.2585	0.9106	0.032
Mof_O 	O 	0.7369	0.9296	0.1104	0.406
Mof_H 	H 	0.6822	0.8999	0.0916	0.031
Mof_H 	H 	0.6621	0.3886	0.1557	0.047
Mof_H 	H 	0.816	0.311	0.9261	-0.45
Mof_V 	V 	0.85656	0.56451	0.02727	1.783
Mof_P 	P 	0.97361	0.81289	0.08504	0.709
Mof_P 	P 	0.63004	0.50373	0.96384	0.585
Mof_O 	O 	0.7162	0.5667	0.00424	-0.545
Mof_O 	O 	0.5475	0.3786	0.97584	-0.506
Mof_O 	O 	0.5686	0.5686	0.94972	-0.495
Mof_O 	O 	0.8798	0.6919	0.0711	-0.477
Mof_O 	O 	0.7713	0.4466	0.07724	-0.476
Mof_O 	O 	0.0714	0.9276	0.20438	-0.497
Mof_O 	O 	0.9253	0.8597	0.12269	-0.398
Mof_O 	O 	0.0266	0.8905	0.04056	-0.551
Mof_H 	H 	0.0561	0.8037	0.1054	-0.465
Mof_O 	O 	0.695	0.5005	0.9189	0.366
Mof_H 	H 	0.7415	0.5664	0.9106	0.031
Mof_O 	O 	0.0704	0.8073	0.1104	0.312
Mof_H 	H 	0.1001	0.7823	0.0916	0.045
Mof_H 	H 	0.6114	0.2735	0.1557	0.036
Mof_H 	H 	0.689	0.505	0.9261	-0.449
Mof_V 	V 	0.43549	0.29205	0.02727	1.757
Mof_P 	P 	0.18711	0.16072	0.08504	0.549
Mof_P 	P 	0.49627	0.12631	0.96384	0.586
Mof_O 	O 	0.4333	0.1495	0.00424	-0.572
Mof_O 	O 	0.6214	0.1689	0.97584	-0.519
Mof_O 	O 	0.4314	0	0.94972	-0.57
Mof_O 	O 	0.3081	0.1879	0.0711	-0.503
Mof_O 	O 	0.5534	0.3247	0.07724	-0.501
Mof_O 	O 	0.0724	0.1438	0.20438	-0.585
Mof_O 	O 	0.1403	0.0656	0.12269	-0.547
Mof_O 	O 	0.1095	0.1361	0.04056	-0.576
Mof_H 	H 	0.1963	0.2524	0.1054	-0.467
Mof_O 	O 	0.4995	0.1945	0.9189	0.369
Mof_H 	H 	0.4336	0.1751	0.9106	0.01
Mof_O 	O 	0.1927	0.2631	0.1104	0.367
Mof_H 	H 	0.2177	0.3178	0.0916	0.025
Mof_H 	H 	0.7265	0.3379	0.1557	0.052
Mof_H 	H 	0.495	0.184	0.9261	-0.455
Mof_V 	V 	0.70795	0.14344	0.47273	1.757
Mof_P 	P 	0.83928	0.02639	0.41496	0.389
Mof_P 	P 	0.87369	0.36996	0.53616	0.661
Mof_O 	O 	0.8505	0.2838	0.49576	-0.514
Mof_O 	O 	0.8311	0.4525	0.52416	-0.501
Mof_O 	O 	-6.14369e-18	0.4314	0.55028	-0.599
Mof_O 	O 	0.8121	0.1202	0.4289	-0.465
Mof_O 	O 	0.6753	0.2287	0.42276	-0.496
Mof_O 	O 	0.8562	0.9286	0.29562	-0.428
Mof_O 	O 	0.9344	0.0747	0.37731	-0.408
Mof_O 	O 	0.8639	0.9734	0.45944	-0.358
Mof_H 	H 	0.7476	0.9439	0.3946	-0.412
Mof_O 	O 	0.8055	0.305	0.5811	0.36
Mof_H 	H 	0.8249	0.2585	0.5894	0.029
Mof_O 	O 	0.7369	0.9296	0.3896	0.406
Mof_H 	H 	0.6822	0.8999	0.4084	0.033
Mof_H 	H 	0.6621	0.3886	0.3443	0.047
Mof_H 	H 	0.816	0.311	0.5739	-0.449
Mof_V 	V 	0.85656	0.56451	0.47273	1.789
Mof_P 	P 	0.97361	0.81289	0.41496	0.711
Mof_P 	P 	0.63004	0.50373	0.53616	0.564
Mof_O 	O 	0.7162	0.5667	0.49576	-0.521
Mof_O 	O 	0.5475	0.3786	0.52416	-0.518
Mof_O 	O 	0.5686	0.5686	0.55028	-0.499
Mof_O 	O 	0.8798	0.6919	0.4289	-0.474
Mof_O 	O 	0.7713	0.4466	0.42276	-0.472
Mof_O 	O 	0.0714	0.9276	0.29562	-0.497
Mof_O 	O 	0.9253	0.8597	0.37731	-0.398
Mof_O 	O 	0.0266	0.8905	0.45944	-0.544
Mof_H 	H 	0.0561	0.8037	0.3946	-0.465
Mof_O 	O 	0.695	0.5005	0.5811	0.369
Mof_H 	H 	0.7415	0.5664	0.5894	0.028
Mof_O 	O 	0.0704	0.8073	0.3896	0.311
Mof_H 	H 	0.1001	0.7823	0.4084	0.047
Mof_H 	H 	0.6114	0.2735	0.3443	0.036
Mof_H 	H 	0.689	0.505	0.5739	-0.448
Mof_V 	V 	0.43549	0.29205	0.47273	1.763
Mof_P 	P 	0.18711	0.16072	0.41496	0.55
Mof_P 	P 	0.49627	0.12631	0.53616	0.565
Mof_O 	O 	0.4333	0.1495	0.49576	-0.547
Mof_O 	O 	0.6214	0.1689	0.52416	-0.531
Mof_O 	O 	0.4314	0	0.55028	-0.575
Mof_O 	O 	0.3081	0.1879	0.4289	-0.5
Mof_O 	O 	0.5534	0.3247	0.42276	-0.498
Mof_O 	O 	0.0724	0.1438	0.29562	-0.585
Mof_O 	O 	0.1403	0.0656	0.37731	-0.547
Mof_O 	O 	0.1095	0.1361	0.45944	-0.567
Mof_H 	H 	0.1963	0.2524	0.3946	-0.467
Mof_O 	O 	0.4995	0.1945	0.5811	0.371
Mof_H 	H 	0.4336	0.1751	0.5894	0.008
Mof_O 	O 	0.1927	0.2631	0.3896	0.367
Mof_H 	H 	0.2177	0.3178	0.4084	0.027
Mof_H 	H 	0.7265	0.3379	0.3443	0.052
Mof_H 	H 	0.495	0.184	0.5739	-0.454
Mof_V 	V 	0.29205	0.85656	0.97273	1.795
Mof_P 	P 	0.16072	0.97361	0.91496	0.737
Mof_P 	P 	0.12631	0.63004	0.03616	0.546
Mof_O 	O 	0.1495	0.7162	0.99576	-0.516
Mof_O 	O 	0.1689	0.5475	0.02416	-0.542
Mof_O 	O 	-1.26578e-17	0.5686	0.05028	-0.575
Mof_O 	O 	0.1879	0.8798	0.9289	-0.487
Mof_O 	O 	0.3247	0.7713	0.92276	-0.473
Mof_O 	O 	0.1438	0.0714	0.79562	-0.586
Mof_O 	O 	0.0656	0.9253	0.87731	-0.481
Mof_O 	O 	0.1361	0.0266	0.95944	-0.625
Mof_H 	H 	0.2524	0.0561	0.8946	-0.49
Mof_O 	O 	0.1945	0.695	0.0811	0.371
Mof_H 	H 	0.1751	0.7415	0.0894	0.018
Mof_O 	O 	0.2631	0.0704	0.8896	0.311
Mof_H 	H 	0.3178	0.1001	0.9084	0.043
Mof_H 	H 	0.3379	0.6114	0.8443	0.042
Mof_H 	H 	0.184	0.689	0.0739	-0.452
Mof_V 	V 	0.14344	0.43549	0.97273	1.761
Mof_P 	P 	0.02639	0.18711	0.91496	0.364
Mof_P 	P 	0.36996	0.49627	0.03616	0.544
Mof_O 	O 	0.2838	0.4333	0.99576	-0.509
Mof_O 	O 	0.4525	0.6214	0.02416	-0.529
Mof_O 	O 	0.4314	0.4314	0.05028	-0.503
Mof_O 	O 	0.1202	0.3081	0.9289	-0.479
Mof_O 	O 	0.2287	0.5534	0.92276	-0.499
Mof_O 	O 	0.9286	0.0724	0.79562	-0.494
Mof_O 	O 	0.0747	0.1403	0.87731	-0.507
Mof_O 	O 	0.9734	0.1095	0.95944	-0.394
Mof_H 	H 	0.9439	0.1963	0.8946	-0.423
Mof_O 	O 	0.305	0.4995	0.0811	0.374
Mof_H 	H 	0.2585	0.4336	0.0894	0.006
Mof_O 	O 	0.9296	0.1927	0.8896	0.418
Mof_H 	H 	0.8999	0.2177	0.9084	0.028
Mof_H 	H 	0.3886	0.7265	0.8443	0.054
Mof_H 	H 	0.311	0.495	0.0739	-0.452
Mof_V 	V 	0.56451	0.70795	0.97273	1.77
Mof_P 	P 	0.81289	0.83928	0.91496	0.55
Mof_P 	P 	0.50373	0.87369	0.03616	0.641
Mof_O 	O 	0.5667	0.8505	0.99576	-0.489
Mof_O 	O 	0.3786	0.8311	0.02416	-0.51
Mof_O 	O 	0.5686	0	0.05028	-0.602
Mof_O 	O 	0.6919	0.8121	0.9289	-0.464
Mof_O 	O 	0.4466	0.6753	0.92276	-0.485
Mof_O 	O 	0.9276	0.8562	0.79562	-0.43
Mof_O 	O 	0.8597	0.9344	0.87731	-0.365
Mof_O 	O 	0.8905	0.8639	0.95944	-0.41
Mof_H 	H 	0.8037	0.7476	0.8946	-0.432
Mof_O 	O 	0.5005	0.8055	0.0811	0.36
Mof_H 	H 	0.5664	0.8249	0.0894	0.035
Mof_O 	O 	0.8073	0.7369	0.8896	0.356
Mof_H 	H 	0.7823	0.6822	0.9084	0.042
Mof_H 	H 	0.2735	0.6621	0.8443	0.039
Mof_H 	H 	0.505	0.816	0.0739	-0.447
Mof_V 	V 	-0	0	0.5	1.682
Mof_V 	V 	-0	0	-0	1.671
Mof_V 	V 	-0	0	0.66457	1.693
Mof_V 	V 	2.93958e-33	5.87915e-33	0.16457	1.693
Mof_V 	V 	-1.17583e-32	0	0.33543	1.693
Mof_V 	V 	-1.17583e-32	2.35166e-32	0.83543	1.694
Mof_P 	P 	0.33333	0.66667	0.59128	0.603
Mof_H 	H 	0.33333	0.66667	0.6385	-0.482
Mof_O 	O 	0.33333	0.66667	0.6458	0.361
Mof_P 	P 	0.66667	0.33333	0.09128	0.601
Mof_H 	H 	0.66667	0.33333	0.1385	-0.481
Mof_O 	O 	0.66667	0.33333	0.1458	0.362
Mof_P 	P 	0.66667	0.33333	0.40872	0.603
Mof_H 	H 	0.66667	0.33333	0.3615	-0.482
Mof_O 	O 	0.66667	0.33333	0.3542	0.361
Mof_P 	P 	0.33333	0.66667	0.90872	0.604
Mof_H 	H 	0.33333	0.66667	0.8615	-0.482
Mof_O 	O 	0.33333	0.66667	0.8542	0.361
Mof_P 	P 	0.1942	0.0569	0.75	-0.119
Mof_O 	O 	0.2055	0.9473	0.75	-0.089
Mof_H 	H 	0.1412	0.89	0.75	-0.098
Mof_O 	O 	0.3228	0.1423	0.75	-1.098
Mof_H 	H 	0.3335	0.2081	0.75	0.518
Mof_P 	P 	0.2009	0.1232	0.75	0.746
Mof_O 	O 	0.226	0.257	0.75	-0.357
Mof_H 	H 	0.1646	0.2566	0.75	-0.003
Mof_H 	H 	0.3188	0.0793	0.75	0.545
Mof_P 	P 	0.9431	0.1373	0.75	1.163
Mof_O 	O 	0.0527	0.2582	0.75	-0.815
Mof_H 	H 	0.11	0.2512	0.75	0.425
Mof_O 	O 	0.8577	0.1805	0.75	-1.204
Mof_H 	H 	0.7919	0.1254	0.75	0.628
Mof_P 	P 	0.8768	0.0777	0.75	-0.415
Mof_O 	O 	0.743	0.969	0.75	-0.044
Mof_H 	H 	0.7434	0.908	0.75	-0.044
Mof_H 	H 	0.9207	0.2395	0.75	0.623
Mof_P 	P 	0.8627	0.8058	0.75	0.1
Mof_O 	O 	0.7418	0.7945	0.75	-0.464
Mof_H 	H 	0.7488	0.8588	0.75	0.375
Mof_O 	O 	0.8195	0.6772	0.75	-1.237
Mof_H 	H 	0.8746	0.6665	0.75	0.642
Mof_P 	P 	0.9223	0.7991	0.75	0.709
Mof_O 	O 	0.031	0.774	0.75	-0.653
Mof_H 	H 	0.092	0.8354	0.75	0.452
Mof_H 	H 	0.7605	0.6812	0.75	0.669
Mof_P 	P 	0.8058	0.9431	0.25	0.841
Mof_O 	O 	0.7945	0.0527	0.25	-0.801
Mof_H 	H 	0.8588	0.11	0.25	0.564
Mof_O 	O 	0.6772	0.8577	0.25	-1.256
Mof_H 	H 	0.6665	0.7919	0.25	0.668
Mof_P 	P 	0.7991	0.8768	0.25	-0.019
Mof_O 	O 	0.774	0.743	0.25	-0.35
Mof_H 	H 	0.8354	0.7434	0.25	0.269
Mof_H 	H 	0.6812	0.9207	0.25	0.676
Mof_P 	P 	0.0569	0.8627	0.25	-0.389
Mof_O 	O 	0.9473	0.7418	0.25	-0.115
Mof_H 	H 	0.89	0.7488	0.25	0.049
Mof_O 	O 	0.1423	0.8195	0.25	-1.165
Mof_H 	H 	0.2081	0.8746	0.25	0.573
Mof_P 	P 	0.1232	0.9223	0.25	1.111
Mof_O 	O 	0.257	0.031	0.25	-0.674
Mof_H 	H 	0.2566	0.092	0.25	0.32
Mof_H 	H 	0.0793	0.7605	0.25	0.611
Mof_P 	P 	0.1373	0.1942	0.25	0.683
Mof_O 	O 	0.2582	0.2055	0.25	-0.453
Mof_H 	H 	0.2512	0.1412	0.25	0.089
Mof_O 	O 	0.1805	0.3228	0.25	-1.119
Mof_H 	H 	0.1254	0.3335	0.25	0.547
Mof_P 	P 	0.0777	0.2009	0.25	-0.042
Mof_O 	O 	0.969	0.226	0.25	-0.031
Mof_H 	H 	0.908	0.1646	0.25	-0.183
Mof_H 	H 	0.2395	0.3188	0.25	0.551
_end
