data_functionalizedCrystal
_audit_creation_method	'EQeq! by Chris Wilmer'
_symmetry_space_group_name_H-M	'P1'
_symmetry_Int_Tables_number	1
_symmetry_cell_setting	triclinic
loop_
_symmetry_equiv_pos_as_xyz
  x,y,z
_cell_length_a	19.6971
_cell_length_b	17.3615
_cell_length_c	13.8979
_cell_angle_alpha	90
_cell_angle_beta	90.901
_cell_angle_gamma	90
loop_
_atom_site_label
_atom_site_type_symbol
_atom_site_fract_x
_atom_site_fract_y
_atom_site_fract_z
_atom_site_charge
Mof_Cd	Cd	0.08837	0.26252	0.32288	0.382
Mof_Cd	Cd	0.35982	0.39454	0.1	0.342
Mof_C 	C 	0.3019	0.3324	0.2988	0.098
Mof_H 	H 	0.3465	0.3346	0.3257	0.005
Mof_C 	C 	0.2195	0.3429	0.2043	0.091
Mof_H 	H 	0.1924	0.3541	0.1489	-0.004
Mof_C 	C 	0.1298	0.3374	0.6226	0.093
Mof_H 	H 	0.1589	0.3414	0.6777	-0.002
Mof_C 	C 	0.0446	0.3426	0.5313	0.084
Mof_H 	H 	0.9998	0.3511	0.5075	0.006
Mof_C 	C 	0.1962	0.0693	0.4606	0.095
Mof_H 	H 	0.2291	0.0493	0.5046	0.002
Mof_C 	C 	0.118	0.0776	0.3606	0.094
Mof_H 	H 	0.0823	0.0651	0.3166	0.015
Mof_C 	C 	0.1188	0.175	0.1131	0.093
Mof_H 	H 	0.1655	0.1683	0.1288	-0.004
Mof_C 	C 	0.0254	0.1715	0.0407	0.063
Mof_H 	H 	0.991	0.162	0.9936	0.024
Mof_C 	C 	0.0469	0.4456	0.2868	0.092
Mof_H 	H 	0.0874	0.4622	0.3187	0
Mof_C 	C 	0.5023	0.3849	0.2371	0.052
Mof_H 	H 	0.5241	0.3493	0.1946	0.015
Mof_C 	C 	0.4832	0.4607	0.352	0.075
Mof_H 	H 	0.4873	0.4906	0.4099	0.013
Mof_N 	N 	0.24996	0.3053	0.3454	-0.121
Mof_N 	N 	0.19519	0.312	0.2834	-0.12
Mof_N 	N 	0.28655	0.3569	0.2099	-0.168
Mof_N 	N 	0.15041	0.3138	0.5377	-0.12
Mof_N 	N 	0.09472	0.3171	0.4775	-0.117
Mof_N 	N 	0.0638	0.3552	0.6229	-0.17
Mof_N 	N 	0.18886	0.1435	0.4438	-0.119
Mof_N 	N 	0.1376	0.149	0.3783	-0.119
Mof_N 	N 	0.15308	0.0247	0.4101	-0.161
Mof_N 	N 	0.07517	0.2087	0.1705	-0.12
Mof_N 	N 	0.01409	0.2065	0.1234	-0.115
Mof_N 	N 	0.09017	0.1509	0.03	-0.169
Mof_N 	N 	0.03052	0.3726	0.2739	-0.122
Mof_N 	N 	0.4416	0.4117	0.2204	-0.048
Mof_N 	N 	0.4291	0.4617	0.2962	-0.105
Mof_N 	N 	0.5336	0.4134	0.3203	-0.121
Mof_Cd	Cd	0.58837	0.76252	0.32288	0.383
Mof_Cd	Cd	0.85982	0.89454	0.1	0.342
Mof_C 	C 	0.8019	0.8324	0.2988	0.097
Mof_H 	H 	0.8465	0.8346	0.3257	0.004
Mof_C 	C 	0.7195	0.8429	0.2043	0.091
Mof_H 	H 	0.6924	0.8541	0.1489	-0.004
Mof_C 	C 	0.6298	0.8374	0.6226	0.093
Mof_H 	H 	0.6589	0.8414	0.6777	-0.002
Mof_C 	C 	0.5446	0.8426	0.5313	0.092
Mof_H 	H 	0.4998	0.8511	0.5075	-0
Mof_C 	C 	0.6962	0.5693	0.4606	0.096
Mof_H 	H 	0.7291	0.5493	0.5046	0.002
Mof_C 	C 	0.618	0.5776	0.3606	0.094
Mof_H 	H 	0.5823	0.5651	0.3166	0.016
Mof_C 	C 	0.6188	0.675	0.1131	0.093
Mof_H 	H 	0.6655	0.6683	0.1288	-0.004
Mof_C 	C 	0.5254	0.6715	0.0407	0.07
Mof_H 	H 	0.491	0.662	0.9936	0.019
Mof_C 	C 	0.5469	0.9456	0.2868	0.093
Mof_H 	H 	0.5874	0.9622	0.3187	0
Mof_C 	C 	0.0023	0.8849	0.2371	0.065
Mof_H 	H 	0.0241	0.8493	0.1946	0.011
Mof_C 	C 	0.9832	0.9607	0.352	0.08
Mof_H 	H 	0.9873	0.9906	0.4099	0.013
Mof_N 	N 	0.74996	0.8053	0.3454	-0.121
Mof_N 	N 	0.69519	0.812	0.2834	-0.12
Mof_N 	N 	0.78655	0.8569	0.2099	-0.168
Mof_N 	N 	0.65041	0.8138	0.5377	-0.12
Mof_N 	N 	0.59472	0.8171	0.4775	-0.118
Mof_N 	N 	0.5638	0.8552	0.6229	-0.171
Mof_N 	N 	0.68886	0.6435	0.4438	-0.119
Mof_N 	N 	0.6376	0.649	0.3783	-0.119
Mof_N 	N 	0.65308	0.5247	0.4101	-0.161
Mof_N 	N 	0.57517	0.7087	0.1705	-0.12
Mof_N 	N 	0.51409	0.7065	0.1234	-0.114
Mof_N 	N 	0.59017	0.6509	0.03	-0.17
Mof_N 	N 	0.53052	0.8726	0.2739	-0.12
Mof_N 	N 	0.9416	0.9117	0.2204	-0.048
Mof_N 	N 	0.9291	0.9617	0.2962	-0.105
Mof_N 	N 	0.0336	0.9134	0.3203	-0.123
Mof_Cd	Cd	0.91163	0.26252	0.17712	0.383
Mof_Cd	Cd	0.64018	0.39454	0.4	0.348
Mof_C 	C 	0.6981	0.3324	0.2012	0.097
Mof_H 	H 	0.6535	0.3346	0.1743	0.003
Mof_C 	C 	0.7805	0.3429	0.2957	0.091
Mof_H 	H 	0.8076	0.3541	0.3511	-0.002
Mof_C 	C 	0.8702	0.3374	0.8774	0.094
Mof_H 	H 	0.8411	0.3414	0.8223	-0.001
Mof_C 	C 	0.9554	0.3426	0.9687	0.114
Mof_H 	H 	0.0002	0.3511	0.9925	-0.006
Mof_C 	C 	0.8038	0.0693	0.0394	0.073
Mof_H 	H 	0.7709	0.0493	0.9954	0.019
Mof_C 	C 	0.882	0.0776	0.1394	0.094
Mof_H 	H 	0.9177	0.0651	0.1834	0.017
Mof_C 	C 	0.8812	0.175	0.3869	0.093
Mof_H 	H 	0.8345	0.1683	0.3712	-0.002
Mof_C 	C 	0.9746	0.1715	0.4593	0.102
Mof_H 	H 	0.009	0.162	0.5064	-0.003
Mof_C 	C 	0.9531	0.4456	0.2132	0.097
Mof_H 	H 	0.9126	0.4622	0.1813	-0.002
Mof_C 	C 	0.4977	0.3849	0.2629	0.052
Mof_H 	H 	0.4759	0.3493	0.3054	0.015
Mof_C 	C 	0.5168	0.4607	0.148	0.075
Mof_H 	H 	0.5127	0.4906	0.0901	0.01
Mof_N 	N 	0.75004	0.3053	0.1546	-0.121
Mof_N 	N 	0.80481	0.312	0.2166	-0.12
Mof_N 	N 	0.71345	0.3569	0.2901	-0.168
Mof_N 	N 	0.84959	0.3138	0.9623	-0.112
Mof_N 	N 	0.90528	0.3171	0.0225	-0.131
Mof_N 	N 	0.9362	0.3552	0.8771	-0.172
Mof_N 	N 	0.81114	0.1435	0.0562	-0.116
Mof_N 	N 	0.8624	0.149	0.1217	-0.119
Mof_N 	N 	0.84692	0.0247	0.0899	-0.159
Mof_N 	N 	0.92483	0.2087	0.3295	-0.119
Mof_N 	N 	0.98591	0.2065	0.3766	-0.117
Mof_N 	N 	0.90983	0.1509	0.47	-0.171
Mof_N 	N 	0.96948	0.3726	0.2261	-0.119
Mof_N 	N 	0.5584	0.4117	0.2796	-0.048
Mof_N 	N 	0.5709	0.4617	0.2038	-0.105
Mof_N 	N 	0.4664	0.4134	0.1797	-0.122
Mof_Cd	Cd	0.41163	0.76252	0.17712	0.381
Mof_Cd	Cd	0.14018	0.89454	0.4	0.348
Mof_C 	C 	0.1981	0.8324	0.2012	0.096
Mof_H 	H 	0.1535	0.8346	0.1743	0.003
Mof_C 	C 	0.2805	0.8429	0.2957	0.091
Mof_H 	H 	0.3076	0.8541	0.3511	-0.002
Mof_C 	C 	0.3702	0.8374	0.8774	0.094
Mof_H 	H 	0.3411	0.8414	0.8223	-0.002
Mof_C 	C 	0.4554	0.8426	0.9687	0.106
Mof_H 	H 	0.5002	0.8511	0.9925	0
Mof_C 	C 	0.3038	0.5693	0.0394	0.072
Mof_H 	H 	0.2709	0.5493	0.9954	0.02
Mof_C 	C 	0.382	0.5776	0.1394	0.094
Mof_H 	H 	0.4177	0.5651	0.1834	0.016
Mof_C 	C 	0.3812	0.675	0.3869	0.093
Mof_H 	H 	0.3345	0.6683	0.3712	-0.002
Mof_C 	C 	0.4746	0.6715	0.4593	0.094
Mof_H 	H 	0.509	0.662	0.5064	0.003
Mof_C 	C 	0.4531	0.9456	0.2132	0.092
Mof_H 	H 	0.4126	0.9622	0.1813	-0.001
Mof_C 	C 	0.9977	0.8849	0.2629	0.04
Mof_H 	H 	0.9759	0.8493	0.3054	0.019
Mof_C 	C 	0.0168	0.9607	0.148	0.07
Mof_H 	H 	0.0127	0.9906	0.0901	0.011
Mof_N 	N 	0.25004	0.8053	0.1546	-0.121
Mof_N 	N 	0.30481	0.812	0.2166	-0.12
Mof_N 	N 	0.21345	0.8569	0.2901	-0.168
Mof_N 	N 	0.34959	0.8138	0.9623	-0.112
Mof_N 	N 	0.40528	0.8171	0.0225	-0.13
Mof_N 	N 	0.4362	0.8552	0.8771	-0.172
Mof_N 	N 	0.31114	0.6435	0.0562	-0.116
Mof_N 	N 	0.3624	0.649	0.1217	-0.119
Mof_N 	N 	0.34692	0.5247	0.0899	-0.159
Mof_N 	N 	0.42483	0.7087	0.3295	-0.119
Mof_N 	N 	0.48591	0.7065	0.3766	-0.117
Mof_N 	N 	0.40983	0.6509	0.47	-0.17
Mof_N 	N 	0.46948	0.8726	0.2261	-0.12
Mof_N 	N 	0.0584	0.9117	0.2796	-0.048
Mof_N 	N 	0.0709	0.9617	0.2038	-0.105
Mof_N 	N 	0.9664	0.9134	0.1797	-0.12
Mof_Cd	Cd	0.91163	0.73748	0.67712	0.386
Mof_Cd	Cd	0.64018	0.60546	0.9	0.356
Mof_C 	C 	0.6981	0.6676	0.7012	0.097
Mof_H 	H 	0.6535	0.6654	0.6743	0.004
Mof_C 	C 	0.7805	0.6571	0.7957	0.092
Mof_H 	H 	0.8076	0.6459	0.8511	-0
Mof_C 	C 	0.8702	0.6626	0.3774	0.093
Mof_H 	H 	0.8411	0.6586	0.3223	-0.003
Mof_C 	C 	0.9554	0.6574	0.4687	0.1
Mof_H 	H 	0.0002	0.6489	0.4925	-0.006
Mof_C 	C 	0.8038	0.9307	0.5394	0.096
Mof_H 	H 	0.7709	0.9507	0.4954	0.002
Mof_C 	C 	0.882	0.9224	0.6394	0.095
Mof_H 	H 	0.9177	0.9349	0.6834	0.017
Mof_C 	C 	0.8812	0.825	0.8869	0.094
Mof_H 	H 	0.8345	0.8317	0.8712	-0
Mof_C 	C 	0.9746	0.8285	0.9593	0.125
Mof_H 	H 	0.009	0.838	0.0064	-0.019
Mof_C 	C 	0.9531	0.5544	0.7132	0.099
Mof_H 	H 	0.9126	0.5378	0.6813	-0
Mof_C 	C 	0.4977	0.6151	0.7629	0.052
Mof_H 	H 	0.4759	0.6507	0.8054	0.016
Mof_C 	C 	0.5168	0.5393	0.648	0.075
Mof_H 	H 	0.5127	0.5094	0.5901	0.013
Mof_N 	N 	0.75004	0.6947	0.6546	-0.121
Mof_N 	N 	0.80481	0.688	0.7166	-0.12
Mof_N 	N 	0.71345	0.6431	0.7901	-0.167
Mof_N 	N 	0.84959	0.6862	0.4623	-0.12
Mof_N 	N 	0.90528	0.6829	0.5225	-0.119
Mof_N 	N 	0.9362	0.6448	0.3771	-0.171
Mof_N 	N 	0.81114	0.8565	0.5562	-0.119
Mof_N 	N 	0.8624	0.851	0.6217	-0.118
Mof_N 	N 	0.84692	0.9753	0.5899	-0.161
Mof_N 	N 	0.92483	0.7913	0.8295	-0.119
Mof_N 	N 	0.98591	0.7935	0.8766	-0.12
Mof_N 	N 	0.90983	0.8491	0.97	-0.17
Mof_N 	N 	0.96948	0.6274	0.7261	-0.118
Mof_N 	N 	0.5584	0.5883	0.7796	-0.048
Mof_N 	N 	0.5709	0.5383	0.7038	-0.105
Mof_N 	N 	0.4664	0.5866	0.6797	-0.121
Mof_Cd	Cd	0.41163	0.23748	0.67712	0.384
Mof_Cd	Cd	0.14018	0.10546	0.9	0.354
Mof_C 	C 	0.1981	0.1676	0.7012	0.097
Mof_H 	H 	0.1535	0.1654	0.6743	0.004
Mof_C 	C 	0.2805	0.1571	0.7957	0.092
Mof_H 	H 	0.3076	0.1459	0.8511	-0
Mof_C 	C 	0.3702	0.1626	0.3774	0.093
Mof_H 	H 	0.3411	0.1586	0.3223	-0.003
Mof_C 	C 	0.4554	0.1574	0.4687	0.092
Mof_H 	H 	0.5002	0.1489	0.4925	-0
Mof_C 	C 	0.3038	0.4307	0.5394	0.096
Mof_H 	H 	0.2709	0.4507	0.4954	0.002
Mof_C 	C 	0.382	0.4224	0.6394	0.094
Mof_H 	H 	0.4177	0.4349	0.6834	0.016
Mof_C 	C 	0.3812	0.325	0.8869	0.094
Mof_H 	H 	0.3345	0.3317	0.8712	-0.001
Mof_C 	C 	0.4746	0.3285	0.9593	0.117
Mof_H 	H 	0.509	0.338	0.0064	-0.014
Mof_C 	C 	0.4531	0.0544	0.7132	0.094
Mof_H 	H 	0.4126	0.0378	0.6813	0
Mof_C 	C 	0.9977	0.1151	0.7629	0.039
Mof_H 	H 	0.9759	0.1507	0.8054	0.02
Mof_C 	C 	0.0168	0.0393	0.648	0.07
Mof_H 	H 	0.0127	0.0094	0.5901	0.013
Mof_N 	N 	0.25004	0.1947	0.6546	-0.121
Mof_N 	N 	0.30481	0.188	0.7166	-0.12
Mof_N 	N 	0.21345	0.1431	0.7901	-0.168
Mof_N 	N 	0.34959	0.1862	0.4623	-0.12
Mof_N 	N 	0.40528	0.1829	0.5225	-0.118
Mof_N 	N 	0.4362	0.1448	0.3771	-0.171
Mof_N 	N 	0.31114	0.3565	0.5562	-0.119
Mof_N 	N 	0.3624	0.351	0.6217	-0.119
Mof_N 	N 	0.34692	0.4753	0.5899	-0.161
Mof_N 	N 	0.42483	0.2913	0.8295	-0.119
Mof_N 	N 	0.48591	0.2935	0.8766	-0.12
Mof_N 	N 	0.40983	0.3491	0.97	-0.169
Mof_N 	N 	0.46948	0.1274	0.7261	-0.119
Mof_N 	N 	0.0584	0.0883	0.7796	-0.048
Mof_N 	N 	0.0709	0.0383	0.7038	-0.105
Mof_N 	N 	0.9664	0.0866	0.6797	-0.119
Mof_Cd	Cd	0.08837	0.73748	0.82288	0.384
Mof_Cd	Cd	0.35982	0.60546	0.6	0.349
Mof_C 	C 	0.3019	0.6676	0.7988	0.097
Mof_H 	H 	0.3465	0.6654	0.8257	0.005
Mof_C 	C 	0.2195	0.6571	0.7043	0.092
Mof_H 	H 	0.1924	0.6459	0.6489	-0.002
Mof_C 	C 	0.1298	0.6626	0.1226	0.092
Mof_H 	H 	0.1589	0.6586	0.1777	-0.003
Mof_C 	C 	0.0446	0.6574	0.0313	0.071
Mof_H 	H 	0.9998	0.6489	0.0075	0.005
Mof_C 	C 	0.1962	0.9307	0.9606	0.119
Mof_H 	H 	0.2291	0.9507	0.0046	-0.014
Mof_C 	C 	0.118	0.9224	0.8606	0.095
Mof_H 	H 	0.0823	0.9349	0.8166	0.016
Mof_C 	C 	0.1188	0.825	0.6131	0.094
Mof_H 	H 	0.1655	0.8317	0.6288	-0.002
Mof_C 	C 	0.0254	0.8285	0.5407	0.086
Mof_H 	H 	0.991	0.838	0.4936	0.008
Mof_C 	C 	0.0469	0.5544	0.7868	0.093
Mof_H 	H 	0.0874	0.5378	0.8187	0.002
Mof_C 	C 	0.5023	0.6151	0.7371	0.052
Mof_H 	H 	0.5241	0.6507	0.6946	0.016
Mof_C 	C 	0.4832	0.5393	0.852	0.075
Mof_H 	H 	0.4873	0.5094	0.9099	0.016
Mof_N 	N 	0.24996	0.6947	0.8454	-0.118
Mof_N 	N 	0.19519	0.688	0.7834	-0.119
Mof_N 	N 	0.28655	0.6431	0.7099	-0.168
Mof_N 	N 	0.15041	0.6862	0.0377	-0.125
Mof_N 	N 	0.09472	0.6829	0.9775	-0.106
Mof_N 	N 	0.0638	0.6448	0.1229	-0.169
Mof_N 	N 	0.18886	0.8565	0.9438	-0.119
Mof_N 	N 	0.1376	0.851	0.8783	-0.118
Mof_N 	N 	0.15308	0.9753	0.9101	-0.164
Mof_N 	N 	0.07517	0.7913	0.6705	-0.12
Mof_N 	N 	0.01409	0.7935	0.6234	-0.118
Mof_N 	N 	0.09017	0.8491	0.53	-0.169
Mof_N 	N 	0.03052	0.6274	0.7739	-0.121
Mof_N 	N 	0.4416	0.5883	0.7204	-0.048
Mof_N 	N 	0.4291	0.5383	0.7962	-0.104
Mof_N 	N 	0.5336	0.5866	0.8203	-0.12
Mof_Cd	Cd	0.58837	0.23748	0.82288	0.386
Mof_Cd	Cd	0.85982	0.10546	0.6	0.349
Mof_C 	C 	0.8019	0.1676	0.7988	0.097
Mof_H 	H 	0.8465	0.1654	0.8257	0.005
Mof_C 	C 	0.7195	0.1571	0.7043	0.092
Mof_H 	H 	0.6924	0.1459	0.6489	-0.002
Mof_C 	C 	0.6298	0.1626	0.1226	0.092
Mof_H 	H 	0.6589	0.1586	0.1777	-0.002
Mof_C 	C 	0.5446	0.1574	0.0313	0.078
Mof_H 	H 	0.4998	0.1489	0.0075	-0.001
Mof_C 	C 	0.6962	0.4307	0.9606	0.119
Mof_H 	H 	0.7291	0.4507	0.0046	-0.014
Mof_C 	C 	0.618	0.4224	0.8606	0.095
Mof_H 	H 	0.5823	0.4349	0.8166	0.016
Mof_C 	C 	0.6188	0.325	0.6131	0.093
Mof_H 	H 	0.6655	0.3317	0.6288	-0.002
Mof_C 	C 	0.5254	0.3285	0.5407	0.094
Mof_H 	H 	0.491	0.338	0.4936	0.003
Mof_C 	C 	0.5469	0.0544	0.7868	0.094
Mof_H 	H 	0.5874	0.0378	0.8187	0.002
Mof_C 	C 	0.0023	0.1151	0.7371	0.065
Mof_H 	H 	0.0241	0.1507	0.6946	0.012
Mof_C 	C 	0.9832	0.0393	0.852	0.08
Mof_H 	H 	0.9873	0.0094	0.9099	0.016
Mof_N 	N 	0.74996	0.1947	0.8454	-0.118
Mof_N 	N 	0.69519	0.188	0.7834	-0.119
Mof_N 	N 	0.78655	0.1431	0.7099	-0.168
Mof_N 	N 	0.65041	0.1862	0.0377	-0.125
Mof_N 	N 	0.59472	0.1829	0.9775	-0.107
Mof_N 	N 	0.5638	0.1448	0.1229	-0.169
Mof_N 	N 	0.68886	0.3565	0.9438	-0.119
Mof_N 	N 	0.6376	0.351	0.8783	-0.118
Mof_N 	N 	0.65308	0.4753	0.9101	-0.164
Mof_N 	N 	0.57517	0.2913	0.6705	-0.12
Mof_N 	N 	0.51409	0.2935	0.6234	-0.117
Mof_N 	N 	0.59017	0.3491	0.53	-0.17
Mof_N 	N 	0.53052	0.1274	0.7739	-0.119
Mof_N 	N 	0.9416	0.0883	0.7204	-0.048
Mof_N 	N 	0.9291	0.0383	0.7962	-0.104
Mof_N 	N 	0.0336	0.0866	0.8203	-0.122
Mof_Cd	Cd	0.25	0.25	0.5	0.384
Mof_Cd	Cd	0.75	0.25	-0	0.372
Mof_Cd	Cd	0.75	0.75	0.5	0.384
Mof_Cd	Cd	0.25	0.75	-0	0.372
Mof_Cd	Cd	-1.49522e-18	0.37603	0.75	0.311
Mof_Cd	Cd	0.5	0.87603	0.75	0.315
Mof_Cd	Cd	6.71776e-34	0.62397	0.25	0.309
Mof_Cd	Cd	0.5	0.12397	0.25	0.312
Mof_N 	N 	6.71776e-34	0.4941	0.25	-0.167
Mof_N 	N 	0.5	0.9941	0.25	-0.164
Mof_N 	N 	2.01533e-33	0.5059	0.75	-0.166
Mof_N 	N 	0.5	0.0059	0.75	-0.164
_end
