data_functionalizedCrystal
_audit_creation_method	'EQeq! by Chris Wilmer'
_symmetry_space_group_name_H-M	'P1'
_symmetry_Int_Tables_number	1
_symmetry_cell_setting	triclinic
loop_
_symmetry_equiv_pos_as_xyz
  x,y,z
_cell_length_a	15.1658
_cell_length_b	16.981
_cell_length_c	19.436
_cell_angle_alpha	95.825
_cell_angle_beta	90
_cell_angle_gamma	90
loop_
_atom_site_label
_atom_site_type_symbol
_atom_site_fract_x
_atom_site_fract_y
_atom_site_fract_z
_atom_site_charge
Mof_Ag	Ag	0.92974	0.96636	0.82042	0.669
Mof_Ag	Ag	0.88877	0.7642	0.46851	0.744
Mof_Ag	Ag	0.90957	0.53255	0.78903	0.686
Mof_Ag	Ag	0.42974	0.53364	0.67958	0.675
Mof_Ag	Ag	0.38877	0.7358	0.03149	0.744
Mof_Ag	Ag	0.40957	0.96745	0.71097	0.688
Mof_Ag	Ag	0.07026	0.03364	0.17958	0.669
Mof_Ag	Ag	0.11123	0.2358	0.53149	0.744
Mof_Ag	Ag	0.09043	0.46745	0.21097	0.686
Mof_Ag	Ag	0.57026	0.46636	0.32042	0.675
Mof_Ag	Ag	0.61123	0.2642	0.96851	0.744
Mof_Ag	Ag	0.59043	0.03255	0.28903	0.688
Mof_H 	H 	0.9536	0.674	0.9036	0.021
Mof_H 	H 	0.9485	0.8119	0.9178	0.032
Mof_H 	H 	0.9048	0.0002	0.6509	0.076
Mof_H 	H 	0.9117	0.9307	0.5402	0.01
Mof_H 	H 	0.94	0.6736	0.5777	0.024
Mof_H 	H 	0.9503	0.6061	0.672	0.028
Mof_H 	H 	0.581	0.6072	0.4311	0.017
Mof_H 	H 	0.6755	0.6986	0.4871	0.073
Mof_H 	H 	0.0713	0.7203	0.378	0.053
Mof_H 	H 	0.1258	0.6218	0.3008	0.076
Mof_H 	H 	0.8973	0.4574	0.2468	0.113
Mof_H 	H 	0.7516	0.4552	0.278	0.053
Mof_H 	H 	0.7984	0.3467	0.9751	0.077
Mof_H 	H 	0.8972	0.4238	0.9188	0.024
Mof_H 	H 	0.7654	0.5964	0.6596	0.047
Mof_H 	H 	0.6173	0.5904	0.6294	0.068
Mof_H 	H 	0.4991	0.4116	0.7618	0.087
Mof_H 	H 	0.5462	0.3498	0.8523	0.059
Mof_H 	H 	0.4536	0.826	0.5964	0.021
Mof_H 	H 	0.4485	0.6881	0.5822	0.033
Mof_H 	H 	0.4048	0.4998	0.8491	0.072
Mof_H 	H 	0.4117	0.5693	0.9598	0.011
Mof_H 	H 	0.44	0.8264	0.9223	0.024
Mof_H 	H 	0.4503	0.8939	0.828	0.029
Mof_H 	H 	0.081	0.8928	0.0689	0.018
Mof_H 	H 	0.1755	0.8014	0.0129	0.073
Mof_H 	H 	0.5713	0.7797	0.122	0.053
Mof_H 	H 	0.6258	0.8782	0.1992	0.076
Mof_H 	H 	0.3973	0.0426	0.2532	0.112
Mof_H 	H 	0.2516	0.0448	0.222	0.053
Mof_H 	H 	0.2984	0.1533	0.5249	0.078
Mof_H 	H 	0.3972	0.0762	0.5812	0.024
Mof_H 	H 	0.2654	0.9036	0.8404	0.047
Mof_H 	H 	0.1173	0.9096	0.8706	0.069
Mof_H 	H 	0.9991	0.0884	0.7382	0.088
Mof_H 	H 	0.0462	0.1502	0.6477	0.058
Mof_H 	H 	0.0464	0.326	0.0964	0.021
Mof_H 	H 	0.0515	0.1881	0.0822	0.032
Mof_H 	H 	0.0952	0.9998	0.3491	0.076
Mof_H 	H 	0.0883	0.0693	0.4598	0.01
Mof_H 	H 	0.06	0.3264	0.4223	0.024
Mof_H 	H 	0.0497	0.3939	0.328	0.028
Mof_H 	H 	0.419	0.3928	0.5689	0.017
Mof_H 	H 	0.3245	0.3014	0.5129	0.073
Mof_H 	H 	0.9287	0.2797	0.622	0.053
Mof_H 	H 	0.8742	0.3782	0.6992	0.076
Mof_H 	H 	0.1027	0.5426	0.7532	0.113
Mof_H 	H 	0.2484	0.5448	0.722	0.053
Mof_H 	H 	0.2016	0.6533	0.0249	0.077
Mof_H 	H 	0.1028	0.5762	0.0812	0.024
Mof_H 	H 	0.2346	0.4036	0.3404	0.047
Mof_H 	H 	0.3827	0.4096	0.3706	0.068
Mof_H 	H 	0.5009	0.5884	0.2382	0.087
Mof_H 	H 	0.4538	0.6502	0.1477	0.059
Mof_H 	H 	0.5464	0.174	0.4036	0.021
Mof_H 	H 	0.5515	0.3119	0.4178	0.033
Mof_H 	H 	0.5952	0.5002	0.1509	0.072
Mof_H 	H 	0.5883	0.4307	0.0402	0.011
Mof_H 	H 	0.56	0.1736	0.0777	0.024
Mof_H 	H 	0.5497	0.1061	0.172	0.029
Mof_H 	H 	0.919	0.1072	0.9311	0.018
Mof_H 	H 	0.8245	0.1986	0.9871	0.073
Mof_H 	H 	0.4287	0.2203	0.878	0.053
Mof_H 	H 	0.3742	0.1218	0.8008	0.076
Mof_H 	H 	0.6027	0.9574	0.7468	0.112
Mof_H 	H 	0.7484	0.9552	0.778	0.053
Mof_H 	H 	0.7016	0.8467	0.4751	0.078
Mof_H 	H 	0.6028	0.9238	0.4188	0.024
Mof_H 	H 	0.7346	0.0964	0.1596	0.047
Mof_H 	H 	0.8827	0.0904	0.1294	0.069
Mof_H 	H 	0.0009	0.9116	0.2618	0.088
Mof_H 	H 	0.9538	0.8498	0.3523	0.058
Mof_C 	C 	0.9367	0.7856	0.7552	0.049
Mof_C 	C 	0.9428	0.7031	0.7457	0.083
Mof_C 	C 	0.949	0.7017	0.8637	0.059
Mof_C 	C 	0.9454	0.7851	0.8725	0.045
Mof_C 	C 	0.9292	0.8289	0.6945	0.046
Mof_C 	C 	0.9124	0.9443	0.6466	-0.002
Mof_C 	C 	0.9155	0.9022	0.5798	0.063
Mof_C 	C 	0.9302	0.7857	0.6291	0.091
Mof_C 	C 	0.9386	0.7017	0.6225	-0.049
Mof_C 	C 	0.9447	0.6621	0.6777	-0.048
Mof_C 	C 	0.81	0.613	0.3815	0.052
Mof_C 	C 	0.7546	0.5543	0.3496	0.07
Mof_C 	C 	0.6413	0.6063	0.4177	0.039
Mof_C 	C 	0.6977	0.6623	0.4508	0.031
Mof_C 	C 	0.8996	0.6162	0.3586	0.039
Mof_C 	C 	0.0335	0.6778	0.3618	0.032
Mof_C 	C 	0.0659	0.6188	0.3147	0.02
Mof_C 	C 	0.9322	0.5582	0.3093	0.092
Mof_C 	C 	0.875	0.4974	0.28	-0.073
Mof_C 	C 	0.7892	0.4956	0.2987	-0.019
Mof_C 	C 	0.7326	0.4415	0.8245	0.047
Mof_C 	C 	0.6725	0.3935	0.8573	0.07
Mof_C 	C 	0.7791	0.3706	0.9356	0.028
Mof_C 	C 	0.8386	0.4176	0.9018	0.048
Mof_C 	C 	0.703	0.4807	0.7661	0.027
Mof_C 	C 	0.7272	0.5646	0.6839	0.04
Mof_C 	C 	0.638	0.5599	0.6645	0.007
Mof_C 	C 	0.6147	0.4725	0.7451	0.072
Mof_C 	C 	0.5577	0.4201	0.7782	-0.068
Mof_C 	C 	0.5856	0.3836	0.8312	-0.039
Mof_C 	C 	0.4367	0.7144	0.7448	0.05
Mof_C 	C 	0.4428	0.7969	0.7543	0.083
Mof_C 	C 	0.449	0.7983	0.6363	0.06
Mof_C 	C 	0.4454	0.7149	0.6275	0.046
Mof_C 	C 	0.4292	0.6711	0.8055	0.046
Mof_C 	C 	0.4124	0.5557	0.8534	0.003
Mof_C 	C 	0.4155	0.5978	0.9202	0.062
Mof_C 	C 	0.4302	0.7143	0.8709	0.091
Mof_C 	C 	0.4386	0.7983	0.8775	-0.048
Mof_C 	C 	0.4447	0.8379	0.8223	-0.048
Mof_C 	C 	0.31	0.887	0.1185	0.052
Mof_C 	C 	0.2546	0.9457	0.1504	0.072
Mof_C 	C 	0.1413	0.8937	0.0823	0.039
Mof_C 	C 	0.1977	0.8377	0.0492	0.031
Mof_C 	C 	0.3996	0.8838	0.1414	0.04
Mof_C 	C 	0.5335	0.8222	0.1382	0.032
Mof_C 	C 	0.5659	0.8812	0.1853	0.02
Mof_C 	C 	0.4322	0.9418	0.1907	0.091
Mof_C 	C 	0.375	0.0026	0.22	-0.072
Mof_C 	C 	0.2892	0.0044	0.2013	-0.022
Mof_C 	C 	0.2326	0.0585	0.6755	0.048
Mof_C 	C 	0.1725	0.1065	0.6427	0.07
Mof_C 	C 	0.2791	0.1294	0.5644	0.028
Mof_C 	C 	0.3386	0.0824	0.5982	0.048
Mof_C 	C 	0.203	0.0193	0.7339	0.027
Mof_C 	C 	0.2272	0.9354	0.8161	0.04
Mof_C 	C 	0.138	0.9401	0.8355	0.007
Mof_C 	C 	0.1147	0.0275	0.7549	0.071
Mof_C 	C 	0.0577	0.0799	0.7218	-0.069
Mof_C 	C 	0.0856	0.1164	0.6688	-0.038
Mof_C 	C 	0.0633	0.2144	0.2448	0.049
Mof_C 	C 	0.0572	0.2969	0.2543	0.083
Mof_C 	C 	0.051	0.2983	0.1363	0.059
Mof_C 	C 	0.0546	0.2149	0.1275	0.045
Mof_C 	C 	0.0708	0.1711	0.3055	0.046
Mof_C 	C 	0.0876	0.0557	0.3534	-0.002
Mof_C 	C 	0.0845	0.0978	0.4202	0.063
Mof_C 	C 	0.0698	0.2143	0.3709	0.091
Mof_C 	C 	0.0614	0.2983	0.3775	-0.049
Mof_C 	C 	0.0553	0.3379	0.3223	-0.048
Mof_C 	C 	0.19	0.387	0.6185	0.052
Mof_C 	C 	0.2454	0.4457	0.6504	0.07
Mof_C 	C 	0.3587	0.3937	0.5823	0.039
Mof_C 	C 	0.3023	0.3377	0.5492	0.031
Mof_C 	C 	0.1004	0.3838	0.6414	0.039
Mof_C 	C 	0.9665	0.3222	0.6382	0.032
Mof_C 	C 	0.9341	0.3812	0.6853	0.02
Mof_C 	C 	0.0678	0.4418	0.6907	0.092
Mof_C 	C 	0.125	0.5026	0.72	-0.073
Mof_C 	C 	0.2108	0.5044	0.7013	-0.019
Mof_C 	C 	0.2674	0.5585	0.1755	0.047
Mof_C 	C 	0.3275	0.6065	0.1427	0.07
Mof_C 	C 	0.2209	0.6294	0.0644	0.028
Mof_C 	C 	0.1614	0.5824	0.0982	0.048
Mof_C 	C 	0.297	0.5193	0.2339	0.027
Mof_C 	C 	0.2728	0.4354	0.3161	0.04
Mof_C 	C 	0.362	0.4401	0.3355	0.007
Mof_C 	C 	0.3853	0.5275	0.2549	0.072
Mof_C 	C 	0.4423	0.5799	0.2218	-0.068
Mof_C 	C 	0.4144	0.6164	0.1688	-0.039
Mof_C 	C 	0.5633	0.2856	0.2552	0.05
Mof_C 	C 	0.5572	0.2031	0.2457	0.083
Mof_C 	C 	0.551	0.2017	0.3637	0.06
Mof_C 	C 	0.5546	0.2851	0.3725	0.046
Mof_C 	C 	0.5708	0.3289	0.1945	0.046
Mof_C 	C 	0.5876	0.4443	0.1466	0.003
Mof_C 	C 	0.5845	0.4022	0.0798	0.062
Mof_C 	C 	0.5698	0.2857	0.1291	0.091
Mof_C 	C 	0.5614	0.2017	0.1225	-0.048
Mof_C 	C 	0.5553	0.1621	0.1777	-0.048
Mof_C 	C 	0.69	0.113	0.8815	0.052
Mof_C 	C 	0.7454	0.0543	0.8496	0.072
Mof_C 	C 	0.8587	0.1063	0.9177	0.039
Mof_C 	C 	0.8023	0.1623	0.9508	0.031
Mof_C 	C 	0.6004	0.1162	0.8586	0.04
Mof_C 	C 	0.4665	0.1778	0.8618	0.032
Mof_C 	C 	0.4341	0.1188	0.8147	0.02
Mof_C 	C 	0.5678	0.0582	0.8093	0.091
Mof_C 	C 	0.625	0.9974	0.78	-0.072
Mof_C 	C 	0.7108	0.9956	0.7987	-0.022
Mof_C 	C 	0.7674	0.9415	0.3245	0.048
Mof_C 	C 	0.8275	0.8935	0.3573	0.07
Mof_C 	C 	0.7209	0.8706	0.4356	0.028
Mof_C 	C 	0.6614	0.9176	0.4018	0.048
Mof_C 	C 	0.797	0.9807	0.2661	0.027
Mof_C 	C 	0.7728	0.0646	0.1839	0.04
Mof_C 	C 	0.862	0.0599	0.1645	0.007
Mof_C 	C 	0.8853	0.9725	0.2451	0.071
Mof_C 	C 	0.9423	0.9201	0.2782	-0.069
Mof_C 	C 	0.9144	0.8836	0.3312	-0.038
Mof_N 	N 	0.9377	0.8265	0.819	-0.159
Mof_N 	N 	0.9462	0.6605	0.8025	-0.174
Mof_N 	N 	0.9196	0.9079	0.7026	-0.149
Mof_N 	N 	0.9236	0.8245	0.5712	-0.183
Mof_N 	N 	0.7814	0.6664	0.4334	-0.152
Mof_N 	N 	0.6676	0.5514	0.3681	-0.189
Mof_N 	N 	0.9515	0.6773	0.3852	-0.173
Mof_N 	N 	0.0189	0.5592	0.2882	-0.174
Mof_N 	N 	0.8158	0.4529	0.8481	-0.165
Mof_N 	N 	0.6979	0.3589	0.9139	-0.152
Mof_N 	N 	0.7606	0.5269	0.7345	-0.151
Mof_N 	N 	0.5824	0.5136	0.6942	-0.169
Mof_N 	N 	0.4377	0.6735	0.681	-0.159
Mof_N 	N 	0.4462	0.8395	0.6975	-0.174
Mof_N 	N 	0.4196	0.5921	0.7974	-0.15
Mof_N 	N 	0.4236	0.6755	0.9288	-0.182
Mof_N 	N 	0.2814	0.8336	0.0666	-0.152
Mof_N 	N 	0.1676	0.9486	0.1319	-0.188
Mof_N 	N 	0.4515	0.8227	0.1148	-0.173
Mof_N 	N 	0.5189	0.9408	0.2118	-0.174
Mof_N 	N 	0.3158	0.0471	0.6519	-0.165
Mof_N 	N 	0.1979	0.1411	0.5861	-0.152
Mof_N 	N 	0.2606	0.9731	0.7655	-0.151
Mof_N 	N 	0.0824	0.9864	0.8058	-0.166
Mof_N 	N 	0.0623	0.1735	0.181	-0.159
Mof_N 	N 	0.0538	0.3395	0.1975	-0.174
Mof_N 	N 	0.0804	0.0921	0.2974	-0.149
Mof_N 	N 	0.0764	0.1755	0.4288	-0.183
Mof_N 	N 	0.2186	0.3336	0.5666	-0.152
Mof_N 	N 	0.3324	0.4486	0.6319	-0.189
Mof_N 	N 	0.0485	0.3227	0.6148	-0.173
Mof_N 	N 	0.9811	0.4408	0.7118	-0.174
Mof_N 	N 	0.1842	0.5471	0.1519	-0.165
Mof_N 	N 	0.3021	0.6411	0.0861	-0.152
Mof_N 	N 	0.2394	0.4731	0.2655	-0.151
Mof_N 	N 	0.4176	0.4864	0.3058	-0.169
Mof_N 	N 	0.5623	0.3265	0.319	-0.159
Mof_N 	N 	0.5538	0.1605	0.3025	-0.174
Mof_N 	N 	0.5804	0.4079	0.2026	-0.15
Mof_N 	N 	0.5764	0.3245	0.0712	-0.182
Mof_N 	N 	0.7186	0.1664	0.9334	-0.152
Mof_N 	N 	0.8324	0.0514	0.8681	-0.188
Mof_N 	N 	0.5485	0.1773	0.8852	-0.173
Mof_N 	N 	0.4811	0.0592	0.7882	-0.174
Mof_N 	N 	0.6842	0.9529	0.3481	-0.165
Mof_N 	N 	0.8021	0.8589	0.4139	-0.152
Mof_N 	N 	0.7394	0.0269	0.2345	-0.151
Mof_N 	N 	0.9176	0.0136	0.1942	-0.166
Mof_B 	B 	0.2971	0.3018	0.7726	3.344
Mof_F 	F 	0.3583	0.3516	0.8033	-1.13
Mof_F 	F 	0.2154	0.3368	0.7666	-1.041
Mof_F 	F 	0.2838	0.2369	0.8098	-1.033
Mof_F 	F 	0.3201	0.27	0.7073	-1.061
Mof_B 	B 	0.6897	0.7846	0.6398	3.197
Mof_F 	F 	0.6324	0.7276	0.6115	-1.07
Mof_F 	F 	0.6457	0.8471	0.6756	-1.05
Mof_F 	F 	0.7487	0.7524	0.685	-1.02
Mof_F 	F 	0.7382	0.8123	0.5865	-1.047
Mof_B 	B 	0.7971	0.1982	0.7274	3.344
Mof_F 	F 	0.8583	0.1484	0.6967	-1.13
Mof_F 	F 	0.7154	0.1632	0.7334	-1.041
Mof_F 	F 	0.7838	0.2631	0.6902	-1.033
Mof_F 	F 	0.8201	0.23	0.7927	-1.061
Mof_B 	B 	0.1897	0.7154	0.8602	3.197
Mof_F 	F 	0.1324	0.7724	0.8885	-1.069
Mof_F 	F 	0.1457	0.6529	0.8244	-1.049
Mof_F 	F 	0.2487	0.7476	0.815	-1.019
Mof_F 	F 	0.2382	0.6877	0.9135	-1.047
Mof_B 	B 	0.7029	0.6982	0.2274	3.344
Mof_F 	F 	0.6417	0.6484	0.1967	-1.13
Mof_F 	F 	0.7846	0.6632	0.2334	-1.041
Mof_F 	F 	0.7162	0.7631	0.1902	-1.033
Mof_F 	F 	0.6799	0.73	0.2927	-1.061
Mof_B 	B 	0.3103	0.2154	0.3602	3.197
Mof_F 	F 	0.3676	0.2724	0.3885	-1.07
Mof_F 	F 	0.3543	0.1529	0.3244	-1.05
Mof_F 	F 	0.2513	0.2476	0.315	-1.02
Mof_F 	F 	0.2618	0.1877	0.4135	-1.047
Mof_B 	B 	0.2029	0.8018	0.2726	3.344
Mof_F 	F 	0.1417	0.8516	0.3033	-1.13
Mof_F 	F 	0.2846	0.8368	0.2666	-1.041
Mof_F 	F 	0.2162	0.7369	0.3098	-1.033
Mof_F 	F 	0.1799	0.77	0.2073	-1.061
Mof_B 	B 	0.8103	0.2846	0.1398	3.197
Mof_F 	F 	0.8676	0.2276	0.1115	-1.069
Mof_F 	F 	0.8543	0.3471	0.1756	-1.049
Mof_F 	F 	0.7513	0.2524	0.185	-1.019
Mof_F 	F 	0.7618	0.3123	0.0865	-1.047
_end
