data_functionalizedCrystal
_audit_creation_method	'EQeq! by Chris Wilmer'
_symmetry_space_group_name_H-M	'P1'
_symmetry_Int_Tables_number	1
_symmetry_cell_setting	triclinic
loop_
_symmetry_equiv_pos_as_xyz
  x,y,z
_cell_length_a	5.0798
_cell_length_b	15.203
_cell_length_c	16.3535
_cell_angle_alpha	90
_cell_angle_beta	95.69
_cell_angle_gamma	90
loop_
_atom_site_label
_atom_site_type_symbol
_atom_site_fract_x
_atom_site_fract_y
_atom_site_fract_z
_atom_site_charge
Mof_Co	Co	0.9655	0.67712	0.21639	1.175
Mof_Co	Co	0.3457	0.80312	0.08154	1.162
Mof_Co	Co	0.0085	0.92897	0.81984	1.163
Mof_P 	P 	0.4154	0.60078	0.13008	0.515
Mof_P 	P 	0.9246	0.86945	0.16219	0.541
Mof_P 	P 	0.4748	0.88604	0.91184	0.53
Mof_O 	O 	0.2898	0.9598	0.9337	-0.479
Mof_O 	O 	0.0298	0.8852	0.0773	-0.573
Mof_O 	O 	0.7543	0.9214	0.905	-0.488
Mof_O 	O 	0.1	0.7942	0.2012	-0.516
Mof_O 	O 	0.7164	0.6105	0.1428	-0.439
Mof_O 	O 	0.8059	0.8859	0.7159	-0.559
Mof_O 	O 	0.3468	0.8549	0.8254	-0.568
Mof_O 	O 	0.637	0.8412	0.1581	-0.466
Mof_O 	O 	0.2943	0.6742	0.0738	-0.449
Mof_O 	O 	0.4771	0.8088	0.9712	-0.386
Mof_O 	O 	0.0326	0.0493	0.7829	-0.459
Mof_O 	O 	0.333	0.5121	0.0965	-0.218
Mof_Co	Co	0.5345	0.17712	0.28361	1.166
Mof_Co	Co	0.1543	0.30312	0.41846	1.167
Mof_Co	Co	0.4915	0.42897	0.68016	1.164
Mof_P 	P 	0.0846	0.10078	0.36992	0.495
Mof_P 	P 	0.5754	0.36945	0.33781	0.512
Mof_P 	P 	0.0252	0.38604	0.58816	0.505
Mof_O 	O 	0.2102	0.4598	0.5663	-0.537
Mof_O 	O 	0.4702	0.3852	0.4227	-0.554
Mof_O 	O 	0.7457	0.4214	0.595	-0.521
Mof_O 	O 	0.4	0.2942	0.2988	-0.507
Mof_O 	O 	0.7836	0.1105	0.3572	-0.43
Mof_O 	O 	0.6941	0.3859	0.7841	-0.567
Mof_O 	O 	0.1532	0.3549	0.6746	-0.578
Mof_O 	O 	0.863	0.3412	0.3419	-0.455
Mof_O 	O 	0.2057	0.1742	0.4262	-0.432
Mof_O 	O 	0.0229	0.3088	0.5288	-0.437
Mof_O 	O 	0.4674	0.5493	0.7171	-0.409
Mof_O 	O 	0.167	0.0121	0.4035	-0.231
Mof_Co	Co	0.0345	0.32288	0.78361	1.149
Mof_Co	Co	0.6543	0.19688	0.91846	1.187
Mof_Co	Co	0.9915	0.07103	0.18016	1.161
Mof_P 	P 	0.5846	0.39922	0.86992	0.515
Mof_P 	P 	0.0754	0.13055	0.83781	0.456
Mof_P 	P 	0.5252	0.11396	0.08816	0.526
Mof_O 	O 	0.7102	0.0402	0.0663	-0.566
Mof_O 	O 	0.9702	0.1148	0.9227	-0.5
Mof_O 	O 	0.2457	0.0786	0.095	-0.58
Mof_O 	O 	0.9	0.2058	0.7988	-0.466
Mof_O 	O 	0.2836	0.3895	0.8572	-0.439
Mof_O 	O 	0.1941	0.1141	0.2841	-0.596
Mof_O 	O 	0.6532	0.1451	0.1746	-0.574
Mof_O 	O 	0.363	0.1588	0.8419	-0.467
Mof_O 	O 	0.7057	0.3258	0.9262	-0.397
Mof_O 	O 	0.5229	0.1912	0.0288	-0.464
Mof_O 	O 	0.9674	0.9507	0.2171	-0.367
Mof_O 	O 	0.667	0.4879	0.9035	-0.167
Mof_Co	Co	0.4655	0.82288	0.71639	1.168
Mof_Co	Co	0.8457	0.69688	0.58154	1.181
Mof_Co	Co	0.5085	0.57103	0.31984	1.163
Mof_P 	P 	0.9154	0.89922	0.63008	0.54
Mof_P 	P 	0.4246	0.63055	0.66219	0.513
Mof_P 	P 	0.9748	0.61396	0.41184	0.546
Mof_O 	O 	0.7898	0.5402	0.4337	-0.53
Mof_O 	O 	0.5298	0.6148	0.5773	-0.555
Mof_O 	O 	0.2543	0.5786	0.405	-0.558
Mof_O 	O 	0.6	0.7058	0.7012	-0.494
Mof_O 	O 	0.2164	0.8895	0.6428	-0.446
Mof_O 	O 	0.3059	0.6141	0.2159	-0.586
Mof_O 	O 	0.8468	0.6451	0.3254	-0.567
Mof_O 	O 	0.137	0.6588	0.6581	-0.484
Mof_O 	O 	0.7943	0.8258	0.5738	-0.417
Mof_O 	O 	0.9771	0.6912	0.4712	-0.415
Mof_O 	O 	0.5326	0.4507	0.2829	-0.415
Mof_O 	O 	0.833	0.9879	0.5965	-0.152
Mof_Co	Co	-0	0	-0	1.095
Mof_Co	Co	0.5	0.5	0.5	1.165
_end
