data_functionalizedCrystal
_audit_creation_method	'EQeq! by Chris Wilmer'
_symmetry_space_group_name_H-M	'P1'
_symmetry_Int_Tables_number	1
_symmetry_cell_setting	triclinic
loop_
_symmetry_equiv_pos_as_xyz
  x,y,z
_cell_length_a	47.233
_cell_length_b	11.4571
_cell_length_c	25.455
_cell_angle_alpha	90
_cell_angle_beta	119.856
_cell_angle_gamma	90
loop_
_atom_site_label
_atom_site_type_symbol
_atom_site_fract_x
_atom_site_fract_y
_atom_site_fract_z
_atom_site_charge
Mof_Zn	Zn	0.23134	0.0457	0.24984	1.208
Mof_S 	S 	0.05801	0.4189	0.01218	0.275
Mof_S 	S 	0.18607	0.6785	0.49064	0.276
Mof_O 	O 	0.01357	0.6453	0.2031	-0.469
Mof_O 	O 	0.0378	0.8002	0.1902	-0.326
Mof_O 	O 	0.0664	0.5005	0.9794	-0.23
Mof_O 	O 	0.0323	0.3339	0.9804	-0.227
Mof_O 	O 	0.17427	0.0359	0.1815	-0.355
Mof_O 	O 	0.2049	0.1938	0.2059	-0.414
Mof_O 	O 	0.2097	0.0591	0.3172	-0.356
Mof_O 	O 	0.22822	0.9016	0.2942	-0.416
Mof_O 	O 	0.2115	0.5929	0.5223	-0.225
Mof_O 	O 	0.1781	0.7606	0.5238	-0.227
Mof_O 	O 	0.03859	0.4631	0.2991	-0.451
Mof_O 	O 	0.0685	0.3043	0.3088	-0.315
Mof_N 	N 	0.2241	0.3936	0.6852	-0.273
Mof_N 	N 	0.1448	0.2126	0.5495	-0.125
Mof_N 	N 	0.1003	0.0626	0.4551	-0.125
Mof_N 	N 	0.0333	0.8418	0.317	-0.276
Mof_N 	N 	0.2407	0.9853	0.1844	-0.27
Mof_N 	N 	0.2492	0.8143	0.0469	-0.122
Mof_N 	N 	0.9955	0.0553	0.0455	-0.121
Mof_N 	N 	0.9983	0.2611	0.1831	-0.272
Mof_C 	C 	0.2111	0.2996	0.6966	0.098
Mof_H 	H 	0.221	0.2729	0.7373	-0.009
Mof_C 	C 	0.1844	0.2389	0.6536	-0.191
Mof_H 	H 	0.1761	0.1738	0.6648	0.106
Mof_C 	C 	0.1698	0.2745	0.5937	0.169
Mof_C 	C 	0.1825	0.3754	0.5816	-0.19
Mof_H 	H 	0.1723	0.4072	0.5419	0.103
Mof_C 	C 	0.2094	0.4273	0.627	0.108
Mof_H 	H 	0.2185	0.4917	0.6169	0.003
Mof_C 	C 	0.1261	0.2556	0.4866	-0.049
Mof_H 	H 	0.1394	0.313	0.4792	0.046
Mof_H 	H 	0.1061	0.2954	0.4805	0.061
Mof_C 	C 	0.1279	0.1197	0.5613	-0.047
Mof_H 	H 	0.1082	0.1525	0.5604	0.048
Mof_H 	H 	0.1423	0.0886	0.6025	0.059
Mof_C 	C 	0.1179	0.0237	0.5178	-0.044
Mof_H 	H 	0.1376	0.9803	0.5247	0.06
Mof_H 	H 	0.104	0.9693	0.525	0.044
Mof_C 	C 	0.1169	0.1576	0.4425	-0.049
Mof_H 	H 	0.1024	0.1875	0.4011	0.056
Mof_H 	H 	0.1369	0.1264	0.4441	0.05
Mof_C 	C 	0.0795	0.991	0.4102	0.161
Mof_C 	C 	0.065	0.8927	0.4217	-0.174
Mof_H 	H 	0.0713	0.8736	0.4623	0.097
Mof_C 	C 	0.0422	0.8242	0.3754	0.096
Mof_H 	H 	0.0324	0.7618	0.3853	0.003
Mof_C 	C 	0.0474	0.9342	0.3058	0.103
Mof_H 	H 	0.0416	0.9492	0.2649	-0.013
Mof_C 	C 	0.0694	0.0073	0.3494	-0.189
Mof_H 	H 	0.0779	0.0709	0.3378	0.105
Mof_C 	C 	0.0299	0.6978	0.1832	0.35
Mof_C 	C 	0.0373	0.6254	0.141	-0.081
Mof_C 	C 	0.0242	0.5149	0.1221	0.026
Mof_H 	H 	0.0111	0.4823	0.1371	0.03
Mof_C 	C 	0.0297	0.4505	0.0816	-0.066
Mof_H 	H 	0.02	0.376	0.0676	0.066
Mof_C 	C 	0.0497	0.4992	0.0627	-0.003
Mof_C 	C 	0.0638	0.6078	0.0812	-0.063
Mof_H 	H 	0.0778	0.6379	0.0677	0.058
Mof_C 	C 	0.057	0.6735	0.1205	0.008
Mof_H 	H 	0.0657	0.7498	0.1327	0.038
Mof_C 	C 	0.0935	0.3403	0.061	-0.013
Mof_C 	C 	0.0902	0.2349	0.0843	-0.059
Mof_H 	H 	0.0692	0.2071	0.0744	0.058
Mof_C 	C 	0.1178	0.1706	0.122	-0.004
Mof_H 	H 	0.1159	0.0965	0.1367	0.043
Mof_C 	C 	0.1481	0.2155	0.1378	-0.069
Mof_C 	C 	0.151	0.322	0.1159	0.005
Mof_H 	H 	0.1721	0.3522	0.1278	0.051
Mof_C 	C 	0.1232	0.3864	0.0764	-0.054
Mof_H 	H 	0.1251	0.4596	0.0608	0.063
Mof_C 	C 	0.1777	0.1442	0.1779	0.308
Mof_C 	C 	0.2592	0.8909	0.1954	0.101
Mof_H 	H 	0.2712	0.8635	0.236	-0.01
Mof_C 	C 	0.2619	0.8312	0.1519	-0.185
Mof_H 	H 	0.275	0.7627	0.1626	0.103
Mof_C 	C 	0.2459	0.8687	0.0919	0.155
Mof_C 	C 	0.2278	0.9736	0.081	-0.171
Mof_H 	H 	0.2173	0.0077	0.0418	0.095
Mof_C 	C 	0.2254	0.0251	0.1268	0.096
Mof_H 	H 	0.2123	0.0932	0.1177	0.005
Mof_C 	C 	0.2301	0.8506	0.9848	-0.032
Mof_H 	H 	0.2291	0.9369	0.9832	0.045
Mof_H 	H 	0.2076	0.8207	0.968	0.045
Mof_C 	C 	0.2567	0.6902	0.052	-0.062
Mof_H 	H 	0.2725	0.6723	0.0949	0.064
Mof_H 	H 	0.2364	0.6461	0.0409	0.066
Mof_C 	C 	0.2155	0.9535	0.3216	0.306
Mof_C 	C 	0.2076	0.8803	0.3623	-0.058
Mof_C 	C 	0.1867	0.9277	0.3802	-0.012
Mof_H 	H 	0.177	0.0021	0.3658	0.047
Mof_C 	C 	0.1802	0.8646	0.4197	-0.05
Mof_H 	H 	0.1657	0.8949	0.4321	0.054
Mof_C 	C 	0.1951	0.7561	0.4412	-0.018
Mof_C 	C 	0.2156	0.7108	0.4234	-0.046
Mof_H 	H 	0.2258	0.6376	0.4388	0.061
Mof_C 	C 	0.2217	0.7718	0.3825	-0.001
Mof_H 	H 	0.2353	0.739	0.3688	0.052
Mof_C 	C 	0.1503	0.5997	0.4413	-0.008
Mof_C 	C 	0.1205	0.6445	0.4256	-0.065
Mof_H 	H 	0.1187	0.7169	0.4419	0.067
Mof_C 	C 	0.0928	0.5837	0.3856	0.019
Mof_H 	H 	0.0719	0.6149	0.3744	0.037
Mof_C 	C 	0.0951	0.4787	0.3619	-0.084
Mof_C 	C 	0.1262	0.4347	0.3788	0.005
Mof_H 	H 	0.128	0.3622	0.3626	0.039
Mof_C 	C 	0.1536	0.493	0.4176	-0.067
Mof_H 	H 	0.1746	0.4627	0.4286	0.062
Mof_C 	C 	0.0656	0.408	0.3202	0.323
Mof_C 	C 	0.0174	0.1692	0.1953	0.111
Mof_H 	H 	0.0326	0.1525	0.2365	-0.018
Mof_C 	C 	0.0167	0.0962	0.1517	-0.206
Mof_H 	H 	0.0306	0.0301	0.1639	0.111
Mof_C 	C 	0.9958	0.1169	0.0901	0.179
Mof_C 	C 	0.9754	0.2152	0.0782	-0.179
Mof_H 	H 	0.96	0.2348	0.0375	0.098
Mof_C 	C 	0.9774	0.2835	0.125	0.104
Mof_H 	H 	0.9633	0.3488	0.1151	-0
Mof_C 	C 	0.0115	0.9383	0.0567	-0.1
Mof_H 	H 	0.0284	0.9311	0.0999	0.069
Mof_H 	H 	0.9951	0.8762	0.0471	0.088
Mof_C 	C 	0.9733	0.0758	0.9814	-0.033
Mof_H 	H 	0.9645	0.156	0.9762	0.04
Mof_H 	H 	0.9547	0.021	0.9672	0.045
Mof_Zn	Zn	0.73134	0.5457	0.24984	1.209
Mof_S 	S 	0.55801	0.9189	0.01218	0.275
Mof_S 	S 	0.68607	0.1785	0.49064	0.278
Mof_O 	O 	0.51357	0.1453	0.2031	-0.466
Mof_O 	O 	0.5378	0.3002	0.1902	-0.324
Mof_O 	O 	0.5664	0.0005	0.9794	-0.227
Mof_O 	O 	0.5323	0.8339	0.9804	-0.224
Mof_O 	O 	0.67427	0.5359	0.1815	-0.355
Mof_O 	O 	0.7049	0.6938	0.2059	-0.414
Mof_O 	O 	0.7097	0.5591	0.3172	-0.356
Mof_O 	O 	0.72822	0.4016	0.2942	-0.416
Mof_O 	O 	0.7115	0.0929	0.5223	-0.226
Mof_O 	O 	0.6781	0.2606	0.5238	-0.227
Mof_O 	O 	0.53859	0.9631	0.2991	-0.449
Mof_O 	O 	0.5685	0.8043	0.3088	-0.315
Mof_N 	N 	0.7241	0.8936	0.6852	-0.273
Mof_N 	N 	0.6448	0.7126	0.5495	-0.126
Mof_N 	N 	0.6003	0.5626	0.4551	-0.125
Mof_N 	N 	0.5333	0.3418	0.317	-0.275
Mof_N 	N 	0.7407	0.4853	0.1844	-0.272
Mof_N 	N 	0.7492	0.3143	0.0469	-0.123
Mof_N 	N 	0.4955	0.5553	0.0455	-0.128
Mof_N 	N 	0.4983	0.7611	0.1831	-0.277
Mof_C 	C 	0.7111	0.7996	0.6966	0.098
Mof_H 	H 	0.721	0.7729	0.7373	-0.009
Mof_C 	C 	0.6844	0.7389	0.6536	-0.191
Mof_H 	H 	0.6761	0.6738	0.6648	0.105
Mof_C 	C 	0.6698	0.7745	0.5937	0.168
Mof_C 	C 	0.6825	0.8754	0.5816	-0.19
Mof_H 	H 	0.6723	0.9072	0.5419	0.103
Mof_C 	C 	0.7094	0.9273	0.627	0.107
Mof_H 	H 	0.7185	0.9917	0.6169	0.003
Mof_C 	C 	0.6261	0.7556	0.4866	-0.049
Mof_H 	H 	0.6394	0.813	0.4792	0.046
Mof_H 	H 	0.6061	0.7954	0.4805	0.061
Mof_C 	C 	0.6279	0.6197	0.5613	-0.046
Mof_H 	H 	0.6082	0.6525	0.5604	0.048
Mof_H 	H 	0.6423	0.5886	0.6025	0.058
Mof_C 	C 	0.6179	0.5237	0.5178	-0.046
Mof_H 	H 	0.6376	0.4803	0.5247	0.061
Mof_H 	H 	0.604	0.4693	0.525	0.045
Mof_C 	C 	0.6169	0.6576	0.4425	-0.049
Mof_H 	H 	0.6024	0.6875	0.4011	0.056
Mof_H 	H 	0.6369	0.6264	0.4441	0.05
Mof_C 	C 	0.5795	0.491	0.4102	0.161
Mof_C 	C 	0.565	0.3927	0.4217	-0.174
Mof_H 	H 	0.5713	0.3736	0.4623	0.097
Mof_C 	C 	0.5422	0.3242	0.3754	0.096
Mof_H 	H 	0.5324	0.2618	0.3853	0.005
Mof_C 	C 	0.5474	0.4342	0.3058	0.104
Mof_H 	H 	0.5416	0.4492	0.2649	-0.013
Mof_C 	C 	0.5694	0.5073	0.3494	-0.19
Mof_H 	H 	0.5779	0.5709	0.3378	0.106
Mof_C 	C 	0.5299	0.1978	0.1832	0.349
Mof_C 	C 	0.5373	0.1254	0.141	-0.079
Mof_C 	C 	0.5242	0.0149	0.1221	0.023
Mof_H 	H 	0.5111	0.9823	0.1371	0.034
Mof_C 	C 	0.5297	0.9505	0.0816	-0.063
Mof_H 	H 	0.52	0.876	0.0676	0.067
Mof_C 	C 	0.5497	0.9992	0.0627	-0.002
Mof_C 	C 	0.5638	0.1078	0.0812	-0.063
Mof_H 	H 	0.5778	0.1379	0.0677	0.058
Mof_C 	C 	0.557	0.1735	0.1205	0.007
Mof_H 	H 	0.5657	0.2498	0.1327	0.039
Mof_C 	C 	0.5935	0.8403	0.061	-0.013
Mof_C 	C 	0.5902	0.7349	0.0843	-0.059
Mof_H 	H 	0.5692	0.7071	0.0744	0.059
Mof_C 	C 	0.6178	0.6706	0.122	-0.004
Mof_H 	H 	0.6159	0.5965	0.1367	0.043
Mof_C 	C 	0.6481	0.7155	0.1378	-0.07
Mof_C 	C 	0.651	0.822	0.1159	0.005
Mof_H 	H 	0.6721	0.8522	0.1278	0.051
Mof_C 	C 	0.6232	0.8864	0.0764	-0.054
Mof_H 	H 	0.6251	0.9596	0.0608	0.063
Mof_C 	C 	0.6777	0.6442	0.1779	0.307
Mof_C 	C 	0.7592	0.3909	0.1954	0.101
Mof_H 	H 	0.7712	0.3635	0.236	-0.01
Mof_C 	C 	0.7619	0.3312	0.1519	-0.186
Mof_H 	H 	0.775	0.2627	0.1626	0.104
Mof_C 	C 	0.7459	0.3687	0.0919	0.157
Mof_C 	C 	0.7278	0.4736	0.081	-0.177
Mof_H 	H 	0.7173	0.5077	0.0418	0.098
Mof_C 	C 	0.7254	0.5251	0.1268	0.101
Mof_H 	H 	0.7123	0.5932	0.1177	0.004
Mof_C 	C 	0.7301	0.3506	0.9848	-0.031
Mof_H 	H 	0.7291	0.4369	0.9832	0.045
Mof_H 	H 	0.7076	0.3207	0.968	0.045
Mof_C 	C 	0.7567	0.1902	0.052	-0.062
Mof_H 	H 	0.7725	0.1723	0.0949	0.064
Mof_H 	H 	0.7364	0.1461	0.0409	0.066
Mof_C 	C 	0.7155	0.4535	0.3216	0.306
Mof_C 	C 	0.7076	0.3803	0.3623	-0.058
Mof_C 	C 	0.6867	0.4277	0.3802	-0.012
Mof_H 	H 	0.677	0.5021	0.3658	0.047
Mof_C 	C 	0.6802	0.3646	0.4197	-0.05
Mof_H 	H 	0.6657	0.3949	0.4321	0.054
Mof_C 	C 	0.6951	0.2561	0.4412	-0.018
Mof_C 	C 	0.7156	0.2108	0.4234	-0.046
Mof_H 	H 	0.7258	0.1376	0.4388	0.061
Mof_C 	C 	0.7217	0.2718	0.3825	-0.001
Mof_H 	H 	0.7353	0.239	0.3688	0.052
Mof_C 	C 	0.6503	0.0997	0.4413	-0.009
Mof_C 	C 	0.6205	0.1445	0.4256	-0.064
Mof_H 	H 	0.6187	0.2169	0.4419	0.066
Mof_C 	C 	0.5928	0.0837	0.3856	0.017
Mof_H 	H 	0.5719	0.1149	0.3744	0.038
Mof_C 	C 	0.5951	0.9787	0.3619	-0.082
Mof_C 	C 	0.6262	0.9347	0.3788	0.004
Mof_H 	H 	0.628	0.8622	0.3626	0.04
Mof_C 	C 	0.6536	0.993	0.4176	-0.065
Mof_H 	H 	0.6746	0.9627	0.4286	0.061
Mof_C 	C 	0.5656	0.908	0.3202	0.322
Mof_C 	C 	0.5174	0.6692	0.1953	0.117
Mof_H 	H 	0.5326	0.6525	0.2365	-0.018
Mof_C 	C 	0.5167	0.5962	0.1517	-0.197
Mof_H 	H 	0.5306	0.5301	0.1639	0.109
Mof_C 	C 	0.4958	0.6169	0.0901	0.17
Mof_C 	C 	0.4754	0.7152	0.0782	-0.177
Mof_H 	H 	0.46	0.7348	0.0375	0.097
Mof_C 	C 	0.4774	0.7835	0.125	0.101
Mof_H 	H 	0.4633	0.8488	0.1151	-0
Mof_C 	C 	0.5115	0.4383	0.0567	-0.074
Mof_H 	H 	0.5284	0.4311	0.0999	0.062
Mof_H 	H 	0.4951	0.3762	0.0471	0.075
Mof_C 	C 	0.4733	0.5758	0.9814	-0.021
Mof_H 	H 	0.4645	0.656	0.9762	0.036
Mof_H 	H 	0.4547	0.521	0.9672	0.042
Mof_Zn	Zn	0.76866	0.0457	0.25016	1.209
Mof_S 	S 	0.94199	0.4189	0.48782	0.275
Mof_S 	S 	0.81393	0.6785	0.00936	0.279
Mof_O 	O 	0.98643	0.6453	0.2969	-0.461
Mof_O 	O 	0.9622	0.8002	0.3098	-0.322
Mof_O 	O 	0.9336	0.5005	0.5206	-0.226
Mof_O 	O 	0.9677	0.3339	0.5196	-0.221
Mof_O 	O 	0.82573	0.0359	0.3185	-0.355
Mof_O 	O 	0.7951	0.1938	0.2941	-0.414
Mof_O 	O 	0.7903	0.0591	0.1828	-0.357
Mof_O 	O 	0.77178	0.9016	0.2058	-0.416
Mof_O 	O 	0.7885	0.5929	0.9777	-0.226
Mof_O 	O 	0.8219	0.7606	0.9762	-0.228
Mof_O 	O 	0.96141	0.4631	0.2009	-0.446
Mof_O 	O 	0.9315	0.3043	0.1912	-0.314
Mof_N 	N 	0.7759	0.3936	0.8148	-0.273
Mof_N 	N 	0.8552	0.2126	0.9505	-0.125
Mof_N 	N 	0.8997	0.0626	0.0449	-0.126
Mof_N 	N 	0.9667	0.8418	0.183	-0.273
Mof_N 	N 	0.7593	0.9853	0.3156	-0.271
Mof_N 	N 	0.7508	0.8143	0.4531	-0.122
Mof_N 	N 	0.0045	0.0553	0.4545	-0.134
Mof_N 	N 	0.0017	0.2611	0.3169	-0.282
Mof_C 	C 	0.7889	0.2996	0.8034	0.098
Mof_H 	H 	0.779	0.2729	0.7627	-0.009
Mof_C 	C 	0.8156	0.2389	0.8464	-0.191
Mof_H 	H 	0.8239	0.1738	0.8352	0.105
Mof_C 	C 	0.8302	0.2745	0.9063	0.168
Mof_C 	C 	0.8175	0.3754	0.9184	-0.19
Mof_H 	H 	0.8277	0.4072	0.9581	0.103
Mof_C 	C 	0.7906	0.4273	0.873	0.107
Mof_H 	H 	0.7815	0.4917	0.8831	0.003
Mof_C 	C 	0.8739	0.2556	0.0134	-0.05
Mof_H 	H 	0.8606	0.313	0.0208	0.047
Mof_H 	H 	0.8939	0.2954	0.0195	0.061
Mof_C 	C 	0.8721	0.1197	0.9387	-0.049
Mof_H 	H 	0.8918	0.1525	0.9396	0.049
Mof_H 	H 	0.8577	0.0886	0.8975	0.059
Mof_C 	C 	0.8821	0.0237	0.9822	-0.04
Mof_H 	H 	0.8624	0.9803	0.9753	0.058
Mof_H 	H 	0.896	0.9693	0.975	0.042
Mof_C 	C 	0.8831	0.1576	0.0575	-0.048
Mof_H 	H 	0.8976	0.1875	0.0989	0.056
Mof_H 	H 	0.8631	0.1264	0.0559	0.05
Mof_C 	C 	0.9205	0.991	0.0898	0.163
Mof_C 	C 	0.935	0.8927	0.0783	-0.174
Mof_H 	H 	0.9287	0.8736	0.0377	0.098
Mof_C 	C 	0.9578	0.8242	0.1246	0.097
Mof_H 	H 	0.9676	0.7618	0.1147	0.006
Mof_C 	C 	0.9526	0.9342	0.1942	0.105
Mof_H 	H 	0.9584	0.9492	0.2351	-0.012
Mof_C 	C 	0.9306	0.0073	0.1506	-0.191
Mof_H 	H 	0.9221	0.0709	0.1622	0.106
Mof_C 	C 	0.9701	0.6978	0.3168	0.349
Mof_C 	C 	0.9627	0.6254	0.359	-0.078
Mof_C 	C 	0.9758	0.5149	0.3779	0.027
Mof_H 	H 	0.9889	0.4823	0.3629	0.035
Mof_C 	C 	0.9703	0.4505	0.4184	-0.064
Mof_H 	H 	0.98	0.376	0.4324	0.07
Mof_C 	C 	0.9503	0.4992	0.4373	-0.001
Mof_C 	C 	0.9362	0.6078	0.4188	-0.062
Mof_H 	H 	0.9222	0.6379	0.4323	0.058
Mof_C 	C 	0.943	0.6735	0.3795	0.008
Mof_H 	H 	0.9343	0.7498	0.3673	0.039
Mof_C 	C 	0.9065	0.3403	0.439	-0.013
Mof_C 	C 	0.9098	0.2349	0.4157	-0.059
Mof_H 	H 	0.9308	0.2071	0.4256	0.059
Mof_C 	C 	0.8822	0.1706	0.378	-0.004
Mof_H 	H 	0.8841	0.0965	0.3633	0.043
Mof_C 	C 	0.8519	0.2155	0.3622	-0.07
Mof_C 	C 	0.849	0.322	0.3841	0.005
Mof_H 	H 	0.8279	0.3522	0.3722	0.05
Mof_C 	C 	0.8768	0.3864	0.4236	-0.054
Mof_H 	H 	0.8749	0.4596	0.4392	0.063
Mof_C 	C 	0.8223	0.1442	0.3221	0.308
Mof_C 	C 	0.7408	0.8909	0.3046	0.101
Mof_H 	H 	0.7288	0.8635	0.264	-0.01
Mof_C 	C 	0.7381	0.8312	0.3481	-0.185
Mof_H 	H 	0.725	0.7627	0.3374	0.103
Mof_C 	C 	0.7541	0.8687	0.4081	0.156
Mof_C 	C 	0.7722	0.9736	0.419	-0.174
Mof_H 	H 	0.7827	0.0077	0.4582	0.096
Mof_C 	C 	0.7746	0.0251	0.3732	0.098
Mof_H 	H 	0.7877	0.0932	0.3823	0.005
Mof_C 	C 	0.7699	0.8506	0.5152	-0.031
Mof_H 	H 	0.7709	0.9369	0.5168	0.045
Mof_H 	H 	0.7924	0.8207	0.532	0.045
Mof_C 	C 	0.7433	0.6902	0.448	-0.062
Mof_H 	H 	0.7275	0.6723	0.4051	0.064
Mof_H 	H 	0.7636	0.6461	0.4591	0.066
Mof_C 	C 	0.7845	0.9535	0.1784	0.307
Mof_C 	C 	0.7924	0.8803	0.1377	-0.058
Mof_C 	C 	0.8133	0.9277	0.1198	-0.011
Mof_H 	H 	0.823	0.0021	0.1342	0.046
Mof_C 	C 	0.8198	0.8646	0.0803	-0.051
Mof_H 	H 	0.8343	0.8949	0.0679	0.054
Mof_C 	C 	0.8049	0.7561	0.0588	-0.018
Mof_C 	C 	0.7844	0.7108	0.0766	-0.046
Mof_H 	H 	0.7742	0.6376	0.0612	0.061
Mof_C 	C 	0.7783	0.7718	0.1175	-0
Mof_H 	H 	0.7647	0.739	0.1312	0.052
Mof_C 	C 	0.8497	0.5997	0.0587	-0.009
Mof_C 	C 	0.8795	0.6445	0.0744	-0.064
Mof_H 	H 	0.8813	0.7169	0.0581	0.067
Mof_C 	C 	0.9072	0.5837	0.1144	0.018
Mof_H 	H 	0.9281	0.6149	0.1256	0.039
Mof_C 	C 	0.9049	0.4787	0.1381	-0.083
Mof_C 	C 	0.8738	0.4347	0.1212	0.004
Mof_H 	H 	0.872	0.3622	0.1374	0.04
Mof_C 	C 	0.8464	0.493	0.0824	-0.066
Mof_H 	H 	0.8254	0.4627	0.0714	0.061
Mof_C 	C 	0.9344	0.408	0.1798	0.322
Mof_C 	C 	0.9826	0.1692	0.3047	0.122
Mof_H 	H 	0.9674	0.1525	0.2635	-0.019
Mof_C 	C 	0.9833	0.0962	0.3483	-0.187
Mof_H 	H 	0.9694	0.0301	0.3361	0.107
Mof_C 	C 	0.0042	0.1169	0.4099	0.161
Mof_C 	C 	0.0246	0.2152	0.4218	-0.176
Mof_H 	H 	0.04	0.2348	0.4625	0.096
Mof_C 	C 	0.0226	0.2835	0.375	0.097
Mof_H 	H 	0.0367	0.3488	0.3849	-0
Mof_C 	C 	0.9885	0.9383	0.4433	-0.047
Mof_H 	H 	0.9716	0.9311	0.4001	0.056
Mof_H 	H 	0.0049	0.8762	0.4529	0.062
Mof_C 	C 	0.0267	0.0758	0.5186	-0.01
Mof_H 	H 	0.0355	0.156	0.5238	0.032
Mof_H 	H 	0.0453	0.021	0.5328	0.038
Mof_Zn	Zn	0.26866	0.5457	0.25016	1.209
Mof_S 	S 	0.44199	0.9189	0.48782	0.275
Mof_S 	S 	0.31393	0.1785	0.00936	0.277
Mof_O 	O 	0.48643	0.1453	0.2969	-0.466
Mof_O 	O 	0.4622	0.3002	0.3098	-0.324
Mof_O 	O 	0.4336	0.0005	0.5206	-0.227
Mof_O 	O 	0.4677	0.8339	0.5196	-0.223
Mof_O 	O 	0.32573	0.5359	0.3185	-0.355
Mof_O 	O 	0.2951	0.6938	0.2941	-0.414
Mof_O 	O 	0.2903	0.5591	0.1828	-0.356
Mof_O 	O 	0.27178	0.4016	0.2058	-0.416
Mof_O 	O 	0.2885	0.0929	0.9777	-0.225
Mof_O 	O 	0.3219	0.2606	0.9762	-0.226
Mof_O 	O 	0.46141	0.9631	0.2009	-0.449
Mof_O 	O 	0.4315	0.8043	0.1912	-0.315
Mof_N 	N 	0.2759	0.8936	0.8148	-0.273
Mof_N 	N 	0.3552	0.7126	0.9505	-0.126
Mof_N 	N 	0.3997	0.5626	0.0449	-0.125
Mof_N 	N 	0.4667	0.3418	0.183	-0.275
Mof_N 	N 	0.2593	0.4853	0.3156	-0.272
Mof_N 	N 	0.2508	0.3143	0.4531	-0.123
Mof_N 	N 	0.5045	0.5553	0.4545	-0.128
Mof_N 	N 	0.5017	0.7611	0.3169	-0.277
Mof_C 	C 	0.2889	0.7996	0.8034	0.098
Mof_H 	H 	0.279	0.7729	0.7627	-0.009
Mof_C 	C 	0.3156	0.7389	0.8464	-0.191
Mof_H 	H 	0.3239	0.6738	0.8352	0.105
Mof_C 	C 	0.3302	0.7745	0.9063	0.168
Mof_C 	C 	0.3175	0.8754	0.9184	-0.19
Mof_H 	H 	0.3277	0.9072	0.9581	0.103
Mof_C 	C 	0.2906	0.9273	0.873	0.107
Mof_H 	H 	0.2815	0.9917	0.8831	0.002
Mof_C 	C 	0.3739	0.7556	0.0134	-0.049
Mof_H 	H 	0.3606	0.813	0.0208	0.046
Mof_H 	H 	0.3939	0.7954	0.0195	0.061
Mof_C 	C 	0.3721	0.6197	0.9387	-0.046
Mof_H 	H 	0.3918	0.6525	0.9396	0.048
Mof_H 	H 	0.3577	0.5886	0.8975	0.058
Mof_C 	C 	0.3821	0.5237	0.9822	-0.047
Mof_H 	H 	0.3624	0.4803	0.9753	0.061
Mof_H 	H 	0.396	0.4693	0.975	0.045
Mof_C 	C 	0.3831	0.6576	0.0575	-0.049
Mof_H 	H 	0.3976	0.6875	0.0989	0.056
Mof_H 	H 	0.3631	0.6264	0.0559	0.05
Mof_C 	C 	0.4205	0.491	0.0898	0.161
Mof_C 	C 	0.435	0.3927	0.0783	-0.174
Mof_H 	H 	0.4287	0.3736	0.0377	0.097
Mof_C 	C 	0.4578	0.3242	0.1246	0.096
Mof_H 	H 	0.4676	0.2618	0.1147	0.005
Mof_C 	C 	0.4526	0.4342	0.1942	0.104
Mof_H 	H 	0.4584	0.4492	0.2351	-0.013
Mof_C 	C 	0.4306	0.5073	0.1506	-0.19
Mof_H 	H 	0.4221	0.5709	0.1622	0.106
Mof_C 	C 	0.4701	0.1978	0.3168	0.349
Mof_C 	C 	0.4627	0.1254	0.359	-0.079
Mof_C 	C 	0.4758	0.0149	0.3779	0.024
Mof_H 	H 	0.4889	0.9823	0.3629	0.033
Mof_C 	C 	0.4703	0.9505	0.4184	-0.064
Mof_H 	H 	0.48	0.876	0.4324	0.068
Mof_C 	C 	0.4503	0.9992	0.4373	-0.003
Mof_C 	C 	0.4362	0.1078	0.4188	-0.062
Mof_H 	H 	0.4222	0.1379	0.4323	0.058
Mof_C 	C 	0.443	0.1735	0.3795	0.007
Mof_H 	H 	0.4343	0.2498	0.3673	0.038
Mof_C 	C 	0.4065	0.8403	0.439	-0.013
Mof_C 	C 	0.4098	0.7349	0.4157	-0.059
Mof_H 	H 	0.4308	0.7071	0.4256	0.059
Mof_C 	C 	0.3822	0.6706	0.378	-0.004
Mof_H 	H 	0.3841	0.5965	0.3633	0.043
Mof_C 	C 	0.3519	0.7155	0.3622	-0.07
Mof_C 	C 	0.349	0.822	0.3841	0.005
Mof_H 	H 	0.3279	0.8522	0.3722	0.051
Mof_C 	C 	0.3768	0.8864	0.4236	-0.054
Mof_H 	H 	0.3749	0.9596	0.4392	0.063
Mof_C 	C 	0.3223	0.6442	0.3221	0.308
Mof_C 	C 	0.2408	0.3909	0.3046	0.101
Mof_H 	H 	0.2288	0.3635	0.264	-0.01
Mof_C 	C 	0.2381	0.3312	0.3481	-0.186
Mof_H 	H 	0.225	0.2627	0.3374	0.104
Mof_C 	C 	0.2541	0.3687	0.4081	0.157
Mof_C 	C 	0.2722	0.4736	0.419	-0.177
Mof_H 	H 	0.2827	0.5077	0.4582	0.098
Mof_C 	C 	0.2746	0.5251	0.3732	0.101
Mof_H 	H 	0.2877	0.5932	0.3823	0.004
Mof_C 	C 	0.2699	0.3506	0.5152	-0.031
Mof_H 	H 	0.2709	0.4369	0.5168	0.045
Mof_H 	H 	0.2924	0.3207	0.532	0.045
Mof_C 	C 	0.2433	0.1902	0.448	-0.062
Mof_H 	H 	0.2275	0.1723	0.4051	0.064
Mof_H 	H 	0.2636	0.1461	0.4591	0.066
Mof_C 	C 	0.2845	0.4535	0.1784	0.306
Mof_C 	C 	0.2924	0.3803	0.1377	-0.058
Mof_C 	C 	0.3133	0.4277	0.1198	-0.012
Mof_H 	H 	0.323	0.5021	0.1342	0.047
Mof_C 	C 	0.3198	0.3646	0.0803	-0.05
Mof_H 	H 	0.3343	0.3949	0.0679	0.054
Mof_C 	C 	0.3049	0.2561	0.0588	-0.018
Mof_C 	C 	0.2844	0.2108	0.0766	-0.046
Mof_H 	H 	0.2742	0.1376	0.0612	0.06
Mof_C 	C 	0.2783	0.2718	0.1175	-0.001
Mof_H 	H 	0.2647	0.239	0.1312	0.052
Mof_C 	C 	0.3497	0.0997	0.0587	-0.01
Mof_C 	C 	0.3795	0.1445	0.0744	-0.063
Mof_H 	H 	0.3813	0.2169	0.0581	0.066
Mof_C 	C 	0.4072	0.0837	0.1144	0.016
Mof_H 	H 	0.4281	0.1149	0.1256	0.039
Mof_C 	C 	0.4049	0.9787	0.1381	-0.081
Mof_C 	C 	0.3738	0.9347	0.1212	0.003
Mof_H 	H 	0.372	0.8622	0.1374	0.04
Mof_C 	C 	0.3464	0.993	0.0824	-0.064
Mof_H 	H 	0.3254	0.9627	0.0714	0.061
Mof_C 	C 	0.4344	0.908	0.1798	0.322
Mof_C 	C 	0.4826	0.6692	0.3047	0.117
Mof_H 	H 	0.4674	0.6525	0.2635	-0.018
Mof_C 	C 	0.4833	0.5962	0.3483	-0.197
Mof_H 	H 	0.4694	0.5301	0.3361	0.109
Mof_C 	C 	0.5042	0.6169	0.4099	0.17
Mof_C 	C 	0.5246	0.7152	0.4218	-0.177
Mof_H 	H 	0.54	0.7348	0.4625	0.097
Mof_C 	C 	0.5226	0.7835	0.375	0.101
Mof_H 	H 	0.5367	0.8488	0.3849	-0
Mof_C 	C 	0.4885	0.4383	0.4433	-0.074
Mof_H 	H 	0.4716	0.4311	0.4001	0.063
Mof_H 	H 	0.5049	0.3762	0.4529	0.075
Mof_C 	C 	0.5267	0.5758	0.5186	-0.021
Mof_H 	H 	0.5355	0.656	0.5238	0.036
Mof_H 	H 	0.5453	0.521	0.5328	0.042
Mof_Zn	Zn	0.76866	0.9543	0.75016	1.209
Mof_S 	S 	0.94199	0.5811	0.98782	0.272
Mof_S 	S 	0.81393	0.3215	0.50936	0.277
Mof_O 	O 	0.98643	0.3547	0.7969	-0.461
Mof_O 	O 	0.9622	0.1998	0.8098	-0.322
Mof_O 	O 	0.9336	0.4995	0.0206	-0.225
Mof_O 	O 	0.9677	0.6661	0.0196	-0.219
Mof_O 	O 	0.82573	0.9641	0.8185	-0.355
Mof_O 	O 	0.7951	0.8062	0.7941	-0.414
Mof_O 	O 	0.7903	0.9409	0.6828	-0.356
Mof_O 	O 	0.77178	0.0984	0.7058	-0.416
Mof_O 	O 	0.7885	0.4071	0.4777	-0.226
Mof_O 	O 	0.8219	0.2394	0.4762	-0.227
Mof_O 	O 	0.96141	0.5369	0.7009	-0.446
Mof_O 	O 	0.9315	0.6957	0.6912	-0.314
Mof_N 	N 	0.7759	0.6064	0.3148	-0.273
Mof_N 	N 	0.8552	0.7874	0.4505	-0.125
Mof_N 	N 	0.8997	0.9374	0.5449	-0.125
Mof_N 	N 	0.9667	0.1582	0.683	-0.273
Mof_N 	N 	0.7593	0.0147	0.8156	-0.27
Mof_N 	N 	0.7508	0.1857	0.9531	-0.122
Mof_N 	N 	0.0045	0.9447	0.9545	-0.135
Mof_N 	N 	0.0017	0.7389	0.8169	-0.282
Mof_C 	C 	0.7889	0.7004	0.3034	0.098
Mof_H 	H 	0.779	0.7271	0.2627	-0.009
Mof_C 	C 	0.8156	0.7611	0.3464	-0.191
Mof_H 	H 	0.8239	0.8262	0.3352	0.105
Mof_C 	C 	0.8302	0.7255	0.4063	0.168
Mof_C 	C 	0.8175	0.6246	0.4184	-0.19
Mof_H 	H 	0.8277	0.5928	0.4581	0.103
Mof_C 	C 	0.7906	0.5727	0.373	0.108
Mof_H 	H 	0.7815	0.5083	0.3831	0.003
Mof_C 	C 	0.8739	0.7444	0.5134	-0.049
Mof_H 	H 	0.8606	0.687	0.5208	0.046
Mof_H 	H 	0.8939	0.7046	0.5195	0.061
Mof_C 	C 	0.8721	0.8803	0.4387	-0.047
Mof_H 	H 	0.8918	0.8475	0.4396	0.048
Mof_H 	H 	0.8577	0.9114	0.3975	0.058
Mof_C 	C 	0.8821	0.9763	0.4822	-0.044
Mof_H 	H 	0.8624	0.0197	0.4753	0.06
Mof_H 	H 	0.896	0.0307	0.475	0.044
Mof_C 	C 	0.8831	0.8424	0.5575	-0.049
Mof_H 	H 	0.8976	0.8125	0.5989	0.056
Mof_H 	H 	0.8631	0.8736	0.5559	0.05
Mof_C 	C 	0.9205	0.009	0.5898	0.161
Mof_C 	C 	0.935	0.1073	0.5783	-0.173
Mof_H 	H 	0.9287	0.1264	0.5377	0.097
Mof_C 	C 	0.9578	0.1758	0.6246	0.097
Mof_H 	H 	0.9676	0.2382	0.6147	0.007
Mof_C 	C 	0.9526	0.0658	0.6942	0.104
Mof_H 	H 	0.9584	0.0508	0.7351	-0.012
Mof_C 	C 	0.9306	0.9927	0.6506	-0.189
Mof_H 	H 	0.9221	0.9291	0.6622	0.105
Mof_C 	C 	0.9701	0.3022	0.8168	0.349
Mof_C 	C 	0.9627	0.3746	0.859	-0.078
Mof_C 	C 	0.9758	0.4851	0.8779	0.027
Mof_H 	H 	0.9889	0.5177	0.8629	0.035
Mof_C 	C 	0.9703	0.5495	0.9184	-0.065
Mof_H 	H 	0.98	0.624	0.9324	0.07
Mof_C 	C 	0.9503	0.5008	0.9373	-0.001
Mof_C 	C 	0.9362	0.3922	0.9188	-0.063
Mof_H 	H 	0.9222	0.3621	0.9323	0.058
Mof_C 	C 	0.943	0.3265	0.8795	0.008
Mof_H 	H 	0.9343	0.2502	0.8673	0.039
Mof_C 	C 	0.9065	0.6597	0.939	-0.012
Mof_C 	C 	0.9098	0.7651	0.9157	-0.06
Mof_H 	H 	0.9308	0.7929	0.9256	0.059
Mof_C 	C 	0.8822	0.8294	0.878	-0.003
Mof_H 	H 	0.8841	0.9035	0.8633	0.043
Mof_C 	C 	0.8519	0.7845	0.8622	-0.07
Mof_C 	C 	0.849	0.678	0.8841	0.005
Mof_H 	H 	0.8279	0.6478	0.8722	0.05
Mof_C 	C 	0.8768	0.6136	0.9236	-0.055
Mof_H 	H 	0.8749	0.5404	0.9392	0.063
Mof_C 	C 	0.8223	0.8558	0.8221	0.308
Mof_C 	C 	0.7408	0.1091	0.8046	0.1
Mof_H 	H 	0.7288	0.1365	0.764	-0.01
Mof_C 	C 	0.7381	0.1688	0.8481	-0.185
Mof_H 	H 	0.725	0.2373	0.8374	0.103
Mof_C 	C 	0.7541	0.1313	0.9081	0.154
Mof_C 	C 	0.7722	0.0264	0.919	-0.171
Mof_H 	H 	0.7827	0.9923	0.9582	0.095
Mof_C 	C 	0.7746	0.9749	0.8732	0.096
Mof_H 	H 	0.7877	0.9068	0.8823	0.005
Mof_C 	C 	0.7699	0.1494	0.0152	-0.032
Mof_H 	H 	0.7709	0.0631	0.0168	0.045
Mof_H 	H 	0.7924	0.1793	0.032	0.045
Mof_C 	C 	0.7433	0.3098	0.948	-0.062
Mof_H 	H 	0.7275	0.3277	0.9051	0.064
Mof_H 	H 	0.7636	0.3539	0.9591	0.066
Mof_C 	C 	0.7845	0.0465	0.6784	0.306
Mof_C 	C 	0.7924	0.1197	0.6377	-0.058
Mof_C 	C 	0.8133	0.0723	0.6198	-0.012
Mof_H 	H 	0.823	0.9979	0.6342	0.047
Mof_C 	C 	0.8198	0.1354	0.5803	-0.05
Mof_H 	H 	0.8343	0.1051	0.5679	0.054
Mof_C 	C 	0.8049	0.2439	0.5588	-0.018
Mof_C 	C 	0.7844	0.2892	0.5766	-0.046
Mof_H 	H 	0.7742	0.3624	0.5612	0.061
Mof_C 	C 	0.7783	0.2282	0.6175	-0.001
Mof_H 	H 	0.7647	0.261	0.6312	0.052
Mof_C 	C 	0.8497	0.4003	0.5587	-0.008
Mof_C 	C 	0.8795	0.3555	0.5744	-0.065
Mof_H 	H 	0.8813	0.2831	0.5581	0.067
Mof_C 	C 	0.9072	0.4163	0.6144	0.018
Mof_H 	H 	0.9281	0.3851	0.6256	0.039
Mof_C 	C 	0.9049	0.5213	0.6381	-0.083
Mof_C 	C 	0.8738	0.5653	0.6212	0.005
Mof_H 	H 	0.872	0.6378	0.6374	0.04
Mof_C 	C 	0.8464	0.507	0.5824	-0.066
Mof_H 	H 	0.8254	0.5373	0.5714	0.061
Mof_C 	C 	0.9344	0.592	0.6798	0.322
Mof_C 	C 	0.9826	0.8308	0.8047	0.122
Mof_H 	H 	0.9674	0.8475	0.7635	-0.019
Mof_C 	C 	0.9833	0.9038	0.8483	-0.188
Mof_H 	H 	0.9694	0.9699	0.8361	0.107
Mof_C 	C 	0.0042	0.8831	0.9099	0.161
Mof_C 	C 	0.0246	0.7848	0.9218	-0.176
Mof_H 	H 	0.04	0.7652	0.9625	0.096
Mof_C 	C 	0.0226	0.7165	0.875	0.097
Mof_H 	H 	0.0367	0.6512	0.8849	-0
Mof_C 	C 	0.9885	0.0617	0.9433	-0.048
Mof_H 	H 	0.9716	0.0689	0.9001	0.056
Mof_H 	H 	0.0049	0.1238	0.9529	0.063
Mof_C 	C 	0.0267	0.9242	0.0186	-0.009
Mof_H 	H 	0.0355	0.844	0.0238	0.032
Mof_H 	H 	0.0453	0.979	0.0328	0.038
Mof_Zn	Zn	0.26866	0.4543	0.75016	1.209
Mof_S 	S 	0.44199	0.0811	0.98782	0.276
Mof_S 	S 	0.31393	0.8215	0.50936	0.278
Mof_O 	O 	0.48643	0.8547	0.7969	-0.466
Mof_O 	O 	0.4622	0.6998	0.8098	-0.324
Mof_O 	O 	0.4336	0.9995	0.0206	-0.227
Mof_O 	O 	0.4677	0.1661	0.0196	-0.224
Mof_O 	O 	0.32573	0.4641	0.8185	-0.355
Mof_O 	O 	0.2951	0.3062	0.7941	-0.414
Mof_O 	O 	0.2903	0.4409	0.6828	-0.356
Mof_O 	O 	0.27178	0.5984	0.7058	-0.416
Mof_O 	O 	0.2885	0.9071	0.4777	-0.226
Mof_O 	O 	0.3219	0.7394	0.4762	-0.227
Mof_O 	O 	0.46141	0.0369	0.7009	-0.449
Mof_O 	O 	0.4315	0.1957	0.6912	-0.315
Mof_N 	N 	0.2759	0.1064	0.3148	-0.273
Mof_N 	N 	0.3552	0.2874	0.4505	-0.126
Mof_N 	N 	0.3997	0.4374	0.5449	-0.125
Mof_N 	N 	0.4667	0.6582	0.683	-0.275
Mof_N 	N 	0.2593	0.5147	0.8156	-0.272
Mof_N 	N 	0.2508	0.6857	0.9531	-0.123
Mof_N 	N 	0.5045	0.4447	0.9545	-0.128
Mof_N 	N 	0.5017	0.2389	0.8169	-0.277
Mof_C 	C 	0.2889	0.2004	0.3034	0.098
Mof_H 	H 	0.279	0.2271	0.2627	-0.009
Mof_C 	C 	0.3156	0.2611	0.3464	-0.191
Mof_H 	H 	0.3239	0.3262	0.3352	0.105
Mof_C 	C 	0.3302	0.2255	0.4063	0.168
Mof_C 	C 	0.3175	0.1246	0.4184	-0.19
Mof_H 	H 	0.3277	0.0928	0.4581	0.103
Mof_C 	C 	0.2906	0.0727	0.373	0.107
Mof_H 	H 	0.2815	0.0083	0.3831	0.003
Mof_C 	C 	0.3739	0.2444	0.5134	-0.049
Mof_H 	H 	0.3606	0.187	0.5208	0.046
Mof_H 	H 	0.3939	0.2046	0.5195	0.061
Mof_C 	C 	0.3721	0.3803	0.4387	-0.046
Mof_H 	H 	0.3918	0.3475	0.4396	0.048
Mof_H 	H 	0.3577	0.4114	0.3975	0.058
Mof_C 	C 	0.3821	0.4763	0.4822	-0.046
Mof_H 	H 	0.3624	0.5197	0.4753	0.061
Mof_H 	H 	0.396	0.5307	0.475	0.045
Mof_C 	C 	0.3831	0.3424	0.5575	-0.049
Mof_H 	H 	0.3976	0.3125	0.5989	0.056
Mof_H 	H 	0.3631	0.3736	0.5559	0.05
Mof_C 	C 	0.4205	0.509	0.5898	0.161
Mof_C 	C 	0.435	0.6073	0.5783	-0.174
Mof_H 	H 	0.4287	0.6264	0.5377	0.097
Mof_C 	C 	0.4578	0.6758	0.6246	0.096
Mof_H 	H 	0.4676	0.7382	0.6147	0.005
Mof_C 	C 	0.4526	0.5658	0.6942	0.104
Mof_H 	H 	0.4584	0.5508	0.7351	-0.013
Mof_C 	C 	0.4306	0.4927	0.6506	-0.19
Mof_H 	H 	0.4221	0.4291	0.6622	0.106
Mof_C 	C 	0.4701	0.8022	0.8168	0.349
Mof_C 	C 	0.4627	0.8746	0.859	-0.079
Mof_C 	C 	0.4758	0.9851	0.8779	0.023
Mof_H 	H 	0.4889	0.0177	0.8629	0.034
Mof_C 	C 	0.4703	0.0495	0.9184	-0.062
Mof_H 	H 	0.48	0.124	0.9324	0.067
Mof_C 	C 	0.4503	0.0008	0.9373	-0.002
Mof_C 	C 	0.4362	0.8922	0.9188	-0.063
Mof_H 	H 	0.4222	0.8621	0.9323	0.058
Mof_C 	C 	0.443	0.8265	0.8795	0.007
Mof_H 	H 	0.4343	0.7502	0.8673	0.039
Mof_C 	C 	0.4065	0.1597	0.939	-0.013
Mof_C 	C 	0.4098	0.2651	0.9157	-0.059
Mof_H 	H 	0.4308	0.2929	0.9256	0.059
Mof_C 	C 	0.3822	0.3294	0.878	-0.004
Mof_H 	H 	0.3841	0.4035	0.8633	0.043
Mof_C 	C 	0.3519	0.2845	0.8622	-0.069
Mof_C 	C 	0.349	0.178	0.8841	0.005
Mof_H 	H 	0.3279	0.1478	0.8722	0.051
Mof_C 	C 	0.3768	0.1136	0.9236	-0.054
Mof_H 	H 	0.3749	0.0404	0.9392	0.063
Mof_C 	C 	0.3223	0.3558	0.8221	0.307
Mof_C 	C 	0.2408	0.6091	0.8046	0.102
Mof_H 	H 	0.2288	0.6365	0.764	-0.01
Mof_C 	C 	0.2381	0.6688	0.8481	-0.186
Mof_H 	H 	0.225	0.7373	0.8374	0.104
Mof_C 	C 	0.2541	0.6313	0.9081	0.157
Mof_C 	C 	0.2722	0.5264	0.919	-0.177
Mof_H 	H 	0.2827	0.4923	0.9582	0.098
Mof_C 	C 	0.2746	0.4749	0.8732	0.101
Mof_H 	H 	0.2877	0.4068	0.8823	0.004
Mof_C 	C 	0.2699	0.6494	0.0152	-0.03
Mof_H 	H 	0.2709	0.5631	0.0168	0.045
Mof_H 	H 	0.2924	0.6793	0.032	0.045
Mof_C 	C 	0.2433	0.8098	0.948	-0.062
Mof_H 	H 	0.2275	0.8277	0.9051	0.064
Mof_H 	H 	0.2636	0.8539	0.9591	0.066
Mof_C 	C 	0.2845	0.5465	0.6784	0.306
Mof_C 	C 	0.2924	0.6197	0.6377	-0.058
Mof_C 	C 	0.3133	0.5723	0.6198	-0.012
Mof_H 	H 	0.323	0.4979	0.6342	0.047
Mof_C 	C 	0.3198	0.6354	0.5803	-0.05
Mof_H 	H 	0.3343	0.6051	0.5679	0.054
Mof_C 	C 	0.3049	0.7439	0.5588	-0.018
Mof_C 	C 	0.2844	0.7892	0.5766	-0.046
Mof_H 	H 	0.2742	0.8624	0.5612	0.061
Mof_C 	C 	0.2783	0.7282	0.6175	-0.001
Mof_H 	H 	0.2647	0.761	0.6312	0.052
Mof_C 	C 	0.3497	0.9003	0.5587	-0.009
Mof_C 	C 	0.3795	0.8555	0.5744	-0.064
Mof_H 	H 	0.3813	0.7831	0.5581	0.066
Mof_C 	C 	0.4072	0.9163	0.6144	0.017
Mof_H 	H 	0.4281	0.8851	0.6256	0.038
Mof_C 	C 	0.4049	0.0213	0.6381	-0.082
Mof_C 	C 	0.3738	0.0653	0.6212	0.004
Mof_H 	H 	0.372	0.1378	0.6374	0.04
Mof_C 	C 	0.3464	0.007	0.5824	-0.065
Mof_H 	H 	0.3254	0.0373	0.5714	0.061
Mof_C 	C 	0.4344	0.092	0.6798	0.322
Mof_C 	C 	0.4826	0.3308	0.8047	0.117
Mof_H 	H 	0.4674	0.3475	0.7635	-0.018
Mof_C 	C 	0.4833	0.4038	0.8483	-0.197
Mof_H 	H 	0.4694	0.4699	0.8361	0.109
Mof_C 	C 	0.5042	0.3831	0.9099	0.17
Mof_C 	C 	0.5246	0.2848	0.9218	-0.177
Mof_H 	H 	0.54	0.2652	0.9625	0.097
Mof_C 	C 	0.5226	0.2165	0.875	0.101
Mof_H 	H 	0.5367	0.1512	0.8849	-0
Mof_C 	C 	0.4885	0.5617	0.9433	-0.074
Mof_H 	H 	0.4716	0.5689	0.9001	0.063
Mof_H 	H 	0.5049	0.6238	0.9529	0.075
Mof_C 	C 	0.5267	0.4242	0.0186	-0.021
Mof_H 	H 	0.5355	0.344	0.0238	0.036
Mof_H 	H 	0.5453	0.479	0.0328	0.042
Mof_Zn	Zn	0.23134	0.9543	0.74984	1.209
Mof_S 	S 	0.05801	0.5811	0.51218	0.274
Mof_S 	S 	0.18607	0.3215	0.99064	0.277
Mof_O 	O 	0.01357	0.3547	0.7031	-0.468
Mof_O 	O 	0.0378	0.1998	0.6902	-0.325
Mof_O 	O 	0.0664	0.4995	0.4794	-0.228
Mof_O 	O 	0.0323	0.6661	0.4804	-0.225
Mof_O 	O 	0.17427	0.9641	0.6815	-0.355
Mof_O 	O 	0.2049	0.8062	0.7059	-0.414
Mof_O 	O 	0.2097	0.9409	0.8172	-0.356
Mof_O 	O 	0.22822	0.0984	0.7942	-0.416
Mof_O 	O 	0.2115	0.4071	0.0223	-0.225
Mof_O 	O 	0.1781	0.2394	0.0238	-0.227
Mof_O 	O 	0.03859	0.5369	0.7991	-0.451
Mof_O 	O 	0.0685	0.6957	0.8088	-0.315
Mof_N 	N 	0.2241	0.6064	0.1852	-0.273
Mof_N 	N 	0.1448	0.7874	0.0495	-0.125
Mof_N 	N 	0.1003	0.9374	0.9551	-0.127
Mof_N 	N 	0.0333	0.1582	0.817	-0.276
Mof_N 	N 	0.2407	0.0147	0.6844	-0.271
Mof_N 	N 	0.2492	0.1857	0.5469	-0.122
Mof_N 	N 	0.9955	0.9447	0.5455	-0.121
Mof_N 	N 	0.9983	0.7389	0.6831	-0.272
Mof_C 	C 	0.2111	0.7004	0.1966	0.098
Mof_H 	H 	0.221	0.7271	0.2373	-0.009
Mof_C 	C 	0.1844	0.7611	0.1536	-0.191
Mof_H 	H 	0.1761	0.8262	0.1648	0.105
Mof_C 	C 	0.1698	0.7255	0.0937	0.168
Mof_C 	C 	0.1825	0.6246	0.0816	-0.19
Mof_H 	H 	0.1723	0.5928	0.0419	0.103
Mof_C 	C 	0.2094	0.5727	0.127	0.108
Mof_H 	H 	0.2185	0.5083	0.1169	0.003
Mof_C 	C 	0.1261	0.7444	0.9866	-0.05
Mof_H 	H 	0.1394	0.687	0.9792	0.047
Mof_H 	H 	0.1061	0.7046	0.9805	0.061
Mof_C 	C 	0.1279	0.8803	0.0613	-0.049
Mof_H 	H 	0.1082	0.8475	0.0604	0.049
Mof_H 	H 	0.1423	0.9114	0.1025	0.059
Mof_C 	C 	0.1179	0.9763	0.0178	-0.039
Mof_H 	H 	0.1376	0.0197	0.0247	0.058
Mof_H 	H 	0.104	0.0307	0.025	0.042
Mof_C 	C 	0.1169	0.8424	0.9425	-0.048
Mof_H 	H 	0.1024	0.8125	0.9011	0.056
Mof_H 	H 	0.1369	0.8736	0.9441	0.05
Mof_C 	C 	0.0795	0.009	0.9102	0.163
Mof_C 	C 	0.065	0.1073	0.9217	-0.175
Mof_H 	H 	0.0713	0.1264	0.9623	0.097
Mof_C 	C 	0.0422	0.1758	0.8754	0.096
Mof_H 	H 	0.0324	0.2382	0.8853	0.003
Mof_C 	C 	0.0474	0.0658	0.8058	0.104
Mof_H 	H 	0.0416	0.0508	0.7649	-0.014
Mof_C 	C 	0.0694	0.9927	0.8494	-0.192
Mof_H 	H 	0.0779	0.9291	0.8378	0.106
Mof_C 	C 	0.0299	0.3022	0.6832	0.35
Mof_C 	C 	0.0373	0.3746	0.641	-0.082
Mof_C 	C 	0.0242	0.4851	0.6221	0.026
Mof_H 	H 	0.0111	0.5177	0.6371	0.03
Mof_C 	C 	0.0297	0.5495	0.5816	-0.066
Mof_H 	H 	0.02	0.624	0.5676	0.066
Mof_C 	C 	0.0497	0.5008	0.5627	-0.003
Mof_C 	C 	0.0638	0.3922	0.5812	-0.063
Mof_H 	H 	0.0778	0.3621	0.5677	0.058
Mof_C 	C 	0.057	0.3265	0.6205	0.008
Mof_H 	H 	0.0657	0.2502	0.6327	0.038
Mof_C 	C 	0.0935	0.6597	0.561	-0.013
Mof_C 	C 	0.0902	0.7651	0.5843	-0.059
Mof_H 	H 	0.0692	0.7929	0.5744	0.058
Mof_C 	C 	0.1178	0.8294	0.622	-0.004
Mof_H 	H 	0.1159	0.9035	0.6367	0.043
Mof_C 	C 	0.1481	0.7845	0.6378	-0.07
Mof_C 	C 	0.151	0.678	0.6159	0.005
Mof_H 	H 	0.1721	0.6478	0.6278	0.051
Mof_C 	C 	0.1232	0.6136	0.5764	-0.054
Mof_H 	H 	0.1251	0.5404	0.5608	0.063
Mof_C 	C 	0.1777	0.8558	0.6779	0.308
Mof_C 	C 	0.2592	0.1091	0.6954	0.101
Mof_H 	H 	0.2712	0.1365	0.736	-0.01
Mof_C 	C 	0.2619	0.1688	0.6519	-0.185
Mof_H 	H 	0.275	0.2373	0.6626	0.103
Mof_C 	C 	0.2459	0.1313	0.5919	0.156
Mof_C 	C 	0.2278	0.0264	0.581	-0.174
Mof_H 	H 	0.2173	0.9923	0.5418	0.096
Mof_C 	C 	0.2254	0.9749	0.6268	0.098
Mof_H 	H 	0.2123	0.9068	0.6177	0.005
Mof_C 	C 	0.2301	0.1494	0.4848	-0.031
Mof_H 	H 	0.2291	0.0631	0.4832	0.045
Mof_H 	H 	0.2076	0.1793	0.468	0.045
Mof_C 	C 	0.2567	0.3098	0.552	-0.062
Mof_H 	H 	0.2725	0.3277	0.5949	0.064
Mof_H 	H 	0.2364	0.3539	0.5409	0.066
Mof_C 	C 	0.2155	0.0465	0.8216	0.307
Mof_C 	C 	0.2076	0.1197	0.8623	-0.058
Mof_C 	C 	0.1867	0.0723	0.8802	-0.01
Mof_H 	H 	0.177	0.9979	0.8658	0.046
Mof_C 	C 	0.1802	0.1354	0.9197	-0.051
Mof_H 	H 	0.1657	0.1051	0.9321	0.055
Mof_C 	C 	0.1951	0.2439	0.9412	-0.017
Mof_C 	C 	0.2156	0.2892	0.9234	-0.047
Mof_H 	H 	0.2258	0.3624	0.9388	0.061
Mof_C 	C 	0.2217	0.2282	0.8825	-0
Mof_H 	H 	0.2353	0.261	0.8688	0.052
Mof_C 	C 	0.1503	0.4003	0.9413	-0.008
Mof_C 	C 	0.1205	0.3555	0.9256	-0.065
Mof_H 	H 	0.1187	0.2831	0.9419	0.067
Mof_C 	C 	0.0928	0.4163	0.8856	0.019
Mof_H 	H 	0.0719	0.3851	0.8744	0.037
Mof_C 	C 	0.0951	0.5213	0.8619	-0.084
Mof_C 	C 	0.1262	0.5653	0.8788	0.005
Mof_H 	H 	0.128	0.6378	0.8626	0.039
Mof_C 	C 	0.1536	0.507	0.9176	-0.067
Mof_H 	H 	0.1746	0.5373	0.9286	0.062
Mof_C 	C 	0.0656	0.592	0.8202	0.323
Mof_C 	C 	0.0174	0.8308	0.6953	0.111
Mof_H 	H 	0.0326	0.8475	0.7365	-0.018
Mof_C 	C 	0.0167	0.9038	0.6517	-0.206
Mof_H 	H 	0.0306	0.9699	0.6639	0.111
Mof_C 	C 	0.9958	0.8831	0.5901	0.179
Mof_C 	C 	0.9754	0.7848	0.5782	-0.179
Mof_H 	H 	0.96	0.7652	0.5375	0.098
Mof_C 	C 	0.9774	0.7165	0.625	0.104
Mof_H 	H 	0.9633	0.6512	0.6151	-0
Mof_C 	C 	0.0115	0.0617	0.5567	-0.1
Mof_H 	H 	0.0284	0.0689	0.5999	0.069
Mof_H 	H 	0.9951	0.1238	0.5471	0.088
Mof_C 	C 	0.9733	0.9242	0.4814	-0.032
Mof_H 	H 	0.9645	0.844	0.4762	0.04
Mof_H 	H 	0.9547	0.979	0.4672	0.045
Mof_Zn	Zn	0.73134	0.4543	0.74984	1.209
Mof_S 	S 	0.55801	0.0811	0.51218	0.275
Mof_S 	S 	0.68607	0.8215	0.99064	0.276
Mof_O 	O 	0.51357	0.8547	0.7031	-0.466
Mof_O 	O 	0.5378	0.6998	0.6902	-0.324
Mof_O 	O 	0.5664	0.9995	0.4794	-0.227
Mof_O 	O 	0.5323	0.1661	0.4804	-0.223
Mof_O 	O 	0.67427	0.4641	0.6815	-0.355
Mof_O 	O 	0.7049	0.3062	0.7059	-0.414
Mof_O 	O 	0.7097	0.4409	0.8172	-0.356
Mof_O 	O 	0.72822	0.5984	0.7942	-0.416
Mof_O 	O 	0.7115	0.9071	0.0223	-0.225
Mof_O 	O 	0.6781	0.7394	0.0238	-0.226
Mof_O 	O 	0.53859	0.0369	0.7991	-0.449
Mof_O 	O 	0.5685	0.1957	0.8088	-0.315
Mof_N 	N 	0.7241	0.1064	0.1852	-0.273
Mof_N 	N 	0.6448	0.2874	0.0495	-0.126
Mof_N 	N 	0.6003	0.4374	0.9551	-0.125
Mof_N 	N 	0.5333	0.6582	0.817	-0.275
Mof_N 	N 	0.7407	0.5147	0.6844	-0.272
Mof_N 	N 	0.7492	0.6857	0.5469	-0.123
Mof_N 	N 	0.4955	0.4447	0.5455	-0.128
Mof_N 	N 	0.4983	0.2389	0.6831	-0.277
Mof_C 	C 	0.7111	0.2004	0.1966	0.098
Mof_H 	H 	0.721	0.2271	0.2373	-0.009
Mof_C 	C 	0.6844	0.2611	0.1536	-0.191
Mof_H 	H 	0.6761	0.3262	0.1648	0.105
Mof_C 	C 	0.6698	0.2255	0.0937	0.168
Mof_C 	C 	0.6825	0.1246	0.0816	-0.19
Mof_H 	H 	0.6723	0.0928	0.0419	0.103
Mof_C 	C 	0.7094	0.0727	0.127	0.107
Mof_H 	H 	0.7185	0.0083	0.1169	0.002
Mof_C 	C 	0.6261	0.2444	0.9866	-0.049
Mof_H 	H 	0.6394	0.187	0.9792	0.046
Mof_H 	H 	0.6061	0.2046	0.9805	0.061
Mof_C 	C 	0.6279	0.3803	0.0613	-0.046
Mof_H 	H 	0.6082	0.3475	0.0604	0.048
Mof_H 	H 	0.6423	0.4114	0.1025	0.058
Mof_C 	C 	0.6179	0.4763	0.0178	-0.047
Mof_H 	H 	0.6376	0.5197	0.0247	0.061
Mof_H 	H 	0.604	0.5307	0.025	0.045
Mof_C 	C 	0.6169	0.3424	0.9425	-0.049
Mof_H 	H 	0.6024	0.3125	0.9011	0.056
Mof_H 	H 	0.6369	0.3736	0.9441	0.05
Mof_C 	C 	0.5795	0.509	0.9102	0.161
Mof_C 	C 	0.565	0.6073	0.9217	-0.174
Mof_H 	H 	0.5713	0.6264	0.9623	0.097
Mof_C 	C 	0.5422	0.6758	0.8754	0.096
Mof_H 	H 	0.5324	0.7382	0.8853	0.005
Mof_C 	C 	0.5474	0.5658	0.8058	0.104
Mof_H 	H 	0.5416	0.5508	0.7649	-0.013
Mof_C 	C 	0.5694	0.4927	0.8494	-0.19
Mof_H 	H 	0.5779	0.4291	0.8378	0.106
Mof_C 	C 	0.5299	0.8022	0.6832	0.349
Mof_C 	C 	0.5373	0.8746	0.641	-0.079
Mof_C 	C 	0.5242	0.9851	0.6221	0.024
Mof_H 	H 	0.5111	0.0177	0.6371	0.033
Mof_C 	C 	0.5297	0.0495	0.5816	-0.064
Mof_H 	H 	0.52	0.124	0.5676	0.068
Mof_C 	C 	0.5497	0.0008	0.5627	-0.003
Mof_C 	C 	0.5638	0.8922	0.5812	-0.062
Mof_H 	H 	0.5778	0.8621	0.5677	0.058
Mof_C 	C 	0.557	0.8265	0.6205	0.007
Mof_H 	H 	0.5657	0.7502	0.6327	0.038
Mof_C 	C 	0.5935	0.1597	0.561	-0.013
Mof_C 	C 	0.5902	0.2651	0.5843	-0.059
Mof_H 	H 	0.5692	0.2929	0.5744	0.059
Mof_C 	C 	0.6178	0.3294	0.622	-0.004
Mof_H 	H 	0.6159	0.4035	0.6367	0.043
Mof_C 	C 	0.6481	0.2845	0.6378	-0.07
Mof_C 	C 	0.651	0.178	0.6159	0.005
Mof_H 	H 	0.6721	0.1478	0.6278	0.051
Mof_C 	C 	0.6232	0.1136	0.5764	-0.054
Mof_H 	H 	0.6251	0.0404	0.5608	0.063
Mof_C 	C 	0.6777	0.3558	0.6779	0.308
Mof_C 	C 	0.7592	0.6091	0.6954	0.101
Mof_H 	H 	0.7712	0.6365	0.736	-0.01
Mof_C 	C 	0.7619	0.6688	0.6519	-0.186
Mof_H 	H 	0.775	0.7373	0.6626	0.104
Mof_C 	C 	0.7459	0.6313	0.5919	0.157
Mof_C 	C 	0.7278	0.5264	0.581	-0.177
Mof_H 	H 	0.7173	0.4923	0.5418	0.098
Mof_C 	C 	0.7254	0.4749	0.6268	0.101
Mof_H 	H 	0.7123	0.4068	0.6177	0.004
Mof_C 	C 	0.7301	0.6494	0.4848	-0.031
Mof_H 	H 	0.7291	0.5631	0.4832	0.045
Mof_H 	H 	0.7076	0.6793	0.468	0.045
Mof_C 	C 	0.7567	0.8098	0.552	-0.062
Mof_H 	H 	0.7725	0.8277	0.5949	0.064
Mof_H 	H 	0.7364	0.8539	0.5409	0.066
Mof_C 	C 	0.7155	0.5465	0.8216	0.306
Mof_C 	C 	0.7076	0.6197	0.8623	-0.058
Mof_C 	C 	0.6867	0.5723	0.8802	-0.012
Mof_H 	H 	0.677	0.4979	0.8658	0.047
Mof_C 	C 	0.6802	0.6354	0.9197	-0.05
Mof_H 	H 	0.6657	0.6051	0.9321	0.054
Mof_C 	C 	0.6951	0.7439	0.9412	-0.018
Mof_C 	C 	0.7156	0.7892	0.9234	-0.047
Mof_H 	H 	0.7258	0.8624	0.9388	0.06
Mof_C 	C 	0.7217	0.7282	0.8825	-0.001
Mof_H 	H 	0.7353	0.761	0.8688	0.052
Mof_C 	C 	0.6503	0.9003	0.9413	-0.01
Mof_C 	C 	0.6205	0.8555	0.9256	-0.063
Mof_H 	H 	0.6187	0.7831	0.9419	0.066
Mof_C 	C 	0.5928	0.9163	0.8856	0.016
Mof_H 	H 	0.5719	0.8851	0.8744	0.039
Mof_C 	C 	0.5951	0.0213	0.8619	-0.081
Mof_C 	C 	0.6262	0.0653	0.8788	0.003
Mof_H 	H 	0.628	0.1378	0.8626	0.04
Mof_C 	C 	0.6536	0.007	0.9176	-0.064
Mof_H 	H 	0.6746	0.0373	0.9286	0.061
Mof_C 	C 	0.5656	0.092	0.8202	0.322
Mof_C 	C 	0.5174	0.3308	0.6953	0.117
Mof_H 	H 	0.5326	0.3475	0.7365	-0.018
Mof_C 	C 	0.5167	0.4038	0.6517	-0.197
Mof_H 	H 	0.5306	0.4699	0.6639	0.109
Mof_C 	C 	0.4958	0.3831	0.5901	0.17
Mof_C 	C 	0.4754	0.2848	0.5782	-0.177
Mof_H 	H 	0.46	0.2652	0.5375	0.097
Mof_C 	C 	0.4774	0.2165	0.625	0.101
Mof_H 	H 	0.4633	0.1512	0.6151	-0
Mof_C 	C 	0.5115	0.5617	0.5567	-0.074
Mof_H 	H 	0.5284	0.5689	0.5999	0.063
Mof_H 	H 	0.4951	0.6238	0.5471	0.075
Mof_C 	C 	0.4733	0.4242	0.4814	-0.021
Mof_H 	H 	0.4645	0.344	0.4762	0.036
Mof_H 	H 	0.4547	0.479	0.4672	0.042
Mof_Zn	Zn	7.5664e-34	0.7392	0.25	1.211
Mof_Zn	Zn	7.5664e-34	0.36504	0.25	1.206
Mof_Zn	Zn	0.5	0.2392	0.25	1.213
Mof_Zn	Zn	0.5	0.86504	0.25	1.208
Mof_Zn	Zn	2.26992e-33	0.2608	0.75	1.211
Mof_Zn	Zn	2.26992e-33	0.63496	0.75	1.206
Mof_Zn	Zn	0.5	0.7608	0.75	1.213
Mof_Zn	Zn	0.5	0.13496	0.75	1.208
_end
