data_functionalizedCrystal
_audit_creation_method	'EQeq! by Chris Wilmer'
_symmetry_space_group_name_H-M	'P1'
_symmetry_Int_Tables_number	1
_symmetry_cell_setting	triclinic
loop_
_symmetry_equiv_pos_as_xyz
  x,y,z
_cell_length_a	10.094
_cell_length_b	13.699
_cell_length_c	13.723
_cell_angle_alpha	90
_cell_angle_beta	107.92
_cell_angle_gamma	90
loop_
_atom_site_label
_atom_site_type_symbol
_atom_site_fract_x
_atom_site_fract_y
_atom_site_fract_z
_atom_site_charge
Mof_Cd	Cd	0.6734	0.55723	0.08155	0.496
Mof_O 	O 	0.8529	0.4563	0.2181	-0.231
Mof_O 	O 	0.6273	0.4292	0.178	-0.242
Mof_O 	O 	0.6045	0.0597	0.4557	-0.268
Mof_O 	O 	0.4552	0.1493	0.3373	-0.243
Mof_O 	O 	0.1665	0.1821	0.3605	-0.237
Mof_O 	O 	0.118	0.0767	0.467	-0.237
Mof_C 	C 	0.7524	0.4055	0.2238	0.286
Mof_C 	C 	0.5782	0.125	0.387	0.299
Mof_C 	C 	0.0842	0.1473	0.4051	0.285
Mof_C 	C 	0.8326	0.1415	0.4017	-0
Mof_H 	H 	0.8511	0.0858	0.4424	0.078
Mof_C 	C 	0.941	0.1898	0.3787	-0.042
Mof_C 	C 	0.9133	0.2771	0.3241	-0.001
Mof_H 	H 	0.9862	0.3114	0.312	0.075
Mof_C 	C 	0.7799	0.3135	0.2876	-0.046
Mof_C 	C 	0.6707	0.2615	0.3055	0.002
Mof_H 	H 	0.5798	0.2838	0.2782	0.072
Mof_C 	C 	0.6969	0.1764	0.3639	-0.05
Mof_Cd	Cd	0.3266	0.05723	0.41845	0.497
Mof_O 	O 	0.1471	0.9563	0.2819	-0.229
Mof_O 	O 	0.3727	0.9292	0.322	-0.241
Mof_O 	O 	0.3955	0.5597	0.0443	-0.267
Mof_O 	O 	0.5448	0.6493	0.1627	-0.242
Mof_O 	O 	0.8335	0.6821	0.1395	-0.237
Mof_O 	O 	0.882	0.5767	0.033	-0.237
Mof_C 	C 	0.2476	0.9055	0.2762	0.286
Mof_C 	C 	0.4218	0.625	0.113	0.299
Mof_C 	C 	0.9158	0.6473	0.0949	0.285
Mof_C 	C 	0.1674	0.6415	0.0983	0
Mof_H 	H 	0.1489	0.5858	0.0576	0.078
Mof_C 	C 	0.059	0.6898	0.1213	-0.042
Mof_C 	C 	0.0867	0.7771	0.1759	-0.001
Mof_H 	H 	0.0138	0.8114	0.188	0.075
Mof_C 	C 	0.2201	0.8135	0.2124	-0.046
Mof_C 	C 	0.3293	0.7615	0.1945	0.002
Mof_H 	H 	0.4202	0.7838	0.2218	0.072
Mof_C 	C 	0.3031	0.6764	0.1361	-0.05
Mof_Cd	Cd	0.3266	0.44277	0.91845	0.497
Mof_O 	O 	0.1471	0.5437	0.7819	-0.23
Mof_O 	O 	0.3727	0.5708	0.822	-0.241
Mof_O 	O 	0.3955	0.9403	0.5443	-0.267
Mof_O 	O 	0.5448	0.8507	0.6627	-0.243
Mof_O 	O 	0.8335	0.8179	0.6395	-0.237
Mof_O 	O 	0.882	0.9233	0.533	-0.237
Mof_C 	C 	0.2476	0.5945	0.7762	0.286
Mof_C 	C 	0.4218	0.875	0.613	0.299
Mof_C 	C 	0.9158	0.8527	0.5949	0.285
Mof_C 	C 	0.1674	0.8585	0.5983	-0
Mof_H 	H 	0.1489	0.9142	0.5576	0.078
Mof_C 	C 	0.059	0.8102	0.6213	-0.042
Mof_C 	C 	0.0867	0.7229	0.6759	-0.001
Mof_H 	H 	0.0138	0.6886	0.688	0.075
Mof_C 	C 	0.2201	0.6865	0.7124	-0.046
Mof_C 	C 	0.3293	0.7385	0.6945	0.002
Mof_H 	H 	0.4202	0.7162	0.7218	0.072
Mof_C 	C 	0.3031	0.8236	0.6361	-0.05
Mof_Cd	Cd	0.6734	0.94277	0.58155	0.497
Mof_O 	O 	0.8529	0.0437	0.7181	-0.229
Mof_O 	O 	0.6273	0.0708	0.678	-0.241
Mof_O 	O 	0.6045	0.4403	0.9557	-0.267
Mof_O 	O 	0.4552	0.3507	0.8373	-0.242
Mof_O 	O 	0.1665	0.3179	0.8605	-0.237
Mof_O 	O 	0.118	0.4233	0.967	-0.237
Mof_C 	C 	0.7524	0.0945	0.7238	0.286
Mof_C 	C 	0.5782	0.375	0.887	0.299
Mof_C 	C 	0.0842	0.3527	0.9051	0.285
Mof_C 	C 	0.8326	0.3585	0.9017	0
Mof_H 	H 	0.8511	0.4142	0.9424	0.078
Mof_C 	C 	0.941	0.3102	0.8787	-0.042
Mof_C 	C 	0.9133	0.2229	0.8241	-0.001
Mof_H 	H 	0.9862	0.1886	0.812	0.075
Mof_C 	C 	0.7799	0.1865	0.7876	-0.046
Mof_C 	C 	0.6707	0.2385	0.8055	0.002
Mof_H 	H 	0.5798	0.2162	0.7782	0.072
Mof_C 	C 	0.6969	0.3236	0.8639	-0.05
_end
