data_functionalizedCrystal
_audit_creation_method	'EQeq! by Chris Wilmer'
_symmetry_space_group_name_H-M	'P1'
_symmetry_Int_Tables_number	1
_symmetry_cell_setting	triclinic
loop_
_symmetry_equiv_pos_as_xyz
  x,y,z
_cell_length_a	17.0544
_cell_length_b	22.1816
_cell_length_c	24.8632
_cell_angle_alpha	90
_cell_angle_beta	90
_cell_angle_gamma	90
loop_
_atom_site_label
_atom_site_type_symbol
_atom_site_fract_x
_atom_site_fract_y
_atom_site_fract_z
_atom_site_charge
Mof_Zn	Zn	0.01031	0.66686	0.38619	1.233
Mof_Zn	Zn	0.48969	0.33314	0.88619	1.233
Mof_Zn	Zn	0.01031	0.83314	0.38619	1.233
Mof_Zn	Zn	0.48969	0.16686	0.88619	1.233
Mof_Ni	Ni	0.1256	0.75	0.3132	1.113
Mof_Ni	Ni	0.3744	0.25	0.8132	1.113
Mof_H 	H 	0.6652	0.0228	0.992	0.04
Mof_H 	H 	0.7869	0.0069	0.0279	0.075
Mof_H 	H 	0.8524	0.1724	0.9822	0.068
Mof_H 	H 	0.7293	0.188	0.9465	0.038
Mof_H 	H 	0.8805	0.0269	0.0944	0.071
Mof_H 	H 	0.1142	0.0401	0.0793	0.068
Mof_H 	H 	0.9723	0.1228	0.9737	0.068
Mof_H 	H 	0.9192	0.0162	0.1862	0.073
Mof_H 	H 	0.9342	0.9511	0.2569	0.028
Mof_H 	H 	0.1182	0.8758	0.1835	0.026
Mof_H 	H 	0.1042	0.9418	0.1134	0.075
Mof_H 	H 	0.1972	0.1141	0.0555	0.077
Mof_H 	H 	0.3071	0.1441	0.0099	0.027
Mof_H 	H 	0.1858	0.1405	0.872	0.025
Mof_H 	H 	0.0771	0.1072	0.9176	0.08
Mof_H 	H 	0.233	0.6627	0.2559	0.003
Mof_H 	H 	0.315	0.6599	0.1828	0.089
Mof_H 	H 	0.8348	0.9772	0.492	0.039
Mof_H 	H 	0.7131	0.9931	0.5279	0.074
Mof_H 	H 	0.6476	0.8276	0.4822	0.067
Mof_H 	H 	0.7707	0.812	0.4465	0.037
Mof_H 	H 	0.6195	0.9731	0.5944	0.07
Mof_H 	H 	0.3858	0.9599	0.5793	0.067
Mof_H 	H 	0.5277	0.8772	0.4737	0.067
Mof_H 	H 	0.5808	0.9838	0.6862	0.076
Mof_H 	H 	0.5658	0.0489	0.7569	0.026
Mof_H 	H 	0.3818	0.1242	0.6835	0.024
Mof_H 	H 	0.3958	0.0582	0.6134	0.076
Mof_H 	H 	0.3028	0.8859	0.5555	0.076
Mof_H 	H 	0.1929	0.8559	0.5099	0.028
Mof_H 	H 	0.3142	0.8595	0.372	0.026
Mof_H 	H 	0.4229	0.8928	0.4176	0.079
Mof_H 	H 	0.267	0.3373	0.7559	0.003
Mof_H 	H 	0.185	0.3401	0.6828	0.089
Mof_H 	H 	0.6652	0.4772	0.992	0.039
Mof_H 	H 	0.7869	0.4931	0.0279	0.074
Mof_H 	H 	0.8524	0.3276	0.9822	0.067
Mof_H 	H 	0.7293	0.312	0.9465	0.037
Mof_H 	H 	0.8805	0.4731	0.0944	0.07
Mof_H 	H 	0.1142	0.4599	0.0793	0.067
Mof_H 	H 	0.9723	0.3772	0.9737	0.066
Mof_H 	H 	0.9192	0.4838	0.1862	0.075
Mof_H 	H 	0.9342	0.5489	0.2569	0.026
Mof_H 	H 	0.1182	0.6242	0.1835	0.024
Mof_H 	H 	0.1042	0.5582	0.1134	0.076
Mof_H 	H 	0.1972	0.3859	0.0555	0.077
Mof_H 	H 	0.3071	0.3559	0.0099	0.027
Mof_H 	H 	0.1858	0.3595	0.872	0.025
Mof_H 	H 	0.0771	0.3928	0.9176	0.08
Mof_H 	H 	0.233	0.8373	0.2559	0.003
Mof_H 	H 	0.315	0.8401	0.1828	0.089
Mof_H 	H 	0.8348	0.5228	0.492	0.039
Mof_H 	H 	0.7131	0.5069	0.5279	0.074
Mof_H 	H 	0.6476	0.6724	0.4822	0.067
Mof_H 	H 	0.7707	0.688	0.4465	0.037
Mof_H 	H 	0.6195	0.5269	0.5944	0.07
Mof_H 	H 	0.3858	0.5401	0.5793	0.067
Mof_H 	H 	0.5277	0.6228	0.4737	0.068
Mof_H 	H 	0.5808	0.5162	0.6862	0.076
Mof_H 	H 	0.5658	0.4511	0.7569	0.026
Mof_H 	H 	0.3818	0.3758	0.6835	0.024
Mof_H 	H 	0.3958	0.4418	0.6134	0.076
Mof_H 	H 	0.3028	0.6141	0.5555	0.076
Mof_H 	H 	0.1929	0.6441	0.5099	0.028
Mof_H 	H 	0.3142	0.6405	0.372	0.026
Mof_H 	H 	0.4229	0.6072	0.4176	0.079
Mof_H 	H 	0.267	0.1627	0.7559	0.003
Mof_H 	H 	0.185	0.1599	0.6828	0.089
Mof_H 	H 	0.356	0.75	0.145	0.01
Mof_H 	H 	0.144	0.25	0.645	0.01
Mof_C 	C 	0.6048	0.1167	0.9404	0.341
Mof_C 	C 	0.68407	0.10633	0.96539	-0.102
Mof_C 	C 	0.7027	0.0531	0.9899	0.036
Mof_C 	C 	0.7757	0.04352	0.0114	-0.109
Mof_C 	C 	0.83351	0.08803	0.00894	0.041
Mof_C 	C 	0.8149	0.14205	0.98433	-0.106
Mof_C 	C 	0.7411	0.15137	0.9628	0.031
Mof_C 	C 	0.91369	0.07598	0.03047	0.043
Mof_C 	C 	0.92422	0.04101	0.07592	-0.107
Mof_C 	C 	0.99895	0.02638	0.0948	0.037
Mof_C 	C 	0.06401	0.04918	0.06709	-0.101
Mof_C 	C 	0.05515	0.08529	0.02154	0.036
Mof_C 	C 	0.97911	0.09849	0.00384	-0.105
Mof_C 	C 	0.00972	0.98658	0.14171	0.049
Mof_C 	C 	0.9597	0.9881	0.18548	-0.117
Mof_C 	C 	0.9687	0.9491	0.22795	0.055
Mof_C 	C 	0.0284	0.90677	0.22825	-0.128
Mof_C 	C 	0.0783	0.90438	0.1844	0.055
Mof_C 	C 	0.0695	0.94376	0.14219	-0.123
Mof_C 	C 	0.03835	0.86374	0.27445	0.389
Mof_C 	C 	0.12502	0.10749	0.99223	0.058
Mof_C 	C 	0.1948	0.1189	0.0184	-0.128
Mof_C 	C 	0.2608	0.1372	0.99118	0.061
Mof_C 	C 	0.25857	0.14562	0.93567	-0.137
Mof_C 	C 	0.1886	0.13463	0.90899	0.061
Mof_C 	C 	0.12305	0.11522	0.9364	-0.128
Mof_C 	C 	0.3292	0.16514	0.90594	0.388
Mof_C 	C 	0.2488	0.6989	0.24034	0.098
Mof_C 	C 	0.2985	0.6967	0.19683	-0.153
Mof_C 	C 	0.8952	0.8833	0.4404	0.341
Mof_C 	C 	0.81593	0.89367	0.46539	-0.102
Mof_C 	C 	0.7973	0.9469	0.4899	0.036
Mof_C 	C 	0.7243	0.95648	0.5114	-0.109
Mof_C 	C 	0.66649	0.91197	0.50894	0.041
Mof_C 	C 	0.6851	0.85795	0.48433	-0.106
Mof_C 	C 	0.7589	0.84863	0.4628	0.031
Mof_C 	C 	0.58631	0.92402	0.53047	0.043
Mof_C 	C 	0.57578	0.95899	0.57592	-0.106
Mof_C 	C 	0.50105	0.97362	0.5948	0.036
Mof_C 	C 	0.43599	0.95082	0.56709	-0.102
Mof_C 	C 	0.44485	0.91471	0.52154	0.037
Mof_C 	C 	0.52089	0.90151	0.50384	-0.105
Mof_C 	C 	0.49028	0.01342	0.64171	0.054
Mof_C 	C 	0.5403	0.0119	0.68548	-0.124
Mof_C 	C 	0.5313	0.0509	0.72795	0.057
Mof_C 	C 	0.4716	0.09323	0.72825	-0.128
Mof_C 	C 	0.4217	0.09562	0.6844	0.057
Mof_C 	C 	0.4305	0.05624	0.64219	-0.126
Mof_C 	C 	0.46165	0.13626	0.77445	0.39
Mof_C 	C 	0.37498	0.89251	0.49223	0.056
Mof_C 	C 	0.3052	0.8811	0.5184	-0.126
Mof_C 	C 	0.2392	0.8628	0.49118	0.059
Mof_C 	C 	0.24143	0.85438	0.43567	-0.136
Mof_C 	C 	0.3114	0.86537	0.40899	0.059
Mof_C 	C 	0.37695	0.88478	0.4364	-0.127
Mof_C 	C 	0.1708	0.83486	0.40594	0.388
Mof_C 	C 	0.2512	0.3011	0.74034	0.098
Mof_C 	C 	0.2015	0.3033	0.69683	-0.153
Mof_C 	C 	0.6048	0.3833	0.9404	0.342
Mof_C 	C 	0.68407	0.39367	0.96539	-0.102
Mof_C 	C 	0.7027	0.4469	0.9899	0.036
Mof_C 	C 	0.7757	0.45648	0.0114	-0.109
Mof_C 	C 	0.83351	0.41197	0.00894	0.042
Mof_C 	C 	0.8149	0.35795	0.98433	-0.107
Mof_C 	C 	0.7411	0.34863	0.9628	0.031
Mof_C 	C 	0.91369	0.42402	0.03047	0.042
Mof_C 	C 	0.92422	0.45899	0.07592	-0.106
Mof_C 	C 	0.99895	0.47362	0.0948	0.037
Mof_C 	C 	0.06401	0.45082	0.06709	-0.102
Mof_C 	C 	0.05515	0.41471	0.02154	0.035
Mof_C 	C 	0.97911	0.40151	0.00384	-0.103
Mof_C 	C 	0.00972	0.51342	0.14171	0.053
Mof_C 	C 	0.9597	0.5119	0.18548	-0.123
Mof_C 	C 	0.9687	0.5509	0.22795	0.057
Mof_C 	C 	0.0284	0.59323	0.22825	-0.128
Mof_C 	C 	0.0783	0.59562	0.1844	0.056
Mof_C 	C 	0.0695	0.55624	0.14219	-0.126
Mof_C 	C 	0.03835	0.63626	0.27445	0.39
Mof_C 	C 	0.12502	0.39251	0.99223	0.058
Mof_C 	C 	0.1948	0.3811	0.0184	-0.129
Mof_C 	C 	0.2608	0.3628	0.99118	0.061
Mof_C 	C 	0.25857	0.35438	0.93567	-0.137
Mof_C 	C 	0.1886	0.36537	0.90899	0.061
Mof_C 	C 	0.12305	0.38478	0.9364	-0.128
Mof_C 	C 	0.3292	0.33486	0.90594	0.388
Mof_C 	C 	0.2488	0.8011	0.24034	0.098
Mof_C 	C 	0.2985	0.8033	0.19683	-0.153
Mof_C 	C 	0.8952	0.6167	0.4404	0.341
Mof_C 	C 	0.81593	0.60633	0.46539	-0.102
Mof_C 	C 	0.7973	0.5531	0.4899	0.036
Mof_C 	C 	0.7243	0.54352	0.5114	-0.109
Mof_C 	C 	0.66649	0.58803	0.50894	0.041
Mof_C 	C 	0.6851	0.64205	0.48433	-0.106
Mof_C 	C 	0.7589	0.65137	0.4628	0.031
Mof_C 	C 	0.58631	0.57598	0.53047	0.043
Mof_C 	C 	0.57578	0.54101	0.57592	-0.107
Mof_C 	C 	0.50105	0.52638	0.5948	0.036
Mof_C 	C 	0.43599	0.54918	0.56709	-0.102
Mof_C 	C 	0.44485	0.58529	0.52154	0.037
Mof_C 	C 	0.52089	0.59849	0.50384	-0.105
Mof_C 	C 	0.49028	0.48658	0.64171	0.054
Mof_C 	C 	0.5403	0.4881	0.68548	-0.124
Mof_C 	C 	0.5313	0.4491	0.72795	0.057
Mof_C 	C 	0.4716	0.40677	0.72825	-0.128
Mof_C 	C 	0.4217	0.40438	0.6844	0.056
Mof_C 	C 	0.4305	0.44376	0.64219	-0.126
Mof_C 	C 	0.46165	0.36374	0.77445	0.389
Mof_C 	C 	0.37498	0.60749	0.49223	0.056
Mof_C 	C 	0.3052	0.6189	0.5184	-0.126
Mof_C 	C 	0.2392	0.6372	0.49118	0.059
Mof_C 	C 	0.24143	0.64562	0.43567	-0.136
Mof_C 	C 	0.3114	0.63463	0.40899	0.059
Mof_C 	C 	0.37695	0.61522	0.4364	-0.127
Mof_C 	C 	0.1708	0.66514	0.40594	0.388
Mof_C 	C 	0.2512	0.1989	0.74034	0.098
Mof_C 	C 	0.2015	0.1967	0.69683	-0.153
Mof_C 	C 	0.323	0.75	0.1748	0.077
Mof_C 	C 	0.177	0.25	0.6748	0.077
Mof_N 	N 	0.2224	0.75	0.26119	-0.218
Mof_N 	N 	0.2776	0.25	0.76119	-0.217
Mof_O 	O 	0.59235	0.16753	0.91963	-0.454
Mof_O 	O 	0.5551	0.07664	0.94091	-0.313
Mof_O 	O 	0.00695	0.87881	0.31867	-0.466
Mof_O 	O 	0.07684	0.81692	0.26522	-0.416
Mof_O 	O 	0.39488	0.15973	0.92889	-0.48
Mof_O 	O 	0.32004	0.18468	0.85908	-0.443
Mof_O 	O 	0.90765	0.83247	0.41963	-0.453
Mof_O 	O 	0.9449	0.92336	0.44091	-0.313
Mof_O 	O 	0.49305	0.12119	0.81867	-0.465
Mof_O 	O 	0.42316	0.18308	0.76522	-0.416
Mof_O 	O 	0.10512	0.84027	0.42889	-0.48
Mof_O 	O 	0.17996	0.81532	0.35908	-0.443
Mof_O 	O 	0.59235	0.33247	0.91963	-0.454
Mof_O 	O 	0.5551	0.42336	0.94091	-0.313
Mof_O 	O 	0.00695	0.62119	0.31867	-0.465
Mof_O 	O 	0.07684	0.68308	0.26522	-0.416
Mof_O 	O 	0.39488	0.34027	0.92889	-0.48
Mof_O 	O 	0.32004	0.31532	0.85908	-0.443
Mof_O 	O 	0.90765	0.66753	0.41963	-0.453
Mof_O 	O 	0.9449	0.57664	0.44091	-0.313
Mof_O 	O 	0.49305	0.37881	0.81867	-0.465
Mof_O 	O 	0.42316	0.31692	0.76522	-0.416
Mof_O 	O 	0.10512	0.65973	0.42889	-0.48
Mof_O 	O 	0.17996	0.68468	0.35908	-0.443
Mof_O 	O 	0.01889	0.75	0.35522	-0.62
Mof_O 	O 	0.48111	0.25	0.85522	-0.62
Mof_Zn	Zn	0.98969	0.16686	0.61381	1.232
Mof_Zn	Zn	0.51031	0.83314	0.11381	1.232
Mof_Zn	Zn	0.98969	0.33314	0.61381	1.232
Mof_Zn	Zn	0.51031	0.66686	0.11381	1.232
Mof_Ni	Ni	0.8744	0.25	0.6868	1.112
Mof_Ni	Ni	0.6256	0.75	0.1868	1.112
Mof_H 	H 	0.3348	0.5228	0.008	0.039
Mof_H 	H 	0.2131	0.5069	0.9721	0.074
Mof_H 	H 	0.1476	0.6724	0.0178	0.067
Mof_H 	H 	0.2707	0.688	0.0535	0.037
Mof_H 	H 	0.1195	0.5269	0.9056	0.07
Mof_H 	H 	0.8858	0.5401	0.9207	0.067
Mof_H 	H 	0.0277	0.6228	0.0263	0.066
Mof_H 	H 	0.0808	0.5162	0.8138	0.075
Mof_H 	H 	0.0658	0.4511	0.7431	0.026
Mof_H 	H 	0.8818	0.3758	0.8165	0.024
Mof_H 	H 	0.8958	0.4418	0.8866	0.076
Mof_H 	H 	0.8028	0.6141	0.9445	0.077
Mof_H 	H 	0.6929	0.6441	0.9901	0.027
Mof_H 	H 	0.8142	0.6405	0.128	0.025
Mof_H 	H 	0.9229	0.6072	0.0824	0.08
Mof_H 	H 	0.767	0.1627	0.7441	0.003
Mof_H 	H 	0.685	0.1599	0.8172	0.089
Mof_H 	H 	0.1652	0.4772	0.508	0.039
Mof_H 	H 	0.2869	0.4931	0.4721	0.074
Mof_H 	H 	0.3524	0.3276	0.5178	0.067
Mof_H 	H 	0.2293	0.312	0.5535	0.037
Mof_H 	H 	0.3805	0.4731	0.4056	0.07
Mof_H 	H 	0.6142	0.4599	0.4207	0.067
Mof_H 	H 	0.4723	0.3772	0.5263	0.068
Mof_H 	H 	0.4192	0.4838	0.3138	0.076
Mof_H 	H 	0.4342	0.5489	0.2431	0.026
Mof_H 	H 	0.6182	0.6242	0.3165	0.024
Mof_H 	H 	0.6042	0.5582	0.3866	0.076
Mof_H 	H 	0.6972	0.3859	0.4445	0.076
Mof_H 	H 	0.8071	0.3559	0.4901	0.028
Mof_H 	H 	0.6858	0.3595	0.628	0.026
Mof_H 	H 	0.5771	0.3928	0.5824	0.079
Mof_H 	H 	0.733	0.8373	0.2441	0.003
Mof_H 	H 	0.815	0.8401	0.3172	0.089
Mof_H 	H 	0.3348	0.9772	0.008	0.039
Mof_H 	H 	0.2131	0.9931	0.9721	0.074
Mof_H 	H 	0.1476	0.8276	0.0178	0.067
Mof_H 	H 	0.2707	0.812	0.0535	0.037
Mof_H 	H 	0.1195	0.9731	0.9056	0.07
Mof_H 	H 	0.8858	0.9599	0.9207	0.067
Mof_H 	H 	0.0277	0.8772	0.0263	0.067
Mof_H 	H 	0.0808	0.9838	0.8138	0.072
Mof_H 	H 	0.0658	0.0489	0.7431	0.027
Mof_H 	H 	0.8818	0.1242	0.8165	0.025
Mof_H 	H 	0.8958	0.0582	0.8866	0.075
Mof_H 	H 	0.8028	0.8859	0.9445	0.077
Mof_H 	H 	0.6929	0.8559	0.9901	0.027
Mof_H 	H 	0.8142	0.8595	0.128	0.025
Mof_H 	H 	0.9229	0.8928	0.0824	0.08
Mof_H 	H 	0.767	0.3373	0.7441	0.003
Mof_H 	H 	0.685	0.3401	0.8172	0.089
Mof_H 	H 	0.1652	0.0228	0.508	0.039
Mof_H 	H 	0.2869	0.0069	0.4721	0.074
Mof_H 	H 	0.3524	0.1724	0.5178	0.067
Mof_H 	H 	0.2293	0.188	0.5535	0.037
Mof_H 	H 	0.3805	0.0269	0.4056	0.07
Mof_H 	H 	0.6142	0.0401	0.4207	0.067
Mof_H 	H 	0.4723	0.1228	0.5263	0.067
Mof_H 	H 	0.4192	0.0162	0.3138	0.076
Mof_H 	H 	0.4342	0.9511	0.2431	0.026
Mof_H 	H 	0.6182	0.8758	0.3165	0.024
Mof_H 	H 	0.6042	0.9418	0.3866	0.076
Mof_H 	H 	0.6972	0.1141	0.4445	0.076
Mof_H 	H 	0.8071	0.1441	0.4901	0.028
Mof_H 	H 	0.6858	0.1405	0.628	0.026
Mof_H 	H 	0.5771	0.1072	0.5824	0.079
Mof_H 	H 	0.733	0.6627	0.2441	0.003
Mof_H 	H 	0.815	0.6599	0.3172	0.089
Mof_H 	H 	0.644	0.25	0.855	0.01
Mof_H 	H 	0.856	0.75	0.355	0.01
Mof_C 	C 	0.3952	0.6167	0.0596	0.342
Mof_C 	C 	0.31593	0.60633	0.03461	-0.102
Mof_C 	C 	0.2973	0.5531	0.0101	0.036
Mof_C 	C 	0.2243	0.54352	0.9886	-0.109
Mof_C 	C 	0.16649	0.58803	0.99106	0.042
Mof_C 	C 	0.1851	0.64205	0.01567	-0.107
Mof_C 	C 	0.2589	0.65137	0.0372	0.031
Mof_C 	C 	0.08631	0.57598	0.96953	0.042
Mof_C 	C 	0.07578	0.54101	0.92408	-0.106
Mof_C 	C 	0.00105	0.52638	0.9052	0.037
Mof_C 	C 	0.93599	0.54918	0.93291	-0.102
Mof_C 	C 	0.94485	0.58529	0.97846	0.035
Mof_C 	C 	0.02089	0.59849	0.99616	-0.103
Mof_C 	C 	0.99028	0.48658	0.85829	0.053
Mof_C 	C 	0.0403	0.4881	0.81452	-0.123
Mof_C 	C 	0.0313	0.4491	0.77205	0.057
Mof_C 	C 	0.9716	0.40677	0.77175	-0.128
Mof_C 	C 	0.9217	0.40438	0.8156	0.056
Mof_C 	C 	0.9305	0.44376	0.85781	-0.126
Mof_C 	C 	0.96165	0.36374	0.72555	0.39
Mof_C 	C 	0.87498	0.60749	0.00777	0.058
Mof_C 	C 	0.8052	0.6189	0.9816	-0.129
Mof_C 	C 	0.7392	0.6372	0.00882	0.061
Mof_C 	C 	0.74143	0.64562	0.06433	-0.137
Mof_C 	C 	0.8114	0.63463	0.09101	0.061
Mof_C 	C 	0.87695	0.61522	0.0636	-0.128
Mof_C 	C 	0.6708	0.66514	0.09406	0.388
Mof_C 	C 	0.7512	0.1989	0.75966	0.098
Mof_C 	C 	0.7015	0.1967	0.80317	-0.153
Mof_C 	C 	0.1048	0.3833	0.5596	0.341
Mof_C 	C 	0.18407	0.39367	0.53461	-0.102
Mof_C 	C 	0.2027	0.4469	0.5101	0.036
Mof_C 	C 	0.2757	0.45648	0.4886	-0.109
Mof_C 	C 	0.33351	0.41197	0.49106	0.041
Mof_C 	C 	0.3149	0.35795	0.51567	-0.106
Mof_C 	C 	0.2411	0.34863	0.5372	0.031
Mof_C 	C 	0.41369	0.42402	0.46953	0.043
Mof_C 	C 	0.42422	0.45899	0.42408	-0.107
Mof_C 	C 	0.49895	0.47362	0.4052	0.036
Mof_C 	C 	0.56401	0.45082	0.43291	-0.102
Mof_C 	C 	0.55515	0.41471	0.47846	0.037
Mof_C 	C 	0.47911	0.40151	0.49616	-0.105
Mof_C 	C 	0.50972	0.51342	0.35829	0.054
Mof_C 	C 	0.4597	0.5119	0.31452	-0.124
Mof_C 	C 	0.4687	0.5509	0.27205	0.057
Mof_C 	C 	0.5284	0.59323	0.27175	-0.128
Mof_C 	C 	0.5783	0.59562	0.3156	0.056
Mof_C 	C 	0.5695	0.55624	0.35781	-0.126
Mof_C 	C 	0.53835	0.63626	0.22555	0.389
Mof_C 	C 	0.62502	0.39251	0.50777	0.056
Mof_C 	C 	0.6948	0.3811	0.4816	-0.126
Mof_C 	C 	0.7608	0.3628	0.50882	0.059
Mof_C 	C 	0.75857	0.35438	0.56433	-0.136
Mof_C 	C 	0.6886	0.36537	0.59101	0.059
Mof_C 	C 	0.62305	0.38478	0.5636	-0.127
Mof_C 	C 	0.8292	0.33486	0.59406	0.388
Mof_C 	C 	0.7488	0.8011	0.25966	0.098
Mof_C 	C 	0.7985	0.8033	0.30317	-0.153
Mof_C 	C 	0.3952	0.8833	0.0596	0.341
Mof_C 	C 	0.31593	0.89367	0.03461	-0.102
Mof_C 	C 	0.2973	0.9469	0.0101	0.036
Mof_C 	C 	0.2243	0.95648	0.9886	-0.109
Mof_C 	C 	0.16649	0.91197	0.99106	0.041
Mof_C 	C 	0.1851	0.85795	0.01567	-0.106
Mof_C 	C 	0.2589	0.84863	0.0372	0.031
Mof_C 	C 	0.08631	0.92402	0.96953	0.043
Mof_C 	C 	0.07578	0.95899	0.92408	-0.107
Mof_C 	C 	0.00105	0.97362	0.9052	0.037
Mof_C 	C 	0.93599	0.95082	0.93291	-0.101
Mof_C 	C 	0.94485	0.91471	0.97846	0.036
Mof_C 	C 	0.02089	0.90151	0.99616	-0.105
Mof_C 	C 	0.99028	0.01342	0.85829	0.049
Mof_C 	C 	0.0403	0.0119	0.81452	-0.117
Mof_C 	C 	0.0313	0.0509	0.77205	0.055
Mof_C 	C 	0.9716	0.09323	0.77175	-0.128
Mof_C 	C 	0.9217	0.09562	0.8156	0.055
Mof_C 	C 	0.9305	0.05624	0.85781	-0.123
Mof_C 	C 	0.96165	0.13626	0.72555	0.389
Mof_C 	C 	0.87498	0.89251	0.00777	0.058
Mof_C 	C 	0.8052	0.8811	0.9816	-0.128
Mof_C 	C 	0.7392	0.8628	0.00882	0.061
Mof_C 	C 	0.74143	0.85438	0.06433	-0.137
Mof_C 	C 	0.8114	0.86537	0.09101	0.061
Mof_C 	C 	0.87695	0.88478	0.0636	-0.128
Mof_C 	C 	0.6708	0.83486	0.09406	0.388
Mof_C 	C 	0.7512	0.3011	0.75966	0.098
Mof_C 	C 	0.7015	0.3033	0.80317	-0.153
Mof_C 	C 	0.1048	0.1167	0.5596	0.341
Mof_C 	C 	0.18407	0.10633	0.53461	-0.102
Mof_C 	C 	0.2027	0.0531	0.5101	0.036
Mof_C 	C 	0.2757	0.04352	0.4886	-0.109
Mof_C 	C 	0.33351	0.08803	0.49106	0.041
Mof_C 	C 	0.3149	0.14205	0.51567	-0.106
Mof_C 	C 	0.2411	0.15137	0.5372	0.031
Mof_C 	C 	0.41369	0.07598	0.46953	0.043
Mof_C 	C 	0.42422	0.04101	0.42408	-0.106
Mof_C 	C 	0.49895	0.02638	0.4052	0.036
Mof_C 	C 	0.56401	0.04918	0.43291	-0.102
Mof_C 	C 	0.55515	0.08529	0.47846	0.037
Mof_C 	C 	0.47911	0.09849	0.49616	-0.105
Mof_C 	C 	0.50972	0.98658	0.35829	0.054
Mof_C 	C 	0.4597	0.9881	0.31452	-0.124
Mof_C 	C 	0.4687	0.9491	0.27205	0.057
Mof_C 	C 	0.5284	0.90677	0.27175	-0.128
Mof_C 	C 	0.5783	0.90438	0.3156	0.057
Mof_C 	C 	0.5695	0.94376	0.35781	-0.126
Mof_C 	C 	0.53835	0.86374	0.22555	0.39
Mof_C 	C 	0.62502	0.10749	0.50777	0.056
Mof_C 	C 	0.6948	0.1189	0.4816	-0.126
Mof_C 	C 	0.7608	0.1372	0.50882	0.059
Mof_C 	C 	0.75857	0.14562	0.56433	-0.136
Mof_C 	C 	0.6886	0.13463	0.59101	0.059
Mof_C 	C 	0.62305	0.11522	0.5636	-0.127
Mof_C 	C 	0.8292	0.16514	0.59406	0.388
Mof_C 	C 	0.7488	0.6989	0.25966	0.098
Mof_C 	C 	0.7985	0.6967	0.30317	-0.153
Mof_C 	C 	0.677	0.25	0.8252	0.077
Mof_C 	C 	0.823	0.75	0.3252	0.077
Mof_N 	N 	0.7776	0.25	0.73881	-0.218
Mof_N 	N 	0.7224	0.75	0.23881	-0.217
Mof_O 	O 	0.40765	0.66753	0.08037	-0.454
Mof_O 	O 	0.4449	0.57664	0.05909	-0.313
Mof_O 	O 	0.99305	0.37881	0.68133	-0.465
Mof_O 	O 	0.92316	0.31692	0.73478	-0.416
Mof_O 	O 	0.60512	0.65973	0.07111	-0.48
Mof_O 	O 	0.67996	0.68468	0.14092	-0.443
Mof_O 	O 	0.09235	0.33247	0.58037	-0.453
Mof_O 	O 	0.0551	0.42336	0.55909	-0.313
Mof_O 	O 	0.50695	0.62119	0.18133	-0.465
Mof_O 	O 	0.57684	0.68308	0.23478	-0.416
Mof_O 	O 	0.89488	0.34027	0.57111	-0.48
Mof_O 	O 	0.82004	0.31532	0.64092	-0.443
Mof_O 	O 	0.40765	0.83247	0.08037	-0.454
Mof_O 	O 	0.4449	0.92336	0.05909	-0.313
Mof_O 	O 	0.99305	0.12119	0.68133	-0.466
Mof_O 	O 	0.92316	0.18308	0.73478	-0.416
Mof_O 	O 	0.60512	0.84027	0.07111	-0.48
Mof_O 	O 	0.67996	0.81532	0.14092	-0.443
Mof_O 	O 	0.09235	0.16753	0.58037	-0.453
Mof_O 	O 	0.0551	0.07664	0.55909	-0.313
Mof_O 	O 	0.50695	0.87881	0.18133	-0.465
Mof_O 	O 	0.57684	0.81692	0.23478	-0.416
Mof_O 	O 	0.89488	0.15973	0.57111	-0.48
Mof_O 	O 	0.82004	0.18468	0.64092	-0.443
Mof_O 	O 	0.98111	0.25	0.64478	-0.62
Mof_O 	O 	0.51889	0.75	0.14478	-0.62
_end
