data_functionalizedCrystal
_audit_creation_method	'EQeq! by Chris Wilmer'
_symmetry_space_group_name_H-M	'P1'
_symmetry_Int_Tables_number	1
_symmetry_cell_setting	triclinic
loop_
_symmetry_equiv_pos_as_xyz
  x,y,z
_cell_length_a	11.409
_cell_length_b	17.7061
_cell_length_c	17.7061
_cell_angle_alpha	84.042
_cell_angle_beta	71.2053
_cell_angle_gamma	71.2053
loop_
_atom_site_label
_atom_site_type_symbol
_atom_site_fract_x
_atom_site_fract_y
_atom_site_fract_z
_atom_site_charge
Mof_Co	Co	0.42692	0.77535	0.33083	1.19
Mof_Co	Co	0.1334	0.83352	0.41138	1.182
Mof_Co	Co	0.0331	0.72465	0.16917	1.174
Mof_Co	Co	0.8783	0.66648	0.08862	1.19
Mof_Co	Co	0.75775	0.66917	0.27535	1.193
Mof_Co	Co	0.54478	0.58862	0.33352	1.189
Mof_Co	Co	0.20227	0.83083	0.22465	1.193
Mof_Co	Co	0.96692	0.91138	0.16648	1.212
Mof_Co	Co	0.57308	0.22465	0.66917	1.193
Mof_Co	Co	0.8666	0.16648	0.58862	1.199
Mof_Co	Co	0.9669	0.27535	0.83083	1.219
Mof_Co	Co	0.1217	0.33352	0.91138	1.186
Mof_Co	Co	0.24225	0.33083	0.72465	1.191
Mof_Co	Co	0.45522	0.41138	0.66648	1.189
Mof_Co	Co	0.79773	0.16917	0.77535	1.19
Mof_Co	Co	0.03308	0.08862	0.83352	1.15
Mof_Co	Co	0.5	0.5	0.5	1.195
Mof_Co	Co	-0	0	-0	1.131
Mof_Co	Co	-3.54659e-17	0.5	-0	1.156
Mof_Co	Co	9.77419e-18	-6.76459e-23	0.5	1.145
Mof_H 	H 	0.5759	0.6935	0.4085	0.176
Mof_H 	H 	0.3883	0.5993	0.1385	0.417
Mof_H 	H 	0.5316	0.6027	0.1063	0.397
Mof_H 	H 	0.4863	0.5579	0.1863	0.41
Mof_H 	H 	0.143	0.7044	0.5654	0.343
Mof_H 	H 	0.2485	0.6299	0.5851	0.355
Mof_H 	H 	0.2617	0.7156	0.584	0.354
Mof_H 	H 	0.9136	0.4725	0.4481	0.375
Mof_H 	H 	0.8155	0.5411	0.5073	0.377
Mof_H 	H 	0.7786	0.4644	0.5014	0.377
Mof_H 	H 	0.4477	0.3303	0.3567	0.318
Mof_H 	H 	0.3826	0.393	0.3012	0.309
Mof_H 	H 	0.5327	0.3491	0.2723	0.304
Mof_H 	H 	0.1779	0.8065	0.0915	0.17
Mof_H 	H 	0.6261	0.9007	0.3615	0.436
Mof_H 	H 	0.7406	0.8973	0.3937	0.412
Mof_H 	H 	0.7305	0.9421	0.3137	0.43
Mof_H 	H 	0.9128	0.7956	0.9346	0.277
Mof_H 	H 	0.9635	0.8701	0.9149	0.287
Mof_H 	H 	0.0613	0.7844	0.916	0.233
Mof_H 	H 	0.3342	0.0275	0.0519	0.256
Mof_H 	H 	0.3639	0.9589	0.9927	0.338
Mof_H 	H 	0.2444	0.0356	0.9986	0.304
Mof_H 	H 	0.6347	0.1697	0.1433	0.314
Mof_H 	H 	0.5768	0.107	0.1988	0.305
Mof_H 	H 	0.6541	0.1509	0.2277	0.3
Mof_H 	H 	0.9844	0.5915	0.1935	0.191
Mof_H 	H 	0.5268	0.8615	0.0993	0.42
Mof_H 	H 	0.6379	0.8937	0.1027	0.406
Mof_H 	H 	0.6726	0.8137	0.0579	0.403
Mof_H 	H 	0.7084	0.4346	0.2044	0.365
Mof_H 	H 	0.8336	0.4149	0.1299	0.37
Mof_H 	H 	0.8457	0.416	0.2156	0.371
Mof_H 	H 	0.3617	0.5519	0.9725	0.489
Mof_H 	H 	0.3228	0.4927	0.0411	0.467
Mof_H 	H 	0.28	0.4986	0.9644	0.499
Mof_H 	H 	0.8044	0.6433	0.8303	0.343
Mof_H 	H 	0.6838	0.6988	0.893	0.333
Mof_H 	H 	0.805	0.7277	0.8491	0.33
Mof_H 	H 	0.2694	0.9085	0.3065	0.182
Mof_H 	H 	0.9876	0.6385	0.4007	0.534
Mof_H 	H 	0.1343	0.6063	0.3973	0.472
Mof_H 	H 	0.0442	0.6863	0.4421	0.474
Mof_H 	H 	0.8474	0.0654	0.2956	0.424
Mof_H 	H 	0.8784	0.0851	0.3701	0.435
Mof_H 	H 	0.9773	0.084	0.2844	0.439
Mof_H 	H 	0.3861	0.9481	0.5275	0.21
Mof_H 	H 	0.3566	0.0073	0.4589	0.177
Mof_H 	H 	0.243	0.0014	0.5356	0.177
Mof_H 	H 	0.778	0.8567	0.6697	0.339
Mof_H 	H 	0.7756	0.8012	0.607	0.326
Mof_H 	H 	0.8818	0.7723	0.6509	0.329
Mof_H 	H 	0.4241	0.3065	0.5915	0.176
Mof_H 	H 	0.6117	0.4007	0.8615	0.43
Mof_H 	H 	0.4684	0.3973	0.8937	0.408
Mof_H 	H 	0.5137	0.4421	0.8137	0.417
Mof_H 	H 	0.857	0.2956	0.4346	0.391
Mof_H 	H 	0.7515	0.3701	0.4149	0.379
Mof_H 	H 	0.7383	0.2844	0.416	0.375
Mof_H 	H 	0.0864	0.5275	0.5519	0.321
Mof_H 	H 	0.1845	0.4589	0.4927	0.338
Mof_H 	H 	0.2214	0.5356	0.4986	0.341
Mof_H 	H 	0.5523	0.6697	0.6433	0.331
Mof_H 	H 	0.6174	0.607	0.6988	0.327
Mof_H 	H 	0.4673	0.6509	0.7277	0.315
Mof_H 	H 	0.8221	0.1935	0.9085	0.186
Mof_H 	H 	0.3739	0.0993	0.6385	0.414
Mof_H 	H 	0.2594	0.1027	0.6063	0.393
Mof_H 	H 	0.2695	0.0579	0.6863	0.397
Mof_H 	H 	0.0872	0.2044	0.0654	0.451
Mof_H 	H 	0.0365	0.1299	0.0851	0.443
Mof_H 	H 	0.9387	0.2156	0.084	0.496
Mof_H 	H 	0.6658	0.9725	0.9481	0.333
Mof_H 	H 	0.6361	0.0411	0.0073	0.274
Mof_H 	H 	0.7556	0.9644	0.0014	0.31
Mof_H 	H 	0.3653	0.8303	0.8567	0.333
Mof_H 	H 	0.4232	0.893	0.8012	0.33
Mof_H 	H 	0.3459	0.8491	0.7723	0.319
Mof_H 	H 	0.0156	0.4085	0.8065	0.158
Mof_H 	H 	0.4732	0.1385	0.9007	0.433
Mof_H 	H 	0.3621	0.1063	0.8973	0.408
Mof_H 	H 	0.3274	0.1863	0.9421	0.428
Mof_H 	H 	0.2916	0.5654	0.7956	0.36
Mof_H 	H 	0.1664	0.5851	0.8701	0.36
Mof_H 	H 	0.1543	0.584	0.7844	0.351
Mof_H 	H 	0.6383	0.4481	0.0275	0.183
Mof_H 	H 	0.6772	0.5073	0.9589	0.229
Mof_H 	H 	0.72	0.5014	0.0356	0.197
Mof_H 	H 	0.1956	0.3567	0.1697	0.304
Mof_H 	H 	0.3162	0.3012	0.107	0.299
Mof_H 	H 	0.195	0.2723	0.1509	0.286
Mof_H 	H 	0.7306	0.0915	0.6935	0.175
Mof_H 	H 	0.0124	0.3615	0.5993	0.289
Mof_H 	H 	0.8657	0.3937	0.6027	0.317
Mof_H 	H 	0.9558	0.3137	0.5579	0.34
Mof_H 	H 	0.1526	0.9346	0.7044	0.258
Mof_H 	H 	0.1216	0.9149	0.6299	0.255
Mof_H 	H 	0.0227	0.916	0.7156	0.242
Mof_H 	H 	0.6139	0.0519	0.4725	0.446
Mof_H 	H 	0.6434	0.9927	0.5411	0.49
Mof_H 	H 	0.757	0.9986	0.4644	0.491
Mof_H 	H 	0.222	0.1433	0.3303	0.308
Mof_H 	H 	0.2244	0.1988	0.393	0.308
Mof_H 	H 	0.1182	0.2277	0.3491	0.287
Mof_C 	C 	0.42	0.6781	0.1989	0.751
Mof_C 	C 	0.4601	0.6028	0.1534	-1.319
Mof_C 	C 	0.3112	0.6716	0.4714	0.701
Mof_C 	C 	0.234	0.6812	0.5596	-1.191
Mof_C 	C 	0.7643	0.5399	0.4079	0.701
Mof_C 	C 	0.8232	0.501	0.472	-1.24
Mof_C 	C 	0.4828	0.4365	0.3533	0.641
Mof_C 	C 	0.4593	0.3713	0.3177	-1.084
Mof_C 	C 	0.797	0.8219	0.3011	0.765
Mof_C 	C 	0.7163	0.8972	0.3466	-1.352
Mof_C 	C 	0.9542	0.8284	0.0286	0.585
Mof_C 	C 	0.9748	0.8188	0.9404	-0.865
Mof_C 	C 	0.2121	0.9601	0.0921	0.637
Mof_C 	C 	0.2962	0.999	0.028	-1.034
Mof_C 	C 	0.7726	0.0635	0.1467	0.638
Mof_C 	C 	0.6483	0.1287	0.1823	-1.079
Mof_C 	C 	0.6189	0.8011	0.1781	0.752
Mof_C 	C 	0.6135	0.8466	0.1028	-1.321
Mof_C 	C 	0.7826	0.5286	0.1716	0.718
Mof_C 	C 	0.7936	0.4404	0.1812	-1.22
Mof_C 	C 	0.1722	0.5921	0.0399	0.8
Mof_C 	C 	0.2952	0.528	0.001	-1.594
Mof_C 	C 	0.8361	0.6467	0.9365	0.659
Mof_C 	C 	0.777	0.6823	0.8713	-1.123
Mof_C 	C 	0.0981	0.6989	0.3219	0.825
Mof_C 	C 	0.0629	0.6534	0.3972	-1.587
Mof_C 	C 	0.9828	0.9714	0.3284	0.887
Mof_C 	C 	0.9152	0.0596	0.3188	-1.434
Mof_C 	C 	0.3042	0.9079	0.4601	0.544
Mof_C 	C 	0.3242	0.972	0.499	-0.698
Mof_C 	C 	0.9193	0.8533	0.5635	0.652
Mof_C 	C 	0.8306	0.8177	0.6287	-1.116
Mof_C 	C 	0.58	0.3219	0.8011	0.759
Mof_C 	C 	0.5399	0.3972	0.8466	-1.339
Mof_C 	C 	0.6888	0.3284	0.5286	0.725
Mof_C 	C 	0.766	0.3188	0.4404	-1.252
Mof_C 	C 	0.2357	0.4601	0.5921	0.671
Mof_C 	C 	0.1768	0.499	0.528	-1.159
Mof_C 	C 	0.5172	0.5635	0.6467	0.653
Mof_C 	C 	0.5407	0.6287	0.6823	-1.112
Mof_C 	C 	0.203	0.1781	0.6989	0.745
Mof_C 	C 	0.2837	0.1028	0.6534	-1.31
Mof_C 	C 	0.0458	0.1716	0.9714	0.831
Mof_C 	C 	0.0252	0.1812	0.0596	-1.574
Mof_C 	C 	0.7879	0.0399	0.9079	0.639
Mof_C 	C 	0.7038	0.001	0.972	-1.042
Mof_C 	C 	0.2274	0.9365	0.8533	0.65
Mof_C 	C 	0.3517	0.8713	0.8177	-1.108
Mof_C 	C 	0.3811	0.1989	0.8219	0.761
Mof_C 	C 	0.3865	0.1534	0.8972	-1.348
Mof_C 	C 	0.2174	0.4714	0.8284	0.702
Mof_C 	C 	0.2064	0.5596	0.8188	-1.208
Mof_C 	C 	0.8278	0.4079	0.9601	0.552
Mof_C 	C 	0.7048	0.472	0.999	-0.742
Mof_C 	C 	0.1639	0.3533	0.0635	0.628
Mof_C 	C 	0.223	0.3177	0.1287	-1.064
Mof_C 	C 	0.9019	0.3011	0.6781	0.671
Mof_C 	C 	0.9371	0.3466	0.6028	-1.017
Mof_C 	C 	0.0172	0.0286	0.6716	0.4
Mof_C 	C 	0.0848	0.9404	0.6812	-0.835
Mof_C 	C 	0.6958	0.0921	0.5399	0.786
Mof_C 	C 	0.6758	0.028	0.501	-1.557
Mof_C 	C 	0.0807	0.1467	0.4365	0.639
Mof_C 	C 	0.1694	0.1823	0.3713	-1.076
Mof_O 	O 	0.43821	0.67486	0.26672	-0.641
Mof_O 	O 	0.3715	0.7426	0.168	-0.561
Mof_O 	O 	0.2888	0.7296	0.4258	-0.632
Mof_O 	O 	0.3963	0.60551	0.44669	-0.635
Mof_O 	O 	0.6576	0.52711	0.40829	-0.627
Mof_O 	O 	0.8185	0.5816	0.3578	-0.549
Mof_O 	O 	0.5021	0.4945	0.3087	-0.572
Mof_O 	O 	0.48	0.4295	0.4251	-0.55
Mof_O 	O 	0.57621	0.69054	0.35344	-0.689
Mof_O 	O 	0.87979	0.82514	0.23328	-0.626
Mof_O 	O 	0.7821	0.7574	0.332	-0.556
Mof_O 	O 	0.9442	0.7704	0.0742	-0.585
Mof_O 	O 	0.9485	0.89449	0.05331	-0.581
Mof_O 	O 	0.093	0.97289	0.09171	-0.611
Mof_O 	O 	0.2579	0.9184	0.1422	-0.532
Mof_O 	O 	0.8053	0.0055	0.1913	-0.586
Mof_O 	O 	0.8346	0.0705	0.0749	-0.548
Mof_O 	O 	0.12019	0.80946	0.14656	-0.699
Mof_O 	O 	0.70493	0.73328	0.17486	-0.643
Mof_O 	O 	0.5395	0.832	0.2426	-0.555
Mof_O 	O 	0.7146	0.5742	0.2296	-0.633
Mof_O 	O 	0.84299	0.55331	0.10551	-0.627
Mof_O 	O 	0.06589	0.59171	0.02711	-0.69
Mof_O 	O 	0.1763	0.6422	0.0816	-0.599
Mof_O 	O 	0.8108	0.6913	0.9945	-0.54
Mof_O 	O 	0.9051	0.5749	0.9295	-0.511
Mof_O 	O 	0.92965	0.64656	0.19054	-0.676
Mof_O 	O 	0.11307	0.76672	0.32514	-0.67
Mof_O 	O 	0.1141	0.668	0.2574	-0.594
Mof_O 	O 	0.0184	0.9258	0.2704	-0.707
Mof_O 	O 	0.00181	0.94669	0.39449	-0.706
Mof_O 	O 	0.18471	0.90829	0.47289	-0.572
Mof_O 	O 	0.4001	0.8578	0.4184	-0.502
Mof_O 	O 	0.9966	0.8087	0.5055	-0.543
Mof_O 	O 	0.9095	0.9251	0.5705	-0.517
Mof_O 	O 	0.26675	0.85344	0.30946	-0.688
Mof_O 	O 	0.56179	0.32514	0.73328	-0.642
Mof_O 	O 	0.6285	0.2574	0.832	-0.557
Mof_O 	O 	0.7112	0.2704	0.5742	-0.632
Mof_O 	O 	0.6037	0.39449	0.55331	-0.64
Mof_O 	O 	0.3424	0.47289	0.59171	-0.621
Mof_O 	O 	0.1815	0.4184	0.6422	-0.55
Mof_O 	O 	0.4979	0.5055	0.6913	-0.573
Mof_O 	O 	0.52	0.5705	0.5749	-0.552
Mof_O 	O 	0.42379	0.30946	0.64656	-0.688
Mof_O 	O 	0.12021	0.17486	0.76672	-0.666
Mof_O 	O 	0.2179	0.2426	0.668	-0.563
Mof_O 	O 	0.0558	0.2296	0.9258	-0.686
Mof_O 	O 	0.0515	0.10551	0.94669	-0.685
Mof_O 	O 	0.907	0.02711	0.90829	-0.57
Mof_O 	O 	0.7421	0.0816	0.8578	-0.531
Mof_O 	O 	0.1947	0.9945	0.8087	-0.544
Mof_O 	O 	0.1654	0.9295	0.9251	-0.531
Mof_O 	O 	0.87981	0.19054	0.85344	-0.67
Mof_O 	O 	0.29507	0.26672	0.82514	-0.641
Mof_O 	O 	0.4605	0.168	0.7574	-0.562
Mof_O 	O 	0.2854	0.4258	0.7704	-0.631
Mof_O 	O 	0.15701	0.44669	0.89449	-0.639
Mof_O 	O 	0.93411	0.40829	0.97289	-0.531
Mof_O 	O 	0.8237	0.3578	0.9184	-0.488
Mof_O 	O 	0.1892	0.3087	0.0055	-0.602
Mof_O 	O 	0.0949	0.4251	0.0705	-0.574
Mof_O 	O 	0.07035	0.35344	0.80946	-0.705
Mof_O 	O 	0.88693	0.23328	0.67486	-0.606
Mof_O 	O 	0.8859	0.332	0.7426	-0.516
Mof_O 	O 	0.9816	0.0742	0.7296	-0.495
Mof_O 	O 	0.99819	0.05331	0.60551	-0.492
Mof_O 	O 	0.81529	0.09171	0.52711	-0.643
Mof_O 	O 	0.5999	0.1422	0.5816	-0.582
Mof_O 	O 	0.0034	0.1913	0.4945	-0.612
Mof_O 	O 	0.0905	0.0749	0.4295	-0.582
Mof_O 	O 	0.73325	0.14656	0.69054	-0.689
_end
