data_functionalizedCrystal
_audit_creation_method	'EQeq! by Chris Wilmer'
_symmetry_space_group_name_H-M	'P1'
_symmetry_Int_Tables_number	1
_symmetry_cell_setting	triclinic
loop_
_symmetry_equiv_pos_as_xyz
  x,y,z
_cell_length_a	28.9416
_cell_length_b	28.9416
_cell_length_c	28.9416
_cell_angle_alpha	90
_cell_angle_beta	90
_cell_angle_gamma	90
loop_
_atom_site_label
_atom_site_type_symbol
_atom_site_fract_x
_atom_site_fract_y
_atom_site_fract_z
_atom_site_charge
Mof_O 	O 	0.2685	0.3337	0.4527	-0.405
Mof_O 	O 	0.2122	0.2785	0.4525	-0.402
Mof_O 	O 	0.2656	0.4524	0.3343	-0.389
Mof_O 	O 	0.2115	0.4521	0.278	-0.395
Mof_C 	C 	0.2323	0.314	0.4377	0.334
Mof_C 	C 	0.2333	0.4342	0.3112	0.325
Mof_C 	C 	0.2087	0.3353	0.3949	-0.051
Mof_C 	C 	0.1713	0.314	0.3737	-0.032
Mof_H 	H 	0.1588	0.2863	0.3862	0.06
Mof_C 	C 	0.152	0.3331	0.3341	0.009
Mof_C 	C 	0.1702	0.3736	0.3157	-0.036
Mof_H 	H 	0.157	0.3867	0.2886	0.061
Mof_C 	C 	0.2076	0.3949	0.3369	-0.045
Mof_C 	C 	0.2269	0.3758	0.3765	-0.004
Mof_H 	H 	0.2525	0.3904	0.391	0.065
Mof_C 	C 	0.0417	0.2632	0.2617	0.013
Mof_C 	C 	0.0704	0.2388	0.2915	-0.01
Mof_H 	H 	0.0657	0.2066	0.2961	0.064
Mof_C 	C 	0.1059	0.2614	0.3146	-0.064
Mof_H 	H 	0.1255	0.2447	0.3349	0.064
Mof_C 	C 	0.1128	0.3085	0.3078	0.03
Mof_C 	C 	0.0841	0.3329	0.2781	-0.058
Mof_H 	H 	0.0887	0.3651	0.2735	0.057
Mof_C 	C 	0.0485	0.3103	0.255	-0.037
Mof_H 	H 	0.0289	0.327	0.2347	0.066
Mof_O 	O 	0.0007	0.1926	0.2507	0.209
Mof_H 	H 	0.0007	0.1881	0.2784	-0.354
Mof_C 	C 	0.998	0.2474	0.1891	-0.294
Mof_H 	H 	0.0291	0.2404	0.1757	0.113
Mof_C 	C 	0.985	0.2975	0.1776	0.893
Mof_H 	H 	0.9607	0.2978	0.154	-0.202
Mof_H 	H 	0.0122	0.3139	0.1659	-0.189
Mof_H 	H 	0.9737	0.313	0.2055	-0.22
Mof_N 	N 	0.9638	0.2148	0.1697	-0.187
Mof_H 	H 	0.9603	0.186	0.1788	0.121
Mof_C 	C 	0.9373	0.236	0.1344	0.263
Mof_O 	O 	0.913	0.271	0.144	-0.204
Mof_O 	O 	0.949	0.228	0.0878	-0.118
Mof_C 	C 	0.9655	0.179	0.0838	-0.302
Mof_C 	C 	0.9482	0.1583	0.0376	0.338
Mof_H 	H 	0.9602	0.1767	0.0118	-0.128
Mof_H 	H 	0.9144	0.1588	0.037	-1.024
Mof_H 	H 	0.9591	0.1264	0.0347	-0.128
Mof_C 	C 	0.9446	0.1506	0.1241	-0.084
Mof_H 	H 	0.9229	0.17	0.1414	0.07
Mof_H 	H 	0.9695	0.1404	0.1447	0.047
Mof_H 	H 	0.9284	0.1236	0.1117	0.072
Mof_C 	C 	0.0188	0.1748	0.0856	1.408
Mof_H 	H 	0.0324	0.1936	0.0609	-0.295
Mof_H 	H 	0.0277	0.1424	0.0814	0.293
Mof_H 	H 	0.0299	0.1858	0.1156	-0.271
Mof_O 	O 	0.7315	0.6663	0.4527	-0.404
Mof_O 	O 	0.7878	0.7215	0.4525	-0.401
Mof_O 	O 	0.7344	0.5476	0.3343	-0.389
Mof_O 	O 	0.7885	0.5479	0.278	-0.394
Mof_C 	C 	0.7677	0.686	0.4377	0.334
Mof_C 	C 	0.7667	0.5658	0.3112	0.325
Mof_C 	C 	0.7913	0.6647	0.3949	-0.051
Mof_C 	C 	0.8287	0.686	0.3737	-0.033
Mof_H 	H 	0.8412	0.7137	0.3862	0.06
Mof_C 	C 	0.848	0.6669	0.3341	0.01
Mof_C 	C 	0.8298	0.6264	0.3157	-0.036
Mof_H 	H 	0.843	0.6133	0.2886	0.061
Mof_C 	C 	0.7924	0.6051	0.3369	-0.045
Mof_C 	C 	0.7731	0.6242	0.3765	-0.004
Mof_H 	H 	0.7475	0.6096	0.391	0.065
Mof_C 	C 	0.9583	0.7368	0.2617	0.015
Mof_C 	C 	0.9296	0.7612	0.2915	-0.012
Mof_H 	H 	0.9343	0.7934	0.2961	0.064
Mof_C 	C 	0.8941	0.7386	0.3146	-0.063
Mof_H 	H 	0.8745	0.7553	0.3349	0.064
Mof_C 	C 	0.8872	0.6915	0.3078	0.029
Mof_C 	C 	0.9159	0.6671	0.2781	-0.057
Mof_H 	H 	0.9113	0.6349	0.2735	0.057
Mof_C 	C 	0.9515	0.6897	0.255	-0.037
Mof_H 	H 	0.9711	0.673	0.2347	0.067
Mof_O 	O 	0.9993	0.8074	0.2507	0.211
Mof_H 	H 	0.9993	0.8119	0.2784	-0.349
Mof_C 	C 	0.002	0.7526	0.1891	-0.293
Mof_H 	H 	0.9709	0.7596	0.1757	0.115
Mof_C 	C 	0.015	0.7025	0.1776	0.902
Mof_H 	H 	0.0393	0.7022	0.154	-0.206
Mof_H 	H 	0.9878	0.6861	0.1659	-0.189
Mof_H 	H 	0.0263	0.687	0.2055	-0.224
Mof_N 	N 	0.0362	0.7852	0.1697	-0.188
Mof_H 	H 	0.0397	0.814	0.1788	0.121
Mof_C 	C 	0.0627	0.764	0.1344	0.263
Mof_O 	O 	0.087	0.729	0.144	-0.204
Mof_O 	O 	0.051	0.772	0.0878	-0.119
Mof_C 	C 	0.0345	0.821	0.0838	-0.3
Mof_C 	C 	0.0518	0.8417	0.0376	0.334
Mof_H 	H 	0.0398	0.8233	0.0118	-0.128
Mof_H 	H 	0.0856	0.8412	0.037	-1.021
Mof_H 	H 	0.0409	0.8736	0.0347	-0.128
Mof_C 	C 	0.0554	0.8494	0.1241	-0.086
Mof_H 	H 	0.0771	0.83	0.1414	0.071
Mof_H 	H 	0.0305	0.8596	0.1447	0.047
Mof_H 	H 	0.0716	0.8764	0.1117	0.073
Mof_C 	C 	0.9812	0.8252	0.0856	1.397
Mof_H 	H 	0.9676	0.8064	0.0609	-0.291
Mof_H 	H 	0.9723	0.8576	0.0814	0.292
Mof_H 	H 	0.9701	0.8142	0.1156	-0.268
Mof_O 	O 	0.7315	0.3337	0.5473	-0.404
Mof_O 	O 	0.7878	0.2785	0.5475	-0.402
Mof_O 	O 	0.7344	0.4524	0.6657	-0.389
Mof_O 	O 	0.7885	0.4521	0.722	-0.394
Mof_C 	C 	0.7677	0.314	0.5623	0.334
Mof_C 	C 	0.7667	0.4342	0.6888	0.325
Mof_C 	C 	0.7913	0.3353	0.6051	-0.051
Mof_C 	C 	0.8287	0.314	0.6263	-0.033
Mof_H 	H 	0.8412	0.2863	0.6138	0.06
Mof_C 	C 	0.848	0.3331	0.6659	0.01
Mof_C 	C 	0.8298	0.3736	0.6843	-0.036
Mof_H 	H 	0.843	0.3867	0.7114	0.061
Mof_C 	C 	0.7924	0.3949	0.6631	-0.045
Mof_C 	C 	0.7731	0.3758	0.6235	-0.004
Mof_H 	H 	0.7475	0.3904	0.609	0.065
Mof_C 	C 	0.9583	0.2632	0.7383	0.015
Mof_C 	C 	0.9296	0.2388	0.7085	-0.012
Mof_H 	H 	0.9343	0.2066	0.7039	0.064
Mof_C 	C 	0.8941	0.2614	0.6854	-0.063
Mof_H 	H 	0.8745	0.2447	0.6651	0.064
Mof_C 	C 	0.8872	0.3085	0.6922	0.029
Mof_C 	C 	0.9159	0.3329	0.7219	-0.056
Mof_H 	H 	0.9113	0.3651	0.7265	0.057
Mof_C 	C 	0.9515	0.3103	0.745	-0.037
Mof_H 	H 	0.9711	0.327	0.7653	0.067
Mof_O 	O 	0.9993	0.1926	0.7493	0.211
Mof_H 	H 	0.9993	0.1881	0.7216	-0.349
Mof_C 	C 	0.002	0.2474	0.8109	-0.293
Mof_H 	H 	0.9709	0.2404	0.8243	0.115
Mof_C 	C 	0.015	0.2975	0.8224	0.903
Mof_H 	H 	0.0393	0.2978	0.846	-0.206
Mof_H 	H 	0.9878	0.3139	0.8341	-0.189
Mof_H 	H 	0.0263	0.313	0.7945	-0.224
Mof_N 	N 	0.0362	0.2148	0.8303	-0.188
Mof_H 	H 	0.0397	0.186	0.8212	0.121
Mof_C 	C 	0.0627	0.236	0.8656	0.263
Mof_O 	O 	0.087	0.271	0.856	-0.203
Mof_O 	O 	0.051	0.228	0.9122	-0.119
Mof_C 	C 	0.0345	0.179	0.9162	-0.3
Mof_C 	C 	0.0518	0.1583	0.9624	0.326
Mof_H 	H 	0.0398	0.1767	0.9882	-0.124
Mof_H 	H 	0.0856	0.1588	0.963	-1.012
Mof_H 	H 	0.0409	0.1264	0.9653	-0.124
Mof_C 	C 	0.0554	0.1506	0.8759	-0.087
Mof_H 	H 	0.0771	0.17	0.8586	0.071
Mof_H 	H 	0.0305	0.1404	0.8553	0.047
Mof_H 	H 	0.0716	0.1236	0.8883	0.073
Mof_C 	C 	0.9812	0.1748	0.9144	1.4
Mof_H 	H 	0.9676	0.1936	0.9391	-0.292
Mof_H 	H 	0.9723	0.1424	0.9186	0.292
Mof_H 	H 	0.9701	0.1858	0.8844	-0.268
Mof_O 	O 	0.2685	0.6663	0.5473	-0.404
Mof_O 	O 	0.2122	0.7215	0.5475	-0.402
Mof_O 	O 	0.2656	0.5476	0.6657	-0.389
Mof_O 	O 	0.2115	0.5479	0.722	-0.394
Mof_C 	C 	0.2323	0.686	0.5623	0.334
Mof_C 	C 	0.2333	0.5658	0.6888	0.325
Mof_C 	C 	0.2087	0.6647	0.6051	-0.051
Mof_C 	C 	0.1713	0.686	0.6263	-0.032
Mof_H 	H 	0.1588	0.7137	0.6138	0.06
Mof_C 	C 	0.152	0.6669	0.6659	0.009
Mof_C 	C 	0.1702	0.6264	0.6843	-0.036
Mof_H 	H 	0.157	0.6133	0.7114	0.061
Mof_C 	C 	0.2076	0.6051	0.6631	-0.045
Mof_C 	C 	0.2269	0.6242	0.6235	-0.004
Mof_H 	H 	0.2525	0.6096	0.609	0.065
Mof_C 	C 	0.0417	0.7368	0.7383	0.013
Mof_C 	C 	0.0704	0.7612	0.7085	-0.01
Mof_H 	H 	0.0657	0.7934	0.7039	0.064
Mof_C 	C 	0.1059	0.7386	0.6854	-0.064
Mof_H 	H 	0.1255	0.7553	0.6651	0.064
Mof_C 	C 	0.1128	0.6915	0.6922	0.03
Mof_C 	C 	0.0841	0.6671	0.7219	-0.057
Mof_H 	H 	0.0887	0.6349	0.7265	0.057
Mof_C 	C 	0.0485	0.6897	0.745	-0.037
Mof_H 	H 	0.0289	0.673	0.7653	0.066
Mof_O 	O 	0.0007	0.8074	0.7493	0.21
Mof_H 	H 	0.0007	0.8119	0.7216	-0.355
Mof_C 	C 	0.998	0.7526	0.8109	-0.294
Mof_H 	H 	0.0291	0.7596	0.8243	0.113
Mof_C 	C 	0.985	0.7025	0.8224	0.893
Mof_H 	H 	0.9607	0.7022	0.846	-0.202
Mof_H 	H 	0.0122	0.6861	0.8341	-0.189
Mof_H 	H 	0.9737	0.687	0.7945	-0.22
Mof_N 	N 	0.9638	0.7852	0.8303	-0.187
Mof_H 	H 	0.9603	0.814	0.8212	0.121
Mof_C 	C 	0.9373	0.764	0.8656	0.263
Mof_O 	O 	0.913	0.729	0.856	-0.204
Mof_O 	O 	0.949	0.772	0.9122	-0.118
Mof_C 	C 	0.9655	0.821	0.9162	-0.302
Mof_C 	C 	0.9482	0.8417	0.9624	0.33
Mof_H 	H 	0.9602	0.8233	0.9882	-0.124
Mof_H 	H 	0.9144	0.8412	0.963	-1.015
Mof_H 	H 	0.9591	0.8736	0.9653	-0.125
Mof_C 	C 	0.9446	0.8494	0.8759	-0.085
Mof_H 	H 	0.9229	0.83	0.8586	0.07
Mof_H 	H 	0.9695	0.8596	0.8553	0.047
Mof_H 	H 	0.9284	0.8764	0.8883	0.073
Mof_C 	C 	0.0188	0.8252	0.9144	1.412
Mof_H 	H 	0.0324	0.8064	0.9391	-0.296
Mof_H 	H 	0.0277	0.8576	0.9186	0.293
Mof_H 	H 	0.0299	0.8142	0.8844	-0.271
Mof_O 	O 	0.4527	0.2685	0.3337	-0.405
Mof_O 	O 	0.4525	0.2122	0.2785	-0.402
Mof_O 	O 	0.3343	0.2656	0.4524	-0.389
Mof_O 	O 	0.278	0.2115	0.4521	-0.395
Mof_C 	C 	0.4377	0.2323	0.314	0.334
Mof_C 	C 	0.3112	0.2333	0.4342	0.325
Mof_C 	C 	0.3949	0.2087	0.3353	-0.051
Mof_C 	C 	0.3737	0.1713	0.314	-0.032
Mof_H 	H 	0.3862	0.1588	0.2863	0.06
Mof_C 	C 	0.3341	0.152	0.3331	0.009
Mof_C 	C 	0.3157	0.1702	0.3736	-0.036
Mof_H 	H 	0.2886	0.157	0.3867	0.061
Mof_C 	C 	0.3369	0.2076	0.3949	-0.045
Mof_C 	C 	0.3765	0.2269	0.3758	-0.004
Mof_H 	H 	0.391	0.2525	0.3904	0.065
Mof_C 	C 	0.2617	0.0417	0.2632	0.013
Mof_C 	C 	0.2915	0.0704	0.2388	-0.01
Mof_H 	H 	0.2961	0.0657	0.2066	0.064
Mof_C 	C 	0.3146	0.1059	0.2614	-0.064
Mof_H 	H 	0.3349	0.1255	0.2447	0.064
Mof_C 	C 	0.3078	0.1128	0.3085	0.03
Mof_C 	C 	0.2781	0.0841	0.3329	-0.058
Mof_H 	H 	0.2735	0.0887	0.3651	0.057
Mof_C 	C 	0.255	0.0485	0.3103	-0.037
Mof_H 	H 	0.2347	0.0289	0.327	0.066
Mof_O 	O 	0.2507	0.0007	0.1926	0.209
Mof_H 	H 	0.2784	0.0007	0.1881	-0.354
Mof_C 	C 	0.1891	0.998	0.2474	-0.294
Mof_H 	H 	0.1757	0.0291	0.2404	0.113
Mof_C 	C 	0.1776	0.985	0.2975	0.893
Mof_H 	H 	0.154	0.9607	0.2978	-0.202
Mof_H 	H 	0.1659	0.0122	0.3139	-0.189
Mof_H 	H 	0.2055	0.9737	0.313	-0.22
Mof_N 	N 	0.1697	0.9638	0.2148	-0.187
Mof_H 	H 	0.1788	0.9603	0.186	0.121
Mof_C 	C 	0.1344	0.9373	0.236	0.263
Mof_O 	O 	0.144	0.913	0.271	-0.204
Mof_O 	O 	0.0878	0.949	0.228	-0.118
Mof_C 	C 	0.0838	0.9655	0.179	-0.302
Mof_C 	C 	0.0376	0.9482	0.1583	0.338
Mof_H 	H 	0.0118	0.9602	0.1767	-0.128
Mof_H 	H 	0.037	0.9144	0.1588	-1.024
Mof_H 	H 	0.0347	0.9591	0.1264	-0.128
Mof_C 	C 	0.1241	0.9446	0.1506	-0.084
Mof_H 	H 	0.1414	0.9229	0.17	0.07
Mof_H 	H 	0.1447	0.9695	0.1404	0.047
Mof_H 	H 	0.1117	0.9284	0.1236	0.072
Mof_C 	C 	0.0856	0.0188	0.1748	1.408
Mof_H 	H 	0.0609	0.0324	0.1936	-0.295
Mof_H 	H 	0.0814	0.0277	0.1424	0.293
Mof_H 	H 	0.1156	0.0299	0.1858	-0.271
Mof_O 	O 	0.4527	0.7315	0.6663	-0.404
Mof_O 	O 	0.4525	0.7878	0.7215	-0.401
Mof_O 	O 	0.3343	0.7344	0.5476	-0.389
Mof_O 	O 	0.278	0.7885	0.5479	-0.394
Mof_C 	C 	0.4377	0.7677	0.686	0.334
Mof_C 	C 	0.3112	0.7667	0.5658	0.325
Mof_C 	C 	0.3949	0.7913	0.6647	-0.051
Mof_C 	C 	0.3737	0.8287	0.686	-0.033
Mof_H 	H 	0.3862	0.8412	0.7137	0.06
Mof_C 	C 	0.3341	0.848	0.6669	0.01
Mof_C 	C 	0.3157	0.8298	0.6264	-0.036
Mof_H 	H 	0.2886	0.843	0.6133	0.061
Mof_C 	C 	0.3369	0.7924	0.6051	-0.045
Mof_C 	C 	0.3765	0.7731	0.6242	-0.004
Mof_H 	H 	0.391	0.7475	0.6096	0.065
Mof_C 	C 	0.2617	0.9583	0.7368	0.015
Mof_C 	C 	0.2915	0.9296	0.7612	-0.012
Mof_H 	H 	0.2961	0.9343	0.7934	0.064
Mof_C 	C 	0.3146	0.8941	0.7386	-0.063
Mof_H 	H 	0.3349	0.8745	0.7553	0.064
Mof_C 	C 	0.3078	0.8872	0.6915	0.029
Mof_C 	C 	0.2781	0.9159	0.6671	-0.057
Mof_H 	H 	0.2735	0.9113	0.6349	0.057
Mof_C 	C 	0.255	0.9515	0.6897	-0.037
Mof_H 	H 	0.2347	0.9711	0.673	0.067
Mof_O 	O 	0.2507	0.9993	0.8074	0.211
Mof_H 	H 	0.2784	0.9993	0.8119	-0.349
Mof_C 	C 	0.1891	0.002	0.7526	-0.293
Mof_H 	H 	0.1757	0.9709	0.7596	0.115
Mof_C 	C 	0.1776	0.015	0.7025	0.902
Mof_H 	H 	0.154	0.0393	0.7022	-0.206
Mof_H 	H 	0.1659	0.9878	0.6861	-0.189
Mof_H 	H 	0.2055	0.0263	0.687	-0.224
Mof_N 	N 	0.1697	0.0362	0.7852	-0.188
Mof_H 	H 	0.1788	0.0397	0.814	0.121
Mof_C 	C 	0.1344	0.0627	0.764	0.263
Mof_O 	O 	0.144	0.087	0.729	-0.204
Mof_O 	O 	0.0878	0.051	0.772	-0.119
Mof_C 	C 	0.0838	0.0345	0.821	-0.3
Mof_C 	C 	0.0376	0.0518	0.8417	0.334
Mof_H 	H 	0.0118	0.0398	0.8233	-0.128
Mof_H 	H 	0.037	0.0856	0.8412	-1.021
Mof_H 	H 	0.0347	0.0409	0.8736	-0.128
Mof_C 	C 	0.1241	0.0554	0.8494	-0.086
Mof_H 	H 	0.1414	0.0771	0.83	0.071
Mof_H 	H 	0.1447	0.0305	0.8596	0.047
Mof_H 	H 	0.1117	0.0716	0.8764	0.073
Mof_C 	C 	0.0856	0.9812	0.8252	1.397
Mof_H 	H 	0.0609	0.9676	0.8064	-0.291
Mof_H 	H 	0.0814	0.9723	0.8576	0.292
Mof_H 	H 	0.1156	0.9701	0.8142	-0.268
Mof_O 	O 	0.5473	0.7315	0.3337	-0.404
Mof_O 	O 	0.5475	0.7878	0.2785	-0.402
Mof_O 	O 	0.6657	0.7344	0.4524	-0.389
Mof_O 	O 	0.722	0.7885	0.4521	-0.394
Mof_C 	C 	0.5623	0.7677	0.314	0.334
Mof_C 	C 	0.6888	0.7667	0.4342	0.325
Mof_C 	C 	0.6051	0.7913	0.3353	-0.051
Mof_C 	C 	0.6263	0.8287	0.314	-0.033
Mof_H 	H 	0.6138	0.8412	0.2863	0.06
Mof_C 	C 	0.6659	0.848	0.3331	0.01
Mof_C 	C 	0.6843	0.8298	0.3736	-0.036
Mof_H 	H 	0.7114	0.843	0.3867	0.061
Mof_C 	C 	0.6631	0.7924	0.3949	-0.045
Mof_C 	C 	0.6235	0.7731	0.3758	-0.004
Mof_H 	H 	0.609	0.7475	0.3904	0.065
Mof_C 	C 	0.7383	0.9583	0.2632	0.015
Mof_C 	C 	0.7085	0.9296	0.2388	-0.012
Mof_H 	H 	0.7039	0.9343	0.2066	0.064
Mof_C 	C 	0.6854	0.8941	0.2614	-0.063
Mof_H 	H 	0.6651	0.8745	0.2447	0.064
Mof_C 	C 	0.6922	0.8872	0.3085	0.029
Mof_C 	C 	0.7219	0.9159	0.3329	-0.056
Mof_H 	H 	0.7265	0.9113	0.3651	0.057
Mof_C 	C 	0.745	0.9515	0.3103	-0.037
Mof_H 	H 	0.7653	0.9711	0.327	0.067
Mof_O 	O 	0.7493	0.9993	0.1926	0.211
Mof_H 	H 	0.7216	0.9993	0.1881	-0.349
Mof_C 	C 	0.8109	0.002	0.2474	-0.293
Mof_H 	H 	0.8243	0.9709	0.2404	0.115
Mof_C 	C 	0.8224	0.015	0.2975	0.903
Mof_H 	H 	0.846	0.0393	0.2978	-0.206
Mof_H 	H 	0.8341	0.9878	0.3139	-0.189
Mof_H 	H 	0.7945	0.0263	0.313	-0.224
Mof_N 	N 	0.8303	0.0362	0.2148	-0.188
Mof_H 	H 	0.8212	0.0397	0.186	0.121
Mof_C 	C 	0.8656	0.0627	0.236	0.263
Mof_O 	O 	0.856	0.087	0.271	-0.203
Mof_O 	O 	0.9122	0.051	0.228	-0.119
Mof_C 	C 	0.9162	0.0345	0.179	-0.3
Mof_C 	C 	0.9624	0.0518	0.1583	0.326
Mof_H 	H 	0.9882	0.0398	0.1767	-0.124
Mof_H 	H 	0.963	0.0856	0.1588	-1.012
Mof_H 	H 	0.9653	0.0409	0.1264	-0.124
Mof_C 	C 	0.8759	0.0554	0.1506	-0.087
Mof_H 	H 	0.8586	0.0771	0.17	0.071
Mof_H 	H 	0.8553	0.0305	0.1404	0.047
Mof_H 	H 	0.8883	0.0716	0.1236	0.073
Mof_C 	C 	0.9144	0.9812	0.1748	1.4
Mof_H 	H 	0.9391	0.9676	0.1936	-0.292
Mof_H 	H 	0.9186	0.9723	0.1424	0.292
Mof_H 	H 	0.8844	0.9701	0.1858	-0.268
Mof_O 	O 	0.5473	0.2685	0.6663	-0.404
Mof_O 	O 	0.5475	0.2122	0.7215	-0.402
Mof_O 	O 	0.6657	0.2656	0.5476	-0.389
Mof_O 	O 	0.722	0.2115	0.5479	-0.394
Mof_C 	C 	0.5623	0.2323	0.686	0.334
Mof_C 	C 	0.6888	0.2333	0.5658	0.325
Mof_C 	C 	0.6051	0.2087	0.6647	-0.051
Mof_C 	C 	0.6263	0.1713	0.686	-0.032
Mof_H 	H 	0.6138	0.1588	0.7137	0.06
Mof_C 	C 	0.6659	0.152	0.6669	0.009
Mof_C 	C 	0.6843	0.1702	0.6264	-0.036
Mof_H 	H 	0.7114	0.157	0.6133	0.061
Mof_C 	C 	0.6631	0.2076	0.6051	-0.045
Mof_C 	C 	0.6235	0.2269	0.6242	-0.004
Mof_H 	H 	0.609	0.2525	0.6096	0.065
Mof_C 	C 	0.7383	0.0417	0.7368	0.013
Mof_C 	C 	0.7085	0.0704	0.7612	-0.01
Mof_H 	H 	0.7039	0.0657	0.7934	0.064
Mof_C 	C 	0.6854	0.1059	0.7386	-0.064
Mof_H 	H 	0.6651	0.1255	0.7553	0.064
Mof_C 	C 	0.6922	0.1128	0.6915	0.03
Mof_C 	C 	0.7219	0.0841	0.6671	-0.057
Mof_H 	H 	0.7265	0.0887	0.6349	0.057
Mof_C 	C 	0.745	0.0485	0.6897	-0.037
Mof_H 	H 	0.7653	0.0289	0.673	0.066
Mof_O 	O 	0.7493	0.0007	0.8074	0.21
Mof_H 	H 	0.7216	0.0007	0.8119	-0.355
Mof_C 	C 	0.8109	0.998	0.7526	-0.294
Mof_H 	H 	0.8243	0.0291	0.7596	0.113
Mof_C 	C 	0.8224	0.985	0.7025	0.893
Mof_H 	H 	0.846	0.9607	0.7022	-0.202
Mof_H 	H 	0.8341	0.0122	0.6861	-0.189
Mof_H 	H 	0.7945	0.9737	0.687	-0.22
Mof_N 	N 	0.8303	0.9638	0.7852	-0.187
Mof_H 	H 	0.8212	0.9603	0.814	0.121
Mof_C 	C 	0.8656	0.9373	0.764	0.263
Mof_O 	O 	0.856	0.913	0.729	-0.204
Mof_O 	O 	0.9122	0.949	0.772	-0.118
Mof_C 	C 	0.9162	0.9655	0.821	-0.302
Mof_C 	C 	0.9624	0.9482	0.8417	0.33
Mof_H 	H 	0.9882	0.9602	0.8233	-0.124
Mof_H 	H 	0.963	0.9144	0.8412	-1.015
Mof_H 	H 	0.9653	0.9591	0.8736	-0.125
Mof_C 	C 	0.8759	0.9446	0.8494	-0.085
Mof_H 	H 	0.8586	0.9229	0.83	0.07
Mof_H 	H 	0.8553	0.9695	0.8596	0.047
Mof_H 	H 	0.8883	0.9284	0.8764	0.073
Mof_C 	C 	0.9144	0.0188	0.8252	1.412
Mof_H 	H 	0.9391	0.0324	0.8064	-0.296
Mof_H 	H 	0.9186	0.0277	0.8576	0.293
Mof_H 	H 	0.8844	0.0299	0.8142	-0.271
Mof_O 	O 	0.3337	0.4527	0.2685	-0.405
Mof_O 	O 	0.2785	0.4525	0.2122	-0.402
Mof_O 	O 	0.4524	0.3343	0.2656	-0.389
Mof_O 	O 	0.4521	0.278	0.2115	-0.395
Mof_C 	C 	0.314	0.4377	0.2323	0.334
Mof_C 	C 	0.4342	0.3112	0.2333	0.325
Mof_C 	C 	0.3353	0.3949	0.2087	-0.051
Mof_C 	C 	0.314	0.3737	0.1713	-0.032
Mof_H 	H 	0.2863	0.3862	0.1588	0.06
Mof_C 	C 	0.3331	0.3341	0.152	0.009
Mof_C 	C 	0.3736	0.3157	0.1702	-0.036
Mof_H 	H 	0.3867	0.2886	0.157	0.061
Mof_C 	C 	0.3949	0.3369	0.2076	-0.045
Mof_C 	C 	0.3758	0.3765	0.2269	-0.004
Mof_H 	H 	0.3904	0.391	0.2525	0.065
Mof_C 	C 	0.2632	0.2617	0.0417	0.013
Mof_C 	C 	0.2388	0.2915	0.0704	-0.01
Mof_H 	H 	0.2066	0.2961	0.0657	0.064
Mof_C 	C 	0.2614	0.3146	0.1059	-0.064
Mof_H 	H 	0.2447	0.3349	0.1255	0.064
Mof_C 	C 	0.3085	0.3078	0.1128	0.03
Mof_C 	C 	0.3329	0.2781	0.0841	-0.058
Mof_H 	H 	0.3651	0.2735	0.0887	0.057
Mof_C 	C 	0.3103	0.255	0.0485	-0.037
Mof_H 	H 	0.327	0.2347	0.0289	0.066
Mof_O 	O 	0.1926	0.2507	0.0007	0.209
Mof_H 	H 	0.1881	0.2784	0.0007	-0.354
Mof_C 	C 	0.2474	0.1891	0.998	-0.294
Mof_H 	H 	0.2404	0.1757	0.0291	0.113
Mof_C 	C 	0.2975	0.1776	0.985	0.893
Mof_H 	H 	0.2978	0.154	0.9607	-0.202
Mof_H 	H 	0.3139	0.1659	0.0122	-0.189
Mof_H 	H 	0.313	0.2055	0.9737	-0.22
Mof_N 	N 	0.2148	0.1697	0.9638	-0.187
Mof_H 	H 	0.186	0.1788	0.9603	0.121
Mof_C 	C 	0.236	0.1344	0.9373	0.263
Mof_O 	O 	0.271	0.144	0.913	-0.204
Mof_O 	O 	0.228	0.0878	0.949	-0.118
Mof_C 	C 	0.179	0.0838	0.9655	-0.302
Mof_C 	C 	0.1583	0.0376	0.9482	0.338
Mof_H 	H 	0.1767	0.0118	0.9602	-0.128
Mof_H 	H 	0.1588	0.037	0.9144	-1.024
Mof_H 	H 	0.1264	0.0347	0.9591	-0.128
Mof_C 	C 	0.1506	0.1241	0.9446	-0.084
Mof_H 	H 	0.17	0.1414	0.9229	0.07
Mof_H 	H 	0.1404	0.1447	0.9695	0.047
Mof_H 	H 	0.1236	0.1117	0.9284	0.072
Mof_C 	C 	0.1748	0.0856	0.0188	1.408
Mof_H 	H 	0.1936	0.0609	0.0324	-0.295
Mof_H 	H 	0.1424	0.0814	0.0277	0.293
Mof_H 	H 	0.1858	0.1156	0.0299	-0.271
Mof_O 	O 	0.6663	0.4527	0.7315	-0.404
Mof_O 	O 	0.7215	0.4525	0.7878	-0.401
Mof_O 	O 	0.5476	0.3343	0.7344	-0.389
Mof_O 	O 	0.5479	0.278	0.7885	-0.394
Mof_C 	C 	0.686	0.4377	0.7677	0.334
Mof_C 	C 	0.5658	0.3112	0.7667	0.325
Mof_C 	C 	0.6647	0.3949	0.7913	-0.051
Mof_C 	C 	0.686	0.3737	0.8287	-0.033
Mof_H 	H 	0.7137	0.3862	0.8412	0.06
Mof_C 	C 	0.6669	0.3341	0.848	0.01
Mof_C 	C 	0.6264	0.3157	0.8298	-0.036
Mof_H 	H 	0.6133	0.2886	0.843	0.061
Mof_C 	C 	0.6051	0.3369	0.7924	-0.045
Mof_C 	C 	0.6242	0.3765	0.7731	-0.004
Mof_H 	H 	0.6096	0.391	0.7475	0.065
Mof_C 	C 	0.7368	0.2617	0.9583	0.015
Mof_C 	C 	0.7612	0.2915	0.9296	-0.012
Mof_H 	H 	0.7934	0.2961	0.9343	0.064
Mof_C 	C 	0.7386	0.3146	0.8941	-0.063
Mof_H 	H 	0.7553	0.3349	0.8745	0.064
Mof_C 	C 	0.6915	0.3078	0.8872	0.029
Mof_C 	C 	0.6671	0.2781	0.9159	-0.057
Mof_H 	H 	0.6349	0.2735	0.9113	0.057
Mof_C 	C 	0.6897	0.255	0.9515	-0.037
Mof_H 	H 	0.673	0.2347	0.9711	0.067
Mof_O 	O 	0.8074	0.2507	0.9993	0.211
Mof_H 	H 	0.8119	0.2784	0.9993	-0.349
Mof_C 	C 	0.7526	0.1891	0.002	-0.293
Mof_H 	H 	0.7596	0.1757	0.9709	0.115
Mof_C 	C 	0.7025	0.1776	0.015	0.902
Mof_H 	H 	0.7022	0.154	0.0393	-0.206
Mof_H 	H 	0.6861	0.1659	0.9878	-0.189
Mof_H 	H 	0.687	0.2055	0.0263	-0.224
Mof_N 	N 	0.7852	0.1697	0.0362	-0.188
Mof_H 	H 	0.814	0.1788	0.0397	0.121
Mof_C 	C 	0.764	0.1344	0.0627	0.263
Mof_O 	O 	0.729	0.144	0.087	-0.204
Mof_O 	O 	0.772	0.0878	0.051	-0.119
Mof_C 	C 	0.821	0.0838	0.0345	-0.3
Mof_C 	C 	0.8417	0.0376	0.0518	0.334
Mof_H 	H 	0.8233	0.0118	0.0398	-0.128
Mof_H 	H 	0.8412	0.037	0.0856	-1.021
Mof_H 	H 	0.8736	0.0347	0.0409	-0.128
Mof_C 	C 	0.8494	0.1241	0.0554	-0.086
Mof_H 	H 	0.83	0.1414	0.0771	0.071
Mof_H 	H 	0.8596	0.1447	0.0305	0.047
Mof_H 	H 	0.8764	0.1117	0.0716	0.073
Mof_C 	C 	0.8252	0.0856	0.9812	1.397
Mof_H 	H 	0.8064	0.0609	0.9676	-0.291
Mof_H 	H 	0.8576	0.0814	0.9723	0.292
Mof_H 	H 	0.8142	0.1156	0.9701	-0.268
Mof_O 	O 	0.3337	0.5473	0.7315	-0.404
Mof_O 	O 	0.2785	0.5475	0.7878	-0.402
Mof_O 	O 	0.4524	0.6657	0.7344	-0.389
Mof_O 	O 	0.4521	0.722	0.7885	-0.394
Mof_C 	C 	0.314	0.5623	0.7677	0.334
Mof_C 	C 	0.4342	0.6888	0.7667	0.325
Mof_C 	C 	0.3353	0.6051	0.7913	-0.051
Mof_C 	C 	0.314	0.6263	0.8287	-0.033
Mof_H 	H 	0.2863	0.6138	0.8412	0.06
Mof_C 	C 	0.3331	0.6659	0.848	0.01
Mof_C 	C 	0.3736	0.6843	0.8298	-0.036
Mof_H 	H 	0.3867	0.7114	0.843	0.061
Mof_C 	C 	0.3949	0.6631	0.7924	-0.045
Mof_C 	C 	0.3758	0.6235	0.7731	-0.004
Mof_H 	H 	0.3904	0.609	0.7475	0.065
Mof_C 	C 	0.2632	0.7383	0.9583	0.015
Mof_C 	C 	0.2388	0.7085	0.9296	-0.012
Mof_H 	H 	0.2066	0.7039	0.9343	0.064
Mof_C 	C 	0.2614	0.6854	0.8941	-0.063
Mof_H 	H 	0.2447	0.6651	0.8745	0.064
Mof_C 	C 	0.3085	0.6922	0.8872	0.029
Mof_C 	C 	0.3329	0.7219	0.9159	-0.056
Mof_H 	H 	0.3651	0.7265	0.9113	0.057
Mof_C 	C 	0.3103	0.745	0.9515	-0.037
Mof_H 	H 	0.327	0.7653	0.9711	0.067
Mof_O 	O 	0.1926	0.7493	0.9993	0.211
Mof_H 	H 	0.1881	0.7216	0.9993	-0.349
Mof_C 	C 	0.2474	0.8109	0.002	-0.293
Mof_H 	H 	0.2404	0.8243	0.9709	0.115
Mof_C 	C 	0.2975	0.8224	0.015	0.903
Mof_H 	H 	0.2978	0.846	0.0393	-0.206
Mof_H 	H 	0.3139	0.8341	0.9878	-0.189
Mof_H 	H 	0.313	0.7945	0.0263	-0.224
Mof_N 	N 	0.2148	0.8303	0.0362	-0.188
Mof_H 	H 	0.186	0.8212	0.0397	0.121
Mof_C 	C 	0.236	0.8656	0.0627	0.263
Mof_O 	O 	0.271	0.856	0.087	-0.203
Mof_O 	O 	0.228	0.9122	0.051	-0.119
Mof_C 	C 	0.179	0.9162	0.0345	-0.3
Mof_C 	C 	0.1583	0.9624	0.0518	0.326
Mof_H 	H 	0.1767	0.9882	0.0398	-0.124
Mof_H 	H 	0.1588	0.963	0.0856	-1.012
Mof_H 	H 	0.1264	0.9653	0.0409	-0.124
Mof_C 	C 	0.1506	0.8759	0.0554	-0.087
Mof_H 	H 	0.17	0.8586	0.0771	0.071
Mof_H 	H 	0.1404	0.8553	0.0305	0.047
Mof_H 	H 	0.1236	0.8883	0.0716	0.073
Mof_C 	C 	0.1748	0.9144	0.9812	1.4
Mof_H 	H 	0.1936	0.9391	0.9676	-0.292
Mof_H 	H 	0.1424	0.9186	0.9723	0.292
Mof_H 	H 	0.1858	0.8844	0.9701	-0.268
Mof_O 	O 	0.6663	0.5473	0.2685	-0.404
Mof_O 	O 	0.7215	0.5475	0.2122	-0.402
Mof_O 	O 	0.5476	0.6657	0.2656	-0.389
Mof_O 	O 	0.5479	0.722	0.2115	-0.394
Mof_C 	C 	0.686	0.5623	0.2323	0.334
Mof_C 	C 	0.5658	0.6888	0.2333	0.325
Mof_C 	C 	0.6647	0.6051	0.2087	-0.051
Mof_C 	C 	0.686	0.6263	0.1713	-0.032
Mof_H 	H 	0.7137	0.6138	0.1588	0.06
Mof_C 	C 	0.6669	0.6659	0.152	0.009
Mof_C 	C 	0.6264	0.6843	0.1702	-0.036
Mof_H 	H 	0.6133	0.7114	0.157	0.061
Mof_C 	C 	0.6051	0.6631	0.2076	-0.045
Mof_C 	C 	0.6242	0.6235	0.2269	-0.004
Mof_H 	H 	0.6096	0.609	0.2525	0.065
Mof_C 	C 	0.7368	0.7383	0.0417	0.013
Mof_C 	C 	0.7612	0.7085	0.0704	-0.01
Mof_H 	H 	0.7934	0.7039	0.0657	0.064
Mof_C 	C 	0.7386	0.6854	0.1059	-0.064
Mof_H 	H 	0.7553	0.6651	0.1255	0.064
Mof_C 	C 	0.6915	0.6922	0.1128	0.03
Mof_C 	C 	0.6671	0.7219	0.0841	-0.057
Mof_H 	H 	0.6349	0.7265	0.0887	0.057
Mof_C 	C 	0.6897	0.745	0.0485	-0.037
Mof_H 	H 	0.673	0.7653	0.0289	0.066
Mof_O 	O 	0.8074	0.7493	0.0007	0.21
Mof_H 	H 	0.8119	0.7216	0.0007	-0.355
Mof_C 	C 	0.7526	0.8109	0.998	-0.294
Mof_H 	H 	0.7596	0.8243	0.0291	0.113
Mof_C 	C 	0.7025	0.8224	0.985	0.893
Mof_H 	H 	0.7022	0.846	0.9607	-0.202
Mof_H 	H 	0.6861	0.8341	0.0122	-0.189
Mof_H 	H 	0.687	0.7945	0.9737	-0.22
Mof_N 	N 	0.7852	0.8303	0.9638	-0.187
Mof_H 	H 	0.814	0.8212	0.9603	0.121
Mof_C 	C 	0.764	0.8656	0.9373	0.263
Mof_O 	O 	0.729	0.856	0.913	-0.204
Mof_O 	O 	0.772	0.9122	0.949	-0.118
Mof_C 	C 	0.821	0.9162	0.9655	-0.302
Mof_C 	C 	0.8417	0.9624	0.9482	0.33
Mof_H 	H 	0.8233	0.9882	0.9602	-0.124
Mof_H 	H 	0.8412	0.963	0.9144	-1.015
Mof_H 	H 	0.8736	0.9653	0.9591	-0.125
Mof_C 	C 	0.8494	0.8759	0.9446	-0.085
Mof_H 	H 	0.83	0.8586	0.9229	0.07
Mof_H 	H 	0.8596	0.8553	0.9695	0.047
Mof_H 	H 	0.8764	0.8883	0.9284	0.073
Mof_C 	C 	0.8252	0.9144	0.0188	1.412
Mof_H 	H 	0.8064	0.9391	0.0324	-0.296
Mof_H 	H 	0.8576	0.9186	0.0277	0.293
Mof_H 	H 	0.8142	0.8844	0.0299	-0.271
Mof_O 	O 	0.3337	0.2685	0.5473	-0.405
Mof_O 	O 	0.2785	0.2122	0.5475	-0.402
Mof_O 	O 	0.4524	0.2656	0.6657	-0.389
Mof_O 	O 	0.4521	0.2115	0.722	-0.394
Mof_C 	C 	0.314	0.2323	0.5623	0.334
Mof_C 	C 	0.4342	0.2333	0.6888	0.325
Mof_C 	C 	0.3353	0.2087	0.6051	-0.051
Mof_C 	C 	0.314	0.1713	0.6263	-0.032
Mof_H 	H 	0.2863	0.1588	0.6138	0.06
Mof_C 	C 	0.3331	0.152	0.6659	0.009
Mof_C 	C 	0.3736	0.1702	0.6843	-0.036
Mof_H 	H 	0.3867	0.157	0.7114	0.061
Mof_C 	C 	0.3949	0.2076	0.6631	-0.045
Mof_C 	C 	0.3758	0.2269	0.6235	-0.004
Mof_H 	H 	0.3904	0.2525	0.609	0.065
Mof_C 	C 	0.2632	0.0417	0.7383	0.013
Mof_C 	C 	0.2388	0.0704	0.7085	-0.01
Mof_H 	H 	0.2066	0.0657	0.7039	0.064
Mof_C 	C 	0.2614	0.1059	0.6854	-0.064
Mof_H 	H 	0.2447	0.1255	0.6651	0.064
Mof_C 	C 	0.3085	0.1128	0.6922	0.03
Mof_C 	C 	0.3329	0.0841	0.7219	-0.057
Mof_H 	H 	0.3651	0.0887	0.7265	0.057
Mof_C 	C 	0.3103	0.0485	0.745	-0.037
Mof_H 	H 	0.327	0.0289	0.7653	0.066
Mof_O 	O 	0.1926	0.0007	0.7493	0.209
Mof_H 	H 	0.1881	0.0007	0.7216	-0.354
Mof_C 	C 	0.2474	0.998	0.8109	-0.294
Mof_H 	H 	0.2404	0.0291	0.8243	0.113
Mof_C 	C 	0.2975	0.985	0.8224	0.893
Mof_H 	H 	0.2978	0.9607	0.846	-0.202
Mof_H 	H 	0.3139	0.0122	0.8341	-0.189
Mof_H 	H 	0.313	0.9737	0.7945	-0.22
Mof_N 	N 	0.2148	0.9638	0.8303	-0.187
Mof_H 	H 	0.186	0.9603	0.8212	0.121
Mof_C 	C 	0.236	0.9373	0.8656	0.263
Mof_O 	O 	0.271	0.913	0.856	-0.204
Mof_O 	O 	0.228	0.949	0.9122	-0.118
Mof_C 	C 	0.179	0.9655	0.9162	-0.301
Mof_C 	C 	0.1583	0.9482	0.9624	0.33
Mof_H 	H 	0.1767	0.9602	0.9882	-0.124
Mof_H 	H 	0.1588	0.9144	0.963	-1.015
Mof_H 	H 	0.1264	0.9591	0.9653	-0.125
Mof_C 	C 	0.1506	0.9446	0.8759	-0.085
Mof_H 	H 	0.17	0.9229	0.8586	0.07
Mof_H 	H 	0.1404	0.9695	0.8553	0.047
Mof_H 	H 	0.1236	0.9284	0.8883	0.073
Mof_C 	C 	0.1748	0.0188	0.9144	1.412
Mof_H 	H 	0.1936	0.0324	0.9391	-0.296
Mof_H 	H 	0.1424	0.0277	0.9186	0.293
Mof_H 	H 	0.1858	0.0299	0.8844	-0.271
Mof_O 	O 	0.6663	0.7315	0.5473	-0.404
Mof_O 	O 	0.7215	0.7878	0.5475	-0.401
Mof_O 	O 	0.5476	0.7344	0.6657	-0.389
Mof_O 	O 	0.5479	0.7885	0.722	-0.394
Mof_C 	C 	0.686	0.7677	0.5623	0.334
Mof_C 	C 	0.5658	0.7667	0.6888	0.325
Mof_C 	C 	0.6647	0.7913	0.6051	-0.051
Mof_C 	C 	0.686	0.8287	0.6263	-0.033
Mof_H 	H 	0.7137	0.8412	0.6138	0.06
Mof_C 	C 	0.6669	0.848	0.6659	0.01
Mof_C 	C 	0.6264	0.8298	0.6843	-0.036
Mof_H 	H 	0.6133	0.843	0.7114	0.061
Mof_C 	C 	0.6051	0.7924	0.6631	-0.045
Mof_C 	C 	0.6242	0.7731	0.6235	-0.004
Mof_H 	H 	0.6096	0.7475	0.609	0.065
Mof_C 	C 	0.7368	0.9583	0.7383	0.015
Mof_C 	C 	0.7612	0.9296	0.7085	-0.012
Mof_H 	H 	0.7934	0.9343	0.7039	0.064
Mof_C 	C 	0.7386	0.8941	0.6854	-0.063
Mof_H 	H 	0.7553	0.8745	0.6651	0.064
Mof_C 	C 	0.6915	0.8872	0.6922	0.029
Mof_C 	C 	0.6671	0.9159	0.7219	-0.057
Mof_H 	H 	0.6349	0.9113	0.7265	0.057
Mof_C 	C 	0.6897	0.9515	0.745	-0.037
Mof_H 	H 	0.673	0.9711	0.7653	0.067
Mof_O 	O 	0.8074	0.9993	0.7493	0.211
Mof_H 	H 	0.8119	0.9993	0.7216	-0.349
Mof_C 	C 	0.7526	0.002	0.8109	-0.293
Mof_H 	H 	0.7596	0.9709	0.8243	0.115
Mof_C 	C 	0.7025	0.015	0.8224	0.903
Mof_H 	H 	0.7022	0.0393	0.846	-0.206
Mof_H 	H 	0.6861	0.9878	0.8341	-0.189
Mof_H 	H 	0.687	0.0263	0.7945	-0.224
Mof_N 	N 	0.7852	0.0362	0.8303	-0.188
Mof_H 	H 	0.814	0.0397	0.8212	0.121
Mof_C 	C 	0.764	0.0627	0.8656	0.263
Mof_O 	O 	0.729	0.087	0.856	-0.203
Mof_O 	O 	0.772	0.051	0.9122	-0.119
Mof_C 	C 	0.821	0.0345	0.9162	-0.3
Mof_C 	C 	0.8417	0.0518	0.9624	0.326
Mof_H 	H 	0.8233	0.0398	0.9882	-0.124
Mof_H 	H 	0.8412	0.0856	0.963	-1.012
Mof_H 	H 	0.8736	0.0409	0.9653	-0.124
Mof_C 	C 	0.8494	0.0554	0.8759	-0.087
Mof_H 	H 	0.83	0.0771	0.8586	0.071
Mof_H 	H 	0.8596	0.0305	0.8553	0.047
Mof_H 	H 	0.8764	0.0716	0.8883	0.074
Mof_C 	C 	0.8252	0.9812	0.9144	1.4
Mof_H 	H 	0.8064	0.9676	0.9391	-0.292
Mof_H 	H 	0.8576	0.9723	0.9186	0.292
Mof_H 	H 	0.8142	0.9701	0.8844	-0.268
Mof_O 	O 	0.3337	0.7315	0.4527	-0.404
Mof_O 	O 	0.2785	0.7878	0.4525	-0.402
Mof_O 	O 	0.4524	0.7344	0.3343	-0.389
Mof_O 	O 	0.4521	0.7885	0.278	-0.394
Mof_C 	C 	0.314	0.7677	0.4377	0.334
Mof_C 	C 	0.4342	0.7667	0.3112	0.325
Mof_C 	C 	0.3353	0.7913	0.3949	-0.051
Mof_C 	C 	0.314	0.8287	0.3737	-0.033
Mof_H 	H 	0.2863	0.8412	0.3862	0.06
Mof_C 	C 	0.3331	0.848	0.3341	0.01
Mof_C 	C 	0.3736	0.8298	0.3157	-0.036
Mof_H 	H 	0.3867	0.843	0.2886	0.061
Mof_C 	C 	0.3949	0.7924	0.3369	-0.045
Mof_C 	C 	0.3758	0.7731	0.3765	-0.004
Mof_H 	H 	0.3904	0.7475	0.391	0.065
Mof_C 	C 	0.2632	0.9583	0.2617	0.015
Mof_C 	C 	0.2388	0.9296	0.2915	-0.012
Mof_H 	H 	0.2066	0.9343	0.2961	0.064
Mof_C 	C 	0.2614	0.8941	0.3146	-0.063
Mof_H 	H 	0.2447	0.8745	0.3349	0.064
Mof_C 	C 	0.3085	0.8872	0.3078	0.029
Mof_C 	C 	0.3329	0.9159	0.2781	-0.057
Mof_H 	H 	0.3651	0.9113	0.2735	0.057
Mof_C 	C 	0.3103	0.9515	0.255	-0.037
Mof_H 	H 	0.327	0.9711	0.2347	0.067
Mof_O 	O 	0.1926	0.9993	0.2507	0.211
Mof_H 	H 	0.1881	0.9993	0.2784	-0.349
Mof_C 	C 	0.2474	0.002	0.1891	-0.293
Mof_H 	H 	0.2404	0.9709	0.1757	0.115
Mof_C 	C 	0.2975	0.015	0.1776	0.902
Mof_H 	H 	0.2978	0.0393	0.154	-0.206
Mof_H 	H 	0.3139	0.9878	0.1659	-0.189
Mof_H 	H 	0.313	0.0263	0.2055	-0.224
Mof_N 	N 	0.2148	0.0362	0.1697	-0.188
Mof_H 	H 	0.186	0.0397	0.1788	0.121
Mof_C 	C 	0.236	0.0627	0.1344	0.263
Mof_O 	O 	0.271	0.087	0.144	-0.204
Mof_O 	O 	0.228	0.051	0.0878	-0.119
Mof_C 	C 	0.179	0.0345	0.0838	-0.3
Mof_C 	C 	0.1583	0.0518	0.0376	0.334
Mof_H 	H 	0.1767	0.0398	0.0118	-0.128
Mof_H 	H 	0.1588	0.0856	0.037	-1.021
Mof_H 	H 	0.1264	0.0409	0.0347	-0.128
Mof_C 	C 	0.1506	0.0554	0.1241	-0.086
Mof_H 	H 	0.17	0.0771	0.1414	0.071
Mof_H 	H 	0.1404	0.0305	0.1447	0.047
Mof_H 	H 	0.1236	0.0716	0.1117	0.073
Mof_C 	C 	0.1748	0.9812	0.0856	1.397
Mof_H 	H 	0.1936	0.9676	0.0609	-0.291
Mof_H 	H 	0.1424	0.9723	0.0814	0.292
Mof_H 	H 	0.1858	0.9701	0.1156	-0.268
Mof_O 	O 	0.6663	0.2685	0.4527	-0.404
Mof_O 	O 	0.7215	0.2122	0.4525	-0.402
Mof_O 	O 	0.5476	0.2656	0.3343	-0.389
Mof_O 	O 	0.5479	0.2115	0.278	-0.395
Mof_C 	C 	0.686	0.2323	0.4377	0.334
Mof_C 	C 	0.5658	0.2333	0.3112	0.325
Mof_C 	C 	0.6647	0.2087	0.3949	-0.051
Mof_C 	C 	0.686	0.1713	0.3737	-0.032
Mof_H 	H 	0.7137	0.1588	0.3862	0.06
Mof_C 	C 	0.6669	0.152	0.3341	0.009
Mof_C 	C 	0.6264	0.1702	0.3157	-0.036
Mof_H 	H 	0.6133	0.157	0.2886	0.061
Mof_C 	C 	0.6051	0.2076	0.3369	-0.045
Mof_C 	C 	0.6242	0.2269	0.3765	-0.004
Mof_H 	H 	0.6096	0.2525	0.391	0.065
Mof_C 	C 	0.7368	0.0417	0.2617	0.013
Mof_C 	C 	0.7612	0.0704	0.2915	-0.01
Mof_H 	H 	0.7934	0.0657	0.2961	0.064
Mof_C 	C 	0.7386	0.1059	0.3146	-0.064
Mof_H 	H 	0.7553	0.1255	0.3349	0.064
Mof_C 	C 	0.6915	0.1128	0.3078	0.03
Mof_C 	C 	0.6671	0.0841	0.2781	-0.058
Mof_H 	H 	0.6349	0.0887	0.2735	0.057
Mof_C 	C 	0.6897	0.0485	0.255	-0.037
Mof_H 	H 	0.673	0.0289	0.2347	0.066
Mof_O 	O 	0.8074	0.0007	0.2507	0.21
Mof_H 	H 	0.8119	0.0007	0.2784	-0.355
Mof_C 	C 	0.7526	0.998	0.1891	-0.294
Mof_H 	H 	0.7596	0.0291	0.1757	0.113
Mof_C 	C 	0.7025	0.985	0.1776	0.893
Mof_H 	H 	0.7022	0.9607	0.154	-0.202
Mof_H 	H 	0.6861	0.0122	0.1659	-0.189
Mof_H 	H 	0.687	0.9737	0.2055	-0.22
Mof_N 	N 	0.7852	0.9638	0.1697	-0.187
Mof_H 	H 	0.814	0.9603	0.1788	0.121
Mof_C 	C 	0.764	0.9373	0.1344	0.263
Mof_O 	O 	0.729	0.913	0.144	-0.204
Mof_O 	O 	0.772	0.949	0.0878	-0.118
Mof_C 	C 	0.821	0.9655	0.0838	-0.302
Mof_C 	C 	0.8417	0.9482	0.0376	0.338
Mof_H 	H 	0.8233	0.9602	0.0118	-0.128
Mof_H 	H 	0.8412	0.9144	0.037	-1.024
Mof_H 	H 	0.8736	0.9591	0.0347	-0.128
Mof_C 	C 	0.8494	0.9446	0.1241	-0.084
Mof_H 	H 	0.83	0.9229	0.1414	0.07
Mof_H 	H 	0.8596	0.9695	0.1447	0.047
Mof_H 	H 	0.8764	0.9284	0.1117	0.073
Mof_C 	C 	0.8252	0.0188	0.0856	1.409
Mof_H 	H 	0.8064	0.0324	0.0609	-0.295
Mof_H 	H 	0.8576	0.0277	0.0814	0.293
Mof_H 	H 	0.8142	0.0299	0.1156	-0.271
Mof_O 	O 	0.2685	0.4527	0.6663	-0.404
Mof_O 	O 	0.2122	0.4525	0.7215	-0.402
Mof_O 	O 	0.2656	0.3343	0.5476	-0.389
Mof_O 	O 	0.2115	0.278	0.5479	-0.395
Mof_C 	C 	0.2323	0.4377	0.686	0.334
Mof_C 	C 	0.2333	0.3112	0.5658	0.325
Mof_C 	C 	0.2087	0.3949	0.6647	-0.051
Mof_C 	C 	0.1713	0.3737	0.686	-0.032
Mof_H 	H 	0.1588	0.3862	0.7137	0.06
Mof_C 	C 	0.152	0.3341	0.6669	0.009
Mof_C 	C 	0.1702	0.3157	0.6264	-0.036
Mof_H 	H 	0.157	0.2886	0.6133	0.061
Mof_C 	C 	0.2076	0.3369	0.6051	-0.045
Mof_C 	C 	0.2269	0.3765	0.6242	-0.004
Mof_H 	H 	0.2525	0.391	0.6096	0.065
Mof_C 	C 	0.0417	0.2617	0.7368	0.013
Mof_C 	C 	0.0704	0.2915	0.7612	-0.01
Mof_H 	H 	0.0657	0.2961	0.7934	0.064
Mof_C 	C 	0.1059	0.3146	0.7386	-0.064
Mof_H 	H 	0.1255	0.3349	0.7553	0.064
Mof_C 	C 	0.1128	0.3078	0.6915	0.03
Mof_C 	C 	0.0841	0.2781	0.6671	-0.058
Mof_H 	H 	0.0887	0.2735	0.6349	0.057
Mof_C 	C 	0.0485	0.255	0.6897	-0.037
Mof_H 	H 	0.0289	0.2347	0.673	0.066
Mof_O 	O 	0.0007	0.2507	0.8074	0.21
Mof_H 	H 	0.0007	0.2784	0.8119	-0.355
Mof_C 	C 	0.998	0.1891	0.7526	-0.294
Mof_H 	H 	0.0291	0.1757	0.7596	0.113
Mof_C 	C 	0.985	0.1776	0.7025	0.893
Mof_H 	H 	0.9607	0.154	0.7022	-0.202
Mof_H 	H 	0.0122	0.1659	0.6861	-0.189
Mof_H 	H 	0.9737	0.2055	0.687	-0.22
Mof_N 	N 	0.9638	0.1697	0.7852	-0.187
Mof_H 	H 	0.9603	0.1788	0.814	0.121
Mof_C 	C 	0.9373	0.1344	0.764	0.263
Mof_O 	O 	0.913	0.144	0.729	-0.204
Mof_O 	O 	0.949	0.0878	0.772	-0.118
Mof_C 	C 	0.9655	0.0838	0.821	-0.302
Mof_C 	C 	0.9482	0.0376	0.8417	0.338
Mof_H 	H 	0.9602	0.0118	0.8233	-0.128
Mof_H 	H 	0.9144	0.037	0.8412	-1.024
Mof_H 	H 	0.9591	0.0347	0.8736	-0.128
Mof_C 	C 	0.9446	0.1241	0.8494	-0.084
Mof_H 	H 	0.9229	0.1414	0.83	0.07
Mof_H 	H 	0.9695	0.1447	0.8596	0.047
Mof_H 	H 	0.9284	0.1117	0.8764	0.073
Mof_C 	C 	0.0188	0.0856	0.8252	1.409
Mof_H 	H 	0.0324	0.0609	0.8064	-0.295
Mof_H 	H 	0.0277	0.0814	0.8576	0.293
Mof_H 	H 	0.0299	0.1156	0.8142	-0.271
Mof_O 	O 	0.7315	0.4527	0.3337	-0.404
Mof_O 	O 	0.7878	0.4525	0.2785	-0.402
Mof_O 	O 	0.7344	0.3343	0.4524	-0.389
Mof_O 	O 	0.7885	0.278	0.4521	-0.394
Mof_C 	C 	0.7677	0.4377	0.314	0.334
Mof_C 	C 	0.7667	0.3112	0.4342	0.325
Mof_C 	C 	0.7913	0.3949	0.3353	-0.051
Mof_C 	C 	0.8287	0.3737	0.314	-0.033
Mof_H 	H 	0.8412	0.3862	0.2863	0.06
Mof_C 	C 	0.848	0.3341	0.3331	0.01
Mof_C 	C 	0.8298	0.3157	0.3736	-0.036
Mof_H 	H 	0.843	0.2886	0.3867	0.061
Mof_C 	C 	0.7924	0.3369	0.3949	-0.045
Mof_C 	C 	0.7731	0.3765	0.3758	-0.004
Mof_H 	H 	0.7475	0.391	0.3904	0.065
Mof_C 	C 	0.9583	0.2617	0.2632	0.015
Mof_C 	C 	0.9296	0.2915	0.2388	-0.012
Mof_H 	H 	0.9343	0.2961	0.2066	0.064
Mof_C 	C 	0.8941	0.3146	0.2614	-0.063
Mof_H 	H 	0.8745	0.3349	0.2447	0.064
Mof_C 	C 	0.8872	0.3078	0.3085	0.029
Mof_C 	C 	0.9159	0.2781	0.3329	-0.057
Mof_H 	H 	0.9113	0.2735	0.3651	0.057
Mof_C 	C 	0.9515	0.255	0.3103	-0.037
Mof_H 	H 	0.9711	0.2347	0.327	0.067
Mof_O 	O 	0.9993	0.2507	0.1926	0.211
Mof_H 	H 	0.9993	0.2784	0.1881	-0.349
Mof_C 	C 	0.002	0.1891	0.2474	-0.293
Mof_H 	H 	0.9709	0.1757	0.2404	0.115
Mof_C 	C 	0.015	0.1776	0.2975	0.902
Mof_H 	H 	0.0393	0.154	0.2978	-0.206
Mof_H 	H 	0.9878	0.1659	0.3139	-0.189
Mof_H 	H 	0.0263	0.2055	0.313	-0.224
Mof_N 	N 	0.0362	0.1697	0.2148	-0.188
Mof_H 	H 	0.0397	0.1788	0.186	0.121
Mof_C 	C 	0.0627	0.1344	0.236	0.263
Mof_O 	O 	0.087	0.144	0.271	-0.204
Mof_O 	O 	0.051	0.0878	0.228	-0.119
Mof_C 	C 	0.0345	0.0838	0.179	-0.3
Mof_C 	C 	0.0518	0.0376	0.1583	0.334
Mof_H 	H 	0.0398	0.0118	0.1767	-0.128
Mof_H 	H 	0.0856	0.037	0.1588	-1.021
Mof_H 	H 	0.0409	0.0347	0.1264	-0.128
Mof_C 	C 	0.0554	0.1241	0.1506	-0.086
Mof_H 	H 	0.0771	0.1414	0.17	0.071
Mof_H 	H 	0.0305	0.1447	0.1404	0.047
Mof_H 	H 	0.0716	0.1117	0.1236	0.073
Mof_C 	C 	0.9812	0.0856	0.1748	1.397
Mof_H 	H 	0.9676	0.0609	0.1936	-0.291
Mof_H 	H 	0.9723	0.0814	0.1424	0.292
Mof_H 	H 	0.9701	0.1156	0.1858	-0.268
Mof_O 	O 	0.7315	0.5473	0.6663	-0.404
Mof_O 	O 	0.7878	0.5475	0.7215	-0.401
Mof_O 	O 	0.7344	0.6657	0.5476	-0.389
Mof_O 	O 	0.7885	0.722	0.5479	-0.394
Mof_C 	C 	0.7677	0.5623	0.686	0.334
Mof_C 	C 	0.7667	0.6888	0.5658	0.325
Mof_C 	C 	0.7913	0.6051	0.6647	-0.051
Mof_C 	C 	0.8287	0.6263	0.686	-0.033
Mof_H 	H 	0.8412	0.6138	0.7137	0.06
Mof_C 	C 	0.848	0.6659	0.6669	0.01
Mof_C 	C 	0.8298	0.6843	0.6264	-0.036
Mof_H 	H 	0.843	0.7114	0.6133	0.061
Mof_C 	C 	0.7924	0.6631	0.6051	-0.045
Mof_C 	C 	0.7731	0.6235	0.6242	-0.004
Mof_H 	H 	0.7475	0.609	0.6096	0.065
Mof_C 	C 	0.9583	0.7383	0.7368	0.015
Mof_C 	C 	0.9296	0.7085	0.7612	-0.012
Mof_H 	H 	0.9343	0.7039	0.7934	0.064
Mof_C 	C 	0.8941	0.6854	0.7386	-0.063
Mof_H 	H 	0.8745	0.6651	0.7553	0.064
Mof_C 	C 	0.8872	0.6922	0.6915	0.029
Mof_C 	C 	0.9159	0.7219	0.6671	-0.057
Mof_H 	H 	0.9113	0.7265	0.6349	0.057
Mof_C 	C 	0.9515	0.745	0.6897	-0.037
Mof_H 	H 	0.9711	0.7653	0.673	0.067
Mof_O 	O 	0.9993	0.7493	0.8074	0.211
Mof_H 	H 	0.9993	0.7216	0.8119	-0.349
Mof_C 	C 	0.002	0.8109	0.7526	-0.293
Mof_H 	H 	0.9709	0.8243	0.7596	0.115
Mof_C 	C 	0.015	0.8224	0.7025	0.903
Mof_H 	H 	0.0393	0.846	0.7022	-0.206
Mof_H 	H 	0.9878	0.8341	0.6861	-0.189
Mof_H 	H 	0.0263	0.7945	0.687	-0.224
Mof_N 	N 	0.0362	0.8303	0.7852	-0.188
Mof_H 	H 	0.0397	0.8212	0.814	0.121
Mof_C 	C 	0.0627	0.8656	0.764	0.263
Mof_O 	O 	0.087	0.856	0.729	-0.203
Mof_O 	O 	0.051	0.9122	0.772	-0.119
Mof_C 	C 	0.0345	0.9162	0.821	-0.3
Mof_C 	C 	0.0518	0.9624	0.8417	0.326
Mof_H 	H 	0.0398	0.9882	0.8233	-0.124
Mof_H 	H 	0.0856	0.963	0.8412	-1.012
Mof_H 	H 	0.0409	0.9653	0.8736	-0.124
Mof_C 	C 	0.0554	0.8759	0.8494	-0.087
Mof_H 	H 	0.0771	0.8586	0.83	0.071
Mof_H 	H 	0.0305	0.8553	0.8596	0.047
Mof_H 	H 	0.0716	0.8883	0.8764	0.074
Mof_C 	C 	0.9812	0.9144	0.8252	1.4
Mof_H 	H 	0.9676	0.9391	0.8064	-0.292
Mof_H 	H 	0.9723	0.9186	0.8576	0.292
Mof_H 	H 	0.9701	0.8844	0.8142	-0.268
Mof_O 	O 	0.2685	0.5473	0.3337	-0.405
Mof_O 	O 	0.2122	0.5475	0.2785	-0.402
Mof_O 	O 	0.2656	0.6657	0.4524	-0.389
Mof_O 	O 	0.2115	0.722	0.4521	-0.394
Mof_C 	C 	0.2323	0.5623	0.314	0.334
Mof_C 	C 	0.2333	0.6888	0.4342	0.325
Mof_C 	C 	0.2087	0.6051	0.3353	-0.051
Mof_C 	C 	0.1713	0.6263	0.314	-0.032
Mof_H 	H 	0.1588	0.6138	0.2863	0.06
Mof_C 	C 	0.152	0.6659	0.3331	0.009
Mof_C 	C 	0.1702	0.6843	0.3736	-0.036
Mof_H 	H 	0.157	0.7114	0.3867	0.061
Mof_C 	C 	0.2076	0.6631	0.3949	-0.045
Mof_C 	C 	0.2269	0.6235	0.3758	-0.004
Mof_H 	H 	0.2525	0.609	0.3904	0.065
Mof_C 	C 	0.0417	0.7383	0.2632	0.013
Mof_C 	C 	0.0704	0.7085	0.2388	-0.01
Mof_H 	H 	0.0657	0.7039	0.2066	0.064
Mof_C 	C 	0.1059	0.6854	0.2614	-0.064
Mof_H 	H 	0.1255	0.6651	0.2447	0.064
Mof_C 	C 	0.1128	0.6922	0.3085	0.03
Mof_C 	C 	0.0841	0.7219	0.3329	-0.057
Mof_H 	H 	0.0887	0.7265	0.3651	0.057
Mof_C 	C 	0.0485	0.745	0.3103	-0.037
Mof_H 	H 	0.0289	0.7653	0.327	0.066
Mof_O 	O 	0.0007	0.7493	0.1926	0.209
Mof_H 	H 	0.0007	0.7216	0.1881	-0.354
Mof_C 	C 	0.998	0.8109	0.2474	-0.294
Mof_H 	H 	0.0291	0.8243	0.2404	0.113
Mof_C 	C 	0.985	0.8224	0.2975	0.893
Mof_H 	H 	0.9607	0.846	0.2978	-0.202
Mof_H 	H 	0.0122	0.8341	0.3139	-0.189
Mof_H 	H 	0.9737	0.7945	0.313	-0.22
Mof_N 	N 	0.9638	0.8303	0.2148	-0.187
Mof_H 	H 	0.9603	0.8212	0.186	0.121
Mof_C 	C 	0.9373	0.8656	0.236	0.263
Mof_O 	O 	0.913	0.856	0.271	-0.204
Mof_O 	O 	0.949	0.9122	0.228	-0.118
Mof_C 	C 	0.9655	0.9162	0.179	-0.301
Mof_C 	C 	0.9482	0.9624	0.1583	0.33
Mof_H 	H 	0.9602	0.9882	0.1767	-0.124
Mof_H 	H 	0.9144	0.963	0.1588	-1.015
Mof_H 	H 	0.9591	0.9653	0.1264	-0.125
Mof_C 	C 	0.9446	0.8759	0.1506	-0.085
Mof_H 	H 	0.9229	0.8586	0.17	0.07
Mof_H 	H 	0.9695	0.8553	0.1404	0.047
Mof_H 	H 	0.9284	0.8883	0.1236	0.073
Mof_C 	C 	0.0188	0.9144	0.1748	1.412
Mof_H 	H 	0.0324	0.9391	0.1936	-0.296
Mof_H 	H 	0.0277	0.9186	0.1424	0.293
Mof_H 	H 	0.0299	0.8844	0.1858	-0.271
Mof_O 	O 	0.4527	0.3337	0.7315	-0.404
Mof_O 	O 	0.4525	0.2785	0.7878	-0.402
Mof_O 	O 	0.3343	0.4524	0.7344	-0.389
Mof_O 	O 	0.278	0.4521	0.7885	-0.394
Mof_C 	C 	0.4377	0.314	0.7677	0.334
Mof_C 	C 	0.3112	0.4342	0.7667	0.325
Mof_C 	C 	0.3949	0.3353	0.7913	-0.051
Mof_C 	C 	0.3737	0.314	0.8287	-0.033
Mof_H 	H 	0.3862	0.2863	0.8412	0.06
Mof_C 	C 	0.3341	0.3331	0.848	0.01
Mof_C 	C 	0.3157	0.3736	0.8298	-0.036
Mof_H 	H 	0.2886	0.3867	0.843	0.061
Mof_C 	C 	0.3369	0.3949	0.7924	-0.045
Mof_C 	C 	0.3765	0.3758	0.7731	-0.004
Mof_H 	H 	0.391	0.3904	0.7475	0.065
Mof_C 	C 	0.2617	0.2632	0.9583	0.015
Mof_C 	C 	0.2915	0.2388	0.9296	-0.012
Mof_H 	H 	0.2961	0.2066	0.9343	0.064
Mof_C 	C 	0.3146	0.2614	0.8941	-0.063
Mof_H 	H 	0.3349	0.2447	0.8745	0.064
Mof_C 	C 	0.3078	0.3085	0.8872	0.029
Mof_C 	C 	0.2781	0.3329	0.9159	-0.057
Mof_H 	H 	0.2735	0.3651	0.9113	0.057
Mof_C 	C 	0.255	0.3103	0.9515	-0.037
Mof_H 	H 	0.2347	0.327	0.9711	0.067
Mof_O 	O 	0.2507	0.1926	0.9993	0.211
Mof_H 	H 	0.2784	0.1881	0.9993	-0.349
Mof_C 	C 	0.1891	0.2474	0.002	-0.293
Mof_H 	H 	0.1757	0.2404	0.9709	0.115
Mof_C 	C 	0.1776	0.2975	0.015	0.902
Mof_H 	H 	0.154	0.2978	0.0393	-0.206
Mof_H 	H 	0.1659	0.3139	0.9878	-0.189
Mof_H 	H 	0.2055	0.313	0.0263	-0.224
Mof_N 	N 	0.1697	0.2148	0.0362	-0.188
Mof_H 	H 	0.1788	0.186	0.0397	0.121
Mof_C 	C 	0.1344	0.236	0.0627	0.263
Mof_O 	O 	0.144	0.271	0.087	-0.204
Mof_O 	O 	0.0878	0.228	0.051	-0.119
Mof_C 	C 	0.0838	0.179	0.0345	-0.3
Mof_C 	C 	0.0376	0.1583	0.0518	0.334
Mof_H 	H 	0.0118	0.1767	0.0398	-0.128
Mof_H 	H 	0.037	0.1588	0.0856	-1.021
Mof_H 	H 	0.0347	0.1264	0.0409	-0.128
Mof_C 	C 	0.1241	0.1506	0.0554	-0.086
Mof_H 	H 	0.1414	0.17	0.0771	0.071
Mof_H 	H 	0.1447	0.1404	0.0305	0.047
Mof_H 	H 	0.1117	0.1236	0.0716	0.073
Mof_C 	C 	0.0856	0.1748	0.9812	1.397
Mof_H 	H 	0.0609	0.1936	0.9676	-0.291
Mof_H 	H 	0.0814	0.1424	0.9723	0.292
Mof_H 	H 	0.1156	0.1858	0.9701	-0.268
Mof_O 	O 	0.4527	0.6663	0.2685	-0.404
Mof_O 	O 	0.4525	0.7215	0.2122	-0.402
Mof_O 	O 	0.3343	0.5476	0.2656	-0.389
Mof_O 	O 	0.278	0.5479	0.2115	-0.395
Mof_C 	C 	0.4377	0.686	0.2323	0.334
Mof_C 	C 	0.3112	0.5658	0.2333	0.325
Mof_C 	C 	0.3949	0.6647	0.2087	-0.051
Mof_C 	C 	0.3737	0.686	0.1713	-0.032
Mof_H 	H 	0.3862	0.7137	0.1588	0.06
Mof_C 	C 	0.3341	0.6669	0.152	0.009
Mof_C 	C 	0.3157	0.6264	0.1702	-0.036
Mof_H 	H 	0.2886	0.6133	0.157	0.061
Mof_C 	C 	0.3369	0.6051	0.2076	-0.045
Mof_C 	C 	0.3765	0.6242	0.2269	-0.004
Mof_H 	H 	0.391	0.6096	0.2525	0.065
Mof_C 	C 	0.2617	0.7368	0.0417	0.013
Mof_C 	C 	0.2915	0.7612	0.0704	-0.01
Mof_H 	H 	0.2961	0.7934	0.0657	0.064
Mof_C 	C 	0.3146	0.7386	0.1059	-0.064
Mof_H 	H 	0.3349	0.7553	0.1255	0.064
Mof_C 	C 	0.3078	0.6915	0.1128	0.03
Mof_C 	C 	0.2781	0.6671	0.0841	-0.058
Mof_H 	H 	0.2735	0.6349	0.0887	0.057
Mof_C 	C 	0.255	0.6897	0.0485	-0.037
Mof_H 	H 	0.2347	0.673	0.0289	0.066
Mof_O 	O 	0.2507	0.8074	0.0007	0.21
Mof_H 	H 	0.2784	0.8119	0.0007	-0.355
Mof_C 	C 	0.1891	0.7526	0.998	-0.294
Mof_H 	H 	0.1757	0.7596	0.0291	0.113
Mof_C 	C 	0.1776	0.7025	0.985	0.893
Mof_H 	H 	0.154	0.7022	0.9607	-0.202
Mof_H 	H 	0.1659	0.6861	0.0122	-0.189
Mof_H 	H 	0.2055	0.687	0.9737	-0.22
Mof_N 	N 	0.1697	0.7852	0.9638	-0.187
Mof_H 	H 	0.1788	0.814	0.9603	0.121
Mof_C 	C 	0.1344	0.764	0.9373	0.263
Mof_O 	O 	0.144	0.729	0.913	-0.204
Mof_O 	O 	0.0878	0.772	0.949	-0.118
Mof_C 	C 	0.0838	0.821	0.9655	-0.302
Mof_C 	C 	0.0376	0.8417	0.9482	0.338
Mof_H 	H 	0.0118	0.8233	0.9602	-0.128
Mof_H 	H 	0.037	0.8412	0.9144	-1.024
Mof_H 	H 	0.0347	0.8736	0.9591	-0.128
Mof_C 	C 	0.1241	0.8494	0.9446	-0.084
Mof_H 	H 	0.1414	0.83	0.9229	0.07
Mof_H 	H 	0.1447	0.8596	0.9695	0.047
Mof_H 	H 	0.1117	0.8764	0.9284	0.073
Mof_C 	C 	0.0856	0.8252	0.0188	1.409
Mof_H 	H 	0.0609	0.8064	0.0324	-0.295
Mof_H 	H 	0.0814	0.8576	0.0277	0.293
Mof_H 	H 	0.1156	0.8142	0.0299	-0.271
Mof_O 	O 	0.5473	0.3337	0.2685	-0.405
Mof_O 	O 	0.5475	0.2785	0.2122	-0.402
Mof_O 	O 	0.6657	0.4524	0.2656	-0.389
Mof_O 	O 	0.722	0.4521	0.2115	-0.394
Mof_C 	C 	0.5623	0.314	0.2323	0.334
Mof_C 	C 	0.6888	0.4342	0.2333	0.325
Mof_C 	C 	0.6051	0.3353	0.2087	-0.051
Mof_C 	C 	0.6263	0.314	0.1713	-0.032
Mof_H 	H 	0.6138	0.2863	0.1588	0.06
Mof_C 	C 	0.6659	0.3331	0.152	0.009
Mof_C 	C 	0.6843	0.3736	0.1702	-0.036
Mof_H 	H 	0.7114	0.3867	0.157	0.061
Mof_C 	C 	0.6631	0.3949	0.2076	-0.045
Mof_C 	C 	0.6235	0.3758	0.2269	-0.004
Mof_H 	H 	0.609	0.3904	0.2525	0.065
Mof_C 	C 	0.7383	0.2632	0.0417	0.013
Mof_C 	C 	0.7085	0.2388	0.0704	-0.01
Mof_H 	H 	0.7039	0.2066	0.0657	0.064
Mof_C 	C 	0.6854	0.2614	0.1059	-0.064
Mof_H 	H 	0.6651	0.2447	0.1255	0.064
Mof_C 	C 	0.6922	0.3085	0.1128	0.03
Mof_C 	C 	0.7219	0.3329	0.0841	-0.057
Mof_H 	H 	0.7265	0.3651	0.0887	0.057
Mof_C 	C 	0.745	0.3103	0.0485	-0.037
Mof_H 	H 	0.7653	0.327	0.0289	0.066
Mof_O 	O 	0.7493	0.1926	0.0007	0.209
Mof_H 	H 	0.7216	0.1881	0.0007	-0.354
Mof_C 	C 	0.8109	0.2474	0.998	-0.294
Mof_H 	H 	0.8243	0.2404	0.0291	0.113
Mof_C 	C 	0.8224	0.2975	0.985	0.893
Mof_H 	H 	0.846	0.2978	0.9607	-0.202
Mof_H 	H 	0.8341	0.3139	0.0122	-0.189
Mof_H 	H 	0.7945	0.313	0.9737	-0.22
Mof_N 	N 	0.8303	0.2148	0.9638	-0.187
Mof_H 	H 	0.8212	0.186	0.9603	0.121
Mof_C 	C 	0.8656	0.236	0.9373	0.263
Mof_O 	O 	0.856	0.271	0.913	-0.204
Mof_O 	O 	0.9122	0.228	0.949	-0.118
Mof_C 	C 	0.9162	0.179	0.9655	-0.301
Mof_C 	C 	0.9624	0.1583	0.9482	0.33
Mof_H 	H 	0.9882	0.1767	0.9602	-0.124
Mof_H 	H 	0.963	0.1588	0.9144	-1.015
Mof_H 	H 	0.9653	0.1264	0.9591	-0.125
Mof_C 	C 	0.8759	0.1506	0.9446	-0.085
Mof_H 	H 	0.8586	0.17	0.9229	0.07
Mof_H 	H 	0.8553	0.1404	0.9695	0.047
Mof_H 	H 	0.8883	0.1236	0.9284	0.073
Mof_C 	C 	0.9144	0.1748	0.0188	1.412
Mof_H 	H 	0.9391	0.1936	0.0324	-0.296
Mof_H 	H 	0.9186	0.1424	0.0277	0.293
Mof_H 	H 	0.8844	0.1858	0.0299	-0.271
Mof_O 	O 	0.5473	0.6663	0.7315	-0.404
Mof_O 	O 	0.5475	0.7215	0.7878	-0.401
Mof_O 	O 	0.6657	0.5476	0.7344	-0.389
Mof_O 	O 	0.722	0.5479	0.7885	-0.394
Mof_C 	C 	0.5623	0.686	0.7677	0.334
Mof_C 	C 	0.6888	0.5658	0.7667	0.325
Mof_C 	C 	0.6051	0.6647	0.7913	-0.051
Mof_C 	C 	0.6263	0.686	0.8287	-0.033
Mof_H 	H 	0.6138	0.7137	0.8412	0.06
Mof_C 	C 	0.6659	0.6669	0.848	0.01
Mof_C 	C 	0.6843	0.6264	0.8298	-0.036
Mof_H 	H 	0.7114	0.6133	0.843	0.061
Mof_C 	C 	0.6631	0.6051	0.7924	-0.045
Mof_C 	C 	0.6235	0.6242	0.7731	-0.004
Mof_H 	H 	0.609	0.6096	0.7475	0.065
Mof_C 	C 	0.7383	0.7368	0.9583	0.015
Mof_C 	C 	0.7085	0.7612	0.9296	-0.012
Mof_H 	H 	0.7039	0.7934	0.9343	0.064
Mof_C 	C 	0.6854	0.7386	0.8941	-0.063
Mof_H 	H 	0.6651	0.7553	0.8745	0.064
Mof_C 	C 	0.6922	0.6915	0.8872	0.029
Mof_C 	C 	0.7219	0.6671	0.9159	-0.057
Mof_H 	H 	0.7265	0.6349	0.9113	0.057
Mof_C 	C 	0.745	0.6897	0.9515	-0.037
Mof_H 	H 	0.7653	0.673	0.9711	0.067
Mof_O 	O 	0.7493	0.8074	0.9993	0.211
Mof_H 	H 	0.7216	0.8119	0.9993	-0.349
Mof_C 	C 	0.8109	0.7526	0.002	-0.293
Mof_H 	H 	0.8243	0.7596	0.9709	0.115
Mof_C 	C 	0.8224	0.7025	0.015	0.903
Mof_H 	H 	0.846	0.7022	0.0393	-0.206
Mof_H 	H 	0.8341	0.6861	0.9878	-0.189
Mof_H 	H 	0.7945	0.687	0.0263	-0.224
Mof_N 	N 	0.8303	0.7852	0.0362	-0.188
Mof_H 	H 	0.8212	0.814	0.0397	0.121
Mof_C 	C 	0.8656	0.764	0.0627	0.263
Mof_O 	O 	0.856	0.729	0.087	-0.203
Mof_O 	O 	0.9122	0.772	0.051	-0.119
Mof_C 	C 	0.9162	0.821	0.0345	-0.3
Mof_C 	C 	0.9624	0.8417	0.0518	0.326
Mof_H 	H 	0.9882	0.8233	0.0398	-0.124
Mof_H 	H 	0.963	0.8412	0.0856	-1.012
Mof_H 	H 	0.9653	0.8736	0.0409	-0.124
Mof_C 	C 	0.8759	0.8494	0.0554	-0.087
Mof_H 	H 	0.8586	0.83	0.0771	0.071
Mof_H 	H 	0.8553	0.8596	0.0305	0.047
Mof_H 	H 	0.8883	0.8764	0.0716	0.074
Mof_C 	C 	0.9144	0.8252	0.9812	1.4
Mof_H 	H 	0.9391	0.8064	0.9676	-0.292
Mof_H 	H 	0.9186	0.8576	0.9723	0.292
Mof_H 	H 	0.8844	0.8142	0.9701	-0.268
Mof_Cu	Cu	0.3054	0.3054	0.5	0.905
Mof_Cu	Cu	0.24039	0.24039	0.5	0.906
Mof_Cu	Cu	0.6946	0.6946	0.5	0.904
Mof_Cu	Cu	0.75961	0.75961	0.5	0.906
Mof_Cu	Cu	0.6946	0.3054	0.5	0.904
Mof_Cu	Cu	0.75961	0.24039	0.5	0.906
Mof_Cu	Cu	0.3054	0.6946	0.5	0.904
Mof_Cu	Cu	0.24039	0.75961	0.5	0.906
Mof_Cu	Cu	0.5	0.3054	0.3054	0.905
Mof_Cu	Cu	0.5	0.24039	0.24039	0.906
Mof_Cu	Cu	0.5	0.6946	0.6946	0.904
Mof_Cu	Cu	0.5	0.75961	0.75961	0.906
Mof_Cu	Cu	0.5	0.6946	0.3054	0.904
Mof_Cu	Cu	0.5	0.75961	0.24039	0.906
Mof_Cu	Cu	0.5	0.3054	0.6946	0.904
Mof_Cu	Cu	0.5	0.24039	0.75961	0.906
Mof_Cu	Cu	0.3054	0.5	0.3054	0.905
Mof_Cu	Cu	0.24039	0.5	0.24039	0.906
Mof_Cu	Cu	0.6946	0.5	0.6946	0.904
Mof_Cu	Cu	0.75961	0.5	0.75961	0.906
Mof_Cu	Cu	0.3054	0.5	0.6946	0.904
Mof_Cu	Cu	0.24039	0.5	0.75961	0.906
Mof_Cu	Cu	0.6946	0.5	0.3054	0.904
Mof_Cu	Cu	0.75961	0.5	0.24039	0.906
Mof_C 	C 	9.0323e-34	0.2409	0.2409	0.072
Mof_C 	C 	7.15113e-33	0.7591	0.2409	0.072
Mof_C 	C 	2.84617e-33	0.2409	0.7591	0.072
Mof_C 	C 	2.84617e-33	0.7591	0.7591	0.072
Mof_C 	C 	0.2409	-2.08263e-33	0.2409	0.072
Mof_C 	C 	0.2409	0	0.7591	0.072
Mof_C 	C 	0.7591	-2.08263e-33	0.2409	0.072
Mof_C 	C 	0.7591	0	0.7591	0.072
Mof_C 	C 	0.2409	0.2409	-0	0.072
Mof_C 	C 	0.7591	0.2409	-0	0.072
Mof_C 	C 	0.2409	0.7591	-0	0.072
Mof_C 	C 	0.7591	0.7591	-0	0.072
_end
