data_functionalizedCrystal
_audit_creation_method	'EQeq! by Chris Wilmer'
_symmetry_space_group_name_H-M	'P1'
_symmetry_Int_Tables_number	1
_symmetry_cell_setting	triclinic
loop_
_symmetry_equiv_pos_as_xyz
  x,y,z
_cell_length_a	31.517
_cell_length_b	14.882
_cell_length_c	28.494
_cell_angle_alpha	90
_cell_angle_beta	120.19
_cell_angle_gamma	90
loop_
_atom_site_label
_atom_site_type_symbol
_atom_site_fract_x
_atom_site_fract_y
_atom_site_fract_z
_atom_site_charge
Mof_Gd	Gd	0.26752	0.11811	0.48781	1.697
Mof_O 	O 	0.07431	0.3571	0.3558	-0.418
Mof_H 	H 	0.089	0.4027	0.356	0.247
Mof_O 	O 	0.25307	0.9743	0.12819	-0.424
Mof_H 	H 	0.2343	0.0142	0.1093	0.229
Mof_O 	O 	0.22859	0.0704	0.30124	-0.451
Mof_H 	H 	0.2328	0.1196	0.316	0.269
Mof_O 	O 	0.24117	0.8677	0.05091	-0.49
Mof_O 	O 	0.20322	0.7398	0.0409	-0.481
Mof_O 	O 	0.25082	0.0729	0.4011	-0.425
Mof_O 	O 	0.32533	0.0485	0.46461	-0.398
Mof_O 	O 	0.20066	0.2087	0.43746	-0.521
Mof_O 	O 	0.16113	0.3353	0.43457	-0.445
Mof_C 	C 	0.12767	0.2395	0.3577	-0.222
Mof_C 	C 	0.1338	0.1724	0.3287	0.059
Mof_H 	H 	0.1621	0.1375	0.346	0.019
Mof_C 	C 	0.1	0.1543	0.2751	-0.054
Mof_C 	C 	0.0562	0.2064	0.2471	0.084
Mof_C 	C 	0.0474	0.272	0.2755	-0.111
Mof_C 	C 	0.08192	0.2917	0.3278	0.244
Mof_H 	H 	0.9995	0.3643	0.2223	0.059
Mof_C 	C 	0.0232	0.1885	0.1903	-0.12
Mof_H 	H 	0.9934	0.2189	0.1721	0.09
Mof_C 	C 	0.0347	0.1294	0.164	0.018
Mof_H 	H 	0.0167	0.1267	0.1263	0.026
Mof_C 	C 	0.2111	0.8291	0.11012	-0.23
Mof_C 	C 	0.1874	0.7684	0.1256	0.067
Mof_H 	H 	0.1763	0.7145	0.1068	0.021
Mof_C 	C 	0.17958	0.786	0.16919	-0.07
Mof_C 	C 	0.19817	0.8665	0.1993	0.099
Mof_C 	C 	0.22802	0.9132	0.14105	0.241
Mof_C 	C 	0.22447	0.9283	0.18644	-0.113
Mof_C 	C 	0.24455	0.0171	0.219	-0.047
Mof_H 	H 	0.2571	0.0536	0.2004	0.053
Mof_H 	H 	0.2171	0.0493	0.2174	0.062
Mof_C 	C 	0.1874	0.8815	0.2405	-0.149
Mof_H 	H 	0.1971	0.9348	0.2602	0.108
Mof_C 	C 	0.29512	0.0479	0.41353	0.36
Mof_C 	C 	0.2715	0.0348	0.3146	0.266
Mof_C 	C 	0.3515	0.992	0.386	0.05
Mof_H 	H 	0.373	0.9795	0.4225	0.026
Mof_C 	C 	0.30677	0.0285	0.3728	-0.209
Mof_C 	C 	0.28412	0.0103	0.27764	-0.12
Mof_C 	C 	0.33103	0.9762	0.2933	0.094
Mof_C 	C 	0.36728	0.9721	0.3497	-0.063
Mof_C 	C 	0.3456	0.954	0.2551	-0.138
Mof_H 	H 	0.3229	0.9592	0.2182	0.101
Mof_C 	C 	0.3925	0.925	0.2709	0.035
Mof_H 	H 	0.4006	0.9087	0.2449	0.017
Mof_C 	C 	0.162	0.8161	0.2522	0.041
Mof_H 	H 	0.156	0.8269	0.2805	0.013
Mof_C 	C 	0.4139	0.943	0.3623	0.006
Mof_H 	H 	0.4372	0.9392	0.399	0.032
Mof_C 	C 	0.21977	0.8087	0.06505	0.515
Mof_C 	C 	0.1075	0.0908	0.2428	-0.012
Mof_H 	H 	0.1385	0.0647	0.2586	0.052
Mof_C 	C 	0.0775	0.066	0.1956	-0.078
Mof_H 	H 	0.0811	0.0126	0.181	0.058
Mof_C 	C 	0.16539	0.2607	0.4131	0.476
Mof_C 	C 	0.1452	0.7354	0.2233	-0.107
Mof_H 	H 	0.1281	0.6929	0.2313	0.066
Mof_C 	C 	0.1552	0.7239	0.1841	0.013
Mof_H 	H 	0.1454	0.6703	0.1649	0.031
Mof_C 	C 	0.4288	0.92	0.3277	-0.098
Mof_H 	H 	0.4609	0.9018	0.3396	0.072
Mof_Gd	Gd	0.76751	0.61811	0.48781	1.698
Mof_O 	O 	0.57431	0.8571	0.3558	-0.417
Mof_H 	H 	0.589	0.9027	0.356	0.248
Mof_O 	O 	0.75307	0.4743	0.12819	-0.424
Mof_H 	H 	0.7343	0.5142	0.1093	0.232
Mof_O 	O 	0.72859	0.5704	0.30124	-0.45
Mof_H 	H 	0.7328	0.6196	0.316	0.269
Mof_O 	O 	0.74117	0.3677	0.05091	-0.49
Mof_O 	O 	0.70322	0.2398	0.0409	-0.481
Mof_O 	O 	0.75082	0.5729	0.4011	-0.425
Mof_O 	O 	0.82533	0.5485	0.46461	-0.398
Mof_O 	O 	0.70066	0.7087	0.43746	-0.521
Mof_O 	O 	0.66113	0.8353	0.43457	-0.445
Mof_C 	C 	0.62767	0.7395	0.3577	-0.223
Mof_C 	C 	0.6338	0.6724	0.3287	0.059
Mof_H 	H 	0.6621	0.6375	0.346	0.019
Mof_C 	C 	0.6	0.6543	0.2751	-0.055
Mof_C 	C 	0.5562	0.7064	0.2471	0.084
Mof_C 	C 	0.5474	0.772	0.2755	-0.111
Mof_C 	C 	0.58192	0.7917	0.3278	0.244
Mof_H 	H 	0.4995	0.8643	0.2223	0.061
Mof_C 	C 	0.5232	0.6885	0.1903	-0.123
Mof_H 	H 	0.4934	0.7189	0.1721	0.092
Mof_C 	C 	0.5347	0.6294	0.164	0.019
Mof_H 	H 	0.5167	0.6267	0.1263	0.025
Mof_C 	C 	0.7111	0.3291	0.11012	-0.231
Mof_C 	C 	0.6874	0.2684	0.1256	0.067
Mof_H 	H 	0.6763	0.2145	0.1068	0.021
Mof_C 	C 	0.67958	0.286	0.16919	-0.071
Mof_C 	C 	0.69817	0.3665	0.1993	0.1
Mof_C 	C 	0.72802	0.4132	0.14105	0.242
Mof_C 	C 	0.72447	0.4283	0.18644	-0.113
Mof_C 	C 	0.74455	0.5171	0.219	-0.046
Mof_H 	H 	0.7571	0.5536	0.2004	0.053
Mof_H 	H 	0.7171	0.5493	0.2174	0.062
Mof_C 	C 	0.6874	0.3815	0.2405	-0.149
Mof_H 	H 	0.6971	0.4348	0.2602	0.108
Mof_C 	C 	0.79512	0.5479	0.41353	0.36
Mof_C 	C 	0.7715	0.5348	0.3146	0.266
Mof_C 	C 	0.8515	0.492	0.386	0.049
Mof_H 	H 	0.873	0.4795	0.4225	0.026
Mof_C 	C 	0.80677	0.5285	0.3728	-0.208
Mof_C 	C 	0.78412	0.5103	0.27764	-0.12
Mof_C 	C 	0.83103	0.4762	0.2933	0.093
Mof_C 	C 	0.86728	0.4721	0.3497	-0.063
Mof_C 	C 	0.8456	0.454	0.2551	-0.138
Mof_H 	H 	0.8229	0.4592	0.2182	0.101
Mof_C 	C 	0.8925	0.425	0.2709	0.034
Mof_H 	H 	0.9006	0.4087	0.2449	0.017
Mof_C 	C 	0.662	0.3161	0.2522	0.042
Mof_H 	H 	0.656	0.3269	0.2805	0.012
Mof_C 	C 	0.9139	0.443	0.3623	0.005
Mof_H 	H 	0.9372	0.4392	0.399	0.032
Mof_C 	C 	0.71977	0.3087	0.06505	0.515
Mof_C 	C 	0.6075	0.5908	0.2428	-0.011
Mof_H 	H 	0.6385	0.5647	0.2586	0.051
Mof_C 	C 	0.5775	0.566	0.1956	-0.079
Mof_H 	H 	0.5811	0.5126	0.181	0.059
Mof_C 	C 	0.66539	0.7607	0.4131	0.476
Mof_C 	C 	0.6452	0.2354	0.2233	-0.107
Mof_H 	H 	0.6281	0.1929	0.2313	0.066
Mof_C 	C 	0.6552	0.2239	0.1841	0.013
Mof_H 	H 	0.6454	0.1703	0.1649	0.03
Mof_C 	C 	0.9288	0.42	0.3277	-0.097
Mof_H 	H 	0.9609	0.4018	0.3396	0.071
Mof_Gd	Gd	0.73248	0.11811	0.01219	1.698
Mof_O 	O 	0.92569	0.3571	0.1442	-0.418
Mof_H 	H 	0.911	0.4027	0.144	0.248
Mof_O 	O 	0.74693	0.9743	0.37181	-0.423
Mof_H 	H 	0.7657	0.0142	0.3907	0.231
Mof_O 	O 	0.77141	0.0704	0.19876	-0.45
Mof_H 	H 	0.7672	0.1196	0.184	0.269
Mof_O 	O 	0.75883	0.8677	0.44909	-0.49
Mof_O 	O 	0.79678	0.7398	0.4591	-0.481
Mof_O 	O 	0.74918	0.0729	0.0989	-0.425
Mof_O 	O 	0.67467	0.0485	0.03539	-0.399
Mof_O 	O 	0.79934	0.2087	0.06254	-0.522
Mof_O 	O 	0.83887	0.3353	0.06543	-0.445
Mof_C 	C 	0.87233	0.2395	0.1423	-0.224
Mof_C 	C 	0.8662	0.1724	0.1713	0.061
Mof_H 	H 	0.8379	0.1375	0.154	0.018
Mof_C 	C 	0.9	0.1543	0.2249	-0.057
Mof_C 	C 	0.9438	0.2064	0.2529	0.087
Mof_C 	C 	0.9526	0.272	0.2245	-0.114
Mof_C 	C 	0.91808	0.2917	0.1722	0.245
Mof_H 	H 	0.0005	0.3643	0.2777	0.06
Mof_C 	C 	0.9768	0.1885	0.3097	-0.127
Mof_H 	H 	0.0066	0.2189	0.3279	0.094
Mof_C 	C 	0.9653	0.1294	0.336	0.023
Mof_H 	H 	0.9833	0.1267	0.3737	0.023
Mof_C 	C 	0.7889	0.8291	0.38988	-0.23
Mof_C 	C 	0.8126	0.7684	0.3744	0.067
Mof_H 	H 	0.8237	0.7145	0.3932	0.021
Mof_C 	C 	0.82042	0.786	0.33081	-0.071
Mof_C 	C 	0.80183	0.8665	0.3007	0.1
Mof_C 	C 	0.77198	0.9132	0.35895	0.242
Mof_C 	C 	0.77553	0.9283	0.31356	-0.113
Mof_C 	C 	0.75545	0.0171	0.281	-0.046
Mof_H 	H 	0.7429	0.0536	0.2996	0.053
Mof_H 	H 	0.7829	0.0493	0.2826	0.062
Mof_C 	C 	0.8126	0.8815	0.2595	-0.149
Mof_H 	H 	0.8029	0.9348	0.2398	0.108
Mof_C 	C 	0.70488	0.0479	0.08647	0.36
Mof_C 	C 	0.7285	0.0348	0.1854	0.266
Mof_C 	C 	0.6485	0.992	0.114	0.052
Mof_H 	H 	0.627	0.9795	0.0775	0.026
Mof_C 	C 	0.69323	0.0285	0.1272	-0.21
Mof_C 	C 	0.71588	0.0103	0.22236	-0.121
Mof_C 	C 	0.66897	0.9762	0.2067	0.095
Mof_C 	C 	0.63272	0.9721	0.1503	-0.064
Mof_C 	C 	0.6544	0.954	0.2449	-0.139
Mof_H 	H 	0.6771	0.9592	0.2818	0.101
Mof_C 	C 	0.6075	0.925	0.2291	0.035
Mof_H 	H 	0.5994	0.9087	0.2551	0.017
Mof_C 	C 	0.838	0.8161	0.2478	0.042
Mof_H 	H 	0.844	0.8269	0.2195	0.012
Mof_C 	C 	0.5861	0.943	0.1377	0.006
Mof_H 	H 	0.5628	0.9392	0.101	0.032
Mof_C 	C 	0.78023	0.8087	0.43495	0.515
Mof_C 	C 	0.8925	0.0908	0.2572	-0.008
Mof_H 	H 	0.8615	0.0647	0.2414	0.05
Mof_C 	C 	0.9225	0.066	0.3044	-0.083
Mof_H 	H 	0.9189	0.0126	0.319	0.06
Mof_C 	C 	0.83461	0.2607	0.0869	0.476
Mof_C 	C 	0.8548	0.7354	0.2767	-0.107
Mof_H 	H 	0.8719	0.6929	0.2687	0.066
Mof_C 	C 	0.8448	0.7239	0.3159	0.013
Mof_H 	H 	0.8546	0.6703	0.3351	0.031
Mof_C 	C 	0.5712	0.92	0.1723	-0.098
Mof_H 	H 	0.5391	0.9018	0.1604	0.072
Mof_Gd	Gd	0.23248	0.61811	0.01219	1.7
Mof_O 	O 	0.42569	0.8571	0.1442	-0.417
Mof_H 	H 	0.411	0.9027	0.144	0.248
Mof_O 	O 	0.24693	0.4743	0.37181	-0.424
Mof_H 	H 	0.2657	0.5142	0.3907	0.231
Mof_O 	O 	0.27141	0.5704	0.19876	-0.45
Mof_H 	H 	0.2672	0.6196	0.184	0.269
Mof_O 	O 	0.25883	0.3677	0.44909	-0.49
Mof_O 	O 	0.29678	0.2398	0.4591	-0.481
Mof_O 	O 	0.24918	0.5729	0.0989	-0.425
Mof_O 	O 	0.17467	0.5485	0.03539	-0.398
Mof_O 	O 	0.29934	0.7087	0.06254	-0.521
Mof_O 	O 	0.33887	0.8353	0.06543	-0.444
Mof_C 	C 	0.37233	0.7395	0.1423	-0.222
Mof_C 	C 	0.3662	0.6724	0.1713	0.059
Mof_H 	H 	0.3379	0.6375	0.154	0.019
Mof_C 	C 	0.4	0.6543	0.2249	-0.055
Mof_C 	C 	0.4438	0.7064	0.2529	0.084
Mof_C 	C 	0.4526	0.772	0.2245	-0.111
Mof_C 	C 	0.41808	0.7917	0.1722	0.244
Mof_H 	H 	0.5005	0.8643	0.2777	0.061
Mof_C 	C 	0.4768	0.6885	0.3097	-0.123
Mof_H 	H 	0.5066	0.7189	0.3279	0.092
Mof_C 	C 	0.4653	0.6294	0.336	0.019
Mof_H 	H 	0.4833	0.6267	0.3737	0.025
Mof_C 	C 	0.2889	0.3291	0.38988	-0.231
Mof_C 	C 	0.3126	0.2684	0.3744	0.067
Mof_H 	H 	0.3237	0.2145	0.3932	0.021
Mof_C 	C 	0.32042	0.286	0.33081	-0.071
Mof_C 	C 	0.30183	0.3665	0.3007	0.1
Mof_C 	C 	0.27198	0.4132	0.35895	0.242
Mof_C 	C 	0.27553	0.4283	0.31356	-0.113
Mof_C 	C 	0.25545	0.5171	0.281	-0.046
Mof_H 	H 	0.2429	0.5536	0.2996	0.053
Mof_H 	H 	0.2829	0.5493	0.2826	0.062
Mof_C 	C 	0.3126	0.3815	0.2595	-0.149
Mof_H 	H 	0.3029	0.4348	0.2398	0.108
Mof_C 	C 	0.20488	0.5479	0.08647	0.36
Mof_C 	C 	0.2285	0.5348	0.1854	0.265
Mof_C 	C 	0.1485	0.492	0.114	0.049
Mof_H 	H 	0.127	0.4795	0.0775	0.026
Mof_C 	C 	0.19323	0.5285	0.1272	-0.208
Mof_C 	C 	0.21588	0.5103	0.22236	-0.12
Mof_C 	C 	0.16897	0.4762	0.2067	0.093
Mof_C 	C 	0.13272	0.4721	0.1503	-0.062
Mof_C 	C 	0.1544	0.454	0.2449	-0.138
Mof_H 	H 	0.1771	0.4592	0.2818	0.101
Mof_C 	C 	0.1075	0.425	0.2291	0.034
Mof_H 	H 	0.0994	0.4087	0.2551	0.018
Mof_C 	C 	0.338	0.3161	0.2478	0.042
Mof_H 	H 	0.344	0.3269	0.2195	0.012
Mof_C 	C 	0.0861	0.443	0.1377	0.005
Mof_H 	H 	0.0628	0.4392	0.101	0.032
Mof_C 	C 	0.28023	0.3087	0.43495	0.515
Mof_C 	C 	0.3925	0.5908	0.2572	-0.011
Mof_H 	H 	0.3615	0.5647	0.2414	0.051
Mof_C 	C 	0.4225	0.566	0.3044	-0.079
Mof_H 	H 	0.4189	0.5126	0.319	0.059
Mof_C 	C 	0.33461	0.7607	0.0869	0.476
Mof_C 	C 	0.3548	0.2354	0.2767	-0.107
Mof_H 	H 	0.3719	0.1929	0.2687	0.066
Mof_C 	C 	0.3448	0.2239	0.3159	0.013
Mof_H 	H 	0.3546	0.1703	0.3351	0.031
Mof_C 	C 	0.0712	0.42	0.1723	-0.097
Mof_H 	H 	0.0391	0.4018	0.1604	0.072
Mof_Gd	Gd	0.73248	0.88189	0.51219	1.698
Mof_O 	O 	0.92569	0.6429	0.6442	-0.418
Mof_H 	H 	0.911	0.5973	0.644	0.248
Mof_O 	O 	0.74693	0.0257	0.87181	-0.422
Mof_H 	H 	0.7657	0.9858	0.8907	0.23
Mof_O 	O 	0.77141	0.9296	0.69876	-0.45
Mof_H 	H 	0.7672	0.8804	0.684	0.269
Mof_O 	O 	0.75883	0.1323	0.94909	-0.49
Mof_O 	O 	0.79678	0.2602	0.9591	-0.481
Mof_O 	O 	0.74918	0.9271	0.5989	-0.425
Mof_O 	O 	0.67467	0.9515	0.53539	-0.398
Mof_O 	O 	0.79934	0.7913	0.56254	-0.521
Mof_O 	O 	0.83887	0.6647	0.56543	-0.445
Mof_C 	C 	0.87233	0.7605	0.6423	-0.224
Mof_C 	C 	0.8662	0.8276	0.6713	0.061
Mof_H 	H 	0.8379	0.8625	0.654	0.018
Mof_C 	C 	0.9	0.8457	0.7249	-0.057
Mof_C 	C 	0.9438	0.7936	0.7529	0.087
Mof_C 	C 	0.9526	0.728	0.7245	-0.114
Mof_C 	C 	0.91808	0.7083	0.6722	0.245
Mof_H 	H 	0.0005	0.6357	0.7777	0.06
Mof_C 	C 	0.9768	0.8115	0.8097	-0.128
Mof_H 	H 	0.0066	0.7811	0.8279	0.094
Mof_C 	C 	0.9653	0.8706	0.836	0.023
Mof_H 	H 	0.9833	0.8733	0.8737	0.023
Mof_C 	C 	0.7889	0.1709	0.88988	-0.23
Mof_C 	C 	0.8126	0.2316	0.8744	0.067
Mof_H 	H 	0.8237	0.2855	0.8932	0.021
Mof_C 	C 	0.82042	0.214	0.83081	-0.07
Mof_C 	C 	0.80183	0.1335	0.8007	0.099
Mof_C 	C 	0.77198	0.0868	0.85895	0.241
Mof_C 	C 	0.77553	0.0717	0.81356	-0.113
Mof_C 	C 	0.75545	0.9829	0.781	-0.047
Mof_H 	H 	0.7429	0.9464	0.7996	0.053
Mof_H 	H 	0.7829	0.9507	0.7826	0.062
Mof_C 	C 	0.8126	0.1185	0.7595	-0.149
Mof_H 	H 	0.8029	0.0652	0.7398	0.108
Mof_C 	C 	0.70488	0.9521	0.58647	0.36
Mof_C 	C 	0.7285	0.9652	0.6854	0.266
Mof_C 	C 	0.6485	0.008	0.614	0.05
Mof_H 	H 	0.627	0.0205	0.5775	0.026
Mof_C 	C 	0.69323	0.9715	0.6272	-0.209
Mof_C 	C 	0.71588	0.9897	0.72236	-0.12
Mof_C 	C 	0.66897	0.0238	0.7067	0.094
Mof_C 	C 	0.63272	0.0279	0.6503	-0.063
Mof_C 	C 	0.6544	0.046	0.7449	-0.138
Mof_H 	H 	0.6771	0.0408	0.7818	0.101
Mof_C 	C 	0.6075	0.075	0.7291	0.035
Mof_H 	H 	0.5994	0.0913	0.7551	0.017
Mof_C 	C 	0.838	0.1839	0.7478	0.041
Mof_H 	H 	0.844	0.1731	0.7195	0.012
Mof_C 	C 	0.5861	0.057	0.6377	0.006
Mof_H 	H 	0.5628	0.0608	0.601	0.032
Mof_C 	C 	0.78023	0.1913	0.93495	0.515
Mof_C 	C 	0.8925	0.9092	0.7572	-0.007
Mof_H 	H 	0.8615	0.9353	0.7414	0.05
Mof_C 	C 	0.9225	0.934	0.8044	-0.083
Mof_H 	H 	0.9189	0.9874	0.819	0.06
Mof_C 	C 	0.83461	0.7393	0.5869	0.476
Mof_C 	C 	0.8548	0.2646	0.7767	-0.107
Mof_H 	H 	0.8719	0.3071	0.7687	0.066
Mof_C 	C 	0.8448	0.2761	0.8159	0.013
Mof_H 	H 	0.8546	0.3297	0.8351	0.031
Mof_C 	C 	0.5712	0.08	0.6723	-0.098
Mof_H 	H 	0.5391	0.0982	0.6604	0.072
Mof_Gd	Gd	0.23248	0.38189	0.51219	1.698
Mof_O 	O 	0.42569	0.1429	0.6442	-0.417
Mof_H 	H 	0.411	0.0973	0.644	0.248
Mof_O 	O 	0.24693	0.5257	0.87181	-0.424
Mof_H 	H 	0.2657	0.4858	0.8907	0.232
Mof_O 	O 	0.27141	0.4296	0.69876	-0.45
Mof_H 	H 	0.2672	0.3804	0.684	0.269
Mof_O 	O 	0.25883	0.6323	0.94909	-0.49
Mof_O 	O 	0.29678	0.7602	0.9591	-0.481
Mof_O 	O 	0.24918	0.4271	0.5989	-0.425
Mof_O 	O 	0.17467	0.4515	0.53539	-0.398
Mof_O 	O 	0.29934	0.2913	0.56254	-0.521
Mof_O 	O 	0.33887	0.1647	0.56543	-0.445
Mof_C 	C 	0.37233	0.2605	0.6423	-0.223
Mof_C 	C 	0.3662	0.3276	0.6713	0.059
Mof_H 	H 	0.3379	0.3625	0.654	0.019
Mof_C 	C 	0.4	0.3457	0.7249	-0.055
Mof_C 	C 	0.4438	0.2936	0.7529	0.084
Mof_C 	C 	0.4526	0.228	0.7245	-0.111
Mof_C 	C 	0.41808	0.2083	0.6722	0.244
Mof_H 	H 	0.5005	0.1357	0.7777	0.061
Mof_C 	C 	0.4768	0.3115	0.8097	-0.123
Mof_H 	H 	0.5066	0.2811	0.8279	0.092
Mof_C 	C 	0.4653	0.3706	0.836	0.019
Mof_H 	H 	0.4833	0.3733	0.8737	0.025
Mof_C 	C 	0.2889	0.6709	0.88988	-0.231
Mof_C 	C 	0.3126	0.7316	0.8744	0.067
Mof_H 	H 	0.3237	0.7855	0.8932	0.021
Mof_C 	C 	0.32042	0.714	0.83081	-0.071
Mof_C 	C 	0.30183	0.6335	0.8007	0.1
Mof_C 	C 	0.27198	0.5868	0.85895	0.242
Mof_C 	C 	0.27553	0.5717	0.81356	-0.113
Mof_C 	C 	0.25545	0.4829	0.781	-0.046
Mof_H 	H 	0.2429	0.4464	0.7996	0.053
Mof_H 	H 	0.2829	0.4507	0.7826	0.062
Mof_C 	C 	0.3126	0.6185	0.7595	-0.149
Mof_H 	H 	0.3029	0.5652	0.7398	0.108
Mof_C 	C 	0.20488	0.4521	0.58647	0.36
Mof_C 	C 	0.2285	0.4652	0.6854	0.265
Mof_C 	C 	0.1485	0.508	0.614	0.049
Mof_H 	H 	0.127	0.5205	0.5775	0.026
Mof_C 	C 	0.19323	0.4715	0.6272	-0.208
Mof_C 	C 	0.21588	0.4897	0.72236	-0.12
Mof_C 	C 	0.16897	0.5238	0.7067	0.093
Mof_C 	C 	0.13272	0.5279	0.6503	-0.062
Mof_C 	C 	0.1544	0.546	0.7449	-0.138
Mof_H 	H 	0.1771	0.5408	0.7818	0.101
Mof_C 	C 	0.1075	0.575	0.7291	0.034
Mof_H 	H 	0.0994	0.5913	0.7551	0.018
Mof_C 	C 	0.338	0.6839	0.7478	0.042
Mof_H 	H 	0.344	0.6731	0.7195	0.012
Mof_C 	C 	0.0861	0.557	0.6377	0.005
Mof_H 	H 	0.0628	0.5608	0.601	0.032
Mof_C 	C 	0.28023	0.6913	0.93495	0.515
Mof_C 	C 	0.3925	0.4092	0.7572	-0.011
Mof_H 	H 	0.3615	0.4353	0.7414	0.051
Mof_C 	C 	0.4225	0.434	0.8044	-0.079
Mof_H 	H 	0.4189	0.4874	0.819	0.059
Mof_C 	C 	0.33461	0.2393	0.5869	0.476
Mof_C 	C 	0.3548	0.7646	0.7767	-0.107
Mof_H 	H 	0.3719	0.8071	0.7687	0.066
Mof_C 	C 	0.3448	0.7761	0.8159	0.013
Mof_H 	H 	0.3546	0.8297	0.8351	0.03
Mof_C 	C 	0.0712	0.58	0.6723	-0.097
Mof_H 	H 	0.0391	0.5982	0.6604	0.072
Mof_Gd	Gd	0.26752	0.88189	0.98781	1.698
Mof_O 	O 	0.07431	0.6429	0.8558	-0.417
Mof_H 	H 	0.089	0.5973	0.856	0.248
Mof_O 	O 	0.25307	0.0257	0.62819	-0.423
Mof_H 	H 	0.2343	0.9858	0.6093	0.231
Mof_O 	O 	0.22859	0.9296	0.80124	-0.45
Mof_H 	H 	0.2328	0.8804	0.816	0.269
Mof_O 	O 	0.24117	0.1323	0.55091	-0.49
Mof_O 	O 	0.20322	0.2602	0.5409	-0.481
Mof_O 	O 	0.25082	0.9271	0.9011	-0.425
Mof_O 	O 	0.32533	0.9515	0.96461	-0.399
Mof_O 	O 	0.20066	0.7913	0.93746	-0.521
Mof_O 	O 	0.16113	0.6647	0.93457	-0.445
Mof_C 	C 	0.12767	0.7605	0.8577	-0.222
Mof_C 	C 	0.1338	0.8276	0.8287	0.059
Mof_H 	H 	0.1621	0.8625	0.846	0.019
Mof_C 	C 	0.1	0.8457	0.7751	-0.054
Mof_C 	C 	0.0562	0.7936	0.7471	0.084
Mof_C 	C 	0.0474	0.728	0.7755	-0.111
Mof_C 	C 	0.08192	0.7083	0.8278	0.244
Mof_H 	H 	0.9995	0.6357	0.7223	0.058
Mof_C 	C 	0.0232	0.8115	0.6903	-0.119
Mof_H 	H 	0.9934	0.7811	0.6721	0.09
Mof_C 	C 	0.0347	0.8706	0.664	0.017
Mof_H 	H 	0.0167	0.8733	0.6263	0.026
Mof_C 	C 	0.2111	0.1709	0.61012	-0.23
Mof_C 	C 	0.1874	0.2316	0.6256	0.067
Mof_H 	H 	0.1763	0.2855	0.6068	0.021
Mof_C 	C 	0.17958	0.214	0.66919	-0.071
Mof_C 	C 	0.19817	0.1335	0.6993	0.1
Mof_C 	C 	0.22802	0.0868	0.64105	0.242
Mof_C 	C 	0.22447	0.0717	0.68644	-0.113
Mof_C 	C 	0.24455	0.9829	0.719	-0.046
Mof_H 	H 	0.2571	0.9464	0.7004	0.053
Mof_H 	H 	0.2171	0.9507	0.7174	0.062
Mof_C 	C 	0.1874	0.1185	0.7405	-0.149
Mof_H 	H 	0.1971	0.0652	0.7602	0.108
Mof_C 	C 	0.29512	0.9521	0.91353	0.36
Mof_C 	C 	0.2715	0.9652	0.8146	0.266
Mof_C 	C 	0.3515	0.008	0.886	0.052
Mof_H 	H 	0.373	0.0205	0.9225	0.026
Mof_C 	C 	0.30677	0.9715	0.8728	-0.21
Mof_C 	C 	0.28412	0.9897	0.77764	-0.121
Mof_C 	C 	0.33103	0.0238	0.7933	0.095
Mof_C 	C 	0.36728	0.0279	0.8497	-0.064
Mof_C 	C 	0.3456	0.046	0.7551	-0.139
Mof_H 	H 	0.3229	0.0408	0.7182	0.101
Mof_C 	C 	0.3925	0.075	0.7709	0.035
Mof_H 	H 	0.4006	0.0913	0.7449	0.017
Mof_C 	C 	0.162	0.1839	0.7522	0.042
Mof_H 	H 	0.156	0.1731	0.7805	0.013
Mof_C 	C 	0.4139	0.057	0.8623	0.006
Mof_H 	H 	0.4372	0.0608	0.899	0.032
Mof_C 	C 	0.21977	0.1913	0.56505	0.515
Mof_C 	C 	0.1075	0.9092	0.7428	-0.012
Mof_H 	H 	0.1385	0.9353	0.7586	0.052
Mof_C 	C 	0.0775	0.934	0.6956	-0.078
Mof_H 	H 	0.0811	0.9874	0.681	0.058
Mof_C 	C 	0.16539	0.7393	0.9131	0.476
Mof_C 	C 	0.1452	0.2646	0.7233	-0.107
Mof_H 	H 	0.1281	0.3071	0.7313	0.067
Mof_C 	C 	0.1552	0.2761	0.6841	0.013
Mof_H 	H 	0.1454	0.3297	0.6649	0.031
Mof_C 	C 	0.4288	0.08	0.8277	-0.098
Mof_H 	H 	0.4609	0.0982	0.8396	0.072
Mof_Gd	Gd	0.76751	0.38189	0.98781	1.7
Mof_O 	O 	0.57431	0.1429	0.8558	-0.417
Mof_H 	H 	0.589	0.0973	0.856	0.248
Mof_O 	O 	0.75307	0.5257	0.62819	-0.424
Mof_H 	H 	0.7343	0.4858	0.6093	0.231
Mof_O 	O 	0.72859	0.4296	0.80124	-0.45
Mof_H 	H 	0.7328	0.3804	0.816	0.269
Mof_O 	O 	0.74117	0.6323	0.55091	-0.49
Mof_O 	O 	0.70322	0.7602	0.5409	-0.481
Mof_O 	O 	0.75082	0.4271	0.9011	-0.425
Mof_O 	O 	0.82533	0.4515	0.96461	-0.398
Mof_O 	O 	0.70066	0.2913	0.93746	-0.521
Mof_O 	O 	0.66113	0.1647	0.93457	-0.444
Mof_C 	C 	0.62767	0.2605	0.8577	-0.222
Mof_C 	C 	0.6338	0.3276	0.8287	0.059
Mof_H 	H 	0.6621	0.3625	0.846	0.019
Mof_C 	C 	0.6	0.3457	0.7751	-0.055
Mof_C 	C 	0.5562	0.2936	0.7471	0.084
Mof_C 	C 	0.5474	0.228	0.7755	-0.111
Mof_C 	C 	0.58192	0.2083	0.8278	0.244
Mof_H 	H 	0.4995	0.1357	0.7223	0.061
Mof_C 	C 	0.5232	0.3115	0.6903	-0.123
Mof_H 	H 	0.4934	0.2811	0.6721	0.092
Mof_C 	C 	0.5347	0.3706	0.664	0.019
Mof_H 	H 	0.5167	0.3733	0.6263	0.025
Mof_C 	C 	0.7111	0.6709	0.61012	-0.231
Mof_C 	C 	0.6874	0.7316	0.6256	0.067
Mof_H 	H 	0.6763	0.7855	0.6068	0.021
Mof_C 	C 	0.67958	0.714	0.66919	-0.071
Mof_C 	C 	0.69817	0.6335	0.6993	0.1
Mof_C 	C 	0.72802	0.5868	0.64105	0.242
Mof_C 	C 	0.72447	0.5717	0.68644	-0.113
Mof_C 	C 	0.74455	0.4829	0.719	-0.046
Mof_H 	H 	0.7571	0.4464	0.7004	0.053
Mof_H 	H 	0.7171	0.4507	0.7174	0.062
Mof_C 	C 	0.6874	0.6185	0.7405	-0.149
Mof_H 	H 	0.6971	0.5652	0.7602	0.108
Mof_C 	C 	0.79512	0.4521	0.91353	0.36
Mof_C 	C 	0.7715	0.4652	0.8146	0.265
Mof_C 	C 	0.8515	0.508	0.886	0.049
Mof_H 	H 	0.873	0.5205	0.9225	0.026
Mof_C 	C 	0.80677	0.4715	0.8728	-0.208
Mof_C 	C 	0.78412	0.4897	0.77764	-0.12
Mof_C 	C 	0.83103	0.5238	0.7933	0.093
Mof_C 	C 	0.86728	0.5279	0.8497	-0.062
Mof_C 	C 	0.8456	0.546	0.7551	-0.138
Mof_H 	H 	0.8229	0.5408	0.7182	0.101
Mof_C 	C 	0.8925	0.575	0.7709	0.034
Mof_H 	H 	0.9006	0.5913	0.7449	0.017
Mof_C 	C 	0.662	0.6839	0.7522	0.042
Mof_H 	H 	0.656	0.6731	0.7805	0.012
Mof_C 	C 	0.9139	0.557	0.8623	0.005
Mof_H 	H 	0.9372	0.5608	0.899	0.032
Mof_C 	C 	0.71977	0.6913	0.56505	0.515
Mof_C 	C 	0.6075	0.4092	0.7428	-0.01
Mof_H 	H 	0.6385	0.4353	0.7586	0.051
Mof_C 	C 	0.5775	0.434	0.6956	-0.079
Mof_H 	H 	0.5811	0.4874	0.681	0.059
Mof_C 	C 	0.66539	0.2393	0.9131	0.476
Mof_C 	C 	0.6452	0.7646	0.7233	-0.107
Mof_H 	H 	0.6281	0.8071	0.7313	0.066
Mof_C 	C 	0.6552	0.7761	0.6841	0.013
Mof_H 	H 	0.6454	0.8297	0.6649	0.031
Mof_C 	C 	0.9288	0.58	0.8277	-0.097
Mof_H 	H 	0.9609	0.5982	0.8396	0.071
Mof_C 	C 	1.2736e-33	0.3256	0.25	-0.051
Mof_C 	C 	0.5	0.8256	0.25	-0.055
Mof_C 	C 	3.82079e-33	0.6744	0.75	-0.05
Mof_C 	C 	0.5	0.1744	0.75	-0.055
_end
