data_functionalizedCrystal
_audit_creation_method	'EQeq! by Chris Wilmer'
_symmetry_space_group_name_H-M	'P1'
_symmetry_Int_Tables_number	1
_symmetry_cell_setting	triclinic
loop_
_symmetry_equiv_pos_as_xyz
  x,y,z
_cell_length_a	14.836
_cell_length_b	6.6844
_cell_length_c	4.363
_cell_angle_alpha	90
_cell_angle_beta	93.28
_cell_angle_gamma	90
loop_
_atom_site_label
_atom_site_type_symbol
_atom_site_fract_x
_atom_site_fract_y
_atom_site_fract_z
_atom_site_charge
Mof_O 	O 	0.1588	0.1897	0.7852	-0.412
Mof_H 	H 	0.0343	0.1227	0.228	0.083
Mof_O 	O 	0.6588	0.6897	0.7852	-0.422
Mof_H 	H 	0.5343	0.6227	0.228	0.097
Mof_O 	O 	0.8412	0.1897	0.2148	-0.412
Mof_H 	H 	0.9657	0.1227	0.772	0.083
Mof_O 	O 	0.3412	0.6897	0.2148	-0.422
Mof_H 	H 	0.4657	0.6227	0.772	0.097
Mof_O 	O 	0.8412	0.8103	0.2148	-0.438
Mof_H 	H 	0.9657	0.8773	0.772	0.056
Mof_O 	O 	0.3412	0.3103	0.2148	-0.407
Mof_H 	H 	0.4657	0.3773	0.772	0.105
Mof_O 	O 	0.1588	0.8103	0.7852	-0.438
Mof_H 	H 	0.0343	0.8773	0.228	0.056
Mof_O 	O 	0.6588	0.3103	0.7852	-0.407
Mof_H 	H 	0.5343	0.3773	0.228	0.105
Mof_Cu	Cu	0.25	0.25	0.5	0.904
Mof_Cu	Cu	0.75	0.25	0.5	0.904
Mof_Cu	Cu	0.75	0.75	0.5	0.893
Mof_Cu	Cu	0.25	0.75	0.5	0.893
Mof_P 	P 	0.1493	-7.30479e-33	0.9717	0.447
Mof_O 	O 	0.2174	0	0.2567	-0.466
Mof_C 	C 	0.0387	0	0.1205	-0.159
Mof_P 	P 	0.6493	0.5	0.9717	0.424
Mof_O 	O 	0.7174	0.5	0.2567	-0.484
Mof_C 	C 	0.5387	0.5	0.1205	-0.221
Mof_P 	P 	0.8507	0	0.0283	0.447
Mof_O 	O 	0.7826	-3.6524e-33	0.7433	-0.466
Mof_C 	C 	0.9613	0	0.8795	-0.159
Mof_P 	P 	0.3507	0.5	0.0283	0.424
Mof_O 	O 	0.2826	0.5	0.7433	-0.484
Mof_C 	C 	0.4613	0.5	0.8795	-0.221
_end
