data_functionalizedCrystal
_audit_creation_method	'EQeq! by Chris Wilmer'
_symmetry_space_group_name_H-M	'P1'
_symmetry_Int_Tables_number	1
_symmetry_cell_setting	triclinic
loop_
_symmetry_equiv_pos_as_xyz
  x,y,z
_cell_length_a	13.5953
_cell_length_b	17.0131
_cell_length_c	51.887
_cell_angle_alpha	90
_cell_angle_beta	90
_cell_angle_gamma	90
loop_
_atom_site_label
_atom_site_type_symbol
_atom_site_fract_x
_atom_site_fract_y
_atom_site_fract_z
_atom_site_charge
Mof_Cd	Cd	0.67863	0.48028	0.17145	0.46
Mof_Cd	Cd	0.90476	0.97597	0.16677	0.455
Mof_Cd	Cd	0.63976	0.99715	0.99128	0.453
Mof_Cd	Cd	0.32137	0.01972	0.67145	0.46
Mof_Cd	Cd	0.09524	0.52403	0.66677	0.455
Mof_Cd	Cd	0.36024	0.50285	0.49128	0.453
Mof_Cd	Cd	0.17863	0.51972	0.32855	0.46
Mof_Cd	Cd	0.40476	0.02403	0.33323	0.457
Mof_Cd	Cd	0.13976	0.00285	0.50872	0.453
Mof_Cd	Cd	0.82137	0.98028	0.82855	0.46
Mof_Cd	Cd	0.59524	0.47597	0.83323	0.457
Mof_Cd	Cd	0.86024	0.49715	0.00872	0.453
Mof_Cd	Cd	0.32137	0.51972	0.82855	0.46
Mof_Cd	Cd	0.09524	0.02403	0.83323	0.455
Mof_Cd	Cd	0.36024	0.00285	0.00872	0.453
Mof_Cd	Cd	0.67863	0.98028	0.32855	0.46
Mof_Cd	Cd	0.90476	0.47597	0.33323	0.455
Mof_Cd	Cd	0.63976	0.49715	0.50872	0.453
Mof_Cd	Cd	0.82137	0.48028	0.67145	0.46
Mof_Cd	Cd	0.59524	0.97597	0.66677	0.457
Mof_Cd	Cd	0.86024	0.99715	0.49128	0.453
Mof_Cd	Cd	0.17863	0.01972	0.17145	0.46
Mof_Cd	Cd	0.40476	0.52403	0.16677	0.457
Mof_Cd	Cd	0.13976	0.50285	0.99128	0.453
Mof_H 	H 	0.9139	0.4009	0.1432	0.152
Mof_H 	H 	0.6664	0.0644	0.1301	0.152
Mof_H 	H 	0.8757	0.1062	0.214	0.019
Mof_H 	H 	0.8856	0.2408	0.2212	0.068
Mof_H 	H 	0.905	0.3256	0.1863	0.042
Mof_H 	H 	0.9093	0.5239	0.1233	0.039
Mof_H 	H 	0.8963	0.6397	0.0988	0.067
Mof_H 	H 	0.8903	0.6314	0.0544	0.026
Mof_H 	H 	0.9187	0.4019	0.0567	0.039
Mof_H 	H 	0.9257	0.1599	0.0683	0.048
Mof_H 	H 	0.9227	0.0229	0.0664	0.066
Mof_H 	H 	0.9154	0.9508	0.1047	0.025
Mof_H 	H 	0.6419	0.3325	0.2125	0.028
Mof_H 	H 	0.6385	0.1955	0.2139	0.066
Mof_H 	H 	0.6558	0.1238	0.176	0.047
Mof_H 	H 	0.6648	0.9497	0.1061	0.036
Mof_H 	H 	0.6573	0.8426	0.078	0.068
Mof_H 	H 	0.656	0.8639	0.0338	0.025
Mof_H 	H 	0.6735	0.0926	0.044	0.036
Mof_H 	H 	0.685	0.3329	0.0658	0.051
Mof_H 	H 	0.6767	0.4692	0.0695	0.075
Mof_H 	H 	0.6687	0.5259	0.1103	0.024
Mof_H 	H 	0.5196	0.9298	0.1536	0.04
Mof_H 	H 	0.3931	0.8375	0.1564	0.076
Mof_H 	H 	0.4311	0.7042	0.1581	0.051
Mof_H 	H 	0.7215	0.7566	0.1596	0.047
Mof_H 	H 	0.3727	0.535	0.2549	0.048
Mof_H 	H 	0.5602	0.5101	0.3144	0.047
Mof_H 	H 	0.6919	0.5025	0.2858	0.068
Mof_H 	H 	0.6638	0.5055	0.2414	0.054
Mof_H 	H 	0.0179	0.9443	0.9821	0.046
Mof_H 	H 	0.1459	0.8543	0.9849	0.074
Mof_H 	H 	0.1133	0.7204	0.9899	0.051
Mof_H 	H 	0.8215	0.7672	0.9889	0.05
Mof_H 	H 	0.0861	0.0991	0.6432	0.153
Mof_H 	H 	0.3336	0.4356	0.6301	0.153
Mof_H 	H 	0.1243	0.3938	0.714	0.02
Mof_H 	H 	0.1144	0.2592	0.7212	0.069
Mof_H 	H 	0.095	0.1744	0.6863	0.041
Mof_H 	H 	0.0907	0.9761	0.6233	0.039
Mof_H 	H 	0.1037	0.8603	0.5988	0.067
Mof_H 	H 	0.1097	0.8686	0.5544	0.026
Mof_H 	H 	0.0813	0.0981	0.5567	0.039
Mof_H 	H 	0.0743	0.3401	0.5683	0.049
Mof_H 	H 	0.0773	0.4771	0.5664	0.066
Mof_H 	H 	0.0846	0.5492	0.6047	0.025
Mof_H 	H 	0.3581	0.1675	0.7125	0.028
Mof_H 	H 	0.3615	0.3045	0.7139	0.066
Mof_H 	H 	0.3442	0.3762	0.676	0.046
Mof_H 	H 	0.3352	0.5503	0.6061	0.036
Mof_H 	H 	0.3427	0.6574	0.578	0.068
Mof_H 	H 	0.344	0.6361	0.5338	0.025
Mof_H 	H 	0.3265	0.4074	0.544	0.036
Mof_H 	H 	0.315	0.1671	0.5658	0.051
Mof_H 	H 	0.3233	0.0308	0.5695	0.075
Mof_H 	H 	0.3313	0.9741	0.6103	0.024
Mof_H 	H 	0.4804	0.5702	0.6536	0.04
Mof_H 	H 	0.6069	0.6625	0.6564	0.076
Mof_H 	H 	0.5689	0.7958	0.6581	0.051
Mof_H 	H 	0.2785	0.7434	0.6596	0.047
Mof_H 	H 	0.6273	0.965	0.7549	0.048
Mof_H 	H 	0.4398	0.9899	0.8144	0.047
Mof_H 	H 	0.3081	0.9975	0.7858	0.068
Mof_H 	H 	0.3362	0.9945	0.7414	0.054
Mof_H 	H 	0.9821	0.5557	0.4821	0.046
Mof_H 	H 	0.8541	0.6457	0.4849	0.073
Mof_H 	H 	0.8867	0.7796	0.4899	0.052
Mof_H 	H 	0.1785	0.7328	0.4889	0.05
Mof_H 	H 	0.4139	0.5991	0.3568	0.154
Mof_H 	H 	0.1664	0.9356	0.3699	0.153
Mof_H 	H 	0.3757	0.8938	0.286	0.02
Mof_H 	H 	0.3856	0.7592	0.2788	0.07
Mof_H 	H 	0.405	0.6744	0.3137	0.042
Mof_H 	H 	0.4093	0.4761	0.3767	0.04
Mof_H 	H 	0.3963	0.3603	0.4012	0.067
Mof_H 	H 	0.3903	0.3686	0.4456	0.026
Mof_H 	H 	0.4187	0.5981	0.4433	0.039
Mof_H 	H 	0.4257	0.8401	0.4317	0.049
Mof_H 	H 	0.4227	0.9771	0.4336	0.066
Mof_H 	H 	0.4154	0.0492	0.3953	0.025
Mof_H 	H 	0.1419	0.6675	0.2875	0.029
Mof_H 	H 	0.1385	0.8045	0.2861	0.067
Mof_H 	H 	0.1558	0.8762	0.324	0.047
Mof_H 	H 	0.1648	0.0503	0.3939	0.037
Mof_H 	H 	0.1573	0.1574	0.422	0.069
Mof_H 	H 	0.156	0.1361	0.4662	0.025
Mof_H 	H 	0.1735	0.9074	0.456	0.036
Mof_H 	H 	0.185	0.6671	0.4342	0.051
Mof_H 	H 	0.1767	0.5308	0.4305	0.075
Mof_H 	H 	0.1687	0.4741	0.3897	0.024
Mof_H 	H 	0.0196	0.0702	0.3464	0.039
Mof_H 	H 	0.8931	0.1625	0.3436	0.077
Mof_H 	H 	0.9311	0.2958	0.3419	0.052
Mof_H 	H 	0.2215	0.2434	0.3404	0.047
Mof_H 	H 	0.8727	0.465	0.2451	0.052
Mof_H 	H 	0.0602	0.4899	0.1856	0.047
Mof_H 	H 	0.1919	0.4975	0.2142	0.067
Mof_H 	H 	0.1638	0.4945	0.2586	0.057
Mof_H 	H 	0.5179	0.0557	0.5179	0.046
Mof_H 	H 	0.6459	0.1457	0.5151	0.074
Mof_H 	H 	0.6133	0.2796	0.5101	0.051
Mof_H 	H 	0.3215	0.2328	0.5111	0.05
Mof_H 	H 	0.5861	0.9009	0.8568	0.154
Mof_H 	H 	0.8336	0.5644	0.8699	0.153
Mof_H 	H 	0.6243	0.6062	0.786	0.02
Mof_H 	H 	0.6144	0.7408	0.7788	0.07
Mof_H 	H 	0.595	0.8256	0.8137	0.042
Mof_H 	H 	0.5907	0.0239	0.8767	0.04
Mof_H 	H 	0.6037	0.1397	0.9012	0.068
Mof_H 	H 	0.6097	0.1314	0.9456	0.026
Mof_H 	H 	0.5813	0.9019	0.9433	0.039
Mof_H 	H 	0.5743	0.6599	0.9317	0.049
Mof_H 	H 	0.5773	0.5229	0.9336	0.066
Mof_H 	H 	0.5846	0.4508	0.8953	0.026
Mof_H 	H 	0.8581	0.8325	0.7875	0.029
Mof_H 	H 	0.8615	0.6955	0.7861	0.067
Mof_H 	H 	0.8442	0.6238	0.824	0.047
Mof_H 	H 	0.8352	0.4497	0.8939	0.036
Mof_H 	H 	0.8427	0.3426	0.922	0.069
Mof_H 	H 	0.844	0.3639	0.9662	0.025
Mof_H 	H 	0.8265	0.5926	0.956	0.036
Mof_H 	H 	0.815	0.8329	0.9342	0.051
Mof_H 	H 	0.8233	0.9692	0.9305	0.075
Mof_H 	H 	0.8313	0.0259	0.8897	0.025
Mof_H 	H 	0.9804	0.4298	0.8464	0.039
Mof_H 	H 	0.1069	0.3375	0.8436	0.077
Mof_H 	H 	0.0689	0.2042	0.8419	0.052
Mof_H 	H 	0.7785	0.2566	0.8404	0.047
Mof_H 	H 	0.1273	0.035	0.7451	0.052
Mof_H 	H 	0.9398	0.0101	0.6856	0.047
Mof_H 	H 	0.8081	0.0025	0.7142	0.067
Mof_H 	H 	0.8362	0.0055	0.7586	0.057
Mof_H 	H 	0.4821	0.4443	0.0179	0.045
Mof_H 	H 	0.3541	0.3543	0.0151	0.074
Mof_H 	H 	0.3867	0.2204	0.0101	0.051
Mof_H 	H 	0.6785	0.2672	0.0111	0.05
Mof_H 	H 	0.0861	0.5991	0.8568	0.153
Mof_H 	H 	0.3336	0.9356	0.8699	0.153
Mof_H 	H 	0.1243	0.8938	0.786	0.02
Mof_H 	H 	0.1144	0.7592	0.7788	0.069
Mof_H 	H 	0.095	0.6744	0.8137	0.042
Mof_H 	H 	0.0907	0.4761	0.8767	0.039
Mof_H 	H 	0.1037	0.3603	0.9012	0.067
Mof_H 	H 	0.1097	0.3686	0.9456	0.026
Mof_H 	H 	0.0813	0.5981	0.9433	0.039
Mof_H 	H 	0.0743	0.8401	0.9317	0.048
Mof_H 	H 	0.0773	0.9771	0.9336	0.066
Mof_H 	H 	0.0846	0.0492	0.8953	0.025
Mof_H 	H 	0.3581	0.6675	0.7875	0.028
Mof_H 	H 	0.3615	0.8045	0.7861	0.066
Mof_H 	H 	0.3442	0.8762	0.824	0.047
Mof_H 	H 	0.3352	0.0503	0.8939	0.036
Mof_H 	H 	0.3427	0.1574	0.922	0.068
Mof_H 	H 	0.344	0.1361	0.9662	0.025
Mof_H 	H 	0.3265	0.9074	0.956	0.036
Mof_H 	H 	0.315	0.6671	0.9342	0.051
Mof_H 	H 	0.3233	0.5308	0.9305	0.075
Mof_H 	H 	0.3313	0.4741	0.8897	0.024
Mof_H 	H 	0.4804	0.0702	0.8464	0.04
Mof_H 	H 	0.6069	0.1625	0.8436	0.076
Mof_H 	H 	0.5689	0.2958	0.8419	0.051
Mof_H 	H 	0.2785	0.2434	0.8404	0.047
Mof_H 	H 	0.6273	0.465	0.7451	0.048
Mof_H 	H 	0.4398	0.4899	0.6856	0.047
Mof_H 	H 	0.3081	0.4975	0.7142	0.068
Mof_H 	H 	0.3362	0.4945	0.7586	0.054
Mof_H 	H 	0.9821	0.0557	0.0179	0.046
Mof_H 	H 	0.8541	0.1457	0.0151	0.074
Mof_H 	H 	0.8867	0.2796	0.0101	0.051
Mof_H 	H 	0.1785	0.2328	0.0111	0.05
Mof_H 	H 	0.9139	0.9009	0.3568	0.153
Mof_H 	H 	0.6664	0.5644	0.3699	0.153
Mof_H 	H 	0.8757	0.6062	0.286	0.02
Mof_H 	H 	0.8856	0.7408	0.2788	0.069
Mof_H 	H 	0.905	0.8256	0.3137	0.041
Mof_H 	H 	0.9093	0.0239	0.3767	0.039
Mof_H 	H 	0.8963	0.1397	0.4012	0.067
Mof_H 	H 	0.8903	0.1314	0.4456	0.026
Mof_H 	H 	0.9187	0.9019	0.4433	0.039
Mof_H 	H 	0.9257	0.6599	0.4317	0.049
Mof_H 	H 	0.9227	0.5229	0.4336	0.066
Mof_H 	H 	0.9154	0.4508	0.3953	0.025
Mof_H 	H 	0.6419	0.8325	0.2875	0.028
Mof_H 	H 	0.6385	0.6955	0.2861	0.066
Mof_H 	H 	0.6558	0.6238	0.324	0.046
Mof_H 	H 	0.6648	0.4497	0.3939	0.036
Mof_H 	H 	0.6573	0.3426	0.422	0.068
Mof_H 	H 	0.656	0.3639	0.4662	0.025
Mof_H 	H 	0.6735	0.5926	0.456	0.036
Mof_H 	H 	0.685	0.8329	0.4342	0.051
Mof_H 	H 	0.6767	0.9692	0.4305	0.075
Mof_H 	H 	0.6687	0.0259	0.3897	0.024
Mof_H 	H 	0.5196	0.4298	0.3464	0.04
Mof_H 	H 	0.3931	0.3375	0.3436	0.076
Mof_H 	H 	0.4311	0.2042	0.3419	0.051
Mof_H 	H 	0.7215	0.2566	0.3404	0.047
Mof_H 	H 	0.3727	0.035	0.2451	0.048
Mof_H 	H 	0.5602	0.0101	0.1856	0.047
Mof_H 	H 	0.6919	0.0025	0.2142	0.068
Mof_H 	H 	0.6638	0.0055	0.2586	0.054
Mof_H 	H 	0.0179	0.4443	0.5179	0.046
Mof_H 	H 	0.1459	0.3543	0.5151	0.073
Mof_H 	H 	0.1133	0.2204	0.5101	0.052
Mof_H 	H 	0.8215	0.2672	0.5111	0.05
Mof_H 	H 	0.5861	0.4009	0.6432	0.154
Mof_H 	H 	0.8336	0.0644	0.6301	0.153
Mof_H 	H 	0.6243	0.1062	0.714	0.02
Mof_H 	H 	0.6144	0.2408	0.7212	0.07
Mof_H 	H 	0.595	0.3256	0.6863	0.042
Mof_H 	H 	0.5907	0.5239	0.6233	0.04
Mof_H 	H 	0.6037	0.6397	0.5988	0.067
Mof_H 	H 	0.6097	0.6314	0.5544	0.026
Mof_H 	H 	0.5813	0.4019	0.5567	0.039
Mof_H 	H 	0.5743	0.1599	0.5683	0.049
Mof_H 	H 	0.5773	0.0229	0.5664	0.066
Mof_H 	H 	0.5846	0.9508	0.6047	0.025
Mof_H 	H 	0.8581	0.3325	0.7125	0.029
Mof_H 	H 	0.8615	0.1955	0.7139	0.067
Mof_H 	H 	0.8442	0.1238	0.676	0.047
Mof_H 	H 	0.8352	0.9497	0.6061	0.037
Mof_H 	H 	0.8427	0.8426	0.578	0.069
Mof_H 	H 	0.844	0.8639	0.5338	0.025
Mof_H 	H 	0.8265	0.0926	0.544	0.036
Mof_H 	H 	0.815	0.3329	0.5658	0.051
Mof_H 	H 	0.8233	0.4692	0.5695	0.075
Mof_H 	H 	0.8313	0.5259	0.6103	0.024
Mof_H 	H 	0.9804	0.9298	0.6536	0.039
Mof_H 	H 	0.1069	0.8375	0.6564	0.077
Mof_H 	H 	0.0689	0.7042	0.6581	0.052
Mof_H 	H 	0.7785	0.7566	0.6596	0.047
Mof_H 	H 	0.1273	0.535	0.7549	0.052
Mof_H 	H 	0.9398	0.5101	0.8144	0.047
Mof_H 	H 	0.8081	0.5025	0.7858	0.067
Mof_H 	H 	0.8362	0.5055	0.7414	0.057
Mof_H 	H 	0.4821	0.9443	0.4821	0.046
Mof_H 	H 	0.3541	0.8543	0.4849	0.074
Mof_H 	H 	0.3867	0.7204	0.4899	0.051
Mof_H 	H 	0.6785	0.7672	0.4889	0.05
Mof_H 	H 	0.4139	0.0991	0.1432	0.154
Mof_H 	H 	0.1664	0.4356	0.1301	0.153
Mof_H 	H 	0.3757	0.3938	0.214	0.02
Mof_H 	H 	0.3856	0.2592	0.2212	0.07
Mof_H 	H 	0.405	0.1744	0.1863	0.042
Mof_H 	H 	0.4093	0.9761	0.1233	0.04
Mof_H 	H 	0.3963	0.8603	0.0988	0.068
Mof_H 	H 	0.3903	0.8686	0.0544	0.026
Mof_H 	H 	0.4187	0.0981	0.0567	0.039
Mof_H 	H 	0.4257	0.3401	0.0683	0.049
Mof_H 	H 	0.4227	0.4771	0.0664	0.066
Mof_H 	H 	0.4154	0.5492	0.1047	0.026
Mof_H 	H 	0.1419	0.1675	0.2125	0.029
Mof_H 	H 	0.1385	0.3045	0.2139	0.067
Mof_H 	H 	0.1558	0.3762	0.176	0.047
Mof_H 	H 	0.1648	0.5503	0.1061	0.036
Mof_H 	H 	0.1573	0.6574	0.078	0.069
Mof_H 	H 	0.156	0.6361	0.0338	0.025
Mof_H 	H 	0.1735	0.4074	0.044	0.036
Mof_H 	H 	0.185	0.1671	0.0658	0.051
Mof_H 	H 	0.1767	0.0308	0.0695	0.075
Mof_H 	H 	0.1687	0.9741	0.1103	0.025
Mof_H 	H 	0.0196	0.5702	0.1536	0.039
Mof_H 	H 	0.8931	0.6625	0.1564	0.077
Mof_H 	H 	0.9311	0.7958	0.1581	0.052
Mof_H 	H 	0.2215	0.7434	0.1596	0.047
Mof_H 	H 	0.8727	0.965	0.2549	0.052
Mof_H 	H 	0.0602	0.9899	0.3144	0.047
Mof_H 	H 	0.1919	0.9975	0.2858	0.067
Mof_H 	H 	0.1638	0.9945	0.2414	0.057
Mof_H 	H 	0.5179	0.5557	0.9821	0.045
Mof_H 	H 	0.6459	0.6457	0.9849	0.074
Mof_H 	H 	0.6133	0.7796	0.9899	0.051
Mof_H 	H 	0.3215	0.7328	0.9889	0.05
Mof_C 	C 	0.8847	0.1403	0.19973	0.062
Mof_C 	C 	0.8897	0.2207	0.20418	-0.094
Mof_C 	C 	0.9007	0.2705	0.18361	0.003
Mof_C 	C 	0.9057	0.2394	0.15853	-0.038
Mof_C 	C 	0.9144	0.2839	0.13531	0.065
Mof_C 	C 	0.9197	0.374	0.10515	0.144
Mof_C 	C 	0.9157	0.4504	0.09231	-0.057
Mof_C 	C 	0.9084	0.5218	0.10503	0.006
Mof_C 	C 	0.8999	0.5899	0.09061	-0.096
Mof_C 	C 	0.8966	0.5844	0.06416	0.059
Mof_C 	C 	0.9127	0.4507	0.06546	0.046
Mof_C 	C 	0.9191	0.2503	0.11122	0.038
Mof_C 	C 	0.917	0.167	0.10779	-0.018
Mof_C 	C 	0.9217	0.1297	0.08368	-0.008
Mof_C 	C 	0.9203	0.0492	0.08251	-0.085
Mof_C 	C 	0.9153	0.0066	0.10546	0.059
Mof_C 	C 	0.9103	0.1202	0.13007	0.047
Mof_C 	C 	0.9033	0.1568	0.1557	0.053
Mof_C 	C 	0.6475	0.3038	0.19687	0.058
Mof_C 	C 	0.6459	0.2218	0.19785	-0.087
Mof_C 	C 	0.655	0.1797	0.17555	-0.003
Mof_C 	C 	0.6634	0.2197	0.15198	-0.035
Mof_C 	C 	0.6696	0.1836	0.12713	0.066
Mof_C 	C 	0.673	0.1054	0.0935	0.145
Mof_C 	C 	0.67	0.0334	0.07779	-0.059
Mof_C 	C 	0.6649	0.9577	0.08802	0.012
Mof_C 	C 	0.66	0.8947	0.0714	-0.097
Mof_C 	C 	0.659	0.9077	0.04515	0.063
Mof_C 	C 	0.669	0.0413	0.05118	0.047
Mof_C 	C 	0.6745	0.2262	0.10438	0.041
Mof_C 	C 	0.6751	0.3102	0.10462	-0.02
Mof_C 	C 	0.6795	0.3568	0.08227	-0.005
Mof_C 	C 	0.6759	0.4369	0.08447	-0.087
Mof_C 	C 	0.6712	0.4703	0.10894	0.06
Mof_C 	C 	0.6701	0.3486	0.12869	0.048
Mof_C 	C 	0.6635	0.3027	0.15241	0.05
Mof_C 	C 	0.6323	0.8518	0.15632	-0.092
Mof_C 	C 	0.5349	0.8755	0.15524	0.02
Mof_C 	C 	0.4598	0.8209	0.15649	-0.083
Mof_C 	C 	0.4826	0.742	0.15788	0.019
Mof_C 	C 	0.5802	0.7169	0.15889	-0.09
Mof_C 	C 	0.6548	0.7728	0.15844	0.031
Mof_C 	C 	0.7143	0.9103	0.15588	0.303
Mof_C 	C 	0.6066	0.6319	0.15977	0.314
Mof_C 	C 	0.5155	0.5219	0.24411	-0.082
Mof_C 	C 	0.4376	0.5273	0.26122	0.022
Mof_C 	C 	0.4537	0.5215	0.28744	-0.083
Mof_C 	C 	0.5484	0.5128	0.29638	0.01
Mof_C 	C 	0.6268	0.5079	0.27942	-0.072
Mof_C 	C 	0.6105	0.5109	0.25315	0.009
Mof_C 	C 	0.495	0.5242	0.21575	0.31
Mof_C 	C 	0.3664	0.523	0.3056	0.305
Mof_C 	C 	0.9065	0.8649	0.98507	-0.081
Mof_C 	C 	0.0037	0.89	0.98402	0.013
Mof_C 	C 	0.0797	0.8365	0.9858	-0.073
Mof_C 	C 	0.0605	0.7569	0.98892	0.011
Mof_C 	C 	0.9641	0.7306	0.99063	-0.082
Mof_C 	C 	0.8877	0.785	0.98831	0.02
Mof_C 	C 	0.8208	0.9216	0.98363	0.296
Mof_C 	C 	0.9403	0.6466	0.99607	0.302
Mof_C 	C 	0.1153	0.3597	0.69973	0.062
Mof_C 	C 	0.1103	0.2793	0.70418	-0.094
Mof_C 	C 	0.0993	0.2295	0.68361	0.003
Mof_C 	C 	0.0943	0.2606	0.65853	-0.038
Mof_C 	C 	0.0856	0.2161	0.63531	0.065
Mof_C 	C 	0.0803	0.126	0.60515	0.144
Mof_C 	C 	0.0843	0.0496	0.59231	-0.058
Mof_C 	C 	0.0916	0.9782	0.60503	0.007
Mof_C 	C 	0.1001	0.9101	0.59061	-0.097
Mof_C 	C 	0.1034	0.9156	0.56416	0.06
Mof_C 	C 	0.0873	0.0493	0.56546	0.046
Mof_C 	C 	0.0809	0.2497	0.61122	0.038
Mof_C 	C 	0.083	0.333	0.60779	-0.018
Mof_C 	C 	0.0783	0.3703	0.58368	-0.008
Mof_C 	C 	0.0797	0.4508	0.58251	-0.085
Mof_C 	C 	0.0847	0.4934	0.60546	0.058
Mof_C 	C 	0.0897	0.3798	0.63007	0.047
Mof_C 	C 	0.0967	0.3432	0.6557	0.053
Mof_C 	C 	0.3525	0.1962	0.69687	0.058
Mof_C 	C 	0.3541	0.2782	0.69785	-0.087
Mof_C 	C 	0.345	0.3203	0.67555	-0.003
Mof_C 	C 	0.3366	0.2803	0.65198	-0.035
Mof_C 	C 	0.3304	0.3164	0.62713	0.066
Mof_C 	C 	0.327	0.3946	0.5935	0.145
Mof_C 	C 	0.33	0.4666	0.57779	-0.059
Mof_C 	C 	0.3351	0.5423	0.58802	0.012
Mof_C 	C 	0.34	0.6053	0.5714	-0.097
Mof_C 	C 	0.341	0.5923	0.54515	0.064
Mof_C 	C 	0.331	0.4587	0.55118	0.047
Mof_C 	C 	0.3255	0.2738	0.60438	0.041
Mof_C 	C 	0.3249	0.1898	0.60462	-0.02
Mof_C 	C 	0.3205	0.1432	0.58227	-0.005
Mof_C 	C 	0.3241	0.0631	0.58447	-0.087
Mof_C 	C 	0.3288	0.0297	0.60894	0.06
Mof_C 	C 	0.3299	0.1514	0.62869	0.048
Mof_C 	C 	0.3365	0.1973	0.65241	0.05
Mof_C 	C 	0.3677	0.6482	0.65632	-0.092
Mof_C 	C 	0.4651	0.6245	0.65524	0.02
Mof_C 	C 	0.5402	0.6791	0.65649	-0.083
Mof_C 	C 	0.5174	0.758	0.65788	0.019
Mof_C 	C 	0.4198	0.7831	0.65889	-0.09
Mof_C 	C 	0.3452	0.7272	0.65844	0.031
Mof_C 	C 	0.2857	0.5897	0.65588	0.303
Mof_C 	C 	0.3934	0.8681	0.65977	0.314
Mof_C 	C 	0.4845	0.9781	0.74411	-0.082
Mof_C 	C 	0.5624	0.9727	0.76122	0.022
Mof_C 	C 	0.5463	0.9785	0.78744	-0.083
Mof_C 	C 	0.4516	0.9872	0.79638	0.01
Mof_C 	C 	0.3732	0.9921	0.77942	-0.072
Mof_C 	C 	0.3895	0.9891	0.75315	0.009
Mof_C 	C 	0.505	0.9758	0.71575	0.31
Mof_C 	C 	0.6336	0.977	0.8056	0.305
Mof_C 	C 	0.0935	0.6351	0.48507	-0.079
Mof_C 	C 	0.9963	0.61	0.48402	0.011
Mof_C 	C 	0.9203	0.6635	0.4858	-0.071
Mof_C 	C 	0.9395	0.7431	0.48892	0.009
Mof_C 	C 	0.0359	0.7694	0.49063	-0.081
Mof_C 	C 	0.1123	0.715	0.48831	0.02
Mof_C 	C 	0.1792	0.5784	0.48363	0.296
Mof_C 	C 	0.0597	0.8534	0.49607	0.302
Mof_C 	C 	0.3847	0.8597	0.30027	0.063
Mof_C 	C 	0.3897	0.7793	0.29582	-0.094
Mof_C 	C 	0.4007	0.7295	0.31639	0.004
Mof_C 	C 	0.4057	0.7606	0.34147	-0.038
Mof_C 	C 	0.4144	0.7161	0.36469	0.066
Mof_C 	C 	0.4197	0.626	0.39485	0.145
Mof_C 	C 	0.4157	0.5496	0.40769	-0.057
Mof_C 	C 	0.4084	0.4782	0.39497	0.007
Mof_C 	C 	0.3999	0.4101	0.40939	-0.096
Mof_C 	C 	0.3966	0.4156	0.43584	0.06
Mof_C 	C 	0.4127	0.5493	0.43454	0.046
Mof_C 	C 	0.4191	0.7497	0.38878	0.039
Mof_C 	C 	0.417	0.833	0.39221	-0.018
Mof_C 	C 	0.4217	0.8703	0.41632	-0.007
Mof_C 	C 	0.4203	0.9508	0.41749	-0.085
Mof_C 	C 	0.4153	0.9934	0.39454	0.059
Mof_C 	C 	0.4103	0.8798	0.36993	0.047
Mof_C 	C 	0.4033	0.8432	0.3443	0.054
Mof_C 	C 	0.1475	0.6962	0.30313	0.059
Mof_C 	C 	0.1459	0.7782	0.30215	-0.087
Mof_C 	C 	0.155	0.8203	0.32445	-0.002
Mof_C 	C 	0.1634	0.7803	0.34802	-0.034
Mof_C 	C 	0.1696	0.8164	0.37287	0.067
Mof_C 	C 	0.173	0.8946	0.4065	0.145
Mof_C 	C 	0.17	0.9666	0.42221	-0.059
Mof_C 	C 	0.1649	0.0423	0.41198	0.012
Mof_C 	C 	0.16	0.1053	0.4286	-0.097
Mof_C 	C 	0.159	0.0923	0.45485	0.064
Mof_C 	C 	0.169	0.9587	0.44882	0.048
Mof_C 	C 	0.1745	0.7738	0.39562	0.042
Mof_C 	C 	0.1751	0.6898	0.39538	-0.019
Mof_C 	C 	0.1795	0.6432	0.41773	-0.005
Mof_C 	C 	0.1759	0.5631	0.41553	-0.087
Mof_C 	C 	0.1712	0.5297	0.39106	0.061
Mof_C 	C 	0.1701	0.6514	0.37131	0.048
Mof_C 	C 	0.1635	0.6973	0.34759	0.051
Mof_C 	C 	0.1323	0.1482	0.34368	-0.093
Mof_C 	C 	0.0349	0.1245	0.34476	0.026
Mof_C 	C 	0.9598	0.1791	0.34351	-0.087
Mof_C 	C 	0.9826	0.258	0.34212	0.015
Mof_C 	C 	0.0802	0.2831	0.34111	-0.085
Mof_C 	C 	0.1548	0.2272	0.34156	0.031
Mof_C 	C 	0.2143	0.0897	0.34412	0.303
Mof_C 	C 	0.1066	0.3681	0.34023	0.312
Mof_C 	C 	0.0155	0.4781	0.25589	-0.066
Mof_C 	C 	0.9376	0.4727	0.23878	0.011
Mof_C 	C 	0.9537	0.4785	0.21256	-0.085
Mof_C 	C 	0.0484	0.4872	0.20362	0.014
Mof_C 	C 	0.1268	0.4921	0.22058	-0.069
Mof_C 	C 	0.1105	0.4891	0.24685	0.002
Mof_C 	C 	0.995	0.4758	0.28425	0.295
Mof_C 	C 	0.8664	0.477	0.1944	0.305
Mof_C 	C 	0.4065	0.1351	0.51493	-0.081
Mof_C 	C 	0.5037	0.11	0.51598	0.013
Mof_C 	C 	0.5797	0.1635	0.5142	-0.073
Mof_C 	C 	0.5605	0.2431	0.51108	0.011
Mof_C 	C 	0.4641	0.2694	0.50937	-0.083
Mof_C 	C 	0.3877	0.215	0.51169	0.021
Mof_C 	C 	0.3208	0.0784	0.51637	0.296
Mof_C 	C 	0.4403	0.3534	0.50393	0.302
Mof_C 	C 	0.6153	0.6403	0.80027	0.063
Mof_C 	C 	0.6103	0.7207	0.79582	-0.094
Mof_C 	C 	0.5993	0.7705	0.81639	0.004
Mof_C 	C 	0.5943	0.7394	0.84147	-0.038
Mof_C 	C 	0.5856	0.7839	0.86469	0.066
Mof_C 	C 	0.5803	0.874	0.89485	0.145
Mof_C 	C 	0.5843	0.9504	0.90769	-0.057
Mof_C 	C 	0.5916	0.0218	0.89497	0.007
Mof_C 	C 	0.6001	0.0899	0.90939	-0.096
Mof_C 	C 	0.6034	0.0844	0.93584	0.06
Mof_C 	C 	0.5873	0.9507	0.93454	0.046
Mof_C 	C 	0.5809	0.7503	0.88878	0.039
Mof_C 	C 	0.583	0.667	0.89221	-0.018
Mof_C 	C 	0.5783	0.6297	0.91632	-0.008
Mof_C 	C 	0.5797	0.5492	0.91749	-0.084
Mof_C 	C 	0.5847	0.5066	0.89454	0.059
Mof_C 	C 	0.5897	0.6202	0.86993	0.047
Mof_C 	C 	0.5967	0.6568	0.8443	0.054
Mof_C 	C 	0.8525	0.8038	0.80313	0.059
Mof_C 	C 	0.8541	0.7218	0.80215	-0.087
Mof_C 	C 	0.845	0.6797	0.82445	-0.002
Mof_C 	C 	0.8366	0.7197	0.84802	-0.034
Mof_C 	C 	0.8304	0.6836	0.87287	0.067
Mof_C 	C 	0.827	0.6054	0.9065	0.145
Mof_C 	C 	0.83	0.5334	0.92221	-0.059
Mof_C 	C 	0.8351	0.4577	0.91198	0.013
Mof_C 	C 	0.84	0.3947	0.9286	-0.097
Mof_C 	C 	0.841	0.4077	0.95485	0.064
Mof_C 	C 	0.831	0.5413	0.94882	0.048
Mof_C 	C 	0.8255	0.7262	0.89562	0.041
Mof_C 	C 	0.8249	0.8102	0.89538	-0.019
Mof_C 	C 	0.8205	0.8568	0.91773	-0.005
Mof_C 	C 	0.8241	0.9369	0.91553	-0.086
Mof_C 	C 	0.8288	0.9703	0.89106	0.06
Mof_C 	C 	0.8299	0.8486	0.87131	0.048
Mof_C 	C 	0.8365	0.8027	0.84759	0.05
Mof_C 	C 	0.8677	0.3518	0.84368	-0.093
Mof_C 	C 	0.9651	0.3755	0.84476	0.027
Mof_C 	C 	0.0402	0.3209	0.84351	-0.088
Mof_C 	C 	0.0174	0.242	0.84212	0.014
Mof_C 	C 	0.9198	0.2169	0.84111	-0.085
Mof_C 	C 	0.8452	0.2728	0.84156	0.031
Mof_C 	C 	0.7857	0.4103	0.84412	0.303
Mof_C 	C 	0.8934	0.1319	0.84023	0.312
Mof_C 	C 	0.9845	0.0219	0.75589	-0.065
Mof_C 	C 	0.0624	0.0273	0.73878	0.01
Mof_C 	C 	0.0463	0.0215	0.71256	-0.085
Mof_C 	C 	0.9516	0.0128	0.70362	0.014
Mof_C 	C 	0.8732	0.0079	0.72058	-0.069
Mof_C 	C 	0.8895	0.0109	0.74685	0.001
Mof_C 	C 	0.005	0.0242	0.78425	0.294
Mof_C 	C 	0.1336	0.023	0.6944	0.305
Mof_C 	C 	0.5935	0.3649	0.01493	-0.081
Mof_C 	C 	0.4963	0.39	0.01598	0.013
Mof_C 	C 	0.4203	0.3365	0.0142	-0.073
Mof_C 	C 	0.4395	0.2569	0.01108	0.011
Mof_C 	C 	0.5359	0.2306	0.00937	-0.083
Mof_C 	C 	0.6123	0.285	0.01169	0.021
Mof_C 	C 	0.6792	0.4216	0.01637	0.296
Mof_C 	C 	0.5597	0.1466	0.00393	0.302
Mof_C 	C 	0.1153	0.8597	0.80027	0.062
Mof_C 	C 	0.1103	0.7793	0.79582	-0.094
Mof_C 	C 	0.0993	0.7295	0.81639	0.003
Mof_C 	C 	0.0943	0.7606	0.84147	-0.038
Mof_C 	C 	0.0856	0.7161	0.86469	0.065
Mof_C 	C 	0.0803	0.626	0.89485	0.144
Mof_C 	C 	0.0843	0.5496	0.90769	-0.057
Mof_C 	C 	0.0916	0.4782	0.89497	0.006
Mof_C 	C 	0.1001	0.4101	0.90939	-0.096
Mof_C 	C 	0.1034	0.4156	0.93584	0.059
Mof_C 	C 	0.0873	0.5493	0.93454	0.046
Mof_C 	C 	0.0809	0.7497	0.88878	0.038
Mof_C 	C 	0.083	0.833	0.89221	-0.018
Mof_C 	C 	0.0783	0.8703	0.91632	-0.008
Mof_C 	C 	0.0797	0.9508	0.91749	-0.085
Mof_C 	C 	0.0847	0.9934	0.89454	0.059
Mof_C 	C 	0.0897	0.8798	0.86993	0.047
Mof_C 	C 	0.0967	0.8432	0.8443	0.053
Mof_C 	C 	0.3525	0.6962	0.80313	0.058
Mof_C 	C 	0.3541	0.7782	0.80215	-0.087
Mof_C 	C 	0.345	0.8203	0.82445	-0.003
Mof_C 	C 	0.3366	0.7803	0.84802	-0.035
Mof_C 	C 	0.3304	0.8164	0.87287	0.066
Mof_C 	C 	0.327	0.8946	0.9065	0.145
Mof_C 	C 	0.33	0.9666	0.92221	-0.059
Mof_C 	C 	0.3351	0.0423	0.91198	0.012
Mof_C 	C 	0.34	0.1053	0.9286	-0.097
Mof_C 	C 	0.341	0.0923	0.95485	0.063
Mof_C 	C 	0.331	0.9587	0.94882	0.047
Mof_C 	C 	0.3255	0.7738	0.89562	0.041
Mof_C 	C 	0.3249	0.6898	0.89538	-0.02
Mof_C 	C 	0.3205	0.6432	0.91773	-0.005
Mof_C 	C 	0.3241	0.5631	0.91553	-0.087
Mof_C 	C 	0.3288	0.5297	0.89106	0.06
Mof_C 	C 	0.3299	0.6514	0.87131	0.048
Mof_C 	C 	0.3365	0.6973	0.84759	0.05
Mof_C 	C 	0.3677	0.1482	0.84368	-0.092
Mof_C 	C 	0.4651	0.1245	0.84476	0.02
Mof_C 	C 	0.5402	0.1791	0.84351	-0.083
Mof_C 	C 	0.5174	0.258	0.84212	0.019
Mof_C 	C 	0.4198	0.2831	0.84111	-0.09
Mof_C 	C 	0.3452	0.2272	0.84156	0.031
Mof_C 	C 	0.2857	0.0897	0.84412	0.303
Mof_C 	C 	0.3934	0.3681	0.84023	0.314
Mof_C 	C 	0.4845	0.4781	0.75589	-0.082
Mof_C 	C 	0.5624	0.4727	0.73878	0.022
Mof_C 	C 	0.5463	0.4785	0.71256	-0.083
Mof_C 	C 	0.4516	0.4872	0.70362	0.01
Mof_C 	C 	0.3732	0.4921	0.72058	-0.072
Mof_C 	C 	0.3895	0.4891	0.74685	0.009
Mof_C 	C 	0.505	0.4758	0.78425	0.31
Mof_C 	C 	0.6336	0.477	0.6944	0.305
Mof_C 	C 	0.0935	0.1351	0.01493	-0.081
Mof_C 	C 	0.9963	0.11	0.01598	0.013
Mof_C 	C 	0.9203	0.1635	0.0142	-0.073
Mof_C 	C 	0.9395	0.2431	0.01108	0.011
Mof_C 	C 	0.0359	0.2694	0.00937	-0.082
Mof_C 	C 	0.1123	0.215	0.01169	0.02
Mof_C 	C 	0.1792	0.0784	0.01637	0.296
Mof_C 	C 	0.0597	0.3534	0.00393	0.302
Mof_C 	C 	0.8847	0.6403	0.30027	0.062
Mof_C 	C 	0.8897	0.7207	0.29582	-0.094
Mof_C 	C 	0.9007	0.7705	0.31639	0.003
Mof_C 	C 	0.9057	0.7394	0.34147	-0.038
Mof_C 	C 	0.9144	0.7839	0.36469	0.065
Mof_C 	C 	0.9197	0.874	0.39485	0.144
Mof_C 	C 	0.9157	0.9504	0.40769	-0.058
Mof_C 	C 	0.9084	0.0218	0.39497	0.007
Mof_C 	C 	0.8999	0.0899	0.40939	-0.097
Mof_C 	C 	0.8966	0.0844	0.43584	0.06
Mof_C 	C 	0.9127	0.9507	0.43454	0.046
Mof_C 	C 	0.9191	0.7503	0.38878	0.038
Mof_C 	C 	0.917	0.667	0.39221	-0.018
Mof_C 	C 	0.9217	0.6297	0.41632	-0.008
Mof_C 	C 	0.9203	0.5492	0.41749	-0.085
Mof_C 	C 	0.9153	0.5066	0.39454	0.058
Mof_C 	C 	0.9103	0.6202	0.36993	0.047
Mof_C 	C 	0.9033	0.6568	0.3443	0.053
Mof_C 	C 	0.6475	0.8038	0.30313	0.058
Mof_C 	C 	0.6459	0.7218	0.30215	-0.087
Mof_C 	C 	0.655	0.6797	0.32445	-0.003
Mof_C 	C 	0.6634	0.7197	0.34802	-0.035
Mof_C 	C 	0.6696	0.6836	0.37287	0.066
Mof_C 	C 	0.673	0.6054	0.4065	0.145
Mof_C 	C 	0.67	0.5334	0.42221	-0.059
Mof_C 	C 	0.6649	0.4577	0.41198	0.012
Mof_C 	C 	0.66	0.3947	0.4286	-0.097
Mof_C 	C 	0.659	0.4077	0.45485	0.064
Mof_C 	C 	0.669	0.5413	0.44882	0.047
Mof_C 	C 	0.6745	0.7262	0.39562	0.041
Mof_C 	C 	0.6751	0.8102	0.39538	-0.02
Mof_C 	C 	0.6795	0.8568	0.41773	-0.005
Mof_C 	C 	0.6759	0.9369	0.41553	-0.087
Mof_C 	C 	0.6712	0.9703	0.39106	0.06
Mof_C 	C 	0.6701	0.8486	0.37131	0.048
Mof_C 	C 	0.6635	0.8027	0.34759	0.05
Mof_C 	C 	0.6323	0.3518	0.34368	-0.092
Mof_C 	C 	0.5349	0.3755	0.34476	0.02
Mof_C 	C 	0.4598	0.3209	0.34351	-0.083
Mof_C 	C 	0.4826	0.242	0.34212	0.019
Mof_C 	C 	0.5802	0.2169	0.34111	-0.09
Mof_C 	C 	0.6548	0.2728	0.34156	0.031
Mof_C 	C 	0.7143	0.4103	0.34412	0.303
Mof_C 	C 	0.6066	0.1319	0.34023	0.314
Mof_C 	C 	0.5155	0.0219	0.25589	-0.082
Mof_C 	C 	0.4376	0.0273	0.23878	0.022
Mof_C 	C 	0.4537	0.0215	0.21256	-0.083
Mof_C 	C 	0.5484	0.0128	0.20362	0.01
Mof_C 	C 	0.6268	0.0079	0.22058	-0.072
Mof_C 	C 	0.6105	0.0109	0.24685	0.009
Mof_C 	C 	0.495	0.0242	0.28425	0.31
Mof_C 	C 	0.3664	0.023	0.1944	0.305
Mof_C 	C 	0.9065	0.3649	0.51493	-0.079
Mof_C 	C 	0.0037	0.39	0.51598	0.011
Mof_C 	C 	0.0797	0.3365	0.5142	-0.071
Mof_C 	C 	0.0605	0.2569	0.51108	0.009
Mof_C 	C 	0.9641	0.2306	0.50937	-0.081
Mof_C 	C 	0.8877	0.285	0.51169	0.02
Mof_C 	C 	0.8208	0.4216	0.51637	0.296
Mof_C 	C 	0.9403	0.1466	0.50393	0.302
Mof_C 	C 	0.6153	0.1403	0.69973	0.063
Mof_C 	C 	0.6103	0.2207	0.70418	-0.094
Mof_C 	C 	0.5993	0.2705	0.68361	0.004
Mof_C 	C 	0.5943	0.2394	0.65853	-0.038
Mof_C 	C 	0.5856	0.2839	0.63531	0.066
Mof_C 	C 	0.5803	0.374	0.60515	0.145
Mof_C 	C 	0.5843	0.4504	0.59231	-0.057
Mof_C 	C 	0.5916	0.5218	0.60503	0.007
Mof_C 	C 	0.6001	0.5899	0.59061	-0.096
Mof_C 	C 	0.6034	0.5844	0.56416	0.06
Mof_C 	C 	0.5873	0.4507	0.56546	0.046
Mof_C 	C 	0.5809	0.2503	0.61122	0.039
Mof_C 	C 	0.583	0.167	0.60779	-0.018
Mof_C 	C 	0.5783	0.1297	0.58368	-0.007
Mof_C 	C 	0.5797	0.0492	0.58251	-0.085
Mof_C 	C 	0.5847	0.0066	0.60546	0.059
Mof_C 	C 	0.5897	0.1202	0.63007	0.047
Mof_C 	C 	0.5967	0.1568	0.6557	0.054
Mof_C 	C 	0.8525	0.3038	0.69687	0.059
Mof_C 	C 	0.8541	0.2218	0.69785	-0.087
Mof_C 	C 	0.845	0.1797	0.67555	-0.002
Mof_C 	C 	0.8366	0.2197	0.65198	-0.034
Mof_C 	C 	0.8304	0.1836	0.62713	0.067
Mof_C 	C 	0.827	0.1054	0.5935	0.145
Mof_C 	C 	0.83	0.0334	0.57779	-0.059
Mof_C 	C 	0.8351	0.9577	0.58802	0.012
Mof_C 	C 	0.84	0.8947	0.5714	-0.097
Mof_C 	C 	0.841	0.9077	0.54515	0.064
Mof_C 	C 	0.831	0.0413	0.55118	0.048
Mof_C 	C 	0.8255	0.2262	0.60438	0.042
Mof_C 	C 	0.8249	0.3102	0.60462	-0.019
Mof_C 	C 	0.8205	0.3568	0.58227	-0.005
Mof_C 	C 	0.8241	0.4369	0.58447	-0.087
Mof_C 	C 	0.8288	0.4703	0.60894	0.061
Mof_C 	C 	0.8299	0.3486	0.62869	0.048
Mof_C 	C 	0.8365	0.3027	0.65241	0.051
Mof_C 	C 	0.8677	0.8518	0.65632	-0.093
Mof_C 	C 	0.9651	0.8755	0.65524	0.026
Mof_C 	C 	0.0402	0.8209	0.65649	-0.087
Mof_C 	C 	0.0174	0.742	0.65788	0.015
Mof_C 	C 	0.9198	0.7169	0.65889	-0.085
Mof_C 	C 	0.8452	0.7728	0.65844	0.031
Mof_C 	C 	0.7857	0.9103	0.65588	0.303
Mof_C 	C 	0.8934	0.6319	0.65977	0.312
Mof_C 	C 	0.9845	0.5219	0.74411	-0.066
Mof_C 	C 	0.0624	0.5273	0.76122	0.011
Mof_C 	C 	0.0463	0.5215	0.78744	-0.085
Mof_C 	C 	0.9516	0.5128	0.79638	0.014
Mof_C 	C 	0.8732	0.5079	0.77942	-0.069
Mof_C 	C 	0.8895	0.5109	0.75315	0.002
Mof_C 	C 	0.005	0.5242	0.71575	0.295
Mof_C 	C 	0.1336	0.523	0.8056	0.305
Mof_C 	C 	0.5935	0.8649	0.48507	-0.081
Mof_C 	C 	0.4963	0.89	0.48402	0.013
Mof_C 	C 	0.4203	0.8365	0.4858	-0.073
Mof_C 	C 	0.4395	0.7569	0.48892	0.011
Mof_C 	C 	0.5359	0.7306	0.49063	-0.083
Mof_C 	C 	0.6123	0.785	0.48831	0.021
Mof_C 	C 	0.6792	0.9216	0.48363	0.296
Mof_C 	C 	0.5597	0.6466	0.49607	0.302
Mof_C 	C 	0.3847	0.3597	0.19973	0.063
Mof_C 	C 	0.3897	0.2793	0.20418	-0.094
Mof_C 	C 	0.4007	0.2295	0.18361	0.004
Mof_C 	C 	0.4057	0.2606	0.15853	-0.038
Mof_C 	C 	0.4144	0.2161	0.13531	0.066
Mof_C 	C 	0.4197	0.126	0.10515	0.145
Mof_C 	C 	0.4157	0.0496	0.09231	-0.057
Mof_C 	C 	0.4084	0.9782	0.10503	0.007
Mof_C 	C 	0.3999	0.9101	0.09061	-0.096
Mof_C 	C 	0.3966	0.9156	0.06416	0.06
Mof_C 	C 	0.4127	0.0493	0.06546	0.046
Mof_C 	C 	0.4191	0.2497	0.11122	0.039
Mof_C 	C 	0.417	0.333	0.10779	-0.018
Mof_C 	C 	0.4217	0.3703	0.08368	-0.008
Mof_C 	C 	0.4203	0.4508	0.08251	-0.084
Mof_C 	C 	0.4153	0.4934	0.10546	0.059
Mof_C 	C 	0.4103	0.3798	0.13007	0.047
Mof_C 	C 	0.4033	0.3432	0.1557	0.054
Mof_C 	C 	0.1475	0.1962	0.19687	0.059
Mof_C 	C 	0.1459	0.2782	0.19785	-0.087
Mof_C 	C 	0.155	0.3203	0.17555	-0.002
Mof_C 	C 	0.1634	0.2803	0.15198	-0.034
Mof_C 	C 	0.1696	0.3164	0.12713	0.067
Mof_C 	C 	0.173	0.3946	0.0935	0.145
Mof_C 	C 	0.17	0.4666	0.07779	-0.059
Mof_C 	C 	0.1649	0.5423	0.08802	0.013
Mof_C 	C 	0.16	0.6053	0.0714	-0.097
Mof_C 	C 	0.159	0.5923	0.04515	0.064
Mof_C 	C 	0.169	0.4587	0.05118	0.048
Mof_C 	C 	0.1745	0.2738	0.10438	0.041
Mof_C 	C 	0.1751	0.1898	0.10462	-0.019
Mof_C 	C 	0.1795	0.1432	0.08227	-0.005
Mof_C 	C 	0.1759	0.0631	0.08447	-0.086
Mof_C 	C 	0.1712	0.0297	0.10894	0.06
Mof_C 	C 	0.1701	0.1514	0.12869	0.048
Mof_C 	C 	0.1635	0.1973	0.15241	0.05
Mof_C 	C 	0.1323	0.6482	0.15632	-0.093
Mof_C 	C 	0.0349	0.6245	0.15524	0.027
Mof_C 	C 	0.9598	0.6791	0.15649	-0.088
Mof_C 	C 	0.9826	0.758	0.15788	0.014
Mof_C 	C 	0.0802	0.7831	0.15889	-0.085
Mof_C 	C 	0.1548	0.7272	0.15844	0.031
Mof_C 	C 	0.2143	0.5897	0.15588	0.303
Mof_C 	C 	0.1066	0.8681	0.15977	0.312
Mof_C 	C 	0.0155	0.9781	0.24411	-0.065
Mof_C 	C 	0.9376	0.9727	0.26122	0.01
Mof_C 	C 	0.9537	0.9785	0.28744	-0.085
Mof_C 	C 	0.0484	0.9872	0.29638	0.014
Mof_C 	C 	0.1268	0.9921	0.27942	-0.069
Mof_C 	C 	0.1105	0.9891	0.25315	0.001
Mof_C 	C 	0.995	0.9758	0.21575	0.294
Mof_C 	C 	0.8664	0.977	0.3056	0.305
Mof_C 	C 	0.4065	0.6351	0.98507	-0.081
Mof_C 	C 	0.5037	0.61	0.98402	0.013
Mof_C 	C 	0.5797	0.6635	0.9858	-0.073
Mof_C 	C 	0.5605	0.7431	0.98892	0.011
Mof_C 	C 	0.4641	0.7694	0.99063	-0.083
Mof_C 	C 	0.3877	0.715	0.98831	0.021
Mof_C 	C 	0.3208	0.5784	0.98363	0.296
Mof_C 	C 	0.4403	0.8534	0.99607	0.302
Mof_N 	N 	0.8919	0.1089	0.17627	-0.14
Mof_N 	N 	0.9103	0.04122	0.12846	-0.137
Mof_N 	N 	0.6564	0.3432	0.17485	-0.135
Mof_N 	N 	0.6699	0.42769	0.13044	-0.141
Mof_N 	N 	0.9228	0.3068	0.09241	-0.128
Mof_N 	N 	0.9155	0.36388	0.13134	-0.215
Mof_N 	N 	0.6766	0.1765	0.08344	-0.129
Mof_N 	N 	0.669	0.10566	0.11987	-0.214
Mof_N 	N 	0.9018	0.5158	0.05144	-0.137
Mof_N 	N 	0.662	0.9798	0.03516	-0.138
Mof_N 	N 	0.1081	0.3911	0.67627	-0.14
Mof_N 	N 	0.0897	0.45878	0.62846	-0.137
Mof_N 	N 	0.3436	0.1568	0.67485	-0.135
Mof_N 	N 	0.3301	0.07231	0.63044	-0.141
Mof_N 	N 	0.0772	0.1932	0.59241	-0.129
Mof_N 	N 	0.0845	0.13612	0.63134	-0.215
Mof_N 	N 	0.3234	0.3235	0.58344	-0.129
Mof_N 	N 	0.331	0.39434	0.61987	-0.214
Mof_N 	N 	0.0982	0.9842	0.55144	-0.137
Mof_N 	N 	0.338	0.5202	0.53516	-0.138
Mof_N 	N 	0.3919	0.8911	0.32373	-0.14
Mof_N 	N 	0.4103	0.95878	0.37154	-0.137
Mof_N 	N 	0.1564	0.6568	0.32515	-0.135
Mof_N 	N 	0.1699	0.57231	0.36956	-0.14
Mof_N 	N 	0.4228	0.6932	0.40759	-0.128
Mof_N 	N 	0.4155	0.63612	0.36866	-0.215
Mof_N 	N 	0.1766	0.8235	0.41656	-0.129
Mof_N 	N 	0.169	0.89434	0.38013	-0.214
Mof_N 	N 	0.4018	0.4842	0.44856	-0.137
Mof_N 	N 	0.162	0.0202	0.46484	-0.138
Mof_N 	N 	0.6081	0.6089	0.82373	-0.14
Mof_N 	N 	0.5897	0.54122	0.87154	-0.137
Mof_N 	N 	0.8436	0.8432	0.82515	-0.135
Mof_N 	N 	0.8301	0.92769	0.86956	-0.14
Mof_N 	N 	0.5772	0.8068	0.90759	-0.128
Mof_N 	N 	0.5845	0.86388	0.86866	-0.215
Mof_N 	N 	0.8234	0.6765	0.91656	-0.129
Mof_N 	N 	0.831	0.60566	0.88013	-0.214
Mof_N 	N 	0.5982	0.0158	0.94856	-0.137
Mof_N 	N 	0.838	0.4798	0.96484	-0.138
Mof_N 	N 	0.1081	0.8911	0.82373	-0.14
Mof_N 	N 	0.0897	0.95878	0.87154	-0.137
Mof_N 	N 	0.3436	0.6568	0.82515	-0.135
Mof_N 	N 	0.3301	0.57231	0.86956	-0.141
Mof_N 	N 	0.0772	0.6932	0.90759	-0.128
Mof_N 	N 	0.0845	0.63612	0.86866	-0.215
Mof_N 	N 	0.3234	0.8235	0.91656	-0.129
Mof_N 	N 	0.331	0.89434	0.88013	-0.214
Mof_N 	N 	0.0982	0.4842	0.94856	-0.137
Mof_N 	N 	0.338	0.0202	0.96484	-0.138
Mof_N 	N 	0.8919	0.6089	0.32373	-0.14
Mof_N 	N 	0.9103	0.54122	0.37154	-0.137
Mof_N 	N 	0.6564	0.8432	0.32515	-0.135
Mof_N 	N 	0.6699	0.92769	0.36956	-0.141
Mof_N 	N 	0.9228	0.8068	0.40759	-0.129
Mof_N 	N 	0.9155	0.86388	0.36866	-0.215
Mof_N 	N 	0.6766	0.6765	0.41656	-0.129
Mof_N 	N 	0.669	0.60566	0.38013	-0.214
Mof_N 	N 	0.9018	0.0158	0.44856	-0.137
Mof_N 	N 	0.662	0.4798	0.46484	-0.138
Mof_N 	N 	0.6081	0.1089	0.67627	-0.14
Mof_N 	N 	0.5897	0.04122	0.62846	-0.137
Mof_N 	N 	0.8436	0.3432	0.67485	-0.135
Mof_N 	N 	0.8301	0.42769	0.63044	-0.14
Mof_N 	N 	0.5772	0.3068	0.59241	-0.128
Mof_N 	N 	0.5845	0.36388	0.63134	-0.215
Mof_N 	N 	0.8234	0.1765	0.58344	-0.129
Mof_N 	N 	0.831	0.10566	0.61987	-0.214
Mof_N 	N 	0.5982	0.5158	0.55144	-0.137
Mof_N 	N 	0.838	0.9798	0.53516	-0.138
Mof_N 	N 	0.3919	0.3911	0.17627	-0.14
Mof_N 	N 	0.4103	0.45878	0.12846	-0.137
Mof_N 	N 	0.1564	0.1568	0.17485	-0.135
Mof_N 	N 	0.1699	0.07231	0.13044	-0.14
Mof_N 	N 	0.4228	0.1932	0.09241	-0.128
Mof_N 	N 	0.4155	0.13612	0.13134	-0.215
Mof_N 	N 	0.1766	0.3235	0.08344	-0.129
Mof_N 	N 	0.169	0.39434	0.11987	-0.214
Mof_N 	N 	0.4018	0.9842	0.05144	-0.137
Mof_N 	N 	0.162	0.5202	0.03516	-0.138
Mof_O 	O 	0.6966	0.98256	0.1561	-0.278
Mof_O 	O 	0.8012	0.88257	0.15521	-0.282
Mof_O 	O 	0.5454	0.58187	0.15181	-0.292
Mof_O 	O 	0.6899	0.61222	0.16805	-0.276
Mof_O 	O 	0.4164	0.55703	0.20825	-0.28
Mof_O 	O 	0.5535	0.49064	0.20068	-0.287
Mof_O 	O 	0.2827	0.5205	0.29546	-0.277
Mof_O 	O 	0.3795	0.52724	0.32951	-0.28
Mof_O 	O 	0.736	0.89216	0.98419	-0.281
Mof_O 	O 	0.8357	0.99406	0.98244	-0.261
Mof_O 	O 	0.8532	0.62987	0.00287	-0.278
Mof_O 	O 	0.0049	0.59381	0.99417	-0.285
Mof_O 	O 	0.3034	0.51744	0.6561	-0.278
Mof_O 	O 	0.1988	0.61743	0.65521	-0.282
Mof_O 	O 	0.4546	0.91813	0.65181	-0.292
Mof_O 	O 	0.3101	0.88778	0.66805	-0.276
Mof_O 	O 	0.5836	0.94297	0.70825	-0.28
Mof_O 	O 	0.4465	0.00936	0.70068	-0.287
Mof_O 	O 	0.7173	0.9795	0.79546	-0.277
Mof_O 	O 	0.6205	0.97276	0.82951	-0.28
Mof_O 	O 	0.264	0.60784	0.48419	-0.281
Mof_O 	O 	0.1643	0.50594	0.48244	-0.26
Mof_O 	O 	0.1468	0.87013	0.50287	-0.278
Mof_O 	O 	0.9951	0.90619	0.49417	-0.285
Mof_O 	O 	0.1966	0.01744	0.3439	-0.278
Mof_O 	O 	0.3012	0.11743	0.34479	-0.281
Mof_O 	O 	0.0454	0.41813	0.34819	-0.289
Mof_O 	O 	0.1899	0.38778	0.33195	-0.276
Mof_O 	O 	0.9164	0.44297	0.29175	-0.277
Mof_O 	O 	0.0535	0.50936	0.29932	-0.28
Mof_O 	O 	0.7827	0.4795	0.20454	-0.277
Mof_O 	O 	0.8795	0.47276	0.17049	-0.281
Mof_O 	O 	0.236	0.10784	0.51581	-0.282
Mof_O 	O 	0.3357	0.00594	0.51756	-0.261
Mof_O 	O 	0.3532	0.37013	0.49713	-0.278
Mof_O 	O 	0.5049	0.40619	0.50583	-0.285
Mof_O 	O 	0.8034	0.48256	0.8439	-0.278
Mof_O 	O 	0.6988	0.38257	0.84479	-0.281
Mof_O 	O 	0.9546	0.08187	0.84819	-0.289
Mof_O 	O 	0.8101	0.11222	0.83195	-0.275
Mof_O 	O 	0.0836	0.05703	0.79175	-0.277
Mof_O 	O 	0.9465	0.99064	0.79932	-0.28
Mof_O 	O 	0.2173	0.0205	0.70454	-0.277
Mof_O 	O 	0.1205	0.02724	0.67049	-0.281
Mof_O 	O 	0.764	0.39216	0.01581	-0.281
Mof_O 	O 	0.6643	0.49406	0.01756	-0.261
Mof_O 	O 	0.6468	0.12987	0.99713	-0.278
Mof_O 	O 	0.4951	0.09381	0.00583	-0.284
Mof_O 	O 	0.3034	0.01744	0.8439	-0.278
Mof_O 	O 	0.1988	0.11743	0.84479	-0.282
Mof_O 	O 	0.4546	0.41813	0.84819	-0.292
Mof_O 	O 	0.3101	0.38778	0.83195	-0.276
Mof_O 	O 	0.5836	0.44297	0.79175	-0.28
Mof_O 	O 	0.4465	0.50936	0.79932	-0.287
Mof_O 	O 	0.7173	0.4795	0.70454	-0.277
Mof_O 	O 	0.6205	0.47276	0.67049	-0.28
Mof_O 	O 	0.264	0.10784	0.01581	-0.281
Mof_O 	O 	0.1643	0.00594	0.01756	-0.261
Mof_O 	O 	0.1468	0.37013	0.99713	-0.278
Mof_O 	O 	0.9951	0.40619	0.00583	-0.285
Mof_O 	O 	0.6966	0.48256	0.3439	-0.278
Mof_O 	O 	0.8012	0.38257	0.34479	-0.282
Mof_O 	O 	0.5454	0.08187	0.34819	-0.292
Mof_O 	O 	0.6899	0.11222	0.33195	-0.276
Mof_O 	O 	0.4164	0.05703	0.29175	-0.28
Mof_O 	O 	0.5535	0.99064	0.29932	-0.287
Mof_O 	O 	0.2827	0.0205	0.20454	-0.277
Mof_O 	O 	0.3795	0.02724	0.17049	-0.28
Mof_O 	O 	0.736	0.39216	0.51581	-0.281
Mof_O 	O 	0.8357	0.49406	0.51756	-0.26
Mof_O 	O 	0.8532	0.12987	0.49713	-0.278
Mof_O 	O 	0.0049	0.09381	0.50583	-0.285
Mof_O 	O 	0.8034	0.98256	0.6561	-0.278
Mof_O 	O 	0.6988	0.88257	0.65521	-0.281
Mof_O 	O 	0.9546	0.58187	0.65181	-0.289
Mof_O 	O 	0.8101	0.61222	0.66805	-0.276
Mof_O 	O 	0.0836	0.55703	0.70825	-0.277
Mof_O 	O 	0.9465	0.49064	0.70068	-0.28
Mof_O 	O 	0.2173	0.5205	0.79546	-0.277
Mof_O 	O 	0.1205	0.52724	0.82951	-0.281
Mof_O 	O 	0.764	0.89216	0.48419	-0.282
Mof_O 	O 	0.6643	0.99406	0.48244	-0.261
Mof_O 	O 	0.6468	0.62987	0.50287	-0.278
Mof_O 	O 	0.4951	0.59381	0.49417	-0.285
Mof_O 	O 	0.1966	0.51744	0.1561	-0.278
Mof_O 	O 	0.3012	0.61743	0.15521	-0.281
Mof_O 	O 	0.0454	0.91813	0.15181	-0.289
Mof_O 	O 	0.1899	0.88778	0.16805	-0.275
Mof_O 	O 	0.9164	0.94297	0.20825	-0.277
Mof_O 	O 	0.0535	0.00936	0.20068	-0.28
Mof_O 	O 	0.7827	0.9795	0.29546	-0.277
Mof_O 	O 	0.8795	0.97276	0.32951	-0.281
Mof_O 	O 	0.236	0.60784	0.98419	-0.281
Mof_O 	O 	0.3357	0.50594	0.98244	-0.261
Mof_O 	O 	0.3532	0.87013	0.00287	-0.278
Mof_O 	O 	0.5049	0.90619	0.99417	-0.284
_end
