data_functionalizedCrystal
_audit_creation_method	'EQeq! by Chris Wilmer'
_symmetry_space_group_name_H-M	'P1'
_symmetry_Int_Tables_number	1
_symmetry_cell_setting	triclinic
loop_
_symmetry_equiv_pos_as_xyz
  x,y,z
_cell_length_a	23.193
_cell_length_b	23.193
_cell_length_c	12.069
_cell_angle_alpha	90
_cell_angle_beta	90
_cell_angle_gamma	90
loop_
_atom_site_label
_atom_site_type_symbol
_atom_site_fract_x
_atom_site_fract_y
_atom_site_fract_z
_atom_site_charge
Mof_Mg	Mg	0.62983	0.54234	0.5001	1.483
Mof_Mg	Mg	0.72607	0.45134	0.4604	1.495
Mof_O 	O 	0.67414	0.59824	0.6077	-0.695
Mof_O 	O 	0.7256	0.671	0.672	-0.721
Mof_O 	O 	0.70407	0.53576	0.4006	-0.701
Mof_O 	O 	0.7779	0.55	0.2907	-0.606
Mof_O 	O 	0.5907	0.603	0.4088	-0.622
Mof_O 	O 	0.4992	0.5751	0.4131	-0.618
Mof_O 	O 	0.56059	0.533	0.6153	-0.731
Mof_O 	O 	0.6161	0.5266	0.765	-0.598
Mof_O 	O 	0.6732	0.4793	0.5778	-1.746
Mof_H 	H 	0.654	0.46	0.582	1.01
Mof_C 	C 	0.6797	0.6501	0.6288	0.676
Mof_C 	C 	0.6284	0.69	0.6087	-0.976
Mof_H 	H 	0.6169	0.6878	0.5306	0.283
Mof_H 	H 	0.6393	0.7297	0.6269	0.284
Mof_H 	H 	0.5961	0.678	0.6556	0.281
Mof_C 	C 	0.7358	0.5678	0.3422	0.802
Mof_C 	C 	0.7266	0.6303	0.3411	-1.131
Mof_H 	H 	0.7188	0.6437	0.4167	0.332
Mof_H 	H 	0.6936	0.6394	0.2935	0.334
Mof_H 	H 	0.7612	0.6495	0.3126	0.34
Mof_C 	C 	0.5387	0.6085	0.3846	0.661
Mof_C 	C 	0.5223	0.6607	0.3195	-0.914
Mof_H 	H 	0.5309	0.6542	0.241	0.255
Mof_H 	H 	0.5443	0.694	0.3463	0.255
Mof_H 	H 	0.481	0.6681	0.3285	0.261
Mof_C 	C 	0.5686	0.5249	0.7201	0.716
Mof_C 	C 	0.5174	0.5143	0.7898	-1.043
Mof_H 	H 	0.5249	0.4816	0.8391	0.309
Mof_H 	H 	0.4843	0.5055	0.7424	0.304
Mof_H 	H 	0.5091	0.5487	0.8341	0.299
Mof_Mg	Mg	0.12983	0.04234	0.0001	1.477
Mof_Mg	Mg	0.22607	0.95134	0.9604	1.497
Mof_O 	O 	0.17414	0.09824	0.1077	-0.709
Mof_O 	O 	0.2256	0.171	0.172	-0.721
Mof_O 	O 	0.20407	0.03576	0.9006	-0.71
Mof_O 	O 	0.2779	0.05	0.7907	-0.619
Mof_O 	O 	0.0907	0.103	0.9088	-0.612
Mof_O 	O 	0.9992	0.0751	0.9131	-0.579
Mof_O 	O 	0.06059	0.033	0.1153	-0.792
Mof_O 	O 	0.1161	0.0266	0.265	-0.649
Mof_O 	O 	0.1732	0.9793	0.0778	-1.716
Mof_H 	H 	0.154	0.96	0.082	0.996
Mof_C 	C 	0.1797	0.1501	0.1288	0.666
Mof_C 	C 	0.1284	0.19	0.1087	-0.949
Mof_H 	H 	0.1169	0.1878	0.0306	0.261
Mof_H 	H 	0.1393	0.2297	0.1269	0.272
Mof_H 	H 	0.0961	0.178	0.1556	0.263
Mof_C 	C 	0.2358	0.0678	0.8422	0.815
Mof_C 	C 	0.2266	0.1303	0.8411	-1.157
Mof_H 	H 	0.2188	0.1437	0.9167	0.353
Mof_H 	H 	0.1936	0.1394	0.7935	0.344
Mof_H 	H 	0.2612	0.1495	0.8126	0.352
Mof_C 	C 	0.0387	0.1085	0.8846	0.648
Mof_C 	C 	0.0223	0.1607	0.8195	-1.022
Mof_H 	H 	0.0309	0.1542	0.741	0.278
Mof_H 	H 	0.0443	0.194	0.8463	0.286
Mof_H 	H 	0.981	0.1681	0.8285	0.321
Mof_C 	C 	0.0686	0.0249	0.2201	0.807
Mof_C 	C 	0.0174	0.0143	0.2898	-1.356
Mof_H 	H 	0.0249	0.9816	0.3391	0.411
Mof_H 	H 	0.9843	0.0055	0.2424	0.409
Mof_H 	H 	0.0091	0.0487	0.3341	0.365
Mof_Mg	Mg	0.87017	0.45766	0.0001	1.48
Mof_Mg	Mg	0.77393	0.54866	0.9604	1.497
Mof_O 	O 	0.82586	0.40176	0.1077	-0.702
Mof_O 	O 	0.7744	0.329	0.172	-0.722
Mof_O 	O 	0.79593	0.46424	0.9006	-0.694
Mof_O 	O 	0.7221	0.45	0.7907	-0.606
Mof_O 	O 	0.9093	0.397	0.9088	-0.613
Mof_O 	O 	0.0008	0.4249	0.9131	-0.641
Mof_O 	O 	0.93941	0.467	0.1153	-0.712
Mof_O 	O 	0.8839	0.4734	0.265	-0.587
Mof_O 	O 	0.8268	0.5207	0.0778	-1.755
Mof_H 	H 	0.846	0.54	0.082	1.011
Mof_C 	C 	0.8203	0.3499	0.1288	0.673
Mof_C 	C 	0.8716	0.31	0.1087	-0.972
Mof_H 	H 	0.8831	0.3122	0.0306	0.276
Mof_H 	H 	0.8607	0.2703	0.1269	0.282
Mof_H 	H 	0.9039	0.322	0.1556	0.284
Mof_C 	C 	0.7642	0.4322	0.8422	0.81
Mof_C 	C 	0.7734	0.3697	0.8411	-1.15
Mof_H 	H 	0.7812	0.3563	0.9167	0.35
Mof_H 	H 	0.8064	0.3606	0.7935	0.344
Mof_H 	H 	0.7388	0.3505	0.8126	0.35
Mof_C 	C 	0.9613	0.3915	0.8846	0.683
Mof_C 	C 	0.9777	0.3393	0.8195	-0.828
Mof_H 	H 	0.9691	0.3458	0.741	0.242
Mof_H 	H 	0.9557	0.306	0.8463	0.243
Mof_H 	H 	0.019	0.3319	0.8285	0.219
Mof_C 	C 	0.9314	0.4751	0.2201	0.67
Mof_C 	C 	0.9826	0.4857	0.2898	-0.885
Mof_H 	H 	0.9751	0.5184	0.3391	0.269
Mof_H 	H 	0.0157	0.4945	0.2424	0.231
Mof_H 	H 	0.9909	0.4513	0.3341	0.265
Mof_Mg	Mg	0.37017	0.95766	0.5001	1.484
Mof_Mg	Mg	0.27393	0.04866	0.4604	1.493
Mof_O 	O 	0.32586	0.90176	0.6077	-0.691
Mof_O 	O 	0.2744	0.829	0.672	-0.722
Mof_O 	O 	0.29593	0.96424	0.4006	-0.68
Mof_O 	O 	0.2221	0.95	0.2907	-0.59
Mof_O 	O 	0.4093	0.897	0.4088	-0.616
Mof_O 	O 	0.5008	0.9249	0.4131	-0.606
Mof_O 	O 	0.43941	0.967	0.6153	-0.708
Mof_O 	O 	0.3839	0.9734	0.765	-0.575
Mof_O 	O 	0.3268	0.0207	0.5778	-1.777
Mof_H 	H 	0.346	0.04	0.582	1.022
Mof_C 	C 	0.3203	0.8499	0.6288	0.674
Mof_C 	C 	0.3716	0.81	0.6087	-0.974
Mof_H 	H 	0.3831	0.8122	0.5306	0.282
Mof_H 	H 	0.3607	0.7703	0.6269	0.283
Mof_H 	H 	0.4039	0.822	0.6556	0.281
Mof_C 	C 	0.2642	0.9322	0.3422	0.796
Mof_C 	C 	0.2734	0.8697	0.3411	-1.122
Mof_H 	H 	0.2812	0.8563	0.4167	0.33
Mof_H 	H 	0.3064	0.8606	0.2935	0.333
Mof_H 	H 	0.2388	0.8505	0.3126	0.337
Mof_C 	C 	0.4613	0.8915	0.3846	0.66
Mof_C 	C 	0.4777	0.8393	0.3195	-0.912
Mof_H 	H 	0.4691	0.8458	0.241	0.256
Mof_H 	H 	0.4557	0.806	0.3463	0.254
Mof_H 	H 	0.519	0.8319	0.3285	0.262
Mof_C 	C 	0.4314	0.9751	0.7201	0.681
Mof_C 	C 	0.4826	0.9857	0.7898	-0.921
Mof_H 	H 	0.4751	0.0184	0.8391	0.253
Mof_H 	H 	0.5157	0.9945	0.7424	0.278
Mof_H 	H 	0.4909	0.9513	0.8341	0.267
Mof_Mg	Mg	0.20766	0.87983	0.7501	1.482
Mof_Mg	Mg	0.29866	0.97607	0.7104	1.497
Mof_O 	O 	0.15176	0.92414	0.8577	-0.685
Mof_O 	O 	0.079	0.9756	0.922	-0.699
Mof_O 	O 	0.21424	0.95407	0.6506	-0.695
Mof_O 	O 	0.2	0.0279	0.5407	-0.633
Mof_O 	O 	0.147	0.8407	0.6588	-0.619
Mof_O 	O 	0.1749	0.7492	0.6631	-0.617
Mof_O 	O 	0.217	0.81059	0.8653	-0.753
Mof_O 	O 	0.2234	0.8661	0.015	-0.645
Mof_O 	O 	0.2707	0.9232	0.8278	-1.729
Mof_H 	H 	0.29	0.904	0.832	1.004
Mof_C 	C 	0.0999	0.9297	0.8788	0.669
Mof_C 	C 	0.06	0.8784	0.8587	-0.954
Mof_H 	H 	0.0622	0.8669	0.7806	0.273
Mof_H 	H 	0.0203	0.8893	0.8769	0.27
Mof_H 	H 	0.072	0.8461	0.9056	0.275
Mof_C 	C 	0.1822	0.9858	0.5922	0.812
Mof_C 	C 	0.1197	0.9766	0.5911	-1.022
Mof_H 	H 	0.1063	0.9688	0.6667	0.305
Mof_H 	H 	0.1106	0.9436	0.5435	0.306
Mof_H 	H 	0.1005	0.0112	0.5626	0.281
Mof_C 	C 	0.1415	0.7887	0.6346	0.655
Mof_C 	C 	0.0893	0.7723	0.5695	-0.898
Mof_H 	H 	0.0958	0.7809	0.491	0.248
Mof_H 	H 	0.056	0.7943	0.5963	0.243
Mof_H 	H 	0.0819	0.731	0.5785	0.251
Mof_C 	C 	0.2251	0.8186	0.9701	0.809
Mof_C 	C 	0.2357	0.7674	0.0398	-1.215
Mof_H 	H 	0.2684	0.7749	0.0891	0.348
Mof_H 	H 	0.2445	0.7343	0.9924	0.367
Mof_H 	H 	0.2013	0.7591	0.0841	0.338
Mof_Mg	Mg	0.70766	0.37983	0.2501	1.482
Mof_Mg	Mg	0.79866	0.47607	0.2104	1.494
Mof_O 	O 	0.65176	0.42414	0.3577	-0.696
Mof_O 	O 	0.579	0.4756	0.422	-0.723
Mof_O 	O 	0.71424	0.45407	0.1506	-0.703
Mof_O 	O 	0.7	0.5279	0.0407	-0.615
Mof_O 	O 	0.647	0.3407	0.1588	-0.635
Mof_O 	O 	0.6749	0.2492	0.1631	-0.631
Mof_O 	O 	0.717	0.31059	0.3653	-0.73
Mof_O 	O 	0.7234	0.3661	0.515	-0.601
Mof_O 	O 	0.7707	0.4232	0.3278	-1.746
Mof_H 	H 	0.79	0.404	0.332	1.011
Mof_C 	C 	0.5999	0.4297	0.3788	0.675
Mof_C 	C 	0.56	0.3784	0.3587	-0.973
Mof_H 	H 	0.5622	0.3669	0.2806	0.281
Mof_H 	H 	0.5203	0.3893	0.3769	0.282
Mof_H 	H 	0.572	0.3461	0.4056	0.279
Mof_C 	C 	0.6822	0.4858	0.0922	0.796
Mof_C 	C 	0.6197	0.4766	0.0911	-1.121
Mof_H 	H 	0.6063	0.4688	0.1667	0.328
Mof_H 	H 	0.6106	0.4436	0.0435	0.326
Mof_H 	H 	0.6005	0.5112	0.0626	0.332
Mof_C 	C 	0.6415	0.2887	0.1346	0.696
Mof_C 	C 	0.5893	0.2723	0.0695	-1.034
Mof_H 	H 	0.5958	0.2809	0.991	0.314
Mof_H 	H 	0.556	0.2943	0.0963	0.283
Mof_H 	H 	0.5819	0.231	0.0785	0.289
Mof_C 	C 	0.7251	0.3186	0.4701	0.713
Mof_C 	C 	0.7357	0.2674	0.5398	-1.037
Mof_H 	H 	0.7684	0.2749	0.5891	0.303
Mof_H 	H 	0.7445	0.2343	0.4924	0.302
Mof_H 	H 	0.7013	0.2591	0.5841	0.294
Mof_Mg	Mg	0.29234	0.12017	0.2501	1.482
Mof_Mg	Mg	0.20134	0.02393	0.2104	1.491
Mof_O 	O 	0.34824	0.07586	0.3577	-0.703
Mof_O 	O 	0.421	0.0244	0.422	-0.742
Mof_O 	O 	0.28576	0.04593	0.1506	-0.711
Mof_O 	O 	0.3	0.9721	0.0407	-0.581
Mof_O 	O 	0.353	0.1593	0.1588	-0.637
Mof_O 	O 	0.3251	0.2508	0.1631	-0.631
Mof_O 	O 	0.283	0.18941	0.3653	-0.73
Mof_O 	O 	0.2766	0.1339	0.515	-0.602
Mof_O 	O 	0.2293	0.0768	0.3278	-1.759
Mof_H 	H 	0.21	0.096	0.332	1.017
Mof_C 	C 	0.4001	0.0703	0.3788	0.677
Mof_C 	C 	0.44	0.1216	0.3587	-0.978
Mof_H 	H 	0.4378	0.1331	0.2806	0.28
Mof_H 	H 	0.4797	0.1107	0.3769	0.284
Mof_H 	H 	0.428	0.1539	0.4056	0.281
Mof_C 	C 	0.3178	0.0142	0.0922	0.777
Mof_C 	C 	0.3803	0.0234	0.0911	-1.242
Mof_H 	H 	0.3937	0.0312	0.1667	0.355
Mof_H 	H 	0.3894	0.0564	0.0435	0.353
Mof_H 	H 	0.3995	0.9888	0.0626	0.395
Mof_C 	C 	0.3585	0.2113	0.1346	0.698
Mof_C 	C 	0.4107	0.2277	0.0695	-1.042
Mof_H 	H 	0.4042	0.2191	0.991	0.317
Mof_H 	H 	0.444	0.2057	0.0963	0.284
Mof_H 	H 	0.4181	0.269	0.0785	0.292
Mof_C 	C 	0.2749	0.1814	0.4701	0.712
Mof_C 	C 	0.2643	0.2326	0.5398	-1.036
Mof_H 	H 	0.2316	0.2251	0.5891	0.302
Mof_H 	H 	0.2555	0.2657	0.4924	0.301
Mof_H 	H 	0.2987	0.2409	0.5841	0.294
Mof_Mg	Mg	0.79234	0.62017	0.7501	1.483
Mof_Mg	Mg	0.70134	0.52393	0.7104	1.494
Mof_O 	O 	0.84824	0.57586	0.8577	-0.693
Mof_O 	O 	0.921	0.5244	0.922	-0.711
Mof_O 	O 	0.78576	0.54593	0.6506	-0.703
Mof_O 	O 	0.8	0.4721	0.5407	-0.608
Mof_O 	O 	0.853	0.6593	0.6588	-0.623
Mof_O 	O 	0.8251	0.7508	0.6631	-0.619
Mof_O 	O 	0.783	0.68941	0.8653	-0.752
Mof_O 	O 	0.7766	0.6339	0.015	-0.646
Mof_O 	O 	0.7293	0.5768	0.8278	-1.739
Mof_H 	H 	0.71	0.596	0.832	1.01
Mof_C 	C 	0.9001	0.5703	0.8788	0.684
Mof_C 	C 	0.94	0.6216	0.8587	-1
Mof_H 	H 	0.9378	0.6331	0.7806	0.295
Mof_H 	H 	0.9797	0.6107	0.8769	0.306
Mof_H 	H 	0.928	0.6539	0.9056	0.296
Mof_C 	C 	0.8178	0.5142	0.5922	0.807
Mof_C 	C 	0.8803	0.5234	0.5911	-1.145
Mof_H 	H 	0.8937	0.5312	0.6667	0.338
Mof_H 	H 	0.8894	0.5564	0.5435	0.344
Mof_H 	H 	0.8995	0.4888	0.5626	0.349
Mof_C 	C 	0.8585	0.7113	0.6346	0.671
Mof_C 	C 	0.9107	0.7277	0.5695	-0.939
Mof_H 	H 	0.9042	0.7191	0.491	0.269
Mof_H 	H 	0.944	0.7057	0.5963	0.271
Mof_H 	H 	0.9181	0.769	0.5785	0.276
Mof_C 	C 	0.7749	0.6814	0.9701	0.807
Mof_C 	C 	0.7643	0.7326	0.0398	-1.206
Mof_H 	H 	0.7316	0.7251	0.0891	0.346
Mof_H 	H 	0.7555	0.7657	0.9924	0.363
Mof_H 	H 	0.7987	0.7409	0.0841	0.337
Mof_Mg	Mg	0.37017	0.45766	0.4999	1.482
Mof_Mg	Mg	0.27393	0.54866	0.5396	1.494
Mof_O 	O 	0.32586	0.40176	0.3923	-0.697
Mof_O 	O 	0.2744	0.329	0.328	-0.724
Mof_O 	O 	0.29593	0.46424	0.5994	-0.703
Mof_O 	O 	0.2221	0.45	0.7093	-0.608
Mof_O 	O 	0.4093	0.397	0.5912	-0.622
Mof_O 	O 	0.5008	0.4249	0.5869	-0.619
Mof_O 	O 	0.43941	0.467	0.3847	-0.729
Mof_O 	O 	0.3839	0.4734	0.235	-0.605
Mof_O 	O 	0.3268	0.5207	0.4222	-1.745
Mof_H 	H 	0.346	0.54	0.418	1.009
Mof_C 	C 	0.3203	0.3499	0.3712	0.675
Mof_C 	C 	0.3716	0.31	0.3913	-0.974
Mof_H 	H 	0.3831	0.3122	0.4694	0.282
Mof_H 	H 	0.3607	0.2703	0.3731	0.283
Mof_H 	H 	0.4039	0.322	0.3444	0.279
Mof_C 	C 	0.2642	0.4322	0.6578	0.804
Mof_C 	C 	0.2734	0.3697	0.6589	-1.138
Mof_H 	H 	0.2812	0.3563	0.5833	0.334
Mof_H 	H 	0.3064	0.3606	0.7065	0.34
Mof_H 	H 	0.2388	0.3505	0.6874	0.344
Mof_C 	C 	0.4613	0.3915	0.6154	0.665
Mof_C 	C 	0.4777	0.3393	0.6805	-0.924
Mof_H 	H 	0.4691	0.3458	0.759	0.263
Mof_H 	H 	0.4557	0.306	0.6537	0.259
Mof_H 	H 	0.519	0.3319	0.6715	0.266
Mof_C 	C 	0.4314	0.4751	0.2799	0.708
Mof_C 	C 	0.4826	0.4857	0.2102	-1.024
Mof_H 	H 	0.4751	0.5184	0.1609	0.293
Mof_H 	H 	0.5157	0.4945	0.2576	0.297
Mof_H 	H 	0.4909	0.4513	0.1659	0.285
Mof_Mg	Mg	0.87017	0.95766	0.9999	1.486
Mof_Mg	Mg	0.77393	0.04866	0.0396	1.49
Mof_O 	O 	0.82586	0.90176	0.8923	-0.689
Mof_O 	O 	0.7744	0.829	0.828	-0.725
Mof_O 	O 	0.79593	0.96424	0.0994	-0.687
Mof_O 	O 	0.7221	0.95	0.2093	-0.592
Mof_O 	O 	0.9093	0.897	0.0912	-0.623
Mof_O 	O 	0.0008	0.9249	0.0869	-0.647
Mof_O 	O 	0.93941	0.967	0.8847	-0.679
Mof_O 	O 	0.8839	0.9734	0.735	-0.564
Mof_O 	O 	0.8268	0.0207	0.9222	-1.763
Mof_H 	H 	0.846	0.04	0.918	1.022
Mof_C 	C 	0.8203	0.8499	0.8712	0.682
Mof_C 	C 	0.8716	0.81	0.8913	-0.994
Mof_H 	H 	0.8831	0.8122	0.9694	0.297
Mof_H 	H 	0.8607	0.7703	0.8731	0.292
Mof_H 	H 	0.9039	0.822	0.8444	0.293
Mof_C 	C 	0.7642	0.9322	0.1578	0.793
Mof_C 	C 	0.7734	0.8697	0.1589	-1.117
Mof_H 	H 	0.7812	0.8563	0.0833	0.321
Mof_H 	H 	0.8064	0.8606	0.2065	0.332
Mof_H 	H 	0.7388	0.8505	0.1874	0.334
Mof_C 	C 	0.9613	0.8915	0.1154	0.677
Mof_C 	C 	0.9777	0.8393	0.1805	-0.81
Mof_H 	H 	0.9691	0.8458	0.259	0.238
Mof_H 	H 	0.9557	0.806	0.1537	0.228
Mof_H 	H 	0.019	0.8319	0.1715	0.206
Mof_C 	C 	0.9314	0.9751	0.7799	0.634
Mof_C 	C 	0.9826	0.9857	0.7102	-0.771
Mof_H 	H 	0.9751	0.0184	0.6609	0.214
Mof_H 	H 	0.0157	0.9945	0.7576	0.211
Mof_H 	H 	0.9909	0.9513	0.6659	0.235
Mof_Mg	Mg	0.12983	0.54234	0.9999	1.485
Mof_Mg	Mg	0.22607	0.45134	0.0396	1.491
Mof_O 	O 	0.17414	0.59824	0.8923	-0.691
Mof_O 	O 	0.2256	0.671	0.828	-0.724
Mof_O 	O 	0.20407	0.53576	0.0994	-0.712
Mof_O 	O 	0.2779	0.55	0.2093	-0.61
Mof_O 	O 	0.0907	0.603	0.0912	-0.629
Mof_O 	O 	0.9992	0.5751	0.0869	-0.589
Mof_O 	O 	0.06059	0.533	0.8847	-0.743
Mof_O 	O 	0.1161	0.5266	0.735	-0.614
Mof_O 	O 	0.1732	0.4793	0.9222	-1.735
Mof_H 	H 	0.154	0.46	0.918	1.01
Mof_C 	C 	0.1797	0.6501	0.8712	0.677
Mof_C 	C 	0.1284	0.69	0.8913	-0.978
Mof_H 	H 	0.1169	0.6878	0.9694	0.289
Mof_H 	H 	0.1393	0.7297	0.8731	0.285
Mof_H 	H 	0.0961	0.678	0.8444	0.277
Mof_C 	C 	0.2358	0.5678	0.1578	0.797
Mof_C 	C 	0.2266	0.6303	0.1589	-1.121
Mof_H 	H 	0.2188	0.6437	0.0833	0.319
Mof_H 	H 	0.1936	0.6394	0.2065	0.331
Mof_H 	H 	0.2612	0.6495	0.1874	0.334
Mof_C 	C 	0.0387	0.6085	0.1154	0.64
Mof_C 	C 	0.0223	0.6607	0.1805	-1.016
Mof_H 	H 	0.0309	0.6542	0.259	0.276
Mof_H 	H 	0.0443	0.694	0.1537	0.273
Mof_H 	H 	0.981	0.6681	0.1715	0.313
Mof_C 	C 	0.0686	0.5249	0.7799	0.75
Mof_C 	C 	0.0174	0.5143	0.7102	-1.17
Mof_H 	H 	0.0249	0.4816	0.6609	0.33
Mof_H 	H 	0.9843	0.5055	0.7576	0.365
Mof_H 	H 	0.0091	0.5487	0.6659	0.317
Mof_Mg	Mg	0.62983	0.04234	0.4999	1.48
Mof_Mg	Mg	0.72607	0.95134	0.5396	1.495
Mof_O 	O 	0.67414	0.09824	0.3923	-0.702
Mof_O 	O 	0.7256	0.171	0.328	-0.725
Mof_O 	O 	0.70407	0.03576	0.5994	-0.722
Mof_O 	O 	0.7779	0.05	0.7093	-0.621
Mof_O 	O 	0.5907	0.103	0.5912	-0.627
Mof_O 	O 	0.4992	0.0751	0.5869	-0.628
Mof_O 	O 	0.56059	0.033	0.3847	-0.755
Mof_O 	O 	0.6161	0.0266	0.235	-0.636
Mof_O 	O 	0.6732	0.9793	0.4222	-1.712
Mof_H 	H 	0.654	0.96	0.418	0.997
Mof_C 	C 	0.6797	0.1501	0.3712	0.677
Mof_C 	C 	0.6284	0.19	0.3913	-0.976
Mof_H 	H 	0.6169	0.1878	0.4694	0.283
Mof_H 	H 	0.6393	0.2297	0.3731	0.284
Mof_H 	H 	0.5961	0.178	0.3444	0.279
Mof_C 	C 	0.7358	0.0678	0.6578	0.81
Mof_C 	C 	0.7266	0.1303	0.6589	-1.146
Mof_H 	H 	0.7188	0.1437	0.5833	0.336
Mof_H 	H 	0.6936	0.1394	0.7065	0.341
Mof_H 	H 	0.7612	0.1495	0.6874	0.346
Mof_C 	C 	0.5387	0.1085	0.6154	0.666
Mof_C 	C 	0.5223	0.1607	0.6805	-0.925
Mof_H 	H 	0.5309	0.1542	0.759	0.262
Mof_H 	H 	0.5443	0.194	0.6537	0.259
Mof_H 	H 	0.481	0.1681	0.6715	0.266
Mof_C 	C 	0.5686	0.0249	0.2799	0.758
Mof_C 	C 	0.5174	0.0143	0.2102	-1.196
Mof_H 	H 	0.5249	0.9816	0.1609	0.372
Mof_H 	H 	0.4843	0.0055	0.2576	0.335
Mof_H 	H 	0.5091	0.0487	0.1659	0.328
Mof_Mg	Mg	0.79234	0.12017	0.2499	1.482
Mof_Mg	Mg	0.70134	0.02393	0.2896	1.491
Mof_O 	O 	0.84824	0.07586	0.1423	-0.711
Mof_O 	O 	0.921	0.0244	0.078	-0.749
Mof_O 	O 	0.78576	0.04593	0.3494	-0.711
Mof_O 	O 	0.8	0.9721	0.4593	-0.582
Mof_O 	O 	0.853	0.1593	0.3412	-0.625
Mof_O 	O 	0.8251	0.2508	0.3369	-0.621
Mof_O 	O 	0.783	0.18941	0.1347	-0.697
Mof_O 	O 	0.7766	0.1339	0.985	-0.536
Mof_O 	O 	0.7293	0.0768	0.1722	-1.769
Mof_H 	H 	0.71	0.096	0.168	1.017
Mof_C 	C 	0.9001	0.0703	0.1212	0.68
Mof_C 	C 	0.94	0.1216	0.1413	-0.997
Mof_H 	H 	0.9378	0.1331	0.2194	0.293
Mof_H 	H 	0.9797	0.1107	0.1231	0.298
Mof_H 	H 	0.928	0.1539	0.0944	0.285
Mof_C 	C 	0.8178	0.0142	0.4078	0.793
Mof_C 	C 	0.8803	0.0234	0.4089	-1.245
Mof_H 	H 	0.8937	0.0312	0.3333	0.359
Mof_H 	H 	0.8894	0.0564	0.4565	0.368
Mof_H 	H 	0.8995	0.9888	0.4374	0.401
Mof_C 	C 	0.8585	0.2113	0.3654	0.671
Mof_C 	C 	0.9107	0.2277	0.4305	-0.939
Mof_H 	H 	0.9042	0.2191	0.509	0.269
Mof_H 	H 	0.944	0.2057	0.4037	0.27
Mof_H 	H 	0.9181	0.269	0.4215	0.276
Mof_C 	C 	0.7749	0.1814	0.0299	0.572
Mof_C 	C 	0.7643	0.2326	0.9602	-0.78
Mof_H 	H 	0.7316	0.2251	0.9109	0.235
Mof_H 	H 	0.7555	0.2657	0.0076	0.209
Mof_H 	H 	0.7987	0.2409	0.9159	0.228
Mof_Mg	Mg	0.29234	0.62017	0.7499	1.482
Mof_Mg	Mg	0.20134	0.52393	0.7896	1.494
Mof_O 	O 	0.34824	0.57586	0.6423	-0.697
Mof_O 	O 	0.421	0.5244	0.578	-0.724
Mof_O 	O 	0.28576	0.54593	0.8494	-0.702
Mof_O 	O 	0.3	0.4721	0.9593	-0.599
Mof_O 	O 	0.353	0.6593	0.8412	-0.612
Mof_O 	O 	0.3251	0.7508	0.8369	-0.61
Mof_O 	O 	0.283	0.68941	0.6347	-0.73
Mof_O 	O 	0.2766	0.6339	0.485	-0.602
Mof_O 	O 	0.2293	0.5768	0.6722	-1.745
Mof_H 	H 	0.21	0.596	0.668	1.009
Mof_C 	C 	0.4001	0.5703	0.6212	0.676
Mof_C 	C 	0.44	0.6216	0.6413	-0.977
Mof_H 	H 	0.4378	0.6331	0.7194	0.284
Mof_H 	H 	0.4797	0.6107	0.6231	0.285
Mof_H 	H 	0.428	0.6539	0.5944	0.281
Mof_C 	C 	0.3178	0.5142	0.9078	0.809
Mof_C 	C 	0.3803	0.5234	0.9089	-1.146
Mof_H 	H 	0.3937	0.5312	0.8333	0.337
Mof_H 	H 	0.3894	0.5564	0.9565	0.347
Mof_H 	H 	0.3995	0.4888	0.9374	0.351
Mof_C 	C 	0.3585	0.7113	0.8654	0.639
Mof_C 	C 	0.4107	0.7277	0.9305	-0.832
Mof_H 	H 	0.4042	0.7191	0.009	0.218
Mof_H 	H 	0.444	0.7057	0.9037	0.237
Mof_H 	H 	0.4181	0.769	0.9215	0.245
Mof_C 	C 	0.2749	0.6814	0.5299	0.711
Mof_C 	C 	0.2643	0.7326	0.4602	-1.031
Mof_H 	H 	0.2316	0.7251	0.4109	0.299
Mof_H 	H 	0.2555	0.7657	0.5076	0.3
Mof_H 	H 	0.2987	0.7409	0.4159	0.291
Mof_Mg	Mg	0.70766	0.87983	0.7499	1.482
Mof_Mg	Mg	0.79866	0.97607	0.7896	1.496
Mof_O 	O 	0.65176	0.92414	0.6423	-0.691
Mof_O 	O 	0.579	0.9756	0.578	-0.705
Mof_O 	O 	0.71424	0.95407	0.8494	-0.697
Mof_O 	O 	0.7	0.0279	0.9593	-0.618
Mof_O 	O 	0.647	0.8407	0.8412	-0.613
Mof_O 	O 	0.6749	0.7492	0.8369	-0.611
Mof_O 	O 	0.717	0.81059	0.6347	-0.73
Mof_O 	O 	0.7234	0.8661	0.485	-0.6
Mof_O 	O 	0.7707	0.9232	0.6722	-1.735
Mof_H 	H 	0.79	0.904	0.668	1.005
Mof_C 	C 	0.5999	0.9297	0.6212	0.673
Mof_C 	C 	0.56	0.8784	0.6413	-0.972
Mof_H 	H 	0.5622	0.8669	0.7194	0.283
Mof_H 	H 	0.5203	0.8893	0.6231	0.283
Mof_H 	H 	0.572	0.8461	0.5944	0.279
Mof_C 	C 	0.6822	0.9858	0.9078	0.817
Mof_C 	C 	0.6197	0.9766	0.9089	-1.068
Mof_H 	H 	0.6063	0.9688	0.8333	0.321
Mof_H 	H 	0.6106	0.9436	0.9565	0.327
Mof_H 	H 	0.6005	0.0112	0.9374	0.311
Mof_C 	C 	0.6415	0.7887	0.8654	0.641
Mof_C 	C 	0.5893	0.7723	0.9305	-0.842
Mof_H 	H 	0.5958	0.7809	0.009	0.222
Mof_H 	H 	0.556	0.7943	0.9037	0.24
Mof_H 	H 	0.5819	0.731	0.9215	0.247
Mof_C 	C 	0.7251	0.8186	0.5299	0.712
Mof_C 	C 	0.7357	0.7674	0.4602	-1.033
Mof_H 	H 	0.7684	0.7749	0.4109	0.301
Mof_H 	H 	0.7445	0.7343	0.5076	0.3
Mof_H 	H 	0.7013	0.7591	0.4159	0.292
Mof_Mg	Mg	0.20766	0.37983	0.2499	1.482
Mof_Mg	Mg	0.29866	0.47607	0.2896	1.494
Mof_O 	O 	0.15176	0.42414	0.1423	-0.7
Mof_O 	O 	0.079	0.4756	0.078	-0.735
Mof_O 	O 	0.21424	0.45407	0.3494	-0.701
Mof_O 	O 	0.2	0.5279	0.4593	-0.607
Mof_O 	O 	0.147	0.3407	0.3412	-0.621
Mof_O 	O 	0.1749	0.2492	0.3369	-0.618
Mof_O 	O 	0.217	0.31059	0.1347	-0.696
Mof_O 	O 	0.2234	0.3661	0.985	-0.534
Mof_O 	O 	0.2707	0.4232	0.1722	-1.753
Mof_H 	H 	0.29	0.404	0.168	1.01
Mof_C 	C 	0.0999	0.4297	0.1212	0.664
Mof_C 	C 	0.06	0.3784	0.1413	-0.946
Mof_H 	H 	0.0622	0.3669	0.2194	0.268
Mof_H 	H 	0.0203	0.3893	0.1231	0.258
Mof_H 	H 	0.072	0.3461	0.0944	0.261
Mof_C 	C 	0.1822	0.4858	0.4078	0.799
Mof_C 	C 	0.1197	0.4766	0.4089	-1.122
Mof_H 	H 	0.1063	0.4688	0.3333	0.327
Mof_H 	H 	0.1106	0.4436	0.4565	0.33
Mof_H 	H 	0.1005	0.5112	0.4374	0.333
Mof_C 	C 	0.1415	0.2887	0.3654	0.654
Mof_C 	C 	0.0893	0.2723	0.4305	-0.896
Mof_H 	H 	0.0958	0.2809	0.509	0.248
Mof_H 	H 	0.056	0.2943	0.4037	0.241
Mof_H 	H 	0.0819	0.231	0.4215	0.25
Mof_C 	C 	0.2251	0.3186	0.0299	0.568
Mof_C 	C 	0.2357	0.2674	0.9602	-0.765
Mof_H 	H 	0.2684	0.2749	0.9109	0.231
Mof_H 	H 	0.2445	0.2343	0.0076	0.203
Mof_H 	H 	0.2013	0.2591	0.9159	0.224
Mof_Mg	Mg	0.5	0.5	0.5	1.476
Mof_Mg	Mg	-0	0	-0	1.466
Mof_Mg	Mg	-0	0.5	-0	1.47
Mof_Mg	Mg	0.5	1.94417e-33	0.5	1.473
Mof_Mg	Mg	0.25	0.75	0.75	1.476
Mof_Mg	Mg	0.25	0.25	0.25	1.476
Mof_Mg	Mg	0.75	0.25	0.25	1.476
Mof_Mg	Mg	0.75	0.75	0.75	1.476
_end
