data_functionalizedCrystal
_audit_creation_method	'EQeq! by Chris Wilmer'
_symmetry_space_group_name_H-M	'P1'
_symmetry_Int_Tables_number	1
_symmetry_cell_setting	triclinic
loop_
_symmetry_equiv_pos_as_xyz
  x,y,z
_cell_length_a	9.53
_cell_length_b	12.5401
_cell_length_c	18.8719
_cell_angle_alpha	105.932
_cell_angle_beta	98.86
_cell_angle_gamma	100.482
loop_
_atom_site_label
_atom_site_type_symbol
_atom_site_fract_x
_atom_site_fract_y
_atom_site_fract_z
_atom_site_charge
Mof_Pr	Pr	0.76582	0.48222	0.49636	2.471
Mof_O 	O 	0.4563	0.5298	0.58667	-0.689
Mof_O 	O 	0.6867	0.5198	0.61744	-0.608
Mof_N 	N 	0.0035	0.6519	0.1816	-0.111
Mof_N 	N 	0.5673	0.6629	0.8663	-0.109
Mof_N 	N 	0.957	0.11	0.1741	-0.107
Mof_O 	O 	0.7668	0.3198	0.3856	-0.551
Mof_C 	C 	0.9054	0.9201	0.0733	-0.154
Mof_C 	C 	0.9799	0.8492	0.1016	0.197
Mof_C 	C 	0.5681	0.5381	0.6327	0.529
Mof_O 	O 	0.0063	0.3913	0.4249	-0.648
Mof_C 	C 	0.9226	0.7319	0.078	-0.155
Mof_O 	O 	0.8612	0.5694	0.405	-0.577
Mof_C 	C 	0.7726	0.8758	0.0225	0.177
Mof_C 	C 	0.9207	0.2434	0.3074	-0.14
Mof_C 	C 	0.7102	0.7557	0.0013	-0.144
Mof_C 	C 	0.6914	0.5982	0.7707	0.003
Mof_H 	H 	0.7784	0.582	0.7563	0.034
Mof_C 	C 	0.4395	0.5979	0.74	0.014
Mof_H 	H 	0.351	0.5828	0.7041	0.025
Mof_C 	C 	0.5657	0.5786	0.7163	-0.157
Mof_C 	C 	0.8958	0.3239	0.3785	0.474
Mof_C 	C 	0.4429	0.639	0.8156	-0.015
Mof_H 	H 	0.3559	0.6505	0.832	0.031
Mof_C 	C 	0.7865	0.6845	0.0284	0.193
Mof_C 	C 	0.1244	0.8995	0.1588	-0.535
Mof_H 	H 	0.1624	0.8379	0.1714	0.179
Mof_H 	H 	0.1091	0.9518	0.2047	0.179
Mof_H 	H 	0.1947	0.9414	0.1374	0.168
Mof_C 	C 	0.8691	0.6343	0.2736	-0.005
Mof_H 	H 	0.7795	0.6314	0.2899	0.027
Mof_C 	C 	0.9896	0.6252	0.3187	-0.129
Mof_C 	C 	0.0091	0.6545	0.1011	-0.01
Mof_H 	H 	0.112	0.6802	0.0983	0.019
Mof_H 	H 	0.9704	0.5763	0.0654	0.023
Mof_C 	C 	0.0579	0.2368	0.2966	0.021
Mof_H 	H 	0.1412	0.2775	0.3357	-0.013
Mof_C 	C 	0.689	0.6415	0.8459	-0.009
Mof_H 	H 	0.775	0.656	0.8834	0.036
Mof_C 	C 	0.0738	0.1708	0.2288	-0.023
Mof_H 	H 	0.1691	0.1682	0.2203	0.028
Mof_C 	C 	0.9755	0.0458	0.0971	-0.007
Mof_H 	H 	0.9321	0.0789	0.0595	0.027
Mof_H 	H 	0.0811	0.056	0.0975	0.028
Mof_C 	C 	0.1207	0.6312	0.294	-0.002
Mof_H 	H 	0.2061	0.6263	0.3252	0.024
Mof_C 	C 	0.1254	0.6442	0.2243	-0.01
Mof_H 	H 	0.2136	0.6476	0.2066	0.021
Mof_C 	C 	0.8773	0.6477	0.2039	0
Mof_H 	H 	0.7936	0.654	0.1722	0.026
Mof_C 	C 	0.7993	0.1771	0.2516	-0.008
Mof_H 	H 	0.7033	0.1778	0.2594	0.032
Mof_C 	C 	0.6867	0.948	0.9888	-0.497
Mof_H 	H 	0.6012	0.9544	0.0112	0.155
Mof_H 	H 	0.6545	0.9118	0.9341	0.164
Mof_H 	H 	0.7492	0.0243	0.9994	0.159
Mof_C 	C 	0.8215	0.1095	0.184	-0
Mof_H 	H 	0.7402	0.0632	0.1451	0.025
Mof_C 	C 	0.5617	0.7072	0.9503	-0.018
Mof_H 	H 	0.5053	0.7669	0.9571	0.028
Mof_H 	H 	0.5096	0.6437	0.9651	0.022
Mof_C 	C 	0.7237	0.5568	0.0033	-0.545
Mof_H 	H 	0.7964	0.5172	0.9842	0.178
Mof_H 	H 	0.6359	0.5368	0.9632	0.181
Mof_H 	H 	0.6983	0.5339	0.0462	0.178
Mof_O 	O 	0.1067	0.6255	0.4386	-0.598
Mof_C 	C 	0.9845	0.6059	0.3951	0.497
Mof_Pr	Pr	0.23418	0.51778	0.50364	2.472
Mof_O 	O 	0.5437	0.4702	0.41333	-0.688
Mof_O 	O 	0.3133	0.4802	0.38256	-0.608
Mof_N 	N 	0.9965	0.3481	0.8184	-0.111
Mof_N 	N 	0.4327	0.3371	0.1337	-0.109
Mof_N 	N 	0.043	0.89	0.8259	-0.107
Mof_O 	O 	0.2332	0.6802	0.6144	-0.551
Mof_C 	C 	0.0946	0.0799	0.9267	-0.154
Mof_C 	C 	0.0201	0.1508	0.8984	0.197
Mof_C 	C 	0.4319	0.4619	0.3673	0.529
Mof_O 	O 	0.9937	0.6087	0.5751	-0.648
Mof_C 	C 	0.0774	0.2681	0.922	-0.155
Mof_O 	O 	0.1388	0.4306	0.595	-0.577
Mof_C 	C 	0.2274	0.1242	0.9775	0.177
Mof_C 	C 	0.0793	0.7566	0.6926	-0.14
Mof_C 	C 	0.2898	0.2443	0.9987	-0.144
Mof_C 	C 	0.3086	0.4018	0.2293	0.003
Mof_H 	H 	0.2216	0.418	0.2437	0.034
Mof_C 	C 	0.5605	0.4021	0.26	0.014
Mof_H 	H 	0.649	0.4172	0.2959	0.025
Mof_C 	C 	0.4343	0.4214	0.2837	-0.157
Mof_C 	C 	0.1042	0.6761	0.6215	0.474
Mof_C 	C 	0.5571	0.361	0.1844	-0.015
Mof_H 	H 	0.6441	0.3495	0.168	0.031
Mof_C 	C 	0.2135	0.3155	0.9716	0.193
Mof_C 	C 	0.8756	0.1005	0.8412	-0.535
Mof_H 	H 	0.8376	0.1621	0.8286	0.179
Mof_H 	H 	0.8909	0.0482	0.7953	0.179
Mof_H 	H 	0.8053	0.0586	0.8626	0.168
Mof_C 	C 	0.1309	0.3657	0.7264	-0.005
Mof_H 	H 	0.2205	0.3686	0.7101	0.027
Mof_C 	C 	0.0104	0.3748	0.6813	-0.129
Mof_C 	C 	0.9909	0.3455	0.8989	-0.01
Mof_H 	H 	0.888	0.3198	0.9017	0.019
Mof_H 	H 	0.0296	0.4237	0.9346	0.023
Mof_C 	C 	0.9421	0.7632	0.7034	0.021
Mof_H 	H 	0.8588	0.7225	0.6643	-0.013
Mof_C 	C 	0.311	0.3585	0.1541	-0.009
Mof_H 	H 	0.225	0.344	0.1166	0.036
Mof_C 	C 	0.9262	0.8292	0.7712	-0.023
Mof_H 	H 	0.8309	0.8318	0.7797	0.028
Mof_C 	C 	0.0245	0.9542	0.9029	-0.007
Mof_H 	H 	0.0679	0.9211	0.9405	0.027
Mof_H 	H 	0.9189	0.944	0.9025	0.028
Mof_C 	C 	0.8793	0.3688	0.706	-0.002
Mof_H 	H 	0.7939	0.3737	0.6748	0.024
Mof_C 	C 	0.8746	0.3558	0.7757	-0.01
Mof_H 	H 	0.7864	0.3524	0.7934	0.021
Mof_C 	C 	0.1227	0.3523	0.7961	0
Mof_H 	H 	0.2064	0.346	0.8278	0.026
Mof_C 	C 	0.2007	0.8229	0.7484	-0.008
Mof_H 	H 	0.2967	0.8222	0.7406	0.032
Mof_C 	C 	0.3133	0.052	0.0112	-0.497
Mof_H 	H 	0.3988	0.0456	0.9888	0.155
Mof_H 	H 	0.3455	0.0882	0.0659	0.164
Mof_H 	H 	0.2508	0.9757	0.0006	0.159
Mof_C 	C 	0.1785	0.8905	0.816	-0
Mof_H 	H 	0.2598	0.9368	0.8549	0.025
Mof_C 	C 	0.4383	0.2928	0.0497	-0.018
Mof_H 	H 	0.4947	0.2331	0.0429	0.028
Mof_H 	H 	0.4904	0.3563	0.0349	0.022
Mof_C 	C 	0.2763	0.4432	0.9967	-0.545
Mof_H 	H 	0.2036	0.4828	0.0158	0.178
Mof_H 	H 	0.3641	0.4632	0.0368	0.181
Mof_H 	H 	0.3017	0.4661	0.9538	0.178
Mof_O 	O 	0.8933	0.3745	0.5614	-0.598
Mof_C 	C 	0.0155	0.3941	0.6049	0.497
_end
