data_functionalizedCrystal
_audit_creation_method	'EQeq! by Chris Wilmer'
_symmetry_space_group_name_H-M	'P1'
_symmetry_Int_Tables_number	1
_symmetry_cell_setting	triclinic
loop_
_symmetry_equiv_pos_as_xyz
  x,y,z
_cell_length_a	28.747
_cell_length_b	14.4478
_cell_length_c	13.3233
_cell_angle_alpha	90
_cell_angle_beta	99.76
_cell_angle_gamma	90
loop_
_atom_site_label
_atom_site_type_symbol
_atom_site_fract_x
_atom_site_fract_y
_atom_site_fract_z
_atom_site_charge
Mof_Gd	Gd	0.18286	0.71325	0.45891	1.761
Mof_O 	O 	0.1091	0.6832	0.515	-0.413
Mof_O 	O 	0.1225	0.8316	0.4971	-0.37
Mof_O 	O 	0.7061	0.0716	0.5532	-0.425
Mof_O 	O 	0.7688	0.1541	0.5411	-0.522
Mof_O 	O 	0.7986	0.7601	0.8702	-0.441
Mof_O 	O 	0.7279	0.8302	0.831	-0.461
Mof_O 	O 	0.14	0.7797	0.3066	-0.349
Mof_N 	N 	0.9017	0.919	0.6476	-0.121
Mof_N 	N 	0.1205	0.8789	0.1748	-0.015
Mof_C 	C 	0.0972	0.7667	0.5217	0.329
Mof_C 	C 	0.0521	0.788	0.5563	-0.123
Mof_C 	C 	0.0226	0.7146	0.5771	0.05
Mof_H 	H 	0.0317	0.6535	0.5701	0.024
Mof_C 	C 	0.9797	0.7345	0.6082	-0.145
Mof_H 	H 	0.9603	0.6862	0.6221	0.08
Mof_C 	C 	0.9658	0.8221	0.6183	0.092
Mof_C 	C 	0.9947	0.8952	0.5977	-0.145
Mof_H 	H 	0.9855	0.9561	0.6058	0.079
Mof_C 	C 	0.0368	0.8766	0.5652	0.053
Mof_H 	H 	0.0552	0.9255	0.5491	0.016
Mof_C 	C 	0.9188	0.8387	0.647	-0.032
Mof_H 	H 	0.902	0.788	0.67	0.044
Mof_C 	C 	0.7503	0.0819	0.5731	0.388
Mof_C 	C 	0.7803	0.0081	0.6276	-0.11
Mof_C 	C 	0.8273	0.9983	0.6153	-0.048
Mof_H 	H 	0.8404	0.0394	0.5743	0.06
Mof_C 	C 	0.8546	0.9257	0.6655	0.057
Mof_C 	C 	0.8364	0.8698	0.7341	-0.044
Mof_H 	H 	0.8555	0.8253	0.7712	0.059
Mof_C 	C 	0.7894	0.88	0.7476	-0.117
Mof_C 	C 	0.761	0.9473	0.6923	0.035
Mof_H 	H 	0.7293	0.952	0.6983	0.033
Mof_C 	C 	0.7703	0.8194	0.8196	0.411
Mof_C 	C 	0.1525	0.8206	0.2427	0.235
Mof_C 	C 	0.0745	0.8904	0.1961	-0.441
Mof_H 	H 	0.0696	0.8483	0.249	0.176
Mof_H 	H 	0.052	0.8779	0.1358	0.166
Mof_H 	H 	0.0707	0.9528	0.2179	0.173
Mof_C 	C 	0.1413	0.9243	0.1064	-0.461
Mof_H 	H 	0.1729	0.9015	0.1092	0.165
Mof_H 	H 	0.1423	0.9892	0.1218	0.182
Mof_H 	H 	0.1236	0.9145	0.0394	0.182
Mof_O 	O 	0.153	0.788	0.302	-0.069
Mof_Gd	Gd	0.68286	0.21325	0.45891	1.762
Mof_O 	O 	0.6091	0.1832	0.515	-0.412
Mof_O 	O 	0.6225	0.3316	0.4971	-0.369
Mof_O 	O 	0.2061	0.5716	0.5532	-0.424
Mof_O 	O 	0.2688	0.6541	0.5411	-0.522
Mof_O 	O 	0.2986	0.2601	0.8702	-0.441
Mof_O 	O 	0.2279	0.3302	0.831	-0.461
Mof_O 	O 	0.64	0.2797	0.3066	-0.349
Mof_N 	N 	0.4017	0.419	0.6476	-0.121
Mof_N 	N 	0.6205	0.3789	0.1748	-0.015
Mof_C 	C 	0.5972	0.2667	0.5217	0.329
Mof_C 	C 	0.5521	0.288	0.5563	-0.123
Mof_C 	C 	0.5226	0.2146	0.5771	0.051
Mof_H 	H 	0.5317	0.1535	0.5701	0.024
Mof_C 	C 	0.4797	0.2345	0.6082	-0.145
Mof_H 	H 	0.4603	0.1862	0.6221	0.08
Mof_C 	C 	0.4658	0.3221	0.6183	0.092
Mof_C 	C 	0.4947	0.3952	0.5977	-0.145
Mof_H 	H 	0.4855	0.4561	0.6058	0.08
Mof_C 	C 	0.5368	0.3766	0.5652	0.053
Mof_H 	H 	0.5552	0.4255	0.5491	0.016
Mof_C 	C 	0.4188	0.3387	0.647	-0.032
Mof_H 	H 	0.402	0.288	0.67	0.044
Mof_C 	C 	0.2503	0.5819	0.5731	0.389
Mof_C 	C 	0.2803	0.5081	0.6276	-0.112
Mof_C 	C 	0.3273	0.4983	0.6153	-0.046
Mof_H 	H 	0.3404	0.5394	0.5743	0.059
Mof_C 	C 	0.3546	0.4257	0.6655	0.056
Mof_C 	C 	0.3364	0.3698	0.7341	-0.043
Mof_H 	H 	0.3555	0.3253	0.7712	0.059
Mof_C 	C 	0.2894	0.38	0.7476	-0.118
Mof_C 	C 	0.261	0.4473	0.6923	0.036
Mof_H 	H 	0.2293	0.452	0.6983	0.033
Mof_C 	C 	0.2703	0.3194	0.8196	0.412
Mof_C 	C 	0.6525	0.3206	0.2427	0.235
Mof_C 	C 	0.5745	0.3904	0.1961	-0.44
Mof_H 	H 	0.5696	0.3483	0.249	0.175
Mof_H 	H 	0.552	0.3779	0.1358	0.165
Mof_H 	H 	0.5707	0.4528	0.2179	0.172
Mof_C 	C 	0.6413	0.4243	0.1064	-0.459
Mof_H 	H 	0.6729	0.4015	0.1092	0.164
Mof_H 	H 	0.6423	0.4892	0.1218	0.181
Mof_H 	H 	0.6236	0.4145	0.0394	0.181
Mof_O 	O 	0.653	0.288	0.302	-0.069
Mof_Gd	Gd	0.81714	0.71325	0.04109	1.763
Mof_O 	O 	0.8909	0.6832	0.985	-0.412
Mof_O 	O 	0.8775	0.8316	0.0029	-0.368
Mof_O 	O 	0.2939	0.0716	0.9468	-0.423
Mof_O 	O 	0.2312	0.1541	0.9589	-0.521
Mof_O 	O 	0.2014	0.7601	0.6298	-0.441
Mof_O 	O 	0.2721	0.8302	0.669	-0.461
Mof_O 	O 	0.86	0.7797	0.1934	-0.35
Mof_N 	N 	0.0983	0.919	0.8524	-0.122
Mof_N 	N 	0.8795	0.8789	0.3252	-0.015
Mof_C 	C 	0.9028	0.7667	0.9783	0.328
Mof_C 	C 	0.9479	0.788	0.9437	-0.124
Mof_C 	C 	0.9774	0.7146	0.9229	0.051
Mof_H 	H 	0.9683	0.6535	0.9299	0.024
Mof_C 	C 	0.0203	0.7345	0.8918	-0.146
Mof_H 	H 	0.0397	0.6862	0.8779	0.08
Mof_C 	C 	0.0342	0.8221	0.8817	0.092
Mof_C 	C 	0.0053	0.8952	0.9023	-0.146
Mof_H 	H 	0.0145	0.9561	0.8942	0.079
Mof_C 	C 	0.9632	0.8766	0.9348	0.054
Mof_H 	H 	0.9448	0.9255	0.9509	0.015
Mof_C 	C 	0.0812	0.8387	0.853	-0.033
Mof_H 	H 	0.098	0.788	0.83	0.044
Mof_C 	C 	0.2497	0.0819	0.9269	0.387
Mof_C 	C 	0.2197	0.0081	0.8724	-0.106
Mof_C 	C 	0.1727	0.9983	0.8847	-0.053
Mof_H 	H 	0.1596	0.0394	0.9257	0.062
Mof_C 	C 	0.1454	0.9257	0.8345	0.059
Mof_C 	C 	0.1636	0.8698	0.7659	-0.046
Mof_H 	H 	0.1445	0.8253	0.7288	0.06
Mof_C 	C 	0.2106	0.88	0.7524	-0.115
Mof_C 	C 	0.239	0.9473	0.8077	0.032
Mof_H 	H 	0.2707	0.952	0.8017	0.034
Mof_C 	C 	0.2297	0.8194	0.6804	0.411
Mof_C 	C 	0.8475	0.8206	0.2573	0.235
Mof_C 	C 	0.9255	0.8904	0.3039	-0.441
Mof_H 	H 	0.9304	0.8483	0.251	0.176
Mof_H 	H 	0.948	0.8779	0.3642	0.166
Mof_H 	H 	0.9293	0.9528	0.2821	0.173
Mof_C 	C 	0.8587	0.9243	0.3936	-0.46
Mof_H 	H 	0.8271	0.9015	0.3908	0.164
Mof_H 	H 	0.8577	0.9892	0.3782	0.181
Mof_H 	H 	0.8764	0.9145	0.4606	0.181
Mof_O 	O 	0.847	0.788	0.198	-0.069
Mof_Gd	Gd	0.31714	0.21325	0.04109	1.76
Mof_O 	O 	0.3909	0.1832	0.985	-0.412
Mof_O 	O 	0.3775	0.3316	0.0029	-0.37
Mof_O 	O 	0.7939	0.5716	0.9468	-0.424
Mof_O 	O 	0.7312	0.6541	0.9589	-0.522
Mof_O 	O 	0.7014	0.2601	0.6298	-0.441
Mof_O 	O 	0.7721	0.3302	0.669	-0.461
Mof_O 	O 	0.36	0.2797	0.1934	-0.349
Mof_N 	N 	0.5983	0.419	0.8524	-0.121
Mof_N 	N 	0.3795	0.3789	0.3252	-0.015
Mof_C 	C 	0.4028	0.2667	0.9783	0.329
Mof_C 	C 	0.4479	0.288	0.9437	-0.124
Mof_C 	C 	0.4774	0.2146	0.9229	0.051
Mof_H 	H 	0.4683	0.1535	0.9299	0.024
Mof_C 	C 	0.5203	0.2345	0.8918	-0.145
Mof_H 	H 	0.5397	0.1862	0.8779	0.08
Mof_C 	C 	0.5342	0.3221	0.8817	0.092
Mof_C 	C 	0.5053	0.3952	0.9023	-0.145
Mof_H 	H 	0.5145	0.4561	0.8942	0.08
Mof_C 	C 	0.4632	0.3766	0.9348	0.053
Mof_H 	H 	0.4448	0.4255	0.9509	0.016
Mof_C 	C 	0.5812	0.3387	0.853	-0.032
Mof_H 	H 	0.598	0.288	0.83	0.044
Mof_C 	C 	0.7497	0.5819	0.9269	0.389
Mof_C 	C 	0.7197	0.5081	0.8724	-0.112
Mof_C 	C 	0.6727	0.4983	0.8847	-0.046
Mof_H 	H 	0.6596	0.5394	0.9257	0.059
Mof_C 	C 	0.6454	0.4257	0.8345	0.056
Mof_C 	C 	0.6636	0.3698	0.7659	-0.043
Mof_H 	H 	0.6445	0.3253	0.7288	0.059
Mof_C 	C 	0.7106	0.38	0.7524	-0.118
Mof_C 	C 	0.739	0.4473	0.8077	0.036
Mof_H 	H 	0.7707	0.452	0.8017	0.033
Mof_C 	C 	0.7297	0.3194	0.6804	0.412
Mof_C 	C 	0.3475	0.3206	0.2573	0.235
Mof_C 	C 	0.4255	0.3904	0.3039	-0.44
Mof_H 	H 	0.4304	0.3483	0.251	0.175
Mof_H 	H 	0.448	0.3779	0.3642	0.166
Mof_H 	H 	0.4293	0.4528	0.2821	0.172
Mof_C 	C 	0.3587	0.4243	0.3936	-0.459
Mof_H 	H 	0.3271	0.4015	0.3908	0.164
Mof_H 	H 	0.3577	0.4892	0.3782	0.181
Mof_H 	H 	0.3764	0.4145	0.4606	0.181
Mof_O 	O 	0.347	0.288	0.198	-0.069
Mof_Gd	Gd	0.81714	0.28675	0.54109	1.762
Mof_O 	O 	0.8909	0.3168	0.485	-0.412
Mof_O 	O 	0.8775	0.1684	0.5029	-0.369
Mof_O 	O 	0.2939	0.9284	0.4468	-0.424
Mof_O 	O 	0.2312	0.8459	0.4589	-0.522
Mof_O 	O 	0.2014	0.2399	0.1298	-0.441
Mof_O 	O 	0.2721	0.1698	0.169	-0.461
Mof_O 	O 	0.86	0.2203	0.6934	-0.349
Mof_N 	N 	0.0983	0.081	0.3524	-0.121
Mof_N 	N 	0.8795	0.1211	0.8252	-0.015
Mof_C 	C 	0.9028	0.2333	0.4783	0.329
Mof_C 	C 	0.9479	0.212	0.4437	-0.123
Mof_C 	C 	0.9774	0.2854	0.4229	0.05
Mof_H 	H 	0.9683	0.3465	0.4299	0.024
Mof_C 	C 	0.0203	0.2655	0.3918	-0.145
Mof_H 	H 	0.0397	0.3138	0.3779	0.08
Mof_C 	C 	0.0342	0.1779	0.3817	0.092
Mof_C 	C 	0.0053	0.1048	0.4023	-0.145
Mof_H 	H 	0.0145	0.0439	0.3942	0.079
Mof_C 	C 	0.9632	0.1234	0.4348	0.053
Mof_H 	H 	0.9448	0.0745	0.4509	0.016
Mof_C 	C 	0.0812	0.1613	0.353	-0.032
Mof_H 	H 	0.098	0.212	0.33	0.044
Mof_C 	C 	0.2497	0.9181	0.4269	0.388
Mof_C 	C 	0.2197	0.9919	0.3724	-0.11
Mof_C 	C 	0.1727	0.0017	0.3847	-0.048
Mof_H 	H 	0.1596	0.9606	0.4257	0.06
Mof_C 	C 	0.1454	0.0743	0.3345	0.057
Mof_C 	C 	0.1636	0.1302	0.2659	-0.044
Mof_H 	H 	0.1445	0.1747	0.2288	0.059
Mof_C 	C 	0.2106	0.12	0.2524	-0.117
Mof_C 	C 	0.239	0.0527	0.3077	0.035
Mof_H 	H 	0.2707	0.048	0.3017	0.033
Mof_C 	C 	0.2297	0.1806	0.1804	0.411
Mof_C 	C 	0.8475	0.1794	0.7573	0.235
Mof_C 	C 	0.9255	0.1096	0.8039	-0.441
Mof_H 	H 	0.9304	0.1517	0.751	0.176
Mof_H 	H 	0.948	0.1221	0.8642	0.166
Mof_H 	H 	0.9293	0.0472	0.7821	0.173
Mof_C 	C 	0.8587	0.0757	0.8936	-0.461
Mof_H 	H 	0.8271	0.0985	0.8908	0.165
Mof_H 	H 	0.8577	0.0108	0.8782	0.182
Mof_H 	H 	0.8764	0.0855	0.9606	0.182
Mof_O 	O 	0.847	0.212	0.698	-0.069
Mof_Gd	Gd	0.31714	0.78675	0.54109	1.762
Mof_O 	O 	0.3909	0.8168	0.485	-0.412
Mof_O 	O 	0.3775	0.6684	0.5029	-0.369
Mof_O 	O 	0.7939	0.4284	0.4468	-0.424
Mof_O 	O 	0.7312	0.3459	0.4589	-0.522
Mof_O 	O 	0.7014	0.7399	0.1298	-0.441
Mof_O 	O 	0.7721	0.6698	0.169	-0.461
Mof_O 	O 	0.36	0.7203	0.6934	-0.349
Mof_N 	N 	0.5983	0.581	0.3524	-0.121
Mof_N 	N 	0.3795	0.6211	0.8252	-0.015
Mof_C 	C 	0.4028	0.7333	0.4783	0.329
Mof_C 	C 	0.4479	0.712	0.4437	-0.123
Mof_C 	C 	0.4774	0.7854	0.4229	0.051
Mof_H 	H 	0.4683	0.8465	0.4299	0.024
Mof_C 	C 	0.5203	0.7655	0.3918	-0.145
Mof_H 	H 	0.5397	0.8138	0.3779	0.08
Mof_C 	C 	0.5342	0.6779	0.3817	0.092
Mof_C 	C 	0.5053	0.6048	0.4023	-0.145
Mof_H 	H 	0.5145	0.5439	0.3942	0.08
Mof_C 	C 	0.4632	0.6234	0.4348	0.053
Mof_H 	H 	0.4448	0.5745	0.4509	0.016
Mof_C 	C 	0.5812	0.6613	0.353	-0.032
Mof_H 	H 	0.598	0.712	0.33	0.044
Mof_C 	C 	0.7497	0.4181	0.4269	0.389
Mof_C 	C 	0.7197	0.4919	0.3724	-0.112
Mof_C 	C 	0.6727	0.5017	0.3847	-0.046
Mof_H 	H 	0.6596	0.4606	0.4257	0.059
Mof_C 	C 	0.6454	0.5743	0.3345	0.056
Mof_C 	C 	0.6636	0.6302	0.2659	-0.043
Mof_H 	H 	0.6445	0.6747	0.2288	0.059
Mof_C 	C 	0.7106	0.62	0.2524	-0.118
Mof_C 	C 	0.739	0.5527	0.3077	0.036
Mof_H 	H 	0.7707	0.548	0.3017	0.033
Mof_C 	C 	0.7297	0.6806	0.1804	0.412
Mof_C 	C 	0.3475	0.6794	0.7573	0.235
Mof_C 	C 	0.4255	0.6096	0.8039	-0.44
Mof_H 	H 	0.4304	0.6517	0.751	0.175
Mof_H 	H 	0.448	0.6221	0.8642	0.165
Mof_H 	H 	0.4293	0.5472	0.7821	0.172
Mof_C 	C 	0.3587	0.5757	0.8936	-0.459
Mof_H 	H 	0.3271	0.5985	0.8908	0.164
Mof_H 	H 	0.3577	0.5108	0.8782	0.181
Mof_H 	H 	0.3764	0.5855	0.9606	0.181
Mof_O 	O 	0.347	0.712	0.698	-0.069
Mof_Gd	Gd	0.18286	0.28675	0.95891	1.763
Mof_O 	O 	0.1091	0.3168	0.015	-0.412
Mof_O 	O 	0.1225	0.1684	0.9971	-0.368
Mof_O 	O 	0.7061	0.9284	0.0532	-0.423
Mof_O 	O 	0.7688	0.8459	0.0411	-0.521
Mof_O 	O 	0.7986	0.2399	0.3702	-0.441
Mof_O 	O 	0.7279	0.1698	0.331	-0.461
Mof_O 	O 	0.14	0.2203	0.8066	-0.35
Mof_N 	N 	0.9017	0.081	0.1476	-0.122
Mof_N 	N 	0.1205	0.1211	0.6748	-0.015
Mof_C 	C 	0.0972	0.2333	0.0217	0.328
Mof_C 	C 	0.0521	0.212	0.0563	-0.124
Mof_C 	C 	0.0226	0.2854	0.0771	0.051
Mof_H 	H 	0.0317	0.3465	0.0701	0.024
Mof_C 	C 	0.9797	0.2655	0.1082	-0.146
Mof_H 	H 	0.9603	0.3138	0.1221	0.08
Mof_C 	C 	0.9658	0.1779	0.1183	0.092
Mof_C 	C 	0.9947	0.1048	0.0977	-0.146
Mof_H 	H 	0.9855	0.0439	0.1058	0.079
Mof_C 	C 	0.0368	0.1234	0.0652	0.054
Mof_H 	H 	0.0552	0.0745	0.0491	0.015
Mof_C 	C 	0.9188	0.1613	0.147	-0.033
Mof_H 	H 	0.902	0.212	0.17	0.044
Mof_C 	C 	0.7503	0.9181	0.0731	0.387
Mof_C 	C 	0.7803	0.9919	0.1276	-0.106
Mof_C 	C 	0.8273	0.0017	0.1153	-0.053
Mof_H 	H 	0.8404	0.9606	0.0743	0.062
Mof_C 	C 	0.8546	0.0743	0.1655	0.059
Mof_C 	C 	0.8364	0.1302	0.2341	-0.046
Mof_H 	H 	0.8555	0.1747	0.2712	0.06
Mof_C 	C 	0.7894	0.12	0.2476	-0.115
Mof_C 	C 	0.761	0.0527	0.1923	0.032
Mof_H 	H 	0.7293	0.048	0.1983	0.034
Mof_C 	C 	0.7703	0.1806	0.3196	0.411
Mof_C 	C 	0.1525	0.1794	0.7427	0.235
Mof_C 	C 	0.0745	0.1096	0.6961	-0.441
Mof_H 	H 	0.0696	0.1517	0.749	0.176
Mof_H 	H 	0.052	0.1221	0.6358	0.166
Mof_H 	H 	0.0707	0.0472	0.7179	0.173
Mof_C 	C 	0.1413	0.0757	0.6064	-0.46
Mof_H 	H 	0.1729	0.0985	0.6092	0.164
Mof_H 	H 	0.1423	0.0108	0.6218	0.181
Mof_H 	H 	0.1236	0.0855	0.5394	0.181
Mof_O 	O 	0.153	0.212	0.802	-0.069
Mof_Gd	Gd	0.68286	0.78675	0.95891	1.76
Mof_O 	O 	0.6091	0.8168	0.015	-0.412
Mof_O 	O 	0.6225	0.6684	0.9971	-0.37
Mof_O 	O 	0.2061	0.4284	0.0532	-0.424
Mof_O 	O 	0.2688	0.3459	0.0411	-0.522
Mof_O 	O 	0.2986	0.7399	0.3702	-0.441
Mof_O 	O 	0.2279	0.6698	0.331	-0.461
Mof_O 	O 	0.64	0.7203	0.8066	-0.349
Mof_N 	N 	0.4017	0.581	0.1476	-0.121
Mof_N 	N 	0.6205	0.6211	0.6748	-0.015
Mof_C 	C 	0.5972	0.7333	0.0217	0.329
Mof_C 	C 	0.5521	0.712	0.0563	-0.124
Mof_C 	C 	0.5226	0.7854	0.0771	0.051
Mof_H 	H 	0.5317	0.8465	0.0701	0.024
Mof_C 	C 	0.4797	0.7655	0.1082	-0.145
Mof_H 	H 	0.4603	0.8138	0.1221	0.08
Mof_C 	C 	0.4658	0.6779	0.1183	0.092
Mof_C 	C 	0.4947	0.6048	0.0977	-0.145
Mof_H 	H 	0.4855	0.5439	0.1058	0.08
Mof_C 	C 	0.5368	0.6234	0.0652	0.053
Mof_H 	H 	0.5552	0.5745	0.0491	0.016
Mof_C 	C 	0.4188	0.6613	0.147	-0.032
Mof_H 	H 	0.402	0.712	0.17	0.044
Mof_C 	C 	0.2503	0.4181	0.0731	0.389
Mof_C 	C 	0.2803	0.4919	0.1276	-0.112
Mof_C 	C 	0.3273	0.5017	0.1153	-0.046
Mof_H 	H 	0.3404	0.4606	0.0743	0.059
Mof_C 	C 	0.3546	0.5743	0.1655	0.056
Mof_C 	C 	0.3364	0.6302	0.2341	-0.043
Mof_H 	H 	0.3555	0.6747	0.2712	0.059
Mof_C 	C 	0.2894	0.62	0.2476	-0.118
Mof_C 	C 	0.261	0.5527	0.1923	0.036
Mof_H 	H 	0.2293	0.548	0.1983	0.033
Mof_C 	C 	0.2703	0.6806	0.3196	0.412
Mof_C 	C 	0.6525	0.6794	0.7427	0.235
Mof_C 	C 	0.5745	0.6096	0.6961	-0.44
Mof_H 	H 	0.5696	0.6517	0.749	0.175
Mof_H 	H 	0.552	0.6221	0.6358	0.166
Mof_H 	H 	0.5707	0.5472	0.7179	0.172
Mof_C 	C 	0.6413	0.5757	0.6064	-0.459
Mof_H 	H 	0.6729	0.5985	0.6092	0.164
Mof_H 	H 	0.6423	0.5108	0.6218	0.181
Mof_H 	H 	0.6236	0.5855	0.5394	0.181
Mof_O 	O 	0.653	0.712	0.802	-0.069
_end
