data_functionalizedCrystal
_audit_creation_method	'EQeq! by Chris Wilmer'
_symmetry_space_group_name_H-M	'P1'
_symmetry_Int_Tables_number	1
_symmetry_cell_setting	triclinic
loop_
_symmetry_equiv_pos_as_xyz
  x,y,z
_cell_length_a	20.773
_cell_length_b	7.3137
_cell_length_c	15.793
_cell_angle_alpha	90
_cell_angle_beta	90
_cell_angle_gamma	90
loop_
_atom_site_label
_atom_site_type_symbol
_atom_site_fract_x
_atom_site_fract_y
_atom_site_fract_z
_atom_site_charge
Mof_N 	N 	0.4321	0.3423	0.5573	-0.192
Mof_C 	C 	0.3854	0.6026	0.395	0.108
Mof_H 	H 	0.3748	0.4811	0.3846	-0.01
Mof_C 	C 	0.2992	0.884	0.242	-0.063
Mof_C 	C 	0.2573	0.887	0.32	-0.071
Mof_H 	H 	0.3301	0.982	0.2421	0.065
Mof_H 	H 	0.2608	0.9722	0.3661	0.068
Mof_N 	N 	0.9321	0.8423	0.0573	-0.196
Mof_C 	C 	0.8854	0.1026	0.895	0.044
Mof_H 	H 	0.8748	0.9811	0.8846	0.064
Mof_C 	C 	0.7992	0.384	0.742	-0.057
Mof_C 	C 	0.7573	0.387	0.82	-0.068
Mof_H 	H 	0.8301	0.482	0.7421	0.066
Mof_H 	H 	0.7608	0.4722	0.8661	0.072
Mof_N 	N 	0.5679	0.1577	0.5573	-0.182
Mof_C 	C 	0.6146	0.8974	0.395	0.187
Mof_H 	H 	0.6252	0.0189	0.3846	-0.064
Mof_C 	C 	0.7008	0.616	0.242	-0.061
Mof_C 	C 	0.7427	0.613	0.32	-0.072
Mof_H 	H 	0.6699	0.518	0.2421	0.05
Mof_H 	H 	0.7392	0.5278	0.3661	0.057
Mof_N 	N 	0.0679	0.6577	0.0573	-0.207
Mof_C 	C 	0.1146	0.3974	0.895	0.115
Mof_H 	H 	0.1252	0.5189	0.8846	0.007
Mof_C 	C 	0.2008	0.116	0.742	-0.058
Mof_C 	C 	0.2427	0.113	0.82	-0.07
Mof_H 	H 	0.1699	0.018	0.7421	0.045
Mof_H 	H 	0.2392	0.0278	0.8661	0.059
Mof_N 	N 	0.5679	0.8423	0.4427	-0.196
Mof_C 	C 	0.6146	0.1026	0.605	0.03
Mof_H 	H 	0.6252	0.9811	0.6154	0.054
Mof_C 	C 	0.7008	0.384	0.758	-0.049
Mof_C 	C 	0.7427	0.387	0.68	-0.066
Mof_H 	H 	0.6699	0.482	0.7579	0.065
Mof_H 	H 	0.7392	0.4722	0.6339	0.06
Mof_N 	N 	0.0679	0.3423	0.9427	-0.169
Mof_C 	C 	0.1146	0.6026	0.105	0.098
Mof_H 	H 	0.1252	0.4811	0.1154	-0.015
Mof_C 	C 	0.2008	0.884	0.258	-0.055
Mof_C 	C 	0.2427	0.887	0.18	-0.069
Mof_H 	H 	0.1699	0.982	0.2579	0.068
Mof_H 	H 	0.2392	0.9722	0.1339	0.056
Mof_N 	N 	0.4321	0.6577	0.4427	-0.191
Mof_C 	C 	0.3854	0.3974	0.605	0.108
Mof_H 	H 	0.3748	0.5189	0.6154	-0.002
Mof_C 	C 	0.2992	0.116	0.758	-0.049
Mof_C 	C 	0.2573	0.113	0.68	-0.072
Mof_H 	H 	0.3301	0.018	0.7579	0.05
Mof_H 	H 	0.2608	0.0278	0.6339	0.044
Mof_N 	N 	0.9321	0.1577	0.9427	-0.149
Mof_C 	C 	0.8854	0.8974	0.105	0.182
Mof_H 	H 	0.8748	0.0189	0.1154	-0.065
Mof_C 	C 	0.7992	0.616	0.258	-0.053
Mof_C 	C 	0.7573	0.613	0.18	-0.075
Mof_H 	H 	0.8301	0.518	0.2579	0.058
Mof_H 	H 	0.7608	0.5278	0.1339	0.043
Mof_N 	N 	0.5679	0.6577	0.4427	-0.191
Mof_C 	C 	0.6146	0.3974	0.605	0.108
Mof_H 	H 	0.6252	0.5189	0.6154	-0.002
Mof_C 	C 	0.7008	0.116	0.758	-0.049
Mof_C 	C 	0.7427	0.113	0.68	-0.07
Mof_H 	H 	0.6699	0.018	0.7579	0.05
Mof_H 	H 	0.7392	0.0278	0.6339	0.046
Mof_N 	N 	0.0679	0.1577	0.9427	-0.161
Mof_C 	C 	0.1146	0.8974	0.105	0.178
Mof_H 	H 	0.1252	0.0189	0.1154	-0.072
Mof_C 	C 	0.2008	0.616	0.258	-0.054
Mof_C 	C 	0.2427	0.613	0.18	-0.073
Mof_H 	H 	0.1699	0.518	0.2579	0.052
Mof_H 	H 	0.2392	0.5278	0.1339	0.042
Mof_N 	N 	0.4321	0.8423	0.4427	-0.196
Mof_C 	C 	0.3854	0.1026	0.605	0.03
Mof_H 	H 	0.3748	0.9811	0.6154	0.054
Mof_C 	C 	0.2992	0.384	0.758	-0.049
Mof_C 	C 	0.2573	0.387	0.68	-0.068
Mof_H 	H 	0.3301	0.482	0.7579	0.065
Mof_H 	H 	0.2608	0.4722	0.6339	0.058
Mof_N 	N 	0.9321	0.3423	0.9427	-0.157
Mof_C 	C 	0.8854	0.6026	0.105	0.104
Mof_H 	H 	0.8748	0.4811	0.1154	-0.01
Mof_C 	C 	0.7992	0.884	0.258	-0.053
Mof_C 	C 	0.7573	0.887	0.18	-0.071
Mof_H 	H 	0.8301	0.982	0.2579	0.073
Mof_H 	H 	0.7608	0.9722	0.1339	0.057
Mof_N 	N 	0.4321	0.1577	0.5573	-0.182
Mof_C 	C 	0.3854	0.8974	0.395	0.188
Mof_H 	H 	0.3748	0.0189	0.3846	-0.064
Mof_C 	C 	0.2992	0.616	0.242	-0.061
Mof_C 	C 	0.2573	0.613	0.32	-0.074
Mof_H 	H 	0.3301	0.518	0.2421	0.05
Mof_H 	H 	0.2608	0.5278	0.3661	0.054
Mof_N 	N 	0.9321	0.6577	0.0573	-0.191
Mof_C 	C 	0.8854	0.3974	0.895	0.119
Mof_H 	H 	0.8748	0.5189	0.8846	0.011
Mof_C 	C 	0.7992	0.116	0.742	-0.056
Mof_C 	C 	0.7573	0.113	0.82	-0.072
Mof_H 	H 	0.8301	0.018	0.7421	0.051
Mof_H 	H 	0.7608	0.0278	0.8661	0.059
Mof_N 	N 	0.5679	0.3423	0.5573	-0.191
Mof_C 	C 	0.6146	0.6026	0.395	0.109
Mof_H 	H 	0.6252	0.4811	0.3846	-0.008
Mof_C 	C 	0.7008	0.884	0.242	-0.061
Mof_C 	C 	0.7427	0.887	0.32	-0.068
Mof_H 	H 	0.6699	0.982	0.2421	0.066
Mof_H 	H 	0.7392	0.9722	0.3661	0.07
Mof_N 	N 	0.0679	0.8423	0.0573	-0.211
Mof_C 	C 	0.1146	0.1026	0.895	0.038
Mof_H 	H 	0.1252	0.9811	0.8846	0.062
Mof_C 	C 	0.2008	0.384	0.742	-0.058
Mof_C 	C 	0.2427	0.387	0.82	-0.067
Mof_H 	H 	0.1699	0.482	0.7421	0.06
Mof_H 	H 	0.2392	0.4722	0.8661	0.072
Mof_Br	Br	0.5	0.25	0.3641	-0.445
Mof_Br	Br	-2.79726e-33	0.75	0.8641	-0.381
Mof_Br	Br	0.5	0.75	0.6359	-0.387
Mof_Br	Br	-9.27714e-34	0.25	0.1359	-0.486
Mof_Cu	Cu	0.5	0.5	0.5	0.878
Mof_Cu	Cu	-0	0	-0	0.811
Mof_Cu	Cu	0.5	-1.05208e-32	0.5	0.86
Mof_Cu	Cu	-0	0.5	-0	0.829
Mof_N 	N 	0.3544	0.75	0.3623	-0.174
Mof_C 	C 	0.3019	0.75	0.3056	0.138
Mof_N 	N 	0.8544	0.25	0.8623	-0.146
Mof_C 	C 	0.8019	0.25	0.8056	0.13
Mof_N 	N 	0.6456	0.75	0.3623	-0.173
Mof_C 	C 	0.6981	0.75	0.3056	0.137
Mof_N 	N 	0.1456	0.25	0.8623	-0.147
Mof_C 	C 	0.1981	0.25	0.8056	0.127
Mof_N 	N 	0.6456	0.25	0.6377	-0.146
Mof_C 	C 	0.6981	0.25	0.6944	0.12
Mof_N 	N 	0.1456	0.75	0.1377	-0.174
Mof_C 	C 	0.1981	0.75	0.1944	0.13
Mof_N 	N 	0.3544	0.25	0.6377	-0.146
Mof_C 	C 	0.3019	0.25	0.6944	0.121
Mof_N 	N 	0.8544	0.75	0.1377	-0.172
Mof_C 	C 	0.8019	0.75	0.1944	0.133
_end
