data_functionalizedCrystal
_audit_creation_method	'EQeq! by Chris Wilmer'
_symmetry_space_group_name_H-M	'P1'
_symmetry_Int_Tables_number	1
_symmetry_cell_setting	triclinic
loop_
_symmetry_equiv_pos_as_xyz
  x,y,z
_cell_length_a	12.2015
_cell_length_b	12.3678
_cell_length_c	13.5203
_cell_angle_alpha	102.222
_cell_angle_beta	98.704
_cell_angle_gamma	106.48
loop_
_atom_site_label
_atom_site_type_symbol
_atom_site_fract_x
_atom_site_fract_y
_atom_site_fract_z
_atom_site_charge
Mof_Ce	Ce	0.32514	0.48091	0.45396	2.326
Mof_Ce	Ce	0.67486	0.51909	0.54604	2.326
Mof_H 	H 	0.0375	0.3567	0.1118	0.054
Mof_H 	H 	0.2022	0.6999	0.2058	0.036
Mof_H 	H 	0.8941	0.2785	0.9441	0.056
Mof_H 	H 	0.5851	0.2295	0.5438	-0.004
Mof_H 	H 	0.261	0.0511	0.3789	0.011
Mof_H 	H 	0.7118	0.1221	0.6091	0.061
Mof_H 	H 	0.3668	0.469	0.1342	0.043
Mof_H 	H 	0.7128	0.5311	0.2084	-0.006
Mof_H 	H 	0.2741	0.4623	0.9555	0.072
Mof_H 	H 	0.9625	0.6433	0.8882	0.054
Mof_H 	H 	0.7978	0.3001	0.7942	0.036
Mof_H 	H 	0.1059	0.7215	0.0559	0.056
Mof_H 	H 	0.4149	0.7705	0.4562	-0.004
Mof_H 	H 	0.739	0.9489	0.6211	0.011
Mof_H 	H 	0.2882	0.8779	0.3909	0.061
Mof_H 	H 	0.6332	0.531	0.8658	0.043
Mof_H 	H 	0.2872	0.4689	0.7916	-0.006
Mof_H 	H 	0.7259	0.5377	0.0445	0.072
Mof_C 	C 	0.1885	0.5091	0.2718	0.306
Mof_C 	C 	0.99	0.4429	0.0047	0.021
Mof_C 	C 	0.0516	0.4306	0.1006	-0.055
Mof_C 	C 	0.1275	0.5233	0.1725	-0.066
Mof_C 	C 	0.1486	0.6348	0.1563	-0.004
Mof_C 	C 	0.9104	0.3526	0.9332	-0.094
Mof_C 	C 	0.4022	0.2699	0.4527	0.49
Mof_C 	C 	0.5446	0.0523	0.5231	0.006
Mof_C 	C 	0.5255	0.1585	0.5132	0.017
Mof_C 	C 	0.4221	0.1572	0.4601	-0.176
Mof_C 	C 	0.3326	0.0517	0.4147	0.057
Mof_C 	C 	0.6513	0.0518	0.5777	-0.118
Mof_C 	C 	0.5275	0.4939	0.2973	0.511
Mof_C 	C 	0.4455	0.4886	0.0125	0.022
Mof_C 	C 	0.4388	0.4832	0.1156	-0.003
Mof_C 	C 	0.5365	0.4984	0.1868	-0.156
Mof_C 	C 	0.6457	0.5201	0.1592	0.063
Mof_C 	C 	0.3466	0.475	0.9378	-0.126
Mof_C 	C 	0.8115	0.4909	0.7282	0.306
Mof_C 	C 	0.01	0.5571	0.9953	0.021
Mof_C 	C 	0.9484	0.5694	0.8994	-0.055
Mof_C 	C 	0.8725	0.4767	0.8275	-0.066
Mof_C 	C 	0.8514	0.3652	0.8437	-0.004
Mof_C 	C 	0.0896	0.6474	0.0668	-0.094
Mof_C 	C 	0.5978	0.7301	0.5473	0.49
Mof_C 	C 	0.4554	0.9477	0.4769	0.006
Mof_C 	C 	0.4745	0.8415	0.4868	0.017
Mof_C 	C 	0.5779	0.8428	0.5399	-0.176
Mof_C 	C 	0.6674	0.9483	0.5853	0.057
Mof_C 	C 	0.3487	0.9482	0.4223	-0.118
Mof_C 	C 	0.4725	0.5061	0.7027	0.511
Mof_C 	C 	0.5545	0.5114	0.9875	0.022
Mof_C 	C 	0.5612	0.5168	0.8844	-0.003
Mof_C 	C 	0.4635	0.5016	0.8132	-0.156
Mof_C 	C 	0.3543	0.4799	0.8408	0.063
Mof_C 	C 	0.6534	0.525	0.0622	-0.126
Mof_O 	O 	0.1659	0.4087	0.2875	-0.477
Mof_O 	O 	0.2622	0.5988	0.3355	-0.478
Mof_O 	O 	0.3019	0.2661	0.4143	-0.539
Mof_O 	O 	0.4847	0.3637	0.4858	-0.687
Mof_O 	O 	0.4262	0.4631	0.3122	-0.56
Mof_O 	O 	0.6219	0.5207	0.3613	-0.603
Mof_O 	O 	0.8341	0.5913	0.7125	-0.477
Mof_O 	O 	0.7378	0.4012	0.6645	-0.478
Mof_O 	O 	0.6981	0.7339	0.5857	-0.539
Mof_O 	O 	0.5153	0.6363	0.5142	-0.687
Mof_O 	O 	0.5738	0.5369	0.6878	-0.56
Mof_O 	O 	0.3781	0.4793	0.6387	-0.603
_end
