data_functionalizedCrystal
_audit_creation_method	'EQeq! by Chris Wilmer'
_symmetry_space_group_name_H-M	'P1'
_symmetry_Int_Tables_number	1
_symmetry_cell_setting	triclinic
loop_
_symmetry_equiv_pos_as_xyz
  x,y,z
_cell_length_a	32.461
_cell_length_b	18.024
_cell_length_c	19.748
_cell_angle_alpha	90
_cell_angle_beta	119.964
_cell_angle_gamma	90
loop_
_atom_site_label
_atom_site_type_symbol
_atom_site_fract_x
_atom_site_fract_y
_atom_site_fract_z
_atom_site_charge
Mof_O 	O 	0.262	0.1296	0.9996	-0.384
Mof_O 	O 	0.1875	0.1966	0.997	-0.37
Mof_O 	O 	0.0454	0.0747	0.0965	-0.383
Mof_Cu	Cu	0.22008	0.21122	0.93834	0.905
Mof_O 	O 	0.0533	0.0708	0.989	-0.374
Mof_O 	O 	0.2382	0.2623	0.1008	-0.377
Mof_O 	O 	0.3141	0.194	0.1063	-0.387
Mof_C 	C 	0.0672	0.0999	0.0614	0.31
Mof_C 	C 	0.106	0.1435	0.0987	-0.072
Mof_C 	C 	0.13	0.1652	0.0618	0.016
Mof_H 	H 	0.1193	0.1504	0.0094	0.057
Mof_C 	C 	0.1709	0.2101	0.1023	-0.06
Mof_C 	C 	0.1976	0.227	0.0664	0.303
Mof_C 	C 	0.1917	0.2246	0.1808	-0.061
Mof_H 	H 	0.2207	0.2508	0.2097	0.086
Mof_C 	C 	0.1655	0.1966	0.214	0.12
Mof_C 	C 	0.1243	0.1592	0.1791	-0.058
Mof_H 	H 	0.1084	0.1443	0.2064	0.09
Mof_C 	C 	0.2232	0.3058	0.4079	-0.046
Mof_C 	C 	0.2382	0.2468	0.4599	0.031
Mof_C 	C 	0.2235	0.1768	0.4323	-0.057
Mof_C 	C 	0.2389	0.3759	0.4368	-0.022
Mof_H 	H 	0.2315	0.4168	0.4022	0.06
Mof_C 	C 	0.233	0.1131	0.4793	-0.027
Mof_H 	H 	0.2216	0.0655	0.4572	0.056
Mof_C 	C 	0.1947	0.2855	0.3201	0.229
Mof_C 	C 	0.3626	0.0651	0.1859	-0.085
Mof_H 	H 	0.3789	0.1093	0.2113	0.102
Mof_C 	C 	0.3228	0.0655	0.1065	-0.026
Mof_O 	O 	0.1818	0.3401	0.2772	-0.213
Mof_O 	O 	0.1816	0.0967	0.318	-0.228
Mof_C 	C 	0.1973	0.1538	0.3466	0.235
Mof_N 	N 	0.1859	0.2171	0.2996	-0.191
Mof_C 	C 	0.301	0.1365	0.0683	0.328
Mof_C 	C 	0.4379	0.025	0.4366	-0.018
Mof_C 	C 	0.4921	0.0217	0.4029	-0.132
Mof_C 	C 	0.5393	0.0473	0.4297	0.028
Mof_H 	H 	0.5469	0.0608	0.3906	0.045
Mof_C 	C 	0.423	0.055	0.4899	-0.062
Mof_H 	H 	0.3928	0.0765	0.474	0.073
Mof_O 	O 	0.3558	0.9469	0.3289	-0.13
Mof_C 	C 	0.4057	0.9697	0.36	0.114
Mof_C 	C 	0.4583	0.021	0.3188	-0.001
Mof_O 	O 	0.4714	0.0534	0.2743	-0.135
Mof_O 	O 	0.762	0.6296	0.9996	-0.381
Mof_O 	O 	0.6875	0.6966	0.997	-0.367
Mof_O 	O 	0.5454	0.5747	0.0965	-0.377
Mof_Cu	Cu	0.72008	0.71122	0.93834	0.907
Mof_O 	O 	0.5533	0.5708	0.989	-0.367
Mof_O 	O 	0.7382	0.7623	0.1008	-0.374
Mof_O 	O 	0.8141	0.694	0.1063	-0.385
Mof_C 	C 	0.5672	0.5999	0.0614	0.311
Mof_C 	C 	0.606	0.6435	0.0987	-0.067
Mof_C 	C 	0.63	0.6652	0.0618	0.016
Mof_H 	H 	0.6193	0.6504	0.0094	0.06
Mof_C 	C 	0.6709	0.7101	0.1023	-0.056
Mof_C 	C 	0.6976	0.727	0.0664	0.304
Mof_C 	C 	0.6917	0.7246	0.1808	-0.061
Mof_H 	H 	0.7207	0.7508	0.2097	0.087
Mof_C 	C 	0.6655	0.6966	0.214	0.122
Mof_C 	C 	0.6243	0.6592	0.1791	-0.058
Mof_H 	H 	0.6084	0.6443	0.2064	0.093
Mof_C 	C 	0.7232	0.8058	0.4079	-0.045
Mof_C 	C 	0.7382	0.7468	0.4599	0.032
Mof_C 	C 	0.7235	0.6768	0.4323	-0.055
Mof_C 	C 	0.7389	0.8759	0.4368	-0.021
Mof_H 	H 	0.7315	0.9168	0.4022	0.065
Mof_C 	C 	0.733	0.6131	0.4793	-0.027
Mof_H 	H 	0.7216	0.5655	0.4572	0.061
Mof_C 	C 	0.6947	0.7855	0.3201	0.229
Mof_C 	C 	0.8626	0.5651	0.1859	-0.094
Mof_H 	H 	0.8789	0.6093	0.2113	0.103
Mof_C 	C 	0.8228	0.5655	0.1065	-0.028
Mof_O 	O 	0.6818	0.8401	0.2772	-0.209
Mof_O 	O 	0.6816	0.5967	0.318	-0.222
Mof_C 	C 	0.6973	0.6538	0.3466	0.235
Mof_N 	N 	0.6859	0.7171	0.2996	-0.191
Mof_C 	C 	0.801	0.6365	0.0683	0.33
Mof_C 	C 	0.9379	0.525	0.4366	-0.017
Mof_C 	C 	0.9921	0.5217	0.4029	-0.015
Mof_C 	C 	0.0393	0.5473	0.4297	-0.027
Mof_H 	H 	0.0469	0.5608	0.3906	0.066
Mof_C 	C 	0.923	0.555	0.4899	-0.033
Mof_H 	H 	0.8928	0.5765	0.474	0.066
Mof_O 	O 	0.8558	0.4469	0.3289	-0.137
Mof_C 	C 	0.9057	0.4697	0.36	0.102
Mof_C 	C 	0.9583	0.521	0.3188	0.111
Mof_O 	O 	0.9714	0.5534	0.2743	-0.157
Mof_O 	O 	0.738	0.1296	0.0004	-0.383
Mof_O 	O 	0.8125	0.1966	0.003	-0.369
Mof_O 	O 	0.9546	0.0747	0.9035	-0.382
Mof_Cu	Cu	0.77992	0.21122	0.06166	0.906
Mof_O 	O 	0.9467	0.0708	0.011	-0.373
Mof_O 	O 	0.7618	0.2623	0.8992	-0.376
Mof_O 	O 	0.6859	0.194	0.8937	-0.386
Mof_C 	C 	0.9328	0.0999	0.9386	0.311
Mof_C 	C 	0.894	0.1435	0.9013	-0.071
Mof_C 	C 	0.87	0.1652	0.9382	0.017
Mof_H 	H 	0.8807	0.1504	0.9906	0.058
Mof_C 	C 	0.8291	0.2101	0.8977	-0.059
Mof_C 	C 	0.8024	0.227	0.9336	0.304
Mof_C 	C 	0.8083	0.2246	0.8192	-0.06
Mof_H 	H 	0.7793	0.2508	0.7903	0.086
Mof_C 	C 	0.8345	0.1966	0.786	0.12
Mof_C 	C 	0.8757	0.1592	0.8209	-0.058
Mof_H 	H 	0.8916	0.1443	0.7936	0.09
Mof_C 	C 	0.7768	0.3058	0.5921	-0.046
Mof_C 	C 	0.7618	0.2468	0.5401	0.031
Mof_C 	C 	0.7765	0.1768	0.5677	-0.057
Mof_C 	C 	0.7611	0.3759	0.5632	-0.022
Mof_H 	H 	0.7685	0.4168	0.5978	0.06
Mof_C 	C 	0.767	0.1131	0.5207	-0.027
Mof_H 	H 	0.7784	0.0655	0.5428	0.056
Mof_C 	C 	0.8053	0.2855	0.6799	0.229
Mof_C 	C 	0.6374	0.0651	0.8141	-0.085
Mof_H 	H 	0.6211	0.1093	0.7887	0.102
Mof_C 	C 	0.6772	0.0655	0.8935	-0.026
Mof_O 	O 	0.8182	0.3401	0.7228	-0.213
Mof_O 	O 	0.8184	0.0967	0.682	-0.228
Mof_C 	C 	0.8027	0.1538	0.6534	0.235
Mof_N 	N 	0.8141	0.2171	0.7004	-0.191
Mof_C 	C 	0.699	0.1365	0.9317	0.328
Mof_C 	C 	0.5621	0.025	0.5634	-0.018
Mof_C 	C 	0.5079	0.0217	0.5971	-0.132
Mof_C 	C 	0.4607	0.0473	0.5703	0.028
Mof_H 	H 	0.4531	0.0608	0.6094	0.045
Mof_C 	C 	0.577	0.055	0.5101	-0.062
Mof_H 	H 	0.6072	0.0765	0.526	0.073
Mof_O 	O 	0.6442	0.9469	0.6711	-0.13
Mof_C 	C 	0.5943	0.9697	0.64	0.114
Mof_C 	C 	0.5417	0.021	0.6812	-0.001
Mof_O 	O 	0.5286	0.0534	0.7257	-0.135
Mof_O 	O 	0.238	0.6296	0.0004	-0.381
Mof_O 	O 	0.3125	0.6966	0.003	-0.367
Mof_O 	O 	0.4546	0.5747	0.9035	-0.377
Mof_Cu	Cu	0.27992	0.71122	0.06166	0.907
Mof_O 	O 	0.4467	0.5708	0.011	-0.367
Mof_O 	O 	0.2618	0.7623	0.8992	-0.374
Mof_O 	O 	0.1859	0.694	0.8937	-0.385
Mof_C 	C 	0.4328	0.5999	0.9386	0.311
Mof_C 	C 	0.394	0.6435	0.9013	-0.067
Mof_C 	C 	0.37	0.6652	0.9382	0.016
Mof_H 	H 	0.3807	0.6504	0.9906	0.06
Mof_C 	C 	0.3291	0.7101	0.8977	-0.056
Mof_C 	C 	0.3024	0.727	0.9336	0.304
Mof_C 	C 	0.3083	0.7246	0.8192	-0.061
Mof_H 	H 	0.2793	0.7508	0.7903	0.087
Mof_C 	C 	0.3345	0.6966	0.786	0.122
Mof_C 	C 	0.3757	0.6592	0.8209	-0.058
Mof_H 	H 	0.3916	0.6443	0.7936	0.093
Mof_C 	C 	0.2768	0.8058	0.5921	-0.045
Mof_C 	C 	0.2618	0.7468	0.5401	0.032
Mof_C 	C 	0.2765	0.6768	0.5677	-0.055
Mof_C 	C 	0.2611	0.8759	0.5632	-0.021
Mof_H 	H 	0.2685	0.9168	0.5978	0.065
Mof_C 	C 	0.267	0.6131	0.5207	-0.027
Mof_H 	H 	0.2784	0.5655	0.5428	0.061
Mof_C 	C 	0.3053	0.7855	0.6799	0.229
Mof_C 	C 	0.1374	0.5651	0.8141	-0.094
Mof_H 	H 	0.1211	0.6093	0.7887	0.103
Mof_C 	C 	0.1772	0.5655	0.8935	-0.028
Mof_O 	O 	0.3182	0.8401	0.7228	-0.209
Mof_O 	O 	0.3184	0.5967	0.682	-0.222
Mof_C 	C 	0.3027	0.6538	0.6534	0.235
Mof_N 	N 	0.3141	0.7171	0.7004	-0.191
Mof_C 	C 	0.199	0.6365	0.9317	0.33
Mof_C 	C 	0.0621	0.525	0.5634	-0.017
Mof_C 	C 	0.0079	0.5217	0.5971	-0.015
Mof_C 	C 	0.9607	0.5473	0.5703	-0.027
Mof_H 	H 	0.9531	0.5608	0.6094	0.066
Mof_C 	C 	0.077	0.555	0.5101	-0.033
Mof_H 	H 	0.1072	0.5765	0.526	0.066
Mof_O 	O 	0.1442	0.4469	0.6711	-0.137
Mof_C 	C 	0.0943	0.4697	0.64	0.102
Mof_C 	C 	0.0417	0.521	0.6812	0.111
Mof_O 	O 	0.0286	0.5534	0.7257	-0.157
Mof_O 	O 	0.738	0.8704	0.0004	-0.375
Mof_O 	O 	0.8125	0.8034	0.003	-0.366
Mof_O 	O 	0.9546	0.9253	0.9035	-0.368
Mof_Cu	Cu	0.77992	0.78878	0.06166	0.908
Mof_O 	O 	0.9467	0.9292	0.011	-0.358
Mof_O 	O 	0.7618	0.7377	0.8992	-0.375
Mof_O 	O 	0.6859	0.806	0.8937	-0.385
Mof_C 	C 	0.9328	0.9001	0.9386	0.309
Mof_C 	C 	0.894	0.8565	0.9013	-0.064
Mof_C 	C 	0.87	0.8348	0.9382	0.015
Mof_H 	H 	0.8807	0.8496	0.9906	0.063
Mof_C 	C 	0.8291	0.7899	0.8977	-0.056
Mof_C 	C 	0.8024	0.773	0.9336	0.303
Mof_C 	C 	0.8083	0.7754	0.8192	-0.061
Mof_H 	H 	0.7793	0.7492	0.7903	0.087
Mof_C 	C 	0.8345	0.8034	0.786	0.123
Mof_C 	C 	0.8757	0.8408	0.8209	-0.059
Mof_H 	H 	0.8916	0.8557	0.7936	0.095
Mof_C 	C 	0.7768	0.6942	0.5921	-0.045
Mof_C 	C 	0.7618	0.7532	0.5401	0.031
Mof_C 	C 	0.7765	0.8232	0.5677	-0.053
Mof_C 	C 	0.7611	0.6241	0.5632	-0.022
Mof_H 	H 	0.7685	0.5832	0.5978	0.06
Mof_C 	C 	0.767	0.8869	0.5207	-0.026
Mof_H 	H 	0.7784	0.9345	0.5428	0.067
Mof_C 	C 	0.8053	0.7145	0.6799	0.23
Mof_C 	C 	0.6374	0.9349	0.8141	-0.067
Mof_H 	H 	0.6211	0.8907	0.7887	0.094
Mof_C 	C 	0.6772	0.9345	0.8935	-0.009
Mof_O 	O 	0.8182	0.6599	0.7228	-0.212
Mof_O 	O 	0.8184	0.9033	0.682	-0.216
Mof_C 	C 	0.8027	0.8462	0.6534	0.234
Mof_N 	N 	0.8141	0.7829	0.7004	-0.191
Mof_C 	C 	0.699	0.8635	0.9317	0.326
Mof_C 	C 	0.5621	0.975	0.5634	-0.008
Mof_C 	C 	0.5079	0.9783	0.5971	0.11
Mof_C 	C 	0.4607	0.9527	0.5703	-0.084
Mof_H 	H 	0.4531	0.9392	0.6094	0.087
Mof_C 	C 	0.577	0.945	0.5101	-0.005
Mof_H 	H 	0.6072	0.9235	0.526	0.058
Mof_O 	O 	0.6442	0.0531	0.6711	-0.14
Mof_C 	C 	0.5943	0.0303	0.64	0.091
Mof_C 	C 	0.5417	0.979	0.6812	0.227
Mof_O 	O 	0.5286	0.9466	0.7257	-0.179
Mof_O 	O 	0.238	0.3704	0.0004	-0.381
Mof_O 	O 	0.3125	0.3034	0.003	-0.368
Mof_O 	O 	0.4546	0.4253	0.9035	-0.377
Mof_Cu	Cu	0.27992	0.28878	0.06166	0.907
Mof_O 	O 	0.4467	0.4292	0.011	-0.368
Mof_O 	O 	0.2618	0.2377	0.8992	-0.377
Mof_O 	O 	0.1859	0.306	0.8937	-0.387
Mof_C 	C 	0.4328	0.4001	0.9386	0.311
Mof_C 	C 	0.394	0.3565	0.9013	-0.069
Mof_C 	C 	0.37	0.3348	0.9382	0.017
Mof_H 	H 	0.3807	0.3496	0.9906	0.06
Mof_C 	C 	0.3291	0.2899	0.8977	-0.059
Mof_C 	C 	0.3024	0.273	0.9336	0.303
Mof_C 	C 	0.3083	0.2754	0.8192	-0.06
Mof_H 	H 	0.2793	0.2492	0.7903	0.085
Mof_C 	C 	0.3345	0.3034	0.786	0.121
Mof_C 	C 	0.3757	0.3408	0.8209	-0.058
Mof_H 	H 	0.3916	0.3557	0.7936	0.092
Mof_C 	C 	0.2768	0.1942	0.5921	-0.047
Mof_C 	C 	0.2618	0.2532	0.5401	0.031
Mof_C 	C 	0.2765	0.3232	0.5677	-0.055
Mof_C 	C 	0.2611	0.1241	0.5632	-0.024
Mof_H 	H 	0.2685	0.0832	0.5978	0.056
Mof_C 	C 	0.267	0.3869	0.5207	-0.027
Mof_H 	H 	0.2784	0.4345	0.5428	0.061
Mof_C 	C 	0.3053	0.2145	0.6799	0.23
Mof_C 	C 	0.1374	0.4349	0.8141	-0.093
Mof_H 	H 	0.1211	0.3907	0.7887	0.102
Mof_C 	C 	0.1772	0.4345	0.8935	-0.029
Mof_O 	O 	0.3182	0.1599	0.7228	-0.216
Mof_O 	O 	0.3184	0.4033	0.682	-0.222
Mof_C 	C 	0.3027	0.3462	0.6534	0.234
Mof_N 	N 	0.3141	0.2829	0.7004	-0.191
Mof_C 	C 	0.199	0.3635	0.9317	0.33
Mof_C 	C 	0.0621	0.475	0.5634	-0.022
Mof_C 	C 	0.0079	0.4783	0.5971	-0.017
Mof_C 	C 	0.9607	0.4527	0.5703	-0.028
Mof_H 	H 	0.9531	0.4392	0.6094	0.066
Mof_C 	C 	0.077	0.445	0.5101	-0.031
Mof_H 	H 	0.1072	0.4235	0.526	0.065
Mof_O 	O 	0.1442	0.5531	0.6711	-0.136
Mof_C 	C 	0.0943	0.5303	0.64	0.1
Mof_C 	C 	0.0417	0.479	0.6812	0.111
Mof_O 	O 	0.0286	0.4466	0.7257	-0.157
Mof_O 	O 	0.262	0.8704	0.9996	-0.375
Mof_O 	O 	0.1875	0.8034	0.997	-0.366
Mof_O 	O 	0.0454	0.9253	0.0965	-0.368
Mof_Cu	Cu	0.22008	0.78878	0.93834	0.908
Mof_O 	O 	0.0533	0.9292	0.989	-0.358
Mof_O 	O 	0.2382	0.7377	0.1008	-0.375
Mof_O 	O 	0.3141	0.806	0.1063	-0.385
Mof_C 	C 	0.0672	0.9001	0.0614	0.309
Mof_C 	C 	0.106	0.8565	0.0987	-0.064
Mof_C 	C 	0.13	0.8348	0.0618	0.015
Mof_H 	H 	0.1193	0.8496	0.0094	0.063
Mof_C 	C 	0.1709	0.7899	0.1023	-0.056
Mof_C 	C 	0.1976	0.773	0.0664	0.303
Mof_C 	C 	0.1917	0.7754	0.1808	-0.061
Mof_H 	H 	0.2207	0.7492	0.2097	0.087
Mof_C 	C 	0.1655	0.8034	0.214	0.123
Mof_C 	C 	0.1243	0.8408	0.1791	-0.059
Mof_H 	H 	0.1084	0.8557	0.2064	0.095
Mof_C 	C 	0.2232	0.6942	0.4079	-0.045
Mof_C 	C 	0.2382	0.7532	0.4599	0.031
Mof_C 	C 	0.2235	0.8232	0.4323	-0.053
Mof_C 	C 	0.2389	0.6241	0.4368	-0.022
Mof_H 	H 	0.2315	0.5832	0.4022	0.06
Mof_C 	C 	0.233	0.8869	0.4793	-0.026
Mof_H 	H 	0.2216	0.9345	0.4572	0.067
Mof_C 	C 	0.1947	0.7145	0.3201	0.23
Mof_C 	C 	0.3626	0.9349	0.1859	-0.067
Mof_H 	H 	0.3789	0.8907	0.2113	0.094
Mof_C 	C 	0.3228	0.9345	0.1065	-0.009
Mof_O 	O 	0.1818	0.6599	0.2772	-0.212
Mof_O 	O 	0.1816	0.9033	0.318	-0.216
Mof_C 	C 	0.1973	0.8462	0.3466	0.234
Mof_N 	N 	0.1859	0.7829	0.2996	-0.191
Mof_C 	C 	0.301	0.8635	0.0683	0.326
Mof_C 	C 	0.4379	0.975	0.4366	-0.008
Mof_C 	C 	0.4921	0.9783	0.4029	0.11
Mof_C 	C 	0.5393	0.9527	0.4297	-0.084
Mof_H 	H 	0.5469	0.9392	0.3906	0.087
Mof_C 	C 	0.423	0.945	0.4899	-0.005
Mof_H 	H 	0.3928	0.9235	0.474	0.058
Mof_O 	O 	0.3558	0.0531	0.3289	-0.14
Mof_C 	C 	0.4057	0.0303	0.36	0.091
Mof_C 	C 	0.4583	0.979	0.3188	0.227
Mof_O 	O 	0.4714	0.9466	0.2743	-0.179
Mof_O 	O 	0.762	0.3704	0.9996	-0.381
Mof_O 	O 	0.6875	0.3034	0.997	-0.368
Mof_O 	O 	0.5454	0.4253	0.0965	-0.377
Mof_Cu	Cu	0.72008	0.28878	0.93834	0.907
Mof_O 	O 	0.5533	0.4292	0.989	-0.368
Mof_O 	O 	0.7382	0.2377	0.1008	-0.377
Mof_O 	O 	0.8141	0.306	0.1063	-0.387
Mof_C 	C 	0.5672	0.4001	0.0614	0.311
Mof_C 	C 	0.606	0.3565	0.0987	-0.069
Mof_C 	C 	0.63	0.3348	0.0618	0.017
Mof_H 	H 	0.6193	0.3496	0.0094	0.06
Mof_C 	C 	0.6709	0.2899	0.1023	-0.059
Mof_C 	C 	0.6976	0.273	0.0664	0.303
Mof_C 	C 	0.6917	0.2754	0.1808	-0.06
Mof_H 	H 	0.7207	0.2492	0.2097	0.085
Mof_C 	C 	0.6655	0.3034	0.214	0.121
Mof_C 	C 	0.6243	0.3408	0.1791	-0.058
Mof_H 	H 	0.6084	0.3557	0.2064	0.092
Mof_C 	C 	0.7232	0.1942	0.4079	-0.047
Mof_C 	C 	0.7382	0.2532	0.4599	0.031
Mof_C 	C 	0.7235	0.3232	0.4323	-0.055
Mof_C 	C 	0.7389	0.1241	0.4368	-0.024
Mof_H 	H 	0.7315	0.0832	0.4022	0.056
Mof_C 	C 	0.733	0.3869	0.4793	-0.027
Mof_H 	H 	0.7216	0.4345	0.4572	0.061
Mof_C 	C 	0.6947	0.2145	0.3201	0.23
Mof_C 	C 	0.8626	0.4349	0.1859	-0.093
Mof_H 	H 	0.8789	0.3907	0.2113	0.102
Mof_C 	C 	0.8228	0.4345	0.1065	-0.029
Mof_O 	O 	0.6818	0.1599	0.2772	-0.216
Mof_O 	O 	0.6816	0.4033	0.318	-0.222
Mof_C 	C 	0.6973	0.3462	0.3466	0.234
Mof_N 	N 	0.6859	0.2829	0.2996	-0.191
Mof_C 	C 	0.801	0.3635	0.0683	0.33
Mof_C 	C 	0.9379	0.475	0.4366	-0.022
Mof_C 	C 	0.9921	0.4783	0.4029	-0.017
Mof_C 	C 	0.0393	0.4527	0.4297	-0.028
Mof_H 	H 	0.0469	0.4392	0.3906	0.066
Mof_C 	C 	0.923	0.445	0.4899	-0.031
Mof_H 	H 	0.8928	0.4235	0.474	0.065
Mof_O 	O 	0.8558	0.5531	0.3289	-0.136
Mof_C 	C 	0.9057	0.5303	0.36	0.1
Mof_C 	C 	0.9583	0.479	0.3188	0.111
Mof_O 	O 	0.9714	0.4466	0.2743	-0.157
Mof_Cu	Cu	0.996	0	0.06329	0.907
Mof_C 	C 	0.3034	-1.26095e-33	0.0717	-0.037
Mof_H 	H 	0.2756	-3.15236e-34	0.0216	0.075
Mof_C 	C 	0.3748	-2.52189e-33	0.2212	0.134
Mof_C 	C 	0.482	0	0.4592	0.007
Mof_N 	N 	0.4149	0	0.3045	-0.181
Mof_Cu	Cu	0.496	0.5	0.06329	0.915
Mof_C 	C 	0.8034	0.5	0.0717	-0.009
Mof_H 	H 	0.7756	0.5	0.0216	0.072
Mof_C 	C 	0.8748	0.5	0.2212	0.163
Mof_C 	C 	0.982	0.5	0.4592	0.027
Mof_N 	N 	0.9149	0.5	0.3045	-0.175
Mof_Cu	Cu	0.004	0	0.93671	0.907
Mof_C 	C 	0.6966	-2.01751e-32	0.9283	-0.037
Mof_H 	H 	0.7244	0	0.9784	0.075
Mof_C 	C 	0.6252	-1.00876e-32	0.7788	0.134
Mof_C 	C 	0.518	-1.00876e-32	0.5408	0.007
Mof_N 	N 	0.5851	1.00876e-32	0.6955	-0.181
Mof_Cu	Cu	0.504	0.5	0.93671	0.915
Mof_C 	C 	0.1966	0.5	0.9283	-0.009
Mof_H 	H 	0.2244	0.5	0.9784	0.072
Mof_C 	C 	0.1252	0.5	0.7788	0.163
Mof_C 	C 	0.018	0.5	0.5408	0.027
Mof_N 	N 	0.0851	0.5	0.6955	-0.175
_end
