data_functionalizedCrystal
_audit_creation_method	'EQeq! by Chris Wilmer'
_symmetry_space_group_name_H-M	'P1'
_symmetry_Int_Tables_number	1
_symmetry_cell_setting	triclinic
loop_
_symmetry_equiv_pos_as_xyz
  x,y,z
_cell_length_a	16.0069
_cell_length_b	16.0069
_cell_length_c	16.5526
_cell_angle_alpha	118.915
_cell_angle_beta	118.915
_cell_angle_gamma	90
loop_
_atom_site_label
_atom_site_type_symbol
_atom_site_fract_x
_atom_site_fract_y
_atom_site_fract_z
_atom_site_charge
Mof_Cd	Cd	0.53534	0.73372	0.81893	0.445
Mof_Cd	Cd	0.28358	0.08521	0.81892	0.426
Mof_Cd	Cd	0.26629	0.71642	0.18109	0.447
Mof_Cd	Cd	0.91479	0.46466	0.18107	0.425
Mof_Cd	Cd	0.96642	0.01628	0.68108	0.397
Mof_Cd	Cd	0.71466	0.6648	0.68108	0.443
Mof_Cd	Cd	0.33521	0.03358	0.31892	0.421
Mof_Cd	Cd	0.98372	0.28534	0.31893	0.419
Mof_H 	H 	0.1664	0.5606	0.3564	0.055
Mof_H 	H 	0.2657	0.6485	0.5576	0.051
Mof_H 	H 	0.102	0.6086	0.6464	0.004
Mof_H 	H 	0.181	0.7048	0.6942	0.019
Mof_H 	H 	0.2308	0.5283	0.664	0.172
Mof_H 	H 	0.2441	0.6101	0.7754	0.161
Mof_H 	H 	0.7848	0.3331	0.3522	0.039
Mof_H 	H 	0.7733	0.5007	0.4538	0.048
Mof_H 	H 	0.9915	0.6906	0.5522	0.004
Mof_H 	H 	0.9306	0.6855	0.6014	0.02
Mof_H 	H 	0.7876	0.6779	0.459	0.176
Mof_H 	H 	0.8421	0.672	0.4	0.173
Mof_H 	H 	0.19	0.7958	0.3564	0.056
Mof_H 	H 	0.2919	0.9091	0.5576	0.06
Mof_H 	H 	0.5444	0.0378	0.6464	0.021
Mof_H 	H 	0.5132	0.9894	0.6942	0.073
Mof_H 	H 	0.4332	0.1357	0.664	0.152
Mof_H 	H 	0.5313	0.1653	0.7754	0.142
Mof_H 	H 	0.5674	0.0191	0.3522	-0.007
Mof_H 	H 	0.6805	0.9531	0.4538	0.068
Mof_H 	H 	0.5607	0.8616	0.5522	0.022
Mof_H 	H 	0.6708	0.9159	0.6014	0.039
Mof_H 	H 	0.6714	0.7811	0.459	0.174
Mof_H 	H 	0.5579	0.728	0.4	0.171
Mof_H 	H 	0.4394	0.81	0.6436	0.057
Mof_H 	H 	0.3515	0.7081	0.4424	0.051
Mof_H 	H 	0.3914	0.4556	0.3536	-0.003
Mof_H 	H 	0.2952	0.4868	0.3058	0.016
Mof_H 	H 	0.4717	0.5668	0.336	0.17
Mof_H 	H 	0.3899	0.4687	0.2246	0.16
Mof_H 	H 	0.6669	0.4326	0.6478	0.039
Mof_H 	H 	0.4993	0.3195	0.5462	0.048
Mof_H 	H 	0.3094	0.4393	0.4478	0.017
Mof_H 	H 	0.3145	0.3292	0.3986	0.028
Mof_H 	H 	0.3221	0.3286	0.541	0.174
Mof_H 	H 	0.328	0.4421	0.6	0.172
Mof_H 	H 	0.2042	0.8336	0.6436	0.055
Mof_H 	H 	0.0909	0.7343	0.4424	0.06
Mof_H 	H 	0.9622	0.898	0.3536	0.027
Mof_H 	H 	0.0106	0.819	0.3058	0.074
Mof_H 	H 	0.8643	0.7692	0.336	0.154
Mof_H 	H 	0.8347	0.7559	0.2246	0.144
Mof_H 	H 	0.9809	0.2152	0.6478	-0.007
Mof_H 	H 	0.0469	0.2267	0.5462	0.069
Mof_H 	H 	0.1384	0.0085	0.4478	0.008
Mof_H 	H 	0.0841	0.0694	0.3986	0.031
Mof_H 	H 	0.2189	0.2124	0.541	0.177
Mof_H 	H 	0.272	0.1579	0.6	0.172
Mof_H 	H 	0.06	0.1894	0.1436	0.098
Mof_H 	H 	0.9581	0.1015	0.9424	0.027
Mof_H 	H 	0.7056	0.1414	0.8536	-0.008
Mof_H 	H 	0.7368	0.0452	0.8058	0.004
Mof_H 	H 	0.8168	0.2217	0.836	0.172
Mof_H 	H 	0.7187	0.1399	0.7246	0.157
Mof_H 	H 	0.6826	0.4169	0.1478	0.042
Mof_H 	H 	0.5695	0.2493	0.0462	0.047
Mof_H 	H 	0.6893	0.0594	0.9478	-0
Mof_H 	H 	0.5792	0.0645	0.8986	0.012
Mof_H 	H 	0.5786	0.0721	0.041	0.185
Mof_H 	H 	0.6921	0.078	0.1	0.182
Mof_H 	H 	0.0836	0.9542	0.1436	0.084
Mof_H 	H 	0.9843	0.8409	0.9424	0.008
Mof_H 	H 	0.148	0.7122	0.8536	0.002
Mof_H 	H 	0.069	0.7606	0.8058	0.028
Mof_H 	H 	0.0192	0.6143	0.836	0.165
Mof_H 	H 	0.0059	0.5847	0.7246	0.156
Mof_H 	H 	0.4652	0.7309	0.1478	0.041
Mof_H 	H 	0.4767	0.7969	0.0462	0.052
Mof_H 	H 	0.2585	0.8884	0.9478	0.045
Mof_H 	H 	0.3194	0.8341	0.8986	0.051
Mof_H 	H 	0.4624	0.9689	0.041	0.137
Mof_H 	H 	0.4079	0.022	0.1	0.107
Mof_H 	H 	0.0458	0.94	0.8564	0.107
Mof_H 	H 	0.1591	0.0419	0.0576	0.031
Mof_H 	H 	0.2878	0.2944	0.1464	-0.004
Mof_H 	H 	0.2394	0.2632	0.1942	0.016
Mof_H 	H 	0.3857	0.1832	0.164	0.17
Mof_H 	H 	0.4153	0.2813	0.2754	0.16
Mof_H 	H 	0.2691	0.3174	0.8522	0.041
Mof_H 	H 	0.2031	0.4305	0.9538	0.052
Mof_H 	H 	0.1116	0.3107	0.0522	0.045
Mof_H 	H 	0.1659	0.4208	0.1014	0.051
Mof_H 	H 	0.0311	0.4214	0.959	0.136
Mof_H 	H 	0.978	0.3079	0.9	0.106
Mof_H 	H 	0.8106	0.9164	0.8564	0.075
Mof_H 	H 	0.8985	0.0157	0.0576	0.004
Mof_H 	H 	0.8586	0.852	0.1464	-0.002
Mof_H 	H 	0.9548	0.931	0.1942	0.017
Mof_H 	H 	0.7783	0.9808	0.164	0.166
Mof_H 	H 	0.8601	0.9941	0.2754	0.153
Mof_H 	H 	0.5831	0.5348	0.8522	0.042
Mof_H 	H 	0.7507	0.5233	0.9538	0.047
Mof_H 	H 	0.9406	0.7415	0.0522	0
Mof_H 	H 	0.9355	0.6806	0.1014	0.012
Mof_H 	H 	0.9279	0.5376	0.959	0.185
Mof_H 	H 	0.922	0.5921	0.9	0.182
Mof_C 	C 	0.04393	0.53933	0.44446	0.116
Mof_C 	C 	0.14278	0.56328	0.39876	0.015
Mof_C 	C 	0.1983	0.6115	0.51	0.002
Mof_C 	C 	0.1613	0.6322	0.6516	0.115
Mof_C 	C 	0.24473	0.59963	0.71286	-0.411
Mof_C 	C 	0.34919	0.65309	0.75518	0.401
Mof_C 	C 	0.95521	0.49891	0.43422	0.049
Mof_C 	C 	0.8297	0.3931	0.3836	0.012
Mof_C 	C 	0.8227	0.4858	0.4396	-0.003
Mof_C 	C 	0.92615	0.66205	0.5329	0.115
Mof_C 	C 	0.85155	0.69985	0.4715	-0.423
Mof_C 	C 	0.88743	0.81433	0.53686	0.412
Mof_C 	C 	0.40053	0.90513	0.44446	0.083
Mof_C 	C 	0.25598	0.83548	0.39876	0.02
Mof_C 	C 	0.3117	0.8985	0.51	-0.001
Mof_C 	C 	0.4903	0.0194	0.6516	0.001
Mof_C 	C 	0.46813	0.11323	0.71286	-0.356
Mof_C 	C 	0.40599	0.10209	0.75518	0.382
Mof_C 	C 	0.47901	0.93531	0.43422	0.089
Mof_C 	C 	0.5539	0.9905	0.3836	0.089
Mof_C 	C 	0.6169	0.9538	0.4396	-0.034
Mof_C 	C 	0.60675	0.87085	0.5329	0.101
Mof_C 	C 	0.61995	0.77165	0.4715	-0.412
Mof_C 	C 	0.64943	0.72253	0.53686	0.409
Mof_C 	C 	0.46067	0.59947	0.55554	0.081
Mof_C 	C 	0.43672	0.74402	0.60124	0.013
Mof_C 	C 	0.3885	0.6883	0.49	0.002
Mof_C 	C 	0.3678	0.5097	0.3484	0.114
Mof_C 	C 	0.40037	0.53187	0.28714	-0.411
Mof_C 	C 	0.34691	0.59401	0.24482	0.401
Mof_C 	C 	0.50109	0.52099	0.56578	0.082
Mof_C 	C 	0.6069	0.4461	0.6164	0.013
Mof_C 	C 	0.5142	0.3831	0.5604	-0.002
Mof_C 	C 	0.33795	0.39325	0.4671	0.108
Mof_C 	C 	0.30015	0.38005	0.5285	-0.415
Mof_C 	C 	0.18567	0.35057	0.46314	0.408
Mof_C 	C 	0.09487	0.95607	0.55554	0.117
Mof_C 	C 	0.16452	0.85722	0.60124	0.022
Mof_C 	C 	0.1015	0.8017	0.49	-0.001
Mof_C 	C 	0.9806	0.8387	0.3484	0.005
Mof_C 	C 	0.88677	0.75527	0.28714	-0.359
Mof_C 	C 	0.89791	0.65081	0.24482	0.383
Mof_C 	C 	0.06469	0.04479	0.56578	0.057
Mof_C 	C 	0.0095	0.1703	0.6164	0.088
Mof_C 	C 	0.0462	0.1773	0.5604	-0.036
Mof_C 	C 	0.12915	0.07385	0.4671	0.108
Mof_C 	C 	0.22835	0.14845	0.5285	-0.419
Mof_C 	C 	0.27747	0.11257	0.46314	0.413
Mof_C 	C 	0.84947	0.21067	0.05554	0.079
Mof_C 	C 	0.99402	0.18672	0.10124	-0.063
Mof_C 	C 	0.9383	0.1385	0.99	0.033
Mof_C 	C 	0.7597	0.1178	0.8484	0.123
Mof_C 	C 	0.78187	0.15037	0.78714	-0.419
Mof_C 	C 	0.84401	0.09691	0.74482	0.404
Mof_C 	C 	0.77099	0.25109	0.06578	0.083
Mof_C 	C 	0.6961	0.3569	0.1164	0.012
Mof_C 	C 	0.6331	0.2642	0.0604	0.001
Mof_C 	C 	0.64325	0.08795	0.9671	0.139
Mof_C 	C 	0.63005	0.05015	0.0285	-0.473
Mof_C 	C 	0.60057	0.93567	0.96314	0.45
Mof_C 	C 	0.20607	0.84487	0.05554	0.084
Mof_C 	C 	0.10722	0.91452	0.10124	-0.016
Mof_C 	C 	0.0517	0.8515	0.99	0.076
Mof_C 	C 	0.0887	0.7306	0.8484	0.1
Mof_C 	C 	0.00527	0.63677	0.78714	-0.366
Mof_C 	C 	0.90081	0.64791	0.74482	0.367
Mof_C 	C 	0.29479	0.81469	0.06578	0.084
Mof_C 	C 	0.4203	0.7595	0.1164	0.016
Mof_C 	C 	0.4273	0.7962	0.0604	-0.003
Mof_C 	C 	0.32385	0.87915	0.9671	0.034
Mof_C 	C 	0.39845	0.97835	0.0285	-0.257
Mof_C 	C 	0.36257	0.02747	0.96314	0.306
Mof_C 	C 	0.15513	0.15053	0.94446	0.084
Mof_C 	C 	0.08548	0.00598	0.89876	-0.057
Mof_C 	C 	0.1485	0.0617	0.01	0.039
Mof_C 	C 	0.2694	0.2403	0.1516	0.116
Mof_C 	C 	0.36323	0.21813	0.21286	-0.412
Mof_C 	C 	0.35209	0.15599	0.25518	0.402
Mof_C 	C 	0.18531	0.22901	0.93422	0.083
Mof_C 	C 	0.2405	0.3039	0.8836	0.016
Mof_C 	C 	0.2038	0.3669	0.9396	-0.003
Mof_C 	C 	0.12085	0.35675	0.0329	0.034
Mof_C 	C 	0.02165	0.36995	0.9715	-0.255
Mof_C 	C 	0.97253	0.39943	0.03686	0.306
Mof_C 	C 	0.78933	0.79393	0.94446	0.079
Mof_C 	C 	0.81328	0.89278	0.89876	-0.021
Mof_C 	C 	0.8615	0.9483	0.01	0.073
Mof_C 	C 	0.8822	0.9113	0.1516	0.106
Mof_C 	C 	0.84963	0.99473	0.21286	-0.37
Mof_C 	C 	0.90309	0.09919	0.25518	0.368
Mof_C 	C 	0.74891	0.70521	0.93422	0.084
Mof_C 	C 	0.6431	0.5797	0.8836	0.012
Mof_C 	C 	0.7358	0.5727	0.9396	0.001
Mof_C 	C 	0.91205	0.67615	0.0329	0.138
Mof_C 	C 	0.94985	0.60155	0.9715	-0.472
Mof_C 	C 	0.06433	0.63743	0.03686	0.448
Mof_N 	N 	0.04538	0.51858	0.35736	-0.129
Mof_N 	N 	0.13585	0.59512	0.53944	-0.134
Mof_N 	N 	0.91306	0.40176	0.38052	-0.14
Mof_N 	N 	0.90199	0.55259	0.47078	-0.133
Mof_N 	N 	0.31198	0.83878	0.35736	-0.132
Mof_N 	N 	0.40359	0.94432	0.53944	-0.105
Mof_N 	N 	0.46746	0.97876	0.38052	-0.144
Mof_N 	N 	0.56879	0.91819	0.47078	-0.127
Mof_N 	N 	0.48142	0.68802	0.64264	-0.134
Mof_N 	N 	0.40488	0.59641	0.46056	-0.131
Mof_N 	N 	0.59824	0.53254	0.61948	-0.142
Mof_N 	N 	0.44741	0.43121	0.52922	-0.134
Mof_N 	N 	0.16122	0.95462	0.64264	-0.128
Mof_N 	N 	0.05568	0.86415	0.46056	-0.108
Mof_N 	N 	0.02124	0.08694	0.61948	-0.142
Mof_N 	N 	0.08181	0.09801	0.52922	-0.126
Mof_N 	N 	0.93802	0.23142	0.14264	-0.127
Mof_N 	N 	0.84641	0.15488	0.96056	-0.139
Mof_N 	N 	0.78254	0.34824	0.11948	-0.142
Mof_N 	N 	0.68121	0.19741	0.02922	-0.139
Mof_N 	N 	0.20462	0.91122	0.14264	-0.12
Mof_N 	N 	0.11415	0.80568	0.96056	-0.139
Mof_N 	N 	0.33694	0.77124	0.11948	-0.142
Mof_N 	N 	0.34801	0.83181	0.02922	-0.122
Mof_N 	N 	0.08878	0.06198	0.85736	-0.117
Mof_N 	N 	0.19432	0.15359	0.03944	-0.137
Mof_N 	N 	0.22876	0.21746	0.88052	-0.142
Mof_N 	N 	0.16819	0.31879	0.97078	-0.122
Mof_N 	N 	0.76858	0.79538	0.85736	-0.129
Mof_N 	N 	0.84512	0.88585	0.03944	-0.14
Mof_N 	N 	0.65176	0.66306	0.88052	-0.142
Mof_N 	N 	0.80259	0.65199	0.97078	-0.139
Mof_O 	O 	0.41623	0.61293	0.78106	-0.316
Mof_O 	O 	0.36617	0.73377	0.76474	-0.295
Mof_O 	O 	0.96668	0.85858	0.63096	-0.301
Mof_O 	O 	0.83984	0.85964	0.49728	-0.31
Mof_O 	O 	0.36483	0.16813	0.78106	-0.312
Mof_O 	O 	0.39857	0.03097	0.76474	-0.304
Mof_O 	O 	0.66428	0.77238	0.63096	-0.297
Mof_O 	O 	0.65744	0.63764	0.49728	-0.317
Mof_O 	O 	0.38707	0.63517	0.21894	-0.316
Mof_O 	O 	0.26623	0.60143	0.23526	-0.295
Mof_O 	O 	0.14142	0.33572	0.36904	-0.289
Mof_O 	O 	0.14036	0.34256	0.50272	-0.307
Mof_O 	O 	0.83187	0.58377	0.21894	-0.312
Mof_O 	O 	0.96903	0.63383	0.23526	-0.304
Mof_O 	O 	0.22762	0.03332	0.36904	-0.309
Mof_O 	O 	0.36236	0.16016	0.50272	-0.32
Mof_O 	O 	0.88517	0.13707	0.71894	-0.323
Mof_O 	O 	0.85143	0.01623	0.73526	-0.312
Mof_O 	O 	0.58572	0.89142	0.86904	-0.302
Mof_O 	O 	0.59256	0.89036	0.00272	-0.321
Mof_O 	O 	0.83377	0.58187	0.71894	-0.313
Mof_O 	O 	0.88383	0.71903	0.73526	-0.292
Mof_O 	O 	0.28332	0.97762	0.86904	-0.246
Mof_O 	O 	0.41016	0.11236	0.00272	-0.292
Mof_O 	O 	0.41813	0.11483	0.28106	-0.32
Mof_O 	O 	0.28097	0.14857	0.26474	-0.297
Mof_O 	O 	0.02238	0.41428	0.13096	-0.247
Mof_O 	O 	0.88764	0.40744	0.99728	-0.292
Mof_O 	O 	0.86293	0.16623	0.28106	-0.316
Mof_O 	O 	0.98377	0.11617	0.26474	-0.306
Mof_O 	O 	0.10858	0.71668	0.13096	-0.3
Mof_O 	O 	0.10964	0.58984	0.99728	-0.321
_end
