data_functionalizedCrystal
_audit_creation_method	'EQeq! by Chris Wilmer'
_symmetry_space_group_name_H-M	'P1'
_symmetry_Int_Tables_number	1
_symmetry_cell_setting	triclinic
loop_
_symmetry_equiv_pos_as_xyz
  x,y,z
_cell_length_a	12.0746
_cell_length_b	31.4093
_cell_length_c	24.4887
_cell_angle_alpha	90
_cell_angle_beta	96.33
_cell_angle_gamma	90
loop_
_atom_site_label
_atom_site_type_symbol
_atom_site_fract_x
_atom_site_fract_y
_atom_site_fract_z
_atom_site_charge
Mof_Zn	Zn	0.59078	0.26391	0.21057	1.207
Mof_Zn	Zn	0.38733	0.27554	0.25825	1.209
Mof_Zn	Zn	0.30342	0.3564	0.57208	1.221
Mof_Zn	Zn	0.20144	0.38537	0.41712	1.23
Mof_N 	N 	0.7343	0.25105	0.17423	-0.2
Mof_N 	N 	0.8224	0.20165	0.11482	-0.202
Mof_N 	N 	0.8586	0.27793	0.10985	-0.095
Mof_N 	N 	0.9342	0.23738	0.19044	-0.094
Mof_C 	C 	0.7213	0.2108	0.14205	-0.036
Mof_H 	H 	0.7074	0.187	0.1669	0.041
Mof_H 	H 	0.6561	0.2132	0.1139	0.034
Mof_C 	C 	0.8335	0.24635	0.21631	-0.018
Mof_H 	H 	0.8441	0.2729	0.238	0.039
Mof_H 	H 	0.8201	0.2229	0.2418	0.039
Mof_C 	C 	0.7581	0.28621	0.13597	-0.018
Mof_H 	H 	0.6941	0.2894	0.1073	0.038
Mof_H 	H 	0.767	0.3133	0.1567	0.039
Mof_C 	C 	0.9192	0.19819	0.15895	-0.018
Mof_H 	H 	0.906	0.1744	0.1839	0.037
Mof_H 	H 	0.988	0.1919	0.1419	0.027
Mof_C 	C 	0.8435	0.23823	0.0787	-0.011
Mof_H 	H 	0.9111	0.2324	0.0604	0.036
Mof_H 	H 	0.7799	0.2414	0.0498	0.029
Mof_C 	C 	0.9529	0.27271	0.15309	-0.002
Mof_H 	H 	0.0218	0.2673	0.1358	0.038
Mof_H 	H 	0.9634	0.2994	0.1745	0.041
Mof_N 	N 	0.2496	0.2852	0.29979	-0.2
Mof_N 	N 	0.1719	0.32968	0.36779	-0.195
Mof_N 	N 	0.1459	0.25248	0.36872	-0.094
Mof_N 	N 	0.0485	0.29519	0.29499	-0.096
Mof_C 	C 	0.2652	0.32388	0.33431	-0.033
Mof_H 	H 	0.3358	0.3215	0.3588	0.037
Mof_H 	H 	0.2705	0.3491	0.3105	0.031
Mof_C 	C 	0.2381	0.2475	0.3363	-0.024
Mof_H 	H 	0.2265	0.2215	0.3135	0.042
Mof_H 	H 	0.3079	0.2438	0.3611	0.045
Mof_C 	C 	0.1422	0.28986	0.26284	-0.014
Mof_H 	H 	0.1471	0.3149	0.2386	0.034
Mof_H 	H 	0.1301	0.2643	0.2393	0.036
Mof_C 	C 	0.1632	0.2907	0.40205	-0.01
Mof_H 	H 	0.2325	0.2875	0.4274	0.032
Mof_H 	H 	0.1005	0.2941	0.4245	0.034
Mof_C 	C 	0.0667	0.3329	0.32936	-0.012
Mof_H 	H 	0.0027	0.3367	0.351	0.033
Mof_H 	H 	0.0707	0.3583	0.3057	0.033
Mof_C 	C 	0.0429	0.25777	0.3306	-0.004
Mof_H 	H 	0.0309	0.232	0.3074	0.044
Mof_H 	H 	0.9785	0.2608	0.352	0.04
Mof_O 	O 	0.4906	0.26045	0.32896	-0.446
Mof_O 	O 	0.6503	0.26837	0.2911	-0.463
Mof_C 	C 	0.5951	0.26251	0.33129	0.37
Mof_C 	C 	0.6616	0.2582	0.38656	-0.079
Mof_C 	C 	0.6169	0.23979	0.42941	-0.031
Mof_H 	H 	0.5418	0.2303	0.4247	0.057
Mof_C 	C 	0.6814	0.23456	0.48132	0.027
Mof_C 	C 	0.6383	0.2152	0.5267	-0.088
Mof_H 	H 	0.5647	0.2041	0.5227	0.063
Mof_C 	C 	0.7021	0.21229	0.5764	0.018
Mof_H 	H 	0.6717	0.1996	0.6067	0.037
Mof_C 	C 	0.8126	0.22786	0.58327	-0.086
Mof_C 	C 	0.8566	0.24536	0.53967	-0.028
Mof_H 	H 	0.9318	0.2549	0.5441	0.055
Mof_C 	C 	0.7929	0.24968	0.48788	0.024
Mof_C 	C 	0.8359	0.26944	0.44281	-0.081
Mof_H 	H 	0.9101	0.2799	0.4469	0.06
Mof_C 	C 	0.7723	0.27367	0.39341	0.013
Mof_H 	H 	0.8025	0.287	0.3636	0.038
Mof_C 	C 	0.8791	0.22627	0.6386	0.373
Mof_O 	O 	0.9797	0.23728	0.64199	-0.465
Mof_O 	O 	0.8276	0.21436	0.67817	-0.458
Mof_O 	O 	0.371	0.21264	0.24284	-0.457
Mof_O 	O 	0.5467	0.20184	0.22423	-0.451
Mof_C 	C 	0.4496	0.1888	0.23046	0.362
Mof_C 	C 	0.4232	0.1428	0.22091	-0.082
Mof_C 	C 	0.3156	0.12756	0.2267	0.015
Mof_H 	H 	0.2617	0.1462	0.2391	0.039
Mof_C 	C 	0.2876	0.08629	0.2145	-0.087
Mof_H 	H 	0.2144	0.0765	0.2183	0.064
Mof_C 	C 	0.3669	0.05785	0.1962	0.028
Mof_C 	C 	0.3403	0.01531	0.1806	-0.045
Mof_H 	H 	0.2678	0.0047	0.1842	0.061
Mof_C 	C 	0.4172	0.9892	0.1604	-0.062
Mof_C 	C 	0.5252	0.00446	0.156	0.005
Mof_H 	H 	0.5788	0.9862	0.1426	0.044
Mof_C 	C 	0.5542	0.04511	0.1705	-0.084
Mof_H 	H 	0.6276	0.0549	0.1672	0.073
Mof_C 	C 	0.4758	0.07291	0.19067	0.029
Mof_C 	C 	0.5016	0.11576	0.20379	-0.036
Mof_H 	H 	0.5746	0.1261	0.2007	0.069
Mof_C 	C 	0.3822	0.94605	0.1377	0.307
Mof_O 	O 	0.4486	0.92421	0.1148	-0.371
Mof_O 	O 	0.2844	0.93429	0.13948	-0.412
Mof_O 	O 	0.4542	0.33416	0.26226	-0.473
Mof_O 	O 	0.5925	0.32933	0.20858	-0.45
Mof_C 	C 	0.5335	0.34947	0.23921	0.374
Mof_C 	C 	0.5603	0.39572	0.25023	-0.083
Mof_C 	C 	0.4993	0.41826	0.28449	-0.032
Mof_H 	H 	0.4376	0.4051	0.2986	0.061
Mof_C 	C 	0.5272	0.4608	0.29917	0.023
Mof_C 	C 	0.4684	0.48409	0.33629	-0.083
Mof_H 	H 	0.405	0.4718	0.3499	0.072
Mof_C 	C 	0.5019	0.52397	0.3526	-0
Mof_H 	H 	0.4629	0.5389	0.3783	0.045
Mof_C 	C 	0.5942	0.54327	0.33166	-0.058
Mof_C 	C 	0.6491	0.52254	0.29369	-0.051
Mof_H 	H 	0.7079	0.5365	0.2781	0.06
Mof_C 	C 	0.6194	0.48019	0.27705	0.032
Mof_C 	C 	0.679	0.45659	0.241	-0.09
Mof_H 	H 	0.7394	0.4694	0.2254	0.065
Mof_C 	C 	0.6506	0.41539	0.22826	0.018
Mof_H 	H 	0.6922	0.3998	0.2043	0.039
Mof_C 	C 	0.6386	0.58537	0.3543	0.297
Mof_O 	O 	0.711	0.6051	0.33258	-0.321
Mof_O 	O 	0.5983	0.59859	0.39755	-0.448
Mof_O 	O 	0.3642	0.37704	0.43176	-0.48
Mof_O 	O 	0.3809	0.33915	0.50918	-0.497
Mof_C 	C 	0.4209	0.35972	0.47153	0.399
Mof_C 	C 	0.5447	0.36357	0.473	-0.106
Mof_C 	C 	0.6122	0.35409	0.51925	-0.017
Mof_H 	H 	0.5802	0.3445	0.5508	0.039
Mof_C 	C 	0.7303	0.35822	0.52158	0.027
Mof_C 	C 	0.8016	0.34886	0.5693	-0.095
Mof_H 	H 	0.771	0.3407	0.6019	0.068
Mof_C 	C 	0.9141	0.35137	0.56924	0.042
Mof_H 	H 	0.9618	0.345	0.6017	0.035
Mof_C 	C 	0.9601	0.3635	0.5208	-0.129
Mof_C 	C 	0.8925	0.3736	0.4744	-0.011
Mof_H 	H 	0.9243	0.3822	0.4424	0.053
Mof_C 	C 	0.775	0.3714	0.4734	0.021
Mof_C 	C 	0.7033	0.3822	0.4258	-0.087
Mof_H 	H 	0.7335	0.3927	0.3942	0.067
Mof_C 	C 	0.5911	0.3776	0.4251	0.028
Mof_H 	H 	0.5435	0.3837	0.3926	0.039
Mof_C 	C 	0.0828	0.36332	0.52001	0.467
Mof_O 	O 	0.1418	0.3607	0.5648	-0.501
Mof_O 	O 	0.1163	0.3556	0.4751	-0.298
Mof_O 	O 	0.1326	0.3855	0.4787	-0.352
Mof_Zn	Zn	0.90922	0.76391	0.28943	1.208
Mof_Zn	Zn	0.11267	0.77554	0.24175	1.21
Mof_Zn	Zn	0.19658	0.8564	0.92792	1.221
Mof_Zn	Zn	0.29856	0.88537	0.08288	1.23
Mof_N 	N 	0.7657	0.75105	0.32577	-0.2
Mof_N 	N 	0.6776	0.70165	0.38518	-0.202
Mof_N 	N 	0.6414	0.77793	0.39015	-0.095
Mof_N 	N 	0.5658	0.73738	0.30956	-0.094
Mof_C 	C 	0.7787	0.7108	0.35795	-0.036
Mof_H 	H 	0.7926	0.687	0.3331	0.041
Mof_H 	H 	0.8439	0.7132	0.3861	0.034
Mof_C 	C 	0.6665	0.74635	0.28369	-0.018
Mof_H 	H 	0.6559	0.7729	0.262	0.039
Mof_H 	H 	0.6799	0.7229	0.2582	0.039
Mof_C 	C 	0.7419	0.78621	0.36403	-0.018
Mof_H 	H 	0.8059	0.7894	0.3927	0.038
Mof_H 	H 	0.733	0.8133	0.3433	0.039
Mof_C 	C 	0.5808	0.69819	0.34105	-0.018
Mof_H 	H 	0.594	0.6744	0.3161	0.037
Mof_H 	H 	0.512	0.6919	0.3581	0.027
Mof_C 	C 	0.6565	0.73823	0.4213	-0.011
Mof_H 	H 	0.5889	0.7324	0.4396	0.036
Mof_H 	H 	0.7201	0.7414	0.4502	0.029
Mof_C 	C 	0.5471	0.77271	0.34691	-0.003
Mof_H 	H 	0.4782	0.7673	0.3642	0.039
Mof_H 	H 	0.5366	0.7994	0.3255	0.041
Mof_N 	N 	0.2504	0.7852	0.20021	-0.2
Mof_N 	N 	0.3281	0.82968	0.13221	-0.195
Mof_N 	N 	0.3541	0.75248	0.13128	-0.094
Mof_N 	N 	0.4515	0.79519	0.20501	-0.096
Mof_C 	C 	0.2348	0.82388	0.16569	-0.033
Mof_H 	H 	0.1642	0.8215	0.1412	0.037
Mof_H 	H 	0.2295	0.8491	0.1895	0.031
Mof_C 	C 	0.2619	0.7475	0.1637	-0.024
Mof_H 	H 	0.2735	0.7215	0.1865	0.042
Mof_H 	H 	0.1921	0.7438	0.1389	0.045
Mof_C 	C 	0.3578	0.78986	0.23716	-0.014
Mof_H 	H 	0.3529	0.8149	0.2614	0.035
Mof_H 	H 	0.3699	0.7643	0.2607	0.037
Mof_C 	C 	0.3368	0.7907	0.09795	-0.011
Mof_H 	H 	0.2675	0.7875	0.0726	0.032
Mof_H 	H 	0.3995	0.7941	0.0755	0.034
Mof_C 	C 	0.4333	0.8329	0.17064	-0.012
Mof_H 	H 	0.4973	0.8367	0.149	0.033
Mof_H 	H 	0.4293	0.8583	0.1943	0.033
Mof_C 	C 	0.4571	0.75777	0.1694	-0.003
Mof_H 	H 	0.4691	0.732	0.1926	0.043
Mof_H 	H 	0.5215	0.7608	0.148	0.039
Mof_O 	O 	0.0094	0.76045	0.17104	-0.445
Mof_O 	O 	0.8497	0.76837	0.2089	-0.462
Mof_C 	C 	0.9049	0.76251	0.16871	0.369
Mof_C 	C 	0.8384	0.7582	0.11344	-0.078
Mof_C 	C 	0.8831	0.73979	0.07059	-0.031
Mof_H 	H 	0.9582	0.7303	0.0753	0.056
Mof_C 	C 	0.8186	0.73456	0.01868	0.027
Mof_C 	C 	0.8617	0.7152	0.9733	-0.088
Mof_H 	H 	0.9353	0.7041	0.9773	0.063
Mof_C 	C 	0.7979	0.71229	0.9236	0.018
Mof_H 	H 	0.8283	0.6996	0.8933	0.037
Mof_C 	C 	0.6874	0.72786	0.91673	-0.086
Mof_C 	C 	0.6434	0.74536	0.96033	-0.028
Mof_H 	H 	0.5682	0.7549	0.9559	0.055
Mof_C 	C 	0.7071	0.74968	0.01212	0.024
Mof_C 	C 	0.6641	0.76944	0.05719	-0.081
Mof_H 	H 	0.5899	0.7799	0.0531	0.06
Mof_C 	C 	0.7277	0.77367	0.10659	0.013
Mof_H 	H 	0.6975	0.787	0.1364	0.038
Mof_C 	C 	0.6209	0.72627	0.8614	0.373
Mof_O 	O 	0.5203	0.73728	0.85801	-0.466
Mof_O 	O 	0.6724	0.71436	0.82183	-0.458
Mof_O 	O 	0.129	0.71264	0.25716	-0.457
Mof_O 	O 	0.9533	0.70184	0.27577	-0.452
Mof_C 	C 	0.0504	0.6888	0.26954	0.363
Mof_C 	C 	0.0768	0.6428	0.27909	-0.08
Mof_C 	C 	0.1844	0.62756	0.2733	0.013
Mof_H 	H 	0.2383	0.6462	0.2609	0.04
Mof_C 	C 	0.2124	0.58629	0.2855	-0.085
Mof_H 	H 	0.2856	0.5765	0.2817	0.063
Mof_C 	C 	0.1331	0.55785	0.3038	0.026
Mof_C 	C 	0.1597	0.51531	0.3194	-0.043
Mof_H 	H 	0.2322	0.5047	0.3158	0.06
Mof_C 	C 	0.0828	0.4892	0.3396	-0.063
Mof_C 	C 	0.9748	0.50446	0.344	0.006
Mof_H 	H 	0.9212	0.4862	0.3574	0.044
Mof_C 	C 	0.9458	0.54511	0.3295	-0.086
Mof_H 	H 	0.8724	0.5549	0.3328	0.074
Mof_C 	C 	0.0242	0.57291	0.30933	0.033
Mof_C 	C 	0.9984	0.61576	0.29621	-0.04
Mof_H 	H 	0.9254	0.6261	0.2993	0.07
Mof_C 	C 	0.1178	0.44605	0.3623	0.307
Mof_O 	O 	0.0514	0.42421	0.3852	-0.371
Mof_O 	O 	0.2156	0.43429	0.36052	-0.412
Mof_O 	O 	0.0458	0.83416	0.23774	-0.472
Mof_O 	O 	0.9075	0.82933	0.29142	-0.45
Mof_C 	C 	0.9665	0.84947	0.26079	0.373
Mof_C 	C 	0.9397	0.89572	0.24977	-0.085
Mof_C 	C 	0.0007	0.91826	0.21551	-0.029
Mof_H 	H 	0.0624	0.9051	0.2014	0.06
Mof_C 	C 	0.9728	0.9608	0.20083	0.02
Mof_C 	C 	0.0316	0.98409	0.16371	-0.08
Mof_H 	H 	0.095	0.9718	0.1501	0.071
Mof_C 	C 	0.9981	0.02397	0.1474	-0.001
Mof_H 	H 	0.0371	0.0389	0.1217	0.045
Mof_C 	C 	0.9058	0.04327	0.16834	-0.057
Mof_C 	C 	0.8509	0.02254	0.20631	-0.052
Mof_H 	H 	0.7921	0.0365	0.2219	0.061
Mof_C 	C 	0.8806	0.98019	0.22295	0.033
Mof_C 	C 	0.821	0.95659	0.259	-0.092
Mof_H 	H 	0.7606	0.9694	0.2746	0.065
Mof_C 	C 	0.8494	0.91539	0.27174	0.02
Mof_H 	H 	0.8078	0.8998	0.2957	0.038
Mof_C 	C 	0.8614	0.08537	0.1457	0.297
Mof_O 	O 	0.789	0.1051	0.16742	-0.32
Mof_O 	O 	0.9017	0.09859	0.10245	-0.448
Mof_O 	O 	0.1358	0.87704	0.06824	-0.48
Mof_O 	O 	0.1191	0.83915	0.99082	-0.497
Mof_C 	C 	0.0791	0.85972	0.02847	0.4
Mof_C 	C 	0.9553	0.86357	0.027	-0.108
Mof_C 	C 	0.8878	0.85409	0.98075	-0.016
Mof_H 	H 	0.9198	0.8445	0.9492	0.039
Mof_C 	C 	0.7697	0.85822	0.97842	0.027
Mof_C 	C 	0.6984	0.84886	0.9307	-0.095
Mof_H 	H 	0.729	0.8407	0.8981	0.068
Mof_C 	C 	0.5859	0.85137	0.93076	0.042
Mof_H 	H 	0.5382	0.845	0.8983	0.035
Mof_C 	C 	0.5399	0.8635	0.9792	-0.13
Mof_C 	C 	0.6075	0.8736	0.0256	-0.01
Mof_H 	H 	0.5757	0.8822	0.0576	0.053
Mof_C 	C 	0.725	0.8714	0.0266	0.021
Mof_C 	C 	0.7967	0.8822	0.0742	-0.088
Mof_H 	H 	0.7665	0.8927	0.1058	0.067
Mof_C 	C 	0.9089	0.8776	0.0749	0.029
Mof_H 	H 	0.9565	0.8837	0.1074	0.038
Mof_C 	C 	0.4172	0.86332	0.97999	0.468
Mof_O 	O 	0.3582	0.8607	0.9352	-0.501
Mof_O 	O 	0.3837	0.8556	0.0249	-0.298
Mof_O 	O 	0.3674	0.8855	0.0213	-0.352
Mof_Zn	Zn	0.40922	0.73609	0.78943	1.208
Mof_Zn	Zn	0.61267	0.72446	0.74175	1.21
Mof_Zn	Zn	0.69658	0.6436	0.42792	1.221
Mof_Zn	Zn	0.79856	0.61463	0.58288	1.23
Mof_N 	N 	0.2657	0.74895	0.82577	-0.2
Mof_N 	N 	0.1776	0.79835	0.88518	-0.202
Mof_N 	N 	0.1414	0.72207	0.89015	-0.095
Mof_N 	N 	0.0658	0.76262	0.80956	-0.094
Mof_C 	C 	0.2787	0.7892	0.85795	-0.036
Mof_H 	H 	0.2926	0.813	0.8331	0.041
Mof_H 	H 	0.3439	0.7868	0.8861	0.034
Mof_C 	C 	0.1665	0.75365	0.78369	-0.018
Mof_H 	H 	0.1559	0.7271	0.762	0.039
Mof_H 	H 	0.1799	0.7771	0.7582	0.039
Mof_C 	C 	0.2419	0.71379	0.86403	-0.018
Mof_H 	H 	0.3059	0.7106	0.8927	0.038
Mof_H 	H 	0.233	0.6867	0.8433	0.039
Mof_C 	C 	0.0808	0.80181	0.84105	-0.018
Mof_H 	H 	0.094	0.8256	0.8161	0.037
Mof_H 	H 	0.012	0.8081	0.8581	0.027
Mof_C 	C 	0.1565	0.76177	0.9213	-0.011
Mof_H 	H 	0.0889	0.7676	0.9396	0.036
Mof_H 	H 	0.2201	0.7586	0.9502	0.029
Mof_C 	C 	0.0471	0.72729	0.84691	-0.002
Mof_H 	H 	0.9782	0.7327	0.8642	0.038
Mof_H 	H 	0.0366	0.7006	0.8255	0.041
Mof_N 	N 	0.7504	0.7148	0.70021	-0.2
Mof_N 	N 	0.8281	0.67032	0.63221	-0.195
Mof_N 	N 	0.8541	0.74752	0.63128	-0.094
Mof_N 	N 	0.9515	0.70481	0.70501	-0.096
Mof_C 	C 	0.7348	0.67612	0.66569	-0.033
Mof_H 	H 	0.6642	0.6785	0.6412	0.037
Mof_H 	H 	0.7295	0.6509	0.6895	0.031
Mof_C 	C 	0.7619	0.7525	0.6637	-0.024
Mof_H 	H 	0.7735	0.7785	0.6865	0.042
Mof_H 	H 	0.6921	0.7562	0.6389	0.045
Mof_C 	C 	0.8578	0.71014	0.73716	-0.014
Mof_H 	H 	0.8529	0.6851	0.7614	0.034
Mof_H 	H 	0.8699	0.7357	0.7607	0.036
Mof_C 	C 	0.8368	0.7093	0.59795	-0.01
Mof_H 	H 	0.7675	0.7125	0.5726	0.032
Mof_H 	H 	0.8995	0.7059	0.5755	0.034
Mof_C 	C 	0.9333	0.6671	0.67064	-0.012
Mof_H 	H 	0.9973	0.6633	0.649	0.033
Mof_H 	H 	0.9293	0.6417	0.6943	0.033
Mof_C 	C 	0.9571	0.74223	0.6694	-0.004
Mof_H 	H 	0.9691	0.768	0.6926	0.044
Mof_H 	H 	0.0215	0.7392	0.648	0.04
Mof_O 	O 	0.5094	0.73955	0.67104	-0.446
Mof_O 	O 	0.3497	0.73163	0.7089	-0.463
Mof_C 	C 	0.4049	0.73749	0.66871	0.37
Mof_C 	C 	0.3384	0.7418	0.61344	-0.079
Mof_C 	C 	0.3831	0.76021	0.57059	-0.031
Mof_H 	H 	0.4582	0.7697	0.5753	0.057
Mof_C 	C 	0.3186	0.76544	0.51868	0.027
Mof_C 	C 	0.3617	0.7848	0.4733	-0.088
Mof_H 	H 	0.4353	0.7959	0.4773	0.063
Mof_C 	C 	0.2979	0.78771	0.4236	0.018
Mof_H 	H 	0.3283	0.8004	0.3933	0.037
Mof_C 	C 	0.1874	0.77214	0.41673	-0.086
Mof_C 	C 	0.1434	0.75464	0.46033	-0.028
Mof_H 	H 	0.0682	0.7451	0.4559	0.055
Mof_C 	C 	0.2071	0.75032	0.51212	0.024
Mof_C 	C 	0.1641	0.73056	0.55719	-0.081
Mof_H 	H 	0.0899	0.7201	0.5531	0.06
Mof_C 	C 	0.2277	0.72633	0.60659	0.013
Mof_H 	H 	0.1975	0.713	0.6364	0.038
Mof_C 	C 	0.1209	0.77373	0.3614	0.373
Mof_O 	O 	0.0203	0.76272	0.35801	-0.465
Mof_O 	O 	0.1724	0.78564	0.32183	-0.458
Mof_O 	O 	0.629	0.78736	0.75716	-0.457
Mof_O 	O 	0.4533	0.79816	0.77577	-0.451
Mof_C 	C 	0.5504	0.8112	0.76954	0.362
Mof_C 	C 	0.5768	0.8572	0.77909	-0.082
Mof_C 	C 	0.6844	0.87244	0.7733	0.015
Mof_H 	H 	0.7383	0.8538	0.7609	0.039
Mof_C 	C 	0.7124	0.91371	0.7855	-0.087
Mof_H 	H 	0.7856	0.9235	0.7817	0.064
Mof_C 	C 	0.6331	0.94215	0.8038	0.028
Mof_C 	C 	0.6597	0.98469	0.8194	-0.045
Mof_H 	H 	0.7322	0.9953	0.8158	0.061
Mof_C 	C 	0.5828	0.0108	0.8396	-0.062
Mof_C 	C 	0.4748	0.99554	0.844	0.005
Mof_H 	H 	0.4212	0.0138	0.8574	0.044
Mof_C 	C 	0.4458	0.95489	0.8295	-0.084
Mof_H 	H 	0.3724	0.9451	0.8328	0.073
Mof_C 	C 	0.5242	0.92709	0.80933	0.029
Mof_C 	C 	0.4984	0.88424	0.79621	-0.036
Mof_H 	H 	0.4254	0.8739	0.7993	0.069
Mof_C 	C 	0.6178	0.05395	0.8623	0.307
Mof_O 	O 	0.5514	0.07579	0.8852	-0.371
Mof_O 	O 	0.7156	0.06571	0.86052	-0.412
Mof_O 	O 	0.5458	0.66584	0.73774	-0.473
Mof_O 	O 	0.4075	0.67067	0.79142	-0.45
Mof_C 	C 	0.4665	0.65053	0.76079	0.374
Mof_C 	C 	0.4397	0.60428	0.74977	-0.083
Mof_C 	C 	0.5007	0.58174	0.71551	-0.032
Mof_H 	H 	0.5624	0.5949	0.7014	0.061
Mof_C 	C 	0.4728	0.5392	0.70083	0.023
Mof_C 	C 	0.5316	0.51591	0.66371	-0.083
Mof_H 	H 	0.595	0.5282	0.6501	0.072
Mof_C 	C 	0.4981	0.47603	0.6474	-0
Mof_H 	H 	0.5371	0.4611	0.6217	0.045
Mof_C 	C 	0.4058	0.45673	0.66834	-0.058
Mof_C 	C 	0.3509	0.47746	0.70631	-0.051
Mof_H 	H 	0.2921	0.4635	0.7219	0.06
Mof_C 	C 	0.3806	0.51981	0.72295	0.032
Mof_C 	C 	0.321	0.54341	0.759	-0.09
Mof_H 	H 	0.2606	0.5306	0.7746	0.065
Mof_C 	C 	0.3494	0.58461	0.77174	0.018
Mof_H 	H 	0.3078	0.6002	0.7957	0.039
Mof_C 	C 	0.3614	0.41463	0.6457	0.297
Mof_O 	O 	0.289	0.3949	0.66742	-0.321
Mof_O 	O 	0.4017	0.40141	0.60245	-0.448
Mof_O 	O 	0.6358	0.62296	0.56824	-0.48
Mof_O 	O 	0.6191	0.66085	0.49082	-0.497
Mof_C 	C 	0.5791	0.64028	0.52847	0.399
Mof_C 	C 	0.4553	0.63643	0.527	-0.106
Mof_C 	C 	0.3878	0.64591	0.48075	-0.017
Mof_H 	H 	0.4198	0.6555	0.4492	0.039
Mof_C 	C 	0.2697	0.64178	0.47842	0.027
Mof_C 	C 	0.1984	0.65114	0.4307	-0.095
Mof_H 	H 	0.229	0.6593	0.3981	0.068
Mof_C 	C 	0.0859	0.64863	0.43076	0.042
Mof_H 	H 	0.0382	0.655	0.3983	0.035
Mof_C 	C 	0.0399	0.6365	0.4792	-0.129
Mof_C 	C 	0.1075	0.6264	0.5256	-0.011
Mof_H 	H 	0.0757	0.6178	0.5576	0.053
Mof_C 	C 	0.225	0.6286	0.5266	0.021
Mof_C 	C 	0.2967	0.6178	0.5742	-0.087
Mof_H 	H 	0.2665	0.6073	0.6058	0.067
Mof_C 	C 	0.4089	0.6224	0.5749	0.028
Mof_H 	H 	0.4565	0.6163	0.6074	0.039
Mof_C 	C 	0.9172	0.63668	0.47999	0.467
Mof_O 	O 	0.8582	0.6393	0.4352	-0.501
Mof_O 	O 	0.8837	0.6444	0.5249	-0.298
Mof_O 	O 	0.8674	0.6145	0.5213	-0.352
Mof_Zn	Zn	0.09078	0.23609	0.71057	1.208
Mof_Zn	Zn	0.88733	0.22446	0.75825	1.21
Mof_Zn	Zn	0.80342	0.1436	0.07208	1.221
Mof_Zn	Zn	0.70144	0.11463	0.91712	1.23
Mof_N 	N 	0.2343	0.24895	0.67423	-0.2
Mof_N 	N 	0.3224	0.29835	0.61482	-0.202
Mof_N 	N 	0.3586	0.22207	0.60985	-0.095
Mof_N 	N 	0.4342	0.26262	0.69044	-0.094
Mof_C 	C 	0.2213	0.2892	0.64205	-0.036
Mof_H 	H 	0.2074	0.313	0.6669	0.041
Mof_H 	H 	0.1561	0.2868	0.6139	0.034
Mof_C 	C 	0.3335	0.25365	0.71631	-0.018
Mof_H 	H 	0.3441	0.2271	0.738	0.039
Mof_H 	H 	0.3201	0.2771	0.7418	0.039
Mof_C 	C 	0.2581	0.21379	0.63597	-0.018
Mof_H 	H 	0.1941	0.2106	0.6073	0.038
Mof_H 	H 	0.267	0.1867	0.6567	0.039
Mof_C 	C 	0.4192	0.30181	0.65895	-0.018
Mof_H 	H 	0.406	0.3256	0.6839	0.037
Mof_H 	H 	0.488	0.3081	0.6419	0.027
Mof_C 	C 	0.3435	0.26177	0.5787	-0.011
Mof_H 	H 	0.4111	0.2676	0.5604	0.036
Mof_H 	H 	0.2799	0.2586	0.5498	0.029
Mof_C 	C 	0.4529	0.22729	0.65309	-0.003
Mof_H 	H 	0.5218	0.2327	0.6358	0.039
Mof_H 	H 	0.4634	0.2006	0.6745	0.041
Mof_N 	N 	0.7496	0.2148	0.79979	-0.2
Mof_N 	N 	0.6719	0.17032	0.86779	-0.195
Mof_N 	N 	0.6459	0.24752	0.86872	-0.094
Mof_N 	N 	0.5485	0.20481	0.79499	-0.096
Mof_C 	C 	0.7652	0.17612	0.83431	-0.033
Mof_H 	H 	0.8358	0.1785	0.8588	0.037
Mof_H 	H 	0.7705	0.1509	0.8105	0.031
Mof_C 	C 	0.7381	0.2525	0.8363	-0.024
Mof_H 	H 	0.7265	0.2785	0.8135	0.042
Mof_H 	H 	0.8079	0.2562	0.8611	0.045
Mof_C 	C 	0.6422	0.21014	0.76284	-0.014
Mof_H 	H 	0.6471	0.1851	0.7386	0.035
Mof_H 	H 	0.6301	0.2357	0.7393	0.037
Mof_C 	C 	0.6632	0.2093	0.90205	-0.011
Mof_H 	H 	0.7325	0.2125	0.9274	0.032
Mof_H 	H 	0.6005	0.2059	0.9245	0.034
Mof_C 	C 	0.5667	0.1671	0.82936	-0.012
Mof_H 	H 	0.5027	0.1633	0.851	0.033
Mof_H 	H 	0.5707	0.1417	0.8057	0.033
Mof_C 	C 	0.5429	0.24223	0.8306	-0.003
Mof_H 	H 	0.5309	0.268	0.8074	0.043
Mof_H 	H 	0.4785	0.2392	0.852	0.039
Mof_O 	O 	0.9906	0.23955	0.82896	-0.445
Mof_O 	O 	0.1503	0.23163	0.7911	-0.462
Mof_C 	C 	0.0951	0.23749	0.83129	0.369
Mof_C 	C 	0.1616	0.2418	0.88656	-0.078
Mof_C 	C 	0.1169	0.26021	0.92941	-0.031
Mof_H 	H 	0.0418	0.2697	0.9247	0.056
Mof_C 	C 	0.1814	0.26544	0.98132	0.027
Mof_C 	C 	0.1383	0.2848	0.0267	-0.088
Mof_H 	H 	0.0647	0.2959	0.0227	0.063
Mof_C 	C 	0.2021	0.28771	0.0764	0.018
Mof_H 	H 	0.1717	0.3004	0.1067	0.037
Mof_C 	C 	0.3126	0.27214	0.08327	-0.086
Mof_C 	C 	0.3566	0.25464	0.03967	-0.028
Mof_H 	H 	0.4318	0.2451	0.0441	0.055
Mof_C 	C 	0.2929	0.25032	0.98788	0.024
Mof_C 	C 	0.3359	0.23056	0.94281	-0.081
Mof_H 	H 	0.4101	0.2201	0.9469	0.06
Mof_C 	C 	0.2723	0.22633	0.89341	0.013
Mof_H 	H 	0.3025	0.213	0.8636	0.038
Mof_C 	C 	0.3791	0.27373	0.1386	0.373
Mof_O 	O 	0.4797	0.26272	0.14199	-0.466
Mof_O 	O 	0.3276	0.28564	0.17817	-0.458
Mof_O 	O 	0.871	0.28736	0.74284	-0.457
Mof_O 	O 	0.0467	0.29816	0.72423	-0.452
Mof_C 	C 	0.9496	0.3112	0.73046	0.363
Mof_C 	C 	0.9232	0.3572	0.72091	-0.08
Mof_C 	C 	0.8156	0.37244	0.7267	0.013
Mof_H 	H 	0.7617	0.3538	0.7391	0.04
Mof_C 	C 	0.7876	0.41371	0.7145	-0.085
Mof_H 	H 	0.7144	0.4235	0.7183	0.063
Mof_C 	C 	0.8669	0.44215	0.6962	0.026
Mof_C 	C 	0.8403	0.48469	0.6806	-0.043
Mof_H 	H 	0.7678	0.4953	0.6842	0.06
Mof_C 	C 	0.9172	0.5108	0.6604	-0.063
Mof_C 	C 	0.0252	0.49554	0.656	0.006
Mof_H 	H 	0.0788	0.5138	0.6426	0.044
Mof_C 	C 	0.0542	0.45489	0.6705	-0.086
Mof_H 	H 	0.1276	0.4451	0.6672	0.074
Mof_C 	C 	0.9758	0.42709	0.69067	0.033
Mof_C 	C 	0.0016	0.38424	0.70379	-0.04
Mof_H 	H 	0.0746	0.3739	0.7007	0.07
Mof_C 	C 	0.8822	0.55395	0.6377	0.307
Mof_O 	O 	0.9486	0.57579	0.6148	-0.371
Mof_O 	O 	0.7844	0.56571	0.63948	-0.412
Mof_O 	O 	0.9542	0.16584	0.76226	-0.472
Mof_O 	O 	0.0925	0.17067	0.70858	-0.45
Mof_C 	C 	0.0335	0.15053	0.73921	0.373
Mof_C 	C 	0.0603	0.10428	0.75023	-0.085
Mof_C 	C 	0.9993	0.08174	0.78449	-0.029
Mof_H 	H 	0.9376	0.0949	0.7986	0.06
Mof_C 	C 	0.0272	0.0392	0.79917	0.02
Mof_C 	C 	0.9684	0.01591	0.83629	-0.08
Mof_H 	H 	0.905	0.0282	0.8499	0.071
Mof_C 	C 	0.0019	0.97603	0.8526	-0.001
Mof_H 	H 	0.9629	0.9611	0.8783	0.045
Mof_C 	C 	0.0942	0.95673	0.83166	-0.057
Mof_C 	C 	0.1491	0.97746	0.79369	-0.052
Mof_H 	H 	0.2079	0.9635	0.7781	0.061
Mof_C 	C 	0.1194	0.01981	0.77705	0.033
Mof_C 	C 	0.179	0.04341	0.741	-0.092
Mof_H 	H 	0.2394	0.0306	0.7254	0.065
Mof_C 	C 	0.1506	0.08461	0.72826	0.02
Mof_H 	H 	0.1922	0.1002	0.7043	0.038
Mof_C 	C 	0.1386	0.91463	0.8543	0.297
Mof_O 	O 	0.211	0.8949	0.83258	-0.32
Mof_O 	O 	0.0983	0.90141	0.89755	-0.448
Mof_O 	O 	0.8642	0.12296	0.93176	-0.48
Mof_O 	O 	0.8809	0.16085	0.00918	-0.497
Mof_C 	C 	0.9209	0.14028	0.97153	0.4
Mof_C 	C 	0.0447	0.13643	0.973	-0.108
Mof_C 	C 	0.1122	0.14591	0.01925	-0.016
Mof_H 	H 	0.0802	0.1555	0.0508	0.039
Mof_C 	C 	0.2303	0.14178	0.02158	0.027
Mof_C 	C 	0.3016	0.15114	0.0693	-0.095
Mof_H 	H 	0.271	0.1593	0.1019	0.068
Mof_C 	C 	0.4141	0.14863	0.06924	0.042
Mof_H 	H 	0.4618	0.155	0.1017	0.035
Mof_C 	C 	0.4601	0.1365	0.0208	-0.13
Mof_C 	C 	0.3925	0.1264	0.9744	-0.01
Mof_H 	H 	0.4243	0.1178	0.9424	0.053
Mof_C 	C 	0.275	0.1286	0.9734	0.021
Mof_C 	C 	0.2033	0.1178	0.9258	-0.088
Mof_H 	H 	0.2335	0.1073	0.8942	0.067
Mof_C 	C 	0.0911	0.1224	0.9251	0.029
Mof_H 	H 	0.0435	0.1163	0.8926	0.038
Mof_C 	C 	0.5828	0.13668	0.02001	0.468
Mof_O 	O 	0.6418	0.1393	0.0648	-0.501
Mof_O 	O 	0.6163	0.1444	0.9751	-0.298
Mof_O 	O 	0.6326	0.1145	0.9787	-0.352
_end
