data_functionalizedCrystal
_audit_creation_method	'EQeq! by Chris Wilmer'
_symmetry_space_group_name_H-M	'P1'
_symmetry_Int_Tables_number	1
_symmetry_cell_setting	triclinic
loop_
_symmetry_equiv_pos_as_xyz
  x,y,z
_cell_length_a	7.72
_cell_length_b	21.25
_cell_length_c	21.25
_cell_angle_alpha	120
_cell_angle_beta	90
_cell_angle_gamma	90
loop_
_atom_site_label
_atom_site_type_symbol
_atom_site_fract_x
_atom_site_fract_y
_atom_site_fract_z
_atom_site_charge
Mof_Zn	Zn	0.83333	0.59806	0.29903	1.233
Mof_Zn	Zn	0.16667	0.70097	0.40194	1.232
Mof_Zn	Zn	0.5	0.70097	0.29903	1.232
Mof_Zn	Zn	0.83333	0.40194	0.70097	1.232
Mof_Zn	Zn	0.16667	0.29903	0.59806	1.233
Mof_Zn	Zn	0.5	0.29903	0.70097	1.232
Mof_H 	H 	0.7244	0.7464	0.1543	0.015
Mof_H 	H 	0.8471	0.764	0.065	0.314
Mof_H 	H 	0.1408	0.6376	0.1568	-0.038
Mof_H 	H 	0.2674	0.6569	0.0696	0.205
Mof_H 	H 	0.05773	0.4079	0.2536	0.011
Mof_H 	H 	0.18043	0.301	0.236	0.313
Mof_H 	H 	0.47413	0.5192	0.3624	-0.042
Mof_H 	H 	0.60073	0.4127	0.3431	0.204
Mof_H 	H 	0.39107	0.8457	0.5921	0.021
Mof_H 	H 	0.51377	0.935	0.699	0.289
Mof_H 	H 	0.80747	0.8432	0.4808	-0.033
Mof_H 	H 	0.93407	0.9304	0.5873	0.182
Mof_H 	H 	0.7244	0.2536	0.8457	0.022
Mof_H 	H 	0.8471	0.236	0.935	0.287
Mof_H 	H 	0.1408	0.3624	0.8432	-0.031
Mof_H 	H 	0.2674	0.3431	0.9304	0.18
Mof_H 	H 	0.05773	0.5921	0.7464	0.01
Mof_H 	H 	0.18043	0.699	0.764	0.312
Mof_H 	H 	0.47413	0.4808	0.6376	-0.042
Mof_H 	H 	0.60073	0.5873	0.6569	0.204
Mof_H 	H 	0.39107	0.1543	0.4079	0.015
Mof_H 	H 	0.51377	0.065	0.301	0.316
Mof_H 	H 	0.80747	0.1568	0.5192	-0.038
Mof_H 	H 	0.93407	0.0696	0.4127	0.205
Mof_H 	H 	0.60893	0.5921	0.8457	0.021
Mof_H 	H 	0.48623	0.699	0.935	0.289
Mof_H 	H 	0.19253	0.4808	0.8432	-0.033
Mof_H 	H 	0.06593	0.5873	0.9304	0.182
Mof_H 	H 	0.2756	0.1543	0.7464	0.015
Mof_H 	H 	0.1529	0.065	0.764	0.314
Mof_H 	H 	0.8592	0.1568	0.6376	-0.038
Mof_H 	H 	0.7326	0.0696	0.6569	0.205
Mof_H 	H 	0.94227	0.2536	0.4079	0.011
Mof_H 	H 	0.81957	0.236	0.301	0.313
Mof_H 	H 	0.52587	0.3624	0.5192	-0.042
Mof_H 	H 	0.39927	0.3431	0.4127	0.204
Mof_H 	H 	0.60893	0.4079	0.1543	0.015
Mof_H 	H 	0.48623	0.301	0.065	0.316
Mof_H 	H 	0.19253	0.5192	0.1568	-0.038
Mof_H 	H 	0.06593	0.4127	0.0696	0.205
Mof_H 	H 	0.2756	0.8457	0.2536	0.022
Mof_H 	H 	0.1529	0.935	0.236	0.287
Mof_H 	H 	0.8592	0.8432	0.3624	-0.031
Mof_H 	H 	0.7326	0.9304	0.3431	0.18
Mof_H 	H 	0.94227	0.7464	0.5921	0.01
Mof_H 	H 	0.81957	0.764	0.699	0.312
Mof_H 	H 	0.52587	0.6376	0.4808	-0.042
Mof_H 	H 	0.39927	0.6569	0.5873	0.204
Mof_C 	C 	0.8283	0.677	0.2196	0.491
Mof_C 	C 	0.9154	0.6893	0.1628	-0.281
Mof_C 	C 	0.8335	0.7273	0.1365	0.284
Mof_C 	C 	0.9077	0.7388	0.0833	-0.353
Mof_C 	C 	0.0813	0.6629	0.1383	0.268
Mof_C 	C 	0.1566	0.6748	0.086	-0.372
Mof_C 	C 	0.0738	0.712	0.0573	0.441
Mof_C 	C 	0.0411	0.7447	0.9572	0.956
Mof_C 	C 	0.16163	0.5426	0.323	0.493
Mof_C 	C 	0.24873	0.4735	0.3107	-0.29
Mof_C 	C 	0.16683	0.4092	0.2727	0.292
Mof_C 	C 	0.24103	0.3445	0.2612	-0.369
Mof_C 	C 	0.41463	0.4754	0.3371	0.275
Mof_C 	C 	0.48993	0.4112	0.3252	-0.388
Mof_C 	C 	0.40713	0.3453	0.288	0.455
Mof_C 	C 	0.37443	0.2125	0.2553	0.991
Mof_C 	C 	0.49497	0.7804	0.4574	0.484
Mof_C 	C 	0.58207	0.8372	0.5265	-0.268
Mof_C 	C 	0.50017	0.8635	0.5908	0.259
Mof_C 	C 	0.57437	0.9167	0.6555	-0.33
Mof_C 	C 	0.74797	0.8617	0.5246	0.242
Mof_C 	C 	0.82327	0.914	0.5888	-0.348
Mof_C 	C 	0.74047	0.9427	0.6547	0.392
Mof_C 	C 	0.70777	0.0428	0.7875	0.981
Mof_C 	C 	0.8283	0.323	0.7804	0.482
Mof_C 	C 	0.9154	0.3107	0.8372	-0.262
Mof_C 	C 	0.8335	0.2727	0.8635	0.253
Mof_C 	C 	0.9077	0.2612	0.9167	-0.323
Mof_C 	C 	0.0813	0.3371	0.8617	0.236
Mof_C 	C 	0.1566	0.3252	0.914	-0.342
Mof_C 	C 	0.0738	0.288	0.9427	0.385
Mof_C 	C 	0.0411	0.2553	0.0428	0.978
Mof_C 	C 	0.16163	0.4574	0.677	0.493
Mof_C 	C 	0.24873	0.5265	0.6893	-0.29
Mof_C 	C 	0.16683	0.5908	0.7273	0.292
Mof_C 	C 	0.24103	0.6555	0.7388	-0.369
Mof_C 	C 	0.41463	0.5246	0.6629	0.276
Mof_C 	C 	0.48993	0.5888	0.6748	-0.388
Mof_C 	C 	0.40713	0.6547	0.712	0.455
Mof_C 	C 	0.37443	0.7875	0.7447	0.993
Mof_C 	C 	0.49497	0.2196	0.5426	0.491
Mof_C 	C 	0.58207	0.1628	0.4735	-0.281
Mof_C 	C 	0.50017	0.1365	0.4092	0.285
Mof_C 	C 	0.57437	0.0833	0.3445	-0.353
Mof_C 	C 	0.74797	0.1383	0.4754	0.268
Mof_C 	C 	0.82327	0.086	0.4112	-0.372
Mof_C 	C 	0.74047	0.0573	0.3453	0.44
Mof_C 	C 	0.70777	0.9572	0.2125	0.955
Mof_C 	C 	0.50503	0.4574	0.7804	0.484
Mof_C 	C 	0.41793	0.5265	0.8372	-0.268
Mof_C 	C 	0.49983	0.5908	0.8635	0.259
Mof_C 	C 	0.42563	0.6555	0.9167	-0.33
Mof_C 	C 	0.25203	0.5246	0.8617	0.242
Mof_C 	C 	0.17673	0.5888	0.914	-0.348
Mof_C 	C 	0.25953	0.6547	0.9427	0.392
Mof_C 	C 	0.29223	0.7875	0.0428	0.981
Mof_C 	C 	0.1717	0.2196	0.677	0.491
Mof_C 	C 	0.0846	0.1628	0.6893	-0.281
Mof_C 	C 	0.1665	0.1365	0.7273	0.284
Mof_C 	C 	0.0923	0.0833	0.7388	-0.353
Mof_C 	C 	0.9187	0.1383	0.6629	0.268
Mof_C 	C 	0.8434	0.086	0.6748	-0.372
Mof_C 	C 	0.9262	0.0573	0.712	0.441
Mof_C 	C 	0.9589	0.9572	0.7447	0.956
Mof_C 	C 	0.83837	0.323	0.5426	0.493
Mof_C 	C 	0.75127	0.3107	0.4735	-0.29
Mof_C 	C 	0.83317	0.2727	0.4092	0.292
Mof_C 	C 	0.75897	0.2612	0.3445	-0.369
Mof_C 	C 	0.58537	0.3371	0.4754	0.275
Mof_C 	C 	0.51007	0.3252	0.4112	-0.388
Mof_C 	C 	0.59287	0.288	0.3453	0.455
Mof_C 	C 	0.62557	0.2553	0.2125	0.991
Mof_C 	C 	0.50503	0.5426	0.2196	0.491
Mof_C 	C 	0.41793	0.4735	0.1628	-0.281
Mof_C 	C 	0.49983	0.4092	0.1365	0.285
Mof_C 	C 	0.42563	0.3445	0.0833	-0.353
Mof_C 	C 	0.25203	0.4754	0.1383	0.268
Mof_C 	C 	0.17673	0.4112	0.086	-0.372
Mof_C 	C 	0.25953	0.3453	0.0573	0.44
Mof_C 	C 	0.29223	0.2125	0.9572	0.955
Mof_C 	C 	0.1717	0.7804	0.323	0.482
Mof_C 	C 	0.0846	0.8372	0.3107	-0.262
Mof_C 	C 	0.1665	0.8635	0.2727	0.253
Mof_C 	C 	0.0923	0.9167	0.2612	-0.323
Mof_C 	C 	0.9187	0.8617	0.3371	0.236
Mof_C 	C 	0.8434	0.914	0.3252	-0.342
Mof_C 	C 	0.9262	0.9427	0.288	0.385
Mof_C 	C 	0.9589	0.0428	0.2553	0.978
Mof_C 	C 	0.83837	0.677	0.4574	0.493
Mof_C 	C 	0.75127	0.6893	0.5265	-0.29
Mof_C 	C 	0.83317	0.7273	0.5908	0.292
Mof_C 	C 	0.75897	0.7388	0.6555	-0.369
Mof_C 	C 	0.58537	0.6629	0.5246	0.276
Mof_C 	C 	0.51007	0.6748	0.5888	-0.388
Mof_C 	C 	0.59287	0.712	0.6547	0.455
Mof_C 	C 	0.62557	0.7447	0.7875	0.993
Mof_C 	C 	0.16667	0.7231	-0	-0.498
Mof_C 	C 	0.5	0.2769	0.2769	-0.562
Mof_C 	C 	0.83333	7.53138e-17	0.7231	-0.498
Mof_C 	C 	0.16667	0.2769	-0	-0.495
Mof_C 	C 	0.5	0.7231	0.7231	-0.564
Mof_C 	C 	0.83333	1.88284e-17	0.2769	-0.495
Mof_O 	O 	0.9073	0.6376	0.2389	-0.526
Mof_O 	O 	0.6857	0.7066	0.2422	-0.506
Mof_O 	O 	0.24063	0.6013	0.3624	-0.527
Mof_O 	O 	0.01903	0.5356	0.2934	-0.507
Mof_O 	O 	0.57397	0.7611	0.3987	-0.527
Mof_O 	O 	0.35237	0.7578	0.4644	-0.505
Mof_O 	O 	0.9073	0.3624	0.7611	-0.525
Mof_O 	O 	0.6857	0.2934	0.7578	-0.505
Mof_O 	O 	0.24063	0.3987	0.6376	-0.528
Mof_O 	O 	0.01903	0.4644	0.7066	-0.508
Mof_O 	O 	0.57397	0.2389	0.6013	-0.526
Mof_O 	O 	0.35237	0.2422	0.5356	-0.506
Mof_O 	O 	0.42603	0.3987	0.7611	-0.527
Mof_O 	O 	0.64763	0.4644	0.7578	-0.505
Mof_O 	O 	0.0927	0.2389	0.6376	-0.526
Mof_O 	O 	0.3143	0.2422	0.7066	-0.506
Mof_O 	O 	0.75937	0.3624	0.6013	-0.527
Mof_O 	O 	0.98097	0.2934	0.5356	-0.507
Mof_O 	O 	0.42603	0.6013	0.2389	-0.526
Mof_O 	O 	0.64763	0.5356	0.2422	-0.506
Mof_O 	O 	0.0927	0.7611	0.3624	-0.525
Mof_O 	O 	0.3143	0.7578	0.2934	-0.505
Mof_O 	O 	0.75937	0.6376	0.3987	-0.528
Mof_O 	O 	0.98097	0.7066	0.4644	-0.508
Mof_F 	F 	0.1225	0.7465	0.9024	-0.399
Mof_F 	F 	0.9121	0.6977	0.9285	-0.485
Mof_F 	F 	0.9697	0.8101	0.9971	-0.374
Mof_F 	F 	0.45583	0.1559	0.2535	-0.394
Mof_F 	F 	0.24543	0.2308	0.3023	-0.485
Mof_F 	F 	0.30303	0.187	0.1899	-0.355
Mof_F 	F 	0.78917	0.0976	0.8441	-0.397
Mof_F 	F 	0.57877	0.0715	0.7692	-0.479
Mof_F 	F 	0.63637	0.0029	0.813	-0.347
Mof_F 	F 	0.1225	0.2535	0.0976	-0.392
Mof_F 	F 	0.9121	0.3023	0.0715	-0.477
Mof_F 	F 	0.9697	0.1899	0.0029	-0.34
Mof_F 	F 	0.45583	0.8441	0.7465	-0.404
Mof_F 	F 	0.24543	0.7692	0.6977	-0.487
Mof_F 	F 	0.30303	0.813	0.8101	-0.368
Mof_F 	F 	0.78917	0.9024	0.1559	-0.395
Mof_F 	F 	0.57877	0.9285	0.2308	-0.486
Mof_F 	F 	0.63637	0.9971	0.187	-0.369
Mof_F 	F 	0.21083	0.8441	0.0976	-0.397
Mof_F 	F 	0.42123	0.7692	0.0715	-0.479
Mof_F 	F 	0.36363	0.813	0.0029	-0.347
Mof_F 	F 	0.8775	0.9024	0.7465	-0.399
Mof_F 	F 	0.0879	0.9285	0.6977	-0.485
Mof_F 	F 	0.0303	0.9971	0.8101	-0.374
Mof_F 	F 	0.54417	0.2535	0.1559	-0.394
Mof_F 	F 	0.75457	0.3023	0.2308	-0.485
Mof_F 	F 	0.69697	0.1899	0.187	-0.355
Mof_F 	F 	0.21083	0.1559	0.9024	-0.395
Mof_F 	F 	0.42123	0.2308	0.9285	-0.486
Mof_F 	F 	0.36363	0.187	0.9971	-0.369
Mof_F 	F 	0.8775	0.0976	0.2535	-0.392
Mof_F 	F 	0.0879	0.0715	0.3023	-0.477
Mof_F 	F 	0.0303	0.0029	0.1899	-0.34
Mof_F 	F 	0.54417	0.7465	0.8441	-0.404
Mof_F 	F 	0.75457	0.6977	0.7692	-0.487
Mof_F 	F 	0.69697	0.8101	0.813	-0.368
_end
