data_functionalizedCrystal
_audit_creation_method	'EQeq! by Chris Wilmer'
_symmetry_space_group_name_H-M	'P1'
_symmetry_Int_Tables_number	1
_symmetry_cell_setting	triclinic
loop_
_symmetry_equiv_pos_as_xyz
  x,y,z
_cell_length_a	19.4876
_cell_length_b	19.4876
_cell_length_c	26.377
_cell_angle_alpha	90
_cell_angle_beta	90
_cell_angle_gamma	90
loop_
_atom_site_label
_atom_site_type_symbol
_atom_site_fract_x
_atom_site_fract_y
_atom_site_fract_z
_atom_site_charge
Mof_Sm	Sm	0.44101	0.05899	0.80287	1.727
Mof_Sm	Sm	0.05899	0.44101	0.80287	1.727
Mof_Sm	Sm	0.44101	0.44101	0.30287	1.722
Mof_Sm	Sm	0.05899	0.05899	0.30287	1.721
Mof_Sm	Sm	0.55899	0.55899	0.69713	1.723
Mof_Sm	Sm	0.94101	0.94101	0.69713	1.722
Mof_Sm	Sm	0.55899	0.94101	0.19713	1.717
Mof_Sm	Sm	0.94101	0.55899	0.19713	1.717
Mof_Cd	Cd	0.5299	0.9701	0.69607	0.455
Mof_Cd	Cd	0.9701	0.5299	0.69607	0.455
Mof_Cd	Cd	0.5299	0.5299	0.19607	0.453
Mof_Cd	Cd	0.9701	0.9701	0.19607	0.451
Mof_Cd	Cd	0.4701	0.4701	0.80393	0.456
Mof_Cd	Cd	0.0299	0.0299	0.80393	0.454
Mof_Cd	Cd	0.4701	0.0299	0.30393	0.454
Mof_Cd	Cd	0.0299	0.4701	0.30393	0.454
Mof_Cd	Cd	0.75	0.25	0.5	0.511
Mof_Cd	Cd	0.25	0.75	-0	0.496
Mof_Cd	Cd	0.25	0.75	0.5	0.511
Mof_Cd	Cd	0.75	0.25	-0	0.496
Mof_H 	H 	0.4873	0.2512	0.7308	-0.023
Mof_H 	H 	0.59	0.1671	0.6151	0.021
Mof_H 	H 	0.5955	0.3704	0.6357	-0.023
Mof_H 	H 	0.0127	0.2488	0.7308	-0.025
Mof_H 	H 	0.91	0.3329	0.6151	0.02
Mof_H 	H 	0.9045	0.1296	0.6357	-0.024
Mof_H 	H 	0.2488	0.4873	0.2308	-0.024
Mof_H 	H 	0.3329	0.59	0.1151	0.019
Mof_H 	H 	0.1296	0.5955	0.1357	-0.025
Mof_H 	H 	0.2512	0.0127	0.2308	-0.025
Mof_H 	H 	0.1671	0.91	0.1151	0.019
Mof_H 	H 	0.3704	0.9045	0.1357	-0.025
Mof_H 	H 	0.5127	0.7512	0.7692	-0.023
Mof_H 	H 	0.41	0.6671	0.8849	0.023
Mof_H 	H 	0.4045	0.8704	0.8643	-0.022
Mof_H 	H 	0.9873	0.7488	0.7692	-0.023
Mof_H 	H 	0.09	0.8329	0.8849	0.023
Mof_H 	H 	0.0955	0.6296	0.8643	-0.022
Mof_H 	H 	0.7512	0.9873	0.2692	-0.025
Mof_H 	H 	0.6671	0.09	0.3849	0.02
Mof_H 	H 	0.8704	0.0955	0.3643	-0.024
Mof_H 	H 	0.7488	0.5127	0.2692	-0.024
Mof_H 	H 	0.8329	0.41	0.3849	0.021
Mof_H 	H 	0.6296	0.4045	0.3643	-0.024
Mof_H 	H 	0.5127	0.7488	0.2692	-0.024
Mof_H 	H 	0.41	0.8329	0.3849	0.021
Mof_H 	H 	0.4045	0.6296	0.3643	-0.024
Mof_H 	H 	0.9873	0.7512	0.2692	-0.025
Mof_H 	H 	0.09	0.6671	0.3849	0.02
Mof_H 	H 	0.0955	0.8704	0.3643	-0.024
Mof_H 	H 	0.7512	0.5127	0.7692	-0.023
Mof_H 	H 	0.6671	0.41	0.8849	0.023
Mof_H 	H 	0.8704	0.4045	0.8643	-0.022
Mof_H 	H 	0.7488	0.9873	0.7692	-0.023
Mof_H 	H 	0.8329	0.09	0.8849	0.023
Mof_H 	H 	0.6296	0.0955	0.8643	-0.022
Mof_H 	H 	0.4873	0.2488	0.2308	-0.024
Mof_H 	H 	0.59	0.3329	0.1151	0.019
Mof_H 	H 	0.5955	0.1296	0.1357	-0.025
Mof_H 	H 	0.0127	0.2512	0.2308	-0.025
Mof_H 	H 	0.91	0.1671	0.1151	0.019
Mof_H 	H 	0.9045	0.3704	0.1357	-0.025
Mof_H 	H 	0.2488	0.0127	0.7308	-0.025
Mof_H 	H 	0.3329	0.91	0.6151	0.02
Mof_H 	H 	0.1296	0.9045	0.6357	-0.024
Mof_H 	H 	0.2512	0.4873	0.7308	-0.023
Mof_H 	H 	0.1671	0.59	0.6151	0.021
Mof_H 	H 	0.3704	0.5955	0.6357	-0.023
Mof_C 	C 	0.5164	0.1286	0.6936	0.454
Mof_C 	C 	0.538	0.3203	0.6881	-0.228
Mof_C 	C 	0.6476	0.275	0.5745	0.332
Mof_C 	C 	0.5347	0.1991	0.6754	-0.21
Mof_C 	C 	0.5988	0.2696	0.6184	-0.167
Mof_C 	C 	0.5155	0.2559	0.7026	0.153
Mof_C 	C 	0.5768	0.2058	0.6332	0.116
Mof_C 	C 	0.5801	0.3273	0.6456	0.132
Mof_C 	C 	0.5195	0.3818	0.7197	0.48
Mof_C 	C 	0.9836	0.3714	0.6936	0.456
Mof_C 	C 	0.962	0.1797	0.6881	-0.23
Mof_C 	C 	0.8524	0.225	0.5745	0.333
Mof_C 	C 	0.9653	0.3009	0.6754	-0.213
Mof_C 	C 	0.9012	0.2304	0.6184	-0.168
Mof_C 	C 	0.9845	0.2441	0.7026	0.157
Mof_C 	C 	0.9232	0.2942	0.6332	0.118
Mof_C 	C 	0.9199	0.1727	0.6456	0.134
Mof_C 	C 	0.9805	0.1182	0.7197	0.483
Mof_C 	C 	0.3714	0.5164	0.1936	0.454
Mof_C 	C 	0.1797	0.538	0.1881	-0.229
Mof_C 	C 	0.225	0.6476	0.0745	0.333
Mof_C 	C 	0.3009	0.5347	0.1754	-0.212
Mof_C 	C 	0.2304	0.5988	0.1184	-0.169
Mof_C 	C 	0.2441	0.5155	0.2026	0.154
Mof_C 	C 	0.2942	0.5768	0.1332	0.117
Mof_C 	C 	0.1727	0.5801	0.1456	0.133
Mof_C 	C 	0.1182	0.5195	0.2197	0.48
Mof_C 	C 	0.1286	0.9836	0.1936	0.456
Mof_C 	C 	0.3203	0.962	0.1881	-0.23
Mof_C 	C 	0.275	0.8524	0.0745	0.333
Mof_C 	C 	0.1991	0.9653	0.1754	-0.213
Mof_C 	C 	0.2696	0.9012	0.1184	-0.17
Mof_C 	C 	0.2559	0.9845	0.2026	0.156
Mof_C 	C 	0.2058	0.9232	0.1332	0.118
Mof_C 	C 	0.3273	0.9199	0.1456	0.134
Mof_C 	C 	0.3818	0.9805	0.2197	0.48
Mof_C 	C 	0.4836	0.6286	0.8064	0.453
Mof_C 	C 	0.462	0.8203	0.8119	-0.226
Mof_C 	C 	0.3524	0.775	0.9255	0.331
Mof_C 	C 	0.4653	0.6991	0.8246	-0.208
Mof_C 	C 	0.4012	0.7696	0.8816	-0.163
Mof_C 	C 	0.4845	0.7559	0.7974	0.152
Mof_C 	C 	0.4232	0.7058	0.8668	0.115
Mof_C 	C 	0.4199	0.8273	0.8544	0.131
Mof_C 	C 	0.4805	0.8818	0.7803	0.48
Mof_C 	C 	0.0164	0.8714	0.8064	0.454
Mof_C 	C 	0.038	0.6797	0.8119	-0.227
Mof_C 	C 	0.1476	0.725	0.9255	0.331
Mof_C 	C 	0.0347	0.8009	0.8246	-0.209
Mof_C 	C 	0.0988	0.7304	0.8816	-0.164
Mof_C 	C 	0.0155	0.7441	0.7974	0.153
Mof_C 	C 	0.0768	0.7942	0.8668	0.115
Mof_C 	C 	0.0801	0.6727	0.8544	0.131
Mof_C 	C 	0.0195	0.6182	0.7803	0.48
Mof_C 	C 	0.6286	0.0164	0.3064	0.455
Mof_C 	C 	0.8203	0.038	0.3119	-0.23
Mof_C 	C 	0.775	0.1476	0.4255	0.333
Mof_C 	C 	0.6991	0.0347	0.3246	-0.212
Mof_C 	C 	0.7696	0.0988	0.3816	-0.167
Mof_C 	C 	0.7559	0.0155	0.2974	0.157
Mof_C 	C 	0.7058	0.0768	0.3668	0.118
Mof_C 	C 	0.8273	0.0801	0.3544	0.134
Mof_C 	C 	0.8818	0.0195	0.2803	0.482
Mof_C 	C 	0.8714	0.4836	0.3064	0.454
Mof_C 	C 	0.6797	0.462	0.3119	-0.228
Mof_C 	C 	0.725	0.3524	0.4255	0.332
Mof_C 	C 	0.8009	0.4653	0.3246	-0.211
Mof_C 	C 	0.7304	0.4012	0.3816	-0.167
Mof_C 	C 	0.7441	0.4845	0.2974	0.153
Mof_C 	C 	0.7942	0.4232	0.3668	0.116
Mof_C 	C 	0.6727	0.4199	0.3544	0.132
Mof_C 	C 	0.6182	0.4805	0.2803	0.48
Mof_C 	C 	0.4836	0.8714	0.3064	0.454
Mof_C 	C 	0.462	0.6797	0.3119	-0.228
Mof_C 	C 	0.3524	0.725	0.4255	0.332
Mof_C 	C 	0.4653	0.8009	0.3246	-0.211
Mof_C 	C 	0.4012	0.7304	0.3816	-0.167
Mof_C 	C 	0.4845	0.7441	0.2974	0.153
Mof_C 	C 	0.4232	0.7942	0.3668	0.116
Mof_C 	C 	0.4199	0.6727	0.3544	0.132
Mof_C 	C 	0.4805	0.6182	0.2803	0.48
Mof_C 	C 	0.0164	0.6286	0.3064	0.455
Mof_C 	C 	0.038	0.8203	0.3119	-0.23
Mof_C 	C 	0.1476	0.775	0.4255	0.333
Mof_C 	C 	0.0347	0.6991	0.3246	-0.212
Mof_C 	C 	0.0988	0.7696	0.3816	-0.167
Mof_C 	C 	0.0155	0.7559	0.2974	0.157
Mof_C 	C 	0.0768	0.7058	0.3668	0.118
Mof_C 	C 	0.0801	0.8273	0.3544	0.134
Mof_C 	C 	0.0195	0.8818	0.2803	0.482
Mof_C 	C 	0.6286	0.4836	0.8064	0.453
Mof_C 	C 	0.8203	0.462	0.8119	-0.226
Mof_C 	C 	0.775	0.3524	0.9255	0.331
Mof_C 	C 	0.6991	0.4653	0.8246	-0.208
Mof_C 	C 	0.7696	0.4012	0.8816	-0.163
Mof_C 	C 	0.7559	0.4845	0.7974	0.152
Mof_C 	C 	0.7058	0.4232	0.8668	0.115
Mof_C 	C 	0.8273	0.4199	0.8544	0.131
Mof_C 	C 	0.8818	0.4805	0.7803	0.48
Mof_C 	C 	0.8714	0.0164	0.8064	0.454
Mof_C 	C 	0.6797	0.038	0.8119	-0.227
Mof_C 	C 	0.725	0.1476	0.9255	0.331
Mof_C 	C 	0.8009	0.0347	0.8246	-0.209
Mof_C 	C 	0.7304	0.0988	0.8816	-0.164
Mof_C 	C 	0.7441	0.0155	0.7974	0.153
Mof_C 	C 	0.7942	0.0768	0.8668	0.115
Mof_C 	C 	0.6727	0.0801	0.8544	0.131
Mof_C 	C 	0.6182	0.0195	0.7803	0.48
Mof_C 	C 	0.5164	0.3714	0.1936	0.454
Mof_C 	C 	0.538	0.1797	0.1881	-0.229
Mof_C 	C 	0.6476	0.225	0.0745	0.333
Mof_C 	C 	0.5347	0.3009	0.1754	-0.212
Mof_C 	C 	0.5988	0.2304	0.1184	-0.169
Mof_C 	C 	0.5155	0.2441	0.2026	0.154
Mof_C 	C 	0.5768	0.2942	0.1332	0.117
Mof_C 	C 	0.5801	0.1727	0.1456	0.133
Mof_C 	C 	0.5195	0.1182	0.2197	0.48
Mof_C 	C 	0.9836	0.1286	0.1936	0.456
Mof_C 	C 	0.962	0.3203	0.1881	-0.23
Mof_C 	C 	0.8524	0.275	0.0745	0.333
Mof_C 	C 	0.9653	0.1991	0.1754	-0.213
Mof_C 	C 	0.9012	0.2696	0.1184	-0.17
Mof_C 	C 	0.9845	0.2559	0.2026	0.156
Mof_C 	C 	0.9232	0.2058	0.1332	0.118
Mof_C 	C 	0.9199	0.3273	0.1456	0.134
Mof_C 	C 	0.9805	0.3818	0.2197	0.48
Mof_C 	C 	0.3714	0.9836	0.6936	0.456
Mof_C 	C 	0.1797	0.962	0.6881	-0.23
Mof_C 	C 	0.225	0.8524	0.5745	0.333
Mof_C 	C 	0.3009	0.9653	0.6754	-0.213
Mof_C 	C 	0.2304	0.9012	0.6184	-0.168
Mof_C 	C 	0.2441	0.9845	0.7026	0.157
Mof_C 	C 	0.2942	0.9232	0.6332	0.118
Mof_C 	C 	0.1727	0.9199	0.6456	0.134
Mof_C 	C 	0.1182	0.9805	0.7197	0.483
Mof_C 	C 	0.1286	0.5164	0.6936	0.454
Mof_C 	C 	0.3203	0.538	0.6881	-0.228
Mof_C 	C 	0.275	0.6476	0.5745	0.332
Mof_C 	C 	0.1991	0.5347	0.6754	-0.21
Mof_C 	C 	0.2696	0.5988	0.6184	-0.167
Mof_C 	C 	0.2559	0.5155	0.7026	0.153
Mof_C 	C 	0.2058	0.5768	0.6332	0.116
Mof_C 	C 	0.3273	0.5801	0.6456	0.132
Mof_C 	C 	0.3818	0.5195	0.7197	0.48
Mof_O 	O 	0.4791	0.1233	0.7325	-0.507
Mof_O 	O 	0.5397	0.4377	0.706	-0.52
Mof_O 	O 	0.6635	0.2214	0.5511	-0.275
Mof_O 	O 	0.6728	0.3323	0.5639	-0.267
Mof_O 	O 	0.5377	0.0787	0.6698	-0.336
Mof_O 	O 	0.4868	0.3736	0.7598	-0.348
Mof_O 	O 	0.0209	0.3767	0.7325	-0.508
Mof_O 	O 	0.9603	0.0623	0.706	-0.52
Mof_O 	O 	0.8365	0.2786	0.5511	-0.275
Mof_O 	O 	0.8272	0.1677	0.5639	-0.267
Mof_O 	O 	0.9623	0.4213	0.6698	-0.336
Mof_O 	O 	0.0132	0.1264	0.7598	-0.35
Mof_O 	O 	0.3767	0.4791	0.2325	-0.507
Mof_O 	O 	0.0623	0.5397	0.206	-0.52
Mof_O 	O 	0.2786	0.6635	0.0511	-0.278
Mof_O 	O 	0.1677	0.6728	0.0639	-0.271
Mof_O 	O 	0.4213	0.5377	0.1698	-0.337
Mof_O 	O 	0.1264	0.4868	0.2598	-0.349
Mof_O 	O 	0.1233	0.0209	0.2325	-0.508
Mof_O 	O 	0.4377	0.9603	0.206	-0.521
Mof_O 	O 	0.2214	0.8365	0.0511	-0.278
Mof_O 	O 	0.3323	0.8272	0.0639	-0.271
Mof_O 	O 	0.0787	0.9623	0.1698	-0.336
Mof_O 	O 	0.3736	0.0132	0.2598	-0.349
Mof_O 	O 	0.5209	0.6233	0.7675	-0.506
Mof_O 	O 	0.4603	0.9377	0.794	-0.52
Mof_O 	O 	0.3365	0.7214	0.9489	-0.267
Mof_O 	O 	0.3272	0.8323	0.9361	-0.261
Mof_O 	O 	0.4623	0.5787	0.8302	-0.334
Mof_O 	O 	0.5132	0.8736	0.7402	-0.348
Mof_O 	O 	0.9791	0.8767	0.7675	-0.506
Mof_O 	O 	0.0397	0.5623	0.794	-0.52
Mof_O 	O 	0.1635	0.7786	0.9489	-0.267
Mof_O 	O 	0.1728	0.6677	0.9361	-0.261
Mof_O 	O 	0.0377	0.9213	0.8302	-0.333
Mof_O 	O 	0.9868	0.6264	0.7402	-0.348
Mof_O 	O 	0.6233	0.9791	0.2675	-0.507
Mof_O 	O 	0.9377	0.0397	0.294	-0.52
Mof_O 	O 	0.7214	0.1635	0.4489	-0.275
Mof_O 	O 	0.8323	0.1728	0.4361	-0.267
Mof_O 	O 	0.5787	0.0377	0.3302	-0.336
Mof_O 	O 	0.8736	0.9868	0.2402	-0.351
Mof_O 	O 	0.8767	0.5209	0.2675	-0.506
Mof_O 	O 	0.5623	0.4603	0.294	-0.52
Mof_O 	O 	0.7786	0.3365	0.4489	-0.275
Mof_O 	O 	0.6677	0.3272	0.4361	-0.267
Mof_O 	O 	0.9213	0.4623	0.3302	-0.335
Mof_O 	O 	0.6264	0.5132	0.2402	-0.349
Mof_O 	O 	0.5209	0.8767	0.2675	-0.506
Mof_O 	O 	0.4603	0.5623	0.294	-0.52
Mof_O 	O 	0.3365	0.7786	0.4489	-0.275
Mof_O 	O 	0.3272	0.6677	0.4361	-0.267
Mof_O 	O 	0.4623	0.9213	0.3302	-0.335
Mof_O 	O 	0.5132	0.6264	0.2402	-0.349
Mof_O 	O 	0.9791	0.6233	0.2675	-0.507
Mof_O 	O 	0.0397	0.9377	0.294	-0.52
Mof_O 	O 	0.1635	0.7214	0.4489	-0.275
Mof_O 	O 	0.1728	0.8323	0.4361	-0.267
Mof_O 	O 	0.0377	0.5787	0.3302	-0.336
Mof_O 	O 	0.9868	0.8736	0.2402	-0.351
Mof_O 	O 	0.6233	0.5209	0.7675	-0.506
Mof_O 	O 	0.9377	0.4603	0.794	-0.52
Mof_O 	O 	0.7214	0.3365	0.9489	-0.267
Mof_O 	O 	0.8323	0.3272	0.9361	-0.261
Mof_O 	O 	0.5787	0.4623	0.8302	-0.334
Mof_O 	O 	0.8736	0.5132	0.7402	-0.348
Mof_O 	O 	0.8767	0.9791	0.7675	-0.506
Mof_O 	O 	0.5623	0.0397	0.794	-0.52
Mof_O 	O 	0.7786	0.1635	0.9489	-0.267
Mof_O 	O 	0.6677	0.1728	0.9361	-0.261
Mof_O 	O 	0.9213	0.0377	0.8302	-0.333
Mof_O 	O 	0.6264	0.9868	0.7402	-0.348
Mof_O 	O 	0.4791	0.3767	0.2325	-0.507
Mof_O 	O 	0.5397	0.0623	0.206	-0.52
Mof_O 	O 	0.6635	0.2786	0.0511	-0.278
Mof_O 	O 	0.6728	0.1677	0.0639	-0.271
Mof_O 	O 	0.5377	0.4213	0.1698	-0.337
Mof_O 	O 	0.4868	0.1264	0.2598	-0.349
Mof_O 	O 	0.0209	0.1233	0.2325	-0.508
Mof_O 	O 	0.9603	0.4377	0.206	-0.521
Mof_O 	O 	0.8365	0.2214	0.0511	-0.278
Mof_O 	O 	0.8272	0.3323	0.0639	-0.271
Mof_O 	O 	0.9623	0.0787	0.1698	-0.336
Mof_O 	O 	0.0132	0.3736	0.2598	-0.349
Mof_O 	O 	0.3767	0.0209	0.7325	-0.508
Mof_O 	O 	0.0623	0.9603	0.706	-0.52
Mof_O 	O 	0.2786	0.8365	0.5511	-0.275
Mof_O 	O 	0.1677	0.8272	0.5639	-0.267
Mof_O 	O 	0.4213	0.9623	0.6698	-0.336
Mof_O 	O 	0.1264	0.0132	0.7598	-0.35
Mof_O 	O 	0.1233	0.4791	0.7325	-0.507
Mof_O 	O 	0.4377	0.5397	0.706	-0.52
Mof_O 	O 	0.2214	0.6635	0.5511	-0.275
Mof_O 	O 	0.3323	0.6728	0.5639	-0.267
Mof_O 	O 	0.0787	0.5377	0.6698	-0.336
Mof_O 	O 	0.3736	0.4868	0.7598	-0.348
_end
