data_functionalizedCrystal
_audit_creation_method	'EQeq! by Chris Wilmer'
_symmetry_space_group_name_H-M	'P1'
_symmetry_Int_Tables_number	1
_symmetry_cell_setting	triclinic
loop_
_symmetry_equiv_pos_as_xyz
  x,y,z
_cell_length_a	17.344
_cell_length_b	17.344
_cell_length_c	26.443
_cell_angle_alpha	94.1191
_cell_angle_beta	94.1191
_cell_angle_gamma	110.44
loop_
_atom_site_label
_atom_site_type_symbol
_atom_site_fract_x
_atom_site_fract_y
_atom_site_fract_z
_atom_site_charge
Mof_In	In	0.36905	0.85945	0.88456	2.516
Mof_In	In	0.85945	0.36905	0.38456	2.516
Mof_H 	H 	0.2141	0.7659	0.0236	0.034
Mof_H 	H 	0.0957	0.6863	0.0598	0.055
Mof_H 	H 	0.9683	0.6281	0.9211	0.058
Mof_H 	H 	0.0824	0.7082	0.8859	0.042
Mof_H 	H 	0.8074	0.3456	0.2108	0.041
Mof_H 	H 	0.7996	0.3766	0.1271	0.074
Mof_H 	H 	0.9908	0.5932	0.166	0.059
Mof_H 	H 	0.9943	0.5631	0.2501	0.03
Mof_H 	H 	0.3877	0.1401	0.8693	0.04
Mof_H 	H 	0.4578	0.2826	0.8833	0.058
Mof_H 	H 	0.6019	0.2479	0.0004	0.056
Mof_H 	H 	0.5335	0.1059	0.9849	0.037
Mof_H 	H 	0.5986	0.7642	0.9023	0.031
Mof_H 	H 	0.6622	0.6668	0.9153	0.061
Mof_H 	H 	0.4403	0.4971	0.9333	0.066
Mof_H 	H 	0.3773	0.5897	0.9115	0.03
Mof_H 	H 	0.762	0.4496	0.0704	0.07
Mof_H 	H 	0.86	0.5866	0.9579	0.063
Mof_H 	H 	0.0077	0.5803	0.0819	0.062
Mof_H 	H 	0.7103	0.5979	0.9698	0.065
Mof_H 	H 	0.6914	0.3628	0.9856	0.068
Mof_H 	H 	0.4959	0.4089	0.9214	0.064
Mof_H 	H 	0.7659	0.2141	0.5236	0.033
Mof_H 	H 	0.6863	0.0957	0.5598	0.055
Mof_H 	H 	0.6281	0.9683	0.4211	0.059
Mof_H 	H 	0.7082	0.0824	0.3859	0.041
Mof_H 	H 	0.3456	0.8074	0.7108	0.041
Mof_H 	H 	0.3766	0.7996	0.6271	0.074
Mof_H 	H 	0.5932	0.9908	0.666	0.059
Mof_H 	H 	0.5631	0.9943	0.7501	0.03
Mof_H 	H 	0.1401	0.3877	0.3693	0.041
Mof_H 	H 	0.2826	0.4578	0.3833	0.058
Mof_H 	H 	0.2479	0.6019	0.5004	0.055
Mof_H 	H 	0.1059	0.5335	0.4849	0.038
Mof_H 	H 	0.7642	0.5986	0.4023	0.031
Mof_H 	H 	0.6668	0.6622	0.4153	0.061
Mof_H 	H 	0.4971	0.4403	0.4333	0.066
Mof_H 	H 	0.5897	0.3773	0.4115	0.03
Mof_H 	H 	0.4496	0.762	0.5704	0.07
Mof_H 	H 	0.5866	0.86	0.4579	0.063
Mof_H 	H 	0.5803	0.0077	0.5819	0.062
Mof_H 	H 	0.5979	0.7103	0.4698	0.065
Mof_H 	H 	0.3628	0.6914	0.4856	0.069
Mof_H 	H 	0.4089	0.4959	0.4214	0.064
Mof_C 	C 	0.15949	0.74549	0.951	-0.081
Mof_C 	C 	0.16373	0.73817	0.0026	0.012
Mof_C 	C 	0.09323	0.68959	0.02406	-0.088
Mof_C 	C 	0.01942	0.6461	0.99335	0.032
Mof_C 	C 	0.01824	0.6558	0.94256	-0.088
Mof_C 	C 	0.086	0.70368	0.92149	0.018
Mof_C 	C 	0.9005	0.4518	0.23881	-0.097
Mof_C 	C 	0.84387	0.39673	0.20177	0.037
Mof_C 	C 	0.83954	0.41484	0.15189	-0.094
Mof_C 	C 	0.89337	0.48867	0.13774	0.034
Mof_C 	C 	0.95231	0.54323	0.17508	-0.094
Mof_C 	C 	0.95485	0.52501	0.22498	0.024
Mof_C 	C 	0.45475	0.10941	0.92503	-0.079
Mof_C 	C 	0.43216	0.1622	0.89557	0.011
Mof_C 	C 	0.47375	0.24707	0.90399	-0.085
Mof_C 	C 	0.53861	0.28049	0.94237	0.023
Mof_C 	C 	0.55919	0.22615	0.97311	-0.081
Mof_C 	C 	0.5182	0.1418	0.96419	0.015
Mof_C 	C 	0.47947	0.68667	0.90694	-0.099
Mof_C 	C 	0.55615	0.57331	0.92993	0.039
Mof_C 	C 	0.566	0.7094	0.908	0.027
Mof_C 	C 	0.6045	0.6525	0.9173	-0.098
Mof_C 	C 	0.4734	0.5514	0.9269	-0.102
Mof_C 	C 	0.4359	0.6075	0.9147	0.035
Mof_C 	C 	0.8866	0.5127	0.08516	0.042
Mof_C 	C 	0.80853	0.48637	0.05679	-0.104
Mof_C 	C 	0.79796	0.51282	0.00953	0.039
Mof_C 	C 	0.86695	0.56663	0.9898	-0.104
Mof_C 	C 	0.94595	0.59165	0.01622	0.041
Mof_C 	C 	0.95421	0.56383	0.06367	-0.101
Mof_C 	C 	0.59606	0.51332	0.94373	0.039
Mof_C 	C 	0.6782	0.54046	0.96587	-0.105
Mof_C 	C 	0.71316	0.48456	0.98219	0.041
Mof_C 	C 	0.66724	0.401	0.9746	-0.109
Mof_C 	C 	0.58642	0.37144	0.95126	0.047
Mof_C 	C 	0.55152	0.42828	0.93662	-0.104
Mof_C 	C 	0.23552	0.79376	0.92807	0.32
Mof_C 	C 	0.90187	0.43493	0.29384	0.348
Mof_C 	C 	0.41552	0.01816	0.91293	0.307
Mof_C 	C 	0.43775	0.74657	0.89675	0.339
Mof_C 	C 	0.74549	0.15949	0.451	-0.083
Mof_C 	C 	0.73817	0.16373	0.5026	0.013
Mof_C 	C 	0.68959	0.09323	0.52406	-0.087
Mof_C 	C 	0.6461	0.01942	0.49335	0.031
Mof_C 	C 	0.6558	0.01824	0.44256	-0.089
Mof_C 	C 	0.70368	0.086	0.42149	0.019
Mof_C 	C 	0.4518	0.9005	0.73881	-0.097
Mof_C 	C 	0.39673	0.84387	0.70177	0.037
Mof_C 	C 	0.41484	0.83954	0.65189	-0.094
Mof_C 	C 	0.48867	0.89337	0.63774	0.034
Mof_C 	C 	0.54323	0.95231	0.67508	-0.094
Mof_C 	C 	0.52501	0.95485	0.72498	0.024
Mof_C 	C 	0.10941	0.45475	0.42503	-0.079
Mof_C 	C 	0.1622	0.43216	0.39557	0.011
Mof_C 	C 	0.24707	0.47375	0.40399	-0.084
Mof_C 	C 	0.28049	0.53861	0.44237	0.022
Mof_C 	C 	0.22615	0.55919	0.47311	-0.078
Mof_C 	C 	0.1418	0.5182	0.46419	0.014
Mof_C 	C 	0.68667	0.47947	0.40694	-0.099
Mof_C 	C 	0.57331	0.55615	0.42993	0.039
Mof_C 	C 	0.7094	0.566	0.408	0.027
Mof_C 	C 	0.6525	0.6045	0.4173	-0.097
Mof_C 	C 	0.5514	0.4734	0.4269	-0.102
Mof_C 	C 	0.6075	0.4359	0.4147	0.035
Mof_C 	C 	0.5127	0.8866	0.58516	0.042
Mof_C 	C 	0.48637	0.80853	0.55679	-0.103
Mof_C 	C 	0.51282	0.79796	0.50953	0.038
Mof_C 	C 	0.56663	0.86695	0.4898	-0.102
Mof_C 	C 	0.59165	0.94595	0.51622	0.041
Mof_C 	C 	0.56383	0.95421	0.56367	-0.102
Mof_C 	C 	0.51332	0.59606	0.44373	0.039
Mof_C 	C 	0.54046	0.6782	0.46587	-0.106
Mof_C 	C 	0.48456	0.71316	0.48219	0.042
Mof_C 	C 	0.401	0.66724	0.4746	-0.11
Mof_C 	C 	0.37144	0.58642	0.45126	0.048
Mof_C 	C 	0.42828	0.55152	0.43662	-0.105
Mof_C 	C 	0.79376	0.23552	0.42807	0.321
Mof_C 	C 	0.43493	0.90187	0.79384	0.348
Mof_C 	C 	0.01816	0.41552	0.41293	0.31
Mof_C 	C 	0.74657	0.43775	0.39675	0.339
Mof_O 	O 	0.23197	0.79943	0.88049	-0.524
Mof_O 	O 	0.30356	0.82622	0.9554	-0.522
Mof_O 	O 	0.84749	0.36757	0.30442	-0.597
Mof_O 	O 	0.95275	0.48579	0.32677	-0.375
Mof_O 	O 	0.35069	0.98523	0.88249	-0.486
Mof_O 	O 	0.45116	0.97264	0.93286	-0.525
Mof_O 	O 	0.47902	0.8236	0.9026	-0.536
Mof_O 	O 	0.36184	0.72198	0.88341	-0.489
Mof_O 	O 	0.79943	0.23197	0.38049	-0.524
Mof_O 	O 	0.82622	0.30356	0.4554	-0.523
Mof_O 	O 	0.36757	0.84749	0.80442	-0.597
Mof_O 	O 	0.48579	0.95275	0.82677	-0.374
Mof_O 	O 	0.98523	0.35069	0.38249	-0.487
Mof_O 	O 	0.97264	0.45116	0.43286	-0.526
Mof_O 	O 	0.8236	0.47902	0.4026	-0.536
Mof_O 	O 	0.72198	0.36184	0.38341	-0.489
Mof_In	In	0.14055	0.63095	0.61544	2.515
Mof_In	In	0.63095	0.14055	0.11544	2.515
Mof_H 	H 	0.2341	0.7859	0.4764	0.033
Mof_H 	H 	0.3137	0.9043	0.4402	0.055
Mof_H 	H 	0.3719	0.0317	0.5789	0.059
Mof_H 	H 	0.2918	0.9176	0.6141	0.041
Mof_H 	H 	0.6544	0.1926	0.2892	0.041
Mof_H 	H 	0.6234	0.2004	0.3729	0.074
Mof_H 	H 	0.4068	0.0092	0.334	0.059
Mof_H 	H 	0.4369	0.0057	0.2499	0.03
Mof_H 	H 	0.8599	0.6123	0.6307	0.041
Mof_H 	H 	0.7174	0.5422	0.6167	0.058
Mof_H 	H 	0.7521	0.3981	0.4996	0.055
Mof_H 	H 	0.8941	0.4665	0.5151	0.038
Mof_H 	H 	0.2358	0.4014	0.5977	0.031
Mof_H 	H 	0.3332	0.3378	0.5847	0.061
Mof_H 	H 	0.5029	0.5597	0.5667	0.066
Mof_H 	H 	0.4103	0.6227	0.5885	0.03
Mof_H 	H 	0.5504	0.238	0.4296	0.07
Mof_H 	H 	0.4134	0.14	0.5421	0.063
Mof_H 	H 	0.4197	0.9923	0.4181	0.062
Mof_H 	H 	0.4021	0.2897	0.5302	0.065
Mof_H 	H 	0.6372	0.3086	0.5144	0.069
Mof_H 	H 	0.5911	0.5041	0.5786	0.064
Mof_H 	H 	0.7859	0.2341	0.9764	0.034
Mof_H 	H 	0.9043	0.3137	0.9402	0.055
Mof_H 	H 	0.0317	0.3719	0.0789	0.058
Mof_H 	H 	0.9176	0.2918	0.1141	0.042
Mof_H 	H 	0.1926	0.6544	0.7892	0.041
Mof_H 	H 	0.2004	0.6234	0.8729	0.074
Mof_H 	H 	0.0092	0.4068	0.834	0.059
Mof_H 	H 	0.0057	0.4369	0.7499	0.03
Mof_H 	H 	0.6123	0.8599	0.1307	0.04
Mof_H 	H 	0.5422	0.7174	0.1167	0.058
Mof_H 	H 	0.3981	0.7521	0.9996	0.056
Mof_H 	H 	0.4665	0.8941	0.0151	0.037
Mof_H 	H 	0.4014	0.2358	0.0977	0.031
Mof_H 	H 	0.3378	0.3332	0.0847	0.061
Mof_H 	H 	0.5597	0.5029	0.0667	0.066
Mof_H 	H 	0.6227	0.4103	0.0885	0.03
Mof_H 	H 	0.238	0.5504	0.9296	0.07
Mof_H 	H 	0.14	0.4134	0.0421	0.063
Mof_H 	H 	0.9923	0.4197	0.9181	0.062
Mof_H 	H 	0.2897	0.4021	0.0302	0.065
Mof_H 	H 	0.3086	0.6372	0.0144	0.068
Mof_H 	H 	0.5041	0.5911	0.0786	0.064
Mof_C 	C 	0.25451	0.84051	0.549	-0.083
Mof_C 	C 	0.26183	0.83627	0.4974	0.013
Mof_C 	C 	0.31041	0.90677	0.47594	-0.087
Mof_C 	C 	0.3539	0.98058	0.50665	0.031
Mof_C 	C 	0.3442	0.98176	0.55744	-0.089
Mof_C 	C 	0.29632	0.914	0.57851	0.019
Mof_C 	C 	0.5482	0.0995	0.26119	-0.097
Mof_C 	C 	0.60327	0.15613	0.29823	0.037
Mof_C 	C 	0.58516	0.16046	0.34811	-0.094
Mof_C 	C 	0.51133	0.10663	0.36226	0.034
Mof_C 	C 	0.45677	0.04769	0.32492	-0.094
Mof_C 	C 	0.47499	0.04515	0.27502	0.024
Mof_C 	C 	0.89059	0.54525	0.57497	-0.079
Mof_C 	C 	0.8378	0.56784	0.60443	0.011
Mof_C 	C 	0.75293	0.52625	0.59601	-0.084
Mof_C 	C 	0.71951	0.46139	0.55763	0.022
Mof_C 	C 	0.77385	0.44081	0.52689	-0.078
Mof_C 	C 	0.8582	0.4818	0.53581	0.014
Mof_C 	C 	0.31333	0.52053	0.59306	-0.099
Mof_C 	C 	0.42669	0.44385	0.57007	0.039
Mof_C 	C 	0.2906	0.434	0.592	0.027
Mof_C 	C 	0.3475	0.3955	0.5827	-0.097
Mof_C 	C 	0.4486	0.5266	0.5731	-0.102
Mof_C 	C 	0.3925	0.5641	0.5853	0.035
Mof_C 	C 	0.4873	0.1134	0.41484	0.042
Mof_C 	C 	0.51363	0.19147	0.44321	-0.103
Mof_C 	C 	0.48718	0.20204	0.49047	0.038
Mof_C 	C 	0.43337	0.13305	0.5102	-0.102
Mof_C 	C 	0.40835	0.05405	0.48378	0.041
Mof_C 	C 	0.43617	0.04579	0.43633	-0.102
Mof_C 	C 	0.48668	0.40394	0.55627	0.039
Mof_C 	C 	0.45954	0.3218	0.53413	-0.106
Mof_C 	C 	0.51544	0.28684	0.51781	0.042
Mof_C 	C 	0.599	0.33276	0.5254	-0.11
Mof_C 	C 	0.62856	0.41358	0.54874	0.048
Mof_C 	C 	0.57172	0.44848	0.56338	-0.105
Mof_C 	C 	0.20624	0.76448	0.57193	0.321
Mof_C 	C 	0.56507	0.09813	0.20616	0.348
Mof_C 	C 	0.98184	0.58448	0.58707	0.31
Mof_C 	C 	0.25343	0.56225	0.60325	0.339
Mof_C 	C 	0.84051	0.25451	0.049	-0.081
Mof_C 	C 	0.83627	0.26183	0.9974	0.012
Mof_C 	C 	0.90677	0.31041	0.97594	-0.088
Mof_C 	C 	0.98058	0.3539	0.00665	0.032
Mof_C 	C 	0.98176	0.3442	0.05744	-0.088
Mof_C 	C 	0.914	0.29632	0.07851	0.018
Mof_C 	C 	0.0995	0.5482	0.76119	-0.097
Mof_C 	C 	0.15613	0.60327	0.79823	0.037
Mof_C 	C 	0.16046	0.58516	0.84811	-0.094
Mof_C 	C 	0.10663	0.51133	0.86226	0.034
Mof_C 	C 	0.04769	0.45677	0.82492	-0.094
Mof_C 	C 	0.04515	0.47499	0.77502	0.024
Mof_C 	C 	0.54525	0.89059	0.07497	-0.079
Mof_C 	C 	0.56784	0.8378	0.10443	0.011
Mof_C 	C 	0.52625	0.75293	0.09601	-0.085
Mof_C 	C 	0.46139	0.71951	0.05763	0.023
Mof_C 	C 	0.44081	0.77385	0.02689	-0.081
Mof_C 	C 	0.4818	0.8582	0.03581	0.015
Mof_C 	C 	0.52053	0.31333	0.09306	-0.099
Mof_C 	C 	0.44385	0.42669	0.07007	0.039
Mof_C 	C 	0.434	0.2906	0.092	0.027
Mof_C 	C 	0.3955	0.3475	0.0827	-0.098
Mof_C 	C 	0.5266	0.4486	0.0731	-0.102
Mof_C 	C 	0.5641	0.3925	0.0853	0.035
Mof_C 	C 	0.1134	0.4873	0.91484	0.042
Mof_C 	C 	0.19147	0.51363	0.94321	-0.104
Mof_C 	C 	0.20204	0.48718	0.99047	0.039
Mof_C 	C 	0.13305	0.43337	0.0102	-0.104
Mof_C 	C 	0.05405	0.40835	0.98378	0.041
Mof_C 	C 	0.04579	0.43617	0.93633	-0.101
Mof_C 	C 	0.40394	0.48668	0.05627	0.039
Mof_C 	C 	0.3218	0.45954	0.03413	-0.105
Mof_C 	C 	0.28684	0.51544	0.01781	0.041
Mof_C 	C 	0.33276	0.599	0.0254	-0.109
Mof_C 	C 	0.41358	0.62856	0.04874	0.047
Mof_C 	C 	0.44848	0.57172	0.06338	-0.104
Mof_C 	C 	0.76448	0.20624	0.07193	0.32
Mof_C 	C 	0.09813	0.56507	0.70616	0.348
Mof_C 	C 	0.58448	0.98184	0.08707	0.307
Mof_C 	C 	0.56225	0.25343	0.10325	0.339
Mof_O 	O 	0.20057	0.76803	0.61951	-0.524
Mof_O 	O 	0.17378	0.69644	0.5446	-0.523
Mof_O 	O 	0.63243	0.15251	0.19558	-0.597
Mof_O 	O 	0.51421	0.04725	0.17323	-0.374
Mof_O 	O 	0.01477	0.64931	0.61751	-0.487
Mof_O 	O 	0.02736	0.54884	0.56714	-0.526
Mof_O 	O 	0.1764	0.52098	0.5974	-0.536
Mof_O 	O 	0.27802	0.63816	0.61659	-0.489
Mof_O 	O 	0.76803	0.20057	0.11951	-0.524
Mof_O 	O 	0.69644	0.17378	0.0446	-0.522
Mof_O 	O 	0.15251	0.63243	0.69558	-0.597
Mof_O 	O 	0.04725	0.51421	0.67323	-0.375
Mof_O 	O 	0.64931	0.01477	0.11751	-0.486
Mof_O 	O 	0.54884	0.02736	0.06714	-0.525
Mof_O 	O 	0.52098	0.1764	0.0974	-0.536
Mof_O 	O 	0.63816	0.27802	0.11659	-0.489
Mof_H 	H 	0.6331	0.9519	0.8847	0.106
Mof_H 	H 	0.5635	0.9733	0.904	0.124
Mof_H 	H 	0.6259	0.9265	0.9681	0.105
Mof_H 	H 	0.7111	0.9993	0.9621	0.096
Mof_H 	H 	0.6357	0.0209	0.9827	0.108
Mof_H 	H 	0.6372	0.0784	0.8582	0.111
Mof_H 	H 	0.6464	0.1134	0.9168	0.113
Mof_H 	H 	0.7193	0.0895	0.8943	0.101
Mof_C 	C 	0.65075	0.98325	0.95929	-0.228
Mof_C 	C 	0.6591	0.0749	0.8928	-0.256
Mof_N 	N 	0.62017	0.98807	0.90677	-0.165
Mof_H 	H 	0.0481	0.3669	0.6153	0.106
Mof_H 	H 	0.0267	0.4365	0.596	0.124
Mof_H 	H 	0.0735	0.3741	0.5319	0.106
Mof_H 	H 	0.0007	0.2889	0.5379	0.096
Mof_H 	H 	0.9791	0.3643	0.5173	0.11
Mof_H 	H 	0.9216	0.3628	0.6418	0.111
Mof_H 	H 	0.8866	0.3536	0.5832	0.113
Mof_H 	H 	0.9105	0.2807	0.6057	0.101
Mof_C 	C 	0.01675	0.34925	0.54071	-0.232
Mof_C 	C 	0.9251	0.3409	0.6072	-0.255
Mof_N 	N 	0.01193	0.37983	0.59323	-0.165
Mof_H 	H 	0.3669	0.0481	0.1153	0.106
Mof_H 	H 	0.4365	0.0267	0.096	0.124
Mof_H 	H 	0.3741	0.0735	0.0319	0.105
Mof_H 	H 	0.2889	0.0007	0.0379	0.096
Mof_H 	H 	0.3643	0.9791	0.0173	0.108
Mof_H 	H 	0.3628	0.9216	0.1418	0.111
Mof_H 	H 	0.3536	0.8866	0.0832	0.113
Mof_H 	H 	0.2807	0.9105	0.1057	0.101
Mof_C 	C 	0.34925	0.01675	0.04071	-0.228
Mof_C 	C 	0.3409	0.9251	0.1072	-0.256
Mof_N 	N 	0.37983	0.01193	0.09323	-0.165
Mof_H 	H 	0.9519	0.6331	0.3847	0.106
Mof_H 	H 	0.9733	0.5635	0.404	0.124
Mof_H 	H 	0.9265	0.6259	0.4681	0.106
Mof_H 	H 	0.9993	0.7111	0.4621	0.096
Mof_H 	H 	0.0209	0.6357	0.4827	0.11
Mof_H 	H 	0.0784	0.6372	0.3582	0.111
Mof_H 	H 	0.1134	0.6464	0.4168	0.113
Mof_H 	H 	0.0895	0.7193	0.3943	0.101
Mof_C 	C 	0.98325	0.65075	0.45929	-0.232
Mof_C 	C 	0.0749	0.6591	0.3928	-0.255
Mof_N 	N 	0.98807	0.62017	0.40677	-0.165
_end
