data_functionalizedCrystal
_audit_creation_method	'EQeq! by Chris Wilmer'
_symmetry_space_group_name_H-M	'P1'
_symmetry_Int_Tables_number	1
_symmetry_cell_setting	triclinic
loop_
_symmetry_equiv_pos_as_xyz
  x,y,z
_cell_length_a	14.986
_cell_length_b	23.552
_cell_length_c	9.051
_cell_angle_alpha	90
_cell_angle_beta	90
_cell_angle_gamma	90
loop_
_atom_site_label
_atom_site_type_symbol
_atom_site_fract_x
_atom_site_fract_y
_atom_site_fract_z
_atom_site_charge
Mof_Fe	Fe	0.07179	0.05425	0.69772	1.03
Mof_Cl	Cl	0.18147	0.99569	0.5989	-0.34
Mof_O 	O 	0.1592	0.12505	0.6401	-0.244
Mof_O 	O 	0.2309	0.13005	0.0039	-0.128
Mof_O 	O 	0.2645	0.17903	0.7447	-0.268
Mof_O 	O 	0.1315	0.07291	0.8961	-0.244
Mof_C 	C 	0.1882	0.11221	0.8947	0.147
Mof_C 	C 	0.2047	0.14158	0.7453	0.289
Mof_Fe	Fe	0.07179	0.55425	0.19772	1.069
Mof_Cl	Cl	0.18147	0.49569	0.0989	-0.263
Mof_O 	O 	0.1592	0.62505	0.1401	-0.216
Mof_O 	O 	0.2309	0.63005	0.5039	-0.252
Mof_O 	O 	0.2645	0.67903	0.2447	-0.253
Mof_O 	O 	0.1315	0.57291	0.3961	-0.256
Mof_C 	C 	0.1882	0.61221	0.3947	0.263
Mof_C 	C 	0.2047	0.64158	0.2453	0.26
Mof_Fe	Fe	0.57179	0.05425	0.19772	1.071
Mof_Cl	Cl	0.68147	0.99569	0.0989	-0.288
Mof_O 	O 	0.6592	0.12505	0.1401	-0.218
Mof_O 	O 	0.7309	0.13005	0.5039	-0.252
Mof_O 	O 	0.7645	0.17903	0.2447	-0.254
Mof_O 	O 	0.6315	0.07291	0.3961	-0.256
Mof_C 	C 	0.6882	0.11221	0.3947	0.262
Mof_C 	C 	0.7047	0.14158	0.2453	0.26
Mof_Fe	Fe	0.57179	0.55425	0.69772	1.009
Mof_Cl	Cl	0.68147	0.49569	0.5989	-0.32
Mof_O 	O 	0.6592	0.62505	0.6401	-0.25
Mof_O 	O 	0.7309	0.63005	0.0039	-0.13
Mof_O 	O 	0.7645	0.67903	0.7447	-0.271
Mof_O 	O 	0.6315	0.57291	0.8961	-0.251
Mof_C 	C 	0.6882	0.61221	0.8947	0.145
Mof_C 	C 	0.7047	0.64158	0.7453	0.288
Mof_Fe	Fe	0.92821	0.94575	0.69772	0.956
Mof_Cl	Cl	0.81853	0.00431	0.5989	-0.298
Mof_O 	O 	0.8408	0.87495	0.6401	-0.251
Mof_O 	O 	0.7691	0.86995	0.0039	-0.134
Mof_O 	O 	0.7355	0.82097	0.7447	-0.271
Mof_O 	O 	0.8685	0.92709	0.8961	-0.259
Mof_C 	C 	0.8118	0.88779	0.8947	0.146
Mof_C 	C 	0.7953	0.85842	0.7453	0.286
Mof_Fe	Fe	0.92821	0.44575	0.19772	1.032
Mof_Cl	Cl	0.81853	0.50431	0.0989	-0.265
Mof_O 	O 	0.8408	0.37495	0.1401	-0.221
Mof_O 	O 	0.7691	0.36995	0.5039	-0.255
Mof_O 	O 	0.7355	0.32097	0.2447	-0.254
Mof_O 	O 	0.8685	0.42709	0.3961	-0.264
Mof_C 	C 	0.8118	0.38779	0.3947	0.262
Mof_C 	C 	0.7953	0.35842	0.2453	0.258
Mof_Fe	Fe	0.42821	0.94575	0.19772	1.031
Mof_Cl	Cl	0.31853	0.00431	0.0989	-0.241
Mof_O 	O 	0.3408	0.87495	0.1401	-0.219
Mof_O 	O 	0.2691	0.86995	0.5039	-0.255
Mof_O 	O 	0.2355	0.82097	0.2447	-0.253
Mof_O 	O 	0.3685	0.92709	0.3961	-0.264
Mof_C 	C 	0.3118	0.88779	0.3947	0.262
Mof_C 	C 	0.2953	0.85842	0.2453	0.258
Mof_Fe	Fe	0.42821	0.44575	0.69772	1.009
Mof_Cl	Cl	0.31853	0.50431	0.5989	-0.317
Mof_O 	O 	0.3408	0.37495	0.6401	-0.248
Mof_O 	O 	0.2691	0.36995	0.0039	-0.13
Mof_O 	O 	0.2355	0.32097	0.7447	-0.268
Mof_O 	O 	0.3685	0.42709	0.8961	-0.251
Mof_C 	C 	0.3118	0.38779	0.8947	0.146
Mof_C 	C 	0.2953	0.35842	0.7453	0.288
Mof_Fe	Fe	0.32179	0.19575	0.94772	0.876
Mof_Cl	Cl	0.43147	0.25431	0.8489	-0.331
Mof_O 	O 	0.4092	0.12495	0.8901	-0.232
Mof_O 	O 	0.4809	0.11995	0.2539	-0.261
Mof_O 	O 	0.5145	0.07097	0.9947	-0.299
Mof_O 	O 	0.3815	0.17709	0.1461	-0.227
Mof_C 	C 	0.4382	0.13779	0.1447	0.333
Mof_C 	C 	0.4547	0.10842	0.9953	0.178
Mof_Fe	Fe	0.32179	0.69575	0.44772	1.015
Mof_Cl	Cl	0.43147	0.75431	0.3489	-0.299
Mof_O 	O 	0.4092	0.62495	0.3901	-0.235
Mof_O 	O 	0.4809	0.61995	0.7539	-0.26
Mof_O 	O 	0.5145	0.57097	0.4947	-0.262
Mof_O 	O 	0.3815	0.67709	0.6461	-0.262
Mof_C 	C 	0.4382	0.63779	0.6447	0.259
Mof_C 	C 	0.4547	0.60842	0.4953	0.262
Mof_Fe	Fe	0.82179	0.19575	0.44772	1.013
Mof_Cl	Cl	0.93147	0.25431	0.3489	-0.312
Mof_O 	O 	0.9092	0.12495	0.3901	-0.229
Mof_O 	O 	0.9809	0.11995	0.7539	-0.278
Mof_O 	O 	0.0145	0.07097	0.4947	-0.231
Mof_O 	O 	0.8815	0.17709	0.6461	-0.268
Mof_C 	C 	0.9382	0.13779	0.6447	0.267
Mof_C 	C 	0.9547	0.10842	0.4953	0.23
Mof_Fe	Fe	0.82179	0.69575	0.94772	0.875
Mof_Cl	Cl	0.93147	0.75431	0.8489	-0.345
Mof_O 	O 	0.9092	0.62495	0.8901	-0.231
Mof_O 	O 	0.9809	0.61995	0.2539	-0.279
Mof_O 	O 	0.0145	0.57097	0.9947	-0.279
Mof_O 	O 	0.8815	0.67709	0.1461	-0.234
Mof_C 	C 	0.9382	0.63779	0.1447	0.339
Mof_C 	C 	0.9547	0.60842	0.9953	0.148
Mof_Fe	Fe	0.17821	0.30425	0.94772	0.877
Mof_Cl	Cl	0.06853	0.24569	0.8489	-0.318
Mof_O 	O 	0.0908	0.37505	0.8901	-0.238
Mof_O 	O 	0.0191	0.38005	0.2539	-0.244
Mof_O 	O 	0.9855	0.42903	0.9947	-0.329
Mof_O 	O 	0.1185	0.32291	0.1461	-0.223
Mof_C 	C 	0.0618	0.36221	0.1447	0.324
Mof_C 	C 	0.0453	0.39158	0.9953	0.21
Mof_Fe	Fe	0.17821	0.80425	0.44772	1.015
Mof_Cl	Cl	0.06853	0.74569	0.3489	-0.286
Mof_O 	O 	0.0908	0.87505	0.3901	-0.242
Mof_O 	O 	0.0191	0.88005	0.7539	-0.243
Mof_O 	O 	0.9855	0.92903	0.4947	-0.293
Mof_O 	O 	0.1185	0.82291	0.6461	-0.258
Mof_C 	C 	0.0618	0.86221	0.6447	0.251
Mof_C 	C 	0.0453	0.89158	0.4953	0.294
Mof_Fe	Fe	0.67821	0.30425	0.44772	1.014
Mof_Cl	Cl	0.56853	0.24569	0.3489	-0.298
Mof_O 	O 	0.5908	0.37505	0.3901	-0.235
Mof_O 	O 	0.5191	0.38005	0.7539	-0.26
Mof_O 	O 	0.4855	0.42903	0.4947	-0.261
Mof_O 	O 	0.6185	0.32291	0.6461	-0.263
Mof_C 	C 	0.5618	0.36221	0.6447	0.259
Mof_C 	C 	0.5453	0.39158	0.4953	0.262
Mof_Fe	Fe	0.67821	0.80425	0.94772	0.876
Mof_Cl	Cl	0.56853	0.74569	0.8489	-0.332
Mof_O 	O 	0.5908	0.87505	0.8901	-0.237
Mof_O 	O 	0.5191	0.88005	0.2539	-0.261
Mof_O 	O 	0.4855	0.92903	0.9947	-0.309
Mof_O 	O 	0.6185	0.82291	0.1461	-0.229
Mof_C 	C 	0.5618	0.86221	0.1447	0.331
Mof_C 	C 	0.5453	0.89158	0.9953	0.179
Mof_O 	O 	1.74819e-33	0	0.772	-0.4
Mof_O 	O 	4.56697e-33	0.5	0.272	-0.407
Mof_O 	O 	0.5	1.97552e-33	0.272	-0.408
Mof_O 	O 	0.5	0.5	0.772	-0.433
Mof_O 	O 	0.25	0.25	0.022	-0.313
Mof_O 	O 	0.25	0.75	0.522	-0.426
Mof_O 	O 	0.75	0.25	0.522	-0.427
Mof_O 	O 	0.75	0.75	0.022	-0.315
_end
