data_functionalizedCrystal
_audit_creation_method	'EQeq! by Chris Wilmer'
_symmetry_space_group_name_H-M	'P1'
_symmetry_Int_Tables_number	1
_symmetry_cell_setting	triclinic
loop_
_symmetry_equiv_pos_as_xyz
  x,y,z
_cell_length_a	18.9416
_cell_length_b	18.9416
_cell_length_c	19.974
_cell_angle_alpha	112.638
_cell_angle_beta	112.638
_cell_angle_gamma	100.85
loop_
_atom_site_label
_atom_site_type_symbol
_atom_site_fract_x
_atom_site_fract_y
_atom_site_fract_z
_atom_site_charge
Mof_Mn	Mn	4.05411e-17	0.5	0.5	1.044
Mof_Mn	Mn	0.5	-4.05411e-17	0.5	1.02
Mof_Cd	Cd	0.52972	0.08668	-0	0.424
Mof_Cd	Cd	0.47028	0.91332	-0	0.473
Mof_Cd	Cd	0.91332	0.47028	-0	0.457
Mof_Cd	Cd	0.08668	0.52972	-0	0.439
Mof_Cd	Cd	-0	-4.05411e-17	0.5	0.575
Mof_Cd	Cd	0.5	0.5	0.5	0.627
Mof_Cd	Cd	0.81701	0.81701	0.30802	0.443
Mof_Cd	Cd	0.49101	0.49101	0.30802	0.439
Mof_Cd	Cd	0.18299	0.18299	0.69198	0.452
Mof_Cd	Cd	0.50899	0.50899	0.69198	0.454
Mof_H 	H 	0.9451	0.2165	0.268	0.057
Mof_H 	H 	0.7931	0.2383	0.433	0.073
Mof_H 	H 	0.7525	0.1835	0.2244	0.08
Mof_H 	H 	0.7218	0.9604	0.2076	0.114
Mof_H 	H 	0.9245	0.1633	0.404	0.103
Mof_H 	H 	0.3229	0.0515	0.268	0.072
Mof_H 	H 	0.6399	0.1947	0.433	0.07
Mof_H 	H 	0.4719	0.0409	0.2244	0.07
Mof_H 	H 	0.4858	0.2472	0.2076	0.052
Mof_H 	H 	0.4795	0.2407	0.404	0.08
Mof_H 	H 	0.7835	0.0549	0.732	0.081
Mof_H 	H 	0.7617	0.2069	0.567	0.072
Mof_H 	H 	0.8165	0.2475	0.7756	0.069
Mof_H 	H 	0.0396	0.2782	0.7924	0.036
Mof_H 	H 	0.8367	0.0755	0.596	0.077
Mof_H 	H 	0.9485	0.6771	0.732	0.069
Mof_H 	H 	0.8053	0.3601	0.567	0.07
Mof_H 	H 	0.9591	0.5281	0.7756	0.09
Mof_H 	H 	0.7528	0.5142	0.7924	0.068
Mof_H 	H 	0.7593	0.5205	0.596	0.085
Mof_H 	H 	0.0549	0.7835	0.732	0.08
Mof_H 	H 	0.2069	0.7617	0.567	0.07
Mof_H 	H 	0.2475	0.8165	0.7756	0.075
Mof_H 	H 	0.2782	0.0396	0.7924	0.015
Mof_H 	H 	0.0755	0.8367	0.596	0.069
Mof_H 	H 	0.6771	0.9485	0.732	0.064
Mof_H 	H 	0.3601	0.8053	0.567	0.072
Mof_H 	H 	0.5281	0.9591	0.7756	0.083
Mof_H 	H 	0.5142	0.7528	0.7924	0.072
Mof_H 	H 	0.5205	0.7593	0.596	0.091
Mof_H 	H 	0.2165	0.9451	0.268	0.056
Mof_H 	H 	0.2383	0.7931	0.433	0.071
Mof_H 	H 	0.1835	0.7525	0.2244	0.085
Mof_H 	H 	0.9604	0.7218	0.2076	0.092
Mof_H 	H 	0.1633	0.9245	0.404	0.095
Mof_H 	H 	0.0515	0.3229	0.268	0.068
Mof_H 	H 	0.1947	0.6399	0.433	0.072
Mof_H 	H 	0.0409	0.4719	0.2244	0.063
Mof_H 	H 	0.2472	0.4858	0.2076	0.056
Mof_H 	H 	0.2407	0.4795	0.404	0.087
Mof_C 	C 	0.9664	0.274	0.3018	-0.042
Mof_C 	C 	0.9436	0.3214	0.3678	0.101
Mof_C 	C 	0.8945	0.2861	0.3872	-0.102
Mof_C 	C 	0.8888	0.3432	0.4562	0.119
Mof_C 	C 	0.8262	0.295	0.4642	-0.086
Mof_C 	C 	0.8462	0.1874	0.3212	0.083
Mof_C 	C 	0.7714	0.151	0.2462	-0.113
Mof_C 	C 	0.7247	0.0659	0.2036	-0.008
Mof_C 	C 	0.7529	0.0173	0.236	-0.104
Mof_C 	C 	0.8278	0.0538	0.3112	0.007
Mof_C 	C 	0.8744	0.1388	0.3536	-0.107
Mof_C 	C 	0.6483	0.0507	0.1254	0.333
Mof_C 	C 	0.8616	0.0026	0.3492	0.275
Mof_C 	C 	0.3354	0.0278	0.3018	-0.111
Mof_C 	C 	0.4242	0.0464	0.3678	0.101
Mof_C 	C 	0.4927	0.1011	0.3872	-0.099
Mof_C 	C 	0.5674	0.113	0.4562	0.11
Mof_C 	C 	0.638	0.1692	0.4642	-0.083
Mof_C 	C 	0.475	0.1338	0.3212	0.056
Mof_C 	C 	0.4748	0.0952	0.2462	-0.077
Mof_C 	C 	0.4789	0.1377	0.2036	-0.063
Mof_C 	C 	0.4831	0.2187	0.236	0.004
Mof_C 	C 	0.4834	0.2574	0.3112	-0.053
Mof_C 	C 	0.4792	0.2148	0.3536	-0.069
Mof_C 	C 	0.4771	0.0747	0.1254	0.398
Mof_C 	C 	0.4876	0.3466	0.3492	0.337
Mof_C 	C 	0.726	0.0336	0.6982	-0.104
Mof_C 	C 	0.6786	0.0564	0.6322	0.077
Mof_C 	C 	0.7139	0.1055	0.6128	-0.088
Mof_C 	C 	0.6568	0.1112	0.5438	0.105
Mof_C 	C 	0.705	0.1738	0.5358	-0.083
Mof_C 	C 	0.8126	0.1538	0.6788	0.048
Mof_C 	C 	0.849	0.2286	0.7538	-0.065
Mof_C 	C 	0.9341	0.2753	0.7964	-0.068
Mof_C 	C 	0.9827	0.2471	0.764	0.057
Mof_C 	C 	0.9462	0.1722	0.6888	-0.069
Mof_C 	C 	0.8612	0.1256	0.6464	-0.052
Mof_C 	C 	0.9493	0.3517	0.8746	0.416
Mof_C 	C 	0.9974	0.1384	0.6508	0.369
Mof_C 	C 	0.9722	0.6646	0.6982	-0.035
Mof_C 	C 	0.9536	0.5758	0.6322	0.099
Mof_C 	C 	0.8989	0.5073	0.6128	-0.094
Mof_C 	C 	0.887	0.4326	0.5438	0.113
Mof_C 	C 	0.8308	0.362	0.5358	-0.08
Mof_C 	C 	0.8662	0.525	0.6788	0.069
Mof_C 	C 	0.9048	0.5252	0.7538	-0.088
Mof_C 	C 	0.8623	0.5211	0.7964	-0.034
Mof_C 	C 	0.7813	0.5169	0.764	-0.008
Mof_C 	C 	0.7426	0.5166	0.6888	-0.037
Mof_C 	C 	0.7852	0.5208	0.6464	-0.076
Mof_C 	C 	0.9253	0.5229	0.8746	0.378
Mof_C 	C 	0.6534	0.5124	0.6508	0.335
Mof_C 	C 	0.0336	0.726	0.6982	-0.09
Mof_C 	C 	0.0564	0.6786	0.6322	0.09
Mof_C 	C 	0.1055	0.7139	0.6128	-0.089
Mof_C 	C 	0.1112	0.6568	0.5438	0.106
Mof_C 	C 	0.1738	0.705	0.5358	-0.08
Mof_C 	C 	0.1538	0.8126	0.6788	0.044
Mof_C 	C 	0.2286	0.849	0.7538	-0.055
Mof_C 	C 	0.2753	0.9341	0.7964	-0.082
Mof_C 	C 	0.2471	0.9827	0.764	0.091
Mof_C 	C 	0.1722	0.9462	0.6888	-0.087
Mof_C 	C 	0.1256	0.8612	0.6464	-0.042
Mof_C 	C 	0.3517	0.9493	0.8746	0.437
Mof_C 	C 	0.1384	0.9974	0.6508	0.387
Mof_C 	C 	0.6646	0.9722	0.6982	-0.019
Mof_C 	C 	0.5758	0.9536	0.6322	0.089
Mof_C 	C 	0.5073	0.8989	0.6128	-0.09
Mof_C 	C 	0.4326	0.887	0.5438	0.113
Mof_C 	C 	0.362	0.8308	0.5358	-0.082
Mof_C 	C 	0.525	0.8662	0.6788	0.068
Mof_C 	C 	0.5252	0.9048	0.7538	-0.087
Mof_C 	C 	0.5211	0.8623	0.7964	-0.032
Mof_C 	C 	0.5169	0.7813	0.764	-0.008
Mof_C 	C 	0.5166	0.7426	0.6888	-0.034
Mof_C 	C 	0.5208	0.7852	0.6464	-0.075
Mof_C 	C 	0.5229	0.9253	0.8746	0.375
Mof_C 	C 	0.5124	0.6534	0.6508	0.335
Mof_C 	C 	0.274	0.9664	0.3018	-0.028
Mof_C 	C 	0.3214	0.9436	0.3678	0.114
Mof_C 	C 	0.2861	0.8945	0.3872	-0.102
Mof_C 	C 	0.3432	0.8888	0.4562	0.118
Mof_C 	C 	0.295	0.8262	0.4642	-0.083
Mof_C 	C 	0.1874	0.8462	0.3212	0.079
Mof_C 	C 	0.151	0.7714	0.2462	-0.103
Mof_C 	C 	0.0659	0.7247	0.2036	-0.023
Mof_C 	C 	0.0173	0.7529	0.236	-0.07
Mof_C 	C 	0.0538	0.8278	0.3112	-0.011
Mof_C 	C 	0.1388	0.8744	0.3536	-0.097
Mof_C 	C 	0.0507	0.6483	0.1254	0.354
Mof_C 	C 	0.0026	0.8616	0.3492	0.294
Mof_C 	C 	0.0278	0.3354	0.3018	-0.095
Mof_C 	C 	0.0464	0.4242	0.3678	0.092
Mof_C 	C 	0.1011	0.4927	0.3872	-0.096
Mof_C 	C 	0.113	0.5674	0.4562	0.112
Mof_C 	C 	0.1692	0.638	0.4642	-0.086
Mof_C 	C 	0.1338	0.475	0.3212	0.055
Mof_C 	C 	0.0952	0.4748	0.2462	-0.077
Mof_C 	C 	0.1377	0.4789	0.2036	-0.061
Mof_C 	C 	0.2187	0.4831	0.236	0.003
Mof_C 	C 	0.2574	0.4834	0.3112	-0.049
Mof_C 	C 	0.2148	0.4792	0.3536	-0.069
Mof_C 	C 	0.0747	0.4771	0.1254	0.396
Mof_C 	C 	0.3466	0.4876	0.3492	0.337
Mof_N 	N 	0.0029	0.4091	0.412	-0.228
Mof_N 	N 	0.4091	0.0029	0.412	-0.235
Mof_N 	N 	0.5909	0.9971	0.588	-0.194
Mof_N 	N 	0.9971	0.5909	0.588	-0.205
Mof_N 	N 	0.9333	0.4333	0.5	-0.311
Mof_N 	N 	0.5667	0.0667	0.5	-0.318
Mof_N 	N 	0.0667	0.5667	0.5	-0.319
Mof_N 	N 	0.4333	0.9333	0.5	-0.305
Mof_Cl	Cl	0.8877	0.8877	0.4712	-0.32
Mof_Cl	Cl	0.5835	0.5835	0.4712	-0.351
Mof_Cl	Cl	0.1123	0.1123	0.5288	-0.371
Mof_Cl	Cl	0.4165	0.4165	0.5288	-0.357
Mof_Cl	Cl	0.5047	0.8861	0.3908	-0.36
Mof_Cl	Cl	0.1139	0.4953	0.6092	-0.382
Mof_O 	O 	0.6247	0.0907	0.0972	-0.341
Mof_O 	O 	0.6112	0.976	0.093	-0.267
Mof_O 	O 	0.8169	0.9275	0.3082	-0.261
Mof_O 	O 	0.9285	0.0337	0.4164	-0.25
Mof_O 	O 	0.4725	0.0065	0.0972	-0.371
Mof_O 	O 	0.4818	0.117	0.093	-0.313
Mof_O 	O 	0.4913	0.3807	0.3082	-0.307
Mof_O 	O 	0.4879	0.3827	0.4164	-0.274
Mof_O 	O 	0.9093	0.3753	0.9028	-0.327
Mof_O 	O 	0.024	0.3888	0.907	-0.292
Mof_O 	O 	0.0725	0.1831	0.6918	-0.317
Mof_O 	O 	0.9663	0.0715	0.5836	-0.273
Mof_O 	O 	0.9935	0.5275	0.9028	-0.301
Mof_O 	O 	0.883	0.5182	0.907	-0.268
Mof_O 	O 	0.6193	0.5087	0.6918	-0.298
Mof_O 	O 	0.6173	0.5121	0.5836	-0.27
Mof_O 	O 	0.3753	0.9093	0.9028	-0.327
Mof_O 	O 	0.3888	0.024	0.907	-0.308
Mof_O 	O 	0.1831	0.0725	0.6918	-0.333
Mof_O 	O 	0.0715	0.9663	0.5836	-0.274
Mof_O 	O 	0.5275	0.9935	0.9028	-0.298
Mof_O 	O 	0.5182	0.883	0.907	-0.264
Mof_O 	O 	0.5087	0.6193	0.6918	-0.293
Mof_O 	O 	0.5121	0.6173	0.5836	-0.267
Mof_O 	O 	0.0907	0.6247	0.0972	-0.341
Mof_O 	O 	0.976	0.6112	0.093	-0.282
Mof_O 	O 	0.9275	0.8169	0.3082	-0.277
Mof_O 	O 	0.0337	0.9285	0.4164	-0.25
Mof_O 	O 	0.0065	0.4725	0.0972	-0.368
Mof_O 	O 	0.117	0.4818	0.093	-0.309
Mof_O 	O 	0.3807	0.4913	0.3082	-0.302
Mof_O 	O 	0.3827	0.4879	0.4164	-0.271
_end
