data_functionalizedCrystal
_audit_creation_method	'EQeq! by Chris Wilmer'
_symmetry_space_group_name_H-M	'P1'
_symmetry_Int_Tables_number	1
_symmetry_cell_setting	triclinic
loop_
_symmetry_equiv_pos_as_xyz
  x,y,z
_cell_length_a	17.762
_cell_length_b	12.868
_cell_length_c	11.2322
_cell_angle_alpha	90
_cell_angle_beta	95.198
_cell_angle_gamma	90
loop_
_atom_site_label
_atom_site_type_symbol
_atom_site_fract_x
_atom_site_fract_y
_atom_site_fract_z
_atom_site_charge
Mof_Co	Co	0.57936	0.55808	0.00037	1.134
Mof_N 	N 	0.8733	0.9352	0.1622	-0.203
Mof_N 	N 	0.9095	0.9836	0.2536	-0.16
Mof_N 	N 	0.8763	0.9722	0.3556	-0.221
Mof_C 	C 	0.8113	0.8889	0.2042	0.044
Mof_C 	C 	0.8153	0.9103	0.3281	0.075
Mof_C 	C 	0.7609	0.8745	0.3999	-0.138
Mof_H 	H 	0.762	0.8921	0.4803	0.061
Mof_C 	C 	0.7038	0.8102	0.344	0.03
Mof_H 	H 	0.6694	0.7789	0.3902	0.02
Mof_C 	C 	0.6978	0.7921	0.2183	-0.088
Mof_C 	C 	0.752	0.8272	0.1486	-0.054
Mof_H 	H 	0.75	0.811	0.0677	0.064
Mof_C 	C 	0.6354	0.7228	0.1693	0.36
Mof_O 	O 	0.6375	0.6866	0.0647	-0.445
Mof_O 	O 	0.5823	0.7097	0.2353	-0.431
Mof_O 	O 	0.4811	0.5773	0.0683	-0.808
Mof_H 	H 	0.4469	0.6181	0.0368	0.25
Mof_Co	Co	0.07936	0.05808	0.00037	1.107
Mof_N 	N 	0.3733	0.4352	0.1622	-0.213
Mof_N 	N 	0.4095	0.4836	0.2536	-0.186
Mof_N 	N 	0.3763	0.4722	0.3556	-0.231
Mof_C 	C 	0.3113	0.3889	0.2042	0.034
Mof_C 	C 	0.3153	0.4103	0.3281	0.073
Mof_C 	C 	0.2609	0.3745	0.3999	-0.147
Mof_H 	H 	0.262	0.3921	0.4803	0.059
Mof_C 	C 	0.2038	0.3102	0.344	0.031
Mof_H 	H 	0.1694	0.2789	0.3902	0.012
Mof_C 	C 	0.1978	0.2921	0.2183	-0.101
Mof_C 	C 	0.252	0.3272	0.1486	-0.053
Mof_H 	H 	0.25	0.311	0.0677	0.056
Mof_C 	C 	0.1354	0.2228	0.1693	0.362
Mof_O 	O 	0.1375	0.1866	0.0647	-0.465
Mof_O 	O 	0.0823	0.2097	0.2353	-0.462
Mof_O 	O 	0.9811	0.0773	0.0683	-0.73
Mof_H 	H 	0.9469	0.1181	0.0368	0.245
Mof_Co	Co	0.42064	0.55808	0.49963	1.132
Mof_N 	N 	0.1267	0.9352	0.3378	-0.219
Mof_N 	N 	0.0905	0.9836	0.2464	-0.198
Mof_N 	N 	0.1237	0.9722	0.1444	-0.236
Mof_C 	C 	0.1887	0.8889	0.2958	0.034
Mof_C 	C 	0.1847	0.9103	0.1719	0.071
Mof_C 	C 	0.2391	0.8745	0.1001	-0.142
Mof_H 	H 	0.238	0.8921	0.0197	0.062
Mof_C 	C 	0.2962	0.8102	0.156	0.028
Mof_H 	H 	0.3306	0.7789	0.1098	0.021
Mof_C 	C 	0.3022	0.7921	0.2817	-0.091
Mof_C 	C 	0.248	0.8272	0.3514	-0.058
Mof_H 	H 	0.25	0.811	0.4323	0.061
Mof_C 	C 	0.3646	0.7228	0.3307	0.358
Mof_O 	O 	0.3625	0.6866	0.4353	-0.448
Mof_O 	O 	0.4177	0.7097	0.2647	-0.432
Mof_O 	O 	0.5189	0.5773	0.4317	-0.808
Mof_H 	H 	0.5531	0.6181	0.4632	0.25
Mof_Co	Co	0.92064	0.05808	0.49963	1.156
Mof_N 	N 	0.6267	0.4352	0.3378	-0.213
Mof_N 	N 	0.5905	0.4836	0.2464	-0.185
Mof_N 	N 	0.6237	0.4722	0.1444	-0.229
Mof_C 	C 	0.6887	0.3889	0.2958	0.042
Mof_C 	C 	0.6847	0.4103	0.1719	0.072
Mof_C 	C 	0.7391	0.3745	0.1001	-0.134
Mof_H 	H 	0.738	0.3921	0.0197	0.064
Mof_C 	C 	0.7962	0.3102	0.156	0.026
Mof_H 	H 	0.8306	0.2789	0.1098	0.03
Mof_C 	C 	0.8022	0.2921	0.2817	-0.077
Mof_C 	C 	0.748	0.3272	0.3514	-0.059
Mof_H 	H 	0.75	0.311	0.4323	0.066
Mof_C 	C 	0.8646	0.2228	0.3307	0.353
Mof_O 	O 	0.8625	0.1866	0.4353	-0.428
Mof_O 	O 	0.9177	0.2097	0.2647	-0.386
Mof_O 	O 	0.0189	0.0773	0.4317	-0.869
Mof_H 	H 	0.0531	0.1181	0.4632	0.252
Mof_Co	Co	0.42064	0.44192	0.99963	1.132
Mof_N 	N 	0.1267	0.0648	0.8378	-0.217
Mof_N 	N 	0.0905	0.0164	0.7464	-0.198
Mof_N 	N 	0.1237	0.0278	0.6444	-0.237
Mof_C 	C 	0.1887	0.1111	0.7958	0.036
Mof_C 	C 	0.1847	0.0897	0.6719	0.07
Mof_C 	C 	0.2391	0.1255	0.6001	-0.142
Mof_H 	H 	0.238	0.1079	0.5197	0.061
Mof_C 	C 	0.2962	0.1898	0.656	0.027
Mof_H 	H 	0.3306	0.2211	0.6098	0.02
Mof_C 	C 	0.3022	0.2079	0.7817	-0.09
Mof_C 	C 	0.248	0.1728	0.8514	-0.059
Mof_H 	H 	0.25	0.189	0.9323	0.063
Mof_C 	C 	0.3646	0.2772	0.8307	0.358
Mof_O 	O 	0.3625	0.3134	0.9353	-0.447
Mof_O 	O 	0.4177	0.2903	0.7647	-0.431
Mof_O 	O 	0.5189	0.4227	0.9317	-0.808
Mof_H 	H 	0.5531	0.3819	0.9632	0.25
Mof_Co	Co	0.92064	0.94192	0.99963	1.152
Mof_N 	N 	0.6267	0.5648	0.8378	-0.214
Mof_N 	N 	0.5905	0.5164	0.7464	-0.185
Mof_N 	N 	0.6237	0.5278	0.6444	-0.23
Mof_C 	C 	0.6887	0.6111	0.7958	0.041
Mof_C 	C 	0.6847	0.5897	0.6719	0.072
Mof_C 	C 	0.7391	0.6255	0.6001	-0.134
Mof_H 	H 	0.738	0.6079	0.5197	0.064
Mof_C 	C 	0.7962	0.6898	0.656	0.027
Mof_H 	H 	0.8306	0.7211	0.6098	0.03
Mof_C 	C 	0.8022	0.7079	0.7817	-0.079
Mof_C 	C 	0.748	0.6728	0.8514	-0.058
Mof_H 	H 	0.75	0.689	0.9323	0.064
Mof_C 	C 	0.8646	0.7772	0.8307	0.353
Mof_O 	O 	0.8625	0.8134	0.9353	-0.431
Mof_O 	O 	0.9177	0.7903	0.7647	-0.388
Mof_O 	O 	0.0189	0.9227	0.9317	-0.867
Mof_H 	H 	0.0531	0.8819	0.9632	0.252
Mof_Co	Co	0.57936	0.44192	0.50037	1.133
Mof_N 	N 	0.8733	0.0648	0.6622	-0.207
Mof_N 	N 	0.9095	0.0164	0.7536	-0.161
Mof_N 	N 	0.8763	0.0278	0.8556	-0.221
Mof_C 	C 	0.8113	0.1111	0.7042	0.042
Mof_C 	C 	0.8153	0.0897	0.8281	0.076
Mof_C 	C 	0.7609	0.1255	0.8999	-0.139
Mof_H 	H 	0.762	0.1079	0.9803	0.062
Mof_C 	C 	0.7038	0.1898	0.844	0.031
Mof_H 	H 	0.6694	0.2211	0.8902	0.02
Mof_C 	C 	0.6978	0.2079	0.7183	-0.089
Mof_C 	C 	0.752	0.1728	0.6486	-0.053
Mof_H 	H 	0.75	0.189	0.5677	0.062
Mof_C 	C 	0.6354	0.2772	0.6693	0.36
Mof_O 	O 	0.6375	0.3134	0.5647	-0.446
Mof_O 	O 	0.5823	0.2903	0.7353	-0.431
Mof_O 	O 	0.4811	0.4227	0.5683	-0.808
Mof_H 	H 	0.4469	0.3819	0.5368	0.249
Mof_Co	Co	0.07936	0.94192	0.50037	1.11
Mof_N 	N 	0.3733	0.5648	0.6622	-0.213
Mof_N 	N 	0.4095	0.5164	0.7536	-0.186
Mof_N 	N 	0.3763	0.5278	0.8556	-0.231
Mof_C 	C 	0.3113	0.6111	0.7042	0.034
Mof_C 	C 	0.3153	0.5897	0.8281	0.073
Mof_C 	C 	0.2609	0.6255	0.8999	-0.147
Mof_H 	H 	0.262	0.6079	0.9803	0.059
Mof_C 	C 	0.2038	0.6898	0.844	0.03
Mof_H 	H 	0.1694	0.7211	0.8902	0.012
Mof_C 	C 	0.1978	0.7079	0.7183	-0.1
Mof_C 	C 	0.252	0.6728	0.6486	-0.054
Mof_H 	H 	0.25	0.689	0.5677	0.057
Mof_C 	C 	0.1354	0.7772	0.6693	0.361
Mof_O 	O 	0.1375	0.8134	0.5647	-0.464
Mof_O 	O 	0.0823	0.7903	0.7353	-0.461
Mof_O 	O 	0.9811	0.9227	0.5683	-0.732
Mof_H 	H 	0.9469	0.8819	0.5368	0.245
Mof_Co	Co	0.5	0.5941	0.25	1.155
Mof_Co	Co	-2.77915e-18	0.0941	0.25	1.106
Mof_Co	Co	0.5	0.4059	0.75	1.155
Mof_Co	Co	1.93937e-33	0.9059	0.75	1.107
_end
