data_functionalizedCrystal
_audit_creation_method	'EQeq! by Chris Wilmer'
_symmetry_space_group_name_H-M	'P1'
_symmetry_Int_Tables_number	1
_symmetry_cell_setting	triclinic
loop_
_symmetry_equiv_pos_as_xyz
  x,y,z
_cell_length_a	12.2987
_cell_length_b	7.6559
_cell_length_c	14.6269
_cell_angle_alpha	90
_cell_angle_beta	106.545
_cell_angle_gamma	90
loop_
_atom_site_label
_atom_site_type_symbol
_atom_site_fract_x
_atom_site_fract_y
_atom_site_fract_z
_atom_site_charge
Mof_N 	N 	0.9893	0.7961	0.1051	-0.119
Mof_N 	N 	0.9119	0.2033	0.3981	-0.122
Mof_C 	C 	0.9623	0.694	0.1518	-0.107
Mof_C 	C 	0.9037	0.3053	0.3388	-0.111
Mof_N 	N 	0.7031	0.0506	0.0899	-0.089
Mof_C 	C 	0.534	0.145	0.1308	-0.035
Mof_H 	H 	0.4682	0.2123	0.1147	0.028
Mof_C 	C 	0.613	0.138	0.073	-0.006
Mof_H 	H 	0.5947	0.2058	0.018	0.009
Mof_C 	C 	0.5645	0.0457	0.2086	-0.093
Mof_C 	C 	0.3402	0.0437	0.447	0.11
Mof_H 	H 	0.4131	0.0599	0.4872	-0.02
Mof_C 	C 	0.2495	0.0381	0.4845	0.139
Mof_H 	H 	0.2617	0.0616	0.549	-0.037
Mof_C 	C 	0.2136	0.9667	0.2948	-0.111
Mof_H 	H 	0.2015	0.9263	0.2327	0.049
Mof_C 	C 	0.1267	0.9724	0.3368	-0.02
Mof_H 	H 	0.0528	0.9566	0.2985	0.026
Mof_C 	C 	0.4156	0.0345	0.3082	-0.114
Mof_C 	C 	0.4878	0.0389	0.267	-0.253
Mof_C 	C 	0.3237	0.025	0.3502	0.083
Mof_C 	C 	0.668	0.962	0.2304	-0.047
Mof_H 	H 	0.6937	0.9011	0.2877	0.035
Mof_C 	C 	0.733	0.9664	0.1686	0.045
Mof_H 	H 	0.8015	0.9062	0.1844	0.001
Mof_N 	N 	0.0107	0.7961	0.8949	-0.141
Mof_N 	N 	0.0881	0.2033	0.6019	-0.149
Mof_C 	C 	0.0377	0.694	0.8482	-0.141
Mof_C 	C 	0.0963	0.3053	0.6612	-0.145
Mof_N 	N 	0.2969	0.0506	0.9101	-0.096
Mof_C 	C 	0.466	0.145	0.8692	-0.058
Mof_H 	H 	0.5318	0.2123	0.8853	0.057
Mof_C 	C 	0.387	0.138	0.927	0.014
Mof_H 	H 	0.4053	0.2058	0.982	0.03
Mof_C 	C 	0.4355	0.0457	0.7914	-0.046
Mof_C 	C 	0.6598	0.0437	0.553	0.034
Mof_H 	H 	0.5869	0.0599	0.5128	0.008
Mof_C 	C 	0.7505	0.0381	0.5155	0.085
Mof_H 	H 	0.7383	0.0616	0.451	-0.014
Mof_C 	C 	0.7864	0.9667	0.7052	-0.079
Mof_H 	H 	0.7985	0.9263	0.7673	0.058
Mof_C 	C 	0.8733	0.9724	0.6632	0.003
Mof_H 	H 	0.9472	0.9566	0.7015	0.038
Mof_C 	C 	0.5844	0.0345	0.6918	-0.109
Mof_C 	C 	0.5122	0.0389	0.733	-0.208
Mof_C 	C 	0.6763	0.025	0.6498	0.047
Mof_C 	C 	0.332	0.962	0.7696	-0.073
Mof_H 	H 	0.3063	0.9011	0.7123	0.045
Mof_C 	C 	0.267	0.9664	0.8314	0.036
Mof_H 	H 	0.1985	0.9062	0.8156	0.001
Mof_N 	N 	0.0107	0.2039	0.8949	-0.144
Mof_N 	N 	0.0881	0.7967	0.6019	-0.143
Mof_C 	C 	0.0377	0.306	0.8482	-0.142
Mof_C 	C 	0.0963	0.6947	0.6612	-0.144
Mof_N 	N 	0.2969	0.9494	0.9101	-0.096
Mof_C 	C 	0.466	0.855	0.8692	-0.179
Mof_H 	H 	0.5318	0.7877	0.8853	0.091
Mof_C 	C 	0.387	0.862	0.927	0.074
Mof_H 	H 	0.4053	0.7942	0.982	0.01
Mof_C 	C 	0.4355	0.9543	0.7914	0.15
Mof_C 	C 	0.6598	0.9563	0.553	-0.133
Mof_H 	H 	0.5869	0.9401	0.5128	0.067
Mof_C 	C 	0.7505	0.9619	0.5155	-0.04
Mof_H 	H 	0.7383	0.9384	0.451	0.032
Mof_C 	C 	0.7864	0.0333	0.7052	-0.022
Mof_H 	H 	0.7985	0.0737	0.7673	0.041
Mof_C 	C 	0.8733	0.0276	0.6632	0.044
Mof_H 	H 	0.9472	0.0434	0.7015	0.01
Mof_C 	C 	0.5844	0.9655	0.6918	0.089
Mof_C 	C 	0.5122	0.9611	0.733	0.158
Mof_C 	C 	0.6763	0.975	0.6498	-0.005
Mof_C 	C 	0.332	0.038	0.7696	-0.091
Mof_H 	H 	0.3063	0.0989	0.7123	0.06
Mof_C 	C 	0.267	0.0336	0.8314	0.067
Mof_H 	H 	0.1985	0.0938	0.8156	-0.012
Mof_N 	N 	0.9893	0.2039	0.1051	-0.118
Mof_N 	N 	0.9119	0.7967	0.3981	-0.118
Mof_C 	C 	0.9623	0.306	0.1518	-0.106
Mof_C 	C 	0.9037	0.6947	0.3388	-0.112
Mof_N 	N 	0.7031	0.9494	0.0899	-0.11
Mof_C 	C 	0.534	0.855	0.1308	-0.218
Mof_H 	H 	0.4682	0.7877	0.1147	0.083
Mof_C 	C 	0.613	0.862	0.073	0.085
Mof_H 	H 	0.5947	0.7942	0.018	-0.021
Mof_C 	C 	0.5645	0.9543	0.2086	0.197
Mof_C 	C 	0.3402	0.9563	0.447	-0.211
Mof_H 	H 	0.4131	0.9401	0.4872	0.095
Mof_C 	C 	0.2495	0.9619	0.4845	-0.094
Mof_H 	H 	0.2617	0.9384	0.549	0.049
Mof_C 	C 	0.2136	0.0333	0.2948	0.01
Mof_H 	H 	0.2015	0.0737	0.2327	0.008
Mof_C 	C 	0.1267	0.0276	0.3368	0.065
Mof_H 	H 	0.0528	0.0434	0.2985	-0.043
Mof_C 	C 	0.4156	0.9655	0.3082	0.09
Mof_C 	C 	0.4878	0.9611	0.267	0.198
Mof_C 	C 	0.3237	0.975	0.3502	-0.044
Mof_C 	C 	0.668	0.038	0.2304	-0.116
Mof_H 	H 	0.6937	0.0989	0.2877	0.07
Mof_C 	C 	0.733	0.0336	0.1686	0.057
Mof_H 	H 	0.8015	0.0938	0.1844	-0.004
Mof_Mo	Mo	0.90116	0.5	0.23261	0.825
Mof_N 	N 	0.102	0.5	0.3238	-0.218
Mof_C 	C 	0.4502	0.5	0.4781	-0.046
Mof_C 	C 	0.2488	0.5	0.4719	-0.179
Mof_H 	H 	0.2679	0.5	0.5382	0.088
Mof_C 	C 	0.137	0.5	0.4202	0.105
Mof_H 	H 	0.0824	0.5	0.453	-0.029
Mof_C 	C 	0.1856	0.5	0.2811	0.111
Mof_H 	H 	0.1643	0.5	0.2148	-0.036
Mof_C 	C 	0.3336	0.5	0.4275	0.115
Mof_C 	C 	0.2973	0.5	0.3266	-0.184
Mof_H 	H 	0.3502	0.5	0.2921	0.088
Mof_Mo	Mo	0.09884	0.5	0.76739	0.773
Mof_N 	N 	0.898	0.5	0.6762	-0.168
Mof_C 	C 	0.5498	0.5	0.5219	-0.039
Mof_C 	C 	0.7512	0.5	0.5281	-0.162
Mof_H 	H 	0.7321	0.5	0.4618	0.083
Mof_C 	C 	0.863	0.5	0.5798	0.1
Mof_H 	H 	0.9176	0.5	0.547	0.014
Mof_C 	C 	0.8144	0.5	0.7189	0.105
Mof_H 	H 	0.8357	0.5	0.7852	0.006
Mof_C 	C 	0.6664	0.5	0.5725	0.105
Mof_C 	C 	0.7027	0.5	0.6734	-0.167
Mof_H 	H 	0.6498	0.5	0.7079	0.089
Mof_Mn	Mn	-0	0	-0	0.476
Mof_Mn	Mn	2.86451e-33	0	0.5	0.615
Mof_N 	N 	0.1438	-9.56042e-33	0.4311	-0.184
Mof_N 	N 	0.8562	0	0.5689	-0.158
_end
