data_functionalizedCrystal
_audit_creation_method	'EQeq! by Chris Wilmer'
_symmetry_space_group_name_H-M	'P1'
_symmetry_Int_Tables_number	1
_symmetry_cell_setting	triclinic
loop_
_symmetry_equiv_pos_as_xyz
  x,y,z
_cell_length_a	10.7298
_cell_length_b	11.9079
_cell_length_c	14.7678
_cell_angle_alpha	73.057
_cell_angle_beta	71.528
_cell_angle_gamma	66.456
loop_
_atom_site_label
_atom_site_type_symbol
_atom_site_fract_x
_atom_site_fract_y
_atom_site_fract_z
_atom_site_charge
Mof_Nd	Nd	0.01495	0.45055	0.37171	2.476
Mof_Nd	Nd	0.98505	0.54945	0.62829	2.476
Mof_P 	P 	0.85928	0.2819	0.27352	0.255
Mof_P 	P 	0.14072	0.7181	0.72648	0.255
Mof_H 	H 	0.4977	0.3626	0.5578	0.03
Mof_H 	H 	0.0498	0.1028	0.3814	0.038
Mof_H 	H 	0.7263	0.3196	0.4632	0.061
Mof_H 	H 	0.0278	0.1753	0.1075	0.028
Mof_H 	H 	0.3591	0.3853	0.3246	-0.039
Mof_H 	H 	0.5894	0.3349	0.2311	0.062
Mof_H 	H 	0.8152	0.0841	0.2218	0.053
Mof_H 	H 	0.7503	0.5775	0.9834	0.038
Mof_H 	H 	0.0606	0.2509	0.9392	0.058
Mof_H 	H 	0.1154	0.887	0.4353	0.016
Mof_H 	H 	0.8954	0.8644	0.2672	0.024
Mof_H 	H 	0.7256	0.5082	0.1523	0.049
Mof_H 	H 	0.5023	0.6374	0.4422	0.03
Mof_H 	H 	0.9502	0.8972	0.6186	0.038
Mof_H 	H 	0.2737	0.6804	0.5368	0.061
Mof_H 	H 	0.9722	0.8247	0.8925	0.028
Mof_H 	H 	0.6409	0.6147	0.6754	-0.039
Mof_H 	H 	0.4106	0.6651	0.7689	0.062
Mof_H 	H 	0.1848	0.9159	0.7782	0.053
Mof_H 	H 	0.2497	0.4225	0.0166	0.038
Mof_H 	H 	0.9394	0.7491	0.0608	0.058
Mof_H 	H 	0.8846	0.113	0.5647	0.016
Mof_H 	H 	0.1046	0.1356	0.7328	0.024
Mof_H 	H 	0.2744	0.4918	0.8477	0.049
Mof_C 	C 	0.8716	0.3343	0.1456	-0.047
Mof_C 	C 	0.5161	0.3585	0.4914	0.043
Mof_C 	C 	0.924	0.1135	0.2987	-0.012
Mof_C 	C 	0.679	0.325	0.3379	-0.006
Mof_C 	C 	0.0151	0.0551	0.3604	-0.087
Mof_C 	C 	0.6519	0.3324	0.4353	-0.079
Mof_C 	C 	0.406	0.379	0.45	-0.171
Mof_C 	C 	0.9724	0.257	0.0827	-0.019
Mof_C 	C 	0.4336	0.3711	0.3528	0.076
Mof_C 	C 	0.5703	0.3425	0.2968	-0.113
Mof_C 	C 	0.8774	0.0437	0.2642	-0.084
Mof_C 	C 	0.9073	0.4202	0.9457	-0.055
Mof_C 	C 	0.9298	0.4628	0.8374	0.3
Mof_C 	C 	0.8074	0.4968	0.0085	-0.007
Mof_C 	C 	0.9905	0.3019	0.9826	-0.037
Mof_C 	C 	0.0086	0.8563	0.3585	-0.157
Mof_C 	C 	0.0554	0.9269	0.3914	0.041
Mof_C 	C 	0.9229	0.9133	0.2927	0.034
Mof_C 	C 	0.0449	0.7176	0.3978	0.483
Mof_C 	C 	0.2606	0.4127	0.511	0.444
Mof_C 	C 	0.7912	0.4548	0.109	-0.04
Mof_C 	C 	0.1284	0.6657	0.8544	-0.047
Mof_C 	C 	0.4839	0.6415	0.5086	0.043
Mof_C 	C 	0.076	0.8865	0.7013	-0.012
Mof_C 	C 	0.321	0.675	0.6621	-0.006
Mof_C 	C 	0.9849	0.9449	0.6396	-0.087
Mof_C 	C 	0.3481	0.6676	0.5647	-0.079
Mof_C 	C 	0.594	0.621	0.55	-0.171
Mof_C 	C 	0.0276	0.743	0.9173	-0.019
Mof_C 	C 	0.5664	0.6289	0.6472	0.076
Mof_C 	C 	0.4297	0.6575	0.7032	-0.113
Mof_C 	C 	0.1226	0.9563	0.7358	-0.084
Mof_C 	C 	0.0927	0.5798	0.0543	-0.055
Mof_C 	C 	0.0702	0.5372	0.1626	0.3
Mof_C 	C 	0.1926	0.5032	0.9915	-0.007
Mof_C 	C 	0.0095	0.6981	0.0174	-0.037
Mof_C 	C 	0.9914	0.1437	0.6415	-0.157
Mof_C 	C 	0.9446	0.0731	0.6086	0.041
Mof_C 	C 	0.0771	0.0867	0.7073	0.034
Mof_C 	C 	0.9551	0.2824	0.6022	0.483
Mof_C 	C 	0.7394	0.5873	0.489	0.444
Mof_C 	C 	0.2088	0.5452	0.891	-0.04
Mof_O 	O 	0.0489	0.4187	0.7854	-0.426
Mof_O 	O 	0.2387	0.4339	0.5947	-0.495
Mof_O 	O 	0.0724	0.6799	0.4807	-0.568
Mof_O 	O 	0.8266	0.5404	0.8003	-0.45
Mof_O 	O 	0.0425	0.6515	0.3462	-0.551
Mof_O 	O 	0.1594	0.4229	0.4775	-0.677
Mof_O 	O 	0.9391	0.3297	0.3111	-0.489
Mof_O 	O 	0.9511	0.5813	0.2146	-0.426
Mof_O 	O 	0.7613	0.5661	0.4053	-0.495
Mof_O 	O 	0.9276	0.3201	0.5193	-0.568
Mof_O 	O 	0.1734	0.4596	0.1997	-0.45
Mof_O 	O 	0.9575	0.3485	0.6538	-0.551
Mof_O 	O 	0.8406	0.5771	0.5225	-0.677
Mof_O 	O 	0.0609	0.6703	0.6889	-0.489
_end
