data_functionalizedCrystal
_audit_creation_method	'EQeq! by Chris Wilmer'
_symmetry_space_group_name_H-M	'P1'
_symmetry_Int_Tables_number	1
_symmetry_cell_setting	triclinic
loop_
_symmetry_equiv_pos_as_xyz
  x,y,z
_cell_length_a	14.0845
_cell_length_b	14.0845
_cell_length_c	44.2036
_cell_angle_alpha	90
_cell_angle_beta	90
_cell_angle_gamma	90
loop_
_atom_site_label
_atom_site_type_symbol
_atom_site_fract_x
_atom_site_fract_y
_atom_site_fract_z
_atom_site_charge
Mof_N 	N 	0.61789	0.4045	0.24249	-0.105
Mof_N 	N 	0.69881	0.37295	0.22902	-0.094
Mof_N 	N 	0.57102	0.32172	0.2041	-0.244
Mof_N 	N 	0.63184	0.61952	0.3495	-0.104
Mof_N 	N 	0.71271	0.64707	0.36414	-0.094
Mof_N 	N 	0.58262	0.69003	0.39003	-0.243
Mof_C 	C 	0.66684	0.32415	0.20596	0.089
Mof_H 	H 	0.7064	0.2939	0.1921	-0.011
Mof_C 	C 	0.54273	0.37301	0.22747	0.097
Mof_H 	H 	0.4798	0.3851	0.2326	-0.009
Mof_C 	C 	0.62215	0.46067	0.26965	0.036
Mof_C 	C 	0.6245	0.55967	0.26704	0.002
Mof_C 	C 	0.62099	0.60843	0.23881	-0.055
Mof_H 	H 	0.6178	0.574	0.2209	0.059
Mof_C 	C 	0.6223	0.70483	0.2379	-0.032
Mof_H 	H 	0.6198	0.7358	0.2193	0.045
Mof_C 	C 	0.6273	0.75895	0.26501	-0.032
Mof_H 	H 	0.628	0.8249	0.264	0.046
Mof_C 	C 	0.631	0.7156	0.29235	-0.053
Mof_H 	H 	0.6345	0.7519	0.3099	0.059
Mof_C 	C 	0.62961	0.61448	0.29437	0.002
Mof_C 	C 	0.63318	0.56576	0.32178	0.036
Mof_C 	C 	0.63318	0.46694	0.32431	-0.001
Mof_C 	C 	0.63944	0.41883	0.35256	-0.055
Mof_H 	H 	0.6462	0.4537	0.3703	0.057
Mof_C 	C 	0.6356	0.3225	0.35385	-0.043
Mof_H 	H 	0.6404	0.292	0.3724	0.044
Mof_C 	C 	0.6243	0.26821	0.32715	-0.032
Mof_H 	H 	0.6194	0.2025	0.3285	0.042
Mof_C 	C 	0.62053	0.311	0.29966	-0.058
Mof_H 	H 	0.6145	0.2742	0.2823	0.062
Mof_C 	C 	0.62579	0.41206	0.29717	0.002
Mof_C 	C 	0.67945	0.68918	0.38835	0.089
Mof_H 	H 	0.7183	0.7161	0.4031	-0.007
Mof_C 	C 	0.55556	0.64521	0.36512	0.092
Mof_H 	H 	0.493	0.6336	0.3595	-0.011
Mof_N 	N 	0.11789	0.9045	0.74249	-0.097
Mof_N 	N 	0.19881	0.87295	0.72902	-0.094
Mof_N 	N 	0.07102	0.82172	0.7041	-0.239
Mof_N 	N 	0.13184	0.11952	0.8495	-0.096
Mof_N 	N 	0.21271	0.14707	0.86414	-0.095
Mof_N 	N 	0.08262	0.19003	0.89003	-0.238
Mof_C 	C 	0.16684	0.82415	0.70596	0.09
Mof_H 	H 	0.2064	0.7939	0.6921	-0.012
Mof_C 	C 	0.04273	0.87301	0.72747	0.056
Mof_H 	H 	0.9798	0.8851	0.7326	0.019
Mof_C 	C 	0.12215	0.96067	0.76965	0.031
Mof_C 	C 	0.1245	0.05967	0.76704	0.001
Mof_C 	C 	0.12099	0.10843	0.73881	-0.057
Mof_H 	H 	0.1178	0.074	0.7209	0.057
Mof_C 	C 	0.1223	0.20483	0.7379	-0.034
Mof_H 	H 	0.1198	0.2358	0.7193	0.042
Mof_C 	C 	0.1273	0.25895	0.76501	-0.034
Mof_H 	H 	0.128	0.3249	0.764	0.043
Mof_C 	C 	0.131	0.2156	0.79235	-0.056
Mof_H 	H 	0.1345	0.2519	0.8099	0.058
Mof_C 	C 	0.12961	0.11448	0.79437	0
Mof_C 	C 	0.13318	0.06576	0.82178	0.031
Mof_C 	C 	0.13318	0.96694	0.82431	-0.002
Mof_C 	C 	0.13944	0.91883	0.85256	-0.059
Mof_H 	H 	0.1462	0.9537	0.8703	0.056
Mof_C 	C 	0.1356	0.8225	0.85385	-0.047
Mof_H 	H 	0.1404	0.792	0.8724	0.044
Mof_C 	C 	0.1243	0.76821	0.82715	-0.034
Mof_H 	H 	0.1194	0.7025	0.8285	0.039
Mof_C 	C 	0.12053	0.811	0.79966	-0.062
Mof_H 	H 	0.1145	0.7742	0.7823	0.06
Mof_C 	C 	0.12579	0.91206	0.79717	0.001
Mof_C 	C 	0.17945	0.18918	0.88835	0.089
Mof_H 	H 	0.2183	0.2161	0.9031	-0.008
Mof_C 	C 	0.05556	0.14521	0.86512	0.048
Mof_H 	H 	0.993	0.1336	0.8595	0.02
Mof_N 	N 	0.88211	0.5955	0.74249	-0.11
Mof_N 	N 	0.80119	0.62705	0.72902	-0.094
Mof_N 	N 	0.92898	0.67828	0.7041	-0.245
Mof_N 	N 	0.86816	0.38048	0.8495	-0.11
Mof_N 	N 	0.78729	0.35293	0.86414	-0.094
Mof_N 	N 	0.91738	0.30997	0.89003	-0.244
Mof_C 	C 	0.83316	0.67585	0.70596	0.09
Mof_H 	H 	0.7936	0.7061	0.6921	-0.01
Mof_C 	C 	0.95727	0.62699	0.72747	0.137
Mof_H 	H 	0.0202	0.6149	0.7326	-0.038
Mof_C 	C 	0.87785	0.53933	0.76965	0.041
Mof_C 	C 	0.8755	0.44033	0.76704	0.003
Mof_C 	C 	0.87901	0.39157	0.73881	-0.052
Mof_H 	H 	0.8822	0.426	0.7209	0.06
Mof_C 	C 	0.8777	0.29517	0.7379	-0.031
Mof_H 	H 	0.8802	0.2642	0.7193	0.048
Mof_C 	C 	0.8727	0.24105	0.76501	-0.03
Mof_H 	H 	0.872	0.1751	0.764	0.05
Mof_C 	C 	0.869	0.2844	0.79235	-0.05
Mof_H 	H 	0.8655	0.2481	0.8099	0.06
Mof_C 	C 	0.87039	0.38552	0.79437	0.002
Mof_C 	C 	0.86682	0.43424	0.82178	0.04
Mof_C 	C 	0.86682	0.53306	0.82431	0
Mof_C 	C 	0.86056	0.58117	0.85256	-0.053
Mof_H 	H 	0.8538	0.5463	0.8703	0.057
Mof_C 	C 	0.8644	0.6775	0.85385	-0.041
Mof_H 	H 	0.8596	0.708	0.8724	0.045
Mof_C 	C 	0.8757	0.73179	0.82715	-0.031
Mof_H 	H 	0.8806	0.7975	0.8285	0.044
Mof_C 	C 	0.87947	0.689	0.79966	-0.055
Mof_H 	H 	0.8855	0.7258	0.7823	0.064
Mof_C 	C 	0.87421	0.58794	0.79717	0.003
Mof_C 	C 	0.82055	0.31082	0.88835	0.088
Mof_H 	H 	0.7817	0.2839	0.9031	-0.006
Mof_C 	C 	0.94444	0.35479	0.86512	0.136
Mof_H 	H 	0.007	0.3664	0.8595	-0.041
Mof_N 	N 	0.38211	0.0955	0.24249	-0.104
Mof_N 	N 	0.30119	0.12705	0.22902	-0.095
Mof_N 	N 	0.42898	0.17828	0.2041	-0.243
Mof_N 	N 	0.36816	0.88048	0.3495	-0.103
Mof_N 	N 	0.28729	0.85293	0.36414	-0.096
Mof_N 	N 	0.41738	0.80997	0.39003	-0.242
Mof_C 	C 	0.33316	0.17585	0.20596	0.09
Mof_H 	H 	0.2936	0.2061	0.1921	-0.011
Mof_C 	C 	0.45727	0.12699	0.22747	0.096
Mof_H 	H 	0.5202	0.1149	0.2326	-0.01
Mof_C 	C 	0.37785	0.03933	0.26965	0.036
Mof_C 	C 	0.3755	0.94033	0.26704	0.001
Mof_C 	C 	0.37901	0.89157	0.23881	-0.054
Mof_H 	H 	0.3822	0.926	0.2209	0.058
Mof_C 	C 	0.3777	0.79517	0.2379	-0.033
Mof_H 	H 	0.3802	0.7642	0.2193	0.045
Mof_C 	C 	0.3727	0.74105	0.26501	-0.031
Mof_H 	H 	0.372	0.6751	0.264	0.046
Mof_C 	C 	0.369	0.7844	0.29235	-0.054
Mof_H 	H 	0.3655	0.7481	0.3099	0.059
Mof_C 	C 	0.37039	0.88552	0.29437	0.002
Mof_C 	C 	0.36682	0.93424	0.32178	0.034
Mof_C 	C 	0.36682	0.03306	0.32431	-0.001
Mof_C 	C 	0.36056	0.08117	0.35256	-0.057
Mof_H 	H 	0.3538	0.0463	0.3703	0.057
Mof_C 	C 	0.3644	0.1775	0.35385	-0.044
Mof_H 	H 	0.3596	0.208	0.3724	0.044
Mof_C 	C 	0.3757	0.23179	0.32715	-0.033
Mof_H 	H 	0.3806	0.2975	0.3285	0.042
Mof_C 	C 	0.37947	0.189	0.29966	-0.058
Mof_H 	H 	0.3855	0.2258	0.2823	0.062
Mof_C 	C 	0.37421	0.08794	0.29717	0.001
Mof_C 	C 	0.32055	0.81082	0.38835	0.088
Mof_H 	H 	0.2817	0.7839	0.4031	-0.009
Mof_C 	C 	0.44444	0.85479	0.36512	0.092
Mof_H 	H 	0.507	0.8664	0.3595	-0.011
Mof_N 	N 	0.3455	0.86789	0.49249	-0.108
Mof_N 	N 	0.37705	0.94881	0.47902	-0.094
Mof_N 	N 	0.42828	0.82102	0.4541	-0.244
Mof_N 	N 	0.13048	0.88184	0.5995	-0.099
Mof_N 	N 	0.10293	0.96271	0.61414	-0.097
Mof_N 	N 	0.05997	0.83262	0.64003	-0.245
Mof_C 	C 	0.42585	0.91684	0.45596	0.09
Mof_H 	H 	0.4561	0.9564	0.4421	-0.011
Mof_C 	C 	0.37699	0.79273	0.47747	0.098
Mof_H 	H 	0.3649	0.7298	0.4826	-0.011
Mof_C 	C 	0.28933	0.87215	0.51965	0.061
Mof_C 	C 	0.19033	0.8745	0.51704	-0.056
Mof_C 	C 	0.14157	0.87099	0.48881	0.029
Mof_H 	H 	0.176	0.8678	0.4709	0.027
Mof_C 	C 	0.04517	0.8723	0.4879	-0.158
Mof_H 	H 	0.0142	0.8698	0.4693	0.082
Mof_C 	C 	0.99105	0.8773	0.51501	0.131
Mof_H 	H 	0.9251	0.878	0.514	-0.007
Mof_C 	C 	0.0344	0.881	0.54235	-0.209
Mof_H 	H 	0.9981	0.8845	0.5599	0.126
Mof_C 	C 	0.13552	0.87961	0.54437	0.073
Mof_C 	C 	0.18424	0.88318	0.57178	0.002
Mof_C 	C 	0.28306	0.88318	0.57431	0.022
Mof_C 	C 	0.33117	0.88944	0.60256	-0.074
Mof_H 	H 	0.2963	0.8962	0.6203	0.063
Mof_C 	C 	0.4275	0.8856	0.60385	-0.028
Mof_H 	H 	0.458	0.8904	0.6224	0.039
Mof_C 	C 	0.48179	0.8743	0.57715	-0.048
Mof_H 	H 	0.5475	0.8694	0.5785	0.047
Mof_C 	C 	0.439	0.87053	0.54966	-0.042
Mof_H 	H 	0.4758	0.8645	0.5323	0.056
Mof_C 	C 	0.33794	0.87579	0.54717	-0.019
Mof_C 	C 	0.06082	0.92945	0.63835	0.086
Mof_H 	H 	0.0339	0.9683	0.6531	-0.011
Mof_C 	C 	0.10479	0.80556	0.61512	0.086
Mof_H 	H 	0.1164	0.743	0.6095	-0.011
Mof_N 	N 	0.8455	0.36789	0.99249	-0.101
Mof_N 	N 	0.87705	0.44881	0.97902	-0.091
Mof_N 	N 	0.92828	0.32102	0.9541	-0.237
Mof_N 	N 	0.63048	0.38184	0.0995	-0.105
Mof_N 	N 	0.60293	0.46271	0.11414	-0.094
Mof_N 	N 	0.55997	0.33262	0.14003	-0.243
Mof_C 	C 	0.92585	0.41684	0.95596	0.092
Mof_H 	H 	0.9561	0.4564	0.9421	-0.004
Mof_C 	C 	0.87699	0.29273	0.97747	0.098
Mof_H 	H 	0.8649	0.2298	0.9826	-0.005
Mof_C 	C 	0.78933	0.37215	0.01965	0.024
Mof_C 	C 	0.69033	0.3745	0.01704	0.012
Mof_C 	C 	0.64157	0.37099	0.98881	-0.062
Mof_H 	H 	0.676	0.3678	0.9709	0.061
Mof_C 	C 	0.54517	0.3723	0.9879	-0.026
Mof_H 	H 	0.5142	0.3698	0.9693	0.043
Mof_C 	C 	0.49105	0.3773	0.01501	-0.038
Mof_H 	H 	0.4251	0.378	0.014	0.048
Mof_C 	C 	0.5344	0.381	0.04235	-0.046
Mof_H 	H 	0.4981	0.3845	0.0599	0.056
Mof_C 	C 	0.63552	0.37961	0.04437	-0.008
Mof_C 	C 	0.68424	0.38318	0.07178	0.048
Mof_C 	C 	0.78306	0.38318	0.07431	-0.028
Mof_C 	C 	0.83117	0.38944	0.10256	-0.011
Mof_H 	H 	0.7963	0.3962	0.1203	0.042
Mof_C 	C 	0.9275	0.3856	0.10385	-0.107
Mof_H 	H 	0.958	0.3904	0.1224	0.075
Mof_C 	C 	0.98179	0.3743	0.07715	0.069
Mof_H 	H 	0.0475	0.3694	0.0785	-0.008
Mof_C 	C 	0.939	0.37053	0.04966	-0.117
Mof_H 	H 	0.9758	0.3645	0.0323	0.091
Mof_C 	C 	0.83794	0.37579	0.04717	0.035
Mof_C 	C 	0.56082	0.42945	0.13835	0.089
Mof_H 	H 	0.5339	0.4683	0.1531	-0.008
Mof_C 	C 	0.60479	0.30556	0.11512	0.093
Mof_H 	H 	0.6164	0.243	0.1095	-0.012
Mof_N 	N 	0.1545	0.13211	0.99249	-0.106
Mof_N 	N 	0.12295	0.05119	0.97902	-0.097
Mof_N 	N 	0.07172	0.17898	0.9541	-0.247
Mof_N 	N 	0.36952	0.11816	0.0995	-0.101
Mof_N 	N 	0.39707	0.03729	0.11414	-0.095
Mof_N 	N 	0.44003	0.16738	0.14003	-0.242
Mof_C 	C 	0.07415	0.08316	0.95596	0.089
Mof_H 	H 	0.0439	0.0436	0.9421	-0.017
Mof_C 	C 	0.12301	0.20727	0.97747	0.095
Mof_H 	H 	0.1351	0.2702	0.9826	-0.013
Mof_C 	C 	0.21067	0.12785	0.01965	0.048
Mof_C 	C 	0.30967	0.1255	0.01704	-0.007
Mof_C 	C 	0.35843	0.12901	0.98881	-0.048
Mof_H 	H 	0.324	0.1322	0.9709	0.056
Mof_C 	C 	0.45483	0.1277	0.9879	-0.039
Mof_H 	H 	0.4858	0.1302	0.9693	0.047
Mof_C 	C 	0.50895	0.1227	0.01501	-0.026
Mof_H 	H 	0.5749	0.122	0.014	0.045
Mof_C 	C 	0.4656	0.119	0.04235	-0.06
Mof_H 	H 	0.5019	0.1155	0.0599	0.062
Mof_C 	C 	0.36448	0.12039	0.04437	0.01
Mof_C 	C 	0.31576	0.11682	0.07178	0.024
Mof_C 	C 	0.21694	0.11682	0.07431	0.026
Mof_C 	C 	0.16883	0.11056	0.10256	-0.1
Mof_H 	H 	0.2037	0.1038	0.1203	0.071
Mof_C 	C 	0.0725	0.1144	0.10385	0.018
Mof_H 	H 	0.042	0.1096	0.1224	0.015
Mof_C 	C 	0.01821	0.1257	0.07715	-0.132
Mof_H 	H 	0.9525	0.1306	0.0785	0.09
Mof_C 	C 	0.061	0.12947	0.04966	-0.001
Mof_H 	H 	0.0242	0.1355	0.0323	0.034
Mof_C 	C 	0.16206	0.12421	0.04717	-0.03
Mof_C 	C 	0.43918	0.07055	0.13835	0.088
Mof_H 	H 	0.4661	0.0317	0.1531	-0.008
Mof_C 	C 	0.39521	0.19444	0.11512	0.091
Mof_H 	H 	0.3836	0.257	0.1095	-0.011
Mof_N 	N 	0.6545	0.63211	0.49249	-0.099
Mof_N 	N 	0.62295	0.55119	0.47902	-0.094
Mof_N 	N 	0.57172	0.67898	0.4541	-0.243
Mof_N 	N 	0.86952	0.61816	0.5995	-0.108
Mof_N 	N 	0.89707	0.53729	0.61414	-0.092
Mof_N 	N 	0.94003	0.66738	0.64003	-0.238
Mof_C 	C 	0.57415	0.58316	0.45596	0.09
Mof_H 	H 	0.5439	0.5436	0.4421	-0.011
Mof_C 	C 	0.62301	0.70727	0.47747	0.094
Mof_H 	H 	0.6351	0.7702	0.4826	-0.008
Mof_C 	C 	0.71067	0.62785	0.51965	0.011
Mof_C 	C 	0.80967	0.6255	0.51704	0.061
Mof_C 	C 	0.85843	0.62901	0.48881	-0.14
Mof_H 	H 	0.824	0.6322	0.4709	0.09
Mof_C 	C 	0.95483	0.6277	0.4879	0.094
Mof_H 	H 	0.9858	0.6302	0.4693	0.008
Mof_C 	C 	0.00895	0.6227	0.51501	-0.195
Mof_H 	H 	0.0749	0.622	0.514	0.1
Mof_C 	C 	0.9656	0.619	0.54235	0.104
Mof_H 	H 	0.0019	0.6155	0.5599	-0.009
Mof_C 	C 	0.86448	0.62039	0.54437	-0.071
Mof_C 	C 	0.81576	0.61682	0.57178	0.07
Mof_C 	C 	0.71694	0.61682	0.57431	-0.024
Mof_C 	C 	0.66883	0.61056	0.60256	-0.037
Mof_H 	H 	0.7037	0.6038	0.6203	0.05
Mof_C 	C 	0.5725	0.6144	0.60385	-0.06
Mof_H 	H 	0.542	0.6096	0.6224	0.05
Mof_C 	C 	0.51821	0.6257	0.57715	-0.017
Mof_H 	H 	0.4525	0.6306	0.5785	0.036
Mof_C 	C 	0.561	0.62947	0.54966	-0.075
Mof_H 	H 	0.5242	0.6355	0.5323	0.068
Mof_C 	C 	0.66206	0.62421	0.54717	0.023
Mof_C 	C 	0.93918	0.57055	0.63835	0.092
Mof_H 	H 	0.9661	0.5317	0.6531	-0.003
Mof_C 	C 	0.89521	0.69444	0.61512	0.098
Mof_H 	H 	0.8836	0.757	0.6095	-0.01
Mof_Cu	Cu	0.5	0.25	0.17191	0.854
Mof_Cu	Cu	7.90659e-33	0.75	0.67191	0.846
Mof_Cu	Cu	0.5	0.75	0.42191	0.854
Mof_Cu	Cu	1.08484e-32	0.25	0.92191	0.844
Mof_N 	N 	0.38211	0.5955	0.75751	-0.104
Mof_N 	N 	0.30119	0.62705	0.77098	-0.095
Mof_N 	N 	0.42898	0.67828	0.7959	-0.243
Mof_N 	N 	0.36816	0.38048	0.6505	-0.103
Mof_N 	N 	0.28729	0.35293	0.63586	-0.096
Mof_N 	N 	0.41738	0.30997	0.60997	-0.242
Mof_C 	C 	0.33316	0.67585	0.79404	0.09
Mof_H 	H 	0.2936	0.7061	0.8079	-0.011
Mof_C 	C 	0.45727	0.62699	0.77253	0.096
Mof_H 	H 	0.5202	0.6149	0.7674	-0.01
Mof_C 	C 	0.37785	0.53933	0.73035	0.035
Mof_C 	C 	0.3755	0.44033	0.73296	0.002
Mof_C 	C 	0.37901	0.39157	0.76119	-0.055
Mof_H 	H 	0.3822	0.426	0.7791	0.058
Mof_C 	C 	0.3777	0.29517	0.7621	-0.033
Mof_H 	H 	0.3802	0.2642	0.7807	0.045
Mof_C 	C 	0.3727	0.24105	0.73499	-0.032
Mof_H 	H 	0.372	0.1751	0.736	0.047
Mof_C 	C 	0.369	0.2844	0.70765	-0.053
Mof_H 	H 	0.3655	0.2481	0.6901	0.059
Mof_C 	C 	0.37039	0.38552	0.70563	0.001
Mof_C 	C 	0.36682	0.43424	0.67822	0.035
Mof_C 	C 	0.36682	0.53306	0.67569	-0.002
Mof_C 	C 	0.36056	0.58117	0.64744	-0.056
Mof_H 	H 	0.3538	0.5463	0.6297	0.056
Mof_C 	C 	0.3644	0.6775	0.64615	-0.044
Mof_H 	H 	0.3596	0.708	0.6276	0.044
Mof_C 	C 	0.3757	0.73179	0.67285	-0.032
Mof_H 	H 	0.3806	0.7975	0.6715	0.042
Mof_C 	C 	0.37947	0.689	0.70034	-0.059
Mof_H 	H 	0.3855	0.7258	0.7177	0.062
Mof_C 	C 	0.37421	0.58794	0.70283	0.002
Mof_C 	C 	0.32055	0.31082	0.61165	0.088
Mof_H 	H 	0.2817	0.2839	0.5969	-0.009
Mof_C 	C 	0.44444	0.35479	0.63488	0.092
Mof_H 	H 	0.507	0.3664	0.6405	-0.011
Mof_N 	N 	0.88211	0.0955	0.25751	-0.11
Mof_N 	N 	0.80119	0.12705	0.27098	-0.094
Mof_N 	N 	0.92898	0.17828	0.2959	-0.245
Mof_N 	N 	0.86816	0.88048	0.1505	-0.11
Mof_N 	N 	0.78729	0.85293	0.13586	-0.095
Mof_N 	N 	0.91738	0.80997	0.10997	-0.244
Mof_C 	C 	0.83316	0.17585	0.29404	0.09
Mof_H 	H 	0.7936	0.2061	0.3079	-0.01
Mof_C 	C 	0.95727	0.12699	0.27253	0.137
Mof_H 	H 	0.0202	0.1149	0.2674	-0.038
Mof_C 	C 	0.87785	0.03933	0.23035	0.041
Mof_C 	C 	0.8755	0.94033	0.23296	0.002
Mof_C 	C 	0.87901	0.89157	0.26119	-0.051
Mof_H 	H 	0.8822	0.926	0.2791	0.059
Mof_C 	C 	0.8777	0.79517	0.2621	-0.031
Mof_H 	H 	0.8802	0.7642	0.2807	0.048
Mof_C 	C 	0.8727	0.74105	0.23499	-0.029
Mof_H 	H 	0.872	0.6751	0.236	0.049
Mof_C 	C 	0.869	0.7844	0.20765	-0.051
Mof_H 	H 	0.8655	0.7481	0.1901	0.061
Mof_C 	C 	0.87039	0.88552	0.20563	0.003
Mof_C 	C 	0.86682	0.93424	0.17822	0.039
Mof_C 	C 	0.86682	0.03306	0.17569	0.001
Mof_C 	C 	0.86056	0.08117	0.14744	-0.053
Mof_H 	H 	0.8538	0.0463	0.1297	0.058
Mof_C 	C 	0.8644	0.1775	0.14615	-0.04
Mof_H 	H 	0.8596	0.208	0.1276	0.045
Mof_C 	C 	0.8757	0.23179	0.17285	-0.031
Mof_H 	H 	0.8806	0.2975	0.1715	0.045
Mof_C 	C 	0.87947	0.189	0.20034	-0.054
Mof_H 	H 	0.8855	0.2258	0.2177	0.064
Mof_C 	C 	0.87421	0.08794	0.20283	0.002
Mof_C 	C 	0.82055	0.81082	0.11165	0.088
Mof_H 	H 	0.7817	0.7839	0.0969	-0.006
Mof_C 	C 	0.94444	0.85479	0.13488	0.135
Mof_H 	H 	0.007	0.8664	0.1405	-0.041
Mof_N 	N 	0.11789	0.4045	0.25751	-0.097
Mof_N 	N 	0.19881	0.37295	0.27098	-0.094
Mof_N 	N 	0.07102	0.32172	0.2959	-0.239
Mof_N 	N 	0.13184	0.61952	0.1505	-0.096
Mof_N 	N 	0.21271	0.64707	0.13586	-0.095
Mof_N 	N 	0.08262	0.69003	0.10997	-0.238
Mof_C 	C 	0.16684	0.32415	0.29404	0.09
Mof_H 	H 	0.2064	0.2939	0.3079	-0.012
Mof_C 	C 	0.04273	0.37301	0.27253	0.056
Mof_H 	H 	0.9798	0.3851	0.2674	0.02
Mof_C 	C 	0.12215	0.46067	0.23035	0.031
Mof_C 	C 	0.1245	0.55967	0.23296	0.001
Mof_C 	C 	0.12099	0.60843	0.26119	-0.057
Mof_H 	H 	0.1178	0.574	0.2791	0.057
Mof_C 	C 	0.1223	0.70483	0.2621	-0.034
Mof_H 	H 	0.1198	0.7358	0.2807	0.042
Mof_C 	C 	0.1273	0.75895	0.23499	-0.034
Mof_H 	H 	0.128	0.8249	0.236	0.043
Mof_C 	C 	0.131	0.7156	0.20765	-0.056
Mof_H 	H 	0.1345	0.7519	0.1901	0.058
Mof_C 	C 	0.12961	0.61448	0.20563	0
Mof_C 	C 	0.13318	0.56576	0.17822	0.031
Mof_C 	C 	0.13318	0.46694	0.17569	-0.002
Mof_C 	C 	0.13944	0.41883	0.14744	-0.059
Mof_H 	H 	0.1462	0.4537	0.1297	0.056
Mof_C 	C 	0.1356	0.3225	0.14615	-0.047
Mof_H 	H 	0.1404	0.292	0.1276	0.044
Mof_C 	C 	0.1243	0.26821	0.17285	-0.034
Mof_H 	H 	0.1194	0.2025	0.1715	0.039
Mof_C 	C 	0.12053	0.311	0.20034	-0.062
Mof_H 	H 	0.1145	0.2742	0.2177	0.06
Mof_C 	C 	0.12579	0.41206	0.20283	0.001
Mof_C 	C 	0.17945	0.68918	0.11165	0.089
Mof_H 	H 	0.2183	0.7161	0.0969	-0.008
Mof_C 	C 	0.05556	0.64521	0.13488	0.048
Mof_H 	H 	0.993	0.6336	0.1405	0.02
Mof_N 	N 	0.61789	0.9045	0.75751	-0.104
Mof_N 	N 	0.69881	0.87295	0.77098	-0.093
Mof_N 	N 	0.57102	0.82172	0.7959	-0.243
Mof_N 	N 	0.63184	0.11952	0.6505	-0.103
Mof_N 	N 	0.71271	0.14707	0.63586	-0.093
Mof_N 	N 	0.58262	0.19003	0.60997	-0.242
Mof_C 	C 	0.66684	0.82415	0.79404	0.09
Mof_H 	H 	0.7064	0.7939	0.8079	-0.011
Mof_C 	C 	0.54273	0.87301	0.77253	0.096
Mof_H 	H 	0.4798	0.8851	0.7674	-0.009
Mof_C 	C 	0.62215	0.96067	0.73035	0.036
Mof_C 	C 	0.6245	0.05967	0.73296	0.002
Mof_C 	C 	0.62099	0.10843	0.76119	-0.055
Mof_H 	H 	0.6178	0.074	0.7791	0.059
Mof_C 	C 	0.6223	0.20483	0.7621	-0.032
Mof_H 	H 	0.6198	0.2358	0.7807	0.045
Mof_C 	C 	0.6273	0.25895	0.73499	-0.032
Mof_H 	H 	0.628	0.3249	0.736	0.046
Mof_C 	C 	0.631	0.2156	0.70765	-0.053
Mof_H 	H 	0.6345	0.2519	0.6901	0.059
Mof_C 	C 	0.62961	0.11448	0.70563	0.002
Mof_C 	C 	0.63318	0.06576	0.67822	0.036
Mof_C 	C 	0.63318	0.96694	0.67569	-0.001
Mof_C 	C 	0.63944	0.91883	0.64744	-0.055
Mof_H 	H 	0.6462	0.9537	0.6297	0.057
Mof_C 	C 	0.6356	0.8225	0.64615	-0.043
Mof_H 	H 	0.6404	0.792	0.6276	0.044
Mof_C 	C 	0.6243	0.76821	0.67285	-0.032
Mof_H 	H 	0.6194	0.7025	0.6715	0.042
Mof_C 	C 	0.62053	0.811	0.70034	-0.058
Mof_H 	H 	0.6145	0.7742	0.7177	0.062
Mof_C 	C 	0.62579	0.91206	0.70283	0.002
Mof_C 	C 	0.67945	0.18918	0.61165	0.089
Mof_H 	H 	0.7183	0.2161	0.5969	-0.007
Mof_C 	C 	0.55556	0.14521	0.63488	0.092
Mof_H 	H 	0.493	0.1336	0.6405	-0.011
Mof_N 	N 	0.6545	0.13211	0.50751	-0.099
Mof_N 	N 	0.62295	0.05119	0.52098	-0.094
Mof_N 	N 	0.57172	0.17898	0.5459	-0.243
Mof_N 	N 	0.86952	0.11816	0.4005	-0.108
Mof_N 	N 	0.89707	0.03729	0.38586	-0.092
Mof_N 	N 	0.94003	0.16738	0.35997	-0.238
Mof_C 	C 	0.57415	0.08316	0.54404	0.09
Mof_H 	H 	0.5439	0.0436	0.5579	-0.011
Mof_C 	C 	0.62301	0.20727	0.52253	0.094
Mof_H 	H 	0.6351	0.2702	0.5174	-0.008
Mof_C 	C 	0.71067	0.12785	0.48035	0.011
Mof_C 	C 	0.80967	0.1255	0.48296	0.061
Mof_C 	C 	0.85843	0.12901	0.51119	-0.14
Mof_H 	H 	0.824	0.1322	0.5291	0.089
Mof_C 	C 	0.95483	0.1277	0.5121	0.094
Mof_H 	H 	0.9858	0.1302	0.5307	0.008
Mof_C 	C 	0.00895	0.1227	0.48499	-0.195
Mof_H 	H 	0.0749	0.122	0.486	0.1
Mof_C 	C 	0.9656	0.119	0.45765	0.104
Mof_H 	H 	0.0019	0.1155	0.4401	-0.009
Mof_C 	C 	0.86448	0.12039	0.45563	-0.071
Mof_C 	C 	0.81576	0.11682	0.42822	0.07
Mof_C 	C 	0.71694	0.11682	0.42569	-0.024
Mof_C 	C 	0.66883	0.11056	0.39744	-0.038
Mof_H 	H 	0.7037	0.1038	0.3797	0.05
Mof_C 	C 	0.5725	0.1144	0.39615	-0.06
Mof_H 	H 	0.542	0.1096	0.3776	0.05
Mof_C 	C 	0.51821	0.1257	0.42285	-0.017
Mof_H 	H 	0.4525	0.1306	0.4215	0.036
Mof_C 	C 	0.561	0.12947	0.45034	-0.075
Mof_H 	H 	0.5242	0.1355	0.4677	0.068
Mof_C 	C 	0.66206	0.12421	0.45283	0.023
Mof_C 	C 	0.93918	0.07055	0.36165	0.092
Mof_H 	H 	0.9661	0.0317	0.3469	-0.003
Mof_C 	C 	0.89521	0.19444	0.38488	0.098
Mof_H 	H 	0.8836	0.257	0.3905	-0.01
Mof_N 	N 	0.1545	0.63211	0.00751	-0.106
Mof_N 	N 	0.12295	0.55119	0.02098	-0.097
Mof_N 	N 	0.07172	0.67898	0.0459	-0.247
Mof_N 	N 	0.36952	0.61816	0.9005	-0.101
Mof_N 	N 	0.39707	0.53729	0.88586	-0.095
Mof_N 	N 	0.44003	0.66738	0.85997	-0.242
Mof_C 	C 	0.07415	0.58316	0.04404	0.089
Mof_H 	H 	0.0439	0.5436	0.0579	-0.017
Mof_C 	C 	0.12301	0.70727	0.02253	0.095
Mof_H 	H 	0.1351	0.7702	0.0174	-0.013
Mof_C 	C 	0.21067	0.62785	0.98035	0.048
Mof_C 	C 	0.30967	0.6255	0.98296	-0.007
Mof_C 	C 	0.35843	0.62901	0.01119	-0.048
Mof_H 	H 	0.324	0.6322	0.0291	0.056
Mof_C 	C 	0.45483	0.6277	0.0121	-0.039
Mof_H 	H 	0.4858	0.6302	0.0307	0.047
Mof_C 	C 	0.50895	0.6227	0.98499	-0.026
Mof_H 	H 	0.5749	0.622	0.986	0.045
Mof_C 	C 	0.4656	0.619	0.95765	-0.06
Mof_H 	H 	0.5019	0.6155	0.9401	0.062
Mof_C 	C 	0.36448	0.62039	0.95563	0.01
Mof_C 	C 	0.31576	0.61682	0.92822	0.024
Mof_C 	C 	0.21694	0.61682	0.92569	0.026
Mof_C 	C 	0.16883	0.61056	0.89744	-0.1
Mof_H 	H 	0.2037	0.6038	0.8797	0.072
Mof_C 	C 	0.0725	0.6144	0.89615	0.019
Mof_H 	H 	0.042	0.6096	0.8776	0.015
Mof_C 	C 	0.01821	0.6257	0.92285	-0.133
Mof_H 	H 	0.9525	0.6306	0.9215	0.09
Mof_C 	C 	0.061	0.62947	0.95034	-0
Mof_H 	H 	0.0242	0.6355	0.9677	0.033
Mof_C 	C 	0.16206	0.62421	0.95283	-0.03
Mof_C 	C 	0.43918	0.57055	0.86165	0.088
Mof_H 	H 	0.4661	0.5317	0.8469	-0.008
Mof_C 	C 	0.39521	0.69444	0.88488	0.091
Mof_H 	H 	0.3836	0.757	0.8905	-0.011
Mof_N 	N 	0.8455	0.86789	0.00751	-0.101
Mof_N 	N 	0.87705	0.94881	0.02098	-0.092
Mof_N 	N 	0.92828	0.82102	0.0459	-0.237
Mof_N 	N 	0.63048	0.88184	0.9005	-0.105
Mof_N 	N 	0.60293	0.96271	0.88586	-0.094
Mof_N 	N 	0.55997	0.83262	0.85997	-0.243
Mof_C 	C 	0.92585	0.91684	0.04404	0.092
Mof_H 	H 	0.9561	0.9564	0.0579	-0.004
Mof_C 	C 	0.87699	0.79273	0.02253	0.098
Mof_H 	H 	0.8649	0.7298	0.0174	-0.005
Mof_C 	C 	0.78933	0.87215	0.98035	0.024
Mof_C 	C 	0.69033	0.8745	0.98296	0.011
Mof_C 	C 	0.64157	0.87099	0.01119	-0.062
Mof_H 	H 	0.676	0.8678	0.0291	0.061
Mof_C 	C 	0.54517	0.8723	0.0121	-0.026
Mof_H 	H 	0.5142	0.8698	0.0307	0.042
Mof_C 	C 	0.49105	0.8773	0.98499	-0.038
Mof_H 	H 	0.4251	0.878	0.986	0.048
Mof_C 	C 	0.5344	0.881	0.95765	-0.046
Mof_H 	H 	0.4981	0.8845	0.9401	0.056
Mof_C 	C 	0.63552	0.87961	0.95563	-0.008
Mof_C 	C 	0.68424	0.88318	0.92822	0.048
Mof_C 	C 	0.78306	0.88318	0.92569	-0.028
Mof_C 	C 	0.83117	0.88944	0.89744	-0.011
Mof_H 	H 	0.7963	0.8962	0.8797	0.042
Mof_C 	C 	0.9275	0.8856	0.89615	-0.106
Mof_H 	H 	0.958	0.8904	0.8776	0.074
Mof_C 	C 	0.98179	0.8743	0.92285	0.068
Mof_H 	H 	0.0475	0.8694	0.9215	-0.007
Mof_C 	C 	0.939	0.87053	0.95034	-0.117
Mof_H 	H 	0.9758	0.8645	0.9677	0.091
Mof_C 	C 	0.83794	0.87579	0.95283	0.034
Mof_C 	C 	0.56082	0.92945	0.86165	0.089
Mof_H 	H 	0.5339	0.9683	0.8469	-0.008
Mof_C 	C 	0.60479	0.80556	0.88488	0.093
Mof_H 	H 	0.6164	0.743	0.8905	-0.012
Mof_N 	N 	0.3455	0.36789	0.50751	-0.108
Mof_N 	N 	0.37705	0.44881	0.52098	-0.094
Mof_N 	N 	0.42828	0.32102	0.5459	-0.244
Mof_N 	N 	0.13048	0.38184	0.4005	-0.099
Mof_N 	N 	0.10293	0.46271	0.38586	-0.097
Mof_N 	N 	0.05997	0.33262	0.35997	-0.245
Mof_C 	C 	0.42585	0.41684	0.54404	0.09
Mof_H 	H 	0.4561	0.4564	0.5579	-0.011
Mof_C 	C 	0.37699	0.29273	0.52253	0.098
Mof_H 	H 	0.3649	0.2298	0.5174	-0.011
Mof_C 	C 	0.28933	0.37215	0.48035	0.061
Mof_C 	C 	0.19033	0.3745	0.48296	-0.057
Mof_C 	C 	0.14157	0.37099	0.51119	0.031
Mof_H 	H 	0.176	0.3678	0.5291	0.027
Mof_C 	C 	0.04517	0.3723	0.5121	-0.16
Mof_H 	H 	0.0142	0.3698	0.5307	0.083
Mof_C 	C 	0.99105	0.3773	0.48499	0.133
Mof_H 	H 	0.9251	0.378	0.486	-0.008
Mof_C 	C 	0.0344	0.381	0.45765	-0.212
Mof_H 	H 	0.9981	0.3845	0.4401	0.128
Mof_C 	C 	0.13552	0.37961	0.45563	0.075
Mof_C 	C 	0.18424	0.38318	0.42822	0.001
Mof_C 	C 	0.28306	0.38318	0.42569	0.022
Mof_C 	C 	0.33117	0.38944	0.39744	-0.074
Mof_H 	H 	0.2963	0.3962	0.3797	0.064
Mof_C 	C 	0.4275	0.3856	0.39615	-0.028
Mof_H 	H 	0.458	0.3904	0.3776	0.039
Mof_C 	C 	0.48179	0.3743	0.42285	-0.048
Mof_H 	H 	0.5475	0.3694	0.4215	0.047
Mof_C 	C 	0.439	0.37053	0.45034	-0.041
Mof_H 	H 	0.4758	0.3645	0.4677	0.056
Mof_C 	C 	0.33794	0.37579	0.45283	-0.02
Mof_C 	C 	0.06082	0.42945	0.36165	0.086
Mof_H 	H 	0.0339	0.4683	0.3469	-0.011
Mof_C 	C 	0.10479	0.30556	0.38488	0.086
Mof_H 	H 	0.1164	0.243	0.3905	-0.011
Mof_Cu	Cu	0.5	0.75	0.82809	0.854
Mof_Cu	Cu	3.86074e-33	0.25	0.32809	0.846
Mof_Cu	Cu	0.5	0.25	0.57809	0.854
Mof_Cu	Cu	9.18911e-34	0.75	0.07809	0.845
_end
