data_functionalizedCrystal
_audit_creation_method	'EQeq! by Chris Wilmer'
_symmetry_space_group_name_H-M	'P1'
_symmetry_Int_Tables_number	1
_symmetry_cell_setting	triclinic
loop_
_symmetry_equiv_pos_as_xyz
  x,y,z
_cell_length_a	15.0882
_cell_length_b	16.1848
_cell_length_c	27.4294
_cell_angle_alpha	90
_cell_angle_beta	105.479
_cell_angle_gamma	90
loop_
_atom_site_label
_atom_site_type_symbol
_atom_site_fract_x
_atom_site_fract_y
_atom_site_fract_z
_atom_site_charge
Mof_W 	W 	0.56264	0.22443	0.45023	0.976
Mof_W 	W 	0.75176	0.28142	0.39216	1.006
Mof_W 	W 	0.58577	0.23358	0.57486	1.005
Mof_W 	W 	0.93359	0.36755	0.47611	1.335
Mof_W 	W 	0.89766	0.15965	0.47664	0.965
Mof_W 	W 	0.95847	0.37717	0.61118	0.983
Mof_W 	W 	0.80208	0.30248	0.66761	0.992
Mof_W 	W 	0.70639	0.09371	0.52814	0.982
Mof_W 	W 	0.92098	0.16891	0.61508	0.96
Mof_W 	W 	0.5948	0.43922	0.41777	1.372
Mof_W 	W 	0.37207	0.54726	0.39692	1.381
Mof_Nd	Nd	0.80234	0.56564	0.52554	1.968
Mof_Nd	Nd	0.65099	0.71733	0.26197	1.543
Mof_As	As	0.75749	0.32239	0.5274	0.405
Mof_P 	P 	0.517	0.5671	0.32277	0.462
Mof_P 	P 	0.4124	0.4105	0.31616	0.444
Mof_O 	O 	0.6856	0.3812	0.3949	-0.49
Mof_O 	O 	0.9126	0.3633	0.6713	-0.468
Mof_O 	O 	0.8196	0.2845	0.4836	-0.379
Mof_O 	O 	0.4997	0.3783	0.3554	-0.39
Mof_O 	O 	0.9335	0.1605	0.5483	-0.47
Mof_O 	O 	0.3496	0.4578	0.3435	-0.417
Mof_O 	O 	0.4859	0.4935	0.4243	-0.52
Mof_O 	O 	0.6157	0.1225	0.5671	-0.447
Mof_O 	O 	0.402	0.6449	0.4317	-0.479
Mof_O 	O 	0.8619	0.342	0.4058	-0.487
Mof_O 	O 	0.836	0.2931	0.5858	-0.351
Mof_O 	O 	0.8683	0.4546	0.4822	-0.59
Mof_O 	O 	0.4455	0.6038	0.347	-0.377
Mof_O 	O 	0.866	0.201	0.6684	-0.465
Mof_O 	O 	0.9757	0.244	0.4721	-0.482
Mof_O 	O 	0.7827	0.1078	0.4871	-0.45
Mof_O 	O 	0.5099	0.2374	0.506	-0.468
Mof_O 	O 	0.685	0.2339	0.5232	-0.35
Mof_O 	O 	0.9795	0.3506	0.5464	-0.513
Mof_O 	O 	0.5767	0.3453	0.4524	-0.48
Mof_O 	O 	0.652	0.2316	0.4125	-0.454
Mof_O 	O 	0.5946	0.5228	0.3635	-0.417
Mof_O 	O 	0.8199	0.1824	0.4099	-0.467
Mof_O 	O 	0.0035	0.2548	0.6302	-0.465
Mof_O 	O 	0.8008	0.1149	0.5845	-0.458
Mof_O 	O 	0.3596	0.3444	0.2823	-0.509
Mof_O 	O 	0.2665	0.5998	0.3542	-0.491
Mof_O 	O 	0.6728	0.4924	0.4649	-0.604
Mof_O 	O 	0.8851	0.4596	0.5864	-0.554
Mof_O 	O 	0.6929	0.248	0.6298	-0.444
Mof_O 	O 	0.0305	0.4059	0.4613	-0.64
Mof_O 	O 	0.313	0.4991	0.4339	-0.607
Mof_O 	O 	0.5564	0.6302	0.2938	-0.489
Mof_O 	O 	0.5976	0.1163	0.4702	-0.454
Mof_O 	O 	0.521	0.4497	0.2565	-0.401
Mof_H 	H 	0.4955	0.4117	0.2383	0.23
Mof_C 	C 	0.4551	0.4888	0.2806	0.052
Mof_C 	C 	0.3758	0.5269	0.2416	-0.437
Mof_H 	H 	0.334	0.5519	0.2583	0.139
Mof_H 	H 	0.3986	0.5682	0.223	0.132
Mof_H 	H 	0.3442	0.4848	0.2188	0.137
Mof_O 	O 	0.618	0.7888	0.3266	-0.349
Mof_O 	O 	0.5556	0.822	0.3064	-0.153
Mof_W 	W 	0.43736	0.72443	0.04977	0.975
Mof_W 	W 	0.24824	0.78142	0.10784	1.005
Mof_W 	W 	0.41423	0.73358	0.92514	1.005
Mof_W 	W 	0.06641	0.86755	0.02389	1.335
Mof_W 	W 	0.10234	0.65965	0.02336	0.966
Mof_W 	W 	0.04153	0.87717	0.88882	0.982
Mof_W 	W 	0.19792	0.80248	0.83239	0.992
Mof_W 	W 	0.29361	0.59371	0.97186	0.982
Mof_W 	W 	0.07902	0.66891	0.88492	0.96
Mof_W 	W 	0.4052	0.93922	0.08223	1.372
Mof_W 	W 	0.62793	0.04726	0.10308	1.382
Mof_Nd	Nd	0.19766	0.06564	0.97446	1.968
Mof_Nd	Nd	0.34901	0.21733	0.23803	1.543
Mof_As	As	0.24251	0.82239	0.9726	0.405
Mof_P 	P 	0.483	0.0671	0.17723	0.462
Mof_P 	P 	0.5876	0.9105	0.18384	0.444
Mof_O 	O 	0.3144	0.8812	0.1051	-0.49
Mof_O 	O 	0.0874	0.8633	0.8287	-0.468
Mof_O 	O 	0.1804	0.7845	0.0164	-0.379
Mof_O 	O 	0.5003	0.8783	0.1446	-0.39
Mof_O 	O 	0.0665	0.6605	0.9517	-0.47
Mof_O 	O 	0.6504	0.9578	0.1565	-0.417
Mof_O 	O 	0.5141	0.9935	0.0757	-0.52
Mof_O 	O 	0.3843	0.6225	0.9329	-0.447
Mof_O 	O 	0.598	0.1449	0.0683	-0.479
Mof_O 	O 	0.1381	0.842	0.0942	-0.487
Mof_O 	O 	0.164	0.7931	0.9142	-0.351
Mof_O 	O 	0.1317	0.9546	0.0178	-0.59
Mof_O 	O 	0.5545	0.1038	0.153	-0.377
Mof_O 	O 	0.134	0.701	0.8316	-0.465
Mof_O 	O 	0.0243	0.744	0.0279	-0.482
Mof_O 	O 	0.2173	0.6078	0.0129	-0.45
Mof_O 	O 	0.4901	0.7374	0.994	-0.468
Mof_O 	O 	0.315	0.7339	0.9768	-0.35
Mof_O 	O 	0.0205	0.8506	0.9536	-0.513
Mof_O 	O 	0.4233	0.8453	0.0476	-0.48
Mof_O 	O 	0.348	0.7316	0.0875	-0.454
Mof_O 	O 	0.4054	0.0228	0.1365	-0.417
Mof_O 	O 	0.1801	0.6824	0.0901	-0.467
Mof_O 	O 	0.9965	0.7548	0.8698	-0.465
Mof_O 	O 	0.1992	0.6149	0.9155	-0.458
Mof_O 	O 	0.6404	0.8444	0.2177	-0.509
Mof_O 	O 	0.7335	0.0998	0.1458	-0.491
Mof_O 	O 	0.3272	0.9924	0.0351	-0.604
Mof_O 	O 	0.1149	0.9596	0.9136	-0.554
Mof_O 	O 	0.3071	0.748	0.8702	-0.444
Mof_O 	O 	0.9695	0.9059	0.0387	-0.641
Mof_O 	O 	0.687	0.9991	0.0661	-0.607
Mof_O 	O 	0.4436	0.1302	0.2062	-0.489
Mof_O 	O 	0.4024	0.6163	0.0298	-0.454
Mof_O 	O 	0.479	0.9497	0.2435	-0.401
Mof_H 	H 	0.5045	0.9117	0.2617	0.23
Mof_C 	C 	0.5449	0.9888	0.2194	0.051
Mof_C 	C 	0.6242	0.0269	0.2584	-0.436
Mof_H 	H 	0.666	0.0519	0.2417	0.138
Mof_H 	H 	0.6014	0.0682	0.277	0.132
Mof_H 	H 	0.6558	0.9848	0.2812	0.136
Mof_O 	O 	0.382	0.2888	0.1734	-0.349
Mof_O 	O 	0.4444	0.322	0.1936	-0.153
Mof_W 	W 	0.43736	0.77557	0.54977	0.975
Mof_W 	W 	0.24824	0.71858	0.60784	1.005
Mof_W 	W 	0.41423	0.76642	0.42514	1.004
Mof_W 	W 	0.06641	0.63245	0.52389	1.334
Mof_W 	W 	0.10234	0.84035	0.52336	0.965
Mof_W 	W 	0.04153	0.62283	0.38882	0.983
Mof_W 	W 	0.19792	0.69752	0.33239	0.992
Mof_W 	W 	0.29361	0.90629	0.47186	0.982
Mof_W 	W 	0.07902	0.83109	0.38492	0.96
Mof_W 	W 	0.4052	0.56078	0.58223	1.372
Mof_W 	W 	0.62793	0.45274	0.60308	1.381
Mof_Nd	Nd	0.19766	0.43436	0.47446	1.968
Mof_Nd	Nd	0.34901	0.28267	0.73803	1.543
Mof_As	As	0.24251	0.67761	0.4726	0.405
Mof_P 	P 	0.483	0.4329	0.67723	0.462
Mof_P 	P 	0.5876	0.5895	0.68384	0.444
Mof_O 	O 	0.3144	0.6188	0.6051	-0.49
Mof_O 	O 	0.0874	0.6367	0.3287	-0.468
Mof_O 	O 	0.1804	0.7155	0.5164	-0.379
Mof_O 	O 	0.5003	0.6217	0.6446	-0.39
Mof_O 	O 	0.0665	0.8395	0.4517	-0.47
Mof_O 	O 	0.6504	0.5422	0.6565	-0.417
Mof_O 	O 	0.5141	0.5065	0.5757	-0.52
Mof_O 	O 	0.3843	0.8775	0.4329	-0.447
Mof_O 	O 	0.598	0.3551	0.5683	-0.479
Mof_O 	O 	0.1381	0.658	0.5942	-0.487
Mof_O 	O 	0.164	0.7069	0.4142	-0.351
Mof_O 	O 	0.1317	0.5454	0.5178	-0.59
Mof_O 	O 	0.5545	0.3962	0.653	-0.377
Mof_O 	O 	0.134	0.799	0.3316	-0.465
Mof_O 	O 	0.0243	0.756	0.5279	-0.482
Mof_O 	O 	0.2173	0.8922	0.5129	-0.45
Mof_O 	O 	0.4901	0.7626	0.494	-0.468
Mof_O 	O 	0.315	0.7661	0.4768	-0.35
Mof_O 	O 	0.0205	0.6494	0.4536	-0.513
Mof_O 	O 	0.4233	0.6547	0.5476	-0.48
Mof_O 	O 	0.348	0.7684	0.5875	-0.454
Mof_O 	O 	0.4054	0.4772	0.6365	-0.417
Mof_O 	O 	0.1801	0.8176	0.5901	-0.467
Mof_O 	O 	0.9965	0.7452	0.3698	-0.465
Mof_O 	O 	0.1992	0.8851	0.4155	-0.458
Mof_O 	O 	0.6404	0.6556	0.7177	-0.509
Mof_O 	O 	0.7335	0.4002	0.6458	-0.491
Mof_O 	O 	0.3272	0.5076	0.5351	-0.604
Mof_O 	O 	0.1149	0.5404	0.4136	-0.554
Mof_O 	O 	0.3071	0.752	0.3702	-0.444
Mof_O 	O 	0.9695	0.5941	0.5387	-0.64
Mof_O 	O 	0.687	0.5009	0.5661	-0.607
Mof_O 	O 	0.4436	0.3698	0.7062	-0.489
Mof_O 	O 	0.4024	0.8837	0.5298	-0.454
Mof_O 	O 	0.479	0.5503	0.7435	-0.401
Mof_H 	H 	0.5045	0.5883	0.7617	0.23
Mof_C 	C 	0.5449	0.5112	0.7194	0.052
Mof_C 	C 	0.6242	0.4731	0.7584	-0.437
Mof_H 	H 	0.666	0.4481	0.7417	0.139
Mof_H 	H 	0.6014	0.4318	0.777	0.132
Mof_H 	H 	0.6558	0.5152	0.7812	0.137
Mof_O 	O 	0.382	0.2112	0.6734	-0.349
Mof_O 	O 	0.4444	0.178	0.6936	-0.153
Mof_W 	W 	0.56264	0.27557	0.95023	0.975
Mof_W 	W 	0.75176	0.21858	0.89216	1.005
Mof_W 	W 	0.58577	0.26642	0.07486	1.005
Mof_W 	W 	0.93359	0.13245	0.97611	1.335
Mof_W 	W 	0.89766	0.34035	0.97664	0.966
Mof_W 	W 	0.95847	0.12283	0.11118	0.982
Mof_W 	W 	0.80208	0.19752	0.16761	0.992
Mof_W 	W 	0.70639	0.40629	0.02814	0.982
Mof_W 	W 	0.92098	0.33109	0.11508	0.96
Mof_W 	W 	0.5948	0.06078	0.91777	1.372
Mof_W 	W 	0.37207	0.95274	0.89692	1.382
Mof_Nd	Nd	0.80234	0.93436	0.02554	1.968
Mof_Nd	Nd	0.65099	0.78267	0.76197	1.543
Mof_As	As	0.75749	0.17761	0.0274	0.405
Mof_P 	P 	0.517	0.9329	0.82277	0.462
Mof_P 	P 	0.4124	0.0895	0.81616	0.444
Mof_O 	O 	0.6856	0.1188	0.8949	-0.49
Mof_O 	O 	0.9126	0.1367	0.1713	-0.468
Mof_O 	O 	0.8196	0.2155	0.9836	-0.379
Mof_O 	O 	0.4997	0.1217	0.8554	-0.39
Mof_O 	O 	0.9335	0.3395	0.0483	-0.47
Mof_O 	O 	0.3496	0.0422	0.8435	-0.417
Mof_O 	O 	0.4859	0.0065	0.9243	-0.52
Mof_O 	O 	0.6157	0.3775	0.0671	-0.447
Mof_O 	O 	0.402	0.8551	0.9317	-0.479
Mof_O 	O 	0.8619	0.158	0.9058	-0.487
Mof_O 	O 	0.836	0.2069	0.0858	-0.351
Mof_O 	O 	0.8683	0.0454	0.9822	-0.59
Mof_O 	O 	0.4455	0.8962	0.847	-0.377
Mof_O 	O 	0.866	0.299	0.1684	-0.465
Mof_O 	O 	0.9757	0.256	0.9721	-0.482
Mof_O 	O 	0.7827	0.3922	0.9871	-0.45
Mof_O 	O 	0.5099	0.2626	0.006	-0.468
Mof_O 	O 	0.685	0.2661	0.0232	-0.35
Mof_O 	O 	0.9795	0.1494	0.0464	-0.513
Mof_O 	O 	0.5767	0.1547	0.9524	-0.48
Mof_O 	O 	0.652	0.2684	0.9125	-0.454
Mof_O 	O 	0.5946	0.9772	0.8635	-0.417
Mof_O 	O 	0.8199	0.3176	0.9099	-0.467
Mof_O 	O 	0.0035	0.2452	0.1302	-0.465
Mof_O 	O 	0.8008	0.3851	0.0845	-0.458
Mof_O 	O 	0.3596	0.1556	0.7823	-0.509
Mof_O 	O 	0.2665	0.9002	0.8542	-0.491
Mof_O 	O 	0.6728	0.0076	0.9649	-0.604
Mof_O 	O 	0.8851	0.0404	0.0864	-0.554
Mof_O 	O 	0.6929	0.252	0.1298	-0.444
Mof_O 	O 	0.0305	0.0941	0.9613	-0.641
Mof_O 	O 	0.313	0.0009	0.9339	-0.607
Mof_O 	O 	0.5564	0.8698	0.7938	-0.489
Mof_O 	O 	0.5976	0.3837	0.9702	-0.454
Mof_O 	O 	0.521	0.0503	0.7565	-0.401
Mof_H 	H 	0.4955	0.0883	0.7383	0.23
Mof_C 	C 	0.4551	0.0112	0.7806	0.051
Mof_C 	C 	0.3758	0.9731	0.7416	-0.436
Mof_H 	H 	0.334	0.9481	0.7583	0.138
Mof_H 	H 	0.3986	0.9318	0.723	0.132
Mof_H 	H 	0.3442	0.0152	0.7188	0.136
Mof_O 	O 	0.618	0.7112	0.8266	-0.349
Mof_O 	O 	0.5556	0.678	0.8064	-0.153
_end
