data_functionalizedCrystal
_audit_creation_method	'EQeq! by Chris Wilmer'
_symmetry_space_group_name_H-M	'P1'
_symmetry_Int_Tables_number	1
_symmetry_cell_setting	triclinic
loop_
_symmetry_equiv_pos_as_xyz
  x,y,z
_cell_length_a	29.5937
_cell_length_b	29.5937
_cell_length_c	10.168
_cell_angle_alpha	90
_cell_angle_beta	90
_cell_angle_gamma	90
loop_
_atom_site_label
_atom_site_type_symbol
_atom_site_fract_x
_atom_site_fract_y
_atom_site_fract_z
_atom_site_charge
Mof_O 	O 	0.19521	0.19528	0.2393	-0.317
Mof_O 	O 	0.14979	0.1497	0.3502	-0.447
Mof_O 	O 	0.0477	0.04748	0.109	-0.513
Mof_C 	C 	0.14704	0.14699	0.1166	-0.093
Mof_C 	C 	0.11413	0.11449	0.1173	0.072
Mof_H 	H 	0.1028	0.1039	0.1969	0.037
Mof_C 	C 	0.16591	0.16589	0.2448	0.332
Mof_N 	N 	0.1761	0.4598	0.5702	-0.375
Mof_N 	N 	0.1763	0.5402	0.5722	-0.382
Mof_C 	C 	0.1346	0.263	0.4461	0.038
Mof_C 	C 	0.1285	0.3107	0.4332	-0.004
Mof_C 	C 	0.1899	0.4154	0.5961	0.094
Mof_C 	C 	0.1344	0.7365	0.448	0.039
Mof_C 	C 	0.1281	0.6894	0.4321	0
Mof_C 	C 	0.1957	0.6791	0.5598	-0.011
Mof_C 	C 	0.2002	0.7269	0.5771	0.026
Mof_C 	C 	0.2361	0.4058	0.6618	0.024
Mof_F 	F 	0.2452	0.5007	0.6298	-0.683
Mof_B 	B 	0.1967	0.5	0.6427	1.651
Mof_F 	F 	0.19	0.4998	0.7847	-0.687
Mof_C 	C 	0.196	0.3201	0.4406	-0.007
Mof_C 	C 	0.2001	0.2731	0.4247	0.028
Mof_C 	C 	0.1223	0.414	0.5539	-0.006
Mof_C 	C 	0.1904	0.5844	0.4037	0.1
Mof_C 	C 	0.2355	0.594	0.3382	0.024
Mof_C 	C 	0.0779	0.3996	0.5997	0.002
Mof_O 	O 	0.80479	0.80472	0.2393	-0.312
Mof_O 	O 	0.85021	0.8503	0.3502	-0.422
Mof_O 	O 	0.9523	0.95252	0.109	-0.399
Mof_C 	C 	0.85296	0.85301	0.1166	-0.06
Mof_C 	C 	0.88587	0.88551	0.1173	0.048
Mof_H 	H 	0.8972	0.8961	0.1969	0.073
Mof_C 	C 	0.83409	0.83411	0.2448	0.325
Mof_N 	N 	0.8239	0.5402	0.5702	-0.376
Mof_N 	N 	0.8237	0.4598	0.5722	-0.382
Mof_C 	C 	0.8654	0.737	0.4461	0.048
Mof_C 	C 	0.8715	0.6893	0.4332	0.01
Mof_C 	C 	0.8101	0.5846	0.5961	0.095
Mof_C 	C 	0.8656	0.2635	0.448	0.047
Mof_C 	C 	0.8719	0.3106	0.4321	0.008
Mof_C 	C 	0.8043	0.3209	0.5598	-0.01
Mof_C 	C 	0.7998	0.2731	0.5771	0.025
Mof_C 	C 	0.7639	0.5942	0.6618	0.024
Mof_F 	F 	0.7548	0.4993	0.6298	-0.684
Mof_B 	B 	0.8033	0.5	0.6427	1.654
Mof_F 	F 	0.81	0.5002	0.7847	-0.684
Mof_C 	C 	0.804	0.6799	0.4406	-0.005
Mof_C 	C 	0.7999	0.7269	0.4247	0.027
Mof_C 	C 	0.8777	0.586	0.5539	-0.016
Mof_C 	C 	0.8096	0.4156	0.4037	0.102
Mof_C 	C 	0.7645	0.406	0.3382	0.023
Mof_C 	C 	0.9221	0.6004	0.5997	0.054
Mof_O 	O 	0.80472	0.19521	0.2393	-0.314
Mof_O 	O 	0.8503	0.14979	0.3502	-0.434
Mof_O 	O 	0.95252	0.0477	0.109	-0.454
Mof_C 	C 	0.85301	0.14704	0.1166	-0.075
Mof_C 	C 	0.88551	0.11413	0.1173	0.06
Mof_H 	H 	0.8961	0.1028	0.1969	0.056
Mof_C 	C 	0.83411	0.16591	0.2448	0.329
Mof_N 	N 	0.5402	0.1761	0.5702	-0.374
Mof_N 	N 	0.4598	0.1763	0.5722	-0.381
Mof_C 	C 	0.737	0.1346	0.4461	0.04
Mof_C 	C 	0.6893	0.1285	0.4332	-0.003
Mof_C 	C 	0.5846	0.1899	0.5961	0.095
Mof_C 	C 	0.2635	0.1344	0.448	0.04
Mof_C 	C 	0.3106	0.1281	0.4321	0.001
Mof_C 	C 	0.3209	0.1957	0.5598	-0.01
Mof_C 	C 	0.2731	0.2002	0.5771	0.026
Mof_C 	C 	0.5942	0.2361	0.6618	0.024
Mof_F 	F 	0.4993	0.2452	0.6298	-0.683
Mof_B 	B 	0.5	0.1967	0.6427	1.651
Mof_F 	F 	0.5002	0.19	0.7847	-0.687
Mof_C 	C 	0.6799	0.196	0.4406	-0.007
Mof_C 	C 	0.7269	0.2001	0.4247	0.028
Mof_C 	C 	0.586	0.1223	0.5539	-0.006
Mof_C 	C 	0.4156	0.1904	0.4037	0.1
Mof_C 	C 	0.406	0.2355	0.3382	0.024
Mof_C 	C 	0.6004	0.0779	0.5997	0.002
Mof_O 	O 	0.19528	0.80479	0.2393	-0.314
Mof_O 	O 	0.1497	0.85021	0.3502	-0.435
Mof_O 	O 	0.04748	0.9523	0.109	-0.456
Mof_C 	C 	0.14699	0.85296	0.1166	-0.077
Mof_C 	C 	0.11449	0.88587	0.1173	0.06
Mof_H 	H 	0.1039	0.8972	0.1969	0.055
Mof_C 	C 	0.16589	0.83409	0.2448	0.329
Mof_N 	N 	0.4598	0.8239	0.5702	-0.376
Mof_N 	N 	0.5402	0.8237	0.5722	-0.382
Mof_C 	C 	0.263	0.8654	0.4461	0.048
Mof_C 	C 	0.3107	0.8715	0.4332	0.01
Mof_C 	C 	0.4154	0.8101	0.5961	0.095
Mof_C 	C 	0.7365	0.8656	0.448	0.048
Mof_C 	C 	0.6894	0.8719	0.4321	0.008
Mof_C 	C 	0.6791	0.8043	0.5598	-0.011
Mof_C 	C 	0.7269	0.7998	0.5771	0.025
Mof_C 	C 	0.4058	0.7639	0.6618	0.024
Mof_F 	F 	0.5007	0.7548	0.6298	-0.684
Mof_B 	B 	0.5	0.8033	0.6427	1.654
Mof_F 	F 	0.4998	0.81	0.7847	-0.684
Mof_C 	C 	0.3201	0.804	0.4406	-0.005
Mof_C 	C 	0.2731	0.7999	0.4247	0.027
Mof_C 	C 	0.414	0.8777	0.5539	-0.016
Mof_C 	C 	0.5844	0.8096	0.4037	0.102
Mof_C 	C 	0.594	0.7645	0.3382	0.023
Mof_C 	C 	0.3996	0.9221	0.5997	0.054
Mof_O 	O 	0.80479	0.80472	0.7607	-0.306
Mof_O 	O 	0.85021	0.8503	0.6498	-0.421
Mof_O 	O 	0.9523	0.95252	0.891	-0.374
Mof_C 	C 	0.85296	0.85301	0.8834	-0.037
Mof_C 	C 	0.88587	0.88551	0.8827	0.079
Mof_H 	H 	0.8972	0.8961	0.8031	0.067
Mof_C 	C 	0.83409	0.83411	0.7552	0.323
Mof_N 	N 	0.8239	0.5402	0.4298	-0.376
Mof_N 	N 	0.8237	0.4598	0.4278	-0.383
Mof_C 	C 	0.8654	0.737	0.5539	0.048
Mof_C 	C 	0.8715	0.6893	0.5668	0.008
Mof_C 	C 	0.8101	0.5846	0.4039	0.094
Mof_C 	C 	0.8656	0.2635	0.552	0.048
Mof_C 	C 	0.8719	0.3106	0.5679	0.005
Mof_C 	C 	0.8043	0.3209	0.4402	-0.007
Mof_C 	C 	0.7998	0.2731	0.4229	0.026
Mof_C 	C 	0.7639	0.5942	0.3382	0.023
Mof_F 	F 	0.7548	0.4993	0.3702	-0.687
Mof_B 	B 	0.8033	0.5	0.3573	1.654
Mof_F 	F 	0.81	0.5002	0.2153	-0.696
Mof_C 	C 	0.804	0.6799	0.5594	-0.008
Mof_C 	C 	0.7999	0.7269	0.5753	0.026
Mof_C 	C 	0.8777	0.586	0.4461	-0.018
Mof_C 	C 	0.8096	0.4156	0.5963	0.101
Mof_C 	C 	0.7645	0.406	0.6618	0.024
Mof_C 	C 	0.9221	0.6004	0.4003	0.05
Mof_O 	O 	0.19521	0.19528	0.7607	-0.31
Mof_O 	O 	0.14979	0.1497	0.6498	-0.445
Mof_O 	O 	0.0477	0.04748	0.891	-0.486
Mof_C 	C 	0.14704	0.14699	0.8834	-0.07
Mof_C 	C 	0.11413	0.11449	0.8827	0.103
Mof_H 	H 	0.1028	0.1039	0.8031	0.032
Mof_C 	C 	0.16591	0.16589	0.7552	0.331
Mof_N 	N 	0.1761	0.4598	0.4298	-0.375
Mof_N 	N 	0.1763	0.5402	0.4278	-0.382
Mof_C 	C 	0.1346	0.263	0.5539	0.039
Mof_C 	C 	0.1285	0.3107	0.5668	-0.004
Mof_C 	C 	0.1899	0.4154	0.4039	0.095
Mof_C 	C 	0.1344	0.7365	0.552	0.041
Mof_C 	C 	0.1281	0.6894	0.5679	-0.002
Mof_C 	C 	0.1957	0.6791	0.4402	-0.006
Mof_C 	C 	0.2002	0.7269	0.4229	0.027
Mof_C 	C 	0.2361	0.4058	0.3382	0.023
Mof_F 	F 	0.2452	0.5007	0.3702	-0.686
Mof_B 	B 	0.1967	0.5	0.3573	1.65
Mof_F 	F 	0.19	0.4998	0.2153	-0.698
Mof_C 	C 	0.196	0.3201	0.5594	-0.01
Mof_C 	C 	0.2001	0.2731	0.5753	0.027
Mof_C 	C 	0.1223	0.414	0.4461	-0.008
Mof_C 	C 	0.1904	0.5844	0.5963	0.1
Mof_C 	C 	0.2355	0.594	0.6618	0.024
Mof_C 	C 	0.0779	0.3996	0.4003	-0.002
Mof_O 	O 	0.19528	0.80479	0.7607	-0.308
Mof_O 	O 	0.1497	0.85021	0.6498	-0.433
Mof_O 	O 	0.04748	0.9523	0.891	-0.431
Mof_C 	C 	0.14699	0.85296	0.8834	-0.054
Mof_C 	C 	0.11449	0.88587	0.8827	0.09
Mof_H 	H 	0.1039	0.8972	0.8031	0.049
Mof_C 	C 	0.16589	0.83409	0.7552	0.327
Mof_N 	N 	0.4598	0.8239	0.4298	-0.376
Mof_N 	N 	0.5402	0.8237	0.4278	-0.383
Mof_C 	C 	0.263	0.8654	0.5539	0.048
Mof_C 	C 	0.3107	0.8715	0.5668	0.009
Mof_C 	C 	0.4154	0.8101	0.4039	0.094
Mof_C 	C 	0.7365	0.8656	0.552	0.048
Mof_C 	C 	0.6894	0.8719	0.5679	0.005
Mof_C 	C 	0.6791	0.8043	0.4402	-0.007
Mof_C 	C 	0.7269	0.7998	0.4229	0.026
Mof_C 	C 	0.4058	0.7639	0.3382	0.023
Mof_F 	F 	0.5007	0.7548	0.3702	-0.687
Mof_B 	B 	0.5	0.8033	0.3573	1.654
Mof_F 	F 	0.4998	0.81	0.2153	-0.696
Mof_C 	C 	0.3201	0.804	0.5594	-0.008
Mof_C 	C 	0.2731	0.7999	0.5753	0.026
Mof_C 	C 	0.414	0.8777	0.4461	-0.018
Mof_C 	C 	0.5844	0.8096	0.5963	0.101
Mof_C 	C 	0.594	0.7645	0.6618	0.024
Mof_C 	C 	0.3996	0.9221	0.4003	0.05
Mof_O 	O 	0.80472	0.19521	0.7607	-0.308
Mof_O 	O 	0.8503	0.14979	0.6498	-0.432
Mof_O 	O 	0.95252	0.0477	0.891	-0.428
Mof_C 	C 	0.85301	0.14704	0.8834	-0.052
Mof_C 	C 	0.88551	0.11413	0.8827	0.091
Mof_H 	H 	0.8961	0.1028	0.8031	0.05
Mof_C 	C 	0.83411	0.16591	0.7552	0.327
Mof_N 	N 	0.5402	0.1761	0.4298	-0.375
Mof_N 	N 	0.4598	0.1763	0.4278	-0.382
Mof_C 	C 	0.737	0.1346	0.5539	0.04
Mof_C 	C 	0.6893	0.1285	0.5668	-0.004
Mof_C 	C 	0.5846	0.1899	0.4039	0.095
Mof_C 	C 	0.2635	0.1344	0.552	0.04
Mof_C 	C 	0.3106	0.1281	0.5679	-0.002
Mof_C 	C 	0.3209	0.1957	0.4402	-0.006
Mof_C 	C 	0.2731	0.2002	0.4229	0.027
Mof_C 	C 	0.5942	0.2361	0.3382	0.023
Mof_F 	F 	0.4993	0.2452	0.3702	-0.686
Mof_B 	B 	0.5	0.1967	0.3573	1.65
Mof_F 	F 	0.5002	0.19	0.2153	-0.698
Mof_C 	C 	0.6799	0.196	0.5594	-0.01
Mof_C 	C 	0.7269	0.2001	0.5753	0.027
Mof_C 	C 	0.586	0.1223	0.4461	-0.008
Mof_C 	C 	0.4156	0.1904	0.5963	0.1
Mof_C 	C 	0.406	0.2355	0.6618	0.024
Mof_C 	C 	0.6004	0.0779	0.4003	-0.002
Mof_Zn	Zn	5.40999e-34	3.54345e-34	0.14489	1.151
Mof_Zn	Zn	3.93635e-33	2.83476e-33	0.85511	1.156
Mof_Zn	Zn	0.17847	0.17839	0.5	1.216
Mof_N 	N 	0.16859	0.24615	0.5	-0.259
Mof_N 	N 	0.16841	0.75377	0.5	-0.259
Mof_C 	C 	0.1608	0.3384	0.5	0.018
Mof_C 	C 	0.1563	0.3871	0.5	-0.027
Mof_C 	C 	0.1344	0.4607	0.5	0.106
Mof_C 	C 	0.1345	0.5389	0.5	0.102
Mof_C 	C 	0.1226	0.5862	0.5	-0.009
Mof_C 	C 	0.1565	0.6139	0.5	-0.028
Mof_C 	C 	0.1608	0.6614	0.5	0.017
Mof_Zn	Zn	0.82153	0.82161	0.5	1.218
Mof_N 	N 	0.83141	0.75385	0.5	-0.26
Mof_N 	N 	0.83159	0.24623	0.5	-0.26
Mof_C 	C 	0.8392	0.6616	0.5	0.006
Mof_C 	C 	0.8437	0.6129	0.5	-0.015
Mof_C 	C 	0.8656	0.5393	0.5	0.125
Mof_C 	C 	0.8655	0.4611	0.5	0.112
Mof_C 	C 	0.8774	0.4138	0.5	0.012
Mof_C 	C 	0.8435	0.3861	0.5	-0.032
Mof_C 	C 	0.8392	0.3386	0.5	0.018
Mof_Zn	Zn	0.82161	0.17847	0.5	1.217
Mof_N 	N 	0.75385	0.16859	0.5	-0.259
Mof_N 	N 	0.24623	0.16841	0.5	-0.259
Mof_C 	C 	0.6616	0.1608	0.5	0.018
Mof_C 	C 	0.6129	0.1563	0.5	-0.027
Mof_C 	C 	0.5393	0.1344	0.5	0.106
Mof_C 	C 	0.4611	0.1345	0.5	0.102
Mof_C 	C 	0.4138	0.1226	0.5	-0.009
Mof_C 	C 	0.3861	0.1565	0.5	-0.028
Mof_C 	C 	0.3386	0.1608	0.5	0.017
Mof_Zn	Zn	0.17839	0.82153	0.5	1.217
Mof_N 	N 	0.24615	0.83141	0.5	-0.26
Mof_N 	N 	0.75377	0.83159	0.5	-0.26
Mof_C 	C 	0.3384	0.8392	0.5	0.006
Mof_C 	C 	0.3871	0.8437	0.5	-0.015
Mof_C 	C 	0.4607	0.8656	0.5	0.125
Mof_C 	C 	0.5389	0.8655	0.5	0.112
Mof_C 	C 	0.5862	0.8774	0.5	0.012
Mof_C 	C 	0.6139	0.8435	0.5	-0.032
Mof_C 	C 	0.6614	0.8392	0.5	0.018
Mof_C 	C 	0.16296	0.16312	-0	0.007
Mof_H 	H 	0.185	0.1855	-0	0.051
Mof_C 	C 	0.09763	0.09735	-0	-0.156
Mof_C 	C 	0.06072	0.06116	-0	0.401
Mof_C 	C 	0.83704	0.83688	-0	-0.017
Mof_H 	H 	0.815	0.8145	-0	0.059
Mof_C 	C 	0.90237	0.90265	-0	-0.099
Mof_C 	C 	0.93928	0.93884	-0	0.379
Mof_C 	C 	0.83688	0.16296	-0	-0.005
Mof_H 	H 	0.8145	0.185	-0	0.055
Mof_C 	C 	0.90265	0.09763	-0	-0.125
Mof_C 	C 	0.93884	0.06072	-0	0.389
Mof_C 	C 	0.16312	0.83704	-0	-0.005
Mof_H 	H 	0.1855	0.815	-0	0.055
Mof_C 	C 	0.09735	0.90237	-0	-0.13
Mof_C 	C 	0.06116	0.93928	-0	0.39
Mof_O 	O 	0.69521	0.69528	0.7393	-0.312
Mof_O 	O 	0.64979	0.6497	0.8502	-0.423
Mof_O 	O 	0.5477	0.54748	0.609	-0.469
Mof_C 	C 	0.64704	0.64699	0.6166	-0.089
Mof_C 	C 	0.61413	0.61449	0.6173	0.066
Mof_H 	H 	0.6028	0.6039	0.6969	0.057
Mof_C 	C 	0.66591	0.66589	0.7448	0.333
Mof_N 	N 	0.6761	0.9598	0.0702	-0.326
Mof_N 	N 	0.6763	0.0402	0.0722	-0.362
Mof_C 	C 	0.6346	0.763	0.9461	0.101
Mof_C 	C 	0.6285	0.8107	0.9332	0.02
Mof_C 	C 	0.6899	0.9154	0.0961	0.097
Mof_C 	C 	0.6344	0.2365	0.948	0.108
Mof_C 	C 	0.6281	0.1894	0.9321	0.021
Mof_C 	C 	0.6957	0.1791	0.0598	-0.032
Mof_C 	C 	0.7002	0.2269	0.0771	0.023
Mof_C 	C 	0.7361	0.9058	0.1618	0.041
Mof_F 	F 	0.7452	0.0007	0.1298	-0.69
Mof_B 	B 	0.6967	7.0869e-34	0.1427	1.477
Mof_F 	F 	0.69	0.9998	0.2847	-0.601
Mof_C 	C 	0.696	0.8201	0.9406	0.042
Mof_C 	C 	0.7001	0.7731	0.9247	0.036
Mof_C 	C 	0.6223	0.914	0.0539	-0.051
Mof_C 	C 	0.6904	0.0844	0.9037	0.117
Mof_C 	C 	0.7355	0.094	0.8382	0.022
Mof_C 	C 	0.5779	0.8996	0.0997	0.031
Mof_O 	O 	0.30479	0.30472	0.7393	-0.312
Mof_O 	O 	0.35021	0.3503	0.8502	-0.422
Mof_O 	O 	0.4523	0.45252	0.609	-0.469
Mof_C 	C 	0.35296	0.35301	0.6166	-0.088
Mof_C 	C 	0.38587	0.38551	0.6173	0.066
Mof_H 	H 	0.3972	0.3961	0.6969	0.057
Mof_C 	C 	0.33409	0.33411	0.7448	0.333
Mof_N 	N 	0.3239	0.0402	0.0702	-0.356
Mof_N 	N 	0.3237	0.9598	0.0722	-0.335
Mof_C 	C 	0.3654	0.237	0.9461	0.101
Mof_C 	C 	0.3715	0.1893	0.9332	0.02
Mof_C 	C 	0.3101	0.0846	0.0961	0.093
Mof_C 	C 	0.3656	0.7635	0.948	0.108
Mof_C 	C 	0.3719	0.8106	0.9321	0.024
Mof_C 	C 	0.3043	0.8209	0.0598	-0.032
Mof_C 	C 	0.2998	0.7731	0.0771	0.023
Mof_C 	C 	0.2639	0.0942	0.1618	0.003
Mof_F 	F 	0.2548	0.9993	0.1298	-0.605
Mof_B 	B 	0.3033	7.0869e-34	0.1427	1.472
Mof_F 	F 	0.31	0.0002	0.2847	-0.693
Mof_C 	C 	0.304	0.1799	0.9406	0.042
Mof_C 	C 	0.2999	0.2269	0.9247	0.037
Mof_C 	C 	0.3777	0.086	0.0539	-0.042
Mof_C 	C 	0.3096	0.9156	0.9037	0.12
Mof_C 	C 	0.2645	0.906	0.8382	0.046
Mof_C 	C 	0.4221	0.1004	0.0997	0.005
Mof_O 	O 	0.30472	0.69521	0.7393	-0.312
Mof_O 	O 	0.3503	0.64979	0.8502	-0.423
Mof_O 	O 	0.45252	0.5477	0.609	-0.469
Mof_C 	C 	0.35301	0.64704	0.6166	-0.089
Mof_C 	C 	0.38551	0.61413	0.6173	0.066
Mof_H 	H 	0.3961	0.6028	0.6969	0.057
Mof_C 	C 	0.33411	0.66591	0.7448	0.333
Mof_N 	N 	0.0402	0.6761	0.0702	-0.356
Mof_N 	N 	0.9598	0.6763	0.0722	-0.335
Mof_C 	C 	0.237	0.6346	0.9461	0.101
Mof_C 	C 	0.1893	0.6285	0.9332	0.02
Mof_C 	C 	0.0846	0.6899	0.0961	0.093
Mof_C 	C 	0.7635	0.6344	0.948	0.108
Mof_C 	C 	0.8106	0.6281	0.9321	0.024
Mof_C 	C 	0.8209	0.6957	0.0598	-0.032
Mof_C 	C 	0.7731	0.7002	0.0771	0.022
Mof_C 	C 	0.0942	0.7361	0.1618	0.003
Mof_F 	F 	0.9993	0.7452	0.1298	-0.605
Mof_B 	B 	4.43597e-33	0.6967	0.1427	1.473
Mof_F 	F 	0.0002	0.69	0.2847	-0.692
Mof_C 	C 	0.1799	0.696	0.9406	0.042
Mof_C 	C 	0.2269	0.7001	0.9247	0.037
Mof_C 	C 	0.086	0.6223	0.0539	-0.042
Mof_C 	C 	0.9156	0.6904	0.9037	0.12
Mof_C 	C 	0.906	0.7355	0.8382	0.046
Mof_C 	C 	0.1004	0.5779	0.0997	0.005
Mof_O 	O 	0.69528	0.30479	0.7393	-0.312
Mof_O 	O 	0.6497	0.35021	0.8502	-0.423
Mof_O 	O 	0.54748	0.4523	0.609	-0.469
Mof_C 	C 	0.64699	0.35296	0.6166	-0.088
Mof_C 	C 	0.61449	0.38587	0.6173	0.066
Mof_H 	H 	0.6039	0.3972	0.6969	0.057
Mof_C 	C 	0.66589	0.33409	0.7448	0.333
Mof_N 	N 	0.9598	0.3239	0.0702	-0.325
Mof_N 	N 	0.0402	0.3237	0.0722	-0.362
Mof_C 	C 	0.763	0.3654	0.9461	0.101
Mof_C 	C 	0.8107	0.3715	0.9332	0.02
Mof_C 	C 	0.9154	0.3101	0.0961	0.097
Mof_C 	C 	0.2365	0.3656	0.948	0.108
Mof_C 	C 	0.1894	0.3719	0.9321	0.021
Mof_C 	C 	0.1791	0.3043	0.0598	-0.031
Mof_C 	C 	0.2269	0.2998	0.0771	0.023
Mof_C 	C 	0.9058	0.2639	0.1618	0.041
Mof_F 	F 	0.0007	0.2548	0.1298	-0.691
Mof_B 	B 	1.60121e-33	0.3033	0.1427	1.476
Mof_F 	F 	0.9998	0.31	0.2847	-0.601
Mof_C 	C 	0.8201	0.304	0.9406	0.042
Mof_C 	C 	0.7731	0.2999	0.9247	0.037
Mof_C 	C 	0.914	0.3777	0.0539	-0.051
Mof_C 	C 	0.0844	0.3096	0.9037	0.117
Mof_C 	C 	0.094	0.2645	0.8382	0.022
Mof_C 	C 	0.8996	0.4221	0.0997	0.032
Mof_O 	O 	0.30479	0.30472	0.2607	-0.313
Mof_O 	O 	0.35021	0.3503	0.1498	-0.443
Mof_O 	O 	0.4523	0.45252	0.391	-0.475
Mof_C 	C 	0.35296	0.35301	0.3834	-0.092
Mof_C 	C 	0.38587	0.38551	0.3827	0.068
Mof_H 	H 	0.3972	0.3961	0.3031	0.05
Mof_C 	C 	0.33409	0.33411	0.2552	0.337
Mof_N 	N 	0.3239	0.0402	0.9298	-0.338
Mof_N 	N 	0.3237	0.9598	0.9278	-0.316
Mof_C 	C 	0.3654	0.237	0.0539	-0.004
Mof_C 	C 	0.3715	0.1893	0.0668	0.002
Mof_C 	C 	0.3101	0.0846	0.9039	0.107
Mof_C 	C 	0.3656	0.7635	0.052	-0.013
Mof_C 	C 	0.3719	0.8106	0.0679	0.009
Mof_C 	C 	0.3043	0.8209	0.9402	0.046
Mof_C 	C 	0.2998	0.7731	0.9229	0.033
Mof_C 	C 	0.2639	0.0942	0.8382	0.015
Mof_F 	F 	0.2548	0.9993	0.8702	-0.591
Mof_B 	B 	0.3033	2.83476e-33	0.8573	1.482
Mof_F 	F 	0.31	0.0002	0.7153	-0.695
Mof_C 	C 	0.304	0.1799	0.0594	-0.033
Mof_C 	C 	0.2999	0.2269	0.0753	0.024
Mof_C 	C 	0.3777	0.086	0.9461	0.069
Mof_C 	C 	0.3096	0.9156	0.0963	0.092
Mof_C 	C 	0.2645	0.906	0.1618	0.036
Mof_C 	C 	0.4221	0.1004	0.9003	0.011
Mof_O 	O 	0.69521	0.69528	0.2607	-0.314
Mof_O 	O 	0.64979	0.6497	0.1498	-0.444
Mof_O 	O 	0.5477	0.54748	0.391	-0.475
Mof_C 	C 	0.64704	0.64699	0.3834	-0.092
Mof_C 	C 	0.61413	0.61449	0.3827	0.068
Mof_H 	H 	0.6028	0.6039	0.3031	0.05
Mof_C 	C 	0.66591	0.66589	0.2552	0.337
Mof_N 	N 	0.6761	0.9598	0.9298	-0.308
Mof_N 	N 	0.6763	0.0402	0.9278	-0.343
Mof_C 	C 	0.6346	0.763	0.0539	-0.004
Mof_C 	C 	0.6285	0.8107	0.0668	0.002
Mof_C 	C 	0.6899	0.9154	0.9039	0.11
Mof_C 	C 	0.6344	0.2365	0.052	-0.013
Mof_C 	C 	0.6281	0.1894	0.0679	0.006
Mof_C 	C 	0.6957	0.1791	0.9402	0.046
Mof_C 	C 	0.7002	0.2269	0.9229	0.034
Mof_C 	C 	0.7361	0.9058	0.8382	0.053
Mof_F 	F 	0.7452	0.0007	0.8702	-0.677
Mof_B 	B 	0.6967	2.83476e-33	0.8573	1.487
Mof_F 	F 	0.69	0.9998	0.7153	-0.604
Mof_C 	C 	0.696	0.8201	0.0594	-0.034
Mof_C 	C 	0.7001	0.7731	0.0753	0.023
Mof_C 	C 	0.6223	0.914	0.9461	0.061
Mof_C 	C 	0.6904	0.0844	0.0963	0.089
Mof_C 	C 	0.7355	0.094	0.1618	0.012
Mof_C 	C 	0.5779	0.8996	0.9003	0.038
Mof_O 	O 	0.69528	0.30479	0.2607	-0.313
Mof_O 	O 	0.6497	0.35021	0.1498	-0.443
Mof_O 	O 	0.54748	0.4523	0.391	-0.475
Mof_C 	C 	0.64699	0.35296	0.3834	-0.092
Mof_C 	C 	0.61449	0.38587	0.3827	0.068
Mof_H 	H 	0.6039	0.3972	0.3031	0.05
Mof_C 	C 	0.66589	0.33409	0.2552	0.337
Mof_N 	N 	0.9598	0.3239	0.9298	-0.308
Mof_N 	N 	0.0402	0.3237	0.9278	-0.343
Mof_C 	C 	0.763	0.3654	0.0539	-0.004
Mof_C 	C 	0.8107	0.3715	0.0668	0.002
Mof_C 	C 	0.9154	0.3101	0.9039	0.11
Mof_C 	C 	0.2365	0.3656	0.052	-0.012
Mof_C 	C 	0.1894	0.3719	0.0679	0.007
Mof_C 	C 	0.1791	0.3043	0.9402	0.046
Mof_C 	C 	0.2269	0.2998	0.9229	0.034
Mof_C 	C 	0.9058	0.2639	0.8382	0.053
Mof_F 	F 	0.0007	0.2548	0.8702	-0.678
Mof_B 	B 	3.93917e-33	0.3033	0.8573	1.486
Mof_F 	F 	0.9998	0.31	0.7153	-0.604
Mof_C 	C 	0.8201	0.304	0.0594	-0.033
Mof_C 	C 	0.7731	0.2999	0.0753	0.024
Mof_C 	C 	0.914	0.3777	0.9461	0.061
Mof_C 	C 	0.0844	0.3096	0.0963	0.089
Mof_C 	C 	0.094	0.2645	0.1618	0.012
Mof_C 	C 	0.8996	0.4221	0.9003	0.038
Mof_O 	O 	0.30472	0.69521	0.2607	-0.314
Mof_O 	O 	0.3503	0.64979	0.1498	-0.443
Mof_O 	O 	0.45252	0.5477	0.391	-0.475
Mof_C 	C 	0.35301	0.64704	0.3834	-0.092
Mof_C 	C 	0.38551	0.61413	0.3827	0.068
Mof_H 	H 	0.3961	0.6028	0.3031	0.05
Mof_C 	C 	0.33411	0.66591	0.2552	0.337
Mof_N 	N 	0.0402	0.6761	0.9298	-0.338
Mof_N 	N 	0.9598	0.6763	0.9278	-0.316
Mof_C 	C 	0.237	0.6346	0.0539	-0.004
Mof_C 	C 	0.1893	0.6285	0.0668	0.002
Mof_C 	C 	0.0846	0.6899	0.9039	0.107
Mof_C 	C 	0.7635	0.6344	0.052	-0.013
Mof_C 	C 	0.8106	0.6281	0.0679	0.009
Mof_C 	C 	0.8209	0.6957	0.9402	0.045
Mof_C 	C 	0.7731	0.7002	0.9229	0.033
Mof_C 	C 	0.0942	0.7361	0.8382	0.015
Mof_F 	F 	0.9993	0.7452	0.8702	-0.591
Mof_B 	B 	-1.73035e-33	0.6967	0.8573	1.483
Mof_F 	F 	0.0002	0.69	0.7153	-0.695
Mof_C 	C 	0.1799	0.696	0.0594	-0.034
Mof_C 	C 	0.2269	0.7001	0.0753	0.024
Mof_C 	C 	0.086	0.6223	0.9461	0.069
Mof_C 	C 	0.9156	0.6904	0.0963	0.092
Mof_C 	C 	0.906	0.7355	0.1618	0.036
Mof_C 	C 	0.1004	0.5779	0.9003	0.011
Mof_Zn	Zn	0.5	0.5	0.64489	1.206
Mof_Zn	Zn	0.5	0.5	0.35511	1.203
Mof_Zn	Zn	0.67847	0.67839	-0	1.209
Mof_N 	N 	0.66859	0.74615	-0	-0.28
Mof_N 	N 	0.66841	0.25377	-0	-0.278
Mof_C 	C 	0.6608	0.8384	-0	-0.023
Mof_C 	C 	0.6563	0.8871	-0	-0.054
Mof_C 	C 	0.6344	0.9607	-0	0.111
Mof_C 	C 	0.6345	0.0389	-0	0.047
Mof_C 	C 	0.6226	0.0862	-0	-0.009
Mof_C 	C 	0.6565	0.1139	-0	-0.034
Mof_C 	C 	0.6608	0.1614	-0	-0.03
Mof_Zn	Zn	0.32153	0.32161	-0	1.21
Mof_N 	N 	0.33141	0.25385	-0	-0.279
Mof_N 	N 	0.33159	0.74623	-0	-0.278
Mof_C 	C 	0.3392	0.1616	-0	-0.021
Mof_C 	C 	0.3437	0.1129	-0	-0.057
Mof_C 	C 	0.3656	0.0393	-0	0.039
Mof_C 	C 	0.3655	0.9611	-0	0.129
Mof_C 	C 	0.3774	0.9138	-0	-0.008
Mof_C 	C 	0.3435	0.8861	-0	-0.033
Mof_C 	C 	0.3392	0.8386	-0	-0.03
Mof_Zn	Zn	0.32161	0.67847	-0	1.209
Mof_N 	N 	0.25385	0.66859	-0	-0.28
Mof_N 	N 	0.74623	0.66841	-0	-0.278
Mof_C 	C 	0.1616	0.6608	-0	-0.021
Mof_C 	C 	0.1129	0.6563	-0	-0.057
Mof_C 	C 	0.0393	0.6344	-0	0.039
Mof_C 	C 	0.9611	0.6345	-0	0.128
Mof_C 	C 	0.9138	0.6226	-0	-0.008
Mof_C 	C 	0.8861	0.6565	-0	-0.033
Mof_C 	C 	0.8386	0.6608	-0	-0.03
Mof_Zn	Zn	0.67839	0.32153	-0	1.209
Mof_N 	N 	0.74615	0.33141	-0	-0.279
Mof_N 	N 	0.25377	0.33159	-0	-0.278
Mof_C 	C 	0.8384	0.3392	-0	-0.023
Mof_C 	C 	0.8871	0.3437	-0	-0.054
Mof_C 	C 	0.9607	0.3656	-0	0.111
Mof_C 	C 	0.0389	0.3655	-0	0.047
Mof_C 	C 	0.0862	0.3774	-0	-0.009
Mof_C 	C 	0.1139	0.3435	-0	-0.034
Mof_C 	C 	0.1614	0.3392	-0	-0.03
Mof_C 	C 	0.66296	0.66312	0.5	0.049
Mof_H 	H 	0.685	0.6855	0.5	0.048
Mof_C 	C 	0.59763	0.59735	0.5	-0.107
Mof_C 	C 	0.56072	0.56116	0.5	0.43
Mof_C 	C 	0.33704	0.33688	0.5	0.049
Mof_H 	H 	0.315	0.3145	0.5	0.049
Mof_C 	C 	0.40237	0.40265	0.5	-0.107
Mof_C 	C 	0.43928	0.43884	0.5	0.43
Mof_C 	C 	0.33688	0.66296	0.5	0.049
Mof_H 	H 	0.3145	0.685	0.5	0.048
Mof_C 	C 	0.40265	0.59763	0.5	-0.107
Mof_C 	C 	0.43884	0.56072	0.5	0.43
Mof_C 	C 	0.66312	0.33704	0.5	0.049
Mof_H 	H 	0.6855	0.315	0.5	0.048
Mof_C 	C 	0.59735	0.40237	0.5	-0.107
Mof_C 	C 	0.56116	0.43928	0.5	0.43
_end
