data_functionalizedCrystal
_audit_creation_method	'EQeq! by Chris Wilmer'
_symmetry_space_group_name_H-M	'P1'
_symmetry_Int_Tables_number	1
_symmetry_cell_setting	triclinic
loop_
_symmetry_equiv_pos_as_xyz
  x,y,z
_cell_length_a	7.623
_cell_length_b	11.189
_cell_length_c	16.873
_cell_angle_alpha	90
_cell_angle_beta	90
_cell_angle_gamma	90
loop_
_atom_site_label
_atom_site_type_symbol
_atom_site_fract_x
_atom_site_fract_y
_atom_site_fract_z
_atom_site_charge
Mof_Zn	Zn	0.1014	0.6418	0.0387	1.21
Mof_Zn	Zn	0.3986	0.3582	0.5387	1.21
Mof_Zn	Zn	0.8986	0.1418	0.4613	1.21
Mof_Zn	Zn	0.6014	0.8582	0.9613	1.21
Mof_C 	C 	0.4174	0.4338	0.3959	0.3
Mof_C 	C 	0.3904	0.4545	0.307	-0.083
Mof_C 	C 	0.4411	0.5644	0.2751	0.028
Mof_C 	C 	0.4134	0.5846	0.1953	-0.089
Mof_C 	C 	0.3346	0.4956	0.1498	0.074
Mof_C 	C 	0.2854	0.3874	0.1806	-0.083
Mof_C 	C 	0.3167	0.3651	0.2611	0.023
Mof_C 	C 	0.8736	0.3843	0.3953	0.349
Mof_C 	C 	0.8706	0.4416	0.314	-0.107
Mof_C 	C 	0.8013	0.382	0.2486	0.034
Mof_C 	C 	0.7976	0.4309	0.1748	-0.077
Mof_C 	C 	0.8651	0.5554	0.1646	0.069
Mof_C 	C 	0.9392	0.61	0.2296	-0.103
Mof_C 	C 	0.9412	0.5578	0.3024	0.041
Mof_C 	C 	0.0826	0.5662	0.8959	0.299
Mof_C 	C 	0.1096	0.5455	0.807	-0.083
Mof_C 	C 	0.0589	0.4356	0.7751	0.03
Mof_C 	C 	0.0866	0.4154	0.6953	-0.09
Mof_C 	C 	0.1654	0.5044	0.6498	0.075
Mof_C 	C 	0.2146	0.6126	0.6806	-0.083
Mof_C 	C 	0.1833	0.6349	0.7611	0.023
Mof_C 	C 	0.6264	0.6157	0.8953	0.349
Mof_C 	C 	0.6294	0.5584	0.814	-0.107
Mof_C 	C 	0.6987	0.618	0.7486	0.034
Mof_C 	C 	0.7024	0.5691	0.6748	-0.078
Mof_C 	C 	0.6349	0.4446	0.6646	0.069
Mof_C 	C 	0.5608	0.39	0.7296	-0.106
Mof_C 	C 	0.5588	0.4422	0.8024	0.041
Mof_C 	C 	0.5826	0.9338	0.1041	0.299
Mof_C 	C 	0.6096	0.9545	0.193	-0.082
Mof_C 	C 	0.5589	0.0644	0.2249	0.028
Mof_C 	C 	0.5866	0.0846	0.3047	-0.09
Mof_C 	C 	0.6654	0.9956	0.3502	0.075
Mof_C 	C 	0.7146	0.8874	0.3194	-0.082
Mof_C 	C 	0.6833	0.8651	0.2389	0.023
Mof_C 	C 	0.1264	0.8843	0.1047	0.35
Mof_C 	C 	0.1294	0.9416	0.186	-0.111
Mof_C 	C 	0.1987	0.882	0.2514	0.036
Mof_C 	C 	0.2024	0.9309	0.3252	-0.082
Mof_C 	C 	0.1349	0.0554	0.3354	0.072
Mof_C 	C 	0.0608	0.11	0.2704	-0.107
Mof_C 	C 	0.0588	0.0578	0.1976	0.045
Mof_C 	C 	0.9174	0.0662	0.6041	0.296
Mof_C 	C 	0.8904	0.0455	0.693	-0.085
Mof_C 	C 	0.9411	0.9356	0.7249	0.031
Mof_C 	C 	0.9134	0.9154	0.8047	-0.088
Mof_C 	C 	0.8346	0.0044	0.8502	0.071
Mof_C 	C 	0.7854	0.1126	0.8194	-0.082
Mof_C 	C 	0.8167	0.1349	0.7389	0.022
Mof_C 	C 	0.3736	0.1157	0.6047	0.349
Mof_C 	C 	0.3706	0.0584	0.686	-0.105
Mof_C 	C 	0.3013	0.118	0.7514	0.033
Mof_C 	C 	0.2976	0.0691	0.8252	-0.076
Mof_C 	C 	0.3651	0.9446	0.8354	0.067
Mof_C 	C 	0.4392	0.89	0.7704	-0.105
Mof_C 	C 	0.4412	0.9422	0.6976	0.039
Mof_N 	N 	0.2965	0.5205	0.0642	-0.224
Mof_N 	N 	0.8587	0.6089	0.0868	-0.23
Mof_N 	N 	0.2035	0.4795	0.5642	-0.224
Mof_N 	N 	0.6413	0.3911	0.5868	-0.232
Mof_N 	N 	0.7035	0.0205	0.4358	-0.224
Mof_N 	N 	0.1413	0.1089	0.4132	-0.231
Mof_N 	N 	0.7965	0.9795	0.9358	-0.223
Mof_N 	N 	0.3587	0.8911	0.9132	-0.231
Mof_O 	O 	0.4818	0.5117	0.4383	-0.329
Mof_O 	O 	0.3652	0.3313	0.4238	-0.429
Mof_O 	O 	0.8227	0.2764	0.3971	-0.474
Mof_O 	O 	0.9199	0.4446	0.454	-0.273
Mof_O 	O 	0.0182	0.4883	0.9383	-0.328
Mof_O 	O 	0.1348	0.6687	0.9238	-0.429
Mof_O 	O 	0.6773	0.7236	0.8971	-0.474
Mof_O 	O 	0.5801	0.5554	0.954	-0.273
Mof_O 	O 	0.5182	0.0117	0.0617	-0.329
Mof_O 	O 	0.6348	0.8313	0.0762	-0.428
Mof_O 	O 	0.1773	0.7764	0.1029	-0.475
Mof_O 	O 	0.0801	0.9446	0.046	-0.275
Mof_O 	O 	0.9818	0.9883	0.5617	-0.327
Mof_O 	O 	0.8652	0.1687	0.5762	-0.429
Mof_O 	O 	0.3227	0.2236	0.6029	-0.473
Mof_O 	O 	0.4199	0.0554	0.546	-0.272
Mof_H 	H 	0.50378	0.63501	0.31473	0.04
Mof_H 	H 	0.45484	0.6731	0.16755	0.064
Mof_H 	H 	0.2205	0.31778	0.14093	0.057
Mof_H 	H 	0.28156	0.27456	0.28772	0.04
Mof_H 	H 	0.74462	0.28833	0.25574	0.03
Mof_H 	H 	0.74401	0.37712	0.12277	0.063
Mof_H 	H 	0.00168	0.7021	0.22344	0.046
Mof_H 	H 	7e-05	0.60736	0.3551	0.035
Mof_H 	H 	0.99622	0.36499	0.81473	0.039
Mof_H 	H 	0.04516	0.3269	0.66755	0.065
Mof_H 	H 	0.2795	0.68222	0.64093	0.057
Mof_H 	H 	0.21744	0.7248	0.78891	0.04
Mof_H 	H 	0.75538	0.71167	0.75574	0.03
Mof_H 	H 	0.75599	0.62288	0.62277	0.063
Mof_H 	H 	0.49832	0.2979	0.72344	0.048
Mof_H 	H 	0.49993	0.39264	0.8551	0.035
Mof_H 	H 	0.49622	0.13501	0.18527	0.04
Mof_H 	H 	0.54516	0.1731	0.33245	0.065
Mof_H 	H 	0.7795	0.81778	0.35907	0.057
Mof_H 	H 	0.71744	0.7752	0.21109	0.041
Mof_H 	H 	0.25538	0.78833	0.24426	0.029
Mof_H 	H 	0.25599	0.87712	0.37723	0.063
Mof_H 	H 	0.99832	0.2021	0.27656	0.048
Mof_H 	H 	0.99993	0.10736	0.1449	0.034
Mof_H 	H 	0.00378	0.86499	0.68527	0.039
Mof_H 	H 	0.95484	0.8269	0.83245	0.064
Mof_H 	H 	0.7205	0.18222	0.85907	0.056
Mof_H 	H 	0.78256	0.2248	0.71109	0.04
Mof_H 	H 	0.24462	0.21167	0.74426	0.03
Mof_H 	H 	0.24401	0.12288	0.87723	0.064
Mof_H 	H 	0.50168	0.7979	0.77656	0.048
Mof_H 	H 	0.50007	0.89264	0.6449	0.036
_end
