data_functionalizedCrystal
_audit_creation_method	'EQeq! by Chris Wilmer'
_symmetry_space_group_name_H-M	'P1'
_symmetry_Int_Tables_number	1
_symmetry_cell_setting	triclinic
loop_
_symmetry_equiv_pos_as_xyz
  x,y,z
_cell_length_a	17.2209
_cell_length_b	17.2209
_cell_length_c	34.229
_cell_angle_alpha	90
_cell_angle_beta	90
_cell_angle_gamma	90
loop_
_atom_site_label
_atom_site_type_symbol
_atom_site_fract_x
_atom_site_fract_y
_atom_site_fract_z
_atom_site_charge
Mof_C 	C 	0.2818	0.3126	0.3968	-0.041
Mof_H 	H 	0.3013	0.3556	0.4106	0.033
Mof_C 	C 	0.3117	0.2848	0.3572	0.001
Mof_H 	H 	0.3522	0.3101	0.3438	0.03
Mof_O 	O 	0.4243	0.2994	0.6732	-0.504
Mof_O 	O 	0.4253	0.1996	0.713	-0.492
Mof_C 	C 	0.4584	0.2499	0.6923	0.411
Mof_C 	C 	0.544	0.2562	0.6933	-0.039
Mof_C 	C 	0.5875	0.1917	0.7042	-0.046
Mof_H 	H 	0.5623	0.146	0.7123	0.029
Mof_C 	C 	0.6681	0.1949	0.7031	-0.078
Mof_H 	H 	0.6975	0.1513	0.7105	0.051
Mof_C 	C 	0.7052	0.2625	0.6911	-0.014
Mof_C 	C 	0.6618	0.3269	0.6802	-0.239
Mof_C 	C 	0.5811	0.3238	0.6813	-0.064
Mof_H 	H 	0.5517	0.3674	0.6739	0.056
Mof_P 	P 	0.7098	0.4231	0.6617	0.019
Mof_C 	C 	0.738	0.402	0.6127	0.003
Mof_C 	C 	0.79	0.46	0.5541	-0.019
Mof_C 	C 	0.78	0.46	0.5944	-0.071
Mof_C 	C 	0.757	0.4	0.532	-0.063
Mof_C 	C 	0.714	0.342	0.5503	-0.016
Mof_C 	C 	0.705	0.343	0.5906	-0.073
Mof_C 	C 	0.6206	0.4994	0.6625	-0.022
Mof_C 	C 	0.5469	0.2433	0.6932	-0.06
Mof_C 	C 	0.5851	0.1885	0.716	0.045
Mof_H 	H 	0.5565	0.1552	0.7323	0.012
Mof_C 	C 	0.6656	0.183	0.7147	0.001
Mof_H 	H 	0.6914	0.146	0.7301	0.014
Mof_C 	C 	0.7079	0.2322	0.6906	0.007
Mof_C 	C 	0.6697	0.287	0.6677	0.148
Mof_H 	H 	0.6983	0.3203	0.6514	-0.004
Mof_C 	C 	0.5892	0.2925	0.669	0.072
Mof_H 	H 	0.5634	0.3295	0.6536	0.011
Mof_C 	C 	0.241	0.322	0.5224	0.002
Mof_H 	H 	0.2336	0.3688	0.5363	0.031
Mof_C 	C 	0.244	0.322	0.4818	-0.065
Mof_H 	H 	0.2427	0.3689	0.4679	0.044
Mof_H 	H 	0.6869	0.3726	0.6721	0.095
Mof_H 	H 	0.6609	0.4626	0.6616	0.022
Mof_H 	H 	0.676	0.3036	0.6029	0.048
Mof_H 	H 	0.6918	0.3021	0.5353	0.031
Mof_H 	H 	0.7629	0.3999	0.5047	0.047
Mof_H 	H 	0.8182	0.499	0.5418	0.031
Mof_H 	H 	0.8024	0.5005	0.6094	0.05
Mof_H 	H 	0.6242	0.525	0.7169	0.051
Mof_H 	H 	0.5879	0.4931	0.6099	0.044
Mof_C 	C 	0.5996	0.5369	0.6931	-0.046
Mof_C 	C 	0.5792	0.5194	0.6336	-0.046
Mof_O 	O 	0.3093	0.2397	0.606	-0.282
Mof_C 	C 	0.3664	0.1927	0.6331	0.158
Mof_C 	C 	0.2182	0.1874	0.3968	-0.04
Mof_H 	H 	0.1987	0.1444	0.4106	0.034
Mof_C 	C 	0.1883	0.2152	0.3572	0.002
Mof_H 	H 	0.1478	0.1899	0.3438	0.031
Mof_O 	O 	0.0757	0.2006	0.6732	-0.503
Mof_O 	O 	0.0747	0.3004	0.713	-0.491
Mof_C 	C 	0.0416	0.2501	0.6923	0.412
Mof_C 	C 	0.956	0.2438	0.6933	-0.038
Mof_C 	C 	0.9125	0.3083	0.7042	-0.045
Mof_H 	H 	0.9377	0.354	0.7123	0.03
Mof_C 	C 	0.8319	0.3051	0.7031	-0.078
Mof_H 	H 	0.8025	0.3487	0.7105	0.051
Mof_C 	C 	0.7948	0.2375	0.6911	-0.014
Mof_C 	C 	0.8382	0.1731	0.6802	-0.239
Mof_C 	C 	0.9189	0.1762	0.6813	-0.064
Mof_H 	H 	0.9483	0.1326	0.6739	0.056
Mof_P 	P 	0.7902	0.0769	0.6617	0.019
Mof_C 	C 	0.762	0.098	0.6127	0.003
Mof_C 	C 	0.71	0.04	0.5541	-0.02
Mof_C 	C 	0.72	0.04	0.5944	-0.07
Mof_C 	C 	0.743	0.1	0.532	-0.063
Mof_C 	C 	0.786	0.158	0.5503	-0.017
Mof_C 	C 	0.795	0.157	0.5906	-0.073
Mof_C 	C 	0.8794	0.0006	0.6625	-0.021
Mof_C 	C 	0.9531	0.2567	0.6932	-0.06
Mof_C 	C 	0.9149	0.3115	0.716	0.045
Mof_H 	H 	0.9435	0.3448	0.7323	0.012
Mof_C 	C 	0.8344	0.317	0.7147	0.001
Mof_H 	H 	0.8086	0.354	0.7301	0.013
Mof_C 	C 	0.7921	0.2678	0.6906	0.007
Mof_C 	C 	0.8303	0.213	0.6677	0.148
Mof_H 	H 	0.8017	0.1797	0.6514	-0.004
Mof_C 	C 	0.9108	0.2075	0.669	0.071
Mof_H 	H 	0.9366	0.1705	0.6536	0.011
Mof_C 	C 	0.259	0.178	0.5224	0.002
Mof_H 	H 	0.2664	0.1312	0.5363	0.031
Mof_C 	C 	0.256	0.178	0.4818	-0.065
Mof_H 	H 	0.2573	0.1311	0.4679	0.044
Mof_H 	H 	0.8131	0.1274	0.6721	0.095
Mof_H 	H 	0.8391	0.0374	0.6616	0.022
Mof_H 	H 	0.824	0.1964	0.6029	0.047
Mof_H 	H 	0.8082	0.1979	0.5353	0.031
Mof_H 	H 	0.7371	0.1001	0.5047	0.047
Mof_H 	H 	0.6818	0.001	0.5418	0.031
Mof_H 	H 	0.6976	0.9995	0.6094	0.05
Mof_H 	H 	0.8758	0.975	0.7169	0.051
Mof_H 	H 	0.9121	0.0069	0.6099	0.044
Mof_C 	C 	0.9004	0.9631	0.6931	-0.046
Mof_C 	C 	0.9208	0.9806	0.6336	-0.047
Mof_O 	O 	0.1907	0.2603	0.606	-0.282
Mof_C 	C 	0.1336	0.3073	0.6331	0.158
Mof_C 	C 	0.1874	0.2818	0.8968	-0.04
Mof_H 	H 	0.1444	0.3013	0.9106	0.034
Mof_C 	C 	0.2152	0.3117	0.8572	0.002
Mof_H 	H 	0.1899	0.3522	0.8438	0.031
Mof_O 	O 	0.2006	0.4243	0.1732	-0.503
Mof_O 	O 	0.3004	0.4253	0.213	-0.491
Mof_C 	C 	0.2501	0.4584	0.1923	0.412
Mof_C 	C 	0.2438	0.544	0.1933	-0.038
Mof_C 	C 	0.3083	0.5875	0.2042	-0.045
Mof_H 	H 	0.354	0.5623	0.2123	0.03
Mof_C 	C 	0.3051	0.6681	0.2031	-0.078
Mof_H 	H 	0.3487	0.6975	0.2105	0.051
Mof_C 	C 	0.2375	0.7052	0.1911	-0.014
Mof_C 	C 	0.1731	0.6618	0.1802	-0.239
Mof_C 	C 	0.1762	0.5811	0.1813	-0.064
Mof_H 	H 	0.1326	0.5517	0.1739	0.056
Mof_P 	P 	0.0769	0.7098	0.1617	0.019
Mof_C 	C 	0.098	0.738	0.1127	0.003
Mof_C 	C 	0.04	0.79	0.0541	-0.02
Mof_C 	C 	0.04	0.78	0.0944	-0.07
Mof_C 	C 	0.1	0.757	0.032	-0.063
Mof_C 	C 	0.158	0.714	0.0503	-0.016
Mof_C 	C 	0.157	0.705	0.0906	-0.073
Mof_C 	C 	0.0006	0.6206	0.1625	-0.022
Mof_C 	C 	0.2567	0.5469	0.1932	-0.06
Mof_C 	C 	0.3115	0.5851	0.216	0.045
Mof_H 	H 	0.3448	0.5565	0.2323	0.012
Mof_C 	C 	0.317	0.6656	0.2147	0.001
Mof_H 	H 	0.354	0.6914	0.2301	0.014
Mof_C 	C 	0.2678	0.7079	0.1906	0.007
Mof_C 	C 	0.213	0.6697	0.1677	0.148
Mof_H 	H 	0.1797	0.6983	0.1514	-0.004
Mof_C 	C 	0.2075	0.5892	0.169	0.072
Mof_H 	H 	0.1705	0.5634	0.1536	0.011
Mof_C 	C 	0.178	0.241	0.0224	0.002
Mof_H 	H 	0.1312	0.2336	0.0363	0.031
Mof_C 	C 	0.178	0.244	0.9818	-0.065
Mof_H 	H 	0.1311	0.2427	0.9679	0.044
Mof_H 	H 	0.1274	0.6869	0.1721	0.095
Mof_H 	H 	0.0374	0.6609	0.1616	0.022
Mof_H 	H 	0.1964	0.676	0.1029	0.048
Mof_H 	H 	0.1979	0.6918	0.0353	0.031
Mof_H 	H 	0.1001	0.7629	0.0047	0.047
Mof_H 	H 	0.001	0.8182	0.0418	0.031
Mof_H 	H 	0.9995	0.8024	0.1094	0.05
Mof_H 	H 	0.975	0.6242	0.2169	0.051
Mof_H 	H 	0.0069	0.5879	0.1099	0.043
Mof_C 	C 	0.9631	0.5996	0.1931	-0.046
Mof_C 	C 	0.9806	0.5792	0.1336	-0.046
Mof_O 	O 	0.2603	0.3093	0.106	-0.282
Mof_C 	C 	0.3073	0.3664	0.1331	0.158
Mof_C 	C 	0.3126	0.2182	0.8968	-0.04
Mof_H 	H 	0.3556	0.1987	0.9106	0.034
Mof_C 	C 	0.2848	0.1883	0.8572	0.002
Mof_H 	H 	0.3101	0.1478	0.8438	0.031
Mof_O 	O 	0.2994	0.0757	0.1732	-0.503
Mof_O 	O 	0.1996	0.0747	0.213	-0.491
Mof_C 	C 	0.2499	0.0416	0.1923	0.412
Mof_C 	C 	0.2562	0.956	0.1933	-0.038
Mof_C 	C 	0.1917	0.9125	0.2042	-0.045
Mof_H 	H 	0.146	0.9377	0.2123	0.03
Mof_C 	C 	0.1949	0.8319	0.2031	-0.078
Mof_H 	H 	0.1513	0.8025	0.2105	0.051
Mof_C 	C 	0.2625	0.7948	0.1911	-0.014
Mof_C 	C 	0.3269	0.8382	0.1802	-0.239
Mof_C 	C 	0.3238	0.9189	0.1813	-0.064
Mof_H 	H 	0.3674	0.9483	0.1739	0.056
Mof_P 	P 	0.4231	0.7902	0.1617	0.019
Mof_C 	C 	0.402	0.762	0.1127	0.003
Mof_C 	C 	0.46	0.71	0.0541	-0.019
Mof_C 	C 	0.46	0.72	0.0944	-0.071
Mof_C 	C 	0.4	0.743	0.032	-0.063
Mof_C 	C 	0.342	0.786	0.0503	-0.016
Mof_C 	C 	0.343	0.795	0.0906	-0.073
Mof_C 	C 	0.4994	0.8794	0.1625	-0.022
Mof_C 	C 	0.2433	0.9531	0.1932	-0.06
Mof_C 	C 	0.1885	0.9149	0.216	0.045
Mof_H 	H 	0.1552	0.9435	0.2323	0.012
Mof_C 	C 	0.183	0.8344	0.2147	0.001
Mof_H 	H 	0.146	0.8086	0.2301	0.013
Mof_C 	C 	0.2322	0.7921	0.1906	0.007
Mof_C 	C 	0.287	0.8303	0.1677	0.148
Mof_H 	H 	0.3203	0.8017	0.1514	-0.004
Mof_C 	C 	0.2925	0.9108	0.169	0.072
Mof_H 	H 	0.3295	0.9366	0.1536	0.011
Mof_C 	C 	0.322	0.259	0.0224	0.002
Mof_H 	H 	0.3688	0.2664	0.0363	0.031
Mof_C 	C 	0.322	0.256	0.9818	-0.065
Mof_H 	H 	0.3689	0.2573	0.9679	0.044
Mof_H 	H 	0.3726	0.8131	0.1721	0.095
Mof_H 	H 	0.4626	0.8391	0.1616	0.022
Mof_H 	H 	0.3036	0.824	0.1029	0.048
Mof_H 	H 	0.3021	0.8082	0.0353	0.031
Mof_H 	H 	0.3999	0.7371	0.0047	0.047
Mof_H 	H 	0.499	0.6818	0.0418	0.031
Mof_H 	H 	0.5005	0.6976	0.1094	0.05
Mof_H 	H 	0.525	0.8758	0.2169	0.051
Mof_H 	H 	0.4931	0.9121	0.1099	0.044
Mof_C 	C 	0.5369	0.9004	0.1931	-0.046
Mof_C 	C 	0.5194	0.9208	0.1336	-0.046
Mof_O 	O 	0.2397	0.1907	0.106	-0.282
Mof_C 	C 	0.1927	0.1336	0.1331	0.158
Mof_C 	C 	0.2818	0.1874	0.8968	-0.04
Mof_H 	H 	0.3013	0.1444	0.9106	0.034
Mof_C 	C 	0.3117	0.2152	0.8572	0.002
Mof_H 	H 	0.3522	0.1899	0.8438	0.031
Mof_O 	O 	0.4243	0.2006	0.1732	-0.503
Mof_O 	O 	0.4253	0.3004	0.213	-0.491
Mof_C 	C 	0.4584	0.2501	0.1923	0.412
Mof_C 	C 	0.544	0.2438	0.1933	-0.038
Mof_C 	C 	0.5875	0.3083	0.2042	-0.045
Mof_H 	H 	0.5623	0.354	0.2123	0.03
Mof_C 	C 	0.6681	0.3051	0.2031	-0.078
Mof_H 	H 	0.6975	0.3487	0.2105	0.051
Mof_C 	C 	0.7052	0.2375	0.1911	-0.014
Mof_C 	C 	0.6618	0.1731	0.1802	-0.239
Mof_C 	C 	0.5811	0.1762	0.1813	-0.064
Mof_H 	H 	0.5517	0.1326	0.1739	0.056
Mof_P 	P 	0.7098	0.0769	0.1617	0.019
Mof_C 	C 	0.738	0.098	0.1127	0.003
Mof_C 	C 	0.79	0.04	0.0541	-0.02
Mof_C 	C 	0.78	0.04	0.0944	-0.07
Mof_C 	C 	0.757	0.1	0.032	-0.063
Mof_C 	C 	0.714	0.158	0.0503	-0.016
Mof_C 	C 	0.705	0.157	0.0906	-0.073
Mof_C 	C 	0.6206	0.0006	0.1625	-0.022
Mof_C 	C 	0.5469	0.2567	0.1932	-0.06
Mof_C 	C 	0.5851	0.3115	0.216	0.045
Mof_H 	H 	0.5565	0.3448	0.2323	0.012
Mof_C 	C 	0.6656	0.317	0.2147	0.001
Mof_H 	H 	0.6914	0.354	0.2301	0.014
Mof_C 	C 	0.7079	0.2678	0.1906	0.007
Mof_C 	C 	0.6697	0.213	0.1677	0.148
Mof_H 	H 	0.6983	0.1797	0.1514	-0.004
Mof_C 	C 	0.5892	0.2075	0.169	0.072
Mof_H 	H 	0.5634	0.1705	0.1536	0.011
Mof_C 	C 	0.241	0.178	0.0224	0.002
Mof_H 	H 	0.2336	0.1312	0.0363	0.031
Mof_C 	C 	0.244	0.178	0.9818	-0.065
Mof_H 	H 	0.2427	0.1311	0.9679	0.044
Mof_H 	H 	0.6869	0.1274	0.1721	0.095
Mof_H 	H 	0.6609	0.0374	0.1616	0.022
Mof_H 	H 	0.676	0.1964	0.1029	0.048
Mof_H 	H 	0.6918	0.1979	0.0353	0.031
Mof_H 	H 	0.7629	0.1001	0.0047	0.047
Mof_H 	H 	0.8182	0.001	0.0418	0.031
Mof_H 	H 	0.8024	0.9995	0.1094	0.05
Mof_H 	H 	0.6242	0.975	0.2169	0.051
Mof_H 	H 	0.5879	0.0069	0.1099	0.043
Mof_C 	C 	0.5996	0.9631	0.1931	-0.046
Mof_C 	C 	0.5792	0.9806	0.1336	-0.046
Mof_O 	O 	0.3093	0.2603	0.106	-0.282
Mof_C 	C 	0.3664	0.3073	0.1331	0.158
Mof_C 	C 	0.2182	0.3126	0.8968	-0.04
Mof_H 	H 	0.1987	0.3556	0.9106	0.034
Mof_C 	C 	0.1883	0.2848	0.8572	0.002
Mof_H 	H 	0.1478	0.3101	0.8438	0.031
Mof_O 	O 	0.0757	0.2994	0.1732	-0.503
Mof_O 	O 	0.0747	0.1996	0.213	-0.491
Mof_C 	C 	0.0416	0.2499	0.1923	0.412
Mof_C 	C 	0.956	0.2562	0.1933	-0.038
Mof_C 	C 	0.9125	0.1917	0.2042	-0.045
Mof_H 	H 	0.9377	0.146	0.2123	0.03
Mof_C 	C 	0.8319	0.1949	0.2031	-0.078
Mof_H 	H 	0.8025	0.1513	0.2105	0.051
Mof_C 	C 	0.7948	0.2625	0.1911	-0.014
Mof_C 	C 	0.8382	0.3269	0.1802	-0.239
Mof_C 	C 	0.9189	0.3238	0.1813	-0.064
Mof_H 	H 	0.9483	0.3674	0.1739	0.056
Mof_P 	P 	0.7902	0.4231	0.1617	0.019
Mof_C 	C 	0.762	0.402	0.1127	0.003
Mof_C 	C 	0.71	0.46	0.0541	-0.019
Mof_C 	C 	0.72	0.46	0.0944	-0.071
Mof_C 	C 	0.743	0.4	0.032	-0.063
Mof_C 	C 	0.786	0.342	0.0503	-0.016
Mof_C 	C 	0.795	0.343	0.0906	-0.073
Mof_C 	C 	0.8794	0.4994	0.1625	-0.022
Mof_C 	C 	0.9531	0.2433	0.1932	-0.06
Mof_C 	C 	0.9149	0.1885	0.216	0.045
Mof_H 	H 	0.9435	0.1552	0.2323	0.012
Mof_C 	C 	0.8344	0.183	0.2147	0.001
Mof_H 	H 	0.8086	0.146	0.2301	0.013
Mof_C 	C 	0.7921	0.2322	0.1906	0.007
Mof_C 	C 	0.8303	0.287	0.1677	0.148
Mof_H 	H 	0.8017	0.3203	0.1514	-0.004
Mof_C 	C 	0.9108	0.2925	0.169	0.072
Mof_H 	H 	0.9366	0.3295	0.1536	0.011
Mof_C 	C 	0.259	0.322	0.0224	0.002
Mof_H 	H 	0.2664	0.3688	0.0363	0.031
Mof_C 	C 	0.256	0.322	0.9818	-0.065
Mof_H 	H 	0.2573	0.3689	0.9679	0.044
Mof_H 	H 	0.8131	0.3726	0.1721	0.095
Mof_H 	H 	0.8391	0.4626	0.1616	0.022
Mof_H 	H 	0.824	0.3036	0.1029	0.048
Mof_H 	H 	0.8082	0.3021	0.0353	0.031
Mof_H 	H 	0.7371	0.3999	0.0047	0.047
Mof_H 	H 	0.6818	0.499	0.0418	0.031
Mof_H 	H 	0.6976	0.5005	0.1094	0.05
Mof_H 	H 	0.8758	0.525	0.2169	0.051
Mof_H 	H 	0.9121	0.4931	0.1099	0.044
Mof_C 	C 	0.9004	0.5369	0.1931	-0.046
Mof_C 	C 	0.9208	0.5194	0.1336	-0.046
Mof_O 	O 	0.1907	0.2397	0.106	-0.282
Mof_C 	C 	0.1336	0.1927	0.1331	0.158
Mof_C 	C 	0.1874	0.2182	0.3968	-0.04
Mof_H 	H 	0.1444	0.1987	0.4106	0.034
Mof_C 	C 	0.2152	0.1883	0.3572	0.002
Mof_H 	H 	0.1899	0.1478	0.3438	0.031
Mof_O 	O 	0.2006	0.0757	0.6732	-0.503
Mof_O 	O 	0.3004	0.0747	0.713	-0.491
Mof_C 	C 	0.2501	0.0416	0.6923	0.412
Mof_C 	C 	0.2438	0.956	0.6933	-0.038
Mof_C 	C 	0.3083	0.9125	0.7042	-0.045
Mof_H 	H 	0.354	0.9377	0.7123	0.03
Mof_C 	C 	0.3051	0.8319	0.7031	-0.078
Mof_H 	H 	0.3487	0.8025	0.7105	0.051
Mof_C 	C 	0.2375	0.7948	0.6911	-0.014
Mof_C 	C 	0.1731	0.8382	0.6802	-0.239
Mof_C 	C 	0.1762	0.9189	0.6813	-0.064
Mof_H 	H 	0.1326	0.9483	0.6739	0.056
Mof_P 	P 	0.0769	0.7902	0.6617	0.019
Mof_C 	C 	0.098	0.762	0.6127	0.003
Mof_C 	C 	0.04	0.71	0.5541	-0.02
Mof_C 	C 	0.04	0.72	0.5944	-0.07
Mof_C 	C 	0.1	0.743	0.532	-0.063
Mof_C 	C 	0.158	0.786	0.5503	-0.017
Mof_C 	C 	0.157	0.795	0.5906	-0.073
Mof_C 	C 	0.0006	0.8794	0.6625	-0.021
Mof_C 	C 	0.2567	0.9531	0.6932	-0.06
Mof_C 	C 	0.3115	0.9149	0.716	0.045
Mof_H 	H 	0.3448	0.9435	0.7323	0.012
Mof_C 	C 	0.317	0.8344	0.7147	0.001
Mof_H 	H 	0.354	0.8086	0.7301	0.013
Mof_C 	C 	0.2678	0.7921	0.6906	0.007
Mof_C 	C 	0.213	0.8303	0.6677	0.148
Mof_H 	H 	0.1797	0.8017	0.6514	-0.004
Mof_C 	C 	0.2075	0.9108	0.669	0.071
Mof_H 	H 	0.1705	0.9366	0.6536	0.011
Mof_C 	C 	0.178	0.259	0.5224	0.002
Mof_H 	H 	0.1312	0.2664	0.5363	0.031
Mof_C 	C 	0.178	0.256	0.4818	-0.065
Mof_H 	H 	0.1311	0.2573	0.4679	0.044
Mof_H 	H 	0.1274	0.8131	0.6721	0.095
Mof_H 	H 	0.0374	0.8391	0.6616	0.022
Mof_H 	H 	0.1964	0.824	0.6029	0.047
Mof_H 	H 	0.1979	0.8082	0.5353	0.031
Mof_H 	H 	0.1001	0.7371	0.5047	0.047
Mof_H 	H 	0.001	0.6818	0.5418	0.031
Mof_H 	H 	0.9995	0.6976	0.6094	0.05
Mof_H 	H 	0.975	0.8758	0.7169	0.051
Mof_H 	H 	0.0069	0.9121	0.6099	0.044
Mof_C 	C 	0.9631	0.9004	0.6931	-0.046
Mof_C 	C 	0.9806	0.9208	0.6336	-0.047
Mof_O 	O 	0.2603	0.1907	0.606	-0.282
Mof_C 	C 	0.3073	0.1336	0.6331	0.158
Mof_C 	C 	0.3126	0.2818	0.3968	-0.04
Mof_H 	H 	0.3556	0.3013	0.4106	0.034
Mof_C 	C 	0.2848	0.3117	0.3572	0.002
Mof_H 	H 	0.3101	0.3522	0.3438	0.031
Mof_O 	O 	0.2994	0.4243	0.6732	-0.503
Mof_O 	O 	0.1996	0.4253	0.713	-0.491
Mof_C 	C 	0.2499	0.4584	0.6923	0.412
Mof_C 	C 	0.2562	0.544	0.6933	-0.038
Mof_C 	C 	0.1917	0.5875	0.7042	-0.045
Mof_H 	H 	0.146	0.5623	0.7123	0.03
Mof_C 	C 	0.1949	0.6681	0.7031	-0.078
Mof_H 	H 	0.1513	0.6975	0.7105	0.051
Mof_C 	C 	0.2625	0.7052	0.6911	-0.014
Mof_C 	C 	0.3269	0.6618	0.6802	-0.239
Mof_C 	C 	0.3238	0.5811	0.6813	-0.064
Mof_H 	H 	0.3674	0.5517	0.6739	0.056
Mof_P 	P 	0.4231	0.7098	0.6617	0.019
Mof_C 	C 	0.402	0.738	0.6127	0.003
Mof_C 	C 	0.46	0.79	0.5541	-0.019
Mof_C 	C 	0.46	0.78	0.5944	-0.071
Mof_C 	C 	0.4	0.757	0.532	-0.063
Mof_C 	C 	0.342	0.714	0.5503	-0.016
Mof_C 	C 	0.343	0.705	0.5906	-0.073
Mof_C 	C 	0.4994	0.6206	0.6625	-0.022
Mof_C 	C 	0.2433	0.5469	0.6932	-0.06
Mof_C 	C 	0.1885	0.5851	0.716	0.045
Mof_H 	H 	0.1552	0.5565	0.7323	0.012
Mof_C 	C 	0.183	0.6656	0.7147	0.001
Mof_H 	H 	0.146	0.6914	0.7301	0.014
Mof_C 	C 	0.2322	0.7079	0.6906	0.007
Mof_C 	C 	0.287	0.6697	0.6677	0.148
Mof_H 	H 	0.3203	0.6983	0.6514	-0.004
Mof_C 	C 	0.2925	0.5892	0.669	0.072
Mof_H 	H 	0.3295	0.5634	0.6536	0.011
Mof_C 	C 	0.322	0.241	0.5224	0.002
Mof_H 	H 	0.3688	0.2336	0.5363	0.031
Mof_C 	C 	0.322	0.244	0.4818	-0.065
Mof_H 	H 	0.3689	0.2427	0.4679	0.044
Mof_H 	H 	0.3726	0.6869	0.6721	0.095
Mof_H 	H 	0.4626	0.6609	0.6616	0.022
Mof_H 	H 	0.3036	0.676	0.6029	0.048
Mof_H 	H 	0.3021	0.6918	0.5353	0.031
Mof_H 	H 	0.3999	0.7629	0.5047	0.047
Mof_H 	H 	0.499	0.8182	0.5418	0.031
Mof_H 	H 	0.5005	0.8024	0.6094	0.05
Mof_H 	H 	0.525	0.6242	0.7169	0.051
Mof_H 	H 	0.4931	0.5879	0.6099	0.044
Mof_C 	C 	0.5369	0.5996	0.6931	-0.046
Mof_C 	C 	0.5194	0.5792	0.6336	-0.046
Mof_O 	O 	0.2397	0.3093	0.606	-0.282
Mof_C 	C 	0.1927	0.3664	0.6331	0.158
Mof_Zn	Zn	0.31616	0.31616	0.65541	1.254
Mof_O 	O 	0.2949	0.2949	0.2756	-0.518
Mof_O 	O 	0.3058	0.3058	0.6017	-0.261
Mof_C 	C 	0.299	0.299	0.5205	0.092
Mof_H 	H 	0.3332	0.3332	0.5334	-0.001
Mof_C 	C 	0.2964	0.2964	0.4809	-0.062
Mof_H 	H 	0.3296	0.3296	0.4668	0.04
Mof_Zn	Zn	0.18384	0.18384	0.65541	1.254
Mof_O 	O 	0.2051	0.2051	0.2756	-0.518
Mof_O 	O 	0.1942	0.1942	0.6017	-0.261
Mof_C 	C 	0.201	0.201	0.5205	0.092
Mof_H 	H 	0.1668	0.1668	0.5334	-0.001
Mof_C 	C 	0.2036	0.2036	0.4809	-0.062
Mof_H 	H 	0.1704	0.1704	0.4668	0.04
Mof_Zn	Zn	0.18384	0.31616	0.15541	1.254
Mof_O 	O 	0.2051	0.2949	0.7756	-0.518
Mof_O 	O 	0.1942	0.3058	0.1017	-0.261
Mof_C 	C 	0.201	0.299	0.0205	0.092
Mof_H 	H 	0.1668	0.3332	0.0334	-0.001
Mof_C 	C 	0.2036	0.2964	0.9809	-0.061
Mof_H 	H 	0.1704	0.3296	0.9668	0.04
Mof_Zn	Zn	0.31616	0.18384	0.15541	1.254
Mof_O 	O 	0.2949	0.2051	0.7756	-0.518
Mof_O 	O 	0.3058	0.1942	0.1017	-0.261
Mof_C 	C 	0.299	0.201	0.0205	0.092
Mof_H 	H 	0.3332	0.1668	0.0334	-0.001
Mof_C 	C 	0.2964	0.2036	0.9809	-0.061
Mof_H 	H 	0.3296	0.1704	0.9668	0.04
Mof_Zn	Zn	0.18527	0.31473	0.72038	1.229
Mof_C 	C 	0.317	0.183	0.6529	-0.444
Mof_Zn	Zn	0.31473	0.18527	0.72038	1.229
Mof_C 	C 	0.183	0.317	0.6529	-0.444
Mof_Zn	Zn	0.18527	0.18527	0.22038	1.229
Mof_C 	C 	0.317	0.317	0.1529	-0.444
Mof_Zn	Zn	0.31473	0.31473	0.22038	1.229
Mof_C 	C 	0.183	0.183	0.1529	-0.444
Mof_C 	C 	0.25	0.25	0.5861	0.75
Mof_C 	C 	0.25	0.25	0.5419	-0.252
Mof_C 	C 	0.25	0.25	0.461	0.089
Mof_C 	C 	0.25	0.25	0.4169	-0.006
Mof_C 	C 	0.25	0.25	0.3356	-0.126
Mof_C 	C 	0.25	0.25	0.2929	0.428
Mof_O 	O 	0.25	0.25	0.688	-0.825
Mof_C 	C 	0.25	0.25	0.0861	0.75
Mof_C 	C 	0.25	0.25	0.0419	-0.252
Mof_C 	C 	0.25	0.25	0.961	0.088
Mof_C 	C 	0.25	0.25	0.9169	-0.006
Mof_C 	C 	0.25	0.25	0.8356	-0.126
Mof_C 	C 	0.25	0.25	0.7929	0.428
Mof_O 	O 	0.25	0.25	0.188	-0.825
Mof_C 	C 	0.7182	0.8126	0.1032	-0.04
Mof_H 	H 	0.6987	0.8556	0.0894	0.034
Mof_C 	C 	0.6883	0.7848	0.1428	0.002
Mof_H 	H 	0.6478	0.8101	0.1562	0.031
Mof_O 	O 	0.5757	0.7994	0.8268	-0.503
Mof_O 	O 	0.5747	0.6996	0.787	-0.491
Mof_C 	C 	0.5416	0.7499	0.8077	0.412
Mof_C 	C 	0.456	0.7562	0.8067	-0.038
Mof_C 	C 	0.4125	0.6917	0.7958	-0.045
Mof_H 	H 	0.4377	0.646	0.7877	0.03
Mof_C 	C 	0.3319	0.6949	0.7969	-0.078
Mof_H 	H 	0.3025	0.6513	0.7895	0.051
Mof_C 	C 	0.2948	0.7625	0.8089	-0.014
Mof_C 	C 	0.3382	0.8269	0.8198	-0.239
Mof_C 	C 	0.4189	0.8238	0.8187	-0.064
Mof_H 	H 	0.4483	0.8674	0.8261	0.056
Mof_P 	P 	0.2902	0.9231	0.8383	0.019
Mof_C 	C 	0.262	0.902	0.8873	0.003
Mof_C 	C 	0.21	0.96	0.9459	-0.02
Mof_C 	C 	0.22	0.96	0.9056	-0.07
Mof_C 	C 	0.243	0.9	0.968	-0.063
Mof_C 	C 	0.286	0.842	0.9497	-0.016
Mof_C 	C 	0.295	0.843	0.9094	-0.073
Mof_C 	C 	0.3794	0.9994	0.8375	-0.022
Mof_C 	C 	0.4531	0.7433	0.8068	-0.06
Mof_C 	C 	0.4149	0.6885	0.784	0.045
Mof_H 	H 	0.4435	0.6552	0.7677	0.012
Mof_C 	C 	0.3344	0.683	0.7853	0.001
Mof_H 	H 	0.3086	0.646	0.7699	0.014
Mof_C 	C 	0.2921	0.7322	0.8094	0.007
Mof_C 	C 	0.3303	0.787	0.8323	0.148
Mof_H 	H 	0.3017	0.8203	0.8486	-0.004
Mof_C 	C 	0.4108	0.7925	0.831	0.072
Mof_H 	H 	0.4366	0.8295	0.8464	0.011
Mof_C 	C 	0.759	0.822	0.9776	0.002
Mof_H 	H 	0.7664	0.8688	0.9637	0.031
Mof_C 	C 	0.756	0.822	0.0182	-0.065
Mof_H 	H 	0.7573	0.8689	0.0321	0.044
Mof_H 	H 	0.3131	0.8726	0.8279	0.095
Mof_H 	H 	0.3391	0.9626	0.8384	0.022
Mof_H 	H 	0.324	0.8036	0.8971	0.048
Mof_H 	H 	0.3082	0.8021	0.9647	0.031
Mof_H 	H 	0.2371	0.8999	0.9953	0.047
Mof_H 	H 	0.1818	0.999	0.9582	0.031
Mof_H 	H 	0.1976	0.0005	0.8906	0.05
Mof_H 	H 	0.3758	0.025	0.7831	0.051
Mof_H 	H 	0.4121	0.9931	0.8901	0.043
Mof_C 	C 	0.4004	0.0369	0.8069	-0.046
Mof_C 	C 	0.4208	0.0194	0.8664	-0.046
Mof_O 	O 	0.6907	0.7397	0.894	-0.282
Mof_C 	C 	0.6336	0.6927	0.8669	0.158
Mof_C 	C 	0.7818	0.6874	0.1032	-0.04
Mof_H 	H 	0.8013	0.6444	0.0894	0.034
Mof_C 	C 	0.8117	0.7152	0.1428	0.002
Mof_H 	H 	0.8522	0.6899	0.1562	0.031
Mof_O 	O 	0.9243	0.7006	0.8268	-0.503
Mof_O 	O 	0.9253	0.8004	0.787	-0.491
Mof_C 	C 	0.9584	0.7501	0.8077	0.412
Mof_C 	C 	0.044	0.7438	0.8067	-0.038
Mof_C 	C 	0.0875	0.8083	0.7958	-0.045
Mof_H 	H 	0.0623	0.854	0.7877	0.03
Mof_C 	C 	0.1681	0.8051	0.7969	-0.078
Mof_H 	H 	0.1975	0.8487	0.7895	0.051
Mof_C 	C 	0.2052	0.7375	0.8089	-0.014
Mof_C 	C 	0.1618	0.6731	0.8198	-0.239
Mof_C 	C 	0.0811	0.6762	0.8187	-0.064
Mof_H 	H 	0.0517	0.6326	0.8261	0.056
Mof_P 	P 	0.2098	0.5769	0.8383	0.019
Mof_C 	C 	0.238	0.598	0.8873	0.003
Mof_C 	C 	0.29	0.54	0.9459	-0.019
Mof_C 	C 	0.28	0.54	0.9056	-0.071
Mof_C 	C 	0.257	0.6	0.968	-0.063
Mof_C 	C 	0.214	0.658	0.9497	-0.016
Mof_C 	C 	0.205	0.657	0.9094	-0.073
Mof_C 	C 	0.1206	0.5006	0.8375	-0.022
Mof_C 	C 	0.0469	0.7567	0.8068	-0.06
Mof_C 	C 	0.0851	0.8115	0.784	0.045
Mof_H 	H 	0.0565	0.8448	0.7677	0.012
Mof_C 	C 	0.1656	0.817	0.7853	0.001
Mof_H 	H 	0.1914	0.854	0.7699	0.013
Mof_C 	C 	0.2079	0.7678	0.8094	0.007
Mof_C 	C 	0.1697	0.713	0.8323	0.148
Mof_H 	H 	0.1983	0.6797	0.8486	-0.004
Mof_C 	C 	0.0892	0.7075	0.831	0.072
Mof_H 	H 	0.0634	0.6705	0.8464	0.011
Mof_C 	C 	0.741	0.678	0.9776	0.002
Mof_H 	H 	0.7336	0.6312	0.9637	0.031
Mof_C 	C 	0.744	0.678	0.0182	-0.065
Mof_H 	H 	0.7427	0.6311	0.0321	0.044
Mof_H 	H 	0.1869	0.6274	0.8279	0.095
Mof_H 	H 	0.1609	0.5374	0.8384	0.022
Mof_H 	H 	0.176	0.6964	0.8971	0.048
Mof_H 	H 	0.1918	0.6979	0.9647	0.031
Mof_H 	H 	0.2629	0.6001	0.9953	0.047
Mof_H 	H 	0.3182	0.501	0.9582	0.031
Mof_H 	H 	0.3024	0.4995	0.8906	0.05
Mof_H 	H 	0.1242	0.475	0.7831	0.051
Mof_H 	H 	0.0879	0.5069	0.8901	0.044
Mof_C 	C 	0.0996	0.4631	0.8069	-0.046
Mof_C 	C 	0.0792	0.4806	0.8664	-0.046
Mof_O 	O 	0.8093	0.7603	0.894	-0.282
Mof_C 	C 	0.8664	0.8073	0.8669	0.158
Mof_C 	C 	0.8126	0.7818	0.6032	-0.04
Mof_H 	H 	0.8556	0.8013	0.5894	0.034
Mof_C 	C 	0.7848	0.8117	0.6428	0.002
Mof_H 	H 	0.8101	0.8522	0.6562	0.031
Mof_O 	O 	0.7994	0.9243	0.3268	-0.503
Mof_O 	O 	0.6996	0.9253	0.287	-0.491
Mof_C 	C 	0.7499	0.9584	0.3077	0.412
Mof_C 	C 	0.7562	0.044	0.3067	-0.038
Mof_C 	C 	0.6917	0.0875	0.2958	-0.045
Mof_H 	H 	0.646	0.0623	0.2877	0.03
Mof_C 	C 	0.6949	0.1681	0.2969	-0.078
Mof_H 	H 	0.6513	0.1975	0.2895	0.051
Mof_C 	C 	0.7625	0.2052	0.3089	-0.014
Mof_C 	C 	0.8269	0.1618	0.3198	-0.239
Mof_C 	C 	0.8238	0.0811	0.3187	-0.064
Mof_H 	H 	0.8674	0.0517	0.3261	0.056
Mof_P 	P 	0.9231	0.2098	0.3383	0.019
Mof_C 	C 	0.902	0.238	0.3873	0.003
Mof_C 	C 	0.96	0.29	0.4459	-0.02
Mof_C 	C 	0.96	0.28	0.4056	-0.07
Mof_C 	C 	0.9	0.257	0.468	-0.063
Mof_C 	C 	0.842	0.214	0.4497	-0.017
Mof_C 	C 	0.843	0.205	0.4094	-0.073
Mof_C 	C 	0.9994	0.1206	0.3375	-0.021
Mof_C 	C 	0.7433	0.0469	0.3068	-0.06
Mof_C 	C 	0.6885	0.0851	0.284	0.045
Mof_H 	H 	0.6552	0.0565	0.2677	0.012
Mof_C 	C 	0.683	0.1656	0.2853	0.001
Mof_H 	H 	0.646	0.1914	0.2699	0.013
Mof_C 	C 	0.7322	0.2079	0.3094	0.007
Mof_C 	C 	0.787	0.1697	0.3323	0.148
Mof_H 	H 	0.8203	0.1983	0.3486	-0.004
Mof_C 	C 	0.7925	0.0892	0.331	0.071
Mof_H 	H 	0.8295	0.0634	0.3464	0.011
Mof_C 	C 	0.822	0.741	0.4776	0.002
Mof_H 	H 	0.8688	0.7336	0.4637	0.031
Mof_C 	C 	0.822	0.744	0.5182	-0.065
Mof_H 	H 	0.8689	0.7427	0.5321	0.044
Mof_H 	H 	0.8726	0.1869	0.3279	0.095
Mof_H 	H 	0.9626	0.1609	0.3384	0.022
Mof_H 	H 	0.8036	0.176	0.3971	0.047
Mof_H 	H 	0.8021	0.1918	0.4647	0.031
Mof_H 	H 	0.8999	0.2629	0.4953	0.047
Mof_H 	H 	0.999	0.3182	0.4582	0.031
Mof_H 	H 	0.0005	0.3024	0.3906	0.05
Mof_H 	H 	0.025	0.1242	0.2831	0.051
Mof_H 	H 	0.9931	0.0879	0.3901	0.044
Mof_C 	C 	0.0369	0.0996	0.3069	-0.046
Mof_C 	C 	0.0194	0.0792	0.3664	-0.047
Mof_O 	O 	0.7397	0.8093	0.394	-0.282
Mof_C 	C 	0.6927	0.8664	0.3669	0.158
Mof_C 	C 	0.6874	0.7182	0.6032	-0.04
Mof_H 	H 	0.6444	0.6987	0.5894	0.034
Mof_C 	C 	0.7152	0.6883	0.6428	0.002
Mof_H 	H 	0.6899	0.6478	0.6562	0.031
Mof_O 	O 	0.7006	0.5757	0.3268	-0.503
Mof_O 	O 	0.8004	0.5747	0.287	-0.491
Mof_C 	C 	0.7501	0.5416	0.3077	0.412
Mof_C 	C 	0.7438	0.456	0.3067	-0.038
Mof_C 	C 	0.8083	0.4125	0.2958	-0.045
Mof_H 	H 	0.854	0.4377	0.2877	0.03
Mof_C 	C 	0.8051	0.3319	0.2969	-0.078
Mof_H 	H 	0.8487	0.3025	0.2895	0.051
Mof_C 	C 	0.7375	0.2948	0.3089	-0.014
Mof_C 	C 	0.6731	0.3382	0.3198	-0.239
Mof_C 	C 	0.6762	0.4189	0.3187	-0.064
Mof_H 	H 	0.6326	0.4483	0.3261	0.056
Mof_P 	P 	0.5769	0.2902	0.3383	0.019
Mof_C 	C 	0.598	0.262	0.3873	0.003
Mof_C 	C 	0.54	0.21	0.4459	-0.019
Mof_C 	C 	0.54	0.22	0.4056	-0.071
Mof_C 	C 	0.6	0.243	0.468	-0.063
Mof_C 	C 	0.658	0.286	0.4497	-0.016
Mof_C 	C 	0.657	0.295	0.4094	-0.073
Mof_C 	C 	0.5006	0.3794	0.3375	-0.022
Mof_C 	C 	0.7567	0.4531	0.3068	-0.06
Mof_C 	C 	0.8115	0.4149	0.284	0.045
Mof_H 	H 	0.8448	0.4435	0.2677	0.012
Mof_C 	C 	0.817	0.3344	0.2853	0.001
Mof_H 	H 	0.854	0.3086	0.2699	0.014
Mof_C 	C 	0.7678	0.2921	0.3094	0.007
Mof_C 	C 	0.713	0.3303	0.3323	0.148
Mof_H 	H 	0.6797	0.3017	0.3486	-0.004
Mof_C 	C 	0.7075	0.4108	0.331	0.072
Mof_H 	H 	0.6705	0.4366	0.3464	0.011
Mof_C 	C 	0.678	0.759	0.4776	0.002
Mof_H 	H 	0.6312	0.7664	0.4637	0.031
Mof_C 	C 	0.678	0.756	0.5182	-0.065
Mof_H 	H 	0.6311	0.7573	0.5321	0.044
Mof_H 	H 	0.6274	0.3131	0.3279	0.095
Mof_H 	H 	0.5374	0.3391	0.3384	0.022
Mof_H 	H 	0.6964	0.324	0.3971	0.048
Mof_H 	H 	0.6979	0.3082	0.4647	0.031
Mof_H 	H 	0.6001	0.2371	0.4953	0.047
Mof_H 	H 	0.501	0.1818	0.4582	0.031
Mof_H 	H 	0.4995	0.1976	0.3906	0.05
Mof_H 	H 	0.475	0.3758	0.2831	0.051
Mof_H 	H 	0.5069	0.4121	0.3901	0.044
Mof_C 	C 	0.4631	0.4004	0.3069	-0.046
Mof_C 	C 	0.4806	0.4208	0.3664	-0.046
Mof_O 	O 	0.7603	0.6907	0.394	-0.282
Mof_C 	C 	0.8073	0.6336	0.3669	0.158
Mof_C 	C 	0.7182	0.6874	0.6032	-0.04
Mof_H 	H 	0.6987	0.6444	0.5894	0.034
Mof_C 	C 	0.6883	0.7152	0.6428	0.002
Mof_H 	H 	0.6478	0.6899	0.6562	0.031
Mof_O 	O 	0.5757	0.7006	0.3268	-0.503
Mof_O 	O 	0.5747	0.8004	0.287	-0.491
Mof_C 	C 	0.5416	0.7501	0.3077	0.412
Mof_C 	C 	0.456	0.7438	0.3067	-0.038
Mof_C 	C 	0.4125	0.8083	0.2958	-0.045
Mof_H 	H 	0.4377	0.854	0.2877	0.03
Mof_C 	C 	0.3319	0.8051	0.2969	-0.078
Mof_H 	H 	0.3025	0.8487	0.2895	0.051
Mof_C 	C 	0.2948	0.7375	0.3089	-0.014
Mof_C 	C 	0.3382	0.6731	0.3198	-0.239
Mof_C 	C 	0.4189	0.6762	0.3187	-0.064
Mof_H 	H 	0.4483	0.6326	0.3261	0.056
Mof_P 	P 	0.2902	0.5769	0.3383	0.019
Mof_C 	C 	0.262	0.598	0.3873	0.003
Mof_C 	C 	0.21	0.54	0.4459	-0.019
Mof_C 	C 	0.22	0.54	0.4056	-0.071
Mof_C 	C 	0.243	0.6	0.468	-0.063
Mof_C 	C 	0.286	0.658	0.4497	-0.016
Mof_C 	C 	0.295	0.657	0.4094	-0.073
Mof_C 	C 	0.3794	0.5006	0.3375	-0.022
Mof_C 	C 	0.4531	0.7567	0.3068	-0.06
Mof_C 	C 	0.4149	0.8115	0.284	0.045
Mof_H 	H 	0.4435	0.8448	0.2677	0.012
Mof_C 	C 	0.3344	0.817	0.2853	0.001
Mof_H 	H 	0.3086	0.854	0.2699	0.014
Mof_C 	C 	0.2921	0.7678	0.3094	0.007
Mof_C 	C 	0.3303	0.713	0.3323	0.148
Mof_H 	H 	0.3017	0.6797	0.3486	-0.004
Mof_C 	C 	0.4108	0.7075	0.331	0.072
Mof_H 	H 	0.4366	0.6705	0.3464	0.011
Mof_C 	C 	0.759	0.678	0.4776	0.002
Mof_H 	H 	0.7664	0.6312	0.4637	0.031
Mof_C 	C 	0.756	0.678	0.5182	-0.065
Mof_H 	H 	0.7573	0.6311	0.5321	0.044
Mof_H 	H 	0.3131	0.6274	0.3279	0.095
Mof_H 	H 	0.3391	0.5374	0.3384	0.022
Mof_H 	H 	0.324	0.6964	0.3971	0.048
Mof_H 	H 	0.3082	0.6979	0.4647	0.031
Mof_H 	H 	0.2371	0.6001	0.4953	0.047
Mof_H 	H 	0.1818	0.501	0.4582	0.031
Mof_H 	H 	0.1976	0.4995	0.3906	0.05
Mof_H 	H 	0.3758	0.475	0.2831	0.051
Mof_H 	H 	0.4121	0.5069	0.3901	0.044
Mof_C 	C 	0.4004	0.4631	0.3069	-0.046
Mof_C 	C 	0.4208	0.4806	0.3664	-0.046
Mof_O 	O 	0.6907	0.7603	0.394	-0.282
Mof_C 	C 	0.6336	0.8073	0.3669	0.158
Mof_C 	C 	0.7818	0.8126	0.6032	-0.04
Mof_H 	H 	0.8013	0.8556	0.5894	0.034
Mof_C 	C 	0.8117	0.7848	0.6428	0.002
Mof_H 	H 	0.8522	0.8101	0.6562	0.031
Mof_O 	O 	0.9243	0.7994	0.3268	-0.503
Mof_O 	O 	0.9253	0.6996	0.287	-0.491
Mof_C 	C 	0.9584	0.7499	0.3077	0.412
Mof_C 	C 	0.044	0.7562	0.3067	-0.038
Mof_C 	C 	0.0875	0.6917	0.2958	-0.045
Mof_H 	H 	0.0623	0.646	0.2877	0.03
Mof_C 	C 	0.1681	0.6949	0.2969	-0.078
Mof_H 	H 	0.1975	0.6513	0.2895	0.051
Mof_C 	C 	0.2052	0.7625	0.3089	-0.014
Mof_C 	C 	0.1618	0.8269	0.3198	-0.239
Mof_C 	C 	0.0811	0.8238	0.3187	-0.064
Mof_H 	H 	0.0517	0.8674	0.3261	0.056
Mof_P 	P 	0.2098	0.9231	0.3383	0.019
Mof_C 	C 	0.238	0.902	0.3873	0.003
Mof_C 	C 	0.29	0.96	0.4459	-0.02
Mof_C 	C 	0.28	0.96	0.4056	-0.07
Mof_C 	C 	0.257	0.9	0.468	-0.063
Mof_C 	C 	0.214	0.842	0.4497	-0.017
Mof_C 	C 	0.205	0.843	0.4094	-0.073
Mof_C 	C 	0.1206	0.9994	0.3375	-0.021
Mof_C 	C 	0.0469	0.7433	0.3068	-0.06
Mof_C 	C 	0.0851	0.6885	0.284	0.045
Mof_H 	H 	0.0565	0.6552	0.2677	0.012
Mof_C 	C 	0.1656	0.683	0.2853	0.001
Mof_H 	H 	0.1914	0.646	0.2699	0.013
Mof_C 	C 	0.2079	0.7322	0.3094	0.007
Mof_C 	C 	0.1697	0.787	0.3323	0.148
Mof_H 	H 	0.1983	0.8203	0.3486	-0.004
Mof_C 	C 	0.0892	0.7925	0.331	0.071
Mof_H 	H 	0.0634	0.8295	0.3464	0.011
Mof_C 	C 	0.741	0.822	0.4776	0.002
Mof_H 	H 	0.7336	0.8688	0.4637	0.031
Mof_C 	C 	0.744	0.822	0.5182	-0.065
Mof_H 	H 	0.7427	0.8689	0.5321	0.044
Mof_H 	H 	0.1869	0.8726	0.3279	0.095
Mof_H 	H 	0.1609	0.9626	0.3384	0.022
Mof_H 	H 	0.176	0.8036	0.3971	0.047
Mof_H 	H 	0.1918	0.8021	0.4647	0.031
Mof_H 	H 	0.2629	0.8999	0.4953	0.047
Mof_H 	H 	0.3182	0.999	0.4582	0.031
Mof_H 	H 	0.3024	0.0005	0.3906	0.05
Mof_H 	H 	0.1242	0.025	0.2831	0.051
Mof_H 	H 	0.0879	0.9931	0.3901	0.044
Mof_C 	C 	0.0996	0.0369	0.3069	-0.046
Mof_C 	C 	0.0792	0.0194	0.3664	-0.047
Mof_O 	O 	0.8093	0.7397	0.394	-0.282
Mof_C 	C 	0.8664	0.6927	0.3669	0.158
Mof_C 	C 	0.8126	0.7182	0.1032	-0.04
Mof_H 	H 	0.8556	0.6987	0.0894	0.034
Mof_C 	C 	0.7848	0.6883	0.1428	0.002
Mof_H 	H 	0.8101	0.6478	0.1562	0.031
Mof_O 	O 	0.7994	0.5757	0.8268	-0.503
Mof_O 	O 	0.6996	0.5747	0.787	-0.491
Mof_C 	C 	0.7499	0.5416	0.8077	0.412
Mof_C 	C 	0.7562	0.456	0.8067	-0.038
Mof_C 	C 	0.6917	0.4125	0.7958	-0.045
Mof_H 	H 	0.646	0.4377	0.7877	0.03
Mof_C 	C 	0.6949	0.3319	0.7969	-0.078
Mof_H 	H 	0.6513	0.3025	0.7895	0.051
Mof_C 	C 	0.7625	0.2948	0.8089	-0.014
Mof_C 	C 	0.8269	0.3382	0.8198	-0.239
Mof_C 	C 	0.8238	0.4189	0.8187	-0.064
Mof_H 	H 	0.8674	0.4483	0.8261	0.056
Mof_P 	P 	0.9231	0.2902	0.8383	0.019
Mof_C 	C 	0.902	0.262	0.8873	0.003
Mof_C 	C 	0.96	0.21	0.9459	-0.02
Mof_C 	C 	0.96	0.22	0.9056	-0.07
Mof_C 	C 	0.9	0.243	0.968	-0.063
Mof_C 	C 	0.842	0.286	0.9497	-0.016
Mof_C 	C 	0.843	0.295	0.9094	-0.073
Mof_C 	C 	0.9994	0.3794	0.8375	-0.022
Mof_C 	C 	0.7433	0.4531	0.8068	-0.06
Mof_C 	C 	0.6885	0.4149	0.784	0.045
Mof_H 	H 	0.6552	0.4435	0.7677	0.012
Mof_C 	C 	0.683	0.3344	0.7853	0.001
Mof_H 	H 	0.646	0.3086	0.7699	0.014
Mof_C 	C 	0.7322	0.2921	0.8094	0.007
Mof_C 	C 	0.787	0.3303	0.8323	0.148
Mof_H 	H 	0.8203	0.3017	0.8486	-0.004
Mof_C 	C 	0.7925	0.4108	0.831	0.072
Mof_H 	H 	0.8295	0.4366	0.8464	0.011
Mof_C 	C 	0.822	0.759	0.9776	0.002
Mof_H 	H 	0.8688	0.7664	0.9637	0.031
Mof_C 	C 	0.822	0.756	0.0182	-0.065
Mof_H 	H 	0.8689	0.7573	0.0321	0.044
Mof_H 	H 	0.8726	0.3131	0.8279	0.095
Mof_H 	H 	0.9626	0.3391	0.8384	0.022
Mof_H 	H 	0.8036	0.324	0.8971	0.048
Mof_H 	H 	0.8021	0.3082	0.9647	0.031
Mof_H 	H 	0.8999	0.2371	0.9953	0.047
Mof_H 	H 	0.999	0.1818	0.9582	0.031
Mof_H 	H 	0.0005	0.1976	0.8906	0.05
Mof_H 	H 	0.025	0.3758	0.7831	0.051
Mof_H 	H 	0.9931	0.4121	0.8901	0.043
Mof_C 	C 	0.0369	0.4004	0.8069	-0.046
Mof_C 	C 	0.0194	0.4208	0.8664	-0.046
Mof_O 	O 	0.7397	0.6907	0.894	-0.282
Mof_C 	C 	0.6927	0.6336	0.8669	0.158
Mof_C 	C 	0.6874	0.7818	0.1032	-0.04
Mof_H 	H 	0.6444	0.8013	0.0894	0.034
Mof_C 	C 	0.7152	0.8117	0.1428	0.002
Mof_H 	H 	0.6899	0.8522	0.1562	0.031
Mof_O 	O 	0.7006	0.9243	0.8268	-0.503
Mof_O 	O 	0.8004	0.9253	0.787	-0.491
Mof_C 	C 	0.7501	0.9584	0.8077	0.412
Mof_C 	C 	0.7438	0.044	0.8067	-0.038
Mof_C 	C 	0.8083	0.0875	0.7958	-0.045
Mof_H 	H 	0.854	0.0623	0.7877	0.03
Mof_C 	C 	0.8051	0.1681	0.7969	-0.078
Mof_H 	H 	0.8487	0.1975	0.7895	0.051
Mof_C 	C 	0.7375	0.2052	0.8089	-0.014
Mof_C 	C 	0.6731	0.1618	0.8198	-0.239
Mof_C 	C 	0.6762	0.0811	0.8187	-0.064
Mof_H 	H 	0.6326	0.0517	0.8261	0.056
Mof_P 	P 	0.5769	0.2098	0.8383	0.019
Mof_C 	C 	0.598	0.238	0.8873	0.003
Mof_C 	C 	0.54	0.29	0.9459	-0.019
Mof_C 	C 	0.54	0.28	0.9056	-0.071
Mof_C 	C 	0.6	0.257	0.968	-0.063
Mof_C 	C 	0.658	0.214	0.9497	-0.016
Mof_C 	C 	0.657	0.205	0.9094	-0.073
Mof_C 	C 	0.5006	0.1206	0.8375	-0.022
Mof_C 	C 	0.7567	0.0469	0.8068	-0.06
Mof_C 	C 	0.8115	0.0851	0.784	0.045
Mof_H 	H 	0.8448	0.0565	0.7677	0.012
Mof_C 	C 	0.817	0.1656	0.7853	0.001
Mof_H 	H 	0.854	0.1914	0.7699	0.013
Mof_C 	C 	0.7678	0.2079	0.8094	0.007
Mof_C 	C 	0.713	0.1697	0.8323	0.148
Mof_H 	H 	0.6797	0.1983	0.8486	-0.004
Mof_C 	C 	0.7075	0.0892	0.831	0.072
Mof_H 	H 	0.6705	0.0634	0.8464	0.011
Mof_C 	C 	0.678	0.741	0.9776	0.002
Mof_H 	H 	0.6312	0.7336	0.9637	0.031
Mof_C 	C 	0.678	0.744	0.0182	-0.065
Mof_H 	H 	0.6311	0.7427	0.0321	0.044
Mof_H 	H 	0.6274	0.1869	0.8279	0.095
Mof_H 	H 	0.5374	0.1609	0.8384	0.022
Mof_H 	H 	0.6964	0.176	0.8971	0.048
Mof_H 	H 	0.6979	0.1918	0.9647	0.031
Mof_H 	H 	0.6001	0.2629	0.9953	0.047
Mof_H 	H 	0.501	0.3182	0.9582	0.031
Mof_H 	H 	0.4995	0.3024	0.8906	0.05
Mof_H 	H 	0.475	0.1242	0.7831	0.051
Mof_H 	H 	0.5069	0.0879	0.8901	0.044
Mof_C 	C 	0.4631	0.0996	0.8069	-0.046
Mof_C 	C 	0.4806	0.0792	0.8664	-0.046
Mof_O 	O 	0.7603	0.8093	0.894	-0.282
Mof_C 	C 	0.8073	0.8664	0.8669	0.158
Mof_Zn	Zn	0.68384	0.81616	0.84459	1.254
Mof_O 	O 	0.7051	0.7949	0.2244	-0.518
Mof_O 	O 	0.6942	0.8058	0.8983	-0.261
Mof_C 	C 	0.701	0.799	0.9795	0.092
Mof_H 	H 	0.6668	0.8332	0.9666	-0.001
Mof_C 	C 	0.7036	0.7964	0.0191	-0.061
Mof_H 	H 	0.6704	0.8296	0.0332	0.04
Mof_Zn	Zn	0.81616	0.68384	0.84459	1.254
Mof_O 	O 	0.7949	0.7051	0.2244	-0.518
Mof_O 	O 	0.8058	0.6942	0.8983	-0.261
Mof_C 	C 	0.799	0.701	0.9795	0.092
Mof_H 	H 	0.8332	0.6668	0.9666	-0.001
Mof_C 	C 	0.7964	0.7036	0.0191	-0.061
Mof_H 	H 	0.8296	0.6704	0.0332	0.04
Mof_Zn	Zn	0.81616	0.81616	0.34459	1.254
Mof_O 	O 	0.7949	0.7949	0.7244	-0.518
Mof_O 	O 	0.8058	0.8058	0.3983	-0.261
Mof_C 	C 	0.799	0.799	0.4795	0.092
Mof_H 	H 	0.8332	0.8332	0.4666	-0.001
Mof_C 	C 	0.7964	0.7964	0.5191	-0.062
Mof_H 	H 	0.8296	0.8296	0.5332	0.04
Mof_Zn	Zn	0.68384	0.68384	0.34459	1.254
Mof_O 	O 	0.7051	0.7051	0.7244	-0.518
Mof_O 	O 	0.6942	0.6942	0.3983	-0.261
Mof_C 	C 	0.701	0.701	0.4795	0.092
Mof_H 	H 	0.6668	0.6668	0.4666	-0.001
Mof_C 	C 	0.7036	0.7036	0.5191	-0.062
Mof_H 	H 	0.6704	0.6704	0.5332	0.04
Mof_Zn	Zn	0.81473	0.81473	0.77962	1.229
Mof_C 	C 	0.683	0.683	0.8471	-0.444
Mof_Zn	Zn	0.68527	0.68527	0.77962	1.229
Mof_C 	C 	0.817	0.817	0.8471	-0.444
Mof_Zn	Zn	0.81473	0.68527	0.27962	1.229
Mof_C 	C 	0.683	0.817	0.3471	-0.444
Mof_Zn	Zn	0.68527	0.81473	0.27962	1.229
Mof_C 	C 	0.817	0.683	0.3471	-0.444
Mof_C 	C 	0.75	0.75	0.9139	0.75
Mof_C 	C 	0.75	0.75	0.9581	-0.252
Mof_C 	C 	0.75	0.75	0.039	0.088
Mof_C 	C 	0.75	0.75	0.0831	-0.006
Mof_C 	C 	0.75	0.75	0.1644	-0.126
Mof_C 	C 	0.75	0.75	0.2071	0.428
Mof_O 	O 	0.75	0.75	0.812	-0.825
Mof_C 	C 	0.75	0.75	0.4139	0.75
Mof_C 	C 	0.75	0.75	0.4581	-0.252
Mof_C 	C 	0.75	0.75	0.539	0.089
Mof_C 	C 	0.75	0.75	0.5831	-0.006
Mof_C 	C 	0.75	0.75	0.6644	-0.126
Mof_C 	C 	0.75	0.75	0.7071	0.428
Mof_O 	O 	0.75	0.75	0.312	-0.825
_end
