data_functionalizedCrystal
_audit_creation_method	'EQeq! by Chris Wilmer'
_symmetry_space_group_name_H-M	'P1'
_symmetry_Int_Tables_number	1
_symmetry_cell_setting	triclinic
loop_
_symmetry_equiv_pos_as_xyz
  x,y,z
_cell_length_a	13.9668
_cell_length_b	25.3174
_cell_length_c	25.1821
_cell_angle_alpha	32.1101
_cell_angle_beta	74.4783
_cell_angle_gamma	73.4115
loop_
_atom_site_label
_atom_site_type_symbol
_atom_site_fract_x
_atom_site_fract_y
_atom_site_fract_z
_atom_site_charge
Mof_H 	H 	0.0355	0.4317	0.9077	-0.106
Mof_H 	H 	0.2742	0.4446	0.9542	-0.097
Mof_H 	H 	0.0433	0.6597	0.8779	0.189
Mof_H 	H 	0.0419	0.7503	0.8783	-0.102
Mof_H 	H 	0.1104	0.9872	0.5828	-0.089
Mof_H 	H 	0.9839	0.5973	0.7931	0.202
Mof_H 	H 	0.1064	0.898	0.5824	0.195
Mof_H 	H 	0.2217	0.6135	0.8339	0.202
Mof_C 	C 	0.19212	0.31228	0.01888	0.715
Mof_C 	C 	0.07328	0.46692	0.89472	0.38
Mof_C 	C 	0.21555	0.47485	0.92185	0.363
Mof_C 	C 	0.07946	0.87834	0.73034	-0.402
Mof_C 	C 	0.07767	0.76953	0.73053	0.428
Mof_C 	C 	0.05706	0.72574	0.81874	-0.454
Mof_C 	C 	0.1587	0.4199	0.9449	-0.448
Mof_C 	C 	0.0569	0.7795	0.8191	0.345
Mof_C 	C 	0.08271	0.93529	0.73129	0.63
Mof_C 	C 	0.09708	0.92092	0.64252	0.342
Mof_C 	C 	0.04312	0.56648	0.82508	-0.489
Mof_C 	C 	0.09558	0.86802	0.64202	-0.451
Mof_C 	C 	0.09828	0.61892	0.80332	0.477
Mof_C 	C 	0.1841	0.5759	0.8499	-0.486
Mof_O 	O 	0.06286	0.23556	0.48794	-1.127
Mof_O 	O 	0.11681	0.01943	0.65251	-0.727
Mof_O 	O 	0.05243	0.89803	0.80937	-0.766
Mof_O 	O 	0.26835	0.27181	0.06615	-0.749
Mof_O 	O 	0.14196	0.27292	0.02584	-0.792
Mof_O 	O 	0.07169	0.72051	0.72511	-0.388
Mof_H 	H 	0.4317	0.0355	0.6251	-0.08
Mof_H 	H 	0.4446	0.2742	0.327	-0.075
Mof_H 	H 	0.6597	0.0433	0.4191	0.193
Mof_H 	H 	0.7503	0.0419	0.3295	-0.095
Mof_H 	H 	0.9872	0.1104	0.3196	-0.087
Mof_H 	H 	0.5973	0.9839	0.6257	0.173
Mof_H 	H 	0.898	0.1064	0.4132	0.194
Mof_H 	H 	0.6135	0.2217	0.3309	0.189
Mof_C 	C 	0.31228	0.19212	0.47672	0.679
Mof_C 	C 	0.46692	0.07328	0.56508	0.328
Mof_C 	C 	0.47485	0.21555	0.38775	0.322
Mof_C 	C 	0.87834	0.07946	0.31186	-0.398
Mof_C 	C 	0.76953	0.07767	0.42227	0.424
Mof_C 	C 	0.72574	0.05706	0.39846	-0.448
Mof_C 	C 	0.4199	0.1587	0.4765	-0.39
Mof_C 	C 	0.7795	0.0569	0.3445	0.342
Mof_C 	C 	0.93529	0.08271	0.25071	0.629
Mof_C 	C 	0.92092	0.09708	0.33948	0.339
Mof_C 	C 	0.56648	0.04312	0.56532	-0.425
Mof_C 	C 	0.86802	0.09558	0.39438	-0.446
Mof_C 	C 	0.61892	0.09828	0.47948	0.44
Mof_C 	C 	0.5759	0.1841	0.3901	-0.444
Mof_O 	O 	0.23556	0.06286	0.21364	-1.127
Mof_O 	O 	0.01943	0.11681	0.21125	-0.726
Mof_O 	O 	0.89803	0.05243	0.24017	-0.767
Mof_O 	O 	0.27181	0.26835	0.39369	-0.746
Mof_O 	O 	0.27292	0.14196	0.55928	-0.791
Mof_O 	O 	0.72051	0.07169	0.48269	-0.375
Mof_H 	H 	0.9077	0.6251	0.0355	-0.102
Mof_H 	H 	0.9542	0.327	0.2742	-0.095
Mof_H 	H 	0.8779	0.4191	0.0433	0.192
Mof_H 	H 	0.8783	0.3295	0.0419	-0.106
Mof_H 	H 	0.5828	0.3196	0.1104	-0.083
Mof_H 	H 	0.7931	0.6257	0.9839	0.194
Mof_H 	H 	0.5824	0.4132	0.1064	0.202
Mof_H 	H 	0.8339	0.3309	0.2217	0.2
Mof_C 	C 	0.01888	0.47672	0.19212	0.712
Mof_C 	C 	0.89472	0.56508	0.07328	0.37
Mof_C 	C 	0.92185	0.38775	0.21555	0.357
Mof_C 	C 	0.73034	0.31186	0.07946	-0.413
Mof_C 	C 	0.73053	0.42227	0.07767	0.434
Mof_C 	C 	0.81874	0.39846	0.05706	-0.46
Mof_C 	C 	0.9449	0.4765	0.1587	-0.441
Mof_C 	C 	0.8191	0.3445	0.0569	0.355
Mof_C 	C 	0.73129	0.25071	0.08271	0.667
Mof_C 	C 	0.64252	0.33948	0.09708	0.354
Mof_C 	C 	0.82508	0.56532	0.04312	-0.473
Mof_C 	C 	0.64202	0.39438	0.09558	-0.456
Mof_C 	C 	0.80332	0.47948	0.09828	0.469
Mof_C 	C 	0.8499	0.3901	0.1841	-0.479
Mof_O 	O 	0.48794	0.21364	0.06286	-1.129
Mof_O 	O 	0.65251	0.21125	0.11681	-0.756
Mof_O 	O 	0.80937	0.24017	0.05243	-0.775
Mof_O 	O 	0.06615	0.39369	0.26835	-0.747
Mof_O 	O 	0.02584	0.55928	0.14196	-0.788
Mof_O 	O 	0.72511	0.48269	0.07169	-0.384
Mof_H 	H 	0.6251	0.9077	0.4317	-0.115
Mof_H 	H 	0.327	0.9542	0.4446	-0.1
Mof_H 	H 	0.4191	0.8779	0.6597	0.188
Mof_H 	H 	0.3295	0.8783	0.7503	-0.106
Mof_H 	H 	0.3196	0.5828	0.9872	-0.09
Mof_H 	H 	0.6257	0.7931	0.5973	0.219
Mof_H 	H 	0.4132	0.5824	0.898	0.194
Mof_H 	H 	0.3309	0.8339	0.6135	0.206
Mof_C 	C 	0.47672	0.01888	0.31228	0.712
Mof_C 	C 	0.56508	0.89472	0.46692	0.397
Mof_C 	C 	0.38775	0.92185	0.47485	0.371
Mof_C 	C 	0.31186	0.73034	0.87834	-0.406
Mof_C 	C 	0.42227	0.73053	0.76953	0.43
Mof_C 	C 	0.39846	0.81874	0.72574	-0.458
Mof_C 	C 	0.4765	0.9449	0.4199	-0.454
Mof_C 	C 	0.3445	0.8191	0.7795	0.347
Mof_C 	C 	0.25071	0.73129	0.93529	0.632
Mof_C 	C 	0.33948	0.64252	0.92092	0.344
Mof_C 	C 	0.56532	0.82508	0.56648	-0.522
Mof_C 	C 	0.39438	0.64202	0.86802	-0.455
Mof_C 	C 	0.47948	0.80332	0.61892	0.492
Mof_C 	C 	0.3901	0.8499	0.5759	-0.498
Mof_O 	O 	0.21364	0.48794	0.23556	-1.143
Mof_O 	O 	0.21125	0.65251	0.01943	-0.729
Mof_O 	O 	0.24017	0.80937	0.89803	-0.77
Mof_O 	O 	0.39369	0.06615	0.27181	-0.748
Mof_O 	O 	0.55928	0.02584	0.27292	-0.794
Mof_O 	O 	0.48269	0.72511	0.72051	-0.394
Mof_H 	H 	0.27607	0.49173	0.24415	0.285
Mof_H 	H 	0.2145	0.8183	0.3423	-0.115
Mof_H 	H 	0.9758	0.8054	0.2958	-0.121
Mof_H 	H 	0.2067	0.5903	0.3721	0.195
Mof_H 	H 	0.2081	0.4997	0.3717	-0.101
Mof_H 	H 	0.1396	0.2628	0.6672	-0.083
Mof_H 	H 	0.2661	0.6527	0.4569	0.226
Mof_H 	H 	0.1436	0.352	0.6676	0.202
Mof_H 	H 	0.0283	0.6365	0.4161	0.221
Mof_C 	C 	0.05788	0.93772	0.23112	0.72
Mof_C 	C 	0.17672	0.78308	0.35528	0.41
Mof_C 	C 	0.03445	0.77515	0.32815	0.416
Mof_C 	C 	0.17054	0.37166	0.51966	-0.412
Mof_C 	C 	0.17233	0.48047	0.51947	0.438
Mof_C 	C 	0.19294	0.52426	0.43126	-0.462
Mof_C 	C 	0.0913	0.8301	0.3051	-0.458
Mof_C 	C 	0.1931	0.4705	0.4309	0.357
Mof_C 	C 	0.16729	0.31471	0.51871	0.668
Mof_C 	C 	0.15292	0.32908	0.60748	0.355
Mof_C 	C 	0.20688	0.68352	0.42492	-0.533
Mof_C 	C 	0.15442	0.38198	0.60798	-0.458
Mof_C 	C 	0.15172	0.63108	0.44668	0.509
Mof_C 	C 	0.0659	0.6741	0.4001	-0.522
Mof_O 	O 	0.18714	0.01444	0.76206	-1.121
Mof_O 	O 	0.13319	0.23057	0.59749	-0.756
Mof_O 	O 	0.19757	0.35197	0.44063	-0.776
Mof_O 	O 	0.98165	0.97819	0.18385	-0.773
Mof_O 	O 	0.10804	0.97708	0.22416	-0.813
Mof_O 	O 	0.17831	0.52949	0.52489	-0.397
Mof_H 	H 	0.26194	0.00585	0.75827	0.285
Mof_H 	H 	0.8183	0.2145	0.6249	-0.114
Mof_H 	H 	0.8054	0.9758	0.923	-0.124
Mof_H 	H 	0.5903	0.2067	0.8309	0.19
Mof_H 	H 	0.4997	0.2081	0.9205	-0.1
Mof_H 	H 	0.2628	0.1396	0.9304	-0.082
Mof_H 	H 	0.6527	0.2661	0.6243	0.225
Mof_H 	H 	0.352	0.1436	0.8368	0.198
Mof_H 	H 	0.6365	0.0283	0.9191	0.216
Mof_C 	C 	0.93772	0.05788	0.77328	0.715
Mof_C 	C 	0.78308	0.17672	0.68492	0.408
Mof_C 	C 	0.77515	0.03445	0.86225	0.413
Mof_C 	C 	0.37166	0.17054	0.93814	-0.395
Mof_C 	C 	0.48047	0.17233	0.82773	0.43
Mof_C 	C 	0.52426	0.19294	0.85154	-0.453
Mof_C 	C 	0.8301	0.0913	0.7735	-0.457
Mof_C 	C 	0.4705	0.1931	0.9055	0.341
Mof_C 	C 	0.31471	0.16729	0.99929	0.616
Mof_C 	C 	0.32908	0.15292	0.91052	0.339
Mof_C 	C 	0.68352	0.20688	0.68468	-0.531
Mof_C 	C 	0.38198	0.15442	0.85562	-0.449
Mof_C 	C 	0.63108	0.15172	0.77052	0.506
Mof_C 	C 	0.6741	0.0659	0.8599	-0.521
Mof_O 	O 	0.01444	0.18714	0.03636	-1.106
Mof_O 	O 	0.23057	0.13319	0.03875	-0.729
Mof_O 	O 	0.35197	0.19757	0.00983	-0.749
Mof_O 	O 	0.97819	0.98165	0.85631	-0.764
Mof_O 	O 	0.97708	0.10804	0.69072	-0.808
Mof_O 	O 	0.52949	0.17831	0.76731	-0.394
Mof_H 	H 	0.3423	0.6249	0.2145	-0.118
Mof_H 	H 	0.2958	0.923	0.9758	-0.141
Mof_H 	H 	0.3721	0.8309	0.2067	0.192
Mof_H 	H 	0.3717	0.9205	0.2081	-0.102
Mof_H 	H 	0.6672	0.9304	0.1396	-0.085
Mof_H 	H 	0.4569	0.6243	0.2661	0.23
Mof_H 	H 	0.6676	0.8368	0.1436	0.198
Mof_H 	H 	0.4161	0.9191	0.0283	0.224
Mof_C 	C 	0.23112	0.77328	0.05788	0.737
Mof_C 	C 	0.35528	0.68492	0.17672	0.424
Mof_C 	C 	0.32815	0.86225	0.03445	0.446
Mof_C 	C 	0.51966	0.93814	0.17054	-0.4
Mof_C 	C 	0.51947	0.82773	0.17233	0.433
Mof_C 	C 	0.43126	0.85154	0.19294	-0.457
Mof_C 	C 	0.3051	0.7735	0.0913	-0.474
Mof_C 	C 	0.4309	0.9055	0.1931	0.345
Mof_C 	C 	0.51871	0.99929	0.16729	0.623
Mof_C 	C 	0.60748	0.91052	0.15292	0.342
Mof_C 	C 	0.42492	0.68468	0.20688	-0.546
Mof_C 	C 	0.60798	0.85562	0.15442	-0.453
Mof_C 	C 	0.44668	0.77052	0.15172	0.52
Mof_C 	C 	0.4001	0.8599	0.0659	-0.542
Mof_O 	O 	0.76206	0.03636	0.18714	-1.128
Mof_O 	O 	0.59749	0.03875	0.13319	-0.735
Mof_O 	O 	0.44063	0.00983	0.19757	-0.751
Mof_O 	O 	0.18385	0.85631	0.98165	-0.776
Mof_O 	O 	0.22416	0.69072	0.10804	-0.8
Mof_O 	O 	0.52489	0.76731	0.17831	-0.399
Mof_H 	H 	0.6249	0.3423	0.8183	-0.104
Mof_H 	H 	0.923	0.2958	0.8054	-0.092
Mof_H 	H 	0.8309	0.3721	0.5903	0.188
Mof_H 	H 	0.9205	0.3717	0.4997	-0.1
Mof_H 	H 	0.9304	0.6672	0.2628	-0.084
Mof_H 	H 	0.6243	0.4569	0.6527	0.215
Mof_H 	H 	0.8368	0.6676	0.352	0.193
Mof_H 	H 	0.9191	0.4161	0.6365	0.197
Mof_C 	C 	0.77328	0.23112	0.93772	0.688
Mof_C 	C 	0.68492	0.35528	0.78308	0.377
Mof_C 	C 	0.86225	0.32815	0.77515	0.351
Mof_C 	C 	0.93814	0.51966	0.37166	-0.395
Mof_C 	C 	0.82773	0.51947	0.48047	0.424
Mof_C 	C 	0.85154	0.43126	0.52426	-0.45
Mof_C 	C 	0.7735	0.3051	0.8301	-0.423
Mof_C 	C 	0.9055	0.4309	0.4705	0.336
Mof_C 	C 	0.99929	0.51871	0.31471	0.61
Mof_C 	C 	0.91052	0.60748	0.32908	0.334
Mof_C 	C 	0.68468	0.42492	0.68352	-0.503
Mof_C 	C 	0.85562	0.60798	0.38198	-0.447
Mof_C 	C 	0.77052	0.44668	0.63108	0.479
Mof_C 	C 	0.8599	0.4001	0.6741	-0.481
Mof_O 	O 	0.03636	0.76206	0.01444	-1.102
Mof_O 	O 	0.03875	0.59749	0.23057	-0.73
Mof_O 	O 	0.00983	0.44063	0.35197	-0.747
Mof_O 	O 	0.85631	0.18385	0.97819	-0.755
Mof_O 	O 	0.69072	0.22416	0.97708	-0.8
Mof_O 	O 	0.76731	0.52489	0.52949	-0.389
Mof_In	In	0.125	0.125	0.625	2.993
Mof_In	In	0.125	0.125	0.125	2.996
Mof_In	In	0.625	0.125	0.125	2.974
Mof_In	In	0.125	0.625	0.125	2.972
Mof_In	In	0.13881	0.36119	0.36119	2.893
Mof_In	In	0.36119	0.13881	0.13881	2.891
Mof_In	In	0.11119	0.88881	0.88881	2.818
Mof_In	In	0.88881	0.11119	0.11119	2.87
Mof_H 	H 	0.49173	0.27607	0.98806	0.268
Mof_H 	H 	0.00585	0.26194	0.97393	0.262
Mof_H 	H 	0.24415	0.98806	0.27607	0.265
Mof_H 	H 	0.75827	0.97393	0.26194	0.269
Mof_H 	H 	0.98806	0.24415	0.49173	0.265
Mof_H 	H 	0.97393	0.75827	0.00585	0.264
_end
