data_functionalizedCrystal
_audit_creation_method	'EQeq! by Chris Wilmer'
_symmetry_space_group_name_H-M	'P1'
_symmetry_Int_Tables_number	1
_symmetry_cell_setting	triclinic
loop_
_symmetry_equiv_pos_as_xyz
  x,y,z
_cell_length_a	27.56
_cell_length_b	27.56
_cell_length_c	27.56
_cell_angle_alpha	90
_cell_angle_beta	90
_cell_angle_gamma	90
loop_
_atom_site_label
_atom_site_type_symbol
_atom_site_fract_x
_atom_site_fract_y
_atom_site_fract_z
_atom_site_charge
Mof_Ni	Ni	0.5	0.79844	-0	1.08
Mof_Ni	Ni	0.5	0.20156	-0	1.079
Mof_Ni	Ni	2.99367e-33	0.5	0.79844	1.08
Mof_Ni	Ni	-1.65608e-33	0.5	0.20156	1.079
Mof_Ni	Ni	0.79844	0	0.5	1.08
Mof_Ni	Ni	0.20156	0	0.5	1.079
Mof_Ni	Ni	0.29844	0	0.5	1.08
Mof_Ni	Ni	0.70156	0	0.5	1.08
Mof_Ni	Ni	2.63043e-33	0.5	0.70156	1.08
Mof_Ni	Ni	5.94259e-33	0.5	0.29844	1.08
Mof_Ni	Ni	0.5	0.29844	-0	1.08
Mof_Ni	Ni	0.5	0.70156	-0	1.08
Mof_H 	H 	0.6098	0.8226	0.8888	0.035
Mof_H 	H 	0.6683	0.8221	0.8295	0.076
Mof_H 	H 	0.3902	0.1774	0.8888	0.03
Mof_H 	H 	0.3317	0.1779	0.8295	0.07
Mof_H 	H 	0.3902	0.8226	0.1112	0.027
Mof_H 	H 	0.3317	0.8221	0.1705	0.074
Mof_H 	H 	0.6098	0.1774	0.1112	0.024
Mof_H 	H 	0.6683	0.1779	0.1705	0.07
Mof_H 	H 	0.8888	0.6098	0.8226	0.035
Mof_H 	H 	0.8295	0.6683	0.8221	0.076
Mof_H 	H 	0.8888	0.3902	0.1774	0.03
Mof_H 	H 	0.8295	0.3317	0.1779	0.07
Mof_H 	H 	0.1112	0.3902	0.8226	0.028
Mof_H 	H 	0.1705	0.3317	0.8221	0.075
Mof_H 	H 	0.1112	0.6098	0.1774	0.025
Mof_H 	H 	0.1705	0.6683	0.1779	0.071
Mof_H 	H 	0.8226	0.8888	0.6098	0.036
Mof_H 	H 	0.8221	0.8295	0.6683	0.077
Mof_H 	H 	0.1774	0.8888	0.3902	0.031
Mof_H 	H 	0.1779	0.8295	0.3317	0.071
Mof_H 	H 	0.8226	0.1112	0.3902	0.028
Mof_H 	H 	0.8221	0.1705	0.3317	0.075
Mof_H 	H 	0.1774	0.1112	0.6098	0.025
Mof_H 	H 	0.1779	0.1705	0.6683	0.071
Mof_H 	H 	0.3226	0.1098	0.6112	0.027
Mof_H 	H 	0.3221	0.1683	0.6705	0.074
Mof_H 	H 	0.6774	0.8902	0.6112	0.036
Mof_H 	H 	0.6779	0.8317	0.6705	0.075
Mof_H 	H 	0.3226	0.8902	0.3888	0.035
Mof_H 	H 	0.3221	0.8317	0.3295	0.074
Mof_H 	H 	0.6774	0.1098	0.3888	0.027
Mof_H 	H 	0.6779	0.1683	0.3295	0.073
Mof_H 	H 	0.1098	0.3888	0.6774	0.027
Mof_H 	H 	0.1683	0.3295	0.6779	0.073
Mof_H 	H 	0.8902	0.3888	0.3226	0.035
Mof_H 	H 	0.8317	0.3295	0.3221	0.074
Mof_H 	H 	0.8902	0.6112	0.6774	0.036
Mof_H 	H 	0.8317	0.6705	0.6779	0.075
Mof_H 	H 	0.1098	0.6112	0.3226	0.027
Mof_H 	H 	0.1683	0.6705	0.3221	0.074
Mof_H 	H 	0.3888	0.3226	0.8902	0.035
Mof_H 	H 	0.3295	0.3221	0.8317	0.074
Mof_H 	H 	0.3888	0.6774	0.1098	0.027
Mof_H 	H 	0.3295	0.6779	0.1683	0.073
Mof_H 	H 	0.6112	0.3226	0.1098	0.027
Mof_H 	H 	0.6705	0.3221	0.1683	0.074
Mof_H 	H 	0.6112	0.6774	0.8902	0.036
Mof_H 	H 	0.6705	0.6779	0.8317	0.075
Mof_H 	H 	0.3902	0.1774	0.1112	0.024
Mof_H 	H 	0.3317	0.1779	0.1705	0.07
Mof_H 	H 	0.6098	0.8226	0.1112	0.029
Mof_H 	H 	0.6683	0.8221	0.1705	0.076
Mof_H 	H 	0.6098	0.1774	0.8888	0.032
Mof_H 	H 	0.6683	0.1779	0.8295	0.073
Mof_H 	H 	0.3902	0.8226	0.8888	0.035
Mof_H 	H 	0.3317	0.8221	0.8295	0.076
Mof_H 	H 	0.1112	0.3902	0.1774	0.024
Mof_H 	H 	0.1705	0.3317	0.1779	0.07
Mof_H 	H 	0.1112	0.6098	0.8226	0.029
Mof_H 	H 	0.1705	0.6683	0.8221	0.076
Mof_H 	H 	0.8888	0.6098	0.1774	0.032
Mof_H 	H 	0.8295	0.6683	0.1779	0.073
Mof_H 	H 	0.8888	0.3902	0.8226	0.035
Mof_H 	H 	0.8295	0.3317	0.8221	0.076
Mof_H 	H 	0.1774	0.1112	0.3902	0.024
Mof_H 	H 	0.1779	0.1705	0.3317	0.07
Mof_H 	H 	0.8226	0.1112	0.6098	0.029
Mof_H 	H 	0.8221	0.1705	0.6683	0.076
Mof_H 	H 	0.1774	0.8888	0.6098	0.032
Mof_H 	H 	0.1779	0.8295	0.6683	0.073
Mof_H 	H 	0.8226	0.8888	0.3902	0.035
Mof_H 	H 	0.8221	0.8295	0.3317	0.076
Mof_H 	H 	0.6774	0.8902	0.3888	0.035
Mof_H 	H 	0.6779	0.8317	0.3295	0.074
Mof_H 	H 	0.3226	0.1098	0.3888	0.027
Mof_H 	H 	0.3221	0.1683	0.3295	0.073
Mof_H 	H 	0.6774	0.1098	0.6112	0.028
Mof_H 	H 	0.6779	0.1683	0.6705	0.074
Mof_H 	H 	0.3226	0.8902	0.6112	0.035
Mof_H 	H 	0.3221	0.8317	0.6705	0.075
Mof_H 	H 	0.8902	0.6112	0.3226	0.035
Mof_H 	H 	0.8317	0.6705	0.3221	0.075
Mof_H 	H 	0.1098	0.6112	0.6774	0.028
Mof_H 	H 	0.1683	0.6705	0.6779	0.074
Mof_H 	H 	0.1098	0.3888	0.3226	0.027
Mof_H 	H 	0.1683	0.3295	0.3221	0.073
Mof_H 	H 	0.8902	0.3888	0.6774	0.035
Mof_H 	H 	0.8317	0.3295	0.6779	0.074
Mof_H 	H 	0.6112	0.6774	0.1098	0.028
Mof_H 	H 	0.6705	0.6779	0.1683	0.074
Mof_H 	H 	0.6112	0.3226	0.8902	0.035
Mof_H 	H 	0.6705	0.3221	0.8317	0.075
Mof_H 	H 	0.3888	0.6774	0.8902	0.035
Mof_H 	H 	0.3295	0.6779	0.8317	0.074
Mof_H 	H 	0.3888	0.3226	0.1098	0.027
Mof_H 	H 	0.3295	0.3221	0.1683	0.073
Mof_H 	H 	0.75	0.6907	0.8093	0.07
Mof_H 	H 	0.25	0.3093	0.8093	0.068
Mof_H 	H 	0.25	0.6907	0.1907	0.065
Mof_H 	H 	0.75	0.3093	0.1907	0.065
Mof_H 	H 	0.8093	0.75	0.6907	0.07
Mof_H 	H 	0.8093	0.25	0.3093	0.068
Mof_H 	H 	0.1907	0.25	0.6907	0.065
Mof_H 	H 	0.1907	0.75	0.3093	0.065
Mof_H 	H 	0.6907	0.8093	0.75	0.07
Mof_H 	H 	0.3093	0.8093	0.25	0.068
Mof_H 	H 	0.6907	0.1907	0.25	0.065
Mof_H 	H 	0.3093	0.1907	0.75	0.065
Mof_H 	H 	0.25	0.3093	0.1907	0.064
Mof_H 	H 	0.75	0.6907	0.1907	0.066
Mof_H 	H 	0.75	0.3093	0.8093	0.069
Mof_H 	H 	0.25	0.6907	0.8093	0.069
Mof_H 	H 	0.1907	0.25	0.3093	0.064
Mof_H 	H 	0.1907	0.75	0.6907	0.066
Mof_H 	H 	0.8093	0.75	0.3093	0.069
Mof_H 	H 	0.8093	0.25	0.6907	0.069
Mof_H 	H 	0.3093	0.1907	0.25	0.064
Mof_H 	H 	0.6907	0.1907	0.75	0.066
Mof_H 	H 	0.3093	0.8093	0.75	0.069
Mof_H 	H 	0.6907	0.8093	0.25	0.069
Mof_H 	H 	0.5	0.9629	0.9265	0.088
Mof_H 	H 	0.5	0.8788	0.9292	0.001
Mof_H 	H 	0.5	0.0371	0.9265	0.048
Mof_H 	H 	0.5	0.1212	0.9292	0.009
Mof_H 	H 	0.5	0.9629	0.0735	0.09
Mof_H 	H 	0.5	0.8788	0.0708	0.006
Mof_H 	H 	0.5	0.0371	0.0735	0.051
Mof_H 	H 	0.5	0.1212	0.0708	0.014
Mof_H 	H 	0.9265	0.5	0.9629	0.088
Mof_H 	H 	0.9292	0.5	0.8788	0.001
Mof_H 	H 	0.9265	0.5	0.0371	0.048
Mof_H 	H 	0.9292	0.5	0.1212	0.009
Mof_H 	H 	0.0735	0.5	0.9629	0.09
Mof_H 	H 	0.0708	0.5	0.8788	0.006
Mof_H 	H 	0.0735	0.5	0.0371	0.051
Mof_H 	H 	0.0708	0.5	0.1212	0.014
Mof_H 	H 	0.9629	0.9265	0.5	0.088
Mof_H 	H 	0.8788	0.9292	0.5	0.001
Mof_H 	H 	0.0371	0.9265	0.5	0.048
Mof_H 	H 	0.1212	0.9292	0.5	0.009
Mof_H 	H 	0.9629	0.0735	0.5	0.09
Mof_H 	H 	0.8788	0.0708	0.5	0.006
Mof_H 	H 	0.0371	0.0735	0.5	0.051
Mof_H 	H 	0.1212	0.0708	0.5	0.014
Mof_H 	H 	0.4629	0	0.5735	0.07
Mof_H 	H 	0.3788	0	0.5708	0.002
Mof_H 	H 	0.5371	0	0.5735	0.07
Mof_H 	H 	0.6212	0	0.5708	0.003
Mof_H 	H 	0.4629	0	0.4265	0.07
Mof_H 	H 	0.3788	4.82362e-33	0.4292	0.002
Mof_H 	H 	0.5371	0	0.4265	0.07
Mof_H 	H 	0.6212	4.82362e-33	0.4292	0.002
Mof_H 	H 	2.0138e-33	0.4265	0.5371	0.07
Mof_H 	H 	-1.21417e-32	0.4292	0.6212	0.002
Mof_H 	H 	6.55921e-33	0.4265	0.4629	0.07
Mof_H 	H 	1.42027e-33	0.4292	0.3788	0.002
Mof_H 	H 	-7.63343e-33	0.5735	0.5371	0.07
Mof_H 	H 	-2.1789e-32	0.5708	0.6212	0.003
Mof_H 	H 	-3.08802e-33	0.5735	0.4629	0.07
Mof_H 	H 	-8.22696e-33	0.5708	0.3788	0.002
Mof_H 	H 	0.4265	0.4629	-0	0.07
Mof_H 	H 	0.4292	0.3788	-0	0.002
Mof_H 	H 	0.4265	0.5371	-0	0.07
Mof_H 	H 	0.4292	0.6212	-0	0.002
Mof_H 	H 	0.5735	0.4629	-0	0.07
Mof_H 	H 	0.5708	0.3788	-0	0.002
Mof_H 	H 	0.5735	0.5371	-0	0.07
Mof_H 	H 	0.5708	0.6212	-0	0.003
Mof_C 	C 	0.62179	0.79318	0.87731	0.05
Mof_C 	C 	0.657	0.79284	0.84182	-0.114
Mof_C 	C 	0.37821	0.20682	0.87731	0.049
Mof_C 	C 	0.343	0.20716	0.84182	-0.117
Mof_C 	C 	0.37821	0.79318	0.12269	0.053
Mof_C 	C 	0.343	0.79284	0.15818	-0.122
Mof_C 	C 	0.62179	0.20682	0.12269	0.053
Mof_C 	C 	0.657	0.20716	0.15818	-0.123
Mof_C 	C 	0.87731	0.62179	0.79318	0.05
Mof_C 	C 	0.84182	0.657	0.79284	-0.114
Mof_C 	C 	0.87731	0.37821	0.20682	0.049
Mof_C 	C 	0.84182	0.343	0.20716	-0.117
Mof_C 	C 	0.12269	0.37821	0.79318	0.053
Mof_C 	C 	0.15818	0.343	0.79284	-0.122
Mof_C 	C 	0.12269	0.62179	0.20682	0.053
Mof_C 	C 	0.15818	0.657	0.20716	-0.123
Mof_C 	C 	0.79318	0.87731	0.62179	0.05
Mof_C 	C 	0.79284	0.84182	0.657	-0.114
Mof_C 	C 	0.20682	0.87731	0.37821	0.049
Mof_C 	C 	0.20716	0.84182	0.343	-0.117
Mof_C 	C 	0.79318	0.12269	0.37821	0.053
Mof_C 	C 	0.79284	0.15818	0.343	-0.122
Mof_C 	C 	0.20682	0.12269	0.62179	0.053
Mof_C 	C 	0.20716	0.15818	0.657	-0.123
Mof_C 	C 	0.29318	0.12179	0.62269	0.053
Mof_C 	C 	0.29284	0.157	0.65818	-0.123
Mof_C 	C 	0.70682	0.87821	0.62269	0.049
Mof_C 	C 	0.70716	0.843	0.65818	-0.114
Mof_C 	C 	0.29318	0.87821	0.37731	0.049
Mof_C 	C 	0.29284	0.843	0.34182	-0.116
Mof_C 	C 	0.70682	0.12179	0.37731	0.053
Mof_C 	C 	0.70716	0.157	0.34182	-0.122
Mof_C 	C 	0.12179	0.37731	0.70682	0.053
Mof_C 	C 	0.157	0.34182	0.70716	-0.122
Mof_C 	C 	0.87821	0.37731	0.29318	0.049
Mof_C 	C 	0.843	0.34182	0.29284	-0.116
Mof_C 	C 	0.87821	0.62269	0.70682	0.049
Mof_C 	C 	0.843	0.65818	0.70716	-0.114
Mof_C 	C 	0.12179	0.62269	0.29318	0.053
Mof_C 	C 	0.157	0.65818	0.29284	-0.123
Mof_C 	C 	0.37731	0.29318	0.87821	0.049
Mof_C 	C 	0.34182	0.29284	0.843	-0.116
Mof_C 	C 	0.37731	0.70682	0.12179	0.053
Mof_C 	C 	0.34182	0.70716	0.157	-0.122
Mof_C 	C 	0.62269	0.29318	0.12179	0.053
Mof_C 	C 	0.65818	0.29284	0.157	-0.123
Mof_C 	C 	0.62269	0.70682	0.87821	0.049
Mof_C 	C 	0.65818	0.70716	0.843	-0.114
Mof_C 	C 	0.37821	0.20682	0.12269	0.052
Mof_C 	C 	0.343	0.20716	0.15818	-0.124
Mof_C 	C 	0.62179	0.79318	0.12269	0.053
Mof_C 	C 	0.657	0.79284	0.15818	-0.121
Mof_C 	C 	0.62179	0.20682	0.87731	0.049
Mof_C 	C 	0.657	0.20716	0.84182	-0.116
Mof_C 	C 	0.37821	0.79318	0.87731	0.05
Mof_C 	C 	0.343	0.79284	0.84182	-0.115
Mof_C 	C 	0.12269	0.37821	0.20682	0.052
Mof_C 	C 	0.15818	0.343	0.20716	-0.124
Mof_C 	C 	0.12269	0.62179	0.79318	0.053
Mof_C 	C 	0.15818	0.657	0.79284	-0.121
Mof_C 	C 	0.87731	0.62179	0.20682	0.049
Mof_C 	C 	0.84182	0.657	0.20716	-0.116
Mof_C 	C 	0.87731	0.37821	0.79318	0.05
Mof_C 	C 	0.84182	0.343	0.79284	-0.115
Mof_C 	C 	0.20682	0.12269	0.37821	0.052
Mof_C 	C 	0.20716	0.15818	0.343	-0.124
Mof_C 	C 	0.79318	0.12269	0.62179	0.053
Mof_C 	C 	0.79284	0.15818	0.657	-0.121
Mof_C 	C 	0.20682	0.87731	0.62179	0.049
Mof_C 	C 	0.20716	0.84182	0.657	-0.116
Mof_C 	C 	0.79318	0.87731	0.37821	0.05
Mof_C 	C 	0.79284	0.84182	0.343	-0.115
Mof_C 	C 	0.70682	0.87821	0.37731	0.049
Mof_C 	C 	0.70716	0.843	0.34182	-0.115
Mof_C 	C 	0.29318	0.12179	0.37731	0.053
Mof_C 	C 	0.29284	0.157	0.34182	-0.123
Mof_C 	C 	0.70682	0.12179	0.62269	0.053
Mof_C 	C 	0.70716	0.157	0.65818	-0.122
Mof_C 	C 	0.29318	0.87821	0.62269	0.049
Mof_C 	C 	0.29284	0.843	0.65818	-0.115
Mof_C 	C 	0.87821	0.62269	0.29318	0.049
Mof_C 	C 	0.843	0.65818	0.29284	-0.115
Mof_C 	C 	0.12179	0.62269	0.70682	0.053
Mof_C 	C 	0.157	0.65818	0.70716	-0.122
Mof_C 	C 	0.12179	0.37731	0.29318	0.053
Mof_C 	C 	0.157	0.34182	0.29284	-0.123
Mof_C 	C 	0.87821	0.37731	0.70682	0.049
Mof_C 	C 	0.843	0.34182	0.70716	-0.115
Mof_C 	C 	0.62269	0.70682	0.12179	0.053
Mof_C 	C 	0.65818	0.70716	0.157	-0.122
Mof_C 	C 	0.62269	0.29318	0.87821	0.049
Mof_C 	C 	0.65818	0.29284	0.843	-0.115
Mof_C 	C 	0.37731	0.70682	0.87821	0.049
Mof_C 	C 	0.34182	0.70716	0.843	-0.115
Mof_C 	C 	0.37731	0.29318	0.12179	0.053
Mof_C 	C 	0.34182	0.29284	0.157	-0.123
Mof_C 	C 	0.5	0.97276	-0	0.079
Mof_C 	C 	0.5	0.02724	-0	-0.029
Mof_C 	C 	3.64727e-33	0.5	0.97276	0.079
Mof_C 	C 	7.05086e-34	0.5	0.02724	-0.029
Mof_C 	C 	0.97276	0	0.5	0.079
Mof_C 	C 	0.02724	0	0.5	-0.029
Mof_C 	C 	0.47276	0	0.5	0.051
Mof_C 	C 	0.52724	0	0.5	0.051
Mof_C 	C 	1.97683e-33	0.5	0.52724	0.051
Mof_C 	C 	1.77257e-33	0.5	0.47276	0.051
Mof_C 	C 	0.5	0.47276	-0	0.051
Mof_C 	C 	0.5	0.52724	-0	0.051
Mof_C 	C 	0.56562	0.75	0.93438	0.378
Mof_C 	C 	0.60409	0.75	0.89591	-0.113
Mof_C 	C 	0.71404	0.75	0.78596	0.042
Mof_C 	C 	0.67579	0.75	0.82421	0.054
Mof_C 	C 	0.43438	0.25	0.93438	0.378
Mof_C 	C 	0.39591	0.25	0.89591	-0.115
Mof_C 	C 	0.28596	0.25	0.78596	0.037
Mof_C 	C 	0.32421	0.25	0.82421	0.053
Mof_C 	C 	0.43438	0.75	0.06562	0.381
Mof_C 	C 	0.39591	0.75	0.10409	-0.124
Mof_C 	C 	0.28596	0.75	0.21404	0.035
Mof_C 	C 	0.32421	0.75	0.17579	0.056
Mof_C 	C 	0.56562	0.25	0.06562	0.381
Mof_C 	C 	0.60409	0.25	0.10409	-0.125
Mof_C 	C 	0.71404	0.25	0.21404	0.035
Mof_C 	C 	0.67579	0.25	0.17579	0.055
Mof_C 	C 	0.93438	0.56562	0.75	0.378
Mof_C 	C 	0.89591	0.60409	0.75	-0.113
Mof_C 	C 	0.78596	0.71404	0.75	0.042
Mof_C 	C 	0.82421	0.67579	0.75	0.054
Mof_C 	C 	0.93438	0.43438	0.25	0.378
Mof_C 	C 	0.89591	0.39591	0.25	-0.115
Mof_C 	C 	0.78596	0.28596	0.25	0.037
Mof_C 	C 	0.82421	0.32421	0.25	0.053
Mof_C 	C 	0.06562	0.43438	0.75	0.381
Mof_C 	C 	0.10409	0.39591	0.75	-0.124
Mof_C 	C 	0.21404	0.28596	0.75	0.035
Mof_C 	C 	0.17579	0.32421	0.75	0.056
Mof_C 	C 	0.06562	0.56562	0.25	0.381
Mof_C 	C 	0.10409	0.60409	0.25	-0.125
Mof_C 	C 	0.21404	0.71404	0.25	0.035
Mof_C 	C 	0.17579	0.67579	0.25	0.055
Mof_C 	C 	0.75	0.93438	0.56562	0.378
Mof_C 	C 	0.75	0.89591	0.60409	-0.113
Mof_C 	C 	0.75	0.78596	0.71404	0.042
Mof_C 	C 	0.75	0.82421	0.67579	0.054
Mof_C 	C 	0.25	0.93438	0.43438	0.378
Mof_C 	C 	0.25	0.89591	0.39591	-0.115
Mof_C 	C 	0.25	0.78596	0.28596	0.037
Mof_C 	C 	0.25	0.82421	0.32421	0.053
Mof_C 	C 	0.75	0.06562	0.43438	0.381
Mof_C 	C 	0.75	0.10409	0.39591	-0.124
Mof_C 	C 	0.75	0.21404	0.28596	0.035
Mof_C 	C 	0.75	0.17579	0.32421	0.056
Mof_C 	C 	0.25	0.06562	0.56562	0.381
Mof_C 	C 	0.25	0.10409	0.60409	-0.125
Mof_C 	C 	0.25	0.21404	0.71404	0.035
Mof_C 	C 	0.25	0.17579	0.67579	0.055
Mof_C 	C 	0.43438	0.25	0.06562	0.381
Mof_C 	C 	0.39591	0.25	0.10409	-0.126
Mof_C 	C 	0.28596	0.25	0.21404	0.032
Mof_C 	C 	0.32421	0.25	0.17579	0.055
Mof_C 	C 	0.56562	0.75	0.06562	0.381
Mof_C 	C 	0.60409	0.75	0.10409	-0.124
Mof_C 	C 	0.71404	0.75	0.21404	0.037
Mof_C 	C 	0.67579	0.75	0.17579	0.056
Mof_C 	C 	0.56562	0.25	0.93438	0.378
Mof_C 	C 	0.60409	0.25	0.89591	-0.115
Mof_C 	C 	0.71404	0.25	0.78596	0.039
Mof_C 	C 	0.67579	0.25	0.82421	0.053
Mof_C 	C 	0.43438	0.75	0.93438	0.378
Mof_C 	C 	0.39591	0.75	0.89591	-0.114
Mof_C 	C 	0.28596	0.75	0.78596	0.04
Mof_C 	C 	0.32421	0.75	0.82421	0.054
Mof_C 	C 	0.06562	0.43438	0.25	0.381
Mof_C 	C 	0.10409	0.39591	0.25	-0.126
Mof_C 	C 	0.21404	0.28596	0.25	0.032
Mof_C 	C 	0.17579	0.32421	0.25	0.055
Mof_C 	C 	0.06562	0.56562	0.75	0.381
Mof_C 	C 	0.10409	0.60409	0.75	-0.124
Mof_C 	C 	0.21404	0.71404	0.75	0.037
Mof_C 	C 	0.17579	0.67579	0.75	0.056
Mof_C 	C 	0.93438	0.56562	0.25	0.378
Mof_C 	C 	0.89591	0.60409	0.25	-0.115
Mof_C 	C 	0.78596	0.71404	0.25	0.039
Mof_C 	C 	0.82421	0.67579	0.25	0.053
Mof_C 	C 	0.93438	0.43438	0.75	0.378
Mof_C 	C 	0.89591	0.39591	0.75	-0.114
Mof_C 	C 	0.78596	0.28596	0.75	0.04
Mof_C 	C 	0.82421	0.32421	0.75	0.054
Mof_C 	C 	0.25	0.06562	0.43438	0.381
Mof_C 	C 	0.25	0.10409	0.39591	-0.126
Mof_C 	C 	0.25	0.21404	0.28596	0.032
Mof_C 	C 	0.25	0.17579	0.32421	0.055
Mof_C 	C 	0.75	0.06562	0.56562	0.381
Mof_C 	C 	0.75	0.10409	0.60409	-0.124
Mof_C 	C 	0.75	0.21404	0.71404	0.037
Mof_C 	C 	0.75	0.17579	0.67579	0.056
Mof_C 	C 	0.25	0.93438	0.56562	0.378
Mof_C 	C 	0.25	0.89591	0.60409	-0.115
Mof_C 	C 	0.25	0.78596	0.71404	0.039
Mof_C 	C 	0.25	0.82421	0.67579	0.053
Mof_C 	C 	0.75	0.93438	0.43438	0.378
Mof_C 	C 	0.75	0.89591	0.39591	-0.114
Mof_C 	C 	0.75	0.78596	0.28596	0.04
Mof_C 	C 	0.75	0.82421	0.32421	0.054
Mof_C 	C 	0.75	0.71457	0.78543	-0.105
Mof_C 	C 	0.25	0.28543	0.78543	-0.103
Mof_C 	C 	0.25	0.71457	0.21457	-0.103
Mof_C 	C 	0.75	0.28543	0.21457	-0.103
Mof_C 	C 	0.78543	0.75	0.71457	-0.105
Mof_C 	C 	0.78543	0.25	0.28543	-0.103
Mof_C 	C 	0.21457	0.25	0.71457	-0.103
Mof_C 	C 	0.21457	0.75	0.28543	-0.103
Mof_C 	C 	0.71457	0.78543	0.75	-0.105
Mof_C 	C 	0.28543	0.78543	0.25	-0.103
Mof_C 	C 	0.71457	0.21457	0.25	-0.103
Mof_C 	C 	0.28543	0.21457	0.75	-0.103
Mof_C 	C 	0.25	0.28543	0.21457	-0.102
Mof_C 	C 	0.75	0.71457	0.21457	-0.104
Mof_C 	C 	0.75	0.28543	0.78543	-0.105
Mof_C 	C 	0.25	0.71457	0.78543	-0.104
Mof_C 	C 	0.21457	0.25	0.28543	-0.102
Mof_C 	C 	0.21457	0.75	0.71457	-0.104
Mof_C 	C 	0.78543	0.75	0.28543	-0.105
Mof_C 	C 	0.78543	0.25	0.71457	-0.104
Mof_C 	C 	0.28543	0.21457	0.25	-0.102
Mof_C 	C 	0.71457	0.21457	0.75	-0.104
Mof_C 	C 	0.28543	0.78543	0.75	-0.105
Mof_C 	C 	0.71457	0.78543	0.25	-0.104
Mof_C 	C 	0.5	0.94679	0.9561	-0.118
Mof_C 	C 	0.5	0.89617	0.9581	0.114
Mof_C 	C 	0.5	0.05321	0.9561	-0.065
Mof_C 	C 	0.5	0.10383	0.9581	0.079
Mof_C 	C 	0.5	0.94679	0.0439	-0.144
Mof_C 	C 	0.5	0.89617	0.0419	0.084
Mof_C 	C 	0.5	0.05321	0.0439	-0.091
Mof_C 	C 	0.5	0.10383	0.0419	0.049
Mof_C 	C 	0.9561	0.5	0.94679	-0.118
Mof_C 	C 	0.9581	0.5	0.89617	0.114
Mof_C 	C 	0.9561	0.5	0.05321	-0.065
Mof_C 	C 	0.9581	0.5	0.10383	0.079
Mof_C 	C 	0.0439	0.5	0.94679	-0.144
Mof_C 	C 	0.0419	0.5	0.89617	0.084
Mof_C 	C 	0.0439	0.5	0.05321	-0.091
Mof_C 	C 	0.0419	0.5	0.10383	0.049
Mof_C 	C 	0.94679	0.9561	0.5	-0.118
Mof_C 	C 	0.89617	0.9581	0.5	0.114
Mof_C 	C 	0.05321	0.9561	0.5	-0.065
Mof_C 	C 	0.10383	0.9581	0.5	0.079
Mof_C 	C 	0.94679	0.0439	0.5	-0.144
Mof_C 	C 	0.89617	0.0419	0.5	0.084
Mof_C 	C 	0.05321	0.0439	0.5	-0.091
Mof_C 	C 	0.10383	0.0419	0.5	0.049
Mof_C 	C 	0.44679	0	0.5439	-0.126
Mof_C 	C 	0.39617	0	0.5419	0.073
Mof_C 	C 	0.55321	0	0.5439	-0.126
Mof_C 	C 	0.60383	0	0.5419	0.073
Mof_C 	C 	0.44679	0	0.4561	-0.127
Mof_C 	C 	0.39617	0	0.4581	0.073
Mof_C 	C 	0.55321	0	0.4561	-0.126
Mof_C 	C 	0.60383	0	0.4581	0.073
Mof_C 	C 	-7.57303e-33	0.4561	0.55321	-0.126
Mof_C 	C 	-2.55962e-33	0.4581	0.60383	0.073
Mof_C 	C 	1.67519e-33	0.4561	0.44679	-0.127
Mof_C 	C 	1.4854e-33	0.4581	0.39617	0.073
Mof_C 	C 	-7.57303e-33	0.5439	0.55321	-0.126
Mof_C 	C 	2.264e-33	0.5419	0.60383	0.073
Mof_C 	C 	6.49881e-33	0.5439	0.44679	-0.126
Mof_C 	C 	-3.33822e-33	0.5419	0.39617	0.073
Mof_C 	C 	0.4561	0.44679	-0	-0.127
Mof_C 	C 	0.4581	0.39617	-0	0.073
Mof_C 	C 	0.4561	0.55321	-0	-0.126
Mof_C 	C 	0.4581	0.60383	-0	0.073
Mof_C 	C 	0.5439	0.44679	-0	-0.126
Mof_C 	C 	0.5419	0.39617	-0	0.073
Mof_C 	C 	0.5439	0.55321	-0	-0.126
Mof_C 	C 	0.5419	0.60383	-0	0.073
Mof_N 	N 	0.5	0.8716	-0	-0.246
Mof_N 	N 	0.5	0.1284	-0	-0.235
Mof_N 	N 	-6.37926e-33	0.5	0.8716	-0.246
Mof_N 	N 	-1.93039e-33	0.5	0.1284	-0.235
Mof_N 	N 	0.8716	0	0.5	-0.246
Mof_N 	N 	0.1284	0	0.5	-0.235
Mof_N 	N 	0.3716	0	0.5	-0.228
Mof_N 	N 	0.6284	0	0.5	-0.228
Mof_N 	N 	-7.29111e-33	0.5	0.6284	-0.228
Mof_N 	N 	1.39328e-33	0.5	0.3716	-0.228
Mof_N 	N 	0.5	0.3716	-0	-0.228
Mof_N 	N 	0.5	0.6284	-0	-0.228
Mof_O 	O 	0.55081	0.79041	0.94884	-0.423
Mof_O 	O 	0.44919	0.20959	0.94884	-0.425
Mof_O 	O 	0.44919	0.79041	0.05116	-0.443
Mof_O 	O 	0.55081	0.20959	0.05116	-0.444
Mof_O 	O 	0.94884	0.55081	0.79041	-0.423
Mof_O 	O 	0.94884	0.44919	0.20959	-0.425
Mof_O 	O 	0.05116	0.44919	0.79041	-0.443
Mof_O 	O 	0.05116	0.55081	0.20959	-0.444
Mof_O 	O 	0.79041	0.94884	0.55081	-0.423
Mof_O 	O 	0.20959	0.94884	0.44919	-0.425
Mof_O 	O 	0.79041	0.05116	0.44919	-0.443
Mof_O 	O 	0.20959	0.05116	0.55081	-0.444
Mof_O 	O 	0.29041	0.05081	0.55116	-0.443
Mof_O 	O 	0.70959	0.94919	0.55116	-0.421
Mof_O 	O 	0.29041	0.94919	0.44884	-0.422
Mof_O 	O 	0.70959	0.05081	0.44884	-0.442
Mof_O 	O 	0.05081	0.44884	0.70959	-0.442
Mof_O 	O 	0.94919	0.44884	0.29041	-0.422
Mof_O 	O 	0.94919	0.55116	0.70959	-0.421
Mof_O 	O 	0.05081	0.55116	0.29041	-0.443
Mof_O 	O 	0.44884	0.29041	0.94919	-0.422
Mof_O 	O 	0.44884	0.70959	0.05081	-0.442
Mof_O 	O 	0.55116	0.29041	0.05081	-0.443
Mof_O 	O 	0.55116	0.70959	0.94919	-0.421
Mof_O 	O 	0.44919	0.20959	0.05116	-0.445
Mof_O 	O 	0.55081	0.79041	0.05116	-0.442
Mof_O 	O 	0.55081	0.20959	0.94884	-0.425
Mof_O 	O 	0.44919	0.79041	0.94884	-0.423
Mof_O 	O 	0.05116	0.44919	0.20959	-0.445
Mof_O 	O 	0.05116	0.55081	0.79041	-0.442
Mof_O 	O 	0.94884	0.55081	0.20959	-0.425
Mof_O 	O 	0.94884	0.44919	0.79041	-0.423
Mof_O 	O 	0.20959	0.05116	0.44919	-0.445
Mof_O 	O 	0.79041	0.05116	0.55081	-0.442
Mof_O 	O 	0.20959	0.94884	0.55081	-0.425
Mof_O 	O 	0.79041	0.94884	0.44919	-0.423
Mof_O 	O 	0.70959	0.94919	0.44884	-0.422
Mof_O 	O 	0.29041	0.05081	0.44884	-0.443
Mof_O 	O 	0.70959	0.05081	0.55116	-0.442
Mof_O 	O 	0.29041	0.94919	0.55116	-0.422
Mof_O 	O 	0.94919	0.55116	0.29041	-0.422
Mof_O 	O 	0.05081	0.55116	0.70959	-0.442
Mof_O 	O 	0.05081	0.44884	0.29041	-0.443
Mof_O 	O 	0.94919	0.44884	0.70959	-0.422
Mof_O 	O 	0.55116	0.70959	0.05081	-0.442
Mof_O 	O 	0.55116	0.29041	0.94919	-0.422
Mof_O 	O 	0.44884	0.70959	0.94919	-0.422
Mof_O 	O 	0.44884	0.29041	0.05081	-0.443
_end
