data_functionalizedCrystal
_audit_creation_method	'EQeq! by Chris Wilmer'
_symmetry_space_group_name_H-M	'P1'
_symmetry_Int_Tables_number	1
_symmetry_cell_setting	triclinic
loop_
_symmetry_equiv_pos_as_xyz
  x,y,z
_cell_length_a	9.47
_cell_length_b	12.351
_cell_length_c	13.575
_cell_angle_alpha	90
_cell_angle_beta	94.327
_cell_angle_gamma	90
loop_
_atom_site_label
_atom_site_type_symbol
_atom_site_fract_x
_atom_site_fract_y
_atom_site_fract_z
_atom_site_charge
Mof_Zn	Zn	0.89147	0.67955	0.05911	1.211
Mof_Zn	Zn	0.62372	0.81579	0.17921	1.234
Mof_O 	O 	0.9514	0.8118	0.1336	-0.48
Mof_O 	O 	0.807	0.8139	0.2567	-0.472
Mof_O 	O 	0.8606	0.5625	0.1496	-0.47
Mof_O 	O 	0.0719	0.5942	0.2254	-0.29
Mof_O 	O 	0.7069	0.6839	0.986	-0.351
Mof_O 	O 	0.5633	0.6808	0.1113	-0.422
Mof_O 	O 	0.6608	0.9254	0.0835	-0.439
Mof_O 	O 	0.4502	0.886	0.0057	-0.287
Mof_O 	O 	0.4623	0.8233	0.2583	-0.421
Mof_O 	O 	0.5241	0.9792	0.3323	-0.266
Mof_O 	O 	0.0529	0.684	0.9809	-0.379
Mof_O 	O 	0.9855	0.5564	0.8714	-0.252
Mof_C 	C 	0.9235	0.8327	0.2208	0.392
Mof_C 	C 	0.0366	0.8843	0.2878	-0.111
Mof_C 	C 	0.1771	0.8723	0.2683	0.059
Mof_H 	H 	0.2011	0.8307	0.2132	0.047
Mof_C 	C 	0.2836	0.9213	0.3297	-0.099
Mof_C 	C 	0.2461	0.9836	0.408	0.064
Mof_H 	H 	0.3177	0.0186	0.4492	0.036
Mof_C 	C 	0.1059	0.9959	0.4271	-0.08
Mof_C 	C 	0.9997	0.946	0.3666	0.046
Mof_H 	H 	0.9031	0.9544	0.3795	0.054
Mof_C 	C 	0.953	0.5524	0.2213	0.344
Mof_C 	C 	0.912	0.4837	0.3048	-0.101
Mof_C 	C 	0.7684	0.4637	0.3179	0.043
Mof_H 	H 	0.6968	0.4899	0.271	0.047
Mof_C 	C 	0.013	0.4415	0.3723	0.052
Mof_H 	H 	0.1102	0.4529	0.3628	0.05
Mof_C 	C 	0.5904	0.6637	0.0231	0.206
Mof_C 	C 	0.477	0.617	0.9535	-0.026
Mof_C 	C 	0.3341	0.634	0.9684	0.178
Mof_H 	H 	0.3079	0.672	0.0251	-0.038
Mof_C 	C 	0.2317	0.5949	0.9	-0.117
Mof_C 	C 	0.565	0.9342	0.0106	0.229
Mof_C 	C 	0.4354	0.91	0.3065	0.337
Mof_C 	C 	0.0761	0.6109	0.9169	0.351
Mof_Zn	Zn	0.39147	0.32045	0.55911	1.237
Mof_Zn	Zn	0.12372	0.18421	0.67921	1.236
Mof_O 	O 	0.4514	0.1882	0.6336	-0.451
Mof_O 	O 	0.307	0.1861	0.7567	-0.46
Mof_O 	O 	0.3606	0.4375	0.6496	-0.444
Mof_O 	O 	0.5719	0.4058	0.7254	-0.273
Mof_O 	O 	0.2069	0.3161	0.486	-0.47
Mof_O 	O 	0.0633	0.3192	0.6113	-0.451
Mof_O 	O 	0.1608	0.0746	0.5835	-0.434
Mof_O 	O 	0.9502	0.114	0.5057	-0.273
Mof_O 	O 	0.9623	0.1767	0.7583	-0.408
Mof_O 	O 	0.0241	0.0208	0.8323	-0.26
Mof_O 	O 	0.5529	0.316	0.4809	-0.424
Mof_O 	O 	0.4855	0.4436	0.3714	-0.272
Mof_C 	C 	0.4235	0.1673	0.7208	0.378
Mof_C 	C 	0.5366	0.1157	0.7878	-0.071
Mof_C 	C 	0.6771	0.1277	0.7683	0.024
Mof_H 	H 	0.7011	0.1693	0.7132	0.066
Mof_C 	C 	0.7836	0.0787	0.8297	-0.046
Mof_C 	C 	0.7461	0.0164	0.908	-0.028
Mof_H 	H 	0.8177	0.9814	0.9492	0.105
Mof_C 	C 	0.6059	0.0041	0.9271	0.028
Mof_C 	C 	0.4997	0.054	0.8666	-0.004
Mof_H 	H 	0.4031	0.0456	0.8795	0.084
Mof_C 	C 	0.453	0.4476	0.7213	0.341
Mof_C 	C 	0.412	0.5163	0.8048	-0.086
Mof_C 	C 	0.2684	0.5363	0.8179	0.056
Mof_H 	H 	0.1968	0.5101	0.771	0.052
Mof_C 	C 	0.513	0.5585	0.8723	0.027
Mof_H 	H 	0.6102	0.5471	0.8628	0.071
Mof_C 	C 	0.0904	0.3363	0.5231	0.377
Mof_C 	C 	0.977	0.383	0.4535	-0.101
Mof_C 	C 	0.8341	0.366	0.4684	0.054
Mof_H 	H 	0.8079	0.328	0.5251	0.057
Mof_C 	C 	0.7317	0.4051	0.4	-0.091
Mof_C 	C 	0.065	0.0658	0.5106	0.307
Mof_C 	C 	0.9354	0.09	0.8065	0.328
Mof_C 	C 	0.5761	0.3891	0.4169	0.34
_end
