data_functionalizedCrystal
_audit_creation_method	'EQeq! by Chris Wilmer'
_symmetry_space_group_name_H-M	'P1'
_symmetry_Int_Tables_number	1
_symmetry_cell_setting	triclinic
loop_
_symmetry_equiv_pos_as_xyz
  x,y,z
_cell_length_a	27.6968
_cell_length_b	27.6968
_cell_length_c	3.5351
_cell_angle_alpha	90
_cell_angle_beta	90
_cell_angle_gamma	90
loop_
_atom_site_label
_atom_site_type_symbol
_atom_site_fract_x
_atom_site_fract_y
_atom_site_fract_z
_atom_site_charge
Mof_Zn	Zn	0.28507	0.21393	0.8394	1.208
Mof_N 	N 	0.2607	0.1453	0.769	-0.276
Mof_C 	C 	0.2815	0.1081	0.927	0.103
Mof_H 	H 	0.3119	0.1095	0.0369	0.015
Mof_N 	N 	0.2545	0.0672	0.915	-0.167
Mof_C 	C 	0.2154	0.1288	0.6387	0.052
Mof_O 	O 	0.2727	0.8582	0.624	-0.466
Mof_C 	C 	0.1791	0.1534	0.452	-0.134
Mof_H 	H 	0.1825	0.1859	0.3927	0.058
Mof_O 	O 	0.3405	0.8588	0.31	-0.241
Mof_C 	C 	0.1375	0.1284	0.354	0.062
Mof_C 	C 	0.0996	0.1503	0.166	-0.1
Mof_H 	H 	0.1019	0.1828	0.1044	0.078
Mof_C 	C 	0.058	0.125	0.066	-0.014
Mof_H 	H 	0.0331	0.1403	0.9367	0.027
Mof_C 	C 	0.0546	0.0765	0.164	-0.037
Mof_H 	H 	0.0269	0.0591	0.1034	0.036
Mof_C 	C 	0.0923	0.0537	0.353	-0.078
Mof_H 	H 	0.0898	0.0212	0.4149	0.055
Mof_C 	C 	0.1341	0.0795	0.4512	0.04
Mof_C 	C 	0.1703	0.0543	0.637	-0.129
Mof_H 	H 	0.167	0.0217	0.6954	0.072
Mof_C 	C 	0.2118	0.0799	0.733	0.082
Mof_C 	C 	0.2459	0.946	0.311	0.116
Mof_H 	H 	0.2223	0.9249	0.3995	0.003
Mof_C 	C 	0.2942	0.9323	0.314	-0.166
Mof_C 	C 	0.3294	0.9638	0.182	0.131
Mof_H 	H 	0.3617	0.9546	0.1841	0.01
Mof_C 	C 	0.3163	0.0092	0.048	-0.218
Mof_H 	H 	0.3399	0.0303	0.9599	0.123
Mof_C 	C 	0.268	0.0229	0.0454	0.202
Mof_C 	C 	0.2328	0.9913	0.177	-0.21
Mof_H 	H 	0.2005	0.0005	0.1753	0.105
Mof_C 	C 	0.3022	0.8806	0.445	0.444
Mof_O 	O 	0.2861	0.2489	0.354	-0.738
Mof_H 	H 	0.3093	0.2366	0.2294	0.149
Mof_O 	O 	0.3422	0.87	0.62	-0.19
Mof_Zn	Zn	0.71493	0.78607	0.8394	1.207
Mof_N 	N 	0.7393	0.8547	0.769	-0.277
Mof_C 	C 	0.7185	0.8919	0.927	0.102
Mof_H 	H 	0.6881	0.8905	0.0369	0.014
Mof_N 	N 	0.7455	0.9328	0.915	-0.168
Mof_C 	C 	0.7846	0.8712	0.6387	0.051
Mof_O 	O 	0.7273	0.1418	0.624	-0.467
Mof_C 	C 	0.8209	0.8466	0.452	-0.135
Mof_H 	H 	0.8175	0.8141	0.3927	0.057
Mof_O 	O 	0.6595	0.1412	0.31	-0.242
Mof_C 	C 	0.8625	0.8716	0.354	0.061
Mof_C 	C 	0.9004	0.8497	0.166	-0.101
Mof_H 	H 	0.8981	0.8172	0.1044	0.078
Mof_C 	C 	0.942	0.875	0.066	-0.014
Mof_H 	H 	0.9669	0.8597	0.9367	0.027
Mof_C 	C 	0.9454	0.9235	0.164	-0.037
Mof_H 	H 	0.9731	0.9409	0.1034	0.036
Mof_C 	C 	0.9077	0.9463	0.353	-0.078
Mof_H 	H 	0.9102	0.9788	0.4149	0.055
Mof_C 	C 	0.8659	0.9205	0.4512	0.04
Mof_C 	C 	0.8297	0.9457	0.637	-0.129
Mof_H 	H 	0.833	0.9783	0.6954	0.072
Mof_C 	C 	0.7882	0.9201	0.733	0.082
Mof_C 	C 	0.7541	0.054	0.311	0.116
Mof_H 	H 	0.7777	0.0751	0.3995	0.003
Mof_C 	C 	0.7058	0.0677	0.314	-0.166
Mof_C 	C 	0.6706	0.0362	0.182	0.131
Mof_H 	H 	0.6383	0.0454	0.1841	0.01
Mof_C 	C 	0.6837	0.9908	0.048	-0.218
Mof_H 	H 	0.6601	0.9697	0.9599	0.123
Mof_C 	C 	0.732	0.9771	0.0454	0.202
Mof_C 	C 	0.7672	0.0087	0.177	-0.21
Mof_H 	H 	0.7995	0.9995	0.1753	0.105
Mof_C 	C 	0.6978	0.1194	0.445	0.444
Mof_O 	O 	0.7139	0.7511	0.354	-0.738
Mof_H 	H 	0.6907	0.7634	0.2294	0.149
Mof_O 	O 	0.6578	0.13	0.62	-0.19
Mof_Zn	Zn	0.71393	0.21493	0.6606	1.204
Mof_N 	N 	0.6453	0.2393	0.731	-0.276
Mof_C 	C 	0.6081	0.2185	0.573	0.094
Mof_H 	H 	0.6095	0.1881	0.4631	0.02
Mof_N 	N 	0.5672	0.2455	0.585	-0.168
Mof_C 	C 	0.6288	0.2846	0.8613	0.042
Mof_O 	O 	0.3582	0.2273	0.876	-0.455
Mof_C 	C 	0.6534	0.3209	0.048	-0.124
Mof_H 	H 	0.6859	0.3175	0.1073	0.056
Mof_O 	O 	0.3588	0.1595	0.19	-0.245
Mof_C 	C 	0.6284	0.3625	0.146	0.056
Mof_C 	C 	0.6503	0.4004	0.334	-0.098
Mof_H 	H 	0.6828	0.3981	0.3956	0.078
Mof_C 	C 	0.625	0.442	0.434	-0.014
Mof_H 	H 	0.6403	0.4669	0.5633	0.026
Mof_C 	C 	0.5765	0.4454	0.336	-0.036
Mof_H 	H 	0.5591	0.4731	0.3966	0.035
Mof_C 	C 	0.5537	0.4077	0.147	-0.081
Mof_H 	H 	0.5212	0.4102	0.0851	0.055
Mof_C 	C 	0.5795	0.3659	0.0488	0.045
Mof_C 	C 	0.5543	0.3297	0.863	-0.135
Mof_H 	H 	0.5217	0.333	0.8046	0.075
Mof_C 	C 	0.5799	0.2882	0.767	0.086
Mof_C 	C 	0.446	0.2541	0.189	0.112
Mof_H 	H 	0.4249	0.2777	0.1005	0.002
Mof_C 	C 	0.4323	0.2058	0.186	-0.162
Mof_C 	C 	0.4638	0.1706	0.318	0.127
Mof_H 	H 	0.4546	0.1383	0.3159	0.011
Mof_C 	C 	0.5092	0.1837	0.452	-0.215
Mof_H 	H 	0.5303	0.1601	0.5401	0.122
Mof_C 	C 	0.5229	0.232	0.4546	0.202
Mof_C 	C 	0.4913	0.2672	0.323	-0.209
Mof_H 	H 	0.5005	0.2995	0.3247	0.105
Mof_C 	C 	0.3806	0.1978	0.055	0.429
Mof_O 	O 	0.7489	0.2139	0.146	-0.733
Mof_H 	H 	0.7366	0.1907	0.2706	0.151
Mof_O 	O 	0.37	0.1578	0.88	-0.18
Mof_Zn	Zn	0.28607	0.78507	0.6606	1.204
Mof_N 	N 	0.3547	0.7607	0.731	-0.276
Mof_C 	C 	0.3919	0.7815	0.573	0.094
Mof_H 	H 	0.3905	0.8119	0.4631	0.02
Mof_N 	N 	0.4328	0.7545	0.585	-0.168
Mof_C 	C 	0.3712	0.7154	0.8613	0.042
Mof_O 	O 	0.6418	0.7727	0.876	-0.455
Mof_C 	C 	0.3466	0.6791	0.048	-0.124
Mof_H 	H 	0.3141	0.6825	0.1073	0.056
Mof_O 	O 	0.6412	0.8405	0.19	-0.245
Mof_C 	C 	0.3716	0.6375	0.146	0.056
Mof_C 	C 	0.3497	0.5996	0.334	-0.098
Mof_H 	H 	0.3172	0.6019	0.3956	0.078
Mof_C 	C 	0.375	0.558	0.434	-0.014
Mof_H 	H 	0.3597	0.5331	0.5633	0.026
Mof_C 	C 	0.4235	0.5546	0.336	-0.036
Mof_H 	H 	0.4409	0.5269	0.3966	0.035
Mof_C 	C 	0.4463	0.5923	0.147	-0.081
Mof_H 	H 	0.4788	0.5898	0.0851	0.055
Mof_C 	C 	0.4205	0.6341	0.0488	0.045
Mof_C 	C 	0.4457	0.6703	0.863	-0.135
Mof_H 	H 	0.4783	0.667	0.8046	0.075
Mof_C 	C 	0.4201	0.7118	0.767	0.086
Mof_C 	C 	0.554	0.7459	0.189	0.112
Mof_H 	H 	0.5751	0.7223	0.1005	0.002
Mof_C 	C 	0.5677	0.7942	0.186	-0.162
Mof_C 	C 	0.5362	0.8294	0.318	0.127
Mof_H 	H 	0.5454	0.8617	0.3159	0.011
Mof_C 	C 	0.4908	0.8163	0.452	-0.215
Mof_H 	H 	0.4697	0.8399	0.5401	0.122
Mof_C 	C 	0.4771	0.768	0.4546	0.202
Mof_C 	C 	0.5087	0.7328	0.323	-0.209
Mof_H 	H 	0.4995	0.7005	0.3247	0.105
Mof_C 	C 	0.6194	0.8022	0.055	0.429
Mof_O 	O 	0.2511	0.7861	0.146	-0.733
Mof_H 	H 	0.2634	0.8093	0.2706	0.151
Mof_O 	O 	0.63	0.8422	0.88	-0.18
Mof_Zn	Zn	0.78507	0.71393	0.3394	1.204
Mof_N 	N 	0.7607	0.6453	0.269	-0.276
Mof_C 	C 	0.7815	0.6081	0.427	0.094
Mof_H 	H 	0.8119	0.6095	0.5369	0.02
Mof_N 	N 	0.7545	0.5672	0.415	-0.168
Mof_C 	C 	0.7154	0.6288	0.1387	0.042
Mof_O 	O 	0.7727	0.3582	0.124	-0.455
Mof_C 	C 	0.6791	0.6534	0.952	-0.124
Mof_H 	H 	0.6825	0.6859	0.8927	0.056
Mof_O 	O 	0.8405	0.3588	0.81	-0.245
Mof_C 	C 	0.6375	0.6284	0.854	0.056
Mof_C 	C 	0.5996	0.6503	0.666	-0.098
Mof_H 	H 	0.6019	0.6828	0.6044	0.078
Mof_C 	C 	0.558	0.625	0.566	-0.014
Mof_H 	H 	0.5331	0.6403	0.4367	0.026
Mof_C 	C 	0.5546	0.5765	0.664	-0.036
Mof_H 	H 	0.5269	0.5591	0.6034	0.035
Mof_C 	C 	0.5923	0.5537	0.853	-0.081
Mof_H 	H 	0.5898	0.5212	0.9149	0.055
Mof_C 	C 	0.6341	0.5795	0.9512	0.045
Mof_C 	C 	0.6703	0.5543	0.137	-0.135
Mof_H 	H 	0.667	0.5217	0.1954	0.075
Mof_C 	C 	0.7118	0.5799	0.233	0.086
Mof_C 	C 	0.7459	0.446	0.811	0.112
Mof_H 	H 	0.7223	0.4249	0.8995	0.002
Mof_C 	C 	0.7942	0.4323	0.814	-0.162
Mof_C 	C 	0.8294	0.4638	0.682	0.127
Mof_H 	H 	0.8617	0.4546	0.6841	0.011
Mof_C 	C 	0.8163	0.5092	0.548	-0.215
Mof_H 	H 	0.8399	0.5303	0.4599	0.122
Mof_C 	C 	0.768	0.5229	0.5454	0.202
Mof_C 	C 	0.7328	0.4913	0.677	-0.209
Mof_H 	H 	0.7005	0.5005	0.6753	0.105
Mof_C 	C 	0.8022	0.3806	0.945	0.429
Mof_O 	O 	0.7861	0.7489	0.854	-0.733
Mof_H 	H 	0.8093	0.7366	0.7294	0.151
Mof_O 	O 	0.8422	0.37	0.12	-0.18
Mof_Zn	Zn	0.21493	0.28607	0.3394	1.204
Mof_N 	N 	0.2393	0.3547	0.269	-0.276
Mof_C 	C 	0.2185	0.3919	0.427	0.094
Mof_H 	H 	0.1881	0.3905	0.5369	0.02
Mof_N 	N 	0.2455	0.4328	0.415	-0.168
Mof_C 	C 	0.2846	0.3712	0.1387	0.042
Mof_O 	O 	0.2273	0.6418	0.124	-0.455
Mof_C 	C 	0.3209	0.3466	0.952	-0.124
Mof_H 	H 	0.3175	0.3141	0.8927	0.056
Mof_O 	O 	0.1595	0.6412	0.81	-0.245
Mof_C 	C 	0.3625	0.3716	0.854	0.056
Mof_C 	C 	0.4004	0.3497	0.666	-0.098
Mof_H 	H 	0.3981	0.3172	0.6044	0.078
Mof_C 	C 	0.442	0.375	0.566	-0.014
Mof_H 	H 	0.4669	0.3597	0.4367	0.026
Mof_C 	C 	0.4454	0.4235	0.664	-0.036
Mof_H 	H 	0.4731	0.4409	0.6034	0.035
Mof_C 	C 	0.4077	0.4463	0.853	-0.081
Mof_H 	H 	0.4102	0.4788	0.9149	0.055
Mof_C 	C 	0.3659	0.4205	0.9512	0.045
Mof_C 	C 	0.3297	0.4457	0.137	-0.135
Mof_H 	H 	0.333	0.4783	0.1954	0.075
Mof_C 	C 	0.2882	0.4201	0.233	0.086
Mof_C 	C 	0.2541	0.554	0.811	0.112
Mof_H 	H 	0.2777	0.5751	0.8995	0.002
Mof_C 	C 	0.2058	0.5677	0.814	-0.162
Mof_C 	C 	0.1706	0.5362	0.682	0.127
Mof_H 	H 	0.1383	0.5454	0.6841	0.011
Mof_C 	C 	0.1837	0.4908	0.548	-0.215
Mof_H 	H 	0.1601	0.4697	0.4599	0.122
Mof_C 	C 	0.232	0.4771	0.5454	0.202
Mof_C 	C 	0.2672	0.5087	0.677	-0.209
Mof_H 	H 	0.2995	0.4995	0.6753	0.105
Mof_C 	C 	0.1978	0.6194	0.945	0.429
Mof_O 	O 	0.2139	0.2511	0.854	-0.733
Mof_H 	H 	0.1907	0.2634	0.7294	0.151
Mof_O 	O 	0.1578	0.63	0.12	-0.18
Mof_Zn	Zn	0.21393	0.71493	0.1606	1.207
Mof_N 	N 	0.1453	0.7393	0.231	-0.277
Mof_C 	C 	0.1081	0.7185	0.073	0.102
Mof_H 	H 	0.1095	0.6881	0.9631	0.014
Mof_N 	N 	0.0672	0.7455	0.085	-0.168
Mof_C 	C 	0.1288	0.7846	0.3613	0.051
Mof_O 	O 	0.8582	0.7273	0.376	-0.467
Mof_C 	C 	0.1534	0.8209	0.548	-0.135
Mof_H 	H 	0.1859	0.8175	0.6073	0.057
Mof_O 	O 	0.8588	0.6595	0.69	-0.242
Mof_C 	C 	0.1284	0.8625	0.646	0.061
Mof_C 	C 	0.1503	0.9004	0.834	-0.101
Mof_H 	H 	0.1828	0.8981	0.8956	0.078
Mof_C 	C 	0.125	0.942	0.934	-0.014
Mof_H 	H 	0.1403	0.9669	0.0633	0.027
Mof_C 	C 	0.0765	0.9454	0.836	-0.037
Mof_H 	H 	0.0591	0.9731	0.8966	0.036
Mof_C 	C 	0.0537	0.9077	0.647	-0.078
Mof_H 	H 	0.0212	0.9102	0.5851	0.055
Mof_C 	C 	0.0795	0.8659	0.5488	0.04
Mof_C 	C 	0.0543	0.8297	0.363	-0.129
Mof_H 	H 	0.0217	0.833	0.3046	0.072
Mof_C 	C 	0.0799	0.7882	0.267	0.082
Mof_C 	C 	0.946	0.7541	0.689	0.116
Mof_H 	H 	0.9249	0.7777	0.6005	0.003
Mof_C 	C 	0.9323	0.7058	0.686	-0.166
Mof_C 	C 	0.9638	0.6706	0.818	0.131
Mof_H 	H 	0.9546	0.6383	0.8159	0.01
Mof_C 	C 	0.0092	0.6837	0.952	-0.218
Mof_H 	H 	0.0303	0.6601	0.0401	0.123
Mof_C 	C 	0.0229	0.732	0.9546	0.202
Mof_C 	C 	0.9913	0.7672	0.823	-0.21
Mof_H 	H 	0.0005	0.7995	0.8247	0.105
Mof_C 	C 	0.8806	0.6978	0.555	0.444
Mof_O 	O 	0.2489	0.7139	0.646	-0.738
Mof_H 	H 	0.2366	0.6907	0.7706	0.149
Mof_O 	O 	0.87	0.6578	0.38	-0.19
Mof_Zn	Zn	0.78607	0.28507	0.1606	1.207
Mof_N 	N 	0.8547	0.2607	0.231	-0.277
Mof_C 	C 	0.8919	0.2815	0.073	0.102
Mof_H 	H 	0.8905	0.3119	0.9631	0.014
Mof_N 	N 	0.9328	0.2545	0.085	-0.168
Mof_C 	C 	0.8712	0.2154	0.3613	0.051
Mof_O 	O 	0.1418	0.2727	0.376	-0.467
Mof_C 	C 	0.8466	0.1791	0.548	-0.135
Mof_H 	H 	0.8141	0.1825	0.6073	0.057
Mof_O 	O 	0.1412	0.3405	0.69	-0.242
Mof_C 	C 	0.8716	0.1375	0.646	0.061
Mof_C 	C 	0.8497	0.0996	0.834	-0.101
Mof_H 	H 	0.8172	0.1019	0.8956	0.078
Mof_C 	C 	0.875	0.058	0.934	-0.014
Mof_H 	H 	0.8597	0.0331	0.0633	0.027
Mof_C 	C 	0.9235	0.0546	0.836	-0.037
Mof_H 	H 	0.9409	0.0269	0.8966	0.036
Mof_C 	C 	0.9463	0.0923	0.647	-0.078
Mof_H 	H 	0.9788	0.0898	0.5851	0.055
Mof_C 	C 	0.9205	0.1341	0.5488	0.04
Mof_C 	C 	0.9457	0.1703	0.363	-0.129
Mof_H 	H 	0.9783	0.167	0.3046	0.072
Mof_C 	C 	0.9201	0.2118	0.267	0.082
Mof_C 	C 	0.054	0.2459	0.689	0.116
Mof_H 	H 	0.0751	0.2223	0.6005	0.003
Mof_C 	C 	0.0677	0.2942	0.686	-0.166
Mof_C 	C 	0.0362	0.3294	0.818	0.131
Mof_H 	H 	0.0454	0.3617	0.8159	0.01
Mof_C 	C 	0.9908	0.3163	0.952	-0.218
Mof_H 	H 	0.9697	0.3399	0.0401	0.123
Mof_C 	C 	0.9771	0.268	0.9546	0.202
Mof_C 	C 	0.0087	0.2328	0.823	-0.21
Mof_H 	H 	0.9995	0.2005	0.8247	0.105
Mof_C 	C 	0.1194	0.3022	0.555	0.444
Mof_O 	O 	0.7511	0.2861	0.646	-0.738
Mof_H 	H 	0.7634	0.3093	0.7706	0.149
Mof_O 	O 	0.13	0.3422	0.38	-0.19
_end
