data_functionalizedCrystal
_audit_creation_method	'EQeq! by Chris Wilmer'
_symmetry_space_group_name_H-M	'P1'
_symmetry_Int_Tables_number	1
_symmetry_cell_setting	triclinic
loop_
_symmetry_equiv_pos_as_xyz
  x,y,z
_cell_length_a	8.911
_cell_length_b	8.098
_cell_length_c	10.289
_cell_angle_alpha	90
_cell_angle_beta	101.433
_cell_angle_gamma	90
loop_
_atom_site_label
_atom_site_type_symbol
_atom_site_fract_x
_atom_site_fract_y
_atom_site_fract_z
_atom_site_charge
Mof_Zn	Zn	0.31382	0.05878	0.56136	1.189
Mof_O 	O 	0.8418	0.1294	0.459	-0.411
Mof_N 	N 	0.3784	0.2205	0.7123	-0.297
Mof_C 	C 	0.9816	0.0916	0.4923	0.215
Mof_N 	N 	0.3769	0.3617	0.8966	-0.259
Mof_N 	N 	0.5198	0.3815	0.8653	-0.253
Mof_C 	C 	0.2992	0.2659	0.8035	0.107
Mof_H 	H 	0.1987	0.2331	0.8015	-0.024
Mof_C 	C 	0.5138	0.2944	0.7545	0.181
Mof_O 	O 	0.0909	0.1902	0.511	-0.366
Mof_N 	N 	0.6344	0.2829	0.6902	-0.323
Mof_H 	H 	0.7188	0.3334	0.7212	0.136
Mof_H 	H 	0.6255	0.2253	0.6189	0.109
Mof_Zn	Zn	0.68618	0.55878	0.93864	1.188
Mof_O 	O 	0.1582	0.6294	0.041	-0.412
Mof_N 	N 	0.6216	0.7205	0.7877	-0.298
Mof_C 	C 	0.0184	0.5916	0.0077	0.213
Mof_N 	N 	0.6231	0.8617	0.6034	-0.26
Mof_N 	N 	0.4802	0.8815	0.6347	-0.254
Mof_C 	C 	0.7008	0.7659	0.6965	0.107
Mof_H 	H 	0.8013	0.7331	0.6985	-0.024
Mof_C 	C 	0.4862	0.7944	0.7455	0.182
Mof_O 	O 	0.9091	0.6902	0.989	-0.365
Mof_N 	N 	0.3656	0.7829	0.8098	-0.323
Mof_H 	H 	0.2812	0.8334	0.7788	0.136
Mof_H 	H 	0.3745	0.7253	0.8811	0.109
Mof_Zn	Zn	0.68618	0.94122	0.43864	1.188
Mof_O 	O 	0.1582	0.8706	0.541	-0.412
Mof_N 	N 	0.6216	0.7795	0.2877	-0.298
Mof_C 	C 	0.0184	0.9084	0.5077	0.214
Mof_N 	N 	0.6231	0.6383	0.1034	-0.26
Mof_N 	N 	0.4802	0.6185	0.1347	-0.254
Mof_C 	C 	0.7008	0.7341	0.1965	0.107
Mof_H 	H 	0.8013	0.7669	0.1985	-0.024
Mof_C 	C 	0.4862	0.7056	0.2455	0.181
Mof_O 	O 	0.9091	0.8098	0.489	-0.366
Mof_N 	N 	0.3656	0.7171	0.3098	-0.323
Mof_H 	H 	0.2812	0.6666	0.2788	0.136
Mof_H 	H 	0.3745	0.7747	0.3811	0.109
Mof_Zn	Zn	0.31382	0.44122	0.06136	1.188
Mof_O 	O 	0.8418	0.3706	0.959	-0.412
Mof_N 	N 	0.3784	0.2795	0.2123	-0.298
Mof_C 	C 	0.9816	0.4084	0.9923	0.213
Mof_N 	N 	0.3769	0.1383	0.3966	-0.26
Mof_N 	N 	0.5198	0.1185	0.3653	-0.254
Mof_C 	C 	0.2992	0.2341	0.3035	0.107
Mof_H 	H 	0.1987	0.2669	0.3015	-0.024
Mof_C 	C 	0.5138	0.2056	0.2545	0.182
Mof_O 	O 	0.0909	0.3098	0.011	-0.365
Mof_N 	N 	0.6344	0.2171	0.1902	-0.323
Mof_H 	H 	0.7188	0.1666	0.2212	0.136
Mof_H 	H 	0.6255	0.2747	0.1189	0.109
_end
