data_functionalizedCrystal
_audit_creation_method	'EQeq! by Chris Wilmer'
_symmetry_space_group_name_H-M	'P1'
_symmetry_Int_Tables_number	1
_symmetry_cell_setting	triclinic
loop_
_symmetry_equiv_pos_as_xyz
  x,y,z
_cell_length_a	41.516
_cell_length_b	41.516
_cell_length_c	41.516
_cell_angle_alpha	90
_cell_angle_beta	90
_cell_angle_gamma	90
loop_
_atom_site_label
_atom_site_type_symbol
_atom_site_fract_x
_atom_site_fract_y
_atom_site_fract_z
_atom_site_charge
Mof_O 	O 	0.9401	0.56119	0.7042	-0.374
Mof_O 	O 	0.9726	0.59318	0.7478	-0.367
Mof_O 	O 	0.0317	0.4657	0.6648	-0.391
Mof_C 	C 	0.9309	0.5739	0.6502	-0.113
Mof_C 	C 	0.919	0.5845	0.5948	-0.019
Mof_C 	C 	0.9386	0.5693	0.6175	0.058
Mof_C 	C 	0.906	0.597	0.6603	0.056
Mof_C 	C 	0.8859	0.61	0.6359	-0.017
Mof_C 	C 	0.8934	0.6057	0.603	0.016
Mof_C 	C 	0.949	0.5541	0.6751	0.41
Mof_C 	C 	0.0296	0.6572	0.7298	0.066
Mof_C 	C 	0.8719	0.6197	0.5806	-0.006
Mof_C 	C 	0.8403	0.609	0.5772	0.004
Mof_C 	C 	0.8205	0.6229	0.554	-0.001
Mof_C 	C 	0.8322	0.6473	0.5343	0
Mof_C 	C 	0.8638	0.6579	0.5378	-0.001
Mof_C 	C 	0.8836	0.6441	0.5609	0.003
Mof_C 	C 	0.0287	0.6898	0.7212	-0.023
Mof_O 	O 	0.9757	0.9408	0.922	-0.38
Mof_C 	C 	0.9772	0.8699	0.7718	0.002
Mof_C 	C 	0.975	0.8518	0.7397	-0.002
Mof_C 	C 	0.9737	0.9036	0.8299	-0.019
Mof_C 	C 	0.9752	0.7567	0.7052	0.005
Mof_C 	C 	0.9747	0.7902	0.6966	-0.004
Mof_C 	C 	0.973	0.9135	0.8622	0.048
Mof_O 	O 	0.0599	0.43881	0.7042	-0.372
Mof_O 	O 	0.0274	0.40682	0.7478	-0.364
Mof_O 	O 	0.9683	0.5343	0.6648	-0.391
Mof_C 	C 	0.0691	0.4261	0.6502	-0.112
Mof_C 	C 	0.081	0.4155	0.5948	-0.017
Mof_C 	C 	0.0614	0.4307	0.6175	0.06
Mof_C 	C 	0.094	0.403	0.6603	0.057
Mof_C 	C 	0.1141	0.39	0.6359	-0.016
Mof_C 	C 	0.1066	0.3943	0.603	0.017
Mof_C 	C 	0.051	0.4459	0.6751	0.411
Mof_C 	C 	0.9704	0.3428	0.7298	0.065
Mof_C 	C 	0.1281	0.3803	0.5806	-0.006
Mof_C 	C 	0.1597	0.391	0.5772	0.005
Mof_C 	C 	0.1795	0.3771	0.554	0
Mof_C 	C 	0.1678	0.3527	0.5343	0.001
Mof_C 	C 	0.1362	0.3421	0.5378	-0
Mof_C 	C 	0.1164	0.3559	0.5609	0.004
Mof_C 	C 	0.9713	0.3102	0.7212	-0.025
Mof_O 	O 	0.0243	0.0592	0.922	-0.379
Mof_C 	C 	0.0228	0.1301	0.7718	0.005
Mof_C 	C 	0.025	0.1482	0.7397	0
Mof_C 	C 	0.0263	0.0964	0.8299	-0.017
Mof_C 	C 	0.0248	0.2433	0.7052	0.007
Mof_C 	C 	0.0253	0.2098	0.6966	-0.002
Mof_C 	C 	0.027	0.0865	0.8622	0.05
Mof_O 	O 	0.0599	0.56119	0.2958	-0.372
Mof_O 	O 	0.0274	0.59318	0.2522	-0.364
Mof_O 	O 	0.9683	0.4657	0.3352	-0.391
Mof_C 	C 	0.0691	0.5739	0.3498	-0.112
Mof_C 	C 	0.081	0.5845	0.4052	-0.017
Mof_C 	C 	0.0614	0.5693	0.3825	0.06
Mof_C 	C 	0.094	0.597	0.3397	0.057
Mof_C 	C 	0.1141	0.61	0.3641	-0.016
Mof_C 	C 	0.1066	0.6057	0.397	0.017
Mof_C 	C 	0.051	0.5541	0.3249	0.411
Mof_C 	C 	0.9704	0.6572	0.2702	0.065
Mof_C 	C 	0.1281	0.6197	0.4194	-0.006
Mof_C 	C 	0.1597	0.609	0.4228	0.005
Mof_C 	C 	0.1795	0.6229	0.446	0
Mof_C 	C 	0.1678	0.6473	0.4657	0.001
Mof_C 	C 	0.1362	0.6579	0.4622	-0
Mof_C 	C 	0.1164	0.6441	0.4391	0.004
Mof_C 	C 	0.9713	0.6898	0.2788	-0.024
Mof_O 	O 	0.0243	0.9408	0.078	-0.378
Mof_C 	C 	0.0228	0.8699	0.2282	0.005
Mof_C 	C 	0.025	0.8518	0.2603	0
Mof_C 	C 	0.0263	0.9036	0.1701	-0.017
Mof_C 	C 	0.0248	0.7567	0.2948	0.007
Mof_C 	C 	0.0253	0.7902	0.3034	-0.002
Mof_C 	C 	0.027	0.9135	0.1378	0.05
Mof_O 	O 	0.9401	0.43881	0.2958	-0.373
Mof_O 	O 	0.9726	0.40682	0.2522	-0.366
Mof_O 	O 	0.0317	0.5343	0.3352	-0.39
Mof_C 	C 	0.9309	0.4261	0.3498	-0.112
Mof_C 	C 	0.919	0.4155	0.4052	-0.018
Mof_C 	C 	0.9386	0.4307	0.3825	0.059
Mof_C 	C 	0.906	0.403	0.3397	0.057
Mof_C 	C 	0.8859	0.39	0.3641	-0.016
Mof_C 	C 	0.8934	0.3943	0.397	0.017
Mof_C 	C 	0.949	0.4459	0.3249	0.411
Mof_C 	C 	0.0296	0.3428	0.2702	0.067
Mof_C 	C 	0.8719	0.3803	0.4194	-0.005
Mof_C 	C 	0.8403	0.391	0.4228	0.005
Mof_C 	C 	0.8205	0.3771	0.446	-0
Mof_C 	C 	0.8322	0.3527	0.4657	0.001
Mof_C 	C 	0.8638	0.3421	0.4622	-0
Mof_C 	C 	0.8836	0.3559	0.4391	0.003
Mof_C 	C 	0.0287	0.3102	0.2788	-0.023
Mof_O 	O 	0.9757	0.0592	0.078	-0.38
Mof_C 	C 	0.9772	0.1301	0.2282	0.002
Mof_C 	C 	0.975	0.1482	0.2603	-0.002
Mof_C 	C 	0.9737	0.0964	0.1701	-0.019
Mof_C 	C 	0.9752	0.2433	0.2948	0.005
Mof_C 	C 	0.9747	0.2098	0.3034	-0.004
Mof_C 	C 	0.973	0.0865	0.1378	0.048
Mof_O 	O 	0.7042	0.9401	0.56119	-0.373
Mof_O 	O 	0.7478	0.9726	0.59318	-0.366
Mof_O 	O 	0.6648	0.0317	0.4657	-0.39
Mof_C 	C 	0.6502	0.9309	0.5739	-0.112
Mof_C 	C 	0.5948	0.919	0.5845	-0.018
Mof_C 	C 	0.6175	0.9386	0.5693	0.059
Mof_C 	C 	0.6603	0.906	0.597	0.057
Mof_C 	C 	0.6359	0.8859	0.61	-0.016
Mof_C 	C 	0.603	0.8934	0.6057	0.017
Mof_C 	C 	0.6751	0.949	0.5541	0.411
Mof_C 	C 	0.7298	0.0296	0.6572	0.067
Mof_C 	C 	0.5806	0.8719	0.6197	-0.005
Mof_C 	C 	0.5772	0.8403	0.609	0.005
Mof_C 	C 	0.554	0.8205	0.6229	0
Mof_C 	C 	0.5343	0.8322	0.6473	0.001
Mof_C 	C 	0.5378	0.8638	0.6579	-0
Mof_C 	C 	0.5609	0.8836	0.6441	0.003
Mof_C 	C 	0.7212	0.0287	0.6898	-0.023
Mof_O 	O 	0.922	0.9757	0.9408	-0.38
Mof_C 	C 	0.7718	0.9772	0.8699	0.002
Mof_C 	C 	0.7397	0.975	0.8518	-0.002
Mof_C 	C 	0.8299	0.9737	0.9036	-0.019
Mof_C 	C 	0.7052	0.9752	0.7567	0.005
Mof_C 	C 	0.6966	0.9747	0.7902	-0.004
Mof_C 	C 	0.8622	0.973	0.9135	0.048
Mof_O 	O 	0.7042	0.0599	0.43881	-0.372
Mof_O 	O 	0.7478	0.0274	0.40682	-0.364
Mof_O 	O 	0.6648	0.9683	0.5343	-0.391
Mof_C 	C 	0.6502	0.0691	0.4261	-0.112
Mof_C 	C 	0.5948	0.081	0.4155	-0.017
Mof_C 	C 	0.6175	0.0614	0.4307	0.06
Mof_C 	C 	0.6603	0.094	0.403	0.057
Mof_C 	C 	0.6359	0.1141	0.39	-0.016
Mof_C 	C 	0.603	0.1066	0.3943	0.017
Mof_C 	C 	0.6751	0.051	0.4459	0.411
Mof_C 	C 	0.7298	0.9704	0.3428	0.065
Mof_C 	C 	0.5806	0.1281	0.3803	-0.006
Mof_C 	C 	0.5772	0.1597	0.391	0.005
Mof_C 	C 	0.554	0.1795	0.3771	0
Mof_C 	C 	0.5343	0.1678	0.3527	0.001
Mof_C 	C 	0.5378	0.1362	0.3421	-0
Mof_C 	C 	0.5609	0.1164	0.3559	0.004
Mof_C 	C 	0.7212	0.9713	0.3102	-0.025
Mof_O 	O 	0.922	0.0243	0.0592	-0.379
Mof_C 	C 	0.7718	0.0228	0.1301	0.005
Mof_C 	C 	0.7397	0.025	0.1482	0
Mof_C 	C 	0.8299	0.0263	0.0964	-0.017
Mof_C 	C 	0.7052	0.0248	0.2433	0.007
Mof_C 	C 	0.6966	0.0253	0.2098	-0.002
Mof_C 	C 	0.8622	0.027	0.0865	0.05
Mof_O 	O 	0.2958	0.0599	0.56119	-0.372
Mof_O 	O 	0.2522	0.0274	0.59318	-0.364
Mof_O 	O 	0.3352	0.9683	0.4657	-0.391
Mof_C 	C 	0.3498	0.0691	0.5739	-0.112
Mof_C 	C 	0.4052	0.081	0.5845	-0.017
Mof_C 	C 	0.3825	0.0614	0.5693	0.06
Mof_C 	C 	0.3397	0.094	0.597	0.057
Mof_C 	C 	0.3641	0.1141	0.61	-0.016
Mof_C 	C 	0.397	0.1066	0.6057	0.017
Mof_C 	C 	0.3249	0.051	0.5541	0.411
Mof_C 	C 	0.2702	0.9704	0.6572	0.065
Mof_C 	C 	0.4194	0.1281	0.6197	-0.006
Mof_C 	C 	0.4228	0.1597	0.609	0.005
Mof_C 	C 	0.446	0.1795	0.6229	0
Mof_C 	C 	0.4657	0.1678	0.6473	0.001
Mof_C 	C 	0.4622	0.1362	0.6579	-0
Mof_C 	C 	0.4391	0.1164	0.6441	0.004
Mof_C 	C 	0.2788	0.9713	0.6898	-0.024
Mof_O 	O 	0.078	0.0243	0.9408	-0.378
Mof_C 	C 	0.2282	0.0228	0.8699	0.005
Mof_C 	C 	0.2603	0.025	0.8518	0
Mof_C 	C 	0.1701	0.0263	0.9036	-0.017
Mof_C 	C 	0.2948	0.0248	0.7567	0.007
Mof_C 	C 	0.3034	0.0253	0.7902	-0.002
Mof_C 	C 	0.1378	0.027	0.9135	0.05
Mof_O 	O 	0.2958	0.9401	0.43881	-0.373
Mof_O 	O 	0.2522	0.9726	0.40682	-0.366
Mof_O 	O 	0.3352	0.0317	0.5343	-0.39
Mof_C 	C 	0.3498	0.9309	0.4261	-0.112
Mof_C 	C 	0.4052	0.919	0.4155	-0.018
Mof_C 	C 	0.3825	0.9386	0.4307	0.059
Mof_C 	C 	0.3397	0.906	0.403	0.057
Mof_C 	C 	0.3641	0.8859	0.39	-0.016
Mof_C 	C 	0.397	0.8934	0.3943	0.017
Mof_C 	C 	0.3249	0.949	0.4459	0.411
Mof_C 	C 	0.2702	0.0296	0.3428	0.067
Mof_C 	C 	0.4194	0.8719	0.3803	-0.005
Mof_C 	C 	0.4228	0.8403	0.391	0.005
Mof_C 	C 	0.446	0.8205	0.3771	-0
Mof_C 	C 	0.4657	0.8322	0.3527	0.001
Mof_C 	C 	0.4622	0.8638	0.3421	-0
Mof_C 	C 	0.4391	0.8836	0.3559	0.003
Mof_C 	C 	0.2788	0.0287	0.3102	-0.023
Mof_O 	O 	0.078	0.9757	0.0592	-0.38
Mof_C 	C 	0.2282	0.9772	0.1301	0.002
Mof_C 	C 	0.2603	0.975	0.1482	-0.002
Mof_C 	C 	0.1701	0.9737	0.0964	-0.019
Mof_C 	C 	0.2948	0.9752	0.2433	0.005
Mof_C 	C 	0.3034	0.9747	0.2098	-0.004
Mof_C 	C 	0.1378	0.973	0.0865	0.048
Mof_O 	O 	0.56119	0.7042	0.9401	-0.373
Mof_O 	O 	0.59318	0.7478	0.9726	-0.366
Mof_O 	O 	0.4657	0.6648	0.0317	-0.39
Mof_C 	C 	0.5739	0.6502	0.9309	-0.112
Mof_C 	C 	0.5845	0.5948	0.919	-0.018
Mof_C 	C 	0.5693	0.6175	0.9386	0.059
Mof_C 	C 	0.597	0.6603	0.906	0.057
Mof_C 	C 	0.61	0.6359	0.8859	-0.016
Mof_C 	C 	0.6057	0.603	0.8934	0.017
Mof_C 	C 	0.5541	0.6751	0.949	0.411
Mof_C 	C 	0.6572	0.7298	0.0296	0.067
Mof_C 	C 	0.6197	0.5806	0.8719	-0.005
Mof_C 	C 	0.609	0.5772	0.8403	0.005
Mof_C 	C 	0.6229	0.554	0.8205	0
Mof_C 	C 	0.6473	0.5343	0.8322	0.001
Mof_C 	C 	0.6579	0.5378	0.8638	-0
Mof_C 	C 	0.6441	0.5609	0.8836	0.003
Mof_C 	C 	0.6898	0.7212	0.0287	-0.023
Mof_O 	O 	0.9408	0.922	0.9757	-0.38
Mof_C 	C 	0.8699	0.7718	0.9772	0.002
Mof_C 	C 	0.8518	0.7397	0.975	-0.002
Mof_C 	C 	0.9036	0.8299	0.9737	-0.019
Mof_C 	C 	0.7567	0.7052	0.9752	0.005
Mof_C 	C 	0.7902	0.6966	0.9747	-0.004
Mof_C 	C 	0.9135	0.8622	0.973	0.048
Mof_O 	O 	0.43881	0.7042	0.0599	-0.372
Mof_O 	O 	0.40682	0.7478	0.0274	-0.364
Mof_O 	O 	0.5343	0.6648	0.9683	-0.391
Mof_C 	C 	0.4261	0.6502	0.0691	-0.112
Mof_C 	C 	0.4155	0.5948	0.081	-0.017
Mof_C 	C 	0.4307	0.6175	0.0614	0.06
Mof_C 	C 	0.403	0.6603	0.094	0.057
Mof_C 	C 	0.39	0.6359	0.1141	-0.016
Mof_C 	C 	0.3943	0.603	0.1066	0.017
Mof_C 	C 	0.4459	0.6751	0.051	0.411
Mof_C 	C 	0.3428	0.7298	0.9704	0.065
Mof_C 	C 	0.3803	0.5806	0.1281	-0.006
Mof_C 	C 	0.391	0.5772	0.1597	0.005
Mof_C 	C 	0.3771	0.554	0.1795	0
Mof_C 	C 	0.3527	0.5343	0.1678	0.001
Mof_C 	C 	0.3421	0.5378	0.1362	-0
Mof_C 	C 	0.3559	0.5609	0.1164	0.004
Mof_C 	C 	0.3102	0.7212	0.9713	-0.025
Mof_O 	O 	0.0592	0.922	0.0243	-0.379
Mof_C 	C 	0.1301	0.7718	0.0228	0.005
Mof_C 	C 	0.1482	0.7397	0.025	0
Mof_C 	C 	0.0964	0.8299	0.0263	-0.017
Mof_C 	C 	0.2433	0.7052	0.0248	0.007
Mof_C 	C 	0.2098	0.6966	0.0253	-0.002
Mof_C 	C 	0.0865	0.8622	0.027	0.05
Mof_O 	O 	0.56119	0.2958	0.0599	-0.372
Mof_O 	O 	0.59318	0.2522	0.0274	-0.364
Mof_O 	O 	0.4657	0.3352	0.9683	-0.391
Mof_C 	C 	0.5739	0.3498	0.0691	-0.112
Mof_C 	C 	0.5845	0.4052	0.081	-0.017
Mof_C 	C 	0.5693	0.3825	0.0614	0.06
Mof_C 	C 	0.597	0.3397	0.094	0.057
Mof_C 	C 	0.61	0.3641	0.1141	-0.016
Mof_C 	C 	0.6057	0.397	0.1066	0.017
Mof_C 	C 	0.5541	0.3249	0.051	0.411
Mof_C 	C 	0.6572	0.2702	0.9704	0.065
Mof_C 	C 	0.6197	0.4194	0.1281	-0.006
Mof_C 	C 	0.609	0.4228	0.1597	0.005
Mof_C 	C 	0.6229	0.446	0.1795	0
Mof_C 	C 	0.6473	0.4657	0.1678	0.001
Mof_C 	C 	0.6579	0.4622	0.1362	-0
Mof_C 	C 	0.6441	0.4391	0.1164	0.004
Mof_C 	C 	0.6898	0.2788	0.9713	-0.024
Mof_O 	O 	0.9408	0.078	0.0243	-0.378
Mof_C 	C 	0.8699	0.2282	0.0228	0.005
Mof_C 	C 	0.8518	0.2603	0.025	0
Mof_C 	C 	0.9036	0.1701	0.0263	-0.017
Mof_C 	C 	0.7567	0.2948	0.0248	0.007
Mof_C 	C 	0.7902	0.3034	0.0253	-0.002
Mof_C 	C 	0.9135	0.1378	0.027	0.05
Mof_O 	O 	0.43881	0.2958	0.9401	-0.373
Mof_O 	O 	0.40682	0.2522	0.9726	-0.366
Mof_O 	O 	0.5343	0.3352	0.0317	-0.39
Mof_C 	C 	0.4261	0.3498	0.9309	-0.112
Mof_C 	C 	0.4155	0.4052	0.919	-0.018
Mof_C 	C 	0.4307	0.3825	0.9386	0.059
Mof_C 	C 	0.403	0.3397	0.906	0.057
Mof_C 	C 	0.39	0.3641	0.8859	-0.016
Mof_C 	C 	0.3943	0.397	0.8934	0.017
Mof_C 	C 	0.4459	0.3249	0.949	0.411
Mof_C 	C 	0.3428	0.2702	0.0296	0.067
Mof_C 	C 	0.3803	0.4194	0.8719	-0.005
Mof_C 	C 	0.391	0.4228	0.8403	0.005
Mof_C 	C 	0.3771	0.446	0.8205	-0
Mof_C 	C 	0.3527	0.4657	0.8322	0.001
Mof_C 	C 	0.3421	0.4622	0.8638	-0
Mof_C 	C 	0.3559	0.4391	0.8836	0.003
Mof_C 	C 	0.3102	0.2788	0.0287	-0.023
Mof_O 	O 	0.0592	0.078	0.9757	-0.38
Mof_C 	C 	0.1301	0.2282	0.9772	0.002
Mof_C 	C 	0.1482	0.2603	0.975	-0.002
Mof_C 	C 	0.0964	0.1701	0.9737	-0.019
Mof_C 	C 	0.2433	0.2948	0.9752	0.005
Mof_C 	C 	0.2098	0.3034	0.9747	-0.004
Mof_C 	C 	0.0865	0.1378	0.973	0.048
Mof_O 	O 	0.06119	0.4401	0.7958	-0.372
Mof_O 	O 	0.09318	0.4726	0.7522	-0.364
Mof_O 	O 	0.9657	0.5317	0.8352	-0.391
Mof_C 	C 	0.0739	0.4309	0.8498	-0.112
Mof_C 	C 	0.0845	0.419	0.9052	-0.018
Mof_C 	C 	0.0693	0.4386	0.8825	0.06
Mof_C 	C 	0.097	0.406	0.8397	0.057
Mof_C 	C 	0.11	0.3859	0.8641	-0.016
Mof_C 	C 	0.1057	0.3934	0.897	0.017
Mof_C 	C 	0.0541	0.449	0.8249	0.411
Mof_C 	C 	0.1572	0.5296	0.7702	0.067
Mof_C 	C 	0.1197	0.3719	0.9194	-0.005
Mof_C 	C 	0.109	0.3403	0.9228	0.005
Mof_C 	C 	0.1229	0.3205	0.946	-0
Mof_C 	C 	0.1473	0.3322	0.9657	-0
Mof_C 	C 	0.1579	0.3638	0.9622	-0.001
Mof_C 	C 	0.1441	0.3836	0.9391	0.003
Mof_C 	C 	0.1898	0.5287	0.7788	-0.023
Mof_O 	O 	0.4408	0.4757	0.578	-0.379
Mof_C 	C 	0.3699	0.4772	0.7282	0.004
Mof_C 	C 	0.3518	0.475	0.7603	0
Mof_C 	C 	0.4036	0.4737	0.6701	-0.017
Mof_C 	C 	0.2567	0.4752	0.7948	0.007
Mof_C 	C 	0.2902	0.4747	0.8034	-0.002
Mof_C 	C 	0.4135	0.473	0.6378	0.05
Mof_O 	O 	0.93881	0.5599	0.7958	-0.373
Mof_O 	O 	0.90682	0.5274	0.7522	-0.363
Mof_O 	O 	0.0343	0.4683	0.8352	-0.39
Mof_C 	C 	0.9261	0.5691	0.8498	-0.112
Mof_C 	C 	0.9155	0.581	0.9052	-0.018
Mof_C 	C 	0.9307	0.5614	0.8825	0.059
Mof_C 	C 	0.903	0.594	0.8397	0.057
Mof_C 	C 	0.89	0.6141	0.8641	-0.016
Mof_C 	C 	0.8943	0.6066	0.897	0.017
Mof_C 	C 	0.9459	0.551	0.8249	0.411
Mof_C 	C 	0.8428	0.4704	0.7702	0.067
Mof_C 	C 	0.8803	0.6281	0.9194	-0.006
Mof_C 	C 	0.891	0.6597	0.9228	0.004
Mof_C 	C 	0.8771	0.6795	0.946	-0
Mof_C 	C 	0.8527	0.6678	0.9657	-0
Mof_C 	C 	0.8421	0.6362	0.9622	-0.001
Mof_C 	C 	0.8559	0.6164	0.9391	0.003
Mof_C 	C 	0.8102	0.4713	0.7788	-0.023
Mof_O 	O 	0.5592	0.5243	0.578	-0.379
Mof_C 	C 	0.6301	0.5228	0.7282	0.004
Mof_C 	C 	0.6482	0.525	0.7603	0
Mof_C 	C 	0.5964	0.5263	0.6701	-0.017
Mof_C 	C 	0.7433	0.5248	0.7948	0.007
Mof_C 	C 	0.7098	0.5253	0.8034	-0.001
Mof_C 	C 	0.5865	0.527	0.6378	0.05
Mof_O 	O 	0.06119	0.5599	0.2042	-0.372
Mof_O 	O 	0.09318	0.5274	0.2478	-0.364
Mof_O 	O 	0.9657	0.4683	0.1648	-0.391
Mof_C 	C 	0.0739	0.5691	0.1502	-0.112
Mof_C 	C 	0.0845	0.581	0.0948	-0.017
Mof_C 	C 	0.0693	0.5614	0.1175	0.06
Mof_C 	C 	0.097	0.594	0.1603	0.057
Mof_C 	C 	0.11	0.6141	0.1359	-0.016
Mof_C 	C 	0.1057	0.6066	0.103	0.017
Mof_C 	C 	0.0541	0.551	0.1751	0.411
Mof_C 	C 	0.1572	0.4704	0.2298	0.067
Mof_C 	C 	0.1197	0.6281	0.0806	-0.005
Mof_C 	C 	0.109	0.6597	0.0772	0.005
Mof_C 	C 	0.1229	0.6795	0.054	0
Mof_C 	C 	0.1473	0.6678	0.0343	0.001
Mof_C 	C 	0.1579	0.6362	0.0378	0.001
Mof_C 	C 	0.1441	0.6164	0.0609	0.004
Mof_C 	C 	0.1898	0.4713	0.2212	-0.023
Mof_O 	O 	0.4408	0.5243	0.422	-0.379
Mof_C 	C 	0.3699	0.5228	0.2718	0.004
Mof_C 	C 	0.3518	0.525	0.2397	0
Mof_C 	C 	0.4036	0.5263	0.3299	-0.017
Mof_C 	C 	0.2567	0.5248	0.2052	0.007
Mof_C 	C 	0.2902	0.5253	0.1966	-0.001
Mof_C 	C 	0.4135	0.527	0.3622	0.05
Mof_O 	O 	0.93881	0.4401	0.2042	-0.373
Mof_O 	O 	0.90682	0.4726	0.2478	-0.363
Mof_O 	O 	0.0343	0.5317	0.1648	-0.39
Mof_C 	C 	0.9261	0.4309	0.1502	-0.112
Mof_C 	C 	0.9155	0.419	0.0948	-0.018
Mof_C 	C 	0.9307	0.4386	0.1175	0.059
Mof_C 	C 	0.903	0.406	0.1603	0.057
Mof_C 	C 	0.89	0.3859	0.1359	-0.016
Mof_C 	C 	0.8943	0.3934	0.103	0.017
Mof_C 	C 	0.9459	0.449	0.1751	0.411
Mof_C 	C 	0.8428	0.5296	0.2298	0.067
Mof_C 	C 	0.8803	0.3719	0.0806	-0.005
Mof_C 	C 	0.891	0.3403	0.0772	0.005
Mof_C 	C 	0.8771	0.3205	0.054	0
Mof_C 	C 	0.8527	0.3322	0.0343	0.001
Mof_C 	C 	0.8421	0.3638	0.0378	0
Mof_C 	C 	0.8559	0.3836	0.0609	0.004
Mof_C 	C 	0.8102	0.5287	0.2212	-0.023
Mof_O 	O 	0.5592	0.4757	0.422	-0.379
Mof_C 	C 	0.6301	0.4772	0.2718	0.004
Mof_C 	C 	0.6482	0.475	0.2397	0
Mof_C 	C 	0.5964	0.4737	0.3299	-0.017
Mof_C 	C 	0.7433	0.4752	0.2052	0.007
Mof_C 	C 	0.7098	0.4747	0.1966	-0.001
Mof_C 	C 	0.5865	0.473	0.3622	0.05
Mof_O 	O 	0.4401	0.2042	0.93881	-0.373
Mof_O 	O 	0.4726	0.2478	0.90682	-0.363
Mof_O 	O 	0.5317	0.1648	0.0343	-0.39
Mof_C 	C 	0.4309	0.1502	0.9261	-0.112
Mof_C 	C 	0.419	0.0948	0.9155	-0.018
Mof_C 	C 	0.4386	0.1175	0.9307	0.059
Mof_C 	C 	0.406	0.1603	0.903	0.057
Mof_C 	C 	0.3859	0.1359	0.89	-0.016
Mof_C 	C 	0.3934	0.103	0.8943	0.017
Mof_C 	C 	0.449	0.1751	0.9459	0.411
Mof_C 	C 	0.5296	0.2298	0.8428	0.067
Mof_C 	C 	0.3719	0.0806	0.8803	-0.005
Mof_C 	C 	0.3403	0.0772	0.891	0.005
Mof_C 	C 	0.3205	0.054	0.8771	0
Mof_C 	C 	0.3322	0.0343	0.8527	0.001
Mof_C 	C 	0.3638	0.0378	0.8421	0
Mof_C 	C 	0.3836	0.0609	0.8559	0.004
Mof_C 	C 	0.5287	0.2212	0.8102	-0.023
Mof_O 	O 	0.4757	0.422	0.5592	-0.379
Mof_C 	C 	0.4772	0.2718	0.6301	0.004
Mof_C 	C 	0.475	0.2397	0.6482	0
Mof_C 	C 	0.4737	0.3299	0.5964	-0.017
Mof_C 	C 	0.4752	0.2052	0.7433	0.007
Mof_C 	C 	0.4747	0.1966	0.7098	-0.001
Mof_C 	C 	0.473	0.3622	0.5865	0.05
Mof_O 	O 	0.5599	0.2042	0.06119	-0.372
Mof_O 	O 	0.5274	0.2478	0.09318	-0.364
Mof_O 	O 	0.4683	0.1648	0.9657	-0.391
Mof_C 	C 	0.5691	0.1502	0.0739	-0.112
Mof_C 	C 	0.581	0.0948	0.0845	-0.017
Mof_C 	C 	0.5614	0.1175	0.0693	0.06
Mof_C 	C 	0.594	0.1603	0.097	0.057
Mof_C 	C 	0.6141	0.1359	0.11	-0.016
Mof_C 	C 	0.6066	0.103	0.1057	0.017
Mof_C 	C 	0.551	0.1751	0.0541	0.411
Mof_C 	C 	0.4704	0.2298	0.1572	0.067
Mof_C 	C 	0.6281	0.0806	0.1197	-0.005
Mof_C 	C 	0.6597	0.0772	0.109	0.005
Mof_C 	C 	0.6795	0.054	0.1229	0
Mof_C 	C 	0.6678	0.0343	0.1473	0.001
Mof_C 	C 	0.6362	0.0378	0.1579	0.001
Mof_C 	C 	0.6164	0.0609	0.1441	0.004
Mof_C 	C 	0.4713	0.2212	0.1898	-0.023
Mof_O 	O 	0.5243	0.422	0.4408	-0.379
Mof_C 	C 	0.5228	0.2718	0.3699	0.004
Mof_C 	C 	0.525	0.2397	0.3518	0
Mof_C 	C 	0.5263	0.3299	0.4036	-0.017
Mof_C 	C 	0.5248	0.2052	0.2567	0.007
Mof_C 	C 	0.5253	0.1966	0.2902	-0.001
Mof_C 	C 	0.527	0.3622	0.4135	0.05
Mof_O 	O 	0.5599	0.7958	0.93881	-0.373
Mof_O 	O 	0.5274	0.7522	0.90682	-0.363
Mof_O 	O 	0.4683	0.8352	0.0343	-0.39
Mof_C 	C 	0.5691	0.8498	0.9261	-0.112
Mof_C 	C 	0.581	0.9052	0.9155	-0.018
Mof_C 	C 	0.5614	0.8825	0.9307	0.059
Mof_C 	C 	0.594	0.8397	0.903	0.057
Mof_C 	C 	0.6141	0.8641	0.89	-0.016
Mof_C 	C 	0.6066	0.897	0.8943	0.017
Mof_C 	C 	0.551	0.8249	0.9459	0.411
Mof_C 	C 	0.4704	0.7702	0.8428	0.067
Mof_C 	C 	0.6281	0.9194	0.8803	-0.006
Mof_C 	C 	0.6597	0.9228	0.891	0.004
Mof_C 	C 	0.6795	0.946	0.8771	-0
Mof_C 	C 	0.6678	0.9657	0.8527	-0
Mof_C 	C 	0.6362	0.9622	0.8421	-0.001
Mof_C 	C 	0.6164	0.9391	0.8559	0.003
Mof_C 	C 	0.4713	0.7788	0.8102	-0.023
Mof_O 	O 	0.5243	0.578	0.5592	-0.379
Mof_C 	C 	0.5228	0.7282	0.6301	0.004
Mof_C 	C 	0.525	0.7603	0.6482	0
Mof_C 	C 	0.5263	0.6701	0.5964	-0.017
Mof_C 	C 	0.5248	0.7948	0.7433	0.007
Mof_C 	C 	0.5253	0.8034	0.7098	-0.001
Mof_C 	C 	0.527	0.6378	0.5865	0.05
Mof_O 	O 	0.4401	0.7958	0.06119	-0.372
Mof_O 	O 	0.4726	0.7522	0.09318	-0.364
Mof_O 	O 	0.5317	0.8352	0.9657	-0.391
Mof_C 	C 	0.4309	0.8498	0.0739	-0.112
Mof_C 	C 	0.419	0.9052	0.0845	-0.018
Mof_C 	C 	0.4386	0.8825	0.0693	0.06
Mof_C 	C 	0.406	0.8397	0.097	0.057
Mof_C 	C 	0.3859	0.8641	0.11	-0.016
Mof_C 	C 	0.3934	0.897	0.1057	0.017
Mof_C 	C 	0.449	0.8249	0.0541	0.411
Mof_C 	C 	0.5296	0.7702	0.1572	0.067
Mof_C 	C 	0.3719	0.9194	0.1197	-0.005
Mof_C 	C 	0.3403	0.9228	0.109	0.005
Mof_C 	C 	0.3205	0.946	0.1229	-0
Mof_C 	C 	0.3322	0.9657	0.1473	-0
Mof_C 	C 	0.3638	0.9622	0.1579	-0.001
Mof_C 	C 	0.3836	0.9391	0.1441	0.003
Mof_C 	C 	0.5287	0.7788	0.1898	-0.023
Mof_O 	O 	0.4757	0.578	0.4408	-0.379
Mof_C 	C 	0.4772	0.7282	0.3699	0.004
Mof_C 	C 	0.475	0.7603	0.3518	0
Mof_C 	C 	0.4737	0.6701	0.4036	-0.017
Mof_C 	C 	0.4752	0.7948	0.2567	0.007
Mof_C 	C 	0.4747	0.8034	0.2902	-0.002
Mof_C 	C 	0.473	0.6378	0.4135	0.05
Mof_O 	O 	0.2042	0.06119	0.5599	-0.372
Mof_O 	O 	0.2478	0.09318	0.5274	-0.364
Mof_O 	O 	0.1648	0.9657	0.4683	-0.391
Mof_C 	C 	0.1502	0.0739	0.5691	-0.112
Mof_C 	C 	0.0948	0.0845	0.581	-0.017
Mof_C 	C 	0.1175	0.0693	0.5614	0.06
Mof_C 	C 	0.1603	0.097	0.594	0.057
Mof_C 	C 	0.1359	0.11	0.6141	-0.016
Mof_C 	C 	0.103	0.1057	0.6066	0.017
Mof_C 	C 	0.1751	0.0541	0.551	0.411
Mof_C 	C 	0.2298	0.1572	0.4704	0.067
Mof_C 	C 	0.0806	0.1197	0.6281	-0.005
Mof_C 	C 	0.0772	0.109	0.6597	0.005
Mof_C 	C 	0.054	0.1229	0.6795	0
Mof_C 	C 	0.0343	0.1473	0.6678	0.001
Mof_C 	C 	0.0378	0.1579	0.6362	0.001
Mof_C 	C 	0.0609	0.1441	0.6164	0.004
Mof_C 	C 	0.2212	0.1898	0.4713	-0.023
Mof_O 	O 	0.422	0.4408	0.5243	-0.379
Mof_C 	C 	0.2718	0.3699	0.5228	0.004
Mof_C 	C 	0.2397	0.3518	0.525	0
Mof_C 	C 	0.3299	0.4036	0.5263	-0.017
Mof_C 	C 	0.2052	0.2567	0.5248	0.007
Mof_C 	C 	0.1966	0.2902	0.5253	-0.001
Mof_C 	C 	0.3622	0.4135	0.527	0.05
Mof_O 	O 	0.2042	0.93881	0.4401	-0.373
Mof_O 	O 	0.2478	0.90682	0.4726	-0.363
Mof_O 	O 	0.1648	0.0343	0.5317	-0.39
Mof_C 	C 	0.1502	0.9261	0.4309	-0.112
Mof_C 	C 	0.0948	0.9155	0.419	-0.018
Mof_C 	C 	0.1175	0.9307	0.4386	0.059
Mof_C 	C 	0.1603	0.903	0.406	0.057
Mof_C 	C 	0.1359	0.89	0.3859	-0.016
Mof_C 	C 	0.103	0.8943	0.3934	0.017
Mof_C 	C 	0.1751	0.9459	0.449	0.411
Mof_C 	C 	0.2298	0.8428	0.5296	0.067
Mof_C 	C 	0.0806	0.8803	0.3719	-0.005
Mof_C 	C 	0.0772	0.891	0.3403	0.005
Mof_C 	C 	0.054	0.8771	0.3205	0
Mof_C 	C 	0.0343	0.8527	0.3322	0.001
Mof_C 	C 	0.0378	0.8421	0.3638	0
Mof_C 	C 	0.0609	0.8559	0.3836	0.004
Mof_C 	C 	0.2212	0.8102	0.5287	-0.023
Mof_O 	O 	0.422	0.5592	0.4757	-0.379
Mof_C 	C 	0.2718	0.6301	0.4772	0.004
Mof_C 	C 	0.2397	0.6482	0.475	0
Mof_C 	C 	0.3299	0.5964	0.4737	-0.017
Mof_C 	C 	0.2052	0.7433	0.4752	0.007
Mof_C 	C 	0.1966	0.7098	0.4747	-0.001
Mof_C 	C 	0.3622	0.5865	0.473	0.05
Mof_O 	O 	0.7958	0.06119	0.4401	-0.372
Mof_O 	O 	0.7522	0.09318	0.4726	-0.364
Mof_O 	O 	0.8352	0.9657	0.5317	-0.391
Mof_C 	C 	0.8498	0.0739	0.4309	-0.112
Mof_C 	C 	0.9052	0.0845	0.419	-0.018
Mof_C 	C 	0.8825	0.0693	0.4386	0.06
Mof_C 	C 	0.8397	0.097	0.406	0.057
Mof_C 	C 	0.8641	0.11	0.3859	-0.016
Mof_C 	C 	0.897	0.1057	0.3934	0.017
Mof_C 	C 	0.8249	0.0541	0.449	0.411
Mof_C 	C 	0.7702	0.1572	0.5296	0.067
Mof_C 	C 	0.9194	0.1197	0.3719	-0.005
Mof_C 	C 	0.9228	0.109	0.3403	0.005
Mof_C 	C 	0.946	0.1229	0.3205	-0
Mof_C 	C 	0.9657	0.1473	0.3322	-0
Mof_C 	C 	0.9622	0.1579	0.3638	-0.001
Mof_C 	C 	0.9391	0.1441	0.3836	0.003
Mof_C 	C 	0.7788	0.1898	0.5287	-0.023
Mof_O 	O 	0.578	0.4408	0.4757	-0.379
Mof_C 	C 	0.7282	0.3699	0.4772	0.004
Mof_C 	C 	0.7603	0.3518	0.475	0
Mof_C 	C 	0.6701	0.4036	0.4737	-0.017
Mof_C 	C 	0.7948	0.2567	0.4752	0.007
Mof_C 	C 	0.8034	0.2902	0.4747	-0.002
Mof_C 	C 	0.6378	0.4135	0.473	0.05
Mof_O 	O 	0.7958	0.93881	0.5599	-0.373
Mof_O 	O 	0.7522	0.90682	0.5274	-0.363
Mof_O 	O 	0.8352	0.0343	0.4683	-0.39
Mof_C 	C 	0.8498	0.9261	0.5691	-0.112
Mof_C 	C 	0.9052	0.9155	0.581	-0.018
Mof_C 	C 	0.8825	0.9307	0.5614	0.059
Mof_C 	C 	0.8397	0.903	0.594	0.057
Mof_C 	C 	0.8641	0.89	0.6141	-0.016
Mof_C 	C 	0.897	0.8943	0.6066	0.017
Mof_C 	C 	0.8249	0.9459	0.551	0.411
Mof_C 	C 	0.7702	0.8428	0.4704	0.067
Mof_C 	C 	0.9194	0.8803	0.6281	-0.006
Mof_C 	C 	0.9228	0.891	0.6597	0.004
Mof_C 	C 	0.946	0.8771	0.6795	-0
Mof_C 	C 	0.9657	0.8527	0.6678	-0
Mof_C 	C 	0.9622	0.8421	0.6362	-0.001
Mof_C 	C 	0.9391	0.8559	0.6164	0.003
Mof_C 	C 	0.7788	0.8102	0.4713	-0.023
Mof_O 	O 	0.578	0.5592	0.5243	-0.379
Mof_C 	C 	0.7282	0.6301	0.5228	0.004
Mof_C 	C 	0.7603	0.6482	0.525	0
Mof_C 	C 	0.6701	0.5964	0.5263	-0.017
Mof_C 	C 	0.7948	0.7433	0.5248	0.007
Mof_C 	C 	0.8034	0.7098	0.5253	-0.001
Mof_C 	C 	0.6378	0.5865	0.527	0.05
Mof_O 	O 	0.0599	0.43881	0.2958	-0.372
Mof_O 	O 	0.0274	0.40682	0.2522	-0.364
Mof_O 	O 	0.9683	0.5343	0.3352	-0.391
Mof_C 	C 	0.0691	0.4261	0.3498	-0.112
Mof_C 	C 	0.081	0.4155	0.4052	-0.017
Mof_C 	C 	0.0614	0.4307	0.3825	0.06
Mof_C 	C 	0.094	0.403	0.3397	0.057
Mof_C 	C 	0.1141	0.39	0.3641	-0.016
Mof_C 	C 	0.1066	0.3943	0.397	0.017
Mof_C 	C 	0.051	0.4459	0.3249	0.411
Mof_C 	C 	0.9704	0.3428	0.2702	0.065
Mof_C 	C 	0.1281	0.3803	0.4194	-0.006
Mof_C 	C 	0.1597	0.391	0.4228	0.005
Mof_C 	C 	0.1795	0.3771	0.446	0
Mof_C 	C 	0.1678	0.3527	0.4657	0.001
Mof_C 	C 	0.1362	0.3421	0.4622	-0
Mof_C 	C 	0.1164	0.3559	0.4391	0.004
Mof_C 	C 	0.9713	0.3102	0.2788	-0.025
Mof_O 	O 	0.0243	0.0592	0.078	-0.379
Mof_C 	C 	0.0228	0.1301	0.2282	0.005
Mof_C 	C 	0.025	0.1482	0.2603	0
Mof_C 	C 	0.0263	0.0964	0.1701	-0.017
Mof_C 	C 	0.0248	0.2433	0.2948	0.007
Mof_C 	C 	0.0253	0.2098	0.3034	-0.002
Mof_C 	C 	0.027	0.0865	0.1378	0.05
Mof_O 	O 	0.9401	0.56119	0.2958	-0.373
Mof_O 	O 	0.9726	0.59318	0.2522	-0.366
Mof_O 	O 	0.0317	0.4657	0.3352	-0.39
Mof_C 	C 	0.9309	0.5739	0.3498	-0.112
Mof_C 	C 	0.919	0.5845	0.4052	-0.018
Mof_C 	C 	0.9386	0.5693	0.3825	0.059
Mof_C 	C 	0.906	0.597	0.3397	0.057
Mof_C 	C 	0.8859	0.61	0.3641	-0.016
Mof_C 	C 	0.8934	0.6057	0.397	0.017
Mof_C 	C 	0.949	0.5541	0.3249	0.411
Mof_C 	C 	0.0296	0.6572	0.2702	0.067
Mof_C 	C 	0.8719	0.6197	0.4194	-0.005
Mof_C 	C 	0.8403	0.609	0.4228	0.005
Mof_C 	C 	0.8205	0.6229	0.446	0
Mof_C 	C 	0.8322	0.6473	0.4657	0.001
Mof_C 	C 	0.8638	0.6579	0.4622	-0
Mof_C 	C 	0.8836	0.6441	0.4391	0.003
Mof_C 	C 	0.0287	0.6898	0.2788	-0.023
Mof_O 	O 	0.9757	0.9408	0.078	-0.38
Mof_C 	C 	0.9772	0.8699	0.2282	0.002
Mof_C 	C 	0.975	0.8518	0.2603	-0.002
Mof_C 	C 	0.9737	0.9036	0.1701	-0.019
Mof_C 	C 	0.9752	0.7567	0.2948	0.005
Mof_C 	C 	0.9747	0.7902	0.3034	-0.004
Mof_C 	C 	0.973	0.9135	0.1378	0.048
Mof_O 	O 	0.9401	0.43881	0.7042	-0.373
Mof_O 	O 	0.9726	0.40682	0.7478	-0.366
Mof_O 	O 	0.0317	0.5343	0.6648	-0.39
Mof_C 	C 	0.9309	0.4261	0.6502	-0.112
Mof_C 	C 	0.919	0.4155	0.5948	-0.018
Mof_C 	C 	0.9386	0.4307	0.6175	0.059
Mof_C 	C 	0.906	0.403	0.6603	0.057
Mof_C 	C 	0.8859	0.39	0.6359	-0.016
Mof_C 	C 	0.8934	0.3943	0.603	0.017
Mof_C 	C 	0.949	0.4459	0.6751	0.411
Mof_C 	C 	0.0296	0.3428	0.7298	0.067
Mof_C 	C 	0.8719	0.3803	0.5806	-0.005
Mof_C 	C 	0.8403	0.391	0.5772	0.005
Mof_C 	C 	0.8205	0.3771	0.554	-0
Mof_C 	C 	0.8322	0.3527	0.5343	0.001
Mof_C 	C 	0.8638	0.3421	0.5378	-0
Mof_C 	C 	0.8836	0.3559	0.5609	0.003
Mof_C 	C 	0.0287	0.3102	0.7212	-0.023
Mof_O 	O 	0.9757	0.0592	0.922	-0.38
Mof_C 	C 	0.9772	0.1301	0.7718	0.002
Mof_C 	C 	0.975	0.1482	0.7397	-0.002
Mof_C 	C 	0.9737	0.0964	0.8299	-0.019
Mof_C 	C 	0.9752	0.2433	0.7052	0.005
Mof_C 	C 	0.9747	0.2098	0.6966	-0.004
Mof_C 	C 	0.973	0.0865	0.8622	0.048
Mof_O 	O 	0.0599	0.56119	0.7042	-0.372
Mof_O 	O 	0.0274	0.59318	0.7478	-0.364
Mof_O 	O 	0.9683	0.4657	0.6648	-0.391
Mof_C 	C 	0.0691	0.5739	0.6502	-0.112
Mof_C 	C 	0.081	0.5845	0.5948	-0.017
Mof_C 	C 	0.0614	0.5693	0.6175	0.06
Mof_C 	C 	0.094	0.597	0.6603	0.057
Mof_C 	C 	0.1141	0.61	0.6359	-0.016
Mof_C 	C 	0.1066	0.6057	0.603	0.017
Mof_C 	C 	0.051	0.5541	0.6751	0.411
Mof_C 	C 	0.9704	0.6572	0.7298	0.065
Mof_C 	C 	0.1281	0.6197	0.5806	-0.006
Mof_C 	C 	0.1597	0.609	0.5772	0.005
Mof_C 	C 	0.1795	0.6229	0.554	0
Mof_C 	C 	0.1678	0.6473	0.5343	0.001
Mof_C 	C 	0.1362	0.6579	0.5378	-0
Mof_C 	C 	0.1164	0.6441	0.5609	0.004
Mof_C 	C 	0.9713	0.6898	0.7212	-0.024
Mof_O 	O 	0.0243	0.9408	0.922	-0.378
Mof_C 	C 	0.0228	0.8699	0.7718	0.005
Mof_C 	C 	0.025	0.8518	0.7397	0
Mof_C 	C 	0.0263	0.9036	0.8299	-0.017
Mof_C 	C 	0.0248	0.7567	0.7052	0.007
Mof_C 	C 	0.0253	0.7902	0.6966	-0.002
Mof_C 	C 	0.027	0.9135	0.8622	0.05
Mof_O 	O 	0.2958	0.0599	0.43881	-0.372
Mof_O 	O 	0.2522	0.0274	0.40682	-0.364
Mof_O 	O 	0.3352	0.9683	0.5343	-0.391
Mof_C 	C 	0.3498	0.0691	0.4261	-0.112
Mof_C 	C 	0.4052	0.081	0.4155	-0.017
Mof_C 	C 	0.3825	0.0614	0.4307	0.06
Mof_C 	C 	0.3397	0.094	0.403	0.057
Mof_C 	C 	0.3641	0.1141	0.39	-0.016
Mof_C 	C 	0.397	0.1066	0.3943	0.017
Mof_C 	C 	0.3249	0.051	0.4459	0.411
Mof_C 	C 	0.2702	0.9704	0.3428	0.065
Mof_C 	C 	0.4194	0.1281	0.3803	-0.006
Mof_C 	C 	0.4228	0.1597	0.391	0.005
Mof_C 	C 	0.446	0.1795	0.3771	0
Mof_C 	C 	0.4657	0.1678	0.3527	0.001
Mof_C 	C 	0.4622	0.1362	0.3421	-0
Mof_C 	C 	0.4391	0.1164	0.3559	0.004
Mof_C 	C 	0.2788	0.9713	0.3102	-0.025
Mof_O 	O 	0.078	0.0243	0.0592	-0.379
Mof_C 	C 	0.2282	0.0228	0.1301	0.005
Mof_C 	C 	0.2603	0.025	0.1482	0
Mof_C 	C 	0.1701	0.0263	0.0964	-0.017
Mof_C 	C 	0.2948	0.0248	0.2433	0.007
Mof_C 	C 	0.3034	0.0253	0.2098	-0.002
Mof_C 	C 	0.1378	0.027	0.0865	0.05
Mof_O 	O 	0.2958	0.9401	0.56119	-0.373
Mof_O 	O 	0.2522	0.9726	0.59318	-0.366
Mof_O 	O 	0.3352	0.0317	0.4657	-0.39
Mof_C 	C 	0.3498	0.9309	0.5739	-0.112
Mof_C 	C 	0.4052	0.919	0.5845	-0.018
Mof_C 	C 	0.3825	0.9386	0.5693	0.059
Mof_C 	C 	0.3397	0.906	0.597	0.057
Mof_C 	C 	0.3641	0.8859	0.61	-0.016
Mof_C 	C 	0.397	0.8934	0.6057	0.017
Mof_C 	C 	0.3249	0.949	0.5541	0.411
Mof_C 	C 	0.2702	0.0296	0.6572	0.067
Mof_C 	C 	0.4194	0.8719	0.6197	-0.005
Mof_C 	C 	0.4228	0.8403	0.609	0.005
Mof_C 	C 	0.446	0.8205	0.6229	0
Mof_C 	C 	0.4657	0.8322	0.6473	0.001
Mof_C 	C 	0.4622	0.8638	0.6579	-0
Mof_C 	C 	0.4391	0.8836	0.6441	0.003
Mof_C 	C 	0.2788	0.0287	0.6898	-0.023
Mof_O 	O 	0.078	0.9757	0.9408	-0.38
Mof_C 	C 	0.2282	0.9772	0.8699	0.002
Mof_C 	C 	0.2603	0.975	0.8518	-0.002
Mof_C 	C 	0.1701	0.9737	0.9036	-0.019
Mof_C 	C 	0.2948	0.9752	0.7567	0.005
Mof_C 	C 	0.3034	0.9747	0.7902	-0.004
Mof_C 	C 	0.1378	0.973	0.9135	0.048
Mof_O 	O 	0.7042	0.9401	0.43881	-0.373
Mof_O 	O 	0.7478	0.9726	0.40682	-0.366
Mof_O 	O 	0.6648	0.0317	0.5343	-0.39
Mof_C 	C 	0.6502	0.9309	0.4261	-0.112
Mof_C 	C 	0.5948	0.919	0.4155	-0.018
Mof_C 	C 	0.6175	0.9386	0.4307	0.059
Mof_C 	C 	0.6603	0.906	0.403	0.057
Mof_C 	C 	0.6359	0.8859	0.39	-0.016
Mof_C 	C 	0.603	0.8934	0.3943	0.017
Mof_C 	C 	0.6751	0.949	0.4459	0.411
Mof_C 	C 	0.7298	0.0296	0.3428	0.067
Mof_C 	C 	0.5806	0.8719	0.3803	-0.005
Mof_C 	C 	0.5772	0.8403	0.391	0.005
Mof_C 	C 	0.554	0.8205	0.3771	-0
Mof_C 	C 	0.5343	0.8322	0.3527	0.001
Mof_C 	C 	0.5378	0.8638	0.3421	-0
Mof_C 	C 	0.5609	0.8836	0.3559	0.003
Mof_C 	C 	0.7212	0.0287	0.3102	-0.023
Mof_O 	O 	0.922	0.9757	0.0592	-0.38
Mof_C 	C 	0.7718	0.9772	0.1301	0.002
Mof_C 	C 	0.7397	0.975	0.1482	-0.002
Mof_C 	C 	0.8299	0.9737	0.0964	-0.019
Mof_C 	C 	0.7052	0.9752	0.2433	0.005
Mof_C 	C 	0.6966	0.9747	0.2098	-0.004
Mof_C 	C 	0.8622	0.973	0.0865	0.048
Mof_O 	O 	0.7042	0.0599	0.56119	-0.372
Mof_O 	O 	0.7478	0.0274	0.59318	-0.364
Mof_O 	O 	0.6648	0.9683	0.4657	-0.391
Mof_C 	C 	0.6502	0.0691	0.5739	-0.112
Mof_C 	C 	0.5948	0.081	0.5845	-0.017
Mof_C 	C 	0.6175	0.0614	0.5693	0.06
Mof_C 	C 	0.6603	0.094	0.597	0.057
Mof_C 	C 	0.6359	0.1141	0.61	-0.016
Mof_C 	C 	0.603	0.1066	0.6057	0.017
Mof_C 	C 	0.6751	0.051	0.5541	0.411
Mof_C 	C 	0.7298	0.9704	0.6572	0.065
Mof_C 	C 	0.5806	0.1281	0.6197	-0.006
Mof_C 	C 	0.5772	0.1597	0.609	0.005
Mof_C 	C 	0.554	0.1795	0.6229	0
Mof_C 	C 	0.5343	0.1678	0.6473	0.001
Mof_C 	C 	0.5378	0.1362	0.6579	-0
Mof_C 	C 	0.5609	0.1164	0.6441	0.004
Mof_C 	C 	0.7212	0.9713	0.6898	-0.024
Mof_O 	O 	0.922	0.0243	0.9408	-0.378
Mof_C 	C 	0.7718	0.0228	0.8699	0.005
Mof_C 	C 	0.7397	0.025	0.8518	0
Mof_C 	C 	0.8299	0.0263	0.9036	-0.017
Mof_C 	C 	0.7052	0.0248	0.7567	0.007
Mof_C 	C 	0.6966	0.0253	0.7902	-0.002
Mof_C 	C 	0.8622	0.027	0.9135	0.05
Mof_O 	O 	0.43881	0.2958	0.0599	-0.372
Mof_O 	O 	0.40682	0.2522	0.0274	-0.364
Mof_O 	O 	0.5343	0.3352	0.9683	-0.391
Mof_C 	C 	0.4261	0.3498	0.0691	-0.112
Mof_C 	C 	0.4155	0.4052	0.081	-0.017
Mof_C 	C 	0.4307	0.3825	0.0614	0.06
Mof_C 	C 	0.403	0.3397	0.094	0.057
Mof_C 	C 	0.39	0.3641	0.1141	-0.016
Mof_C 	C 	0.3943	0.397	0.1066	0.017
Mof_C 	C 	0.4459	0.3249	0.051	0.411
Mof_C 	C 	0.3428	0.2702	0.9704	0.065
Mof_C 	C 	0.3803	0.4194	0.1281	-0.006
Mof_C 	C 	0.391	0.4228	0.1597	0.005
Mof_C 	C 	0.3771	0.446	0.1795	0
Mof_C 	C 	0.3527	0.4657	0.1678	0.001
Mof_C 	C 	0.3421	0.4622	0.1362	-0
Mof_C 	C 	0.3559	0.4391	0.1164	0.004
Mof_C 	C 	0.3102	0.2788	0.9713	-0.025
Mof_O 	O 	0.0592	0.078	0.0243	-0.379
Mof_C 	C 	0.1301	0.2282	0.0228	0.005
Mof_C 	C 	0.1482	0.2603	0.025	0
Mof_C 	C 	0.0964	0.1701	0.0263	-0.017
Mof_C 	C 	0.2433	0.2948	0.0248	0.007
Mof_C 	C 	0.2098	0.3034	0.0253	-0.002
Mof_C 	C 	0.0865	0.1378	0.027	0.05
Mof_O 	O 	0.56119	0.2958	0.9401	-0.373
Mof_O 	O 	0.59318	0.2522	0.9726	-0.366
Mof_O 	O 	0.4657	0.3352	0.0317	-0.39
Mof_C 	C 	0.5739	0.3498	0.9309	-0.112
Mof_C 	C 	0.5845	0.4052	0.919	-0.018
Mof_C 	C 	0.5693	0.3825	0.9386	0.059
Mof_C 	C 	0.597	0.3397	0.906	0.057
Mof_C 	C 	0.61	0.3641	0.8859	-0.016
Mof_C 	C 	0.6057	0.397	0.8934	0.017
Mof_C 	C 	0.5541	0.3249	0.949	0.411
Mof_C 	C 	0.6572	0.2702	0.0296	0.067
Mof_C 	C 	0.6197	0.4194	0.8719	-0.005
Mof_C 	C 	0.609	0.4228	0.8403	0.005
Mof_C 	C 	0.6229	0.446	0.8205	0
Mof_C 	C 	0.6473	0.4657	0.8322	0.001
Mof_C 	C 	0.6579	0.4622	0.8638	-0
Mof_C 	C 	0.6441	0.4391	0.8836	0.003
Mof_C 	C 	0.6898	0.2788	0.0287	-0.023
Mof_O 	O 	0.9408	0.078	0.9757	-0.38
Mof_C 	C 	0.8699	0.2282	0.9772	0.002
Mof_C 	C 	0.8518	0.2603	0.975	-0.002
Mof_C 	C 	0.9036	0.1701	0.9737	-0.019
Mof_C 	C 	0.7567	0.2948	0.9752	0.005
Mof_C 	C 	0.7902	0.3034	0.9747	-0.004
Mof_C 	C 	0.9135	0.1378	0.973	0.048
Mof_O 	O 	0.43881	0.7042	0.9401	-0.373
Mof_O 	O 	0.40682	0.7478	0.9726	-0.366
Mof_O 	O 	0.5343	0.6648	0.0317	-0.39
Mof_C 	C 	0.4261	0.6502	0.9309	-0.112
Mof_C 	C 	0.4155	0.5948	0.919	-0.018
Mof_C 	C 	0.4307	0.6175	0.9386	0.059
Mof_C 	C 	0.403	0.6603	0.906	0.057
Mof_C 	C 	0.39	0.6359	0.8859	-0.016
Mof_C 	C 	0.3943	0.603	0.8934	0.017
Mof_C 	C 	0.4459	0.6751	0.949	0.411
Mof_C 	C 	0.3428	0.7298	0.0296	0.067
Mof_C 	C 	0.3803	0.5806	0.8719	-0.005
Mof_C 	C 	0.391	0.5772	0.8403	0.005
Mof_C 	C 	0.3771	0.554	0.8205	-0
Mof_C 	C 	0.3527	0.5343	0.8322	0.001
Mof_C 	C 	0.3421	0.5378	0.8638	-0
Mof_C 	C 	0.3559	0.5609	0.8836	0.003
Mof_C 	C 	0.3102	0.7212	0.0287	-0.023
Mof_O 	O 	0.0592	0.922	0.9757	-0.38
Mof_C 	C 	0.1301	0.7718	0.9772	0.002
Mof_C 	C 	0.1482	0.7397	0.975	-0.002
Mof_C 	C 	0.0964	0.8299	0.9737	-0.019
Mof_C 	C 	0.2433	0.7052	0.9752	0.005
Mof_C 	C 	0.2098	0.6966	0.9747	-0.004
Mof_C 	C 	0.0865	0.8622	0.973	0.048
Mof_O 	O 	0.56119	0.7042	0.0599	-0.372
Mof_O 	O 	0.59318	0.7478	0.0274	-0.364
Mof_O 	O 	0.4657	0.6648	0.9683	-0.391
Mof_C 	C 	0.5739	0.6502	0.0691	-0.112
Mof_C 	C 	0.5845	0.5948	0.081	-0.017
Mof_C 	C 	0.5693	0.6175	0.0614	0.06
Mof_C 	C 	0.597	0.6603	0.094	0.057
Mof_C 	C 	0.61	0.6359	0.1141	-0.016
Mof_C 	C 	0.6057	0.603	0.1066	0.017
Mof_C 	C 	0.5541	0.6751	0.051	0.411
Mof_C 	C 	0.6572	0.7298	0.9704	0.065
Mof_C 	C 	0.6197	0.5806	0.1281	-0.006
Mof_C 	C 	0.609	0.5772	0.1597	0.005
Mof_C 	C 	0.6229	0.554	0.1795	0
Mof_C 	C 	0.6473	0.5343	0.1678	0.001
Mof_C 	C 	0.6579	0.5378	0.1362	-0
Mof_C 	C 	0.6441	0.5609	0.1164	0.004
Mof_C 	C 	0.6898	0.7212	0.9713	-0.024
Mof_O 	O 	0.9408	0.922	0.0243	-0.378
Mof_C 	C 	0.8699	0.7718	0.0228	0.005
Mof_C 	C 	0.8518	0.7397	0.025	0
Mof_C 	C 	0.9036	0.8299	0.0263	-0.017
Mof_C 	C 	0.7567	0.7052	0.0248	0.007
Mof_C 	C 	0.7902	0.6966	0.0253	-0.002
Mof_C 	C 	0.9135	0.8622	0.027	0.05
Mof_O 	O 	0.93881	0.5599	0.2042	-0.373
Mof_O 	O 	0.90682	0.5274	0.2478	-0.363
Mof_O 	O 	0.0343	0.4683	0.1648	-0.39
Mof_C 	C 	0.9261	0.5691	0.1502	-0.112
Mof_C 	C 	0.9155	0.581	0.0948	-0.017
Mof_C 	C 	0.9307	0.5614	0.1175	0.059
Mof_C 	C 	0.903	0.594	0.1603	0.057
Mof_C 	C 	0.89	0.6141	0.1359	-0.016
Mof_C 	C 	0.8943	0.6066	0.103	0.017
Mof_C 	C 	0.9459	0.551	0.1751	0.411
Mof_C 	C 	0.8428	0.4704	0.2298	0.067
Mof_C 	C 	0.8803	0.6281	0.0806	-0.005
Mof_C 	C 	0.891	0.6597	0.0772	0.005
Mof_C 	C 	0.8771	0.6795	0.054	0
Mof_C 	C 	0.8527	0.6678	0.0343	0.001
Mof_C 	C 	0.8421	0.6362	0.0378	0
Mof_C 	C 	0.8559	0.6164	0.0609	0.004
Mof_C 	C 	0.8102	0.4713	0.2212	-0.023
Mof_O 	O 	0.5592	0.5243	0.422	-0.379
Mof_C 	C 	0.6301	0.5228	0.2718	0.004
Mof_C 	C 	0.6482	0.525	0.2397	0
Mof_C 	C 	0.5964	0.5263	0.3299	-0.017
Mof_C 	C 	0.7433	0.5248	0.2052	0.007
Mof_C 	C 	0.7098	0.5253	0.1966	-0.001
Mof_C 	C 	0.5865	0.527	0.3622	0.05
Mof_O 	O 	0.06119	0.4401	0.2042	-0.372
Mof_O 	O 	0.09318	0.4726	0.2478	-0.364
Mof_O 	O 	0.9657	0.5317	0.1648	-0.391
Mof_C 	C 	0.0739	0.4309	0.1502	-0.112
Mof_C 	C 	0.0845	0.419	0.0948	-0.017
Mof_C 	C 	0.0693	0.4386	0.1175	0.06
Mof_C 	C 	0.097	0.406	0.1603	0.057
Mof_C 	C 	0.11	0.3859	0.1359	-0.016
Mof_C 	C 	0.1057	0.3934	0.103	0.017
Mof_C 	C 	0.0541	0.449	0.1751	0.411
Mof_C 	C 	0.1572	0.5296	0.2298	0.067
Mof_C 	C 	0.1197	0.3719	0.0806	-0.005
Mof_C 	C 	0.109	0.3403	0.0772	0.005
Mof_C 	C 	0.1229	0.3205	0.054	0
Mof_C 	C 	0.1473	0.3322	0.0343	0.001
Mof_C 	C 	0.1579	0.3638	0.0378	0
Mof_C 	C 	0.1441	0.3836	0.0609	0.004
Mof_C 	C 	0.1898	0.5287	0.2212	-0.023
Mof_O 	O 	0.4408	0.4757	0.422	-0.379
Mof_C 	C 	0.3699	0.4772	0.2718	0.004
Mof_C 	C 	0.3518	0.475	0.2397	0
Mof_C 	C 	0.4036	0.4737	0.3299	-0.017
Mof_C 	C 	0.2567	0.4752	0.2052	0.007
Mof_C 	C 	0.2902	0.4747	0.1966	-0.001
Mof_C 	C 	0.4135	0.473	0.3622	0.05
Mof_O 	O 	0.93881	0.4401	0.7958	-0.373
Mof_O 	O 	0.90682	0.4726	0.7522	-0.363
Mof_O 	O 	0.0343	0.5317	0.8352	-0.39
Mof_C 	C 	0.9261	0.4309	0.8498	-0.112
Mof_C 	C 	0.9155	0.419	0.9052	-0.018
Mof_C 	C 	0.9307	0.4386	0.8825	0.059
Mof_C 	C 	0.903	0.406	0.8397	0.057
Mof_C 	C 	0.89	0.3859	0.8641	-0.016
Mof_C 	C 	0.8943	0.3934	0.897	0.017
Mof_C 	C 	0.9459	0.449	0.8249	0.411
Mof_C 	C 	0.8428	0.5296	0.7702	0.067
Mof_C 	C 	0.8803	0.3719	0.9194	-0.006
Mof_C 	C 	0.891	0.3403	0.9228	0.004
Mof_C 	C 	0.8771	0.3205	0.946	-0
Mof_C 	C 	0.8527	0.3322	0.9657	-0
Mof_C 	C 	0.8421	0.3638	0.9622	-0.001
Mof_C 	C 	0.8559	0.3836	0.9391	0.003
Mof_C 	C 	0.8102	0.5287	0.7788	-0.023
Mof_O 	O 	0.5592	0.4757	0.578	-0.379
Mof_C 	C 	0.6301	0.4772	0.7282	0.004
Mof_C 	C 	0.6482	0.475	0.7603	0
Mof_C 	C 	0.5964	0.4737	0.6701	-0.017
Mof_C 	C 	0.7433	0.4752	0.7948	0.007
Mof_C 	C 	0.7098	0.4747	0.8034	-0.002
Mof_C 	C 	0.5865	0.473	0.6378	0.05
Mof_O 	O 	0.06119	0.5599	0.7958	-0.372
Mof_O 	O 	0.09318	0.5274	0.7522	-0.364
Mof_O 	O 	0.9657	0.4683	0.8352	-0.391
Mof_C 	C 	0.0739	0.5691	0.8498	-0.112
Mof_C 	C 	0.0845	0.581	0.9052	-0.018
Mof_C 	C 	0.0693	0.5614	0.8825	0.06
Mof_C 	C 	0.097	0.594	0.8397	0.057
Mof_C 	C 	0.11	0.6141	0.8641	-0.016
Mof_C 	C 	0.1057	0.6066	0.897	0.017
Mof_C 	C 	0.0541	0.551	0.8249	0.411
Mof_C 	C 	0.1572	0.4704	0.7702	0.067
Mof_C 	C 	0.1197	0.6281	0.9194	-0.005
Mof_C 	C 	0.109	0.6597	0.9228	0.005
Mof_C 	C 	0.1229	0.6795	0.946	-0
Mof_C 	C 	0.1473	0.6678	0.9657	-0
Mof_C 	C 	0.1579	0.6362	0.9622	-0.001
Mof_C 	C 	0.1441	0.6164	0.9391	0.003
Mof_C 	C 	0.1898	0.4713	0.7788	-0.023
Mof_O 	O 	0.4408	0.5243	0.578	-0.379
Mof_C 	C 	0.3699	0.5228	0.7282	0.004
Mof_C 	C 	0.3518	0.525	0.7603	0
Mof_C 	C 	0.4036	0.5263	0.6701	-0.017
Mof_C 	C 	0.2567	0.5248	0.7948	0.007
Mof_C 	C 	0.2902	0.5253	0.8034	-0.002
Mof_C 	C 	0.4135	0.527	0.6378	0.05
Mof_O 	O 	0.5599	0.7958	0.06119	-0.372
Mof_O 	O 	0.5274	0.7522	0.09318	-0.364
Mof_O 	O 	0.4683	0.8352	0.9657	-0.391
Mof_C 	C 	0.5691	0.8498	0.0739	-0.112
Mof_C 	C 	0.581	0.9052	0.0845	-0.018
Mof_C 	C 	0.5614	0.8825	0.0693	0.06
Mof_C 	C 	0.594	0.8397	0.097	0.057
Mof_C 	C 	0.6141	0.8641	0.11	-0.016
Mof_C 	C 	0.6066	0.897	0.1057	0.017
Mof_C 	C 	0.551	0.8249	0.0541	0.411
Mof_C 	C 	0.4704	0.7702	0.1572	0.067
Mof_C 	C 	0.6281	0.9194	0.1197	-0.005
Mof_C 	C 	0.6597	0.9228	0.109	0.005
Mof_C 	C 	0.6795	0.946	0.1229	-0
Mof_C 	C 	0.6678	0.9657	0.1473	-0
Mof_C 	C 	0.6362	0.9622	0.1579	-0.001
Mof_C 	C 	0.6164	0.9391	0.1441	0.003
Mof_C 	C 	0.4713	0.7788	0.1898	-0.023
Mof_O 	O 	0.5243	0.578	0.4408	-0.379
Mof_C 	C 	0.5228	0.7282	0.3699	0.004
Mof_C 	C 	0.525	0.7603	0.3518	0
Mof_C 	C 	0.5263	0.6701	0.4036	-0.017
Mof_C 	C 	0.5248	0.7948	0.2567	0.007
Mof_C 	C 	0.5253	0.8034	0.2902	-0.002
Mof_C 	C 	0.527	0.6378	0.4135	0.05
Mof_O 	O 	0.4401	0.7958	0.93881	-0.373
Mof_O 	O 	0.4726	0.7522	0.90682	-0.363
Mof_O 	O 	0.5317	0.8352	0.0343	-0.39
Mof_C 	C 	0.4309	0.8498	0.9261	-0.112
Mof_C 	C 	0.419	0.9052	0.9155	-0.018
Mof_C 	C 	0.4386	0.8825	0.9307	0.059
Mof_C 	C 	0.406	0.8397	0.903	0.057
Mof_C 	C 	0.3859	0.8641	0.89	-0.016
Mof_C 	C 	0.3934	0.897	0.8943	0.017
Mof_C 	C 	0.449	0.8249	0.9459	0.411
Mof_C 	C 	0.5296	0.7702	0.8428	0.067
Mof_C 	C 	0.3719	0.9194	0.8803	-0.006
Mof_C 	C 	0.3403	0.9228	0.891	0.004
Mof_C 	C 	0.3205	0.946	0.8771	-0
Mof_C 	C 	0.3322	0.9657	0.8527	-0
Mof_C 	C 	0.3638	0.9622	0.8421	-0.001
Mof_C 	C 	0.3836	0.9391	0.8559	0.003
Mof_C 	C 	0.5287	0.7788	0.8102	-0.023
Mof_O 	O 	0.4757	0.578	0.5592	-0.379
Mof_C 	C 	0.4772	0.7282	0.6301	0.004
Mof_C 	C 	0.475	0.7603	0.6482	0
Mof_C 	C 	0.4737	0.6701	0.5964	-0.017
Mof_C 	C 	0.4752	0.7948	0.7433	0.007
Mof_C 	C 	0.4747	0.8034	0.7098	-0.002
Mof_C 	C 	0.473	0.6378	0.5865	0.05
Mof_O 	O 	0.4401	0.2042	0.06119	-0.372
Mof_O 	O 	0.4726	0.2478	0.09318	-0.364
Mof_O 	O 	0.5317	0.1648	0.9657	-0.391
Mof_C 	C 	0.4309	0.1502	0.0739	-0.112
Mof_C 	C 	0.419	0.0948	0.0845	-0.017
Mof_C 	C 	0.4386	0.1175	0.0693	0.06
Mof_C 	C 	0.406	0.1603	0.097	0.057
Mof_C 	C 	0.3859	0.1359	0.11	-0.016
Mof_C 	C 	0.3934	0.103	0.1057	0.017
Mof_C 	C 	0.449	0.1751	0.0541	0.411
Mof_C 	C 	0.5296	0.2298	0.1572	0.067
Mof_C 	C 	0.3719	0.0806	0.1197	-0.005
Mof_C 	C 	0.3403	0.0772	0.109	0.005
Mof_C 	C 	0.3205	0.054	0.1229	0
Mof_C 	C 	0.3322	0.0343	0.1473	0.001
Mof_C 	C 	0.3638	0.0378	0.1579	0
Mof_C 	C 	0.3836	0.0609	0.1441	0.004
Mof_C 	C 	0.5287	0.2212	0.1898	-0.023
Mof_O 	O 	0.4757	0.422	0.4408	-0.379
Mof_C 	C 	0.4772	0.2718	0.3699	0.004
Mof_C 	C 	0.475	0.2397	0.3518	0
Mof_C 	C 	0.4737	0.3299	0.4036	-0.017
Mof_C 	C 	0.4752	0.2052	0.2567	0.007
Mof_C 	C 	0.4747	0.1966	0.2902	-0.001
Mof_C 	C 	0.473	0.3622	0.4135	0.05
Mof_O 	O 	0.5599	0.2042	0.93881	-0.373
Mof_O 	O 	0.5274	0.2478	0.90682	-0.363
Mof_O 	O 	0.4683	0.1648	0.0343	-0.39
Mof_C 	C 	0.5691	0.1502	0.9261	-0.112
Mof_C 	C 	0.581	0.0948	0.9155	-0.017
Mof_C 	C 	0.5614	0.1175	0.9307	0.059
Mof_C 	C 	0.594	0.1603	0.903	0.057
Mof_C 	C 	0.6141	0.1359	0.89	-0.016
Mof_C 	C 	0.6066	0.103	0.8943	0.017
Mof_C 	C 	0.551	0.1751	0.9459	0.411
Mof_C 	C 	0.4704	0.2298	0.8428	0.067
Mof_C 	C 	0.6281	0.0806	0.8803	-0.005
Mof_C 	C 	0.6597	0.0772	0.891	0.005
Mof_C 	C 	0.6795	0.054	0.8771	0
Mof_C 	C 	0.6678	0.0343	0.8527	0.001
Mof_C 	C 	0.6362	0.0378	0.8421	0
Mof_C 	C 	0.6164	0.0609	0.8559	0.004
Mof_C 	C 	0.4713	0.2212	0.8102	-0.023
Mof_O 	O 	0.5243	0.422	0.5592	-0.379
Mof_C 	C 	0.5228	0.2718	0.6301	0.004
Mof_C 	C 	0.525	0.2397	0.6482	0
Mof_C 	C 	0.5263	0.3299	0.5964	-0.017
Mof_C 	C 	0.5248	0.2052	0.7433	0.007
Mof_C 	C 	0.5253	0.1966	0.7098	-0.001
Mof_C 	C 	0.527	0.3622	0.5865	0.05
Mof_O 	O 	0.7958	0.93881	0.4401	-0.373
Mof_O 	O 	0.7522	0.90682	0.4726	-0.363
Mof_O 	O 	0.8352	0.0343	0.5317	-0.39
Mof_C 	C 	0.8498	0.9261	0.4309	-0.112
Mof_C 	C 	0.9052	0.9155	0.419	-0.018
Mof_C 	C 	0.8825	0.9307	0.4386	0.059
Mof_C 	C 	0.8397	0.903	0.406	0.057
Mof_C 	C 	0.8641	0.89	0.3859	-0.016
Mof_C 	C 	0.897	0.8943	0.3934	0.017
Mof_C 	C 	0.8249	0.9459	0.449	0.411
Mof_C 	C 	0.7702	0.8428	0.5296	0.067
Mof_C 	C 	0.9194	0.8803	0.3719	-0.006
Mof_C 	C 	0.9228	0.891	0.3403	0.004
Mof_C 	C 	0.946	0.8771	0.3205	-0
Mof_C 	C 	0.9657	0.8527	0.3322	-0
Mof_C 	C 	0.9622	0.8421	0.3638	-0.001
Mof_C 	C 	0.9391	0.8559	0.3836	0.003
Mof_C 	C 	0.7788	0.8102	0.5287	-0.023
Mof_O 	O 	0.578	0.5592	0.4757	-0.379
Mof_C 	C 	0.7282	0.6301	0.4772	0.004
Mof_C 	C 	0.7603	0.6482	0.475	0
Mof_C 	C 	0.6701	0.5964	0.4737	-0.017
Mof_C 	C 	0.7948	0.7433	0.4752	0.007
Mof_C 	C 	0.8034	0.7098	0.4747	-0.002
Mof_C 	C 	0.6378	0.5865	0.473	0.05
Mof_O 	O 	0.7958	0.06119	0.5599	-0.372
Mof_O 	O 	0.7522	0.09318	0.5274	-0.364
Mof_O 	O 	0.8352	0.9657	0.4683	-0.391
Mof_C 	C 	0.8498	0.0739	0.5691	-0.112
Mof_C 	C 	0.9052	0.0845	0.581	-0.018
Mof_C 	C 	0.8825	0.0693	0.5614	0.06
Mof_C 	C 	0.8397	0.097	0.594	0.057
Mof_C 	C 	0.8641	0.11	0.6141	-0.016
Mof_C 	C 	0.897	0.1057	0.6066	0.017
Mof_C 	C 	0.8249	0.0541	0.551	0.411
Mof_C 	C 	0.7702	0.1572	0.4704	0.067
Mof_C 	C 	0.9194	0.1197	0.6281	-0.005
Mof_C 	C 	0.9228	0.109	0.6597	0.005
Mof_C 	C 	0.946	0.1229	0.6795	-0
Mof_C 	C 	0.9657	0.1473	0.6678	-0
Mof_C 	C 	0.9622	0.1579	0.6362	-0.001
Mof_C 	C 	0.9391	0.1441	0.6164	0.003
Mof_C 	C 	0.7788	0.1898	0.4713	-0.023
Mof_O 	O 	0.578	0.4408	0.5243	-0.379
Mof_C 	C 	0.7282	0.3699	0.5228	0.004
Mof_C 	C 	0.7603	0.3518	0.525	0
Mof_C 	C 	0.6701	0.4036	0.5263	-0.017
Mof_C 	C 	0.7948	0.2567	0.5248	0.007
Mof_C 	C 	0.8034	0.2902	0.5253	-0.002
Mof_C 	C 	0.6378	0.4135	0.527	0.05
Mof_O 	O 	0.2042	0.93881	0.5599	-0.373
Mof_O 	O 	0.2478	0.90682	0.5274	-0.363
Mof_O 	O 	0.1648	0.0343	0.4683	-0.39
Mof_C 	C 	0.1502	0.9261	0.5691	-0.112
Mof_C 	C 	0.0948	0.9155	0.581	-0.017
Mof_C 	C 	0.1175	0.9307	0.5614	0.059
Mof_C 	C 	0.1603	0.903	0.594	0.057
Mof_C 	C 	0.1359	0.89	0.6141	-0.016
Mof_C 	C 	0.103	0.8943	0.6066	0.017
Mof_C 	C 	0.1751	0.9459	0.551	0.411
Mof_C 	C 	0.2298	0.8428	0.4704	0.067
Mof_C 	C 	0.0806	0.8803	0.6281	-0.005
Mof_C 	C 	0.0772	0.891	0.6597	0.005
Mof_C 	C 	0.054	0.8771	0.6795	0
Mof_C 	C 	0.0343	0.8527	0.6678	0.001
Mof_C 	C 	0.0378	0.8421	0.6362	0
Mof_C 	C 	0.0609	0.8559	0.6164	0.004
Mof_C 	C 	0.2212	0.8102	0.4713	-0.023
Mof_O 	O 	0.422	0.5592	0.5243	-0.379
Mof_C 	C 	0.2718	0.6301	0.5228	0.004
Mof_C 	C 	0.2397	0.6482	0.525	0
Mof_C 	C 	0.3299	0.5964	0.5263	-0.017
Mof_C 	C 	0.2052	0.7433	0.5248	0.007
Mof_C 	C 	0.1966	0.7098	0.5253	-0.001
Mof_C 	C 	0.3622	0.5865	0.527	0.05
Mof_O 	O 	0.2042	0.06119	0.4401	-0.372
Mof_O 	O 	0.2478	0.09318	0.4726	-0.364
Mof_O 	O 	0.1648	0.9657	0.5317	-0.391
Mof_C 	C 	0.1502	0.0739	0.4309	-0.112
Mof_C 	C 	0.0948	0.0845	0.419	-0.017
Mof_C 	C 	0.1175	0.0693	0.4386	0.06
Mof_C 	C 	0.1603	0.097	0.406	0.057
Mof_C 	C 	0.1359	0.11	0.3859	-0.016
Mof_C 	C 	0.103	0.1057	0.3934	0.017
Mof_C 	C 	0.1751	0.0541	0.449	0.411
Mof_C 	C 	0.2298	0.1572	0.5296	0.067
Mof_C 	C 	0.0806	0.1197	0.3719	-0.005
Mof_C 	C 	0.0772	0.109	0.3403	0.005
Mof_C 	C 	0.054	0.1229	0.3205	0
Mof_C 	C 	0.0343	0.1473	0.3322	0.001
Mof_C 	C 	0.0378	0.1579	0.3638	0
Mof_C 	C 	0.0609	0.1441	0.3836	0.004
Mof_C 	C 	0.2212	0.1898	0.5287	-0.023
Mof_O 	O 	0.422	0.4408	0.4757	-0.379
Mof_C 	C 	0.2718	0.3699	0.4772	0.004
Mof_C 	C 	0.2397	0.3518	0.475	0
Mof_C 	C 	0.3299	0.4036	0.4737	-0.017
Mof_C 	C 	0.2052	0.2567	0.4752	0.007
Mof_C 	C 	0.1966	0.2902	0.4747	-0.001
Mof_C 	C 	0.3622	0.4135	0.473	0.05
Mof_Hf	Hf	0.95805	0.54195	0.75	1.418
Mof_Hf	Hf	0.04195	0.45805	0.75	1.42
Mof_Hf	Hf	0.04195	0.54195	0.25	1.42
Mof_Hf	Hf	0.95805	0.45805	0.25	1.418
Mof_Hf	Hf	0.75	0.95805	0.54195	1.418
Mof_Hf	Hf	0.75	0.04195	0.45805	1.42
Mof_Hf	Hf	0.25	0.04195	0.54195	1.42
Mof_Hf	Hf	0.25	0.95805	0.45805	1.418
Mof_Hf	Hf	0.54195	0.75	0.95805	1.418
Mof_Hf	Hf	0.45805	0.75	0.04195	1.42
Mof_Hf	Hf	0.54195	0.25	0.04195	1.42
Mof_Hf	Hf	0.45805	0.25	0.95805	1.418
Mof_Hf	Hf	0.04195	0.45805	0.25	1.42
Mof_Hf	Hf	0.95805	0.54195	0.25	1.418
Mof_Hf	Hf	0.95805	0.45805	0.75	1.418
Mof_Hf	Hf	0.04195	0.54195	0.75	1.42
Mof_Hf	Hf	0.25	0.04195	0.45805	1.42
Mof_Hf	Hf	0.25	0.95805	0.54195	1.418
Mof_Hf	Hf	0.75	0.95805	0.45805	1.418
Mof_Hf	Hf	0.75	0.04195	0.54195	1.42
Mof_Hf	Hf	0.45805	0.25	0.04195	1.42
Mof_Hf	Hf	0.54195	0.25	0.95805	1.418
Mof_Hf	Hf	0.45805	0.75	0.95805	1.418
Mof_Hf	Hf	0.54195	0.75	0.04195	1.42
Mof_Hf	Hf	-3.05582e-33	0.5	0.69042	1.454
Mof_Hf	Hf	3.98298e-33	0.5	0.30958	1.454
Mof_Hf	Hf	0.69042	0	0.5	1.454
Mof_Hf	Hf	0.30958	0	0.5	1.454
Mof_Hf	Hf	0.5	0.69042	-0	1.454
Mof_Hf	Hf	0.5	0.30958	-0	1.454
Mof_Hf	Hf	3.03544e-33	0.5	0.80958	1.454
Mof_Hf	Hf	-2.10828e-33	0.5	0.19042	1.454
Mof_Hf	Hf	0.5	0.19042	-0	1.454
Mof_Hf	Hf	0.5	0.80958	-0	1.454
Mof_Hf	Hf	0.19042	0	0.5	1.454
Mof_Hf	Hf	0.80958	0	0.5	1.454
Mof_O 	O 	0.9532	0.5	0.7172	-0.451
Mof_O 	O 	0.0468	0.5	0.7172	-0.451
Mof_O 	O 	0.0468	0.5	0.2828	-0.451
Mof_O 	O 	0.9532	0.5	0.2828	-0.451
Mof_O 	O 	0.7172	0.9532	0.5	-0.451
Mof_O 	O 	0.7172	0.0468	0.5	-0.451
Mof_O 	O 	0.2828	0.0468	0.5	-0.451
Mof_O 	O 	0.2828	0.9532	0.5	-0.451
Mof_O 	O 	0.5	0.7172	0.9532	-0.451
Mof_O 	O 	0.5	0.7172	0.0468	-0.451
Mof_O 	O 	0.5	0.2828	0.0468	-0.451
Mof_O 	O 	0.5	0.2828	0.9532	-0.451
Mof_O 	O 	8.57951e-33	0.4532	0.7828	-0.449
Mof_O 	O 	8.57951e-33	0.5468	0.7828	-0.449
Mof_O 	O 	6.45885e-33	0.5468	0.2172	-0.449
Mof_O 	O 	6.45885e-33	0.4532	0.2172	-0.449
Mof_O 	O 	0.4532	0.2172	-0	-0.449
Mof_O 	O 	0.5468	0.2172	-0	-0.449
Mof_O 	O 	0.5468	0.7828	-0	-0.449
Mof_O 	O 	0.4532	0.7828	-0	-0.449
Mof_O 	O 	0.2172	0	0.5468	-0.449
Mof_O 	O 	0.2172	0	0.4532	-0.449
Mof_O 	O 	0.7828	0	0.4532	-0.449
Mof_O 	O 	0.7828	0	0.5468	-0.449
Mof_O 	O 	-2.93066e-33	0.5354	0.7238	-0.619
Mof_C 	C 	-1.41435e-32	0.6073	0.7441	0.397
Mof_C 	C 	-2.95766e-33	0.7062	0.7166	0.025
Mof_C 	C 	2.75543e-33	0.6406	0.7349	-0.135
Mof_C 	C 	-2.99215e-33	0.7393	0.7074	-0.008
Mof_O 	O 	1.49191e-32	0.9503	0.9682	-1.931
Mof_C 	C 	2.59009e-33	0.8065	0.6908	0.005
Mof_C 	C 	1.3981e-32	0.8591	0.718	0.003
Mof_C 	C 	8.21844e-33	0.843	0.6865	-0
Mof_C 	C 	1.43297e-32	0.9064	0.811	0.017
Mof_C 	C 	1.42142e-32	0.8905	0.7802	-0.004
Mof_C 	C 	-8.00298e-33	0.9274	0.8764	-0.072
Mof_C 	C 	-7.907e-33	0.952	0.902	0.319
Mof_O 	O 	-2.93066e-33	0.4646	0.7238	-0.619
Mof_C 	C 	-2.85455e-33	0.3927	0.7441	0.397
Mof_C 	C 	-2.95766e-33	0.2938	0.7166	0.025
Mof_C 	C 	2.75543e-33	0.3594	0.7349	-0.135
Mof_C 	C 	-2.99215e-33	0.2607	0.7074	-0.008
Mof_O 	O 	-7.65879e-33	0.0497	0.9682	-1.933
Mof_C 	C 	-8.69887e-33	0.1935	0.6908	0.005
Mof_C 	C 	2.69207e-33	0.1409	0.718	0.003
Mof_C 	C 	-3.07052e-33	0.157	0.6865	-0
Mof_C 	C 	-8.2482e-33	0.0936	0.811	0.018
Mof_C 	C 	-8.36368e-33	0.1095	0.7802	-0.003
Mof_C 	C 	-8.00298e-33	0.0726	0.8764	-0.072
Mof_C 	C 	3.38196e-33	0.048	0.902	0.321
Mof_O 	O 	-1.78666e-33	0.5354	0.2762	-0.619
Mof_C 	C 	-1.86277e-33	0.6073	0.2559	0.397
Mof_C 	C 	-4.5819e-33	0.7062	0.2834	0.025
Mof_C 	C 	6.63845e-33	0.6406	0.2651	-0.135
Mof_C 	C 	1.09707e-33	0.7393	0.2926	-0.008
Mof_O 	O 	-1.15225e-32	0.9503	0.0318	-1.932
Mof_C 	C 	6.80379e-33	0.8065	0.3092	0.005
Mof_C 	C 	9.52405e-33	0.8591	0.282	0.003
Mof_C 	C 	-1.29358e-32	0.843	0.3135	-0
Mof_C 	C 	-4.93584e-33	0.9064	0.189	0.017
Mof_C 	C 	8.24118e-34	0.8905	0.2198	-0.004
Mof_C 	C 	1.87455e-33	0.9274	0.1236	-0.072
Mof_C 	C 	3.89524e-33	0.952	0.098	0.319
Mof_O 	O 	-7.43113e-33	0.4646	0.2762	-0.619
Mof_C 	C 	9.59471e-34	0.3927	0.2559	0.397
Mof_C 	C 	-1.75966e-33	0.2938	0.2834	0.025
Mof_C 	C 	-1.82827e-33	0.3594	0.2651	-0.135
Mof_C 	C 	-1.72517e-33	0.2607	0.2926	-0.008
Mof_O 	O 	1.19231e-34	0.0497	0.0318	-1.934
Mof_C 	C 	1.15931e-33	0.1935	0.3092	0.005
Mof_C 	C 	-1.76491e-33	0.1409	0.282	0.003
Mof_C 	C 	3.99768e-33	0.157	0.3135	-0
Mof_C 	C 	7.08636e-34	0.0936	0.189	0.018
Mof_C 	C 	8.24118e-34	0.1095	0.2198	-0.003
Mof_C 	C 	4.63426e-34	0.0726	0.1236	-0.072
Mof_C 	C 	-1.04368e-33	0.048	0.098	0.321
Mof_O 	O 	0.7238	5.64448e-33	0.5354	-0.619
Mof_C 	C 	0.7441	-5.64448e-33	0.6073	0.397
Mof_C 	C 	0.7166	0	0.7062	0.025
Mof_C 	C 	0.7349	-5.64448e-33	0.6406	-0.135
Mof_C 	C 	0.7074	5.64448e-33	0.7393	-0.008
Mof_O 	O 	0.9682	0	0.9503	-1.931
Mof_C 	C 	0.6908	-5.64448e-33	0.8065	0.005
Mof_C 	C 	0.718	0	0.8591	0.003
Mof_C 	C 	0.6865	0	0.843	-0
Mof_C 	C 	0.811	0	0.9064	0.017
Mof_C 	C 	0.7802	0	0.8905	-0.004
Mof_C 	C 	0.8764	-1.1289e-32	0.9274	-0.072
Mof_C 	C 	0.902	-1.1289e-32	0.952	0.319
Mof_O 	O 	0.7238	-5.64448e-33	0.4646	-0.619
Mof_C 	C 	0.7441	0	0.3927	0.397
Mof_C 	C 	0.7166	-2.82224e-33	0.2938	0.025
Mof_C 	C 	0.7349	0	0.3594	-0.135
Mof_C 	C 	0.7074	0	0.2607	-0.008
Mof_O 	O 	0.9682	-3.5278e-34	0.0497	-1.933
Mof_C 	C 	0.6908	-1.41112e-33	0.1935	0.005
Mof_C 	C 	0.718	0	0.1409	0.003
Mof_C 	C 	0.6865	0	0.157	-0
Mof_C 	C 	0.811	-7.0556e-34	0.0936	0.018
Mof_C 	C 	0.7802	0	0.1095	-0.003
Mof_C 	C 	0.8764	-7.0556e-34	0.0726	-0.072
Mof_C 	C 	0.902	0	0.048	0.321
Mof_O 	O 	0.2762	5.64448e-33	0.5354	-0.619
Mof_C 	C 	0.2559	-5.64448e-33	0.6073	0.397
Mof_C 	C 	0.2834	0	0.7062	0.025
Mof_C 	C 	0.2651	-5.64448e-33	0.6406	-0.135
Mof_C 	C 	0.2926	5.64448e-33	0.7393	-0.008
Mof_O 	O 	0.0318	0	0.9503	-1.932
Mof_C 	C 	0.3092	-5.64448e-33	0.8065	0.005
Mof_C 	C 	0.282	0	0.8591	0.003
Mof_C 	C 	0.3135	0	0.843	-0
Mof_C 	C 	0.189	0	0.9064	0.017
Mof_C 	C 	0.2198	0	0.8905	-0.004
Mof_C 	C 	0.1236	-1.1289e-32	0.9274	-0.072
Mof_C 	C 	0.098	-1.1289e-32	0.952	0.319
Mof_O 	O 	0.2762	-5.64448e-33	0.4646	-0.619
Mof_C 	C 	0.2559	0	0.3927	0.397
Mof_C 	C 	0.2834	-2.82224e-33	0.2938	0.025
Mof_C 	C 	0.2651	0	0.3594	-0.135
Mof_C 	C 	0.2926	0	0.2607	-0.008
Mof_O 	O 	0.0318	-3.5278e-34	0.0497	-1.934
Mof_C 	C 	0.3092	-1.41112e-33	0.1935	0.005
Mof_C 	C 	0.282	0	0.1409	0.003
Mof_C 	C 	0.3135	0	0.157	-0
Mof_C 	C 	0.189	-7.0556e-34	0.0936	0.018
Mof_C 	C 	0.2198	0	0.1095	-0.003
Mof_C 	C 	0.1236	-7.0556e-34	0.0726	-0.072
Mof_C 	C 	0.098	0	0.048	0.321
Mof_O 	O 	0.5354	0.7238	-0	-0.619
Mof_C 	C 	0.6073	0.7441	-0	0.397
Mof_C 	C 	0.7062	0.7166	-0	0.025
Mof_C 	C 	0.6406	0.7349	-0	-0.135
Mof_C 	C 	0.7393	0.7074	-0	-0.008
Mof_O 	O 	0.9503	0.9682	-0	-1.931
Mof_C 	C 	0.8065	0.6908	-0	0.005
Mof_C 	C 	0.8591	0.718	-0	0.003
Mof_C 	C 	0.843	0.6865	-0	-0
Mof_C 	C 	0.9064	0.811	-0	0.017
Mof_C 	C 	0.8905	0.7802	-0	-0.004
Mof_C 	C 	0.9274	0.8764	-0	-0.072
Mof_C 	C 	0.952	0.902	-0	0.319
Mof_O 	O 	0.4646	0.7238	-0	-0.619
Mof_C 	C 	0.3927	0.7441	-0	0.397
Mof_C 	C 	0.2938	0.7166	-0	0.025
Mof_C 	C 	0.3594	0.7349	-0	-0.135
Mof_C 	C 	0.2607	0.7074	-0	-0.008
Mof_O 	O 	0.0497	0.9682	-0	-1.933
Mof_C 	C 	0.1935	0.6908	-0	0.005
Mof_C 	C 	0.1409	0.718	-0	0.003
Mof_C 	C 	0.157	0.6865	-0	-0
Mof_C 	C 	0.0936	0.811	-0	0.018
Mof_C 	C 	0.1095	0.7802	-0	-0.003
Mof_C 	C 	0.0726	0.8764	-0	-0.072
Mof_C 	C 	0.048	0.902	-0	0.321
Mof_O 	O 	0.5354	0.2762	-0	-0.619
Mof_C 	C 	0.6073	0.2559	-0	0.397
Mof_C 	C 	0.7062	0.2834	-0	0.025
Mof_C 	C 	0.6406	0.2651	-0	-0.135
Mof_C 	C 	0.7393	0.2926	-0	-0.008
Mof_O 	O 	0.9503	0.0318	-0	-1.932
Mof_C 	C 	0.8065	0.3092	-0	0.005
Mof_C 	C 	0.8591	0.282	-0	0.003
Mof_C 	C 	0.843	0.3135	-0	-0
Mof_C 	C 	0.9064	0.189	-0	0.017
Mof_C 	C 	0.8905	0.2198	-0	-0.004
Mof_C 	C 	0.9274	0.1236	-0	-0.072
Mof_C 	C 	0.952	0.098	-0	0.319
Mof_O 	O 	0.4646	0.2762	-0	-0.619
Mof_C 	C 	0.3927	0.2559	-0	0.397
Mof_C 	C 	0.2938	0.2834	-0	0.025
Mof_C 	C 	0.3594	0.2651	-0	-0.135
Mof_C 	C 	0.2607	0.2926	-0	-0.008
Mof_O 	O 	0.0497	0.0318	-0	-1.934
Mof_C 	C 	0.1935	0.3092	-0	0.005
Mof_C 	C 	0.1409	0.282	-0	0.003
Mof_C 	C 	0.157	0.3135	-0	-0
Mof_C 	C 	0.0936	0.189	-0	0.018
Mof_C 	C 	0.1095	0.2198	-0	-0.003
Mof_C 	C 	0.0726	0.1236	-0	-0.072
Mof_C 	C 	0.048	0.098	-0	0.321
Mof_O 	O 	0.0354	0.5	0.7762	-0.621
Mof_C 	C 	0.1073	0.5	0.7559	0.395
Mof_C 	C 	0.2062	0.5	0.7834	0.023
Mof_C 	C 	0.1406	0.5	0.7651	-0.136
Mof_C 	C 	0.2393	0.5	0.7926	-0.011
Mof_O 	O 	0.4503	0.5	0.5318	-1.938
Mof_C 	C 	0.3065	0.5	0.8092	0.002
Mof_C 	C 	0.3591	0.5	0.782	0.001
Mof_C 	C 	0.343	0.5	0.8135	-0
Mof_C 	C 	0.4064	0.5	0.689	0.016
Mof_C 	C 	0.3905	0.5	0.7198	-0.005
Mof_C 	C 	0.4274	0.5	0.6236	-0.074
Mof_C 	C 	0.452	0.5	0.598	0.319
Mof_O 	O 	0.9646	0.5	0.7762	-0.622
Mof_C 	C 	0.8927	0.5	0.7559	0.395
Mof_C 	C 	0.7938	0.5	0.7834	0.023
Mof_C 	C 	0.8594	0.5	0.7651	-0.136
Mof_C 	C 	0.7607	0.5	0.7926	-0.011
Mof_O 	O 	0.5497	0.5	0.5318	-1.938
Mof_C 	C 	0.6935	0.5	0.8092	0.002
Mof_C 	C 	0.6409	0.5	0.782	0.001
Mof_C 	C 	0.657	0.5	0.8135	-0
Mof_C 	C 	0.5936	0.5	0.689	0.016
Mof_C 	C 	0.6095	0.5	0.7198	-0.005
Mof_C 	C 	0.5726	0.5	0.6236	-0.074
Mof_C 	C 	0.548	0.5	0.598	0.319
Mof_O 	O 	0.0354	0.5	0.2238	-0.621
Mof_C 	C 	0.1073	0.5	0.2441	0.395
Mof_C 	C 	0.2062	0.5	0.2166	0.023
Mof_C 	C 	0.1406	0.5	0.2349	-0.136
Mof_C 	C 	0.2393	0.5	0.2074	-0.011
Mof_O 	O 	0.4503	0.5	0.4682	-1.938
Mof_C 	C 	0.3065	0.5	0.1908	0.002
Mof_C 	C 	0.3591	0.5	0.218	0.001
Mof_C 	C 	0.343	0.5	0.1865	-0
Mof_C 	C 	0.4064	0.5	0.311	0.016
Mof_C 	C 	0.3905	0.5	0.2802	-0.005
Mof_C 	C 	0.4274	0.5	0.3764	-0.074
Mof_C 	C 	0.452	0.5	0.402	0.319
Mof_O 	O 	0.9646	0.5	0.2238	-0.622
Mof_C 	C 	0.8927	0.5	0.2441	0.395
Mof_C 	C 	0.7938	0.5	0.2166	0.023
Mof_C 	C 	0.8594	0.5	0.2349	-0.136
Mof_C 	C 	0.7607	0.5	0.2074	-0.011
Mof_O 	O 	0.5497	0.5	0.4682	-1.938
Mof_C 	C 	0.6935	0.5	0.1908	0.002
Mof_C 	C 	0.6409	0.5	0.218	0.001
Mof_C 	C 	0.657	0.5	0.1865	-0
Mof_C 	C 	0.5936	0.5	0.311	0.016
Mof_C 	C 	0.6095	0.5	0.2802	-0.005
Mof_C 	C 	0.5726	0.5	0.3764	-0.074
Mof_C 	C 	0.548	0.5	0.402	0.319
Mof_O 	O 	0.5	0.2238	0.9646	-0.622
Mof_C 	C 	0.5	0.2441	0.8927	0.395
Mof_C 	C 	0.5	0.2166	0.7938	0.023
Mof_C 	C 	0.5	0.2349	0.8594	-0.136
Mof_C 	C 	0.5	0.2074	0.7607	-0.011
Mof_O 	O 	0.5	0.4682	0.5497	-1.938
Mof_C 	C 	0.5	0.1908	0.6935	0.002
Mof_C 	C 	0.5	0.218	0.6409	0.001
Mof_C 	C 	0.5	0.1865	0.657	-0
Mof_C 	C 	0.5	0.311	0.5936	0.016
Mof_C 	C 	0.5	0.2802	0.6095	-0.005
Mof_C 	C 	0.5	0.3764	0.5726	-0.074
Mof_C 	C 	0.5	0.402	0.548	0.319
Mof_O 	O 	0.5	0.2238	0.0354	-0.621
Mof_C 	C 	0.5	0.2441	0.1073	0.395
Mof_C 	C 	0.5	0.2166	0.2062	0.023
Mof_C 	C 	0.5	0.2349	0.1406	-0.136
Mof_C 	C 	0.5	0.2074	0.2393	-0.011
Mof_O 	O 	0.5	0.4682	0.4503	-1.938
Mof_C 	C 	0.5	0.1908	0.3065	0.002
Mof_C 	C 	0.5	0.218	0.3591	0.001
Mof_C 	C 	0.5	0.1865	0.343	-0
Mof_C 	C 	0.5	0.311	0.4064	0.016
Mof_C 	C 	0.5	0.2802	0.3905	-0.005
Mof_C 	C 	0.5	0.3764	0.4274	-0.074
Mof_C 	C 	0.5	0.402	0.452	0.319
Mof_O 	O 	0.5	0.7762	0.9646	-0.622
Mof_C 	C 	0.5	0.7559	0.8927	0.395
Mof_C 	C 	0.5	0.7834	0.7938	0.023
Mof_C 	C 	0.5	0.7651	0.8594	-0.136
Mof_C 	C 	0.5	0.7926	0.7607	-0.011
Mof_O 	O 	0.5	0.5318	0.5497	-1.938
Mof_C 	C 	0.5	0.8092	0.6935	0.002
Mof_C 	C 	0.5	0.782	0.6409	0.001
Mof_C 	C 	0.5	0.8135	0.657	-0
Mof_C 	C 	0.5	0.689	0.5936	0.016
Mof_C 	C 	0.5	0.7198	0.6095	-0.005
Mof_C 	C 	0.5	0.6236	0.5726	-0.074
Mof_C 	C 	0.5	0.598	0.548	0.319
Mof_O 	O 	0.5	0.7762	0.0354	-0.621
Mof_C 	C 	0.5	0.7559	0.1073	0.395
Mof_C 	C 	0.5	0.7834	0.2062	0.023
Mof_C 	C 	0.5	0.7651	0.1406	-0.136
Mof_C 	C 	0.5	0.7926	0.2393	-0.011
Mof_O 	O 	0.5	0.5318	0.4503	-1.938
Mof_C 	C 	0.5	0.8092	0.3065	0.002
Mof_C 	C 	0.5	0.782	0.3591	0.001
Mof_C 	C 	0.5	0.8135	0.343	-0
Mof_C 	C 	0.5	0.689	0.4064	0.016
Mof_C 	C 	0.5	0.7198	0.3905	-0.005
Mof_C 	C 	0.5	0.6236	0.4274	-0.074
Mof_C 	C 	0.5	0.598	0.452	0.319
Mof_O 	O 	0.2238	0.0354	0.5	-0.621
Mof_C 	C 	0.2441	0.1073	0.5	0.395
Mof_C 	C 	0.2166	0.2062	0.5	0.023
Mof_C 	C 	0.2349	0.1406	0.5	-0.136
Mof_C 	C 	0.2074	0.2393	0.5	-0.011
Mof_O 	O 	0.4682	0.4503	0.5	-1.938
Mof_C 	C 	0.1908	0.3065	0.5	0.002
Mof_C 	C 	0.218	0.3591	0.5	0.001
Mof_C 	C 	0.1865	0.343	0.5	-0
Mof_C 	C 	0.311	0.4064	0.5	0.016
Mof_C 	C 	0.2802	0.3905	0.5	-0.005
Mof_C 	C 	0.3764	0.4274	0.5	-0.074
Mof_C 	C 	0.402	0.452	0.5	0.319
Mof_O 	O 	0.2238	0.9646	0.5	-0.622
Mof_C 	C 	0.2441	0.8927	0.5	0.395
Mof_C 	C 	0.2166	0.7938	0.5	0.023
Mof_C 	C 	0.2349	0.8594	0.5	-0.136
Mof_C 	C 	0.2074	0.7607	0.5	-0.011
Mof_O 	O 	0.4682	0.5497	0.5	-1.938
Mof_C 	C 	0.1908	0.6935	0.5	0.002
Mof_C 	C 	0.218	0.6409	0.5	0.001
Mof_C 	C 	0.1865	0.657	0.5	-0
Mof_C 	C 	0.311	0.5936	0.5	0.016
Mof_C 	C 	0.2802	0.6095	0.5	-0.005
Mof_C 	C 	0.3764	0.5726	0.5	-0.074
Mof_C 	C 	0.402	0.548	0.5	0.319
Mof_O 	O 	0.7762	0.0354	0.5	-0.621
Mof_C 	C 	0.7559	0.1073	0.5	0.395
Mof_C 	C 	0.7834	0.2062	0.5	0.023
Mof_C 	C 	0.7651	0.1406	0.5	-0.136
Mof_C 	C 	0.7926	0.2393	0.5	-0.011
Mof_O 	O 	0.5318	0.4503	0.5	-1.938
Mof_C 	C 	0.8092	0.3065	0.5	0.002
Mof_C 	C 	0.782	0.3591	0.5	0.001
Mof_C 	C 	0.8135	0.343	0.5	-0
Mof_C 	C 	0.689	0.4064	0.5	0.016
Mof_C 	C 	0.7198	0.3905	0.5	-0.005
Mof_C 	C 	0.6236	0.4274	0.5	-0.074
Mof_C 	C 	0.598	0.452	0.5	0.319
Mof_O 	O 	0.7762	0.9646	0.5	-0.622
Mof_C 	C 	0.7559	0.8927	0.5	0.395
Mof_C 	C 	0.7834	0.7938	0.5	0.023
Mof_C 	C 	0.7651	0.8594	0.5	-0.136
Mof_C 	C 	0.7926	0.7607	0.5	-0.011
Mof_O 	O 	0.5318	0.5497	0.5	-1.938
Mof_C 	C 	0.8092	0.6935	0.5	0.002
Mof_C 	C 	0.782	0.6409	0.5	0.001
Mof_C 	C 	0.8135	0.657	0.5	-0
Mof_C 	C 	0.689	0.5936	0.5	0.016
Mof_C 	C 	0.7198	0.6095	0.5	-0.005
Mof_C 	C 	0.6236	0.5726	0.5	-0.074
Mof_C 	C 	0.598	0.548	0.5	0.319
Mof_Hf	Hf	0.96708	0.96708	0.96708	3.534
Mof_Hf	Hf	0.03292	0.03292	0.96708	3.542
Mof_Hf	Hf	0.03292	0.96708	0.03292	3.542
Mof_Hf	Hf	0.96708	0.03292	0.03292	3.542
Mof_Hf	Hf	0.46708	0.46708	0.53292	3.549
Mof_Hf	Hf	0.53292	0.53292	0.53292	3.549
Mof_Hf	Hf	0.46708	0.53292	0.46708	3.549
Mof_Hf	Hf	0.53292	0.46708	0.46708	3.549
Mof_Hf	Hf	0.03292	0.03292	0.03292	3.547
Mof_Hf	Hf	0.96708	0.96708	0.03292	3.538
Mof_Hf	Hf	0.96708	0.03292	0.96708	3.538
Mof_Hf	Hf	0.03292	0.96708	0.96708	3.538
Mof_Hf	Hf	0.53292	0.53292	0.46708	3.549
Mof_Hf	Hf	0.46708	0.46708	0.46708	3.549
Mof_Hf	Hf	0.53292	0.46708	0.53292	3.549
Mof_Hf	Hf	0.46708	0.53292	0.53292	3.549
_end
