data_functionalizedCrystal
_audit_creation_method	'EQeq! by Chris Wilmer'
_symmetry_space_group_name_H-M	'P1'
_symmetry_Int_Tables_number	1
_symmetry_cell_setting	triclinic
loop_
_symmetry_equiv_pos_as_xyz
  x,y,z
_cell_length_a	13.7934
_cell_length_b	27.424
_cell_length_c	45.907
_cell_angle_alpha	90
_cell_angle_beta	90
_cell_angle_gamma	90
loop_
_atom_site_label
_atom_site_type_symbol
_atom_site_fract_x
_atom_site_fract_y
_atom_site_fract_z
_atom_site_charge
Mof_Zn	Zn	0.1468	0.05145	0.57114	1.162
Mof_Zn	Zn	0.35628	0.02786	0.41344	1.163
Mof_Zn	Zn	0.14933	0.24383	0.31153	1.163
Mof_Zn	Zn	0.8532	0.44855	0.07114	1.162
Mof_Zn	Zn	0.64372	0.47214	0.91344	1.163
Mof_Zn	Zn	0.85067	0.25617	0.81153	1.163
Mof_Zn	Zn	0.6468	0.94855	0.92886	1.162
Mof_Zn	Zn	0.85628	0.97214	0.08656	1.163
Mof_Zn	Zn	0.64933	0.75617	0.18847	1.163
Mof_Zn	Zn	0.3532	0.55145	0.42886	1.162
Mof_Zn	Zn	0.14372	0.52786	0.58656	1.163
Mof_Zn	Zn	0.35067	0.74383	0.68847	1.163
Mof_H 	H 	0.4928	0.0506	0.4631	-0.006
Mof_H 	H 	0.649	0.08	0.4706	0.084
Mof_H 	H 	0.5146	0.0739	0.3791	-0.014
Mof_H 	H 	0.6703	0.1042	0.3842	0.096
Mof_H 	H 	0.9379	0.227	0.3283	-0.013
Mof_H 	H 	0.8488	0.1932	0.366	0.074
Mof_H 	H 	0.1847	0.1873	0.3652	-0.007
Mof_H 	H 	0.1012	0.1523	0.4036	0.082
Mof_H 	H 	0.182	0.1067	0.515	-0.011
Mof_H 	H 	0.0971	0.1341	0.4747	0.076
Mof_H 	H 	0.954	0.0331	0.5429	-0.007
Mof_H 	H 	0.864	0.0579	0.503	0.085
Mof_H 	H 	0.0801	0.0806	0.6313	-0.008
Mof_H 	H 	0.0563	0.1493	0.6594	0.078
Mof_H 	H 	0.1484	0.16	0.5631	-0.019
Mof_H 	H 	0.1247	0.2319	0.5888	0.078
Mof_H 	H 	0.1101	0.4228	0.5705	-0.006
Mof_H 	H 	0.0906	0.3472	0.5922	0.077
Mof_H 	H 	0.0969	0.4886	0.6467	-0.005
Mof_H 	H 	0.0724	0.4153	0.6705	0.078
Mof_H 	H 	0.9114	0.3355	0.7717	-0.01
Mof_H 	H 	0.9736	0.3461	0.7247	0.078
Mof_H 	H 	0.9666	0.1946	0.769	0.001
Mof_H 	H 	0.0279	0.2013	0.722	0.08
Mof_H 	H 	0.5072	0.4494	0.9631	-0.006
Mof_H 	H 	0.351	0.42	0.9706	0.084
Mof_H 	H 	0.4854	0.4261	0.8791	-0.014
Mof_H 	H 	0.3297	0.3958	0.8842	0.096
Mof_H 	H 	0.0621	0.273	0.8283	-0.013
Mof_H 	H 	0.1512	0.3068	0.866	0.074
Mof_H 	H 	0.8153	0.3127	0.8652	-0.007
Mof_H 	H 	0.8988	0.3477	0.9036	0.081
Mof_H 	H 	0.818	0.3933	0.015	-0.01
Mof_H 	H 	0.9029	0.3659	0.9747	0.076
Mof_H 	H 	0.046	0.4669	0.0429	-0.006
Mof_H 	H 	0.136	0.4421	0.003	0.086
Mof_H 	H 	0.9199	0.4194	0.1313	-0.007
Mof_H 	H 	0.9437	0.3507	0.1594	0.079
Mof_H 	H 	0.8516	0.34	0.0631	-0.018
Mof_H 	H 	0.8753	0.2681	0.0888	0.079
Mof_H 	H 	0.8899	0.0772	0.0705	-0.005
Mof_H 	H 	0.9094	0.1528	0.0922	0.078
Mof_H 	H 	0.9031	0.0114	0.1467	-0.004
Mof_H 	H 	0.9276	0.0847	0.1705	0.079
Mof_H 	H 	0.0886	0.1645	0.2717	-0.009
Mof_H 	H 	0.0264	0.1539	0.2247	0.079
Mof_H 	H 	0.0334	0.3054	0.269	0.002
Mof_H 	H 	0.9721	0.2987	0.222	0.081
Mof_H 	H 	0.9928	0.9494	0.0369	-0.006
Mof_H 	H 	0.149	0.92	0.0294	0.086
Mof_H 	H 	0.0146	0.9261	0.1209	-0.013
Mof_H 	H 	0.1703	0.8958	0.1158	0.097
Mof_H 	H 	0.4379	0.773	0.1717	-0.012
Mof_H 	H 	0.3488	0.8068	0.134	0.075
Mof_H 	H 	0.6847	0.8127	0.1348	-0.006
Mof_H 	H 	0.6012	0.8477	0.0964	0.082
Mof_H 	H 	0.682	0.8933	0.985	-0.01
Mof_H 	H 	0.5971	0.8659	0.0253	0.076
Mof_H 	H 	0.454	0.9669	0.9571	-0.006
Mof_H 	H 	0.364	0.9421	0.997	0.086
Mof_H 	H 	0.5801	0.9194	0.8687	-0.007
Mof_H 	H 	0.5563	0.8507	0.8406	0.079
Mof_H 	H 	0.6484	0.84	0.9369	-0.018
Mof_H 	H 	0.6247	0.7681	0.9112	0.079
Mof_H 	H 	0.6101	0.5772	0.9295	-0.005
Mof_H 	H 	0.5906	0.6528	0.9078	0.078
Mof_H 	H 	0.5969	0.5114	0.8533	-0.004
Mof_H 	H 	0.5724	0.5847	0.8295	0.079
Mof_H 	H 	0.4114	0.6645	0.7283	-0.009
Mof_H 	H 	0.4736	0.6539	0.7753	0.079
Mof_H 	H 	0.4666	0.8054	0.731	0.002
Mof_H 	H 	0.5279	0.7987	0.778	0.081
Mof_H 	H 	0.0072	0.5506	0.5369	-0.005
Mof_H 	H 	0.851	0.58	0.5294	0.085
Mof_H 	H 	0.9854	0.5739	0.6209	-0.013
Mof_H 	H 	0.8297	0.6042	0.6158	0.096
Mof_H 	H 	0.5621	0.727	0.6717	-0.012
Mof_H 	H 	0.6512	0.6932	0.634	0.075
Mof_H 	H 	0.3153	0.6873	0.6348	-0.006
Mof_H 	H 	0.3988	0.6523	0.5964	0.082
Mof_H 	H 	0.318	0.6067	0.485	-0.01
Mof_H 	H 	0.4029	0.6341	0.5253	0.076
Mof_H 	H 	0.546	0.5331	0.4571	-0.006
Mof_H 	H 	0.636	0.5579	0.497	0.086
Mof_H 	H 	0.4199	0.5806	0.3687	-0.007
Mof_H 	H 	0.4437	0.6493	0.3406	0.079
Mof_H 	H 	0.3516	0.66	0.4369	-0.018
Mof_H 	H 	0.3753	0.7319	0.4112	0.079
Mof_H 	H 	0.3899	0.9228	0.4295	-0.005
Mof_H 	H 	0.4094	0.8472	0.4078	0.078
Mof_H 	H 	0.4031	0.9886	0.3533	-0.004
Mof_H 	H 	0.4276	0.9153	0.3295	0.079
Mof_H 	H 	0.5886	0.8355	0.2283	-0.009
Mof_H 	H 	0.5264	0.8461	0.2753	0.079
Mof_H 	H 	0.5334	0.6946	0.231	0.002
Mof_H 	H 	0.4721	0.7013	0.278	0.081
Mof_C 	C 	0.5294	0.0615	0.44688	0.071
Mof_C 	C 	0.6226	0.0792	0.45147	-0.122
Mof_C 	C 	0.5424	0.0752	0.39801	0.079
Mof_C 	C 	0.6353	0.0934	0.40077	-0.131
Mof_C 	C 	0.6762	0.09538	0.42823	0.057
Mof_C 	C 	0.7776	0.11253	0.43189	0.094
Mof_C 	C 	0.9713	0.2116	0.34391	0.069
Mof_C 	C 	0.9176	0.1917	0.36627	-0.117
Mof_C 	C 	0.1159	0.18845	0.36539	0.062
Mof_C 	C 	0.0666	0.16775	0.38833	-0.108
Mof_C 	C 	0.9657	0.16966	0.38894	0.057
Mof_C 	C 	0.913	0.14687	0.4135	0.106
Mof_C 	C 	0.1165	0.0969	0.51257	0.067
Mof_C 	C 	0.0664	0.1133	0.48845	-0.115
Mof_C 	C 	0.9833	0.05379	0.52879	0.063
Mof_C 	C 	0.9292	0.06856	0.50523	-0.119
Mof_C 	C 	0.9713	0.09938	0.48457	0.05
Mof_C 	C 	0.9143	0.11454	0.45859	0.101
Mof_C 	C 	0.0894	0.11178	0.62275	0.059
Mof_C 	C 	0.0749	0.15249	0.6396	-0.112
Mof_C 	C 	0.129	0.15814	0.58289	0.073
Mof_C 	C 	0.1154	0.20126	0.59807	-0.118
Mof_C 	C 	0.0876	0.19858	0.62725	0.049
Mof_C 	C 	0.0737	0.24276	0.64477	0.103
Mof_C 	C 	0.1038	0.42106	0.59106	0.063
Mof_C 	C 	0.0917	0.37584	0.6038	-0.109
Mof_C 	C 	0.0954	0.4594	0.63555	0.064
Mof_C 	C 	0.0815	0.4159	0.64995	-0.11
Mof_C 	C 	0.081	0.37275	0.63386	0.047
Mof_C 	C 	0.0709	0.32468	0.64812	0.105
Mof_C 	C 	0.9348	0.3079	0.76131	0.059
Mof_C 	C 	0.9714	0.3146	0.73327	-0.112
Mof_C 	C 	0.9667	0.22557	0.75976	0.061
Mof_C 	C 	0.0036	0.22932	0.73173	-0.112
Mof_C 	C 	0.0045	0.27413	0.71827	0.05
Mof_C 	C 	0.0364	0.27882	0.68744	0.103
Mof_C 	C 	0.4706	0.4385	0.94688	0.071
Mof_C 	C 	0.3774	0.4208	0.95147	-0.122
Mof_C 	C 	0.4576	0.4248	0.89801	0.079
Mof_C 	C 	0.3647	0.4066	0.90077	-0.131
Mof_C 	C 	0.3238	0.40462	0.92823	0.057
Mof_C 	C 	0.2224	0.38747	0.93189	0.094
Mof_C 	C 	0.0287	0.2884	0.84391	0.068
Mof_C 	C 	0.0824	0.3083	0.86627	-0.116
Mof_C 	C 	0.8841	0.31155	0.86539	0.061
Mof_C 	C 	0.9334	0.33225	0.88833	-0.106
Mof_C 	C 	0.0343	0.33034	0.88894	0.056
Mof_C 	C 	0.087	0.35313	0.9135	0.107
Mof_C 	C 	0.8835	0.4031	0.01257	0.067
Mof_C 	C 	0.9336	0.3867	0.98845	-0.114
Mof_C 	C 	0.0167	0.44621	0.02879	0.061
Mof_C 	C 	0.0708	0.43144	0.00523	-0.118
Mof_C 	C 	0.0287	0.40062	0.98457	0.049
Mof_C 	C 	0.0857	0.38546	0.95859	0.102
Mof_C 	C 	0.9106	0.38822	0.12275	0.059
Mof_C 	C 	0.9251	0.34751	0.1396	-0.112
Mof_C 	C 	0.871	0.34186	0.08289	0.073
Mof_C 	C 	0.8846	0.29874	0.09807	-0.118
Mof_C 	C 	0.9124	0.30142	0.12725	0.049
Mof_C 	C 	0.9263	0.25724	0.14477	0.103
Mof_C 	C 	0.8962	0.07894	0.09106	0.063
Mof_C 	C 	0.9083	0.12416	0.1038	-0.109
Mof_C 	C 	0.9046	0.0406	0.13555	0.064
Mof_C 	C 	0.9185	0.0841	0.14995	-0.11
Mof_C 	C 	0.919	0.12725	0.13386	0.047
Mof_C 	C 	0.9291	0.17532	0.14812	0.105
Mof_C 	C 	0.0652	0.1921	0.26131	0.059
Mof_C 	C 	0.0286	0.1854	0.23327	-0.113
Mof_C 	C 	0.0333	0.27443	0.25976	0.06
Mof_C 	C 	0.9964	0.27068	0.23173	-0.111
Mof_C 	C 	0.9955	0.22587	0.21827	0.05
Mof_C 	C 	0.9636	0.22118	0.18744	0.103
Mof_C 	C 	0.0294	0.9385	0.05312	0.073
Mof_C 	C 	0.1226	0.9208	0.04853	-0.123
Mof_C 	C 	0.0424	0.9248	0.10199	0.08
Mof_C 	C 	0.1353	0.9066	0.09923	-0.132
Mof_C 	C 	0.1762	0.90462	0.07177	0.057
Mof_C 	C 	0.2776	0.88747	0.06811	0.094
Mof_C 	C 	0.4713	0.7884	0.15609	0.068
Mof_C 	C 	0.4176	0.8083	0.13373	-0.116
Mof_C 	C 	0.6159	0.81155	0.13461	0.061
Mof_C 	C 	0.5666	0.83225	0.11167	-0.106
Mof_C 	C 	0.4657	0.83034	0.11106	0.056
Mof_C 	C 	0.413	0.85313	0.0865	0.107
Mof_C 	C 	0.6165	0.9031	0.98743	0.067
Mof_C 	C 	0.5664	0.8867	0.01155	-0.114
Mof_C 	C 	0.4833	0.94621	0.97121	0.062
Mof_C 	C 	0.4292	0.93144	0.99477	-0.118
Mof_C 	C 	0.4713	0.90062	0.01543	0.049
Mof_C 	C 	0.4143	0.88546	0.04141	0.102
Mof_C 	C 	0.5894	0.88822	0.87725	0.059
Mof_C 	C 	0.5749	0.84751	0.8604	-0.112
Mof_C 	C 	0.629	0.84186	0.91711	0.073
Mof_C 	C 	0.6154	0.79874	0.90193	-0.118
Mof_C 	C 	0.5876	0.80142	0.87275	0.049
Mof_C 	C 	0.5737	0.75724	0.85523	0.103
Mof_C 	C 	0.6038	0.57894	0.90894	0.063
Mof_C 	C 	0.5917	0.62416	0.8962	-0.109
Mof_C 	C 	0.5954	0.5406	0.86445	0.064
Mof_C 	C 	0.5815	0.5841	0.85005	-0.11
Mof_C 	C 	0.581	0.62725	0.86614	0.047
Mof_C 	C 	0.5709	0.67532	0.85188	0.105
Mof_C 	C 	0.4348	0.6921	0.73869	0.059
Mof_C 	C 	0.4714	0.6854	0.76673	-0.112
Mof_C 	C 	0.4667	0.77443	0.74024	0.061
Mof_C 	C 	0.5036	0.77068	0.76827	-0.112
Mof_C 	C 	0.5045	0.72587	0.78173	0.049
Mof_C 	C 	0.5364	0.72118	0.81256	0.103
Mof_C 	C 	0.9706	0.5615	0.55312	0.071
Mof_C 	C 	0.8774	0.5792	0.54853	-0.122
Mof_C 	C 	0.9576	0.5752	0.60199	0.079
Mof_C 	C 	0.8647	0.5934	0.59923	-0.131
Mof_C 	C 	0.8238	0.59538	0.57177	0.057
Mof_C 	C 	0.7224	0.61253	0.56811	0.094
Mof_C 	C 	0.5287	0.7116	0.65609	0.068
Mof_C 	C 	0.5824	0.6917	0.63373	-0.116
Mof_C 	C 	0.3841	0.68845	0.63461	0.061
Mof_C 	C 	0.4334	0.66775	0.61167	-0.106
Mof_C 	C 	0.5343	0.66966	0.61106	0.056
Mof_C 	C 	0.587	0.64687	0.5865	0.107
Mof_C 	C 	0.3835	0.5969	0.48743	0.067
Mof_C 	C 	0.4336	0.6133	0.51155	-0.114
Mof_C 	C 	0.5167	0.55379	0.47121	0.062
Mof_C 	C 	0.5708	0.56856	0.49477	-0.118
Mof_C 	C 	0.5287	0.59938	0.51543	0.049
Mof_C 	C 	0.5857	0.61454	0.54141	0.102
Mof_C 	C 	0.4106	0.61178	0.37725	0.059
Mof_C 	C 	0.4251	0.65249	0.3604	-0.112
Mof_C 	C 	0.371	0.65814	0.41711	0.073
Mof_C 	C 	0.3846	0.70126	0.40193	-0.118
Mof_C 	C 	0.4124	0.69858	0.37275	0.049
Mof_C 	C 	0.4263	0.74276	0.35523	0.103
Mof_C 	C 	0.3962	0.92106	0.40894	0.063
Mof_C 	C 	0.4083	0.87584	0.3962	-0.109
Mof_C 	C 	0.4046	0.9594	0.36445	0.064
Mof_C 	C 	0.4185	0.9159	0.35005	-0.11
Mof_C 	C 	0.419	0.87275	0.36614	0.047
Mof_C 	C 	0.4291	0.82468	0.35188	0.105
Mof_C 	C 	0.5652	0.8079	0.23869	0.059
Mof_C 	C 	0.5286	0.8146	0.26673	-0.112
Mof_C 	C 	0.5333	0.72557	0.24024	0.061
Mof_C 	C 	0.4964	0.72932	0.26827	-0.112
Mof_C 	C 	0.4955	0.77413	0.28173	0.049
Mof_C 	C 	0.4636	0.77882	0.31256	0.103
Mof_I 	I 	0.05345	0.98394	0.59693	-0.362
Mof_I 	I 	0.33	0.05379	0.56429	-0.379
Mof_I 	I 	0.2823	0.00838	0.46307	-0.389
Mof_I 	I 	0.26459	0.07353	0.37391	-0.364
Mof_I 	I 	0.16472	0.33448	0.32285	-0.374
Mof_I 	I 	0.30323	0.1925	0.30487	-0.368
Mof_I 	I 	0.94655	0.51606	0.09693	-0.363
Mof_I 	I 	0.67	0.44621	0.06429	-0.379
Mof_I 	I 	0.7177	0.49162	0.96307	-0.389
Mof_I 	I 	0.73541	0.42647	0.87391	-0.364
Mof_I 	I 	0.83528	0.16552	0.82285	-0.373
Mof_I 	I 	0.69677	0.3075	0.80487	-0.368
Mof_I 	I 	0.55345	0.01606	0.90307	-0.363
Mof_I 	I 	0.83	0.94621	0.93571	-0.379
Mof_I 	I 	0.7823	0.99162	0.03693	-0.389
Mof_I 	I 	0.76459	0.92647	0.12609	-0.364
Mof_I 	I 	0.66472	0.66552	0.17715	-0.373
Mof_I 	I 	0.80323	0.8075	0.19513	-0.368
Mof_I 	I 	0.44655	0.48394	0.40307	-0.363
Mof_I 	I 	0.17	0.55379	0.43571	-0.379
Mof_I 	I 	0.2177	0.50838	0.53693	-0.389
Mof_I 	I 	0.23541	0.57353	0.62609	-0.364
Mof_I 	I 	0.33528	0.83448	0.67715	-0.373
Mof_I 	I 	0.19677	0.6925	0.69513	-0.368
Mof_N 	N 	0.4895	0.05942	0.42031	-0.276
Mof_N 	N 	0.0691	0.21027	0.34313	-0.274
Mof_N 	N 	0.0765	0.06757	0.53263	-0.271
Mof_N 	N 	0.8195	0.1351	0.40925	-0.133
Mof_N 	N 	0.9637	0.13787	0.43774	-0.137
Mof_N 	N 	0.8215	0.10184	0.4571	-0.143
Mof_N 	N 	0.1165	0.11435	0.59455	-0.271
Mof_N 	N 	0.1069	0.46264	0.60653	-0.266
Mof_N 	N 	0.9313	0.26399	0.77425	-0.271
Mof_N 	N 	0.0857	0.2858	0.63146	-0.14
Mof_N 	N 	0.0464	0.32371	0.67637	-0.139
Mof_N 	N 	0.0494	0.23731	0.67276	-0.14
Mof_N 	N 	0.5105	0.44058	0.92031	-0.276
Mof_N 	N 	0.9309	0.28973	0.84313	-0.273
Mof_N 	N 	0.9235	0.43243	0.03263	-0.271
Mof_N 	N 	0.1805	0.3649	0.90925	-0.133
Mof_N 	N 	0.0363	0.36213	0.93774	-0.137
Mof_N 	N 	0.1785	0.39816	0.9571	-0.143
Mof_N 	N 	0.8835	0.38565	0.09455	-0.271
Mof_N 	N 	0.8931	0.03736	0.10653	-0.266
Mof_N 	N 	0.0687	0.23601	0.27425	-0.271
Mof_N 	N 	0.9143	0.2142	0.13146	-0.14
Mof_N 	N 	0.9536	0.17629	0.17637	-0.139
Mof_N 	N 	0.9506	0.26269	0.17276	-0.14
Mof_N 	N 	0.9895	0.94058	0.07969	-0.277
Mof_N 	N 	0.5691	0.78973	0.15687	-0.273
Mof_N 	N 	0.5765	0.93243	0.96737	-0.271
Mof_N 	N 	0.3195	0.8649	0.09075	-0.133
Mof_N 	N 	0.4637	0.86213	0.06226	-0.137
Mof_N 	N 	0.3215	0.89816	0.0429	-0.143
Mof_N 	N 	0.6165	0.88565	0.90545	-0.271
Mof_N 	N 	0.6069	0.53736	0.89347	-0.266
Mof_N 	N 	0.4313	0.73601	0.72575	-0.271
Mof_N 	N 	0.5857	0.7142	0.86854	-0.14
Mof_N 	N 	0.5464	0.67629	0.82363	-0.139
Mof_N 	N 	0.5494	0.76269	0.82724	-0.14
Mof_N 	N 	0.0105	0.55942	0.57969	-0.276
Mof_N 	N 	0.4309	0.71027	0.65687	-0.273
Mof_N 	N 	0.4235	0.56757	0.46737	-0.271
Mof_N 	N 	0.6805	0.6351	0.59075	-0.133
Mof_N 	N 	0.5363	0.63787	0.56226	-0.137
Mof_N 	N 	0.6785	0.60184	0.5429	-0.143
Mof_N 	N 	0.3835	0.61435	0.40545	-0.271
Mof_N 	N 	0.3931	0.96264	0.39347	-0.266
Mof_N 	N 	0.5687	0.76399	0.22575	-0.271
Mof_N 	N 	0.4143	0.7858	0.36854	-0.14
Mof_N 	N 	0.4536	0.82371	0.32363	-0.139
Mof_N 	N 	0.4506	0.73731	0.32724	-0.14
Mof_Zn	Zn	0.8532	0.94855	0.42886	1.163
Mof_Zn	Zn	0.64372	0.97214	0.58656	1.164
Mof_Zn	Zn	0.85067	0.75617	0.68847	1.164
Mof_Zn	Zn	0.1468	0.55145	0.92886	1.163
Mof_Zn	Zn	0.35628	0.52786	0.08656	1.164
Mof_Zn	Zn	0.14933	0.74383	0.18847	1.164
Mof_Zn	Zn	0.3532	0.05145	0.07114	1.163
Mof_Zn	Zn	0.14372	0.02786	0.91344	1.164
Mof_Zn	Zn	0.35067	0.24383	0.81153	1.164
Mof_Zn	Zn	0.6468	0.44855	0.57114	1.163
Mof_Zn	Zn	0.85628	0.47214	0.41344	1.164
Mof_Zn	Zn	0.64933	0.25617	0.31153	1.164
Mof_H 	H 	0.5072	0.9494	0.5369	-0.005
Mof_H 	H 	0.351	0.92	0.5294	0.085
Mof_H 	H 	0.4854	0.9261	0.6209	-0.013
Mof_H 	H 	0.3297	0.8958	0.6158	0.097
Mof_H 	H 	0.0621	0.773	0.6717	-0.012
Mof_H 	H 	0.1512	0.8068	0.634	0.075
Mof_H 	H 	0.8153	0.8127	0.6348	-0.006
Mof_H 	H 	0.8988	0.8477	0.5964	0.083
Mof_H 	H 	0.818	0.8933	0.485	-0.01
Mof_H 	H 	0.9029	0.8659	0.5253	0.077
Mof_H 	H 	0.046	0.9669	0.4571	-0.006
Mof_H 	H 	0.136	0.9421	0.497	0.086
Mof_H 	H 	0.9199	0.9194	0.3687	-0.007
Mof_H 	H 	0.9437	0.8507	0.3406	0.079
Mof_H 	H 	0.8516	0.84	0.4369	-0.018
Mof_H 	H 	0.8753	0.7681	0.4112	0.079
Mof_H 	H 	0.8899	0.5772	0.4295	-0.005
Mof_H 	H 	0.9094	0.6528	0.4078	0.078
Mof_H 	H 	0.9031	0.5114	0.3533	-0.004
Mof_H 	H 	0.9276	0.5847	0.3295	0.079
Mof_H 	H 	0.0886	0.6645	0.2283	-0.009
Mof_H 	H 	0.0264	0.6539	0.2753	0.079
Mof_H 	H 	0.0334	0.8054	0.231	0.002
Mof_H 	H 	0.9721	0.7987	0.278	0.081
Mof_H 	H 	0.4928	0.5506	0.0369	-0.005
Mof_H 	H 	0.649	0.58	0.0294	0.085
Mof_H 	H 	0.5146	0.5739	0.1209	-0.013
Mof_H 	H 	0.6703	0.6042	0.1158	0.097
Mof_H 	H 	0.9379	0.727	0.1717	-0.012
Mof_H 	H 	0.8488	0.6932	0.134	0.075
Mof_H 	H 	0.1847	0.6873	0.1348	-0.006
Mof_H 	H 	0.1012	0.6523	0.0964	0.082
Mof_H 	H 	0.182	0.6067	0.985	-0.01
Mof_H 	H 	0.0971	0.6341	0.0253	0.076
Mof_H 	H 	0.954	0.5331	0.9571	-0.006
Mof_H 	H 	0.864	0.5579	0.997	0.086
Mof_H 	H 	0.0801	0.5806	0.8687	-0.007
Mof_H 	H 	0.0563	0.6493	0.8406	0.079
Mof_H 	H 	0.1484	0.66	0.9369	-0.018
Mof_H 	H 	0.1247	0.7319	0.9112	0.079
Mof_H 	H 	0.1101	0.9228	0.9295	-0.005
Mof_H 	H 	0.0906	0.8472	0.9078	0.078
Mof_H 	H 	0.0969	0.9886	0.8533	-0.004
Mof_H 	H 	0.0724	0.9153	0.8295	0.079
Mof_H 	H 	0.9114	0.8355	0.7283	-0.009
Mof_H 	H 	0.9736	0.8461	0.7753	0.079
Mof_H 	H 	0.9666	0.6946	0.731	0.002
Mof_H 	H 	0.0279	0.7013	0.778	0.081
Mof_H 	H 	0.0072	0.0506	0.9631	-0.006
Mof_H 	H 	0.851	0.08	0.9706	0.086
Mof_H 	H 	0.9854	0.0739	0.8791	-0.013
Mof_H 	H 	0.8297	0.1042	0.8842	0.097
Mof_H 	H 	0.5621	0.227	0.8283	-0.012
Mof_H 	H 	0.6512	0.1932	0.866	0.075
Mof_H 	H 	0.3153	0.1873	0.8652	-0.006
Mof_H 	H 	0.3988	0.1523	0.9036	0.082
Mof_H 	H 	0.318	0.1067	0.015	-0.01
Mof_H 	H 	0.4029	0.1341	0.9747	0.076
Mof_H 	H 	0.546	0.0331	0.0429	-0.006
Mof_H 	H 	0.636	0.0579	0.003	0.086
Mof_H 	H 	0.4199	0.0806	0.1313	-0.007
Mof_H 	H 	0.4437	0.1493	0.1594	0.079
Mof_H 	H 	0.3516	0.16	0.0631	-0.018
Mof_H 	H 	0.3753	0.2319	0.0888	0.079
Mof_H 	H 	0.3899	0.4228	0.0705	-0.005
Mof_H 	H 	0.4094	0.3472	0.0922	0.078
Mof_H 	H 	0.4031	0.4886	0.1467	-0.004
Mof_H 	H 	0.4276	0.4153	0.1705	0.079
Mof_H 	H 	0.5886	0.3355	0.2717	-0.009
Mof_H 	H 	0.5264	0.3461	0.2247	0.079
Mof_H 	H 	0.5334	0.1946	0.269	0.002
Mof_H 	H 	0.4721	0.2013	0.222	0.081
Mof_H 	H 	0.9928	0.4494	0.4631	-0.005
Mof_H 	H 	0.149	0.42	0.4706	0.085
Mof_H 	H 	0.0146	0.4261	0.3791	-0.013
Mof_H 	H 	0.1703	0.3958	0.3842	0.096
Mof_H 	H 	0.4379	0.273	0.3283	-0.012
Mof_H 	H 	0.3488	0.3068	0.366	0.075
Mof_H 	H 	0.6847	0.3127	0.3652	-0.006
Mof_H 	H 	0.6012	0.3477	0.4036	0.082
Mof_H 	H 	0.682	0.3933	0.515	-0.01
Mof_H 	H 	0.5971	0.3659	0.4747	0.076
Mof_H 	H 	0.454	0.4669	0.5429	-0.006
Mof_H 	H 	0.364	0.4421	0.503	0.086
Mof_H 	H 	0.5801	0.4194	0.6313	-0.007
Mof_H 	H 	0.5563	0.3507	0.6594	0.079
Mof_H 	H 	0.6484	0.34	0.5631	-0.018
Mof_H 	H 	0.6247	0.2681	0.5888	0.079
Mof_H 	H 	0.6101	0.0772	0.5705	-0.005
Mof_H 	H 	0.5906	0.1528	0.5922	0.078
Mof_H 	H 	0.5969	0.0114	0.6467	-0.004
Mof_H 	H 	0.5724	0.0847	0.6705	0.079
Mof_H 	H 	0.4114	0.1645	0.7717	-0.009
Mof_H 	H 	0.4736	0.1539	0.7247	0.079
Mof_H 	H 	0.4666	0.3054	0.769	0.002
Mof_H 	H 	0.5279	0.2987	0.722	0.081
Mof_C 	C 	0.4706	0.9385	0.55312	0.071
Mof_C 	C 	0.3774	0.9208	0.54853	-0.122
Mof_C 	C 	0.4576	0.9248	0.60199	0.079
Mof_C 	C 	0.3647	0.9066	0.59923	-0.131
Mof_C 	C 	0.3238	0.90462	0.57177	0.057
Mof_C 	C 	0.2224	0.88747	0.56811	0.094
Mof_C 	C 	0.0287	0.7884	0.65609	0.069
Mof_C 	C 	0.0824	0.8083	0.63373	-0.117
Mof_C 	C 	0.8841	0.81155	0.63461	0.062
Mof_C 	C 	0.9334	0.83225	0.61167	-0.108
Mof_C 	C 	0.0343	0.83034	0.61106	0.057
Mof_C 	C 	0.087	0.85313	0.5865	0.106
Mof_C 	C 	0.8835	0.9031	0.48743	0.067
Mof_C 	C 	0.9336	0.8867	0.51155	-0.115
Mof_C 	C 	0.0167	0.94621	0.47121	0.063
Mof_C 	C 	0.0708	0.93144	0.49477	-0.119
Mof_C 	C 	0.0287	0.90062	0.51543	0.05
Mof_C 	C 	0.0857	0.88546	0.54141	0.101
Mof_C 	C 	0.9106	0.88822	0.37725	0.059
Mof_C 	C 	0.9251	0.84751	0.3604	-0.112
Mof_C 	C 	0.871	0.84186	0.41711	0.073
Mof_C 	C 	0.8846	0.79874	0.40193	-0.118
Mof_C 	C 	0.9124	0.80142	0.37275	0.049
Mof_C 	C 	0.9263	0.75724	0.35523	0.103
Mof_C 	C 	0.8962	0.57894	0.40894	0.063
Mof_C 	C 	0.9083	0.62416	0.3962	-0.109
Mof_C 	C 	0.9046	0.5406	0.36445	0.064
Mof_C 	C 	0.9185	0.5841	0.35005	-0.11
Mof_C 	C 	0.919	0.62725	0.36614	0.047
Mof_C 	C 	0.9291	0.67532	0.35188	0.105
Mof_C 	C 	0.0652	0.6921	0.23869	0.059
Mof_C 	C 	0.0286	0.6854	0.26673	-0.112
Mof_C 	C 	0.0333	0.77443	0.24024	0.061
Mof_C 	C 	0.9964	0.77068	0.26827	-0.112
Mof_C 	C 	0.9955	0.72587	0.28173	0.05
Mof_C 	C 	0.9636	0.72118	0.31256	0.103
Mof_C 	C 	0.5294	0.5615	0.05312	0.071
Mof_C 	C 	0.6226	0.5792	0.04853	-0.122
Mof_C 	C 	0.5424	0.5752	0.10199	0.079
Mof_C 	C 	0.6353	0.5934	0.09923	-0.131
Mof_C 	C 	0.6762	0.59538	0.07177	0.057
Mof_C 	C 	0.7776	0.61253	0.06811	0.094
Mof_C 	C 	0.9713	0.7116	0.15609	0.068
Mof_C 	C 	0.9176	0.6917	0.13373	-0.116
Mof_C 	C 	0.1159	0.68845	0.13461	0.061
Mof_C 	C 	0.0666	0.66775	0.11167	-0.106
Mof_C 	C 	0.9657	0.66966	0.11106	0.056
Mof_C 	C 	0.913	0.64687	0.0865	0.107
Mof_C 	C 	0.1165	0.5969	0.98743	0.067
Mof_C 	C 	0.0664	0.6133	0.01155	-0.114
Mof_C 	C 	0.9833	0.55379	0.97121	0.061
Mof_C 	C 	0.9292	0.56856	0.99477	-0.118
Mof_C 	C 	0.9713	0.59938	0.01543	0.049
Mof_C 	C 	0.9143	0.61454	0.04141	0.102
Mof_C 	C 	0.0894	0.61178	0.87725	0.059
Mof_C 	C 	0.0749	0.65249	0.8604	-0.112
Mof_C 	C 	0.129	0.65814	0.91711	0.073
Mof_C 	C 	0.1154	0.70126	0.90193	-0.118
Mof_C 	C 	0.0876	0.69858	0.87275	0.049
Mof_C 	C 	0.0737	0.74276	0.85523	0.103
Mof_C 	C 	0.1038	0.92106	0.90894	0.063
Mof_C 	C 	0.0917	0.87584	0.8962	-0.109
Mof_C 	C 	0.0954	0.9594	0.86445	0.064
Mof_C 	C 	0.0815	0.9159	0.85005	-0.11
Mof_C 	C 	0.081	0.87275	0.86614	0.047
Mof_C 	C 	0.0709	0.82468	0.85188	0.105
Mof_C 	C 	0.9348	0.8079	0.73869	0.059
Mof_C 	C 	0.9714	0.8146	0.76673	-0.113
Mof_C 	C 	0.9667	0.72557	0.74024	0.06
Mof_C 	C 	0.0036	0.72932	0.76827	-0.111
Mof_C 	C 	0.0045	0.77413	0.78173	0.05
Mof_C 	C 	0.0364	0.77882	0.81256	0.103
Mof_C 	C 	0.9706	0.0615	0.94688	0.073
Mof_C 	C 	0.8774	0.0792	0.95147	-0.123
Mof_C 	C 	0.9576	0.0752	0.89801	0.08
Mof_C 	C 	0.8647	0.0934	0.90077	-0.132
Mof_C 	C 	0.8238	0.09538	0.92823	0.057
Mof_C 	C 	0.7224	0.11253	0.93189	0.094
Mof_C 	C 	0.5287	0.2116	0.84391	0.068
Mof_C 	C 	0.5824	0.1917	0.86627	-0.116
Mof_C 	C 	0.3841	0.18845	0.86539	0.061
Mof_C 	C 	0.4334	0.16775	0.88833	-0.106
Mof_C 	C 	0.5343	0.16966	0.88894	0.056
Mof_C 	C 	0.587	0.14687	0.9135	0.107
Mof_C 	C 	0.3835	0.0969	0.01257	0.067
Mof_C 	C 	0.4336	0.1133	0.98845	-0.114
Mof_C 	C 	0.5167	0.05379	0.02879	0.062
Mof_C 	C 	0.5708	0.06856	0.00523	-0.118
Mof_C 	C 	0.5287	0.09938	0.98457	0.049
Mof_C 	C 	0.5857	0.11454	0.95859	0.102
Mof_C 	C 	0.4106	0.11178	0.12275	0.059
Mof_C 	C 	0.4251	0.15249	0.1396	-0.112
Mof_C 	C 	0.371	0.15814	0.08289	0.073
Mof_C 	C 	0.3846	0.20126	0.09807	-0.118
Mof_C 	C 	0.4124	0.19858	0.12725	0.049
Mof_C 	C 	0.4263	0.24276	0.14477	0.103
Mof_C 	C 	0.3962	0.42106	0.09106	0.063
Mof_C 	C 	0.4083	0.37584	0.1038	-0.109
Mof_C 	C 	0.4046	0.4594	0.13555	0.064
Mof_C 	C 	0.4185	0.4159	0.14995	-0.11
Mof_C 	C 	0.419	0.37275	0.13386	0.047
Mof_C 	C 	0.4291	0.32468	0.14812	0.105
Mof_C 	C 	0.5652	0.3079	0.26131	0.059
Mof_C 	C 	0.5286	0.3146	0.23327	-0.112
Mof_C 	C 	0.5333	0.22557	0.25976	0.061
Mof_C 	C 	0.4964	0.22932	0.23173	-0.112
Mof_C 	C 	0.4955	0.27413	0.21827	0.049
Mof_C 	C 	0.4636	0.27882	0.18744	0.103
Mof_C 	C 	0.0294	0.4385	0.44688	0.071
Mof_C 	C 	0.1226	0.4208	0.45147	-0.122
Mof_C 	C 	0.0424	0.4248	0.39801	0.079
Mof_C 	C 	0.1353	0.4066	0.40077	-0.131
Mof_C 	C 	0.1762	0.40462	0.42823	0.057
Mof_C 	C 	0.2776	0.38747	0.43189	0.094
Mof_C 	C 	0.4713	0.2884	0.34391	0.068
Mof_C 	C 	0.4176	0.3083	0.36627	-0.116
Mof_C 	C 	0.6159	0.31155	0.36539	0.061
Mof_C 	C 	0.5666	0.33225	0.38833	-0.106
Mof_C 	C 	0.4657	0.33034	0.38894	0.056
Mof_C 	C 	0.413	0.35313	0.4135	0.107
Mof_C 	C 	0.6165	0.4031	0.51257	0.067
Mof_C 	C 	0.5664	0.3867	0.48845	-0.114
Mof_C 	C 	0.4833	0.44621	0.52879	0.062
Mof_C 	C 	0.4292	0.43144	0.50523	-0.118
Mof_C 	C 	0.4713	0.40062	0.48457	0.049
Mof_C 	C 	0.4143	0.38546	0.45859	0.102
Mof_C 	C 	0.5894	0.38822	0.62275	0.059
Mof_C 	C 	0.5749	0.34751	0.6396	-0.112
Mof_C 	C 	0.629	0.34186	0.58289	0.073
Mof_C 	C 	0.6154	0.29874	0.59807	-0.118
Mof_C 	C 	0.5876	0.30142	0.62725	0.049
Mof_C 	C 	0.5737	0.25724	0.64477	0.103
Mof_C 	C 	0.6038	0.07894	0.59106	0.063
Mof_C 	C 	0.5917	0.12416	0.6038	-0.109
Mof_C 	C 	0.5954	0.0406	0.63555	0.064
Mof_C 	C 	0.5815	0.0841	0.64995	-0.11
Mof_C 	C 	0.581	0.12725	0.63386	0.047
Mof_C 	C 	0.5709	0.17532	0.64812	0.105
Mof_C 	C 	0.4348	0.1921	0.76131	0.059
Mof_C 	C 	0.4714	0.1854	0.73327	-0.112
Mof_C 	C 	0.4667	0.27443	0.75976	0.061
Mof_C 	C 	0.5036	0.27068	0.73173	-0.112
Mof_C 	C 	0.5045	0.22587	0.71827	0.049
Mof_C 	C 	0.5364	0.22118	0.68744	0.103
Mof_I 	I 	0.94655	0.01606	0.40307	-0.362
Mof_I 	I 	0.67	0.94621	0.43571	-0.379
Mof_I 	I 	0.7177	0.99162	0.53693	-0.389
Mof_I 	I 	0.73541	0.92647	0.62609	-0.364
Mof_I 	I 	0.83528	0.66552	0.67715	-0.374
Mof_I 	I 	0.69677	0.8075	0.69513	-0.368
Mof_I 	I 	0.05345	0.48394	0.90307	-0.363
Mof_I 	I 	0.33	0.55379	0.93571	-0.379
Mof_I 	I 	0.2823	0.50838	0.03693	-0.389
Mof_I 	I 	0.26459	0.57353	0.12609	-0.364
Mof_I 	I 	0.16472	0.83448	0.17715	-0.373
Mof_I 	I 	0.30323	0.6925	0.19513	-0.368
Mof_I 	I 	0.44655	0.98394	0.09693	-0.363
Mof_I 	I 	0.17	0.05379	0.06429	-0.379
Mof_I 	I 	0.2177	0.00838	0.96307	-0.389
Mof_I 	I 	0.23541	0.07353	0.87391	-0.364
Mof_I 	I 	0.33528	0.33448	0.82285	-0.373
Mof_I 	I 	0.19677	0.1925	0.80487	-0.368
Mof_I 	I 	0.55345	0.51606	0.59693	-0.363
Mof_I 	I 	0.83	0.44621	0.56429	-0.379
Mof_I 	I 	0.7823	0.49162	0.46307	-0.389
Mof_I 	I 	0.76459	0.42647	0.37391	-0.364
Mof_I 	I 	0.66472	0.16552	0.32285	-0.373
Mof_I 	I 	0.80323	0.3075	0.30487	-0.368
Mof_N 	N 	0.5105	0.94058	0.57969	-0.276
Mof_N 	N 	0.9309	0.78973	0.65687	-0.274
Mof_N 	N 	0.9235	0.93243	0.46737	-0.271
Mof_N 	N 	0.1805	0.8649	0.59075	-0.133
Mof_N 	N 	0.0363	0.86213	0.56226	-0.137
Mof_N 	N 	0.1785	0.89816	0.5429	-0.143
Mof_N 	N 	0.8835	0.88565	0.40545	-0.271
Mof_N 	N 	0.8931	0.53736	0.39347	-0.266
Mof_N 	N 	0.0687	0.73601	0.22575	-0.271
Mof_N 	N 	0.9143	0.7142	0.36854	-0.14
Mof_N 	N 	0.9536	0.67629	0.32363	-0.139
Mof_N 	N 	0.9506	0.76269	0.32724	-0.14
Mof_N 	N 	0.4895	0.55942	0.07969	-0.276
Mof_N 	N 	0.0691	0.71027	0.15687	-0.273
Mof_N 	N 	0.0765	0.56757	0.96737	-0.271
Mof_N 	N 	0.8195	0.6351	0.09075	-0.133
Mof_N 	N 	0.9637	0.63787	0.06226	-0.137
Mof_N 	N 	0.8215	0.60184	0.0429	-0.143
Mof_N 	N 	0.1165	0.61435	0.90545	-0.271
Mof_N 	N 	0.1069	0.96264	0.89347	-0.266
Mof_N 	N 	0.9313	0.76399	0.72575	-0.271
Mof_N 	N 	0.0857	0.7858	0.86854	-0.14
Mof_N 	N 	0.0464	0.82371	0.82363	-0.139
Mof_N 	N 	0.0494	0.73731	0.82724	-0.14
Mof_N 	N 	0.0105	0.05942	0.92031	-0.277
Mof_N 	N 	0.4309	0.21027	0.84313	-0.273
Mof_N 	N 	0.4235	0.06757	0.03263	-0.271
Mof_N 	N 	0.6805	0.1351	0.90925	-0.133
Mof_N 	N 	0.5363	0.13787	0.93774	-0.137
Mof_N 	N 	0.6785	0.10184	0.9571	-0.143
Mof_N 	N 	0.3835	0.11435	0.09455	-0.271
Mof_N 	N 	0.3931	0.46264	0.10653	-0.266
Mof_N 	N 	0.5687	0.26399	0.27425	-0.271
Mof_N 	N 	0.4143	0.2858	0.13146	-0.14
Mof_N 	N 	0.4536	0.32371	0.17637	-0.139
Mof_N 	N 	0.4506	0.23731	0.17276	-0.14
Mof_N 	N 	0.9895	0.44058	0.42031	-0.276
Mof_N 	N 	0.5691	0.28973	0.34313	-0.273
Mof_N 	N 	0.5765	0.43243	0.53263	-0.271
Mof_N 	N 	0.3195	0.3649	0.40925	-0.133
Mof_N 	N 	0.4637	0.36213	0.43774	-0.137
Mof_N 	N 	0.3215	0.39816	0.4571	-0.143
Mof_N 	N 	0.6165	0.38565	0.59455	-0.271
Mof_N 	N 	0.6069	0.03736	0.60653	-0.266
Mof_N 	N 	0.4313	0.23601	0.77425	-0.271
Mof_N 	N 	0.5857	0.2142	0.63146	-0.14
Mof_N 	N 	0.5464	0.17629	0.67637	-0.139
Mof_N 	N 	0.5494	0.26269	0.67276	-0.14
_end
