data_functionalizedCrystal
_audit_creation_method	'EQeq! by Chris Wilmer'
_symmetry_space_group_name_H-M	'P1'
_symmetry_Int_Tables_number	1
_symmetry_cell_setting	triclinic
loop_
_symmetry_equiv_pos_as_xyz
  x,y,z
_cell_length_a	21.769
_cell_length_b	21.769
_cell_length_c	44.426
_cell_angle_alpha	90
_cell_angle_beta	90
_cell_angle_gamma	90
loop_
_atom_site_label
_atom_site_type_symbol
_atom_site_fract_x
_atom_site_fract_y
_atom_site_fract_z
_atom_site_charge
Mof_Cd	Cd	0.88045	0.61822	0.07603	0.444
Mof_O 	O 	0.9253	0.54039	0.04591	-0.732
Mof_O 	O 	0.8343	0.5742	0.03186	-0.313
Mof_O 	O 	0.92087	0.2044	0.85302	-0.283
Mof_O 	O 	0.8216	0.19282	0.85924	-0.301
Mof_O 	O 	0.949	0.344	0.98338	-0.193
Mof_O 	O 	0.7734	0.3346	0.94711	-0.156
Mof_O 	O 	0.9558	0.5752	0.10868	-0.655
Mof_O 	O 	0.94482	0.67245	0.11198	-0.369
Mof_O 	O 	0.29894	0.6107	0.29876	-0.296
Mof_O 	O 	0.21657	0.6248	0.32801	-0.282
Mof_O 	O 	0.1378	0.5375	0.18368	-0.183
Mof_O 	O 	0.0533	0.6289	0.2555	-0.184
Mof_C 	C 	0.8826	0.5379	0.02968	0.493
Mof_C 	C 	0.8809	0.4929	0.00347	-0.18
Mof_C 	C 	0.8346	0.4926	0.98234	0.075
Mof_H 	H 	0.8036	0.5219	0.9834	0.015
Mof_C 	C 	0.8337	0.4497	0.95987	-0.129
Mof_H 	H 	0.802	0.4511	0.9458	0.089
Mof_C 	C 	0.8775	0.4049	0.95715	0.046
Mof_C 	C 	0.9157	0.3997	0.98354	0.066
Mof_C 	C 	0.9204	0.4434	0.00347	0.013
Mof_H 	H 	0.951	0.4411	0.018	-0.033
Mof_C 	C 	0.873	0.3584	0.93309	-0.03
Mof_C 	C 	0.9226	0.3473	0.91612	-0.031
Mof_H 	H 	0.9578	0.3705	0.9195	0.066
Mof_C 	C 	0.9242	0.3014	0.89294	-0.028
Mof_H 	H 	0.9595	0.2955	0.8815	0.064
Mof_C 	C 	0.8726	0.2662	0.88795	-0.043
Mof_C 	C 	0.821	0.2796	0.90583	-0.099
Mof_H 	H 	0.7844	0.2591	0.902	0.086
Mof_C 	C 	0.823	0.3229	0.92919	0.124
Mof_C 	C 	0.8714	0.2162	0.8659	0.309
Mof_C 	C 	0.9918	0.3309	0.0122	0.168
Mof_H 	H 	0.0131	0.2926	0.0095	-0.036
Mof_H 	H 	0.9667	0.3286	0.03	-0.03
Mof_H 	H 	0.0211	0.3635	0.0144	-0.056
Mof_C 	C 	0.7403	0.3237	0.9797	-0.247
Mof_H 	H 	0.7416	0.3611	0.9911	0.11
Mof_H 	H 	0.7615	0.2919	0.9904	0.113
Mof_H 	H 	0.6983	0.3118	0.9766	0.097
Mof_C 	C 	0.9705	0.6263	0.12078	0.49
Mof_C 	C 	0.0134	0.628	0.14643	-0.215
Mof_C 	C 	0.0498	0.5762	0.15337	0.013
Mof_H 	H 	0.0456	0.5395	0.1428	-0.05
Mof_C 	C 	0.0929	0.5824	0.1771	0.039
Mof_C 	C 	0.0908	0.6285	0.19721	0.083
Mof_C 	C 	0.0638	0.6814	0.18687	-0.109
Mof_H 	H 	0.0734	0.7186	0.196	0.059
Mof_C 	C 	0.0217	0.6804	0.16277	-0.017
Mof_H 	H 	0.9996	0.7156	0.158	0.077
Mof_C 	C 	0.1324	0.6279	0.22397	-0.165
Mof_C 	C 	0.1075	0.6359	0.2527	0.251
Mof_C 	C 	0.1414	0.6387	0.2778	-0.212
Mof_H 	H 	0.1239	0.6506	0.296	0.118
Mof_C 	C 	0.2038	0.6233	0.27604	0.059
Mof_C 	C 	0.2305	0.621	0.2473	-0.21
Mof_H 	H 	0.273	0.6217	0.2453	0.125
Mof_C 	C 	0.1942	0.6177	0.22239	0.227
Mof_C 	C 	0.2436	0.6183	0.30343	0.285
Mof_C 	C 	0.1704	0.5154	0.1549	-0.048
Mof_H 	H 	0.1973	0.4818	0.1597	0.021
Mof_H 	H 	0.194	0.5485	0.1465	0.054
Mof_H 	H 	0.1403	0.5021	0.1405	0.018
Mof_C 	C 	0.016	0.6512	0.2793	-0.44
Mof_H 	H 	0.9815	0.6729	0.2711	0.223
Mof_H 	H 	0.0396	0.6784	0.2917	0.169
Mof_H 	H 	0.0016	0.6173	0.2911	0.196
Mof_C 	C 	0.7181	0.3006	0.9422	-0.146
Mof_H 	H 	0.7086	0.3004	0.9211	0.087
Mof_H 	H 	0.685	0.3194	0.9531	0.069
Mof_H 	H 	0.7236	0.2591	0.9491	0.089
Mof_C 	C 	0.1306	0.4821	0.1648	-0.115
Mof_H 	H 	0.1059	0.4525	0.1753	0.06
Mof_H 	H 	0.1703	0.4648	0.1607	0.064
Mof_H 	H 	0.111	0.493	0.1462	0.04
Mof_O 	O 	0.2203	0.614	0.1944	-0.205
Mof_Cd	Cd	0.38045	0.11822	0.57603	0.437
Mof_O 	O 	0.4253	0.04039	0.54591	-0.754
Mof_O 	O 	0.3343	0.0742	0.53186	-0.321
Mof_O 	O 	0.42087	0.7044	0.35302	-0.298
Mof_O 	O 	0.3216	0.69282	0.35924	-0.303
Mof_O 	O 	0.449	0.844	0.48338	-0.148
Mof_O 	O 	0.2734	0.8346	0.44711	-0.16
Mof_O 	O 	0.4558	0.0752	0.60868	-0.673
Mof_O 	O 	0.44482	0.17245	0.61198	-0.368
Mof_O 	O 	0.79894	0.1107	0.79876	-0.293
Mof_O 	O 	0.71657	0.1248	0.82801	-0.283
Mof_O 	O 	0.6378	0.0375	0.68368	-0.197
Mof_O 	O 	0.5533	0.1289	0.7555	-0.232
Mof_C 	C 	0.3826	0.0379	0.52968	0.472
Mof_C 	C 	0.3809	0.9929	0.50347	-0.201
Mof_C 	C 	0.3346	0.9926	0.48234	0.22
Mof_H 	H 	0.3036	0.0219	0.4834	-0.073
Mof_C 	C 	0.3337	0.9497	0.45987	-0.218
Mof_H 	H 	0.302	0.9511	0.4458	0.127
Mof_C 	C 	0.3775	0.9049	0.45715	0.096
Mof_C 	C 	0.4157	0.8997	0.48354	0.018
Mof_C 	C 	0.4204	0.9434	0.50347	0.057
Mof_H 	H 	0.451	0.9411	0.518	-0.051
Mof_C 	C 	0.373	0.8584	0.43309	-0.055
Mof_C 	C 	0.4226	0.8473	0.41612	-0.018
Mof_H 	H 	0.4578	0.8705	0.4195	0.055
Mof_C 	C 	0.4242	0.8014	0.39294	-0.038
Mof_H 	H 	0.4595	0.7955	0.3815	0.058
Mof_C 	C 	0.3726	0.7662	0.38795	-0.041
Mof_C 	C 	0.321	0.7796	0.40583	-0.105
Mof_H 	H 	0.2844	0.7591	0.402	0.088
Mof_C 	C 	0.323	0.8229	0.42919	0.135
Mof_C 	C 	0.3714	0.7162	0.3659	0.312
Mof_C 	C 	0.4918	0.8309	0.5122	-0.231
Mof_H 	H 	0.5131	0.7926	0.5095	0.115
Mof_H 	H 	0.4667	0.8286	0.53	0.076
Mof_H 	H 	0.5211	0.8635	0.5144	0.1
Mof_C 	C 	0.2403	0.8237	0.4797	-0.248
Mof_H 	H 	0.2416	0.8611	0.4911	0.113
Mof_H 	H 	0.2615	0.7919	0.4904	0.113
Mof_H 	H 	0.1983	0.8118	0.4766	0.097
Mof_C 	C 	0.4705	0.1263	0.62078	0.458
Mof_C 	C 	0.5134	0.128	0.64643	-0.213
Mof_C 	C 	0.5498	0.0762	0.65337	0.034
Mof_H 	H 	0.5456	0.0395	0.6428	-0.066
Mof_C 	C 	0.5929	0.0824	0.6771	0.015
Mof_C 	C 	0.5908	0.1285	0.69721	0.126
Mof_C 	C 	0.5638	0.1814	0.68687	-0.174
Mof_H 	H 	0.5734	0.2186	0.696	0.092
Mof_C 	C 	0.5217	0.1804	0.66277	0.104
Mof_H 	H 	0.4996	0.2156	0.658	0.003
Mof_C 	C 	0.6324	0.1279	0.72397	-0.195
Mof_C 	C 	0.6075	0.1359	0.7527	0.295
Mof_C 	C 	0.6414	0.1387	0.7778	-0.245
Mof_H 	H 	0.6239	0.1506	0.796	0.129
Mof_C 	C 	0.7038	0.1233	0.77604	0.074
Mof_C 	C 	0.7305	0.121	0.7473	-0.224
Mof_H 	H 	0.773	0.1217	0.7453	0.132
Mof_C 	C 	0.6942	0.1177	0.72239	0.246
Mof_C 	C 	0.7436	0.1183	0.80343	0.278
Mof_C 	C 	0.6704	0.0154	0.6549	0.065
Mof_H 	H 	0.6973	0.9818	0.6597	-0.014
Mof_H 	H 	0.694	0.0485	0.6465	0.012
Mof_H 	H 	0.6403	0.0021	0.6405	-0.108
Mof_C 	C 	0.516	0.1512	0.7793	-0.216
Mof_H 	H 	0.4815	0.1729	0.7711	0.127
Mof_H 	H 	0.5396	0.1784	0.7917	0.11
Mof_H 	H 	0.5016	0.1173	0.7911	0.146
Mof_C 	C 	0.2181	0.8006	0.4422	-0.142
Mof_H 	H 	0.2086	0.8004	0.4211	0.086
Mof_H 	H 	0.185	0.8194	0.4531	0.068
Mof_H 	H 	0.2236	0.7591	0.4491	0.087
Mof_C 	C 	0.6306	0.9821	0.6648	-0.242
Mof_H 	H 	0.6059	0.9525	0.6753	0.11
Mof_H 	H 	0.6703	0.9648	0.6607	0.127
Mof_H 	H 	0.611	0.993	0.6462	0.176
Mof_O 	O 	0.7203	0.114	0.6944	-0.212
Mof_Cd	Cd	0.11955	0.38178	0.07603	0.44
Mof_O 	O 	0.0747	0.45961	0.04591	-0.757
Mof_O 	O 	0.1657	0.4258	0.03186	-0.318
Mof_O 	O 	0.07913	0.7956	0.85302	-0.308
Mof_O 	O 	0.1784	0.80718	0.85924	-0.304
Mof_O 	O 	0.051	0.656	0.98338	-0.114
Mof_O 	O 	0.2266	0.6654	0.94711	-0.161
Mof_O 	O 	0.0442	0.4248	0.10868	-0.669
Mof_O 	O 	0.05518	0.32755	0.11198	-0.363
Mof_O 	O 	0.70106	0.3893	0.29876	-0.295
Mof_O 	O 	0.78343	0.3752	0.32801	-0.28
Mof_O 	O 	0.8622	0.4625	0.18368	-0.175
Mof_O 	O 	0.9467	0.3711	0.2555	-0.264
Mof_C 	C 	0.1174	0.4621	0.02968	0.511
Mof_C 	C 	0.1191	0.5071	0.00347	-0.221
Mof_C 	C 	0.1654	0.5074	0.98234	0.104
Mof_H 	H 	0.1964	0.4781	0.9834	0.003
Mof_C 	C 	0.1663	0.5503	0.95987	-0.16
Mof_H 	H 	0.198	0.5489	0.9458	0.096
Mof_C 	C 	0.1225	0.5951	0.95715	0.069
Mof_C 	C 	0.0843	0.6003	0.98354	0.002
Mof_C 	C 	0.0796	0.5566	0.00347	0.062
Mof_H 	H 	0.049	0.5589	0.018	-0.079
Mof_C 	C 	0.127	0.6416	0.93309	-0.051
Mof_C 	C 	0.0774	0.6527	0.91612	-0.028
Mof_H 	H 	0.0422	0.6295	0.9195	0.041
Mof_C 	C 	0.0758	0.6986	0.89294	-0.039
Mof_H 	H 	0.0405	0.7045	0.8815	0.043
Mof_C 	C 	0.1274	0.7338	0.88795	-0.048
Mof_C 	C 	0.179	0.7204	0.90583	-0.103
Mof_H 	H 	0.2156	0.7409	0.902	0.087
Mof_C 	C 	0.177	0.6771	0.92919	0.13
Mof_C 	C 	0.1286	0.7838	0.8659	0.314
Mof_C 	C 	0.0082	0.6691	0.0122	-0.607
Mof_H 	H 	0.9869	0.7074	0.0095	0.258
Mof_H 	H 	0.0333	0.6714	0.03	0.174
Mof_H 	H 	0.9789	0.6365	0.0144	0.241
Mof_C 	C 	0.2597	0.6763	0.9797	-0.245
Mof_H 	H 	0.2584	0.6389	0.9911	0.109
Mof_H 	H 	0.2385	0.7081	0.9904	0.111
Mof_H 	H 	0.3017	0.6882	0.9766	0.097
Mof_C 	C 	0.0295	0.3737	0.12078	0.416
Mof_C 	C 	0.9866	0.372	0.14643	-0.194
Mof_C 	C 	0.9502	0.4238	0.15337	0.04
Mof_H 	H 	0.9544	0.4605	0.1428	-0.032
Mof_C 	C 	0.9071	0.4176	0.1771	0.011
Mof_C 	C 	0.9092	0.3715	0.19721	0.162
Mof_C 	C 	0.9362	0.3186	0.18687	-0.23
Mof_H 	H 	0.9266	0.2814	0.196	0.124
Mof_C 	C 	0.9783	0.3196	0.16277	0.219
Mof_H 	H 	0.0004	0.2844	0.158	-0.068
Mof_C 	C 	0.8676	0.3721	0.22397	-0.215
Mof_C 	C 	0.8925	0.3641	0.2527	0.331
Mof_C 	C 	0.8586	0.3613	0.2778	-0.263
Mof_H 	H 	0.8761	0.3494	0.296	0.138
Mof_C 	C 	0.7962	0.3767	0.27604	0.086
Mof_C 	C 	0.7695	0.379	0.2473	-0.236
Mof_H 	H 	0.727	0.3783	0.2453	0.133
Mof_C 	C 	0.8058	0.3823	0.22239	0.254
Mof_C 	C 	0.7564	0.3817	0.30343	0.276
Mof_C 	C 	0.8296	0.4846	0.1549	-0.07
Mof_H 	H 	0.8027	0.5182	0.1597	0.029
Mof_H 	H 	0.806	0.4515	0.1465	0.063
Mof_H 	H 	0.8597	0.4979	0.1405	0.027
Mof_C 	C 	0.984	0.3488	0.2793	-0.002
Mof_H 	H 	0.0185	0.3271	0.2711	0.033
Mof_H 	H 	0.9604	0.3216	0.2917	0.054
Mof_H 	H 	0.9984	0.3827	0.2911	0.108
Mof_C 	C 	0.2819	0.6994	0.9422	-0.144
Mof_H 	H 	0.2914	0.6996	0.9211	0.086
Mof_H 	H 	0.315	0.6806	0.9531	0.068
Mof_H 	H 	0.2764	0.7409	0.9491	0.088
Mof_C 	C 	0.8694	0.5179	0.1648	-0.106
Mof_H 	H 	0.8941	0.5475	0.1753	0.068
Mof_H 	H 	0.8297	0.5352	0.1607	0.06
Mof_H 	H 	0.889	0.507	0.1462	0.04
Mof_O 	O 	0.7797	0.386	0.1944	-0.212
Mof_Cd	Cd	0.61955	0.88178	0.57603	0.446
Mof_O 	O 	0.5747	0.95961	0.54591	-0.736
Mof_O 	O 	0.6657	0.9258	0.53186	-0.311
Mof_O 	O 	0.57913	0.2956	0.35302	-0.302
Mof_O 	O 	0.6784	0.30718	0.35924	-0.304
Mof_O 	O 	0.551	0.156	0.48338	-0.159
Mof_O 	O 	0.7266	0.1654	0.44711	-0.157
Mof_O 	O 	0.5442	0.9248	0.60868	-0.651
Mof_O 	O 	0.55518	0.82755	0.61198	-0.365
Mof_O 	O 	0.20106	0.8893	0.79876	-0.298
Mof_O 	O 	0.28343	0.8752	0.82801	-0.278
Mof_O 	O 	0.3622	0.9625	0.68368	-0.16
Mof_O 	O 	0.4467	0.8711	0.7555	-0.215
Mof_C 	C 	0.6174	0.9621	0.52968	0.533
Mof_C 	C 	0.6191	0.0071	0.50347	-0.201
Mof_C 	C 	0.6654	0.0074	0.48234	-0.035
Mof_H 	H 	0.6964	0.9781	0.4834	0.089
Mof_C 	C 	0.6663	0.0503	0.45987	-0.074
Mof_H 	H 	0.698	0.0489	0.4458	0.059
Mof_C 	C 	0.6225	0.0951	0.45715	0.021
Mof_C 	C 	0.5843	0.1003	0.48354	0.049
Mof_C 	C 	0.5796	0.0566	0.50347	0.02
Mof_H 	H 	0.549	0.0589	0.518	-0.061
Mof_C 	C 	0.627	0.1416	0.43309	-0.026
Mof_C 	C 	0.5774	0.1527	0.41612	-0.042
Mof_H 	H 	0.5422	0.1295	0.4195	0.052
Mof_C 	C 	0.5758	0.1986	0.39294	-0.028
Mof_H 	H 	0.5405	0.2045	0.3815	0.047
Mof_C 	C 	0.6274	0.2338	0.38795	-0.052
Mof_C 	C 	0.679	0.2204	0.40583	-0.095
Mof_H 	H 	0.7156	0.2409	0.402	0.084
Mof_C 	C 	0.677	0.1771	0.42919	0.118
Mof_C 	C 	0.6286	0.2838	0.3659	0.315
Mof_C 	C 	0.5082	0.1691	0.5122	-0.219
Mof_H 	H 	0.4869	0.2074	0.5095	0.111
Mof_H 	H 	0.5333	0.1714	0.53	0.07
Mof_H 	H 	0.4789	0.1365	0.5144	0.089
Mof_C 	C 	0.7597	0.1763	0.4797	-0.245
Mof_H 	H 	0.7584	0.1389	0.4911	0.106
Mof_H 	H 	0.7385	0.2081	0.4904	0.112
Mof_H 	H 	0.8017	0.1882	0.4766	0.097
Mof_C 	C 	0.5295	0.8737	0.62078	0.448
Mof_C 	C 	0.4866	0.872	0.64643	-0.196
Mof_C 	C 	0.4502	0.9238	0.65337	0.019
Mof_H 	H 	0.4544	0.9605	0.6428	-0.016
Mof_C 	C 	0.4071	0.9176	0.6771	0.035
Mof_C 	C 	0.4092	0.8715	0.69721	0.117
Mof_C 	C 	0.4362	0.8186	0.68687	-0.163
Mof_H 	H 	0.4266	0.7814	0.696	0.087
Mof_C 	C 	0.4783	0.8196	0.66277	0.092
Mof_H 	H 	0.5004	0.7844	0.658	0.007
Mof_C 	C 	0.3676	0.8721	0.72397	-0.184
Mof_C 	C 	0.3925	0.8641	0.7527	0.286
Mof_C 	C 	0.3586	0.8613	0.7778	-0.23
Mof_H 	H 	0.3761	0.8494	0.796	0.127
Mof_C 	C 	0.2962	0.8767	0.77604	0.071
Mof_C 	C 	0.2695	0.879	0.7473	-0.223
Mof_H 	H 	0.227	0.8783	0.7453	0.126
Mof_C 	C 	0.3058	0.8823	0.72239	0.234
Mof_C 	C 	0.2564	0.8817	0.80343	0.283
Mof_C 	C 	0.3296	0.9846	0.6549	-0.186
Mof_H 	H 	0.3027	0.0182	0.6597	0.066
Mof_H 	H 	0.306	0.9515	0.6465	0.107
Mof_H 	H 	0.3597	0.9979	0.6405	0.158
Mof_C 	C 	0.484	0.8488	0.7793	-0.233
Mof_H 	H 	0.5185	0.8271	0.7711	0.132
Mof_H 	H 	0.4604	0.8216	0.7917	0.115
Mof_H 	H 	0.4984	0.8827	0.7911	0.159
Mof_C 	C 	0.7819	0.1994	0.4422	-0.149
Mof_H 	H 	0.7914	0.1996	0.4211	0.088
Mof_H 	H 	0.815	0.1806	0.4531	0.07
Mof_H 	H 	0.7764	0.2409	0.4491	0.09
Mof_C 	C 	0.3694	0.0179	0.6648	0.026
Mof_H 	H 	0.3941	0.0475	0.6753	0.016
Mof_H 	H 	0.3297	0.0352	0.6607	-0.005
Mof_H 	H 	0.389	0.007	0.6462	-0.1
Mof_O 	O 	0.2797	0.886	0.6944	-0.205
Mof_Cd	Cd	0.61822	0.11955	0.92397	0.44
Mof_O 	O 	0.54039	0.0747	0.95409	-0.757
Mof_O 	O 	0.5742	0.1657	0.96814	-0.318
Mof_O 	O 	0.2044	0.07913	0.14698	-0.31
Mof_O 	O 	0.19282	0.1784	0.14076	-0.304
Mof_O 	O 	0.344	0.051	0.01662	-0.112
Mof_O 	O 	0.3346	0.2266	0.05289	-0.161
Mof_O 	O 	0.5752	0.0442	0.89132	-0.668
Mof_O 	O 	0.67245	0.05518	0.88802	-0.363
Mof_O 	O 	0.6107	0.70106	0.70124	-0.294
Mof_O 	O 	0.6248	0.78343	0.67199	-0.28
Mof_O 	O 	0.5375	0.8622	0.81632	-0.175
Mof_O 	O 	0.6289	0.9467	0.7445	-0.262
Mof_C 	C 	0.5379	0.1174	0.97032	0.511
Mof_C 	C 	0.4929	0.1191	0.99653	-0.221
Mof_C 	C 	0.4926	0.1654	0.01766	0.104
Mof_H 	H 	0.5219	0.1964	0.0166	0.003
Mof_C 	C 	0.4497	0.1663	0.04013	-0.161
Mof_H 	H 	0.4511	0.198	0.0542	0.096
Mof_C 	C 	0.4049	0.1225	0.04285	0.069
Mof_C 	C 	0.3997	0.0843	0.01646	0.001
Mof_C 	C 	0.4434	0.0796	0.99653	0.063
Mof_H 	H 	0.4411	0.049	0.982	-0.079
Mof_C 	C 	0.3584	0.127	0.06691	-0.051
Mof_C 	C 	0.3473	0.0774	0.08388	-0.028
Mof_H 	H 	0.3705	0.0422	0.0805	0.041
Mof_C 	C 	0.3014	0.0758	0.10706	-0.038
Mof_H 	H 	0.2955	0.0405	0.1185	0.042
Mof_C 	C 	0.2662	0.1274	0.11205	-0.048
Mof_C 	C 	0.2796	0.179	0.09417	-0.103
Mof_H 	H 	0.2591	0.2156	0.098	0.087
Mof_C 	C 	0.3229	0.177	0.07081	0.13
Mof_C 	C 	0.2162	0.1286	0.1341	0.315
Mof_C 	C 	0.3309	0.0082	0.9878	-0.618
Mof_H 	H 	0.2926	0.9869	0.9905	0.262
Mof_H 	H 	0.3286	0.0333	0.97	0.176
Mof_H 	H 	0.3635	0.9789	0.9856	0.245
Mof_C 	C 	0.3237	0.2597	0.0203	-0.244
Mof_H 	H 	0.3611	0.2584	0.0089	0.108
Mof_H 	H 	0.2919	0.2385	0.0096	0.11
Mof_H 	H 	0.3118	0.3017	0.0234	0.096
Mof_C 	C 	0.6263	0.0295	0.87922	0.416
Mof_C 	C 	0.628	0.9866	0.85357	-0.194
Mof_C 	C 	0.5762	0.9502	0.84663	0.04
Mof_H 	H 	0.5395	0.9544	0.8572	-0.032
Mof_C 	C 	0.5824	0.9071	0.8229	0.012
Mof_C 	C 	0.6285	0.9092	0.80279	0.161
Mof_C 	C 	0.6814	0.9362	0.81313	-0.227
Mof_H 	H 	0.7186	0.9266	0.804	0.124
Mof_C 	C 	0.6804	0.9783	0.83723	0.215
Mof_H 	H 	0.7156	0.0004	0.842	-0.065
Mof_C 	C 	0.6279	0.8676	0.77603	-0.213
Mof_C 	C 	0.6359	0.8925	0.7473	0.33
Mof_C 	C 	0.6387	0.8586	0.7222	-0.262
Mof_H 	H 	0.6506	0.8761	0.704	0.137
Mof_C 	C 	0.6233	0.7962	0.72396	0.085
Mof_C 	C 	0.621	0.7695	0.7527	-0.236
Mof_H 	H 	0.6217	0.727	0.7547	0.134
Mof_C 	C 	0.6177	0.8058	0.77761	0.254
Mof_C 	C 	0.6183	0.7564	0.69657	0.276
Mof_C 	C 	0.5154	0.8296	0.8451	-0.07
Mof_H 	H 	0.4818	0.8027	0.8403	0.029
Mof_H 	H 	0.5485	0.806	0.8535	0.063
Mof_H 	H 	0.5021	0.8597	0.8595	0.027
Mof_C 	C 	0.6512	0.984	0.7207	-0.009
Mof_H 	H 	0.6729	0.0185	0.7289	0.036
Mof_H 	H 	0.6784	0.9604	0.7083	0.056
Mof_H 	H 	0.6173	0.9984	0.7089	0.109
Mof_C 	C 	0.3006	0.2819	0.0578	-0.144
Mof_H 	H 	0.3004	0.2914	0.0789	0.086
Mof_H 	H 	0.3194	0.315	0.0469	0.068
Mof_H 	H 	0.2591	0.2764	0.0509	0.088
Mof_C 	C 	0.4821	0.8694	0.8352	-0.106
Mof_H 	H 	0.4525	0.8941	0.8247	0.069
Mof_H 	H 	0.4648	0.8297	0.8393	0.06
Mof_H 	H 	0.493	0.889	0.8538	0.04
Mof_O 	O 	0.614	0.7797	0.8056	-0.21
Mof_Cd	Cd	0.11822	0.61955	0.42397	0.438
Mof_O 	O 	0.04039	0.5747	0.45409	-0.754
Mof_O 	O 	0.0742	0.6657	0.46814	-0.317
Mof_O 	O 	0.7044	0.57913	0.64698	-0.298
Mof_O 	O 	0.69282	0.6784	0.64076	-0.303
Mof_O 	O 	0.844	0.551	0.51662	-0.148
Mof_O 	O 	0.8346	0.7266	0.55289	-0.155
Mof_O 	O 	0.0752	0.5442	0.39132	-0.673
Mof_O 	O 	0.17245	0.55518	0.38802	-0.369
Mof_O 	O 	0.1107	0.20106	0.20124	-0.293
Mof_O 	O 	0.1248	0.28343	0.17199	-0.283
Mof_O 	O 	0.0375	0.3622	0.31632	-0.198
Mof_O 	O 	0.1289	0.4467	0.2445	-0.231
Mof_C 	C 	0.0379	0.6174	0.47032	0.472
Mof_C 	C 	0.9929	0.6191	0.49653	-0.198
Mof_C 	C 	0.9926	0.6654	0.51766	0.215
Mof_H 	H 	0.0219	0.6964	0.5166	-0.066
Mof_C 	C 	0.9497	0.6663	0.54013	-0.214
Mof_H 	H 	0.9511	0.698	0.5542	0.129
Mof_C 	C 	0.9049	0.6225	0.54285	0.093
Mof_C 	C 	0.8997	0.5843	0.51646	0.02
Mof_C 	C 	0.9434	0.5796	0.49653	0.055
Mof_H 	H 	0.9411	0.549	0.482	-0.051
Mof_C 	C 	0.8584	0.627	0.56691	-0.053
Mof_C 	C 	0.8473	0.5774	0.58388	-0.02
Mof_H 	H 	0.8705	0.5422	0.5805	0.055
Mof_C 	C 	0.8014	0.5758	0.60706	-0.036
Mof_H 	H 	0.7955	0.5405	0.6185	0.057
Mof_C 	C 	0.7662	0.6274	0.61205	-0.042
Mof_C 	C 	0.7796	0.679	0.59417	-0.103
Mof_H 	H 	0.7591	0.7156	0.598	0.087
Mof_C 	C 	0.8229	0.677	0.57081	0.133
Mof_C 	C 	0.7162	0.6286	0.6341	0.312
Mof_C 	C 	0.8309	0.5082	0.4878	-0.232
Mof_H 	H 	0.7926	0.4869	0.4905	0.115
Mof_H 	H 	0.8286	0.5333	0.47	0.077
Mof_H 	H 	0.8635	0.4789	0.4856	0.1
Mof_C 	C 	0.8237	0.7597	0.5203	-0.259
Mof_H 	H 	0.8611	0.7584	0.5089	0.121
Mof_H 	H 	0.7919	0.7385	0.5096	0.118
Mof_H 	H 	0.8118	0.8017	0.5234	0.105
Mof_C 	C 	0.1263	0.5295	0.37922	0.457
Mof_C 	C 	0.128	0.4866	0.35357	-0.213
Mof_C 	C 	0.0762	0.4502	0.34663	0.033
Mof_H 	H 	0.0395	0.4544	0.3572	-0.066
Mof_C 	C 	0.0824	0.4071	0.3229	0.015
Mof_C 	C 	0.1285	0.4092	0.30279	0.125
Mof_C 	C 	0.1814	0.4362	0.31313	-0.174
Mof_H 	H 	0.2186	0.4266	0.304	0.091
Mof_C 	C 	0.1804	0.4783	0.33723	0.104
Mof_H 	H 	0.2156	0.5004	0.342	0.003
Mof_C 	C 	0.1279	0.3676	0.27603	-0.196
Mof_C 	C 	0.1359	0.3925	0.2473	0.294
Mof_C 	C 	0.1387	0.3586	0.2222	-0.244
Mof_H 	H 	0.1506	0.3761	0.204	0.128
Mof_C 	C 	0.1233	0.2962	0.22396	0.073
Mof_C 	C 	0.121	0.2695	0.2527	-0.224
Mof_H 	H 	0.1217	0.227	0.2547	0.128
Mof_C 	C 	0.1177	0.3058	0.27761	0.246
Mof_C 	C 	0.1183	0.2564	0.19657	0.278
Mof_C 	C 	0.0154	0.3296	0.3451	0.066
Mof_H 	H 	0.9818	0.3027	0.3403	-0.015
Mof_H 	H 	0.0485	0.306	0.3535	0.007
Mof_H 	H 	0.0021	0.3597	0.3595	-0.111
Mof_C 	C 	0.1512	0.484	0.2207	-0.216
Mof_H 	H 	0.1729	0.5185	0.2289	0.126
Mof_H 	H 	0.1784	0.4604	0.2083	0.11
Mof_H 	H 	0.1173	0.4984	0.2089	0.146
Mof_C 	C 	0.8006	0.7819	0.5578	-0.153
Mof_H 	H 	0.8004	0.7914	0.5789	0.092
Mof_H 	H 	0.8194	0.815	0.5469	0.077
Mof_H 	H 	0.7591	0.7764	0.5509	0.092
Mof_C 	C 	0.9821	0.3694	0.3352	-0.242
Mof_H 	H 	0.9525	0.3941	0.3247	0.111
Mof_H 	H 	0.9648	0.3297	0.3393	0.127
Mof_H 	H 	0.993	0.389	0.3538	0.177
Mof_O 	O 	0.114	0.2797	0.3056	-0.218
Mof_Cd	Cd	0.38178	0.88045	0.92397	0.444
Mof_O 	O 	0.45961	0.9253	0.95409	-0.733
Mof_O 	O 	0.4258	0.8343	0.96814	-0.314
Mof_O 	O 	0.7956	0.92087	0.14698	-0.284
Mof_O 	O 	0.80718	0.8216	0.14076	-0.302
Mof_O 	O 	0.656	0.949	0.01662	-0.193
Mof_O 	O 	0.6654	0.7734	0.05289	-0.157
Mof_O 	O 	0.4248	0.9558	0.89132	-0.655
Mof_O 	O 	0.32755	0.94482	0.88802	-0.37
Mof_O 	O 	0.3893	0.29894	0.70124	-0.297
Mof_O 	O 	0.3752	0.21657	0.67199	-0.282
Mof_O 	O 	0.4625	0.1378	0.81632	-0.183
Mof_O 	O 	0.3711	0.0533	0.7445	-0.182
Mof_C 	C 	0.4621	0.8826	0.97032	0.493
Mof_C 	C 	0.5071	0.8809	0.99653	-0.18
Mof_C 	C 	0.5074	0.8346	0.01766	0.076
Mof_H 	H 	0.4781	0.8036	0.0166	0.015
Mof_C 	C 	0.5503	0.8337	0.04013	-0.129
Mof_H 	H 	0.5489	0.802	0.0542	0.089
Mof_C 	C 	0.5951	0.8775	0.04285	0.046
Mof_C 	C 	0.6003	0.9157	0.01646	0.066
Mof_C 	C 	0.5566	0.9204	0.99653	0.014
Mof_H 	H 	0.5589	0.951	0.982	-0.033
Mof_C 	C 	0.6416	0.873	0.06691	-0.03
Mof_C 	C 	0.6527	0.9226	0.08388	-0.031
Mof_H 	H 	0.6295	0.9578	0.0805	0.066
Mof_C 	C 	0.6986	0.9242	0.10706	-0.028
Mof_H 	H 	0.7045	0.9595	0.1185	0.064
Mof_C 	C 	0.7338	0.8726	0.11205	-0.043
Mof_C 	C 	0.7204	0.821	0.09417	-0.099
Mof_H 	H 	0.7409	0.7844	0.098	0.086
Mof_C 	C 	0.6771	0.823	0.07081	0.124
Mof_C 	C 	0.7838	0.8714	0.1341	0.309
Mof_C 	C 	0.6691	0.9918	0.9878	0.156
Mof_H 	H 	0.7074	0.0131	0.9905	-0.032
Mof_H 	H 	0.6714	0.9667	0.97	-0.027
Mof_H 	H 	0.6365	0.0211	0.9856	-0.052
Mof_C 	C 	0.6763	0.7403	0.0203	-0.248
Mof_H 	H 	0.6389	0.7416	0.0089	0.111
Mof_H 	H 	0.7081	0.7615	0.0096	0.114
Mof_H 	H 	0.6882	0.6983	0.0234	0.098
Mof_C 	C 	0.3737	0.9705	0.87922	0.49
Mof_C 	C 	0.372	0.0134	0.85357	-0.214
Mof_C 	C 	0.4238	0.0498	0.84663	0.012
Mof_H 	H 	0.4605	0.0456	0.8572	-0.049
Mof_C 	C 	0.4176	0.0929	0.8229	0.04
Mof_C 	C 	0.3715	0.0908	0.80279	0.081
Mof_C 	C 	0.3186	0.0638	0.81313	-0.107
Mof_H 	H 	0.2814	0.0734	0.804	0.056
Mof_C 	C 	0.3196	0.0217	0.83723	-0.023
Mof_H 	H 	0.2844	0.9996	0.842	0.08
Mof_C 	C 	0.3721	0.1324	0.77603	-0.165
Mof_C 	C 	0.3641	0.1075	0.7473	0.249
Mof_C 	C 	0.3613	0.1414	0.7222	-0.211
Mof_H 	H 	0.3494	0.1239	0.704	0.118
Mof_C 	C 	0.3767	0.2038	0.72396	0.059
Mof_C 	C 	0.379	0.2305	0.7527	-0.21
Mof_H 	H 	0.3783	0.273	0.7547	0.124
Mof_C 	C 	0.3823	0.1942	0.77761	0.226
Mof_C 	C 	0.3817	0.2436	0.69657	0.285
Mof_C 	C 	0.4846	0.1704	0.8451	-0.049
Mof_H 	H 	0.5182	0.1973	0.8403	0.021
Mof_H 	H 	0.4515	0.194	0.8535	0.054
Mof_H 	H 	0.4979	0.1403	0.8595	0.019
Mof_C 	C 	0.3488	0.016	0.7207	-0.446
Mof_H 	H 	0.3271	0.9815	0.7289	0.226
Mof_H 	H 	0.3216	0.0396	0.7083	0.17
Mof_H 	H 	0.3827	0.0016	0.7089	0.197
Mof_C 	C 	0.6994	0.7181	0.0578	-0.145
Mof_H 	H 	0.6996	0.7086	0.0789	0.087
Mof_H 	H 	0.6806	0.685	0.0469	0.069
Mof_H 	H 	0.7409	0.7236	0.0509	0.089
Mof_C 	C 	0.5179	0.1306	0.8352	-0.114
Mof_H 	H 	0.5475	0.1059	0.8247	0.059
Mof_H 	H 	0.5352	0.1703	0.8393	0.064
Mof_H 	H 	0.507	0.111	0.8538	0.039
Mof_O 	O 	0.386	0.2203	0.8056	-0.206
Mof_Cd	Cd	0.88178	0.38045	0.42397	0.446
Mof_O 	O 	0.95961	0.4253	0.45409	-0.736
Mof_O 	O 	0.9258	0.3343	0.46814	-0.313
Mof_O 	O 	0.2956	0.42087	0.64698	-0.301
Mof_O 	O 	0.30718	0.3216	0.64076	-0.304
Mof_O 	O 	0.156	0.449	0.51662	-0.159
Mof_O 	O 	0.1654	0.2734	0.55289	-0.163
Mof_O 	O 	0.9248	0.4558	0.39132	-0.651
Mof_O 	O 	0.82755	0.44482	0.38802	-0.365
Mof_O 	O 	0.8893	0.79894	0.20124	-0.297
Mof_O 	O 	0.8752	0.71657	0.17199	-0.279
Mof_O 	O 	0.9625	0.6378	0.31632	-0.16
Mof_O 	O 	0.8711	0.5533	0.2445	-0.215
Mof_C 	C 	0.9621	0.3826	0.47032	0.533
Mof_C 	C 	0.0071	0.3809	0.49653	-0.202
Mof_C 	C 	0.0074	0.3346	0.51766	-0.04
Mof_H 	H 	0.9781	0.3036	0.5166	0.087
Mof_C 	C 	0.0503	0.3337	0.54013	-0.073
Mof_H 	H 	0.0489	0.302	0.5542	0.055
Mof_C 	C 	0.0951	0.3775	0.54285	0.02
Mof_C 	C 	0.1003	0.4157	0.51646	0.049
Mof_C 	C 	0.0566	0.4204	0.49653	0.019
Mof_H 	H 	0.0589	0.451	0.482	-0.061
Mof_C 	C 	0.1416	0.373	0.56691	-0.027
Mof_C 	C 	0.1527	0.4226	0.58388	-0.041
Mof_H 	H 	0.1295	0.4578	0.5805	0.052
Mof_C 	C 	0.1986	0.4242	0.60706	-0.029
Mof_H 	H 	0.2045	0.4595	0.6185	0.048
Mof_C 	C 	0.2338	0.3726	0.61205	-0.051
Mof_C 	C 	0.2204	0.321	0.59417	-0.097
Mof_H 	H 	0.2409	0.2844	0.598	0.085
Mof_C 	C 	0.1771	0.323	0.57081	0.12
Mof_C 	C 	0.2838	0.3714	0.6341	0.315
Mof_C 	C 	0.1691	0.4918	0.4878	-0.219
Mof_H 	H 	0.2074	0.5131	0.4905	0.11
Mof_H 	H 	0.1714	0.4667	0.47	0.069
Mof_H 	H 	0.1365	0.5211	0.4856	0.089
Mof_C 	C 	0.1763	0.2403	0.5203	-0.233
Mof_H 	H 	0.1389	0.2416	0.5089	0.097
Mof_H 	H 	0.2081	0.2615	0.5096	0.106
Mof_H 	H 	0.1882	0.1983	0.5234	0.088
Mof_C 	C 	0.8737	0.4705	0.37922	0.448
Mof_C 	C 	0.872	0.5134	0.35357	-0.196
Mof_C 	C 	0.9238	0.5498	0.34663	0.019
Mof_H 	H 	0.9605	0.5456	0.3572	-0.016
Mof_C 	C 	0.9176	0.5929	0.3229	0.035
Mof_C 	C 	0.8715	0.5908	0.30279	0.118
Mof_C 	C 	0.8186	0.5638	0.31313	-0.163
Mof_H 	H 	0.7814	0.5734	0.304	0.088
Mof_C 	C 	0.8196	0.5217	0.33723	0.093
Mof_H 	H 	0.7844	0.4996	0.342	0.007
Mof_C 	C 	0.8721	0.6324	0.27603	-0.184
Mof_C 	C 	0.8641	0.6075	0.2473	0.286
Mof_C 	C 	0.8613	0.6414	0.2222	-0.23
Mof_H 	H 	0.8494	0.6239	0.204	0.127
Mof_C 	C 	0.8767	0.7038	0.22396	0.071
Mof_C 	C 	0.879	0.7305	0.2527	-0.223
Mof_H 	H 	0.8783	0.773	0.2547	0.13
Mof_C 	C 	0.8823	0.6942	0.27761	0.235
Mof_C 	C 	0.8817	0.7436	0.19657	0.283
Mof_C 	C 	0.9846	0.6704	0.3451	-0.18
Mof_H 	H 	0.0182	0.6973	0.3403	0.064
Mof_H 	H 	0.9515	0.694	0.3535	0.107
Mof_H 	H 	0.9979	0.6403	0.3595	0.153
Mof_C 	C 	0.8488	0.516	0.2207	-0.233
Mof_H 	H 	0.8271	0.4815	0.2289	0.132
Mof_H 	H 	0.8216	0.5396	0.2083	0.115
Mof_H 	H 	0.8827	0.5016	0.2089	0.159
Mof_C 	C 	0.1994	0.2181	0.5578	-0.138
Mof_H 	H 	0.1996	0.2086	0.5789	0.081
Mof_H 	H 	0.1806	0.185	0.5469	0.061
Mof_H 	H 	0.2409	0.2236	0.5509	0.086
Mof_C 	C 	0.0179	0.6306	0.3352	0.016
Mof_H 	H 	0.0475	0.6059	0.3247	0.019
Mof_H 	H 	0.0352	0.6703	0.3393	-0.001
Mof_H 	H 	0.007	0.611	0.3538	-0.094
Mof_O 	O 	0.886	0.7203	0.3056	-0.199
Mof_Cd	Cd	0.61955	0.61822	0.67397	0.439
Mof_O 	O 	0.5747	0.54039	0.70409	-0.779
Mof_O 	O 	0.6657	0.5742	0.71814	-0.319
Mof_O 	O 	0.57913	0.2044	0.89698	-0.299
Mof_O 	O 	0.6784	0.19282	0.89076	-0.303
Mof_O 	O 	0.551	0.344	0.76662	-0.153
Mof_O 	O 	0.7266	0.3346	0.80289	-0.157
Mof_O 	O 	0.5442	0.5752	0.64132	-0.691
Mof_O 	O 	0.55518	0.67245	0.63802	-0.371
Mof_O 	O 	0.20106	0.6107	0.45124	-0.296
Mof_O 	O 	0.28343	0.6248	0.42199	-0.281
Mof_O 	O 	0.3622	0.5375	0.56632	-0.179
Mof_O 	O 	0.4467	0.6289	0.4945	-0.224
Mof_C 	C 	0.6174	0.5379	0.72032	0.518
Mof_C 	C 	0.6191	0.4929	0.74653	-0.214
Mof_C 	C 	0.6654	0.4926	0.76766	0.1
Mof_H 	H 	0.6964	0.5219	0.7666	0.007
Mof_C 	C 	0.6663	0.4497	0.79013	-0.152
Mof_H 	H 	0.698	0.4511	0.8042	0.097
Mof_C 	C 	0.6225	0.4049	0.79285	0.063
Mof_C 	C 	0.5843	0.3997	0.76646	0.027
Mof_C 	C 	0.5796	0.4434	0.74653	0.05
Mof_H 	H 	0.549	0.4411	0.732	-0.068
Mof_C 	C 	0.627	0.3584	0.81691	-0.042
Mof_C 	C 	0.5774	0.3473	0.83388	-0.029
Mof_H 	H 	0.5422	0.3705	0.8305	0.053
Mof_C 	C 	0.5758	0.3014	0.85706	-0.033
Mof_H 	H 	0.5405	0.2955	0.8685	0.052
Mof_C 	C 	0.6274	0.2662	0.86205	-0.046
Mof_C 	C 	0.679	0.2796	0.84417	-0.1
Mof_H 	H 	0.7156	0.2591	0.848	0.086
Mof_C 	C 	0.677	0.3229	0.82081	0.127
Mof_C 	C 	0.6286	0.2162	0.8841	0.313
Mof_C 	C 	0.5082	0.3309	0.7378	-0.219
Mof_H 	H 	0.4869	0.2926	0.7405	0.111
Mof_H 	H 	0.5333	0.3286	0.72	0.069
Mof_H 	H 	0.4789	0.3635	0.7356	0.091
Mof_C 	C 	0.7597	0.3237	0.7703	-0.25
Mof_H 	H 	0.7584	0.3611	0.7589	0.113
Mof_H 	H 	0.7385	0.2919	0.7596	0.114
Mof_H 	H 	0.8017	0.3118	0.7734	0.1
Mof_C 	C 	0.5295	0.6263	0.62922	0.463
Mof_C 	C 	0.4866	0.628	0.60357	-0.215
Mof_C 	C 	0.4502	0.5762	0.59663	0.033
Mof_H 	H 	0.4544	0.5395	0.6072	-0.049
Mof_C 	C 	0.4071	0.5824	0.5729	0.021
Mof_C 	C 	0.4092	0.6285	0.55279	0.125
Mof_C 	C 	0.4362	0.6814	0.56313	-0.174
Mof_H 	H 	0.4266	0.7186	0.554	0.092
Mof_C 	C 	0.4783	0.6804	0.58723	0.105
Mof_H 	H 	0.5004	0.7156	0.592	0.003
Mof_C 	C 	0.3676	0.6279	0.52603	-0.191
Mof_C 	C 	0.3925	0.6359	0.4973	0.291
Mof_C 	C 	0.3586	0.6387	0.4722	-0.238
Mof_H 	H 	0.3761	0.6506	0.454	0.128
Mof_C 	C 	0.2962	0.6233	0.47396	0.072
Mof_C 	C 	0.2695	0.621	0.5027	-0.224
Mof_H 	H 	0.227	0.6217	0.5047	0.128
Mof_C 	C 	0.3058	0.6177	0.52761	0.241
Mof_C 	C 	0.2564	0.6183	0.44657	0.28
Mof_C 	C 	0.3296	0.5154	0.5951	-0.057
Mof_H 	H 	0.3027	0.4818	0.5903	0.025
Mof_H 	H 	0.306	0.5485	0.6035	0.055
Mof_H 	H 	0.3597	0.5021	0.6095	0.02
Mof_C 	C 	0.484	0.6512	0.4707	-0.224
Mof_H 	H 	0.5185	0.6729	0.4789	0.129
Mof_H 	H 	0.4604	0.6784	0.4583	0.112
Mof_H 	H 	0.4984	0.6173	0.4589	0.152
Mof_C 	C 	0.7819	0.3006	0.8078	-0.151
Mof_H 	H 	0.7914	0.3004	0.8289	0.09
Mof_H 	H 	0.815	0.3194	0.7969	0.073
Mof_H 	H 	0.7764	0.2591	0.8009	0.091
Mof_C 	C 	0.3694	0.4821	0.5852	-0.107
Mof_H 	H 	0.3941	0.4525	0.5747	0.063
Mof_H 	H 	0.3297	0.4648	0.5893	0.061
Mof_H 	H 	0.389	0.493	0.6038	0.038
Mof_O 	O 	0.2797	0.614	0.5556	-0.211
Mof_Cd	Cd	0.11955	0.11822	0.17397	0.439
Mof_O 	O 	0.0747	0.04039	0.20409	-0.732
Mof_O 	O 	0.1657	0.0742	0.21814	-0.316
Mof_O 	O 	0.07913	0.7044	0.39698	-0.309
Mof_O 	O 	0.1784	0.69282	0.39076	-0.303
Mof_O 	O 	0.051	0.844	0.26662	-0.109
Mof_O 	O 	0.2266	0.8346	0.30289	-0.158
Mof_O 	O 	0.0442	0.0752	0.14132	-0.651
Mof_O 	O 	0.05518	0.17245	0.13802	-0.36
Mof_O 	O 	0.70106	0.1107	0.95124	-0.292
Mof_O 	O 	0.78343	0.1248	0.92199	-0.282
Mof_O 	O 	0.8622	0.0375	0.06632	-0.192
Mof_O 	O 	0.9467	0.1289	0.9945	-0.272
Mof_C 	C 	0.1174	0.0379	0.22032	0.464
Mof_C 	C 	0.1191	0.9929	0.24653	-0.204
Mof_C 	C 	0.1654	0.9926	0.26766	0.224
Mof_H 	H 	0.1964	0.0219	0.2666	-0.074
Mof_C 	C 	0.1663	0.9497	0.29013	-0.225
Mof_H 	H 	0.198	0.9511	0.3042	0.13
Mof_C 	C 	0.1225	0.9049	0.29285	0.101
Mof_C 	C 	0.0843	0.8997	0.26646	-0.005
Mof_C 	C 	0.0796	0.9434	0.24653	0.067
Mof_H 	H 	0.049	0.9411	0.232	-0.061
Mof_C 	C 	0.127	0.8584	0.31691	-0.062
Mof_C 	C 	0.0774	0.8473	0.33388	-0.019
Mof_H 	H 	0.0422	0.8705	0.3305	0.044
Mof_C 	C 	0.0758	0.8014	0.35706	-0.041
Mof_H 	H 	0.0405	0.7955	0.3685	0.047
Mof_C 	C 	0.1274	0.7662	0.36205	-0.045
Mof_C 	C 	0.179	0.7796	0.34417	-0.105
Mof_H 	H 	0.2156	0.7591	0.348	0.088
Mof_C 	C 	0.177	0.8229	0.32081	0.136
Mof_C 	C 	0.1286	0.7162	0.3841	0.314
Mof_C 	C 	0.0082	0.8309	0.2378	-0.612
Mof_H 	H 	0.9869	0.7926	0.2405	0.26
Mof_H 	H 	0.0333	0.8286	0.22	0.18
Mof_H 	H 	0.9789	0.8635	0.2356	0.247
Mof_C 	C 	0.2597	0.8237	0.2703	-0.253
Mof_H 	H 	0.2584	0.8611	0.2589	0.117
Mof_H 	H 	0.2385	0.7919	0.2596	0.115
Mof_H 	H 	0.3017	0.8118	0.2734	0.101
Mof_C 	C 	0.0295	0.1263	0.12922	0.41
Mof_C 	C 	0.9866	0.128	0.10357	-0.192
Mof_C 	C 	0.9502	0.0762	0.09663	0.04
Mof_H 	H 	0.9544	0.0395	0.1072	-0.048
Mof_C 	C 	0.9071	0.0824	0.0729	0.005
Mof_C 	C 	0.9092	0.1285	0.05279	0.162
Mof_C 	C 	0.9362	0.1814	0.06313	-0.23
Mof_H 	H 	0.9266	0.2186	0.054	0.124
Mof_C 	C 	0.9783	0.1804	0.08723	0.218
Mof_H 	H 	0.0004	0.2156	0.092	-0.067
Mof_C 	C 	0.8676	0.1279	0.02603	-0.218
Mof_C 	C 	0.8925	0.1359	0.9973	0.334
Mof_C 	C 	0.8586	0.1387	0.9722	-0.27
Mof_H 	H 	0.8761	0.1506	0.954	0.138
Mof_C 	C 	0.7962	0.1233	0.97396	0.087
Mof_C 	C 	0.7695	0.121	0.0027	-0.236
Mof_H 	H 	0.727	0.1217	0.0047	0.134
Mof_C 	C 	0.8058	0.1177	0.02761	0.259
Mof_C 	C 	0.7564	0.1183	0.94657	0.273
Mof_C 	C 	0.8296	0.0154	0.0951	0.048
Mof_H 	H 	0.8027	0.9818	0.0903	-0.009
Mof_H 	H 	0.806	0.0485	0.1035	0.017
Mof_H 	H 	0.8597	0.0021	0.1095	-0.098
Mof_C 	C 	0.984	0.1512	0.9707	0.006
Mof_H 	H 	0.0185	0.1729	0.9789	0.03
Mof_H 	H 	0.9604	0.1784	0.9583	0.052
Mof_H 	H 	0.9984	0.1173	0.9589	0.102
Mof_C 	C 	0.2819	0.8006	0.3078	-0.146
Mof_H 	H 	0.2914	0.8004	0.3289	0.089
Mof_H 	H 	0.315	0.8194	0.2969	0.072
Mof_H 	H 	0.2764	0.7591	0.3009	0.089
Mof_C 	C 	0.8694	0.9821	0.0852	-0.236
Mof_H 	H 	0.8941	0.9525	0.0747	0.114
Mof_H 	H 	0.8297	0.9648	0.0893	0.124
Mof_H 	H 	0.889	0.993	0.1038	0.173
Mof_O 	O 	0.7797	0.114	0.0556	-0.217
Mof_Cd	Cd	0.38045	0.38178	0.67397	0.439
Mof_O 	O 	0.4253	0.45961	0.70409	-0.78
Mof_O 	O 	0.3343	0.4258	0.71814	-0.322
Mof_O 	O 	0.42087	0.7956	0.89698	-0.297
Mof_O 	O 	0.3216	0.80718	0.89076	-0.303
Mof_O 	O 	0.449	0.656	0.76662	-0.153
Mof_O 	O 	0.2734	0.6654	0.80289	-0.162
Mof_O 	O 	0.4558	0.4248	0.64132	-0.691
Mof_O 	O 	0.44482	0.32755	0.63802	-0.371
Mof_O 	O 	0.79894	0.3893	0.45124	-0.295
Mof_O 	O 	0.71657	0.3752	0.42199	-0.281
Mof_O 	O 	0.6378	0.4625	0.56632	-0.179
Mof_O 	O 	0.5533	0.3711	0.4945	-0.224
Mof_C 	C 	0.3826	0.4621	0.72032	0.519
Mof_C 	C 	0.3809	0.5071	0.74653	-0.216
Mof_C 	C 	0.3346	0.5074	0.76766	0.1
Mof_H 	H 	0.3036	0.4781	0.7666	0.003
Mof_C 	C 	0.3337	0.5503	0.79013	-0.154
Mof_H 	H 	0.302	0.5489	0.8042	0.093
Mof_C 	C 	0.3775	0.5951	0.79285	0.063
Mof_C 	C 	0.4157	0.6003	0.76646	0.026
Mof_C 	C 	0.4204	0.5566	0.74653	0.051
Mof_H 	H 	0.451	0.5589	0.732	-0.068
Mof_C 	C 	0.373	0.6416	0.81691	-0.044
Mof_C 	C 	0.4226	0.6527	0.83388	-0.027
Mof_H 	H 	0.4578	0.6295	0.8305	0.052
Mof_C 	C 	0.4242	0.6986	0.85706	-0.035
Mof_H 	H 	0.4595	0.7045	0.8685	0.054
Mof_C 	C 	0.3726	0.7338	0.86205	-0.045
Mof_C 	C 	0.321	0.7204	0.84417	-0.103
Mof_H 	H 	0.2844	0.7409	0.848	0.087
Mof_C 	C 	0.323	0.6771	0.82081	0.129
Mof_C 	C 	0.3714	0.7838	0.8841	0.312
Mof_C 	C 	0.4918	0.6691	0.7378	-0.219
Mof_H 	H 	0.5131	0.7074	0.7405	0.11
Mof_H 	H 	0.4667	0.6714	0.72	0.068
Mof_H 	H 	0.5211	0.6365	0.7356	0.091
Mof_C 	C 	0.2403	0.6763	0.7703	-0.24
Mof_H 	H 	0.2416	0.6389	0.7589	0.105
Mof_H 	H 	0.2615	0.7081	0.7596	0.109
Mof_H 	H 	0.1983	0.6882	0.7734	0.093
Mof_C 	C 	0.4705	0.3737	0.62922	0.463
Mof_C 	C 	0.5134	0.372	0.60357	-0.214
Mof_C 	C 	0.5498	0.4238	0.59663	0.033
Mof_H 	H 	0.5456	0.4605	0.6072	-0.049
Mof_C 	C 	0.5929	0.4176	0.5729	0.021
Mof_C 	C 	0.5908	0.3715	0.55279	0.125
Mof_C 	C 	0.5638	0.3186	0.56313	-0.173
Mof_H 	H 	0.5734	0.2814	0.554	0.091
Mof_C 	C 	0.5217	0.3196	0.58723	0.105
Mof_H 	H 	0.4996	0.2844	0.592	0.003
Mof_C 	C 	0.6324	0.3721	0.52603	-0.191
Mof_C 	C 	0.6075	0.3641	0.4973	0.291
Mof_C 	C 	0.6414	0.3613	0.4722	-0.238
Mof_H 	H 	0.6239	0.3494	0.454	0.128
Mof_C 	C 	0.7038	0.3767	0.47396	0.073
Mof_C 	C 	0.7305	0.379	0.5027	-0.224
Mof_H 	H 	0.773	0.3783	0.5047	0.131
Mof_C 	C 	0.6942	0.3823	0.52761	0.241
Mof_C 	C 	0.7436	0.3817	0.44657	0.28
Mof_C 	C 	0.6704	0.4846	0.5951	-0.055
Mof_H 	H 	0.6973	0.5182	0.5903	0.024
Mof_H 	H 	0.694	0.4515	0.6035	0.057
Mof_H 	H 	0.6403	0.4979	0.6095	0.02
Mof_C 	C 	0.516	0.3488	0.4707	-0.224
Mof_H 	H 	0.4815	0.3271	0.4789	0.129
Mof_H 	H 	0.5396	0.3216	0.4583	0.112
Mof_H 	H 	0.5016	0.3827	0.4589	0.152
Mof_C 	C 	0.2181	0.6994	0.8078	-0.139
Mof_H 	H 	0.2086	0.6996	0.8289	0.083
Mof_H 	H 	0.185	0.6806	0.7969	0.064
Mof_H 	H 	0.2236	0.7409	0.8009	0.086
Mof_C 	C 	0.6306	0.5179	0.5852	-0.111
Mof_H 	H 	0.6059	0.5475	0.5747	0.064
Mof_H 	H 	0.6703	0.5352	0.5893	0.062
Mof_H 	H 	0.611	0.507	0.6038	0.039
Mof_O 	O 	0.7203	0.386	0.5556	-0.207
Mof_Cd	Cd	0.88045	0.88178	0.17397	0.451
Mof_O 	O 	0.9253	0.95961	0.20409	-0.691
Mof_O 	O 	0.8343	0.9258	0.21814	-0.305
Mof_O 	O 	0.92087	0.2956	0.39698	-0.287
Mof_O 	O 	0.8216	0.30718	0.39076	-0.303
Mof_O 	O 	0.949	0.156	0.26662	-0.201
Mof_O 	O 	0.7734	0.1654	0.30289	-0.158
Mof_O 	O 	0.9558	0.9248	0.14132	-0.617
Mof_O 	O 	0.94482	0.82755	0.13802	-0.364
Mof_O 	O 	0.29894	0.8893	0.95124	-0.299
Mof_O 	O 	0.21657	0.8752	0.92199	-0.28
Mof_O 	O 	0.1378	0.9625	0.06632	-0.164
Mof_O 	O 	0.0533	0.8711	0.9945	-0.175
Mof_C 	C 	0.8826	0.9621	0.22032	0.506
Mof_C 	C 	0.8809	0.0071	0.24653	-0.166
Mof_C 	C 	0.8346	0.0074	0.26766	-0.059
Mof_H 	H 	0.8036	0.9781	0.2666	0.096
Mof_C 	C 	0.8337	0.0503	0.29013	-0.052
Mof_H 	H 	0.802	0.0489	0.3042	0.052
Mof_C 	C 	0.8775	0.0951	0.29285	0.004
Mof_C 	C 	0.9157	0.1003	0.26646	0.089
Mof_C 	C 	0.9204	0.0566	0.24653	-0.018
Mof_H 	H 	0.951	0.0589	0.232	-0.026
Mof_C 	C 	0.873	0.1416	0.31691	-0.013
Mof_C 	C 	0.9226	0.1527	0.33388	-0.044
Mof_H 	H 	0.9578	0.1295	0.3305	0.066
Mof_C 	C 	0.9242	0.1986	0.35706	-0.022
Mof_H 	H 	0.9595	0.2045	0.3685	0.059
Mof_C 	C 	0.8726	0.2338	0.36205	-0.049
Mof_C 	C 	0.821	0.2204	0.34417	-0.093
Mof_H 	H 	0.7844	0.2409	0.348	0.084
Mof_C 	C 	0.823	0.1771	0.32081	0.115
Mof_C 	C 	0.8714	0.2838	0.3841	0.312
Mof_C 	C 	0.9918	0.1691	0.2378	0.171
Mof_H 	H 	0.0131	0.2074	0.2405	-0.038
Mof_H 	H 	0.9667	0.1714	0.22	-0.03
Mof_H 	H 	0.0211	0.1365	0.2356	-0.059
Mof_C 	C 	0.7403	0.1763	0.2703	-0.242
Mof_H 	H 	0.7416	0.1389	0.2589	0.103
Mof_H 	H 	0.7615	0.2081	0.2596	0.111
Mof_H 	H 	0.6983	0.1882	0.2734	0.094
Mof_C 	C 	0.9705	0.8737	0.12922	0.473
Mof_C 	C 	0.0134	0.872	0.10357	-0.195
Mof_C 	C 	0.0498	0.9238	0.09663	-0.002
Mof_H 	H 	0.0456	0.9605	0.1072	-0.015
Mof_C 	C 	0.0929	0.9176	0.0729	0.053
Mof_C 	C 	0.0908	0.8715	0.05279	0.076
Mof_C 	C 	0.0638	0.8186	0.06313	-0.099
Mof_H 	H 	0.0734	0.7814	0.054	0.054
Mof_C 	C 	0.0217	0.8196	0.08723	-0.029
Mof_H 	H 	0.9996	0.7844	0.092	0.081
Mof_C 	C 	0.1324	0.8721	0.02603	-0.159
Mof_C 	C 	0.1075	0.8641	0.9973	0.246
Mof_C 	C 	0.1414	0.8613	0.9722	-0.204
Mof_H 	H 	0.1239	0.8494	0.954	0.118
Mof_C 	C 	0.2038	0.8767	0.97396	0.058
Mof_C 	C 	0.2305	0.879	0.0027	-0.21
Mof_H 	H 	0.273	0.8783	0.0047	0.124
Mof_C 	C 	0.1942	0.8823	0.02761	0.22
Mof_C 	C 	0.2436	0.8817	0.94657	0.288
Mof_C 	C 	0.1704	0.9846	0.0951	-0.178
Mof_H 	H 	0.1973	0.0182	0.0903	0.062
Mof_H 	H 	0.194	0.9515	0.1035	0.106
Mof_H 	H 	0.1403	0.9979	0.1095	0.157
Mof_C 	C 	0.016	0.8488	0.9707	-0.445
Mof_H 	H 	0.9815	0.8271	0.9789	0.224
Mof_H 	H 	0.0396	0.8216	0.9583	0.17
Mof_H 	H 	0.0016	0.8827	0.9589	0.202
Mof_C 	C 	0.7181	0.1994	0.3078	-0.144
Mof_H 	H 	0.7086	0.1996	0.3289	0.085
Mof_H 	H 	0.685	0.1806	0.2969	0.066
Mof_H 	H 	0.7236	0.2409	0.3009	0.089
Mof_C 	C 	0.1306	0.0179	0.0852	0.018
Mof_H 	H 	0.1059	0.0475	0.0747	0.013
Mof_H 	H 	0.1703	0.0352	0.0893	-0.001
Mof_H 	H 	0.111	0.007	0.1038	-0.099
Mof_O 	O 	0.2203	0.886	0.0556	-0.199
Mof_Cd	Cd	0.88178	0.11955	0.82603	0.448
Mof_O 	O 	0.95961	0.0747	0.79591	-0.713
Mof_O 	O 	0.9258	0.1657	0.78186	-0.309
Mof_O 	O 	0.2956	0.07913	0.60302	-0.313
Mof_O 	O 	0.30718	0.1784	0.60924	-0.305
Mof_O 	O 	0.156	0.051	0.73338	-0.118
Mof_O 	O 	0.1654	0.2266	0.69711	-0.161
Mof_O 	O 	0.9248	0.0442	0.85868	-0.628
Mof_O 	O 	0.82755	0.05518	0.86198	-0.358
Mof_O 	O 	0.8893	0.70106	0.04876	-0.296
Mof_O 	O 	0.8752	0.78343	0.07801	-0.278
Mof_O 	O 	0.9625	0.8622	0.93368	-0.157
Mof_O 	O 	0.8711	0.9467	0.0055	-0.253
Mof_C 	C 	0.9621	0.1174	0.77968	0.526
Mof_C 	C 	0.0071	0.1191	0.75347	-0.208
Mof_C 	C 	0.0074	0.1654	0.73234	-0.036
Mof_H 	H 	0.9781	0.1964	0.7334	0.087
Mof_C 	C 	0.0503	0.1663	0.70987	-0.08
Mof_H 	H 	0.0489	0.198	0.6958	0.058
Mof_C 	C 	0.0951	0.1225	0.70715	0.026
Mof_C 	C 	0.1003	0.0843	0.73354	0.024
Mof_C 	C 	0.0566	0.0796	0.75347	0.032
Mof_H 	H 	0.0589	0.049	0.768	-0.072
Mof_C 	C 	0.1416	0.127	0.68309	-0.034
Mof_C 	C 	0.1527	0.0774	0.66612	-0.042
Mof_H 	H 	0.1295	0.0422	0.6695	0.04
Mof_C 	C 	0.1986	0.0758	0.64294	-0.032
Mof_H 	H 	0.2045	0.0405	0.6315	0.036
Mof_C 	C 	0.2338	0.1274	0.63795	-0.054
Mof_C 	C 	0.2204	0.179	0.65583	-0.097
Mof_H 	H 	0.2409	0.2156	0.652	0.085
Mof_C 	C 	0.1771	0.177	0.67919	0.121
Mof_C 	C 	0.2838	0.1286	0.6159	0.317
Mof_C 	C 	0.1691	0.0082	0.7622	-0.621
Mof_H 	H 	0.2074	0.9869	0.7595	0.263
Mof_H 	H 	0.1714	0.0333	0.78	0.179
Mof_H 	H 	0.1365	0.9789	0.7644	0.245
Mof_C 	C 	0.1763	0.2597	0.7297	-0.238
Mof_H 	H 	0.1389	0.2584	0.7411	0.101
Mof_H 	H 	0.2081	0.2385	0.7404	0.108
Mof_H 	H 	0.1882	0.3017	0.7266	0.092
Mof_C 	C 	0.8737	0.0295	0.87078	0.403
Mof_C 	C 	0.872	0.9866	0.89643	-0.177
Mof_C 	C 	0.9238	0.9502	0.90337	0.026
Mof_H 	H 	0.9605	0.9544	0.8928	0
Mof_C 	C 	0.9176	0.9071	0.9271	0.025
Mof_C 	C 	0.8715	0.9092	0.94721	0.153
Mof_C 	C 	0.8186	0.9362	0.93687	-0.217
Mof_H 	H 	0.7814	0.9266	0.946	0.12
Mof_C 	C 	0.8196	0.9783	0.91277	0.203
Mof_H 	H 	0.7844	0.0004	0.908	-0.06
Mof_C 	C 	0.8721	0.8676	0.97397	-0.206
Mof_C 	C 	0.8641	0.8925	0.0027	0.324
Mof_C 	C 	0.8613	0.8586	0.0278	-0.254
Mof_H 	H 	0.8494	0.8761	0.046	0.136
Mof_C 	C 	0.8767	0.7962	0.02604	0.083
Mof_C 	C 	0.879	0.7695	0.9973	-0.235
Mof_H 	H 	0.8783	0.727	0.9953	0.132
Mof_C 	C 	0.8823	0.8058	0.97239	0.247
Mof_C 	C 	0.8817	0.7564	0.05343	0.278
Mof_C 	C 	0.9846	0.8296	0.9049	-0.193
Mof_H 	H 	0.0182	0.8027	0.9097	0.069
Mof_H 	H 	0.9515	0.806	0.8965	0.112
Mof_H 	H 	0.9979	0.8597	0.8905	0.158
Mof_C 	C 	0.8488	0.984	0.0293	-0.022
Mof_H 	H 	0.8271	0.0185	0.0211	0.04
Mof_H 	H 	0.8216	0.9604	0.0417	0.06
Mof_H 	H 	0.8827	0.9984	0.0411	0.116
Mof_C 	C 	0.1994	0.2819	0.6922	-0.142
Mof_H 	H 	0.1996	0.2914	0.6711	0.084
Mof_H 	H 	0.1806	0.315	0.7031	0.065
Mof_H 	H 	0.2409	0.2764	0.6991	0.088
Mof_C 	C 	0.0179	0.8694	0.9148	0.021
Mof_H 	H 	0.0475	0.8941	0.9253	0.024
Mof_H 	H 	0.0352	0.8297	0.9107	-0.002
Mof_H 	H 	0.007	0.889	0.8962	-0.091
Mof_O 	O 	0.886	0.7797	0.9444	-0.204
Mof_Cd	Cd	0.38178	0.61955	0.32603	0.439
Mof_O 	O 	0.45961	0.5747	0.29591	-0.779
Mof_O 	O 	0.4258	0.6657	0.28186	-0.319
Mof_O 	O 	0.7956	0.57913	0.10302	-0.298
Mof_O 	O 	0.80718	0.6784	0.10924	-0.303
Mof_O 	O 	0.656	0.551	0.23338	-0.153
Mof_O 	O 	0.6654	0.7266	0.19711	-0.157
Mof_O 	O 	0.4248	0.5442	0.35868	-0.691
Mof_O 	O 	0.32755	0.55518	0.36198	-0.371
Mof_O 	O 	0.3893	0.20106	0.54876	-0.296
Mof_O 	O 	0.3752	0.28343	0.57801	-0.281
Mof_O 	O 	0.4625	0.3622	0.43368	-0.179
Mof_O 	O 	0.3711	0.4467	0.5055	-0.224
Mof_C 	C 	0.4621	0.6174	0.27968	0.519
Mof_C 	C 	0.5071	0.6191	0.25347	-0.214
Mof_C 	C 	0.5074	0.6654	0.23234	0.1
Mof_H 	H 	0.4781	0.6964	0.2334	0.007
Mof_C 	C 	0.5503	0.6663	0.20987	-0.152
Mof_H 	H 	0.5489	0.698	0.1958	0.097
Mof_C 	C 	0.5951	0.6225	0.20715	0.063
Mof_C 	C 	0.6003	0.5843	0.23354	0.027
Mof_C 	C 	0.5566	0.5796	0.25347	0.05
Mof_H 	H 	0.5589	0.549	0.268	-0.068
Mof_C 	C 	0.6416	0.627	0.18309	-0.042
Mof_C 	C 	0.6527	0.5774	0.16612	-0.028
Mof_H 	H 	0.6295	0.5422	0.1695	0.053
Mof_C 	C 	0.6986	0.5758	0.14294	-0.034
Mof_H 	H 	0.7045	0.5405	0.1315	0.053
Mof_C 	C 	0.7338	0.6274	0.13795	-0.046
Mof_C 	C 	0.7204	0.679	0.15583	-0.1
Mof_H 	H 	0.7409	0.7156	0.152	0.086
Mof_C 	C 	0.6771	0.677	0.17919	0.127
Mof_C 	C 	0.7838	0.6286	0.1159	0.312
Mof_C 	C 	0.6691	0.5082	0.2622	-0.219
Mof_H 	H 	0.7074	0.4869	0.2595	0.11
Mof_H 	H 	0.6714	0.5333	0.28	0.069
Mof_H 	H 	0.6365	0.4789	0.2644	0.091
Mof_C 	C 	0.6763	0.7597	0.2297	-0.251
Mof_H 	H 	0.6389	0.7584	0.2411	0.114
Mof_H 	H 	0.7081	0.7385	0.2404	0.115
Mof_H 	H 	0.6882	0.8017	0.2266	0.101
Mof_C 	C 	0.3737	0.5295	0.37078	0.463
Mof_C 	C 	0.372	0.4866	0.39643	-0.215
Mof_C 	C 	0.4238	0.4502	0.40337	0.033
Mof_H 	H 	0.4605	0.4544	0.3928	-0.049
Mof_C 	C 	0.4176	0.4071	0.4271	0.021
Mof_C 	C 	0.3715	0.4092	0.44721	0.124
Mof_C 	C 	0.3186	0.4362	0.43687	-0.173
Mof_H 	H 	0.2814	0.4266	0.446	0.09
Mof_C 	C 	0.3196	0.4783	0.41277	0.104
Mof_H 	H 	0.2844	0.5004	0.408	0.003
Mof_C 	C 	0.3721	0.3676	0.47397	-0.191
Mof_C 	C 	0.3641	0.3925	0.5027	0.291
Mof_C 	C 	0.3613	0.3586	0.5278	-0.238
Mof_H 	H 	0.3494	0.3761	0.546	0.128
Mof_C 	C 	0.3767	0.2962	0.52604	0.072
Mof_C 	C 	0.379	0.2695	0.4973	-0.224
Mof_H 	H 	0.3783	0.227	0.4953	0.127
Mof_C 	C 	0.3823	0.3058	0.47239	0.24
Mof_C 	C 	0.3817	0.2564	0.55343	0.28
Mof_C 	C 	0.4846	0.3296	0.4049	-0.058
Mof_H 	H 	0.5182	0.3027	0.4097	0.025
Mof_H 	H 	0.4515	0.306	0.3965	0.055
Mof_H 	H 	0.4979	0.3597	0.3905	0.02
Mof_C 	C 	0.3488	0.484	0.5293	-0.224
Mof_H 	H 	0.3271	0.5185	0.5211	0.129
Mof_H 	H 	0.3216	0.4604	0.5417	0.112
Mof_H 	H 	0.3827	0.4984	0.5411	0.152
Mof_C 	C 	0.6994	0.7819	0.1922	-0.15
Mof_H 	H 	0.6996	0.7914	0.1711	0.09
Mof_H 	H 	0.6806	0.815	0.2031	0.073
Mof_H 	H 	0.7409	0.7764	0.1991	0.091
Mof_C 	C 	0.5179	0.3694	0.4148	-0.106
Mof_H 	H 	0.5475	0.3941	0.4253	0.062
Mof_H 	H 	0.5352	0.3297	0.4107	0.06
Mof_H 	H 	0.507	0.389	0.3962	0.037
Mof_O 	O 	0.386	0.2797	0.4444	-0.213
Mof_Cd	Cd	0.11822	0.88045	0.82603	0.443
Mof_O 	O 	0.04039	0.9253	0.79591	-0.707
Mof_O 	O 	0.0742	0.8343	0.78186	-0.312
Mof_O 	O 	0.7044	0.92087	0.60302	-0.284
Mof_O 	O 	0.69282	0.8216	0.60924	-0.302
Mof_O 	O 	0.844	0.949	0.73338	-0.187
Mof_O 	O 	0.8346	0.7734	0.69711	-0.155
Mof_O 	O 	0.0752	0.9558	0.85868	-0.637
Mof_O 	O 	0.17245	0.94482	0.86198	-0.368
Mof_O 	O 	0.1107	0.29894	0.04876	-0.295
Mof_O 	O 	0.1248	0.21657	0.07801	-0.284
Mof_O 	O 	0.0375	0.1378	0.93368	-0.203
Mof_O 	O 	0.1289	0.0533	0.0055	-0.19
Mof_C 	C 	0.0379	0.8826	0.77968	0.448
Mof_C 	C 	0.9929	0.8809	0.75347	-0.166
Mof_C 	C 	0.9926	0.8346	0.73234	0.191
Mof_H 	H 	0.0219	0.8036	0.7334	-0.058
Mof_C 	C 	0.9497	0.8337	0.70987	-0.191
Mof_H 	H 	0.9511	0.802	0.6958	0.121
Mof_C 	C 	0.9049	0.8775	0.70715	0.077
Mof_C 	C 	0.8997	0.9157	0.73354	0.057
Mof_C 	C 	0.9434	0.9204	0.75347	0.02
Mof_H 	H 	0.9411	0.951	0.768	-0.017
Mof_C 	C 	0.8584	0.873	0.68309	-0.041
Mof_C 	C 	0.8473	0.9226	0.66612	-0.022
Mof_H 	H 	0.8705	0.9578	0.6695	0.069
Mof_C 	C 	0.8014	0.9242	0.64294	-0.031
Mof_H 	H 	0.7955	0.9595	0.6315	0.068
Mof_C 	C 	0.7662	0.8726	0.63795	-0.04
Mof_C 	C 	0.7796	0.821	0.65583	-0.101
Mof_H 	H 	0.7591	0.7844	0.652	0.087
Mof_C 	C 	0.8229	0.823	0.67919	0.13
Mof_C 	C 	0.7162	0.8714	0.6159	0.309
Mof_C 	C 	0.8309	0.9918	0.7622	0.136
Mof_H 	H 	0.7926	0.0131	0.7595	-0.025
Mof_H 	H 	0.8286	0.9667	0.78	-0.017
Mof_H 	H 	0.8635	0.0211	0.7644	-0.04
Mof_C 	C 	0.8237	0.7403	0.7297	-0.256
Mof_H 	H 	0.8611	0.7416	0.7411	0.119
Mof_H 	H 	0.7919	0.7615	0.7404	0.117
Mof_H 	H 	0.8118	0.6983	0.7266	0.102
Mof_C 	C 	0.1263	0.9705	0.87078	0.485
Mof_C 	C 	0.128	0.0134	0.89643	-0.212
Mof_C 	C 	0.0762	0.0498	0.90337	0.012
Mof_H 	H 	0.0395	0.0456	0.8928	-0.066
Mof_C 	C 	0.0824	0.0929	0.9271	0.034
Mof_C 	C 	0.1285	0.0908	0.94721	0.082
Mof_C 	C 	0.1814	0.0638	0.93687	-0.107
Mof_H 	H 	0.2186	0.0734	0.946	0.056
Mof_C 	C 	0.1804	0.0217	0.91277	-0.023
Mof_H 	H 	0.2156	0.9996	0.908	0.08
Mof_C 	C 	0.1279	0.1324	0.97397	-0.169
Mof_C 	C 	0.1359	0.1075	0.0027	0.252
Mof_C 	C 	0.1387	0.1414	0.0278	-0.217
Mof_H 	H 	0.1506	0.1239	0.046	0.118
Mof_C 	C 	0.1233	0.2038	0.02604	0.06
Mof_C 	C 	0.121	0.2305	0.9973	-0.21
Mof_H 	H 	0.1217	0.273	0.9953	0.125
Mof_C 	C 	0.1177	0.1942	0.97239	0.231
Mof_C 	C 	0.1183	0.2436	0.05343	0.283
Mof_C 	C 	0.0154	0.1704	0.9049	0.076
Mof_H 	H 	0.9818	0.1973	0.9097	-0.019
Mof_H 	H 	0.0485	0.194	0.8965	0.006
Mof_H 	H 	0.0021	0.1403	0.8905	-0.114
Mof_C 	C 	0.1512	0.016	0.0293	-0.44
Mof_H 	H 	0.1729	0.9815	0.0211	0.224
Mof_H 	H 	0.1784	0.0396	0.0417	0.168
Mof_H 	H 	0.1173	0.0016	0.0411	0.192
Mof_C 	C 	0.8006	0.7181	0.6922	-0.148
Mof_H 	H 	0.8004	0.7086	0.6711	0.09
Mof_H 	H 	0.8194	0.685	0.7031	0.072
Mof_H 	H 	0.7591	0.7236	0.6991	0.09
Mof_C 	C 	0.9821	0.1306	0.9148	-0.25
Mof_H 	H 	0.9525	0.1059	0.9253	0.108
Mof_H 	H 	0.9648	0.1703	0.9107	0.131
Mof_H 	H 	0.993	0.111	0.8962	0.18
Mof_O 	O 	0.114	0.2203	0.9444	-0.212
Mof_Cd	Cd	0.61822	0.38045	0.32603	0.438
Mof_O 	O 	0.54039	0.4253	0.29591	-0.78
Mof_O 	O 	0.5742	0.3343	0.28186	-0.322
Mof_O 	O 	0.2044	0.42087	0.10302	-0.299
Mof_O 	O 	0.19282	0.3216	0.10924	-0.303
Mof_O 	O 	0.344	0.449	0.23338	-0.153
Mof_O 	O 	0.3346	0.2734	0.19711	-0.162
Mof_O 	O 	0.5752	0.4558	0.35868	-0.691
Mof_O 	O 	0.67245	0.44482	0.36198	-0.371
Mof_O 	O 	0.6107	0.79894	0.54876	-0.295
Mof_O 	O 	0.6248	0.71657	0.57801	-0.281
Mof_O 	O 	0.5375	0.6378	0.43368	-0.179
Mof_O 	O 	0.6289	0.5533	0.5055	-0.224
Mof_C 	C 	0.5379	0.3826	0.27968	0.519
Mof_C 	C 	0.4929	0.3809	0.25347	-0.216
Mof_C 	C 	0.4926	0.3346	0.23234	0.1
Mof_H 	H 	0.5219	0.3036	0.2334	0.003
Mof_C 	C 	0.4497	0.3337	0.20987	-0.154
Mof_H 	H 	0.4511	0.302	0.1958	0.094
Mof_C 	C 	0.4049	0.3775	0.20715	0.063
Mof_C 	C 	0.3997	0.4157	0.23354	0.026
Mof_C 	C 	0.4434	0.4204	0.25347	0.051
Mof_H 	H 	0.4411	0.451	0.268	-0.068
Mof_C 	C 	0.3584	0.373	0.18309	-0.044
Mof_C 	C 	0.3473	0.4226	0.16612	-0.027
Mof_H 	H 	0.3705	0.4578	0.1695	0.052
Mof_C 	C 	0.3014	0.4242	0.14294	-0.035
Mof_H 	H 	0.2955	0.4595	0.1315	0.053
Mof_C 	C 	0.2662	0.3726	0.13795	-0.045
Mof_C 	C 	0.2796	0.321	0.15583	-0.102
Mof_H 	H 	0.2591	0.2844	0.152	0.087
Mof_C 	C 	0.3229	0.323	0.17919	0.13
Mof_C 	C 	0.2162	0.3714	0.1159	0.312
Mof_C 	C 	0.3309	0.4918	0.2622	-0.218
Mof_H 	H 	0.2926	0.5131	0.2595	0.111
Mof_H 	H 	0.3286	0.4667	0.28	0.068
Mof_H 	H 	0.3635	0.5211	0.2644	0.091
Mof_C 	C 	0.3237	0.2403	0.2297	-0.239
Mof_H 	H 	0.3611	0.2416	0.2411	0.104
Mof_H 	H 	0.2919	0.2615	0.2404	0.108
Mof_H 	H 	0.3118	0.1983	0.2266	0.092
Mof_C 	C 	0.6263	0.4705	0.37078	0.463
Mof_C 	C 	0.628	0.5134	0.39643	-0.215
Mof_C 	C 	0.5762	0.5498	0.40337	0.034
Mof_H 	H 	0.5395	0.5456	0.3928	-0.049
Mof_C 	C 	0.5824	0.5929	0.4271	0.021
Mof_C 	C 	0.6285	0.5908	0.44721	0.125
Mof_C 	C 	0.6814	0.5638	0.43687	-0.173
Mof_H 	H 	0.7186	0.5734	0.446	0.093
Mof_C 	C 	0.6804	0.5217	0.41277	0.106
Mof_H 	H 	0.7156	0.4996	0.408	0.003
Mof_C 	C 	0.6279	0.6324	0.47397	-0.191
Mof_C 	C 	0.6359	0.6075	0.5027	0.291
Mof_C 	C 	0.6387	0.6414	0.5278	-0.238
Mof_H 	H 	0.6506	0.6239	0.546	0.128
Mof_C 	C 	0.6233	0.7038	0.52604	0.073
Mof_C 	C 	0.621	0.7305	0.4973	-0.224
Mof_H 	H 	0.6217	0.773	0.4953	0.132
Mof_C 	C 	0.6177	0.6942	0.47239	0.242
Mof_C 	C 	0.6183	0.7436	0.55343	0.28
Mof_C 	C 	0.5154	0.6704	0.4049	-0.055
Mof_H 	H 	0.4818	0.6973	0.4097	0.024
Mof_H 	H 	0.5485	0.694	0.3965	0.058
Mof_H 	H 	0.5021	0.6403	0.3905	0.02
Mof_C 	C 	0.6512	0.516	0.5293	-0.224
Mof_H 	H 	0.6729	0.4815	0.5211	0.129
Mof_H 	H 	0.6784	0.5396	0.5417	0.112
Mof_H 	H 	0.6173	0.5016	0.5411	0.152
Mof_C 	C 	0.3006	0.2181	0.1922	-0.14
Mof_H 	H 	0.3004	0.2086	0.1711	0.084
Mof_H 	H 	0.3194	0.185	0.2031	0.064
Mof_H 	H 	0.2591	0.2236	0.1991	0.086
Mof_C 	C 	0.4821	0.6306	0.4148	-0.112
Mof_H 	H 	0.4525	0.6059	0.4253	0.064
Mof_H 	H 	0.4648	0.6703	0.4107	0.063
Mof_H 	H 	0.493	0.611	0.3962	0.04
Mof_O 	O 	0.614	0.7203	0.4444	-0.205
Mof_Cd	Cd	0.87801	0.75	0.125	0.52
Mof_Cd	Cd	0.12199	0.25	0.125	0.516
Mof_Cd	Cd	0.75	0.12199	0.875	0.515
Mof_Cd	Cd	0.25	0.62199	0.375	0.519
Mof_Cd	Cd	0.25	0.87801	0.875	0.521
Mof_Cd	Cd	0.75	0.37801	0.375	0.518
Mof_Cd	Cd	0.62199	0.75	0.625	0.518
Mof_Cd	Cd	0.37801	0.25	0.625	0.519
Mof_Na	Na	6.58266e-33	0.5	0.07677	2.578
Mof_Na	Na	0.5	0	0.57677	2.578
Mof_Na	Na	0.5	0	0.92323	2.577
Mof_Na	Na	3.23845e-33	0.5	0.42323	2.577
Mof_Na	Na	0.5	0.5	0.67323	2.761
Mof_Na	Na	1.32551e-33	0	0.17323	2.395
Mof_Na	Na	2.5511e-32	1.91848e-32	0.82677	2.391
Mof_Na	Na	0.5	0.5	0.32677	2.761
_end
