data_functionalizedCrystal
_audit_creation_method	'EQeq! by Chris Wilmer'
_symmetry_space_group_name_H-M	'P1'
_symmetry_Int_Tables_number	1
_symmetry_cell_setting	triclinic
loop_
_symmetry_equiv_pos_as_xyz
  x,y,z
_cell_length_a	9.5251
_cell_length_b	12.5605
_cell_length_c	18.9231
_cell_angle_alpha	106.077
_cell_angle_beta	98.874
_cell_angle_gamma	100.643
loop_
_atom_site_label
_atom_site_type_symbol
_atom_site_fract_x
_atom_site_fract_y
_atom_site_fract_z
_atom_site_charge
Mof_Ce	Ce	0.23413	0.01779	0.00391	2.505
Mof_O 	O 	0.4578	0.0294	0.08755	-0.693
Mof_O 	O 	0.6888	0.0203	0.11865	-0.609
Mof_O 	O 	0.002	0.8913	0.9242	-0.644
Mof_N 	N 	0.5681	0.1593	0.3671	-0.108
Mof_O 	O 	0.7632	0.8189	0.8836	-0.557
Mof_N 	N 	0.0051	0.153	0.6822	-0.11
Mof_O 	O 	0.1063	0.1268	0.9387	-0.6
Mof_O 	O 	0.8604	0.0707	0.9049	-0.572
Mof_N 	N 	0.9549	0.6104	0.6731	-0.108
Mof_C 	C 	0.9241	0.2324	0.5785	-0.151
Mof_C 	C 	0.8915	0.8234	0.8772	0.461
Mof_C 	C 	0.5662	0.0766	0.2169	-0.159
Mof_C 	C 	0.9054	0.4189	0.5733	-0.153
Mof_C 	C 	0.5701	0.0379	0.134	0.525
Mof_C 	C 	0.9809	0.3485	0.6023	0.201
Mof_C 	C 	0.4399	0.0964	0.2404	0.017
Mof_H 	H 	0.3518	0.0819	0.2043	0.022
Mof_C 	C 	0.7106	0.2534	0.5017	-0.149
Mof_C 	C 	0.6923	0.0961	0.2712	0.003
Mof_H 	H 	0.7795	0.0808	0.2567	0.035
Mof_C 	C 	0.4424	0.137	0.3157	-0.02
Mof_H 	H 	0.3555	0.1495	0.3318	0.031
Mof_C 	C 	0.7707	0.3727	0.5229	0.186
Mof_C 	C 	0.69	0.1381	0.3468	-0.008
Mof_H 	H 	0.7759	0.1517	0.3842	0.035
Mof_C 	C 	0.9162	0.742	0.8053	-0.145
Mof_C 	C 	0.9913	0.1263	0.8192	-0.129
Mof_C 	C 	0.7862	0.1832	0.5283	0.191
Mof_C 	C 	0.8789	0.1478	0.7045	0.001
Mof_H 	H 	0.795	0.153	0.6725	0.027
Mof_C 	C 	0.0111	0.155	0.6021	-0.025
Mof_H 	H 	0.1143	0.1809	0.5995	0.023
Mof_H 	H 	0.9725	0.0766	0.5665	0.032
Mof_C 	C 	0.1224	0.1335	0.7946	0.002
Mof_H 	H 	0.2081	0.13	0.8262	0.022
Mof_C 	C 	0.8694	0.1348	0.7731	-0.007
Mof_H 	H 	0.7793	0.1317	0.7891	0.028
Mof_C 	C 	0.1241	0.4014	0.6594	-0.548
Mof_H 	H 	0.1627	0.3414	0.6736	0.183
Mof_H 	H 	0.108	0.4552	0.7042	0.184
Mof_H 	H 	0.1945	0.442	0.6374	0.171
Mof_C 	C 	0.0549	0.7394	0.7947	0.029
Mof_H 	H 	0.1377	0.7835	0.8335	-0.015
Mof_C 	C 	0.7975	0.6762	0.7498	-0.002
Mof_H 	H 	0.7012	0.6769	0.7572	0.03
Mof_C 	C 	0.0728	0.6726	0.7278	-0.024
Mof_H 	H 	0.1683	0.6701	0.7198	0.027
Mof_C 	C 	0.8186	0.6096	0.6837	-0.006
Mof_H 	H 	0.7368	0.5627	0.6452	0.025
Mof_C 	C 	0.975	0.5454	0.5972	-0.014
Mof_H 	H 	0.0811	0.5562	0.5984	0.03
Mof_H 	H 	0.9323	0.5776	0.5591	0.027
Mof_C 	C 	0.986	0.1072	0.8949	0.492
Mof_C 	C 	0.1288	0.1455	0.7251	-0.015
Mof_H 	H 	0.2172	0.1485	0.7075	0.022
Mof_C 	C 	0.5611	0.2024	0.4504	-0.015
Mof_H 	H 	0.5029	0.2607	0.4571	0.025
Mof_H 	H 	0.5105	0.1381	0.4649	0.019
Mof_C 	C 	0.6846	0.4438	0.4882	-0.524
Mof_H 	H 	0.6029	0.4551	0.5129	0.164
Mof_H 	H 	0.6465	0.4038	0.4343	0.172
Mof_H 	H 	0.749	0.5181	0.4952	0.168
Mof_C 	C 	0.7268	0.0546	0.5033	-0.538
Mof_H 	H 	0.6249	0.0349	0.4756	0.177
Mof_H 	H 	0.7315	0.0285	0.5477	0.178
Mof_H 	H 	0.7858	0.0174	0.4706	0.177
Mof_Ce	Ce	0.76587	0.98221	0.99609	2.506
Mof_O 	O 	0.5422	0.9706	0.91245	-0.692
Mof_O 	O 	0.3112	0.9797	0.88135	-0.609
Mof_O 	O 	0.998	0.1087	0.0758	-0.644
Mof_N 	N 	0.4319	0.8407	0.6329	-0.108
Mof_O 	O 	0.2368	0.1811	0.1164	-0.557
Mof_N 	N 	0.9949	0.847	0.3178	-0.11
Mof_O 	O 	0.8937	0.8732	0.0613	-0.6
Mof_O 	O 	0.1396	0.9293	0.0951	-0.572
Mof_N 	N 	0.0451	0.3896	0.3269	-0.108
Mof_C 	C 	0.0759	0.7676	0.4215	-0.151
Mof_C 	C 	0.1085	0.1766	0.1228	0.461
Mof_C 	C 	0.4338	0.9234	0.7831	-0.159
Mof_C 	C 	0.0946	0.5811	0.4267	-0.153
Mof_C 	C 	0.4299	0.9621	0.866	0.525
Mof_C 	C 	0.0191	0.6515	0.3977	0.201
Mof_C 	C 	0.5601	0.9036	0.7596	0.017
Mof_H 	H 	0.6482	0.9181	0.7957	0.022
Mof_C 	C 	0.2894	0.7466	0.4983	-0.149
Mof_C 	C 	0.3077	0.9039	0.7288	0.003
Mof_H 	H 	0.2205	0.9192	0.7433	0.035
Mof_C 	C 	0.5576	0.863	0.6843	-0.02
Mof_H 	H 	0.6445	0.8505	0.6682	0.031
Mof_C 	C 	0.2293	0.6273	0.4771	0.186
Mof_C 	C 	0.31	0.8619	0.6532	-0.008
Mof_H 	H 	0.2241	0.8483	0.6158	0.035
Mof_C 	C 	0.0838	0.258	0.1947	-0.145
Mof_C 	C 	0.0087	0.8737	0.1808	-0.129
Mof_C 	C 	0.2138	0.8168	0.4717	0.191
Mof_C 	C 	0.1211	0.8522	0.2955	0.001
Mof_H 	H 	0.205	0.847	0.3275	0.027
Mof_C 	C 	0.9889	0.845	0.3979	-0.025
Mof_H 	H 	0.8857	0.8191	0.4005	0.023
Mof_H 	H 	0.0275	0.9234	0.4335	0.032
Mof_C 	C 	0.8776	0.8665	0.2054	0.002
Mof_H 	H 	0.7919	0.87	0.1738	0.022
Mof_C 	C 	0.1306	0.8652	0.2269	-0.007
Mof_H 	H 	0.2207	0.8683	0.2109	0.028
Mof_C 	C 	0.8759	0.5986	0.3406	-0.548
Mof_H 	H 	0.8373	0.6586	0.3264	0.183
Mof_H 	H 	0.892	0.5448	0.2958	0.184
Mof_H 	H 	0.8055	0.558	0.3626	0.171
Mof_C 	C 	0.9451	0.2606	0.2053	0.029
Mof_H 	H 	0.8623	0.2165	0.1665	-0.015
Mof_C 	C 	0.2025	0.3238	0.2502	-0.002
Mof_H 	H 	0.2988	0.3231	0.2428	0.03
Mof_C 	C 	0.9272	0.3274	0.2722	-0.024
Mof_H 	H 	0.8317	0.3299	0.2802	0.027
Mof_C 	C 	0.1814	0.3904	0.3163	-0.006
Mof_H 	H 	0.2632	0.4373	0.3548	0.025
Mof_C 	C 	0.025	0.4546	0.4028	-0.014
Mof_H 	H 	0.9189	0.4438	0.4016	0.03
Mof_H 	H 	0.0677	0.4224	0.4409	0.027
Mof_C 	C 	0.014	0.8928	0.1051	0.492
Mof_C 	C 	0.8712	0.8545	0.2749	-0.015
Mof_H 	H 	0.7828	0.8515	0.2925	0.022
Mof_C 	C 	0.4389	0.7976	0.5496	-0.015
Mof_H 	H 	0.4971	0.7393	0.5429	0.025
Mof_H 	H 	0.4895	0.8619	0.5351	0.019
Mof_C 	C 	0.3154	0.5562	0.5118	-0.524
Mof_H 	H 	0.3971	0.5449	0.4871	0.164
Mof_H 	H 	0.3535	0.5962	0.5657	0.172
Mof_H 	H 	0.251	0.4819	0.5048	0.168
Mof_C 	C 	0.2732	0.9454	0.4967	-0.538
Mof_H 	H 	0.3751	0.9651	0.5244	0.177
Mof_H 	H 	0.2685	0.9715	0.4523	0.178
Mof_H 	H 	0.2142	0.9826	0.5294	0.177
_end
