data_functionalizedCrystal
_audit_creation_method	'EQeq! by Chris Wilmer'
_symmetry_space_group_name_H-M	'P1'
_symmetry_Int_Tables_number	1
_symmetry_cell_setting	triclinic
loop_
_symmetry_equiv_pos_as_xyz
  x,y,z
_cell_length_a	12.999
_cell_length_b	6.7152
_cell_length_c	16.547
_cell_angle_alpha	90
_cell_angle_beta	95.999
_cell_angle_gamma	90
loop_
_atom_site_label
_atom_site_type_symbol
_atom_site_fract_x
_atom_site_fract_y
_atom_site_fract_z
_atom_site_charge
Mof_N 	N 	0.9284	0.3969	0.8254	-0.248
Mof_N 	N 	0.8959	0.6318	0.913	-0.162
Mof_O 	O 	0.8616	0.184	0.6612	-0.411
Mof_C 	C 	0.7594	0.8965	0.641	-0.162
Mof_O 	O 	0.8869	0.9667	0.7488	-0.397
Mof_C 	C 	0.7467	0.7004	0.661	0.097
Mof_H 	H 	0.7873	0.647	0.7054	0.012
Mof_C 	C 	0.0009	0.9075	0.9749	-0.447
Mof_H 	H 	0.0242	0.9408	0.9227	0.15
Mof_H 	H 	0.0502	0.8144	0.0019	0.148
Mof_C 	C 	0.6973	0.9708	0.5756	0.088
Mof_H 	H 	0.7053	0.1031	0.5607	0.011
Mof_C 	C 	0.6116	0.6567	0.5529	0.099
Mof_C 	C 	0.8413	0.0262	0.6877	0.414
Mof_C 	C 	0.96	0.5652	0.8597	0.206
Mof_H 	H 	0.0198	0.6313	0.8487	-0.071
Mof_C 	C 	0.6763	0.5823	0.6176	-0.164
Mof_H 	H 	0.6716	0.4488	0.6317	0.098
Mof_C 	C 	0.6234	0.8557	0.5312	-0.162
Mof_H 	H 	0.5821	0.9101	0.4874	0.088
Mof_C 	C 	0.8185	0.5039	0.9115	0.022
Mof_H 	H 	0.7619	0.5106	0.9415	0.033
Mof_C 	C 	0.8995	0.812	0.9617	0.207
Mof_H 	H 	0.8768	0.78	0.0142	-0.014
Mof_H 	H 	0.8507	0.9069	0.9354	-0.016
Mof_C 	C 	0.838	0.3635	0.8584	0.003
Mof_H 	H 	0.7949	0.2551	0.8453	0.03
Mof_C 	C 	0.5201	0.597	0.4899	0.003
Mof_C 	C 	0.5368	0.483	0.5253	-0.035
Mof_N 	N 	0.0716	0.3969	0.6746	-0.236
Mof_N 	N 	0.1041	0.6318	0.587	-0.064
Mof_O 	O 	0.1384	0.184	0.8388	-0.445
Mof_C 	C 	0.2406	0.8965	0.859	-0.167
Mof_O 	O 	0.1131	0.9667	0.7512	-0.422
Mof_C 	C 	0.2533	0.7004	0.839	0.093
Mof_H 	H 	0.2127	0.647	0.7946	0.012
Mof_C 	C 	0.9991	0.9075	0.5251	0.31
Mof_H 	H 	0.9758	0.9408	0.5773	-0.046
Mof_H 	H 	0.9498	0.8144	0.4981	-0.044
Mof_C 	C 	0.3027	0.9708	0.9244	0.079
Mof_H 	H 	0.2947	0.1031	0.9393	0.008
Mof_C 	C 	0.3884	0.6567	0.9471	0.093
Mof_C 	C 	0.1587	0.0262	0.8123	0.415
Mof_C 	C 	0.04	0.5652	0.6403	-0
Mof_H 	H 	0.9802	0.6313	0.6513	0.065
Mof_C 	C 	0.3237	0.5823	0.8824	-0.163
Mof_H 	H 	0.3284	0.4488	0.8683	0.096
Mof_C 	C 	0.3766	0.8557	0.9688	-0.137
Mof_H 	H 	0.4179	0.9101	0.0126	0.07
Mof_C 	C 	0.1815	0.5039	0.5885	-0.028
Mof_H 	H 	0.2381	0.5106	0.5585	0.045
Mof_C 	C 	0.1005	0.812	0.5383	-0.322
Mof_H 	H 	0.1232	0.78	0.4858	0.135
Mof_H 	H 	0.1493	0.9069	0.5646	0.13
Mof_C 	C 	0.162	0.3635	0.6416	0.017
Mof_H 	H 	0.2051	0.2551	0.6547	0.016
Mof_C 	C 	0.4799	0.597	0.0101	-0.004
Mof_C 	C 	0.4632	0.483	0.9747	-0.027
Mof_N 	N 	0.0716	0.6031	0.1746	-0.237
Mof_N 	N 	0.1041	0.3682	0.087	-0.067
Mof_O 	O 	0.1384	0.816	0.3388	-0.447
Mof_C 	C 	0.2406	0.1035	0.359	-0.179
Mof_O 	O 	0.1131	0.0333	0.2512	-0.423
Mof_C 	C 	0.2533	0.2996	0.339	0.104
Mof_H 	H 	0.2127	0.353	0.2946	0.008
Mof_C 	C 	0.9991	0.0925	0.0251	0.249
Mof_H 	H 	0.9758	0.0592	0.0773	-0.028
Mof_H 	H 	0.9498	0.1856	0.9981	-0.023
Mof_C 	C 	0.3027	0.0292	0.4244	0.096
Mof_H 	H 	0.2947	0.8969	0.4393	0.001
Mof_C 	C 	0.3884	0.3433	0.4471	0.106
Mof_C 	C 	0.1587	0.9738	0.3123	0.419
Mof_C 	C 	0.04	0.4348	0.1403	0
Mof_H 	H 	0.9802	0.3687	0.1513	0.064
Mof_C 	C 	0.3237	0.4177	0.3824	-0.175
Mof_H 	H 	0.3284	0.5512	0.3683	0.1
Mof_C 	C 	0.3766	0.1443	0.4688	-0.173
Mof_H 	H 	0.4179	0.0899	0.5126	0.091
Mof_C 	C 	0.1815	0.4961	0.0885	-0.027
Mof_H 	H 	0.2381	0.4894	0.0585	0.042
Mof_C 	C 	0.1005	0.188	0.0383	-0.304
Mof_H 	H 	0.1232	0.22	0.9858	0.134
Mof_H 	H 	0.1493	0.0931	0.0646	0.124
Mof_C 	C 	0.162	0.6365	0.1416	0.016
Mof_H 	H 	0.2051	0.7449	0.1547	0.016
Mof_C 	C 	0.4799	0.403	0.5101	-0
Mof_C 	C 	0.4632	0.517	0.4747	-0.039
Mof_N 	N 	0.9284	0.6031	0.3254	-0.249
Mof_N 	N 	0.8959	0.3682	0.413	-0.167
Mof_O 	O 	0.8616	0.816	0.1612	-0.414
Mof_C 	C 	0.7594	0.1035	0.141	-0.171
Mof_O 	O 	0.8869	0.0333	0.2488	-0.396
Mof_C 	C 	0.7467	0.2996	0.161	0.105
Mof_H 	H 	0.7873	0.353	0.2054	0.009
Mof_C 	C 	0.0009	0.0925	0.4749	-0.516
Mof_H 	H 	0.0242	0.0592	0.4227	0.169
Mof_H 	H 	0.0502	0.1856	0.5019	0.176
Mof_C 	C 	0.6973	0.0292	0.0756	0.11
Mof_H 	H 	0.7053	0.8969	0.0607	-0.001
Mof_C 	C 	0.6116	0.3433	0.0529	0.108
Mof_C 	C 	0.8413	0.9738	0.1877	0.414
Mof_C 	C 	0.96	0.4348	0.3597	0.208
Mof_H 	H 	0.0198	0.3687	0.3487	-0.073
Mof_C 	C 	0.6763	0.4177	0.1176	-0.173
Mof_H 	H 	0.6716	0.5512	0.1317	0.101
Mof_C 	C 	0.6234	0.1443	0.0312	-0.188
Mof_H 	H 	0.5821	0.0899	0.9874	0.101
Mof_C 	C 	0.8185	0.4961	0.4115	0.023
Mof_H 	H 	0.7619	0.4894	0.4415	0.03
Mof_C 	C 	0.8995	0.188	0.4617	0.225
Mof_H 	H 	0.8768	0.22	0.5142	-0.012
Mof_H 	H 	0.8507	0.0931	0.4354	-0.022
Mof_C 	C 	0.838	0.6365	0.3584	0.002
Mof_H 	H 	0.7949	0.7449	0.3453	0.03
Mof_C 	C 	0.5201	0.403	0.9899	0.016
Mof_C 	C 	0.5368	0.517	0.0253	-0.057
Mof_Co	Co	3.95369e-33	0.21765	0.75	1.133
Mof_Co	Co	1.3179e-33	0.78235	0.25	1.132
_end
