data_functionalizedCrystal
_audit_creation_method	'EQeq! by Chris Wilmer'
_symmetry_space_group_name_H-M	'P1'
_symmetry_Int_Tables_number	1
_symmetry_cell_setting	triclinic
loop_
_symmetry_equiv_pos_as_xyz
  x,y,z
_cell_length_a	19.2223
_cell_length_b	19.2223
_cell_length_c	19.2223
_cell_angle_alpha	69.9784
_cell_angle_beta	71.624
_cell_angle_gamma	110.022
loop_
_atom_site_label
_atom_site_type_symbol
_atom_site_fract_x
_atom_site_fract_y
_atom_site_fract_z
_atom_site_charge
Mof_Zn	Zn	0.21455	0.53663	0.9364	1.224
Mof_Zn	Zn	0.52697	0.46337	0.32208	1.224
Mof_Zn	Zn	0.67792	0.15095	0.78545	1.224
Mof_Zn	Zn	0.0636	0.84905	0.47303	1.224
Mof_Zn	Zn	0.78545	0.46337	0.0636	1.224
Mof_Zn	Zn	0.47303	0.53663	0.67792	1.224
Mof_Zn	Zn	0.32208	0.84905	0.21455	1.224
Mof_Zn	Zn	0.9364	0.15095	0.52697	1.224
Mof_Zn	Zn	0.39182	0.6788	0.71302	1.225
Mof_Zn	Zn	0.60818	0.3212	0.28698	1.225
Mof_Zn	Zn	0.71302	0.10484	0.60818	1.224
Mof_Zn	Zn	0.28698	0.89516	0.39182	1.224
Mof_H 	H 	0.2119	0.7203	0.6404	0.047
Mof_H 	H 	0.973	0.6757	0.7207	0.052
Mof_H 	H 	0.0388	0.5702	0.8888	0.044
Mof_H 	H 	0.1761	0.3408	0.0463	0.071
Mof_H 	H 	0.1837	0.2163	0.0742	0.044
Mof_H 	H 	0.6393	0.2797	0.5084	0.046
Mof_H 	H 	0.6036	0.3243	0.7027	0.048
Mof_H 	H 	0.541	0.4298	0.5314	0.043
Mof_H 	H 	0.6129	0.6592	0.1647	0.072
Mof_H 	H 	0.7095	0.7837	0.0326	0.043
Mof_H 	H 	0.4916	0.8523	0.7881	0.048
Mof_H 	H 	0.2973	0.6937	0.027	0.055
Mof_H 	H 	0.4686	0.9276	0.9612	0.045
Mof_H 	H 	0.8353	0.2224	0.8239	0.072
Mof_H 	H 	0.9674	0.2579	0.8163	0.043
Mof_H 	H 	0.3596	0.1477	0.3607	0.046
Mof_H 	H 	0.2793	0.3063	0.3964	0.048
Mof_H 	H 	0.1112	0.0724	0.459	0.043
Mof_H 	H 	0.9537	0.7776	0.3871	0.071
Mof_H 	H 	0.9258	0.7421	0.2905	0.044
Mof_H 	H 	0.7881	0.2797	0.3596	0.047
Mof_H 	H 	0.027	0.3243	0.2793	0.052
Mof_H 	H 	0.9612	0.4298	0.1112	0.044
Mof_H 	H 	0.8239	0.6592	0.9537	0.071
Mof_H 	H 	0.8163	0.7837	0.9258	0.044
Mof_H 	H 	0.3607	0.7203	0.4916	0.046
Mof_H 	H 	0.3964	0.6757	0.2973	0.048
Mof_H 	H 	0.459	0.5702	0.4686	0.043
Mof_H 	H 	0.3871	0.3408	0.8353	0.072
Mof_H 	H 	0.2905	0.2163	0.9674	0.043
Mof_H 	H 	0.5084	0.1477	0.2119	0.048
Mof_H 	H 	0.7027	0.3063	0.973	0.055
Mof_H 	H 	0.5314	0.0724	0.0388	0.045
Mof_H 	H 	0.1647	0.7776	0.1761	0.072
Mof_H 	H 	0.0326	0.7421	0.1837	0.043
Mof_H 	H 	0.6404	0.8523	0.6393	0.046
Mof_H 	H 	0.7207	0.6937	0.6036	0.048
Mof_H 	H 	0.8888	0.9276	0.541	0.043
Mof_H 	H 	0.0463	0.2224	0.6129	0.071
Mof_H 	H 	0.0742	0.2579	0.7095	0.044
Mof_C 	C 	0.11729	0.7642	0.57791	0.379
Mof_C 	C 	0.09605	0.70792	0.66681	-0.116
Mof_C 	C 	0.15718	0.69504	0.68434	0.066
Mof_C 	C 	0.01393	0.6681	0.73277	0.047
Mof_C 	C 	0.9024	0.57498	0.88746	0.344
Mof_C 	C 	0.99153	0.6167	0.81717	-0.103
Mof_C 	C 	0.19893	0.6279	0.79057	0.422
Mof_C 	C 	0.13571	0.64381	0.7685	-0.132
Mof_C 	C 	0.05299	0.6049	0.83331	0.058
Mof_C 	C 	0.2718	0.4114	0.921	0.063
Mof_C 	C 	0.2153	0.339	0.0047	-0.103
Mof_C 	C 	0.2213	0.2658	0.0213	-0.016
Mof_C 	C 	0.65789	0.2358	0.64691	0.381
Mof_C 	C 	0.62527	0.29208	0.61187	-0.12
Mof_C 	C 	0.62062	0.30496	0.53786	0.069
Mof_C 	C 	0.59913	0.3319	0.65417	0.055
Mof_C 	C 	0.53756	0.42502	0.67258	0.346
Mof_C 	C 	0.56613	0.3833	0.62517	-0.11
Mof_C 	C 	0.58153	0.3721	0.42897	0.423
Mof_C 	C 	0.58769	0.35619	0.5081	-0.135
Mof_C 	C 	0.56179	0.3951	0.55191	0.065
Mof_C 	C 	0.6676	0.5886	0.1396	0.064
Mof_C 	C 	0.6563	0.661	0.1237	-0.105
Mof_C 	C 	0.7129	0.7342	0.0445	-0.014
Mof_C 	C 	0.35309	0.6952	0.88271	0.378
Mof_C 	C 	0.38813	0.76286	0.90395	-0.113
Mof_C 	C 	0.46214	0.84152	0.84282	0.063
Mof_C 	C 	0.34583	0.7467	0.98607	0.041
Mof_C 	C 	0.32742	0.78986	0.0976	0.343
Mof_C 	C 	0.37483	0.8087	0.00847	-0.098
Mof_C 	C 	0.57103	0.9895	0.80107	0.416
Mof_C 	C 	0.4919	0.90421	0.86429	-0.128
Mof_C 	C 	0.44809	0.8863	0.94701	0.054
Mof_C 	C 	0.8604	0.1928	0.7282	0.064
Mof_C 	C 	0.8763	0.22	0.7847	-0.105
Mof_C 	C 	0.9555	0.2426	0.7787	-0.013
Mof_C 	C 	0.42209	0.3048	0.34211	0.381
Mof_C 	C 	0.33319	0.23714	0.37473	-0.12
Mof_C 	C 	0.31566	0.15848	0.37938	0.069
Mof_C 	C 	0.26723	0.2533	0.40087	0.055
Mof_C 	C 	0.11254	0.21014	0.46244	0.346
Mof_C 	C 	0.18283	0.1913	0.43387	-0.11
Mof_C 	C 	0.20943	0.0105	0.41847	0.422
Mof_C 	C 	0.2315	0.09579	0.41231	-0.135
Mof_C 	C 	0.16669	0.1137	0.43821	0.064
Mof_C 	C 	0.079	0.8072	0.3324	0.064
Mof_C 	C 	0.9953	0.78	0.3437	-0.105
Mof_C 	C 	0.9787	0.7574	0.2871	-0.017
Mof_C 	C 	0.88271	0.2358	0.42209	0.379
Mof_C 	C 	0.90395	0.29208	0.33319	-0.116
Mof_C 	C 	0.84282	0.30496	0.31566	0.066
Mof_C 	C 	0.98607	0.3319	0.26723	0.047
Mof_C 	C 	0.0976	0.42502	0.11254	0.344
Mof_C 	C 	0.00847	0.3833	0.18283	-0.103
Mof_C 	C 	0.80107	0.3721	0.20943	0.422
Mof_C 	C 	0.86429	0.35619	0.2315	-0.132
Mof_C 	C 	0.94701	0.3951	0.16669	0.058
Mof_C 	C 	0.7282	0.5886	0.079	0.063
Mof_C 	C 	0.7847	0.661	0.9953	-0.103
Mof_C 	C 	0.7787	0.7342	0.9787	-0.016
Mof_C 	C 	0.34211	0.7642	0.35309	0.381
Mof_C 	C 	0.37473	0.70792	0.38813	-0.12
Mof_C 	C 	0.37938	0.69504	0.46214	0.069
Mof_C 	C 	0.40087	0.6681	0.34583	0.055
Mof_C 	C 	0.46244	0.57498	0.32742	0.346
Mof_C 	C 	0.43387	0.6167	0.37483	-0.11
Mof_C 	C 	0.41847	0.6279	0.57103	0.423
Mof_C 	C 	0.41231	0.64381	0.4919	-0.135
Mof_C 	C 	0.43821	0.6049	0.44809	0.065
Mof_C 	C 	0.3324	0.4114	0.8604	0.064
Mof_C 	C 	0.3437	0.339	0.8763	-0.105
Mof_C 	C 	0.2871	0.2658	0.9555	-0.014
Mof_C 	C 	0.64691	0.3048	0.11729	0.378
Mof_C 	C 	0.61187	0.23714	0.09605	-0.113
Mof_C 	C 	0.53786	0.15848	0.15718	0.063
Mof_C 	C 	0.65417	0.2533	0.01393	0.041
Mof_C 	C 	0.67258	0.21014	0.9024	0.343
Mof_C 	C 	0.62517	0.1913	0.99153	-0.098
Mof_C 	C 	0.42897	0.0105	0.19893	0.416
Mof_C 	C 	0.5081	0.09579	0.13571	-0.128
Mof_C 	C 	0.55191	0.1137	0.05299	0.054
Mof_C 	C 	0.1396	0.8072	0.2718	0.064
Mof_C 	C 	0.1237	0.78	0.2153	-0.105
Mof_C 	C 	0.0445	0.7574	0.2213	-0.013
Mof_C 	C 	0.57791	0.6952	0.65789	0.381
Mof_C 	C 	0.66681	0.76286	0.62527	-0.12
Mof_C 	C 	0.68434	0.84152	0.62062	0.069
Mof_C 	C 	0.73277	0.7467	0.59913	0.055
Mof_C 	C 	0.88746	0.78986	0.53756	0.346
Mof_C 	C 	0.81717	0.8087	0.56613	-0.11
Mof_C 	C 	0.79057	0.9895	0.58153	0.422
Mof_C 	C 	0.7685	0.90421	0.58769	-0.135
Mof_C 	C 	0.83331	0.8863	0.56179	0.064
Mof_C 	C 	0.921	0.1928	0.6676	0.064
Mof_C 	C 	0.0047	0.22	0.6563	-0.105
Mof_C 	C 	0.0213	0.2426	0.7129	-0.017
Mof_N 	N 	0.27873	0.4903	0.88599	-0.236
Mof_N 	N 	0.62371	0.5097	0.21157	-0.236
Mof_N 	N 	0.78843	0.16472	0.72127	-0.235
Mof_N 	N 	0.11401	0.83528	0.37629	-0.236
Mof_N 	N 	0.72127	0.5097	0.11401	-0.236
Mof_N 	N 	0.37629	0.4903	0.78843	-0.236
Mof_N 	N 	0.21157	0.83528	0.27873	-0.235
Mof_N 	N 	0.88599	0.16472	0.62371	-0.236
Mof_N 	N 	0.34341	0.53718	0.80623	-0.159
Mof_N 	N 	0.65659	0.46282	0.19377	-0.159
Mof_N 	N 	0.80623	0.14964	0.65659	-0.159
Mof_N 	N 	0.19377	0.85036	0.34341	-0.159
Mof_O 	O 	0.84634	0.57883	0.87113	-0.28
Mof_O 	O 	0.19079	0.80037	0.51878	-0.443
Mof_O 	O 	0.27191	0.66149	0.73396	-0.451
Mof_O 	O 	0.0513	0.7578	0.5707	-0.461
Mof_O 	O 	0.1661	0.5663	0.8648	-0.489
Mof_O 	O 	0.89382	0.54047	0.96165	-0.448
Mof_O 	O 	0.55004	0.42117	0.73249	-0.281
Mof_O 	O 	0.68085	0.19963	0.60958	-0.443
Mof_O 	O 	0.60455	0.33851	0.38958	-0.451
Mof_O 	O 	0.6715	0.2422	0.7065	-0.461
Mof_O 	O 	0.5689	0.4337	0.4002	-0.489
Mof_O 	O 	0.49788	0.45953	0.64665	-0.45
Mof_O 	O 	0.26751	0.71747	0.15366	-0.279
Mof_O 	O 	0.39042	0.70957	0.80921	-0.443
Mof_O 	O 	0.61042	0.00587	0.72809	-0.448
Mof_O 	O 	0.2935	0.622	0.9487	-0.461
Mof_O 	O 	0.5998	0.0309	0.8339	-0.486
Mof_O 	O 	0.35335	0.85547	0.10618	-0.448
Mof_O 	O 	0.12887	0.28253	0.44996	-0.281
Mof_O 	O 	0.48122	0.29043	0.31915	-0.443
Mof_O 	O 	0.26604	0.99413	0.39545	-0.451
Mof_O 	O 	0.4293	0.378	0.3285	-0.461
Mof_O 	O 	0.1352	0.9691	0.4311	-0.488
Mof_O 	O 	0.03835	0.14453	0.50212	-0.45
Mof_O 	O 	0.15366	0.42117	0.12887	-0.28
Mof_O 	O 	0.80921	0.19963	0.48122	-0.443
Mof_O 	O 	0.72809	0.33851	0.26604	-0.451
Mof_O 	O 	0.9487	0.2422	0.4293	-0.461
Mof_O 	O 	0.8339	0.4337	0.1352	-0.489
Mof_O 	O 	0.10618	0.45953	0.03835	-0.448
Mof_O 	O 	0.44996	0.57883	0.26751	-0.281
Mof_O 	O 	0.31915	0.80037	0.39042	-0.443
Mof_O 	O 	0.39545	0.66149	0.61042	-0.451
Mof_O 	O 	0.3285	0.7578	0.2935	-0.461
Mof_O 	O 	0.4311	0.5663	0.5998	-0.489
Mof_O 	O 	0.50212	0.54047	0.35335	-0.45
Mof_O 	O 	0.73249	0.28253	0.84634	-0.279
Mof_O 	O 	0.60958	0.29043	0.19079	-0.443
Mof_O 	O 	0.38958	0.99413	0.27191	-0.448
Mof_O 	O 	0.7065	0.378	0.0513	-0.461
Mof_O 	O 	0.4002	0.9691	0.1661	-0.486
Mof_O 	O 	0.64665	0.14453	0.89382	-0.448
Mof_O 	O 	0.87113	0.71747	0.55004	-0.281
Mof_O 	O 	0.51878	0.70957	0.68085	-0.443
Mof_O 	O 	0.73396	0.00587	0.60455	-0.451
Mof_O 	O 	0.5707	0.622	0.6715	-0.461
Mof_O 	O 	0.8648	0.0309	0.5689	-0.488
Mof_O 	O 	0.96165	0.85547	0.49788	-0.45
Mof_O 	O 	0.4436	0.8137	0.6299	-0.234
Mof_O 	O 	0.5564	0.1863	0.3701	-0.234
Mof_O 	O 	0.6299	0.0735	0.5564	-0.233
Mof_O 	O 	0.3701	0.9265	0.4436	-0.233
_end
