data_functionalizedCrystal
_audit_creation_method	'EQeq! by Chris Wilmer'
_symmetry_space_group_name_H-M	'P1'
_symmetry_Int_Tables_number	1
_symmetry_cell_setting	triclinic
loop_
_symmetry_equiv_pos_as_xyz
  x,y,z
_cell_length_a	18.344
_cell_length_b	13.3034
_cell_length_c	7.4497
_cell_angle_alpha	90
_cell_angle_beta	90
_cell_angle_gamma	90
loop_
_atom_site_label
_atom_site_type_symbol
_atom_site_fract_x
_atom_site_fract_y
_atom_site_fract_z
_atom_site_charge
Mof_Zn	Zn	0.0565	0.8783	0.0608	1.214
Mof_Zn	Zn	0.9661	0.1284	0.4911	1.214
Mof_P 	P 	0.0854	0.0481	0.7516	0.564
Mof_O 	O 	0.0847	0.9957	0.9331	-0.505
Mof_O 	O 	0.0092	0.1001	0.7294	-0.654
Mof_O 	O 	0.1461	0.1249	0.7421	-0.447
Mof_O 	O 	0.0958	0.9768	0.5929	-0.484
Mof_O 	O 	0.0364	0.3449	0.3023	-0.501
Mof_O 	O 	0.3567	0.1546	0.7035	-0.476
Mof_Zn	Zn	0.4435	0.1217	0.5608	1.218
Mof_Zn	Zn	0.5339	0.8716	0.9911	1.215
Mof_P 	P 	0.4146	0.9519	0.2516	0.554
Mof_O 	O 	0.4153	0.0043	0.4331	-0.506
Mof_O 	O 	0.4908	0.8999	0.2294	-0.659
Mof_O 	O 	0.3539	0.8751	0.2421	-0.449
Mof_O 	O 	0.4042	0.0232	0.0929	-0.477
Mof_O 	O 	0.4636	0.6551	0.8023	-0.5
Mof_O 	O 	0.1433	0.8454	0.2035	-0.48
Mof_Zn	Zn	0.9435	0.3783	0.9392	1.215
Mof_Zn	Zn	0.0339	0.6284	0.5089	1.213
Mof_P 	P 	0.9146	0.5481	0.2484	0.559
Mof_O 	O 	0.9153	0.4957	0.0669	-0.503
Mof_O 	O 	0.9908	0.6001	0.2706	-0.655
Mof_O 	O 	0.8539	0.6249	0.2579	-0.447
Mof_O 	O 	0.9042	0.4768	0.4071	-0.479
Mof_O 	O 	0.9636	0.8449	0.6977	-0.499
Mof_O 	O 	0.6433	0.6546	0.2965	-0.476
Mof_Zn	Zn	0.5565	0.6217	0.4392	1.218
Mof_Zn	Zn	0.4661	0.3716	0.0089	1.214
Mof_P 	P 	0.5854	0.4519	0.7484	0.559
Mof_O 	O 	0.5847	0.5043	0.5669	-0.507
Mof_O 	O 	0.5092	0.3999	0.7706	-0.658
Mof_O 	O 	0.6461	0.3751	0.7579	-0.449
Mof_O 	O 	0.5958	0.5232	0.9071	-0.48
Mof_O 	O 	0.5364	0.1551	0.1977	-0.5
Mof_O 	O 	0.8567	0.3454	0.7965	-0.479
Mof_Zn	Zn	0.9435	0.1217	0.9392	1.213
Mof_Zn	Zn	0.0339	0.8716	0.5089	1.213
Mof_P 	P 	0.9146	0.9519	0.2484	0.563
Mof_O 	O 	0.9153	0.0043	0.0669	-0.506
Mof_O 	O 	0.9908	0.8999	0.2706	-0.654
Mof_O 	O 	0.8539	0.8751	0.2579	-0.447
Mof_O 	O 	0.9042	0.0232	0.4071	-0.484
Mof_O 	O 	0.9636	0.6551	0.6977	-0.501
Mof_O 	O 	0.6433	0.8454	0.2965	-0.476
Mof_Zn	Zn	0.5565	0.8783	0.4392	1.218
Mof_Zn	Zn	0.4661	0.1284	0.0089	1.215
Mof_P 	P 	0.5854	0.0481	0.7484	0.554
Mof_O 	O 	0.5847	0.9957	0.5669	-0.506
Mof_O 	O 	0.5092	0.1001	0.7706	-0.659
Mof_O 	O 	0.6461	0.1249	0.7579	-0.449
Mof_O 	O 	0.5958	0.9768	0.9071	-0.477
Mof_O 	O 	0.5364	0.3449	0.1977	-0.5
Mof_O 	O 	0.8567	0.1546	0.7965	-0.48
Mof_Zn	Zn	0.0565	0.6217	0.0608	1.215
Mof_Zn	Zn	0.9661	0.3716	0.4911	1.213
Mof_P 	P 	0.0854	0.4519	0.7516	0.559
Mof_O 	O 	0.0847	0.5043	0.9331	-0.503
Mof_O 	O 	0.0092	0.3999	0.7294	-0.655
Mof_O 	O 	0.1461	0.3751	0.7421	-0.447
Mof_O 	O 	0.0958	0.5232	0.5929	-0.479
Mof_O 	O 	0.0364	0.1551	0.3023	-0.499
Mof_O 	O 	0.3567	0.3454	0.7035	-0.476
Mof_Zn	Zn	0.4435	0.3783	0.5608	1.218
Mof_Zn	Zn	0.5339	0.6284	0.9911	1.214
Mof_P 	P 	0.4146	0.5481	0.2516	0.559
Mof_O 	O 	0.4153	0.4957	0.4331	-0.507
Mof_O 	O 	0.4908	0.6001	0.2294	-0.658
Mof_O 	O 	0.3539	0.6249	0.2421	-0.449
Mof_O 	O 	0.4042	0.4768	0.0929	-0.48
Mof_O 	O 	0.4636	0.8449	0.8023	-0.5
Mof_O 	O 	0.1433	0.6546	0.2035	-0.479
Mof_Zn	Zn	0.1669	0.25	0.8599	1.24
Mof_P 	P 	0.0426	0.25	0.188	0.54
Mof_P 	P 	0.3454	0.25	0.8152	0.535
Mof_O 	O 	0.9768	0.25	0.0521	-0.652
Mof_O 	O 	0.1139	0.25	0.0883	-0.447
Mof_O 	O 	0.4066	0.25	0.9653	-0.636
Mof_O 	O 	0.2712	0.25	0.904	-0.419
Mof_Zn	Zn	0.3331	0.75	0.3599	1.239
Mof_P 	P 	0.4574	0.75	0.688	0.542
Mof_P 	P 	0.1546	0.75	0.3152	0.534
Mof_O 	O 	0.5232	0.75	0.5521	-0.658
Mof_O 	O 	0.3861	0.75	0.5883	-0.445
Mof_O 	O 	0.0934	0.75	0.4653	-0.637
Mof_O 	O 	0.2288	0.75	0.404	-0.421
Mof_Zn	Zn	0.8331	0.75	0.1401	1.24
Mof_P 	P 	0.9574	0.75	0.812	0.54
Mof_P 	P 	0.6546	0.75	0.1848	0.535
Mof_O 	O 	0.0232	0.75	0.9479	-0.652
Mof_O 	O 	0.8861	0.75	0.9117	-0.447
Mof_O 	O 	0.5934	0.75	0.0347	-0.636
Mof_O 	O 	0.7288	0.75	0.096	-0.419
Mof_Zn	Zn	0.6669	0.25	0.6401	1.239
Mof_P 	P 	0.5426	0.25	0.312	0.542
Mof_P 	P 	0.8454	0.25	0.6848	0.534
Mof_O 	O 	0.4768	0.25	0.4479	-0.658
Mof_O 	O 	0.6139	0.25	0.4117	-0.445
Mof_O 	O 	0.9066	0.25	0.5347	-0.637
Mof_O 	O 	0.7712	0.25	0.596	-0.421
_end
