data_functionalizedCrystal
_audit_creation_method	'EQeq! by Chris Wilmer'
_symmetry_space_group_name_H-M	'P1'
_symmetry_Int_Tables_number	1
_symmetry_cell_setting	triclinic
loop_
_symmetry_equiv_pos_as_xyz
  x,y,z
_cell_length_a	23.4617
_cell_length_b	8.117
_cell_length_c	16.8976
_cell_angle_alpha	90
_cell_angle_beta	112.873
_cell_angle_gamma	90
loop_
_atom_site_label
_atom_site_type_symbol
_atom_site_fract_x
_atom_site_fract_y
_atom_site_fract_z
_atom_site_charge
Mof_C 	C 	0.15688	0.4146	0.59499	0.376
Mof_C 	C 	0.12966	0.3338	0.65494	0.319
Mof_Ga	Ga	0.16119	0.65777	0.71148	4.089
Mof_Ga	Ga	0.10343	0.11589	0.51524	3.995
Mof_H 	H 	0.0362	0.943	0.638	-0.121
Mof_H 	H 	0.264	0.852	0.646	-0.11
Mof_H 	H 	0.207	0.16	0.429	-0.094
Mof_H 	H 	0.1653	0.993	0.289	0.707
Mof_O 	O 	0.13498	0.2757	0.30273	-0.943
Mof_O 	O 	0.1049	0.0977	0.40196	-0.889
Mof_O 	O 	0.25834	0.1053	0.7048	-1.003
Mof_O 	O 	0.18264	0.009	0.5616	-0.956
Mof_O 	O 	0.97251	0.7616	0.53099	-0.92
Mof_O 	O 	0.07846	0.6854	0.62644	-0.943
Mof_O 	O 	0.10801	0.1928	0.63627	-0.736
Mof_O 	O 	0.18869	0.8735	0.69915	-1.064
Mof_O 	O 	0.06183	0.9147	0.51774	-0.991
Mof_O 	O 	0.15153	0.334	0.52977	-0.758
Mof_O 	O 	0.18142	0.5527	0.61679	-0.817
Mof_O 	O 	0.13175	0.4183	0.7186	-0.723
Mof_O 	O 	0.16113	0.9727	0.32202	-0.984
Mof_P 	P 	0.03783	0.82632	0.57785	0.838
Mof_P 	P 	0.22415	0.95907	0.65173	0.884
Mof_P 	P 	0.15274	0.13455	0.36571	0.844
Mof_C 	C 	0.65688	0.9146	0.59499	0.377
Mof_C 	C 	0.62966	0.8338	0.65494	0.318
Mof_Ga	Ga	0.66119	0.15777	0.71148	4.086
Mof_Ga	Ga	0.60343	0.61589	0.51524	3.996
Mof_H 	H 	0.5362	0.443	0.638	-0.122
Mof_H 	H 	0.764	0.352	0.646	-0.11
Mof_H 	H 	0.707	0.66	0.429	-0.094
Mof_H 	H 	0.6653	0.493	0.289	0.707
Mof_O 	O 	0.63498	0.7757	0.30273	-0.943
Mof_O 	O 	0.6049	0.5977	0.40196	-0.889
Mof_O 	O 	0.75834	0.6053	0.7048	-1.002
Mof_O 	O 	0.68264	0.509	0.5616	-0.955
Mof_O 	O 	0.47251	0.2616	0.53099	-0.919
Mof_O 	O 	0.57846	0.1854	0.62644	-0.943
Mof_O 	O 	0.60801	0.6928	0.63627	-0.735
Mof_O 	O 	0.68869	0.3735	0.69915	-1.064
Mof_O 	O 	0.56183	0.4147	0.51774	-0.991
Mof_O 	O 	0.65153	0.834	0.52977	-0.758
Mof_O 	O 	0.68142	0.0527	0.61679	-0.817
Mof_O 	O 	0.63175	0.9183	0.7186	-0.722
Mof_O 	O 	0.66113	0.4727	0.32202	-0.983
Mof_P 	P 	0.53783	0.32632	0.57785	0.838
Mof_P 	P 	0.72415	0.45907	0.65173	0.881
Mof_P 	P 	0.65274	0.63455	0.36571	0.843
Mof_C 	C 	0.84312	0.4146	0.90501	0.375
Mof_C 	C 	0.87034	0.3338	0.84506	0.318
Mof_Ga	Ga	0.83881	0.65777	0.78852	4.087
Mof_Ga	Ga	0.89657	0.11589	0.98476	3.962
Mof_H 	H 	0.9638	0.943	0.862	-0.121
Mof_H 	H 	0.736	0.852	0.854	-0.11
Mof_H 	H 	0.793	0.16	0.071	-0.092
Mof_H 	H 	0.8347	0.993	0.211	0.707
Mof_O 	O 	0.86502	0.2757	0.19727	-0.942
Mof_O 	O 	0.8951	0.0977	0.09804	-0.879
Mof_O 	O 	0.74166	0.1053	0.7952	-1.004
Mof_O 	O 	0.81736	0.009	0.9384	-0.954
Mof_O 	O 	0.02749	0.7616	0.96901	-0.905
Mof_O 	O 	0.92154	0.6854	0.87356	-0.943
Mof_O 	O 	0.89199	0.1928	0.86373	-0.733
Mof_O 	O 	0.81131	0.8735	0.80085	-1.064
Mof_O 	O 	0.93817	0.9147	0.98226	-0.984
Mof_O 	O 	0.84847	0.334	0.97023	-0.755
Mof_O 	O 	0.81858	0.5527	0.88321	-0.817
Mof_O 	O 	0.86825	0.4183	0.7814	-0.724
Mof_O 	O 	0.83887	0.9727	0.17798	-0.985
Mof_P 	P 	0.96217	0.82632	0.92215	0.83
Mof_P 	P 	0.77585	0.95907	0.84827	0.885
Mof_P 	P 	0.84726	0.13455	0.13429	0.844
Mof_C 	C 	0.34312	0.9146	0.90501	0.381
Mof_C 	C 	0.37034	0.8338	0.84506	0.318
Mof_Ga	Ga	0.33881	0.15777	0.78852	4.086
Mof_Ga	Ga	0.39657	0.61589	0.98476	4.009
Mof_H 	H 	0.4638	0.443	0.862	-0.122
Mof_H 	H 	0.236	0.352	0.854	-0.109
Mof_H 	H 	0.293	0.66	0.071	-0.095
Mof_H 	H 	0.3347	0.493	0.211	0.707
Mof_O 	O 	0.36502	0.7757	0.19727	-0.943
Mof_O 	O 	0.3951	0.5977	0.09804	-0.892
Mof_O 	O 	0.24166	0.6053	0.7952	-1.002
Mof_O 	O 	0.31736	0.509	0.9384	-0.956
Mof_O 	O 	0.52749	0.2616	0.96901	-0.922
Mof_O 	O 	0.42154	0.1854	0.87356	-0.944
Mof_O 	O 	0.39199	0.6928	0.86373	-0.737
Mof_O 	O 	0.31131	0.3735	0.80085	-1.064
Mof_O 	O 	0.43817	0.4147	0.98226	-0.993
Mof_O 	O 	0.34847	0.834	0.97023	-0.757
Mof_O 	O 	0.31858	0.0527	0.88321	-0.82
Mof_O 	O 	0.36825	0.9183	0.7814	-0.721
Mof_O 	O 	0.33887	0.4727	0.17798	-0.983
Mof_P 	P 	0.46217	0.32632	0.92215	0.839
Mof_P 	P 	0.27585	0.45907	0.84827	0.881
Mof_P 	P 	0.34726	0.63455	0.13429	0.844
Mof_C 	C 	0.84312	0.5854	0.40501	0.376
Mof_C 	C 	0.87034	0.6662	0.34506	0.319
Mof_Ga	Ga	0.83881	0.34223	0.28852	4.089
Mof_Ga	Ga	0.89657	0.88411	0.48476	3.995
Mof_H 	H 	0.9638	0.057	0.362	-0.121
Mof_H 	H 	0.736	0.148	0.354	-0.11
Mof_H 	H 	0.793	0.84	0.571	-0.094
Mof_H 	H 	0.8347	0.007	0.711	0.707
Mof_O 	O 	0.86502	0.7243	0.69727	-0.943
Mof_O 	O 	0.8951	0.9023	0.59804	-0.889
Mof_O 	O 	0.74166	0.8947	0.2952	-1.003
Mof_O 	O 	0.81736	0.991	0.4384	-0.956
Mof_O 	O 	0.02749	0.2384	0.46901	-0.92
Mof_O 	O 	0.92154	0.3146	0.37356	-0.943
Mof_O 	O 	0.89199	0.8072	0.36373	-0.736
Mof_O 	O 	0.81131	0.1265	0.30085	-1.064
Mof_O 	O 	0.93817	0.0853	0.48226	-0.991
Mof_O 	O 	0.84847	0.666	0.47023	-0.758
Mof_O 	O 	0.81858	0.4473	0.38321	-0.817
Mof_O 	O 	0.86825	0.5817	0.2814	-0.723
Mof_O 	O 	0.83887	0.0273	0.67798	-0.984
Mof_P 	P 	0.96217	0.17368	0.42215	0.838
Mof_P 	P 	0.77585	0.04093	0.34827	0.884
Mof_P 	P 	0.84726	0.86545	0.63429	0.844
Mof_C 	C 	0.34312	0.0854	0.40501	0.377
Mof_C 	C 	0.37034	0.1662	0.34506	0.318
Mof_Ga	Ga	0.33881	0.84223	0.28852	4.086
Mof_Ga	Ga	0.39657	0.38411	0.48476	3.996
Mof_H 	H 	0.4638	0.557	0.362	-0.122
Mof_H 	H 	0.236	0.648	0.354	-0.11
Mof_H 	H 	0.293	0.34	0.571	-0.094
Mof_H 	H 	0.3347	0.507	0.711	0.707
Mof_O 	O 	0.36502	0.2243	0.69727	-0.943
Mof_O 	O 	0.3951	0.4023	0.59804	-0.889
Mof_O 	O 	0.24166	0.3947	0.2952	-1.002
Mof_O 	O 	0.31736	0.491	0.4384	-0.955
Mof_O 	O 	0.52749	0.7384	0.46901	-0.919
Mof_O 	O 	0.42154	0.8146	0.37356	-0.943
Mof_O 	O 	0.39199	0.3072	0.36373	-0.735
Mof_O 	O 	0.31131	0.6265	0.30085	-1.064
Mof_O 	O 	0.43817	0.5853	0.48226	-0.991
Mof_O 	O 	0.34847	0.166	0.47023	-0.758
Mof_O 	O 	0.31858	0.9473	0.38321	-0.817
Mof_O 	O 	0.36825	0.0817	0.2814	-0.722
Mof_O 	O 	0.33887	0.5273	0.67798	-0.983
Mof_P 	P 	0.46217	0.67368	0.42215	0.838
Mof_P 	P 	0.27585	0.54093	0.34827	0.881
Mof_P 	P 	0.34726	0.36545	0.63429	0.843
Mof_C 	C 	0.15688	0.5854	0.09499	0.375
Mof_C 	C 	0.12966	0.6662	0.15494	0.318
Mof_Ga	Ga	0.16119	0.34223	0.21148	4.087
Mof_Ga	Ga	0.10343	0.88411	0.01524	3.962
Mof_H 	H 	0.0362	0.057	0.138	-0.121
Mof_H 	H 	0.264	0.148	0.146	-0.11
Mof_H 	H 	0.207	0.84	0.929	-0.092
Mof_H 	H 	0.1653	0.007	0.789	0.707
Mof_O 	O 	0.13498	0.7243	0.80273	-0.942
Mof_O 	O 	0.1049	0.9023	0.90196	-0.879
Mof_O 	O 	0.25834	0.8947	0.2048	-1.004
Mof_O 	O 	0.18264	0.991	0.0616	-0.954
Mof_O 	O 	0.97251	0.2384	0.03099	-0.905
Mof_O 	O 	0.07846	0.3146	0.12644	-0.943
Mof_O 	O 	0.10801	0.8072	0.13627	-0.733
Mof_O 	O 	0.18869	0.1265	0.19915	-1.064
Mof_O 	O 	0.06183	0.0853	0.01774	-0.984
Mof_O 	O 	0.15153	0.666	0.02977	-0.755
Mof_O 	O 	0.18142	0.4473	0.11679	-0.817
Mof_O 	O 	0.13175	0.5817	0.2186	-0.724
Mof_O 	O 	0.16113	0.0273	0.82202	-0.985
Mof_P 	P 	0.03783	0.17368	0.07785	0.83
Mof_P 	P 	0.22415	0.04093	0.15173	0.885
Mof_P 	P 	0.15274	0.86545	0.86571	0.844
Mof_C 	C 	0.65688	0.0854	0.09499	0.381
Mof_C 	C 	0.62966	0.1662	0.15494	0.318
Mof_Ga	Ga	0.66119	0.84223	0.21148	4.086
Mof_Ga	Ga	0.60343	0.38411	0.01524	4.009
Mof_H 	H 	0.5362	0.557	0.138	-0.122
Mof_H 	H 	0.764	0.648	0.146	-0.109
Mof_H 	H 	0.707	0.34	0.929	-0.095
Mof_H 	H 	0.6653	0.507	0.789	0.707
Mof_O 	O 	0.63498	0.2243	0.80273	-0.943
Mof_O 	O 	0.6049	0.4023	0.90196	-0.892
Mof_O 	O 	0.75834	0.3947	0.2048	-1.002
Mof_O 	O 	0.68264	0.491	0.0616	-0.956
Mof_O 	O 	0.47251	0.7384	0.03099	-0.922
Mof_O 	O 	0.57846	0.8146	0.12644	-0.944
Mof_O 	O 	0.60801	0.3072	0.13627	-0.737
Mof_O 	O 	0.68869	0.6265	0.19915	-1.064
Mof_O 	O 	0.56183	0.5853	0.01774	-0.993
Mof_O 	O 	0.65153	0.166	0.02977	-0.757
Mof_O 	O 	0.68142	0.9473	0.11679	-0.82
Mof_O 	O 	0.63175	0.0817	0.2186	-0.721
Mof_O 	O 	0.66113	0.5273	0.82202	-0.983
Mof_P 	P 	0.53783	0.67368	0.07785	0.839
Mof_P 	P 	0.72415	0.54093	0.15173	0.881
Mof_P 	P 	0.65274	0.36545	0.86571	0.844
_end
