data_functionalizedCrystal
_audit_creation_method	'EQeq! by Chris Wilmer'
_symmetry_space_group_name_H-M	'P1'
_symmetry_Int_Tables_number	1
_symmetry_cell_setting	triclinic
loop_
_symmetry_equiv_pos_as_xyz
  x,y,z
_cell_length_a	11.561
_cell_length_b	20.816
_cell_length_c	23.676
_cell_angle_alpha	90
_cell_angle_beta	90
_cell_angle_gamma	90
loop_
_atom_site_label
_atom_site_type_symbol
_atom_site_fract_x
_atom_site_fract_y
_atom_site_fract_z
_atom_site_charge
Mof_Eu	Eu	0.58077	0.9642	0.2684	1.954
Mof_Eu	Eu	0.91725	0.97328	0.26576	1.918
Mof_Eu	Eu	0.75634	0.87699	0.15193	1.779
Mof_Eu	Eu	0.73532	0.06703	0.15705	1.819
Mof_O 	O 	0.7409	0.033	0.2563	-0.817
Mof_H 	H 	0.7382	0.0697	0.2821	0.189
Mof_N 	N 	0.1009	0.1812	0.294	-0.316
Mof_H 	H 	0.1308	0.2163	0.3098	0.111
Mof_H 	H 	0.147	0.1679	0.2662	0.098
Mof_H 	H 	0.0947	0.1504	0.3199	0.083
Mof_C 	C 	0.9313	0.1362	0.2445	0.392
Mof_O 	O 	0.8622	0.976	0.1693	-0.83
Mof_H 	H 	0.9301	0.9793	0.1447	0.121
Mof_C 	C 	0.9841	0.1963	0.2706	0.008
Mof_H 	H 	0.9347	0.209	0.3023	-0.007
Mof_N 	N 	0.8609	0.9176	0.4687	-0.308
Mof_H 	H 	0.8598	0.9154	0.5062	0.086
Mof_H 	H 	0.9231	0.9394	0.4576	0.092
Mof_H 	H 	0.8632	0.8781	0.4544	0.082
Mof_O 	O 	0.7524	0.9051	0.2513	-0.81
Mof_H 	H 	0.7563	0.8667	0.2752	0.194
Mof_C 	C 	0.9921	0.2531	0.2308	-0.419
Mof_H 	H 	0.916	0.2605	0.2149	0.128
Mof_H 	H 	0.043	0.2414	0.1999	0.117
Mof_N 	N 	0.3813	0.7552	0.2787	-0.319
Mof_H 	H 	0.3506	0.7194	0.2928	0.114
Mof_H 	H 	0.3399	0.7681	0.2491	0.098
Mof_H 	H 	0.381	0.7858	0.3049	0.088
Mof_O 	O 	0.624	0.9679	0.1706	-0.815
Mof_H 	H 	0.5544	0.9665	0.147	0.119
Mof_C 	C 	0.0352	0.316	0.2558	0.554
Mof_O 	O 	0.9776	0.0841	0.2575	-0.587
Mof_C 	C 	0.754	0.9552	0.3839	0.421
Mof_C 	C 	0.7569	0.9503	0.4489	0.007
Mof_H 	H 	0.6889	0.9262	0.4617	-0.005
Mof_O 	O 	0.8486	0.146	0.212	-0.535
Mof_O 	O 	0.1004	0.3132	0.2973	-0.589
Mof_C 	C 	0.7492	0.0185	0.4713	-0.42
Mof_H 	H 	0.8134	0.043	0.4562	0.115
Mof_H 	H 	0.6784	0.0379	0.4573	0.117
Mof_O 	O 	0.0072	0.3671	0.2324	-0.634
Mof_C 	C 	0.7508	0.0241	0.535	0.543
Mof_O 	O 	0.6573	0.9596	0.362	-0.578
Mof_C 	C 	0.5532	0.8047	0.2372	0.386
Mof_O 	O 	0.8509	0.9564	0.3602	-0.565
Mof_C 	C 	0.502	0.7424	0.2606	0.009
Mof_H 	H 	0.5462	0.7311	0.2945	-0.004
Mof_O 	O 	0.7438	0.0795	0.5556	-0.61
Mof_C 	C 	0.5072	0.6854	0.221	-0.406
Mof_H 	H 	0.5858	0.681	0.2073	0.124
Mof_H 	H 	0.4581	0.6942	0.1886	0.113
Mof_O 	O 	0.7548	0.9737	0.5629	-0.619
Mof_C 	C 	0.47	0.622	0.247	0.533
Mof_O 	O 	0.5124	0.8564	0.2556	-0.587
Mof_O 	O 	0.6325	0.7983	0.2014	-0.528
Mof_O 	O 	0.414	0.6246	0.2915	-0.591
Mof_O 	O 	0.4962	0.5712	0.221	-0.618
Mof_Eu	Eu	0.91923	0.0358	0.7684	1.956
Mof_Eu	Eu	0.58275	0.02672	0.76576	1.92
Mof_Eu	Eu	0.74366	0.12301	0.65193	1.781
Mof_Eu	Eu	0.76468	0.93297	0.65705	1.818
Mof_O 	O 	0.7591	0.967	0.7563	-0.816
Mof_H 	H 	0.7618	0.9303	0.7821	0.19
Mof_N 	N 	0.3991	0.8188	0.794	-0.315
Mof_H 	H 	0.3692	0.7837	0.8098	0.111
Mof_H 	H 	0.353	0.8321	0.7662	0.098
Mof_H 	H 	0.4053	0.8496	0.8199	0.084
Mof_C 	C 	0.5687	0.8638	0.7445	0.392
Mof_O 	O 	0.6378	0.024	0.6693	-0.829
Mof_H 	H 	0.5699	0.0207	0.6447	0.121
Mof_C 	C 	0.5159	0.8037	0.7706	0.008
Mof_H 	H 	0.5653	0.791	0.8023	-0.007
Mof_N 	N 	0.6391	0.0824	0.9687	-0.309
Mof_H 	H 	0.6402	0.0846	0.0062	0.088
Mof_H 	H 	0.5769	0.0606	0.9576	0.091
Mof_H 	H 	0.6368	0.1219	0.9544	0.082
Mof_O 	O 	0.7476	0.0949	0.7513	-0.81
Mof_H 	H 	0.7437	0.1333	0.7752	0.194
Mof_C 	C 	0.5079	0.7469	0.7308	-0.42
Mof_H 	H 	0.584	0.7395	0.7149	0.128
Mof_H 	H 	0.457	0.7586	0.6999	0.117
Mof_N 	N 	0.1187	0.2448	0.7787	-0.318
Mof_H 	H 	0.1494	0.2806	0.7928	0.114
Mof_H 	H 	0.1601	0.2319	0.7491	0.098
Mof_H 	H 	0.119	0.2142	0.8049	0.088
Mof_O 	O 	0.876	0.0321	0.6706	-0.814
Mof_H 	H 	0.9456	0.0335	0.647	0.12
Mof_C 	C 	0.4648	0.684	0.7558	0.554
Mof_O 	O 	0.5224	0.9159	0.7575	-0.587
Mof_C 	C 	0.746	0.0448	0.8839	0.422
Mof_C 	C 	0.7431	0.0497	0.9489	0.004
Mof_H 	H 	0.8111	0.0738	0.9617	-0.004
Mof_O 	O 	0.6514	0.854	0.712	-0.535
Mof_O 	O 	0.3996	0.6868	0.7973	-0.589
Mof_C 	C 	0.7508	0.9815	0.9713	-0.413
Mof_H 	H 	0.6866	0.957	0.9562	0.113
Mof_H 	H 	0.8216	0.9621	0.9573	0.116
Mof_O 	O 	0.4928	0.6329	0.7324	-0.634
Mof_C 	C 	0.7492	0.9759	0.035	0.536
Mof_O 	O 	0.8427	0.0404	0.862	-0.578
Mof_C 	C 	0.9468	0.1953	0.7372	0.386
Mof_O 	O 	0.6491	0.0436	0.8602	-0.565
Mof_C 	C 	0.998	0.2576	0.7606	0.008
Mof_H 	H 	0.9538	0.2689	0.7945	-0.004
Mof_O 	O 	0.7562	0.9205	0.0556	-0.609
Mof_C 	C 	0.9928	0.3146	0.721	-0.404
Mof_H 	H 	0.9142	0.319	0.7073	0.123
Mof_H 	H 	0.0419	0.3058	0.6886	0.112
Mof_O 	O 	0.7452	0.0263	0.0629	-0.616
Mof_C 	C 	0.03	0.378	0.747	0.532
Mof_O 	O 	0.9876	0.1436	0.7556	-0.587
Mof_O 	O 	0.8675	0.2017	0.7014	-0.528
Mof_O 	O 	0.086	0.3754	0.7915	-0.591
Mof_O 	O 	0.0038	0.4288	0.721	-0.618
Mof_Eu	Eu	0.41923	0.4642	0.2316	1.956
Mof_Eu	Eu	0.08275	0.47328	0.23424	1.921
Mof_Eu	Eu	0.24366	0.37699	0.34807	1.781
Mof_Eu	Eu	0.26468	0.56703	0.34295	1.817
Mof_O 	O 	0.2591	0.533	0.2437	-0.817
Mof_H 	H 	0.2618	0.5697	0.2179	0.19
Mof_N 	N 	0.8991	0.6812	0.206	-0.315
Mof_H 	H 	0.8692	0.7163	0.1902	0.111
Mof_H 	H 	0.853	0.6679	0.2338	0.098
Mof_H 	H 	0.9053	0.6504	0.1801	0.083
Mof_C 	C 	0.0687	0.6362	0.2555	0.392
Mof_O 	O 	0.1378	0.476	0.3307	-0.829
Mof_H 	H 	0.0699	0.4793	0.3553	0.121
Mof_C 	C 	0.0159	0.6963	0.2294	0.007
Mof_H 	H 	0.0653	0.709	0.1977	-0.007
Mof_N 	N 	0.1391	0.4176	0.0313	-0.307
Mof_H 	H 	0.1402	0.4154	0.9938	0.085
Mof_H 	H 	0.0769	0.4394	0.0424	0.091
Mof_H 	H 	0.1368	0.3781	0.0456	0.082
Mof_O 	O 	0.2476	0.4051	0.2487	-0.81
Mof_H 	H 	0.2437	0.3667	0.2248	0.194
Mof_C 	C 	0.0079	0.7531	0.2692	-0.417
Mof_H 	H 	0.084	0.7605	0.2851	0.127
Mof_H 	H 	0.957	0.7414	0.3001	0.116
Mof_N 	N 	0.6187	0.2552	0.2213	-0.318
Mof_H 	H 	0.6494	0.2194	0.2072	0.114
Mof_H 	H 	0.6601	0.2681	0.2509	0.098
Mof_H 	H 	0.619	0.2858	0.1951	0.088
Mof_O 	O 	0.376	0.4679	0.3294	-0.814
Mof_H 	H 	0.4456	0.4665	0.353	0.119
Mof_C 	C 	0.9648	0.816	0.2442	0.553
Mof_O 	O 	0.0224	0.5841	0.2425	-0.588
Mof_C 	C 	0.246	0.4552	0.1161	0.421
Mof_C 	C 	0.2431	0.4503	0.0511	0.007
Mof_H 	H 	0.3111	0.4262	0.0383	-0.004
Mof_O 	O 	0.1514	0.646	0.288	-0.535
Mof_O 	O 	0.8996	0.8132	0.2027	-0.589
Mof_C 	C 	0.2508	0.5185	0.0287	-0.421
Mof_H 	H 	0.1866	0.543	0.0438	0.114
Mof_H 	H 	0.3216	0.5379	0.0427	0.117
Mof_O 	O 	0.9928	0.8671	0.2676	-0.633
Mof_C 	C 	0.2492	0.5241	0.965	0.542
Mof_O 	O 	0.3427	0.4596	0.138	-0.578
Mof_C 	C 	0.4468	0.3047	0.2628	0.386
Mof_O 	O 	0.1491	0.4564	0.1398	-0.565
Mof_C 	C 	0.498	0.2424	0.2394	0.009
Mof_H 	H 	0.4538	0.2311	0.2055	-0.004
Mof_O 	O 	0.2562	0.5795	0.9444	-0.61
Mof_C 	C 	0.4928	0.1854	0.279	-0.406
Mof_H 	H 	0.4142	0.181	0.2927	0.124
Mof_H 	H 	0.5419	0.1942	0.3114	0.113
Mof_O 	O 	0.2452	0.4737	0.9371	-0.619
Mof_C 	C 	0.53	0.122	0.253	0.533
Mof_O 	O 	0.4876	0.3564	0.2444	-0.587
Mof_O 	O 	0.3675	0.2983	0.2986	-0.528
Mof_O 	O 	0.586	0.1246	0.2085	-0.591
Mof_O 	O 	0.5038	0.0712	0.279	-0.618
Mof_Eu	Eu	0.08077	0.5358	0.7316	1.955
Mof_Eu	Eu	0.41725	0.52672	0.73424	1.921
Mof_Eu	Eu	0.25634	0.62301	0.84807	1.781
Mof_Eu	Eu	0.23532	0.43297	0.84295	1.816
Mof_O 	O 	0.2409	0.467	0.7437	-0.817
Mof_H 	H 	0.2382	0.4303	0.7179	0.19
Mof_N 	N 	0.6009	0.3188	0.706	-0.315
Mof_H 	H 	0.6308	0.2837	0.6902	0.111
Mof_H 	H 	0.647	0.3321	0.7338	0.098
Mof_H 	H 	0.5947	0.3496	0.6801	0.083
Mof_C 	C 	0.4313	0.3638	0.7555	0.392
Mof_O 	O 	0.3622	0.524	0.8307	-0.829
Mof_H 	H 	0.4301	0.5207	0.8553	0.121
Mof_C 	C 	0.4841	0.3037	0.7294	0.008
Mof_H 	H 	0.4347	0.291	0.6977	-0.007
Mof_N 	N 	0.3609	0.5824	0.5313	-0.308
Mof_H 	H 	0.3598	0.5846	0.4938	0.086
Mof_H 	H 	0.4231	0.5606	0.5424	0.092
Mof_H 	H 	0.3632	0.6219	0.5456	0.082
Mof_O 	O 	0.2524	0.5949	0.7487	-0.81
Mof_H 	H 	0.2563	0.6333	0.7248	0.194
Mof_C 	C 	0.4921	0.2469	0.7692	-0.419
Mof_H 	H 	0.416	0.2395	0.7851	0.128
Mof_H 	H 	0.543	0.2586	0.8001	0.117
Mof_N 	N 	0.8813	0.7448	0.7213	-0.318
Mof_H 	H 	0.8506	0.7806	0.7072	0.114
Mof_H 	H 	0.8399	0.7319	0.7509	0.098
Mof_H 	H 	0.881	0.7142	0.6951	0.088
Mof_O 	O 	0.124	0.5321	0.8294	-0.814
Mof_H 	H 	0.0544	0.5335	0.853	0.119
Mof_C 	C 	0.5352	0.184	0.7442	0.554
Mof_O 	O 	0.4776	0.4159	0.7425	-0.588
Mof_C 	C 	0.254	0.5448	0.6161	0.421
Mof_C 	C 	0.2569	0.5497	0.5511	0.007
Mof_H 	H 	0.1889	0.5738	0.5383	-0.005
Mof_O 	O 	0.3486	0.354	0.788	-0.535
Mof_O 	O 	0.6004	0.1868	0.7027	-0.589
Mof_C 	C 	0.2492	0.4815	0.5287	-0.421
Mof_H 	H 	0.3134	0.457	0.5438	0.115
Mof_H 	H 	0.1784	0.4621	0.5427	0.117
Mof_O 	O 	0.5072	0.1329	0.7676	-0.633
Mof_C 	C 	0.2508	0.4759	0.465	0.543
Mof_O 	O 	0.1573	0.5404	0.638	-0.578
Mof_C 	C 	0.0532	0.6953	0.7628	0.386
Mof_O 	O 	0.3509	0.5436	0.6398	-0.565
Mof_C 	C 	0.002	0.7576	0.7394	0.008
Mof_H 	H 	0.0462	0.7689	0.7055	-0.004
Mof_O 	O 	0.2438	0.4205	0.4444	-0.61
Mof_C 	C 	0.0072	0.8146	0.779	-0.406
Mof_H 	H 	0.0858	0.819	0.7927	0.124
Mof_H 	H 	0.9581	0.8058	0.8114	0.113
Mof_O 	O 	0.2548	0.5263	0.4371	-0.619
Mof_C 	C 	0.97	0.878	0.753	0.532
Mof_O 	O 	0.0124	0.6436	0.7444	-0.587
Mof_O 	O 	0.1325	0.7017	0.7986	-0.528
Mof_O 	O 	0.914	0.8754	0.7085	-0.591
Mof_O 	O 	0.9962	0.9288	0.779	-0.618
_end
