data_functionalizedCrystal
_audit_creation_method	'EQeq! by Chris Wilmer'
_symmetry_space_group_name_H-M	'P1'
_symmetry_Int_Tables_number	1
_symmetry_cell_setting	triclinic
loop_
_symmetry_equiv_pos_as_xyz
  x,y,z
_cell_length_a	11.7073
_cell_length_b	5.5647
_cell_length_c	22.83
_cell_angle_alpha	90
_cell_angle_beta	100.586
_cell_angle_gamma	90
loop_
_atom_site_label
_atom_site_type_symbol
_atom_site_fract_x
_atom_site_fract_y
_atom_site_fract_z
_atom_site_charge
Mof_Ca	Ca	0.63729	0.25666	0.22192	1.564
Mof_S 	S 	0.39846	0.46493	0.10674	0.318
Mof_O 	O 	0.26426	0.0231	0.82792	-0.517
Mof_O 	O 	0.26053	0.4149	0.80911	-0.584
Mof_O 	O 	0.41539	0.7209	0.11051	-0.252
Mof_O 	O 	0.4948	0.3061	0.12965	-0.359
Mof_O 	O 	0.98711	0.0241	0.24639	-0.474
Mof_O 	O 	0.95804	0.4196	0.25535	-0.487
Mof_C 	C 	0.10083	0.2925	0.2011	-0.151
Mof_C 	C 	0.29868	0.2915	0.91041	-0.157
Mof_C 	C 	0.19234	0.5596	0.14051	-0.083
Mof_H 	H 	0.1932	0.7055	0.119	0.065
Mof_C 	C 	0.2676	0.512	0.93165	0.051
Mof_H 	H 	0.2283	0.6281	0.9047	0.011
Mof_C 	C 	0.10262	0.5103	0.171	0.046
Mof_H 	H 	0.0426	0.6248	0.1714	0.01
Mof_C 	C 	0.29424	0.5621	0.99237	-0.086
Mof_H 	H 	0.2722	0.7109	0.0074	0.066
Mof_C 	C 	0.3821	0.1674	0.01042	-0.091
Mof_H 	H 	0.4201	0.0502	0.0374	0.083
Mof_C 	C 	0.18857	0.1242	0.20044	0.038
Mof_H 	H 	0.1856	0.9745	0.2201	0.03
Mof_C 	C 	0.28046	0.1722	0.17132	-0.077
Mof_H 	H 	0.3411	0.0586	0.1714	0.07
Mof_C 	C 	0.2742	0.2382	0.84462	0.444
Mof_C 	C 	0.35396	0.1191	0.94983	0.054
Mof_H 	H 	0.3726	0.9671	0.9352	0.02
Mof_C 	C 	0.00659	0.241	0.23699	0.46
Mof_C 	C 	0.35353	0.3908	0.03067	0.001
Mof_C 	C 	0.28117	0.3913	0.14203	-0.014
Mof_Ca	Ca	0.86271	0.75666	0.27808	1.556
Mof_S 	S 	0.10154	0.96493	0.39326	0.319
Mof_O 	O 	0.23574	0.5231	0.67208	-0.514
Mof_O 	O 	0.23947	0.9149	0.69089	-0.581
Mof_O 	O 	0.08461	0.2209	0.38949	-0.251
Mof_O 	O 	0.0052	0.8061	0.37035	-0.358
Mof_O 	O 	0.51289	0.5241	0.25361	-0.479
Mof_O 	O 	0.54196	0.9196	0.24465	-0.491
Mof_C 	C 	0.39917	0.7925	0.2989	-0.156
Mof_C 	C 	0.20132	0.7915	0.58959	-0.154
Mof_C 	C 	0.30766	0.0596	0.35949	-0.084
Mof_H 	H 	0.3068	0.2055	0.381	0.065
Mof_C 	C 	0.2324	0.012	0.56835	0.049
Mof_H 	H 	0.2717	0.1281	0.5953	0.011
Mof_C 	C 	0.39738	0.0103	0.329	0.05
Mof_H 	H 	0.4574	0.1248	0.3286	0.009
Mof_C 	C 	0.20576	0.0621	0.50763	-0.088
Mof_H 	H 	0.2278	0.2109	0.4926	0.067
Mof_C 	C 	0.1179	0.6674	0.48958	-0.091
Mof_H 	H 	0.0799	0.5502	0.4626	0.083
Mof_C 	C 	0.31143	0.6242	0.29956	0.041
Mof_H 	H 	0.3144	0.4745	0.2799	0.029
Mof_C 	C 	0.21954	0.6722	0.32868	-0.079
Mof_H 	H 	0.1589	0.5586	0.3286	0.07
Mof_C 	C 	0.2258	0.7382	0.65538	0.442
Mof_C 	C 	0.14604	0.6191	0.55017	0.055
Mof_H 	H 	0.1274	0.4671	0.5648	0.019
Mof_C 	C 	0.49341	0.741	0.26301	0.468
Mof_C 	C 	0.14647	0.8908	0.46933	0.003
Mof_C 	C 	0.21883	0.8913	0.35797	-0.013
Mof_Ca	Ca	0.36271	0.74334	0.77808	1.565
Mof_S 	S 	0.60154	0.53507	0.89326	0.319
Mof_O 	O 	0.73574	0.9769	0.17208	-0.516
Mof_O 	O 	0.73947	0.5851	0.19089	-0.583
Mof_O 	O 	0.58461	0.2791	0.88949	-0.251
Mof_O 	O 	0.5052	0.6939	0.87035	-0.358
Mof_O 	O 	0.01289	0.9759	0.75361	-0.473
Mof_O 	O 	0.04196	0.5804	0.74465	-0.486
Mof_C 	C 	0.89917	0.7075	0.7989	-0.151
Mof_C 	C 	0.70132	0.7085	0.08959	-0.157
Mof_C 	C 	0.80766	0.4404	0.85949	-0.083
Mof_H 	H 	0.8068	0.2945	0.881	0.065
Mof_C 	C 	0.7324	0.488	0.06835	0.051
Mof_H 	H 	0.7717	0.3719	0.0953	0.011
Mof_C 	C 	0.89738	0.4897	0.829	0.046
Mof_H 	H 	0.9574	0.3752	0.8286	0.01
Mof_C 	C 	0.70576	0.4379	0.00763	-0.086
Mof_H 	H 	0.7278	0.2891	0.9926	0.066
Mof_C 	C 	0.6179	0.8326	0.98958	-0.091
Mof_H 	H 	0.5799	0.9498	0.9626	0.083
Mof_C 	C 	0.81143	0.8758	0.79956	0.038
Mof_H 	H 	0.8144	0.0255	0.7799	0.03
Mof_C 	C 	0.71954	0.8278	0.82868	-0.077
Mof_H 	H 	0.6589	0.9414	0.8286	0.07
Mof_C 	C 	0.7258	0.7618	0.15538	0.444
Mof_C 	C 	0.64604	0.8809	0.05017	0.054
Mof_H 	H 	0.6274	0.0329	0.0648	0.02
Mof_C 	C 	0.99341	0.759	0.76301	0.46
Mof_C 	C 	0.64647	0.6092	0.96933	0.001
Mof_C 	C 	0.71883	0.6087	0.85797	-0.014
Mof_Ca	Ca	0.13729	0.24334	0.72192	1.556
Mof_S 	S 	0.89846	0.03507	0.60674	0.319
Mof_O 	O 	0.76426	0.4769	0.32792	-0.514
Mof_O 	O 	0.76053	0.0851	0.30911	-0.581
Mof_O 	O 	0.91539	0.7791	0.61051	-0.251
Mof_O 	O 	0.9948	0.1939	0.62965	-0.358
Mof_O 	O 	0.48711	0.4759	0.74639	-0.479
Mof_O 	O 	0.45804	0.0804	0.75535	-0.491
Mof_C 	C 	0.60083	0.2075	0.7011	-0.156
Mof_C 	C 	0.79868	0.2085	0.41041	-0.154
Mof_C 	C 	0.69234	0.9404	0.64051	-0.084
Mof_H 	H 	0.6932	0.7945	0.619	0.065
Mof_C 	C 	0.7676	0.988	0.43165	0.049
Mof_H 	H 	0.7283	0.8719	0.4047	0.011
Mof_C 	C 	0.60262	0.9897	0.671	0.05
Mof_H 	H 	0.5426	0.8752	0.6714	0.009
Mof_C 	C 	0.79424	0.9379	0.49237	-0.088
Mof_H 	H 	0.7722	0.7891	0.5074	0.067
Mof_C 	C 	0.8821	0.3326	0.51042	-0.091
Mof_H 	H 	0.9201	0.4498	0.5374	0.083
Mof_C 	C 	0.68857	0.3758	0.70044	0.041
Mof_H 	H 	0.6856	0.5255	0.7201	0.029
Mof_C 	C 	0.78046	0.3278	0.67132	-0.079
Mof_H 	H 	0.8411	0.4414	0.6714	0.07
Mof_C 	C 	0.7742	0.2618	0.34462	0.442
Mof_C 	C 	0.85396	0.3809	0.44983	0.055
Mof_H 	H 	0.8726	0.5329	0.4352	0.019
Mof_C 	C 	0.50659	0.259	0.73699	0.468
Mof_C 	C 	0.85353	0.1092	0.53067	0.003
Mof_C 	C 	0.78117	0.1087	0.64203	-0.013
_end
