data_functionalizedCrystal
_audit_creation_method	'EQeq! by Chris Wilmer'
_symmetry_space_group_name_H-M	'P1'
_symmetry_Int_Tables_number	1
_symmetry_cell_setting	triclinic
loop_
_symmetry_equiv_pos_as_xyz
  x,y,z
_cell_length_a	18.6085
_cell_length_b	18.6085
_cell_length_c	18.6085
_cell_angle_alpha	60
_cell_angle_beta	60
_cell_angle_gamma	60
loop_
_atom_site_label
_atom_site_type_symbol
_atom_site_fract_x
_atom_site_fract_y
_atom_site_fract_z
_atom_site_charge
Mof_Cu	Cu	0.43015	0.56985	-0	0.896
Mof_Cu	Cu	-4.99024e-17	-2.49512e-17	0.56985	0.862
Mof_Cu	Cu	0.56985	0	0.43015	0.896
Mof_Cu	Cu	0.43015	-2.49512e-17	0.56985	0.896
Mof_Cu	Cu	8.73291e-17	0.56985	0.43015	0.896
Mof_Cu	Cu	0.56985	0.43015	-0	0.896
Mof_Cu	Cu	4.99024e-17	0.43015	0.56985	0.896
Mof_Cu	Cu	4.99024e-17	0.56985	-0	0.862
Mof_Cu	Cu	2.49512e-17	0.43015	-0	0.86
Mof_Cu	Cu	0.43015	0	-0	0.86
Mof_Cu	Cu	-1.24756e-17	0	0.43015	0.86
Mof_Cu	Cu	0.56985	0	-0	0.862
Mof_H 	H 	0.5122	0.7274	0.7274	0.065
Mof_H 	H 	0.4878	0.2726	0.967	0.078
Mof_H 	H 	0.4878	0.967	0.2726	0.078
Mof_H 	H 	0.7274	0.5122	0.033	0.041
Mof_H 	H 	0.967	0.4878	0.2726	0.078
Mof_H 	H 	0.7274	0.033	0.7274	0.047
Mof_H 	H 	0.967	0.2726	0.2726	0.077
Mof_H 	H 	0.033	0.7274	0.5122	0.041
Mof_H 	H 	0.7274	0.7274	0.5122	0.065
Mof_H 	H 	0.033	0.5122	0.7274	0.041
Mof_H 	H 	0.2726	0.967	0.2726	0.077
Mof_H 	H 	0.7274	0.5122	0.7274	0.065
Mof_H 	H 	0.2726	0.4878	0.2726	0.05
Mof_H 	H 	0.7274	0.7274	0.033	0.047
Mof_H 	H 	0.4878	0.2726	0.2726	0.05
Mof_H 	H 	0.5122	0.033	0.7274	0.041
Mof_H 	H 	0.7274	0.033	0.5122	0.041
Mof_H 	H 	0.2726	0.2726	0.4878	0.05
Mof_H 	H 	0.033	0.7274	0.7274	0.047
Mof_H 	H 	0.967	0.2726	0.4878	0.078
Mof_H 	H 	0.5122	0.7274	0.033	0.041
Mof_H 	H 	0.2726	0.2726	0.967	0.077
Mof_H 	H 	0.2726	0.4878	0.967	0.078
Mof_H 	H 	0.2726	0.967	0.4878	0.078
Mof_C 	C 	0.2932	0.9888	0.9334	0.151
Mof_C 	C 	0.57009	0.69877	0.69877	0.038
Mof_C 	C 	0.9888	0.9334	0.2932	0.151
Mof_C 	C 	0.0112	0.0666	0.7068	-0.006
Mof_C 	C 	0.2154	0.7068	0.0112	-0.001
Mof_C 	C 	0.8373	0.56876	0.02518	0.349
Mof_C 	C 	0.7068	0.0666	0.0112	-0.006
Mof_C 	C 	0.8206	0.9274	0.8994	-0.039
Mof_C 	C 	0.1627	0.43124	0.43124	0.352
Mof_C 	C 	0.1666	0.0946	0.1454	-0.008
Mof_C 	C 	0.97482	0.1627	0.43124	0.335
Mof_C 	C 	0.0946	0.1666	0.5934	-0.009
Mof_C 	C 	0.0666	0.0112	0.7068	-0.006
Mof_C 	C 	0.0112	0.0666	0.2154	-0.021
Mof_C 	C 	0.2932	0.9334	0.9888	0.151
Mof_C 	C 	0.9888	0.7846	0.2932	0.113
Mof_C 	C 	0.69877	0.57009	0.69877	0.038
Mof_C 	C 	0.7068	0.2154	0.0666	0.031
Mof_C 	C 	0.0726	0.1794	0.6474	-0.019
Mof_C 	C 	0.2154	0.0666	0.0112	-0.021
Mof_C 	C 	0.0112	0.2154	0.0666	-0.021
Mof_C 	C 	0.1454	0.1666	0.0946	-0.008
Mof_C 	C 	0.43124	0.97482	0.43124	0.339
Mof_C 	C 	0.0726	0.1006	0.1794	-0.003
Mof_C 	C 	0.96763	0.42991	0.30123	0.022
Mof_C 	C 	0.1794	0.1006	0.0726	-0.003
Mof_C 	C 	0.9334	0.9888	0.2932	0.151
Mof_C 	C 	0.0666	0.0112	0.2154	-0.021
Mof_C 	C 	0.43124	0.43124	0.97482	0.339
Mof_C 	C 	0.61293	0.61293	0.74219	-0.08
Mof_C 	C 	0.57009	0.03237	0.69877	0.054
Mof_C 	C 	0.1666	0.5934	0.1454	0.009
Mof_C 	C 	0.0946	0.1454	0.1666	-0.008
Mof_C 	C 	0.4066	0.8334	0.9054	0.043
Mof_C 	C 	0.9274	0.8994	0.3526	-0.043
Mof_C 	C 	0.2932	0.9888	0.7846	0.113
Mof_C 	C 	0.25781	0.96805	0.38707	-0.065
Mof_C 	C 	0.9334	0.2932	0.7846	0.086
Mof_C 	C 	0.74219	0.61293	0.61293	-0.08
Mof_C 	C 	0.3526	0.9274	0.8206	-0.016
Mof_C 	C 	0.9334	0.7846	0.9888	0.15
Mof_C 	C 	0.1666	0.1454	0.5934	0.009
Mof_C 	C 	0.8994	0.3526	0.9274	-0.043
Mof_C 	C 	0.8334	0.4066	0.9054	0.043
Mof_C 	C 	0.1454	0.0946	0.1666	-0.008
Mof_C 	C 	0.03195	0.74219	0.61293	-0.108
Mof_C 	C 	0.9334	0.9888	0.7846	0.15
Mof_C 	C 	0.1454	0.0946	0.5934	-0.003
Mof_C 	C 	0.0946	0.5934	0.1666	-0.009
Mof_C 	C 	0.2154	0.0112	0.0666	-0.021
Mof_C 	C 	0.38707	0.38707	0.96805	-0.063
Mof_C 	C 	0.1666	0.1454	0.0946	-0.008
Mof_C 	C 	0.42991	0.30123	0.30123	0.046
Mof_C 	C 	0.1794	0.6474	0.1006	-0.001
Mof_C 	C 	0.0112	0.7068	0.0666	-0.006
Mof_C 	C 	0.3526	0.8206	0.9274	-0.016
Mof_C 	C 	0.96805	0.38707	0.25781	-0.065
Mof_C 	C 	0.0666	0.2154	0.0112	-0.021
Mof_C 	C 	0.61293	0.74219	0.61293	-0.08
Mof_C 	C 	0.9334	0.7846	0.2932	0.086
Mof_C 	C 	0.8546	0.9054	0.8334	0.036
Mof_C 	C 	0.8546	0.9054	0.4066	0.028
Mof_C 	C 	0.3526	0.8994	0.8206	-0.037
Mof_C 	C 	0.74219	0.03195	0.61293	-0.108
Mof_C 	C 	0.4066	0.8334	0.8546	0.015
Mof_C 	C 	0.02518	0.56876	0.56876	0.357
Mof_C 	C 	0.2154	0.0112	0.7068	-0.001
Mof_C 	C 	0.96805	0.38707	0.38707	-0.063
Mof_C 	C 	0.1666	0.0946	0.5934	-0.009
Mof_C 	C 	0.9888	0.9334	0.7846	0.15
Mof_C 	C 	0.0726	0.6474	0.1006	-0.003
Mof_C 	C 	0.8206	0.3526	0.8994	-0.037
Mof_C 	C 	0.9274	0.3526	0.8994	-0.043
Mof_C 	C 	0.02518	0.56876	0.8373	0.349
Mof_C 	C 	0.8373	0.56876	0.56876	0.347
Mof_C 	C 	0.8206	0.8994	0.9274	-0.039
Mof_C 	C 	0.5934	0.1666	0.1454	0.009
Mof_C 	C 	0.0112	0.2154	0.7068	-0.001
Mof_C 	C 	0.1006	0.1794	0.0726	-0.003
Mof_C 	C 	0.8206	0.9274	0.3526	-0.016
Mof_C 	C 	0.02518	0.8373	0.56876	0.349
Mof_C 	C 	0.56876	0.56876	0.8373	0.347
Mof_C 	C 	0.43124	0.97482	0.1627	0.335
Mof_C 	C 	0.7846	0.9888	0.9334	0.15
Mof_C 	C 	0.0946	0.1454	0.5934	-0.003
Mof_C 	C 	0.4066	0.9054	0.8546	0.028
Mof_C 	C 	0.8206	0.8994	0.3526	-0.037
Mof_C 	C 	0.69877	0.69877	0.57009	0.038
Mof_C 	C 	0.8994	0.9274	0.8206	-0.039
Mof_C 	C 	0.57009	0.69877	0.03237	0.054
Mof_C 	C 	0.61293	0.74219	0.03195	-0.108
Mof_C 	C 	0.1794	0.6474	0.0726	-0.019
Mof_C 	C 	0.97482	0.43124	0.43124	0.339
Mof_C 	C 	0.56876	0.02518	0.56876	0.357
Mof_C 	C 	0.9888	0.2932	0.9334	0.151
Mof_C 	C 	0.6474	0.1794	0.0726	-0.019
Mof_C 	C 	0.43124	0.43124	0.1627	0.352
Mof_C 	C 	0.0666	0.2154	0.7068	0.031
Mof_C 	C 	0.25781	0.38707	0.96805	-0.065
Mof_C 	C 	0.0112	0.7068	0.2154	-0.001
Mof_C 	C 	0.2932	0.7846	0.9888	0.113
Mof_C 	C 	0.4066	0.9054	0.8334	0.043
Mof_C 	C 	0.96805	0.25781	0.38707	-0.065
Mof_C 	C 	0.6474	0.0726	0.1006	-0.003
Mof_C 	C 	0.7846	0.2932	0.9334	0.086
Mof_C 	C 	0.7846	0.9334	0.9888	0.15
Mof_C 	C 	0.03195	0.61293	0.61293	-0.116
Mof_C 	C 	0.5934	0.1666	0.0946	-0.009
Mof_C 	C 	0.03195	0.61293	0.74219	-0.108
Mof_C 	C 	0.1794	0.0726	0.6474	-0.019
Mof_C 	C 	0.43124	0.1627	0.43124	0.352
Mof_C 	C 	0.8546	0.8334	0.4066	0.015
Mof_C 	C 	0.8994	0.3526	0.8206	-0.037
Mof_C 	C 	0.6474	0.1794	0.1006	-0.001
Mof_C 	C 	0.2932	0.7846	0.9334	0.086
Mof_C 	C 	0.7068	0.0112	0.0666	-0.006
Mof_C 	C 	0.8334	0.8546	0.9054	0.036
Mof_C 	C 	0.56876	0.8373	0.56876	0.347
Mof_C 	C 	0.0726	0.1794	0.1006	-0.003
Mof_C 	C 	0.8334	0.4066	0.8546	0.015
Mof_C 	C 	0.97482	0.43124	0.1627	0.335
Mof_C 	C 	0.38707	0.25781	0.96805	-0.065
Mof_C 	C 	0.7846	0.2932	0.9888	0.113
Mof_C 	C 	0.3526	0.8994	0.9274	-0.043
Mof_C 	C 	0.30123	0.30123	0.96763	0.022
Mof_C 	C 	0.0946	0.5934	0.1454	-0.003
Mof_C 	C 	0.56876	0.02518	0.8373	0.349
Mof_C 	C 	0.8994	0.9274	0.3526	-0.043
Mof_C 	C 	0.1006	0.6474	0.1794	-0.001
Mof_C 	C 	0.38707	0.96805	0.38707	-0.063
Mof_C 	C 	0.6474	0.1006	0.0726	-0.003
Mof_C 	C 	0.9274	0.8994	0.8206	-0.039
Mof_C 	C 	0.8206	0.3526	0.9274	-0.016
Mof_C 	C 	0.30123	0.42991	0.96763	0.022
Mof_C 	C 	0.03237	0.69877	0.69877	0.052
Mof_C 	C 	0.03237	0.69877	0.57009	0.054
Mof_C 	C 	0.0946	0.1666	0.1454	-0.008
Mof_C 	C 	0.7846	0.9334	0.2932	0.086
Mof_C 	C 	0.5934	0.0946	0.1454	-0.003
Mof_C 	C 	0.43124	0.1627	0.97482	0.335
Mof_C 	C 	0.1627	0.43124	0.97482	0.335
Mof_C 	C 	0.69877	0.03237	0.57009	0.054
Mof_C 	C 	0.69877	0.69877	0.03237	0.052
Mof_C 	C 	0.7846	0.9888	0.2932	0.113
Mof_C 	C 	0.9054	0.8546	0.4066	0.028
Mof_C 	C 	0.7068	0.0112	0.2154	-0.001
Mof_C 	C 	0.61293	0.03195	0.74219	-0.108
Mof_C 	C 	0.38707	0.38707	0.25781	-0.107
Mof_C 	C 	0.96763	0.30123	0.30123	0.022
Mof_C 	C 	0.8994	0.8206	0.3526	-0.037
Mof_C 	C 	0.96763	0.30123	0.42991	0.022
Mof_C 	C 	0.0726	0.1006	0.6474	-0.003
Mof_C 	C 	0.1794	0.1006	0.6474	-0.001
Mof_C 	C 	0.6474	0.0726	0.1794	-0.019
Mof_C 	C 	0.2154	0.0666	0.7068	0.031
Mof_C 	C 	0.6474	0.1006	0.1794	-0.001
Mof_C 	C 	0.69877	0.03237	0.69877	0.052
Mof_C 	C 	0.30123	0.96763	0.42991	0.022
Mof_C 	C 	0.9888	0.7846	0.9334	0.15
Mof_C 	C 	0.8546	0.4066	0.9054	0.028
Mof_C 	C 	0.3526	0.8206	0.8994	-0.037
Mof_C 	C 	0.61293	0.03195	0.61293	-0.116
Mof_C 	C 	0.4066	0.8546	0.9054	0.028
Mof_C 	C 	0.9274	0.8206	0.8994	-0.039
Mof_C 	C 	0.69877	0.57009	0.03237	0.054
Mof_C 	C 	0.42991	0.96763	0.30123	0.022
Mof_C 	C 	0.03237	0.57009	0.69877	0.054
Mof_C 	C 	0.8334	0.9054	0.4066	0.043
Mof_C 	C 	0.1006	0.6474	0.0726	-0.003
Mof_C 	C 	0.4066	0.8546	0.8334	0.015
Mof_C 	C 	0.38707	0.96805	0.25781	-0.065
Mof_C 	C 	0.0666	0.7068	0.0112	-0.006
Mof_C 	C 	0.8546	0.8334	0.9054	0.036
Mof_C 	C 	0.56876	0.56876	0.02518	0.357
Mof_C 	C 	0.1454	0.5934	0.0946	-0.003
Mof_C 	C 	0.61293	0.61293	0.03195	-0.116
Mof_C 	C 	0.8373	0.02518	0.56876	0.349
Mof_C 	C 	0.9054	0.8334	0.4066	0.043
Mof_C 	C 	0.2932	0.9334	0.7846	0.086
Mof_C 	C 	0.7068	0.2154	0.0112	-0.001
Mof_C 	C 	0.1454	0.1666	0.5934	0.009
Mof_C 	C 	0.0726	0.6474	0.1794	-0.019
Mof_C 	C 	0.5934	0.1454	0.1666	0.009
Mof_C 	C 	0.2154	0.7068	0.0666	0.031
Mof_C 	C 	0.5934	0.1454	0.0946	-0.003
Mof_C 	C 	0.30123	0.96763	0.30123	0.022
Mof_C 	C 	0.56876	0.8373	0.02518	0.349
Mof_C 	C 	0.8994	0.8206	0.9274	-0.039
Mof_C 	C 	0.1666	0.5934	0.0946	-0.009
Mof_C 	C 	0.9274	0.3526	0.8206	-0.016
Mof_C 	C 	0.1454	0.5934	0.1666	0.009
Mof_C 	C 	0.30123	0.42991	0.30123	0.046
Mof_C 	C 	0.1006	0.0726	0.6474	-0.003
Mof_C 	C 	0.1006	0.1794	0.6474	-0.001
Mof_C 	C 	0.8334	0.8546	0.4066	0.015
Mof_C 	C 	0.8546	0.4066	0.8334	0.015
Mof_C 	C 	0.30123	0.30123	0.42991	0.046
Mof_C 	C 	0.1006	0.0726	0.1794	-0.003
Mof_C 	C 	0.42991	0.30123	0.96763	0.022
Mof_C 	C 	0.38707	0.25781	0.38707	-0.107
Mof_C 	C 	0.9054	0.8334	0.8546	0.036
Mof_C 	C 	0.1794	0.0726	0.1006	-0.003
Mof_C 	C 	0.25781	0.38707	0.38707	-0.107
Mof_C 	C 	0.7068	0.0666	0.2154	0.031
Mof_C 	C 	0.9054	0.4066	0.8546	0.028
Mof_C 	C 	0.9274	0.8206	0.3526	-0.016
Mof_C 	C 	0.0666	0.7068	0.2154	0.031
Mof_C 	C 	0.3526	0.9274	0.8994	-0.043
Mof_C 	C 	0.9054	0.8546	0.8334	0.036
Mof_C 	C 	0.9888	0.2932	0.7846	0.113
Mof_C 	C 	0.8334	0.9054	0.8546	0.036
Mof_C 	C 	0.9334	0.2932	0.9888	0.151
Mof_C 	C 	0.1627	0.97482	0.43124	0.335
Mof_C 	C 	0.5934	0.0946	0.1666	-0.009
Mof_C 	C 	0.74219	0.61293	0.03195	-0.108
Mof_C 	C 	0.9054	0.4066	0.8334	0.043
Mof_O 	O 	0.02141	0.61259	0.87383	-0.372
Mof_O 	O 	0.49217	0.02141	0.87383	-0.374
Mof_O 	O 	0.12617	0.50783	0.38741	-0.401
Mof_O 	O 	0.61259	0.02141	0.49217	-0.41
Mof_O 	O 	2.49512e-17	0.3127	0.6873	-0.313
Mof_O 	O 	0.02141	0.49217	0.61259	-0.41
Mof_O 	O 	-0	0.6873	-0	-0.37
Mof_O 	O 	0.61259	0.02141	0.87383	-0.372
Mof_O 	O 	0.87383	0.61259	0.49217	-0.351
Mof_O 	O 	0.38741	0.97859	0.50783	-0.339
Mof_O 	O 	0.49217	0.87383	0.61259	-0.351
Mof_O 	O 	0.38741	0.97859	0.12617	-0.348
Mof_O 	O 	0.87383	0.61259	0.02141	-0.372
Mof_O 	O 	0.61259	0.49217	0.87383	-0.351
Mof_O 	O 	0.49217	0.61259	0.02141	-0.41
Mof_O 	O 	0.97859	0.12617	0.50783	-0.348
Mof_O 	O 	0.3127	0	-0	-0.376
Mof_O 	O 	0.50783	0.12617	0.38741	-0.401
Mof_O 	O 	0.12617	0.38741	0.50783	-0.401
Mof_O 	O 	0.97859	0.38741	0.12617	-0.348
Mof_O 	O 	0.97859	0.50783	0.38741	-0.339
Mof_O 	O 	0.6873	1.24756e-17	0.3127	-0.313
Mof_O 	O 	0.3127	0	0.6873	-0.313
Mof_O 	O 	0.12617	0.97859	0.38741	-0.348
Mof_O 	O 	0.38741	0.50783	0.12617	-0.401
Mof_O 	O 	0.87383	0.49217	0.61259	-0.351
Mof_O 	O 	0.50783	0.12617	0.97859	-0.348
Mof_O 	O 	0.50783	0.38741	0.12617	-0.401
Mof_O 	O 	0.38741	0.12617	0.50783	-0.401
Mof_O 	O 	0.50783	0.97859	0.12617	-0.348
Mof_O 	O 	0.3127	0.6873	-0	-0.313
Mof_O 	O 	0.97859	0.50783	0.12617	-0.348
Mof_O 	O 	0.50783	0.38741	0.97859	-0.339
Mof_O 	O 	0.12617	0.50783	0.97859	-0.348
Mof_O 	O 	0.02141	0.61259	0.49217	-0.41
Mof_O 	O 	0.87383	0.02141	0.49217	-0.374
Mof_O 	O 	0.49217	0.87383	0.02141	-0.374
Mof_O 	O 	0.02141	0.87383	0.49217	-0.374
Mof_O 	O 	0.50783	0.97859	0.38741	-0.339
Mof_O 	O 	0.49217	0.61259	0.87383	-0.351
Mof_O 	O 	0.12617	0.97859	0.50783	-0.348
Mof_O 	O 	0.97859	0.12617	0.38741	-0.348
Mof_O 	O 	0.61259	0.87383	0.02141	-0.372
Mof_O 	O 	-0	0.3127	-0	-0.376
Mof_O 	O 	0.87383	0.02141	0.61259	-0.372
Mof_O 	O 	0.49217	0.02141	0.61259	-0.41
Mof_O 	O 	0.02141	0.87383	0.61259	-0.372
Mof_O 	O 	0.6873	0	-0	-0.37
Mof_O 	O 	0.12617	0.38741	0.97859	-0.348
Mof_O 	O 	-2.49512e-17	0	0.6873	-0.37
Mof_O 	O 	8.73291e-17	0.6873	0.3127	-0.313
Mof_O 	O 	0.02141	0.49217	0.87383	-0.374
Mof_O 	O 	0.61259	0.87383	0.49217	-0.351
Mof_O 	O 	0.61259	0.49217	0.02141	-0.41
Mof_O 	O 	0.97859	0.38741	0.50783	-0.339
Mof_O 	O 	0.6873	0.3127	-0	-0.313
Mof_O 	O 	0.38741	0.50783	0.97859	-0.339
Mof_O 	O 	0.87383	0.49217	0.02141	-0.374
Mof_O 	O 	-1.24756e-17	1.24756e-17	0.3127	-0.376
Mof_O 	O 	0.38741	0.12617	0.97859	-0.348
_end
