data_functionalizedCrystal
_audit_creation_method	'EQeq! by Chris Wilmer'
_symmetry_space_group_name_H-M	'P1'
_symmetry_Int_Tables_number	1
_symmetry_cell_setting	triclinic
loop_
_symmetry_equiv_pos_as_xyz
  x,y,z
_cell_length_a	21.7672
_cell_length_b	19.633
_cell_length_c	29.4028
_cell_angle_alpha	90
_cell_angle_beta	99.478
_cell_angle_gamma	90
loop_
_atom_site_label
_atom_site_type_symbol
_atom_site_fract_x
_atom_site_fract_y
_atom_site_fract_z
_atom_site_charge
Mof_Zn	Zn	0.69148	0.25752	0.51808	1.195
Mof_Zn	Zn	0.8075	0.19318	0.49533	1.196
Mof_Zn	Zn	0.52373	0.47481	0.20486	1.196
Mof_O 	O 	0.68018	0.15426	0.50813	-0.488
Mof_O 	O 	0.76353	0.1014	0.48887	-0.462
Mof_O 	O 	0.6616	0.27171	0.44921	-0.463
Mof_O 	O 	0.75053	0.22377	0.43609	-0.484
Mof_O 	O 	0.74399	0.2365	0.58012	-0.483
Mof_O 	O 	0.82589	0.17717	0.56378	-0.473
Mof_O 	O 	0.75934	0.84609	0.48393	-0.466
Mof_O 	O 	0.67095	0.79382	0.49316	-0.482
Mof_O 	O 	0.53516	0.39852	0.3181	-0.468
Mof_O 	O 	0.57329	0.40721	0.25203	-0.481
Mof_O 	O 	0.92975	0.05109	0.75903	-0.487
Mof_O 	O 	0.95057	0.04069	0.68712	-0.464
Mof_N 	N 	0.51286	0.97184	0.49974	-0.088
Mof_N 	N 	0.7544	0.23989	0.27015	-0.089
Mof_N 	N 	0.77134	0.23037	0.75644	-0.087
Mof_C 	C 	0.70864	0.10266	0.49756	0.385
Mof_C 	C 	0.67395	0.03624	0.49565	-0.079
Mof_C 	C 	0.70371	0.9742	0.491	0.022
Mof_H 	H 	0.7455	0.9736	0.4878	0.046
Mof_C 	C 	0.67124	0.91342	0.49115	-0.081
Mof_C 	C 	0.60821	0.9146	0.49467	-0.053
Mof_H 	H 	0.5863	0.874	0.495	0.064
Mof_C 	C 	0.57807	0.97656	0.49765	0.081
Mof_C 	C 	0.61104	0.03679	0.49888	-0.053
Mof_H 	H 	0.591	0.078	0.5019	0.07
Mof_C 	C 	0.69953	0.25445	0.42357	0.384
Mof_C 	C 	0.68453	0.27262	0.37339	-0.078
Mof_C 	C 	0.7231	0.2489	0.34334	-0.056
Mof_H 	H 	0.7564	0.2204	0.3543	0.065
Mof_C 	C 	0.71221	0.2674	0.2974	0.084
Mof_C 	C 	0.66301	0.3107	0.2807	-0.056
Mof_H 	H 	0.6562	0.3236	0.2499	0.071
Mof_C 	C 	0.62443	0.33436	0.31005	-0.075
Mof_C 	C 	0.63481	0.31455	0.35623	0.019
Mof_H 	H 	0.6081	0.3296	0.3757	0.047
Mof_C 	C 	0.57311	0.38404	0.29166	0.385
Mof_C 	C 	0.79239	0.20134	0.59108	0.387
Mof_C 	C 	0.81168	0.18525	0.64145	-0.08
Mof_C 	C 	0.78142	0.2166	0.6737	-0.052
Mof_H 	H 	0.75	0.2482	0.6644	0.07
Mof_C 	C 	0.79853	0.2003	0.72023	0.081
Mof_C 	C 	0.84391	0.1519	0.734	-0.054
Mof_H 	H 	0.8541	0.1403	0.765	0.065
Mof_C 	C 	0.8744	0.12024	0.70161	-0.082
Mof_C 	C 	0.85872	0.13812	0.65553	0.022
Mof_H 	H 	0.8799	0.1184	0.6338	0.046
Mof_C 	C 	0.92229	0.06649	0.71689	0.388
Mof_C 	C 	0.70326	0.84581	0.48899	0.39
Mof_Zn	Zn	0.19148	0.75752	0.01808	1.196
Mof_Zn	Zn	0.3075	0.69318	0.99533	1.197
Mof_Zn	Zn	0.02373	0.97481	0.70486	1.197
Mof_O 	O 	0.18018	0.65426	0.00813	-0.487
Mof_O 	O 	0.26353	0.6014	0.98887	-0.461
Mof_O 	O 	0.1616	0.77171	0.94921	-0.462
Mof_O 	O 	0.25053	0.72377	0.93609	-0.484
Mof_O 	O 	0.24399	0.7365	0.08012	-0.483
Mof_O 	O 	0.32589	0.67717	0.06378	-0.473
Mof_O 	O 	0.25934	0.34609	0.98393	-0.465
Mof_O 	O 	0.17095	0.29382	0.99316	-0.481
Mof_O 	O 	0.03516	0.89852	0.8181	-0.468
Mof_O 	O 	0.07329	0.90721	0.75203	-0.481
Mof_O 	O 	0.42975	0.55109	0.25903	-0.488
Mof_O 	O 	0.45057	0.54069	0.18712	-0.464
Mof_N 	N 	0.01286	0.47184	0.99974	-0.088
Mof_N 	N 	0.2544	0.73989	0.77015	-0.089
Mof_N 	N 	0.27134	0.73037	0.25644	-0.087
Mof_C 	C 	0.20864	0.60266	0.99756	0.385
Mof_C 	C 	0.17395	0.53624	0.99565	-0.079
Mof_C 	C 	0.20371	0.4742	0.991	0.022
Mof_H 	H 	0.2455	0.4736	0.9878	0.046
Mof_C 	C 	0.17124	0.41342	0.99115	-0.081
Mof_C 	C 	0.10821	0.4146	0.99467	-0.053
Mof_H 	H 	0.0863	0.374	0.995	0.065
Mof_C 	C 	0.07807	0.47656	0.99765	0.081
Mof_C 	C 	0.11104	0.53679	0.99888	-0.052
Mof_H 	H 	0.091	0.578	0.0019	0.069
Mof_C 	C 	0.19953	0.75445	0.92357	0.384
Mof_C 	C 	0.18453	0.77262	0.87339	-0.078
Mof_C 	C 	0.2231	0.7489	0.84334	-0.056
Mof_H 	H 	0.2564	0.7204	0.8543	0.065
Mof_C 	C 	0.21221	0.7674	0.7974	0.084
Mof_C 	C 	0.16301	0.8107	0.7807	-0.056
Mof_H 	H 	0.1562	0.8236	0.7499	0.071
Mof_C 	C 	0.12443	0.83436	0.81005	-0.075
Mof_C 	C 	0.13481	0.81455	0.85623	0.019
Mof_H 	H 	0.1081	0.8296	0.8757	0.047
Mof_C 	C 	0.07311	0.88404	0.79166	0.385
Mof_C 	C 	0.29239	0.70134	0.09108	0.387
Mof_C 	C 	0.31168	0.68525	0.14145	-0.08
Mof_C 	C 	0.28142	0.7166	0.1737	-0.052
Mof_H 	H 	0.25	0.7482	0.1644	0.07
Mof_C 	C 	0.29853	0.7003	0.22023	0.081
Mof_C 	C 	0.34391	0.6519	0.234	-0.054
Mof_H 	H 	0.3541	0.6403	0.265	0.065
Mof_C 	C 	0.3744	0.62024	0.20161	-0.082
Mof_C 	C 	0.35872	0.63812	0.15553	0.022
Mof_H 	H 	0.3799	0.6184	0.1338	0.046
Mof_C 	C 	0.42229	0.56649	0.21689	0.388
Mof_C 	C 	0.20326	0.34581	0.98899	0.39
Mof_Zn	Zn	0.30852	0.25752	0.98192	1.196
Mof_Zn	Zn	0.1925	0.19318	0.00467	1.196
Mof_Zn	Zn	0.47627	0.47481	0.29514	1.197
Mof_O 	O 	0.31982	0.15426	0.99187	-0.485
Mof_O 	O 	0.23647	0.1014	0.01113	-0.461
Mof_O 	O 	0.3384	0.27171	0.05079	-0.463
Mof_O 	O 	0.24947	0.22377	0.06391	-0.485
Mof_O 	O 	0.25601	0.2365	0.91988	-0.483
Mof_O 	O 	0.17411	0.17717	0.93622	-0.472
Mof_O 	O 	0.24066	0.84609	0.01607	-0.465
Mof_O 	O 	0.32905	0.79382	0.00684	-0.482
Mof_O 	O 	0.46484	0.39852	0.1819	-0.468
Mof_O 	O 	0.42671	0.40721	0.24797	-0.481
Mof_O 	O 	0.07025	0.05109	0.74097	-0.487
Mof_O 	O 	0.04943	0.04069	0.81288	-0.464
Mof_N 	N 	0.48714	0.97184	0.00026	-0.088
Mof_N 	N 	0.2456	0.23989	0.22985	-0.089
Mof_N 	N 	0.22866	0.23037	0.74356	-0.087
Mof_C 	C 	0.29136	0.10266	0.00244	0.382
Mof_C 	C 	0.32605	0.03624	0.00435	-0.078
Mof_C 	C 	0.29629	0.9742	0.009	0.022
Mof_H 	H 	0.2545	0.9736	0.0122	0.046
Mof_C 	C 	0.32876	0.91342	0.00885	-0.08
Mof_C 	C 	0.39179	0.9146	0.00533	-0.055
Mof_H 	H 	0.4137	0.874	0.005	0.065
Mof_C 	C 	0.42193	0.97656	0.00235	0.085
Mof_C 	C 	0.38896	0.03679	0.00112	-0.06
Mof_H 	H 	0.409	0.078	0.9981	0.073
Mof_C 	C 	0.30047	0.25445	0.07643	0.384
Mof_C 	C 	0.31547	0.27262	0.12661	-0.078
Mof_C 	C 	0.2769	0.2489	0.15666	-0.056
Mof_H 	H 	0.2436	0.2204	0.1457	0.065
Mof_C 	C 	0.28779	0.2674	0.2026	0.084
Mof_C 	C 	0.33699	0.3107	0.2193	-0.056
Mof_H 	H 	0.3438	0.3236	0.2501	0.071
Mof_C 	C 	0.37557	0.33436	0.18995	-0.075
Mof_C 	C 	0.36519	0.31455	0.14377	0.019
Mof_H 	H 	0.3919	0.3296	0.1243	0.047
Mof_C 	C 	0.42689	0.38404	0.20834	0.385
Mof_C 	C 	0.20761	0.20134	0.90892	0.387
Mof_C 	C 	0.18832	0.18525	0.85855	-0.08
Mof_C 	C 	0.21858	0.2166	0.8263	-0.052
Mof_H 	H 	0.25	0.2482	0.8356	0.07
Mof_C 	C 	0.20147	0.2003	0.77977	0.081
Mof_C 	C 	0.15609	0.1519	0.766	-0.054
Mof_H 	H 	0.1459	0.1403	0.735	0.066
Mof_C 	C 	0.1256	0.12024	0.79839	-0.081
Mof_C 	C 	0.14128	0.13812	0.84447	0.022
Mof_H 	H 	0.1201	0.1184	0.8662	0.046
Mof_C 	C 	0.07771	0.06649	0.78311	0.388
Mof_C 	C 	0.29674	0.84581	0.01101	0.389
Mof_Zn	Zn	0.80852	0.75752	0.48192	1.196
Mof_Zn	Zn	0.6925	0.69318	0.50467	1.197
Mof_Zn	Zn	0.97627	0.97481	0.79514	1.196
Mof_O 	O 	0.81982	0.65426	0.49187	-0.487
Mof_O 	O 	0.73647	0.6014	0.51113	-0.461
Mof_O 	O 	0.8384	0.77171	0.55079	-0.462
Mof_O 	O 	0.74947	0.72377	0.56391	-0.484
Mof_O 	O 	0.75601	0.7365	0.41988	-0.483
Mof_O 	O 	0.67411	0.67717	0.43622	-0.473
Mof_O 	O 	0.74066	0.34609	0.51607	-0.466
Mof_O 	O 	0.82905	0.29382	0.50684	-0.482
Mof_O 	O 	0.96484	0.89852	0.6819	-0.468
Mof_O 	O 	0.92671	0.90721	0.74797	-0.482
Mof_O 	O 	0.57025	0.55109	0.24097	-0.488
Mof_O 	O 	0.54943	0.54069	0.31288	-0.464
Mof_N 	N 	0.98714	0.47184	0.50026	-0.088
Mof_N 	N 	0.7456	0.73989	0.72985	-0.089
Mof_N 	N 	0.72866	0.73037	0.24356	-0.087
Mof_C 	C 	0.79136	0.60266	0.50244	0.385
Mof_C 	C 	0.82605	0.53624	0.50435	-0.079
Mof_C 	C 	0.79629	0.4742	0.509	0.022
Mof_H 	H 	0.7545	0.4736	0.5122	0.046
Mof_C 	C 	0.82876	0.41342	0.50885	-0.081
Mof_C 	C 	0.89179	0.4146	0.50533	-0.053
Mof_H 	H 	0.9137	0.374	0.505	0.064
Mof_C 	C 	0.92193	0.47656	0.50235	0.081
Mof_C 	C 	0.88896	0.53679	0.50112	-0.053
Mof_H 	H 	0.909	0.578	0.4981	0.07
Mof_C 	C 	0.80047	0.75445	0.57643	0.384
Mof_C 	C 	0.81547	0.77262	0.62661	-0.078
Mof_C 	C 	0.7769	0.7489	0.65666	-0.056
Mof_H 	H 	0.7436	0.7204	0.6457	0.065
Mof_C 	C 	0.78779	0.7674	0.7026	0.084
Mof_C 	C 	0.83699	0.8107	0.7193	-0.056
Mof_H 	H 	0.8438	0.8236	0.7501	0.071
Mof_C 	C 	0.87557	0.83436	0.68995	-0.075
Mof_C 	C 	0.86519	0.81455	0.64377	0.019
Mof_H 	H 	0.8919	0.8296	0.6243	0.047
Mof_C 	C 	0.92689	0.88404	0.70834	0.385
Mof_C 	C 	0.70761	0.70134	0.40892	0.387
Mof_C 	C 	0.68832	0.68525	0.35855	-0.08
Mof_C 	C 	0.71858	0.7166	0.3263	-0.052
Mof_H 	H 	0.75	0.7482	0.3356	0.07
Mof_C 	C 	0.70147	0.7003	0.27977	0.081
Mof_C 	C 	0.65609	0.6519	0.266	-0.054
Mof_H 	H 	0.6459	0.6403	0.235	0.065
Mof_C 	C 	0.6256	0.62024	0.29839	-0.082
Mof_C 	C 	0.64128	0.63812	0.34447	0.022
Mof_H 	H 	0.6201	0.6184	0.3662	0.046
Mof_C 	C 	0.57771	0.56649	0.28311	0.388
Mof_C 	C 	0.79674	0.34581	0.51101	0.39
Mof_Zn	Zn	0.30852	0.74248	0.48192	1.196
Mof_Zn	Zn	0.1925	0.80682	0.50467	1.197
Mof_Zn	Zn	0.47627	0.52519	0.79514	1.197
Mof_O 	O 	0.31982	0.84574	0.49187	-0.487
Mof_O 	O 	0.23647	0.8986	0.51113	-0.461
Mof_O 	O 	0.3384	0.72829	0.55079	-0.462
Mof_O 	O 	0.24947	0.77623	0.56391	-0.484
Mof_O 	O 	0.25601	0.7635	0.41988	-0.483
Mof_O 	O 	0.17411	0.82283	0.43622	-0.473
Mof_O 	O 	0.24066	0.15391	0.51607	-0.466
Mof_O 	O 	0.32905	0.20618	0.50684	-0.482
Mof_O 	O 	0.46484	0.60148	0.6819	-0.468
Mof_O 	O 	0.42671	0.59279	0.74797	-0.481
Mof_O 	O 	0.07025	0.94891	0.24097	-0.487
Mof_O 	O 	0.04943	0.95931	0.31288	-0.464
Mof_N 	N 	0.48714	0.02816	0.50026	-0.088
Mof_N 	N 	0.2456	0.76011	0.72985	-0.089
Mof_N 	N 	0.22866	0.76963	0.24356	-0.087
Mof_C 	C 	0.29136	0.89734	0.50244	0.385
Mof_C 	C 	0.32605	0.96376	0.50435	-0.079
Mof_C 	C 	0.29629	0.0258	0.509	0.022
Mof_H 	H 	0.2545	0.0264	0.5122	0.046
Mof_C 	C 	0.32876	0.08658	0.50885	-0.081
Mof_C 	C 	0.39179	0.0854	0.50533	-0.053
Mof_H 	H 	0.4137	0.126	0.505	0.064
Mof_C 	C 	0.42193	0.02344	0.50235	0.081
Mof_C 	C 	0.38896	0.96321	0.50112	-0.053
Mof_H 	H 	0.409	0.922	0.4981	0.07
Mof_C 	C 	0.30047	0.74555	0.57643	0.384
Mof_C 	C 	0.31547	0.72738	0.62661	-0.078
Mof_C 	C 	0.2769	0.7511	0.65666	-0.056
Mof_H 	H 	0.2436	0.7796	0.6457	0.065
Mof_C 	C 	0.28779	0.7326	0.7026	0.084
Mof_C 	C 	0.33699	0.6893	0.7193	-0.056
Mof_H 	H 	0.3438	0.6764	0.7501	0.071
Mof_C 	C 	0.37557	0.66564	0.68995	-0.075
Mof_C 	C 	0.36519	0.68545	0.64377	0.019
Mof_H 	H 	0.3919	0.6704	0.6243	0.047
Mof_C 	C 	0.42689	0.61596	0.70834	0.385
Mof_C 	C 	0.20761	0.79866	0.40892	0.387
Mof_C 	C 	0.18832	0.81475	0.35855	-0.08
Mof_C 	C 	0.21858	0.7834	0.3263	-0.052
Mof_H 	H 	0.25	0.7518	0.3356	0.07
Mof_C 	C 	0.20147	0.7997	0.27977	0.081
Mof_C 	C 	0.15609	0.8481	0.266	-0.054
Mof_H 	H 	0.1459	0.8597	0.235	0.065
Mof_C 	C 	0.1256	0.87976	0.29839	-0.082
Mof_C 	C 	0.14128	0.86188	0.34447	0.022
Mof_H 	H 	0.1201	0.8816	0.3662	0.046
Mof_C 	C 	0.07771	0.93351	0.28311	0.388
Mof_C 	C 	0.29674	0.15419	0.51101	0.39
Mof_Zn	Zn	0.80852	0.24248	0.98192	1.196
Mof_Zn	Zn	0.6925	0.30682	0.00467	1.197
Mof_Zn	Zn	0.97627	0.02519	0.29514	1.197
Mof_O 	O 	0.81982	0.34574	0.99187	-0.487
Mof_O 	O 	0.73647	0.3986	0.01113	-0.461
Mof_O 	O 	0.8384	0.22829	0.05079	-0.462
Mof_O 	O 	0.74947	0.27623	0.06391	-0.484
Mof_O 	O 	0.75601	0.2635	0.91988	-0.483
Mof_O 	O 	0.67411	0.32283	0.93622	-0.473
Mof_O 	O 	0.74066	0.65391	0.01607	-0.465
Mof_O 	O 	0.82905	0.70618	0.00684	-0.481
Mof_O 	O 	0.96484	0.10148	0.1819	-0.468
Mof_O 	O 	0.92671	0.09279	0.24797	-0.481
Mof_O 	O 	0.57025	0.44891	0.74097	-0.488
Mof_O 	O 	0.54943	0.45931	0.81288	-0.464
Mof_N 	N 	0.98714	0.52816	0.00026	-0.088
Mof_N 	N 	0.7456	0.26011	0.22985	-0.089
Mof_N 	N 	0.72866	0.26963	0.74356	-0.087
Mof_C 	C 	0.79136	0.39734	0.00244	0.385
Mof_C 	C 	0.82605	0.46376	0.00435	-0.079
Mof_C 	C 	0.79629	0.5258	0.009	0.022
Mof_H 	H 	0.7545	0.5264	0.0122	0.046
Mof_C 	C 	0.82876	0.58658	0.00885	-0.081
Mof_C 	C 	0.89179	0.5854	0.00533	-0.053
Mof_H 	H 	0.9137	0.626	0.005	0.065
Mof_C 	C 	0.92193	0.52344	0.00235	0.081
Mof_C 	C 	0.88896	0.46321	0.00112	-0.052
Mof_H 	H 	0.909	0.422	0.9981	0.069
Mof_C 	C 	0.80047	0.24555	0.07643	0.384
Mof_C 	C 	0.81547	0.22738	0.12661	-0.078
Mof_C 	C 	0.7769	0.2511	0.15666	-0.056
Mof_H 	H 	0.7436	0.2796	0.1457	0.065
Mof_C 	C 	0.78779	0.2326	0.2026	0.084
Mof_C 	C 	0.83699	0.1893	0.2193	-0.056
Mof_H 	H 	0.8438	0.1764	0.2501	0.071
Mof_C 	C 	0.87557	0.16564	0.18995	-0.075
Mof_C 	C 	0.86519	0.18545	0.14377	0.019
Mof_H 	H 	0.8919	0.1704	0.1243	0.047
Mof_C 	C 	0.92689	0.11596	0.20834	0.385
Mof_C 	C 	0.70761	0.29866	0.90892	0.387
Mof_C 	C 	0.68832	0.31475	0.85855	-0.08
Mof_C 	C 	0.71858	0.2834	0.8263	-0.052
Mof_H 	H 	0.75	0.2518	0.8356	0.07
Mof_C 	C 	0.70147	0.2997	0.77977	0.081
Mof_C 	C 	0.65609	0.3481	0.766	-0.054
Mof_H 	H 	0.6459	0.3597	0.735	0.065
Mof_C 	C 	0.6256	0.37976	0.79839	-0.082
Mof_C 	C 	0.64128	0.36188	0.84447	0.022
Mof_H 	H 	0.6201	0.3816	0.8662	0.046
Mof_C 	C 	0.57771	0.43351	0.78311	0.388
Mof_C 	C 	0.79674	0.65419	0.01101	0.39
Mof_Zn	Zn	0.69148	0.74248	0.01808	1.196
Mof_Zn	Zn	0.8075	0.80682	0.99533	1.196
Mof_Zn	Zn	0.52373	0.52519	0.70486	1.197
Mof_O 	O 	0.68018	0.84574	0.00813	-0.485
Mof_O 	O 	0.76353	0.8986	0.98887	-0.461
Mof_O 	O 	0.6616	0.72829	0.94921	-0.463
Mof_O 	O 	0.75053	0.77623	0.93609	-0.485
Mof_O 	O 	0.74399	0.7635	0.08012	-0.483
Mof_O 	O 	0.82589	0.82283	0.06378	-0.472
Mof_O 	O 	0.75934	0.15391	0.98393	-0.465
Mof_O 	O 	0.67095	0.20618	0.99316	-0.482
Mof_O 	O 	0.53516	0.60148	0.8181	-0.468
Mof_O 	O 	0.57329	0.59279	0.75203	-0.481
Mof_O 	O 	0.92975	0.94891	0.25903	-0.487
Mof_O 	O 	0.95057	0.95931	0.18712	-0.464
Mof_N 	N 	0.51286	0.02816	0.99974	-0.088
Mof_N 	N 	0.7544	0.76011	0.77015	-0.089
Mof_N 	N 	0.77134	0.76963	0.25644	-0.087
Mof_C 	C 	0.70864	0.89734	0.99756	0.382
Mof_C 	C 	0.67395	0.96376	0.99565	-0.078
Mof_C 	C 	0.70371	0.0258	0.991	0.022
Mof_H 	H 	0.7455	0.0264	0.9878	0.046
Mof_C 	C 	0.67124	0.08658	0.99115	-0.08
Mof_C 	C 	0.60821	0.0854	0.99467	-0.055
Mof_H 	H 	0.5863	0.126	0.995	0.065
Mof_C 	C 	0.57807	0.02344	0.99765	0.085
Mof_C 	C 	0.61104	0.96321	0.99888	-0.06
Mof_H 	H 	0.591	0.922	0.0019	0.073
Mof_C 	C 	0.69953	0.74555	0.92357	0.384
Mof_C 	C 	0.68453	0.72738	0.87339	-0.078
Mof_C 	C 	0.7231	0.7511	0.84334	-0.056
Mof_H 	H 	0.7564	0.7796	0.8543	0.065
Mof_C 	C 	0.71221	0.7326	0.7974	0.084
Mof_C 	C 	0.66301	0.6893	0.7807	-0.056
Mof_H 	H 	0.6562	0.6764	0.7499	0.071
Mof_C 	C 	0.62443	0.66564	0.81005	-0.075
Mof_C 	C 	0.63481	0.68545	0.85623	0.019
Mof_H 	H 	0.6081	0.6704	0.8757	0.047
Mof_C 	C 	0.57311	0.61596	0.79166	0.385
Mof_C 	C 	0.79239	0.79866	0.09108	0.387
Mof_C 	C 	0.81168	0.81475	0.14145	-0.08
Mof_C 	C 	0.78142	0.7834	0.1737	-0.052
Mof_H 	H 	0.75	0.7518	0.1644	0.07
Mof_C 	C 	0.79853	0.7997	0.22023	0.081
Mof_C 	C 	0.84391	0.8481	0.234	-0.054
Mof_H 	H 	0.8541	0.8597	0.265	0.066
Mof_C 	C 	0.8744	0.87976	0.20161	-0.081
Mof_C 	C 	0.85872	0.86188	0.15553	0.022
Mof_H 	H 	0.8799	0.8816	0.1338	0.046
Mof_C 	C 	0.92229	0.93351	0.21689	0.388
Mof_C 	C 	0.70326	0.15419	0.98899	0.389
Mof_Zn	Zn	0.19148	0.24248	0.51808	1.196
Mof_Zn	Zn	0.3075	0.30682	0.49533	1.197
Mof_Zn	Zn	0.02373	0.02519	0.20486	1.196
Mof_O 	O 	0.18018	0.34574	0.50813	-0.487
Mof_O 	O 	0.26353	0.3986	0.48887	-0.461
Mof_O 	O 	0.1616	0.22829	0.44921	-0.462
Mof_O 	O 	0.25053	0.27623	0.43609	-0.484
Mof_O 	O 	0.24399	0.2635	0.58012	-0.483
Mof_O 	O 	0.32589	0.32283	0.56378	-0.473
Mof_O 	O 	0.25934	0.65391	0.48393	-0.466
Mof_O 	O 	0.17095	0.70618	0.49316	-0.482
Mof_O 	O 	0.03516	0.10148	0.3181	-0.468
Mof_O 	O 	0.07329	0.09279	0.25203	-0.482
Mof_O 	O 	0.42975	0.44891	0.75903	-0.488
Mof_O 	O 	0.45057	0.45931	0.68712	-0.464
Mof_N 	N 	0.01286	0.52816	0.49974	-0.088
Mof_N 	N 	0.2544	0.26011	0.27015	-0.089
Mof_N 	N 	0.27134	0.26963	0.75644	-0.087
Mof_C 	C 	0.20864	0.39734	0.49756	0.385
Mof_C 	C 	0.17395	0.46376	0.49565	-0.079
Mof_C 	C 	0.20371	0.5258	0.491	0.022
Mof_H 	H 	0.2455	0.5264	0.4878	0.046
Mof_C 	C 	0.17124	0.58658	0.49115	-0.081
Mof_C 	C 	0.10821	0.5854	0.49467	-0.053
Mof_H 	H 	0.0863	0.626	0.495	0.064
Mof_C 	C 	0.07807	0.52344	0.49765	0.081
Mof_C 	C 	0.11104	0.46321	0.49888	-0.053
Mof_H 	H 	0.091	0.422	0.5019	0.07
Mof_C 	C 	0.19953	0.24555	0.42357	0.384
Mof_C 	C 	0.18453	0.22738	0.37339	-0.078
Mof_C 	C 	0.2231	0.2511	0.34334	-0.056
Mof_H 	H 	0.2564	0.2796	0.3543	0.065
Mof_C 	C 	0.21221	0.2326	0.2974	0.084
Mof_C 	C 	0.16301	0.1893	0.2807	-0.056
Mof_H 	H 	0.1562	0.1764	0.2499	0.071
Mof_C 	C 	0.12443	0.16564	0.31005	-0.075
Mof_C 	C 	0.13481	0.18545	0.35623	0.019
Mof_H 	H 	0.1081	0.1704	0.3757	0.047
Mof_C 	C 	0.07311	0.11596	0.29166	0.385
Mof_C 	C 	0.29239	0.29866	0.59108	0.387
Mof_C 	C 	0.31168	0.31475	0.64145	-0.08
Mof_C 	C 	0.28142	0.2834	0.6737	-0.052
Mof_H 	H 	0.25	0.2518	0.6644	0.07
Mof_C 	C 	0.29853	0.2997	0.72023	0.081
Mof_C 	C 	0.34391	0.3481	0.734	-0.054
Mof_H 	H 	0.3541	0.3597	0.765	0.065
Mof_C 	C 	0.3744	0.37976	0.70161	-0.082
Mof_C 	C 	0.35872	0.36188	0.65553	0.022
Mof_H 	H 	0.3799	0.3816	0.6338	0.046
Mof_C 	C 	0.42229	0.43351	0.71689	0.388
Mof_C 	C 	0.20326	0.65419	0.48899	0.39
_end
