data_functionalizedCrystal
_audit_creation_method	'EQeq! by Chris Wilmer'
_symmetry_space_group_name_H-M	'P1'
_symmetry_Int_Tables_number	1
_symmetry_cell_setting	triclinic
loop_
_symmetry_equiv_pos_as_xyz
  x,y,z
_cell_length_a	18.695
_cell_length_b	20.122
_cell_length_c	21.068
_cell_angle_alpha	111.924
_cell_angle_beta	92.824
_cell_angle_gamma	94.973
loop_
_atom_site_label
_atom_site_type_symbol
_atom_site_fract_x
_atom_site_fract_y
_atom_site_fract_z
_atom_site_charge
Mof_Si	Si	0.1019	0.633	0.5834	0.894
Mof_C 	C 	0.0187	0.6274	0.6278	-0.375
Mof_C 	C 	0.9495	0.6223	0.6007	0.21
Mof_H 	H 	0.9418	0.6153	0.5536	-0.051
Mof_C 	C 	0.8904	0.6268	0.638	-0.245
Mof_H 	H 	0.8433	0.6231	0.6169	0.11
Mof_C 	C 	0.9007	0.6366	0.7066	0.165
Mof_C 	C 	0.9693	0.6422	0.7358	-0.235
Mof_H 	H 	0.9768	0.6505	0.7832	0.098
Mof_C 	C 	0.0272	0.6359	0.6971	0.191
Mof_H 	H 	0.074	0.6373	0.7176	-0.052
Mof_C 	C 	0.8421	0.6476	0.7484	-0.075
Mof_N 	N 	0.624	0.7146	0.9172	-0.218
Mof_C 	C 	0.6743	0.6746	0.9254	0.07
Mof_H 	H 	0.6719	0.659	0.9627	-0.024
Mof_C 	C 	0.7306	0.6538	0.8828	-0.144
Mof_H 	H 	0.7626	0.6221	0.889	0.065
Mof_C 	C 	0.7381	0.6807	0.8316	0.075
Mof_C 	C 	0.6866	0.722	0.8234	-0.146
Mof_H 	H 	0.6892	0.7396	0.7875	0.066
Mof_C 	C 	0.6306	0.7391	0.8661	0.066
Mof_H 	H 	0.5965	0.7686	0.859	-0.02
Mof_C 	C 	0.7959	0.6614	0.7868	-0.029
Mof_C 	C 	0.0825	0.6394	0.4977	-0.365
Mof_C 	C 	0.1042	0.7027	0.488	0.185
Mof_H 	H 	0.1265	0.7437	0.5257	-0.043
Mof_C 	C 	0.0936	0.7065	0.4242	-0.235
Mof_H 	H 	0.1079	0.7504	0.4186	0.106
Mof_C 	C 	0.0626	0.6478	0.3688	0.16
Mof_C 	C 	0.0405	0.5847	0.3766	-0.238
Mof_H 	H 	0.0155	0.5451	0.3393	0.107
Mof_C 	C 	0.0552	0.5797	0.4396	0.193
Mof_H 	H 	0.0463	0.5341	0.4433	-0.048
Mof_C 	C 	0.0557	0.6525	0.3026	-0.071
Mof_N 	N 	0.0252	0.7217	0.0804	-0.267
Mof_C 	C 	0.968	0.6876	0.0944	0.061
Mof_H 	H 	0.9231	0.68	0.0683	-0.041
Mof_C 	C 	0.9745	0.6625	0.1489	-0.145
Mof_H 	H 	0.9347	0.6361	0.1584	0.071
Mof_C 	C 	0.0393	0.6769	0.1874	0.08
Mof_C 	C 	0.0981	0.7108	0.1704	-0.148
Mof_H 	H 	0.1438	0.7192	0.1956	0.075
Mof_C 	C 	0.0885	0.7329	0.1147	0.072
Mof_H 	H 	0.1284	0.7561	0.1018	-0.038
Mof_C 	C 	0.0453	0.661	0.2501	-0.021
Mof_C 	C 	0.1593	0.7178	0.6423	-0.359
Mof_C 	C 	0.2333	0.7215	0.653	0.186
Mof_H 	H 	0.2563	0.6795	0.631	-0.04
Mof_C 	C 	0.2753	0.7849	0.6951	-0.23
Mof_H 	H 	0.3259	0.7861	0.7034	0.105
Mof_C 	C 	0.2412	0.8454	0.7243	0.152
Mof_C 	C 	0.1672	0.8442	0.713	-0.231
Mof_H 	H 	0.1445	0.8866	0.7336	0.101
Mof_C 	C 	0.1272	0.7803	0.6715	0.184
Mof_H 	H 	0.0767	0.7794	0.6627	-0.044
Mof_C 	C 	0.2817	0.9122	0.7667	-0.072
Mof_N 	N 	0.4186	0.168	0.9409	-0.251
Mof_C 	C 	0.348	0.1607	0.9262	0.066
Mof_H 	H 	0.3213	0.2004	0.9462	-0.023
Mof_C 	C 	0.3123	0.0933	0.8806	-0.144
Mof_H 	H 	0.2615	0.087	0.8704	0.068
Mof_C 	C 	0.3527	0.0373	0.8515	0.077
Mof_C 	C 	0.4262	0.0472	0.8632	-0.146
Mof_H 	H 	0.4543	0.0093	0.8411	0.078
Mof_C 	C 	0.4595	0.1157	0.9096	0.058
Mof_H 	H 	0.5105	0.1243	0.9184	-0.028
Mof_C 	C 	0.3164	0.9673	0.8043	-0.03
Mof_C 	C 	0.1492	0.5505	0.5678	-0.386
Mof_C 	C 	0.1311	0.5007	0.5969	0.213
Mof_H 	H 	0.0945	0.5084	0.6277	-0.058
Mof_C 	C 	0.1663	0.4396	0.5811	-0.26
Mof_H 	H 	0.1537	0.4064	0.6022	0.116
Mof_C 	C 	0.2183	0.4251	0.5365	0.179
Mof_C 	C 	0.2381	0.4748	0.5076	-0.26
Mof_H 	H 	0.275	0.467	0.477	0.127
Mof_C 	C 	0.203	0.5359	0.5241	0.22
Mof_H 	H 	0.2169	0.5698	0.5041	-0.053
Mof_C 	C 	0.2529	0.3615	0.5222	-0.083
Mof_N 	N 	0.403	0.1324	0.4762	-0.188
Mof_C 	C 	0.4374	0.1988	0.5001	0.075
Mof_H 	H 	0.4883	0.2058	0.5097	0.017
Mof_C 	C 	0.3987	0.2591	0.5114	-0.145
Mof_H 	H 	0.4231	0.3065	0.5306	0.092
Mof_C 	C 	0.3261	0.2484	0.4944	0.083
Mof_C 	C 	0.2913	0.179	0.4649	-0.146
Mof_H 	H 	0.2412	0.17	0.4508	0.08
Mof_C 	C 	0.3337	0.1223	0.4568	0.084
Mof_H 	H 	0.311	0.0742	0.4362	0.006
Mof_C 	C 	0.2847	0.3097	0.5044	-0.021
Mof_Si	Si	0.8993	0.8631	0.4151	0.914
Mof_C 	C 	0.9168	0.8596	0.5025	-0.391
Mof_C 	C 	0.9224	0.9195	0.5618	0.223
Mof_H 	H 	0.9153	0.9641	0.5582	-0.055
Mof_C 	C 	0.9377	0.9196	0.6265	-0.262
Mof_H 	H 	0.9467	0.9638	0.6652	0.117
Mof_C 	C 	0.9397	0.8548	0.6341	0.178
Mof_C 	C 	0.9336	0.7938	0.5761	-0.259
Mof_H 	H 	0.9367	0.7487	0.5803	0.115
Mof_C 	C 	0.9232	0.7955	0.5117	0.215
Mof_H 	H 	0.9204	0.7518	0.4726	-0.053
Mof_C 	C 	0.9511	0.8507	0.7004	-0.078
Mof_N 	N 	0.9961	0.7963	0.928	-0.263
Mof_C 	C 	0.9288	0.7965	0.9071	0.063
Mof_H 	H 	0.8905	0.7851	0.9307	-0.04
Mof_C 	C 	0.9141	0.814	0.8485	-0.144
Mof_H 	H 	0.8661	0.8132	0.831	0.077
Mof_C 	C 	0.972	0.8321	0.8183	0.082
Mof_C 	C 	0.0414	0.8363	0.8452	-0.151
Mof_H 	H 	0.081	0.8524	0.8261	0.075
Mof_C 	C 	0.0524	0.816	0.9022	0.073
Mof_H 	H 	0.0998	0.8167	0.9212	-0.038
Mof_C 	C 	0.9591	0.8455	0.7548	-0.016
Mof_C 	C 	0.8417	0.7776	0.3589	-0.37
Mof_C 	C 	0.7674	0.774	0.3499	0.193
Mof_H 	H 	0.7445	0.8161	0.3716	-0.045
Mof_C 	C 	0.7257	0.7099	0.3097	-0.24
Mof_H 	H 	0.6746	0.7072	0.3055	0.106
Mof_C 	C 	0.7601	0.6505	0.2761	0.16
Mof_C 	C 	0.8333	0.6521	0.282	-0.243
Mof_H 	H 	0.8561	0.6107	0.2579	0.105
Mof_C 	C 	0.8735	0.716	0.3244	0.192
Mof_H 	H 	0.9244	0.7176	0.3299	-0.044
Mof_C 	C 	0.7175	0.5866	0.229	-0.076
Mof_N 	N 	0.5377	0.3496	0.0713	-0.252
Mof_C 	C 	0.6089	0.3472	0.0664	0.052
Mof_H 	H 	0.626	0.3055	0.0347	-0.033
Mof_C 	C 	0.6589	0.407	0.1085	-0.138
Mof_H 	H 	0.7094	0.404	0.1088	0.064
Mof_C 	C 	0.6321	0.4692	0.1486	0.074
Mof_C 	C 	0.5595	0.4711	0.1531	-0.147
Mof_H 	H 	0.541	0.513	0.183	0.067
Mof_C 	C 	0.5127	0.409	0.112	0.065
Mof_H 	H 	0.4621	0.41	0.1137	-0.019
Mof_C 	C 	0.6798	0.5326	0.1938	-0.029
Mof_C 	C 	0.8528	0.9449	0.4255	-0.395
Mof_C 	C 	0.8824	0.9988	0.4041	0.208
Mof_H 	H 	0.9261	0.9934	0.3825	-0.054
Mof_C 	C 	0.8483	0.0595	0.4142	-0.26
Mof_H 	H 	0.868	0.0949	0.3983	0.117
Mof_C 	C 	0.7865	0.0691	0.447	0.178
Mof_C 	C 	0.7565	0.0169	0.469	-0.275
Mof_H 	H 	0.7126	0.0223	0.4902	0.131
Mof_C 	C 	0.7919	0.9572	0.4594	0.233
Mof_H 	H 	0.7731	0.923	0.4772	-0.059
Mof_C 	C 	0.749	0.1314	0.4587	-0.084
Mof_N 	N 	0.5971	0.3575	0.4914	-0.186
Mof_C 	C 	0.5744	0.2917	0.4454	0.07
Mof_H 	H 	0.531	0.2851	0.4173	0.019
Mof_C 	C 	0.6119	0.2318	0.4367	-0.133
Mof_H 	H 	0.5949	0.1857	0.4027	0.078
Mof_C 	C 	0.6742	0.2415	0.4789	0.077
Mof_C 	C 	0.6962	0.3084	0.5289	-0.143
Mof_H 	H 	0.738	0.3161	0.5593	0.074
Mof_C 	C 	0.6549	0.3649	0.5338	0.076
Mof_H 	H 	0.6691	0.4108	0.5691	0.01
Mof_C 	C 	0.7143	0.1805	0.4706	-0.015
Mof_C 	C 	0.9852	0.8665	0.3744	-0.387
Mof_C 	C 	0.9811	0.8612	0.3058	0.204
Mof_H 	H 	0.9354	0.8511	0.2803	-0.059
Mof_C 	C 	0.0419	0.8706	0.2752	-0.252
Mof_H 	H 	0.0382	0.8676	0.2291	0.099
Mof_C 	C 	0.1083	0.8843	0.3111	0.174
Mof_C 	C 	0.1141	0.8876	0.3779	-0.261
Mof_H 	H 	0.1601	0.8951	0.4023	0.112
Mof_C 	C 	0.053	0.8799	0.4082	0.222
Mof_H 	H 	0.0574	0.8841	0.4546	-0.055
Mof_C 	C 	0.1718	0.8983	0.2821	-0.084
Mof_N 	N 	0.4121	0.9748	0.1847	-0.14
Mof_C 	C 	0.4119	0.9914	0.2521	0.068
Mof_H 	H 	0.4525	0.0185	0.2825	0.016
Mof_C 	C 	0.3501	0.968	0.2774	-0.146
Mof_H 	H 	0.3498	0.9767	0.3249	0.094
Mof_C 	C 	0.291	0.933	0.2334	0.076
Mof_C 	C 	0.2911	0.9193	0.1644	-0.139
Mof_H 	H 	0.249	0.8981	0.1339	0.061
Mof_C 	C 	0.3565	0.938	0.1404	0.064
Mof_H 	H 	0.3604	0.924	0.0925	-0.002
Mof_C 	C 	0.2247	0.9122	0.2593	-0.02
Mof_Cu	Cu	0.46422	0.04946	0.49109	0.912
Mof_Cu	Cu	0.46973	0.26075	0.01415	0.81
Mof_Cu	Cu	0.53728	0.44702	0.49721	0.917
Mof_Cu	Cu	0.0064	0.76081	0.00691	0.787
Mof_C 	C 	0.5957	0.097	0.5738	0.544
Mof_C 	C 	0.6568	0.1542	0.6218	-0.79
Mof_H 	H 	0.6508	0.1608	0.6697	0.258
Mof_H 	H 	0.6541	0.2001	0.6162	0.263
Mof_H 	H 	0.7038	0.1374	0.6097	0.259
Mof_O 	O 	0.543	0.116	0.5509	-0.481
Mof_O 	O 	0.606	0.034	0.5682	-0.464
Mof_C 	C 	0.5687	0.9954	0.3997	0.541
Mof_C 	C 	0.6106	0.9881	0.335	-0.775
Mof_H 	H 	0.6452	0.9528	0.3291	0.264
Mof_H 	H 	0.6365	0.035	0.3414	0.258
Mof_H 	H 	0.5764	0.9721	0.294	0.259
Mof_O 	O 	0.5204	0.035	0.4094	-0.464
Mof_O 	O 	0.5839	0.951	0.4243	-0.459
Mof_C 	C 	0.5912	0.587	0.5866	0.547
Mof_C 	C 	0.6503	0.6404	0.6418	-0.785
Mof_H 	H 	0.6289	0.6631	0.6852	0.259
Mof_H 	H 	0.6696	0.6776	0.6257	0.26
Mof_H 	H 	0.6894	0.6137	0.6489	0.262
Mof_O 	O 	0.6032	0.523	0.5666	-0.477
Mof_O 	O 	0.5393	0.614	0.5717	-0.472
Mof_C 	C 	0.4312	0.4813	0.5919	0.553
Mof_C 	C 	0.3912	0.4708	0.6516	-0.792
Mof_H 	H 	0.3551	0.5049	0.6654	0.269
Mof_H 	H 	0.4261	0.4795	0.6909	0.263
Mof_H 	H 	0.3672	0.4214	0.6358	0.264
Mof_O 	O 	0.4782	0.4405	0.5714	-0.468
Mof_O 	O 	0.4152	0.5324	0.5777	-0.465
Mof_Si	Si	0.8981	0.367	0.4166	0.893
Mof_C 	C 	0.9813	0.3726	0.3722	-0.376
Mof_C 	C 	0.0505	0.3777	0.3993	0.209
Mof_H 	H 	0.0582	0.3847	0.4464	-0.052
Mof_C 	C 	0.1096	0.3732	0.362	-0.246
Mof_H 	H 	0.1567	0.3769	0.3831	0.109
Mof_C 	C 	0.0993	0.3634	0.2934	0.164
Mof_C 	C 	0.0307	0.3578	0.2642	-0.236
Mof_H 	H 	0.0232	0.3495	0.2168	0.097
Mof_C 	C 	0.9728	0.3641	0.3029	0.19
Mof_H 	H 	0.926	0.3627	0.2824	-0.053
Mof_C 	C 	0.1579	0.3524	0.2516	-0.076
Mof_N 	N 	0.376	0.2854	0.0828	-0.219
Mof_C 	C 	0.3257	0.3254	0.0746	0.069
Mof_H 	H 	0.3281	0.341	0.0373	-0.025
Mof_C 	C 	0.2694	0.3462	0.1172	-0.145
Mof_H 	H 	0.2374	0.3779	0.111	0.065
Mof_C 	C 	0.2619	0.3193	0.1684	0.075
Mof_C 	C 	0.3134	0.278	0.1766	-0.146
Mof_H 	H 	0.3108	0.2604	0.2125	0.066
Mof_C 	C 	0.3694	0.2609	0.1339	0.066
Mof_H 	H 	0.4035	0.2314	0.141	-0.02
Mof_C 	C 	0.2041	0.3386	0.2132	-0.029
Mof_C 	C 	0.9175	0.3606	0.5023	-0.365
Mof_C 	C 	0.8958	0.2973	0.512	0.185
Mof_H 	H 	0.8735	0.2563	0.4743	-0.043
Mof_C 	C 	0.9064	0.2935	0.5758	-0.235
Mof_H 	H 	0.8921	0.2496	0.5814	0.106
Mof_C 	C 	0.9374	0.3522	0.6312	0.16
Mof_C 	C 	0.9595	0.4153	0.6234	-0.238
Mof_H 	H 	0.9845	0.4549	0.6607	0.107
Mof_C 	C 	0.9448	0.4203	0.5604	0.193
Mof_H 	H 	0.9537	0.4659	0.5567	-0.048
Mof_C 	C 	0.9443	0.3475	0.6974	-0.071
Mof_N 	N 	0.9748	0.2783	0.9196	-0.267
Mof_C 	C 	0.032	0.3124	0.9056	0.061
Mof_H 	H 	0.0769	0.32	0.9317	-0.041
Mof_C 	C 	0.0255	0.3375	0.8511	-0.145
Mof_H 	H 	0.0653	0.3639	0.8416	0.071
Mof_C 	C 	0.9607	0.3231	0.8126	0.08
Mof_C 	C 	0.9019	0.2892	0.8296	-0.148
Mof_H 	H 	0.8562	0.2808	0.8044	0.075
Mof_C 	C 	0.9115	0.2671	0.8853	0.072
Mof_H 	H 	0.8716	0.2439	0.8982	-0.038
Mof_C 	C 	0.9547	0.339	0.7499	-0.021
Mof_C 	C 	0.8407	0.2822	0.3577	-0.359
Mof_C 	C 	0.7667	0.2785	0.347	0.186
Mof_H 	H 	0.7437	0.3205	0.369	-0.04
Mof_C 	C 	0.7247	0.2151	0.3049	-0.23
Mof_H 	H 	0.6741	0.2139	0.2966	0.105
Mof_C 	C 	0.7588	0.1546	0.2757	0.152
Mof_C 	C 	0.8328	0.1558	0.287	-0.231
Mof_H 	H 	0.8555	0.1134	0.2664	0.101
Mof_C 	C 	0.8728	0.2197	0.3285	0.184
Mof_H 	H 	0.9233	0.2206	0.3373	-0.044
Mof_C 	C 	0.7183	0.0878	0.2333	-0.072
Mof_N 	N 	0.5814	0.832	0.0591	-0.251
Mof_C 	C 	0.652	0.8393	0.0738	0.066
Mof_H 	H 	0.6787	0.7996	0.0538	-0.023
Mof_C 	C 	0.6877	0.9067	0.1194	-0.144
Mof_H 	H 	0.7385	0.913	0.1296	0.068
Mof_C 	C 	0.6473	0.9627	0.1485	0.077
Mof_C 	C 	0.5738	0.9528	0.1368	-0.146
Mof_H 	H 	0.5457	0.9907	0.1589	0.078
Mof_C 	C 	0.5405	0.8843	0.0904	0.058
Mof_H 	H 	0.4895	0.8757	0.0816	-0.028
Mof_C 	C 	0.6836	0.0327	0.1957	-0.03
Mof_C 	C 	0.8508	0.4495	0.4322	-0.386
Mof_C 	C 	0.8689	0.4993	0.4031	0.213
Mof_H 	H 	0.9055	0.4916	0.3723	-0.058
Mof_C 	C 	0.8337	0.5604	0.4189	-0.26
Mof_H 	H 	0.8463	0.5936	0.3978	0.116
Mof_C 	C 	0.7817	0.5749	0.4635	0.179
Mof_C 	C 	0.7619	0.5252	0.4924	-0.26
Mof_H 	H 	0.725	0.533	0.523	0.127
Mof_C 	C 	0.797	0.4641	0.4759	0.22
Mof_H 	H 	0.7831	0.4302	0.4959	-0.053
Mof_C 	C 	0.7471	0.6385	0.4778	-0.083
Mof_N 	N 	0.597	0.8676	0.5238	-0.188
Mof_C 	C 	0.5626	0.8012	0.4999	0.075
Mof_H 	H 	0.5117	0.7942	0.4903	0.017
Mof_C 	C 	0.6013	0.7409	0.4886	-0.145
Mof_H 	H 	0.5769	0.6935	0.4694	0.092
Mof_C 	C 	0.6739	0.7516	0.5056	0.083
Mof_C 	C 	0.7087	0.821	0.5351	-0.146
Mof_H 	H 	0.7588	0.83	0.5492	0.08
Mof_C 	C 	0.6663	0.8777	0.5432	0.084
Mof_H 	H 	0.689	0.9258	0.5638	0.006
Mof_C 	C 	0.7153	0.6903	0.4956	-0.021
Mof_Si	Si	0.1007	0.1369	0.5849	0.914
Mof_C 	C 	0.0832	0.1404	0.4975	-0.391
Mof_C 	C 	0.0776	0.0805	0.4382	0.223
Mof_H 	H 	0.0847	0.0359	0.4418	-0.055
Mof_C 	C 	0.0623	0.0804	0.3735	-0.262
Mof_H 	H 	0.0533	0.0362	0.3348	0.117
Mof_C 	C 	0.0603	0.1452	0.3659	0.178
Mof_C 	C 	0.0664	0.2062	0.4239	-0.259
Mof_H 	H 	0.0633	0.2513	0.4197	0.115
Mof_C 	C 	0.0768	0.2045	0.4883	0.215
Mof_H 	H 	0.0796	0.2482	0.5274	-0.053
Mof_C 	C 	0.0489	0.1493	0.2996	-0.078
Mof_N 	N 	0.0039	0.2037	0.072	-0.263
Mof_C 	C 	0.0712	0.2035	0.0929	0.063
Mof_H 	H 	0.1095	0.2149	0.0693	-0.04
Mof_C 	C 	0.0859	0.186	0.1515	-0.144
Mof_H 	H 	0.1339	0.1868	0.169	0.077
Mof_C 	C 	0.028	0.1679	0.1817	0.082
Mof_C 	C 	0.9586	0.1637	0.1548	-0.151
Mof_H 	H 	0.919	0.1476	0.1739	0.075
Mof_C 	C 	0.9476	0.184	0.0978	0.073
Mof_H 	H 	0.9002	0.1833	0.0788	-0.038
Mof_C 	C 	0.0409	0.1545	0.2452	-0.016
Mof_C 	C 	0.1583	0.2224	0.6411	-0.37
Mof_C 	C 	0.2326	0.226	0.6501	0.193
Mof_H 	H 	0.2555	0.1839	0.6284	-0.045
Mof_C 	C 	0.2743	0.2901	0.6903	-0.24
Mof_H 	H 	0.3254	0.2928	0.6945	0.106
Mof_C 	C 	0.2399	0.3495	0.7239	0.16
Mof_C 	C 	0.1667	0.3479	0.718	-0.243
Mof_H 	H 	0.1439	0.3893	0.7421	0.105
Mof_C 	C 	0.1265	0.284	0.6756	0.192
Mof_H 	H 	0.0756	0.2824	0.6701	-0.044
Mof_C 	C 	0.2825	0.4134	0.771	-0.076
Mof_N 	N 	0.4623	0.6504	0.9287	-0.252
Mof_C 	C 	0.3911	0.6528	0.9336	0.052
Mof_H 	H 	0.374	0.6945	0.9653	-0.033
Mof_C 	C 	0.3411	0.593	0.8915	-0.138
Mof_H 	H 	0.2906	0.596	0.8912	0.064
Mof_C 	C 	0.3679	0.5308	0.8514	0.074
Mof_C 	C 	0.4405	0.5289	0.8469	-0.147
Mof_H 	H 	0.459	0.487	0.817	0.067
Mof_C 	C 	0.4873	0.591	0.888	0.065
Mof_H 	H 	0.5379	0.59	0.8863	-0.019
Mof_C 	C 	0.3202	0.4674	0.8062	-0.029
Mof_C 	C 	0.1472	0.0551	0.5745	-0.395
Mof_C 	C 	0.1176	0.0012	0.5959	0.208
Mof_H 	H 	0.0739	0.0066	0.6175	-0.054
Mof_C 	C 	0.1517	0.9405	0.5858	-0.26
Mof_H 	H 	0.132	0.9051	0.6017	0.117
Mof_C 	C 	0.2135	0.9309	0.553	0.178
Mof_C 	C 	0.2435	0.9831	0.531	-0.275
Mof_H 	H 	0.2874	0.9777	0.5098	0.131
Mof_C 	C 	0.2081	0.0428	0.5406	0.233
Mof_H 	H 	0.2269	0.077	0.5228	-0.059
Mof_C 	C 	0.251	0.8686	0.5413	-0.084
Mof_N 	N 	0.4029	0.6425	0.5086	-0.186
Mof_C 	C 	0.4256	0.7083	0.5546	0.07
Mof_H 	H 	0.469	0.7149	0.5827	0.019
Mof_C 	C 	0.3881	0.7682	0.5633	-0.133
Mof_H 	H 	0.4051	0.8143	0.5973	0.078
Mof_C 	C 	0.3258	0.7585	0.5211	0.077
Mof_C 	C 	0.3038	0.6916	0.4711	-0.143
Mof_H 	H 	0.262	0.6839	0.4407	0.074
Mof_C 	C 	0.3451	0.6351	0.4662	0.076
Mof_H 	H 	0.3309	0.5892	0.4309	0.01
Mof_C 	C 	0.2857	0.8195	0.5294	-0.015
Mof_C 	C 	0.0148	0.1335	0.6256	-0.387
Mof_C 	C 	0.0189	0.1388	0.6942	0.204
Mof_H 	H 	0.0646	0.1489	0.7197	-0.059
Mof_C 	C 	0.9581	0.1294	0.7248	-0.252
Mof_H 	H 	0.9618	0.1324	0.7709	0.099
Mof_C 	C 	0.8917	0.1157	0.6889	0.174
Mof_C 	C 	0.8859	0.1124	0.6221	-0.261
Mof_H 	H 	0.8399	0.1049	0.5977	0.112
Mof_C 	C 	0.947	0.1201	0.5918	0.222
Mof_H 	H 	0.9426	0.1159	0.5454	-0.055
Mof_C 	C 	0.8282	0.1017	0.7179	-0.084
Mof_N 	N 	0.5879	0.0252	0.8153	-0.14
Mof_C 	C 	0.5881	0.0086	0.7479	0.068
Mof_H 	H 	0.5475	0.9815	0.7175	0.016
Mof_C 	C 	0.6499	0.032	0.7226	-0.146
Mof_H 	H 	0.6502	0.0233	0.6751	0.094
Mof_C 	C 	0.709	0.067	0.7666	0.076
Mof_C 	C 	0.7089	0.0807	0.8356	-0.139
Mof_H 	H 	0.751	0.1019	0.8661	0.061
Mof_C 	C 	0.6435	0.062	0.8596	0.064
Mof_H 	H 	0.6396	0.076	0.9075	-0.002
Mof_C 	C 	0.7753	0.0878	0.7407	-0.02
Mof_Cu	Cu	0.53578	0.95054	0.50891	0.912
Mof_Cu	Cu	0.53027	0.73925	0.98585	0.81
Mof_Cu	Cu	0.46272	0.55298	0.50279	0.917
Mof_Cu	Cu	0.9936	0.23919	0.99309	0.787
Mof_C 	C 	0.4043	0.903	0.4262	0.544
Mof_C 	C 	0.3432	0.8458	0.3782	-0.79
Mof_H 	H 	0.3492	0.8392	0.3303	0.258
Mof_H 	H 	0.3459	0.7999	0.3838	0.263
Mof_H 	H 	0.2962	0.8626	0.3903	0.259
Mof_O 	O 	0.457	0.884	0.4491	-0.481
Mof_O 	O 	0.394	0.966	0.4318	-0.464
Mof_C 	C 	0.4313	0.0046	0.6003	0.541
Mof_C 	C 	0.3894	0.0119	0.665	-0.775
Mof_H 	H 	0.3548	0.0472	0.6709	0.264
Mof_H 	H 	0.3635	0.965	0.6586	0.258
Mof_H 	H 	0.4236	0.0279	0.706	0.259
Mof_O 	O 	0.4796	0.965	0.5906	-0.464
Mof_O 	O 	0.4161	0.049	0.5757	-0.459
Mof_C 	C 	0.4088	0.413	0.4134	0.547
Mof_C 	C 	0.3497	0.3596	0.3582	-0.785
Mof_H 	H 	0.3711	0.3369	0.3148	0.259
Mof_H 	H 	0.3304	0.3224	0.3743	0.26
Mof_H 	H 	0.3106	0.3863	0.3511	0.262
Mof_O 	O 	0.3968	0.477	0.4334	-0.477
Mof_O 	O 	0.4607	0.386	0.4283	-0.472
Mof_C 	C 	0.5688	0.5187	0.4081	0.553
Mof_C 	C 	0.6088	0.5292	0.3484	-0.792
Mof_H 	H 	0.6449	0.4951	0.3346	0.269
Mof_H 	H 	0.5739	0.5205	0.3091	0.263
Mof_H 	H 	0.6328	0.5786	0.3642	0.264
Mof_O 	O 	0.5218	0.5595	0.4286	-0.468
Mof_O 	O 	0.5848	0.4676	0.4223	-0.465
_end
