data_functionalizedCrystal
_audit_creation_method	'EQeq! by Chris Wilmer'
_symmetry_space_group_name_H-M	'P1'
_symmetry_Int_Tables_number	1
_symmetry_cell_setting	triclinic
loop_
_symmetry_equiv_pos_as_xyz
  x,y,z
_cell_length_a	24.2788
_cell_length_b	25.6735
_cell_length_c	53.8201
_cell_angle_alpha	90
_cell_angle_beta	90
_cell_angle_gamma	90
loop_
_atom_site_label
_atom_site_type_symbol
_atom_site_fract_x
_atom_site_fract_y
_atom_site_fract_z
_atom_site_charge
Mof_K 	K 	0.2577	0.18679	0.23842	2.99
Mof_K 	K 	0.52569	0.42261	0.2261	3.586
Mof_K 	K 	0.51395	0.16127	0.40638	3.48
Mof_K 	K 	0.24088	0.37994	0.39057	2.261
Mof_K 	K 	0.23944	0.37251	0.07245	0.96
Mof_K 	K 	0.513	0.14133	0.0593	2.696
Mof_Zn	Zn	0.40059	0.26871	0.15014	1.161
Mof_O 	O 	0.47918	0.16363	0.10206	-0.686
Mof_O 	O 	0.30229	0.37313	0.10988	-0.435
Mof_O 	O 	0.32577	0.17213	0.20294	-0.703
Mof_O 	O 	0.49736	0.3826	0.18544	-0.869
Mof_N 	N 	0.4293	0.22737	0.12181	-0.363
Mof_N 	N 	0.35661	0.30674	0.12471	-0.334
Mof_N 	N 	0.38162	0.22688	0.18009	-0.357
Mof_N 	N 	0.43955	0.31585	0.17354	-0.385
Mof_N 	N 	0.48968	0.1774	0.14399	-0.328
Mof_H 	H 	0.4857	0.2006	0.1559	0.06
Mof_N 	N 	0.2976	0.3494	0.15023	-0.352
Mof_H 	H 	0.307	0.3251	0.1609	0.063
Mof_N 	N 	0.33879	0.15836	0.16134	-0.327
Mof_H 	H 	0.3525	0.1714	0.1475	0.072
Mof_N 	N 	0.46177	0.38008	0.14604	-0.312
Mof_H 	H 	0.4469	0.3596	0.1348	0.066
Mof_C 	C 	0.5337	0.1338	0.17752	-0.709
Mof_H 	H 	0.5572	0.1642	0.1807	0.164
Mof_H 	H 	0.5529	0.1021	0.1828	0.184
Mof_H 	H 	0.4992	0.1374	0.1868	0.188
Mof_C 	C 	0.52113	0.13035	0.1499	0.482
Mof_C 	C 	0.4874	0.0815	0.14437	-0.756
Mof_H 	H 	0.4779	0.0806	0.1267	0.262
Mof_H 	H 	0.4535	0.082	0.1543	0.216
Mof_H 	H 	0.509	0.0505	0.1486	0.212
Mof_C 	C 	0.575	0.1283	0.13522	-0.58
Mof_H 	H 	0.5952	0.1609	0.1375	0.114
Mof_H 	H 	0.5668	0.1234	0.1175	0.101
Mof_H 	H 	0.5974	0.0991	0.1412	0.147
Mof_C 	C 	0.46556	0.1886	0.1212	0.363
Mof_C 	C 	0.40166	0.24205	0.09873	-0.025
Mof_H 	H 	0.3708	0.2177	0.0955	0.005
Mof_H 	H 	0.4279	0.2393	0.0847	-0.06
Mof_C 	C 	0.37962	0.29732	0.10016	-0.063
Mof_H 	H 	0.4098	0.3224	0.0969	-0.006
Mof_H 	H 	0.3508	0.3024	0.0874	0.001
Mof_C 	C 	0.31907	0.3446	0.12675	0.326
Mof_C 	C 	0.2614	0.3896	0.15946	0.785
Mof_C 	C 	0.2524	0.3795	0.18695	-0.871
Mof_H 	H 	0.2351	0.3453	0.1892	0.165
Mof_H 	H 	0.2284	0.4066	0.1939	0.224
Mof_H 	H 	0.288	0.3801	0.1956	0.211
Mof_C 	C 	0.2883	0.4417	0.15625	-1.039
Mof_H 	H 	0.2954	0.4479	0.1386	0.322
Mof_H 	H 	0.3232	0.4423	0.1654	0.301
Mof_H 	H 	0.2639	0.469	0.1627	0.298
Mof_C 	C 	0.2074	0.3894	0.1463	-1.221
Mof_H 	H 	0.1913	0.3545	0.1472	0.509
Mof_H 	H 	0.213	0.3992	0.1289	0.439
Mof_H 	H 	0.1826	0.4145	0.1542	0.369
Mof_C 	C 	0.3138	0.0916	0.13233	-0.783
Mof_H 	H 	0.2969	0.1176	0.1214	0.239
Mof_H 	H 	0.2951	0.0581	0.1301	0.231
Mof_H 	H 	0.3528	0.0879	0.1281	0.258
Mof_C 	C 	0.3082	0.109	0.15934	0.456
Mof_C 	C 	0.2471	0.1177	0.16547	-0.488
Mof_H 	H 	0.2435	0.1291	0.1828	0.032
Mof_H 	H 	0.2268	0.085	0.1631	0.123
Mof_H 	H 	0.2319	0.1444	0.1544	0.07
Mof_C 	C 	0.3316	0.0676	0.17643	-0.662
Mof_H 	H 	0.3283	0.0791	0.1937	0.19
Mof_H 	H 	0.3705	0.0618	0.1724	0.175
Mof_H 	H 	0.311	0.0351	0.1742	0.177
Mof_C 	C 	0.348	0.1862	0.183	0.346
Mof_C 	C 	0.3935	0.2575	0.20243	-0.055
Mof_H 	H 	0.4	0.234	0.2167	-0.022
Mof_H 	H 	0.3617	0.2802	0.2064	-0.073
Mof_C 	C 	0.4445	0.2906	0.19763	0.031
Mof_H 	H 	0.4483	0.3173	0.2108	-0.121
Mof_H 	H 	0.4778	0.2683	0.1979	-0.084
Mof_C 	C 	0.46733	0.3598	0.16966	0.397
Mof_C 	C 	0.4782	0.4324	0.13791	0.278
Mof_C 	C 	0.4573	0.4383	0.11143	-0.562
Mof_H 	H 	0.4172	0.4345	0.1112	0.186
Mof_H 	H 	0.4741	0.4114	0.1009	0.14
Mof_H 	H 	0.4674	0.4728	0.1051	0.159
Mof_C 	C 	0.5413	0.4373	0.13808	-0.239
Mof_H 	H 	0.5573	0.4108	0.1271	-0.031
Mof_H 	H 	0.555	0.4322	0.155	-0.063
Mof_H 	H 	0.5519	0.472	0.1322	-0.012
Mof_C 	C 	0.4531	0.4746	0.1543	-0.393
Mof_H 	H 	0.4129	0.471	0.1544	0.097
Mof_H 	H 	0.4631	0.5089	0.1478	0.088
Mof_H 	H 	0.4672	0.471	0.1713	0.05
Mof_Zn	Zn	0.39579	0.31104	0.3192	1.164
Mof_O 	O 	0.28832	0.20776	0.28283	-0.723
Mof_O 	O 	0.48241	0.39959	0.26633	-0.86
Mof_O 	O 	0.4799	0.21461	0.36983	-0.729
Mof_O 	O 	0.30263	0.42326	0.35662	-0.608
Mof_N 	N 	0.35478	0.26608	0.29545	-0.374
Mof_N 	N 	0.42892	0.34345	0.28946	-0.372
Mof_N 	N 	0.42639	0.27401	0.34849	-0.344
Mof_N 	N 	0.36384	0.35983	0.34405	-0.354
Mof_N 	N 	0.3083	0.21782	0.324	-0.317
Mof_H 	H 	0.3288	0.2346	0.3348	0.058
Mof_N 	N 	0.50031	0.38743	0.30769	-0.331
Mof_H 	H 	0.4978	0.3648	0.3199	0.085
Mof_N 	N 	0.47065	0.20936	0.3273	-0.313
Mof_H 	H 	0.4676	0.2287	0.3139	0.06
Mof_N 	N 	0.34096	0.42585	0.31772	-0.327
Mof_H 	H 	0.3588	0.4076	0.3065	0.074
Mof_C 	C 	0.2785	0.1806	0.36226	-0.527
Mof_H 	H 	0.2704	0.2154	0.3688	0.084
Mof_H 	H 	0.3169	0.1716	0.3659	0.116
Mof_H 	H 	0.254	0.1551	0.3702	0.114
Mof_C 	C 	0.2693	0.1799	0.33413	0.381
Mof_C 	C 	0.2103	0.1964	0.32816	-0.465
Mof_H 	H 	0.2059	0.1997	0.3101	0.062
Mof_H 	H 	0.2024	0.2299	0.3361	0.046
Mof_H 	H 	0.1846	0.17	0.3344	0.097
Mof_C 	C 	0.2797	0.1259	0.32436	-0.635
Mof_H 	H 	0.2727	0.1251	0.3064	0.2
Mof_H 	H 	0.255	0.1012	0.3327	0.168
Mof_H 	H 	0.318	0.1161	0.3276	0.219
Mof_C 	C 	0.3163	0.23	0.29941	0.369
Mof_C 	C 	0.3689	0.2791	0.27001	0.013
Mof_H 	H 	0.3351	0.2782	0.2597	-0.133
Mof_H 	H 	0.3945	0.2524	0.2634	-0.051
Mof_C 	C 	0.3949	0.3313	0.26778	-0.043
Mof_H 	H 	0.418	0.3322	0.2526	-0.052
Mof_H 	H 	0.3658	0.358	0.266	-0.038
Mof_C 	C 	0.4702	0.3771	0.28636	0.409
Mof_C 	C 	0.5361	0.433	0.31155	0.37
Mof_C 	C 	0.5498	0.4338	0.33898	-0.744
Mof_H 	H 	0.5158	0.4368	0.3487	0.238
Mof_H 	H 	0.5737	0.4637	0.3426	0.211
Mof_H 	H 	0.5689	0.4015	0.3435	0.28
Mof_C 	C 	0.5893	0.4281	0.29636	-0.345
Mof_H 	H 	0.6099	0.3974	0.3019	0.043
Mof_H 	H 	0.6119	0.4594	0.2988	0.057
Mof_H 	H 	0.5802	0.4245	0.2787	-0.069
Mof_C 	C 	0.5069	0.4827	0.30447	-0.468
Mof_H 	H 	0.4723	0.4855	0.3138	0.118
Mof_H 	H 	0.499	0.4825	0.2866	0.042
Mof_H 	H 	0.5305	0.5126	0.3084	0.086
Mof_C 	C 	0.4861	0.1456	0.29628	-0.6
Mof_H 	H 	0.5128	0.1687	0.2882	0.13
Mof_H 	H 	0.4491	0.1532	0.29	0.199
Mof_H 	H 	0.4955	0.1093	0.2927	0.226
Mof_C 	C 	0.4876	0.1545	0.32422	0.337
Mof_C 	C 	0.5464	0.1457	0.33349	-0.323
Mof_H 	H 	0.5717	0.1687	0.3245	0.025
Mof_H 	H 	0.5569	0.1093	0.3306	0.062
Mof_H 	H 	0.5483	0.1533	0.3513	-0.048
Mof_C 	C 	0.4484	0.1182	0.33747	-0.45
Mof_H 	H 	0.4503	0.1245	0.3554	0.008
Mof_H 	H 	0.4588	0.082	0.334	0.156
Mof_H 	H 	0.4108	0.1244	0.3316	0.164
Mof_C 	C 	0.45923	0.2325	0.35023	0.417
Mof_C 	C 	0.4158	0.3035	0.37117	-0.091
Mof_H 	H 	0.4467	0.3277	0.3744	0.128
Mof_H 	H 	0.4126	0.2795	0.3855	0.021
Mof_C 	C 	0.36222	0.33435	0.36813	0.008
Mof_H 	H 	0.3302	0.3106	0.3691	-0.136
Mof_H 	H 	0.3588	0.3606	0.3815	-0.071
Mof_C 	C 	0.33433	0.40323	0.34074	0.296
Mof_C 	C 	0.3211	0.4775	0.31009	0.535
Mof_C 	C 	0.3445	0.4862	0.28409	-0.75
Mof_H 	H 	0.3848	0.4837	0.2847	0.2
Mof_H 	H 	0.3339	0.5208	0.2781	0.228
Mof_H 	H 	0.33	0.4596	0.2728	0.218
Mof_C 	C 	0.2585	0.4786	0.30917	-0.741
Mof_H 	H 	0.2437	0.4682	0.3254	0.147
Mof_H 	H 	0.2455	0.4544	0.2964	0.208
Mof_H 	H 	0.246	0.5139	0.3052	0.295
Mof_C 	C 	0.3422	0.52	0.32746	-0.771
Mof_H 	H 	0.3822	0.5171	0.3291	0.215
Mof_H 	H 	0.3251	0.5159	0.3438	0.226
Mof_H 	H 	0.3327	0.5542	0.3206	0.207
Mof_Zn	Zn	0.3654	0.26566	0.48446	1.166
Mof_O 	O 	0.45946	0.15243	0.44718	-0.741
Mof_O 	O 	0.27801	0.3585	0.43385	-0.636
Mof_O 	O 	0.27282	0.32397	0.03449	-0.716
Mof_O 	O 	0.45443	0.11878	0.02173	-0.727
Mof_N 	N 	0.40233	0.21842	0.46052	-0.366
Mof_N 	N 	0.32894	0.29683	0.455	-0.348
Mof_N 	N 	0.33122	0.26748	0.01391	-0.338
Mof_N 	N 	0.39491	0.18225	0.00852	-0.363
Mof_N 	N 	0.44987	0.16926	0.48869	-0.324
Mof_H 	H 	0.4286	0.1841	0.4999	0.08
Mof_N 	N 	0.26171	0.34211	0.47522	-0.318
Mof_H 	H 	0.2571	0.3155	0.4853	0.052
Mof_N 	N 	0.29874	0.3404	0.99424	-0.297
Mof_H 	H 	0.3074	0.325	0.9802	0.053
Mof_N 	N 	0.43423	0.12782	0.98037	-0.323
Mof_H 	H 	0.4192	0.1481	0.9691	0.072
Mof_C 	C 	0.4923	0.141	0.52629	-0.66
Mof_H 	H 	0.4991	0.1773	0.5311	0.146
Mof_H 	H 	0.5206	0.1186	0.5337	0.157
Mof_H 	H 	0.4559	0.1303	0.5323	0.18
Mof_C 	C 	0.4944	0.1362	0.49797	0.481
Mof_C 	C 	0.4852	0.0798	0.49074	-0.662
Mof_H 	H 	0.4822	0.0771	0.4726	0.169
Mof_H 	H 	0.451	0.0671	0.4984	0.177
Mof_H 	H 	0.5162	0.0586	0.4965	0.171
Mof_C 	C 	0.55	0.1545	0.48841	-0.655
Mof_H 	H 	0.5551	0.1914	0.4926	0.201
Mof_H 	H 	0.5514	0.1503	0.4703	0.097
Mof_H 	H 	0.5793	0.1338	0.4961	0.147
Mof_C 	C 	0.43805	0.1795	0.46406	0.398
Mof_C 	C 	0.38135	0.22684	0.43537	0.037
Mof_H 	H 	0.3518	0.2013	0.4318	-0.062
Mof_H 	H 	0.4114	0.2212	0.4232	-0.135
Mof_C 	C 	0.35875	0.28192	0.43249	-0.073
Mof_H 	H 	0.3894	0.3065	0.4296	-0.003
Mof_H 	H 	0.3337	0.2834	0.418	-0.029
Mof_C 	C 	0.29081	0.33376	0.45319	0.331
Mof_C 	C 	0.2384	0.39241	0.48266	0.438
Mof_C 	C 	0.2211	0.3862	0.50974	-0.663
Mof_H 	H 	0.1939	0.3581	0.5111	0.146
Mof_H 	H 	0.2048	0.4188	0.5157	0.18
Mof_H 	H 	0.2534	0.3776	0.5198	0.189
Mof_C 	C 	0.1883	0.4066	0.46718	-0.535
Mof_H 	H 	0.1602	0.3795	0.469	0.1
Mof_H 	H 	0.199	0.4094	0.4497	0.066
Mof_H 	H 	0.1734	0.44	0.4729	0.123
Mof_C 	C 	0.2828	0.4347	0.48078	-0.694
Mof_H 	H 	0.3148	0.4246	0.4907	0.2
Mof_H 	H 	0.268	0.4677	0.4871	0.194
Mof_H 	H 	0.2938	0.439	0.4634	0.203
Mof_C 	C 	0.2978	0.4138	0.96702	-0.52
Mof_H 	H 	0.2757	0.3939	0.9551	0.126
Mof_H 	H 	0.2894	0.451	0.9654	0.132
Mof_H 	H 	0.337	0.408	0.9637	0.133
Mof_C 	C 	0.2842	0.3959	0.99327	0.272
Mof_C 	C 	0.2219	0.4024	0.99813	-0.191
Mof_H 	H 	0.2132	0.3902	0.0149	-0.211
Mof_H 	H 	0.2119	0.4392	0.9966	0.02
Mof_H 	H 	0.2012	0.3818	0.986	-0.071
Mof_C 	C 	0.3172	0.4275	0.01229	-0.5
Mof_H 	H 	0.3092	0.4147	0.0291	0.121
Mof_H 	H 	0.3566	0.4238	0.0089	0.14
Mof_H 	H 	0.3068	0.4643	0.0111	0.131
Mof_C 	C 	0.29991	0.3104	0.01578	0.305
Mof_C 	C 	0.3343	0.2325	0.03515	-0.09
Mof_H 	H 	0.3328	0.2527	0.0508	0.023
Mof_H 	H 	0.3027	0.208	0.0349	0.008
Mof_C 	C 	0.3879	0.2024	0.03368	0.016
Mof_H 	H 	0.3874	0.1732	0.0457	-0.077
Mof_H 	H 	0.4191	0.2256	0.0379	-0.1
Mof_C 	C 	0.4286	0.1425	0.00502	0.373
Mof_C 	C 	0.4634	0.081	0.97161	0.528
Mof_C 	C 	0.4536	0.0795	0.94349	-0.836
Mof_H 	H 	0.4687	0.1111	0.9359	0.309
Mof_H 	H 	0.4719	0.0488	0.9364	0.261
Mof_H 	H 	0.414	0.0776	0.9402	0.251
Mof_C 	C 	0.5255	0.0851	0.97661	-0.661
Mof_H 	H 	0.5319	0.0881	0.9945	0.115
Mof_H 	H 	0.5441	0.054	0.9703	0.152
Mof_H 	H 	0.5402	0.1161	0.9682	0.169
Mof_C 	C 	0.4405	0.0318	0.98341	-0.674
Mof_H 	H 	0.4446	0.0338	0.0015	0.175
Mof_H 	H 	0.4014	0.0283	0.9792	0.186
Mof_H 	H 	0.4607	0.0014	0.9772	0.148
Mof_O 	O 	0.2212	0.0911	0.2404	-0.498
Mof_N 	N 	0.1461	0.049	0.2279	-0.216
Mof_C 	C 	0.2003	0.0516	0.2309	0.132
Mof_C 	C 	0.2348	0.0028	0.2279	1.187
Mof_H 	H 	0.2365	0.9842	0.2438	-0.413
Mof_H 	H 	0.2722	0.0105	0.2221	-0.179
Mof_H 	H 	0.2159	0.9811	0.2155	-0.886
Mof_C 	C 	0.113	0.0954	0.2325	-0.146
Mof_H 	H 	0.1332	0.1165	0.2446	-0.038
Mof_H 	H 	0.0768	0.0862	0.2394	0.013
Mof_H 	H 	0.108	0.1153	0.2171	-0.026
Mof_C 	C 	0.1151	0.0067	0.2167	-0.06
Mof_H 	H 	0.105	0.0147	0.1994	-0.003
Mof_H 	H 	0.0816	0.0029	0.2267	-0.054
Mof_H 	H 	0.1362	0.9741	0.2172	0.009
Mof_O 	O 	0.2068	0.0977	0.2397	-0.116
Mof_N 	N 	0.1624	0.0287	0.2247	-0.079
Mof_C 	C 	0.1622	0.0755	0.2353	0.258
Mof_C 	C 	0.1107	0.0934	0.2488	-0.039
Mof_H 	H 	0.1102	0.0837	0.2664	-0.048
Mof_H 	H 	0.0813	0.0748	0.24	0
Mof_H 	H 	0.1048	0.1311	0.2472	-0.051
Mof_C 	C 	0.2148	0.0078	0.216	-0.068
Mof_H 	H 	0.2422	0.0299	0.2242	-0.475
Mof_H 	H 	0.2203	0.0093	0.1979	0.112
Mof_H 	H 	0.219	0.9717	0.2217	0.536
Mof_C 	C 	0.1194	0.9894	0.2266	0.151
Mof_H 	H 	0.1272	0.9616	0.2386	-0.115
Mof_H 	H 	0.1192	0.9748	0.2097	-0.077
Mof_H 	H 	0.0834	0.0048	0.2303	-0.068
Mof_O 	O 	0.5237	0.5252	0.2373	1.155
Mof_N 	N 	0.6073	0.5611	0.23598	0.9
Mof_C 	C 	0.557	0.5579	0.24535	3.106
Mof_C 	C 	0.5397	0.5962	0.2652	-0.251
Mof_H 	H 	0.5363	0.6311	0.258	0.033
Mof_H 	H 	0.567	0.5968	0.2786	-0.347
Mof_H 	H 	0.5039	0.5853	0.272	0.119
Mof_C 	C 	0.6247	0.5245	0.2168	5.817
Mof_H 	H 	0.6383	0.4925	0.2247	-0.904
Mof_H 	H 	0.6543	0.5404	0.207	-0.786
Mof_H 	H 	0.5936	0.5162	0.2059	-6.985
Mof_C 	C 	0.652	0.5939	0.2449	0.313
Mof_H 	H 	0.6426	0.6072	0.2615	-0.009
Mof_H 	H 	0.6557	0.6231	0.2333	-0.088
Mof_H 	H 	0.6869	0.5747	0.2458	0.072
Mof_O 	O 	0.5335	0.5218	0.233	-1.559
Mof_N 	N 	0.5946	0.5802	0.247	-0.967
Mof_C 	C 	0.58	0.5419	0.2319	-3.863
Mof_C 	C 	0.6169	0.5296	0.2099	3.892
Mof_H 	H 	0.6529	0.5184	0.2162	-3.448
Mof_H 	H 	0.6215	0.5602	0.1992	-1.147
Mof_H 	H 	0.6002	0.5012	0.2003	3.881
Mof_C 	C 	0.5563	0.5992	0.2658	-0.55
Mof_H 	H 	0.5554	0.6374	0.2653	0.214
Mof_H 	H 	0.568	0.5875	0.2823	0.528
Mof_H 	H 	0.5194	0.5855	0.2622	-0.235
Mof_C 	C 	0.6415	0.6148	0.2434	0.043
Mof_H 	H 	0.674	0.5936	0.2397	-0.289
Mof_H 	H 	0.648	0.6349	0.2586	-0.191
Mof_H 	H 	0.6346	0.6388	0.2295	0.004
Mof_O 	O 	0.6118	0.1896	0.4024	0.843
Mof_N 	N 	0.7022	0.2062	0.40213	0.711
Mof_C 	C 	0.6521	0.2115	0.39277	3.034
Mof_C 	C 	0.6449	0.2407	0.3685	0.214
Mof_H 	H 	0.6639	0.2205	0.3557	-1.779
Mof_H 	H 	0.6613	0.2755	0.3696	-3.549
Mof_H 	H 	0.6058	0.2439	0.3642	-0.513
Mof_C 	C 	0.7101	0.1769	0.4251	0.762
Mof_H 	H 	0.7228	0.2011	0.4379	-0.169
Mof_H 	H 	0.7372	0.1489	0.423	-0.021
Mof_H 	H 	0.6746	0.1619	0.43	0.128
Mof_C 	C 	0.7511	0.235	0.3946	0.221
Mof_H 	H 	0.7727	0.2133	0.3832	0.907
Mof_H 	H 	0.7733	0.2433	0.4093	-0.052
Mof_H 	H 	0.7405	0.2674	0.3862	-0.47
Mof_O 	O 	0.6166	0.1913	0.40933	-1.667
Mof_N 	N 	0.6889	0.2178	0.38681	-0.851
Mof_C 	C 	0.667	0.1986	0.40741	-2.699
Mof_C 	C 	0.7035	0.1913	0.43001	0.565
Mof_H 	H 	0.7072	0.2243	0.439	-0.488
Mof_H 	H 	0.7399	0.1796	0.4245	-0.466
Mof_H 	H 	0.6873	0.165	0.441	-0.461
Mof_C 	C 	0.6535	0.2306	0.36581	-2.334
Mof_H 	H 	0.6186	0.2117	0.3675	0.55
Mof_H 	H 	0.6712	0.2211	0.3501	2.452
Mof_H 	H 	0.6463	0.2682	0.366	4.457
Mof_C 	C 	0.7448	0.2375	0.38386	0.309
Mof_H 	H 	0.7476	0.2714	0.3922	0.367
Mof_H 	H 	0.7532	0.2415	0.3661	-0.133
Mof_H 	H 	0.771	0.2131	0.3914	-1.098
Mof_O 	O 	0.55814	0.0705	0.40313	-0.734
Mof_N 	N 	0.6274	0.028	0.42166	-0.169
Mof_C 	C 	0.6069	0.0557	0.40311	0.273
Mof_C 	C 	0.6437	0.0682	0.3812	-0.05
Mof_H 	H 	0.6219	0.0852	0.3682	-0.082
Mof_H 	H 	0.6585	0.0353	0.3748	-0.408
Mof_H 	H 	0.6741	0.091	0.3861	0.031
Mof_C 	C 	0.594	0.0164	0.44346	-0.591
Mof_H 	H 	0.6142	0.0261	0.4585	0.326
Mof_H 	H 	0.5854	0.9791	0.444	0.749
Mof_H 	H 	0.5598	0.0365	0.4425	0.135
Mof_C 	C 	0.6816	0.0037	0.4221	-0.061
Mof_H 	H 	0.6823	0.9729	0.4114	0.035
Mof_H 	H 	0.6902	0.9935	0.4392	0.016
Mof_H 	H 	0.7091	0.0289	0.4163	0.032
Mof_O 	O 	0.5546	0.0662	0.4136	-0.068
Mof_N 	N 	0.6417	0.0395	0.4088	-0.152
Mof_C 	C 	0.5945	0.0404	0.4212	0.36
Mof_C 	C 	0.5866	0.0029	0.4427	-0.132
Mof_H 	H 	0.5482	0.0031	0.4483	-0.083
Mof_H 	H 	0.6103	0.0167	0.4559	-0.142
Mof_H 	H 	0.5977	0.9671	0.4388	-0.507
Mof_C 	C 	0.6467	0.067	0.3853	-0.215
Mof_H 	H 	0.6165	0.0923	0.3841	0.009
Mof_H 	H 	0.6456	0.0437	0.3708	0.494
Mof_H 	H 	0.682	0.0856	0.3855	0.057
Mof_C 	C 	0.6911	0.0108	0.4156	0.028
Mof_H 	H 	0.7054	0.0221	0.4318	0.006
Mof_H 	H 	0.7195	0.0156	0.4029	-0.007
Mof_H 	H 	0.6809	0.9739	0.4165	-0.008
Mof_O 	O 	0.14639	0.3286	0.0834	-4.873
Mof_N 	N 	0.07652	0.2971	0.06085	-7.465
Mof_C 	C 	0.0972	0.3153	0.08189	-29.075
Mof_C 	C 	0.0592	0.3238	0.10383	1.669
Mof_H 	H 	0.0798	0.3393	0.1176	-1.706
Mof_H 	H 	0.029	0.3472	0.099	1.661
Mof_H 	H 	0.0439	0.2902	0.109	-0.474
Mof_C 	C 	0.1124	0.2886	0.03952	-14.343
Mof_H 	H 	0.1217	0.2516	0.0381	1.746
Mof_H 	H 	0.0936	0.3001	0.0244	-5.579
Mof_H 	H 	0.1462	0.3089	0.0418	2.608
Mof_C 	C 	0.0204	0.2792	0.05671	-1.794
Mof_H 	H 	0.0036	0.2994	0.0432	0.49
Mof_H 	H 	0.0209	0.2422	0.0522	-0.776
Mof_H 	H 	0.9988	0.2839	0.072	0.271
Mof_O 	O 	0.1533	0.1808	0.5831	3.745
Mof_N 	N 	0.0641	0.196	0.5754	11.131
Mof_C 	C 	0.1165	0.1949	0.5685	27.921
Mof_C 	C 	0.1317	0.2143	0.5428	-9.489
Mof_H 	H 	0.1201	0.2508	0.5415	4.31
Mof_H 	H 	0.1128	0.1937	0.5301	14.328
Mof_H 	H 	0.1716	0.2119	0.5404	1.15
Mof_C 	C 	0.0486	0.179	0.6003	4.231
Mof_H 	H 	0.0788	0.1579	0.607	2.044
Mof_H 	H 	0.0153	0.1576	0.5991	-3.482
Mof_H 	H 	0.0416	0.2086	0.6114	-0.942
Mof_C 	C 	0.0197	0.2228	0.5625	-0.841
Mof_H 	H 	0.0336	0.2382	0.547	2.356
Mof_H 	H 	0.0051	0.2504	0.5733	0.08
Mof_H 	H 	0.9902	0.1979	0.5586	0.447
Mof_O 	O 	0.1935	0.4628	0.06758	-0.43
Mof_N 	N 	0.1152	0.5041	0.07756	-0.502
Mof_C 	C 	0.1608	0.4993	0.06427	-0.436
Mof_C 	C 	0.1701	0.5367	0.04288	-0.545
Mof_H 	H 	0.1979	0.5224	0.0316	-0.013
Mof_H 	H 	0.1353	0.5413	0.0339	0.213
Mof_H 	H 	0.1827	0.5704	0.0492	0.329
Mof_C 	C 	0.1054	0.4699	0.09869	-0.909
Mof_H 	H 	0.1364	0.4457	0.1004	0.139
Mof_H 	H 	0.1019	0.4907	0.1139	-0.066
Mof_H 	H 	0.0714	0.4501	0.096	0.328
Mof_C 	C 	0.0754	0.5463	0.0756	0.923
Mof_H 	H 	0.0764	0.5583	0.0583	-2.452
Mof_H 	H 	0.0391	0.5312	0.0791	-0.856
Mof_H 	H 	0.0821	0.5757	0.0868	-1.952
Mof_O 	O 	0.1963	0.0337	0.5744	-0.093
Mof_N 	N 	0.1315	0.974	0.5667	0.117
Mof_C 	C 	0.1494	0.0162	0.5784	1.098
Mof_C 	C 	0.1094	0.047	0.5942	-0.454
Mof_H 	H 	0.1103	0.0337	0.6113	0.611
Mof_H 	H 	0.0721	0.0432	0.5875	0.152
Mof_H 	H 	0.1198	0.0839	0.5942	0.534
Mof_C 	C 	0.1692	0.9438	0.5514	-0.296
Mof_H 	H 	0.1983	0.967	0.5454	0.362
Mof_H 	H 	0.1491	0.9292	0.5372	0.072
Mof_H 	H 	0.1856	0.9154	0.5611	-0.088
Mof_C 	C 	0.0784	0.9488	0.5704	0.418
Mof_H 	H 	0.0885	0.9175	0.5798	1.599
Mof_H 	H 	0.0587	0.9386	0.5552	1.774
Mof_H 	H 	0.0545	0.971	0.5806	0.469
Mof_O 	O 	0.5593	0.0584	0.0757	-0.365
Mof_N 	N 	0.6254	0.0074	0.09178	-0.617
Mof_C 	C 	0.6072	0.0415	0.07523	-0.749
Mof_C 	C 	0.6462	0.0598	0.05507	0.064
Mof_H 	H 	0.6264	0.0818	0.0432	-0.246
Mof_H 	H 	0.6766	0.0797	0.0625	-0.115
Mof_H 	H 	0.6611	0.0293	0.0464	-0.047
Mof_C 	C 	0.5884	0.9855	0.1103	-0.391
Mof_H 	H 	0.5535	0.0048	0.1098	0.039
Mof_H 	H 	0.5814	0.9485	0.1071	0.492
Mof_H 	H 	0.6052	0.9894	0.1268	0.136
Mof_C 	C 	0.6794	0.9825	0.09128	0.026
Mof_H 	H 	0.7061	0.0058	0.0833	-0.047
Mof_H 	H 	0.6913	0.975	0.1083	0.181
Mof_H 	H 	0.6771	0.9499	0.0818	-0.024
Mof_O 	O 	0.5555	0.4515	0.579	-0.198
Mof_N 	N 	0.6436	0.4769	0.58081	0.212
Mof_C 	C 	0.5921	0.4781	0.589	1.248
Mof_C 	C 	0.5773	0.515	0.6099	-0.126
Mof_H 	H 	0.5376	0.522	0.61	0.009
Mof_H 	H 	0.5975	0.5477	0.6073	-0.311
Mof_H 	H 	0.5881	0.4998	0.6259	0.031
Mof_C 	C 	0.6583	0.4438	0.5599	-0.008
Mof_H 	H 	0.6259	0.4399	0.5491	0.154
Mof_H 	H 	0.6697	0.4094	0.566	0.058
Mof_H 	H 	0.6885	0.4594	0.5504	0.007
Mof_C 	C 	0.6907	0.503	0.592	0.142
Mof_H 	H 	0.6803	0.5174	0.6082	-0.264
Mof_H 	H 	0.7025	0.5313	0.5809	-0.122
Mof_H 	H 	0.721	0.4782	0.5941	-0.087
Mof_K 	K 	0.7577	0.31321	0.76158	2.991
Mof_K 	K 	0.02569	0.07739	0.7739	3.566
Mof_K 	K 	0.01395	0.33873	0.59362	3.476
Mof_K 	K 	0.74088	0.12006	0.60943	2.264
Mof_K 	K 	0.73944	0.12749	0.92755	0.951
Mof_K 	K 	0.013	0.35867	0.9407	2.694
Mof_Zn	Zn	0.90059	0.23129	0.84986	1.162
Mof_O 	O 	0.97918	0.33637	0.89794	-0.684
Mof_O 	O 	0.80229	0.12687	0.89012	-0.433
Mof_O 	O 	0.82577	0.32787	0.79706	-0.702
Mof_O 	O 	0.99736	0.1174	0.81456	-0.863
Mof_N 	N 	0.9293	0.27263	0.87819	-0.362
Mof_N 	N 	0.85661	0.19326	0.87529	-0.333
Mof_N 	N 	0.88162	0.27312	0.81991	-0.356
Mof_N 	N 	0.93955	0.18415	0.82646	-0.384
Mof_N 	N 	0.98968	0.3226	0.85601	-0.327
Mof_H 	H 	0.9857	0.2994	0.8441	0.061
Mof_N 	N 	0.7976	0.1506	0.84977	-0.352
Mof_H 	H 	0.807	0.1749	0.8391	0.064
Mof_N 	N 	0.83879	0.34164	0.83866	-0.327
Mof_H 	H 	0.8525	0.3286	0.8525	0.073
Mof_N 	N 	0.96177	0.11992	0.85396	-0.31
Mof_H 	H 	0.9469	0.1404	0.8652	0.067
Mof_C 	C 	0.0337	0.3662	0.82248	-0.71
Mof_H 	H 	0.0572	0.3358	0.8193	0.165
Mof_H 	H 	0.0529	0.3979	0.8172	0.185
Mof_H 	H 	0.9992	0.3626	0.8132	0.191
Mof_C 	C 	0.02113	0.36965	0.8501	0.481
Mof_C 	C 	0.9874	0.4185	0.85563	-0.752
Mof_H 	H 	0.9779	0.4194	0.8733	0.262
Mof_H 	H 	0.9535	0.418	0.8457	0.216
Mof_H 	H 	0.009	0.4495	0.8514	0.212
Mof_C 	C 	0.075	0.3717	0.86478	-0.578
Mof_H 	H 	0.0952	0.3391	0.8625	0.115
Mof_H 	H 	0.0668	0.3766	0.8825	0.102
Mof_H 	H 	0.0974	0.4009	0.8588	0.148
Mof_C 	C 	0.96556	0.3114	0.8788	0.364
Mof_C 	C 	0.90166	0.25795	0.90127	-0.024
Mof_H 	H 	0.8708	0.2823	0.9045	0.005
Mof_H 	H 	0.9279	0.2607	0.9153	-0.06
Mof_C 	C 	0.87962	0.20268	0.89984	-0.064
Mof_H 	H 	0.9098	0.1776	0.9031	-0.006
Mof_H 	H 	0.8508	0.1976	0.9126	0.002
Mof_C 	C 	0.81907	0.1554	0.87325	0.326
Mof_C 	C 	0.7614	0.1104	0.84054	0.787
Mof_C 	C 	0.7524	0.1205	0.81305	-0.873
Mof_H 	H 	0.7351	0.1547	0.8108	0.166
Mof_H 	H 	0.7284	0.0934	0.8061	0.225
Mof_H 	H 	0.788	0.1199	0.8044	0.212
Mof_C 	C 	0.7883	0.0583	0.84375	-1.043
Mof_H 	H 	0.7954	0.0521	0.8614	0.324
Mof_H 	H 	0.8232	0.0577	0.8346	0.303
Mof_H 	H 	0.7639	0.031	0.8373	0.3
Mof_C 	C 	0.7074	0.1106	0.8537	-1.224
Mof_H 	H 	0.6913	0.1455	0.8528	0.509
Mof_H 	H 	0.713	0.1008	0.8711	0.44
Mof_H 	H 	0.6826	0.0855	0.8458	0.37
Mof_C 	C 	0.8138	0.4084	0.86767	-0.784
Mof_H 	H 	0.7969	0.3824	0.8786	0.24
Mof_H 	H 	0.7951	0.4419	0.8699	0.232
Mof_H 	H 	0.8528	0.4121	0.8719	0.259
Mof_C 	C 	0.8082	0.391	0.84066	0.457
Mof_C 	C 	0.7471	0.3823	0.83453	-0.49
Mof_H 	H 	0.7435	0.3709	0.8172	0.032
Mof_H 	H 	0.7268	0.415	0.8369	0.124
Mof_H 	H 	0.7319	0.3556	0.8456	0.071
Mof_C 	C 	0.8316	0.4324	0.82357	-0.663
Mof_H 	H 	0.8283	0.4209	0.8063	0.19
Mof_H 	H 	0.8705	0.4382	0.8276	0.175
Mof_H 	H 	0.811	0.4649	0.8258	0.178
Mof_C 	C 	0.848	0.3138	0.817	0.346
Mof_C 	C 	0.8935	0.2425	0.79757	-0.055
Mof_H 	H 	0.9	0.266	0.7833	-0.022
Mof_H 	H 	0.8617	0.2198	0.7936	-0.073
Mof_C 	C 	0.9445	0.2094	0.80237	0.029
Mof_H 	H 	0.9483	0.1827	0.7892	-0.12
Mof_H 	H 	0.9778	0.2317	0.8021	-0.083
Mof_C 	C 	0.96733	0.1402	0.83034	0.396
Mof_C 	C 	0.9782	0.0676	0.86209	0.28
Mof_C 	C 	0.9573	0.0617	0.88857	-0.566
Mof_H 	H 	0.9172	0.0655	0.8888	0.187
Mof_H 	H 	0.9741	0.0886	0.8991	0.142
Mof_H 	H 	0.9674	0.0272	0.8949	0.162
Mof_C 	C 	0.0413	0.0627	0.86192	-0.244
Mof_H 	H 	0.0573	0.0892	0.8729	-0.031
Mof_H 	H 	0.055	0.0678	0.845	-0.063
Mof_H 	H 	0.0519	0.028	0.8678	-0.011
Mof_C 	C 	0.9531	0.0254	0.8457	-0.384
Mof_H 	H 	0.9129	0.029	0.8456	0.095
Mof_H 	H 	0.9631	0.9911	0.8522	0.083
Mof_H 	H 	0.9672	0.029	0.8287	0.049
Mof_Zn	Zn	0.89579	0.18896	0.6808	1.164
Mof_O 	O 	0.78832	0.29224	0.71717	-0.723
Mof_O 	O 	0.98241	0.10041	0.73367	-0.857
Mof_O 	O 	0.9799	0.28539	0.63017	-0.728
Mof_O 	O 	0.80263	0.07674	0.64338	-0.608
Mof_N 	N 	0.85478	0.23392	0.70455	-0.374
Mof_N 	N 	0.92892	0.15655	0.71054	-0.372
Mof_N 	N 	0.92639	0.22599	0.65151	-0.344
Mof_N 	N 	0.86384	0.14017	0.65595	-0.354
Mof_N 	N 	0.8083	0.28218	0.676	-0.317
Mof_H 	H 	0.8288	0.2654	0.6652	0.058
Mof_N 	N 	0.00031	0.11257	0.69231	-0.337
Mof_H 	H 	0.9978	0.1352	0.6801	0.088
Mof_N 	N 	0.97065	0.29064	0.6727	-0.312
Mof_H 	H 	0.9676	0.2713	0.6861	0.06
Mof_N 	N 	0.84096	0.07415	0.68228	-0.326
Mof_H 	H 	0.8588	0.0924	0.6935	0.074
Mof_C 	C 	0.7785	0.3194	0.63774	-0.527
Mof_H 	H 	0.7704	0.2846	0.6312	0.084
Mof_H 	H 	0.8169	0.3284	0.6341	0.116
Mof_H 	H 	0.754	0.3449	0.6298	0.114
Mof_C 	C 	0.7693	0.3201	0.66587	0.381
Mof_C 	C 	0.7103	0.3036	0.67184	-0.465
Mof_H 	H 	0.7059	0.3003	0.6899	0.062
Mof_H 	H 	0.7024	0.2701	0.6639	0.046
Mof_H 	H 	0.6846	0.33	0.6656	0.097
Mof_C 	C 	0.7797	0.3741	0.67564	-0.635
Mof_H 	H 	0.7727	0.3749	0.6936	0.199
Mof_H 	H 	0.755	0.3988	0.6673	0.168
Mof_H 	H 	0.818	0.3839	0.6724	0.218
Mof_C 	C 	0.8163	0.27	0.70059	0.369
Mof_C 	C 	0.8689	0.2209	0.72999	0.014
Mof_H 	H 	0.8351	0.2218	0.7403	-0.133
Mof_H 	H 	0.8945	0.2476	0.7366	-0.051
Mof_C 	C 	0.8949	0.1687	0.73222	-0.044
Mof_H 	H 	0.918	0.1678	0.7474	-0.051
Mof_H 	H 	0.8658	0.142	0.734	-0.038
Mof_C 	C 	0.9702	0.1229	0.71364	0.411
Mof_C 	C 	0.0361	0.067	0.68845	0.386
Mof_C 	C 	0.0498	0.0662	0.66102	-0.757
Mof_H 	H 	0.0158	0.0632	0.6513	0.241
Mof_H 	H 	0.0737	0.0363	0.6574	0.215
Mof_H 	H 	0.0689	0.0985	0.6565	0.283
Mof_C 	C 	0.0893	0.0719	0.70364	-0.36
Mof_H 	H 	0.1099	0.1026	0.6981	0.047
Mof_H 	H 	0.1119	0.0406	0.7012	0.061
Mof_H 	H 	0.0802	0.0755	0.7213	-0.065
Mof_C 	C 	0.0069	0.0173	0.69553	-0.513
Mof_H 	H 	0.9723	0.0145	0.6862	0.134
Mof_H 	H 	0.999	0.0175	0.7134	0.058
Mof_H 	H 	0.0305	0.9874	0.6916	0.102
Mof_C 	C 	0.9861	0.3544	0.70372	-0.596
Mof_H 	H 	0.0128	0.3313	0.7118	0.128
Mof_H 	H 	0.9491	0.3468	0.71	0.198
Mof_H 	H 	0.9955	0.3907	0.7073	0.225
Mof_C 	C 	0.9876	0.3455	0.67578	0.337
Mof_C 	C 	0.0464	0.3543	0.66651	-0.322
Mof_H 	H 	0.0717	0.3313	0.6755	0.023
Mof_H 	H 	0.0569	0.3907	0.6694	0.062
Mof_H 	H 	0.0483	0.3467	0.6487	-0.049
Mof_C 	C 	0.9484	0.3818	0.66253	-0.45
Mof_H 	H 	0.9503	0.3755	0.6446	0.008
Mof_H 	H 	0.9588	0.418	0.666	0.156
Mof_H 	H 	0.9108	0.3756	0.6684	0.164
Mof_C 	C 	0.95923	0.2675	0.64977	0.417
Mof_C 	C 	0.9158	0.1965	0.62883	-0.091
Mof_H 	H 	0.9467	0.1723	0.6256	0.128
Mof_H 	H 	0.9126	0.2205	0.6145	0.021
Mof_C 	C 	0.86222	0.16565	0.63187	0.008
Mof_H 	H 	0.8302	0.1894	0.6309	-0.136
Mof_H 	H 	0.8588	0.1394	0.6185	-0.071
Mof_C 	C 	0.83433	0.09677	0.65926	0.296
Mof_C 	C 	0.8211	0.0225	0.68991	0.532
Mof_C 	C 	0.8445	0.0138	0.71591	-0.738
Mof_H 	H 	0.8848	0.0163	0.7153	0.197
Mof_H 	H 	0.8339	0.9792	0.7219	0.222
Mof_H 	H 	0.83	0.0404	0.7272	0.215
Mof_C 	C 	0.7585	0.0214	0.69083	-0.732
Mof_H 	H 	0.7437	0.0318	0.6746	0.145
Mof_H 	H 	0.7455	0.0456	0.7036	0.206
Mof_H 	H 	0.746	0.9861	0.6948	0.291
Mof_C 	C 	0.8422	0.98	0.67254	-0.77
Mof_H 	H 	0.8822	0.9829	0.6709	0.214
Mof_H 	H 	0.8251	0.9841	0.6562	0.225
Mof_H 	H 	0.8327	0.9458	0.6794	0.206
Mof_Zn	Zn	0.8654	0.23434	0.51554	1.166
Mof_O 	O 	0.95946	0.34757	0.55282	-0.74
Mof_O 	O 	0.77801	0.1415	0.56615	-0.636
Mof_O 	O 	0.77282	0.17603	0.96551	-0.715
Mof_O 	O 	0.95443	0.38122	0.97827	-0.726
Mof_N 	N 	0.90233	0.28158	0.53948	-0.366
Mof_N 	N 	0.82894	0.20317	0.545	-0.348
Mof_N 	N 	0.83122	0.23252	0.98609	-0.337
Mof_N 	N 	0.89491	0.31775	0.99148	-0.363
Mof_N 	N 	0.94987	0.33074	0.51131	-0.324
Mof_H 	H 	0.9286	0.3159	0.5001	0.08
Mof_N 	N 	0.76171	0.15789	0.52478	-0.318
Mof_H 	H 	0.7571	0.1845	0.5147	0.052
Mof_N 	N 	0.79874	0.1596	0.00576	-0.297
Mof_H 	H 	0.8074	0.175	0.0198	0.053
Mof_N 	N 	0.93423	0.37218	0.01963	-0.323
Mof_H 	H 	0.9192	0.3519	0.0309	0.072
Mof_C 	C 	0.9923	0.359	0.47371	-0.659
Mof_H 	H 	0.9991	0.3227	0.4689	0.147
Mof_H 	H 	0.0206	0.3814	0.4663	0.156
Mof_H 	H 	0.9559	0.3697	0.4677	0.179
Mof_C 	C 	0.9944	0.3638	0.50203	0.482
Mof_C 	C 	0.9852	0.4202	0.50926	-0.661
Mof_H 	H 	0.9822	0.4229	0.5274	0.169
Mof_H 	H 	0.951	0.4329	0.5016	0.177
Mof_H 	H 	0.0162	0.4414	0.5035	0.17
Mof_C 	C 	0.05	0.3455	0.51159	-0.657
Mof_H 	H 	0.0551	0.3086	0.5074	0.201
Mof_H 	H 	0.0514	0.3497	0.5297	0.098
Mof_H 	H 	0.0793	0.3662	0.5039	0.148
Mof_C 	C 	0.93805	0.3205	0.53594	0.397
Mof_C 	C 	0.88135	0.27316	0.56463	0.037
Mof_H 	H 	0.8518	0.2987	0.5682	-0.062
Mof_H 	H 	0.9114	0.2788	0.5768	-0.134
Mof_C 	C 	0.85875	0.21808	0.56751	-0.073
Mof_H 	H 	0.8894	0.1935	0.5704	-0.003
Mof_H 	H 	0.8337	0.2166	0.582	-0.029
Mof_C 	C 	0.79081	0.16624	0.54681	0.331
Mof_C 	C 	0.7384	0.10759	0.51734	0.438
Mof_C 	C 	0.7211	0.1138	0.49026	-0.662
Mof_H 	H 	0.6939	0.1419	0.4889	0.145
Mof_H 	H 	0.7048	0.0812	0.4843	0.18
Mof_H 	H 	0.7534	0.1224	0.4802	0.189
Mof_C 	C 	0.6883	0.0934	0.53282	-0.536
Mof_H 	H 	0.6602	0.1205	0.531	0.1
Mof_H 	H 	0.699	0.0906	0.5503	0.066
Mof_H 	H 	0.6734	0.06	0.5271	0.124
Mof_C 	C 	0.7828	0.0653	0.51922	-0.695
Mof_H 	H 	0.8148	0.0754	0.5093	0.2
Mof_H 	H 	0.768	0.0323	0.5129	0.195
Mof_H 	H 	0.7938	0.061	0.5366	0.204
Mof_C 	C 	0.7978	0.0862	0.03298	-0.522
Mof_H 	H 	0.7757	0.1061	0.0449	0.126
Mof_H 	H 	0.7894	0.049	0.0346	0.133
Mof_H 	H 	0.837	0.092	0.0363	0.133
Mof_C 	C 	0.7842	0.1041	0.00673	0.273
Mof_C 	C 	0.7219	0.0976	0.00187	-0.192
Mof_H 	H 	0.7132	0.1098	0.9851	-0.211
Mof_H 	H 	0.7119	0.0608	0.0034	0.02
Mof_H 	H 	0.7012	0.1182	0.014	-0.071
Mof_C 	C 	0.8172	0.0725	0.98771	-0.503
Mof_H 	H 	0.8092	0.0853	0.9709	0.122
Mof_H 	H 	0.8566	0.0762	0.9911	0.142
Mof_H 	H 	0.8068	0.0357	0.9889	0.132
Mof_C 	C 	0.79991	0.1896	0.98422	0.305
Mof_C 	C 	0.8343	0.2675	0.96485	-0.09
Mof_H 	H 	0.8328	0.2473	0.9492	0.023
Mof_H 	H 	0.8027	0.292	0.9651	0.008
Mof_C 	C 	0.8879	0.2976	0.96632	0.015
Mof_H 	H 	0.8874	0.3268	0.9543	-0.077
Mof_H 	H 	0.9191	0.2744	0.9621	-0.099
Mof_C 	C 	0.9286	0.3575	0.99498	0.373
Mof_C 	C 	0.9634	0.419	0.02839	0.529
Mof_C 	C 	0.9536	0.4205	0.05651	-0.837
Mof_H 	H 	0.9687	0.3889	0.0641	0.309
Mof_H 	H 	0.9719	0.4512	0.0636	0.261
Mof_H 	H 	0.914	0.4224	0.0598	0.251
Mof_C 	C 	0.0255	0.4149	0.02339	-0.662
Mof_H 	H 	0.0319	0.4119	0.0055	0.115
Mof_H 	H 	0.0441	0.446	0.0297	0.153
Mof_H 	H 	0.0402	0.3839	0.0318	0.169
Mof_C 	C 	0.9405	0.4682	0.01659	-0.676
Mof_H 	H 	0.9446	0.4662	0.9985	0.176
Mof_H 	H 	0.9014	0.4717	0.0208	0.186
Mof_H 	H 	0.9607	0.4986	0.0228	0.149
Mof_O 	O 	0.7212	0.4089	0.7596	-0.497
Mof_N 	N 	0.6461	0.451	0.7721	-0.215
Mof_C 	C 	0.7003	0.4484	0.7691	0.134
Mof_C 	C 	0.7348	0.4972	0.7721	1.137
Mof_H 	H 	0.7365	0.5158	0.7562	-0.398
Mof_H 	H 	0.7722	0.4895	0.7779	-0.172
Mof_H 	H 	0.7159	0.5189	0.7845	-0.853
Mof_C 	C 	0.613	0.4046	0.7675	-0.147
Mof_H 	H 	0.6332	0.3835	0.7554	-0.038
Mof_H 	H 	0.5768	0.4138	0.7606	0.013
Mof_H 	H 	0.608	0.3847	0.7829	-0.025
Mof_C 	C 	0.6151	0.4933	0.7833	-0.069
Mof_H 	H 	0.605	0.4853	0.8006	0
Mof_H 	H 	0.5816	0.4971	0.7733	-0.055
Mof_H 	H 	0.6362	0.5259	0.7828	0.003
Mof_O 	O 	0.7068	0.4023	0.7603	-0.119
Mof_N 	N 	0.6624	0.4713	0.7753	-0.078
Mof_C 	C 	0.6622	0.4245	0.7647	0.256
Mof_C 	C 	0.6107	0.4066	0.7512	-0.037
Mof_H 	H 	0.6102	0.4163	0.7336	-0.048
Mof_H 	H 	0.5813	0.4252	0.76	0.001
Mof_H 	H 	0.6048	0.3689	0.7528	-0.051
Mof_C 	C 	0.7148	0.4922	0.784	-0.066
Mof_H 	H 	0.7422	0.4701	0.7758	-0.456
Mof_H 	H 	0.7203	0.4907	0.8021	0.108
Mof_H 	H 	0.719	0.5283	0.7783	0.515
Mof_C 	C 	0.6194	0.5106	0.7734	0.164
Mof_H 	H 	0.6272	0.5384	0.7614	-0.119
Mof_H 	H 	0.6192	0.5252	0.7903	-0.075
Mof_H 	H 	0.5834	0.4952	0.7697	-0.067
Mof_O 	O 	0.0237	0.9748	0.7627	1.151
Mof_N 	N 	0.1073	0.9389	0.76402	0.895
Mof_C 	C 	0.057	0.9421	0.75465	3.093
Mof_C 	C 	0.0397	0.9038	0.7348	-0.25
Mof_H 	H 	0.0363	0.8689	0.742	0.033
Mof_H 	H 	0.067	0.9032	0.7214	-0.347
Mof_H 	H 	0.0039	0.9147	0.728	0.119
Mof_C 	C 	0.1247	0.9755	0.7832	5.799
Mof_H 	H 	0.1383	0.0075	0.7753	-0.904
Mof_H 	H 	0.1543	0.9596	0.793	-0.785
Mof_H 	H 	0.0936	0.9838	0.7941	-6.966
Mof_C 	C 	0.152	0.9061	0.7551	0.311
Mof_H 	H 	0.1426	0.8928	0.7385	-0.009
Mof_H 	H 	0.1557	0.8769	0.7667	-0.088
Mof_H 	H 	0.1869	0.9253	0.7542	0.071
Mof_O 	O 	0.0335	0.9782	0.767	-1.553
Mof_N 	N 	0.0946	0.9198	0.753	-0.962
Mof_C 	C 	0.08	0.9581	0.7681	-3.846
Mof_C 	C 	0.1169	0.9704	0.7901	3.881
Mof_H 	H 	0.1529	0.9816	0.7838	-3.435
Mof_H 	H 	0.1215	0.9398	0.8008	-1.143
Mof_H 	H 	0.1002	0.9988	0.7997	3.871
Mof_C 	C 	0.0563	0.9008	0.7342	-0.549
Mof_H 	H 	0.0554	0.8626	0.7347	0.213
Mof_H 	H 	0.068	0.9125	0.7177	0.527
Mof_H 	H 	0.0194	0.9145	0.7378	-0.234
Mof_C 	C 	0.1415	0.8852	0.7566	0.043
Mof_H 	H 	0.174	0.9064	0.7603	-0.288
Mof_H 	H 	0.148	0.8651	0.7414	-0.191
Mof_H 	H 	0.1346	0.8612	0.7705	0.004
Mof_O 	O 	0.1118	0.3104	0.5976	0.858
Mof_N 	N 	0.2022	0.2938	0.59787	0.717
Mof_C 	C 	0.1521	0.2885	0.60723	3.061
Mof_C 	C 	0.1449	0.2593	0.6315	0.219
Mof_H 	H 	0.1639	0.2795	0.6443	-1.819
Mof_H 	H 	0.1613	0.2245	0.6304	-3.665
Mof_H 	H 	0.1058	0.2561	0.6358	-0.535
Mof_C 	C 	0.2101	0.3231	0.5749	0.775
Mof_H 	H 	0.2228	0.2989	0.5621	-0.178
Mof_H 	H 	0.2372	0.3511	0.577	-0.022
Mof_H 	H 	0.1746	0.3381	0.57	0.128
Mof_C 	C 	0.2511	0.265	0.6054	0.224
Mof_H 	H 	0.2727	0.2867	0.6168	0.917
Mof_H 	H 	0.2733	0.2567	0.5907	-0.051
Mof_H 	H 	0.2405	0.2326	0.6138	-0.476
Mof_O 	O 	0.1166	0.3087	0.59067	-1.682
Mof_N 	N 	0.1889	0.2822	0.61319	-0.85
Mof_C 	C 	0.167	0.3014	0.59259	-2.724
Mof_C 	C 	0.2035	0.3087	0.56999	0.574
Mof_H 	H 	0.2072	0.2757	0.561	-0.483
Mof_H 	H 	0.2399	0.3204	0.5755	-0.472
Mof_H 	H 	0.1873	0.335	0.559	-0.464
Mof_C 	C 	0.1535	0.2694	0.63419	-2.392
Mof_H 	H 	0.1186	0.2883	0.6325	0.571
Mof_H 	H 	0.1712	0.2789	0.6499	2.509
Mof_H 	H 	0.1463	0.2318	0.634	4.592
Mof_C 	C 	0.2448	0.2625	0.61614	0.313
Mof_H 	H 	0.2476	0.2286	0.6078	0.374
Mof_H 	H 	0.2532	0.2585	0.6339	-0.133
Mof_H 	H 	0.271	0.2869	0.6086	-1.111
Mof_O 	O 	0.05814	0.4295	0.59687	-0.735
Mof_N 	N 	0.1274	0.472	0.57834	-0.168
Mof_C 	C 	0.1069	0.4443	0.59689	0.273
Mof_C 	C 	0.1437	0.4318	0.6188	-0.05
Mof_H 	H 	0.1219	0.4148	0.6318	-0.083
Mof_H 	H 	0.1585	0.4647	0.6252	-0.41
Mof_H 	H 	0.1741	0.409	0.6139	0.031
Mof_C 	C 	0.094	0.4836	0.55654	-0.593
Mof_H 	H 	0.1142	0.4739	0.5415	0.327
Mof_H 	H 	0.0854	0.5209	0.556	0.751
Mof_H 	H 	0.0598	0.4635	0.5575	0.136
Mof_C 	C 	0.1816	0.4963	0.5779	-0.063
Mof_H 	H 	0.1823	0.5271	0.5886	0.037
Mof_H 	H 	0.1902	0.5065	0.5608	0.018
Mof_H 	H 	0.2091	0.4711	0.5837	0.034
Mof_O 	O 	0.0546	0.4338	0.5864	-0.067
Mof_N 	N 	0.1417	0.4605	0.5912	-0.152
Mof_C 	C 	0.0945	0.4596	0.5788	0.36
Mof_C 	C 	0.0866	0.4971	0.5573	-0.132
Mof_H 	H 	0.0482	0.4969	0.5517	-0.083
Mof_H 	H 	0.1103	0.4833	0.5441	-0.142
Mof_H 	H 	0.0977	0.5329	0.5612	-0.508
Mof_C 	C 	0.1467	0.433	0.6147	-0.215
Mof_H 	H 	0.1165	0.4077	0.6159	0.009
Mof_H 	H 	0.1456	0.4563	0.6292	0.496
Mof_H 	H 	0.182	0.4144	0.6145	0.057
Mof_C 	C 	0.1911	0.4892	0.5844	0.026
Mof_H 	H 	0.2054	0.4779	0.5682	0.006
Mof_H 	H 	0.2195	0.4844	0.5971	-0.007
Mof_H 	H 	0.1809	0.5261	0.5835	-0.007
Mof_O 	O 	0.64639	0.1714	0.9166	-4.888
Mof_N 	N 	0.57652	0.2029	0.93915	-7.488
Mof_C 	C 	0.5972	0.1847	0.91811	-29.164
Mof_C 	C 	0.5592	0.1762	0.89617	1.674
Mof_H 	H 	0.5798	0.1607	0.8824	-1.71
Mof_H 	H 	0.529	0.1528	0.901	1.667
Mof_H 	H 	0.5439	0.2098	0.891	-0.475
Mof_C 	C 	0.6124	0.2114	0.96048	-14.386
Mof_H 	H 	0.6217	0.2484	0.9619	1.751
Mof_H 	H 	0.5936	0.1999	0.9756	-5.595
Mof_H 	H 	0.6462	0.1911	0.9582	2.616
Mof_C 	C 	0.5204	0.2208	0.94329	-1.796
Mof_H 	H 	0.5036	0.2006	0.9568	0.492
Mof_H 	H 	0.5209	0.2578	0.9478	-0.778
Mof_H 	H 	0.4988	0.2161	0.928	0.268
Mof_O 	O 	0.6533	0.3192	0.4169	3.769
Mof_N 	N 	0.5641	0.304	0.4246	11.195
Mof_C 	C 	0.6165	0.3051	0.4315	28.079
Mof_C 	C 	0.6317	0.2857	0.4572	-9.541
Mof_H 	H 	0.6201	0.2492	0.4585	4.334
Mof_H 	H 	0.6128	0.3063	0.4699	14.408
Mof_H 	H 	0.6716	0.2881	0.4596	1.157
Mof_C 	C 	0.5486	0.321	0.3997	4.257
Mof_H 	H 	0.5788	0.3421	0.393	2.053
Mof_H 	H 	0.5153	0.3424	0.4009	-3.503
Mof_H 	H 	0.5416	0.2914	0.3886	-0.947
Mof_C 	C 	0.5197	0.2772	0.4375	-0.842
Mof_H 	H 	0.5336	0.2618	0.453	2.366
Mof_H 	H 	0.5051	0.2496	0.4267	0.082
Mof_H 	H 	0.4902	0.3021	0.4414	0.447
Mof_O 	O 	0.6935	0.0372	0.93242	-0.43
Mof_N 	N 	0.6152	0.9959	0.92244	-0.503
Mof_C 	C 	0.6608	0.0007	0.93573	-0.437
Mof_C 	C 	0.6701	0.9633	0.95712	-0.545
Mof_H 	H 	0.6979	0.9776	0.9684	-0.014
Mof_H 	H 	0.6353	0.9587	0.9661	0.213
Mof_H 	H 	0.6827	0.9296	0.9508	0.329
Mof_C 	C 	0.6054	0.0301	0.90131	-0.911
Mof_H 	H 	0.6364	0.0543	0.8996	0.139
Mof_H 	H 	0.6019	0.0093	0.8861	-0.066
Mof_H 	H 	0.5714	0.0499	0.904	0.328
Mof_C 	C 	0.5754	0.9537	0.9244	0.924
Mof_H 	H 	0.5764	0.9417	0.9417	-2.453
Mof_H 	H 	0.5391	0.9688	0.9209	-0.856
Mof_H 	H 	0.5821	0.9243	0.9132	-1.952
Mof_O 	O 	0.6963	0.4663	0.4256	-0.091
Mof_N 	N 	0.6315	0.526	0.4333	0.116
Mof_C 	C 	0.6494	0.4838	0.4216	1.105
Mof_C 	C 	0.6094	0.453	0.4058	-0.455
Mof_H 	H 	0.6103	0.4663	0.3887	0.614
Mof_H 	H 	0.5721	0.4568	0.4125	0.155
Mof_H 	H 	0.6198	0.4161	0.4058	0.537
Mof_C 	C 	0.6692	0.5562	0.4486	-0.293
Mof_H 	H 	0.6983	0.533	0.4546	0.36
Mof_H 	H 	0.6491	0.5708	0.4628	0.072
Mof_H 	H 	0.6856	0.5846	0.4389	-0.087
Mof_C 	C 	0.5784	0.5512	0.4296	0.42
Mof_H 	H 	0.5885	0.5825	0.4202	1.599
Mof_H 	H 	0.5587	0.5614	0.4448	1.774
Mof_H 	H 	0.5545	0.529	0.4194	0.468
Mof_O 	O 	0.0593	0.4416	0.9243	-0.365
Mof_N 	N 	0.1254	0.4926	0.90822	-0.618
Mof_C 	C 	0.1072	0.4585	0.92477	-0.749
Mof_C 	C 	0.1462	0.4402	0.94493	0.064
Mof_H 	H 	0.1264	0.4182	0.9568	-0.246
Mof_H 	H 	0.1766	0.4203	0.9375	-0.115
Mof_H 	H 	0.1611	0.4707	0.9536	-0.048
Mof_C 	C 	0.0884	0.5145	0.8897	-0.391
Mof_H 	H 	0.0535	0.4952	0.8902	0.039
Mof_H 	H 	0.0814	0.5515	0.8929	0.491
Mof_H 	H 	0.1052	0.5106	0.8732	0.138
Mof_C 	C 	0.1794	0.5175	0.90872	0.03
Mof_H 	H 	0.2061	0.4942	0.9167	-0.049
Mof_H 	H 	0.1913	0.525	0.8917	0.18
Mof_H 	H 	0.1771	0.5501	0.9182	-0.025
Mof_O 	O 	0.0555	0.0485	0.421	-0.199
Mof_N 	N 	0.1436	0.0231	0.41919	0.209
Mof_C 	C 	0.0921	0.0219	0.411	1.239
Mof_C 	C 	0.0773	0.985	0.3901	-0.124
Mof_H 	H 	0.0376	0.978	0.39	0.014
Mof_H 	H 	0.0975	0.9523	0.3927	-0.296
Mof_H 	H 	0.0881	0.0002	0.3741	0.011
Mof_C 	C 	0.1583	0.0562	0.4401	-0.008
Mof_H 	H 	0.1259	0.0601	0.4509	0.153
Mof_H 	H 	0.1697	0.0906	0.434	0.059
Mof_H 	H 	0.1885	0.0406	0.4496	0.008
Mof_C 	C 	0.1907	0.997	0.408	0.143
Mof_H 	H 	0.1803	0.9826	0.3918	-0.263
Mof_H 	H 	0.2025	0.9687	0.4191	-0.122
Mof_H 	H 	0.221	0.0218	0.4059	-0.087
Mof_K 	K 	0.7577	0.18679	0.26158	2.99
Mof_K 	K 	0.02569	0.42261	0.2739	3.585
Mof_K 	K 	0.01395	0.16127	0.09362	3.472
Mof_K 	K 	0.74088	0.37994	0.10943	2.262
Mof_K 	K 	0.73944	0.37251	0.42755	0.952
Mof_K 	K 	0.013	0.14133	0.4407	2.685
Mof_Zn	Zn	0.90059	0.26871	0.34986	1.162
Mof_O 	O 	0.97918	0.16363	0.39794	-0.682
Mof_O 	O 	0.80229	0.37313	0.39012	-0.433
Mof_O 	O 	0.82577	0.17213	0.29706	-0.702
Mof_O 	O 	0.99736	0.3826	0.31456	-0.867
Mof_N 	N 	0.9293	0.22737	0.37819	-0.361
Mof_N 	N 	0.85661	0.30674	0.37529	-0.333
Mof_N 	N 	0.88162	0.22688	0.31991	-0.356
Mof_N 	N 	0.93955	0.31585	0.32646	-0.384
Mof_N 	N 	0.98968	0.1774	0.35601	-0.325
Mof_H 	H 	0.9857	0.2006	0.3441	0.061
Mof_N 	N 	0.7976	0.3494	0.34977	-0.351
Mof_H 	H 	0.807	0.3251	0.3391	0.064
Mof_N 	N 	0.83879	0.15836	0.33866	-0.327
Mof_H 	H 	0.8525	0.1714	0.3525	0.073
Mof_N 	N 	0.96177	0.38008	0.35396	-0.311
Mof_H 	H 	0.9469	0.3596	0.3652	0.067
Mof_C 	C 	0.0337	0.1338	0.32248	-0.708
Mof_H 	H 	0.0572	0.1642	0.3193	0.165
Mof_H 	H 	0.0529	0.1021	0.3172	0.184
Mof_H 	H 	0.9992	0.1374	0.3132	0.191
Mof_C 	C 	0.02113	0.13035	0.3501	0.474
Mof_C 	C 	0.9874	0.0815	0.35563	-0.736
Mof_H 	H 	0.9779	0.0806	0.3733	0.259
Mof_H 	H 	0.9535	0.082	0.3457	0.212
Mof_H 	H 	0.009	0.0505	0.3514	0.206
Mof_C 	C 	0.075	0.1283	0.36478	-0.573
Mof_H 	H 	0.0952	0.1609	0.3625	0.114
Mof_H 	H 	0.0668	0.1234	0.3825	0.1
Mof_H 	H 	0.0974	0.0991	0.3588	0.147
Mof_C 	C 	0.96556	0.1886	0.3788	0.363
Mof_C 	C 	0.90166	0.24205	0.40127	-0.024
Mof_H 	H 	0.8708	0.2177	0.4045	0.005
Mof_H 	H 	0.9279	0.2393	0.4153	-0.06
Mof_C 	C 	0.87962	0.29732	0.39984	-0.064
Mof_H 	H 	0.9098	0.3224	0.4031	-0.006
Mof_H 	H 	0.8508	0.3024	0.4126	0.001
Mof_C 	C 	0.81907	0.3446	0.37325	0.326
Mof_C 	C 	0.7614	0.3896	0.34054	0.786
Mof_C 	C 	0.7524	0.3795	0.31305	-0.872
Mof_H 	H 	0.7351	0.3453	0.3108	0.165
Mof_H 	H 	0.7284	0.4066	0.3061	0.224
Mof_H 	H 	0.788	0.3801	0.3044	0.211
Mof_C 	C 	0.7883	0.4417	0.34375	-1.04
Mof_H 	H 	0.7954	0.4479	0.3614	0.322
Mof_H 	H 	0.8232	0.4423	0.3346	0.301
Mof_H 	H 	0.7639	0.469	0.3373	0.298
Mof_C 	C 	0.7074	0.3894	0.3537	-1.222
Mof_H 	H 	0.6913	0.3545	0.3528	0.509
Mof_H 	H 	0.713	0.3992	0.3711	0.44
Mof_H 	H 	0.6826	0.4145	0.3458	0.369
Mof_C 	C 	0.8138	0.0916	0.36767	-0.785
Mof_H 	H 	0.7969	0.1176	0.3786	0.24
Mof_H 	H 	0.7951	0.0581	0.3699	0.233
Mof_H 	H 	0.8528	0.0879	0.3719	0.26
Mof_C 	C 	0.8082	0.109	0.34066	0.458
Mof_C 	C 	0.7471	0.1177	0.33453	-0.49
Mof_H 	H 	0.7435	0.1291	0.3172	0.032
Mof_H 	H 	0.7268	0.085	0.3369	0.124
Mof_H 	H 	0.7319	0.1444	0.3456	0.071
Mof_C 	C 	0.8316	0.0676	0.32357	-0.664
Mof_H 	H 	0.8283	0.0791	0.3063	0.19
Mof_H 	H 	0.8705	0.0618	0.3276	0.176
Mof_H 	H 	0.811	0.0351	0.3258	0.179
Mof_C 	C 	0.848	0.1862	0.317	0.346
Mof_C 	C 	0.8935	0.2575	0.29757	-0.055
Mof_H 	H 	0.9	0.234	0.2833	-0.022
Mof_H 	H 	0.8617	0.2802	0.2936	-0.073
Mof_C 	C 	0.9445	0.2906	0.30237	0.03
Mof_H 	H 	0.9483	0.3173	0.2892	-0.121
Mof_H 	H 	0.9778	0.2683	0.3021	-0.083
Mof_C 	C 	0.96733	0.3598	0.33034	0.397
Mof_C 	C 	0.9782	0.4324	0.36209	0.28
Mof_C 	C 	0.9573	0.4383	0.38857	-0.564
Mof_H 	H 	0.9172	0.4345	0.3888	0.186
Mof_H 	H 	0.9741	0.4114	0.3991	0.141
Mof_H 	H 	0.9674	0.4728	0.3949	0.16
Mof_C 	C 	0.0413	0.4373	0.36192	-0.241
Mof_H 	H 	0.0573	0.4108	0.3729	-0.031
Mof_H 	H 	0.055	0.4322	0.345	-0.063
Mof_H 	H 	0.0519	0.472	0.3678	-0.011
Mof_C 	C 	0.9531	0.4746	0.3457	-0.394
Mof_H 	H 	0.9129	0.471	0.3456	0.097
Mof_H 	H 	0.9631	0.5089	0.3522	0.088
Mof_H 	H 	0.9672	0.471	0.3287	0.05
Mof_Zn	Zn	0.89579	0.31104	0.1808	1.164
Mof_O 	O 	0.78832	0.20776	0.21717	-0.723
Mof_O 	O 	0.98241	0.39959	0.23367	-0.86
Mof_O 	O 	0.9799	0.21461	0.13017	-0.727
Mof_O 	O 	0.80263	0.42326	0.14338	-0.608
Mof_N 	N 	0.85478	0.26608	0.20455	-0.374
Mof_N 	N 	0.92892	0.34345	0.21054	-0.372
Mof_N 	N 	0.92639	0.27401	0.15151	-0.344
Mof_N 	N 	0.86384	0.35983	0.15595	-0.354
Mof_N 	N 	0.8083	0.21782	0.176	-0.317
Mof_H 	H 	0.8288	0.2346	0.1652	0.058
Mof_N 	N 	0.00031	0.38743	0.19231	-0.332
Mof_H 	H 	0.9978	0.3648	0.1801	0.086
Mof_N 	N 	0.97065	0.20936	0.1727	-0.313
Mof_H 	H 	0.9676	0.2287	0.1861	0.061
Mof_N 	N 	0.84096	0.42585	0.18228	-0.327
Mof_H 	H 	0.8588	0.4076	0.1935	0.074
Mof_C 	C 	0.7785	0.1806	0.13774	-0.528
Mof_H 	H 	0.7704	0.2154	0.1312	0.084
Mof_H 	H 	0.8169	0.1716	0.1341	0.117
Mof_H 	H 	0.754	0.1551	0.1298	0.114
Mof_C 	C 	0.7693	0.1799	0.16587	0.382
Mof_C 	C 	0.7103	0.1964	0.17184	-0.465
Mof_H 	H 	0.7059	0.1997	0.1899	0.063
Mof_H 	H 	0.7024	0.2299	0.1639	0.046
Mof_H 	H 	0.6846	0.17	0.1656	0.097
Mof_C 	C 	0.7797	0.1259	0.17564	-0.635
Mof_H 	H 	0.7727	0.1251	0.1936	0.199
Mof_H 	H 	0.755	0.1012	0.1673	0.168
Mof_H 	H 	0.818	0.1161	0.1724	0.218
Mof_C 	C 	0.8163	0.23	0.20059	0.369
Mof_C 	C 	0.8689	0.2791	0.22999	0.013
Mof_H 	H 	0.8351	0.2782	0.2403	-0.133
Mof_H 	H 	0.8945	0.2524	0.2366	-0.051
Mof_C 	C 	0.8949	0.3313	0.23222	-0.043
Mof_H 	H 	0.918	0.3322	0.2474	-0.052
Mof_H 	H 	0.8658	0.358	0.234	-0.038
Mof_C 	C 	0.9702	0.3771	0.21364	0.41
Mof_C 	C 	0.0361	0.433	0.18845	0.37
Mof_C 	C 	0.0498	0.4338	0.16102	-0.743
Mof_H 	H 	0.0158	0.4368	0.1513	0.237
Mof_H 	H 	0.0737	0.4637	0.1574	0.211
Mof_H 	H 	0.0689	0.4015	0.1565	0.28
Mof_C 	C 	0.0893	0.4281	0.20364	-0.346
Mof_H 	H 	0.1099	0.3974	0.1981	0.043
Mof_H 	H 	0.1119	0.4594	0.2012	0.057
Mof_H 	H 	0.0802	0.4245	0.2213	-0.069
Mof_C 	C 	0.0069	0.4827	0.19553	-0.468
Mof_H 	H 	0.9723	0.4855	0.1862	0.119
Mof_H 	H 	0.999	0.4825	0.2134	0.042
Mof_H 	H 	0.0305	0.5126	0.1916	0.087
Mof_C 	C 	0.9861	0.1456	0.20372	-0.595
Mof_H 	H 	0.0128	0.1687	0.2118	0.126
Mof_H 	H 	0.9491	0.1532	0.21	0.198
Mof_H 	H 	0.9955	0.1093	0.2073	0.225
Mof_C 	C 	0.9876	0.1545	0.17578	0.339
Mof_C 	C 	0.0464	0.1457	0.16651	-0.327
Mof_H 	H 	0.0717	0.1687	0.1755	0.025
Mof_H 	H 	0.0569	0.1093	0.1694	0.063
Mof_H 	H 	0.0483	0.1533	0.1487	-0.047
Mof_C 	C 	0.9484	0.1182	0.16253	-0.453
Mof_H 	H 	0.9503	0.1245	0.1446	0.01
Mof_H 	H 	0.9588	0.082	0.166	0.158
Mof_H 	H 	0.9108	0.1244	0.1684	0.165
Mof_C 	C 	0.95923	0.2325	0.14977	0.417
Mof_C 	C 	0.9158	0.3035	0.12883	-0.091
Mof_H 	H 	0.9467	0.3277	0.1256	0.128
Mof_H 	H 	0.9126	0.2795	0.1145	0.021
Mof_C 	C 	0.86222	0.33435	0.13187	0.008
Mof_H 	H 	0.8302	0.3106	0.1309	-0.136
Mof_H 	H 	0.8588	0.3606	0.1185	-0.071
Mof_C 	C 	0.83433	0.40323	0.15926	0.296
Mof_C 	C 	0.8211	0.4775	0.18991	0.535
Mof_C 	C 	0.8445	0.4862	0.21591	-0.75
Mof_H 	H 	0.8848	0.4837	0.2153	0.2
Mof_H 	H 	0.8339	0.5208	0.2219	0.228
Mof_H 	H 	0.83	0.4596	0.2272	0.218
Mof_C 	C 	0.7585	0.4786	0.19083	-0.741
Mof_H 	H 	0.7437	0.4682	0.1746	0.147
Mof_H 	H 	0.7455	0.4544	0.2036	0.208
Mof_H 	H 	0.746	0.5139	0.1948	0.295
Mof_C 	C 	0.8422	0.52	0.17254	-0.771
Mof_H 	H 	0.8822	0.5171	0.1709	0.215
Mof_H 	H 	0.8251	0.5159	0.1562	0.226
Mof_H 	H 	0.8327	0.5542	0.1794	0.207
Mof_Zn	Zn	0.8654	0.26566	0.01554	1.166
Mof_O 	O 	0.95946	0.15243	0.05282	-0.739
Mof_O 	O 	0.77801	0.3585	0.06615	-0.636
Mof_O 	O 	0.77282	0.32397	0.46551	-0.716
Mof_O 	O 	0.95443	0.11878	0.47827	-0.725
Mof_N 	N 	0.90233	0.21842	0.03948	-0.366
Mof_N 	N 	0.82894	0.29683	0.045	-0.348
Mof_N 	N 	0.83122	0.26748	0.48609	-0.338
Mof_N 	N 	0.89491	0.18225	0.49148	-0.363
Mof_N 	N 	0.94987	0.16926	0.01131	-0.324
Mof_H 	H 	0.9286	0.1841	0.0001	0.08
Mof_N 	N 	0.76171	0.34211	0.02478	-0.318
Mof_H 	H 	0.7571	0.3155	0.0147	0.052
Mof_N 	N 	0.79874	0.3404	0.50576	-0.297
Mof_H 	H 	0.8074	0.325	0.5198	0.053
Mof_N 	N 	0.93423	0.12782	0.51963	-0.323
Mof_H 	H 	0.9192	0.1481	0.5309	0.072
Mof_C 	C 	0.9923	0.141	0.97371	-0.648
Mof_H 	H 	0.9991	0.1773	0.9689	0.144
Mof_H 	H 	0.0206	0.1186	0.9663	0.152
Mof_H 	H 	0.9559	0.1303	0.9677	0.177
Mof_C 	C 	0.9944	0.1362	0.00203	0.477
Mof_C 	C 	0.9852	0.0798	0.00926	-0.649
Mof_H 	H 	0.9822	0.0771	0.0274	0.166
Mof_H 	H 	0.951	0.0671	0.0016	0.174
Mof_H 	H 	0.0162	0.0586	0.0035	0.165
Mof_C 	C 	0.05	0.1545	0.01159	-0.654
Mof_H 	H 	0.0551	0.1914	0.0074	0.2
Mof_H 	H 	0.0514	0.1503	0.0297	0.096
Mof_H 	H 	0.0793	0.1338	0.0039	0.146
Mof_C 	C 	0.93805	0.1795	0.03594	0.397
Mof_C 	C 	0.88135	0.22684	0.06463	0.037
Mof_H 	H 	0.8518	0.2013	0.0682	-0.061
Mof_H 	H 	0.9114	0.2212	0.0768	-0.134
Mof_C 	C 	0.85875	0.28192	0.06751	-0.073
Mof_H 	H 	0.8894	0.3065	0.0704	-0.003
Mof_H 	H 	0.8337	0.2834	0.082	-0.029
Mof_C 	C 	0.79081	0.33376	0.04681	0.331
Mof_C 	C 	0.7384	0.39241	0.01734	0.438
Mof_C 	C 	0.7211	0.3862	0.99026	-0.662
Mof_H 	H 	0.6939	0.3581	0.9889	0.145
Mof_H 	H 	0.7048	0.4188	0.9843	0.18
Mof_H 	H 	0.7534	0.3776	0.9802	0.189
Mof_C 	C 	0.6883	0.4066	0.03282	-0.535
Mof_H 	H 	0.6602	0.3795	0.031	0.1
Mof_H 	H 	0.699	0.4094	0.0503	0.066
Mof_H 	H 	0.6734	0.44	0.0271	0.123
Mof_C 	C 	0.7828	0.4347	0.01922	-0.694
Mof_H 	H 	0.8148	0.4246	0.0093	0.2
Mof_H 	H 	0.768	0.4677	0.0129	0.194
Mof_H 	H 	0.7938	0.439	0.0366	0.203
Mof_C 	C 	0.7978	0.4138	0.53298	-0.52
Mof_H 	H 	0.7757	0.3939	0.5449	0.126
Mof_H 	H 	0.7894	0.451	0.5346	0.132
Mof_H 	H 	0.837	0.408	0.5363	0.133
Mof_C 	C 	0.7842	0.3959	0.50673	0.272
Mof_C 	C 	0.7219	0.4024	0.50187	-0.191
Mof_H 	H 	0.7132	0.3902	0.4851	-0.212
Mof_H 	H 	0.7119	0.4392	0.5034	0.02
Mof_H 	H 	0.7012	0.3818	0.514	-0.072
Mof_C 	C 	0.8172	0.4275	0.48771	-0.501
Mof_H 	H 	0.8092	0.4147	0.4709	0.121
Mof_H 	H 	0.8566	0.4238	0.4911	0.141
Mof_H 	H 	0.8068	0.4643	0.4889	0.131
Mof_C 	C 	0.79991	0.3104	0.48422	0.305
Mof_C 	C 	0.8343	0.2325	0.46485	-0.09
Mof_H 	H 	0.8328	0.2527	0.4492	0.023
Mof_H 	H 	0.8027	0.208	0.4651	0.008
Mof_C 	C 	0.8879	0.2024	0.46632	0.015
Mof_H 	H 	0.8874	0.1732	0.4543	-0.077
Mof_H 	H 	0.9191	0.2256	0.4621	-0.099
Mof_C 	C 	0.9286	0.1425	0.49498	0.373
Mof_C 	C 	0.9634	0.081	0.52839	0.534
Mof_C 	C 	0.9536	0.0795	0.55651	-0.842
Mof_H 	H 	0.9687	0.1111	0.5641	0.311
Mof_H 	H 	0.9719	0.0488	0.5636	0.264
Mof_H 	H 	0.914	0.0776	0.5598	0.253
Mof_C 	C 	0.0255	0.0851	0.52339	-0.669
Mof_H 	H 	0.0319	0.0881	0.5055	0.116
Mof_H 	H 	0.0441	0.054	0.5297	0.153
Mof_H 	H 	0.0402	0.1161	0.5318	0.171
Mof_C 	C 	0.9405	0.0318	0.51659	-0.681
Mof_H 	H 	0.9446	0.0338	0.4985	0.178
Mof_H 	H 	0.9014	0.0283	0.5208	0.188
Mof_H 	H 	0.9607	0.0014	0.5228	0.151
Mof_O 	O 	0.7212	0.0911	0.2596	-0.496
Mof_N 	N 	0.6461	0.049	0.2721	-0.215
Mof_C 	C 	0.7003	0.0516	0.2691	0.136
Mof_C 	C 	0.7348	0.0028	0.2721	1.12
Mof_H 	H 	0.7365	0.9842	0.2562	-0.393
Mof_H 	H 	0.7722	0.0105	0.2779	-0.169
Mof_H 	H 	0.7159	0.9811	0.2845	-0.841
Mof_C 	C 	0.613	0.0954	0.2675	-0.146
Mof_H 	H 	0.6332	0.1165	0.2554	-0.038
Mof_H 	H 	0.5768	0.0862	0.2606	0.013
Mof_H 	H 	0.608	0.1153	0.2829	-0.026
Mof_C 	C 	0.6151	0.0067	0.2833	-0.069
Mof_H 	H 	0.605	0.0147	0.3006	0
Mof_H 	H 	0.5816	0.0029	0.2733	-0.055
Mof_H 	H 	0.6362	0.9741	0.2828	0.002
Mof_O 	O 	0.7068	0.0977	0.2603	-0.12
Mof_N 	N 	0.6624	0.0287	0.2753	-0.079
Mof_C 	C 	0.6622	0.0755	0.2647	0.255
Mof_C 	C 	0.6107	0.0934	0.2512	-0.037
Mof_H 	H 	0.6102	0.0837	0.2336	-0.048
Mof_H 	H 	0.5813	0.0748	0.26	0
Mof_H 	H 	0.6048	0.1311	0.2528	-0.052
Mof_C 	C 	0.7148	0.0078	0.284	-0.066
Mof_H 	H 	0.7422	0.0299	0.2758	-0.449
Mof_H 	H 	0.7203	0.0093	0.3021	0.107
Mof_H 	H 	0.719	0.9717	0.2783	0.509
Mof_C 	C 	0.6194	0.9894	0.2734	0.165
Mof_H 	H 	0.6272	0.9616	0.2614	-0.12
Mof_H 	H 	0.6192	0.9748	0.2903	-0.075
Mof_H 	H 	0.5834	0.0048	0.2697	-0.067
Mof_O 	O 	0.0237	0.5252	0.2627	1.156
Mof_N 	N 	0.1073	0.5611	0.26402	0.9
Mof_C 	C 	0.057	0.5579	0.25465	3.106
Mof_C 	C 	0.0397	0.5962	0.2348	-0.251
Mof_H 	H 	0.0363	0.6311	0.242	0.033
Mof_H 	H 	0.067	0.5968	0.2214	-0.347
Mof_H 	H 	0.0039	0.5853	0.228	0.119
Mof_C 	C 	0.1247	0.5245	0.2832	5.816
Mof_H 	H 	0.1383	0.4925	0.2753	-0.904
Mof_H 	H 	0.1543	0.5404	0.293	-0.786
Mof_H 	H 	0.0936	0.5162	0.2941	-6.985
Mof_C 	C 	0.152	0.5939	0.2551	0.313
Mof_H 	H 	0.1426	0.6072	0.2385	-0.009
Mof_H 	H 	0.1557	0.6231	0.2667	-0.088
Mof_H 	H 	0.1869	0.5747	0.2542	0.072
Mof_O 	O 	0.0335	0.5218	0.267	-1.559
Mof_N 	N 	0.0946	0.5802	0.253	-0.967
Mof_C 	C 	0.08	0.5419	0.2681	-3.863
Mof_C 	C 	0.1169	0.5296	0.2901	3.892
Mof_H 	H 	0.1529	0.5184	0.2838	-3.448
Mof_H 	H 	0.1215	0.5602	0.3008	-1.147
Mof_H 	H 	0.1002	0.5012	0.2997	3.88
Mof_C 	C 	0.0563	0.5992	0.2342	-0.55
Mof_H 	H 	0.0554	0.6374	0.2347	0.214
Mof_H 	H 	0.068	0.5875	0.2177	0.528
Mof_H 	H 	0.0194	0.5855	0.2378	-0.235
Mof_C 	C 	0.1415	0.6148	0.2566	0.043
Mof_H 	H 	0.174	0.5936	0.2603	-0.289
Mof_H 	H 	0.148	0.6349	0.2414	-0.191
Mof_H 	H 	0.1346	0.6388	0.2705	0.004
Mof_O 	O 	0.1118	0.1896	0.0976	0.846
Mof_N 	N 	0.2022	0.2062	0.09787	0.712
Mof_C 	C 	0.1521	0.2115	0.10723	3.037
Mof_C 	C 	0.1449	0.2407	0.1315	0.215
Mof_H 	H 	0.1639	0.2205	0.1443	-1.787
Mof_H 	H 	0.1613	0.2755	0.1304	-3.574
Mof_H 	H 	0.1058	0.2439	0.1358	-0.518
Mof_C 	C 	0.2101	0.1769	0.0749	0.764
Mof_H 	H 	0.2228	0.2011	0.0621	-0.171
Mof_H 	H 	0.2372	0.1489	0.077	-0.021
Mof_H 	H 	0.1746	0.1619	0.07	0.128
Mof_C 	C 	0.2511	0.235	0.1054	0.222
Mof_H 	H 	0.2727	0.2133	0.1168	0.909
Mof_H 	H 	0.2733	0.2433	0.0907	-0.052
Mof_H 	H 	0.2405	0.2674	0.1138	-0.471
Mof_O 	O 	0.1166	0.1913	0.09067	-1.669
Mof_N 	N 	0.1889	0.2178	0.11319	-0.85
Mof_C 	C 	0.167	0.1986	0.09259	-2.701
Mof_C 	C 	0.2035	0.1913	0.06999	0.566
Mof_H 	H 	0.2072	0.2243	0.061	-0.486
Mof_H 	H 	0.2399	0.1796	0.0755	-0.466
Mof_H 	H 	0.1873	0.165	0.059	-0.461
Mof_C 	C 	0.1535	0.2306	0.13419	-2.346
Mof_H 	H 	0.1186	0.2117	0.1325	0.555
Mof_H 	H 	0.1712	0.2211	0.1499	2.464
Mof_H 	H 	0.1463	0.2682	0.134	4.486
Mof_C 	C 	0.2448	0.2375	0.11614	0.31
Mof_H 	H 	0.2476	0.2714	0.1078	0.368
Mof_H 	H 	0.2532	0.2415	0.1339	-0.133
Mof_H 	H 	0.271	0.2131	0.1086	-1.1
Mof_O 	O 	0.05814	0.0705	0.09687	-0.746
Mof_N 	N 	0.1274	0.028	0.07834	-0.162
Mof_C 	C 	0.1069	0.0557	0.09689	0.277
Mof_C 	C 	0.1437	0.0682	0.1188	-0.05
Mof_H 	H 	0.1219	0.0852	0.1318	-0.084
Mof_H 	H 	0.1585	0.0353	0.1252	-0.423
Mof_H 	H 	0.1741	0.091	0.1139	0.032
Mof_C 	C 	0.094	0.0164	0.05654	-0.616
Mof_H 	H 	0.1142	0.0261	0.0415	0.336
Mof_H 	H 	0.0854	0.9791	0.056	0.781
Mof_H 	H 	0.0598	0.0365	0.0575	0.144
Mof_C 	C 	0.1816	0.0037	0.0779	-0.069
Mof_H 	H 	0.1823	0.9729	0.0886	0.042
Mof_H 	H 	0.1902	0.9935	0.0608	0.023
Mof_H 	H 	0.2091	0.0289	0.0837	0.04
Mof_O 	O 	0.0546	0.0662	0.0864	-0.057
Mof_N 	N 	0.1417	0.0395	0.0912	-0.154
Mof_C 	C 	0.0945	0.0404	0.0788	0.356
Mof_C 	C 	0.0866	0.0029	0.0573	-0.134
Mof_H 	H 	0.0482	0.0031	0.0517	-0.088
Mof_H 	H 	0.1103	0.0167	0.0441	-0.146
Mof_H 	H 	0.0977	0.9671	0.0612	-0.527
Mof_C 	C 	0.1467	0.067	0.1147	-0.22
Mof_H 	H 	0.1165	0.0923	0.1159	0.011
Mof_H 	H 	0.1456	0.0437	0.1292	0.51
Mof_H 	H 	0.182	0.0856	0.1145	0.058
Mof_C 	C 	0.1911	0.0108	0.0844	0.019
Mof_H 	H 	0.2054	0.0221	0.0682	0.005
Mof_H 	H 	0.2195	0.0156	0.0971	-0.008
Mof_H 	H 	0.1809	0.9739	0.0835	-0.006
Mof_O 	O 	0.64639	0.3286	0.4166	-4.886
Mof_N 	N 	0.57652	0.2971	0.43915	-7.486
Mof_C 	C 	0.5972	0.3153	0.41811	-29.156
Mof_C 	C 	0.5592	0.3238	0.39617	1.674
Mof_H 	H 	0.5798	0.3393	0.3824	-1.71
Mof_H 	H 	0.529	0.3472	0.401	1.666
Mof_H 	H 	0.5439	0.2902	0.391	-0.475
Mof_C 	C 	0.6124	0.2886	0.46048	-14.382
Mof_H 	H 	0.6217	0.2516	0.4619	1.751
Mof_H 	H 	0.5936	0.3001	0.4756	-5.594
Mof_H 	H 	0.6462	0.3089	0.4582	2.615
Mof_C 	C 	0.5204	0.2792	0.44329	-1.795
Mof_H 	H 	0.5036	0.2994	0.4568	0.491
Mof_H 	H 	0.5209	0.2422	0.4478	-0.778
Mof_H 	H 	0.4988	0.2839	0.428	0.268
Mof_O 	O 	0.6533	0.1808	0.9169	3.77
Mof_N 	N 	0.5641	0.196	0.9246	11.198
Mof_C 	C 	0.6165	0.1949	0.9315	28.086
Mof_C 	C 	0.6317	0.2143	0.9572	-9.544
Mof_H 	H 	0.6201	0.2508	0.9585	4.335
Mof_H 	H 	0.6128	0.1937	0.9699	14.412
Mof_H 	H 	0.6716	0.2119	0.9596	1.157
Mof_C 	C 	0.5486	0.179	0.8997	4.258
Mof_H 	H 	0.5788	0.1579	0.893	2.054
Mof_H 	H 	0.5153	0.1576	0.9009	-3.504
Mof_H 	H 	0.5416	0.2086	0.8886	-0.948
Mof_C 	C 	0.5197	0.2228	0.9375	-0.842
Mof_H 	H 	0.5336	0.2382	0.953	2.366
Mof_H 	H 	0.5051	0.2504	0.9267	0.082
Mof_H 	H 	0.4902	0.1979	0.9414	0.448
Mof_O 	O 	0.6935	0.4628	0.43242	-0.429
Mof_N 	N 	0.6152	0.5041	0.42244	-0.502
Mof_C 	C 	0.6608	0.4993	0.43573	-0.436
Mof_C 	C 	0.6701	0.5367	0.45712	-0.548
Mof_H 	H 	0.6979	0.5224	0.4684	-0.013
Mof_H 	H 	0.6353	0.5413	0.4661	0.214
Mof_H 	H 	0.6827	0.5704	0.4508	0.331
Mof_C 	C 	0.6054	0.4699	0.40131	-0.91
Mof_H 	H 	0.6364	0.4457	0.3996	0.139
Mof_H 	H 	0.6019	0.4907	0.3861	-0.066
Mof_H 	H 	0.5714	0.4501	0.404	0.328
Mof_C 	C 	0.5754	0.5463	0.4244	0.924
Mof_H 	H 	0.5764	0.5583	0.4417	-2.455
Mof_H 	H 	0.5391	0.5312	0.4209	-0.857
Mof_H 	H 	0.5821	0.5757	0.4132	-1.954
Mof_O 	O 	0.6963	0.0337	0.9256	-0.09
Mof_N 	N 	0.6315	0.974	0.9333	0.116
Mof_C 	C 	0.6494	0.0162	0.9216	1.108
Mof_C 	C 	0.6094	0.047	0.9058	-0.455
Mof_H 	H 	0.6103	0.0337	0.8887	0.614
Mof_H 	H 	0.5721	0.0432	0.9125	0.156
Mof_H 	H 	0.6198	0.0839	0.9058	0.537
Mof_C 	C 	0.6692	0.9438	0.9486	-0.292
Mof_H 	H 	0.6983	0.967	0.9546	0.358
Mof_H 	H 	0.6491	0.9292	0.9628	0.072
Mof_H 	H 	0.6856	0.9154	0.9389	-0.087
Mof_C 	C 	0.5784	0.9488	0.9296	0.42
Mof_H 	H 	0.5885	0.9175	0.9202	1.597
Mof_H 	H 	0.5587	0.9386	0.9448	1.772
Mof_H 	H 	0.5545	0.971	0.9194	0.467
Mof_O 	O 	0.0593	0.0584	0.4243	-0.364
Mof_N 	N 	0.1254	0.0074	0.40822	-0.62
Mof_C 	C 	0.1072	0.0415	0.42477	-0.743
Mof_C 	C 	0.1462	0.0598	0.44493	0.063
Mof_H 	H 	0.1264	0.0818	0.4568	-0.246
Mof_H 	H 	0.1766	0.0797	0.4375	-0.116
Mof_H 	H 	0.1611	0.0293	0.4536	-0.048
Mof_C 	C 	0.0884	0.9855	0.3897	-0.376
Mof_H 	H 	0.0535	0.0048	0.3902	0.033
Mof_H 	H 	0.0814	0.9485	0.3929	0.47
Mof_H 	H 	0.1052	0.9894	0.3732	0.151
Mof_C 	C 	0.1794	0.9825	0.40872	0.04
Mof_H 	H 	0.2061	0.0058	0.4167	-0.054
Mof_H 	H 	0.1913	0.975	0.3917	0.175
Mof_H 	H 	0.1771	0.9499	0.4182	-0.028
Mof_O 	O 	0.0555	0.4515	0.921	-0.198
Mof_N 	N 	0.1436	0.4769	0.91919	0.211
Mof_C 	C 	0.0921	0.4781	0.911	1.247
Mof_C 	C 	0.0773	0.515	0.8901	-0.126
Mof_H 	H 	0.0376	0.522	0.89	0.009
Mof_H 	H 	0.0975	0.5477	0.8927	-0.311
Mof_H 	H 	0.0881	0.4998	0.8741	0.031
Mof_C 	C 	0.1583	0.4438	0.9401	-0.008
Mof_H 	H 	0.1259	0.4399	0.9509	0.154
Mof_H 	H 	0.1697	0.4094	0.934	0.058
Mof_H 	H 	0.1885	0.4594	0.9496	0.007
Mof_C 	C 	0.1907	0.503	0.908	0.142
Mof_H 	H 	0.1803	0.5174	0.8918	-0.264
Mof_H 	H 	0.2025	0.5313	0.9191	-0.122
Mof_H 	H 	0.221	0.4782	0.9059	-0.087
Mof_K 	K 	0.2577	0.31321	0.73842	2.988
Mof_K 	K 	0.52569	0.07739	0.7261	3.591
Mof_K 	K 	0.51395	0.33873	0.90638	3.481
Mof_K 	K 	0.24088	0.12006	0.89057	2.26
Mof_K 	K 	0.23944	0.12749	0.57245	0.971
Mof_K 	K 	0.513	0.35867	0.5593	2.696
Mof_Zn	Zn	0.40059	0.23129	0.65014	1.162
Mof_O 	O 	0.47918	0.33637	0.60206	-0.685
Mof_O 	O 	0.30229	0.12687	0.60988	-0.435
Mof_O 	O 	0.32577	0.32787	0.70294	-0.702
Mof_O 	O 	0.49736	0.1174	0.68544	-0.869
Mof_N 	N 	0.4293	0.27263	0.62181	-0.362
Mof_N 	N 	0.35661	0.19326	0.62471	-0.334
Mof_N 	N 	0.38162	0.27312	0.68009	-0.356
Mof_N 	N 	0.43955	0.18415	0.67354	-0.384
Mof_N 	N 	0.48968	0.3226	0.64399	-0.327
Mof_H 	H 	0.4857	0.2994	0.6559	0.061
Mof_N 	N 	0.2976	0.1506	0.65023	-0.351
Mof_H 	H 	0.307	0.1749	0.6609	0.064
Mof_N 	N 	0.33879	0.34164	0.66134	-0.326
Mof_H 	H 	0.3525	0.3286	0.6475	0.073
Mof_N 	N 	0.46177	0.11992	0.64604	-0.31
Mof_H 	H 	0.4469	0.1404	0.6348	0.067
Mof_C 	C 	0.5337	0.3662	0.67752	-0.708
Mof_H 	H 	0.5572	0.3358	0.6807	0.165
Mof_H 	H 	0.5529	0.3979	0.6828	0.185
Mof_H 	H 	0.4992	0.3626	0.6868	0.189
Mof_C 	C 	0.52113	0.36965	0.6499	0.483
Mof_C 	C 	0.4874	0.4185	0.64437	-0.755
Mof_H 	H 	0.4779	0.4194	0.6267	0.263
Mof_H 	H 	0.4535	0.418	0.6543	0.217
Mof_H 	H 	0.509	0.4495	0.6486	0.214
Mof_C 	C 	0.575	0.3717	0.63522	-0.579
Mof_H 	H 	0.5952	0.3391	0.6375	0.115
Mof_H 	H 	0.5668	0.3766	0.6175	0.102
Mof_H 	H 	0.5974	0.4009	0.6412	0.148
Mof_C 	C 	0.46556	0.3114	0.6212	0.364
Mof_C 	C 	0.40166	0.25795	0.59873	-0.024
Mof_H 	H 	0.3708	0.2823	0.5955	0.005
Mof_H 	H 	0.4279	0.2607	0.5847	-0.06
Mof_C 	C 	0.37962	0.20268	0.60016	-0.063
Mof_H 	H 	0.4098	0.1776	0.5969	-0.006
Mof_H 	H 	0.3508	0.1976	0.5874	0.001
Mof_C 	C 	0.31907	0.1554	0.62675	0.327
Mof_C 	C 	0.2614	0.1104	0.65946	0.784
Mof_C 	C 	0.2524	0.1205	0.68695	-0.87
Mof_H 	H 	0.2351	0.1547	0.6892	0.165
Mof_H 	H 	0.2284	0.0934	0.6939	0.223
Mof_H 	H 	0.288	0.1199	0.6956	0.211
Mof_C 	C 	0.2883	0.0583	0.65625	-1.037
Mof_H 	H 	0.2954	0.0521	0.6386	0.321
Mof_H 	H 	0.3232	0.0577	0.6654	0.3
Mof_H 	H 	0.2639	0.031	0.6627	0.297
Mof_C 	C 	0.2074	0.1106	0.6463	-1.221
Mof_H 	H 	0.1913	0.1455	0.6472	0.51
Mof_H 	H 	0.213	0.1008	0.6289	0.439
Mof_H 	H 	0.1826	0.0855	0.6542	0.368
Mof_C 	C 	0.3138	0.4084	0.63233	-0.783
Mof_H 	H 	0.2969	0.3824	0.6214	0.24
Mof_H 	H 	0.2951	0.4419	0.6301	0.232
Mof_H 	H 	0.3528	0.4121	0.6281	0.259
Mof_C 	C 	0.3082	0.391	0.65934	0.456
Mof_C 	C 	0.2471	0.3823	0.66547	-0.488
Mof_H 	H 	0.2435	0.3709	0.6828	0.031
Mof_H 	H 	0.2268	0.415	0.6631	0.123
Mof_H 	H 	0.2319	0.3556	0.6544	0.069
Mof_C 	C 	0.3316	0.4324	0.67643	-0.663
Mof_H 	H 	0.3283	0.4209	0.6937	0.19
Mof_H 	H 	0.3705	0.4382	0.6724	0.175
Mof_H 	H 	0.311	0.4649	0.6742	0.178
Mof_C 	C 	0.348	0.3138	0.683	0.345
Mof_C 	C 	0.3935	0.2425	0.70243	-0.055
Mof_H 	H 	0.4	0.266	0.7167	-0.022
Mof_H 	H 	0.3617	0.2198	0.7064	-0.073
Mof_C 	C 	0.4445	0.2094	0.69763	0.031
Mof_H 	H 	0.4483	0.1827	0.7108	-0.121
Mof_H 	H 	0.4778	0.2317	0.6979	-0.084
Mof_C 	C 	0.46733	0.1402	0.66966	0.397
Mof_C 	C 	0.4782	0.0676	0.63791	0.277
Mof_C 	C 	0.4573	0.0617	0.61143	-0.561
Mof_H 	H 	0.4172	0.0655	0.6112	0.185
Mof_H 	H 	0.4741	0.0886	0.6009	0.14
Mof_H 	H 	0.4674	0.0272	0.6051	0.158
Mof_C 	C 	0.5413	0.0627	0.63808	-0.238
Mof_H 	H 	0.5573	0.0892	0.6271	-0.032
Mof_H 	H 	0.555	0.0678	0.655	-0.064
Mof_H 	H 	0.5519	0.028	0.6322	-0.012
Mof_C 	C 	0.4531	0.0254	0.6543	-0.391
Mof_H 	H 	0.4129	0.029	0.6544	0.096
Mof_H 	H 	0.4631	0.9911	0.6478	0.087
Mof_H 	H 	0.4672	0.029	0.6713	0.049
Mof_Zn	Zn	0.39579	0.18896	0.8192	1.164
Mof_O 	O 	0.28832	0.29224	0.78283	-0.723
Mof_O 	O 	0.48241	0.10041	0.76633	-0.861
Mof_O 	O 	0.4799	0.28539	0.86983	-0.729
Mof_O 	O 	0.30263	0.07674	0.85662	-0.608
Mof_N 	N 	0.35478	0.23392	0.79545	-0.374
Mof_N 	N 	0.42892	0.15655	0.78946	-0.372
Mof_N 	N 	0.42639	0.22599	0.84849	-0.344
Mof_N 	N 	0.36384	0.14017	0.84405	-0.354
Mof_N 	N 	0.3083	0.28218	0.824	-0.317
Mof_H 	H 	0.3288	0.2654	0.8348	0.058
Mof_N 	N 	0.50031	0.11257	0.80769	-0.331
Mof_H 	H 	0.4978	0.1352	0.8199	0.085
Mof_N 	N 	0.47065	0.29064	0.8273	-0.313
Mof_H 	H 	0.4676	0.2713	0.8139	0.06
Mof_N 	N 	0.34096	0.07415	0.81772	-0.327
Mof_H 	H 	0.3588	0.0924	0.8065	0.074
Mof_C 	C 	0.2785	0.3194	0.86226	-0.527
Mof_H 	H 	0.2704	0.2846	0.8688	0.084
Mof_H 	H 	0.3169	0.3284	0.8659	0.116
Mof_H 	H 	0.254	0.3449	0.8702	0.114
Mof_C 	C 	0.2693	0.3201	0.83413	0.382
Mof_C 	C 	0.2103	0.3036	0.82816	-0.465
Mof_H 	H 	0.2059	0.3003	0.8101	0.063
Mof_H 	H 	0.2024	0.2701	0.8361	0.046
Mof_H 	H 	0.1846	0.33	0.8344	0.097
Mof_C 	C 	0.2797	0.3741	0.82436	-0.635
Mof_H 	H 	0.2727	0.3749	0.8064	0.199
Mof_H 	H 	0.255	0.3988	0.8327	0.168
Mof_H 	H 	0.318	0.3839	0.8276	0.219
Mof_C 	C 	0.3163	0.27	0.79941	0.369
Mof_C 	C 	0.3689	0.2209	0.77001	0.013
Mof_H 	H 	0.3351	0.2218	0.7597	-0.133
Mof_H 	H 	0.3945	0.2476	0.7634	-0.051
Mof_C 	C 	0.3949	0.1687	0.76778	-0.043
Mof_H 	H 	0.418	0.1678	0.7526	-0.052
Mof_H 	H 	0.3658	0.142	0.766	-0.038
Mof_C 	C 	0.4702	0.1229	0.78636	0.409
Mof_C 	C 	0.5361	0.067	0.81155	0.368
Mof_C 	C 	0.5498	0.0662	0.83898	-0.742
Mof_H 	H 	0.5158	0.0632	0.8487	0.237
Mof_H 	H 	0.5737	0.0363	0.8426	0.211
Mof_H 	H 	0.5689	0.0985	0.8435	0.28
Mof_C 	C 	0.5893	0.0719	0.79636	-0.344
Mof_H 	H 	0.6099	0.1026	0.8019	0.043
Mof_H 	H 	0.6119	0.0406	0.7988	0.057
Mof_H 	H 	0.5802	0.0755	0.7787	-0.07
Mof_C 	C 	0.5069	0.0173	0.80447	-0.464
Mof_H 	H 	0.4723	0.0145	0.8138	0.117
Mof_H 	H 	0.499	0.0175	0.7866	0.041
Mof_H 	H 	0.5305	0.9874	0.8084	0.084
Mof_C 	C 	0.4861	0.3544	0.79628	-0.6
Mof_H 	H 	0.5128	0.3313	0.7882	0.13
Mof_H 	H 	0.4491	0.3468	0.79	0.199
Mof_H 	H 	0.4955	0.3907	0.7927	0.226
Mof_C 	C 	0.4876	0.3455	0.82422	0.337
Mof_C 	C 	0.5464	0.3543	0.83349	-0.323
Mof_H 	H 	0.5717	0.3313	0.8245	0.025
Mof_H 	H 	0.5569	0.3907	0.8306	0.062
Mof_H 	H 	0.5483	0.3467	0.8513	-0.048
Mof_C 	C 	0.4484	0.3818	0.83747	-0.45
Mof_H 	H 	0.4503	0.3755	0.8554	0.008
Mof_H 	H 	0.4588	0.418	0.834	0.156
Mof_H 	H 	0.4108	0.3756	0.8316	0.164
Mof_C 	C 	0.45923	0.2675	0.85023	0.417
Mof_C 	C 	0.4158	0.1965	0.87117	-0.091
Mof_H 	H 	0.4467	0.1723	0.8744	0.128
Mof_H 	H 	0.4126	0.2205	0.8855	0.021
Mof_C 	C 	0.36222	0.16565	0.86813	0.008
Mof_H 	H 	0.3302	0.1894	0.8691	-0.136
Mof_H 	H 	0.3588	0.1394	0.8815	-0.071
Mof_C 	C 	0.33433	0.09677	0.84074	0.296
Mof_C 	C 	0.3211	0.0225	0.81009	0.537
Mof_C 	C 	0.3445	0.0138	0.78409	-0.754
Mof_H 	H 	0.3848	0.0163	0.7847	0.201
Mof_H 	H 	0.3339	0.9792	0.7781	0.229
Mof_H 	H 	0.33	0.0404	0.7728	0.219
Mof_C 	C 	0.2585	0.0214	0.80917	-0.746
Mof_H 	H 	0.2437	0.0318	0.8254	0.148
Mof_H 	H 	0.2455	0.0456	0.7964	0.209
Mof_H 	H 	0.246	0.9861	0.8052	0.297
Mof_C 	C 	0.3422	0.98	0.82746	-0.772
Mof_H 	H 	0.3822	0.9829	0.8291	0.216
Mof_H 	H 	0.3251	0.9841	0.8438	0.227
Mof_H 	H 	0.3327	0.9458	0.8206	0.207
Mof_Zn	Zn	0.3654	0.23434	0.98446	1.166
Mof_O 	O 	0.45946	0.34757	0.94718	-0.741
Mof_O 	O 	0.27801	0.1415	0.93385	-0.636
Mof_O 	O 	0.27282	0.17603	0.53449	-0.716
Mof_O 	O 	0.45443	0.38122	0.52173	-0.727
Mof_N 	N 	0.40233	0.28158	0.96052	-0.366
Mof_N 	N 	0.32894	0.20317	0.955	-0.348
Mof_N 	N 	0.33122	0.23252	0.51391	-0.338
Mof_N 	N 	0.39491	0.31775	0.50852	-0.363
Mof_N 	N 	0.44987	0.33074	0.98869	-0.324
Mof_H 	H 	0.4286	0.3159	0.9999	0.08
Mof_N 	N 	0.26171	0.15789	0.97522	-0.318
Mof_H 	H 	0.2571	0.1845	0.9853	0.052
Mof_N 	N 	0.29874	0.1596	0.49424	-0.296
Mof_H 	H 	0.3074	0.175	0.4802	0.053
Mof_N 	N 	0.43423	0.37218	0.48037	-0.323
Mof_H 	H 	0.4192	0.3519	0.4691	0.072
Mof_C 	C 	0.4923	0.359	0.02629	-0.66
Mof_H 	H 	0.4991	0.3227	0.0311	0.146
Mof_H 	H 	0.5206	0.3814	0.0337	0.157
Mof_H 	H 	0.4559	0.3697	0.0323	0.18
Mof_C 	C 	0.4944	0.3638	0.99797	0.481
Mof_C 	C 	0.4852	0.4202	0.99074	-0.662
Mof_H 	H 	0.4822	0.4229	0.9726	0.169
Mof_H 	H 	0.451	0.4329	0.9984	0.177
Mof_H 	H 	0.5162	0.4414	0.9965	0.171
Mof_C 	C 	0.55	0.3455	0.98841	-0.655
Mof_H 	H 	0.5551	0.3086	0.9926	0.201
Mof_H 	H 	0.5514	0.3497	0.9703	0.097
Mof_H 	H 	0.5793	0.3662	0.9961	0.147
Mof_C 	C 	0.43805	0.3205	0.96406	0.398
Mof_C 	C 	0.38135	0.27316	0.93537	0.037
Mof_H 	H 	0.3518	0.2987	0.9318	-0.062
Mof_H 	H 	0.4114	0.2788	0.9232	-0.135
Mof_C 	C 	0.35875	0.21808	0.93249	-0.073
Mof_H 	H 	0.3894	0.1935	0.9296	-0.003
Mof_H 	H 	0.3337	0.2166	0.918	-0.029
Mof_C 	C 	0.29081	0.16624	0.95319	0.331
Mof_C 	C 	0.2384	0.10759	0.98266	0.436
Mof_C 	C 	0.2211	0.1138	0.00974	-0.66
Mof_H 	H 	0.1939	0.1419	0.0111	0.145
Mof_H 	H 	0.2048	0.0812	0.0157	0.179
Mof_H 	H 	0.2534	0.1224	0.0198	0.188
Mof_C 	C 	0.1883	0.0934	0.96718	-0.533
Mof_H 	H 	0.1602	0.1205	0.969	0.099
Mof_H 	H 	0.199	0.0906	0.9497	0.065
Mof_H 	H 	0.1734	0.06	0.9729	0.122
Mof_C 	C 	0.2828	0.0653	0.98078	-0.692
Mof_H 	H 	0.3148	0.0754	0.9907	0.199
Mof_H 	H 	0.268	0.0323	0.9871	0.193
Mof_H 	H 	0.2938	0.061	0.9634	0.202
Mof_C 	C 	0.2978	0.0862	0.46702	-0.518
Mof_H 	H 	0.2757	0.1061	0.4551	0.125
Mof_H 	H 	0.2894	0.049	0.4654	0.131
Mof_H 	H 	0.337	0.092	0.4637	0.132
Mof_C 	C 	0.2842	0.1041	0.49327	0.27
Mof_C 	C 	0.2219	0.0976	0.49813	-0.189
Mof_H 	H 	0.2132	0.1098	0.5149	-0.211
Mof_H 	H 	0.2119	0.0608	0.4966	0.019
Mof_H 	H 	0.2012	0.1182	0.486	-0.072
Mof_C 	C 	0.3172	0.0725	0.51229	-0.498
Mof_H 	H 	0.3092	0.0853	0.5291	0.119
Mof_H 	H 	0.3566	0.0762	0.5089	0.14
Mof_H 	H 	0.3068	0.0357	0.5111	0.129
Mof_C 	C 	0.29991	0.1896	0.51578	0.305
Mof_C 	C 	0.3343	0.2675	0.53515	-0.09
Mof_H 	H 	0.3328	0.2473	0.5508	0.023
Mof_H 	H 	0.3027	0.292	0.5349	0.008
Mof_C 	C 	0.3879	0.2976	0.53368	0.016
Mof_H 	H 	0.3874	0.3268	0.5457	-0.077
Mof_H 	H 	0.4191	0.2744	0.5379	-0.1
Mof_C 	C 	0.4286	0.3575	0.50502	0.373
Mof_C 	C 	0.4634	0.419	0.47161	0.528
Mof_C 	C 	0.4536	0.4205	0.44349	-0.836
Mof_H 	H 	0.4687	0.3889	0.4359	0.309
Mof_H 	H 	0.4719	0.4512	0.4364	0.261
Mof_H 	H 	0.414	0.4224	0.4402	0.251
Mof_C 	C 	0.5255	0.4149	0.47661	-0.661
Mof_H 	H 	0.5319	0.4119	0.4945	0.115
Mof_H 	H 	0.5441	0.446	0.4703	0.152
Mof_H 	H 	0.5402	0.3839	0.4682	0.169
Mof_C 	C 	0.4405	0.4682	0.48341	-0.675
Mof_H 	H 	0.4446	0.4662	0.5015	0.175
Mof_H 	H 	0.4014	0.4717	0.4792	0.186
Mof_H 	H 	0.4607	0.4986	0.4772	0.148
Mof_O 	O 	0.2212	0.4089	0.7404	-0.497
Mof_N 	N 	0.1461	0.451	0.7279	-0.215
Mof_C 	C 	0.2003	0.4484	0.7309	0.135
Mof_C 	C 	0.2348	0.4972	0.7279	1.138
Mof_H 	H 	0.2365	0.5158	0.7438	-0.398
Mof_H 	H 	0.2722	0.4895	0.7221	-0.172
Mof_H 	H 	0.2159	0.5189	0.7155	-0.853
Mof_C 	C 	0.113	0.4046	0.7325	-0.147
Mof_H 	H 	0.1332	0.3835	0.7446	-0.038
Mof_H 	H 	0.0768	0.4138	0.7394	0.013
Mof_H 	H 	0.108	0.3847	0.7171	-0.026
Mof_C 	C 	0.1151	0.4933	0.7167	-0.069
Mof_H 	H 	0.105	0.4853	0.6994	0
Mof_H 	H 	0.0816	0.4971	0.7267	-0.055
Mof_H 	H 	0.1362	0.5259	0.7172	0.003
Mof_O 	O 	0.2068	0.4023	0.7397	-0.119
Mof_N 	N 	0.1624	0.4713	0.7247	-0.079
Mof_C 	C 	0.1622	0.4245	0.7353	0.256
Mof_C 	C 	0.1107	0.4066	0.7488	-0.037
Mof_H 	H 	0.1102	0.4163	0.7664	-0.048
Mof_H 	H 	0.0813	0.4252	0.74	0
Mof_H 	H 	0.1048	0.3689	0.7472	-0.052
Mof_C 	C 	0.2148	0.4922	0.716	-0.066
Mof_H 	H 	0.2422	0.4701	0.7242	-0.456
Mof_H 	H 	0.2203	0.4907	0.6979	0.108
Mof_H 	H 	0.219	0.5283	0.7217	0.515
Mof_C 	C 	0.1194	0.5106	0.7266	0.164
Mof_H 	H 	0.1272	0.5384	0.7386	-0.119
Mof_H 	H 	0.1192	0.5252	0.7097	-0.075
Mof_H 	H 	0.0834	0.4952	0.7303	-0.067
Mof_O 	O 	0.5237	0.9748	0.7373	1.163
Mof_N 	N 	0.6073	0.9389	0.73598	0.905
Mof_C 	C 	0.557	0.9421	0.74535	3.12
Mof_C 	C 	0.5397	0.9038	0.7652	-0.253
Mof_H 	H 	0.5363	0.8689	0.758	0.033
Mof_H 	H 	0.567	0.9032	0.7786	-0.348
Mof_H 	H 	0.5039	0.9147	0.772	0.12
Mof_C 	C 	0.6247	0.9755	0.7168	5.847
Mof_H 	H 	0.6383	0.0075	0.7247	-0.906
Mof_H 	H 	0.6543	0.9596	0.707	-0.789
Mof_H 	H 	0.5936	0.9838	0.7059	-7.021
Mof_C 	C 	0.652	0.9061	0.7449	0.315
Mof_H 	H 	0.6426	0.8928	0.7615	-0.01
Mof_H 	H 	0.6557	0.8769	0.7333	-0.088
Mof_H 	H 	0.6869	0.9253	0.7458	0.073
Mof_O 	O 	0.5335	0.9782	0.733	-1.567
Mof_N 	N 	0.5946	0.9198	0.747	-0.971
Mof_C 	C 	0.58	0.9581	0.7319	-3.883
Mof_C 	C 	0.6169	0.9704	0.7099	3.911
Mof_H 	H 	0.6529	0.9816	0.7162	-3.467
Mof_H 	H 	0.6215	0.9398	0.6992	-1.153
Mof_H 	H 	0.6002	0.9988	0.7003	3.9
Mof_C 	C 	0.5563	0.9008	0.7658	-0.551
Mof_H 	H 	0.5554	0.8626	0.7653	0.215
Mof_H 	H 	0.568	0.9125	0.7823	0.529
Mof_H 	H 	0.5194	0.9145	0.7622	-0.237
Mof_C 	C 	0.6415	0.8852	0.7434	0.044
Mof_H 	H 	0.674	0.9064	0.7397	-0.291
Mof_H 	H 	0.648	0.8651	0.7586	-0.191
Mof_H 	H 	0.6346	0.8612	0.7295	0.004
Mof_O 	O 	0.6118	0.3104	0.9024	0.842
Mof_N 	N 	0.7022	0.2938	0.90213	0.711
Mof_C 	C 	0.6521	0.2885	0.89277	3.031
Mof_C 	C 	0.6449	0.2593	0.8685	0.214
Mof_H 	H 	0.6639	0.2795	0.8557	-1.776
Mof_H 	H 	0.6613	0.2245	0.8696	-3.54
Mof_H 	H 	0.6058	0.2561	0.8642	-0.511
Mof_C 	C 	0.7101	0.3231	0.9251	0.76
Mof_H 	H 	0.7228	0.2989	0.9379	-0.169
Mof_H 	H 	0.7372	0.3511	0.923	-0.02
Mof_H 	H 	0.6746	0.3381	0.93	0.129
Mof_C 	C 	0.7511	0.265	0.8946	0.221
Mof_H 	H 	0.7727	0.2867	0.8832	0.906
Mof_H 	H 	0.7733	0.2567	0.9093	-0.052
Mof_H 	H 	0.7405	0.2326	0.8862	-0.469
Mof_O 	O 	0.6166	0.3087	0.90933	-1.666
Mof_N 	N 	0.6889	0.2822	0.88681	-0.851
Mof_C 	C 	0.667	0.3014	0.90741	-2.696
Mof_C 	C 	0.7035	0.3087	0.93001	0.564
Mof_H 	H 	0.7072	0.2757	0.939	-0.488
Mof_H 	H 	0.7399	0.3204	0.9245	-0.465
Mof_H 	H 	0.6873	0.335	0.941	-0.461
Mof_C 	C 	0.6535	0.2694	0.86581	-2.33
Mof_H 	H 	0.6186	0.2883	0.8675	0.549
Mof_H 	H 	0.6712	0.2789	0.8501	2.448
Mof_H 	H 	0.6463	0.2318	0.866	4.447
Mof_C 	C 	0.7448	0.2625	0.88386	0.308
Mof_H 	H 	0.7476	0.2286	0.8922	0.366
Mof_H 	H 	0.7532	0.2585	0.8661	-0.133
Mof_H 	H 	0.771	0.2869	0.8914	-1.097
Mof_O 	O 	0.55814	0.4295	0.90313	-0.735
Mof_N 	N 	0.6274	0.472	0.92166	-0.168
Mof_C 	C 	0.6069	0.4443	0.90311	0.273
Mof_C 	C 	0.6437	0.4318	0.8812	-0.05
Mof_H 	H 	0.6219	0.4148	0.8682	-0.083
Mof_H 	H 	0.6585	0.4647	0.8748	-0.411
Mof_H 	H 	0.6741	0.409	0.8861	0.032
Mof_C 	C 	0.594	0.4836	0.94346	-0.592
Mof_H 	H 	0.6142	0.4739	0.9585	0.327
Mof_H 	H 	0.5854	0.5209	0.944	0.751
Mof_H 	H 	0.5598	0.4635	0.9425	0.136
Mof_C 	C 	0.6816	0.4963	0.9221	-0.063
Mof_H 	H 	0.6823	0.5271	0.9114	0.037
Mof_H 	H 	0.6902	0.5065	0.9392	0.018
Mof_H 	H 	0.7091	0.4711	0.9163	0.034
Mof_O 	O 	0.5546	0.4338	0.9136	-0.067
Mof_N 	N 	0.6417	0.4605	0.9088	-0.152
Mof_C 	C 	0.5945	0.4596	0.9212	0.36
Mof_C 	C 	0.5866	0.4971	0.9427	-0.132
Mof_H 	H 	0.5482	0.4969	0.9483	-0.083
Mof_H 	H 	0.6103	0.4833	0.9559	-0.142
Mof_H 	H 	0.5977	0.5329	0.9388	-0.508
Mof_C 	C 	0.6467	0.433	0.8853	-0.216
Mof_H 	H 	0.6165	0.4077	0.8841	0.009
Mof_H 	H 	0.6456	0.4563	0.8708	0.497
Mof_H 	H 	0.682	0.4144	0.8855	0.057
Mof_C 	C 	0.6911	0.4892	0.9156	0.026
Mof_H 	H 	0.7054	0.4779	0.9318	0.006
Mof_H 	H 	0.7195	0.4844	0.9029	-0.007
Mof_H 	H 	0.6809	0.5261	0.9165	-0.007
Mof_O 	O 	0.14639	0.1714	0.5834	-4.859
Mof_N 	N 	0.07652	0.2029	0.56085	-7.443
Mof_C 	C 	0.0972	0.1847	0.58189	-28.991
Mof_C 	C 	0.0592	0.1762	0.60383	1.664
Mof_H 	H 	0.0798	0.1607	0.6176	-1.703
Mof_H 	H 	0.029	0.1528	0.599	1.655
Mof_H 	H 	0.0439	0.2098	0.609	-0.473
Mof_C 	C 	0.1124	0.2114	0.53952	-14.302
Mof_H 	H 	0.1217	0.2484	0.5381	1.741
Mof_H 	H 	0.0936	0.1999	0.5244	-5.563
Mof_H 	H 	0.1462	0.1911	0.5418	2.6
Mof_C 	C 	0.0204	0.2208	0.55671	-1.79
Mof_H 	H 	0.0036	0.2006	0.5432	0.488
Mof_H 	H 	0.0209	0.2578	0.5522	-0.774
Mof_H 	H 	0.9988	0.2161	0.572	0.271
Mof_O 	O 	0.1533	0.3192	0.0831	3.757
Mof_N 	N 	0.0641	0.304	0.0754	11.164
Mof_C 	C 	0.1165	0.3051	0.0685	28.001
Mof_C 	C 	0.1317	0.2857	0.0428	-9.516
Mof_H 	H 	0.1201	0.2492	0.0415	4.322
Mof_H 	H 	0.1128	0.3063	0.0301	14.369
Mof_H 	H 	0.1716	0.2881	0.0404	1.153
Mof_C 	C 	0.0486	0.321	0.1003	4.244
Mof_H 	H 	0.0788	0.3421	0.107	2.049
Mof_H 	H 	0.0153	0.3424	0.0991	-3.492
Mof_H 	H 	0.0416	0.2914	0.1114	-0.945
Mof_C 	C 	0.0197	0.2772	0.0625	-0.842
Mof_H 	H 	0.0336	0.2618	0.047	2.362
Mof_H 	H 	0.0051	0.2496	0.0733	0.082
Mof_H 	H 	0.9902	0.3021	0.0586	0.448
Mof_O 	O 	0.1935	0.0372	0.56758	-0.428
Mof_N 	N 	0.1152	0.9959	0.57756	-0.498
Mof_C 	C 	0.1608	0.0007	0.56427	-0.433
Mof_C 	C 	0.1701	0.9633	0.54288	-0.552
Mof_H 	H 	0.1979	0.9776	0.5316	-0.013
Mof_H 	H 	0.1353	0.9587	0.5339	0.216
Mof_H 	H 	0.1827	0.9296	0.5492	0.334
Mof_C 	C 	0.1054	0.0301	0.59869	-0.906
Mof_H 	H 	0.1364	0.0543	0.6004	0.139
Mof_H 	H 	0.1019	0.0093	0.6139	-0.067
Mof_H 	H 	0.0714	0.0499	0.596	0.328
Mof_C 	C 	0.0754	0.9537	0.5756	0.923
Mof_H 	H 	0.0764	0.9417	0.5583	-2.453
Mof_H 	H 	0.0391	0.9688	0.5791	-0.856
Mof_H 	H 	0.0821	0.9243	0.5868	-1.952
Mof_O 	O 	0.1963	0.4663	0.0744	-0.091
Mof_N 	N 	0.1315	0.526	0.0667	0.116
Mof_C 	C 	0.1494	0.4838	0.0784	1.105
Mof_C 	C 	0.1094	0.453	0.0942	-0.455
Mof_H 	H 	0.1103	0.4663	0.1113	0.613
Mof_H 	H 	0.0721	0.4568	0.0875	0.155
Mof_H 	H 	0.1198	0.4161	0.0942	0.535
Mof_C 	C 	0.1692	0.5562	0.0514	-0.292
Mof_H 	H 	0.1983	0.533	0.0454	0.359
Mof_H 	H 	0.1491	0.5708	0.0372	0.072
Mof_H 	H 	0.1856	0.5846	0.0611	-0.087
Mof_C 	C 	0.0784	0.5512	0.0704	0.419
Mof_H 	H 	0.0885	0.5825	0.0798	1.597
Mof_H 	H 	0.0587	0.5614	0.0552	1.772
Mof_H 	H 	0.0545	0.529	0.0806	0.467
Mof_O 	O 	0.5593	0.4416	0.5757	-0.365
Mof_N 	N 	0.6254	0.4926	0.59178	-0.618
Mof_C 	C 	0.6072	0.4585	0.57523	-0.75
Mof_C 	C 	0.6462	0.4402	0.55507	0.064
Mof_H 	H 	0.6264	0.4182	0.5432	-0.246
Mof_H 	H 	0.6766	0.4203	0.5625	-0.115
Mof_H 	H 	0.6611	0.4707	0.5464	-0.048
Mof_C 	C 	0.5884	0.5145	0.6103	-0.391
Mof_H 	H 	0.5535	0.4952	0.6098	0.039
Mof_H 	H 	0.5814	0.5515	0.6071	0.492
Mof_H 	H 	0.6052	0.5106	0.6268	0.138
Mof_C 	C 	0.6794	0.5175	0.59128	0.03
Mof_H 	H 	0.7061	0.4942	0.5833	-0.049
Mof_H 	H 	0.6913	0.525	0.6083	0.18
Mof_H 	H 	0.6771	0.5501	0.5818	-0.025
Mof_O 	O 	0.5555	0.0485	0.079	-0.198
Mof_N 	N 	0.6436	0.0231	0.08081	0.212
Mof_C 	C 	0.5921	0.0219	0.089	1.247
Mof_C 	C 	0.5773	0.985	0.1099	-0.126
Mof_H 	H 	0.5376	0.978	0.11	0.009
Mof_H 	H 	0.5975	0.9523	0.1073	-0.311
Mof_H 	H 	0.5881	0.0002	0.1259	0.032
Mof_C 	C 	0.6583	0.0562	0.0599	-0.008
Mof_H 	H 	0.6259	0.0601	0.0491	0.154
Mof_H 	H 	0.6697	0.0906	0.066	0.058
Mof_H 	H 	0.6885	0.0406	0.0504	0.007
Mof_C 	C 	0.6907	0.997	0.092	0.142
Mof_H 	H 	0.6803	0.9826	0.1082	-0.265
Mof_H 	H 	0.7025	0.9687	0.0809	-0.122
Mof_H 	H 	0.721	0.0218	0.0941	-0.087
Mof_K 	K 	0.2423	0.81321	0.73842	2.99
Mof_K 	K 	0.97431	0.57739	0.7261	3.585
Mof_K 	K 	0.98605	0.83873	0.90638	3.472
Mof_K 	K 	0.25912	0.62006	0.89057	2.262
Mof_K 	K 	0.26056	0.62749	0.57245	0.952
Mof_K 	K 	0.987	0.85867	0.5593	2.685
Mof_Zn	Zn	0.09941	0.73129	0.65014	1.162
Mof_O 	O 	0.02082	0.83637	0.60206	-0.682
Mof_O 	O 	0.19771	0.62687	0.60988	-0.433
Mof_O 	O 	0.17423	0.82787	0.70294	-0.702
Mof_O 	O 	0.00264	0.6174	0.68544	-0.867
Mof_N 	N 	0.0707	0.77263	0.62181	-0.361
Mof_N 	N 	0.14339	0.69326	0.62471	-0.333
Mof_N 	N 	0.11838	0.77312	0.68009	-0.356
Mof_N 	N 	0.06045	0.68415	0.67354	-0.384
Mof_N 	N 	0.01032	0.8226	0.64399	-0.325
Mof_H 	H 	0.0143	0.7994	0.6559	0.061
Mof_N 	N 	0.2024	0.6506	0.65023	-0.351
Mof_H 	H 	0.193	0.6749	0.6609	0.064
Mof_N 	N 	0.16121	0.84164	0.66134	-0.327
Mof_H 	H 	0.1475	0.8286	0.6475	0.073
Mof_N 	N 	0.03823	0.61992	0.64604	-0.311
Mof_H 	H 	0.0531	0.6404	0.6348	0.067
Mof_C 	C 	0.9663	0.8662	0.67752	-0.708
Mof_H 	H 	0.9428	0.8358	0.6807	0.165
Mof_H 	H 	0.9471	0.8979	0.6828	0.184
Mof_H 	H 	0.0008	0.8626	0.6868	0.191
Mof_C 	C 	0.97887	0.86965	0.6499	0.474
Mof_C 	C 	0.0126	0.9185	0.64437	-0.736
Mof_H 	H 	0.0221	0.9194	0.6267	0.259
Mof_H 	H 	0.0465	0.918	0.6543	0.212
Mof_H 	H 	0.991	0.9495	0.6486	0.206
Mof_C 	C 	0.925	0.8717	0.63522	-0.573
Mof_H 	H 	0.9048	0.8391	0.6375	0.114
Mof_H 	H 	0.9332	0.8766	0.6175	0.1
Mof_H 	H 	0.9026	0.9009	0.6412	0.147
Mof_C 	C 	0.03444	0.8114	0.6212	0.363
Mof_C 	C 	0.09834	0.75795	0.59873	-0.024
Mof_H 	H 	0.1292	0.7823	0.5955	0.005
Mof_H 	H 	0.0721	0.7607	0.5847	-0.06
Mof_C 	C 	0.12038	0.70268	0.60016	-0.064
Mof_H 	H 	0.0902	0.6776	0.5969	-0.006
Mof_H 	H 	0.1492	0.6976	0.5874	0.001
Mof_C 	C 	0.18093	0.6554	0.62675	0.326
Mof_C 	C 	0.2386	0.6104	0.65946	0.786
Mof_C 	C 	0.2476	0.6205	0.68695	-0.872
Mof_H 	H 	0.2649	0.6547	0.6892	0.165
Mof_H 	H 	0.2716	0.5934	0.6939	0.224
Mof_H 	H 	0.212	0.6199	0.6956	0.211
Mof_C 	C 	0.2117	0.5583	0.65625	-1.04
Mof_H 	H 	0.2046	0.5521	0.6386	0.322
Mof_H 	H 	0.1768	0.5577	0.6654	0.301
Mof_H 	H 	0.2361	0.531	0.6627	0.298
Mof_C 	C 	0.2926	0.6106	0.6463	-1.222
Mof_H 	H 	0.3087	0.6455	0.6472	0.509
Mof_H 	H 	0.287	0.6008	0.6289	0.44
Mof_H 	H 	0.3174	0.5855	0.6542	0.369
Mof_C 	C 	0.1862	0.9084	0.63233	-0.785
Mof_H 	H 	0.2031	0.8824	0.6214	0.24
Mof_H 	H 	0.2049	0.9419	0.6301	0.233
Mof_H 	H 	0.1472	0.9121	0.6281	0.26
Mof_C 	C 	0.1918	0.891	0.65934	0.458
Mof_C 	C 	0.2529	0.8823	0.66547	-0.49
Mof_H 	H 	0.2565	0.8709	0.6828	0.032
Mof_H 	H 	0.2732	0.915	0.6631	0.124
Mof_H 	H 	0.2681	0.8556	0.6544	0.071
Mof_C 	C 	0.1684	0.9324	0.67643	-0.664
Mof_H 	H 	0.1717	0.9209	0.6937	0.19
Mof_H 	H 	0.1295	0.9382	0.6724	0.176
Mof_H 	H 	0.189	0.9649	0.6742	0.179
Mof_C 	C 	0.152	0.8138	0.683	0.346
Mof_C 	C 	0.1065	0.7425	0.70243	-0.055
Mof_H 	H 	0.1	0.766	0.7167	-0.022
Mof_H 	H 	0.1383	0.7198	0.7064	-0.073
Mof_C 	C 	0.0555	0.7094	0.69763	0.03
Mof_H 	H 	0.0517	0.6827	0.7108	-0.121
Mof_H 	H 	0.0222	0.7317	0.6979	-0.083
Mof_C 	C 	0.03267	0.6402	0.66966	0.397
Mof_C 	C 	0.0218	0.5676	0.63791	0.28
Mof_C 	C 	0.0427	0.5617	0.61143	-0.564
Mof_H 	H 	0.0828	0.5655	0.6112	0.186
Mof_H 	H 	0.0259	0.5886	0.6009	0.141
Mof_H 	H 	0.0326	0.5272	0.6051	0.16
Mof_C 	C 	0.9587	0.5627	0.63808	-0.241
Mof_H 	H 	0.9427	0.5892	0.6271	-0.031
Mof_H 	H 	0.945	0.5678	0.655	-0.063
Mof_H 	H 	0.9481	0.528	0.6322	-0.011
Mof_C 	C 	0.0469	0.5254	0.6543	-0.394
Mof_H 	H 	0.0871	0.529	0.6544	0.097
Mof_H 	H 	0.0369	0.4911	0.6478	0.088
Mof_H 	H 	0.0328	0.529	0.6713	0.05
Mof_Zn	Zn	0.10421	0.68896	0.8192	1.164
Mof_O 	O 	0.21168	0.79224	0.78283	-0.723
Mof_O 	O 	0.01759	0.60041	0.76633	-0.86
Mof_O 	O 	0.0201	0.78539	0.86983	-0.727
Mof_O 	O 	0.19737	0.57674	0.85662	-0.608
Mof_N 	N 	0.14522	0.73392	0.79545	-0.374
Mof_N 	N 	0.07108	0.65655	0.78946	-0.372
Mof_N 	N 	0.07361	0.72599	0.84849	-0.344
Mof_N 	N 	0.13616	0.64017	0.84405	-0.354
Mof_N 	N 	0.1917	0.78218	0.824	-0.317
Mof_H 	H 	0.1712	0.7654	0.8348	0.058
Mof_N 	N 	0.99969	0.61257	0.80769	-0.332
Mof_H 	H 	0.0022	0.6352	0.8199	0.086
Mof_N 	N 	0.02935	0.79064	0.8273	-0.313
Mof_H 	H 	0.0324	0.7713	0.8139	0.061
Mof_N 	N 	0.15904	0.57415	0.81772	-0.327
Mof_H 	H 	0.1412	0.5924	0.8065	0.074
Mof_C 	C 	0.2215	0.8194	0.86226	-0.528
Mof_H 	H 	0.2296	0.7846	0.8688	0.084
Mof_H 	H 	0.1831	0.8284	0.8659	0.117
Mof_H 	H 	0.246	0.8449	0.8702	0.114
Mof_C 	C 	0.2307	0.8201	0.83413	0.382
Mof_C 	C 	0.2897	0.8036	0.82816	-0.465
Mof_H 	H 	0.2941	0.8003	0.8101	0.063
Mof_H 	H 	0.2976	0.7701	0.8361	0.046
Mof_H 	H 	0.3154	0.83	0.8344	0.097
Mof_C 	C 	0.2203	0.8741	0.82436	-0.635
Mof_H 	H 	0.2273	0.8749	0.8064	0.199
Mof_H 	H 	0.245	0.8988	0.8327	0.168
Mof_H 	H 	0.182	0.8839	0.8276	0.218
Mof_C 	C 	0.1837	0.77	0.79941	0.369
Mof_C 	C 	0.1311	0.7209	0.77001	0.013
Mof_H 	H 	0.1649	0.7218	0.7597	-0.133
Mof_H 	H 	0.1055	0.7476	0.7634	-0.051
Mof_C 	C 	0.1051	0.6687	0.76778	-0.043
Mof_H 	H 	0.082	0.6678	0.7526	-0.052
Mof_H 	H 	0.1342	0.642	0.766	-0.038
Mof_C 	C 	0.0298	0.6229	0.78636	0.41
Mof_C 	C 	0.9639	0.567	0.81155	0.37
Mof_C 	C 	0.9502	0.5662	0.83898	-0.743
Mof_H 	H 	0.9842	0.5632	0.8487	0.237
Mof_H 	H 	0.9263	0.5363	0.8426	0.211
Mof_H 	H 	0.9311	0.5985	0.8435	0.28
Mof_C 	C 	0.9107	0.5719	0.79636	-0.346
Mof_H 	H 	0.8901	0.6026	0.8019	0.043
Mof_H 	H 	0.8881	0.5406	0.7988	0.057
Mof_H 	H 	0.9198	0.5755	0.7787	-0.069
Mof_C 	C 	0.9931	0.5173	0.80447	-0.468
Mof_H 	H 	0.0277	0.5145	0.8138	0.119
Mof_H 	H 	0.001	0.5175	0.7866	0.042
Mof_H 	H 	0.9695	0.4874	0.8084	0.087
Mof_C 	C 	0.0139	0.8544	0.79628	-0.595
Mof_H 	H 	0.9872	0.8313	0.7882	0.126
Mof_H 	H 	0.0509	0.8468	0.79	0.198
Mof_H 	H 	0.0045	0.8907	0.7927	0.225
Mof_C 	C 	0.0124	0.8455	0.82422	0.339
Mof_C 	C 	0.9536	0.8543	0.83349	-0.327
Mof_H 	H 	0.9283	0.8313	0.8245	0.025
Mof_H 	H 	0.9431	0.8907	0.8306	0.063
Mof_H 	H 	0.9517	0.8467	0.8513	-0.047
Mof_C 	C 	0.0516	0.8818	0.83747	-0.453
Mof_H 	H 	0.0497	0.8755	0.8554	0.01
Mof_H 	H 	0.0412	0.918	0.834	0.158
Mof_H 	H 	0.0892	0.8756	0.8316	0.165
Mof_C 	C 	0.04077	0.7675	0.85023	0.417
Mof_C 	C 	0.0842	0.6965	0.87117	-0.091
Mof_H 	H 	0.0533	0.6723	0.8744	0.128
Mof_H 	H 	0.0874	0.7205	0.8855	0.021
Mof_C 	C 	0.13778	0.66565	0.86813	0.008
Mof_H 	H 	0.1698	0.6894	0.8691	-0.136
Mof_H 	H 	0.1412	0.6394	0.8815	-0.071
Mof_C 	C 	0.16567	0.59677	0.84074	0.296
Mof_C 	C 	0.1789	0.5225	0.81009	0.535
Mof_C 	C 	0.1555	0.5138	0.78409	-0.75
Mof_H 	H 	0.1152	0.5163	0.7847	0.2
Mof_H 	H 	0.1661	0.4792	0.7781	0.228
Mof_H 	H 	0.17	0.5404	0.7728	0.218
Mof_C 	C 	0.2415	0.5214	0.80917	-0.741
Mof_H 	H 	0.2563	0.5318	0.8254	0.147
Mof_H 	H 	0.2545	0.5456	0.7964	0.208
Mof_H 	H 	0.254	0.4861	0.8052	0.295
Mof_C 	C 	0.1578	0.48	0.82746	-0.771
Mof_H 	H 	0.1178	0.4829	0.8291	0.215
Mof_H 	H 	0.1749	0.4841	0.8438	0.226
Mof_H 	H 	0.1673	0.4458	0.8206	0.207
Mof_Zn	Zn	0.1346	0.73434	0.98446	1.166
Mof_O 	O 	0.04054	0.84757	0.94718	-0.739
Mof_O 	O 	0.22199	0.6415	0.93385	-0.636
Mof_O 	O 	0.22718	0.67603	0.53449	-0.716
Mof_O 	O 	0.04557	0.88122	0.52173	-0.725
Mof_N 	N 	0.09767	0.78158	0.96052	-0.366
Mof_N 	N 	0.17106	0.70317	0.955	-0.348
Mof_N 	N 	0.16878	0.73252	0.51391	-0.338
Mof_N 	N 	0.10509	0.81775	0.50852	-0.363
Mof_N 	N 	0.05013	0.83074	0.98869	-0.324
Mof_H 	H 	0.0714	0.8159	0.9999	0.08
Mof_N 	N 	0.23829	0.65789	0.97522	-0.318
Mof_H 	H 	0.2429	0.6845	0.9853	0.052
Mof_N 	N 	0.20126	0.6596	0.49424	-0.297
Mof_H 	H 	0.1926	0.675	0.4802	0.053
Mof_N 	N 	0.06577	0.87218	0.48037	-0.323
Mof_H 	H 	0.0808	0.8519	0.4691	0.072
Mof_C 	C 	0.0077	0.859	0.02629	-0.648
Mof_H 	H 	0.0009	0.8227	0.0311	0.144
Mof_H 	H 	0.9794	0.8814	0.0337	0.152
Mof_H 	H 	0.0441	0.8697	0.0323	0.177
Mof_C 	C 	0.0056	0.8638	0.99797	0.477
Mof_C 	C 	0.0148	0.9202	0.99074	-0.649
Mof_H 	H 	0.0178	0.9229	0.9726	0.166
Mof_H 	H 	0.049	0.9329	0.9984	0.174
Mof_H 	H 	0.9838	0.9414	0.9965	0.165
Mof_C 	C 	0.95	0.8455	0.98841	-0.654
Mof_H 	H 	0.9449	0.8086	0.9926	0.2
Mof_H 	H 	0.9486	0.8497	0.9703	0.096
Mof_H 	H 	0.9207	0.8662	0.9961	0.146
Mof_C 	C 	0.06195	0.8205	0.96406	0.397
Mof_C 	C 	0.11865	0.77316	0.93537	0.037
Mof_H 	H 	0.1482	0.7987	0.9318	-0.061
Mof_H 	H 	0.0886	0.7788	0.9232	-0.134
Mof_C 	C 	0.14125	0.71808	0.93249	-0.073
Mof_H 	H 	0.1106	0.6935	0.9296	-0.003
Mof_H 	H 	0.1663	0.7166	0.918	-0.029
Mof_C 	C 	0.20919	0.66624	0.95319	0.331
Mof_C 	C 	0.2616	0.60759	0.98266	0.438
Mof_C 	C 	0.2789	0.6138	0.00974	-0.662
Mof_H 	H 	0.3061	0.6419	0.0111	0.145
Mof_H 	H 	0.2952	0.5812	0.0157	0.18
Mof_H 	H 	0.2466	0.6224	0.0198	0.189
Mof_C 	C 	0.3117	0.5934	0.96718	-0.535
Mof_H 	H 	0.3398	0.6205	0.969	0.1
Mof_H 	H 	0.301	0.5906	0.9497	0.066
Mof_H 	H 	0.3266	0.56	0.9729	0.123
Mof_C 	C 	0.2172	0.5653	0.98078	-0.694
Mof_H 	H 	0.1852	0.5754	0.9907	0.2
Mof_H 	H 	0.232	0.5323	0.9871	0.194
Mof_H 	H 	0.2062	0.561	0.9634	0.203
Mof_C 	C 	0.2022	0.5862	0.46702	-0.52
Mof_H 	H 	0.2243	0.6061	0.4551	0.126
Mof_H 	H 	0.2106	0.549	0.4654	0.132
Mof_H 	H 	0.163	0.592	0.4637	0.133
Mof_C 	C 	0.2158	0.6041	0.49327	0.272
Mof_C 	C 	0.2781	0.5976	0.49813	-0.191
Mof_H 	H 	0.2868	0.6098	0.5149	-0.212
Mof_H 	H 	0.2881	0.5608	0.4966	0.02
Mof_H 	H 	0.2988	0.6182	0.486	-0.072
Mof_C 	C 	0.1828	0.5725	0.51229	-0.501
Mof_H 	H 	0.1908	0.5853	0.5291	0.121
Mof_H 	H 	0.1434	0.5762	0.5089	0.141
Mof_H 	H 	0.1932	0.5357	0.5111	0.131
Mof_C 	C 	0.20009	0.6896	0.51578	0.305
Mof_C 	C 	0.1657	0.7675	0.53515	-0.09
Mof_H 	H 	0.1672	0.7473	0.5508	0.023
Mof_H 	H 	0.1973	0.792	0.5349	0.008
Mof_C 	C 	0.1121	0.7976	0.53368	0.015
Mof_H 	H 	0.1126	0.8268	0.5457	-0.077
Mof_H 	H 	0.0809	0.7744	0.5379	-0.099
Mof_C 	C 	0.0714	0.8575	0.50502	0.373
Mof_C 	C 	0.0366	0.919	0.47161	0.534
Mof_C 	C 	0.0464	0.9205	0.44349	-0.842
Mof_H 	H 	0.0313	0.8889	0.4359	0.311
Mof_H 	H 	0.0281	0.9512	0.4364	0.264
Mof_H 	H 	0.086	0.9224	0.4402	0.253
Mof_C 	C 	0.9745	0.9149	0.47661	-0.669
Mof_H 	H 	0.9681	0.9119	0.4945	0.116
Mof_H 	H 	0.9559	0.946	0.4703	0.153
Mof_H 	H 	0.9598	0.8839	0.4682	0.171
Mof_C 	C 	0.0595	0.9682	0.48341	-0.681
Mof_H 	H 	0.0554	0.9662	0.5015	0.178
Mof_H 	H 	0.0986	0.9717	0.4792	0.188
Mof_H 	H 	0.0393	0.9986	0.4772	0.151
Mof_O 	O 	0.2788	0.9089	0.7404	-0.496
Mof_N 	N 	0.3539	0.951	0.7279	-0.215
Mof_C 	C 	0.2997	0.9484	0.7309	0.136
Mof_C 	C 	0.2652	0.9972	0.7279	1.12
Mof_H 	H 	0.2635	0.0158	0.7438	-0.393
Mof_H 	H 	0.2278	0.9895	0.7221	-0.169
Mof_H 	H 	0.2841	0.0189	0.7155	-0.841
Mof_C 	C 	0.387	0.9046	0.7325	-0.146
Mof_H 	H 	0.3668	0.8835	0.7446	-0.038
Mof_H 	H 	0.4232	0.9138	0.7394	0.013
Mof_H 	H 	0.392	0.8847	0.7171	-0.026
Mof_C 	C 	0.3849	0.9933	0.7167	-0.069
Mof_H 	H 	0.395	0.9853	0.6994	0
Mof_H 	H 	0.4184	0.9971	0.7267	-0.055
Mof_H 	H 	0.3638	0.0259	0.7172	0.002
Mof_O 	O 	0.2932	0.9023	0.7397	-0.12
Mof_N 	N 	0.3376	0.9713	0.7247	-0.079
Mof_C 	C 	0.3378	0.9245	0.7353	0.255
Mof_C 	C 	0.3893	0.9066	0.7488	-0.037
Mof_H 	H 	0.3898	0.9163	0.7664	-0.048
Mof_H 	H 	0.4187	0.9252	0.74	0
Mof_H 	H 	0.3952	0.8689	0.7472	-0.052
Mof_C 	C 	0.2852	0.9922	0.716	-0.066
Mof_H 	H 	0.2578	0.9701	0.7242	-0.449
Mof_H 	H 	0.2797	0.9907	0.6979	0.107
Mof_H 	H 	0.281	0.0283	0.7217	0.509
Mof_C 	C 	0.3806	0.0106	0.7266	0.165
Mof_H 	H 	0.3728	0.0384	0.7386	-0.12
Mof_H 	H 	0.3808	0.0252	0.7097	-0.075
Mof_H 	H 	0.4166	0.9952	0.7303	-0.067
Mof_O 	O 	0.9763	0.4748	0.7373	1.156
Mof_N 	N 	0.8927	0.4389	0.73598	0.9
Mof_C 	C 	0.943	0.4421	0.74535	3.106
Mof_C 	C 	0.9603	0.4038	0.7652	-0.251
Mof_H 	H 	0.9637	0.3689	0.758	0.033
Mof_H 	H 	0.933	0.4032	0.7786	-0.347
Mof_H 	H 	0.9961	0.4147	0.772	0.119
Mof_C 	C 	0.8753	0.4755	0.7168	5.816
Mof_H 	H 	0.8617	0.5075	0.7247	-0.904
Mof_H 	H 	0.8457	0.4596	0.707	-0.786
Mof_H 	H 	0.9064	0.4838	0.7059	-6.985
Mof_C 	C 	0.848	0.4061	0.7449	0.313
Mof_H 	H 	0.8574	0.3928	0.7615	-0.009
Mof_H 	H 	0.8443	0.3769	0.7333	-0.088
Mof_H 	H 	0.8131	0.4253	0.7458	0.072
Mof_O 	O 	0.9665	0.4782	0.733	-1.559
Mof_N 	N 	0.9054	0.4198	0.747	-0.967
Mof_C 	C 	0.92	0.4581	0.7319	-3.863
Mof_C 	C 	0.8831	0.4704	0.7099	3.892
Mof_H 	H 	0.8471	0.4816	0.7162	-3.448
Mof_H 	H 	0.8785	0.4398	0.6992	-1.147
Mof_H 	H 	0.8998	0.4988	0.7003	3.88
Mof_C 	C 	0.9437	0.4008	0.7658	-0.55
Mof_H 	H 	0.9446	0.3626	0.7653	0.214
Mof_H 	H 	0.932	0.4125	0.7823	0.528
Mof_H 	H 	0.9806	0.4145	0.7622	-0.235
Mof_C 	C 	0.8585	0.3852	0.7434	0.043
Mof_H 	H 	0.826	0.4064	0.7397	-0.289
Mof_H 	H 	0.852	0.3651	0.7586	-0.191
Mof_H 	H 	0.8654	0.3612	0.7295	0.004
Mof_O 	O 	0.8882	0.8104	0.9024	0.846
Mof_N 	N 	0.7978	0.7938	0.90213	0.712
Mof_C 	C 	0.8479	0.7885	0.89277	3.037
Mof_C 	C 	0.8551	0.7593	0.8685	0.215
Mof_H 	H 	0.8361	0.7795	0.8557	-1.787
Mof_H 	H 	0.8387	0.7245	0.8696	-3.574
Mof_H 	H 	0.8942	0.7561	0.8642	-0.518
Mof_C 	C 	0.7899	0.8231	0.9251	0.764
Mof_H 	H 	0.7772	0.7989	0.9379	-0.171
Mof_H 	H 	0.7628	0.8511	0.923	-0.021
Mof_H 	H 	0.8254	0.8381	0.93	0.128
Mof_C 	C 	0.7489	0.765	0.8946	0.222
Mof_H 	H 	0.7273	0.7867	0.8832	0.909
Mof_H 	H 	0.7267	0.7567	0.9093	-0.052
Mof_H 	H 	0.7595	0.7326	0.8862	-0.471
Mof_O 	O 	0.8834	0.8087	0.90933	-1.669
Mof_N 	N 	0.8111	0.7822	0.88681	-0.85
Mof_C 	C 	0.833	0.8014	0.90741	-2.701
Mof_C 	C 	0.7965	0.8087	0.93001	0.566
Mof_H 	H 	0.7928	0.7757	0.939	-0.486
Mof_H 	H 	0.7601	0.8204	0.9245	-0.466
Mof_H 	H 	0.8127	0.835	0.941	-0.461
Mof_C 	C 	0.8465	0.7694	0.86581	-2.346
Mof_H 	H 	0.8814	0.7883	0.8675	0.555
Mof_H 	H 	0.8288	0.7789	0.8501	2.464
Mof_H 	H 	0.8537	0.7318	0.866	4.486
Mof_C 	C 	0.7552	0.7625	0.88386	0.31
Mof_H 	H 	0.7524	0.7286	0.8922	0.368
Mof_H 	H 	0.7468	0.7585	0.8661	-0.133
Mof_H 	H 	0.729	0.7869	0.8914	-1.1
Mof_O 	O 	0.94186	0.9295	0.90313	-0.746
Mof_N 	N 	0.8726	0.972	0.92166	-0.162
Mof_C 	C 	0.8931	0.9443	0.90311	0.277
Mof_C 	C 	0.8563	0.9318	0.8812	-0.05
Mof_H 	H 	0.8781	0.9148	0.8682	-0.084
Mof_H 	H 	0.8415	0.9647	0.8748	-0.423
Mof_H 	H 	0.8259	0.909	0.8861	0.032
Mof_C 	C 	0.906	0.9836	0.94346	-0.616
Mof_H 	H 	0.8858	0.9739	0.9585	0.336
Mof_H 	H 	0.9146	0.0209	0.944	0.781
Mof_H 	H 	0.9402	0.9635	0.9425	0.144
Mof_C 	C 	0.8184	0.9963	0.9221	-0.069
Mof_H 	H 	0.8177	0.0271	0.9114	0.042
Mof_H 	H 	0.8098	0.0065	0.9392	0.023
Mof_H 	H 	0.7909	0.9711	0.9163	0.04
Mof_O 	O 	0.9454	0.9338	0.9136	-0.057
Mof_N 	N 	0.8583	0.9605	0.9088	-0.154
Mof_C 	C 	0.9055	0.9596	0.9212	0.356
Mof_C 	C 	0.9134	0.9971	0.9427	-0.134
Mof_H 	H 	0.9518	0.9969	0.9483	-0.088
Mof_H 	H 	0.8897	0.9833	0.9559	-0.146
Mof_H 	H 	0.9023	0.0329	0.9388	-0.527
Mof_C 	C 	0.8533	0.933	0.8853	-0.22
Mof_H 	H 	0.8835	0.9077	0.8841	0.011
Mof_H 	H 	0.8544	0.9563	0.8708	0.51
Mof_H 	H 	0.818	0.9144	0.8855	0.058
Mof_C 	C 	0.8089	0.9892	0.9156	0.019
Mof_H 	H 	0.7946	0.9779	0.9318	0.005
Mof_H 	H 	0.7805	0.9844	0.9029	-0.008
Mof_H 	H 	0.8191	0.0261	0.9165	-0.006
Mof_O 	O 	0.35361	0.6714	0.5834	-4.886
Mof_N 	N 	0.42348	0.7029	0.56085	-7.486
Mof_C 	C 	0.4028	0.6847	0.58189	-29.156
Mof_C 	C 	0.4408	0.6762	0.60383	1.674
Mof_H 	H 	0.4202	0.6607	0.6176	-1.71
Mof_H 	H 	0.471	0.6528	0.599	1.666
Mof_H 	H 	0.4561	0.7098	0.609	-0.475
Mof_C 	C 	0.3876	0.7114	0.53952	-14.382
Mof_H 	H 	0.3783	0.7484	0.5381	1.751
Mof_H 	H 	0.4064	0.6999	0.5244	-5.594
Mof_H 	H 	0.3538	0.6911	0.5418	2.615
Mof_C 	C 	0.4796	0.7208	0.55671	-1.795
Mof_H 	H 	0.4964	0.7006	0.5432	0.491
Mof_H 	H 	0.4791	0.7578	0.5522	-0.778
Mof_H 	H 	0.5012	0.7161	0.572	0.268
Mof_O 	O 	0.3467	0.8192	0.0831	3.77
Mof_N 	N 	0.4359	0.804	0.0754	11.198
Mof_C 	C 	0.3835	0.8051	0.0685	28.086
Mof_C 	C 	0.3683	0.7857	0.0428	-9.544
Mof_H 	H 	0.3799	0.7492	0.0415	4.335
Mof_H 	H 	0.3872	0.8063	0.0301	14.412
Mof_H 	H 	0.3284	0.7881	0.0404	1.157
Mof_C 	C 	0.4514	0.821	0.1003	4.258
Mof_H 	H 	0.4212	0.8421	0.107	2.054
Mof_H 	H 	0.4847	0.8424	0.0991	-3.504
Mof_H 	H 	0.4584	0.7914	0.1114	-0.948
Mof_C 	C 	0.4803	0.7772	0.0625	-0.842
Mof_H 	H 	0.4664	0.7618	0.047	2.366
Mof_H 	H 	0.4949	0.7496	0.0733	0.082
Mof_H 	H 	0.5098	0.8021	0.0586	0.448
Mof_O 	O 	0.3065	0.5372	0.56758	-0.429
Mof_N 	N 	0.3848	0.4959	0.57756	-0.502
Mof_C 	C 	0.3392	0.5007	0.56427	-0.436
Mof_C 	C 	0.3299	0.4633	0.54288	-0.548
Mof_H 	H 	0.3021	0.4776	0.5316	-0.013
Mof_H 	H 	0.3647	0.4587	0.5339	0.214
Mof_H 	H 	0.3173	0.4296	0.5492	0.331
Mof_C 	C 	0.3946	0.5301	0.59869	-0.91
Mof_H 	H 	0.3636	0.5543	0.6004	0.139
Mof_H 	H 	0.3981	0.5093	0.6139	-0.066
Mof_H 	H 	0.4286	0.5499	0.596	0.328
Mof_C 	C 	0.4246	0.4537	0.5756	0.924
Mof_H 	H 	0.4236	0.4417	0.5583	-2.455
Mof_H 	H 	0.4609	0.4688	0.5791	-0.857
Mof_H 	H 	0.4179	0.4243	0.5868	-1.954
Mof_O 	O 	0.3037	0.9663	0.0744	-0.09
Mof_N 	N 	0.3685	0.026	0.0667	0.116
Mof_C 	C 	0.3506	0.9838	0.0784	1.108
Mof_C 	C 	0.3906	0.953	0.0942	-0.455
Mof_H 	H 	0.3897	0.9663	0.1113	0.614
Mof_H 	H 	0.4279	0.9568	0.0875	0.156
Mof_H 	H 	0.3802	0.9161	0.0942	0.537
Mof_C 	C 	0.3308	0.0562	0.0514	-0.292
Mof_H 	H 	0.3017	0.033	0.0454	0.358
Mof_H 	H 	0.3509	0.0708	0.0372	0.072
Mof_H 	H 	0.3144	0.0846	0.0611	-0.087
Mof_C 	C 	0.4216	0.0512	0.0704	0.42
Mof_H 	H 	0.4115	0.0825	0.0798	1.597
Mof_H 	H 	0.4413	0.0614	0.0552	1.772
Mof_H 	H 	0.4455	0.029	0.0806	0.467
Mof_O 	O 	0.9407	0.9416	0.5757	-0.364
Mof_N 	N 	0.8746	0.9926	0.59178	-0.62
Mof_C 	C 	0.8928	0.9585	0.57523	-0.743
Mof_C 	C 	0.8538	0.9402	0.55507	0.063
Mof_H 	H 	0.8736	0.9182	0.5432	-0.246
Mof_H 	H 	0.8234	0.9203	0.5625	-0.116
Mof_H 	H 	0.8389	0.9707	0.5464	-0.048
Mof_C 	C 	0.9116	0.0145	0.6103	-0.376
Mof_H 	H 	0.9465	0.9952	0.6098	0.033
Mof_H 	H 	0.9186	0.0515	0.6071	0.47
Mof_H 	H 	0.8948	0.0106	0.6268	0.151
Mof_C 	C 	0.8206	0.0175	0.59128	0.04
Mof_H 	H 	0.7939	0.9942	0.5833	-0.054
Mof_H 	H 	0.8087	0.025	0.6083	0.175
Mof_H 	H 	0.8229	0.0501	0.5818	-0.028
Mof_O 	O 	0.9445	0.5485	0.079	-0.198
Mof_N 	N 	0.8564	0.5231	0.08081	0.211
Mof_C 	C 	0.9079	0.5219	0.089	1.247
Mof_C 	C 	0.9227	0.485	0.1099	-0.126
Mof_H 	H 	0.9624	0.478	0.11	0.009
Mof_H 	H 	0.9025	0.4523	0.1073	-0.311
Mof_H 	H 	0.9119	0.5002	0.1259	0.031
Mof_C 	C 	0.8417	0.5562	0.0599	-0.008
Mof_H 	H 	0.8741	0.5601	0.0491	0.154
Mof_H 	H 	0.8303	0.5906	0.066	0.058
Mof_H 	H 	0.8115	0.5406	0.0504	0.007
Mof_C 	C 	0.8093	0.497	0.092	0.142
Mof_H 	H 	0.8197	0.4826	0.1082	-0.264
Mof_H 	H 	0.7975	0.4687	0.0809	-0.122
Mof_H 	H 	0.779	0.5218	0.0941	-0.087
Mof_K 	K 	0.7423	0.68679	0.26158	2.988
Mof_K 	K 	0.47431	0.92261	0.2739	3.591
Mof_K 	K 	0.48605	0.66127	0.09362	3.481
Mof_K 	K 	0.75912	0.87994	0.10943	2.26
Mof_K 	K 	0.76056	0.87251	0.42755	0.971
Mof_K 	K 	0.487	0.64133	0.4407	2.696
Mof_Zn	Zn	0.59941	0.76871	0.34986	1.162
Mof_O 	O 	0.52082	0.66363	0.39794	-0.685
Mof_O 	O 	0.69771	0.87313	0.39012	-0.435
Mof_O 	O 	0.67423	0.67213	0.29706	-0.702
Mof_O 	O 	0.50264	0.8826	0.31456	-0.869
Mof_N 	N 	0.5707	0.72737	0.37819	-0.362
Mof_N 	N 	0.64339	0.80674	0.37529	-0.334
Mof_N 	N 	0.61838	0.72688	0.31991	-0.356
Mof_N 	N 	0.56045	0.81585	0.32646	-0.384
Mof_N 	N 	0.51032	0.6774	0.35601	-0.327
Mof_H 	H 	0.5143	0.7006	0.3441	0.061
Mof_N 	N 	0.7024	0.8494	0.34977	-0.351
Mof_H 	H 	0.693	0.8251	0.3391	0.064
Mof_N 	N 	0.66121	0.65836	0.33866	-0.326
Mof_H 	H 	0.6475	0.6714	0.3525	0.073
Mof_N 	N 	0.53823	0.88008	0.35396	-0.31
Mof_H 	H 	0.5531	0.8596	0.3652	0.067
Mof_C 	C 	0.4663	0.6338	0.32248	-0.708
Mof_H 	H 	0.4428	0.6642	0.3193	0.165
Mof_H 	H 	0.4471	0.6021	0.3172	0.185
Mof_H 	H 	0.5008	0.6374	0.3132	0.189
Mof_C 	C 	0.47887	0.63035	0.3501	0.483
Mof_C 	C 	0.5126	0.5815	0.35563	-0.755
Mof_H 	H 	0.5221	0.5806	0.3733	0.263
Mof_H 	H 	0.5465	0.582	0.3457	0.217
Mof_H 	H 	0.491	0.5505	0.3514	0.214
Mof_C 	C 	0.425	0.6283	0.36478	-0.579
Mof_H 	H 	0.4048	0.6609	0.3625	0.115
Mof_H 	H 	0.4332	0.6234	0.3825	0.102
Mof_H 	H 	0.4026	0.5991	0.3588	0.148
Mof_C 	C 	0.53444	0.6886	0.3788	0.364
Mof_C 	C 	0.59834	0.74205	0.40127	-0.024
Mof_H 	H 	0.6292	0.7177	0.4045	0.005
Mof_H 	H 	0.5721	0.7393	0.4153	-0.06
Mof_C 	C 	0.62038	0.79732	0.39984	-0.063
Mof_H 	H 	0.5902	0.8224	0.4031	-0.006
Mof_H 	H 	0.6492	0.8024	0.4126	0.001
Mof_C 	C 	0.68093	0.8446	0.37325	0.327
Mof_C 	C 	0.7386	0.8896	0.34054	0.784
Mof_C 	C 	0.7476	0.8795	0.31305	-0.87
Mof_H 	H 	0.7649	0.8453	0.3108	0.165
Mof_H 	H 	0.7716	0.9066	0.3061	0.223
Mof_H 	H 	0.712	0.8801	0.3044	0.211
Mof_C 	C 	0.7117	0.9417	0.34375	-1.037
Mof_H 	H 	0.7046	0.9479	0.3614	0.321
Mof_H 	H 	0.6768	0.9423	0.3346	0.3
Mof_H 	H 	0.7361	0.969	0.3373	0.297
Mof_C 	C 	0.7926	0.8894	0.3537	-1.221
Mof_H 	H 	0.8087	0.8545	0.3528	0.51
Mof_H 	H 	0.787	0.8992	0.3711	0.439
Mof_H 	H 	0.8174	0.9145	0.3458	0.368
Mof_C 	C 	0.6862	0.5916	0.36767	-0.783
Mof_H 	H 	0.7031	0.6176	0.3786	0.24
Mof_H 	H 	0.7049	0.5581	0.3699	0.232
Mof_H 	H 	0.6472	0.5879	0.3719	0.259
Mof_C 	C 	0.6918	0.609	0.34066	0.456
Mof_C 	C 	0.7529	0.6177	0.33453	-0.488
Mof_H 	H 	0.7565	0.6291	0.3172	0.031
Mof_H 	H 	0.7732	0.585	0.3369	0.123
Mof_H 	H 	0.7681	0.6444	0.3456	0.069
Mof_C 	C 	0.6684	0.5676	0.32357	-0.663
Mof_H 	H 	0.6717	0.5791	0.3063	0.19
Mof_H 	H 	0.6295	0.5618	0.3276	0.175
Mof_H 	H 	0.689	0.5351	0.3258	0.178
Mof_C 	C 	0.652	0.6862	0.317	0.345
Mof_C 	C 	0.6065	0.7575	0.29757	-0.055
Mof_H 	H 	0.6	0.734	0.2833	-0.022
Mof_H 	H 	0.6383	0.7802	0.2936	-0.073
Mof_C 	C 	0.5555	0.7906	0.30237	0.031
Mof_H 	H 	0.5517	0.8173	0.2892	-0.121
Mof_H 	H 	0.5222	0.7683	0.3021	-0.084
Mof_C 	C 	0.53267	0.8598	0.33034	0.397
Mof_C 	C 	0.5218	0.9324	0.36209	0.277
Mof_C 	C 	0.5427	0.9383	0.38857	-0.561
Mof_H 	H 	0.5828	0.9345	0.3888	0.185
Mof_H 	H 	0.5259	0.9114	0.3991	0.14
Mof_H 	H 	0.5326	0.9728	0.3949	0.158
Mof_C 	C 	0.4587	0.9373	0.36192	-0.238
Mof_H 	H 	0.4427	0.9108	0.3729	-0.032
Mof_H 	H 	0.445	0.9322	0.345	-0.064
Mof_H 	H 	0.4481	0.972	0.3678	-0.012
Mof_C 	C 	0.5469	0.9746	0.3457	-0.391
Mof_H 	H 	0.5871	0.971	0.3456	0.096
Mof_H 	H 	0.5369	0.0089	0.3522	0.087
Mof_H 	H 	0.5328	0.971	0.3287	0.049
Mof_Zn	Zn	0.60421	0.81104	0.1808	1.164
Mof_O 	O 	0.71168	0.70776	0.21717	-0.723
Mof_O 	O 	0.51759	0.89959	0.23367	-0.861
Mof_O 	O 	0.5201	0.71461	0.13017	-0.729
Mof_O 	O 	0.69737	0.92326	0.14338	-0.608
Mof_N 	N 	0.64522	0.76608	0.20455	-0.374
Mof_N 	N 	0.57108	0.84345	0.21054	-0.372
Mof_N 	N 	0.57361	0.77401	0.15151	-0.344
Mof_N 	N 	0.63616	0.85983	0.15595	-0.354
Mof_N 	N 	0.6917	0.71782	0.176	-0.317
Mof_H 	H 	0.6712	0.7346	0.1652	0.058
Mof_N 	N 	0.49969	0.88743	0.19231	-0.331
Mof_H 	H 	0.5022	0.8648	0.1801	0.085
Mof_N 	N 	0.52935	0.70936	0.1727	-0.313
Mof_H 	H 	0.5324	0.7287	0.1861	0.06
Mof_N 	N 	0.65904	0.92585	0.18228	-0.327
Mof_H 	H 	0.6412	0.9076	0.1935	0.074
Mof_C 	C 	0.7215	0.6806	0.13774	-0.527
Mof_H 	H 	0.7296	0.7154	0.1312	0.084
Mof_H 	H 	0.6831	0.6716	0.1341	0.116
Mof_H 	H 	0.746	0.6551	0.1298	0.114
Mof_C 	C 	0.7307	0.6799	0.16587	0.382
Mof_C 	C 	0.7897	0.6964	0.17184	-0.465
Mof_H 	H 	0.7941	0.6997	0.1899	0.063
Mof_H 	H 	0.7976	0.7299	0.1639	0.046
Mof_H 	H 	0.8154	0.67	0.1656	0.097
Mof_C 	C 	0.7203	0.6259	0.17564	-0.635
Mof_H 	H 	0.7273	0.6251	0.1936	0.199
Mof_H 	H 	0.745	0.6012	0.1673	0.168
Mof_H 	H 	0.682	0.6161	0.1724	0.219
Mof_C 	C 	0.6837	0.73	0.20059	0.369
Mof_C 	C 	0.6311	0.7791	0.22999	0.013
Mof_H 	H 	0.6649	0.7782	0.2403	-0.133
Mof_H 	H 	0.6055	0.7524	0.2366	-0.051
Mof_C 	C 	0.6051	0.8313	0.23222	-0.043
Mof_H 	H 	0.582	0.8322	0.2474	-0.052
Mof_H 	H 	0.6342	0.858	0.234	-0.038
Mof_C 	C 	0.5298	0.8771	0.21364	0.409
Mof_C 	C 	0.4639	0.933	0.18845	0.368
Mof_C 	C 	0.4502	0.9338	0.16102	-0.742
Mof_H 	H 	0.4842	0.9368	0.1513	0.237
Mof_H 	H 	0.4263	0.9637	0.1574	0.211
Mof_H 	H 	0.4311	0.9015	0.1565	0.28
Mof_C 	C 	0.4107	0.9281	0.20364	-0.344
Mof_H 	H 	0.3901	0.8974	0.1981	0.043
Mof_H 	H 	0.3881	0.9594	0.2012	0.057
Mof_H 	H 	0.4198	0.9245	0.2213	-0.07
Mof_C 	C 	0.4931	0.9827	0.19553	-0.464
Mof_H 	H 	0.5277	0.9855	0.1862	0.117
Mof_H 	H 	0.501	0.9825	0.2134	0.041
Mof_H 	H 	0.4695	0.0126	0.1916	0.084
Mof_C 	C 	0.5139	0.6456	0.20372	-0.6
Mof_H 	H 	0.4872	0.6687	0.2118	0.13
Mof_H 	H 	0.5509	0.6532	0.21	0.199
Mof_H 	H 	0.5045	0.6093	0.2073	0.226
Mof_C 	C 	0.5124	0.6545	0.17578	0.337
Mof_C 	C 	0.4536	0.6457	0.16651	-0.323
Mof_H 	H 	0.4283	0.6687	0.1755	0.025
Mof_H 	H 	0.4431	0.6093	0.1694	0.062
Mof_H 	H 	0.4517	0.6533	0.1487	-0.048
Mof_C 	C 	0.5516	0.6182	0.16253	-0.45
Mof_H 	H 	0.5497	0.6245	0.1446	0.008
Mof_H 	H 	0.5412	0.582	0.166	0.156
Mof_H 	H 	0.5892	0.6244	0.1684	0.164
Mof_C 	C 	0.54077	0.7325	0.14977	0.417
Mof_C 	C 	0.5842	0.8035	0.12883	-0.091
Mof_H 	H 	0.5533	0.8277	0.1256	0.128
Mof_H 	H 	0.5874	0.7795	0.1145	0.021
Mof_C 	C 	0.63778	0.83435	0.13187	0.008
Mof_H 	H 	0.6698	0.8106	0.1309	-0.136
Mof_H 	H 	0.6412	0.8606	0.1185	-0.071
Mof_C 	C 	0.66567	0.90323	0.15926	0.296
Mof_C 	C 	0.6789	0.9775	0.18991	0.537
Mof_C 	C 	0.6555	0.9862	0.21591	-0.754
Mof_H 	H 	0.6152	0.9837	0.2153	0.201
Mof_H 	H 	0.6661	0.0208	0.2219	0.229
Mof_H 	H 	0.67	0.9596	0.2272	0.219
Mof_C 	C 	0.7415	0.9786	0.19083	-0.746
Mof_H 	H 	0.7563	0.9682	0.1746	0.148
Mof_H 	H 	0.7545	0.9544	0.2036	0.209
Mof_H 	H 	0.754	0.0139	0.1948	0.297
Mof_C 	C 	0.6578	0.02	0.17254	-0.772
Mof_H 	H 	0.6178	0.0171	0.1709	0.216
Mof_H 	H 	0.6749	0.0159	0.1562	0.227
Mof_H 	H 	0.6673	0.0542	0.1794	0.207
Mof_Zn	Zn	0.6346	0.76566	0.01554	1.166
Mof_O 	O 	0.54054	0.65243	0.05282	-0.741
Mof_O 	O 	0.72199	0.8585	0.06615	-0.636
Mof_O 	O 	0.72718	0.82397	0.46551	-0.716
Mof_O 	O 	0.54557	0.61878	0.47827	-0.727
Mof_N 	N 	0.59767	0.71842	0.03948	-0.366
Mof_N 	N 	0.67106	0.79683	0.045	-0.348
Mof_N 	N 	0.66878	0.76748	0.48609	-0.338
Mof_N 	N 	0.60509	0.68225	0.49148	-0.363
Mof_N 	N 	0.55013	0.66926	0.01131	-0.324
Mof_H 	H 	0.5714	0.6841	0.0001	0.08
Mof_N 	N 	0.73829	0.84211	0.02478	-0.318
Mof_H 	H 	0.7429	0.8155	0.0147	0.052
Mof_N 	N 	0.70126	0.8404	0.50576	-0.296
Mof_H 	H 	0.6926	0.825	0.5198	0.053
Mof_N 	N 	0.56577	0.62782	0.51963	-0.323
Mof_H 	H 	0.5808	0.6481	0.5309	0.072
Mof_C 	C 	0.5077	0.641	0.97371	-0.66
Mof_H 	H 	0.5009	0.6773	0.9689	0.146
Mof_H 	H 	0.4794	0.6186	0.9663	0.157
Mof_H 	H 	0.5441	0.6303	0.9677	0.18
Mof_C 	C 	0.5056	0.6362	0.00203	0.481
Mof_C 	C 	0.5148	0.5798	0.00926	-0.662
Mof_H 	H 	0.5178	0.5771	0.0274	0.169
Mof_H 	H 	0.549	0.5671	0.0016	0.177
Mof_H 	H 	0.4838	0.5586	0.0035	0.171
Mof_C 	C 	0.45	0.6545	0.01159	-0.655
Mof_H 	H 	0.4449	0.6914	0.0074	0.201
Mof_H 	H 	0.4486	0.6503	0.0297	0.097
Mof_H 	H 	0.4207	0.6338	0.0039	0.147
Mof_C 	C 	0.56195	0.6795	0.03594	0.398
Mof_C 	C 	0.61865	0.72684	0.06463	0.037
Mof_H 	H 	0.6482	0.7013	0.0682	-0.062
Mof_H 	H 	0.5886	0.7212	0.0768	-0.135
Mof_C 	C 	0.64125	0.78192	0.06751	-0.073
Mof_H 	H 	0.6106	0.8065	0.0704	-0.003
Mof_H 	H 	0.6663	0.7834	0.082	-0.029
Mof_C 	C 	0.70919	0.83376	0.04681	0.331
Mof_C 	C 	0.7616	0.89241	0.01734	0.436
Mof_C 	C 	0.7789	0.8862	0.99026	-0.66
Mof_H 	H 	0.8061	0.8581	0.9889	0.145
Mof_H 	H 	0.7952	0.9188	0.9843	0.179
Mof_H 	H 	0.7466	0.8776	0.9802	0.188
Mof_C 	C 	0.8117	0.9066	0.03282	-0.533
Mof_H 	H 	0.8398	0.8795	0.031	0.099
Mof_H 	H 	0.801	0.9094	0.0503	0.065
Mof_H 	H 	0.8266	0.94	0.0271	0.122
Mof_C 	C 	0.7172	0.9347	0.01922	-0.692
Mof_H 	H 	0.6852	0.9246	0.0093	0.199
Mof_H 	H 	0.732	0.9677	0.0129	0.193
Mof_H 	H 	0.7062	0.939	0.0366	0.202
Mof_C 	C 	0.7022	0.9138	0.53298	-0.518
Mof_H 	H 	0.7243	0.8939	0.5449	0.125
Mof_H 	H 	0.7106	0.951	0.5346	0.131
Mof_H 	H 	0.663	0.908	0.5363	0.132
Mof_C 	C 	0.7158	0.8959	0.50673	0.27
Mof_C 	C 	0.7781	0.9024	0.50187	-0.189
Mof_H 	H 	0.7868	0.8902	0.4851	-0.211
Mof_H 	H 	0.7881	0.9392	0.5034	0.019
Mof_H 	H 	0.7988	0.8818	0.514	-0.072
Mof_C 	C 	0.6828	0.9275	0.48771	-0.498
Mof_H 	H 	0.6908	0.9147	0.4709	0.119
Mof_H 	H 	0.6434	0.9238	0.4911	0.14
Mof_H 	H 	0.6932	0.9643	0.4889	0.129
Mof_C 	C 	0.70009	0.8104	0.48422	0.305
Mof_C 	C 	0.6657	0.7325	0.46485	-0.09
Mof_H 	H 	0.6672	0.7527	0.4492	0.023
Mof_H 	H 	0.6973	0.708	0.4651	0.008
Mof_C 	C 	0.6121	0.7024	0.46632	0.016
Mof_H 	H 	0.6126	0.6732	0.4543	-0.077
Mof_H 	H 	0.5809	0.7256	0.4621	-0.1
Mof_C 	C 	0.5714	0.6425	0.49498	0.373
Mof_C 	C 	0.5366	0.581	0.52839	0.528
Mof_C 	C 	0.5464	0.5795	0.55651	-0.836
Mof_H 	H 	0.5313	0.6111	0.5641	0.309
Mof_H 	H 	0.5281	0.5488	0.5636	0.261
Mof_H 	H 	0.586	0.5776	0.5598	0.251
Mof_C 	C 	0.4745	0.5851	0.52339	-0.661
Mof_H 	H 	0.4681	0.5881	0.5055	0.115
Mof_H 	H 	0.4559	0.554	0.5297	0.152
Mof_H 	H 	0.4598	0.6161	0.5318	0.169
Mof_C 	C 	0.5595	0.5318	0.51659	-0.675
Mof_H 	H 	0.5554	0.5338	0.4985	0.175
Mof_H 	H 	0.5986	0.5283	0.5208	0.186
Mof_H 	H 	0.5393	0.5014	0.5228	0.148
Mof_O 	O 	0.7788	0.5911	0.2596	-0.497
Mof_N 	N 	0.8539	0.549	0.2721	-0.215
Mof_C 	C 	0.7997	0.5516	0.2691	0.135
Mof_C 	C 	0.7652	0.5028	0.2721	1.138
Mof_H 	H 	0.7635	0.4842	0.2562	-0.398
Mof_H 	H 	0.7278	0.5105	0.2779	-0.172
Mof_H 	H 	0.7841	0.4811	0.2845	-0.853
Mof_C 	C 	0.887	0.5954	0.2675	-0.147
Mof_H 	H 	0.8668	0.6165	0.2554	-0.038
Mof_H 	H 	0.9232	0.5862	0.2606	0.013
Mof_H 	H 	0.892	0.6153	0.2829	-0.026
Mof_C 	C 	0.8849	0.5067	0.2833	-0.069
Mof_H 	H 	0.895	0.5147	0.3006	0
Mof_H 	H 	0.9184	0.5029	0.2733	-0.055
Mof_H 	H 	0.8638	0.4741	0.2828	0.003
Mof_O 	O 	0.7932	0.5977	0.2603	-0.119
Mof_N 	N 	0.8376	0.5287	0.2753	-0.079
Mof_C 	C 	0.8378	0.5755	0.2647	0.256
Mof_C 	C 	0.8893	0.5934	0.2512	-0.037
Mof_H 	H 	0.8898	0.5837	0.2336	-0.048
Mof_H 	H 	0.9187	0.5748	0.26	0
Mof_H 	H 	0.8952	0.6311	0.2528	-0.052
Mof_C 	C 	0.7852	0.5078	0.284	-0.066
Mof_H 	H 	0.7578	0.5299	0.2758	-0.456
Mof_H 	H 	0.7797	0.5093	0.3021	0.108
Mof_H 	H 	0.781	0.4717	0.2783	0.515
Mof_C 	C 	0.8806	0.4894	0.2734	0.164
Mof_H 	H 	0.8728	0.4616	0.2614	-0.119
Mof_H 	H 	0.8808	0.4748	0.2903	-0.075
Mof_H 	H 	0.9166	0.5048	0.2697	-0.067
Mof_O 	O 	0.4763	0.0252	0.2627	1.163
Mof_N 	N 	0.3927	0.0611	0.26402	0.905
Mof_C 	C 	0.443	0.0579	0.25465	3.12
Mof_C 	C 	0.4603	0.0962	0.2348	-0.253
Mof_H 	H 	0.4637	0.1311	0.242	0.033
Mof_H 	H 	0.433	0.0968	0.2214	-0.348
Mof_H 	H 	0.4961	0.0853	0.228	0.12
Mof_C 	C 	0.3753	0.0245	0.2832	5.847
Mof_H 	H 	0.3617	0.9925	0.2753	-0.906
Mof_H 	H 	0.3457	0.0404	0.293	-0.789
Mof_H 	H 	0.4064	0.0162	0.2941	-7.021
Mof_C 	C 	0.348	0.0939	0.2551	0.315
Mof_H 	H 	0.3574	0.1072	0.2385	-0.01
Mof_H 	H 	0.3443	0.1231	0.2667	-0.088
Mof_H 	H 	0.3131	0.0747	0.2542	0.073
Mof_O 	O 	0.4665	0.0218	0.267	-1.567
Mof_N 	N 	0.4054	0.0802	0.253	-0.971
Mof_C 	C 	0.42	0.0419	0.2681	-3.883
Mof_C 	C 	0.3831	0.0296	0.2901	3.911
Mof_H 	H 	0.3471	0.0184	0.2838	-3.467
Mof_H 	H 	0.3785	0.0602	0.3008	-1.153
Mof_H 	H 	0.3998	0.0012	0.2997	3.9
Mof_C 	C 	0.4437	0.0992	0.2342	-0.551
Mof_H 	H 	0.4446	0.1374	0.2347	0.215
Mof_H 	H 	0.432	0.0875	0.2177	0.529
Mof_H 	H 	0.4806	0.0855	0.2378	-0.237
Mof_C 	C 	0.3585	0.1148	0.2566	0.044
Mof_H 	H 	0.326	0.0936	0.2603	-0.291
Mof_H 	H 	0.352	0.1349	0.2414	-0.191
Mof_H 	H 	0.3654	0.1388	0.2705	0.004
Mof_O 	O 	0.3882	0.6896	0.0976	0.842
Mof_N 	N 	0.2978	0.7062	0.09787	0.711
Mof_C 	C 	0.3479	0.7115	0.10723	3.031
Mof_C 	C 	0.3551	0.7407	0.1315	0.214
Mof_H 	H 	0.3361	0.7205	0.1443	-1.776
Mof_H 	H 	0.3387	0.7755	0.1304	-3.54
Mof_H 	H 	0.3942	0.7439	0.1358	-0.511
Mof_C 	C 	0.2899	0.6769	0.0749	0.76
Mof_H 	H 	0.2772	0.7011	0.0621	-0.169
Mof_H 	H 	0.2628	0.6489	0.077	-0.02
Mof_H 	H 	0.3254	0.6619	0.07	0.129
Mof_C 	C 	0.2489	0.735	0.1054	0.221
Mof_H 	H 	0.2273	0.7133	0.1168	0.906
Mof_H 	H 	0.2267	0.7433	0.0907	-0.052
Mof_H 	H 	0.2595	0.7674	0.1138	-0.469
Mof_O 	O 	0.3834	0.6913	0.09067	-1.666
Mof_N 	N 	0.3111	0.7178	0.11319	-0.851
Mof_C 	C 	0.333	0.6986	0.09259	-2.696
Mof_C 	C 	0.2965	0.6913	0.06999	0.564
Mof_H 	H 	0.2928	0.7243	0.061	-0.488
Mof_H 	H 	0.2601	0.6796	0.0755	-0.465
Mof_H 	H 	0.3127	0.665	0.059	-0.461
Mof_C 	C 	0.3465	0.7306	0.13419	-2.33
Mof_H 	H 	0.3814	0.7117	0.1325	0.549
Mof_H 	H 	0.3288	0.7211	0.1499	2.448
Mof_H 	H 	0.3537	0.7682	0.134	4.447
Mof_C 	C 	0.2552	0.7375	0.11614	0.308
Mof_H 	H 	0.2524	0.7714	0.1078	0.366
Mof_H 	H 	0.2468	0.7415	0.1339	-0.133
Mof_H 	H 	0.229	0.7131	0.1086	-1.097
Mof_O 	O 	0.44186	0.5705	0.09687	-0.735
Mof_N 	N 	0.3726	0.528	0.07834	-0.168
Mof_C 	C 	0.3931	0.5557	0.09689	0.273
Mof_C 	C 	0.3563	0.5682	0.1188	-0.05
Mof_H 	H 	0.3781	0.5852	0.1318	-0.083
Mof_H 	H 	0.3415	0.5353	0.1252	-0.411
Mof_H 	H 	0.3259	0.591	0.1139	0.032
Mof_C 	C 	0.406	0.5164	0.05654	-0.592
Mof_H 	H 	0.3858	0.5261	0.0415	0.327
Mof_H 	H 	0.4146	0.4791	0.056	0.751
Mof_H 	H 	0.4402	0.5365	0.0575	0.136
Mof_C 	C 	0.3184	0.5037	0.0779	-0.063
Mof_H 	H 	0.3177	0.4729	0.0886	0.037
Mof_H 	H 	0.3098	0.4935	0.0608	0.018
Mof_H 	H 	0.2909	0.5289	0.0837	0.034
Mof_O 	O 	0.4454	0.5662	0.0864	-0.067
Mof_N 	N 	0.3583	0.5395	0.0912	-0.152
Mof_C 	C 	0.4055	0.5404	0.0788	0.36
Mof_C 	C 	0.4134	0.5029	0.0573	-0.132
Mof_H 	H 	0.4518	0.5031	0.0517	-0.083
Mof_H 	H 	0.3897	0.5167	0.0441	-0.142
Mof_H 	H 	0.4023	0.4671	0.0612	-0.508
Mof_C 	C 	0.3533	0.567	0.1147	-0.216
Mof_H 	H 	0.3835	0.5923	0.1159	0.009
Mof_H 	H 	0.3544	0.5437	0.1292	0.497
Mof_H 	H 	0.318	0.5856	0.1145	0.057
Mof_C 	C 	0.3089	0.5108	0.0844	0.026
Mof_H 	H 	0.2946	0.5221	0.0682	0.006
Mof_H 	H 	0.2805	0.5156	0.0971	-0.007
Mof_H 	H 	0.3191	0.4739	0.0835	-0.007
Mof_O 	O 	0.85361	0.8286	0.4166	-4.859
Mof_N 	N 	0.92348	0.7971	0.43915	-7.443
Mof_C 	C 	0.9028	0.8153	0.41811	-28.991
Mof_C 	C 	0.9408	0.8238	0.39617	1.664
Mof_H 	H 	0.9202	0.8393	0.3824	-1.703
Mof_H 	H 	0.971	0.8472	0.401	1.655
Mof_H 	H 	0.9561	0.7902	0.391	-0.473
Mof_C 	C 	0.8876	0.7886	0.46048	-14.302
Mof_H 	H 	0.8783	0.7516	0.4619	1.741
Mof_H 	H 	0.9064	0.8001	0.4756	-5.563
Mof_H 	H 	0.8538	0.8089	0.4582	2.6
Mof_C 	C 	0.9796	0.7792	0.44329	-1.79
Mof_H 	H 	0.9964	0.7994	0.4568	0.488
Mof_H 	H 	0.9791	0.7422	0.4478	-0.774
Mof_H 	H 	0.0012	0.7839	0.428	0.271
Mof_O 	O 	0.8467	0.6808	0.9169	3.757
Mof_N 	N 	0.9359	0.696	0.9246	11.164
Mof_C 	C 	0.8835	0.6949	0.9315	28.001
Mof_C 	C 	0.8683	0.7143	0.9572	-9.516
Mof_H 	H 	0.8799	0.7508	0.9585	4.322
Mof_H 	H 	0.8872	0.6937	0.9699	14.369
Mof_H 	H 	0.8284	0.7119	0.9596	1.153
Mof_C 	C 	0.9514	0.679	0.8997	4.244
Mof_H 	H 	0.9212	0.6579	0.893	2.049
Mof_H 	H 	0.9847	0.6576	0.9009	-3.492
Mof_H 	H 	0.9584	0.7086	0.8886	-0.945
Mof_C 	C 	0.9803	0.7228	0.9375	-0.842
Mof_H 	H 	0.9664	0.7382	0.953	2.362
Mof_H 	H 	0.9949	0.7504	0.9267	0.082
Mof_H 	H 	0.0098	0.6979	0.9414	0.448
Mof_O 	O 	0.8065	0.9628	0.43242	-0.428
Mof_N 	N 	0.8848	0.0041	0.42244	-0.498
Mof_C 	C 	0.8392	0.9993	0.43573	-0.433
Mof_C 	C 	0.8299	0.0367	0.45712	-0.552
Mof_H 	H 	0.8021	0.0224	0.4684	-0.013
Mof_H 	H 	0.8647	0.0413	0.4661	0.216
Mof_H 	H 	0.8173	0.0704	0.4508	0.334
Mof_C 	C 	0.8946	0.9699	0.40131	-0.906
Mof_H 	H 	0.8636	0.9457	0.3996	0.139
Mof_H 	H 	0.8981	0.9907	0.3861	-0.067
Mof_H 	H 	0.9286	0.9501	0.404	0.328
Mof_C 	C 	0.9246	0.0463	0.4244	0.923
Mof_H 	H 	0.9236	0.0583	0.4417	-2.453
Mof_H 	H 	0.9609	0.0312	0.4209	-0.856
Mof_H 	H 	0.9179	0.0757	0.4132	-1.952
Mof_O 	O 	0.8037	0.5337	0.9256	-0.091
Mof_N 	N 	0.8685	0.474	0.9333	0.116
Mof_C 	C 	0.8506	0.5162	0.9216	1.105
Mof_C 	C 	0.8906	0.547	0.9058	-0.455
Mof_H 	H 	0.8897	0.5337	0.8887	0.613
Mof_H 	H 	0.9279	0.5432	0.9125	0.155
Mof_H 	H 	0.8802	0.5839	0.9058	0.535
Mof_C 	C 	0.8308	0.4438	0.9486	-0.292
Mof_H 	H 	0.8017	0.467	0.9546	0.359
Mof_H 	H 	0.8509	0.4292	0.9628	0.072
Mof_H 	H 	0.8144	0.4154	0.9389	-0.087
Mof_C 	C 	0.9216	0.4488	0.9296	0.419
Mof_H 	H 	0.9115	0.4175	0.9202	1.597
Mof_H 	H 	0.9413	0.4386	0.9448	1.772
Mof_H 	H 	0.9455	0.471	0.9194	0.467
Mof_O 	O 	0.4407	0.5584	0.4243	-0.365
Mof_N 	N 	0.3746	0.5074	0.40822	-0.618
Mof_C 	C 	0.3928	0.5415	0.42477	-0.75
Mof_C 	C 	0.3538	0.5598	0.44493	0.064
Mof_H 	H 	0.3736	0.5818	0.4568	-0.246
Mof_H 	H 	0.3234	0.5797	0.4375	-0.115
Mof_H 	H 	0.3389	0.5293	0.4536	-0.048
Mof_C 	C 	0.4116	0.4855	0.3897	-0.391
Mof_H 	H 	0.4465	0.5048	0.3902	0.039
Mof_H 	H 	0.4186	0.4485	0.3929	0.492
Mof_H 	H 	0.3948	0.4894	0.3732	0.138
Mof_C 	C 	0.3206	0.4825	0.40872	0.03
Mof_H 	H 	0.2939	0.5058	0.4167	-0.049
Mof_H 	H 	0.3087	0.475	0.3917	0.18
Mof_H 	H 	0.3229	0.4499	0.4182	-0.025
Mof_O 	O 	0.4445	0.9515	0.921	-0.198
Mof_N 	N 	0.3564	0.9769	0.91919	0.212
Mof_C 	C 	0.4079	0.9781	0.911	1.247
Mof_C 	C 	0.4227	0.015	0.8901	-0.126
Mof_H 	H 	0.4624	0.022	0.89	0.009
Mof_H 	H 	0.4025	0.0477	0.8927	-0.311
Mof_H 	H 	0.4119	0.9998	0.8741	0.032
Mof_C 	C 	0.3417	0.9438	0.9401	-0.008
Mof_H 	H 	0.3741	0.9399	0.9509	0.154
Mof_H 	H 	0.3303	0.9094	0.934	0.058
Mof_H 	H 	0.3115	0.9594	0.9496	0.007
Mof_C 	C 	0.3093	0.003	0.908	0.142
Mof_H 	H 	0.3197	0.0174	0.8918	-0.265
Mof_H 	H 	0.2975	0.0313	0.9191	-0.122
Mof_H 	H 	0.279	0.9782	0.9059	-0.087
Mof_K 	K 	0.7423	0.81321	0.76158	2.991
Mof_K 	K 	0.47431	0.57739	0.7739	3.587
Mof_K 	K 	0.48605	0.83873	0.59362	3.481
Mof_K 	K 	0.75912	0.62006	0.60943	2.262
Mof_K 	K 	0.76056	0.62749	0.92755	0.961
Mof_K 	K 	0.487	0.85867	0.9407	2.697
Mof_Zn	Zn	0.59941	0.73129	0.84986	1.162
Mof_O 	O 	0.52082	0.83637	0.89794	-0.685
Mof_O 	O 	0.69771	0.62687	0.89012	-0.434
Mof_O 	O 	0.67423	0.82787	0.79706	-0.702
Mof_O 	O 	0.50264	0.6174	0.81456	-0.868
Mof_N 	N 	0.5707	0.77263	0.87819	-0.362
Mof_N 	N 	0.64339	0.69326	0.87529	-0.333
Mof_N 	N 	0.61838	0.77312	0.81991	-0.356
Mof_N 	N 	0.56045	0.68415	0.82646	-0.384
Mof_N 	N 	0.51032	0.8226	0.85601	-0.327
Mof_H 	H 	0.5143	0.7994	0.8441	0.061
Mof_N 	N 	0.7024	0.6506	0.84977	-0.351
Mof_H 	H 	0.693	0.6749	0.8391	0.064
Mof_N 	N 	0.66121	0.84164	0.83866	-0.326
Mof_H 	H 	0.6475	0.8286	0.8525	0.073
Mof_N 	N 	0.53823	0.61992	0.85396	-0.311
Mof_H 	H 	0.5531	0.6404	0.8652	0.067
Mof_C 	C 	0.4663	0.8662	0.82248	-0.708
Mof_H 	H 	0.4428	0.8358	0.8193	0.165
Mof_H 	H 	0.4471	0.8979	0.8172	0.185
Mof_H 	H 	0.5008	0.8626	0.8132	0.189
Mof_C 	C 	0.47887	0.86965	0.8501	0.483
Mof_C 	C 	0.5126	0.9185	0.85563	-0.755
Mof_H 	H 	0.5221	0.9194	0.8733	0.263
Mof_H 	H 	0.5465	0.918	0.8457	0.217
Mof_H 	H 	0.491	0.9495	0.8514	0.213
Mof_C 	C 	0.425	0.8717	0.86478	-0.579
Mof_H 	H 	0.4048	0.8391	0.8625	0.115
Mof_H 	H 	0.4332	0.8766	0.8825	0.102
Mof_H 	H 	0.4026	0.9009	0.8588	0.148
Mof_C 	C 	0.53444	0.8114	0.8788	0.364
Mof_C 	C 	0.59834	0.75795	0.90127	-0.024
Mof_H 	H 	0.6292	0.7823	0.9045	0.005
Mof_H 	H 	0.5721	0.7607	0.9153	-0.06
Mof_C 	C 	0.62038	0.70268	0.89984	-0.063
Mof_H 	H 	0.5902	0.6776	0.9031	-0.006
Mof_H 	H 	0.6492	0.6976	0.9126	0.001
Mof_C 	C 	0.68093	0.6554	0.87325	0.326
Mof_C 	C 	0.7386	0.6104	0.84054	0.785
Mof_C 	C 	0.7476	0.6205	0.81305	-0.871
Mof_H 	H 	0.7649	0.6547	0.8108	0.165
Mof_H 	H 	0.7716	0.5934	0.8061	0.224
Mof_H 	H 	0.712	0.6199	0.8044	0.211
Mof_C 	C 	0.7117	0.5583	0.84375	-1.039
Mof_H 	H 	0.7046	0.5521	0.8614	0.322
Mof_H 	H 	0.6768	0.5577	0.8346	0.301
Mof_H 	H 	0.7361	0.531	0.8373	0.298
Mof_C 	C 	0.7926	0.6106	0.8537	-1.221
Mof_H 	H 	0.8087	0.6455	0.8528	0.509
Mof_H 	H 	0.787	0.6008	0.8711	0.439
Mof_H 	H 	0.8174	0.5855	0.8458	0.369
Mof_C 	C 	0.6862	0.9084	0.86767	-0.783
Mof_H 	H 	0.7031	0.8824	0.8786	0.239
Mof_H 	H 	0.7049	0.9419	0.8699	0.231
Mof_H 	H 	0.6472	0.9121	0.8719	0.258
Mof_C 	C 	0.6918	0.891	0.84066	0.456
Mof_C 	C 	0.7529	0.8823	0.83453	-0.488
Mof_H 	H 	0.7565	0.8709	0.8172	0.032
Mof_H 	H 	0.7732	0.915	0.8369	0.123
Mof_H 	H 	0.7681	0.8556	0.8456	0.07
Mof_C 	C 	0.6684	0.9324	0.82357	-0.662
Mof_H 	H 	0.6717	0.9209	0.8063	0.19
Mof_H 	H 	0.6295	0.9382	0.8276	0.175
Mof_H 	H 	0.689	0.9649	0.8258	0.177
Mof_C 	C 	0.652	0.8138	0.817	0.346
Mof_C 	C 	0.6065	0.7425	0.79757	-0.055
Mof_H 	H 	0.6	0.766	0.7833	-0.022
Mof_H 	H 	0.6383	0.7198	0.7936	-0.073
Mof_C 	C 	0.5555	0.7094	0.80237	0.031
Mof_H 	H 	0.5517	0.6827	0.7892	-0.121
Mof_H 	H 	0.5222	0.7317	0.8021	-0.084
Mof_C 	C 	0.53267	0.6402	0.83034	0.397
Mof_C 	C 	0.5218	0.5676	0.86209	0.278
Mof_C 	C 	0.5427	0.5617	0.88857	-0.562
Mof_H 	H 	0.5828	0.5655	0.8888	0.186
Mof_H 	H 	0.5259	0.5886	0.8991	0.14
Mof_H 	H 	0.5326	0.5272	0.8949	0.159
Mof_C 	C 	0.4587	0.5627	0.86192	-0.239
Mof_H 	H 	0.4427	0.5892	0.8729	-0.031
Mof_H 	H 	0.445	0.5678	0.845	-0.063
Mof_H 	H 	0.4481	0.528	0.8678	-0.012
Mof_C 	C 	0.5469	0.5254	0.8457	-0.393
Mof_H 	H 	0.5871	0.529	0.8456	0.097
Mof_H 	H 	0.5369	0.4911	0.8522	0.088
Mof_H 	H 	0.5328	0.529	0.8287	0.05
Mof_Zn	Zn	0.60421	0.68896	0.6808	1.164
Mof_O 	O 	0.71168	0.79224	0.71717	-0.723
Mof_O 	O 	0.51759	0.60041	0.73367	-0.86
Mof_O 	O 	0.5201	0.78539	0.63017	-0.729
Mof_O 	O 	0.69737	0.57674	0.64338	-0.608
Mof_N 	N 	0.64522	0.73392	0.70455	-0.374
Mof_N 	N 	0.57108	0.65655	0.71054	-0.372
Mof_N 	N 	0.57361	0.72599	0.65151	-0.344
Mof_N 	N 	0.63616	0.64017	0.65595	-0.354
Mof_N 	N 	0.6917	0.78218	0.676	-0.317
Mof_H 	H 	0.6712	0.7654	0.6652	0.058
Mof_N 	N 	0.49969	0.61257	0.69231	-0.331
Mof_H 	H 	0.5022	0.6352	0.6801	0.085
Mof_N 	N 	0.52935	0.79064	0.6727	-0.313
Mof_H 	H 	0.5324	0.7713	0.6861	0.06
Mof_N 	N 	0.65904	0.57415	0.68228	-0.327
Mof_H 	H 	0.6412	0.5924	0.6935	0.074
Mof_C 	C 	0.7215	0.8194	0.63774	-0.527
Mof_H 	H 	0.7296	0.7846	0.6312	0.084
Mof_H 	H 	0.6831	0.8284	0.6341	0.116
Mof_H 	H 	0.746	0.8449	0.6298	0.114
Mof_C 	C 	0.7307	0.8201	0.66587	0.381
Mof_C 	C 	0.7897	0.8036	0.67184	-0.465
Mof_H 	H 	0.7941	0.8003	0.6899	0.062
Mof_H 	H 	0.7976	0.7701	0.6639	0.046
Mof_H 	H 	0.8154	0.83	0.6656	0.097
Mof_C 	C 	0.7203	0.8741	0.67564	-0.635
Mof_H 	H 	0.7273	0.8749	0.6936	0.2
Mof_H 	H 	0.745	0.8988	0.6673	0.168
Mof_H 	H 	0.682	0.8839	0.6724	0.219
Mof_C 	C 	0.6837	0.77	0.70059	0.369
Mof_C 	C 	0.6311	0.7209	0.72999	0.013
Mof_H 	H 	0.6649	0.7218	0.7403	-0.133
Mof_H 	H 	0.6055	0.7476	0.7366	-0.051
Mof_C 	C 	0.6051	0.6687	0.73222	-0.043
Mof_H 	H 	0.582	0.6678	0.7474	-0.052
Mof_H 	H 	0.6342	0.642	0.734	-0.038
Mof_C 	C 	0.5298	0.6229	0.71364	0.409
Mof_C 	C 	0.4639	0.567	0.68845	0.37
Mof_C 	C 	0.4502	0.5662	0.66102	-0.744
Mof_H 	H 	0.4842	0.5632	0.6513	0.238
Mof_H 	H 	0.4263	0.5363	0.6574	0.211
Mof_H 	H 	0.4311	0.5985	0.6565	0.28
Mof_C 	C 	0.4107	0.5719	0.70364	-0.345
Mof_H 	H 	0.3901	0.6026	0.6981	0.043
Mof_H 	H 	0.3881	0.5406	0.7012	0.057
Mof_H 	H 	0.4198	0.5755	0.7213	-0.069
Mof_C 	C 	0.4931	0.5173	0.69553	-0.468
Mof_H 	H 	0.5277	0.5145	0.6862	0.118
Mof_H 	H 	0.501	0.5175	0.7134	0.042
Mof_H 	H 	0.4695	0.4874	0.6916	0.086
Mof_C 	C 	0.5139	0.8544	0.70372	-0.6
Mof_H 	H 	0.4872	0.8313	0.7118	0.13
Mof_H 	H 	0.5509	0.8468	0.71	0.199
Mof_H 	H 	0.5045	0.8907	0.7073	0.226
Mof_C 	C 	0.5124	0.8455	0.67578	0.337
Mof_C 	C 	0.4536	0.8543	0.66651	-0.323
Mof_H 	H 	0.4283	0.8313	0.6755	0.025
Mof_H 	H 	0.4431	0.8907	0.6694	0.062
Mof_H 	H 	0.4517	0.8467	0.6487	-0.048
Mof_C 	C 	0.5516	0.8818	0.66253	-0.45
Mof_H 	H 	0.5497	0.8755	0.6446	0.008
Mof_H 	H 	0.5412	0.918	0.666	0.156
Mof_H 	H 	0.5892	0.8756	0.6684	0.164
Mof_C 	C 	0.54077	0.7675	0.64977	0.417
Mof_C 	C 	0.5842	0.6965	0.62883	-0.091
Mof_H 	H 	0.5533	0.6723	0.6256	0.128
Mof_H 	H 	0.5874	0.7205	0.6145	0.021
Mof_C 	C 	0.63778	0.66565	0.63187	0.008
Mof_H 	H 	0.6698	0.6894	0.6309	-0.136
Mof_H 	H 	0.6412	0.6394	0.6185	-0.071
Mof_C 	C 	0.66567	0.59677	0.65926	0.296
Mof_C 	C 	0.6789	0.5225	0.68991	0.535
Mof_C 	C 	0.6555	0.5138	0.71591	-0.75
Mof_H 	H 	0.6152	0.5163	0.7153	0.2
Mof_H 	H 	0.6661	0.4792	0.7219	0.228
Mof_H 	H 	0.67	0.5404	0.7272	0.218
Mof_C 	C 	0.7415	0.5214	0.69083	-0.741
Mof_H 	H 	0.7563	0.5318	0.6746	0.147
Mof_H 	H 	0.7545	0.5456	0.7036	0.208
Mof_H 	H 	0.754	0.4861	0.6948	0.295
Mof_C 	C 	0.6578	0.48	0.67254	-0.771
Mof_H 	H 	0.6178	0.4829	0.6709	0.215
Mof_H 	H 	0.6749	0.4841	0.6562	0.226
Mof_H 	H 	0.6673	0.4458	0.6794	0.207
Mof_Zn	Zn	0.6346	0.73434	0.51554	1.166
Mof_O 	O 	0.54054	0.84757	0.55282	-0.741
Mof_O 	O 	0.72199	0.6415	0.56615	-0.636
Mof_O 	O 	0.72718	0.67603	0.96551	-0.716
Mof_O 	O 	0.54557	0.88122	0.97827	-0.727
Mof_N 	N 	0.59767	0.78158	0.53948	-0.366
Mof_N 	N 	0.67106	0.70317	0.545	-0.348
Mof_N 	N 	0.66878	0.73252	0.98609	-0.338
Mof_N 	N 	0.60509	0.81775	0.99148	-0.363
Mof_N 	N 	0.55013	0.83074	0.51131	-0.324
Mof_H 	H 	0.5714	0.8159	0.5001	0.08
Mof_N 	N 	0.73829	0.65789	0.52478	-0.318
Mof_H 	H 	0.7429	0.6845	0.5147	0.052
Mof_N 	N 	0.70126	0.6596	0.00576	-0.297
Mof_H 	H 	0.6926	0.675	0.0198	0.053
Mof_N 	N 	0.56577	0.87218	0.01963	-0.323
Mof_H 	H 	0.5808	0.8519	0.0309	0.072
Mof_C 	C 	0.5077	0.859	0.47371	-0.66
Mof_H 	H 	0.5009	0.8227	0.4689	0.146
Mof_H 	H 	0.4794	0.8814	0.4663	0.157
Mof_H 	H 	0.5441	0.8697	0.4677	0.18
Mof_C 	C 	0.5056	0.8638	0.50203	0.481
Mof_C 	C 	0.5148	0.9202	0.50926	-0.662
Mof_H 	H 	0.5178	0.9229	0.5274	0.169
Mof_H 	H 	0.549	0.9329	0.5016	0.177
Mof_H 	H 	0.4838	0.9414	0.5035	0.171
Mof_C 	C 	0.45	0.8455	0.51159	-0.655
Mof_H 	H 	0.4449	0.8086	0.5074	0.201
Mof_H 	H 	0.4486	0.8497	0.5297	0.097
Mof_H 	H 	0.4207	0.8662	0.5039	0.147
Mof_C 	C 	0.56195	0.8205	0.53594	0.398
Mof_C 	C 	0.61865	0.77316	0.56463	0.037
Mof_H 	H 	0.6482	0.7987	0.5682	-0.062
Mof_H 	H 	0.5886	0.7788	0.5768	-0.135
Mof_C 	C 	0.64125	0.71808	0.56751	-0.073
Mof_H 	H 	0.6106	0.6935	0.5704	-0.003
Mof_H 	H 	0.6663	0.7166	0.582	-0.029
Mof_C 	C 	0.70919	0.66624	0.54681	0.331
Mof_C 	C 	0.7616	0.60759	0.51734	0.438
Mof_C 	C 	0.7789	0.6138	0.49026	-0.663
Mof_H 	H 	0.8061	0.6419	0.4889	0.146
Mof_H 	H 	0.7952	0.5812	0.4843	0.18
Mof_H 	H 	0.7466	0.6224	0.4802	0.189
Mof_C 	C 	0.8117	0.5934	0.53282	-0.535
Mof_H 	H 	0.8398	0.6205	0.531	0.1
Mof_H 	H 	0.801	0.5906	0.5503	0.066
Mof_H 	H 	0.8266	0.56	0.5271	0.123
Mof_C 	C 	0.7172	0.5653	0.51922	-0.694
Mof_H 	H 	0.6852	0.5754	0.5093	0.2
Mof_H 	H 	0.732	0.5323	0.5129	0.194
Mof_H 	H 	0.7062	0.561	0.5366	0.203
Mof_C 	C 	0.7022	0.5862	0.03298	-0.52
Mof_H 	H 	0.7243	0.6061	0.0449	0.126
Mof_H 	H 	0.7106	0.549	0.0346	0.132
Mof_H 	H 	0.663	0.592	0.0363	0.133
Mof_C 	C 	0.7158	0.6041	0.00673	0.272
Mof_C 	C 	0.7781	0.5976	0.00187	-0.191
Mof_H 	H 	0.7868	0.6098	0.9851	-0.211
Mof_H 	H 	0.7881	0.5608	0.0034	0.02
Mof_H 	H 	0.7988	0.6182	0.014	-0.071
Mof_C 	C 	0.6828	0.5725	0.98771	-0.5
Mof_H 	H 	0.6908	0.5853	0.9709	0.121
Mof_H 	H 	0.6434	0.5762	0.9911	0.14
Mof_H 	H 	0.6932	0.5357	0.9889	0.131
Mof_C 	C 	0.70009	0.6896	0.98422	0.305
Mof_C 	C 	0.6657	0.7675	0.96485	-0.09
Mof_H 	H 	0.6672	0.7473	0.9492	0.023
Mof_H 	H 	0.6973	0.792	0.9651	0.008
Mof_C 	C 	0.6121	0.7976	0.96632	0.016
Mof_H 	H 	0.6126	0.8268	0.9543	-0.077
Mof_H 	H 	0.5809	0.7744	0.9621	-0.1
Mof_C 	C 	0.5714	0.8575	0.99498	0.373
Mof_C 	C 	0.5366	0.919	0.02839	0.528
Mof_C 	C 	0.5464	0.9205	0.05651	-0.836
Mof_H 	H 	0.5313	0.8889	0.0641	0.309
Mof_H 	H 	0.5281	0.9512	0.0636	0.261
Mof_H 	H 	0.586	0.9224	0.0598	0.251
Mof_C 	C 	0.4745	0.9149	0.02339	-0.661
Mof_H 	H 	0.4681	0.9119	0.0055	0.115
Mof_H 	H 	0.4559	0.946	0.0297	0.152
Mof_H 	H 	0.4598	0.8839	0.0318	0.169
Mof_C 	C 	0.5595	0.9682	0.01659	-0.674
Mof_H 	H 	0.5554	0.9662	0.9985	0.175
Mof_H 	H 	0.5986	0.9717	0.0208	0.186
Mof_H 	H 	0.5393	0.9986	0.0228	0.148
Mof_O 	O 	0.7788	0.9089	0.7596	-0.498
Mof_N 	N 	0.8539	0.951	0.7721	-0.216
Mof_C 	C 	0.7997	0.9484	0.7691	0.132
Mof_C 	C 	0.7652	0.9972	0.7721	1.187
Mof_H 	H 	0.7635	0.0158	0.7562	-0.413
Mof_H 	H 	0.7278	0.9895	0.7779	-0.179
Mof_H 	H 	0.7841	0.0189	0.7845	-0.886
Mof_C 	C 	0.887	0.9046	0.7675	-0.146
Mof_H 	H 	0.8668	0.8835	0.7554	-0.038
Mof_H 	H 	0.9232	0.9138	0.7606	0.013
Mof_H 	H 	0.892	0.8847	0.7829	-0.026
Mof_C 	C 	0.8849	0.9933	0.7833	-0.06
Mof_H 	H 	0.895	0.9853	0.8006	-0.003
Mof_H 	H 	0.9184	0.9971	0.7733	-0.054
Mof_H 	H 	0.8638	0.0259	0.7828	0.009
Mof_O 	O 	0.7932	0.9023	0.7603	-0.116
Mof_N 	N 	0.8376	0.9713	0.7753	-0.079
Mof_C 	C 	0.8378	0.9245	0.7647	0.258
Mof_C 	C 	0.8893	0.9066	0.7512	-0.039
Mof_H 	H 	0.8898	0.9163	0.7336	-0.048
Mof_H 	H 	0.9187	0.9252	0.76	0
Mof_H 	H 	0.8952	0.8689	0.7528	-0.051
Mof_C 	C 	0.7852	0.9922	0.784	-0.068
Mof_H 	H 	0.7578	0.9701	0.7758	-0.475
Mof_H 	H 	0.7797	0.9907	0.8021	0.112
Mof_H 	H 	0.781	0.0283	0.7783	0.536
Mof_C 	C 	0.8806	0.0106	0.7734	0.151
Mof_H 	H 	0.8728	0.0384	0.7614	-0.115
Mof_H 	H 	0.8808	0.0252	0.7903	-0.077
Mof_H 	H 	0.9166	0.9952	0.7697	-0.068
Mof_O 	O 	0.4763	0.4748	0.7627	1.155
Mof_N 	N 	0.3927	0.4389	0.76402	0.9
Mof_C 	C 	0.443	0.4421	0.75465	3.106
Mof_C 	C 	0.4603	0.4038	0.7348	-0.251
Mof_H 	H 	0.4637	0.3689	0.742	0.033
Mof_H 	H 	0.433	0.4032	0.7214	-0.347
Mof_H 	H 	0.4961	0.4147	0.728	0.119
Mof_C 	C 	0.3753	0.4755	0.7832	5.817
Mof_H 	H 	0.3617	0.5075	0.7753	-0.904
Mof_H 	H 	0.3457	0.4596	0.793	-0.786
Mof_H 	H 	0.4064	0.4838	0.7941	-6.985
Mof_C 	C 	0.348	0.4061	0.7551	0.313
Mof_H 	H 	0.3574	0.3928	0.7385	-0.009
Mof_H 	H 	0.3443	0.3769	0.7667	-0.088
Mof_H 	H 	0.3131	0.4253	0.7542	0.072
Mof_O 	O 	0.4665	0.4782	0.767	-1.559
Mof_N 	N 	0.4054	0.4198	0.753	-0.967
Mof_C 	C 	0.42	0.4581	0.7681	-3.863
Mof_C 	C 	0.3831	0.4704	0.7901	3.892
Mof_H 	H 	0.3471	0.4816	0.7838	-3.448
Mof_H 	H 	0.3785	0.4398	0.8008	-1.147
Mof_H 	H 	0.3998	0.4988	0.7997	3.881
Mof_C 	C 	0.4437	0.4008	0.7342	-0.55
Mof_H 	H 	0.4446	0.3626	0.7347	0.214
Mof_H 	H 	0.432	0.4125	0.7177	0.528
Mof_H 	H 	0.4806	0.4145	0.7378	-0.235
Mof_C 	C 	0.3585	0.3852	0.7566	0.043
Mof_H 	H 	0.326	0.4064	0.7603	-0.289
Mof_H 	H 	0.352	0.3651	0.7414	-0.191
Mof_H 	H 	0.3654	0.3612	0.7705	0.004
Mof_O 	O 	0.3882	0.8104	0.5976	0.843
Mof_N 	N 	0.2978	0.7938	0.59787	0.711
Mof_C 	C 	0.3479	0.7885	0.60723	3.034
Mof_C 	C 	0.3551	0.7593	0.6315	0.214
Mof_H 	H 	0.3361	0.7795	0.6443	-1.779
Mof_H 	H 	0.3387	0.7245	0.6304	-3.549
Mof_H 	H 	0.3942	0.7561	0.6358	-0.513
Mof_C 	C 	0.2899	0.8231	0.5749	0.762
Mof_H 	H 	0.2772	0.7989	0.5621	-0.169
Mof_H 	H 	0.2628	0.8511	0.577	-0.021
Mof_H 	H 	0.3254	0.8381	0.57	0.128
Mof_C 	C 	0.2489	0.765	0.6054	0.221
Mof_H 	H 	0.2273	0.7867	0.6168	0.907
Mof_H 	H 	0.2267	0.7567	0.5907	-0.052
Mof_H 	H 	0.2595	0.7326	0.6138	-0.47
Mof_O 	O 	0.3834	0.8087	0.59067	-1.667
Mof_N 	N 	0.3111	0.7822	0.61319	-0.851
Mof_C 	C 	0.333	0.8014	0.59259	-2.699
Mof_C 	C 	0.2965	0.8087	0.56999	0.565
Mof_H 	H 	0.2928	0.7757	0.561	-0.488
Mof_H 	H 	0.2601	0.8204	0.5755	-0.466
Mof_H 	H 	0.3127	0.835	0.559	-0.461
Mof_C 	C 	0.3465	0.7694	0.63419	-2.334
Mof_H 	H 	0.3814	0.7883	0.6325	0.55
Mof_H 	H 	0.3288	0.7789	0.6499	2.452
Mof_H 	H 	0.3537	0.7318	0.634	4.457
Mof_C 	C 	0.2552	0.7625	0.61614	0.309
Mof_H 	H 	0.2524	0.7286	0.6078	0.367
Mof_H 	H 	0.2468	0.7585	0.6339	-0.133
Mof_H 	H 	0.229	0.7869	0.6086	-1.098
Mof_O 	O 	0.44186	0.9295	0.59687	-0.734
Mof_N 	N 	0.3726	0.972	0.57834	-0.169
Mof_C 	C 	0.3931	0.9443	0.59689	0.273
Mof_C 	C 	0.3563	0.9318	0.6188	-0.05
Mof_H 	H 	0.3781	0.9148	0.6318	-0.082
Mof_H 	H 	0.3415	0.9647	0.6252	-0.408
Mof_H 	H 	0.3259	0.909	0.6139	0.031
Mof_C 	C 	0.406	0.9836	0.55654	-0.591
Mof_H 	H 	0.3858	0.9739	0.5415	0.326
Mof_H 	H 	0.4146	0.0209	0.556	0.749
Mof_H 	H 	0.4402	0.9635	0.5575	0.135
Mof_C 	C 	0.3184	0.9963	0.5779	-0.061
Mof_H 	H 	0.3177	0.0271	0.5886	0.035
Mof_H 	H 	0.3098	0.0065	0.5608	0.016
Mof_H 	H 	0.2909	0.9711	0.5837	0.032
Mof_O 	O 	0.4454	0.9338	0.5864	-0.068
Mof_N 	N 	0.3583	0.9605	0.5912	-0.152
Mof_C 	C 	0.4055	0.9596	0.5788	0.36
Mof_C 	C 	0.4134	0.9971	0.5573	-0.132
Mof_H 	H 	0.4518	0.9969	0.5517	-0.083
Mof_H 	H 	0.3897	0.9833	0.5441	-0.142
Mof_H 	H 	0.4023	0.0329	0.5612	-0.507
Mof_C 	C 	0.3533	0.933	0.6147	-0.215
Mof_H 	H 	0.3835	0.9077	0.6159	0.009
Mof_H 	H 	0.3544	0.9563	0.6292	0.494
Mof_H 	H 	0.318	0.9144	0.6145	0.057
Mof_C 	C 	0.3089	0.9892	0.5844	0.028
Mof_H 	H 	0.2946	0.9779	0.5682	0.006
Mof_H 	H 	0.2805	0.9844	0.5971	-0.007
Mof_H 	H 	0.3191	0.0261	0.5835	-0.008
Mof_O 	O 	0.85361	0.6714	0.9166	-4.873
Mof_N 	N 	0.92348	0.7029	0.93915	-7.465
Mof_C 	C 	0.9028	0.6847	0.91811	-29.075
Mof_C 	C 	0.9408	0.6762	0.89617	1.669
Mof_H 	H 	0.9202	0.6607	0.8824	-1.706
Mof_H 	H 	0.971	0.6528	0.901	1.661
Mof_H 	H 	0.9561	0.7098	0.891	-0.474
Mof_C 	C 	0.8876	0.7114	0.96048	-14.343
Mof_H 	H 	0.8783	0.7484	0.9619	1.746
Mof_H 	H 	0.9064	0.6999	0.9756	-5.579
Mof_H 	H 	0.8538	0.6911	0.9582	2.608
Mof_C 	C 	0.9796	0.7208	0.94329	-1.794
Mof_H 	H 	0.9964	0.7006	0.9568	0.49
Mof_H 	H 	0.9791	0.7578	0.9478	-0.776
Mof_H 	H 	0.0012	0.7161	0.928	0.271
Mof_O 	O 	0.8467	0.8192	0.4169	3.745
Mof_N 	N 	0.9359	0.804	0.4246	11.131
Mof_C 	C 	0.8835	0.8051	0.4315	27.921
Mof_C 	C 	0.8683	0.7857	0.4572	-9.489
Mof_H 	H 	0.8799	0.7492	0.4585	4.31
Mof_H 	H 	0.8872	0.8063	0.4699	14.328
Mof_H 	H 	0.8284	0.7881	0.4596	1.15
Mof_C 	C 	0.9514	0.821	0.3997	4.231
Mof_H 	H 	0.9212	0.8421	0.393	2.044
Mof_H 	H 	0.9847	0.8424	0.4009	-3.482
Mof_H 	H 	0.9584	0.7914	0.3886	-0.942
Mof_C 	C 	0.9803	0.7772	0.4375	-0.841
Mof_H 	H 	0.9664	0.7618	0.453	2.356
Mof_H 	H 	0.9949	0.7496	0.4267	0.08
Mof_H 	H 	0.0098	0.8021	0.4414	0.447
Mof_O 	O 	0.8065	0.5372	0.93242	-0.43
Mof_N 	N 	0.8848	0.4959	0.92244	-0.502
Mof_C 	C 	0.8392	0.5007	0.93573	-0.436
Mof_C 	C 	0.8299	0.4633	0.95712	-0.545
Mof_H 	H 	0.8021	0.4776	0.9684	-0.013
Mof_H 	H 	0.8647	0.4587	0.9661	0.213
Mof_H 	H 	0.8173	0.4296	0.9508	0.329
Mof_C 	C 	0.8946	0.5301	0.90131	-0.909
Mof_H 	H 	0.8636	0.5543	0.8996	0.139
Mof_H 	H 	0.8981	0.5093	0.8861	-0.066
Mof_H 	H 	0.9286	0.5499	0.904	0.328
Mof_C 	C 	0.9246	0.4537	0.9244	0.923
Mof_H 	H 	0.9236	0.4417	0.9417	-2.452
Mof_H 	H 	0.9609	0.4688	0.9209	-0.856
Mof_H 	H 	0.9179	0.4243	0.9132	-1.952
Mof_O 	O 	0.8037	0.9663	0.4256	-0.093
Mof_N 	N 	0.8685	0.026	0.4333	0.117
Mof_C 	C 	0.8506	0.9838	0.4216	1.098
Mof_C 	C 	0.8906	0.953	0.4058	-0.454
Mof_H 	H 	0.8897	0.9663	0.3887	0.611
Mof_H 	H 	0.9279	0.9568	0.4125	0.152
Mof_H 	H 	0.8802	0.9161	0.4058	0.534
Mof_C 	C 	0.8308	0.0562	0.4486	-0.296
Mof_H 	H 	0.8017	0.033	0.4546	0.362
Mof_H 	H 	0.8509	0.0708	0.4628	0.072
Mof_H 	H 	0.8144	0.0846	0.4389	-0.088
Mof_C 	C 	0.9216	0.0512	0.4296	0.418
Mof_H 	H 	0.9115	0.0825	0.4202	1.599
Mof_H 	H 	0.9413	0.0614	0.4448	1.774
Mof_H 	H 	0.9455	0.029	0.4194	0.469
Mof_O 	O 	0.4407	0.9416	0.9243	-0.365
Mof_N 	N 	0.3746	0.9926	0.90822	-0.617
Mof_C 	C 	0.3928	0.9585	0.92477	-0.749
Mof_C 	C 	0.3538	0.9402	0.94493	0.064
Mof_H 	H 	0.3736	0.9182	0.9568	-0.246
Mof_H 	H 	0.3234	0.9203	0.9375	-0.115
Mof_H 	H 	0.3389	0.9707	0.9536	-0.047
Mof_C 	C 	0.4116	0.0145	0.8897	-0.391
Mof_H 	H 	0.4465	0.9952	0.8902	0.039
Mof_H 	H 	0.4186	0.0515	0.8929	0.492
Mof_H 	H 	0.3948	0.0106	0.8732	0.136
Mof_C 	C 	0.3206	0.0175	0.90872	0.026
Mof_H 	H 	0.2939	0.9942	0.9167	-0.047
Mof_H 	H 	0.3087	0.025	0.8917	0.181
Mof_H 	H 	0.3229	0.0501	0.9182	-0.024
Mof_O 	O 	0.4445	0.5485	0.421	-0.198
Mof_N 	N 	0.3564	0.5231	0.41919	0.212
Mof_C 	C 	0.4079	0.5219	0.411	1.248
Mof_C 	C 	0.4227	0.485	0.3901	-0.126
Mof_H 	H 	0.4624	0.478	0.39	0.009
Mof_H 	H 	0.4025	0.4523	0.3927	-0.311
Mof_H 	H 	0.4119	0.5002	0.3741	0.031
Mof_C 	C 	0.3417	0.5562	0.4401	-0.008
Mof_H 	H 	0.3741	0.5601	0.4509	0.154
Mof_H 	H 	0.3303	0.5906	0.434	0.058
Mof_H 	H 	0.3115	0.5406	0.4496	0.007
Mof_C 	C 	0.3093	0.497	0.408	0.142
Mof_H 	H 	0.3197	0.4826	0.3918	-0.264
Mof_H 	H 	0.2975	0.4687	0.4191	-0.122
Mof_H 	H 	0.279	0.5218	0.4059	-0.087
Mof_K 	K 	0.2423	0.68679	0.23842	2.991
Mof_K 	K 	0.97431	0.92261	0.2261	3.566
Mof_K 	K 	0.98605	0.66127	0.40638	3.476
Mof_K 	K 	0.25912	0.87994	0.39057	2.264
Mof_K 	K 	0.26056	0.87251	0.07245	0.951
Mof_K 	K 	0.987	0.64133	0.0593	2.694
Mof_Zn	Zn	0.09941	0.76871	0.15014	1.162
Mof_O 	O 	0.02082	0.66363	0.10206	-0.684
Mof_O 	O 	0.19771	0.87313	0.10988	-0.433
Mof_O 	O 	0.17423	0.67213	0.20294	-0.702
Mof_O 	O 	0.00264	0.8826	0.18544	-0.863
Mof_N 	N 	0.0707	0.72737	0.12181	-0.362
Mof_N 	N 	0.14339	0.80674	0.12471	-0.333
Mof_N 	N 	0.11838	0.72688	0.18009	-0.356
Mof_N 	N 	0.06045	0.81585	0.17354	-0.384
Mof_N 	N 	0.01032	0.6774	0.14399	-0.327
Mof_H 	H 	0.0143	0.7006	0.1559	0.061
Mof_N 	N 	0.2024	0.8494	0.15023	-0.352
Mof_H 	H 	0.193	0.8251	0.1609	0.064
Mof_N 	N 	0.16121	0.65836	0.16134	-0.327
Mof_H 	H 	0.1475	0.6714	0.1475	0.073
Mof_N 	N 	0.03823	0.88008	0.14604	-0.31
Mof_H 	H 	0.0531	0.8596	0.1348	0.067
Mof_C 	C 	0.9663	0.6338	0.17752	-0.71
Mof_H 	H 	0.9428	0.6642	0.1807	0.165
Mof_H 	H 	0.9471	0.6021	0.1828	0.185
Mof_H 	H 	0.0008	0.6374	0.1868	0.191
Mof_C 	C 	0.97887	0.63035	0.1499	0.481
Mof_C 	C 	0.0126	0.5815	0.14437	-0.752
Mof_H 	H 	0.0221	0.5806	0.1267	0.262
Mof_H 	H 	0.0465	0.582	0.1543	0.216
Mof_H 	H 	0.991	0.5505	0.1486	0.212
Mof_C 	C 	0.925	0.6283	0.13522	-0.578
Mof_H 	H 	0.9048	0.6609	0.1375	0.115
Mof_H 	H 	0.9332	0.6234	0.1175	0.102
Mof_H 	H 	0.9026	0.5991	0.1412	0.148
Mof_C 	C 	0.03444	0.6886	0.1212	0.364
Mof_C 	C 	0.09834	0.74205	0.09873	-0.024
Mof_H 	H 	0.1292	0.7177	0.0955	0.005
Mof_H 	H 	0.0721	0.7393	0.0847	-0.06
Mof_C 	C 	0.12038	0.79732	0.10016	-0.064
Mof_H 	H 	0.0902	0.8224	0.0969	-0.006
Mof_H 	H 	0.1492	0.8024	0.0874	0.002
Mof_C 	C 	0.18093	0.8446	0.12675	0.326
Mof_C 	C 	0.2386	0.8896	0.15946	0.787
Mof_C 	C 	0.2476	0.8795	0.18695	-0.873
Mof_H 	H 	0.2649	0.8453	0.1892	0.166
Mof_H 	H 	0.2716	0.9066	0.1939	0.225
Mof_H 	H 	0.212	0.8801	0.1956	0.212
Mof_C 	C 	0.2117	0.9417	0.15625	-1.043
Mof_H 	H 	0.2046	0.9479	0.1386	0.324
Mof_H 	H 	0.1768	0.9423	0.1654	0.303
Mof_H 	H 	0.2361	0.969	0.1627	0.3
Mof_C 	C 	0.2926	0.8894	0.1463	-1.224
Mof_H 	H 	0.3087	0.8545	0.1472	0.509
Mof_H 	H 	0.287	0.8992	0.1289	0.44
Mof_H 	H 	0.3174	0.9145	0.1542	0.37
Mof_C 	C 	0.1862	0.5916	0.13233	-0.784
Mof_H 	H 	0.2031	0.6176	0.1214	0.24
Mof_H 	H 	0.2049	0.5581	0.1301	0.232
Mof_H 	H 	0.1472	0.5879	0.1281	0.259
Mof_C 	C 	0.1918	0.609	0.15934	0.457
Mof_C 	C 	0.2529	0.6177	0.16547	-0.49
Mof_H 	H 	0.2565	0.6291	0.1828	0.032
Mof_H 	H 	0.2732	0.585	0.1631	0.124
Mof_H 	H 	0.2681	0.6444	0.1544	0.071
Mof_C 	C 	0.1684	0.5676	0.17643	-0.663
Mof_H 	H 	0.1717	0.5791	0.1937	0.19
Mof_H 	H 	0.1295	0.5618	0.1724	0.175
Mof_H 	H 	0.189	0.5351	0.1742	0.178
Mof_C 	C 	0.152	0.6862	0.183	0.346
Mof_C 	C 	0.1065	0.7575	0.20243	-0.055
Mof_H 	H 	0.1	0.734	0.2167	-0.022
Mof_H 	H 	0.1383	0.7802	0.2064	-0.073
Mof_C 	C 	0.0555	0.7906	0.19763	0.029
Mof_H 	H 	0.0517	0.8173	0.2108	-0.12
Mof_H 	H 	0.0222	0.7683	0.1979	-0.083
Mof_C 	C 	0.03267	0.8598	0.16966	0.396
Mof_C 	C 	0.0218	0.9324	0.13791	0.28
Mof_C 	C 	0.0427	0.9383	0.11143	-0.566
Mof_H 	H 	0.0828	0.9345	0.1112	0.187
Mof_H 	H 	0.0259	0.9114	0.1009	0.142
Mof_H 	H 	0.0326	0.9728	0.1051	0.162
Mof_C 	C 	0.9587	0.9373	0.13808	-0.244
Mof_H 	H 	0.9427	0.9108	0.1271	-0.031
Mof_H 	H 	0.945	0.9322	0.155	-0.063
Mof_H 	H 	0.9481	0.972	0.1322	-0.011
Mof_C 	C 	0.0469	0.9746	0.1543	-0.384
Mof_H 	H 	0.0871	0.971	0.1544	0.095
Mof_H 	H 	0.0369	0.0089	0.1478	0.083
Mof_H 	H 	0.0328	0.971	0.1713	0.049
Mof_Zn	Zn	0.10421	0.81104	0.3192	1.164
Mof_O 	O 	0.21168	0.70776	0.28283	-0.723
Mof_O 	O 	0.01759	0.89959	0.26633	-0.857
Mof_O 	O 	0.0201	0.71461	0.36983	-0.728
Mof_O 	O 	0.19737	0.92326	0.35662	-0.608
Mof_N 	N 	0.14522	0.76608	0.29545	-0.374
Mof_N 	N 	0.07108	0.84345	0.28946	-0.372
Mof_N 	N 	0.07361	0.77401	0.34849	-0.344
Mof_N 	N 	0.13616	0.85983	0.34405	-0.354
Mof_N 	N 	0.1917	0.71782	0.324	-0.317
Mof_H 	H 	0.1712	0.7346	0.3348	0.058
Mof_N 	N 	0.99969	0.88743	0.30769	-0.337
Mof_H 	H 	0.0022	0.8648	0.3199	0.088
Mof_N 	N 	0.02935	0.70936	0.3273	-0.312
Mof_H 	H 	0.0324	0.7287	0.3139	0.06
Mof_N 	N 	0.15904	0.92585	0.31772	-0.326
Mof_H 	H 	0.1412	0.9076	0.3065	0.074
Mof_C 	C 	0.2215	0.6806	0.36226	-0.527
Mof_H 	H 	0.2296	0.7154	0.3688	0.084
Mof_H 	H 	0.1831	0.6716	0.3659	0.116
Mof_H 	H 	0.246	0.6551	0.3702	0.114
Mof_C 	C 	0.2307	0.6799	0.33413	0.381
Mof_C 	C 	0.2897	0.6964	0.32816	-0.465
Mof_H 	H 	0.2941	0.6997	0.3101	0.062
Mof_H 	H 	0.2976	0.7299	0.3361	0.046
Mof_H 	H 	0.3154	0.67	0.3344	0.097
Mof_C 	C 	0.2203	0.6259	0.32436	-0.635
Mof_H 	H 	0.2273	0.6251	0.3064	0.199
Mof_H 	H 	0.245	0.6012	0.3327	0.168
Mof_H 	H 	0.182	0.6161	0.3276	0.218
Mof_C 	C 	0.1837	0.73	0.29941	0.369
Mof_C 	C 	0.1311	0.7791	0.27001	0.014
Mof_H 	H 	0.1649	0.7782	0.2597	-0.133
Mof_H 	H 	0.1055	0.7524	0.2634	-0.051
Mof_C 	C 	0.1051	0.8313	0.26778	-0.044
Mof_H 	H 	0.082	0.8322	0.2526	-0.051
Mof_H 	H 	0.1342	0.858	0.266	-0.038
Mof_C 	C 	0.0298	0.8771	0.28636	0.411
Mof_C 	C 	0.9639	0.933	0.31155	0.386
Mof_C 	C 	0.9502	0.9338	0.33898	-0.757
Mof_H 	H 	0.9842	0.9368	0.3487	0.241
Mof_H 	H 	0.9263	0.9637	0.3426	0.215
Mof_H 	H 	0.9311	0.9015	0.3435	0.283
Mof_C 	C 	0.9107	0.9281	0.29636	-0.36
Mof_H 	H 	0.8901	0.8974	0.3019	0.047
Mof_H 	H 	0.8881	0.9594	0.2988	0.061
Mof_H 	H 	0.9198	0.9245	0.2787	-0.065
Mof_C 	C 	0.9931	0.9827	0.30447	-0.513
Mof_H 	H 	0.0277	0.9855	0.3138	0.134
Mof_H 	H 	0.001	0.9825	0.2866	0.058
Mof_H 	H 	0.9695	0.0126	0.3084	0.102
Mof_C 	C 	0.0139	0.6456	0.29628	-0.596
Mof_H 	H 	0.9872	0.6687	0.2882	0.128
Mof_H 	H 	0.0509	0.6532	0.29	0.198
Mof_H 	H 	0.0045	0.6093	0.2927	0.225
Mof_C 	C 	0.0124	0.6545	0.32422	0.337
Mof_C 	C 	0.9536	0.6457	0.33349	-0.322
Mof_H 	H 	0.9283	0.6687	0.3245	0.023
Mof_H 	H 	0.9431	0.6093	0.3306	0.062
Mof_H 	H 	0.9517	0.6533	0.3513	-0.049
Mof_C 	C 	0.0516	0.6182	0.33747	-0.45
Mof_H 	H 	0.0497	0.6245	0.3554	0.008
Mof_H 	H 	0.0412	0.582	0.334	0.156
Mof_H 	H 	0.0892	0.6244	0.3316	0.164
Mof_C 	C 	0.04077	0.7325	0.35023	0.417
Mof_C 	C 	0.0842	0.8035	0.37117	-0.091
Mof_H 	H 	0.0533	0.8277	0.3744	0.128
Mof_H 	H 	0.0874	0.7795	0.3855	0.021
Mof_C 	C 	0.13778	0.83435	0.36813	0.008
Mof_H 	H 	0.1698	0.8106	0.3691	-0.136
Mof_H 	H 	0.1412	0.8606	0.3815	-0.071
Mof_C 	C 	0.16567	0.90323	0.34074	0.296
Mof_C 	C 	0.1789	0.9775	0.31009	0.532
Mof_C 	C 	0.1555	0.9862	0.28409	-0.738
Mof_H 	H 	0.1152	0.9837	0.2847	0.197
Mof_H 	H 	0.1661	0.0208	0.2781	0.222
Mof_H 	H 	0.17	0.9596	0.2728	0.215
Mof_C 	C 	0.2415	0.9786	0.30917	-0.732
Mof_H 	H 	0.2563	0.9682	0.3254	0.145
Mof_H 	H 	0.2545	0.9544	0.2964	0.206
Mof_H 	H 	0.254	0.0139	0.3052	0.291
Mof_C 	C 	0.1578	0.02	0.32746	-0.77
Mof_H 	H 	0.1178	0.0171	0.3291	0.214
Mof_H 	H 	0.1749	0.0159	0.3438	0.225
Mof_H 	H 	0.1673	0.0542	0.3206	0.206
Mof_Zn	Zn	0.1346	0.76566	0.48446	1.166
Mof_O 	O 	0.04054	0.65243	0.44718	-0.74
Mof_O 	O 	0.22199	0.8585	0.43385	-0.636
Mof_O 	O 	0.22718	0.82397	0.03449	-0.715
Mof_O 	O 	0.04557	0.61878	0.02173	-0.726
Mof_N 	N 	0.09767	0.71842	0.46052	-0.366
Mof_N 	N 	0.17106	0.79683	0.455	-0.348
Mof_N 	N 	0.16878	0.76748	0.01391	-0.337
Mof_N 	N 	0.10509	0.68225	0.00852	-0.363
Mof_N 	N 	0.05013	0.66926	0.48869	-0.324
Mof_H 	H 	0.0714	0.6841	0.4999	0.08
Mof_N 	N 	0.23829	0.84211	0.47522	-0.318
Mof_H 	H 	0.2429	0.8155	0.4853	0.052
Mof_N 	N 	0.20126	0.8404	0.99424	-0.297
Mof_H 	H 	0.1926	0.825	0.9802	0.053
Mof_N 	N 	0.06577	0.62782	0.98037	-0.323
Mof_H 	H 	0.0808	0.6481	0.9691	0.072
Mof_C 	C 	0.0077	0.641	0.52629	-0.659
Mof_H 	H 	0.0009	0.6773	0.5311	0.147
Mof_H 	H 	0.9794	0.6186	0.5337	0.156
Mof_H 	H 	0.0441	0.6303	0.5323	0.179
Mof_C 	C 	0.0056	0.6362	0.49797	0.482
Mof_C 	C 	0.0148	0.5798	0.49074	-0.661
Mof_H 	H 	0.0178	0.5771	0.4726	0.169
Mof_H 	H 	0.049	0.5671	0.4984	0.177
Mof_H 	H 	0.9838	0.5586	0.4965	0.17
Mof_C 	C 	0.95	0.6545	0.48841	-0.657
Mof_H 	H 	0.9449	0.6914	0.4926	0.201
Mof_H 	H 	0.9486	0.6503	0.4703	0.098
Mof_H 	H 	0.9207	0.6338	0.4961	0.148
Mof_C 	C 	0.06195	0.6795	0.46406	0.397
Mof_C 	C 	0.11865	0.72684	0.43537	0.037
Mof_H 	H 	0.1482	0.7013	0.4318	-0.062
Mof_H 	H 	0.0886	0.7212	0.4232	-0.134
Mof_C 	C 	0.14125	0.78192	0.43249	-0.073
Mof_H 	H 	0.1106	0.8065	0.4296	-0.003
Mof_H 	H 	0.1663	0.7834	0.418	-0.029
Mof_C 	C 	0.20919	0.83376	0.45319	0.331
Mof_C 	C 	0.2616	0.89241	0.48266	0.438
Mof_C 	C 	0.2789	0.8862	0.50974	-0.662
Mof_H 	H 	0.3061	0.8581	0.5111	0.145
Mof_H 	H 	0.2952	0.9188	0.5157	0.18
Mof_H 	H 	0.2466	0.8776	0.5198	0.189
Mof_C 	C 	0.3117	0.9066	0.46718	-0.536
Mof_H 	H 	0.3398	0.8795	0.469	0.1
Mof_H 	H 	0.301	0.9094	0.4497	0.066
Mof_H 	H 	0.3266	0.94	0.4729	0.124
Mof_C 	C 	0.2172	0.9347	0.48078	-0.695
Mof_H 	H 	0.1852	0.9246	0.4907	0.2
Mof_H 	H 	0.232	0.9677	0.4871	0.195
Mof_H 	H 	0.2062	0.939	0.4634	0.204
Mof_C 	C 	0.2022	0.9138	0.96702	-0.522
Mof_H 	H 	0.2243	0.8939	0.9551	0.126
Mof_H 	H 	0.2106	0.951	0.9654	0.133
Mof_H 	H 	0.163	0.908	0.9637	0.133
Mof_C 	C 	0.2158	0.8959	0.99327	0.273
Mof_C 	C 	0.2781	0.9024	0.99813	-0.192
Mof_H 	H 	0.2868	0.8902	0.0149	-0.211
Mof_H 	H 	0.2881	0.9392	0.9966	0.02
Mof_H 	H 	0.2988	0.8818	0.986	-0.071
Mof_C 	C 	0.1828	0.9275	0.01229	-0.503
Mof_H 	H 	0.1908	0.9147	0.0291	0.122
Mof_H 	H 	0.1434	0.9238	0.0089	0.142
Mof_H 	H 	0.1932	0.9643	0.0111	0.132
Mof_C 	C 	0.20009	0.8104	0.01578	0.305
Mof_C 	C 	0.1657	0.7325	0.03515	-0.09
Mof_H 	H 	0.1672	0.7527	0.0508	0.023
Mof_H 	H 	0.1973	0.708	0.0349	0.008
Mof_C 	C 	0.1121	0.7024	0.03368	0.015
Mof_H 	H 	0.1126	0.6732	0.0457	-0.077
Mof_H 	H 	0.0809	0.7256	0.0379	-0.099
Mof_C 	C 	0.0714	0.6425	0.00502	0.373
Mof_C 	C 	0.0366	0.581	0.97161	0.529
Mof_C 	C 	0.0464	0.5795	0.94349	-0.837
Mof_H 	H 	0.0313	0.6111	0.9359	0.309
Mof_H 	H 	0.0281	0.5488	0.9364	0.261
Mof_H 	H 	0.086	0.5776	0.9402	0.251
Mof_C 	C 	0.9745	0.5851	0.97661	-0.662
Mof_H 	H 	0.9681	0.5881	0.9945	0.115
Mof_H 	H 	0.9559	0.554	0.9703	0.153
Mof_H 	H 	0.9598	0.6161	0.9682	0.169
Mof_C 	C 	0.0595	0.5318	0.98341	-0.676
Mof_H 	H 	0.0554	0.5338	0.0015	0.176
Mof_H 	H 	0.0986	0.5283	0.9792	0.186
Mof_H 	H 	0.0393	0.5014	0.9772	0.149
Mof_O 	O 	0.2788	0.5911	0.2404	-0.497
Mof_N 	N 	0.3539	0.549	0.2279	-0.215
Mof_C 	C 	0.2997	0.5516	0.2309	0.134
Mof_C 	C 	0.2652	0.5028	0.2279	1.137
Mof_H 	H 	0.2635	0.4842	0.2438	-0.398
Mof_H 	H 	0.2278	0.5105	0.2221	-0.172
Mof_H 	H 	0.2841	0.4811	0.2155	-0.853
Mof_C 	C 	0.387	0.5954	0.2325	-0.147
Mof_H 	H 	0.3668	0.6165	0.2446	-0.038
Mof_H 	H 	0.4232	0.5862	0.2394	0.013
Mof_H 	H 	0.392	0.6153	0.2171	-0.025
Mof_C 	C 	0.3849	0.5067	0.2167	-0.069
Mof_H 	H 	0.395	0.5147	0.1994	0
Mof_H 	H 	0.4184	0.5029	0.2267	-0.055
Mof_H 	H 	0.3638	0.4741	0.2172	0.003
Mof_O 	O 	0.2932	0.5977	0.2397	-0.119
Mof_N 	N 	0.3376	0.5287	0.2247	-0.078
Mof_C 	C 	0.3378	0.5755	0.2353	0.256
Mof_C 	C 	0.3893	0.5934	0.2488	-0.037
Mof_H 	H 	0.3898	0.5837	0.2664	-0.048
Mof_H 	H 	0.4187	0.5748	0.24	0.001
Mof_H 	H 	0.3952	0.6311	0.2472	-0.051
Mof_C 	C 	0.2852	0.5078	0.216	-0.066
Mof_H 	H 	0.2578	0.5299	0.2242	-0.456
Mof_H 	H 	0.2797	0.5093	0.1979	0.108
Mof_H 	H 	0.281	0.4717	0.2217	0.515
Mof_C 	C 	0.3806	0.4894	0.2266	0.164
Mof_H 	H 	0.3728	0.4616	0.2386	-0.119
Mof_H 	H 	0.3808	0.4748	0.2097	-0.075
Mof_H 	H 	0.4166	0.5048	0.2303	-0.067
Mof_O 	O 	0.9763	0.0252	0.2373	1.151
Mof_N 	N 	0.8927	0.0611	0.23598	0.895
Mof_C 	C 	0.943	0.0579	0.24535	3.093
Mof_C 	C 	0.9603	0.0962	0.2652	-0.25
Mof_H 	H 	0.9637	0.1311	0.258	0.033
Mof_H 	H 	0.933	0.0968	0.2786	-0.347
Mof_H 	H 	0.9961	0.0853	0.272	0.119
Mof_C 	C 	0.8753	0.0245	0.2168	5.799
Mof_H 	H 	0.8617	0.9925	0.2247	-0.904
Mof_H 	H 	0.8457	0.0404	0.207	-0.785
Mof_H 	H 	0.9064	0.0162	0.2059	-6.966
Mof_C 	C 	0.848	0.0939	0.2449	0.311
Mof_H 	H 	0.8574	0.1072	0.2615	-0.009
Mof_H 	H 	0.8443	0.1231	0.2333	-0.088
Mof_H 	H 	0.8131	0.0747	0.2458	0.071
Mof_O 	O 	0.9665	0.0218	0.233	-1.553
Mof_N 	N 	0.9054	0.0802	0.247	-0.962
Mof_C 	C 	0.92	0.0419	0.2319	-3.846
Mof_C 	C 	0.8831	0.0296	0.2099	3.881
Mof_H 	H 	0.8471	0.0184	0.2162	-3.435
Mof_H 	H 	0.8785	0.0602	0.1992	-1.143
Mof_H 	H 	0.8998	0.0012	0.2003	3.871
Mof_C 	C 	0.9437	0.0992	0.2658	-0.549
Mof_H 	H 	0.9446	0.1374	0.2653	0.213
Mof_H 	H 	0.932	0.0875	0.2823	0.527
Mof_H 	H 	0.9806	0.0855	0.2622	-0.234
Mof_C 	C 	0.8585	0.1148	0.2434	0.043
Mof_H 	H 	0.826	0.0936	0.2397	-0.288
Mof_H 	H 	0.852	0.1349	0.2586	-0.191
Mof_H 	H 	0.8654	0.1388	0.2295	0.004
Mof_O 	O 	0.8882	0.6896	0.4024	0.858
Mof_N 	N 	0.7978	0.7062	0.40213	0.717
Mof_C 	C 	0.8479	0.7115	0.39277	3.061
Mof_C 	C 	0.8551	0.7407	0.3685	0.219
Mof_H 	H 	0.8361	0.7205	0.3557	-1.819
Mof_H 	H 	0.8387	0.7755	0.3696	-3.665
Mof_H 	H 	0.8942	0.7439	0.3642	-0.535
Mof_C 	C 	0.7899	0.6769	0.4251	0.775
Mof_H 	H 	0.7772	0.7011	0.4379	-0.178
Mof_H 	H 	0.7628	0.6489	0.423	-0.022
Mof_H 	H 	0.8254	0.6619	0.43	0.128
Mof_C 	C 	0.7489	0.735	0.3946	0.224
Mof_H 	H 	0.7273	0.7133	0.3832	0.917
Mof_H 	H 	0.7267	0.7433	0.4093	-0.051
Mof_H 	H 	0.7595	0.7674	0.3862	-0.476
Mof_O 	O 	0.8834	0.6913	0.40933	-1.682
Mof_N 	N 	0.8111	0.7178	0.38681	-0.85
Mof_C 	C 	0.833	0.6986	0.40741	-2.724
Mof_C 	C 	0.7965	0.6913	0.43001	0.574
Mof_H 	H 	0.7928	0.7243	0.439	-0.483
Mof_H 	H 	0.7601	0.6796	0.4245	-0.472
Mof_H 	H 	0.8127	0.665	0.441	-0.464
Mof_C 	C 	0.8465	0.7306	0.36581	-2.392
Mof_H 	H 	0.8814	0.7117	0.3675	0.571
Mof_H 	H 	0.8288	0.7211	0.3501	2.509
Mof_H 	H 	0.8537	0.7682	0.366	4.592
Mof_C 	C 	0.7552	0.7375	0.38386	0.313
Mof_H 	H 	0.7524	0.7714	0.3922	0.374
Mof_H 	H 	0.7468	0.7415	0.3661	-0.133
Mof_H 	H 	0.729	0.7131	0.3914	-1.111
Mof_O 	O 	0.94186	0.5705	0.40313	-0.735
Mof_N 	N 	0.8726	0.528	0.42166	-0.168
Mof_C 	C 	0.8931	0.5557	0.40311	0.273
Mof_C 	C 	0.8563	0.5682	0.3812	-0.05
Mof_H 	H 	0.8781	0.5852	0.3682	-0.083
Mof_H 	H 	0.8415	0.5353	0.3748	-0.41
Mof_H 	H 	0.8259	0.591	0.3861	0.031
Mof_C 	C 	0.906	0.5164	0.44346	-0.593
Mof_H 	H 	0.8858	0.5261	0.4585	0.327
Mof_H 	H 	0.9146	0.4791	0.444	0.751
Mof_H 	H 	0.9402	0.5365	0.4425	0.136
Mof_C 	C 	0.8184	0.5037	0.4221	-0.063
Mof_H 	H 	0.8177	0.4729	0.4114	0.037
Mof_H 	H 	0.8098	0.4935	0.4392	0.018
Mof_H 	H 	0.7909	0.5289	0.4163	0.034
Mof_O 	O 	0.9454	0.5662	0.4136	-0.067
Mof_N 	N 	0.8583	0.5395	0.4088	-0.152
Mof_C 	C 	0.9055	0.5404	0.4212	0.36
Mof_C 	C 	0.9134	0.5029	0.4427	-0.132
Mof_H 	H 	0.9518	0.5031	0.4483	-0.083
Mof_H 	H 	0.8897	0.5167	0.4559	-0.142
Mof_H 	H 	0.9023	0.4671	0.4388	-0.508
Mof_C 	C 	0.8533	0.567	0.3853	-0.215
Mof_H 	H 	0.8835	0.5923	0.3841	0.009
Mof_H 	H 	0.8544	0.5437	0.3708	0.496
Mof_H 	H 	0.818	0.5856	0.3855	0.057
Mof_C 	C 	0.8089	0.5108	0.4156	0.026
Mof_H 	H 	0.7946	0.5221	0.4318	0.006
Mof_H 	H 	0.7805	0.5156	0.4029	-0.007
Mof_H 	H 	0.8191	0.4739	0.4165	-0.007
Mof_O 	O 	0.35361	0.8286	0.0834	-4.888
Mof_N 	N 	0.42348	0.7971	0.06085	-7.488
Mof_C 	C 	0.4028	0.8153	0.08189	-29.164
Mof_C 	C 	0.4408	0.8238	0.10383	1.674
Mof_H 	H 	0.4202	0.8393	0.1176	-1.71
Mof_H 	H 	0.471	0.8472	0.099	1.667
Mof_H 	H 	0.4561	0.7902	0.109	-0.475
Mof_C 	C 	0.3876	0.7886	0.03952	-14.386
Mof_H 	H 	0.3783	0.7516	0.0381	1.751
Mof_H 	H 	0.4064	0.8001	0.0244	-5.595
Mof_H 	H 	0.3538	0.8089	0.0418	2.616
Mof_C 	C 	0.4796	0.7792	0.05671	-1.796
Mof_H 	H 	0.4964	0.7994	0.0432	0.492
Mof_H 	H 	0.4791	0.7422	0.0522	-0.778
Mof_H 	H 	0.5012	0.7839	0.072	0.268
Mof_O 	O 	0.3467	0.6808	0.5831	3.769
Mof_N 	N 	0.4359	0.696	0.5754	11.195
Mof_C 	C 	0.3835	0.6949	0.5685	28.079
Mof_C 	C 	0.3683	0.7143	0.5428	-9.541
Mof_H 	H 	0.3799	0.7508	0.5415	4.334
Mof_H 	H 	0.3872	0.6937	0.5301	14.408
Mof_H 	H 	0.3284	0.7119	0.5404	1.157
Mof_C 	C 	0.4514	0.679	0.6003	4.257
Mof_H 	H 	0.4212	0.6579	0.607	2.053
Mof_H 	H 	0.4847	0.6576	0.5991	-3.503
Mof_H 	H 	0.4584	0.7086	0.6114	-0.947
Mof_C 	C 	0.4803	0.7228	0.5625	-0.842
Mof_H 	H 	0.4664	0.7382	0.547	2.366
Mof_H 	H 	0.4949	0.7504	0.5733	0.082
Mof_H 	H 	0.5098	0.6979	0.5586	0.447
Mof_O 	O 	0.3065	0.9628	0.06758	-0.43
Mof_N 	N 	0.3848	0.0041	0.07756	-0.503
Mof_C 	C 	0.3392	0.9993	0.06427	-0.437
Mof_C 	C 	0.3299	0.0367	0.04288	-0.545
Mof_H 	H 	0.3021	0.0224	0.0316	-0.014
Mof_H 	H 	0.3647	0.0413	0.0339	0.213
Mof_H 	H 	0.3173	0.0704	0.0492	0.329
Mof_C 	C 	0.3946	0.9699	0.09869	-0.911
Mof_H 	H 	0.3636	0.9457	0.1004	0.139
Mof_H 	H 	0.3981	0.9907	0.1139	-0.066
Mof_H 	H 	0.4286	0.9501	0.096	0.328
Mof_C 	C 	0.4246	0.0463	0.0756	0.924
Mof_H 	H 	0.4236	0.0583	0.0583	-2.453
Mof_H 	H 	0.4609	0.0312	0.0791	-0.856
Mof_H 	H 	0.4179	0.0757	0.0868	-1.952
Mof_O 	O 	0.3037	0.5337	0.5744	-0.091
Mof_N 	N 	0.3685	0.474	0.5667	0.116
Mof_C 	C 	0.3506	0.5162	0.5784	1.105
Mof_C 	C 	0.3906	0.547	0.5942	-0.455
Mof_H 	H 	0.3897	0.5337	0.6113	0.614
Mof_H 	H 	0.4279	0.5432	0.5875	0.155
Mof_H 	H 	0.3802	0.5839	0.5942	0.537
Mof_C 	C 	0.3308	0.4438	0.5514	-0.293
Mof_H 	H 	0.3017	0.467	0.5454	0.36
Mof_H 	H 	0.3509	0.4292	0.5372	0.072
Mof_H 	H 	0.3144	0.4154	0.5611	-0.087
Mof_C 	C 	0.4216	0.4488	0.5704	0.42
Mof_H 	H 	0.4115	0.4175	0.5798	1.599
Mof_H 	H 	0.4413	0.4386	0.5552	1.774
Mof_H 	H 	0.4455	0.471	0.5806	0.468
Mof_O 	O 	0.9407	0.5584	0.0757	-0.365
Mof_N 	N 	0.8746	0.5074	0.09178	-0.618
Mof_C 	C 	0.8928	0.5415	0.07523	-0.749
Mof_C 	C 	0.8538	0.5598	0.05507	0.064
Mof_H 	H 	0.8736	0.5818	0.0432	-0.246
Mof_H 	H 	0.8234	0.5797	0.0625	-0.115
Mof_H 	H 	0.8389	0.5293	0.0464	-0.048
Mof_C 	C 	0.9116	0.4855	0.1103	-0.391
Mof_H 	H 	0.9465	0.5048	0.1098	0.039
Mof_H 	H 	0.9186	0.4485	0.1071	0.491
Mof_H 	H 	0.8948	0.4894	0.1268	0.138
Mof_C 	C 	0.8206	0.4825	0.09128	0.03
Mof_H 	H 	0.7939	0.5058	0.0833	-0.049
Mof_H 	H 	0.8087	0.475	0.1083	0.18
Mof_H 	H 	0.8229	0.4499	0.0818	-0.025
Mof_O 	O 	0.9445	0.9515	0.579	-0.199
Mof_N 	N 	0.8564	0.9769	0.58081	0.209
Mof_C 	C 	0.9079	0.9781	0.589	1.239
Mof_C 	C 	0.9227	0.015	0.6099	-0.124
Mof_H 	H 	0.9624	0.022	0.61	0.014
Mof_H 	H 	0.9025	0.0477	0.6073	-0.296
Mof_H 	H 	0.9119	0.9998	0.6259	0.011
Mof_C 	C 	0.8417	0.9438	0.5599	-0.008
Mof_H 	H 	0.8741	0.9399	0.5491	0.153
Mof_H 	H 	0.8303	0.9094	0.566	0.059
Mof_H 	H 	0.8115	0.9594	0.5504	0.008
Mof_C 	C 	0.8093	0.003	0.592	0.143
Mof_H 	H 	0.8197	0.0174	0.6082	-0.263
Mof_H 	H 	0.7975	0.0313	0.5809	-0.122
Mof_H 	H 	0.779	0.9782	0.5941	-0.087
_end
