data_functionalizedCrystal
_audit_creation_method	'EQeq! by Chris Wilmer'
_symmetry_space_group_name_H-M	'P1'
_symmetry_Int_Tables_number	1
_symmetry_cell_setting	triclinic
loop_
_symmetry_equiv_pos_as_xyz
  x,y,z
_cell_length_a	5.221
_cell_length_b	12.86
_cell_length_c	14.561
_cell_angle_alpha	64.701
_cell_angle_beta	87.327
_cell_angle_gamma	89.894
loop_
_atom_site_label
_atom_site_type_symbol
_atom_site_fract_x
_atom_site_fract_y
_atom_site_fract_z
_atom_site_charge
Mof_U 	U 	0.16733	0.7163	0.41945	0.04
Mof_P 	P 	0.3575	0.4536	0.4093	0.443
Mof_P 	P 	0.4833	0.9349	0.1859	0.451
Mof_O 	O 	0.302	0.0064	0.1023	-0.168
Mof_O 	O 	0.731	0.9063	0.1416	-0.157
Mof_O 	O 	0.384	0.5829	0.3759	-0.152
Mof_O 	O 	0.451	0.8535	0.4398	-0.357
Mof_P 	P 	0.6779	0.935	0.3761	0.469
Mof_O 	O 	0.609	0.3935	0.4355	-0.199
Mof_O 	O 	0.899	0.8651	0.3649	-0.173
Mof_O 	O 	0.16	0.4025	0.497	-0.145
Mof_C 	C 	0.219	0.4366	0.3015	-0.392
Mof_H 	H 	0.0635	0.4807	0.2835	0.189
Mof_H 	H 	0.3397	0.4676	0.2431	0.177
Mof_Zn	Zn	0.3462	0.8453	0.5761	1.238
Mof_P 	P 	0.1456	0.2887	0.3307	0.461
Mof_O 	O 	0.359	0.8251	0.2611	-0.151
Mof_O 	O 	0.974	0.2407	0.4254	-0.373
Mof_O 	O 	0.385	0.2238	0.333	-0.443
Mof_O 	O 	0.751	0.0108	0.4261	-0.482
Mof_O 	O 	0.978	0.2944	0.2368	-0.237
Mof_C 	C 	0.563	0.0212	0.2496	-0.401
Mof_H 	H 	0.4126	0.0626	0.2558	0.171
Mof_H 	H 	0.6946	0.0773	0.2092	0.179
Mof_U 	U 	0.83267	0.2837	0.58055	0.042
Mof_P 	P 	0.6425	0.5464	0.5907	0.444
Mof_P 	P 	0.5167	0.0651	0.8141	0.45
Mof_O 	O 	0.698	0.9936	0.8977	-0.165
Mof_O 	O 	0.269	0.0937	0.8584	-0.157
Mof_O 	O 	0.616	0.4171	0.6241	-0.152
Mof_O 	O 	0.549	0.1465	0.5602	-0.357
Mof_P 	P 	0.3221	0.065	0.6239	0.467
Mof_O 	O 	0.391	0.6065	0.5645	-0.199
Mof_O 	O 	0.101	0.1349	0.6351	-0.174
Mof_O 	O 	0.84	0.5975	0.503	-0.144
Mof_C 	C 	0.781	0.5634	0.6985	-0.393
Mof_H 	H 	0.9365	0.5193	0.7165	0.19
Mof_H 	H 	0.6603	0.5324	0.7569	0.178
Mof_Zn	Zn	0.6538	0.1547	0.4239	1.238
Mof_P 	P 	0.8544	0.7113	0.6693	0.463
Mof_O 	O 	0.641	0.1749	0.7389	-0.15
Mof_O 	O 	0.026	0.7593	0.5746	-0.375
Mof_O 	O 	0.615	0.7762	0.667	-0.443
Mof_O 	O 	0.249	0.9892	0.5739	-0.481
Mof_O 	O 	0.022	0.7056	0.7632	-0.238
Mof_C 	C 	0.437	0.9788	0.7504	-0.398
Mof_H 	H 	0.5874	0.9374	0.7442	0.171
Mof_H 	H 	0.3054	0.9227	0.7908	0.179
Mof_U 	U 	-0	0	-0	0.016
_end
