data_functionalizedCrystal
_audit_creation_method	'EQeq! by Chris Wilmer'
_symmetry_space_group_name_H-M	'P1'
_symmetry_Int_Tables_number	1
_symmetry_cell_setting	triclinic
loop_
_symmetry_equiv_pos_as_xyz
  x,y,z
_cell_length_a	12.3002
_cell_length_b	14.5232
_cell_length_c	15.986
_cell_angle_alpha	117.017
_cell_angle_beta	104.89
_cell_angle_gamma	90
loop_
_atom_site_label
_atom_site_type_symbol
_atom_site_fract_x
_atom_site_fract_y
_atom_site_fract_z
_atom_site_charge
Mof_Nd	Nd	0.9296	0.89556	0.35592	2.21
Mof_Nd	Nd	0.5704	0.53964	0.64408	2.23
Mof_Nd	Nd	0.0704	0.10444	0.64408	2.209
Mof_Nd	Nd	0.4296	0.46036	0.35592	2.229
Mof_H 	H 	0.0377	0.9637	0.1096	0.03
Mof_H 	H 	0.0964	0.9296	0.9716	0.079
Mof_H 	H 	0.1205	0.6333	0.9226	0.066
Mof_H 	H 	0.0628	0.6706	0.0608	0.017
Mof_H 	H 	0.0711	0.8769	0.6826	0.032
Mof_H 	H 	0.2683	0.668	0.7154	0.05
Mof_H 	H 	0.172	0.6687	0.4562	0.009
Mof_H 	H 	0.112	0.676	0.796	0.034
Mof_H 	H 	0.4623	0.8541	0.8904	0.027
Mof_H 	H 	0.4036	0.958	0.0284	0.08
Mof_H 	H 	0.3795	0.7107	0.0774	0.068
Mof_H 	H 	0.4372	0.6098	0.9392	0.015
Mof_H 	H 	0.4289	0.1943	0.3174	0.029
Mof_H 	H 	0.2317	0.9526	0.2846	0.056
Mof_H 	H 	0.328	0.2125	0.5438	0.01
Mof_H 	H 	0.388	0.88	0.204	0.034
Mof_H 	H 	0.9623	0.0363	0.8904	0.03
Mof_H 	H 	0.9036	0.0704	0.0284	0.079
Mof_H 	H 	0.8795	0.3667	0.0774	0.066
Mof_H 	H 	0.9372	0.3294	0.9392	0.017
Mof_H 	H 	0.9289	0.1231	0.3174	0.032
Mof_H 	H 	0.7317	0.332	0.2846	0.05
Mof_H 	H 	0.828	0.3313	0.5438	0.009
Mof_H 	H 	0.888	0.324	0.204	0.034
Mof_H 	H 	0.5377	0.1459	0.1096	0.027
Mof_H 	H 	0.5964	0.042	0.9716	0.08
Mof_H 	H 	0.6205	0.2893	0.9226	0.068
Mof_H 	H 	0.5628	0.3902	0.0608	0.015
Mof_H 	H 	0.5711	0.8057	0.6826	0.029
Mof_H 	H 	0.7683	0.0474	0.7154	0.056
Mof_H 	H 	0.672	0.7875	0.4562	0.01
Mof_H 	H 	0.612	0.12	0.796	0.034
Mof_C 	C 	0.0016	0.8448	0.1844	0.327
Mof_C 	C 	0.0454	0.8196	0.0984	-0.112
Mof_C 	C 	0.0543	0.8976	0.0718	0.033
Mof_C 	C 	0.0882	0.877	0.9884	-0.122
Mof_C 	C 	0.1091	0.7775	0.9316	0.072
Mof_C 	C 	0.1027	0.6993	0.9594	-0.134
Mof_C 	C 	0.0691	0.7223	0.0426	0.037
Mof_C 	C 	0.1357	0.7472	0.838	-0.02
Mof_C 	C 	0.0504	0.8246	0.4962	0.421
Mof_C 	C 	0.1123	0.7798	0.5592	-0.148
Mof_C 	C 	0.1091	0.82	0.656	-0.022
Mof_C 	C 	0.1632	0.7742	0.7124	0.039
Mof_C 	C 	0.2282	0.6951	0.6758	-0.017
Mof_C 	C 	0.2331	0.6563	0.5794	-0.147
Mof_C 	C 	0.1725	0.6971	0.5214	0.073
Mof_C 	C 	0.3056	0.5721	0.5394	0.473
Mof_C 	C 	0.4984	0.6604	0.8156	0.314
Mof_C 	C 	0.4546	0.7212	0.9016	-0.113
Mof_C 	C 	0.4457	0.8258	0.9282	0.041
Mof_C 	C 	0.4118	0.8886	0.0116	-0.132
Mof_C 	C 	0.3909	0.8459	0.0684	0.076
Mof_C 	C 	0.3973	0.7399	0.0406	-0.141
Mof_C 	C 	0.4309	0.6797	0.9574	0.043
Mof_C 	C 	0.3643	0.9092	0.162	-0.022
Mof_C 	C 	0.4496	0.3284	0.5038	0.422
Mof_C 	C 	0.3877	0.2206	0.4408	-0.148
Mof_C 	C 	0.3909	0.164	0.344	-0.024
Mof_C 	C 	0.3368	0.0618	0.2876	0.042
Mof_C 	C 	0.2718	0.0193	0.3242	-0.027
Mof_C 	C 	0.2669	0.0769	0.4206	-0.142
Mof_C 	C 	0.3275	0.1757	0.4786	0.07
Mof_C 	C 	0.1944	0.0327	0.4606	0.463
Mof_C 	C 	0.9984	0.1552	0.8156	0.327
Mof_C 	C 	0.9546	0.1804	0.9016	-0.112
Mof_C 	C 	0.9457	0.1024	0.9282	0.033
Mof_C 	C 	0.9118	0.123	0.0116	-0.122
Mof_C 	C 	0.8909	0.2225	0.0684	0.072
Mof_C 	C 	0.8973	0.3007	0.0406	-0.134
Mof_C 	C 	0.9309	0.2777	0.9574	0.037
Mof_C 	C 	0.8643	0.2528	0.162	-0.02
Mof_C 	C 	0.9496	0.1754	0.5038	0.421
Mof_C 	C 	0.8877	0.2202	0.4408	-0.148
Mof_C 	C 	0.8909	0.18	0.344	-0.022
Mof_C 	C 	0.8368	0.2258	0.2876	0.039
Mof_C 	C 	0.7718	0.3049	0.3242	-0.017
Mof_C 	C 	0.7669	0.3437	0.4206	-0.147
Mof_C 	C 	0.8275	0.3029	0.4786	0.073
Mof_C 	C 	0.6944	0.4279	0.4606	0.473
Mof_C 	C 	0.5016	0.3396	0.1844	0.314
Mof_C 	C 	0.5454	0.2788	0.0984	-0.113
Mof_C 	C 	0.5543	0.1742	0.0718	0.041
Mof_C 	C 	0.5882	0.1114	0.9884	-0.132
Mof_C 	C 	0.6091	0.1541	0.9316	0.076
Mof_C 	C 	0.6027	0.2601	0.9594	-0.141
Mof_C 	C 	0.5691	0.3203	0.0426	0.043
Mof_C 	C 	0.6357	0.0908	0.838	-0.022
Mof_C 	C 	0.5504	0.6716	0.4962	0.422
Mof_C 	C 	0.6123	0.7794	0.5592	-0.148
Mof_C 	C 	0.6091	0.836	0.656	-0.024
Mof_C 	C 	0.6632	0.9382	0.7124	0.042
Mof_C 	C 	0.7282	0.9807	0.6758	-0.027
Mof_C 	C 	0.7331	0.9231	0.5794	-0.142
Mof_C 	C 	0.6725	0.8243	0.5214	0.07
Mof_C 	C 	0.8056	0.9673	0.5394	0.463
Mof_N 	N 	0.149	0.8133	0.808	-0.113
Mof_N 	N 	0.351	0.0053	0.192	-0.114
Mof_N 	N 	0.851	0.1867	0.192	-0.113
Mof_N 	N 	0.649	0.9947	0.808	-0.114
Mof_O 	O 	0.9966	0.7737	0.211	-0.454
Mof_O 	O 	0.9662	0.9304	0.226	-0.483
Mof_O 	O 	0.0176	0.7671	0.404	-0.493
Mof_O 	O 	0.0301	0.9182	0.536	-0.639
Mof_O 	O 	0.2977	0.5339	0.4488	-0.579
Mof_O 	O 	0.3671	0.5448	0.5978	-0.521
Mof_O 	O 	0.5034	0.5627	0.789	-0.448
Mof_O 	O 	0.5338	0.7044	0.774	-0.475
Mof_O 	O 	0.4824	0.3631	0.596	-0.497
Mof_O 	O 	0.4699	0.3822	0.464	-0.647
Mof_O 	O 	0.2023	0.0851	0.5512	-0.576
Mof_O 	O 	0.1329	0.947	0.4022	-0.511
Mof_O 	O 	0.0034	0.2263	0.789	-0.454
Mof_O 	O 	0.0338	0.0696	0.774	-0.483
Mof_O 	O 	0.9824	0.2329	0.596	-0.493
Mof_O 	O 	0.9699	0.0818	0.464	-0.639
Mof_O 	O 	0.7023	0.4661	0.5512	-0.579
Mof_O 	O 	0.6329	0.4552	0.4022	-0.521
Mof_O 	O 	0.4966	0.4373	0.211	-0.448
Mof_O 	O 	0.4662	0.2956	0.226	-0.475
Mof_O 	O 	0.5176	0.6369	0.404	-0.497
Mof_O 	O 	0.5301	0.6178	0.536	-0.647
Mof_O 	O 	0.7977	0.9149	0.4488	-0.576
Mof_O 	O 	0.8671	0.053	0.5978	-0.511
_end
