data_functionalizedCrystal
_audit_creation_method	'EQeq! by Chris Wilmer'
_symmetry_space_group_name_H-M	'P1'
_symmetry_Int_Tables_number	1
_symmetry_cell_setting	triclinic
loop_
_symmetry_equiv_pos_as_xyz
  x,y,z
_cell_length_a	6.136
_cell_length_b	16.863
_cell_length_c	12.237
_cell_angle_alpha	90
_cell_angle_beta	92.179
_cell_angle_gamma	90
loop_
_atom_site_label
_atom_site_type_symbol
_atom_site_fract_x
_atom_site_fract_y
_atom_site_fract_z
_atom_site_charge
Mof_C 	C 	0.208	0.8946	0.3659	0.394
Mof_C 	C 	0.3042	0.6315	0.1259	0.409
Mof_C 	C 	0.2109	0.7045	0.1779	-0.146
Mof_C 	C 	0.002	0.732	0.176	0.013
Mof_H 	H 	0.8871	0.7075	0.1375	-0.004
Mof_C 	C 	0.9782	0.8016	0.2388	-0.029
Mof_H 	H 	0.8458	0.8276	0.2456	0.014
Mof_C 	C 	0.1684	0.8268	0.2882	-0.13
Mof_O 	O 	0.5091	0.62393	0.1321	-0.448
Mof_O 	O 	0.401	0.9102	0.397	-0.487
Mof_O 	O 	0.0421	0.93134	0.3974	-0.514
Mof_O 	O 	0.1693	0.58391	0.0814	-0.506
Mof_S 	S 	0.38289	0.76487	0.25684	0.028
Mof_Sr	Sr	0.21929	0.48403	0.91179	1.407
Mof_C 	C 	0.292	0.3946	0.1341	0.396
Mof_C 	C 	0.1958	0.1315	0.3741	0.406
Mof_C 	C 	0.2891	0.2045	0.3221	-0.141
Mof_C 	C 	0.498	0.232	0.324	-0.011
Mof_H 	H 	0.6129	0.2075	0.3625	0.007
Mof_C 	C 	0.5218	0.3016	0.2612	-0.007
Mof_H 	H 	0.6542	0.3276	0.2544	0.006
Mof_C 	C 	0.3316	0.3268	0.2118	-0.14
Mof_O 	O 	0.9909	0.12393	0.3679	-0.449
Mof_O 	O 	0.099	0.4102	0.103	-0.486
Mof_O 	O 	0.4579	0.43134	0.1026	-0.515
Mof_O 	O 	0.3307	0.08391	0.4186	-0.508
Mof_S 	S 	0.11711	0.26487	0.24316	0.03
Mof_Sr	Sr	0.28071	0.98403	0.58821	1.413
Mof_C 	C 	0.792	0.1054	0.6341	0.393
Mof_C 	C 	0.6958	0.3685	0.8741	0.408
Mof_C 	C 	0.7891	0.2955	0.8221	-0.147
Mof_C 	C 	0.998	0.268	0.824	0.012
Mof_H 	H 	0.1129	0.2925	0.8625	-0.004
Mof_C 	C 	0.0218	0.1984	0.7612	-0.029
Mof_H 	H 	0.1542	0.1724	0.7544	0.014
Mof_C 	C 	0.8316	0.1732	0.7118	-0.13
Mof_O 	O 	0.4909	0.37607	0.8679	-0.448
Mof_O 	O 	0.599	0.0898	0.603	-0.487
Mof_O 	O 	0.9579	0.06866	0.6026	-0.514
Mof_O 	O 	0.8307	0.41609	0.9186	-0.506
Mof_S 	S 	0.61711	0.23513	0.74316	0.028
Mof_Sr	Sr	0.78071	0.51597	0.08821	1.407
Mof_C 	C 	0.708	0.6054	0.8659	0.396
Mof_C 	C 	0.8042	0.8685	0.6259	0.406
Mof_C 	C 	0.7109	0.7955	0.6779	-0.141
Mof_C 	C 	0.502	0.768	0.676	-0.011
Mof_H 	H 	0.3871	0.7925	0.6375	0.007
Mof_C 	C 	0.4782	0.6984	0.7388	-0.007
Mof_H 	H 	0.3458	0.6724	0.7456	0.006
Mof_C 	C 	0.6684	0.6732	0.7882	-0.14
Mof_O 	O 	0.0091	0.87607	0.6321	-0.449
Mof_O 	O 	0.901	0.5898	0.897	-0.486
Mof_O 	O 	0.5421	0.56866	0.8974	-0.515
Mof_O 	O 	0.6693	0.91609	0.5814	-0.508
Mof_S 	S 	0.88289	0.73513	0.75684	0.03
Mof_Sr	Sr	0.71929	0.01597	0.41179	1.413
_end
