data_functionalizedCrystal
_audit_creation_method	'EQeq! by Chris Wilmer'
_symmetry_space_group_name_H-M	'P1'
_symmetry_Int_Tables_number	1
_symmetry_cell_setting	triclinic
loop_
_symmetry_equiv_pos_as_xyz
  x,y,z
_cell_length_a	10.2235
_cell_length_b	12.9894
_cell_length_c	30.487
_cell_angle_alpha	90
_cell_angle_beta	91.993
_cell_angle_gamma	90
loop_
_atom_site_label
_atom_site_type_symbol
_atom_site_fract_x
_atom_site_fract_y
_atom_site_fract_z
_atom_site_charge
Mof_Cd	Cd	0.22919	0.6195	0.81561	0.55
Mof_Cd	Cd	0.45517	0.47676	0.8702	0.566
Mof_Cd	Cd	0.77081	0.1195	0.68439	0.55
Mof_Cd	Cd	0.54483	0.97676	0.6298	0.566
Mof_Cd	Cd	0.77081	0.3805	0.18439	0.55
Mof_Cd	Cd	0.54483	0.52324	0.1298	0.566
Mof_Cd	Cd	0.22919	0.8805	0.31561	0.55
Mof_Cd	Cd	0.45517	0.02324	0.3702	0.566
Mof_H 	H 	0.1692	0.7958	0.9389	0.04
Mof_H 	H 	0.2822	0.7627	0.0648	0.028
Mof_H 	H 	0.361	0.5413	0.9777	0.021
Mof_H 	H 	0.0788	0.3215	0.7598	-0.006
Mof_H 	H 	0.228	0.1115	0.6788	0.017
Mof_H 	H 	0.4701	0.2858	0.7552	0.023
Mof_H 	H 	0.8308	0.2958	0.5611	0.04
Mof_H 	H 	0.7178	0.2627	0.4352	0.028
Mof_H 	H 	0.639	0.0413	0.5223	0.021
Mof_H 	H 	0.9212	0.8215	0.7402	-0.006
Mof_H 	H 	0.772	0.6115	0.8212	0.017
Mof_H 	H 	0.5299	0.7858	0.7448	0.023
Mof_H 	H 	0.8308	0.2042	0.0611	0.04
Mof_H 	H 	0.7178	0.2373	0.9352	0.028
Mof_H 	H 	0.639	0.4587	0.0223	0.021
Mof_H 	H 	0.9212	0.6785	0.2402	-0.006
Mof_H 	H 	0.772	0.8885	0.3212	0.017
Mof_H 	H 	0.5299	0.7142	0.2448	0.023
Mof_H 	H 	0.1692	0.7042	0.4389	0.04
Mof_H 	H 	0.2822	0.7373	0.5648	0.028
Mof_H 	H 	0.361	0.9587	0.4777	0.021
Mof_H 	H 	0.0788	0.1785	0.2598	-0.006
Mof_H 	H 	0.228	0.3885	0.1788	0.017
Mof_H 	H 	0.4701	0.2142	0.2552	0.023
Mof_C 	C 	0.2724	0.6238	0.90483	0.375
Mof_C 	C 	0.2711	0.6643	0.95162	-0.118
Mof_C 	C 	0.2105	0.7576	0.96113	0.023
Mof_C 	C 	0.2126	0.7924	0.00363	-0.097
Mof_C 	C 	0.277	0.7369	0.03636	0.029
Mof_C 	C 	0.3344	0.6423	0.02702	-0.117
Mof_C 	C 	0.3273	0.6058	0.98417	0.042
Mof_C 	C 	0.143	0.8894	0.01634	0.25
Mof_C 	C 	0.4009	0.5772	0.06184	0.299
Mof_C 	C 	0.2979	0.4024	0.79508	0.36
Mof_C 	C 	0.279	0.3166	0.76135	-0.131
Mof_C 	C 	0.1508	0.2886	0.74836	0.063
Mof_C 	C 	0.1348	0.2082	0.71711	-0.125
Mof_C 	C 	0.2404	0.1632	0.69968	0.068
Mof_C 	C 	0.3695	0.1931	0.71253	-0.142
Mof_C 	C 	0.3864	0.2684	0.74486	0.061
Mof_C 	C 	0.9991	0.1714	0.70327	0.332
Mof_C 	C 	0.4836	0.1445	0.69087	0.342
Mof_C 	C 	0.7276	0.1238	0.59517	0.375
Mof_C 	C 	0.7289	0.1643	0.54838	-0.118
Mof_C 	C 	0.7895	0.2576	0.53887	0.022
Mof_C 	C 	0.7874	0.2924	0.49637	-0.097
Mof_C 	C 	0.723	0.2369	0.46364	0.029
Mof_C 	C 	0.6656	0.1423	0.47298	-0.116
Mof_C 	C 	0.6727	0.1058	0.51583	0.041
Mof_C 	C 	0.857	0.3894	0.48366	0.25
Mof_C 	C 	0.5991	0.0772	0.43816	0.299
Mof_C 	C 	0.7021	0.9024	0.70492	0.36
Mof_C 	C 	0.721	0.8166	0.73865	-0.131
Mof_C 	C 	0.8492	0.7886	0.75164	0.063
Mof_C 	C 	0.8652	0.7082	0.78289	-0.125
Mof_C 	C 	0.7596	0.6632	0.80032	0.068
Mof_C 	C 	0.6305	0.6931	0.78747	-0.142
Mof_C 	C 	0.6136	0.7684	0.75514	0.061
Mof_C 	C 	0.0009	0.6714	0.79673	0.332
Mof_C 	C 	0.5164	0.6445	0.80913	0.342
Mof_C 	C 	0.7276	0.3762	0.09517	0.375
Mof_C 	C 	0.7289	0.3357	0.04838	-0.118
Mof_C 	C 	0.7895	0.2424	0.03887	0.023
Mof_C 	C 	0.7874	0.2076	0.99637	-0.097
Mof_C 	C 	0.723	0.2631	0.96364	0.029
Mof_C 	C 	0.6656	0.3577	0.97298	-0.117
Mof_C 	C 	0.6727	0.3942	0.01583	0.042
Mof_C 	C 	0.857	0.1106	0.98366	0.25
Mof_C 	C 	0.5991	0.4228	0.93816	0.299
Mof_C 	C 	0.7021	0.5976	0.20492	0.36
Mof_C 	C 	0.721	0.6834	0.23865	-0.131
Mof_C 	C 	0.8492	0.7114	0.25164	0.063
Mof_C 	C 	0.8652	0.7918	0.28289	-0.125
Mof_C 	C 	0.7596	0.8368	0.30032	0.068
Mof_C 	C 	0.6305	0.8069	0.28747	-0.142
Mof_C 	C 	0.6136	0.7316	0.25514	0.061
Mof_C 	C 	0.0009	0.8286	0.29673	0.332
Mof_C 	C 	0.5164	0.8555	0.30913	0.342
Mof_C 	C 	0.2724	0.8762	0.40483	0.375
Mof_C 	C 	0.2711	0.8357	0.45162	-0.118
Mof_C 	C 	0.2105	0.7424	0.46113	0.022
Mof_C 	C 	0.2126	0.7076	0.50363	-0.097
Mof_C 	C 	0.277	0.7631	0.53636	0.029
Mof_C 	C 	0.3344	0.8577	0.52702	-0.116
Mof_C 	C 	0.3273	0.8942	0.48417	0.041
Mof_C 	C 	0.143	0.6106	0.51634	0.25
Mof_C 	C 	0.4009	0.9228	0.56184	0.299
Mof_C 	C 	0.2979	0.0976	0.29508	0.36
Mof_C 	C 	0.279	0.1834	0.26135	-0.131
Mof_C 	C 	0.1508	0.2114	0.24836	0.063
Mof_C 	C 	0.1348	0.2918	0.21711	-0.125
Mof_C 	C 	0.2404	0.3368	0.19968	0.068
Mof_C 	C 	0.3695	0.3069	0.21253	-0.142
Mof_C 	C 	0.3864	0.2316	0.24486	0.061
Mof_C 	C 	0.9991	0.3286	0.20327	0.332
Mof_C 	C 	0.4836	0.3555	0.19087	0.342
Mof_O 	O 	0.2453	0.6854	0.87534	-0.338
Mof_O 	O 	0.3029	0.53282	0.89939	-0.359
Mof_O 	O 	0.068	0.9287	0.98608	-0.237
Mof_O 	O 	0.1228	0.8985	0.0581	-0.266
Mof_O 	O 	0.4111	0.4828	0.05653	-0.299
Mof_O 	O 	0.4455	0.6263	0.0953	-0.305
Mof_O 	O 	0.2209	0.47525	0.79327	-0.34
Mof_O 	O 	0.3959	0.39125	0.82098	-0.344
Mof_O 	O 	0.9015	0.2053	0.72118	-0.343
Mof_O 	O 	0.9916	0.1053	0.67311	-0.301
Mof_O 	O 	0.4559	0.0883	0.65849	-0.329
Mof_O 	O 	0.5967	0.16118	0.70731	-0.323
Mof_O 	O 	0.7547	0.1854	0.62466	-0.339
Mof_O 	O 	0.6971	0.03282	0.60061	-0.359
Mof_O 	O 	0.932	0.4287	0.51392	-0.239
Mof_O 	O 	0.8772	0.3985	0.4419	-0.266
Mof_O 	O 	0.5889	0.9828	0.44347	-0.3
Mof_O 	O 	0.5545	0.1263	0.4047	-0.305
Mof_O 	O 	0.7791	0.97525	0.70673	-0.34
Mof_O 	O 	0.6041	0.89125	0.67902	-0.344
Mof_O 	O 	0.0985	0.7053	0.77882	-0.343
Mof_O 	O 	0.0084	0.6053	0.82689	-0.302
Mof_O 	O 	0.5441	0.5883	0.84151	-0.329
Mof_O 	O 	0.4033	0.66118	0.79269	-0.323
Mof_O 	O 	0.7547	0.3146	0.12466	-0.338
Mof_O 	O 	0.6971	0.46718	0.10061	-0.359
Mof_O 	O 	0.932	0.0713	0.01392	-0.237
Mof_O 	O 	0.8772	0.1015	0.9419	-0.266
Mof_O 	O 	0.5889	0.5172	0.94347	-0.299
Mof_O 	O 	0.5545	0.3737	0.9047	-0.305
Mof_O 	O 	0.7791	0.52475	0.20673	-0.34
Mof_O 	O 	0.6041	0.60875	0.17902	-0.344
Mof_O 	O 	0.0985	0.7947	0.27882	-0.343
Mof_O 	O 	0.0084	0.8947	0.32689	-0.301
Mof_O 	O 	0.5441	0.9117	0.34151	-0.329
Mof_O 	O 	0.4033	0.83882	0.29269	-0.323
Mof_O 	O 	0.2453	0.8146	0.37534	-0.339
Mof_O 	O 	0.3029	0.96718	0.39939	-0.359
Mof_O 	O 	0.068	0.5713	0.48608	-0.239
Mof_O 	O 	0.1228	0.6015	0.5581	-0.266
Mof_O 	O 	0.4111	0.0172	0.55653	-0.3
Mof_O 	O 	0.4455	0.8737	0.5953	-0.305
Mof_O 	O 	0.2209	0.02475	0.29327	-0.34
Mof_O 	O 	0.3959	0.10875	0.32098	-0.344
Mof_O 	O 	0.9015	0.2947	0.22118	-0.343
Mof_O 	O 	0.9916	0.3947	0.17311	-0.302
Mof_O 	O 	0.4559	0.4117	0.15849	-0.329
Mof_O 	O 	0.5967	0.33882	0.20731	-0.323
Mof_H 	H 	0.0636	0.0539	0.8795	-0.104
Mof_H 	H 	0.077	0.9401	0.8643	-0.108
Mof_H 	H 	0.027	0.0099	0.7923	0.328
Mof_H 	H 	0.0732	0.1136	0.8142	0.319
Mof_H 	H 	0.2445	0.0287	0.8404	-0.205
Mof_H 	H 	0.2383	0.0699	0.7937	-0.22
Mof_H 	H 	0.412	0.9905	0.8169	0.486
Mof_H 	H 	0.336	0.8861	0.8117	0.472
Mof_H 	H 	0.3545	0.957	0.7707	0.456
Mof_H 	H 	0.9087	0.0437	0.8035	-0.185
Mof_H 	H 	0.7667	0.0106	0.8141	-0.157
Mof_H 	H 	0.8865	0.1892	0.8221	0.359
Mof_H 	H 	0.8118	0.1613	0.8631	0.383
Mof_H 	H 	0.6577	0.246	0.8466	-0.436
Mof_H 	H 	0.6577	0.2176	0.7969	-0.413
Mof_H 	H 	0.6895	0.3862	0.8021	0.714
Mof_H 	H 	0.804	0.3724	0.8371	0.702
Mof_H 	H 	0.8231	0.3389	0.7884	0.702
Mof_H 	H 	0.9165	0.8532	0.8952	-0.456
Mof_H 	H 	0.8518	0.8419	0.8485	-0.455
Mof_H 	H 	0.6959	0.9274	0.9069	0.94
Mof_H 	H 	0.663	0.8475	0.8703	0.966
Mof_H 	H 	0.6301	0.8163	0.9457	-1.121
Mof_H 	H 	0.6523	0.73	0.9119	-1.093
Mof_H 	H 	0.7326	0.6744	0.9729	1.537
Mof_H 	H 	0.8559	0.7034	0.9464	1.513
Mof_H 	H 	0.8083	0.7769	0.9834	1.499
Mof_C 	C 	0.0332	0.0046	0.8575	0.485
Mof_C 	C 	0.0807	0.0393	0.816	-0.966
Mof_C 	C 	0.2172	0.0094	0.8107	0.916
Mof_C 	C 	0.3407	0.9561	0.8017	-1.499
Mof_C 	C 	0.8434	0.0467	0.8258	0.632
Mof_C 	C 	0.8066	0.1566	0.8313	-1.237
Mof_C 	C 	0.7133	0.2397	0.8216	1.562
Mof_C 	C 	0.7617	0.3433	0.8114	-2.282
Mof_C 	C 	0.8501	0.882	0.8753	1.594
Mof_C 	C 	0.7234	0.8621	0.8948	-3.085
Mof_C 	C 	0.6966	0.7847	0.9282	3.846
Mof_C 	C 	0.781	0.73	0.9605	-4.897
Mof_N 	N 	0.8944	0.9884	0.8641	-0.462
Mof_H 	H 	0.9364	0.5539	0.6205	-0.109
Mof_H 	H 	0.923	0.4401	0.6357	-0.116
Mof_H 	H 	0.973	0.5099	0.7077	0.336
Mof_H 	H 	0.9268	0.6136	0.6858	0.327
Mof_H 	H 	0.7555	0.5287	0.6596	-0.212
Mof_H 	H 	0.7617	0.5699	0.7063	-0.227
Mof_H 	H 	0.588	0.4905	0.6831	0.495
Mof_H 	H 	0.664	0.3861	0.6883	0.481
Mof_H 	H 	0.6455	0.457	0.7293	0.465
Mof_H 	H 	0.0913	0.5437	0.6965	-0.187
Mof_H 	H 	0.2333	0.5106	0.6859	-0.158
Mof_H 	H 	0.1135	0.6892	0.6779	0.36
Mof_H 	H 	0.1882	0.6613	0.6369	0.384
Mof_H 	H 	0.3423	0.746	0.6534	-0.438
Mof_H 	H 	0.3423	0.7176	0.7031	-0.415
Mof_H 	H 	0.3105	0.8862	0.6979	0.718
Mof_H 	H 	0.196	0.8724	0.6629	0.706
Mof_H 	H 	0.1769	0.8389	0.7116	0.705
Mof_H 	H 	0.0835	0.3532	0.6048	-0.456
Mof_H 	H 	0.1482	0.3419	0.6515	-0.456
Mof_H 	H 	0.3041	0.4274	0.5931	0.942
Mof_H 	H 	0.337	0.3475	0.6297	0.967
Mof_H 	H 	0.3699	0.3163	0.5543	-1.123
Mof_H 	H 	0.3477	0.23	0.5881	-1.095
Mof_H 	H 	0.2674	0.1744	0.5271	1.539
Mof_H 	H 	0.1441	0.2034	0.5536	1.515
Mof_H 	H 	0.1917	0.2769	0.5166	1.501
Mof_C 	C 	0.9668	0.5046	0.6425	0.505
Mof_C 	C 	0.9193	0.5393	0.684	-0.99
Mof_C 	C 	0.7828	0.5094	0.6893	0.942
Mof_C 	C 	0.6593	0.4561	0.6983	-1.529
Mof_C 	C 	0.1566	0.5467	0.6742	0.634
Mof_C 	C 	0.1934	0.6566	0.6687	-1.242
Mof_C 	C 	0.2867	0.7397	0.6784	1.57
Mof_C 	C 	0.2383	0.8433	0.6886	-2.292
Mof_C 	C 	0.1499	0.382	0.6247	1.598
Mof_C 	C 	0.2766	0.3621	0.6052	-3.091
Mof_C 	C 	0.3034	0.2847	0.5718	3.853
Mof_C 	C 	0.219	0.23	0.5395	-4.905
Mof_N 	N 	0.1056	0.4884	0.6359	-0.464
Mof_H 	H 	0.9364	0.9461	0.1205	-0.104
Mof_H 	H 	0.923	0.0599	0.1357	-0.108
Mof_H 	H 	0.973	0.9901	0.2077	0.328
Mof_H 	H 	0.9268	0.8864	0.1858	0.319
Mof_H 	H 	0.7555	0.9713	0.1596	-0.205
Mof_H 	H 	0.7617	0.9301	0.2063	-0.22
Mof_H 	H 	0.588	0.0095	0.1831	0.486
Mof_H 	H 	0.664	0.1139	0.1883	0.472
Mof_H 	H 	0.6455	0.043	0.2293	0.456
Mof_H 	H 	0.0913	0.9563	0.1965	-0.185
Mof_H 	H 	0.2333	0.9894	0.1859	-0.157
Mof_H 	H 	0.1135	0.8108	0.1779	0.359
Mof_H 	H 	0.1882	0.8387	0.1369	0.383
Mof_H 	H 	0.3423	0.754	0.1534	-0.436
Mof_H 	H 	0.3423	0.7824	0.2031	-0.413
Mof_H 	H 	0.3105	0.6138	0.1979	0.714
Mof_H 	H 	0.196	0.6276	0.1629	0.702
Mof_H 	H 	0.1769	0.6611	0.2116	0.702
Mof_H 	H 	0.0835	0.1468	0.1048	-0.456
Mof_H 	H 	0.1482	0.1581	0.1515	-0.455
Mof_H 	H 	0.3041	0.0726	0.0931	0.94
Mof_H 	H 	0.337	0.1525	0.1297	0.966
Mof_H 	H 	0.3699	0.1837	0.0543	-1.121
Mof_H 	H 	0.3477	0.27	0.0881	-1.093
Mof_H 	H 	0.2674	0.3256	0.0271	1.537
Mof_H 	H 	0.1441	0.2966	0.0536	1.513
Mof_H 	H 	0.1917	0.2231	0.0166	1.499
Mof_C 	C 	0.9668	0.9954	0.1425	0.485
Mof_C 	C 	0.9193	0.9607	0.184	-0.966
Mof_C 	C 	0.7828	0.9906	0.1893	0.916
Mof_C 	C 	0.6593	0.0439	0.1983	-1.499
Mof_C 	C 	0.1566	0.9533	0.1742	0.632
Mof_C 	C 	0.1934	0.8434	0.1687	-1.237
Mof_C 	C 	0.2867	0.7603	0.1784	1.562
Mof_C 	C 	0.2383	0.6567	0.1886	-2.282
Mof_C 	C 	0.1499	0.118	0.1247	1.594
Mof_C 	C 	0.2766	0.1379	0.1052	-3.085
Mof_C 	C 	0.3034	0.2153	0.0718	3.846
Mof_C 	C 	0.219	0.27	0.0395	-4.897
Mof_N 	N 	0.1056	0.0116	0.1359	-0.462
Mof_H 	H 	0.0636	0.4461	0.3795	-0.109
Mof_H 	H 	0.077	0.5599	0.3643	-0.116
Mof_H 	H 	0.027	0.4901	0.2923	0.336
Mof_H 	H 	0.0732	0.3864	0.3142	0.327
Mof_H 	H 	0.2445	0.4713	0.3404	-0.212
Mof_H 	H 	0.2383	0.4301	0.2937	-0.227
Mof_H 	H 	0.412	0.5095	0.3169	0.495
Mof_H 	H 	0.336	0.6139	0.3117	0.481
Mof_H 	H 	0.3545	0.543	0.2707	0.465
Mof_H 	H 	0.9087	0.4563	0.3035	-0.187
Mof_H 	H 	0.7667	0.4894	0.3141	-0.158
Mof_H 	H 	0.8865	0.3108	0.3221	0.36
Mof_H 	H 	0.8118	0.3387	0.3631	0.384
Mof_H 	H 	0.6577	0.254	0.3466	-0.438
Mof_H 	H 	0.6577	0.2824	0.2969	-0.415
Mof_H 	H 	0.6895	0.1138	0.3021	0.718
Mof_H 	H 	0.804	0.1276	0.3371	0.706
Mof_H 	H 	0.8231	0.1611	0.2884	0.705
Mof_H 	H 	0.9165	0.6468	0.3952	-0.456
Mof_H 	H 	0.8518	0.6581	0.3485	-0.456
Mof_H 	H 	0.6959	0.5726	0.4069	0.942
Mof_H 	H 	0.663	0.6525	0.3703	0.967
Mof_H 	H 	0.6301	0.6837	0.4457	-1.123
Mof_H 	H 	0.6523	0.77	0.4119	-1.095
Mof_H 	H 	0.7326	0.8256	0.4729	1.539
Mof_H 	H 	0.8559	0.7966	0.4464	1.515
Mof_H 	H 	0.8083	0.7231	0.4834	1.501
Mof_C 	C 	0.0332	0.4954	0.3575	0.505
Mof_C 	C 	0.0807	0.4607	0.316	-0.99
Mof_C 	C 	0.2172	0.4906	0.3107	0.942
Mof_C 	C 	0.3407	0.5439	0.3017	-1.529
Mof_C 	C 	0.8434	0.4533	0.3258	0.634
Mof_C 	C 	0.8066	0.3434	0.3313	-1.242
Mof_C 	C 	0.7133	0.2603	0.3216	1.57
Mof_C 	C 	0.7617	0.1567	0.3114	-2.292
Mof_C 	C 	0.8501	0.618	0.3753	1.598
Mof_C 	C 	0.7234	0.6379	0.3948	-3.091
Mof_C 	C 	0.6966	0.7153	0.4282	3.853
Mof_C 	C 	0.781	0.77	0.4605	-4.905
Mof_N 	N 	0.8944	0.5116	0.3641	-0.464
_end
