data_functionalizedCrystal
_audit_creation_method	'EQeq! by Chris Wilmer'
_symmetry_space_group_name_H-M	'P1'
_symmetry_Int_Tables_number	1
_symmetry_cell_setting	triclinic
loop_
_symmetry_equiv_pos_as_xyz
  x,y,z
_cell_length_a	15.868
_cell_length_b	15.868
_cell_length_c	21.28
_cell_angle_alpha	85.2714
_cell_angle_beta	85.2714
_cell_angle_gamma	60.6054
loop_
_atom_site_label
_atom_site_type_symbol
_atom_site_fract_x
_atom_site_fract_y
_atom_site_fract_z
_atom_site_charge
Mof_Cu	Cu	0.49006	0.49676	0.31307	0.897
Mof_Cu	Cu	0.94168	0.46144	0.00587	0.895
Mof_Cu	Cu	0.50324	0.50994	0.18693	0.898
Mof_Cu	Cu	0.53856	0.05832	0.49413	0.897
Mof_Cu	Cu	0.50994	0.50324	0.68693	0.898
Mof_Cu	Cu	0.05832	0.53856	0.99413	0.896
Mof_Cu	Cu	0.49676	0.49006	0.81307	0.898
Mof_Cu	Cu	0.46144	0.94168	0.50587	0.897
Mof_H 	H 	0.4009	0.8135	0.1595	-0.009
Mof_H 	H 	0.3589	0.9745	0.1545	0.139
Mof_H 	H 	0.4142	0.9542	0.3377	0.161
Mof_H 	H 	0.4526	0.793	0.3442	-0.007
Mof_H 	H 	0.0933	0.2339	0.1463	0.005
Mof_H 	H 	0.2021	0.1017	0.2076	0.126
Mof_H 	H 	0.3815	0.2163	0.1969	0.135
Mof_H 	H 	0.2716	0.3466	0.1327	0.007
Mof_H 	H 	0.7165	0.6645	0.1349	0.005
Mof_H 	H 	0.6017	0.7955	0.1903	0.138
Mof_H 	H 	0.7737	0.9181	0.1658	0.125
Mof_H 	H 	0.8881	0.7851	0.1093	-0
Mof_H 	H 	0.5962	0.2126	0.1352	-0.013
Mof_H 	H 	0.6182	0.06	0.1269	0.139
Mof_H 	H 	0.5629	0.0411	0.314	0.156
Mof_H 	H 	0.536	0.199	0.3219	-0.001
Mof_H 	H 	0.1865	0.5991	0.3405	-0.01
Mof_H 	H 	0.0255	0.6411	0.3455	0.139
Mof_H 	H 	0.0458	0.5858	0.1623	0.162
Mof_H 	H 	0.207	0.5474	0.1558	-0.007
Mof_H 	H 	0.7661	0.9067	0.3537	0.004
Mof_H 	H 	0.8983	0.7979	0.2924	0.125
Mof_H 	H 	0.7837	0.6185	0.3031	0.135
Mof_H 	H 	0.6534	0.7284	0.3673	0.007
Mof_H 	H 	0.3355	0.2835	0.3651	0.005
Mof_H 	H 	0.2045	0.3983	0.3097	0.138
Mof_H 	H 	0.0819	0.2263	0.3342	0.125
Mof_H 	H 	0.2149	0.1119	0.3907	0
Mof_H 	H 	0.7874	0.4038	0.3648	-0.013
Mof_H 	H 	0.94	0.3818	0.3731	0.139
Mof_H 	H 	0.9589	0.4371	0.186	0.155
Mof_H 	H 	0.801	0.464	0.1781	-0.001
Mof_H 	H 	0.5991	0.1865	0.8405	-0.009
Mof_H 	H 	0.6411	0.0255	0.8455	0.139
Mof_H 	H 	0.5858	0.0458	0.6623	0.161
Mof_H 	H 	0.5474	0.207	0.6558	-0.007
Mof_H 	H 	0.9067	0.7661	0.8537	0.005
Mof_H 	H 	0.7979	0.8983	0.7924	0.126
Mof_H 	H 	0.6185	0.7837	0.8031	0.135
Mof_H 	H 	0.7284	0.6534	0.8673	0.007
Mof_H 	H 	0.2835	0.3355	0.8651	0.005
Mof_H 	H 	0.3983	0.2045	0.8097	0.138
Mof_H 	H 	0.2263	0.0819	0.8342	0.125
Mof_H 	H 	0.1119	0.2149	0.8907	-0
Mof_H 	H 	0.4038	0.7874	0.8648	-0.013
Mof_H 	H 	0.3818	0.94	0.8731	0.139
Mof_H 	H 	0.4371	0.9589	0.686	0.156
Mof_H 	H 	0.464	0.801	0.6781	-0.001
Mof_H 	H 	0.8135	0.4009	0.6595	-0.01
Mof_H 	H 	0.9745	0.3589	0.6545	0.139
Mof_H 	H 	0.9542	0.4142	0.8377	0.162
Mof_H 	H 	0.793	0.4526	0.8442	-0.007
Mof_H 	H 	0.2339	0.0933	0.6463	0.004
Mof_H 	H 	0.1017	0.2021	0.7076	0.125
Mof_H 	H 	0.2163	0.3815	0.6969	0.135
Mof_H 	H 	0.3466	0.2716	0.6327	0.007
Mof_H 	H 	0.6645	0.7165	0.6349	0.005
Mof_H 	H 	0.7955	0.6017	0.6903	0.138
Mof_H 	H 	0.9181	0.7737	0.6658	0.125
Mof_H 	H 	0.7851	0.8881	0.6093	0
Mof_H 	H 	0.2126	0.5962	0.6352	-0.013
Mof_H 	H 	0.06	0.6182	0.6269	0.139
Mof_H 	H 	0.0411	0.5629	0.814	0.155
Mof_H 	H 	0.199	0.536	0.8219	-0.001
Mof_C 	C 	0.4503	0.6819	0.2549	0.374
Mof_C 	C 	0.4271	0.7847	0.252	-0.193
Mof_C 	C 	0.4018	0.8416	0.1959	0.159
Mof_C 	C 	0.3781	0.9377	0.1922	-0.29
Mof_C 	C 	0.3834	0.9794	0.247	0.319
Mof_C 	C 	0.4107	0.9259	0.3022	-0.291
Mof_C 	C 	0.4334	0.829	0.3063	0.157
Mof_C 	C 	0.1067	0.3811	0.0855	0.355
Mof_C 	C 	0.1733	0.3035	0.1296	-0.162
Mof_C 	C 	0.1519	0.2295	0.1551	0.123
Mof_C 	C 	0.216	0.1506	0.1928	-0.252
Mof_C 	C 	0.3005	0.1479	0.2074	0.267
Mof_C 	C 	0.3243	0.2195	0.1861	-0.236
Mof_C 	C 	0.2575	0.2977	0.147	0.123
Mof_C 	C 	0.8867	0.6289	0.0764	0.36
Mof_C 	C 	0.8144	0.713	0.1163	-0.16
Mof_C 	C 	0.7275	0.7157	0.141	0.13
Mof_C 	C 	0.6586	0.794	0.1741	-0.247
Mof_C 	C 	0.6756	0.8706	0.183	0.275
Mof_C 	C 	0.7619	0.8677	0.1593	-0.254
Mof_C 	C 	0.8308	0.7872	0.1254	0.135
Mof_C 	C 	0.5413	0.3271	0.233	0.385
Mof_C 	C 	0.5605	0.2241	0.2288	-0.192
Mof_C 	C 	0.588	0.1792	0.171	0.164
Mof_C 	C 	0.6033	0.0875	0.166	-0.296
Mof_C 	C 	0.596	0.0354	0.2206	0.307
Mof_C 	C 	0.5695	0.0759	0.2784	-0.274
Mof_C 	C 	0.5526	0.1712	0.2828	0.149
Mof_C 	C 	0.3181	0.5497	0.2451	0.375
Mof_C 	C 	0.2153	0.5729	0.248	-0.193
Mof_C 	C 	0.1584	0.5982	0.3041	0.16
Mof_C 	C 	0.0623	0.6219	0.3078	-0.291
Mof_C 	C 	0.0206	0.6166	0.253	0.322
Mof_C 	C 	0.0741	0.5893	0.1978	-0.293
Mof_C 	C 	0.171	0.5666	0.1937	0.158
Mof_C 	C 	0.6189	0.8933	0.4145	0.355
Mof_C 	C 	0.6965	0.8267	0.3704	-0.162
Mof_C 	C 	0.7705	0.8481	0.3449	0.123
Mof_C 	C 	0.8494	0.784	0.3072	-0.253
Mof_C 	C 	0.8521	0.6995	0.2926	0.267
Mof_C 	C 	0.7805	0.6757	0.3139	-0.236
Mof_C 	C 	0.7023	0.7425	0.353	0.123
Mof_C 	C 	0.3711	0.1133	0.4236	0.36
Mof_C 	C 	0.287	0.1856	0.3837	-0.16
Mof_C 	C 	0.2843	0.2725	0.359	0.13
Mof_C 	C 	0.206	0.3414	0.3259	-0.247
Mof_C 	C 	0.1294	0.3244	0.317	0.275
Mof_C 	C 	0.1323	0.2381	0.3407	-0.254
Mof_C 	C 	0.2128	0.1692	0.3746	0.135
Mof_C 	C 	0.6729	0.4587	0.267	0.385
Mof_C 	C 	0.7759	0.4395	0.2712	-0.192
Mof_C 	C 	0.8208	0.412	0.329	0.163
Mof_C 	C 	0.9125	0.3967	0.334	-0.295
Mof_C 	C 	0.9646	0.404	0.2794	0.305
Mof_C 	C 	0.9241	0.4305	0.2216	-0.272
Mof_C 	C 	0.8288	0.4474	0.2172	0.148
Mof_C 	C 	0.5497	0.3181	0.7451	0.374
Mof_C 	C 	0.5729	0.2153	0.748	-0.193
Mof_C 	C 	0.5982	0.1584	0.8041	0.159
Mof_C 	C 	0.6219	0.0623	0.8078	-0.29
Mof_C 	C 	0.6166	0.0206	0.753	0.319
Mof_C 	C 	0.5893	0.0741	0.6978	-0.291
Mof_C 	C 	0.5666	0.171	0.6937	0.157
Mof_C 	C 	0.8933	0.6189	0.9145	0.355
Mof_C 	C 	0.8267	0.6965	0.8704	-0.162
Mof_C 	C 	0.8481	0.7705	0.8449	0.123
Mof_C 	C 	0.784	0.8494	0.8072	-0.252
Mof_C 	C 	0.6995	0.8521	0.7926	0.267
Mof_C 	C 	0.6757	0.7805	0.8139	-0.236
Mof_C 	C 	0.7425	0.7023	0.853	0.123
Mof_C 	C 	0.1133	0.3711	0.9236	0.36
Mof_C 	C 	0.1856	0.287	0.8837	-0.16
Mof_C 	C 	0.2725	0.2843	0.859	0.13
Mof_C 	C 	0.3414	0.206	0.8259	-0.247
Mof_C 	C 	0.3244	0.1294	0.817	0.275
Mof_C 	C 	0.2381	0.1323	0.8407	-0.254
Mof_C 	C 	0.1692	0.2128	0.8746	0.135
Mof_C 	C 	0.4587	0.6729	0.767	0.385
Mof_C 	C 	0.4395	0.7759	0.7712	-0.192
Mof_C 	C 	0.412	0.8208	0.829	0.164
Mof_C 	C 	0.3967	0.9125	0.834	-0.296
Mof_C 	C 	0.404	0.9646	0.7794	0.307
Mof_C 	C 	0.4305	0.9241	0.7216	-0.274
Mof_C 	C 	0.4474	0.8288	0.7172	0.149
Mof_C 	C 	0.6819	0.4503	0.7549	0.375
Mof_C 	C 	0.7847	0.4271	0.752	-0.193
Mof_C 	C 	0.8416	0.4018	0.6959	0.16
Mof_C 	C 	0.9377	0.3781	0.6922	-0.291
Mof_C 	C 	0.9794	0.3834	0.747	0.322
Mof_C 	C 	0.9259	0.4107	0.8022	-0.293
Mof_C 	C 	0.829	0.4334	0.8063	0.158
Mof_C 	C 	0.3811	0.1067	0.5855	0.355
Mof_C 	C 	0.3035	0.1733	0.6296	-0.162
Mof_C 	C 	0.2295	0.1519	0.6551	0.123
Mof_C 	C 	0.1506	0.216	0.6928	-0.253
Mof_C 	C 	0.1479	0.3005	0.7074	0.267
Mof_C 	C 	0.2195	0.3243	0.6861	-0.236
Mof_C 	C 	0.2977	0.2575	0.647	0.123
Mof_C 	C 	0.6289	0.8867	0.5764	0.36
Mof_C 	C 	0.713	0.8144	0.6163	-0.16
Mof_C 	C 	0.7157	0.7275	0.641	0.13
Mof_C 	C 	0.794	0.6586	0.6741	-0.247
Mof_C 	C 	0.8706	0.6756	0.683	0.275
Mof_C 	C 	0.8677	0.7619	0.6593	-0.254
Mof_C 	C 	0.7872	0.8308	0.6254	0.135
Mof_C 	C 	0.3271	0.5413	0.733	0.385
Mof_C 	C 	0.2241	0.5605	0.7288	-0.192
Mof_C 	C 	0.1792	0.588	0.671	0.163
Mof_C 	C 	0.0875	0.6033	0.666	-0.295
Mof_C 	C 	0.0354	0.596	0.7206	0.305
Mof_C 	C 	0.0759	0.5695	0.7784	-0.272
Mof_C 	C 	0.1712	0.5526	0.7828	0.148
Mof_O 	O 	0.4652	0.634	0.3064	-0.404
Mof_O 	O 	0.4556	0.6474	0.2003	-0.404
Mof_O 	O 	0.0303	0.3791	0.0717	-0.405
Mof_O 	O 	0.1305	0.4441	0.0626	-0.399
Mof_O 	O 	0.368	0.0712	0.2478	-0.296
Mof_O 	O 	0.8639	0.5635	0.0671	-0.397
Mof_O 	O 	0.9633	0.6291	0.0565	-0.412
Mof_O 	O 	0.5174	0.3622	0.2896	-0.392
Mof_O 	O 	0.5495	0.3719	0.186	-0.427
Mof_O 	O 	0.6051	0.9443	0.2201	-0.297
Mof_O 	O 	0.366	0.5348	0.1936	-0.404
Mof_O 	O 	0.3526	0.5444	0.2997	-0.404
Mof_O 	O 	0.6209	0.9697	0.4283	-0.407
Mof_O 	O 	0.5559	0.8695	0.4374	-0.4
Mof_O 	O 	0.9288	0.632	0.2522	-0.297
Mof_O 	O 	0.4365	0.1361	0.4329	-0.397
Mof_O 	O 	0.3709	0.0367	0.4435	-0.411
Mof_O 	O 	0.6378	0.4826	0.2104	-0.392
Mof_O 	O 	0.6281	0.4505	0.314	-0.427
Mof_O 	O 	0.0557	0.3949	0.2799	-0.296
Mof_O 	O 	0.5348	0.366	0.6936	-0.404
Mof_O 	O 	0.5444	0.3526	0.7997	-0.404
Mof_O 	O 	0.9697	0.6209	0.9283	-0.405
Mof_O 	O 	0.8695	0.5559	0.9374	-0.399
Mof_O 	O 	0.632	0.9288	0.7522	-0.296
Mof_O 	O 	0.1361	0.4365	0.9329	-0.397
Mof_O 	O 	0.0367	0.3709	0.9435	-0.412
Mof_O 	O 	0.4826	0.6378	0.7104	-0.392
Mof_O 	O 	0.4505	0.6281	0.814	-0.427
Mof_O 	O 	0.3949	0.0557	0.7799	-0.297
Mof_O 	O 	0.634	0.4652	0.8064	-0.404
Mof_O 	O 	0.6474	0.4556	0.7003	-0.404
Mof_O 	O 	0.3791	0.0303	0.5717	-0.407
Mof_O 	O 	0.4441	0.1305	0.5626	-0.4
Mof_O 	O 	0.0712	0.368	0.7478	-0.297
Mof_O 	O 	0.5635	0.8639	0.5671	-0.397
Mof_O 	O 	0.6291	0.9633	0.5565	-0.411
Mof_O 	O 	0.3622	0.5174	0.7896	-0.392
Mof_O 	O 	0.3719	0.5495	0.686	-0.427
Mof_O 	O 	0.9443	0.6051	0.7201	-0.296
_end
