data_functionalizedCrystal
_audit_creation_method	'EQeq! by Chris Wilmer'
_symmetry_space_group_name_H-M	'P1'
_symmetry_Int_Tables_number	1
_symmetry_cell_setting	triclinic
loop_
_symmetry_equiv_pos_as_xyz
  x,y,z
_cell_length_a	17.6171
_cell_length_b	30.0516
_cell_length_c	30.0516
_cell_angle_alpha	85.0713
_cell_angle_beta	72.9555
_cell_angle_gamma	72.9555
loop_
_atom_site_label
_atom_site_type_symbol
_atom_site_fract_x
_atom_site_fract_y
_atom_site_fract_z
_atom_site_charge
Mof_Mn	Mn	0.99483	0.08566	0.8572	1.045
Mof_Mn	Mn	0.12004	0.12121	0.96979	1.001
Mof_Mn	Mn	0.78858	0.00319	0.92527	1.036
Mof_Mn	Mn	0.43769	0.41434	0.6428	1.045
Mof_Mn	Mn	0.71104	0.37879	0.53021	1.002
Mof_Mn	Mn	0.21704	0.49681	0.57473	1.038
Mof_Mn	Mn	0.85203	0.1428	0.58566	1.045
Mof_Mn	Mn	0.08983	0.03021	0.62121	1.002
Mof_Mn	Mn	0.71385	0.07473	0.50319	1.038
Mof_Mn	Mn	0.08049	0.3572	0.91434	1.046
Mof_Mn	Mn	0.24125	0.46979	0.87879	1.002
Mof_Mn	Mn	0.79177	0.42527	0.99681	1.038
Mof_Mn	Mn	0.00517	0.91434	0.1428	1.045
Mof_Mn	Mn	0.87996	0.87879	0.03021	1.001
Mof_Mn	Mn	0.21142	0.99681	0.07473	1.036
Mof_Mn	Mn	0.56231	0.58566	0.3572	1.045
Mof_Mn	Mn	0.28896	0.62121	0.46979	1.003
Mof_Mn	Mn	0.78296	0.50319	0.42527	1.039
Mof_Mn	Mn	0.14797	0.8572	0.41434	1.046
Mof_Mn	Mn	0.91017	0.96979	0.37879	1.003
Mof_Mn	Mn	0.28615	0.92527	0.49681	1.039
Mof_Mn	Mn	0.91951	0.6428	0.08566	1.047
Mof_Mn	Mn	0.75875	0.53021	0.12121	1.003
Mof_Mn	Mn	0.20823	0.57473	0.00319	1.039
Mof_H 	H 	0.0115	0.2464	0.9048	0.02
Mof_H 	H 	0.948	0.3082	0.8624	0.098
Mof_H 	H 	0.8862	0.2927	0.8085	-0.012
Mof_H 	H 	0.8783	0.2171	0.8007	0.123
Mof_H 	H 	0.1348	0.0106	0.9686	0.079
Mof_H 	H 	0.0991	0.9761	0.9477	0.082
Mof_H 	H 	0.2561	0.9966	0.9074	0.102
Mof_H 	H 	0.2396	0.9468	0.9094	0.097
Mof_H 	H 	0.2131	0.9844	0.8718	0.107
Mof_H 	H 	0.1829	0.0771	0.8393	-0.004
Mof_H 	H 	0.3094	0.0681	0.7799	0.084
Mof_H 	H 	0.1843	0.0768	0.6854	0.096
Mof_H 	H 	0.0622	0.0867	0.7469	0.003
Mof_H 	H 	0.328	0.0533	0.6597	0.07
Mof_H 	H 	0.3764	0.0283	0.6965	0.063
Mof_H 	H 	0.4218	0.0153	0.9683	0.009
Mof_H 	H 	0.5191	0.028	0.8968	0.1
Mof_H 	H 	0.4746	0.0743	0.8417	-0.025
Mof_H 	H 	0.3364	0.1143	0.8511	0.128
Mof_H 	H 	0.0158	0.0791	0.1247	0.065
Mof_H 	H 	0.9858	0.0468	0.098	0.074
Mof_H 	H 	0.8807	0.1069	0.0867	0.098
Mof_H 	H 	0.8785	0.1097	0.1401	0.093
Mof_H 	H 	0.9167	0.1441	0.1025	0.102
Mof_H 	H 	0.9596	0.0138	0.75	0.01
Mof_H 	H 	0.9316	0.9674	0.701	0.099
Mof_H 	H 	0.8405	0.9242	0.7332	-0.024
Mof_H 	H 	0.7728	0.9259	0.8115	0.118
Mof_H 	H 	0.8859	0.0917	0.9975	0.065
Mof_H 	H 	0.8704	0.1301	0.9585	0.059
Mof_H 	H 	0.7325	0.152	0.9938	0.1
Mof_H 	H 	0.7795	0.1515	0.0321	0.094
Mof_H 	H 	0.7414	0.1098	0.03	0.105
Mof_H 	H 	0.6109	0.0119	0.5711	-0.009
Mof_H 	H 	0.4983	0.0172	0.6358	0.095
Mof_H 	H 	0.4456	0.1527	0.6337	0.099
Mof_H 	H 	0.5576	0.1482	0.5662	-0.014
Mof_H 	H 	0.4019	0.094	0.709	0.074
Mof_H 	H 	0.3426	0.1236	0.6794	0.077
Mof_H 	H 	0.6627	0.2536	0.5952	0.019
Mof_H 	H 	0.6186	0.1918	0.6376	0.098
Mof_H 	H 	0.4874	0.2073	0.6915	-0.012
Mof_H 	H 	0.3961	0.2829	0.6993	0.123
Mof_H 	H 	0.614	0.4894	0.5314	0.078
Mof_H 	H 	0.5229	0.5239	0.5523	0.08
Mof_H 	H 	0.6601	0.5034	0.5926	0.102
Mof_H 	H 	0.5958	0.5532	0.5906	0.098
Mof_H 	H 	0.5693	0.5156	0.6282	0.107
Mof_H 	H 	0.5993	0.4229	0.6607	-0.004
Mof_H 	H 	0.6574	0.4319	0.7201	0.084
Mof_H 	H 	0.4465	0.4232	0.8146	0.096
Mof_H 	H 	0.3958	0.4133	0.7531	0.003
Mof_H 	H 	0.541	0.4467	0.8403	0.07
Mof_H 	H 	0.6012	0.4717	0.8035	0.063
Mof_H 	H 	0.9054	0.4847	0.5317	0.009
Mof_H 	H 	0.9439	0.472	0.6032	0.1
Mof_H 	H 	0.8906	0.4257	0.6583	-0.025
Mof_H 	H 	0.8018	0.3857	0.6489	0.128
Mof_H 	H 	0.7196	0.4209	0.3753	0.066
Mof_H 	H 	0.6306	0.4532	0.402	0.074
Mof_H 	H 	0.5743	0.3931	0.4133	0.097
Mof_H 	H 	0.6283	0.3903	0.3599	0.092
Mof_H 	H 	0.6633	0.3559	0.3975	0.102
Mof_H 	H 	0.2234	0.4862	0.75	0.01
Mof_H 	H 	0.1	0.5326	0.799	0.098
Mof_H 	H 	0.9979	0.5758	0.7668	-0.024
Mof_H 	H 	0.0102	0.5741	0.6885	0.118
Mof_H 	H 	0.4751	0.4083	0.5025	0.064
Mof_H 	H 	0.459	0.3699	0.5415	0.058
Mof_H 	H 	0.3783	0.348	0.5062	0.103
Mof_H 	H 	0.4631	0.3485	0.4679	0.097
Mof_H 	H 	0.3812	0.3902	0.47	0.108
Mof_H 	H 	0.6939	0.4881	0.9289	-0.009
Mof_H 	H 	0.6513	0.4828	0.8642	0.095
Mof_H 	H 	0.732	0.3473	0.8663	0.099
Mof_H 	H 	0.772	0.3518	0.9338	-0.014
Mof_H 	H 	0.7049	0.406	0.791	0.074
Mof_H 	H 	0.6456	0.3764	0.8206	0.077
Mof_H 	H 	0.9163	0.0952	0.7464	0.019
Mof_H 	H 	0.8104	0.1376	0.8082	0.098
Mof_H 	H 	0.6947	0.1915	0.7927	-0.012
Mof_H 	H 	0.679	0.1993	0.7171	0.123
Mof_H 	H 	0.1034	0.0314	0.5106	0.078
Mof_H 	H 	0.0468	0.0523	0.4761	0.08
Mof_H 	H 	0.1635	0.0926	0.4966	0.102
Mof_H 	H 	0.149	0.0906	0.4468	0.098
Mof_H 	H 	0.0849	0.1282	0.4844	0.107
Mof_H 	H 	0.0222	0.1607	0.5771	-0.004
Mof_H 	H 	0.0893	0.2201	0.5681	0.084
Mof_H 	H 	0.8697	0.3146	0.5768	0.096
Mof_H 	H 	0.8091	0.2531	0.5867	0.003
Mof_H 	H 	0.9877	0.3403	0.5533	0.07
Mof_H 	H 	0.0729	0.3035	0.5283	0.063
Mof_H 	H 	0.3901	0.0317	0.5153	0.009
Mof_H 	H 	0.4159	0.1032	0.528	0.1
Mof_H 	H 	0.3163	0.1583	0.5743	-0.025
Mof_H 	H 	0.1875	0.1489	0.6143	0.128
Mof_H 	H 	0.1405	0.8753	0.5791	0.066
Mof_H 	H 	0.0838	0.902	0.5468	0.074
Mof_H 	H 	0.9674	0.9133	0.6069	0.097
Mof_H 	H 	0.0186	0.8599	0.6097	0.092
Mof_H 	H 	0.0192	0.8975	0.6441	0.102
Mof_H 	H 	0.7096	0.25	0.5138	0.011
Mof_H 	H 	0.6326	0.299	0.4674	0.098
Mof_H 	H 	0.5737	0.2668	0.4242	-0.024
Mof_H 	H 	0.5843	0.1885	0.4259	0.118
Mof_H 	H 	0.8834	0.0025	0.5917	0.065
Mof_H 	H 	0.8289	0.0415	0.6301	0.058
Mof_H 	H 	0.7263	0.0062	0.652	0.102
Mof_H 	H 	0.8116	0.9679	0.6515	0.096
Mof_H 	H 	0.7714	0.97	0.6098	0.107
Mof_H 	H 	0.182	0.4289	0.5119	-0.009
Mof_H 	H 	0.1341	0.3642	0.5172	0.095
Mof_H 	H 	0.0793	0.3663	0.6527	0.099
Mof_H 	H 	0.1238	0.4338	0.6482	-0.014
Mof_H 	H 	0.1109	0.291	0.594	0.074
Mof_H 	H 	0.022	0.3206	0.6236	0.078
Mof_H 	H 	0.2579	0.4048	0.7536	0.019
Mof_H 	H 	0.2562	0.3624	0.6918	0.098
Mof_H 	H 	0.1789	0.3085	0.7073	-0.012
Mof_H 	H 	0.0954	0.3007	0.7829	0.123
Mof_H 	H 	0.1454	0.4686	0.9894	0.077
Mof_H 	H 	0.0752	0.4477	0.0239	0.08
Mof_H 	H 	0.2527	0.4074	0.0034	0.103
Mof_H 	H 	0.1864	0.4094	0.0532	0.098
Mof_H 	H 	0.1975	0.3718	0.0156	0.108
Mof_H 	H 	0.26	0.3393	0.9229	-0.004
Mof_H 	H 	0.3775	0.2799	0.9319	0.084
Mof_H 	H 	0.2611	0.1854	0.9232	0.096
Mof_H 	H 	0.1489	0.2469	0.9133	0.003
Mof_H 	H 	0.3813	0.1597	0.9467	0.07
Mof_H 	H 	0.4047	0.1965	0.9717	0.063
Mof_H 	H 	0.4371	0.4683	0.9847	0.009
Mof_H 	H 	0.5471	0.3968	0.972	0.1
Mof_H 	H 	0.5489	0.3417	0.9257	-0.025
Mof_H 	H 	0.4507	0.3511	0.8857	0.128
Mof_H 	H 	0.0949	0.6247	0.9209	0.066
Mof_H 	H 	0.0326	0.598	0.9532	0.075
Mof_H 	H 	0.9876	0.5867	0.8931	0.096
Mof_H 	H 	0.9882	0.6401	0.8903	0.091
Mof_H 	H 	0.0608	0.6025	0.8559	0.1
Mof_H 	H 	0.9734	0.25	0.9862	0.009
Mof_H 	H 	0.899	0.201	0.0326	0.099
Mof_H 	H 	0.7647	0.2332	0.0758	-0.024
Mof_H 	H 	0.6987	0.3115	0.0741	0.118
Mof_H 	H 	0.9776	0.4975	0.9083	0.064
Mof_H 	H 	0.0005	0.4585	0.8699	0.059
Mof_H 	H 	0.8845	0.4938	0.848	0.103
Mof_H 	H 	0.931	0.5321	0.8485	0.096
Mof_H 	H 	0.8512	0.53	0.8902	0.107
Mof_H 	H 	0.6228	0.0711	0.9881	-0.009
Mof_H 	H 	0.5155	0.1358	0.9828	0.095
Mof_H 	H 	0.5983	0.1337	0.8473	0.099
Mof_H 	H 	0.7058	0.0662	0.8518	-0.014
Mof_H 	H 	0.4959	0.209	0.906	0.074
Mof_H 	H 	0.4662	0.1794	0.8764	0.077
Mof_H 	H 	0.9885	0.7536	0.0952	0.02
Mof_H 	H 	0.052	0.6918	0.1376	0.098
Mof_H 	H 	0.1138	0.7073	0.1915	-0.012
Mof_H 	H 	0.1217	0.7829	0.1993	0.123
Mof_H 	H 	0.8652	0.9894	0.0314	0.079
Mof_H 	H 	0.9009	0.0239	0.0523	0.082
Mof_H 	H 	0.7439	0.0034	0.0926	0.102
Mof_H 	H 	0.7604	0.0532	0.0906	0.097
Mof_H 	H 	0.7869	0.0156	0.1282	0.107
Mof_H 	H 	0.8171	0.9229	0.1607	-0.004
Mof_H 	H 	0.6906	0.9319	0.2201	0.084
Mof_H 	H 	0.8157	0.9232	0.3146	0.096
Mof_H 	H 	0.9378	0.9133	0.2531	0.003
Mof_H 	H 	0.672	0.9467	0.3403	0.07
Mof_H 	H 	0.6236	0.9717	0.3035	0.063
Mof_H 	H 	0.5782	0.9847	0.0317	0.009
Mof_H 	H 	0.4809	0.972	0.1032	0.1
Mof_H 	H 	0.5254	0.9257	0.1583	-0.025
Mof_H 	H 	0.6636	0.8857	0.1489	0.128
Mof_H 	H 	0.9842	0.9209	0.8753	0.065
Mof_H 	H 	0.0142	0.9532	0.902	0.074
Mof_H 	H 	0.1193	0.8931	0.9133	0.098
Mof_H 	H 	0.1215	0.8903	0.8599	0.093
Mof_H 	H 	0.0833	0.8559	0.8975	0.102
Mof_H 	H 	0.0404	0.9862	0.25	0.01
Mof_H 	H 	0.0684	0.0326	0.299	0.099
Mof_H 	H 	0.1595	0.0758	0.2668	-0.024
Mof_H 	H 	0.2272	0.0741	0.1885	0.118
Mof_H 	H 	0.1141	0.9083	0.0025	0.065
Mof_H 	H 	0.1296	0.8699	0.0415	0.059
Mof_H 	H 	0.2675	0.848	0.0062	0.1
Mof_H 	H 	0.2205	0.8485	0.9679	0.094
Mof_H 	H 	0.2586	0.8902	0.97	0.105
Mof_H 	H 	0.3891	0.9881	0.4289	-0.009
Mof_H 	H 	0.5017	0.9828	0.3642	0.095
Mof_H 	H 	0.5544	0.8473	0.3663	0.099
Mof_H 	H 	0.4424	0.8518	0.4338	-0.014
Mof_H 	H 	0.5981	0.906	0.291	0.074
Mof_H 	H 	0.6574	0.8764	0.3206	0.077
Mof_H 	H 	0.3373	0.7464	0.4048	0.019
Mof_H 	H 	0.3814	0.8082	0.3624	0.098
Mof_H 	H 	0.5126	0.7927	0.3085	-0.012
Mof_H 	H 	0.6039	0.7171	0.3007	0.123
Mof_H 	H 	0.386	0.5106	0.4686	0.078
Mof_H 	H 	0.4771	0.4761	0.4477	0.08
Mof_H 	H 	0.3399	0.4966	0.4074	0.102
Mof_H 	H 	0.4042	0.4468	0.4094	0.098
Mof_H 	H 	0.4307	0.4844	0.3718	0.107
Mof_H 	H 	0.4007	0.5771	0.3393	-0.004
Mof_H 	H 	0.3426	0.5681	0.2799	0.084
Mof_H 	H 	0.5535	0.5768	0.1854	0.096
Mof_H 	H 	0.6042	0.5867	0.2469	0.003
Mof_H 	H 	0.459	0.5533	0.1597	0.07
Mof_H 	H 	0.3988	0.5283	0.1965	0.063
Mof_H 	H 	0.0946	0.5153	0.4683	0.009
Mof_H 	H 	0.0561	0.528	0.3968	0.1
Mof_H 	H 	0.1094	0.5743	0.3417	-0.025
Mof_H 	H 	0.1982	0.6143	0.3511	0.128
Mof_H 	H 	0.2804	0.5791	0.6247	0.066
Mof_H 	H 	0.3694	0.5468	0.598	0.074
Mof_H 	H 	0.4257	0.6069	0.5867	0.097
Mof_H 	H 	0.3717	0.6097	0.6401	0.092
Mof_H 	H 	0.3367	0.6441	0.6025	0.102
Mof_H 	H 	0.7766	0.5138	0.25	0.01
Mof_H 	H 	0.9	0.4674	0.201	0.098
Mof_H 	H 	0.0021	0.4242	0.2332	-0.024
Mof_H 	H 	0.9898	0.4259	0.3115	0.118
Mof_H 	H 	0.5249	0.5917	0.4975	0.064
Mof_H 	H 	0.541	0.6301	0.4585	0.058
Mof_H 	H 	0.6217	0.652	0.4938	0.103
Mof_H 	H 	0.5369	0.6515	0.5321	0.097
Mof_H 	H 	0.6188	0.6098	0.53	0.108
Mof_H 	H 	0.3061	0.5119	0.0711	-0.009
Mof_H 	H 	0.3487	0.5172	0.1358	0.095
Mof_H 	H 	0.268	0.6527	0.1337	0.099
Mof_H 	H 	0.228	0.6482	0.0662	-0.014
Mof_H 	H 	0.2951	0.594	0.209	0.074
Mof_H 	H 	0.3544	0.6236	0.1794	0.077
Mof_H 	H 	0.0837	0.9048	0.2536	0.019
Mof_H 	H 	0.1896	0.8624	0.1918	0.098
Mof_H 	H 	0.3053	0.8085	0.2073	-0.012
Mof_H 	H 	0.321	0.8007	0.2829	0.123
Mof_H 	H 	0.8966	0.9686	0.4894	0.078
Mof_H 	H 	0.9532	0.9477	0.5239	0.08
Mof_H 	H 	0.8365	0.9074	0.5034	0.102
Mof_H 	H 	0.851	0.9094	0.5532	0.098
Mof_H 	H 	0.9151	0.8718	0.5156	0.107
Mof_H 	H 	0.9778	0.8393	0.4229	-0.004
Mof_H 	H 	0.9107	0.7799	0.4319	0.084
Mof_H 	H 	0.1303	0.6854	0.4232	0.096
Mof_H 	H 	0.1909	0.7469	0.4133	0.003
Mof_H 	H 	0.0123	0.6597	0.4467	0.07
Mof_H 	H 	0.9271	0.6965	0.4717	0.063
Mof_H 	H 	0.6099	0.9683	0.4847	0.009
Mof_H 	H 	0.5841	0.8968	0.472	0.1
Mof_H 	H 	0.6837	0.8417	0.4257	-0.025
Mof_H 	H 	0.8125	0.8511	0.3857	0.128
Mof_H 	H 	0.8595	0.1247	0.4209	0.066
Mof_H 	H 	0.9162	0.098	0.4532	0.074
Mof_H 	H 	0.0326	0.0867	0.3931	0.097
Mof_H 	H 	0.9814	0.1401	0.3903	0.092
Mof_H 	H 	0.9808	0.1025	0.3559	0.102
Mof_H 	H 	0.2904	0.75	0.4862	0.011
Mof_H 	H 	0.3674	0.701	0.5326	0.098
Mof_H 	H 	0.4263	0.7332	0.5758	-0.024
Mof_H 	H 	0.4157	0.8115	0.5741	0.118
Mof_H 	H 	0.1166	0.9975	0.4083	0.065
Mof_H 	H 	0.1711	0.9585	0.3699	0.058
Mof_H 	H 	0.2737	0.9938	0.348	0.102
Mof_H 	H 	0.1884	0.0321	0.3485	0.096
Mof_H 	H 	0.2286	0.03	0.3902	0.107
Mof_H 	H 	0.818	0.5711	0.4881	-0.009
Mof_H 	H 	0.8659	0.6358	0.4828	0.095
Mof_H 	H 	0.9207	0.6337	0.3473	0.099
Mof_H 	H 	0.8762	0.5662	0.3518	-0.014
Mof_H 	H 	0.8891	0.709	0.406	0.074
Mof_H 	H 	0.978	0.6794	0.3764	0.078
Mof_H 	H 	0.7421	0.5952	0.2464	0.019
Mof_H 	H 	0.7438	0.6376	0.3082	0.098
Mof_H 	H 	0.8211	0.6915	0.2927	-0.012
Mof_H 	H 	0.9046	0.6993	0.2171	0.123
Mof_H 	H 	0.8546	0.5314	0.0106	0.077
Mof_H 	H 	0.9248	0.5523	0.9761	0.08
Mof_H 	H 	0.7473	0.5926	0.9966	0.103
Mof_H 	H 	0.8136	0.5906	0.9468	0.098
Mof_H 	H 	0.8025	0.6282	0.9844	0.108
Mof_H 	H 	0.74	0.6607	0.0771	-0.004
Mof_H 	H 	0.6225	0.7201	0.0681	0.084
Mof_H 	H 	0.7389	0.8146	0.0768	0.096
Mof_H 	H 	0.8511	0.7531	0.0867	0.003
Mof_H 	H 	0.6187	0.8403	0.0533	0.07
Mof_H 	H 	0.5953	0.8035	0.0283	0.063
Mof_H 	H 	0.5629	0.5317	0.0153	0.009
Mof_H 	H 	0.4529	0.6032	0.028	0.1
Mof_H 	H 	0.4511	0.6583	0.0743	-0.025
Mof_H 	H 	0.5493	0.6489	0.1143	0.128
Mof_H 	H 	0.9051	0.3753	0.0791	0.066
Mof_H 	H 	0.9674	0.402	0.0468	0.075
Mof_H 	H 	0.0124	0.4133	0.1069	0.096
Mof_H 	H 	0.0118	0.3599	0.1097	0.091
Mof_H 	H 	0.9392	0.3975	0.1441	0.1
Mof_H 	H 	0.0266	0.75	0.0138	0.009
Mof_H 	H 	0.101	0.799	0.9674	0.099
Mof_H 	H 	0.2353	0.7668	0.9242	-0.024
Mof_H 	H 	0.3013	0.6885	0.9259	0.118
Mof_H 	H 	0.0224	0.5025	0.0917	0.064
Mof_H 	H 	0.9995	0.5415	0.1301	0.059
Mof_H 	H 	0.1155	0.5062	0.152	0.103
Mof_H 	H 	0.069	0.4679	0.1515	0.096
Mof_H 	H 	0.1488	0.47	0.1098	0.107
Mof_H 	H 	0.3772	0.9289	0.0119	-0.009
Mof_H 	H 	0.4845	0.8642	0.0172	0.095
Mof_H 	H 	0.4017	0.8663	0.1527	0.099
Mof_H 	H 	0.2942	0.9338	0.1482	-0.014
Mof_H 	H 	0.5041	0.791	0.094	0.074
Mof_H 	H 	0.5338	0.8206	0.1236	0.077
Mof_C 	C 	0.94368	0.18602	0.84682	0.288
Mof_C 	C 	0.98265	0.19521	0.87909	-0.221
Mof_C 	C 	0.9845	0.2404	0.8838	0.107
Mof_C 	C 	0.9474	0.27735	0.85825	-0.173
Mof_C 	C 	0.9098	0.2681	0.8267	0.109
Mof_C 	C 	0.9061	0.2228	0.8214	-0.244
Mof_C 	C 	0.0256	0.15835	0.90685	0.303
Mof_C 	C 	0.08512	0.03967	0.91569	0.243
Mof_C 	C 	0.1292	0.0001	0.9397	-0.178
Mof_C 	C 	0.2181	0.98	0.9036	-0.258
Mof_C 	C 	0.183	0.0771	0.8077	0.098
Mof_C 	C 	0.2599	0.0709	0.7719	-0.178
Mof_C 	C 	0.262	0.0687	0.7261	0.131
Mof_C 	C 	0.1865	0.0761	0.7167	-0.185
Mof_C 	C 	0.1131	0.0825	0.7539	0.106
Mof_C 	C 	0.3396	0.058	0.689	-0.145
Mof_C 	C 	0.295	0.09084	0.91796	0.295
Mof_C 	C 	0.3182	0.06	0.9518	-0.235
Mof_C 	C 	0.4038	0.0356	0.9452	0.108
Mof_C 	C 	0.4617	0.0431	0.9021	-0.201
Mof_C 	C 	0.4351	0.0709	0.8701	0.15
Mof_C 	C 	0.3531	0.0952	0.8754	-0.273
Mof_C 	C 	0.2611	0.05097	0.99523	0.29
Mof_C 	C 	0.05388	0.08547	0.05417	0.226
Mof_C 	C 	0.9928	0.0782	0.0986	-0.149
Mof_C 	C 	0.9102	0.1127	0.1077	-0.248
Mof_C 	C 	0.8269	0.97237	0.83103	0.285
Mof_C 	C 	0.88718	0.99699	0.81065	-0.224
Mof_C 	C 	0.92252	0.99558	0.76318	0.12
Mof_C 	C 	0.9057	0.9683	0.7335	-0.198
Mof_C 	C 	0.8512	0.9432	0.753	0.131
Mof_C 	C 	0.8108	0.9438	0.7996	-0.243
Mof_C 	C 	0.9052	0.02776	0.83884	0.279
Mof_C 	C 	0.84322	0.07128	0.94948	0.228
Mof_C 	C 	0.84691	0.10699	0.97919	-0.136
Mof_C 	C 	0.7686	0.1322	0.0114	-0.258
Mof_C 	C 	0.5764	0.0417	0.5827	0.13
Mof_C 	C 	0.5085	0.0451	0.6211	-0.213
Mof_C 	C 	0.4557	0.0869	0.6387	0.177
Mof_C 	C 	0.4768	0.1232	0.6202	-0.221
Mof_C 	C 	0.5459	0.1204	0.58	0.117
Mof_C 	C 	0.3826	0.093	0.6814	-0.176
Mof_C 	C 	0.47652	0.31398	0.65318	0.288
Mof_C 	C 	0.55695	0.30479	0.62091	-0.221
Mof_C 	C 	0.6087	0.2596	0.6162	0.108
Mof_C 	C 	0.583	0.22265	0.64175	-0.173
Mof_C 	C 	0.5046	0.2319	0.6733	0.109
Mof_C 	C 	0.4503	0.2772	0.6786	-0.244
Mof_C 	C 	0.5908	0.34165	0.59315	0.302
Mof_C 	C 	0.54048	0.46033	0.58431	0.242
Mof_C 	C 	0.569	0.4999	0.5603	-0.175
Mof_C 	C 	0.6017	0.52	0.5964	-0.261
Mof_C 	C 	0.5678	0.4229	0.6923	0.098
Mof_C 	C 	0.6027	0.4291	0.7281	-0.178
Mof_C 	C 	0.5568	0.4313	0.7739	0.131
Mof_C 	C 	0.4793	0.4239	0.7833	-0.185
Mof_C 	C 	0.4495	0.4175	0.7461	0.107
Mof_C 	C 	0.5866	0.442	0.811	-0.145
Mof_C 	C 	0.8038	0.40916	0.58204	0.296
Mof_C 	C 	0.83	0.44	0.5482	-0.236
Mof_C 	C 	0.8846	0.4644	0.5548	0.108
Mof_C 	C 	0.9069	0.4569	0.5979	-0.201
Mof_C 	C 	0.8761	0.4291	0.6299	0.15
Mof_C 	C 	0.8237	0.4048	0.6246	-0.273
Mof_C 	C 	0.8073	0.44903	0.50477	0.292
Mof_C 	C 	0.69352	0.41453	0.44583	0.227
Mof_C 	C 	0.6696	0.4218	0.4014	-0.151
Mof_C 	C 	0.6306	0.3873	0.3923	-0.246
Mof_C 	C 	0.1303	0.52763	0.66897	0.285
Mof_C 	C 	0.19482	0.50301	0.68935	-0.225
Mof_C 	C 	0.18128	0.50442	0.73682	0.119
Mof_C 	C 	0.1075	0.5317	0.7665	-0.198
Mof_C 	C 	0.0474	0.5568	0.747	0.131
Mof_C 	C 	0.0542	0.5562	0.7004	-0.243
Mof_C 	C 	0.2718	0.47224	0.66116	0.28
Mof_C 	C 	0.36398	0.42872	0.55052	0.227
Mof_C 	C 	0.43309	0.39301	0.52081	-0.13
Mof_C 	C 	0.4122	0.3678	0.4886	-0.268
Mof_C 	C 	0.7008	0.4583	0.9173	0.13
Mof_C 	C 	0.6747	0.4549	0.8789	-0.213
Mof_C 	C 	0.6813	0.4131	0.8613	0.177
Mof_C 	C 	0.7202	0.3768	0.8798	-0.221
Mof_C 	C 	0.7463	0.3796	0.92	0.117
Mof_C 	C 	0.657	0.407	0.8186	-0.176
Mof_C 	C 	0.7905	0.15318	0.68602	0.288
Mof_C 	C 	0.86174	0.12091	0.69521	-0.221
Mof_C 	C 	0.8683	0.1162	0.7404	0.108
Mof_C 	C 	0.80565	0.14175	0.77735	-0.174
Mof_C 	C 	0.7365	0.1733	0.7681	0.109
Mof_C 	C 	0.7275	0.1786	0.7228	-0.244
Mof_C 	C 	0.93245	0.09315	0.65835	0.302
Mof_C 	C 	0.00081	0.08431	0.53967	0.242
Mof_C 	C 	0.0689	0.0603	0.5001	-0.175
Mof_C 	C 	0.1217	0.0964	0.48	-0.261
Mof_C 	C 	0.9907	0.1923	0.5771	0.097
Mof_C 	C 	0.0318	0.2281	0.5709	-0.177
Mof_C 	C 	0.9881	0.2739	0.5687	0.13
Mof_C 	C 	0.9032	0.2833	0.5761	-0.184
Mof_C 	C 	0.867	0.2461	0.5825	0.106
Mof_C 	C 	0.0286	0.311	0.558	-0.144
Mof_C 	C 	0.21296	0.08204	0.59084	0.296
Mof_C 	C 	0.27	0.0482	0.56	-0.236
Mof_C 	C 	0.349	0.0548	0.5356	0.108
Mof_C 	C 	0.3638	0.0979	0.5431	-0.201
Mof_C 	C 	0.3052	0.1299	0.5709	0.15
Mof_C 	C 	0.2285	0.1246	0.5952	-0.273
Mof_C 	C 	0.25633	0.00477	0.55097	0.292
Mof_C 	C 	0.10805	0.94583	0.58547	0.227
Mof_C 	C 	0.0914	0.9014	0.5782	-0.15
Mof_C 	C 	0.0179	0.8923	0.6127	-0.247
Mof_C 	C 	0.65793	0.16897	0.47237	0.285
Mof_C 	C 	0.69783	0.18935	0.49699	-0.225
Mof_C 	C 	0.6857	0.23682	0.49558	0.119
Mof_C 	C 	0.6392	0.2665	0.4683	-0.197
Mof_C 	C 	0.6042	0.247	0.4432	0.13
Mof_C 	C 	0.6104	0.2004	0.4438	-0.243
Mof_C 	C 	0.74404	0.16116	0.52776	0.28
Mof_C 	C 	0.7927	0.05052	0.57128	0.227
Mof_C 	C 	0.8261	0.02081	0.60699	-0.132
Mof_C 	C 	0.78	0.9886	0.6322	-0.264
Mof_C 	C 	0.1591	0.4173	0.5417	0.13
Mof_C 	C 	0.1296	0.3789	0.5451	-0.213
Mof_C 	C 	0.0944	0.3613	0.5869	0.177
Mof_C 	C 	0.097	0.3798	0.6232	-0.222
Mof_C 	C 	0.1259	0.42	0.6204	0.117
Mof_C 	C 	0.064	0.3186	0.593	-0.177
Mof_C 	C 	0.1297	0.34682	0.81398	0.288
Mof_C 	C 	0.17786	0.37909	0.80479	-0.221
Mof_C 	C 	0.2249	0.3838	0.7596	0.108
Mof_C 	C 	0.22475	0.35825	0.72265	-0.173
Mof_C 	C 	0.1779	0.3267	0.7319	0.109
Mof_C 	C 	0.1289	0.3214	0.7772	-0.244
Mof_C 	C 	0.18395	0.40685	0.84165	0.302
Mof_C 	C 	0.12479	0.41569	0.96033	0.241
Mof_C 	C 	0.1293	0.4397	0.9999	-0.173
Mof_C 	C 	0.1981	0.4036	0.02	-0.262
Mof_C 	C 	0.2601	0.3077	0.9229	0.098
Mof_C 	C 	0.3308	0.2719	0.9291	-0.178
Mof_C 	C 	0.3307	0.2261	0.9313	0.131
Mof_C 	C 	0.2626	0.2167	0.9239	-0.185
Mof_C 	C 	0.1956	0.2539	0.9175	0.107
Mof_C 	C 	0.3976	0.189	0.942	-0.145
Mof_C 	C 	0.38584	0.41796	0.90916	0.296
Mof_C 	C 	0.3782	0.4518	0.94	-0.236
Mof_C 	C 	0.4394	0.4452	0.9644	0.108
Mof_C 	C 	0.5048	0.4021	0.9569	-0.201
Mof_C 	C 	0.506	0.3701	0.9291	0.15
Mof_C 	C 	0.4483	0.3754	0.9048	-0.273
Mof_C 	C 	0.31207	0.49523	0.94903	0.292
Mof_C 	C 	0.13935	0.55417	0.91453	0.228
Mof_C 	C 	0.071	0.5986	0.9218	-0.153
Mof_C 	C 	0.0229	0.6077	0.8873	-0.242
Mof_C 	C 	0.79927	0.33103	0.02763	0.286
Mof_C 	C 	0.88417	0.31065	0.00301	-0.225
Mof_C 	C 	0.9181	0.26318	0.00442	0.121
Mof_C 	C 	0.874	0.2335	0.0317	-0.199
Mof_C 	C 	0.7944	0.253	0.0568	0.131
Mof_C 	C 	0.7546	0.2996	0.0562	-0.243
Mof_C 	C 	0.93296	0.33884	0.97224	0.279
Mof_C 	C 	0.9145	0.44948	0.92872	0.227
Mof_C 	C 	0.9539	0.47919	0.89301	-0.131
Mof_C 	C 	0.9008	0.5114	0.8678	-0.267
Mof_C 	C 	0.6181	0.0827	0.9583	0.13
Mof_C 	C 	0.5536	0.1211	0.9549	-0.213
Mof_C 	C 	0.5426	0.1387	0.9131	0.177
Mof_C 	C 	0.6	0.1202	0.8768	-0.221
Mof_C 	C 	0.6663	0.08	0.8796	0.117
Mof_C 	C 	0.4756	0.1814	0.907	-0.176
Mof_C 	C 	0.05632	0.81398	0.15318	0.288
Mof_C 	C 	0.01735	0.80479	0.12091	-0.221
Mof_C 	C 	0.0155	0.7596	0.1162	0.107
Mof_C 	C 	0.0526	0.72265	0.14175	-0.173
Mof_C 	C 	0.0902	0.7319	0.1733	0.109
Mof_C 	C 	0.0939	0.7772	0.1786	-0.244
Mof_C 	C 	0.9744	0.84165	0.09315	0.303
Mof_C 	C 	0.91488	0.96033	0.08431	0.243
Mof_C 	C 	0.8708	0.9999	0.0603	-0.178
Mof_C 	C 	0.7819	0.02	0.0964	-0.258
Mof_C 	C 	0.817	0.9229	0.1923	0.098
Mof_C 	C 	0.7401	0.9291	0.2281	-0.178
Mof_C 	C 	0.738	0.9313	0.2739	0.131
Mof_C 	C 	0.8135	0.9239	0.2833	-0.185
Mof_C 	C 	0.8869	0.9175	0.2461	0.106
Mof_C 	C 	0.6604	0.942	0.311	-0.145
Mof_C 	C 	0.705	0.90916	0.08204	0.295
Mof_C 	C 	0.6818	0.94	0.0482	-0.235
Mof_C 	C 	0.5962	0.9644	0.0548	0.108
Mof_C 	C 	0.5383	0.9569	0.0979	-0.201
Mof_C 	C 	0.5649	0.9291	0.1299	0.15
Mof_C 	C 	0.6469	0.9048	0.1246	-0.273
Mof_C 	C 	0.7389	0.94903	0.00477	0.29
Mof_C 	C 	0.94612	0.91453	0.94583	0.226
Mof_C 	C 	0.0072	0.9218	0.9014	-0.149
Mof_C 	C 	0.0898	0.8873	0.8923	-0.248
Mof_C 	C 	0.1731	0.02763	0.16897	0.285
Mof_C 	C 	0.11282	0.00301	0.18935	-0.224
Mof_C 	C 	0.07748	0.00442	0.23682	0.12
Mof_C 	C 	0.0943	0.0317	0.2665	-0.198
Mof_C 	C 	0.1488	0.0568	0.247	0.131
Mof_C 	C 	0.1892	0.0562	0.2004	-0.243
Mof_C 	C 	0.0948	0.97224	0.16116	0.279
Mof_C 	C 	0.15678	0.92872	0.05052	0.228
Mof_C 	C 	0.15309	0.89301	0.02081	-0.136
Mof_C 	C 	0.2314	0.8678	0.9886	-0.258
Mof_C 	C 	0.4236	0.9583	0.4173	0.13
Mof_C 	C 	0.4915	0.9549	0.3789	-0.213
Mof_C 	C 	0.5443	0.9131	0.3613	0.177
Mof_C 	C 	0.5232	0.8768	0.3798	-0.221
Mof_C 	C 	0.4541	0.8796	0.42	0.117
Mof_C 	C 	0.6174	0.907	0.3186	-0.176
Mof_C 	C 	0.52348	0.68602	0.34682	0.288
Mof_C 	C 	0.44305	0.69521	0.37909	-0.221
Mof_C 	C 	0.3913	0.7404	0.3838	0.108
Mof_C 	C 	0.417	0.77735	0.35825	-0.173
Mof_C 	C 	0.4954	0.7681	0.3267	0.109
Mof_C 	C 	0.5497	0.7228	0.3214	-0.244
Mof_C 	C 	0.4092	0.65835	0.40685	0.302
Mof_C 	C 	0.45952	0.53967	0.41569	0.242
Mof_C 	C 	0.431	0.5001	0.4397	-0.175
Mof_C 	C 	0.3983	0.48	0.4036	-0.261
Mof_C 	C 	0.4322	0.5771	0.3077	0.098
Mof_C 	C 	0.3973	0.5709	0.2719	-0.178
Mof_C 	C 	0.4432	0.5687	0.2261	0.131
Mof_C 	C 	0.5207	0.5761	0.2167	-0.185
Mof_C 	C 	0.5505	0.5825	0.2539	0.107
Mof_C 	C 	0.4134	0.558	0.189	-0.145
Mof_C 	C 	0.1962	0.59084	0.41796	0.296
Mof_C 	C 	0.17	0.56	0.4518	-0.236
Mof_C 	C 	0.1154	0.5356	0.4452	0.108
Mof_C 	C 	0.0931	0.5431	0.4021	-0.201
Mof_C 	C 	0.1239	0.5709	0.3701	0.15
Mof_C 	C 	0.1763	0.5952	0.3754	-0.273
Mof_C 	C 	0.1927	0.55097	0.49523	0.292
Mof_C 	C 	0.30648	0.58547	0.55417	0.227
Mof_C 	C 	0.3304	0.5782	0.5986	-0.151
Mof_C 	C 	0.3694	0.6127	0.6077	-0.246
Mof_C 	C 	0.8697	0.47237	0.33103	0.285
Mof_C 	C 	0.80518	0.49699	0.31065	-0.225
Mof_C 	C 	0.81872	0.49558	0.26318	0.119
Mof_C 	C 	0.8925	0.4683	0.2335	-0.198
Mof_C 	C 	0.9526	0.4432	0.253	0.131
Mof_C 	C 	0.9458	0.4438	0.2996	-0.243
Mof_C 	C 	0.7282	0.52776	0.33884	0.28
Mof_C 	C 	0.63602	0.57128	0.44948	0.227
Mof_C 	C 	0.56691	0.60699	0.47919	-0.13
Mof_C 	C 	0.5878	0.6322	0.5114	-0.268
Mof_C 	C 	0.2992	0.5417	0.0827	0.13
Mof_C 	C 	0.3253	0.5451	0.1211	-0.213
Mof_C 	C 	0.3187	0.5869	0.1387	0.177
Mof_C 	C 	0.2798	0.6232	0.1202	-0.221
Mof_C 	C 	0.2537	0.6204	0.08	0.117
Mof_C 	C 	0.343	0.593	0.1814	-0.176
Mof_C 	C 	0.2095	0.84682	0.31398	0.288
Mof_C 	C 	0.13826	0.87909	0.30479	-0.221
Mof_C 	C 	0.1317	0.8838	0.2596	0.108
Mof_C 	C 	0.19435	0.85825	0.22265	-0.174
Mof_C 	C 	0.2635	0.8267	0.2319	0.109
Mof_C 	C 	0.2725	0.8214	0.2772	-0.244
Mof_C 	C 	0.06755	0.90685	0.34165	0.302
Mof_C 	C 	0.99919	0.91569	0.46033	0.242
Mof_C 	C 	0.9311	0.9397	0.4999	-0.175
Mof_C 	C 	0.8783	0.9036	0.52	-0.261
Mof_C 	C 	0.0093	0.8077	0.4229	0.097
Mof_C 	C 	0.9682	0.7719	0.4291	-0.177
Mof_C 	C 	0.0119	0.7261	0.4313	0.13
Mof_C 	C 	0.0968	0.7167	0.4239	-0.184
Mof_C 	C 	0.133	0.7539	0.4175	0.106
Mof_C 	C 	0.9714	0.689	0.442	-0.144
Mof_C 	C 	0.78704	0.91796	0.40916	0.296
Mof_C 	C 	0.73	0.9518	0.44	-0.236
Mof_C 	C 	0.651	0.9452	0.4644	0.108
Mof_C 	C 	0.6362	0.9021	0.4569	-0.201
Mof_C 	C 	0.6948	0.8701	0.4291	0.15
Mof_C 	C 	0.7715	0.8754	0.4048	-0.273
Mof_C 	C 	0.74367	0.99523	0.44903	0.292
Mof_C 	C 	0.89195	0.05417	0.41453	0.227
Mof_C 	C 	0.9086	0.0986	0.4218	-0.15
Mof_C 	C 	0.9821	0.1077	0.3873	-0.247
Mof_C 	C 	0.34207	0.83103	0.52763	0.285
Mof_C 	C 	0.30217	0.81065	0.50301	-0.225
Mof_C 	C 	0.3143	0.76318	0.50442	0.119
Mof_C 	C 	0.3608	0.7335	0.5317	-0.197
Mof_C 	C 	0.3958	0.753	0.5568	0.13
Mof_C 	C 	0.3896	0.7996	0.5562	-0.243
Mof_C 	C 	0.25596	0.83884	0.47224	0.28
Mof_C 	C 	0.2073	0.94948	0.42872	0.227
Mof_C 	C 	0.1739	0.97919	0.39301	-0.132
Mof_C 	C 	0.22	0.0114	0.3678	-0.264
Mof_C 	C 	0.8409	0.5827	0.4583	0.13
Mof_C 	C 	0.8704	0.6211	0.4549	-0.213
Mof_C 	C 	0.9056	0.6387	0.4131	0.177
Mof_C 	C 	0.903	0.6202	0.3768	-0.222
Mof_C 	C 	0.8741	0.58	0.3796	0.117
Mof_C 	C 	0.936	0.6814	0.407	-0.177
Mof_C 	C 	0.8703	0.65318	0.18602	0.288
Mof_C 	C 	0.82214	0.62091	0.19521	-0.221
Mof_C 	C 	0.7751	0.6162	0.2404	0.108
Mof_C 	C 	0.77525	0.64175	0.27735	-0.173
Mof_C 	C 	0.8221	0.6733	0.2681	0.109
Mof_C 	C 	0.8711	0.6786	0.2228	-0.244
Mof_C 	C 	0.81605	0.59315	0.15835	0.302
Mof_C 	C 	0.87521	0.58431	0.03967	0.241
Mof_C 	C 	0.8707	0.5603	0.0001	-0.173
Mof_C 	C 	0.8019	0.5964	0.98	-0.262
Mof_C 	C 	0.7399	0.6923	0.0771	0.098
Mof_C 	C 	0.6692	0.7281	0.0709	-0.178
Mof_C 	C 	0.6693	0.7739	0.0687	0.131
Mof_C 	C 	0.7374	0.7833	0.0761	-0.185
Mof_C 	C 	0.8044	0.7461	0.0825	0.107
Mof_C 	C 	0.6024	0.811	0.058	-0.145
Mof_C 	C 	0.61416	0.58204	0.09084	0.296
Mof_C 	C 	0.6218	0.5482	0.06	-0.236
Mof_C 	C 	0.5606	0.5548	0.0356	0.108
Mof_C 	C 	0.4952	0.5979	0.0431	-0.201
Mof_C 	C 	0.494	0.6299	0.0709	0.15
Mof_C 	C 	0.5517	0.6246	0.0952	-0.273
Mof_C 	C 	0.68793	0.50477	0.05097	0.292
Mof_C 	C 	0.86065	0.44583	0.08547	0.228
Mof_C 	C 	0.929	0.4014	0.0782	-0.153
Mof_C 	C 	0.9771	0.3923	0.1127	-0.242
Mof_C 	C 	0.20073	0.66897	0.97237	0.286
Mof_C 	C 	0.11583	0.68935	0.99699	-0.225
Mof_C 	C 	0.0819	0.73682	0.99558	0.121
Mof_C 	C 	0.126	0.7665	0.9683	-0.199
Mof_C 	C 	0.2056	0.747	0.9432	0.131
Mof_C 	C 	0.2454	0.7004	0.9438	-0.243
Mof_C 	C 	0.06704	0.66116	0.02776	0.279
Mof_C 	C 	0.0855	0.55052	0.07128	0.227
Mof_C 	C 	0.0461	0.52081	0.10699	-0.131
Mof_C 	C 	0.0992	0.4886	0.1322	-0.267
Mof_C 	C 	0.3819	0.9173	0.0417	0.13
Mof_C 	C 	0.4464	0.8789	0.0451	-0.213
Mof_C 	C 	0.4574	0.8613	0.0869	0.177
Mof_C 	C 	0.4	0.8798	0.1232	-0.221
Mof_C 	C 	0.3337	0.92	0.1204	0.117
Mof_C 	C 	0.5244	0.8186	0.093	-0.176
Mof_N 	N 	0.03109	0.11474	0.89968	-0.249
Mof_N 	N 	0.07434	0.08183	0.92769	-0.192
Mof_N 	N 	0.1122	0.08286	0.79794	-0.199
Mof_N 	N 	0.18145	0.07315	0.00395	-0.248
Mof_N 	N 	0.13281	0.05997	0.04681	-0.188
Mof_N 	N 	0.86488	0.03411	0.88373	-0.244
Mof_N 	N 	0.88187	0.06847	0.90579	-0.19
Mof_N 	N 	0.5939	0.0793	0.5619	-0.202
Mof_N 	N 	0.54551	0.38526	0.60032	-0.249
Mof_N 	N 	0.58386	0.41817	0.57231	-0.192
Mof_N 	N 	0.493	0.41714	0.70206	-0.199
Mof_N 	N 	0.75855	0.42685	0.49605	-0.248
Mof_N 	N 	0.73959	0.44003	0.45319	-0.189
Mof_N 	N 	0.28272	0.46589	0.61627	-0.244
Mof_N 	N 	0.35613	0.43153	0.59421	-0.189
Mof_N 	N 	0.7351	0.4207	0.9381	-0.202
Mof_N 	N 	0.93077	0.10032	0.61474	-0.249
Mof_N 	N 	0.00203	0.07231	0.58183	-0.192
Mof_N 	N 	0.91014	0.20206	0.58286	-0.199
Mof_N 	N 	0.1854	0.99605	0.57315	-0.248
Mof_N 	N 	0.17962	0.95319	0.55997	-0.189
Mof_N 	N 	0.74861	0.11627	0.53411	-0.244
Mof_N 	N 	0.78766	0.09421	0.56847	-0.189
Mof_N 	N 	0.1558	0.4381	0.5793	-0.202
Mof_N 	N 	0.14583	0.39968	0.88526	-0.249
Mof_N 	N 	0.15617	0.42769	0.91817	-0.192
Mof_N 	N 	0.19506	0.29794	0.91714	-0.199
Mof_N 	N 	0.2546	0.50395	0.92685	-0.248
Mof_N 	N 	0.19278	0.54681	0.94003	-0.189
Mof_N 	N 	0.89899	0.38373	0.96589	-0.244
Mof_N 	N 	0.95034	0.40579	0.93153	-0.19
Mof_N 	N 	0.6732	0.0619	0.9207	-0.202
Mof_N 	N 	0.96891	0.88526	0.10032	-0.249
Mof_N 	N 	0.92566	0.91817	0.07231	-0.192
Mof_N 	N 	0.8878	0.91714	0.20206	-0.199
Mof_N 	N 	0.81855	0.92685	0.99605	-0.248
Mof_N 	N 	0.86719	0.94003	0.95319	-0.188
Mof_N 	N 	0.13512	0.96589	0.11627	-0.244
Mof_N 	N 	0.11813	0.93153	0.09421	-0.19
Mof_N 	N 	0.4061	0.9207	0.4381	-0.202
Mof_N 	N 	0.45449	0.61474	0.39968	-0.249
Mof_N 	N 	0.41614	0.58183	0.42769	-0.192
Mof_N 	N 	0.507	0.58286	0.29794	-0.199
Mof_N 	N 	0.24145	0.57315	0.50395	-0.248
Mof_N 	N 	0.26041	0.55997	0.54681	-0.189
Mof_N 	N 	0.71728	0.53411	0.38373	-0.244
Mof_N 	N 	0.64387	0.56847	0.40579	-0.189
Mof_N 	N 	0.2649	0.5793	0.0619	-0.202
Mof_N 	N 	0.06923	0.89968	0.38526	-0.249
Mof_N 	N 	0.99797	0.92769	0.41817	-0.192
Mof_N 	N 	0.08986	0.79794	0.41714	-0.199
Mof_N 	N 	0.8146	0.00395	0.42685	-0.248
Mof_N 	N 	0.82038	0.04681	0.44003	-0.189
Mof_N 	N 	0.25139	0.88373	0.46589	-0.244
Mof_N 	N 	0.21234	0.90579	0.43153	-0.189
Mof_N 	N 	0.8442	0.5619	0.4207	-0.202
Mof_N 	N 	0.85417	0.60032	0.11474	-0.249
Mof_N 	N 	0.84383	0.57231	0.08183	-0.192
Mof_N 	N 	0.80494	0.70206	0.08286	-0.199
Mof_N 	N 	0.7454	0.49605	0.07315	-0.248
Mof_N 	N 	0.80722	0.45319	0.05997	-0.189
Mof_N 	N 	0.10101	0.61627	0.03411	-0.244
Mof_N 	N 	0.04966	0.59421	0.06847	-0.19
Mof_N 	N 	0.3268	0.9381	0.0793	-0.202
Mof_O 	O 	0.93926	0.14352	0.83896	-0.419
Mof_O 	O 	0.05284	0.16993	0.93739	-0.387
Mof_O 	O 	0.05702	0.03048	0.88248	-0.385
Mof_O 	O 	0.21678	0.11785	0.92219	-0.42
Mof_O 	O 	0.291	0.02215	0.02405	-0.367
Mof_O 	O 	0.03063	0.11607	0.02447	-0.386
Mof_O 	O 	0.78714	0.97137	0.87555	-0.422
Mof_O 	O 	0.96008	0.04962	0.81822	-0.37
Mof_O 	O 	0.79894	0.04285	0.96947	-0.378
Mof_O 	O 	0.42174	0.35648	0.66104	-0.419
Mof_O 	O 	0.66016	0.33007	0.56261	-0.387
Mof_O 	O 	0.46998	0.46952	0.61752	-0.385
Mof_O 	O 	0.75682	0.38215	0.57781	-0.42
Mof_O 	O 	0.8372	0.47785	0.47595	-0.369
Mof_O 	O 	0.67117	0.38393	0.47553	-0.387
Mof_O 	O 	0.13406	0.52863	0.62445	-0.423
Mof_O 	O 	0.32792	0.45038	0.68178	-0.37
Mof_O 	O 	0.31126	0.45715	0.53053	-0.378
Mof_O 	O 	0.77822	0.16104	0.64352	-0.419
Mof_O 	O 	0.99023	0.06261	0.66993	-0.387
Mof_O 	O 	0.9395	0.11752	0.53048	-0.385
Mof_O 	O 	0.13897	0.07781	0.61785	-0.42
Mof_O 	O 	0.31505	0.97595	0.52215	-0.369
Mof_O 	O 	0.0551	0.97553	0.61607	-0.387
Mof_O 	O 	0.66269	0.12445	0.47137	-0.423
Mof_O 	O 	0.7783	0.18178	0.54962	-0.37
Mof_O 	O 	0.76841	0.03053	0.54285	-0.378
Mof_O 	O 	0.08278	0.33896	0.85648	-0.419
Mof_O 	O 	0.22277	0.43739	0.83007	-0.387
Mof_O 	O 	0.0875	0.38248	0.96952	-0.385
Mof_O 	O 	0.33463	0.42219	0.88215	-0.42
Mof_O 	O 	0.31315	0.52405	0.97785	-0.368
Mof_O 	O 	0.1467	0.52447	0.88393	-0.387
Mof_O 	O 	0.75851	0.37555	0.02863	-0.423
Mof_O 	O 	0.0097	0.31822	0.95038	-0.369
Mof_O 	O 	0.84179	0.46947	0.95715	-0.378
Mof_O 	O 	0.06074	0.85648	0.16104	-0.419
Mof_O 	O 	0.94716	0.83007	0.06261	-0.387
Mof_O 	O 	0.94298	0.96952	0.11752	-0.385
Mof_O 	O 	0.78322	0.88215	0.07781	-0.42
Mof_O 	O 	0.709	0.97785	0.97595	-0.367
Mof_O 	O 	0.96937	0.88393	0.97553	-0.386
Mof_O 	O 	0.21286	0.02863	0.12445	-0.422
Mof_O 	O 	0.03992	0.95038	0.18178	-0.37
Mof_O 	O 	0.20106	0.95715	0.03053	-0.378
Mof_O 	O 	0.57826	0.64352	0.33896	-0.419
Mof_O 	O 	0.33984	0.66993	0.43739	-0.387
Mof_O 	O 	0.53002	0.53048	0.38248	-0.385
Mof_O 	O 	0.24318	0.61785	0.42219	-0.42
Mof_O 	O 	0.1628	0.52215	0.52405	-0.369
Mof_O 	O 	0.32883	0.61607	0.52447	-0.387
Mof_O 	O 	0.86594	0.47137	0.37555	-0.423
Mof_O 	O 	0.67208	0.54962	0.31822	-0.37
Mof_O 	O 	0.68874	0.54285	0.46947	-0.378
Mof_O 	O 	0.22178	0.83896	0.35648	-0.419
Mof_O 	O 	0.00977	0.93739	0.33007	-0.387
Mof_O 	O 	0.0605	0.88248	0.46952	-0.385
Mof_O 	O 	0.86103	0.92219	0.38215	-0.42
Mof_O 	O 	0.68495	0.02405	0.47785	-0.369
Mof_O 	O 	0.9449	0.02447	0.38393	-0.387
Mof_O 	O 	0.33731	0.87555	0.52863	-0.423
Mof_O 	O 	0.2217	0.81822	0.45038	-0.37
Mof_O 	O 	0.23159	0.96947	0.45715	-0.378
Mof_O 	O 	0.91722	0.66104	0.14352	-0.419
Mof_O 	O 	0.77723	0.56261	0.16993	-0.387
Mof_O 	O 	0.9125	0.61752	0.03048	-0.385
Mof_O 	O 	0.66537	0.57781	0.11785	-0.42
Mof_O 	O 	0.68685	0.47595	0.02215	-0.368
Mof_O 	O 	0.8533	0.47553	0.11607	-0.387
Mof_O 	O 	0.24149	0.62445	0.97137	-0.423
Mof_O 	O 	0.9903	0.68178	0.04962	-0.369
Mof_O 	O 	0.15821	0.53053	0.04285	-0.378
_end
