data_functionalizedCrystal
_audit_creation_method	'EQeq! by Chris Wilmer'
_symmetry_space_group_name_H-M	'P1'
_symmetry_Int_Tables_number	1
_symmetry_cell_setting	triclinic
loop_
_symmetry_equiv_pos_as_xyz
  x,y,z
_cell_length_a	16.7094
_cell_length_b	20.2857
_cell_length_c	17.1936
_cell_angle_alpha	90
_cell_angle_beta	99.178
_cell_angle_gamma	90
loop_
_atom_site_label
_atom_site_type_symbol
_atom_site_fract_x
_atom_site_fract_y
_atom_site_fract_z
_atom_site_charge
Mof_Mn	Mn	0.24957	0.33421	0.03614	1.038
Mof_Mn	Mn	0.44546	0.37409	0.13934	0.865
Mof_Mn	Mn	0.0522	0.35504	0.91695	0.852
Mof_S 	S 	0.22833	0.72822	0.95422	0.283
Mof_S 	S 	0.34295	0.43047	0.55568	0.26
Mof_S 	S 	0.04115	0.48581	0.39286	0.285
Mof_N 	N 	0.4216	0.4478	0.2331	-0.286
Mof_O 	O 	0.3317	0.75731	0.5059	-0.42
Mof_O 	O 	0.84287	0.23383	0.51927	-0.4
Mof_O 	O 	0.32283	0.41845	0.07214	-0.437
Mof_O 	O 	0.25116	0.3662	0.91521	-0.394
Mof_O 	O 	0.24656	0.80952	0.33953	-0.387
Mof_O 	O 	0.13857	0.39339	0.04128	-0.421
Mof_O 	O 	0.11598	0.80824	0.29913	-0.413
Mof_O 	O 	0.96646	0.19589	0.5541	-0.404
Mof_O 	O 	0.44038	0.458	0.06	-0.37
Mof_O 	O 	0.13072	0.38992	0.84886	-0.426
Mof_O 	O 	0.44516	0.75258	0.5875	-0.412
Mof_O 	O 	0.00892	0.39609	0.01387	-0.402
Mof_O 	O 	0.15162	0.72476	0.90673	-0.212
Mof_O 	O 	0.28917	0.76819	0.92893	-0.217
Mof_O 	O 	0.4209	0.40159	0.5641	-0.225
Mof_O 	O 	0.2845	0.41394	0.48892	-0.223
Mof_O 	O 	0.97895	0.5339	0.38913	-0.22
Mof_O 	O 	0.11831	0.50004	0.43597	-0.227
Mof_C 	C 	0.3662	0.4626	0.0484	0.384
Mof_C 	C 	0.3288	0.5247	0.013	-0.123
Mof_C 	C 	0.2478	0.5348	0.0073	0.037
Mof_H 	H 	0.214	0.5008	0.0184	0.03
Mof_C 	C 	0.2157	0.5966	0.9848	-0.091
Mof_H 	H 	0.1602	0.6038	0.9801	0.078
Mof_C 	C 	0.2662	0.6469	0.9696	0.011
Mof_C 	C 	0.347	0.6366	0.9722	-0.092
Mof_H 	H 	0.3806	0.6703	0.9599	0.078
Mof_C 	C 	0.378	0.5747	0.9936	0.033
Mof_H 	H 	0.433	0.5668	0.9948	0.045
Mof_C 	C 	0.2165	0.75296	0.0511	0.017
Mof_C 	C 	0.1408	0.7584	0.0701	-0.087
Mof_H 	H 	0.0954	0.7508	0.0324	0.08
Mof_C 	C 	0.1323	0.7755	0.1467	0.035
Mof_H 	H 	0.0804	0.7801	0.1593	0.033
Mof_C 	C 	0.1978	0.7858	0.2041	-0.13
Mof_C 	C 	0.2742	0.7803	0.1839	0.035
Mof_H 	H 	0.3197	0.7873	0.2217	0.033
Mof_C 	C 	0.2833	0.7642	0.107	-0.084
Mof_H 	H 	0.3349	0.7611	0.0936	0.07
Mof_C 	C 	0.1866	0.8029	0.2878	0.411
Mof_C 	C 	0.2054	0.3825	0.8548	0.425
Mof_C 	C 	0.2395	0.394	0.7798	-0.141
Mof_C 	C 	0.3196	0.3829	0.778	0.061
Mof_H 	H 	0.3532	0.3686	0.8233	0.027
Mof_C 	C 	0.3512	0.3925	0.7099	-0.103
Mof_H 	H 	0.4058	0.3843	0.709	0.084
Mof_C 	C 	0.3021	0.4143	0.6429	0.038
Mof_C 	C 	0.2224	0.4244	0.642	-0.104
Mof_H 	H 	0.1892	0.4383	0.5963	0.094
Mof_C 	C 	0.191	0.4137	0.7108	0.061
Mof_H 	H 	0.1358	0.4198	0.7106	0.036
Mof_C 	C 	0.3543	0.5176	0.5567	0.023
Mof_C 	C 	0.2942	0.5567	0.5183	-0.13
Mof_H 	H 	0.246	0.538	0.4934	0.1
Mof_C 	C 	0.3052	0.6237	0.5165	0.064
Mof_H 	H 	0.2644	0.6501	0.4895	0.027
Mof_C 	C 	0.3749	0.6526	0.5537	-0.15
Mof_C 	C 	0.4337	0.6126	0.5939	0.06
Mof_H 	H 	0.4809	0.6312	0.6209	0.014
Mof_C 	C 	0.4236	0.545	0.5946	-0.115
Mof_H 	H 	0.4644	0.5183	0.621	0.069
Mof_C 	C 	0.3841	0.7265	0.5482	0.431
Mof_C 	C 	0.072	0.4044	0.0611	0.399
Mof_C 	C 	0.0671	0.4282	0.1429	-0.131
Mof_C 	C 	0.9948	0.4529	0.1594	0.04
Mof_H 	H 	0.9504	0.4564	0.1196	0.027
Mof_C 	C 	0.9884	0.4724	0.2355	-0.093
Mof_H 	H 	0.94	0.4903	0.246	0.076
Mof_C 	C 	0.052	0.4656	0.2947	0.008
Mof_C 	C 	0.1245	0.4417	0.2791	-0.092
Mof_H 	H 	0.1686	0.4375	0.3194	0.065
Mof_C 	C 	0.1315	0.4237	0.2026	0.039
Mof_H 	H 	0.181	0.4083	0.1917	0.029
Mof_C 	C 	0.0063	0.412	0.4299	0.024
Mof_C 	C 	0.06	0.3668	0.4701	-0.09
Mof_H 	H 	0.1156	0.3744	0.4767	0.09
Mof_C 	C 	0.0301	0.3106	0.5	0.053
Mof_H 	H 	0.0657	0.2804	0.5276	0.038
Mof_C 	C 	0.9485	0.2987	0.4893	-0.133
Mof_C 	C 	0.897	0.3443	0.4484	0.059
Mof_H 	H 	0.8415	0.3361	0.4403	0.029
Mof_C 	C 	0.9249	0.401	0.4193	-0.091
Mof_H 	H 	0.889	0.4316	0.3928	0.079
Mof_C 	C 	0.9166	0.2374	0.5237	0.428
Mof_C 	C 	0.3942	0.4705	0.2841	0.391
Mof_C 	C 	0.3619	0.4936	0.3511	-1.075
Mof_H 	H 	0.3051	0.4834	0.3448	0.356
Mof_H 	H 	0.3692	0.5404	0.3559	0.353
Mof_H 	H 	0.3895	0.4724	0.3977	0.362
Mof_Mn	Mn	0.25043	0.83421	0.46386	1.039
Mof_Mn	Mn	0.05454	0.87409	0.36066	0.864
Mof_Mn	Mn	0.4478	0.85504	0.58305	0.851
Mof_S 	S 	0.27167	0.22822	0.54578	0.282
Mof_S 	S 	0.15705	0.93047	0.94432	0.261
Mof_S 	S 	0.45885	0.98581	0.10714	0.287
Mof_N 	N 	0.0784	0.9478	0.2669	-0.286
Mof_O 	O 	0.1683	0.25731	0.9941	-0.419
Mof_O 	O 	0.65713	0.73383	0.98073	-0.4
Mof_O 	O 	0.17717	0.91845	0.42786	-0.437
Mof_O 	O 	0.24884	0.8662	0.58479	-0.395
Mof_O 	O 	0.25344	0.30952	0.16047	-0.387
Mof_O 	O 	0.36143	0.89339	0.45872	-0.42
Mof_O 	O 	0.38402	0.30824	0.20087	-0.413
Mof_O 	O 	0.53354	0.69589	0.9459	-0.405
Mof_O 	O 	0.05962	0.958	0.44	-0.369
Mof_O 	O 	0.36928	0.88992	0.65114	-0.426
Mof_O 	O 	0.05484	0.25258	0.9125	-0.413
Mof_O 	O 	0.49108	0.89609	0.48613	-0.401
Mof_O 	O 	0.34838	0.22476	0.59327	-0.211
Mof_O 	O 	0.21083	0.26819	0.57107	-0.217
Mof_O 	O 	0.0791	0.90159	0.9359	-0.225
Mof_O 	O 	0.2155	0.91394	0.01108	-0.224
Mof_O 	O 	0.52105	0.0339	0.11087	-0.222
Mof_O 	O 	0.38169	4e-05	0.06403	-0.229
Mof_C 	C 	0.1338	0.9626	0.4516	0.385
Mof_C 	C 	0.1712	0.0247	0.487	-0.124
Mof_C 	C 	0.2522	0.0348	0.4927	0.039
Mof_H 	H 	0.286	0.0008	0.4816	0.029
Mof_C 	C 	0.2843	0.0966	0.5152	-0.094
Mof_H 	H 	0.3398	0.1038	0.5199	0.079
Mof_C 	C 	0.2338	0.1469	0.5304	0.012
Mof_C 	C 	0.153	0.1366	0.5278	-0.093
Mof_H 	H 	0.1194	0.1703	0.5401	0.078
Mof_C 	C 	0.122	0.0747	0.5064	0.032
Mof_H 	H 	0.067	0.0668	0.5052	0.044
Mof_C 	C 	0.2835	0.25296	0.4489	0.018
Mof_C 	C 	0.3592	0.2584	0.4299	-0.089
Mof_H 	H 	0.4046	0.2508	0.4676	0.08
Mof_C 	C 	0.3677	0.2755	0.3533	0.036
Mof_H 	H 	0.4196	0.2801	0.3407	0.033
Mof_C 	C 	0.3022	0.2858	0.2959	-0.131
Mof_C 	C 	0.2258	0.2803	0.3161	0.036
Mof_H 	H 	0.1803	0.2873	0.2783	0.032
Mof_C 	C 	0.2167	0.2642	0.393	-0.085
Mof_H 	H 	0.1651	0.2611	0.4064	0.07
Mof_C 	C 	0.3134	0.3029	0.2122	0.412
Mof_C 	C 	0.2946	0.8825	0.6452	0.425
Mof_C 	C 	0.2605	0.894	0.7202	-0.141
Mof_C 	C 	0.1804	0.8829	0.722	0.062
Mof_H 	H 	0.1468	0.8686	0.6767	0.027
Mof_C 	C 	0.1488	0.8925	0.7901	-0.103
Mof_H 	H 	0.0942	0.8843	0.791	0.084
Mof_C 	C 	0.1979	0.9143	0.8571	0.038
Mof_C 	C 	0.2776	0.9244	0.858	-0.104
Mof_H 	H 	0.3108	0.9383	0.9037	0.094
Mof_C 	C 	0.309	0.9137	0.7892	0.061
Mof_H 	H 	0.3642	0.9198	0.7894	0.036
Mof_C 	C 	0.1457	0.0176	0.9433	0.022
Mof_C 	C 	0.2058	0.0567	0.9817	-0.126
Mof_H 	H 	0.254	0.038	0.0066	0.097
Mof_C 	C 	0.1948	0.1237	0.9835	0.066
Mof_H 	H 	0.2356	0.1501	0.0105	0.025
Mof_C 	C 	0.1251	0.1526	0.9463	-0.151
Mof_C 	C 	0.0663	0.1126	0.9061	0.06
Mof_H 	H 	0.0191	0.1312	0.8791	0.014
Mof_C 	C 	0.0764	0.045	0.9054	-0.114
Mof_H 	H 	0.0356	0.0183	0.879	0.068
Mof_C 	C 	0.1159	0.2265	0.9518	0.431
Mof_C 	C 	0.428	0.9044	0.4389	0.399
Mof_C 	C 	0.4329	0.9282	0.3571	-0.131
Mof_C 	C 	0.5052	0.9529	0.3406	0.039
Mof_H 	H 	0.5496	0.9564	0.3804	0.028
Mof_C 	C 	0.5116	0.9724	0.2645	-0.092
Mof_H 	H 	0.56	0.9903	0.254	0.076
Mof_C 	C 	0.448	0.9656	0.2053	0.008
Mof_C 	C 	0.3755	0.9417	0.2209	-0.091
Mof_H 	H 	0.3314	0.9375	0.1806	0.065
Mof_C 	C 	0.3685	0.9237	0.2974	0.038
Mof_H 	H 	0.319	0.9083	0.3083	0.029
Mof_C 	C 	0.4937	0.912	0.0701	0.024
Mof_C 	C 	0.44	0.8668	0.0299	-0.089
Mof_H 	H 	0.3844	0.8744	0.0233	0.09
Mof_C 	C 	0.4699	0.8106	-0	0.052
Mof_H 	H 	0.4343	0.7804	0.9724	0.039
Mof_C 	C 	0.5515	0.7987	0.0107	-0.134
Mof_C 	C 	0.603	0.8443	0.0516	0.059
Mof_H 	H 	0.6585	0.8361	0.0597	0.028
Mof_C 	C 	0.5751	0.901	0.0807	-0.091
Mof_H 	H 	0.611	0.9316	0.1072	0.079
Mof_C 	C 	0.5834	0.7374	0.9763	0.429
Mof_C 	C 	0.1058	0.9705	0.2159	0.389
Mof_C 	C 	0.1381	0.9936	0.1489	-1.067
Mof_H 	H 	0.1949	0.9834	0.1552	0.354
Mof_H 	H 	0.1308	0.0404	0.1441	0.35
Mof_H 	H 	0.1105	0.9724	0.1023	0.36
Mof_Mn	Mn	0.75043	0.66579	0.96386	1.04
Mof_Mn	Mn	0.55454	0.62591	0.86066	0.864
Mof_Mn	Mn	0.9478	0.64496	0.08305	0.85
Mof_S 	S 	0.77167	0.27178	0.04578	0.28
Mof_S 	S 	0.65705	0.56953	0.44432	0.26
Mof_S 	S 	0.95885	0.51419	0.60714	0.285
Mof_N 	N 	0.5784	0.5522	0.7669	-0.286
Mof_O 	O 	0.6683	0.24269	0.4941	-0.42
Mof_O 	O 	0.15713	0.76617	0.48073	-0.4
Mof_O 	O 	0.67717	0.58155	0.92786	-0.437
Mof_O 	O 	0.74884	0.6338	0.08479	-0.396
Mof_O 	O 	0.75344	0.19048	0.66047	-0.387
Mof_O 	O 	0.86143	0.60661	0.95872	-0.42
Mof_O 	O 	0.88402	0.19176	0.70087	-0.414
Mof_O 	O 	0.03354	0.80411	0.4459	-0.404
Mof_O 	O 	0.55962	0.542	0.94	-0.369
Mof_O 	O 	0.86928	0.61008	0.15114	-0.426
Mof_O 	O 	0.55484	0.24742	0.4125	-0.412
Mof_O 	O 	0.99108	0.60391	0.98613	-0.4
Mof_O 	O 	0.84838	0.27524	0.09327	-0.211
Mof_O 	O 	0.71083	0.23181	0.07107	-0.217
Mof_O 	O 	0.5791	0.59841	0.4359	-0.225
Mof_O 	O 	0.7155	0.58606	0.51108	-0.223
Mof_O 	O 	0.02105	0.4661	0.61087	-0.22
Mof_O 	O 	0.88169	0.49996	0.56403	-0.227
Mof_C 	C 	0.6338	0.5374	0.9516	0.384
Mof_C 	C 	0.6712	0.4753	0.987	-0.121
Mof_C 	C 	0.7522	0.4652	0.9927	0.041
Mof_H 	H 	0.786	0.4992	0.9816	0.029
Mof_C 	C 	0.7843	0.4034	0.0152	-0.096
Mof_H 	H 	0.8398	0.3962	0.0199	0.079
Mof_C 	C 	0.7338	0.3531	0.0304	0.012
Mof_C 	C 	0.653	0.3634	0.0278	-0.092
Mof_H 	H 	0.6194	0.3297	0.0401	0.077
Mof_C 	C 	0.622	0.4253	0.0064	0.029
Mof_H 	H 	0.567	0.4332	0.0052	0.045
Mof_C 	C 	0.7835	0.24704	0.9489	0.021
Mof_C 	C 	0.8592	0.2416	0.9299	-0.09
Mof_H 	H 	0.9046	0.2492	0.9676	0.082
Mof_C 	C 	0.8677	0.2245	0.8533	0.037
Mof_H 	H 	0.9196	0.2199	0.8407	0.033
Mof_C 	C 	0.8022	0.2142	0.7959	-0.131
Mof_C 	C 	0.7258	0.2197	0.8161	0.037
Mof_H 	H 	0.6803	0.2127	0.7783	0.032
Mof_C 	C 	0.7167	0.2358	0.893	-0.087
Mof_H 	H 	0.6651	0.2389	0.9064	0.072
Mof_C 	C 	0.8134	0.1971	0.7122	0.412
Mof_C 	C 	0.7946	0.6175	0.1452	0.425
Mof_C 	C 	0.7605	0.606	0.2202	-0.141
Mof_C 	C 	0.6804	0.6171	0.222	0.062
Mof_H 	H 	0.6468	0.6314	0.1767	0.027
Mof_C 	C 	0.6488	0.6075	0.2901	-0.103
Mof_H 	H 	0.5942	0.6157	0.291	0.084
Mof_C 	C 	0.6979	0.5857	0.3571	0.038
Mof_C 	C 	0.7776	0.5756	0.358	-0.104
Mof_H 	H 	0.8108	0.5617	0.4037	0.094
Mof_C 	C 	0.809	0.5863	0.2892	0.061
Mof_H 	H 	0.8642	0.5802	0.2894	0.036
Mof_C 	C 	0.6457	0.4824	0.4433	0.023
Mof_C 	C 	0.7058	0.4433	0.4817	-0.13
Mof_H 	H 	0.754	0.462	0.5066	0.1
Mof_C 	C 	0.6948	0.3763	0.4835	0.064
Mof_H 	H 	0.7356	0.3499	0.5105	0.027
Mof_C 	C 	0.6251	0.3474	0.4463	-0.15
Mof_C 	C 	0.5663	0.3874	0.4061	0.06
Mof_H 	H 	0.5191	0.3688	0.3791	0.014
Mof_C 	C 	0.5764	0.455	0.4054	-0.115
Mof_H 	H 	0.5356	0.4817	0.379	0.069
Mof_C 	C 	0.6159	0.2735	0.4518	0.431
Mof_C 	C 	0.928	0.5956	0.9389	0.399
Mof_C 	C 	0.9329	0.5718	0.8571	-0.131
Mof_C 	C 	0.0052	0.5471	0.8406	0.04
Mof_H 	H 	0.0496	0.5436	0.8804	0.028
Mof_C 	C 	0.0116	0.5276	0.7645	-0.093
Mof_H 	H 	0.06	0.5097	0.754	0.076
Mof_C 	C 	0.948	0.5344	0.7053	0.008
Mof_C 	C 	0.8755	0.5583	0.7209	-0.091
Mof_H 	H 	0.8314	0.5625	0.6806	0.065
Mof_C 	C 	0.8685	0.5763	0.7974	0.039
Mof_H 	H 	0.819	0.5917	0.8083	0.029
Mof_C 	C 	0.9937	0.588	0.5701	0.024
Mof_C 	C 	0.94	0.6332	0.5299	-0.09
Mof_H 	H 	0.8844	0.6256	0.5233	0.09
Mof_C 	C 	0.9699	0.6894	0.5	0.053
Mof_H 	H 	0.9343	0.7196	0.4724	0.038
Mof_C 	C 	0.0515	0.7013	0.5107	-0.133
Mof_C 	C 	0.103	0.6557	0.5516	0.059
Mof_H 	H 	0.1585	0.6639	0.5597	0.029
Mof_C 	C 	0.0751	0.599	0.5807	-0.091
Mof_H 	H 	0.111	0.5684	0.6072	0.079
Mof_C 	C 	0.0834	0.7626	0.4763	0.428
Mof_C 	C 	0.6058	0.5295	0.7159	0.391
Mof_C 	C 	0.6381	0.5064	0.6489	-1.075
Mof_H 	H 	0.6949	0.5166	0.6552	0.356
Mof_H 	H 	0.6308	0.4596	0.6441	0.354
Mof_H 	H 	0.6105	0.5276	0.6023	0.362
Mof_Mn	Mn	0.74957	0.16579	0.53614	1.039
Mof_Mn	Mn	0.94546	0.12591	0.63934	0.864
Mof_Mn	Mn	0.5522	0.14496	0.41695	0.851
Mof_S 	S 	0.72833	0.77178	0.45422	0.282
Mof_S 	S 	0.84295	0.06953	0.05568	0.257
Mof_S 	S 	0.54115	0.01419	0.89286	0.29
Mof_N 	N 	0.9216	0.0522	0.7331	-0.286
Mof_O 	O 	0.8317	0.74269	0.0059	-0.421
Mof_O 	O 	0.34287	0.26617	0.01927	-0.399
Mof_O 	O 	0.82283	0.08155	0.57214	-0.437
Mof_O 	O 	0.75116	0.1338	0.41521	-0.395
Mof_O 	O 	0.74656	0.69048	0.83953	-0.387
Mof_O 	O 	0.63857	0.10661	0.54128	-0.42
Mof_O 	O 	0.61598	0.69176	0.79913	-0.414
Mof_O 	O 	0.46646	0.30411	0.0541	-0.403
Mof_O 	O 	0.94038	0.042	0.56	-0.369
Mof_O 	O 	0.63072	0.11008	0.34886	-0.426
Mof_O 	O 	0.94516	0.74742	0.0875	-0.413
Mof_O 	O 	0.50892	0.10391	0.51387	-0.401
Mof_O 	O 	0.65162	0.77524	0.40673	-0.211
Mof_O 	O 	0.78917	0.73181	0.42893	-0.217
Mof_O 	O 	0.9209	0.09841	0.0641	-0.225
Mof_O 	O 	0.7845	0.08606	0.98892	-0.221
Mof_O 	O 	0.47895	0.9661	0.88913	-0.222
Mof_O 	O 	0.61831	0.99996	0.93597	-0.229
Mof_C 	C 	0.8662	0.0374	0.5484	0.385
Mof_C 	C 	0.8288	0.9753	0.513	-0.124
Mof_C 	C 	0.7478	0.9652	0.5073	0.039
Mof_H 	H 	0.714	0.9992	0.5184	0.029
Mof_C 	C 	0.7157	0.9034	0.4848	-0.094
Mof_H 	H 	0.6602	0.8962	0.4801	0.079
Mof_C 	C 	0.7662	0.8531	0.4696	0.012
Mof_C 	C 	0.847	0.8634	0.4722	-0.093
Mof_H 	H 	0.8806	0.8297	0.4599	0.078
Mof_C 	C 	0.878	0.9253	0.4936	0.032
Mof_H 	H 	0.933	0.9332	0.4948	0.044
Mof_C 	C 	0.7165	0.74704	0.5511	0.018
Mof_C 	C 	0.6408	0.7416	0.5701	-0.088
Mof_H 	H 	0.5954	0.7492	0.5324	0.08
Mof_C 	C 	0.6323	0.7245	0.6467	0.036
Mof_H 	H 	0.5804	0.7199	0.6593	0.033
Mof_C 	C 	0.6978	0.7142	0.7041	-0.131
Mof_C 	C 	0.7742	0.7197	0.6839	0.036
Mof_H 	H 	0.8197	0.7127	0.7217	0.032
Mof_C 	C 	0.7833	0.7358	0.607	-0.085
Mof_H 	H 	0.8349	0.7389	0.5936	0.07
Mof_C 	C 	0.6866	0.6971	0.7878	0.412
Mof_C 	C 	0.7054	0.1175	0.3548	0.425
Mof_C 	C 	0.7395	0.106	0.2798	-0.141
Mof_C 	C 	0.8196	0.1171	0.278	0.062
Mof_H 	H 	0.8532	0.1314	0.3233	0.027
Mof_C 	C 	0.8512	0.1075	0.2099	-0.103
Mof_H 	H 	0.9058	0.1157	0.209	0.084
Mof_C 	C 	0.8021	0.0857	0.1429	0.039
Mof_C 	C 	0.7224	0.0756	0.142	-0.105
Mof_H 	H 	0.6892	0.0617	0.0963	0.094
Mof_C 	C 	0.691	0.0863	0.2108	0.062
Mof_H 	H 	0.6358	0.0802	0.2106	0.036
Mof_C 	C 	0.8543	0.9824	0.0567	0.023
Mof_C 	C 	0.7942	0.9433	0.0183	-0.131
Mof_H 	H 	0.746	0.962	0.9934	0.1
Mof_C 	C 	0.8052	0.8763	0.0165	0.064
Mof_H 	H 	0.7644	0.8499	0.9895	0.028
Mof_C 	C 	0.8749	0.8474	0.0537	-0.15
Mof_C 	C 	0.9337	0.8874	0.0939	0.06
Mof_H 	H 	0.9809	0.8688	0.1209	0.014
Mof_C 	C 	0.9236	0.955	0.0946	-0.116
Mof_H 	H 	0.9644	0.9817	0.121	0.069
Mof_C 	C 	0.8841	0.7735	0.0482	0.431
Mof_C 	C 	0.572	0.0956	0.5611	0.399
Mof_C 	C 	0.5671	0.0718	0.6429	-0.13
Mof_C 	C 	0.4948	0.0471	0.6594	0.039
Mof_H 	H 	0.4504	0.0436	0.6196	0.028
Mof_C 	C 	0.4884	0.0276	0.7355	-0.092
Mof_H 	H 	0.44	0.0097	0.746	0.075
Mof_C 	C 	0.552	0.0344	0.7947	0.007
Mof_C 	C 	0.6245	0.0583	0.7791	-0.09
Mof_H 	H 	0.6686	0.0625	0.8194	0.065
Mof_C 	C 	0.6315	0.0763	0.7026	0.038
Mof_H 	H 	0.681	0.0917	0.6917	0.029
Mof_C 	C 	0.5063	0.088	0.9299	0.019
Mof_C 	C 	0.56	0.1332	0.9701	-0.08
Mof_H 	H 	0.6156	0.1256	0.9767	0.088
Mof_C 	C 	0.5301	0.1894	-0	0.04
Mof_H 	H 	0.5657	0.2196	0.0276	0.042
Mof_C 	C 	0.4485	0.2013	0.9893	-0.123
Mof_C 	C 	0.397	0.1557	0.9484	0.051
Mof_H 	H 	0.3415	0.1639	0.9403	0.032
Mof_C 	C 	0.4249	0.099	0.9193	-0.084
Mof_H 	H 	0.389	0.0684	0.8928	0.077
Mof_C 	C 	0.4166	0.2626	0.0237	0.423
Mof_C 	C 	0.8942	0.0295	0.7841	0.389
Mof_C 	C 	0.8619	0.0064	0.8511	-1.069
Mof_H 	H 	0.8051	0.0166	0.8448	0.355
Mof_H 	H 	0.8692	0.9596	0.8559	0.351
Mof_H 	H 	0.8895	0.0276	0.8977	0.361
_end
