data_functionalizedCrystal
_audit_creation_method	'EQeq! by Chris Wilmer'
_symmetry_space_group_name_H-M	'P1'
_symmetry_Int_Tables_number	1
_symmetry_cell_setting	triclinic
loop_
_symmetry_equiv_pos_as_xyz
  x,y,z
_cell_length_a	15.4228
_cell_length_b	10.2047
_cell_length_c	18.7078
_cell_angle_alpha	90
_cell_angle_beta	103.835
_cell_angle_gamma	90
loop_
_atom_site_label
_atom_site_type_symbol
_atom_site_fract_x
_atom_site_fract_y
_atom_site_fract_z
_atom_site_charge
Mof_V 	V 	0.16434	0.12191	0.08617	1.714
Mof_V 	V 	0.24587	0.05145	0.28487	1.26
Mof_V 	V 	0.18727	0.91703	0.78053	1.252
Mof_P 	P 	0.29103	0.38197	0.07722	0.55
Mof_P 	P 	0.66486	0.33569	0.16595	0.528
Mof_O 	O 	0.20873	0.29907	0.07397	-0.627
Mof_O 	O 	0.21375	0.1469	0.1904	-1.582
Mof_O 	O 	0.67016	0.43049	0.10343	-0.556
Mof_O 	O 	0.29677	0.43072	0.00092	-0.545
Mof_O 	O 	0.29101	0.50534	0.12369	-0.709
Mof_O 	O 	0.73269	0.22657	0.16785	-0.716
Mof_O 	O 	0.67724	0.4047	0.23993	-0.768
Mof_C 	C 	0.38812	0.2841	0.11431	-0.455
Mof_H 	H 	0.3901	0.2114	0.0797	0.104
Mof_H 	H 	0.3818	0.2449	0.1612	0.108
Mof_C 	C 	0.47733	0.3584	0.12867	0.248
Mof_H 	H 	0.4818	0.4188	0.1708	-0.127
Mof_H 	H 	0.4798	0.4113	0.0849	-0.131
Mof_C 	C 	0.55552	0.2625	0.14545	-0.418
Mof_H 	H 	0.5503	0.2077	0.1879	0.08
Mof_H 	H 	0.5503	0.2036	0.1026	0.089
Mof_H 	H 	0.22	0.213	0.195	0.688
Mof_V 	V 	0.66434	0.62191	0.08617	1.717
Mof_V 	V 	0.74587	0.55145	0.28487	1.26
Mof_V 	V 	0.68727	0.41703	0.78053	1.251
Mof_P 	P 	0.79103	0.88197	0.07722	0.554
Mof_P 	P 	0.16486	0.83569	0.16595	0.528
Mof_O 	O 	0.70873	0.79907	0.07397	-0.624
Mof_O 	O 	0.71375	0.6469	0.1904	-1.579
Mof_O 	O 	0.17016	0.93049	0.10343	-0.553
Mof_O 	O 	0.79677	0.93072	0.00092	-0.54
Mof_O 	O 	0.79101	0.00534	0.12369	-0.715
Mof_O 	O 	0.23269	0.72657	0.16785	-0.714
Mof_O 	O 	0.17724	0.9047	0.23993	-0.766
Mof_C 	C 	0.88812	0.7841	0.11431	-0.456
Mof_H 	H 	0.8901	0.7114	0.0797	0.106
Mof_H 	H 	0.8818	0.7449	0.1612	0.109
Mof_C 	C 	0.97733	0.8584	0.12867	0.249
Mof_H 	H 	0.9818	0.9188	0.1708	-0.126
Mof_H 	H 	0.9798	0.9113	0.0849	-0.129
Mof_C 	C 	0.05552	0.7625	0.14545	-0.42
Mof_H 	H 	0.0503	0.7077	0.1879	0.081
Mof_H 	H 	0.0503	0.7036	0.1026	0.09
Mof_H 	H 	0.72	0.713	0.195	0.687
Mof_V 	V 	0.83566	0.12191	0.41383	1.716
Mof_V 	V 	0.75413	0.05145	0.21513	1.259
Mof_V 	V 	0.81273	0.91703	0.71947	1.251
Mof_P 	P 	0.70897	0.38197	0.42278	0.549
Mof_P 	P 	0.33514	0.33569	0.33405	0.528
Mof_O 	O 	0.79127	0.29907	0.42603	-0.625
Mof_O 	O 	0.78625	0.1469	0.3096	-1.58
Mof_O 	O 	0.32984	0.43049	0.39657	-0.555
Mof_O 	O 	0.70323	0.43072	0.49908	-0.543
Mof_O 	O 	0.70899	0.50534	0.37631	-0.709
Mof_O 	O 	0.26731	0.22657	0.33215	-0.715
Mof_O 	O 	0.32276	0.4047	0.26007	-0.768
Mof_C 	C 	0.61188	0.2841	0.38569	-0.455
Mof_H 	H 	0.6099	0.2114	0.4203	0.105
Mof_H 	H 	0.6182	0.2449	0.3388	0.109
Mof_C 	C 	0.52267	0.3584	0.37133	0.249
Mof_H 	H 	0.5182	0.4188	0.3292	-0.127
Mof_H 	H 	0.5202	0.4113	0.4151	-0.131
Mof_C 	C 	0.44448	0.2625	0.35455	-0.419
Mof_H 	H 	0.4497	0.2077	0.3121	0.081
Mof_H 	H 	0.4497	0.2036	0.3974	0.091
Mof_H 	H 	0.78	0.213	0.305	0.687
Mof_V 	V 	0.33566	0.62191	0.41383	1.716
Mof_V 	V 	0.25413	0.55145	0.21513	1.26
Mof_V 	V 	0.31273	0.41703	0.71947	1.251
Mof_P 	P 	0.20897	0.88197	0.42278	0.551
Mof_P 	P 	0.83514	0.83569	0.33405	0.528
Mof_O 	O 	0.29127	0.79907	0.42603	-0.625
Mof_O 	O 	0.28625	0.6469	0.3096	-1.579
Mof_O 	O 	0.82984	0.93049	0.39657	-0.554
Mof_O 	O 	0.20323	0.93072	0.49908	-0.543
Mof_O 	O 	0.20899	0.00534	0.37631	-0.71
Mof_O 	O 	0.76731	0.72657	0.33215	-0.714
Mof_O 	O 	0.82276	0.9047	0.26007	-0.765
Mof_C 	C 	0.11188	0.7841	0.38569	-0.455
Mof_H 	H 	0.1099	0.7114	0.4203	0.105
Mof_H 	H 	0.1182	0.7449	0.3388	0.109
Mof_C 	C 	0.02267	0.8584	0.37133	0.247
Mof_H 	H 	0.0182	0.9188	0.3292	-0.126
Mof_H 	H 	0.0202	0.9113	0.4151	-0.13
Mof_C 	C 	0.94448	0.7625	0.35455	-0.417
Mof_H 	H 	0.9497	0.7077	0.3121	0.081
Mof_H 	H 	0.9497	0.7036	0.3974	0.09
Mof_H 	H 	0.28	0.713	0.305	0.687
Mof_V 	V 	0.83566	0.87809	0.91383	1.713
Mof_V 	V 	0.75413	0.94855	0.71513	1.259
Mof_V 	V 	0.81273	0.08297	0.21947	1.251
Mof_P 	P 	0.70897	0.61803	0.92278	0.549
Mof_P 	P 	0.33514	0.66431	0.83405	0.528
Mof_O 	O 	0.79127	0.70093	0.92603	-0.627
Mof_O 	O 	0.78625	0.8531	0.8096	-1.582
Mof_O 	O 	0.32984	0.56951	0.89657	-0.556
Mof_O 	O 	0.70323	0.56928	0.99908	-0.545
Mof_O 	O 	0.70899	0.49466	0.87631	-0.709
Mof_O 	O 	0.26731	0.77343	0.83215	-0.716
Mof_O 	O 	0.32276	0.5953	0.76007	-0.768
Mof_C 	C 	0.61188	0.7159	0.88569	-0.455
Mof_H 	H 	0.6099	0.7886	0.9203	0.104
Mof_H 	H 	0.6182	0.7551	0.8388	0.108
Mof_C 	C 	0.52267	0.6416	0.87133	0.248
Mof_H 	H 	0.5182	0.5812	0.8292	-0.127
Mof_H 	H 	0.5202	0.5887	0.9151	-0.131
Mof_C 	C 	0.44448	0.7375	0.85455	-0.418
Mof_H 	H 	0.4497	0.7923	0.8121	0.08
Mof_H 	H 	0.4497	0.7964	0.8974	0.089
Mof_H 	H 	0.78	0.787	0.805	0.688
Mof_V 	V 	0.33566	0.37809	0.91383	1.717
Mof_V 	V 	0.25413	0.44855	0.71513	1.26
Mof_V 	V 	0.31273	0.58297	0.21947	1.251
Mof_P 	P 	0.20897	0.11803	0.92278	0.554
Mof_P 	P 	0.83514	0.16431	0.83405	0.528
Mof_O 	O 	0.29127	0.20093	0.92603	-0.624
Mof_O 	O 	0.28625	0.3531	0.8096	-1.579
Mof_O 	O 	0.82984	0.06951	0.89657	-0.553
Mof_O 	O 	0.20323	0.06928	0.99908	-0.54
Mof_O 	O 	0.20899	0.99466	0.87631	-0.715
Mof_O 	O 	0.76731	0.27343	0.83215	-0.714
Mof_O 	O 	0.82276	0.0953	0.76007	-0.766
Mof_C 	C 	0.11188	0.2159	0.88569	-0.456
Mof_H 	H 	0.1099	0.2886	0.9203	0.106
Mof_H 	H 	0.1182	0.2551	0.8388	0.109
Mof_C 	C 	0.02267	0.1416	0.87133	0.249
Mof_H 	H 	0.0182	0.0812	0.8292	-0.126
Mof_H 	H 	0.0202	0.0887	0.9151	-0.129
Mof_C 	C 	0.94448	0.2375	0.85455	-0.42
Mof_H 	H 	0.9497	0.2923	0.8121	0.081
Mof_H 	H 	0.9497	0.2964	0.8974	0.09
Mof_H 	H 	0.28	0.287	0.805	0.687
Mof_V 	V 	0.16434	0.87809	0.58617	1.716
Mof_V 	V 	0.24587	0.94855	0.78487	1.259
Mof_V 	V 	0.18727	0.08297	0.28053	1.251
Mof_P 	P 	0.29103	0.61803	0.57722	0.549
Mof_P 	P 	0.66486	0.66431	0.66595	0.528
Mof_O 	O 	0.20873	0.70093	0.57397	-0.625
Mof_O 	O 	0.21375	0.8531	0.6904	-1.58
Mof_O 	O 	0.67016	0.56951	0.60343	-0.555
Mof_O 	O 	0.29677	0.56928	0.50092	-0.543
Mof_O 	O 	0.29101	0.49466	0.62369	-0.709
Mof_O 	O 	0.73269	0.77343	0.66785	-0.715
Mof_O 	O 	0.67724	0.5953	0.73993	-0.768
Mof_C 	C 	0.38812	0.7159	0.61431	-0.455
Mof_H 	H 	0.3901	0.7886	0.5797	0.105
Mof_H 	H 	0.3818	0.7551	0.6612	0.109
Mof_C 	C 	0.47733	0.6416	0.62867	0.249
Mof_H 	H 	0.4818	0.5812	0.6708	-0.127
Mof_H 	H 	0.4798	0.5887	0.5849	-0.131
Mof_C 	C 	0.55552	0.7375	0.64545	-0.419
Mof_H 	H 	0.5503	0.7923	0.6879	0.081
Mof_H 	H 	0.5503	0.7964	0.6026	0.091
Mof_H 	H 	0.22	0.787	0.695	0.687
Mof_V 	V 	0.66434	0.37809	0.58617	1.716
Mof_V 	V 	0.74587	0.44855	0.78487	1.26
Mof_V 	V 	0.68727	0.58297	0.28053	1.251
Mof_P 	P 	0.79103	0.11803	0.57722	0.551
Mof_P 	P 	0.16486	0.16431	0.66595	0.528
Mof_O 	O 	0.70873	0.20093	0.57397	-0.625
Mof_O 	O 	0.71375	0.3531	0.6904	-1.579
Mof_O 	O 	0.17016	0.06951	0.60343	-0.554
Mof_O 	O 	0.79677	0.06928	0.50092	-0.543
Mof_O 	O 	0.79101	0.99466	0.62369	-0.71
Mof_O 	O 	0.23269	0.27343	0.66785	-0.714
Mof_O 	O 	0.17724	0.0953	0.73993	-0.765
Mof_C 	C 	0.88812	0.2159	0.61431	-0.455
Mof_H 	H 	0.8901	0.2886	0.5797	0.105
Mof_H 	H 	0.8818	0.2551	0.6612	0.109
Mof_C 	C 	0.97733	0.1416	0.62867	0.247
Mof_H 	H 	0.9818	0.0812	0.6708	-0.126
Mof_H 	H 	0.9798	0.0887	0.5849	-0.13
Mof_C 	C 	0.05552	0.2375	0.64545	-0.417
Mof_H 	H 	0.0503	0.2923	0.6879	0.081
Mof_H 	H 	0.0503	0.2964	0.6026	0.09
Mof_H 	H 	0.72	0.287	0.695	0.687
_end
