data_functionalizedCrystal
_audit_creation_method	'EQeq! by Chris Wilmer'
_symmetry_space_group_name_H-M	'P1'
_symmetry_Int_Tables_number	1
_symmetry_cell_setting	triclinic
loop_
_symmetry_equiv_pos_as_xyz
  x,y,z
_cell_length_a	8.3104
_cell_length_b	12.4546
_cell_length_c	33.5852
_cell_angle_alpha	90
_cell_angle_beta	90
_cell_angle_gamma	90
loop_
_atom_site_label
_atom_site_type_symbol
_atom_site_fract_x
_atom_site_fract_y
_atom_site_fract_z
_atom_site_charge
Mof_C 	C 	0.3706	0.57172	0.18486	-0.108
Mof_H 	H 	0.3157	0.5207	0.2034	0.047
Mof_C 	C 	0.4888	0.50387	0.15928	-0.075
Mof_H 	H 	0.445	0.4309	0.155	0.028
Mof_H 	H 	0.5057	0.5382	0.133	0.027
Mof_C 	C 	0.6491	0.49798	0.18251	-0.075
Mof_H 	H 	0.6822	0.4225	0.1869	0.032
Mof_H 	H 	0.7359	0.5362	0.1681	0.032
Mof_C 	C 	0.6104	0.55351	0.22202	-0.117
Mof_H 	H 	0.5505	0.4996	0.2383	0.054
Mof_C 	C 	0.7497	0.5912	0.24768	0.044
Mof_H 	H 	0.8109	0.6475	0.2328	0.007
Mof_C 	C 	0.8637	0.49803	0.25728	-0.128
Mof_H 	H 	0.8004	0.4378	0.2684	0.049
Mof_H 	H 	0.9144	0.4728	0.2323	0.053
Mof_C 	C 	0.9955	0.52864	0.28682	-0.106
Mof_H 	H 	0.0711	0.5791	0.2738	0.046
Mof_H 	H 	0.0566	0.4634	0.2942	0.054
Mof_C 	C 	0.9283	0.58106	0.32468	-0.093
Mof_H 	H 	0.0222	0.6094	0.34	0.068
Mof_C 	C 	0.844	0.4986	0.35126	-0.153
Mof_H 	H 	0.756	0.4644	0.336	0.056
Mof_H 	H 	0.922	0.4418	0.3585	0.014
Mof_C 	C 	0.7748	0.54705	0.38911	0.183
Mof_H 	H 	0.8651	0.5753	0.4058	-0.098
Mof_C 	C 	0.6609	0.63873	0.37943	-0.171
Mof_H 	H 	0.6215	0.6721	0.4043	0.049
Mof_H 	H 	0.567	0.6113	0.3644	0.075
Mof_C 	C 	0.7509	0.72167	0.35454	-0.153
Mof_H 	H 	0.8413	0.7504	0.3705	0.039
Mof_H 	H 	0.6772	0.7821	0.3487	0.056
Mof_C 	C 	0.8181	0.67825	0.31491	0.176
Mof_C 	C 	0.4197	0.68613	0.24983	-0.247
Mof_H 	H 	0.3582	0.6293	0.2637	0.085
Mof_H 	H 	0.3449	0.7459	0.2439	0.082
Mof_C 	C 	0.5544	0.72685	0.2773	0.012
Mof_H 	H 	0.6072	0.7894	0.2646	0.012
Mof_H 	H 	0.5062	0.7515	0.3027	0.01
Mof_C 	C 	0.6821	0.64123	0.28635	-0.138
Mof_H 	H 	0.6244	0.5819	0.3005	0.065
Mof_C 	C 	0.4863	0.6413	0.21077	0.199
Mof_C 	C 	0.2383	0.62348	0.15934	-0.014
Mof_H 	H 	0.2911	0.6642	0.1373	0.008
Mof_C 	C 	0.1367	0.53284	0.14079	0.188
Mof_H 	H 	0.2098	0.4843	0.126	-0.049
Mof_H 	H 	0.0878	0.4907	0.1627	-0.057
Mof_C 	C 	0.0025	0.5682	0.11257	-0.807
Mof_H 	H 	0.9412	0.504	0.1041	0.255
Mof_H 	H 	0.9276	0.6157	0.1273	0.286
Mof_C 	C 	0.0617	0.62693	0.07582	0.936
Mof_O 	O 	0.98675	0.71048	0.06578	-1.852
Mof_O 	O 	0.17957	0.58872	0.05707	-0.696
Mof_C 	C 	0.1313	0.701	0.18253	-0.312
Mof_H 	H 	0.0445	0.7268	0.1652	0.07
Mof_H 	H 	0.1957	0.7622	0.1917	0.091
Mof_H 	H 	0.085	0.664	0.2056	0.096
Mof_C 	C 	0.9187	0.76931	0.29625	-0.568
Mof_H 	H 	0.9597	0.7461	0.2703	0.181
Mof_H 	H 	0.0092	0.7866	0.3138	0.187
Mof_H 	H 	0.851	0.8331	0.2928	0.179
Mof_C 	C 	0.56	0.73139	0.18535	-0.53
Mof_H 	H 	0.5964	0.7018	0.1599	0.182
Mof_H 	H 	0.6518	0.7629	0.1995	0.173
Mof_H 	H 	0.4788	0.7869	0.1805	0.167
Mof_O 	O 	0.70074	0.45826	0.40955	-0.354
Mof_C 	C 	0.6096	0.48272	0.44352	0.044
Mof_H 	H 	0.6517	0.5501	0.4559	-0.05
Mof_C 	C 	0.626	0.39065	0.47276	0.439
Mof_H 	H 	0.5561	0.4051	0.4964	-0.251
Mof_C 	C 	0.5705	0.28689	0.45282	0.286
Mof_H 	H 	0.6357	0.2742	0.4282	-0.15
Mof_C 	C 	0.3949	0.30308	0.44141	0.156
Mof_H 	H 	0.3287	0.3118	0.4661	-0.351
Mof_C 	C 	0.3769	0.40309	0.41523	-0.283
Mof_H 	H 	0.4334	0.3903	0.3894	0.099
Mof_O 	O 	0.44446	0.49645	0.43384	-0.216
Mof_O 	O 	0.78769	0.38071	0.48566	-2.166
Mof_H 	H 	0.8023	0.4194	0.5058	0.523
Mof_O 	O 	0.58729	0.19728	0.479	-2.232
Mof_H 	H 	0.6685	0.1613	0.4724	0.646
Mof_O 	O 	0.33769	0.21276	0.41928	-0.43
Mof_H 	H 	0.2391	0.204	0.4237	0.163
Mof_C 	C 	0.2023	0.4295	0.4069	0.786
Mof_H 	H 	0.1968	0.4958	0.3907	-0.207
Mof_H 	H 	0.1537	0.3705	0.3912	-0.29
Mof_O 	O 	0.11176	0.44461	0.44245	-2.131
Mof_H 	H 	0.1447	0.4998	0.4543	0.684
Mof_Li	Li	0.0098	0.8287	0.0313	6.928
Mof_C 	C 	0.1294	0.42828	0.68486	-0.211
Mof_H 	H 	0.1843	0.4793	0.7034	0.074
Mof_C 	C 	0.0112	0.49613	0.65928	0.104
Mof_H 	H 	0.055	0.5691	0.655	-0.015
Mof_H 	H 	0.9943	0.4618	0.633	-0.056
Mof_C 	C 	0.8509	0.50202	0.68251	-0.168
Mof_H 	H 	0.8178	0.5775	0.6869	0.052
Mof_H 	H 	0.7641	0.4638	0.6681	0.055
Mof_C 	C 	0.8896	0.44649	0.72202	-0.138
Mof_H 	H 	0.9495	0.5004	0.7383	0.055
Mof_C 	C 	0.7503	0.4088	0.74768	0.056
Mof_H 	H 	0.6891	0.3525	0.7328	-0.002
Mof_C 	C 	0.6363	0.50197	0.75728	-0.147
Mof_H 	H 	0.6996	0.5622	0.7684	0.053
Mof_H 	H 	0.5856	0.5272	0.7323	0.054
Mof_C 	C 	0.5045	0.47136	0.78682	-0.07
Mof_H 	H 	0.4289	0.4209	0.7738	0.027
Mof_H 	H 	0.4434	0.5366	0.7942	0.027
Mof_C 	C 	0.5717	0.41894	0.82468	-0.041
Mof_H 	H 	0.4778	0.3906	0.84	0.028
Mof_C 	C 	0.656	0.5014	0.85126	-0.178
Mof_H 	H 	0.744	0.5356	0.836	0.062
Mof_H 	H 	0.578	0.5582	0.8585	0.03
Mof_C 	C 	0.7252	0.45295	0.88911	0.208
Mof_H 	H 	0.6349	0.4247	0.9058	-0.098
Mof_C 	C 	0.8391	0.36127	0.87943	-0.196
Mof_H 	H 	0.8785	0.3279	0.9043	0.069
Mof_H 	H 	0.933	0.3887	0.8644	0.093
Mof_C 	C 	0.7491	0.27833	0.85454	-0.129
Mof_H 	H 	0.6587	0.2496	0.8705	0.042
Mof_H 	H 	0.8228	0.2179	0.8487	0.055
Mof_C 	C 	0.6819	0.32175	0.81491	0.141
Mof_C 	C 	0.0803	0.31387	0.74983	-0.307
Mof_H 	H 	0.1418	0.3707	0.7637	0.098
Mof_H 	H 	0.1551	0.2541	0.7439	0.099
Mof_C 	C 	0.9456	0.27315	0.7773	0.033
Mof_H 	H 	0.8928	0.2106	0.7646	0
Mof_H 	H 	0.9938	0.2485	0.8027	0.008
Mof_C 	C 	0.8179	0.35877	0.78635	-0.14
Mof_H 	H 	0.8756	0.4181	0.8005	0.066
Mof_C 	C 	0.0137	0.3587	0.71077	0.306
Mof_C 	C 	0.2617	0.37652	0.65934	0.089
Mof_H 	H 	0.2089	0.3358	0.6373	-0.017
Mof_C 	C 	0.3633	0.46716	0.64079	0.056
Mof_H 	H 	0.2902	0.5157	0.626	-0.002
Mof_H 	H 	0.4122	0.5093	0.6627	-0.009
Mof_C 	C 	0.4975	0.4318	0.61257	-0.589
Mof_H 	H 	0.5588	0.496	0.6041	0.154
Mof_H 	H 	0.5724	0.3843	0.6273	0.19
Mof_C 	C 	0.4383	0.37307	0.57582	1.014
Mof_O 	O 	0.51325	0.28952	0.56578	-2.094
Mof_O 	O 	0.32043	0.41128	0.55707	-0.696
Mof_C 	C 	0.3687	0.299	0.68253	-0.407
Mof_H 	H 	0.4555	0.2732	0.6652	0.112
Mof_H 	H 	0.3043	0.2378	0.6917	0.119
Mof_H 	H 	0.415	0.336	0.7056	0.128
Mof_C 	C 	0.5813	0.23069	0.79625	-0.469
Mof_H 	H 	0.5403	0.2539	0.7703	0.149
Mof_H 	H 	0.4908	0.2134	0.8138	0.144
Mof_H 	H 	0.649	0.1669	0.7928	0.148
Mof_C 	C 	0.94	0.26861	0.68535	-0.737
Mof_H 	H 	0.9036	0.2982	0.6599	0.232
Mof_H 	H 	0.8482	0.2371	0.6995	0.226
Mof_H 	H 	0.0212	0.2131	0.6805	0.248
Mof_O 	O 	0.79926	0.54174	0.90955	-0.365
Mof_C 	C 	0.8904	0.51728	0.94352	0.085
Mof_H 	H 	0.8483	0.4499	0.9559	-0.054
Mof_C 	C 	0.874	0.60935	0.97276	0.493
Mof_H 	H 	0.9439	0.5949	0.9964	-0.237
Mof_C 	C 	0.9295	0.71311	0.95282	0.278
Mof_H 	H 	0.8643	0.7258	0.9282	-0.145
Mof_C 	C 	0.1051	0.69692	0.94141	0.125
Mof_H 	H 	0.1713	0.6882	0.9661	-0.368
Mof_C 	C 	0.1231	0.59691	0.91523	-0.306
Mof_H 	H 	0.0666	0.6097	0.8894	0.086
Mof_O 	O 	0.05554	0.50355	0.93384	-0.266
Mof_O 	O 	0.71231	0.61929	0.98566	-2.364
Mof_H 	H 	0.6977	0.5806	0.0058	0.584
Mof_O 	O 	0.91271	0.80272	0.979	-2.006
Mof_H 	H 	0.8315	0.8387	0.9724	0.586
Mof_O 	O 	0.16231	0.78724	0.91928	-0.441
Mof_H 	H 	0.2609	0.796	0.9237	0.158
Mof_C 	C 	0.2977	0.5705	0.9069	0.875
Mof_H 	H 	0.3032	0.5042	0.8907	-0.244
Mof_H 	H 	0.3463	0.6295	0.8912	-0.34
Mof_O 	O 	0.38824	0.55539	0.94245	-2.362
Mof_H 	H 	0.3553	0.5002	0.9543	0.731
Mof_Li	Li	0.4902	0.1713	0.5313	7.76
Mof_C 	C 	0.6294	0.07172	0.31514	-0.114
Mof_H 	H 	0.6843	0.0207	0.2966	0.045
Mof_C 	C 	0.5112	0.00387	0.34072	-0.074
Mof_H 	H 	0.555	0.9309	0.345	0.028
Mof_H 	H 	0.4943	0.0382	0.367	0.026
Mof_C 	C 	0.3509	0.99798	0.31749	-0.084
Mof_H 	H 	0.3178	0.9225	0.3131	0.033
Mof_H 	H 	0.2641	0.0362	0.3319	0.036
Mof_C 	C 	0.3896	0.05351	0.27798	-0.117
Mof_H 	H 	0.4495	0.9996	0.2617	0.054
Mof_C 	C 	0.2503	0.0912	0.25232	0.058
Mof_H 	H 	0.1891	0.1475	0.2672	0.004
Mof_C 	C 	0.1363	0.99803	0.24272	-0.158
Mof_H 	H 	0.1996	0.9378	0.2316	0.056
Mof_H 	H 	0.0856	0.9728	0.2677	0.058
Mof_C 	C 	0.0045	0.02864	0.21318	-0.078
Mof_H 	H 	0.9289	0.0791	0.2262	0.032
Mof_H 	H 	0.9434	0.9634	0.2058	0.049
Mof_C 	C 	0.0717	0.08106	0.17532	-0.081
Mof_H 	H 	0.9778	0.1094	0.16	0.059
Mof_C 	C 	0.156	0.9986	0.14874	-0.177
Mof_H 	H 	0.244	0.9644	0.164	0.061
Mof_H 	H 	0.078	0.9418	0.1415	0.018
Mof_C 	C 	0.2252	0.04705	0.11089	0.2
Mof_H 	H 	0.1349	0.0753	0.0942	-0.1
Mof_C 	C 	0.3391	0.13873	0.12057	-0.18
Mof_H 	H 	0.3785	0.1721	0.0957	0.052
Mof_H 	H 	0.433	0.1113	0.1356	0.078
Mof_C 	C 	0.2491	0.22167	0.14546	-0.149
Mof_H 	H 	0.1587	0.2504	0.1295	0.038
Mof_H 	H 	0.3228	0.2821	0.1513	0.054
Mof_C 	C 	0.1819	0.17825	0.18509	0.175
Mof_C 	C 	0.5803	0.18613	0.25017	-0.249
Mof_H 	H 	0.6418	0.1293	0.2363	0.085
Mof_H 	H 	0.6551	0.2459	0.2561	0.083
Mof_C 	C 	0.4456	0.22685	0.2227	0.014
Mof_H 	H 	0.3928	0.2894	0.2354	0.011
Mof_H 	H 	0.4938	0.2515	0.1973	0.009
Mof_C 	C 	0.3179	0.14123	0.21365	-0.142
Mof_H 	H 	0.3756	0.0819	0.1995	0.066
Mof_C 	C 	0.5137	0.1413	0.28923	0.201
Mof_C 	C 	0.7617	0.12348	0.34066	-0.004
Mof_H 	H 	0.7089	0.1642	0.3627	0.005
Mof_C 	C 	0.8633	0.03284	0.35921	0.159
Mof_H 	H 	0.7902	0.9843	0.374	-0.035
Mof_H 	H 	0.9122	0.9907	0.3373	-0.042
Mof_C 	C 	0.9975	0.0682	0.38743	-0.825
Mof_H 	H 	0.0588	0.004	0.3959	0.265
Mof_H 	H 	0.0724	0.1157	0.3727	0.295
Mof_C 	C 	0.9383	0.12693	0.42418	0.938
Mof_O 	O 	0.01325	0.21048	0.43422	-1.856
Mof_O 	O 	0.82043	0.08872	0.44293	-0.701
Mof_C 	C 	0.8687	0.201	0.31747	-0.322
Mof_H 	H 	0.9555	0.2268	0.3348	0.073
Mof_H 	H 	0.8043	0.2622	0.3083	0.095
Mof_H 	H 	0.915	0.164	0.2944	0.098
Mof_C 	C 	0.0813	0.26931	0.20375	-0.573
Mof_H 	H 	0.0403	0.2461	0.2297	0.182
Mof_H 	H 	0.9908	0.2866	0.1862	0.191
Mof_H 	H 	0.149	0.3331	0.2072	0.179
Mof_C 	C 	0.44	0.23139	0.31465	-0.531
Mof_H 	H 	0.4036	0.2018	0.3401	0.182
Mof_H 	H 	0.3482	0.2629	0.3005	0.173
Mof_H 	H 	0.5212	0.2869	0.3195	0.167
Mof_O 	O 	0.29926	0.95826	0.09045	-0.359
Mof_C 	C 	0.3904	0.98272	0.05648	0.041
Mof_H 	H 	0.3483	0.0501	0.0441	-0.047
Mof_C 	C 	0.374	0.89065	0.02724	0.436
Mof_H 	H 	0.4439	0.9051	0.0036	-0.248
Mof_C 	C 	0.4295	0.78689	0.04718	0.287
Mof_H 	H 	0.3643	0.7742	0.0718	-0.15
Mof_C 	C 	0.6051	0.80308	0.05859	0.154
Mof_H 	H 	0.6713	0.8118	0.0339	-0.348
Mof_C 	C 	0.6231	0.90309	0.08477	-0.281
Mof_H 	H 	0.5666	0.8903	0.1106	0.099
Mof_O 	O 	0.55554	0.99645	0.06616	-0.216
Mof_O 	O 	0.21231	0.88071	0.01434	-2.155
Mof_H 	H 	0.1977	0.9194	0.9942	0.515
Mof_O 	O 	0.41271	0.69728	0.021	-2.228
Mof_H 	H 	0.3315	0.6613	0.0276	0.647
Mof_O 	O 	0.66231	0.71276	0.08072	-0.43
Mof_H 	H 	0.7609	0.704	0.0763	0.164
Mof_C 	C 	0.7977	0.9295	0.0931	0.782
Mof_H 	H 	0.8032	0.9958	0.1093	-0.203
Mof_H 	H 	0.8463	0.8705	0.1088	-0.287
Mof_O 	O 	0.88824	0.94461	0.05755	-2.123
Mof_H 	H 	0.8553	0.9998	0.0457	0.684
Mof_Li	Li	0.9902	0.3287	0.4687	6.947
Mof_C 	C 	0.8706	0.92828	0.81514	-0.221
Mof_H 	H 	0.8157	0.9793	0.7966	0.078
Mof_C 	C 	0.9888	0.99613	0.84072	0.128
Mof_H 	H 	0.945	0.0691	0.845	-0.028
Mof_H 	H 	0.0057	0.9618	0.867	-0.069
Mof_C 	C 	0.1491	0.00202	0.81749	-0.144
Mof_H 	H 	0.1822	0.0775	0.8131	0.047
Mof_H 	H 	0.2359	0.9638	0.8319	0.044
Mof_C 	C 	0.1104	0.94649	0.77798	-0.171
Mof_H 	H 	0.0505	0.0004	0.7617	0.07
Mof_C 	C 	0.2497	0.9088	0.75232	0.064
Mof_H 	H 	0.3109	0.8525	0.7672	-0.004
Mof_C 	C 	0.3637	0.00197	0.74272	-0.149
Mof_H 	H 	0.3004	0.0622	0.7316	0.055
Mof_H 	H 	0.4144	0.0272	0.7677	0.055
Mof_C 	C 	0.4955	0.97136	0.71318	-0.067
Mof_H 	H 	0.5711	0.9209	0.7262	0.026
Mof_H 	H 	0.5566	0.0366	0.7058	0.025
Mof_C 	C 	0.4283	0.91894	0.67532	-0.049
Mof_H 	H 	0.5222	0.8906	0.66	0.03
Mof_C 	C 	0.344	0.0014	0.64874	-0.166
Mof_H 	H 	0.256	0.0356	0.664	0.061
Mof_H 	H 	0.422	0.0582	0.6415	0.026
Mof_C 	C 	0.2748	0.95295	0.61089	0.197
Mof_H 	H 	0.3651	0.9247	0.5942	-0.095
Mof_C 	C 	0.1609	0.86127	0.62057	-0.189
Mof_H 	H 	0.1215	0.8279	0.5957	0.068
Mof_H 	H 	0.067	0.8887	0.6356	0.089
Mof_C 	C 	0.2509	0.77833	0.64546	-0.135
Mof_H 	H 	0.3413	0.7496	0.6295	0.044
Mof_H 	H 	0.1772	0.7179	0.6513	0.057
Mof_C 	C 	0.3181	0.82175	0.68509	0.146
Mof_C 	C 	0.9197	0.81387	0.75017	-0.314
Mof_H 	H 	0.8582	0.8707	0.7363	0.1
Mof_H 	H 	0.8449	0.7541	0.7561	0.1
Mof_C 	C 	0.0544	0.77315	0.7227	0.036
Mof_H 	H 	0.1072	0.7106	0.7354	0.001
Mof_H 	H 	0.0062	0.7485	0.6973	0.008
Mof_C 	C 	0.1821	0.85877	0.71365	-0.145
Mof_H 	H 	0.1244	0.9181	0.6995	0.065
Mof_C 	C 	0.9863	0.8587	0.78923	0.32
Mof_C 	C 	0.7383	0.87652	0.84066	0.09
Mof_H 	H 	0.7911	0.8358	0.8627	-0.017
Mof_C 	C 	0.6367	0.96716	0.85921	0.067
Mof_H 	H 	0.7098	0.0157	0.874	-0.008
Mof_H 	H 	0.5878	0.0093	0.8373	-0.014
Mof_C 	C 	0.5025	0.9318	0.88743	-0.593
Mof_H 	H 	0.4412	0.996	0.8959	0.154
Mof_H 	H 	0.4276	0.8843	0.8727	0.191
Mof_C 	C 	0.5617	0.87307	0.92418	1.014
Mof_O 	O 	0.48675	0.78952	0.93422	-2.093
Mof_O 	O 	0.67957	0.91128	0.94293	-0.696
Mof_C 	C 	0.6313	0.799	0.81747	-0.408
Mof_H 	H 	0.5445	0.7732	0.8348	0.112
Mof_H 	H 	0.6957	0.7378	0.8083	0.119
Mof_H 	H 	0.585	0.836	0.7944	0.128
Mof_C 	C 	0.4187	0.73069	0.70375	-0.473
Mof_H 	H 	0.4597	0.7539	0.7297	0.15
Mof_H 	H 	0.5092	0.7134	0.6862	0.145
Mof_H 	H 	0.351	0.6669	0.7072	0.15
Mof_C 	C 	0.06	0.76861	0.81465	-0.742
Mof_H 	H 	0.0964	0.7982	0.8401	0.233
Mof_H 	H 	0.1518	0.7371	0.8005	0.228
Mof_H 	H 	0.9788	0.7131	0.8195	0.247
Mof_O 	O 	0.20074	0.04174	0.59045	-0.364
Mof_C 	C 	0.1096	0.01728	0.55648	0.11
Mof_H 	H 	0.1517	0.9499	0.5441	-0.065
Mof_C 	C 	0.126	0.10935	0.52724	0.481
Mof_H 	H 	0.0561	0.0949	0.5036	-0.229
Mof_C 	C 	0.0705	0.21311	0.54718	0.289
Mof_H 	H 	0.1357	0.2258	0.5718	-0.148
Mof_C 	C 	0.8949	0.19692	0.55859	0.117
Mof_H 	H 	0.8287	0.1882	0.5339	-0.366
Mof_C 	C 	0.8769	0.09691	0.58477	-0.3
Mof_H 	H 	0.9334	0.1097	0.6106	0.082
Mof_O 	O 	0.94446	0.00355	0.56616	-0.28
Mof_O 	O 	0.28769	0.11929	0.51434	-2.357
Mof_H 	H 	0.3023	0.0806	0.4942	0.577
Mof_O 	O 	0.08729	0.30272	0.521	-2.012
Mof_H 	H 	0.1685	0.3387	0.5276	0.588
Mof_O 	O 	0.83769	0.28724	0.58072	-0.438
Mof_H 	H 	0.7391	0.296	0.5763	0.158
Mof_C 	C 	0.7023	0.0705	0.5931	0.873
Mof_H 	H 	0.6968	0.0042	0.6093	-0.245
Mof_H 	H 	0.6537	0.1295	0.6088	-0.34
Mof_O 	O 	0.61176	0.05539	0.55755	-2.363
Mof_H 	H 	0.6447	0.0002	0.5457	0.731
Mof_Li	Li	0.5098	0.6713	0.9687	7.749
_end
