data_functionalizedCrystal
_audit_creation_method	'EQeq! by Chris Wilmer'
_symmetry_space_group_name_H-M	'P1'
_symmetry_Int_Tables_number	1
_symmetry_cell_setting	triclinic
loop_
_symmetry_equiv_pos_as_xyz
  x,y,z
_cell_length_a	13.7327
_cell_length_b	13.7327
_cell_length_c	25.466
_cell_angle_alpha	90
_cell_angle_beta	90
_cell_angle_gamma	90
loop_
_atom_site_label
_atom_site_type_symbol
_atom_site_fract_x
_atom_site_fract_y
_atom_site_fract_z
_atom_site_charge
Mof_Ni	Ni	0.25231	0.40585	0.52372	1.075
Mof_Ni	Ni	0.74769	0.59415	0.52372	1.075
Mof_Ni	Ni	0.90585	0.75231	0.97628	1.075
Mof_Ni	Ni	0.09415	0.24769	0.97628	1.075
Mof_H 	H 	0.2947	0.301	0.4429	0.159
Mof_H 	H 	0.2486	0.4551	0.4136	-0.17
Mof_H 	H 	0.3277	0.505	0.3572	0.504
Mof_H 	H 	0.4045	0.4222	0.3661	0.49
Mof_H 	H 	0.2962	0.3956	0.3529	0.488
Mof_H 	H 	0.117	0.5683	0.5516	-0.027
Mof_H 	H 	0.0743	0.6532	0.6266	0.082
Mof_H 	H 	0.1936	0.442	0.7146	0.09
Mof_H 	H 	0.2485	0.38	0.6357	-0.045
Mof_H 	H 	0.0406	0.6525	0.7194	0.054
Mof_H 	H 	0.0544	0.3319	0.5385	-0.026
Mof_H 	H 	0.9716	0.1842	0.5676	0.072
Mof_H 	H 	0.2351	0.047	0.5624	0.067
Mof_H 	H 	0.3064	0.1967	0.5458	-0.003
Mof_H 	H 	0.0887	0.9466	0.5651	0.047
Mof_H 	H 	0.7053	0.699	0.4429	0.16
Mof_H 	H 	0.7514	0.5449	0.4136	-0.169
Mof_H 	H 	0.6723	0.495	0.3572	0.505
Mof_H 	H 	0.5955	0.5778	0.3661	0.491
Mof_H 	H 	0.7038	0.6044	0.3529	0.489
Mof_H 	H 	0.883	0.4317	0.5516	-0.026
Mof_H 	H 	0.9257	0.3468	0.6266	0.083
Mof_H 	H 	0.8064	0.558	0.7146	0.091
Mof_H 	H 	0.7515	0.62	0.6357	-0.044
Mof_H 	H 	0.9594	0.3475	0.7194	0.055
Mof_H 	H 	0.9456	0.6681	0.5385	-0.025
Mof_H 	H 	0.0284	0.8158	0.5676	0.073
Mof_H 	H 	0.7649	0.953	0.5624	0.067
Mof_H 	H 	0.6936	0.8033	0.5458	-0.003
Mof_H 	H 	0.9113	0.0534	0.5651	0.047
Mof_H 	H 	0.801	0.7947	0.0571	0.16
Mof_H 	H 	0.9551	0.7486	0.0864	-0.169
Mof_H 	H 	0.005	0.8277	0.1428	0.505
Mof_H 	H 	0.9222	0.9045	0.1339	0.491
Mof_H 	H 	0.8956	0.7962	0.1471	0.488
Mof_H 	H 	0.0683	0.617	0.9484	-0.026
Mof_H 	H 	0.1532	0.5743	0.8734	0.083
Mof_H 	H 	0.942	0.6936	0.7854	0.091
Mof_H 	H 	0.88	0.7485	0.8643	-0.044
Mof_H 	H 	0.1525	0.5406	0.7806	0.055
Mof_H 	H 	0.8319	0.5544	0.9615	-0.025
Mof_H 	H 	0.6842	0.4716	0.9324	0.073
Mof_H 	H 	0.547	0.7351	0.9376	0.067
Mof_H 	H 	0.6967	0.8064	0.9542	-0.003
Mof_H 	H 	0.4466	0.5887	0.9349	0.047
Mof_H 	H 	0.199	0.2053	0.0571	0.16
Mof_H 	H 	0.0449	0.2514	0.0864	-0.169
Mof_H 	H 	0.995	0.1723	0.1428	0.505
Mof_H 	H 	0.0778	0.0955	0.1339	0.491
Mof_H 	H 	0.1044	0.2038	0.1471	0.488
Mof_H 	H 	0.9317	0.383	0.9484	-0.026
Mof_H 	H 	0.8468	0.4257	0.8734	0.083
Mof_H 	H 	0.058	0.3064	0.7854	0.091
Mof_H 	H 	0.12	0.2515	0.8643	-0.044
Mof_H 	H 	0.8475	0.4594	0.7806	0.055
Mof_H 	H 	0.1681	0.4456	0.9615	-0.025
Mof_H 	H 	0.3158	0.5284	0.9324	0.073
Mof_H 	H 	0.453	0.2649	0.9376	0.067
Mof_H 	H 	0.3033	0.1936	0.9542	-0.003
Mof_H 	H 	0.5534	0.4113	0.9349	0.047
Mof_C 	C 	0.3335	0.5349	0.4508	0.08
Mof_C 	C 	0.317	0.44	0.4201	0.701
Mof_C 	C 	0.338	0.441	0.371	-1.627
Mof_C 	C 	0.1379	0.5471	0.5844	0.076
Mof_C 	C 	0.1072	0.5943	0.6298	-0.187
Mof_C 	C 	0.1235	0.5574	0.6789	0.128
Mof_C 	C 	0.1793	0.4723	0.6828	-0.214
Mof_C 	C 	0.2119	0.4369	0.6336	0.138
Mof_C 	C 	0.0851	0.6027	0.7255	-0.099
Mof_C 	C 	0.0909	0.2764	0.5455	0.055
Mof_C 	C 	0.0379	0.1847	0.5603	-0.15
Mof_C 	C 	0.092	0.1038	0.5623	0.089
Mof_C 	C 	0.1981	0.1032	0.5585	-0.148
Mof_C 	C 	0.2389	0.1942	0.5485	0.054
Mof_C 	C 	0.0471	0.0017	0.5669	-0.077
Mof_C 	C 	0.6665	0.4651	0.4508	0.08
Mof_C 	C 	0.683	0.56	0.4201	0.701
Mof_C 	C 	0.662	0.559	0.371	-1.627
Mof_C 	C 	0.8621	0.4529	0.5844	0.076
Mof_C 	C 	0.8928	0.4057	0.6298	-0.187
Mof_C 	C 	0.8765	0.4426	0.6789	0.128
Mof_C 	C 	0.8207	0.5277	0.6828	-0.214
Mof_C 	C 	0.7881	0.5631	0.6336	0.138
Mof_C 	C 	0.9149	0.3973	0.7255	-0.099
Mof_C 	C 	0.9091	0.7236	0.5455	0.055
Mof_C 	C 	0.9621	0.8153	0.5603	-0.15
Mof_C 	C 	0.908	0.8962	0.5623	0.089
Mof_C 	C 	0.8019	0.8968	0.5585	-0.148
Mof_C 	C 	0.7611	0.8058	0.5485	0.054
Mof_C 	C 	0.9529	0.9983	0.5669	-0.077
Mof_C 	C 	0.0349	0.8335	0.0492	0.08
Mof_C 	C 	0.94	0.817	0.0799	0.701
Mof_C 	C 	0.941	0.838	0.129	-1.627
Mof_C 	C 	0.0471	0.6379	0.9156	0.076
Mof_C 	C 	0.0943	0.6072	0.8702	-0.187
Mof_C 	C 	0.0574	0.6235	0.8211	0.128
Mof_C 	C 	0.9723	0.6793	0.8172	-0.214
Mof_C 	C 	0.9369	0.7119	0.8664	0.138
Mof_C 	C 	0.1027	0.5851	0.7745	-0.099
Mof_C 	C 	0.7764	0.5909	0.9545	0.055
Mof_C 	C 	0.6847	0.5379	0.9397	-0.15
Mof_C 	C 	0.6038	0.592	0.9377	0.089
Mof_C 	C 	0.6032	0.6981	0.9415	-0.148
Mof_C 	C 	0.6942	0.7389	0.9515	0.054
Mof_C 	C 	0.5017	0.5471	0.9331	-0.076
Mof_C 	C 	0.9651	0.1665	0.0492	0.08
Mof_C 	C 	0.06	0.183	0.0799	0.701
Mof_C 	C 	0.059	0.162	0.129	-1.627
Mof_C 	C 	0.9529	0.3621	0.9156	0.076
Mof_C 	C 	0.9057	0.3928	0.8702	-0.187
Mof_C 	C 	0.9426	0.3765	0.8211	0.128
Mof_C 	C 	0.0277	0.3207	0.8172	-0.214
Mof_C 	C 	0.0631	0.2881	0.8664	0.138
Mof_C 	C 	0.8973	0.4149	0.7745	-0.099
Mof_C 	C 	0.2236	0.4091	0.9545	0.055
Mof_C 	C 	0.3153	0.4621	0.9397	-0.15
Mof_C 	C 	0.3962	0.408	0.9377	0.089
Mof_C 	C 	0.3968	0.3019	0.9415	-0.148
Mof_C 	C 	0.3058	0.2611	0.9515	0.054
Mof_C 	C 	0.4983	0.4529	0.9331	-0.076
Mof_N 	N 	0.294	0.3609	0.4528	-0.437
Mof_N 	N 	0.2004	0.4678	0.5887	-0.276
Mof_N 	N 	0.1888	0.2824	0.5419	-0.258
Mof_N 	N 	0.706	0.6391	0.4528	-0.437
Mof_N 	N 	0.7996	0.5322	0.5887	-0.276
Mof_N 	N 	0.8112	0.7176	0.5419	-0.258
Mof_N 	N 	0.8609	0.794	0.0472	-0.437
Mof_N 	N 	0.9678	0.7004	0.9113	-0.276
Mof_N 	N 	0.7824	0.6888	0.9581	-0.258
Mof_N 	N 	0.1391	0.206	0.0472	-0.437
Mof_N 	N 	0.0322	0.2996	0.9113	-0.276
Mof_N 	N 	0.2176	0.3112	0.9581	-0.258
Mof_O 	O 	0.2952	0.533	0.4976	-0.383
Mof_O 	O 	0.3715	0.6066	0.4344	-0.333
Mof_O 	O 	0.7048	0.467	0.4976	-0.383
Mof_O 	O 	0.6285	0.3934	0.4344	-0.333
Mof_O 	O 	0.033	0.7952	0.0024	-0.383
Mof_O 	O 	0.1066	0.8715	0.0656	-0.333
Mof_O 	O 	0.967	0.2048	0.0024	-0.383
Mof_O 	O 	0.8934	0.1285	0.0656	-0.333
Mof_Ni	Ni	0.40585	0.74769	0.47628	1.076
Mof_Ni	Ni	0.59415	0.25231	0.47628	1.076
Mof_Ni	Ni	0.75231	0.09415	0.02372	1.076
Mof_Ni	Ni	0.24769	0.90585	0.02372	1.076
Mof_H 	H 	0.301	0.7053	0.5571	0.16
Mof_H 	H 	0.4551	0.7514	0.5864	-0.169
Mof_H 	H 	0.505	0.6723	0.6428	0.505
Mof_H 	H 	0.4222	0.5955	0.6339	0.491
Mof_H 	H 	0.3956	0.7038	0.6471	0.489
Mof_H 	H 	0.5683	0.883	0.4484	-0.026
Mof_H 	H 	0.6532	0.9257	0.3734	0.083
Mof_H 	H 	0.442	0.8064	0.2854	0.091
Mof_H 	H 	0.38	0.7515	0.3643	-0.044
Mof_H 	H 	0.6525	0.9594	0.2806	0.055
Mof_H 	H 	0.3319	0.9456	0.4615	-0.025
Mof_H 	H 	0.1842	0.0284	0.4324	0.073
Mof_H 	H 	0.047	0.7649	0.4376	0.067
Mof_H 	H 	0.1967	0.6936	0.4542	-0.003
Mof_H 	H 	0.9466	0.9113	0.4349	0.047
Mof_H 	H 	0.699	0.2947	0.5571	0.16
Mof_H 	H 	0.5449	0.2486	0.5864	-0.169
Mof_H 	H 	0.495	0.3277	0.6428	0.505
Mof_H 	H 	0.5778	0.4045	0.6339	0.491
Mof_H 	H 	0.6044	0.2962	0.6471	0.489
Mof_H 	H 	0.4317	0.117	0.4484	-0.026
Mof_H 	H 	0.3468	0.0743	0.3734	0.083
Mof_H 	H 	0.558	0.1936	0.2854	0.091
Mof_H 	H 	0.62	0.2485	0.3643	-0.044
Mof_H 	H 	0.3475	0.0406	0.2806	0.055
Mof_H 	H 	0.6681	0.0544	0.4615	-0.025
Mof_H 	H 	0.8158	0.9716	0.4324	0.073
Mof_H 	H 	0.953	0.2351	0.4376	0.067
Mof_H 	H 	0.8033	0.3064	0.4542	-0.003
Mof_H 	H 	0.0534	0.0887	0.4349	0.047
Mof_H 	H 	0.7947	0.199	0.9429	0.16
Mof_H 	H 	0.7486	0.0449	0.9136	-0.169
Mof_H 	H 	0.8277	0.995	0.8572	0.505
Mof_H 	H 	0.9045	0.0778	0.8661	0.491
Mof_H 	H 	0.7962	0.1044	0.8529	0.488
Mof_H 	H 	0.617	0.9317	0.0516	-0.026
Mof_H 	H 	0.5743	0.8468	0.1266	0.083
Mof_H 	H 	0.6936	0.058	0.2146	0.091
Mof_H 	H 	0.7485	0.12	0.1357	-0.044
Mof_H 	H 	0.5406	0.8475	0.2194	0.055
Mof_H 	H 	0.5544	0.1681	0.0385	-0.025
Mof_H 	H 	0.4716	0.3158	0.0676	0.073
Mof_H 	H 	0.7351	0.453	0.0624	0.067
Mof_H 	H 	0.8064	0.3033	0.0458	-0.003
Mof_H 	H 	0.5887	0.5534	0.0651	0.047
Mof_H 	H 	0.2053	0.801	0.9429	0.16
Mof_H 	H 	0.2514	0.9551	0.9136	-0.169
Mof_H 	H 	0.1723	0.005	0.8572	0.505
Mof_H 	H 	0.0955	0.9222	0.8661	0.491
Mof_H 	H 	0.2038	0.8956	0.8529	0.488
Mof_H 	H 	0.383	0.0683	0.0516	-0.026
Mof_H 	H 	0.4257	0.1532	0.1266	0.083
Mof_H 	H 	0.3064	0.942	0.2146	0.091
Mof_H 	H 	0.2515	0.88	0.1357	-0.044
Mof_H 	H 	0.4594	0.1525	0.2194	0.055
Mof_H 	H 	0.4456	0.8319	0.0385	-0.025
Mof_H 	H 	0.5284	0.6842	0.0676	0.073
Mof_H 	H 	0.2649	0.547	0.0624	0.067
Mof_H 	H 	0.1936	0.6967	0.0458	-0.003
Mof_H 	H 	0.4113	0.4466	0.0651	0.047
Mof_C 	C 	0.5349	0.6665	0.5492	0.08
Mof_C 	C 	0.44	0.683	0.5799	0.701
Mof_C 	C 	0.441	0.662	0.629	-1.627
Mof_C 	C 	0.5471	0.8621	0.4156	0.076
Mof_C 	C 	0.5943	0.8928	0.3702	-0.187
Mof_C 	C 	0.5574	0.8765	0.3211	0.128
Mof_C 	C 	0.4723	0.8207	0.3172	-0.214
Mof_C 	C 	0.4369	0.7881	0.3664	0.138
Mof_C 	C 	0.6027	0.9149	0.2745	-0.099
Mof_C 	C 	0.2764	0.9091	0.4545	0.055
Mof_C 	C 	0.1847	0.9621	0.4397	-0.15
Mof_C 	C 	0.1038	0.908	0.4377	0.089
Mof_C 	C 	0.1032	0.8019	0.4415	-0.148
Mof_C 	C 	0.1942	0.7611	0.4515	0.054
Mof_C 	C 	0.0017	0.9529	0.4331	-0.077
Mof_C 	C 	0.4651	0.3335	0.5492	0.08
Mof_C 	C 	0.56	0.317	0.5799	0.701
Mof_C 	C 	0.559	0.338	0.629	-1.627
Mof_C 	C 	0.4529	0.1379	0.4156	0.076
Mof_C 	C 	0.4057	0.1072	0.3702	-0.187
Mof_C 	C 	0.4426	0.1235	0.3211	0.128
Mof_C 	C 	0.5277	0.1793	0.3172	-0.214
Mof_C 	C 	0.5631	0.2119	0.3664	0.138
Mof_C 	C 	0.3973	0.0851	0.2745	-0.099
Mof_C 	C 	0.7236	0.0909	0.4545	0.055
Mof_C 	C 	0.8153	0.0379	0.4397	-0.15
Mof_C 	C 	0.8962	0.092	0.4377	0.089
Mof_C 	C 	0.8968	0.1981	0.4415	-0.148
Mof_C 	C 	0.8058	0.2389	0.4515	0.054
Mof_C 	C 	0.9983	0.0471	0.4331	-0.077
Mof_C 	C 	0.8335	0.9651	0.9508	0.08
Mof_C 	C 	0.817	0.06	0.9201	0.701
Mof_C 	C 	0.838	0.059	0.871	-1.627
Mof_C 	C 	0.6379	0.9529	0.0844	0.076
Mof_C 	C 	0.6072	0.9057	0.1298	-0.187
Mof_C 	C 	0.6235	0.9426	0.1789	0.128
Mof_C 	C 	0.6793	0.0277	0.1828	-0.214
Mof_C 	C 	0.7119	0.0631	0.1336	0.138
Mof_C 	C 	0.5851	0.8973	0.2255	-0.099
Mof_C 	C 	0.5909	0.2236	0.0455	0.055
Mof_C 	C 	0.5379	0.3153	0.0603	-0.15
Mof_C 	C 	0.592	0.3962	0.0623	0.089
Mof_C 	C 	0.6981	0.3968	0.0585	-0.148
Mof_C 	C 	0.7389	0.3058	0.0485	0.054
Mof_C 	C 	0.5471	0.4983	0.0669	-0.076
Mof_C 	C 	0.1665	0.0349	0.9508	0.08
Mof_C 	C 	0.183	0.94	0.9201	0.701
Mof_C 	C 	0.162	0.941	0.871	-1.627
Mof_C 	C 	0.3621	0.0471	0.0844	0.076
Mof_C 	C 	0.3928	0.0943	0.1298	-0.187
Mof_C 	C 	0.3765	0.0574	0.1789	0.128
Mof_C 	C 	0.3207	0.9723	0.1828	-0.214
Mof_C 	C 	0.2881	0.9369	0.1336	0.138
Mof_C 	C 	0.4149	0.1027	0.2255	-0.099
Mof_C 	C 	0.4091	0.7764	0.0455	0.055
Mof_C 	C 	0.4621	0.6847	0.0603	-0.15
Mof_C 	C 	0.408	0.6038	0.0623	0.089
Mof_C 	C 	0.3019	0.6032	0.0585	-0.148
Mof_C 	C 	0.2611	0.6942	0.0485	0.054
Mof_C 	C 	0.4529	0.5017	0.0669	-0.076
Mof_N 	N 	0.3609	0.706	0.5472	-0.437
Mof_N 	N 	0.4678	0.7996	0.4113	-0.276
Mof_N 	N 	0.2824	0.8112	0.4581	-0.258
Mof_N 	N 	0.6391	0.294	0.5472	-0.437
Mof_N 	N 	0.5322	0.2004	0.4113	-0.276
Mof_N 	N 	0.7176	0.1888	0.4581	-0.258
Mof_N 	N 	0.794	0.1391	0.9528	-0.437
Mof_N 	N 	0.7004	0.0322	0.0887	-0.276
Mof_N 	N 	0.6888	0.2176	0.0419	-0.258
Mof_N 	N 	0.206	0.8609	0.9528	-0.437
Mof_N 	N 	0.2996	0.9678	0.0887	-0.276
Mof_N 	N 	0.3112	0.7824	0.0419	-0.258
Mof_O 	O 	0.533	0.7048	0.5024	-0.383
Mof_O 	O 	0.6066	0.6285	0.5656	-0.333
Mof_O 	O 	0.467	0.2952	0.5024	-0.383
Mof_O 	O 	0.3934	0.3715	0.5656	-0.333
Mof_O 	O 	0.7952	0.967	0.9976	-0.383
Mof_O 	O 	0.8715	0.8934	0.9344	-0.333
Mof_O 	O 	0.2048	0.033	0.9976	-0.383
Mof_O 	O 	0.1285	0.1066	0.9344	-0.333
_end
