data_functionalizedCrystal
_audit_creation_method	'EQeq! by Chris Wilmer'
_symmetry_space_group_name_H-M	'P1'
_symmetry_Int_Tables_number	1
_symmetry_cell_setting	triclinic
loop_
_symmetry_equiv_pos_as_xyz
  x,y,z
_cell_length_a	11.9272
_cell_length_b	13.954
_cell_length_c	20.185
_cell_angle_alpha	90
_cell_angle_beta	90
_cell_angle_gamma	90
loop_
_atom_site_label
_atom_site_type_symbol
_atom_site_fract_x
_atom_site_fract_y
_atom_site_fract_z
_atom_site_charge
Mof_Cu	Cu	0.26257	0.07272	-0	0.876
Mof_Cu	Cu	0.23743	0.57272	0.5	0.907
Mof_Cu	Cu	0.73743	0.92728	-0	0.875
Mof_Cu	Cu	0.76257	0.42728	0.5	0.906
Mof_H 	H 	0.0366	0.099	-0	0.029
Mof_H 	H 	0.5143	0.6652	0.3857	0.048
Mof_H 	H 	0.031	0.7788	0.2268	0.092
Mof_H 	H 	0.0143	0.8348	0.8857	0.057
Mof_H 	H 	0.4857	0.3348	0.6143	0.049
Mof_H 	H 	0.969	0.2212	0.7732	0.094
Mof_H 	H 	0.1673	0.4019	0.2657	0.086
Mof_H 	H 	0.5732	0.8008	0.1721	0.009
Mof_H 	H 	0.3327	0.9019	0.2343	0.083
Mof_H 	H 	0.3645	0.8259	0.3401	0.022
Mof_H 	H 	0.7922	0.5104	0.3549	0.009
Mof_H 	H 	0.2078	0.4896	0.6451	0.011
Mof_H 	H 	0.469	0.2788	0.7268	0.092
Mof_H 	H 	0.7078	0.0104	0.1451	0.008
Mof_H 	H 	0.6355	0.1741	0.3401	0.022
Mof_H 	H 	0.531	0.7212	0.2732	0.094
Mof_H 	H 	0.2078	0.4896	0.3549	0.009
Mof_H 	H 	0.469	0.2788	0.2732	0.094
Mof_H 	H 	0.6673	0.0981	0.2343	0.083
Mof_H 	H 	0.2922	0.9896	0.1451	0.008
Mof_H 	H 	0.531	0.7212	0.7268	0.092
Mof_H 	H 	0.0143	0.8348	0.1143	0.047
Mof_H 	H 	0.3327	0.9019	0.7657	0.086
Mof_H 	H 	0.9857	0.1652	0.8857	0.057
Mof_H 	H 	0.1355	0.3259	0.1599	0.014
Mof_H 	H 	0.4857	0.3348	0.3857	0.048
Mof_H 	H 	0.9268	0.3008	0.3279	0.015
Mof_H 	H 	0.1355	0.3259	0.8401	0.031
Mof_H 	H 	0.0732	0.6992	0.3279	0.015
Mof_H 	H 	0.1673	0.4019	0.7343	0.084
Mof_H 	H 	0.5143	0.6652	0.6143	0.049
Mof_H 	H 	0.7922	0.5104	0.6451	0.011
Mof_H 	H 	0.6673	0.0981	0.7657	0.086
Mof_H 	H 	0.969	0.2212	0.2268	0.092
Mof_H 	H 	0.031	0.7788	0.7732	0.094
Mof_H 	H 	0.5366	0.401	0.5	0.041
Mof_H 	H 	0.5732	0.8008	0.8279	0.023
Mof_H 	H 	0.4268	0.1992	0.1721	0.009
Mof_H 	H 	0.9857	0.1652	0.1143	0.047
Mof_H 	H 	0.9634	0.901	-0	0.029
Mof_H 	H 	0.0732	0.6992	0.6721	0.016
Mof_H 	H 	0.3645	0.8259	0.6599	0.022
Mof_H 	H 	0.8645	0.6741	0.8401	0.031
Mof_H 	H 	0.6355	0.1741	0.6599	0.022
Mof_H 	H 	0.8645	0.6741	0.1599	0.014
Mof_H 	H 	0.4634	0.599	0.5	0.041
Mof_H 	H 	0.2922	0.9896	0.8549	0.015
Mof_H 	H 	0.4268	0.1992	0.8279	0.023
Mof_H 	H 	0.8327	0.5981	0.7343	0.084
Mof_H 	H 	0.9268	0.3008	0.6721	0.016
Mof_H 	H 	0.7078	0.0104	0.8549	0.015
Mof_H 	H 	0.8327	0.5981	0.2657	0.086
Mof_C 	C 	0.8732	0.2587	0.3088	0.088
Mof_C 	C 	0.1268	0.7413	0.6912	0.09
Mof_C 	C 	0.1775	0.8467	0.7745	0.124
Mof_C 	C 	0.7548	0.7999	0.096	0.381
Mof_C 	C 	0.8393	0.1036	0.8439	-0.052
Mof_C 	C 	0.2976	0.8138	0.684	0.077
Mof_C 	C 	0.7778	0.6383	0.246	-0.165
Mof_C 	C 	0.7024	0.1862	0.316	0.075
Mof_C 	C 	0.2778	0.8617	0.746	-0.156
Mof_C 	C 	0.9256	0.121	0.1097	0.027
Mof_C 	C 	0.2765	0.2538	0.839	-0.127
Mof_C 	C 	0.2548	0.7001	0.404	0.375
Mof_C 	C 	0.1775	0.8467	0.2255	0.12
Mof_C 	C 	0.6004	0.7115	0.7489	-0.159
Mof_C 	C 	0.2452	0.2001	0.096	0.381
Mof_C 	C 	0.6607	0.6036	0.3439	-0.06
Mof_C 	C 	0.7235	0.7462	0.839	-0.127
Mof_C 	C 	0.7222	0.1383	0.746	-0.156
Mof_C 	C 	0.8393	0.1036	0.1561	-0.058
Mof_C 	C 	0.2976	0.8138	0.316	0.075
Mof_C 	C 	0.6607	0.6036	0.6561	-0.054
Mof_C 	C 	0.7778	0.6383	0.754	-0.147
Mof_C 	C 	0.6775	0.6533	0.2745	0.126
Mof_C 	C 	0.7743	0.0356	0.1259	0.044
Mof_C 	C 	0.2548	0.7001	0.596	0.376
Mof_C 	C 	0.7976	0.6862	0.816	0.067
Mof_C 	C 	0.8996	0.2115	0.7511	-0.167
Mof_C 	C 	0.2452	0.2001	0.904	0.366
Mof_C 	C 	0.7024	0.1862	0.684	0.077
Mof_C 	C 	0.2222	0.3617	0.754	-0.147
Mof_C 	C 	0.2222	0.3617	0.246	-0.165
Mof_C 	C 	0.3225	0.3467	0.2745	0.126
Mof_C 	C 	0.8225	0.1533	0.2255	0.12
Mof_C 	C 	0.1268	0.7413	0.3088	0.088
Mof_C 	C 	0.7257	0.5356	0.3741	0.048
Mof_C 	C 	0.7548	0.7999	0.904	0.366
Mof_C 	C 	0.3996	0.2885	0.2511	-0.177
Mof_C 	C 	0.2257	0.9644	0.1259	0.044
Mof_C 	C 	0.1607	0.8964	0.1561	-0.058
Mof_C 	C 	0.4747	0.4492	0.5	0.031
Mof_C 	C 	0.8732	0.2587	0.6912	0.09
Mof_C 	C 	0.9256	0.121	0.8903	0.035
Mof_C 	C 	0.4256	0.379	0.6097	0.032
Mof_C 	C 	0.2235	0.7538	0.661	-0.142
Mof_C 	C 	0.7257	0.5356	0.6259	0.046
Mof_C 	C 	0.7743	0.0356	0.8741	0.048
Mof_C 	C 	0.9747	0.0508	-0	-0.011
Mof_C 	C 	0.7452	0.2999	0.596	0.376
Mof_C 	C 	0.2257	0.9644	0.8741	0.048
Mof_C 	C 	0.5744	0.621	0.3903	0.034
Mof_C 	C 	0.7765	0.2462	0.661	-0.142
Mof_C 	C 	0.3393	0.3964	0.3439	-0.06
Mof_C 	C 	0.0744	0.879	0.1097	0.027
Mof_C 	C 	0.6775	0.6533	0.7255	0.117
Mof_C 	C 	0.2743	0.4644	0.6259	0.046
Mof_C 	C 	0.2765	0.2538	0.161	-0.155
Mof_C 	C 	0.3996	0.2885	0.7489	-0.159
Mof_C 	C 	0.1004	0.7885	0.7511	-0.167
Mof_C 	C 	0.3393	0.3964	0.6561	-0.054
Mof_C 	C 	0.7235	0.7462	0.161	-0.155
Mof_C 	C 	0.0744	0.879	0.8903	0.035
Mof_C 	C 	0.2743	0.4644	0.3741	0.048
Mof_C 	C 	0.6268	0.7587	0.8088	0.08
Mof_C 	C 	0.0253	0.9492	-0	-0.011
Mof_C 	C 	0.7222	0.1383	0.254	-0.157
Mof_C 	C 	0.2778	0.8617	0.254	-0.157
Mof_C 	C 	0.8996	0.2115	0.2489	-0.169
Mof_C 	C 	0.2235	0.7538	0.339	-0.143
Mof_C 	C 	0.4256	0.379	0.3903	0.034
Mof_C 	C 	0.6268	0.7587	0.1912	0.095
Mof_C 	C 	0.8225	0.1533	0.7745	0.124
Mof_C 	C 	0.1607	0.8964	0.8439	-0.052
Mof_C 	C 	0.3732	0.2413	0.1912	0.095
Mof_C 	C 	0.3732	0.2413	0.8088	0.08
Mof_C 	C 	0.7765	0.2462	0.339	-0.143
Mof_C 	C 	0.5253	0.5508	0.5	0.031
Mof_C 	C 	0.2024	0.3138	0.816	0.067
Mof_C 	C 	0.2024	0.3138	0.184	0.082
Mof_C 	C 	0.5744	0.621	0.6097	0.032
Mof_C 	C 	0.7452	0.2999	0.404	0.375
Mof_C 	C 	0.3225	0.3467	0.7255	0.117
Mof_C 	C 	0.6004	0.7115	0.2511	-0.177
Mof_C 	C 	0.1004	0.7885	0.2489	-0.169
Mof_C 	C 	0.7976	0.6862	0.184	0.082
Mof_N 	N 	0.813	0.0084	0.9325	-0.16
Mof_N 	N 	0.187	0.9916	0.9325	-0.16
Mof_N 	N 	0.687	0.5084	0.5675	-0.181
Mof_N 	N 	0.9067	0.0639	0.0584	-0.084
Mof_N 	N 	0.0933	0.9361	0.9416	-0.05
Mof_N 	N 	0.5933	0.5639	0.4416	-0.085
Mof_N 	N 	0.9067	0.0639	0.9416	-0.05
Mof_N 	N 	0.4067	0.4361	0.5584	-0.085
Mof_N 	N 	0.813	0.0084	0.0675	-0.188
Mof_N 	N 	0.0933	0.9361	0.0584	-0.084
Mof_N 	N 	0.313	0.4916	0.5675	-0.181
Mof_N 	N 	0.687	0.5084	0.4325	-0.181
Mof_N 	N 	0.4067	0.4361	0.4416	-0.085
Mof_N 	N 	0.5933	0.5639	0.5584	-0.085
Mof_N 	N 	0.187	0.9916	0.0675	-0.188
Mof_N 	N 	0.313	0.4916	0.4325	-0.181
Mof_O 	O 	0.8492	0.7914	0.0744	-0.326
Mof_O 	O 	0.3216	0.1533	0.9279	-0.373
Mof_O 	O 	0.1508	0.2086	0.0744	-0.326
Mof_O 	O 	0.6784	0.8467	0.0721	-0.426
Mof_O 	O 	0.1508	0.2086	0.9256	-0.277
Mof_O 	O 	0.8492	0.7914	0.9256	-0.277
Mof_O 	O 	0.3216	0.1533	0.0721	-0.426
Mof_O 	O 	0.1784	0.6533	0.4279	-0.407
Mof_O 	O 	0.1784	0.6533	0.5721	-0.407
Mof_O 	O 	0.6508	0.2914	0.4256	-0.307
Mof_O 	O 	0.8216	0.3467	0.5721	-0.407
Mof_O 	O 	0.6508	0.2914	0.5744	-0.307
Mof_O 	O 	0.3492	0.7086	0.4256	-0.307
Mof_O 	O 	0.3492	0.7086	0.5744	-0.307
Mof_O 	O 	0.6784	0.8467	0.9279	-0.373
Mof_O 	O 	0.8216	0.3467	0.4279	-0.407
_end
