data_functionalizedCrystal
_audit_creation_method	'EQeq! by Chris Wilmer'
_symmetry_space_group_name_H-M	'P1'
_symmetry_Int_Tables_number	1
_symmetry_cell_setting	triclinic
loop_
_symmetry_equiv_pos_as_xyz
  x,y,z
_cell_length_a	10.3716
_cell_length_b	10.3716
_cell_length_c	19.1394
_cell_angle_alpha	90
_cell_angle_beta	90
_cell_angle_gamma	120
loop_
_atom_site_label
_atom_site_type_symbol
_atom_site_fract_x
_atom_site_fract_y
_atom_site_fract_z
_atom_site_charge
Mof_O 	O 	0.6526	0.5526	0.8255	-0.437
Mof_C 	C 	0.3942	0.3792	0.9661	0.093
Mof_N 	N 	0.261	0.283	0.9276	-0.061
Mof_O 	O 	0.4474	0.1	0.8255	-0.437
Mof_C 	C 	0.6208	0.015	0.9661	0.092
Mof_N 	N 	0.717	0.978	0.9276	-0.061
Mof_O 	O 	0.9	0.3474	0.8255	-0.438
Mof_C 	C 	0.985	0.6058	0.9661	0.093
Mof_N 	N 	0.022	0.739	0.9276	-0.06
Mof_O 	O 	0.3474	0.4474	0.3255	-0.437
Mof_C 	C 	0.6058	0.6208	0.4661	0.093
Mof_N 	N 	0.739	0.717	0.4276	-0.061
Mof_O 	O 	0.5526	0.9	0.3255	-0.436
Mof_C 	C 	0.3792	0.985	0.4661	0.094
Mof_N 	N 	0.283	0.022	0.4276	-0.06
Mof_O 	O 	0.1	0.6526	0.3255	-0.436
Mof_C 	C 	0.015	0.3942	0.4661	0.094
Mof_N 	N 	0.978	0.261	0.4276	-0.06
Mof_O 	O 	0.5526	0.6526	0.1745	-0.436
Mof_C 	C 	0.3792	0.3942	0.0339	0.094
Mof_N 	N 	0.283	0.261	0.0724	-0.06
Mof_O 	O 	0.1	0.4474	0.1745	-0.436
Mof_C 	C 	0.015	0.6208	0.0339	0.093
Mof_N 	N 	0.978	0.717	0.0724	-0.06
Mof_O 	O 	0.3474	0.9	0.1745	-0.437
Mof_C 	C 	0.6058	0.985	0.0339	0.094
Mof_N 	N 	0.739	0.022	0.0724	-0.059
Mof_O 	O 	0.4474	0.3474	0.6745	-0.436
Mof_C 	C 	0.6208	0.6058	0.5339	0.094
Mof_N 	N 	0.717	0.739	0.5724	-0.06
Mof_O 	O 	0.9	0.5526	0.6745	-0.436
Mof_C 	C 	0.985	0.3792	0.5339	0.094
Mof_N 	N 	0.022	0.283	0.5724	-0.06
Mof_O 	O 	0.6526	0.1	0.6745	-0.436
Mof_C 	C 	0.3942	0.015	0.5339	0.094
Mof_N 	N 	0.261	0.978	0.5724	-0.06
Mof_O 	O 	0.3474	0.4474	0.1745	-0.436
Mof_C 	C 	0.6058	0.6208	0.0339	0.094
Mof_N 	N 	0.739	0.717	0.0724	-0.06
Mof_O 	O 	0.5526	0.9	0.1745	-0.436
Mof_C 	C 	0.3792	0.985	0.0339	0.093
Mof_N 	N 	0.283	0.022	0.0724	-0.06
Mof_O 	O 	0.1	0.6526	0.1745	-0.437
Mof_C 	C 	0.015	0.3942	0.0339	0.094
Mof_N 	N 	0.978	0.261	0.0724	-0.059
Mof_O 	O 	0.6526	0.5526	0.6745	-0.436
Mof_C 	C 	0.3942	0.3792	0.5339	0.094
Mof_N 	N 	0.261	0.283	0.5724	-0.06
Mof_O 	O 	0.4474	0.1	0.6745	-0.436
Mof_C 	C 	0.6208	0.015	0.5339	0.094
Mof_N 	N 	0.717	0.978	0.5724	-0.06
Mof_O 	O 	0.9	0.3474	0.6745	-0.436
Mof_C 	C 	0.985	0.6058	0.5339	0.094
Mof_N 	N 	0.022	0.739	0.5724	-0.06
Mof_O 	O 	0.4474	0.3474	0.8255	-0.436
Mof_C 	C 	0.6208	0.6058	0.9661	0.094
Mof_N 	N 	0.717	0.739	0.9276	-0.06
Mof_O 	O 	0.9	0.5526	0.8255	-0.436
Mof_C 	C 	0.985	0.3792	0.9661	0.093
Mof_N 	N 	0.022	0.283	0.9276	-0.06
Mof_O 	O 	0.6526	0.1	0.8255	-0.437
Mof_C 	C 	0.3942	0.015	0.9661	0.094
Mof_N 	N 	0.261	0.978	0.9276	-0.059
Mof_O 	O 	0.5526	0.6526	0.3255	-0.436
Mof_C 	C 	0.3792	0.3942	0.4661	0.094
Mof_N 	N 	0.283	0.261	0.4276	-0.06
Mof_O 	O 	0.1	0.4474	0.3255	-0.436
Mof_C 	C 	0.015	0.6208	0.4661	0.094
Mof_N 	N 	0.978	0.717	0.4276	-0.06
Mof_O 	O 	0.3474	0.9	0.3255	-0.436
Mof_C 	C 	0.6058	0.985	0.4661	0.094
Mof_N 	N 	0.739	0.022	0.4276	-0.06
Mof_Fe	Fe	0.7672	0.5344	0.75	1.143
Mof_Fe	Fe	0.4656	0.2328	0.75	1.143
Mof_Fe	Fe	0.7672	0.2328	0.75	1.142
Mof_Fe	Fe	0.2328	0.4656	0.25	1.143
Mof_Fe	Fe	0.5344	0.7672	0.25	1.143
Mof_Fe	Fe	0.2328	0.7672	0.25	1.142
Mof_O 	O 	0.66667	0.33333	0.75	-0.678
Mof_O 	O 	0.33333	0.66667	0.25	-0.678
Mof_C 	C 	0.5399	0.4601	0.8555	0.512
Mof_C 	C 	0.5122	0.4878	0.9278	-0.165
Mof_C 	C 	0.5399	0.0798	0.8555	0.512
Mof_C 	C 	0.5122	0.0244	0.9278	-0.165
Mof_C 	C 	0.9202	0.4601	0.8555	0.512
Mof_C 	C 	0.9756	0.4878	0.9278	-0.165
Mof_C 	C 	0.4601	0.5399	0.3555	0.512
Mof_C 	C 	0.4878	0.5122	0.4278	-0.165
Mof_C 	C 	0.4601	0.9202	0.3555	0.512
Mof_C 	C 	0.4878	0.9756	0.4278	-0.165
Mof_C 	C 	0.0798	0.5399	0.3555	0.512
Mof_C 	C 	0.0244	0.5122	0.4278	-0.165
Mof_C 	C 	0.4601	0.5399	0.1445	0.512
Mof_C 	C 	0.4878	0.5122	0.0722	-0.165
Mof_C 	C 	0.0798	0.5399	0.1445	0.512
Mof_C 	C 	0.0244	0.5122	0.0722	-0.165
Mof_C 	C 	0.4601	0.9202	0.1445	0.512
Mof_C 	C 	0.4878	0.9756	0.0722	-0.165
Mof_C 	C 	0.5399	0.4601	0.6445	0.512
Mof_C 	C 	0.5122	0.4878	0.5722	-0.165
Mof_C 	C 	0.9202	0.4601	0.6445	0.512
Mof_C 	C 	0.9756	0.4878	0.5722	-0.165
Mof_C 	C 	0.5399	0.0798	0.6445	0.512
Mof_C 	C 	0.5122	0.0244	0.5722	-0.165
_end
