data_functionalizedCrystal
_audit_creation_method	'EQeq! by Chris Wilmer'
_symmetry_space_group_name_H-M	'P1'
_symmetry_Int_Tables_number	1
_symmetry_cell_setting	triclinic
loop_
_symmetry_equiv_pos_as_xyz
  x,y,z
_cell_length_a	20.835
_cell_length_b	10.177
_cell_length_c	16.014
_cell_angle_alpha	90
_cell_angle_beta	106.12
_cell_angle_gamma	90
loop_
_atom_site_label
_atom_site_type_symbol
_atom_site_fract_x
_atom_site_fract_y
_atom_site_fract_z
_atom_site_charge
Mof_Cd	Cd	0.0596	0.10735	0.57743	0.391
Mof_O 	O 	0.05468	0.9762	0.6986	-0.279
Mof_O 	O 	0.01197	0.0905	0.426	-0.295
Mof_N 	N 	0.9691	0.2275	0.5824	-0.154
Mof_N 	N 	0.1525	0.0012	0.5636	-0.156
Mof_C 	C 	0.0114	0.8986	0.6558	0.309
Mof_C 	C 	0.9901	0.7869	0.7015	-0.058
Mof_C 	C 	0.976	0.6537	0.6544	0.008
Mof_C 	C 	0.0489	0.6054	0.6818	-0.013
Mof_C 	C 	0.926	0.5957	0.7184	-0.01
Mof_C 	C 	0.9199	0.7273	0.6694	0.009
Mof_C 	C 	0.9425	0.3205	0.5269	0.084
Mof_H 	H 	0.9674	0.3506	0.4891	0.006
Mof_C 	C 	0.8816	0.3777	0.5193	-0.128
Mof_H 	H 	0.8652	0.4431	0.4764	0.07
Mof_C 	C 	0.8446	0.3404	0.5734	0.055
Mof_C 	C 	0.8712	0.2417	0.6317	-0.119
Mof_H 	H 	0.8466	0.2084	0.6689	0.069
Mof_C 	C 	0.9327	0.1917	0.6361	0.069
Mof_H 	H 	0.9509	0.1279	0.6795	0.028
Mof_C 	C 	0.7776	0.3981	0.5688	0.056
Mof_C 	C 	0.7443	0.4799	0.5037	-0.13
Mof_H 	H 	0.7636	0.5033	0.4585	0.07
Mof_C 	C 	0.183	0.0283	0.5038	0.079
Mof_H 	H 	0.1611	0.0852	0.4577	0.01
Mof_C 	C 	0.1857	0.9238	0.6271	0.075
Mof_H 	H 	0.1657	0.9041	0.6722	0.016
Mof_C 	C 	0.7469	0.3699	0.6328	-0.127
Mof_H 	H 	0.7679	0.3139	0.68	0.068
Mof_Cd	Cd	0.5596	0.60735	0.57743	0.391
Mof_O 	O 	0.55468	0.4762	0.6986	-0.28
Mof_O 	O 	0.51197	0.5905	0.426	-0.295
Mof_N 	N 	0.4691	0.7275	0.5824	-0.155
Mof_N 	N 	0.6525	0.5012	0.5636	-0.157
Mof_C 	C 	0.5114	0.3986	0.6558	0.306
Mof_C 	C 	0.4901	0.2869	0.7015	-0.056
Mof_C 	C 	0.476	0.1537	0.6544	0.007
Mof_C 	C 	0.5489	0.1054	0.6818	-0.013
Mof_C 	C 	0.426	0.0957	0.7184	-0.01
Mof_C 	C 	0.4199	0.2273	0.6694	0.009
Mof_C 	C 	0.4425	0.8205	0.5269	0.084
Mof_H 	H 	0.4674	0.8506	0.4891	0.006
Mof_C 	C 	0.3816	0.8777	0.5193	-0.128
Mof_H 	H 	0.3652	0.9431	0.4764	0.07
Mof_C 	C 	0.3446	0.8404	0.5734	0.055
Mof_C 	C 	0.3712	0.7417	0.6317	-0.118
Mof_H 	H 	0.3466	0.7084	0.6689	0.069
Mof_C 	C 	0.4327	0.6917	0.6361	0.069
Mof_H 	H 	0.4509	0.6279	0.6795	0.029
Mof_C 	C 	0.2776	0.8981	0.5688	0.057
Mof_C 	C 	0.2443	0.9799	0.5037	-0.13
Mof_H 	H 	0.2636	0.0033	0.4585	0.07
Mof_C 	C 	0.683	0.5283	0.5038	0.079
Mof_H 	H 	0.6611	0.5852	0.4577	0.01
Mof_C 	C 	0.6857	0.4238	0.6271	0.074
Mof_H 	H 	0.6657	0.4041	0.6722	0.016
Mof_C 	C 	0.2469	0.8699	0.6328	-0.127
Mof_H 	H 	0.2679	0.8139	0.68	0.069
Mof_Cd	Cd	0.9404	0.10735	0.92257	0.387
Mof_O 	O 	0.94532	0.9762	0.8014	-0.279
Mof_O 	O 	0.98803	0.0905	0.074	-0.291
Mof_N 	N 	0.0309	0.2275	0.9176	-0.155
Mof_N 	N 	0.8475	0.0012	0.9364	-0.156
Mof_C 	C 	0.9886	0.8986	0.8442	0.301
Mof_C 	C 	0.0099	0.7869	0.7985	-0.053
Mof_C 	C 	0.024	0.6537	0.8456	0.008
Mof_C 	C 	0.9511	0.6054	0.8182	-0.014
Mof_C 	C 	0.074	0.5957	0.7816	-0.009
Mof_C 	C 	0.0801	0.7273	0.8306	0.008
Mof_C 	C 	0.0575	0.3205	0.9731	0.085
Mof_H 	H 	0.0326	0.3506	0.0109	0.004
Mof_C 	C 	0.1184	0.3777	0.9807	-0.126
Mof_H 	H 	0.1348	0.4431	0.0236	0.069
Mof_C 	C 	0.1554	0.3404	0.9266	0.054
Mof_C 	C 	0.1288	0.2417	0.8683	-0.118
Mof_H 	H 	0.1534	0.2084	0.8311	0.069
Mof_C 	C 	0.0673	0.1917	0.8639	0.069
Mof_H 	H 	0.0491	0.1279	0.8205	0.029
Mof_C 	C 	0.2224	0.3981	0.9312	0.056
Mof_C 	C 	0.2557	0.4799	0.9963	-0.128
Mof_H 	H 	0.2364	0.5033	0.0415	0.069
Mof_C 	C 	0.817	0.0283	0.9962	0.07
Mof_H 	H 	0.8389	0.0852	0.0423	0.015
Mof_C 	C 	0.8143	0.9238	0.8729	0.075
Mof_H 	H 	0.8343	0.9041	0.8278	0.016
Mof_C 	C 	0.2531	0.3699	0.8672	-0.127
Mof_H 	H 	0.2321	0.3139	0.82	0.068
Mof_Cd	Cd	0.4404	0.60735	0.92257	0.391
Mof_O 	O 	0.44532	0.4762	0.8014	-0.28
Mof_O 	O 	0.48803	0.5905	0.074	-0.295
Mof_N 	N 	0.5309	0.7275	0.9176	-0.155
Mof_N 	N 	0.3475	0.5012	0.9364	-0.157
Mof_C 	C 	0.4886	0.3986	0.8442	0.306
Mof_C 	C 	0.5099	0.2869	0.7985	-0.056
Mof_C 	C 	0.524	0.1537	0.8456	0.007
Mof_C 	C 	0.4511	0.1054	0.8182	-0.013
Mof_C 	C 	0.574	0.0957	0.7816	-0.01
Mof_C 	C 	0.5801	0.2273	0.8306	0.009
Mof_C 	C 	0.5575	0.8205	0.9731	0.085
Mof_H 	H 	0.5326	0.8506	0.0109	0.005
Mof_C 	C 	0.6184	0.8777	0.9807	-0.127
Mof_H 	H 	0.6348	0.9431	0.0236	0.069
Mof_C 	C 	0.6554	0.8404	0.9266	0.055
Mof_C 	C 	0.6288	0.7417	0.8683	-0.119
Mof_H 	H 	0.6534	0.7084	0.8311	0.069
Mof_C 	C 	0.5673	0.6917	0.8639	0.07
Mof_H 	H 	0.5491	0.6279	0.8205	0.029
Mof_C 	C 	0.7224	0.8981	0.9312	0.055
Mof_C 	C 	0.7557	0.9799	0.9963	-0.125
Mof_H 	H 	0.7364	0.0033	0.0415	0.07
Mof_C 	C 	0.317	0.5283	0.9962	0.08
Mof_H 	H 	0.3389	0.5852	0.0423	0.009
Mof_C 	C 	0.3143	0.4238	0.8729	0.074
Mof_H 	H 	0.3343	0.4041	0.8278	0.016
Mof_C 	C 	0.7531	0.8699	0.8672	-0.126
Mof_H 	H 	0.7321	0.8139	0.82	0.068
Mof_Cd	Cd	0.9404	0.89265	0.42257	0.39
Mof_O 	O 	0.94532	0.0238	0.3014	-0.28
Mof_O 	O 	0.98803	0.9095	0.574	-0.296
Mof_N 	N 	0.0309	0.7725	0.4176	-0.155
Mof_N 	N 	0.8475	0.9988	0.4364	-0.157
Mof_C 	C 	0.9886	0.1014	0.3442	0.308
Mof_C 	C 	0.0099	0.2131	0.2985	-0.059
Mof_C 	C 	0.024	0.3463	0.3456	0.007
Mof_C 	C 	0.9511	0.3946	0.3182	-0.013
Mof_C 	C 	0.074	0.4043	0.2816	-0.01
Mof_C 	C 	0.0801	0.2727	0.3306	0.009
Mof_C 	C 	0.0575	0.6795	0.4731	0.084
Mof_H 	H 	0.0326	0.6494	0.5109	0.006
Mof_C 	C 	0.1184	0.6223	0.4807	-0.128
Mof_H 	H 	0.1348	0.5569	0.5236	0.07
Mof_C 	C 	0.1554	0.6596	0.4266	0.055
Mof_C 	C 	0.1288	0.7583	0.3683	-0.119
Mof_H 	H 	0.1534	0.7916	0.3311	0.069
Mof_C 	C 	0.0673	0.8083	0.3639	0.069
Mof_H 	H 	0.0491	0.8721	0.3205	0.028
Mof_C 	C 	0.2224	0.6019	0.4312	0.056
Mof_C 	C 	0.2557	0.5201	0.4963	-0.13
Mof_H 	H 	0.2364	0.4967	0.5415	0.07
Mof_C 	C 	0.817	0.9717	0.4962	0.079
Mof_H 	H 	0.8389	0.9148	0.5423	0.01
Mof_C 	C 	0.8143	0.0762	0.3729	0.075
Mof_H 	H 	0.8343	0.0959	0.3278	0.016
Mof_C 	C 	0.2531	0.6301	0.3672	-0.127
Mof_H 	H 	0.2321	0.6861	0.32	0.068
Mof_Cd	Cd	0.4404	0.39265	0.42257	0.391
Mof_O 	O 	0.44532	0.5238	0.3014	-0.28
Mof_O 	O 	0.48803	0.4095	0.574	-0.295
Mof_N 	N 	0.5309	0.2725	0.4176	-0.155
Mof_N 	N 	0.3475	0.4988	0.4364	-0.157
Mof_C 	C 	0.4886	0.6014	0.3442	0.306
Mof_C 	C 	0.5099	0.7131	0.2985	-0.056
Mof_C 	C 	0.524	0.8463	0.3456	0.007
Mof_C 	C 	0.4511	0.8946	0.3182	-0.013
Mof_C 	C 	0.574	0.9043	0.2816	-0.01
Mof_C 	C 	0.5801	0.7727	0.3306	0.009
Mof_C 	C 	0.5575	0.1795	0.4731	0.084
Mof_H 	H 	0.5326	0.1494	0.5109	0.006
Mof_C 	C 	0.6184	0.1223	0.4807	-0.128
Mof_H 	H 	0.6348	0.0569	0.5236	0.07
Mof_C 	C 	0.6554	0.1596	0.4266	0.055
Mof_C 	C 	0.6288	0.2583	0.3683	-0.118
Mof_H 	H 	0.6534	0.2916	0.3311	0.069
Mof_C 	C 	0.5673	0.3083	0.3639	0.069
Mof_H 	H 	0.5491	0.3721	0.3205	0.029
Mof_C 	C 	0.7224	0.1019	0.4312	0.057
Mof_C 	C 	0.7557	0.0201	0.4963	-0.13
Mof_H 	H 	0.7364	0.9967	0.5415	0.07
Mof_C 	C 	0.317	0.4717	0.4962	0.079
Mof_H 	H 	0.3389	0.4148	0.5423	0.01
Mof_C 	C 	0.3143	0.5762	0.3729	0.074
Mof_H 	H 	0.3343	0.5959	0.3278	0.016
Mof_C 	C 	0.7531	0.1301	0.3672	-0.127
Mof_H 	H 	0.7321	0.1861	0.32	0.069
Mof_Cd	Cd	0.0596	0.89265	0.07743	0.387
Mof_O 	O 	0.05468	0.0238	0.1986	-0.279
Mof_O 	O 	0.01197	0.9095	0.926	-0.291
Mof_N 	N 	0.9691	0.7725	0.0824	-0.155
Mof_N 	N 	0.1525	0.9988	0.0636	-0.156
Mof_C 	C 	0.0114	0.1014	0.1558	0.301
Mof_C 	C 	0.9901	0.2131	0.2015	-0.053
Mof_C 	C 	0.976	0.3463	0.1544	0.008
Mof_C 	C 	0.0489	0.3946	0.1818	-0.014
Mof_C 	C 	0.926	0.4043	0.2184	-0.009
Mof_C 	C 	0.9199	0.2727	0.1694	0.008
Mof_C 	C 	0.9425	0.6795	0.0269	0.085
Mof_H 	H 	0.9674	0.6494	0.9891	0.004
Mof_C 	C 	0.8816	0.6223	0.0193	-0.126
Mof_H 	H 	0.8652	0.5569	0.9764	0.069
Mof_C 	C 	0.8446	0.6596	0.0734	0.054
Mof_C 	C 	0.8712	0.7583	0.1317	-0.118
Mof_H 	H 	0.8466	0.7916	0.1689	0.069
Mof_C 	C 	0.9327	0.8083	0.1361	0.069
Mof_H 	H 	0.9509	0.8721	0.1795	0.029
Mof_C 	C 	0.7776	0.6019	0.0688	0.056
Mof_C 	C 	0.7443	0.5201	0.0037	-0.128
Mof_H 	H 	0.7636	0.4967	0.9585	0.069
Mof_C 	C 	0.183	0.9717	0.0038	0.07
Mof_H 	H 	0.1611	0.9148	0.9577	0.015
Mof_C 	C 	0.1857	0.0762	0.1271	0.075
Mof_H 	H 	0.1657	0.0959	0.1722	0.016
Mof_C 	C 	0.7469	0.6301	0.1328	-0.127
Mof_H 	H 	0.7679	0.6861	0.18	0.068
Mof_Cd	Cd	0.5596	0.39265	0.07743	0.391
Mof_O 	O 	0.55468	0.5238	0.1986	-0.28
Mof_O 	O 	0.51197	0.4095	0.926	-0.295
Mof_N 	N 	0.4691	0.2725	0.0824	-0.155
Mof_N 	N 	0.6525	0.4988	0.0636	-0.157
Mof_C 	C 	0.5114	0.6014	0.1558	0.306
Mof_C 	C 	0.4901	0.7131	0.2015	-0.056
Mof_C 	C 	0.476	0.8463	0.1544	0.007
Mof_C 	C 	0.5489	0.8946	0.1818	-0.013
Mof_C 	C 	0.426	0.9043	0.2184	-0.01
Mof_C 	C 	0.4199	0.7727	0.1694	0.009
Mof_C 	C 	0.4425	0.1795	0.0269	0.085
Mof_H 	H 	0.4674	0.1494	0.9891	0.005
Mof_C 	C 	0.3816	0.1223	0.0193	-0.127
Mof_H 	H 	0.3652	0.0569	0.9764	0.069
Mof_C 	C 	0.3446	0.1596	0.0734	0.055
Mof_C 	C 	0.3712	0.2583	0.1317	-0.119
Mof_H 	H 	0.3466	0.2916	0.1689	0.069
Mof_C 	C 	0.4327	0.3083	0.1361	0.07
Mof_H 	H 	0.4509	0.3721	0.1795	0.029
Mof_C 	C 	0.2776	0.1019	0.0688	0.055
Mof_C 	C 	0.2443	0.0201	0.0037	-0.125
Mof_H 	H 	0.2636	0.9967	0.9585	0.07
Mof_C 	C 	0.683	0.4717	0.0038	0.08
Mof_H 	H 	0.6611	0.4148	0.9577	0.009
Mof_C 	C 	0.6857	0.5762	0.1271	0.074
Mof_H 	H 	0.6657	0.5959	0.1722	0.016
Mof_C 	C 	0.2469	0.1301	0.1328	-0.126
Mof_H 	H 	0.2679	0.1861	0.18	0.068
_end
