data_functionalizedCrystal
_audit_creation_method	'EQeq! by Chris Wilmer'
_symmetry_space_group_name_H-M	'P1'
_symmetry_Int_Tables_number	1
_symmetry_cell_setting	triclinic
loop_
_symmetry_equiv_pos_as_xyz
  x,y,z
_cell_length_a	16.598
_cell_length_b	16.643
_cell_length_c	22.494
_cell_angle_alpha	90
_cell_angle_beta	90
_cell_angle_gamma	90
loop_
_atom_site_label
_atom_site_type_symbol
_atom_site_fract_x
_atom_site_fract_y
_atom_site_fract_z
_atom_site_charge
Mof_O 	O 	0.9175	0.4152	0.5491	-0.465
Mof_C 	C 	0.7974	0.299	0.5517	0.172
Mof_H 	H 	0.8159	0.32	0.5886	-0
Mof_C 	C 	0.7408	0.2416	0.551	-0.249
Mof_H 	H 	0.7206	0.2223	0.5878	0.127
Mof_N 	N 	0.9485	0.438	0.9318	-0.217
Mof_C 	C 	0.0577	0.463	0.6859	0.065
Mof_H 	H 	0.1106	0.4574	0.6704	0.008
Mof_C 	C 	0.0369	0.4338	0.7396	-0.191
Mof_H 	H 	0.0452	0.3816	0.7555	0.08
Mof_C 	C 	0.962	0.448	0.873	0.191
Mof_C 	C 	0.903	0.404	0.84	-0.09
Mof_H 	H 	0.8951	0.4058	0.7981	0.076
Mof_C 	C 	0.86	0.361	0.8796	-0.007
Mof_H 	H 	0.8173	0.3246	0.8704	0.073
Mof_C 	C 	0.889	0.38	0.9391	0.074
Mof_O 	O 	0.0825	0.5848	0.5491	-0.504
Mof_C 	C 	0.2026	0.701	0.5517	0.178
Mof_H 	H 	0.1841	0.68	0.5886	-0.009
Mof_C 	C 	0.2592	0.7584	0.551	-0.259
Mof_H 	H 	0.2794	0.7777	0.5878	0.129
Mof_N 	N 	0.0515	0.562	0.9318	-0.229
Mof_C 	C 	0.9423	0.537	0.6859	0.052
Mof_H 	H 	0.8894	0.5426	0.6704	0.016
Mof_C 	C 	0.9631	0.5662	0.7396	0.005
Mof_H 	H 	0.9548	0.6184	0.7555	0.054
Mof_C 	C 	0.038	0.552	0.873	0.053
Mof_C 	C 	0.097	0.596	0.84	-0.04
Mof_H 	H 	0.1049	0.5942	0.7981	0.06
Mof_C 	C 	0.14	0.639	0.8796	-0.042
Mof_H 	H 	0.1827	0.6754	0.8704	0.081
Mof_C 	C 	0.111	0.62	0.9391	0.082
Mof_O 	O 	0.0825	0.4152	0.4509	-0.505
Mof_C 	C 	0.2026	0.299	0.4483	0.178
Mof_H 	H 	0.1841	0.32	0.4114	-0.01
Mof_C 	C 	0.2592	0.2416	0.449	-0.261
Mof_H 	H 	0.2794	0.2223	0.4122	0.128
Mof_N 	N 	0.0515	0.438	0.0682	-0.225
Mof_C 	C 	0.9423	0.463	0.3141	0.05
Mof_H 	H 	0.8894	0.4574	0.3296	0.017
Mof_C 	C 	0.9631	0.4338	0.2604	0.009
Mof_H 	H 	0.9548	0.3816	0.2445	0.053
Mof_C 	C 	0.038	0.448	0.127	0.05
Mof_C 	C 	0.097	0.404	0.16	-0.034
Mof_H 	H 	0.1049	0.4058	0.2019	0.059
Mof_C 	C 	0.14	0.361	0.1204	-0.049
Mof_H 	H 	0.1827	0.3246	0.1296	0.088
Mof_C 	C 	0.111	0.38	0.0609	0.105
Mof_O 	O 	0.9175	0.5848	0.4509	-0.465
Mof_C 	C 	0.7974	0.701	0.4483	0.172
Mof_H 	H 	0.8159	0.68	0.4114	0.002
Mof_C 	C 	0.7408	0.7584	0.449	-0.248
Mof_H 	H 	0.7206	0.7777	0.4122	0.131
Mof_N 	N 	0.9485	0.562	0.0682	-0.212
Mof_C 	C 	0.0577	0.537	0.3141	0.067
Mof_H 	H 	0.1106	0.5426	0.3296	0.009
Mof_C 	C 	0.0369	0.5662	0.2604	-0.193
Mof_H 	H 	0.0452	0.6184	0.2445	0.083
Mof_C 	C 	0.962	0.552	0.127	0.193
Mof_C 	C 	0.903	0.596	0.16	-0.084
Mof_H 	H 	0.8951	0.5942	0.2019	0.076
Mof_C 	C 	0.86	0.639	0.1204	-0.013
Mof_H 	H 	0.8173	0.6754	0.1296	0.084
Mof_C 	C 	0.889	0.62	0.0609	0.101
Mof_O 	O 	0.0825	0.5848	0.4509	-0.504
Mof_C 	C 	0.2026	0.701	0.4483	0.179
Mof_H 	H 	0.1841	0.68	0.4114	-0.009
Mof_C 	C 	0.2592	0.7584	0.449	-0.259
Mof_H 	H 	0.2794	0.7777	0.4122	0.13
Mof_N 	N 	0.0515	0.562	0.0682	-0.225
Mof_C 	C 	0.9423	0.537	0.3141	0.052
Mof_H 	H 	0.8894	0.5426	0.3296	0.017
Mof_C 	C 	0.9631	0.5662	0.2604	0.008
Mof_H 	H 	0.9548	0.6184	0.2445	0.055
Mof_C 	C 	0.038	0.552	0.127	0.05
Mof_C 	C 	0.097	0.596	0.16	-0.033
Mof_H 	H 	0.1049	0.5942	0.2019	0.059
Mof_C 	C 	0.14	0.639	0.1204	-0.049
Mof_H 	H 	0.1827	0.6754	0.1296	0.09
Mof_C 	C 	0.111	0.62	0.0609	0.106
Mof_O 	O 	0.9175	0.4152	0.4509	-0.465
Mof_C 	C 	0.7974	0.299	0.4483	0.172
Mof_H 	H 	0.8159	0.32	0.4114	0.001
Mof_C 	C 	0.7408	0.2416	0.449	-0.249
Mof_H 	H 	0.7206	0.2223	0.4122	0.129
Mof_N 	N 	0.9485	0.438	0.0682	-0.212
Mof_C 	C 	0.0577	0.463	0.3141	0.066
Mof_H 	H 	0.1106	0.4574	0.3296	0.009
Mof_C 	C 	0.0369	0.4338	0.2604	-0.193
Mof_H 	H 	0.0452	0.3816	0.2445	0.081
Mof_C 	C 	0.962	0.448	0.127	0.193
Mof_C 	C 	0.903	0.404	0.16	-0.085
Mof_H 	H 	0.8951	0.4058	0.2019	0.075
Mof_C 	C 	0.86	0.361	0.1204	-0.013
Mof_H 	H 	0.8173	0.3246	0.1296	0.082
Mof_C 	C 	0.889	0.38	0.0609	0.1
Mof_O 	O 	0.9175	0.5848	0.5491	-0.465
Mof_C 	C 	0.7974	0.701	0.5517	0.172
Mof_H 	H 	0.8159	0.68	0.5886	0.001
Mof_C 	C 	0.7408	0.7584	0.551	-0.248
Mof_H 	H 	0.7206	0.7777	0.5878	0.13
Mof_N 	N 	0.9485	0.562	0.9318	-0.217
Mof_C 	C 	0.0577	0.537	0.6859	0.067
Mof_H 	H 	0.1106	0.5426	0.6704	0.008
Mof_C 	C 	0.0369	0.5662	0.7396	-0.192
Mof_H 	H 	0.0452	0.6184	0.7555	0.082
Mof_C 	C 	0.962	0.552	0.873	0.191
Mof_C 	C 	0.903	0.596	0.84	-0.089
Mof_H 	H 	0.8951	0.5942	0.7981	0.076
Mof_C 	C 	0.86	0.639	0.8796	-0.007
Mof_H 	H 	0.8173	0.6754	0.8704	0.075
Mof_C 	C 	0.889	0.62	0.9391	0.075
Mof_O 	O 	0.0825	0.4152	0.5491	-0.505
Mof_C 	C 	0.2026	0.299	0.5517	0.178
Mof_H 	H 	0.1841	0.32	0.5886	-0.011
Mof_C 	C 	0.2592	0.2416	0.551	-0.261
Mof_H 	H 	0.2794	0.2223	0.5878	0.126
Mof_N 	N 	0.0515	0.438	0.9318	-0.229
Mof_C 	C 	0.9423	0.463	0.6859	0.051
Mof_H 	H 	0.8894	0.4574	0.6704	0.016
Mof_C 	C 	0.9631	0.4338	0.7396	0.005
Mof_H 	H 	0.9548	0.3816	0.7555	0.053
Mof_C 	C 	0.038	0.448	0.873	0.053
Mof_C 	C 	0.097	0.404	0.84	-0.041
Mof_H 	H 	0.1049	0.4058	0.7981	0.06
Mof_C 	C 	0.14	0.361	0.8796	-0.042
Mof_H 	H 	0.1827	0.3246	0.8704	0.079
Mof_C 	C 	0.111	0.38	0.9391	0.081
Mof_Zn	Zn	2.87244e-33	0.5	0.5653	1.209
Mof_N 	N 	-1.29148e-32	0.5	0.6564	-0.293
Mof_C 	C 	-1.23609e-32	0.5	0.7654	0.116
Mof_C 	C 	-3.89489e-33	0.5	0.8325	-0.242
Mof_Zn	Zn	-1.8537e-33	0.5	0.4347	1.209
Mof_N 	N 	1.74593e-33	0.5	0.3436	-0.293
Mof_C 	C 	1.19207e-33	0.5	0.2346	0.113
Mof_C 	C 	-5.24268e-33	0.5	0.1675	-0.243
Mof_Zn	Zn	0.5	0	0.5	1.181
Mof_N 	N 	0.5	0.114	0.5	-0.299
Mof_N 	N 	0.5	0.886	0.5	-0.292
Mof_N 	N 	0.6206	0	0.5	-0.299
Mof_N 	N 	0.3794	0	0.5	-0.299
Mof_C 	C 	0.8938	0.3933	0.5	0.459
Mof_C 	C 	0.8286	0.3274	0.5	-0.204
Mof_C 	C 	0.7112	0.2098	0.5	0.212
Mof_C 	C 	0.6473	0.1497	0.5	-0.171
Mof_C 	C 	0.671	0.0657	0.5	0.119
Mof_C 	C 	0.7518	0.0405	0.5	-0.112
Mof_H 	H 	0.7979	0.0743	0.5	0.085
Mof_C 	C 	0.5683	0.1731	0.5	0.105
Mof_C 	C 	0.5413	0.2525	0.5	-0.077
Mof_H 	H 	0.5747	0.2989	0.5	0.069
Mof_C 	C 	0.1062	0.6067	0.5	0.466
Mof_C 	C 	0.1714	0.6726	0.5	-0.223
Mof_C 	C 	0.2888	0.7902	0.5	0.216
Mof_C 	C 	0.3527	0.8503	0.5	-0.17
Mof_C 	C 	0.329	0.9343	0.5	0.115
Mof_C 	C 	0.2482	0.9595	0.5	-0.047
Mof_H 	H 	0.2021	0.9257	0.5	0.056
Mof_C 	C 	0.4317	0.8269	0.5	0.108
Mof_C 	C 	0.4587	0.7475	0.5	-0.078
Mof_H 	H 	0.4253	0.7011	0.5	0.07
Mof_C 	C 	0.1062	0.3933	0.5	0.466
Mof_C 	C 	0.1714	0.3274	0.5	-0.224
Mof_C 	C 	0.2888	0.2098	0.5	0.217
Mof_C 	C 	0.3527	0.1497	0.5	-0.175
Mof_C 	C 	0.329	0.0657	0.5	0.117
Mof_C 	C 	0.2482	0.0405	0.5	-0.116
Mof_H 	H 	0.2021	0.0743	0.5	0.072
Mof_C 	C 	0.4317	0.1731	0.5	0.106
Mof_C 	C 	0.4587	0.2525	0.5	-0.079
Mof_H 	H 	0.4253	0.2989	0.5	0.07
Mof_C 	C 	0.8938	0.6067	0.5	0.459
Mof_C 	C 	0.8286	0.6726	0.5	-0.203
Mof_C 	C 	0.7112	0.7902	0.5	0.212
Mof_C 	C 	0.6473	0.8503	0.5	-0.166
Mof_C 	C 	0.671	0.9343	0.5	0.117
Mof_C 	C 	0.7518	0.9595	0.5	-0.042
Mof_H 	H 	0.7979	0.9257	0.5	0.069
Mof_C 	C 	0.5683	0.8269	0.5	0.107
Mof_C 	C 	0.5413	0.7475	0.5	-0.077
Mof_H 	H 	0.5747	0.7011	0.5	0.07
Mof_Zn	Zn	-0	0.5	-0	1.216
Mof_C 	C 	0.879	0.364	-0	0.048
Mof_C 	C 	0.814	0.3004	-0	-0.137
Mof_C 	C 	0.7364	0.334	-0	0.3
Mof_C 	C 	0.6681	0.2832	-0	0.16
Mof_C 	C 	0.6773	0.1992	-0	0.247
Mof_C 	C 	0.755	0.166	-0	0.16
Mof_C 	C 	0.823	0.2158	-0	0.304
Mof_F 	F 	0.7267	0.413	-0	-0.366
Mof_F 	F 	0.594	0.3159	-0	-0.282
Mof_F 	F 	0.6123	0.1514	-0	-0.297
Mof_F 	F 	0.7639	0.086	-0	-0.28
Mof_F 	F 	0.897	0.184	-0	-0.342
Mof_C 	C 	0.121	0.636	-0	0.019
Mof_C 	C 	0.186	0.6996	-0	-0.134
Mof_C 	C 	0.2636	0.666	-0	0.3
Mof_C 	C 	0.3319	0.7168	-0	0.16
Mof_C 	C 	0.3227	0.8008	-0	0.247
Mof_C 	C 	0.245	0.834	-0	0.158
Mof_C 	C 	0.177	0.7842	-0	0.297
Mof_F 	F 	0.2733	0.587	-0	-0.364
Mof_F 	F 	0.406	0.6841	-0	-0.281
Mof_F 	F 	0.3877	0.8486	-0	-0.292
Mof_F 	F 	0.2361	0.914	-0	-0.279
Mof_F 	F 	0.103	0.816	-0	-0.368
Mof_C 	C 	0.121	0.364	-0	0.019
Mof_C 	C 	0.186	0.3004	-0	-0.135
Mof_C 	C 	0.2636	0.334	-0	0.3
Mof_C 	C 	0.3319	0.2832	-0	0.159
Mof_C 	C 	0.3227	0.1992	-0	0.245
Mof_C 	C 	0.245	0.166	-0	0.156
Mof_C 	C 	0.177	0.2158	-0	0.295
Mof_F 	F 	0.2733	0.413	-0	-0.364
Mof_F 	F 	0.406	0.3159	-0	-0.282
Mof_F 	F 	0.3877	0.1514	-0	-0.298
Mof_F 	F 	0.2361	0.086	-0	-0.29
Mof_F 	F 	0.103	0.184	-0	-0.373
Mof_C 	C 	0.879	0.636	-0	0.048
Mof_C 	C 	0.814	0.6996	-0	-0.136
Mof_C 	C 	0.7364	0.666	-0	0.301
Mof_C 	C 	0.6681	0.7168	-0	0.161
Mof_C 	C 	0.6773	0.8008	-0	0.249
Mof_C 	C 	0.755	0.834	-0	0.162
Mof_C 	C 	0.823	0.7842	-0	0.306
Mof_F 	F 	0.7267	0.587	-0	-0.366
Mof_F 	F 	0.594	0.6841	-0	-0.281
Mof_F 	F 	0.6123	0.8486	-0	-0.29
Mof_F 	F 	0.7639	0.914	-0	-0.269
Mof_F 	F 	0.897	0.816	-0	-0.337
_end
