data_functionalizedCrystal
_audit_creation_method	'EQeq! by Chris Wilmer'
_symmetry_space_group_name_H-M	'P1'
_symmetry_Int_Tables_number	1
_symmetry_cell_setting	triclinic
loop_
_symmetry_equiv_pos_as_xyz
  x,y,z
_cell_length_a	7.7554
_cell_length_b	15.6408
_cell_length_c	15.6408
_cell_angle_alpha	62.6759
_cell_angle_beta	80.4864
_cell_angle_gamma	99.5136
loop_
_atom_site_label
_atom_site_type_symbol
_atom_site_fract_x
_atom_site_fract_y
_atom_site_fract_z
_atom_site_charge
Mof_Cu	Cu	0.5	0	0.5	0.928
Mof_H 	H 	0.8104	0.9424	0.7298	0.344
Mof_H 	H 	0.6403	0.8874	0.8233	0.315
Mof_H 	H 	0.6951	0.0042	0.7571	0.281
Mof_H 	H 	0.404	0.8029	0.8024	0.212
Mof_H 	H 	0.1939	0.6698	0.8739	0.076
Mof_H 	H 	0.9547	0.8159	0.6645	0.063
Mof_H 	H 	0.6848	0.7012	0.7679	0.028
Mof_H 	H 	0.9168	0.5607	0.9697	0.032
Mof_H 	H 	0.1896	0.0576	0.2702	0.377
Mof_H 	H 	0.3597	0.1126	0.1767	0.364
Mof_H 	H 	0.3049	0.9958	0.2429	0.401
Mof_H 	H 	0.596	0.1971	0.1976	0.206
Mof_H 	H 	0.8061	0.3302	0.1261	0.053
Mof_H 	H 	0.0453	0.1841	0.3355	0.065
Mof_H 	H 	0.3152	0.2988	0.2321	0.019
Mof_H 	H 	0.0832	0.4393	0.0303	0.006
Mof_C 	C 	0.6901	0.9429	0.7564	-1.002
Mof_C 	C 	0.57212	0.93432	0.69226	0.627
Mof_C 	C 	0.41741	0.85258	0.73715	-0.556
Mof_C 	C 	0.28258	0.8392	0.69296	0.341
Mof_C 	C 	0.10829	0.7591	0.75773	-0.07
Mof_C 	C 	0.09211	0.67918	0.85025	-0.108
Mof_C 	C 	0.95085	0.76483	0.72728	-0.036
Mof_C 	C 	0.78874	0.69514	0.78992	0.031
Mof_C 	C 	0.92442	0.61368	0.90712	0.076
Mof_C 	C 	0.3099	0.0571	0.2436	-1.251
Mof_C 	C 	0.42788	0.06568	0.30774	0.583
Mof_C 	C 	0.58259	0.14742	0.26285	-0.554
Mof_C 	C 	0.71742	0.1608	0.30704	0.324
Mof_C 	C 	0.89171	0.2409	0.24227	-0.034
Mof_C 	C 	0.90789	0.32082	0.14975	-0.056
Mof_C 	C 	0.04915	0.23517	0.27272	-0.106
Mof_C 	C 	0.21126	0.30486	0.21008	0.045
Mof_C 	C 	0.07558	0.38632	0.09288	0.001
Mof_N 	N 	0.77207	0.62009	0.87978	-0.16
Mof_N 	N 	0.22793	0.37991	0.12022	-0.17
Mof_O 	O 	0.28831	0.89188	0.60155	-0.373
Mof_O 	O 	0.62032	0.00246	0.602	-0.507
Mof_O 	O 	0.71169	0.10812	0.39845	-0.388
Mof_O 	O 	0.37968	0.99754	0.398	-0.428
Mof_Cu	Cu	3.55678e-17	0.5	0.5	0.938
Mof_H 	H 	0.5402	0.7298	0.3278	0.374
Mof_H 	H 	0.4636	0.8233	0.2893	0.353
Mof_H 	H 	0.4522	0.7571	0.2387	0.35
Mof_H 	H 	0.2064	0.8024	0.3947	0.228
Mof_H 	H 	0.0678	0.8739	0.4563	0.023
Mof_H 	H 	0.6192	0.6645	0.5196	0.053
Mof_H 	H 	0.4527	0.7679	0.5309	0.03
Mof_H 	H 	0.8865	0.9697	0.4696	0.058
Mof_H 	H 	0.4598	0.2702	0.6722	0.349
Mof_H 	H 	0.5364	0.1767	0.7107	0.327
Mof_H 	H 	0.5478	0.2429	0.7613	0.333
Mof_H 	H 	0.7936	0.1976	0.6053	0.191
Mof_H 	H 	0.9322	0.1261	0.5437	0.106
Mof_H 	H 	0.3808	0.3355	0.4804	0.076
Mof_H 	H 	0.5473	0.2321	0.4691	0.018
Mof_H 	H 	0.1135	0.0303	0.5304	-0.02
Mof_C 	C 	0.4465	0.7564	0.3007	-1.164
Mof_C 	C 	0.26438	0.69226	0.37342	0.634
Mof_C 	C 	0.15456	0.73715	0.41027	-0.618
Mof_C 	C 	0.97554	0.69296	0.46784	0.39
Mof_C 	C 	0.86602	0.75773	0.48317	-0.099
Mof_C 	C 	0.94236	0.85025	0.47057	0.006
Mof_C 	C 	0.67813	0.72728	0.50789	-0.038
Mof_C 	C 	0.57866	0.78992	0.51494	0.02
Mof_C 	C 	0.83154	0.90712	0.4792	-0.003
Mof_C 	C 	0.5535	0.2436	0.6993	-1.091
Mof_C 	C 	0.73562	0.30774	0.62658	0.578
Mof_C 	C 	0.84544	0.26285	0.58973	-0.495
Mof_C 	C 	0.02446	0.30704	0.53216	0.276
Mof_C 	C 	0.13398	0.24227	0.51683	-0.005
Mof_C 	C 	0.05764	0.14975	0.52943	-0.171
Mof_C 	C 	0.32187	0.27272	0.49211	-0.104
Mof_C 	C 	0.42134	0.21008	0.48506	0.056
Mof_C 	C 	0.16846	0.09288	0.5208	0.08
Mof_N 	N 	0.65185	0.87978	0.50013	-0.147
Mof_N 	N 	0.34815	0.12022	0.49987	-0.184
Mof_O 	O 	0.88986	0.60155	0.50657	-0.39
Mof_O 	O 	0.22232	0.602	0.39554	-0.485
Mof_O 	O 	0.11014	0.39845	0.49343	-0.375
Mof_O 	O 	0.77768	0.398	0.60446	-0.454
Mof_Cu	Cu	0.5	0.5	-0	0.927
Mof_H 	H 	0.868	0.3278	0.9424	0.332
Mof_H 	H 	0.7529	0.2893	0.8874	0.299
Mof_H 	H 	0.6909	0.2387	0.0042	0.259
Mof_H 	H 	0.6011	0.3947	0.8029	0.209
Mof_H 	H 	0.5241	0.4563	0.6698	0.061
Mof_H 	H 	0.1388	0.5196	0.8159	0.051
Mof_H 	H 	0.9836	0.5309	0.7012	0.059
Mof_H 	H 	0.3561	0.4696	0.5607	0.021
Mof_H 	H 	0.132	0.6722	0.0576	0.39
Mof_H 	H 	0.2471	0.7107	0.1126	0.381
Mof_H 	H 	0.3091	0.7613	0.9958	0.424
Mof_H 	H 	0.3989	0.6053	0.1971	0.209
Mof_H 	H 	0.4759	0.5437	0.3302	0.068
Mof_H 	H 	0.8612	0.4804	0.1841	0.078
Mof_H 	H 	0.0164	0.4691	0.2988	-0.012
Mof_H 	H 	0.6439	0.5304	0.4393	0.017
Mof_C 	C 	0.7472	0.3007	0.9429	-0.965
Mof_C 	C 	0.6378	0.37342	0.93432	0.615
Mof_C 	C 	0.56483	0.41027	0.85258	-0.551
Mof_C 	C 	0.44338	0.46784	0.8392	0.339
Mof_C 	C 	0.34919	0.48317	0.7591	-0.067
Mof_C 	C 	0.41293	0.47057	0.67918	-0.071
Mof_C 	C 	0.18602	0.50789	0.76483	-0.039
Mof_C 	C 	0.0936	0.51494	0.69514	-0.02
Mof_C 	C 	0.31074	0.4792	0.61368	0.031
Mof_C 	C 	0.2528	0.6993	0.0571	-1.29
Mof_C 	C 	0.3622	0.62658	0.06568	0.595
Mof_C 	C 	0.43517	0.58973	0.14742	-0.56
Mof_C 	C 	0.55662	0.53216	0.1608	0.326
Mof_C 	C 	0.65081	0.51683	0.2409	-0.037
Mof_C 	C 	0.58707	0.52943	0.32082	-0.094
Mof_C 	C 	0.81398	0.49211	0.23517	-0.104
Mof_C 	C 	0.9064	0.48506	0.30486	0.097
Mof_C 	C 	0.68926	0.5208	0.38632	0.047
Mof_N 	N 	0.15198	0.50013	0.62009	-0.159
Mof_N 	N 	0.84802	0.49987	0.37991	-0.173
Mof_O 	O 	0.39643	0.50657	0.89188	-0.369
Mof_O 	O 	0.61786	0.39554	0.00246	-0.506
Mof_O 	O 	0.60357	0.49343	0.10812	-0.392
Mof_O 	O 	0.38214	0.60446	0.99754	-0.429
_end
