data_functionalizedCrystal
_audit_creation_method	'EQeq! by Chris Wilmer'
_symmetry_space_group_name_H-M	'P1'
_symmetry_Int_Tables_number	1
_symmetry_cell_setting	triclinic
loop_
_symmetry_equiv_pos_as_xyz
  x,y,z
_cell_length_a	10.2515
_cell_length_b	12.3845
_cell_length_c	16.6038
_cell_angle_alpha	90
_cell_angle_beta	94.922
_cell_angle_gamma	90
loop_
_atom_site_label
_atom_site_type_symbol
_atom_site_fract_x
_atom_site_fract_y
_atom_site_fract_z
_atom_site_charge
Mof_C 	C 	0.2334	0.6345	0.0605	0.293
Mof_C 	C 	0.1105	0.5847	0.0892	-0.019
Mof_C 	C 	0.1198	0.4948	0.1395	-0.109
Mof_H 	H 	0.2013	0.4624	0.154	0.086
Mof_C 	C 	0.0072	0.4542	0.1675	0.119
Mof_C 	C 	0.8849	0.497	0.1446	-0.104
Mof_H 	H 	0.8091	0.4663	0.163	0.089
Mof_C 	C 	0.8767	0.5863	0.0937	-0.021
Mof_C 	C 	0.9895	0.6313	0.0674	-0.036
Mof_H 	H 	0.9839	0.6934	0.0347	0.053
Mof_C 	C 	0.7446	0.6355	0.0685	0.292
Mof_C 	C 	0.0378	0.2135	0.1251	-0.767
Mof_H 	H 	0.0553	0.1366	0.1284	0.261
Mof_H 	H 	0.1079	0.2493	0.0998	0.266
Mof_H 	H 	0.9554	0.2258	0.0931	0.267
Mof_C 	C 	0.0297	0.2577	0.2076	0.309
Mof_C 	C 	0.0068	0.3706	0.3055	0.095
Mof_C 	C 	0.994	0.4715	0.3511	0.047
Mof_C 	C 	0.8887	0.4865	0.3971	-0.12
Mof_H 	H 	0.8213	0.4349	0.3964	0.082
Mof_C 	C 	0.8844	0.5784	0.4441	0.073
Mof_H 	H 	0.812	0.5886	0.4744	0.019
Mof_C 	C 	0.0777	0.6399	0.4022	0.072
Mof_H 	H 	0.143	0.6933	0.4034	0.014
Mof_C 	C 	0.0893	0.5516	0.3527	-0.119
Mof_H 	H 	0.1602	0.5456	0.3207	0.076
Mof_Cd	Cd	0.48499	0.70055	0.03395	0.437
Mof_N 	N 	0.0163	0.3654	0.2243	-0.19
Mof_N 	N 	0.028	0.2011	0.274	-0.13
Mof_N 	N 	0.0133	0.274	0.3364	-0.107
Mof_N 	N 	0.9788	0.6537	0.4484	-0.152
Mof_O 	O 	0.3343	0.5764	0.0668	-0.261
Mof_O 	O 	0.2316	0.7267	0.0341	-0.278
Mof_O 	O 	0.7375	0.7197	0.0288	-0.28
Mof_O 	O 	0.6457	0.5874	0.0903	-0.257
Mof_C 	C 	0.2666	0.1345	0.4395	0.294
Mof_C 	C 	0.3895	0.0847	0.4108	-0.022
Mof_C 	C 	0.3802	0.9948	0.3605	-0.107
Mof_H 	H 	0.2987	0.9624	0.346	0.085
Mof_C 	C 	0.4928	0.9542	0.3325	0.117
Mof_C 	C 	0.6151	0.997	0.3554	-0.101
Mof_H 	H 	0.6909	0.9663	0.337	0.088
Mof_C 	C 	0.6233	0.0863	0.4063	-0.023
Mof_C 	C 	0.5105	0.1313	0.4326	-0.033
Mof_H 	H 	0.5161	0.1934	0.4653	0.052
Mof_C 	C 	0.7554	0.1355	0.4315	0.292
Mof_C 	C 	0.4622	0.7135	0.3749	-0.772
Mof_H 	H 	0.4447	0.6366	0.3716	0.262
Mof_H 	H 	0.3921	0.7493	0.4002	0.267
Mof_H 	H 	0.5446	0.7258	0.4069	0.269
Mof_C 	C 	0.4703	0.7577	0.2924	0.31
Mof_C 	C 	0.4932	0.8706	0.1945	0.095
Mof_C 	C 	0.506	0.9715	0.1489	0.049
Mof_C 	C 	0.6113	0.9865	0.1029	-0.12
Mof_H 	H 	0.6787	0.9349	0.1036	0.082
Mof_C 	C 	0.6156	0.0784	0.0559	0.073
Mof_H 	H 	0.688	0.0886	0.0256	0.018
Mof_C 	C 	0.4223	0.1399	0.0978	0.073
Mof_H 	H 	0.357	0.1933	0.0966	0.014
Mof_C 	C 	0.4107	0.0516	0.1473	-0.12
Mof_H 	H 	0.3398	0.0456	0.1793	0.077
Mof_Cd	Cd	0.01501	0.20055	0.46605	0.437
Mof_N 	N 	0.4837	0.8654	0.2757	-0.189
Mof_N 	N 	0.472	0.7011	0.226	-0.131
Mof_N 	N 	0.4867	0.774	0.1636	-0.107
Mof_N 	N 	0.5212	0.1537	0.0516	-0.152
Mof_O 	O 	0.1657	0.0764	0.4332	-0.261
Mof_O 	O 	0.2684	0.2267	0.4659	-0.279
Mof_O 	O 	0.7625	0.2197	0.4712	-0.28
Mof_O 	O 	0.8543	0.0874	0.4097	-0.257
Mof_C 	C 	0.7666	0.3655	0.9395	0.293
Mof_C 	C 	0.8895	0.4153	0.9108	-0.019
Mof_C 	C 	0.8802	0.5052	0.8605	-0.109
Mof_H 	H 	0.7987	0.5376	0.846	0.086
Mof_C 	C 	0.9928	0.5458	0.8325	0.119
Mof_C 	C 	0.1151	0.503	0.8554	-0.104
Mof_H 	H 	0.1909	0.5337	0.837	0.089
Mof_C 	C 	0.1233	0.4137	0.9063	-0.021
Mof_C 	C 	0.0105	0.3687	0.9326	-0.036
Mof_H 	H 	0.0161	0.3066	0.9653	0.053
Mof_C 	C 	0.2554	0.3645	0.9315	0.292
Mof_C 	C 	0.9622	0.7865	0.8749	-0.767
Mof_H 	H 	0.9447	0.8634	0.8716	0.261
Mof_H 	H 	0.8921	0.7507	0.9002	0.266
Mof_H 	H 	0.0446	0.7742	0.9069	0.267
Mof_C 	C 	0.9703	0.7423	0.7924	0.309
Mof_C 	C 	0.9932	0.6294	0.6945	0.095
Mof_C 	C 	0.006	0.5285	0.6489	0.047
Mof_C 	C 	0.1113	0.5135	0.6029	-0.12
Mof_H 	H 	0.1787	0.5651	0.6036	0.082
Mof_C 	C 	0.1156	0.4216	0.5559	0.073
Mof_H 	H 	0.188	0.4114	0.5256	0.019
Mof_C 	C 	0.9223	0.3601	0.5978	0.072
Mof_H 	H 	0.857	0.3067	0.5966	0.014
Mof_C 	C 	0.9107	0.4484	0.6473	-0.119
Mof_H 	H 	0.8398	0.4544	0.6793	0.076
Mof_Cd	Cd	0.51501	0.29945	0.96605	0.437
Mof_N 	N 	0.9837	0.6346	0.7757	-0.19
Mof_N 	N 	0.972	0.7989	0.726	-0.13
Mof_N 	N 	0.9867	0.726	0.6636	-0.107
Mof_N 	N 	0.0212	0.3463	0.5516	-0.152
Mof_O 	O 	0.6657	0.4236	0.9332	-0.261
Mof_O 	O 	0.7684	0.2733	0.9659	-0.278
Mof_O 	O 	0.2625	0.2803	0.9712	-0.28
Mof_O 	O 	0.3543	0.4126	0.9097	-0.257
Mof_C 	C 	0.7334	0.8655	0.5605	0.294
Mof_C 	C 	0.6105	0.9153	0.5892	-0.022
Mof_C 	C 	0.6198	0.0052	0.6395	-0.107
Mof_H 	H 	0.7013	0.0376	0.654	0.085
Mof_C 	C 	0.5072	0.0458	0.6675	0.117
Mof_C 	C 	0.3849	0.003	0.6446	-0.101
Mof_H 	H 	0.3091	0.0337	0.663	0.088
Mof_C 	C 	0.3767	0.9137	0.5937	-0.023
Mof_C 	C 	0.4895	0.8687	0.5674	-0.033
Mof_H 	H 	0.4839	0.8066	0.5347	0.052
Mof_C 	C 	0.2446	0.8645	0.5685	0.292
Mof_C 	C 	0.5378	0.2865	0.6251	-0.772
Mof_H 	H 	0.5553	0.3634	0.6284	0.262
Mof_H 	H 	0.6079	0.2507	0.5998	0.267
Mof_H 	H 	0.4554	0.2742	0.5931	0.269
Mof_C 	C 	0.5297	0.2423	0.7076	0.31
Mof_C 	C 	0.5068	0.1294	0.8055	0.095
Mof_C 	C 	0.494	0.0285	0.8511	0.049
Mof_C 	C 	0.3887	0.0135	0.8971	-0.12
Mof_H 	H 	0.3213	0.0651	0.8964	0.082
Mof_C 	C 	0.3844	0.9216	0.9441	0.073
Mof_H 	H 	0.312	0.9114	0.9744	0.018
Mof_C 	C 	0.5777	0.8601	0.9022	0.073
Mof_H 	H 	0.643	0.8067	0.9034	0.014
Mof_C 	C 	0.5893	0.9484	0.8527	-0.12
Mof_H 	H 	0.6602	0.9544	0.8207	0.077
Mof_Cd	Cd	0.98499	0.79945	0.53395	0.437
Mof_N 	N 	0.5163	0.1346	0.7243	-0.189
Mof_N 	N 	0.528	0.2989	0.774	-0.131
Mof_N 	N 	0.5133	0.226	0.8364	-0.107
Mof_N 	N 	0.4788	0.8463	0.9484	-0.152
Mof_O 	O 	0.8343	0.9236	0.5668	-0.261
Mof_O 	O 	0.7316	0.7733	0.5341	-0.279
Mof_O 	O 	0.2375	0.7803	0.5288	-0.28
Mof_O 	O 	0.1457	0.9126	0.5903	-0.257
_end
