data_functionalizedCrystal
_audit_creation_method	'EQeq! by Chris Wilmer'
_symmetry_space_group_name_H-M	'P1'
_symmetry_Int_Tables_number	1
_symmetry_cell_setting	triclinic
loop_
_symmetry_equiv_pos_as_xyz
  x,y,z
_cell_length_a	12.6528
_cell_length_b	5.1909
_cell_length_c	21.1457
_cell_angle_alpha	90
_cell_angle_beta	95.088
_cell_angle_gamma	90
loop_
_atom_site_label
_atom_site_type_symbol
_atom_site_fract_x
_atom_site_fract_y
_atom_site_fract_z
_atom_site_charge
Mof_Zn	Zn	0.00597	0.2151	0.07054	1.217
Mof_Zn	Zn	0.99888	0.73311	0.17272	1.226
Mof_Zn	Zn	0.39935	0.77804	0.05465	1.244
Mof_P 	P 	0.13998	0.73232	0.05251	0.546
Mof_P 	P 	0.87328	0.24183	0.18659	0.559
Mof_P 	P 	0.47221	0.70089	0.91682	0.555
Mof_O 	O 	0.11566	0.4457	0.04952	-0.502
Mof_O 	O 	0.11773	0.8573	0.98692	-0.491
Mof_O 	O 	0.96283	0.3747	0.15073	-0.63
Mof_O 	O 	0.06544	0.8702	0.09755	-0.613
Mof_O 	O 	0.8983	0.2963	0.25764	-0.489
Mof_O 	O 	0.8766	0.9555	0.17088	-0.48
Mof_O 	O 	0.3943	0.6709	0.96735	-0.454
Mof_O 	O 	0.56889	0.8612	0.93865	-0.471
Mof_O 	O 	0.505	0.4393	0.89308	-0.414
Mof_O 	O 	0.25407	0.7802	0.07987	-0.419
Mof_O 	O 	0.76807	0.3622	0.16567	-0.434
Mof_H 	H 	0.7227	0.2495	0.1607	0.226
Mof_O 	O 	0.41077	0.8501	0.85977	-0.399
Mof_H 	H 	0.3526	0.7831	0.8511	0.222
Mof_Zn	Zn	0.99403	0.7151	0.42946	1.22
Mof_Zn	Zn	0.00112	0.23311	0.32728	1.223
Mof_Zn	Zn	0.60065	0.27804	0.44535	1.244
Mof_P 	P 	0.86002	0.23232	0.44749	0.55
Mof_P 	P 	0.12672	0.74183	0.31341	0.56
Mof_P 	P 	0.52779	0.20089	0.58318	0.557
Mof_O 	O 	0.88434	0.9457	0.45048	-0.503
Mof_O 	O 	0.88227	0.3573	0.51308	-0.494
Mof_O 	O 	0.03717	0.8747	0.34927	-0.626
Mof_O 	O 	0.93456	0.3702	0.40245	-0.615
Mof_O 	O 	0.1017	0.7963	0.24236	-0.487
Mof_O 	O 	0.1234	0.4555	0.32912	-0.483
Mof_O 	O 	0.6057	0.1709	0.53265	-0.455
Mof_O 	O 	0.43111	0.3612	0.56135	-0.469
Mof_O 	O 	0.495	0.9393	0.60692	-0.419
Mof_O 	O 	0.74593	0.2802	0.42013	-0.42
Mof_O 	O 	0.23193	0.8622	0.33433	-0.431
Mof_H 	H 	0.2773	0.7495	0.3393	0.225
Mof_O 	O 	0.58923	0.3501	0.64023	-0.398
Mof_H 	H 	0.6474	0.2831	0.6489	0.222
Mof_Zn	Zn	0.99403	0.7849	0.92946	1.217
Mof_Zn	Zn	0.00112	0.26689	0.82728	1.226
Mof_Zn	Zn	0.60065	0.22196	0.94535	1.244
Mof_P 	P 	0.86002	0.26768	0.94749	0.546
Mof_P 	P 	0.12672	0.75817	0.81341	0.559
Mof_P 	P 	0.52779	0.29911	0.08318	0.555
Mof_O 	O 	0.88434	0.5543	0.95048	-0.502
Mof_O 	O 	0.88227	0.1427	0.01308	-0.491
Mof_O 	O 	0.03717	0.6253	0.84927	-0.63
Mof_O 	O 	0.93456	0.1298	0.90245	-0.613
Mof_O 	O 	0.1017	0.7037	0.74236	-0.489
Mof_O 	O 	0.1234	0.0445	0.82912	-0.48
Mof_O 	O 	0.6057	0.3291	0.03265	-0.454
Mof_O 	O 	0.43111	0.1388	0.06135	-0.471
Mof_O 	O 	0.495	0.5607	0.10692	-0.414
Mof_O 	O 	0.74593	0.2198	0.92013	-0.419
Mof_O 	O 	0.23193	0.6378	0.83433	-0.434
Mof_H 	H 	0.2773	0.7505	0.8393	0.226
Mof_O 	O 	0.58923	0.1499	0.14023	-0.399
Mof_H 	H 	0.6474	0.2169	0.1489	0.222
Mof_Zn	Zn	0.00597	0.2849	0.57054	1.22
Mof_Zn	Zn	0.99888	0.76689	0.67272	1.223
Mof_Zn	Zn	0.39935	0.72196	0.55465	1.244
Mof_P 	P 	0.13998	0.76768	0.55251	0.55
Mof_P 	P 	0.87328	0.25817	0.68659	0.56
Mof_P 	P 	0.47221	0.79911	0.41682	0.557
Mof_O 	O 	0.11566	0.0543	0.54952	-0.503
Mof_O 	O 	0.11773	0.6427	0.48692	-0.494
Mof_O 	O 	0.96283	0.1253	0.65073	-0.626
Mof_O 	O 	0.06544	0.6298	0.59755	-0.615
Mof_O 	O 	0.8983	0.2037	0.75764	-0.487
Mof_O 	O 	0.8766	0.5445	0.67088	-0.483
Mof_O 	O 	0.3943	0.8291	0.46735	-0.455
Mof_O 	O 	0.56889	0.6388	0.43865	-0.469
Mof_O 	O 	0.505	0.0607	0.39308	-0.419
Mof_O 	O 	0.25407	0.7198	0.57987	-0.42
Mof_O 	O 	0.76807	0.1378	0.66567	-0.431
Mof_H 	H 	0.7227	0.2505	0.6607	0.225
Mof_O 	O 	0.41077	0.6499	0.35977	-0.398
Mof_H 	H 	0.3526	0.7169	0.3511	0.222
_end
