data_functionalizedCrystal
_audit_creation_method	'EQeq! by Chris Wilmer'
_symmetry_space_group_name_H-M	'P1'
_symmetry_Int_Tables_number	1
_symmetry_cell_setting	triclinic
loop_
_symmetry_equiv_pos_as_xyz
  x,y,z
_cell_length_a	16.159
_cell_length_b	14.035
_cell_length_c	15.438
_cell_angle_alpha	90
_cell_angle_beta	109.09
_cell_angle_gamma	90
loop_
_atom_site_label
_atom_site_type_symbol
_atom_site_fract_x
_atom_site_fract_y
_atom_site_fract_z
_atom_site_charge
Mof_N 	N 	0.5387	0.2996	0.3503	-0.234
Mof_N 	N 	0.5434	0.1749	0.4378	-0.138
Mof_N 	N 	0.4612	0.5022	0.1563	-0.232
Mof_N 	N 	0.3865	0.6201	0.0754	-0.137
Mof_C 	C 	0.5012	0.2186	0.358	0.095
Mof_H 	H 	0.4517	0.1944	0.3138	-0.017
Mof_C 	C 	0.6095	0.3079	0.4296	-0.006
Mof_H 	H 	0.6486	0.3587	0.4438	0.017
Mof_C 	C 	0.6134	0.2312	0.4834	0.001
Mof_H 	H 	0.6552	0.219	0.5401	0.026
Mof_C 	C 	0.5212	0.085	0.4692	0.088
Mof_C 	C 	0.5856	0.0223	0.5129	-0.078
Mof_H 	H 	0.6438	0.0373	0.5212	0.058
Mof_C 	C 	0.435	0.0634	0.4551	-0.079
Mof_H 	H 	0.3911	0.1059	0.4243	0.06
Mof_C 	C 	0.3883	0.5497	0.1352	0.102
Mof_H 	H 	0.3432	0.5367	0.1585	-0.026
Mof_C 	C 	0.5092	0.5429	0.1087	0.007
Mof_H 	H 	0.5648	0.5236	0.1105	0.008
Mof_C 	C 	0.4638	0.6155	0.0585	-0.005
Mof_H 	H 	0.4818	0.655	0.0196	0.033
Mof_C 	C 	0.3165	0.6866	0.0372	0.078
Mof_C 	C 	0.2941	0.7104	0.9461	-0.067
Mof_H 	H 	0.3241	0.6836	0.9099	0.047
Mof_C 	C 	0.2733	0.7256	0.0917	-0.076
Mof_H 	H 	0.2891	0.7093	0.1534	0.054
Mof_N 	N 	0.0387	0.7996	0.3503	-0.23
Mof_N 	N 	0.0434	0.6749	0.4378	-0.118
Mof_N 	N 	0.9612	0.0022	0.1563	-0.204
Mof_N 	N 	0.8865	0.1201	0.0754	-0.148
Mof_C 	C 	0.0012	0.7186	0.358	0.037
Mof_H 	H 	0.9517	0.6944	0.3138	0.021
Mof_C 	C 	0.1095	0.8079	0.4296	-0.006
Mof_H 	H 	0.1486	0.8587	0.4438	0.015
Mof_C 	C 	0.1134	0.7312	0.4834	-0.007
Mof_H 	H 	0.1552	0.719	0.5401	0.027
Mof_C 	C 	0.0212	0.585	0.4692	-0.007
Mof_C 	C 	0.0856	0.5223	0.5129	0.011
Mof_H 	H 	0.1438	0.5373	0.5212	0.026
Mof_C 	C 	0.935	0.5634	0.4551	0.036
Mof_H 	H 	0.8911	0.6059	0.4243	0.025
Mof_C 	C 	0.8883	0.0497	0.1352	0.105
Mof_H 	H 	0.8432	0.0367	0.1585	-0.025
Mof_C 	C 	0.0092	0.0429	0.1087	-0.078
Mof_H 	H 	0.0648	0.0236	0.1105	0.033
Mof_C 	C 	0.9638	0.1155	0.0585	0.063
Mof_H 	H 	0.9818	0.155	0.0196	0.021
Mof_C 	C 	0.8165	0.1866	0.0372	0.089
Mof_C 	C 	0.7941	0.2104	0.9461	-0.075
Mof_H 	H 	0.8241	0.1836	0.9099	0.053
Mof_C 	C 	0.7733	0.2256	0.0917	-0.082
Mof_H 	H 	0.7891	0.2093	0.1534	0.059
Mof_N 	N 	0.4613	0.2996	0.1497	-0.235
Mof_N 	N 	0.4566	0.1749	0.0622	-0.138
Mof_N 	N 	0.5388	0.5022	0.3437	-0.233
Mof_N 	N 	0.6135	0.6201	0.4246	-0.138
Mof_C 	C 	0.4988	0.2186	0.142	0.095
Mof_H 	H 	0.5483	0.1944	0.1862	-0.017
Mof_C 	C 	0.3905	0.3079	0.0704	-0.005
Mof_H 	H 	0.3514	0.3587	0.0562	0.016
Mof_C 	C 	0.3866	0.2312	0.0166	-0.003
Mof_H 	H 	0.3448	0.219	0.9599	0.028
Mof_C 	C 	0.4788	0.085	0.0308	0.081
Mof_C 	C 	0.4144	0.0223	0.9871	-0.074
Mof_H 	H 	0.3562	0.0373	0.9788	0.056
Mof_C 	C 	0.565	0.0634	0.0449	-0.068
Mof_H 	H 	0.6089	0.1059	0.0757	0.056
Mof_C 	C 	0.6117	0.5497	0.3648	0.102
Mof_H 	H 	0.6568	0.5367	0.3415	-0.026
Mof_C 	C 	0.4908	0.5429	0.3913	0.007
Mof_H 	H 	0.4352	0.5236	0.3895	0.008
Mof_C 	C 	0.5362	0.6155	0.4415	-0.005
Mof_H 	H 	0.5182	0.655	0.4804	0.034
Mof_C 	C 	0.6835	0.6866	0.4628	0.083
Mof_C 	C 	0.7059	0.7104	0.5539	-0.071
Mof_H 	H 	0.6759	0.6836	0.5901	0.049
Mof_C 	C 	0.7267	0.7256	0.4083	-0.077
Mof_H 	H 	0.7109	0.7093	0.3466	0.056
Mof_N 	N 	0.9613	0.7996	0.1497	-0.237
Mof_N 	N 	0.9566	0.6749	0.0622	-0.158
Mof_N 	N 	0.0388	0.0022	0.3437	-0.258
Mof_N 	N 	0.1135	0.1201	0.4246	-0.13
Mof_C 	C 	0.9988	0.7186	0.142	0.153
Mof_H 	H 	0.0483	0.6944	0.1862	-0.054
Mof_C 	C 	0.8905	0.8079	0.0704	-0.004
Mof_H 	H 	0.8514	0.8587	0.0562	0.017
Mof_C 	C 	0.8866	0.7312	0.0166	0
Mof_H 	H 	0.8448	0.719	0.9599	0.028
Mof_C 	C 	0.9788	0.585	0.0308	0.173
Mof_C 	C 	0.9144	0.5223	0.9871	-0.156
Mof_H 	H 	0.8562	0.5373	0.9788	0.086
Mof_C 	C 	0.065	0.5634	0.0449	-0.183
Mof_H 	H 	0.1089	0.6059	0.0757	0.091
Mof_C 	C 	0.1117	0.0497	0.3648	0.1
Mof_H 	H 	0.1568	0.0367	0.3415	-0.026
Mof_C 	C 	0.9908	0.0429	0.3913	0.094
Mof_H 	H 	0.9352	0.0236	0.3895	-0.015
Mof_C 	C 	0.0362	0.1155	0.4415	-0.073
Mof_H 	H 	0.0182	0.155	0.4804	0.047
Mof_C 	C 	0.1835	0.1866	0.4628	0.079
Mof_C 	C 	0.2059	0.2104	0.5539	-0.072
Mof_H 	H 	0.1759	0.1836	0.5901	0.046
Mof_C 	C 	0.2267	0.2256	0.4083	-0.078
Mof_H 	H 	0.2109	0.2093	0.3466	0.053
Mof_N 	N 	0.4613	0.7004	0.6497	-0.235
Mof_N 	N 	0.4566	0.8251	0.5622	-0.139
Mof_N 	N 	0.5388	0.4978	0.8437	-0.233
Mof_N 	N 	0.6135	0.3799	0.9246	-0.139
Mof_C 	C 	0.4988	0.7814	0.642	0.095
Mof_H 	H 	0.5483	0.8056	0.6862	-0.017
Mof_C 	C 	0.3905	0.6921	0.5704	-0.007
Mof_H 	H 	0.3514	0.6413	0.5562	0.017
Mof_C 	C 	0.3866	0.7688	0.5166	0.001
Mof_H 	H 	0.3448	0.781	0.4599	0.025
Mof_C 	C 	0.4788	0.915	0.5308	0.087
Mof_C 	C 	0.4144	0.9777	0.4871	-0.077
Mof_H 	H 	0.3562	0.9627	0.4788	0.057
Mof_C 	C 	0.565	0.9366	0.5449	-0.077
Mof_H 	H 	0.6089	0.8941	0.5757	0.06
Mof_C 	C 	0.6117	0.4503	0.8648	0.103
Mof_H 	H 	0.6568	0.4633	0.8415	-0.026
Mof_C 	C 	0.4908	0.4571	0.8913	0.008
Mof_H 	H 	0.4352	0.4764	0.8895	0.009
Mof_C 	C 	0.5362	0.3845	0.9415	-0.004
Mof_H 	H 	0.5182	0.345	0.9804	0.034
Mof_C 	C 	0.6835	0.3134	0.9628	0.087
Mof_C 	C 	0.7059	0.2896	0.0539	-0.076
Mof_H 	H 	0.6759	0.3164	0.0901	0.05
Mof_C 	C 	0.7267	0.2744	0.9083	-0.08
Mof_H 	H 	0.7109	0.2907	0.8466	0.057
Mof_N 	N 	0.9613	0.2004	0.6497	-0.237
Mof_N 	N 	0.9566	0.3251	0.5622	-0.16
Mof_N 	N 	0.0388	0.9978	0.8437	-0.257
Mof_N 	N 	0.1135	0.8799	0.9246	-0.131
Mof_C 	C 	0.9988	0.2814	0.642	0.154
Mof_H 	H 	0.0483	0.3056	0.6862	-0.055
Mof_C 	C 	0.8905	0.1921	0.5704	-0.007
Mof_H 	H 	0.8514	0.1413	0.5562	0.019
Mof_C 	C 	0.8866	0.2688	0.5166	0.008
Mof_H 	H 	0.8448	0.281	0.4599	0.024
Mof_C 	C 	0.9788	0.415	0.5308	0.181
Mof_C 	C 	0.9144	0.4777	0.4871	-0.167
Mof_H 	H 	0.8562	0.4627	0.4788	0.089
Mof_C 	C 	0.065	0.4366	0.5449	-0.191
Mof_H 	H 	0.1089	0.3941	0.5757	0.094
Mof_C 	C 	0.1117	0.9503	0.8648	0.101
Mof_H 	H 	0.1568	0.9633	0.8415	-0.026
Mof_C 	C 	0.9908	0.9571	0.8913	0.091
Mof_H 	H 	0.9352	0.9764	0.8895	-0.014
Mof_C 	C 	0.0362	0.8845	0.9415	-0.069
Mof_H 	H 	0.0182	0.845	0.9804	0.048
Mof_C 	C 	0.1835	0.8134	0.9628	0.089
Mof_C 	C 	0.2059	0.7896	0.0539	-0.085
Mof_H 	H 	0.1759	0.8164	0.0901	0.049
Mof_C 	C 	0.2267	0.7744	0.9083	-0.088
Mof_H 	H 	0.2109	0.7907	0.8466	0.057
Mof_N 	N 	0.5387	0.7004	0.8503	-0.234
Mof_N 	N 	0.5434	0.8251	0.9378	-0.141
Mof_N 	N 	0.4612	0.4978	0.6563	-0.233
Mof_N 	N 	0.3865	0.3799	0.5754	-0.139
Mof_C 	C 	0.5012	0.7814	0.858	0.096
Mof_H 	H 	0.4517	0.8056	0.8138	-0.018
Mof_C 	C 	0.6095	0.6921	0.9296	-0.01
Mof_H 	H 	0.6486	0.6413	0.9438	0.018
Mof_C 	C 	0.6134	0.7688	0.9834	0.009
Mof_H 	H 	0.6552	0.781	0.0401	0.021
Mof_C 	C 	0.5212	0.915	0.9692	0.096
Mof_C 	C 	0.5856	0.9777	0.0129	-0.092
Mof_H 	H 	0.6438	0.9627	0.0212	0.061
Mof_C 	C 	0.435	0.9366	0.9551	-0.082
Mof_H 	H 	0.3911	0.8941	0.9243	0.061
Mof_C 	C 	0.3883	0.4503	0.6352	0.103
Mof_H 	H 	0.3432	0.4633	0.6585	-0.027
Mof_C 	C 	0.5092	0.4571	0.6087	0.007
Mof_H 	H 	0.5648	0.4764	0.6105	0.009
Mof_C 	C 	0.4638	0.3845	0.5585	-0.004
Mof_H 	H 	0.4818	0.345	0.5196	0.034
Mof_C 	C 	0.3165	0.3134	0.5372	0.088
Mof_C 	C 	0.2941	0.2896	0.4461	-0.079
Mof_H 	H 	0.3241	0.3164	0.4099	0.05
Mof_C 	C 	0.2733	0.2744	0.5917	-0.086
Mof_H 	H 	0.2891	0.2907	0.6534	0.057
Mof_N 	N 	0.0387	0.2004	0.8503	-0.23
Mof_N 	N 	0.0434	0.3251	0.9378	-0.12
Mof_N 	N 	0.9612	0.9978	0.6563	-0.205
Mof_N 	N 	0.8865	0.8799	0.5754	-0.148
Mof_C 	C 	0.0012	0.2814	0.858	0.038
Mof_H 	H 	0.9517	0.3056	0.8138	0.02
Mof_C 	C 	0.1095	0.1921	0.9296	-0.008
Mof_H 	H 	0.1486	0.1413	0.9438	0.015
Mof_C 	C 	0.1134	0.2688	0.9834	-0.002
Mof_H 	H 	0.1552	0.281	0.0401	0.025
Mof_C 	C 	0.0212	0.415	0.9692	0.003
Mof_C 	C 	0.0856	0.4777	0.0129	0.001
Mof_H 	H 	0.1438	0.4627	0.0212	0.029
Mof_C 	C 	0.935	0.4366	0.9551	0.026
Mof_H 	H 	0.8911	0.3941	0.9243	0.028
Mof_C 	C 	0.8883	0.9503	0.6352	0.106
Mof_H 	H 	0.8432	0.9633	0.6585	-0.025
Mof_C 	C 	0.0092	0.9571	0.6087	-0.077
Mof_H 	H 	0.0648	0.9764	0.6105	0.033
Mof_C 	C 	0.9638	0.8845	0.5585	0.062
Mof_H 	H 	0.9818	0.845	0.5196	0.021
Mof_C 	C 	0.8165	0.8134	0.5372	0.092
Mof_C 	C 	0.7941	0.7896	0.4461	-0.079
Mof_H 	H 	0.8241	0.8164	0.4099	0.054
Mof_C 	C 	0.7733	0.7744	0.5917	-0.085
Mof_H 	H 	0.7891	0.7907	0.6534	0.06
Mof_Cu	Cu	0.5	0.39685	0.25	0.851
Mof_Cu	Cu	-1.71802e-17	0.89685	0.25	0.839
Mof_Cu	Cu	0.5	0.60315	0.75	0.851
Mof_Cu	Cu	3.56523e-33	0.10315	0.75	0.839
_end
