data_functionalizedCrystal
_audit_creation_method	'EQeq! by Chris Wilmer'
_symmetry_space_group_name_H-M	'P1'
_symmetry_Int_Tables_number	1
_symmetry_cell_setting	triclinic
loop_
_symmetry_equiv_pos_as_xyz
  x,y,z
_cell_length_a	18.4835
_cell_length_b	27.1472
_cell_length_c	37.927
_cell_angle_alpha	90
_cell_angle_beta	90
_cell_angle_gamma	90
loop_
_atom_site_label
_atom_site_type_symbol
_atom_site_fract_x
_atom_site_fract_y
_atom_site_fract_z
_atom_site_charge
Mof_La	La	0.37381	0.25913	0.97661	2.449
Mof_La	La	0.12619	0.75913	0.52339	2.449
Mof_La	La	0.87381	0.75913	0.02339	2.448
Mof_La	La	0.61948	0.74851	0.90057	2.37
Mof_La	La	0.62619	0.74087	0.02339	2.448
Mof_La	La	0.61948	0.25149	0.59943	2.369
Mof_La	La	0.88052	0.75149	0.90057	2.369
Mof_La	La	0.87381	0.24087	0.47661	2.448
Mof_La	La	0.88052	0.24851	0.59943	2.369
Mof_La	La	0.11948	0.75149	0.40057	2.369
Mof_La	La	0.12619	0.24087	0.97661	2.447
Mof_La	La	0.62619	0.25913	0.47661	2.448
Mof_La	La	0.38052	0.74851	0.40057	2.369
Mof_La	La	0.11948	0.24851	0.09943	2.369
Mof_La	La	0.37381	0.74087	0.52339	2.448
Mof_La	La	0.38052	0.25149	0.09943	2.369
Mof_B 	B 	0.2558	0.9366	0.9675	0.946
Mof_B 	B 	0.75	0.25	0.825	1.001
Mof_B 	B 	0.25	0.75	0.175	1.001
Mof_B 	B 	0.25	0.25	0.325	1.001
Mof_B 	B 	0.7558	0.4366	0.0325	0.946
Mof_B 	B 	0.7442	0.0634	0.0325	0.946
Mof_B 	B 	0.7442	0.9366	0.4675	0.947
Mof_B 	B 	0.25	0.75	0.7532	0.922
Mof_B 	B 	0.2558	0.0634	0.5325	0.947
Mof_B 	B 	0.75	0.75	0.675	1.001
Mof_B 	B 	0.25	0.25	0.7468	0.922
Mof_B 	B 	0.2442	0.5634	0.9675	0.946
Mof_B 	B 	0.75	0.75	0.2532	0.922
Mof_B 	B 	0.7558	0.5634	0.4675	0.947
Mof_B 	B 	0.2442	0.4366	0.5325	0.947
Mof_B 	B 	0.75	0.25	0.2468	0.922
Mof_H 	H 	0.7283	0.3565	0.187	0.194
Mof_H 	H 	0.2908	0.6356	0.4725	0.144
Mof_H 	H 	0.2266	0.8042	0.1085	0.221
Mof_H 	H 	0.2716	0.1516	0.4921	0.229
Mof_H 	H 	0.7562	0.1521	0.3799	0.161
Mof_H 	H 	0.6508	0.1736	0.7967	0.223
Mof_H 	H 	0.6531	0.8002	0.2206	0.213
Mof_H 	H 	0.8582	0.481	0.3978	0.213
Mof_H 	H 	0.3677	0.8278	0.0599	0.141
Mof_H 	H 	0.6759	0.0956	0.3947	0.152
Mof_H 	H 	0.4728	0.6173	0.0996	0.104
Mof_H 	H 	0.6185	0.2087	0.1015	0.147
Mof_H 	H 	0.8241	0.4044	0.3947	0.152
Mof_H 	H 	0.403	0.4854	0.5814	0.222
Mof_H 	H 	0.55	0.835	0.5686	0.167
Mof_H 	H 	0.8815	0.7087	0.3985	0.147
Mof_H 	H 	0.3677	0.1722	0.4401	0.141
Mof_H 	H 	0.6082	0.1318	0.913	0.133
Mof_H 	H 	0.2927	0.8555	0.8933	0.201
Mof_H 	H 	0.891	0.8429	0.6807	0.216
Mof_H 	H 	0.0649	0.7327	0.9255	0.153
Mof_H 	H 	0.005	0.4014	0.967	0.155
Mof_H 	H 	0.4446	0.2766	0.4928	0.149
Mof_H 	H 	0.8424	0.5243	0.5124	0.215
Mof_H 	H 	0.1489	0.9046	0.4683	0.142
Mof_H 	H 	0.2676	0.8647	0.2868	0.165
Mof_H 	H 	0.4635	0.1919	0.2038	0.172
Mof_H 	H 	0.7734	0.1958	0.8915	0.221
Mof_H 	H 	0.1849	0.8621	0.6972	0.208
Mof_H 	H 	0.7717	0.1435	0.187	0.194
Mof_H 	H 	0.8511	0.0954	0.5317	0.142
Mof_H 	H 	0.7092	0.6356	0.9725	0.143
Mof_H 	H 	0.3879	0.9665	0.4342	0.105
Mof_H 	H 	0.1121	0.5335	0.4342	0.105
Mof_H 	H 	0.0695	0.7088	0.7182	0.215
Mof_H 	H 	0.9728	0.1173	0.9004	0.104
Mof_H 	H 	0.7196	0.1831	0.203	0.197
Mof_H 	H 	0.3349	0.6878	0.2025	0.221
Mof_H 	H 	0.0618	0.8602	0.0655	0.112
Mof_H 	H 	0.3511	0.5954	0.4683	0.142
Mof_H 	H 	0.3144	0.5408	0.0224	0.2
Mof_H 	H 	0.7481	0.8448	0.6352	0.204
Mof_H 	H 	0.1531	0.3002	0.7794	0.213
Mof_H 	H 	0.1508	0.6736	0.2033	0.223
Mof_H 	H 	0.597	0.5146	0.4186	0.222
Mof_H 	H 	0.2734	0.6958	0.1085	0.221
Mof_H 	H 	0.1527	0.6549	0.288	0.154
Mof_H 	H 	0.3799	0.619	0.5404	-0.045
Mof_H 	H 	0.8151	0.1379	0.3028	0.208
Mof_H 	H 	0.2266	0.1958	0.3915	0.221
Mof_H 	H 	0.4887	0.9205	0.3622	0.112
Mof_H 	H 	0.989	0.374	0.6133	0.136
Mof_H 	H 	0.2723	0.1494	0.2976	0.203
Mof_H 	H 	0.7224	0.59	0.948	0.148
Mof_H 	H 	0.3366	0.8792	0.4336	-0.052
Mof_H 	H 	0.7519	0.6552	0.6352	0.204
Mof_H 	H 	0.9819	0.9378	0.011	0.119
Mof_H 	H 	0.549	0.0199	0.5916	0.104
Mof_H 	H 	0.7804	0.3169	0.203	0.197
Mof_H 	H 	0.0441	0.9178	0.4333	0.139
Mof_H 	H 	0.3469	0.8002	0.7206	0.213
Mof_H 	H 	0.4382	0.3602	0.4345	0.112
Mof_H 	H 	0.2291	0.8809	0.0351	0.209
Mof_H 	H 	0.9972	0.1812	0.3253	0.158
Mof_H 	H 	0.1046	0.4099	0.9168	0.155
Mof_H 	H 	0.2717	0.3565	0.687	0.194
Mof_H 	H 	0.9227	0.0849	0.9244	0.096
Mof_H 	H 	0.1418	0.519	0.6022	0.213
Mof_H 	H 	0.5554	0.2766	0.9928	0.149
Mof_H 	H 	0.6881	0.3631	0.3506	0.138
Mof_H 	H 	0.0113	0.9383	0.9056	0.13
Mof_H 	H 	0.0152	0.1165	0.0969	0.148
Mof_H 	H 	0.95	0.665	0.5686	0.167
Mof_H 	H 	0.8349	0.8122	0.7025	0.221
Mof_H 	H 	0.3431	0.3106	0.6238	0.14
Mof_H 	H 	0.364	0.5526	0.8939	0.209
Mof_H 	H 	0.4643	0.9299	0.5003	0.154
Mof_H 	H 	0.2903	0.675	0.0307	0.223
Mof_H 	H 	0.011	0.626	0.3867	0.136
Mof_H 	H 	0.9848	0.8835	0.9031	0.148
Mof_H 	H 	0.5554	0.7234	0.5072	0.149
Mof_H 	H 	0.7284	0.8484	0.5079	0.229
Mof_H 	H 	0.8393	0.1716	0.2713	0.218
Mof_H 	H 	0.8889	0.4433	0.9619	0.204
Mof_H 	H 	0.1302	0.1431	0.6448	0.141
Mof_H 	H 	0.6508	0.8264	0.7033	0.223
Mof_H 	H 	0.511	0.126	0.6133	0.136
Mof_H 	H 	0.8144	0.9592	0.5224	0.2
Mof_H 	H 	0.903	0.0146	0.0814	0.223
Mof_H 	H 	0.7676	0.3647	0.7132	0.165
Mof_H 	H 	0.1531	0.6998	0.7206	0.213
Mof_H 	H 	0.5113	0.4383	0.0944	0.132
Mof_H 	H 	0.995	0.5986	0.033	0.155
Mof_H 	H 	0.3241	0.0956	0.8947	0.152
Mof_H 	H 	0.5365	0.8081	0.7962	0.172
Mof_H 	H 	0.049	0.5199	0.4084	0.104
Mof_H 	H 	0.1856	0.0408	0.4776	0.2
Mof_H 	H 	0.4004	0.1655	0.7587	0.199
Mof_H 	H 	0.7776	0.91	0.948	0.148
Mof_H 	H 	0.0649	0.2673	0.5745	0.154
Mof_H 	H 	0.7723	0.3506	0.7976	0.203
Mof_H 	H 	0.2804	0.8169	0.797	0.197
Mof_H 	H 	0.2977	0.0215	0.6013	0.198
Mof_H 	H 	0.6607	0.6716	0.2287	0.218
Mof_H 	H 	0.6642	0.3281	0.3813	0.171
Mof_H 	H 	0.391	0.3429	0.3193	0.216
Mof_H 	H 	0.4819	0.4378	0.989	0.118
Mof_H 	H 	0.7023	0.0215	0.1013	0.197
Mof_H 	H 	0.5258	0.5344	0.5403	0.105
Mof_H 	H 	0.451	0.9801	0.4084	0.104
Mof_H 	H 	0.0739	0.8217	0.8731	0.166
Mof_H 	H 	0.6121	0.0335	0.5658	0.105
Mof_H 	H 	0.891	0.1571	0.8193	0.216
Mof_H 	H 	0.6111	0.9433	0.5381	0.205
Mof_H 	H 	0.0388	0.4375	0.0642	0.116
Mof_H 	H 	0.6302	0.6431	0.3552	0.141
Mof_H 	H 	0.559	0.4666	0.4592	0.107
Mof_H 	H 	0.5558	0.2385	0.7264	0.175
Mof_H 	H 	0.4305	0.2088	0.7818	0.215
Mof_H 	H 	0.7903	0.825	0.5307	0.223
Mof_H 	H 	0.8492	0.6736	0.7033	0.223
Mof_H 	H 	0.2906	0.4998	0.0491	0.202
Mof_H 	H 	0.6642	0.6719	0.1187	0.171
Mof_H 	H 	0.049	0.4801	0.0916	0.104
Mof_H 	H 	0.2283	0.8565	0.813	0.194
Mof_H 	H 	0.451	0.0199	0.0916	0.104
Mof_H 	H 	0.2908	0.3644	0.0275	0.143
Mof_H 	H 	0.582	0.306	0.7904	0.227
Mof_H 	H 	0.3358	0.3281	0.8813	0.171
Mof_H 	H 	0.941	0.9666	0.0408	0.108
Mof_H 	H 	0.0441	0.0822	0.0667	0.138
Mof_H 	H 	0.109	0.1571	0.3193	0.216
Mof_H 	H 	0.941	0.0334	0.4592	0.108
Mof_H 	H 	0.2562	0.6521	0.6201	0.161
Mof_H 	H 	0.0028	0.1812	0.8253	0.158
Mof_H 	H 	0.4887	0.5617	0.9056	0.132
Mof_H 	H 	0.561	0.1246	0.6466	0.124
Mof_H 	H 	0.6634	0.1208	0.5664	-0.052
Mof_H 	H 	0.4351	0.2327	0.5745	0.154
Mof_H 	H 	0.3393	0.6716	0.7287	0.218
Mof_H 	H 	0.1527	0.3451	0.212	0.154
Mof_H 	H 	0.011	0.374	0.1133	0.136
Mof_H 	H 	0.6121	0.9665	0.9342	0.105
Mof_H 	H 	0.5996	0.8345	0.2413	0.199
Mof_H 	H 	0.0773	0.9151	0.0756	0.096
Mof_H 	H 	0.55	0.165	0.9314	0.167
Mof_H 	H 	0.3119	0.3631	0.8506	0.138
Mof_H 	H 	0.1201	0.119	0.9596	-0.045
Mof_H 	H 	0.4742	0.4656	0.4597	0.105
Mof_H 	H 	0.3799	0.381	0.9596	-0.045
Mof_H 	H 	0.8431	0.8106	0.3762	0.14
Mof_H 	H 	0.9351	0.2673	0.0745	0.153
Mof_H 	H 	0.441	0.5334	0.5408	0.107
Mof_H 	H 	0.6367	0.5056	0.9718	0.211
Mof_H 	H 	0.2562	0.3479	0.8799	0.161
Mof_H 	H 	0.2667	0.3755	0.5809	0.207
Mof_H 	H 	0.1576	0.5243	0.0124	0.215
Mof_H 	H 	0.2291	0.1191	0.4649	0.209
Mof_H 	H 	0.4442	0.7225	0.6617	0.188
Mof_H 	H 	0.6185	0.7913	0.3985	0.147
Mof_H 	H 	0.3633	0.4944	0.0282	0.211
Mof_H 	H 	0.2709	0.6191	0.0351	0.209
Mof_H 	H 	0.2603	0.3493	0.7726	0.199
Mof_H 	H 	0.0739	0.1783	0.6269	0.166
Mof_H 	H 	0.8241	0.5956	0.1053	0.152
Mof_H 	H 	0.3932	0.3	0.4645	0.132
Mof_H 	H 	0.9728	0.8827	0.5996	0.104
Mof_H 	H 	0.9227	0.9151	0.5756	0.096
Mof_H 	H 	0.9819	0.0622	0.489	0.119
Mof_H 	H 	0.7438	0.6521	0.1201	0.161
Mof_H 	H 	0.6418	0.019	0.3978	0.213
Mof_H 	H 	0.061	0.3754	0.1466	0.124
Mof_H 	H 	0.1552	0.6358	0.5774	0.181
Mof_H 	H 	0.2906	0.5002	0.4509	0.202
Mof_H 	H 	0.2224	0.91	0.448	0.148
Mof_H 	H 	0.8492	0.3264	0.7967	0.223
Mof_H 	H 	0.2667	0.6245	0.9191	0.207
Mof_H 	H 	0.6485	0.2366	0.0684	0.138
Mof_H 	H 	0.754	0.3195	0.0804	0.207
Mof_H 	H 	0.864	0.0526	0.1061	0.209
Mof_H 	H 	0.7187	0.8449	0.5964	0.214
Mof_H 	H 	0.4467	0.8738	0.5053	0.188
Mof_H 	H 	0.319	0.4779	0.5787	0.215
Mof_H 	H 	0.6111	0.0567	0.9619	0.205
Mof_H 	H 	0.0142	0.3056	0.2437	0.153
Mof_H 	H 	0.4442	0.7615	0.2736	0.175
Mof_H 	H 	0.5558	0.7615	0.7736	0.175
Mof_H 	H 	0.2277	0.6494	0.2024	0.203
Mof_H 	H 	0.7324	0.8647	0.7868	0.165
Mof_H 	H 	0.1394	0.7694	0.0042	0.132
Mof_H 	H 	0.1881	0.1369	0.8506	0.138
Mof_H 	H 	0.059	0.0334	0.9592	0.108
Mof_H 	H 	0.5649	0.7673	0.4255	0.154
Mof_H 	H 	0.1082	0.6318	0.087	0.133
Mof_H 	H 	0.3241	0.9044	0.6053	0.152
Mof_H 	H 	0.6856	0.4592	0.9776	0.2
Mof_H 	H 	0.9446	0.2234	0.9928	0.149
Mof_H 	H 	0.2094	0.9998	0.4509	0.202
Mof_H 	H 	0.9643	0.4299	0.4997	0.154
Mof_H 	H 	0.1759	0.5956	0.6053	0.152
Mof_H 	H 	0.3815	0.2087	0.6015	0.147
Mof_H 	H 	0.8358	0.8281	0.1187	0.171
Mof_H 	H 	0.3954	0.9099	0.5832	0.155
Mof_H 	H 	0.5113	0.5617	0.4056	0.132
Mof_H 	H 	0.1201	0.881	0.5404	-0.045
Mof_H 	H 	0.9858	0.3056	0.7437	0.153
Mof_H 	H 	0.7284	0.1516	0.9921	0.229
Mof_H 	H 	0.082	0.194	0.2904	0.227
Mof_H 	H 	0.6881	0.6369	0.1494	0.138
Mof_H 	H 	0.3515	0.2366	0.5684	0.138
Mof_H 	H 	0.254	0.8195	0.9196	0.207
Mof_H 	H 	0.2709	0.3809	0.4649	0.209
Mof_H 	H 	0.2903	0.325	0.4693	0.223
Mof_H 	H 	0.2519	0.8448	0.1352	0.204
Mof_H 	H 	0.9612	0.5625	0.9358	0.116
Mof_H 	H 	0.2284	0.3484	0.4921	0.229
Mof_H 	H 	0.0365	0.6919	0.2962	0.172
Mof_H 	H 	0.5365	0.1919	0.7038	0.172
Mof_H 	H 	0.7266	0.3042	0.8915	0.221
Mof_H 	H 	0.7481	0.1552	0.8648	0.204
Mof_H 	H 	0.7224	0.41	0.552	0.148
Mof_H 	H 	0.5388	0.0625	0.5642	0.116
Mof_H 	H 	0.6552	0.8642	0.0774	0.181
Mof_H 	H 	0.2094	0.0002	0.0491	0.203
Mof_H 	H 	0.1046	0.5901	0.5832	0.155
Mof_H 	H 	0.8469	0.6998	0.2206	0.213
Mof_H 	H 	0.7291	0.3809	0.9649	0.209
Mof_H 	H 	0.9559	0.0822	0.5667	0.139
Mof_H 	H 	0.6201	0.619	0.0404	-0.045
Mof_H 	H 	0.5618	0.3602	0.9345	0.112
Mof_H 	H 	0.7813	0.3449	0.9036	0.214
Mof_H 	H 	0.5279	0.6824	0.1353	0.181
Mof_H 	H 	0.6569	0.6894	0.3762	0.14
Mof_H 	H 	0.951	0.4801	0.5916	0.104
Mof_H 	H 	0.927	0.5212	0.5112	0.21
Mof_H 	H 	0.7908	0.1356	0.5275	0.144
Mof_H 	H 	0.0533	0.6262	0.5053	0.188
Mof_H 	H 	0.8515	0.7366	0.4316	0.138
Mof_H 	H 	0.9643	0.5701	0.0003	0.154
Mof_H 	H 	0.7734	0.8042	0.6085	0.221
Mof_H 	H 	0.0113	0.0617	0.5944	0.131
Mof_H 	H 	0.7092	0.3644	0.5275	0.144
Mof_H 	H 	0.7676	0.6353	0.7868	0.165
Mof_H 	H 	0.8469	0.3002	0.2794	0.213
Mof_H 	H 	0.7927	0.6445	0.3933	0.201
Mof_H 	H 	0.2097	0.825	0.0307	0.223
Mof_H 	H 	0.1607	0.8284	0.7287	0.218
Mof_H 	H 	0.3469	0.1998	0.7794	0.213
Mof_H 	H 	0.2073	0.6445	0.8933	0.201
Mof_H 	H 	0.0558	0.7775	0.6617	0.188
Mof_H 	H 	0.7709	0.8809	0.5351	0.209
Mof_H 	H 	0.2224	0.09	0.052	0.148
Mof_H 	H 	0.6552	0.1358	0.4226	0.181
Mof_H 	H 	0.5649	0.2327	0.0745	0.154
Mof_H 	H 	0.3687	0.9716	0.9208	0.219
Mof_H 	H 	0.681	0.4779	0.0787	0.215
Mof_H 	H 	0.1634	0.6208	0.4336	-0.052
Mof_H 	H 	0.7187	0.1551	0.9036	0.214
Mof_H 	H 	0.319	0.5221	0.9213	0.215
Mof_H 	H 	0.2927	0.1445	0.6067	0.201
Mof_H 	H 	0.7602	0.315	0.1629	0.2
Mof_H 	H 	0.489	0.874	0.3867	0.136
Mof_H 	H 	0.136	0.0526	0.6061	0.209
Mof_H 	H 	0.3151	0.3621	0.8028	0.208
Mof_H 	H 	0.0365	0.3081	0.2038	0.172
Mof_H 	H 	0.5739	0.3217	0.1269	0.166
Mof_H 	H 	0.636	0.4474	0.1061	0.209
Mof_H 	H 	0.8879	0.5335	0.9342	0.105
Mof_H 	H 	0.9721	0.8176	0.1353	0.181
Mof_H 	H 	0.7073	0.1445	0.1067	0.201
Mof_H 	H 	0.4721	0.6824	0.6353	0.181
Mof_H 	H 	0.2187	0.3449	0.4036	0.214
Mof_H 	H 	0.7667	0.8755	0.4191	0.207
Mof_H 	H 	0.7903	0.175	0.9693	0.223
Mof_H 	H 	0.0272	0.8827	0.0996	0.104
Mof_H 	H 	0.8473	0.6549	0.788	0.154
Mof_H 	H 	0.5441	0.5822	0.9333	0.139
Mof_H 	H 	0.6569	0.3106	0.1238	0.14
Mof_H 	H 	0.2804	0.1831	0.703	0.197
Mof_H 	H 	0.636	0.5526	0.3939	0.209
Mof_H 	H 	0.6046	0.0901	0.4168	0.155
Mof_H 	H 	0.4728	0.3827	0.4004	0.104
Mof_H 	H 	0.3515	0.7634	0.9316	0.138
Mof_H 	H 	0.3492	0.8264	0.2033	0.223
Mof_H 	H 	0.7277	0.8506	0.7024	0.203
Mof_H 	H 	0.1642	0.1719	0.8813	0.171
Mof_H 	H 	0.3606	0.7306	0.0042	0.132
Mof_H 	H 	0.0357	0.5701	0.5003	0.154
Mof_H 	H 	0.6489	0.5954	0.9683	0.142
Mof_H 	H 	0.9887	0.9383	0.4056	0.131
Mof_H 	H 	0.2676	0.1353	0.2132	0.165
Mof_H 	H 	0.1111	0.5567	0.0381	0.204
Mof_H 	H 	0.1082	0.3682	0.413	0.133
Mof_H 	H 	0.2481	0.3448	0.3648	0.204
Mof_H 	H 	0.6607	0.3284	0.2713	0.218
Mof_H 	H 	0.3918	0.1318	0.413	0.133
Mof_H 	H 	0.05	0.665	0.0686	0.168
Mof_H 	H 	0.4643	0.0701	0.9997	0.154
Mof_H 	H 	0.3954	0.0901	0.9168	0.155
Mof_H 	H 	0.1607	0.1716	0.7713	0.218
Mof_H 	H 	0.9442	0.7385	0.7736	0.174
Mof_H 	H 	0.059	0.9666	0.5408	0.108
Mof_H 	H 	0.4612	0.0625	0.0642	0.116
Mof_H 	H 	0.8677	0.3278	0.9401	0.141
Mof_H 	H 	0.9442	0.7775	0.1617	0.188
Mof_H 	H 	0.495	0.9014	0.533	0.155
Mof_H 	H 	0.418	0.306	0.2904	0.227
Mof_H 	H 	0.7906	0.9998	0.9509	0.203
Mof_H 	H 	0.2723	0.8506	0.2024	0.203
Mof_H 	H 	0.8799	0.881	0.0404	-0.045
Mof_H 	H 	0.4227	0.4151	0.4244	0.096
Mof_H 	H 	0.8889	0.5567	0.5381	0.205
Mof_H 	H 	0.3234	0.8595	0.2348	0.218
Mof_H 	H 	0.8932	0.2	0.9645	0.132
Mof_H 	H 	0.8151	0.8621	0.1972	0.208
Mof_H 	H 	0.1849	0.1379	0.8028	0.208
Mof_H 	H 	0.7073	0.8555	0.3933	0.201
Mof_H 	H 	0.1185	0.2913	0.6015	0.147
Mof_H 	H 	0.5533	0.8738	0.0053	0.188
Mof_H 	H 	0.4442	0.2775	0.8383	0.188
Mof_H 	H 	0.1323	0.6722	0.0599	0.141
Mof_H 	H 	0.6394	0.2694	0.9958	0.132
Mof_H 	H 	0.864	0.9474	0.3939	0.209
Mof_H 	H 	0.0695	0.2912	0.7818	0.215
Mof_H 	H 	0.2187	0.6551	0.0964	0.214
Mof_H 	H 	0.9858	0.6944	0.7563	0.153
Mof_H 	H 	0.5272	0.6173	0.5996	0.104
Mof_H 	H 	0.6576	0.9757	0.5124	0.215
Mof_H 	H 	0.7562	0.8479	0.1201	0.161
Mof_H 	H 	0.7094	0.5002	0.9509	0.202
Mof_H 	H 	0.7283	0.6435	0.313	0.194
Mof_H 	H 	0.391	0.6571	0.1807	0.216
Mof_H 	H 	0.6634	0.8792	0.9336	-0.052
Mof_H 	H 	0.4819	0.5622	0.511	0.118
Mof_H 	H 	0.6766	0.8595	0.7348	0.218
Mof_H 	H 	0.6527	0.8451	0.788	0.154
Mof_H 	H 	0.489	0.126	0.1133	0.136
Mof_H 	H 	0.3358	0.6719	0.6187	0.171
Mof_H 	H 	0.246	0.3195	0.5804	0.207
Mof_H 	H 	0.0181	0.9378	0.511	0.119
Mof_H 	H 	0.505	0.9014	0.033	0.155
Mof_H 	H 	0.2023	0.4785	0.6013	0.198
Mof_H 	H 	0.4742	0.5344	0.0403	0.105
Mof_H 	H 	0.2716	0.8484	0.0079	0.229
Mof_H 	H 	0.9635	0.6919	0.7962	0.172
Mof_H 	H 	0.6485	0.7634	0.4316	0.138
Mof_H 	H 	0.6849	0.3621	0.3028	0.208
Mof_H 	H 	0.9635	0.3081	0.7038	0.172
Mof_H 	H 	0.2481	0.6552	0.1352	0.204
Mof_H 	H 	0.549	0.9801	0.9084	0.104
Mof_H 	H 	0.4972	0.3188	0.8253	0.158
Mof_H 	H 	0.927	0.4788	0.9888	0.21
Mof_H 	H 	0.097	0.9854	0.9186	0.223
Mof_H 	H 	0.5028	0.6812	0.1747	0.158
Mof_H 	H 	0.5996	0.1655	0.2587	0.199
Mof_H 	H 	0.2602	0.815	0.8371	0.2
Mof_H 	H 	0.7397	0.3493	0.2726	0.199
Mof_H 	H 	0.2397	0.1507	0.7726	0.199
Mof_H 	H 	0.6531	0.1998	0.2794	0.213
Mof_H 	H 	0.3606	0.2694	0.4958	0.132
Mof_H 	H 	0.8879	0.4665	0.5658	0.105
Mof_H 	H 	0.7813	0.6551	0.5964	0.214
Mof_H 	H 	0.4887	0.4383	0.5944	0.132
Mof_H 	H 	0.561	0.8754	0.8534	0.124
Mof_H 	H 	0.2603	0.6507	0.7274	0.199
Mof_H 	H 	0.7333	0.3755	0.0809	0.207
Mof_H 	H 	0.7716	0.3484	0.9921	0.229
Mof_H 	H 	0.7667	0.1245	0.0809	0.207
Mof_H 	H 	0.495	0.0986	0.967	0.155
Mof_H 	H 	0.1367	0.9944	0.4718	0.211
Mof_H 	H 	0.9848	0.1165	0.5969	0.149
Mof_H 	H 	0.5441	0.4178	0.5667	0.139
Mof_H 	H 	0.3349	0.3122	0.2975	0.221
Mof_H 	H 	0.0554	0.7766	0.0072	0.149
Mof_H 	H 	0.3889	0.9433	0.0381	0.205
Mof_H 	H 	0.3119	0.6369	0.6494	0.138
Mof_H 	H 	0.746	0.8195	0.4196	0.207
Mof_H 	H 	0.2324	0.6353	0.2868	0.165
Mof_H 	H 	0.9305	0.7088	0.2182	0.215
Mof_H 	H 	0.2069	0.6686	0.3182	0.185
Mof_H 	H 	0.7804	0.6831	0.297	0.197
Mof_H 	H 	0.7277	0.1494	0.7976	0.203
Mof_H 	H 	0.8119	0.1369	0.3506	0.138
Mof_H 	H 	0.5773	0.4151	0.9244	0.096
Mof_H 	H 	0.939	0.3754	0.6466	0.124
Mof_H 	H 	0.8431	0.1894	0.1238	0.14
Mof_H 	H 	0.6313	0.0284	0.0792	0.219
Mof_H 	H 	0.9442	0.2225	0.3383	0.188
Mof_H 	H 	0.5113	0.9205	0.8622	0.113
Mof_H 	H 	0.2023	0.5215	0.8987	0.198
Mof_H 	H 	0.4559	0.5822	0.4333	0.139
Mof_H 	H 	0.2717	0.6435	0.813	0.194
Mof_H 	H 	0.7977	0.4785	0.1013	0.198
Mof_H 	H 	0.2196	0.3169	0.703	0.197
Mof_H 	H 	0.136	0.9474	0.8939	0.209
Mof_H 	H 	0.8698	0.1431	0.1448	0.141
Mof_H 	H 	0.439	0.8754	0.3534	0.124
Mof_H 	H 	0.0028	0.8188	0.6747	0.158
Mof_H 	H 	0.8582	0.519	0.1022	0.212
Mof_H 	H 	0.254	0.1805	0.5804	0.207
Mof_H 	H 	0.4004	0.8345	0.7413	0.199
Mof_H 	H 	0.819	0.0221	0.0787	0.215
Mof_H 	H 	0.181	0.0221	0.5787	0.215
Mof_H 	H 	0.1111	0.4433	0.4619	0.205
Mof_H 	H 	0.7069	0.8314	0.8182	0.185
Mof_H 	H 	0.3366	0.1208	0.0664	-0.052
Mof_H 	H 	0.7603	0.8493	0.2274	0.199
Mof_H 	H 	0.2097	0.175	0.4693	0.223
Mof_H 	H 	0.2333	0.1245	0.5809	0.207
Mof_H 	H 	0.9442	0.2615	0.7264	0.174
Mof_H 	H 	0.8954	0.4099	0.4168	0.155
Mof_H 	H 	0.2931	0.1686	0.1818	0.185
Mof_H 	H 	0.0996	0.3345	0.7587	0.199
Mof_H 	H 	0.1418	0.481	0.8978	0.212
Mof_H 	H 	0.1485	0.2634	0.5684	0.138
Mof_H 	H 	0.1367	0.0056	0.0282	0.212
Mof_H 	H 	0.0558	0.7385	0.2736	0.174
Mof_H 	H 	0.8606	0.7694	0.5042	0.132
Mof_H 	H 	0.5258	0.4656	0.9597	0.105
Mof_H 	H 	0.6651	0.6878	0.7025	0.221
Mof_H 	H 	0.6302	0.3569	0.1448	0.141
Mof_H 	H 	0.3879	0.0335	0.0658	0.105
Mof_H 	H 	0.7908	0.8644	0.9725	0.143
Mof_H 	H 	0.2438	0.1521	0.8799	0.161
Mof_H 	H 	0.3234	0.1405	0.2652	0.218
Mof_H 	H 	0.9004	0.6655	0.2413	0.199
Mof_H 	H 	0.3932	0.7	0.0355	0.132
Mof_H 	H 	0.1759	0.4044	0.8947	0.152
Mof_H 	H 	0.418	0.694	0.2096	0.227
Mof_H 	H 	0.2398	0.315	0.6629	0.2
Mof_H 	H 	0.2776	0.41	0.052	0.148
Mof_H 	H 	0.9261	0.8217	0.3731	0.166
Mof_H 	H 	0.8366	0.3792	0.5664	-0.052
Mof_H 	H 	0.005	0.5986	0.533	0.155
Mof_H 	H 	0.4305	0.7912	0.7182	0.215
Mof_H 	H 	0.7602	0.685	0.3371	0.2
Mof_H 	H 	0.951	0.5199	0.9084	0.104
Mof_H 	H 	0.3424	0.9757	0.0124	0.215
Mof_H 	H 	0.4442	0.2385	0.2264	0.175
Mof_H 	H 	0.6856	0.5408	0.5224	0.2
Mof_H 	H 	0.511	0.874	0.8867	0.136
Mof_H 	H 	0.2092	0.1356	0.0275	0.143
Mof_H 	H 	0.573	0.9788	0.5112	0.21
Mof_H 	H 	0.7438	0.3479	0.3799	0.161
Mof_H 	H 	0.9612	0.4375	0.5642	0.116
Mof_H 	H 	0.5181	0.5622	0.011	0.118
Mof_H 	H 	0.2397	0.8493	0.7274	0.199
Mof_H 	H 	0.7398	0.185	0.1629	0.2
Mof_H 	H 	0.082	0.806	0.2096	0.227
Mof_H 	H 	0.8932	0.8	0.5355	0.132
Mof_H 	H 	0.7023	0.9785	0.3987	0.198
Mof_H 	H 	0.8511	0.9046	0.9683	0.142
Mof_H 	H 	0.097	0.0146	0.5814	0.222
Mof_H 	H 	0.4721	0.3176	0.8647	0.181
Mof_H 	H 	0.364	0.4474	0.6061	0.209
Mof_H 	H 	0.0142	0.6944	0.2563	0.153
Mof_H 	H 	0.1508	0.3264	0.2967	0.223
Mof_H 	H 	0.6418	0.981	0.1022	0.212
Mof_H 	H 	0.0554	0.2234	0.4928	0.149
Mof_H 	H 	0.4351	0.7673	0.9255	0.154
Mof_H 	H 	0.4446	0.7234	0.0072	0.149
Mof_H 	H 	0.3393	0.3284	0.7713	0.218
Mof_H 	H 	0.3448	0.8642	0.5774	0.181
Mof_H 	H 	0.8515	0.2634	0.0684	0.138
Mof_H 	H 	0.9467	0.3738	0.4947	0.188
Mof_H 	H 	0.2813	0.1551	0.4036	0.214
Mof_H 	H 	0.9382	0.1398	0.9345	0.112
Mof_H 	H 	0.9742	0.0344	0.9597	0.106
Mof_H 	H 	0.6313	0.9716	0.4208	0.22
Mof_H 	H 	0.3448	0.1358	0.9226	0.181
Mof_H 	H 	0.3582	0.019	0.8978	0.212
Mof_H 	H 	0.3582	0.981	0.6022	0.213
Mof_H 	H 	0.1302	0.8569	0.8552	0.141
Mof_H 	H 	0.4559	0.4178	0.0667	0.139
Mof_H 	H 	0.5113	0.0795	0.6378	0.112
Mof_H 	H 	0.754	0.6805	0.4196	0.207
Mof_H 	H 	0.1576	0.4757	0.4876	0.215
Mof_H 	H 	0.0258	0.9656	0.0403	0.106
Mof_H 	H 	0.8698	0.8569	0.3552	0.141
Mof_H 	H 	0.0558	0.2615	0.2264	0.174
Mof_H 	H 	0.9887	0.0617	0.0944	0.13
Mof_H 	H 	0.8954	0.5901	0.0832	0.155
Mof_H 	H 	0.6323	0.8278	0.5599	0.141
Mof_H 	H 	0.3815	0.7913	0.8985	0.147
Mof_H 	H 	0.05	0.335	0.4314	0.167
Mof_H 	H 	0.8606	0.2306	0.9958	0.132
Mof_H 	H 	0.5181	0.4378	0.489	0.118
Mof_H 	H 	0.9305	0.2912	0.2818	0.215
Mof_H 	H 	0.6046	0.9099	0.0832	0.155
Mof_H 	H 	0.7931	0.3314	0.6818	0.185
Mof_H 	H 	0.609	0.6571	0.6807	0.216
Mof_H 	H 	0.2398	0.685	0.8371	0.2
Mof_H 	H 	0.4635	0.8081	0.2962	0.172
Mof_H 	H 	0.5028	0.3188	0.3253	0.158
Mof_H 	H 	0.7723	0.6494	0.7024	0.203
Mof_H 	H 	0.4612	0.9375	0.4358	0.116
Mof_H 	H 	0.9351	0.7327	0.4255	0.154
Mof_H 	H 	0.3144	0.4592	0.4776	0.2
Mof_H 	H 	0.1766	0.6405	0.2348	0.218
Mof_H 	H 	0.5142	0.8056	0.7563	0.153
Mof_H 	H 	0.6651	0.3122	0.7975	0.221
Mof_H 	H 	0.6068	0.7	0.5355	0.132
Mof_H 	H 	0.2284	0.6516	0.0079	0.229
Mof_H 	H 	0.2073	0.3555	0.6067	0.201
Mof_H 	H 	0.3633	0.5056	0.4718	0.211
Mof_H 	H 	0.681	0.5221	0.4213	0.215
Mof_H 	H 	0.5695	0.2088	0.2818	0.215
Mof_H 	H 	0.4261	0.6783	0.8731	0.166
Mof_H 	H 	0.2519	0.1552	0.3648	0.204
Mof_H 	H 	0.2283	0.1435	0.687	0.194
Mof_H 	H 	0.918	0.806	0.7096	0.227
Mof_H 	H 	0.9467	0.6262	0.0053	0.188
Mof_H 	H 	0.8234	0.6405	0.7348	0.218
Mof_H 	H 	0.5773	0.5849	0.5756	0.096
Mof_H 	H 	0.1489	0.0954	0.0317	0.142
Mof_H 	H 	0.4887	0.0795	0.1378	0.113
Mof_H 	H 	0.3698	0.6431	0.8552	0.141
Mof_H 	H 	0.4858	0.1944	0.2437	0.153
Mof_H 	H 	0.8918	0.3682	0.913	0.133
Mof_H 	H 	0.9742	0.9656	0.5403	0.105
Mof_H 	H 	0.1634	0.3792	0.0664	-0.052
Mof_H 	H 	0.0272	0.1173	0.4004	0.104
Mof_H 	H 	0.0113	0.5795	0.3622	0.112
Mof_H 	H 	0.7716	0.6516	0.5079	0.229
Mof_H 	H 	0.582	0.694	0.7096	0.227
Mof_H 	H 	0.4848	0.3835	0.0969	0.15
Mof_H 	H 	0.45	0.165	0.4314	0.167
Mof_H 	H 	0.6201	0.381	0.4596	-0.045
Mof_H 	H 	0.7324	0.1353	0.7132	0.165
Mof_H 	H 	0.819	0.9779	0.4213	0.215
Mof_H 	H 	0.0996	0.6655	0.7413	0.199
Mof_H 	H 	0.0181	0.0622	0.989	0.119
Mof_H 	H 	0.439	0.1246	0.1466	0.124
Mof_H 	H 	0.8448	0.3642	0.4226	0.181
Mof_H 	H 	0.3698	0.3569	0.6448	0.141
Mof_H 	H 	0.0533	0.3738	0.9947	0.188
Mof_H 	H 	0.2324	0.3647	0.2132	0.165
Mof_H 	H 	0.7097	0.675	0.5307	0.223
Mof_H 	H 	0.2931	0.8314	0.3182	0.185
Mof_H 	H 	0.5152	0.6165	0.9031	0.15
Mof_H 	H 	0.4227	0.5849	0.0756	0.096
Mof_H 	H 	0.0152	0.8835	0.4031	0.149
Mof_H 	H 	0.746	0.1805	0.0804	0.207
Mof_H 	H 	0.109	0.8429	0.1807	0.216
Mof_H 	H 	0.5357	0.0701	0.4997	0.154
Mof_H 	H 	0.7196	0.8169	0.297	0.197
Mof_H 	H 	0.7931	0.6686	0.8182	0.185
Mof_H 	H 	0.5558	0.7225	0.1617	0.188
Mof_H 	H 	0.5558	0.2775	0.3383	0.188
Mof_H 	H 	0.7717	0.8565	0.313	0.194
Mof_H 	H 	0.3511	0.4046	0.0317	0.142
Mof_H 	H 	0.6068	0.3	0.9645	0.132
Mof_H 	H 	0.1313	0.4716	0.5792	0.22
Mof_H 	H 	0.8144	0.0408	0.9776	0.201
Mof_H 	H 	0.6082	0.8682	0.587	0.133
Mof_H 	H 	0.6323	0.1722	0.9401	0.141
Mof_H 	H 	0.7094	0.4998	0.5491	0.202
Mof_H 	H 	0.0773	0.0849	0.4244	0.096
Mof_H 	H 	0.5618	0.6398	0.5655	0.112
Mof_H 	H 	0.5142	0.1944	0.7437	0.153
Mof_H 	H 	0.3473	0.8451	0.288	0.154
Mof_H 	H 	0.609	0.3429	0.8193	0.216
Mof_H 	H 	0.3889	0.0567	0.4619	0.205
Mof_H 	H 	0.181	0.9779	0.9213	0.215
Mof_H 	H 	0.6849	0.6379	0.1972	0.208
Mof_H 	H 	0.7398	0.815	0.3371	0.2
Mof_H 	H 	0.4858	0.8056	0.2563	0.153
Mof_H 	H 	0.8918	0.6318	0.587	0.133
Mof_H 	H 	0.073	0.5212	0.0112	0.21
Mof_H 	H 	0.5272	0.3827	0.9004	0.104
Mof_H 	H 	0.0279	0.8176	0.6353	0.181
Mof_H 	H 	0.7097	0.325	0.9693	0.223
Mof_H 	H 	0.8424	0.4757	0.9876	0.215
Mof_H 	H 	0.8473	0.3451	0.712	0.154
Mof_H 	H 	0.3473	0.1549	0.212	0.154
Mof_H 	H 	0.6766	0.1405	0.7652	0.218
Mof_H 	H 	0.1394	0.2306	0.4958	0.132
Mof_H 	H 	0.6527	0.1549	0.712	0.154
Mof_H 	H 	0.0388	0.5625	0.4358	0.116
Mof_H 	H 	0.1569	0.8106	0.8762	0.14
Mof_H 	H 	0.5388	0.9375	0.9358	0.116
Mof_H 	H 	0.9721	0.1824	0.3647	0.181
Mof_H 	H 	0.3424	0.0243	0.4876	0.215
Mof_H 	H 	0.1766	0.3595	0.2652	0.218
Mof_H 	H 	0.427	0.9788	0.0112	0.21
Mof_H 	H 	0.1313	0.5284	0.9208	0.22
Mof_H 	H 	0.995	0.4014	0.467	0.155
Mof_H 	H 	0.2069	0.3314	0.1818	0.185
Mof_H 	H 	0.2196	0.6831	0.797	0.197
Mof_H 	H 	0.7069	0.1686	0.6818	0.185
Mof_H 	H 	0.2333	0.8755	0.9191	0.207
Mof_H 	H 	0.7776	0.09	0.552	0.148
Mof_H 	H 	0.0113	0.4205	0.1378	0.113
Mof_H 	H 	0.1569	0.1894	0.6238	0.14
Mof_H 	H 	0.6367	0.4944	0.5282	0.211
Mof_H 	H 	0.559	0.5334	0.0408	0.107
Mof_H 	H 	0.9382	0.8602	0.5655	0.112
Mof_H 	H 	0.8234	0.3595	0.7652	0.218
Mof_H 	H 	0.6489	0.4046	0.5317	0.142
Mof_H 	H 	0.5695	0.7912	0.2182	0.215
Mof_H 	H 	0.7977	0.5215	0.3987	0.198
Mof_H 	H 	0.8677	0.6722	0.5599	0.141
Mof_H 	H 	0.9446	0.7766	0.5072	0.149
Mof_H 	H 	0.0357	0.4299	0.9997	0.154
Mof_H 	H 	0.7266	0.6958	0.6085	0.221
Mof_H 	H 	0.3918	0.8682	0.087	0.133
Mof_H 	H 	0.2734	0.3042	0.3915	0.221
Mof_H 	H 	0.9972	0.8188	0.1747	0.158
Mof_H 	H 	0.8633	0.9944	0.9718	0.212
Mof_H 	H 	0.8393	0.8284	0.2287	0.218
Mof_H 	H 	0.7709	0.1191	0.9649	0.209
Mof_H 	H 	0.1552	0.3642	0.9226	0.181
Mof_H 	H 	0.1856	0.9592	0.0224	0.201
Mof_H 	H 	0.2977	0.9785	0.8987	0.197
Mof_H 	H 	0.403	0.5146	0.9186	0.222
Mof_H 	H 	0.7397	0.6507	0.2274	0.199
Mof_H 	H 	0.2602	0.185	0.6629	0.2
Mof_H 	H 	0.989	0.626	0.8867	0.136
Mof_H 	H 	0.246	0.6805	0.9196	0.207
Mof_H 	H 	0.0279	0.1824	0.8647	0.181
Mof_H 	H 	0.0618	0.1398	0.4345	0.112
Mof_H 	H 	0.2438	0.8479	0.6201	0.161
Mof_H 	H 	0.1881	0.8631	0.6494	0.138
Mof_H 	H 	0.441	0.4666	0.9592	0.107
Mof_H 	H 	0.073	0.4788	0.4888	0.21
Mof_H 	H 	0.5357	0.9299	0.0003	0.154
Mof_H 	H 	0.1068	0.2	0.4645	0.132
Mof_H 	H 	0.3431	0.6894	0.8762	0.14
Mof_H 	H 	0.8687	0.5284	0.4208	0.22
Mof_H 	H 	0.1323	0.3278	0.4401	0.141
Mof_H 	H 	0.9261	0.1783	0.1269	0.166
Mof_H 	H 	0.8448	0.6358	0.0774	0.181
Mof_H 	H 	0.4848	0.6165	0.4031	0.15
Mof_H 	H 	0.1651	0.1878	0.2975	0.221
Mof_H 	H 	0.061	0.6246	0.3534	0.124
Mof_H 	H 	0.8119	0.8631	0.1494	0.138
Mof_H 	H 	0.5279	0.3176	0.3647	0.181
Mof_H 	H 	0.903	0.9854	0.4186	0.222
Mof_H 	H 	0.427	0.0212	0.4888	0.21
Mof_H 	H 	0.597	0.4854	0.0814	0.222
Mof_H 	H 	0.8633	0.0056	0.5282	0.211
Mof_H 	H 	0.45	0.835	0.0686	0.167
Mof_H 	H 	0.8349	0.1878	0.7975	0.221
Mof_H 	H 	0.0258	0.0344	0.4597	0.105
Mof_H 	H 	0.1068	0.8	0.0355	0.132
Mof_H 	H 	0.1121	0.4665	0.0658	0.105
Mof_H 	H 	0.8799	0.119	0.4596	-0.045
Mof_H 	H 	0.7519	0.3448	0.8648	0.204
Mof_H 	H 	0.5739	0.6783	0.3731	0.166
Mof_H 	H 	0.1642	0.8281	0.6187	0.171
Mof_H 	H 	0.2092	0.8644	0.4725	0.144
Mof_H 	H 	0.939	0.6246	0.8534	0.124
Mof_H 	H 	0.9559	0.9178	0.9333	0.138
Mof_H 	H 	0.3687	0.0284	0.5792	0.22
Mof_H 	H 	0.918	0.194	0.7904	0.227
Mof_H 	H 	0.7291	0.6191	0.5351	0.209
Mof_H 	H 	0.7927	0.3555	0.1067	0.201
Mof_H 	H 	0.505	0.0986	0.467	0.155
Mof_H 	H 	0.1651	0.8122	0.2025	0.221
Mof_H 	H 	0.95	0.335	0.9314	0.168
Mof_H 	H 	0.3151	0.6379	0.6972	0.208
Mof_H 	H 	0.7603	0.1507	0.2726	0.199
Mof_H 	H 	0.9887	0.5795	0.8622	0.113
Mof_H 	H 	0.4467	0.1262	0.9947	0.188
Mof_H 	H 	0.6759	0.9044	0.1053	0.152
Mof_H 	H 	0.573	0.0212	0.9888	0.21
Mof_H 	H 	0.5152	0.3835	0.5969	0.15
Mof_H 	H 	0.8687	0.4716	0.0792	0.22
Mof_H 	H 	0.1485	0.7366	0.9316	0.138
Mof_H 	H 	0.9004	0.3345	0.2587	0.199
Mof_H 	H 	0.1185	0.7087	0.8985	0.147
Mof_H 	H 	0.7906	0.0002	0.5491	0.202
Mof_H 	H 	0.2277	0.3506	0.2976	0.203
Mof_H 	H 	0.2776	0.59	0.448	0.148
Mof_H 	H 	0.5533	0.1262	0.4947	0.188
Mof_H 	H 	0.7333	0.6245	0.4191	0.207
Mof_H 	H 	0.8366	0.6208	0.9336	-0.052
Mof_H 	H 	0.6576	0.0243	0.9876	0.215
Mof_H 	H 	0.4972	0.6812	0.6747	0.158
Mof_H 	H 	0.2813	0.8449	0.0964	0.214
Mof_H 	H 	0.8358	0.1719	0.3813	0.171
Mof_H 	H 	0.9887	0.4205	0.6378	0.112
Mof_H 	H 	0.4261	0.3217	0.6269	0.166
Mof_H 	H 	0.4382	0.6398	0.0655	0.112
Mof_H 	H 	0.3492	0.1736	0.2967	0.223
Mof_H 	H 	0.0558	0.2225	0.8383	0.188
Mof_H 	H 	0.6394	0.7306	0.5042	0.132
Mof_H 	H 	0.8815	0.2913	0.1015	0.147
Mof_C 	C 	0.25	0.25	0.16932	0.537
Mof_C 	C 	0.3255	0.7575	0.15463	-0.563
Mof_C 	C 	0.7665	0.6756	0.6157	-0.716
Mof_C 	C 	0.5256	0.2244	0.4	0.389
Mof_C 	C 	0.148	0.623	0.4103	0.201
Mof_C 	C 	0.124	0.07881	0.55533	0.262
Mof_C 	C 	0.6119	0.91553	0.48713	0.239
Mof_C 	C 	0.1856	0.006	0.47298	-0.685
Mof_C 	C 	0.25	0.25	0.20924	-0.185
Mof_C 	C 	0.016	0.6899	0.46521	0.493
Mof_C 	C 	0.8214	0.90828	0.46812	-0.545
Mof_C 	C 	0.1127	0.2659	0.73372	0.214
Mof_C 	C 	0.8461	0.3988	0.41727	-0.498
Mof_C 	C 	0.7966	0.837	0.134	-0.476
Mof_C 	C 	0.1856	0.994	0.02702	-0.687
Mof_C 	C 	0.927	0.5464	0.9205	-0.327
Mof_C 	C 	0.4553	0.7689	0.11853	-0.145
Mof_C 	C 	0.5166	0.6775	0.9634	0.487
Mof_C 	C 	0.2335	0.6756	0.1157	-0.716
Mof_C 	C 	0.7022	0.1625	0.70665	-0.509
Mof_C 	C 	0.2427	0.1774	0.68612	-0.663
Mof_C 	C 	0.1539	0.3988	0.91727	-0.498
Mof_C 	C 	0.2735	0.52128	0.50309	0.237
Mof_C 	C 	0.0166	0.1775	0.0366	0.487
Mof_C 	C 	0.2406	0.49589	0.53057	-0.533
Mof_C 	C 	0.0416	0.1106	0.4242	-0.302
Mof_C 	C 	0.9553	0.2689	0.88147	-0.144
Mof_C 	C 	0.2982	0.02147	0.94392	0.236
Mof_C 	C 	0.9847	0.2022	0.3447	-0.525
Mof_C 	C 	0.6745	0.2425	0.84537	-0.563
Mof_C 	C 	0.4475	0.64738	0.96486	-0.158
Mof_C 	C 	0.7034	0.663	0.134	-0.476
Mof_C 	C 	0.224	0.34628	0.97498	0.525
Mof_C 	C 	0.1071	0.83971	0.98831	0.016
Mof_C 	C 	0.75	0.25	0.66932	0.537
Mof_C 	C 	0.4463	0.7341	0.81811	-0.128
Mof_C 	C 	0.8983	0.2082	0.989	-0.424
Mof_C 	C 	0.1692	0.63713	0.94436	0.241
Mof_C 	C 	0.9834	0.1775	0.5366	0.486
Mof_C 	C 	0.7766	0.7093	0.7356	0.252
Mof_C 	C 	0.75	0.75	0.21137	-0.535
Mof_C 	C 	0.6856	0.494	0.97298	-0.684
Mof_C 	C 	0.3929	0.33971	0.51169	0.016
Mof_C 	C 	0.2722	0.14764	0.58351	-0.691
Mof_C 	C 	0.0514	0.38515	0.51297	0.044
Mof_C 	C 	0.2766	0.2093	0.2644	0.252
Mof_C 	C 	0.8308	0.63713	0.44436	0.242
Mof_C 	C 	0.6695	0.7912	0.62717	0.26
Mof_C 	C 	0.7735	0.97872	0.00309	0.237
Mof_C 	C 	0.9971	0.0902	0.581	-0.439
Mof_C 	C 	0.073	0.4536	0.0795	-0.327
Mof_C 	C 	0.9584	0.1106	0.9242	-0.301
Mof_C 	C 	0.9019	0.6642	0.5781	-0.458
Mof_C 	C 	0.8251	0.76018	0.27492	-0.501
Mof_C 	C 	0.3341	0.0049	0.58768	-0.705
Mof_C 	C 	0.8214	0.09172	0.03188	-0.545
Mof_C 	C 	0.725	0.7088	0.1928	0.244
Mof_C 	C 	0.9744	0.2756	0.4	0.389
Mof_C 	C 	0.9475	0.14738	0.03514	-0.158
Mof_C 	C 	0.4503	0.7352	0.14599	0.04
Mof_C 	C 	0.6196	0.6767	0.3611	-0.466
Mof_C 	C 	0.7427	0.3226	0.18612	-0.663
Mof_C 	C 	0.3305	0.2088	0.37283	0.26
Mof_C 	C 	0.3897	0.21599	0.57704	-0.455
Mof_C 	C 	0.2406	0.50411	0.96943	-0.533
Mof_C 	C 	0.3235	0.2891	0.69485	0.227
Mof_C 	C 	0.6917	0.164	0.78267	-0.72
Mof_C 	C 	0.5172	0.1011	0.49156	-0.495
Mof_C 	C 	0.1119	0.58447	0.98713	0.238
Mof_C 	C 	0.9463	0.2341	0.18189	-0.129
Mof_C 	C 	0.1695	0.7088	0.12717	0.26
Mof_C 	C 	0.75	0.75	0.13833	-0.133
Mof_C 	C 	0.6136	0.0427	0.98516	-0.699
Mof_C 	C 	0.8235	0.2109	0.19485	0.227
Mof_C 	C 	0.6786	0.40828	0.03188	-0.545
Mof_C 	C 	0.7427	0.6774	0.31388	-0.663
Mof_C 	C 	0.493	0.262	0.1556	0.34
Mof_C 	C 	0.75	0.75	0.83068	0.537
Mof_C 	C 	0.25	0.75	0.4505	0.727
Mof_C 	C 	0.6083	0.19858	0.26662	-0.678
Mof_C 	C 	0.3929	0.66029	0.98831	0.016
Mof_C 	C 	0.9971	0.9098	0.919	-0.436
Mof_C 	C 	0.9205	0.8707	0.0529	0.2
Mof_C 	C 	0.2022	0.6625	0.29335	-0.509
Mof_C 	C 	0.7722	0.64764	0.41649	-0.691
Mof_C 	C 	0.771	0.40216	0.47337	-0.183
Mof_C 	C 	0.25	0.25	0.28318	-0.562
Mof_C 	C 	0.016	0.3101	0.03479	0.493
Mof_C 	C 	0.775	0.7912	0.1928	0.244
Mof_C 	C 	0.6136	0.9573	0.51484	-0.699
Mof_C 	C 	0.0153	0.7978	0.6553	-0.525
Mof_C 	C 	0.7735	0.02128	0.49691	0.237
Mof_C 	C 	0.75	0.25	0.70924	-0.185
Mof_C 	C 	0.8251	0.23982	0.22508	-0.501
Mof_C 	C 	0.9486	0.38515	0.01297	0.045
Mof_C 	C 	0.9796	0.28679	0.72249	-0.501
Mof_C 	C 	0.8644	0.9618	0.41702	-0.724
Mof_C 	C 	0.9502	0.34363	0.0344	-0.175
Mof_C 	C 	0.25	0.75	0.33068	0.537
Mof_C 	C 	0.276	0.84628	0.52502	0.525
Mof_C 	C 	0.1146	0.7706	0.16404	0.262
Mof_C 	C 	0.3341	0.9951	0.91232	-0.702
Mof_C 	C 	0.0256	0.7244	0.6	0.389
Mof_C 	C 	0.3305	0.7912	0.12717	0.26
Mof_C 	C 	0.0537	0.7659	0.81811	-0.129
Mof_C 	C 	0.052	0.26306	0.71213	0.048
Mof_C 	C 	0.9828	0.6011	0.00844	-0.495
Mof_C 	C 	0.4205	0.3707	0.9471	0.2
Mof_C 	C 	0.2966	0.337	0.866	-0.476
Mof_C 	C 	0.618	0.6882	0.6918	-0.733
Mof_C 	C 	0.6146	0.2706	0.83596	0.263
Mof_C 	C 	0.6356	0.5382	0.41702	-0.724
Mof_C 	C 	0.1765	0.7891	0.80515	0.227
Mof_C 	C 	0.6071	0.33971	0.01169	0.016
Mof_C 	C 	0.6786	0.59172	0.46812	-0.545
Mof_C 	C 	0.4847	0.2978	0.8447	-0.524
Mof_C 	C 	0.8917	0.69858	0.23338	-0.678
Mof_C 	C 	0.4019	0.1642	0.4219	-0.458
Mof_C 	C 	0.2766	0.7907	0.2356	0.252
Mof_C 	C 	0.5416	0.6106	0.5758	-0.302
Mof_C 	C 	0.2253	0.1458	0.48141	-0.739
Mof_C 	C 	0.8083	0.336	0.78267	-0.72
Mof_C 	C 	0.2265	0.02128	0.99691	0.237
Mof_C 	C 	0.75	0.75	0.9505	0.727
Mof_C 	C 	0.8305	0.7088	0.62717	0.26
Mof_C 	C 	0.0609	0.89336	0.94304	0.017
Mof_C 	C 	0.7573	0.8226	0.31388	-0.663
Mof_C 	C 	0.3144	0.506	0.02702	-0.684
Mof_C 	C 	0.6765	0.2891	0.19485	0.227
Mof_C 	C 	0.1083	0.69858	0.73338	-0.678
Mof_C 	C 	0.993	0.762	0.8444	0.34
Mof_C 	C 	0.7982	0.52147	0.05608	0.237
Mof_C 	C 	0.7018	0.02147	0.44392	0.238
Mof_C 	C 	0.648	0.877	0.9103	0.201
Mof_C 	C 	0.75	0.25	0.40215	0.447
Mof_C 	C 	0.2018	0.52147	0.55608	0.237
Mof_C 	C 	0.5514	0.88515	0.48703	0.044
Mof_C 	C 	0.3854	0.2706	0.33596	0.263
Mof_C 	C 	0.275	0.7088	0.6928	0.244
Mof_C 	C 	0.8913	0.33249	0.05574	0.036
Mof_C 	C 	0.229	0.40216	0.97337	-0.183
Mof_C 	C 	0.3841	0.7081	0.82675	0.026
Mof_C 	C 	0.5153	0.2978	0.3447	-0.524
Mof_C 	C 	0.4828	0.1011	0.99156	-0.495
Mof_C 	C 	0.724	0.15372	0.47498	0.525
Mof_C 	C 	0.7573	0.1774	0.18612	-0.663
Mof_C 	C 	0.1917	0.664	0.21733	-0.72
Mof_C 	C 	0.2323	0.92775	0.50112	0.041
Mof_C 	C 	0.7323	0.42775	0.49888	0.041
Mof_C 	C 	0.46	0.1053	0.1279	-0.337
Mof_C 	C 	0.7253	0.3542	0.98141	-0.739
Mof_C 	C 	0.9847	0.7978	0.1553	-0.525
Mof_C 	C 	0.6701	0.36754	0.01006	0.269
Mof_C 	C 	0.516	0.8101	0.96521	0.493
Mof_C 	C 	0.5609	0.60664	0.44304	0.019
Mof_C 	C 	0.7742	0.2079	0.34385	0.04
Mof_C 	C 	0.96	0.6053	0.8721	-0.337
Mof_C 	C 	0.427	0.9536	0.4205	-0.326
Mof_C 	C 	0.729	0.09784	0.47337	-0.183
Mof_C 	C 	0.5029	0.5902	0.919	-0.44
Mof_C 	C 	0.8929	0.83971	0.48831	0.016
Mof_C 	C 	0.2745	0.791	0.27261	0.059
Mof_C 	C 	0.484	0.8101	0.46521	0.493
Mof_C 	C 	0.2002	0.8371	0.7135	-0.702
Mof_C 	C 	0.0447	0.7311	0.11853	-0.144
Mof_C 	C 	0.882	0.1882	0.8082	-0.733
Mof_C 	C 	0.2001	0.1011	0.03053	-0.437
Mof_C 	C 	0.2255	0.291	0.22739	0.059
Mof_C 	C 	0.7766	0.2907	0.7644	0.252
Mof_C 	C 	0.4503	0.2648	0.35401	0.04
Mof_C 	C 	0.8864	0.4573	0.98516	-0.698
Mof_C 	C 	0.3954	0.7969	0.10912	0.016
Mof_C 	C 	0.6103	0.21599	0.07704	-0.455
Mof_C 	C 	0.8983	0.7918	0.511	-0.425
Mof_C 	C 	0.0497	0.2352	0.35401	0.04
Mof_C 	C 	0.7406	0.99589	0.46943	-0.534
Mof_C 	C 	0.9828	0.053	0.4645	-0.328
Mof_C 	C 	0.8461	0.6012	0.08273	-0.498
Mof_C 	C 	0.3913	0.16751	0.55574	0.036
Mof_C 	C 	0.007	0.238	0.1556	0.34
Mof_C 	C 	0.1159	0.7919	0.82675	0.026
Mof_C 	C 	0.8644	0.0382	0.08298	-0.725
Mof_C 	C 	0.2998	0.3371	0.7865	-0.702
Mof_C 	C 	0.1159	0.2081	0.67325	0.026
Mof_C 	C 	0.54	0.1053	0.6279	-0.337
Mof_C 	C 	0.5497	0.2648	0.85401	0.04
Mof_C 	C 	0.1701	0.13246	0.51006	0.27
Mof_C 	C 	0.5537	0.7341	0.31811	-0.128
Mof_C 	C 	0.04	0.3947	0.1279	-0.337
Mof_C 	C 	0.3299	0.36754	0.51006	0.27
Mof_C 	C 	0.0204	0.28679	0.22249	-0.501
Mof_C 	C 	0.7998	0.1629	0.2865	-0.702
Mof_C 	C 	0.225	0.2088	0.8072	0.244
Mof_C 	C 	0.7999	0.1011	0.53053	-0.438
Mof_C 	C 	0.984	0.6899	0.96521	0.493
Mof_C 	C 	0.7002	0.6629	0.2135	-0.702
Mof_C 	C 	0.1136	0.4573	0.48516	-0.699
Mof_C 	C 	0.624	0.57881	0.44467	0.262
Mof_C 	C 	0.507	0.738	0.8444	0.34
Mof_C 	C 	0.4828	0.447	0.9645	-0.328
Mof_C 	C 	0.724	0.84628	0.02502	0.525
Mof_C 	C 	0.1701	0.86754	0.98994	0.27
Mof_C 	C 	0.3881	0.08447	0.51287	0.239
Mof_C 	C 	0.624	0.42119	0.05533	0.262
Mof_C 	C 	0.5498	0.15637	0.0344	-0.174
Mof_C 	C 	0.8873	0.2659	0.23372	0.214
Mof_C 	C 	0.1745	0.7425	0.15463	-0.563
Mof_C 	C 	0.3308	0.13713	0.55564	0.242
Mof_C 	C 	0.1087	0.33249	0.55574	0.036
Mof_C 	C 	0.25	0.75	0.71137	-0.535
Mof_C 	C 	0.6659	0.9951	0.41232	-0.705
Mof_C 	C 	0.5981	0.1642	0.9219	-0.458
Mof_C 	C 	0.1749	0.23982	0.72508	-0.501
Mof_C 	C 	0.376	0.57881	0.94467	0.262
Mof_C 	C 	0.9502	0.65637	0.4656	-0.174
Mof_C 	C 	0.1659	0.4951	0.58768	-0.704
Mof_C 	C 	0.2747	0.3542	0.48141	-0.739
Mof_C 	C 	0.696	0.07245	0.44589	0.051
Mof_C 	C 	0.0514	0.61485	0.98703	0.045
Mof_C 	C 	0.1083	0.30142	0.76662	-0.678
Mof_C 	C 	0.352	0.123	0.0897	0.201
Mof_C 	C 	0.4463	0.2659	0.68189	-0.128
Mof_C 	C 	0.6103	0.78401	0.42296	-0.455
Mof_C 	C 	0.2278	0.64764	0.91649	-0.691
Mof_C 	C 	0.5525	0.35262	0.03514	-0.158
Mof_C 	C 	0.3299	0.63246	0.98994	0.269
Mof_C 	C 	0.948	0.73694	0.28787	0.048
Mof_C 	C 	0.6083	0.80142	0.23338	-0.678
Mof_C 	C 	0.6708	0.90439	0.46579	-0.533
Mof_C 	C 	0.4828	0.8989	0.50844	-0.495
Mof_C 	C 	0.7982	0.47853	0.44392	0.237
Mof_C 	C 	0.8299	0.86754	0.48994	0.27
Mof_C 	C 	0.8929	0.16029	0.01169	0.016
Mof_C 	C 	0.8804	0.8233	0.3611	-0.466
Mof_C 	C 	0.3917	0.19858	0.76662	-0.678
Mof_C 	C 	0.1196	0.1767	0.6389	-0.466
Mof_C 	C 	0.552	0.23694	0.21213	0.049
Mof_C 	C 	0.804	0.42755	0.44589	0.051
Mof_C 	C 	0.196	0.57245	0.55411	0.051
Mof_C 	C 	0.8854	0.7706	0.66404	0.262
Mof_C 	C 	0.2978	0.8375	0.29335	-0.509
Mof_C 	C 	0.2999	0.3989	0.03053	-0.438
Mof_C 	C 	0.6765	0.7109	0.30515	0.227
Mof_C 	C 	0.3804	0.3233	0.6389	-0.466
Mof_C 	C 	0.0172	0.3989	0.99156	-0.495
Mof_C 	C 	0.2745	0.209	0.22739	0.059
Mof_C 	C 	0.75	0.75	0.71682	-0.562
Mof_C 	C 	0.6695	0.2088	0.87283	0.26
Mof_C 	C 	0.9744	0.7244	0.1	0.388
Mof_C 	C 	0.1786	0.09172	0.53188	-0.545
Mof_C 	C 	0.7966	0.163	0.366	-0.476
Mof_C 	C 	0.775	0.2088	0.3072	0.244
Mof_C 	C 	0.376	0.42119	0.55533	0.262
Mof_C 	C 	0.0498	0.65637	0.9656	-0.175
Mof_C 	C 	0.5172	0.447	0.4645	-0.328
Mof_C 	C 	0.75	0.75	0.09785	0.447
Mof_C 	C 	0.2002	0.1629	0.7865	-0.702
Mof_C 	C 	0.5981	0.8358	0.5781	-0.458
Mof_C 	C 	0.0029	0.0902	0.081	-0.436
Mof_C 	C 	0.7406	0.00411	0.03057	-0.533
Mof_C 	C 	0.7323	0.57225	0.00112	0.041
Mof_C 	C 	0.3083	0.836	0.21733	-0.72
Mof_C 	C 	0.118	0.1882	0.3082	-0.733
Mof_C 	C 	0.2234	0.7093	0.2356	0.252
Mof_C 	C 	0.6539	0.8988	0.08273	-0.498
Mof_C 	C 	0.8881	0.41553	0.01287	0.238
Mof_C 	C 	0.2665	0.1756	0.3843	-0.716
Mof_C 	C 	0.507	0.262	0.6556	0.34
Mof_C 	C 	0.25	0.25	0.90215	0.447
Mof_C 	C 	0.1146	0.2294	0.33596	0.262
Mof_C 	C 	0.5166	0.3225	0.5366	0.487
Mof_C 	C 	0.9584	0.8894	0.5758	-0.302
Mof_C 	C 	0.2742	0.2921	0.84385	0.04
Mof_C 	C 	0.6708	0.09561	0.03421	-0.533
Mof_C 	C 	0.8913	0.66751	0.44426	0.036
Mof_C 	C 	0.7258	0.2921	0.34385	0.04
Mof_C 	C 	0.2034	0.837	0.634	-0.476
Mof_C 	C 	0.7978	0.3375	0.70665	-0.509
Mof_C 	C 	0.9019	0.3358	0.9219	-0.458
Mof_C 	C 	0.6146	0.7294	0.66404	0.263
Mof_C 	C 	0.729	0.90216	0.02663	-0.184
Mof_C 	C 	0.7335	0.1756	0.8843	-0.716
Mof_C 	C 	0.7018	0.97853	0.05608	0.236
Mof_C 	C 	0.3644	0.5382	0.91702	-0.724
Mof_C 	C 	0.5172	0.553	0.0355	-0.328
Mof_C 	C 	0.2234	0.2907	0.2644	0.252
Mof_C 	C 	0.8144	0.994	0.52702	-0.685
Mof_C 	C 	0.1046	0.2969	0.39088	0.016
Mof_C 	C 	0.696	0.92755	0.05411	0.052
Mof_C 	C 	0.552	0.76306	0.28787	0.049
Mof_C 	C 	0.2335	0.3244	0.3843	-0.716
Mof_C 	C 	0.8881	0.58447	0.48713	0.239
Mof_C 	C 	0.9475	0.85262	0.46486	-0.158
Mof_C 	C 	0.6856	0.506	0.52702	-0.685
Mof_C 	C 	0.9503	0.7648	0.64599	0.04
Mof_C 	C 	0.0525	0.85262	0.96486	-0.158
Mof_C 	C 	0.6087	0.83249	0.44426	0.036
Mof_C 	C 	0.3854	0.7294	0.16404	0.263
Mof_C 	C 	0.1196	0.8233	0.8611	-0.466
Mof_C 	C 	0.3804	0.6767	0.8611	-0.466
Mof_C 	C 	0.7747	0.1458	0.98141	-0.739
Mof_C 	C 	0.3251	0.26018	0.72508	-0.501
Mof_C 	C 	0.0172	0.947	0.5355	-0.328
Mof_C 	C 	0.3214	0.59172	0.96812	-0.545
Mof_C 	C 	0.2999	0.6011	0.46947	-0.438
Mof_C 	C 	0.9463	0.7659	0.31811	-0.129
Mof_C 	C 	0.3292	0.90439	0.96579	-0.533
Mof_C 	C 	0.1695	0.2912	0.37283	0.26
Mof_C 	C 	0.3983	0.2918	0.489	-0.425
Mof_C 	C 	0.1745	0.2575	0.34537	-0.563
Mof_C 	C 	0.804	0.57245	0.05411	0.051
Mof_C 	C 	0.148	0.377	0.0897	0.201
Mof_C 	C 	0.3873	0.2341	0.73372	0.214
Mof_C 	C 	0.7002	0.3371	0.2865	-0.702
Mof_C 	C 	0.3144	0.494	0.47298	-0.685
Mof_C 	C 	0.271	0.90216	0.52663	-0.183
Mof_C 	C 	0.4834	0.6775	0.4634	0.487
Mof_C 	C 	0.5153	0.7022	0.1553	-0.524
Mof_C 	C 	0.2255	0.709	0.27261	0.059
Mof_C 	C 	0.1119	0.41553	0.51287	0.239
Mof_C 	C 	0.382	0.6882	0.1918	-0.733
Mof_C 	C 	0.0447	0.2689	0.38147	-0.145
Mof_C 	C 	0.1356	0.9618	0.91702	-0.725
Mof_C 	C 	0.4486	0.11485	0.51297	0.044
Mof_C 	C 	0.271	0.09784	0.97337	-0.184
Mof_C 	C 	0.352	0.877	0.4103	0.201
Mof_C 	C 	0.8305	0.2912	0.87283	0.26
Mof_C 	C 	0.8144	0.006	0.97298	-0.687
Mof_C 	C 	0.196	0.42755	0.94589	0.051
Mof_C 	C 	0.073	0.5464	0.4205	-0.326
Mof_C 	C 	0.1708	0.59561	0.96579	-0.533
Mof_C 	C 	0.6196	0.3233	0.1389	-0.466
Mof_C 	C 	0.5514	0.11485	0.01297	0.045
Mof_C 	C 	0.876	0.92119	0.44467	0.262
Mof_C 	C 	0.2034	0.163	0.866	-0.476
Mof_C 	C 	0.7665	0.3244	0.8843	-0.716
Mof_C 	C 	0.427	0.0464	0.0795	-0.327
Mof_C 	C 	0.54	0.8947	0.8721	-0.337
Mof_C 	C 	0.6917	0.836	0.71733	-0.72
Mof_C 	C 	0.2258	0.7921	0.65615	0.04
Mof_C 	C 	0.25	0.75	0.21682	-0.562
Mof_C 	C 	0.2982	0.97853	0.55608	0.238
Mof_C 	C 	0.8917	0.30142	0.26662	-0.678
Mof_C 	C 	0.7034	0.337	0.366	-0.476
Mof_C 	C 	0.3881	0.91553	0.98713	0.239
Mof_C 	C 	0.25	0.25	0.0495	0.727
Mof_C 	C 	0.0204	0.71321	0.27751	-0.501
Mof_C 	C 	0.3864	0.0427	0.48516	-0.699
Mof_C 	C 	0.6071	0.66029	0.48831	0.016
Mof_C 	C 	0.0795	0.1293	0.9471	0.2
Mof_C 	C 	0.6017	0.2918	0.989	-0.425
Mof_C 	C 	0.75	0.25	0.36167	-0.133
Mof_C 	C 	0.8897	0.28401	0.07704	-0.454
Mof_C 	C 	0.6356	0.4618	0.08298	-0.724
Mof_C 	C 	0.2573	0.3226	0.68612	-0.663
Mof_C 	C 	0.516	0.1899	0.53479	0.493
Mof_C 	C 	0.4584	0.3894	0.4242	-0.302
Mof_C 	C 	0.5497	0.7352	0.64599	0.04
Mof_C 	C 	0.3461	0.1012	0.91727	-0.498
Mof_C 	C 	0.304	0.92755	0.55411	0.051
Mof_C 	C 	0.6127	0.2341	0.23372	0.214
Mof_C 	C 	0.4553	0.2311	0.38147	-0.145
Mof_C 	C 	0.2665	0.8244	0.1157	-0.716
Mof_C 	C 	0.3913	0.83249	0.94426	0.036
Mof_C 	C 	0.771	0.59784	0.02663	-0.183
Mof_C 	C 	0.1539	0.6012	0.58273	-0.498
Mof_C 	C 	0.0537	0.2341	0.68189	-0.129
Mof_C 	C 	0.052	0.73694	0.78787	0.048
Mof_C 	C 	0.0153	0.2022	0.8447	-0.525
Mof_C 	C 	0.2594	0.00411	0.53057	-0.534
Mof_C 	C 	0.852	0.623	0.9103	0.201
Mof_C 	C 	0.2722	0.85236	0.91649	-0.691
Mof_C 	C 	0.1017	0.7918	0.011	-0.424
Mof_C 	C 	0.4744	0.7756	0.6	0.389
Mof_C 	C 	0.9828	0.947	0.0355	-0.33
Mof_C 	C 	0.7745	0.291	0.72739	0.059
Mof_C 	C 	0.8255	0.2575	0.84537	-0.563
Mof_C 	C 	0.4847	0.7022	0.6553	-0.524
Mof_C 	C 	0.7001	0.6011	0.96947	-0.438
Mof_C 	C 	0.448	0.23694	0.71213	0.049
Mof_C 	C 	0.927	0.4536	0.5795	-0.326
Mof_C 	C 	0.9391	0.89336	0.44304	0.018
Mof_C 	C 	0.493	0.738	0.3444	0.34
Mof_C 	C 	0.7265	0.47872	0.49691	0.237
Mof_C 	C 	0.8341	0.5049	0.41232	-0.704
Mof_C 	C 	0.2018	0.47853	0.94392	0.237
Mof_C 	C 	0.7022	0.8375	0.79335	-0.509
Mof_C 	C 	0.5172	0.8989	0.00844	-0.495
Mof_C 	C 	0.882	0.8118	0.6918	-0.733
Mof_C 	C 	0.8873	0.7341	0.26628	0.214
Mof_C 	C 	0.2258	0.2079	0.84385	0.04
Mof_C 	C 	0.75	0.25	0.28863	-0.535
Mof_C 	C 	0.7335	0.8244	0.6157	-0.716
Mof_C 	C 	0.0981	0.6642	0.0781	-0.458
Mof_C 	C 	0.8341	0.4951	0.08768	-0.704
Mof_C 	C 	0.7677	0.92775	0.00112	0.041
Mof_C 	C 	0.9503	0.2352	0.85401	0.041
Mof_C 	C 	0.948	0.26306	0.21213	0.048
Mof_C 	C 	0.7747	0.8542	0.51859	-0.739
Mof_C 	C 	0.3644	0.4618	0.58298	-0.724
Mof_C 	C 	0.2573	0.6774	0.81388	-0.663
Mof_C 	C 	0.4475	0.35262	0.53514	-0.158
Mof_C 	C 	0.1087	0.66751	0.94426	0.036
Mof_C 	C 	0.6692	0.86287	0.44436	0.242
Mof_C 	C 	0.4796	0.78679	0.27751	-0.502
Mof_C 	C 	0.7265	0.52128	0.00309	0.237
Mof_C 	C 	0.9391	0.10664	0.05696	0.017
Mof_C 	C 	0.8255	0.7425	0.65463	-0.563
Mof_C 	C 	0.993	0.238	0.6556	0.34
Mof_C 	C 	0.4486	0.88515	0.98703	0.045
Mof_C 	C 	0.4834	0.3225	0.0366	0.487
Mof_C 	C 	0.7594	0.49589	0.03057	-0.533
Mof_C 	C 	0.0172	0.6011	0.50844	-0.495
Mof_C 	C 	0.5795	0.6293	0.0529	0.2
Mof_C 	C 	0.25	0.75	0.29076	-0.185
Mof_C 	C 	0.7594	0.50411	0.46943	-0.533
Mof_C 	C 	0.0172	0.053	0.9645	-0.33
Mof_C 	C 	0.8083	0.664	0.71733	-0.72
Mof_C 	C 	0.6046	0.7969	0.60912	0.016
Mof_C 	C 	0.8235	0.7891	0.30515	0.227
Mof_C 	C 	0.2022	0.3375	0.20665	-0.509
Mof_C 	C 	0.3461	0.8988	0.58273	-0.498
Mof_C 	C 	0.1765	0.2109	0.69485	0.227
Mof_C 	C 	0.5416	0.3894	0.9242	-0.302
Mof_C 	C 	0.2594	0.99589	0.96943	-0.533
Mof_C 	C 	0.7999	0.8989	0.96947	-0.437
Mof_C 	C 	0.4205	0.6293	0.5529	0.2
Mof_C 	C 	0.5525	0.64738	0.46486	-0.158
Mof_C 	C 	0.75	0.75	0.79076	-0.185
Mof_C 	C 	0.118	0.8118	0.1918	-0.733
Mof_C 	C 	0.2747	0.6458	0.01859	-0.739
Mof_C 	C 	0.6017	0.7082	0.511	-0.425
Mof_C 	C 	0.4971	0.4098	0.081	-0.44
Mof_C 	C 	0.2742	0.7079	0.65615	0.04
Mof_C 	C 	0.6159	0.2919	0.17325	0.026
Mof_C 	C 	0.4828	0.553	0.5355	-0.328
Mof_C 	C 	0.2427	0.8226	0.81388	-0.663
Mof_C 	C 	0.8841	0.2081	0.17325	0.026
Mof_C 	C 	0.3841	0.2919	0.67325	0.026
Mof_C 	C 	0.8954	0.2969	0.89088	0.016
Mof_C 	C 	0.8804	0.1767	0.1389	-0.466
Mof_C 	C 	0.9553	0.7311	0.61853	-0.145
Mof_C 	C 	0.1046	0.7031	0.10912	0.016
Mof_C 	C 	0.2001	0.8989	0.46947	-0.438
Mof_C 	C 	0.0166	0.8225	0.4634	0.486
Mof_C 	C 	0.2966	0.663	0.634	-0.476
Mof_C 	C 	0.1071	0.16029	0.51169	0.016
Mof_C 	C 	0.2278	0.35236	0.58351	-0.691
Mof_C 	C 	0.6659	0.0049	0.08768	-0.702
Mof_C 	C 	0.1103	0.71599	0.92296	-0.454
Mof_C 	C 	0.3308	0.86287	0.94436	0.242
Mof_C 	C 	0.275	0.2912	0.8072	0.244
Mof_C 	C 	0.2323	0.07225	0.99888	0.041
Mof_C 	C 	0.1917	0.336	0.28267	-0.72
Mof_C 	C 	0.7998	0.8371	0.2135	-0.702
Mof_C 	C 	0.0981	0.3358	0.4219	-0.458
Mof_C 	C 	0.3864	0.9573	0.01484	-0.699
Mof_C 	C 	0.6127	0.7659	0.26628	0.214
Mof_C 	C 	0.3897	0.78401	0.92296	-0.455
Mof_C 	C 	0.6692	0.13713	0.05564	0.242
Mof_C 	C 	0.4584	0.6106	0.0758	-0.302
Mof_C 	C 	0.4391	0.60664	0.94304	0.019
Mof_C 	C 	0.1749	0.76018	0.77492	-0.501
Mof_C 	C 	0.25	0.25	0.78863	-0.535
Mof_C 	C 	0.8292	0.59561	0.46579	-0.533
Mof_C 	C 	0.225	0.7912	0.6928	0.244
Mof_C 	C 	0.573	0.0464	0.5795	-0.326
Mof_C 	C 	0.276	0.15372	0.97498	0.525
Mof_C 	C 	0.618	0.3118	0.8082	-0.733
Mof_C 	C 	0.1786	0.90828	0.96812	-0.545
Mof_C 	C 	0.0498	0.34363	0.5344	-0.174
Mof_C 	C 	0.5447	0.7689	0.61853	-0.145
Mof_C 	C 	0.3235	0.7109	0.80515	0.227
Mof_C 	C 	0.0416	0.8894	0.0758	-0.301
Mof_C 	C 	0.007	0.762	0.3444	0.34
Mof_C 	C 	0.5795	0.3707	0.4471	0.2
Mof_C 	C 	0.3983	0.7082	0.011	-0.425
Mof_C 	C 	0.8897	0.71599	0.42296	-0.454
Mof_C 	C 	0.25	0.75	0.59785	0.447
Mof_C 	C 	0.6701	0.63246	0.48994	0.27
Mof_C 	C 	0.876	0.07881	0.05533	0.262
Mof_C 	C 	0.776	0.34628	0.47498	0.525
Mof_C 	C 	0.5204	0.21321	0.72249	-0.502
Mof_C 	C 	0.0497	0.7648	0.14599	0.041
Mof_C 	C 	0.3917	0.80142	0.73338	-0.678
Mof_C 	C 	0.5537	0.2659	0.18189	-0.128
Mof_C 	C 	0.6087	0.16751	0.05574	0.036
Mof_C 	C 	0.25	0.25	0.86167	-0.133
Mof_C 	C 	0.9486	0.61485	0.48703	0.044
Mof_C 	C 	0.7278	0.14764	0.08351	-0.691
Mof_C 	C 	0.984	0.3101	0.53479	0.493
Mof_C 	C 	0.2253	0.8542	0.01859	-0.739
Mof_C 	C 	0.7745	0.709	0.77261	0.059
Mof_C 	C 	0.2998	0.6629	0.7135	-0.702
Mof_C 	C 	0.4019	0.8358	0.0781	-0.458
Mof_C 	C 	0.8299	0.13246	0.01006	0.27
Mof_C 	C 	0.6539	0.1012	0.41727	-0.498
Mof_C 	C 	0.8292	0.40439	0.03421	-0.533
Mof_C 	C 	0.0609	0.10664	0.55696	0.018
Mof_C 	C 	0.7278	0.85236	0.41649	-0.691
Mof_C 	C 	0.04	0.6053	0.3721	-0.337
Mof_C 	C 	0.382	0.3118	0.3082	-0.733
Mof_C 	C 	0.8854	0.2294	0.83596	0.262
Mof_C 	C 	0.229	0.59784	0.52663	-0.183
Mof_C 	C 	0.4391	0.39336	0.55696	0.019
Mof_C 	C 	0.2677	0.57225	0.50112	0.041
Mof_C 	C 	0.75	0.25	0.5495	0.727
Mof_C 	C 	0.3083	0.164	0.28267	-0.72
Mof_C 	C 	0.6749	0.26018	0.22508	-0.501
Mof_C 	C 	0.8864	0.5427	0.51484	-0.699
Mof_C 	C 	0.9796	0.71321	0.77751	-0.501
Mof_C 	C 	0.7001	0.3989	0.53053	-0.438
Mof_C 	C 	0.6119	0.08447	0.01287	0.239
Mof_C 	C 	0.7722	0.35236	0.08351	-0.691
Mof_C 	C 	0.7255	0.209	0.72739	0.059
Mof_C 	C 	0.3251	0.73982	0.77492	-0.501
Mof_C 	C 	0.8841	0.7919	0.32675	0.026
Mof_C 	C 	0.3954	0.2031	0.39088	0.016
Mof_C 	C 	0.6749	0.73982	0.27492	-0.501
Mof_C 	C 	0.5498	0.84363	0.4656	-0.174
Mof_C 	C 	0.0525	0.14738	0.53514	-0.158
Mof_C 	C 	0.7742	0.7921	0.15615	0.04
Mof_C 	C 	0.1708	0.40439	0.53421	-0.533
Mof_C 	C 	0.124	0.92119	0.94467	0.262
Mof_C 	C 	0.573	0.9536	0.9205	-0.327
Mof_C 	C 	0.7677	0.07225	0.49888	0.041
Mof_C 	C 	0.1136	0.5427	0.01484	-0.698
Mof_C 	C 	0.7978	0.6625	0.79335	-0.509
Mof_C 	C 	0.304	0.07245	0.94589	0.052
Mof_C 	C 	0.4744	0.2244	0.9	0.389
Mof_C 	C 	0.1659	0.5049	0.91232	-0.704
Mof_C 	C 	0.5256	0.7756	0.1	0.389
Mof_C 	C 	0.7255	0.791	0.77261	0.059
Mof_C 	C 	0.2735	0.47872	0.99691	0.237
Mof_C 	C 	0.75	0.25	0.78318	-0.562
Mof_C 	C 	0.46	0.8947	0.3721	-0.337
Mof_C 	C 	0.7253	0.6458	0.51859	-0.739
Mof_C 	C 	0.3292	0.09561	0.53421	-0.533
Mof_C 	C 	0.7234	0.2093	0.7644	0.252
Mof_C 	C 	0.3873	0.7659	0.76628	0.214
Mof_C 	C 	0.0029	0.9098	0.419	-0.439
Mof_C 	C 	0.0795	0.8707	0.5529	0.2
Mof_C 	C 	0.4502	0.84363	0.9656	-0.174
Mof_C 	C 	0.7258	0.7079	0.15615	0.04
Mof_C 	C 	0.96	0.3947	0.6279	-0.337
Mof_C 	C 	0.25	0.75	0.63833	-0.133
Mof_C 	C 	0.5204	0.78679	0.77751	-0.502
Mof_C 	C 	0.1356	0.0382	0.58298	-0.724
Mof_C 	C 	0.5609	0.39336	0.05696	0.019
Mof_C 	C 	0.1103	0.28401	0.57704	-0.454
Mof_C 	C 	0.2677	0.42775	0.99888	0.041
Mof_C 	C 	0.7234	0.7907	0.7356	0.252
Mof_C 	C 	0.2265	0.97872	0.50309	0.237
Mof_C 	C 	0.448	0.76306	0.78787	0.049
Mof_C 	C 	0.484	0.1899	0.03479	0.493
Mof_C 	C 	0.6046	0.2031	0.89088	0.016
Mof_C 	C 	0.725	0.2912	0.3072	0.244
Mof_C 	C 	0.1127	0.7341	0.76628	0.214
Mof_C 	C 	0.9828	0.3989	0.49156	-0.495
Mof_C 	C 	0.9205	0.1293	0.4471	0.2
Mof_C 	C 	0.8308	0.36287	0.05564	0.241
Mof_C 	C 	0.4796	0.21321	0.22249	-0.502
Mof_C 	C 	0.3214	0.40828	0.53188	-0.545
Mof_C 	C 	0.0256	0.2756	0.9	0.388
Mof_C 	C 	0.6159	0.7081	0.32675	0.026
Mof_C 	C 	0.2978	0.1625	0.20665	-0.509
Mof_C 	C 	0.8954	0.7031	0.60912	0.016
Mof_C 	C 	0.4971	0.5902	0.419	-0.44
Mof_C 	C 	0.224	0.65372	0.52502	0.525
Mof_C 	C 	0.5029	0.4098	0.581	-0.44
Mof_C 	C 	0.6745	0.7575	0.65463	-0.563
Mof_C 	C 	0.648	0.123	0.5897	0.201
Mof_C 	C 	0.1017	0.2082	0.489	-0.425
Mof_C 	C 	0.852	0.377	0.5897	0.201
Mof_C 	C 	0.776	0.65372	0.02502	0.525
Mof_C 	C 	0.5447	0.2311	0.88147	-0.145
Mof_C 	C 	0.3255	0.2425	0.34537	-0.563
Mof_C 	C 	0.9834	0.8225	0.9634	0.487
Mof_C 	C 	0.1692	0.36287	0.55564	0.242
Mof_C 	C 	0.4502	0.15637	0.5344	-0.174
Mof_N 	N 	0.0177	0.9041	0.5565	-0.059
Mof_N 	N 	0.9823	0.9041	0.0565	-0.059
Mof_N 	N 	0.4823	0.5959	0.5565	-0.059
Mof_N 	N 	0.9823	0.0959	0.4435	-0.059
Mof_N 	N 	0.4823	0.4041	0.9435	-0.059
Mof_N 	N 	0.3987	0.9173	0.3942	-0.072
Mof_N 	N 	0.6013	0.0827	0.6058	-0.072
Mof_N 	N 	0.5177	0.4041	0.4435	-0.059
Mof_N 	N 	0.5177	0.5959	0.0565	-0.059
Mof_N 	N 	0.8987	0.4173	0.6058	-0.072
Mof_N 	N 	0.1013	0.4173	0.1058	-0.072
Mof_N 	N 	0.8987	0.5827	0.8942	-0.072
Mof_N 	N 	0.0177	0.0959	0.9435	-0.059
Mof_N 	N 	0.6013	0.9173	0.8942	-0.072
Mof_N 	N 	0.1013	0.5827	0.3942	-0.072
Mof_N 	N 	0.3987	0.0827	0.1058	-0.072
Mof_O 	O 	0.1748	0.84	0.3937	-0.343
Mof_O 	O 	0.0786	0.8288	0.5661	-0.396
Mof_O 	O 	0.4448	0.6793	0.4906	-0.554
Mof_O 	O 	0.4581	0.2999	0.1472	-0.422
Mof_O 	O 	0.8252	0.84	0.8937	-0.343
Mof_O 	O 	0.0327	0.2692	0.931	-0.481
Mof_O 	O 	0.189	0.7539	0.4657	-0.737
Mof_O 	O 	0.4214	0.3288	0.9339	-0.396
Mof_O 	O 	0.0312	0.2872	0.0069	-0.555
Mof_O 	O 	0.9486	0.3083	0.563	-0.546
Mof_O 	O 	0.4448	0.3207	0.0094	-0.554
Mof_O 	O 	0.0419	0.7999	0.3528	-0.422
Mof_O 	O 	0.4214	0.6712	0.5661	-0.396
Mof_O 	O 	0.4688	0.2128	0.0069	-0.555
Mof_O 	O 	0.9448	0.8207	0.9906	-0.554
Mof_O 	O 	0.4581	0.7001	0.3528	-0.422
Mof_O 	O 	0.2192	0.8218	0.5276	-0.606
Mof_O 	O 	0.75	0.75	0.9165	-0.748
Mof_O 	O 	0.5321	0.6986	0.9347	-0.56
Mof_O 	O 	0.6917	0.2399	0.4177	-0.484
Mof_O 	O 	0.9581	0.7999	0.8528	-0.422
Mof_O 	O 	0.1748	0.16	0.1063	-0.343
Mof_O 	O 	0.6917	0.7601	0.0823	-0.484
Mof_O 	O 	0.1917	0.2601	0.9177	-0.484
Mof_O 	O 	0.7808	0.8218	0.0276	-0.606
Mof_O 	O 	0.811	0.2461	0.5343	-0.737
Mof_O 	O 	0.4688	0.7872	0.4931	-0.555
Mof_O 	O 	0.25	0.25	0.0835	-0.748
Mof_O 	O 	0.5514	0.1917	0.563	-0.546
Mof_O 	O 	0.69	0.7493	0.8452	-0.539
Mof_O 	O 	0.689	0.7461	0.9657	-0.737
Mof_O 	O 	0.69	0.2507	0.6548	-0.539
Mof_O 	O 	0.81	0.2493	0.6548	-0.539
Mof_O 	O 	0.9679	0.1986	0.5653	-0.56
Mof_O 	O 	0.6644	0.1607	0.609	-0.385
Mof_O 	O 	0.5786	0.3288	0.4339	-0.396
Mof_O 	O 	0.311	0.7461	0.4657	-0.737
Mof_O 	O 	0.31	0.7493	0.3452	-0.539
Mof_O 	O 	0.1631	0.6723	0.5208	-0.571
Mof_O 	O 	0.4188	0.7889	0.6209	-0.276
Mof_O 	O 	0.8369	0.3277	0.4792	-0.571
Mof_O 	O 	0.3369	0.8277	0.5208	-0.571
Mof_O 	O 	0.0552	0.8207	0.4906	-0.554
Mof_O 	O 	0.5419	0.2999	0.6472	-0.422
Mof_O 	O 	0.0327	0.7308	0.569	-0.481
Mof_O 	O 	0.0812	0.2889	0.8791	-0.276
Mof_O 	O 	0.5514	0.8083	0.937	-0.546
Mof_O 	O 	0.3356	0.8393	0.391	-0.385
Mof_O 	O 	0.4486	0.8083	0.437	-0.546
Mof_O 	O 	0.7192	0.3218	0.4724	-0.606
Mof_O 	O 	0.9486	0.6917	0.937	-0.546
Mof_O 	O 	0.9688	0.2872	0.5069	-0.555
Mof_O 	O 	0.6748	0.34	0.6063	-0.343
Mof_O 	O 	0.5812	0.7889	0.1209	-0.276
Mof_O 	O 	0.9581	0.2001	0.6472	-0.422
Mof_O 	O 	0.9688	0.7128	0.9931	-0.555
Mof_O 	O 	0.1631	0.3277	0.9792	-0.571
Mof_O 	O 	0.9448	0.1793	0.5094	-0.554
Mof_O 	O 	0.5219	0.2209	0.6418	-0.461
Mof_O 	O 	0.3252	0.66	0.3937	-0.343
Mof_O 	O 	0.9673	0.7308	0.069	-0.481
Mof_O 	O 	0.7192	0.6782	0.0276	-0.606
Mof_O 	O 	0.3369	0.1723	0.9792	-0.571
Mof_O 	O 	0.1644	0.3393	0.109	-0.385
Mof_O 	O 	0.9673	0.2692	0.431	-0.481
Mof_O 	O 	0.4781	0.7791	0.3582	-0.461
Mof_O 	O 	0.8356	0.3393	0.609	-0.385
Mof_O 	O 	0.0812	0.7111	0.6209	-0.276
Mof_O 	O 	0.4679	0.3014	0.0653	-0.56
Mof_O 	O 	0.9679	0.8014	0.9347	-0.56
Mof_O 	O 	0.0514	0.6917	0.437	-0.546
Mof_O 	O 	0.5786	0.6712	0.0661	-0.396
Mof_O 	O 	0.0786	0.1712	0.9339	-0.396
Mof_O 	O 	0.9214	0.8288	0.0661	-0.396
Mof_O 	O 	0.75	0.25	0.5835	-0.748
Mof_O 	O 	0.3083	0.7601	0.5823	-0.484
Mof_O 	O 	0.8369	0.6723	0.0208	-0.571
Mof_O 	O 	0.8083	0.7399	0.0823	-0.484
Mof_O 	O 	0.6644	0.8393	0.891	-0.385
Mof_O 	O 	0.25	0.75	0.4165	-0.748
Mof_O 	O 	0.0219	0.2791	0.1418	-0.461
Mof_O 	O 	0.0219	0.7209	0.3582	-0.461
Mof_O 	O 	0.0552	0.1793	0.0094	-0.554
Mof_O 	O 	0.4188	0.2111	0.8791	-0.276
Mof_O 	O 	0.5552	0.3207	0.5094	-0.554
Mof_O 	O 	0.5312	0.7872	0.9931	-0.555
Mof_O 	O 	0.4673	0.2308	0.931	-0.481
Mof_O 	O 	0.9188	0.2889	0.3791	-0.276
Mof_O 	O 	0.4486	0.1917	0.063	-0.546
Mof_O 	O 	0.0419	0.2001	0.1472	-0.422
Mof_O 	O 	0.9188	0.7111	0.1209	-0.276
Mof_O 	O 	0.9781	0.2791	0.6418	-0.461
Mof_O 	O 	0.81	0.7507	0.8452	-0.539
Mof_O 	O 	0.5552	0.6793	0.9906	-0.554
Mof_O 	O 	0.189	0.2461	0.0343	-0.737
Mof_O 	O 	0.8356	0.6607	0.891	-0.385
Mof_O 	O 	0.3083	0.2399	0.9177	-0.484
Mof_O 	O 	0.1644	0.6607	0.391	-0.385
Mof_O 	O 	0.5327	0.7692	0.069	-0.481
Mof_O 	O 	0.1917	0.7399	0.5823	-0.484
Mof_O 	O 	0.0312	0.7128	0.4931	-0.555
Mof_O 	O 	0.2192	0.1782	0.9724	-0.606
Mof_O 	O 	0.5419	0.7001	0.8528	-0.422
Mof_O 	O 	0.0321	0.1986	0.0653	-0.56
Mof_O 	O 	0.19	0.7507	0.3452	-0.539
Mof_O 	O 	0.9781	0.7209	0.8582	-0.461
Mof_O 	O 	0.5312	0.2128	0.5069	-0.555
Mof_O 	O 	0.311	0.2539	0.0343	-0.737
Mof_O 	O 	0.0321	0.8014	0.4347	-0.56
Mof_O 	O 	0.5219	0.7791	0.8582	-0.461
Mof_O 	O 	0.0514	0.3083	0.063	-0.546
Mof_O 	O 	0.6631	0.8277	0.0208	-0.571
Mof_O 	O 	0.9214	0.1712	0.4339	-0.396
Mof_O 	O 	0.31	0.2507	0.1548	-0.539
Mof_O 	O 	0.4673	0.7692	0.569	-0.481
Mof_O 	O 	0.2808	0.3218	0.9724	-0.606
Mof_O 	O 	0.689	0.2539	0.5343	-0.737
Mof_O 	O 	0.2808	0.6782	0.5276	-0.606
Mof_O 	O 	0.3356	0.1607	0.109	-0.385
Mof_O 	O 	0.19	0.2493	0.1548	-0.539
Mof_O 	O 	0.3252	0.34	0.1063	-0.343
Mof_O 	O 	0.6631	0.1723	0.4792	-0.571
Mof_O 	O 	0.811	0.7539	0.9657	-0.737
Mof_O 	O 	0.5321	0.3014	0.5653	-0.56
Mof_O 	O 	0.8083	0.2601	0.4177	-0.484
Mof_O 	O 	0.4781	0.2209	0.1418	-0.461
Mof_O 	O 	0.7808	0.1782	0.4724	-0.606
Mof_O 	O 	0.5327	0.2308	0.431	-0.481
Mof_O 	O 	0.5812	0.2111	0.3791	-0.276
Mof_O 	O 	0.4679	0.6986	0.4347	-0.56
Mof_O 	O 	0.8252	0.16	0.6063	-0.343
Mof_O 	O 	0.6748	0.66	0.8937	-0.343
Mof_H 	H 	0.0103	0.9209	0.2798	0.11
Mof_H 	H 	0.1497	0.8855	0.3423	0.155
Mof_H 	H 	0.018	0.8739	0.2561	0.108
Mof_H 	H 	0.9815	0.87	0.2933	0.126
Mof_H 	H 	0.0669	0.8776	0.3493	0.156
Mof_H 	H 	0.0949	0.9284	0.3352	0.127
Mof_C 	C 	0.019	0.8861	0.2799	-0.338
Mof_C 	C 	0.102	0.8934	0.3344	-0.384
Mof_N 	N 	0.092	0.8754	0.2964	-0.041
Mof_H 	H 	0.982	0.8739	0.7561	0.108
Mof_H 	H 	0.8503	0.8855	0.8423	0.155
Mof_H 	H 	0.9331	0.8776	0.8493	0.156
Mof_H 	H 	0.9897	0.9209	0.7798	0.11
Mof_H 	H 	0.0185	0.87	0.7933	0.126
Mof_H 	H 	0.9051	0.9284	0.8352	0.127
Mof_C 	C 	0.898	0.8934	0.8344	-0.385
Mof_C 	C 	0.981	0.8861	0.7799	-0.337
Mof_N 	N 	0.908	0.8754	0.7964	-0.041
Mof_H 	H 	0.9815	0.13	0.2067	0.126
Mof_H 	H 	0.0103	0.0791	0.2202	0.11
Mof_H 	H 	0.0949	0.0716	0.1648	0.127
Mof_H 	H 	0.018	0.1261	0.2439	0.108
Mof_H 	H 	0.1497	0.1145	0.1577	0.155
Mof_H 	H 	0.0669	0.1224	0.1507	0.156
Mof_C 	C 	0.102	0.1066	0.1656	-0.385
Mof_C 	C 	0.019	0.1139	0.2201	-0.337
Mof_N 	N 	0.092	0.1246	0.2036	-0.041
Mof_H 	H 	0.4897	0.4209	0.2202	0.11
Mof_H 	H 	0.5185	0.37	0.2067	0.127
Mof_H 	H 	0.4331	0.3776	0.1507	0.156
Mof_H 	H 	0.4051	0.4284	0.1648	0.127
Mof_H 	H 	0.3503	0.3855	0.1577	0.155
Mof_H 	H 	0.482	0.3739	0.2439	0.108
Mof_C 	C 	0.398	0.3934	0.1656	-0.385
Mof_C 	C 	0.481	0.3861	0.2201	-0.339
Mof_N 	N 	0.408	0.3754	0.2036	-0.041
Mof_H 	H 	0.982	0.1261	0.7439	0.108
Mof_H 	H 	0.9897	0.0791	0.7202	0.11
Mof_H 	H 	0.0185	0.13	0.7067	0.126
Mof_H 	H 	0.8503	0.1145	0.6577	0.155
Mof_H 	H 	0.9051	0.0716	0.6648	0.127
Mof_H 	H 	0.9331	0.1224	0.6507	0.156
Mof_C 	C 	0.898	0.1066	0.6656	-0.384
Mof_C 	C 	0.981	0.1139	0.7201	-0.338
Mof_N 	N 	0.908	0.1246	0.7036	-0.041
Mof_H 	H 	0.518	0.3739	0.7439	0.108
Mof_H 	H 	0.6497	0.3855	0.6577	0.155
Mof_H 	H 	0.5103	0.4209	0.7202	0.11
Mof_H 	H 	0.5669	0.3776	0.6507	0.156
Mof_H 	H 	0.4815	0.37	0.7067	0.127
Mof_H 	H 	0.5949	0.4284	0.6648	0.127
Mof_C 	C 	0.602	0.3934	0.6656	-0.385
Mof_C 	C 	0.519	0.3861	0.7201	-0.339
Mof_N 	N 	0.592	0.3754	0.7036	-0.041
Mof_H 	H 	0.5669	0.6224	0.8493	0.156
Mof_H 	H 	0.5103	0.5791	0.7798	0.11
Mof_H 	H 	0.4815	0.63	0.7933	0.127
Mof_H 	H 	0.518	0.6261	0.7561	0.108
Mof_H 	H 	0.5949	0.5716	0.8352	0.127
Mof_H 	H 	0.6497	0.6145	0.8423	0.155
Mof_C 	C 	0.602	0.6066	0.8344	-0.385
Mof_C 	C 	0.519	0.6139	0.7799	-0.339
Mof_N 	N 	0.592	0.6246	0.7964	-0.041
Mof_H 	H 	0.4331	0.6224	0.3493	0.156
Mof_H 	H 	0.5185	0.63	0.2933	0.127
Mof_H 	H 	0.3503	0.6145	0.3423	0.155
Mof_H 	H 	0.482	0.6261	0.2561	0.108
Mof_H 	H 	0.4897	0.5791	0.2798	0.11
Mof_H 	H 	0.4051	0.5716	0.3352	0.127
Mof_C 	C 	0.398	0.6066	0.3344	-0.385
Mof_C 	C 	0.481	0.6139	0.2799	-0.339
Mof_N 	N 	0.408	0.6246	0.2964	-0.041
_end
