data_functionalizedCrystal
_audit_creation_method	'EQeq! by Chris Wilmer'
_symmetry_space_group_name_H-M	'P1'
_symmetry_Int_Tables_number	1
_symmetry_cell_setting	triclinic
loop_
_symmetry_equiv_pos_as_xyz
  x,y,z
_cell_length_a	14.183
_cell_length_b	26.983
_cell_length_c	7.615
_cell_angle_alpha	90
_cell_angle_beta	90
_cell_angle_gamma	90
loop_
_atom_site_label
_atom_site_type_symbol
_atom_site_fract_x
_atom_site_fract_y
_atom_site_fract_z
_atom_site_charge
Mof_Cd	Cd	0.21721	0.1149	0.12333	0.33
Mof_N 	N 	0.24	0.1711	0.894	-0.057
Mof_N 	N 	0.2437	0.1712	0.335	-0.082
Mof_N 	N 	0.3668	0.0796	0.117	-0.074
Mof_N 	N 	0.1753	0.0562	0.903	-0.102
Mof_N 	N 	0.0526	0.1265	0.079	-0.166
Mof_C 	C 	0.2407	0.2009	0.789	-0.226
Mof_C 	C 	0.2465	0.2011	0.441	-0.241
Mof_C 	C 	0.4183	0.05	0.074	-0.261
Mof_C 	C 	0.075	0.0578	0.876	-0.036
Mof_C 	C 	0.022	0.0942	0.938	0.009
Mof_C 	C 	0.9151	0.0929	0.906	0.048
Mof_N 	N 	0.3345	0.9469	0.839	-0.065
Mof_C 	C 	0.3968	0.967	0.901	-0.147
Mof_Cd	Cd	0.78279	0.6149	0.87667	0.416
Mof_N 	N 	0.76	0.6711	0.106	-0.094
Mof_N 	N 	0.7563	0.6712	0.665	-0.073
Mof_N 	N 	0.6332	0.5796	0.883	-0.071
Mof_N 	N 	0.8247	0.5562	0.097	-0.131
Mof_N 	N 	0.9474	0.6265	0.921	-0.082
Mof_C 	C 	0.7593	0.7009	0.211	-0.233
Mof_C 	C 	0.7535	0.7011	0.559	-0.223
Mof_C 	C 	0.5817	0.55	0.926	-0.179
Mof_C 	C 	0.925	0.5578	0.124	-0.019
Mof_C 	C 	0.978	0.5942	0.062	0.069
Mof_C 	C 	0.0849	0.5929	0.094	-0.121
Mof_N 	N 	0.6655	0.4469	0.161	-0.068
Mof_C 	C 	0.6032	0.467	0.099	-0.24
Mof_Cd	Cd	0.78279	0.8851	0.87667	0.42
Mof_N 	N 	0.76	0.8289	0.106	-0.093
Mof_N 	N 	0.7563	0.8288	0.665	-0.073
Mof_N 	N 	0.6332	0.9204	0.883	-0.074
Mof_N 	N 	0.8247	0.9438	0.097	-0.124
Mof_N 	N 	0.9474	0.8735	0.921	-0.081
Mof_C 	C 	0.7593	0.7991	0.211	-0.233
Mof_C 	C 	0.7535	0.7989	0.559	-0.222
Mof_C 	C 	0.5817	0.95	0.926	-0.149
Mof_C 	C 	0.925	0.9422	0.124	-0.001
Mof_C 	C 	0.978	0.9058	0.062	0.064
Mof_C 	C 	0.0849	0.9071	0.094	-0.108
Mof_N 	N 	0.6655	0.0531	0.161	-0.071
Mof_C 	C 	0.6032	0.033	0.099	-0.26
Mof_Cd	Cd	0.21721	0.3851	0.12333	0.333
Mof_N 	N 	0.24	0.3289	0.894	-0.058
Mof_N 	N 	0.2437	0.3288	0.335	-0.082
Mof_N 	N 	0.3668	0.4204	0.117	-0.075
Mof_N 	N 	0.1753	0.4438	0.903	-0.096
Mof_N 	N 	0.0526	0.3735	0.079	-0.165
Mof_C 	C 	0.2407	0.2991	0.789	-0.226
Mof_C 	C 	0.2465	0.2989	0.441	-0.241
Mof_C 	C 	0.4183	0.45	0.074	-0.243
Mof_C 	C 	0.075	0.4422	0.876	-0.02
Mof_C 	C 	0.022	0.4058	0.938	0.005
Mof_C 	C 	0.9151	0.4071	0.906	0.059
Mof_N 	N 	0.3345	0.5531	0.839	-0.065
Mof_C 	C 	0.3968	0.533	0.901	-0.179
Mof_Ni	Ni	0.2458	0.25	0.6139	1.059
Mof_Ni	Ni	0.7542	0.75	0.3861	1.059
Mof_Ni	Ni	0.5	0	-0	1.02
Mof_Ni	Ni	0.5	0.5	-0	1.041
Mof_N 	N 	0.1655	0.0531	0.339	-0.069
Mof_C 	C 	0.1032	0.033	0.401	-0.265
Mof_Cd	Cd	0.28279	0.8851	0.62333	0.378
Mof_N 	N 	0.26	0.8289	0.394	-0.076
Mof_N 	N 	0.2563	0.8288	0.835	-0.081
Mof_N 	N 	0.1332	0.9204	0.617	-0.074
Mof_N 	N 	0.3247	0.9438	0.403	-0.109
Mof_N 	N 	0.4474	0.8735	0.579	-0.122
Mof_C 	C 	0.2593	0.7991	0.289	-0.255
Mof_C 	C 	0.2535	0.7989	0.941	-0.198
Mof_C 	C 	0.0817	0.95	0.574	-0.213
Mof_C 	C 	0.425	0.9422	0.376	-0.013
Mof_C 	C 	0.478	0.9058	0.438	0.032
Mof_C 	C 	0.5849	0.9071	0.406	-0.027
Mof_N 	N 	0.8345	0.5531	0.661	-0.069
Mof_C 	C 	0.8968	0.533	0.599	-0.17
Mof_Cd	Cd	0.71721	0.3851	0.37667	0.373
Mof_N 	N 	0.74	0.3289	0.606	-0.073
Mof_N 	N 	0.7437	0.3288	0.165	-0.075
Mof_N 	N 	0.8668	0.4204	0.383	-0.077
Mof_N 	N 	0.6753	0.4438	0.597	-0.11
Mof_N 	N 	0.5526	0.3735	0.421	-0.126
Mof_C 	C 	0.7407	0.2991	0.711	-0.206
Mof_C 	C 	0.7465	0.2989	0.059	-0.257
Mof_C 	C 	0.9183	0.45	0.426	-0.173
Mof_C 	C 	0.575	0.4422	0.624	-0.011
Mof_C 	C 	0.522	0.4058	0.562	0.038
Mof_C 	C 	0.4151	0.4071	0.594	-0.02
Mof_N 	N 	0.8345	0.9469	0.661	-0.069
Mof_C 	C 	0.8968	0.967	0.599	-0.139
Mof_Cd	Cd	0.71721	0.1149	0.37667	0.369
Mof_N 	N 	0.74	0.1711	0.606	-0.073
Mof_N 	N 	0.7437	0.1712	0.165	-0.075
Mof_N 	N 	0.8668	0.0796	0.383	-0.077
Mof_N 	N 	0.6753	0.0562	0.597	-0.117
Mof_N 	N 	0.5526	0.1265	0.421	-0.127
Mof_C 	C 	0.7407	0.2009	0.711	-0.206
Mof_C 	C 	0.7465	0.2011	0.059	-0.257
Mof_C 	C 	0.9183	0.05	0.426	-0.19
Mof_C 	C 	0.575	0.0578	0.624	-0.027
Mof_C 	C 	0.522	0.0942	0.562	0.042
Mof_C 	C 	0.4151	0.0929	0.594	-0.03
Mof_N 	N 	0.1655	0.4469	0.339	-0.066
Mof_C 	C 	0.1032	0.467	0.401	-0.245
Mof_Cd	Cd	0.28279	0.6149	0.62333	0.373
Mof_N 	N 	0.26	0.6711	0.394	-0.076
Mof_N 	N 	0.2563	0.6712	0.835	-0.082
Mof_N 	N 	0.1332	0.5796	0.617	-0.07
Mof_N 	N 	0.3247	0.5562	0.403	-0.117
Mof_N 	N 	0.4474	0.6265	0.579	-0.123
Mof_C 	C 	0.2593	0.7009	0.289	-0.255
Mof_C 	C 	0.2535	0.7011	0.941	-0.198
Mof_C 	C 	0.0817	0.55	0.574	-0.244
Mof_C 	C 	0.425	0.5578	0.376	-0.031
Mof_C 	C 	0.478	0.5942	0.438	0.036
Mof_C 	C 	0.5849	0.5929	0.406	-0.038
Mof_Ni	Ni	0.2542	0.75	0.1139	1.031
Mof_Ni	Ni	0.7458	0.25	0.8861	1.082
Mof_Ni	Ni	1.00655e-33	0	0.5	1.012
Mof_Ni	Ni	1.00655e-33	0.5	0.5	1.033
_end
