data_functionalizedCrystal
_audit_creation_method	'EQeq! by Chris Wilmer'
_symmetry_space_group_name_H-M	'P1'
_symmetry_Int_Tables_number	1
_symmetry_cell_setting	triclinic
loop_
_symmetry_equiv_pos_as_xyz
  x,y,z
_cell_length_a	16.813
_cell_length_b	12.986
_cell_length_c	11.845
_cell_angle_alpha	90
_cell_angle_beta	107.64
_cell_angle_gamma	90
loop_
_atom_site_label
_atom_site_type_symbol
_atom_site_fract_x
_atom_site_fract_y
_atom_site_fract_z
_atom_site_charge
Mof_N 	N 	0.03937	0.04708	0.18322	-0.224
Mof_N 	N 	0.8783	0.06535	0.9793	-0.155
Mof_N 	N 	0.77408	0.11142	0.0456	-0.166
Mof_N 	N 	0.61268	0.25049	0.36864	-0.14
Mof_N 	N 	0.55015	0.35903	0.45705	-0.233
Mof_C 	C 	0.85656	0.1211	0.0576	0.042
Mof_H 	H 	0.8932	0.1622	0.1144	0.03
Mof_C 	C 	0.65523	0.2138	0.2885	0.085
Mof_C 	C 	0.73304	0.1485	0.1272	0.074
Mof_C 	C 	0.66259	0.0978	0.1362	-0.078
Mof_H 	H 	0.6414	0.0419	0.0873	0.024
Mof_C 	C 	0.5789	0.1938	0.4404	0.002
Mof_H 	H 	0.5811	0.1226	0.4496	0.01
Mof_C 	C 	0.59334	0.3491	0.3818	0.099
Mof_H 	H 	0.6086	0.4039	0.3423	-0.008
Mof_C 	C 	0.62395	0.1301	0.217	-0.09
Mof_H 	H 	0.577	0.0957	0.2235	0.046
Mof_C 	C 	0.54197	0.2611	0.4948	0.003
Mof_H 	H 	0.5149	0.2437	0.55	0.016
Mof_C 	C 	0.80568	0.019	0.9118	-0.16
Mof_H 	H 	0.8019	0.9753	0.8482	0.128
Mof_C 	C 	0.74119	0.0457	0.9504	0.126
Mof_H 	H 	0.686	0.0246	0.9197	-0.024
Mof_C 	C 	0.72636	0.2623	0.2816	-0.082
Mof_H 	H 	0.7484	0.3172	0.3317	0.064
Mof_C 	C 	0.76516	0.2298	0.2003	-0.073
Mof_H 	H 	0.813	0.263	0.1954	0.063
Mof_N 	N 	0.53937	0.54708	0.18322	-0.199
Mof_N 	N 	0.3783	0.56535	0.9793	-0.187
Mof_N 	N 	0.27408	0.61142	0.0456	-0.156
Mof_N 	N 	0.11268	0.75049	0.36864	-0.138
Mof_N 	N 	0.05015	0.85903	0.45705	-0.228
Mof_C 	C 	0.35656	0.6211	0.0576	0.041
Mof_H 	H 	0.3932	0.6622	0.1144	0.011
Mof_C 	C 	0.15523	0.7138	0.2885	0.081
Mof_C 	C 	0.23304	0.6485	0.1272	0.074
Mof_C 	C 	0.16259	0.5978	0.1362	-0.085
Mof_H 	H 	0.1414	0.5419	0.0873	0.033
Mof_C 	C 	0.0789	0.6938	0.4404	-0.01
Mof_H 	H 	0.0811	0.6226	0.4496	0.016
Mof_C 	C 	0.09334	0.8491	0.3818	0.09
Mof_H 	H 	0.1086	0.9039	0.3423	0.012
Mof_C 	C 	0.12395	0.6301	0.217	-0.085
Mof_H 	H 	0.077	0.5957	0.2235	0.035
Mof_C 	C 	0.04197	0.7611	0.4948	-0.002
Mof_H 	H 	0.0149	0.7437	0.55	-0.001
Mof_C 	C 	0.30568	0.519	0.9118	-0.019
Mof_H 	H 	0.3019	0.4753	0.8482	0.039
Mof_C 	C 	0.24119	0.5457	0.9504	0.063
Mof_H 	H 	0.186	0.5246	0.9197	0.013
Mof_C 	C 	0.22636	0.7623	0.2816	-0.082
Mof_H 	H 	0.2484	0.8172	0.3317	0.073
Mof_C 	C 	0.26516	0.7298	0.2003	-0.074
Mof_H 	H 	0.313	0.763	0.1954	0.061
Mof_N 	N 	0.96063	0.04708	0.31678	-0.147
Mof_N 	N 	0.1217	0.06535	0.5207	-0.225
Mof_N 	N 	0.22592	0.11142	0.4544	-0.149
Mof_N 	N 	0.38732	0.25049	0.13136	-0.15
Mof_N 	N 	0.44985	0.35903	0.04295	-0.224
Mof_C 	C 	0.14344	0.1211	0.4424	0.094
Mof_H 	H 	0.1068	0.1622	0.3856	-0.021
Mof_C 	C 	0.34477	0.2138	0.2115	0.08
Mof_C 	C 	0.26696	0.1485	0.3728	0.082
Mof_C 	C 	0.33741	0.0978	0.3638	-0.08
Mof_H 	H 	0.3586	0.0419	0.4127	0.039
Mof_C 	C 	0.4211	0.1938	0.0596	0.057
Mof_H 	H 	0.4189	0.1226	0.0504	-0.024
Mof_C 	C 	0.40666	0.3491	0.1182	0.093
Mof_H 	H 	0.3914	0.4039	0.1577	-0.01
Mof_C 	C 	0.37605	0.1301	0.283	-0.085
Mof_H 	H 	0.423	0.0957	0.2765	0.045
Mof_C 	C 	0.45803	0.2611	0.0052	-0.121
Mof_H 	H 	0.4851	0.2437	0.95	0.092
Mof_C 	C 	0.19432	0.019	0.5882	-0.162
Mof_H 	H 	0.1981	0.9753	0.6518	0.124
Mof_C 	C 	0.25881	0.0457	0.5496	0.071
Mof_H 	H 	0.314	0.0246	0.5803	-0.017
Mof_C 	C 	0.27364	0.2623	0.2184	-0.083
Mof_H 	H 	0.2516	0.3172	0.1683	0.053
Mof_C 	C 	0.23484	0.2298	0.2997	-0.074
Mof_H 	H 	0.187	0.263	0.3046	0.053
Mof_N 	N 	0.46063	0.54708	0.31678	-0.194
Mof_N 	N 	0.6217	0.56535	0.5207	-0.229
Mof_N 	N 	0.72592	0.61142	0.4544	-0.135
Mof_N 	N 	0.88732	0.75049	0.13136	-0.146
Mof_N 	N 	0.94985	0.85903	0.04295	-0.19
Mof_C 	C 	0.64344	0.6211	0.4424	0.1
Mof_H 	H 	0.6068	0.6622	0.3856	-0.005
Mof_C 	C 	0.84477	0.7138	0.2115	0.101
Mof_C 	C 	0.76696	0.6485	0.3728	0.084
Mof_C 	C 	0.83741	0.5978	0.3638	-0.065
Mof_H 	H 	0.8586	0.5419	0.4127	0.061
Mof_C 	C 	0.9211	0.6938	0.0596	0.064
Mof_H 	H 	0.9189	0.6226	0.0504	0.005
Mof_C 	C 	0.90666	0.8491	0.1182	0.11
Mof_H 	H 	0.8914	0.9039	0.1577	0.019
Mof_C 	C 	0.87605	0.6301	0.283	-0.083
Mof_H 	H 	0.923	0.5957	0.2765	0.079
Mof_C 	C 	0.95803	0.7611	0.0052	-0.096
Mof_H 	H 	0.9851	0.7437	0.95	0.113
Mof_C 	C 	0.69432	0.519	0.5882	-0
Mof_H 	H 	0.6981	0.4753	0.6518	0.027
Mof_C 	C 	0.75881	0.5457	0.5496	0.001
Mof_H 	H 	0.814	0.5246	0.5803	0.035
Mof_C 	C 	0.77364	0.7623	0.2184	-0.087
Mof_H 	H 	0.7516	0.8172	0.1683	0.067
Mof_C 	C 	0.73484	0.7298	0.2997	-0.068
Mof_H 	H 	0.687	0.763	0.3046	0.06
Mof_N 	N 	0.96063	0.95292	0.81678	-0.112
Mof_N 	N 	0.1217	0.93465	0.0207	-0.282
Mof_N 	N 	0.22592	0.88858	0.9544	-0.106
Mof_N 	N 	0.38732	0.74951	0.63136	-0.135
Mof_N 	N 	0.44985	0.64097	0.54295	-0.234
Mof_C 	C 	0.14344	0.8789	0.9424	0.161
Mof_H 	H 	0.1068	0.8378	0.8856	-0.031
Mof_C 	C 	0.34477	0.7862	0.7115	0.088
Mof_C 	C 	0.26696	0.8515	0.8728	0.101
Mof_C 	C 	0.33741	0.9022	0.8638	-0.079
Mof_H 	H 	0.3586	0.9581	0.9127	0.088
Mof_C 	C 	0.4211	0.8062	0.5596	-0.002
Mof_H 	H 	0.4189	0.8774	0.5504	0.043
Mof_C 	C 	0.40666	0.6509	0.6182	0.1
Mof_H 	H 	0.3914	0.5961	0.6577	-0.007
Mof_C 	C 	0.37605	0.8699	0.783	-0.066
Mof_H 	H 	0.423	0.9043	0.7765	0.068
Mof_C 	C 	0.45803	0.7389	0.5052	0.011
Mof_H 	H 	0.4851	0.7563	0.45	0.02
Mof_C 	C 	0.19432	0.981	0.0882	0.18
Mof_H 	H 	0.1981	0.0247	0.1518	-0.084
Mof_C 	C 	0.25881	0.9543	0.0496	-0.13
Mof_H 	H 	0.314	0.9754	0.0803	0.087
Mof_C 	C 	0.27364	0.7377	0.7184	-0.074
Mof_H 	H 	0.2516	0.6828	0.6683	0.061
Mof_C 	C 	0.23484	0.7702	0.7997	-0.076
Mof_H 	H 	0.187	0.737	0.8046	0.06
Mof_N 	N 	0.46063	0.45292	0.81678	-0.184
Mof_N 	N 	0.6217	0.43465	0.0207	-0.265
Mof_N 	N 	0.72592	0.38858	0.9544	-0.117
Mof_N 	N 	0.88732	0.24951	0.63136	-0.137
Mof_N 	N 	0.94985	0.14097	0.54295	-0.22
Mof_C 	C 	0.64344	0.3789	0.9424	0.159
Mof_H 	H 	0.6068	0.3378	0.8856	-0.02
Mof_C 	C 	0.84477	0.2862	0.7115	0.094
Mof_C 	C 	0.76696	0.3515	0.8728	0.099
Mof_C 	C 	0.83741	0.4022	0.8638	-0.071
Mof_H 	H 	0.8586	0.4581	0.9127	0.078
Mof_C 	C 	0.9211	0.3062	0.5596	0.012
Mof_H 	H 	0.9189	0.3774	0.5504	0.036
Mof_C 	C 	0.90666	0.1509	0.6182	0.11
Mof_H 	H 	0.8914	0.0961	0.6577	-0.016
Mof_C 	C 	0.87605	0.3699	0.783	-0.072
Mof_H 	H 	0.923	0.4043	0.7765	0.079
Mof_C 	C 	0.95803	0.2389	0.5052	0.016
Mof_H 	H 	0.9851	0.2563	0.45	0.043
Mof_C 	C 	0.69432	0.481	0.0882	0.014
Mof_H 	H 	0.6981	0.5247	0.1518	0.017
Mof_C 	C 	0.75881	0.4543	0.0496	-0.058
Mof_H 	H 	0.814	0.4754	0.0803	0.045
Mof_C 	C 	0.77364	0.2377	0.7184	-0.075
Mof_H 	H 	0.7516	0.1828	0.6683	0.053
Mof_C 	C 	0.73484	0.2702	0.7997	-0.075
Mof_H 	H 	0.687	0.237	0.8046	0.061
Mof_N 	N 	0.03937	0.95292	0.68322	-0.181
Mof_N 	N 	0.8783	0.93465	0.4793	-0.218
Mof_N 	N 	0.77408	0.88858	0.5456	-0.124
Mof_N 	N 	0.61268	0.74951	0.86864	-0.126
Mof_N 	N 	0.55015	0.64097	0.95705	-0.238
Mof_C 	C 	0.85656	0.8789	0.5576	0.108
Mof_H 	H 	0.8932	0.8378	0.6144	0.016
Mof_C 	C 	0.65523	0.7862	0.7885	0.091
Mof_C 	C 	0.73304	0.8515	0.6272	0.093
Mof_C 	C 	0.66259	0.9022	0.6362	-0.078
Mof_H 	H 	0.6414	0.9581	0.5873	0.072
Mof_C 	C 	0.5789	0.8062	0.9404	-0.054
Mof_H 	H 	0.5811	0.8774	0.9496	0.074
Mof_C 	C 	0.59334	0.6509	0.8818	0.105
Mof_H 	H 	0.6086	0.5961	0.8423	-0.004
Mof_C 	C 	0.62395	0.8699	0.717	-0.072
Mof_H 	H 	0.577	0.9043	0.7235	0.068
Mof_C 	C 	0.54197	0.7389	0.9948	0.128
Mof_H 	H 	0.5149	0.7563	0.05	-0.051
Mof_C 	C 	0.80568	0.981	0.4118	0.146
Mof_H 	H 	0.8019	0.0247	0.3482	-0.059
Mof_C 	C 	0.74119	0.9543	0.4504	-0.062
Mof_H 	H 	0.686	0.9754	0.4197	0.071
Mof_C 	C 	0.72636	0.7377	0.7816	-0.074
Mof_H 	H 	0.7484	0.6828	0.8317	0.071
Mof_C 	C 	0.76516	0.7702	0.7003	-0.075
Mof_H 	H 	0.813	0.737	0.6954	0.07
Mof_N 	N 	0.53937	0.45292	0.68322	-0.194
Mof_N 	N 	0.3783	0.43465	0.4793	-0.229
Mof_N 	N 	0.27408	0.38858	0.5456	-0.138
Mof_N 	N 	0.11268	0.24951	0.86864	-0.128
Mof_N 	N 	0.05015	0.14097	0.95705	-0.258
Mof_C 	C 	0.35656	0.3789	0.5576	0.101
Mof_H 	H 	0.3932	0.3378	0.6144	-0.006
Mof_C 	C 	0.15523	0.2862	0.7885	0.073
Mof_C 	C 	0.23304	0.3515	0.6272	0.09
Mof_C 	C 	0.16259	0.4022	0.6362	-0.092
Mof_H 	H 	0.1414	0.4581	0.5873	0.051
Mof_C 	C 	0.0789	0.3062	0.9404	-0.071
Mof_H 	H 	0.0811	0.3774	0.9496	0.052
Mof_C 	C 	0.09334	0.1509	0.8818	0.09
Mof_H 	H 	0.1086	0.0961	0.8423	-0.026
Mof_C 	C 	0.12395	0.3699	0.717	-0.074
Mof_H 	H 	0.077	0.4043	0.7235	0.035
Mof_C 	C 	0.04197	0.2389	0.9948	0.127
Mof_H 	H 	0.0149	0.2563	0.05	-0.084
Mof_C 	C 	0.30568	0.481	0.4118	-0.004
Mof_H 	H 	0.3019	0.5247	0.3482	0.028
Mof_C 	C 	0.24119	0.4543	0.4504	0.003
Mof_H 	H 	0.186	0.4754	0.4197	0.022
Mof_C 	C 	0.22636	0.2377	0.7816	-0.069
Mof_H 	H 	0.2484	0.1828	0.8317	0.059
Mof_C 	C 	0.26516	0.2702	0.7003	-0.08
Mof_H 	H 	0.313	0.237	0.6954	0.062
Mof_Co	Co	-0	0	-0	1.036
Mof_Co	Co	0.5	0.5	-0	1.099
Mof_Co	Co	1.72099e-33	-5.12131e-33	0.5	1.056
Mof_Co	Co	0.5	0.5	0.5	1.12
Mof_N 	N 	8.60494e-34	0.0461	0.25	-0.115
Mof_N 	N 	0.5	0.5461	0.25	-0.049
Mof_N 	N 	2.58148e-33	0.9539	0.75	-0.087
Mof_N 	N 	0.5	0.4539	0.75	-0.047
_end
