data_functionalizedCrystal
_audit_creation_method	'EQeq! by Chris Wilmer'
_symmetry_space_group_name_H-M	'P1'
_symmetry_Int_Tables_number	1
_symmetry_cell_setting	triclinic
loop_
_symmetry_equiv_pos_as_xyz
  x,y,z
_cell_length_a	11.192
_cell_length_b	12.401
_cell_length_c	12.566
_cell_angle_alpha	64.424
_cell_angle_beta	75.586
_cell_angle_gamma	80.446
loop_
_atom_site_label
_atom_site_type_symbol
_atom_site_fract_x
_atom_site_fract_y
_atom_site_fract_z
_atom_site_charge
Mof_Cu	Cu	0.37734	0.06004	0.41182	0.902
Mof_C 	C 	0.0066	0.0787	0.878	-0.033
Mof_C 	C 	0.895	0.0299	0.9499	0.081
Mof_C 	C 	0.8882	0.9509	0.0705	0.002
Mof_C 	C 	0.0134	0.164	0.7455	-0.151
Mof_H 	H 	0.9304	0.1862	0.7292	0.118
Mof_H 	H 	0.05	0.2365	0.7293	0.072
Mof_C 	C 	0.189	0.1439	0.5834	0.08
Mof_H 	H 	0.2286	0.212	0.5641	0.025
Mof_C 	C 	0.1385	0.985	0.588	0.095
Mof_H 	H 	0.1396	0.9196	0.5697	0.006
Mof_C 	C 	0.7787	0.0647	0.8979	-0.133
Mof_H 	H 	0.7067	0.0489	0.9629	0.097
Mof_H 	H 	0.7753	0.1498	0.847	0.1
Mof_C 	C 	0.727	0.0349	0.7299	0.087
Mof_H 	H 	0.6961	0.1127	0.6889	0.029
Mof_C 	C 	0.7836	0.8511	0.7834	0.103
Mof_H 	H 	0.7992	0.7749	0.7838	0.006
Mof_C 	C 	0.7679	0.8948	0.1446	-0.091
Mof_H 	H 	0.7271	0.8772	0.0947	0.08
Mof_H 	H 	0.7851	0.8199	0.2104	0.08
Mof_C 	C 	0.5762	0.9527	0.2694	0.084
Mof_H 	H 	0.5371	0.8818	0.2996	0.022
Mof_C 	C 	0.6195	0.1273	0.2305	0.097
Mof_H 	H 	0.6133	0.203	0.2304	0.009
Mof_C 	C 	0.5582	0.3376	0.4115	-0.12
Mof_C 	C 	0.6646	0.3626	0.4331	0.054
Mof_H 	H 	0.7203	0.3004	0.4686	0.045
Mof_C 	C 	0.6874	0.4799	0.4019	-0.099
Mof_C 	C 	0.6022	0.5722	0.35	0.04
Mof_H 	H 	0.6169	0.651	0.3297	0.044
Mof_C 	C 	0.4963	0.5483	0.3283	-0.097
Mof_C 	C 	0.475	0.4308	0.3597	0.054
Mof_H 	H 	0.4038	0.4139	0.3459	0.035
Mof_C 	C 	0.5349	0.2093	0.4473	0.381
Mof_C 	C 	0.7979	0.5121	0.4263	0.32
Mof_C 	C 	0.406	0.6516	0.2729	0.314
Mof_N 	N 	0.2263	0.0665	0.5328	-0.219
Mof_N 	N 	0.0868	0.109	0.6653	-0.074
Mof_N 	N 	0.0528	0.0073	0.6688	-0.094
Mof_N 	N 	0.729	0.9438	0.7006	-0.211
Mof_N 	N 	0.7762	0.9974	0.8274	-0.066
Mof_N 	N 	0.813	0.8791	0.8642	-0.08
Mof_N 	N 	0.5326	0.0472	0.2951	-0.227
Mof_N 	N 	0.685	0.9759	0.1935	-0.079
Mof_N 	N 	0.714	0.0874	0.1676	-0.082
Mof_O 	O 	0.4368	0.193	0.4239	-0.422
Mof_O 	O 	0.6115	0.1296	0.4951	-0.399
Mof_O 	O 	0.8782	0.427	0.4693	-0.377
Mof_O 	O 	0.8095	0.6169	0.4063	-0.318
Mof_O 	O 	0.4344	0.7545	0.248	-0.25
Mof_O 	O 	0.3117	0.6293	0.2522	-0.261
Mof_Cu	Cu	0.62266	0.93996	0.58818	0.902
Mof_C 	C 	0.9934	0.9213	0.122	0.065
Mof_C 	C 	0.105	0.9701	0.0501	-0.036
Mof_C 	C 	0.1118	0.0491	0.9295	0.051
Mof_C 	C 	0.9866	0.836	0.2545	-0.019
Mof_H 	H 	0.0696	0.8138	0.2708	0.023
Mof_H 	H 	0.95	0.7635	0.2707	0.051
Mof_C 	C 	0.811	0.8561	0.4166	0.096
Mof_H 	H 	0.7714	0.788	0.4359	0.023
Mof_C 	C 	0.8615	0.015	0.412	0.101
Mof_H 	H 	0.8604	0.0804	0.4303	0.02
Mof_C 	C 	0.2213	0.9353	0.1021	-0.085
Mof_H 	H 	0.2933	0.9511	0.0371	0.084
Mof_H 	H 	0.2247	0.8502	0.153	0.08
Mof_C 	C 	0.273	0.9651	0.2701	0.084
Mof_H 	H 	0.3039	0.8873	0.3111	0.028
Mof_C 	C 	0.2164	0.1489	0.2166	0.094
Mof_H 	H 	0.2008	0.2251	0.2162	-0.005
Mof_C 	C 	0.2321	0.1052	0.8554	-0.118
Mof_H 	H 	0.2729	0.1228	0.9053	0.085
Mof_H 	H 	0.2149	0.1801	0.7896	0.086
Mof_C 	C 	0.4238	0.0473	0.7306	0.081
Mof_H 	H 	0.4629	0.1182	0.7004	0.023
Mof_C 	C 	0.3805	0.8727	0.7695	0.097
Mof_H 	H 	0.3867	0.797	0.7696	0.006
Mof_C 	C 	0.4418	0.6624	0.5885	-0.122
Mof_C 	C 	0.3354	0.6374	0.5669	0.055
Mof_H 	H 	0.2797	0.6996	0.5314	0.039
Mof_C 	C 	0.3126	0.5201	0.5981	-0.107
Mof_C 	C 	0.3978	0.4278	0.65	0.04
Mof_H 	H 	0.3831	0.349	0.6703	0.043
Mof_C 	C 	0.5037	0.4517	0.6717	-0.097
Mof_C 	C 	0.525	0.5692	0.6403	0.052
Mof_H 	H 	0.5962	0.5861	0.6541	0.038
Mof_C 	C 	0.4651	0.7907	0.5527	0.38
Mof_C 	C 	0.2021	0.4879	0.5737	0.323
Mof_C 	C 	0.594	0.3484	0.7271	0.312
Mof_N 	N 	0.7737	0.9335	0.4672	-0.218
Mof_N 	N 	0.9132	0.891	0.3347	-0.082
Mof_N 	N 	0.9472	0.9927	0.3312	-0.068
Mof_N 	N 	0.271	0.0562	0.2994	-0.215
Mof_N 	N 	0.2238	0.0026	0.1726	-0.078
Mof_N 	N 	0.187	0.1209	0.1358	-0.091
Mof_N 	N 	0.4674	0.9528	0.7049	-0.226
Mof_N 	N 	0.315	0.0241	0.8065	-0.075
Mof_N 	N 	0.286	0.9126	0.8324	-0.087
Mof_O 	O 	0.5632	0.807	0.5761	-0.421
Mof_O 	O 	0.3885	0.8704	0.5049	-0.401
Mof_O 	O 	0.1218	0.573	0.5307	-0.408
Mof_O 	O 	0.1905	0.3831	0.5937	-0.335
Mof_O 	O 	0.5656	0.2455	0.752	-0.249
Mof_O 	O 	0.6883	0.3707	0.7478	-0.252
Mof_Cu	Cu	-1.86957e-17	0.5	0.5	0.854
_end
