data_functionalizedCrystal
_audit_creation_method	'EQeq! by Chris Wilmer'
_symmetry_space_group_name_H-M	'P1'
_symmetry_Int_Tables_number	1
_symmetry_cell_setting	triclinic
loop_
_symmetry_equiv_pos_as_xyz
  x,y,z
_cell_length_a	9.154
_cell_length_b	9.239
_cell_length_c	9.345
_cell_angle_alpha	78.231
_cell_angle_beta	87.485
_cell_angle_gamma	87.179
loop_
_atom_site_label
_atom_site_type_symbol
_atom_site_fract_x
_atom_site_fract_y
_atom_site_fract_z
_atom_site_charge
Mof_P 	P 	0.617	0.8603	0.6786	1.768
Mof_P 	P 	0.8126	0.1111	0.1054	1.766
Mof_P 	P 	0.6487	0.6694	0.1381	1.442
Mof_Al	Al	0.6307	0.8968	0.3397	6.981
Mof_Al	Al	0.8371	0.8673	0.9268	6.382
Mof_Al	Al	0.4385	0.6316	0.908	6.474
Mof_F 	F 	0.6053	0.5023	0.9195	-2.093
Mof_O 	O 	0.536	0.7348	0.0261	-1.711
Mof_O 	O 	0.7875	0.0351	0.9777	-1.991
Mof_O 	O 	0.6484	0.5022	0.187	-1.454
Mof_O 	O 	0.731	0.258	0.0871	-1.713
Mof_O 	O 	0.768	0.0094	0.2497	-2.126
Mof_O 	O 	0.5145	0.7356	0.7339	-1.736
Mof_O 	O 	0.9768	0.1353	0.112	-1.918
Mof_O 	O 	0.8015	0.7186	0.0709	-1.856
Mof_O 	O 	0.7526	0.8509	0.7708	-1.987
Mof_O 	O 	0.674	0.851	0.5234	-2.022
Mof_O 	O 	0.625	0.7353	0.277	-2.035
Mof_O 	O 	0.5392	0.0104	0.6752	-2.173
Mof_P 	P 	0.383	0.1397	0.3214	1.769
Mof_P 	P 	0.1874	0.8889	0.8946	1.767
Mof_P 	P 	0.3513	0.3306	0.8619	1.443
Mof_Al	Al	0.3693	0.1032	0.6603	6.982
Mof_Al	Al	0.1629	0.1327	0.0732	6.382
Mof_Al	Al	0.5615	0.3684	0.092	6.474
Mof_F 	F 	0.3947	0.4977	0.0805	-2.093
Mof_O 	O 	0.464	0.2652	0.9739	-1.711
Mof_O 	O 	0.2125	0.9649	0.0223	-1.991
Mof_O 	O 	0.3516	0.4978	0.813	-1.454
Mof_O 	O 	0.269	0.742	0.9129	-1.713
Mof_O 	O 	0.232	0.9906	0.7503	-2.126
Mof_O 	O 	0.4855	0.2644	0.2661	-1.736
Mof_O 	O 	0.0232	0.8647	0.888	-1.918
Mof_O 	O 	0.1985	0.2814	0.9291	-1.856
Mof_O 	O 	0.2474	0.1491	0.2292	-1.987
Mof_O 	O 	0.326	0.149	0.4766	-2.022
Mof_O 	O 	0.375	0.2647	0.723	-2.035
Mof_O 	O 	0.4608	0.9896	0.3248	-2.173
_end
