data_functionalizedCrystal
_audit_creation_method	'EQeq! by Chris Wilmer'
_symmetry_space_group_name_H-M	'P1'
_symmetry_Int_Tables_number	1
_symmetry_cell_setting	triclinic
loop_
_symmetry_equiv_pos_as_xyz
  x,y,z
_cell_length_a	18.3672
_cell_length_b	18.5625
_cell_length_c	49.0712
_cell_angle_alpha	90
_cell_angle_beta	90
_cell_angle_gamma	90
loop_
_atom_site_label
_atom_site_type_symbol
_atom_site_fract_x
_atom_site_fract_y
_atom_site_fract_z
_atom_site_charge
Mof_Tb	Tb	0.20036	0.42011	0.87835	2.441
Mof_Tb	Tb	0.35899	0.59927	0.87768	2.53
Mof_Tb	Tb	0.80392	0.51883	0.87577	2.298
Mof_Tb	Tb	0.70036	0.57989	0.62165	2.441
Mof_Tb	Tb	0.85899	0.40073	0.62232	2.529
Mof_Tb	Tb	0.30392	0.48117	0.62423	2.298
Mof_Tb	Tb	0.29964	0.92011	0.12165	2.436
Mof_Tb	Tb	0.14101	0.09927	0.12232	2.528
Mof_Tb	Tb	0.69608	0.01883	0.12423	2.293
Mof_Tb	Tb	0.79964	0.07989	0.37835	2.435
Mof_Tb	Tb	0.64101	0.90073	0.37768	2.53
Mof_Tb	Tb	0.19608	0.98117	0.37577	2.291
Mof_Tb	Tb	0.79964	0.57989	0.12165	2.441
Mof_Tb	Tb	0.64101	0.40073	0.12232	2.53
Mof_Tb	Tb	0.19608	0.48117	0.12423	2.298
Mof_Tb	Tb	0.29964	0.42011	0.37835	2.441
Mof_Tb	Tb	0.14101	0.59927	0.37768	2.529
Mof_Tb	Tb	0.69608	0.51883	0.37577	2.298
Mof_Tb	Tb	0.70036	0.07989	0.87835	2.436
Mof_Tb	Tb	0.85899	0.90073	0.87768	2.528
Mof_Tb	Tb	0.30392	0.98117	0.87577	2.293
Mof_Tb	Tb	0.20036	0.92011	0.62165	2.435
Mof_Tb	Tb	0.35899	0.09927	0.62232	2.53
Mof_Tb	Tb	0.80392	0.01883	0.62423	2.291
Mof_Co	Co	0.03718	0.61769	0.7466	1.148
Mof_Co	Co	0.11316	0.74806	0.00195	1.157
Mof_Co	Co	0.53718	0.38231	0.7534	1.151
Mof_Co	Co	0.61316	0.25194	0.49805	1.158
Mof_Co	Co	0.46282	0.11769	0.2534	1.151
Mof_Co	Co	0.38684	0.24806	0.99805	1.158
Mof_Co	Co	0.96282	0.88231	0.2466	1.151
Mof_Co	Co	0.88684	0.75194	0.50195	1.159
Mof_Co	Co	0.96282	0.38231	0.2534	1.149
Mof_Co	Co	0.88684	0.25194	0.99805	1.158
Mof_Co	Co	0.46282	0.61769	0.2466	1.152
Mof_Co	Co	0.38684	0.74806	0.50195	1.159
Mof_Co	Co	0.53718	0.88231	0.7466	1.152
Mof_Co	Co	0.61316	0.75194	0.00195	1.159
Mof_Co	Co	0.03718	0.11769	0.7534	1.151
Mof_Co	Co	0.11316	0.24806	0.49805	1.159
Mof_H 	H 	0.4624	0.2272	0.0553	0
Mof_H 	H 	0.6261	0.3695	0.0568	-0.008
Mof_H 	H 	0.5856	0.4133	0.0154	0.112
Mof_H 	H 	0.5398	0.4521	0.9766	0.108
Mof_H 	H 	0.4776	0.4915	0.9381	-0.025
Mof_H 	H 	0.331	0.3352	0.9494	-0.02
Mof_H 	H 	0.4667	0.4589	0.8038	-0.006
Mof_H 	H 	0.3102	0.3257	0.8295	0.014
Mof_H 	H 	0.3375	0.2491	0.7933	0.094
Mof_H 	H 	0.3478	0.1994	0.7541	0.091
Mof_H 	H 	0.3621	0.1508	0.7108	0.035
Mof_H 	H 	0.5219	0.2955	0.6983	-0.001
Mof_H 	H 	0.11	0.5497	0.7985	-0.007
Mof_H 	H 	0.2502	0.6983	0.8254	-0.009
Mof_H 	H 	0.2289	0.7655	0.7854	0.093
Mof_H 	H 	0.2138	0.813	0.7461	0.097
Mof_H 	H 	0.1881	0.8606	0.7034	0.017
Mof_H 	H 	0.0462	0.7027	0.6914	-0.004
Mof_H 	H 	0.2076	0.6778	0.9564	-0.011
Mof_H 	H 	0.0824	0.5205	0.9268	-0.011
Mof_H 	H 	0.003	0.5385	0.9628	0.091
Mof_H 	H 	0.936	0.559	0.9992	0.089
Mof_H 	H 	0.8732	0.5847	0.0393	0.026
Mof_H 	H 	0.0122	0.7462	0.0524	-0.006
Mof_H 	H 	0.1413	0.5866	0.6981	0.009
Mof_H 	H 	0.1332	0.3744	0.6855	0.035
Mof_H 	H 	0.0626	0.3638	0.7245	0.079
Mof_H 	H 	0.0141	0.3626	0.7665	0.065
Mof_H 	H 	0.9458	0.3713	0.8064	0.045
Mof_H 	H 	0.9373	0.5847	0.7952	0.017
Mof_H 	H 	0.8662	0.3383	0.9449	0.005
Mof_H 	H 	0.6522	0.3641	0.9361	0.042
Mof_H 	H 	0.6349	0.2952	0.9748	0.074
Mof_H 	H 	0.6279	0.2204	0.0105	0.083
Mof_H 	H 	0.6333	0.1409	0.0473	0.025
Mof_H 	H 	0.8499	0.1462	0.043	-0.004
Mof_H 	H 	0.2833	0.3127	0.8883	0.332
Mof_H 	H 	0.5158	0.6283	0.8742	0.454
Mof_H 	H 	0.8534	0.6715	0.8751	0.403
Mof_H 	H 	0.9277	0.5389	0.9037	0.369
Mof_H 	H 	0.2167	0.284	0.8818	0.328
Mof_H 	H 	0.51	0.5731	0.8936	0.451
Mof_H 	H 	0.7779	0.6774	0.8791	0.358
Mof_H 	H 	0.9495	0.5259	0.8771	0.359
Mof_H 	H 	0.0767	0.4419	0.8951	0.266
Mof_H 	H 	0.0711	0.4352	0.867	0.26
Mof_H 	H 	0.9624	0.7728	0.4447	0
Mof_H 	H 	0.1261	0.6305	0.4432	-0.008
Mof_H 	H 	0.0856	0.5867	0.4846	0.111
Mof_H 	H 	0.0398	0.5479	0.5234	0.107
Mof_H 	H 	0.9776	0.5085	0.5619	-0.023
Mof_H 	H 	0.831	0.6648	0.5506	-0.02
Mof_H 	H 	0.9667	0.5411	0.6962	-0.004
Mof_H 	H 	0.8102	0.6743	0.6705	0.015
Mof_H 	H 	0.8375	0.7509	0.7067	0.094
Mof_H 	H 	0.8478	0.8006	0.7459	0.092
Mof_H 	H 	0.8621	0.8492	0.7892	0.033
Mof_H 	H 	0.0219	0.7045	0.8017	-0.011
Mof_H 	H 	0.61	0.4503	0.7015	-0.006
Mof_H 	H 	0.7502	0.3017	0.6746	-0.009
Mof_H 	H 	0.7289	0.2345	0.7146	0.093
Mof_H 	H 	0.7138	0.187	0.7539	0.097
Mof_H 	H 	0.6881	0.1394	0.7966	0.017
Mof_H 	H 	0.5462	0.2973	0.8086	-0.002
Mof_H 	H 	0.7076	0.3222	0.5436	-0.011
Mof_H 	H 	0.5824	0.4795	0.5732	-0.011
Mof_H 	H 	0.503	0.4615	0.5372	0.091
Mof_H 	H 	0.436	0.441	0.5008	0.089
Mof_H 	H 	0.3732	0.4153	0.4607	0.026
Mof_H 	H 	0.5122	0.2538	0.4476	-0.005
Mof_H 	H 	0.6413	0.4134	0.8019	0.01
Mof_H 	H 	0.6332	0.6256	0.8145	0.035
Mof_H 	H 	0.5626	0.6362	0.7755	0.078
Mof_H 	H 	0.5141	0.6374	0.7335	0.076
Mof_H 	H 	0.4458	0.6287	0.6936	0.04
Mof_H 	H 	0.4373	0.4153	0.7048	0.015
Mof_H 	H 	0.3662	0.6617	0.5551	0.005
Mof_H 	H 	0.1522	0.6359	0.5639	0.042
Mof_H 	H 	0.1349	0.7048	0.5252	0.074
Mof_H 	H 	0.1279	0.7796	0.4895	0.083
Mof_H 	H 	0.1333	0.8591	0.4527	0.025
Mof_H 	H 	0.3499	0.8538	0.457	-0.003
Mof_H 	H 	0.7833	0.6873	0.6117	0.332
Mof_H 	H 	0.0158	0.3717	0.6258	0.45
Mof_H 	H 	0.3534	0.3285	0.6249	0.402
Mof_H 	H 	0.4277	0.4611	0.5963	0.368
Mof_H 	H 	0.7167	0.716	0.6182	0.328
Mof_H 	H 	0.01	0.4269	0.6064	0.447
Mof_H 	H 	0.2779	0.3226	0.6209	0.358
Mof_H 	H 	0.4495	0.4741	0.6229	0.358
Mof_H 	H 	0.5767	0.5581	0.6049	0.266
Mof_H 	H 	0.5711	0.5648	0.633	0.26
Mof_H 	H 	0.0376	0.7272	0.9447	0.002
Mof_H 	H 	0.8739	0.8695	0.9432	-0.007
Mof_H 	H 	0.9144	0.9133	0.9846	0.113
Mof_H 	H 	0.9602	0.9521	0.0234	0.114
Mof_H 	H 	0.0224	0.9915	0.0619	-0.027
Mof_H 	H 	0.169	0.8352	0.0506	-0.02
Mof_H 	H 	0.0333	0.9589	0.1962	-0.005
Mof_H 	H 	0.1898	0.8257	0.1705	0.015
Mof_H 	H 	0.1625	0.7491	0.2067	0.094
Mof_H 	H 	0.1522	0.6994	0.2459	0.091
Mof_H 	H 	0.1379	0.6508	0.2892	0.035
Mof_H 	H 	0.9781	0.7955	0.3017	-0.003
Mof_H 	H 	0.39	0.0497	0.2015	-0.006
Mof_H 	H 	0.2498	0.1983	0.1746	-0.009
Mof_H 	H 	0.2711	0.2655	0.2146	0.093
Mof_H 	H 	0.2862	0.313	0.2539	0.097
Mof_H 	H 	0.3119	0.3606	0.2966	0.017
Mof_H 	H 	0.4538	0.2027	0.3086	-0.002
Mof_H 	H 	0.2924	0.1778	0.0436	-0.01
Mof_H 	H 	0.4176	0.0205	0.0732	-0.01
Mof_H 	H 	0.497	0.0385	0.0372	0.091
Mof_H 	H 	0.564	0.059	0.0008	0.089
Mof_H 	H 	0.6268	0.0847	0.9607	0.025
Mof_H 	H 	0.4878	0.2462	0.9476	-0.005
Mof_H 	H 	0.3587	0.0866	0.3019	0.009
Mof_H 	H 	0.3668	0.8744	0.3145	0.035
Mof_H 	H 	0.4374	0.8638	0.2755	0.078
Mof_H 	H 	0.4859	0.8626	0.2335	0.076
Mof_H 	H 	0.5542	0.8713	0.1936	0.04
Mof_H 	H 	0.5627	0.0847	0.2048	0.015
Mof_H 	H 	0.6338	0.8383	0.0551	0.006
Mof_H 	H 	0.8478	0.8641	0.0639	0.043
Mof_H 	H 	0.8651	0.7952	0.0252	0.075
Mof_H 	H 	0.8721	0.7204	0.9895	0.083
Mof_H 	H 	0.8667	0.6409	0.9527	0.025
Mof_H 	H 	0.6501	0.6462	0.957	-0.003
Mof_H 	H 	0.2167	0.8127	0.1117	0.332
Mof_H 	H 	0.9842	0.1283	0.1258	0.44
Mof_H 	H 	0.6466	0.1715	0.1249	0.402
Mof_H 	H 	0.5723	0.0389	0.0963	0.368
Mof_H 	H 	0.2833	0.784	0.1182	0.328
Mof_H 	H 	0.99	0.0731	0.1064	0.436
Mof_H 	H 	0.7221	0.1774	0.1209	0.358
Mof_H 	H 	0.5505	0.0259	0.1229	0.358
Mof_H 	H 	0.4233	0.9419	0.1049	0.266
Mof_H 	H 	0.4289	0.9352	0.133	0.26
Mof_H 	H 	0.5376	0.2728	0.5553	0
Mof_H 	H 	0.3739	0.1305	0.5568	-0.008
Mof_H 	H 	0.4144	0.0867	0.5154	0.112
Mof_H 	H 	0.4602	0.0479	0.4766	0.109
Mof_H 	H 	0.5224	0.0085	0.4381	-0.024
Mof_H 	H 	0.669	0.1648	0.4494	-0.02
Mof_H 	H 	0.5333	0.0411	0.3038	-0.006
Mof_H 	H 	0.6898	0.1743	0.3295	0.015
Mof_H 	H 	0.6625	0.2509	0.2933	0.094
Mof_H 	H 	0.6522	0.3006	0.2541	0.091
Mof_H 	H 	0.6379	0.3492	0.2108	0.035
Mof_H 	H 	0.4781	0.2045	0.1983	-0.001
Mof_H 	H 	0.89	0.9503	0.2985	-0.005
Mof_H 	H 	0.7498	0.8017	0.3254	-0.009
Mof_H 	H 	0.7711	0.7345	0.2854	0.093
Mof_H 	H 	0.7862	0.687	0.2461	0.097
Mof_H 	H 	0.8119	0.6394	0.2034	0.017
Mof_H 	H 	0.9538	0.7973	0.1914	-0.003
Mof_H 	H 	0.7924	0.8222	0.4564	-0.01
Mof_H 	H 	0.9176	0.9795	0.4268	-0.009
Mof_H 	H 	0.997	0.9615	0.4628	0.092
Mof_H 	H 	0.064	0.941	0.4992	0.09
Mof_H 	H 	0.1268	0.9153	0.5393	0.025
Mof_H 	H 	0.9878	0.7538	0.5524	0.003
Mof_H 	H 	0.8587	0.9134	0.1981	0.008
Mof_H 	H 	0.8668	0.1256	0.1855	0.033
Mof_H 	H 	0.9374	0.1362	0.2245	0.08
Mof_H 	H 	0.9859	0.1374	0.2665	0.051
Mof_H 	H 	0.0542	0.1287	0.3064	0.053
Mof_H 	H 	0.0627	0.9153	0.2952	0.02
Mof_H 	H 	0.1338	0.1617	0.4449	0.007
Mof_H 	H 	0.3478	0.1359	0.4361	0.043
Mof_H 	H 	0.3651	0.2048	0.4748	0.074
Mof_H 	H 	0.3721	0.2796	0.5105	0.083
Mof_H 	H 	0.3667	0.3591	0.5473	0.025
Mof_H 	H 	0.1501	0.3538	0.543	-0.003
Mof_H 	H 	0.7167	0.1873	0.3883	0.332
Mof_H 	H 	0.4842	0.8717	0.3742	0.454
Mof_H 	H 	0.1466	0.8285	0.3751	0.402
Mof_H 	H 	0.0723	0.9611	0.4037	0.367
Mof_H 	H 	0.7833	0.216	0.3818	0.328
Mof_H 	H 	0.49	0.9269	0.3936	0.451
Mof_H 	H 	0.2221	0.8226	0.3791	0.358
Mof_H 	H 	0.0505	0.9741	0.3771	0.357
Mof_H 	H 	0.9233	0.0581	0.3951	0.265
Mof_H 	H 	0.9289	0.0648	0.367	0.26
Mof_H 	H 	0.5376	0.7728	0.9447	0
Mof_H 	H 	0.3739	0.6305	0.9432	-0.008
Mof_H 	H 	0.4144	0.5867	0.9846	0.112
Mof_H 	H 	0.4602	0.5479	0.0234	0.108
Mof_H 	H 	0.5224	0.5085	0.0619	-0.025
Mof_H 	H 	0.669	0.6648	0.0506	-0.02
Mof_H 	H 	0.5333	0.5411	0.1962	-0.006
Mof_H 	H 	0.6898	0.6743	0.1705	0.014
Mof_H 	H 	0.6625	0.7509	0.2067	0.094
Mof_H 	H 	0.6522	0.8006	0.2459	0.091
Mof_H 	H 	0.6379	0.8492	0.2892	0.035
Mof_H 	H 	0.4781	0.7045	0.3017	-0.001
Mof_H 	H 	0.89	0.4503	0.2015	-0.007
Mof_H 	H 	0.7498	0.3017	0.1746	-0.009
Mof_H 	H 	0.7711	0.2345	0.2146	0.093
Mof_H 	H 	0.7862	0.187	0.2539	0.097
Mof_H 	H 	0.8119	0.1394	0.2966	0.017
Mof_H 	H 	0.9538	0.2973	0.3086	-0.004
Mof_H 	H 	0.7924	0.3222	0.0436	-0.011
Mof_H 	H 	0.9176	0.4795	0.0732	-0.011
Mof_H 	H 	0.997	0.4615	0.0372	0.091
Mof_H 	H 	0.064	0.441	0.0008	0.089
Mof_H 	H 	0.1268	0.4153	0.9607	0.026
Mof_H 	H 	0.9878	0.2538	0.9476	-0.006
Mof_H 	H 	0.8587	0.4134	0.3019	0.009
Mof_H 	H 	0.8668	0.6256	0.3145	0.035
Mof_H 	H 	0.9374	0.6362	0.2755	0.079
Mof_H 	H 	0.9859	0.6374	0.2335	0.065
Mof_H 	H 	0.0542	0.6287	0.1936	0.045
Mof_H 	H 	0.0627	0.4153	0.2048	0.017
Mof_H 	H 	0.1338	0.6617	0.0551	0.005
Mof_H 	H 	0.3478	0.6359	0.0639	0.042
Mof_H 	H 	0.3651	0.7048	0.0252	0.074
Mof_H 	H 	0.3721	0.7796	0.9895	0.083
Mof_H 	H 	0.3667	0.8591	0.9527	0.025
Mof_H 	H 	0.1501	0.8538	0.957	-0.004
Mof_H 	H 	0.7167	0.6873	0.1117	0.332
Mof_H 	H 	0.4842	0.3717	0.1258	0.454
Mof_H 	H 	0.1466	0.3285	0.1249	0.403
Mof_H 	H 	0.0723	0.4611	0.0963	0.369
Mof_H 	H 	0.7833	0.716	0.1182	0.328
Mof_H 	H 	0.49	0.4269	0.1064	0.451
Mof_H 	H 	0.2221	0.3226	0.1209	0.358
Mof_H 	H 	0.0505	0.4741	0.1229	0.359
Mof_H 	H 	0.9233	0.5581	0.1049	0.266
Mof_H 	H 	0.9289	0.5648	0.133	0.26
Mof_H 	H 	0.0376	0.2272	0.5553	0
Mof_H 	H 	0.8739	0.3695	0.5568	-0.008
Mof_H 	H 	0.9144	0.4133	0.5154	0.111
Mof_H 	H 	0.9602	0.4521	0.4766	0.107
Mof_H 	H 	0.0224	0.4915	0.4381	-0.023
Mof_H 	H 	0.169	0.3352	0.4494	-0.02
Mof_H 	H 	0.0333	0.4589	0.3038	-0.004
Mof_H 	H 	0.1898	0.3257	0.3295	0.015
Mof_H 	H 	0.1625	0.2491	0.2933	0.094
Mof_H 	H 	0.1522	0.1994	0.2541	0.092
Mof_H 	H 	0.1379	0.1508	0.2108	0.033
Mof_H 	H 	0.9781	0.2955	0.1983	-0.011
Mof_H 	H 	0.39	0.5497	0.2985	-0.006
Mof_H 	H 	0.2498	0.6983	0.3254	-0.009
Mof_H 	H 	0.2711	0.7655	0.2854	0.093
Mof_H 	H 	0.2862	0.813	0.2461	0.097
Mof_H 	H 	0.3119	0.8606	0.2034	0.017
Mof_H 	H 	0.4538	0.7027	0.1914	-0.002
Mof_H 	H 	0.2924	0.6778	0.4564	-0.011
Mof_H 	H 	0.4176	0.5205	0.4268	-0.011
Mof_H 	H 	0.497	0.5385	0.4628	0.091
Mof_H 	H 	0.564	0.559	0.4992	0.089
Mof_H 	H 	0.6268	0.5847	0.5393	0.026
Mof_H 	H 	0.4878	0.7462	0.5524	-0.005
Mof_H 	H 	0.3587	0.5866	0.1981	0.01
Mof_H 	H 	0.3668	0.3744	0.1855	0.035
Mof_H 	H 	0.4374	0.3638	0.2245	0.078
Mof_H 	H 	0.4859	0.3626	0.2665	0.076
Mof_H 	H 	0.5542	0.3713	0.3064	0.04
Mof_H 	H 	0.5627	0.5847	0.2952	0.015
Mof_H 	H 	0.6338	0.3383	0.4449	0.005
Mof_H 	H 	0.8478	0.3641	0.4361	0.042
Mof_H 	H 	0.8651	0.2952	0.4748	0.074
Mof_H 	H 	0.8721	0.2204	0.5105	0.083
Mof_H 	H 	0.8667	0.1409	0.5473	0.025
Mof_H 	H 	0.6501	0.1462	0.543	-0.003
Mof_H 	H 	0.2167	0.3127	0.3883	0.332
Mof_H 	H 	0.9842	0.6283	0.3742	0.45
Mof_H 	H 	0.6466	0.6715	0.3751	0.402
Mof_H 	H 	0.5723	0.5389	0.4037	0.368
Mof_H 	H 	0.2833	0.284	0.3818	0.328
Mof_H 	H 	0.99	0.5731	0.3936	0.447
Mof_H 	H 	0.7221	0.6774	0.3791	0.358
Mof_H 	H 	0.5505	0.5259	0.3771	0.358
Mof_H 	H 	0.4233	0.4419	0.3951	0.266
Mof_H 	H 	0.4289	0.4352	0.367	0.26
Mof_H 	H 	0.9624	0.2728	0.0553	0.002
Mof_H 	H 	0.1261	0.1305	0.0568	-0.007
Mof_H 	H 	0.0856	0.0867	0.0154	0.113
Mof_H 	H 	0.0398	0.0479	0.9766	0.114
Mof_H 	H 	0.9776	0.0085	0.9381	-0.027
Mof_H 	H 	0.831	0.1648	0.9494	-0.02
Mof_H 	H 	0.9667	0.0411	0.8038	-0.005
Mof_H 	H 	0.8102	0.1743	0.8295	0.015
Mof_H 	H 	0.8375	0.2509	0.7933	0.094
Mof_H 	H 	0.8478	0.3006	0.7541	0.091
Mof_H 	H 	0.8621	0.3492	0.7108	0.035
Mof_H 	H 	0.0219	0.2045	0.6983	-0.003
Mof_H 	H 	0.61	0.9503	0.7985	-0.006
Mof_H 	H 	0.7502	0.8017	0.8254	-0.009
Mof_H 	H 	0.7289	0.7345	0.7854	0.093
Mof_H 	H 	0.7138	0.687	0.7461	0.097
Mof_H 	H 	0.6881	0.6394	0.7034	0.017
Mof_H 	H 	0.5462	0.7973	0.6914	-0.002
Mof_H 	H 	0.7076	0.8222	0.9564	-0.01
Mof_H 	H 	0.5824	0.9795	0.9268	-0.01
Mof_H 	H 	0.503	0.9615	0.9628	0.091
Mof_H 	H 	0.436	0.941	0.9992	0.089
Mof_H 	H 	0.3732	0.9153	0.0393	0.025
Mof_H 	H 	0.5122	0.7538	0.0524	-0.005
Mof_H 	H 	0.6413	0.9134	0.6981	0.009
Mof_H 	H 	0.6332	0.1256	0.6855	0.035
Mof_H 	H 	0.5626	0.1362	0.7245	0.078
Mof_H 	H 	0.5141	0.1374	0.7665	0.076
Mof_H 	H 	0.4458	0.1287	0.8064	0.04
Mof_H 	H 	0.4373	0.9153	0.7952	0.015
Mof_H 	H 	0.3662	0.1617	0.9449	0.006
Mof_H 	H 	0.1522	0.1359	0.9361	0.043
Mof_H 	H 	0.1349	0.2048	0.9748	0.075
Mof_H 	H 	0.1279	0.2796	0.0105	0.083
Mof_H 	H 	0.1333	0.3591	0.0473	0.025
Mof_H 	H 	0.3499	0.3538	0.043	-0.003
Mof_H 	H 	0.7833	0.1873	0.8883	0.332
Mof_H 	H 	0.0158	0.8717	0.8742	0.44
Mof_H 	H 	0.3534	0.8285	0.8751	0.402
Mof_H 	H 	0.4277	0.9611	0.9037	0.368
Mof_H 	H 	0.7167	0.216	0.8818	0.328
Mof_H 	H 	0.01	0.9269	0.8936	0.436
Mof_H 	H 	0.2779	0.8226	0.8791	0.358
Mof_H 	H 	0.4495	0.9741	0.8771	0.358
Mof_H 	H 	0.5767	0.0581	0.8951	0.266
Mof_H 	H 	0.5711	0.0648	0.867	0.26
Mof_H 	H 	0.4624	0.7272	0.4447	0
Mof_H 	H 	0.6261	0.8695	0.4432	-0.008
Mof_H 	H 	0.5856	0.9133	0.4846	0.112
Mof_H 	H 	0.5398	0.9521	0.5234	0.109
Mof_H 	H 	0.4776	0.9915	0.5619	-0.024
Mof_H 	H 	0.331	0.8352	0.5506	-0.02
Mof_H 	H 	0.4667	0.9589	0.6962	-0.006
Mof_H 	H 	0.3102	0.8257	0.6705	0.015
Mof_H 	H 	0.3375	0.7491	0.7067	0.094
Mof_H 	H 	0.3478	0.6994	0.7459	0.091
Mof_H 	H 	0.3621	0.6508	0.7892	0.035
Mof_H 	H 	0.5219	0.7955	0.8017	-0.001
Mof_H 	H 	0.11	0.0497	0.7015	-0.005
Mof_H 	H 	0.2502	0.1983	0.6746	-0.009
Mof_H 	H 	0.2289	0.2655	0.7146	0.093
Mof_H 	H 	0.2138	0.313	0.7539	0.097
Mof_H 	H 	0.1881	0.3606	0.7966	0.017
Mof_H 	H 	0.0462	0.2027	0.8086	-0.003
Mof_H 	H 	0.2076	0.1778	0.5436	-0.01
Mof_H 	H 	0.0824	0.0205	0.5732	-0.009
Mof_H 	H 	0.003	0.0385	0.5372	0.092
Mof_H 	H 	0.936	0.059	0.5008	0.09
Mof_H 	H 	0.8732	0.0847	0.4607	0.025
Mof_H 	H 	0.0122	0.2462	0.4476	0.003
Mof_H 	H 	0.1413	0.0866	0.8019	0.008
Mof_H 	H 	0.1332	0.8744	0.8145	0.033
Mof_H 	H 	0.0626	0.8638	0.7755	0.08
Mof_H 	H 	0.0141	0.8626	0.7335	0.051
Mof_H 	H 	0.9458	0.8713	0.6936	0.053
Mof_H 	H 	0.9373	0.0847	0.7048	0.02
Mof_H 	H 	0.8662	0.8383	0.5551	0.007
Mof_H 	H 	0.6522	0.8641	0.5639	0.043
Mof_H 	H 	0.6349	0.7952	0.5252	0.074
Mof_H 	H 	0.6279	0.7204	0.4895	0.083
Mof_H 	H 	0.6333	0.6409	0.4527	0.025
Mof_H 	H 	0.8499	0.6462	0.457	-0.003
Mof_H 	H 	0.2833	0.8127	0.6117	0.332
Mof_H 	H 	0.5158	0.1283	0.6258	0.454
Mof_H 	H 	0.8534	0.1715	0.6249	0.402
Mof_H 	H 	0.9277	0.0389	0.5963	0.367
Mof_H 	H 	0.2167	0.784	0.6182	0.328
Mof_H 	H 	0.51	0.0731	0.6064	0.451
Mof_H 	H 	0.7779	0.1774	0.6209	0.358
Mof_H 	H 	0.9495	0.0259	0.6229	0.357
Mof_H 	H 	0.0767	0.9419	0.6049	0.265
Mof_H 	H 	0.0711	0.9352	0.633	0.26
Mof_C 	C 	0.5733	0.2563	0.08646	0.442
Mof_C 	C 	0.4876	0.2651	0.04726	0.109
Mof_C 	C 	0.5477	0.2923	0.0606	-0.192
Mof_C 	C 	0.5854	0.3495	0.0484	0.11
Mof_C 	C 	0.561	0.3755	0.0238	-0.16
Mof_C 	C 	0.5011	0.3466	0.01149	0.056
Mof_C 	C 	0.4696	0.3726	0.98592	0.081
Mof_C 	C 	0.4968	0.4298	0.9712	-0.18
Mof_C 	C 	0.4595	0.4536	0.94848	0.161
Mof_C 	C 	0.3958	0.4206	0.94149	-0.229
Mof_C 	C 	0.3723	0.3597	0.95531	0.159
Mof_C 	C 	0.35	0.447	0.91786	0.566
Mof_C 	C 	0.3626	0.456	0.8423	0.554
Mof_C 	C 	0.4389	0.4176	0.80125	0.14
Mof_C 	C 	0.3836	0.4019	0.8198	-0.193
Mof_C 	C 	0.3458	0.3383	0.8169	0.121
Mof_C 	C 	0.3609	0.2933	0.7951	-0.149
Mof_C 	C 	0.4113	0.3153	0.77622	0.071
Mof_C 	C 	0.4251	0.2754	0.75052	0.054
Mof_C 	C 	0.3824	0.2184	0.74227	-0.129
Mof_C 	C 	0.3907	0.1892	0.7166	0.076
Mof_C 	C 	0.4438	0.2197	0.69953	-0.158
Mof_C 	C 	0.4859	0.2764	0.70946	0.101
Mof_C 	C 	0.452	0.1924	0.6705	0.45
Mof_C 	C 	0.205	0.5688	0.8395	0.567
Mof_C 	C 	0.1342	0.5931	0.79586	0.147
Mof_C 	C 	0.1851	0.6153	0.8151	-0.209
Mof_C 	C 	0.2188	0.6811	0.8121	0.133
Mof_C 	C 	0.205	0.722	0.7884	-0.155
Mof_C 	C 	0.1554	0.6958	0.77	0.072
Mof_C 	C 	0.1428	0.7307	0.74342	0.059
Mof_C 	C 	0.1794	0.7913	0.7349	-0.149
Mof_C 	C 	0.1642	0.8193	0.7094	0.108
Mof_C 	C 	0.1146	0.7865	0.6932	-0.183
Mof_C 	C 	0.0792	0.7258	0.70277	0.115
Mof_C 	C 	0.0951	0.8143	0.665	0.467
Mof_C 	C 	0.2113	0.5808	0.91619	0.566
Mof_C 	C 	0.1659	0.6496	0.95751	0.151
Mof_C 	C 	0.1554	0.5965	0.93822	-0.213
Mof_C 	C 	0.0924	0.5553	0.9399	0.141
Mof_C 	C 	0.0447	0.5665	0.96125	-0.162
Mof_C 	C 	0.0589	0.6191	0.98028	0.072
Mof_C 	C 	0.0121	0.6348	0.00373	0.051
Mof_C 	C 	0.9518	0.596	0.01054	-0.135
Mof_C 	C 	0.9138	0.6117	0.0344	0.084
Mof_C 	C 	0.9369	0.6676	0.0508	-0.175
Mof_C 	C 	0.9966	0.7075	0.04187	0.111
Mof_C 	C 	0.8983	0.6865	0.0772	0.454
Mof_C 	C 	0.1932	0.4907	0.6634	0.351
Mof_C 	C 	0.1249	0.5414	0.7035	0.096
Mof_C 	C 	0.1451	0.4816	0.688	-0.113
Mof_C 	C 	0.1213	0.4149	0.6957	0.062
Mof_C 	C 	0.0792	0.4087	0.7189	-0.118
Mof_C 	C 	0.0622	0.4692	0.73359	0.068
Mof_C 	C 	0.017	0.4684	0.75895	0.048
Mof_C 	C 	0.9988	0.4073	0.7728	-0.085
Mof_C 	C 	0.9573	0.4124	0.7964	0.033
Mof_C 	C 	0.9338	0.4781	0.80463	-0.083
Mof_C 	C 	0.9535	0.5397	0.78951	0.076
Mof_C 	C 	0.8888	0.4899	0.8297	0.309
Mof_C 	C 	0.7764	0.4031	0.9112	0.363
Mof_C 	C 	0.8191	0.3292	0.95089	0.093
Mof_C 	C 	0.7618	0.3578	0.93605	-0.116
Mof_C 	C 	0.692	0.345	0.9453	0.059
Mof_C 	C 	0.6817	0.304	0.9683	-0.102
Mof_C 	C 	0.7428	0.2754	0.9819	0.055
Mof_C 	C 	0.7378	0.2278	0.0051	0.072
Mof_C 	C 	0.6725	0.2045	0.0171	-0.126
Mof_C 	C 	0.6758	0.1572	0.039	0.084
Mof_C 	C 	0.7413	0.1355	0.0481	-0.143
Mof_C 	C 	0.805	0.1609	0.0363	0.112
Mof_C 	C 	0.7389	0.0848	0.0732	0.452
Mof_C 	C 	0.0733	0.7437	0.41354	0.442
Mof_C 	C 	0.9876	0.7349	0.45274	0.11
Mof_C 	C 	0.0477	0.7077	0.4394	-0.192
Mof_C 	C 	0.0854	0.6505	0.4516	0.11
Mof_C 	C 	0.061	0.6245	0.4762	-0.159
Mof_C 	C 	0.0011	0.6534	0.48851	0.054
Mof_C 	C 	0.9696	0.6274	0.51408	0.082
Mof_C 	C 	0.9968	0.5702	0.5288	-0.177
Mof_C 	C 	0.9595	0.5464	0.55152	0.159
Mof_C 	C 	0.8958	0.5794	0.55851	-0.228
Mof_C 	C 	0.8723	0.6403	0.54469	0.159
Mof_C 	C 	0.85	0.553	0.58214	0.566
Mof_C 	C 	0.8626	0.544	0.6577	0.554
Mof_C 	C 	0.9389	0.5824	0.69875	0.141
Mof_C 	C 	0.8836	0.5981	0.6802	-0.192
Mof_C 	C 	0.8458	0.6617	0.6831	0.121
Mof_C 	C 	0.8609	0.7067	0.7049	-0.148
Mof_C 	C 	0.9113	0.6847	0.72378	0.071
Mof_C 	C 	0.9251	0.7246	0.74948	0.058
Mof_C 	C 	0.8824	0.7816	0.75773	-0.132
Mof_C 	C 	0.8907	0.8108	0.7834	0.082
Mof_C 	C 	0.9438	0.7803	0.80047	-0.166
Mof_C 	C 	0.9859	0.7236	0.79054	0.119
Mof_C 	C 	0.952	0.8076	0.8295	0.462
Mof_C 	C 	0.705	0.4312	0.6605	0.567
Mof_C 	C 	0.6342	0.4069	0.70414	0.147
Mof_C 	C 	0.6851	0.3847	0.6849	-0.209
Mof_C 	C 	0.7188	0.3189	0.6879	0.133
Mof_C 	C 	0.705	0.278	0.7116	-0.155
Mof_C 	C 	0.6554	0.3042	0.73	0.073
Mof_C 	C 	0.6428	0.2693	0.75658	0.06
Mof_C 	C 	0.6794	0.2087	0.7651	-0.148
Mof_C 	C 	0.6642	0.1807	0.7906	0.108
Mof_C 	C 	0.6146	0.2135	0.8068	-0.182
Mof_C 	C 	0.5792	0.2742	0.79723	0.115
Mof_C 	C 	0.5951	0.1857	0.835	0.467
Mof_C 	C 	0.7113	0.4192	0.58381	0.566
Mof_C 	C 	0.6659	0.3504	0.54249	0.151
Mof_C 	C 	0.6554	0.4035	0.56178	-0.213
Mof_C 	C 	0.5924	0.4447	0.5601	0.142
Mof_C 	C 	0.5447	0.4335	0.53875	-0.162
Mof_C 	C 	0.5589	0.3809	0.51972	0.071
Mof_C 	C 	0.5121	0.3652	0.49627	0.052
Mof_C 	C 	0.4518	0.404	0.48946	-0.136
Mof_C 	C 	0.4138	0.3883	0.4656	0.084
Mof_C 	C 	0.4369	0.3324	0.4492	-0.174
Mof_C 	C 	0.4966	0.2925	0.45813	0.108
Mof_C 	C 	0.3983	0.3135	0.4228	0.454
Mof_C 	C 	0.6932	0.5093	0.8366	0.35
Mof_C 	C 	0.6249	0.4586	0.7965	0.095
Mof_C 	C 	0.6451	0.5184	0.812	-0.112
Mof_C 	C 	0.6213	0.5851	0.8043	0.06
Mof_C 	C 	0.5792	0.5913	0.7811	-0.113
Mof_C 	C 	0.5622	0.5308	0.76641	0.063
Mof_C 	C 	0.517	0.5316	0.74105	0.064
Mof_C 	C 	0.4988	0.5927	0.7272	-0.108
Mof_C 	C 	0.4573	0.5876	0.7036	0.046
Mof_C 	C 	0.4338	0.5219	0.69537	-0.09
Mof_C 	C 	0.4535	0.4603	0.71049	0.079
Mof_C 	C 	0.3888	0.5101	0.6703	0.311
Mof_C 	C 	0.2764	0.5969	0.5888	0.363
Mof_C 	C 	0.3191	0.6708	0.54911	0.093
Mof_C 	C 	0.2618	0.6422	0.56395	-0.116
Mof_C 	C 	0.192	0.655	0.5547	0.059
Mof_C 	C 	0.1817	0.696	0.5317	-0.102
Mof_C 	C 	0.2428	0.7246	0.5181	0.055
Mof_C 	C 	0.2378	0.7722	0.4949	0.072
Mof_C 	C 	0.1725	0.7955	0.4829	-0.126
Mof_C 	C 	0.1758	0.8428	0.461	0.084
Mof_C 	C 	0.2413	0.8645	0.4519	-0.143
Mof_C 	C 	0.305	0.8391	0.4637	0.112
Mof_C 	C 	0.2389	0.9152	0.4268	0.452
Mof_C 	C 	0.9267	0.7563	0.91354	0.44
Mof_C 	C 	0.0124	0.7651	0.95274	0.101
Mof_C 	C 	0.9523	0.7923	0.9394	-0.185
Mof_C 	C 	0.9146	0.8495	0.9516	0.109
Mof_C 	C 	0.939	0.8755	0.9762	-0.16
Mof_C 	C 	0.9989	0.8466	0.98851	0.062
Mof_C 	C 	0.0304	0.8726	0.01408	0.08
Mof_C 	C 	0.0032	0.9298	0.0288	-0.189
Mof_C 	C 	0.0405	0.9536	0.05152	0.165
Mof_C 	C 	0.1042	0.9206	0.05851	-0.23
Mof_C 	C 	0.1277	0.8597	0.04469	0.159
Mof_C 	C 	0.15	0.947	0.08214	0.562
Mof_C 	C 	0.1374	0.956	0.1577	0.547
Mof_C 	C 	0.0611	0.9176	0.19875	0.139
Mof_C 	C 	0.1164	0.9019	0.1802	-0.191
Mof_C 	C 	0.1542	0.8383	0.1831	0.12
Mof_C 	C 	0.1391	0.7933	0.2049	-0.148
Mof_C 	C 	0.0887	0.8153	0.22378	0.071
Mof_C 	C 	0.0749	0.7754	0.24948	0.055
Mof_C 	C 	0.1176	0.7184	0.25773	-0.13
Mof_C 	C 	0.1093	0.6892	0.2834	0.077
Mof_C 	C 	0.0562	0.7197	0.30047	-0.16
Mof_C 	C 	0.0141	0.7764	0.29054	0.105
Mof_C 	C 	0.048	0.6924	0.3295	0.453
Mof_C 	C 	0.295	0.0688	0.1605	0.567
Mof_C 	C 	0.3658	0.0931	0.20414	0.147
Mof_C 	C 	0.3149	0.1153	0.1849	-0.209
Mof_C 	C 	0.2812	0.1811	0.1879	0.133
Mof_C 	C 	0.295	0.222	0.2116	-0.155
Mof_C 	C 	0.3446	0.1958	0.23	0.073
Mof_C 	C 	0.3572	0.2307	0.25658	0.06
Mof_C 	C 	0.3206	0.2913	0.2651	-0.148
Mof_C 	C 	0.3358	0.3193	0.2906	0.108
Mof_C 	C 	0.3854	0.2865	0.3068	-0.182
Mof_C 	C 	0.4208	0.2258	0.29723	0.115
Mof_C 	C 	0.4049	0.3143	0.335	0.467
Mof_C 	C 	0.2887	0.0808	0.08381	0.565
Mof_C 	C 	0.3341	0.1496	0.04249	0.151
Mof_C 	C 	0.3446	0.0965	0.06178	-0.213
Mof_C 	C 	0.4076	0.0553	0.0601	0.142
Mof_C 	C 	0.4553	0.0665	0.03875	-0.161
Mof_C 	C 	0.4411	0.1191	0.01972	0.071
Mof_C 	C 	0.4879	0.1348	0.99627	0.052
Mof_C 	C 	0.5482	0.096	0.98946	-0.136
Mof_C 	C 	0.5862	0.1117	0.9656	0.084
Mof_C 	C 	0.5631	0.1676	0.9492	-0.174
Mof_C 	C 	0.5034	0.2075	0.95813	0.108
Mof_C 	C 	0.6017	0.1865	0.9228	0.453
Mof_C 	C 	0.3068	0.9907	0.3366	0.348
Mof_C 	C 	0.3751	0.0414	0.2965	0.097
Mof_C 	C 	0.3549	0.9816	0.312	-0.113
Mof_C 	C 	0.3787	0.9149	0.3043	0.061
Mof_C 	C 	0.4208	0.9087	0.2811	-0.114
Mof_C 	C 	0.4378	0.9692	0.26641	0.063
Mof_C 	C 	0.483	0.9684	0.24105	0.064
Mof_C 	C 	0.5012	0.9073	0.2272	-0.108
Mof_C 	C 	0.5427	0.9124	0.2036	0.046
Mof_C 	C 	0.5662	0.9781	0.19537	-0.09
Mof_C 	C 	0.5465	0.0397	0.21049	0.079
Mof_C 	C 	0.6112	0.9899	0.1703	0.312
Mof_C 	C 	0.7236	0.9031	0.0888	0.363
Mof_C 	C 	0.6809	0.8292	0.04911	0.093
Mof_C 	C 	0.7382	0.8578	0.06395	-0.115
Mof_C 	C 	0.808	0.845	0.0547	0.059
Mof_C 	C 	0.8183	0.804	0.0317	-0.101
Mof_C 	C 	0.7572	0.7754	0.0181	0.055
Mof_C 	C 	0.7622	0.7278	0.9949	0.072
Mof_C 	C 	0.8275	0.7045	0.9829	-0.126
Mof_C 	C 	0.8242	0.6572	0.961	0.083
Mof_C 	C 	0.7587	0.6355	0.9519	-0.143
Mof_C 	C 	0.695	0.6609	0.9637	0.112
Mof_C 	C 	0.7611	0.5848	0.9268	0.452
Mof_C 	C 	0.4267	0.2437	0.58646	0.442
Mof_C 	C 	0.5124	0.2349	0.54726	0.109
Mof_C 	C 	0.4523	0.2077	0.5606	-0.192
Mof_C 	C 	0.4146	0.1505	0.5484	0.11
Mof_C 	C 	0.439	0.1245	0.5238	-0.16
Mof_C 	C 	0.4989	0.1534	0.51149	0.056
Mof_C 	C 	0.5304	0.1274	0.48592	0.081
Mof_C 	C 	0.5032	0.0702	0.4712	-0.18
Mof_C 	C 	0.5405	0.0464	0.44848	0.16
Mof_C 	C 	0.6042	0.0794	0.44149	-0.228
Mof_C 	C 	0.6277	0.1403	0.45531	0.159
Mof_C 	C 	0.65	0.053	0.41786	0.564
Mof_C 	C 	0.6374	0.044	0.3423	0.552
Mof_C 	C 	0.5611	0.0824	0.30125	0.14
Mof_C 	C 	0.6164	0.0981	0.3198	-0.193
Mof_C 	C 	0.6542	0.1617	0.3169	0.121
Mof_C 	C 	0.6391	0.2067	0.2951	-0.148
Mof_C 	C 	0.5887	0.1847	0.27622	0.071
Mof_C 	C 	0.5749	0.2246	0.25052	0.054
Mof_C 	C 	0.6176	0.2816	0.24227	-0.129
Mof_C 	C 	0.6093	0.3108	0.2166	0.076
Mof_C 	C 	0.5562	0.2803	0.19953	-0.158
Mof_C 	C 	0.5141	0.2236	0.20946	0.101
Mof_C 	C 	0.548	0.3076	0.1705	0.45
Mof_C 	C 	0.795	0.9312	0.3395	0.567
Mof_C 	C 	0.8658	0.9069	0.29586	0.147
Mof_C 	C 	0.8149	0.8847	0.3151	-0.208
Mof_C 	C 	0.7812	0.8189	0.3121	0.133
Mof_C 	C 	0.795	0.778	0.2884	-0.155
Mof_C 	C 	0.8446	0.8042	0.27	0.073
Mof_C 	C 	0.8572	0.7693	0.24342	0.06
Mof_C 	C 	0.8206	0.7087	0.2349	-0.149
Mof_C 	C 	0.8358	0.6807	0.2094	0.108
Mof_C 	C 	0.8854	0.7135	0.1932	-0.182
Mof_C 	C 	0.9208	0.7742	0.20277	0.115
Mof_C 	C 	0.9049	0.6857	0.165	0.467
Mof_C 	C 	0.7887	0.9192	0.41619	0.565
Mof_C 	C 	0.8341	0.8504	0.45751	0.15
Mof_C 	C 	0.8446	0.9035	0.43822	-0.212
Mof_C 	C 	0.9076	0.9447	0.4399	0.141
Mof_C 	C 	0.9553	0.9335	0.46125	-0.159
Mof_C 	C 	0.9411	0.8809	0.48028	0.07
Mof_C 	C 	0.9879	0.8652	0.50373	0.058
Mof_C 	C 	0.0482	0.904	0.51054	-0.143
Mof_C 	C 	0.0862	0.8883	0.5344	0.084
Mof_C 	C 	0.0631	0.8324	0.5508	-0.172
Mof_C 	C 	0.0034	0.7925	0.54187	0.094
Mof_C 	C 	0.1017	0.8135	0.5772	0.452
Mof_C 	C 	0.8068	0.0093	0.1634	0.349
Mof_C 	C 	0.8751	0.9586	0.2035	0.102
Mof_C 	C 	0.8549	0.0184	0.188	-0.119
Mof_C 	C 	0.8787	0.0851	0.1957	0.066
Mof_C 	C 	0.9208	0.0913	0.2189	-0.122
Mof_C 	C 	0.9378	0.0308	0.23359	0.07
Mof_C 	C 	0.983	0.0316	0.25895	0.032
Mof_C 	C 	0.0012	0.0927	0.2728	-0.053
Mof_C 	C 	0.0427	0.0876	0.2964	0.013
Mof_C 	C 	0.0662	0.0219	0.30463	-0.068
Mof_C 	C 	0.0465	0.9603	0.28951	0.064
Mof_C 	C 	0.1112	0.0101	0.3297	0.309
Mof_C 	C 	0.2236	0.0969	0.4112	0.363
Mof_C 	C 	0.1809	0.1708	0.45089	0.092
Mof_C 	C 	0.2382	0.1422	0.43605	-0.115
Mof_C 	C 	0.308	0.155	0.4453	0.058
Mof_C 	C 	0.3183	0.196	0.4683	-0.101
Mof_C 	C 	0.2572	0.2246	0.4819	0.055
Mof_C 	C 	0.2622	0.2722	0.5051	0.072
Mof_C 	C 	0.3275	0.2955	0.5171	-0.126
Mof_C 	C 	0.3242	0.3428	0.539	0.083
Mof_C 	C 	0.2587	0.3645	0.5481	-0.143
Mof_C 	C 	0.195	0.3391	0.5363	0.112
Mof_C 	C 	0.2611	0.4152	0.5732	0.452
Mof_C 	C 	0.4267	0.7437	0.91354	0.442
Mof_C 	C 	0.5124	0.7349	0.95274	0.109
Mof_C 	C 	0.4523	0.7077	0.9394	-0.192
Mof_C 	C 	0.4146	0.6505	0.9516	0.11
Mof_C 	C 	0.439	0.6245	0.9762	-0.16
Mof_C 	C 	0.4989	0.6534	0.98851	0.056
Mof_C 	C 	0.5304	0.6274	0.01408	0.081
Mof_C 	C 	0.5032	0.5702	0.0288	-0.18
Mof_C 	C 	0.5405	0.5464	0.05152	0.161
Mof_C 	C 	0.6042	0.5794	0.05851	-0.229
Mof_C 	C 	0.6277	0.6403	0.04469	0.159
Mof_C 	C 	0.65	0.553	0.08214	0.566
Mof_C 	C 	0.6374	0.544	0.1577	0.554
Mof_C 	C 	0.5611	0.5824	0.19875	0.14
Mof_C 	C 	0.6164	0.5981	0.1802	-0.193
Mof_C 	C 	0.6542	0.6617	0.1831	0.121
Mof_C 	C 	0.6391	0.7067	0.2049	-0.149
Mof_C 	C 	0.5887	0.6847	0.22378	0.071
Mof_C 	C 	0.5749	0.7246	0.24948	0.054
Mof_C 	C 	0.6176	0.7816	0.25773	-0.129
Mof_C 	C 	0.6093	0.8108	0.2834	0.076
Mof_C 	C 	0.5562	0.7803	0.30047	-0.158
Mof_C 	C 	0.5141	0.7236	0.29054	0.101
Mof_C 	C 	0.548	0.8076	0.3295	0.45
Mof_C 	C 	0.795	0.4312	0.1605	0.567
Mof_C 	C 	0.8658	0.4069	0.20414	0.147
Mof_C 	C 	0.8149	0.3847	0.1849	-0.209
Mof_C 	C 	0.7812	0.3189	0.1879	0.133
Mof_C 	C 	0.795	0.278	0.2116	-0.155
Mof_C 	C 	0.8446	0.3042	0.23	0.072
Mof_C 	C 	0.8572	0.2693	0.25658	0.059
Mof_C 	C 	0.8206	0.2087	0.2651	-0.149
Mof_C 	C 	0.8358	0.1807	0.2906	0.108
Mof_C 	C 	0.8854	0.2135	0.3068	-0.183
Mof_C 	C 	0.9208	0.2742	0.29723	0.115
Mof_C 	C 	0.9049	0.1857	0.335	0.467
Mof_C 	C 	0.7887	0.4192	0.08381	0.566
Mof_C 	C 	0.8341	0.3504	0.04249	0.151
Mof_C 	C 	0.8446	0.4035	0.06178	-0.213
Mof_C 	C 	0.9076	0.4447	0.0601	0.141
Mof_C 	C 	0.9553	0.4335	0.03875	-0.162
Mof_C 	C 	0.9411	0.3809	0.01972	0.072
Mof_C 	C 	0.9879	0.3652	0.99627	0.051
Mof_C 	C 	0.0482	0.404	0.98946	-0.135
Mof_C 	C 	0.0862	0.3883	0.9656	0.084
Mof_C 	C 	0.0631	0.3324	0.9492	-0.175
Mof_C 	C 	0.0034	0.2925	0.95813	0.111
Mof_C 	C 	0.1017	0.3135	0.9228	0.454
Mof_C 	C 	0.8068	0.5093	0.3366	0.351
Mof_C 	C 	0.8751	0.4586	0.2965	0.096
Mof_C 	C 	0.8549	0.5184	0.312	-0.113
Mof_C 	C 	0.8787	0.5851	0.3043	0.062
Mof_C 	C 	0.9208	0.5913	0.2811	-0.118
Mof_C 	C 	0.9378	0.5308	0.26641	0.068
Mof_C 	C 	0.983	0.5316	0.24105	0.048
Mof_C 	C 	0.0012	0.5927	0.2272	-0.085
Mof_C 	C 	0.0427	0.5876	0.2036	0.033
Mof_C 	C 	0.0662	0.5219	0.19537	-0.083
Mof_C 	C 	0.0465	0.4603	0.21049	0.076
Mof_C 	C 	0.1112	0.5101	0.1703	0.309
Mof_C 	C 	0.2236	0.5969	0.0888	0.363
Mof_C 	C 	0.1809	0.6708	0.04911	0.093
Mof_C 	C 	0.2382	0.6422	0.06395	-0.116
Mof_C 	C 	0.308	0.655	0.0547	0.059
Mof_C 	C 	0.3183	0.696	0.0317	-0.102
Mof_C 	C 	0.2572	0.7246	0.0181	0.055
Mof_C 	C 	0.2622	0.7722	0.9949	0.072
Mof_C 	C 	0.3275	0.7955	0.9829	-0.126
Mof_C 	C 	0.3242	0.8428	0.961	0.084
Mof_C 	C 	0.2587	0.8645	0.9519	-0.143
Mof_C 	C 	0.195	0.8391	0.9637	0.112
Mof_C 	C 	0.2611	0.9152	0.9268	0.452
Mof_C 	C 	0.9267	0.2563	0.58646	0.442
Mof_C 	C 	0.0124	0.2651	0.54726	0.11
Mof_C 	C 	0.9523	0.2923	0.5606	-0.192
Mof_C 	C 	0.9146	0.3495	0.5484	0.11
Mof_C 	C 	0.939	0.3755	0.5238	-0.159
Mof_C 	C 	0.9989	0.3466	0.51149	0.054
Mof_C 	C 	0.0304	0.3726	0.48592	0.082
Mof_C 	C 	0.0032	0.4298	0.4712	-0.177
Mof_C 	C 	0.0405	0.4536	0.44848	0.159
Mof_C 	C 	0.1042	0.4206	0.44149	-0.228
Mof_C 	C 	0.1277	0.3597	0.45531	0.159
Mof_C 	C 	0.15	0.447	0.41786	0.566
Mof_C 	C 	0.1374	0.456	0.3423	0.554
Mof_C 	C 	0.0611	0.4176	0.30125	0.141
Mof_C 	C 	0.1164	0.4019	0.3198	-0.192
Mof_C 	C 	0.1542	0.3383	0.3169	0.121
Mof_C 	C 	0.1391	0.2933	0.2951	-0.148
Mof_C 	C 	0.0887	0.3153	0.27622	0.071
Mof_C 	C 	0.0749	0.2754	0.25052	0.058
Mof_C 	C 	0.1176	0.2184	0.24227	-0.132
Mof_C 	C 	0.1093	0.1892	0.2166	0.082
Mof_C 	C 	0.0562	0.2197	0.19953	-0.166
Mof_C 	C 	0.0141	0.2764	0.20946	0.119
Mof_C 	C 	0.048	0.1924	0.1705	0.462
Mof_C 	C 	0.295	0.5688	0.3395	0.567
Mof_C 	C 	0.3658	0.5931	0.29586	0.147
Mof_C 	C 	0.3149	0.6153	0.3151	-0.209
Mof_C 	C 	0.2812	0.6811	0.3121	0.133
Mof_C 	C 	0.295	0.722	0.2884	-0.155
Mof_C 	C 	0.3446	0.6958	0.27	0.073
Mof_C 	C 	0.3572	0.7307	0.24342	0.06
Mof_C 	C 	0.3206	0.7913	0.2349	-0.148
Mof_C 	C 	0.3358	0.8193	0.2094	0.108
Mof_C 	C 	0.3854	0.7865	0.1932	-0.182
Mof_C 	C 	0.4208	0.7258	0.20277	0.115
Mof_C 	C 	0.4049	0.8143	0.165	0.467
Mof_C 	C 	0.2887	0.5808	0.41619	0.566
Mof_C 	C 	0.3341	0.6496	0.45751	0.151
Mof_C 	C 	0.3446	0.5965	0.43822	-0.213
Mof_C 	C 	0.4076	0.5553	0.4399	0.142
Mof_C 	C 	0.4553	0.5665	0.46125	-0.162
Mof_C 	C 	0.4411	0.6191	0.48028	0.071
Mof_C 	C 	0.4879	0.6348	0.50373	0.052
Mof_C 	C 	0.5482	0.596	0.51054	-0.136
Mof_C 	C 	0.5862	0.6117	0.5344	0.084
Mof_C 	C 	0.5631	0.6676	0.5508	-0.174
Mof_C 	C 	0.5034	0.7075	0.54187	0.108
Mof_C 	C 	0.6017	0.6865	0.5772	0.454
Mof_C 	C 	0.3068	0.4907	0.1634	0.35
Mof_C 	C 	0.3751	0.5414	0.2035	0.095
Mof_C 	C 	0.3549	0.4816	0.188	-0.112
Mof_C 	C 	0.3787	0.4149	0.1957	0.06
Mof_C 	C 	0.4208	0.4087	0.2189	-0.113
Mof_C 	C 	0.4378	0.4692	0.23359	0.063
Mof_C 	C 	0.483	0.4684	0.25895	0.064
Mof_C 	C 	0.5012	0.4073	0.2728	-0.108
Mof_C 	C 	0.5427	0.4124	0.2964	0.046
Mof_C 	C 	0.5662	0.4781	0.30463	-0.09
Mof_C 	C 	0.5465	0.5397	0.28951	0.079
Mof_C 	C 	0.6112	0.4899	0.3297	0.311
Mof_C 	C 	0.7236	0.4031	0.4112	0.363
Mof_C 	C 	0.6809	0.3292	0.45089	0.093
Mof_C 	C 	0.7382	0.3578	0.43605	-0.116
Mof_C 	C 	0.808	0.345	0.4453	0.059
Mof_C 	C 	0.8183	0.304	0.4683	-0.102
Mof_C 	C 	0.7572	0.2754	0.4819	0.055
Mof_C 	C 	0.7622	0.2278	0.5051	0.072
Mof_C 	C 	0.8275	0.2045	0.5171	-0.126
Mof_C 	C 	0.8242	0.1572	0.539	0.084
Mof_C 	C 	0.7587	0.1355	0.5481	-0.143
Mof_C 	C 	0.695	0.1609	0.5363	0.112
Mof_C 	C 	0.7611	0.0848	0.5732	0.452
Mof_C 	C 	0.0733	0.2437	0.08646	0.44
Mof_C 	C 	0.9876	0.2349	0.04726	0.101
Mof_C 	C 	0.0477	0.2077	0.0606	-0.185
Mof_C 	C 	0.0854	0.1505	0.0484	0.109
Mof_C 	C 	0.061	0.1245	0.0238	-0.16
Mof_C 	C 	0.0011	0.1534	0.01149	0.062
Mof_C 	C 	0.9696	0.1274	0.98592	0.08
Mof_C 	C 	0.9968	0.0702	0.9712	-0.189
Mof_C 	C 	0.9595	0.0464	0.94848	0.165
Mof_C 	C 	0.8958	0.0794	0.94149	-0.23
Mof_C 	C 	0.8723	0.1403	0.95531	0.159
Mof_C 	C 	0.85	0.053	0.91786	0.562
Mof_C 	C 	0.8626	0.044	0.8423	0.547
Mof_C 	C 	0.9389	0.0824	0.80125	0.139
Mof_C 	C 	0.8836	0.0981	0.8198	-0.191
Mof_C 	C 	0.8458	0.1617	0.8169	0.12
Mof_C 	C 	0.8609	0.2067	0.7951	-0.148
Mof_C 	C 	0.9113	0.1847	0.77622	0.071
Mof_C 	C 	0.9251	0.2246	0.75052	0.055
Mof_C 	C 	0.8824	0.2816	0.74227	-0.13
Mof_C 	C 	0.8907	0.3108	0.7166	0.077
Mof_C 	C 	0.9438	0.2803	0.69953	-0.16
Mof_C 	C 	0.9859	0.2236	0.70946	0.105
Mof_C 	C 	0.952	0.3076	0.6705	0.453
Mof_C 	C 	0.705	0.9312	0.8395	0.567
Mof_C 	C 	0.6342	0.9069	0.79586	0.147
Mof_C 	C 	0.6851	0.8847	0.8151	-0.209
Mof_C 	C 	0.7188	0.8189	0.8121	0.133
Mof_C 	C 	0.705	0.778	0.7884	-0.155
Mof_C 	C 	0.6554	0.8042	0.77	0.073
Mof_C 	C 	0.6428	0.7693	0.74342	0.06
Mof_C 	C 	0.6794	0.7087	0.7349	-0.148
Mof_C 	C 	0.6642	0.6807	0.7094	0.108
Mof_C 	C 	0.6146	0.7135	0.6932	-0.182
Mof_C 	C 	0.5792	0.7742	0.70277	0.115
Mof_C 	C 	0.5951	0.6857	0.665	0.467
Mof_C 	C 	0.7113	0.9192	0.91619	0.565
Mof_C 	C 	0.6659	0.8504	0.95751	0.151
Mof_C 	C 	0.6554	0.9035	0.93822	-0.213
Mof_C 	C 	0.5924	0.9447	0.9399	0.142
Mof_C 	C 	0.5447	0.9335	0.96125	-0.161
Mof_C 	C 	0.5589	0.8809	0.98028	0.071
Mof_C 	C 	0.5121	0.8652	0.00373	0.052
Mof_C 	C 	0.4518	0.904	0.01054	-0.136
Mof_C 	C 	0.4138	0.8883	0.0344	0.084
Mof_C 	C 	0.4369	0.8324	0.0508	-0.174
Mof_C 	C 	0.4966	0.7925	0.04187	0.108
Mof_C 	C 	0.3983	0.8135	0.0772	0.453
Mof_C 	C 	0.6932	0.0093	0.6634	0.348
Mof_C 	C 	0.6249	0.9586	0.7035	0.097
Mof_C 	C 	0.6451	0.0184	0.688	-0.113
Mof_C 	C 	0.6213	0.0851	0.6957	0.061
Mof_C 	C 	0.5792	0.0913	0.7189	-0.114
Mof_C 	C 	0.5622	0.0308	0.73359	0.063
Mof_C 	C 	0.517	0.0316	0.75895	0.064
Mof_C 	C 	0.4988	0.0927	0.7728	-0.108
Mof_C 	C 	0.4573	0.0876	0.7964	0.046
Mof_C 	C 	0.4338	0.0219	0.80463	-0.09
Mof_C 	C 	0.4535	0.9603	0.78951	0.079
Mof_C 	C 	0.3888	0.0101	0.8297	0.312
Mof_C 	C 	0.2764	0.0969	0.9112	0.363
Mof_C 	C 	0.3191	0.1708	0.95089	0.093
Mof_C 	C 	0.2618	0.1422	0.93605	-0.115
Mof_C 	C 	0.192	0.155	0.9453	0.059
Mof_C 	C 	0.1817	0.196	0.9683	-0.101
Mof_C 	C 	0.2428	0.2246	0.9819	0.055
Mof_C 	C 	0.2378	0.2722	0.0051	0.072
Mof_C 	C 	0.1725	0.2955	0.0171	-0.126
Mof_C 	C 	0.1758	0.3428	0.039	0.083
Mof_C 	C 	0.2413	0.3645	0.0481	-0.143
Mof_C 	C 	0.305	0.3391	0.0363	0.112
Mof_C 	C 	0.2389	0.4152	0.0732	0.452
Mof_C 	C 	0.5733	0.7563	0.41354	0.442
Mof_C 	C 	0.4876	0.7651	0.45274	0.109
Mof_C 	C 	0.5477	0.7923	0.4394	-0.192
Mof_C 	C 	0.5854	0.8495	0.4516	0.11
Mof_C 	C 	0.561	0.8755	0.4762	-0.16
Mof_C 	C 	0.5011	0.8466	0.48851	0.056
Mof_C 	C 	0.4696	0.8726	0.51408	0.081
Mof_C 	C 	0.4968	0.9298	0.5288	-0.18
Mof_C 	C 	0.4595	0.9536	0.55152	0.16
Mof_C 	C 	0.3958	0.9206	0.55851	-0.228
Mof_C 	C 	0.3723	0.8597	0.54469	0.159
Mof_C 	C 	0.35	0.947	0.58214	0.564
Mof_C 	C 	0.3626	0.956	0.6577	0.552
Mof_C 	C 	0.4389	0.9176	0.69875	0.14
Mof_C 	C 	0.3836	0.9019	0.6802	-0.193
Mof_C 	C 	0.3458	0.8383	0.6831	0.121
Mof_C 	C 	0.3609	0.7933	0.7049	-0.148
Mof_C 	C 	0.4113	0.8153	0.72378	0.071
Mof_C 	C 	0.4251	0.7754	0.74948	0.054
Mof_C 	C 	0.3824	0.7184	0.75773	-0.129
Mof_C 	C 	0.3907	0.6892	0.7834	0.076
Mof_C 	C 	0.4438	0.7197	0.80047	-0.158
Mof_C 	C 	0.4859	0.7764	0.79054	0.101
Mof_C 	C 	0.452	0.6924	0.8295	0.45
Mof_C 	C 	0.205	0.0688	0.6605	0.567
Mof_C 	C 	0.1342	0.0931	0.70414	0.147
Mof_C 	C 	0.1851	0.1153	0.6849	-0.208
Mof_C 	C 	0.2188	0.1811	0.6879	0.133
Mof_C 	C 	0.205	0.222	0.7116	-0.155
Mof_C 	C 	0.1554	0.1958	0.73	0.073
Mof_C 	C 	0.1428	0.2307	0.75658	0.06
Mof_C 	C 	0.1794	0.2913	0.7651	-0.149
Mof_C 	C 	0.1642	0.3193	0.7906	0.108
Mof_C 	C 	0.1146	0.2865	0.8068	-0.182
Mof_C 	C 	0.0792	0.2258	0.79723	0.115
Mof_C 	C 	0.0951	0.3143	0.835	0.467
Mof_C 	C 	0.2113	0.0808	0.58381	0.565
Mof_C 	C 	0.1659	0.1496	0.54249	0.15
Mof_C 	C 	0.1554	0.0965	0.56178	-0.212
Mof_C 	C 	0.0924	0.0553	0.5601	0.141
Mof_C 	C 	0.0447	0.0665	0.53875	-0.159
Mof_C 	C 	0.0589	0.1191	0.51972	0.07
Mof_C 	C 	0.0121	0.1348	0.49627	0.058
Mof_C 	C 	0.9518	0.096	0.48946	-0.143
Mof_C 	C 	0.9138	0.1117	0.4656	0.084
Mof_C 	C 	0.9369	0.1676	0.4492	-0.172
Mof_C 	C 	0.9966	0.2075	0.45813	0.094
Mof_C 	C 	0.8983	0.1865	0.4228	0.452
Mof_C 	C 	0.1932	0.9907	0.8366	0.349
Mof_C 	C 	0.1249	0.0414	0.7965	0.102
Mof_C 	C 	0.1451	0.9816	0.812	-0.119
Mof_C 	C 	0.1213	0.9149	0.8043	0.066
Mof_C 	C 	0.0792	0.9087	0.7811	-0.122
Mof_C 	C 	0.0622	0.9692	0.76641	0.07
Mof_C 	C 	0.017	0.9684	0.74105	0.032
Mof_C 	C 	0.9988	0.9073	0.7272	-0.053
Mof_C 	C 	0.9573	0.9124	0.7036	0.013
Mof_C 	C 	0.9338	0.9781	0.69537	-0.068
Mof_C 	C 	0.9535	0.0397	0.71049	0.064
Mof_C 	C 	0.8888	0.9899	0.6703	0.309
Mof_C 	C 	0.7764	0.9031	0.5888	0.363
Mof_C 	C 	0.8191	0.8292	0.54911	0.092
Mof_C 	C 	0.7618	0.8578	0.56395	-0.115
Mof_C 	C 	0.692	0.845	0.5547	0.058
Mof_C 	C 	0.6817	0.804	0.5317	-0.101
Mof_C 	C 	0.7428	0.7754	0.5181	0.055
Mof_C 	C 	0.7378	0.7278	0.4949	0.072
Mof_C 	C 	0.6725	0.7045	0.4829	-0.126
Mof_C 	C 	0.6758	0.6572	0.461	0.083
Mof_C 	C 	0.7413	0.6355	0.4519	-0.143
Mof_C 	C 	0.805	0.6609	0.4637	0.112
Mof_C 	C 	0.7389	0.5848	0.4268	0.452
Mof_N 	N 	0.4631	0.2905	0.02312	-0.25
Mof_N 	N 	0.4092	0.3361	0.97705	-0.265
Mof_N 	N 	0.4534	0.3754	0.78001	-0.254
Mof_N 	N 	0.4771	0.3047	0.73437	-0.247
Mof_N 	N 	0.1188	0.6324	0.7735	-0.255
Mof_N 	N 	0.0904	0.6987	0.72758	-0.254
Mof_N 	N 	0.1188	0.6623	0.97774	-0.26
Mof_N 	N 	0.0324	0.6928	0.01896	-0.257
Mof_N 	N 	0.0832	0.5369	0.72571	-0.249
Mof_N 	N 	0.9952	0.5348	0.76713	-0.24
Mof_N 	N 	0.8106	0.2892	0.97339	-0.252
Mof_N 	N 	0.802	0.2069	0.01502	-0.258
Mof_N 	N 	0.9631	0.7095	0.47688	-0.249
Mof_N 	N 	0.9092	0.6639	0.52295	-0.265
Mof_N 	N 	0.9534	0.6246	0.71999	-0.253
Mof_N 	N 	0.9771	0.6953	0.76563	-0.248
Mof_N 	N 	0.6188	0.3676	0.7265	-0.254
Mof_N 	N 	0.5904	0.3013	0.77242	-0.253
Mof_N 	N 	0.6188	0.3377	0.52226	-0.26
Mof_N 	N 	0.5324	0.3072	0.48104	-0.256
Mof_N 	N 	0.5832	0.4631	0.77429	-0.247
Mof_N 	N 	0.4952	0.4652	0.73287	-0.247
Mof_N 	N 	0.3106	0.7108	0.52661	-0.252
Mof_N 	N 	0.302	0.7931	0.48498	-0.258
Mof_N 	N 	0.0369	0.7905	0.97688	-0.251
Mof_N 	N 	0.0908	0.8361	0.02295	-0.265
Mof_N 	N 	0.0466	0.8754	0.21999	-0.254
Mof_N 	N 	0.0229	0.8047	0.26563	-0.247
Mof_N 	N 	0.3812	0.1324	0.2265	-0.254
Mof_N 	N 	0.4096	0.1987	0.27242	-0.253
Mof_N 	N 	0.3812	0.1623	0.02226	-0.26
Mof_N 	N 	0.4676	0.1928	0.98104	-0.256
Mof_N 	N 	0.4168	0.0369	0.27429	-0.247
Mof_N 	N 	0.5048	0.0348	0.23287	-0.246
Mof_N 	N 	0.6894	0.7892	0.02661	-0.252
Mof_N 	N 	0.698	0.7069	0.98498	-0.258
Mof_N 	N 	0.5369	0.2095	0.52312	-0.25
Mof_N 	N 	0.5908	0.1639	0.47705	-0.265
Mof_N 	N 	0.5466	0.1246	0.28001	-0.254
Mof_N 	N 	0.5229	0.1953	0.23437	-0.247
Mof_N 	N 	0.8812	0.8676	0.2735	-0.254
Mof_N 	N 	0.9096	0.8013	0.22758	-0.253
Mof_N 	N 	0.8812	0.8377	0.47774	-0.259
Mof_N 	N 	0.9676	0.8072	0.51896	-0.253
Mof_N 	N 	0.9168	0.9631	0.22571	-0.247
Mof_N 	N 	0.0048	0.9652	0.26713	-0.237
Mof_N 	N 	0.1894	0.2108	0.47339	-0.252
Mof_N 	N 	0.198	0.2931	0.51502	-0.258
Mof_N 	N 	0.5369	0.7095	0.97688	-0.25
Mof_N 	N 	0.5908	0.6639	0.02295	-0.265
Mof_N 	N 	0.5466	0.6246	0.21999	-0.254
Mof_N 	N 	0.5229	0.6953	0.26563	-0.247
Mof_N 	N 	0.8812	0.3676	0.2265	-0.255
Mof_N 	N 	0.9096	0.3013	0.27242	-0.254
Mof_N 	N 	0.8812	0.3377	0.02226	-0.26
Mof_N 	N 	0.9676	0.3072	0.98104	-0.257
Mof_N 	N 	0.9168	0.4631	0.27429	-0.249
Mof_N 	N 	0.0048	0.4652	0.23287	-0.24
Mof_N 	N 	0.1894	0.7108	0.02661	-0.252
Mof_N 	N 	0.198	0.7931	0.98498	-0.258
Mof_N 	N 	0.0369	0.2905	0.52312	-0.249
Mof_N 	N 	0.0908	0.3361	0.47705	-0.265
Mof_N 	N 	0.0466	0.3754	0.28001	-0.253
Mof_N 	N 	0.0229	0.3047	0.23437	-0.248
Mof_N 	N 	0.3812	0.6324	0.2735	-0.254
Mof_N 	N 	0.4096	0.6987	0.22758	-0.253
Mof_N 	N 	0.3812	0.6623	0.47774	-0.26
Mof_N 	N 	0.4676	0.6928	0.51896	-0.256
Mof_N 	N 	0.4168	0.5369	0.22571	-0.247
Mof_N 	N 	0.5048	0.5348	0.26713	-0.247
Mof_N 	N 	0.6894	0.2892	0.47339	-0.252
Mof_N 	N 	0.698	0.2069	0.51502	-0.258
Mof_N 	N 	0.9631	0.2095	0.02312	-0.251
Mof_N 	N 	0.9092	0.1639	0.97705	-0.265
Mof_N 	N 	0.9534	0.1246	0.78001	-0.254
Mof_N 	N 	0.9771	0.1953	0.73437	-0.247
Mof_N 	N 	0.6188	0.8676	0.7735	-0.254
Mof_N 	N 	0.5904	0.8013	0.72758	-0.253
Mof_N 	N 	0.6188	0.8377	0.97774	-0.26
Mof_N 	N 	0.5324	0.8072	0.01896	-0.256
Mof_N 	N 	0.5832	0.9631	0.72571	-0.247
Mof_N 	N 	0.4952	0.9652	0.76713	-0.246
Mof_N 	N 	0.3106	0.2108	0.97339	-0.252
Mof_N 	N 	0.302	0.2931	0.01502	-0.258
Mof_N 	N 	0.4631	0.7905	0.47688	-0.25
Mof_N 	N 	0.4092	0.8361	0.52295	-0.265
Mof_N 	N 	0.4534	0.8754	0.71999	-0.254
Mof_N 	N 	0.4771	0.8047	0.76563	-0.247
Mof_N 	N 	0.1188	0.1324	0.7265	-0.254
Mof_N 	N 	0.0904	0.1987	0.77242	-0.253
Mof_N 	N 	0.1188	0.1623	0.52226	-0.259
Mof_N 	N 	0.0324	0.1928	0.48104	-0.253
Mof_N 	N 	0.0832	0.0369	0.77429	-0.247
Mof_N 	N 	0.9952	0.0348	0.73287	-0.237
Mof_N 	N 	0.8106	0.7892	0.52661	-0.252
Mof_N 	N 	0.802	0.7069	0.48498	-0.258
Mof_O 	O 	0.5497	0.1948	0.0912	-0.284
Mof_O 	O 	0.6171	0.2915	0.10098	-0.551
Mof_O 	O 	0.2945	0.4114	0.91128	-0.568
Mof_O 	O 	0.3709	0.506	0.90707	-0.624
Mof_O 	O 	0.3053	0.4405	0.85459	-0.624
Mof_O 	O 	0.4008	0.5097	0.84591	-0.538
Mof_O 	O 	0.3969	0.1655	0.65974	-0.541
Mof_O 	O 	0.5145	0.1952	0.66048	-0.321
Mof_O 	O 	0.2564	0.5923	0.85388	-0.654
Mof_O 	O 	0.1708	0.5115	0.84329	-0.504
Mof_O 	O 	0.0377	0.7923	0.65445	-0.298
Mof_O 	O 	0.1397	0.8568	0.65459	-0.57
Mof_O 	O 	0.262	0.6236	0.91247	-0.52
Mof_O 	O 	0.1994	0.5246	0.90313	-0.611
Mof_O 	O 	0.8589	0.6381	0.08652	-0.583
Mof_O 	O 	0.9087	0.7481	0.08687	-0.301
Mof_O 	O 	0.1981	0.4397	0.64692	-0.454
Mof_O 	O 	0.2303	0.5464	0.66064	-0.394
Mof_O 	O 	0.8868	0.4412	0.84772	-0.403
Mof_O 	O 	0.856	0.5494	0.83228	-0.417
Mof_O 	O 	0.7237	0.4291	0.89882	-0.421
Mof_O 	O 	0.8398	0.4156	0.90439	-0.439
Mof_O 	O 	0.683	0.0536	0.0782	-0.508
Mof_O 	O 	0.7893	0.0871	0.0879	-0.407
Mof_O 	O 	0.4874	0.6012	0.88344	-1.056
Mof_O 	O 	0.0688	0.4633	0.8806	-0.708
Mof_O 	O 	0.2557	0.3003	0.87553	-0.83
Mof_O 	O 	0.8128	0.6505	0.87295	-0.867
Mof_O 	O 	0.9278	0.5551	0.88767	-0.842
Mof_O 	O 	0.0497	0.8052	0.4088	-0.284
Mof_O 	O 	0.1171	0.7085	0.39902	-0.551
Mof_O 	O 	0.7945	0.5886	0.58872	-0.568
Mof_O 	O 	0.8709	0.494	0.59293	-0.624
Mof_O 	O 	0.8053	0.5595	0.64541	-0.624
Mof_O 	O 	0.9008	0.4903	0.65409	-0.538
Mof_O 	O 	0.8969	0.8345	0.84026	-0.543
Mof_O 	O 	0.0145	0.8048	0.83952	-0.329
Mof_O 	O 	0.7564	0.4077	0.64612	-0.653
Mof_O 	O 	0.6708	0.4885	0.65671	-0.504
Mof_O 	O 	0.5377	0.2077	0.84555	-0.295
Mof_O 	O 	0.6397	0.1432	0.84541	-0.569
Mof_O 	O 	0.762	0.3764	0.58753	-0.52
Mof_O 	O 	0.6994	0.4754	0.59687	-0.611
Mof_O 	O 	0.3589	0.3619	0.41348	-0.583
Mof_O 	O 	0.4087	0.2519	0.41313	-0.301
Mof_O 	O 	0.6981	0.5603	0.85308	-0.454
Mof_O 	O 	0.7303	0.4536	0.83936	-0.393
Mof_O 	O 	0.3868	0.5588	0.65228	-0.404
Mof_O 	O 	0.356	0.4506	0.66772	-0.417
Mof_O 	O 	0.2237	0.5709	0.60118	-0.421
Mof_O 	O 	0.3398	0.5844	0.59561	-0.439
Mof_O 	O 	0.183	0.9464	0.4218	-0.508
Mof_O 	O 	0.2893	0.9129	0.4121	-0.406
Mof_O 	O 	0.9874	0.3988	0.61656	-1.048
Mof_O 	O 	0.5688	0.5367	0.6194	-0.707
Mof_O 	O 	0.7557	0.6997	0.62447	-0.83
Mof_O 	O 	0.3128	0.3495	0.62705	-0.867
Mof_O 	O 	0.4278	0.4449	0.61233	-0.842
Mof_O 	O 	0.9503	0.6948	0.9088	-0.282
Mof_O 	O 	0.8829	0.7915	0.89902	-0.551
Mof_O 	O 	0.2055	0.9114	0.08872	-0.567
Mof_O 	O 	0.1291	0.006	0.09293	-0.619
Mof_O 	O 	0.1947	0.9405	0.14541	-0.623
Mof_O 	O 	0.0992	0.0097	0.15409	-0.532
Mof_O 	O 	0.1031	0.6655	0.34026	-0.541
Mof_O 	O 	0.9855	0.6952	0.33952	-0.323
Mof_O 	O 	0.2436	0.0923	0.14612	-0.653
Mof_O 	O 	0.3292	0.0115	0.15671	-0.502
Mof_O 	O 	0.4623	0.2923	0.34555	-0.295
Mof_O 	O 	0.3603	0.3568	0.34541	-0.57
Mof_O 	O 	0.238	0.1236	0.08753	-0.52
Mof_O 	O 	0.3006	0.0246	0.09687	-0.609
Mof_O 	O 	0.6411	0.1381	0.91348	-0.582
Mof_O 	O 	0.5913	0.2481	0.91313	-0.301
Mof_O 	O 	0.3019	0.9397	0.35308	-0.453
Mof_O 	O 	0.2697	0.0464	0.33936	-0.39
Mof_O 	O 	0.6132	0.9412	0.15228	-0.404
Mof_O 	O 	0.644	0.0494	0.16772	-0.418
Mof_O 	O 	0.7763	0.9291	0.10118	-0.419
Mof_O 	O 	0.6602	0.9156	0.09561	-0.438
Mof_O 	O 	0.817	0.5536	0.9218	-0.508
Mof_O 	O 	0.7107	0.5871	0.9121	-0.406
Mof_O 	O 	0.0126	0.1012	0.11656	-1.029
Mof_O 	O 	0.4312	0.9633	0.1194	-0.707
Mof_O 	O 	0.2443	0.8003	0.12447	-0.829
Mof_O 	O 	0.6872	0.1505	0.12705	-0.867
Mof_O 	O 	0.5722	0.0551	0.11233	-0.841
Mof_O 	O 	0.4503	0.3052	0.5912	-0.284
Mof_O 	O 	0.3829	0.2085	0.60098	-0.551
Mof_O 	O 	0.7055	0.0886	0.41128	-0.567
Mof_O 	O 	0.6291	0.994	0.40707	-0.622
Mof_O 	O 	0.6947	0.0595	0.35459	-0.624
Mof_O 	O 	0.5992	0.9903	0.34591	-0.537
Mof_O 	O 	0.6031	0.3345	0.15974	-0.541
Mof_O 	O 	0.4855	0.3048	0.16048	-0.321
Mof_O 	O 	0.7436	0.9077	0.35388	-0.653
Mof_O 	O 	0.8292	0.9885	0.34329	-0.501
Mof_O 	O 	0.9623	0.7077	0.15445	-0.296
Mof_O 	O 	0.8603	0.6432	0.15459	-0.57
Mof_O 	O 	0.738	0.8764	0.41247	-0.52
Mof_O 	O 	0.8006	0.9754	0.40313	-0.609
Mof_O 	O 	0.1411	0.8619	0.58652	-0.582
Mof_O 	O 	0.0913	0.7519	0.58687	-0.302
Mof_O 	O 	0.8019	0.0603	0.14692	-0.453
Mof_O 	O 	0.7697	0.9536	0.16064	-0.39
Mof_O 	O 	0.1132	0.0588	0.34772	-0.401
Mof_O 	O 	0.144	0.9506	0.33228	-0.418
Mof_O 	O 	0.2763	0.0709	0.39882	-0.419
Mof_O 	O 	0.1602	0.0844	0.40439	-0.436
Mof_O 	O 	0.317	0.4464	0.5782	-0.508
Mof_O 	O 	0.2107	0.4129	0.5879	-0.406
Mof_O 	O 	0.5126	0.8988	0.38344	-1.056
Mof_O 	O 	0.9312	0.0367	0.3806	-0.71
Mof_O 	O 	0.7443	0.1997	0.37553	-0.829
Mof_O 	O 	0.1872	0.8495	0.37295	-0.866
Mof_O 	O 	0.0722	0.9449	0.38767	-0.841
Mof_O 	O 	0.4503	0.8052	0.9088	-0.284
Mof_O 	O 	0.3829	0.7085	0.89902	-0.551
Mof_O 	O 	0.7055	0.5886	0.08872	-0.568
Mof_O 	O 	0.6291	0.494	0.09293	-0.624
Mof_O 	O 	0.6947	0.5595	0.14541	-0.624
Mof_O 	O 	0.5992	0.4903	0.15409	-0.538
Mof_O 	O 	0.6031	0.8345	0.34026	-0.541
Mof_O 	O 	0.4855	0.8048	0.33952	-0.321
Mof_O 	O 	0.7436	0.4077	0.14612	-0.654
Mof_O 	O 	0.8292	0.4885	0.15671	-0.504
Mof_O 	O 	0.9623	0.2077	0.34555	-0.298
Mof_O 	O 	0.8603	0.1432	0.34541	-0.57
Mof_O 	O 	0.738	0.3764	0.08753	-0.52
Mof_O 	O 	0.8006	0.4754	0.09687	-0.611
Mof_O 	O 	0.1411	0.3619	0.91348	-0.583
Mof_O 	O 	0.0913	0.2519	0.91313	-0.301
Mof_O 	O 	0.8019	0.5603	0.35308	-0.454
Mof_O 	O 	0.7697	0.4536	0.33936	-0.394
Mof_O 	O 	0.1132	0.5588	0.15228	-0.403
Mof_O 	O 	0.144	0.4506	0.16772	-0.417
Mof_O 	O 	0.2763	0.5709	0.10118	-0.421
Mof_O 	O 	0.1602	0.5844	0.09561	-0.439
Mof_O 	O 	0.317	0.9464	0.9218	-0.508
Mof_O 	O 	0.2107	0.9129	0.9121	-0.407
Mof_O 	O 	0.5126	0.3988	0.11656	-1.056
Mof_O 	O 	0.9312	0.5367	0.1194	-0.708
Mof_O 	O 	0.7443	0.6997	0.12447	-0.83
Mof_O 	O 	0.1872	0.3495	0.12705	-0.867
Mof_O 	O 	0.0722	0.4449	0.11233	-0.842
Mof_O 	O 	0.9503	0.1948	0.5912	-0.284
Mof_O 	O 	0.8829	0.2915	0.60098	-0.551
Mof_O 	O 	0.2055	0.4114	0.41128	-0.568
Mof_O 	O 	0.1291	0.506	0.40707	-0.624
Mof_O 	O 	0.1947	0.4405	0.35459	-0.624
Mof_O 	O 	0.0992	0.5097	0.34591	-0.538
Mof_O 	O 	0.1031	0.1655	0.15974	-0.543
Mof_O 	O 	0.9855	0.1952	0.16048	-0.329
Mof_O 	O 	0.2436	0.5923	0.35388	-0.653
Mof_O 	O 	0.3292	0.5115	0.34329	-0.504
Mof_O 	O 	0.4623	0.7923	0.15445	-0.295
Mof_O 	O 	0.3603	0.8568	0.15459	-0.569
Mof_O 	O 	0.238	0.6236	0.41247	-0.52
Mof_O 	O 	0.3006	0.5246	0.40313	-0.611
Mof_O 	O 	0.6411	0.6381	0.58652	-0.583
Mof_O 	O 	0.5913	0.7481	0.58687	-0.301
Mof_O 	O 	0.3019	0.4397	0.14692	-0.454
Mof_O 	O 	0.2697	0.5464	0.16064	-0.393
Mof_O 	O 	0.6132	0.4412	0.34772	-0.404
Mof_O 	O 	0.644	0.5494	0.33228	-0.417
Mof_O 	O 	0.7763	0.4291	0.39882	-0.421
Mof_O 	O 	0.6602	0.4156	0.40439	-0.439
Mof_O 	O 	0.817	0.0536	0.5782	-0.508
Mof_O 	O 	0.7107	0.0871	0.5879	-0.406
Mof_O 	O 	0.0126	0.6012	0.38344	-1.048
Mof_O 	O 	0.4312	0.4633	0.3806	-0.707
Mof_O 	O 	0.2443	0.3003	0.37553	-0.83
Mof_O 	O 	0.6872	0.6505	0.37295	-0.867
Mof_O 	O 	0.5722	0.5551	0.38767	-0.842
Mof_O 	O 	0.0497	0.3052	0.0912	-0.282
Mof_O 	O 	0.1171	0.2085	0.10098	-0.551
Mof_O 	O 	0.7945	0.0886	0.91128	-0.567
Mof_O 	O 	0.8709	0.994	0.90707	-0.619
Mof_O 	O 	0.8053	0.0595	0.85459	-0.623
Mof_O 	O 	0.9008	0.9903	0.84591	-0.532
Mof_O 	O 	0.8969	0.3345	0.65974	-0.541
Mof_O 	O 	0.0145	0.3048	0.66048	-0.323
Mof_O 	O 	0.7564	0.9077	0.85388	-0.653
Mof_O 	O 	0.6708	0.9885	0.84329	-0.502
Mof_O 	O 	0.5377	0.7077	0.65445	-0.295
Mof_O 	O 	0.6397	0.6432	0.65459	-0.57
Mof_O 	O 	0.762	0.8764	0.91247	-0.52
Mof_O 	O 	0.6994	0.9754	0.90313	-0.609
Mof_O 	O 	0.3589	0.8619	0.08652	-0.582
Mof_O 	O 	0.4087	0.7519	0.08687	-0.301
Mof_O 	O 	0.6981	0.0603	0.64692	-0.453
Mof_O 	O 	0.7303	0.9536	0.66064	-0.39
Mof_O 	O 	0.3868	0.0588	0.84772	-0.404
Mof_O 	O 	0.356	0.9506	0.83228	-0.418
Mof_O 	O 	0.2237	0.0709	0.89882	-0.419
Mof_O 	O 	0.3398	0.0844	0.90439	-0.438
Mof_O 	O 	0.183	0.4464	0.0782	-0.508
Mof_O 	O 	0.2893	0.4129	0.0879	-0.406
Mof_O 	O 	0.9874	0.8988	0.88344	-1.029
Mof_O 	O 	0.5688	0.0367	0.8806	-0.707
Mof_O 	O 	0.7557	0.1997	0.87553	-0.829
Mof_O 	O 	0.3128	0.8495	0.87295	-0.867
Mof_O 	O 	0.4278	0.9449	0.88767	-0.841
Mof_O 	O 	0.5497	0.6948	0.4088	-0.284
Mof_O 	O 	0.6171	0.7915	0.39902	-0.551
Mof_O 	O 	0.2945	0.9114	0.58872	-0.567
Mof_O 	O 	0.3709	0.006	0.59293	-0.622
Mof_O 	O 	0.3053	0.9405	0.64541	-0.624
Mof_O 	O 	0.4008	0.0097	0.65409	-0.537
Mof_O 	O 	0.3969	0.6655	0.84026	-0.541
Mof_O 	O 	0.5145	0.6952	0.83952	-0.321
Mof_O 	O 	0.2564	0.0923	0.64612	-0.653
Mof_O 	O 	0.1708	0.0115	0.65671	-0.501
Mof_O 	O 	0.0377	0.2923	0.84555	-0.296
Mof_O 	O 	0.1397	0.3568	0.84541	-0.57
Mof_O 	O 	0.262	0.1236	0.58753	-0.52
Mof_O 	O 	0.1994	0.0246	0.59687	-0.609
Mof_O 	O 	0.8589	0.1381	0.41348	-0.582
Mof_O 	O 	0.9087	0.2481	0.41313	-0.302
Mof_O 	O 	0.1981	0.9397	0.85308	-0.453
Mof_O 	O 	0.2303	0.0464	0.83936	-0.39
Mof_O 	O 	0.8868	0.9412	0.65228	-0.401
Mof_O 	O 	0.856	0.0494	0.66772	-0.418
Mof_O 	O 	0.7237	0.9291	0.60118	-0.419
Mof_O 	O 	0.8398	0.9156	0.59561	-0.436
Mof_O 	O 	0.683	0.5536	0.4218	-0.508
Mof_O 	O 	0.7893	0.5871	0.4121	-0.406
Mof_O 	O 	0.4874	0.1012	0.61656	-1.056
Mof_O 	O 	0.0688	0.9633	0.6194	-0.71
Mof_O 	O 	0.2557	0.8003	0.62447	-0.829
Mof_O 	O 	0.8128	0.1505	0.62705	-0.866
Mof_O 	O 	0.9278	0.0551	0.61233	-0.841
Mof_Cl	Cl	0.77634	0.99744	0.99201	-0.206
Mof_O 	O 	0.7297	0.9538	0.0075	-0.034
Mof_O 	O 	0.7942	0.9619	0.96698	-0.051
Mof_O 	O 	0.7426	0.0644	0.98626	-0.041
Mof_O 	O 	0.8432	0.0104	0.00682	-0.056
Mof_Cl	Cl	0.7821	0.9967	0.76257	-0.216
Mof_O 	O 	0.8	0.9782	0.7913	-0.05
Mof_O 	O 	0.8338	0.0283	0.7503	-0.017
Mof_O 	O 	0.769	0.9226	0.7513	-0.046
Mof_O 	O 	0.7148	0.0304	0.7619	-0.039
Mof_Cl	Cl	0.27634	0.00256	0.50799	-0.208
Mof_O 	O 	0.2297	0.0462	0.4925	-0.033
Mof_O 	O 	0.2942	0.0381	0.53302	-0.051
Mof_O 	O 	0.2426	0.9356	0.51374	-0.041
Mof_O 	O 	0.3432	0.9896	0.49318	-0.054
Mof_Cl	Cl	0.2821	0.0033	0.73743	-0.217
Mof_O 	O 	0.3	0.0218	0.7087	-0.051
Mof_O 	O 	0.3338	0.9717	0.7497	-0.016
Mof_O 	O 	0.269	0.0774	0.7487	-0.046
Mof_O 	O 	0.2148	0.9696	0.7381	-0.039
Mof_Cl	Cl	0.72366	0.49744	0.00799	-0.213
Mof_O 	O 	0.7703	0.4538	0.9925	-0.034
Mof_O 	O 	0.7058	0.4619	0.03302	-0.051
Mof_O 	O 	0.7574	0.5644	0.01374	-0.039
Mof_O 	O 	0.6568	0.5104	0.99318	-0.052
Mof_Cl	Cl	0.7179	0.4967	0.23743	-0.223
Mof_O 	O 	0.7	0.4782	0.2087	-0.051
Mof_O 	O 	0.6662	0.5283	0.2497	-0.013
Mof_O 	O 	0.731	0.4226	0.2487	-0.046
Mof_O 	O 	0.7852	0.5304	0.2381	-0.036
Mof_Cl	Cl	0.22366	0.50256	0.49201	-0.213
Mof_O 	O 	0.2703	0.5462	0.5075	-0.034
Mof_O 	O 	0.2058	0.5381	0.46698	-0.051
Mof_O 	O 	0.2574	0.4356	0.48626	-0.039
Mof_O 	O 	0.1568	0.4896	0.50682	-0.052
Mof_Cl	Cl	0.2179	0.5033	0.26257	-0.223
Mof_O 	O 	0.2	0.5218	0.2913	-0.051
Mof_O 	O 	0.1662	0.4717	0.2503	-0.013
Mof_O 	O 	0.231	0.5774	0.2513	-0.046
Mof_O 	O 	0.2852	0.4696	0.2619	-0.036
Mof_Cl	Cl	0.22366	0.00256	0.00799	-0.206
Mof_O 	O 	0.2703	0.0462	0.9925	-0.034
Mof_O 	O 	0.2058	0.0381	0.03302	-0.051
Mof_O 	O 	0.2574	0.9356	0.01374	-0.041
Mof_O 	O 	0.1568	0.9896	0.99318	-0.056
Mof_Cl	Cl	0.2179	0.0033	0.23743	-0.216
Mof_O 	O 	0.2	0.0218	0.2087	-0.05
Mof_O 	O 	0.1662	0.9717	0.2497	-0.017
Mof_O 	O 	0.231	0.0774	0.2487	-0.046
Mof_O 	O 	0.2852	0.9696	0.2381	-0.039
Mof_Cl	Cl	0.72366	0.99744	0.49201	-0.208
Mof_O 	O 	0.7703	0.9538	0.5075	-0.033
Mof_O 	O 	0.7058	0.9619	0.46698	-0.051
Mof_O 	O 	0.7574	0.0644	0.48626	-0.041
Mof_O 	O 	0.6568	0.0104	0.50682	-0.054
Mof_Cl	Cl	0.7179	0.9967	0.26257	-0.217
Mof_O 	O 	0.7	0.9782	0.2913	-0.051
Mof_O 	O 	0.6662	0.0283	0.2503	-0.016
Mof_O 	O 	0.731	0.9226	0.2513	-0.046
Mof_O 	O 	0.7852	0.0304	0.2619	-0.039
Mof_Cl	Cl	0.27634	0.50256	0.99201	-0.213
Mof_O 	O 	0.2297	0.5462	0.0075	-0.034
Mof_O 	O 	0.2942	0.5381	0.96698	-0.051
Mof_O 	O 	0.2426	0.4356	0.98626	-0.039
Mof_O 	O 	0.3432	0.4896	0.00682	-0.052
Mof_Cl	Cl	0.2821	0.5033	0.76257	-0.223
Mof_O 	O 	0.3	0.5218	0.7913	-0.051
Mof_O 	O 	0.3338	0.4717	0.7503	-0.013
Mof_O 	O 	0.269	0.5774	0.7513	-0.046
Mof_O 	O 	0.2148	0.4696	0.7619	-0.036
Mof_Cl	Cl	0.77634	0.49744	0.50799	-0.213
Mof_O 	O 	0.7297	0.4538	0.4925	-0.034
Mof_O 	O 	0.7942	0.4619	0.53302	-0.051
Mof_O 	O 	0.7426	0.5644	0.51374	-0.039
Mof_O 	O 	0.8432	0.5104	0.49318	-0.052
Mof_Cl	Cl	0.7821	0.4967	0.73743	-0.223
Mof_O 	O 	0.8	0.4782	0.7087	-0.051
Mof_O 	O 	0.8338	0.5283	0.7497	-0.013
Mof_O 	O 	0.769	0.4226	0.7487	-0.046
Mof_O 	O 	0.7148	0.5304	0.7381	-0.036
_end
