data_functionalizedCrystal
_audit_creation_method	'EQeq! by Chris Wilmer'
_symmetry_space_group_name_H-M	'P1'
_symmetry_Int_Tables_number	1
_symmetry_cell_setting	triclinic
loop_
_symmetry_equiv_pos_as_xyz
  x,y,z
_cell_length_a	45.206
_cell_length_b	45.206
_cell_length_c	45.206
_cell_angle_alpha	60
_cell_angle_beta	60
_cell_angle_gamma	60
loop_
_atom_site_label
_atom_site_type_symbol
_atom_site_fract_x
_atom_site_fract_y
_atom_site_fract_z
_atom_site_charge
Mof_Cu	Cu	0.83534	0.5	0.16466	0.9
Mof_Cu	Cu	0.89432	0.5	0.10568	0.93
Mof_Cu	Cu	0.5	0.83534	0.5	0.9
Mof_Cu	Cu	0.5	0.89432	0.5	0.93
Mof_Cu	Cu	0.16466	0.5	0.83534	0.9
Mof_Cu	Cu	0.10568	0.5	0.89432	0.93
Mof_Cu	Cu	0.5	0.16466	0.5	0.9
Mof_Cu	Cu	0.5	0.10568	0.5	0.93
Mof_Cu	Cu	0.83534	0.16466	0.5	0.9
Mof_Cu	Cu	0.89432	0.10568	0.5	0.93
Mof_Cu	Cu	0.5	0.5	0.16466	0.9
Mof_Cu	Cu	0.5	0.5	0.10568	0.93
Mof_Cu	Cu	0.16466	0.83534	0.5	0.899
Mof_Cu	Cu	0.10568	0.89432	0.5	0.929
Mof_Cu	Cu	0.5	0.5	0.83534	0.899
Mof_Cu	Cu	0.5	0.5	0.89432	0.929
Mof_Cu	Cu	0.83534	0.5	0.5	0.899
Mof_Cu	Cu	0.89432	0.5	0.5	0.929
Mof_Cu	Cu	0.5	0.16466	0.83534	0.899
Mof_Cu	Cu	0.5	0.10568	0.89432	0.929
Mof_Cu	Cu	0.16466	0.5	0.5	0.899
Mof_Cu	Cu	0.10568	0.5	0.5	0.929
Mof_Cu	Cu	0.5	0.83534	0.16466	0.899
Mof_Cu	Cu	0.5	0.89432	0.10568	0.929
Mof_Cu	Cu	0.89207	0.39905	0.89207	0.914
Mof_Cu	Cu	0.39905	0.89207	0.81681	0.914
Mof_Cu	Cu	0.89207	0.81681	0.89207	0.914
Mof_Cu	Cu	0.81681	0.89207	0.39905	0.914
Mof_Cu	Cu	0.89207	0.89207	0.81681	0.914
Mof_Cu	Cu	0.39905	0.81681	0.89207	0.914
Mof_Cu	Cu	0.89207	0.89207	0.39905	0.914
Mof_Cu	Cu	0.81681	0.39905	0.89207	0.914
Mof_Cu	Cu	0.89207	0.81681	0.39905	0.914
Mof_Cu	Cu	0.39905	0.89207	0.89207	0.914
Mof_Cu	Cu	0.89207	0.39905	0.81681	0.914
Mof_Cu	Cu	0.81681	0.89207	0.89207	0.914
Mof_Cu	Cu	0.60095	0.10793	0.10793	0.914
Mof_Cu	Cu	0.10793	0.60095	0.18319	0.914
Mof_Cu	Cu	0.18319	0.10793	0.10793	0.914
Mof_Cu	Cu	0.10793	0.18319	0.60095	0.914
Mof_Cu	Cu	0.10793	0.10793	0.18319	0.914
Mof_Cu	Cu	0.18319	0.60095	0.10793	0.914
Mof_Cu	Cu	0.10793	0.10793	0.60095	0.914
Mof_Cu	Cu	0.60095	0.18319	0.10793	0.914
Mof_Cu	Cu	0.18319	0.10793	0.60095	0.914
Mof_Cu	Cu	0.10793	0.60095	0.10793	0.914
Mof_Cu	Cu	0.60095	0.10793	0.18319	0.914
Mof_Cu	Cu	0.10793	0.18319	0.10793	0.914
Mof_H 	H 	0.7796	0.472	0.1384	0.064
Mof_H 	H 	0.7528	0.4566	0.1198	0.056
Mof_H 	H 	0.8322	0.47	0.0226	0.057
Mof_H 	H 	0.86	0.4852	0.0442	0.065
Mof_H 	H 	0.8232	0.4308	0.0132	0.088
Mof_H 	H 	0.472	0.7796	0.61	0.064
Mof_H 	H 	0.4566	0.7528	0.6708	0.056
Mof_H 	H 	0.47	0.8322	0.6752	0.057
Mof_H 	H 	0.4852	0.86	0.6106	0.065
Mof_H 	H 	0.4308	0.8232	0.7328	0.088
Mof_H 	H 	0.1384	0.61	0.7796	0.064
Mof_H 	H 	0.1198	0.6708	0.7528	0.056
Mof_H 	H 	0.0226	0.6752	0.8322	0.057
Mof_H 	H 	0.0442	0.6106	0.86	0.065
Mof_H 	H 	0.0132	0.7328	0.8232	0.088
Mof_H 	H 	0.61	0.1384	0.472	0.064
Mof_H 	H 	0.6708	0.1198	0.4566	0.056
Mof_H 	H 	0.6752	0.0226	0.47	0.057
Mof_H 	H 	0.6106	0.0442	0.4852	0.065
Mof_H 	H 	0.7328	0.0132	0.4308	0.088
Mof_H 	H 	0.7796	0.1384	0.61	0.064
Mof_H 	H 	0.7528	0.1198	0.6708	0.056
Mof_H 	H 	0.8322	0.0226	0.6752	0.057
Mof_H 	H 	0.86	0.0442	0.6106	0.065
Mof_H 	H 	0.8232	0.0132	0.7328	0.088
Mof_H 	H 	0.472	0.61	0.1384	0.064
Mof_H 	H 	0.4566	0.6708	0.1198	0.056
Mof_H 	H 	0.47	0.6752	0.0226	0.057
Mof_H 	H 	0.4852	0.6106	0.0442	0.065
Mof_H 	H 	0.4308	0.7328	0.0132	0.088
Mof_H 	H 	0.1384	0.7796	0.472	0.064
Mof_H 	H 	0.1198	0.7528	0.4566	0.056
Mof_H 	H 	0.0226	0.8322	0.47	0.057
Mof_H 	H 	0.0442	0.86	0.4852	0.065
Mof_H 	H 	0.0132	0.8232	0.4308	0.088
Mof_H 	H 	0.61	0.472	0.7796	0.064
Mof_H 	H 	0.6708	0.4566	0.7528	0.056
Mof_H 	H 	0.6752	0.47	0.8322	0.057
Mof_H 	H 	0.6106	0.4852	0.86	0.065
Mof_H 	H 	0.7328	0.4308	0.8232	0.088
Mof_H 	H 	0.7796	0.61	0.472	0.064
Mof_H 	H 	0.7528	0.6708	0.4566	0.056
Mof_H 	H 	0.8322	0.6752	0.47	0.057
Mof_H 	H 	0.86	0.6106	0.4852	0.065
Mof_H 	H 	0.8232	0.7328	0.4308	0.088
Mof_H 	H 	0.472	0.1384	0.7796	0.064
Mof_H 	H 	0.4566	0.1198	0.7528	0.056
Mof_H 	H 	0.47	0.0226	0.8322	0.057
Mof_H 	H 	0.4852	0.0442	0.86	0.065
Mof_H 	H 	0.4308	0.0132	0.8232	0.088
Mof_H 	H 	0.1384	0.472	0.61	0.064
Mof_H 	H 	0.1198	0.4566	0.6708	0.056
Mof_H 	H 	0.0226	0.47	0.6752	0.057
Mof_H 	H 	0.0442	0.4852	0.6106	0.065
Mof_H 	H 	0.0132	0.4308	0.7328	0.088
Mof_H 	H 	0.61	0.7796	0.1384	0.064
Mof_H 	H 	0.6708	0.7528	0.1198	0.056
Mof_H 	H 	0.6752	0.8322	0.0226	0.057
Mof_H 	H 	0.6106	0.86	0.0442	0.065
Mof_H 	H 	0.7328	0.8232	0.0132	0.088
Mof_H 	H 	0.528	0.2204	0.8616	0.064
Mof_H 	H 	0.5434	0.2472	0.8802	0.056
Mof_H 	H 	0.53	0.1678	0.9774	0.057
Mof_H 	H 	0.5148	0.14	0.9558	0.065
Mof_H 	H 	0.5692	0.1768	0.9868	0.088
Mof_H 	H 	0.2204	0.528	0.39	0.064
Mof_H 	H 	0.2472	0.5434	0.3292	0.056
Mof_H 	H 	0.1678	0.53	0.3248	0.057
Mof_H 	H 	0.14	0.5148	0.3894	0.065
Mof_H 	H 	0.1768	0.5692	0.2672	0.088
Mof_H 	H 	0.39	0.8616	0.2204	0.064
Mof_H 	H 	0.3292	0.8802	0.2472	0.056
Mof_H 	H 	0.3248	0.9774	0.1678	0.057
Mof_H 	H 	0.3894	0.9558	0.14	0.065
Mof_H 	H 	0.2672	0.9868	0.1768	0.088
Mof_H 	H 	0.8616	0.39	0.528	0.064
Mof_H 	H 	0.8802	0.3292	0.5434	0.056
Mof_H 	H 	0.9774	0.3248	0.53	0.057
Mof_H 	H 	0.9558	0.3894	0.5148	0.065
Mof_H 	H 	0.9868	0.2672	0.5692	0.088
Mof_H 	H 	0.8616	0.2204	0.39	0.064
Mof_H 	H 	0.8802	0.2472	0.3292	0.056
Mof_H 	H 	0.9774	0.1678	0.3248	0.057
Mof_H 	H 	0.9558	0.14	0.3894	0.065
Mof_H 	H 	0.9868	0.1768	0.2672	0.088
Mof_H 	H 	0.39	0.528	0.8616	0.064
Mof_H 	H 	0.3292	0.5434	0.8802	0.056
Mof_H 	H 	0.3248	0.53	0.9774	0.057
Mof_H 	H 	0.3894	0.5148	0.9558	0.065
Mof_H 	H 	0.2672	0.5692	0.9868	0.088
Mof_H 	H 	0.2204	0.8616	0.528	0.064
Mof_H 	H 	0.2472	0.8802	0.5434	0.056
Mof_H 	H 	0.1678	0.9774	0.53	0.057
Mof_H 	H 	0.14	0.9558	0.5148	0.065
Mof_H 	H 	0.1768	0.9868	0.5692	0.088
Mof_H 	H 	0.528	0.39	0.2204	0.064
Mof_H 	H 	0.5434	0.3292	0.2472	0.056
Mof_H 	H 	0.53	0.3248	0.1678	0.057
Mof_H 	H 	0.5148	0.3894	0.14	0.065
Mof_H 	H 	0.5692	0.2672	0.1768	0.088
Mof_H 	H 	0.39	0.2204	0.528	0.064
Mof_H 	H 	0.3292	0.2472	0.5434	0.056
Mof_H 	H 	0.3248	0.1678	0.53	0.057
Mof_H 	H 	0.3894	0.14	0.5148	0.065
Mof_H 	H 	0.2672	0.1768	0.5692	0.088
Mof_H 	H 	0.8616	0.528	0.2204	0.064
Mof_H 	H 	0.8802	0.5434	0.2472	0.056
Mof_H 	H 	0.9774	0.53	0.1678	0.057
Mof_H 	H 	0.9558	0.5148	0.14	0.065
Mof_H 	H 	0.9868	0.5692	0.1768	0.088
Mof_H 	H 	0.528	0.8616	0.39	0.064
Mof_H 	H 	0.5434	0.8802	0.3292	0.056
Mof_H 	H 	0.53	0.9774	0.3248	0.057
Mof_H 	H 	0.5148	0.9558	0.3894	0.065
Mof_H 	H 	0.5692	0.9868	0.2672	0.088
Mof_H 	H 	0.2204	0.39	0.8616	0.064
Mof_H 	H 	0.2472	0.3292	0.8802	0.056
Mof_H 	H 	0.1678	0.3248	0.9774	0.057
Mof_H 	H 	0.14	0.3894	0.9558	0.065
Mof_H 	H 	0.1768	0.2672	0.9868	0.088
Mof_H 	H 	0.2204	0.528	0.8616	0.064
Mof_H 	H 	0.2472	0.5434	0.8802	0.056
Mof_H 	H 	0.1678	0.53	0.9774	0.057
Mof_H 	H 	0.14	0.5148	0.9558	0.065
Mof_H 	H 	0.1768	0.5692	0.9868	0.088
Mof_H 	H 	0.528	0.2204	0.39	0.064
Mof_H 	H 	0.5434	0.2472	0.3292	0.056
Mof_H 	H 	0.53	0.1678	0.3248	0.057
Mof_H 	H 	0.5148	0.14	0.3894	0.065
Mof_H 	H 	0.5692	0.1768	0.2672	0.088
Mof_H 	H 	0.8616	0.39	0.2204	0.064
Mof_H 	H 	0.8802	0.3292	0.2472	0.056
Mof_H 	H 	0.9774	0.3248	0.1678	0.057
Mof_H 	H 	0.9558	0.3894	0.14	0.065
Mof_H 	H 	0.9868	0.2672	0.1768	0.088
Mof_H 	H 	0.39	0.8616	0.528	0.064
Mof_H 	H 	0.3292	0.8802	0.5434	0.056
Mof_H 	H 	0.3248	0.9774	0.53	0.057
Mof_H 	H 	0.3894	0.9558	0.5148	0.065
Mof_H 	H 	0.2672	0.9868	0.5692	0.088
Mof_H 	H 	0.2204	0.8616	0.39	0.064
Mof_H 	H 	0.2472	0.8802	0.3292	0.056
Mof_H 	H 	0.1678	0.9774	0.3248	0.057
Mof_H 	H 	0.14	0.9558	0.3894	0.065
Mof_H 	H 	0.1768	0.9868	0.2672	0.088
Mof_H 	H 	0.528	0.39	0.8616	0.064
Mof_H 	H 	0.5434	0.3292	0.8802	0.056
Mof_H 	H 	0.53	0.3248	0.9774	0.057
Mof_H 	H 	0.5148	0.3894	0.9558	0.065
Mof_H 	H 	0.5692	0.2672	0.9868	0.088
Mof_H 	H 	0.8616	0.2204	0.528	0.064
Mof_H 	H 	0.8802	0.2472	0.5434	0.056
Mof_H 	H 	0.9774	0.1678	0.53	0.057
Mof_H 	H 	0.9558	0.14	0.5148	0.065
Mof_H 	H 	0.9868	0.1768	0.5692	0.088
Mof_H 	H 	0.39	0.528	0.2204	0.064
Mof_H 	H 	0.3292	0.5434	0.2472	0.056
Mof_H 	H 	0.3248	0.53	0.1678	0.057
Mof_H 	H 	0.3894	0.5148	0.14	0.065
Mof_H 	H 	0.2672	0.5692	0.1768	0.088
Mof_H 	H 	0.2204	0.39	0.528	0.064
Mof_H 	H 	0.2472	0.3292	0.5434	0.056
Mof_H 	H 	0.1678	0.3248	0.53	0.057
Mof_H 	H 	0.14	0.3894	0.5148	0.065
Mof_H 	H 	0.1768	0.2672	0.5692	0.088
Mof_H 	H 	0.528	0.8616	0.2204	0.064
Mof_H 	H 	0.5434	0.8802	0.2472	0.056
Mof_H 	H 	0.53	0.9774	0.1678	0.057
Mof_H 	H 	0.5148	0.9558	0.14	0.065
Mof_H 	H 	0.5692	0.9868	0.1768	0.088
Mof_H 	H 	0.8616	0.528	0.39	0.064
Mof_H 	H 	0.8802	0.5434	0.3292	0.056
Mof_H 	H 	0.9774	0.53	0.3248	0.057
Mof_H 	H 	0.9558	0.5148	0.3894	0.065
Mof_H 	H 	0.9868	0.5692	0.2672	0.088
Mof_H 	H 	0.39	0.2204	0.8616	0.064
Mof_H 	H 	0.3292	0.2472	0.8802	0.056
Mof_H 	H 	0.3248	0.1678	0.9774	0.057
Mof_H 	H 	0.3894	0.14	0.9558	0.065
Mof_H 	H 	0.2672	0.1768	0.9868	0.088
Mof_H 	H 	0.472	0.7796	0.1384	0.064
Mof_H 	H 	0.4566	0.7528	0.1198	0.056
Mof_H 	H 	0.47	0.8322	0.0226	0.057
Mof_H 	H 	0.4852	0.86	0.0442	0.065
Mof_H 	H 	0.4308	0.8232	0.0132	0.088
Mof_H 	H 	0.7796	0.472	0.61	0.064
Mof_H 	H 	0.7528	0.4566	0.6708	0.056
Mof_H 	H 	0.8322	0.47	0.6752	0.057
Mof_H 	H 	0.86	0.4852	0.6106	0.065
Mof_H 	H 	0.8232	0.4308	0.7328	0.088
Mof_H 	H 	0.61	0.1384	0.7796	0.064
Mof_H 	H 	0.6708	0.1198	0.7528	0.056
Mof_H 	H 	0.6752	0.0226	0.8322	0.057
Mof_H 	H 	0.6106	0.0442	0.86	0.065
Mof_H 	H 	0.7328	0.0132	0.8232	0.088
Mof_H 	H 	0.1384	0.61	0.472	0.064
Mof_H 	H 	0.1198	0.6708	0.4566	0.056
Mof_H 	H 	0.0226	0.6752	0.47	0.057
Mof_H 	H 	0.0442	0.6106	0.4852	0.065
Mof_H 	H 	0.0132	0.7328	0.4308	0.088
Mof_H 	H 	0.1384	0.7796	0.61	0.064
Mof_H 	H 	0.1198	0.7528	0.6708	0.056
Mof_H 	H 	0.0226	0.8322	0.6752	0.057
Mof_H 	H 	0.0442	0.86	0.6106	0.065
Mof_H 	H 	0.0132	0.8232	0.7328	0.088
Mof_H 	H 	0.61	0.472	0.1384	0.064
Mof_H 	H 	0.6708	0.4566	0.1198	0.056
Mof_H 	H 	0.6752	0.47	0.0226	0.057
Mof_H 	H 	0.6106	0.4852	0.0442	0.065
Mof_H 	H 	0.7328	0.4308	0.0132	0.088
Mof_H 	H 	0.7796	0.1384	0.472	0.064
Mof_H 	H 	0.7528	0.1198	0.4566	0.056
Mof_H 	H 	0.8322	0.0226	0.47	0.057
Mof_H 	H 	0.86	0.0442	0.4852	0.065
Mof_H 	H 	0.8232	0.0132	0.4308	0.088
Mof_H 	H 	0.472	0.61	0.7796	0.064
Mof_H 	H 	0.4566	0.6708	0.7528	0.056
Mof_H 	H 	0.47	0.6752	0.8322	0.057
Mof_H 	H 	0.4852	0.6106	0.86	0.065
Mof_H 	H 	0.4308	0.7328	0.8232	0.088
Mof_H 	H 	0.61	0.7796	0.472	0.064
Mof_H 	H 	0.6708	0.7528	0.4566	0.056
Mof_H 	H 	0.6752	0.8322	0.47	0.057
Mof_H 	H 	0.6106	0.86	0.4852	0.065
Mof_H 	H 	0.7328	0.8232	0.4308	0.088
Mof_H 	H 	0.1384	0.472	0.7796	0.064
Mof_H 	H 	0.1198	0.4566	0.7528	0.056
Mof_H 	H 	0.0226	0.47	0.8322	0.057
Mof_H 	H 	0.0442	0.4852	0.86	0.065
Mof_H 	H 	0.0132	0.4308	0.8232	0.088
Mof_H 	H 	0.472	0.1384	0.61	0.064
Mof_H 	H 	0.4566	0.1198	0.6708	0.056
Mof_H 	H 	0.47	0.0226	0.6752	0.057
Mof_H 	H 	0.4852	0.0442	0.6106	0.065
Mof_H 	H 	0.4308	0.0132	0.7328	0.088
Mof_H 	H 	0.7796	0.61	0.1384	0.064
Mof_H 	H 	0.7528	0.6708	0.1198	0.056
Mof_H 	H 	0.8322	0.6752	0.0226	0.057
Mof_H 	H 	0.86	0.6106	0.0442	0.065
Mof_H 	H 	0.8232	0.7328	0.0132	0.088
Mof_H 	H 	0.7241	0.4661	0.0857	0.079
Mof_H 	H 	0.4661	0.7241	0.7241	0.079
Mof_H 	H 	0.0857	0.7241	0.7241	0.079
Mof_H 	H 	0.7241	0.0857	0.4661	0.079
Mof_H 	H 	0.7241	0.0857	0.7241	0.079
Mof_H 	H 	0.4661	0.7241	0.0857	0.079
Mof_H 	H 	0.0857	0.7241	0.4661	0.079
Mof_H 	H 	0.7241	0.4661	0.7241	0.079
Mof_H 	H 	0.7241	0.7241	0.4661	0.079
Mof_H 	H 	0.4661	0.0857	0.7241	0.079
Mof_H 	H 	0.0857	0.4661	0.7241	0.079
Mof_H 	H 	0.7241	0.7241	0.0857	0.079
Mof_H 	H 	0.5339	0.2759	0.9143	0.079
Mof_H 	H 	0.2759	0.5339	0.2759	0.079
Mof_H 	H 	0.2759	0.9143	0.2759	0.079
Mof_H 	H 	0.9143	0.2759	0.5339	0.079
Mof_H 	H 	0.9143	0.2759	0.2759	0.079
Mof_H 	H 	0.2759	0.5339	0.9143	0.079
Mof_H 	H 	0.2759	0.9143	0.5339	0.079
Mof_H 	H 	0.5339	0.2759	0.2759	0.079
Mof_H 	H 	0.2759	0.2759	0.5339	0.079
Mof_H 	H 	0.9143	0.5339	0.2759	0.079
Mof_H 	H 	0.5339	0.9143	0.2759	0.079
Mof_H 	H 	0.2759	0.2759	0.9143	0.079
Mof_C 	C 	0.8384	0.4888	0.1066	0.294
Mof_C 	C 	0.821	0.4794	0.0916	-0.037
Mof_C 	C 	0.7899	0.4713	0.1145	-0.008
Mof_C 	C 	0.7745	0.4621	0.1035	-0.058
Mof_C 	C 	0.7884	0.4606	0.0694	0.01
Mof_C 	C 	0.8213	0.4701	0.0467	-0.053
Mof_C 	C 	0.8383	0.4795	0.0589	-0.015
Mof_C 	C 	0.7758	0.4494	0.0512	0.072
Mof_C 	C 	0.7977	0.4357	0.0229	-0.121
Mof_C 	C 	0.4888	0.8384	0.5662	0.294
Mof_C 	C 	0.4794	0.821	0.608	-0.037
Mof_C 	C 	0.4713	0.7899	0.6243	-0.008
Mof_C 	C 	0.4621	0.7745	0.6599	-0.058
Mof_C 	C 	0.4606	0.7884	0.6816	0.01
Mof_C 	C 	0.4701	0.8213	0.6619	-0.053
Mof_C 	C 	0.4795	0.8383	0.6233	-0.015
Mof_C 	C 	0.4494	0.7758	0.7236	0.072
Mof_C 	C 	0.4357	0.7977	0.7437	-0.121
Mof_C 	C 	0.1066	0.5662	0.8384	0.294
Mof_C 	C 	0.0916	0.608	0.821	-0.037
Mof_C 	C 	0.1145	0.6243	0.7899	-0.008
Mof_C 	C 	0.1035	0.6599	0.7745	-0.058
Mof_C 	C 	0.0694	0.6816	0.7884	0.01
Mof_C 	C 	0.0467	0.6619	0.8213	-0.053
Mof_C 	C 	0.0589	0.6233	0.8383	-0.015
Mof_C 	C 	0.0512	0.7236	0.7758	0.072
Mof_C 	C 	0.0229	0.7437	0.7977	-0.121
Mof_C 	C 	0.5662	0.1066	0.4888	0.294
Mof_C 	C 	0.608	0.0916	0.4794	-0.037
Mof_C 	C 	0.6243	0.1145	0.4713	-0.008
Mof_C 	C 	0.6599	0.1035	0.4621	-0.058
Mof_C 	C 	0.6816	0.0694	0.4606	0.01
Mof_C 	C 	0.6619	0.0467	0.4701	-0.053
Mof_C 	C 	0.6233	0.0589	0.4795	-0.015
Mof_C 	C 	0.7236	0.0512	0.4494	0.072
Mof_C 	C 	0.7437	0.0229	0.4357	-0.121
Mof_C 	C 	0.8384	0.1066	0.5662	0.294
Mof_C 	C 	0.821	0.0916	0.608	-0.037
Mof_C 	C 	0.7899	0.1145	0.6243	-0.008
Mof_C 	C 	0.7745	0.1035	0.6599	-0.058
Mof_C 	C 	0.7884	0.0694	0.6816	0.01
Mof_C 	C 	0.8213	0.0467	0.6619	-0.053
Mof_C 	C 	0.8383	0.0589	0.6233	-0.015
Mof_C 	C 	0.7758	0.0512	0.7236	0.072
Mof_C 	C 	0.7977	0.0229	0.7437	-0.121
Mof_C 	C 	0.4888	0.5662	0.1066	0.294
Mof_C 	C 	0.4794	0.608	0.0916	-0.037
Mof_C 	C 	0.4713	0.6243	0.1145	-0.008
Mof_C 	C 	0.4621	0.6599	0.1035	-0.058
Mof_C 	C 	0.4606	0.6816	0.0694	0.01
Mof_C 	C 	0.4701	0.6619	0.0467	-0.053
Mof_C 	C 	0.4795	0.6233	0.0589	-0.015
Mof_C 	C 	0.4494	0.7236	0.0512	0.072
Mof_C 	C 	0.4357	0.7437	0.0229	-0.121
Mof_C 	C 	0.1066	0.8384	0.4888	0.294
Mof_C 	C 	0.0916	0.821	0.4794	-0.037
Mof_C 	C 	0.1145	0.7899	0.4713	-0.008
Mof_C 	C 	0.1035	0.7745	0.4621	-0.058
Mof_C 	C 	0.0694	0.7884	0.4606	0.01
Mof_C 	C 	0.0467	0.8213	0.4701	-0.053
Mof_C 	C 	0.0589	0.8383	0.4795	-0.015
Mof_C 	C 	0.0512	0.7758	0.4494	0.072
Mof_C 	C 	0.0229	0.7977	0.4357	-0.121
Mof_C 	C 	0.5662	0.4888	0.8384	0.294
Mof_C 	C 	0.608	0.4794	0.821	-0.037
Mof_C 	C 	0.6243	0.4713	0.7899	-0.008
Mof_C 	C 	0.6599	0.4621	0.7745	-0.058
Mof_C 	C 	0.6816	0.4606	0.7884	0.01
Mof_C 	C 	0.6619	0.4701	0.8213	-0.053
Mof_C 	C 	0.6233	0.4795	0.8383	-0.015
Mof_C 	C 	0.7236	0.4494	0.7758	0.072
Mof_C 	C 	0.7437	0.4357	0.7977	-0.121
Mof_C 	C 	0.8384	0.5662	0.4888	0.294
Mof_C 	C 	0.821	0.608	0.4794	-0.037
Mof_C 	C 	0.7899	0.6243	0.4713	-0.008
Mof_C 	C 	0.7745	0.6599	0.4621	-0.058
Mof_C 	C 	0.7884	0.6816	0.4606	0.01
Mof_C 	C 	0.8213	0.6619	0.4701	-0.053
Mof_C 	C 	0.8383	0.6233	0.4795	-0.015
Mof_C 	C 	0.7758	0.7236	0.4494	0.072
Mof_C 	C 	0.7977	0.7437	0.4357	-0.121
Mof_C 	C 	0.4888	0.1066	0.8384	0.294
Mof_C 	C 	0.4794	0.0916	0.821	-0.037
Mof_C 	C 	0.4713	0.1145	0.7899	-0.008
Mof_C 	C 	0.4621	0.1035	0.7745	-0.058
Mof_C 	C 	0.4606	0.0694	0.7884	0.01
Mof_C 	C 	0.4701	0.0467	0.8213	-0.053
Mof_C 	C 	0.4795	0.0589	0.8383	-0.015
Mof_C 	C 	0.4494	0.0512	0.7758	0.072
Mof_C 	C 	0.4357	0.0229	0.7977	-0.121
Mof_C 	C 	0.1066	0.4888	0.5662	0.294
Mof_C 	C 	0.0916	0.4794	0.608	-0.037
Mof_C 	C 	0.1145	0.4713	0.6243	-0.008
Mof_C 	C 	0.1035	0.4621	0.6599	-0.058
Mof_C 	C 	0.0694	0.4606	0.6816	0.01
Mof_C 	C 	0.0467	0.4701	0.6619	-0.053
Mof_C 	C 	0.0589	0.4795	0.6233	-0.015
Mof_C 	C 	0.0512	0.4494	0.7236	0.072
Mof_C 	C 	0.0229	0.4357	0.7437	-0.121
Mof_C 	C 	0.5662	0.8384	0.1066	0.294
Mof_C 	C 	0.608	0.821	0.0916	-0.037
Mof_C 	C 	0.6243	0.7899	0.1145	-0.008
Mof_C 	C 	0.6599	0.7745	0.1035	-0.058
Mof_C 	C 	0.6816	0.7884	0.0694	0.01
Mof_C 	C 	0.6619	0.8213	0.0467	-0.053
Mof_C 	C 	0.6233	0.8383	0.0589	-0.015
Mof_C 	C 	0.7236	0.7758	0.0512	0.072
Mof_C 	C 	0.7437	0.7977	0.0229	-0.121
Mof_C 	C 	0.5112	0.1616	0.8934	0.294
Mof_C 	C 	0.5206	0.179	0.9084	-0.037
Mof_C 	C 	0.5287	0.2101	0.8855	-0.008
Mof_C 	C 	0.5379	0.2255	0.8965	-0.058
Mof_C 	C 	0.5394	0.2116	0.9306	0.01
Mof_C 	C 	0.5299	0.1787	0.9533	-0.053
Mof_C 	C 	0.5205	0.1617	0.9411	-0.015
Mof_C 	C 	0.5506	0.2242	0.9488	0.072
Mof_C 	C 	0.5643	0.2023	0.9771	-0.121
Mof_C 	C 	0.1616	0.5112	0.4338	0.294
Mof_C 	C 	0.179	0.5206	0.392	-0.037
Mof_C 	C 	0.2101	0.5287	0.3757	-0.008
Mof_C 	C 	0.2255	0.5379	0.3401	-0.058
Mof_C 	C 	0.2116	0.5394	0.3184	0.01
Mof_C 	C 	0.1787	0.5299	0.3381	-0.053
Mof_C 	C 	0.1617	0.5205	0.3767	-0.015
Mof_C 	C 	0.2242	0.5506	0.2764	0.072
Mof_C 	C 	0.2023	0.5643	0.2563	-0.121
Mof_C 	C 	0.4338	0.8934	0.1616	0.294
Mof_C 	C 	0.392	0.9084	0.179	-0.037
Mof_C 	C 	0.3757	0.8855	0.2101	-0.008
Mof_C 	C 	0.3401	0.8965	0.2255	-0.058
Mof_C 	C 	0.3184	0.9306	0.2116	0.01
Mof_C 	C 	0.3381	0.9533	0.1787	-0.053
Mof_C 	C 	0.3767	0.9411	0.1617	-0.015
Mof_C 	C 	0.2764	0.9488	0.2242	0.072
Mof_C 	C 	0.2563	0.9771	0.2023	-0.121
Mof_C 	C 	0.8934	0.4338	0.5112	0.294
Mof_C 	C 	0.9084	0.392	0.5206	-0.037
Mof_C 	C 	0.8855	0.3757	0.5287	-0.008
Mof_C 	C 	0.8965	0.3401	0.5379	-0.058
Mof_C 	C 	0.9306	0.3184	0.5394	0.01
Mof_C 	C 	0.9533	0.3381	0.5299	-0.053
Mof_C 	C 	0.9411	0.3767	0.5205	-0.015
Mof_C 	C 	0.9488	0.2764	0.5506	0.072
Mof_C 	C 	0.9771	0.2563	0.5643	-0.121
Mof_C 	C 	0.8934	0.1616	0.4338	0.294
Mof_C 	C 	0.9084	0.179	0.392	-0.037
Mof_C 	C 	0.8855	0.2101	0.3757	-0.008
Mof_C 	C 	0.8965	0.2255	0.3401	-0.058
Mof_C 	C 	0.9306	0.2116	0.3184	0.01
Mof_C 	C 	0.9533	0.1787	0.3381	-0.053
Mof_C 	C 	0.9411	0.1617	0.3767	-0.015
Mof_C 	C 	0.9488	0.2242	0.2764	0.072
Mof_C 	C 	0.9771	0.2023	0.2563	-0.121
Mof_C 	C 	0.4338	0.5112	0.8934	0.294
Mof_C 	C 	0.392	0.5206	0.9084	-0.037
Mof_C 	C 	0.3757	0.5287	0.8855	-0.008
Mof_C 	C 	0.3401	0.5379	0.8965	-0.058
Mof_C 	C 	0.3184	0.5394	0.9306	0.01
Mof_C 	C 	0.3381	0.5299	0.9533	-0.053
Mof_C 	C 	0.3767	0.5205	0.9411	-0.015
Mof_C 	C 	0.2764	0.5506	0.9488	0.072
Mof_C 	C 	0.2563	0.5643	0.9771	-0.121
Mof_C 	C 	0.1616	0.8934	0.5112	0.294
Mof_C 	C 	0.179	0.9084	0.5206	-0.037
Mof_C 	C 	0.2101	0.8855	0.5287	-0.008
Mof_C 	C 	0.2255	0.8965	0.5379	-0.058
Mof_C 	C 	0.2116	0.9306	0.5394	0.01
Mof_C 	C 	0.1787	0.9533	0.5299	-0.053
Mof_C 	C 	0.1617	0.9411	0.5205	-0.015
Mof_C 	C 	0.2242	0.9488	0.5506	0.072
Mof_C 	C 	0.2023	0.9771	0.5643	-0.121
Mof_C 	C 	0.5112	0.4338	0.1616	0.294
Mof_C 	C 	0.5206	0.392	0.179	-0.037
Mof_C 	C 	0.5287	0.3757	0.2101	-0.008
Mof_C 	C 	0.5379	0.3401	0.2255	-0.058
Mof_C 	C 	0.5394	0.3184	0.2116	0.01
Mof_C 	C 	0.5299	0.3381	0.1787	-0.053
Mof_C 	C 	0.5205	0.3767	0.1617	-0.015
Mof_C 	C 	0.5506	0.2764	0.2242	0.072
Mof_C 	C 	0.5643	0.2563	0.2023	-0.121
Mof_C 	C 	0.4338	0.1616	0.5112	0.294
Mof_C 	C 	0.392	0.179	0.5206	-0.037
Mof_C 	C 	0.3757	0.2101	0.5287	-0.008
Mof_C 	C 	0.3401	0.2255	0.5379	-0.058
Mof_C 	C 	0.3184	0.2116	0.5394	0.01
Mof_C 	C 	0.3381	0.1787	0.5299	-0.053
Mof_C 	C 	0.3767	0.1617	0.5205	-0.015
Mof_C 	C 	0.2764	0.2242	0.5506	0.072
Mof_C 	C 	0.2563	0.2023	0.5643	-0.121
Mof_C 	C 	0.8934	0.5112	0.1616	0.294
Mof_C 	C 	0.9084	0.5206	0.179	-0.037
Mof_C 	C 	0.8855	0.5287	0.2101	-0.008
Mof_C 	C 	0.8965	0.5379	0.2255	-0.058
Mof_C 	C 	0.9306	0.5394	0.2116	0.01
Mof_C 	C 	0.9533	0.5299	0.1787	-0.053
Mof_C 	C 	0.9411	0.5205	0.1617	-0.015
Mof_C 	C 	0.9488	0.5506	0.2242	0.072
Mof_C 	C 	0.9771	0.5643	0.2023	-0.121
Mof_C 	C 	0.5112	0.8934	0.4338	0.294
Mof_C 	C 	0.5206	0.9084	0.392	-0.037
Mof_C 	C 	0.5287	0.8855	0.3757	-0.008
Mof_C 	C 	0.5379	0.8965	0.3401	-0.058
Mof_C 	C 	0.5394	0.9306	0.3184	0.01
Mof_C 	C 	0.5299	0.9533	0.3381	-0.053
Mof_C 	C 	0.5205	0.9411	0.3767	-0.015
Mof_C 	C 	0.5506	0.9488	0.2764	0.072
Mof_C 	C 	0.5643	0.9771	0.2563	-0.121
Mof_C 	C 	0.1616	0.4338	0.8934	0.294
Mof_C 	C 	0.179	0.392	0.9084	-0.037
Mof_C 	C 	0.2101	0.3757	0.8855	-0.008
Mof_C 	C 	0.2255	0.3401	0.8965	-0.058
Mof_C 	C 	0.2116	0.3184	0.9306	0.01
Mof_C 	C 	0.1787	0.3381	0.9533	-0.053
Mof_C 	C 	0.1617	0.3767	0.9411	-0.015
Mof_C 	C 	0.2242	0.2764	0.9488	0.072
Mof_C 	C 	0.2023	0.2563	0.9771	-0.121
Mof_C 	C 	0.1616	0.5112	0.8934	0.294
Mof_C 	C 	0.179	0.5206	0.9084	-0.037
Mof_C 	C 	0.2101	0.5287	0.8855	-0.008
Mof_C 	C 	0.2255	0.5379	0.8965	-0.058
Mof_C 	C 	0.2116	0.5394	0.9306	0.01
Mof_C 	C 	0.1787	0.5299	0.9533	-0.053
Mof_C 	C 	0.1617	0.5205	0.9411	-0.015
Mof_C 	C 	0.2242	0.5506	0.9488	0.072
Mof_C 	C 	0.2023	0.5643	0.9771	-0.121
Mof_C 	C 	0.5112	0.1616	0.4338	0.294
Mof_C 	C 	0.5206	0.179	0.392	-0.037
Mof_C 	C 	0.5287	0.2101	0.3757	-0.008
Mof_C 	C 	0.5379	0.2255	0.3401	-0.058
Mof_C 	C 	0.5394	0.2116	0.3184	0.01
Mof_C 	C 	0.5299	0.1787	0.3381	-0.053
Mof_C 	C 	0.5205	0.1617	0.3767	-0.015
Mof_C 	C 	0.5506	0.2242	0.2764	0.072
Mof_C 	C 	0.5643	0.2023	0.2563	-0.121
Mof_C 	C 	0.8934	0.4338	0.1616	0.294
Mof_C 	C 	0.9084	0.392	0.179	-0.037
Mof_C 	C 	0.8855	0.3757	0.2101	-0.008
Mof_C 	C 	0.8965	0.3401	0.2255	-0.058
Mof_C 	C 	0.9306	0.3184	0.2116	0.01
Mof_C 	C 	0.9533	0.3381	0.1787	-0.053
Mof_C 	C 	0.9411	0.3767	0.1617	-0.015
Mof_C 	C 	0.9488	0.2764	0.2242	0.072
Mof_C 	C 	0.9771	0.2563	0.2023	-0.121
Mof_C 	C 	0.4338	0.8934	0.5112	0.294
Mof_C 	C 	0.392	0.9084	0.5206	-0.037
Mof_C 	C 	0.3757	0.8855	0.5287	-0.008
Mof_C 	C 	0.3401	0.8965	0.5379	-0.058
Mof_C 	C 	0.3184	0.9306	0.5394	0.01
Mof_C 	C 	0.3381	0.9533	0.5299	-0.053
Mof_C 	C 	0.3767	0.9411	0.5205	-0.015
Mof_C 	C 	0.2764	0.9488	0.5506	0.072
Mof_C 	C 	0.2563	0.9771	0.5643	-0.121
Mof_C 	C 	0.1616	0.8934	0.4338	0.294
Mof_C 	C 	0.179	0.9084	0.392	-0.037
Mof_C 	C 	0.2101	0.8855	0.3757	-0.008
Mof_C 	C 	0.2255	0.8965	0.3401	-0.058
Mof_C 	C 	0.2116	0.9306	0.3184	0.01
Mof_C 	C 	0.1787	0.9533	0.3381	-0.053
Mof_C 	C 	0.1617	0.9411	0.3767	-0.015
Mof_C 	C 	0.2242	0.9488	0.2764	0.072
Mof_C 	C 	0.2023	0.9771	0.2563	-0.121
Mof_C 	C 	0.5112	0.4338	0.8934	0.294
Mof_C 	C 	0.5206	0.392	0.9084	-0.037
Mof_C 	C 	0.5287	0.3757	0.8855	-0.008
Mof_C 	C 	0.5379	0.3401	0.8965	-0.058
Mof_C 	C 	0.5394	0.3184	0.9306	0.01
Mof_C 	C 	0.5299	0.3381	0.9533	-0.053
Mof_C 	C 	0.5205	0.3767	0.9411	-0.015
Mof_C 	C 	0.5506	0.2764	0.9488	0.072
Mof_C 	C 	0.5643	0.2563	0.9771	-0.121
Mof_C 	C 	0.8934	0.1616	0.5112	0.294
Mof_C 	C 	0.9084	0.179	0.5206	-0.037
Mof_C 	C 	0.8855	0.2101	0.5287	-0.008
Mof_C 	C 	0.8965	0.2255	0.5379	-0.058
Mof_C 	C 	0.9306	0.2116	0.5394	0.01
Mof_C 	C 	0.9533	0.1787	0.5299	-0.053
Mof_C 	C 	0.9411	0.1617	0.5205	-0.015
Mof_C 	C 	0.9488	0.2242	0.5506	0.072
Mof_C 	C 	0.9771	0.2023	0.5643	-0.121
Mof_C 	C 	0.4338	0.5112	0.1616	0.294
Mof_C 	C 	0.392	0.5206	0.179	-0.037
Mof_C 	C 	0.3757	0.5287	0.2101	-0.008
Mof_C 	C 	0.3401	0.5379	0.2255	-0.058
Mof_C 	C 	0.3184	0.5394	0.2116	0.01
Mof_C 	C 	0.3381	0.5299	0.1787	-0.053
Mof_C 	C 	0.3767	0.5205	0.1617	-0.015
Mof_C 	C 	0.2764	0.5506	0.2242	0.072
Mof_C 	C 	0.2563	0.5643	0.2023	-0.121
Mof_C 	C 	0.1616	0.4338	0.5112	0.294
Mof_C 	C 	0.179	0.392	0.5206	-0.037
Mof_C 	C 	0.2101	0.3757	0.5287	-0.008
Mof_C 	C 	0.2255	0.3401	0.5379	-0.058
Mof_C 	C 	0.2116	0.3184	0.5394	0.01
Mof_C 	C 	0.1787	0.3381	0.5299	-0.053
Mof_C 	C 	0.1617	0.3767	0.5205	-0.015
Mof_C 	C 	0.2242	0.2764	0.5506	0.072
Mof_C 	C 	0.2023	0.2563	0.5643	-0.121
Mof_C 	C 	0.5112	0.8934	0.1616	0.294
Mof_C 	C 	0.5206	0.9084	0.179	-0.037
Mof_C 	C 	0.5287	0.8855	0.2101	-0.008
Mof_C 	C 	0.5379	0.8965	0.2255	-0.058
Mof_C 	C 	0.5394	0.9306	0.2116	0.01
Mof_C 	C 	0.5299	0.9533	0.1787	-0.053
Mof_C 	C 	0.5205	0.9411	0.1617	-0.015
Mof_C 	C 	0.5506	0.9488	0.2242	0.072
Mof_C 	C 	0.5643	0.9771	0.2023	-0.121
Mof_C 	C 	0.8934	0.5112	0.4338	0.294
Mof_C 	C 	0.9084	0.5206	0.392	-0.037
Mof_C 	C 	0.8855	0.5287	0.3757	-0.008
Mof_C 	C 	0.8965	0.5379	0.3401	-0.058
Mof_C 	C 	0.9306	0.5394	0.3184	0.01
Mof_C 	C 	0.9533	0.5299	0.3381	-0.053
Mof_C 	C 	0.9411	0.5205	0.3767	-0.015
Mof_C 	C 	0.9488	0.5506	0.2764	0.072
Mof_C 	C 	0.9771	0.5643	0.2563	-0.121
Mof_C 	C 	0.4338	0.1616	0.8934	0.294
Mof_C 	C 	0.392	0.179	0.9084	-0.037
Mof_C 	C 	0.3757	0.2101	0.8855	-0.008
Mof_C 	C 	0.3401	0.2255	0.8965	-0.058
Mof_C 	C 	0.3184	0.2116	0.9306	0.01
Mof_C 	C 	0.3381	0.1787	0.9533	-0.053
Mof_C 	C 	0.3767	0.1617	0.9411	-0.015
Mof_C 	C 	0.2764	0.2242	0.9488	0.072
Mof_C 	C 	0.2563	0.2023	0.9771	-0.121
Mof_C 	C 	0.4888	0.8384	0.1066	0.294
Mof_C 	C 	0.4794	0.821	0.0916	-0.037
Mof_C 	C 	0.4713	0.7899	0.1145	-0.008
Mof_C 	C 	0.4621	0.7745	0.1035	-0.058
Mof_C 	C 	0.4606	0.7884	0.0694	0.01
Mof_C 	C 	0.4701	0.8213	0.0467	-0.053
Mof_C 	C 	0.4795	0.8383	0.0589	-0.015
Mof_C 	C 	0.4494	0.7758	0.0512	0.072
Mof_C 	C 	0.4357	0.7977	0.0229	-0.121
Mof_C 	C 	0.8384	0.4888	0.5662	0.294
Mof_C 	C 	0.821	0.4794	0.608	-0.037
Mof_C 	C 	0.7899	0.4713	0.6243	-0.008
Mof_C 	C 	0.7745	0.4621	0.6599	-0.058
Mof_C 	C 	0.7884	0.4606	0.6816	0.01
Mof_C 	C 	0.8213	0.4701	0.6619	-0.053
Mof_C 	C 	0.8383	0.4795	0.6233	-0.015
Mof_C 	C 	0.7758	0.4494	0.7236	0.072
Mof_C 	C 	0.7977	0.4357	0.7437	-0.121
Mof_C 	C 	0.5662	0.1066	0.8384	0.294
Mof_C 	C 	0.608	0.0916	0.821	-0.037
Mof_C 	C 	0.6243	0.1145	0.7899	-0.008
Mof_C 	C 	0.6599	0.1035	0.7745	-0.058
Mof_C 	C 	0.6816	0.0694	0.7884	0.01
Mof_C 	C 	0.6619	0.0467	0.8213	-0.053
Mof_C 	C 	0.6233	0.0589	0.8383	-0.015
Mof_C 	C 	0.7236	0.0512	0.7758	0.072
Mof_C 	C 	0.7437	0.0229	0.7977	-0.121
Mof_C 	C 	0.1066	0.5662	0.4888	0.294
Mof_C 	C 	0.0916	0.608	0.4794	-0.037
Mof_C 	C 	0.1145	0.6243	0.4713	-0.008
Mof_C 	C 	0.1035	0.6599	0.4621	-0.058
Mof_C 	C 	0.0694	0.6816	0.4606	0.01
Mof_C 	C 	0.0467	0.6619	0.4701	-0.053
Mof_C 	C 	0.0589	0.6233	0.4795	-0.015
Mof_C 	C 	0.0512	0.7236	0.4494	0.072
Mof_C 	C 	0.0229	0.7437	0.4357	-0.121
Mof_C 	C 	0.1066	0.8384	0.5662	0.294
Mof_C 	C 	0.0916	0.821	0.608	-0.037
Mof_C 	C 	0.1145	0.7899	0.6243	-0.008
Mof_C 	C 	0.1035	0.7745	0.6599	-0.058
Mof_C 	C 	0.0694	0.7884	0.6816	0.01
Mof_C 	C 	0.0467	0.8213	0.6619	-0.053
Mof_C 	C 	0.0589	0.8383	0.6233	-0.015
Mof_C 	C 	0.0512	0.7758	0.7236	0.072
Mof_C 	C 	0.0229	0.7977	0.7437	-0.121
Mof_C 	C 	0.5662	0.4888	0.1066	0.294
Mof_C 	C 	0.608	0.4794	0.0916	-0.037
Mof_C 	C 	0.6243	0.4713	0.1145	-0.008
Mof_C 	C 	0.6599	0.4621	0.1035	-0.058
Mof_C 	C 	0.6816	0.4606	0.0694	0.01
Mof_C 	C 	0.6619	0.4701	0.0467	-0.053
Mof_C 	C 	0.6233	0.4795	0.0589	-0.015
Mof_C 	C 	0.7236	0.4494	0.0512	0.072
Mof_C 	C 	0.7437	0.4357	0.0229	-0.121
Mof_C 	C 	0.8384	0.1066	0.4888	0.294
Mof_C 	C 	0.821	0.0916	0.4794	-0.037
Mof_C 	C 	0.7899	0.1145	0.4713	-0.008
Mof_C 	C 	0.7745	0.1035	0.4621	-0.058
Mof_C 	C 	0.7884	0.0694	0.4606	0.01
Mof_C 	C 	0.8213	0.0467	0.4701	-0.053
Mof_C 	C 	0.8383	0.0589	0.4795	-0.015
Mof_C 	C 	0.7758	0.0512	0.4494	0.072
Mof_C 	C 	0.7977	0.0229	0.4357	-0.121
Mof_C 	C 	0.4888	0.5662	0.8384	0.294
Mof_C 	C 	0.4794	0.608	0.821	-0.037
Mof_C 	C 	0.4713	0.6243	0.7899	-0.008
Mof_C 	C 	0.4621	0.6599	0.7745	-0.058
Mof_C 	C 	0.4606	0.6816	0.7884	0.01
Mof_C 	C 	0.4701	0.6619	0.8213	-0.053
Mof_C 	C 	0.4795	0.6233	0.8383	-0.015
Mof_C 	C 	0.4494	0.7236	0.7758	0.072
Mof_C 	C 	0.4357	0.7437	0.7977	-0.121
Mof_C 	C 	0.5662	0.8384	0.4888	0.294
Mof_C 	C 	0.608	0.821	0.4794	-0.037
Mof_C 	C 	0.6243	0.7899	0.4713	-0.008
Mof_C 	C 	0.6599	0.7745	0.4621	-0.058
Mof_C 	C 	0.6816	0.7884	0.4606	0.01
Mof_C 	C 	0.6619	0.8213	0.4701	-0.053
Mof_C 	C 	0.6233	0.8383	0.4795	-0.015
Mof_C 	C 	0.7236	0.7758	0.4494	0.072
Mof_C 	C 	0.7437	0.7977	0.4357	-0.121
Mof_C 	C 	0.1066	0.4888	0.8384	0.294
Mof_C 	C 	0.0916	0.4794	0.821	-0.037
Mof_C 	C 	0.1145	0.4713	0.7899	-0.008
Mof_C 	C 	0.1035	0.4621	0.7745	-0.058
Mof_C 	C 	0.0694	0.4606	0.7884	0.01
Mof_C 	C 	0.0467	0.4701	0.8213	-0.053
Mof_C 	C 	0.0589	0.4795	0.8383	-0.015
Mof_C 	C 	0.0512	0.4494	0.7758	0.072
Mof_C 	C 	0.0229	0.4357	0.7977	-0.121
Mof_C 	C 	0.4888	0.1066	0.5662	0.294
Mof_C 	C 	0.4794	0.0916	0.608	-0.037
Mof_C 	C 	0.4713	0.1145	0.6243	-0.008
Mof_C 	C 	0.4621	0.1035	0.6599	-0.058
Mof_C 	C 	0.4606	0.0694	0.6816	0.01
Mof_C 	C 	0.4701	0.0467	0.6619	-0.053
Mof_C 	C 	0.4795	0.0589	0.6233	-0.015
Mof_C 	C 	0.4494	0.0512	0.7236	0.072
Mof_C 	C 	0.4357	0.0229	0.7437	-0.121
Mof_C 	C 	0.8384	0.5662	0.1066	0.294
Mof_C 	C 	0.821	0.608	0.0916	-0.037
Mof_C 	C 	0.7899	0.6243	0.1145	-0.008
Mof_C 	C 	0.7745	0.6599	0.1035	-0.058
Mof_C 	C 	0.7884	0.6816	0.0694	0.01
Mof_C 	C 	0.8213	0.6619	0.0467	-0.053
Mof_C 	C 	0.8383	0.6233	0.0589	-0.015
Mof_C 	C 	0.7758	0.7236	0.0512	0.072
Mof_C 	C 	0.7977	0.7437	0.0229	-0.121
Mof_C 	C 	0.7385	0.45662	0.06638	-0.128
Mof_C 	C 	0.7806	0.42934	0.00946	0.063
Mof_C 	C 	0.8008	0.4188	0.9796	0.076
Mof_C 	C 	0.45662	0.7385	0.7385	-0.128
Mof_C 	C 	0.42934	0.7806	0.7806	0.063
Mof_C 	C 	0.4188	0.8008	0.8008	0.076
Mof_C 	C 	0.06638	0.7385	0.7385	-0.128
Mof_C 	C 	0.00946	0.7806	0.7806	0.063
Mof_C 	C 	0.9796	0.8008	0.8008	0.076
Mof_C 	C 	0.7385	0.06638	0.45662	-0.128
Mof_C 	C 	0.7806	0.00946	0.42934	0.063
Mof_C 	C 	0.8008	0.9796	0.4188	0.076
Mof_C 	C 	0.7385	0.06638	0.7385	-0.128
Mof_C 	C 	0.7806	0.00946	0.7806	0.063
Mof_C 	C 	0.8008	0.9796	0.8008	0.076
Mof_C 	C 	0.45662	0.7385	0.06638	-0.128
Mof_C 	C 	0.42934	0.7806	0.00946	0.063
Mof_C 	C 	0.4188	0.8008	0.9796	0.076
Mof_C 	C 	0.06638	0.7385	0.45662	-0.128
Mof_C 	C 	0.00946	0.7806	0.42934	0.063
Mof_C 	C 	0.9796	0.8008	0.4188	0.076
Mof_C 	C 	0.7385	0.45662	0.7385	-0.128
Mof_C 	C 	0.7806	0.42934	0.7806	0.063
Mof_C 	C 	0.8008	0.4188	0.8008	0.076
Mof_C 	C 	0.7385	0.7385	0.45662	-0.128
Mof_C 	C 	0.7806	0.7806	0.42934	0.063
Mof_C 	C 	0.8008	0.8008	0.4188	0.076
Mof_C 	C 	0.45662	0.06638	0.7385	-0.128
Mof_C 	C 	0.42934	0.00946	0.7806	0.063
Mof_C 	C 	0.4188	0.9796	0.8008	0.076
Mof_C 	C 	0.06638	0.45662	0.7385	-0.128
Mof_C 	C 	0.00946	0.42934	0.7806	0.063
Mof_C 	C 	0.9796	0.4188	0.8008	0.076
Mof_C 	C 	0.7385	0.7385	0.06638	-0.128
Mof_C 	C 	0.7806	0.7806	0.00946	0.063
Mof_C 	C 	0.8008	0.8008	0.9796	0.076
Mof_C 	C 	0.54338	0.2615	0.93362	-0.128
Mof_C 	C 	0.57066	0.2194	0.99054	0.063
Mof_C 	C 	0.5812	0.1992	0.0204	0.076
Mof_C 	C 	0.2615	0.54338	0.2615	-0.128
Mof_C 	C 	0.2194	0.57066	0.2194	0.063
Mof_C 	C 	0.1992	0.5812	0.1992	0.076
Mof_C 	C 	0.2615	0.93362	0.2615	-0.128
Mof_C 	C 	0.2194	0.99054	0.2194	0.063
Mof_C 	C 	0.1992	0.0204	0.1992	0.076
Mof_C 	C 	0.93362	0.2615	0.54338	-0.128
Mof_C 	C 	0.99054	0.2194	0.57066	0.063
Mof_C 	C 	0.0204	0.1992	0.5812	0.076
Mof_C 	C 	0.93362	0.2615	0.2615	-0.128
Mof_C 	C 	0.99054	0.2194	0.2194	0.063
Mof_C 	C 	0.0204	0.1992	0.1992	0.076
Mof_C 	C 	0.2615	0.54338	0.93362	-0.128
Mof_C 	C 	0.2194	0.57066	0.99054	0.063
Mof_C 	C 	0.1992	0.5812	0.0204	0.076
Mof_C 	C 	0.2615	0.93362	0.54338	-0.128
Mof_C 	C 	0.2194	0.99054	0.57066	0.063
Mof_C 	C 	0.1992	0.0204	0.5812	0.076
Mof_C 	C 	0.54338	0.2615	0.2615	-0.128
Mof_C 	C 	0.57066	0.2194	0.2194	0.063
Mof_C 	C 	0.5812	0.1992	0.1992	0.076
Mof_C 	C 	0.2615	0.2615	0.54338	-0.128
Mof_C 	C 	0.2194	0.2194	0.57066	0.063
Mof_C 	C 	0.1992	0.1992	0.5812	0.076
Mof_C 	C 	0.93362	0.54338	0.2615	-0.128
Mof_C 	C 	0.99054	0.57066	0.2194	0.063
Mof_C 	C 	0.0204	0.5812	0.1992	0.076
Mof_C 	C 	0.54338	0.93362	0.2615	-0.128
Mof_C 	C 	0.57066	0.99054	0.2194	0.063
Mof_C 	C 	0.5812	0.0204	0.1992	0.076
Mof_C 	C 	0.2615	0.2615	0.93362	-0.128
Mof_C 	C 	0.2194	0.2194	0.99054	0.063
Mof_C 	C 	0.1992	0.1992	0.0204	0.076
Mof_N 	N 	0.8383	0.4111	0.9609	-0.076
Mof_N 	N 	0.8492	0.3996	0.9326	-0.155
Mof_N 	N 	0.4111	0.8383	0.7897	-0.076
Mof_N 	N 	0.3996	0.8492	0.8186	-0.155
Mof_N 	N 	0.9609	0.7897	0.8383	-0.076
Mof_N 	N 	0.9326	0.8186	0.8492	-0.155
Mof_N 	N 	0.7897	0.9609	0.4111	-0.076
Mof_N 	N 	0.8186	0.9326	0.3996	-0.155
Mof_N 	N 	0.8383	0.9609	0.7897	-0.076
Mof_N 	N 	0.8492	0.9326	0.8186	-0.155
Mof_N 	N 	0.4111	0.7897	0.9609	-0.076
Mof_N 	N 	0.3996	0.8186	0.9326	-0.155
Mof_N 	N 	0.9609	0.8383	0.4111	-0.076
Mof_N 	N 	0.9326	0.8492	0.3996	-0.155
Mof_N 	N 	0.7897	0.4111	0.8383	-0.076
Mof_N 	N 	0.8186	0.3996	0.8492	-0.155
Mof_N 	N 	0.8383	0.7897	0.4111	-0.076
Mof_N 	N 	0.8492	0.8186	0.3996	-0.155
Mof_N 	N 	0.4111	0.9609	0.8383	-0.076
Mof_N 	N 	0.3996	0.9326	0.8492	-0.155
Mof_N 	N 	0.9609	0.4111	0.7897	-0.076
Mof_N 	N 	0.9326	0.3996	0.8186	-0.155
Mof_N 	N 	0.7897	0.8383	0.9609	-0.076
Mof_N 	N 	0.8186	0.8492	0.9326	-0.155
Mof_N 	N 	0.5889	0.1617	0.0391	-0.076
Mof_N 	N 	0.6004	0.1508	0.0674	-0.155
Mof_N 	N 	0.1617	0.5889	0.2103	-0.076
Mof_N 	N 	0.1508	0.6004	0.1814	-0.155
Mof_N 	N 	0.2103	0.0391	0.1617	-0.076
Mof_N 	N 	0.1814	0.0674	0.1508	-0.155
Mof_N 	N 	0.0391	0.2103	0.5889	-0.076
Mof_N 	N 	0.0674	0.1814	0.6004	-0.155
Mof_N 	N 	0.0391	0.1617	0.2103	-0.076
Mof_N 	N 	0.0674	0.1508	0.1814	-0.155
Mof_N 	N 	0.2103	0.5889	0.0391	-0.076
Mof_N 	N 	0.1814	0.6004	0.0674	-0.155
Mof_N 	N 	0.1617	0.0391	0.5889	-0.076
Mof_N 	N 	0.1508	0.0674	0.6004	-0.155
Mof_N 	N 	0.5889	0.2103	0.1617	-0.076
Mof_N 	N 	0.6004	0.1814	0.1508	-0.155
Mof_N 	N 	0.2103	0.1617	0.5889	-0.076
Mof_N 	N 	0.1814	0.1508	0.6004	-0.155
Mof_N 	N 	0.0391	0.5889	0.1617	-0.076
Mof_N 	N 	0.0674	0.6004	0.1508	-0.155
Mof_N 	N 	0.5889	0.0391	0.2103	-0.076
Mof_N 	N 	0.6004	0.0674	0.1814	-0.155
Mof_N 	N 	0.1617	0.2103	0.0391	-0.076
Mof_N 	N 	0.1508	0.1814	0.0674	-0.155
Mof_N 	N 	0.1617	0.5889	0.0391	-0.076
Mof_N 	N 	0.1508	0.6004	0.0674	-0.155
Mof_N 	N 	0.5889	0.1617	0.2103	-0.076
Mof_N 	N 	0.6004	0.1508	0.1814	-0.155
Mof_N 	N 	0.0391	0.2103	0.1617	-0.076
Mof_N 	N 	0.0674	0.1814	0.1508	-0.155
Mof_N 	N 	0.2103	0.0391	0.5889	-0.076
Mof_N 	N 	0.1814	0.0674	0.6004	-0.155
Mof_N 	N 	0.1617	0.0391	0.2103	-0.076
Mof_N 	N 	0.1508	0.0674	0.1814	-0.155
Mof_N 	N 	0.5889	0.2103	0.0391	-0.076
Mof_N 	N 	0.6004	0.1814	0.0674	-0.155
Mof_N 	N 	0.0391	0.1617	0.5889	-0.076
Mof_N 	N 	0.0674	0.1508	0.6004	-0.155
Mof_N 	N 	0.2103	0.5889	0.1617	-0.076
Mof_N 	N 	0.1814	0.6004	0.1508	-0.155
Mof_N 	N 	0.1617	0.2103	0.5889	-0.076
Mof_N 	N 	0.1508	0.1814	0.6004	-0.155
Mof_N 	N 	0.5889	0.0391	0.1617	-0.076
Mof_N 	N 	0.6004	0.0674	0.1508	-0.155
Mof_N 	N 	0.0391	0.5889	0.2103	-0.076
Mof_N 	N 	0.0674	0.6004	0.1814	-0.155
Mof_N 	N 	0.2103	0.1617	0.0391	-0.076
Mof_N 	N 	0.1814	0.1508	0.0674	-0.155
Mof_N 	N 	0.4111	0.8383	0.9609	-0.076
Mof_N 	N 	0.3996	0.8492	0.9326	-0.155
Mof_N 	N 	0.8383	0.4111	0.7897	-0.076
Mof_N 	N 	0.8492	0.3996	0.8186	-0.155
Mof_N 	N 	0.7897	0.9609	0.8383	-0.076
Mof_N 	N 	0.8186	0.9326	0.8492	-0.155
Mof_N 	N 	0.9609	0.7897	0.4111	-0.076
Mof_N 	N 	0.9326	0.8186	0.3996	-0.155
Mof_N 	N 	0.9609	0.8383	0.7897	-0.076
Mof_N 	N 	0.9326	0.8492	0.8186	-0.155
Mof_N 	N 	0.7897	0.4111	0.9609	-0.076
Mof_N 	N 	0.8186	0.3996	0.9326	-0.155
Mof_N 	N 	0.8383	0.9609	0.4111	-0.076
Mof_N 	N 	0.8492	0.9326	0.3996	-0.155
Mof_N 	N 	0.4111	0.7897	0.8383	-0.076
Mof_N 	N 	0.3996	0.8186	0.8492	-0.155
Mof_N 	N 	0.7897	0.8383	0.4111	-0.076
Mof_N 	N 	0.8186	0.8492	0.3996	-0.155
Mof_N 	N 	0.9609	0.4111	0.8383	-0.076
Mof_N 	N 	0.9326	0.3996	0.8492	-0.155
Mof_N 	N 	0.4111	0.9609	0.7897	-0.076
Mof_N 	N 	0.3996	0.9326	0.8186	-0.155
Mof_N 	N 	0.8383	0.7897	0.9609	-0.076
Mof_N 	N 	0.8492	0.8186	0.9326	-0.155
Mof_O 	O 	0.81622	0.49112	0.13804	-0.358
Mof_O 	O 	0.8697	0.49108	0.0878	-0.376
Mof_O 	O 	0.49112	0.81622	0.55462	-0.358
Mof_O 	O 	0.49108	0.8697	0.55142	-0.376
Mof_O 	O 	0.13804	0.55462	0.81622	-0.358
Mof_O 	O 	0.0878	0.55142	0.8697	-0.376
Mof_O 	O 	0.55462	0.13804	0.49112	-0.358
Mof_O 	O 	0.55142	0.0878	0.49108	-0.376
Mof_O 	O 	0.81622	0.13804	0.55462	-0.358
Mof_O 	O 	0.8697	0.0878	0.55142	-0.376
Mof_O 	O 	0.49112	0.55462	0.13804	-0.358
Mof_O 	O 	0.49108	0.55142	0.0878	-0.376
Mof_O 	O 	0.13804	0.81622	0.49112	-0.358
Mof_O 	O 	0.0878	0.8697	0.49108	-0.376
Mof_O 	O 	0.55462	0.49112	0.81622	-0.358
Mof_O 	O 	0.55142	0.49108	0.8697	-0.376
Mof_O 	O 	0.81622	0.55462	0.49112	-0.358
Mof_O 	O 	0.8697	0.55142	0.49108	-0.376
Mof_O 	O 	0.49112	0.13804	0.81622	-0.358
Mof_O 	O 	0.49108	0.0878	0.8697	-0.376
Mof_O 	O 	0.13804	0.49112	0.55462	-0.358
Mof_O 	O 	0.0878	0.49108	0.55142	-0.376
Mof_O 	O 	0.55462	0.81622	0.13804	-0.358
Mof_O 	O 	0.55142	0.8697	0.0878	-0.376
Mof_O 	O 	0.50888	0.18378	0.86196	-0.358
Mof_O 	O 	0.50892	0.1303	0.9122	-0.376
Mof_O 	O 	0.18378	0.50888	0.44538	-0.358
Mof_O 	O 	0.1303	0.50892	0.44858	-0.376
Mof_O 	O 	0.44538	0.86196	0.18378	-0.358
Mof_O 	O 	0.44858	0.9122	0.1303	-0.376
Mof_O 	O 	0.86196	0.44538	0.50888	-0.358
Mof_O 	O 	0.9122	0.44858	0.50892	-0.376
Mof_O 	O 	0.86196	0.18378	0.44538	-0.358
Mof_O 	O 	0.9122	0.1303	0.44858	-0.376
Mof_O 	O 	0.44538	0.50888	0.86196	-0.358
Mof_O 	O 	0.44858	0.50892	0.9122	-0.376
Mof_O 	O 	0.18378	0.86196	0.50888	-0.358
Mof_O 	O 	0.1303	0.9122	0.50892	-0.376
Mof_O 	O 	0.50888	0.44538	0.18378	-0.358
Mof_O 	O 	0.50892	0.44858	0.1303	-0.376
Mof_O 	O 	0.44538	0.18378	0.50888	-0.358
Mof_O 	O 	0.44858	0.1303	0.50892	-0.376
Mof_O 	O 	0.86196	0.50888	0.18378	-0.358
Mof_O 	O 	0.9122	0.50892	0.1303	-0.376
Mof_O 	O 	0.50888	0.86196	0.44538	-0.358
Mof_O 	O 	0.50892	0.9122	0.44858	-0.376
Mof_O 	O 	0.18378	0.44538	0.86196	-0.358
Mof_O 	O 	0.1303	0.44858	0.9122	-0.376
Mof_O 	O 	0.18378	0.50888	0.86196	-0.358
Mof_O 	O 	0.1303	0.50892	0.9122	-0.376
Mof_O 	O 	0.50888	0.18378	0.44538	-0.358
Mof_O 	O 	0.50892	0.1303	0.44858	-0.376
Mof_O 	O 	0.86196	0.44538	0.18378	-0.358
Mof_O 	O 	0.9122	0.44858	0.1303	-0.376
Mof_O 	O 	0.44538	0.86196	0.50888	-0.358
Mof_O 	O 	0.44858	0.9122	0.50892	-0.376
Mof_O 	O 	0.18378	0.86196	0.44538	-0.358
Mof_O 	O 	0.1303	0.9122	0.44858	-0.376
Mof_O 	O 	0.50888	0.44538	0.86196	-0.358
Mof_O 	O 	0.50892	0.44858	0.9122	-0.376
Mof_O 	O 	0.86196	0.18378	0.50888	-0.358
Mof_O 	O 	0.9122	0.1303	0.50892	-0.376
Mof_O 	O 	0.44538	0.50888	0.18378	-0.358
Mof_O 	O 	0.44858	0.50892	0.1303	-0.376
Mof_O 	O 	0.18378	0.44538	0.50888	-0.358
Mof_O 	O 	0.1303	0.44858	0.50892	-0.376
Mof_O 	O 	0.50888	0.86196	0.18378	-0.358
Mof_O 	O 	0.50892	0.9122	0.1303	-0.376
Mof_O 	O 	0.86196	0.50888	0.44538	-0.358
Mof_O 	O 	0.9122	0.50892	0.44858	-0.376
Mof_O 	O 	0.44538	0.18378	0.86196	-0.358
Mof_O 	O 	0.44858	0.1303	0.9122	-0.376
Mof_O 	O 	0.49112	0.81622	0.13804	-0.358
Mof_O 	O 	0.49108	0.8697	0.0878	-0.376
Mof_O 	O 	0.81622	0.49112	0.55462	-0.358
Mof_O 	O 	0.8697	0.49108	0.55142	-0.376
Mof_O 	O 	0.55462	0.13804	0.81622	-0.358
Mof_O 	O 	0.55142	0.0878	0.8697	-0.376
Mof_O 	O 	0.13804	0.55462	0.49112	-0.358
Mof_O 	O 	0.0878	0.55142	0.49108	-0.376
Mof_O 	O 	0.13804	0.81622	0.55462	-0.358
Mof_O 	O 	0.0878	0.8697	0.55142	-0.376
Mof_O 	O 	0.55462	0.49112	0.13804	-0.358
Mof_O 	O 	0.55142	0.49108	0.0878	-0.376
Mof_O 	O 	0.81622	0.13804	0.49112	-0.358
Mof_O 	O 	0.8697	0.0878	0.49108	-0.376
Mof_O 	O 	0.49112	0.55462	0.81622	-0.358
Mof_O 	O 	0.49108	0.55142	0.8697	-0.376
Mof_O 	O 	0.55462	0.81622	0.49112	-0.358
Mof_O 	O 	0.55142	0.8697	0.49108	-0.376
Mof_O 	O 	0.13804	0.49112	0.81622	-0.358
Mof_O 	O 	0.0878	0.49108	0.8697	-0.376
Mof_O 	O 	0.49112	0.13804	0.55462	-0.358
Mof_O 	O 	0.49108	0.0878	0.55142	-0.376
Mof_O 	O 	0.81622	0.55462	0.13804	-0.358
Mof_O 	O 	0.8697	0.55142	0.0878	-0.376
Mof_O 	O 	0.9408	0.5	0.0592	-0.196
Mof_O 	O 	0.7862	0.5	0.2138	-0.201
Mof_O 	O 	0.5	0.9408	0.5	-0.196
Mof_O 	O 	0.5	0.7862	0.5	-0.201
Mof_O 	O 	0.0592	0.5	0.9408	-0.196
Mof_O 	O 	0.2138	0.5	0.7862	-0.201
Mof_O 	O 	0.5	0.0592	0.5	-0.196
Mof_O 	O 	0.5	0.2138	0.5	-0.201
Mof_O 	O 	0.9408	0.0592	0.5	-0.196
Mof_O 	O 	0.7862	0.2138	0.5	-0.201
Mof_O 	O 	0.5	0.5	0.0592	-0.196
Mof_O 	O 	0.5	0.5	0.2138	-0.201
Mof_O 	O 	0.0592	0.9408	0.5	-0.196
Mof_O 	O 	0.2138	0.7862	0.5	-0.201
Mof_O 	O 	0.5	0.5	0.9408	-0.196
Mof_O 	O 	0.5	0.5	0.7862	-0.201
Mof_O 	O 	0.9408	0.5	0.5	-0.196
Mof_O 	O 	0.7862	0.5	0.5	-0.201
Mof_O 	O 	0.5	0.0592	0.9408	-0.196
Mof_O 	O 	0.5	0.2138	0.7862	-0.201
Mof_O 	O 	0.0592	0.5	0.5	-0.196
Mof_O 	O 	0.2138	0.5	0.5	-0.201
Mof_O 	O 	0.5	0.9408	0.0592	-0.196
Mof_O 	O 	0.5	0.7862	0.2138	-0.201
Mof_O 	O 	0.9138	0.4062	0.9138	-0.259
Mof_O 	O 	0.9133	0.3447	0.9133	-0.197
Mof_O 	O 	0.4062	0.9138	0.7662	-0.259
Mof_O 	O 	0.3447	0.9133	0.8287	-0.197
Mof_O 	O 	0.9138	0.7662	0.9138	-0.259
Mof_O 	O 	0.9133	0.8287	0.9133	-0.197
Mof_O 	O 	0.7662	0.9138	0.4062	-0.259
Mof_O 	O 	0.8287	0.9133	0.3447	-0.197
Mof_O 	O 	0.9138	0.9138	0.7662	-0.259
Mof_O 	O 	0.9133	0.9133	0.8287	-0.197
Mof_O 	O 	0.4062	0.7662	0.9138	-0.259
Mof_O 	O 	0.3447	0.8287	0.9133	-0.197
Mof_O 	O 	0.9138	0.9138	0.4062	-0.259
Mof_O 	O 	0.9133	0.9133	0.3447	-0.197
Mof_O 	O 	0.7662	0.4062	0.9138	-0.259
Mof_O 	O 	0.8287	0.3447	0.9133	-0.197
Mof_O 	O 	0.9138	0.7662	0.4062	-0.259
Mof_O 	O 	0.9133	0.8287	0.3447	-0.197
Mof_O 	O 	0.4062	0.9138	0.9138	-0.259
Mof_O 	O 	0.3447	0.9133	0.9133	-0.197
Mof_O 	O 	0.9138	0.4062	0.7662	-0.259
Mof_O 	O 	0.9133	0.3447	0.8287	-0.197
Mof_O 	O 	0.7662	0.9138	0.9138	-0.259
Mof_O 	O 	0.8287	0.9133	0.9133	-0.197
Mof_O 	O 	0.5938	0.0862	0.0862	-0.259
Mof_O 	O 	0.6553	0.0867	0.0867	-0.197
Mof_O 	O 	0.0862	0.5938	0.2338	-0.259
Mof_O 	O 	0.0867	0.6553	0.1713	-0.197
Mof_O 	O 	0.2338	0.0862	0.0862	-0.259
Mof_O 	O 	0.1713	0.0867	0.0867	-0.197
Mof_O 	O 	0.0862	0.2338	0.5938	-0.259
Mof_O 	O 	0.0867	0.1713	0.6553	-0.197
Mof_O 	O 	0.0862	0.0862	0.2338	-0.259
Mof_O 	O 	0.0867	0.0867	0.1713	-0.197
Mof_O 	O 	0.2338	0.5938	0.0862	-0.259
Mof_O 	O 	0.1713	0.6553	0.0867	-0.197
Mof_O 	O 	0.0862	0.0862	0.5938	-0.259
Mof_O 	O 	0.0867	0.0867	0.6553	-0.197
Mof_O 	O 	0.5938	0.2338	0.0862	-0.259
Mof_O 	O 	0.6553	0.1713	0.0867	-0.197
Mof_O 	O 	0.2338	0.0862	0.5938	-0.259
Mof_O 	O 	0.1713	0.0867	0.6553	-0.197
Mof_O 	O 	0.0862	0.5938	0.0862	-0.259
Mof_O 	O 	0.0867	0.6553	0.0867	-0.197
Mof_O 	O 	0.5938	0.0862	0.2338	-0.259
Mof_O 	O 	0.6553	0.0867	0.1713	-0.197
Mof_O 	O 	0.0862	0.2338	0.0862	-0.259
Mof_O 	O 	0.0867	0.1713	0.0867	-0.197
Mof_O 	O 	0.8711	0.3867	0.8711	-0.486
Mof_O 	O 	0.3867	0.8711	0.8711	-0.486
Mof_O 	O 	0.8711	0.8711	0.8711	-0.486
Mof_O 	O 	0.8711	0.8711	0.3867	-0.486
Mof_O 	O 	0.6133	0.1289	0.1289	-0.486
Mof_O 	O 	0.1289	0.6133	0.1289	-0.486
Mof_O 	O 	0.1289	0.1289	0.1289	-0.486
Mof_O 	O 	0.1289	0.1289	0.6133	-0.486
_end
