data_functionalizedCrystal
_audit_creation_method	'EQeq! by Chris Wilmer'
_symmetry_space_group_name_H-M	'P1'
_symmetry_Int_Tables_number	1
_symmetry_cell_setting	triclinic
loop_
_symmetry_equiv_pos_as_xyz
  x,y,z
_cell_length_a	10.3466
_cell_length_b	18.5415
_cell_length_c	22.7001
_cell_angle_alpha	90
_cell_angle_beta	90
_cell_angle_gamma	90
loop_
_atom_site_label
_atom_site_type_symbol
_atom_site_fract_x
_atom_site_fract_y
_atom_site_fract_z
_atom_site_charge
Mof_O 	O 	0.9373	0.6602	0.6032	-0.162
Mof_O 	O 	0.1337	0.6668	0.52	-0.178
Mof_O 	O 	0.0787	0.7733	0.437	-0.17
Mof_O 	O 	0.8656	0.8492	0.477	-0.151
Mof_O 	O 	0.7829	0.7848	0.5846	-0.168
Mof_O 	O 	0.3854	0.843	0.7533	-0.18
Mof_O 	O 	0.0871	0.7039	0.6749	-0.192
Mof_O 	O 	0.8803	0.6543	0.7046	-0.168
Mof_O 	O 	0.3441	0.7314	0.8389	-0.162
Mof_O 	O 	0.2372	0.4297	0.5332	-0.166
Mof_O 	O 	0.2327	0.5683	0.5733	-0.164
Mof_O 	O 	0.0482	0.5761	0.6681	-0.185
Mof_O 	O 	0.9881	0.432	0.6971	-0.13
Mof_O 	O 	0.084	0.3401	0.613	-0.176
Mof_U 	U 	0.9567	0.74398	0.52452	0.072
Mof_U 	U 	0.23963	0.74546	0.74616	0.053
Mof_U 	U 	0.11635	0.47027	0.61637	0.053
Mof_S 	S 	0.9896	0.64857	0.663	0.655
Mof_S 	S 	0.2405	0.61421	0.52064	0.607
Mof_S 	S 	0.1509	0.72885	0.39517	0.613
Mof_O 	O 	0.4373	0.1602	0.6032	-0.162
Mof_O 	O 	0.6337	0.1668	0.52	-0.17
Mof_O 	O 	0.5787	0.2733	0.437	-0.16
Mof_O 	O 	0.3656	0.3492	0.477	-0.159
Mof_O 	O 	0.2829	0.2848	0.5846	-0.173
Mof_O 	O 	0.8854	0.343	0.7533	-0.153
Mof_O 	O 	0.5871	0.2039	0.6749	-0.164
Mof_O 	O 	0.3803	0.1543	0.7046	-0.164
Mof_O 	O 	0.8441	0.2314	0.8389	-0.155
Mof_O 	O 	0.7372	0.9297	0.5332	-0.163
Mof_O 	O 	0.7327	0.0683	0.5733	-0.16
Mof_O 	O 	0.5482	0.0761	0.6681	-0.157
Mof_O 	O 	0.4881	0.932	0.6971	-0.165
Mof_O 	O 	0.584	0.8401	0.613	-0.168
Mof_U 	U 	0.4567	0.24398	0.52452	0.06
Mof_U 	U 	0.73963	0.24546	0.74616	0.058
Mof_U 	U 	0.61635	0.97027	0.61637	0.06
Mof_S 	S 	0.4896	0.14857	0.663	0.597
Mof_S 	S 	0.7405	0.11421	0.52064	0.604
Mof_S 	S 	0.6509	0.22885	0.39517	0.61
Mof_O 	O 	0.0627	0.3398	0.1032	-0.158
Mof_O 	O 	0.8663	0.3332	0.02	-0.162
Mof_O 	O 	0.9213	0.2267	0.937	-0.149
Mof_O 	O 	0.1344	0.1508	0.977	-0.166
Mof_O 	O 	0.2171	0.2152	0.0846	-0.174
Mof_O 	O 	0.6146	0.157	0.2533	-0.177
Mof_O 	O 	0.9129	0.2961	0.1749	-0.139
Mof_O 	O 	0.1197	0.3457	0.2046	-0.157
Mof_O 	O 	0.6559	0.2686	0.3389	-0.16
Mof_O 	O 	0.7628	0.5703	0.0332	-0.164
Mof_O 	O 	0.7673	0.4317	0.0733	-0.16
Mof_O 	O 	0.9518	0.4239	0.1681	-0.13
Mof_O 	O 	0.0119	0.568	0.1971	-0.167
Mof_O 	O 	0.916	0.6599	0.113	-0.16
Mof_U 	U 	0.0433	0.25602	0.02452	0.049
Mof_U 	U 	0.76037	0.25454	0.24616	0.058
Mof_U 	U 	0.88365	0.52973	0.11637	0.065
Mof_S 	S 	0.0104	0.35143	0.163	0.538
Mof_S 	S 	0.7595	0.38579	0.02064	0.605
Mof_S 	S 	0.8491	0.27115	0.89517	0.607
Mof_O 	O 	0.5627	0.8398	0.1032	-0.16
Mof_O 	O 	0.3663	0.8332	0.02	-0.172
Mof_O 	O 	0.4213	0.7267	0.937	-0.161
Mof_O 	O 	0.6344	0.6508	0.977	-0.159
Mof_O 	O 	0.7171	0.7152	0.0846	-0.171
Mof_O 	O 	0.1146	0.657	0.2533	-0.172
Mof_O 	O 	0.4129	0.7961	0.1749	-0.167
Mof_O 	O 	0.6197	0.8457	0.2046	-0.161
Mof_O 	O 	0.1559	0.7686	0.3389	-0.166
Mof_O 	O 	0.2628	0.0703	0.0332	-0.167
Mof_O 	O 	0.2673	0.9317	0.0733	-0.166
Mof_O 	O 	0.4518	0.9239	0.1681	-0.157
Mof_O 	O 	0.5119	0.068	0.1971	-0.163
Mof_O 	O 	0.416	0.1599	0.113	-0.168
Mof_U 	U 	0.5433	0.75602	0.02452	0.06
Mof_U 	U 	0.26037	0.75454	0.24616	0.052
Mof_U 	U 	0.38365	0.02973	0.11637	0.059
Mof_S 	S 	0.5104	0.85143	0.163	0.597
Mof_S 	S 	0.2595	0.88579	0.02064	0.607
Mof_S 	S 	0.3491	0.77115	0.89517	0.611
Mof_O 	O 	0.0627	0.6602	0.8968	-0.158
Mof_O 	O 	0.8663	0.6668	0.98	-0.162
Mof_O 	O 	0.9213	0.7733	0.063	-0.149
Mof_O 	O 	0.1344	0.8492	0.023	-0.166
Mof_O 	O 	0.2171	0.7848	0.9154	-0.174
Mof_O 	O 	0.6146	0.843	0.7467	-0.177
Mof_O 	O 	0.9129	0.7039	0.8251	-0.139
Mof_O 	O 	0.1197	0.6543	0.7954	-0.157
Mof_O 	O 	0.6559	0.7314	0.6611	-0.16
Mof_O 	O 	0.7628	0.4297	0.9668	-0.164
Mof_O 	O 	0.7673	0.5683	0.9267	-0.16
Mof_O 	O 	0.9518	0.5761	0.8319	-0.13
Mof_O 	O 	0.0119	0.432	0.8029	-0.167
Mof_O 	O 	0.916	0.3401	0.887	-0.16
Mof_U 	U 	0.0433	0.74398	0.97548	0.049
Mof_U 	U 	0.76037	0.74546	0.75384	0.058
Mof_U 	U 	0.88365	0.47027	0.88363	0.065
Mof_S 	S 	0.0104	0.64857	0.837	0.538
Mof_S 	S 	0.7595	0.61421	0.97936	0.605
Mof_S 	S 	0.8491	0.72885	0.10483	0.607
Mof_O 	O 	0.5627	0.1602	0.8968	-0.16
Mof_O 	O 	0.3663	0.1668	0.98	-0.172
Mof_O 	O 	0.4213	0.2733	0.063	-0.161
Mof_O 	O 	0.6344	0.3492	0.023	-0.159
Mof_O 	O 	0.7171	0.2848	0.9154	-0.171
Mof_O 	O 	0.1146	0.343	0.7467	-0.172
Mof_O 	O 	0.4129	0.2039	0.8251	-0.167
Mof_O 	O 	0.6197	0.1543	0.7954	-0.161
Mof_O 	O 	0.1559	0.2314	0.6611	-0.166
Mof_O 	O 	0.2628	0.9297	0.9668	-0.167
Mof_O 	O 	0.2673	0.0683	0.9267	-0.166
Mof_O 	O 	0.4518	0.0761	0.8319	-0.157
Mof_O 	O 	0.5119	0.932	0.8029	-0.163
Mof_O 	O 	0.416	0.8401	0.887	-0.168
Mof_U 	U 	0.5433	0.24398	0.97548	0.06
Mof_U 	U 	0.26037	0.24546	0.75384	0.052
Mof_U 	U 	0.38365	0.97027	0.88363	0.059
Mof_S 	S 	0.5104	0.14857	0.837	0.597
Mof_S 	S 	0.2595	0.11421	0.97936	0.607
Mof_S 	S 	0.3491	0.22885	0.10483	0.611
Mof_O 	O 	0.9373	0.3398	0.3968	-0.163
Mof_O 	O 	0.1337	0.3332	0.48	-0.179
Mof_O 	O 	0.0787	0.2267	0.563	-0.171
Mof_O 	O 	0.8656	0.1508	0.523	-0.152
Mof_O 	O 	0.7829	0.2152	0.4154	-0.169
Mof_O 	O 	0.3854	0.157	0.2467	-0.181
Mof_O 	O 	0.0871	0.2961	0.3251	-0.192
Mof_O 	O 	0.8803	0.3457	0.2954	-0.168
Mof_O 	O 	0.3441	0.2686	0.1611	-0.162
Mof_O 	O 	0.2372	0.5703	0.4668	-0.166
Mof_O 	O 	0.2327	0.4317	0.4267	-0.164
Mof_O 	O 	0.0482	0.4239	0.3319	-0.185
Mof_O 	O 	0.9881	0.568	0.3029	-0.13
Mof_O 	O 	0.084	0.6599	0.387	-0.176
Mof_U 	U 	0.9567	0.25602	0.47548	0.072
Mof_U 	U 	0.23963	0.25454	0.25384	0.053
Mof_U 	U 	0.11635	0.52973	0.38363	0.053
Mof_S 	S 	0.9896	0.35143	0.337	0.655
Mof_S 	S 	0.2405	0.38579	0.47936	0.607
Mof_S 	S 	0.1509	0.27115	0.60483	0.613
Mof_O 	O 	0.4373	0.8398	0.3968	-0.162
Mof_O 	O 	0.6337	0.8332	0.48	-0.17
Mof_O 	O 	0.5787	0.7267	0.563	-0.16
Mof_O 	O 	0.3656	0.6508	0.523	-0.159
Mof_O 	O 	0.2829	0.7152	0.4154	-0.173
Mof_O 	O 	0.8854	0.657	0.2467	-0.153
Mof_O 	O 	0.5871	0.7961	0.3251	-0.164
Mof_O 	O 	0.3803	0.8457	0.2954	-0.164
Mof_O 	O 	0.8441	0.7686	0.1611	-0.155
Mof_O 	O 	0.7372	0.0703	0.4668	-0.163
Mof_O 	O 	0.7327	0.9317	0.4267	-0.16
Mof_O 	O 	0.5482	0.9239	0.3319	-0.157
Mof_O 	O 	0.4881	0.068	0.3029	-0.165
Mof_O 	O 	0.584	0.1599	0.387	-0.168
Mof_U 	U 	0.4567	0.75602	0.47548	0.06
Mof_U 	U 	0.73963	0.75454	0.25384	0.058
Mof_U 	U 	0.61635	0.02973	0.38363	0.06
Mof_S 	S 	0.4896	0.85143	0.337	0.597
Mof_S 	S 	0.7405	0.88579	0.47936	0.604
Mof_S 	S 	0.6509	0.77115	0.60483	0.61
Mof_S 	S 	0.5	0.88699	0.75	0.636
Mof_S 	S 	-2.86106e-32	0.38699	0.75	0.575
Mof_S 	S 	0.5	0.11301	0.25	0.636
Mof_S 	S 	2.05651e-33	0.61301	0.25	0.575
_end
