data_functionalizedCrystal
_audit_creation_method	'EQeq! by Chris Wilmer'
_symmetry_space_group_name_H-M	'P1'
_symmetry_Int_Tables_number	1
_symmetry_cell_setting	triclinic
loop_
_symmetry_equiv_pos_as_xyz
  x,y,z
_cell_length_a	14.5952
_cell_length_b	16.7329
_cell_length_c	19.5713
_cell_angle_alpha	90
_cell_angle_beta	107.344
_cell_angle_gamma	90
loop_
_atom_site_label
_atom_site_type_symbol
_atom_site_fract_x
_atom_site_fract_y
_atom_site_fract_z
_atom_site_charge
Mof_C 	C 	0.8656	0.3253	0.8871	-0.209
Mof_C 	C 	0.9466	0.2978	0.9422	0.089
Mof_H 	H 	0.0075	0.3046	0.9371	0.012
Mof_C 	C 	0.9376	0.2603	0.0048	-0.122
Mof_C 	C 	0.8457	0.2483	0.0093	-0.012
Mof_H 	H 	0.8377	0.2214	0.0487	0.048
Mof_C 	C 	0.7647	0.2756	0.9561	-0.02
Mof_C 	C 	0.7723	0.3136	0.8939	0.02
Mof_H 	H 	0.7179	0.3305	0.8583	0.018
Mof_C 	C 	0.8728	0.3715	0.8236	0.573
Mof_C 	C 	0.0204	0.2247	0.0599	0.342
Mof_C 	C 	0.6687	0.2619	0.9634	-0.02
Mof_C 	C 	0.5914	0.2521	0.9704	-0.01
Mof_C 	C 	0.4963	0.2506	0.9778	-0.03
Mof_C 	C 	0.4842	0.2175	0.0418	0.032
Mof_H 	H 	0.5363	0.1948	0.076	0.022
Mof_C 	C 	0.3938	0.219	0.0532	-0.183
Mof_C 	C 	0.3144	0.2534	0.0053	0.084
Mof_H 	H 	0.2555	0.2546	0.0145	0.015
Mof_C 	C 	0.3254	0.2871	0.9408	-0.141
Mof_C 	C 	0.415	0.285	0.9298	0.01
Mof_H 	H 	0.4214	0.3077	0.8881	0.044
Mof_C 	C 	0.3834	0.1866	0.1209	0.459
Mof_C 	C 	0.2436	0.3228	0.8858	0.435
Mof_C 	C 	0.5436	0.4921	0.7896	-0.051
Mof_C 	C 	0.5363	0.4729	0.8587	-0.048
Mof_H 	H 	0.5561	0.4226	0.8777	0.063
Mof_C 	C 	0.5006	0.5267	0.8985	0.028
Mof_C 	C 	0.4684	0.6002	0.8681	-0.047
Mof_H 	H 	0.4424	0.636	0.8936	0.063
Mof_C 	C 	0.4739	0.6229	0.7992	-0.057
Mof_C 	C 	0.5106	0.5696	0.7606	-0.01
Mof_H 	H 	0.5141	0.5838	0.7155	0.051
Mof_C 	C 	0.5823	0.4373	0.7433	0.325
Mof_C 	C 	0.4467	0.7027	0.7666	0.316
Mof_C 	C 	0.4999	0.508	0.9709	-0.014
Mof_C 	C 	0.1281	0.5541	0.8817	0.163
Mof_H 	H 	0.0867	0.5391	0.9095	-0.018
Mof_H 	H 	0.1103	0.6062	0.8614	-0.023
Mof_H 	H 	0.1934	0.5553	0.9119	-0.012
Mof_C 	C 	0.1352	0.499	0.6315	0.031
Mof_H 	H 	0.0688	0.5097	0.6073	0.002
Mof_H 	H 	0.1668	0.4828	0.5972	0.02
Mof_H 	H 	0.1652	0.5464	0.6556	0.012
Mof_Nd	Nd	0.67618	0.34308	0.66885	2.285
Mof_Nd	Nd	0.07771	0.36419	0.77086	2.871
Mof_O 	O 	0.7993	0.3846	0.7733	-0.612
Mof_O 	O 	0.9571	0.3885	0.8213	-0.66
Mof_O 	O 	0.1056	0.2429	0.0614	-0.477
Mof_O 	O 	0.0062	0.1814	0.1061	-0.502
Mof_O 	O 	0.45	0.1389	0.1624	-0.606
Mof_O 	O 	0.3077	0.2058	0.1403	-0.603
Mof_O 	O 	0.1661	0.3254	0.8974	-0.505
Mof_O 	O 	0.2459	0.3475	0.8276	-0.559
Mof_O 	O 	0.5906	0.3643	0.7611	-0.454
Mof_O 	O 	0.6147	0.466	0.6962	-0.523
Mof_O 	O 	0.4769	0.7297	0.7208	-0.538
Mof_O 	O 	0.3849	0.7448	0.7902	-0.473
Mof_O 	O 	0.1185	0.4926	0.8207	-0.631
Mof_H 	H 	0.1353	0.5039	0.7832	0.193
Mof_O 	O 	0.1429	0.4308	0.6872	-0.454
Mof_H 	H 	0.094	0.4007	0.6735	-0.007
Mof_C 	C 	0.6344	0.8253	0.6129	-0.205
Mof_C 	C 	0.5534	0.7978	0.5578	0.081
Mof_H 	H 	0.4925	0.8046	0.5629	0.018
Mof_C 	C 	0.5624	0.7603	0.4952	-0.116
Mof_C 	C 	0.6543	0.7483	0.4907	-0.013
Mof_H 	H 	0.6623	0.7214	0.4513	0.049
Mof_C 	C 	0.7353	0.7756	0.5439	-0.019
Mof_C 	C 	0.7277	0.8136	0.6061	0.019
Mof_H 	H 	0.7821	0.8305	0.6417	0.018
Mof_C 	C 	0.6272	0.8715	0.6764	0.572
Mof_C 	C 	0.4796	0.7247	0.4401	0.339
Mof_C 	C 	0.8313	0.7619	0.5366	-0.02
Mof_C 	C 	0.9086	0.7521	0.5296	-0.011
Mof_C 	C 	0.0037	0.7506	0.5222	-0.028
Mof_C 	C 	0.0158	0.7175	0.4582	0.032
Mof_H 	H 	0.9637	0.6948	0.424	0.021
Mof_C 	C 	0.1062	0.719	0.4468	-0.182
Mof_C 	C 	0.1856	0.7534	0.4947	0.082
Mof_H 	H 	0.2445	0.7546	0.4855	0.015
Mof_C 	C 	0.1746	0.7871	0.5592	-0.139
Mof_C 	C 	0.085	0.785	0.5702	0.009
Mof_H 	H 	0.0786	0.8077	0.6119	0.045
Mof_C 	C 	0.1166	0.6866	0.3791	0.459
Mof_C 	C 	0.2564	0.8228	0.6142	0.435
Mof_C 	C 	0.9564	0.9921	0.7104	-0.052
Mof_C 	C 	0.9637	0.9729	0.6413	-0.051
Mof_H 	H 	0.9439	0.9226	0.6223	0.064
Mof_C 	C 	0.9994	0.0267	0.6015	0.034
Mof_C 	C 	0.0316	0.1002	0.6319	-0.051
Mof_H 	H 	0.0576	0.136	0.6064	0.064
Mof_C 	C 	0.0261	0.1229	0.7008	-0.06
Mof_C 	C 	0.9894	0.0696	0.7394	-0.005
Mof_H 	H 	0.9859	0.0838	0.7845	0.05
Mof_C 	C 	0.9177	0.9373	0.7567	0.325
Mof_C 	C 	0.0533	0.2027	0.7334	0.317
Mof_C 	C 	0.0001	0.008	0.5291	-0.016
Mof_C 	C 	0.3719	0.0541	0.6183	0.161
Mof_H 	H 	0.4133	0.0391	0.5905	-0.017
Mof_H 	H 	0.3897	0.1062	0.6386	-0.023
Mof_H 	H 	0.3066	0.0553	0.5881	-0.011
Mof_C 	C 	0.3648	0.999	0.8685	0.039
Mof_H 	H 	0.4312	0.0097	0.8927	-0
Mof_H 	H 	0.3332	0.9828	0.9028	0.018
Mof_H 	H 	0.3348	0.0464	0.8444	0.009
Mof_Nd	Nd	0.82382	0.84308	0.83115	2.285
Mof_Nd	Nd	0.42229	0.86419	0.72914	2.874
Mof_O 	O 	0.7007	0.8846	0.7267	-0.611
Mof_O 	O 	0.5429	0.8885	0.6787	-0.661
Mof_O 	O 	0.3944	0.7429	0.4386	-0.477
Mof_O 	O 	0.4938	0.6814	0.3939	-0.502
Mof_O 	O 	0.05	0.6389	0.3376	-0.605
Mof_O 	O 	0.1923	0.7058	0.3597	-0.603
Mof_O 	O 	0.3339	0.8254	0.6026	-0.504
Mof_O 	O 	0.2541	0.8475	0.6724	-0.559
Mof_O 	O 	0.9094	0.8643	0.7389	-0.454
Mof_O 	O 	0.8853	0.966	0.8038	-0.523
Mof_O 	O 	0.0231	0.2297	0.7792	-0.539
Mof_O 	O 	0.1151	0.2448	0.7098	-0.473
Mof_O 	O 	0.3815	0.9926	0.6793	-0.63
Mof_H 	H 	0.3647	0.0039	0.7168	0.191
Mof_O 	O 	0.3571	0.9308	0.8128	-0.456
Mof_H 	H 	0.406	0.9007	0.8265	-0.006
Mof_C 	C 	0.1344	0.6747	0.1129	-0.208
Mof_C 	C 	0.0534	0.7022	0.0578	0.09
Mof_H 	H 	0.9925	0.6954	0.0629	0.013
Mof_C 	C 	0.0624	0.7397	0.9952	-0.121
Mof_C 	C 	0.1543	0.7517	0.9907	-0.012
Mof_H 	H 	0.1623	0.7786	0.9513	0.048
Mof_C 	C 	0.2353	0.7244	0.0439	-0.02
Mof_C 	C 	0.2277	0.6864	0.1061	0.02
Mof_H 	H 	0.2821	0.6695	0.1417	0.018
Mof_C 	C 	0.1272	0.6285	0.1764	0.573
Mof_C 	C 	0.9796	0.7753	0.9401	0.342
Mof_C 	C 	0.3313	0.7381	0.0366	-0.02
Mof_C 	C 	0.4086	0.7479	0.0296	-0.01
Mof_C 	C 	0.5037	0.7494	0.0222	-0.03
Mof_C 	C 	0.5158	0.7825	0.9582	0.032
Mof_H 	H 	0.4637	0.8052	0.924	0.022
Mof_C 	C 	0.6062	0.781	0.9468	-0.183
Mof_C 	C 	0.6856	0.7466	0.9947	0.084
Mof_H 	H 	0.7445	0.7454	0.9855	0.015
Mof_C 	C 	0.6746	0.7129	0.0592	-0.141
Mof_C 	C 	0.585	0.715	0.0702	0.01
Mof_H 	H 	0.5786	0.6923	0.1119	0.044
Mof_C 	C 	0.6166	0.8134	0.8791	0.459
Mof_C 	C 	0.7564	0.6772	0.1142	0.435
Mof_C 	C 	0.4564	0.5079	0.2104	-0.051
Mof_C 	C 	0.4637	0.5271	0.1413	-0.048
Mof_H 	H 	0.4439	0.5774	0.1223	0.063
Mof_C 	C 	0.4994	0.4733	0.1015	0.028
Mof_C 	C 	0.5316	0.3998	0.1319	-0.047
Mof_H 	H 	0.5576	0.364	0.1064	0.063
Mof_C 	C 	0.5261	0.3771	0.2008	-0.057
Mof_C 	C 	0.4894	0.4304	0.2394	-0.01
Mof_H 	H 	0.4859	0.4162	0.2845	0.051
Mof_C 	C 	0.4177	0.5627	0.2567	0.325
Mof_C 	C 	0.5533	0.2973	0.2334	0.316
Mof_C 	C 	0.5001	0.492	0.0291	-0.014
Mof_C 	C 	0.8719	0.4459	0.1183	0.163
Mof_H 	H 	0.9133	0.4609	0.0905	-0.018
Mof_H 	H 	0.8897	0.3938	0.1386	-0.023
Mof_H 	H 	0.8066	0.4447	0.0881	-0.012
Mof_C 	C 	0.8648	0.501	0.3685	0.031
Mof_H 	H 	0.9312	0.4903	0.3927	0.002
Mof_H 	H 	0.8332	0.5172	0.4028	0.02
Mof_H 	H 	0.8348	0.4536	0.3444	0.012
Mof_Nd	Nd	0.32382	0.65692	0.33115	2.285
Mof_Nd	Nd	0.92229	0.63581	0.22914	2.871
Mof_O 	O 	0.2007	0.6154	0.2267	-0.612
Mof_O 	O 	0.0429	0.6115	0.1787	-0.66
Mof_O 	O 	0.8944	0.7571	0.9386	-0.477
Mof_O 	O 	0.9938	0.8186	0.8939	-0.502
Mof_O 	O 	0.55	0.8611	0.8376	-0.606
Mof_O 	O 	0.6923	0.7942	0.8597	-0.603
Mof_O 	O 	0.8339	0.6746	0.1026	-0.505
Mof_O 	O 	0.7541	0.6525	0.1724	-0.559
Mof_O 	O 	0.4094	0.6357	0.2389	-0.454
Mof_O 	O 	0.3853	0.534	0.3038	-0.523
Mof_O 	O 	0.5231	0.2703	0.2792	-0.538
Mof_O 	O 	0.6151	0.2552	0.2098	-0.473
Mof_O 	O 	0.8815	0.5074	0.1793	-0.631
Mof_H 	H 	0.8647	0.4961	0.2168	0.193
Mof_O 	O 	0.8571	0.5692	0.3128	-0.454
Mof_H 	H 	0.906	0.5993	0.3265	-0.007
Mof_C 	C 	0.3656	0.1747	0.3871	-0.205
Mof_C 	C 	0.4466	0.2022	0.4422	0.081
Mof_H 	H 	0.5075	0.1954	0.4371	0.018
Mof_C 	C 	0.4376	0.2397	0.5048	-0.116
Mof_C 	C 	0.3457	0.2517	0.5093	-0.013
Mof_H 	H 	0.3377	0.2786	0.5487	0.049
Mof_C 	C 	0.2647	0.2244	0.4561	-0.019
Mof_C 	C 	0.2723	0.1864	0.3939	0.019
Mof_H 	H 	0.2179	0.1695	0.3583	0.018
Mof_C 	C 	0.3728	0.1285	0.3236	0.572
Mof_C 	C 	0.5204	0.2753	0.5599	0.339
Mof_C 	C 	0.1687	0.2381	0.4634	-0.02
Mof_C 	C 	0.0914	0.2479	0.4704	-0.011
Mof_C 	C 	0.9963	0.2494	0.4778	-0.028
Mof_C 	C 	0.9842	0.2825	0.5418	0.032
Mof_H 	H 	0.0363	0.3052	0.576	0.021
Mof_C 	C 	0.8938	0.281	0.5532	-0.182
Mof_C 	C 	0.8144	0.2466	0.5053	0.082
Mof_H 	H 	0.7555	0.2454	0.5145	0.015
Mof_C 	C 	0.8254	0.2129	0.4408	-0.139
Mof_C 	C 	0.915	0.215	0.4298	0.009
Mof_H 	H 	0.9214	0.1923	0.3881	0.045
Mof_C 	C 	0.8834	0.3134	0.6209	0.459
Mof_C 	C 	0.7436	0.1772	0.3858	0.435
Mof_C 	C 	0.0436	0.0079	0.2896	-0.052
Mof_C 	C 	0.0363	0.0271	0.3587	-0.051
Mof_H 	H 	0.0561	0.0774	0.3777	0.064
Mof_C 	C 	0.0006	0.9733	0.3985	0.034
Mof_C 	C 	0.9684	0.8998	0.3681	-0.051
Mof_H 	H 	0.9424	0.864	0.3936	0.064
Mof_C 	C 	0.9739	0.8771	0.2992	-0.06
Mof_C 	C 	0.0106	0.9304	0.2606	-0.005
Mof_H 	H 	0.0141	0.9162	0.2155	0.05
Mof_C 	C 	0.0823	0.0627	0.2433	0.325
Mof_C 	C 	0.9467	0.7973	0.2666	0.317
Mof_C 	C 	0.9999	0.992	0.4709	-0.016
Mof_C 	C 	0.6281	0.9459	0.3817	0.161
Mof_H 	H 	0.5867	0.9609	0.4095	-0.017
Mof_H 	H 	0.6103	0.8938	0.3614	-0.023
Mof_H 	H 	0.6934	0.9447	0.4119	-0.011
Mof_C 	C 	0.6352	0.001	0.1315	0.039
Mof_H 	H 	0.5688	0.9903	0.1073	-0
Mof_H 	H 	0.6668	0.0172	0.0972	0.018
Mof_H 	H 	0.6652	0.9536	0.1556	0.009
Mof_Nd	Nd	0.17618	0.15692	0.16885	2.285
Mof_Nd	Nd	0.57771	0.13581	0.27086	2.874
Mof_O 	O 	0.2993	0.1154	0.2733	-0.611
Mof_O 	O 	0.4571	0.1115	0.3213	-0.661
Mof_O 	O 	0.6056	0.2571	0.5614	-0.477
Mof_O 	O 	0.5062	0.3186	0.6061	-0.502
Mof_O 	O 	0.95	0.3611	0.6624	-0.605
Mof_O 	O 	0.8077	0.2942	0.6403	-0.603
Mof_O 	O 	0.6661	0.1746	0.3974	-0.504
Mof_O 	O 	0.7459	0.1525	0.3276	-0.559
Mof_O 	O 	0.0906	0.1357	0.2611	-0.454
Mof_O 	O 	0.1147	0.034	0.1962	-0.523
Mof_O 	O 	0.9769	0.7703	0.2208	-0.539
Mof_O 	O 	0.8849	0.7552	0.2902	-0.473
Mof_O 	O 	0.6185	0.0074	0.3207	-0.63
Mof_H 	H 	0.6353	0.9961	0.2832	0.191
Mof_O 	O 	0.6429	0.0692	0.1872	-0.456
Mof_H 	H 	0.594	0.0993	0.1735	-0.006
_end
