data_functionalizedCrystal
_audit_creation_method	'EQeq! by Chris Wilmer'
_symmetry_space_group_name_H-M	'P1'
_symmetry_Int_Tables_number	1
_symmetry_cell_setting	triclinic
loop_
_symmetry_equiv_pos_as_xyz
  x,y,z
_cell_length_a	24.8438
_cell_length_b	24.8438
_cell_length_c	25.3161
_cell_angle_alpha	60.6153
_cell_angle_beta	60.6153
_cell_angle_gamma	90
loop_
_atom_site_label
_atom_site_type_symbol
_atom_site_fract_x
_atom_site_fract_y
_atom_site_fract_z
_atom_site_charge
Mof_In	In	0.56875	0.18197	0.92838	1.482
Mof_In	In	0.52522	0.86543	0.07352	1.484
Mof_In	In	0.53761	0.85736	0.21842	1.448
Mof_In	In	0.56138	0.02522	0.07388	1.502
Mof_In	In	0.50287	0.88965	0.92838	1.478
Mof_In	In	0.40126	0.06105	0.07352	1.487
Mof_In	In	0.24397	0.92422	0.21842	1.442
Mof_In	In	0.36474	0.9009	0.07388	1.486
Mof_In	In	0.63965	0.75287	0.42838	1.482
Mof_In	In	0.81105	0.65126	0.57352	1.484
Mof_In	In	0.67422	0.49397	0.71842	1.448
Mof_In	In	0.6509	0.61474	0.57388	1.49
Mof_In	In	0.93197	0.81875	0.42838	1.486
Mof_In	In	0.61543	0.77522	0.57352	1.484
Mof_In	In	0.60736	0.78761	0.71842	1.447
Mof_In	In	0.77522	0.81138	0.57388	1.49
Mof_In	In	0.54263	0.04263	0.91474	1.486
Mof_In	In	0.38435	0.88435	0.2313	1.496
Mof_In	In	0.79263	0.79263	0.41474	1.481
Mof_In	In	0.63435	0.63435	0.7313	1.501
Mof_H 	H 	0.7011	0.2667	0.8452	-0.03
Mof_H 	H 	0.7386	0.3881	0.8038	0.014
Mof_H 	H 	0.5563	0.3449	0.7858	0.034
Mof_H 	H 	0.5257	0.2816	0.8658	0.01
Mof_H 	H 	0.4682	0.329	0.8776	0.067
Mof_H 	H 	0.5243	0.3979	0.8202	0.037
Mof_H 	H 	0.5127	0.3486	0.8984	0.057
Mof_H 	H 	0.4537	0.8881	0.8452	-0.031
Mof_H 	H 	0.4576	0.8081	0.8038	0.013
Mof_H 	H 	0.6579	0.8693	0.7858	0.034
Mof_H 	H 	0.6085	0.8526	0.8658	0.01
Mof_H 	H 	0.6542	0.7934	0.8776	0.067
Mof_H 	H 	0.6555	0.7819	0.8202	0.037
Mof_H 	H 	0.5889	0.753	0.8984	0.057
Mof_H 	H 	0.6381	0.7037	0.3452	-0.031
Mof_H 	H 	0.5581	0.7076	0.3038	0.013
Mof_H 	H 	0.6193	0.9079	0.2858	0.033
Mof_H 	H 	0.6026	0.8585	0.3658	0.009
Mof_H 	H 	0.5434	0.9042	0.3776	0.067
Mof_H 	H 	0.5319	0.9055	0.3202	0.037
Mof_H 	H 	0.503	0.8389	0.3984	0.057
Mof_H 	H 	0.0167	0.9511	0.3452	-0.033
Mof_H 	H 	0.1381	0.9886	0.3038	0.012
Mof_H 	H 	0.0949	0.8063	0.2858	0.033
Mof_H 	H 	0.0316	0.7757	0.3658	0.008
Mof_H 	H 	0.079	0.7182	0.3776	0.066
Mof_H 	H 	0.1479	0.7743	0.3202	0.037
Mof_H 	H 	0.0986	0.7627	0.3984	0.056
Mof_C 	C 	0.6134	0.3372	0.8226	0.164
Mof_C 	C 	0.6774	0.2974	0.8412	0.042
Mof_C 	C 	0.7033	0.365	0.81	-0.033
Mof_C 	C 	0.548	0.329	0.834	-0.111
Mof_C 	C 	0.512	0.352	0.858	-0.179
Mof_C 	C 	0.564	0.8402	0.8226	0.164
Mof_C 	C 	0.4814	0.8614	0.8412	0.042
Mof_C 	C 	0.4867	0.825	0.81	-0.033
Mof_C 	C 	0.618	0.837	0.834	-0.112
Mof_C 	C 	0.63	0.79	0.858	-0.178
Mof_C 	C 	0.5902	0.814	0.3226	0.163
Mof_C 	C 	0.6114	0.7314	0.3412	0.042
Mof_C 	C 	0.575	0.7367	0.31	-0.033
Mof_C 	C 	0.587	0.868	0.334	-0.11
Mof_C 	C 	0.54	0.88	0.358	-0.179
Mof_C 	C 	0.0872	0.8634	0.3226	0.163
Mof_C 	C 	0.0474	0.9274	0.3412	0.042
Mof_C 	C 	0.115	0.9533	0.31	-0.034
Mof_C 	C 	0.079	0.798	0.334	-0.111
Mof_C 	C 	0.102	0.762	0.358	-0.177
Mof_S 	S 	0.4572	0.1764	0.9962	-0.769
Mof_S 	S 	0.5638	0.8092	0.149	-0.759
Mof_S 	S 	0.40532	0.84372	0.15216	-1.143
Mof_S 	S 	0.58369	0.98579	0.99322	-1.136
Mof_S 	S 	0.5984	0.1581	0.8376	-0.758
Mof_S 	S 	0.4233	0.8281	0.307	-0.767
Mof_S 	S 	0.6009	0.97	0.1498	-0.764
Mof_S 	S 	0.6173	0.1402	0.9976	-0.758
Mof_S 	S 	0.5466	0.8274	0.9962	-0.767
Mof_S 	S 	0.2872	0.0418	0.149	-0.755
Mof_S 	S 	0.44252	0.00412	0.15216	-1.142
Mof_S 	S 	0.42309	0.02099	0.99322	-1.129
Mof_S 	S 	0.564	0.0043	0.8376	-0.755
Mof_S 	S 	0.2697	0.8649	0.307	-0.767
Mof_S 	S 	0.2493	0.8802	0.1498	-0.759
Mof_S 	S 	0.3851	0.8622	0.9976	-0.757
Mof_S 	S 	0.5774	0.7966	0.4962	-0.768
Mof_S 	S 	0.7918	0.5372	0.649	-0.758
Mof_S 	S 	0.75412	0.69252	0.65216	-1.144
Mof_S 	S 	0.77099	0.67309	0.49322	-1.13
Mof_S 	S 	0.7543	0.814	0.3376	-0.758
Mof_S 	S 	0.6149	0.5197	0.807	-0.768
Mof_S 	S 	0.6302	0.4993	0.6498	-0.759
Mof_S 	S 	0.6122	0.6351	0.4976	-0.757
Mof_S 	S 	0.9264	0.7072	0.4962	-0.766
Mof_S 	S 	0.5592	0.8138	0.649	-0.759
Mof_S 	S 	0.59372	0.65532	0.65216	-1.144
Mof_S 	S 	0.73579	0.83369	0.49322	-1.131
Mof_S 	S 	0.9081	0.8484	0.3376	-0.758
Mof_S 	S 	0.5781	0.6733	0.807	-0.768
Mof_S 	S 	0.72	0.8509	0.6498	-0.76
Mof_S 	S 	0.8902	0.8673	0.4976	-0.757
Mof_N 	N 	0.6196	0.285	0.8626	-0.326
Mof_N 	N 	0.6601	0.3872	0.788	-0.294
Mof_N 	N 	0.5178	0.8524	0.8626	-0.326
Mof_N 	N 	0.5519	0.8248	0.788	-0.294
Mof_N 	N 	0.6024	0.7678	0.3626	-0.326
Mof_N 	N 	0.5748	0.8019	0.288	-0.294
Mof_N 	N 	0.035	0.8696	0.3626	-0.328
Mof_N 	N 	0.1372	0.9101	0.288	-0.294
Mof_In	In	0.81803	0.49713	0.07162	1.481
Mof_In	In	0.13457	0.59874	0.92648	1.483
Mof_In	In	0.14264	0.75603	0.78158	1.447
Mof_In	In	0.97478	0.63526	0.92612	1.501
Mof_In	In	0.11035	0.43125	0.07162	1.477
Mof_In	In	0.93895	0.47478	0.92648	1.486
Mof_In	In	0.07578	0.46239	0.78158	1.441
Mof_In	In	0.0991	0.43862	0.92612	1.485
Mof_In	In	0.24713	0.06803	0.57162	1.486
Mof_In	In	0.34874	0.38457	0.42648	1.485
Mof_In	In	0.50603	0.39264	0.28158	1.448
Mof_In	In	0.38526	0.22478	0.42612	1.49
Mof_In	In	0.18125	0.36035	0.57162	1.481
Mof_In	In	0.22478	0.18895	0.42648	1.484
Mof_In	In	0.21239	0.32578	0.28158	1.447
Mof_In	In	0.18862	0.3491	0.42612	1.49
Mof_In	In	0.95737	0.45737	0.08526	1.486
Mof_In	In	0.11565	0.61565	0.7687	1.496
Mof_In	In	0.20737	0.20737	0.58526	1.481
Mof_In	In	0.36565	0.36565	0.2687	1.501
Mof_H 	H 	0.7333	0.5463	0.1548	-0.031
Mof_H 	H 	0.6119	0.5424	0.1962	0.013
Mof_H 	H 	0.6551	0.3421	0.2142	0.034
Mof_H 	H 	0.7184	0.3915	0.1342	0.01
Mof_H 	H 	0.671	0.3458	0.1224	0.067
Mof_H 	H 	0.6021	0.3445	0.1798	0.037
Mof_H 	H 	0.6514	0.4111	0.1016	0.057
Mof_H 	H 	0.1119	0.2989	0.1548	-0.031
Mof_H 	H 	0.1919	0.2614	0.1962	0.013
Mof_H 	H 	0.1307	0.4437	0.2142	0.034
Mof_H 	H 	0.1474	0.4743	0.1342	0.01
Mof_H 	H 	0.2066	0.5318	0.1224	0.067
Mof_H 	H 	0.2181	0.4757	0.1798	0.037
Mof_H 	H 	0.247	0.4873	0.1016	0.057
Mof_H 	H 	0.2963	0.9833	0.6548	-0.032
Mof_H 	H 	0.2924	0.8619	0.6962	0.013
Mof_H 	H 	0.0921	0.9051	0.7142	0.033
Mof_H 	H 	0.1415	0.9684	0.6342	0.008
Mof_H 	H 	0.0958	0.921	0.6224	0.066
Mof_H 	H 	0.0945	0.8521	0.6798	0.037
Mof_H 	H 	0.1611	0.9014	0.6016	0.056
Mof_H 	H 	0.0489	0.3619	0.6548	-0.031
Mof_H 	H 	0.0114	0.4419	0.6962	0.012
Mof_H 	H 	0.1937	0.3807	0.7142	0.034
Mof_H 	H 	0.2243	0.3974	0.6342	0.01
Mof_H 	H 	0.2818	0.4566	0.6224	0.067
Mof_H 	H 	0.2257	0.4681	0.6798	0.037
Mof_H 	H 	0.2373	0.497	0.6016	0.057
Mof_C 	C 	0.6628	0.436	0.1774	0.164
Mof_C 	C 	0.7026	0.5186	0.1588	0.042
Mof_C 	C 	0.635	0.5133	0.19	-0.033
Mof_C 	C 	0.671	0.382	0.166	-0.111
Mof_C 	C 	0.648	0.37	0.142	-0.179
Mof_C 	C 	0.1598	0.3866	0.1774	0.163
Mof_C 	C 	0.1386	0.3226	0.1588	0.042
Mof_C 	C 	0.175	0.2967	0.19	-0.033
Mof_C 	C 	0.163	0.452	0.166	-0.111
Mof_C 	C 	0.21	0.488	0.142	-0.178
Mof_C 	C 	0.186	0.9128	0.6774	0.163
Mof_C 	C 	0.2686	0.9526	0.6588	0.042
Mof_C 	C 	0.2633	0.885	0.69	-0.033
Mof_C 	C 	0.132	0.921	0.666	-0.11
Mof_C 	C 	0.12	0.898	0.642	-0.179
Mof_C 	C 	0.1366	0.4098	0.6774	0.164
Mof_C 	C 	0.0726	0.3886	0.6588	0.042
Mof_C 	C 	0.0467	0.425	0.69	-0.033
Mof_C 	C 	0.202	0.413	0.666	-0.112
Mof_C 	C 	0.238	0.46	0.642	-0.178
Mof_S 	S 	0.8236	0.4534	0.0038	-0.769
Mof_S 	S 	0.1908	0.7128	0.851	-0.759
Mof_S 	S 	0.15628	0.55748	0.84784	-1.143
Mof_S 	S 	0.01421	0.57691	0.00678	-1.137
Mof_S 	S 	0.8419	0.436	0.1624	-0.758
Mof_S 	S 	0.1719	0.7303	0.693	-0.767
Mof_S 	S 	0.03	0.7507	0.8502	-0.765
Mof_S 	S 	0.8598	0.6149	0.0024	-0.759
Mof_S 	S 	0.1726	0.5428	0.0038	-0.768
Mof_S 	S 	0.9582	0.4362	0.851	-0.754
Mof_S 	S 	0.99588	0.59468	0.84784	-1.142
Mof_S 	S 	0.97901	0.41631	0.00678	-1.129
Mof_S 	S 	0.9957	0.4016	0.1624	-0.754
Mof_S 	S 	0.1351	0.5767	0.693	-0.767
Mof_S 	S 	0.1198	0.3991	0.8502	-0.758
Mof_S 	S 	0.1378	0.3827	0.0024	-0.756
Mof_S 	S 	0.2034	0.0736	0.5038	-0.767
Mof_S 	S 	0.4628	0.4408	0.351	-0.759
Mof_S 	S 	0.30748	0.40628	0.34784	-1.144
Mof_S 	S 	0.32691	0.26421	0.50678	-1.13
Mof_S 	S 	0.186	0.0919	0.6624	-0.758
Mof_S 	S 	0.4803	0.4219	0.193	-0.768
Mof_S 	S 	0.5007	0.28	0.3502	-0.759
Mof_S 	S 	0.3649	0.1098	0.5024	-0.756
Mof_S 	S 	0.2928	0.4226	0.5038	-0.768
Mof_S 	S 	0.1862	0.2082	0.351	-0.758
Mof_S 	S 	0.34468	0.24588	0.34784	-1.144
Mof_S 	S 	0.16631	0.22901	0.50678	-1.131
Mof_S 	S 	0.1516	0.2457	0.6624	-0.758
Mof_S 	S 	0.3267	0.3851	0.193	-0.768
Mof_S 	S 	0.1491	0.3698	0.3502	-0.76
Mof_S 	S 	0.1327	0.3878	0.5024	-0.758
Mof_N 	N 	0.715	0.4822	0.1374	-0.326
Mof_N 	N 	0.6128	0.4481	0.212	-0.294
Mof_N 	N 	0.1476	0.3804	0.1374	-0.326
Mof_N 	N 	0.1752	0.3399	0.212	-0.294
Mof_N 	N 	0.2322	0.965	0.6374	-0.328
Mof_N 	N 	0.1981	0.8628	0.712	-0.294
Mof_N 	N 	0.1304	0.3976	0.6374	-0.326
Mof_N 	N 	0.0899	0.4252	0.712	-0.294
_end
