data_functionalizedCrystal
_audit_creation_method	'EQeq! by Chris Wilmer'
_symmetry_space_group_name_H-M	'P1'
_symmetry_Int_Tables_number	1
_symmetry_cell_setting	triclinic
loop_
_symmetry_equiv_pos_as_xyz
  x,y,z
_cell_length_a	12.177
_cell_length_b	13.175
_cell_length_c	15.814
_cell_angle_alpha	66.028
_cell_angle_beta	87.249
_cell_angle_gamma	89.986
loop_
_atom_site_label
_atom_site_type_symbol
_atom_site_fract_x
_atom_site_fract_y
_atom_site_fract_z
_atom_site_charge
Mof_C 	C 	0.2565	0.3014	0.4472	0.192
Mof_C 	C 	0.2872	0.4123	0.3707	0.342
Mof_H 	H 	0.23	0.4656	0.3683	-0.035
Mof_C 	C 	0.2974	0.4024	0.28	-0.933
Mof_H 	H 	0.3166	0.4737	0.2316	0.342
Mof_H 	H 	0.2285	0.3767	0.268	0.337
Mof_H 	H 	0.3535	0.3505	0.2821	0.341
Mof_C 	C 	0.093	0.1521	0.7051	0.317
Mof_C 	C 	0.0617	0.1391	0.8012	0.008
Mof_C 	C 	0.1218	0.0777	0.8708	-0.082
Mof_H 	H 	0.1835	0.0421	0.8602	0.115
Mof_C 	C 	0.0903	0.0669	0.9631	0.128
Mof_C 	C 	0.0131	0.1268	0.9825	-0.019
Mof_C 	C 	0.9503	0.1941	0.9056	0.128
Mof_C 	C 	0.9745	0.1961	0.8184	-0.082
Mof_H 	H 	0.9306	0.2372	0.7701	0.109
Mof_C 	C 	0.9953	0.1301	0.0746	0.01
Mof_C 	C 	0.0642	0.1953	0.106	0.109
Mof_C 	C 	0.0536	0.1913	0.1938	-0.096
Mof_H 	H 	0.1005	0.2341	0.2115	0.103
Mof_C 	C 	0.9739	0.1245	0.2562	0.024
Mof_C 	C 	0.903	0.0578	0.2318	-0.089
Mof_H 	H 	0.8502	0.0105	0.2738	0.112
Mof_C 	C 	0.9164	0.0668	0.141	0.124
Mof_C 	C 	0.9688	0.1209	0.3529	0.279
Mof_C 	C 	0.8266	0.966	0.6504	0.271
Mof_C 	C 	0.8005	0.8693	0.7463	0.02
Mof_C 	C 	0.8625	0.8643	0.8219	-0.103
Mof_H 	H 	0.919	0.9157	0.8133	0.103
Mof_C 	C 	0.8376	0.7845	0.9052	0.116
Mof_C 	C 	0.7593	0.6989	0.9233	-0.011
Mof_C 	C 	0.7026	0.7042	0.849	0.109
Mof_C 	C 	0.7203	0.7959	0.7598	-0.082
Mof_H 	H 	0.6753	0.8035	0.7118	0.09
Mof_C 	C 	0.7405	0.6006	0.0157	-0.004
Mof_C 	C 	0.6526	0.6052	0.0741	0.109
Mof_C 	C 	0.6301	0.5163	0.1627	-0.093
Mof_H 	H 	0.5703	0.5182	0.2009	0.097
Mof_C 	C 	0.6999	0.4277	0.1897	0.027
Mof_C 	C 	0.7843	0.4218	0.1343	-0.104
Mof_H 	H 	0.8294	0.3604	0.1537	0.114
Mof_C 	C 	0.8037	0.5068	0.0492	0.127
Mof_C 	C 	0.6734	0.3321	0.286	0.288
Mof_C 	C 	0.1497	0.912	0.6217	0.246
Mof_C 	C 	0.075	0.8192	0.6213	0.044
Mof_C 	C 	0.0128	0.8328	0.5496	-0.116
Mof_H 	H 	0.0084	0.9022	0.5009	0.109
Mof_C 	C 	0.9546	0.7417	0.549	0.118
Mof_C 	C 	0.9583	0.6354	0.6189	-0.022
Mof_C 	C 	0.022	0.6272	0.6914	0.137
Mof_C 	C 	0.0751	0.7134	0.6936	-0.13
Mof_H 	H 	0.1143	0.7033	0.7454	0.127
Mof_C 	C 	0.9164	0.5391	0.6044	0.009
Mof_C 	C 	0.9824	0.4979	0.551	0.1
Mof_C 	C 	0.9406	0.4103	0.5252	-0.072
Mof_H 	H 	0.9859	0.3807	0.4923	0.102
Mof_C 	C 	0.8318	0.3721	0.5506	0.001
Mof_C 	C 	0.7684	0.4066	0.6092	-0.096
Mof_H 	H 	0.7003	0.3728	0.6335	0.104
Mof_C 	C 	0.805	0.4878	0.6304	0.109
Mof_C 	C 	0.793	0.2808	0.5213	0.311
Mof_C 	C 	0.4965	0.033	0.4889	0.209
Mof_C 	C 	0.5562	0.9631	0.441	0.311
Mof_H 	H 	0.5067	0.9554	0.3968	-0.042
Mof_C 	C 	0.5757	0.8482	0.5141	-0.89
Mof_H 	H 	0.6119	0.8044	0.4857	0.331
Mof_H 	H 	0.5065	0.8134	0.5429	0.322
Mof_H 	H 	0.6211	0.854	0.56	0.326
Mof_N 	N 	0.0352	0.5175	0.7641	-0.017
Mof_N 	N 	0.1587	0.9889	0.0386	-0.012
Mof_N 	N 	0.8626	0.2588	0.9206	-0.01
Mof_N 	N 	0.1523	0.2687	0.0428	0.001
Mof_N 	N 	0.8416	0.9933	0.1177	-0.028
Mof_N 	N 	0.8945	0.7925	0.9839	-0.007
Mof_N 	N 	0.5752	0.6957	0.0535	-0.009
Mof_N 	N 	0.8993	0.5039	0.9925	-0.013
Mof_N 	N 	0.6112	0.6255	0.8549	-0.002
Mof_N 	N 	0.7366	0.5238	0.6918	-0.004
Mof_N 	N 	0.0914	0.5362	0.5182	-0.009
Mof_N 	N 	0.891	0.7582	0.4687	-0.012
Mof_O 	O 	0.3386	0.2416	0.4895	-0.251
Mof_O 	O 	0.1583	0.2798	0.4657	-0.233
Mof_O 	O 	0.3907	0.4497	0.3921	-0.378
Mof_H 	H 	0.4053	0.5248	0.3757	0.205
Mof_O 	O 	0.1881	0.1204	0.6951	-0.271
Mof_O 	O 	0.0236	0.187	0.6464	-0.27
Mof_O 	O 	0.252	0.9719	0.0175	-0.084
Mof_O 	O 	0.113	0.9406	0.1119	-0.081
Mof_O 	O 	0.7864	0.2801	0.8647	-0.069
Mof_O 	O 	0.8613	0.2906	0.9819	-0.07
Mof_O 	O 	0.1712	0.2659	0.9716	-0.075
Mof_O 	O 	0.1922	0.3379	0.0649	-0.085
Mof_O 	O 	0.7984	0.0355	0.0427	-0.05
Mof_O 	O 	0.8224	0.9004	0.1764	-0.078
Mof_O 	O 	0.895	0.0545	0.4106	-0.245
Mof_O 	O 	0.0383	0.1773	0.3708	-0.258
Mof_O 	O 	0.9199	0.0033	0.6338	-0.247
Mof_O 	O 	0.7443	0.9871	0.5974	-0.276
Mof_O 	O 	0.9314	0.8765	0.9753	-0.089
Mof_O 	O 	0.924	0.7043	0.0436	-0.073
Mof_O 	O 	0.6186	0.5308	0.9134	-0.071
Mof_O 	O 	0.5405	0.6583	0.8021	-0.087
Mof_O 	O 	0.6183	0.7917	0.0136	-0.077
Mof_O 	O 	0.4812	0.6822	0.0654	-0.089
Mof_O 	O 	0.9041	0.5513	0.9088	-0.066
Mof_O 	O 	0.9731	0.4492	0.0325	-0.07
Mof_O 	O 	0.746	0.2621	0.3137	-0.264
Mof_O 	O 	0.5844	0.3392	0.3298	-0.272
Mof_O 	O 	0.2194	0.8911	0.6809	-0.242
Mof_O 	O 	0.1471	0.0062	0.5528	-0.25
Mof_O 	O 	0.1187	0.5043	0.8132	-0.065
Mof_O 	O 	0.9658	0.4445	0.779	-0.068
Mof_O 	O 	0.9414	0.8196	0.3915	-0.094
Mof_O 	O 	0.8038	0.7123	0.4801	-0.114
Mof_O 	O 	0.7602	0.6056	0.7028	-0.089
Mof_O 	O 	0.6497	0.4766	0.7184	-0.08
Mof_O 	O 	0.1537	0.5191	0.5817	-0.09
Mof_O 	O 	0.1163	0.5788	0.4419	-0.091
Mof_O 	O 	0.6919	0.2582	0.5332	-0.284
Mof_O 	O 	0.8613	0.2414	0.4841	-0.292
Mof_O 	O 	0.5478	0.1158	0.4895	-0.245
Mof_O 	O 	0.3992	0.0008	0.5201	-0.23
Mof_O 	O 	0.6535	0.0105	0.3935	-0.351
Mof_H 	H 	0.6825	0.9994	0.3425	0.188
Mof_Cd	Cd	0.52	0.31511	0.46936	0.455
Mof_Cd	Cd	0.30249	0.07061	0.60559	0.489
Mof_Cd	Cd	0.02208	0.14372	0.52316	0.519
Mof_Cd	Cd	0.7368	0.12133	0.45528	0.524
_end
