data_functionalizedCrystal
_audit_creation_method	'EQeq! by Chris Wilmer'
_symmetry_space_group_name_H-M	'P1'
_symmetry_Int_Tables_number	1
_symmetry_cell_setting	triclinic
loop_
_symmetry_equiv_pos_as_xyz
  x,y,z
_cell_length_a	45.597
_cell_length_b	45.597
_cell_length_c	40.718
_cell_angle_alpha	90
_cell_angle_beta	90
_cell_angle_gamma	120
loop_
_atom_site_label
_atom_site_type_symbol
_atom_site_fract_x
_atom_site_fract_y
_atom_site_fract_z
_atom_site_charge
Mof_In	In	0.24066	0.06441	0.4578	2.8
Mof_O 	O 	0.2614	0.0745	0.50587	-1.889
Mof_O 	O 	0.2307	0.0228	0.4944	-0.811
Mof_O 	O 	0.195	0.0744	0.4818	-0.406
Mof_O 	O 	0.18677	0.0381	0.4477	-0.57
Mof_O 	O 	0.23835	0.02558	0.42075	-0.487
Mof_O 	O 	0.28661	0.05941	0.442	-0.482
Mof_O 	O 	0.27212	0.12068	0.4581	-0.496
Mof_O 	O 	0.2473	0.0985	0.4126	-0.518
Mof_C 	C 	0.2534	0.0516	0.5161	3.203
Mof_C 	C 	0.1735	0.0519	0.4636	0.089
Mof_C 	C 	0.2537	0.0384	0.5362	-2.639
Mof_C 	C 	0.1414	0.044	0.4638	-0.035
Mof_C 	C 	0.277	0.0585	0.5691	0.721
Mof_C 	C 	0.2439	0.0105	0.5538	1.612
Mof_C 	C 	0.1265	0.0606	0.4789	0.06
Mof_C 	C 	0.1214	0.0164	0.4438	0.215
Mof_H 	H 	0.29	0.0817	0.5656	-0.172
Mof_C 	C 	0.2823	0.049	0.6015	-0.651
Mof_C 	C 	0.2423	0.9922	0.5842	-0.952
Mof_H 	H 	0.2313	0.9932	0.5389	-0.409
Mof_C 	C 	0.0905	0.047	0.4737	-0.152
Mof_C 	C 	0.0858	0.0036	0.4396	-0.214
Mof_H 	H 	0.2977	0.0651	0.6159	0.267
Mof_C 	C 	0.2637	0.0154	0.6104	0.476
Mof_H 	H 	0.2294	0.9688	0.5865	0.382
Mof_H 	H 	0.0801	0.0575	0.4842	0.09
Mof_C 	C 	0.0717	0.0203	0.4549	0.097
Mof_H 	H 	0.0727	0.9845	0.4268	0.111
Mof_C 	C 	0.2683	0.0083	0.6459	-0.137
Mof_C 	C 	0.0334	0.0117	0.4549	0.042
Mof_C 	C 	0.2412	0.9848	0.6634	-0.005
Mof_C 	C 	0.3006	0.0231	0.6617	-0.007
Mof_C 	C 	0.0117	0.9772	0.4547	-0.118
Mof_H 	H 	0.22	0.975	0.6536	0.034
Mof_C 	C 	0.2433	0.9748	0.695	0.014
Mof_C 	C 	0.3036	0.0132	0.6935	0.005
Mof_H 	H 	0.3197	0.0394	0.6507	0.034
Mof_H 	H 	0.0196	0.9621	0.4543	0.074
Mof_C 	C 	0.2749	0.9896	0.7091	-0.073
Mof_C 	C 	0.2144	0.95054	0.7136	0.016
Mof_C 	C 	0.3379	0.0281	0.7088	0.048
Mof_H 	H 	0.2768	0.9833	0.7303	0.068
Mof_C 	C 	0.1821	0.94339	0.70448	-0.077
Mof_C 	C 	0.21846	0.9324	0.7389	-0.019
Mof_C 	C 	0.345	0.0065	0.7285	-0.086
Mof_C 	C 	0.3632	0.0602	0.7043	-0.092
Mof_H 	H 	0.1794	0.9555	0.6876	0.062
Mof_C 	C 	0.15389	0.9181	0.7206	-0.008
Mof_C 	C 	0.1903	0.9071	0.755	0.015
Mof_H 	H 	0.3284	0.9839	0.7313	0.068
Mof_C 	C 	0.3761	0.0185	0.7435	0
Mof_C 	C 	0.3936	0.0715	0.7215	0.008
Mof_H 	H 	0.3606	0.0746	0.69	0.07
Mof_H 	H 	0.1323	0.9133	0.7145	0.055
Mof_C 	C 	0.15797	0.89991	0.7458	-0.047
Mof_H 	H 	0.3805	0.004	0.7559	0.055
Mof_C 	C 	0.4005	0.0521	0.7401	-0.038
Mof_H 	H 	0.41	0.0943	0.7197	0.059
Mof_C 	C 	0.1238	0.8713	0.7634	0.326
Mof_C 	C 	0.4333	0.0646	0.7573	0.123
Mof_O 	O 	0.0962	0.8624	0.75095	-0.511
Mof_O 	O 	0.12985	0.86215	0.78906	-0.427
Mof_In	In	0.06917	0.8288	0.79455	2.451
Mof_O 	O 	0.0346	0.79617	0.83641	-0.465
Mof_O 	O 	0.09048	0.8242	0.84359	-0.467
Mof_O 	O 	0.03035	0.84499	0.78176	-0.477
Mof_O 	O 	0.07242	0.87573	0.81692	-0.476
Mof_O 	O 	0.03723	0.78363	0.76027	-0.502
Mof_O 	O 	0.0775	0.7847	0.7876	-0.37
Mof_C 	C 	0.062	0.8053	0.8532	0.3
Mof_C 	C 	0.0466	0.8696	0.7988	0.29
Mof_C 	C 	0.0547	0.7898	0.88851	-0.063
Mof_C 	C 	0.0361	0.8967	0.803	-0.061
Mof_C 	C 	0.0261	0.7598	0.8978	0.003
Mof_C 	C 	0.08011	0.80806	0.9113	0.013
Mof_C 	C 	0.0518	0.9222	0.8262	0.04
Mof_C 	C 	0.0098	0.89472	0.784	0.044
Mof_C 	C 	0.02292	0.74797	0.9298	-0.014
Mof_C 	C 	0.07696	0.7963	0.94329	0.005
Mof_C 	C 	0.0412	0.9458	0.8305	0.028
Mof_C 	C 	0.9993	0.9183	0.7882	-0.019
Mof_C 	C 	0.0484	0.7662	0.95254	-0.036
Mof_C 	C 	0.015	0.9438	0.8115	-0.017
Mof_C 	C 	0.0469	0.7517	0.9855	0.11
Mof_C 	C 	0.0085	0.9725	0.8111	-0.01
Mof_C 	C 	0.0166	0.7275	0.0007	-0.163
Mof_C 	C 	0.0765	0.7619	0.0028	-0.164
Mof_C 	C 	0.9737	0.9668	0.8146	0.019
Mof_H 	H 	0.996	0.7194	0.9899	0.098
Mof_C 	C 	0.0177	0.7157	0.0321	0.107
Mof_C 	C 	0.0782	0.7516	0.0331	0.092
Mof_H 	H 	0.0967	0.7771	0.9926	0.097
Mof_C 	C 	0.0481	0.7274	0.049	-0.158
Mof_C 	C 	0.9847	0.6902	0.04839	-0.027
Mof_C 	C 	0.111	0.7637	0.0515	0.018
Mof_H 	H 	0.0486	0.7196	0.0699	0.094
Mof_C 	C 	0.9572	0.69544	0.0498	-0.004
Mof_C 	C 	0.98227	0.6611	0.062	-0.011
Mof_C 	C 	0.1148	0.7697	0.0851	-0.092
Mof_C 	C 	0.141	0.7711	0.0333	-0.107
Mof_C 	C 	0.9273	0.6716	0.0648	0.029
Mof_C 	C 	0.9524	0.63726	0.077	0.032
Mof_H 	H 	0.0964	0.765	0.0985	0.071
Mof_C 	C 	0.1479	0.7833	0.0983	0.02
Mof_C 	C 	0.1709	0.7836	0.0481	0.046
Mof_H 	H 	0.1394	0.7671	0.0108	0.071
Mof_C 	C 	0.92488	0.6425	0.07841	-0.104
Mof_H 	H 	0.1509	0.7867	0.1208	0.058
Mof_C 	C 	0.1757	0.7917	0.0788	-0.099
Mof_H 	H 	0.1893	0.7867	0.0356	0.034
Mof_C 	C 	0.8916	0.6166	0.0966	0.383
Mof_C 	C 	0.2089	0.8083	0.0957	0.348
Mof_C 	C 	0.1899	0.9041	0.7513	0.022
Mof_C 	C 	0.0473	0.954	0.8151	-0.035
Mof_C 	C 	0.0575	0.9301	0.8124	-0.001
Mof_C 	C 	0.0213	0.9487	0.7937	0.035
Mof_C 	C 	0.0036	0.9203	0.7739	-0
Mof_C 	C 	0.0103	0.9741	0.7899	0.006
Mof_C 	C 	0.9747	0.9654	0.7949	-0.014
Mof_C 	C 	0.1781	0.0582	0.458	0.256
Mof_C 	C 	0.1382	0.0249	0.456	-0.151
Mof_C 	C 	0.0774	0.7754	0.9342	-0.011
Mof_C 	C 	0.0823	0.7902	0.9033	0.035
Mof_C 	C 	0.0199	0.7617	0.9357	0.006
Mof_C 	C 	0.0229	0.7723	0.9032	0.036
Mof_C 	C 	0.9719	0.6976	0.0762	-0.007
Mof_C 	C 	0.9436	0.6739	0.0934	0.042
Mof_C 	C 	0.9357	0.6329	0.0506	0.03
Mof_C 	C 	0.9624	0.6593	0.0339	-0.008
Mof_O 	O 	0.8733	0.6284	0.105	-0.181
Mof_C 	C 	0.4349	0.06357	0.7538	0.15
Mof_In	In	0.90732	0.39774	0.79113	2.801
Mof_O 	O 	0.92807	0.40783	0.8392	-1.888
Mof_O 	O 	0.89737	0.35613	0.82773	-0.81
Mof_O 	O 	0.86167	0.40773	0.81513	-0.405
Mof_O 	O 	0.85344	0.37143	0.78103	-0.569
Mof_O 	O 	0.90502	0.35891	0.75408	-0.485
Mof_O 	O 	0.95328	0.39274	0.77533	-0.48
Mof_O 	O 	0.93879	0.45401	0.79143	-0.495
Mof_O 	O 	0.91397	0.43183	0.74593	-0.517
Mof_C 	C 	0.92007	0.38493	0.84943	3.204
Mof_C 	C 	0.84017	0.38523	0.79693	0.09
Mof_C 	C 	0.92037	0.37173	0.86953	-2.638
Mof_C 	C 	0.80807	0.37733	0.79713	-0.034
Mof_C 	C 	0.94367	0.39183	0.90243	0.722
Mof_C 	C 	0.91057	0.34383	0.88713	1.613
Mof_C 	C 	0.79317	0.39393	0.81223	0.061
Mof_C 	C 	0.78807	0.34973	0.77713	0.216
Mof_H 	H 	0.95667	0.41503	0.89893	-0.171
Mof_C 	C 	0.94897	0.38233	0.93483	-0.65
Mof_C 	C 	0.90897	0.32553	0.91753	-0.951
Mof_H 	H 	0.89797	0.32653	0.87223	-0.408
Mof_C 	C 	0.75717	0.38033	0.80703	-0.151
Mof_C 	C 	0.75247	0.33693	0.77293	-0.213
Mof_H 	H 	0.96437	0.39843	0.94923	0.268
Mof_C 	C 	0.93037	0.34873	0.94373	0.476
Mof_H 	H 	0.89607	0.30213	0.91983	0.382
Mof_H 	H 	0.74677	0.39083	0.81753	0.09
Mof_C 	C 	0.73837	0.35363	0.78823	0.097
Mof_H 	H 	0.73937	0.31783	0.76013	0.111
Mof_C 	C 	0.93497	0.34163	0.97923	-0.137
Mof_C 	C 	0.70007	0.34503	0.78823	0.042
Mof_C 	C 	0.90787	0.31813	0.99673	-0.005
Mof_C 	C 	0.96727	0.35643	0.99503	-0.007
Mof_C 	C 	0.67837	0.31053	0.78803	-0.118
Mof_H 	H 	0.88667	0.30833	0.98693	0.034
Mof_C 	C 	0.90997	0.30813	0.02833	0.014
Mof_C 	C 	0.97027	0.34653	0.02683	0.005
Mof_H 	H 	0.98637	0.37273	0.98403	0.034
Mof_H 	H 	0.68627	0.29543	0.78763	0.074
Mof_C 	C 	0.94157	0.32293	0.04243	-0.073
Mof_C 	C 	0.88107	0.28387	0.04693	0.016
Mof_C 	C 	0.00457	0.36143	0.04213	0.048
Mof_H 	H 	0.94347	0.31663	0.06363	0.068
Mof_C 	C 	0.84877	0.27672	0.03781	-0.077
Mof_C 	C 	0.88513	0.26573	0.07223	-0.019
Mof_C 	C 	0.01167	0.33983	0.06183	-0.086
Mof_C 	C 	0.02987	0.39353	0.03763	-0.092
Mof_H 	H 	0.84607	0.28883	0.02093	0.062
Mof_C 	C 	0.82056	0.25143	0.05393	-0.008
Mof_C 	C 	0.85697	0.24043	0.08833	0.015
Mof_H 	H 	0.99507	0.31723	0.06463	0.068
Mof_C 	C 	0.04277	0.35183	0.07683	-0
Mof_C 	C 	0.06027	0.40483	0.05483	0.008
Mof_H 	H 	0.02727	0.40793	0.02333	0.07
Mof_H 	H 	0.79897	0.24663	0.04783	0.055
Mof_C 	C 	0.82464	0.23324	0.07913	-0.047
Mof_H 	H 	0.04717	0.33733	0.08923	0.055
Mof_C 	C 	0.06717	0.38543	0.07343	-0.038
Mof_H 	H 	0.07667	0.42763	0.05303	0.059
Mof_C 	C 	0.79047	0.20463	0.09673	0.326
Mof_C 	C 	0.09997	0.39793	0.09063	0.123
Mof_O 	O 	0.76287	0.19573	0.08428	-0.511
Mof_O 	O 	0.79652	0.19548	0.12239	-0.427
Mof_In	In	0.73583	0.16214	0.12788	2.451
Mof_O 	O 	0.70127	0.1295	0.16974	-0.465
Mof_O 	O 	0.75715	0.15753	0.17692	-0.467
Mof_O 	O 	0.69702	0.17832	0.11509	-0.477
Mof_O 	O 	0.73909	0.20906	0.15025	-0.476
Mof_O 	O 	0.7039	0.11696	0.0936	-0.502
Mof_O 	O 	0.74417	0.11803	0.12093	-0.37
Mof_C 	C 	0.72867	0.13863	0.18653	0.3
Mof_C 	C 	0.71327	0.20293	0.13213	0.29
Mof_C 	C 	0.72137	0.12313	0.22184	-0.063
Mof_C 	C 	0.70277	0.23003	0.13633	-0.061
Mof_C 	C 	0.69277	0.09313	0.23113	0.003
Mof_C 	C 	0.74678	0.14139	0.24463	0.013
Mof_C 	C 	0.71847	0.25553	0.15953	0.04
Mof_C 	C 	0.67647	0.22805	0.11733	0.044
Mof_C 	C 	0.68959	0.0813	0.26313	-0.014
Mof_C 	C 	0.74363	0.12963	0.27662	0.005
Mof_C 	C 	0.70787	0.27913	0.16383	0.028
Mof_C 	C 	0.66597	0.25163	0.12153	-0.019
Mof_C 	C 	0.71507	0.09953	0.28587	-0.036
Mof_C 	C 	0.68167	0.27713	0.14483	-0.017
Mof_C 	C 	0.71357	0.08503	0.31883	0.11
Mof_C 	C 	0.67517	0.30583	0.14443	-0.01
Mof_C 	C 	0.68327	0.06083	0.33403	-0.163
Mof_C 	C 	0.74317	0.09523	0.33613	-0.165
Mof_C 	C 	0.64037	0.30013	0.14793	0.019
Mof_H 	H 	0.66267	0.05273	0.32323	0.098
Mof_C 	C 	0.68437	0.04903	0.36543	0.107
Mof_C 	C 	0.74487	0.08493	0.36643	0.092
Mof_H 	H 	0.76337	0.11043	0.32593	0.097
Mof_C 	C 	0.71477	0.06073	0.38233	-0.158
Mof_C 	C 	0.65137	0.02353	0.38172	-0.027
Mof_C 	C 	0.77767	0.09703	0.38483	0.018
Mof_H 	H 	0.71527	0.05293	0.40323	0.094
Mof_C 	C 	0.62387	0.02877	0.38313	-0.004
Mof_C 	C 	0.64894	0.99443	0.39533	-0.011
Mof_C 	C 	0.78147	0.10303	0.41843	-0.092
Mof_C 	C 	0.80767	0.10443	0.36663	-0.107
Mof_C 	C 	0.59397	0.00493	0.39813	0.029
Mof_C 	C 	0.61907	0.97059	0.41033	0.032
Mof_H 	H 	0.76307	0.09833	0.43183	0.071
Mof_C 	C 	0.81457	0.11663	0.43163	0.02
Mof_C 	C 	0.83757	0.11693	0.38143	0.046
Mof_H 	H 	0.80607	0.10043	0.34413	0.071
Mof_C 	C 	0.59155	0.97583	0.41174	-0.104
Mof_H 	H 	0.81757	0.12003	0.45413	0.058
Mof_C 	C 	0.84237	0.12503	0.41213	-0.099
Mof_H 	H 	0.85597	0.12003	0.36893	0.034
Mof_C 	C 	0.55827	0.94993	0.42993	0.384
Mof_C 	C 	0.87557	0.14163	0.42903	0.348
Mof_C 	C 	0.85657	0.23743	0.08463	0.022
Mof_C 	C 	0.71397	0.28733	0.14843	-0.035
Mof_C 	C 	0.72417	0.26343	0.14573	-0.001
Mof_C 	C 	0.68797	0.28203	0.12703	0.035
Mof_C 	C 	0.67027	0.25363	0.10723	-0
Mof_C 	C 	0.67697	0.30743	0.12323	0.006
Mof_C 	C 	0.64137	0.29873	0.12823	-0.014
Mof_C 	C 	0.84477	0.39153	0.79133	0.256
Mof_C 	C 	0.80487	0.35823	0.78933	-0.151
Mof_C 	C 	0.74407	0.10873	0.26753	-0.011
Mof_C 	C 	0.74897	0.12353	0.23663	0.035
Mof_C 	C 	0.68657	0.09503	0.26903	0.006
Mof_C 	C 	0.68957	0.10563	0.23653	0.036
Mof_C 	C 	0.63857	0.03093	0.40953	-0.007
Mof_C 	C 	0.61027	0.00723	0.42673	0.042
Mof_C 	C 	0.60237	0.96623	0.38393	0.03
Mof_C 	C 	0.62907	0.99263	0.36723	-0.008
Mof_O 	O 	0.53997	0.96173	0.43833	-0.181
Mof_C 	C 	0.10157	0.3969	0.08713	0.15
Mof_In	In	0.57399	0.73108	0.12447	2.801
Mof_O 	O 	0.59473	0.74117	0.17254	-1.888
Mof_O 	O 	0.56403	0.68947	0.16107	-0.81
Mof_O 	O 	0.52833	0.74107	0.14847	-0.405
Mof_O 	O 	0.5201	0.70477	0.11437	-0.569
Mof_O 	O 	0.57168	0.69225	0.08742	-0.485
Mof_O 	O 	0.61994	0.72608	0.10867	-0.481
Mof_O 	O 	0.60545	0.78735	0.12477	-0.495
Mof_O 	O 	0.58063	0.76517	0.07927	-0.517
Mof_C 	C 	0.58673	0.71827	0.18277	3.204
Mof_C 	C 	0.50683	0.71857	0.13027	0.09
Mof_C 	C 	0.58703	0.70507	0.20287	-2.638
Mof_C 	C 	0.47473	0.71067	0.13047	-0.034
Mof_C 	C 	0.61033	0.72517	0.23577	0.722
Mof_C 	C 	0.57723	0.67717	0.22047	1.613
Mof_C 	C 	0.45983	0.72727	0.14557	0.061
Mof_C 	C 	0.45473	0.68307	0.11047	0.216
Mof_H 	H 	0.62333	0.74837	0.23227	-0.171
Mof_C 	C 	0.61563	0.71567	0.26817	-0.65
Mof_C 	C 	0.57563	0.65887	0.25087	-0.951
Mof_H 	H 	0.56463	0.65987	0.20557	-0.408
Mof_C 	C 	0.42383	0.71367	0.14037	-0.151
Mof_C 	C 	0.41913	0.67027	0.10627	-0.213
Mof_H 	H 	0.63103	0.73177	0.28257	0.268
Mof_C 	C 	0.59703	0.68207	0.27707	0.476
Mof_H 	H 	0.56273	0.63547	0.25317	0.382
Mof_H 	H 	0.41343	0.72417	0.15087	0.09
Mof_C 	C 	0.40503	0.68697	0.12157	0.097
Mof_H 	H 	0.40603	0.65117	0.09347	0.111
Mof_C 	C 	0.60163	0.67497	0.31257	-0.137
Mof_C 	C 	0.36673	0.67837	0.12157	0.042
Mof_C 	C 	0.57453	0.65147	0.33007	-0.005
Mof_C 	C 	0.63393	0.68977	0.32837	-0.007
Mof_C 	C 	0.34503	0.64387	0.12137	-0.118
Mof_H 	H 	0.55333	0.64167	0.32027	0.034
Mof_C 	C 	0.57663	0.64147	0.36167	0.014
Mof_C 	C 	0.63693	0.67987	0.36017	0.005
Mof_H 	H 	0.65303	0.70607	0.31737	0.034
Mof_H 	H 	0.35293	0.62877	0.12097	0.074
Mof_C 	C 	0.60823	0.65627	0.37577	-0.073
Mof_C 	C 	0.54773	0.61721	0.38027	0.016
Mof_C 	C 	0.67123	0.69477	0.37547	0.048
Mof_H 	H 	0.61013	0.64997	0.39697	0.068
Mof_C 	C 	0.51543	0.61006	0.37115	-0.077
Mof_C 	C 	0.55179	0.59907	0.40557	-0.019
Mof_C 	C 	0.67833	0.67317	0.39517	-0.086
Mof_C 	C 	0.69653	0.72687	0.37097	-0.092
Mof_H 	H 	0.51273	0.62217	0.35427	0.062
Mof_C 	C 	0.48722	0.58477	0.38727	-0.008
Mof_C 	C 	0.52363	0.57377	0.42167	0.015
Mof_H 	H 	0.66173	0.65057	0.39797	0.068
Mof_C 	C 	0.70943	0.68517	0.41017	0
Mof_C 	C 	0.72693	0.73817	0.38817	0.008
Mof_H 	H 	0.69393	0.74127	0.35667	0.07
Mof_H 	H 	0.46563	0.57997	0.38117	0.055
Mof_C 	C 	0.4913	0.56658	0.41247	-0.047
Mof_H 	H 	0.71383	0.67067	0.42257	0.055
Mof_C 	C 	0.73383	0.71877	0.40677	-0.038
Mof_H 	H 	0.74333	0.76097	0.38637	0.059
Mof_C 	C 	0.45713	0.53797	0.43007	0.326
Mof_C 	C 	0.76663	0.73127	0.42397	0.123
Mof_O 	O 	0.42953	0.52907	0.41762	-0.511
Mof_O 	O 	0.46318	0.52882	0.45573	-0.427
Mof_In	In	0.4025	0.49547	0.46121	2.451
Mof_O 	O 	0.36793	0.46284	0.50308	-0.465
Mof_O 	O 	0.42381	0.49087	0.51026	-0.467
Mof_O 	O 	0.36368	0.51166	0.44843	-0.477
Mof_O 	O 	0.40575	0.5424	0.48359	-0.476
Mof_O 	O 	0.37056	0.4503	0.42694	-0.502
Mof_O 	O 	0.41083	0.45137	0.45427	-0.37
Mof_C 	C 	0.39533	0.47197	0.51987	0.3
Mof_C 	C 	0.37993	0.53627	0.46547	0.29
Mof_C 	C 	0.38803	0.45647	0.55518	-0.063
Mof_C 	C 	0.36943	0.56337	0.46967	-0.061
Mof_C 	C 	0.35943	0.42647	0.56447	0.003
Mof_C 	C 	0.41344	0.47473	0.57797	0.013
Mof_C 	C 	0.38513	0.58887	0.49287	0.04
Mof_C 	C 	0.34313	0.56139	0.45067	0.044
Mof_C 	C 	0.35625	0.41464	0.59647	-0.014
Mof_C 	C 	0.41029	0.46297	0.60996	0.005
Mof_C 	C 	0.37453	0.61247	0.49717	0.028
Mof_C 	C 	0.33263	0.58497	0.45487	-0.019
Mof_C 	C 	0.38173	0.43287	0.61921	-0.036
Mof_C 	C 	0.34833	0.61047	0.47817	-0.017
Mof_C 	C 	0.38023	0.41837	0.65217	0.11
Mof_C 	C 	0.34183	0.63917	0.47777	-0.01
Mof_C 	C 	0.34993	0.39417	0.66737	-0.163
Mof_C 	C 	0.40983	0.42857	0.66947	-0.165
Mof_C 	C 	0.30703	0.63347	0.48127	0.019
Mof_H 	H 	0.32933	0.38607	0.65657	0.098
Mof_C 	C 	0.35103	0.38237	0.69877	0.107
Mof_C 	C 	0.41153	0.41827	0.69977	0.092
Mof_H 	H 	0.43003	0.44377	0.65927	0.097
Mof_C 	C 	0.38143	0.39407	0.71567	-0.158
Mof_C 	C 	0.31803	0.35687	0.71506	-0.027
Mof_C 	C 	0.44433	0.43037	0.71817	0.018
Mof_H 	H 	0.38193	0.38627	0.73657	0.094
Mof_C 	C 	0.29053	0.36211	0.71647	-0.004
Mof_C 	C 	0.3156	0.32777	0.72867	-0.011
Mof_C 	C 	0.44813	0.43637	0.75177	-0.092
Mof_C 	C 	0.47433	0.43777	0.69997	-0.107
Mof_C 	C 	0.26063	0.33827	0.73147	0.029
Mof_C 	C 	0.28573	0.30393	0.74367	0.032
Mof_H 	H 	0.42973	0.43167	0.76517	0.071
Mof_C 	C 	0.48123	0.44997	0.76497	0.02
Mof_C 	C 	0.50423	0.45027	0.71477	0.046
Mof_H 	H 	0.47273	0.43377	0.67747	0.071
Mof_C 	C 	0.25821	0.30917	0.74508	-0.104
Mof_H 	H 	0.48423	0.45337	0.78747	0.058
Mof_C 	C 	0.50903	0.45837	0.74547	-0.099
Mof_H 	H 	0.52263	0.45337	0.70227	0.034
Mof_C 	C 	0.22493	0.28327	0.76327	0.383
Mof_C 	C 	0.54223	0.47497	0.76237	0.348
Mof_C 	C 	0.52323	0.57077	0.41797	0.022
Mof_C 	C 	0.38063	0.62067	0.48177	-0.035
Mof_C 	C 	0.39083	0.59677	0.47907	-0.001
Mof_C 	C 	0.35463	0.61537	0.46037	0.035
Mof_C 	C 	0.33693	0.58697	0.44057	-0
Mof_C 	C 	0.34363	0.64077	0.45657	0.006
Mof_C 	C 	0.30803	0.63207	0.46157	-0.014
Mof_C 	C 	0.51143	0.72487	0.12467	0.256
Mof_C 	C 	0.47153	0.69157	0.12267	-0.151
Mof_C 	C 	0.41073	0.44207	0.60087	-0.011
Mof_C 	C 	0.41563	0.45687	0.56997	0.035
Mof_C 	C 	0.35323	0.42837	0.60237	0.006
Mof_C 	C 	0.35623	0.43897	0.56987	0.036
Mof_C 	C 	0.30523	0.36427	0.74287	-0.007
Mof_C 	C 	0.27693	0.34057	0.76007	0.042
Mof_C 	C 	0.26903	0.29957	0.71727	0.03
Mof_C 	C 	0.29573	0.32597	0.70057	-0.008
Mof_O 	O 	0.20663	0.29507	0.77167	-0.181
Mof_C 	C 	0.76823	0.73024	0.42047	0.15
Mof_In	In	0.93559	0.17625	0.4578	2.801
Mof_O 	O 	0.9255	0.1869	0.50587	-1.888
Mof_O 	O 	0.9772	0.2079	0.4944	-0.81
Mof_O 	O 	0.9256	0.1206	0.4818	-0.405
Mof_O 	O 	0.9619	0.14867	0.4477	-0.569
Mof_O 	O 	0.97442	0.21277	0.42075	-0.485
Mof_O 	O 	0.94059	0.2272	0.442	-0.481
Mof_O 	O 	0.87932	0.15144	0.4581	-0.495
Mof_O 	O 	0.9015	0.1488	0.4126	-0.517
Mof_C 	C 	0.9484	0.2018	0.5161	3.204
Mof_C 	C 	0.9481	0.1216	0.4636	0.09
Mof_C 	C 	0.9616	0.2153	0.5362	-2.638
Mof_C 	C 	0.956	0.0974	0.4638	-0.034
Mof_C 	C 	0.9415	0.2185	0.5691	0.722
Mof_C 	C 	0.9895	0.2334	0.5538	1.613
Mof_C 	C 	0.9394	0.0659	0.4789	0.061
Mof_C 	C 	0.9836	0.105	0.4438	0.216
Mof_H 	H 	0.9183	0.2083	0.5656	-0.171
Mof_C 	C 	0.951	0.2333	0.6015	-0.65
Mof_C 	C 	0.0078	0.2501	0.5842	-0.951
Mof_H 	H 	0.0068	0.2381	0.5389	-0.408
Mof_C 	C 	0.953	0.0435	0.4737	-0.151
Mof_C 	C 	0.9964	0.0822	0.4396	-0.213
Mof_H 	H 	0.9349	0.2326	0.6159	0.268
Mof_C 	C 	0.9846	0.2483	0.6104	0.476
Mof_H 	H 	0.0312	0.2606	0.5865	0.382
Mof_H 	H 	0.9425	0.0226	0.4842	0.09
Mof_C 	C 	0.9797	0.0514	0.4549	0.097
Mof_H 	H 	0.0155	0.0882	0.4268	0.111
Mof_C 	C 	0.9917	0.26	0.6459	-0.137
Mof_C 	C 	0.9883	0.0217	0.4549	0.042
Mof_C 	C 	0.0152	0.2564	0.6634	-0.005
Mof_C 	C 	0.9769	0.2775	0.6617	-0.007
Mof_C 	C 	0.0228	0.0345	0.4547	-0.118
Mof_H 	H 	0.025	0.245	0.6536	0.034
Mof_C 	C 	0.0252	0.2685	0.695	0.014
Mof_C 	C 	0.9868	0.2904	0.6935	0.005
Mof_H 	H 	0.9606	0.2803	0.6507	0.034
Mof_H 	H 	0.0379	0.0575	0.4543	0.074
Mof_C 	C 	0.0104	0.2853	0.7091	-0.073
Mof_C 	C 	0.04946	0.26386	0.7136	0.016
Mof_C 	C 	0.9719	0.3098	0.7088	0.048
Mof_H 	H 	0.0167	0.2935	0.7303	0.068
Mof_C 	C 	0.05661	0.23871	0.70448	-0.077
Mof_C 	C 	0.0676	0.28606	0.7389	-0.019
Mof_C 	C 	0.9935	0.3385	0.7285	-0.086
Mof_C 	C 	0.9398	0.303	0.7043	-0.092
Mof_H 	H 	0.0445	0.2239	0.6876	0.062
Mof_C 	C 	0.0819	0.23579	0.7206	-0.008
Mof_C 	C 	0.0929	0.2832	0.755	0.015
Mof_H 	H 	0.0161	0.3445	0.7313	0.068
Mof_C 	C 	0.9815	0.3576	0.7435	0
Mof_C 	C 	0.9285	0.3221	0.7215	0.008
Mof_H 	H 	0.9254	0.286	0.69	0.07
Mof_H 	H 	0.0867	0.219	0.7145	0.055
Mof_C 	C 	0.10009	0.25806	0.7458	-0.047
Mof_H 	H 	0.996	0.3765	0.7559	0.055
Mof_C 	C 	0.9479	0.3484	0.7401	-0.038
Mof_H 	H 	0.9057	0.3157	0.7197	0.059
Mof_C 	C 	0.1287	0.2525	0.7634	0.326
Mof_C 	C 	0.9354	0.3687	0.7573	0.123
Mof_O 	O 	0.1376	0.2338	0.75095	-0.51
Mof_O 	O 	0.13785	0.2677	0.78906	-0.427
Mof_In	In	0.1712	0.24036	0.79455	2.451
Mof_O 	O 	0.20383	0.23843	0.83641	-0.465
Mof_O 	O 	0.1758	0.26628	0.84359	-0.467
Mof_O 	O 	0.15501	0.18536	0.78176	-0.477
Mof_O 	O 	0.12427	0.19669	0.81692	-0.476
Mof_O 	O 	0.21637	0.2536	0.76027	-0.502
Mof_O 	O 	0.2153	0.2928	0.7876	-0.37
Mof_C 	C 	0.1947	0.2567	0.8532	0.3
Mof_C 	C 	0.1304	0.177	0.7988	0.29
Mof_C 	C 	0.2102	0.2649	0.88851	-0.063
Mof_C 	C 	0.1033	0.1394	0.803	-0.061
Mof_C 	C 	0.2402	0.2663	0.8978	0.003
Mof_C 	C 	0.19194	0.27205	0.9113	0.013
Mof_C 	C 	0.0778	0.1296	0.8262	0.04
Mof_C 	C 	0.10528	0.11508	0.784	0.044
Mof_C 	C 	0.25203	0.27495	0.9298	-0.014
Mof_C 	C 	0.2037	0.28066	0.94329	0.005
Mof_C 	C 	0.0542	0.0954	0.8305	0.028
Mof_C 	C 	0.0817	0.081	0.7882	-0.019
Mof_C 	C 	0.2338	0.2822	0.95254	-0.036
Mof_C 	C 	0.0562	0.0712	0.8115	-0.017
Mof_C 	C 	0.2483	0.2952	0.9855	0.11
Mof_C 	C 	0.0275	0.036	0.8111	-0.01
Mof_C 	C 	0.2725	0.2891	0.0007	-0.163
Mof_C 	C 	0.2381	0.3146	0.0028	-0.165
Mof_C 	C 	0.0332	0.0069	0.8146	0.019
Mof_H 	H 	0.2806	0.2766	0.9899	0.098
Mof_C 	C 	0.2843	0.302	0.0321	0.107
Mof_C 	C 	0.2484	0.3266	0.0331	0.092
Mof_H 	H 	0.2229	0.3196	0.9926	0.097
Mof_C 	C 	0.2726	0.3207	0.049	-0.158
Mof_C 	C 	0.3098	0.2945	0.04839	-0.027
Mof_C 	C 	0.2363	0.3473	0.0515	0.018
Mof_H 	H 	0.2804	0.329	0.0699	0.094
Mof_C 	C 	0.30456	0.26176	0.0498	-0.004
Mof_C 	C 	0.3389	0.32117	0.062	-0.011
Mof_C 	C 	0.2303	0.3451	0.0851	-0.092
Mof_C 	C 	0.2289	0.3699	0.0333	-0.107
Mof_C 	C 	0.3284	0.2557	0.0648	0.029
Mof_C 	C 	0.36274	0.31514	0.077	0.032
Mof_H 	H 	0.235	0.3314	0.0985	0.071
Mof_C 	C 	0.2167	0.3646	0.0983	0.02
Mof_C 	C 	0.2164	0.3873	0.0481	0.046
Mof_H 	H 	0.2329	0.3723	0.0108	0.071
Mof_C 	C 	0.3575	0.28238	0.07841	-0.104
Mof_H 	H 	0.2133	0.3642	0.1208	0.058
Mof_C 	C 	0.2083	0.384	0.0788	-0.099
Mof_H 	H 	0.2133	0.4026	0.0356	0.034
Mof_C 	C 	0.3834	0.275	0.0966	0.383
Mof_C 	C 	0.1917	0.4006	0.0957	0.348
Mof_C 	C 	0.0959	0.2858	0.7513	0.022
Mof_C 	C 	0.046	0.0933	0.8151	-0.035
Mof_C 	C 	0.0699	0.1274	0.8124	-0.001
Mof_C 	C 	0.0513	0.0726	0.7937	0.035
Mof_C 	C 	0.0797	0.0833	0.7739	-0
Mof_C 	C 	0.0259	0.0362	0.7899	0.006
Mof_C 	C 	0.0346	0.0093	0.7949	-0.014
Mof_C 	C 	0.9418	0.1199	0.458	0.256
Mof_C 	C 	0.9751	0.1133	0.456	-0.151
Mof_C 	C 	0.2246	0.302	0.9342	-0.011
Mof_C 	C 	0.2098	0.2921	0.9033	0.035
Mof_C 	C 	0.2383	0.2582	0.9357	0.006
Mof_C 	C 	0.2277	0.2506	0.9032	0.036
Mof_C 	C 	0.3024	0.2743	0.0762	-0.007
Mof_C 	C 	0.3261	0.2697	0.0934	0.042
Mof_C 	C 	0.3671	0.3028	0.0506	0.03
Mof_C 	C 	0.3407	0.3031	0.0339	-0.008
Mof_O 	O 	0.3716	0.2449	0.105	-0.181
Mof_C 	C 	0.93643	0.37133	0.7538	0.15
Mof_In	In	0.60226	0.50958	0.79113	2.801
Mof_O 	O 	0.59217	0.52023	0.8392	-1.888
Mof_O 	O 	0.64387	0.54123	0.82773	-0.81
Mof_O 	O 	0.59227	0.45393	0.81513	-0.405
Mof_O 	O 	0.62857	0.482	0.78103	-0.569
Mof_O 	O 	0.64109	0.5461	0.75408	-0.485
Mof_O 	O 	0.60726	0.56053	0.77533	-0.481
Mof_O 	O 	0.54599	0.48477	0.79143	-0.495
Mof_O 	O 	0.56817	0.48213	0.74593	-0.517
Mof_C 	C 	0.61507	0.53513	0.84943	3.204
Mof_C 	C 	0.61477	0.45493	0.79693	0.09
Mof_C 	C 	0.62827	0.54863	0.86953	-2.638
Mof_C 	C 	0.62267	0.43073	0.79713	-0.034
Mof_C 	C 	0.60817	0.55183	0.90243	0.722
Mof_C 	C 	0.65617	0.56673	0.88713	1.613
Mof_C 	C 	0.60607	0.39923	0.81223	0.061
Mof_C 	C 	0.65027	0.43833	0.77713	0.216
Mof_H 	H 	0.58497	0.54163	0.89893	-0.171
Mof_C 	C 	0.61767	0.56663	0.93483	-0.65
Mof_C 	C 	0.67447	0.58343	0.91753	-0.951
Mof_H 	H 	0.67347	0.57143	0.87223	-0.408
Mof_C 	C 	0.61967	0.37683	0.80703	-0.151
Mof_C 	C 	0.66307	0.41553	0.77293	-0.213
Mof_H 	H 	0.60157	0.56593	0.94923	0.268
Mof_C 	C 	0.65127	0.58163	0.94373	0.476
Mof_H 	H 	0.69787	0.59393	0.91983	0.382
Mof_H 	H 	0.60917	0.35593	0.81753	0.09
Mof_C 	C 	0.64637	0.38473	0.78823	0.097
Mof_H 	H 	0.68217	0.42153	0.76013	0.111
Mof_C 	C 	0.65837	0.59333	0.97923	-0.137
Mof_C 	C 	0.65497	0.35503	0.78823	0.042
Mof_C 	C 	0.68187	0.58973	0.99673	-0.005
Mof_C 	C 	0.64357	0.61083	0.99503	-0.007
Mof_C 	C 	0.68947	0.36783	0.78803	-0.118
Mof_H 	H 	0.69167	0.57833	0.98693	0.034
Mof_C 	C 	0.69187	0.60183	0.02833	0.014
Mof_C 	C 	0.65347	0.62373	0.02683	0.005
Mof_H 	H 	0.62727	0.61363	0.98403	0.034
Mof_H 	H 	0.70457	0.39083	0.78763	0.074
Mof_C 	C 	0.67707	0.61863	0.04243	-0.073
Mof_C 	C 	0.71613	0.59719	0.04693	0.016
Mof_C 	C 	0.63857	0.64313	0.04213	0.048
Mof_H 	H 	0.68337	0.62683	0.06363	0.068
Mof_C 	C 	0.72328	0.57204	0.03781	-0.077
Mof_C 	C 	0.73427	0.61939	0.07223	-0.019
Mof_C 	C 	0.66017	0.67183	0.06183	-0.086
Mof_C 	C 	0.60647	0.63633	0.03763	-0.092
Mof_H 	H 	0.71117	0.55723	0.02093	0.062
Mof_C 	C 	0.74857	0.56912	0.05393	-0.008
Mof_C 	C 	0.75957	0.61653	0.08833	0.015
Mof_H 	H 	0.68277	0.67783	0.06463	0.068
Mof_C 	C 	0.64817	0.69093	0.07683	0
Mof_C 	C 	0.59517	0.65543	0.05483	0.008
Mof_H 	H 	0.59207	0.61933	0.02333	0.07
Mof_H 	H 	0.75337	0.55233	0.04783	0.055
Mof_C 	C 	0.76676	0.59139	0.07913	-0.047
Mof_H 	H 	0.66267	0.70983	0.08923	0.055
Mof_C 	C 	0.61457	0.68173	0.07343	-0.038
Mof_H 	H 	0.57237	0.64903	0.05303	0.059
Mof_C 	C 	0.79537	0.58583	0.09673	0.326
Mof_C 	C 	0.60207	0.70203	0.09063	0.123
Mof_O 	O 	0.80427	0.56713	0.08428	-0.511
Mof_O 	O 	0.80452	0.60103	0.12239	-0.427
Mof_In	In	0.83786	0.5737	0.12788	2.451
Mof_O 	O 	0.8705	0.57176	0.16974	-0.465
Mof_O 	O 	0.84247	0.59961	0.17692	-0.467
Mof_O 	O 	0.82168	0.51869	0.11509	-0.477
Mof_O 	O 	0.79094	0.53002	0.15025	-0.476
Mof_O 	O 	0.88304	0.58693	0.0936	-0.502
Mof_O 	O 	0.88197	0.62613	0.12093	-0.37
Mof_C 	C 	0.86137	0.59003	0.18653	0.3
Mof_C 	C 	0.79707	0.51033	0.13213	0.29
Mof_C 	C 	0.87687	0.59823	0.22184	-0.063
Mof_C 	C 	0.76997	0.47273	0.13633	-0.061
Mof_C 	C 	0.90687	0.59963	0.23113	0.003
Mof_C 	C 	0.85861	0.60538	0.24463	0.013
Mof_C 	C 	0.74447	0.46293	0.15953	0.04
Mof_C 	C 	0.77195	0.44841	0.11733	0.044
Mof_C 	C 	0.9187	0.60828	0.26313	-0.014
Mof_C 	C 	0.87037	0.61399	0.27662	0.005
Mof_C 	C 	0.72087	0.42873	0.16383	0.028
Mof_C 	C 	0.74837	0.41433	0.12153	-0.019
Mof_C 	C 	0.90047	0.61553	0.28587	-0.036
Mof_C 	C 	0.72287	0.40453	0.14483	-0.017
Mof_C 	C 	0.91497	0.62853	0.31883	0.11
Mof_C 	C 	0.69417	0.36933	0.14443	-0.01
Mof_C 	C 	0.93917	0.62243	0.33403	-0.163
Mof_C 	C 	0.90477	0.64793	0.33613	-0.164
Mof_C 	C 	0.69987	0.34023	0.14793	0.019
Mof_H 	H 	0.94727	0.60993	0.32323	0.098
Mof_C 	C 	0.95097	0.63533	0.36543	0.107
Mof_C 	C 	0.91507	0.65993	0.36643	0.092
Mof_H 	H 	0.88957	0.65293	0.32593	0.097
Mof_C 	C 	0.93927	0.65403	0.38233	-0.158
Mof_C 	C 	0.97647	0.62783	0.38172	-0.027
Mof_C 	C 	0.90297	0.68063	0.38483	0.018
Mof_H 	H 	0.94707	0.66233	0.40323	0.094
Mof_C 	C 	0.97123	0.59509	0.38313	-0.004
Mof_C 	C 	0.00557	0.6545	0.39533	-0.011
Mof_C 	C 	0.89697	0.67843	0.41843	-0.092
Mof_C 	C 	0.89557	0.70323	0.36663	-0.107
Mof_C 	C 	0.99507	0.58903	0.39813	0.029
Mof_C 	C 	0.02941	0.64847	0.41033	0.032
Mof_H 	H 	0.90167	0.66473	0.43183	0.071
Mof_C 	C 	0.88337	0.69793	0.43163	0.02
Mof_C 	C 	0.88307	0.72063	0.38143	0.046
Mof_H 	H 	0.89957	0.70563	0.34413	0.071
Mof_C 	C 	0.02417	0.61571	0.41174	-0.104
Mof_H 	H 	0.87997	0.69753	0.45413	0.058
Mof_C 	C 	0.87497	0.71733	0.41213	-0.099
Mof_H 	H 	0.87997	0.73593	0.36893	0.034
Mof_C 	C 	0.05007	0.60833	0.42993	0.384
Mof_C 	C 	0.85837	0.73393	0.42903	0.348
Mof_C 	C 	0.76257	0.61913	0.08463	0.022
Mof_C 	C 	0.71267	0.42663	0.14843	-0.035
Mof_C 	C 	0.73657	0.46073	0.14573	-0.001
Mof_C 	C 	0.71797	0.40593	0.12703	0.035
Mof_C 	C 	0.74637	0.41663	0.10723	-0
Mof_C 	C 	0.69257	0.36953	0.12323	0.006
Mof_C 	C 	0.70127	0.34263	0.12823	-0.014
Mof_C 	C 	0.60847	0.45323	0.79133	0.256
Mof_C 	C 	0.64177	0.44663	0.78933	-0.151
Mof_C 	C 	0.89127	0.63533	0.26753	-0.011
Mof_C 	C 	0.87647	0.62543	0.23663	0.035
Mof_C 	C 	0.90497	0.59153	0.26903	0.006
Mof_C 	C 	0.89437	0.58393	0.23653	0.036
Mof_C 	C 	0.96907	0.60763	0.40953	-0.007
Mof_C 	C 	0.99277	0.60303	0.42673	0.042
Mof_C 	C 	0.03377	0.63613	0.38393	0.03
Mof_C 	C 	0.00737	0.63643	0.36723	-0.008
Mof_O 	O 	0.03827	0.57823	0.43833	-0.181
Mof_C 	C 	0.6031	0.70466	0.08713	0.15
Mof_In	In	0.26892	0.84291	0.12447	2.801
Mof_O 	O 	0.25883	0.85357	0.17254	-1.888
Mof_O 	O 	0.31053	0.87457	0.16107	-0.81
Mof_O 	O 	0.25893	0.78727	0.14847	-0.405
Mof_O 	O 	0.29523	0.81534	0.11437	-0.569
Mof_O 	O 	0.30775	0.87944	0.08742	-0.485
Mof_O 	O 	0.27392	0.89387	0.10867	-0.48
Mof_O 	O 	0.21265	0.81811	0.12477	-0.495
Mof_O 	O 	0.23483	0.81547	0.07927	-0.517
Mof_C 	C 	0.28173	0.86847	0.18277	3.204
Mof_C 	C 	0.28143	0.78827	0.13027	0.09
Mof_C 	C 	0.29493	0.88197	0.20287	-2.638
Mof_C 	C 	0.28933	0.76407	0.13047	-0.034
Mof_C 	C 	0.27483	0.88517	0.23577	0.722
Mof_C 	C 	0.32283	0.90007	0.22047	1.613
Mof_C 	C 	0.27273	0.73257	0.14557	0.061
Mof_C 	C 	0.31693	0.77167	0.11047	0.216
Mof_H 	H 	0.25163	0.87497	0.23227	-0.171
Mof_C 	C 	0.28433	0.89997	0.26817	-0.65
Mof_C 	C 	0.34113	0.91677	0.25087	-0.951
Mof_H 	H 	0.34013	0.90477	0.20557	-0.408
Mof_C 	C 	0.28633	0.71017	0.14037	-0.151
Mof_C 	C 	0.32973	0.74887	0.10627	-0.213
Mof_H 	H 	0.26823	0.89927	0.28257	0.268
Mof_C 	C 	0.31793	0.91497	0.27707	0.476
Mof_H 	H 	0.36453	0.92727	0.25317	0.382
Mof_H 	H 	0.27583	0.68927	0.15087	0.09
Mof_C 	C 	0.31303	0.71807	0.12157	0.097
Mof_H 	H 	0.34883	0.75487	0.09347	0.111
Mof_C 	C 	0.32503	0.92667	0.31257	-0.137
Mof_C 	C 	0.32163	0.68837	0.12157	0.042
Mof_C 	C 	0.34853	0.92307	0.33007	-0.005
Mof_C 	C 	0.31023	0.94417	0.32837	-0.007
Mof_C 	C 	0.35613	0.70117	0.12137	-0.118
Mof_H 	H 	0.35833	0.91167	0.32027	0.034
Mof_C 	C 	0.35853	0.93517	0.36167	0.014
Mof_C 	C 	0.32013	0.95707	0.36017	0.005
Mof_H 	H 	0.29393	0.94697	0.31737	0.034
Mof_H 	H 	0.37123	0.72417	0.12097	0.074
Mof_C 	C 	0.34373	0.95197	0.37577	-0.073
Mof_C 	C 	0.38279	0.93053	0.38027	0.016
Mof_C 	C 	0.30523	0.97647	0.37547	0.048
Mof_H 	H 	0.35003	0.96017	0.39697	0.068
Mof_C 	C 	0.38994	0.90538	0.37115	-0.077
Mof_C 	C 	0.40093	0.95273	0.40557	-0.019
Mof_C 	C 	0.32683	0.00517	0.39517	-0.086
Mof_C 	C 	0.27313	0.96967	0.37097	-0.092
Mof_H 	H 	0.37783	0.89057	0.35427	0.062
Mof_C 	C 	0.41523	0.90246	0.38727	-0.008
Mof_C 	C 	0.42623	0.94987	0.42167	0.015
Mof_H 	H 	0.34943	0.01117	0.39797	0.068
Mof_C 	C 	0.31483	0.02427	0.41017	-0
Mof_C 	C 	0.26183	0.98877	0.38817	0.008
Mof_H 	H 	0.25873	0.95267	0.35667	0.07
Mof_H 	H 	0.42003	0.88567	0.38117	0.055
Mof_C 	C 	0.43342	0.92473	0.41247	-0.047
Mof_H 	H 	0.32933	0.04317	0.42257	0.055
Mof_C 	C 	0.28123	0.01507	0.40677	-0.038
Mof_H 	H 	0.23903	0.98237	0.38637	0.059
Mof_C 	C 	0.46203	0.91917	0.43007	0.326
Mof_C 	C 	0.26873	0.03537	0.42397	0.123
Mof_O 	O 	0.47093	0.90047	0.41762	-0.511
Mof_O 	O 	0.47118	0.93437	0.45573	-0.427
Mof_In	In	0.50453	0.90703	0.46121	2.451
Mof_O 	O 	0.53716	0.9051	0.50308	-0.465
Mof_O 	O 	0.50913	0.93295	0.51026	-0.467
Mof_O 	O 	0.48834	0.85203	0.44843	-0.477
Mof_O 	O 	0.4576	0.86336	0.48359	-0.476
Mof_O 	O 	0.5497	0.92027	0.42694	-0.502
Mof_O 	O 	0.54863	0.95947	0.45427	-0.37
Mof_C 	C 	0.52803	0.92337	0.51987	0.3
Mof_C 	C 	0.46373	0.84367	0.46547	0.29
Mof_C 	C 	0.54353	0.93157	0.55518	-0.063
Mof_C 	C 	0.43663	0.80607	0.46967	-0.061
Mof_C 	C 	0.57353	0.93297	0.56447	0.003
Mof_C 	C 	0.52527	0.93872	0.57797	0.013
Mof_C 	C 	0.41113	0.79627	0.49287	0.04
Mof_C 	C 	0.43861	0.78175	0.45067	0.044
Mof_C 	C 	0.58536	0.94162	0.59647	-0.014
Mof_C 	C 	0.53703	0.94733	0.60996	0.005
Mof_C 	C 	0.38753	0.76207	0.49717	0.028
Mof_C 	C 	0.41503	0.74767	0.45487	-0.019
Mof_C 	C 	0.56713	0.94887	0.61921	-0.036
Mof_C 	C 	0.38953	0.73787	0.47817	-0.017
Mof_C 	C 	0.58163	0.96187	0.65217	0.11
Mof_C 	C 	0.36083	0.70267	0.47777	-0.01
Mof_C 	C 	0.60583	0.95577	0.66737	-0.163
Mof_C 	C 	0.57143	0.98127	0.66947	-0.164
Mof_C 	C 	0.36653	0.67357	0.48127	0.019
Mof_H 	H 	0.61393	0.94327	0.65657	0.098
Mof_C 	C 	0.61763	0.96867	0.69877	0.107
Mof_C 	C 	0.58173	0.99327	0.69977	0.092
Mof_H 	H 	0.55623	0.98627	0.65927	0.097
Mof_C 	C 	0.60593	0.98737	0.71567	-0.158
Mof_C 	C 	0.64313	0.96117	0.71506	-0.027
Mof_C 	C 	0.56963	0.01397	0.71817	0.018
Mof_H 	H 	0.61373	0.99567	0.73657	0.094
Mof_C 	C 	0.63789	0.92843	0.71647	-0.004
Mof_C 	C 	0.67223	0.98784	0.72867	-0.011
Mof_C 	C 	0.56363	0.01177	0.75177	-0.092
Mof_C 	C 	0.56223	0.03657	0.69997	-0.107
Mof_C 	C 	0.66173	0.92237	0.73147	0.029
Mof_C 	C 	0.69607	0.98181	0.74367	0.032
Mof_H 	H 	0.56833	0.99807	0.76517	0.071
Mof_C 	C 	0.55003	0.03127	0.76497	0.02
Mof_C 	C 	0.54973	0.05397	0.71477	0.046
Mof_H 	H 	0.56623	0.03897	0.67747	0.071
Mof_C 	C 	0.69083	0.94905	0.74508	-0.104
Mof_H 	H 	0.54663	0.03087	0.78747	0.058
Mof_C 	C 	0.54163	0.05067	0.74547	-0.099
Mof_H 	H 	0.54663	0.06927	0.70227	0.034
Mof_C 	C 	0.71673	0.94167	0.76327	0.383
Mof_C 	C 	0.52503	0.06727	0.76237	0.349
Mof_C 	C 	0.42923	0.95247	0.41797	0.022
Mof_C 	C 	0.37933	0.75997	0.48177	-0.035
Mof_C 	C 	0.40323	0.79407	0.47907	-0.001
Mof_C 	C 	0.38463	0.73927	0.46037	0.035
Mof_C 	C 	0.41303	0.74997	0.44057	-0
Mof_C 	C 	0.35923	0.70287	0.45657	0.006
Mof_C 	C 	0.36793	0.67597	0.46157	-0.014
Mof_C 	C 	0.27513	0.78657	0.12467	0.256
Mof_C 	C 	0.30843	0.77997	0.12267	-0.151
Mof_C 	C 	0.55793	0.96867	0.60087	-0.011
Mof_C 	C 	0.54313	0.95877	0.56997	0.035
Mof_C 	C 	0.57163	0.92487	0.60237	0.006
Mof_C 	C 	0.56103	0.91727	0.56987	0.036
Mof_C 	C 	0.63573	0.94097	0.74287	-0.007
Mof_C 	C 	0.65943	0.93637	0.76007	0.042
Mof_C 	C 	0.70043	0.96947	0.71727	0.03
Mof_C 	C 	0.67403	0.96977	0.70057	-0.008
Mof_O 	O 	0.70493	0.91157	0.77167	-0.181
Mof_C 	C 	0.26976	0.038	0.42047	0.15
Mof_In	In	0.82375	0.75934	0.4578	2.801
Mof_O 	O 	0.8131	0.7386	0.50587	-1.888
Mof_O 	O 	0.7921	0.7693	0.4944	-0.81
Mof_O 	O 	0.8794	0.805	0.4818	-0.405
Mof_O 	O 	0.85133	0.81323	0.4477	-0.569
Mof_O 	O 	0.78723	0.76165	0.42075	-0.485
Mof_O 	O 	0.7728	0.71339	0.442	-0.481
Mof_O 	O 	0.84856	0.72788	0.4581	-0.495
Mof_O 	O 	0.8512	0.7527	0.4126	-0.517
Mof_C 	C 	0.7982	0.7466	0.5161	3.204
Mof_C 	C 	0.8784	0.8265	0.4636	0.09
Mof_C 	C 	0.7847	0.7463	0.5362	-2.638
Mof_C 	C 	0.9026	0.8586	0.4638	-0.034
Mof_C 	C 	0.7815	0.723	0.5691	0.722
Mof_C 	C 	0.7666	0.7561	0.5538	1.613
Mof_C 	C 	0.9341	0.8735	0.4789	0.061
Mof_C 	C 	0.895	0.8786	0.4438	0.216
Mof_H 	H 	0.7917	0.71	0.5656	-0.171
Mof_C 	C 	0.7667	0.7177	0.6015	-0.65
Mof_C 	C 	0.7499	0.7577	0.5842	-0.951
Mof_H 	H 	0.7619	0.7687	0.5389	-0.408
Mof_C 	C 	0.9565	0.9095	0.4737	-0.151
Mof_C 	C 	0.9178	0.9142	0.4396	-0.213
Mof_H 	H 	0.7674	0.7023	0.6159	0.268
Mof_C 	C 	0.7517	0.7363	0.6104	0.476
Mof_H 	H 	0.7394	0.7706	0.5865	0.382
Mof_H 	H 	0.9774	0.9199	0.4842	0.09
Mof_C 	C 	0.9486	0.9283	0.4549	0.097
Mof_H 	H 	0.9118	0.9273	0.4268	0.111
Mof_C 	C 	0.74	0.7317	0.6459	-0.137
Mof_C 	C 	0.9783	0.9666	0.4549	0.042
Mof_C 	C 	0.7436	0.7588	0.6634	-0.005
Mof_C 	C 	0.7225	0.6994	0.6617	-0.007
Mof_C 	C 	0.9655	0.9883	0.4547	-0.118
Mof_H 	H 	0.755	0.78	0.6536	0.034
Mof_C 	C 	0.7315	0.7567	0.695	0.014
Mof_C 	C 	0.7096	0.6964	0.6935	0.005
Mof_H 	H 	0.7197	0.6803	0.6507	0.034
Mof_H 	H 	0.9425	0.9804	0.4543	0.074
Mof_C 	C 	0.7147	0.7251	0.7091	-0.073
Mof_C 	C 	0.73614	0.7856	0.7136	0.016
Mof_C 	C 	0.6902	0.6621	0.7088	0.048
Mof_H 	H 	0.7065	0.7232	0.7303	0.068
Mof_C 	C 	0.76129	0.8179	0.70448	-0.077
Mof_C 	C 	0.71394	0.78154	0.7389	-0.019
Mof_C 	C 	0.6615	0.655	0.7285	-0.086
Mof_C 	C 	0.697	0.6368	0.7043	-0.092
Mof_H 	H 	0.7761	0.8206	0.6876	0.062
Mof_C 	C 	0.76421	0.84611	0.7206	-0.008
Mof_C 	C 	0.7168	0.8097	0.755	0.015
Mof_H 	H 	0.6555	0.6716	0.7313	0.068
Mof_C 	C 	0.6424	0.6239	0.7435	0
Mof_C 	C 	0.6779	0.6064	0.7215	0.008
Mof_H 	H 	0.714	0.6394	0.69	0.07
Mof_H 	H 	0.781	0.8677	0.7145	0.055
Mof_C 	C 	0.74194	0.84203	0.7458	-0.047
Mof_H 	H 	0.6235	0.6195	0.7559	0.055
Mof_C 	C 	0.6516	0.5995	0.7401	-0.038
Mof_H 	H 	0.6843	0.59	0.7197	0.059
Mof_C 	C 	0.7475	0.8762	0.7634	0.326
Mof_C 	C 	0.6313	0.5667	0.7573	0.123
Mof_O 	O 	0.7662	0.9038	0.75095	-0.511
Mof_O 	O 	0.7323	0.87015	0.78906	-0.427
Mof_In	In	0.75964	0.93083	0.79455	2.451
Mof_O 	O 	0.76157	0.9654	0.83641	-0.465
Mof_O 	O 	0.73372	0.90952	0.84359	-0.467
Mof_O 	O 	0.81464	0.96965	0.78176	-0.477
Mof_O 	O 	0.80331	0.92758	0.81692	-0.476
Mof_O 	O 	0.7464	0.96277	0.76027	-0.502
Mof_O 	O 	0.7072	0.9225	0.7876	-0.37
Mof_C 	C 	0.7433	0.938	0.8532	0.3
Mof_C 	C 	0.823	0.9534	0.7988	0.29
Mof_C 	C 	0.7351	0.9453	0.88851	-0.063
Mof_C 	C 	0.8606	0.9639	0.803	-0.061
Mof_C 	C 	0.7337	0.9739	0.8978	0.003
Mof_C 	C 	0.72795	0.91989	0.9113	0.013
Mof_C 	C 	0.8704	0.9482	0.8262	0.04
Mof_C 	C 	0.88492	0.9902	0.784	0.044
Mof_C 	C 	0.72505	0.97708	0.9298	-0.014
Mof_C 	C 	0.71934	0.92304	0.94329	0.005
Mof_C 	C 	0.9046	0.9588	0.8305	0.028
Mof_C 	C 	0.919	0.0007	0.7882	-0.019
Mof_C 	C 	0.7178	0.9516	0.95254	-0.036
Mof_C 	C 	0.9288	0.985	0.8115	-0.017
Mof_C 	C 	0.7048	0.9531	0.9855	0.11
Mof_C 	C 	0.964	0.9915	0.8111	-0.011
Mof_C 	C 	0.7109	0.9834	0.0007	-0.163
Mof_C 	C 	0.6854	0.9235	0.0028	-0.164
Mof_C 	C 	0.9931	0.0263	0.8146	0.019
Mof_H 	H 	0.7234	0.004	0.9899	0.098
Mof_C 	C 	0.698	0.9823	0.0321	0.107
Mof_C 	C 	0.6734	0.9218	0.0331	0.092
Mof_H 	H 	0.6804	0.9033	0.9926	0.097
Mof_C 	C 	0.6793	0.9519	0.049	-0.158
Mof_C 	C 	0.7055	0.0153	0.04839	-0.027
Mof_C 	C 	0.6527	0.889	0.0515	0.018
Mof_H 	H 	0.671	0.9514	0.0699	0.094
Mof_C 	C 	0.73824	0.0428	0.0498	-0.004
Mof_C 	C 	0.67883	0.01773	0.062	-0.011
Mof_C 	C 	0.6549	0.8852	0.0851	-0.092
Mof_C 	C 	0.6301	0.859	0.0333	-0.107
Mof_C 	C 	0.7443	0.0727	0.0648	0.029
Mof_C 	C 	0.68486	0.0476	0.077	0.032
Mof_H 	H 	0.6686	0.9036	0.0985	0.071
Mof_C 	C 	0.6354	0.8521	0.0983	0.02
Mof_C 	C 	0.6127	0.8291	0.0481	0.046
Mof_H 	H 	0.6277	0.8606	0.0108	0.071
Mof_C 	C 	0.71762	0.07512	0.07841	-0.104
Mof_H 	H 	0.6358	0.8491	0.1208	0.058
Mof_C 	C 	0.616	0.8243	0.0788	-0.099
Mof_H 	H 	0.5974	0.8107	0.0356	0.034
Mof_C 	C 	0.725	0.1084	0.0966	0.384
Mof_C 	C 	0.5994	0.7911	0.0957	0.348
Mof_C 	C 	0.7142	0.8101	0.7513	0.022
Mof_C 	C 	0.9067	0.9527	0.8151	-0.035
Mof_C 	C 	0.8726	0.9425	0.8124	-0.001
Mof_C 	C 	0.9274	0.9787	0.7937	0.035
Mof_C 	C 	0.9167	0.9964	0.7739	-0.001
Mof_C 	C 	0.9638	0.9897	0.7899	0.006
Mof_C 	C 	0.9907	0.0253	0.7949	-0.014
Mof_C 	C 	0.8801	0.8219	0.458	0.256
Mof_C 	C 	0.8867	0.8618	0.456	-0.151
Mof_C 	C 	0.698	0.9226	0.9342	-0.011
Mof_C 	C 	0.7079	0.9177	0.9033	0.035
Mof_C 	C 	0.7418	0.9801	0.9357	0.006
Mof_C 	C 	0.7494	0.9771	0.9032	0.036
Mof_C 	C 	0.7257	0.0281	0.0762	-0.007
Mof_C 	C 	0.7303	0.0564	0.0934	0.042
Mof_C 	C 	0.6972	0.0643	0.0506	0.03
Mof_C 	C 	0.6969	0.0376	0.0339	-0.008
Mof_O 	O 	0.7551	0.1267	0.105	-0.181
Mof_C 	C 	0.62867	0.5651	0.7538	0.15
Mof_In	In	0.49042	0.09268	0.79113	2.801
Mof_O 	O 	0.47977	0.07193	0.8392	-1.888
Mof_O 	O 	0.45877	0.10263	0.82773	-0.81
Mof_O 	O 	0.54607	0.13833	0.81513	-0.405
Mof_O 	O 	0.518	0.14656	0.78103	-0.569
Mof_O 	O 	0.4539	0.09498	0.75408	-0.486
Mof_O 	O 	0.43947	0.04672	0.77533	-0.48
Mof_O 	O 	0.51523	0.06121	0.79143	-0.495
Mof_O 	O 	0.51787	0.08603	0.74593	-0.517
Mof_C 	C 	0.46487	0.07993	0.84943	3.203
Mof_C 	C 	0.54507	0.15983	0.79693	0.09
Mof_C 	C 	0.45137	0.07963	0.86953	-2.638
Mof_C 	C 	0.56927	0.19193	0.79713	-0.034
Mof_C 	C 	0.44817	0.05633	0.90243	0.722
Mof_C 	C 	0.43327	0.08943	0.88713	1.613
Mof_C 	C 	0.60077	0.20683	0.81223	0.061
Mof_C 	C 	0.56167	0.21193	0.77713	0.216
Mof_H 	H 	0.45837	0.04333	0.89893	-0.17
Mof_C 	C 	0.43337	0.05103	0.93483	-0.65
Mof_C 	C 	0.41657	0.09103	0.91753	-0.951
Mof_H 	H 	0.42857	0.10203	0.87223	-0.408
Mof_C 	C 	0.62317	0.24283	0.80703	-0.151
Mof_C 	C 	0.58447	0.24753	0.77293	-0.213
Mof_H 	H 	0.43407	0.03563	0.94923	0.268
Mof_C 	C 	0.41837	0.06963	0.94373	0.476
Mof_H 	H 	0.40607	0.10393	0.91983	0.382
Mof_H 	H 	0.64407	0.25323	0.81753	0.09
Mof_C 	C 	0.61527	0.26163	0.78823	0.097
Mof_H 	H 	0.57847	0.26063	0.76013	0.111
Mof_C 	C 	0.40667	0.06503	0.97923	-0.137
Mof_C 	C 	0.64497	0.29993	0.78823	0.042
Mof_C 	C 	0.41027	0.09213	0.99673	-0.005
Mof_C 	C 	0.38917	0.03273	0.99503	-0.007
Mof_C 	C 	0.63217	0.32163	0.78803	-0.118
Mof_H 	H 	0.42167	0.11333	0.98693	0.034
Mof_C 	C 	0.39817	0.09003	0.02833	0.014
Mof_C 	C 	0.37627	0.02973	0.02683	0.005
Mof_H 	H 	0.38637	0.01363	0.98403	0.034
Mof_H 	H 	0.60917	0.31373	0.78763	0.074
Mof_C 	C 	0.38137	0.05843	0.04243	-0.073
Mof_C 	C 	0.40281	0.11893	0.04693	0.016
Mof_C 	C 	0.35687	0.99543	0.04213	0.048
Mof_H 	H 	0.37317	0.05653	0.06363	0.068
Mof_C 	C 	0.42796	0.15123	0.03781	-0.077
Mof_C 	C 	0.38061	0.11487	0.07223	-0.019
Mof_C 	C 	0.32817	0.98833	0.06183	-0.086
Mof_C 	C 	0.36367	0.97013	0.03763	-0.092
Mof_H 	H 	0.44277	0.15393	0.02093	0.062
Mof_C 	C 	0.43088	0.17944	0.05393	-0.008
Mof_C 	C 	0.38347	0.14303	0.08833	0.015
Mof_H 	H 	0.32217	0.00493	0.06463	0.068
Mof_C 	C 	0.30907	0.95723	0.07683	-0
Mof_C 	C 	0.34457	0.93973	0.05483	0.008
Mof_H 	H 	0.38067	0.97273	0.02333	0.07
Mof_H 	H 	0.44767	0.20103	0.04783	0.055
Mof_C 	C 	0.40861	0.17536	0.07913	-0.047
Mof_H 	H 	0.29017	0.95283	0.08923	0.055
Mof_C 	C 	0.31827	0.93283	0.07343	-0.038
Mof_H 	H 	0.35097	0.92333	0.05303	0.059
Mof_C 	C 	0.41417	0.20953	0.09673	0.326
Mof_C 	C 	0.29797	0.90003	0.09063	0.123
Mof_O 	O 	0.43287	0.23713	0.08428	-0.51
Mof_O 	O 	0.39897	0.20348	0.12239	-0.427
Mof_In	In	0.4263	0.26417	0.12788	2.451
Mof_O 	O 	0.42824	0.29873	0.16974	-0.465
Mof_O 	O 	0.40039	0.24285	0.17692	-0.467
Mof_O 	O 	0.48131	0.30298	0.11509	-0.477
Mof_O 	O 	0.46998	0.26091	0.15025	-0.476
Mof_O 	O 	0.41307	0.2961	0.0936	-0.502
Mof_O 	O 	0.37387	0.25583	0.12093	-0.37
Mof_C 	C 	0.40997	0.27133	0.18653	0.3
Mof_C 	C 	0.48967	0.28673	0.13213	0.29
Mof_C 	C 	0.40177	0.27863	0.22184	-0.063
Mof_C 	C 	0.52727	0.29723	0.13633	-0.061
Mof_C 	C 	0.40037	0.30723	0.23113	0.003
Mof_C 	C 	0.39462	0.25322	0.24463	0.013
Mof_C 	C 	0.53707	0.28153	0.15953	0.04
Mof_C 	C 	0.55159	0.32353	0.11733	0.044
Mof_C 	C 	0.39172	0.31041	0.26313	-0.014
Mof_C 	C 	0.38601	0.25637	0.27662	0.005
Mof_C 	C 	0.57127	0.29213	0.16383	0.028
Mof_C 	C 	0.58567	0.33403	0.12153	-0.019
Mof_C 	C 	0.38447	0.28493	0.28587	-0.036
Mof_C 	C 	0.59547	0.31833	0.14483	-0.017
Mof_C 	C 	0.37147	0.28643	0.31883	0.11
Mof_C 	C 	0.63067	0.32483	0.14443	-0.01
Mof_C 	C 	0.37757	0.31673	0.33403	-0.163
Mof_C 	C 	0.35207	0.25683	0.33613	-0.165
Mof_C 	C 	0.65977	0.35963	0.14793	0.019
Mof_H 	H 	0.39007	0.33733	0.32323	0.098
Mof_C 	C 	0.36467	0.31563	0.36543	0.107
Mof_C 	C 	0.34007	0.25513	0.36643	0.092
Mof_H 	H 	0.34707	0.23663	0.32593	0.097
Mof_C 	C 	0.34597	0.28523	0.38233	-0.158
Mof_C 	C 	0.37217	0.34863	0.38172	-0.027
Mof_C 	C 	0.31937	0.22233	0.38483	0.018
Mof_H 	H 	0.33767	0.28473	0.40323	0.094
Mof_C 	C 	0.40491	0.37613	0.38313	-0.004
Mof_C 	C 	0.3455	0.35106	0.39533	-0.011
Mof_C 	C 	0.32157	0.21853	0.41843	-0.092
Mof_C 	C 	0.29677	0.19233	0.36663	-0.107
Mof_C 	C 	0.41097	0.40603	0.39813	0.029
Mof_C 	C 	0.35153	0.38093	0.41033	0.032
Mof_H 	H 	0.33527	0.23693	0.43183	0.071
Mof_C 	C 	0.30207	0.18543	0.43163	0.02
Mof_C 	C 	0.27937	0.16243	0.38143	0.046
Mof_H 	H 	0.29437	0.19393	0.34413	0.071
Mof_C 	C 	0.38429	0.40845	0.41174	-0.104
Mof_H 	H 	0.30247	0.18243	0.45413	0.058
Mof_C 	C 	0.28267	0.15763	0.41213	-0.099
Mof_H 	H 	0.26407	0.14403	0.36893	0.034
Mof_C 	C 	0.39167	0.44173	0.42993	0.383
Mof_C 	C 	0.26607	0.12443	0.42903	0.348
Mof_C 	C 	0.38087	0.14343	0.08463	0.022
Mof_C 	C 	0.57337	0.28603	0.14843	-0.035
Mof_C 	C 	0.53927	0.27583	0.14573	-0.001
Mof_C 	C 	0.59407	0.31203	0.12703	0.035
Mof_C 	C 	0.58337	0.32973	0.10723	-0
Mof_C 	C 	0.63047	0.32303	0.12323	0.006
Mof_C 	C 	0.65737	0.35863	0.12823	-0.014
Mof_C 	C 	0.54677	0.15523	0.79133	0.256
Mof_C 	C 	0.55337	0.19513	0.78933	-0.151
Mof_C 	C 	0.36467	0.25593	0.26753	-0.011
Mof_C 	C 	0.37457	0.25103	0.23663	0.035
Mof_C 	C 	0.40847	0.31343	0.26903	0.006
Mof_C 	C 	0.41607	0.31043	0.23653	0.036
Mof_C 	C 	0.39237	0.36143	0.40953	-0.007
Mof_C 	C 	0.39697	0.38973	0.42673	0.042
Mof_C 	C 	0.36387	0.39763	0.38393	0.03
Mof_C 	C 	0.36357	0.37093	0.36723	-0.008
Mof_O 	O 	0.42177	0.46003	0.43833	-0.181
Mof_C 	C 	0.29534	0.89843	0.08713	0.15
Mof_In	In	0.15709	0.42601	0.12447	2.801
Mof_O 	O 	0.14643	0.40527	0.17254	-1.888
Mof_O 	O 	0.12543	0.43597	0.16107	-0.81
Mof_O 	O 	0.21273	0.47167	0.14847	-0.405
Mof_O 	O 	0.18466	0.4799	0.11437	-0.569
Mof_O 	O 	0.12056	0.42832	0.08742	-0.485
Mof_O 	O 	0.10613	0.38006	0.10867	-0.481
Mof_O 	O 	0.18189	0.39455	0.12477	-0.495
Mof_O 	O 	0.18453	0.41937	0.07927	-0.517
Mof_C 	C 	0.13153	0.41327	0.18277	3.204
Mof_C 	C 	0.21173	0.49317	0.13027	0.09
Mof_C 	C 	0.11803	0.41297	0.20287	-2.639
Mof_C 	C 	0.23593	0.52527	0.13047	-0.034
Mof_C 	C 	0.11483	0.38967	0.23577	0.723
Mof_C 	C 	0.09993	0.42277	0.22047	1.613
Mof_C 	C 	0.26743	0.54017	0.14557	0.061
Mof_C 	C 	0.22833	0.54527	0.11047	0.216
Mof_H 	H 	0.12503	0.37667	0.23227	-0.171
Mof_C 	C 	0.10003	0.38437	0.26817	-0.65
Mof_C 	C 	0.08323	0.42437	0.25087	-0.951
Mof_H 	H 	0.09523	0.43537	0.20557	-0.408
Mof_C 	C 	0.28983	0.57617	0.14037	-0.151
Mof_C 	C 	0.25113	0.58087	0.10627	-0.213
Mof_H 	H 	0.10073	0.36897	0.28257	0.268
Mof_C 	C 	0.08503	0.40297	0.27707	0.476
Mof_H 	H 	0.07273	0.43727	0.25317	0.382
Mof_H 	H 	0.31073	0.58657	0.15087	0.09
Mof_C 	C 	0.28193	0.59497	0.12157	0.097
Mof_H 	H 	0.24513	0.59397	0.09347	0.111
Mof_C 	C 	0.07333	0.39837	0.31257	-0.137
Mof_C 	C 	0.31163	0.63327	0.12157	0.042
Mof_C 	C 	0.07693	0.42547	0.33007	-0.005
Mof_C 	C 	0.05583	0.36607	0.32837	-0.007
Mof_C 	C 	0.29883	0.65497	0.12137	-0.118
Mof_H 	H 	0.08833	0.44667	0.32027	0.034
Mof_C 	C 	0.06483	0.42337	0.36167	0.014
Mof_C 	C 	0.04293	0.36307	0.36017	0.005
Mof_H 	H 	0.05303	0.34697	0.31737	0.034
Mof_H 	H 	0.27583	0.64707	0.12097	0.074
Mof_C 	C 	0.04803	0.39177	0.37577	-0.073
Mof_C 	C 	0.06947	0.45227	0.38027	0.016
Mof_C 	C 	0.02353	0.32877	0.37547	0.048
Mof_H 	H 	0.03983	0.38987	0.39697	0.068
Mof_C 	C 	0.09462	0.48457	0.37115	-0.077
Mof_C 	C 	0.04727	0.44821	0.40557	-0.019
Mof_C 	C 	0.99483	0.32167	0.39517	-0.086
Mof_C 	C 	0.03033	0.30347	0.37097	-0.092
Mof_H 	H 	0.10943	0.48727	0.35427	0.062
Mof_C 	C 	0.09754	0.51278	0.38727	-0.008
Mof_C 	C 	0.05013	0.47637	0.42167	0.015
Mof_H 	H 	0.98883	0.33827	0.39797	0.068
Mof_C 	C 	0.97573	0.29057	0.41017	0
Mof_C 	C 	0.01123	0.27307	0.38817	0.008
Mof_H 	H 	0.04733	0.30607	0.35667	0.07
Mof_H 	H 	0.11433	0.53437	0.38117	0.055
Mof_C 	C 	0.07527	0.5087	0.41247	-0.047
Mof_H 	H 	0.95683	0.28617	0.42257	0.055
Mof_C 	C 	0.98493	0.26617	0.40677	-0.038
Mof_H 	H 	0.01763	0.25667	0.38637	0.059
Mof_C 	C 	0.08083	0.54287	0.43007	0.326
Mof_C 	C 	0.96463	0.23337	0.42397	0.123
Mof_O 	O 	0.09953	0.57047	0.41762	-0.511
Mof_O 	O 	0.06563	0.53682	0.45573	-0.427
Mof_In	In	0.09297	0.5975	0.46121	2.451
Mof_O 	O 	0.0949	0.63207	0.50308	-0.465
Mof_O 	O 	0.06705	0.57619	0.51026	-0.467
Mof_O 	O 	0.14797	0.63632	0.44843	-0.477
Mof_O 	O 	0.13664	0.59425	0.48359	-0.476
Mof_O 	O 	0.07973	0.62944	0.42694	-0.502
Mof_O 	O 	0.04053	0.58917	0.45427	-0.369
Mof_C 	C 	0.07663	0.60467	0.51987	0.3
Mof_C 	C 	0.15633	0.62007	0.46547	0.29
Mof_C 	C 	0.06843	0.61197	0.55518	-0.063
Mof_C 	C 	0.19393	0.63057	0.46967	-0.061
Mof_C 	C 	0.06703	0.64057	0.56447	0.003
Mof_C 	C 	0.06128	0.58656	0.57797	0.013
Mof_C 	C 	0.20373	0.61487	0.49287	0.04
Mof_C 	C 	0.21825	0.65687	0.45067	0.044
Mof_C 	C 	0.05838	0.64375	0.59647	-0.014
Mof_C 	C 	0.05267	0.58971	0.60996	0.005
Mof_C 	C 	0.23793	0.62547	0.49717	0.028
Mof_C 	C 	0.25233	0.66737	0.45487	-0.019
Mof_C 	C 	0.05113	0.61827	0.61921	-0.036
Mof_C 	C 	0.26213	0.65167	0.47817	-0.017
Mof_C 	C 	0.03813	0.61977	0.65217	0.11
Mof_C 	C 	0.29733	0.65817	0.47777	-0.01
Mof_C 	C 	0.04423	0.65007	0.66737	-0.163
Mof_C 	C 	0.01873	0.59017	0.66947	-0.164
Mof_C 	C 	0.32643	0.69297	0.48127	0.019
Mof_H 	H 	0.05673	0.67067	0.65657	0.098
Mof_C 	C 	0.03133	0.64897	0.69877	0.107
Mof_C 	C 	0.00673	0.58847	0.69977	0.092
Mof_H 	H 	0.01373	0.56997	0.65927	0.097
Mof_C 	C 	0.01263	0.61857	0.71567	-0.158
Mof_C 	C 	0.03883	0.68197	0.71506	-0.027
Mof_C 	C 	0.98603	0.55567	0.71817	0.018
Mof_H 	H 	0.00433	0.61807	0.73657	0.094
Mof_C 	C 	0.07157	0.70947	0.71647	-0.004
Mof_C 	C 	0.01216	0.6844	0.72867	-0.011
Mof_C 	C 	0.98823	0.55187	0.75177	-0.092
Mof_C 	C 	0.96343	0.52567	0.69997	-0.107
Mof_C 	C 	0.07763	0.73937	0.73147	0.029
Mof_C 	C 	0.01819	0.71427	0.74367	0.032
Mof_H 	H 	0.00193	0.57027	0.76517	0.071
Mof_C 	C 	0.96873	0.51877	0.76497	0.02
Mof_C 	C 	0.94603	0.49577	0.71477	0.046
Mof_H 	H 	0.96103	0.52727	0.67747	0.071
Mof_C 	C 	0.05095	0.74179	0.74508	-0.104
Mof_H 	H 	0.96913	0.51577	0.78747	0.058
Mof_C 	C 	0.94933	0.49097	0.74547	-0.099
Mof_H 	H 	0.93073	0.47737	0.70227	0.034
Mof_C 	C 	0.05833	0.77507	0.76327	0.384
Mof_C 	C 	0.93273	0.45777	0.76237	0.348
Mof_C 	C 	0.04753	0.47677	0.41797	0.022
Mof_C 	C 	0.24003	0.61937	0.48177	-0.035
Mof_C 	C 	0.20593	0.60917	0.47907	-0.001
Mof_C 	C 	0.26073	0.64537	0.46037	0.035
Mof_C 	C 	0.25003	0.66307	0.44057	-0
Mof_C 	C 	0.29713	0.65637	0.45657	0.006
Mof_C 	C 	0.32403	0.69197	0.46157	-0.014
Mof_C 	C 	0.21343	0.48857	0.12467	0.256
Mof_C 	C 	0.22003	0.52847	0.12267	-0.151
Mof_C 	C 	0.03133	0.58927	0.60087	-0.011
Mof_C 	C 	0.04123	0.58437	0.56997	0.035
Mof_C 	C 	0.07513	0.64677	0.60237	0.006
Mof_C 	C 	0.08273	0.64377	0.56987	0.036
Mof_C 	C 	0.05903	0.69477	0.74287	-0.007
Mof_C 	C 	0.06363	0.72307	0.76007	0.042
Mof_C 	C 	0.03053	0.73097	0.71727	0.03
Mof_C 	C 	0.03023	0.70427	0.70057	-0.008
Mof_O 	O 	0.08843	0.79337	0.77167	-0.181
Mof_C 	C 	0.962	0.23177	0.42047	0.15
Mof_In	In	0.75934	0.93559	0.5422	2.801
Mof_O 	O 	0.7386	0.9255	0.49413	-1.888
Mof_O 	O 	0.7693	0.9772	0.5056	-0.81
Mof_O 	O 	0.805	0.9256	0.5182	-0.405
Mof_O 	O 	0.81323	0.9619	0.5523	-0.569
Mof_O 	O 	0.76165	0.97442	0.57925	-0.486
Mof_O 	O 	0.71339	0.94059	0.558	-0.481
Mof_O 	O 	0.72788	0.87932	0.5419	-0.495
Mof_O 	O 	0.7527	0.9015	0.5874	-0.517
Mof_C 	C 	0.7466	0.9484	0.4839	3.204
Mof_C 	C 	0.8265	0.9481	0.5364	0.09
Mof_C 	C 	0.7463	0.9616	0.4638	-2.638
Mof_C 	C 	0.8586	0.956	0.5362	-0.034
Mof_C 	C 	0.723	0.9415	0.4309	0.722
Mof_C 	C 	0.7561	0.9895	0.4462	1.613
Mof_C 	C 	0.8735	0.9394	0.5211	0.061
Mof_C 	C 	0.8786	0.9836	0.5562	0.216
Mof_H 	H 	0.71	0.9183	0.4344	-0.171
Mof_C 	C 	0.7177	0.951	0.3985	-0.65
Mof_C 	C 	0.7577	0.0078	0.4158	-0.951
Mof_H 	H 	0.7687	0.0068	0.4611	-0.408
Mof_C 	C 	0.9095	0.953	0.5263	-0.151
Mof_C 	C 	0.9142	0.9964	0.5604	-0.213
Mof_H 	H 	0.7023	0.9349	0.3841	0.268
Mof_C 	C 	0.7363	0.9846	0.3896	0.476
Mof_H 	H 	0.7706	0.0312	0.4135	0.382
Mof_H 	H 	0.9199	0.9425	0.5158	0.09
Mof_C 	C 	0.9283	0.9797	0.5451	0.097
Mof_H 	H 	0.9273	0.0155	0.5732	0.111
Mof_C 	C 	0.7317	0.9917	0.3541	-0.137
Mof_C 	C 	0.9666	0.9883	0.5451	0.042
Mof_C 	C 	0.7588	0.0152	0.3366	-0.005
Mof_C 	C 	0.6994	0.9769	0.3383	-0.007
Mof_C 	C 	0.9883	0.0228	0.5453	-0.118
Mof_H 	H 	0.78	0.025	0.3464	0.034
Mof_C 	C 	0.7567	0.0252	0.305	0.014
Mof_C 	C 	0.6964	0.9868	0.3065	0.005
Mof_H 	H 	0.6803	0.9606	0.3493	0.034
Mof_H 	H 	0.9804	0.0379	0.5457	0.074
Mof_C 	C 	0.7251	0.0104	0.2909	-0.073
Mof_C 	C 	0.7856	0.04946	0.2864	0.016
Mof_C 	C 	0.6621	0.9719	0.2912	0.048
Mof_H 	H 	0.7232	0.0167	0.2697	0.068
Mof_C 	C 	0.8179	0.05661	0.29552	-0.077
Mof_C 	C 	0.78154	0.0676	0.2611	-0.019
Mof_C 	C 	0.655	0.9935	0.2715	-0.086
Mof_C 	C 	0.6368	0.9398	0.2957	-0.092
Mof_H 	H 	0.8206	0.0445	0.3124	0.062
Mof_C 	C 	0.84611	0.0819	0.2794	-0.008
Mof_C 	C 	0.8097	0.0929	0.245	0.015
Mof_H 	H 	0.6716	0.0161	0.2687	0.068
Mof_C 	C 	0.6239	0.9815	0.2565	0
Mof_C 	C 	0.6064	0.9285	0.2785	0.008
Mof_H 	H 	0.6394	0.9254	0.31	0.07
Mof_H 	H 	0.8677	0.0867	0.2855	0.055
Mof_C 	C 	0.84203	0.10009	0.2542	-0.047
Mof_H 	H 	0.6195	0.996	0.2441	0.055
Mof_C 	C 	0.5995	0.9479	0.2599	-0.038
Mof_H 	H 	0.59	0.9057	0.2803	0.059
Mof_C 	C 	0.8762	0.1287	0.2366	0.326
Mof_C 	C 	0.5667	0.9354	0.2427	0.123
Mof_O 	O 	0.9038	0.1376	0.24905	-0.511
Mof_O 	O 	0.87015	0.13785	0.21094	-0.427
Mof_In	In	0.93083	0.1712	0.20545	2.451
Mof_O 	O 	0.9654	0.20383	0.16359	-0.465
Mof_O 	O 	0.90952	0.1758	0.15641	-0.467
Mof_O 	O 	0.96965	0.15501	0.21824	-0.477
Mof_O 	O 	0.92758	0.12427	0.18308	-0.476
Mof_O 	O 	0.96277	0.21637	0.23973	-0.502
Mof_O 	O 	0.9225	0.2153	0.2124	-0.37
Mof_C 	C 	0.938	0.1947	0.1468	0.3
Mof_C 	C 	0.9534	0.1304	0.2012	0.29
Mof_C 	C 	0.9453	0.2102	0.11149	-0.063
Mof_C 	C 	0.9639	0.1033	0.197	-0.061
Mof_C 	C 	0.9739	0.2402	0.1022	0.003
Mof_C 	C 	0.91989	0.19194	0.0887	0.013
Mof_C 	C 	0.9482	0.0778	0.1738	0.04
Mof_C 	C 	0.9902	0.10528	0.216	0.044
Mof_C 	C 	0.97708	0.25203	0.0702	-0.014
Mof_C 	C 	0.92304	0.2037	0.05671	0.005
Mof_C 	C 	0.9588	0.0542	0.1695	0.028
Mof_C 	C 	0.0007	0.0817	0.2118	-0.019
Mof_C 	C 	0.9516	0.2338	0.04746	-0.036
Mof_C 	C 	0.985	0.0562	0.1885	-0.017
Mof_C 	C 	0.9531	0.2483	0.0145	0.11
Mof_C 	C 	0.9915	0.0275	0.1889	-0.01
Mof_C 	C 	0.9834	0.2725	0.9993	-0.163
Mof_C 	C 	0.9235	0.2381	0.9972	-0.164
Mof_C 	C 	0.0263	0.0332	0.1854	0.019
Mof_H 	H 	0.004	0.2806	0.0101	0.098
Mof_C 	C 	0.9823	0.2843	0.9679	0.107
Mof_C 	C 	0.9218	0.2484	0.9669	0.092
Mof_H 	H 	0.9033	0.2229	0.0074	0.097
Mof_C 	C 	0.9519	0.2726	0.951	-0.158
Mof_C 	C 	0.0153	0.3098	0.95161	-0.027
Mof_C 	C 	0.889	0.2363	0.9485	0.018
Mof_H 	H 	0.9514	0.2804	0.9301	0.094
Mof_C 	C 	0.0428	0.30456	0.9502	-0.004
Mof_C 	C 	0.01773	0.3389	0.938	-0.011
Mof_C 	C 	0.8852	0.2303	0.9149	-0.092
Mof_C 	C 	0.859	0.2289	0.9667	-0.107
Mof_C 	C 	0.0727	0.3284	0.9352	0.029
Mof_C 	C 	0.0476	0.36274	0.923	0.032
Mof_H 	H 	0.9036	0.235	0.9015	0.071
Mof_C 	C 	0.8521	0.2167	0.9017	0.02
Mof_C 	C 	0.8291	0.2164	0.9519	0.046
Mof_H 	H 	0.8606	0.2329	0.9892	0.071
Mof_C 	C 	0.07512	0.3575	0.92159	-0.104
Mof_H 	H 	0.8491	0.2133	0.8792	0.058
Mof_C 	C 	0.8243	0.2083	0.9212	-0.099
Mof_H 	H 	0.8107	0.2133	0.9644	0.034
Mof_C 	C 	0.1084	0.3834	0.9034	0.383
Mof_C 	C 	0.7911	0.1917	0.9043	0.348
Mof_C 	C 	0.8101	0.0959	0.2487	0.022
Mof_C 	C 	0.9527	0.046	0.1849	-0.035
Mof_C 	C 	0.9425	0.0699	0.1876	-0.001
Mof_C 	C 	0.9787	0.0513	0.2063	0.035
Mof_C 	C 	0.9964	0.0797	0.2261	-0
Mof_C 	C 	0.9897	0.0259	0.2101	0.006
Mof_C 	C 	0.0253	0.0346	0.2051	-0.014
Mof_C 	C 	0.8219	0.9418	0.542	0.256
Mof_C 	C 	0.8618	0.9751	0.544	-0.151
Mof_C 	C 	0.9226	0.2246	0.0658	-0.011
Mof_C 	C 	0.9177	0.2098	0.0967	0.035
Mof_C 	C 	0.9801	0.2383	0.0643	0.006
Mof_C 	C 	0.9771	0.2277	0.0968	0.036
Mof_C 	C 	0.0281	0.3024	0.9238	-0.007
Mof_C 	C 	0.0564	0.3261	0.9066	0.042
Mof_C 	C 	0.0643	0.3671	0.9494	0.03
Mof_C 	C 	0.0376	0.3407	0.9661	-0.008
Mof_O 	O 	0.1267	0.3716	0.895	-0.181
Mof_C 	C 	0.5651	0.93643	0.2462	0.15
Mof_In	In	0.42601	0.26892	0.87553	2.801
Mof_O 	O 	0.40527	0.25883	0.82746	-1.888
Mof_O 	O 	0.43597	0.31053	0.83893	-0.81
Mof_O 	O 	0.47167	0.25893	0.85153	-0.405
Mof_O 	O 	0.4799	0.29523	0.88563	-0.569
Mof_O 	O 	0.42832	0.30775	0.91258	-0.485
Mof_O 	O 	0.38006	0.27392	0.89133	-0.481
Mof_O 	O 	0.39455	0.21265	0.87523	-0.495
Mof_O 	O 	0.41937	0.23483	0.92073	-0.517
Mof_C 	C 	0.41327	0.28173	0.81723	3.204
Mof_C 	C 	0.49317	0.28143	0.86973	0.09
Mof_C 	C 	0.41297	0.29493	0.79713	-2.638
Mof_C 	C 	0.52527	0.28933	0.86953	-0.034
Mof_C 	C 	0.38967	0.27483	0.76423	0.722
Mof_C 	C 	0.42277	0.32283	0.77953	1.613
Mof_C 	C 	0.54017	0.27273	0.85443	0.061
Mof_C 	C 	0.54527	0.31693	0.88953	0.216
Mof_H 	H 	0.37667	0.25163	0.76773	-0.171
Mof_C 	C 	0.38437	0.28433	0.73183	-0.65
Mof_C 	C 	0.42437	0.34113	0.74913	-0.951
Mof_H 	H 	0.43537	0.34013	0.79443	-0.408
Mof_C 	C 	0.57617	0.28633	0.85963	-0.151
Mof_C 	C 	0.58087	0.32973	0.89373	-0.213
Mof_H 	H 	0.36897	0.26823	0.71743	0.268
Mof_C 	C 	0.40297	0.31793	0.72293	0.476
Mof_H 	H 	0.43727	0.36453	0.74683	0.382
Mof_H 	H 	0.58657	0.27583	0.84913	0.09
Mof_C 	C 	0.59497	0.31303	0.87843	0.097
Mof_H 	H 	0.59397	0.34883	0.90653	0.111
Mof_C 	C 	0.39837	0.32503	0.68743	-0.137
Mof_C 	C 	0.63327	0.32163	0.87843	0.042
Mof_C 	C 	0.42547	0.34853	0.66993	-0.005
Mof_C 	C 	0.36607	0.31023	0.67163	-0.007
Mof_C 	C 	0.65497	0.35613	0.87863	-0.118
Mof_H 	H 	0.44667	0.35833	0.67973	0.034
Mof_C 	C 	0.42337	0.35853	0.63833	0.014
Mof_C 	C 	0.36307	0.32013	0.63983	0.005
Mof_H 	H 	0.34697	0.29393	0.68263	0.034
Mof_H 	H 	0.64707	0.37123	0.87903	0.074
Mof_C 	C 	0.39177	0.34373	0.62423	-0.073
Mof_C 	C 	0.45227	0.38279	0.61973	0.016
Mof_C 	C 	0.32877	0.30523	0.62453	0.048
Mof_H 	H 	0.38987	0.35003	0.60303	0.068
Mof_C 	C 	0.48457	0.38994	0.62885	-0.077
Mof_C 	C 	0.44821	0.40093	0.59443	-0.019
Mof_C 	C 	0.32167	0.32683	0.60483	-0.086
Mof_C 	C 	0.30347	0.27313	0.62903	-0.092
Mof_H 	H 	0.48727	0.37783	0.64573	0.062
Mof_C 	C 	0.51278	0.41523	0.61273	-0.008
Mof_C 	C 	0.47637	0.42623	0.57833	0.015
Mof_H 	H 	0.33827	0.34943	0.60203	0.068
Mof_C 	C 	0.29057	0.31483	0.58983	0
Mof_C 	C 	0.27307	0.26183	0.61183	0.008
Mof_H 	H 	0.30607	0.25873	0.64333	0.07
Mof_H 	H 	0.53437	0.42003	0.61883	0.055
Mof_C 	C 	0.5087	0.43342	0.58753	-0.047
Mof_H 	H 	0.28617	0.32933	0.57743	0.055
Mof_C 	C 	0.26617	0.28123	0.59323	-0.038
Mof_H 	H 	0.25667	0.23903	0.61363	0.059
Mof_C 	C 	0.54287	0.46203	0.56993	0.326
Mof_C 	C 	0.23337	0.26873	0.57603	0.123
Mof_O 	O 	0.57047	0.47093	0.58238	-0.511
Mof_O 	O 	0.53682	0.47118	0.54427	-0.427
Mof_In	In	0.5975	0.50453	0.53879	2.451
Mof_O 	O 	0.63207	0.53716	0.49692	-0.465
Mof_O 	O 	0.57619	0.50913	0.48974	-0.467
Mof_O 	O 	0.63632	0.48834	0.55157	-0.477
Mof_O 	O 	0.59425	0.4576	0.51641	-0.476
Mof_O 	O 	0.62944	0.5497	0.57306	-0.502
Mof_O 	O 	0.58917	0.54863	0.54573	-0.37
Mof_C 	C 	0.60467	0.52803	0.48013	0.3
Mof_C 	C 	0.62007	0.46373	0.53453	0.29
Mof_C 	C 	0.61197	0.54353	0.44482	-0.063
Mof_C 	C 	0.63057	0.43663	0.53033	-0.061
Mof_C 	C 	0.64057	0.57353	0.43553	0.003
Mof_C 	C 	0.58656	0.52527	0.42203	0.013
Mof_C 	C 	0.61487	0.41113	0.50713	0.04
Mof_C 	C 	0.65687	0.43861	0.54933	0.044
Mof_C 	C 	0.64375	0.58536	0.40353	-0.014
Mof_C 	C 	0.58971	0.53703	0.39004	0.005
Mof_C 	C 	0.62547	0.38753	0.50283	0.028
Mof_C 	C 	0.66737	0.41503	0.54513	-0.019
Mof_C 	C 	0.61827	0.56713	0.38079	-0.036
Mof_C 	C 	0.65167	0.38953	0.52183	-0.017
Mof_C 	C 	0.61977	0.58163	0.34783	0.11
Mof_C 	C 	0.65817	0.36083	0.52223	-0.01
Mof_C 	C 	0.65007	0.60583	0.33263	-0.163
Mof_C 	C 	0.59017	0.57143	0.33053	-0.165
Mof_C 	C 	0.69297	0.36653	0.51873	0.019
Mof_H 	H 	0.67067	0.61393	0.34343	0.098
Mof_C 	C 	0.64897	0.61763	0.30123	0.107
Mof_C 	C 	0.58847	0.58173	0.30023	0.092
Mof_H 	H 	0.56997	0.55623	0.34073	0.097
Mof_C 	C 	0.61857	0.60593	0.28433	-0.158
Mof_C 	C 	0.68197	0.64313	0.28494	-0.027
Mof_C 	C 	0.55567	0.56963	0.28183	0.018
Mof_H 	H 	0.61807	0.61373	0.26343	0.094
Mof_C 	C 	0.70947	0.63789	0.28353	-0.004
Mof_C 	C 	0.6844	0.67223	0.27133	-0.011
Mof_C 	C 	0.55187	0.56363	0.24823	-0.092
Mof_C 	C 	0.52567	0.56223	0.30003	-0.107
Mof_C 	C 	0.73937	0.66173	0.26853	0.029
Mof_C 	C 	0.71427	0.69607	0.25633	0.032
Mof_H 	H 	0.57027	0.56833	0.23483	0.071
Mof_C 	C 	0.51877	0.55003	0.23503	0.02
Mof_C 	C 	0.49577	0.54973	0.28523	0.046
Mof_H 	H 	0.52727	0.56623	0.32253	0.071
Mof_C 	C 	0.74179	0.69083	0.25492	-0.104
Mof_H 	H 	0.51577	0.54663	0.21253	0.058
Mof_C 	C 	0.49097	0.54163	0.25453	-0.099
Mof_H 	H 	0.47737	0.54663	0.29773	0.034
Mof_C 	C 	0.77507	0.71673	0.23673	0.383
Mof_C 	C 	0.45777	0.52503	0.23763	0.348
Mof_C 	C 	0.47677	0.42923	0.58203	0.022
Mof_C 	C 	0.61937	0.37933	0.51823	-0.035
Mof_C 	C 	0.60917	0.40323	0.52093	-0.001
Mof_C 	C 	0.64537	0.38463	0.53963	0.035
Mof_C 	C 	0.66307	0.41303	0.55943	-0
Mof_C 	C 	0.65637	0.35923	0.54343	0.006
Mof_C 	C 	0.69197	0.36793	0.53843	-0.014
Mof_C 	C 	0.48857	0.27513	0.87533	0.256
Mof_C 	C 	0.52847	0.30843	0.87733	-0.151
Mof_C 	C 	0.58927	0.55793	0.39913	-0.011
Mof_C 	C 	0.58437	0.54313	0.43003	0.035
Mof_C 	C 	0.64677	0.57163	0.39763	0.006
Mof_C 	C 	0.64377	0.56103	0.43013	0.036
Mof_C 	C 	0.69477	0.63573	0.25713	-0.007
Mof_C 	C 	0.72307	0.65943	0.23993	0.042
Mof_C 	C 	0.73097	0.70043	0.28273	0.03
Mof_C 	C 	0.70427	0.67403	0.29943	-0.008
Mof_O 	O 	0.79337	0.70493	0.22833	-0.181
Mof_C 	C 	0.23177	0.26976	0.57953	0.15
Mof_In	In	0.09268	0.60226	0.20887	2.801
Mof_O 	O 	0.07193	0.59217	0.1608	-1.888
Mof_O 	O 	0.10263	0.64387	0.17227	-0.81
Mof_O 	O 	0.13833	0.59227	0.18487	-0.405
Mof_O 	O 	0.14656	0.62857	0.21897	-0.569
Mof_O 	O 	0.09498	0.64109	0.24592	-0.485
Mof_O 	O 	0.04672	0.60726	0.22467	-0.48
Mof_O 	O 	0.06121	0.54599	0.20857	-0.495
Mof_O 	O 	0.08603	0.56817	0.25407	-0.517
Mof_C 	C 	0.07993	0.61507	0.15057	3.204
Mof_C 	C 	0.15983	0.61477	0.20307	0.09
Mof_C 	C 	0.07963	0.62827	0.13047	-2.638
Mof_C 	C 	0.19193	0.62267	0.20287	-0.034
Mof_C 	C 	0.05633	0.60817	0.09757	0.722
Mof_C 	C 	0.08943	0.65617	0.11287	1.613
Mof_C 	C 	0.20683	0.60607	0.18777	0.061
Mof_C 	C 	0.21193	0.65027	0.22287	0.216
Mof_H 	H 	0.04333	0.58497	0.10107	-0.171
Mof_C 	C 	0.05103	0.61767	0.06517	-0.65
Mof_C 	C 	0.09103	0.67447	0.08247	-0.951
Mof_H 	H 	0.10203	0.67347	0.12777	-0.408
Mof_C 	C 	0.24283	0.61967	0.19297	-0.151
Mof_C 	C 	0.24753	0.66307	0.22707	-0.213
Mof_H 	H 	0.03563	0.60157	0.05077	0.268
Mof_C 	C 	0.06963	0.65127	0.05627	0.476
Mof_H 	H 	0.10393	0.69787	0.08017	0.382
Mof_H 	H 	0.25323	0.60917	0.18247	0.09
Mof_C 	C 	0.26163	0.64637	0.21177	0.097
Mof_H 	H 	0.26063	0.68217	0.23987	0.111
Mof_C 	C 	0.06503	0.65837	0.02077	-0.137
Mof_C 	C 	0.29993	0.65497	0.21177	0.042
Mof_C 	C 	0.09213	0.68187	0.00327	-0.005
Mof_C 	C 	0.03273	0.64357	0.00497	-0.007
Mof_C 	C 	0.32163	0.68947	0.21197	-0.118
Mof_H 	H 	0.11333	0.69167	0.01307	0.034
Mof_C 	C 	0.09003	0.69187	0.97167	0.014
Mof_C 	C 	0.02973	0.65347	0.97317	0.005
Mof_H 	H 	0.01363	0.62727	0.01597	0.034
Mof_H 	H 	0.31373	0.70457	0.21237	0.074
Mof_C 	C 	0.05843	0.67707	0.95757	-0.073
Mof_C 	C 	0.11893	0.71613	0.95307	0.016
Mof_C 	C 	0.99543	0.63857	0.95787	0.048
Mof_H 	H 	0.05653	0.68337	0.93637	0.068
Mof_C 	C 	0.15123	0.72328	0.96219	-0.077
Mof_C 	C 	0.11487	0.73427	0.92777	-0.019
Mof_C 	C 	0.98833	0.66017	0.93817	-0.086
Mof_C 	C 	0.97013	0.60647	0.96237	-0.092
Mof_H 	H 	0.15393	0.71117	0.97907	0.062
Mof_C 	C 	0.17944	0.74857	0.94607	-0.008
Mof_C 	C 	0.14303	0.75957	0.91167	0.015
Mof_H 	H 	0.00493	0.68277	0.93537	0.068
Mof_C 	C 	0.95723	0.64817	0.92317	-0
Mof_C 	C 	0.93973	0.59517	0.94517	0.008
Mof_H 	H 	0.97273	0.59207	0.97667	0.07
Mof_H 	H 	0.20103	0.75337	0.95217	0.055
Mof_C 	C 	0.17536	0.76676	0.92087	-0.047
Mof_H 	H 	0.95283	0.66267	0.91077	0.055
Mof_C 	C 	0.93283	0.61457	0.92657	-0.038
Mof_H 	H 	0.92333	0.57237	0.94697	0.059
Mof_C 	C 	0.20953	0.79537	0.90327	0.326
Mof_C 	C 	0.90003	0.60207	0.90937	0.123
Mof_O 	O 	0.23713	0.80427	0.91572	-0.511
Mof_O 	O 	0.20348	0.80452	0.87761	-0.427
Mof_In	In	0.26417	0.83786	0.87212	2.451
Mof_O 	O 	0.29873	0.8705	0.83026	-0.465
Mof_O 	O 	0.24285	0.84247	0.82308	-0.467
Mof_O 	O 	0.30298	0.82168	0.88491	-0.477
Mof_O 	O 	0.26091	0.79094	0.84975	-0.476
Mof_O 	O 	0.2961	0.88304	0.9064	-0.502
Mof_O 	O 	0.25583	0.88197	0.87907	-0.37
Mof_C 	C 	0.27133	0.86137	0.81347	0.3
Mof_C 	C 	0.28673	0.79707	0.86787	0.29
Mof_C 	C 	0.27863	0.87687	0.77816	-0.063
Mof_C 	C 	0.29723	0.76997	0.86367	-0.061
Mof_C 	C 	0.30723	0.90687	0.76887	0.003
Mof_C 	C 	0.25322	0.85861	0.75537	0.013
Mof_C 	C 	0.28153	0.74447	0.84047	0.04
Mof_C 	C 	0.32353	0.77195	0.88267	0.044
Mof_C 	C 	0.31041	0.9187	0.73687	-0.014
Mof_C 	C 	0.25637	0.87037	0.72338	0.005
Mof_C 	C 	0.29213	0.72087	0.83617	0.028
Mof_C 	C 	0.33403	0.74837	0.87847	-0.019
Mof_C 	C 	0.28493	0.90047	0.71413	-0.036
Mof_C 	C 	0.31833	0.72287	0.85517	-0.017
Mof_C 	C 	0.28643	0.91497	0.68117	0.11
Mof_C 	C 	0.32483	0.69417	0.85557	-0.01
Mof_C 	C 	0.31673	0.93917	0.66597	-0.163
Mof_C 	C 	0.25683	0.90477	0.66387	-0.165
Mof_C 	C 	0.35963	0.69987	0.85207	0.019
Mof_H 	H 	0.33733	0.94727	0.67677	0.098
Mof_C 	C 	0.31563	0.95097	0.63457	0.107
Mof_C 	C 	0.25513	0.91507	0.63357	0.092
Mof_H 	H 	0.23663	0.88957	0.67407	0.097
Mof_C 	C 	0.28523	0.93927	0.61767	-0.158
Mof_C 	C 	0.34863	0.97647	0.61828	-0.027
Mof_C 	C 	0.22233	0.90297	0.61517	0.018
Mof_H 	H 	0.28473	0.94707	0.59677	0.094
Mof_C 	C 	0.37613	0.97123	0.61687	-0.004
Mof_C 	C 	0.35106	0.00557	0.60467	-0.011
Mof_C 	C 	0.21853	0.89697	0.58157	-0.092
Mof_C 	C 	0.19233	0.89557	0.63337	-0.107
Mof_C 	C 	0.40603	0.99507	0.60187	0.029
Mof_C 	C 	0.38093	0.02941	0.58967	0.032
Mof_H 	H 	0.23693	0.90167	0.56817	0.071
Mof_C 	C 	0.18543	0.88337	0.56837	0.02
Mof_C 	C 	0.16243	0.88307	0.61857	0.046
Mof_H 	H 	0.19393	0.89957	0.65587	0.071
Mof_C 	C 	0.40845	0.02417	0.58826	-0.104
Mof_H 	H 	0.18243	0.87997	0.54587	0.058
Mof_C 	C 	0.15763	0.87497	0.58787	-0.099
Mof_H 	H 	0.14403	0.87997	0.63107	0.034
Mof_C 	C 	0.44173	0.05007	0.57007	0.384
Mof_C 	C 	0.12443	0.85837	0.57097	0.348
Mof_C 	C 	0.14343	0.76257	0.91537	0.022
Mof_C 	C 	0.28603	0.71267	0.85157	-0.035
Mof_C 	C 	0.27583	0.73657	0.85427	-0.001
Mof_C 	C 	0.31203	0.71797	0.87297	0.035
Mof_C 	C 	0.32973	0.74637	0.89277	-0
Mof_C 	C 	0.32303	0.69257	0.87677	0.006
Mof_C 	C 	0.35863	0.70127	0.87177	-0.014
Mof_C 	C 	0.15523	0.60847	0.20867	0.256
Mof_C 	C 	0.19513	0.64177	0.21067	-0.151
Mof_C 	C 	0.25593	0.89127	0.73247	-0.011
Mof_C 	C 	0.25103	0.87647	0.76337	0.035
Mof_C 	C 	0.31343	0.90497	0.73097	0.006
Mof_C 	C 	0.31043	0.89437	0.76347	0.036
Mof_C 	C 	0.36143	0.96907	0.59047	-0.007
Mof_C 	C 	0.38973	0.99277	0.57327	0.042
Mof_C 	C 	0.39763	0.03377	0.61607	0.03
Mof_C 	C 	0.37093	0.00737	0.63277	-0.008
Mof_O 	O 	0.46003	0.03827	0.56167	-0.181
Mof_C 	C 	0.89843	0.6031	0.91287	0.15
Mof_In	In	0.06441	0.82375	0.5422	2.801
Mof_O 	O 	0.0745	0.8131	0.49413	-1.888
Mof_O 	O 	0.0228	0.7921	0.5056	-0.81
Mof_O 	O 	0.0744	0.8794	0.5182	-0.405
Mof_O 	O 	0.0381	0.85133	0.5523	-0.569
Mof_O 	O 	0.02558	0.78723	0.57925	-0.485
Mof_O 	O 	0.05941	0.7728	0.558	-0.481
Mof_O 	O 	0.12068	0.84856	0.5419	-0.495
Mof_O 	O 	0.0985	0.8512	0.5874	-0.517
Mof_C 	C 	0.0516	0.7982	0.4839	3.204
Mof_C 	C 	0.0519	0.8784	0.5364	0.09
Mof_C 	C 	0.0384	0.7847	0.4638	-2.638
Mof_C 	C 	0.044	0.9026	0.5362	-0.034
Mof_C 	C 	0.0585	0.7815	0.4309	0.722
Mof_C 	C 	0.0105	0.7666	0.4462	1.613
Mof_C 	C 	0.0606	0.9341	0.5211	0.061
Mof_C 	C 	0.0164	0.895	0.5562	0.216
Mof_H 	H 	0.0817	0.7917	0.4344	-0.171
Mof_C 	C 	0.049	0.7667	0.3985	-0.65
Mof_C 	C 	0.9922	0.7499	0.4158	-0.951
Mof_H 	H 	0.9932	0.7619	0.4611	-0.408
Mof_C 	C 	0.047	0.9565	0.5263	-0.151
Mof_C 	C 	0.0036	0.9178	0.5604	-0.213
Mof_H 	H 	0.0651	0.7674	0.3841	0.268
Mof_C 	C 	0.0154	0.7517	0.3896	0.476
Mof_H 	H 	0.9688	0.7394	0.4135	0.382
Mof_H 	H 	0.0575	0.9774	0.5158	0.09
Mof_C 	C 	0.0203	0.9486	0.5451	0.097
Mof_H 	H 	0.9845	0.9118	0.5732	0.111
Mof_C 	C 	0.0083	0.74	0.3541	-0.137
Mof_C 	C 	0.0117	0.9783	0.5451	0.042
Mof_C 	C 	0.9848	0.7436	0.3366	-0.005
Mof_C 	C 	0.0231	0.7225	0.3383	-0.007
Mof_C 	C 	0.9772	0.9655	0.5453	-0.118
Mof_H 	H 	0.975	0.755	0.3464	0.034
Mof_C 	C 	0.9748	0.7315	0.305	0.014
Mof_C 	C 	0.0132	0.7096	0.3065	0.005
Mof_H 	H 	0.0394	0.7197	0.3493	0.034
Mof_H 	H 	0.9621	0.9425	0.5457	0.074
Mof_C 	C 	0.9896	0.7147	0.2909	-0.073
Mof_C 	C 	0.95054	0.73614	0.2864	0.016
Mof_C 	C 	0.0281	0.6902	0.2912	0.048
Mof_H 	H 	0.9833	0.7065	0.2697	0.068
Mof_C 	C 	0.94339	0.76129	0.29552	-0.077
Mof_C 	C 	0.9324	0.71394	0.2611	-0.019
Mof_C 	C 	0.0065	0.6615	0.2715	-0.086
Mof_C 	C 	0.0602	0.697	0.2957	-0.092
Mof_H 	H 	0.9555	0.7761	0.3124	0.062
Mof_C 	C 	0.9181	0.76421	0.2794	-0.008
Mof_C 	C 	0.9071	0.7168	0.245	0.015
Mof_H 	H 	0.9839	0.6555	0.2687	0.068
Mof_C 	C 	0.0185	0.6424	0.2565	0
Mof_C 	C 	0.0715	0.6779	0.2785	0.008
Mof_H 	H 	0.0746	0.714	0.31	0.07
Mof_H 	H 	0.9133	0.781	0.2855	0.055
Mof_C 	C 	0.89991	0.74194	0.2542	-0.047
Mof_H 	H 	0.004	0.6235	0.2441	0.055
Mof_C 	C 	0.0521	0.6516	0.2599	-0.038
Mof_H 	H 	0.0943	0.6843	0.2803	0.059
Mof_C 	C 	0.8713	0.7475	0.2366	0.326
Mof_C 	C 	0.0646	0.6313	0.2427	0.123
Mof_O 	O 	0.8624	0.7662	0.24905	-0.51
Mof_O 	O 	0.86215	0.7323	0.21094	-0.427
Mof_In	In	0.8288	0.75964	0.20545	2.451
Mof_O 	O 	0.79617	0.76157	0.16359	-0.465
Mof_O 	O 	0.8242	0.73372	0.15641	-0.467
Mof_O 	O 	0.84499	0.81464	0.21824	-0.477
Mof_O 	O 	0.87573	0.80331	0.18308	-0.476
Mof_O 	O 	0.78363	0.7464	0.23973	-0.502
Mof_O 	O 	0.7847	0.7072	0.2124	-0.37
Mof_C 	C 	0.8053	0.7433	0.1468	0.3
Mof_C 	C 	0.8696	0.823	0.2012	0.29
Mof_C 	C 	0.7898	0.7351	0.11149	-0.063
Mof_C 	C 	0.8967	0.8606	0.197	-0.061
Mof_C 	C 	0.7598	0.7337	0.1022	0.003
Mof_C 	C 	0.80806	0.72795	0.0887	0.013
Mof_C 	C 	0.9222	0.8704	0.1738	0.04
Mof_C 	C 	0.89472	0.88492	0.216	0.044
Mof_C 	C 	0.74797	0.72505	0.0702	-0.014
Mof_C 	C 	0.7963	0.71934	0.05671	0.005
Mof_C 	C 	0.9458	0.9046	0.1695	0.028
Mof_C 	C 	0.9183	0.919	0.2118	-0.019
Mof_C 	C 	0.7662	0.7178	0.04746	-0.036
Mof_C 	C 	0.9438	0.9288	0.1885	-0.017
Mof_C 	C 	0.7517	0.7048	0.0145	0.11
Mof_C 	C 	0.9725	0.964	0.1889	-0.01
Mof_C 	C 	0.7275	0.7109	0.9993	-0.163
Mof_C 	C 	0.7619	0.6854	0.9972	-0.165
Mof_C 	C 	0.9668	0.9931	0.1854	0.019
Mof_H 	H 	0.7194	0.7234	0.0101	0.098
Mof_C 	C 	0.7157	0.698	0.9679	0.107
Mof_C 	C 	0.7516	0.6734	0.9669	0.092
Mof_H 	H 	0.7771	0.6804	0.0074	0.097
Mof_C 	C 	0.7274	0.6793	0.951	-0.158
Mof_C 	C 	0.6902	0.7055	0.95161	-0.027
Mof_C 	C 	0.7637	0.6527	0.9485	0.018
Mof_H 	H 	0.7196	0.671	0.9301	0.094
Mof_C 	C 	0.69544	0.73824	0.9502	-0.004
Mof_C 	C 	0.6611	0.67883	0.938	-0.011
Mof_C 	C 	0.7697	0.6549	0.9149	-0.092
Mof_C 	C 	0.7711	0.6301	0.9667	-0.107
Mof_C 	C 	0.6716	0.7443	0.9352	0.029
Mof_C 	C 	0.63726	0.68486	0.923	0.032
Mof_H 	H 	0.765	0.6686	0.9015	0.071
Mof_C 	C 	0.7833	0.6354	0.9017	0.02
Mof_C 	C 	0.7836	0.6127	0.9519	0.046
Mof_H 	H 	0.7671	0.6277	0.9892	0.071
Mof_C 	C 	0.6425	0.71762	0.92159	-0.104
Mof_H 	H 	0.7867	0.6358	0.8792	0.058
Mof_C 	C 	0.7917	0.616	0.9212	-0.099
Mof_H 	H 	0.7867	0.5974	0.9644	0.034
Mof_C 	C 	0.6166	0.725	0.9034	0.383
Mof_C 	C 	0.8083	0.5994	0.9043	0.348
Mof_C 	C 	0.9041	0.7142	0.2487	0.022
Mof_C 	C 	0.954	0.9067	0.1849	-0.035
Mof_C 	C 	0.9301	0.8726	0.1876	-0.001
Mof_C 	C 	0.9487	0.9274	0.2063	0.035
Mof_C 	C 	0.9203	0.9167	0.2261	-0
Mof_C 	C 	0.9741	0.9638	0.2101	0.006
Mof_C 	C 	0.9654	0.9907	0.2051	-0.014
Mof_C 	C 	0.0582	0.8801	0.542	0.256
Mof_C 	C 	0.0249	0.8867	0.544	-0.151
Mof_C 	C 	0.7754	0.698	0.0658	-0.011
Mof_C 	C 	0.7902	0.7079	0.0967	0.035
Mof_C 	C 	0.7617	0.7418	0.0643	0.006
Mof_C 	C 	0.7723	0.7494	0.0968	0.036
Mof_C 	C 	0.6976	0.7257	0.9238	-0.007
Mof_C 	C 	0.6739	0.7303	0.9066	0.042
Mof_C 	C 	0.6329	0.6972	0.9494	0.03
Mof_C 	C 	0.6593	0.6969	0.9661	-0.008
Mof_O 	O 	0.6284	0.7551	0.895	-0.181
Mof_C 	C 	0.06357	0.62867	0.2462	0.15
Mof_In	In	0.73108	0.15709	0.87553	2.801
Mof_O 	O 	0.74117	0.14643	0.82746	-1.888
Mof_O 	O 	0.68947	0.12543	0.83893	-0.81
Mof_O 	O 	0.74107	0.21273	0.85153	-0.405
Mof_O 	O 	0.70477	0.18466	0.88563	-0.569
Mof_O 	O 	0.69225	0.12056	0.91258	-0.485
Mof_O 	O 	0.72608	0.10613	0.89133	-0.48
Mof_O 	O 	0.78735	0.18189	0.87523	-0.495
Mof_O 	O 	0.76517	0.18453	0.92073	-0.517
Mof_C 	C 	0.71827	0.13153	0.81723	3.204
Mof_C 	C 	0.71857	0.21173	0.86973	0.09
Mof_C 	C 	0.70507	0.11803	0.79713	-2.638
Mof_C 	C 	0.71067	0.23593	0.86953	-0.034
Mof_C 	C 	0.72517	0.11483	0.76423	0.722
Mof_C 	C 	0.67717	0.09993	0.77953	1.613
Mof_C 	C 	0.72727	0.26743	0.85443	0.061
Mof_C 	C 	0.68307	0.22833	0.88953	0.216
Mof_H 	H 	0.74837	0.12503	0.76773	-0.171
Mof_C 	C 	0.71567	0.10003	0.73183	-0.65
Mof_C 	C 	0.65887	0.08323	0.74913	-0.951
Mof_H 	H 	0.65987	0.09523	0.79443	-0.408
Mof_C 	C 	0.71367	0.28983	0.85963	-0.151
Mof_C 	C 	0.67027	0.25113	0.89373	-0.213
Mof_H 	H 	0.73177	0.10073	0.71743	0.268
Mof_C 	C 	0.68207	0.08503	0.72293	0.476
Mof_H 	H 	0.63547	0.07273	0.74683	0.382
Mof_H 	H 	0.72417	0.31073	0.84913	0.09
Mof_C 	C 	0.68697	0.28193	0.87843	0.097
Mof_H 	H 	0.65117	0.24513	0.90653	0.111
Mof_C 	C 	0.67497	0.07333	0.68743	-0.137
Mof_C 	C 	0.67837	0.31163	0.87843	0.042
Mof_C 	C 	0.65147	0.07693	0.66993	-0.005
Mof_C 	C 	0.68977	0.05583	0.67163	-0.007
Mof_C 	C 	0.64387	0.29883	0.87863	-0.118
Mof_H 	H 	0.64167	0.08833	0.67973	0.034
Mof_C 	C 	0.64147	0.06483	0.63833	0.014
Mof_C 	C 	0.67987	0.04293	0.63983	0.005
Mof_H 	H 	0.70607	0.05303	0.68263	0.034
Mof_H 	H 	0.62877	0.27583	0.87903	0.074
Mof_C 	C 	0.65627	0.04803	0.62423	-0.073
Mof_C 	C 	0.61721	0.06947	0.61973	0.016
Mof_C 	C 	0.69477	0.02353	0.62453	0.048
Mof_H 	H 	0.64997	0.03983	0.60303	0.068
Mof_C 	C 	0.61006	0.09462	0.62885	-0.077
Mof_C 	C 	0.59907	0.04727	0.59443	-0.019
Mof_C 	C 	0.67317	0.99483	0.60483	-0.086
Mof_C 	C 	0.72687	0.03033	0.62903	-0.092
Mof_H 	H 	0.62217	0.10943	0.64573	0.062
Mof_C 	C 	0.58477	0.09754	0.61273	-0.008
Mof_C 	C 	0.57377	0.05013	0.57833	0.015
Mof_H 	H 	0.65057	0.98883	0.60203	0.068
Mof_C 	C 	0.68517	0.97573	0.58983	-0
Mof_C 	C 	0.73817	0.01123	0.61183	0.008
Mof_H 	H 	0.74127	0.04733	0.64333	0.07
Mof_H 	H 	0.57997	0.11433	0.61883	0.055
Mof_C 	C 	0.56658	0.07527	0.58753	-0.047
Mof_H 	H 	0.67067	0.95683	0.57743	0.055
Mof_C 	C 	0.71877	0.98493	0.59323	-0.038
Mof_H 	H 	0.76097	0.01763	0.61363	0.059
Mof_C 	C 	0.53797	0.08083	0.56993	0.326
Mof_C 	C 	0.73127	0.96463	0.57603	0.123
Mof_O 	O 	0.52907	0.09953	0.58238	-0.511
Mof_O 	O 	0.52882	0.06563	0.54427	-0.427
Mof_In	In	0.49547	0.09297	0.53879	2.451
Mof_O 	O 	0.46284	0.0949	0.49692	-0.465
Mof_O 	O 	0.49087	0.06705	0.48974	-0.467
Mof_O 	O 	0.51166	0.14797	0.55157	-0.477
Mof_O 	O 	0.5424	0.13664	0.51641	-0.476
Mof_O 	O 	0.4503	0.07973	0.57306	-0.502
Mof_O 	O 	0.45137	0.04053	0.54573	-0.37
Mof_C 	C 	0.47197	0.07663	0.48013	0.3
Mof_C 	C 	0.53627	0.15633	0.53453	0.29
Mof_C 	C 	0.45647	0.06843	0.44482	-0.063
Mof_C 	C 	0.56337	0.19393	0.53033	-0.061
Mof_C 	C 	0.42647	0.06703	0.43553	0.003
Mof_C 	C 	0.47473	0.06128	0.42203	0.013
Mof_C 	C 	0.58887	0.20373	0.50713	0.04
Mof_C 	C 	0.56139	0.21825	0.54933	0.044
Mof_C 	C 	0.41464	0.05838	0.40353	-0.014
Mof_C 	C 	0.46297	0.05267	0.39004	0.005
Mof_C 	C 	0.61247	0.23793	0.50283	0.028
Mof_C 	C 	0.58497	0.25233	0.54513	-0.019
Mof_C 	C 	0.43287	0.05113	0.38079	-0.036
Mof_C 	C 	0.61047	0.26213	0.52183	-0.017
Mof_C 	C 	0.41837	0.03813	0.34783	0.11
Mof_C 	C 	0.63917	0.29733	0.52223	-0.01
Mof_C 	C 	0.39417	0.04423	0.33263	-0.163
Mof_C 	C 	0.42857	0.01873	0.33053	-0.164
Mof_C 	C 	0.63347	0.32643	0.51873	0.019
Mof_H 	H 	0.38607	0.05673	0.34343	0.098
Mof_C 	C 	0.38237	0.03133	0.30123	0.107
Mof_C 	C 	0.41827	0.00673	0.30023	0.092
Mof_H 	H 	0.44377	0.01373	0.34073	0.097
Mof_C 	C 	0.39407	0.01263	0.28433	-0.158
Mof_C 	C 	0.35687	0.03883	0.28494	-0.027
Mof_C 	C 	0.43037	0.98603	0.28183	0.018
Mof_H 	H 	0.38627	0.00433	0.26343	0.094
Mof_C 	C 	0.36211	0.07157	0.28353	-0.004
Mof_C 	C 	0.32777	0.01216	0.27133	-0.011
Mof_C 	C 	0.43637	0.98823	0.24823	-0.092
Mof_C 	C 	0.43777	0.96343	0.30003	-0.107
Mof_C 	C 	0.33827	0.07763	0.26853	0.029
Mof_C 	C 	0.30393	0.01819	0.25633	0.032
Mof_H 	H 	0.43167	0.00193	0.23483	0.071
Mof_C 	C 	0.44997	0.96873	0.23503	0.02
Mof_C 	C 	0.45027	0.94603	0.28523	0.046
Mof_H 	H 	0.43377	0.96103	0.32253	0.071
Mof_C 	C 	0.30917	0.05095	0.25492	-0.104
Mof_H 	H 	0.45337	0.96913	0.21253	0.058
Mof_C 	C 	0.45837	0.94933	0.25453	-0.099
Mof_H 	H 	0.45337	0.93073	0.29773	0.034
Mof_C 	C 	0.28327	0.05833	0.23673	0.383
Mof_C 	C 	0.47497	0.93273	0.23763	0.349
Mof_C 	C 	0.57077	0.04753	0.58203	0.022
Mof_C 	C 	0.62067	0.24003	0.51823	-0.035
Mof_C 	C 	0.59677	0.20593	0.52093	-0.001
Mof_C 	C 	0.61537	0.26073	0.53963	0.035
Mof_C 	C 	0.58697	0.25003	0.55943	-0
Mof_C 	C 	0.64077	0.29713	0.54343	0.006
Mof_C 	C 	0.63207	0.32403	0.53843	-0.014
Mof_C 	C 	0.72487	0.21343	0.87533	0.256
Mof_C 	C 	0.69157	0.22003	0.87733	-0.151
Mof_C 	C 	0.44207	0.03133	0.39913	-0.011
Mof_C 	C 	0.45687	0.04123	0.43003	0.035
Mof_C 	C 	0.42837	0.07513	0.39763	0.006
Mof_C 	C 	0.43897	0.08273	0.43013	0.036
Mof_C 	C 	0.36427	0.05903	0.25713	-0.007
Mof_C 	C 	0.34057	0.06363	0.23993	0.042
Mof_C 	C 	0.29957	0.03053	0.28273	0.03
Mof_C 	C 	0.32597	0.03023	0.29943	-0.008
Mof_O 	O 	0.29507	0.08843	0.22833	-0.181
Mof_C 	C 	0.73024	0.962	0.57953	0.15
Mof_In	In	0.39774	0.49042	0.20887	2.801
Mof_O 	O 	0.40783	0.47977	0.1608	-1.888
Mof_O 	O 	0.35613	0.45877	0.17227	-0.81
Mof_O 	O 	0.40773	0.54607	0.18487	-0.405
Mof_O 	O 	0.37143	0.518	0.21897	-0.569
Mof_O 	O 	0.35891	0.4539	0.24592	-0.485
Mof_O 	O 	0.39274	0.43947	0.22467	-0.481
Mof_O 	O 	0.45401	0.51523	0.20857	-0.495
Mof_O 	O 	0.43183	0.51787	0.25407	-0.517
Mof_C 	C 	0.38493	0.46487	0.15057	3.204
Mof_C 	C 	0.38523	0.54507	0.20307	0.09
Mof_C 	C 	0.37173	0.45137	0.13047	-2.638
Mof_C 	C 	0.37733	0.56927	0.20287	-0.034
Mof_C 	C 	0.39183	0.44817	0.09757	0.722
Mof_C 	C 	0.34383	0.43327	0.11287	1.613
Mof_C 	C 	0.39393	0.60077	0.18777	0.061
Mof_C 	C 	0.34973	0.56167	0.22287	0.216
Mof_H 	H 	0.41503	0.45837	0.10107	-0.171
Mof_C 	C 	0.38233	0.43337	0.06517	-0.65
Mof_C 	C 	0.32553	0.41657	0.08247	-0.951
Mof_H 	H 	0.32653	0.42857	0.12777	-0.408
Mof_C 	C 	0.38033	0.62317	0.19297	-0.151
Mof_C 	C 	0.33693	0.58447	0.22707	-0.213
Mof_H 	H 	0.39843	0.43407	0.05077	0.268
Mof_C 	C 	0.34873	0.41837	0.05627	0.476
Mof_H 	H 	0.30213	0.40607	0.08017	0.382
Mof_H 	H 	0.39083	0.64407	0.18247	0.09
Mof_C 	C 	0.35363	0.61527	0.21177	0.097
Mof_H 	H 	0.31783	0.57847	0.23987	0.111
Mof_C 	C 	0.34163	0.40667	0.02077	-0.137
Mof_C 	C 	0.34503	0.64497	0.21177	0.042
Mof_C 	C 	0.31813	0.41027	0.00327	-0.005
Mof_C 	C 	0.35643	0.38917	0.00497	-0.007
Mof_C 	C 	0.31053	0.63217	0.21197	-0.118
Mof_H 	H 	0.30833	0.42167	0.01307	0.034
Mof_C 	C 	0.30813	0.39817	0.97167	0.014
Mof_C 	C 	0.34653	0.37627	0.97317	0.005
Mof_H 	H 	0.37273	0.38637	0.01597	0.034
Mof_H 	H 	0.29543	0.60917	0.21237	0.074
Mof_C 	C 	0.32293	0.38137	0.95757	-0.073
Mof_C 	C 	0.28387	0.40281	0.95307	0.016
Mof_C 	C 	0.36143	0.35687	0.95787	0.048
Mof_H 	H 	0.31663	0.37317	0.93637	0.068
Mof_C 	C 	0.27672	0.42796	0.96219	-0.077
Mof_C 	C 	0.26573	0.38061	0.92777	-0.019
Mof_C 	C 	0.33983	0.32817	0.93817	-0.086
Mof_C 	C 	0.39353	0.36367	0.96237	-0.092
Mof_H 	H 	0.28883	0.44277	0.97907	0.062
Mof_C 	C 	0.25143	0.43088	0.94607	-0.008
Mof_C 	C 	0.24043	0.38347	0.91167	0.015
Mof_H 	H 	0.31723	0.32217	0.93537	0.068
Mof_C 	C 	0.35183	0.30907	0.92317	0
Mof_C 	C 	0.40483	0.34457	0.94517	0.008
Mof_H 	H 	0.40793	0.38067	0.97667	0.07
Mof_H 	H 	0.24663	0.44767	0.95217	0.055
Mof_C 	C 	0.23324	0.40861	0.92087	-0.047
Mof_H 	H 	0.33733	0.29017	0.91077	0.055
Mof_C 	C 	0.38543	0.31827	0.92657	-0.038
Mof_H 	H 	0.42763	0.35097	0.94697	0.059
Mof_C 	C 	0.20463	0.41417	0.90327	0.326
Mof_C 	C 	0.39793	0.29797	0.90937	0.123
Mof_O 	O 	0.19573	0.43287	0.91572	-0.511
Mof_O 	O 	0.19548	0.39897	0.87761	-0.427
Mof_In	In	0.16214	0.4263	0.87212	2.451
Mof_O 	O 	0.1295	0.42824	0.83026	-0.465
Mof_O 	O 	0.15753	0.40039	0.82308	-0.467
Mof_O 	O 	0.17832	0.48131	0.88491	-0.477
Mof_O 	O 	0.20906	0.46998	0.84975	-0.476
Mof_O 	O 	0.11696	0.41307	0.9064	-0.502
Mof_O 	O 	0.11803	0.37387	0.87907	-0.37
Mof_C 	C 	0.13863	0.40997	0.81347	0.3
Mof_C 	C 	0.20293	0.48967	0.86787	0.29
Mof_C 	C 	0.12313	0.40177	0.77816	-0.063
Mof_C 	C 	0.23003	0.52727	0.86367	-0.061
Mof_C 	C 	0.09313	0.40037	0.76887	0.003
Mof_C 	C 	0.14139	0.39462	0.75537	0.013
Mof_C 	C 	0.25553	0.53707	0.84047	0.04
Mof_C 	C 	0.22805	0.55159	0.88267	0.044
Mof_C 	C 	0.0813	0.39172	0.73687	-0.014
Mof_C 	C 	0.12963	0.38601	0.72338	0.005
Mof_C 	C 	0.27913	0.57127	0.83617	0.028
Mof_C 	C 	0.25163	0.58567	0.87847	-0.019
Mof_C 	C 	0.09953	0.38447	0.71413	-0.036
Mof_C 	C 	0.27713	0.59547	0.85517	-0.017
Mof_C 	C 	0.08503	0.37147	0.68117	0.11
Mof_C 	C 	0.30583	0.63067	0.85557	-0.01
Mof_C 	C 	0.06083	0.37757	0.66597	-0.163
Mof_C 	C 	0.09523	0.35207	0.66387	-0.164
Mof_C 	C 	0.30013	0.65977	0.85207	0.019
Mof_H 	H 	0.05273	0.39007	0.67677	0.098
Mof_C 	C 	0.04903	0.36467	0.63457	0.107
Mof_C 	C 	0.08493	0.34007	0.63357	0.092
Mof_H 	H 	0.11043	0.34707	0.67407	0.097
Mof_C 	C 	0.06073	0.34597	0.61767	-0.158
Mof_C 	C 	0.02353	0.37217	0.61828	-0.027
Mof_C 	C 	0.09703	0.31937	0.61517	0.018
Mof_H 	H 	0.05293	0.33767	0.59677	0.094
Mof_C 	C 	0.02877	0.40491	0.61687	-0.004
Mof_C 	C 	0.99443	0.3455	0.60467	-0.011
Mof_C 	C 	0.10303	0.32157	0.58157	-0.092
Mof_C 	C 	0.10443	0.29677	0.63337	-0.107
Mof_C 	C 	0.00493	0.41097	0.60187	0.029
Mof_C 	C 	0.97059	0.35153	0.58967	0.032
Mof_H 	H 	0.09833	0.33527	0.56817	0.071
Mof_C 	C 	0.11663	0.30207	0.56837	0.02
Mof_C 	C 	0.11693	0.27937	0.61857	0.046
Mof_H 	H 	0.10043	0.29437	0.65587	0.071
Mof_C 	C 	0.97583	0.38429	0.58826	-0.104
Mof_H 	H 	0.12003	0.30247	0.54587	0.058
Mof_C 	C 	0.12503	0.28267	0.58787	-0.099
Mof_H 	H 	0.12003	0.26407	0.63107	0.034
Mof_C 	C 	0.94993	0.39167	0.57007	0.384
Mof_C 	C 	0.14163	0.26607	0.57097	0.348
Mof_C 	C 	0.23743	0.38087	0.91537	0.022
Mof_C 	C 	0.28733	0.57337	0.85157	-0.035
Mof_C 	C 	0.26343	0.53927	0.85427	-0.001
Mof_C 	C 	0.28203	0.59407	0.87297	0.035
Mof_C 	C 	0.25363	0.58337	0.89277	-0
Mof_C 	C 	0.30743	0.63047	0.87677	0.006
Mof_C 	C 	0.29873	0.65737	0.87177	-0.014
Mof_C 	C 	0.39153	0.54677	0.20867	0.256
Mof_C 	C 	0.35823	0.55337	0.21067	-0.151
Mof_C 	C 	0.10873	0.36467	0.73247	-0.011
Mof_C 	C 	0.12353	0.37457	0.76337	0.035
Mof_C 	C 	0.09503	0.40847	0.73097	0.006
Mof_C 	C 	0.10563	0.41607	0.76347	0.036
Mof_C 	C 	0.03093	0.39237	0.59047	-0.007
Mof_C 	C 	0.00723	0.39697	0.57327	0.042
Mof_C 	C 	0.96623	0.36387	0.61607	0.03
Mof_C 	C 	0.99263	0.36357	0.63277	-0.008
Mof_O 	O 	0.96173	0.42177	0.56167	-0.181
Mof_C 	C 	0.3969	0.29534	0.91287	0.15
Mof_In	In	0.17625	0.24066	0.5422	2.801
Mof_O 	O 	0.1869	0.2614	0.49413	-1.888
Mof_O 	O 	0.2079	0.2307	0.5056	-0.81
Mof_O 	O 	0.1206	0.195	0.5182	-0.405
Mof_O 	O 	0.14867	0.18677	0.5523	-0.569
Mof_O 	O 	0.21277	0.23835	0.57925	-0.485
Mof_O 	O 	0.2272	0.28661	0.558	-0.481
Mof_O 	O 	0.15144	0.27212	0.5419	-0.495
Mof_O 	O 	0.1488	0.2473	0.5874	-0.517
Mof_C 	C 	0.2018	0.2534	0.4839	3.204
Mof_C 	C 	0.1216	0.1735	0.5364	0.09
Mof_C 	C 	0.2153	0.2537	0.4638	-2.638
Mof_C 	C 	0.0974	0.1414	0.5362	-0.034
Mof_C 	C 	0.2185	0.277	0.4309	0.722
Mof_C 	C 	0.2334	0.2439	0.4462	1.613
Mof_C 	C 	0.0659	0.1265	0.5211	0.061
Mof_C 	C 	0.105	0.1214	0.5562	0.216
Mof_H 	H 	0.2083	0.29	0.4344	-0.171
Mof_C 	C 	0.2333	0.2823	0.3985	-0.65
Mof_C 	C 	0.2501	0.2423	0.4158	-0.951
Mof_H 	H 	0.2381	0.2313	0.4611	-0.408
Mof_C 	C 	0.0435	0.0905	0.5263	-0.151
Mof_C 	C 	0.0822	0.0858	0.5604	-0.213
Mof_H 	H 	0.2326	0.2977	0.3841	0.268
Mof_C 	C 	0.2483	0.2637	0.3896	0.476
Mof_H 	H 	0.2606	0.2294	0.4135	0.382
Mof_H 	H 	0.0226	0.0801	0.5158	0.09
Mof_C 	C 	0.0514	0.0717	0.5451	0.097
Mof_H 	H 	0.0882	0.0727	0.5732	0.111
Mof_C 	C 	0.26	0.2683	0.3541	-0.137
Mof_C 	C 	0.0217	0.0334	0.5451	0.042
Mof_C 	C 	0.2564	0.2412	0.3366	-0.005
Mof_C 	C 	0.2775	0.3006	0.3383	-0.007
Mof_C 	C 	0.0345	0.0117	0.5453	-0.118
Mof_H 	H 	0.245	0.22	0.3464	0.034
Mof_C 	C 	0.2685	0.2433	0.305	0.014
Mof_C 	C 	0.2904	0.3036	0.3065	0.005
Mof_H 	H 	0.2803	0.3197	0.3493	0.034
Mof_H 	H 	0.0575	0.0196	0.5457	0.074
Mof_C 	C 	0.2853	0.2749	0.2909	-0.073
Mof_C 	C 	0.26386	0.2144	0.2864	0.016
Mof_C 	C 	0.3098	0.3379	0.2912	0.048
Mof_H 	H 	0.2935	0.2768	0.2697	0.068
Mof_C 	C 	0.23871	0.1821	0.29552	-0.077
Mof_C 	C 	0.28606	0.21846	0.2611	-0.019
Mof_C 	C 	0.3385	0.345	0.2715	-0.086
Mof_C 	C 	0.303	0.3632	0.2957	-0.092
Mof_H 	H 	0.2239	0.1794	0.3124	0.062
Mof_C 	C 	0.23579	0.15389	0.2794	-0.008
Mof_C 	C 	0.2832	0.1903	0.245	0.015
Mof_H 	H 	0.3445	0.3284	0.2687	0.068
Mof_C 	C 	0.3576	0.3761	0.2565	0
Mof_C 	C 	0.3221	0.3936	0.2785	0.008
Mof_H 	H 	0.286	0.3606	0.31	0.07
Mof_H 	H 	0.219	0.1323	0.2855	0.055
Mof_C 	C 	0.25806	0.15797	0.2542	-0.047
Mof_H 	H 	0.3765	0.3805	0.2441	0.055
Mof_C 	C 	0.3484	0.4005	0.2599	-0.038
Mof_H 	H 	0.3157	0.41	0.2803	0.059
Mof_C 	C 	0.2525	0.1238	0.2366	0.326
Mof_C 	C 	0.3687	0.4333	0.2427	0.123
Mof_O 	O 	0.2338	0.0962	0.24905	-0.511
Mof_O 	O 	0.2677	0.12985	0.21094	-0.427
Mof_In	In	0.24036	0.06917	0.20545	2.451
Mof_O 	O 	0.23843	0.0346	0.16359	-0.465
Mof_O 	O 	0.26628	0.09048	0.15641	-0.467
Mof_O 	O 	0.18536	0.03035	0.21824	-0.477
Mof_O 	O 	0.19669	0.07242	0.18308	-0.476
Mof_O 	O 	0.2536	0.03723	0.23973	-0.502
Mof_O 	O 	0.2928	0.0775	0.2124	-0.37
Mof_C 	C 	0.2567	0.062	0.1468	0.3
Mof_C 	C 	0.177	0.0466	0.2012	0.29
Mof_C 	C 	0.2649	0.0547	0.11149	-0.063
Mof_C 	C 	0.1394	0.0361	0.197	-0.061
Mof_C 	C 	0.2663	0.0261	0.1022	0.003
Mof_C 	C 	0.27205	0.08011	0.0887	0.013
Mof_C 	C 	0.1296	0.0518	0.1738	0.04
Mof_C 	C 	0.11508	0.0098	0.216	0.044
Mof_C 	C 	0.27495	0.02292	0.0702	-0.014
Mof_C 	C 	0.28066	0.07696	0.05671	0.005
Mof_C 	C 	0.0954	0.0412	0.1695	0.028
Mof_C 	C 	0.081	0.9993	0.2118	-0.019
Mof_C 	C 	0.2822	0.0484	0.04746	-0.036
Mof_C 	C 	0.0712	0.015	0.1885	-0.017
Mof_C 	C 	0.2952	0.0469	0.0145	0.11
Mof_C 	C 	0.036	0.0085	0.1889	-0.011
Mof_C 	C 	0.2891	0.0166	0.9993	-0.163
Mof_C 	C 	0.3146	0.0765	0.9972	-0.164
Mof_C 	C 	0.0069	0.9737	0.1854	0.019
Mof_H 	H 	0.2766	0.996	0.0101	0.098
Mof_C 	C 	0.302	0.0177	0.9679	0.107
Mof_C 	C 	0.3266	0.0782	0.9669	0.092
Mof_H 	H 	0.3196	0.0967	0.0074	0.097
Mof_C 	C 	0.3207	0.0481	0.951	-0.158
Mof_C 	C 	0.2945	0.9847	0.95161	-0.027
Mof_C 	C 	0.3473	0.111	0.9485	0.018
Mof_H 	H 	0.329	0.0486	0.9301	0.094
Mof_C 	C 	0.26176	0.9572	0.9502	-0.004
Mof_C 	C 	0.32117	0.98227	0.938	-0.011
Mof_C 	C 	0.3451	0.1148	0.9149	-0.092
Mof_C 	C 	0.3699	0.141	0.9667	-0.107
Mof_C 	C 	0.2557	0.9273	0.9352	0.029
Mof_C 	C 	0.31514	0.9524	0.923	0.032
Mof_H 	H 	0.3314	0.0964	0.9015	0.071
Mof_C 	C 	0.3646	0.1479	0.9017	0.02
Mof_C 	C 	0.3873	0.1709	0.9519	0.046
Mof_H 	H 	0.3723	0.1394	0.9892	0.071
Mof_C 	C 	0.28238	0.92488	0.92159	-0.104
Mof_H 	H 	0.3642	0.1509	0.8792	0.058
Mof_C 	C 	0.384	0.1757	0.9212	-0.099
Mof_H 	H 	0.4026	0.1893	0.9644	0.034
Mof_C 	C 	0.275	0.8916	0.9034	0.384
Mof_C 	C 	0.4006	0.2089	0.9043	0.348
Mof_C 	C 	0.2858	0.1899	0.2487	0.022
Mof_C 	C 	0.0933	0.0473	0.1849	-0.035
Mof_C 	C 	0.1274	0.0575	0.1876	-0.001
Mof_C 	C 	0.0726	0.0213	0.2063	0.035
Mof_C 	C 	0.0833	0.0036	0.2261	-0.001
Mof_C 	C 	0.0362	0.0103	0.2101	0.006
Mof_C 	C 	0.0093	0.9747	0.2051	-0.014
Mof_C 	C 	0.1199	0.1781	0.542	0.256
Mof_C 	C 	0.1133	0.1382	0.544	-0.151
Mof_C 	C 	0.302	0.0774	0.0658	-0.011
Mof_C 	C 	0.2921	0.0823	0.0967	0.035
Mof_C 	C 	0.2582	0.0199	0.0643	0.006
Mof_C 	C 	0.2506	0.0229	0.0968	0.036
Mof_C 	C 	0.2743	0.9719	0.9238	-0.007
Mof_C 	C 	0.2697	0.9436	0.9066	0.042
Mof_C 	C 	0.3028	0.9357	0.9494	0.03
Mof_C 	C 	0.3031	0.9624	0.9661	-0.008
Mof_O 	O 	0.2449	0.8733	0.895	-0.181
Mof_C 	C 	0.37133	0.4349	0.2462	0.15
Mof_In	In	0.84291	0.57399	0.87553	2.801
Mof_O 	O 	0.85357	0.59473	0.82746	-1.888
Mof_O 	O 	0.87457	0.56403	0.83893	-0.81
Mof_O 	O 	0.78727	0.52833	0.85153	-0.405
Mof_O 	O 	0.81534	0.5201	0.88563	-0.569
Mof_O 	O 	0.87944	0.57168	0.91258	-0.485
Mof_O 	O 	0.89387	0.61994	0.89133	-0.481
Mof_O 	O 	0.81811	0.60545	0.87523	-0.495
Mof_O 	O 	0.81547	0.58063	0.92073	-0.517
Mof_C 	C 	0.86847	0.58673	0.81723	3.204
Mof_C 	C 	0.78827	0.50683	0.86973	0.09
Mof_C 	C 	0.88197	0.58703	0.79713	-2.639
Mof_C 	C 	0.76407	0.47473	0.86953	-0.034
Mof_C 	C 	0.88517	0.61033	0.76423	0.723
Mof_C 	C 	0.90007	0.57723	0.77953	1.613
Mof_C 	C 	0.73257	0.45983	0.85443	0.061
Mof_C 	C 	0.77167	0.45473	0.88953	0.216
Mof_H 	H 	0.87497	0.62333	0.76773	-0.171
Mof_C 	C 	0.89997	0.61563	0.73183	-0.65
Mof_C 	C 	0.91677	0.57563	0.74913	-0.951
Mof_H 	H 	0.90477	0.56463	0.79443	-0.408
Mof_C 	C 	0.71017	0.42383	0.85963	-0.151
Mof_C 	C 	0.74887	0.41913	0.89373	-0.213
Mof_H 	H 	0.89927	0.63103	0.71743	0.268
Mof_C 	C 	0.91497	0.59703	0.72293	0.476
Mof_H 	H 	0.92727	0.56273	0.74683	0.382
Mof_H 	H 	0.68927	0.41343	0.84913	0.09
Mof_C 	C 	0.71807	0.40503	0.87843	0.097
Mof_H 	H 	0.75487	0.40603	0.90653	0.111
Mof_C 	C 	0.92667	0.60163	0.68743	-0.137
Mof_C 	C 	0.68837	0.36673	0.87843	0.042
Mof_C 	C 	0.92307	0.57453	0.66993	-0.005
Mof_C 	C 	0.94417	0.63393	0.67163	-0.007
Mof_C 	C 	0.70117	0.34503	0.87863	-0.118
Mof_H 	H 	0.91167	0.55333	0.67973	0.034
Mof_C 	C 	0.93517	0.57663	0.63833	0.014
Mof_C 	C 	0.95707	0.63693	0.63983	0.005
Mof_H 	H 	0.94697	0.65303	0.68263	0.034
Mof_H 	H 	0.72417	0.35293	0.87903	0.074
Mof_C 	C 	0.95197	0.60823	0.62423	-0.073
Mof_C 	C 	0.93053	0.54773	0.61973	0.016
Mof_C 	C 	0.97647	0.67123	0.62453	0.048
Mof_H 	H 	0.96017	0.61013	0.60303	0.068
Mof_C 	C 	0.90538	0.51543	0.62885	-0.077
Mof_C 	C 	0.95273	0.55179	0.59443	-0.019
Mof_C 	C 	0.00517	0.67833	0.60483	-0.086
Mof_C 	C 	0.96967	0.69653	0.62903	-0.092
Mof_H 	H 	0.89057	0.51273	0.64573	0.062
Mof_C 	C 	0.90246	0.48722	0.61273	-0.008
Mof_C 	C 	0.94987	0.52363	0.57833	0.015
Mof_H 	H 	0.01117	0.66173	0.60203	0.068
Mof_C 	C 	0.02427	0.70943	0.58983	0
Mof_C 	C 	0.98877	0.72693	0.61183	0.008
Mof_H 	H 	0.95267	0.69393	0.64333	0.07
Mof_H 	H 	0.88567	0.46563	0.61883	0.055
Mof_C 	C 	0.92473	0.4913	0.58753	-0.047
Mof_H 	H 	0.04317	0.71383	0.57743	0.055
Mof_C 	C 	0.01507	0.73383	0.59323	-0.038
Mof_H 	H 	0.98237	0.74333	0.61363	0.059
Mof_C 	C 	0.91917	0.45713	0.56993	0.326
Mof_C 	C 	0.03537	0.76663	0.57603	0.123
Mof_O 	O 	0.90047	0.42953	0.58238	-0.511
Mof_O 	O 	0.93437	0.46318	0.54427	-0.427
Mof_In	In	0.90703	0.4025	0.53879	2.451
Mof_O 	O 	0.9051	0.36793	0.49692	-0.465
Mof_O 	O 	0.93295	0.42381	0.48974	-0.467
Mof_O 	O 	0.85203	0.36368	0.55157	-0.477
Mof_O 	O 	0.86336	0.40575	0.51641	-0.476
Mof_O 	O 	0.92027	0.37056	0.57306	-0.502
Mof_O 	O 	0.95947	0.41083	0.54573	-0.369
Mof_C 	C 	0.92337	0.39533	0.48013	0.3
Mof_C 	C 	0.84367	0.37993	0.53453	0.29
Mof_C 	C 	0.93157	0.38803	0.44482	-0.063
Mof_C 	C 	0.80607	0.36943	0.53033	-0.061
Mof_C 	C 	0.93297	0.35943	0.43553	0.003
Mof_C 	C 	0.93872	0.41344	0.42203	0.013
Mof_C 	C 	0.79627	0.38513	0.50713	0.04
Mof_C 	C 	0.78175	0.34313	0.54933	0.044
Mof_C 	C 	0.94162	0.35625	0.40353	-0.014
Mof_C 	C 	0.94733	0.41029	0.39004	0.005
Mof_C 	C 	0.76207	0.37453	0.50283	0.028
Mof_C 	C 	0.74767	0.33263	0.54513	-0.019
Mof_C 	C 	0.94887	0.38173	0.38079	-0.036
Mof_C 	C 	0.73787	0.34833	0.52183	-0.017
Mof_C 	C 	0.96187	0.38023	0.34783	0.11
Mof_C 	C 	0.70267	0.34183	0.52223	-0.01
Mof_C 	C 	0.95577	0.34993	0.33263	-0.163
Mof_C 	C 	0.98127	0.40983	0.33053	-0.164
Mof_C 	C 	0.67357	0.30703	0.51873	0.019
Mof_H 	H 	0.94327	0.32933	0.34343	0.098
Mof_C 	C 	0.96867	0.35103	0.30123	0.107
Mof_C 	C 	0.99327	0.41153	0.30023	0.092
Mof_H 	H 	0.98627	0.43003	0.34073	0.097
Mof_C 	C 	0.98737	0.38143	0.28433	-0.158
Mof_C 	C 	0.96117	0.31803	0.28494	-0.027
Mof_C 	C 	0.01397	0.44433	0.28183	0.018
Mof_H 	H 	0.99567	0.38193	0.26343	0.094
Mof_C 	C 	0.92843	0.29053	0.28353	-0.004
Mof_C 	C 	0.98784	0.3156	0.27133	-0.011
Mof_C 	C 	0.01177	0.44813	0.24823	-0.092
Mof_C 	C 	0.03657	0.47433	0.30003	-0.107
Mof_C 	C 	0.92237	0.26063	0.26853	0.029
Mof_C 	C 	0.98181	0.28573	0.25633	0.032
Mof_H 	H 	0.99807	0.42973	0.23483	0.071
Mof_C 	C 	0.03127	0.48123	0.23503	0.02
Mof_C 	C 	0.05397	0.50423	0.28523	0.046
Mof_H 	H 	0.03897	0.47273	0.32253	0.071
Mof_C 	C 	0.94905	0.25821	0.25492	-0.104
Mof_H 	H 	0.03087	0.48423	0.21253	0.058
Mof_C 	C 	0.05067	0.50903	0.25453	-0.099
Mof_H 	H 	0.06927	0.52263	0.29773	0.034
Mof_C 	C 	0.94167	0.22493	0.23673	0.384
Mof_C 	C 	0.06727	0.54223	0.23763	0.348
Mof_C 	C 	0.95247	0.52323	0.58203	0.022
Mof_C 	C 	0.75997	0.38063	0.51823	-0.035
Mof_C 	C 	0.79407	0.39083	0.52093	-0.001
Mof_C 	C 	0.73927	0.35463	0.53963	0.035
Mof_C 	C 	0.74997	0.33693	0.55943	-0
Mof_C 	C 	0.70287	0.34363	0.54343	0.006
Mof_C 	C 	0.67597	0.30803	0.53843	-0.014
Mof_C 	C 	0.78657	0.51143	0.87533	0.256
Mof_C 	C 	0.77997	0.47153	0.87733	-0.151
Mof_C 	C 	0.96867	0.41073	0.39913	-0.011
Mof_C 	C 	0.95877	0.41563	0.43003	0.035
Mof_C 	C 	0.92487	0.35323	0.39763	0.006
Mof_C 	C 	0.91727	0.35623	0.43013	0.036
Mof_C 	C 	0.94097	0.30523	0.25713	-0.007
Mof_C 	C 	0.93637	0.27693	0.23993	0.042
Mof_C 	C 	0.96947	0.26903	0.28273	0.03
Mof_C 	C 	0.96977	0.29573	0.29943	-0.008
Mof_O 	O 	0.91157	0.20663	0.22833	-0.181
Mof_C 	C 	0.038	0.76823	0.57953	0.15
Mof_In	In	0.50958	0.90732	0.20887	2.801
Mof_O 	O 	0.52023	0.92807	0.1608	-1.888
Mof_O 	O 	0.54123	0.89737	0.17227	-0.81
Mof_O 	O 	0.45393	0.86167	0.18487	-0.405
Mof_O 	O 	0.482	0.85344	0.21897	-0.569
Mof_O 	O 	0.5461	0.90502	0.24592	-0.486
Mof_O 	O 	0.56053	0.95328	0.22467	-0.48
Mof_O 	O 	0.48477	0.93879	0.20857	-0.495
Mof_O 	O 	0.48213	0.91397	0.25407	-0.517
Mof_C 	C 	0.53513	0.92007	0.15057	3.203
Mof_C 	C 	0.45493	0.84017	0.20307	0.09
Mof_C 	C 	0.54863	0.92037	0.13047	-2.638
Mof_C 	C 	0.43073	0.80807	0.20287	-0.034
Mof_C 	C 	0.55183	0.94367	0.09757	0.722
Mof_C 	C 	0.56673	0.91057	0.11287	1.613
Mof_C 	C 	0.39923	0.79317	0.18777	0.061
Mof_C 	C 	0.43833	0.78807	0.22287	0.216
Mof_H 	H 	0.54163	0.95667	0.10107	-0.17
Mof_C 	C 	0.56663	0.94897	0.06517	-0.65
Mof_C 	C 	0.58343	0.90897	0.08247	-0.951
Mof_H 	H 	0.57143	0.89797	0.12777	-0.408
Mof_C 	C 	0.37683	0.75717	0.19297	-0.151
Mof_C 	C 	0.41553	0.75247	0.22707	-0.213
Mof_H 	H 	0.56593	0.96437	0.05077	0.268
Mof_C 	C 	0.58163	0.93037	0.05627	0.476
Mof_H 	H 	0.59393	0.89607	0.08017	0.382
Mof_H 	H 	0.35593	0.74677	0.18247	0.09
Mof_C 	C 	0.38473	0.73837	0.21177	0.097
Mof_H 	H 	0.42153	0.73937	0.23987	0.111
Mof_C 	C 	0.59333	0.93497	0.02077	-0.137
Mof_C 	C 	0.35503	0.70007	0.21177	0.042
Mof_C 	C 	0.58973	0.90787	0.00327	-0.005
Mof_C 	C 	0.61083	0.96727	0.00497	-0.007
Mof_C 	C 	0.36783	0.67837	0.21197	-0.118
Mof_H 	H 	0.57833	0.88667	0.01307	0.034
Mof_C 	C 	0.60183	0.90997	0.97167	0.014
Mof_C 	C 	0.62373	0.97027	0.97317	0.005
Mof_H 	H 	0.61363	0.98637	0.01597	0.034
Mof_H 	H 	0.39083	0.68627	0.21237	0.074
Mof_C 	C 	0.61863	0.94157	0.95757	-0.073
Mof_C 	C 	0.59719	0.88107	0.95307	0.016
Mof_C 	C 	0.64313	0.00457	0.95787	0.048
Mof_H 	H 	0.62683	0.94347	0.93637	0.068
Mof_C 	C 	0.57204	0.84877	0.96219	-0.077
Mof_C 	C 	0.61939	0.88513	0.92777	-0.019
Mof_C 	C 	0.67183	0.01167	0.93817	-0.086
Mof_C 	C 	0.63633	0.02987	0.96237	-0.092
Mof_H 	H 	0.55723	0.84607	0.97907	0.062
Mof_C 	C 	0.56912	0.82056	0.94607	-0.008
Mof_C 	C 	0.61653	0.85697	0.91167	0.015
Mof_H 	H 	0.67783	0.99507	0.93537	0.068
Mof_C 	C 	0.69093	0.04277	0.92317	-0
Mof_C 	C 	0.65543	0.06027	0.94517	0.008
Mof_H 	H 	0.61933	0.02727	0.97667	0.07
Mof_H 	H 	0.55233	0.79897	0.95217	0.055
Mof_C 	C 	0.59139	0.82464	0.92087	-0.047
Mof_H 	H 	0.70983	0.04717	0.91077	0.055
Mof_C 	C 	0.68173	0.06717	0.92657	-0.038
Mof_H 	H 	0.64903	0.07667	0.94697	0.059
Mof_C 	C 	0.58583	0.79047	0.90327	0.326
Mof_C 	C 	0.70203	0.09997	0.90937	0.123
Mof_O 	O 	0.56713	0.76287	0.91572	-0.51
Mof_O 	O 	0.60103	0.79652	0.87761	-0.427
Mof_In	In	0.5737	0.73583	0.87212	2.451
Mof_O 	O 	0.57176	0.70127	0.83026	-0.465
Mof_O 	O 	0.59961	0.75715	0.82308	-0.467
Mof_O 	O 	0.51869	0.69702	0.88491	-0.477
Mof_O 	O 	0.53002	0.73909	0.84975	-0.476
Mof_O 	O 	0.58693	0.7039	0.9064	-0.502
Mof_O 	O 	0.62613	0.74417	0.87907	-0.37
Mof_C 	C 	0.59003	0.72867	0.81347	0.3
Mof_C 	C 	0.51033	0.71327	0.86787	0.29
Mof_C 	C 	0.59823	0.72137	0.77816	-0.063
Mof_C 	C 	0.47273	0.70277	0.86367	-0.061
Mof_C 	C 	0.59963	0.69277	0.76887	0.003
Mof_C 	C 	0.60538	0.74678	0.75537	0.013
Mof_C 	C 	0.46293	0.71847	0.84047	0.04
Mof_C 	C 	0.44841	0.67647	0.88267	0.044
Mof_C 	C 	0.60828	0.68959	0.73687	-0.014
Mof_C 	C 	0.61399	0.74363	0.72338	0.005
Mof_C 	C 	0.42873	0.70787	0.83617	0.028
Mof_C 	C 	0.41433	0.66597	0.87847	-0.019
Mof_C 	C 	0.61553	0.71507	0.71413	-0.036
Mof_C 	C 	0.40453	0.68167	0.85517	-0.017
Mof_C 	C 	0.62853	0.71357	0.68117	0.11
Mof_C 	C 	0.36933	0.67517	0.85557	-0.01
Mof_C 	C 	0.62243	0.68327	0.66597	-0.163
Mof_C 	C 	0.64793	0.74317	0.66387	-0.165
Mof_C 	C 	0.34023	0.64037	0.85207	0.019
Mof_H 	H 	0.60993	0.66267	0.67677	0.098
Mof_C 	C 	0.63533	0.68437	0.63457	0.107
Mof_C 	C 	0.65993	0.74487	0.63357	0.092
Mof_H 	H 	0.65293	0.76337	0.67407	0.097
Mof_C 	C 	0.65403	0.71477	0.61767	-0.158
Mof_C 	C 	0.62783	0.65137	0.61828	-0.027
Mof_C 	C 	0.68063	0.77767	0.61517	0.018
Mof_H 	H 	0.66233	0.71527	0.59677	0.094
Mof_C 	C 	0.59509	0.62387	0.61687	-0.004
Mof_C 	C 	0.6545	0.64894	0.60467	-0.011
Mof_C 	C 	0.67843	0.78147	0.58157	-0.092
Mof_C 	C 	0.70323	0.80767	0.63337	-0.107
Mof_C 	C 	0.58903	0.59397	0.60187	0.029
Mof_C 	C 	0.64847	0.61907	0.58967	0.032
Mof_H 	H 	0.66473	0.76307	0.56817	0.071
Mof_C 	C 	0.69793	0.81457	0.56837	0.02
Mof_C 	C 	0.72063	0.83757	0.61857	0.046
Mof_H 	H 	0.70563	0.80607	0.65587	0.071
Mof_C 	C 	0.61571	0.59155	0.58826	-0.104
Mof_H 	H 	0.69753	0.81757	0.54587	0.058
Mof_C 	C 	0.71733	0.84237	0.58787	-0.099
Mof_H 	H 	0.73593	0.85597	0.63107	0.034
Mof_C 	C 	0.60833	0.55827	0.57007	0.383
Mof_C 	C 	0.73393	0.87557	0.57097	0.348
Mof_C 	C 	0.61913	0.85657	0.91537	0.022
Mof_C 	C 	0.42663	0.71397	0.85157	-0.035
Mof_C 	C 	0.46073	0.72417	0.85427	-0.001
Mof_C 	C 	0.40593	0.68797	0.87297	0.035
Mof_C 	C 	0.41663	0.67027	0.89277	-0
Mof_C 	C 	0.36953	0.67697	0.87677	0.006
Mof_C 	C 	0.34263	0.64137	0.87177	-0.014
Mof_C 	C 	0.45323	0.84477	0.20867	0.256
Mof_C 	C 	0.44663	0.80487	0.21067	-0.151
Mof_C 	C 	0.63533	0.74407	0.73247	-0.011
Mof_C 	C 	0.62543	0.74897	0.76337	0.035
Mof_C 	C 	0.59153	0.68657	0.73097	0.006
Mof_C 	C 	0.58393	0.68957	0.76347	0.036
Mof_C 	C 	0.60763	0.63857	0.59047	-0.007
Mof_C 	C 	0.60303	0.61027	0.57327	0.042
Mof_C 	C 	0.63613	0.60237	0.61607	0.03
Mof_C 	C 	0.63643	0.62907	0.63277	-0.008
Mof_O 	O 	0.57823	0.53997	0.56167	-0.181
Mof_C 	C 	0.70466	0.10157	0.91287	0.15
_end
