data_functionalizedCrystal
_audit_creation_method	'EQeq! by Chris Wilmer'
_symmetry_space_group_name_H-M	'P1'
_symmetry_Int_Tables_number	1
_symmetry_cell_setting	triclinic
loop_
_symmetry_equiv_pos_as_xyz
  x,y,z
_cell_length_a	19.397
_cell_length_b	27.62
_cell_length_c	5.1655
_cell_angle_alpha	90
_cell_angle_beta	90
_cell_angle_gamma	90
loop_
_atom_site_label
_atom_site_type_symbol
_atom_site_fract_x
_atom_site_fract_y
_atom_site_fract_z
_atom_site_charge
Mof_Zn	Zn	0.54616	0.95202	0.77962	1.223
Mof_O 	O 	0.54718	0.88369	0.6808	-0.493
Mof_O 	O 	0.60109	0.99164	0.5538	-0.485
Mof_O 	O 	0.59469	0.95275	0.1136	-0.481
Mof_O 	O 	0.44919	0.96234	0.8314	-0.509
Mof_P 	P 	0.39665	0.99933	0.73535	0.467
Mof_C 	C 	0.31456	0.97354	0.8156	-0.309
Mof_H 	H 	0.3118	0.9412	0.7339	0.104
Mof_H 	H 	0.3132	0.9686	0.0054	0.107
Mof_P 	P 	0.39472	0.14546	0.44069	0.498
Mof_C 	C 	0.31431	0.12368	0.317	-0.379
Mof_O 	O 	0.40074	0.19915	0.41	-0.485
Mof_O 	O 	0.39318	0.13635	0.7416	-0.476
Mof_H 	H 	0.3131	0.1297	0.1282	0.134
Mof_H 	H 	0.3125	0.0882	0.343	0.121
Mof_H 	H 	0.3955	0.1065	0.7708	0.268
Mof_Zn	Zn	0.95384	0.54798	0.77962	1.224
Mof_O 	O 	0.95282	0.61631	0.6808	-0.492
Mof_O 	O 	0.89891	0.50836	0.5538	-0.485
Mof_O 	O 	0.90531	0.54725	0.1136	-0.48
Mof_O 	O 	0.05081	0.53766	0.8314	-0.508
Mof_P 	P 	0.10335	0.50067	0.73535	0.467
Mof_C 	C 	0.18544	0.52646	0.8156	-0.307
Mof_H 	H 	0.1882	0.5588	0.7339	0.103
Mof_H 	H 	0.1868	0.5314	0.0054	0.106
Mof_P 	P 	0.10528	0.35454	0.44069	0.498
Mof_C 	C 	0.18569	0.37632	0.317	-0.379
Mof_O 	O 	0.09926	0.30085	0.41	-0.485
Mof_O 	O 	0.10682	0.36365	0.7416	-0.476
Mof_H 	H 	0.1869	0.3703	0.1282	0.134
Mof_H 	H 	0.1875	0.4118	0.343	0.121
Mof_H 	H 	0.1045	0.3935	0.7708	0.268
Mof_Zn	Zn	0.45384	0.45202	0.22038	1.224
Mof_O 	O 	0.45282	0.38369	0.3192	-0.492
Mof_O 	O 	0.39891	0.49164	0.4462	-0.484
Mof_O 	O 	0.40531	0.45275	0.8864	-0.481
Mof_O 	O 	0.55081	0.46234	0.1686	-0.509
Mof_P 	P 	0.60335	0.49933	0.26465	0.467
Mof_C 	C 	0.68544	0.47354	0.1844	-0.308
Mof_H 	H 	0.6882	0.4412	0.2661	0.103
Mof_H 	H 	0.6868	0.4686	0.9946	0.107
Mof_P 	P 	0.60528	0.64546	0.55931	0.498
Mof_C 	C 	0.68569	0.62368	0.683	-0.379
Mof_O 	O 	0.59926	0.69915	0.59	-0.485
Mof_O 	O 	0.60682	0.63635	0.2584	-0.476
Mof_H 	H 	0.6869	0.6297	0.8718	0.134
Mof_H 	H 	0.6875	0.5882	0.657	0.121
Mof_H 	H 	0.6045	0.6065	0.2292	0.268
Mof_Zn	Zn	0.04616	0.04798	0.22038	1.223
Mof_O 	O 	0.04718	0.11631	0.3192	-0.492
Mof_O 	O 	0.10109	0.00836	0.4462	-0.485
Mof_O 	O 	0.09469	0.04725	0.8864	-0.48
Mof_O 	O 	0.94919	0.03766	0.1686	-0.508
Mof_P 	P 	0.89665	0.00067	0.26465	0.467
Mof_C 	C 	0.81456	0.02646	0.1844	-0.308
Mof_H 	H 	0.8118	0.0588	0.2661	0.104
Mof_H 	H 	0.8132	0.0314	0.9946	0.107
Mof_P 	P 	0.89472	0.85454	0.55931	0.497
Mof_C 	C 	0.81431	0.87632	0.683	-0.379
Mof_O 	O 	0.90074	0.80085	0.59	-0.485
Mof_O 	O 	0.89318	0.86365	0.2584	-0.476
Mof_H 	H 	0.8131	0.8703	0.8718	0.134
Mof_H 	H 	0.8125	0.9118	0.657	0.121
Mof_H 	H 	0.8955	0.8935	0.2292	0.268
Mof_Zn	Zn	0.45384	0.04798	0.22038	1.224
Mof_O 	O 	0.45282	0.11631	0.3192	-0.492
Mof_O 	O 	0.39891	0.00836	0.4462	-0.484
Mof_O 	O 	0.40531	0.04725	0.8864	-0.48
Mof_O 	O 	0.55081	0.03766	0.1686	-0.509
Mof_P 	P 	0.60335	0.00067	0.26465	0.467
Mof_C 	C 	0.68544	0.02646	0.1844	-0.309
Mof_H 	H 	0.6882	0.0588	0.2661	0.104
Mof_H 	H 	0.6868	0.0314	0.9946	0.107
Mof_P 	P 	0.60528	0.85454	0.55931	0.498
Mof_C 	C 	0.68569	0.87632	0.683	-0.379
Mof_O 	O 	0.59926	0.80085	0.59	-0.485
Mof_O 	O 	0.60682	0.86365	0.2584	-0.476
Mof_H 	H 	0.6869	0.8703	0.8718	0.134
Mof_H 	H 	0.6875	0.9118	0.657	0.121
Mof_H 	H 	0.6045	0.8935	0.2292	0.268
Mof_Zn	Zn	0.04616	0.45202	0.22038	1.224
Mof_O 	O 	0.04718	0.38369	0.3192	-0.492
Mof_O 	O 	0.10109	0.49164	0.4462	-0.485
Mof_O 	O 	0.09469	0.45275	0.8864	-0.48
Mof_O 	O 	0.94919	0.46234	0.1686	-0.508
Mof_P 	P 	0.89665	0.49933	0.26465	0.467
Mof_C 	C 	0.81456	0.47354	0.1844	-0.307
Mof_H 	H 	0.8118	0.4412	0.2661	0.103
Mof_H 	H 	0.8132	0.4686	0.9946	0.106
Mof_P 	P 	0.89472	0.64546	0.55931	0.498
Mof_C 	C 	0.81431	0.62368	0.683	-0.379
Mof_O 	O 	0.90074	0.69915	0.59	-0.485
Mof_O 	O 	0.89318	0.63635	0.2584	-0.476
Mof_H 	H 	0.8131	0.6297	0.8718	0.134
Mof_H 	H 	0.8125	0.5882	0.657	0.121
Mof_H 	H 	0.8955	0.6065	0.2292	0.268
Mof_Zn	Zn	0.54616	0.54798	0.77962	1.224
Mof_O 	O 	0.54718	0.61631	0.6808	-0.492
Mof_O 	O 	0.60109	0.50836	0.5538	-0.484
Mof_O 	O 	0.59469	0.54725	0.1136	-0.481
Mof_O 	O 	0.44919	0.53766	0.8314	-0.509
Mof_P 	P 	0.39665	0.50067	0.73535	0.467
Mof_C 	C 	0.31456	0.52646	0.8156	-0.308
Mof_H 	H 	0.3118	0.5588	0.7339	0.103
Mof_H 	H 	0.3132	0.5314	0.0054	0.107
Mof_P 	P 	0.39472	0.35454	0.44069	0.498
Mof_C 	C 	0.31431	0.37632	0.317	-0.379
Mof_O 	O 	0.40074	0.30085	0.41	-0.485
Mof_O 	O 	0.39318	0.36365	0.7416	-0.476
Mof_H 	H 	0.3131	0.3703	0.1282	0.134
Mof_H 	H 	0.3125	0.4118	0.343	0.121
Mof_H 	H 	0.3955	0.3935	0.7708	0.268
Mof_Zn	Zn	0.95384	0.95202	0.77962	1.223
Mof_O 	O 	0.95282	0.88369	0.6808	-0.492
Mof_O 	O 	0.89891	0.99164	0.5538	-0.485
Mof_O 	O 	0.90531	0.95275	0.1136	-0.48
Mof_O 	O 	0.05081	0.96234	0.8314	-0.508
Mof_P 	P 	0.10335	0.99933	0.73535	0.467
Mof_C 	C 	0.18544	0.97354	0.8156	-0.308
Mof_H 	H 	0.1882	0.9412	0.7339	0.104
Mof_H 	H 	0.1868	0.9686	0.0054	0.107
Mof_P 	P 	0.10528	0.14546	0.44069	0.497
Mof_C 	C 	0.18569	0.12368	0.317	-0.379
Mof_O 	O 	0.09926	0.19915	0.41	-0.485
Mof_O 	O 	0.10682	0.13635	0.7416	-0.476
Mof_H 	H 	0.1869	0.1297	0.1282	0.134
Mof_H 	H 	0.1875	0.0882	0.343	0.121
Mof_H 	H 	0.1045	0.1065	0.7708	0.268
Mof_C 	C 	0.25	0.00202	0.7379	0.107
Mof_H 	H 	0.25	0.0339	0.8251	0.002
Mof_H 	H 	0.25	0.0075	0.5485	-0.004
Mof_C 	C 	0.25	0.14597	0.4377	0.172
Mof_H 	H 	0.25	0.1814	0.4086	-0.014
Mof_H 	H 	0.25	0.1401	0.6268	-0.008
Mof_C 	C 	0.25	0.49798	0.7379	0.106
Mof_H 	H 	0.25	0.4661	0.8251	0.002
Mof_H 	H 	0.25	0.4925	0.5485	-0.003
Mof_C 	C 	0.25	0.35403	0.4377	0.172
Mof_H 	H 	0.25	0.3186	0.4086	-0.014
Mof_H 	H 	0.25	0.3599	0.6268	-0.008
Mof_C 	C 	0.75	0.50202	0.2621	0.106
Mof_H 	H 	0.75	0.5339	0.1749	0.002
Mof_H 	H 	0.75	0.5075	0.4515	-0.003
Mof_C 	C 	0.75	0.64597	0.5623	0.172
Mof_H 	H 	0.75	0.6814	0.5914	-0.014
Mof_H 	H 	0.75	0.6401	0.3732	-0.008
Mof_C 	C 	0.75	0.99798	0.2621	0.107
Mof_H 	H 	0.75	0.9661	0.1749	0.002
Mof_H 	H 	0.75	0.9925	0.4515	-0.004
Mof_C 	C 	0.75	0.85403	0.5623	0.172
Mof_H 	H 	0.75	0.8186	0.5914	-0.014
Mof_H 	H 	0.75	0.8599	0.3732	-0.008
Mof_Zn	Zn	0.45009	0.25	0.20559	1.129
Mof_Zn	Zn	0.04991	0.25	0.20559	1.129
Mof_Zn	Zn	0.54991	0.75	0.79441	1.129
Mof_Zn	Zn	0.95009	0.75	0.79441	1.129
_end
