data_functionalizedCrystal
_audit_creation_method	'EQeq! by Chris Wilmer'
_symmetry_space_group_name_H-M	'P1'
_symmetry_Int_Tables_number	1
_symmetry_cell_setting	triclinic
loop_
_symmetry_equiv_pos_as_xyz
  x,y,z
_cell_length_a	20.5835
_cell_length_b	12.0082
_cell_length_c	17.064
_cell_angle_alpha	90
_cell_angle_beta	90
_cell_angle_gamma	90
loop_
_atom_site_label
_atom_site_type_symbol
_atom_site_fract_x
_atom_site_fract_y
_atom_site_fract_z
_atom_site_charge
Mof_Zn	Zn	0.58755	0.04008	0.0561	1.234
Mof_O 	O 	0.67402	0.0347	0.10392	-0.447
Mof_C 	C 	0.70989	0.9542	0.0854	0.35
Mof_C 	C 	0.77804	0.9561	0.1181	-0.086
Mof_O 	O 	0.69246	0.8747	0.0452	-0.294
Mof_C 	C 	0.80009	0.0471	0.1605	0.005
Mof_C 	C 	0.8178	0.8645	0.1082	0.048
Mof_H 	H 	0.7734	0.1091	0.1659	0.054
Mof_C 	C 	0.86153	0.0475	0.1952	-0.036
Mof_C 	C 	0.87839	0.862	0.1432	-0.113
Mof_H 	H 	0.8039	0.8046	0.0779	0.042
Mof_C 	C 	0.88536	0.1456	0.2396	0.103
Mof_C 	C 	0.89978	0.9526	0.1872	0.023
Mof_C 	C 	0.918	0.7573	0.1404	0.443
Mof_C 	C 	0.8709	0.2527	0.2146	-0.142
Mof_C 	C 	0.9229	0.1351	0.307	-0.133
Mof_H 	H 	0.9402	0.9496	0.2116	0.054
Mof_O 	O 	0.92069	0.7032	0.0783	-0.467
Mof_O 	O 	0.9456	0.7347	0.202	-0.463
Mof_H 	H 	0.8463	0.2628	0.1694	0.098
Mof_C 	C 	0.8924	0.3441	0.2555	0.07
Mof_H 	H 	0.9337	0.0643	0.3248	0.099
Mof_C 	C 	0.9444	0.2268	0.3478	0.069
Mof_H 	H 	0.882	0.4148	0.2374	0.009
Mof_C 	C 	0.92922	0.3338	0.3231	-0.107
Mof_H 	H 	0.9694	0.2169	0.3926	0.04
Mof_O 	O 	0.97659	0.4409	0.09735	-0.438
Mof_O 	O 	0.90648	0.5325	0.94483	-0.432
Mof_P 	P 	0.95344	0.4553	0.37745	0.517
Mof_O 	O 	0.94395	0.5536	0.3223	-0.442
Mof_Zn	Zn	0.91245	0.45992	0.5561	1.238
Mof_O 	O 	0.82598	0.4653	0.60392	-0.444
Mof_C 	C 	0.79011	0.5458	0.5854	0.347
Mof_C 	C 	0.72196	0.5439	0.6181	-0.093
Mof_O 	O 	0.80754	0.6253	0.5452	-0.291
Mof_C 	C 	0.69991	0.4529	0.6605	0.01
Mof_C 	C 	0.6822	0.6355	0.6082	0.052
Mof_H 	H 	0.7266	0.3909	0.6659	0.051
Mof_C 	C 	0.63847	0.4525	0.6952	-0.044
Mof_C 	C 	0.62161	0.638	0.6432	-0.127
Mof_H 	H 	0.6961	0.6954	0.5779	0.039
Mof_C 	C 	0.61464	0.3544	0.7396	0.099
Mof_C 	C 	0.60022	0.5474	0.6872	0.027
Mof_C 	C 	0.582	0.7427	0.6404	0.449
Mof_C 	C 	0.6291	0.2473	0.7146	-0.146
Mof_C 	C 	0.5771	0.3649	0.807	-0.14
Mof_H 	H 	0.5598	0.5504	0.7116	0.035
Mof_O 	O 	0.57931	0.7968	0.5783	-0.482
Mof_O 	O 	0.5544	0.7653	0.702	-0.494
Mof_H 	H 	0.6537	0.2372	0.6694	0.096
Mof_C 	C 	0.6076	0.1559	0.7555	0.065
Mof_H 	H 	0.5663	0.4357	0.8248	0.088
Mof_C 	C 	0.5556	0.2732	0.8478	0.061
Mof_H 	H 	0.618	0.0852	0.7374	0.008
Mof_C 	C 	0.57078	0.1662	0.8231	-0.113
Mof_H 	H 	0.5306	0.2831	0.8926	0.024
Mof_O 	O 	0.52341	0.0591	0.59735	-0.493
Mof_O 	O 	0.59352	0.9675	0.44483	-0.434
Mof_P 	P 	0.54656	0.0447	0.87745	0.467
Mof_O 	O 	0.55605	0.9464	0.8223	-0.464
Mof_Zn	Zn	0.41245	0.04008	0.4439	1.234
Mof_O 	O 	0.32598	0.0347	0.39608	-0.447
Mof_C 	C 	0.29011	0.9542	0.4146	0.35
Mof_C 	C 	0.22196	0.9561	0.3819	-0.099
Mof_O 	O 	0.30754	0.8747	0.4548	-0.296
Mof_C 	C 	0.19991	0.0471	0.3395	0.014
Mof_C 	C 	0.1822	0.8645	0.3918	0.058
Mof_H 	H 	0.2266	0.1091	0.3341	0.049
Mof_C 	C 	0.13847	0.0475	0.3048	-0.056
Mof_C 	C 	0.12161	0.862	0.3568	-0.14
Mof_H 	H 	0.1961	0.8046	0.4221	0.036
Mof_C 	C 	0.11464	0.1456	0.2604	0.095
Mof_C 	C 	0.10022	0.9526	0.3128	0.035
Mof_C 	C 	0.082	0.7573	0.3596	0.453
Mof_C 	C 	0.1291	0.2527	0.2854	-0.151
Mof_C 	C 	0.0771	0.1351	0.193	-0.147
Mof_H 	H 	0.0598	0.9496	0.2884	0.016
Mof_O 	O 	0.07931	0.7032	0.4217	-0.497
Mof_O 	O 	0.0544	0.7347	0.298	-0.516
Mof_H 	H 	0.1537	0.2628	0.3306	0.095
Mof_C 	C 	0.1076	0.3441	0.2445	0.06
Mof_H 	H 	0.0663	0.0643	0.1752	0.077
Mof_C 	C 	0.0556	0.2268	0.1522	0.053
Mof_H 	H 	0.118	0.4148	0.2626	0.007
Mof_C 	C 	0.07078	0.3338	0.1769	-0.12
Mof_H 	H 	0.0306	0.2169	0.1074	0.007
Mof_O 	O 	0.02341	0.4409	0.40265	-0.548
Mof_O 	O 	0.09352	0.5325	0.55517	-0.435
Mof_P 	P 	0.04656	0.4553	0.12255	0.415
Mof_O 	O 	0.05605	0.5536	0.1777	-0.474
Mof_Zn	Zn	0.08755	0.45992	0.9439	1.231
Mof_O 	O 	0.17402	0.4653	0.89608	-0.447
Mof_C 	C 	0.20989	0.5458	0.9146	0.35
Mof_C 	C 	0.27804	0.5439	0.8819	-0.095
Mof_O 	O 	0.19246	0.6253	0.9548	-0.3
Mof_C 	C 	0.30009	0.4529	0.8395	0.012
Mof_C 	C 	0.3178	0.6355	0.8918	0.054
Mof_H 	H 	0.2734	0.3909	0.8341	0.05
Mof_C 	C 	0.36153	0.4525	0.8048	-0.046
Mof_C 	C 	0.37839	0.638	0.8568	-0.128
Mof_H 	H 	0.3039	0.6954	0.9221	0.038
Mof_C 	C 	0.38536	0.3544	0.7604	0.099
Mof_C 	C 	0.39978	0.5474	0.8128	0.028
Mof_C 	C 	0.418	0.7427	0.8596	0.45
Mof_C 	C 	0.3709	0.2473	0.7854	-0.147
Mof_C 	C 	0.4229	0.3649	0.693	-0.14
Mof_H 	H 	0.4402	0.5504	0.7884	0.035
Mof_O 	O 	0.42069	0.7968	0.9217	-0.483
Mof_O 	O 	0.4456	0.7653	0.798	-0.495
Mof_H 	H 	0.3463	0.2372	0.8306	0.097
Mof_C 	C 	0.3924	0.1559	0.7445	0.065
Mof_H 	H 	0.4337	0.4357	0.6752	0.088
Mof_C 	C 	0.4444	0.2732	0.6522	0.061
Mof_H 	H 	0.382	0.0852	0.7626	0.008
Mof_C 	C 	0.42922	0.1662	0.6769	-0.114
Mof_H 	H 	0.4694	0.2831	0.6074	0.023
Mof_O 	O 	0.47659	0.0591	0.90265	-0.492
Mof_O 	O 	0.40648	0.9675	0.05517	-0.433
Mof_P 	P 	0.45344	0.0447	0.62255	0.466
Mof_O 	O 	0.44395	0.9464	0.6777	-0.463
Mof_Zn	Zn	0.41245	0.95992	0.9439	1.233
Mof_O 	O 	0.32598	0.9653	0.89608	-0.449
Mof_C 	C 	0.29011	0.0458	0.9146	0.352
Mof_C 	C 	0.22196	0.0439	0.8819	-0.097
Mof_O 	O 	0.30754	0.1253	0.9548	-0.296
Mof_C 	C 	0.19991	0.9529	0.8395	0.012
Mof_C 	C 	0.1822	0.1355	0.8918	0.058
Mof_H 	H 	0.2266	0.8909	0.8341	0.049
Mof_C 	C 	0.13847	0.9525	0.8048	-0.056
Mof_C 	C 	0.12161	0.138	0.8568	-0.14
Mof_H 	H 	0.1961	0.1954	0.9221	0.036
Mof_C 	C 	0.11464	0.8544	0.7604	0.095
Mof_C 	C 	0.10022	0.0474	0.8128	0.036
Mof_C 	C 	0.082	0.2427	0.8596	0.453
Mof_C 	C 	0.1291	0.7473	0.7854	-0.151
Mof_C 	C 	0.0771	0.8649	0.693	-0.147
Mof_H 	H 	0.0598	0.0504	0.7884	0.016
Mof_O 	O 	0.07931	0.2968	0.9217	-0.497
Mof_O 	O 	0.0544	0.2653	0.798	-0.516
Mof_H 	H 	0.1537	0.7372	0.8306	0.095
Mof_C 	C 	0.1076	0.6559	0.7445	0.06
Mof_H 	H 	0.0663	0.9357	0.6752	0.077
Mof_C 	C 	0.0556	0.7732	0.6522	0.053
Mof_H 	H 	0.118	0.5852	0.7626	0.007
Mof_C 	C 	0.07078	0.6662	0.6769	-0.12
Mof_H 	H 	0.0306	0.7831	0.6074	0.007
Mof_O 	O 	0.02341	0.5591	0.90265	-0.548
Mof_O 	O 	0.09352	0.4675	0.05517	-0.435
Mof_P 	P 	0.04656	0.5447	0.62255	0.413
Mof_O 	O 	0.05605	0.4464	0.6777	-0.474
Mof_Zn	Zn	0.08755	0.54008	0.4439	1.231
Mof_O 	O 	0.17402	0.5347	0.39608	-0.447
Mof_C 	C 	0.20989	0.4542	0.4146	0.35
Mof_C 	C 	0.27804	0.4561	0.3819	-0.095
Mof_O 	O 	0.19246	0.3747	0.4548	-0.3
Mof_C 	C 	0.30009	0.5471	0.3395	0.011
Mof_C 	C 	0.3178	0.3645	0.3918	0.054
Mof_H 	H 	0.2734	0.6091	0.3341	0.05
Mof_C 	C 	0.36153	0.5475	0.3048	-0.046
Mof_C 	C 	0.37839	0.362	0.3568	-0.128
Mof_H 	H 	0.3039	0.3046	0.4221	0.038
Mof_C 	C 	0.38536	0.6456	0.2604	0.099
Mof_C 	C 	0.39978	0.4526	0.3128	0.028
Mof_C 	C 	0.418	0.2573	0.3596	0.449
Mof_C 	C 	0.3709	0.7527	0.2854	-0.147
Mof_C 	C 	0.4229	0.6351	0.193	-0.14
Mof_H 	H 	0.4402	0.4496	0.2884	0.035
Mof_O 	O 	0.42069	0.2032	0.4217	-0.483
Mof_O 	O 	0.4456	0.2347	0.298	-0.495
Mof_H 	H 	0.3463	0.7628	0.3306	0.097
Mof_C 	C 	0.3924	0.8441	0.2445	0.065
Mof_H 	H 	0.4337	0.5643	0.1752	0.088
Mof_C 	C 	0.4444	0.7268	0.1522	0.062
Mof_H 	H 	0.382	0.9148	0.2626	0.008
Mof_C 	C 	0.42922	0.8338	0.1769	-0.114
Mof_H 	H 	0.4694	0.7169	0.1074	0.023
Mof_O 	O 	0.47659	0.9409	0.40265	-0.493
Mof_O 	O 	0.40648	0.0325	0.55517	-0.434
Mof_P 	P 	0.45344	0.9553	0.12255	0.467
Mof_O 	O 	0.44395	0.0536	0.1777	-0.464
Mof_Zn	Zn	0.58755	0.95992	0.5561	1.234
Mof_O 	O 	0.67402	0.9653	0.60392	-0.446
Mof_C 	C 	0.70989	0.0458	0.5854	0.348
Mof_C 	C 	0.77804	0.0439	0.6181	-0.087
Mof_O 	O 	0.69246	0.1253	0.5452	-0.295
Mof_C 	C 	0.80009	0.9529	0.6605	0.006
Mof_C 	C 	0.8178	0.1355	0.6082	0.047
Mof_H 	H 	0.7734	0.8909	0.6659	0.052
Mof_C 	C 	0.86153	0.9525	0.6952	-0.036
Mof_C 	C 	0.87839	0.138	0.6432	-0.113
Mof_H 	H 	0.8039	0.1954	0.5779	0.041
Mof_C 	C 	0.88536	0.8544	0.7396	0.103
Mof_C 	C 	0.89978	0.0474	0.6872	0.022
Mof_C 	C 	0.918	0.2427	0.6404	0.443
Mof_C 	C 	0.8709	0.7473	0.7146	-0.141
Mof_C 	C 	0.9229	0.8649	0.807	-0.133
Mof_H 	H 	0.9402	0.0504	0.7116	0.054
Mof_O 	O 	0.92069	0.2968	0.5783	-0.466
Mof_O 	O 	0.9456	0.2653	0.702	-0.463
Mof_H 	H 	0.8463	0.7372	0.6694	0.098
Mof_C 	C 	0.8924	0.6559	0.7555	0.07
Mof_H 	H 	0.9337	0.9357	0.8248	0.099
Mof_C 	C 	0.9444	0.7732	0.8478	0.069
Mof_H 	H 	0.882	0.5852	0.7374	0.01
Mof_C 	C 	0.92922	0.6662	0.8231	-0.107
Mof_H 	H 	0.9694	0.7831	0.8926	0.04
Mof_O 	O 	0.97659	0.5591	0.59735	-0.436
Mof_O 	O 	0.90648	0.4675	0.44483	-0.433
Mof_P 	P 	0.95344	0.5447	0.87745	0.518
Mof_O 	O 	0.94395	0.4464	0.8223	-0.441
Mof_Zn	Zn	0.91245	0.54008	0.0561	1.237
Mof_O 	O 	0.82598	0.5347	0.10392	-0.444
Mof_C 	C 	0.79011	0.4542	0.0854	0.347
Mof_C 	C 	0.72196	0.4561	0.1181	-0.093
Mof_O 	O 	0.80754	0.3747	0.0452	-0.292
Mof_C 	C 	0.69991	0.5471	0.1605	0.01
Mof_C 	C 	0.6822	0.3645	0.1082	0.052
Mof_H 	H 	0.7266	0.6091	0.1659	0.051
Mof_C 	C 	0.63847	0.5475	0.1952	-0.045
Mof_C 	C 	0.62161	0.362	0.1432	-0.127
Mof_H 	H 	0.6961	0.3046	0.0779	0.039
Mof_C 	C 	0.61464	0.6456	0.2396	0.099
Mof_C 	C 	0.60022	0.4526	0.1872	0.027
Mof_C 	C 	0.582	0.2573	0.1404	0.449
Mof_C 	C 	0.6291	0.7527	0.2146	-0.146
Mof_C 	C 	0.5771	0.6351	0.307	-0.14
Mof_H 	H 	0.5598	0.4496	0.2116	0.035
Mof_O 	O 	0.57931	0.2032	0.0783	-0.484
Mof_O 	O 	0.5544	0.2347	0.202	-0.495
Mof_H 	H 	0.6537	0.7628	0.1694	0.096
Mof_C 	C 	0.6076	0.8441	0.2555	0.065
Mof_H 	H 	0.5663	0.5643	0.3248	0.088
Mof_C 	C 	0.5556	0.7268	0.3478	0.061
Mof_H 	H 	0.618	0.9148	0.2374	0.009
Mof_C 	C 	0.57078	0.8338	0.3231	-0.114
Mof_H 	H 	0.5306	0.7169	0.3926	0.024
Mof_O 	O 	0.52341	0.9409	0.09735	-0.493
Mof_O 	O 	0.59352	0.0325	0.94483	-0.432
Mof_P 	P 	0.54656	0.9553	0.37745	0.466
Mof_O 	O 	0.55605	0.0536	0.3223	-0.463
Mof_Zn	Zn	5.26591e-33	0.62251	0.25	1.217
Mof_Zn	Zn	0.5	0.87749	0.75	1.239
Mof_Zn	Zn	8.31634e-33	0.37749	0.75	1.217
Mof_Zn	Zn	0.5	0.12251	0.25	1.239
_end
