data_functionalizedCrystal
_audit_creation_method	'EQeq! by Chris Wilmer'
_symmetry_space_group_name_H-M	'P1'
_symmetry_Int_Tables_number	1
_symmetry_cell_setting	triclinic
loop_
_symmetry_equiv_pos_as_xyz
  x,y,z
_cell_length_a	8.4363
_cell_length_b	13.1485
_cell_length_c	17.833
_cell_angle_alpha	90
_cell_angle_beta	90
_cell_angle_gamma	90
loop_
_atom_site_label
_atom_site_type_symbol
_atom_site_fract_x
_atom_site_fract_y
_atom_site_fract_z
_atom_site_charge
Mof_C 	C 	0.6193	0.0601	0.3699	0.3
Mof_C 	C 	0.682	0.9949	0.4331	-0.052
Mof_C 	C 	0.765	0.0392	0.4912	0.042
Mof_H 	H 	0.7744	0.1097	0.4925	0.041
Mof_C 	C 	0.8343	0.9814	0.5481	-0.112
Mof_H 	H 	0.9003	0.0112	0.5836	0.105
Mof_C 	C 	0.8024	0.8805	0.5498	0.087
Mof_H 	H 	0.8444	0.8413	0.5884	0.035
Mof_C 	C 	0.6555	0.891	0.4393	0.014
Mof_C 	C 	0.5558	0.83	0.3865	0.278
Mof_C 	C 	0.7796	0.3139	0.5731	0.334
Mof_C 	C 	0.6954	0.3834	0.5182	-0.075
Mof_C 	C 	0.614	0.3391	0.4584	0.038
Mof_H 	H 	0.6118	0.2687	0.4536	0.044
Mof_C 	C 	0.537	0.3978	0.4071	-0.12
Mof_H 	H 	0.481	0.3682	0.3679	0.096
Mof_C 	C 	0.5446	0.5023	0.4145	0.076
Mof_H 	H 	0.4935	0.5432	0.3795	0.03
Mof_C 	C 	0.6984	0.4888	0.522	0.012
Mof_C 	C 	0.7845	0.5491	0.5821	0.286
Mof_N 	N 	0.712	0.8352	0.4976	-0.201
Mof_N 	N 	0.6239	0.5458	0.4711	-0.207
Mof_O 	O 	0.6879	0.0536	0.3061	-0.166
Mof_O 	O 	0.5109	0.1197	0.3859	-0.22
Mof_O 	O 	0.4896	0.874	0.3331	-0.179
Mof_O 	O 	0.5444	0.7358	0.4005	-0.348
Mof_O 	O 	0.773	0.6449	0.577	-0.343
Mof_O 	O 	0.8561	0.5056	0.6323	-0.198
Mof_O 	O 	0.9154	0.2852	0.5608	-0.315
Mof_O 	O 	0.6912	0.2832	0.6259	-0.195
Mof_Cu	Cu	0.6465	0.69147	0.49257	0.919
Mof_U 	U 	0.81798	0.17818	0.23286	0.003
Mof_C 	C 	0.3807	0.9399	0.8699	0.289
Mof_C 	C 	0.318	0.0051	0.9331	-0.025
Mof_C 	C 	0.235	0.9608	0.9912	-0.055
Mof_H 	H 	0.2256	0.8903	0.9925	0.057
Mof_C 	C 	0.1657	0.0186	0.0481	-0.024
Mof_H 	H 	0.0997	0.9888	0.0836	0.083
Mof_C 	C 	0.1976	0.1195	0.0498	0.106
Mof_H 	H 	0.1556	0.1587	0.0884	0.036
Mof_C 	C 	0.3445	0.109	0.9393	-0.005
Mof_C 	C 	0.4442	0.17	0.8865	0.282
Mof_C 	C 	0.2204	0.6861	0.0731	0.316
Mof_C 	C 	0.3046	0.6166	0.0182	-0.002
Mof_C 	C 	0.386	0.6609	0.9584	-0.067
Mof_H 	H 	0.3882	0.7313	0.9536	0.068
Mof_C 	C 	0.463	0.6022	0.9071	-0.068
Mof_H 	H 	0.519	0.6318	0.8679	0.075
Mof_C 	C 	0.4554	0.4977	0.9145	0.039
Mof_H 	H 	0.5065	0.4568	0.8795	0.04
Mof_C 	C 	0.3016	0.5112	0.022	0.037
Mof_C 	C 	0.2155	0.4509	0.0821	0.285
Mof_N 	N 	0.288	0.1648	0.9976	-0.225
Mof_N 	N 	0.3761	0.4542	0.9711	-0.23
Mof_O 	O 	0.3121	0.9464	0.8061	-0.165
Mof_O 	O 	0.4891	0.8803	0.8859	-0.223
Mof_O 	O 	0.5104	0.126	0.8331	-0.182
Mof_O 	O 	0.4556	0.2642	0.9005	-0.355
Mof_O 	O 	0.227	0.3551	0.077	-0.324
Mof_O 	O 	0.1439	0.4944	0.1323	-0.198
Mof_O 	O 	0.0846	0.7148	0.0608	-0.289
Mof_O 	O 	0.3088	0.7168	0.1259	-0.185
Mof_Cu	Cu	0.3535	0.30853	0.99257	0.9
Mof_U 	U 	0.18202	0.82182	0.73286	-0
Mof_C 	C 	0.1193	0.9399	0.3699	0.3
Mof_C 	C 	0.182	0.0051	0.4331	-0.054
Mof_C 	C 	0.265	0.9608	0.4912	0.041
Mof_H 	H 	0.2744	0.8903	0.4925	0.041
Mof_C 	C 	0.3343	0.0186	0.5481	-0.11
Mof_H 	H 	0.4003	0.9888	0.5836	0.103
Mof_C 	C 	0.3024	0.1195	0.5498	0.086
Mof_H 	H 	0.3444	0.1587	0.5884	0.035
Mof_C 	C 	0.1555	0.109	0.4393	0.014
Mof_C 	C 	0.0558	0.17	0.3865	0.274
Mof_C 	C 	0.2796	0.6861	0.5731	0.335
Mof_C 	C 	0.1954	0.6166	0.5182	-0.076
Mof_C 	C 	0.114	0.6609	0.4584	0.039
Mof_H 	H 	0.1118	0.7313	0.4536	0.043
Mof_C 	C 	0.037	0.6022	0.4071	-0.122
Mof_H 	H 	0.981	0.6318	0.3679	0.097
Mof_C 	C 	0.0446	0.4977	0.4145	0.072
Mof_H 	H 	0.9935	0.4568	0.3795	0.033
Mof_C 	C 	0.1984	0.5112	0.522	0.012
Mof_C 	C 	0.2845	0.4509	0.5821	0.286
Mof_N 	N 	0.212	0.1648	0.4976	-0.201
Mof_N 	N 	0.1239	0.4542	0.4711	-0.207
Mof_O 	O 	0.1879	0.9464	0.3061	-0.167
Mof_O 	O 	0.0109	0.8803	0.3859	-0.22
Mof_O 	O 	0.9896	0.126	0.3331	-0.176
Mof_O 	O 	0.0444	0.2642	0.4005	-0.349
Mof_O 	O 	0.273	0.3551	0.577	-0.343
Mof_O 	O 	0.3561	0.4944	0.6323	-0.199
Mof_O 	O 	0.4154	0.7148	0.5608	-0.316
Mof_O 	O 	0.1912	0.7168	0.6259	-0.196
Mof_Cu	Cu	0.1465	0.30853	0.49257	0.919
Mof_U 	U 	0.31798	0.82182	0.23286	0.002
Mof_C 	C 	0.8807	0.0601	0.8699	0.289
Mof_C 	C 	0.818	0.9949	0.9331	-0.024
Mof_C 	C 	0.735	0.0392	0.9912	-0.056
Mof_H 	H 	0.7256	0.1097	0.9925	0.058
Mof_C 	C 	0.6657	0.9814	0.0481	-0.02
Mof_H 	H 	0.5997	0.0112	0.0836	0.082
Mof_C 	C 	0.6976	0.8805	0.0498	0.105
Mof_H 	H 	0.6556	0.8413	0.0884	0.037
Mof_C 	C 	0.8445	0.891	0.9393	-0.006
Mof_C 	C 	0.9442	0.83	0.8865	0.283
Mof_C 	C 	0.7204	0.3139	0.0731	0.315
Mof_C 	C 	0.8046	0.3834	0.0182	-0.001
Mof_C 	C 	0.886	0.3391	0.9584	-0.069
Mof_H 	H 	0.8882	0.2687	0.9536	0.069
Mof_C 	C 	0.963	0.3978	0.9071	-0.063
Mof_H 	H 	0.019	0.3682	0.8679	0.072
Mof_C 	C 	0.9554	0.5023	0.9145	0.04
Mof_H 	H 	0.0065	0.5432	0.8795	0.038
Mof_C 	C 	0.8016	0.4888	0.022	0.037
Mof_C 	C 	0.7155	0.5491	0.0821	0.286
Mof_N 	N 	0.788	0.8352	0.9976	-0.224
Mof_N 	N 	0.8761	0.5458	0.9711	-0.229
Mof_O 	O 	0.8121	0.0536	0.8061	-0.164
Mof_O 	O 	0.9891	0.1197	0.8859	-0.222
Mof_O 	O 	0.0104	0.874	0.8331	-0.183
Mof_O 	O 	0.9556	0.7358	0.9005	-0.355
Mof_O 	O 	0.727	0.6449	0.077	-0.323
Mof_O 	O 	0.6439	0.5056	0.1323	-0.197
Mof_O 	O 	0.5846	0.2852	0.0608	-0.288
Mof_O 	O 	0.8088	0.2832	0.1259	-0.184
Mof_Cu	Cu	0.8535	0.69147	0.99257	0.901
Mof_U 	U 	0.68202	0.17818	0.73286	0
_end
