data_functionalizedCrystal
_audit_creation_method	'EQeq! by Chris Wilmer'
_symmetry_space_group_name_H-M	'P1'
_symmetry_Int_Tables_number	1
_symmetry_cell_setting	triclinic
loop_
_symmetry_equiv_pos_as_xyz
  x,y,z
_cell_length_a	12.117
_cell_length_b	12.335
_cell_length_c	13.412
_cell_angle_alpha	101.569
_cell_angle_beta	99.036
_cell_angle_gamma	106.286
loop_
_atom_site_label
_atom_site_type_symbol
_atom_site_fract_x
_atom_site_fract_y
_atom_site_fract_z
_atom_site_charge
Mof_Eu	Eu	0.3264	0.48118	0.45422	2.084
Mof_Eu	Eu	0.6736	0.51882	0.54578	2.084
Mof_H 	H 	0.0433	0.3555	0.1108	0.057
Mof_H 	H 	0.1983	0.6986	0.2076	0.038
Mof_H 	H 	0.8977	0.2772	0.9427	0.059
Mof_H 	H 	0.5929	0.2291	0.543	0.014
Mof_H 	H 	0.2605	0.0572	0.3789	0.021
Mof_H 	H 	0.7191	0.1164	0.6026	0.061
Mof_H 	H 	0.3637	0.4657	0.1336	0.05
Mof_H 	H 	0.713	0.5284	0.2117	0.001
Mof_H 	H 	0.272	0.4583	0.9513	0.072
Mof_H 	H 	0.9567	0.6445	0.8892	0.057
Mof_H 	H 	0.8017	0.3014	0.7924	0.038
Mof_H 	H 	0.1023	0.7228	0.0573	0.059
Mof_H 	H 	0.4071	0.7709	0.457	0.014
Mof_H 	H 	0.7395	0.9428	0.6211	0.021
Mof_H 	H 	0.2809	0.8836	0.3974	0.061
Mof_H 	H 	0.6363	0.5343	0.8664	0.05
Mof_H 	H 	0.287	0.4716	0.7883	0.001
Mof_H 	H 	0.728	0.5417	0.0487	0.072
Mof_C 	C 	0.1908	0.5094	0.2757	0.318
Mof_C 	C 	0.9897	0.4432	0.0066	0.023
Mof_C 	C 	0.0536	0.43	0.1012	-0.052
Mof_C 	C 	0.1264	0.5215	0.1743	-0.066
Mof_C 	C 	0.1457	0.6337	0.1573	-0.002
Mof_C 	C 	0.9123	0.3518	0.9326	-0.093
Mof_C 	C 	0.4085	0.2773	0.456	0.466
Mof_C 	C 	0.5453	0.0513	0.5218	0.012
Mof_C 	C 	0.5309	0.1596	0.5133	-0.002
Mof_C 	C 	0.4255	0.161	0.4612	-0.147
Mof_C 	C 	0.3316	0.0556	0.4157	0.042
Mof_C 	C 	0.6558	0.0477	0.5747	-0.109
Mof_C 	C 	0.5251	0.4959	0.3007	0.488
Mof_C 	C 	0.4439	0.4868	0.0125	0.026
Mof_C 	C 	0.4366	0.4817	0.1157	-0.014
Mof_C 	C 	0.5371	0.5004	0.1896	-0.14
Mof_C 	C 	0.646	0.5201	0.1624	0.058
Mof_C 	C 	0.3457	0.4729	0.9349	-0.121
Mof_C 	C 	0.8092	0.4906	0.7243	0.318
Mof_C 	C 	0.0103	0.5568	0.9934	0.023
Mof_C 	C 	0.9464	0.57	0.8988	-0.052
Mof_C 	C 	0.8736	0.4785	0.8257	-0.066
Mof_C 	C 	0.8543	0.3663	0.8427	-0.002
Mof_C 	C 	0.0877	0.6482	0.0674	-0.093
Mof_C 	C 	0.5915	0.7227	0.544	0.466
Mof_C 	C 	0.4547	0.9487	0.4782	0.012
Mof_C 	C 	0.4691	0.8404	0.4867	-0.002
Mof_C 	C 	0.5745	0.839	0.5388	-0.147
Mof_C 	C 	0.6684	0.9444	0.5843	0.042
Mof_C 	C 	0.3442	0.9523	0.4253	-0.109
Mof_C 	C 	0.4749	0.5041	0.6993	0.488
Mof_C 	C 	0.5561	0.5132	0.9875	0.026
Mof_C 	C 	0.5634	0.5183	0.8843	-0.014
Mof_C 	C 	0.4629	0.4996	0.8104	-0.14
Mof_C 	C 	0.354	0.4799	0.8376	0.058
Mof_C 	C 	0.6543	0.5271	0.0651	-0.121
Mof_O 	O 	0.1693	0.4086	0.2914	-0.45
Mof_O 	O 	0.2629	0.597	0.3388	-0.463
Mof_O 	O 	0.3052	0.2755	0.419	-0.506
Mof_O 	O 	0.4927	0.3686	0.4872	-0.64
Mof_O 	O 	0.4236	0.4627	0.3147	-0.523
Mof_O 	O 	0.6211	0.5245	0.3668	-0.562
Mof_O 	O 	0.8307	0.5914	0.7086	-0.45
Mof_O 	O 	0.7371	0.403	0.6612	-0.463
Mof_O 	O 	0.6948	0.7245	0.581	-0.506
Mof_O 	O 	0.5073	0.6314	0.5128	-0.64
Mof_O 	O 	0.5764	0.5373	0.6853	-0.523
Mof_O 	O 	0.3789	0.4755	0.6332	-0.562
_end
