data_functionalizedCrystal
_audit_creation_method	'EQeq! by Chris Wilmer'
_symmetry_space_group_name_H-M	'P1'
_symmetry_Int_Tables_number	1
_symmetry_cell_setting	triclinic
loop_
_symmetry_equiv_pos_as_xyz
  x,y,z
_cell_length_a	6.5562
_cell_length_b	10.6424
_cell_length_c	18.2951
_cell_angle_alpha	90
_cell_angle_beta	98.07
_cell_angle_gamma	90
loop_
_atom_site_label
_atom_site_type_symbol
_atom_site_fract_x
_atom_site_fract_y
_atom_site_fract_z
_atom_site_charge
Mof_Ca	Ca	0.24775	0.59634	0.52252	1.272
Mof_S 	S 	0.11555	0.79901	0.20973	0.013
Mof_O 	O 	0.0973	0.89788	0.05628	-0.527
Mof_O 	O 	0.4283	0.94056	0.06111	-0.566
Mof_O 	O 	0.3202	0.68166	0.4091	-0.419
Mof_O 	O 	0.9994	0.7115	0.35	-0.314
Mof_C 	C 	0.2761	0.9014	0.0906	0.438
Mof_C 	C 	0.1909	0.7168	0.35471	0.334
Mof_C 	C 	0.4729	0.8142	0.28634	-0.048
Mof_H 	H 	0.583	0.8082	0.3259	0.048
Mof_C 	C 	0.3131	0.8615	0.16868	-0.168
Mof_C 	C 	0.2771	0.7741	0.29075	-0.082
Mof_C 	C 	0.4939	0.8657	0.21642	0.032
Mof_H 	H 	0.6189	0.8993	0.204	-0.008
Mof_Ca	Ca	0.25225	0.09634	0.97748	1.264
Mof_S 	S 	0.38445	0.29901	0.29027	0.01
Mof_O 	O 	0.4027	0.39788	0.44372	-0.53
Mof_O 	O 	0.0717	0.44056	0.43889	-0.568
Mof_O 	O 	0.1798	0.18166	0.0909	-0.416
Mof_O 	O 	0.5006	0.2115	0.15	-0.31
Mof_C 	C 	0.2239	0.4014	0.4094	0.439
Mof_C 	C 	0.3091	0.2168	0.14529	0.331
Mof_C 	C 	0.0271	0.3142	0.21366	-0.047
Mof_H 	H 	0.917	0.3082	0.1741	0.047
Mof_C 	C 	0.1869	0.3615	0.33132	-0.169
Mof_C 	C 	0.2229	0.2741	0.20925	-0.081
Mof_C 	C 	0.0061	0.3657	0.28358	0.034
Mof_H 	H 	0.8811	0.3993	0.296	-0.008
Mof_Ca	Ca	0.75225	0.40366	0.47748	1.271
Mof_S 	S 	0.88445	0.20099	0.79027	0.012
Mof_O 	O 	0.9027	0.10212	0.94372	-0.527
Mof_O 	O 	0.5717	0.05944	0.93889	-0.566
Mof_O 	O 	0.6798	0.31834	0.5909	-0.419
Mof_O 	O 	0.0006	0.2885	0.65	-0.314
Mof_C 	C 	0.7239	0.0986	0.9094	0.438
Mof_C 	C 	0.8091	0.2832	0.64529	0.334
Mof_C 	C 	0.5271	0.1858	0.71366	-0.048
Mof_H 	H 	0.417	0.1918	0.6741	0.048
Mof_C 	C 	0.6869	0.1385	0.83132	-0.168
Mof_C 	C 	0.7229	0.2259	0.70925	-0.082
Mof_C 	C 	0.5061	0.1343	0.78358	0.032
Mof_H 	H 	0.3811	0.1007	0.796	-0.008
Mof_Ca	Ca	0.74775	0.90366	0.02252	1.264
Mof_S 	S 	0.61555	0.70099	0.70973	0.01
Mof_O 	O 	0.5973	0.60212	0.55628	-0.53
Mof_O 	O 	0.9283	0.55944	0.56111	-0.568
Mof_O 	O 	0.8202	0.81834	0.9091	-0.416
Mof_O 	O 	0.4994	0.7885	0.85	-0.31
Mof_C 	C 	0.7761	0.5986	0.5906	0.439
Mof_C 	C 	0.6909	0.7832	0.85471	0.331
Mof_C 	C 	0.9729	0.6858	0.78634	-0.047
Mof_H 	H 	0.083	0.6918	0.8259	0.047
Mof_C 	C 	0.8131	0.6385	0.66868	-0.169
Mof_C 	C 	0.7771	0.7259	0.79075	-0.081
Mof_C 	C 	0.9939	0.6343	0.71642	0.034
Mof_H 	H 	0.1189	0.6007	0.704	-0.008
_end
