data_functionalizedCrystal
_audit_creation_method	'EQeq! by Chris Wilmer'
_symmetry_space_group_name_H-M	'P1'
_symmetry_Int_Tables_number	1
_symmetry_cell_setting	triclinic
loop_
_symmetry_equiv_pos_as_xyz
  x,y,z
_cell_length_a	32.8077
_cell_length_b	35.0306
_cell_length_c	5.7321
_cell_angle_alpha	90
_cell_angle_beta	90
_cell_angle_gamma	90
loop_
_atom_site_label
_atom_site_type_symbol
_atom_site_fract_x
_atom_site_fract_y
_atom_site_fract_z
_atom_site_charge
Mof_O 	O 	0.8072	0.7034	0.737	-0.572
Mof_O 	O 	0.7633	0.7038	0.458	-0.543
Mof_O 	O 	0.6477	0.3	0.792	-0.711
Mof_C 	C 	0.777	0.6888	0.64	0.405
Mof_C 	C 	0.7587	0.6535	0.74	-0.203
Mof_C 	C 	0.7264	0.636	0.628	0.124
Mof_C 	C 	0.7724	0.6397	0.9435	0.146
Mof_C 	C 	0.7085	0.6042	0.728	-0.234
Mof_H 	H 	0.7169	0.6456	0.4867	-0.013
Mof_C 	C 	0.7545	0.6062	0.0392	-0.231
Mof_H 	H 	0.7935	0.6519	0.0217	-0.015
Mof_C 	C 	0.7224	0.5887	0.924	0.163
Mof_H 	H 	0.6859	0.5933	0.655	0.096
Mof_H 	H 	0.7642	0.5961	0.1785	0.099
Mof_C 	C 	0.7045	0.5531	0.031	-0.184
Mof_C 	C 	0.6634	0.54	0.935	-0.145
Mof_H 	H 	0.7016	0.5574	0.1973	0.064
Mof_H 	H 	0.7239	0.5325	0.0105	0.065
Mof_C 	C 	0.662	0.5149	0.75	0.192
Mof_C 	C 	0.628	0.5535	0.042	0.222
Mof_C 	C 	0.7015	0.5011	0.642	-0.669
Mof_C 	C 	0.624	0.5009	0.669	-0.118
Mof_C 	C 	0.5904	0.5381	0.969	-0.142
Mof_C 	C 	0.6295	0.5827	0.235	-0.717
Mof_H 	H 	0.7212	0.5214	0.6448	0.214
Mof_H 	H 	0.6967	0.4934	0.484	0.217
Mof_H 	H 	0.7117	0.4798	0.73	0.211
Mof_C 	C 	0.5882	0.513	0.784	0.19
Mof_C 	C 	0.6209	0.4747	0.463	-0.215
Mof_C 	C 	0.5531	0.5502	0.111	-0.173
Mof_H 	H 	0.6573	0.5901	0.2623	0.235
Mof_H 	H 	0.6184	0.5719	0.375	0.233
Mof_H 	H 	0.6139	0.6047	0.1911	0.235
Mof_C 	C 	0.5469	0.4968	0.716	-0.657
Mof_C 	C 	0.6192	0.4321	0.528	0.22
Mof_H 	H 	0.6441	0.479	0.362	0.082
Mof_H 	H 	0.5965	0.4812	0.3754	0.079
Mof_H 	H 	0.5331	0.5298	0.1035	0.058
Mof_H 	H 	0.5613	0.5529	0.2727	0.066
Mof_C 	C 	0.533	0.5868	0.0347	0.14
Mof_H 	H 	0.5415	0.4742	0.8051	0.214
Mof_H 	H 	0.547	0.4906	0.5526	0.209
Mof_H 	H 	0.5261	0.5155	0.7459	0.209
Mof_C 	C 	0.6363	0.4176	0.725	-0.315
Mof_C 	C 	0.6007	0.4067	0.37	-0.3
Mof_C 	C 	0.5435	0.6056	0.8298	-0.223
Mof_C 	C 	0.5039	0.6024	0.183	-0.228
Mof_H 	H 	0.6479	0.4342	0.8322	0.132
Mof_C 	C 	0.6367	0.3788	0.77	0.253
Mof_C 	C 	0.6014	0.3679	0.417	0.244
Mof_H 	H 	0.5882	0.4159	0.2357	0.127
Mof_H 	H 	0.5629	0.5951	0.7306	0.095
Mof_C 	C 	0.5249	0.64	0.773	0.136
Mof_C 	C 	0.4853	0.6369	0.126	0.127
Mof_H 	H 	0.4968	0.5899	0.3199	0.095
Mof_C 	C 	0.6196	0.3537	0.616	-0.354
Mof_H 	H 	0.6488	0.3697	0.9054	-0.061
Mof_H 	H 	0.5894	0.3511	0.312	-0.056
Mof_H 	H 	0.532	0.6526	0.636	-0.033
Mof_C 	C 	0.4959	0.6557	0.921	-0.245
Mof_H 	H 	0.4659	0.6473	0.2253	-0.032
Mof_C 	C 	0.6193	0.3114	0.6596	0.697
Mof_C 	C 	0.4761	0.6928	0.8728	0.461
Mof_O 	O 	0.5944	0.291	0.567	-0.725
Mof_O 	O 	0.4826	0.7079	0.6508	-0.566
Mof_O 	O 	0.453	0.7083	0.0123	-0.569
Mof_H 	H 	0.9001	0.7441	0.721	0.281
Mof_H 	H 	0.8749	0.7738	0.6286	0.524
Mof_O 	O 	0.6928	0.2966	0.237	-0.573
Mof_O 	O 	0.7367	0.2962	0.958	-0.557
Mof_O 	O 	0.8523	0.7	0.292	-0.713
Mof_C 	C 	0.723	0.3112	0.14	0.438
Mof_C 	C 	0.7413	0.3465	0.24	-0.23
Mof_C 	C 	0.7736	0.364	0.128	0.186
Mof_C 	C 	0.7276	0.3603	0.4435	0.155
Mof_C 	C 	0.7915	0.3958	0.228	-0.273
Mof_H 	H 	0.7831	0.3544	0.9867	-0.044
Mof_C 	C 	0.7455	0.3938	0.5392	-0.24
Mof_H 	H 	0.7065	0.3481	0.5217	-0.014
Mof_C 	C 	0.7776	0.4113	0.424	0.186
Mof_H 	H 	0.8141	0.4067	0.155	0.114
Mof_H 	H 	0.7358	0.4039	0.6785	0.1
Mof_C 	C 	0.7955	0.4469	0.531	-0.204
Mof_C 	C 	0.8366	0.46	0.435	-0.127
Mof_H 	H 	0.7984	0.4426	0.6973	0.068
Mof_H 	H 	0.7761	0.4675	0.5105	0.069
Mof_C 	C 	0.838	0.4851	0.25	0.176
Mof_C 	C 	0.872	0.4465	0.542	0.205
Mof_C 	C 	0.7985	0.4989	0.142	-0.633
Mof_C 	C 	0.876	0.4991	0.169	-0.104
Mof_C 	C 	0.9096	0.4619	0.469	-0.129
Mof_C 	C 	0.8705	0.4173	0.735	-0.691
Mof_H 	H 	0.7788	0.4786	0.1448	0.205
Mof_H 	H 	0.8033	0.5066	0.984	0.202
Mof_H 	H 	0.7883	0.5202	0.23	0.202
Mof_C 	C 	0.9118	0.487	0.284	0.18
Mof_C 	C 	0.8791	0.5253	0.963	-0.225
Mof_C 	C 	0.9469	0.4498	0.611	-0.186
Mof_H 	H 	0.8427	0.4099	0.7623	0.225
Mof_H 	H 	0.8816	0.4281	0.875	0.222
Mof_H 	H 	0.8861	0.3953	0.6911	0.227
Mof_C 	C 	0.9531	0.5032	0.216	-0.646
Mof_C 	C 	0.8808	0.5679	0.028	0.224
Mof_H 	H 	0.8559	0.521	0.862	0.084
Mof_H 	H 	0.9035	0.5188	0.8754	0.081
Mof_H 	H 	0.9669	0.4702	0.6035	0.062
Mof_H 	H 	0.9387	0.4471	0.7727	0.068
Mof_C 	C 	0.967	0.4132	0.5347	0.156
Mof_H 	H 	0.9585	0.5258	0.3051	0.211
Mof_H 	H 	0.953	0.5094	0.0526	0.205
Mof_H 	H 	0.9739	0.4845	0.2459	0.206
Mof_C 	C 	0.8637	0.5824	0.225	-0.324
Mof_C 	C 	0.8993	0.5933	0.87	-0.308
Mof_C 	C 	0.9565	0.3944	0.3298	-0.238
Mof_C 	C 	0.9961	0.3976	0.683	-0.242
Mof_H 	H 	0.8521	0.5658	0.3322	0.137
Mof_C 	C 	0.8633	0.6212	0.27	0.265
Mof_C 	C 	0.8986	0.6321	0.917	0.266
Mof_H 	H 	0.9118	0.5841	0.7357	0.129
Mof_H 	H 	0.9371	0.4049	0.2306	0.103
Mof_C 	C 	0.9751	0.36	0.273	0.147
Mof_C 	C 	0.0147	0.3631	0.626	0.144
Mof_H 	H 	0.0032	0.4101	0.8199	0.097
Mof_C 	C 	0.8804	0.6463	0.116	-0.373
Mof_H 	H 	0.8512	0.6303	0.4054	-0.061
Mof_H 	H 	0.9106	0.6489	0.812	-0.063
Mof_H 	H 	0.968	0.3474	0.136	-0.032
Mof_C 	C 	0.0041	0.3443	0.421	-0.256
Mof_H 	H 	0.0341	0.3527	0.7253	-0.039
Mof_C 	C 	0.8807	0.6886	0.1596	0.702
Mof_C 	C 	0.0239	0.3072	0.3728	0.449
Mof_O 	O 	0.9056	0.709	0.067	-0.729
Mof_O 	O 	0.0174	0.2921	0.1508	-0.552
Mof_O 	O 	0.047	0.2917	0.5123	-0.554
Mof_H 	H 	0.5999	0.2559	0.221	0.279
Mof_H 	H 	0.6251	0.2262	0.1286	0.527
Mof_O 	O 	0.1928	0.2034	0.263	-0.571
Mof_O 	O 	0.2367	0.2038	0.542	-0.542
Mof_O 	O 	0.3523	0.8	0.208	-0.711
Mof_C 	C 	0.223	0.1888	0.36	0.405
Mof_C 	C 	0.2413	0.1535	0.26	-0.203
Mof_C 	C 	0.2736	0.136	0.372	0.125
Mof_C 	C 	0.2276	0.1397	0.0565	0.147
Mof_C 	C 	0.2915	0.1042	0.272	-0.234
Mof_H 	H 	0.2831	0.1456	0.5133	-0.013
Mof_C 	C 	0.2455	0.1062	0.9608	-0.231
Mof_H 	H 	0.2065	0.1519	0.9783	-0.015
Mof_C 	C 	0.2776	0.0887	0.076	0.164
Mof_H 	H 	0.3141	0.0933	0.345	0.097
Mof_H 	H 	0.2358	0.0961	0.8215	0.099
Mof_C 	C 	0.2955	0.0531	0.969	-0.184
Mof_C 	C 	0.3366	0.04	0.065	-0.145
Mof_H 	H 	0.2984	0.0574	0.8027	0.064
Mof_H 	H 	0.2761	0.0325	0.9895	0.065
Mof_C 	C 	0.338	0.0149	0.25	0.192
Mof_C 	C 	0.372	0.0535	0.958	0.222
Mof_C 	C 	0.2985	0.0011	0.358	-0.669
Mof_C 	C 	0.376	0.0009	0.331	-0.118
Mof_C 	C 	0.4096	0.0381	0.031	-0.142
Mof_C 	C 	0.3705	0.0827	0.765	-0.717
Mof_H 	H 	0.2788	0.0214	0.3552	0.214
Mof_H 	H 	0.3033	0.9934	0.516	0.217
Mof_H 	H 	0.2883	0.9798	0.27	0.211
Mof_C 	C 	0.4118	0.013	0.216	0.19
Mof_C 	C 	0.3791	0.9747	0.537	-0.215
Mof_C 	C 	0.4469	0.0502	0.889	-0.173
Mof_H 	H 	0.3427	0.0901	0.7377	0.235
Mof_H 	H 	0.3816	0.0719	0.625	0.233
Mof_H 	H 	0.3861	0.1047	0.8089	0.235
Mof_C 	C 	0.4531	0.9968	0.284	-0.658
Mof_C 	C 	0.3808	0.9321	0.472	0.22
Mof_H 	H 	0.3559	0.979	0.638	0.082
Mof_H 	H 	0.4035	0.9812	0.6246	0.079
Mof_H 	H 	0.4669	0.0298	0.8965	0.058
Mof_H 	H 	0.4387	0.0529	0.7273	0.066
Mof_C 	C 	0.467	0.0868	0.9653	0.14
Mof_H 	H 	0.4585	0.9742	0.1949	0.214
Mof_H 	H 	0.453	0.9906	0.4474	0.209
Mof_H 	H 	0.4739	0.0155	0.2541	0.21
Mof_C 	C 	0.3637	0.9176	0.275	-0.315
Mof_C 	C 	0.3993	0.9067	0.63	-0.3
Mof_C 	C 	0.4565	0.1056	0.1702	-0.223
Mof_C 	C 	0.4961	0.1024	0.817	-0.228
Mof_H 	H 	0.3521	0.9342	0.1678	0.132
Mof_C 	C 	0.3633	0.8788	0.23	0.253
Mof_C 	C 	0.3986	0.8679	0.583	0.244
Mof_H 	H 	0.4118	0.9159	0.7643	0.127
Mof_H 	H 	0.4371	0.0951	0.2694	0.095
Mof_C 	C 	0.4751	0.14	0.227	0.136
Mof_C 	C 	0.5147	0.1369	0.874	0.127
Mof_H 	H 	0.5032	0.0899	0.6801	0.094
Mof_C 	C 	0.3804	0.8537	0.384	-0.354
Mof_H 	H 	0.3512	0.8697	0.0946	-0.061
Mof_H 	H 	0.4106	0.8511	0.688	-0.056
Mof_H 	H 	0.468	0.1526	0.364	-0.033
Mof_C 	C 	0.5041	0.1557	0.079	-0.245
Mof_H 	H 	0.5341	0.1473	0.7747	-0.032
Mof_C 	C 	0.3807	0.8114	0.3404	0.697
Mof_C 	C 	0.5239	0.1928	0.1272	0.461
Mof_O 	O 	0.4056	0.791	0.433	-0.725
Mof_O 	O 	0.5174	0.2079	0.3492	-0.566
Mof_O 	O 	0.547	0.2083	0.9877	-0.569
Mof_H 	H 	0.0999	0.2441	0.279	0.281
Mof_H 	H 	0.1251	0.2738	0.3714	0.524
Mof_O 	O 	0.3072	0.7966	0.763	-0.573
Mof_O 	O 	0.2633	0.7962	0.042	-0.557
Mof_O 	O 	0.1477	0.2	0.708	-0.713
Mof_C 	C 	0.277	0.8112	0.86	0.438
Mof_C 	C 	0.2587	0.8465	0.76	-0.23
Mof_C 	C 	0.2264	0.864	0.872	0.186
Mof_C 	C 	0.2724	0.8603	0.5565	0.155
Mof_C 	C 	0.2085	0.8958	0.772	-0.273
Mof_H 	H 	0.2169	0.8544	0.0133	-0.044
Mof_C 	C 	0.2545	0.8938	0.4608	-0.24
Mof_H 	H 	0.2935	0.8481	0.4783	-0.014
Mof_C 	C 	0.2224	0.9113	0.576	0.186
Mof_H 	H 	0.1859	0.9067	0.845	0.114
Mof_H 	H 	0.2642	0.9039	0.3215	0.1
Mof_C 	C 	0.2045	0.9469	0.469	-0.204
Mof_C 	C 	0.1634	0.96	0.565	-0.127
Mof_H 	H 	0.2016	0.9426	0.3027	0.068
Mof_H 	H 	0.2239	0.9675	0.4895	0.069
Mof_C 	C 	0.162	0.9851	0.75	0.176
Mof_C 	C 	0.128	0.9465	0.458	0.205
Mof_C 	C 	0.2015	0.9989	0.858	-0.633
Mof_C 	C 	0.124	0.9991	0.831	-0.104
Mof_C 	C 	0.0904	0.9619	0.531	-0.129
Mof_C 	C 	0.1295	0.9173	0.265	-0.691
Mof_H 	H 	0.2212	0.9786	0.8552	0.205
Mof_H 	H 	0.1967	0.0066	0.016	0.202
Mof_H 	H 	0.2117	0.0202	0.77	0.202
Mof_C 	C 	0.0882	0.987	0.716	0.18
Mof_C 	C 	0.1209	0.0253	0.037	-0.225
Mof_C 	C 	0.0531	0.9498	0.389	-0.186
Mof_H 	H 	0.1573	0.9099	0.2377	0.225
Mof_H 	H 	0.1184	0.9281	0.125	0.222
Mof_H 	H 	0.1139	0.8953	0.3089	0.227
Mof_C 	C 	0.0469	0.0032	0.784	-0.647
Mof_C 	C 	0.1192	0.0679	0.972	0.224
Mof_H 	H 	0.1441	0.021	0.138	0.084
Mof_H 	H 	0.0965	0.0188	0.1246	0.081
Mof_H 	H 	0.0331	0.9702	0.3965	0.062
Mof_H 	H 	0.0613	0.9471	0.2273	0.068
Mof_C 	C 	0.033	0.9132	0.4653	0.155
Mof_H 	H 	0.0415	0.0258	0.6949	0.211
Mof_H 	H 	0.047	0.0094	0.9474	0.205
Mof_H 	H 	0.0261	0.9845	0.7541	0.206
Mof_C 	C 	0.1363	0.0824	0.775	-0.324
Mof_C 	C 	0.1007	0.0933	0.13	-0.308
Mof_C 	C 	0.0435	0.8944	0.6702	-0.238
Mof_C 	C 	0.0039	0.8976	0.317	-0.241
Mof_H 	H 	0.1479	0.0658	0.6678	0.137
Mof_C 	C 	0.1367	0.1212	0.73	0.265
Mof_C 	C 	0.1014	0.1321	0.083	0.266
Mof_H 	H 	0.0882	0.0841	0.2643	0.129
Mof_H 	H 	0.0629	0.9049	0.7694	0.103
Mof_C 	C 	0.0249	0.86	0.727	0.147
Mof_C 	C 	0.9853	0.8631	0.374	0.144
Mof_H 	H 	0.9968	0.9101	0.1801	0.097
Mof_C 	C 	0.1196	0.1463	0.884	-0.372
Mof_H 	H 	0.1488	0.1303	0.5946	-0.061
Mof_H 	H 	0.0894	0.1489	0.188	-0.063
Mof_H 	H 	0.032	0.8474	0.864	-0.031
Mof_C 	C 	0.9959	0.8443	0.579	-0.256
Mof_H 	H 	0.9659	0.8527	0.2747	-0.039
Mof_C 	C 	0.1193	0.1886	0.8404	0.702
Mof_C 	C 	0.9761	0.8072	0.6272	0.449
Mof_O 	O 	0.0944	0.209	0.933	-0.729
Mof_O 	O 	0.9826	0.7921	0.8492	-0.552
Mof_O 	O 	0.953	0.7917	0.4877	-0.554
Mof_H 	H 	0.4001	0.7559	0.779	0.279
Mof_H 	H 	0.3749	0.7262	0.8714	0.527
Mof_O 	O 	0.1928	0.2966	0.263	-0.571
Mof_O 	O 	0.2367	0.2962	0.542	-0.542
Mof_O 	O 	0.3523	0.7	0.208	-0.711
Mof_C 	C 	0.223	0.3112	0.36	0.405
Mof_C 	C 	0.2413	0.3465	0.26	-0.203
Mof_C 	C 	0.2736	0.364	0.372	0.124
Mof_C 	C 	0.2276	0.3603	0.0565	0.146
Mof_C 	C 	0.2915	0.3958	0.272	-0.234
Mof_H 	H 	0.2831	0.3544	0.5133	-0.013
Mof_C 	C 	0.2455	0.3938	0.9608	-0.231
Mof_H 	H 	0.2065	0.3481	0.9783	-0.015
Mof_C 	C 	0.2776	0.4113	0.076	0.163
Mof_H 	H 	0.3141	0.4067	0.345	0.096
Mof_H 	H 	0.2358	0.4039	0.8215	0.099
Mof_C 	C 	0.2955	0.4469	0.969	-0.184
Mof_C 	C 	0.3366	0.46	0.065	-0.145
Mof_H 	H 	0.2984	0.4426	0.8027	0.064
Mof_H 	H 	0.2761	0.4675	0.9895	0.065
Mof_C 	C 	0.338	0.4851	0.25	0.192
Mof_C 	C 	0.372	0.4465	0.958	0.222
Mof_C 	C 	0.2985	0.4989	0.358	-0.669
Mof_C 	C 	0.376	0.4991	0.331	-0.118
Mof_C 	C 	0.4096	0.4619	0.031	-0.142
Mof_C 	C 	0.3705	0.4173	0.765	-0.717
Mof_H 	H 	0.2788	0.4786	0.3552	0.214
Mof_H 	H 	0.3033	0.5066	0.516	0.217
Mof_H 	H 	0.2883	0.5202	0.27	0.211
Mof_C 	C 	0.4118	0.487	0.216	0.19
Mof_C 	C 	0.3791	0.5253	0.537	-0.215
Mof_C 	C 	0.4469	0.4498	0.889	-0.173
Mof_H 	H 	0.3427	0.4099	0.7377	0.235
Mof_H 	H 	0.3816	0.4281	0.625	0.233
Mof_H 	H 	0.3861	0.3953	0.8089	0.235
Mof_C 	C 	0.4531	0.5032	0.284	-0.657
Mof_C 	C 	0.3808	0.5679	0.472	0.22
Mof_H 	H 	0.3559	0.521	0.638	0.082
Mof_H 	H 	0.4035	0.5188	0.6246	0.079
Mof_H 	H 	0.4669	0.4702	0.8965	0.058
Mof_H 	H 	0.4387	0.4471	0.7273	0.066
Mof_C 	C 	0.467	0.4132	0.9653	0.14
Mof_H 	H 	0.4585	0.5258	0.1949	0.214
Mof_H 	H 	0.453	0.5094	0.4474	0.209
Mof_H 	H 	0.4739	0.4845	0.2541	0.209
Mof_C 	C 	0.3637	0.5824	0.275	-0.315
Mof_C 	C 	0.3993	0.5933	0.63	-0.3
Mof_C 	C 	0.4565	0.3944	0.1702	-0.223
Mof_C 	C 	0.4961	0.3976	0.817	-0.228
Mof_H 	H 	0.3521	0.5658	0.1678	0.132
Mof_C 	C 	0.3633	0.6212	0.23	0.253
Mof_C 	C 	0.3986	0.6321	0.583	0.244
Mof_H 	H 	0.4118	0.5841	0.7643	0.127
Mof_H 	H 	0.4371	0.4049	0.2694	0.095
Mof_C 	C 	0.4751	0.36	0.227	0.136
Mof_C 	C 	0.5147	0.3631	0.874	0.127
Mof_H 	H 	0.5032	0.4101	0.6801	0.095
Mof_C 	C 	0.3804	0.6463	0.384	-0.354
Mof_H 	H 	0.3512	0.6303	0.0946	-0.061
Mof_H 	H 	0.4106	0.6489	0.688	-0.056
Mof_H 	H 	0.468	0.3474	0.364	-0.033
Mof_C 	C 	0.5041	0.3443	0.079	-0.245
Mof_H 	H 	0.5341	0.3527	0.7747	-0.032
Mof_C 	C 	0.3807	0.6886	0.3404	0.697
Mof_C 	C 	0.5239	0.3072	0.1272	0.461
Mof_O 	O 	0.4056	0.709	0.433	-0.725
Mof_O 	O 	0.5174	0.2921	0.3492	-0.566
Mof_O 	O 	0.547	0.2917	0.9877	-0.569
Mof_H 	H 	0.0999	0.2559	0.279	0.281
Mof_H 	H 	0.1251	0.2262	0.3714	0.524
Mof_O 	O 	0.3072	0.7034	0.763	-0.573
Mof_O 	O 	0.2633	0.7038	0.042	-0.557
Mof_O 	O 	0.1477	0.3	0.708	-0.713
Mof_C 	C 	0.277	0.6888	0.86	0.438
Mof_C 	C 	0.2587	0.6535	0.76	-0.23
Mof_C 	C 	0.2264	0.636	0.872	0.186
Mof_C 	C 	0.2724	0.6397	0.5565	0.155
Mof_C 	C 	0.2085	0.6042	0.772	-0.273
Mof_H 	H 	0.2169	0.6456	0.0133	-0.044
Mof_C 	C 	0.2545	0.6062	0.4608	-0.24
Mof_H 	H 	0.2935	0.6519	0.4783	-0.014
Mof_C 	C 	0.2224	0.5887	0.576	0.186
Mof_H 	H 	0.1859	0.5933	0.845	0.114
Mof_H 	H 	0.2642	0.5961	0.3215	0.1
Mof_C 	C 	0.2045	0.5531	0.469	-0.204
Mof_C 	C 	0.1634	0.54	0.565	-0.127
Mof_H 	H 	0.2016	0.5574	0.3027	0.068
Mof_H 	H 	0.2239	0.5325	0.4895	0.069
Mof_C 	C 	0.162	0.5149	0.75	0.176
Mof_C 	C 	0.128	0.5535	0.458	0.205
Mof_C 	C 	0.2015	0.5011	0.858	-0.633
Mof_C 	C 	0.124	0.5009	0.831	-0.104
Mof_C 	C 	0.0904	0.5381	0.531	-0.129
Mof_C 	C 	0.1295	0.5827	0.265	-0.691
Mof_H 	H 	0.2212	0.5214	0.8552	0.205
Mof_H 	H 	0.1967	0.4934	0.016	0.202
Mof_H 	H 	0.2117	0.4798	0.77	0.202
Mof_C 	C 	0.0882	0.513	0.716	0.18
Mof_C 	C 	0.1209	0.4747	0.037	-0.225
Mof_C 	C 	0.0531	0.5502	0.389	-0.186
Mof_H 	H 	0.1573	0.5901	0.2377	0.225
Mof_H 	H 	0.1184	0.5719	0.125	0.222
Mof_H 	H 	0.1139	0.6047	0.3089	0.227
Mof_C 	C 	0.0469	0.4968	0.784	-0.646
Mof_C 	C 	0.1192	0.4321	0.972	0.224
Mof_H 	H 	0.1441	0.479	0.138	0.084
Mof_H 	H 	0.0965	0.4812	0.1246	0.081
Mof_H 	H 	0.0331	0.5298	0.3965	0.062
Mof_H 	H 	0.0613	0.5529	0.2273	0.068
Mof_C 	C 	0.033	0.5868	0.4653	0.156
Mof_H 	H 	0.0415	0.4742	0.6949	0.211
Mof_H 	H 	0.047	0.4906	0.9474	0.205
Mof_H 	H 	0.0261	0.5155	0.7541	0.206
Mof_C 	C 	0.1363	0.4176	0.775	-0.324
Mof_C 	C 	0.1007	0.4067	0.13	-0.308
Mof_C 	C 	0.0435	0.6056	0.6702	-0.238
Mof_C 	C 	0.0039	0.6024	0.317	-0.242
Mof_H 	H 	0.1479	0.4342	0.6678	0.137
Mof_C 	C 	0.1367	0.3788	0.73	0.265
Mof_C 	C 	0.1014	0.3679	0.083	0.266
Mof_H 	H 	0.0882	0.4159	0.2643	0.129
Mof_H 	H 	0.0629	0.5951	0.7694	0.103
Mof_C 	C 	0.0249	0.64	0.727	0.147
Mof_C 	C 	0.9853	0.6369	0.374	0.144
Mof_H 	H 	0.9968	0.5899	0.1801	0.097
Mof_C 	C 	0.1196	0.3537	0.884	-0.373
Mof_H 	H 	0.1488	0.3697	0.5946	-0.061
Mof_H 	H 	0.0894	0.3511	0.188	-0.063
Mof_H 	H 	0.032	0.6526	0.864	-0.032
Mof_C 	C 	0.9959	0.6557	0.579	-0.256
Mof_H 	H 	0.9659	0.6473	0.2747	-0.039
Mof_C 	C 	0.1193	0.3114	0.8404	0.702
Mof_C 	C 	0.9761	0.6928	0.6272	0.449
Mof_O 	O 	0.0944	0.291	0.933	-0.729
Mof_O 	O 	0.9826	0.7079	0.8492	-0.552
Mof_O 	O 	0.953	0.7083	0.4877	-0.554
Mof_H 	H 	0.4001	0.7441	0.779	0.279
Mof_H 	H 	0.3749	0.7738	0.8714	0.527
Mof_O 	O 	0.8072	0.7966	0.737	-0.571
Mof_O 	O 	0.7633	0.7962	0.458	-0.542
Mof_O 	O 	0.6477	0.2	0.792	-0.711
Mof_C 	C 	0.777	0.8112	0.64	0.405
Mof_C 	C 	0.7587	0.8465	0.74	-0.203
Mof_C 	C 	0.7264	0.864	0.628	0.125
Mof_C 	C 	0.7724	0.8603	0.9435	0.147
Mof_C 	C 	0.7085	0.8958	0.728	-0.234
Mof_H 	H 	0.7169	0.8544	0.4867	-0.013
Mof_C 	C 	0.7545	0.8938	0.0392	-0.231
Mof_H 	H 	0.7935	0.8481	0.0217	-0.015
Mof_C 	C 	0.7224	0.9113	0.924	0.164
Mof_H 	H 	0.6859	0.9067	0.655	0.097
Mof_H 	H 	0.7642	0.9039	0.1785	0.099
Mof_C 	C 	0.7045	0.9469	0.031	-0.184
Mof_C 	C 	0.6634	0.96	0.935	-0.145
Mof_H 	H 	0.7016	0.9426	0.1973	0.064
Mof_H 	H 	0.7239	0.9675	0.0105	0.065
Mof_C 	C 	0.662	0.9851	0.75	0.192
Mof_C 	C 	0.628	0.9465	0.042	0.222
Mof_C 	C 	0.7015	0.9989	0.642	-0.669
Mof_C 	C 	0.624	0.9991	0.669	-0.118
Mof_C 	C 	0.5904	0.9619	0.969	-0.142
Mof_C 	C 	0.6295	0.9173	0.235	-0.717
Mof_H 	H 	0.7212	0.9786	0.6448	0.214
Mof_H 	H 	0.6967	0.0066	0.484	0.217
Mof_H 	H 	0.7117	0.0202	0.73	0.211
Mof_C 	C 	0.5882	0.987	0.784	0.19
Mof_C 	C 	0.6209	0.0253	0.463	-0.215
Mof_C 	C 	0.5531	0.9498	0.111	-0.173
Mof_H 	H 	0.6573	0.9099	0.2623	0.235
Mof_H 	H 	0.6184	0.9281	0.375	0.233
Mof_H 	H 	0.6139	0.8953	0.1911	0.235
Mof_C 	C 	0.5469	0.0032	0.716	-0.658
Mof_C 	C 	0.6192	0.0679	0.528	0.22
Mof_H 	H 	0.6441	0.021	0.362	0.082
Mof_H 	H 	0.5965	0.0188	0.3754	0.079
Mof_H 	H 	0.5331	0.9702	0.1035	0.058
Mof_H 	H 	0.5613	0.9471	0.2727	0.066
Mof_C 	C 	0.533	0.9132	0.0347	0.14
Mof_H 	H 	0.5415	0.0258	0.8051	0.214
Mof_H 	H 	0.547	0.0094	0.5526	0.209
Mof_H 	H 	0.5261	0.9845	0.7459	0.21
Mof_C 	C 	0.6363	0.0824	0.725	-0.315
Mof_C 	C 	0.6007	0.0933	0.37	-0.3
Mof_C 	C 	0.5435	0.8944	0.8298	-0.223
Mof_C 	C 	0.5039	0.8976	0.183	-0.228
Mof_H 	H 	0.6479	0.0658	0.8322	0.132
Mof_C 	C 	0.6367	0.1212	0.77	0.253
Mof_C 	C 	0.6014	0.1321	0.417	0.244
Mof_H 	H 	0.5882	0.0841	0.2357	0.127
Mof_H 	H 	0.5629	0.9049	0.7306	0.095
Mof_C 	C 	0.5249	0.86	0.773	0.136
Mof_C 	C 	0.4853	0.8631	0.126	0.127
Mof_H 	H 	0.4968	0.9101	0.3199	0.094
Mof_C 	C 	0.6196	0.1463	0.616	-0.354
Mof_H 	H 	0.6488	0.1303	0.9054	-0.061
Mof_H 	H 	0.5894	0.1489	0.312	-0.056
Mof_H 	H 	0.532	0.8474	0.636	-0.033
Mof_C 	C 	0.4959	0.8443	0.921	-0.245
Mof_H 	H 	0.4659	0.8527	0.2253	-0.032
Mof_C 	C 	0.6193	0.1886	0.6596	0.697
Mof_C 	C 	0.4761	0.8072	0.8728	0.461
Mof_O 	O 	0.5944	0.209	0.567	-0.725
Mof_O 	O 	0.4826	0.7921	0.6508	-0.566
Mof_O 	O 	0.453	0.7917	0.0123	-0.569
Mof_H 	H 	0.9001	0.7559	0.721	0.281
Mof_H 	H 	0.8749	0.7262	0.6286	0.524
Mof_O 	O 	0.6928	0.2034	0.237	-0.573
Mof_O 	O 	0.7367	0.2038	0.958	-0.557
Mof_O 	O 	0.8523	0.8	0.292	-0.713
Mof_C 	C 	0.723	0.1888	0.14	0.438
Mof_C 	C 	0.7413	0.1535	0.24	-0.23
Mof_C 	C 	0.7736	0.136	0.128	0.186
Mof_C 	C 	0.7276	0.1397	0.4435	0.155
Mof_C 	C 	0.7915	0.1042	0.228	-0.273
Mof_H 	H 	0.7831	0.1456	0.9867	-0.044
Mof_C 	C 	0.7455	0.1062	0.5392	-0.24
Mof_H 	H 	0.7065	0.1519	0.5217	-0.014
Mof_C 	C 	0.7776	0.0887	0.424	0.186
Mof_H 	H 	0.8141	0.0933	0.155	0.114
Mof_H 	H 	0.7358	0.0961	0.6785	0.1
Mof_C 	C 	0.7955	0.0531	0.531	-0.204
Mof_C 	C 	0.8366	0.04	0.435	-0.127
Mof_H 	H 	0.7984	0.0574	0.6973	0.068
Mof_H 	H 	0.7761	0.0325	0.5105	0.069
Mof_C 	C 	0.838	0.0149	0.25	0.176
Mof_C 	C 	0.872	0.0535	0.542	0.205
Mof_C 	C 	0.7985	0.0011	0.142	-0.633
Mof_C 	C 	0.876	0.0009	0.169	-0.104
Mof_C 	C 	0.9096	0.0381	0.469	-0.129
Mof_C 	C 	0.8705	0.0827	0.735	-0.691
Mof_H 	H 	0.7788	0.0214	0.1448	0.205
Mof_H 	H 	0.8033	0.9934	0.984	0.202
Mof_H 	H 	0.7883	0.9798	0.23	0.202
Mof_C 	C 	0.9118	0.013	0.284	0.18
Mof_C 	C 	0.8791	0.9747	0.963	-0.225
Mof_C 	C 	0.9469	0.0502	0.611	-0.186
Mof_H 	H 	0.8427	0.0901	0.7623	0.225
Mof_H 	H 	0.8816	0.0719	0.875	0.222
Mof_H 	H 	0.8861	0.1047	0.6911	0.227
Mof_C 	C 	0.9531	0.9968	0.216	-0.647
Mof_C 	C 	0.8808	0.9321	0.028	0.224
Mof_H 	H 	0.8559	0.979	0.862	0.084
Mof_H 	H 	0.9035	0.9812	0.8754	0.081
Mof_H 	H 	0.9669	0.0298	0.6035	0.062
Mof_H 	H 	0.9387	0.0529	0.7727	0.068
Mof_C 	C 	0.967	0.0868	0.5347	0.155
Mof_H 	H 	0.9585	0.9742	0.3051	0.211
Mof_H 	H 	0.953	0.9906	0.0526	0.205
Mof_H 	H 	0.9739	0.0155	0.2459	0.206
Mof_C 	C 	0.8637	0.9176	0.225	-0.324
Mof_C 	C 	0.8993	0.9067	0.87	-0.308
Mof_C 	C 	0.9565	0.1056	0.3298	-0.238
Mof_C 	C 	0.9961	0.1024	0.683	-0.241
Mof_H 	H 	0.8521	0.9342	0.3322	0.137
Mof_C 	C 	0.8633	0.8788	0.27	0.265
Mof_C 	C 	0.8986	0.8679	0.917	0.266
Mof_H 	H 	0.9118	0.9159	0.7357	0.129
Mof_H 	H 	0.9371	0.0951	0.2306	0.103
Mof_C 	C 	0.9751	0.14	0.273	0.147
Mof_C 	C 	0.0147	0.1369	0.626	0.144
Mof_H 	H 	0.0032	0.0899	0.8199	0.097
Mof_C 	C 	0.8804	0.8537	0.116	-0.372
Mof_H 	H 	0.8512	0.8697	0.4054	-0.061
Mof_H 	H 	0.9106	0.8511	0.812	-0.063
Mof_H 	H 	0.968	0.1526	0.136	-0.031
Mof_C 	C 	0.0041	0.1557	0.421	-0.256
Mof_H 	H 	0.0341	0.1473	0.7253	-0.039
Mof_C 	C 	0.8807	0.8114	0.1596	0.702
Mof_C 	C 	0.0239	0.1928	0.3728	0.449
Mof_O 	O 	0.9056	0.791	0.067	-0.729
Mof_O 	O 	0.0174	0.2079	0.1508	-0.552
Mof_O 	O 	0.047	0.2083	0.5123	-0.554
Mof_H 	H 	0.5999	0.2441	0.221	0.279
Mof_H 	H 	0.6251	0.2738	0.1286	0.527
Mof_Eu	Eu	0.81795	0.75	0.4483	2.655
Mof_O 	O 	0.8784	0.75	0.649	-1.66
Mof_Eu	Eu	0.68205	0.25	0.9483	2.622
Mof_O 	O 	0.6216	0.25	0.149	-1.654
Mof_Eu	Eu	0.18205	0.25	0.5517	2.655
Mof_O 	O 	0.1216	0.25	0.351	-1.66
Mof_Eu	Eu	0.31795	0.75	0.0517	2.622
Mof_O 	O 	0.3784	0.75	0.851	-1.654
Mof_Eu	Eu	0.54366	0.25	0.6274	2.38
Mof_Eu	Eu	0.95634	0.75	0.1274	2.344
Mof_Eu	Eu	0.45634	0.75	0.3726	2.38
Mof_Eu	Eu	0.04366	0.25	0.8726	2.344
_end
