data_functionalizedCrystal
_audit_creation_method	'EQeq! by Chris Wilmer'
_symmetry_space_group_name_H-M	'P1'
_symmetry_Int_Tables_number	1
_symmetry_cell_setting	triclinic
loop_
_symmetry_equiv_pos_as_xyz
  x,y,z
_cell_length_a	10.6026
_cell_length_b	10.6026
_cell_length_c	10.9735
_cell_angle_alpha	78.6595
_cell_angle_beta	62.5585
_cell_angle_gamma	108.634
loop_
_atom_site_label
_atom_site_type_symbol
_atom_site_fract_x
_atom_site_fract_y
_atom_site_fract_z
_atom_site_charge
Mof_Nd	Nd	0.44937	0.63595	0.61984	2.298
Mof_Nd	Nd	0.75579	0.06921	0.88016	2.285
Mof_Nd	Nd	0.55063	0.36405	0.38016	2.299
Mof_Nd	Nd	0.24421	0.93079	0.11984	2.286
Mof_H 	H 	0.0349	0.6166	0.6897	0.261
Mof_H 	H 	0.8944	0.5122	0.8578	0.254
Mof_H 	H 	0.8063	0.7246	0.8103	0.262
Mof_H 	H 	0.87	0.7522	0.6422	0.261
Mof_H 	H 	0.9651	0.3834	0.3103	0.261
Mof_H 	H 	0.1056	0.4878	0.1422	0.254
Mof_H 	H 	0.1937	0.2754	0.1897	0.262
Mof_H 	H 	0.13	0.2478	0.3578	0.261
Mof_H 	H 	0.7012	0.4512	0.75	0.141
Mof_H 	H 	0.2988	0.5488	0.25	0.141
Mof_C 	C 	0.0476	0.4307	0.7573	0.746
Mof_C 	C 	0.0073	0.5517	0.7828	-0.843
Mof_C 	C 	0.0951	0.6498	0.8327	0.611
Mof_C 	C 	0.5995	0.3751	0.6256	0.503
Mof_C 	C 	0.688	0.8049	0.7427	0.743
Mof_C 	C 	0.8345	0.7901	0.7172	-0.851
Mof_C 	C 	0.9825	0.9278	0.6673	0.602
Mof_C 	C 	0.5007	0.2251	0.8744	0.503
Mof_C 	C 	0.9524	0.5693	0.2427	0.746
Mof_C 	C 	0.9927	0.4483	0.2172	-0.843
Mof_C 	C 	0.9049	0.3502	0.1673	0.611
Mof_C 	C 	0.4005	0.6249	0.3744	0.503
Mof_C 	C 	0.312	0.1951	0.2573	0.743
Mof_C 	C 	0.1655	0.2099	0.2828	-0.851
Mof_C 	C 	0.0175	0.0722	0.3327	0.602
Mof_C 	C 	0.4993	0.7749	0.1256	0.503
Mof_C 	C 	0.6244	0.3744	0.75	-0.447
Mof_C 	C 	0.3756	0.6256	0.25	-0.447
Mof_O 	O 	0.1845	0.4427	0.7102	-0.645
Mof_O 	O 	0.932	0.3192	0.7858	-0.711
Mof_O 	O 	0.0161	0.6887	0.9272	-0.419
Mof_O 	O 	0.2448	0.692	0.7742	-0.632
Mof_O 	O 	0.5394	0.4499	0.5919	-0.72
Mof_O 	O 	0.6343	0.2938	0.5589	-0.545
Mof_O 	O 	0.6529	0.8947	0.7898	-0.641
Mof_O 	O 	0.605	0.7178	0.7142	-0.707
Mof_O 	O 	0.1159	0.9433	0.5728	-0.418
Mof_O 	O 	0.9662	0.019	0.7258	-0.631
Mof_O 	O 	0.5418	0.1313	0.9081	-0.718
Mof_O 	O 	0.3527	0.1932	0.9411	-0.543
Mof_O 	O 	0.8155	0.5573	0.2898	-0.645
Mof_O 	O 	0.068	0.6808	0.2142	-0.711
Mof_O 	O 	0.9839	0.3113	0.0728	-0.419
Mof_O 	O 	0.7552	0.308	0.2258	-0.632
Mof_O 	O 	0.4606	0.5501	0.4081	-0.72
Mof_O 	O 	0.3657	0.7062	0.4411	-0.545
Mof_O 	O 	0.3471	0.1053	0.2102	-0.641
Mof_O 	O 	0.395	0.2822	0.2858	-0.707
Mof_O 	O 	0.8841	0.0567	0.4272	-0.418
Mof_O 	O 	0.0338	0.981	0.2742	-0.631
Mof_O 	O 	0.4582	0.8687	0.0919	-0.718
Mof_O 	O 	0.6473	0.8068	0.0589	-0.543
_end
