data_functionalizedCrystal
_audit_creation_method	'EQeq! by Chris Wilmer'
_symmetry_space_group_name_H-M	'P1'
_symmetry_Int_Tables_number	1
_symmetry_cell_setting	triclinic
loop_
_symmetry_equiv_pos_as_xyz
  x,y,z
_cell_length_a	10.1045
_cell_length_b	15.4994
_cell_length_c	10.4754
_cell_angle_alpha	90
_cell_angle_beta	102.207
_cell_angle_gamma	90
loop_
_atom_site_label
_atom_site_type_symbol
_atom_site_fract_x
_atom_site_fract_y
_atom_site_fract_z
_atom_site_charge
Mof_Dy	Dy	0.08581	0.0026	0.31094	1.837
Mof_O 	O 	0.9946	0.13152	0.3714	-0.509
Mof_O 	O 	0.90206	0.11347	0.54527	-0.544
Mof_O 	O 	0.72876	0.38294	0.73745	-0.409
Mof_O 	O 	0.6789	0.49292	0.6036	-0.456
Mof_O 	O 	0.7352	0.45239	0.0038	-0.514
Mof_O 	O 	0.6404	0.46371	0.1785	-0.529
Mof_N 	N 	0.8663	0.38184	0.3303	-0.102
Mof_C 	C 	0.9064	0.29866	0.3425	0.101
Mof_H 	H 	0.9457	0.2738	0.2787	0.003
Mof_C 	C 	0.89	0.2503	0.4478	-0.209
Mof_C 	C 	0.8313	0.28849	0.5431	0.109
Mof_H 	H 	0.817	0.2563	0.6139	-0.008
Mof_C 	C 	0.7946	0.37491	0.5314	-0.159
Mof_C 	C 	0.8132	0.42064	0.4233	0.077
Mof_H 	H 	0.7889	0.4786	0.4146	0.009
Mof_C 	C 	0.9332	0.1566	0.4563	0.521
Mof_C 	C 	0.7304	0.41978	0.6308	0.329
Mof_C 	C 	0.875	0.4292	0.2097	-0.337
Mof_H 	H 	0.927	0.3952	0.1599	0.131
Mof_H 	H 	0.9228	0.483	0.2332	0.129
Mof_C 	C 	0.73611	0.44857	0.12414	0.534
Mof_Dy	Dy	0.41419	0.5026	0.18906	1.846
Mof_O 	O 	0.5054	0.63152	0.1286	-0.517
Mof_O 	O 	0.59794	0.61347	0.95473	-0.551
Mof_O 	O 	0.77124	0.88294	0.76255	-0.409
Mof_O 	O 	0.8211	0.99292	0.8964	-0.456
Mof_O 	O 	0.7648	0.95239	0.4962	-0.513
Mof_O 	O 	0.8596	0.96371	0.3215	-0.529
Mof_N 	N 	0.6337	0.88184	0.1697	-0.103
Mof_C 	C 	0.5936	0.79866	0.1575	0.102
Mof_H 	H 	0.5543	0.7738	0.2213	0.002
Mof_C 	C 	0.61	0.7503	0.0522	-0.21
Mof_C 	C 	0.6687	0.78849	0.9569	0.109
Mof_H 	H 	0.683	0.7563	0.8861	-0.01
Mof_C 	C 	0.7054	0.87491	0.9686	-0.163
Mof_C 	C 	0.6868	0.92064	0.0767	0.08
Mof_H 	H 	0.7111	0.9786	0.0854	0.009
Mof_C 	C 	0.5668	0.6566	0.0437	0.524
Mof_C 	C 	0.7696	0.91978	0.8692	0.33
Mof_C 	C 	0.625	0.9292	0.2903	-0.337
Mof_H 	H 	0.573	0.8952	0.3401	0.131
Mof_H 	H 	0.5772	0.983	0.2668	0.129
Mof_C 	C 	0.76389	0.94857	0.37586	0.533
Mof_Dy	Dy	0.91419	0.9974	0.68906	1.836
Mof_O 	O 	0.0054	0.86848	0.6286	-0.51
Mof_O 	O 	0.09794	0.88653	0.45473	-0.544
Mof_O 	O 	0.27124	0.61706	0.26255	-0.409
Mof_O 	O 	0.3211	0.50708	0.3964	-0.456
Mof_O 	O 	0.2648	0.54761	0.9962	-0.514
Mof_O 	O 	0.3596	0.53629	0.8215	-0.529
Mof_N 	N 	0.1337	0.61816	0.6697	-0.102
Mof_C 	C 	0.0936	0.70134	0.6575	0.101
Mof_H 	H 	0.0543	0.7262	0.7213	0.003
Mof_C 	C 	0.11	0.7497	0.5522	-0.209
Mof_C 	C 	0.1687	0.71151	0.4569	0.109
Mof_H 	H 	0.183	0.7437	0.3861	-0.008
Mof_C 	C 	0.2054	0.62509	0.4686	-0.159
Mof_C 	C 	0.1868	0.57936	0.5767	0.077
Mof_H 	H 	0.2111	0.5214	0.5854	0.009
Mof_C 	C 	0.0668	0.8434	0.5437	0.521
Mof_C 	C 	0.2696	0.58022	0.3692	0.329
Mof_C 	C 	0.125	0.5708	0.7903	-0.337
Mof_H 	H 	0.073	0.6048	0.8401	0.131
Mof_H 	H 	0.0772	0.517	0.7668	0.129
Mof_C 	C 	0.26389	0.55143	0.87586	0.534
Mof_Dy	Dy	0.58581	0.4974	0.81094	1.846
Mof_O 	O 	0.4946	0.36848	0.8714	-0.517
Mof_O 	O 	0.40206	0.38653	0.04527	-0.551
Mof_O 	O 	0.22876	0.11706	0.23745	-0.409
Mof_O 	O 	0.1789	0.00708	0.1036	-0.456
Mof_O 	O 	0.2352	0.04761	0.5038	-0.513
Mof_O 	O 	0.1404	0.03629	0.6785	-0.529
Mof_N 	N 	0.3663	0.11816	0.8303	-0.103
Mof_C 	C 	0.4064	0.20134	0.8425	0.102
Mof_H 	H 	0.4457	0.2262	0.7787	0.002
Mof_C 	C 	0.39	0.2497	0.9478	-0.21
Mof_C 	C 	0.3313	0.21151	0.0431	0.109
Mof_H 	H 	0.317	0.2437	0.1139	-0.01
Mof_C 	C 	0.2946	0.12509	0.0314	-0.163
Mof_C 	C 	0.3132	0.07936	0.9233	0.08
Mof_H 	H 	0.2889	0.0214	0.9146	0.009
Mof_C 	C 	0.4332	0.3434	0.9563	0.524
Mof_C 	C 	0.2304	0.08022	0.1308	0.33
Mof_C 	C 	0.375	0.0708	0.7097	-0.337
Mof_H 	H 	0.427	0.1048	0.6599	0.131
Mof_H 	H 	0.4228	0.017	0.7332	0.129
Mof_C 	C 	0.23611	0.05143	0.62414	0.533
_end
