data_functionalizedCrystal
_audit_creation_method	'EQeq! by Chris Wilmer'
_symmetry_space_group_name_H-M	'P1'
_symmetry_Int_Tables_number	1
_symmetry_cell_setting	triclinic
loop_
_symmetry_equiv_pos_as_xyz
  x,y,z
_cell_length_a	7.3206
_cell_length_b	10.1331
_cell_length_c	18.2483
_cell_angle_alpha	90
_cell_angle_beta	90
_cell_angle_gamma	94.681
loop_
_atom_site_label
_atom_site_type_symbol
_atom_site_fract_x
_atom_site_fract_y
_atom_site_fract_z
_atom_site_charge
Mof_Cu	Cu	0.86637	0.21741	0.90708	0.917
Mof_Cu	Cu	0.05051	0.93517	0.93151	0.934
Mof_Cu	Cu	0.63363	0.28259	0.40708	0.916
Mof_Cu	Cu	0.44949	0.56483	0.43151	0.939
Mof_Cu	Cu	0.13363	0.78259	0.09291	0.917
Mof_Cu	Cu	0.94949	0.06483	0.06849	0.934
Mof_Cu	Cu	0.36637	0.71741	0.59291	0.916
Mof_Cu	Cu	0.55051	0.43517	0.56849	0.939
Mof_H 	H 	0.7912	0.1694	0.6944	0.049
Mof_H 	H 	0.9515	0.8006	0.707	0.036
Mof_H 	H 	0.7895	0.9436	0.5129	0.03
Mof_H 	H 	0.7088	0.3306	0.1944	0.046
Mof_H 	H 	0.5485	0.6994	0.207	0.034
Mof_H 	H 	0.7105	0.5564	0.0129	0.03
Mof_H 	H 	0.2088	0.8306	0.3056	0.049
Mof_H 	H 	0.0485	0.1994	0.293	0.036
Mof_H 	H 	0.2105	0.0564	0.4871	0.03
Mof_H 	H 	0.2912	0.6694	0.8056	0.046
Mof_H 	H 	0.4515	0.3006	0.793	0.034
Mof_H 	H 	0.2895	0.4436	0.9871	0.03
Mof_C 	C 	0.8713	0.8532	0.60478	-0.142
Mof_C 	C 	0.781	0.0757	0.59687	-0.125
Mof_C 	C 	0.8127	0.0899	0.67168	0.057
Mof_C 	C 	0.8758	0.988	0.71336	-0.116
Mof_C 	C 	0.9077	0.0109	0.79358	0.377
Mof_C 	C 	0.9073	0.869	0.67998	0.057
Mof_C 	C 	0.8105	0.9551	0.56283	0.06
Mof_C 	C 	0.7102	0.1875	0.55521	0.383
Mof_C 	C 	0.6287	0.6468	0.10478	-0.143
Mof_C 	C 	0.719	0.4243	0.09687	-0.124
Mof_C 	C 	0.6873	0.4101	0.17168	0.065
Mof_C 	C 	0.6242	0.512	0.21336	-0.126
Mof_C 	C 	0.5923	0.4891	0.29358	0.387
Mof_C 	C 	0.5927	0.631	0.17998	0.061
Mof_C 	C 	0.6895	0.5449	0.06283	0.057
Mof_C 	C 	0.7898	0.3125	0.05521	0.379
Mof_C 	C 	0.1287	0.1468	0.39522	-0.142
Mof_C 	C 	0.219	0.9243	0.40313	-0.125
Mof_C 	C 	0.1873	0.9101	0.32832	0.057
Mof_C 	C 	0.1242	0.012	0.28664	-0.116
Mof_C 	C 	0.0923	0.9891	0.20642	0.377
Mof_C 	C 	0.0927	0.131	0.32002	0.057
Mof_C 	C 	0.1895	0.0449	0.43717	0.06
Mof_C 	C 	0.2898	0.8125	0.44479	0.383
Mof_C 	C 	0.3713	0.3532	0.89522	-0.143
Mof_C 	C 	0.281	0.5757	0.90313	-0.124
Mof_C 	C 	0.3127	0.5899	0.82832	0.065
Mof_C 	C 	0.3758	0.488	0.78664	-0.126
Mof_C 	C 	0.4077	0.5109	0.70642	0.387
Mof_C 	C 	0.4073	0.369	0.82002	0.061
Mof_C 	C 	0.3105	0.4551	0.93717	0.057
Mof_C 	C 	0.2102	0.6875	0.94479	0.379
Mof_S 	S 	0.88547	0.69499	0.56628	0.522
Mof_S 	S 	0.61453	0.80501	0.06628	0.52
Mof_S 	S 	0.11453	0.30501	0.43372	0.522
Mof_S 	S 	0.38547	0.19499	0.93372	0.52
Mof_O 	O 	0.9543	0.916	0.83223	-0.376
Mof_O 	O 	0.8681	0.054	0.96483	-0.483
Mof_O 	O 	0.6622	0.1664	0.48971	-0.428
Mof_O 	O 	0.8844	0.1266	0.81506	-0.409
Mof_O 	O 	0.8902	0.7073	0.48742	-0.267
Mof_O 	O 	0.7021	0.2946	0.59044	-0.385
Mof_O 	O 	0.7198	0.6209	0.59345	-0.38
Mof_O 	O 	0.0488	0.6427	0.59723	-0.309
Mof_O 	O 	0.5457	0.584	0.33223	-0.383
Mof_O 	O 	0.6319	0.446	0.46483	-0.485
Mof_O 	O 	0.8378	0.3336	0.98971	-0.424
Mof_O 	O 	0.6156	0.3734	0.31506	-0.412
Mof_O 	O 	0.6098	0.7927	0.98742	-0.268
Mof_O 	O 	0.7979	0.2054	0.09044	-0.386
Mof_O 	O 	0.7802	0.8791	0.09345	-0.378
Mof_O 	O 	0.4512	0.8573	0.09723	-0.306
Mof_O 	O 	0.0457	0.084	0.16777	-0.376
Mof_O 	O 	0.1319	0.946	0.03517	-0.484
Mof_O 	O 	0.3378	0.8336	0.51029	-0.428
Mof_O 	O 	0.1156	0.8734	0.18494	-0.409
Mof_O 	O 	0.1098	0.2927	0.51258	-0.267
Mof_O 	O 	0.2979	0.7054	0.40956	-0.385
Mof_O 	O 	0.2802	0.3791	0.40655	-0.38
Mof_O 	O 	0.9512	0.3573	0.40277	-0.309
Mof_O 	O 	0.4543	0.416	0.66777	-0.383
Mof_O 	O 	0.3681	0.554	0.53517	-0.485
Mof_O 	O 	0.1622	0.6664	0.01029	-0.425
Mof_O 	O 	0.3844	0.6266	0.68494	-0.412
Mof_O 	O 	0.3902	0.2073	0.01258	-0.268
Mof_O 	O 	0.2021	0.7946	0.90956	-0.386
Mof_O 	O 	0.2198	0.1209	0.90655	-0.378
Mof_O 	O 	0.5488	0.1427	0.90277	-0.306
_end
