data_functionalizedCrystal
_audit_creation_method	'EQeq! by Chris Wilmer'
_symmetry_space_group_name_H-M	'P1'
_symmetry_Int_Tables_number	1
_symmetry_cell_setting	triclinic
loop_
_symmetry_equiv_pos_as_xyz
  x,y,z
_cell_length_a	15.214
_cell_length_b	15.214
_cell_length_c	19.686
_cell_angle_alpha	90
_cell_angle_beta	90
_cell_angle_gamma	120
loop_
_atom_site_label
_atom_site_type_symbol
_atom_site_fract_x
_atom_site_fract_y
_atom_site_fract_z
_atom_site_charge
Mof_C 	C 	0.7549	0.5996	0.2585	-0.108
Mof_H 	H 	0.6907	0.5724	0.2392	0.077
Mof_C 	C 	0.7734	0.5454	0.3078	0.05
Mof_H 	H 	0.7216	0.482	0.3215	0.025
Mof_C 	C 	0.8695	0.5861	0.3365	-0.128
Mof_C 	C 	0.9469	0.6808	0.316	0.105
Mof_C 	C 	0.9284	0.735	0.2667	-0.127
Mof_C 	C 	0.8324	0.6944	0.238	0.054
Mof_H 	H 	0.82	0.7306	0.205	0.033
Mof_C 	C 	0.873	0.513	0.378	0.354
Mof_C 	C 	0.006	0.8293	0.2338	0.382
Mof_C 	C 	0.3292	0.9635	0.219	0.105
Mof_H 	H 	0.2854	0.9386	0.256	0.02
Mof_C 	C 	0.4187	0.9616	0.2198	-0.136
Mof_H 	H 	0.4346	0.9341	0.2568	0.093
Mof_C 	C 	0.9348	0.0904	0.992	0.105
Mof_H 	H 	0.9989	0.0968	0.9928	0.02
Mof_C 	C 	0.8821	0.0715	0.0519	-0.144
Mof_H 	H 	0.913	0.0731	0.093	0.113
Mof_C 	C 	0.7802	0.0497	0.0502	0.081
Mof_C 	C 	0.7492	0.0618	0.9906	-0.144
Mof_H 	H 	0.684	0.0522	0.9874	0.096
Mof_C 	C 	0.807	0.0876	0.9325	0.093
Mof_H 	H 	0.7811	0.0965	0.8919	0.026
Mof_C 	C 	0.721	0.0227	0.112	0.099
Mof_N 	N 	0.8989	0.0998	0.9342	-0.151
Mof_N 	N 	0.6356	0.0262	0.1093	-0.135
Mof_O 	O 	0.092	0.8465	0.2315	-0.291
Mof_O 	O 	0.908	0.552	0.43	-0.255
Mof_O 	O 	0.851	0.418	0.387	-0.296
Mof_O 	O 	0.9823	0.8869	0.213	-0.304
Mof_H 	H 	0.41052	0.87951	0.56267	0.152
Mof_C 	C 	0.4004	0.1553	0.92517	-0.114
Mof_H 	H 	0.4276	0.1183	0.90587	0.078
Mof_C 	C 	0.4546	0.228	0.97447	0.053
Mof_H 	H 	0.518	0.2396	0.98817	0.024
Mof_C 	C 	0.4139	0.2834	0.00317	-0.13
Mof_C 	C 	0.3192	0.2661	0.98267	0.104
Mof_C 	C 	0.265	0.1934	0.93337	-0.142
Mof_C 	C 	0.3056	0.138	0.90467	0.061
Mof_H 	H 	0.2694	0.0894	0.87167	0.027
Mof_C 	C 	0.487	0.36	0.04467	0.354
Mof_C 	C 	0.1707	0.1767	0.90047	0.403
Mof_C 	C 	0.0365	0.3657	0.88567	0.097
Mof_H 	H 	0.0614	0.3468	0.92267	0.02
Mof_C 	C 	0.0384	0.4571	0.88647	-0.142
Mof_H 	H 	0.0659	0.5005	0.92347	0.093
Mof_C 	C 	0.9096	0.8444	0.65867	0.106
Mof_H 	H 	0.9032	0.9021	0.65947	0.019
Mof_C 	C 	0.9285	0.8106	0.71857	-0.143
Mof_H 	H 	0.9269	0.8399	0.75967	0.113
Mof_C 	C 	0.9503	0.7305	0.71687	0.08
Mof_C 	C 	0.9382	0.6874	0.65727	-0.142
Mof_H 	H 	0.9478	0.6318	0.65407	0.097
Mof_C 	C 	0.9124	0.7194	0.59917	0.094
Mof_H 	H 	0.9035	0.6846	0.55857	0.026
Mof_C 	C 	0.9773	0.6983	0.77867	0.107
Mof_N 	N 	0.9002	0.7991	0.60087	-0.152
Mof_N 	N 	0.9738	0.6094	0.77597	-0.132
Mof_O 	O 	0.1535	0.2455	0.89817	-0.3
Mof_O 	O 	0.448	0.356	0.09667	-0.257
Mof_O 	O 	0.582	0.433	0.05367	-0.296
Mof_O 	O 	0.1131	0.0954	0.87967	-0.324
Mof_H 	H 	0.12049	0.53101	0.22934	0.15
Mof_C 	C 	0.8447	0.2451	0.59183	-0.116
Mof_H 	H 	0.8817	0.3093	0.57253	0.081
Mof_C 	C 	0.772	0.2266	0.64113	0.056
Mof_H 	H 	0.7604	0.2784	0.65483	0.023
Mof_C 	C 	0.7166	0.1305	0.66983	-0.132
Mof_C 	C 	0.7339	0.0531	0.64933	0.103
Mof_C 	C 	0.8066	0.0716	0.60003	-0.149
Mof_C 	C 	0.862	0.1676	0.57133	0.067
Mof_H 	H 	0.9106	0.18	0.53833	0.028
Mof_C 	C 	0.64	0.127	0.71133	0.354
Mof_C 	C 	0.8233	0.994	0.56713	0.418
Mof_C 	C 	0.6343	0.6708	0.55233	0.101
Mof_H 	H 	0.6532	0.7146	0.58933	0.02
Mof_C 	C 	0.5429	0.5813	0.55313	-0.146
Mof_H 	H 	0.4995	0.5654	0.59013	0.095
Mof_C 	C 	0.1556	0.0652	0.32533	0.105
Mof_H 	H 	0.0979	0.0011	0.32613	0.012
Mof_C 	C 	0.1894	0.1179	0.38523	-0.147
Mof_H 	H 	0.1601	0.087	0.42633	0.109
Mof_C 	C 	0.2695	0.2198	0.38353	0.08
Mof_C 	C 	0.3126	0.2508	0.32393	-0.144
Mof_H 	H 	0.3682	0.316	0.32073	0.096
Mof_C 	C 	0.2806	0.193	0.26583	0.092
Mof_H 	H 	0.3154	0.2189	0.22523	0.026
Mof_C 	C 	0.3017	0.279	0.44533	0.099
Mof_N 	N 	0.2009	0.1011	0.26753	-0.154
Mof_N 	N 	0.3906	0.3644	0.44263	-0.135
Mof_O 	O 	0.7545	0.908	0.56483	-0.303
Mof_O 	O 	0.644	0.092	0.76333	-0.258
Mof_O 	O 	0.567	0.149	0.72033	-0.298
Mof_O 	O 	0.9046	0.0177	0.54633	-0.326
Mof_H 	H 	0.46899	0.58948	0.89601	0.152
Mof_C 	C 	0.5996	0.7549	0.7415	-0.108
Mof_H 	H 	0.5724	0.6907	0.7608	0.077
Mof_C 	C 	0.5454	0.7734	0.6922	0.05
Mof_H 	H 	0.482	0.7216	0.6785	0.025
Mof_C 	C 	0.5861	0.8695	0.6635	-0.128
Mof_C 	C 	0.6808	0.9469	0.684	0.105
Mof_C 	C 	0.735	0.9284	0.7333	-0.127
Mof_C 	C 	0.6944	0.8324	0.762	0.054
Mof_H 	H 	0.7306	0.82	0.795	0.033
Mof_C 	C 	0.513	0.873	0.622	0.354
Mof_C 	C 	0.8293	0.006	0.7662	0.382
Mof_C 	C 	0.9635	0.3292	0.781	0.105
Mof_H 	H 	0.9386	0.2854	0.744	0.02
Mof_C 	C 	0.9616	0.4187	0.7802	-0.136
Mof_H 	H 	0.9341	0.4346	0.7432	0.093
Mof_C 	C 	0.0904	0.9348	0.008	0.105
Mof_H 	H 	0.0968	0.9989	0.0072	0.02
Mof_C 	C 	0.0715	0.8821	0.9481	-0.144
Mof_H 	H 	0.0731	0.913	0.907	0.113
Mof_C 	C 	0.0497	0.7802	0.9498	0.081
Mof_C 	C 	0.0618	0.7492	0.0094	-0.144
Mof_H 	H 	0.0522	0.684	0.0126	0.096
Mof_C 	C 	0.0876	0.807	0.0675	0.093
Mof_H 	H 	0.0965	0.7811	0.1081	0.026
Mof_C 	C 	0.0227	0.721	0.888	0.099
Mof_N 	N 	0.0998	0.8989	0.0658	-0.151
Mof_N 	N 	0.0262	0.6356	0.8907	-0.135
Mof_O 	O 	0.8465	0.092	0.7685	-0.291
Mof_O 	O 	0.552	0.908	0.57	-0.255
Mof_O 	O 	0.418	0.851	0.613	-0.296
Mof_O 	O 	0.8869	0.9823	0.787	-0.304
Mof_H 	H 	0.87951	0.41052	0.43733	0.152
Mof_C 	C 	0.1553	0.4004	0.07483	-0.114
Mof_H 	H 	0.1183	0.4276	0.09413	0.078
Mof_C 	C 	0.228	0.4546	0.02553	0.053
Mof_H 	H 	0.2396	0.518	0.01183	0.024
Mof_C 	C 	0.2834	0.4139	0.99683	-0.13
Mof_C 	C 	0.2661	0.3192	0.01733	0.104
Mof_C 	C 	0.1934	0.265	0.06663	-0.142
Mof_C 	C 	0.138	0.3056	0.09533	0.061
Mof_H 	H 	0.0894	0.2694	0.12833	0.027
Mof_C 	C 	0.36	0.487	0.95533	0.354
Mof_C 	C 	0.1767	0.1707	0.09953	0.403
Mof_C 	C 	0.3657	0.0365	0.11433	0.097
Mof_H 	H 	0.3468	0.0614	0.07733	0.02
Mof_C 	C 	0.4571	0.0384	0.11353	-0.142
Mof_H 	H 	0.5005	0.0659	0.07653	0.093
Mof_C 	C 	0.8444	0.9096	0.34133	0.106
Mof_H 	H 	0.9021	0.9032	0.34053	0.019
Mof_C 	C 	0.8106	0.9285	0.28143	-0.143
Mof_H 	H 	0.8399	0.9269	0.24033	0.113
Mof_C 	C 	0.7305	0.9503	0.28313	0.08
Mof_C 	C 	0.6874	0.9382	0.34273	-0.142
Mof_H 	H 	0.6318	0.9478	0.34593	0.097
Mof_C 	C 	0.7194	0.9124	0.40083	0.094
Mof_H 	H 	0.6846	0.9035	0.44143	0.026
Mof_C 	C 	0.6983	0.9773	0.22133	0.107
Mof_N 	N 	0.7991	0.9002	0.39913	-0.152
Mof_N 	N 	0.6094	0.9738	0.22403	-0.132
Mof_O 	O 	0.2455	0.1535	0.10183	-0.3
Mof_O 	O 	0.356	0.448	0.90333	-0.257
Mof_O 	O 	0.433	0.582	0.94633	-0.296
Mof_O 	O 	0.0954	0.1131	0.12033	-0.324
Mof_H 	H 	0.53101	0.12049	0.77066	0.15
Mof_C 	C 	0.2451	0.8447	0.40817	-0.116
Mof_H 	H 	0.3093	0.8817	0.42747	0.081
Mof_C 	C 	0.2266	0.772	0.35887	0.056
Mof_H 	H 	0.2784	0.7604	0.34517	0.023
Mof_C 	C 	0.1305	0.7166	0.33017	-0.132
Mof_C 	C 	0.0531	0.7339	0.35067	0.103
Mof_C 	C 	0.0716	0.8066	0.39997	-0.149
Mof_C 	C 	0.1676	0.862	0.42867	0.067
Mof_H 	H 	0.18	0.9106	0.46167	0.028
Mof_C 	C 	0.127	0.64	0.28867	0.354
Mof_C 	C 	0.994	0.8233	0.43287	0.418
Mof_C 	C 	0.6708	0.6343	0.44767	0.101
Mof_H 	H 	0.7146	0.6532	0.41067	0.02
Mof_C 	C 	0.5813	0.5429	0.44687	-0.146
Mof_H 	H 	0.5654	0.4995	0.40987	0.095
Mof_C 	C 	0.0652	0.1556	0.67467	0.105
Mof_H 	H 	0.0011	0.0979	0.67387	0.012
Mof_C 	C 	0.1179	0.1894	0.61477	-0.147
Mof_H 	H 	0.087	0.1601	0.57367	0.109
Mof_C 	C 	0.2198	0.2695	0.61647	0.08
Mof_C 	C 	0.2508	0.3126	0.67607	-0.144
Mof_H 	H 	0.316	0.3682	0.67927	0.096
Mof_C 	C 	0.193	0.2806	0.73417	0.092
Mof_H 	H 	0.2189	0.3154	0.77477	0.026
Mof_C 	C 	0.279	0.3017	0.55467	0.099
Mof_N 	N 	0.1011	0.2009	0.73247	-0.154
Mof_N 	N 	0.3644	0.3906	0.55737	-0.135
Mof_O 	O 	0.908	0.7545	0.43517	-0.303
Mof_O 	O 	0.092	0.644	0.23667	-0.258
Mof_O 	O 	0.149	0.567	0.27967	-0.298
Mof_O 	O 	0.0177	0.9046	0.45367	-0.326
Mof_H 	H 	0.58948	0.46899	0.10399	0.152
Mof_C 	C 	0.5805	0	0.16667	0.092
Mof_C 	C 	0.4834	0	0.16667	0.075
Mof_Cd	Cd	0.14365	0	0.16667	0.442
Mof_N 	N 	0.3055	0	0.16667	-0.153
Mof_N 	N 	0.7567	0	0.16667	-0.137
Mof_C 	C 	-1.68132e-17	0.5805	0.83333	0.092
Mof_C 	C 	-4.56227e-17	0.4834	0.83333	0.075
Mof_Cd	Cd	-1.68132e-17	0.14365	0.83333	0.442
Mof_N 	N 	-1.68132e-17	0.3055	0.83333	-0.153
Mof_N 	N 	-1.68132e-17	0.7567	0.83333	-0.137
Mof_C 	C 	0.4195	0.4195	0.5	0.095
Mof_C 	C 	0.5166	0.5166	0.5	0.085
Mof_Cd	Cd	0.85635	0.85635	0.5	0.456
Mof_N 	N 	0.6945	0.6945	0.5	-0.15
Mof_N 	N 	0.2433	0.2433	0.5	-0.134
_end
