data_functionalizedCrystal
_audit_creation_method	'EQeq! by Chris Wilmer'
_symmetry_space_group_name_H-M	'P1'
_symmetry_Int_Tables_number	1
_symmetry_cell_setting	triclinic
loop_
_symmetry_equiv_pos_as_xyz
  x,y,z
_cell_length_a	27.749
_cell_length_b	13.817
_cell_length_c	44.362
_cell_angle_alpha	90
_cell_angle_beta	90
_cell_angle_gamma	90
loop_
_atom_site_label
_atom_site_type_symbol
_atom_site_fract_x
_atom_site_fract_y
_atom_site_fract_z
_atom_site_charge
Mof_Zn	Zn	0.97543	0.62223	0.41516	1.163
Mof_Zn	Zn	0.95265	0.85641	0.58614	1.163
Mof_Zn	Zn	0.76049	0.81829	0.31894	1.165
Mof_I 	I 	0.99435	0.69537	0.46677	-0.392
Mof_I 	I 	0.92598	0.71061	0.37609	-0.371
Mof_I 	I 	0.94594	0.67307	0.58013	-0.382
Mof_I 	I 	0.01748	0.94041	0.61645	-0.365
Mof_I 	I 	0.67129	0.81722	0.33253	-0.374
Mof_I 	I 	0.80415	0.65752	0.31273	-0.373
Mof_C 	C 	0.8021	0.9953	0.34778	0.077
Mof_H 	H 	0.7899	0.0272	0.3304	-0.015
Mof_C 	C 	0.8251	0.05	0.36973	-0.127
Mof_H 	H 	0.8289	0.1178	0.3672	0.086
Mof_C 	C 	0.8144	0.8566	0.37445	0.079
Mof_H 	H 	0.8112	0.7884	0.3762	-0.016
Mof_C 	C 	0.8373	0.9058	0.3973	-0.122
Mof_H 	H 	0.8494	0.8721	0.4143	0.082
Mof_C 	C 	0.8423	0.0047	0.39508	0.066
Mof_C 	C 	0.8672	0.0599	0.41899	0.103
Mof_C 	C 	0.9279	0.8675	0.52095	0.067
Mof_H 	H 	0.923	0.7997	0.523	-0.003
Mof_C 	C 	0.915	0.9114	0.49411	-0.117
Mof_H 	H 	0.9017	0.8747	0.478	0.078
Mof_C 	C 	0.9559	0.012	0.54031	0.068
Mof_H 	H 	0.9715	0.0466	0.556	-0.014
Mof_C 	C 	0.9433	0.0605	0.51432	-0.124
Mof_H 	H 	0.9493	0.128	0.5124	0.092
Mof_C 	C 	0.922	0.0101	0.49123	0.056
Mof_C 	C 	0.9061	0.0613	0.46373	0.095
Mof_C 	C 	0.9454	0.4482	0.45058	0.072
Mof_H 	H 	0.9565	0.4855	0.4672	-0.005
Mof_C 	C 	0.9304	0.355	0.45547	-0.125
Mof_H 	H 	0.9316	0.3282	0.4752	0.091
Mof_C 	C 	0.9277	0.4352	0.40016	0.084
Mof_H 	H 	0.9264	0.4636	0.3807	-0.01
Mof_C 	C 	0.9121	0.3424	0.4034	-0.136
Mof_H 	H 	0.9005	0.3072	0.3865	0.1
Mof_C 	C 	0.9134	0.3001	0.43168	0.057
Mof_C 	C 	0.9002	0.1975	0.43631	0.089
Mof_C 	C 	0.0415	0.5707	0.36491	0.076
Mof_H 	H 	0.012	0.5666	0.3541	-0.011
Mof_C 	C 	0.0837	0.5561	0.34939	-0.119
Mof_H 	H 	0.0833	0.5419	0.3284	0.082
Mof_C 	C 	0.0819	0.5944	0.40941	0.066
Mof_H 	H 	0.0813	0.6068	0.4305	-0.006
Mof_C 	C 	0.1258	0.5812	0.39536	-0.112
Mof_H 	H 	0.1549	0.585	0.4066	0.079
Mof_C 	C 	0.1269	0.5624	0.36487	0.055
Mof_C 	C 	0.1738	0.55	0.34938	0.101
Mof_C 	C 	0.3462	0.6139	0.40978	0.076
Mof_H 	H 	0.347	0.6346	0.4302	-0.017
Mof_C 	C 	0.3018	0.5976	0.39657	-0.121
Mof_H 	H 	0.2728	0.6062	0.4077	0.079
Mof_C 	C 	0.3864	0.5708	0.36666	0.058
Mof_H 	H 	0.416	0.5595	0.3564	-0.009
Mof_C 	C 	0.3442	0.5547	0.3517	-0.114
Mof_H 	H 	0.3445	0.5344	0.3313	0.079
Mof_C 	C 	0.3006	0.5685	0.36668	0.051
Mof_C 	C 	0.2544	0.5537	0.35055	0.104
Mof_C 	C 	0.2668	0.4377	0.23343	0.069
Mof_H 	H 	0.2969	0.4409	0.2232	-0.001
Mof_C 	C 	0.2636	0.477	0.26197	-0.116
Mof_H 	H 	0.2912	0.5047	0.2713	0.082
Mof_C 	C 	0.1872	0.396	0.23381	0.066
Mof_H 	H 	0.1604	0.3677	0.2239	-0.01
Mof_C 	C 	0.1807	0.4351	0.26192	-0.116
Mof_H 	H 	0.1498	0.4345	0.2711	0.08
Mof_C 	C 	0.2202	0.4757	0.27676	0.05
Mof_C 	C 	0.2164	0.5114	0.30782	0.103
Mof_N 	N 	0.79659	0.8993	0.35011	-0.278
Mof_N 	N 	0.94679	0.9166	0.54405	-0.274
Mof_N 	N 	0.94481	0.4886	0.42286	-0.273
Mof_N 	N 	0.88192	0.0097	0.44289	-0.138
Mof_N 	N 	0.9167	0.1545	0.46118	-0.143
Mof_N 	N 	0.87453	0.1545	0.41471	-0.133
Mof_N 	N 	0.0397	0.5903	0.3942	-0.27
Mof_N 	N 	0.38761	0.602	0.39545	-0.274
Mof_N 	N 	0.2301	0.396	0.21977	-0.276
Mof_N 	N 	0.21357	0.5665	0.36545	-0.141
Mof_N 	N 	0.25783	0.5264	0.32164	-0.141
Mof_N 	N 	0.17267	0.522	0.32039	-0.139
Mof_Zn	Zn	0.52457	0.37777	0.91516	1.164
Mof_Zn	Zn	0.54735	0.14359	0.08614	1.164
Mof_Zn	Zn	0.73951	0.18171	0.81894	1.166
Mof_I 	I 	0.50565	0.30463	0.96677	-0.391
Mof_I 	I 	0.57402	0.28939	0.87609	-0.37
Mof_I 	I 	0.55406	0.32693	0.08013	-0.381
Mof_I 	I 	0.48252	0.05959	0.11645	-0.365
Mof_I 	I 	0.82871	0.18278	0.83253	-0.373
Mof_I 	I 	0.69585	0.34248	0.81273	-0.372
Mof_C 	C 	0.6979	0.0047	0.84778	0.081
Mof_H 	H 	0.7101	0.9728	0.8304	-0.016
Mof_C 	C 	0.6749	0.95	0.86973	-0.128
Mof_H 	H 	0.6711	0.8822	0.8672	0.088
Mof_C 	C 	0.6856	0.1434	0.87445	0.08
Mof_H 	H 	0.6888	0.2116	0.8762	-0.015
Mof_C 	C 	0.6627	0.0942	0.8973	-0.12
Mof_H 	H 	0.6506	0.1279	0.9143	0.083
Mof_C 	C 	0.6577	0.9953	0.89508	0.067
Mof_C 	C 	0.6328	0.9401	0.91899	0.103
Mof_C 	C 	0.5721	0.1325	0.02095	0.066
Mof_H 	H 	0.577	0.2003	0.023	-0.003
Mof_C 	C 	0.585	0.0886	0.99411	-0.115
Mof_H 	H 	0.5983	0.1253	0.978	0.078
Mof_C 	C 	0.5441	0.988	0.04031	0.066
Mof_H 	H 	0.5285	0.9534	0.056	-0.013
Mof_C 	C 	0.5567	0.9395	0.01432	-0.122
Mof_H 	H 	0.5507	0.872	0.0124	0.091
Mof_C 	C 	0.578	0.9899	0.99123	0.054
Mof_C 	C 	0.5939	0.9387	0.96373	0.095
Mof_C 	C 	0.5546	0.5518	0.95058	0.072
Mof_H 	H 	0.5435	0.5145	0.9672	-0.005
Mof_C 	C 	0.5696	0.645	0.95547	-0.125
Mof_H 	H 	0.5684	0.6718	0.9752	0.091
Mof_C 	C 	0.5723	0.5648	0.90016	0.084
Mof_H 	H 	0.5736	0.5364	0.8807	-0.01
Mof_C 	C 	0.5879	0.6576	0.9034	-0.136
Mof_H 	H 	0.5995	0.6928	0.8865	0.1
Mof_C 	C 	0.5866	0.6999	0.93168	0.056
Mof_C 	C 	0.5998	0.8025	0.93631	0.089
Mof_C 	C 	0.4585	0.4293	0.86491	0.076
Mof_H 	H 	0.488	0.4334	0.8541	-0.011
Mof_C 	C 	0.4163	0.4439	0.84939	-0.119
Mof_H 	H 	0.4167	0.4581	0.8284	0.082
Mof_C 	C 	0.4181	0.4056	0.90941	0.066
Mof_H 	H 	0.4187	0.3932	0.9305	-0.006
Mof_C 	C 	0.3742	0.4188	0.89536	-0.112
Mof_H 	H 	0.3451	0.415	0.9066	0.079
Mof_C 	C 	0.3731	0.4376	0.86487	0.055
Mof_C 	C 	0.3262	0.45	0.84938	0.101
Mof_C 	C 	0.1538	0.3861	0.90978	0.076
Mof_H 	H 	0.153	0.3654	0.9302	-0.017
Mof_C 	C 	0.1982	0.4024	0.89657	-0.121
Mof_H 	H 	0.2272	0.3938	0.9077	0.079
Mof_C 	C 	0.1136	0.4292	0.86666	0.058
Mof_H 	H 	0.084	0.4405	0.8564	-0.009
Mof_C 	C 	0.1558	0.4453	0.8517	-0.114
Mof_H 	H 	0.1555	0.4656	0.8313	0.079
Mof_C 	C 	0.1994	0.4315	0.86668	0.051
Mof_C 	C 	0.2456	0.4463	0.85055	0.104
Mof_C 	C 	0.2332	0.5623	0.73343	0.069
Mof_H 	H 	0.2031	0.5591	0.7232	-0.001
Mof_C 	C 	0.2364	0.523	0.76197	-0.116
Mof_H 	H 	0.2088	0.4953	0.7713	0.082
Mof_C 	C 	0.3128	0.604	0.73381	0.066
Mof_H 	H 	0.3396	0.6323	0.7239	-0.01
Mof_C 	C 	0.3193	0.5649	0.76192	-0.116
Mof_H 	H 	0.3502	0.5655	0.7711	0.08
Mof_C 	C 	0.2798	0.5243	0.77676	0.05
Mof_C 	C 	0.2836	0.4886	0.80782	0.103
Mof_N 	N 	0.70341	0.1007	0.85011	-0.278
Mof_N 	N 	0.55321	0.0834	0.04405	-0.273
Mof_N 	N 	0.55519	0.5114	0.92286	-0.273
Mof_N 	N 	0.61808	0.9903	0.94289	-0.138
Mof_N 	N 	0.5833	0.8455	0.96118	-0.144
Mof_N 	N 	0.62547	0.8455	0.91471	-0.133
Mof_N 	N 	0.4603	0.4097	0.8942	-0.27
Mof_N 	N 	0.11239	0.398	0.89545	-0.274
Mof_N 	N 	0.2699	0.604	0.71977	-0.276
Mof_N 	N 	0.28643	0.4335	0.86545	-0.141
Mof_N 	N 	0.24217	0.4736	0.82164	-0.141
Mof_N 	N 	0.32733	0.478	0.82039	-0.139
Mof_Zn	Zn	0.02457	0.12223	0.08484	1.164
Mof_Zn	Zn	0.04735	0.35641	0.91386	1.164
Mof_Zn	Zn	0.23951	0.31829	0.18106	1.166
Mof_I 	I 	0.00565	0.19537	0.03323	-0.392
Mof_I 	I 	0.07402	0.21061	0.12391	-0.371
Mof_I 	I 	0.05406	0.17307	0.91987	-0.381
Mof_I 	I 	0.98252	0.44041	0.88355	-0.364
Mof_I 	I 	0.32871	0.31722	0.16747	-0.373
Mof_I 	I 	0.19585	0.15752	0.18727	-0.373
Mof_C 	C 	0.1979	0.4953	0.15222	0.078
Mof_H 	H 	0.2101	0.5272	0.1696	-0.014
Mof_C 	C 	0.1749	0.55	0.13027	-0.126
Mof_H 	H 	0.1711	0.6178	0.1328	0.087
Mof_C 	C 	0.1856	0.3566	0.12555	0.08
Mof_H 	H 	0.1888	0.2884	0.1238	-0.015
Mof_C 	C 	0.1627	0.4058	0.1027	-0.12
Mof_H 	H 	0.1506	0.3721	0.0857	0.083
Mof_C 	C 	0.1577	0.5047	0.10492	0.067
Mof_C 	C 	0.1328	0.5599	0.08101	0.104
Mof_C 	C 	0.0721	0.3675	0.97905	0.066
Mof_H 	H 	0.077	0.2997	0.977	-0.003
Mof_C 	C 	0.085	0.4114	0.00589	-0.115
Mof_H 	H 	0.0983	0.3747	0.022	0.078
Mof_C 	C 	0.0441	0.512	0.95969	0.067
Mof_H 	H 	0.0285	0.5466	0.944	-0.013
Mof_C 	C 	0.0567	0.5605	0.98568	-0.123
Mof_H 	H 	0.0507	0.628	0.9876	0.092
Mof_C 	C 	0.078	0.5101	0.00877	0.055
Mof_C 	C 	0.0939	0.5613	0.03627	0.095
Mof_C 	C 	0.0546	0.9482	0.04942	0.072
Mof_H 	H 	0.0435	0.9855	0.0328	-0.005
Mof_C 	C 	0.0696	0.855	0.04453	-0.125
Mof_H 	H 	0.0684	0.8282	0.0248	0.091
Mof_C 	C 	0.0723	0.9352	0.09984	0.084
Mof_H 	H 	0.0736	0.9636	0.1193	-0.01
Mof_C 	C 	0.0879	0.8424	0.0966	-0.136
Mof_H 	H 	0.0995	0.8072	0.1135	0.1
Mof_C 	C 	0.0866	0.8001	0.06832	0.057
Mof_C 	C 	0.0998	0.6975	0.06369	0.089
Mof_C 	C 	0.9585	0.0707	0.13509	0.076
Mof_H 	H 	0.988	0.0666	0.1459	-0.011
Mof_C 	C 	0.9163	0.0561	0.15061	-0.119
Mof_H 	H 	0.9167	0.0419	0.1716	0.082
Mof_C 	C 	0.9181	0.0944	0.09059	0.066
Mof_H 	H 	0.9187	0.1068	0.0695	-0.006
Mof_C 	C 	0.8742	0.0812	0.10464	-0.112
Mof_H 	H 	0.8451	0.085	0.0934	0.079
Mof_C 	C 	0.8731	0.0624	0.13513	0.055
Mof_C 	C 	0.8262	0.05	0.15062	0.101
Mof_C 	C 	0.6538	0.1139	0.09022	0.076
Mof_H 	H 	0.653	0.1346	0.0698	-0.017
Mof_C 	C 	0.6982	0.0976	0.10343	-0.121
Mof_H 	H 	0.7272	0.1062	0.0923	0.079
Mof_C 	C 	0.6136	0.0708	0.13334	0.058
Mof_H 	H 	0.584	0.0595	0.1436	-0.009
Mof_C 	C 	0.6558	0.0547	0.1483	-0.114
Mof_H 	H 	0.6555	0.0344	0.1687	0.079
Mof_C 	C 	0.6994	0.0685	0.13332	0.051
Mof_C 	C 	0.7456	0.0537	0.14945	0.104
Mof_C 	C 	0.7332	0.9377	0.26657	0.068
Mof_H 	H 	0.7031	0.9409	0.2768	-0.001
Mof_C 	C 	0.7364	0.977	0.23803	-0.116
Mof_H 	H 	0.7088	0.0047	0.2287	0.081
Mof_C 	C 	0.8128	0.896	0.26619	0.065
Mof_H 	H 	0.8396	0.8677	0.2761	-0.01
Mof_C 	C 	0.8193	0.9351	0.23808	-0.116
Mof_H 	H 	0.8502	0.9345	0.2289	0.08
Mof_C 	C 	0.7798	0.9757	0.22324	0.05
Mof_C 	C 	0.7836	0.0114	0.19218	0.103
Mof_N 	N 	0.20341	0.3993	0.14989	-0.278
Mof_N 	N 	0.05321	0.4166	0.95595	-0.273
Mof_N 	N 	0.05519	0.9886	0.07714	-0.273
Mof_N 	N 	0.11808	0.5097	0.05711	-0.138
Mof_N 	N 	0.0833	0.6545	0.03882	-0.144
Mof_N 	N 	0.12547	0.6545	0.08529	-0.133
Mof_N 	N 	0.9603	0.0903	0.1058	-0.27
Mof_N 	N 	0.61239	0.102	0.10455	-0.274
Mof_N 	N 	0.7699	0.896	0.28023	-0.276
Mof_N 	N 	0.78643	0.0665	0.13455	-0.141
Mof_N 	N 	0.74217	0.0264	0.17836	-0.141
Mof_N 	N 	0.82733	0.022	0.17961	-0.139
Mof_Zn	Zn	0.47543	0.87777	0.58484	1.164
Mof_Zn	Zn	0.45265	0.64359	0.41386	1.164
Mof_Zn	Zn	0.26049	0.68171	0.68106	1.166
Mof_I 	I 	0.49435	0.80463	0.53323	-0.391
Mof_I 	I 	0.42598	0.78939	0.62391	-0.37
Mof_I 	I 	0.44594	0.82693	0.41987	-0.38
Mof_I 	I 	0.51748	0.55959	0.38355	-0.365
Mof_I 	I 	0.17129	0.68278	0.66747	-0.373
Mof_I 	I 	0.30415	0.84248	0.68727	-0.373
Mof_C 	C 	0.3021	0.5047	0.65222	0.078
Mof_H 	H 	0.2899	0.4728	0.6696	-0.014
Mof_C 	C 	0.3251	0.45	0.63027	-0.126
Mof_H 	H 	0.3289	0.3822	0.6328	0.087
Mof_C 	C 	0.3144	0.6434	0.62555	0.08
Mof_H 	H 	0.3112	0.7116	0.6238	-0.015
Mof_C 	C 	0.3373	0.5942	0.6027	-0.12
Mof_H 	H 	0.3494	0.6279	0.5857	0.083
Mof_C 	C 	0.3423	0.4953	0.60492	0.067
Mof_C 	C 	0.3672	0.4401	0.58101	0.104
Mof_C 	C 	0.4279	0.6325	0.47905	0.066
Mof_H 	H 	0.423	0.7003	0.477	-0.003
Mof_C 	C 	0.415	0.5886	0.50589	-0.115
Mof_H 	H 	0.4017	0.6253	0.522	0.078
Mof_C 	C 	0.4559	0.488	0.45969	0.067
Mof_H 	H 	0.4715	0.4534	0.444	-0.013
Mof_C 	C 	0.4433	0.4395	0.48568	-0.123
Mof_H 	H 	0.4493	0.372	0.4876	0.091
Mof_C 	C 	0.422	0.4899	0.50877	0.055
Mof_C 	C 	0.4061	0.4387	0.53627	0.095
Mof_C 	C 	0.4454	0.0518	0.54942	0.072
Mof_H 	H 	0.4565	0.0145	0.5328	-0.005
Mof_C 	C 	0.4304	0.145	0.54453	-0.125
Mof_H 	H 	0.4316	0.1718	0.5248	0.091
Mof_C 	C 	0.4277	0.0648	0.59984	0.084
Mof_H 	H 	0.4264	0.0364	0.6193	-0.01
Mof_C 	C 	0.4121	0.1576	0.5966	-0.136
Mof_H 	H 	0.4005	0.1928	0.6135	0.1
Mof_C 	C 	0.4134	0.1999	0.56832	0.056
Mof_C 	C 	0.4002	0.3025	0.56369	0.089
Mof_C 	C 	0.5415	0.9293	0.63509	0.076
Mof_H 	H 	0.512	0.9334	0.6459	-0.011
Mof_C 	C 	0.5837	0.9439	0.65061	-0.119
Mof_H 	H 	0.5833	0.9581	0.6716	0.081
Mof_C 	C 	0.5819	0.9056	0.59059	0.066
Mof_H 	H 	0.5813	0.8932	0.5695	-0.006
Mof_C 	C 	0.6258	0.9188	0.60464	-0.112
Mof_H 	H 	0.6549	0.915	0.5934	0.079
Mof_C 	C 	0.6269	0.9376	0.63513	0.055
Mof_C 	C 	0.6738	0.95	0.65062	0.101
Mof_C 	C 	0.8462	0.8861	0.59022	0.076
Mof_H 	H 	0.847	0.8654	0.5698	-0.017
Mof_C 	C 	0.8018	0.9024	0.60343	-0.121
Mof_H 	H 	0.7728	0.8938	0.5923	0.079
Mof_C 	C 	0.8864	0.9292	0.63334	0.058
Mof_H 	H 	0.916	0.9405	0.6436	-0.009
Mof_C 	C 	0.8442	0.9453	0.6483	-0.115
Mof_H 	H 	0.8445	0.9656	0.6687	0.079
Mof_C 	C 	0.8006	0.9315	0.63332	0.051
Mof_C 	C 	0.7544	0.9463	0.64945	0.104
Mof_C 	C 	0.7668	0.0623	0.76657	0.068
Mof_H 	H 	0.7969	0.0591	0.7768	-0.001
Mof_C 	C 	0.7636	0.023	0.73803	-0.114
Mof_H 	H 	0.7912	0.9953	0.7287	0.08
Mof_C 	C 	0.6872	0.104	0.76619	0.066
Mof_H 	H 	0.6604	0.1323	0.7761	-0.01
Mof_C 	C 	0.6807	0.0649	0.73808	-0.116
Mof_H 	H 	0.6498	0.0655	0.7289	0.08
Mof_C 	C 	0.7202	0.0243	0.72324	0.051
Mof_C 	C 	0.7164	0.9886	0.69218	0.103
Mof_N 	N 	0.29659	0.6007	0.64989	-0.278
Mof_N 	N 	0.44679	0.5834	0.45595	-0.273
Mof_N 	N 	0.44481	0.0114	0.57714	-0.273
Mof_N 	N 	0.38192	0.4903	0.55711	-0.138
Mof_N 	N 	0.4167	0.3455	0.53882	-0.144
Mof_N 	N 	0.37453	0.3455	0.58529	-0.133
Mof_N 	N 	0.5397	0.9097	0.6058	-0.27
Mof_N 	N 	0.88761	0.898	0.60455	-0.274
Mof_N 	N 	0.7301	0.104	0.78023	-0.276
Mof_N 	N 	0.71357	0.9335	0.63455	-0.141
Mof_N 	N 	0.75783	0.9736	0.67836	-0.141
Mof_N 	N 	0.67267	0.978	0.67961	-0.139
Mof_Zn	Zn	0.02457	0.37777	0.58484	1.164
Mof_Zn	Zn	0.04735	0.14359	0.41386	1.164
Mof_Zn	Zn	0.23951	0.18171	0.68106	1.166
Mof_I 	I 	0.00565	0.30463	0.53323	-0.391
Mof_I 	I 	0.07402	0.28939	0.62391	-0.37
Mof_I 	I 	0.05406	0.32693	0.41987	-0.381
Mof_I 	I 	0.98252	0.05959	0.38355	-0.364
Mof_I 	I 	0.32871	0.18278	0.66747	-0.373
Mof_I 	I 	0.19585	0.34248	0.68727	-0.372
Mof_C 	C 	0.1979	0.0047	0.65222	0.078
Mof_H 	H 	0.2101	0.9728	0.6696	-0.014
Mof_C 	C 	0.1749	0.95	0.63027	-0.126
Mof_H 	H 	0.1711	0.8822	0.6328	0.087
Mof_C 	C 	0.1856	0.1434	0.62555	0.08
Mof_H 	H 	0.1888	0.2116	0.6238	-0.015
Mof_C 	C 	0.1627	0.0942	0.6027	-0.121
Mof_H 	H 	0.1506	0.1279	0.5857	0.083
Mof_C 	C 	0.1577	0.9953	0.60492	0.067
Mof_C 	C 	0.1328	0.9401	0.58101	0.103
Mof_C 	C 	0.0721	0.1325	0.47905	0.067
Mof_H 	H 	0.077	0.2003	0.477	-0.003
Mof_C 	C 	0.085	0.0886	0.50589	-0.117
Mof_H 	H 	0.0983	0.1253	0.522	0.078
Mof_C 	C 	0.0441	0.988	0.45969	0.068
Mof_H 	H 	0.0285	0.9534	0.444	-0.014
Mof_C 	C 	0.0567	0.9395	0.48568	-0.124
Mof_H 	H 	0.0507	0.872	0.4876	0.092
Mof_C 	C 	0.078	0.9899	0.50877	0.056
Mof_C 	C 	0.0939	0.9387	0.53627	0.095
Mof_C 	C 	0.0546	0.5518	0.54942	0.072
Mof_H 	H 	0.0435	0.5145	0.5328	-0.005
Mof_C 	C 	0.0696	0.645	0.54453	-0.125
Mof_H 	H 	0.0684	0.6718	0.5248	0.091
Mof_C 	C 	0.0723	0.5648	0.59984	0.084
Mof_H 	H 	0.0736	0.5364	0.6193	-0.01
Mof_C 	C 	0.0879	0.6576	0.5966	-0.136
Mof_H 	H 	0.0995	0.6928	0.6135	0.1
Mof_C 	C 	0.0866	0.6999	0.56832	0.057
Mof_C 	C 	0.0998	0.8025	0.56369	0.089
Mof_C 	C 	0.9585	0.4293	0.63509	0.076
Mof_H 	H 	0.988	0.4334	0.6459	-0.011
Mof_C 	C 	0.9163	0.4439	0.65061	-0.119
Mof_H 	H 	0.9167	0.4581	0.6716	0.082
Mof_C 	C 	0.9181	0.4056	0.59059	0.066
Mof_H 	H 	0.9187	0.3932	0.5695	-0.006
Mof_C 	C 	0.8742	0.4188	0.60464	-0.112
Mof_H 	H 	0.8451	0.415	0.5934	0.079
Mof_C 	C 	0.8731	0.4376	0.63513	0.055
Mof_C 	C 	0.8262	0.45	0.65062	0.101
Mof_C 	C 	0.6538	0.3861	0.59022	0.076
Mof_H 	H 	0.653	0.3654	0.5698	-0.017
Mof_C 	C 	0.6982	0.4024	0.60343	-0.121
Mof_H 	H 	0.7272	0.3938	0.5923	0.079
Mof_C 	C 	0.6136	0.4292	0.63334	0.058
Mof_H 	H 	0.584	0.4405	0.6436	-0.009
Mof_C 	C 	0.6558	0.4453	0.6483	-0.114
Mof_H 	H 	0.6555	0.4656	0.6687	0.079
Mof_C 	C 	0.6994	0.4315	0.63332	0.051
Mof_C 	C 	0.7456	0.4463	0.64945	0.104
Mof_C 	C 	0.7332	0.5623	0.76657	0.069
Mof_H 	H 	0.7031	0.5591	0.7768	-0.001
Mof_C 	C 	0.7364	0.523	0.73803	-0.116
Mof_H 	H 	0.7088	0.4953	0.7287	0.082
Mof_C 	C 	0.8128	0.604	0.76619	0.066
Mof_H 	H 	0.8396	0.6323	0.7761	-0.01
Mof_C 	C 	0.8193	0.5649	0.73808	-0.116
Mof_H 	H 	0.8502	0.5655	0.7289	0.08
Mof_C 	C 	0.7798	0.5243	0.72324	0.05
Mof_C 	C 	0.7836	0.4886	0.69218	0.103
Mof_N 	N 	0.20341	0.1007	0.64989	-0.278
Mof_N 	N 	0.05321	0.0834	0.45595	-0.274
Mof_N 	N 	0.05519	0.5114	0.57714	-0.273
Mof_N 	N 	0.11808	0.9903	0.55711	-0.138
Mof_N 	N 	0.0833	0.8455	0.53882	-0.143
Mof_N 	N 	0.12547	0.8455	0.58529	-0.133
Mof_N 	N 	0.9603	0.4097	0.6058	-0.27
Mof_N 	N 	0.61239	0.398	0.60455	-0.274
Mof_N 	N 	0.7699	0.604	0.78023	-0.276
Mof_N 	N 	0.78643	0.4335	0.63455	-0.141
Mof_N 	N 	0.74217	0.4736	0.67836	-0.141
Mof_N 	N 	0.82733	0.478	0.67961	-0.139
Mof_Zn	Zn	0.47543	0.62223	0.08484	1.164
Mof_Zn	Zn	0.45265	0.85641	0.91386	1.164
Mof_Zn	Zn	0.26049	0.81829	0.18106	1.166
Mof_I 	I 	0.49435	0.69537	0.03323	-0.391
Mof_I 	I 	0.42598	0.71061	0.12391	-0.37
Mof_I 	I 	0.44594	0.67307	0.91987	-0.381
Mof_I 	I 	0.51748	0.94041	0.88355	-0.365
Mof_I 	I 	0.17129	0.81722	0.16747	-0.373
Mof_I 	I 	0.30415	0.65752	0.18727	-0.372
Mof_C 	C 	0.3021	0.9953	0.15222	0.081
Mof_H 	H 	0.2899	0.0272	0.1696	-0.016
Mof_C 	C 	0.3251	0.05	0.13027	-0.128
Mof_H 	H 	0.3289	0.1178	0.1328	0.088
Mof_C 	C 	0.3144	0.8566	0.12555	0.08
Mof_H 	H 	0.3112	0.7884	0.1238	-0.015
Mof_C 	C 	0.3373	0.9058	0.1027	-0.12
Mof_H 	H 	0.3494	0.8721	0.0857	0.083
Mof_C 	C 	0.3423	0.0047	0.10492	0.067
Mof_C 	C 	0.3672	0.0599	0.08101	0.103
Mof_C 	C 	0.4279	0.8675	0.97905	0.066
Mof_H 	H 	0.423	0.7997	0.977	-0.003
Mof_C 	C 	0.415	0.9114	0.00589	-0.115
Mof_H 	H 	0.4017	0.8747	0.022	0.078
Mof_C 	C 	0.4559	0.012	0.95969	0.066
Mof_H 	H 	0.4715	0.0466	0.944	-0.013
Mof_C 	C 	0.4433	0.0605	0.98568	-0.122
Mof_H 	H 	0.4493	0.128	0.9876	0.091
Mof_C 	C 	0.422	0.0101	0.00877	0.054
Mof_C 	C 	0.4061	0.0613	0.03627	0.095
Mof_C 	C 	0.4454	0.4482	0.04942	0.072
Mof_H 	H 	0.4565	0.4855	0.0328	-0.005
Mof_C 	C 	0.4304	0.355	0.04453	-0.125
Mof_H 	H 	0.4316	0.3282	0.0248	0.091
Mof_C 	C 	0.4277	0.4352	0.09984	0.084
Mof_H 	H 	0.4264	0.4636	0.1193	-0.01
Mof_C 	C 	0.4121	0.3424	0.0966	-0.136
Mof_H 	H 	0.4005	0.3072	0.1135	0.1
Mof_C 	C 	0.4134	0.3001	0.06832	0.056
Mof_C 	C 	0.4002	0.1975	0.06369	0.089
Mof_C 	C 	0.5415	0.5707	0.13509	0.076
Mof_H 	H 	0.512	0.5666	0.1459	-0.011
Mof_C 	C 	0.5837	0.5561	0.15061	-0.119
Mof_H 	H 	0.5833	0.5419	0.1716	0.082
Mof_C 	C 	0.5819	0.5944	0.09059	0.066
Mof_H 	H 	0.5813	0.6068	0.0695	-0.006
Mof_C 	C 	0.6258	0.5812	0.10464	-0.112
Mof_H 	H 	0.6549	0.585	0.0934	0.079
Mof_C 	C 	0.6269	0.5624	0.13513	0.055
Mof_C 	C 	0.6738	0.55	0.15062	0.101
Mof_C 	C 	0.8462	0.6139	0.09022	0.076
Mof_H 	H 	0.847	0.6346	0.0698	-0.017
Mof_C 	C 	0.8018	0.5976	0.10343	-0.121
Mof_H 	H 	0.7728	0.6062	0.0923	0.079
Mof_C 	C 	0.8864	0.5708	0.13334	0.058
Mof_H 	H 	0.916	0.5595	0.1436	-0.009
Mof_C 	C 	0.8442	0.5547	0.1483	-0.114
Mof_H 	H 	0.8445	0.5344	0.1687	0.079
Mof_C 	C 	0.8006	0.5685	0.13332	0.051
Mof_C 	C 	0.7544	0.5537	0.14945	0.104
Mof_C 	C 	0.7668	0.4377	0.26657	0.069
Mof_H 	H 	0.7969	0.4409	0.2768	-0.001
Mof_C 	C 	0.7636	0.477	0.23803	-0.116
Mof_H 	H 	0.7912	0.5047	0.2287	0.082
Mof_C 	C 	0.6872	0.396	0.26619	0.066
Mof_H 	H 	0.6604	0.3677	0.2761	-0.01
Mof_C 	C 	0.6807	0.4351	0.23808	-0.116
Mof_H 	H 	0.6498	0.4345	0.2289	0.08
Mof_C 	C 	0.7202	0.4757	0.22324	0.05
Mof_C 	C 	0.7164	0.5114	0.19218	0.103
Mof_N 	N 	0.29659	0.8993	0.14989	-0.278
Mof_N 	N 	0.44679	0.9166	0.95595	-0.273
Mof_N 	N 	0.44481	0.4886	0.07714	-0.273
Mof_N 	N 	0.38192	0.0097	0.05711	-0.138
Mof_N 	N 	0.4167	0.1545	0.03882	-0.144
Mof_N 	N 	0.37453	0.1545	0.08529	-0.133
Mof_N 	N 	0.5397	0.5903	0.1058	-0.27
Mof_N 	N 	0.88761	0.602	0.10455	-0.274
Mof_N 	N 	0.7301	0.396	0.28023	-0.276
Mof_N 	N 	0.71357	0.5665	0.13455	-0.141
Mof_N 	N 	0.75783	0.5264	0.17836	-0.141
Mof_N 	N 	0.67267	0.522	0.17961	-0.139
Mof_Zn	Zn	0.97543	0.87777	0.91516	1.164
Mof_Zn	Zn	0.95265	0.64359	0.08614	1.164
Mof_Zn	Zn	0.76049	0.68171	0.81894	1.166
Mof_I 	I 	0.99435	0.80463	0.96677	-0.392
Mof_I 	I 	0.92598	0.78939	0.87609	-0.371
Mof_I 	I 	0.94594	0.82693	0.08013	-0.381
Mof_I 	I 	0.01748	0.55959	0.11645	-0.364
Mof_I 	I 	0.67129	0.68278	0.83253	-0.373
Mof_I 	I 	0.80415	0.84248	0.81273	-0.373
Mof_C 	C 	0.8021	0.5047	0.84778	0.078
Mof_H 	H 	0.7899	0.4728	0.8304	-0.014
Mof_C 	C 	0.8251	0.45	0.86973	-0.126
Mof_H 	H 	0.8289	0.3822	0.8672	0.087
Mof_C 	C 	0.8144	0.6434	0.87445	0.08
Mof_H 	H 	0.8112	0.7116	0.8762	-0.015
Mof_C 	C 	0.8373	0.5942	0.8973	-0.12
Mof_H 	H 	0.8494	0.6279	0.9143	0.083
Mof_C 	C 	0.8423	0.4953	0.89508	0.067
Mof_C 	C 	0.8672	0.4401	0.91899	0.104
Mof_C 	C 	0.9279	0.6325	0.02095	0.066
Mof_H 	H 	0.923	0.7003	0.023	-0.003
Mof_C 	C 	0.915	0.5886	0.99411	-0.115
Mof_H 	H 	0.9017	0.6253	0.978	0.078
Mof_C 	C 	0.9559	0.488	0.04031	0.067
Mof_H 	H 	0.9715	0.4534	0.056	-0.013
Mof_C 	C 	0.9433	0.4395	0.01432	-0.123
Mof_H 	H 	0.9493	0.372	0.0124	0.092
Mof_C 	C 	0.922	0.4899	0.99123	0.055
Mof_C 	C 	0.9061	0.4387	0.96373	0.095
Mof_C 	C 	0.9454	0.0518	0.95058	0.072
Mof_H 	H 	0.9565	0.0145	0.9672	-0.005
Mof_C 	C 	0.9304	0.145	0.95547	-0.125
Mof_H 	H 	0.9316	0.1718	0.9752	0.091
Mof_C 	C 	0.9277	0.0648	0.90016	0.084
Mof_H 	H 	0.9264	0.0364	0.8807	-0.01
Mof_C 	C 	0.9121	0.1576	0.9034	-0.136
Mof_H 	H 	0.9005	0.1928	0.8865	0.1
Mof_C 	C 	0.9134	0.1999	0.93168	0.057
Mof_C 	C 	0.9002	0.3025	0.93631	0.089
Mof_C 	C 	0.0415	0.9293	0.86491	0.076
Mof_H 	H 	0.012	0.9334	0.8541	-0.011
Mof_C 	C 	0.0837	0.9439	0.84939	-0.119
Mof_H 	H 	0.0833	0.9581	0.8284	0.082
Mof_C 	C 	0.0819	0.9056	0.90941	0.066
Mof_H 	H 	0.0813	0.8932	0.9305	-0.006
Mof_C 	C 	0.1258	0.9188	0.89536	-0.112
Mof_H 	H 	0.1549	0.915	0.9066	0.079
Mof_C 	C 	0.1269	0.9376	0.86487	0.055
Mof_C 	C 	0.1738	0.95	0.84938	0.101
Mof_C 	C 	0.3462	0.8861	0.90978	0.076
Mof_H 	H 	0.347	0.8654	0.9302	-0.017
Mof_C 	C 	0.3018	0.9024	0.89657	-0.121
Mof_H 	H 	0.2728	0.8938	0.9077	0.079
Mof_C 	C 	0.3864	0.9292	0.86666	0.058
Mof_H 	H 	0.416	0.9405	0.8564	-0.009
Mof_C 	C 	0.3442	0.9453	0.8517	-0.114
Mof_H 	H 	0.3445	0.9656	0.8313	0.079
Mof_C 	C 	0.3006	0.9315	0.86668	0.051
Mof_C 	C 	0.2544	0.9463	0.85055	0.104
Mof_C 	C 	0.2668	0.0623	0.73343	0.068
Mof_H 	H 	0.2969	0.0591	0.7232	-0.001
Mof_C 	C 	0.2636	0.023	0.76197	-0.116
Mof_H 	H 	0.2912	0.9953	0.7713	0.081
Mof_C 	C 	0.1872	0.104	0.73381	0.065
Mof_H 	H 	0.1604	0.1323	0.7239	-0.01
Mof_C 	C 	0.1807	0.0649	0.76192	-0.116
Mof_H 	H 	0.1498	0.0655	0.7711	0.08
Mof_C 	C 	0.2202	0.0243	0.77676	0.05
Mof_C 	C 	0.2164	0.9886	0.80782	0.103
Mof_N 	N 	0.79659	0.6007	0.85011	-0.278
Mof_N 	N 	0.94679	0.5834	0.04405	-0.273
Mof_N 	N 	0.94481	0.0114	0.92286	-0.273
Mof_N 	N 	0.88192	0.4903	0.94289	-0.138
Mof_N 	N 	0.9167	0.3455	0.96118	-0.144
Mof_N 	N 	0.87453	0.3455	0.91471	-0.133
Mof_N 	N 	0.0397	0.9097	0.8942	-0.27
Mof_N 	N 	0.38761	0.898	0.89545	-0.274
Mof_N 	N 	0.2301	0.104	0.71977	-0.276
Mof_N 	N 	0.21357	0.9335	0.86545	-0.141
Mof_N 	N 	0.25783	0.9736	0.82164	-0.141
Mof_N 	N 	0.17267	0.978	0.82039	-0.139
Mof_Zn	Zn	0.52457	0.12223	0.41516	1.164
Mof_Zn	Zn	0.54735	0.35641	0.58614	1.164
Mof_Zn	Zn	0.73951	0.31829	0.31894	1.166
Mof_I 	I 	0.50565	0.19537	0.46677	-0.391
Mof_I 	I 	0.57402	0.21061	0.37609	-0.37
Mof_I 	I 	0.55406	0.17307	0.58013	-0.38
Mof_I 	I 	0.48252	0.44041	0.61645	-0.365
Mof_I 	I 	0.82871	0.31722	0.33253	-0.373
Mof_I 	I 	0.69585	0.15752	0.31273	-0.373
Mof_C 	C 	0.6979	0.4953	0.34778	0.078
Mof_H 	H 	0.7101	0.5272	0.3304	-0.014
Mof_C 	C 	0.6749	0.55	0.36973	-0.126
Mof_H 	H 	0.6711	0.6178	0.3672	0.087
Mof_C 	C 	0.6856	0.3566	0.37445	0.08
Mof_H 	H 	0.6888	0.2884	0.3762	-0.015
Mof_C 	C 	0.6627	0.4058	0.3973	-0.12
Mof_H 	H 	0.6506	0.3721	0.4143	0.083
Mof_C 	C 	0.6577	0.5047	0.39508	0.067
Mof_C 	C 	0.6328	0.5599	0.41899	0.104
Mof_C 	C 	0.5721	0.3675	0.52095	0.066
Mof_H 	H 	0.577	0.2997	0.523	-0.003
Mof_C 	C 	0.585	0.4114	0.49411	-0.115
Mof_H 	H 	0.5983	0.3747	0.478	0.078
Mof_C 	C 	0.5441	0.512	0.54031	0.067
Mof_H 	H 	0.5285	0.5466	0.556	-0.013
Mof_C 	C 	0.5567	0.5605	0.51432	-0.123
Mof_H 	H 	0.5507	0.628	0.5124	0.091
Mof_C 	C 	0.578	0.5101	0.49123	0.055
Mof_C 	C 	0.5939	0.5613	0.46373	0.095
Mof_C 	C 	0.5546	0.9482	0.45058	0.072
Mof_H 	H 	0.5435	0.9855	0.4672	-0.005
Mof_C 	C 	0.5696	0.855	0.45547	-0.125
Mof_H 	H 	0.5684	0.8282	0.4752	0.091
Mof_C 	C 	0.5723	0.9352	0.40016	0.084
Mof_H 	H 	0.5736	0.9636	0.3807	-0.01
Mof_C 	C 	0.5879	0.8424	0.4034	-0.136
Mof_H 	H 	0.5995	0.8072	0.3865	0.1
Mof_C 	C 	0.5866	0.8001	0.43168	0.056
Mof_C 	C 	0.5998	0.6975	0.43631	0.089
Mof_C 	C 	0.4585	0.0707	0.36491	0.076
Mof_H 	H 	0.488	0.0666	0.3541	-0.011
Mof_C 	C 	0.4163	0.0561	0.34939	-0.119
Mof_H 	H 	0.4167	0.0419	0.3284	0.081
Mof_C 	C 	0.4181	0.0944	0.40941	0.066
Mof_H 	H 	0.4187	0.1068	0.4305	-0.006
Mof_C 	C 	0.3742	0.0812	0.39536	-0.112
Mof_H 	H 	0.3451	0.085	0.4066	0.079
Mof_C 	C 	0.3731	0.0624	0.36487	0.055
Mof_C 	C 	0.3262	0.05	0.34938	0.101
Mof_C 	C 	0.1538	0.1139	0.40978	0.076
Mof_H 	H 	0.153	0.1346	0.4302	-0.017
Mof_C 	C 	0.1982	0.0976	0.39657	-0.121
Mof_H 	H 	0.2272	0.1062	0.4077	0.079
Mof_C 	C 	0.1136	0.0708	0.36666	0.058
Mof_H 	H 	0.084	0.0595	0.3564	-0.009
Mof_C 	C 	0.1558	0.0547	0.3517	-0.115
Mof_H 	H 	0.1555	0.0344	0.3313	0.079
Mof_C 	C 	0.1994	0.0685	0.36668	0.051
Mof_C 	C 	0.2456	0.0537	0.35055	0.104
Mof_C 	C 	0.2332	0.9377	0.23343	0.068
Mof_H 	H 	0.2031	0.9409	0.2232	-0.001
Mof_C 	C 	0.2364	0.977	0.26197	-0.114
Mof_H 	H 	0.2088	0.0047	0.2713	0.08
Mof_C 	C 	0.3128	0.896	0.23381	0.066
Mof_H 	H 	0.3396	0.8677	0.2239	-0.01
Mof_C 	C 	0.3193	0.9351	0.26192	-0.116
Mof_H 	H 	0.3502	0.9345	0.2711	0.08
Mof_C 	C 	0.2798	0.9757	0.27676	0.051
Mof_C 	C 	0.2836	0.0114	0.30782	0.103
Mof_N 	N 	0.70341	0.3993	0.35011	-0.278
Mof_N 	N 	0.55321	0.4166	0.54405	-0.273
Mof_N 	N 	0.55519	0.9886	0.42286	-0.273
Mof_N 	N 	0.61808	0.5097	0.44289	-0.138
Mof_N 	N 	0.5833	0.6545	0.46118	-0.144
Mof_N 	N 	0.62547	0.6545	0.41471	-0.133
Mof_N 	N 	0.4603	0.0903	0.3942	-0.27
Mof_N 	N 	0.11239	0.102	0.39545	-0.274
Mof_N 	N 	0.2699	0.896	0.21977	-0.276
Mof_N 	N 	0.28643	0.0665	0.36545	-0.141
Mof_N 	N 	0.24217	0.0264	0.32164	-0.141
Mof_N 	N 	0.32733	0.022	0.32039	-0.139
_end
