data_functionalizedCrystal
_audit_creation_method	'EQeq! by Chris Wilmer'
_symmetry_space_group_name_H-M	'P1'
_symmetry_Int_Tables_number	1
_symmetry_cell_setting	triclinic
loop_
_symmetry_equiv_pos_as_xyz
  x,y,z
_cell_length_a	18.5564
_cell_length_b	18.5564
_cell_length_c	18.5564
_cell_angle_alpha	90
_cell_angle_beta	90
_cell_angle_gamma	90
loop_
_atom_site_label
_atom_site_type_symbol
_atom_site_fract_x
_atom_site_fract_y
_atom_site_fract_z
_atom_site_charge
Mof_N 	N 	0.37153	0.42154	0.07629	-0.218
Mof_N 	N 	0.32637	0.41064	0.13058	-0.245
Mof_N 	N 	0.62847	0.57846	0.07629	-0.215
Mof_N 	N 	0.67363	0.58936	0.13058	-0.242
Mof_N 	N 	0.62847	0.42154	0.92371	-0.178
Mof_N 	N 	0.67363	0.41064	0.86942	-0.232
Mof_N 	N 	0.37153	0.57846	0.92371	-0.179
Mof_N 	N 	0.32637	0.58936	0.86942	-0.234
Mof_N 	N 	0.07629	0.37153	0.42154	-0.219
Mof_N 	N 	0.13058	0.32637	0.41064	-0.246
Mof_N 	N 	0.07629	0.62847	0.57846	-0.216
Mof_N 	N 	0.13058	0.67363	0.58936	-0.242
Mof_N 	N 	0.92371	0.62847	0.42154	-0.178
Mof_N 	N 	0.86942	0.67363	0.41064	-0.232
Mof_N 	N 	0.92371	0.37153	0.57846	-0.179
Mof_N 	N 	0.86942	0.32637	0.58936	-0.234
Mof_N 	N 	0.42154	0.07629	0.37153	-0.219
Mof_N 	N 	0.41064	0.13058	0.32637	-0.246
Mof_N 	N 	0.57846	0.07629	0.62847	-0.216
Mof_N 	N 	0.58936	0.13058	0.67363	-0.242
Mof_N 	N 	0.42154	0.92371	0.62847	-0.178
Mof_N 	N 	0.41064	0.86942	0.67363	-0.232
Mof_N 	N 	0.57846	0.92371	0.37153	-0.179
Mof_N 	N 	0.58936	0.86942	0.32637	-0.234
Mof_N 	N 	0.42154	0.37153	0.92371	-0.18
Mof_N 	N 	0.41064	0.32637	0.86942	-0.235
Mof_N 	N 	0.57846	0.62847	0.92371	-0.177
Mof_N 	N 	0.58936	0.67363	0.86942	-0.231
Mof_N 	N 	0.42154	0.62847	0.07629	-0.217
Mof_N 	N 	0.41064	0.67363	0.13058	-0.243
Mof_N 	N 	0.57846	0.37153	0.07629	-0.218
Mof_N 	N 	0.58936	0.32637	0.13058	-0.245
Mof_N 	N 	0.37153	0.07629	0.57846	-0.218
Mof_N 	N 	0.32637	0.13058	0.58936	-0.245
Mof_N 	N 	0.62847	0.07629	0.42154	-0.217
Mof_N 	N 	0.67363	0.13058	0.41064	-0.243
Mof_N 	N 	0.62847	0.92371	0.57846	-0.177
Mof_N 	N 	0.67363	0.86942	0.58936	-0.231
Mof_N 	N 	0.37153	0.92371	0.42154	-0.18
Mof_N 	N 	0.32637	0.86942	0.41064	-0.235
Mof_N 	N 	0.07629	0.42154	0.62847	-0.217
Mof_N 	N 	0.13058	0.41064	0.67363	-0.243
Mof_N 	N 	0.07629	0.57846	0.37153	-0.218
Mof_N 	N 	0.13058	0.58936	0.32637	-0.245
Mof_N 	N 	0.92371	0.42154	0.37153	-0.18
Mof_N 	N 	0.86942	0.41064	0.32637	-0.235
Mof_N 	N 	0.92371	0.57846	0.62847	-0.177
Mof_N 	N 	0.86942	0.58936	0.67363	-0.231
Mof_N 	N 	0.62847	0.57846	0.92371	-0.177
Mof_N 	N 	0.67363	0.58936	0.86942	-0.231
Mof_N 	N 	0.37153	0.42154	0.92371	-0.18
Mof_N 	N 	0.32637	0.41064	0.86942	-0.235
Mof_N 	N 	0.37153	0.57846	0.07629	-0.218
Mof_N 	N 	0.32637	0.58936	0.13058	-0.245
Mof_N 	N 	0.62847	0.42154	0.07629	-0.217
Mof_N 	N 	0.67363	0.41064	0.13058	-0.243
Mof_N 	N 	0.92371	0.62847	0.57846	-0.177
Mof_N 	N 	0.86942	0.67363	0.58936	-0.231
Mof_N 	N 	0.92371	0.37153	0.42154	-0.18
Mof_N 	N 	0.86942	0.32637	0.41064	-0.235
Mof_N 	N 	0.07629	0.37153	0.57846	-0.218
Mof_N 	N 	0.13058	0.32637	0.58936	-0.245
Mof_N 	N 	0.07629	0.62847	0.42154	-0.217
Mof_N 	N 	0.13058	0.67363	0.41064	-0.243
Mof_N 	N 	0.57846	0.92371	0.62847	-0.177
Mof_N 	N 	0.58936	0.86942	0.67363	-0.231
Mof_N 	N 	0.42154	0.92371	0.37153	-0.18
Mof_N 	N 	0.41064	0.86942	0.32637	-0.235
Mof_N 	N 	0.57846	0.07629	0.37153	-0.218
Mof_N 	N 	0.58936	0.13058	0.32637	-0.245
Mof_N 	N 	0.42154	0.07629	0.62847	-0.217
Mof_N 	N 	0.41064	0.13058	0.67363	-0.243
Mof_N 	N 	0.57846	0.62847	0.07629	-0.216
Mof_N 	N 	0.58936	0.67363	0.13058	-0.242
Mof_N 	N 	0.42154	0.37153	0.07629	-0.219
Mof_N 	N 	0.41064	0.32637	0.13058	-0.246
Mof_N 	N 	0.57846	0.37153	0.92371	-0.179
Mof_N 	N 	0.58936	0.32637	0.86942	-0.234
Mof_N 	N 	0.42154	0.62847	0.92371	-0.178
Mof_N 	N 	0.41064	0.67363	0.86942	-0.232
Mof_N 	N 	0.62847	0.92371	0.42154	-0.178
Mof_N 	N 	0.67363	0.86942	0.41064	-0.232
Mof_N 	N 	0.37153	0.92371	0.57846	-0.179
Mof_N 	N 	0.32637	0.86942	0.58936	-0.234
Mof_N 	N 	0.37153	0.07629	0.42154	-0.219
Mof_N 	N 	0.32637	0.13058	0.41064	-0.246
Mof_N 	N 	0.62847	0.07629	0.57846	-0.216
Mof_N 	N 	0.67363	0.13058	0.58936	-0.242
Mof_N 	N 	0.92371	0.57846	0.37153	-0.179
Mof_N 	N 	0.86942	0.58936	0.32637	-0.234
Mof_N 	N 	0.92371	0.42154	0.62847	-0.178
Mof_N 	N 	0.86942	0.41064	0.67363	-0.232
Mof_N 	N 	0.07629	0.57846	0.62847	-0.216
Mof_N 	N 	0.13058	0.58936	0.67363	-0.242
Mof_N 	N 	0.07629	0.42154	0.37153	-0.219
Mof_N 	N 	0.13058	0.41064	0.32637	-0.246
Mof_Ni	Ni	0.36647	0.5	-0	0.959
Mof_Ni	Ni	0.63353	0.5	-0	0.962
Mof_Ni	Ni	-1.39279e-32	0.36647	0.5	0.959
Mof_Ni	Ni	-2.07596e-33	0.63353	0.5	0.962
Mof_Ni	Ni	0.5	-3.95066e-33	0.36647	0.959
Mof_Ni	Ni	0.5	-7.90131e-33	0.63353	0.962
Mof_Ni	Ni	0.5	0.36647	-0	0.959
Mof_Ni	Ni	0.5	0.63353	-0	0.962
Mof_Ni	Ni	0.36647	-3.95066e-33	0.5	0.959
Mof_Ni	Ni	0.63353	-3.95066e-33	0.5	0.962
Mof_Ni	Ni	2.37536e-33	0.5	0.63353	0.962
Mof_Ni	Ni	-1.04779e-32	0.5	0.36647	0.959
Mof_C 	C 	0.3511	0.3511	0.1626	0.15
Mof_C 	C 	0.317	0.317	0.2255	-0.111
Mof_C 	C 	0.6489	0.6489	0.1626	0.157
Mof_C 	C 	0.683	0.683	0.2255	-0.101
Mof_C 	C 	0.6489	0.3511	0.8374	0.165
Mof_C 	C 	0.683	0.317	0.7745	-0.098
Mof_C 	C 	0.3511	0.6489	0.8374	0.165
Mof_C 	C 	0.317	0.683	0.7745	-0.098
Mof_C 	C 	0.1626	0.3511	0.3511	0.15
Mof_C 	C 	0.2255	0.317	0.317	-0.111
Mof_C 	C 	0.1626	0.6489	0.6489	0.157
Mof_C 	C 	0.2255	0.683	0.683	-0.101
Mof_C 	C 	0.8374	0.6489	0.3511	0.165
Mof_C 	C 	0.7745	0.683	0.317	-0.098
Mof_C 	C 	0.8374	0.3511	0.6489	0.165
Mof_C 	C 	0.7745	0.317	0.683	-0.098
Mof_C 	C 	0.3511	0.1626	0.3511	0.15
Mof_C 	C 	0.317	0.2255	0.317	-0.111
Mof_C 	C 	0.6489	0.1626	0.6489	0.157
Mof_C 	C 	0.683	0.2255	0.683	-0.101
Mof_C 	C 	0.3511	0.8374	0.6489	0.165
Mof_C 	C 	0.317	0.7745	0.683	-0.098
Mof_C 	C 	0.6489	0.8374	0.3511	0.165
Mof_C 	C 	0.683	0.7745	0.317	-0.098
Mof_C 	C 	0.3511	0.3511	0.8374	0.162
Mof_C 	C 	0.317	0.317	0.7745	-0.103
Mof_C 	C 	0.6489	0.6489	0.8374	0.169
Mof_C 	C 	0.683	0.683	0.7745	-0.093
Mof_C 	C 	0.3511	0.6489	0.1626	0.153
Mof_C 	C 	0.317	0.683	0.2255	-0.106
Mof_C 	C 	0.6489	0.3511	0.1626	0.153
Mof_C 	C 	0.683	0.317	0.2255	-0.106
Mof_C 	C 	0.3511	0.1626	0.6489	0.153
Mof_C 	C 	0.317	0.2255	0.683	-0.106
Mof_C 	C 	0.6489	0.1626	0.3511	0.153
Mof_C 	C 	0.683	0.2255	0.317	-0.106
Mof_C 	C 	0.6489	0.8374	0.6489	0.169
Mof_C 	C 	0.683	0.7745	0.683	-0.093
Mof_C 	C 	0.3511	0.8374	0.3511	0.162
Mof_C 	C 	0.317	0.7745	0.317	-0.103
Mof_C 	C 	0.1626	0.3511	0.6489	0.153
Mof_C 	C 	0.2255	0.317	0.683	-0.106
Mof_C 	C 	0.1626	0.6489	0.3511	0.153
Mof_C 	C 	0.2255	0.683	0.317	-0.106
Mof_C 	C 	0.8374	0.3511	0.3511	0.162
Mof_C 	C 	0.7745	0.317	0.317	-0.103
Mof_C 	C 	0.8374	0.6489	0.6489	0.169
Mof_C 	C 	0.7745	0.683	0.683	-0.093
Mof_C 	C 	0.2558	0.3481	0.2558	0.05
Mof_H 	H 	0.2355	0.3891	0.2355	-0.042
Mof_C 	C 	0.7442	0.6519	0.2558	0.055
Mof_H 	H 	0.7645	0.6109	0.2355	-0.035
Mof_C 	C 	0.7442	0.3481	0.7442	0.057
Mof_H 	H 	0.7645	0.3891	0.7645	-0.031
Mof_C 	C 	0.2558	0.6519	0.7442	0.055
Mof_H 	H 	0.2355	0.6109	0.7645	-0.035
Mof_C 	C 	0.2558	0.2558	0.3481	0.05
Mof_H 	H 	0.2355	0.2355	0.3891	-0.042
Mof_C 	C 	0.2558	0.7442	0.6519	0.055
Mof_H 	H 	0.2355	0.7645	0.6109	-0.035
Mof_C 	C 	0.7442	0.7442	0.3481	0.057
Mof_H 	H 	0.7645	0.7645	0.3891	-0.031
Mof_C 	C 	0.7442	0.2558	0.6519	0.055
Mof_H 	H 	0.7645	0.2355	0.6109	-0.035
Mof_C 	C 	0.3481	0.2558	0.2558	0.05
Mof_H 	H 	0.3891	0.2355	0.2355	-0.042
Mof_C 	C 	0.6519	0.2558	0.7442	0.055
Mof_H 	H 	0.6109	0.2355	0.7645	-0.035
Mof_C 	C 	0.3481	0.7442	0.7442	0.057
Mof_H 	H 	0.3891	0.7645	0.7645	-0.031
Mof_C 	C 	0.6519	0.7442	0.2558	0.055
Mof_H 	H 	0.6109	0.7645	0.2355	-0.035
Mof_C 	C 	0.3481	0.2558	0.7442	0.053
Mof_H 	H 	0.3891	0.2355	0.7645	-0.037
Mof_C 	C 	0.6519	0.7442	0.7442	0.059
Mof_H 	H 	0.6109	0.7645	0.7645	-0.03
Mof_C 	C 	0.3481	0.7442	0.2558	0.053
Mof_H 	H 	0.3891	0.7645	0.2355	-0.037
Mof_C 	C 	0.6519	0.2558	0.2558	0.052
Mof_H 	H 	0.6109	0.2355	0.2355	-0.041
Mof_C 	C 	0.2558	0.2558	0.6519	0.052
Mof_H 	H 	0.2355	0.2355	0.6109	-0.041
Mof_C 	C 	0.7442	0.2558	0.3481	0.053
Mof_H 	H 	0.7645	0.2355	0.3891	-0.037
Mof_C 	C 	0.7442	0.7442	0.6519	0.059
Mof_H 	H 	0.7645	0.7645	0.6109	-0.03
Mof_C 	C 	0.2558	0.7442	0.3481	0.053
Mof_H 	H 	0.2355	0.7645	0.3891	-0.037
Mof_C 	C 	0.2558	0.3481	0.7442	0.053
Mof_H 	H 	0.2355	0.3891	0.7645	-0.037
Mof_C 	C 	0.2558	0.6519	0.2558	0.052
Mof_H 	H 	0.2355	0.6109	0.2355	-0.041
Mof_C 	C 	0.7442	0.3481	0.2558	0.053
Mof_H 	H 	0.7645	0.3891	0.2355	-0.037
Mof_C 	C 	0.7442	0.6519	0.7442	0.059
Mof_H 	H 	0.7645	0.6109	0.7645	-0.03
Mof_Cl	Cl	0.5	0.5	-0	-0.903
Mof_Cl	Cl	-6.02661e-33	0.5	0.5	-0.903
Mof_Cl	Cl	0.5	-3.95066e-33	0.5	-0.903
Mof_O 	O 	0.1539	0.5	0.1539	-0.632
Mof_Cl	Cl	0.2712	0.5	0.2712	-0.567
Mof_O 	O 	0.8461	0.5	0.1539	-0.591
Mof_Cl	Cl	0.7288	0.5	0.2712	-0.567
Mof_O 	O 	0.8461	0.5	0.8461	-0.55
Mof_Cl	Cl	0.7288	0.5	0.7288	-0.567
Mof_O 	O 	0.1539	0.5	0.8461	-0.591
Mof_Cl	Cl	0.2712	0.5	0.7288	-0.567
Mof_O 	O 	0.1539	0.1539	0.5	-0.632
Mof_Cl	Cl	0.2712	0.2712	0.5	-0.567
Mof_O 	O 	0.1539	0.8461	0.5	-0.591
Mof_Cl	Cl	0.2712	0.7288	0.5	-0.567
Mof_O 	O 	0.8461	0.8461	0.5	-0.55
Mof_Cl	Cl	0.7288	0.7288	0.5	-0.567
Mof_O 	O 	0.8461	0.1539	0.5	-0.591
Mof_Cl	Cl	0.7288	0.2712	0.5	-0.567
Mof_O 	O 	0.5	0.1539	0.1539	-0.632
Mof_Cl	Cl	0.5	0.2712	0.2712	-0.567
Mof_O 	O 	0.5	0.1539	0.8461	-0.591
Mof_Cl	Cl	0.5	0.2712	0.7288	-0.567
Mof_O 	O 	0.5	0.8461	0.8461	-0.55
Mof_Cl	Cl	0.5	0.7288	0.7288	-0.567
Mof_O 	O 	0.5	0.8461	0.1539	-0.591
Mof_Cl	Cl	0.5	0.7288	0.2712	-0.567
Mof_Ni	Ni	0.26048	0.5	0.14052	0.998
Mof_Ni	Ni	0.73952	0.5	0.14052	1.003
Mof_Ni	Ni	0.73952	0.5	0.85948	1.02
Mof_Ni	Ni	0.26048	0.5	0.85948	1.015
Mof_Ni	Ni	0.14052	0.26048	0.5	0.998
Mof_Ni	Ni	0.14052	0.73952	0.5	1.003
Mof_Ni	Ni	0.85948	0.73952	0.5	1.02
Mof_Ni	Ni	0.85948	0.26048	0.5	1.015
Mof_Ni	Ni	0.5	0.14052	0.26048	0.998
Mof_Ni	Ni	0.5	0.14052	0.73952	1.003
Mof_Ni	Ni	0.5	0.85948	0.73952	1.02
Mof_Ni	Ni	0.5	0.85948	0.26048	1.015
Mof_Ni	Ni	0.5	0.26048	0.85948	1.015
Mof_Ni	Ni	0.5	0.73952	0.85948	1.02
Mof_Ni	Ni	0.5	0.73952	0.14052	1.003
Mof_Ni	Ni	0.5	0.26048	0.14052	0.998
Mof_Ni	Ni	0.26048	0.14052	0.5	0.998
Mof_Ni	Ni	0.73952	0.14052	0.5	1.003
Mof_Ni	Ni	0.73952	0.85948	0.5	1.02
Mof_Ni	Ni	0.26048	0.85948	0.5	1.015
Mof_Ni	Ni	0.14052	0.5	0.73952	1.003
Mof_Ni	Ni	0.14052	0.5	0.26048	0.998
Mof_Ni	Ni	0.85948	0.5	0.26048	1.015
Mof_Ni	Ni	0.85948	0.5	0.73952	1.02
_end
