data_functionalizedCrystal
_audit_creation_method	'EQeq! by Chris Wilmer'
_symmetry_space_group_name_H-M	'P1'
_symmetry_Int_Tables_number	1
_symmetry_cell_setting	triclinic
loop_
_symmetry_equiv_pos_as_xyz
  x,y,z
_cell_length_a	10.292
_cell_length_b	10.292
_cell_length_c	9.629
_cell_angle_alpha	90
_cell_angle_beta	90
_cell_angle_gamma	90
loop_
_atom_site_label
_atom_site_type_symbol
_atom_site_fract_x
_atom_site_fract_y
_atom_site_fract_z
_atom_site_charge
Mof_O 	O 	0.5235	0.6951	0.7229	-0.374
Mof_O 	O 	0.0235	0.1951	0.2229	-0.374
Mof_O 	O 	0.4765	0.3049	0.7229	-0.374
Mof_O 	O 	0.9765	0.8049	0.2229	-0.374
Mof_O 	O 	0.6951	0.4765	0.2771	-0.374
Mof_O 	O 	0.1951	0.9765	0.7771	-0.374
Mof_O 	O 	0.3049	0.5235	0.2771	-0.374
Mof_O 	O 	0.8049	0.0235	0.7771	-0.374
Mof_O 	O 	0.4765	0.6951	0.2771	-0.374
Mof_O 	O 	0.9765	0.1951	0.7771	-0.374
Mof_O 	O 	0.5235	0.3049	0.2771	-0.374
Mof_O 	O 	0.0235	0.8049	0.7771	-0.374
Mof_O 	O 	0.3049	0.4765	0.7229	-0.374
Mof_O 	O 	0.8049	0.9765	0.2229	-0.374
Mof_O 	O 	0.6951	0.5235	0.7229	-0.374
Mof_O 	O 	0.1951	0.0235	0.2229	-0.374
Mof_Fe	Fe	0.63442	0.63442	0.3652	0.837
Mof_P 	P 	0.6631	0.6631	0.6915	0.582
Mof_O 	O 	0.7026	0.7026	0.5459	-0.361
Mof_O 	O 	0.7382	0.7382	0.795	-0.31
Mof_Fe	Fe	0.13442	0.13442	0.8652	0.837
Mof_P 	P 	0.1631	0.1631	0.1915	0.582
Mof_O 	O 	0.2026	0.2026	0.0459	-0.361
Mof_O 	O 	0.2382	0.2382	0.295	-0.31
Mof_Fe	Fe	0.36558	0.36558	0.3652	0.837
Mof_P 	P 	0.3369	0.3369	0.6915	0.582
Mof_O 	O 	0.2974	0.2974	0.5459	-0.361
Mof_O 	O 	0.2618	0.2618	0.795	-0.31
Mof_Fe	Fe	0.86558	0.86558	0.8652	0.837
Mof_P 	P 	0.8369	0.8369	0.1915	0.582
Mof_O 	O 	0.7974	0.7974	0.0459	-0.361
Mof_O 	O 	0.7618	0.7618	0.295	-0.31
Mof_Fe	Fe	0.63442	0.36558	0.6348	0.837
Mof_P 	P 	0.6631	0.3369	0.3085	0.582
Mof_O 	O 	0.7026	0.2974	0.4541	-0.361
Mof_O 	O 	0.7382	0.2618	0.205	-0.31
Mof_Fe	Fe	0.13442	0.86558	0.1348	0.837
Mof_P 	P 	0.1631	0.8369	0.8085	0.582
Mof_O 	O 	0.2026	0.7974	0.9541	-0.361
Mof_O 	O 	0.2382	0.7618	0.705	-0.31
Mof_Fe	Fe	0.36558	0.63442	0.6348	0.837
Mof_P 	P 	0.3369	0.6631	0.3085	0.582
Mof_O 	O 	0.2974	0.7026	0.4541	-0.361
Mof_O 	O 	0.2618	0.7382	0.205	-0.31
Mof_Fe	Fe	0.86558	0.13442	0.1348	0.837
Mof_P 	P 	0.8369	0.1631	0.8085	0.582
Mof_O 	O 	0.7974	0.2026	0.9541	-0.361
Mof_O 	O 	0.7618	0.2382	0.705	-0.31
_end
