data_functionalizedCrystal
_audit_creation_method	'EQeq! by Chris Wilmer'
_symmetry_space_group_name_H-M	'P1'
_symmetry_Int_Tables_number	1
_symmetry_cell_setting	triclinic
loop_
_symmetry_equiv_pos_as_xyz
  x,y,z
_cell_length_a	10.9909
_cell_length_b	10.9909
_cell_length_c	10.991
_cell_angle_alpha	90
_cell_angle_beta	90
_cell_angle_gamma	90
loop_
_atom_site_label
_atom_site_type_symbol
_atom_site_fract_x
_atom_site_fract_y
_atom_site_fract_z
_atom_site_charge
Mof_Li	Li	0.9184	0.5892	0.8364	2.465
Mof_Li	Li	0.0816	0.4108	0.8364	2.465
Mof_Li	Li	0.5892	0.0816	0.1636	2.465
Mof_Li	Li	0.4108	0.9184	0.1636	2.465
Mof_Li	Li	0.0816	0.5892	0.6636	2.467
Mof_Li	Li	0.9184	0.4108	0.6636	2.467
Mof_Li	Li	0.4108	0.0816	0.3364	2.467
Mof_Li	Li	0.5892	0.9184	0.3364	2.467
Mof_H 	H 	0.2066	0.5432	0.0403	0.187
Mof_H 	H 	0.1323	0.8187	0.8266	0.183
Mof_H 	H 	0.3209	0.6704	0.1497	-0.258
Mof_H 	H 	0.2495	0.9355	0.945	-0.263
Mof_H 	H 	0.7934	0.4568	0.0403	0.187
Mof_H 	H 	0.8677	0.1813	0.8266	0.183
Mof_H 	H 	0.6791	0.3296	0.1497	-0.258
Mof_H 	H 	0.7505	0.0645	0.945	-0.263
Mof_H 	H 	0.5432	0.7934	0.9597	0.187
Mof_H 	H 	0.8187	0.8677	0.1734	0.183
Mof_H 	H 	0.6704	0.6791	0.8503	-0.258
Mof_H 	H 	0.9355	0.7505	0.055	-0.263
Mof_H 	H 	0.4568	0.2066	0.9597	0.187
Mof_H 	H 	0.1813	0.1323	0.1734	0.183
Mof_H 	H 	0.3296	0.3209	0.8503	-0.258
Mof_H 	H 	0.0645	0.2495	0.055	-0.263
Mof_H 	H 	0.7934	0.5432	0.4597	0.186
Mof_H 	H 	0.8677	0.8187	0.6734	0.183
Mof_H 	H 	0.6791	0.6704	0.3503	-0.258
Mof_H 	H 	0.7505	0.9355	0.555	-0.263
Mof_H 	H 	0.2066	0.4568	0.4597	0.186
Mof_H 	H 	0.1323	0.1813	0.6734	0.183
Mof_H 	H 	0.3209	0.3296	0.3503	-0.258
Mof_H 	H 	0.2495	0.0645	0.555	-0.263
Mof_H 	H 	0.4568	0.7934	0.5403	0.186
Mof_H 	H 	0.1813	0.8677	0.3266	0.183
Mof_H 	H 	0.3296	0.6791	0.6497	-0.258
Mof_H 	H 	0.0645	0.7505	0.445	-0.263
Mof_H 	H 	0.5432	0.2066	0.5403	0.186
Mof_H 	H 	0.8187	0.1323	0.3266	0.183
Mof_H 	H 	0.6704	0.3209	0.6497	-0.258
Mof_H 	H 	0.9355	0.2495	0.445	-0.263
Mof_C 	C 	0.2155	0.6234	0.015	-0.815
Mof_C 	C 	0.1729	0.7833	0.8918	-0.829
Mof_C 	C 	0.2822	0.7025	0.0817	0.461
Mof_C 	C 	0.2423	0.8538	0.9659	0.495
Mof_C 	C 	0.1621	0.662	0.9116	0.882
Mof_C 	C 	0.7845	0.3766	0.015	-0.815
Mof_C 	C 	0.8271	0.2167	0.8918	-0.829
Mof_C 	C 	0.7178	0.2975	0.0817	0.461
Mof_C 	C 	0.7577	0.1462	0.9659	0.495
Mof_C 	C 	0.8379	0.338	0.9116	0.882
Mof_C 	C 	0.6234	0.7845	0.985	-0.815
Mof_C 	C 	0.7833	0.8271	0.1082	-0.829
Mof_C 	C 	0.7025	0.7178	0.9183	0.461
Mof_C 	C 	0.8538	0.7577	0.0341	0.495
Mof_C 	C 	0.662	0.8379	0.0884	0.882
Mof_C 	C 	0.3766	0.2155	0.985	-0.815
Mof_C 	C 	0.2167	0.1729	0.1082	-0.829
Mof_C 	C 	0.2975	0.2822	0.9183	0.461
Mof_C 	C 	0.1462	0.2423	0.0341	0.495
Mof_C 	C 	0.338	0.1621	0.0884	0.882
Mof_C 	C 	0.7845	0.6234	0.485	-0.813
Mof_C 	C 	0.8271	0.7833	0.6082	-0.829
Mof_C 	C 	0.7178	0.7025	0.4183	0.461
Mof_C 	C 	0.7577	0.8538	0.5341	0.497
Mof_C 	C 	0.8379	0.662	0.5884	0.882
Mof_C 	C 	0.2155	0.3766	0.485	-0.813
Mof_C 	C 	0.1729	0.2167	0.6082	-0.829
Mof_C 	C 	0.2822	0.2975	0.4183	0.461
Mof_C 	C 	0.2423	0.1462	0.5341	0.497
Mof_C 	C 	0.1621	0.338	0.5884	0.882
Mof_C 	C 	0.3766	0.7845	0.515	-0.813
Mof_C 	C 	0.2167	0.8271	0.3918	-0.829
Mof_C 	C 	0.2975	0.7178	0.5817	0.461
Mof_C 	C 	0.1462	0.7577	0.4659	0.497
Mof_C 	C 	0.338	0.8379	0.4116	0.882
Mof_C 	C 	0.6234	0.2155	0.515	-0.813
Mof_C 	C 	0.7833	0.1729	0.3918	-0.829
Mof_C 	C 	0.7025	0.2822	0.5817	0.461
Mof_C 	C 	0.8538	0.2423	0.4659	0.497
Mof_C 	C 	0.662	0.1621	0.4116	0.882
Mof_N 	N 	0.2988	0.8192	0.0616	-0.711
Mof_N 	N 	0.7012	0.1808	0.0616	-0.711
Mof_N 	N 	0.8192	0.7012	0.9384	-0.711
Mof_N 	N 	0.1808	0.2988	0.9384	-0.711
Mof_N 	N 	0.7012	0.8192	0.4384	-0.711
Mof_N 	N 	0.2988	0.1808	0.4384	-0.711
Mof_N 	N 	0.1808	0.7012	0.5616	-0.711
Mof_N 	N 	0.8192	0.2988	0.5616	-0.711
Mof_O 	O 	0.0963	0.5894	0.8414	-1.799
Mof_O 	O 	0.9037	0.4106	0.8414	-1.799
Mof_O 	O 	0.5894	0.9037	0.1586	-1.799
Mof_O 	O 	0.4106	0.0963	0.1586	-1.799
Mof_O 	O 	0.9037	0.5894	0.6586	-1.8
Mof_O 	O 	0.0963	0.4106	0.6586	-1.8
Mof_O 	O 	0.4106	0.9037	0.3414	-1.8
Mof_O 	O 	0.5894	0.0963	0.3414	-1.8
_end
