data_functionalizedCrystal
_audit_creation_method	'EQeq! by Chris Wilmer'
_symmetry_space_group_name_H-M	'P1'
_symmetry_Int_Tables_number	1
_symmetry_cell_setting	triclinic
loop_
_symmetry_equiv_pos_as_xyz
  x,y,z
_cell_length_a	13.5186
_cell_length_b	10.7685
_cell_length_c	14.6323
_cell_angle_alpha	90
_cell_angle_beta	110.63
_cell_angle_gamma	90
loop_
_atom_site_label
_atom_site_type_symbol
_atom_site_fract_x
_atom_site_fract_y
_atom_site_fract_z
_atom_site_charge
Mof_Co	Co	0.41053	0.90409	0.46176	1.165
Mof_Co	Co	0.50388	0.01066	0.2922	1.184
Mof_O 	O 	0.30472	0.03122	0.37356	-0.416
Mof_O 	O 	0.39011	0.13533	0.29092	-0.427
Mof_O 	O 	0.38627	0.40425	0.23872	-0.381
Mof_O 	O 	0.31281	0.2844	0.1079	-0.256
Mof_O 	O 	0.62002	0.14612	0.34043	-0.422
Mof_O 	O 	0.71394	0.15218	0.50123	-0.401
Mof_O 	O 	0.63383	0.27744	0.15312	-0.406
Mof_O 	O 	0.62812	0.39582	0.27776	-0.382
Mof_O 	O 	0.53793	0.95995	0.43124	-0.584
Mof_C 	C 	0.3136	0.1172	0.31966	0.355
Mof_C 	C 	0.2243	0.2092	0.2852	-0.036
Mof_C 	C 	0.1399	0.1956	0.3177	-0.049
Mof_H 	H 	0.1403	0.1297	0.3589	0.068
Mof_C 	C 	0.055	0.2772	0.2906	0.025
Mof_C 	C 	0.0573	0.3757	0.229	-0.073
Mof_H 	H 	0.0018	0.4323	0.2097	0.064
Mof_C 	C 	0.1408	0.3899	0.1964	0.002
Mof_H 	H 	0.1403	0.4559	0.1553	0.039
Mof_C 	C 	0.2258	0.308	0.2237	-0.047
Mof_C 	C 	0.316	0.3317	0.187	0.337
Mof_C 	C 	0.9661	0.2583	0.326	0.04
Mof_C 	C 	0.9821	0.2025	0.4166	-0.097
Mof_H 	H 	0.0503	0.1816	0.4568	0.075
Mof_C 	C 	0.8984	0.178	0.4474	0.022
Mof_H 	H 	0.9109	0.1405	0.5077	0.037
Mof_C 	C 	0.7958	0.209	0.38887	-0.074
Mof_C 	C 	0.7788	0.2702	0.30059	-0.014
Mof_C 	C 	0.8629	0.293	0.2694	-0.067
Mof_H 	H 	0.8504	0.3322	0.2097	0.072
Mof_C 	C 	0.7024	0.1655	0.41295	0.366
Mof_C 	C 	0.6707	0.3166	0.2391	0.342
Mof_Ni	Ni	0.58947	0.09591	0.53824	1.096
Mof_Ni	Ni	0.49612	0.51066	0.2078	1.114
Mof_Co	Co	0.58947	0.40409	0.03824	1.165
Mof_O 	O 	0.69528	0.53122	0.12644	-0.415
Mof_O 	O 	0.60989	0.63533	0.20908	-0.416
Mof_O 	O 	0.61373	0.90425	0.26128	-0.393
Mof_O 	O 	0.68719	0.7844	0.3921	-0.256
Mof_O 	O 	0.37998	0.64612	0.15957	-0.411
Mof_O 	O 	0.28606	0.65218	0.99877	-0.4
Mof_O 	O 	0.36617	0.77744	0.34688	-0.407
Mof_O 	O 	0.37188	0.89582	0.22224	-0.394
Mof_O 	O 	0.46207	0.45995	0.06876	-0.573
Mof_C 	C 	0.6864	0.6172	0.18034	0.352
Mof_C 	C 	0.7757	0.7092	0.2148	-0.034
Mof_C 	C 	0.8601	0.6956	0.1823	-0.05
Mof_H 	H 	0.8597	0.6297	0.1411	0.068
Mof_C 	C 	0.945	0.7772	0.2094	0.026
Mof_C 	C 	0.9427	0.8757	0.271	-0.075
Mof_H 	H 	0.9982	0.9323	0.2903	0.064
Mof_C 	C 	0.8592	0.8899	0.3036	0.004
Mof_H 	H 	0.8597	0.9559	0.3447	0.038
Mof_C 	C 	0.7742	0.808	0.2763	-0.049
Mof_C 	C 	0.684	0.8317	0.313	0.34
Mof_C 	C 	0.0339	0.7583	0.174	0.038
Mof_C 	C 	0.0179	0.7025	0.0834	-0.093
Mof_H 	H 	0.9497	0.6816	0.0432	0.073
Mof_C 	C 	0.1016	0.678	0.0526	0.019
Mof_H 	H 	0.0891	0.6405	0.9923	0.037
Mof_C 	C 	0.2042	0.709	0.11113	-0.071
Mof_C 	C 	0.2212	0.7702	0.19941	-0.017
Mof_C 	C 	0.1371	0.793	0.2306	-0.065
Mof_H 	H 	0.1496	0.8322	0.2903	0.071
Mof_C 	C 	0.2976	0.6655	0.08705	0.362
Mof_C 	C 	0.3293	0.8166	0.2609	0.345
Mof_Ni	Ni	0.41053	0.59591	0.96176	1.097
Mof_Co	Co	0.49612	0.98934	0.7078	1.182
Mof_O 	O 	0.69528	0.96878	0.62644	-0.409
Mof_O 	O 	0.60989	0.86467	0.70908	-0.427
Mof_O 	O 	0.61373	0.59575	0.76128	-0.381
Mof_O 	O 	0.68719	0.7156	0.8921	-0.255
Mof_O 	O 	0.37998	0.85388	0.65957	-0.426
Mof_O 	O 	0.28606	0.84782	0.49877	-0.414
Mof_O 	O 	0.36617	0.72256	0.84688	-0.396
Mof_O 	O 	0.37188	0.60418	0.72224	-0.38
Mof_O 	O 	0.46207	0.04005	0.56876	-0.581
Mof_C 	C 	0.6864	0.8828	0.68034	0.352
Mof_C 	C 	0.7757	0.7908	0.7148	-0.035
Mof_C 	C 	0.8601	0.8044	0.6823	-0.049
Mof_H 	H 	0.8597	0.8703	0.6411	0.068
Mof_C 	C 	0.945	0.7228	0.7094	0.024
Mof_C 	C 	0.9427	0.6243	0.771	-0.074
Mof_H 	H 	0.9982	0.5677	0.7903	0.064
Mof_C 	C 	0.8592	0.6101	0.8036	0.003
Mof_H 	H 	0.8597	0.5441	0.8447	0.039
Mof_C 	C 	0.7742	0.692	0.7763	-0.047
Mof_C 	C 	0.684	0.6683	0.813	0.337
Mof_C 	C 	0.0339	0.7417	0.674	0.04
Mof_C 	C 	0.0179	0.7975	0.5834	-0.098
Mof_H 	H 	0.9497	0.8184	0.5432	0.075
Mof_C 	C 	0.1016	0.822	0.5526	0.023
Mof_H 	H 	0.0891	0.8595	0.4923	0.036
Mof_C 	C 	0.2042	0.791	0.61113	-0.076
Mof_C 	C 	0.2212	0.7298	0.69941	-0.013
Mof_C 	C 	0.1371	0.707	0.7306	-0.068
Mof_H 	H 	0.1496	0.6678	0.7903	0.073
Mof_C 	C 	0.2976	0.8345	0.58705	0.368
Mof_C 	C 	0.3293	0.6834	0.7609	0.34
Mof_Ni	Ni	0.50388	0.48934	0.7922	1.114
Mof_O 	O 	0.30472	0.46878	0.87356	-0.405
Mof_O 	O 	0.39011	0.36467	0.79092	-0.415
Mof_O 	O 	0.38627	0.09575	0.73872	-0.391
Mof_O 	O 	0.31281	0.2156	0.6079	-0.256
Mof_O 	O 	0.62002	0.35388	0.84043	-0.416
Mof_O 	O 	0.71394	0.34782	0.00123	-0.415
Mof_O 	O 	0.63383	0.22256	0.65312	-0.396
Mof_O 	O 	0.62812	0.10418	0.77776	-0.389
Mof_O 	O 	0.53793	0.54005	0.93124	-0.571
Mof_C 	C 	0.3136	0.3828	0.81966	0.349
Mof_C 	C 	0.2243	0.2908	0.7852	-0.033
Mof_C 	C 	0.1399	0.3044	0.8177	-0.049
Mof_H 	H 	0.1403	0.3703	0.8589	0.069
Mof_C 	C 	0.055	0.2228	0.7906	0.024
Mof_C 	C 	0.0573	0.1243	0.729	-0.073
Mof_H 	H 	0.0018	0.0677	0.7097	0.064
Mof_C 	C 	0.1408	0.1101	0.6964	0.004
Mof_H 	H 	0.1403	0.0441	0.6553	0.04
Mof_C 	C 	0.2258	0.192	0.7237	-0.049
Mof_C 	C 	0.316	0.1683	0.687	0.34
Mof_C 	C 	0.9661	0.2417	0.826	0.042
Mof_C 	C 	0.9821	0.2975	0.9166	-0.1
Mof_H 	H 	0.0503	0.3184	0.9568	0.076
Mof_C 	C 	0.8984	0.322	0.9474	0.03
Mof_H 	H 	0.9109	0.3595	0.0077	0.032
Mof_C 	C 	0.7958	0.291	0.88887	-0.077
Mof_C 	C 	0.7788	0.2298	0.80059	-0.012
Mof_C 	C 	0.8629	0.207	0.7694	-0.069
Mof_H 	H 	0.8504	0.1678	0.7097	0.074
Mof_C 	C 	0.7024	0.3345	0.91295	0.37
Mof_C 	C 	0.6707	0.1834	0.7391	0.342
_end
