data_functionalizedCrystal
_audit_creation_method	'EQeq! by Chris Wilmer'
_symmetry_space_group_name_H-M	'P1'
_symmetry_Int_Tables_number	1
_symmetry_cell_setting	triclinic
loop_
_symmetry_equiv_pos_as_xyz
  x,y,z
_cell_length_a	6.928
_cell_length_b	17.5648
_cell_length_c	17.5648
_cell_angle_alpha	61.7011
_cell_angle_beta	82.4451
_cell_angle_gamma	97.5549
loop_
_atom_site_label
_atom_site_type_symbol
_atom_site_fract_x
_atom_site_fract_y
_atom_site_fract_z
_atom_site_charge
Mof_Zn	Zn	0.74487	0.00965	0.7091	1.21
Mof_Zn	Zn	0.5583	0.12604	0.53554	1.229
Mof_Zn	Zn	0.45397	0.7091	0.28125	1.22
Mof_Zn	Zn	0.09384	0.53554	0.33842	1.243
Mof_Zn	Zn	0.73522	0.28125	0.00965	1.211
Mof_Zn	Zn	0.43226	0.33842	0.12604	1.23
Mof_Zn	Zn	0.95397	0.71875	0.2909	1.201
Mof_Zn	Zn	0.59384	0.66158	0.46446	1.228
Mof_Zn	Zn	0.23522	0.99035	0.71875	1.222
Mof_Zn	Zn	0.93226	0.87396	0.66158	1.209
Mof_Zn	Zn	0.24487	0.2909	0.99035	1.22
Mof_Zn	Zn	0.0583	0.46446	0.87396	1.243
Mof_H 	H 	0.5045	0.9575	0.6433	0.194
Mof_H 	H 	0.5884	0.2906	0.4091	0.278
Mof_H 	H 	0.583	0.7945	0.9951	0.044
Mof_H 	H 	0.4688	0.6729	0.8552	0.047
Mof_H 	H 	0.3272	0.5345	0.1224	0.046
Mof_H 	H 	0.1478	0.6433	0.3992	0.202
Mof_H 	H 	0.9975	0.4091	0.3003	0.189
Mof_H 	H 	0.5781	0.9951	0.2104	0.042
Mof_H 	H 	0.324	0.8552	0.4719	0.054
Mof_H 	H 	0.4496	0.1224	0.3431	0.041
Mof_H 	H 	0.547	0.3992	0.9575	0.188
Mof_H 	H 	0.2978	0.3003	0.2906	0.29
Mof_H 	H 	0.7885	0.2104	0.7945	0.038
Mof_H 	H 	0.7959	0.4719	0.6729	0.034
Mof_H 	H 	0.7927	0.3431	0.5345	0.023
Mof_H 	H 	0.6478	0.6008	0.3567	0.191
Mof_H 	H 	0.4975	0.6997	0.5909	0.282
Mof_H 	H 	0.0781	0.7896	0.0049	0.039
Mof_H 	H 	0.824	0.5281	0.1448	0.034
Mof_H 	H 	0.9496	0.6569	0.8776	0.044
Mof_H 	H 	0.047	0.0425	0.6008	0.199
Mof_H 	H 	0.7978	0.7094	0.6997	0.279
Mof_H 	H 	0.2885	0.2055	0.7896	0.055
Mof_H 	H 	0.2959	0.3271	0.5281	0.05
Mof_H 	H 	0.2927	0.4655	0.6569	0.043
Mof_H 	H 	0.0045	0.3567	0.0425	0.206
Mof_H 	H 	0.0884	0.5909	0.7094	0.293
Mof_H 	H 	0.083	0.0049	0.2055	0.043
Mof_H 	H 	0.9688	0.1448	0.3271	0.056
Mof_H 	H 	0.8272	0.8776	0.4655	0.033
Mof_C 	C 	0.45304	0.66408	0.07156	-0.11
Mof_C 	C 	0.53992	0.74669	0.91243	-0.117
Mof_C 	C 	0.38649	0.59057	0.9883	-0.113
Mof_C 	C 	0.53357	0.74362	0.99351	0.055
Mof_C 	C 	0.46559	0.67041	0.90944	0.057
Mof_C 	C 	0.62881	0.83142	0.82649	0.351
Mof_C 	C 	0.38016	0.58759	0.06971	0.059
Mof_C 	C 	0.29836	0.50947	0.98619	0.354
Mof_C 	C 	0.43673	0.65979	0.1597	0.372
Mof_C 	C 	0.5246	0.07156	0.26436	-0.124
Mof_C 	C 	0.45235	0.91243	0.34088	-0.11
Mof_C 	C 	0.37479	0.9883	0.42113	-0.107
Mof_C 	C 	0.52708	0.99351	0.26287	0.064
Mof_C 	C 	0.37503	0.90944	0.42015	0.058
Mof_C 	C 	0.4553	0.82649	0.34209	0.359
Mof_C 	C 	0.44987	0.06971	0.3427	0.054
Mof_C 	C 	0.28455	0.98619	0.50434	0.357
Mof_C 	C 	0.59643	0.1597	0.18051	0.366
Mof_C 	C 	0.78896	0.26436	0.66408	-0.135
Mof_C 	C 	0.79323	0.34088	0.74669	-0.132
Mof_C 	C 	0.79592	0.42113	0.59057	-0.139
Mof_C 	C 	0.78995	0.26287	0.74362	0.063
Mof_C 	C 	0.79518	0.42015	0.67041	0.06
Mof_C 	C 	0.79739	0.34209	0.83142	0.357
Mof_C 	C 	0.79257	0.3427	0.58759	0.059
Mof_C 	C 	0.78889	0.50434	0.50947	0.35
Mof_C 	C 	0.77694	0.18051	0.65979	0.367
Mof_C 	C 	0.0246	0.73564	0.92844	-0.062
Mof_C 	C 	0.95235	0.65912	0.08757	-0.2
Mof_C 	C 	0.87479	0.57887	0.0117	-0.12
Mof_C 	C 	0.02708	0.73713	0.00649	0.144
Mof_C 	C 	0.87503	0.57985	0.09056	0.071
Mof_C 	C 	0.9553	0.65791	0.17351	0.377
Mof_C 	C 	0.94987	0.6573	0.93029	-0.028
Mof_C 	C 	0.78455	0.49566	0.01381	0.344
Mof_C 	C 	0.09643	0.81949	0.8403	0.359
Mof_C 	C 	0.28896	0.33592	0.73564	-0.106
Mof_C 	C 	0.29323	0.25331	0.65912	-0.103
Mof_C 	C 	0.29592	0.40943	0.57887	-0.109
Mof_C 	C 	0.28995	0.25638	0.73713	0.062
Mof_C 	C 	0.29518	0.32959	0.57985	0.059
Mof_C 	C 	0.29739	0.16858	0.65791	0.359
Mof_C 	C 	0.29257	0.41241	0.6573	0.059
Mof_C 	C 	0.28889	0.49053	0.49566	0.357
Mof_C 	C 	0.27694	0.34021	0.81949	0.372
Mof_C 	C 	0.95304	0.92844	0.33592	-0.165
Mof_C 	C 	0.03992	0.08757	0.25331	-0.044
Mof_C 	C 	0.88649	0.0117	0.40943	-0.109
Mof_C 	C 	0.03357	0.00649	0.25638	0.112
Mof_C 	C 	0.96559	0.09056	0.32959	-0.039
Mof_C 	C 	0.12881	0.17351	0.16858	0.344
Mof_C 	C 	0.88016	0.93029	0.41241	0.049
Mof_C 	C 	0.79836	0.01381	0.49053	0.334
Mof_C 	C 	0.93673	0.8403	0.34021	0.297
Mof_O 	O 	0.50707	0.00494	0.65783	-0.792
Mof_O 	O 	0.66981	0.90215	0.82972	-0.47
Mof_O 	O 	0.66069	0.82754	0.75637	-0.467
Mof_O 	O 	0.50667	0.73012	0.15971	-0.459
Mof_O 	O 	0.35667	0.58779	0.22888	-0.444
Mof_O 	O 	0.6112	0.24417	0.41307	-0.495
Mof_O 	O 	0.24239	0.43626	0.05659	-0.41
Mof_O 	O 	0.28322	0.52198	0.90882	-0.414
Mof_O 	O 	0.1649	0.65783	0.33723	-0.763
Mof_O 	O 	0.49953	0.82972	0.26813	-0.459
Mof_O 	O 	0.41706	0.75637	0.41609	-0.453
Mof_O 	O 	0.66638	0.15971	0.11017	-0.475
Mof_O 	O 	0.58555	0.22888	0.18333	-0.46
Mof_O 	O 	0.02427	0.41307	0.34276	-0.378
Mof_O 	O 	0.29898	0.05659	0.50715	-0.417
Mof_O 	O 	0.19204	0.90882	0.5692	-0.398
Mof_O 	O 	0.50213	0.33723	0.00494	-0.786
Mof_O 	O 	0.76766	0.26813	0.90215	-0.474
Mof_O 	O 	0.83315	0.41609	0.82754	-0.485
Mof_O 	O 	0.77655	0.11017	0.73012	-0.477
Mof_O 	O 	0.76888	0.18333	0.58779	-0.468
Mof_O 	O 	0.36703	0.34276	0.24417	-0.487
Mof_O 	O 	0.80613	0.50715	0.43626	-0.444
Mof_O 	O 	0.76124	0.5692	0.52198	-0.434
Mof_O 	O 	0.6649	0.66277	0.34217	-0.792
Mof_O 	O 	0.99953	0.73187	0.17028	-0.497
Mof_O 	O 	0.91706	0.58391	0.24363	-0.488
Mof_O 	O 	0.16638	0.88983	0.84029	-0.446
Mof_O 	O 	0.08555	0.81667	0.77112	-0.422
Mof_O 	O 	0.52427	0.65724	0.58693	-0.491
Mof_O 	O 	0.79898	0.49285	0.94341	-0.442
Mof_O 	O 	0.69204	0.4308	0.09118	-0.429
Mof_O 	O 	0.00213	0.99506	0.66277	-0.749
Mof_O 	O 	0.26766	0.09785	0.73187	-0.448
Mof_O 	O 	0.33315	0.17246	0.58391	-0.453
Mof_O 	O 	0.27655	0.26988	0.88983	-0.451
Mof_O 	O 	0.26888	0.41221	0.81667	-0.445
Mof_O 	O 	0.86703	0.75583	0.65724	-0.515
Mof_O 	O 	0.30613	0.56374	0.49285	-0.415
Mof_O 	O 	0.26124	0.47802	0.4308	-0.415
Mof_O 	O 	0.00707	0.34217	0.99506	-0.763
Mof_O 	O 	0.16981	0.17028	0.09785	-0.443
Mof_O 	O 	0.16069	0.24363	0.17246	-0.438
Mof_O 	O 	0.00667	0.84029	0.26988	-0.382
Mof_O 	O 	0.85667	0.77112	0.41221	-0.45
Mof_O 	O 	0.1112	0.58693	0.75583	-0.47
Mof_O 	O 	0.74239	0.94341	0.56374	-0.428
Mof_O 	O 	0.78322	0.09118	0.47802	-0.431
_end
