data_functionalizedCrystal
_audit_creation_method	'EQeq! by Chris Wilmer'
_symmetry_space_group_name_H-M	'P1'
_symmetry_Int_Tables_number	1
_symmetry_cell_setting	triclinic
loop_
_symmetry_equiv_pos_as_xyz
  x,y,z
_cell_length_a	22.168
_cell_length_b	22.168
_cell_length_c	37.019
_cell_angle_alpha	90
_cell_angle_beta	90
_cell_angle_gamma	120
loop_
_atom_site_label
_atom_site_type_symbol
_atom_site_fract_x
_atom_site_fract_y
_atom_site_fract_z
_atom_site_charge
Mof_Zn	Zn	0.08007	0.6199	0.95389	1.182
Mof_Zn	Zn	0.99375	0.55563	0.02396	1.205
Mof_O 	O 	0.65937	0.5978	0.96111	-0.462
Mof_O 	O 	0.702	0.57292	0.01017	-0.486
Mof_O 	O 	0.92785	0.57979	0.00035	-0.493
Mof_O 	O 	0.99266	0.62606	0.95065	-0.508
Mof_O 	O 	0.92102	0.64383	0.84529	-0.24
Mof_O 	O 	0.06575	0.5507	0.99253	-0.812
Mof_H 	H 	0.1052	0.5596	0.0064	0.195
Mof_N 	N 	0.87857	0.68629	0.74224	-0.248
Mof_N 	N 	0.83938	0.66904	0.86526	-0.153
Mof_N 	N 	0.83854	0.71509	0.75198	-0.248
Mof_C 	C 	0.70541	0.59298	0.97787	0.38
Mof_C 	C 	0.77111	0.61099	0.95729	-0.076
Mof_C 	C 	0.77853	0.63352	0.92196	-0.072
Mof_H 	H 	0.7437	0.6394	0.9114	0.078
Mof_C 	C 	0.93969	0.60726	0.96934	0.388
Mof_C 	C 	0.88309	0.61827	0.95372	-0.076
Mof_C 	C 	0.82372	0.60289	0.97296	0.012
Mof_H 	H 	0.8188	0.587	0.9966	0.04
Mof_C 	C 	0.88988	0.64196	0.91788	-0.077
Mof_H 	H 	0.9303	0.6538	0.905	0.089
Mof_C 	C 	0.83703	0.64762	0.9018	0.107
Mof_C 	C 	0.87992	0.66363	0.83867	0.229
Mof_C 	C 	0.86937	0.68133	0.80226	-0.104
Mof_C 	C 	0.83336	0.71203	0.78802	0.066
Mof_H 	H 	0.809	0.7282	0.8016	-0.009
Mof_C 	C 	0.89748	0.66706	0.7719	0.068
Mof_H 	H 	0.9255	0.6469	0.7725	0.013
Mof_Zn	Zn	0.74674	0.95323	0.28722	1.183
Mof_Zn	Zn	0.66041	0.88896	0.3573	1.206
Mof_O 	O 	0.32604	0.93113	0.29444	-0.461
Mof_O 	O 	0.36867	0.90625	0.3435	-0.485
Mof_O 	O 	0.59452	0.91312	0.33368	-0.492
Mof_O 	O 	0.65933	0.95939	0.28398	-0.507
Mof_O 	O 	0.58769	0.97716	0.17862	-0.239
Mof_O 	O 	0.73242	0.88403	0.32586	-0.811
Mof_H 	H 	0.77187	0.89293	0.33973	0.196
Mof_N 	N 	0.54524	0.01962	0.07557	-0.247
Mof_N 	N 	0.50605	0.00237	0.19859	-0.152
Mof_N 	N 	0.50521	0.04842	0.08531	-0.247
Mof_C 	C 	0.37208	0.92631	0.3112	0.38
Mof_C 	C 	0.43778	0.94432	0.29062	-0.076
Mof_C 	C 	0.4452	0.96685	0.25529	-0.072
Mof_H 	H 	0.41037	0.97273	0.24473	0.078
Mof_C 	C 	0.60636	0.94059	0.30267	0.388
Mof_C 	C 	0.54976	0.9516	0.28705	-0.076
Mof_C 	C 	0.49039	0.93622	0.30629	0.012
Mof_H 	H 	0.48547	0.92033	0.32993	0.04
Mof_C 	C 	0.55655	0.97529	0.25121	-0.077
Mof_H 	H 	0.59697	0.98713	0.23833	0.089
Mof_C 	C 	0.5037	0.98095	0.23513	0.107
Mof_C 	C 	0.54659	0.99696	0.172	0.229
Mof_C 	C 	0.53604	0.01466	0.13559	-0.104
Mof_C 	C 	0.50003	0.04536	0.12135	0.066
Mof_H 	H 	0.47567	0.06153	0.13493	-0.009
Mof_C 	C 	0.56415	0.00039	0.10523	0.068
Mof_H 	H 	0.59217	0.98023	0.10583	0.013
Mof_Zn	Zn	0.41341	0.28656	0.62055	1.183
Mof_Zn	Zn	0.32708	0.2223	0.69063	1.206
Mof_O 	O 	0.9927	0.26447	0.62778	-0.461
Mof_O 	O 	0.03533	0.23959	0.67684	-0.485
Mof_O 	O 	0.26118	0.24646	0.66702	-0.491
Mof_O 	O 	0.32599	0.29273	0.61732	-0.507
Mof_O 	O 	0.25435	0.3105	0.51196	-0.239
Mof_O 	O 	0.39908	0.21737	0.6592	-0.811
Mof_H 	H 	0.43853	0.22627	0.67307	0.196
Mof_N 	N 	0.2119	0.35296	0.40891	-0.247
Mof_N 	N 	0.17271	0.33571	0.53193	-0.152
Mof_N 	N 	0.17187	0.38176	0.41865	-0.247
Mof_C 	C 	0.03874	0.25965	0.64454	0.38
Mof_C 	C 	0.10444	0.27766	0.62396	-0.076
Mof_C 	C 	0.11186	0.30019	0.58863	-0.072
Mof_H 	H 	0.07703	0.30607	0.57807	0.078
Mof_C 	C 	0.27302	0.27393	0.63601	0.388
Mof_C 	C 	0.21642	0.28494	0.62039	-0.076
Mof_C 	C 	0.15705	0.26956	0.63963	0.012
Mof_H 	H 	0.15213	0.25367	0.66327	0.04
Mof_C 	C 	0.22321	0.30863	0.58455	-0.077
Mof_H 	H 	0.26363	0.32047	0.57167	0.089
Mof_C 	C 	0.17036	0.31429	0.56847	0.107
Mof_C 	C 	0.21325	0.3303	0.50534	0.229
Mof_C 	C 	0.2027	0.348	0.46893	-0.104
Mof_C 	C 	0.16669	0.3787	0.45469	0.066
Mof_H 	H 	0.14233	0.39487	0.46827	-0.009
Mof_C 	C 	0.23081	0.33373	0.43857	0.068
Mof_H 	H 	0.25883	0.31357	0.43917	0.013
Mof_Zn	Zn	0.3801	0.46018	0.95389	1.183
Mof_Zn	Zn	0.44437	0.43812	0.02396	1.206
Mof_O 	O 	0.4022	0.06157	0.96111	-0.461
Mof_O 	O 	0.42708	0.12908	0.01017	-0.485
Mof_O 	O 	0.42021	0.34806	0.00035	-0.492
Mof_O 	O 	0.37394	0.3666	0.95065	-0.507
Mof_O 	O 	0.35617	0.27719	0.84529	-0.239
Mof_O 	O 	0.4493	0.51505	0.99253	-0.811
Mof_H 	H 	0.4404	0.5456	0.0064	0.196
Mof_N 	N 	0.31371	0.19228	0.74224	-0.247
Mof_N 	N 	0.33096	0.17034	0.86526	-0.152
Mof_N 	N 	0.28491	0.12345	0.75198	-0.247
Mof_C 	C 	0.40702	0.11243	0.97787	0.38
Mof_C 	C 	0.38901	0.16012	0.95729	-0.076
Mof_C 	C 	0.36648	0.14501	0.92196	-0.072
Mof_H 	H 	0.3606	0.1043	0.9114	0.078
Mof_C 	C 	0.39274	0.33243	0.96934	0.388
Mof_C 	C 	0.38173	0.26482	0.95372	-0.076
Mof_C 	C 	0.39711	0.22083	0.97296	0.012
Mof_H 	H 	0.413	0.2318	0.9966	0.04
Mof_C 	C 	0.35804	0.24792	0.91788	-0.077
Mof_H 	H 	0.3462	0.2765	0.905	0.089
Mof_C 	C 	0.35238	0.18941	0.9018	0.107
Mof_C 	C 	0.33637	0.21629	0.83867	0.229
Mof_C 	C 	0.31867	0.18804	0.80226	-0.104
Mof_C 	C 	0.28797	0.12133	0.78802	0.066
Mof_H 	H 	0.2718	0.0808	0.8016	-0.009
Mof_C 	C 	0.33294	0.23042	0.7719	0.068
Mof_H 	H 	0.3531	0.2786	0.7725	0.013
Mof_Zn	Zn	0.04677	0.79351	0.28722	1.183
Mof_Zn	Zn	0.11104	0.77145	0.3573	1.206
Mof_O 	O 	0.06887	0.3949	0.29444	-0.461
Mof_O 	O 	0.09375	0.46241	0.3435	-0.485
Mof_O 	O 	0.08688	0.68139	0.33368	-0.491
Mof_O 	O 	0.04061	0.69993	0.28398	-0.507
Mof_O 	O 	0.02284	0.61052	0.17862	-0.239
Mof_O 	O 	0.11597	0.84838	0.32586	-0.811
Mof_H 	H 	0.10707	0.87893	0.33973	0.196
Mof_N 	N 	0.98038	0.52561	0.07557	-0.247
Mof_N 	N 	0.99763	0.50367	0.19859	-0.152
Mof_N 	N 	0.95158	0.45678	0.08531	-0.247
Mof_C 	C 	0.07369	0.44576	0.3112	0.38
Mof_C 	C 	0.05568	0.49345	0.29062	-0.076
Mof_C 	C 	0.03315	0.47834	0.25529	-0.072
Mof_H 	H 	0.02727	0.43763	0.24473	0.078
Mof_C 	C 	0.05941	0.66576	0.30267	0.388
Mof_C 	C 	0.0484	0.59815	0.28705	-0.076
Mof_C 	C 	0.06378	0.55416	0.30629	0.012
Mof_H 	H 	0.07967	0.56513	0.32993	0.04
Mof_C 	C 	0.02471	0.58125	0.25121	-0.077
Mof_H 	H 	0.01287	0.60983	0.23833	0.089
Mof_C 	C 	0.01905	0.52274	0.23513	0.107
Mof_C 	C 	0.00304	0.54962	0.172	0.229
Mof_C 	C 	0.98534	0.52137	0.13559	-0.104
Mof_C 	C 	0.95464	0.45466	0.12135	0.066
Mof_H 	H 	0.93847	0.41413	0.13493	-0.009
Mof_C 	C 	0.99961	0.56375	0.10523	0.068
Mof_H 	H 	0.01977	0.61193	0.10583	0.013
Mof_Zn	Zn	0.71344	0.12685	0.62055	1.183
Mof_Zn	Zn	0.7777	0.10479	0.69063	1.206
Mof_O 	O 	0.73553	0.72824	0.62778	-0.461
Mof_O 	O 	0.76041	0.79575	0.67684	-0.485
Mof_O 	O 	0.75354	0.01473	0.66702	-0.491
Mof_O 	O 	0.70727	0.03327	0.61732	-0.507
Mof_O 	O 	0.6895	0.94386	0.51196	-0.239
Mof_O 	O 	0.78263	0.18172	0.6592	-0.811
Mof_H 	H 	0.77373	0.21227	0.67307	0.196
Mof_N 	N 	0.64704	0.85895	0.40891	-0.247
Mof_N 	N 	0.66429	0.83701	0.53193	-0.152
Mof_N 	N 	0.61824	0.79012	0.41865	-0.247
Mof_C 	C 	0.74035	0.7791	0.64454	0.38
Mof_C 	C 	0.72234	0.82679	0.62396	-0.076
Mof_C 	C 	0.69981	0.81168	0.58863	-0.072
Mof_H 	H 	0.69393	0.77097	0.57807	0.078
Mof_C 	C 	0.72607	0.9991	0.63601	0.388
Mof_C 	C 	0.71506	0.93149	0.62039	-0.076
Mof_C 	C 	0.73044	0.8875	0.63963	0.012
Mof_H 	H 	0.74633	0.89847	0.66327	0.04
Mof_C 	C 	0.69137	0.91459	0.58455	-0.077
Mof_H 	H 	0.67953	0.94317	0.57167	0.089
Mof_C 	C 	0.68571	0.85608	0.56847	0.107
Mof_C 	C 	0.6697	0.88296	0.50534	0.229
Mof_C 	C 	0.652	0.85471	0.46893	-0.104
Mof_C 	C 	0.6213	0.788	0.45469	0.066
Mof_H 	H 	0.60513	0.74747	0.46827	-0.009
Mof_C 	C 	0.66627	0.89709	0.43857	0.068
Mof_H 	H 	0.68643	0.94527	0.43917	0.013
Mof_Zn	Zn	0.53982	0.91993	0.95389	1.183
Mof_Zn	Zn	0.56188	0.00625	0.02396	1.206
Mof_O 	O 	0.93843	0.34063	0.96111	-0.461
Mof_O 	O 	0.87092	0.298	0.01017	-0.485
Mof_O 	O 	0.65194	0.07215	0.00035	-0.491
Mof_O 	O 	0.6334	0.00734	0.95065	-0.507
Mof_O 	O 	0.72281	0.07898	0.84529	-0.239
Mof_O 	O 	0.48495	0.93425	0.99253	-0.811
Mof_H 	H 	0.4544	0.8948	0.0064	0.196
Mof_N 	N 	0.80772	0.12143	0.74224	-0.247
Mof_N 	N 	0.82966	0.16062	0.86526	-0.152
Mof_N 	N 	0.87655	0.16146	0.75198	-0.247
Mof_C 	C 	0.88757	0.29459	0.97787	0.38
Mof_C 	C 	0.83988	0.22889	0.95729	-0.076
Mof_C 	C 	0.85499	0.22147	0.92196	-0.072
Mof_H 	H 	0.8957	0.2563	0.9114	0.078
Mof_C 	C 	0.66757	0.06031	0.96934	0.388
Mof_C 	C 	0.73518	0.11691	0.95372	-0.076
Mof_C 	C 	0.77917	0.17628	0.97296	0.012
Mof_H 	H 	0.7682	0.1812	0.9966	0.04
Mof_C 	C 	0.75208	0.11012	0.91788	-0.077
Mof_H 	H 	0.7235	0.0697	0.905	0.089
Mof_C 	C 	0.81059	0.16297	0.9018	0.107
Mof_C 	C 	0.78371	0.12008	0.83867	0.229
Mof_C 	C 	0.81196	0.13063	0.80226	-0.104
Mof_C 	C 	0.87867	0.16664	0.78802	0.066
Mof_H 	H 	0.9192	0.191	0.8016	-0.009
Mof_C 	C 	0.76958	0.10252	0.7719	0.068
Mof_H 	H 	0.7214	0.0745	0.7725	0.013
Mof_Zn	Zn	0.20649	0.25326	0.28722	1.183
Mof_Zn	Zn	0.22855	0.33959	0.3573	1.206
Mof_O 	O 	0.6051	0.67396	0.29444	-0.461
Mof_O 	O 	0.53759	0.63133	0.3435	-0.485
Mof_O 	O 	0.31861	0.40548	0.33368	-0.491
Mof_O 	O 	0.30007	0.34067	0.28398	-0.507
Mof_O 	O 	0.38948	0.41231	0.17862	-0.239
Mof_O 	O 	0.15162	0.26758	0.32586	-0.811
Mof_H 	H 	0.12107	0.22813	0.33973	0.196
Mof_N 	N 	0.47439	0.45476	0.07557	-0.247
Mof_N 	N 	0.49633	0.49395	0.19859	-0.152
Mof_N 	N 	0.54322	0.49479	0.08531	-0.247
Mof_C 	C 	0.55424	0.62792	0.3112	0.38
Mof_C 	C 	0.50655	0.56222	0.29062	-0.076
Mof_C 	C 	0.52166	0.5548	0.25529	-0.072
Mof_H 	H 	0.56237	0.58963	0.24473	0.078
Mof_C 	C 	0.33424	0.39364	0.30267	0.388
Mof_C 	C 	0.40185	0.45024	0.28705	-0.076
Mof_C 	C 	0.44584	0.50961	0.30629	0.012
Mof_H 	H 	0.43487	0.51453	0.32993	0.04
Mof_C 	C 	0.41875	0.44345	0.25121	-0.077
Mof_H 	H 	0.39017	0.40303	0.23833	0.089
Mof_C 	C 	0.47726	0.4963	0.23513	0.107
Mof_C 	C 	0.45038	0.45341	0.172	0.229
Mof_C 	C 	0.47863	0.46396	0.13559	-0.104
Mof_C 	C 	0.54534	0.49997	0.12135	0.066
Mof_H 	H 	0.58587	0.52433	0.13493	-0.009
Mof_C 	C 	0.43625	0.43585	0.10523	0.068
Mof_H 	H 	0.38807	0.40783	0.10583	0.013
Mof_Zn	Zn	0.87315	0.58659	0.62055	1.183
Mof_Zn	Zn	0.89521	0.67292	0.69063	1.206
Mof_O 	O 	0.27176	0.0073	0.62778	-0.461
Mof_O 	O 	0.20425	0.96467	0.67684	-0.485
Mof_O 	O 	0.98527	0.73882	0.66702	-0.491
Mof_O 	O 	0.96673	0.67401	0.61732	-0.507
Mof_O 	O 	0.05614	0.74565	0.51196	-0.239
Mof_O 	O 	0.81828	0.60092	0.6592	-0.811
Mof_H 	H 	0.78773	0.56147	0.67307	0.196
Mof_N 	N 	0.14105	0.7881	0.40891	-0.247
Mof_N 	N 	0.16299	0.82729	0.53193	-0.152
Mof_N 	N 	0.20988	0.82813	0.41865	-0.247
Mof_C 	C 	0.2209	0.96126	0.64454	0.38
Mof_C 	C 	0.17321	0.89556	0.62396	-0.076
Mof_C 	C 	0.18832	0.88814	0.58863	-0.072
Mof_H 	H 	0.22903	0.92297	0.57807	0.078
Mof_C 	C 	0.0009	0.72698	0.63601	0.388
Mof_C 	C 	0.06851	0.78358	0.62039	-0.076
Mof_C 	C 	0.1125	0.84295	0.63963	0.012
Mof_H 	H 	0.10153	0.84787	0.66327	0.04
Mof_C 	C 	0.08541	0.77679	0.58455	-0.077
Mof_H 	H 	0.05683	0.73637	0.57167	0.089
Mof_C 	C 	0.14392	0.82964	0.56847	0.107
Mof_C 	C 	0.11704	0.78675	0.50534	0.229
Mof_C 	C 	0.14529	0.7973	0.46893	-0.104
Mof_C 	C 	0.212	0.83331	0.45469	0.066
Mof_H 	H 	0.25253	0.85767	0.46827	-0.009
Mof_C 	C 	0.10291	0.76919	0.43857	0.068
Mof_H 	H 	0.05473	0.74117	0.43917	0.013
Mof_Zn	Zn	0.91993	0.3801	0.04611	1.183
Mof_Zn	Zn	0.00625	0.44437	0.97604	1.206
Mof_O 	O 	0.34063	0.4022	0.03889	-0.461
Mof_O 	O 	0.298	0.42708	0.98983	-0.485
Mof_O 	O 	0.07215	0.42021	0.99965	-0.492
Mof_O 	O 	0.00734	0.37394	0.04935	-0.507
Mof_O 	O 	0.07898	0.35617	0.15471	-0.239
Mof_O 	O 	0.93425	0.4493	0.00747	-0.811
Mof_H 	H 	0.8948	0.4404	0.9936	0.196
Mof_N 	N 	0.12143	0.31371	0.25776	-0.247
Mof_N 	N 	0.16062	0.33096	0.13474	-0.152
Mof_N 	N 	0.16146	0.28491	0.24802	-0.247
Mof_C 	C 	0.29459	0.40702	0.02213	0.38
Mof_C 	C 	0.22889	0.38901	0.04271	-0.076
Mof_C 	C 	0.22147	0.36648	0.07804	-0.072
Mof_H 	H 	0.2563	0.3606	0.0886	0.078
Mof_C 	C 	0.06031	0.39274	0.03066	0.388
Mof_C 	C 	0.11691	0.38173	0.04628	-0.076
Mof_C 	C 	0.17628	0.39711	0.02704	0.012
Mof_H 	H 	0.1812	0.413	0.0034	0.04
Mof_C 	C 	0.11012	0.35804	0.08212	-0.077
Mof_H 	H 	0.0697	0.3462	0.095	0.089
Mof_C 	C 	0.16297	0.35238	0.0982	0.107
Mof_C 	C 	0.12008	0.33637	0.16133	0.229
Mof_C 	C 	0.13063	0.31867	0.19774	-0.104
Mof_C 	C 	0.16664	0.28797	0.21198	0.066
Mof_H 	H 	0.191	0.2718	0.1984	-0.009
Mof_C 	C 	0.10252	0.33294	0.2281	0.068
Mof_H 	H 	0.0745	0.3531	0.2275	0.013
Mof_Zn	Zn	0.58659	0.71344	0.37945	1.183
Mof_Zn	Zn	0.67292	0.7777	0.30937	1.206
Mof_O 	O 	0.0073	0.73553	0.37222	-0.461
Mof_O 	O 	0.96467	0.76041	0.32316	-0.485
Mof_O 	O 	0.73882	0.75354	0.33298	-0.491
Mof_O 	O 	0.67401	0.70727	0.38268	-0.507
Mof_O 	O 	0.74565	0.6895	0.48804	-0.239
Mof_O 	O 	0.60092	0.78263	0.3408	-0.811
Mof_H 	H 	0.56147	0.77373	0.32693	0.196
Mof_N 	N 	0.7881	0.64704	0.59109	-0.247
Mof_N 	N 	0.82729	0.66429	0.46807	-0.152
Mof_N 	N 	0.82813	0.61824	0.58135	-0.247
Mof_C 	C 	0.96126	0.74035	0.35546	0.38
Mof_C 	C 	0.89556	0.72234	0.37604	-0.076
Mof_C 	C 	0.88814	0.69981	0.41137	-0.072
Mof_H 	H 	0.92297	0.69393	0.42193	0.078
Mof_C 	C 	0.72698	0.72607	0.36399	0.388
Mof_C 	C 	0.78358	0.71506	0.37961	-0.076
Mof_C 	C 	0.84295	0.73044	0.36037	0.012
Mof_H 	H 	0.84787	0.74633	0.33673	0.04
Mof_C 	C 	0.77679	0.69137	0.41545	-0.077
Mof_H 	H 	0.73637	0.67953	0.42833	0.089
Mof_C 	C 	0.82964	0.68571	0.43153	0.107
Mof_C 	C 	0.78675	0.6697	0.49466	0.229
Mof_C 	C 	0.7973	0.652	0.53107	-0.104
Mof_C 	C 	0.83331	0.6213	0.54531	0.066
Mof_H 	H 	0.85767	0.60513	0.53173	-0.009
Mof_C 	C 	0.76919	0.66627	0.56143	0.068
Mof_H 	H 	0.74117	0.68643	0.56083	0.013
Mof_Zn	Zn	0.25326	0.04677	0.71278	1.183
Mof_Zn	Zn	0.33959	0.11104	0.6427	1.206
Mof_O 	O 	0.67396	0.06887	0.70556	-0.461
Mof_O 	O 	0.63133	0.09375	0.6565	-0.485
Mof_O 	O 	0.40548	0.08688	0.66632	-0.492
Mof_O 	O 	0.34067	0.04061	0.71602	-0.507
Mof_O 	O 	0.41231	0.02284	0.82138	-0.239
Mof_O 	O 	0.26758	0.11597	0.67414	-0.811
Mof_H 	H 	0.22813	0.10707	0.66027	0.196
Mof_N 	N 	0.45476	0.98038	0.92443	-0.247
Mof_N 	N 	0.49395	0.99763	0.80141	-0.152
Mof_N 	N 	0.49479	0.95158	0.91469	-0.247
Mof_C 	C 	0.62792	0.07369	0.6888	0.38
Mof_C 	C 	0.56222	0.05568	0.70938	-0.076
Mof_C 	C 	0.5548	0.03315	0.74471	-0.072
Mof_H 	H 	0.58963	0.02727	0.75527	0.078
Mof_C 	C 	0.39364	0.05941	0.69733	0.388
Mof_C 	C 	0.45024	0.0484	0.71295	-0.076
Mof_C 	C 	0.50961	0.06378	0.69371	0.012
Mof_H 	H 	0.51453	0.07967	0.67007	0.04
Mof_C 	C 	0.44345	0.02471	0.74879	-0.077
Mof_H 	H 	0.40303	0.01287	0.76167	0.089
Mof_C 	C 	0.4963	0.01905	0.76487	0.107
Mof_C 	C 	0.45341	0.00304	0.828	0.229
Mof_C 	C 	0.46396	0.98534	0.86441	-0.104
Mof_C 	C 	0.49997	0.95464	0.87865	0.066
Mof_H 	H 	0.52433	0.93847	0.86507	-0.009
Mof_C 	C 	0.43585	0.99961	0.89477	0.068
Mof_H 	H 	0.40783	0.01977	0.89417	0.013
Mof_Zn	Zn	0.6199	0.53982	0.04611	1.183
Mof_Zn	Zn	0.55563	0.56188	0.97604	1.206
Mof_O 	O 	0.5978	0.93843	0.03889	-0.461
Mof_O 	O 	0.57292	0.87092	0.98983	-0.485
Mof_O 	O 	0.57979	0.65194	0.99965	-0.492
Mof_O 	O 	0.62606	0.6334	0.04935	-0.507
Mof_O 	O 	0.64383	0.72281	0.15471	-0.239
Mof_O 	O 	0.5507	0.48495	0.00747	-0.811
Mof_H 	H 	0.5596	0.4544	0.9936	0.196
Mof_N 	N 	0.68629	0.80772	0.25776	-0.247
Mof_N 	N 	0.66904	0.82966	0.13474	-0.152
Mof_N 	N 	0.71509	0.87655	0.24802	-0.247
Mof_C 	C 	0.59298	0.88757	0.02213	0.38
Mof_C 	C 	0.61099	0.83988	0.04271	-0.076
Mof_C 	C 	0.63352	0.85499	0.07804	-0.072
Mof_H 	H 	0.6394	0.8957	0.0886	0.078
Mof_C 	C 	0.60726	0.66757	0.03066	0.388
Mof_C 	C 	0.61827	0.73518	0.04628	-0.076
Mof_C 	C 	0.60289	0.77917	0.02704	0.012
Mof_H 	H 	0.587	0.7682	0.0034	0.04
Mof_C 	C 	0.64196	0.75208	0.08212	-0.077
Mof_H 	H 	0.6538	0.7235	0.095	0.089
Mof_C 	C 	0.64762	0.81059	0.0982	0.107
Mof_C 	C 	0.66363	0.78371	0.16133	0.229
Mof_C 	C 	0.68133	0.81196	0.19774	-0.104
Mof_C 	C 	0.71203	0.87867	0.21198	0.066
Mof_H 	H 	0.7282	0.9192	0.1984	-0.009
Mof_C 	C 	0.66706	0.76958	0.2281	0.068
Mof_H 	H 	0.6469	0.7214	0.2275	0.013
Mof_Zn	Zn	0.28656	0.87315	0.37945	1.183
Mof_Zn	Zn	0.2223	0.89521	0.30937	1.206
Mof_O 	O 	0.26447	0.27176	0.37222	-0.461
Mof_O 	O 	0.23959	0.20425	0.32316	-0.485
Mof_O 	O 	0.24646	0.98527	0.33298	-0.491
Mof_O 	O 	0.29273	0.96673	0.38268	-0.507
Mof_O 	O 	0.3105	0.05614	0.48804	-0.239
Mof_O 	O 	0.21737	0.81828	0.3408	-0.811
Mof_H 	H 	0.22627	0.78773	0.32693	0.196
Mof_N 	N 	0.35296	0.14105	0.59109	-0.247
Mof_N 	N 	0.33571	0.16299	0.46807	-0.152
Mof_N 	N 	0.38176	0.20988	0.58135	-0.247
Mof_C 	C 	0.25965	0.2209	0.35546	0.38
Mof_C 	C 	0.27766	0.17321	0.37604	-0.076
Mof_C 	C 	0.30019	0.18832	0.41137	-0.072
Mof_H 	H 	0.30607	0.22903	0.42193	0.078
Mof_C 	C 	0.27393	0.0009	0.36399	0.388
Mof_C 	C 	0.28494	0.06851	0.37961	-0.076
Mof_C 	C 	0.26956	0.1125	0.36037	0.012
Mof_H 	H 	0.25367	0.10153	0.33673	0.04
Mof_C 	C 	0.30863	0.08541	0.41545	-0.077
Mof_H 	H 	0.32047	0.05683	0.42833	0.089
Mof_C 	C 	0.31429	0.14392	0.43153	0.107
Mof_C 	C 	0.3303	0.11704	0.49466	0.229
Mof_C 	C 	0.348	0.14529	0.53107	-0.104
Mof_C 	C 	0.3787	0.212	0.54531	0.066
Mof_H 	H 	0.39487	0.25253	0.53173	-0.009
Mof_C 	C 	0.33373	0.10291	0.56143	0.068
Mof_H 	H 	0.31357	0.05473	0.56083	0.013
Mof_Zn	Zn	0.95323	0.20649	0.71278	1.183
Mof_Zn	Zn	0.88896	0.22855	0.6427	1.206
Mof_O 	O 	0.93113	0.6051	0.70556	-0.461
Mof_O 	O 	0.90625	0.53759	0.6565	-0.485
Mof_O 	O 	0.91312	0.31861	0.66632	-0.491
Mof_O 	O 	0.95939	0.30007	0.71602	-0.507
Mof_O 	O 	0.97716	0.38948	0.82138	-0.239
Mof_O 	O 	0.88403	0.15162	0.67414	-0.811
Mof_H 	H 	0.89293	0.12107	0.66027	0.196
Mof_N 	N 	0.01962	0.47439	0.92443	-0.247
Mof_N 	N 	0.00237	0.49633	0.80141	-0.152
Mof_N 	N 	0.04842	0.54322	0.91469	-0.247
Mof_C 	C 	0.92631	0.55424	0.6888	0.38
Mof_C 	C 	0.94432	0.50655	0.70938	-0.076
Mof_C 	C 	0.96685	0.52166	0.74471	-0.072
Mof_H 	H 	0.97273	0.56237	0.75527	0.078
Mof_C 	C 	0.94059	0.33424	0.69733	0.388
Mof_C 	C 	0.9516	0.40185	0.71295	-0.076
Mof_C 	C 	0.93622	0.44584	0.69371	0.012
Mof_H 	H 	0.92033	0.43487	0.67007	0.04
Mof_C 	C 	0.97529	0.41875	0.74879	-0.077
Mof_H 	H 	0.98713	0.39017	0.76167	0.089
Mof_C 	C 	0.98095	0.47726	0.76487	0.107
Mof_C 	C 	0.99696	0.45038	0.828	0.229
Mof_C 	C 	0.01466	0.47863	0.86441	-0.104
Mof_C 	C 	0.04536	0.54534	0.87865	0.066
Mof_H 	H 	0.06153	0.58587	0.86507	-0.009
Mof_C 	C 	0.00039	0.43625	0.89477	0.068
Mof_H 	H 	0.98023	0.38807	0.89417	0.013
Mof_Zn	Zn	0.46018	0.08007	0.04611	1.183
Mof_Zn	Zn	0.43812	0.99375	0.97604	1.206
Mof_O 	O 	0.06157	0.65937	0.03889	-0.461
Mof_O 	O 	0.12908	0.702	0.98983	-0.485
Mof_O 	O 	0.34806	0.92785	0.99965	-0.491
Mof_O 	O 	0.3666	0.99266	0.04935	-0.507
Mof_O 	O 	0.27719	0.92102	0.15471	-0.239
Mof_O 	O 	0.51505	0.06575	0.00747	-0.811
Mof_H 	H 	0.5456	0.1052	0.9936	0.196
Mof_N 	N 	0.19228	0.87857	0.25776	-0.247
Mof_N 	N 	0.17034	0.83938	0.13474	-0.152
Mof_N 	N 	0.12345	0.83854	0.24802	-0.247
Mof_C 	C 	0.11243	0.70541	0.02213	0.38
Mof_C 	C 	0.16012	0.77111	0.04271	-0.076
Mof_C 	C 	0.14501	0.77853	0.07804	-0.072
Mof_H 	H 	0.1043	0.7437	0.0886	0.078
Mof_C 	C 	0.33243	0.93969	0.03066	0.388
Mof_C 	C 	0.26482	0.88309	0.04628	-0.076
Mof_C 	C 	0.22083	0.82372	0.02704	0.012
Mof_H 	H 	0.2318	0.8188	0.0034	0.04
Mof_C 	C 	0.24792	0.88988	0.08212	-0.077
Mof_H 	H 	0.2765	0.9303	0.095	0.089
Mof_C 	C 	0.18941	0.83703	0.0982	0.107
Mof_C 	C 	0.21629	0.87992	0.16133	0.229
Mof_C 	C 	0.18804	0.86937	0.19774	-0.104
Mof_C 	C 	0.12133	0.83336	0.21198	0.066
Mof_H 	H 	0.0808	0.809	0.1984	-0.009
Mof_C 	C 	0.23042	0.89748	0.2281	0.068
Mof_H 	H 	0.2786	0.9255	0.2275	0.013
Mof_Zn	Zn	0.12685	0.41341	0.37945	1.183
Mof_Zn	Zn	0.10479	0.32708	0.30937	1.206
Mof_O 	O 	0.72824	0.9927	0.37222	-0.461
Mof_O 	O 	0.79575	0.03533	0.32316	-0.485
Mof_O 	O 	0.01473	0.26118	0.33298	-0.491
Mof_O 	O 	0.03327	0.32599	0.38268	-0.507
Mof_O 	O 	0.94386	0.25435	0.48804	-0.239
Mof_O 	O 	0.18172	0.39908	0.3408	-0.811
Mof_H 	H 	0.21227	0.43853	0.32693	0.196
Mof_N 	N 	0.85895	0.2119	0.59109	-0.247
Mof_N 	N 	0.83701	0.17271	0.46807	-0.152
Mof_N 	N 	0.79012	0.17187	0.58135	-0.247
Mof_C 	C 	0.7791	0.03874	0.35546	0.38
Mof_C 	C 	0.82679	0.10444	0.37604	-0.076
Mof_C 	C 	0.81168	0.11186	0.41137	-0.072
Mof_H 	H 	0.77097	0.07703	0.42193	0.078
Mof_C 	C 	0.9991	0.27302	0.36399	0.388
Mof_C 	C 	0.93149	0.21642	0.37961	-0.076
Mof_C 	C 	0.8875	0.15705	0.36037	0.012
Mof_H 	H 	0.89847	0.15213	0.33673	0.04
Mof_C 	C 	0.91459	0.22321	0.41545	-0.077
Mof_H 	H 	0.94317	0.26363	0.42833	0.089
Mof_C 	C 	0.85608	0.17036	0.43153	0.107
Mof_C 	C 	0.88296	0.21325	0.49466	0.229
Mof_C 	C 	0.85471	0.2027	0.53107	-0.104
Mof_C 	C 	0.788	0.16669	0.54531	0.066
Mof_H 	H 	0.74747	0.14233	0.53173	-0.009
Mof_C 	C 	0.89709	0.23081	0.56143	0.068
Mof_H 	H 	0.94527	0.25883	0.56083	0.013
Mof_Zn	Zn	0.79351	0.74674	0.71278	1.183
Mof_Zn	Zn	0.77145	0.66041	0.6427	1.206
Mof_O 	O 	0.3949	0.32604	0.70556	-0.461
Mof_O 	O 	0.46241	0.36867	0.6565	-0.485
Mof_O 	O 	0.68139	0.59452	0.66632	-0.491
Mof_O 	O 	0.69993	0.65933	0.71602	-0.507
Mof_O 	O 	0.61052	0.58769	0.82138	-0.239
Mof_O 	O 	0.84838	0.73242	0.67414	-0.811
Mof_H 	H 	0.87893	0.77187	0.66027	0.196
Mof_N 	N 	0.52561	0.54524	0.92443	-0.247
Mof_N 	N 	0.50367	0.50605	0.80141	-0.152
Mof_N 	N 	0.45678	0.50521	0.91469	-0.247
Mof_C 	C 	0.44576	0.37208	0.6888	0.38
Mof_C 	C 	0.49345	0.43778	0.70938	-0.076
Mof_C 	C 	0.47834	0.4452	0.74471	-0.072
Mof_H 	H 	0.43763	0.41037	0.75527	0.078
Mof_C 	C 	0.66576	0.60636	0.69733	0.388
Mof_C 	C 	0.59815	0.54976	0.71295	-0.076
Mof_C 	C 	0.55416	0.49039	0.69371	0.012
Mof_H 	H 	0.56513	0.48547	0.67007	0.04
Mof_C 	C 	0.58125	0.55655	0.74879	-0.077
Mof_H 	H 	0.60983	0.59697	0.76167	0.089
Mof_C 	C 	0.52274	0.5037	0.76487	0.107
Mof_C 	C 	0.54962	0.54659	0.828	0.229
Mof_C 	C 	0.52137	0.53604	0.86441	-0.104
Mof_C 	C 	0.45466	0.50003	0.87865	0.066
Mof_H 	H 	0.41413	0.47567	0.86507	-0.009
Mof_C 	C 	0.56375	0.56415	0.89477	0.068
Mof_H 	H 	0.61193	0.59217	0.89417	0.013
_end
