data_functionalizedCrystal
_audit_creation_method	'EQeq! by Chris Wilmer'
_symmetry_space_group_name_H-M	'P1'
_symmetry_Int_Tables_number	1
_symmetry_cell_setting	triclinic
loop_
_symmetry_equiv_pos_as_xyz
  x,y,z
_cell_length_a	10.8416
_cell_length_b	17.6498
_cell_length_c	18.5049
_cell_angle_alpha	90
_cell_angle_beta	92.707
_cell_angle_gamma	90
loop_
_atom_site_label
_atom_site_type_symbol
_atom_site_fract_x
_atom_site_fract_y
_atom_site_fract_z
_atom_site_charge
Mof_Ba	Ba	0.19912	0.81875	0.24691	1.889
Mof_Fe	Fe	0.75151	0.04535	0.25202	0.955
Mof_Fe	Fe	0.69683	0.65608	0.25204	0.964
Mof_O 	O 	0.6685	0.99322	0.3326	-0.381
Mof_O 	O 	0.7073	0.13736	0.31177	-0.373
Mof_O 	O 	0.5791	0.01531	0.43654	-0.495
Mof_O 	O 	0.6444	0.16576	0.42191	-0.402
Mof_O 	O 	0.7868	0.11603	0.17178	-0.374
Mof_O 	O 	0.5951	0.02781	0.18747	-0.387
Mof_O 	O 	0.7161	0.14981	0.06117	-0.396
Mof_O 	O 	0.529	0.04349	0.07397	-0.516
Mof_O 	O 	0.9224	0.03479	0.29843	-0.332
Mof_O 	O 	0.8118	0.9518	0.20107	-0.357
Mof_O 	O 	0.0892	0.95734	0.30327	-0.367
Mof_O 	O 	0.9836	0.886	0.1813	-0.35
Mof_O 	O 	0.6243	0.56916	0.19302	-0.369
Mof_O 	O 	0.7435	0.5698	0.3186	-0.351
Mof_O 	O 	0.631	0.44254	0.1881	-0.485
Mof_O 	O 	0.7254	0.4445	0.32889	-0.504
Mof_O 	O 	0.5582	0.68239	0.31742	-0.342
Mof_O 	O 	0.6048	0.73088	0.18853	-0.38
Mof_O 	O 	0.3998	0.76163	0.32496	-0.482
Mof_O 	O 	0.4405	0.80656	0.18558	-0.497
Mof_O 	O 	0.802	0.7278	0.31284	-0.339
Mof_O 	O 	0.8438	0.65999	0.1922	-0.332
Mof_O 	O 	0.9852	0.7831	0.31726	-0.386
Mof_O 	O 	0.0317	0.71208	0.18876	-0.341
Mof_C 	C 	0.6325	0.0363	0.3831	0.266
Mof_C 	C 	0.6628	0.1208	0.3729	0.246
Mof_C 	C 	0.71	0.1128	0.1178	0.23
Mof_C 	C 	0.5995	0.057	0.1265	0.287
Mof_C 	C 	0.9873	0.9782	0.2785	0.247
Mof_C 	C 	0.9228	0.9338	0.2144	0.246
Mof_C 	C 	0.6503	0.5031	0.2186	0.277
Mof_C 	C 	0.7105	0.5044	0.2946	0.25
Mof_C 	C 	0.4858	0.7328	0.292	0.239
Mof_C 	C 	0.5091	0.7604	0.2153	0.276
Mof_C 	C 	0.9084	0.7412	0.2881	0.254
Mof_C 	C 	0.9327	0.7016	0.2173	0.239
Mof_Ba	Ba	0.44355	0.87865	0.4456	1.619
Mof_Ba	Ba	0.58057	0.1049	0.93862	1.786
Mof_O 	O 	0.2196	0.79881	0.09336	-0.367
Mof_O 	O 	0.5349	0.7224	0.47411	-0.373
Mof_Ba	Ba	0.80088	0.31875	0.25309	1.891
Mof_Fe	Fe	0.24849	0.54535	0.24798	0.955
Mof_Fe	Fe	0.30317	0.15608	0.24796	0.965
Mof_O 	O 	0.3315	0.49322	0.1674	-0.38
Mof_O 	O 	0.2927	0.63736	0.18823	-0.373
Mof_O 	O 	0.4209	0.51531	0.06346	-0.495
Mof_O 	O 	0.3556	0.66576	0.07809	-0.403
Mof_O 	O 	0.2132	0.61603	0.32822	-0.374
Mof_O 	O 	0.4049	0.52781	0.31253	-0.388
Mof_O 	O 	0.2839	0.64981	0.43883	-0.397
Mof_O 	O 	0.471	0.54349	0.42603	-0.518
Mof_O 	O 	0.0776	0.53479	0.20157	-0.331
Mof_O 	O 	0.1882	0.4518	0.29893	-0.356
Mof_O 	O 	0.9108	0.45734	0.19673	-0.365
Mof_O 	O 	0.0164	0.386	0.3187	-0.35
Mof_O 	O 	0.3757	0.06916	0.30698	-0.369
Mof_O 	O 	0.2565	0.0698	0.1814	-0.351
Mof_O 	O 	0.369	0.94254	0.3119	-0.486
Mof_O 	O 	0.2746	0.9445	0.17111	-0.506
Mof_O 	O 	0.4418	0.18239	0.18258	-0.341
Mof_O 	O 	0.3952	0.23088	0.31147	-0.38
Mof_O 	O 	0.6002	0.26163	0.17504	-0.482
Mof_O 	O 	0.5595	0.30656	0.31442	-0.497
Mof_O 	O 	0.198	0.2278	0.18716	-0.338
Mof_O 	O 	0.1562	0.15999	0.3078	-0.332
Mof_O 	O 	0.0148	0.2831	0.18274	-0.386
Mof_O 	O 	0.9683	0.21208	0.31124	-0.342
Mof_C 	C 	0.3675	0.5363	0.1169	0.266
Mof_C 	C 	0.3372	0.6208	0.1271	0.246
Mof_C 	C 	0.29	0.6128	0.3822	0.23
Mof_C 	C 	0.4005	0.557	0.3735	0.288
Mof_C 	C 	0.0127	0.4782	0.2215	0.246
Mof_C 	C 	0.0772	0.4338	0.2856	0.247
Mof_C 	C 	0.3497	0.0031	0.2814	0.278
Mof_C 	C 	0.2895	0.0044	0.2054	0.253
Mof_C 	C 	0.5142	0.2328	0.208	0.239
Mof_C 	C 	0.4909	0.2604	0.2847	0.276
Mof_C 	C 	0.0916	0.2412	0.2119	0.254
Mof_C 	C 	0.0673	0.2016	0.2827	0.24
Mof_Ba	Ba	0.55645	0.37865	0.0544	1.622
Mof_Ba	Ba	0.41943	0.6049	0.56138	1.79
Mof_O 	O 	0.7804	0.29881	0.40664	-0.367
Mof_O 	O 	0.4651	0.2224	0.02589	-0.372
Mof_Ba	Ba	0.80088	0.18125	0.75309	1.89
Mof_Fe	Fe	0.24849	0.95465	0.74798	0.956
Mof_Fe	Fe	0.30317	0.34392	0.74796	0.964
Mof_O 	O 	0.3315	0.00678	0.6674	-0.381
Mof_O 	O 	0.2927	0.86264	0.68823	-0.373
Mof_O 	O 	0.4209	0.98469	0.56346	-0.495
Mof_O 	O 	0.3556	0.83424	0.57809	-0.402
Mof_O 	O 	0.2132	0.88397	0.82822	-0.374
Mof_O 	O 	0.4049	0.97219	0.81253	-0.387
Mof_O 	O 	0.2839	0.85019	0.93883	-0.396
Mof_O 	O 	0.471	0.95651	0.92603	-0.516
Mof_O 	O 	0.0776	0.96521	0.70157	-0.332
Mof_O 	O 	0.1882	0.0482	0.79893	-0.357
Mof_O 	O 	0.9108	0.04266	0.69673	-0.367
Mof_O 	O 	0.0164	0.114	0.8187	-0.35
Mof_O 	O 	0.3757	0.43084	0.80698	-0.369
Mof_O 	O 	0.2565	0.4302	0.6814	-0.351
Mof_O 	O 	0.369	0.55746	0.8119	-0.485
Mof_O 	O 	0.2746	0.5555	0.67111	-0.504
Mof_O 	O 	0.4418	0.31761	0.68258	-0.342
Mof_O 	O 	0.3952	0.26912	0.81147	-0.38
Mof_O 	O 	0.6002	0.23837	0.67504	-0.482
Mof_O 	O 	0.5595	0.19344	0.81442	-0.497
Mof_O 	O 	0.198	0.2722	0.68716	-0.339
Mof_O 	O 	0.1562	0.34001	0.8078	-0.332
Mof_O 	O 	0.0148	0.2169	0.68274	-0.386
Mof_O 	O 	0.9683	0.28792	0.81124	-0.341
Mof_C 	C 	0.3675	0.9637	0.6169	0.266
Mof_C 	C 	0.3372	0.8792	0.6271	0.246
Mof_C 	C 	0.29	0.8872	0.8822	0.23
Mof_C 	C 	0.4005	0.943	0.8735	0.287
Mof_C 	C 	0.0127	0.0218	0.7215	0.247
Mof_C 	C 	0.0772	0.0662	0.7856	0.246
Mof_C 	C 	0.3497	0.4969	0.7814	0.277
Mof_C 	C 	0.2895	0.4956	0.7054	0.25
Mof_C 	C 	0.5142	0.2672	0.708	0.239
Mof_C 	C 	0.4909	0.2396	0.7847	0.276
Mof_C 	C 	0.0916	0.2588	0.7119	0.254
Mof_C 	C 	0.0673	0.2984	0.7827	0.239
Mof_Ba	Ba	0.55645	0.12135	0.5544	1.619
Mof_Ba	Ba	0.41943	0.8951	0.06138	1.786
Mof_O 	O 	0.7804	0.20119	0.90664	-0.367
Mof_O 	O 	0.4651	0.2776	0.52589	-0.373
Mof_Ba	Ba	0.19912	0.68125	0.74691	1.891
Mof_Fe	Fe	0.75151	0.45465	0.75202	0.955
Mof_Fe	Fe	0.69683	0.84392	0.75204	0.965
Mof_O 	O 	0.6685	0.50678	0.8326	-0.38
Mof_O 	O 	0.7073	0.36264	0.81177	-0.373
Mof_O 	O 	0.5791	0.48469	0.93654	-0.495
Mof_O 	O 	0.6444	0.33424	0.92191	-0.403
Mof_O 	O 	0.7868	0.38397	0.67178	-0.374
Mof_O 	O 	0.5951	0.47219	0.68747	-0.388
Mof_O 	O 	0.7161	0.35019	0.56117	-0.397
Mof_O 	O 	0.529	0.45651	0.57397	-0.518
Mof_O 	O 	0.9224	0.46521	0.79843	-0.331
Mof_O 	O 	0.8118	0.5482	0.70107	-0.356
Mof_O 	O 	0.0892	0.54266	0.80327	-0.365
Mof_O 	O 	0.9836	0.614	0.6813	-0.35
Mof_O 	O 	0.6243	0.93084	0.69302	-0.369
Mof_O 	O 	0.7435	0.9302	0.8186	-0.351
Mof_O 	O 	0.631	0.05746	0.6881	-0.486
Mof_O 	O 	0.7254	0.0555	0.82889	-0.506
Mof_O 	O 	0.5582	0.81761	0.81742	-0.341
Mof_O 	O 	0.6048	0.76912	0.68853	-0.38
Mof_O 	O 	0.3998	0.73837	0.82496	-0.482
Mof_O 	O 	0.4405	0.69344	0.68558	-0.497
Mof_O 	O 	0.802	0.7722	0.81284	-0.338
Mof_O 	O 	0.8438	0.84001	0.6922	-0.332
Mof_O 	O 	0.9852	0.7169	0.81726	-0.386
Mof_O 	O 	0.0317	0.78792	0.68876	-0.342
Mof_C 	C 	0.6325	0.4637	0.8831	0.266
Mof_C 	C 	0.6628	0.3792	0.8729	0.246
Mof_C 	C 	0.71	0.3872	0.6178	0.23
Mof_C 	C 	0.5995	0.443	0.6265	0.288
Mof_C 	C 	0.9873	0.5218	0.7785	0.246
Mof_C 	C 	0.9228	0.5662	0.7144	0.247
Mof_C 	C 	0.6503	0.9969	0.7186	0.278
Mof_C 	C 	0.7105	0.9956	0.7946	0.253
Mof_C 	C 	0.4858	0.7672	0.792	0.239
Mof_C 	C 	0.5091	0.7396	0.7153	0.276
Mof_C 	C 	0.9084	0.7588	0.7881	0.254
Mof_C 	C 	0.9327	0.7984	0.7173	0.24
Mof_Ba	Ba	0.44355	0.62135	0.9456	1.622
Mof_Ba	Ba	0.58057	0.3951	0.43862	1.79
Mof_O 	O 	0.2196	0.70119	0.59336	-0.367
Mof_O 	O 	0.5349	0.7776	0.97411	-0.372
_end
