data_functionalizedCrystal
_audit_creation_method	'EQeq! by Chris Wilmer'
_symmetry_space_group_name_H-M	'P1'
_symmetry_Int_Tables_number	1
_symmetry_cell_setting	triclinic
loop_
_symmetry_equiv_pos_as_xyz
  x,y,z
_cell_length_a	8.577
_cell_length_b	13.6877
_cell_length_c	25.822
_cell_angle_alpha	92.3019
_cell_angle_beta	90
_cell_angle_gamma	108.259
loop_
_atom_site_label
_atom_site_type_symbol
_atom_site_fract_x
_atom_site_fract_y
_atom_site_fract_z
_atom_site_charge
Mof_Zn	Zn	0.31573	0.71756	0.89172	1.238
Mof_Zn	Zn	0.76362	0.54118	0.00162	1.234
Mof_Zn	Zn	0.59817	0.28244	0.60828	1.238
Mof_Zn	Zn	0.22244	0.45882	0.49838	1.233
Mof_Zn	Zn	0.68427	0.28244	0.10828	1.239
Mof_Zn	Zn	0.23638	0.45882	0.99838	1.235
Mof_Zn	Zn	0.40183	0.71756	0.39172	1.239
Mof_Zn	Zn	0.77756	0.54118	0.50162	1.234
Mof_P 	P 	0.13271	0.66568	0.00085	0.449
Mof_P 	P 	0.5116	0.54948	0.91203	0.48
Mof_P 	P 	0.46703	0.33432	0.49915	0.449
Mof_P 	P 	0.96212	0.45052	0.58797	0.477
Mof_P 	P 	0.86729	0.33432	0.99915	0.449
Mof_P 	P 	0.4884	0.45052	0.08797	0.48
Mof_P 	P 	0.53297	0.66568	0.50085	0.449
Mof_P 	P 	0.03788	0.54948	0.41203	0.477
Mof_H 	H 	0.1104	0.857	0.0444	0.043
Mof_H 	H 	0.2915	0.0072	0.0787	0.048
Mof_H 	H 	0.6594	0.894	0.054	0.045
Mof_H 	H 	0.4736	0.7388	0.0247	0.027
Mof_H 	H 	0.6337	0.3854	0.8848	0.048
Mof_H 	H 	0.6396	0.287	0.8103	0.056
Mof_H 	H 	0.4558	0.462	0.7297	0.053
Mof_H 	H 	0.4499	0.562	0.8043	0.046
Mof_H 	H 	0.2534	0.143	0.4556	0.045
Mof_H 	H 	0.2843	0.9928	0.4213	0.046
Mof_H 	H 	0.7654	0.106	0.446	0.044
Mof_H 	H 	0.7348	0.2612	0.4753	0.027
Mof_H 	H 	0.2483	0.6146	0.6152	0.05
Mof_H 	H 	0.3526	0.713	0.6897	0.054
Mof_H 	H 	0.9938	0.538	0.7703	0.047
Mof_H 	H 	0.8879	0.438	0.6957	0.05
Mof_H 	H 	0.8896	0.143	0.9556	0.043
Mof_H 	H 	0.7085	0.9928	0.9213	0.048
Mof_H 	H 	0.3406	0.106	0.946	0.045
Mof_H 	H 	0.5264	0.2612	0.9753	0.027
Mof_H 	H 	0.3663	0.6146	0.1152	0.048
Mof_H 	H 	0.3604	0.713	0.1897	0.056
Mof_H 	H 	0.5442	0.538	0.2703	0.053
Mof_H 	H 	0.5501	0.438	0.1957	0.046
Mof_H 	H 	0.7466	0.857	0.5444	0.045
Mof_H 	H 	0.7157	0.0072	0.5787	0.046
Mof_H 	H 	0.2346	0.894	0.554	0.044
Mof_H 	H 	0.2652	0.7388	0.5247	0.027
Mof_H 	H 	0.7517	0.3854	0.3848	0.05
Mof_H 	H 	0.6474	0.287	0.3103	0.054
Mof_H 	H 	0.0062	0.462	0.2297	0.047
Mof_H 	H 	0.1121	0.562	0.3043	0.05
Mof_C 	C 	0.27223	0.78246	0.02958	-0.068
Mof_C 	C 	0.2214	0.8634	0.0465	-0.018
Mof_C 	C 	0.3306	0.9544	0.0665	-0.022
Mof_C 	C 	0.49535	0.9679	0.0687	-0.064
Mof_C 	C 	0.548	0.887	0.0526	-0.02
Mof_C 	C 	0.4361	0.7938	0.0341	-0.028
Mof_C 	C 	0.61212	0.06984	0.0875	0.335
Mof_C 	C 	0.53187	0.48074	0.85263	-0.057
Mof_C 	C 	0.5948	0.4014	0.8537	-0.025
Mof_C 	C 	0.6017	0.3434	0.8085	-0.019
Mof_C 	C 	0.5547	0.3674	0.76266	-0.068
Mof_C 	C 	0.4938	0.4462	0.7611	-0.019
Mof_C 	C 	0.4866	0.5052	0.8064	-0.026
Mof_C 	C 	0.5757	0.3086	0.714	0.329
Mof_C 	C 	0.48977	0.21754	0.47042	-0.066
Mof_C 	C 	0.358	0.1366	0.4535	-0.021
Mof_C 	C 	0.3762	0.0456	0.4335	-0.017
Mof_C 	C 	0.52745	0.0321	0.4313	-0.066
Mof_C 	C 	0.661	0.113	0.4474	-0.018
Mof_C 	C 	0.6423	0.2062	0.4659	-0.03
Mof_C 	C 	0.54228	0.93016	0.4125	0.336
Mof_C 	C 	0.05113	0.51926	0.64737	-0.049
Mof_C 	C 	0.1934	0.5986	0.6463	-0.033
Mof_C 	C 	0.2583	0.6566	0.6915	-0.012
Mof_C 	C 	0.1873	0.6326	0.73734	-0.076
Mof_C 	C 	0.0476	0.5538	0.7389	-0.006
Mof_C 	C 	0.9814	0.4948	0.6936	-0.039
Mof_C 	C 	0.2671	0.6914	0.786	0.332
Mof_C 	C 	0.72777	0.21754	0.97042	-0.068
Mof_C 	C 	0.7786	0.1366	0.9535	-0.018
Mof_C 	C 	0.6694	0.0456	0.9335	-0.022
Mof_C 	C 	0.50465	0.0321	0.9313	-0.064
Mof_C 	C 	0.452	0.113	0.9474	-0.02
Mof_C 	C 	0.5639	0.2062	0.9659	-0.028
Mof_C 	C 	0.38788	0.93016	0.9125	0.335
Mof_C 	C 	0.46813	0.51926	0.14737	-0.057
Mof_C 	C 	0.4052	0.5986	0.1463	-0.025
Mof_C 	C 	0.3983	0.6566	0.1915	-0.019
Mof_C 	C 	0.4453	0.6326	0.23734	-0.068
Mof_C 	C 	0.5062	0.5538	0.2389	-0.019
Mof_C 	C 	0.5134	0.4948	0.1936	-0.026
Mof_C 	C 	0.4243	0.6914	0.286	0.329
Mof_C 	C 	0.51023	0.78246	0.52958	-0.066
Mof_C 	C 	0.642	0.8634	0.5465	-0.021
Mof_C 	C 	0.6238	0.9544	0.5665	-0.017
Mof_C 	C 	0.47255	0.9679	0.5687	-0.066
Mof_C 	C 	0.339	0.887	0.5526	-0.018
Mof_C 	C 	0.3577	0.7938	0.5341	-0.03
Mof_C 	C 	0.45772	0.06984	0.5875	0.336
Mof_C 	C 	0.94887	0.48074	0.35263	-0.049
Mof_C 	C 	0.8066	0.4014	0.3537	-0.033
Mof_C 	C 	0.7417	0.3434	0.3085	-0.012
Mof_C 	C 	0.8127	0.3674	0.26266	-0.076
Mof_C 	C 	0.9524	0.4462	0.2611	-0.006
Mof_C 	C 	0.0186	0.5052	0.3064	-0.039
Mof_C 	C 	0.7329	0.3086	0.214	0.332
Mof_O 	O 	0.14231	0.67302	0.94261	-0.464
Mof_O 	O 	0.95975	0.6591	0.01854	-0.427
Mof_O 	O 	0.18757	0.57974	0.02118	-0.476
Mof_O 	O 	0.54973	0.14066	0.09503	-0.455
Mof_O 	O 	0.76225	0.0803	0.09345	-0.296
Mof_O 	O 	0.67796	0.58192	0.93971	-0.453
Mof_O 	O 	0.38131	0.47242	0.94098	-0.489
Mof_O 	O 	0.47068	0.64356	0.89735	-0.465
Mof_O 	O 	0.6485	0.244	0.7163	-0.297
Mof_O 	O 	0.52368	0.33276	0.67231	-0.45
Mof_O 	O 	0.46929	0.32698	0.55739	-0.465
Mof_O 	O 	0.30065	0.3409	0.48146	-0.427
Mof_O 	O 	0.60783	0.42026	0.47882	-0.476
Mof_O 	O 	0.40907	0.85934	0.40497	-0.455
Mof_O 	O 	0.68195	0.9197	0.40655	-0.296
Mof_O 	O 	0.09604	0.41808	0.56029	-0.453
Mof_O 	O 	0.90889	0.52758	0.55902	-0.489
Mof_O 	O 	0.82712	0.35644	0.60265	-0.465
Mof_O 	O 	0.4045	0.756	0.7837	-0.297
Mof_O 	O 	0.19092	0.66724	0.82769	-0.45
Mof_O 	O 	0.85769	0.32698	0.05739	-0.464
Mof_O 	O 	0.04025	0.3409	0.98146	-0.427
Mof_O 	O 	0.81243	0.42026	0.97882	-0.476
Mof_O 	O 	0.45027	0.85934	0.90497	-0.455
Mof_O 	O 	0.23775	0.9197	0.90655	-0.296
Mof_O 	O 	0.32204	0.41808	0.06029	-0.453
Mof_O 	O 	0.61869	0.52758	0.05902	-0.489
Mof_O 	O 	0.52932	0.35644	0.10265	-0.465
Mof_O 	O 	0.3515	0.756	0.2837	-0.297
Mof_O 	O 	0.47632	0.66724	0.32769	-0.45
Mof_O 	O 	0.53071	0.67302	0.44261	-0.465
Mof_O 	O 	0.69935	0.6591	0.51854	-0.427
Mof_O 	O 	0.39217	0.57974	0.52118	-0.476
Mof_O 	O 	0.59093	0.14066	0.59503	-0.455
Mof_O 	O 	0.31805	0.0803	0.59345	-0.296
Mof_O 	O 	0.90396	0.58192	0.43971	-0.453
Mof_O 	O 	0.09111	0.47242	0.44098	-0.489
Mof_O 	O 	0.17288	0.64356	0.39735	-0.465
Mof_O 	O 	0.5955	0.244	0.2163	-0.297
Mof_O 	O 	0.80908	0.33276	0.17231	-0.45
Mof_H 	H 	0.1524	0.2976	0.0806	0.121
Mof_H 	H 	0.9925	0.2214	0.0859	0.11
Mof_H 	H 	0.092	0.2814	0.1646	0.16
Mof_H 	H 	0.0758	0.1642	0.1583	0.162
Mof_H 	H 	0.2475	0.2478	0.1527	0.166
Mof_H 	H 	0.1252	0.169	0.0223	0.142
Mof_H 	H 	0.2684	0.1752	0.0613	0.15
Mof_H 	H 	0.0962	0.0924	0.0675	0.151
Mof_C 	C 	0.1317	0.2316	0.1464	-0.392
Mof_C 	C 	0.152	0.1614	0.0577	-0.364
Mof_N 	N 	0.1009	0.2336	0.0909	-0.13
Mof_H 	H 	0.8548	0.7024	0.4194	0.121
Mof_H 	H 	0.7711	0.7786	0.4141	0.111
Mof_H 	H 	0.8106	0.7186	0.3354	0.16
Mof_H 	H 	0.9116	0.8358	0.3417	0.163
Mof_H 	H 	0.9997	0.7522	0.3473	0.167
Mof_H 	H 	0.9562	0.831	0.4777	0.137
Mof_H 	H 	0.0932	0.8248	0.4387	0.145
Mof_H 	H 	0.0038	0.9076	0.4325	0.145
Mof_C 	C 	0.9001	0.7684	0.3536	-0.392
Mof_C 	C 	0.9906	0.8386	0.4423	-0.35
Mof_N 	N 	0.8673	0.7664	0.4091	-0.132
Mof_H 	H 	0.8476	0.7024	0.9194	0.121
Mof_H 	H 	0.0075	0.7786	0.9141	0.11
Mof_H 	H 	0.908	0.7186	0.8354	0.16
Mof_H 	H 	0.9242	0.8358	0.8417	0.162
Mof_H 	H 	0.7525	0.7522	0.8473	0.166
Mof_H 	H 	0.8748	0.831	0.9777	0.142
Mof_H 	H 	0.7316	0.8248	0.9387	0.15
Mof_H 	H 	0.9038	0.9076	0.9325	0.151
Mof_C 	C 	0.8683	0.7684	0.8536	-0.392
Mof_C 	C 	0.848	0.8386	0.9423	-0.364
Mof_N 	N 	0.8991	0.7664	0.9091	-0.13
Mof_H 	H 	0.1452	0.2976	0.5806	0.121
Mof_H 	H 	0.2289	0.2214	0.5859	0.111
Mof_H 	H 	0.1894	0.2814	0.6646	0.16
Mof_H 	H 	0.0884	0.1642	0.6583	0.163
Mof_H 	H 	0.0003	0.2478	0.6527	0.167
Mof_H 	H 	0.0438	0.169	0.5223	0.137
Mof_H 	H 	0.9068	0.1752	0.5613	0.145
Mof_H 	H 	0.9962	0.0924	0.5675	0.145
Mof_C 	C 	0.0999	0.2316	0.6464	-0.392
Mof_C 	C 	0.0094	0.1614	0.5577	-0.35
Mof_N 	N 	0.1327	0.2336	0.5909	-0.132
_end
