data_functionalizedCrystal
_audit_creation_method	'EQeq! by Chris Wilmer'
_symmetry_space_group_name_H-M	'P1'
_symmetry_Int_Tables_number	1
_symmetry_cell_setting	triclinic
loop_
_symmetry_equiv_pos_as_xyz
  x,y,z
_cell_length_a	18.982
_cell_length_b	18.982
_cell_length_c	7.9137
_cell_angle_alpha	90
_cell_angle_beta	90
_cell_angle_gamma	120
loop_
_atom_site_label
_atom_site_type_symbol
_atom_site_fract_x
_atom_site_fract_y
_atom_site_fract_z
_atom_site_charge
Mof_N 	N 	0.25973	0.56021	0.4938	-0.246
Mof_N 	N 	0.1959	0.4357	0.3923	-0.111
Mof_N 	N 	0.07791	0.10571	0.158	-0.253
Mof_N 	N 	0.1465	0.2294	0.2586	-0.116
Mof_N 	N 	0.22591	0.63293	0.8106	-0.246
Mof_N 	N 	0.09954	0.5742	0.9035	-0.076
Mof_C 	C 	0.2473	0.4873	0.5111	0.092
Mof_H 	H 	0.2709	0.4719	0.5955	-0.006
Mof_C 	C 	0.2144	0.5559	0.3542	0.001
Mof_H 	H 	0.2103	0.5993	0.3113	0.016
Mof_C 	C 	0.1772	0.481	0.2886	-0.011
Mof_H 	H 	0.1451	0.4635	0.1919	0.033
Mof_C 	C 	0.0943	0.181	0.1383	0.083
Mof_H 	H 	0.073	0.1986	0.0532	-0.015
Mof_C 	C 	0.1205	0.1073	0.2971	0.006
Mof_H 	H 	0.1216	0.0623	0.3403	0.007
Mof_C 	C 	0.1609	0.1821	0.3644	-0.015
Mof_H 	H 	0.192	0.198	0.4625	0.037
Mof_C 	C 	0.1527	0.3451	0.3973	-0.193
Mof_C 	C 	0.2152	0.3681	0.3063	0.175
Mof_C 	C 	0.1907	0.3214	0.2558	-0.165
Mof_C 	C 	0.1323	0.3003	0.3571	0.204
Mof_C 	C 	0.1519	0.5716	0.7917	0.081
Mof_H 	H 	0.1372	0.5311	0.7109	-0.006
Mof_C 	C 	0.2216	0.6772	0.9432	0.061
Mof_H 	H 	0.2652	0.7244	0.9864	0.006
Mof_C 	C 	0.1442	0.6417	0.0016	-0.086
Mof_H 	H 	0.1253	0.6596	0.0907	0.058
Mof_C 	C 	0.0129	0.5185	0.9142	-0.206
Mof_H 	H 	0.9976	0.4756	0.8315	0.111
Mof_H 	H 	0.9843	0.5474	0.8866	0.115
Mof_N 	N 	0.43979	0.69952	0.4938	-0.245
Mof_N 	N 	0.5643	0.7602	0.3923	-0.109
Mof_N 	N 	0.89429	0.9722	0.158	-0.226
Mof_N 	N 	0.7706	0.9171	0.2586	-0.121
Mof_N 	N 	0.36707	0.59298	0.8106	-0.246
Mof_N 	N 	0.4258	0.52534	0.9035	-0.101
Mof_C 	C 	0.5127	0.76	0.5111	0.093
Mof_H 	H 	0.5281	0.799	0.5955	-0.005
Mof_C 	C 	0.4441	0.6585	0.3542	0.001
Mof_H 	H 	0.4007	0.611	0.3113	0.016
Mof_C 	C 	0.519	0.6962	0.2886	-0.01
Mof_H 	H 	0.5365	0.6816	0.1919	0.033
Mof_C 	C 	0.819	0.9133	0.1383	0.09
Mof_H 	H 	0.8014	0.8744	0.0532	-0.01
Mof_C 	C 	0.8927	0.0132	0.2971	-0.045
Mof_H 	H 	0.9377	0.0593	0.3403	0.035
Mof_C 	C 	0.8179	0.9788	0.3644	0.032
Mof_H 	H 	0.802	0.994	0.4625	0.027
Mof_C 	C 	0.6549	0.8076	0.3973	-0.192
Mof_C 	C 	0.6319	0.8471	0.3063	0.172
Mof_C 	C 	0.6786	0.8693	0.2558	-0.159
Mof_C 	C 	0.6997	0.832	0.3571	0.209
Mof_C 	C 	0.4284	0.5803	0.7917	0.092
Mof_H 	H 	0.4689	0.6061	0.7109	-0.007
Mof_C 	C 	0.3228	0.5444	0.9432	0.055
Mof_H 	H 	0.2756	0.5408	0.9864	0.008
Mof_C 	C 	0.3583	0.5025	0.0016	-0.074
Mof_H 	H 	0.3404	0.4657	0.0907	0.053
Mof_C 	C 	0.4815	0.4944	0.9142	-0.03
Mof_H 	H 	0.5244	0.522	0.8315	0.047
Mof_H 	H 	0.4526	0.4369	0.8866	0.052
Mof_N 	N 	0.30048	0.74027	0.4938	-0.245
Mof_N 	N 	0.2398	0.8041	0.3923	-0.111
Mof_N 	N 	0.0278	0.92209	0.158	-0.259
Mof_N 	N 	0.0829	0.8535	0.2586	-0.11
Mof_N 	N 	0.40702	0.77409	0.8106	-0.247
Mof_N 	N 	0.47466	0.90046	0.9035	-0.126
Mof_C 	C 	0.24	0.7527	0.5111	0.095
Mof_H 	H 	0.201	0.7291	0.5955	-0.008
Mof_C 	C 	0.3415	0.7856	0.3542	0.001
Mof_H 	H 	0.389	0.7897	0.3113	0.016
Mof_C 	C 	0.3038	0.8228	0.2886	-0.008
Mof_H 	H 	0.3184	0.8549	0.1919	0.031
Mof_C 	C 	0.0867	0.9057	0.1383	0.086
Mof_H 	H 	0.1256	0.927	0.0532	-0.007
Mof_C 	C 	0.9868	0.8795	0.2971	0.067
Mof_H 	H 	0.9407	0.8784	0.3403	-0
Mof_C 	C 	0.0212	0.8391	0.3644	-0.055
Mof_H 	H 	0.006	0.808	0.4625	0.047
Mof_C 	C 	0.1924	0.8473	0.3973	-0.167
Mof_C 	C 	0.1529	0.7848	0.3063	0.153
Mof_C 	C 	0.1307	0.8093	0.2558	-0.148
Mof_C 	C 	0.168	0.8677	0.3571	0.19
Mof_C 	C 	0.4197	0.8481	0.7917	0.102
Mof_H 	H 	0.3939	0.8628	0.7109	-0.008
Mof_C 	C 	0.4556	0.7784	0.9432	0.048
Mof_H 	H 	0.4592	0.7348	0.9864	0.01
Mof_C 	C 	0.4975	0.8558	0.0016	-0.06
Mof_H 	H 	0.5343	0.8747	0.0907	0.049
Mof_C 	C 	0.5056	0.9871	0.9142	0.133
Mof_H 	H 	0.478	0.0024	0.8315	-0.012
Mof_H 	H 	0.5631	0.0157	0.8866	-0.006
Mof_N 	N 	0.74027	0.43979	0.5062	-0.245
Mof_N 	N 	0.8041	0.5643	0.6077	-0.108
Mof_N 	N 	0.92209	0.89429	0.842	-0.231
Mof_N 	N 	0.8535	0.7706	0.7414	-0.115
Mof_N 	N 	0.77409	0.36707	0.1894	-0.234
Mof_N 	N 	0.90046	0.4258	0.0965	-0.155
Mof_C 	C 	0.7527	0.5127	0.4889	0.095
Mof_H 	H 	0.7291	0.5281	0.4045	-0.009
Mof_C 	C 	0.7856	0.4441	0.6458	0.004
Mof_H 	H 	0.7897	0.4007	0.6887	0.02
Mof_C 	C 	0.8228	0.519	0.7114	-0.007
Mof_H 	H 	0.8549	0.5365	0.8081	0.04
Mof_C 	C 	0.9057	0.819	0.8617	0.095
Mof_H 	H 	0.927	0.8014	0.9468	0.006
Mof_C 	C 	0.8795	0.8927	0.7029	0.012
Mof_H 	H 	0.8784	0.9377	0.6597	0.022
Mof_C 	C 	0.8391	0.8179	0.6356	-0.005
Mof_H 	H 	0.808	0.802	0.5375	0.036
Mof_C 	C 	0.8473	0.6549	0.6027	-0.182
Mof_C 	C 	0.7848	0.6319	0.6937	0.163
Mof_C 	C 	0.8093	0.6786	0.7442	-0.143
Mof_C 	C 	0.8677	0.6997	0.6429	0.202
Mof_C 	C 	0.8481	0.4284	0.2083	0.095
Mof_H 	H 	0.8628	0.4689	0.2891	-0.008
Mof_C 	C 	0.7784	0.3228	0.0568	-0.051
Mof_H 	H 	0.7348	0.2756	0.0136	0.031
Mof_C 	C 	0.8558	0.3583	0.9984	0.065
Mof_H 	H 	0.8747	0.3404	0.9093	0.015
Mof_C 	C 	0.9871	0.4815	0.0858	0.093
Mof_H 	H 	0.0024	0.5244	0.1685	-0.008
Mof_H 	H 	0.0157	0.4526	0.1134	-0.008
Mof_N 	N 	0.56021	0.30048	0.5062	-0.245
Mof_N 	N 	0.4357	0.2398	0.6077	-0.109
Mof_N 	N 	0.10571	0.0278	0.842	-0.257
Mof_N 	N 	0.2294	0.0829	0.7414	-0.108
Mof_N 	N 	0.63293	0.40702	0.1894	-0.233
Mof_N 	N 	0.5742	0.47466	0.0965	-0.13
Mof_C 	C 	0.4873	0.24	0.4889	0.094
Mof_H 	H 	0.4719	0.201	0.4045	-0.01
Mof_C 	C 	0.5559	0.3415	0.6458	0.004
Mof_H 	H 	0.5993	0.389	0.6887	0.02
Mof_C 	C 	0.481	0.3038	0.7114	-0.008
Mof_H 	H 	0.4635	0.3184	0.8081	0.041
Mof_C 	C 	0.181	0.0867	0.8617	0.088
Mof_H 	H 	0.1986	0.1256	0.9468	0.003
Mof_C 	C 	0.1073	0.9868	0.7029	0.072
Mof_H 	H 	0.0623	0.9407	0.6597	-0.006
Mof_C 	C 	0.1821	0.0212	0.6356	-0.058
Mof_H 	H 	0.198	0.006	0.5375	0.047
Mof_C 	C 	0.3451	0.1924	0.6027	-0.182
Mof_C 	C 	0.3681	0.1529	0.6937	0.164
Mof_C 	C 	0.3214	0.1307	0.7442	-0.147
Mof_C 	C 	0.3003	0.168	0.6429	0.197
Mof_C 	C 	0.5716	0.4197	0.2083	0.083
Mof_H 	H 	0.5311	0.3939	0.2891	-0.007
Mof_C 	C 	0.6772	0.4556	0.0568	-0.047
Mof_H 	H 	0.7244	0.4592	0.0136	0.029
Mof_C 	C 	0.6417	0.4975	0.9984	0.056
Mof_H 	H 	0.6596	0.5343	0.9093	0.019
Mof_C 	C 	0.5185	0.5056	0.0858	-0.09
Mof_H 	H 	0.4756	0.478	0.1685	0.059
Mof_H 	H 	0.5474	0.5631	0.1134	0.059
Mof_N 	N 	0.69952	0.25973	0.5062	-0.245
Mof_N 	N 	0.7602	0.1959	0.6077	-0.107
Mof_N 	N 	0.9722	0.07791	0.842	-0.219
Mof_N 	N 	0.9171	0.1465	0.7414	-0.121
Mof_N 	N 	0.59298	0.22591	0.1894	-0.231
Mof_N 	N 	0.52534	0.09954	0.0965	-0.107
Mof_C 	C 	0.76	0.2473	0.4889	0.092
Mof_H 	H 	0.799	0.2709	0.4045	-0.007
Mof_C 	C 	0.6585	0.2144	0.6458	0.005
Mof_H 	H 	0.611	0.2103	0.6887	0.02
Mof_C 	C 	0.6962	0.1772	0.7114	-0.01
Mof_H 	H 	0.6816	0.1451	0.8081	0.043
Mof_C 	C 	0.9133	0.0943	0.8617	0.093
Mof_H 	H 	0.8744	0.073	0.9468	-0
Mof_C 	C 	0.0132	0.1205	0.7029	-0.055
Mof_H 	H 	0.0593	0.1216	0.6597	0.033
Mof_C 	C 	0.9788	0.1609	0.6356	0.042
Mof_H 	H 	0.994	0.192	0.5375	0.024
Mof_C 	C 	0.8076	0.1527	0.6027	-0.206
Mof_C 	C 	0.8471	0.2152	0.6937	0.183
Mof_C 	C 	0.8693	0.1907	0.7442	-0.158
Mof_C 	C 	0.832	0.1323	0.6429	0.216
Mof_C 	C 	0.5803	0.1519	0.2083	0.073
Mof_H 	H 	0.6061	0.1372	0.2891	-0.005
Mof_C 	C 	0.5444	0.2216	0.0568	-0.046
Mof_H 	H 	0.5408	0.2652	0.0136	0.028
Mof_C 	C 	0.5025	0.1442	0.9984	0.048
Mof_H 	H 	0.4657	0.1253	0.9093	0.022
Mof_C 	C 	0.4944	0.0129	0.0858	-0.259
Mof_H 	H 	0.522	0.9976	0.1685	0.122
Mof_H 	H 	0.4369	0.9843	0.1134	0.121
Mof_Zn	Zn	0.33333	0.66667	0.65082	1.176
Mof_Zn	Zn	0.66667	0.33333	0.34918	1.175
Mof_Zn	Zn	-0	0	-0	1.156
_end
