data_functionalizedCrystal
_audit_creation_method	'EQeq! by Chris Wilmer'
_symmetry_space_group_name_H-M	'P1'
_symmetry_Int_Tables_number	1
_symmetry_cell_setting	triclinic
loop_
_symmetry_equiv_pos_as_xyz
  x,y,z
_cell_length_a	38.1424
_cell_length_b	38.1424
_cell_length_c	38.1424
_cell_angle_alpha	109.471
_cell_angle_beta	109.471
_cell_angle_gamma	109.471
loop_
_atom_site_label
_atom_site_type_symbol
_atom_site_fract_x
_atom_site_fract_y
_atom_site_fract_z
_atom_site_charge
Mof_Fe	Fe	0.72066	0.97096	0.42306	0.986
Mof_Fe	Fe	0.27934	0.02904	0.57694	0.992
Mof_Fe	Fe	0.93909	0.46779	0.2369	0.975
Mof_Fe	Fe	0.70219	0.7631	0.23089	0.976
Mof_Fe	Fe	0.53221	0.2631	0.56091	0.976
Mof_Fe	Fe	0.7369	0.93909	0.96779	0.971
Mof_Fe	Fe	0.9515	0.73393	0.01563	0.954
Mof_Fe	Fe	0.0485	0.26607	0.98437	0.946
Mof_Fe	Fe	0.22066	0.7976	0.7497	0.989
Mof_Fe	Fe	0.7363	0.2804	0.7519	0.964
Mof_Fe	Fe	0.0156	0.7519	0.4715	0.968
Mof_Fe	Fe	0.7024	0.42306	0.4521	0.989
Mof_Fe	Fe	0.23089	0.96779	0.0287	0.974
Mof_Fe	Fe	0.56091	0.79781	0.5287	0.976
Mof_Fe	Fe	0.4515	0.43587	0.21757	0.95
Mof_Fe	Fe	0.2363	0.4844	0.4559	0.964
Mof_Fe	Fe	0.2497	0.22066	0.2976	0.989
Mof_Fe	Fe	0.2804	0.2519	0.2363	0.964
Mof_Fe	Fe	0.7976	0.2497	0.72066	0.989
Mof_Fe	Fe	0.97096	0.92306	0.22066	0.987
Mof_Fe	Fe	0.07694	0.27934	0.52904	0.989
Mof_Fe	Fe	0.06091	0.53221	0.7631	0.976
Mof_Fe	Fe	0.73393	0.51563	0.4515	0.95
Mof_Fe	Fe	0.4713	0.76911	0.53221	0.976
Mof_Fe	Fe	0.7503	0.77934	0.7024	0.989
Mof_Fe	Fe	0.5156	0.0441	0.2637	0.967
Mof_Fe	Fe	0.7519	0.9715	0.5156	0.961
Mof_Fe	Fe	0.02904	0.07694	0.77934	0.991
Mof_Fe	Fe	0.57694	0.0479	0.7976	0.987
Mof_Fe	Fe	0.4521	0.52904	0.2497	0.988
Mof_Fe	Fe	0.2503	0.5479	0.97096	0.985
Mof_Fe	Fe	0.5285	0.7804	0.0441	0.966
Mof_Fe	Fe	0.98437	0.2183	0.43587	0.945
Mof_Fe	Fe	0.7817	0.06413	0.51563	0.95
Mof_Fe	Fe	0.2369	0.26911	0.79781	0.975
Mof_Fe	Fe	0.03221	0.4713	0.26911	0.978
Mof_Fe	Fe	0.0285	0.9844	0.7481	0.961
Mof_Fe	Fe	0.2519	0.7363	0.7804	0.963
Mof_Fe	Fe	0.76911	0.03221	0.9713	0.973
Mof_Fe	Fe	0.93587	0.98437	0.7183	0.945
Mof_Fe	Fe	0.77934	0.2024	0.2503	0.988
Mof_Fe	Fe	0.2481	0.0285	0.4844	0.967
Mof_Fe	Fe	0.2183	0.93587	0.48437	0.948
Mof_Fe	Fe	0.0287	0.56091	0.29781	0.978
Mof_Fe	Fe	0.2196	0.4559	0.9715	0.961
Mof_Fe	Fe	0.2631	0.06091	0.03221	0.978
Mof_Fe	Fe	0.78243	0.7183	0.73393	0.949
Mof_Fe	Fe	0.2976	0.57694	0.5479	0.988
Mof_Fe	Fe	0.26607	0.48437	0.5485	0.949
Mof_Fe	Fe	0.76607	0.21757	0.7817	0.949
Mof_Fe	Fe	0.7637	0.5156	0.5441	0.963
Mof_Fe	Fe	0.20219	0.9713	0.93909	0.969
Mof_Fe	Fe	0.9715	0.0156	0.2519	0.962
Mof_Fe	Fe	0.51563	0.9515	0.23393	0.949
Mof_Fe	Fe	0.06413	0.01563	0.2817	0.955
Mof_Fe	Fe	0.96779	0.5287	0.73089	0.971
Mof_Fe	Fe	0.7183	0.23393	0.28243	0.949
Mof_Fe	Fe	0.23393	0.78243	0.2183	0.949
Mof_Fe	Fe	0.42306	0.9521	0.2024	0.988
Mof_Fe	Fe	0.9713	0.43909	0.70219	0.971
Mof_Fe	Fe	0.28243	0.5485	0.06413	0.95
Mof_Fe	Fe	0.7804	0.5441	0.0285	0.966
Mof_Fe	Fe	0.71757	0.4515	0.93587	0.948
Mof_Fe	Fe	0.21757	0.2817	0.26607	0.949
Mof_Fe	Fe	0.29781	0.2369	0.76911	0.975
Mof_Fe	Fe	0.5287	0.23089	0.46779	0.975
Mof_Fe	Fe	0.43587	0.71757	0.9515	0.949
Mof_Fe	Fe	0.92306	0.72066	0.47096	0.988
Mof_Fe	Fe	0.79781	0.0287	0.06091	0.977
Mof_Fe	Fe	0.4559	0.4715	0.7196	0.963
Mof_Fe	Fe	0.43909	0.20219	0.4713	0.975
Mof_Fe	Fe	0.01563	0.7817	0.56413	0.952
Mof_Fe	Fe	0.7481	0.2637	0.2196	0.963
Mof_Fe	Fe	0.52904	0.7497	0.9521	0.988
Mof_Fe	Fe	0.0441	0.7637	0.0156	0.969
Mof_Fe	Fe	0.7631	0.73089	0.20219	0.975
Mof_Fe	Fe	0.4844	0.9559	0.7363	0.961
Mof_Fe	Fe	0.46779	0.7369	0.43909	0.975
Mof_Fe	Fe	0.2817	0.76607	0.71757	0.949
Mof_Fe	Fe	0.7497	0.4521	0.02904	0.99
Mof_Fe	Fe	0.4715	0.2196	0.9559	0.961
Mof_Fe	Fe	0.5485	0.56413	0.78243	0.949
Mof_Fe	Fe	0.9521	0.7024	0.92306	0.988
Mof_Fe	Fe	0.7196	0.7481	0.7637	0.963
Mof_Fe	Fe	0.5441	0.5285	0.2804	0.963
Mof_Fe	Fe	0.2024	0.7503	0.27934	0.988
Mof_Fe	Fe	0.26911	0.29781	0.7369	0.975
Mof_Fe	Fe	0.9559	0.2363	0.9844	0.957
Mof_Fe	Fe	0.9844	0.2481	0.5285	0.959
Mof_Fe	Fe	0.47096	0.2503	0.0479	0.988
Mof_Fe	Fe	0.56413	0.28243	0.0485	0.949
Mof_Fe	Fe	0.2637	0.7196	0.2481	0.963
Mof_Fe	Fe	0.73089	0.70219	0.2631	0.975
Mof_Fe	Fe	0.5479	0.47096	0.7503	0.988
Mof_Fe	Fe	0.0479	0.2976	0.07694	0.987
Mof_Fe	Fe	0.48437	0.0485	0.76607	0.949
Mof_H 	H 	0.1193	0.4299	0.1218	0.085
Mof_H 	H 	0.8709	0.2312	0.3777	0.045
Mof_H 	H 	0.6229	0.6068	0.9101	0.073
Mof_H 	H 	0.4979	0.3016	0.9083	0.074
Mof_H 	H 	0.9296	0.1099	0.1107	0.082
Mof_H 	H 	0.5704	0.6811	0.1803	0.082
Mof_H 	H 	0.7126	0.1036	0.9984	0.064
Mof_H 	H 	0.6102	0.7002	0.9818	0.072
Mof_H 	H 	0.109	0.2126	0.7142	0.068
Mof_H 	H 	0.8037	0.3933	0.3016	0.074
Mof_H 	H 	0.91	0.2816	0.2998	0.075
Mof_H 	H 	0.819	0.4123	0.8029	0.075
Mof_H 	H 	0.4975	0.1894	0.1193	0.085
Mof_H 	H 	0.9117	0.0906	0.3925	0.076
Mof_H 	H 	0.3591	0.0083	0.1308	0.046
Mof_H 	H 	0.0008	0.3901	0.3197	0.086
Mof_H 	H 	0.4839	0.0933	0.181	0.075
Mof_H 	H 	0.896	0.2504	0.8722	0.051
Mof_H 	H 	0.8591	0.7283	0.3508	0.046
Mof_H 	H 	0.6218	0.2496	0.1456	0.051
Mof_H 	H 	0.5883	0.9808	0.1789	0.074
Mof_H 	H 	0.6397	0.1465	0.7688	0.045
Mof_H 	H 	0.3603	0.8535	0.2312	0.045
Mof_H 	H 	0.604	0.4762	0.3544	0.051
Mof_H 	H 	0.4839	0.8771	0.2872	0.073
Mof_H 	H 	0.1492	0.1409	0.7717	0.046
Mof_H 	H 	0.1229	0.2128	0.0161	0.074
Mof_H 	H 	0.0899	0.1967	0.2128	0.073
Mof_H 	H 	0.4299	0.6218	0.6193	0.085
Mof_H 	H 	0.0161	0.3033	0.3932	0.074
Mof_H 	H 	0.4117	0.0192	0.8211	0.08
Mof_H 	H 	0.9104	0.3037	0.5021	0.074
Mof_H 	H 	0.0883	0.9094	0.6075	0.077
Mof_H 	H 	0.0068	0.8603	0.1291	0.045
Mof_H 	H 	0.9067	0.319	0.0161	0.076
Mof_H 	H 	0.9932	0.1397	0.8709	0.044
Mof_H 	H 	0.6052	0.7142	0.5016	0.068
Mof_H 	H 	0.2504	0.3722	0.396	0.051
Mof_H 	H 	0.1102	0.1284	0.91	0.076
Mof_H 	H 	0.3901	0.8197	0.5008	0.082
Mof_H 	H 	0.8782	0.8081	0.4975	0.085
Mof_H 	H 	0.3033	0.8932	0.5161	0.073
Mof_H 	H 	0.9839	0.6967	0.6068	0.072
Mof_H 	H 	0.2126	0.2142	0.609	0.068
Mof_H 	H 	0.59	0.8898	0.3716	0.075
Mof_H 	H 	0.8603	0.6291	0.5068	0.045
Mof_H 	H 	0.8189	0.8893	0.9992	0.078
Mof_H 	H 	0.1789	0.6981	0.0906	0.076
Mof_H 	H 	0.6981	0.5906	0.6789	0.077
Mof_H 	H 	0.4932	0.6223	0.8535	0.045
Mof_H 	H 	0.0704	0.8901	0.8893	0.082
Mof_H 	H 	0.6963	0.9979	0.5896	0.071
Mof_H 	H 	0.5021	0.6984	0.0917	0.074
Mof_H 	H 	0.6036	0.391	0.6052	0.068
Mof_H 	H 	0.7998	0.91	0.7816	0.075
Mof_H 	H 	0.6789	0.5883	0.4808	0.077
Mof_H 	H 	0.5161	0.9067	0.819	0.075
Mof_H 	H 	0.8029	0.8906	0.4839	0.075
Mof_H 	H 	0.0021	0.9104	0.8037	0.076
Mof_H 	H 	0.3709	0.9932	0.6397	0.044
Mof_H 	H 	0.1218	0.1919	0.5025	0.085
Mof_H 	H 	0.9123	0.5933	0.1094	0.076
Mof_H 	H 	0.3505	0.7464	0.3775	0.05
Mof_H 	H 	0.8106	0.3807	0.0025	0.089
Mof_H 	H 	0.4094	0.8211	0.8019	0.077
Mof_H 	H 	0.2496	0.6456	0.1218	0.05
Mof_H 	H 	0.3508	0.1225	0.9917	0.045
Mof_H 	H 	0.0933	0.681	0.9839	0.075
Mof_H 	H 	0.4083	0.4979	0.8016	0.074
Mof_H 	H 	0.3037	0.0021	0.4104	0.078
Mof_H 	H 	0.1981	0.5192	0.1075	0.077
Mof_H 	H 	0.6284	0.0182	0.7184	0.078
Mof_H 	H 	0.7816	0.3716	0.4818	0.075
Mof_H 	H 	0.9101	0.8033	0.7872	0.073
Mof_H 	H 	0.6308	0.3591	0.5083	0.046
Mof_H 	H 	0.6984	0.5917	0.0021	0.078
Mof_H 	H 	0.4067	0.3906	0.5877	0.075
Mof_H 	H 	0.3933	0.8016	0.3037	0.074
Mof_H 	H 	0.2874	0.8964	0.0016	0.071
Mof_H 	H 	0.396	0.5238	0.6456	0.051
Mof_H 	H 	0.973	0.6225	0.3689	0.049
Mof_H 	H 	0.3689	0.2464	0.8959	0.05
Mof_H 	H 	0.8689	0.973	0.1225	0.049
Mof_H 	H 	0.3959	0.3689	0.7464	0.05
Mof_H 	H 	0.3777	0.6465	0.0068	0.045
Mof_H 	H 	0.8775	0.3505	0.2464	0.05
Mof_H 	H 	0.3948	0.2858	0.4984	0.068
Mof_H 	H 	0.6107	0.9296	0.6099	0.082
Mof_H 	H 	0.3692	0.6409	0.4917	0.046
Mof_H 	H 	0.5917	0.5021	0.1984	0.074
Mof_H 	H 	0.5899	0.3771	0.8932	0.073
Mof_H 	H 	0.2998	0.5182	0.8898	0.075
Mof_H 	H 	0.3906	0.0877	0.9067	0.075
Mof_H 	H 	0.3782	0.8807	0.0701	0.085
Mof_H 	H 	0.8948	0.3964	0.109	0.068
Mof_H 	H 	0.6465	0.5068	0.8777	0.045
Mof_H 	H 	0.6919	0.0701	0.1894	0.085
Mof_H 	H 	0.7536	0.6041	0.1311	0.05
Mof_H 	H 	0.1036	0.4984	0.2126	0.068
Mof_H 	H 	0.3544	0.3782	0.2504	0.051
Mof_H 	H 	0.1068	0.9839	0.1967	0.072
Mof_H 	H 	0.8782	0.0238	0.6278	0.052
Mof_H 	H 	0.9299	0.3106	0.8081	0.085
Mof_H 	H 	0.5083	0.6492	0.3775	0.046
Mof_H 	H 	0.1811	0.1107	0.0008	0.086
Mof_H 	H 	0.8505	0.473	0.6041	0.05
Mof_H 	H 	0.8016	0.8037	0.8933	0.074
Mof_H 	H 	0.4762	0.8544	0.104	0.05
Mof_H 	H 	0.1984	0.1963	0.1067	0.074
Mof_H 	H 	0.3081	0.9299	0.8106	0.085
Mof_H 	H 	0.5896	0.0917	0.3933	0.074
Mof_H 	H 	0.0877	0.4067	0.8906	0.075
Mof_H 	H 	0.8906	0.9839	0.3029	0.075
Mof_H 	H 	0.6495	0.2536	0.6225	0.05
Mof_H 	H 	0.1291	0.7688	0.6223	0.045
Mof_H 	H 	0.1225	0.6495	0.7536	0.05
Mof_H 	H 	0.891	0.7874	0.2858	0.068
Mof_H 	H 	0.8959	0.1495	0.027	0.051
Mof_H 	H 	0.8771	0.7872	0.9839	0.072
Mof_H 	H 	0.7464	0.8775	0.8505	0.05
Mof_H 	H 	0.0896	0.6963	0.4979	0.074
Mof_H 	H 	0.8933	0.5896	0.5917	0.074
Mof_H 	H 	0.3029	0.819	0.9123	0.076
Mof_H 	H 	0.8932	0.0161	0.8033	0.074
Mof_H 	H 	0.1278	0.8782	0.5238	0.051
Mof_H 	H 	0.5016	0.2874	0.3964	0.068
Mof_H 	H 	0.8898	0.8716	0.09	0.075
Mof_H 	H 	0.6193	0.4975	0.6894	0.085
Mof_H 	H 	0.0701	0.6894	0.1919	0.085
Mof_H 	H 	0.6291	0.0068	0.3603	0.045
Mof_H 	H 	0.0016	0.6052	0.2142	0.072
Mof_H 	H 	0.6456	0.6218	0.7496	0.051
Mof_H 	H 	0.6223	0.3535	0.9932	0.044
Mof_H 	H 	0.8722	0.1218	0.4762	0.05
Mof_H 	H 	0.8901	0.3893	0.5704	0.082
Mof_H 	H 	0.2142	0.109	0.7126	0.068
Mof_H 	H 	0.0025	0.1218	0.6919	0.09
Mof_H 	H 	0.5701	0.3782	0.3807	0.085
Mof_H 	H 	0.7874	0.7858	0.391	0.068
Mof_H 	H 	0.6225	0.7717	0.6308	0.046
Mof_H 	H 	0.2858	0.9984	0.8948	0.064
Mof_H 	H 	0.9818	0.7816	0.8716	0.072
Mof_H 	H 	0.09	0.7184	0.7002	0.075
Mof_H 	H 	0.7283	0.8508	0.3591	0.046
Mof_H 	H 	0.181	0.5877	0.1971	0.076
Mof_H 	H 	0.1495	0.527	0.3959	0.05
Mof_H 	H 	0.9762	0.8722	0.6218	0.05
Mof_H 	H 	0.5877	0.6971	0.681	0.075
Mof_H 	H 	0.0238	0.1278	0.3782	0.052
Mof_H 	H 	0.0192	0.3211	0.9117	0.08
Mof_H 	H 	0.8807	0.5701	0.8782	0.085
Mof_H 	H 	0.5008	0.1811	0.6107	0.082
Mof_H 	H 	0.104	0.7496	0.1278	0.05
Mof_H 	H 	0.7858	0.891	0.2874	0.068
Mof_H 	H 	0.1311	0.027	0.8775	0.051
Mof_H 	H 	0.6803	0.5704	0.1811	0.082
Mof_H 	H 	0.8033	0.2872	0.4101	0.073
Mof_H 	H 	0.2536	0.1225	0.1495	0.05
Mof_H 	H 	0.5068	0.3777	0.1465	0.045
Mof_H 	H 	0.5933	0.6094	0.4123	0.075
Mof_H 	H 	0.4808	0.3925	0.3019	0.077
Mof_H 	H 	0.6311	0.7536	0.1041	0.049
Mof_H 	H 	0.1284	0.41	0.6102	0.075
Mof_H 	H 	0.3106	0.3081	0.4299	0.085
Mof_H 	H 	0.0182	0.2184	0.1284	0.079
Mof_H 	H 	0.8019	0.4808	0.8925	0.077
Mof_H 	H 	0.1218	0.9762	0.3722	0.05
Mof_H 	H 	0.2717	0.1492	0.6409	0.046
Mof_H 	H 	0.7128	0.0899	0.6967	0.073
Mof_H 	H 	0.1052	0.6036	0.891	0.068
Mof_H 	H 	0.473	0.1041	0.3505	0.049
Mof_H 	H 	0.41	0.1102	0.6284	0.075
Mof_H 	H 	0.1223	0.1291	0.2688	0.044
Mof_H 	H 	0.7872	0.4839	0.3771	0.073
Mof_H 	H 	0.1094	0.0161	0.6971	0.077
Mof_H 	H 	0.3932	0.5899	0.8771	0.073
Mof_H 	H 	0.1099	0.6107	0.4296	0.082
Mof_H 	H 	0.6894	0.6919	0.5701	0.085
Mof_H 	H 	0.8716	0.59	0.3898	0.075
Mof_H 	H 	0.2872	0.9101	0.3033	0.074
Mof_H 	H 	0.3775	0.2283	0.3692	0.046
Mof_H 	H 	0.4104	0.9083	0.6067	0.074
Mof_H 	H 	0.6218	0.1193	0.9299	0.085
Mof_H 	H 	0.8211	0.3019	0.9094	0.077
Mof_H 	H 	0.1971	0.1094	0.5161	0.076
Mof_H 	H 	0.2002	0.09	0.2184	0.075
Mof_H 	H 	0.7142	0.0016	0.1052	0.071
Mof_H 	H 	0.1397	0.3709	0.4932	0.045
Mof_H 	H 	0.8777	0.8709	0.7312	0.045
Mof_H 	H 	0.6278	0.104	0.2496	0.05
Mof_H 	H 	0.1963	0.6067	0.6984	0.074
Mof_H 	H 	0.7312	0.3603	0.3535	0.045
Mof_H 	H 	0.8535	0.7312	0.8603	0.044
Mof_H 	H 	0.8081	0.9975	0.3782	0.082
Mof_H 	H 	0.1894	0.6193	0.9975	0.081
Mof_H 	H 	0.3722	0.896	0.7504	0.051
Mof_H 	H 	0.3964	0.609	0.3948	0.068
Mof_H 	H 	0.5238	0.1456	0.896	0.052
Mof_H 	H 	0.0083	0.6308	0.8591	0.046
Mof_H 	H 	0.0906	0.8925	0.4117	0.076
Mof_H 	H 	0.3925	0.8019	0.9808	0.073
Mof_H 	H 	0.9917	0.3692	0.1409	0.045
Mof_H 	H 	0.1107	0.5008	0.6811	0.082
Mof_H 	H 	0.2128	0.5161	0.6229	0.073
Mof_H 	H 	0.3535	0.4932	0.1223	0.044
Mof_H 	H 	0.6099	0.1803	0.4992	0.082
Mof_H 	H 	0.9992	0.6099	0.6803	0.078
Mof_H 	H 	0.5182	0.3898	0.7998	0.075
Mof_H 	H 	0.1308	0.6225	0.2717	0.046
Mof_H 	H 	0.9984	0.3948	0.7858	0.064
Mof_H 	H 	0.6971	0.181	0.0877	0.075
Mof_H 	H 	0.2816	0.7998	0.41	0.075
Mof_H 	H 	0.3211	0.4117	0.5192	0.077
Mof_H 	H 	0.2283	0.8692	0.8775	0.046
Mof_H 	H 	0.4992	0.8189	0.3893	0.082
Mof_H 	H 	0.8544	0.604	0.9762	0.05
Mof_H 	H 	0.5906	0.1789	0.1981	0.077
Mof_H 	H 	0.6068	0.4101	0.1229	0.073
Mof_H 	H 	0.6041	0.6311	0.2536	0.05
Mof_H 	H 	0.8775	0.5083	0.1492	0.046
Mof_H 	H 	0.8692	0.3775	0.7283	0.045
Mof_H 	H 	0.7184	0.2002	0.59	0.075
Mof_H 	H 	0.527	0.8959	0.6495	0.05
Mof_H 	H 	0.4296	0.3189	0.8197	0.082
Mof_H 	H 	0.1967	0.7128	0.5899	0.073
Mof_H 	H 	0.1041	0.8505	0.973	0.049
Mof_H 	H 	0.2464	0.3959	0.8689	0.05
Mof_H 	H 	0.3197	0.4296	0.8189	0.082
Mof_H 	H 	0.1456	0.396	0.0238	0.051
Mof_H 	H 	0.6075	0.1981	0.0192	0.08
Mof_H 	H 	0.4818	0.6102	0.2002	0.075
Mof_H 	H 	0.6967	0.1068	0.4839	0.073
Mof_H 	H 	0.3775	0.1311	0.527	0.05
Mof_H 	H 	0.4984	0.7126	0.6036	0.068
Mof_H 	H 	0.3716	0.9818	0.2816	0.071
Mof_H 	H 	0.6225	0.8689	0.473	0.05
Mof_H 	H 	0.0917	0.8933	0.0896	0.074
Mof_H 	H 	0.3019	0.4094	0.3211	0.077
Mof_H 	H 	0.3893	0.0704	0.3901	0.082
Mof_H 	H 	0.7002	0.4818	0.1102	0.075
Mof_H 	H 	0.2688	0.6397	0.6465	0.045
Mof_H 	H 	0.8964	0.5016	0.7874	0.068
Mof_H 	H 	0.6409	0.9917	0.8692	0.045
Mof_H 	H 	0.3807	0.5025	0.3106	0.085
Mof_H 	H 	0.4101	0.6229	0.1068	0.073
Mof_H 	H 	0.1075	0.0883	0.4094	0.077
Mof_H 	H 	0.7496	0.6278	0.604	0.051
Mof_H 	H 	0.1225	0.4917	0.8508	0.045
Mof_H 	H 	0.8893	0.4992	0.3189	0.082
Mof_H 	H 	0.9839	0.8029	0.3906	0.075
Mof_H 	H 	0.7504	0.3544	0.8782	0.051
Mof_H 	H 	0.3016	0.4083	0.9979	0.07
Mof_H 	H 	0.7688	0.1223	0.6291	0.044
Mof_H 	H 	0.4123	0.3029	0.319	0.075
Mof_H 	H 	0.1067	0.4104	0.4083	0.074
Mof_H 	H 	0.5192	0.6075	0.6981	0.077
Mof_H 	H 	0.9979	0.0896	0.1963	0.069
Mof_H 	H 	0.0161	0.1971	0.6094	0.076
Mof_H 	H 	0.681	0.4839	0.5933	0.075
Mof_H 	H 	0.6811	0.6803	0.0704	0.082
Mof_H 	H 	0.1409	0.2717	0.6492	0.046
Mof_H 	H 	0.9083	0.1067	0.9104	0.074
Mof_H 	H 	0.4917	0.3508	0.6225	0.046
Mof_H 	H 	0.2184	0.6284	0.5182	0.075
Mof_H 	H 	0.609	0.8948	0.8964	0.068
Mof_H 	H 	0.5161	0.1229	0.7128	0.073
Mof_H 	H 	0.7717	0.1308	0.1225	0.045
Mof_H 	H 	0.6094	0.9123	0.0933	0.076
Mof_H 	H 	0.027	0.3775	0.6311	0.051
Mof_H 	H 	0.2312	0.8777	0.3709	0.045
Mof_H 	H 	0.5025	0.8106	0.8807	0.085
Mof_H 	H 	0.8508	0.8591	0.2283	0.046
Mof_H 	H 	0.6492	0.8775	0.0083	0.046
Mof_H 	H 	0.3898	0.2998	0.0182	0.078
Mof_H 	H 	0.8925	0.9117	0.5906	0.076
Mof_H 	H 	0.1803	0.9992	0.1099	0.078
Mof_H 	H 	0.3782	0.7504	0.8544	0.051
Mof_H 	H 	0.6067	0.1984	0.6963	0.074
Mof_H 	H 	0.9808	0.6789	0.0883	0.074
Mof_H 	H 	0.9094	0.1075	0.5883	0.077
Mof_H 	H 	0.9975	0.8782	0.3081	0.082
Mof_H 	H 	0.8197	0.0008	0.8901	0.084
Mof_H 	H 	0.3189	0.3197	0.9296	0.082
Mof_H 	H 	0.1465	0.2688	0.1397	0.045
Mof_H 	H 	0.1919	0.0025	0.6218	0.09
Mof_H 	H 	0.319	0.5161	0.4067	0.075
Mof_H 	H 	0.391	0.1052	0.1036	0.068
Mof_H 	H 	0.3771	0.3932	0.0899	0.073
Mof_C 	C 	0.5455	0.2455	0.1038	0.4
Mof_C 	C 	0.6411	0.022	0.1807	0.093
Mof_C 	C 	0.3413	0.4604	0.3193	0.094
Mof_C 	C 	0.4616	0.3017	0.3595	0.076
Mof_C 	C 	0.0602	0.3408	0.5868	0.351
Mof_C 	C 	0.0944	0.8762	0.9354	-0.074
Mof_C 	C 	0.6008	0.3491	0.9679	0.035
Mof_C 	C 	0.0583	0.2	0.4545	0.399
Mof_C 	C 	0.8762	0.4354	0.5944	-0.072
Mof_C 	C 	0.4579	0.1846	0.5453	0.389
Mof_C 	C 	0.8773	0.9248	0.2641	-0.092
Mof_C 	C 	0.5877	0.8424	0.0281	0.411
Mof_C 	C 	0.5583	0.1038	0.8583	0.399
Mof_C 	C 	0.0511	0.3989	0.6338	0.024
Mof_C 	C 	0.33	0.9371	0.8033	-0.063
Mof_C 	C 	0.2184	0.1759	0.7617	0.355
Mof_C 	C 	0.0911	0.9553	0.1732	-0.036
Mof_C 	C 	0.3874	0.6322	0.4448	-0.093
Mof_C 	C 	0.4531	0.7974	0.0245	0.327
Mof_C 	C 	0.5433	0.7617	0.5858	0.355
Mof_C 	C 	0.8874	0.4426	0.7552	-0.093
Mof_C 	C 	0.7806	0.4398	0.5266	0.352
Mof_C 	C 	0.4056	0.5719	0.6301	-0.065
Mof_C 	C 	0.8662	0.9489	0.1011	0.026
Mof_C 	C 	0.2517	0.6188	0.6509	0.035
Mof_C 	C 	0.6417	0.1042	0.4419	0.082
Mof_C 	C 	0.5396	0.1807	0.1587	0.094
Mof_C 	C 	0.1338	0.4371	0.1071	-0.062
Mof_C 	C 	0.9459	0.0763	0.8332	-0.093
Mof_C 	C 	0.5468	0.4415	0.1771	-0.083
Mof_C 	C 	0.4001	0.0629	0.3714	-0.054
Mof_C 	C 	0.7982	0.9174	0.8072	-0.059
Mof_C 	C 	0.3992	0.6509	0.0321	0.036
Mof_C 	C 	0.2617	0.2184	0.6759	0.355
Mof_C 	C 	0.5984	0.181	0.9898	-0.068
Mof_C 	C 	0.5752	0.9525	0.8393	-0.091
Mof_C 	C 	0.4575	0.2816	0.5433	0.355
Mof_C 	C 	0.3002	0.9625	0.3583	0.085
Mof_C 	C 	0.9547	0.5421	0.3154	0.389
Mof_C 	C 	0.8154	0.9547	0.0421	0.39
Mof_C 	C 	0.8662	0.5629	0.8929	-0.061
Mof_C 	C 	0.3699	0.4418	0.2755	-0.065
Mof_C 	C 	0.2974	0.4727	0.0437	0.369
Mof_C 	C 	0.3697	0.8229	0.2644	-0.083
Mof_C 	C 	0.5592	0.841	0.4354	-0.072
Mof_C 	C 	0.0496	0.1323	0.3989	0.014
Mof_C 	C 	0.1587	0.478	0.1191	0.094
Mof_C 	C 	0.0629	0.8714	0.9001	-0.054
Mof_C 	C 	0.6522	0.2349	0.6011	0.024
Mof_C 	C 	0.2431	0.5763	0.6304	-0.093
Mof_C 	C 	0.6167	0.3987	0.5896	-0.038
Mof_C 	C 	0.5808	0.7089	0.6631	-0.037
Mof_C 	C 	0.9734	0.2194	0.0602	0.347
Mof_C 	C 	0.6507	0.6011	0.7334	0.014
Mof_C 	C 	0.3017	0.8595	0.9616	0.077
Mof_C 	C 	0.6338	0.5267	0.6967	-0.062
Mof_C 	C 	0.4354	0.0944	0.3762	-0.073
Mof_C 	C 	0.4248	0.0475	0.1607	-0.092
Mof_C 	C 	0.5321	0.3992	0.1509	0.035
Mof_C 	C 	0.4734	0.4132	0.754	0.352
Mof_C 	C 	0.9398	0.6592	0.4132	0.352
Mof_C 	C 	0.9448	0.3874	0.1322	-0.093
Mof_C 	C 	0.8929	0.83	0.5267	-0.061
Mof_C 	C 	0.7617	0.0858	0.0433	0.356
Mof_C 	C 	0.9286	0.1557	0.4531	0.324
Mof_C 	C 	0.2463	0.6753	0.7026	0.368
Mof_C 	C 	0.2455	0.6038	0.0455	0.4
Mof_C 	C 	0.4173	0.3662	0.7651	0.024
Mof_C 	C 	0.8012	0.2405	0.3417	0.415
Mof_C 	C 	0.1012	0.2595	0.0607	0.415
Mof_C 	C 	0.4123	0.1576	0.9719	0.405
Mof_C 	C 	0.0266	0.7806	0.9398	0.355
Mof_C 	C 	0.6038	0.5455	0.7455	0.4
Mof_C 	C 	0.3662	0.2651	0.9173	0.023
Mof_C 	C 	0.9104	0.3833	0.1013	-0.038
Mof_C 	C 	0.4175	0.5273	0.8186	-0.051
Mof_C 	C 	0.1605	0.6204	0.4799	0.092
Mof_C 	C 	0.6286	0.1915	0.5287	-0.055
Mof_C 	C 	0.2913	0.9727	0.3902	-0.058
Mof_C 	C 	0.2651	0.4173	0.8662	0.024
Mof_C 	C 	0.7383	0.7816	0.3241	0.355
Mof_C 	C 	0.4567	0.2383	0.4142	0.355
Mof_C 	C 	0.3677	0.9173	0.7666	0.012
Mof_C 	C 	0.5578	0.8979	0.8595	0.076
Mof_C 	C 	0.8677	0.1011	0.4504	0.016
Mof_C 	C 	0.8091	0.8987	0.282	-0.038
Mof_C 	C 	0.3962	0.4545	0.2545	0.4
Mof_C 	C 	0.1042	0.9419	0.1417	0.082
Mof_C 	C 	0.4237	0.8696	0.2569	-0.093
Mof_C 	C 	0.1192	0.1102	0.9174	-0.059
Mof_C 	C 	0.6576	0.7453	0.6857	0.408
Mof_C 	C 	0.1011	0.6522	0.7349	0.026
Mof_C 	C 	0.5827	0.6338	0.2349	0.024
Mof_C 	C 	0.9001	0.5287	0.3372	-0.055
Mof_C 	C 	0.6194	0.9671	0.8657	0.031
Mof_C 	C 	0.2448	0.1874	0.6322	-0.093
Mof_C 	C 	0.6663	0.0944	0.2245	-0.066
Mof_C 	C 	0.6323	0.0827	0.2334	0.017
Mof_C 	C 	0.5826	0.1912	0.181	-0.062
Mof_C 	C 	0.0271	0.4104	0.8091	-0.032
Mof_C 	C 	0.0827	0.8478	0.9489	0.026
Mof_C 	C 	0.4417	0.8962	0.1417	0.4
Mof_C 	C 	0.6013	0.9104	0.8833	-0.038
Mof_C 	C 	0.7537	0.1343	0.1014	0.033
Mof_C 	C 	0.9504	0.8677	0.6011	0.015
Mof_C 	C 	0.274	0.4597	0.8885	-0.073
Mof_C 	C 	0.6759	0.9575	0.9142	0.355
Mof_C 	C 	0.3229	0.4532	0.0585	-0.086
Mof_C 	C 	0.9553	0.6732	0.5911	-0.037
Mof_C 	C 	0.9713	0.3714	0.3085	-0.061
Mof_C 	C 	0.4104	0.3091	0.5271	-0.038
Mof_C 	C 	0.2806	0.754	0.3408	0.352
Mof_C 	C 	0.0421	0.5874	0.7267	0.39
Mof_C 	C 	0.3401	0.0384	0.8979	0.074
Mof_C 	C 	0.1928	0.6102	0.491	-0.058
Mof_C 	C 	0.0552	0.6126	0.8678	-0.093
Mof_C 	C 	0.3372	0.3085	0.9371	-0.056
Mof_C 	C 	0.4408	0.159	0.5646	-0.072
Mof_C 	C 	0.9671	0.3657	0.1194	0.03
Mof_C 	C 	0.4525	0.3773	0.6132	-0.091
Mof_C 	C 	0.4595	0.6583	0.8988	0.415
Mof_C 	C 	0.1874	0.1322	0.7448	-0.093
Mof_C 	C 	0.7356	0.0585	0.6053	-0.085
Mof_C 	C 	0.1806	0.0401	0.1605	0.09
Mof_C 	C 	0.0826	0.9016	0.3914	-0.06
Mof_C 	C 	0.9173	0.1522	0.0511	0.022
Mof_C 	C 	0.5944	0.659	0.2182	-0.072
Mof_C 	C 	0.7537	0.3247	0.2974	0.368
Mof_C 	C 	0.1132	0.4525	0.8773	-0.093
Mof_C 	C 	0.7816	0.8241	0.2383	0.355
Mof_C 	C 	0.3	0.8583	0.7545	0.399
Mof_C 	C 	0.0574	0.4448	0.8126	-0.095
Mof_C 	C 	0.2453	0.0877	0.5596	0.408
Mof_C 	C 	0.6583	0.3988	0.9595	0.415
Mof_C 	C 	0.8696	0.7569	0.9237	-0.093
Mof_C 	C 	0.1592	0.7194	0.746	0.352
Mof_C 	C 	0.2089	0.1281	0.5458	-0.037
Mof_C 	C 	0.8589	0.0396	0.3809	0.092
Mof_C 	C 	0.4132	0.254	0.9734	0.348
Mof_C 	C 	0.0821	0.1732	0.2179	-0.035
Mof_C 	C 	0.6115	0.726	0.0403	-0.075
Mof_C 	C 	0.7733	0.9579	0.9126	0.388
Mof_C 	C 	0.607	0.0417	0.2191	-0.068
Mof_C 	C 	0.7463	0.8477	0.3806	0.031
Mof_C 	C 	0.2552	0.8874	0.9426	-0.091
Mof_C 	C 	0.2245	0.6301	0.0582	-0.067
Mof_C 	C 	0.2349	0.1011	0.1522	0.026
Mof_C 	C 	0.1301	0.4056	0.0719	-0.064
Mof_C 	C 	0.1322	0.2448	0.6874	-0.093
Mof_C 	C 	0.9525	0.3393	0.0752	-0.09
Mof_C 	C 	0.5458	0.9177	0.8369	-0.037
Mof_C 	C 	0.8085	0.9713	0.8714	-0.059
Mof_C 	C 	0.4729	0.282	0.3833	-0.038
Mof_C 	C 	0.1194	0.2537	0.6523	0.031
Mof_C 	C 	0.6322	0.9448	0.8874	-0.093
Mof_C 	C 	0.9132	0.9398	0.1592	0.352
Mof_C 	C 	0.0999	0.4713	0.6628	-0.055
Mof_C 	C 	0.0245	0.7271	0.0714	0.327
Mof_C 	C 	0.8914	0.0826	0.4016	-0.061
Mof_C 	C 	0.6071	0.1338	0.9371	-0.063
Mof_C 	C 	0.1115	0.0712	0.8855	-0.071
Mof_C 	C 	0.0384	0.3979	0.8401	0.074
Mof_C 	C 	0.0582	0.9281	0.3337	-0.067
Mof_C 	C 	0.3958	0.5375	0.8377	0.082
Mof_C 	C 	0.1759	0.2617	0.7184	0.355
Mof_C 	C 	0.3226	0.3879	0.2809	-0.064
Mof_C 	C 	0.0329	0.6343	0.8806	0.032
Mof_C 	C 	0.5453	0.8607	0.5874	0.389
Mof_C 	C 	0.9616	0.6021	0.1599	0.078
Mof_C 	C 	0.6053	0.0468	0.3697	-0.084
Mof_C 	C 	0.0944	0.7245	0.1663	-0.066
Mof_C 	C 	0.3186	0.4175	0.0273	-0.045
Mof_C 	C 	0.1338	0.0511	0.8989	0.022
Mof_C 	C 	0.1771	0.2356	0.1303	-0.083
Mof_C 	C 	0.0541	0.9237	0.1668	-0.093
Mof_C 	C 	0.3885	0.274	0.9597	-0.07
Mof_C 	C 	0.9727	0.8902	0.7913	-0.056
Mof_C 	C 	0.6238	0.2182	0.5592	-0.072
Mof_C 	C 	0.9393	0.6988	0.5405	0.416
Mof_C 	C 	0.0827	0.7334	0.1323	0.016
Mof_C 	C 	0.782	0.8091	0.3987	-0.038
Mof_C 	C 	0.0405	0.9393	0.1988	0.416
Mof_C 	C 	0.8583	0.3002	0.4625	0.082
Mof_C 	C 	0.3773	0.1132	0.9525	-0.092
Mof_C 	C 	0.8241	0.7383	0.2816	0.355
Mof_C 	C 	0.819	0.5102	0.9016	-0.062
Mof_C 	C 	0.9575	0.4142	0.1759	0.355
Mof_C 	C 	0.3595	0.5578	0.3979	0.076
Mof_C 	C 	0.9347	0.893	0.6121	-0.065
Mof_C 	C 	0.3796	0.0201	0.3395	0.092
Mof_C 	C 	0.7271	0.5714	0.5245	0.324
Mof_C 	C 	0.2974	0.3443	0.2729	0.324
Mof_C 	C 	0.5552	0.6874	0.4426	-0.093
Mof_C 	C 	0.3477	0.1014	0.9671	0.032
Mof_C 	C 	0.1583	0.1988	0.2595	0.416
Mof_C 	C 	0.2537	0.1523	0.6194	0.031
Mof_C 	C 	0.7641	0.8773	0.4248	-0.092
Mof_C 	C 	0.2818	0.4056	0.841	-0.072
Mof_C 	C 	0.0102	0.6912	0.1086	-0.057
Mof_C 	C 	0.2733	0.3607	0.8154	0.389
Mof_C 	C 	0.1599	0.0578	0.6983	0.077
Mof_C 	C 	0.3762	0.7818	0.4408	-0.072
Mof_C 	C 	0.8989	0.0496	0.6323	0.012
Mof_C 	C 	0.3607	0.3154	0.7733	0.389
Mof_C 	C 	0.3268	0.9089	0.5447	-0.037
Mof_C 	C 	0.2026	0.4755	0.0469	0.323
Mof_C 	C 	0.1303	0.3947	0.4532	-0.083
Mof_C 	C 	0.8986	0.5329	0.1523	0.03
Mof_C 	C 	0.6771	0.5468	0.9415	-0.081
Mof_C 	C 	0.2463	0.8657	0.8986	0.03
Mof_C 	C 	0.4174	0.1192	0.6102	-0.058
Mof_C 	C 	0.8126	0.8678	0.2552	-0.093
Mof_C 	C 	0.4126	0.7733	0.4579	0.389
Mof_C 	C 	0.8808	0.8898	0.0826	-0.056
Mof_C 	C 	0.8477	0.8806	0.2463	0.031
Mof_C 	C 	0.5384	0.6983	0.6405	0.076
Mof_C 	C 	0.4089	0.5821	0.8642	-0.037
Mof_C 	C 	0.1405	0.1204	0.9599	0.094
Mof_C 	C 	0.5287	0.8372	0.4001	-0.055
Mof_C 	C 	0.3126	0.0574	0.9448	-0.095
Mof_C 	C 	0.1628	0.0999	0.9713	-0.061
Mof_C 	C 	0.3914	0.9898	0.8088	-0.068
Mof_C 	C 	0.2026	0.2463	0.1753	0.368
Mof_C 	C 	0.8879	0.0653	0.607	-0.062
Mof_C 	C 	0.3719	0.0808	0.9177	-0.036
Mof_C 	C 	0.7818	0.9408	0.8762	-0.071
Mof_C 	C 	0.022	0.6807	0.1411	0.094
Mof_C 	C 	0.8873	0.8332	0.7569	-0.092
Mof_C 	C 	0.0273	0.8247	0.071	0.371
Mof_C 	C 	0.8413	0.522	0.8809	0.093
Mof_C 	C 	0.3395	0.8194	0.4599	0.092
Mof_C 	C 	0.5868	0.746	0.0266	0.356
Mof_C 	C 	0.7194	0.246	0.6592	0.352
Mof_C 	C 	0.1522	0.5511	0.4173	0.024
Mof_C 	C 	0.8143	0.3424	0.7547	0.408
Mof_C 	C 	0.67	0.0629	0.1967	-0.061
Mof_C 	C 	0.1281	0.0458	0.7089	-0.037
Mof_C 	C 	0.4625	0.6623	0.1042	0.082
Mof_C 	C 	0.0468	0.8697	0.1053	-0.084
Mof_C 	C 	0.3417	0.6012	0.0405	0.415
Mof_C 	C 	0.1323	0.8989	0.5496	0.012
Mof_C 	C 	0.2547	0.8143	0.8424	0.408
Mof_C 	C 	0.0455	0.9417	0.3	0.401
Mof_C 	C 	0.3947	0.9532	0.6303	-0.083
Mof_C 	C 	0.2267	0.0421	0.0874	0.39
Mof_C 	C 	0.9563	0.929	0.7537	0.367
Mof_C 	C 	0.1668	0.7431	0.6127	-0.093
Mof_C 	C 	0.8401	0.9422	0.3017	0.075
Mof_C 	C 	0.7545	0.3962	0.9545	0.399
Mof_C 	C 	0.1191	0.1411	0.4604	0.094
Mof_C 	C 	0.2	0.9545	0.5583	0.399
Mof_C 	C 	0.6012	0.5405	0.8417	0.415
Mof_C 	C 	0.2545	0.3	0.3583	0.4
Mof_C 	C 	0.3989	0.1338	0.5511	0.024
Mof_C 	C 	0.1857	0.5712	0.4597	-0.073
Mof_C 	C 	0.5629	0.3929	0.3662	-0.062
Mof_C 	C 	0.9192	0.5823	0.1281	-0.038
Mof_C 	C 	0.282	0.8833	0.9729	-0.043
Mof_C 	C 	0.9419	0.6417	0.6042	0.082
Mof_C 	C 	0.0396	0.8809	0.3589	0.092
Mof_C 	C 	0.6605	0.1806	0.5401	0.092
Mof_C 	C 	0.9089	0.0447	0.8268	-0.037
Mof_C 	C 	0.4418	0.7755	0.8699	-0.065
Mof_C 	C 	0.718	0.1167	0.0271	-0.032
Mof_C 	C 	0.7455	0.7	0.6417	0.4
Mof_C 	C 	0.5245	0.4531	0.2974	0.324
Mof_C 	C 	0.6417	0.4417	0.3962	0.4
Mof_C 	C 	0.1846	0.0453	0.9579	0.388
Mof_C 	C 	0.6806	0.5201	0.1405	0.092
Mof_C 	C 	0.0825	0.9011	0.1098	-0.051
Mof_C 	C 	0.1915	0.0287	0.1286	-0.048
Mof_C 	C 	0.0375	0.1417	0.1998	0.08
Mof_C 	C 	0.1417	0.6998	0.5375	0.083
Mof_C 	C 	0.8988	0.7405	0.9393	0.416
Mof_C 	C 	0.8989	0.3478	0.2651	0.023
Mof_C 	C 	0.0403	0.8143	0.9288	-0.076
Mof_C 	C 	0.774	0.8855	0.8143	-0.072
Mof_C 	C 	0.4173	0.5496	0.6507	0.014
Mof_C 	C 	0.6304	0.5541	0.8873	-0.092
Mof_C 	C 	0.2191	0.6774	0.1121	-0.066
Mof_C 	C 	0.6343	0.3806	0.5329	0.031
Mof_C 	C 	0.9371	0.3033	0.83	-0.063
Mof_C 	C 	0.3678	0.0552	0.1126	-0.093
Mof_C 	C 	0.3247	0.7974	0.2537	0.368
Mof_C 	C 	0.9123	0.9404	0.2547	0.408
Mof_C 	C 	0.2018	0.0826	0.1928	-0.056
Mof_C 	C 	0.0417	0.7191	0.107	-0.067
Mof_C 	C 	0.571	0.0273	0.3247	0.371
Mof_C 	C 	0.2483	0.8992	0.3671	0.033
Mof_C 	C 	0.2821	0.9179	0.3268	-0.038
Mof_C 	C 	0.4547	0.1393	0.4126	0.39
Mof_C 	C 	0.8714	0.4001	0.5629	-0.055
Mof_C 	C 	0.1238	0.5646	0.4056	-0.072
Mof_C 	C 	0.1393	0.9126	0.9547	0.389
Mof_C 	C 	0.8393	0.3868	0.7641	-0.092
Mof_C 	C 	0.3696	0.4459	0.1127	-0.094
Mof_C 	C 	0.3657	0.6194	0.4671	0.031
Mof_C 	C 	0.5596	0.9719	0.8143	0.405
Mof_C 	C 	0.7018	0.509	0.1192	-0.058
Mof_C 	C 	0.2087	0.5989	0.6814	-0.051
Mof_C 	C 	0.8902	0.2913	0.4727	-0.051
Mof_C 	C 	0.2359	0.1227	0.5752	-0.091
Mof_C 	C 	0.0592	0.6238	0.7182	-0.074
Mof_C 	C 	0.5719	0.1301	0.9056	-0.064
Mof_C 	C 	0.8699	0.5944	0.9281	-0.066
Mof_C 	C 	0.3478	0.7651	0.3989	0.024
Mof_C 	C 	0.4553	0.8642	0.2821	-0.037
Mof_C 	C 	0.4563	0.7026	0.0273	0.371
Mof_C 	C 	0.1998	0.5581	0.6623	0.083
Mof_C 	C 	0.254	0.4734	0.9132	0.352
Mof_C 	C 	0.1507	0.4173	0.0496	0.014
Mof_C 	C 	0.8072	0.3898	0.509	-0.058
Mof_C 	C 	0.1631	0.5808	0.2089	-0.037
Mof_C 	C 	0.0475	0.6607	0.9248	-0.092
Mof_C 	C 	0.3902	0.9175	0.5989	-0.052
Mof_C 	C 	0.7463	0.0437	0.571	0.369
Mof_C 	C 	0.8443	0.0469	0.5714	0.323
Mof_C 	C 	0.8809	0.8589	0.5396	0.093
Mof_C 	C 	0.9177	0.3369	0.0458	-0.038
Mof_C 	C 	0.522	0.3809	0.3413	0.094
Mof_C 	C 	0.1014	0.4671	0.8477	0.033
Mof_C 	C 	0.2644	0.9415	0.3947	-0.081
Mof_C 	C 	0.2911	0.8369	0.9192	-0.038
Mof_C 	C 	0.9604	0.1191	0.6411	0.097
Mof_C 	C 	0.7911	0.8719	0.4542	-0.037
Mof_C 	C 	0.4371	0.6071	0.6338	-0.062
Mof_C 	C 	0.7644	0.3697	0.3229	-0.083
Mof_C 	C 	0.3595	0.3194	0.9799	0.092
Mof_C 	C 	0.0989	0.3902	0.4175	-0.051
Mof_C 	C 	0.9727	0.1753	0.929	0.364
Mof_C 	C 	0.7453	0.1857	0.1576	0.409
Mof_C 	C 	0.4504	0.8493	0.0827	0.017
Mof_C 	C 	0.3377	0.3958	0.0375	0.08
Mof_C 	C 	0.9281	0.8337	0.5582	-0.066
Mof_C 	C 	0.3671	0.9679	0.6188	0.035
Mof_C 	C 	0.8332	0.2569	0.3873	-0.093
Mof_C 	C 	0.6329	0.0321	0.3812	0.036
Mof_C 	C 	0.1912	0.681	0.0826	-0.06
Mof_C 	C 	0.3868	0.2641	0.3393	-0.091
Mof_C 	C 	0.7359	0.1607	0.1132	-0.092
Mof_C 	C 	0.7089	0.1631	0.0808	-0.036
Mof_C 	C 	0.9179	0.8268	0.7821	-0.038
Mof_C 	C 	0.9011	0.6098	0.5825	-0.051
Mof_C 	C 	0.7974	0.5245	0.9531	0.324
Mof_C 	C 	0.5827	0.4504	0.3493	0.014
Mof_C 	C 	0.5425	0.7184	0.4567	0.355
Mof_C 	C 	0.1071	0.17	0.4733	-0.062
Mof_C 	C 	0.5417	0.4347	0.3226	-0.064
Mof_C 	C 	0.1983	0.1599	0.5578	0.076
Mof_C 	C 	0.4056	0.341	0.7818	-0.072
Mof_C 	C 	0.8987	0.782	0.3091	-0.038
Mof_C 	C 	0.6042	0.4625	0.1623	0.083
Mof_C 	C 	0.4604	0.8193	0.8413	0.094
Mof_C 	C 	0.7026	0.5273	0.9563	0.367
Mof_C 	C 	0.3408	0.0868	0.5602	0.352
Mof_C 	C 	0.9489	0.6011	0.3662	0.025
Mof_C 	C 	0.2641	0.8393	0.8868	-0.091
Mof_C 	C 	0.6405	0.4422	0.6021	0.076
Mof_C 	C 	0.5607	0.1012	0.7595	0.415
Mof_C 	C 	0.509	0.6192	0.2018	-0.058
Mof_C 	C 	0.4288	0.0403	0.3143	-0.075
Mof_C 	C 	0.9237	0.6668	0.5541	-0.093
Mof_C 	C 	0.6191	0.1587	0.978	0.094
Mof_C 	C 	0.3033	0.33	0.4371	-0.062
Mof_C 	C 	0.6857	0.4404	0.5281	0.408
Mof_C 	C 	0.5581	0.1623	0.6998	0.083
Mof_C 	C 	0.9126	0.4547	0.6393	0.389
Mof_C 	C 	0.3194	0.4799	0.8595	0.092
Mof_C 	C 	0.5201	0.6405	0.1806	0.092
Mof_C 	C 	0.8337	0.0582	0.4281	-0.067
Mof_C 	C 	0.0823	0.6631	0.9542	-0.036
Mof_C 	C 	0.8229	0.7644	0.8697	-0.084
Mof_C 	C 	0.9056	0.2755	0.8337	-0.064
Mof_C 	C 	0.1814	0.2087	0.0989	-0.051
Mof_C 	C 	0.659	0.7182	0.0944	-0.073
Mof_C 	C 	0.681	0.5826	0.6912	-0.062
Mof_C 	C 	0.6753	0.2026	0.7463	0.368
Mof_C 	C 	0.9679	0.1188	0.8671	0.034
Mof_C 	C 	0.9799	0.1605	0.1204	0.092
Mof_C 	C 	0.3193	0.3589	0.478	0.094
Mof_C 	C 	0.5273	0.3186	0.9175	-0.052
Mof_C 	C 	0.0281	0.6857	0.9404	0.411
Mof_C 	C 	0.1188	0.3671	0.4679	0.035
Mof_C 	C 	0.1286	0.5999	0.4371	-0.055
Mof_C 	C 	0.7179	0.0821	0.6732	-0.035
Mof_C 	C 	0.5511	0.9173	0.6522	0.023
Mof_C 	C 	0.3072	0.7982	0.4174	-0.058
Mof_C 	C 	0.5469	0.2026	0.9755	0.32
Mof_C 	C 	0.1098	0.7087	0.5273	-0.051
Mof_C 	C 	0.6358	0.5911	0.9179	-0.038
Mof_C 	C 	0.7448	0.1126	0.0574	-0.095
Mof_C 	C 	0.1405	0.5384	0.1983	0.076
Mof_C 	C 	0.991	0.1928	0.1102	-0.064
Mof_C 	C 	0.3583	0.5583	0.6038	0.4
Mof_C 	C 	0.0607	0.3012	0.4595	0.415
Mof_C 	C 	0.5267	0.1967	0.1338	-0.062
Mof_C 	C 	0.5574	0.7448	0.6126	-0.093
Mof_C 	C 	0.1126	0.5574	0.2448	-0.093
Mof_C 	C 	0.7666	0.3493	0.8989	0.012
Mof_C 	C 	0.5911	0.4179	0.1358	-0.037
Mof_C 	C 	0.6998	0.0375	0.6417	0.081
Mof_C 	C 	0.1011	0.9504	0.3677	0.016
Mof_C 	C 	0.4393	0.8988	0.2405	0.415
Mof_C 	C 	0.4179	0.6358	0.0911	-0.037
Mof_C 	C 	0.4671	0.3477	0.6014	0.031
Mof_C 	C 	0.6774	0.6121	0.7191	-0.064
Mof_C 	C 	0.0201	0.8395	0.8796	0.092
Mof_C 	C 	0.4755	0.5469	0.7026	0.324
Mof_C 	C 	0.1304	0.2431	0.0763	-0.092
Mof_C 	C 	0.3812	0.8491	0.2483	0.035
Mof_C 	C 	0.8812	0.6329	0.5321	0.035
Mof_C 	C 	0.5602	0.9734	0.7194	0.349
Mof_C 	C 	0.7913	0.4011	0.3186	-0.051
Mof_C 	C 	0.6628	0.6915	0.0629	-0.054
Mof_C 	C 	0.5273	0.4563	0.2026	0.368
Mof_C 	C 	0.9531	0.9286	0.6557	0.323
Mof_C 	C 	0.4404	0.0281	0.1857	0.411
Mof_C 	C 	0.8088	0.319	0.9174	-0.064
Mof_C 	C 	0.7245	0.6663	0.5944	-0.065
Mof_C 	C 	0.0653	0.107	0.3879	-0.063
Mof_C 	C 	0.8143	0.4288	0.5403	-0.073
Mof_C 	C 	0.6132	0.7359	0.6607	-0.091
Mof_C 	C 	0.8372	0.9001	0.0287	-0.049
Mof_C 	C 	0.0719	0.1663	0.4418	-0.064
Mof_C 	C 	0.4719	0.4123	0.6576	0.408
Mof_C 	C 	0.2405	0.8417	0.3012	0.415
Mof_C 	C 	0.0469	0.0714	0.3443	0.324
Mof_C 	C 	0.4419	0.8377	0.3002	0.082
Mof_C 	C 	0.83	0.0267	0.3929	-0.057
Mof_C 	C 	0.4898	0.5984	0.681	-0.062
Mof_C 	C 	0.9404	0.7547	0.4123	0.409
Mof_C 	C 	0.3589	0.978	0.8193	0.094
Mof_C 	C 	0.9583	0.2809	0.893	-0.06
Mof_C 	C 	0.4415	0.6771	0.0468	-0.084
Mof_C 	C 	0.6631	0.4542	0.5823	-0.037
Mof_C 	C 	0.8583	0.2545	0.8	0.399
Mof_C 	C 	0.1411	0.9604	0.6191	0.097
Mof_C 	C 	0.5401	0.8595	0.3796	0.092
Mof_C 	C 	0.746	0.5266	0.0868	0.352
Mof_C 	C 	0.393	0.9583	0.7809	-0.061
Mof_C 	C 	0.8678	0.7552	0.3126	-0.093
Mof_C 	C 	0.1523	0.1194	0.7537	0.031
Mof_C 	C 	0.17	0.9733	0.6071	-0.069
Mof_C 	C 	0.2383	0.9142	0.9567	0.354
Mof_C 	C 	0.4532	0.5585	0.8229	-0.083
Mof_C 	C 	0.8193	0.3413	0.9604	0.096
Mof_C 	C 	0.978	0.3193	0.8589	0.094
Mof_C 	C 	0.1204	0.4599	0.6405	0.092
Mof_C 	C 	0.8002	0.4419	0.3377	0.082
Mof_C 	C 	0.6732	0.0911	0.4553	-0.037
Mof_C 	C 	0.4489	0.0827	0.3478	0.026
Mof_C 	C 	0.8642	0.7821	0.9553	-0.037
Mof_C 	C 	0.9408	0.3762	0.2818	-0.07
Mof_C 	C 	0.3808	0.2982	0.991	-0.063
Mof_C 	C 	0.4545	0.7545	0.8962	0.4
Mof_C 	C 	0.6102	0.991	0.6928	-0.062
Mof_C 	C 	0.9174	0.0984	0.6086	-0.065
Mof_C 	C 	0.4599	0.1405	0.6204	0.092
Mof_C 	C 	0.7809	0.3226	0.8879	-0.063
Mof_C 	C 	0.3393	0.5752	0.4525	-0.091
Mof_C 	C 	0.4192	0.2911	0.3369	-0.037
Mof_C 	C 	0.7334	0.6323	0.5827	0.014
Mof_C 	C 	0.8697	0.6053	0.5468	-0.083
Mof_C 	C 	0.8979	0.3595	0.0578	0.076
Mof_C 	C 	0.7729	0.2974	0.8443	0.323
Mof_C 	C 	0.9579	0.4126	0.2733	0.388
Mof_C 	C 	0.4448	0.3126	0.5574	-0.093
Mof_C 	C 	0.6145	0.8885	0.4288	-0.073
Mof_C 	C 	0.0858	0.5433	0.2617	0.356
Mof_C 	C 	0.7182	0.5944	0.159	-0.072
Mof_C 	C 	0.1576	0.4719	0.9123	0.408
Mof_C 	C 	0.8833	0.4729	0.782	-0.038
Mof_C 	C 	0.9142	0.4567	0.7383	0.355
Mof_C 	C 	0.2179	0.5447	0.6358	-0.037
Mof_C 	C 	0.6393	0.6846	0.2267	0.389
Mof_C 	C 	0.6188	0.1509	0.7517	0.035
Mof_C 	C 	0.3879	0.7809	0.8226	-0.064
Mof_C 	C 	0.6227	0.8868	0.0475	-0.091
Mof_C 	C 	0.0984	0.1086	0.4174	-0.062
Mof_C 	C 	0.3979	0.3401	0.5384	0.076
Mof_C 	C 	0.5102	0.4016	0.319	-0.062
Mof_C 	C 	0.2182	0.0592	0.1238	-0.075
Mof_C 	C 	0.2194	0.5602	0.4734	0.352
Mof_C 	C 	0.4459	0.6127	0.8696	-0.093
Mof_C 	C 	0.8958	0.0581	0.8583	0.083
Mof_C 	C 	0.3662	0.4733	0.3033	-0.062
Mof_C 	C 	0.5858	0.3241	0.5425	0.355
Mof_C 	C 	0.6127	0.3696	0.9459	-0.093
Mof_C 	C 	0.7552	0.8126	0.3678	-0.093
Mof_C 	C 	0.3337	0.9056	0.7755	-0.064
Mof_C 	C 	0.1663	0.9418	0.5719	-0.062
Mof_C 	C 	0.3091	0.0271	0.9104	-0.032
Mof_C 	C 	0.0447	0.3268	0.4089	-0.037
Mof_C 	C 	0.3898	0.009	0.3072	-0.052
Mof_C 	C 	0.8478	0.4489	0.5827	0.024
Mof_C 	C 	0.2809	0.393	0.4583	-0.064
Mof_C 	C 	0.1807	0.6587	0.0396	0.092
Mof_C 	C 	0.8885	0.9288	0.1145	-0.074
Mof_C 	C 	0.5646	0.9056	0.6238	-0.072
Mof_C 	C 	0.9597	0.1857	0.0712	-0.069
Mof_C 	C 	0.4286	0.9755	0.7729	0.32
Mof_C 	C 	0.2755	0.3337	0.4056	-0.065
Mof_C 	C 	0.6281	0.9192	0.0823	-0.038
Mof_C 	C 	0.3491	0.4679	0.1008	0.037
Mof_C 	C 	0.5266	0.5868	0.246	0.352
Mof_C 	C 	0.5421	0.8154	0.4547	0.389
Mof_C 	C 	0.1909	0.1013	0.718	-0.038
Mof_C 	C 	0.3929	0.8662	0.0629	-0.061
Mof_C 	C 	0.841	0.9354	0.0592	-0.075
Mof_C 	C 	0.7974	0.7537	0.8247	0.368
Mof_C 	C 	0.9422	0.8017	0.3401	0.075
Mof_C 	C 	0.7483	0.3812	0.3491	0.035
Mof_C 	C 	0.8607	0.0874	0.0453	0.389
Mof_C 	C 	0.0629	0.6967	0.17	-0.061
Mof_C 	C 	0.3443	0.7729	0.7974	0.324
Mof_C 	C 	0.8595	0.8796	0.0401	0.09
Mof_C 	C 	0.7569	0.4237	0.3696	-0.093
Mof_C 	C 	0.5874	0.2267	0.5421	0.389
Mof_C 	C 	0.5714	0.0245	0.2271	0.327
Mof_C 	C 	0.3424	0.2547	0.3143	0.408
Mof_C 	C 	0.6607	0.4248	0.5475	-0.091
Mof_C 	C 	0.3809	0.8413	0.022	0.093
Mof_C 	C 	0.2356	0.6303	0.6771	-0.083
Mof_C 	C 	0.9248	0.7641	0.3773	-0.092
Mof_C 	C 	0.1557	0.9531	0.4286	0.324
Mof_C 	C 	0.159	0.0646	0.9408	-0.069
Mof_C 	C 	0.9567	0.5425	0.2184	0.354
Mof_C 	C 	0.5653	0.1774	0.9583	-0.061
Mof_C 	C 	0.4597	0.3885	0.774	-0.073
Mof_C 	C 	0.6909	0.9729	0.0896	-0.043
Mof_C 	C 	0.4281	0.8699	0.0944	-0.066
Mof_C 	C 	0.7191	0.607	0.5417	-0.064
Mof_C 	C 	0.8017	0.8401	0.4422	0.076
Mof_C 	C 	0.929	0.2537	0.4563	0.368
Mof_C 	C 	0.8247	0.571	0.5273	0.368
Mof_C 	C 	0.6874	0.9426	0.0552	-0.091
Mof_C 	C 	0.8657	0.3986	0.7463	0.031
Mof_C 	C 	0.6509	0.5321	0.8992	0.034
Mof_C 	C 	0.6338	0.7349	0.0827	0.026
Mof_C 	C 	0.4799	0.3595	0.8194	0.092
Mof_C 	C 	0.0433	0.4575	0.7816	0.356
Mof_C 	C 	0.9288	0.6145	0.3885	-0.073
Mof_C 	C 	0.8992	0.8671	0.7483	0.034
Mof_C 	C 	0.3085	0.4371	0.8372	-0.055
Mof_C 	C 	0.1167	0.5271	0.218	-0.038
Mof_C 	C 	0.3088	0.3914	0.4898	-0.062
Mof_C 	C 	0.4174	0.8088	0.819	-0.062
Mof_C 	C 	0.893	0.1121	0.4347	-0.066
Mof_C 	C 	0.7267	0.6393	0.1846	0.389
Mof_C 	C 	0.3833	0.6013	0.4104	-0.038
Mof_C 	C 	0.8855	0.3143	0.274	-0.072
Mof_C 	C 	0.1227	0.0752	0.7359	-0.091
Mof_C 	C 	0.9174	0.3072	0.2982	-0.059
Mof_C 	C 	0.7595	0.1583	0.6988	0.416
Mof_C 	C 	0.429	0.9727	0.6753	0.365
Mof_C 	C 	0.6121	0.2191	0.1774	-0.064
Mof_C 	C 	0.8268	0.2821	0.4179	-0.037
Mof_C 	C 	0.2537	0.9563	0.429	0.367
Mof_C 	C 	0.1988	0.7595	0.6583	0.415
Mof_C 	C 	0.2595	0.5607	0.6012	0.415
Mof_C 	C 	0.0712	0.3855	0.6115	-0.072
Mof_C 	C 	0.8493	0.5827	0.9504	0.015
Mof_C 	C 	0.2569	0.8873	0.3332	-0.092
Mof_C 	C 	0.8226	0.5417	0.9347	-0.065
Mof_C 	C 	0.6523	0.8986	0.0329	0.031
Mof_C 	C 	0.5496	0.1507	0.9173	0.012
Mof_C 	C 	0.9625	0.8583	0.8002	0.084
Mof_C 	C 	0.726	0.5403	0.1115	-0.073
Mof_C 	C 	0.9417	0.8	0.5455	0.4
Mof_C 	C 	0.5271	0.718	0.6167	-0.038
Mof_C 	C 	0.4371	0.3372	0.8085	-0.055
Mof_C 	C 	0.3873	0.6304	0.0541	-0.093
Mof_C 	C 	0.1774	0.4583	0.0653	-0.064
Mof_C 	C 	0.5582	0.2245	0.1301	-0.065
Mof_C 	C 	0.6988	0.0405	0.4393	0.415
Mof_C 	C 	0.0763	0.3332	0.4459	-0.092
Mof_C 	C 	0.2271	0.7026	0.1557	0.324
Mof_C 	C 	0.3241	0.0425	0.0858	0.355
Mof_C 	C 	0.8671	0.2483	0.3992	0.035
Mof_C 	C 	0.1053	0.7356	0.5585	-0.083
Mof_C 	C 	0.9733	0.1071	0.67	-0.07
Mof_C 	C 	0.8962	0.6417	0.9417	0.4
Mof_C 	C 	0.8417	0.8012	0.7405	0.415
Mof_C 	C 	0.0808	0.4177	0.8719	-0.035
Mof_C 	C 	0.9599	0.3395	0.3194	0.094
Mof_C 	C 	0.1753	0.429	0.4727	0.368
Mof_C 	C 	0.0752	0.2359	0.6227	-0.091
Mof_C 	C 	0.1013	0.218	0.6909	-0.038
Mof_C 	C 	0.0437	0.071	0.2463	0.37
Mof_C 	C 	0.0877	0.0596	0.7453	0.408
Mof_C 	C 	0.8898	0.5826	0.3808	-0.058
Mof_C 	C 	0.0425	0.5858	0.8241	0.355
Mof_C 	C 	0.5896	0.6909	0.4729	-0.038
Mof_C 	C 	0.9719	0.3143	0.0596	0.404
Mof_C 	C 	0.9532	0.1303	0.8947	-0.082
Mof_C 	C 	0.4398	0.0266	0.2806	0.356
Mof_C 	C 	0.5821	0.3642	0.9089	-0.037
Mof_C 	C 	0.491	0.3808	0.7982	-0.058
Mof_C 	C 	0.6668	0.0541	0.4237	-0.093
Mof_C 	C 	0.9354	0.5592	0.341	-0.073
Mof_C 	C 	0.4011	0.8186	0.2913	-0.051
Mof_C 	C 	0.1127	0.1668	0.2431	-0.094
Mof_C 	C 	0.4347	0.8226	0.0417	-0.068
Mof_C 	C 	0.7349	0.5827	0.1338	0.024
Mof_C 	C 	0.2816	0.0433	0.9575	0.356
Mof_C 	C 	0.3012	0.9595	0.5607	0.415
Mof_C 	C 	0.3855	0.1115	0.5712	-0.073
Mof_C 	C 	0.6126	0.3678	0.5552	-0.093
Mof_C 	C 	0.6592	0.9132	0.4398	0.352
Mof_C 	C 	0.1086	0.9174	0.5984	-0.064
Mof_C 	C 	0.0453	0.4579	0.6846	0.389
Mof_C 	C 	0.6303	0.1771	0.7356	-0.083
Mof_C 	C 	0.7431	0.1127	0.6668	-0.094
Mof_C 	C 	0.9415	0.8947	0.7644	-0.082
Mof_C 	C 	0.7184	0.9567	0.0425	0.354
Mof_C 	C 	0.9595	0.0607	0.8012	0.415
Mof_C 	C 	0.1417	0.7455	0.2	0.4
Mof_C 	C 	0.1121	0.9347	0.393	-0.066
Mof_C 	C 	0.8033	0.3662	0.9733	-0.068
Mof_C 	C 	0.9729	0.5896	0.1909	-0.043
Mof_C 	C 	0.5585	0.3229	0.9532	-0.083
Mof_C 	C 	0.4679	0.6008	0.8491	0.035
Mof_C 	C 	0.0868	0.0602	0.8408	0.351
Mof_C 	C 	0.4542	0.0823	0.1631	-0.036
Mof_C 	C 	0.5437	0.2974	0.9727	0.365
Mof_C 	C 	0.0578	0.1983	0.6599	0.077
Mof_C 	C 	0.3988	0.4595	0.1583	0.416
Mof_C 	C 	0.8868	0.5475	0.1227	-0.09
Mof_C 	C 	0.0896	0.6167	0.8987	-0.038
Mof_C 	C 	0.218	0.1909	0.6013	-0.038
Mof_C 	C 	0.8719	0.9542	0.2911	-0.037
Mof_C 	C 	0.9371	0.1286	0.0999	-0.056
Mof_C 	C 	0.6021	0.6599	0.4616	0.076
Mof_C 	C 	0.9173	0.2666	0.8677	0.012
Mof_C 	C 	0.5281	0.5877	0.3424	0.408
Mof_C 	C 	0.0287	0.6286	0.6915	-0.049
Mof_C 	C 	0.1329	0.7517	0.6008	0.035
Mof_C 	C 	0.1358	0.2179	0.0447	-0.037
Mof_C 	C 	0.6857	0.226	0.6145	-0.073
Mof_C 	C 	0.4727	0.5437	0.7974	0.368
Mof_C 	C 	0.6623	0.6042	0.9625	0.084
Mof_C 	C 	0.4727	0.6814	0.0825	-0.051
Mof_C 	C 	0.1145	0.6857	0.726	-0.074
Mof_C 	C 	0.226	0.1145	0.1857	-0.074
Mof_C 	C 	0.6846	0.7267	0.1393	0.39
Mof_C 	C 	0.341	0.2818	0.9056	-0.072
Mof_C 	C 	0.0458	0.2089	0.6281	-0.037
Mof_C 	C 	0.3369	0.5458	0.4177	-0.037
Mof_C 	C 	0.5825	0.4727	0.1814	-0.051
Mof_C 	C 	0.2666	0.3677	0.4173	0.014
Mof_C 	C 	0.4177	0.3719	0.5808	-0.037
Mof_C 	C 	0.0401	0.6605	0.6806	0.09
Mof_C 	C 	0.3806	0.0329	0.1343	0.032
Mof_C 	C 	0.107	0.8879	0.5653	-0.063
Mof_C 	C 	0.9542	0.7911	0.3719	-0.037
Mof_C 	C 	0.5475	0.6227	0.3868	-0.091
Mof_C 	C 	0.1857	0.6576	0.2453	0.408
Mof_C 	C 	0.7026	0.6557	0.7271	0.324
Mof_C 	C 	0.6807	0.6411	0.522	0.094
Mof_C 	C 	0.3583	0.8958	0.5581	0.083
Mof_C 	C 	0.6912	0.6086	0.5102	-0.062
Mof_C 	C 	0.5944	0.4281	0.3699	-0.065
Mof_C 	C 	0.8806	0.7463	0.3477	0.031
Mof_C 	C 	0.6928	0.2018	0.5826	-0.058
Mof_C 	C 	0.0321	0.8812	0.1329	0.036
Mof_C 	C 	0.6192	0.7018	0.009	-0.053
Mof_C 	C 	0.009	0.8072	0.8898	-0.053
Mof_C 	C 	0.3987	0.0896	0.1167	-0.038
Mof_C 	C 	0.181	0.4898	0.0984	-0.062
Mof_C 	C 	0.0874	0.5453	0.3607	0.389
Mof_C 	C 	0.5405	0.3417	0.1012	0.415
Mof_C 	C 	0.3493	0.3989	0.2666	0.014
Mof_C 	C 	0.4422	0.1021	0.1405	0.076
Mof_C 	C 	0.1038	0.3583	0.0583	0.399
Mof_C 	C 	0.6011	0.2334	0.1507	0.014
Mof_C 	C 	0.8186	0.7913	0.9011	-0.051
Mof_C 	C 	0.6967	0.67	0.5629	-0.062
Mof_C 	C 	0.5541	0.3873	0.1304	-0.093
Mof_C 	C 	0.8491	0.7483	0.8812	0.035
Mof_C 	C 	0.6814	0.5825	0.9727	-0.057
Mof_C 	C 	0.0826	0.6928	0.7018	-0.056
Mof_C 	C 	0.6405	0.6806	0.0201	0.092
Mof_C 	C 	0.4733	0.8033	0.8662	-0.062
Mof_C 	C 	0.4583	0.5653	0.6774	-0.064
Mof_C 	C 	0.8395	0.3796	0.5201	0.092
Mof_C 	C 	0.6098	0.0825	0.4011	-0.051
Mof_C 	C 	0.0581	0.3583	0.3958	0.083
Mof_C 	C 	0.9898	0.3088	0.8914	-0.069
Mof_C 	C 	0.8947	0.2644	0.4415	-0.083
Mof_C 	C 	0.5375	0.3377	0.8958	0.083
Mof_C 	C 	0.0267	0.8929	0.33	-0.057
Mof_C 	C 	0.4142	0.6759	0.4575	0.355
Mof_C 	C 	0.7821	0.4553	0.3642	-0.037
Mof_C 	C 	0.6915	0.5629	0.1628	-0.055
Mof_C 	C 	0.5823	0.6281	0.4192	-0.037
Mof_C 	C 	0.5712	0.9597	0.6857	-0.071
Mof_C 	C 	0.8	0.0455	0.4417	0.4
Mof_C 	C 	0.7517	0.1008	0.6329	0.037
Mof_C 	C 	0.8369	0.4192	0.7911	-0.037
Mof_C 	C 	0.6011	0.8662	0.4489	0.024
Mof_C 	C 	0.9545	0.0583	0.7	0.398
Mof_C 	C 	0.1021	0.6405	0.9422	0.075
Mof_C 	C 	0.9755	0.2729	0.9286	0.319
Mof_C 	C 	0.1343	0.6014	0.2537	0.031
Mof_C 	C 	0.3154	0.2733	0.8607	0.389
Mof_C 	C 	0.6599	0.9616	0.1021	0.077
Mof_C 	C 	0.2334	0.6507	0.1011	0.016
Mof_C 	C 	0.5447	0.1358	0.7179	-0.037
Mof_C 	C 	0.4016	0.819	0.0102	-0.056
Mof_C 	C 	0.1102	0.4174	0.6192	-0.058
Mof_C 	C 	0.5763	0.1304	0.7431	-0.093
Mof_C 	C 	0.1732	0.7179	0.5821	-0.037
Mof_C 	C 	0.5999	0.9371	0.6286	-0.056
Mof_C 	C 	0.319	0.4174	0.3088	-0.062
Mof_C 	C 	0.9426	0.5552	0.1874	-0.091
Mof_C 	C 	0.8377	0.8002	0.9419	0.082
Mof_C 	C 	0.071	0.7463	0.5437	0.369
Mof_C 	C 	0.3986	0.2463	0.3657	0.031
Mof_C 	C 	0.1607	0.6132	0.2359	-0.091
Mof_C 	C 	0.7087	0.0273	0.6098	-0.046
Mof_C 	C 	0.9016	0.8914	0.5826	-0.062
Mof_C 	C 	0.5826	0.8808	0.3898	-0.058
Mof_C 	C 	0.8796	0.5401	0.3595	0.092
Mof_C 	C 	0.6301	0.5582	0.7245	-0.065
Mof_C 	C 	0.6557	0.2271	0.2026	0.324
Mof_C 	C 	0.8408	0.2806	0.254	0.352
Mof_C 	C 	0.9175	0.0989	0.8902	-0.052
Mof_C 	C 	0.3143	0.5596	0.4719	0.408
Mof_C 	C 	0.1623	0.1998	0.0581	0.083
Mof_C 	C 	0.246	0.1592	0.2194	0.352
Mof_C 	C 	0.0585	0.1053	0.2356	-0.086
Mof_C 	C 	0.7547	0.9123	0.4404	0.408
Mof_C 	C 	0.9056	0.1238	0.0646	-0.071
Mof_C 	C 	0.8194	0.9599	0.8395	0.093
Mof_C 	C 	0.0596	0.2453	0.5877	0.408
Mof_C 	C 	0.6587	0.5396	0.6807	0.094
Mof_C 	C 	0.3989	0.7666	0.8493	0.014
Mof_C 	C 	0.5989	0.1814	0.7087	-0.051
Mof_C 	C 	0.2729	0.4286	0.4755	0.324
Mof_C 	C 	0.5629	0.6628	0.1915	-0.055
Mof_C 	C 	0.7651	0.8989	0.8478	0.023
Mof_C 	C 	0.5329	0.6523	0.3986	0.031
Mof_C 	C 	0.6983	0.1405	0.0384	0.074
Mof_C 	C 	0.8595	0.4616	0.8017	0.076
Mof_C 	C 	0.6086	0.0102	0.1912	-0.056
Mof_C 	C 	0.7	0.1417	0.2455	0.4
Mof_C 	C 	0.478	0.6191	0.6587	0.094
Mof_C 	C 	0.3642	0.4089	0.0821	-0.035
Mof_C 	C 	0.1008	0.1329	0.2517	0.037
Mof_C 	C 	0.7755	0.3699	0.9418	-0.063
Mof_C 	C 	0.754	0.8408	0.7806	0.352
Mof_C 	C 	0.6204	0.9799	0.6605	0.092
Mof_C 	C 	0.0714	0.8443	0.5469	0.323
Mof_C 	C 	0.5403	0.6115	0.226	-0.073
Mof_C 	C 	0.0273	0.1098	0.2087	-0.043
Mof_C 	C 	0.0646	0.4408	0.659	-0.072
Mof_C 	C 	0.1967	0.6338	0.0267	-0.056
Mof_C 	C 	0.1509	0.2517	0.1188	0.035
Mof_C 	C 	0.4713	0.1628	0.5999	-0.055
Mof_C 	C 	0.6014	0.7537	0.6343	0.031
Mof_C 	C 	0.9418	0.0719	0.6663	-0.062
Mof_C 	C 	0.7405	0.4393	0.3988	0.415
Mof_C 	C 	0.3332	0.9459	0.5763	-0.093
Mof_C 	C 	0.2982	0.491	0.8808	-0.058
Mof_C 	C 	0.3714	0.8085	0.4713	-0.055
Mof_C 	C 	0.3143	0.774	0.3855	-0.073
Mof_C 	C 	0.8424	0.5281	0.0877	0.408
Mof_C 	C 	0.4426	0.2552	0.3874	-0.093
Mof_N 	N 	0.0036	0.3598	0.832	-0.079
Mof_N 	N 	0.8472	0.5114	0.3628	-0.083
Mof_N 	N 	0.1365	0.9734	0.1405	-0.083
Mof_N 	N 	0.3331	0.4899	0.3472	-0.082
Mof_N 	N 	0.1642	0.6528	0.5156	-0.082
Mof_N 	N 	0.8329	0.4734	0.3369	-0.082
Mof_N 	N 	0.3573	0.0141	0.8472	-0.081
Mof_N 	N 	0.8595	0.3329	0.496	-0.082
Mof_N 	N 	0.8472	0.3331	0.9899	-0.084
Mof_N 	N 	0.5036	0.6716	0.6438	-0.08
Mof_N 	N 	0.4844	0.6372	0.1486	-0.082
Mof_N 	N 	0.0114	0.6642	0.6486	-0.081
Mof_N 	N 	0.3358	0.8514	0.4886	-0.083
Mof_N 	N 	0.1528	0.4886	0.6372	-0.082
Mof_N 	N 	0.6528	0.6427	0.4859	-0.082
Mof_N 	N 	0.4734	0.8369	0.3329	-0.082
Mof_N 	N 	0.504	0.3369	0.8635	-0.082
Mof_N 	N 	0.8514	0.9886	0.8358	-0.084
Mof_N 	N 	0.9734	0.6405	0.6365	-0.083
Mof_N 	N 	0.1528	0.6669	0.0101	-0.08
Mof_N 	N 	0.8358	0.3472	0.4844	-0.083
Mof_N 	N 	0.8432	0.8573	0.5101	-0.082
Mof_N 	N 	0.1438	0.5036	0.1716	-0.08
Mof_N 	N 	0.1486	0.0114	0.1642	-0.08
Mof_N 	N 	0.1568	0.1427	0.4899	-0.082
Mof_N 	N 	0.9886	0.3358	0.3514	-0.085
Mof_N 	N 	0.4964	0.3284	0.3562	-0.08
Mof_N 	N 	0.6402	0.668	0.4964	-0.08
Mof_N 	N 	0.3329	0.996	0.3595	-0.083
Mof_N 	N 	0.996	0.8595	0.8329	-0.083
Mof_N 	N 	0.1631	0.1671	0.0266	-0.081
Mof_N 	N 	0.1671	0.5266	0.6631	-0.082
Mof_N 	N 	0.0101	0.8432	0.3573	-0.08
Mof_N 	N 	0.004	0.1405	0.1671	-0.08
Mof_N 	N 	0.9964	0.6402	0.168	-0.081
Mof_N 	N 	0.9722	0.8284	0.332	-0.081
Mof_N 	N 	0.5156	0.3628	0.8514	-0.083
Mof_N 	N 	0.168	0.0278	0.6716	-0.078
Mof_N 	N 	0.8573	0.0101	0.3432	-0.08
Mof_N 	N 	0.4886	0.1372	0.6528	-0.082
Mof_N 	N 	0.6716	0.1438	0.0036	-0.079
Mof_N 	N 	0.8331	0.4859	0.8432	-0.082
Mof_N 	N 	0.6438	0.4722	0.6402	-0.08
Mof_N 	N 	0.1402	0.6438	0.9722	-0.081
Mof_N 	N 	0.3369	0.3635	0.004	-0.081
Mof_N 	N 	0.3598	0.332	0.5036	-0.08
Mof_N 	N 	0.1669	0.5141	0.1568	-0.082
Mof_N 	N 	0.6372	0.6486	0.9844	-0.083
Mof_N 	N 	0.6671	0.004	0.6405	-0.081
Mof_N 	N 	0.1372	0.1528	0.9886	-0.084
Mof_N 	N 	0.0266	0.3595	0.3635	-0.081
Mof_N 	N 	0.4899	0.8472	0.8331	-0.082
Mof_N 	N 	0.0141	0.3472	0.8573	-0.081
Mof_N 	N 	0.332	0.0036	0.8598	-0.079
Mof_N 	N 	0.6642	0.1486	0.5114	-0.082
Mof_N 	N 	0.5101	0.1528	0.1669	-0.082
Mof_N 	N 	0.5114	0.8628	0.3472	-0.083
Mof_N 	N 	0.3635	0.504	0.8369	-0.082
Mof_N 	N 	0.1716	0.168	0.5278	-0.08
Mof_N 	N 	0.3562	0.5278	0.3598	-0.08
Mof_N 	N 	0.8284	0.832	0.4722	-0.08
Mof_N 	N 	0.9899	0.1568	0.6427	-0.084
Mof_N 	N 	0.668	0.9964	0.1402	-0.081
Mof_N 	N 	0.8598	0.3562	0.0278	-0.079
Mof_N 	N 	0.1405	0.6671	0.504	-0.082
Mof_N 	N 	0.8635	0.0266	0.8595	-0.081
Mof_N 	N 	0.6427	0.9859	0.1528	-0.082
Mof_N 	N 	0.8562	0.4964	0.8284	-0.08
Mof_N 	N 	0.6631	0.6365	0.996	-0.083
Mof_N 	N 	0.832	0.9722	0.3284	-0.081
Mof_N 	N 	0.0278	0.1716	0.668	-0.078
Mof_N 	N 	0.4859	0.3432	0.3331	-0.082
Mof_N 	N 	0.3284	0.8562	0.9964	-0.081
Mof_N 	N 	0.5141	0.6568	0.6669	-0.082
Mof_N 	N 	0.6405	0.1365	0.4734	-0.082
Mof_N 	N 	0.3432	0.8331	0.9859	-0.083
Mof_N 	N 	0.9844	0.8358	0.8472	-0.083
Mof_N 	N 	0.5278	0.8598	0.8562	-0.08
Mof_N 	N 	0.4722	0.1402	0.1438	-0.08
Mof_N 	N 	0.0156	0.1642	0.1528	-0.081
Mof_N 	N 	0.6528	0.0156	0.6642	-0.082
Mof_N 	N 	0.3595	0.8635	0.5266	-0.082
Mof_N 	N 	0.8369	0.8329	0.9734	-0.083
Mof_N 	N 	0.496	0.6631	0.1365	-0.082
Mof_N 	N 	0.5266	0.1631	0.6671	-0.082
Mof_N 	N 	0.3628	0.3514	0.0156	-0.082
Mof_N 	N 	0.6568	0.1669	0.0141	-0.081
Mof_N 	N 	0.9859	0.6528	0.1427	-0.082
Mof_N 	N 	0.3514	0.5156	0.8628	-0.083
Mof_N 	N 	0.1427	0.9899	0.6568	-0.084
Mof_N 	N 	0.3472	0.3573	0.5141	-0.082
Mof_N 	N 	0.6486	0.4844	0.1372	-0.082
Mof_N 	N 	0.6669	0.5101	0.6528	-0.082
Mof_N 	N 	0.3472	0.9844	0.3358	-0.084
Mof_N 	N 	0.8628	0.8472	0.0114	-0.081
Mof_N 	N 	0.6365	0.496	0.1631	-0.082
Mof_O 	O 	0.8066	0.7369	0.7959	-0.377
Mof_O 	O 	0.9113	0.6453	0.9172	-0.374
Mof_O 	O 	0.1685	0.7597	0.1912	-0.396
Mof_O 	O 	0.2804	0.5885	0.5929	-0.389
Mof_O 	O 	6.38728e-17	0.5	0.7308	-0.547
Mof_O 	O 	0.734	0.7281	0.6453	-0.373
Mof_O 	O 	0.3556	0.287	0.7828	-0.373
Mof_O 	O 	0.9343	0.9486	0.6693	-0.383
Mof_O 	O 	0.9282	0.9764	0.2644	-0.398
Mof_O 	O 	0.3307	0.7793	0.765	-0.383
Mof_O 	O 	0.9366	0.0252	0.772	-0.404
Mof_O 	O 	0.481	0.9824	0.2324	-0.528
Mof_O 	O 	0.6919	0.0044	0.4115	-0.388
Mof_O 	O 	0.519	0.0176	0.7676	-0.525
Mof_O 	O 	0.6662	0.6748	0.2436	-0.374
Mof_O 	O 	0.235	0.5143	0.0657	-0.382
Mof_O 	O 	0.7919	0.7164	0.2869	-0.36
Mof_O 	O 	0.7082	0.2609	0.6869	-0.352
Mof_O 	O 	0.4282	0.1638	0.9518	-0.397
Mof_O 	O 	0.2436	0.0688	0.0774	-0.374
Mof_O 	O 	0.3258	0.5876	0.511	-0.36
Mof_O 	O 	0.5718	0.3121	0.5651	-0.402
Mof_O 	O 	0.9303	0.941	0.7369	-0.377
Mof_O 	O 	0.4824	0.5014	0.25	-0.527
Mof_O 	O 	0.7869	0.7919	0.2164	-0.36
Mof_O 	O 	0.941	0.2369	0.4303	-0.377
Mof_O 	O 	0.2486	0.7676	0.75	-0.527
Mof_O 	O 	0.4272	0.7828	0.4958	-0.373
Mof_O 	O 	0.9945	0.9433	0.6848	-0.343
Mof_O 	O 	0.2828	0.3556	0.787	-0.373
Mof_O 	O 	0.9857	0.7207	0.0514	-0.385
Mof_O 	O 	0.9956	0.0885	0.8081	-0.391
Mof_O 	O 	0.5059	0.234	0.0887	-0.373
Mof_O 	O 	-1.59682e-17	0.5	0.2692	-0.549
Mof_O 	O 	0.5815	0.0123	0.7514	-0.382
Mof_O 	O 	0.5887	0.5059	0.734	-0.373
Mof_O 	O 	0.2959	0.8066	0.2369	-0.377
Mof_O 	O 	0.2324	0.75	0.2514	-0.527
Mof_O 	O 	0.2564	0.3338	0.8252	-0.374
Mof_O 	O 	0.7692	0	-0	-0.547
Mof_O 	O 	0.5042	0.787	0.4314	-0.373
Mof_O 	O 	0.9958	0.4272	0.2828	-0.375
Mof_O 	O 	0.5555	0.0499	0.3138	-0.399
Mof_O 	O 	0.7959	0.559	0.4893	-0.377
Mof_O 	O 	0.4088	0.4315	0.2403	-0.396
Mof_O 	O 	0.0512	0.7415	0.0567	-0.342
Mof_O 	O 	0.0252	0.272	0.4366	-0.403
Mof_O 	O 	0.7081	0.995	0.9245	-0.361
Mof_O 	O 	0.995	0.4245	0.2081	-0.362
Mof_O 	O 	0.9787	0.6869	0.426	-0.353
Mof_O 	O 	0.1444	0.9272	0.9314	-0.373
Mof_O 	O 	0.0055	0.0567	0.3152	-0.34
Mof_O 	O 	0.712	0.4764	0.5482	-0.397
Mof_O 	O 	0.3362	0.2644	0.288	-0.397
Mof_O 	O 	0.5527	0.574	0.2609	-0.352
Mof_O 	O 	0.8307	0.0657	0.5514	-0.382
Mof_O 	O 	0.2793	0.4486	0.5143	-0.383
Mof_O 	O 	0.2172	0.0042	0.0728	-0.371
Mof_O 	O 	0.5885	0.0929	0.7804	-0.389
Mof_O 	O 	0.4282	0.6879	0.4349	-0.402
Mof_O 	O 	0.5482	0.5718	0.3362	-0.397
Mof_O 	O 	0.7324	0.481	0.4824	-0.527
Mof_O 	O 	0.0236	0.2356	0.5718	-0.395
Mof_O 	O 	0.787	0.9314	0.0042	-0.372
Mof_O 	O 	0.9501	0.1862	0.9445	-0.398
Mof_O 	O 	0.6852	0.7618	0.6742	-0.36
Mof_O 	O 	0.3097	0.3152	0.2585	-0.342
Mof_O 	O 	0.2486	0.7609	0.3301	-0.384
Mof_O 	O 	0.0885	0.3081	0.4956	-0.389
Mof_O 	O 	0.5828	0.0887	0.8547	-0.373
Mof_O 	O 	0.4343	0.765	0.9857	-0.385
Mof_O 	O 	0.5056	0.2639	0.9501	-0.398
Mof_O 	O 	0.5176	0.4986	0.75	-0.527
Mof_O 	O 	0.0086	0.4312	0.6748	-0.373
Mof_O 	O 	0.5697	0.3066	0.0107	-0.374
Mof_O 	O 	0.1662	0.9226	0.9914	-0.376
Mof_O 	O 	0.5	0.2308	0.5	-0.55
Mof_O 	O 	0.2639	0.4501	0.0056	-0.397
Mof_O 	O 	0.4944	0.7361	0.0499	-0.399
Mof_O 	O 	0.228	0.7532	0.6646	-0.405
Mof_O 	O 	0.5774	0.2436	0.5688	-0.374
Mof_O 	O 	0.0651	0.5718	0.8121	-0.401
Mof_O 	O 	0.7514	0.2324	0.25	-0.527
Mof_O 	O 	0.6453	0.4172	0.4113	-0.373
Mof_O 	O 	0.6869	0.926	0.4787	-0.352
Mof_O 	O 	0.6638	0.7356	0.712	-0.397
Mof_O 	O 	0.5067	0.7597	0.5718	-0.402
Mof_O 	O 	0.0067	0.4349	0.747	-0.4
Mof_O 	O 	0.5685	0.2597	0.0912	-0.396
Mof_O 	O 	0.0692	0.0815	0.8301	-0.384
Mof_O 	O 	0.6903	0.6848	0.7415	-0.342
Mof_O 	O 	0.7583	0.3138	0.2639	-0.399
Mof_O 	O 	0.9172	0.7719	0.5059	-0.373
Mof_O 	O 	0.5688	0.8252	0.4914	-0.374
Mof_O 	O 	0.9314	0.5042	0.287	-0.373
Mof_O 	O 	0.4945	0.8097	0.0512	-0.342
Mof_O 	O 	0.75	0.4824	0.0014	-0.526
Mof_O 	O 	0.3088	0.8315	0.7403	-0.396
Mof_O 	O 	0.9986	0.981	0.2486	-0.529
Mof_O 	O 	0.0766	0.0876	0.7618	-0.359
Mof_O 	O 	0.8148	0.489	0.0766	-0.36
Mof_O 	O 	0.7281	0.1453	0.234	-0.373
Mof_O 	O 	0.8354	0.772	0.7468	-0.405
Mof_O 	O 	0.2514	0.5815	0.5123	-0.384
Mof_O 	O 	0.713	0.7172	0.1444	-0.373
Mof_O 	O 	0.2676	0.519	0.5176	-0.527
Mof_O 	O 	0.4748	0.9114	0.2468	-0.405
Mof_O 	O 	0.5512	0.4945	0.3097	-0.342
Mof_O 	O 	0.059	0.7631	0.5697	-0.377
Mof_O 	O 	0.5567	0.0512	0.2415	-0.342
Mof_O 	O 	0.074	0.0213	0.8131	-0.35
Mof_O 	O 	0.772	0.2468	0.3354	-0.405
Mof_O 	O 	0.0755	0.5705	0.2836	-0.36
Mof_O 	O 	0.6685	0.4773	0.4088	-0.396
Mof_O 	O 	0.5514	0.9857	0.2207	-0.385
Mof_O 	O 	0.9824	0.7324	0.981	-0.53
Mof_O 	O 	0.5055	0.1903	0.9488	-0.341
Mof_O 	O 	0.9473	0.2082	0.0213	-0.35
Mof_O 	O 	0.559	0.9893	0.2959	-0.379
Mof_O 	O 	0.5886	0.5634	0.8354	-0.405
Mof_O 	O 	0.1638	0.4518	0.9282	-0.398
Mof_O 	O 	0.4115	0.9071	0.2196	-0.389
Mof_O 	O 	0.9088	0.6685	0.9773	-0.397
Mof_O 	O 	0.4172	0.9113	0.1453	-0.373
Mof_O 	O 	0.5499	0.4944	0.2361	-0.399
Mof_O 	O 	0.574	0.7609	0.0527	-0.353
Mof_O 	O 	0.7639	0.7583	0.8138	-0.399
Mof_O 	O 	0.005	0.5755	0.7919	-0.359
Mof_O 	O 	0.2618	0.0766	0.5876	-0.36
Mof_O 	O 	0.0685	0.9773	0.3088	-0.398
Mof_O 	O 	0.0929	0.2804	0.0885	-0.389
Mof_O 	O 	0.3125	0.5929	0.0044	-0.388
Mof_O 	O 	0.426	0.2391	0.9473	-0.351
Mof_O 	O 	0.735	0.6693	0.7207	-0.383
Mof_O 	O 	0.6693	0.2207	0.235	-0.382
Mof_O 	O 	0.2369	0.9303	0.441	-0.377
Mof_O 	O 	0.3121	0.0651	0.0718	-0.401
Mof_O 	O 	0.8338	0.0774	0.0086	-0.373
Mof_O 	O 	0.5227	0.0912	0.8315	-0.395
Mof_O 	O 	0.7585	0.3097	0.8152	-0.342
Mof_O 	O 	0.6912	0.1685	0.2597	-0.396
Mof_O 	O 	0.9764	0.7644	0.4282	-0.399
Mof_O 	O 	0.2196	0.8125	0.3081	-0.389
Mof_O 	O 	0.9315	0.0227	0.6912	-0.395
Mof_O 	O 	0.2532	0.5252	0.5886	-0.405
Mof_O 	O 	0.3547	0.5828	0.5887	-0.373
Mof_O 	O 	0.1862	0.4445	0.4501	-0.399
Mof_O 	O 	0.5107	0.5697	0.8066	-0.377
Mof_O 	O 	0.2041	0.441	0.5107	-0.377
Mof_O 	O 	0.5252	0.0886	0.7532	-0.405
Mof_O 	O 	0.9185	0.6699	0.4308	-0.385
Mof_O 	O 	0.2585	0.4433	0.4488	-0.342
Mof_O 	O 	0.2164	0.9245	0.9295	-0.36
Mof_O 	O 	0.1748	0.0086	0.9312	-0.372
Mof_O 	O 	0.9282	0.4933	0.7403	-0.401
Mof_O 	O 	0.6875	0.4071	0.9956	-0.391
Mof_O 	O 	0.7417	0.0056	0.5555	-0.398
Mof_O 	O 	0.8138	0.5555	0.5499	-0.399
Mof_O 	O 	0.9308	0.9185	0.1699	-0.385
Mof_O 	O 	0.2583	0.9944	0.4445	-0.401
Mof_O 	O 	0.7436	0.6662	0.1748	-0.374
Mof_O 	O 	0.489	0.5766	0.3148	-0.36
Mof_O 	O 	0.3354	0.5886	0.0634	-0.405
Mof_O 	O 	0.9071	0.7196	0.9115	-0.39
Mof_O 	O 	0.9234	0.9124	0.2382	-0.36
Mof_O 	O 	0.0705	0.495	0.7869	-0.36
Mof_O 	O 	0.4245	0.7081	0.495	-0.36
Mof_O 	O 	0.5705	0.7836	0.5755	-0.36
Mof_O 	O 	0.6444	0.713	0.2172	-0.373
Mof_O 	O 	0.511	0.4234	0.6852	-0.36
Mof_O 	O 	0.7196	0.4115	0.4071	-0.389
Mof_O 	O 	0.9486	0.1693	0.4343	-0.383
Mof_O 	O 	0.2391	0.1699	0.2514	-0.384
Mof_O 	O 	0.8258	0.3148	0.7382	-0.36
Mof_O 	O 	0.0887	0.3547	0.0828	-0.373
Mof_O 	O 	0.5634	0.3354	0.0886	-0.405
Mof_O 	O 	0.7828	0.9958	0.9272	-0.374
Mof_O 	O 	0.0514	0.8307	0.5657	-0.382
Mof_O 	O 	0.5014	0.75	0.9824	-0.528
Mof_O 	O 	0.0912	0.3315	0.0227	-0.394
Mof_O 	O 	0.4349	0.247	0.5067	-0.402
Mof_O 	O 	0.2207	0.735	0.1693	-0.383
Mof_O 	O 	0.747	0.8121	0.2403	-0.402
Mof_O 	O 	0.5044	0.3125	0.0929	-0.389
Mof_O 	O 	0.3131	0.074	0.5213	-0.352
Mof_O 	O 	0.5686	0.8556	0.5728	-0.373
Mof_O 	O 	0.4857	0.4343	0.265	-0.383
Mof_O 	O 	0.3252	0.2564	0.8338	-0.374
Mof_O 	O 	0.1699	0.7514	0.7391	-0.384
Mof_O 	O 	0.989	0.6742	0.9124	-0.362
Mof_O 	O 	0.1453	0.734	0.2281	-0.373
Mof_O 	O 	0.4314	0.1444	0.4272	-0.373
Mof_O 	O 	0.3152	0.7585	0.8097	-0.342
Mof_O 	O 	0.4303	0.6934	0.9893	-0.379
Mof_O 	O 	0.2391	0.4473	0.926	-0.352
Mof_O 	O 	0.0555	0.7417	0.5056	-0.399
Mof_O 	O 	0.7041	0.1934	0.7631	-0.377
Mof_O 	O 	0.7804	0.1875	0.6919	-0.389
Mof_O 	O 	0.5718	0.8362	0.0482	-0.398
Mof_O 	O 	0.4071	0.4956	0.1875	-0.389
Mof_O 	O 	0.3315	0.5227	0.5912	-0.396
Mof_O 	O 	0.4295	0.2164	0.4245	-0.36
Mof_O 	O 	0.4877	0.5692	0.2391	-0.384
Mof_O 	O 	0.7514	0.2391	0.6699	-0.384
Mof_O 	O 	0.6646	0.4114	0.9366	-0.405
Mof_O 	O 	0.2869	0.0705	0.995	-0.362
Mof_O 	O 	0.7361	0.5499	0.9944	-0.401
Mof_O 	O 	0.2597	0.253	0.6879	-0.402
Mof_O 	O 	0.4773	0.9088	0.1685	-0.396
Mof_O 	O 	0.5766	0.8148	0.989	-0.362
Mof_O 	O 	0.5912	0.5685	0.7597	-0.396
Mof_O 	O 	0.495	0.2869	0.5705	-0.36
Mof_O 	O 	0.8547	0.266	0.7719	-0.373
Mof_O 	O 	0.0527	0.7918	0.9787	-0.354
Mof_O 	O 	0.8121	0.7403	0.247	-0.402
Mof_O 	O 	0.2919	0.005	0.0755	-0.359
Mof_O 	O 	0.766	0.4113	0.9941	-0.375
Mof_O 	O 	0.7356	0.212	0.1638	-0.397
Mof_O 	O 	0.728	0.0634	0.4748	-0.405
Mof_O 	O 	0.9488	0.2585	0.9433	-0.341
Mof_O 	O 	0.4226	0.7564	0.4312	-0.374
Mof_O 	O 	0.2692	0.2692	0.7692	-0.55
Mof_O 	O 	0.5213	0.9473	0.7082	-0.351
Mof_O 	O 	0.0213	0.3131	0.574	-0.35
Mof_O 	O 	0.7369	0.2959	0.3066	-0.377
Mof_O 	O 	0.25	0.2486	0.2676	-0.527
Mof_O 	O 	0.2597	0.5912	0.0685	-0.396
Mof_O 	O 	0.0123	0.2514	0.0815	-0.381
Mof_O 	O 	0.3066	0.5107	0.0697	-0.377
Mof_O 	O 	0.9773	0.8088	0.5685	-0.397
Mof_O 	O 	0.9914	0.5688	0.3252	-0.376
Mof_O 	O 	0.4986	0.25	0.0176	-0.525
Mof_O 	O 	0.7644	0.9282	0.4764	-0.397
Mof_O 	O 	0.4486	0.0143	0.7793	-0.38
Mof_O 	O 	0.2361	0.2417	0.1862	-0.399
Mof_O 	O 	0.0143	0.2793	0.9486	-0.38
Mof_O 	O 	0.441	0.0107	0.7041	-0.374
Mof_O 	O 	0.0728	0.5686	0.3556	-0.373
Mof_O 	O 	0.2918	0.7391	0.3131	-0.352
Mof_O 	O 	0.4308	0.2609	0.0123	-0.382
Mof_O 	O 	0.288	0.5236	0.4518	-0.397
Mof_O 	O 	0.1742	0.6852	0.2618	-0.36
Mof_O 	O 	0.7164	0.7869	0.2919	-0.36
Mof_O 	O 	0.1903	0.4488	0.0055	-0.34
Mof_O 	O 	0.0718	0.5067	0.2597	-0.402
Mof_O 	O 	0.3148	0.2382	0.3258	-0.36
Mof_O 	O 	0.9893	0.7959	0.059	-0.379
Mof_O 	O 	0.25	0.5176	0.9986	-0.528
Mof_O 	O 	0.0876	0.2618	0.5766	-0.359
Mof_O 	O 	0.8081	0.2196	0.3125	-0.389
Mof_O 	O 	0.6748	0.7436	0.1662	-0.374
Mof_O 	O 	0.1875	0.1919	0.2804	-0.389
Mof_O 	O 	0.4518	0.4282	0.6638	-0.397
Mof_O 	O 	0.213	0.0686	0.9958	-0.374
Mof_O 	O 	0.7719	0.0059	0.4172	-0.372
Mof_O 	O 	0.0828	0.2281	0.4941	-0.373
Mof_O 	O 	0.2382	0.8258	0.8148	-0.36
Mof_O 	O 	0.7564	0.9312	0.9226	-0.374
Mof_O 	O 	0.4473	0.426	0.7391	-0.352
Mof_O 	O 	0.0499	0.8138	0.0555	-0.399
Mof_O 	O 	0.9349	0.4282	0.1879	-0.402
Mof_O 	O 	0.8125	0.8081	0.7196	-0.389
Mof_O 	O 	0.7131	0.9295	0.005	-0.359
Mof_O 	O 	0.3301	0.0692	0.5815	-0.384
Mof_O 	O 	0.5692	0.7391	0.9877	-0.387
Mof_O 	O 	0.6848	0.2415	0.1903	-0.342
Mof_O 	O 	0.0688	0.5774	0.7436	-0.374
Mof_O 	O 	0.0107	0.2041	0.941	-0.374
Mof_O 	O 	0.5143	0.5657	0.735	-0.383
Mof_O 	O 	0.8315	0.2403	0.8088	-0.396
Mof_O 	O 	0.9124	0.7382	0.4234	-0.36
Mof_O 	O 	0.0014	0.019	0.7514	-0.523
Mof_O 	O 	0.2719	0.8547	0.766	-0.373
Mof_O 	O 	0.2131	0.2081	0.7836	-0.36
Mof_O 	O 	0.765	0.4857	0.9343	-0.383
Mof_O 	O 	0.75	0.7514	0.7324	-0.527
Mof_O 	O 	0.0697	0.059	0.2631	-0.377
Mof_O 	O 	0.6862	0.2361	0.7417	-0.399
Mof_O 	O 	0.4366	0.6646	0.9114	-0.405
Mof_O 	O 	0.247	0.0067	0.9349	-0.4
Mof_O 	O 	0.0042	0.5728	0.7172	-0.371
Mof_O 	O 	0.7391	0.8131	0.7918	-0.352
Mof_O 	O 	0.4433	0.9488	0.7585	-0.341
Mof_O 	O 	0.7207	0.5514	0.4857	-0.383
Mof_O 	O 	0.8152	0.0055	0.5567	-0.34
Mof_O 	O 	0.0482	0.712	0.9764	-0.399
Mof_O 	O 	0.5876	0.011	0.8258	-0.358
Mof_O 	O 	0.9933	0.5651	0.253	-0.403
Mof_O 	O 	0.4501	0.5056	0.7639	-0.399
Mof_O 	O 	0.0886	0.2532	0.0252	-0.403
Mof_O 	O 	0.0657	0.0514	0.3307	-0.382
Mof_O 	O 	0.4956	0.6875	0.9071	-0.389
Mof_O 	O 	0.9245	0.4295	0.7164	-0.36
Mof_O 	O 	0.7486	0.4185	0.4877	-0.384
Mof_O 	O 	0.2403	0.3088	0.3315	-0.396
Mof_O 	O 	0.5657	0.235	0.0143	-0.38
Mof_O 	O 	0.5651	0.753	0.4933	-0.402
Mof_O 	O 	0.981	0.7486	0.4986	-0.529
Mof_O 	O 	0.5123	0.4308	0.7609	-0.384
Mof_O 	O 	0.4113	0.4941	0.266	-0.373
Mof_O 	O 	0.505	0.7131	0.4295	-0.36
Mof_O 	O 	0.8252	0.9914	0.0688	-0.376
Mof_O 	O 	0.0686	0.4958	0.713	-0.373
Mof_O 	O 	0.2308	0	-0	-0.546
Mof_O 	O 	0.0227	0.1912	0.4315	-0.394
Mof_O 	O 	0.5086	0.8338	0.5774	-0.374
Mof_O 	O 	0.5728	0.2172	0.5042	-0.373
Mof_O 	O 	0.4958	0.213	0.5686	-0.373
Mof_O 	O 	0.926	0.9787	0.1869	-0.353
Mof_O 	O 	0.0567	0.8152	0.5055	-0.342
Mof_O 	O 	0.9877	0.7486	0.9185	-0.387
Mof_O 	O 	0.1848	0.9945	0.4433	-0.344
Mof_O 	O 	0.2836	0.2131	0.7081	-0.36
Mof_O 	O 	0.7532	0.1646	0.728	-0.405
Mof_O 	O 	0.8556	0.0728	0.0686	-0.373
Mof_O 	O 	0.7172	0.6444	0.213	-0.373
Mof_O 	O 	0.4488	0.5055	0.6903	-0.342
Mof_O 	O 	0.5	0.7692	0.5	-0.55
Mof_O 	O 	0.7391	0.4877	0.0692	-0.384
Mof_O 	O 	0.0718	0.0236	0.7356	-0.395
Mof_O 	O 	0.1646	0.228	0.2532	-0.405
Mof_O 	O 	0.7403	0.4088	0.9315	-0.396
Mof_O 	O 	0.7918	0.4787	0.5527	-0.352
Mof_O 	O 	0.5236	0.9518	0.788	-0.397
Mof_O 	O 	0.6934	0.4893	0.9303	-0.377
Mof_O 	O 	0.4914	0.1662	0.4226	-0.374
Mof_O 	O 	0.5755	0.2919	0.505	-0.36
Mof_O 	O 	0.9312	0.4226	0.2564	-0.374
Mof_O 	O 	0.234	0.5887	0.0059	-0.372
Mof_O 	O 	0.7631	0.0697	0.559	-0.377
Mof_O 	O 	0.4124	0.989	0.1742	-0.362
Mof_O 	O 	0.9944	0.9445	0.7583	-0.4
Mof_O 	O 	0.8362	0.5482	0.0718	-0.397
Mof_O 	O 	0.0176	0.2676	0.019	-0.523
Mof_O 	O 	0.7618	0.1742	0.1852	-0.36
Mof_O 	O 	0.0056	0.0555	0.2417	-0.397
Mof_O 	O 	0.4114	0.4366	0.1646	-0.405
Mof_O 	O 	0.3138	0.7639	0.2583	-0.399
Mof_O 	O 	0.7609	0.5527	0.074	-0.352
Mof_O 	O 	0.3338	0.3252	0.7564	-0.374
Mof_O 	O 	0.4312	0.1748	0.5086	-0.374
Mof_O 	O 	0.9518	0.288	0.0236	-0.395
Mof_O 	O 	0.2081	0.2836	0.7131	-0.36
Mof_O 	O 	0.1912	0.9315	0.5227	-0.396
Mof_O 	O 	0.2281	0.9941	0.5828	-0.375
Mof_O 	O 	0.266	0.2719	0.3547	-0.373
Mof_O 	O 	0.3081	0.9956	0.5885	-0.391
Mof_O 	O 	0.1934	0.2631	0.2041	-0.377
Mof_O 	O 	0.8301	0.2486	0.2609	-0.384
Mof_O 	O 	0.7836	0.0755	0.0705	-0.36
Mof_O 	O 	0.9433	0.1848	0.4945	-0.342
Mof_O 	O 	0.4893	0.4303	0.1934	-0.377
Mof_O 	O 	0.6879	0.9349	0.9282	-0.402
Mof_O 	O 	0.2609	0.1869	0.2082	-0.352
Mof_O 	O 	0.4234	0.1852	0.011	-0.357
Mof_O 	O 	0.4764	0.0482	0.212	-0.398
Mof_O 	O 	0.1919	0.7804	0.6875	-0.389
Mof_O 	O 	0.2644	0.788	0.8362	-0.397
Mof_O 	O 	0.2609	0.5123	0.9308	-0.384
Mof_O 	O 	0.2631	0.7041	0.6934	-0.377
Mof_O 	O 	0.1852	0.511	0.9234	-0.36
Mof_O 	O 	0.019	0.2514	0.5014	-0.524
Mof_O 	O 	0.2468	0.8354	0.272	-0.405
Mof_O 	O 	0.2082	0.5213	0.4473	-0.352
Mof_O 	O 	0.2514	0.0014	0.519	-0.526
Mof_O 	O 	0.8088	0.0685	0.4773	-0.396
Mof_O 	O 	0.2417	0.6862	0.7361	-0.399
Mof_O 	O 	0.2356	0.0718	0.5236	-0.397
Mof_O 	O 	0.0774	0.5086	0.3338	-0.374
Mof_O 	O 	0.7415	0.5567	0.5512	-0.342
Mof_O 	O 	0.6699	0.9308	0.4185	-0.384
Mof_O 	O 	0.0059	0.9172	0.2719	-0.372
Mof_O 	O 	0.1879	0.2597	0.753	-0.401
Mof_O 	O 	0.8097	0.5512	0.9945	-0.344
Mof_O 	O 	0.7468	0.4748	0.4114	-0.405
Mof_O 	O 	0.6742	0.4124	0.489	-0.36
Mof_O 	O 	0.4445	0.9501	0.6862	-0.398
Mof_O 	O 	0.2415	0.6903	0.1848	-0.342
Mof_O 	O 	0.9941	0.0828	0.7281	-0.375
Mof_O 	O 	0.7308	0.7308	0.2308	-0.55
Mof_O 	O 	0.5929	0.5044	0.8125	-0.389
Mof_O 	O 	0.4787	0.0527	0.2918	-0.353
Mof_O 	O 	0.9295	0.505	0.2131	-0.36
Mof_O 	O 	0.0044	0.9115	0.1919	-0.388
Mof_O 	O 	0.265	0.3307	0.2793	-0.383
Mof_O 	O 	0.212	0.6638	0.2356	-0.397
Mof_O 	O 	0.2403	0.9282	0.9933	-0.403
Mof_O 	O 	0.011	0.3258	0.0876	-0.357
Mof_O 	O 	0.4185	0.9877	0.2486	-0.387
Mof_O 	O 	0.0634	0.9748	0.228	-0.406
Mof_O 	O 	0.9272	0.4314	0.6444	-0.373
Mof_O 	O 	0.7597	0.0718	0.0067	-0.4
Mof_O 	O 	0.9115	0.6919	0.5044	-0.389
Mof_O 	O 	0.8131	0.2918	0.2391	-0.352
Mof_O 	O 	0.272	0.9366	0.5252	-0.405
Mof_O 	O 	0.7793	0.265	0.8307	-0.383
Mof_O 	O 	0.4941	0.766	0.9113	-0.373
Mof_O 	O 	0.1693	0.9343	0.4486	-0.383
Mof_O 	O 	0.7597	0.6912	0.6685	-0.396
Mof_O 	O 	0.9114	0.7468	0.9748	-0.406
Mof_O 	O 	0.7609	0.8301	0.7486	-0.384
Mof_O 	O 	0.7403	0.747	0.3121	-0.402
Mof_O 	O 	0.4315	0.7403	0.9088	-0.396
Mof_O 	O 	0.9445	0.2583	0.4944	-0.399
Mof_O 	O 	0.7382	0.9234	0.4124	-0.36
Mof_O 	O 	0.4933	0.2403	0.4282	-0.402
Mof_O 	O 	0.253	0.1879	0.7597	-0.401
Mof_O 	O 	0.0815	0.3301	0.5692	-0.384
Mof_O 	O 	0.9748	0.728	0.5634	-0.406
Mof_O 	O 	0.7486	0.9986	0.481	-0.527
Mof_O 	O 	0.7676	0.25	0.7486	-0.527
Mof_O 	O 	0.1869	0.7082	0.7609	-0.352
Mof_O 	O 	0.287	0.2828	0.8556	-0.373
Mof_O 	O 	0.753	0.9933	0.0651	-0.403
Mof_O 	O 	0.788	0.3362	0.7644	-0.397
Mof_O 	O 	0.9226	0.4914	0.6662	-0.374
_end
