data_functionalizedCrystal
_audit_creation_method	'EQeq! by Chris Wilmer'
_symmetry_space_group_name_H-M	'P1'
_symmetry_Int_Tables_number	1
_symmetry_cell_setting	triclinic
loop_
_symmetry_equiv_pos_as_xyz
  x,y,z
_cell_length_a	23.2667
_cell_length_b	15.2352
_cell_length_c	16.8347
_cell_angle_alpha	90
_cell_angle_beta	90
_cell_angle_gamma	90
loop_
_atom_site_label
_atom_site_type_symbol
_atom_site_fract_x
_atom_site_fract_y
_atom_site_fract_z
_atom_site_charge
Mof_Zn	Zn	0.01173	0.58342	0.2436	1.209
Mof_O 	O 	0.9528	0.6689	0.2657	-0.507
Mof_O 	O 	0.9039	0.6235	0.1628	-0.335
Mof_O 	O 	0.5981	0.3494	0.176	-0.357
Mof_O 	O 	0.5753	0.344	0.3012	-0.445
Mof_O 	O 	0.7881	0.0257	0.3602	-0.237
Mof_N 	N 	0.768	0.9766	0.238	-0.28
Mof_H 	H 	0.7482	0.986	0.1957	0.144
Mof_N 	N 	0.0079	0.9983	0.8394	-0.29
Mof_N 	N 	0.0076	0.4921	0.154	-0.285
Mof_C 	C 	0.6461	0.2457	0.2578	-0.08
Mof_C 	C 	0.6743	0.209	0.1954	-0.003
Mof_H 	H 	0.6681	0.2304	0.1444	0.042
Mof_C 	C 	0.712	0.1401	0.2071	-0.052
Mof_H 	H 	0.7313	0.1161	0.1639	0.048
Mof_C 	C 	0.7211	0.1077	0.2795	-0.025
Mof_C 	C 	0.6952	0.1458	0.3435	-0.056
Mof_H 	H 	0.7031	0.1258	0.3945	0.061
Mof_C 	C 	0.6572	0.2142	0.3323	0.006
Mof_H 	H 	0.6389	0.2392	0.376	0.044
Mof_C 	C 	0.8044	0.9019	0.2388	0.282
Mof_C 	C 	0.7967	0.8445	0.1774	-0.291
Mof_H 	H 	0.7683	0.8545	0.1396	0.134
Mof_C 	C 	0.8323	0.7699	0.1719	0.183
Mof_H 	H 	0.8261	0.7301	0.1309	-0.023
Mof_C 	C 	0.8747	0.7546	0.2242	-0.234
Mof_C 	C 	0.8854	0.8163	0.2791	0.187
Mof_H 	H 	0.9164	0.8097	0.3135	-0.019
Mof_C 	C 	0.8499	0.891	0.2851	-0.306
Mof_H 	H 	0.8586	0.9339	0.3225	0.153
Mof_C 	C 	0.6038	0.3196	0.2409	0.344
Mof_C 	C 	0.9126	0.6736	0.2212	0.42
Mof_C 	C 	0.7624	0.0315	0.2954	0.229
Mof_C 	C 	0.0462	0.4864	0.099	0.137
Mof_H 	H 	0.0757	0.5277	0.0976	-0.022
Mof_C 	C 	0.0451	0.4202	0.0416	-0.232
Mof_H 	H 	0.0733	0.4188	0.0024	0.124
Mof_C 	C 	0.0032	0.3578	0.0425	0.188
Mof_C 	C 	0.9628	0.3642	0.1009	-0.222
Mof_H 	H 	0.9331	0.3234	0.1033	0.115
Mof_C 	C 	0.9656	0.4311	0.1568	0.125
Mof_H 	H 	0.9381	0.4339	0.1968	-0.029
Mof_C 	C 	0.0018	0.2841	0.9823	-0.197
Mof_H 	H 	0.0355	0.2879	0.9486	0.095
Mof_H 	H 	0.9681	0.2906	0.9489	0.094
Mof_C 	C 	0.0003	0.1943	0.0222	-0.181
Mof_H 	H 	0.0331	0.1882	0.0575	0.089
Mof_H 	H 	0.9656	0.1887	0.0536	0.09
Mof_C 	C 	0.002	0.1226	0.9591	0.178
Mof_C 	C 	0.0542	0.0965	0.9278	-0.218
Mof_H 	H 	0.0882	0.1206	0.9469	0.11
Mof_C 	C 	0.0557	0.0346	0.8681	0.128
Mof_H 	H 	0.091	0.0178	0.8472	-0.022
Mof_C 	C 	0.9592	0.0198	0.8738	0.135
Mof_H 	H 	0.926	0.9911	0.857	-0.03
Mof_C 	C 	0.9536	0.0815	0.9327	-0.231
Mof_H 	H 	0.9178	0.0949	0.9541	0.114
Mof_Zn	Zn	0.51173	0.41658	0.2564	1.21
Mof_O 	O 	0.4528	0.3311	0.2343	-0.506
Mof_O 	O 	0.4039	0.3765	0.3372	-0.335
Mof_O 	O 	0.0981	0.6506	0.324	-0.357
Mof_O 	O 	0.0753	0.656	0.1988	-0.446
Mof_O 	O 	0.2881	0.9743	0.1398	-0.237
Mof_N 	N 	0.268	0.0234	0.262	-0.28
Mof_H 	H 	0.2482	0.014	0.3043	0.144
Mof_N 	N 	0.5079	0.0017	0.6606	-0.289
Mof_N 	N 	0.5076	0.5079	0.346	-0.285
Mof_C 	C 	0.1461	0.7543	0.2422	-0.08
Mof_C 	C 	0.1743	0.791	0.3046	-0.003
Mof_H 	H 	0.1681	0.7696	0.3556	0.041
Mof_C 	C 	0.212	0.8599	0.2929	-0.052
Mof_H 	H 	0.2313	0.8839	0.3361	0.048
Mof_C 	C 	0.2211	0.8923	0.2205	-0.025
Mof_C 	C 	0.1952	0.8542	0.1565	-0.056
Mof_H 	H 	0.2031	0.8742	0.1055	0.061
Mof_C 	C 	0.1572	0.7858	0.1677	0.005
Mof_H 	H 	0.1389	0.7608	0.124	0.044
Mof_C 	C 	0.3044	0.0981	0.2612	0.282
Mof_C 	C 	0.2967	0.1555	0.3226	-0.291
Mof_H 	H 	0.2683	0.1455	0.3604	0.135
Mof_C 	C 	0.3323	0.2301	0.3281	0.183
Mof_H 	H 	0.3261	0.2699	0.3691	-0.023
Mof_C 	C 	0.3747	0.2454	0.2758	-0.235
Mof_C 	C 	0.3854	0.1837	0.2209	0.187
Mof_H 	H 	0.4164	0.1903	0.1865	-0.019
Mof_C 	C 	0.3499	0.109	0.2149	-0.306
Mof_H 	H 	0.3586	0.0661	0.1775	0.153
Mof_C 	C 	0.1038	0.6804	0.2591	0.344
Mof_C 	C 	0.4126	0.3264	0.2788	0.42
Mof_C 	C 	0.2624	0.9685	0.2046	0.229
Mof_C 	C 	0.5462	0.5136	0.401	0.137
Mof_H 	H 	0.5757	0.4723	0.4024	-0.021
Mof_C 	C 	0.5451	0.5798	0.4584	-0.231
Mof_H 	H 	0.5733	0.5812	0.4976	0.124
Mof_C 	C 	0.5032	0.6422	0.4575	0.187
Mof_C 	C 	0.4628	0.6358	0.3991	-0.22
Mof_H 	H 	0.4331	0.6766	0.3967	0.115
Mof_C 	C 	0.4656	0.5689	0.3432	0.124
Mof_H 	H 	0.4381	0.5661	0.3032	-0.029
Mof_C 	C 	0.5018	0.7159	0.5177	-0.199
Mof_H 	H 	0.5355	0.7121	0.5514	0.095
Mof_H 	H 	0.4681	0.7094	0.5511	0.095
Mof_C 	C 	0.5003	0.8057	0.4778	-0.183
Mof_H 	H 	0.5331	0.8118	0.4425	0.089
Mof_H 	H 	0.4656	0.8113	0.4464	0.092
Mof_C 	C 	0.502	0.8774	0.5409	0.175
Mof_C 	C 	0.5542	0.9035	0.5722	-0.216
Mof_H 	H 	0.5882	0.8794	0.5531	0.109
Mof_C 	C 	0.5557	0.9654	0.6319	0.124
Mof_H 	H 	0.591	0.9822	0.6528	-0.022
Mof_C 	C 	0.4592	0.9802	0.6262	0.14
Mof_H 	H 	0.426	0.0089	0.643	-0.033
Mof_C 	C 	0.4536	0.9185	0.5673	-0.229
Mof_H 	H 	0.4178	0.9051	0.5459	0.114
Mof_Zn	Zn	0.51173	0.08342	0.7564	1.21
Mof_O 	O 	0.4528	0.1689	0.7343	-0.506
Mof_O 	O 	0.4039	0.1235	0.8372	-0.335
Mof_O 	O 	0.0981	0.8494	0.824	-0.357
Mof_O 	O 	0.0753	0.844	0.6988	-0.446
Mof_O 	O 	0.2881	0.5257	0.6398	-0.236
Mof_N 	N 	0.268	0.4766	0.762	-0.281
Mof_H 	H 	0.2482	0.486	0.8043	0.144
Mof_N 	N 	0.5079	0.4983	0.1606	-0.289
Mof_N 	N 	0.5076	0.9921	0.846	-0.285
Mof_C 	C 	0.1461	0.7457	0.7422	-0.08
Mof_C 	C 	0.1743	0.709	0.8046	-0.003
Mof_H 	H 	0.1681	0.7304	0.8556	0.042
Mof_C 	C 	0.212	0.6401	0.7929	-0.052
Mof_H 	H 	0.2313	0.6161	0.8361	0.048
Mof_C 	C 	0.2211	0.6077	0.7205	-0.025
Mof_C 	C 	0.1952	0.6458	0.6565	-0.056
Mof_H 	H 	0.2031	0.6258	0.6055	0.061
Mof_C 	C 	0.1572	0.7142	0.6677	0.006
Mof_H 	H 	0.1389	0.7392	0.624	0.044
Mof_C 	C 	0.3044	0.4019	0.7612	0.282
Mof_C 	C 	0.2967	0.3445	0.8226	-0.291
Mof_H 	H 	0.2683	0.3545	0.8604	0.134
Mof_C 	C 	0.3323	0.2699	0.8281	0.183
Mof_H 	H 	0.3261	0.2301	0.8691	-0.023
Mof_C 	C 	0.3747	0.2546	0.7758	-0.234
Mof_C 	C 	0.3854	0.3163	0.7209	0.187
Mof_H 	H 	0.4164	0.3097	0.6865	-0.019
Mof_C 	C 	0.3499	0.391	0.7149	-0.306
Mof_H 	H 	0.3586	0.4339	0.6775	0.153
Mof_C 	C 	0.1038	0.8196	0.7591	0.344
Mof_C 	C 	0.4126	0.1736	0.7788	0.42
Mof_C 	C 	0.2624	0.5315	0.7046	0.23
Mof_C 	C 	0.5462	0.9864	0.901	0.139
Mof_H 	H 	0.5757	0.0277	0.9024	-0.023
Mof_C 	C 	0.5451	0.9202	0.9584	-0.233
Mof_H 	H 	0.5733	0.9188	0.9976	0.125
Mof_C 	C 	0.5032	0.8578	0.9575	0.188
Mof_C 	C 	0.4628	0.8642	0.8991	-0.221
Mof_H 	H 	0.4331	0.8234	0.8967	0.115
Mof_C 	C 	0.4656	0.9311	0.8432	0.125
Mof_H 	H 	0.4381	0.9339	0.8032	-0.029
Mof_C 	C 	0.5018	0.7841	0.0177	-0.201
Mof_H 	H 	0.5355	0.7879	0.0514	0.096
Mof_H 	H 	0.4681	0.7906	0.0511	0.096
Mof_C 	C 	0.5003	0.6943	0.9778	-0.181
Mof_H 	H 	0.5331	0.6882	0.9425	0.089
Mof_H 	H 	0.4656	0.6887	0.9464	0.091
Mof_C 	C 	0.502	0.6226	0.0409	0.175
Mof_C 	C 	0.5542	0.5965	0.0722	-0.216
Mof_H 	H 	0.5882	0.6206	0.0531	0.109
Mof_C 	C 	0.5557	0.5346	0.1319	0.124
Mof_H 	H 	0.591	0.5178	0.1528	-0.022
Mof_C 	C 	0.4592	0.5198	0.1262	0.14
Mof_H 	H 	0.426	0.4911	0.143	-0.033
Mof_C 	C 	0.4536	0.5815	0.0673	-0.229
Mof_H 	H 	0.4178	0.5949	0.0459	0.114
Mof_Zn	Zn	0.01173	0.91658	0.7436	1.209
Mof_O 	O 	0.9528	0.8311	0.7657	-0.505
Mof_O 	O 	0.9039	0.8765	0.6628	-0.335
Mof_O 	O 	0.5981	0.1506	0.676	-0.357
Mof_O 	O 	0.5753	0.156	0.8012	-0.446
Mof_O 	O 	0.7881	0.4743	0.8602	-0.236
Mof_N 	N 	0.768	0.5234	0.738	-0.281
Mof_H 	H 	0.7482	0.514	0.6957	0.144
Mof_N 	N 	0.0079	0.5017	0.3394	-0.289
Mof_N 	N 	0.0076	0.0079	0.654	-0.284
Mof_C 	C 	0.6461	0.2543	0.7578	-0.08
Mof_C 	C 	0.6743	0.291	0.6954	-0.003
Mof_H 	H 	0.6681	0.2696	0.6444	0.042
Mof_C 	C 	0.712	0.3599	0.7071	-0.052
Mof_H 	H 	0.7313	0.3839	0.6639	0.048
Mof_C 	C 	0.7211	0.3923	0.7795	-0.025
Mof_C 	C 	0.6952	0.3542	0.8435	-0.056
Mof_H 	H 	0.7031	0.3742	0.8945	0.061
Mof_C 	C 	0.6572	0.2858	0.8323	0.006
Mof_H 	H 	0.6389	0.2608	0.876	0.044
Mof_C 	C 	0.8044	0.5981	0.7388	0.282
Mof_C 	C 	0.7967	0.6555	0.6774	-0.291
Mof_H 	H 	0.7683	0.6455	0.6396	0.134
Mof_C 	C 	0.8323	0.7301	0.6719	0.183
Mof_H 	H 	0.8261	0.7699	0.6309	-0.023
Mof_C 	C 	0.8747	0.7454	0.7242	-0.234
Mof_C 	C 	0.8854	0.6837	0.7791	0.186
Mof_H 	H 	0.9164	0.6903	0.8135	-0.019
Mof_C 	C 	0.8499	0.609	0.7851	-0.306
Mof_H 	H 	0.8586	0.5661	0.8225	0.153
Mof_C 	C 	0.6038	0.1804	0.7409	0.344
Mof_C 	C 	0.9126	0.8264	0.7212	0.419
Mof_C 	C 	0.7624	0.4685	0.7954	0.23
Mof_C 	C 	0.0462	0.0136	0.599	0.144
Mof_H 	H 	0.0757	0.9723	0.5976	-0.025
Mof_C 	C 	0.0451	0.0798	0.5416	-0.236
Mof_H 	H 	0.0733	0.0812	0.5024	0.126
Mof_C 	C 	0.0032	0.1422	0.5425	0.191
Mof_C 	C 	0.9628	0.1358	0.6009	-0.225
Mof_H 	H 	0.9331	0.1766	0.6033	0.116
Mof_C 	C 	0.9656	0.0689	0.6568	0.123
Mof_H 	H 	0.9381	0.0661	0.6968	-0.029
Mof_C 	C 	0.0018	0.2159	0.4823	-0.198
Mof_H 	H 	0.0355	0.2121	0.4486	0.095
Mof_H 	H 	0.9681	0.2094	0.4489	0.094
Mof_C 	C 	0.0003	0.3057	0.5222	-0.181
Mof_H 	H 	0.0331	0.3118	0.5575	0.089
Mof_H 	H 	0.9656	0.3113	0.5536	0.09
Mof_C 	C 	0.002	0.3774	0.4591	0.176
Mof_C 	C 	0.0542	0.4035	0.4278	-0.216
Mof_H 	H 	0.0882	0.3794	0.4469	0.109
Mof_C 	C 	0.0557	0.4654	0.3681	0.124
Mof_H 	H 	0.091	0.4822	0.3472	-0.022
Mof_C 	C 	0.9592	0.4802	0.3738	0.141
Mof_H 	H 	0.926	0.5089	0.357	-0.034
Mof_C 	C 	0.9536	0.4185	0.4327	-0.23
Mof_H 	H 	0.9178	0.4051	0.4541	0.115
Mof_Zn	Zn	0.48827	0.91658	0.2436	1.21
Mof_O 	O 	0.5472	0.8311	0.2657	-0.506
Mof_O 	O 	0.5961	0.8765	0.1628	-0.335
Mof_O 	O 	0.9019	0.1506	0.176	-0.357
Mof_O 	O 	0.9247	0.156	0.3012	-0.446
Mof_O 	O 	0.7119	0.4743	0.3602	-0.236
Mof_N 	N 	0.732	0.5234	0.238	-0.281
Mof_H 	H 	0.7518	0.514	0.1957	0.144
Mof_N 	N 	0.4921	0.5017	0.8394	-0.289
Mof_N 	N 	0.4924	0.0079	0.154	-0.285
Mof_C 	C 	0.8539	0.2543	0.2578	-0.08
Mof_C 	C 	0.8257	0.291	0.1954	-0.003
Mof_H 	H 	0.8319	0.2696	0.1444	0.042
Mof_C 	C 	0.788	0.3599	0.2071	-0.052
Mof_H 	H 	0.7687	0.3839	0.1639	0.048
Mof_C 	C 	0.7789	0.3923	0.2795	-0.025
Mof_C 	C 	0.8048	0.3542	0.3435	-0.056
Mof_H 	H 	0.7969	0.3742	0.3945	0.061
Mof_C 	C 	0.8428	0.2858	0.3323	0.006
Mof_H 	H 	0.8611	0.2608	0.376	0.044
Mof_C 	C 	0.6956	0.5981	0.2388	0.282
Mof_C 	C 	0.7033	0.6555	0.1774	-0.291
Mof_H 	H 	0.7317	0.6455	0.1396	0.134
Mof_C 	C 	0.6677	0.7301	0.1719	0.183
Mof_H 	H 	0.6739	0.7699	0.1309	-0.023
Mof_C 	C 	0.6253	0.7454	0.2242	-0.234
Mof_C 	C 	0.6146	0.6837	0.2791	0.187
Mof_H 	H 	0.5836	0.6903	0.3135	-0.019
Mof_C 	C 	0.6501	0.609	0.2851	-0.306
Mof_H 	H 	0.6414	0.5661	0.3225	0.153
Mof_C 	C 	0.8962	0.1804	0.2409	0.344
Mof_C 	C 	0.5874	0.8264	0.2212	0.42
Mof_C 	C 	0.7376	0.4685	0.2954	0.23
Mof_C 	C 	0.4538	0.0136	0.099	0.139
Mof_H 	H 	0.4243	0.9723	0.0976	-0.023
Mof_C 	C 	0.4549	0.0798	0.0416	-0.233
Mof_H 	H 	0.4267	0.0812	0.0024	0.125
Mof_C 	C 	0.4968	0.1422	0.0425	0.188
Mof_C 	C 	0.5372	0.1358	0.1009	-0.221
Mof_H 	H 	0.5669	0.1766	0.1033	0.115
Mof_C 	C 	0.5344	0.0689	0.1568	0.125
Mof_H 	H 	0.5619	0.0661	0.1968	-0.029
Mof_C 	C 	0.4982	0.2159	0.9823	-0.201
Mof_H 	H 	0.4645	0.2121	0.9486	0.096
Mof_H 	H 	0.5319	0.2094	0.9489	0.096
Mof_C 	C 	0.4997	0.3057	0.0222	-0.181
Mof_H 	H 	0.4669	0.3118	0.0575	0.089
Mof_H 	H 	0.5344	0.3113	0.0536	0.091
Mof_C 	C 	0.498	0.3774	0.9591	0.175
Mof_C 	C 	0.4458	0.4035	0.9278	-0.216
Mof_H 	H 	0.4118	0.3794	0.9469	0.109
Mof_C 	C 	0.4443	0.4654	0.8681	0.124
Mof_H 	H 	0.409	0.4822	0.8472	-0.022
Mof_C 	C 	0.5408	0.4802	0.8738	0.14
Mof_H 	H 	0.574	0.5089	0.857	-0.033
Mof_C 	C 	0.5464	0.4185	0.9327	-0.229
Mof_H 	H 	0.5822	0.4051	0.9541	0.114
Mof_Zn	Zn	0.98827	0.08342	0.2564	1.209
Mof_O 	O 	0.0472	0.1689	0.2343	-0.505
Mof_O 	O 	0.0961	0.1235	0.3372	-0.335
Mof_O 	O 	0.4019	0.8494	0.324	-0.357
Mof_O 	O 	0.4247	0.844	0.1988	-0.446
Mof_O 	O 	0.2119	0.5257	0.1398	-0.236
Mof_N 	N 	0.232	0.4766	0.262	-0.281
Mof_H 	H 	0.2518	0.486	0.3043	0.144
Mof_N 	N 	0.9921	0.4983	0.6606	-0.289
Mof_N 	N 	0.9924	0.9921	0.346	-0.284
Mof_C 	C 	0.3539	0.7457	0.2422	-0.08
Mof_C 	C 	0.3257	0.709	0.3046	-0.003
Mof_H 	H 	0.3319	0.7304	0.3556	0.042
Mof_C 	C 	0.288	0.6401	0.2929	-0.052
Mof_H 	H 	0.2687	0.6161	0.3361	0.048
Mof_C 	C 	0.2789	0.6077	0.2205	-0.025
Mof_C 	C 	0.3048	0.6458	0.1565	-0.056
Mof_H 	H 	0.2969	0.6258	0.1055	0.061
Mof_C 	C 	0.3428	0.7142	0.1677	0.006
Mof_H 	H 	0.3611	0.7392	0.124	0.044
Mof_C 	C 	0.1956	0.4019	0.2612	0.282
Mof_C 	C 	0.2033	0.3445	0.3226	-0.291
Mof_H 	H 	0.2317	0.3545	0.3604	0.134
Mof_C 	C 	0.1677	0.2699	0.3281	0.183
Mof_H 	H 	0.1739	0.2301	0.3691	-0.023
Mof_C 	C 	0.1253	0.2546	0.2758	-0.234
Mof_C 	C 	0.1146	0.3163	0.2209	0.186
Mof_H 	H 	0.0836	0.3097	0.1865	-0.019
Mof_C 	C 	0.1501	0.391	0.2149	-0.306
Mof_H 	H 	0.1414	0.4339	0.1775	0.153
Mof_C 	C 	0.3962	0.8196	0.2591	0.344
Mof_C 	C 	0.0874	0.1736	0.2788	0.419
Mof_C 	C 	0.2376	0.5315	0.2046	0.23
Mof_C 	C 	0.9538	0.9864	0.401	0.144
Mof_H 	H 	0.9243	0.0277	0.4024	-0.025
Mof_C 	C 	0.9549	0.9202	0.4584	-0.236
Mof_H 	H 	0.9267	0.9188	0.4976	0.126
Mof_C 	C 	0.9968	0.8578	0.4575	0.191
Mof_C 	C 	0.0372	0.8642	0.3991	-0.225
Mof_H 	H 	0.0669	0.8234	0.3967	0.116
Mof_C 	C 	0.0344	0.9311	0.3432	0.123
Mof_H 	H 	0.0619	0.9339	0.3032	-0.029
Mof_C 	C 	0.9982	0.7841	0.5177	-0.198
Mof_H 	H 	0.9645	0.7879	0.5514	0.095
Mof_H 	H 	0.0319	0.7906	0.5511	0.094
Mof_C 	C 	0.9997	0.6943	0.4778	-0.181
Mof_H 	H 	0.9669	0.6882	0.4425	0.089
Mof_H 	H 	0.0344	0.6887	0.4464	0.09
Mof_C 	C 	0.998	0.6226	0.5409	0.176
Mof_C 	C 	0.9458	0.5965	0.5722	-0.216
Mof_H 	H 	0.9118	0.6206	0.5531	0.109
Mof_C 	C 	0.9443	0.5346	0.6319	0.124
Mof_H 	H 	0.909	0.5178	0.6528	-0.022
Mof_C 	C 	0.0408	0.5198	0.6262	0.141
Mof_H 	H 	0.074	0.4911	0.643	-0.034
Mof_C 	C 	0.0464	0.5815	0.5673	-0.23
Mof_H 	H 	0.0822	0.5949	0.5459	0.115
Mof_Zn	Zn	0.98827	0.41658	0.7564	1.21
Mof_O 	O 	0.0472	0.3311	0.7343	-0.506
Mof_O 	O 	0.0961	0.3765	0.8372	-0.335
Mof_O 	O 	0.4019	0.6506	0.824	-0.357
Mof_O 	O 	0.4247	0.656	0.6988	-0.445
Mof_O 	O 	0.2119	0.9743	0.6398	-0.237
Mof_N 	N 	0.232	0.0234	0.762	-0.28
Mof_H 	H 	0.2518	0.014	0.8043	0.144
Mof_N 	N 	0.9921	0.0017	0.1606	-0.29
Mof_N 	N 	0.9924	0.5079	0.846	-0.285
Mof_C 	C 	0.3539	0.7543	0.7422	-0.08
Mof_C 	C 	0.3257	0.791	0.8046	-0.003
Mof_H 	H 	0.3319	0.7696	0.8556	0.042
Mof_C 	C 	0.288	0.8599	0.7929	-0.052
Mof_H 	H 	0.2687	0.8839	0.8361	0.048
Mof_C 	C 	0.2789	0.8923	0.7205	-0.025
Mof_C 	C 	0.3048	0.8542	0.6565	-0.056
Mof_H 	H 	0.2969	0.8742	0.6055	0.061
Mof_C 	C 	0.3428	0.7858	0.6677	0.006
Mof_H 	H 	0.3611	0.7608	0.624	0.044
Mof_C 	C 	0.1956	0.0981	0.7612	0.282
Mof_C 	C 	0.2033	0.1555	0.8226	-0.291
Mof_H 	H 	0.2317	0.1455	0.8604	0.134
Mof_C 	C 	0.1677	0.2301	0.8281	0.183
Mof_H 	H 	0.1739	0.2699	0.8691	-0.023
Mof_C 	C 	0.1253	0.2454	0.7758	-0.234
Mof_C 	C 	0.1146	0.1837	0.7209	0.187
Mof_H 	H 	0.0836	0.1903	0.6865	-0.019
Mof_C 	C 	0.1501	0.109	0.7149	-0.306
Mof_H 	H 	0.1414	0.0661	0.6775	0.153
Mof_C 	C 	0.3962	0.6804	0.7591	0.344
Mof_C 	C 	0.0874	0.3264	0.7788	0.42
Mof_C 	C 	0.2376	0.9685	0.7046	0.229
Mof_C 	C 	0.9538	0.5136	0.901	0.137
Mof_H 	H 	0.9243	0.4723	0.9024	-0.022
Mof_C 	C 	0.9549	0.5798	0.9584	-0.232
Mof_H 	H 	0.9267	0.5812	0.9976	0.124
Mof_C 	C 	0.9968	0.6422	0.9575	0.188
Mof_C 	C 	0.0372	0.6358	0.8991	-0.222
Mof_H 	H 	0.0669	0.6766	0.8967	0.115
Mof_C 	C 	0.0344	0.5689	0.8432	0.125
Mof_H 	H 	0.0619	0.5661	0.8032	-0.029
Mof_C 	C 	0.9982	0.7159	0.0177	-0.197
Mof_H 	H 	0.9645	0.7121	0.0514	0.095
Mof_H 	H 	0.0319	0.7094	0.0511	0.094
Mof_C 	C 	0.9997	0.8057	0.9778	-0.181
Mof_H 	H 	0.9669	0.8118	0.9425	0.089
Mof_H 	H 	0.0344	0.8113	0.9464	0.09
Mof_C 	C 	0.998	0.8774	0.0409	0.178
Mof_C 	C 	0.9458	0.9035	0.0722	-0.218
Mof_H 	H 	0.9118	0.8794	0.0531	0.11
Mof_C 	C 	0.9443	0.9654	0.1319	0.128
Mof_H 	H 	0.909	0.9822	0.1528	-0.022
Mof_C 	C 	0.0408	0.9802	0.1262	0.135
Mof_H 	H 	0.074	0.0089	0.143	-0.03
Mof_C 	C 	0.0464	0.9185	0.0673	-0.231
Mof_H 	H 	0.0822	0.9051	0.0459	0.114
Mof_Zn	Zn	0.48827	0.58342	0.7436	1.21
Mof_O 	O 	0.5472	0.6689	0.7657	-0.506
Mof_O 	O 	0.5961	0.6235	0.6628	-0.335
Mof_O 	O 	0.9019	0.3494	0.676	-0.357
Mof_O 	O 	0.9247	0.344	0.8012	-0.446
Mof_O 	O 	0.7119	0.0257	0.8602	-0.237
Mof_N 	N 	0.732	0.9766	0.738	-0.28
Mof_H 	H 	0.7518	0.986	0.6957	0.144
Mof_N 	N 	0.4921	0.9983	0.3394	-0.289
Mof_N 	N 	0.4924	0.4921	0.654	-0.285
Mof_C 	C 	0.8539	0.2457	0.7578	-0.08
Mof_C 	C 	0.8257	0.209	0.6954	-0.003
Mof_H 	H 	0.8319	0.2304	0.6444	0.041
Mof_C 	C 	0.788	0.1401	0.7071	-0.052
Mof_H 	H 	0.7687	0.1161	0.6639	0.048
Mof_C 	C 	0.7789	0.1077	0.7795	-0.025
Mof_C 	C 	0.8048	0.1458	0.8435	-0.056
Mof_H 	H 	0.7969	0.1258	0.8945	0.061
Mof_C 	C 	0.8428	0.2142	0.8323	0.005
Mof_H 	H 	0.8611	0.2392	0.876	0.044
Mof_C 	C 	0.6956	0.9019	0.7388	0.282
Mof_C 	C 	0.7033	0.8445	0.6774	-0.291
Mof_H 	H 	0.7317	0.8545	0.6396	0.135
Mof_C 	C 	0.6677	0.7699	0.6719	0.183
Mof_H 	H 	0.6739	0.7301	0.6309	-0.023
Mof_C 	C 	0.6253	0.7546	0.7242	-0.235
Mof_C 	C 	0.6146	0.8163	0.7791	0.187
Mof_H 	H 	0.5836	0.8097	0.8135	-0.019
Mof_C 	C 	0.6501	0.891	0.7851	-0.306
Mof_H 	H 	0.6414	0.9339	0.8225	0.153
Mof_C 	C 	0.8962	0.3196	0.7409	0.344
Mof_C 	C 	0.5874	0.6736	0.7212	0.42
Mof_C 	C 	0.7376	0.0315	0.7954	0.229
Mof_C 	C 	0.4538	0.4864	0.599	0.137
Mof_H 	H 	0.4243	0.5277	0.5976	-0.021
Mof_C 	C 	0.4549	0.4202	0.5416	-0.231
Mof_H 	H 	0.4267	0.4188	0.5024	0.124
Mof_C 	C 	0.4968	0.3578	0.5425	0.187
Mof_C 	C 	0.5372	0.3642	0.6009	-0.22
Mof_H 	H 	0.5669	0.3234	0.6033	0.115
Mof_C 	C 	0.5344	0.4311	0.6568	0.124
Mof_H 	H 	0.5619	0.4339	0.6968	-0.029
Mof_C 	C 	0.4982	0.2841	0.4823	-0.199
Mof_H 	H 	0.4645	0.2879	0.4486	0.095
Mof_H 	H 	0.5319	0.2906	0.4489	0.095
Mof_C 	C 	0.4997	0.1943	0.5222	-0.183
Mof_H 	H 	0.4669	0.1882	0.5575	0.089
Mof_H 	H 	0.5344	0.1887	0.5536	0.092
Mof_C 	C 	0.498	0.1226	0.4591	0.175
Mof_C 	C 	0.4458	0.0965	0.4278	-0.216
Mof_H 	H 	0.4118	0.1206	0.4469	0.109
Mof_C 	C 	0.4443	0.0346	0.3681	0.124
Mof_H 	H 	0.409	0.0178	0.3472	-0.022
Mof_C 	C 	0.5408	0.0198	0.3738	0.14
Mof_H 	H 	0.574	0.9911	0.357	-0.033
Mof_C 	C 	0.5464	0.0815	0.4327	-0.229
Mof_H 	H 	0.5822	0.0949	0.4541	0.114
_end
