data_functionalizedCrystal
_audit_creation_method	'EQeq! by Chris Wilmer'
_symmetry_space_group_name_H-M	'P1'
_symmetry_Int_Tables_number	1
_symmetry_cell_setting	triclinic
loop_
_symmetry_equiv_pos_as_xyz
  x,y,z
_cell_length_a	18.978
_cell_length_b	18.978
_cell_length_c	22.916
_cell_angle_alpha	90
_cell_angle_beta	90
_cell_angle_gamma	120
loop_
_atom_site_label
_atom_site_type_symbol
_atom_site_fract_x
_atom_site_fract_y
_atom_site_fract_z
_atom_site_charge
Mof_Mn	Mn	0.6145	0.0185	0.00581	0.916
Mof_Mn	Mn	0.5349	0.1567	0.98029	0.938
Mof_Mn	Mn	0.58	0.2802	0.22164	0.778
Mof_Mn	Mn	0.2494	0.8684	0.8402	0.212
Mof_Mn	Mn	0.6035	0.684	0.1333	1.212
Mof_O 	O 	0.197	0.924	0.815	-0.225
Mof_O 	O 	0.289	0.908	0.748	-0.603
Mof_O 	O 	0.556	0.741	0.072	-0.136
Mof_O 	O 	0.6211	0.9716	0.0964	-0.445
Mof_O 	O 	0.6108	0.1105	0.9425	-0.453
Mof_O 	O 	0.5202	0.045	0.0324	-0.465
Mof_O 	O 	0.6266	0.2997	0.1334	-0.364
Mof_O 	O 	0.6057	0.272	0.9288	-0.437
Mof_O 	O 	0.7249	0.13	0.0286	-0.396
Mof_O 	O 	0.4606	0.9704	0.1096	-0.415
Mof_O 	O 	0.4647	0.1129	0.8983	-0.433
Mof_O 	O 	0.5077	0.8901	0.0001	-0.355
Mof_O 	O 	0.6679	0.175	0.861	-0.417
Mof_O 	O 	0.5955	0.3742	0.8906	-0.315
Mof_O 	O 	0.398	0.8233	0.9454	-0.284
Mof_O 	O 	0.5938	0.2073	0.0637	-0.383
Mof_O 	O 	0.367	0.998	0.8576	-0.538
Mof_O 	O 	0.243	0.324	0.478	-0.218
Mof_O 	O 	0.849	0.183	0.065	-0.322
Mof_O 	O 	0.622	0.859	0.138	-0.196
Mof_N 	N 	0.6059	0.9716	0.91	-0.068
Mof_N 	N 	0.7154	0.9842	0.0034	-0.071
Mof_N 	N 	0.3976	0.0715	0.0049	-0.072
Mof_N 	N 	0.4906	0.246	0.0096	-0.08
Mof_C 	C 	0.646	0.921	0.9076	-0.011
Mof_C 	C 	0.4634	0.0139	0.0679	0.477
Mof_C 	C 	0.643	0.042	0.87	-0.384
Mof_C 	C 	0.647	0.922	0.0988	0.497
Mof_C 	C 	0.52	0.924	0.8995	-0.3
Mof_C 	C 	0.592	0.266	0.0863	0.416
Mof_C 	C 	0.406	0.2	0.0368	0.002
Mof_C 	C 	0.55	0.303	0.0522	-0.332
Mof_C 	C 	0.471	0.876	0.9539	0.375
Mof_C 	C 	0.493	0.286	0.9563	-0.311
Mof_C 	C 	0.687	0.916	0.0421	-0.365
Mof_C 	C 	0.726	0.964	0.9407	0.02
Mof_C 	C 	0.397	0.03	0.0615	-0.395
Mof_C 	C 	0.787	0.131	0.041	0.437
Mof_C 	C 	0.656	0.899	0.8444	-0.136
Mof_C 	C 	0.406	0.049	0.8989	0.508
Mof_C 	C 	0.571	0.314	0.9228	0.408
Mof_C 	C 	0.355	0.119	0.0082	-0.001
Mof_C 	C 	0.6411	0.1147	0.8929	0.464
Mof_C 	C 	0.272	0.076	0.0336	-0.135
Mof_C 	C 	0.283	0.206	0.0674	-0.064
Mof_C 	C 	0.364	0.008	0.9592	-0.383
Mof_C 	C 	0.229	0.122	0.036	-0.072
Mof_C 	C 	0.362	0.248	0.038	-0.141
Mof_C 	C 	0.792	0.052	0.027	-0.321
Mof_C 	C 	0.701	0.852	0.8429	-0.069
Mof_C 	C 	0.771	0.916	0.9382	-0.149
Mof_C 	C 	0.781	0.9	0.872	-0.077
Mof_H 	H 	0.611	0.871	0.927	0.043
Mof_H 	H 	0.699	0.056	0.864	0.134
Mof_H 	H 	0.614	0.026	0.834	0.144
Mof_H 	H 	0.5	0.96	0.888	0.113
Mof_H 	H 	0.511	0.886	0.869	0.133
Mof_H 	H 	0.416	0.192	0.077	0.022
Mof_H 	H 	0.591	0.349	0.031	0.143
Mof_H 	H 	0.522	0.32	0.08	0.137
Mof_H 	H 	0.448	0.249	0.932	0.12
Mof_H 	H 	0.488	0.334	0.966	0.119
Mof_H 	H 	0.648	0.869	0.021	0.167
Mof_H 	H 	0.733	0.91	0.053	0.168
Mof_H 	H 	0.76	0.015	0.921	0.008
Mof_H 	H 	0.346	0.979	0.064	0.153
Mof_H 	H 	0.401	0.066	0.094	0.131
Mof_H 	H 	0.686	0.948	0.822	0.066
Mof_H 	H 	0.603	0.866	0.828	0.068
Mof_H 	H 	0.346	0.127	0.968	0.029
Mof_H 	H 	0.278	0.063	0.074	0.059
Mof_H 	H 	0.241	0.027	0.012	0.062
Mof_H 	H 	0.29	0.193	0.108	0.035
Mof_H 	H 	0.257	0.239	0.066	0.032
Mof_H 	H 	0.376	0.965	0.969	0.152
Mof_H 	H 	0.306	0.986	0.957	0.167
Mof_H 	H 	0.217	0.131	0.996	0.042
Mof_H 	H 	0.178	0.09	0.057	0.035
Mof_H 	H 	0.353	0.258	0.998	0.065
Mof_H 	H 	0.395	0.298	0.059	0.062
Mof_H 	H 	0.805	0.034	0.063	0.145
Mof_H 	H 	0.834	0.065	0.999	0.126
Mof_H 	H 	0.709	0.841	0.803	0.045
Mof_H 	H 	0.669	0.8	0.863	0.059
Mof_H 	H 	0.824	0.948	0.957	0.073
Mof_H 	H 	0.741	0.865	0.959	0.086
Mof_H 	H 	0.81	0.87	0.87	0.064
Mof_H 	H 	0.812	0.951	0.851	0.05
Mof_Mn	Mn	0.9815	0.596	0.67248	0.948
Mof_Mn	Mn	0.8433	0.3782	0.64696	0.937
Mof_Mn	Mn	0.7198	0.2998	0.88831	0.779
Mof_Mn	Mn	0.1316	0.381	0.50687	0.214
Mof_Mn	Mn	0.316	0.9195	0.79997	1.215
Mof_O 	O 	0.076	0.273	0.48167	-0.232
Mof_O 	O 	0.092	0.381	0.41467	-0.607
Mof_O 	O 	0.259	0.815	0.73867	-0.137
Mof_O 	O 	0.0284	0.6495	0.76307	-0.462
Mof_O 	O 	0.8895	0.5003	0.60917	-0.452
Mof_O 	O 	0.955	0.4752	0.69907	-0.467
Mof_O 	O 	0.7003	0.3269	0.80007	-0.364
Mof_O 	O 	0.728	0.3337	0.59547	-0.437
Mof_O 	O 	0.87	0.5949	0.69527	-0.396
Mof_O 	O 	0.0296	0.4902	0.77627	-0.437
Mof_O 	O 	0.8871	0.3518	0.56497	-0.431
Mof_O 	O 	0.1099	0.6176	0.66677	-0.362
Mof_O 	O 	0.825	0.4929	0.52767	-0.415
Mof_O 	O 	0.6258	0.2213	0.55727	-0.315
Mof_O 	O 	0.1767	0.5747	0.61207	-0.284
Mof_O 	O 	0.7927	0.3865	0.73037	-0.383
Mof_O 	O 	0.002	0.369	0.52427	-0.553
Mof_O 	O 	0.676	0.919	0.14467	-0.213
Mof_O 	O 	0.817	0.666	0.73167	-0.322
Mof_O 	O 	0.141	0.763	0.80467	-0.195
Mof_N 	N 	0.0284	0.6343	0.57667	-0.083
Mof_N 	N 	0.0158	0.7312	0.67007	-0.08
Mof_N 	N 	0.9285	0.3261	0.67157	-0.086
Mof_N 	N 	0.754	0.2446	0.67627	-0.079
Mof_C 	C 	0.079	0.725	0.57427	-0.003
Mof_C 	C 	0.9861	0.4495	0.73457	0.496
Mof_C 	C 	0.958	0.601	0.53667	-0.365
Mof_C 	C 	0.078	0.725	0.76547	0.5
Mof_C 	C 	0.076	0.596	0.56617	-0.298
Mof_C 	C 	0.734	0.326	0.75297	0.416
Mof_C 	C 	0.8	0.206	0.70347	-0.006
Mof_C 	C 	0.697	0.247	0.71887	-0.332
Mof_C 	C 	0.124	0.595	0.62057	0.374
Mof_C 	C 	0.714	0.207	0.62297	-0.311
Mof_C 	C 	0.084	0.771	0.70877	-0.371
Mof_C 	C 	0.036	0.762	0.60737	-0.019
Mof_C 	C 	0.97	0.367	0.72817	-0.358
Mof_C 	C 	0.869	0.656	0.70767	0.435
Mof_C 	C 	0.101	0.757	0.51107	-0.141
Mof_C 	C 	0.951	0.357	0.56557	0.512
Mof_C 	C 	0.686	0.257	0.58947	0.408
Mof_C 	C 	0.881	0.236	0.67487	0.013
Mof_C 	C 	0.8853	0.5264	0.55957	0.461
Mof_C 	C 	0.924	0.196	0.70027	-0.153
Mof_C 	C 	0.794	0.077	0.73407	-0.074
Mof_C 	C 	0.992	0.356	0.62587	-0.3
Mof_C 	C 	0.878	0.107	0.70267	-0.059
Mof_C 	C 	0.752	0.114	0.70467	-0.13
Mof_C 	C 	0.948	0.74	0.69367	-0.303
Mof_C 	C 	0.148	0.849	0.50957	-0.064
Mof_C 	C 	0.084	0.855	0.60487	-0.13
Mof_C 	C 	0.1	0.881	0.53867	-0.086
Mof_H 	H 	0.129	0.74	0.59367	0.041
Mof_H 	H 	0.944	0.643	0.53067	0.132
Mof_H 	H 	0.974	0.588	0.50067	0.145
Mof_H 	H 	0.04	0.54	0.55467	0.105
Mof_H 	H 	0.114	0.625	0.53567	0.13
Mof_H 	H 	0.808	0.224	0.74367	0.025
Mof_H 	H 	0.651	0.242	0.69767	0.142
Mof_H 	H 	0.68	0.202	0.74667	0.136
Mof_H 	H 	0.751	0.199	0.59867	0.12
Mof_H 	H 	0.666	0.154	0.63267	0.118
Mof_H 	H 	0.131	0.779	0.68767	0.169
Mof_H 	H 	0.09	0.823	0.71967	0.167
Mof_H 	H 	0.985	0.745	0.58767	0.034
Mof_H 	H 	0.021	0.367	0.73067	0.127
Mof_H 	H 	0.934	0.335	0.76067	0.124
Mof_H 	H 	0.052	0.738	0.48867	0.06
Mof_H 	H 	0.134	0.737	0.49467	0.068
Mof_H 	H 	0.873	0.219	0.63467	0.025
Mof_H 	H 	0.937	0.215	0.74067	0.069
Mof_H 	H 	0.973	0.214	0.67867	0.076
Mof_H 	H 	0.807	0.097	0.77467	0.038
Mof_H 	H 	0.761	0.018	0.73267	0.032
Mof_H 	H 	0.035	0.411	0.63567	0.114
Mof_H 	H 	0.014	0.32	0.62367	0.127
Mof_H 	H 	0.869	0.086	0.66267	0.038
Mof_H 	H 	0.91	0.088	0.72367	0.034
Mof_H 	H 	0.742	0.095	0.66467	0.06
Mof_H 	H 	0.702	0.097	0.72567	0.057
Mof_H 	H 	0.966	0.771	0.72967	0.148
Mof_H 	H 	0.935	0.769	0.66567	0.124
Mof_H 	H 	0.159	0.868	0.46967	0.044
Mof_H 	H 	0.2	0.869	0.52967	0.059
Mof_H 	H 	0.052	0.876	0.62367	0.062
Mof_H 	H 	0.135	0.876	0.62567	0.081
Mof_H 	H 	0.13	0.94	0.53667	0.067
Mof_H 	H 	0.049	0.861	0.51767	0.046
Mof_Mn	Mn	0.404	0.3855	0.33914	0.931
Mof_Mn	Mn	0.6218	0.4651	0.31362	0.936
Mof_Mn	Mn	0.7002	0.42	0.55497	0.778
Mof_Mn	Mn	0.619	0.7506	0.17353	0.214
Mof_Mn	Mn	0.0805	0.3965	0.46663	1.209
Mof_O 	O 	0.727	0.803	0.14833	-0.227
Mof_O 	O 	0.619	0.711	0.08133	-0.605
Mof_O 	O 	0.185	0.444	0.40533	-0.138
Mof_O 	O 	0.3505	0.3789	0.42973	-0.457
Mof_O 	O 	0.4997	0.3892	0.27583	-0.453
Mof_O 	O 	0.5248	0.4798	0.36573	-0.467
Mof_O 	O 	0.6731	0.3734	0.46673	-0.364
Mof_O 	O 	0.6663	0.3943	0.26213	-0.437
Mof_O 	O 	0.4051	0.2751	0.36193	-0.396
Mof_O 	O 	0.5098	0.5394	0.44293	-0.429
Mof_O 	O 	0.6482	0.5353	0.23163	-0.432
Mof_O 	O 	0.3824	0.4923	0.33343	-0.359
Mof_O 	O 	0.5071	0.3321	0.19433	-0.416
Mof_O 	O 	0.7787	0.4045	0.22393	-0.315
Mof_O 	O 	0.4253	0.602	0.27873	-0.284
Mof_O 	O 	0.6135	0.4062	0.39703	-0.383
Mof_O 	O 	0.631	0.633	0.19093	-0.545
Mof_O 	O 	0.081	0.757	0.81133	-0.221
Mof_O 	O 	0.334	0.151	0.39833	-0.323
Mof_O 	O 	0.237	0.378	0.47133	-0.196
Mof_N 	N 	0.3657	0.3941	0.24333	-0.076
Mof_N 	N 	0.2688	0.2846	0.33673	-0.076
Mof_N 	N 	0.6739	0.6024	0.33823	-0.078
Mof_N 	N 	0.7554	0.5094	0.34293	-0.079
Mof_C 	C 	0.275	0.354	0.24093	-0.007
Mof_C 	C 	0.5505	0.5366	0.40123	0.487
Mof_C 	C 	0.399	0.357	0.20333	-0.375
Mof_C 	C 	0.275	0.353	0.43213	0.499
Mof_C 	C 	0.404	0.48	0.23283	-0.299
Mof_C 	C 	0.674	0.408	0.41963	0.416
Mof_C 	C 	0.794	0.594	0.37013	0
Mof_C 	C 	0.753	0.45	0.38553	-0.332
Mof_C 	C 	0.405	0.529	0.28723	0.374
Mof_C 	C 	0.793	0.507	0.28963	-0.313
Mof_C 	C 	0.229	0.313	0.37543	-0.367
Mof_C 	C 	0.238	0.274	0.27403	0.001
Mof_C 	C 	0.633	0.603	0.39483	-0.377
Mof_C 	C 	0.344	0.213	0.37433	0.434
Mof_C 	C 	0.243	0.344	0.17773	-0.139
Mof_C 	C 	0.643	0.594	0.23223	0.51
Mof_C 	C 	0.743	0.429	0.25613	0.409
Mof_C 	C 	0.764	0.645	0.34153	0.004
Mof_C 	C 	0.4736	0.3589	0.22623	0.463
Mof_C 	C 	0.804	0.728	0.36693	-0.141
Mof_C 	C 	0.923	0.717	0.40073	-0.067
Mof_C 	C 	0.644	0.636	0.29253	-0.344
Mof_C 	C 	0.893	0.771	0.36933	-0.07
Mof_C 	C 	0.886	0.638	0.37133	-0.139
Mof_C 	C 	0.26	0.208	0.36033	-0.308
Mof_C 	C 	0.151	0.299	0.17623	-0.066
Mof_C 	C 	0.145	0.229	0.27153	-0.139
Mof_C 	C 	0.119	0.219	0.20533	-0.08
Mof_H 	H 	0.26	0.389	0.26033	0.042
Mof_H 	H 	0.357	0.301	0.19733	0.133
Mof_H 	H 	0.412	0.386	0.16733	0.144
Mof_H 	H 	0.46	0.5	0.22133	0.109
Mof_H 	H 	0.375	0.489	0.20233	0.131
Mof_H 	H 	0.776	0.584	0.41033	0.023
Mof_H 	H 	0.758	0.409	0.36433	0.143
Mof_H 	H 	0.798	0.478	0.41333	0.137
Mof_H 	H 	0.801	0.552	0.26533	0.121
Mof_H 	H 	0.846	0.512	0.29933	0.121
Mof_H 	H 	0.221	0.352	0.35433	0.167
Mof_H 	H 	0.177	0.267	0.38633	0.165
Mof_H 	H 	0.255	0.24	0.25433	0.019
Mof_H 	H 	0.633	0.654	0.39733	0.141
Mof_H 	H 	0.665	0.599	0.42733	0.128
Mof_H 	H 	0.262	0.314	0.15533	0.063
Mof_H 	H 	0.263	0.397	0.16133	0.068
Mof_H 	H 	0.781	0.654	0.30133	0.028
Mof_H 	H 	0.785	0.722	0.40733	0.064
Mof_H 	H 	0.786	0.759	0.34533	0.069
Mof_H 	H 	0.903	0.71	0.44133	0.038
Mof_H 	H 	0.982	0.743	0.39933	0.038
Mof_H 	H 	0.589	0.624	0.30233	0.134
Mof_H 	H 	0.68	0.694	0.29033	0.148
Mof_H 	H 	0.914	0.783	0.32933	0.046
Mof_H 	H 	0.912	0.822	0.39033	0.041
Mof_H 	H 	0.905	0.647	0.33133	0.066
Mof_H 	H 	0.903	0.605	0.39233	0.063
Mof_H 	H 	0.229	0.195	0.39633	0.143
Mof_H 	H 	0.231	0.166	0.33233	0.121
Mof_H 	H 	0.132	0.291	0.13633	0.042
Mof_H 	H 	0.131	0.331	0.19633	0.056
Mof_H 	H 	0.124	0.176	0.29033	0.063
Mof_H 	H 	0.124	0.259	0.29233	0.081
Mof_H 	H 	0.06	0.19	0.20333	0.059
Mof_H 	H 	0.139	0.188	0.18433	0.045
Mof_Mn	Mn	0.0185	0.6145	0.99419	0.915
Mof_Mn	Mn	0.1567	0.5349	0.01971	0.937
Mof_Mn	Mn	0.2802	0.58	0.77836	0.777
Mof_Mn	Mn	0.8684	0.2494	0.1598	0.211
Mof_Mn	Mn	0.684	0.6035	0.8667	1.211
Mof_O 	O 	0.924	0.197	0.185	-0.226
Mof_O 	O 	0.908	0.289	0.252	-0.604
Mof_O 	O 	0.741	0.556	0.928	-0.137
Mof_O 	O 	0.9716	0.6211	0.9036	-0.446
Mof_O 	O 	0.1105	0.6108	0.0575	-0.453
Mof_O 	O 	0.045	0.5202	0.9676	-0.465
Mof_O 	O 	0.2997	0.6266	0.8666	-0.364
Mof_O 	O 	0.272	0.6057	0.0712	-0.437
Mof_O 	O 	0.13	0.7249	0.9714	-0.396
Mof_O 	O 	0.9704	0.4606	0.8904	-0.415
Mof_O 	O 	0.1129	0.4647	0.1017	-0.433
Mof_O 	O 	0.8901	0.5077	0.9999	-0.355
Mof_O 	O 	0.175	0.6679	0.139	-0.417
Mof_O 	O 	0.3742	0.5955	0.1094	-0.315
Mof_O 	O 	0.8233	0.398	0.0546	-0.284
Mof_O 	O 	0.2073	0.5938	0.9363	-0.383
Mof_O 	O 	0.998	0.367	0.1424	-0.538
Mof_O 	O 	0.324	0.243	0.522	-0.218
Mof_O 	O 	0.183	0.849	0.935	-0.322
Mof_O 	O 	0.859	0.622	0.862	-0.196
Mof_N 	N 	0.9716	0.6059	0.09	-0.068
Mof_N 	N 	0.9842	0.7154	0.9966	-0.071
Mof_N 	N 	0.0715	0.3976	0.9951	-0.072
Mof_N 	N 	0.246	0.4906	0.9904	-0.08
Mof_C 	C 	0.921	0.646	0.0924	-0.011
Mof_C 	C 	0.0139	0.4634	0.9321	0.477
Mof_C 	C 	0.042	0.643	0.13	-0.384
Mof_C 	C 	0.922	0.647	0.9012	0.497
Mof_C 	C 	0.924	0.52	0.1005	-0.3
Mof_C 	C 	0.266	0.592	0.9137	0.416
Mof_C 	C 	0.2	0.406	0.9632	0.002
Mof_C 	C 	0.303	0.55	0.9478	-0.332
Mof_C 	C 	0.876	0.471	0.0461	0.375
Mof_C 	C 	0.286	0.493	0.0437	-0.311
Mof_C 	C 	0.916	0.687	0.9579	-0.365
Mof_C 	C 	0.964	0.726	0.0593	0.02
Mof_C 	C 	0.03	0.397	0.9385	-0.395
Mof_C 	C 	0.131	0.787	0.959	0.437
Mof_C 	C 	0.899	0.656	0.1556	-0.136
Mof_C 	C 	0.049	0.406	0.1011	0.508
Mof_C 	C 	0.314	0.571	0.0772	0.408
Mof_C 	C 	0.119	0.355	0.9918	-0.001
Mof_C 	C 	0.1147	0.6411	0.1071	0.464
Mof_C 	C 	0.076	0.272	0.9664	-0.135
Mof_C 	C 	0.206	0.283	0.9326	-0.064
Mof_C 	C 	0.008	0.364	0.0408	-0.383
Mof_C 	C 	0.122	0.229	0.964	-0.072
Mof_C 	C 	0.248	0.362	0.962	-0.141
Mof_C 	C 	0.052	0.792	0.973	-0.321
Mof_C 	C 	0.852	0.701	0.1571	-0.069
Mof_C 	C 	0.916	0.771	0.0618	-0.149
Mof_C 	C 	0.9	0.781	0.128	-0.077
Mof_H 	H 	0.871	0.611	0.073	0.043
Mof_H 	H 	0.056	0.699	0.136	0.134
Mof_H 	H 	0.026	0.614	0.166	0.144
Mof_H 	H 	0.96	0.5	0.112	0.113
Mof_H 	H 	0.886	0.511	0.131	0.133
Mof_H 	H 	0.192	0.416	0.923	0.022
Mof_H 	H 	0.349	0.591	0.969	0.143
Mof_H 	H 	0.32	0.522	0.92	0.137
Mof_H 	H 	0.249	0.448	0.068	0.12
Mof_H 	H 	0.334	0.488	0.034	0.119
Mof_H 	H 	0.869	0.648	0.979	0.167
Mof_H 	H 	0.91	0.733	0.947	0.168
Mof_H 	H 	0.015	0.76	0.079	0.008
Mof_H 	H 	0.979	0.346	0.936	0.153
Mof_H 	H 	0.066	0.401	0.906	0.131
Mof_H 	H 	0.948	0.686	0.178	0.066
Mof_H 	H 	0.866	0.603	0.172	0.068
Mof_H 	H 	0.127	0.346	0.032	0.029
Mof_H 	H 	0.063	0.278	0.926	0.059
Mof_H 	H 	0.027	0.241	0.988	0.062
Mof_H 	H 	0.193	0.29	0.892	0.035
Mof_H 	H 	0.239	0.257	0.934	0.032
Mof_H 	H 	0.965	0.376	0.031	0.152
Mof_H 	H 	0.986	0.306	0.043	0.167
Mof_H 	H 	0.131	0.217	0.004	0.042
Mof_H 	H 	0.09	0.178	0.943	0.035
Mof_H 	H 	0.258	0.353	0.002	0.065
Mof_H 	H 	0.298	0.395	0.941	0.062
Mof_H 	H 	0.034	0.805	0.937	0.145
Mof_H 	H 	0.065	0.834	0.001	0.126
Mof_H 	H 	0.841	0.709	0.197	0.045
Mof_H 	H 	0.8	0.669	0.137	0.059
Mof_H 	H 	0.948	0.824	0.043	0.073
Mof_H 	H 	0.865	0.741	0.041	0.086
Mof_H 	H 	0.87	0.81	0.13	0.064
Mof_H 	H 	0.951	0.812	0.149	0.05
Mof_Mn	Mn	0.596	0.9815	0.32752	0.948
Mof_Mn	Mn	0.3782	0.8433	0.35304	0.937
Mof_Mn	Mn	0.2998	0.7198	0.11169	0.779
Mof_Mn	Mn	0.381	0.1316	0.49313	0.214
Mof_Mn	Mn	0.9195	0.316	0.20003	1.215
Mof_O 	O 	0.273	0.076	0.51833	-0.232
Mof_O 	O 	0.381	0.092	0.58533	-0.607
Mof_O 	O 	0.815	0.259	0.26133	-0.137
Mof_O 	O 	0.6495	0.0284	0.23693	-0.462
Mof_O 	O 	0.5003	0.8895	0.39083	-0.452
Mof_O 	O 	0.4752	0.955	0.30093	-0.467
Mof_O 	O 	0.3269	0.7003	0.19993	-0.364
Mof_O 	O 	0.3337	0.728	0.40453	-0.437
Mof_O 	O 	0.5949	0.87	0.30473	-0.396
Mof_O 	O 	0.4902	0.0296	0.22373	-0.437
Mof_O 	O 	0.3518	0.8871	0.43503	-0.431
Mof_O 	O 	0.6176	0.1099	0.33323	-0.362
Mof_O 	O 	0.4929	0.825	0.47233	-0.415
Mof_O 	O 	0.2213	0.6258	0.44273	-0.315
Mof_O 	O 	0.5747	0.1767	0.38793	-0.284
Mof_O 	O 	0.3865	0.7927	0.26963	-0.383
Mof_O 	O 	0.369	0.002	0.47573	-0.553
Mof_O 	O 	0.919	0.676	0.85533	-0.213
Mof_O 	O 	0.666	0.817	0.26833	-0.322
Mof_O 	O 	0.763	0.141	0.19533	-0.195
Mof_N 	N 	0.6343	0.0284	0.42333	-0.083
Mof_N 	N 	0.7312	0.0158	0.32993	-0.08
Mof_N 	N 	0.3261	0.9285	0.32843	-0.086
Mof_N 	N 	0.2446	0.754	0.32373	-0.079
Mof_C 	C 	0.725	0.079	0.42573	-0.003
Mof_C 	C 	0.4495	0.9861	0.26543	0.496
Mof_C 	C 	0.601	0.958	0.46333	-0.365
Mof_C 	C 	0.725	0.078	0.23453	0.5
Mof_C 	C 	0.596	0.076	0.43383	-0.298
Mof_C 	C 	0.326	0.734	0.24703	0.416
Mof_C 	C 	0.206	0.8	0.29653	-0.006
Mof_C 	C 	0.247	0.697	0.28113	-0.332
Mof_C 	C 	0.595	0.124	0.37943	0.374
Mof_C 	C 	0.207	0.714	0.37703	-0.311
Mof_C 	C 	0.771	0.084	0.29123	-0.371
Mof_C 	C 	0.762	0.036	0.39263	-0.019
Mof_C 	C 	0.367	0.97	0.27183	-0.358
Mof_C 	C 	0.656	0.869	0.29233	0.435
Mof_C 	C 	0.757	0.101	0.48893	-0.141
Mof_C 	C 	0.357	0.951	0.43443	0.512
Mof_C 	C 	0.257	0.686	0.41053	0.408
Mof_C 	C 	0.236	0.881	0.32513	0.013
Mof_C 	C 	0.5264	0.8853	0.44043	0.461
Mof_C 	C 	0.196	0.924	0.29973	-0.153
Mof_C 	C 	0.077	0.794	0.26593	-0.074
Mof_C 	C 	0.356	0.992	0.37413	-0.3
Mof_C 	C 	0.107	0.878	0.29733	-0.059
Mof_C 	C 	0.114	0.752	0.29533	-0.13
Mof_C 	C 	0.74	0.948	0.30633	-0.303
Mof_C 	C 	0.849	0.148	0.49043	-0.064
Mof_C 	C 	0.855	0.084	0.39513	-0.13
Mof_C 	C 	0.881	0.1	0.46133	-0.086
Mof_H 	H 	0.74	0.129	0.40633	0.041
Mof_H 	H 	0.643	0.944	0.46933	0.132
Mof_H 	H 	0.588	0.974	0.49933	0.145
Mof_H 	H 	0.54	0.04	0.44533	0.105
Mof_H 	H 	0.625	0.114	0.46433	0.13
Mof_H 	H 	0.224	0.808	0.25633	0.025
Mof_H 	H 	0.242	0.651	0.30233	0.142
Mof_H 	H 	0.202	0.68	0.25333	0.136
Mof_H 	H 	0.199	0.751	0.40133	0.12
Mof_H 	H 	0.154	0.666	0.36733	0.118
Mof_H 	H 	0.779	0.131	0.31233	0.169
Mof_H 	H 	0.823	0.09	0.28033	0.167
Mof_H 	H 	0.745	0.985	0.41233	0.034
Mof_H 	H 	0.367	0.021	0.26933	0.127
Mof_H 	H 	0.335	0.934	0.23933	0.124
Mof_H 	H 	0.738	0.052	0.51133	0.06
Mof_H 	H 	0.737	0.134	0.50533	0.068
Mof_H 	H 	0.219	0.873	0.36533	0.025
Mof_H 	H 	0.215	0.937	0.25933	0.069
Mof_H 	H 	0.214	0.973	0.32133	0.076
Mof_H 	H 	0.097	0.807	0.22533	0.038
Mof_H 	H 	0.018	0.761	0.26733	0.032
Mof_H 	H 	0.411	0.035	0.36433	0.114
Mof_H 	H 	0.32	0.014	0.37633	0.127
Mof_H 	H 	0.086	0.869	0.33733	0.038
Mof_H 	H 	0.088	0.91	0.27633	0.034
Mof_H 	H 	0.095	0.742	0.33533	0.06
Mof_H 	H 	0.097	0.702	0.27433	0.057
Mof_H 	H 	0.771	0.966	0.27033	0.148
Mof_H 	H 	0.769	0.935	0.33433	0.124
Mof_H 	H 	0.868	0.159	0.53033	0.044
Mof_H 	H 	0.869	0.2	0.47033	0.059
Mof_H 	H 	0.876	0.052	0.37633	0.062
Mof_H 	H 	0.876	0.135	0.37433	0.081
Mof_H 	H 	0.94	0.13	0.46333	0.067
Mof_H 	H 	0.861	0.049	0.48233	0.046
Mof_Mn	Mn	0.3855	0.404	0.66086	0.931
Mof_Mn	Mn	0.4651	0.6218	0.68638	0.936
Mof_Mn	Mn	0.42	0.7002	0.44503	0.778
Mof_Mn	Mn	0.7506	0.619	0.82647	0.214
Mof_Mn	Mn	0.3965	0.0805	0.53337	1.209
Mof_O 	O 	0.803	0.727	0.85167	-0.227
Mof_O 	O 	0.711	0.619	0.91867	-0.605
Mof_O 	O 	0.444	0.185	0.59467	-0.138
Mof_O 	O 	0.3789	0.3505	0.57027	-0.457
Mof_O 	O 	0.3892	0.4997	0.72417	-0.453
Mof_O 	O 	0.4798	0.5248	0.63427	-0.467
Mof_O 	O 	0.3734	0.6731	0.53327	-0.364
Mof_O 	O 	0.3943	0.6663	0.73787	-0.437
Mof_O 	O 	0.2751	0.4051	0.63807	-0.396
Mof_O 	O 	0.5394	0.5098	0.55707	-0.429
Mof_O 	O 	0.5353	0.6482	0.76837	-0.432
Mof_O 	O 	0.4923	0.3824	0.66657	-0.359
Mof_O 	O 	0.3321	0.5071	0.80567	-0.416
Mof_O 	O 	0.4045	0.7787	0.77607	-0.315
Mof_O 	O 	0.602	0.4253	0.72127	-0.284
Mof_O 	O 	0.4062	0.6135	0.60297	-0.383
Mof_O 	O 	0.633	0.631	0.80907	-0.545
Mof_O 	O 	0.757	0.081	0.18867	-0.221
Mof_O 	O 	0.151	0.334	0.60167	-0.323
Mof_O 	O 	0.378	0.237	0.52867	-0.196
Mof_N 	N 	0.3941	0.3657	0.75667	-0.076
Mof_N 	N 	0.2846	0.2688	0.66327	-0.076
Mof_N 	N 	0.6024	0.6739	0.66177	-0.078
Mof_N 	N 	0.5094	0.7554	0.65707	-0.079
Mof_C 	C 	0.354	0.275	0.75907	-0.007
Mof_C 	C 	0.5366	0.5505	0.59877	0.487
Mof_C 	C 	0.357	0.399	0.79667	-0.375
Mof_C 	C 	0.353	0.275	0.56787	0.499
Mof_C 	C 	0.48	0.404	0.76717	-0.299
Mof_C 	C 	0.408	0.674	0.58037	0.416
Mof_C 	C 	0.594	0.794	0.62987	0
Mof_C 	C 	0.45	0.753	0.61447	-0.332
Mof_C 	C 	0.529	0.405	0.71277	0.374
Mof_C 	C 	0.507	0.793	0.71037	-0.313
Mof_C 	C 	0.313	0.229	0.62457	-0.367
Mof_C 	C 	0.274	0.238	0.72597	0.001
Mof_C 	C 	0.603	0.633	0.60517	-0.377
Mof_C 	C 	0.213	0.344	0.62567	0.434
Mof_C 	C 	0.344	0.243	0.82227	-0.139
Mof_C 	C 	0.594	0.643	0.76777	0.51
Mof_C 	C 	0.429	0.743	0.74387	0.409
Mof_C 	C 	0.645	0.764	0.65847	0.004
Mof_C 	C 	0.3589	0.4736	0.77377	0.463
Mof_C 	C 	0.728	0.804	0.63307	-0.141
Mof_C 	C 	0.717	0.923	0.59927	-0.067
Mof_C 	C 	0.636	0.644	0.70747	-0.344
Mof_C 	C 	0.771	0.893	0.63067	-0.07
Mof_C 	C 	0.638	0.886	0.62867	-0.139
Mof_C 	C 	0.208	0.26	0.63967	-0.308
Mof_C 	C 	0.299	0.151	0.82377	-0.066
Mof_C 	C 	0.229	0.145	0.72847	-0.139
Mof_C 	C 	0.219	0.119	0.79467	-0.08
Mof_H 	H 	0.389	0.26	0.73967	0.042
Mof_H 	H 	0.301	0.357	0.80267	0.133
Mof_H 	H 	0.386	0.412	0.83267	0.144
Mof_H 	H 	0.5	0.46	0.77867	0.109
Mof_H 	H 	0.489	0.375	0.79767	0.131
Mof_H 	H 	0.584	0.776	0.58967	0.023
Mof_H 	H 	0.409	0.758	0.63567	0.143
Mof_H 	H 	0.478	0.798	0.58667	0.137
Mof_H 	H 	0.552	0.801	0.73467	0.121
Mof_H 	H 	0.512	0.846	0.70067	0.121
Mof_H 	H 	0.352	0.221	0.64567	0.167
Mof_H 	H 	0.267	0.177	0.61367	0.165
Mof_H 	H 	0.24	0.255	0.74567	0.019
Mof_H 	H 	0.654	0.633	0.60267	0.141
Mof_H 	H 	0.599	0.665	0.57267	0.128
Mof_H 	H 	0.314	0.262	0.84467	0.063
Mof_H 	H 	0.397	0.263	0.83867	0.068
Mof_H 	H 	0.654	0.781	0.69867	0.028
Mof_H 	H 	0.722	0.785	0.59267	0.064
Mof_H 	H 	0.759	0.786	0.65467	0.069
Mof_H 	H 	0.71	0.903	0.55867	0.038
Mof_H 	H 	0.743	0.982	0.60067	0.038
Mof_H 	H 	0.624	0.589	0.69767	0.134
Mof_H 	H 	0.694	0.68	0.70967	0.148
Mof_H 	H 	0.783	0.914	0.67067	0.046
Mof_H 	H 	0.822	0.912	0.60967	0.041
Mof_H 	H 	0.647	0.905	0.66867	0.066
Mof_H 	H 	0.605	0.903	0.60767	0.063
Mof_H 	H 	0.195	0.229	0.60367	0.143
Mof_H 	H 	0.166	0.231	0.66767	0.121
Mof_H 	H 	0.291	0.132	0.86367	0.042
Mof_H 	H 	0.331	0.131	0.80367	0.056
Mof_H 	H 	0.176	0.124	0.70967	0.063
Mof_H 	H 	0.259	0.124	0.70767	0.081
Mof_H 	H 	0.19	0.06	0.79667	0.059
Mof_H 	H 	0.188	0.139	0.81567	0.045
Mof_Mn	Mn	0.5636	-3.53167e-33	0.16667	0.876
Mof_Mn	Mn	3.58223e-17	0.5636	0.83333	0.876
Mof_Mn	Mn	0.4364	0.4364	0.5	0.891
_end
