data_functionalizedCrystal
_audit_creation_method	'EQeq! by Chris Wilmer'
_symmetry_space_group_name_H-M	'P1'
_symmetry_Int_Tables_number	1
_symmetry_cell_setting	triclinic
loop_
_symmetry_equiv_pos_as_xyz
  x,y,z
_cell_length_a	9.869
_cell_length_b	17.101
_cell_length_c	17.32
_cell_angle_alpha	90
_cell_angle_beta	94.896
_cell_angle_gamma	90
loop_
_atom_site_label
_atom_site_type_symbol
_atom_site_fract_x
_atom_site_fract_y
_atom_site_fract_z
_atom_site_charge
Mof_Zn	Zn	0.06281	0.96598	0.09974	1.228
Mof_Zn	Zn	0.55016	0.10733	0.9632	1.234
Mof_P 	P 	0.35393	0.06128	0.08767	0.453
Mof_P 	P 	0.85354	0.10272	0.0542	0.455
Mof_O 	O 	0.2049	0.0418	0.0858	-0.45
Mof_O 	O 	0.3837	0.1111	0.0175	-0.41
Mof_O 	O 	0.4477	0.9907	0.0968	-0.448
Mof_O 	O 	0.5142	0.3265	0.3727	-0.434
Mof_O 	O 	0.4822	0.2242	0.4453	-0.29
Mof_O 	O 	0.8978	0.0286	0.0978	-0.432
Mof_O 	O 	0.93	0.1137	0.9817	-0.451
Mof_O 	O 	0.7014	0.1069	0.0395	-0.455
Mof_O 	O 	0.9006	0.4112	0.3007	-0.431
Mof_O 	O 	0.1027	0.3571	0.3301	-0.276
Mof_C 	C 	0.3917	0.1201	0.1735	-0.043
Mof_C 	C 	0.3569	0.0928	0.2445	-0.029
Mof_H 	H 	0.3131	0.0449	0.2477	0.05
Mof_C 	C 	0.388	0.1375	0.311	-0.016
Mof_H 	H 	0.3658	0.1183	0.3586	0.059
Mof_C 	C 	0.4499	0.2085	0.3082	-0.058
Mof_C 	C 	0.4825	0.2372	0.2379	-0.015
Mof_H 	H 	0.5238	0.2859	0.2351	0.058
Mof_C 	C 	0.4534	0.1928	0.1706	-0.027
Mof_H 	H 	0.4759	0.2123	0.1233	0.051
Mof_C 	C 	0.4844	0.2546	0.3816	0.337
Mof_C 	C 	0.8988	0.1834	0.1181	-0.046
Mof_C 	C 	0.0242	0.1862	0.1609	-0.018
Mof_H 	H 	0.0881	0.1475	0.1537	0.047
Mof_C 	C 	0.0562	0.2453	0.214	-0.023
Mof_H 	H 	0.1414	0.2461	0.2415	0.064
Mof_C 	C 	0.963	0.3025	0.2263	-0.05
Mof_C 	C 	0.8379	0.3024	0.1827	-0.024
Mof_H 	H 	0.7753	0.3419	0.1895	0.06
Mof_C 	C 	0.8064	0.2435	0.1292	-0.018
Mof_H 	H 	0.7225	0.244	0.1003	0.047
Mof_C 	C 	0.9928	0.3606	0.2897	0.31
Mof_Zn	Zn	0.93719	0.46598	0.40026	1.229
Mof_Zn	Zn	0.44984	0.60733	0.5368	1.234
Mof_P 	P 	0.64607	0.56128	0.41233	0.449
Mof_P 	P 	0.14646	0.60272	0.4458	0.451
Mof_O 	O 	0.7951	0.5418	0.4142	-0.453
Mof_O 	O 	0.6163	0.6111	0.4825	-0.412
Mof_O 	O 	0.5523	0.4907	0.4032	-0.443
Mof_O 	O 	0.4858	0.8265	0.1273	-0.435
Mof_O 	O 	0.5178	0.7242	0.0547	-0.291
Mof_O 	O 	0.1022	0.5286	0.4022	-0.434
Mof_O 	O 	0.07	0.6137	0.5183	-0.446
Mof_O 	O 	0.2986	0.6069	0.4605	-0.457
Mof_O 	O 	0.0994	0.9112	0.1993	-0.432
Mof_O 	O 	0.8973	0.8571	0.1699	-0.275
Mof_C 	C 	0.6083	0.6201	0.3265	-0.044
Mof_C 	C 	0.6431	0.5928	0.2555	-0.029
Mof_H 	H 	0.6869	0.5449	0.2523	0.049
Mof_C 	C 	0.612	0.6375	0.189	-0.016
Mof_H 	H 	0.6342	0.6183	0.1414	0.059
Mof_C 	C 	0.5501	0.7085	0.1918	-0.059
Mof_C 	C 	0.5175	0.7372	0.2621	-0.015
Mof_H 	H 	0.4762	0.7859	0.2649	0.058
Mof_C 	C 	0.5466	0.6928	0.3294	-0.027
Mof_H 	H 	0.5241	0.7123	0.3767	0.051
Mof_C 	C 	0.5156	0.7546	0.1184	0.337
Mof_C 	C 	0.1012	0.6834	0.3819	-0.046
Mof_C 	C 	0.9758	0.6862	0.3391	-0.02
Mof_H 	H 	0.9119	0.6475	0.3463	0.047
Mof_C 	C 	0.9438	0.7453	0.286	-0.02
Mof_H 	H 	0.8586	0.7461	0.2585	0.063
Mof_C 	C 	0.037	0.8025	0.2737	-0.052
Mof_C 	C 	0.1621	0.8024	0.3173	-0.024
Mof_H 	H 	0.2247	0.8419	0.3105	0.059
Mof_C 	C 	0.1936	0.7435	0.3708	-0.019
Mof_H 	H 	0.2775	0.744	0.3997	0.047
Mof_C 	C 	0.0072	0.8606	0.2103	0.308
Mof_Zn	Zn	0.93719	0.03402	0.90026	1.227
Mof_Zn	Zn	0.44984	0.89267	0.0368	1.233
Mof_P 	P 	0.64607	0.93872	0.91233	0.453
Mof_P 	P 	0.14646	0.89728	0.9458	0.455
Mof_O 	O 	0.7951	0.9582	0.9142	-0.45
Mof_O 	O 	0.6163	0.8889	0.9825	-0.41
Mof_O 	O 	0.5523	0.0093	0.9032	-0.448
Mof_O 	O 	0.4858	0.6735	0.6273	-0.434
Mof_O 	O 	0.5178	0.7758	0.5547	-0.29
Mof_O 	O 	0.1022	0.9714	0.9022	-0.432
Mof_O 	O 	0.07	0.8863	0.0183	-0.451
Mof_O 	O 	0.2986	0.8931	0.9605	-0.455
Mof_O 	O 	0.0994	0.5888	0.6993	-0.431
Mof_O 	O 	0.8973	0.6429	0.6699	-0.276
Mof_C 	C 	0.6083	0.8799	0.8265	-0.043
Mof_C 	C 	0.6431	0.9072	0.7555	-0.029
Mof_H 	H 	0.6869	0.9551	0.7523	0.05
Mof_C 	C 	0.612	0.8625	0.689	-0.016
Mof_H 	H 	0.6342	0.8817	0.6414	0.059
Mof_C 	C 	0.5501	0.7915	0.6918	-0.058
Mof_C 	C 	0.5175	0.7628	0.7621	-0.015
Mof_H 	H 	0.4762	0.7141	0.7649	0.058
Mof_C 	C 	0.5466	0.8072	0.8294	-0.027
Mof_H 	H 	0.5241	0.7877	0.8767	0.051
Mof_C 	C 	0.5156	0.7454	0.6184	0.337
Mof_C 	C 	0.1012	0.8166	0.8819	-0.046
Mof_C 	C 	0.9758	0.8138	0.8391	-0.018
Mof_H 	H 	0.9119	0.8525	0.8463	0.047
Mof_C 	C 	0.9438	0.7547	0.786	-0.023
Mof_H 	H 	0.8586	0.7539	0.7585	0.064
Mof_C 	C 	0.037	0.6975	0.7737	-0.05
Mof_C 	C 	0.1621	0.6976	0.8173	-0.024
Mof_H 	H 	0.2247	0.6581	0.8105	0.06
Mof_C 	C 	0.1936	0.7565	0.8708	-0.018
Mof_H 	H 	0.2775	0.756	0.8997	0.047
Mof_C 	C 	0.0072	0.6394	0.7103	0.31
Mof_Zn	Zn	0.06281	0.53402	0.59974	1.229
Mof_Zn	Zn	0.55016	0.39267	0.4632	1.234
Mof_P 	P 	0.35393	0.43872	0.58767	0.449
Mof_P 	P 	0.85354	0.39728	0.5542	0.451
Mof_O 	O 	0.2049	0.4582	0.5858	-0.453
Mof_O 	O 	0.3837	0.3889	0.5175	-0.412
Mof_O 	O 	0.4477	0.5093	0.5968	-0.443
Mof_O 	O 	0.5142	0.1735	0.8727	-0.435
Mof_O 	O 	0.4822	0.2758	0.9453	-0.291
Mof_O 	O 	0.8978	0.4714	0.5978	-0.434
Mof_O 	O 	0.93	0.3863	0.4817	-0.446
Mof_O 	O 	0.7014	0.3931	0.5395	-0.457
Mof_O 	O 	0.9006	0.0888	0.8007	-0.432
Mof_O 	O 	0.1027	0.1429	0.8301	-0.275
Mof_C 	C 	0.3917	0.3799	0.6735	-0.044
Mof_C 	C 	0.3569	0.4072	0.7445	-0.029
Mof_H 	H 	0.3131	0.4551	0.7477	0.049
Mof_C 	C 	0.388	0.3625	0.811	-0.016
Mof_H 	H 	0.3658	0.3817	0.8586	0.059
Mof_C 	C 	0.4499	0.2915	0.8082	-0.059
Mof_C 	C 	0.4825	0.2628	0.7379	-0.015
Mof_H 	H 	0.5238	0.2141	0.7351	0.058
Mof_C 	C 	0.4534	0.3072	0.6706	-0.027
Mof_H 	H 	0.4759	0.2877	0.6233	0.051
Mof_C 	C 	0.4844	0.2454	0.8816	0.337
Mof_C 	C 	0.8988	0.3166	0.6181	-0.046
Mof_C 	C 	0.0242	0.3138	0.6609	-0.02
Mof_H 	H 	0.0881	0.3525	0.6537	0.047
Mof_C 	C 	0.0562	0.2547	0.714	-0.02
Mof_H 	H 	0.1414	0.2539	0.7415	0.063
Mof_C 	C 	0.963	0.1975	0.7263	-0.052
Mof_C 	C 	0.8379	0.1976	0.6827	-0.024
Mof_H 	H 	0.7753	0.1581	0.6895	0.059
Mof_C 	C 	0.8064	0.2565	0.6292	-0.019
Mof_H 	H 	0.7225	0.256	0.6003	0.047
Mof_C 	C 	0.9928	0.1394	0.7897	0.308
_end
