data_functionalizedCrystal
_audit_creation_method	'EQeq! by Chris Wilmer'
_symmetry_space_group_name_H-M	'P1'
_symmetry_Int_Tables_number	1
_symmetry_cell_setting	triclinic
loop_
_symmetry_equiv_pos_as_xyz
  x,y,z
_cell_length_a	9.973
_cell_length_b	48.485
_cell_length_c	54.892
_cell_angle_alpha	90
_cell_angle_beta	90
_cell_angle_gamma	90
loop_
_atom_site_label
_atom_site_type_symbol
_atom_site_fract_x
_atom_site_fract_y
_atom_site_fract_z
_atom_site_charge
Mof_Ga	Ga	0.8768	0.27688	0.02277	4.338
Mof_Zn	Zn	0.66822	0.43248	0.22027	1.228
Mof_Zn	Zn	0.7045	0.36244	0.13334	1.227
Mof_Zn	Zn	0.5478	0.34979	0.06815	1.231
Mof_Zn	Zn	0.0457	0.39679	0.10715	1.235
Mof_Zn	Zn	0.99064	0.4661	0.19435	1.224
Mof_Zn	Zn	0.20235	0.32449	0.08812	1.233
Mof_Zn	Zn	0.35163	0.41471	0.16529	1.152
Mof_P 	P 	0.1607	0.28135	0.04628	0.693
Mof_P 	P 	0.7132	0.49257	0.20537	0.441
Mof_P 	P 	0.0653	0.44212	0.14576	0.5
Mof_P 	P 	0.9399	0.44463	0.2448	0.491
Mof_P 	P 	0.7648	0.39191	0.08367	0.433
Mof_P 	P 	0.6414	0.38678	0.18372	0.449
Mof_P 	P 	0.277	0.38398	0.07192	0.449
Mof_P 	P 	0.5944	0.3048	0.02833	0.902
Mof_P 	P 	0.9854	0.33646	0.12633	0.483
Mof_P 	P 	0.471	0.32494	0.11837	0.462
Mof_O 	O 	0.1737	0.2502	0.04679	-0.962
Mof_O 	O 	0.0156	0.29121	0.04445	-0.933
Mof_O 	O 	0.2312	0.29278	0.06835	-0.47
Mof_O 	O 	0.655	0.46466	0.19842	-0.466
Mof_O 	O 	0.6617	0.51596	0.18981	-0.457
Mof_O 	O 	0.864	0.49309	0.20537	-0.467
Mof_O 	O 	0.0064	0.43137	0.1229	-0.438
Mof_O 	O 	0.9516	0.45022	0.16304	-0.456
Mof_O 	O 	0.1602	0.4224	0.15805	-0.522
Mof_O 	O 	0.9963	0.42638	0.26458	-0.473
Mof_O 	O 	0.7915	0.44367	0.24555	-0.467
Mof_O 	O 	0.9994	0.43819	0.21985	-0.481
Mof_O 	O 	0.7081	0.39231	0.10956	-0.478
Mof_O 	O 	0.9153	0.3945	0.08188	-0.455
Mof_O 	O 	0.7239	0.3669	0.06962	-0.438
Mof_O 	O 	0.7153	0.398	0.20529	-0.442
Mof_O 	O 	0.7432	0.3776	0.16522	-0.433
Mof_O 	O 	0.5426	0.40679	0.17315	-0.528
Mof_O 	O 	0.4256	0.37997	0.07339	-0.468
Mof_O 	O 	0.2256	0.39942	0.09399	-0.465
Mof_O 	O 	0.1992	0.35759	0.06753	-0.466
Mof_O 	O 	0.7416	0.30171	0.03612	-0.952
Mof_O 	O 	0.5739	0.30371	0.00119	-1.021
Mof_O 	O 	0.5334	0.3312	0.03787	-0.515
Mof_O 	O 	0.8349	0.3344	0.12835	-0.445
Mof_O 	O 	0.0418	0.36557	0.12976	-0.466
Mof_O 	O 	0.0288	0.32222	0.10318	-0.424
Mof_O 	O 	0.5214	0.3475	0.13491	-0.466
Mof_O 	O 	0.5487	0.323	0.09479	-0.478
Mof_O 	O 	0.3222	0.32715	0.11564	-0.463
Mof_H 	H 	0.2328	0.2909	0.026	-0.085
Mof_H 	H 	0.6622	0.4969	0.228	-0.061
Mof_H 	H 	0.1266	0.4638	0.1425	-0.083
Mof_H 	H 	0.9761	0.467	0.2484	-0.115
Mof_H 	H 	0.711	0.4179	0.0729	-0.011
Mof_H 	H 	0.5996	0.3583	0.1866	-0.04
Mof_H 	H 	0.2219	0.3967	0.0529	-0.022
Mof_H 	H 	0.5986	0.2846	0.0332	-0.255
Mof_H 	H 	0.9846	0.3276	0.1428	-0.096
Mof_H 	H 	0.4863	0.3067	0.1337	-0.039
Mof_Ga	Ga	0.3768	0.77688	0.52277	4.406
Mof_Zn	Zn	0.16822	0.93248	0.72027	1.234
Mof_Zn	Zn	0.2045	0.86244	0.63334	1.229
Mof_Zn	Zn	0.0478	0.84979	0.56815	1.236
Mof_Zn	Zn	0.5457	0.89679	0.60715	1.23
Mof_Zn	Zn	0.49064	0.9661	0.69435	1.229
Mof_Zn	Zn	0.70235	0.82449	0.58812	1.231
Mof_Zn	Zn	0.85163	0.91471	0.66529	1.145
Mof_P 	P 	0.6607	0.78135	0.54628	0.693
Mof_P 	P 	0.2132	0.99257	0.70537	0.441
Mof_P 	P 	0.5653	0.94212	0.64576	0.483
Mof_P 	P 	0.4399	0.94463	0.7448	0.489
Mof_P 	P 	0.2648	0.89191	0.58367	0.435
Mof_P 	P 	0.1414	0.88678	0.68372	0.45
Mof_P 	P 	0.777	0.88398	0.57192	0.448
Mof_P 	P 	0.0944	0.8048	0.52833	0.907
Mof_P 	P 	0.4854	0.83646	0.62633	0.526
Mof_P 	P 	0.971	0.82494	0.61837	0.426
Mof_O 	O 	0.6737	0.7502	0.54679	-0.964
Mof_O 	O 	0.5156	0.79121	0.54445	-0.957
Mof_O 	O 	0.7312	0.79278	0.56835	-0.477
Mof_O 	O 	0.155	0.96466	0.69842	-0.459
Mof_O 	O 	0.1617	0.01596	0.68981	-0.445
Mof_O 	O 	0.364	0.99309	0.70537	-0.461
Mof_O 	O 	0.5064	0.93137	0.6229	-0.447
Mof_O 	O 	0.4516	0.95022	0.66304	-0.436
Mof_O 	O 	0.6602	0.9224	0.65805	-0.529
Mof_O 	O 	0.4963	0.92638	0.76458	-0.457
Mof_O 	O 	0.2915	0.94367	0.74555	-0.46
Mof_O 	O 	0.4994	0.93819	0.71985	-0.471
Mof_O 	O 	0.2081	0.89231	0.60956	-0.471
Mof_O 	O 	0.4153	0.8945	0.58188	-0.441
Mof_O 	O 	0.2239	0.8669	0.56962	-0.432
Mof_O 	O 	0.2153	0.898	0.70529	-0.436
Mof_O 	O 	0.2432	0.8776	0.66522	-0.427
Mof_O 	O 	0.0426	0.90679	0.67315	-0.517
Mof_O 	O 	0.9256	0.87997	0.57339	-0.482
Mof_O 	O 	0.7256	0.89942	0.59399	-0.471
Mof_O 	O 	0.6992	0.85759	0.56753	-0.473
Mof_O 	O 	0.2416	0.80171	0.53612	-0.959
Mof_O 	O 	0.0739	0.80371	0.50119	-1.022
Mof_O 	O 	0.0334	0.8312	0.53787	-0.507
Mof_O 	O 	0.3349	0.8344	0.62835	-0.444
Mof_O 	O 	0.5418	0.86557	0.62976	-0.49
Mof_O 	O 	0.5288	0.82222	0.60318	-0.447
Mof_O 	O 	0.0214	0.8475	0.63491	-0.444
Mof_O 	O 	0.0487	0.823	0.59479	-0.456
Mof_O 	O 	0.8222	0.82715	0.61564	-0.466
Mof_H 	H 	0.7328	0.7909	0.526	-0.091
Mof_H 	H 	0.1622	0.9969	0.728	-0.054
Mof_H 	H 	0.6266	0.9638	0.6425	-0.086
Mof_H 	H 	0.4761	0.967	0.7484	-0.107
Mof_H 	H 	0.211	0.9179	0.5729	-0.004
Mof_H 	H 	0.0996	0.8583	0.6866	-0.034
Mof_H 	H 	0.7219	0.8967	0.5529	-0.028
Mof_H 	H 	0.0986	0.7846	0.5332	-0.254
Mof_H 	H 	0.4846	0.8276	0.6428	-0.1
Mof_H 	H 	0.9863	0.8067	0.6337	-0.043
Mof_Ga	Ga	0.6232	0.72312	0.52277	4.404
Mof_Zn	Zn	0.83178	0.56752	0.72027	1.226
Mof_Zn	Zn	0.7955	0.63756	0.63334	1.228
Mof_Zn	Zn	0.9522	0.65021	0.56815	1.228
Mof_Zn	Zn	0.4543	0.60321	0.60715	1.231
Mof_Zn	Zn	0.50936	0.5339	0.69435	1.229
Mof_Zn	Zn	0.29765	0.67551	0.58812	1.233
Mof_Zn	Zn	0.14837	0.58529	0.66529	1.156
Mof_P 	P 	0.3393	0.71865	0.54628	0.694
Mof_P 	P 	0.7868	0.50743	0.70537	0.441
Mof_P 	P 	0.4347	0.55788	0.64576	0.483
Mof_P 	P 	0.5601	0.55537	0.7448	0.49
Mof_P 	P 	0.7352	0.60809	0.58367	0.432
Mof_P 	P 	0.8586	0.61322	0.68372	0.447
Mof_P 	P 	0.223	0.61602	0.57192	0.449
Mof_P 	P 	0.9056	0.6952	0.52833	0.901
Mof_P 	P 	0.5146	0.66354	0.62633	0.527
Mof_P 	P 	0.029	0.67506	0.61837	0.494
Mof_O 	O 	0.3263	0.7498	0.54679	-0.96
Mof_O 	O 	0.4844	0.70879	0.54445	-0.957
Mof_O 	O 	0.2688	0.70722	0.56835	-0.468
Mof_O 	O 	0.845	0.53534	0.69842	-0.471
Mof_O 	O 	0.8383	0.48404	0.68981	-0.462
Mof_O 	O 	0.636	0.50691	0.70537	-0.461
Mof_O 	O 	0.4936	0.56863	0.6229	-0.446
Mof_O 	O 	0.5484	0.54978	0.66304	-0.437
Mof_O 	O 	0.3398	0.5776	0.65805	-0.523
Mof_O 	O 	0.5037	0.57362	0.76458	-0.459
Mof_O 	O 	0.7085	0.55633	0.74555	-0.469
Mof_O 	O 	0.5006	0.56181	0.71985	-0.471
Mof_O 	O 	0.7919	0.60769	0.60956	-0.478
Mof_O 	O 	0.5847	0.6055	0.58188	-0.441
Mof_O 	O 	0.7761	0.6331	0.56962	-0.437
Mof_O 	O 	0.7847	0.602	0.70529	-0.443
Mof_O 	O 	0.7568	0.6224	0.66522	-0.429
Mof_O 	O 	0.9574	0.59321	0.67315	-0.536
Mof_O 	O 	0.0744	0.62003	0.57339	-0.456
Mof_O 	O 	0.2744	0.60058	0.59399	-0.465
Mof_O 	O 	0.3008	0.64241	0.56753	-0.468
Mof_O 	O 	0.7584	0.69829	0.53612	-0.958
Mof_O 	O 	0.9261	0.69629	0.50119	-1.021
Mof_O 	O 	0.9666	0.6688	0.53787	-0.524
Mof_O 	O 	0.6651	0.6656	0.62835	-0.447
Mof_O 	O 	0.4582	0.63443	0.62976	-0.487
Mof_O 	O 	0.4712	0.67778	0.60318	-0.447
Mof_O 	O 	0.9786	0.6525	0.63491	-0.485
Mof_O 	O 	0.9513	0.677	0.59479	-0.495
Mof_O 	O 	0.1778	0.67285	0.61564	-0.466
Mof_H 	H 	0.2672	0.7091	0.526	-0.084
Mof_H 	H 	0.8378	0.5031	0.728	-0.066
Mof_H 	H 	0.3734	0.5362	0.6425	-0.083
Mof_H 	H 	0.5239	0.533	0.7484	-0.108
Mof_H 	H 	0.789	0.5821	0.5729	-0.012
Mof_H 	H 	0.9004	0.6417	0.6866	-0.043
Mof_H 	H 	0.2781	0.6033	0.5529	-0.023
Mof_H 	H 	0.9014	0.7154	0.5332	-0.26
Mof_H 	H 	0.5154	0.6724	0.6428	-0.1
Mof_H 	H 	0.0137	0.6933	0.6337	-0.037
Mof_Ga	Ga	0.1232	0.22312	0.02277	4.444
Mof_Zn	Zn	0.33178	0.06752	0.22027	1.229
Mof_Zn	Zn	0.2955	0.13756	0.13334	1.23
Mof_Zn	Zn	0.4522	0.15021	0.06815	1.232
Mof_Zn	Zn	0.9543	0.10321	0.10715	1.227
Mof_Zn	Zn	0.00936	0.0339	0.19435	1.233
Mof_Zn	Zn	0.79765	0.17551	0.08812	1.232
Mof_Zn	Zn	0.64837	0.08529	0.16529	1.151
Mof_P 	P 	0.8393	0.21865	0.04628	0.692
Mof_P 	P 	0.2868	0.00743	0.20537	0.441
Mof_P 	P 	0.9347	0.05788	0.14576	0.47
Mof_P 	P 	0.0601	0.05537	0.2448	0.489
Mof_P 	P 	0.2352	0.10809	0.08367	0.434
Mof_P 	P 	0.3586	0.11322	0.18372	0.448
Mof_P 	P 	0.723	0.11602	0.07192	0.448
Mof_P 	P 	0.4056	0.1952	0.02833	0.906
Mof_P 	P 	0.0146	0.16354	0.12633	0.563
Mof_P 	P 	0.529	0.17506	0.11837	0.462
Mof_O 	O 	0.8263	0.2498	0.04679	-0.958
Mof_O 	O 	0.9844	0.20879	0.04445	-0.977
Mof_O 	O 	0.7688	0.20722	0.06835	-0.474
Mof_O 	O 	0.345	0.03534	0.19842	-0.466
Mof_O 	O 	0.3383	0.98404	0.18981	-0.454
Mof_O 	O 	0.136	0.00691	0.20537	-0.457
Mof_O 	O 	0.9936	0.06863	0.1229	-0.453
Mof_O 	O 	0.0484	0.04978	0.16304	-0.423
Mof_O 	O 	0.8398	0.0776	0.15805	-0.528
Mof_O 	O 	0.0037	0.07362	0.26458	-0.449
Mof_O 	O 	0.2085	0.05633	0.24555	-0.464
Mof_O 	O 	0.0006	0.06181	0.21985	-0.464
Mof_O 	O 	0.2919	0.10769	0.10956	-0.472
Mof_O 	O 	0.0847	0.1055	0.08188	-0.429
Mof_O 	O 	0.2761	0.1331	0.06962	-0.432
Mof_O 	O 	0.2847	0.102	0.20529	-0.438
Mof_O 	O 	0.2568	0.1224	0.16522	-0.424
Mof_O 	O 	0.4574	0.09321	0.17315	-0.528
Mof_O 	O 	0.5744	0.12003	0.07339	-0.469
Mof_O 	O 	0.7744	0.10058	0.09399	-0.47
Mof_O 	O 	0.8008	0.14241	0.06753	-0.474
Mof_O 	O 	0.2584	0.19829	0.03612	-0.961
Mof_O 	O 	0.4261	0.19629	0.00119	-1.023
Mof_O 	O 	0.4666	0.1688	0.03787	-0.516
Mof_O 	O 	0.1651	0.1656	0.12835	-0.445
Mof_O 	O 	0.9582	0.13443	0.12976	-0.507
Mof_O 	O 	0.9712	0.17778	0.10318	-0.467
Mof_O 	O 	0.4786	0.1525	0.13491	-0.466
Mof_O 	O 	0.4513	0.177	0.09479	-0.475
Mof_O 	O 	0.6778	0.17285	0.11564	-0.468
Mof_H 	H 	0.7672	0.2091	0.026	-0.089
Mof_H 	H 	0.3378	0.0031	0.228	-0.061
Mof_H 	H 	0.8734	0.0362	0.1425	-0.086
Mof_H 	H 	0.0239	0.033	0.2484	-0.103
Mof_H 	H 	0.289	0.0821	0.0729	-0.006
Mof_H 	H 	0.4004	0.1417	0.1866	-0.039
Mof_H 	H 	0.7781	0.1033	0.0529	-0.029
Mof_H 	H 	0.4014	0.2154	0.0332	-0.257
Mof_H 	H 	0.0154	0.1724	0.1428	-0.104
Mof_H 	H 	0.5137	0.1933	0.1337	-0.04
Mof_Ga	Ga	0.1232	0.77688	0.47723	4.443
Mof_Zn	Zn	0.33178	0.93248	0.27973	1.229
Mof_Zn	Zn	0.2955	0.86244	0.36666	1.23
Mof_Zn	Zn	0.4522	0.84979	0.43185	1.232
Mof_Zn	Zn	0.9543	0.89679	0.39285	1.227
Mof_Zn	Zn	0.00936	0.9661	0.30565	1.233
Mof_Zn	Zn	0.79765	0.82449	0.41188	1.232
Mof_Zn	Zn	0.64837	0.91471	0.33471	1.151
Mof_P 	P 	0.8393	0.78135	0.45372	0.692
Mof_P 	P 	0.2868	0.99257	0.29463	0.441
Mof_P 	P 	0.9347	0.94212	0.35424	0.47
Mof_P 	P 	0.0601	0.94463	0.2552	0.489
Mof_P 	P 	0.2352	0.89191	0.41633	0.434
Mof_P 	P 	0.3586	0.88678	0.31628	0.448
Mof_P 	P 	0.723	0.88398	0.42808	0.448
Mof_P 	P 	0.4056	0.8048	0.47167	0.906
Mof_P 	P 	0.0146	0.83646	0.37367	0.563
Mof_P 	P 	0.529	0.82494	0.38163	0.462
Mof_O 	O 	0.8263	0.7502	0.45321	-0.958
Mof_O 	O 	0.9844	0.79121	0.45555	-0.977
Mof_O 	O 	0.7688	0.79278	0.43165	-0.474
Mof_O 	O 	0.345	0.96466	0.30158	-0.466
Mof_O 	O 	0.3383	0.01596	0.31019	-0.454
Mof_O 	O 	0.136	0.99309	0.29463	-0.457
Mof_O 	O 	0.9936	0.93137	0.3771	-0.453
Mof_O 	O 	0.0484	0.95022	0.33696	-0.423
Mof_O 	O 	0.8398	0.9224	0.34195	-0.528
Mof_O 	O 	0.0037	0.92638	0.23542	-0.449
Mof_O 	O 	0.2085	0.94367	0.25445	-0.464
Mof_O 	O 	0.0006	0.93819	0.28015	-0.464
Mof_O 	O 	0.2919	0.89231	0.39044	-0.472
Mof_O 	O 	0.0847	0.8945	0.41812	-0.429
Mof_O 	O 	0.2761	0.8669	0.43038	-0.432
Mof_O 	O 	0.2847	0.898	0.29471	-0.438
Mof_O 	O 	0.2568	0.8776	0.33478	-0.424
Mof_O 	O 	0.4574	0.90679	0.32685	-0.528
Mof_O 	O 	0.5744	0.87997	0.42661	-0.469
Mof_O 	O 	0.7744	0.89942	0.40601	-0.47
Mof_O 	O 	0.8008	0.85759	0.43247	-0.474
Mof_O 	O 	0.2584	0.80171	0.46388	-0.961
Mof_O 	O 	0.4261	0.80371	0.49881	-1.024
Mof_O 	O 	0.4666	0.8312	0.46213	-0.516
Mof_O 	O 	0.1651	0.8344	0.37165	-0.445
Mof_O 	O 	0.9582	0.86557	0.37024	-0.507
Mof_O 	O 	0.9712	0.82222	0.39682	-0.467
Mof_O 	O 	0.4786	0.8475	0.36509	-0.466
Mof_O 	O 	0.4513	0.823	0.40521	-0.475
Mof_O 	O 	0.6778	0.82715	0.38436	-0.468
Mof_H 	H 	0.7672	0.7909	0.474	-0.089
Mof_H 	H 	0.3378	0.9969	0.272	-0.061
Mof_H 	H 	0.8734	0.9638	0.3575	-0.086
Mof_H 	H 	0.0239	0.967	0.2516	-0.103
Mof_H 	H 	0.289	0.9179	0.4271	-0.006
Mof_H 	H 	0.4004	0.8583	0.3134	-0.039
Mof_H 	H 	0.7781	0.8967	0.4471	-0.029
Mof_H 	H 	0.4014	0.7846	0.4668	-0.258
Mof_H 	H 	0.0154	0.8276	0.3572	-0.104
Mof_H 	H 	0.5137	0.8067	0.3663	-0.04
Mof_Ga	Ga	0.6232	0.27688	0.97723	4.402
Mof_Zn	Zn	0.83178	0.43248	0.77973	1.226
Mof_Zn	Zn	0.7955	0.36244	0.86666	1.228
Mof_Zn	Zn	0.9522	0.34979	0.93185	1.228
Mof_Zn	Zn	0.4543	0.39679	0.89285	1.231
Mof_Zn	Zn	0.50936	0.4661	0.80565	1.229
Mof_Zn	Zn	0.29765	0.32449	0.91188	1.233
Mof_Zn	Zn	0.14837	0.41471	0.83471	1.156
Mof_P 	P 	0.3393	0.28135	0.95372	0.694
Mof_P 	P 	0.7868	0.49257	0.79463	0.441
Mof_P 	P 	0.4347	0.44212	0.85424	0.483
Mof_P 	P 	0.5601	0.44463	0.7552	0.49
Mof_P 	P 	0.7352	0.39191	0.91633	0.432
Mof_P 	P 	0.8586	0.38678	0.81628	0.447
Mof_P 	P 	0.223	0.38398	0.92808	0.449
Mof_P 	P 	0.9056	0.3048	0.97167	0.901
Mof_P 	P 	0.5146	0.33646	0.87367	0.527
Mof_P 	P 	0.029	0.32494	0.88163	0.494
Mof_O 	O 	0.3263	0.2502	0.95321	-0.96
Mof_O 	O 	0.4844	0.29121	0.95555	-0.957
Mof_O 	O 	0.2688	0.29278	0.93165	-0.468
Mof_O 	O 	0.845	0.46466	0.80158	-0.471
Mof_O 	O 	0.8383	0.51596	0.81019	-0.462
Mof_O 	O 	0.636	0.49309	0.79463	-0.461
Mof_O 	O 	0.4936	0.43137	0.8771	-0.446
Mof_O 	O 	0.5484	0.45022	0.83696	-0.437
Mof_O 	O 	0.3398	0.4224	0.84195	-0.523
Mof_O 	O 	0.5037	0.42638	0.73542	-0.459
Mof_O 	O 	0.7085	0.44367	0.75445	-0.469
Mof_O 	O 	0.5006	0.43819	0.78015	-0.471
Mof_O 	O 	0.7919	0.39231	0.89044	-0.478
Mof_O 	O 	0.5847	0.3945	0.91812	-0.441
Mof_O 	O 	0.7761	0.3669	0.93038	-0.437
Mof_O 	O 	0.7847	0.398	0.79471	-0.443
Mof_O 	O 	0.7568	0.3776	0.83478	-0.429
Mof_O 	O 	0.9574	0.40679	0.82685	-0.536
Mof_O 	O 	0.0744	0.37997	0.92661	-0.456
Mof_O 	O 	0.2744	0.39942	0.90601	-0.465
Mof_O 	O 	0.3008	0.35759	0.93247	-0.468
Mof_O 	O 	0.7584	0.30171	0.96388	-0.958
Mof_O 	O 	0.9261	0.30371	0.99881	-1.022
Mof_O 	O 	0.9666	0.3312	0.96213	-0.524
Mof_O 	O 	0.6651	0.3344	0.87165	-0.447
Mof_O 	O 	0.4582	0.36557	0.87024	-0.487
Mof_O 	O 	0.4712	0.32222	0.89682	-0.447
Mof_O 	O 	0.9786	0.3475	0.86509	-0.485
Mof_O 	O 	0.9513	0.323	0.90521	-0.495
Mof_O 	O 	0.1778	0.32715	0.88436	-0.466
Mof_H 	H 	0.2672	0.2909	0.974	-0.084
Mof_H 	H 	0.8378	0.4969	0.772	-0.066
Mof_H 	H 	0.3734	0.4638	0.8575	-0.083
Mof_H 	H 	0.5239	0.467	0.7516	-0.108
Mof_H 	H 	0.789	0.4179	0.9271	-0.012
Mof_H 	H 	0.9004	0.3583	0.8134	-0.043
Mof_H 	H 	0.2781	0.3967	0.9471	-0.023
Mof_H 	H 	0.9014	0.2846	0.9668	-0.26
Mof_H 	H 	0.5154	0.3276	0.8572	-0.1
Mof_H 	H 	0.0137	0.3067	0.8663	-0.037
Mof_Ga	Ga	0.3768	0.22312	0.97723	4.405
Mof_Zn	Zn	0.16822	0.06752	0.77973	1.234
Mof_Zn	Zn	0.2045	0.13756	0.86666	1.229
Mof_Zn	Zn	0.0478	0.15021	0.93185	1.236
Mof_Zn	Zn	0.5457	0.10321	0.89285	1.23
Mof_Zn	Zn	0.49064	0.0339	0.80565	1.229
Mof_Zn	Zn	0.70235	0.17551	0.91188	1.231
Mof_Zn	Zn	0.85163	0.08529	0.83471	1.145
Mof_P 	P 	0.6607	0.21865	0.95372	0.693
Mof_P 	P 	0.2132	0.00743	0.79463	0.441
Mof_P 	P 	0.5653	0.05788	0.85424	0.483
Mof_P 	P 	0.4399	0.05537	0.7552	0.489
Mof_P 	P 	0.2648	0.10809	0.91633	0.435
Mof_P 	P 	0.1414	0.11322	0.81628	0.45
Mof_P 	P 	0.777	0.11602	0.92808	0.448
Mof_P 	P 	0.0944	0.1952	0.97167	0.907
Mof_P 	P 	0.4854	0.16354	0.87367	0.526
Mof_P 	P 	0.971	0.17506	0.88163	0.426
Mof_O 	O 	0.6737	0.2498	0.95321	-0.963
Mof_O 	O 	0.5156	0.20879	0.95555	-0.957
Mof_O 	O 	0.7312	0.20722	0.93165	-0.477
Mof_O 	O 	0.155	0.03534	0.80158	-0.459
Mof_O 	O 	0.1617	0.98404	0.81019	-0.445
Mof_O 	O 	0.364	0.00691	0.79463	-0.461
Mof_O 	O 	0.5064	0.06863	0.8771	-0.447
Mof_O 	O 	0.4516	0.04978	0.83696	-0.436
Mof_O 	O 	0.6602	0.0776	0.84195	-0.529
Mof_O 	O 	0.4963	0.07362	0.73542	-0.457
Mof_O 	O 	0.2915	0.05633	0.75445	-0.46
Mof_O 	O 	0.4994	0.06181	0.78015	-0.471
Mof_O 	O 	0.2081	0.10769	0.89044	-0.471
Mof_O 	O 	0.4153	0.1055	0.91812	-0.441
Mof_O 	O 	0.2239	0.1331	0.93038	-0.432
Mof_O 	O 	0.2153	0.102	0.79471	-0.436
Mof_O 	O 	0.2432	0.1224	0.83478	-0.427
Mof_O 	O 	0.0426	0.09321	0.82685	-0.517
Mof_O 	O 	0.9256	0.12003	0.92661	-0.483
Mof_O 	O 	0.7256	0.10058	0.90601	-0.471
Mof_O 	O 	0.6992	0.14241	0.93247	-0.473
Mof_O 	O 	0.2416	0.19829	0.96388	-0.959
Mof_O 	O 	0.0739	0.19629	0.99881	-1.023
Mof_O 	O 	0.0334	0.1688	0.96213	-0.507
Mof_O 	O 	0.3349	0.1656	0.87165	-0.444
Mof_O 	O 	0.5418	0.13443	0.87024	-0.49
Mof_O 	O 	0.5288	0.17778	0.89682	-0.447
Mof_O 	O 	0.0214	0.1525	0.86509	-0.444
Mof_O 	O 	0.0487	0.177	0.90521	-0.456
Mof_O 	O 	0.8222	0.17285	0.88436	-0.466
Mof_H 	H 	0.7328	0.2091	0.974	-0.091
Mof_H 	H 	0.1622	0.0031	0.772	-0.054
Mof_H 	H 	0.6266	0.0362	0.8575	-0.086
Mof_H 	H 	0.4761	0.033	0.7516	-0.107
Mof_H 	H 	0.211	0.0821	0.9271	-0.004
Mof_H 	H 	0.0996	0.1417	0.8134	-0.034
Mof_H 	H 	0.7219	0.1033	0.9471	-0.028
Mof_H 	H 	0.0986	0.2154	0.9668	-0.254
Mof_H 	H 	0.4846	0.1724	0.8572	-0.1
Mof_H 	H 	0.9863	0.1933	0.8663	-0.043
Mof_Ga	Ga	0.8768	0.72312	0.47723	4.338
Mof_Zn	Zn	0.66822	0.56752	0.27973	1.229
Mof_Zn	Zn	0.7045	0.63756	0.36666	1.228
Mof_Zn	Zn	0.5478	0.65021	0.43185	1.232
Mof_Zn	Zn	0.0457	0.60321	0.39285	1.235
Mof_Zn	Zn	0.99064	0.5339	0.30565	1.224
Mof_Zn	Zn	0.20235	0.67551	0.41188	1.233
Mof_Zn	Zn	0.35163	0.58529	0.33471	1.152
Mof_P 	P 	0.1607	0.71865	0.45372	0.693
Mof_P 	P 	0.7132	0.50743	0.29463	0.441
Mof_P 	P 	0.0653	0.55788	0.35424	0.5
Mof_P 	P 	0.9399	0.55537	0.2552	0.491
Mof_P 	P 	0.7648	0.60809	0.41633	0.433
Mof_P 	P 	0.6414	0.61322	0.31628	0.449
Mof_P 	P 	0.277	0.61602	0.42808	0.448
Mof_P 	P 	0.5944	0.6952	0.47167	0.902
Mof_P 	P 	0.9854	0.66354	0.37367	0.483
Mof_P 	P 	0.471	0.67506	0.38163	0.462
Mof_O 	O 	0.1737	0.7498	0.45321	-0.962
Mof_O 	O 	0.0156	0.70879	0.45555	-0.933
Mof_O 	O 	0.2312	0.70722	0.43165	-0.47
Mof_O 	O 	0.655	0.53534	0.30158	-0.466
Mof_O 	O 	0.6617	0.48404	0.31019	-0.457
Mof_O 	O 	0.864	0.50691	0.29463	-0.467
Mof_O 	O 	0.0064	0.56863	0.3771	-0.438
Mof_O 	O 	0.9516	0.54978	0.33696	-0.456
Mof_O 	O 	0.1602	0.5776	0.34195	-0.522
Mof_O 	O 	0.9963	0.57362	0.23542	-0.473
Mof_O 	O 	0.7915	0.55633	0.25445	-0.467
Mof_O 	O 	0.9994	0.56181	0.28015	-0.481
Mof_O 	O 	0.7081	0.60769	0.39044	-0.478
Mof_O 	O 	0.9153	0.6055	0.41812	-0.455
Mof_O 	O 	0.7239	0.6331	0.43038	-0.438
Mof_O 	O 	0.7153	0.602	0.29471	-0.442
Mof_O 	O 	0.7432	0.6224	0.33478	-0.433
Mof_O 	O 	0.5426	0.59321	0.32685	-0.528
Mof_O 	O 	0.4256	0.62003	0.42661	-0.468
Mof_O 	O 	0.2256	0.60058	0.40601	-0.465
Mof_O 	O 	0.1992	0.64241	0.43247	-0.466
Mof_O 	O 	0.7416	0.69829	0.46388	-0.952
Mof_O 	O 	0.5739	0.69629	0.49881	-1.022
Mof_O 	O 	0.5334	0.6688	0.46213	-0.516
Mof_O 	O 	0.8349	0.6656	0.37165	-0.445
Mof_O 	O 	0.0418	0.63443	0.37024	-0.466
Mof_O 	O 	0.0288	0.67778	0.39682	-0.424
Mof_O 	O 	0.5214	0.6525	0.36509	-0.466
Mof_O 	O 	0.5487	0.677	0.40521	-0.478
Mof_O 	O 	0.3222	0.67285	0.38436	-0.463
Mof_H 	H 	0.2328	0.7091	0.474	-0.085
Mof_H 	H 	0.6622	0.5031	0.272	-0.061
Mof_H 	H 	0.1266	0.5362	0.3575	-0.083
Mof_H 	H 	0.9761	0.533	0.2516	-0.115
Mof_H 	H 	0.711	0.5821	0.4271	-0.011
Mof_H 	H 	0.5996	0.6417	0.3134	-0.04
Mof_H 	H 	0.2219	0.6033	0.4471	-0.022
Mof_H 	H 	0.5986	0.7154	0.4668	-0.256
Mof_H 	H 	0.9846	0.6724	0.3572	-0.096
Mof_H 	H 	0.4863	0.6933	0.3663	-0.039
Mof_Ga	Ga	0.1232	0.72312	0.97723	4.441
Mof_Zn	Zn	0.33178	0.56752	0.77973	1.229
Mof_Zn	Zn	0.2955	0.63756	0.86666	1.23
Mof_Zn	Zn	0.4522	0.65021	0.93185	1.232
Mof_Zn	Zn	0.9543	0.60321	0.89285	1.227
Mof_Zn	Zn	0.00936	0.5339	0.80565	1.233
Mof_Zn	Zn	0.79765	0.67551	0.91188	1.232
Mof_Zn	Zn	0.64837	0.58529	0.83471	1.151
Mof_P 	P 	0.8393	0.71865	0.95372	0.691
Mof_P 	P 	0.2868	0.50743	0.79463	0.441
Mof_P 	P 	0.9347	0.55788	0.85424	0.47
Mof_P 	P 	0.0601	0.55537	0.7552	0.489
Mof_P 	P 	0.2352	0.60809	0.91633	0.434
Mof_P 	P 	0.3586	0.61322	0.81628	0.448
Mof_P 	P 	0.723	0.61602	0.92808	0.448
Mof_P 	P 	0.4056	0.6952	0.97167	0.906
Mof_P 	P 	0.0146	0.66354	0.87367	0.563
Mof_P 	P 	0.529	0.67506	0.88163	0.462
Mof_O 	O 	0.8263	0.7498	0.95321	-0.957
Mof_O 	O 	0.9844	0.70879	0.95555	-0.977
Mof_O 	O 	0.7688	0.70722	0.93165	-0.474
Mof_O 	O 	0.345	0.53534	0.80158	-0.466
Mof_O 	O 	0.3383	0.48404	0.81019	-0.454
Mof_O 	O 	0.136	0.50691	0.79463	-0.457
Mof_O 	O 	0.9936	0.56863	0.8771	-0.453
Mof_O 	O 	0.0484	0.54978	0.83696	-0.423
Mof_O 	O 	0.8398	0.5776	0.84195	-0.528
Mof_O 	O 	0.0037	0.57362	0.73542	-0.449
Mof_O 	O 	0.2085	0.55633	0.75445	-0.464
Mof_O 	O 	0.0006	0.56181	0.78015	-0.464
Mof_O 	O 	0.2919	0.60769	0.89044	-0.472
Mof_O 	O 	0.0847	0.6055	0.91812	-0.429
Mof_O 	O 	0.2761	0.6331	0.93038	-0.432
Mof_O 	O 	0.2847	0.602	0.79471	-0.438
Mof_O 	O 	0.2568	0.6224	0.83478	-0.424
Mof_O 	O 	0.4574	0.59321	0.82685	-0.528
Mof_O 	O 	0.5744	0.62003	0.92661	-0.469
Mof_O 	O 	0.7744	0.60058	0.90601	-0.47
Mof_O 	O 	0.8008	0.64241	0.93247	-0.474
Mof_O 	O 	0.2584	0.69829	0.96388	-0.961
Mof_O 	O 	0.4261	0.69629	0.99881	-1.025
Mof_O 	O 	0.4666	0.6688	0.96213	-0.516
Mof_O 	O 	0.1651	0.6656	0.87165	-0.445
Mof_O 	O 	0.9582	0.63443	0.87024	-0.507
Mof_O 	O 	0.9712	0.67778	0.89682	-0.467
Mof_O 	O 	0.4786	0.6525	0.86509	-0.466
Mof_O 	O 	0.4513	0.677	0.90521	-0.475
Mof_O 	O 	0.6778	0.67285	0.88436	-0.468
Mof_H 	H 	0.7672	0.7091	0.974	-0.089
Mof_H 	H 	0.3378	0.5031	0.772	-0.061
Mof_H 	H 	0.8734	0.5362	0.8575	-0.086
Mof_H 	H 	0.0239	0.533	0.7516	-0.103
Mof_H 	H 	0.289	0.5821	0.9271	-0.006
Mof_H 	H 	0.4004	0.6417	0.8134	-0.039
Mof_H 	H 	0.7781	0.6033	0.9471	-0.029
Mof_H 	H 	0.4014	0.7154	0.9668	-0.258
Mof_H 	H 	0.0154	0.6724	0.8572	-0.104
Mof_H 	H 	0.5137	0.6933	0.8663	-0.04
Mof_Ga	Ga	0.6232	0.22312	0.47723	4.404
Mof_Zn	Zn	0.83178	0.06752	0.27973	1.226
Mof_Zn	Zn	0.7955	0.13756	0.36666	1.228
Mof_Zn	Zn	0.9522	0.15021	0.43185	1.228
Mof_Zn	Zn	0.4543	0.10321	0.39285	1.231
Mof_Zn	Zn	0.50936	0.0339	0.30565	1.229
Mof_Zn	Zn	0.29765	0.17551	0.41188	1.233
Mof_Zn	Zn	0.14837	0.08529	0.33471	1.156
Mof_P 	P 	0.3393	0.21865	0.45372	0.694
Mof_P 	P 	0.7868	0.00743	0.29463	0.441
Mof_P 	P 	0.4347	0.05788	0.35424	0.483
Mof_P 	P 	0.5601	0.05537	0.2552	0.49
Mof_P 	P 	0.7352	0.10809	0.41633	0.432
Mof_P 	P 	0.8586	0.11322	0.31628	0.447
Mof_P 	P 	0.223	0.11602	0.42808	0.449
Mof_P 	P 	0.9056	0.1952	0.47167	0.901
Mof_P 	P 	0.5146	0.16354	0.37367	0.527
Mof_P 	P 	0.029	0.17506	0.38163	0.494
Mof_O 	O 	0.3263	0.2498	0.45321	-0.96
Mof_O 	O 	0.4844	0.20879	0.45555	-0.957
Mof_O 	O 	0.2688	0.20722	0.43165	-0.468
Mof_O 	O 	0.845	0.03534	0.30158	-0.471
Mof_O 	O 	0.8383	0.98404	0.31019	-0.462
Mof_O 	O 	0.636	0.00691	0.29463	-0.461
Mof_O 	O 	0.4936	0.06863	0.3771	-0.446
Mof_O 	O 	0.5484	0.04978	0.33696	-0.437
Mof_O 	O 	0.3398	0.0776	0.34195	-0.523
Mof_O 	O 	0.5037	0.07362	0.23542	-0.459
Mof_O 	O 	0.7085	0.05633	0.25445	-0.469
Mof_O 	O 	0.5006	0.06181	0.28015	-0.471
Mof_O 	O 	0.7919	0.10769	0.39044	-0.478
Mof_O 	O 	0.5847	0.1055	0.41812	-0.441
Mof_O 	O 	0.7761	0.1331	0.43038	-0.437
Mof_O 	O 	0.7847	0.102	0.29471	-0.443
Mof_O 	O 	0.7568	0.1224	0.33478	-0.429
Mof_O 	O 	0.9574	0.09321	0.32685	-0.536
Mof_O 	O 	0.0744	0.12003	0.42661	-0.456
Mof_O 	O 	0.2744	0.10058	0.40601	-0.465
Mof_O 	O 	0.3008	0.14241	0.43247	-0.468
Mof_O 	O 	0.7584	0.19829	0.46388	-0.958
Mof_O 	O 	0.9261	0.19629	0.49881	-1.021
Mof_O 	O 	0.9666	0.1688	0.46213	-0.524
Mof_O 	O 	0.6651	0.1656	0.37165	-0.447
Mof_O 	O 	0.4582	0.13443	0.37024	-0.487
Mof_O 	O 	0.4712	0.17778	0.39682	-0.447
Mof_O 	O 	0.9786	0.1525	0.36509	-0.485
Mof_O 	O 	0.9513	0.177	0.40521	-0.495
Mof_O 	O 	0.1778	0.17285	0.38436	-0.466
Mof_H 	H 	0.2672	0.2091	0.474	-0.084
Mof_H 	H 	0.8378	0.0031	0.272	-0.066
Mof_H 	H 	0.3734	0.0362	0.3575	-0.083
Mof_H 	H 	0.5239	0.033	0.2516	-0.108
Mof_H 	H 	0.789	0.0821	0.4271	-0.012
Mof_H 	H 	0.9004	0.1417	0.3134	-0.043
Mof_H 	H 	0.2781	0.1033	0.4471	-0.023
Mof_H 	H 	0.9014	0.2154	0.4668	-0.26
Mof_H 	H 	0.5154	0.1724	0.3572	-0.1
Mof_H 	H 	0.0137	0.1933	0.3663	-0.037
Mof_Ga	Ga	0.3768	0.27688	0.47723	4.406
Mof_Zn	Zn	0.16822	0.43248	0.27973	1.234
Mof_Zn	Zn	0.2045	0.36244	0.36666	1.229
Mof_Zn	Zn	0.0478	0.34979	0.43185	1.236
Mof_Zn	Zn	0.5457	0.39679	0.39285	1.23
Mof_Zn	Zn	0.49064	0.4661	0.30565	1.229
Mof_Zn	Zn	0.70235	0.32449	0.41188	1.231
Mof_Zn	Zn	0.85163	0.41471	0.33471	1.145
Mof_P 	P 	0.6607	0.28135	0.45372	0.693
Mof_P 	P 	0.2132	0.49257	0.29463	0.441
Mof_P 	P 	0.5653	0.44212	0.35424	0.483
Mof_P 	P 	0.4399	0.44463	0.2552	0.489
Mof_P 	P 	0.2648	0.39191	0.41633	0.435
Mof_P 	P 	0.1414	0.38678	0.31628	0.45
Mof_P 	P 	0.777	0.38398	0.42808	0.448
Mof_P 	P 	0.0944	0.3048	0.47167	0.907
Mof_P 	P 	0.4854	0.33646	0.37367	0.526
Mof_P 	P 	0.971	0.32494	0.38163	0.426
Mof_O 	O 	0.6737	0.2502	0.45321	-0.964
Mof_O 	O 	0.5156	0.29121	0.45555	-0.957
Mof_O 	O 	0.7312	0.29278	0.43165	-0.477
Mof_O 	O 	0.155	0.46466	0.30158	-0.459
Mof_O 	O 	0.1617	0.51596	0.31019	-0.445
Mof_O 	O 	0.364	0.49309	0.29463	-0.461
Mof_O 	O 	0.5064	0.43137	0.3771	-0.447
Mof_O 	O 	0.4516	0.45022	0.33696	-0.436
Mof_O 	O 	0.6602	0.4224	0.34195	-0.529
Mof_O 	O 	0.4963	0.42638	0.23542	-0.457
Mof_O 	O 	0.2915	0.44367	0.25445	-0.46
Mof_O 	O 	0.4994	0.43819	0.28015	-0.471
Mof_O 	O 	0.2081	0.39231	0.39044	-0.471
Mof_O 	O 	0.4153	0.3945	0.41812	-0.441
Mof_O 	O 	0.2239	0.3669	0.43038	-0.432
Mof_O 	O 	0.2153	0.398	0.29471	-0.436
Mof_O 	O 	0.2432	0.3776	0.33478	-0.427
Mof_O 	O 	0.0426	0.40679	0.32685	-0.517
Mof_O 	O 	0.9256	0.37997	0.42661	-0.482
Mof_O 	O 	0.7256	0.39942	0.40601	-0.471
Mof_O 	O 	0.6992	0.35759	0.43247	-0.473
Mof_O 	O 	0.2416	0.30171	0.46388	-0.959
Mof_O 	O 	0.0739	0.30371	0.49881	-1.022
Mof_O 	O 	0.0334	0.3312	0.46213	-0.507
Mof_O 	O 	0.3349	0.3344	0.37165	-0.444
Mof_O 	O 	0.5418	0.36557	0.37024	-0.49
Mof_O 	O 	0.5288	0.32222	0.39682	-0.447
Mof_O 	O 	0.0214	0.3475	0.36509	-0.444
Mof_O 	O 	0.0487	0.323	0.40521	-0.456
Mof_O 	O 	0.8222	0.32715	0.38436	-0.466
Mof_H 	H 	0.7328	0.2909	0.474	-0.091
Mof_H 	H 	0.1622	0.4969	0.272	-0.054
Mof_H 	H 	0.6266	0.4638	0.3575	-0.086
Mof_H 	H 	0.4761	0.467	0.2516	-0.107
Mof_H 	H 	0.211	0.4179	0.4271	-0.004
Mof_H 	H 	0.0996	0.3583	0.3134	-0.034
Mof_H 	H 	0.7219	0.3967	0.4471	-0.028
Mof_H 	H 	0.0986	0.2846	0.4668	-0.254
Mof_H 	H 	0.4846	0.3276	0.3572	-0.1
Mof_H 	H 	0.9863	0.3067	0.3663	-0.043
Mof_Ga	Ga	0.8768	0.77688	0.97723	4.336
Mof_Zn	Zn	0.66822	0.93248	0.77973	1.229
Mof_Zn	Zn	0.7045	0.86244	0.86666	1.228
Mof_Zn	Zn	0.5478	0.84979	0.93185	1.232
Mof_Zn	Zn	0.0457	0.89679	0.89285	1.235
Mof_Zn	Zn	0.99064	0.9661	0.80565	1.224
Mof_Zn	Zn	0.20235	0.82449	0.91188	1.233
Mof_Zn	Zn	0.35163	0.91471	0.83471	1.152
Mof_P 	P 	0.1607	0.78135	0.95372	0.693
Mof_P 	P 	0.7132	0.99257	0.79463	0.441
Mof_P 	P 	0.0653	0.94212	0.85424	0.5
Mof_P 	P 	0.9399	0.94463	0.7552	0.491
Mof_P 	P 	0.7648	0.89191	0.91633	0.433
Mof_P 	P 	0.6414	0.88678	0.81628	0.449
Mof_P 	P 	0.277	0.88398	0.92808	0.448
Mof_P 	P 	0.5944	0.8048	0.97167	0.902
Mof_P 	P 	0.9854	0.83646	0.87367	0.483
Mof_P 	P 	0.471	0.82494	0.88163	0.462
Mof_O 	O 	0.1737	0.7502	0.95321	-0.962
Mof_O 	O 	0.0156	0.79121	0.95555	-0.933
Mof_O 	O 	0.2312	0.79278	0.93165	-0.47
Mof_O 	O 	0.655	0.96466	0.80158	-0.466
Mof_O 	O 	0.6617	0.01596	0.81019	-0.457
Mof_O 	O 	0.864	0.99309	0.79463	-0.467
Mof_O 	O 	0.0064	0.93137	0.8771	-0.438
Mof_O 	O 	0.9516	0.95022	0.83696	-0.456
Mof_O 	O 	0.1602	0.9224	0.84195	-0.522
Mof_O 	O 	0.9963	0.92638	0.73542	-0.473
Mof_O 	O 	0.7915	0.94367	0.75445	-0.467
Mof_O 	O 	0.9994	0.93819	0.78015	-0.481
Mof_O 	O 	0.7081	0.89231	0.89044	-0.478
Mof_O 	O 	0.9153	0.8945	0.91812	-0.455
Mof_O 	O 	0.7239	0.8669	0.93038	-0.438
Mof_O 	O 	0.7153	0.898	0.79471	-0.442
Mof_O 	O 	0.7432	0.8776	0.83478	-0.433
Mof_O 	O 	0.5426	0.90679	0.82685	-0.528
Mof_O 	O 	0.4256	0.87997	0.92661	-0.468
Mof_O 	O 	0.2256	0.89942	0.90601	-0.465
Mof_O 	O 	0.1992	0.85759	0.93247	-0.466
Mof_O 	O 	0.7416	0.80171	0.96388	-0.952
Mof_O 	O 	0.5739	0.80371	0.99881	-1.022
Mof_O 	O 	0.5334	0.8312	0.96213	-0.516
Mof_O 	O 	0.8349	0.8344	0.87165	-0.445
Mof_O 	O 	0.0418	0.86557	0.87024	-0.466
Mof_O 	O 	0.0288	0.82222	0.89682	-0.424
Mof_O 	O 	0.5214	0.8475	0.86509	-0.466
Mof_O 	O 	0.5487	0.823	0.90521	-0.477
Mof_O 	O 	0.3222	0.82715	0.88436	-0.463
Mof_H 	H 	0.2328	0.7909	0.974	-0.085
Mof_H 	H 	0.6622	0.9969	0.772	-0.061
Mof_H 	H 	0.1266	0.9638	0.8575	-0.083
Mof_H 	H 	0.9761	0.967	0.7516	-0.115
Mof_H 	H 	0.711	0.9179	0.9271	-0.011
Mof_H 	H 	0.5996	0.8583	0.8134	-0.04
Mof_H 	H 	0.2219	0.8967	0.9471	-0.022
Mof_H 	H 	0.5986	0.7846	0.9668	-0.256
Mof_H 	H 	0.9846	0.8276	0.8572	-0.096
Mof_H 	H 	0.4863	0.8067	0.8663	-0.039
Mof_Ga	Ga	0.8768	0.22312	0.52277	4.338
Mof_Zn	Zn	0.66822	0.06752	0.72027	1.229
Mof_Zn	Zn	0.7045	0.13756	0.63334	1.228
Mof_Zn	Zn	0.5478	0.15021	0.56815	1.232
Mof_Zn	Zn	0.0457	0.10321	0.60715	1.235
Mof_Zn	Zn	0.99064	0.0339	0.69435	1.224
Mof_Zn	Zn	0.20235	0.17551	0.58812	1.233
Mof_Zn	Zn	0.35163	0.08529	0.66529	1.152
Mof_P 	P 	0.1607	0.21865	0.54628	0.693
Mof_P 	P 	0.7132	0.00743	0.70537	0.441
Mof_P 	P 	0.0653	0.05788	0.64576	0.5
Mof_P 	P 	0.9399	0.05537	0.7448	0.491
Mof_P 	P 	0.7648	0.10809	0.58367	0.433
Mof_P 	P 	0.6414	0.11322	0.68372	0.449
Mof_P 	P 	0.277	0.11602	0.57192	0.448
Mof_P 	P 	0.5944	0.1952	0.52833	0.902
Mof_P 	P 	0.9854	0.16354	0.62633	0.483
Mof_P 	P 	0.471	0.17506	0.61837	0.462
Mof_O 	O 	0.1737	0.2498	0.54679	-0.962
Mof_O 	O 	0.0156	0.20879	0.54445	-0.933
Mof_O 	O 	0.2312	0.20722	0.56835	-0.47
Mof_O 	O 	0.655	0.03534	0.69842	-0.466
Mof_O 	O 	0.6617	0.98404	0.68981	-0.457
Mof_O 	O 	0.864	0.00691	0.70537	-0.467
Mof_O 	O 	0.0064	0.06863	0.6229	-0.438
Mof_O 	O 	0.9516	0.04978	0.66304	-0.456
Mof_O 	O 	0.1602	0.0776	0.65805	-0.522
Mof_O 	O 	0.9963	0.07362	0.76458	-0.473
Mof_O 	O 	0.7915	0.05633	0.74555	-0.467
Mof_O 	O 	0.9994	0.06181	0.71985	-0.481
Mof_O 	O 	0.7081	0.10769	0.60956	-0.478
Mof_O 	O 	0.9153	0.1055	0.58188	-0.455
Mof_O 	O 	0.7239	0.1331	0.56962	-0.438
Mof_O 	O 	0.7153	0.102	0.70529	-0.442
Mof_O 	O 	0.7432	0.1224	0.66522	-0.433
Mof_O 	O 	0.5426	0.09321	0.67315	-0.528
Mof_O 	O 	0.4256	0.12003	0.57339	-0.468
Mof_O 	O 	0.2256	0.10058	0.59399	-0.465
Mof_O 	O 	0.1992	0.14241	0.56753	-0.466
Mof_O 	O 	0.7416	0.19829	0.53612	-0.952
Mof_O 	O 	0.5739	0.19629	0.50119	-1.022
Mof_O 	O 	0.5334	0.1688	0.53787	-0.516
Mof_O 	O 	0.8349	0.1656	0.62835	-0.445
Mof_O 	O 	0.0418	0.13443	0.62976	-0.466
Mof_O 	O 	0.0288	0.17778	0.60318	-0.424
Mof_O 	O 	0.5214	0.1525	0.63491	-0.466
Mof_O 	O 	0.5487	0.177	0.59479	-0.478
Mof_O 	O 	0.3222	0.17285	0.61564	-0.463
Mof_H 	H 	0.2328	0.2091	0.526	-0.085
Mof_H 	H 	0.6622	0.0031	0.728	-0.061
Mof_H 	H 	0.1266	0.0362	0.6425	-0.083
Mof_H 	H 	0.9761	0.033	0.7484	-0.115
Mof_H 	H 	0.711	0.0821	0.5729	-0.011
Mof_H 	H 	0.5996	0.1417	0.6866	-0.04
Mof_H 	H 	0.2219	0.1033	0.5529	-0.022
Mof_H 	H 	0.5986	0.2154	0.5332	-0.256
Mof_H 	H 	0.9846	0.1724	0.6428	-0.096
Mof_H 	H 	0.4863	0.1933	0.6337	-0.039
Mof_Ga	Ga	0.3768	0.72312	0.02277	4.407
Mof_Zn	Zn	0.16822	0.56752	0.22027	1.234
Mof_Zn	Zn	0.2045	0.63756	0.13334	1.229
Mof_Zn	Zn	0.0478	0.65021	0.06815	1.236
Mof_Zn	Zn	0.5457	0.60321	0.10715	1.23
Mof_Zn	Zn	0.49064	0.5339	0.19435	1.229
Mof_Zn	Zn	0.70235	0.67551	0.08812	1.231
Mof_Zn	Zn	0.85163	0.58529	0.16529	1.145
Mof_P 	P 	0.6607	0.71865	0.04628	0.693
Mof_P 	P 	0.2132	0.50743	0.20537	0.441
Mof_P 	P 	0.5653	0.55788	0.14576	0.483
Mof_P 	P 	0.4399	0.55537	0.2448	0.489
Mof_P 	P 	0.2648	0.60809	0.08367	0.435
Mof_P 	P 	0.1414	0.61322	0.18372	0.45
Mof_P 	P 	0.777	0.61602	0.07192	0.448
Mof_P 	P 	0.0944	0.6952	0.02833	0.907
Mof_P 	P 	0.4854	0.66354	0.12633	0.526
Mof_P 	P 	0.971	0.67506	0.11837	0.426
Mof_O 	O 	0.6737	0.7498	0.04679	-0.964
Mof_O 	O 	0.5156	0.70879	0.04445	-0.957
Mof_O 	O 	0.7312	0.70722	0.06835	-0.477
Mof_O 	O 	0.155	0.53534	0.19842	-0.459
Mof_O 	O 	0.1617	0.48404	0.18981	-0.445
Mof_O 	O 	0.364	0.50691	0.20537	-0.461
Mof_O 	O 	0.5064	0.56863	0.1229	-0.447
Mof_O 	O 	0.4516	0.54978	0.16304	-0.436
Mof_O 	O 	0.6602	0.5776	0.15805	-0.529
Mof_O 	O 	0.4963	0.57362	0.26458	-0.457
Mof_O 	O 	0.2915	0.55633	0.24555	-0.46
Mof_O 	O 	0.4994	0.56181	0.21985	-0.471
Mof_O 	O 	0.2081	0.60769	0.10956	-0.471
Mof_O 	O 	0.4153	0.6055	0.08188	-0.441
Mof_O 	O 	0.2239	0.6331	0.06962	-0.432
Mof_O 	O 	0.2153	0.602	0.20529	-0.436
Mof_O 	O 	0.2432	0.6224	0.16522	-0.427
Mof_O 	O 	0.0426	0.59321	0.17315	-0.517
Mof_O 	O 	0.9256	0.62003	0.07339	-0.482
Mof_O 	O 	0.7256	0.60058	0.09399	-0.471
Mof_O 	O 	0.6992	0.64241	0.06753	-0.473
Mof_O 	O 	0.2416	0.69829	0.03612	-0.959
Mof_O 	O 	0.0739	0.69629	0.00119	-1.022
Mof_O 	O 	0.0334	0.6688	0.03787	-0.507
Mof_O 	O 	0.3349	0.6656	0.12835	-0.444
Mof_O 	O 	0.5418	0.63443	0.12976	-0.49
Mof_O 	O 	0.5288	0.67778	0.10318	-0.447
Mof_O 	O 	0.0214	0.6525	0.13491	-0.444
Mof_O 	O 	0.0487	0.677	0.09479	-0.456
Mof_O 	O 	0.8222	0.67285	0.11564	-0.466
Mof_H 	H 	0.7328	0.7091	0.026	-0.091
Mof_H 	H 	0.1622	0.5031	0.228	-0.054
Mof_H 	H 	0.6266	0.5362	0.1425	-0.086
Mof_H 	H 	0.4761	0.533	0.2484	-0.107
Mof_H 	H 	0.211	0.5821	0.0729	-0.004
Mof_H 	H 	0.0996	0.6417	0.1866	-0.034
Mof_H 	H 	0.7219	0.6033	0.0529	-0.028
Mof_H 	H 	0.0986	0.7154	0.0332	-0.254
Mof_H 	H 	0.4846	0.6724	0.1428	-0.1
Mof_H 	H 	0.9863	0.6933	0.1337	-0.043
Mof_Ga	Ga	0.6232	0.77688	0.02277	4.405
Mof_Zn	Zn	0.83178	0.93248	0.22027	1.226
Mof_Zn	Zn	0.7955	0.86244	0.13334	1.228
Mof_Zn	Zn	0.9522	0.84979	0.06815	1.228
Mof_Zn	Zn	0.4543	0.89679	0.10715	1.231
Mof_Zn	Zn	0.50936	0.9661	0.19435	1.229
Mof_Zn	Zn	0.29765	0.82449	0.08812	1.233
Mof_Zn	Zn	0.14837	0.91471	0.16529	1.156
Mof_P 	P 	0.3393	0.78135	0.04628	0.694
Mof_P 	P 	0.7868	0.99257	0.20537	0.441
Mof_P 	P 	0.4347	0.94212	0.14576	0.483
Mof_P 	P 	0.5601	0.94463	0.2448	0.49
Mof_P 	P 	0.7352	0.89191	0.08367	0.432
Mof_P 	P 	0.8586	0.88678	0.18372	0.447
Mof_P 	P 	0.223	0.88398	0.07192	0.449
Mof_P 	P 	0.9056	0.8048	0.02833	0.9
Mof_P 	P 	0.5146	0.83646	0.12633	0.527
Mof_P 	P 	0.029	0.82494	0.11837	0.494
Mof_O 	O 	0.3263	0.7502	0.04679	-0.96
Mof_O 	O 	0.4844	0.79121	0.04445	-0.957
Mof_O 	O 	0.2688	0.79278	0.06835	-0.468
Mof_O 	O 	0.845	0.96466	0.19842	-0.471
Mof_O 	O 	0.8383	0.01596	0.18981	-0.462
Mof_O 	O 	0.636	0.99309	0.20537	-0.461
Mof_O 	O 	0.4936	0.93137	0.1229	-0.446
Mof_O 	O 	0.5484	0.95022	0.16304	-0.437
Mof_O 	O 	0.3398	0.9224	0.15805	-0.523
Mof_O 	O 	0.5037	0.92638	0.26458	-0.459
Mof_O 	O 	0.7085	0.94367	0.24555	-0.469
Mof_O 	O 	0.5006	0.93819	0.21985	-0.471
Mof_O 	O 	0.7919	0.89231	0.10956	-0.478
Mof_O 	O 	0.5847	0.8945	0.08188	-0.441
Mof_O 	O 	0.7761	0.8669	0.06962	-0.437
Mof_O 	O 	0.7847	0.898	0.20529	-0.443
Mof_O 	O 	0.7568	0.8776	0.16522	-0.429
Mof_O 	O 	0.9574	0.90679	0.17315	-0.536
Mof_O 	O 	0.0744	0.87997	0.07339	-0.456
Mof_O 	O 	0.2744	0.89942	0.09399	-0.464
Mof_O 	O 	0.3008	0.85759	0.06753	-0.468
Mof_O 	O 	0.7584	0.80171	0.03612	-0.958
Mof_O 	O 	0.9261	0.80371	0.00119	-1.021
Mof_O 	O 	0.9666	0.8312	0.03787	-0.524
Mof_O 	O 	0.6651	0.8344	0.12835	-0.447
Mof_O 	O 	0.4582	0.86557	0.12976	-0.487
Mof_O 	O 	0.4712	0.82222	0.10318	-0.447
Mof_O 	O 	0.9786	0.8475	0.13491	-0.485
Mof_O 	O 	0.9513	0.823	0.09479	-0.495
Mof_O 	O 	0.1778	0.82715	0.11564	-0.466
Mof_H 	H 	0.2672	0.7909	0.026	-0.083
Mof_H 	H 	0.8378	0.9969	0.228	-0.066
Mof_H 	H 	0.3734	0.9638	0.1425	-0.083
Mof_H 	H 	0.5239	0.967	0.2484	-0.108
Mof_H 	H 	0.789	0.9179	0.0729	-0.012
Mof_H 	H 	0.9004	0.8583	0.1866	-0.043
Mof_H 	H 	0.2781	0.8967	0.0529	-0.023
Mof_H 	H 	0.9014	0.7846	0.0332	-0.26
Mof_H 	H 	0.5154	0.8276	0.1428	-0.1
Mof_H 	H 	0.0137	0.8067	0.1337	-0.037
Mof_Ga	Ga	0.1232	0.27688	0.52277	4.443
Mof_Zn	Zn	0.33178	0.43248	0.72027	1.229
Mof_Zn	Zn	0.2955	0.36244	0.63334	1.23
Mof_Zn	Zn	0.4522	0.34979	0.56815	1.232
Mof_Zn	Zn	0.9543	0.39679	0.60715	1.227
Mof_Zn	Zn	0.00936	0.4661	0.69435	1.233
Mof_Zn	Zn	0.79765	0.32449	0.58812	1.232
Mof_Zn	Zn	0.64837	0.41471	0.66529	1.151
Mof_P 	P 	0.8393	0.28135	0.54628	0.692
Mof_P 	P 	0.2868	0.49257	0.70537	0.441
Mof_P 	P 	0.9347	0.44212	0.64576	0.47
Mof_P 	P 	0.0601	0.44463	0.7448	0.489
Mof_P 	P 	0.2352	0.39191	0.58367	0.434
Mof_P 	P 	0.3586	0.38678	0.68372	0.448
Mof_P 	P 	0.723	0.38398	0.57192	0.448
Mof_P 	P 	0.4056	0.3048	0.52833	0.906
Mof_P 	P 	0.0146	0.33646	0.62633	0.563
Mof_P 	P 	0.529	0.32494	0.61837	0.462
Mof_O 	O 	0.8263	0.2502	0.54679	-0.958
Mof_O 	O 	0.9844	0.29121	0.54445	-0.977
Mof_O 	O 	0.7688	0.29278	0.56835	-0.474
Mof_O 	O 	0.345	0.46466	0.69842	-0.466
Mof_O 	O 	0.3383	0.51596	0.68981	-0.454
Mof_O 	O 	0.136	0.49309	0.70537	-0.457
Mof_O 	O 	0.9936	0.43137	0.6229	-0.453
Mof_O 	O 	0.0484	0.45022	0.66304	-0.423
Mof_O 	O 	0.8398	0.4224	0.65805	-0.528
Mof_O 	O 	0.0037	0.42638	0.76458	-0.449
Mof_O 	O 	0.2085	0.44367	0.74555	-0.464
Mof_O 	O 	0.0006	0.43819	0.71985	-0.464
Mof_O 	O 	0.2919	0.39231	0.60956	-0.472
Mof_O 	O 	0.0847	0.3945	0.58188	-0.429
Mof_O 	O 	0.2761	0.3669	0.56962	-0.432
Mof_O 	O 	0.2847	0.398	0.70529	-0.438
Mof_O 	O 	0.2568	0.3776	0.66522	-0.424
Mof_O 	O 	0.4574	0.40679	0.67315	-0.528
Mof_O 	O 	0.5744	0.37997	0.57339	-0.469
Mof_O 	O 	0.7744	0.39942	0.59399	-0.47
Mof_O 	O 	0.8008	0.35759	0.56753	-0.474
Mof_O 	O 	0.2584	0.30171	0.53612	-0.961
Mof_O 	O 	0.4261	0.30371	0.50119	-1.024
Mof_O 	O 	0.4666	0.3312	0.53787	-0.516
Mof_O 	O 	0.1651	0.3344	0.62835	-0.445
Mof_O 	O 	0.9582	0.36557	0.62976	-0.507
Mof_O 	O 	0.9712	0.32222	0.60318	-0.467
Mof_O 	O 	0.4786	0.3475	0.63491	-0.466
Mof_O 	O 	0.4513	0.323	0.59479	-0.475
Mof_O 	O 	0.6778	0.32715	0.61564	-0.468
Mof_H 	H 	0.7672	0.2909	0.526	-0.089
Mof_H 	H 	0.3378	0.4969	0.728	-0.061
Mof_H 	H 	0.8734	0.4638	0.6425	-0.086
Mof_H 	H 	0.0239	0.467	0.7484	-0.103
Mof_H 	H 	0.289	0.4179	0.5729	-0.006
Mof_H 	H 	0.4004	0.3583	0.6866	-0.039
Mof_H 	H 	0.7781	0.3967	0.5529	-0.029
Mof_H 	H 	0.4014	0.2846	0.5332	-0.258
Mof_H 	H 	0.0154	0.3276	0.6428	-0.104
Mof_H 	H 	0.5137	0.3067	0.6337	-0.04
Mof_F 	F 	0.75	0.26105	-0	-1.441
Mof_F 	F 	0.75	0.73895	0.5	-1.441
Mof_F 	F 	0.25	0.76105	0.5	-1.451
Mof_F 	F 	0.25	0.23895	-0	-1.45
Mof_F 	F 	0.25	0.73895	-0	-1.45
Mof_F 	F 	0.25	0.26105	0.5	-1.451
Mof_F 	F 	0.75	0.23895	0.5	-1.441
Mof_F 	F 	0.75	0.76105	-0	-1.441
Mof_F 	F 	-1.07548e-32	0.25	0.00884	-1.421
Mof_F 	F 	0.5	0.75	0.50884	-1.437
Mof_F 	F 	1.0136e-32	0.75	0.49116	-1.421
Mof_F 	F 	0.5	0.25	0.99116	-1.437
Mof_F 	F 	8.13224e-32	0.75	0.99116	-1.421
Mof_F 	F 	0.5	0.25	0.49116	-1.437
Mof_F 	F 	1.05009e-32	0.25	0.50884	-1.421
Mof_F 	F 	0.5	0.75	0.00884	-1.437
_end
