data_functionalizedCrystal
_audit_creation_method	'EQeq! by Chris Wilmer'
_symmetry_space_group_name_H-M	'P1'
_symmetry_Int_Tables_number	1
_symmetry_cell_setting	triclinic
loop_
_symmetry_equiv_pos_as_xyz
  x,y,z
_cell_length_a	10.3483
_cell_length_b	12.5746
_cell_length_c	45.802
_cell_angle_alpha	90
_cell_angle_beta	90
_cell_angle_gamma	90
loop_
_atom_site_label
_atom_site_type_symbol
_atom_site_fract_x
_atom_site_fract_y
_atom_site_fract_z
_atom_site_charge
Mof_N 	N 	0.3682	0.4702	0.21414	-0.192
Mof_C 	C 	0.2377	0.4729	0.2179	0.028
Mof_H 	H 	0.2037	0.4836	0.2369	-0.014
Mof_N 	N 	0.4708	0.4003	0.03105	-0.195
Mof_C 	C 	0.1492	0.4601	0.1936	-0.079
Mof_H 	H 	0.0583	0.46	0.1965	0.037
Mof_Ag	Ag	0.33144	0.38314	0.99601	0.431
Mof_N 	N 	0.6563	0.2575	0.21888	-0.189
Mof_C 	C 	0.2	0.4482	0.1667	-0.033
Mof_H 	H 	0.1448	0.4396	0.1503	0.035
Mof_N 	N 	0.6795	0.1167	0.03724	-0.188
Mof_C 	C 	0.3347	0.4486	0.16298	-0.01
Mof_C 	C 	0.4129	0.4586	0.1871	0.01
Mof_H 	H 	0.5039	0.4571	0.1843	0.007
Mof_C 	C 	0.3943	0.4397	0.134	-0.019
Mof_C 	C 	0.4436	0.4344	0.1112	-0.019
Mof_C 	C 	0.5029	0.4265	0.0826	-0.009
Mof_C 	C 	0.4236	0.4138	0.0584	0.002
Mof_H 	H 	0.3326	0.4147	0.0611	0.004
Mof_C 	C 	0.6364	0.4243	0.0785	-0.027
Mof_H 	H 	0.6939	0.4324	0.0945	0.038
Mof_C 	C 	0.6828	0.4099	0.0502	-0.1
Mof_H 	H 	0.7731	0.4079	0.0466	0.049
Mof_C 	C 	0.6003	0.3989	0.0285	0.055
Mof_H 	H 	0.6351	0.3893	0.0095	-0.019
Mof_C 	C 	0.7797	0.2651	0.2271	0.029
Mof_H 	H 	0.7984	0.2806	0.2469	-0.009
Mof_C 	C 	0.8849	0.251	0.2072	-0.078
Mof_H 	H 	0.9717	0.2536	0.2139	0.042
Mof_C 	C 	0.8588	0.234	0.1789	-0.035
Mof_H 	H 	0.9273	0.2292	0.1652	0.043
Mof_C 	C 	0.7308	0.2234	0.1697	0.001
Mof_C 	C 	0.632	0.2362	0.1902	0.001
Mof_H 	H 	0.5449	0.2299	0.1839	0.011
Mof_C 	C 	0.696	0.201	0.1411	-0.018
Mof_C 	C 	0.6605	0.1771	0.1158	-0.017
Mof_C 	C 	0.6201	0.1538	0.0872	-0.003
Mof_C 	C 	0.7142	0.1378	0.0654	0.003
Mof_H 	H 	0.8032	0.1419	0.0703	0.014
Mof_C 	C 	0.4897	0.1466	0.0789	-0.03
Mof_H 	H 	0.4236	0.1585	0.093	0.036
Mof_C 	C 	0.4574	0.1225	0.0506	-0.089
Mof_H 	H 	0.3697	0.1127	0.0451	0.041
Mof_C 	C 	0.5552	0.1127	0.0303	0.043
Mof_H 	H 	0.5324	0.1028	0.0103	-0.019
Mof_N 	N 	0.8682	0.9702	0.21414	-0.19
Mof_C 	C 	0.7377	0.9729	0.2179	0.032
Mof_H 	H 	0.7037	0.9836	0.2369	-0.01
Mof_N 	N 	0.9708	0.9003	0.03105	-0.192
Mof_C 	C 	0.6492	0.9601	0.1936	-0.081
Mof_H 	H 	0.5583	0.96	0.1965	0.043
Mof_Ag	Ag	0.83144	0.88314	0.99601	0.443
Mof_N 	N 	0.1563	0.7575	0.21888	-0.188
Mof_C 	C 	0.7	0.9482	0.1667	-0.029
Mof_H 	H 	0.6448	0.9396	0.1503	0.038
Mof_N 	N 	0.1795	0.6167	0.03724	-0.185
Mof_C 	C 	0.8347	0.9486	0.16298	-0.014
Mof_C 	C 	0.9129	0.9586	0.1871	0.046
Mof_H 	H 	0.0039	0.9571	0.1843	-0.017
Mof_C 	C 	0.8943	0.9397	0.134	-0.028
Mof_C 	C 	0.9436	0.9344	0.1112	0.02
Mof_C 	C 	0.0029	0.9265	0.0826	-0.067
Mof_C 	C 	0.9236	0.9138	0.0584	0.045
Mof_H 	H 	0.8326	0.9147	0.0611	-0.008
Mof_C 	C 	0.1364	0.9243	0.0785	-0.005
Mof_H 	H 	0.1939	0.9324	0.0945	0.027
Mof_C 	C 	0.1828	0.9099	0.0502	-0.109
Mof_H 	H 	0.2731	0.9079	0.0466	0.049
Mof_C 	C 	0.1003	0.8989	0.0285	0.042
Mof_H 	H 	0.1351	0.8893	0.0095	-0.019
Mof_C 	C 	0.2797	0.7651	0.2271	0.026
Mof_H 	H 	0.2984	0.7806	0.2469	-0.011
Mof_C 	C 	0.3849	0.751	0.2072	-0.078
Mof_H 	H 	0.4717	0.7536	0.2139	0.035
Mof_C 	C 	0.3588	0.734	0.1789	-0.038
Mof_H 	H 	0.4273	0.7292	0.1652	0.039
Mof_C 	C 	0.2308	0.7234	0.1697	0.002
Mof_C 	C 	0.132	0.7362	0.1902	-0.001
Mof_H 	H 	0.0449	0.7299	0.1839	0.008
Mof_C 	C 	0.196	0.701	0.1411	-0.025
Mof_C 	C 	0.1605	0.6771	0.1158	-0.014
Mof_C 	C 	0.1201	0.6538	0.0872	-0.025
Mof_C 	C 	0.2142	0.6378	0.0654	0.007
Mof_H 	H 	0.3032	0.6419	0.0703	0.011
Mof_C 	C 	0.9897	0.6466	0.0789	-0.01
Mof_H 	H 	0.9236	0.6585	0.093	0.035
Mof_C 	C 	0.9574	0.6225	0.0506	-0.066
Mof_H 	H 	0.8697	0.6127	0.0451	0.037
Mof_C 	C 	0.0552	0.6127	0.0303	0.015
Mof_H 	H 	0.0324	0.6028	0.0103	-0.016
Mof_N 	N 	0.6318	0.5298	0.71414	-0.192
Mof_C 	C 	0.7623	0.5271	0.7179	0.031
Mof_H 	H 	0.7963	0.5164	0.7369	-0.009
Mof_N 	N 	0.5292	0.5997	0.53105	-0.195
Mof_C 	C 	0.8508	0.5399	0.6936	-0.077
Mof_H 	H 	0.9417	0.54	0.6965	0.048
Mof_Ag	Ag	0.66856	0.61686	0.49601	0.436
Mof_N 	N 	0.3437	0.7425	0.71888	-0.189
Mof_C 	C 	0.8	0.5518	0.6667	-0.031
Mof_H 	H 	0.8552	0.5604	0.6503	0.042
Mof_N 	N 	0.3205	0.8833	0.53724	-0.187
Mof_C 	C 	0.6653	0.5514	0.66298	-0.009
Mof_C 	C 	0.5871	0.5414	0.6871	0.011
Mof_H 	H 	0.4961	0.5429	0.6843	0.005
Mof_C 	C 	0.6057	0.5603	0.634	-0.018
Mof_C 	C 	0.5564	0.5656	0.6112	-0.019
Mof_C 	C 	0.4971	0.5735	0.5826	-0.009
Mof_C 	C 	0.5764	0.5862	0.5584	0.001
Mof_H 	H 	0.6674	0.5853	0.5611	0.007
Mof_C 	C 	0.3636	0.5757	0.5785	-0.029
Mof_H 	H 	0.3061	0.5676	0.5945	0.036
Mof_C 	C 	0.3172	0.5901	0.5502	-0.099
Mof_H 	H 	0.2269	0.5921	0.5466	0.044
Mof_C 	C 	0.3997	0.6011	0.5285	0.054
Mof_H 	H 	0.3649	0.6107	0.5095	-0.02
Mof_C 	C 	0.2203	0.7349	0.7271	0.026
Mof_H 	H 	0.2016	0.7194	0.7469	-0.013
Mof_C 	C 	0.1151	0.749	0.7072	-0.08
Mof_H 	H 	0.0283	0.7464	0.7139	0.029
Mof_C 	C 	0.1412	0.766	0.6789	-0.038
Mof_H 	H 	0.0727	0.7708	0.6652	0.034
Mof_C 	C 	0.2692	0.7766	0.6697	-0
Mof_C 	C 	0.368	0.7638	0.6902	0
Mof_H 	H 	0.4551	0.7701	0.6839	0.013
Mof_C 	C 	0.304	0.799	0.6411	-0.02
Mof_C 	C 	0.3395	0.8229	0.6158	-0.018
Mof_C 	C 	0.3799	0.8462	0.5872	-0.004
Mof_C 	C 	0.2858	0.8622	0.5654	0.003
Mof_H 	H 	0.1968	0.8581	0.5703	0.01
Mof_C 	C 	0.5103	0.8534	0.5789	-0.029
Mof_H 	H 	0.5764	0.8415	0.593	0.038
Mof_C 	C 	0.5426	0.8775	0.5506	-0.089
Mof_H 	H 	0.6303	0.8873	0.5451	0.043
Mof_C 	C 	0.4448	0.8873	0.5303	0.043
Mof_H 	H 	0.4676	0.8972	0.5103	-0.019
Mof_N 	N 	0.1318	0.0298	0.71414	-0.184
Mof_C 	C 	0.2623	0.0271	0.7179	0.027
Mof_H 	H 	0.2963	0.0164	0.7369	-0.011
Mof_N 	N 	0.0292	0.0997	0.53105	-0.197
Mof_C 	C 	0.3508	0.0399	0.6936	-0.075
Mof_H 	H 	0.4417	0.04	0.6965	0.041
Mof_Ag	Ag	0.16856	0.11686	0.49601	0.426
Mof_N 	N 	0.8437	0.2425	0.71888	-0.182
Mof_C 	C 	0.3	0.0518	0.6667	-0.037
Mof_H 	H 	0.3552	0.0604	0.6503	0.04
Mof_N 	N 	0.8205	0.3833	0.53724	-0.19
Mof_C 	C 	0.1653	0.0514	0.66298	-0.004
Mof_C 	C 	0.0871	0.0414	0.6871	-0.024
Mof_H 	H 	0.9961	0.0429	0.6843	0.032
Mof_C 	C 	0.1057	0.0603	0.634	-0.01
Mof_C 	C 	0.0564	0.0656	0.6112	-0.055
Mof_C 	C 	0.9971	0.0735	0.5826	0.044
Mof_C 	C 	0.0764	0.0862	0.5584	-0.038
Mof_H 	H 	0.1674	0.0853	0.5611	0.018
Mof_C 	C 	0.8636	0.0757	0.5785	-0.049
Mof_H 	H 	0.8061	0.0676	0.5945	0.047
Mof_C 	C 	0.8172	0.0901	0.5502	-0.09
Mof_H 	H 	0.7269	0.0921	0.5466	0.044
Mof_C 	C 	0.8997	0.1011	0.5285	0.066
Mof_H 	H 	0.8649	0.1107	0.5095	-0.02
Mof_C 	C 	0.7203	0.2349	0.7271	0.028
Mof_H 	H 	0.7016	0.2194	0.7469	-0.009
Mof_C 	C 	0.6151	0.249	0.7072	-0.079
Mof_H 	H 	0.5283	0.2464	0.7139	0.035
Mof_C 	C 	0.6412	0.266	0.6789	-0.036
Mof_H 	H 	0.5727	0.2708	0.6652	0.038
Mof_C 	C 	0.7692	0.2766	0.6697	-0
Mof_C 	C 	0.868	0.2638	0.6902	0.001
Mof_H 	H 	0.9551	0.2701	0.6839	0.019
Mof_C 	C 	0.804	0.299	0.6411	-0.014
Mof_C 	C 	0.8395	0.3229	0.6158	-0.021
Mof_C 	C 	0.8799	0.3462	0.5872	0.016
Mof_C 	C 	0.7858	0.3622	0.5654	-0
Mof_H 	H 	0.6968	0.3581	0.5703	0.013
Mof_C 	C 	0.0103	0.3534	0.5789	-0.047
Mof_H 	H 	0.0764	0.3415	0.593	0.038
Mof_C 	C 	0.0426	0.3775	0.5506	-0.111
Mof_H 	H 	0.1303	0.3873	0.5451	0.046
Mof_C 	C 	0.9448	0.3873	0.5303	0.068
Mof_H 	H 	0.9676	0.3972	0.5103	-0.022
Mof_N 	N 	0.6318	0.4702	0.28586	-0.192
Mof_C 	C 	0.7623	0.4729	0.2821	0.031
Mof_H 	H 	0.7963	0.4836	0.2631	-0.009
Mof_N 	N 	0.5292	0.4003	0.46895	-0.195
Mof_C 	C 	0.8508	0.4601	0.3064	-0.077
Mof_H 	H 	0.9417	0.46	0.3035	0.048
Mof_Ag	Ag	0.66856	0.38314	0.50399	0.436
Mof_N 	N 	0.3437	0.2575	0.28112	-0.189
Mof_C 	C 	0.8	0.4482	0.3333	-0.031
Mof_H 	H 	0.8552	0.4396	0.3497	0.042
Mof_N 	N 	0.3205	0.1167	0.46276	-0.187
Mof_C 	C 	0.6653	0.4486	0.33702	-0.009
Mof_C 	C 	0.5871	0.4586	0.3129	0.011
Mof_H 	H 	0.4961	0.4571	0.3157	0.005
Mof_C 	C 	0.6057	0.4397	0.366	-0.018
Mof_C 	C 	0.5564	0.4344	0.3888	-0.019
Mof_C 	C 	0.4971	0.4265	0.4174	-0.009
Mof_C 	C 	0.5764	0.4138	0.4416	0.001
Mof_H 	H 	0.6674	0.4147	0.4389	0.007
Mof_C 	C 	0.3636	0.4243	0.4215	-0.029
Mof_H 	H 	0.3061	0.4324	0.4055	0.036
Mof_C 	C 	0.3172	0.4099	0.4498	-0.099
Mof_H 	H 	0.2269	0.4079	0.4534	0.044
Mof_C 	C 	0.3997	0.3989	0.4715	0.054
Mof_H 	H 	0.3649	0.3893	0.4905	-0.02
Mof_C 	C 	0.2203	0.2651	0.2729	0.026
Mof_H 	H 	0.2016	0.2806	0.2531	-0.013
Mof_C 	C 	0.1151	0.251	0.2928	-0.08
Mof_H 	H 	0.0283	0.2536	0.2861	0.029
Mof_C 	C 	0.1412	0.234	0.3211	-0.038
Mof_H 	H 	0.0727	0.2292	0.3348	0.034
Mof_C 	C 	0.2692	0.2234	0.3303	-0
Mof_C 	C 	0.368	0.2362	0.3098	0
Mof_H 	H 	0.4551	0.2299	0.3161	0.013
Mof_C 	C 	0.304	0.201	0.3589	-0.02
Mof_C 	C 	0.3395	0.1771	0.3842	-0.018
Mof_C 	C 	0.3799	0.1538	0.4128	-0.004
Mof_C 	C 	0.2858	0.1378	0.4346	0.003
Mof_H 	H 	0.1968	0.1419	0.4297	0.01
Mof_C 	C 	0.5103	0.1466	0.4211	-0.029
Mof_H 	H 	0.5764	0.1585	0.407	0.038
Mof_C 	C 	0.5426	0.1225	0.4494	-0.089
Mof_H 	H 	0.6303	0.1127	0.4549	0.043
Mof_C 	C 	0.4448	0.1127	0.4697	0.043
Mof_H 	H 	0.4676	0.1028	0.4897	-0.019
Mof_N 	N 	0.1318	0.9702	0.28586	-0.184
Mof_C 	C 	0.2623	0.9729	0.2821	0.027
Mof_H 	H 	0.2963	0.9836	0.2631	-0.011
Mof_N 	N 	0.0292	0.9003	0.46895	-0.197
Mof_C 	C 	0.3508	0.9601	0.3064	-0.075
Mof_H 	H 	0.4417	0.96	0.3035	0.041
Mof_Ag	Ag	0.16856	0.88314	0.50399	0.426
Mof_N 	N 	0.8437	0.7575	0.28112	-0.182
Mof_C 	C 	0.3	0.9482	0.3333	-0.037
Mof_H 	H 	0.3552	0.9396	0.3497	0.04
Mof_N 	N 	0.8205	0.6167	0.46276	-0.19
Mof_C 	C 	0.1653	0.9486	0.33702	-0.004
Mof_C 	C 	0.0871	0.9586	0.3129	-0.024
Mof_H 	H 	0.9961	0.9571	0.3157	0.032
Mof_C 	C 	0.1057	0.9397	0.366	-0.01
Mof_C 	C 	0.0564	0.9344	0.3888	-0.055
Mof_C 	C 	0.9971	0.9265	0.4174	0.044
Mof_C 	C 	0.0764	0.9138	0.4416	-0.038
Mof_H 	H 	0.1674	0.9147	0.4389	0.018
Mof_C 	C 	0.8636	0.9243	0.4215	-0.049
Mof_H 	H 	0.8061	0.9324	0.4055	0.047
Mof_C 	C 	0.8172	0.9099	0.4498	-0.09
Mof_H 	H 	0.7269	0.9079	0.4534	0.044
Mof_C 	C 	0.8997	0.8989	0.4715	0.066
Mof_H 	H 	0.8649	0.8893	0.4905	-0.02
Mof_C 	C 	0.7203	0.7651	0.2729	0.028
Mof_H 	H 	0.7016	0.7806	0.2531	-0.009
Mof_C 	C 	0.6151	0.751	0.2928	-0.079
Mof_H 	H 	0.5283	0.7536	0.2861	0.035
Mof_C 	C 	0.6412	0.734	0.3211	-0.036
Mof_H 	H 	0.5727	0.7292	0.3348	0.038
Mof_C 	C 	0.7692	0.7234	0.3303	-0
Mof_C 	C 	0.868	0.7362	0.3098	0.001
Mof_H 	H 	0.9551	0.7299	0.3161	0.019
Mof_C 	C 	0.804	0.701	0.3589	-0.014
Mof_C 	C 	0.8395	0.6771	0.3842	-0.021
Mof_C 	C 	0.8799	0.6538	0.4128	0.016
Mof_C 	C 	0.7858	0.6378	0.4346	-0
Mof_H 	H 	0.6968	0.6419	0.4297	0.013
Mof_C 	C 	0.0103	0.6466	0.4211	-0.047
Mof_H 	H 	0.0764	0.6585	0.407	0.038
Mof_C 	C 	0.0426	0.6225	0.4494	-0.111
Mof_H 	H 	0.1303	0.6127	0.4549	0.046
Mof_C 	C 	0.9448	0.6127	0.4697	0.068
Mof_H 	H 	0.9676	0.6028	0.4897	-0.022
Mof_N 	N 	0.3682	0.5298	0.78586	-0.192
Mof_C 	C 	0.2377	0.5271	0.7821	0.028
Mof_H 	H 	0.2037	0.5164	0.7631	-0.014
Mof_N 	N 	0.4708	0.5997	0.96895	-0.195
Mof_C 	C 	0.1492	0.5399	0.8064	-0.079
Mof_H 	H 	0.0583	0.54	0.8035	0.037
Mof_Ag	Ag	0.33144	0.61686	0.00399	0.431
Mof_N 	N 	0.6563	0.7425	0.78112	-0.189
Mof_C 	C 	0.2	0.5518	0.8333	-0.033
Mof_H 	H 	0.1448	0.5604	0.8497	0.035
Mof_N 	N 	0.6795	0.8833	0.96276	-0.188
Mof_C 	C 	0.3347	0.5514	0.83702	-0.01
Mof_C 	C 	0.4129	0.5414	0.8129	0.01
Mof_H 	H 	0.5039	0.5429	0.8157	0.007
Mof_C 	C 	0.3943	0.5603	0.866	-0.019
Mof_C 	C 	0.4436	0.5656	0.8888	-0.019
Mof_C 	C 	0.5029	0.5735	0.9174	-0.009
Mof_C 	C 	0.4236	0.5862	0.9416	0.002
Mof_H 	H 	0.3326	0.5853	0.9389	0.004
Mof_C 	C 	0.6364	0.5757	0.9215	-0.027
Mof_H 	H 	0.6939	0.5676	0.9055	0.038
Mof_C 	C 	0.6828	0.5901	0.9498	-0.1
Mof_H 	H 	0.7731	0.5921	0.9534	0.049
Mof_C 	C 	0.6003	0.6011	0.9715	0.055
Mof_H 	H 	0.6351	0.6107	0.9905	-0.019
Mof_C 	C 	0.7797	0.7349	0.7729	0.029
Mof_H 	H 	0.7984	0.7194	0.7531	-0.009
Mof_C 	C 	0.8849	0.749	0.7928	-0.078
Mof_H 	H 	0.9717	0.7464	0.7861	0.042
Mof_C 	C 	0.8588	0.766	0.8211	-0.035
Mof_H 	H 	0.9273	0.7708	0.8348	0.043
Mof_C 	C 	0.7308	0.7766	0.8303	0.001
Mof_C 	C 	0.632	0.7638	0.8098	0.001
Mof_H 	H 	0.5449	0.7701	0.8161	0.011
Mof_C 	C 	0.696	0.799	0.8589	-0.018
Mof_C 	C 	0.6605	0.8229	0.8842	-0.017
Mof_C 	C 	0.6201	0.8462	0.9128	-0.003
Mof_C 	C 	0.7142	0.8622	0.9346	0.003
Mof_H 	H 	0.8032	0.8581	0.9297	0.014
Mof_C 	C 	0.4897	0.8534	0.9211	-0.03
Mof_H 	H 	0.4236	0.8415	0.907	0.036
Mof_C 	C 	0.4574	0.8775	0.9494	-0.089
Mof_H 	H 	0.3697	0.8873	0.9549	0.041
Mof_C 	C 	0.5552	0.8873	0.9697	0.043
Mof_H 	H 	0.5324	0.8972	0.9897	-0.019
Mof_N 	N 	0.8682	0.0298	0.78586	-0.19
Mof_C 	C 	0.7377	0.0271	0.7821	0.032
Mof_H 	H 	0.7037	0.0164	0.7631	-0.01
Mof_N 	N 	0.9708	0.0997	0.96895	-0.192
Mof_C 	C 	0.6492	0.0399	0.8064	-0.081
Mof_H 	H 	0.5583	0.04	0.8035	0.043
Mof_Ag	Ag	0.83144	0.11686	0.00399	0.443
Mof_N 	N 	0.1563	0.2425	0.78112	-0.188
Mof_C 	C 	0.7	0.0518	0.8333	-0.029
Mof_H 	H 	0.6448	0.0604	0.8497	0.038
Mof_N 	N 	0.1795	0.3833	0.96276	-0.185
Mof_C 	C 	0.8347	0.0514	0.83702	-0.014
Mof_C 	C 	0.9129	0.0414	0.8129	0.046
Mof_H 	H 	0.0039	0.0429	0.8157	-0.017
Mof_C 	C 	0.8943	0.0603	0.866	-0.028
Mof_C 	C 	0.9436	0.0656	0.8888	0.02
Mof_C 	C 	0.0029	0.0735	0.9174	-0.067
Mof_C 	C 	0.9236	0.0862	0.9416	0.045
Mof_H 	H 	0.8326	0.0853	0.9389	-0.008
Mof_C 	C 	0.1364	0.0757	0.9215	-0.005
Mof_H 	H 	0.1939	0.0676	0.9055	0.027
Mof_C 	C 	0.1828	0.0901	0.9498	-0.109
Mof_H 	H 	0.2731	0.0921	0.9534	0.049
Mof_C 	C 	0.1003	0.1011	0.9715	0.042
Mof_H 	H 	0.1351	0.1107	0.9905	-0.019
Mof_C 	C 	0.2797	0.2349	0.7729	0.026
Mof_H 	H 	0.2984	0.2194	0.7531	-0.011
Mof_C 	C 	0.3849	0.249	0.7928	-0.078
Mof_H 	H 	0.4717	0.2464	0.7861	0.035
Mof_C 	C 	0.3588	0.266	0.8211	-0.038
Mof_H 	H 	0.4273	0.2708	0.8348	0.039
Mof_C 	C 	0.2308	0.2766	0.8303	0.002
Mof_C 	C 	0.132	0.2638	0.8098	-0.001
Mof_H 	H 	0.0449	0.2701	0.8161	0.008
Mof_C 	C 	0.196	0.299	0.8589	-0.025
Mof_C 	C 	0.1605	0.3229	0.8842	-0.014
Mof_C 	C 	0.1201	0.3462	0.9128	-0.025
Mof_C 	C 	0.2142	0.3622	0.9346	0.007
Mof_H 	H 	0.3032	0.3581	0.9297	0.011
Mof_C 	C 	0.9897	0.3534	0.9211	-0.01
Mof_H 	H 	0.9236	0.3415	0.907	0.035
Mof_C 	C 	0.9574	0.3775	0.9494	-0.066
Mof_H 	H 	0.8697	0.3873	0.9549	0.037
Mof_C 	C 	0.0552	0.3873	0.9697	0.015
Mof_H 	H 	0.0324	0.3972	0.9897	-0.016
Mof_Ag	Ag	0.5	0.48717	0.25	0.443
Mof_Ag	Ag	0.5	0.25179	0.25	0.439
Mof_Ag	Ag	2.10907e-32	0.98717	0.25	0.418
Mof_Ag	Ag	4.14875e-33	0.75179	0.25	0.414
Mof_Ag	Ag	0.5	0.51283	0.75	0.443
Mof_Ag	Ag	0.5	0.74821	0.75	0.439
Mof_Ag	Ag	1.24462e-32	0.01283	0.75	0.418
Mof_Ag	Ag	-2.14376e-32	0.24821	0.75	0.414
_end
