data_functionalizedCrystal
_audit_creation_method	'EQeq! by Chris Wilmer'
_symmetry_space_group_name_H-M	'P1'
_symmetry_Int_Tables_number	1
_symmetry_cell_setting	triclinic
loop_
_symmetry_equiv_pos_as_xyz
  x,y,z
_cell_length_a	8.6618
_cell_length_b	9.0311
_cell_length_c	16.1728
_cell_angle_alpha	82.6217
_cell_angle_beta	74.4672
_cell_angle_gamma	61.3437
loop_
_atom_site_label
_atom_site_type_symbol
_atom_site_fract_x
_atom_site_fract_y
_atom_site_fract_z
_atom_site_charge
Mof_In	In	0.96834	0.02738	0.37063	2.641
Mof_In	In	0.36635	0.97261	0.62938	2.663
Mof_In	In	0.08896	0.52739	0.12937	2.708
Mof_In	In	0.74572	0.47262	0.87062	2.677
Mof_C 	C 	0.20283	0.9332	0.49774	0.31
Mof_C 	C 	0.10122	0.124	0.50896	0.266
Mof_C 	C 	0.12709	0.2256	0.24882	0.305
Mof_C 	C 	0.92285	0.348	0.2671	0.273
Mof_C 	C 	0.63377	0.0668	0.50226	0.325
Mof_C 	C 	0.73418	0.876	0.49104	0.233
Mof_C 	C 	0.60151	0.7744	0.75118	0.291
Mof_C 	C 	0.53795	0.652	0.7329	0.285
Mof_C 	C 	0.45057	0.4332	0.00226	0.329
Mof_C 	C 	0.36018	0.624	0.99104	0.233
Mof_C 	C 	0.12591	0.7256	0.25118	0.293
Mof_C 	C 	0.93995	0.848	0.2329	0.285
Mof_C 	C 	0.88603	0.5668	0.99774	0.325
Mof_C 	C 	0.97522	0.376	0.00896	0.221
Mof_C 	C 	0.10269	0.2744	0.74882	0.286
Mof_C 	C 	0.02085	0.152	0.7671	0.315
Mof_O 	O 	0.17483	0.87102	0.44272	-0.562
Mof_O 	O 	0.99196	0.2033	0.46278	-0.457
Mof_O 	O 	0.1751	0.08304	0.28356	-0.55
Mof_O 	O 	0.82123	0.2984	0.31654	-0.478
Mof_O 	O 	0.31071	0.84616	0.54462	-0.582
Mof_O 	O 	0.13951	0.1805	0.56288	-0.469
Mof_O 	O 	0.23069	0.27676	0.20146	-0.478
Mof_O 	O 	0.87718	0.4906	0.23004	-0.539
Mof_O 	O 	0.48857	0.12898	0.55728	-0.568
Mof_O 	O 	0.65804	0.7967	0.53722	-0.438
Mof_O 	O 	0.5417	0.91696	0.71644	-0.561
Mof_O 	O 	0.43617	0.7016	0.68346	-0.482
Mof_O 	O 	0.70149	0.15384	0.45538	-0.583
Mof_O 	O 	0.88289	0.8195	0.43712	-0.464
Mof_O 	O 	0.70891	0.72324	0.79854	-0.477
Mof_O 	O 	0.59782	0.5094	0.76996	-0.536
Mof_O 	O 	0.36755	0.37102	0.05728	-0.575
Mof_O 	O 	0.20474	0.7033	0.03722	-0.44
Mof_O 	O 	0.20866	0.58304	0.21644	-0.563
Mof_O 	O 	0.88777	0.7984	0.18346	-0.485
Mof_O 	O 	0.60533	0.34616	0.95538	-0.587
Mof_O 	O 	0.45239	0.6805	0.93712	-0.468
Mof_O 	O 	0.18215	0.77676	0.29854	-0.471
Mof_O 	O 	0.85722	0.9906	0.26996	-0.526
Mof_O 	O 	0.79585	0.62898	0.94272	-0.573
Mof_O 	O 	0.94526	0.2967	0.96278	-0.443
Mof_O 	O 	0.00814	0.41696	0.78356	-0.55
Mof_O 	O 	0.86963	0.2016	0.81654	-0.503
Mof_O 	O 	0.90687	0.65384	0.04462	-0.59
Mof_O 	O 	0.07001	0.3195	0.06288	-0.457
Mof_O 	O 	0.25745	0.22324	0.70146	-0.469
Mof_O 	O 	0.11778	0.0094	0.73004	-0.529
Mof_H 	H 	0.3264	0.3374	0.4648	0.055
Mof_H 	H 	0.1752	0.4888	0.4272	0.054
Mof_H 	H 	0.3827	0.607	0.4174	0.202
Mof_H 	H 	0.4044	0.5068	0.3476	0.194
Mof_H 	H 	0.5164	0.43	0.4092	0.192
Mof_H 	H 	0.1286	0.6626	0.5352	0.055
Mof_H 	H 	0.0912	0.5112	0.5728	0.055
Mof_H 	H 	0.4071	0.393	0.5826	0.202
Mof_H 	H 	0.2588	0.4932	0.6524	0.194
Mof_H 	H 	0.3556	0.57	0.5908	0.192
Mof_C 	C 	0.2698	0.4588	0.457	-0.007
Mof_C 	C 	0.1856	0.5412	0.543	-0.007
Mof_N 	N 	0.40693	0.5054	0.40234	-0.393
Mof_N 	N 	0.31467	0.4946	0.59766	-0.393
Mof_H 	H 	0.5412	0.8374	0.0352	0.054
Mof_H 	H 	0.3524	0.9888	0.0728	0.051
Mof_H 	H 	0.5501	0.107	0.0826	0.202
Mof_H 	H 	0.502	0.0068	0.1524	0.195
Mof_H 	H 	0.6756	0.93	0.0908	0.195
Mof_H 	H 	0.4138	0.1626	0.9648	0.055
Mof_H 	H 	0.414	0.0112	0.9272	0.056
Mof_H 	H 	0.7397	0.893	0.9174	0.201
Mof_H 	H 	0.6612	0.9932	0.8476	0.193
Mof_H 	H 	0.6964	0.07	0.9092	0.192
Mof_C 	C 	0.4768	0.9588	0.043	-0.006
Mof_C 	C 	0.4786	0.0412	0.957	-0.003
Mof_N 	N 	0.55927	0.0054	0.09766	-0.396
Mof_N 	N 	0.66233	0.9946	0.90234	-0.395
_end
