data_functionalizedCrystal
_audit_creation_method	'EQeq! by Chris Wilmer'
_symmetry_space_group_name_H-M	'P1'
_symmetry_Int_Tables_number	1
_symmetry_cell_setting	triclinic
loop_
_symmetry_equiv_pos_as_xyz
  x,y,z
_cell_length_a	11.4545
_cell_length_b	11.4545
_cell_length_c	15.0777
_cell_angle_alpha	109.621
_cell_angle_beta	109.621
_cell_angle_gamma	96.5834
loop_
_atom_site_label
_atom_site_type_symbol
_atom_site_fract_x
_atom_site_fract_y
_atom_site_fract_z
_atom_site_charge
Mof_Cd	Cd	0.26684	0.00398	0.2862	0.491
Mof_Cd	Cd	0.73316	0.99602	0.7138	0.491
Mof_Cd	Cd	0.00398	0.26684	0.7862	0.492
Mof_Cd	Cd	0.99602	0.73316	0.2138	0.492
Mof_H 	H 	0.1162	0.839	0.9207	0.131
Mof_H 	H 	0.7548	0.5584	0.8567	0.138
Mof_H 	H 	0.9843	0.4875	0.696	0.111
Mof_H 	H 	0.839	0.1162	0.4207	0.131
Mof_H 	H 	0.5584	0.7548	0.3567	0.137
Mof_H 	H 	0.6778	0.6628	0.127	0.114
Mof_H 	H 	0.8838	0.161	0.0793	0.131
Mof_H 	H 	0.2452	0.4416	0.1433	0.138
Mof_H 	H 	0.9316	0.8164	0.4094	0.061
Mof_H 	H 	0.1836	0.0684	0.0906	0.062
Mof_H 	H 	0.3372	0.3222	0.373	0.114
Mof_H 	H 	0.8164	0.9316	0.9094	0.062
Mof_H 	H 	0.0157	0.5125	0.304	0.111
Mof_H 	H 	0.4767	0.8949	0.5191	0.06
Mof_H 	H 	0.161	0.8838	0.5793	0.131
Mof_H 	H 	0.4875	0.9843	0.196	0.111
Mof_H 	H 	0.1051	0.5233	0.9809	0.06
Mof_H 	H 	0.4416	0.2452	0.6433	0.137
Mof_H 	H 	0.3222	0.3372	0.873	0.114
Mof_H 	H 	0.0022	0.9486	0.1931	0.417
Mof_H 	H 	0.5233	0.1051	0.4809	0.06
Mof_H 	H 	0.0684	0.1836	0.5906	0.061
Mof_H 	H 	0.5125	0.0157	0.804	0.111
Mof_H 	H 	0.6628	0.6778	0.627	0.114
Mof_H 	H 	0.8949	0.4767	0.0191	0.06
Mof_H 	H 	0.0514	0.9978	0.3069	0.417
Mof_H 	H 	0.9978	0.0514	0.8069	0.417
Mof_H 	H 	0.9486	0.0022	0.6931	0.417
Mof_C 	C 	0.7861	0.8461	0.8633	0.032
Mof_C 	C 	0.1648	0.77	0.084	0.316
Mof_C 	C 	0.7009	0.5987	0.7305	0.221
Mof_C 	C 	0.8461	0.7861	0.3633	0.032
Mof_C 	C 	0.1479	0.2075	0.9823	0.302
Mof_C 	C 	0.5612	0.0902	0.4337	0.036
Mof_C 	C 	0.9562	0.3286	0.2036	0.217
Mof_C 	C 	0.5987	0.7009	0.2305	0.22
Mof_C 	C 	0.5396	0.0186	0.2658	-0.064
Mof_C 	C 	0.3286	0.9562	0.7036	0.217
Mof_C 	C 	0.2991	0.4013	0.2695	0.221
Mof_C 	C 	0.0961	0.7503	0.899	-0.127
Mof_C 	C 	0.9098	0.4388	0.0663	0.036
Mof_C 	C 	0.2483	0.2069	0.5976	-0.009
Mof_C 	C 	0.2139	0.1539	0.1367	0.032
Mof_C 	C 	0.4604	0.9814	0.7342	-0.064
Mof_C 	C 	0.6973	0.6961	0.1972	-0.062
Mof_C 	C 	0.2496	0.3756	0.1663	-0.13
Mof_C 	C 	0.9039	0.2497	0.101	-0.127
Mof_C 	C 	0.2069	0.2483	0.0976	-0.008
Mof_C 	C 	0.3064	0.8816	0.5303	-0.013
Mof_C 	C 	0.3027	0.3039	0.8028	-0.062
Mof_C 	C 	0.8816	0.3064	0.0303	-0.014
Mof_C 	C 	0.77	0.1648	0.584	0.315
Mof_C 	C 	0.2497	0.9039	0.601	-0.127
Mof_C 	C 	0.7517	0.7931	0.4024	-0.009
Mof_C 	C 	0.4013	0.2991	0.7695	0.22
Mof_C 	C 	0.1184	0.6936	0.9697	-0.014
Mof_C 	C 	0.6936	0.1184	0.4697	-0.013
Mof_C 	C 	0.2075	0.1479	0.4823	0.303
Mof_C 	C 	0.1539	0.2139	0.6367	0.032
Mof_C 	C 	0.8521	0.7925	0.0177	0.302
Mof_C 	C 	0.6244	0.7504	0.3337	-0.13
Mof_C 	C 	0.23	0.8352	0.416	0.315
Mof_C 	C 	0.7503	0.0961	0.399	-0.127
Mof_C 	C 	0.7931	0.7517	0.9024	-0.008
Mof_C 	C 	0.6714	0.0438	0.2964	0.217
Mof_C 	C 	0.0186	0.5396	0.7658	-0.065
Mof_C 	C 	0.7925	0.8521	0.5177	0.303
Mof_C 	C 	0.9814	0.4604	0.2342	-0.065
Mof_C 	C 	0.0902	0.5612	0.9337	0.036
Mof_C 	C 	0.8352	0.23	0.916	0.316
Mof_C 	C 	0.0438	0.6714	0.7964	0.217
Mof_C 	C 	0.6961	0.6973	0.6972	-0.062
Mof_C 	C 	0.4388	0.9098	0.5663	0.036
Mof_C 	C 	0.3756	0.2496	0.6663	-0.13
Mof_C 	C 	0.3039	0.3027	0.3028	-0.062
Mof_C 	C 	0.7504	0.6244	0.8337	-0.13
Mof_N 	N 	0.4852	0.042	0.3328	-0.102
Mof_N 	N 	0.958	0.5148	0.1672	-0.102
Mof_N 	N 	0.82	0.7384	0.2634	-0.098
Mof_N 	N 	0.2616	0.18	0.2366	-0.098
Mof_N 	N 	0.7384	0.82	0.7634	-0.098
Mof_N 	N 	0.5148	0.958	0.6672	-0.102
Mof_N 	N 	0.18	0.2616	0.7366	-0.098
Mof_N 	N 	0.042	0.4852	0.8328	-0.102
Mof_Cl	Cl	0.73281	0.00415	0.20284	-0.304
Mof_Cl	Cl	0.64702	0.44142	0.6398	-0.312
Mof_Cl	Cl	0.00415	0.73281	0.70284	-0.304
Mof_Cl	Cl	0.26719	0.99585	0.79716	-0.304
Mof_Cl	Cl	0.35298	0.55858	0.3602	-0.312
Mof_Cl	Cl	0.55858	0.35298	0.8602	-0.311
Mof_Cl	Cl	0.99585	0.26719	0.29716	-0.304
Mof_Cl	Cl	0.44142	0.64702	0.1398	-0.311
Mof_O 	O 	0.71181	0.13779	0.634	-0.252
Mof_O 	O 	0.8932	0.911	0.0706	-0.26
Mof_O 	O 	0.8844	0.2256	0.6192	-0.264
Mof_O 	O 	0.911	0.8932	0.5706	-0.26
Mof_O 	O 	0.28819	0.86221	0.366	-0.252
Mof_O 	O 	0.70531	0.85549	0.5504	-0.261
Mof_O 	O 	0.051	0.949	0.25	-0.778
Mof_O 	O 	0.1156	0.7744	0.3808	-0.264
Mof_O 	O 	0.13779	0.71181	0.134	-0.252
Mof_O 	O 	0.14451	0.29469	0.9496	-0.261
Mof_O 	O 	0.089	0.1068	0.4294	-0.26
Mof_O 	O 	0.1068	0.089	0.9294	-0.26
Mof_O 	O 	0.2256	0.8844	0.1192	-0.264
Mof_O 	O 	0.7744	0.1156	0.8808	-0.264
Mof_O 	O 	0.85549	0.70531	0.0504	-0.261
Mof_O 	O 	0.29469	0.14451	0.4496	-0.261
Mof_O 	O 	0.949	0.051	0.75	-0.778
Mof_O 	O 	0.86221	0.28819	0.866	-0.252
_end
