data_functionalizedCrystal
_audit_creation_method	'EQeq! by Chris Wilmer'
_symmetry_space_group_name_H-M	'P1'
_symmetry_Int_Tables_number	1
_symmetry_cell_setting	triclinic
loop_
_symmetry_equiv_pos_as_xyz
  x,y,z
_cell_length_a	24.0595
_cell_length_b	24.0595
_cell_length_c	30.986
_cell_angle_alpha	90
_cell_angle_beta	90
_cell_angle_gamma	90
loop_
_atom_site_label
_atom_site_type_symbol
_atom_site_fract_x
_atom_site_fract_y
_atom_site_fract_z
_atom_site_charge
Mof_Zn	Zn	0.57245	0.12589	0.12217	1.22
Mof_C 	C 	0.29816	0.23813	0.0778	0.391
Mof_C 	C 	0.3483	0.2361	0.04859	-0.378
Mof_H 	H 	0.3362	0.2344	0.0188	0.167
Mof_H 	H 	0.37	0.2697	0.0523	0.149
Mof_C 	C 	0.47837	0.16468	0.08112	0.425
Mof_C 	C 	0.44225	0.1945	0.04897	-0.39
Mof_H 	H 	0.4511	0.2339	0.0494	0.151
Mof_H 	H 	0.4501	0.1806	0.0202	0.166
Mof_C 	C 	0.36078	0.13556	0.0387	-0.18
Mof_H 	H 	0.3221	0.1321	0.0471	0.074
Mof_H 	H 	0.3805	0.1041	0.0509	0.069
Mof_C 	C 	0.36394	0.13126	0.98975	0.098
Mof_C 	C 	0.4079	0.104	0.96975	-0.11
Mof_H 	H 	0.4353	0.0875	0.9866	0.071
Mof_C 	C 	0.4114	0.1009	0.92529	-0.021
Mof_H 	H 	0.4416	0.083	0.9127	0.048
Mof_C 	C 	0.37077	0.1239	0.8992	0.004
Mof_C 	C 	0.3265	0.15146	0.91908	-0.023
Mof_H 	H 	0.2989	0.1677	0.9023	0.058
Mof_C 	C 	0.32349	0.1548	0.9635	-0.104
Mof_H 	H 	0.2937	0.1733	0.9761	0.075
Mof_C 	C 	0.6974	0.1187	0.1082	0.008
Mof_H 	H 	0.7037	0.154	0.1194	0.033
Mof_C 	C 	0.7374	0.0843	0.09427	0.011
Mof_H 	H 	0.7755	0.0905	0.0944	0.041
Mof_C 	C 	0.6556	0.0465	0.08698	0.108
Mof_H 	H 	0.6282	0.0206	0.0807	-0.007
Mof_C 	C 	0.7358	0.9886	0.0605	0.038
Mof_C 	C 	0.7301	0.973	0.0163	-0.022
Mof_N 	N 	0.38335	0.18705	0.05841	-0.091
Mof_N 	N 	0.64627	0.09506	0.10368	-0.261
Mof_N 	N 	0.71031	0.0387	0.07995	-0.125
Mof_O 	O 	0.25668	0.26456	0.06574	-0.272
Mof_O 	O 	0.3009	0.21343	0.11411	-0.435
Mof_O 	O 	0.45882	0.15317	0.11733	-0.493
Mof_O 	O 	0.5281	0.15387	0.07105	-0.463
Mof_Zn	Zn	0.07245	0.62589	0.62216	1.22
Mof_C 	C 	0.79816	0.73813	0.5778	0.391
Mof_C 	C 	0.8483	0.7361	0.54859	-0.378
Mof_H 	H 	0.8362	0.7344	0.5188	0.168
Mof_H 	H 	0.87	0.7697	0.5523	0.149
Mof_C 	C 	0.97837	0.66468	0.58112	0.425
Mof_C 	C 	0.94225	0.6945	0.54897	-0.391
Mof_H 	H 	0.9511	0.7339	0.5494	0.15
Mof_H 	H 	0.9501	0.6806	0.5202	0.166
Mof_C 	C 	0.86078	0.63556	0.5387	-0.181
Mof_H 	H 	0.8221	0.6321	0.5471	0.073
Mof_H 	H 	0.8805	0.6041	0.5509	0.068
Mof_C 	C 	0.86394	0.63126	0.48975	0.096
Mof_C 	C 	0.9079	0.604	0.46975	-0.111
Mof_H 	H 	0.9353	0.5875	0.4866	0.07
Mof_C 	C 	0.9114	0.6009	0.42529	-0.023
Mof_H 	H 	0.9416	0.583	0.4127	0.047
Mof_C 	C 	0.87077	0.6239	0.3992	0.003
Mof_C 	C 	0.8265	0.65146	0.41908	-0.024
Mof_H 	H 	0.7989	0.6677	0.4023	0.057
Mof_C 	C 	0.82349	0.6548	0.4635	-0.105
Mof_H 	H 	0.7937	0.6733	0.4761	0.073
Mof_C 	C 	0.1974	0.6187	0.6082	0.007
Mof_H 	H 	0.2037	0.654	0.6194	0.032
Mof_C 	C 	0.2374	0.5843	0.59427	0.01
Mof_H 	H 	0.2755	0.5905	0.5944	0.04
Mof_C 	C 	0.1556	0.5465	0.58698	0.107
Mof_H 	H 	0.1282	0.5206	0.5807	-0.008
Mof_C 	C 	0.2358	0.4886	0.5605	0.036
Mof_C 	C 	0.2301	0.473	0.5163	-0.023
Mof_N 	N 	0.88335	0.68705	0.55841	-0.092
Mof_N 	N 	0.14627	0.59506	0.60368	-0.262
Mof_N 	N 	0.21031	0.5387	0.57995	-0.126
Mof_O 	O 	0.75668	0.76456	0.56574	-0.273
Mof_O 	O 	0.8009	0.71343	0.61411	-0.436
Mof_O 	O 	0.95882	0.65317	0.61733	-0.494
Mof_O 	O 	0.0281	0.65387	0.57105	-0.464
Mof_Zn	Zn	0.92755	0.87411	0.62216	1.219
Mof_C 	C 	0.20184	0.76187	0.5778	0.39
Mof_C 	C 	0.1517	0.7639	0.54859	-0.379
Mof_H 	H 	0.1638	0.7656	0.5188	0.167
Mof_H 	H 	0.13	0.7303	0.5523	0.148
Mof_C 	C 	0.02163	0.83532	0.58112	0.424
Mof_C 	C 	0.05775	0.8055	0.54897	-0.391
Mof_H 	H 	0.0489	0.7661	0.5494	0.15
Mof_H 	H 	0.0499	0.8194	0.5202	0.166
Mof_C 	C 	0.13922	0.86444	0.5387	-0.181
Mof_H 	H 	0.1779	0.8679	0.5471	0.073
Mof_H 	H 	0.1195	0.8959	0.5509	0.068
Mof_C 	C 	0.13606	0.86874	0.48975	0.096
Mof_C 	C 	0.0921	0.896	0.46975	-0.111
Mof_H 	H 	0.0647	0.9125	0.4866	0.07
Mof_C 	C 	0.0886	0.8991	0.42529	-0.023
Mof_H 	H 	0.0584	0.917	0.4127	0.047
Mof_C 	C 	0.12923	0.8761	0.3992	0.003
Mof_C 	C 	0.1735	0.84854	0.41908	-0.024
Mof_H 	H 	0.2011	0.8323	0.4023	0.057
Mof_C 	C 	0.17651	0.8452	0.4635	-0.105
Mof_H 	H 	0.2063	0.8267	0.4761	0.073
Mof_C 	C 	0.8026	0.8813	0.6082	0.007
Mof_H 	H 	0.7963	0.846	0.6194	0.032
Mof_C 	C 	0.7626	0.9157	0.59427	0.01
Mof_H 	H 	0.7245	0.9095	0.5944	0.04
Mof_C 	C 	0.8444	0.9535	0.58698	0.107
Mof_H 	H 	0.8718	0.9794	0.5807	-0.008
Mof_C 	C 	0.7642	0.0114	0.5605	0.036
Mof_C 	C 	0.7699	0.027	0.5163	-0.024
Mof_N 	N 	0.11665	0.81295	0.55841	-0.092
Mof_N 	N 	0.85373	0.90494	0.60368	-0.262
Mof_N 	N 	0.78969	0.9613	0.57995	-0.126
Mof_O 	O 	0.24332	0.73544	0.56574	-0.273
Mof_O 	O 	0.1991	0.78657	0.61411	-0.436
Mof_O 	O 	0.04118	0.84683	0.61733	-0.494
Mof_O 	O 	0.9719	0.84613	0.57105	-0.464
Mof_Zn	Zn	0.42755	0.37411	0.12217	1.219
Mof_C 	C 	0.70184	0.26187	0.0778	0.39
Mof_C 	C 	0.6517	0.2639	0.04859	-0.379
Mof_H 	H 	0.6638	0.2656	0.0188	0.166
Mof_H 	H 	0.63	0.2303	0.0523	0.148
Mof_C 	C 	0.52163	0.33532	0.08112	0.424
Mof_C 	C 	0.55775	0.3055	0.04897	-0.391
Mof_H 	H 	0.5489	0.2661	0.0494	0.15
Mof_H 	H 	0.5499	0.3194	0.0202	0.165
Mof_C 	C 	0.63922	0.36444	0.0387	-0.181
Mof_H 	H 	0.6779	0.3679	0.0471	0.073
Mof_H 	H 	0.6195	0.3959	0.0509	0.068
Mof_C 	C 	0.63606	0.36874	0.98975	0.097
Mof_C 	C 	0.5921	0.396	0.96975	-0.111
Mof_H 	H 	0.5647	0.4125	0.9866	0.071
Mof_C 	C 	0.5886	0.3991	0.92529	-0.022
Mof_H 	H 	0.5584	0.417	0.9127	0.047
Mof_C 	C 	0.62923	0.3761	0.8992	0.003
Mof_C 	C 	0.6735	0.34854	0.91908	-0.024
Mof_H 	H 	0.7011	0.3323	0.9023	0.057
Mof_C 	C 	0.67651	0.3452	0.9635	-0.105
Mof_H 	H 	0.7063	0.3267	0.9761	0.074
Mof_C 	C 	0.3026	0.3813	0.1082	0.007
Mof_H 	H 	0.2963	0.346	0.1194	0.032
Mof_C 	C 	0.2626	0.4157	0.09427	0.01
Mof_H 	H 	0.2245	0.4095	0.0944	0.04
Mof_C 	C 	0.3444	0.4535	0.08698	0.107
Mof_H 	H 	0.3718	0.4794	0.0807	-0.008
Mof_C 	C 	0.2642	0.5114	0.0605	0.036
Mof_C 	C 	0.2699	0.527	0.0163	-0.024
Mof_N 	N 	0.61665	0.31295	0.05841	-0.092
Mof_N 	N 	0.35373	0.40494	0.10368	-0.262
Mof_N 	N 	0.28969	0.4613	0.07995	-0.126
Mof_O 	O 	0.74332	0.23544	0.06574	-0.273
Mof_O 	O 	0.6991	0.28657	0.11411	-0.436
Mof_O 	O 	0.54118	0.34683	0.11733	-0.494
Mof_O 	O 	0.4719	0.34613	0.07105	-0.464
Mof_Zn	Zn	0.12411	0.32245	0.37216	1.219
Mof_C 	C 	0.01187	0.04816	0.3278	0.39
Mof_C 	C 	0.0139	0.0983	0.29859	-0.379
Mof_H 	H 	0.0156	0.0862	0.2688	0.167
Mof_H 	H 	0.9803	0.12	0.3023	0.148
Mof_C 	C 	0.08532	0.22837	0.33112	0.424
Mof_C 	C 	0.0555	0.19225	0.29897	-0.391
Mof_H 	H 	0.0161	0.2011	0.2994	0.15
Mof_H 	H 	0.0694	0.2001	0.2702	0.166
Mof_C 	C 	0.11444	0.11078	0.2887	-0.181
Mof_H 	H 	0.1179	0.0721	0.2971	0.073
Mof_H 	H 	0.1459	0.1305	0.3009	0.068
Mof_C 	C 	0.11874	0.11394	0.23975	0.096
Mof_C 	C 	0.146	0.1579	0.21975	-0.111
Mof_H 	H 	0.1625	0.1853	0.2366	0.07
Mof_C 	C 	0.1491	0.1614	0.17529	-0.023
Mof_H 	H 	0.167	0.1916	0.1627	0.047
Mof_C 	C 	0.1261	0.12077	0.1492	0.003
Mof_C 	C 	0.09854	0.0765	0.16908	-0.024
Mof_H 	H 	0.0823	0.0489	0.1523	0.057
Mof_C 	C 	0.0952	0.07349	0.2135	-0.105
Mof_H 	H 	0.0767	0.0437	0.2261	0.073
Mof_C 	C 	0.1313	0.4474	0.3582	0.007
Mof_H 	H 	0.096	0.4537	0.3694	0.032
Mof_C 	C 	0.1657	0.4874	0.34427	0.01
Mof_H 	H 	0.1595	0.5255	0.3444	0.04
Mof_C 	C 	0.2035	0.4056	0.33698	0.107
Mof_H 	H 	0.2294	0.3782	0.3307	-0.008
Mof_C 	C 	0.2614	0.4858	0.3105	0.036
Mof_C 	C 	0.277	0.4801	0.2663	-0.023
Mof_N 	N 	0.06295	0.13335	0.30841	-0.092
Mof_N 	N 	0.15494	0.39627	0.35368	-0.262
Mof_N 	N 	0.2113	0.46031	0.32995	-0.126
Mof_O 	O 	0.98544	0.00668	0.31574	-0.273
Mof_O 	O 	0.03657	0.0509	0.36411	-0.437
Mof_O 	O 	0.09683	0.20882	0.36733	-0.494
Mof_O 	O 	0.09613	0.2781	0.32105	-0.464
Mof_Zn	Zn	0.62411	0.82245	0.87216	1.219
Mof_C 	C 	0.51187	0.54816	0.8278	0.39
Mof_C 	C 	0.5139	0.5983	0.79859	-0.379
Mof_H 	H 	0.5156	0.5862	0.7688	0.167
Mof_H 	H 	0.4803	0.62	0.8023	0.148
Mof_C 	C 	0.58532	0.72837	0.83112	0.424
Mof_C 	C 	0.5555	0.69225	0.79897	-0.391
Mof_H 	H 	0.5161	0.7011	0.7994	0.15
Mof_H 	H 	0.5694	0.7001	0.7702	0.166
Mof_C 	C 	0.61444	0.61078	0.7887	-0.181
Mof_H 	H 	0.6179	0.5721	0.7971	0.073
Mof_H 	H 	0.6459	0.6305	0.8009	0.068
Mof_C 	C 	0.61874	0.61394	0.73975	0.096
Mof_C 	C 	0.646	0.6579	0.71975	-0.111
Mof_H 	H 	0.6625	0.6853	0.7366	0.07
Mof_C 	C 	0.6491	0.6614	0.67529	-0.023
Mof_H 	H 	0.667	0.6916	0.6627	0.047
Mof_C 	C 	0.6261	0.62077	0.6492	0.003
Mof_C 	C 	0.59854	0.5765	0.66908	-0.024
Mof_H 	H 	0.5823	0.5489	0.6523	0.057
Mof_C 	C 	0.5952	0.57349	0.7135	-0.105
Mof_H 	H 	0.5767	0.5437	0.7261	0.073
Mof_C 	C 	0.6313	0.9474	0.8582	0.006
Mof_H 	H 	0.596	0.9537	0.8694	0.033
Mof_C 	C 	0.6657	0.9874	0.84427	0.01
Mof_H 	H 	0.6595	0.0255	0.8444	0.04
Mof_C 	C 	0.7035	0.9056	0.83698	0.107
Mof_H 	H 	0.7294	0.8782	0.8307	-0.008
Mof_C 	C 	0.7614	0.9858	0.8105	0.036
Mof_C 	C 	0.777	0.9801	0.7663	-0.023
Mof_N 	N 	0.56295	0.63335	0.80841	-0.092
Mof_N 	N 	0.65494	0.89627	0.85368	-0.262
Mof_N 	N 	0.7113	0.96031	0.82995	-0.126
Mof_O 	O 	0.48544	0.50668	0.81574	-0.273
Mof_O 	O 	0.53657	0.5509	0.86411	-0.436
Mof_O 	O 	0.59683	0.70882	0.86733	-0.494
Mof_O 	O 	0.59613	0.7781	0.82105	-0.464
Mof_Zn	Zn	0.37589	0.67755	0.87216	1.219
Mof_C 	C 	0.48813	0.95184	0.8278	0.39
Mof_C 	C 	0.4861	0.9017	0.79859	-0.379
Mof_H 	H 	0.4844	0.9138	0.7688	0.167
Mof_H 	H 	0.5197	0.88	0.8023	0.148
Mof_C 	C 	0.41468	0.77163	0.83112	0.424
Mof_C 	C 	0.4445	0.80775	0.79897	-0.391
Mof_H 	H 	0.4839	0.7989	0.7994	0.15
Mof_H 	H 	0.4306	0.7999	0.7702	0.166
Mof_C 	C 	0.38556	0.88922	0.7887	-0.181
Mof_H 	H 	0.3821	0.9279	0.7971	0.073
Mof_H 	H 	0.3541	0.8695	0.8009	0.068
Mof_C 	C 	0.38126	0.88606	0.73975	0.096
Mof_C 	C 	0.354	0.8421	0.71975	-0.111
Mof_H 	H 	0.3375	0.8147	0.7366	0.07
Mof_C 	C 	0.3509	0.8386	0.67529	-0.023
Mof_H 	H 	0.333	0.8084	0.6627	0.047
Mof_C 	C 	0.3739	0.87923	0.6492	0.003
Mof_C 	C 	0.40146	0.9235	0.66908	-0.024
Mof_H 	H 	0.4177	0.9511	0.6523	0.057
Mof_C 	C 	0.4048	0.92651	0.7135	-0.105
Mof_H 	H 	0.4233	0.9563	0.7261	0.073
Mof_C 	C 	0.3687	0.5526	0.8582	0.007
Mof_H 	H 	0.404	0.5463	0.8694	0.032
Mof_C 	C 	0.3343	0.5126	0.84427	0.01
Mof_H 	H 	0.3405	0.4745	0.8444	0.04
Mof_C 	C 	0.2965	0.5944	0.83698	0.107
Mof_H 	H 	0.2706	0.6218	0.8307	-0.008
Mof_C 	C 	0.2386	0.5142	0.8105	0.036
Mof_C 	C 	0.223	0.5199	0.7663	-0.023
Mof_N 	N 	0.43705	0.86665	0.80841	-0.092
Mof_N 	N 	0.34506	0.60373	0.85368	-0.262
Mof_N 	N 	0.2887	0.53969	0.82995	-0.126
Mof_O 	O 	0.51456	0.99332	0.81574	-0.273
Mof_O 	O 	0.46343	0.9491	0.86411	-0.436
Mof_O 	O 	0.40317	0.79118	0.86733	-0.494
Mof_O 	O 	0.40387	0.7219	0.82105	-0.464
Mof_Zn	Zn	0.87589	0.17755	0.37216	1.219
Mof_C 	C 	0.98813	0.45184	0.3278	0.39
Mof_C 	C 	0.9861	0.4017	0.29859	-0.379
Mof_H 	H 	0.9844	0.4138	0.2688	0.167
Mof_H 	H 	0.0197	0.38	0.3023	0.148
Mof_C 	C 	0.91468	0.27163	0.33112	0.424
Mof_C 	C 	0.9445	0.30775	0.29897	-0.391
Mof_H 	H 	0.9839	0.2989	0.2994	0.15
Mof_H 	H 	0.9306	0.2999	0.2702	0.166
Mof_C 	C 	0.88556	0.38922	0.2887	-0.181
Mof_H 	H 	0.8821	0.4279	0.2971	0.073
Mof_H 	H 	0.8541	0.3695	0.3009	0.068
Mof_C 	C 	0.88126	0.38606	0.23975	0.096
Mof_C 	C 	0.854	0.3421	0.21975	-0.111
Mof_H 	H 	0.8375	0.3147	0.2366	0.07
Mof_C 	C 	0.8509	0.3386	0.17529	-0.022
Mof_H 	H 	0.833	0.3084	0.1627	0.047
Mof_C 	C 	0.8739	0.37923	0.1492	0.003
Mof_C 	C 	0.90146	0.4235	0.16908	-0.024
Mof_H 	H 	0.9177	0.4511	0.1523	0.057
Mof_C 	C 	0.9048	0.42651	0.2135	-0.105
Mof_H 	H 	0.9233	0.4563	0.2261	0.073
Mof_C 	C 	0.8687	0.0526	0.3582	0.007
Mof_H 	H 	0.904	0.0463	0.3694	0.032
Mof_C 	C 	0.8343	0.0126	0.34427	0.008
Mof_H 	H 	0.8405	0.9745	0.3444	0.041
Mof_C 	C 	0.7965	0.0944	0.33698	0.107
Mof_H 	H 	0.7706	0.1218	0.3307	-0.008
Mof_C 	C 	0.7386	0.0142	0.3105	0.036
Mof_C 	C 	0.723	0.0199	0.2663	-0.023
Mof_N 	N 	0.93705	0.36665	0.30841	-0.092
Mof_N 	N 	0.84506	0.10373	0.35368	-0.262
Mof_N 	N 	0.7887	0.03969	0.32995	-0.126
Mof_O 	O 	0.01456	0.49332	0.31574	-0.273
Mof_O 	O 	0.96343	0.4491	0.36411	-0.436
Mof_O 	O 	0.90317	0.29118	0.36733	-0.494
Mof_O 	O 	0.90387	0.2219	0.32105	-0.464
Mof_Zn	Zn	0.92755	0.12589	0.87783	1.219
Mof_C 	C 	0.20184	0.23813	0.9222	0.39
Mof_C 	C 	0.1517	0.2361	0.95141	-0.379
Mof_H 	H 	0.1638	0.2344	0.9812	0.167
Mof_H 	H 	0.13	0.2697	0.9477	0.148
Mof_C 	C 	0.02163	0.16468	0.91888	0.424
Mof_C 	C 	0.05775	0.1945	0.95103	-0.391
Mof_H 	H 	0.0489	0.2339	0.9506	0.15
Mof_H 	H 	0.0499	0.1806	0.9798	0.166
Mof_C 	C 	0.13922	0.13556	0.9613	-0.18
Mof_H 	H 	0.1779	0.1321	0.9529	0.073
Mof_H 	H 	0.1195	0.1041	0.9491	0.068
Mof_C 	C 	0.13606	0.13126	0.01025	0.096
Mof_C 	C 	0.0921	0.104	0.03025	-0.11
Mof_H 	H 	0.0647	0.0875	0.0134	0.07
Mof_C 	C 	0.0886	0.1009	0.07471	-0.023
Mof_H 	H 	0.0584	0.083	0.0873	0.047
Mof_C 	C 	0.12923	0.1239	0.1008	0.003
Mof_C 	C 	0.1735	0.15146	0.08092	-0.025
Mof_H 	H 	0.2011	0.1677	0.0977	0.057
Mof_C 	C 	0.17651	0.1548	0.0365	-0.104
Mof_H 	H 	0.2063	0.1733	0.0239	0.073
Mof_C 	C 	0.8026	0.1187	0.8918	0.007
Mof_H 	H 	0.7963	0.154	0.8806	0.032
Mof_C 	C 	0.7626	0.0843	0.90573	0.01
Mof_H 	H 	0.7245	0.0905	0.9056	0.04
Mof_C 	C 	0.8444	0.0465	0.91302	0.107
Mof_H 	H 	0.8718	0.0206	0.9193	-0.008
Mof_C 	C 	0.7642	0.9886	0.9395	0.036
Mof_C 	C 	0.7699	0.973	0.9837	-0.022
Mof_N 	N 	0.11665	0.18705	0.94159	-0.092
Mof_N 	N 	0.85373	0.09506	0.89632	-0.262
Mof_N 	N 	0.78969	0.0387	0.92005	-0.126
Mof_O 	O 	0.24332	0.26456	0.93426	-0.273
Mof_O 	O 	0.1991	0.21343	0.88589	-0.436
Mof_O 	O 	0.04118	0.15317	0.88267	-0.494
Mof_O 	O 	0.9719	0.15387	0.92895	-0.464
Mof_Zn	Zn	0.42755	0.62589	0.37783	1.219
Mof_C 	C 	0.70184	0.73813	0.4222	0.39
Mof_C 	C 	0.6517	0.7361	0.45141	-0.379
Mof_H 	H 	0.6638	0.7344	0.4812	0.167
Mof_H 	H 	0.63	0.7697	0.4477	0.148
Mof_C 	C 	0.52163	0.66468	0.41888	0.424
Mof_C 	C 	0.55775	0.6945	0.45103	-0.391
Mof_H 	H 	0.5489	0.7339	0.4506	0.15
Mof_H 	H 	0.5499	0.6806	0.4798	0.166
Mof_C 	C 	0.63922	0.63556	0.4613	-0.181
Mof_H 	H 	0.6779	0.6321	0.4529	0.073
Mof_H 	H 	0.6195	0.6041	0.4491	0.068
Mof_C 	C 	0.63606	0.63126	0.51025	0.096
Mof_C 	C 	0.5921	0.604	0.53025	-0.111
Mof_H 	H 	0.5647	0.5875	0.5134	0.07
Mof_C 	C 	0.5886	0.6009	0.57471	-0.023
Mof_H 	H 	0.5584	0.583	0.5873	0.047
Mof_C 	C 	0.62923	0.6239	0.6008	0.003
Mof_C 	C 	0.6735	0.65146	0.58092	-0.024
Mof_H 	H 	0.7011	0.6677	0.5977	0.057
Mof_C 	C 	0.67651	0.6548	0.5365	-0.105
Mof_H 	H 	0.7063	0.6733	0.5239	0.073
Mof_C 	C 	0.3026	0.6187	0.3918	0.007
Mof_H 	H 	0.2963	0.654	0.3806	0.032
Mof_C 	C 	0.2626	0.5843	0.40573	0.01
Mof_H 	H 	0.2245	0.5905	0.4056	0.04
Mof_C 	C 	0.3444	0.5465	0.41302	0.107
Mof_H 	H 	0.3718	0.5206	0.4193	-0.008
Mof_C 	C 	0.2642	0.4886	0.4395	0.036
Mof_C 	C 	0.2699	0.473	0.4837	-0.023
Mof_N 	N 	0.61665	0.68705	0.44159	-0.092
Mof_N 	N 	0.35373	0.59506	0.39632	-0.262
Mof_N 	N 	0.28969	0.5387	0.42005	-0.126
Mof_O 	O 	0.74332	0.76456	0.43426	-0.273
Mof_O 	O 	0.6991	0.71343	0.38589	-0.436
Mof_O 	O 	0.54118	0.65317	0.38267	-0.494
Mof_O 	O 	0.4719	0.65387	0.42895	-0.464
Mof_Zn	Zn	0.57245	0.87411	0.37783	1.219
Mof_C 	C 	0.29816	0.76187	0.4222	0.39
Mof_C 	C 	0.3483	0.7639	0.45141	-0.379
Mof_H 	H 	0.3362	0.7656	0.4812	0.167
Mof_H 	H 	0.37	0.7303	0.4477	0.148
Mof_C 	C 	0.47837	0.83532	0.41888	0.424
Mof_C 	C 	0.44225	0.8055	0.45103	-0.391
Mof_H 	H 	0.4511	0.7661	0.4506	0.15
Mof_H 	H 	0.4501	0.8194	0.4798	0.166
Mof_C 	C 	0.36078	0.86444	0.4613	-0.181
Mof_H 	H 	0.3221	0.8679	0.4529	0.073
Mof_H 	H 	0.3805	0.8959	0.4491	0.068
Mof_C 	C 	0.36394	0.86874	0.51025	0.096
Mof_C 	C 	0.4079	0.896	0.53025	-0.111
Mof_H 	H 	0.4353	0.9125	0.5134	0.07
Mof_C 	C 	0.4114	0.8991	0.57471	-0.023
Mof_H 	H 	0.4416	0.917	0.5873	0.047
Mof_C 	C 	0.37077	0.8761	0.6008	0.003
Mof_C 	C 	0.3265	0.84854	0.58092	-0.024
Mof_H 	H 	0.2989	0.8323	0.5977	0.057
Mof_C 	C 	0.32349	0.8452	0.5365	-0.105
Mof_H 	H 	0.2937	0.8267	0.5239	0.073
Mof_C 	C 	0.6974	0.8813	0.3918	0.007
Mof_H 	H 	0.7037	0.846	0.3806	0.032
Mof_C 	C 	0.7374	0.9157	0.40573	0.01
Mof_H 	H 	0.7755	0.9095	0.4056	0.04
Mof_C 	C 	0.6556	0.9535	0.41302	0.107
Mof_H 	H 	0.6282	0.9794	0.4193	-0.008
Mof_C 	C 	0.7358	0.0114	0.4395	0.036
Mof_C 	C 	0.7301	0.027	0.4837	-0.024
Mof_N 	N 	0.38335	0.81295	0.44159	-0.092
Mof_N 	N 	0.64627	0.90494	0.39632	-0.262
Mof_N 	N 	0.71031	0.9613	0.42005	-0.126
Mof_O 	O 	0.25668	0.73544	0.43426	-0.273
Mof_O 	O 	0.3009	0.78657	0.38589	-0.436
Mof_O 	O 	0.45882	0.84683	0.38267	-0.494
Mof_O 	O 	0.5281	0.84613	0.42895	-0.464
Mof_Zn	Zn	0.07245	0.37411	0.87783	1.219
Mof_C 	C 	0.79816	0.26187	0.9222	0.39
Mof_C 	C 	0.8483	0.2639	0.95141	-0.379
Mof_H 	H 	0.8362	0.2656	0.9812	0.167
Mof_H 	H 	0.87	0.2303	0.9477	0.148
Mof_C 	C 	0.97837	0.33532	0.91888	0.424
Mof_C 	C 	0.94225	0.3055	0.95103	-0.391
Mof_H 	H 	0.9511	0.2661	0.9506	0.15
Mof_H 	H 	0.9501	0.3194	0.9798	0.166
Mof_C 	C 	0.86078	0.36444	0.9613	-0.18
Mof_H 	H 	0.8221	0.3679	0.9529	0.073
Mof_H 	H 	0.8805	0.3959	0.9491	0.068
Mof_C 	C 	0.86394	0.36874	0.01025	0.096
Mof_C 	C 	0.9079	0.396	0.03025	-0.11
Mof_H 	H 	0.9353	0.4125	0.0134	0.07
Mof_C 	C 	0.9114	0.3991	0.07471	-0.023
Mof_H 	H 	0.9416	0.417	0.0873	0.047
Mof_C 	C 	0.87077	0.3761	0.1008	0.003
Mof_C 	C 	0.8265	0.34854	0.08092	-0.025
Mof_H 	H 	0.7989	0.3323	0.0977	0.057
Mof_C 	C 	0.82349	0.3452	0.0365	-0.104
Mof_H 	H 	0.7937	0.3267	0.0239	0.073
Mof_C 	C 	0.1974	0.3813	0.8918	0.007
Mof_H 	H 	0.2037	0.346	0.8806	0.032
Mof_C 	C 	0.2374	0.4157	0.90573	0.01
Mof_H 	H 	0.2755	0.4095	0.9056	0.04
Mof_C 	C 	0.1556	0.4535	0.91302	0.107
Mof_H 	H 	0.1282	0.4794	0.9193	-0.008
Mof_C 	C 	0.2358	0.5114	0.9395	0.036
Mof_C 	C 	0.2301	0.527	0.9837	-0.023
Mof_N 	N 	0.88335	0.31295	0.94159	-0.092
Mof_N 	N 	0.14627	0.40494	0.89632	-0.262
Mof_N 	N 	0.21031	0.4613	0.92005	-0.126
Mof_O 	O 	0.75668	0.23544	0.93426	-0.273
Mof_O 	O 	0.8009	0.28657	0.88589	-0.436
Mof_O 	O 	0.95882	0.34683	0.88267	-0.494
Mof_O 	O 	0.0281	0.34613	0.92895	-0.464
Mof_Zn	Zn	0.37589	0.32245	0.62783	1.219
Mof_C 	C 	0.48813	0.04816	0.6722	0.39
Mof_C 	C 	0.4861	0.0983	0.70141	-0.379
Mof_H 	H 	0.4844	0.0862	0.7312	0.167
Mof_H 	H 	0.5197	0.12	0.6977	0.148
Mof_C 	C 	0.41468	0.22837	0.66888	0.424
Mof_C 	C 	0.4445	0.19225	0.70103	-0.391
Mof_H 	H 	0.4839	0.2011	0.7006	0.15
Mof_H 	H 	0.4306	0.2001	0.7298	0.166
Mof_C 	C 	0.38556	0.11078	0.7113	-0.18
Mof_H 	H 	0.3821	0.0721	0.7029	0.072
Mof_H 	H 	0.3541	0.1305	0.6991	0.068
Mof_C 	C 	0.38126	0.11394	0.76025	0.096
Mof_C 	C 	0.354	0.1579	0.78025	-0.111
Mof_H 	H 	0.3375	0.1853	0.7634	0.07
Mof_C 	C 	0.3509	0.1614	0.82471	-0.023
Mof_H 	H 	0.333	0.1916	0.8373	0.047
Mof_C 	C 	0.3739	0.12077	0.8508	0.003
Mof_C 	C 	0.40146	0.0765	0.83092	-0.025
Mof_H 	H 	0.4177	0.0489	0.8477	0.057
Mof_C 	C 	0.4048	0.07349	0.7865	-0.105
Mof_H 	H 	0.4233	0.0437	0.7739	0.073
Mof_C 	C 	0.3687	0.4474	0.6418	0.007
Mof_H 	H 	0.404	0.4537	0.6306	0.032
Mof_C 	C 	0.3343	0.4874	0.65573	0.01
Mof_H 	H 	0.3405	0.5255	0.6556	0.04
Mof_C 	C 	0.2965	0.4056	0.66302	0.107
Mof_H 	H 	0.2706	0.3782	0.6693	-0.008
Mof_C 	C 	0.2386	0.4858	0.6895	0.036
Mof_C 	C 	0.223	0.4801	0.7337	-0.023
Mof_N 	N 	0.43705	0.13335	0.69159	-0.092
Mof_N 	N 	0.34506	0.39627	0.64632	-0.262
Mof_N 	N 	0.2887	0.46031	0.67005	-0.126
Mof_O 	O 	0.51456	0.00668	0.68426	-0.273
Mof_O 	O 	0.46343	0.0509	0.63589	-0.437
Mof_O 	O 	0.40317	0.20882	0.63267	-0.494
Mof_O 	O 	0.40387	0.2781	0.67895	-0.464
Mof_Zn	Zn	0.87589	0.82245	0.12783	1.219
Mof_C 	C 	0.98813	0.54816	0.1722	0.39
Mof_C 	C 	0.9861	0.5983	0.20141	-0.379
Mof_H 	H 	0.9844	0.5862	0.2312	0.167
Mof_H 	H 	0.0197	0.62	0.1977	0.148
Mof_C 	C 	0.91468	0.72837	0.16888	0.424
Mof_C 	C 	0.9445	0.69225	0.20103	-0.391
Mof_H 	H 	0.9839	0.7011	0.2006	0.15
Mof_H 	H 	0.9306	0.7001	0.2298	0.166
Mof_C 	C 	0.88556	0.61078	0.2113	-0.181
Mof_H 	H 	0.8821	0.5721	0.2029	0.073
Mof_H 	H 	0.8541	0.6305	0.1991	0.068
Mof_C 	C 	0.88126	0.61394	0.26025	0.096
Mof_C 	C 	0.854	0.6579	0.28025	-0.111
Mof_H 	H 	0.8375	0.6853	0.2634	0.07
Mof_C 	C 	0.8509	0.6614	0.32471	-0.023
Mof_H 	H 	0.833	0.6916	0.3373	0.047
Mof_C 	C 	0.8739	0.62077	0.3508	0.003
Mof_C 	C 	0.90146	0.5765	0.33092	-0.024
Mof_H 	H 	0.9177	0.5489	0.3477	0.057
Mof_C 	C 	0.9048	0.57349	0.2865	-0.105
Mof_H 	H 	0.9233	0.5437	0.2739	0.073
Mof_C 	C 	0.8687	0.9474	0.1418	0.006
Mof_H 	H 	0.904	0.9537	0.1306	0.033
Mof_C 	C 	0.8343	0.9874	0.15573	0.01
Mof_H 	H 	0.8405	0.0255	0.1556	0.04
Mof_C 	C 	0.7965	0.9056	0.16302	0.107
Mof_H 	H 	0.7706	0.8782	0.1693	-0.008
Mof_C 	C 	0.7386	0.9858	0.1895	0.036
Mof_C 	C 	0.723	0.9801	0.2337	-0.023
Mof_N 	N 	0.93705	0.63335	0.19159	-0.092
Mof_N 	N 	0.84506	0.89627	0.14632	-0.262
Mof_N 	N 	0.7887	0.96031	0.17005	-0.126
Mof_O 	O 	0.01456	0.50668	0.18426	-0.273
Mof_O 	O 	0.96343	0.5509	0.13589	-0.436
Mof_O 	O 	0.90317	0.70882	0.13267	-0.494
Mof_O 	O 	0.90387	0.7781	0.17895	-0.464
Mof_Zn	Zn	0.12411	0.67755	0.12783	1.219
Mof_C 	C 	0.01187	0.95184	0.1722	0.39
Mof_C 	C 	0.0139	0.9017	0.20141	-0.379
Mof_H 	H 	0.0156	0.9138	0.2312	0.167
Mof_H 	H 	0.9803	0.88	0.1977	0.148
Mof_C 	C 	0.08532	0.77163	0.16888	0.424
Mof_C 	C 	0.0555	0.80775	0.20103	-0.391
Mof_H 	H 	0.0161	0.7989	0.2006	0.15
Mof_H 	H 	0.0694	0.7999	0.2298	0.166
Mof_C 	C 	0.11444	0.88922	0.2113	-0.181
Mof_H 	H 	0.1179	0.9279	0.2029	0.073
Mof_H 	H 	0.1459	0.8695	0.1991	0.068
Mof_C 	C 	0.11874	0.88606	0.26025	0.096
Mof_C 	C 	0.146	0.8421	0.28025	-0.111
Mof_H 	H 	0.1625	0.8147	0.2634	0.07
Mof_C 	C 	0.1491	0.8386	0.32471	-0.023
Mof_H 	H 	0.167	0.8084	0.3373	0.047
Mof_C 	C 	0.1261	0.87923	0.3508	0.003
Mof_C 	C 	0.09854	0.9235	0.33092	-0.024
Mof_H 	H 	0.0823	0.9511	0.3477	0.057
Mof_C 	C 	0.0952	0.92651	0.2865	-0.105
Mof_H 	H 	0.0767	0.9563	0.2739	0.073
Mof_C 	C 	0.1313	0.5526	0.1418	0.007
Mof_H 	H 	0.096	0.5463	0.1306	0.032
Mof_C 	C 	0.1657	0.5126	0.15573	0.01
Mof_H 	H 	0.1595	0.4745	0.1556	0.04
Mof_C 	C 	0.2035	0.5944	0.16302	0.107
Mof_H 	H 	0.2294	0.6218	0.1693	-0.008
Mof_C 	C 	0.2614	0.5142	0.1895	0.036
Mof_C 	C 	0.277	0.5199	0.2337	-0.023
Mof_N 	N 	0.06295	0.86665	0.19159	-0.092
Mof_N 	N 	0.15494	0.60373	0.14632	-0.262
Mof_N 	N 	0.2113	0.53969	0.17005	-0.126
Mof_O 	O 	0.98544	0.99332	0.18426	-0.273
Mof_O 	O 	0.03657	0.9491	0.13589	-0.436
Mof_O 	O 	0.09683	0.79118	0.13267	-0.494
Mof_O 	O 	0.09613	0.7219	0.17895	-0.464
Mof_Zn	Zn	0.62411	0.17755	0.62783	1.219
Mof_C 	C 	0.51187	0.45184	0.6722	0.39
Mof_C 	C 	0.5139	0.4017	0.70141	-0.379
Mof_H 	H 	0.5156	0.4138	0.7312	0.167
Mof_H 	H 	0.4803	0.38	0.6977	0.148
Mof_C 	C 	0.58532	0.27163	0.66888	0.424
Mof_C 	C 	0.5555	0.30775	0.70103	-0.391
Mof_H 	H 	0.5161	0.2989	0.7006	0.15
Mof_H 	H 	0.5694	0.2999	0.7298	0.166
Mof_C 	C 	0.61444	0.38922	0.7113	-0.181
Mof_H 	H 	0.6179	0.4279	0.7029	0.073
Mof_H 	H 	0.6459	0.3695	0.6991	0.068
Mof_C 	C 	0.61874	0.38606	0.76025	0.096
Mof_C 	C 	0.646	0.3421	0.78025	-0.111
Mof_H 	H 	0.6625	0.3147	0.7634	0.07
Mof_C 	C 	0.6491	0.3386	0.82471	-0.023
Mof_H 	H 	0.667	0.3084	0.8373	0.047
Mof_C 	C 	0.6261	0.37923	0.8508	0.003
Mof_C 	C 	0.59854	0.4235	0.83092	-0.025
Mof_H 	H 	0.5823	0.4511	0.8477	0.057
Mof_C 	C 	0.5952	0.42651	0.7865	-0.105
Mof_H 	H 	0.5767	0.4563	0.7739	0.073
Mof_C 	C 	0.6313	0.0526	0.6418	0.007
Mof_H 	H 	0.596	0.0463	0.6306	0.032
Mof_C 	C 	0.6657	0.0126	0.65573	0.008
Mof_H 	H 	0.6595	0.9745	0.6556	0.041
Mof_C 	C 	0.7035	0.0944	0.66302	0.107
Mof_H 	H 	0.7294	0.1218	0.6693	-0.008
Mof_C 	C 	0.7614	0.0142	0.6895	0.036
Mof_C 	C 	0.777	0.0199	0.7337	-0.023
Mof_N 	N 	0.56295	0.36665	0.69159	-0.092
Mof_N 	N 	0.65494	0.10373	0.64632	-0.262
Mof_N 	N 	0.7113	0.03969	0.67005	-0.126
Mof_O 	O 	0.48544	0.49332	0.68426	-0.273
Mof_O 	O 	0.53657	0.4491	0.63589	-0.436
Mof_O 	O 	0.59683	0.29118	0.63267	-0.494
Mof_O 	O 	0.59613	0.2219	0.67895	-0.464
Mof_Zn	Zn	0.42755	0.87411	0.87783	1.219
Mof_C 	C 	0.70184	0.76187	0.9222	0.39
Mof_C 	C 	0.6517	0.7639	0.95141	-0.379
Mof_H 	H 	0.6638	0.7656	0.9812	0.167
Mof_H 	H 	0.63	0.7303	0.9477	0.148
Mof_C 	C 	0.52163	0.83532	0.91888	0.424
Mof_C 	C 	0.55775	0.8055	0.95103	-0.391
Mof_H 	H 	0.5489	0.7661	0.9506	0.15
Mof_H 	H 	0.5499	0.8194	0.9798	0.166
Mof_C 	C 	0.63922	0.86444	0.9613	-0.18
Mof_H 	H 	0.6779	0.8679	0.9529	0.073
Mof_H 	H 	0.6195	0.8959	0.9491	0.068
Mof_C 	C 	0.63606	0.86874	0.01025	0.096
Mof_C 	C 	0.5921	0.896	0.03025	-0.11
Mof_H 	H 	0.5647	0.9125	0.0134	0.07
Mof_C 	C 	0.5886	0.8991	0.07471	-0.023
Mof_H 	H 	0.5584	0.917	0.0873	0.047
Mof_C 	C 	0.62923	0.8761	0.1008	0.003
Mof_C 	C 	0.6735	0.84854	0.08092	-0.025
Mof_H 	H 	0.7011	0.8323	0.0977	0.057
Mof_C 	C 	0.67651	0.8452	0.0365	-0.104
Mof_H 	H 	0.7063	0.8267	0.0239	0.073
Mof_C 	C 	0.3026	0.8813	0.8918	0.007
Mof_H 	H 	0.2963	0.846	0.8806	0.032
Mof_C 	C 	0.2626	0.9157	0.90573	0.01
Mof_H 	H 	0.2245	0.9095	0.9056	0.04
Mof_C 	C 	0.3444	0.9535	0.91302	0.107
Mof_H 	H 	0.3718	0.9794	0.9193	-0.008
Mof_C 	C 	0.2642	0.0114	0.9395	0.036
Mof_C 	C 	0.2699	0.027	0.9837	-0.023
Mof_N 	N 	0.61665	0.81295	0.94159	-0.092
Mof_N 	N 	0.35373	0.90494	0.89632	-0.262
Mof_N 	N 	0.28969	0.9613	0.92005	-0.126
Mof_O 	O 	0.74332	0.73544	0.93426	-0.273
Mof_O 	O 	0.6991	0.78657	0.88589	-0.436
Mof_O 	O 	0.54118	0.84683	0.88267	-0.494
Mof_O 	O 	0.4719	0.84613	0.92895	-0.464
Mof_Zn	Zn	0.92755	0.37411	0.37783	1.219
Mof_C 	C 	0.20184	0.26187	0.4222	0.39
Mof_C 	C 	0.1517	0.2639	0.45141	-0.379
Mof_H 	H 	0.1638	0.2656	0.4812	0.167
Mof_H 	H 	0.13	0.2303	0.4477	0.148
Mof_C 	C 	0.02163	0.33532	0.41888	0.424
Mof_C 	C 	0.05775	0.3055	0.45103	-0.391
Mof_H 	H 	0.0489	0.2661	0.4506	0.15
Mof_H 	H 	0.0499	0.3194	0.4798	0.166
Mof_C 	C 	0.13922	0.36444	0.4613	-0.181
Mof_H 	H 	0.1779	0.3679	0.4529	0.073
Mof_H 	H 	0.1195	0.3959	0.4491	0.068
Mof_C 	C 	0.13606	0.36874	0.51025	0.096
Mof_C 	C 	0.0921	0.396	0.53025	-0.111
Mof_H 	H 	0.0647	0.4125	0.5134	0.07
Mof_C 	C 	0.0886	0.3991	0.57471	-0.023
Mof_H 	H 	0.0584	0.417	0.5873	0.047
Mof_C 	C 	0.12923	0.3761	0.6008	0.003
Mof_C 	C 	0.1735	0.34854	0.58092	-0.024
Mof_H 	H 	0.2011	0.3323	0.5977	0.057
Mof_C 	C 	0.17651	0.3452	0.5365	-0.105
Mof_H 	H 	0.2063	0.3267	0.5239	0.073
Mof_C 	C 	0.8026	0.3813	0.3918	0.007
Mof_H 	H 	0.7963	0.346	0.3806	0.032
Mof_C 	C 	0.7626	0.4157	0.40573	0.01
Mof_H 	H 	0.7245	0.4095	0.4056	0.04
Mof_C 	C 	0.8444	0.4535	0.41302	0.107
Mof_H 	H 	0.8718	0.4794	0.4193	-0.008
Mof_C 	C 	0.7642	0.5114	0.4395	0.036
Mof_C 	C 	0.7699	0.527	0.4837	-0.023
Mof_N 	N 	0.11665	0.31295	0.44159	-0.092
Mof_N 	N 	0.85373	0.40494	0.39632	-0.262
Mof_N 	N 	0.78969	0.4613	0.42005	-0.126
Mof_O 	O 	0.24332	0.23544	0.43426	-0.273
Mof_O 	O 	0.1991	0.28657	0.38589	-0.436
Mof_O 	O 	0.04118	0.34683	0.38267	-0.494
Mof_O 	O 	0.9719	0.34613	0.42895	-0.464
Mof_Zn	Zn	0.07245	0.12589	0.37783	1.219
Mof_C 	C 	0.79816	0.23813	0.4222	0.39
Mof_C 	C 	0.8483	0.2361	0.45141	-0.379
Mof_H 	H 	0.8362	0.2344	0.4812	0.167
Mof_H 	H 	0.87	0.2697	0.4477	0.148
Mof_C 	C 	0.97837	0.16468	0.41888	0.424
Mof_C 	C 	0.94225	0.1945	0.45103	-0.391
Mof_H 	H 	0.9511	0.2339	0.4506	0.15
Mof_H 	H 	0.9501	0.1806	0.4798	0.165
Mof_C 	C 	0.86078	0.13556	0.4613	-0.181
Mof_H 	H 	0.8221	0.1321	0.4529	0.073
Mof_H 	H 	0.8805	0.1041	0.4491	0.068
Mof_C 	C 	0.86394	0.13126	0.51025	0.096
Mof_C 	C 	0.9079	0.104	0.53025	-0.111
Mof_H 	H 	0.9353	0.0875	0.5134	0.07
Mof_C 	C 	0.9114	0.1009	0.57471	-0.023
Mof_H 	H 	0.9416	0.083	0.5873	0.047
Mof_C 	C 	0.87077	0.1239	0.6008	0.003
Mof_C 	C 	0.8265	0.15146	0.58092	-0.024
Mof_H 	H 	0.7989	0.1677	0.5977	0.057
Mof_C 	C 	0.82349	0.1548	0.5365	-0.105
Mof_H 	H 	0.7937	0.1733	0.5239	0.073
Mof_C 	C 	0.1974	0.1187	0.3918	0.007
Mof_H 	H 	0.2037	0.154	0.3806	0.032
Mof_C 	C 	0.2374	0.0843	0.40573	0.01
Mof_H 	H 	0.2755	0.0905	0.4056	0.04
Mof_C 	C 	0.1556	0.0465	0.41302	0.107
Mof_H 	H 	0.1282	0.0206	0.4193	-0.008
Mof_C 	C 	0.2358	0.9886	0.4395	0.036
Mof_C 	C 	0.2301	0.973	0.4837	-0.023
Mof_N 	N 	0.88335	0.18705	0.44159	-0.092
Mof_N 	N 	0.14627	0.09506	0.39632	-0.262
Mof_N 	N 	0.21031	0.0387	0.42005	-0.126
Mof_O 	O 	0.75668	0.26456	0.43426	-0.273
Mof_O 	O 	0.8009	0.21343	0.38589	-0.436
Mof_O 	O 	0.95882	0.15317	0.38267	-0.494
Mof_O 	O 	0.0281	0.15387	0.42895	-0.464
Mof_Zn	Zn	0.57245	0.62589	0.87783	1.219
Mof_C 	C 	0.29816	0.73813	0.9222	0.39
Mof_C 	C 	0.3483	0.7361	0.95141	-0.379
Mof_H 	H 	0.3362	0.7344	0.9812	0.167
Mof_H 	H 	0.37	0.7697	0.9477	0.148
Mof_C 	C 	0.47837	0.66468	0.91888	0.424
Mof_C 	C 	0.44225	0.6945	0.95103	-0.391
Mof_H 	H 	0.4511	0.7339	0.9506	0.15
Mof_H 	H 	0.4501	0.6806	0.9798	0.166
Mof_C 	C 	0.36078	0.63556	0.9613	-0.18
Mof_H 	H 	0.3221	0.6321	0.9529	0.073
Mof_H 	H 	0.3805	0.6041	0.9491	0.068
Mof_C 	C 	0.36394	0.63126	0.01025	0.096
Mof_C 	C 	0.4079	0.604	0.03025	-0.11
Mof_H 	H 	0.4353	0.5875	0.0134	0.07
Mof_C 	C 	0.4114	0.6009	0.07471	-0.023
Mof_H 	H 	0.4416	0.583	0.0873	0.047
Mof_C 	C 	0.37077	0.6239	0.1008	0.003
Mof_C 	C 	0.3265	0.65146	0.08092	-0.025
Mof_H 	H 	0.2989	0.6677	0.0977	0.057
Mof_C 	C 	0.32349	0.6548	0.0365	-0.104
Mof_H 	H 	0.2937	0.6733	0.0239	0.073
Mof_C 	C 	0.6974	0.6187	0.8918	0.007
Mof_H 	H 	0.7037	0.654	0.8806	0.032
Mof_C 	C 	0.7374	0.5843	0.90573	0.01
Mof_H 	H 	0.7755	0.5905	0.9056	0.04
Mof_C 	C 	0.6556	0.5465	0.91302	0.107
Mof_H 	H 	0.6282	0.5206	0.9193	-0.008
Mof_C 	C 	0.7358	0.4886	0.9395	0.036
Mof_C 	C 	0.7301	0.473	0.9837	-0.023
Mof_N 	N 	0.38335	0.68705	0.94159	-0.092
Mof_N 	N 	0.64627	0.59506	0.89632	-0.262
Mof_N 	N 	0.71031	0.5387	0.92005	-0.126
Mof_O 	O 	0.25668	0.76456	0.93426	-0.273
Mof_O 	O 	0.3009	0.71343	0.88589	-0.436
Mof_O 	O 	0.45882	0.65317	0.88267	-0.494
Mof_O 	O 	0.5281	0.65387	0.92895	-0.464
Mof_Zn	Zn	0.87589	0.67755	0.62783	1.219
Mof_C 	C 	0.98813	0.95184	0.6722	0.39
Mof_C 	C 	0.9861	0.9017	0.70141	-0.379
Mof_H 	H 	0.9844	0.9138	0.7312	0.167
Mof_H 	H 	0.0197	0.88	0.6977	0.148
Mof_C 	C 	0.91468	0.77163	0.66888	0.424
Mof_C 	C 	0.9445	0.80775	0.70103	-0.391
Mof_H 	H 	0.9839	0.7989	0.7006	0.15
Mof_H 	H 	0.9306	0.7999	0.7298	0.166
Mof_C 	C 	0.88556	0.88922	0.7113	-0.181
Mof_H 	H 	0.8821	0.9279	0.7029	0.073
Mof_H 	H 	0.8541	0.8695	0.6991	0.068
Mof_C 	C 	0.88126	0.88606	0.76025	0.096
Mof_C 	C 	0.854	0.8421	0.78025	-0.111
Mof_H 	H 	0.8375	0.8147	0.7634	0.07
Mof_C 	C 	0.8509	0.8386	0.82471	-0.023
Mof_H 	H 	0.833	0.8084	0.8373	0.047
Mof_C 	C 	0.8739	0.87923	0.8508	0.003
Mof_C 	C 	0.90146	0.9235	0.83092	-0.025
Mof_H 	H 	0.9177	0.9511	0.8477	0.057
Mof_C 	C 	0.9048	0.92651	0.7865	-0.105
Mof_H 	H 	0.9233	0.9563	0.7739	0.073
Mof_C 	C 	0.8687	0.5526	0.6418	0.007
Mof_H 	H 	0.904	0.5463	0.6306	0.032
Mof_C 	C 	0.8343	0.5126	0.65573	0.01
Mof_H 	H 	0.8405	0.4745	0.6556	0.04
Mof_C 	C 	0.7965	0.5944	0.66302	0.107
Mof_H 	H 	0.7706	0.6218	0.6693	-0.008
Mof_C 	C 	0.7386	0.5142	0.6895	0.036
Mof_C 	C 	0.723	0.5199	0.7337	-0.023
Mof_N 	N 	0.93705	0.86665	0.69159	-0.092
Mof_N 	N 	0.84506	0.60373	0.64632	-0.262
Mof_N 	N 	0.7887	0.53969	0.67005	-0.126
Mof_O 	O 	0.01456	0.99332	0.68426	-0.273
Mof_O 	O 	0.96343	0.9491	0.63589	-0.436
Mof_O 	O 	0.90317	0.79118	0.63267	-0.494
Mof_O 	O 	0.90387	0.7219	0.67895	-0.464
Mof_Zn	Zn	0.37589	0.17755	0.12783	1.219
Mof_C 	C 	0.48813	0.45184	0.1722	0.39
Mof_C 	C 	0.4861	0.4017	0.20141	-0.379
Mof_H 	H 	0.4844	0.4138	0.2312	0.167
Mof_H 	H 	0.5197	0.38	0.1977	0.148
Mof_C 	C 	0.41468	0.27163	0.16888	0.424
Mof_C 	C 	0.4445	0.30775	0.20103	-0.391
Mof_H 	H 	0.4839	0.2989	0.2006	0.15
Mof_H 	H 	0.4306	0.2999	0.2298	0.166
Mof_C 	C 	0.38556	0.38922	0.2113	-0.181
Mof_H 	H 	0.3821	0.4279	0.2029	0.073
Mof_H 	H 	0.3541	0.3695	0.1991	0.068
Mof_C 	C 	0.38126	0.38606	0.26025	0.096
Mof_C 	C 	0.354	0.3421	0.28025	-0.111
Mof_H 	H 	0.3375	0.3147	0.2634	0.07
Mof_C 	C 	0.3509	0.3386	0.32471	-0.023
Mof_H 	H 	0.333	0.3084	0.3373	0.047
Mof_C 	C 	0.3739	0.37923	0.3508	0.003
Mof_C 	C 	0.40146	0.4235	0.33092	-0.024
Mof_H 	H 	0.4177	0.4511	0.3477	0.057
Mof_C 	C 	0.4048	0.42651	0.2865	-0.105
Mof_H 	H 	0.4233	0.4563	0.2739	0.073
Mof_C 	C 	0.3687	0.0526	0.1418	0.007
Mof_H 	H 	0.404	0.0463	0.1306	0.032
Mof_C 	C 	0.3343	0.0126	0.15573	0.008
Mof_H 	H 	0.3405	0.9745	0.1556	0.041
Mof_C 	C 	0.2965	0.0944	0.16302	0.107
Mof_H 	H 	0.2706	0.1218	0.1693	-0.008
Mof_C 	C 	0.2386	0.0142	0.1895	0.036
Mof_C 	C 	0.223	0.0199	0.2337	-0.023
Mof_N 	N 	0.43705	0.36665	0.19159	-0.092
Mof_N 	N 	0.34506	0.10373	0.14632	-0.262
Mof_N 	N 	0.2887	0.03969	0.17005	-0.126
Mof_O 	O 	0.51456	0.49332	0.18426	-0.273
Mof_O 	O 	0.46343	0.4491	0.13589	-0.436
Mof_O 	O 	0.40317	0.29118	0.13267	-0.494
Mof_O 	O 	0.40387	0.2219	0.17895	-0.464
Mof_Zn	Zn	0.62411	0.32245	0.12783	1.219
Mof_C 	C 	0.51187	0.04816	0.1722	0.39
Mof_C 	C 	0.5139	0.0983	0.20141	-0.379
Mof_H 	H 	0.5156	0.0862	0.2312	0.167
Mof_H 	H 	0.4803	0.12	0.1977	0.148
Mof_C 	C 	0.58532	0.22837	0.16888	0.424
Mof_C 	C 	0.5555	0.19225	0.20103	-0.391
Mof_H 	H 	0.5161	0.2011	0.2006	0.15
Mof_H 	H 	0.5694	0.2001	0.2298	0.166
Mof_C 	C 	0.61444	0.11078	0.2113	-0.181
Mof_H 	H 	0.6179	0.0721	0.2029	0.072
Mof_H 	H 	0.6459	0.1305	0.1991	0.068
Mof_C 	C 	0.61874	0.11394	0.26025	0.096
Mof_C 	C 	0.646	0.1579	0.28025	-0.111
Mof_H 	H 	0.6625	0.1853	0.2634	0.07
Mof_C 	C 	0.6491	0.1614	0.32471	-0.023
Mof_H 	H 	0.667	0.1916	0.3373	0.047
Mof_C 	C 	0.6261	0.12077	0.3508	0.003
Mof_C 	C 	0.59854	0.0765	0.33092	-0.025
Mof_H 	H 	0.5823	0.0489	0.3477	0.057
Mof_C 	C 	0.5952	0.07349	0.2865	-0.105
Mof_H 	H 	0.5767	0.0437	0.2739	0.073
Mof_C 	C 	0.6313	0.4474	0.1418	0.007
Mof_H 	H 	0.596	0.4537	0.1306	0.032
Mof_C 	C 	0.6657	0.4874	0.15573	0.01
Mof_H 	H 	0.6595	0.5255	0.1556	0.04
Mof_C 	C 	0.7035	0.4056	0.16302	0.107
Mof_H 	H 	0.7294	0.3782	0.1693	-0.008
Mof_C 	C 	0.7614	0.4858	0.1895	0.036
Mof_C 	C 	0.777	0.4801	0.2337	-0.023
Mof_N 	N 	0.56295	0.13335	0.19159	-0.092
Mof_N 	N 	0.65494	0.39627	0.14632	-0.262
Mof_N 	N 	0.7113	0.46031	0.17005	-0.126
Mof_O 	O 	0.48544	0.00668	0.18426	-0.273
Mof_O 	O 	0.53657	0.0509	0.13589	-0.437
Mof_O 	O 	0.59683	0.20882	0.13267	-0.494
Mof_O 	O 	0.59613	0.2781	0.17895	-0.464
Mof_Zn	Zn	0.12411	0.82245	0.62783	1.219
Mof_C 	C 	0.01187	0.54816	0.6722	0.39
Mof_C 	C 	0.0139	0.5983	0.70141	-0.379
Mof_H 	H 	0.0156	0.5862	0.7312	0.167
Mof_H 	H 	0.9803	0.62	0.6977	0.148
Mof_C 	C 	0.08532	0.72837	0.66888	0.424
Mof_C 	C 	0.0555	0.69225	0.70103	-0.391
Mof_H 	H 	0.0161	0.7011	0.7006	0.15
Mof_H 	H 	0.0694	0.7001	0.7298	0.166
Mof_C 	C 	0.11444	0.61078	0.7113	-0.181
Mof_H 	H 	0.1179	0.5721	0.7029	0.073
Mof_H 	H 	0.1459	0.6305	0.6991	0.068
Mof_C 	C 	0.11874	0.61394	0.76025	0.096
Mof_C 	C 	0.146	0.6579	0.78025	-0.111
Mof_H 	H 	0.1625	0.6853	0.7634	0.07
Mof_C 	C 	0.1491	0.6614	0.82471	-0.023
Mof_H 	H 	0.167	0.6916	0.8373	0.047
Mof_C 	C 	0.1261	0.62077	0.8508	0.003
Mof_C 	C 	0.09854	0.5765	0.83092	-0.025
Mof_H 	H 	0.0823	0.5489	0.8477	0.057
Mof_C 	C 	0.0952	0.57349	0.7865	-0.105
Mof_H 	H 	0.0767	0.5437	0.7739	0.073
Mof_C 	C 	0.1313	0.9474	0.6418	0.006
Mof_H 	H 	0.096	0.9537	0.6306	0.033
Mof_C 	C 	0.1657	0.9874	0.65573	0.01
Mof_H 	H 	0.1595	0.0255	0.6556	0.04
Mof_C 	C 	0.2035	0.9056	0.66302	0.107
Mof_H 	H 	0.2294	0.8782	0.6693	-0.008
Mof_C 	C 	0.2614	0.9858	0.6895	0.036
Mof_C 	C 	0.277	0.9801	0.7337	-0.023
Mof_N 	N 	0.06295	0.63335	0.69159	-0.092
Mof_N 	N 	0.15494	0.89627	0.64632	-0.262
Mof_N 	N 	0.2113	0.96031	0.67005	-0.126
Mof_O 	O 	0.98544	0.50668	0.68426	-0.273
Mof_O 	O 	0.03657	0.5509	0.63589	-0.436
Mof_O 	O 	0.09683	0.70882	0.63267	-0.494
Mof_O 	O 	0.09613	0.7781	0.67895	-0.464
Mof_Zn	Zn	0.07245	0.87411	0.12217	1.219
Mof_C 	C 	0.79816	0.76187	0.0778	0.39
Mof_C 	C 	0.8483	0.7639	0.04859	-0.379
Mof_H 	H 	0.8362	0.7656	0.0188	0.166
Mof_H 	H 	0.87	0.7303	0.0523	0.148
Mof_C 	C 	0.97837	0.83532	0.08112	0.424
Mof_C 	C 	0.94225	0.8055	0.04897	-0.391
Mof_H 	H 	0.9511	0.7661	0.0494	0.15
Mof_H 	H 	0.9501	0.8194	0.0202	0.165
Mof_C 	C 	0.86078	0.86444	0.0387	-0.181
Mof_H 	H 	0.8221	0.8679	0.0471	0.073
Mof_H 	H 	0.8805	0.8959	0.0509	0.068
Mof_C 	C 	0.86394	0.86874	0.98975	0.097
Mof_C 	C 	0.9079	0.896	0.96975	-0.111
Mof_H 	H 	0.9353	0.9125	0.9866	0.071
Mof_C 	C 	0.9114	0.8991	0.92529	-0.022
Mof_H 	H 	0.9416	0.917	0.9127	0.047
Mof_C 	C 	0.87077	0.8761	0.8992	0.003
Mof_C 	C 	0.8265	0.84854	0.91908	-0.024
Mof_H 	H 	0.7989	0.8323	0.9023	0.057
Mof_C 	C 	0.82349	0.8452	0.9635	-0.105
Mof_H 	H 	0.7937	0.8267	0.9761	0.074
Mof_C 	C 	0.1974	0.8813	0.1082	0.007
Mof_H 	H 	0.2037	0.846	0.1194	0.032
Mof_C 	C 	0.2374	0.9157	0.09427	0.01
Mof_H 	H 	0.2755	0.9095	0.0944	0.04
Mof_C 	C 	0.1556	0.9535	0.08698	0.107
Mof_H 	H 	0.1282	0.9794	0.0807	-0.008
Mof_C 	C 	0.2358	0.0114	0.0605	0.036
Mof_C 	C 	0.2301	0.027	0.0163	-0.024
Mof_N 	N 	0.88335	0.81295	0.05841	-0.092
Mof_N 	N 	0.14627	0.90494	0.10368	-0.262
Mof_N 	N 	0.21031	0.9613	0.07995	-0.126
Mof_O 	O 	0.75668	0.73544	0.06574	-0.273
Mof_O 	O 	0.8009	0.78657	0.11411	-0.436
Mof_O 	O 	0.95882	0.84683	0.11733	-0.494
Mof_O 	O 	0.0281	0.84613	0.07105	-0.464
Mof_Zn	Zn	0.57245	0.37411	0.62216	1.219
Mof_C 	C 	0.29816	0.26187	0.5778	0.39
Mof_C 	C 	0.3483	0.2639	0.54859	-0.379
Mof_H 	H 	0.3362	0.2656	0.5188	0.167
Mof_H 	H 	0.37	0.2303	0.5523	0.148
Mof_C 	C 	0.47837	0.33532	0.58112	0.424
Mof_C 	C 	0.44225	0.3055	0.54897	-0.391
Mof_H 	H 	0.4511	0.2661	0.5494	0.15
Mof_H 	H 	0.4501	0.3194	0.5202	0.166
Mof_C 	C 	0.36078	0.36444	0.5387	-0.181
Mof_H 	H 	0.3221	0.3679	0.5471	0.073
Mof_H 	H 	0.3805	0.3959	0.5509	0.068
Mof_C 	C 	0.36394	0.36874	0.48975	0.096
Mof_C 	C 	0.4079	0.396	0.46975	-0.111
Mof_H 	H 	0.4353	0.4125	0.4866	0.07
Mof_C 	C 	0.4114	0.3991	0.42529	-0.023
Mof_H 	H 	0.4416	0.417	0.4127	0.047
Mof_C 	C 	0.37077	0.3761	0.3992	0.003
Mof_C 	C 	0.3265	0.34854	0.41908	-0.024
Mof_H 	H 	0.2989	0.3323	0.4023	0.057
Mof_C 	C 	0.32349	0.3452	0.4635	-0.105
Mof_H 	H 	0.2937	0.3267	0.4761	0.073
Mof_C 	C 	0.6974	0.3813	0.6082	0.007
Mof_H 	H 	0.7037	0.346	0.6194	0.032
Mof_C 	C 	0.7374	0.4157	0.59427	0.01
Mof_H 	H 	0.7755	0.4095	0.5944	0.04
Mof_C 	C 	0.6556	0.4535	0.58698	0.107
Mof_H 	H 	0.6282	0.4794	0.5807	-0.008
Mof_C 	C 	0.7358	0.5114	0.5605	0.036
Mof_C 	C 	0.7301	0.527	0.5163	-0.023
Mof_N 	N 	0.38335	0.31295	0.55841	-0.092
Mof_N 	N 	0.64627	0.40494	0.60368	-0.262
Mof_N 	N 	0.71031	0.4613	0.57995	-0.126
Mof_O 	O 	0.25668	0.23544	0.56574	-0.273
Mof_O 	O 	0.3009	0.28657	0.61411	-0.436
Mof_O 	O 	0.45882	0.34683	0.61733	-0.494
Mof_O 	O 	0.5281	0.34613	0.57105	-0.464
Mof_Zn	Zn	0.42755	0.12589	0.62216	1.219
Mof_C 	C 	0.70184	0.23813	0.5778	0.39
Mof_C 	C 	0.6517	0.2361	0.54859	-0.379
Mof_H 	H 	0.6638	0.2344	0.5188	0.167
Mof_H 	H 	0.63	0.2697	0.5523	0.148
Mof_C 	C 	0.52163	0.16468	0.58112	0.424
Mof_C 	C 	0.55775	0.1945	0.54897	-0.391
Mof_H 	H 	0.5489	0.2339	0.5494	0.15
Mof_H 	H 	0.5499	0.1806	0.5202	0.166
Mof_C 	C 	0.63922	0.13556	0.5387	-0.181
Mof_H 	H 	0.6779	0.1321	0.5471	0.073
Mof_H 	H 	0.6195	0.1041	0.5509	0.068
Mof_C 	C 	0.63606	0.13126	0.48975	0.096
Mof_C 	C 	0.5921	0.104	0.46975	-0.111
Mof_H 	H 	0.5647	0.0875	0.4866	0.07
Mof_C 	C 	0.5886	0.1009	0.42529	-0.023
Mof_H 	H 	0.5584	0.083	0.4127	0.047
Mof_C 	C 	0.62923	0.1239	0.3992	0.003
Mof_C 	C 	0.6735	0.15146	0.41908	-0.024
Mof_H 	H 	0.7011	0.1677	0.4023	0.057
Mof_C 	C 	0.67651	0.1548	0.4635	-0.105
Mof_H 	H 	0.7063	0.1733	0.4761	0.073
Mof_C 	C 	0.3026	0.1187	0.6082	0.007
Mof_H 	H 	0.2963	0.154	0.6194	0.032
Mof_C 	C 	0.2626	0.0843	0.59427	0.01
Mof_H 	H 	0.2245	0.0905	0.5944	0.04
Mof_C 	C 	0.3444	0.0465	0.58698	0.107
Mof_H 	H 	0.3718	0.0206	0.5807	-0.008
Mof_C 	C 	0.2642	0.9886	0.5605	0.036
Mof_C 	C 	0.2699	0.973	0.5163	-0.023
Mof_N 	N 	0.61665	0.18705	0.55841	-0.092
Mof_N 	N 	0.35373	0.09506	0.60368	-0.262
Mof_N 	N 	0.28969	0.0387	0.57995	-0.126
Mof_O 	O 	0.74332	0.26456	0.56574	-0.273
Mof_O 	O 	0.6991	0.21343	0.61411	-0.436
Mof_O 	O 	0.54118	0.15317	0.61733	-0.494
Mof_O 	O 	0.4719	0.15387	0.57105	-0.464
Mof_Zn	Zn	0.92755	0.62589	0.12217	1.219
Mof_C 	C 	0.20184	0.73813	0.0778	0.39
Mof_C 	C 	0.1517	0.7361	0.04859	-0.379
Mof_H 	H 	0.1638	0.7344	0.0188	0.166
Mof_H 	H 	0.13	0.7697	0.0523	0.148
Mof_C 	C 	0.02163	0.66468	0.08112	0.424
Mof_C 	C 	0.05775	0.6945	0.04897	-0.391
Mof_H 	H 	0.0489	0.7339	0.0494	0.15
Mof_H 	H 	0.0499	0.6806	0.0202	0.165
Mof_C 	C 	0.13922	0.63556	0.0387	-0.181
Mof_H 	H 	0.1779	0.6321	0.0471	0.073
Mof_H 	H 	0.1195	0.6041	0.0509	0.068
Mof_C 	C 	0.13606	0.63126	0.98975	0.097
Mof_C 	C 	0.0921	0.604	0.96975	-0.111
Mof_H 	H 	0.0647	0.5875	0.9866	0.071
Mof_C 	C 	0.0886	0.6009	0.92529	-0.022
Mof_H 	H 	0.0584	0.583	0.9127	0.047
Mof_C 	C 	0.12923	0.6239	0.8992	0.003
Mof_C 	C 	0.1735	0.65146	0.91908	-0.024
Mof_H 	H 	0.2011	0.6677	0.9023	0.057
Mof_C 	C 	0.17651	0.6548	0.9635	-0.105
Mof_H 	H 	0.2063	0.6733	0.9761	0.074
Mof_C 	C 	0.8026	0.6187	0.1082	0.007
Mof_H 	H 	0.7963	0.654	0.1194	0.032
Mof_C 	C 	0.7626	0.5843	0.09427	0.01
Mof_H 	H 	0.7245	0.5905	0.0944	0.04
Mof_C 	C 	0.8444	0.5465	0.08698	0.107
Mof_H 	H 	0.8718	0.5206	0.0807	-0.008
Mof_C 	C 	0.7642	0.4886	0.0605	0.036
Mof_C 	C 	0.7699	0.473	0.0163	-0.024
Mof_N 	N 	0.11665	0.68705	0.05841	-0.092
Mof_N 	N 	0.85373	0.59506	0.10368	-0.262
Mof_N 	N 	0.78969	0.5387	0.07995	-0.126
Mof_O 	O 	0.24332	0.76456	0.06574	-0.273
Mof_O 	O 	0.1991	0.71343	0.11411	-0.436
Mof_O 	O 	0.04118	0.65317	0.11733	-0.494
Mof_O 	O 	0.9719	0.65387	0.07105	-0.464
Mof_Zn	Zn	0.62411	0.67755	0.37216	1.219
Mof_C 	C 	0.51187	0.95184	0.3278	0.39
Mof_C 	C 	0.5139	0.9017	0.29859	-0.379
Mof_H 	H 	0.5156	0.9138	0.2688	0.167
Mof_H 	H 	0.4803	0.88	0.3023	0.148
Mof_C 	C 	0.58532	0.77163	0.33112	0.424
Mof_C 	C 	0.5555	0.80775	0.29897	-0.391
Mof_H 	H 	0.5161	0.7989	0.2994	0.15
Mof_H 	H 	0.5694	0.7999	0.2702	0.166
Mof_C 	C 	0.61444	0.88922	0.2887	-0.181
Mof_H 	H 	0.6179	0.9279	0.2971	0.073
Mof_H 	H 	0.6459	0.8695	0.3009	0.068
Mof_C 	C 	0.61874	0.88606	0.23975	0.096
Mof_C 	C 	0.646	0.8421	0.21975	-0.111
Mof_H 	H 	0.6625	0.8147	0.2366	0.07
Mof_C 	C 	0.6491	0.8386	0.17529	-0.022
Mof_H 	H 	0.667	0.8084	0.1627	0.047
Mof_C 	C 	0.6261	0.87923	0.1492	0.003
Mof_C 	C 	0.59854	0.9235	0.16908	-0.024
Mof_H 	H 	0.5823	0.9511	0.1523	0.057
Mof_C 	C 	0.5952	0.92651	0.2135	-0.105
Mof_H 	H 	0.5767	0.9563	0.2261	0.073
Mof_C 	C 	0.6313	0.5526	0.3582	0.007
Mof_H 	H 	0.596	0.5463	0.3694	0.032
Mof_C 	C 	0.6657	0.5126	0.34427	0.01
Mof_H 	H 	0.6595	0.4745	0.3444	0.04
Mof_C 	C 	0.7035	0.5944	0.33698	0.107
Mof_H 	H 	0.7294	0.6218	0.3307	-0.008
Mof_C 	C 	0.7614	0.5142	0.3105	0.036
Mof_C 	C 	0.777	0.5199	0.2663	-0.023
Mof_N 	N 	0.56295	0.86665	0.30841	-0.092
Mof_N 	N 	0.65494	0.60373	0.35368	-0.262
Mof_N 	N 	0.7113	0.53969	0.32995	-0.126
Mof_O 	O 	0.48544	0.99332	0.31574	-0.273
Mof_O 	O 	0.53657	0.9491	0.36411	-0.436
Mof_O 	O 	0.59683	0.79118	0.36733	-0.494
Mof_O 	O 	0.59613	0.7219	0.32105	-0.464
Mof_Zn	Zn	0.12411	0.17755	0.87216	1.219
Mof_C 	C 	0.01187	0.45184	0.8278	0.39
Mof_C 	C 	0.0139	0.4017	0.79859	-0.379
Mof_H 	H 	0.0156	0.4138	0.7688	0.167
Mof_H 	H 	0.9803	0.38	0.8023	0.148
Mof_C 	C 	0.08532	0.27163	0.83112	0.424
Mof_C 	C 	0.0555	0.30775	0.79897	-0.391
Mof_H 	H 	0.0161	0.2989	0.7994	0.15
Mof_H 	H 	0.0694	0.2999	0.7702	0.166
Mof_C 	C 	0.11444	0.38922	0.7887	-0.181
Mof_H 	H 	0.1179	0.4279	0.7971	0.073
Mof_H 	H 	0.1459	0.3695	0.8009	0.068
Mof_C 	C 	0.11874	0.38606	0.73975	0.096
Mof_C 	C 	0.146	0.3421	0.71975	-0.111
Mof_H 	H 	0.1625	0.3147	0.7366	0.07
Mof_C 	C 	0.1491	0.3386	0.67529	-0.023
Mof_H 	H 	0.167	0.3084	0.6627	0.047
Mof_C 	C 	0.1261	0.37923	0.6492	0.003
Mof_C 	C 	0.09854	0.4235	0.66908	-0.024
Mof_H 	H 	0.0823	0.4511	0.6523	0.057
Mof_C 	C 	0.0952	0.42651	0.7135	-0.105
Mof_H 	H 	0.0767	0.4563	0.7261	0.073
Mof_C 	C 	0.1313	0.0526	0.8582	0.007
Mof_H 	H 	0.096	0.0463	0.8694	0.032
Mof_C 	C 	0.1657	0.0126	0.84427	0.008
Mof_H 	H 	0.1595	0.9745	0.8444	0.041
Mof_C 	C 	0.2035	0.0944	0.83698	0.107
Mof_H 	H 	0.2294	0.1218	0.8307	-0.008
Mof_C 	C 	0.2614	0.0142	0.8105	0.036
Mof_C 	C 	0.277	0.0199	0.7663	-0.023
Mof_N 	N 	0.06295	0.36665	0.80841	-0.092
Mof_N 	N 	0.15494	0.10373	0.85368	-0.262
Mof_N 	N 	0.2113	0.03969	0.82995	-0.126
Mof_O 	O 	0.98544	0.49332	0.81574	-0.273
Mof_O 	O 	0.03657	0.4491	0.86411	-0.436
Mof_O 	O 	0.09683	0.29118	0.86733	-0.494
Mof_O 	O 	0.09613	0.2219	0.82105	-0.464
Mof_Zn	Zn	0.87589	0.32245	0.87216	1.219
Mof_C 	C 	0.98813	0.04816	0.8278	0.39
Mof_C 	C 	0.9861	0.0983	0.79859	-0.379
Mof_H 	H 	0.9844	0.0862	0.7688	0.167
Mof_H 	H 	0.0197	0.12	0.8023	0.148
Mof_C 	C 	0.91468	0.22837	0.83112	0.424
Mof_C 	C 	0.9445	0.19225	0.79897	-0.391
Mof_H 	H 	0.9839	0.2011	0.7994	0.15
Mof_H 	H 	0.9306	0.2001	0.7702	0.166
Mof_C 	C 	0.88556	0.11078	0.7887	-0.181
Mof_H 	H 	0.8821	0.0721	0.7971	0.072
Mof_H 	H 	0.8541	0.1305	0.8009	0.068
Mof_C 	C 	0.88126	0.11394	0.73975	0.096
Mof_C 	C 	0.854	0.1579	0.71975	-0.111
Mof_H 	H 	0.8375	0.1853	0.7366	0.07
Mof_C 	C 	0.8509	0.1614	0.67529	-0.023
Mof_H 	H 	0.833	0.1916	0.6627	0.047
Mof_C 	C 	0.8739	0.12077	0.6492	0.003
Mof_C 	C 	0.90146	0.0765	0.66908	-0.025
Mof_H 	H 	0.9177	0.0489	0.6523	0.057
Mof_C 	C 	0.9048	0.07349	0.7135	-0.105
Mof_H 	H 	0.9233	0.0437	0.7261	0.073
Mof_C 	C 	0.8687	0.4474	0.8582	0.007
Mof_H 	H 	0.904	0.4537	0.8694	0.032
Mof_C 	C 	0.8343	0.4874	0.84427	0.01
Mof_H 	H 	0.8405	0.5255	0.8444	0.04
Mof_C 	C 	0.7965	0.4056	0.83698	0.107
Mof_H 	H 	0.7706	0.3782	0.8307	-0.008
Mof_C 	C 	0.7386	0.4858	0.8105	0.036
Mof_C 	C 	0.723	0.4801	0.7663	-0.023
Mof_N 	N 	0.93705	0.13335	0.80841	-0.092
Mof_N 	N 	0.84506	0.39627	0.85368	-0.262
Mof_N 	N 	0.7887	0.46031	0.82995	-0.126
Mof_O 	O 	0.01456	0.00668	0.81574	-0.273
Mof_O 	O 	0.96343	0.0509	0.86411	-0.437
Mof_O 	O 	0.90317	0.20882	0.86733	-0.494
Mof_O 	O 	0.90387	0.2781	0.82105	-0.464
Mof_Zn	Zn	0.37589	0.82245	0.37216	1.219
Mof_C 	C 	0.48813	0.54816	0.3278	0.39
Mof_C 	C 	0.4861	0.5983	0.29859	-0.379
Mof_H 	H 	0.4844	0.5862	0.2688	0.167
Mof_H 	H 	0.5197	0.62	0.3023	0.148
Mof_C 	C 	0.41468	0.72837	0.33112	0.424
Mof_C 	C 	0.4445	0.69225	0.29897	-0.391
Mof_H 	H 	0.4839	0.7011	0.2994	0.15
Mof_H 	H 	0.4306	0.7001	0.2702	0.166
Mof_C 	C 	0.38556	0.61078	0.2887	-0.181
Mof_H 	H 	0.3821	0.5721	0.2971	0.073
Mof_H 	H 	0.3541	0.6305	0.3009	0.068
Mof_C 	C 	0.38126	0.61394	0.23975	0.096
Mof_C 	C 	0.354	0.6579	0.21975	-0.111
Mof_H 	H 	0.3375	0.6853	0.2366	0.07
Mof_C 	C 	0.3509	0.6614	0.17529	-0.022
Mof_H 	H 	0.333	0.6916	0.1627	0.047
Mof_C 	C 	0.3739	0.62077	0.1492	0.003
Mof_C 	C 	0.40146	0.5765	0.16908	-0.024
Mof_H 	H 	0.4177	0.5489	0.1523	0.057
Mof_C 	C 	0.4048	0.57349	0.2135	-0.105
Mof_H 	H 	0.4233	0.5437	0.2261	0.073
Mof_C 	C 	0.3687	0.9474	0.3582	0.006
Mof_H 	H 	0.404	0.9537	0.3694	0.033
Mof_C 	C 	0.3343	0.9874	0.34427	0.01
Mof_H 	H 	0.3405	0.0255	0.3444	0.04
Mof_C 	C 	0.2965	0.9056	0.33698	0.107
Mof_H 	H 	0.2706	0.8782	0.3307	-0.008
Mof_C 	C 	0.2386	0.9858	0.3105	0.036
Mof_C 	C 	0.223	0.9801	0.2663	-0.023
Mof_N 	N 	0.43705	0.63335	0.30841	-0.092
Mof_N 	N 	0.34506	0.89627	0.35368	-0.262
Mof_N 	N 	0.2887	0.96031	0.32995	-0.126
Mof_O 	O 	0.51456	0.50668	0.31574	-0.273
Mof_O 	O 	0.46343	0.5509	0.36411	-0.436
Mof_O 	O 	0.40317	0.70882	0.36733	-0.494
Mof_O 	O 	0.40387	0.7781	0.32105	-0.464
Mof_C 	C 	0.75	0.0155	-0	0.014
Mof_C 	C 	0.25	0.5155	0.5	0.016
Mof_C 	C 	0.75	0.9845	0.5	0.016
Mof_C 	C 	0.25	0.4845	-0	0.015
Mof_C 	C 	0.2345	0.5	0.25	0.016
Mof_C 	C 	0.7345	-1.1259e-32	0.75	0.015
Mof_C 	C 	0.2655	0.5	0.75	0.016
Mof_C 	C 	0.7655	-2.81476e-33	0.25	0.015
Mof_C 	C 	0.25	0.9845	-0	0.016
Mof_C 	C 	0.75	0.4845	0.5	0.016
Mof_C 	C 	0.25	0.0155	0.5	0.015
Mof_C 	C 	0.75	0.5155	-0	0.015
Mof_C 	C 	0.7655	0.5	0.75	0.016
Mof_C 	C 	0.2655	-2.81476e-33	0.25	0.015
Mof_C 	C 	0.7345	0.5	0.25	0.016
Mof_C 	C 	0.2345	-1.1259e-32	0.75	0.015
_end
