data_functionalizedCrystal
_audit_creation_method	'EQeq! by Chris Wilmer'
_symmetry_space_group_name_H-M	'P1'
_symmetry_Int_Tables_number	1
_symmetry_cell_setting	triclinic
loop_
_symmetry_equiv_pos_as_xyz
  x,y,z
_cell_length_a	14.2269
_cell_length_b	14.7692
_cell_length_c	21.6912
_cell_angle_alpha	90.391
_cell_angle_beta	94.357
_cell_angle_gamma	118.233
loop_
_atom_site_label
_atom_site_type_symbol
_atom_site_fract_x
_atom_site_fract_y
_atom_site_fract_z
_atom_site_charge
Mof_C 	C 	0.9327	0.092	0.99524	0.053
Mof_H 	H 	0.9562	0.0467	0.0104	0.012
Mof_C 	C 	0.8738	0.0709	0.93793	-0.095
Mof_H 	H 	0.856	0.0099	0.9158	0.075
Mof_C 	C 	0.8404	0.1402	0.9125	0.014
Mof_C 	C 	0.8667	0.2288	0.94837	-0.091
Mof_H 	H 	0.8457	0.276	0.9335	0.064
Mof_C 	C 	0.9237	0.248	0.006	0.05
Mof_H 	H 	0.9403	0.3078	0.0291	0.015
Mof_C 	C 	0.7795	0.1186	0.84988	0.139
Mof_C 	C 	0.7187	0.019	0.82642	-0.262
Mof_H 	H 	0.7188	0.9654	0.8487	0.147
Mof_C 	C 	0.6571	0.9969	0.77007	0.298
Mof_C 	C 	0.6599	0.0758	0.73537	-0.262
Mof_H 	H 	0.6214	0.0611	0.6967	0.145
Mof_C 	C 	0.7204	0.1779	0.75804	0.134
Mof_C 	C 	0.7806	0.1983	0.81577	-0.185
Mof_H 	H 	0.8216	0.2659	0.8313	0.1
Mof_C 	C 	0.8059	0.4414	0.69421	0.057
Mof_H 	H 	0.864	0.5073	0.6996	0.011
Mof_C 	C 	0.8064	0.3631	0.72852	-0.097
Mof_H 	H 	0.8651	0.377	0.7564	0.078
Mof_C 	C 	0.7196	0.2625	0.72208	0.025
Mof_C 	C 	0.6337	0.2459	0.67929	-0.102
Mof_H 	H 	0.5751	0.1805	0.6737	0.092
Mof_C 	C 	0.6343	0.3254	0.6448	0.056
Mof_H 	H 	0.5763	0.3128	0.6166	0.012
Mof_C 	C 	0.50353	0.84679	0.72749	0.282
Mof_C 	C 	0.42175	0.84453	0.75976	-0.255
Mof_H 	H 	0.4381	0.8883	0.7945	0.139
Mof_C 	C 	0.31553	0.77689	0.74005	0.128
Mof_C 	C 	0.29109	0.71151	0.68808	-0.183
Mof_H 	H 	0.22	0.6663	0.6749	0.103
Mof_C 	C 	0.37287	0.71377	0.65581	0.133
Mof_C 	C 	0.47909	0.7814	0.67552	-0.244
Mof_H 	H 	0.5338	0.7829	0.6539	0.133
Mof_C 	C 	0.0514	0.6847	0.80946	0.069
Mof_H 	H 	0.988	0.6237	0.8117	0.007
Mof_C 	C 	0.1324	0.6844	0.77783	-0.111
Mof_H 	H 	0.1229	0.6237	0.7587	0.086
Mof_C 	C 	0.2283	0.7753	0.7747	0.035
Mof_C 	C 	0.239	0.8626	0.80358	-0.115
Mof_H 	H 	0.303	0.9234	0.803	0.091
Mof_C 	C 	0.1561	0.8625	0.83383	0.065
Mof_H 	H 	0.1643	0.9236	0.8516	0.01
Mof_C 	C 	0.4087	0.5823	0.5146	0.061
Mof_H 	H 	0.4643	0.5806	0.4956	0.017
Mof_C 	C 	0.4305	0.6375	0.5643	-0.093
Mof_H 	H 	0.5016	0.6739	0.5805	0.07
Mof_C 	C 	0.3468	0.6463	0.59781	0.017
Mof_C 	C 	0.2419	0.5846	0.5694	-0.085
Mof_H 	H 	0.1846	0.5844	0.5875	0.067
Mof_C 	C 	0.2212	0.5246	0.5157	0.045
Mof_H 	H 	0.1513	0.4842	0.4984	0.021
Mof_C 	C 	0.0538	0.0671	0.19653	0.399
Mof_C 	C 	0.0156	0.9557	0.21216	-0.1
Mof_C 	C 	0.0435	0.9321	0.2705	0.02
Mof_H 	H 	0.0867	0.9848	0.2997	0.044
Mof_C 	C 	0.0072	0.831	0.285	-0.067
Mof_H 	H 	0.0262	0.816	0.3241	0.069
Mof_C 	C 	0.9428	0.7514	0.2422	-0.007
Mof_C 	C 	0.916	0.7756	0.1834	-0.069
Mof_H 	H 	0.8743	0.7231	0.1539	0.066
Mof_C 	C 	0.9511	0.877	0.169	0.018
Mof_H 	H 	0.9312	0.8924	0.1303	0.04
Mof_C 	C 	0.7616	0.5852	0.2789	0.004
Mof_C 	C 	0.7497	0.6299	0.3323	-0.075
Mof_H 	H 	0.8095	0.6806	0.3555	0.068
Mof_C 	C 	0.6461	0.5977	0.351	0.028
Mof_H 	H 	0.6369	0.6294	0.3855	0.039
Mof_C 	C 	0.5586	0.5186	0.31774	-0.113
Mof_C 	C 	0.5717	0.4734	0.26469	0.026
Mof_H 	H 	0.5125	0.4208	0.2422	0.025
Mof_C 	C 	0.6752	0.5078	0.2453	-0.079
Mof_H 	H 	0.6846	0.4781	0.2099	0.076
Mof_C 	C 	0.4493	0.4836	0.33953	0.37
Mof_C 	C 	0.9322	0.6906	0.64195	0.379
Mof_C 	C 	0.0431	0.7586	0.62717	-0.118
Mof_C 	C 	0.0811	0.7316	0.57607	0.033
Mof_H 	H 	0.037	0.671	0.5527	0.036
Mof_C 	C 	0.1847	0.7954	0.5601	-0.092
Mof_H 	H 	0.2105	0.7777	0.5265	0.078
Mof_C 	C 	0.2485	0.8858	0.5954	0.02
Mof_C 	C 	0.2123	0.9117	0.64694	-0.093
Mof_H 	H 	0.2565	0.9716	0.6709	0.086
Mof_C 	C 	0.1102	0.8475	0.66204	0.041
Mof_H 	H 	0.0858	0.8645	0.6966	0.038
Mof_C 	C 	0.354	0.0494	0.52124	0.023
Mof_C 	C 	0.3264	0.0235	0.4594	-0.084
Mof_H 	H 	0.3258	0.9649	0.4428	0.081
Mof_C 	C 	0.2998	0.0832	0.42165	0.033
Mof_H 	H 	0.2811	0.0651	0.3796	0.038
Mof_C 	C 	0.3004	0.171	0.4458	-0.114
Mof_C 	C 	0.3293	0.1984	0.50947	0.029
Mof_H 	H 	0.3305	0.2572	0.5261	0.036
Mof_C 	C 	0.3558	0.1362	0.54713	-0.085
Mof_H 	H 	0.3746	0.1529	0.5893	0.075
Mof_C 	C 	0.2762	0.2412	0.40548	0.387
Mof_C 	C 	0.1998	0.4095	0.14775	0.354
Mof_C 	C 	0.2892	0.5201	0.15386	-0.104
Mof_C 	C 	0.2792	0.5936	0.1195	0.023
Mof_H 	H 	0.2182	0.5755	0.0926	0.038
Mof_C 	C 	0.3606	0.6953	0.125	-0.078
Mof_H 	H 	0.3541	0.7457	0.1025	0.069
Mof_C 	C 	0.4529	0.7206	0.16527	0.008
Mof_C 	C 	0.4606	0.6457	0.19953	-0.076
Mof_H 	H 	0.5204	0.6636	0.2273	0.073
Mof_C 	C 	0.3813	0.545	0.19321	0.02
Mof_H 	H 	0.3889	0.4943	0.2148	0.03
Mof_C 	C 	0.6269	0.8424	0.1038	0.002
Mof_C 	C 	0.6057	0.8784	0.0484	-0.072
Mof_H 	H 	0.5631	0.9106	0.0465	0.07
Mof_C 	C 	0.6491	0.8656	0.9956	0.013
Mof_H 	H 	0.6355	0.8898	0.9583	0.041
Mof_C 	C 	0.7118	0.8176	0.99803	-0.088
Mof_C 	C 	0.7348	0.7843	0.0534	0.014
Mof_H 	H 	0.7794	0.7543	0.0553	0.042
Mof_C 	C 	0.6915	0.7954	0.10663	-0.072
Mof_H 	H 	0.7058	0.7715	0.1438	0.067
Mof_C 	C 	0.7569	0.8022	0.94029	0.34
Mof_Co	Co	0.06255	0.22425	0.1124	1.167
Mof_Co	Co	0.28625	0.45382	0.39971	1.162
Mof_Co	Co	0.22151	0.28	0.27108	1.165
Mof_N 	N 	0.9561	0.1802	0.02961	-0.212
Mof_N 	N 	0.721	0.4232	0.65244	-0.216
Mof_N 	N 	0.0629	0.7734	0.83756	-0.221
Mof_N 	N 	0.3065	0.5257	0.48827	-0.216
Mof_O 	O 	0.6137	0.8979	0.74494	-0.307
Mof_O 	O 	0.0281	0.0835	0.14277	-0.448
Mof_O 	O 	0.1016	0.13286	0.23867	-0.441
Mof_O 	O 	0.8854	0.5633	0.20684	-0.227
Mof_O 	O 	0.9545	0.6185	0.31543	-0.219
Mof_O 	O 	0.36534	0.42349	0.30793	-0.485
Mof_O 	O 	0.4486	0.52	0.3919	-0.42
Mof_O 	O 	0.1318	0.38367	0.10043	-0.39
Mof_O 	O 	0.19646	0.34344	0.18369	-0.497
Mof_O 	O 	0.5166	0.9174	0.15612	-0.215
Mof_O 	O 	0.6283	0.8594	0.22448	-0.214
Mof_O 	O 	0.7126	0.8118	0.89057	-0.287
Mof_O 	O 	0.8277	0.7746	0.94639	-0.397
Mof_O 	O 	0.2527	0.21448	0.34912	-0.43
Mof_O 	O 	0.2864	0.32289	0.43019	-0.435
Mof_O 	O 	0.4075	0.9022	0.53409	-0.206
Mof_O 	O 	0.4442	0.0258	0.62564	-0.218
Mof_O 	O 	0.8744	0.617	0.60224	-0.436
Mof_O 	O 	0.90033	0.70732	0.69094	-0.447
Mof_S 	S 	0.89369	0.62301	0.25979	0.276
Mof_S 	S 	0.37839	0.96516	0.57102	0.262
Mof_S 	S 	0.5602	0.84534	0.16842	0.252
Mof_C 	C 	0.0673	0.908	0.00476	0.054
Mof_H 	H 	0.0438	0.9533	0.9896	0.013
Mof_C 	C 	0.1262	0.9291	0.06207	-0.095
Mof_H 	H 	0.144	0.9901	0.0842	0.075
Mof_C 	C 	0.1596	0.8598	0.0875	0.014
Mof_C 	C 	0.1333	0.7712	0.05163	-0.091
Mof_H 	H 	0.1543	0.724	0.0665	0.064
Mof_C 	C 	0.0763	0.752	0.994	0.05
Mof_H 	H 	0.0597	0.6922	0.9709	0.015
Mof_C 	C 	0.2205	0.8814	0.15012	0.139
Mof_C 	C 	0.2813	0.981	0.17358	-0.262
Mof_H 	H 	0.2812	0.0346	0.1513	0.147
Mof_C 	C 	0.3429	0.0031	0.22993	0.298
Mof_C 	C 	0.3401	0.9242	0.26463	-0.262
Mof_H 	H 	0.3786	0.9389	0.3033	0.145
Mof_C 	C 	0.2796	0.8221	0.24196	0.134
Mof_C 	C 	0.2194	0.8017	0.18423	-0.185
Mof_H 	H 	0.1784	0.7341	0.1687	0.1
Mof_C 	C 	0.1941	0.5586	0.30579	0.057
Mof_H 	H 	0.136	0.4927	0.3004	0.011
Mof_C 	C 	0.1936	0.6369	0.27148	-0.097
Mof_H 	H 	0.1349	0.623	0.2436	0.078
Mof_C 	C 	0.2804	0.7375	0.27792	0.025
Mof_C 	C 	0.3663	0.7541	0.32071	-0.102
Mof_H 	H 	0.4249	0.8195	0.3263	0.092
Mof_C 	C 	0.3657	0.6746	0.3552	0.056
Mof_H 	H 	0.4237	0.6872	0.3834	0.012
Mof_C 	C 	0.49647	0.15321	0.27251	0.282
Mof_C 	C 	0.57825	0.15547	0.24024	-0.255
Mof_H 	H 	0.5619	0.1117	0.2055	0.139
Mof_C 	C 	0.68447	0.22311	0.25995	0.128
Mof_C 	C 	0.70891	0.28849	0.31192	-0.183
Mof_H 	H 	0.78	0.3337	0.3251	0.103
Mof_C 	C 	0.62713	0.28623	0.34419	0.133
Mof_C 	C 	0.52091	0.2186	0.32448	-0.244
Mof_H 	H 	0.4662	0.2171	0.3461	0.133
Mof_C 	C 	0.9486	0.3153	0.19054	0.069
Mof_H 	H 	0.012	0.3763	0.1883	0.007
Mof_C 	C 	0.8676	0.3156	0.22217	-0.111
Mof_H 	H 	0.8771	0.3763	0.2413	0.086
Mof_C 	C 	0.7717	0.2247	0.2253	0.035
Mof_C 	C 	0.761	0.1374	0.19642	-0.115
Mof_H 	H 	0.697	0.0766	0.197	0.091
Mof_C 	C 	0.8439	0.1375	0.16617	0.065
Mof_H 	H 	0.8357	0.0764	0.1484	0.01
Mof_C 	C 	0.5913	0.4177	0.4854	0.061
Mof_H 	H 	0.5357	0.4194	0.5044	0.017
Mof_C 	C 	0.5695	0.3625	0.4357	-0.093
Mof_H 	H 	0.4984	0.3261	0.4195	0.07
Mof_C 	C 	0.6532	0.3537	0.40219	0.017
Mof_C 	C 	0.7581	0.4154	0.4306	-0.085
Mof_H 	H 	0.8154	0.4156	0.4125	0.067
Mof_C 	C 	0.7788	0.4754	0.4843	0.045
Mof_H 	H 	0.8487	0.5158	0.5016	0.021
Mof_C 	C 	0.9462	0.9329	0.80347	0.399
Mof_C 	C 	0.9844	0.0443	0.78784	-0.1
Mof_C 	C 	0.9565	0.0679	0.7295	0.02
Mof_H 	H 	0.9133	0.0152	0.7003	0.044
Mof_C 	C 	0.9928	0.169	0.715	-0.067
Mof_H 	H 	0.9738	0.184	0.6759	0.069
Mof_C 	C 	0.0572	0.2486	0.7578	-0.007
Mof_C 	C 	0.084	0.2244	0.8166	-0.069
Mof_H 	H 	0.1257	0.2769	0.8461	0.066
Mof_C 	C 	0.0489	0.123	0.831	0.018
Mof_H 	H 	0.0688	0.1076	0.8697	0.04
Mof_C 	C 	0.2384	0.4148	0.7211	0.004
Mof_C 	C 	0.2503	0.3701	0.6677	-0.075
Mof_H 	H 	0.1905	0.3194	0.6445	0.068
Mof_C 	C 	0.3539	0.4023	0.649	0.028
Mof_H 	H 	0.3631	0.3706	0.6145	0.039
Mof_C 	C 	0.4414	0.4814	0.68226	-0.113
Mof_C 	C 	0.4283	0.5266	0.73531	0.026
Mof_H 	H 	0.4875	0.5792	0.7578	0.025
Mof_C 	C 	0.3248	0.4922	0.7547	-0.079
Mof_H 	H 	0.3154	0.5219	0.7901	0.076
Mof_C 	C 	0.5507	0.5164	0.66047	0.37
Mof_C 	C 	0.0678	0.3094	0.35805	0.379
Mof_C 	C 	0.9569	0.2414	0.37283	-0.118
Mof_C 	C 	0.9189	0.2684	0.42393	0.033
Mof_H 	H 	0.963	0.329	0.4473	0.036
Mof_C 	C 	0.8153	0.2046	0.4399	-0.092
Mof_H 	H 	0.7895	0.2223	0.4735	0.078
Mof_C 	C 	0.7515	0.1142	0.4046	0.02
Mof_C 	C 	0.7877	0.0883	0.35306	-0.093
Mof_H 	H 	0.7435	0.0284	0.3291	0.086
Mof_C 	C 	0.8898	0.1525	0.33796	0.041
Mof_H 	H 	0.9142	0.1355	0.3034	0.038
Mof_C 	C 	0.646	0.9506	0.47876	0.023
Mof_C 	C 	0.6736	0.9765	0.5406	-0.084
Mof_H 	H 	0.6742	0.0351	0.5572	0.081
Mof_C 	C 	0.7002	0.9168	0.57835	0.033
Mof_H 	H 	0.7189	0.9349	0.6204	0.038
Mof_C 	C 	0.6996	0.829	0.5542	-0.114
Mof_C 	C 	0.6707	0.8016	0.49053	0.029
Mof_H 	H 	0.6695	0.7428	0.4739	0.036
Mof_C 	C 	0.6442	0.8638	0.45287	-0.085
Mof_H 	H 	0.6254	0.8471	0.4107	0.075
Mof_C 	C 	0.7238	0.7588	0.59452	0.387
Mof_C 	C 	0.8002	0.5905	0.85225	0.354
Mof_C 	C 	0.7108	0.4799	0.84614	-0.104
Mof_C 	C 	0.7208	0.4064	0.8805	0.023
Mof_H 	H 	0.7818	0.4245	0.9074	0.038
Mof_C 	C 	0.6394	0.3047	0.875	-0.078
Mof_H 	H 	0.6459	0.2543	0.8975	0.069
Mof_C 	C 	0.5471	0.2794	0.83473	0.008
Mof_C 	C 	0.5394	0.3543	0.80047	-0.076
Mof_H 	H 	0.4796	0.3364	0.7727	0.073
Mof_C 	C 	0.6187	0.455	0.80679	0.02
Mof_H 	H 	0.6111	0.5057	0.7852	0.03
Mof_C 	C 	0.3731	0.1576	0.8962	0.002
Mof_C 	C 	0.3943	0.1216	0.9516	-0.072
Mof_H 	H 	0.4369	0.0894	0.9535	0.07
Mof_C 	C 	0.3509	0.1344	0.0044	0.013
Mof_H 	H 	0.3645	0.1102	0.0417	0.041
Mof_C 	C 	0.2882	0.1824	0.00197	-0.088
Mof_C 	C 	0.2652	0.2157	0.9466	0.014
Mof_H 	H 	0.2206	0.2457	0.9447	0.042
Mof_C 	C 	0.3085	0.2046	0.89337	-0.072
Mof_H 	H 	0.2942	0.2285	0.8562	0.067
Mof_C 	C 	0.2431	0.1978	0.05971	0.34
Mof_Co	Co	0.93745	0.77575	0.8876	1.167
Mof_Co	Co	0.71375	0.54618	0.60029	1.162
Mof_Co	Co	0.77849	0.72	0.72892	1.165
Mof_N 	N 	0.0439	0.8198	0.97039	-0.212
Mof_N 	N 	0.279	0.5768	0.34756	-0.216
Mof_N 	N 	0.9371	0.2266	0.16244	-0.221
Mof_N 	N 	0.6935	0.4743	0.51173	-0.216
Mof_O 	O 	0.3863	0.1021	0.25506	-0.307
Mof_O 	O 	0.9719	0.9165	0.85723	-0.448
Mof_O 	O 	0.8984	0.86714	0.76133	-0.441
Mof_O 	O 	0.1146	0.4367	0.79316	-0.227
Mof_O 	O 	0.0455	0.3815	0.68457	-0.219
Mof_O 	O 	0.63466	0.57651	0.69207	-0.485
Mof_O 	O 	0.5514	0.48	0.6081	-0.42
Mof_O 	O 	0.8682	0.61633	0.89957	-0.39
Mof_O 	O 	0.80354	0.65656	0.81631	-0.497
Mof_O 	O 	0.4834	0.0826	0.84388	-0.215
Mof_O 	O 	0.3717	0.1406	0.77552	-0.214
Mof_O 	O 	0.2874	0.1882	0.10943	-0.287
Mof_O 	O 	0.1723	0.2254	0.05361	-0.397
Mof_O 	O 	0.7473	0.78552	0.65088	-0.43
Mof_O 	O 	0.7136	0.67711	0.56981	-0.435
Mof_O 	O 	0.5925	0.0978	0.46591	-0.206
Mof_O 	O 	0.5558	0.9742	0.37436	-0.218
Mof_O 	O 	0.1256	0.383	0.39776	-0.436
Mof_O 	O 	0.09967	0.29268	0.30906	-0.447
Mof_S 	S 	0.10631	0.37699	0.74021	0.276
Mof_S 	S 	0.62161	0.03484	0.42898	0.262
Mof_S 	S 	0.4398	0.15466	0.83158	0.252
_end
