data_functionalizedCrystal
_audit_creation_method	'EQeq! by Chris Wilmer'
_symmetry_space_group_name_H-M	'P1'
_symmetry_Int_Tables_number	1
_symmetry_cell_setting	triclinic
loop_
_symmetry_equiv_pos_as_xyz
  x,y,z
_cell_length_a	12.9836
_cell_length_b	12.9836
_cell_length_c	23.941
_cell_angle_alpha	90
_cell_angle_beta	90
_cell_angle_gamma	94.6835
loop_
_atom_site_label
_atom_site_type_symbol
_atom_site_fract_x
_atom_site_fract_y
_atom_site_fract_z
_atom_site_charge
Mof_Zn	Zn	0.16145	0.99729	0.39821	1.221
Mof_Zn	Zn	0.33855	0.50271	0.89821	1.219
Mof_Zn	Zn	0.49729	0.66145	0.10179	1.217
Mof_Zn	Zn	0.00271	0.83855	0.60179	1.214
Mof_Zn	Zn	0.83855	0.00271	0.60179	1.215
Mof_Zn	Zn	0.66145	0.49729	0.10179	1.218
Mof_Zn	Zn	0.50271	0.33855	0.89821	1.22
Mof_Zn	Zn	0.99729	0.16145	0.39821	1.222
Mof_Zn	Zn	0.18096	0.18096	0.48018	1.223
Mof_Zn	Zn	0.31904	0.31904	0.98018	1.233
Mof_Zn	Zn	0.68096	0.68096	0.01982	1.215
Mof_Zn	Zn	0.81904	0.81904	0.51982	1.226
Mof_Zn	Zn	-7.84477e-33	1.25516e-32	0.5	1.199
Mof_Zn	Zn	0.5	0.5	-0	1.196
Mof_H 	H 	0.9277	0.6531	0.4361	0.025
Mof_H 	H 	0.9301	0.4759	0.4274	0.059
Mof_H 	H 	0.2609	0.4225	0.395	0.076
Mof_H 	H 	0.4111	0.5261	0.382	0.041
Mof_H 	H 	0.4105	0.7035	0.391	0.042
Mof_H 	H 	0.2543	0.7747	0.4013	0.089
Mof_H 	H 	0.5723	0.8469	0.9361	0.059
Mof_H 	H 	0.5699	0.0241	0.9274	0.019
Mof_H 	H 	0.2391	0.0775	0.895	0.117
Mof_H 	H 	0.0889	0.9739	0.882	0.004
Mof_H 	H 	0.0895	0.7965	0.891	0.073
Mof_H 	H 	0.2457	0.7253	0.9013	0.061
Mof_H 	H 	0.1531	0.4277	0.0639	0.003
Mof_H 	H 	0.9759	0.4301	0.0726	0.093
Mof_H 	H 	0.9225	0.7609	0.105	0.039
Mof_H 	H 	0.0261	0.9111	0.118	0.072
Mof_H 	H 	0.2035	0.9105	0.109	0.014
Mof_H 	H 	0.2747	0.7543	0.0987	0.111
Mof_H 	H 	0.3469	0.0723	0.5639	0.033
Mof_H 	H 	0.5241	0.0699	0.5726	0.061
Mof_H 	H 	0.5775	0.7391	0.605	0.078
Mof_H 	H 	0.4739	0.5889	0.618	0.038
Mof_H 	H 	0.2965	0.5895	0.609	0.044
Mof_H 	H 	0.2253	0.7457	0.5987	0.085
Mof_H 	H 	0.0723	0.3469	0.5639	0.033
Mof_H 	H 	0.0699	0.5241	0.5726	0.061
Mof_H 	H 	0.7391	0.5775	0.605	0.078
Mof_H 	H 	0.5889	0.4739	0.618	0.038
Mof_H 	H 	0.5895	0.2965	0.609	0.044
Mof_H 	H 	0.7457	0.2253	0.5987	0.085
Mof_H 	H 	0.4277	0.1531	0.0639	0.003
Mof_H 	H 	0.4301	0.9759	0.0726	0.093
Mof_H 	H 	0.7609	0.9225	0.105	0.039
Mof_H 	H 	0.9111	0.0261	0.118	0.072
Mof_H 	H 	0.9105	0.2035	0.109	0.014
Mof_H 	H 	0.7543	0.2747	0.0987	0.111
Mof_H 	H 	0.8469	0.5723	0.9361	0.059
Mof_H 	H 	0.0241	0.5699	0.9274	0.019
Mof_H 	H 	0.0775	0.2391	0.895	0.117
Mof_H 	H 	0.9739	0.0889	0.882	0.004
Mof_H 	H 	0.7965	0.0895	0.891	0.073
Mof_H 	H 	0.7253	0.2457	0.9013	0.061
Mof_H 	H 	0.6531	0.9277	0.4361	0.025
Mof_H 	H 	0.4759	0.9301	0.4274	0.059
Mof_H 	H 	0.4225	0.2609	0.395	0.076
Mof_H 	H 	0.5261	0.4111	0.382	0.041
Mof_H 	H 	0.7035	0.4105	0.391	0.042
Mof_H 	H 	0.7747	0.2543	0.4013	0.089
Mof_H 	H 	0.0475	0.0475	0.2031	0.024
Mof_H 	H 	0.0937	0.0937	0.1118	0.049
Mof_H 	H 	0.3536	0.3536	0.1326	0.081
Mof_H 	H 	0.4333	0.4333	0.2075	0.03
Mof_H 	H 	0.3837	0.3837	0.2977	0.042
Mof_H 	H 	0.2565	0.2565	0.3129	0.05
Mof_H 	H 	0.4525	0.4525	0.7031	0.03
Mof_H 	H 	0.4063	0.4063	0.6118	0.055
Mof_H 	H 	0.1464	0.1464	0.6326	0.079
Mof_H 	H 	0.0667	0.0667	0.7075	0.023
Mof_H 	H 	0.1163	0.1163	0.7977	0.039
Mof_H 	H 	0.2435	0.2435	0.8129	0.048
Mof_H 	H 	0.5475	0.5475	0.2969	0.029
Mof_H 	H 	0.5937	0.5937	0.3882	0.055
Mof_H 	H 	0.8536	0.8536	0.3674	0.084
Mof_H 	H 	0.9333	0.9333	0.2925	0.038
Mof_H 	H 	0.8837	0.8837	0.2023	0.046
Mof_H 	H 	0.7565	0.7565	0.1871	0.053
Mof_H 	H 	0.9525	0.9525	0.7969	0.038
Mof_H 	H 	0.9063	0.9063	0.8882	0.064
Mof_H 	H 	0.6464	0.6464	0.8674	0.08
Mof_H 	H 	0.5667	0.5667	0.7925	0.03
Mof_H 	H 	0.6163	0.6163	0.7023	0.042
Mof_H 	H 	0.7435	0.7435	0.6871	0.051
Mof_C 	C 	0.0785	0.6885	0.4306	-0.159
Mof_C 	C 	0.9909	0.6247	0.4322	0.041
Mof_C 	C 	0.9921	0.5173	0.4283	-0.019
Mof_C 	C 	0.0846	0.4726	0.4257	-0.102
Mof_C 	C 	0.1796	0.5366	0.4264	0.042
Mof_C 	C 	0.264	0.4928	0.403	-0.069
Mof_C 	C 	0.3506	0.555	0.3922	-0.027
Mof_C 	C 	0.3498	0.6614	0.3961	-0.004
Mof_C 	C 	0.2589	0.7045	0.4076	-0.105
Mof_C 	C 	0.1764	0.6466	0.428	0.077
Mof_C 	C 	0.071	0.8026	0.431	0.431
Mof_C 	C 	0.0792	0.3564	0.4247	0.381
Mof_C 	C 	0.4215	0.8115	0.9306	-0.082
Mof_C 	C 	0.5091	0.8753	0.9322	-0.049
Mof_C 	C 	0.5079	0.9827	0.9283	0.082
Mof_C 	C 	0.4154	0.0274	0.9257	-0.176
Mof_C 	C 	0.3204	0.9634	0.9264	0.146
Mof_C 	C 	0.236	0.0072	0.903	-0.186
Mof_C 	C 	0.1494	0.945	0.8922	0.084
Mof_C 	C 	0.1502	0.8386	0.8961	-0.093
Mof_C 	C 	0.2411	0.7955	0.9076	-0.019
Mof_C 	C 	0.3236	0.8534	0.928	0.002
Mof_C 	C 	0.429	0.6974	0.931	0.405
Mof_C 	C 	0.4208	0.1436	0.9247	0.423
Mof_C 	C 	0.1885	0.5785	0.0694	-0.192
Mof_C 	C 	0.1247	0.4909	0.0678	0.082
Mof_C 	C 	0.0173	0.4921	0.0717	-0.119
Mof_C 	C 	0.9726	0.5846	0.0743	-0.024
Mof_C 	C 	0.0366	0.6796	0.0736	-0.051
Mof_C 	C 	0.9928	0.764	0.097	0.04
Mof_C 	C 	0.055	0.8506	0.1078	-0.128
Mof_C 	C 	0.1614	0.8498	0.1039	0.072
Mof_C 	C 	0.2045	0.7589	0.0924	-0.176
Mof_C 	C 	0.1466	0.6764	0.072	0.134
Mof_C 	C 	0.3026	0.571	0.069	0.444
Mof_C 	C 	0.8564	0.5792	0.0753	0.365
Mof_C 	C 	0.3115	0.9215	0.5694	-0.123
Mof_C 	C 	0.3753	0.0091	0.5678	0.004
Mof_C 	C 	0.4827	0.0079	0.5717	-0.035
Mof_C 	C 	0.5274	0.9154	0.5743	-0.088
Mof_C 	C 	0.4634	0.8204	0.5736	0.047
Mof_C 	C 	0.5072	0.736	0.597	-0.073
Mof_C 	C 	0.445	0.6494	0.6078	-0.02
Mof_C 	C 	0.3386	0.6502	0.6039	-0.012
Mof_C 	C 	0.2955	0.7411	0.5924	-0.094
Mof_C 	C 	0.3534	0.8236	0.572	0.065
Mof_C 	C 	0.1974	0.929	0.569	0.422
Mof_C 	C 	0.6436	0.9208	0.5753	0.406
Mof_C 	C 	0.9215	0.3115	0.5694	-0.123
Mof_C 	C 	0.0091	0.3753	0.5678	0.004
Mof_C 	C 	0.0079	0.4827	0.5717	-0.035
Mof_C 	C 	0.9154	0.5274	0.5743	-0.088
Mof_C 	C 	0.8204	0.4634	0.5736	0.047
Mof_C 	C 	0.736	0.5072	0.597	-0.073
Mof_C 	C 	0.6494	0.445	0.6078	-0.02
Mof_C 	C 	0.6502	0.3386	0.6039	-0.012
Mof_C 	C 	0.7411	0.2955	0.5924	-0.094
Mof_C 	C 	0.8236	0.3534	0.572	0.065
Mof_C 	C 	0.929	0.1974	0.569	0.422
Mof_C 	C 	0.9208	0.6436	0.5753	0.406
Mof_C 	C 	0.5785	0.1885	0.0694	-0.192
Mof_C 	C 	0.4909	0.1247	0.0678	0.082
Mof_C 	C 	0.4921	0.0173	0.0717	-0.119
Mof_C 	C 	0.5846	0.9726	0.0743	-0.024
Mof_C 	C 	0.6796	0.0366	0.0736	-0.051
Mof_C 	C 	0.764	0.9928	0.097	0.04
Mof_C 	C 	0.8506	0.055	0.1078	-0.128
Mof_C 	C 	0.8498	0.1614	0.1039	0.072
Mof_C 	C 	0.7589	0.2045	0.0924	-0.176
Mof_C 	C 	0.6764	0.1466	0.072	0.134
Mof_C 	C 	0.571	0.3026	0.069	0.444
Mof_C 	C 	0.5792	0.8564	0.0753	0.365
Mof_C 	C 	0.8115	0.4215	0.9306	-0.082
Mof_C 	C 	0.8753	0.5091	0.9322	-0.049
Mof_C 	C 	0.9827	0.5079	0.9283	0.082
Mof_C 	C 	0.0274	0.4154	0.9257	-0.176
Mof_C 	C 	0.9634	0.3204	0.9264	0.146
Mof_C 	C 	0.0072	0.236	0.903	-0.186
Mof_C 	C 	0.945	0.1494	0.8922	0.084
Mof_C 	C 	0.8386	0.1502	0.8961	-0.093
Mof_C 	C 	0.7955	0.2411	0.9076	-0.019
Mof_C 	C 	0.8534	0.3236	0.928	0.002
Mof_C 	C 	0.6974	0.429	0.931	0.405
Mof_C 	C 	0.1436	0.4208	0.9247	0.423
Mof_C 	C 	0.6885	0.0785	0.4306	-0.159
Mof_C 	C 	0.6247	0.9909	0.4322	0.041
Mof_C 	C 	0.5173	0.9921	0.4283	-0.019
Mof_C 	C 	0.4726	0.0846	0.4257	-0.102
Mof_C 	C 	0.5366	0.1796	0.4264	0.042
Mof_C 	C 	0.4928	0.264	0.403	-0.069
Mof_C 	C 	0.555	0.3506	0.3922	-0.027
Mof_C 	C 	0.6614	0.3498	0.3961	-0.004
Mof_C 	C 	0.7045	0.2589	0.4076	-0.105
Mof_C 	C 	0.6466	0.1764	0.428	0.077
Mof_C 	C 	0.8026	0.071	0.431	0.431
Mof_C 	C 	0.3564	0.0792	0.4247	0.381
Mof_C 	C 	0.1465	0.1465	0.2392	-0.114
Mof_C 	C 	0.0996	0.0996	0.1968	0.014
Mof_C 	C 	0.1278	0.1278	0.1414	-0.026
Mof_C 	C 	0.2031	0.2031	0.1308	-0.104
Mof_C 	C 	0.2536	0.2536	0.1746	0.062
Mof_C 	C 	0.3331	0.3331	0.1684	-0.094
Mof_C 	C 	0.381	0.381	0.2129	-0.005
Mof_C 	C 	0.3507	0.3507	0.2673	-0.033
Mof_C 	C 	0.2752	0.2752	0.2766	-0.066
Mof_C 	C 	0.2245	0.2245	0.2308	0.047
Mof_C 	C 	0.1147	0.1147	0.2983	0.418
Mof_C 	C 	0.2229	0.2229	0.0688	0.388
Mof_C 	C 	0.3535	0.3535	0.7392	-0.111
Mof_C 	C 	0.4004	0.4004	0.6968	0.014
Mof_C 	C 	0.3722	0.3722	0.6414	-0.026
Mof_C 	C 	0.2969	0.2969	0.6308	-0.101
Mof_C 	C 	0.2464	0.2464	0.6746	0.062
Mof_C 	C 	0.1669	0.1669	0.6684	-0.096
Mof_C 	C 	0.119	0.119	0.7129	-0.006
Mof_C 	C 	0.1493	0.1493	0.7673	-0.036
Mof_C 	C 	0.2248	0.2248	0.7766	-0.065
Mof_C 	C 	0.2755	0.2755	0.7308	0.046
Mof_C 	C 	0.3853	0.3853	0.7983	0.417
Mof_C 	C 	0.2771	0.2771	0.5688	0.384
Mof_C 	C 	0.6465	0.6465	0.2608	-0.112
Mof_C 	C 	0.5996	0.5996	0.3032	0.016
Mof_C 	C 	0.6278	0.6278	0.3586	-0.028
Mof_C 	C 	0.7031	0.7031	0.3692	-0.098
Mof_C 	C 	0.7536	0.7536	0.3254	0.061
Mof_C 	C 	0.8331	0.8331	0.3316	-0.09
Mof_C 	C 	0.881	0.881	0.2871	-0.006
Mof_C 	C 	0.8507	0.8507	0.2327	-0.028
Mof_C 	C 	0.7752	0.7752	0.2234	-0.066
Mof_C 	C 	0.7245	0.7245	0.2692	0.049
Mof_C 	C 	0.6147	0.6147	0.2017	0.418
Mof_C 	C 	0.7229	0.7229	0.4312	0.382
Mof_C 	C 	0.8535	0.8535	0.7608	-0.108
Mof_C 	C 	0.9004	0.9004	0.8032	0.017
Mof_C 	C 	0.8722	0.8722	0.8586	-0.027
Mof_C 	C 	0.7969	0.7969	0.8692	-0.095
Mof_C 	C 	0.7464	0.7464	0.8254	0.06
Mof_C 	C 	0.6669	0.6669	0.8316	-0.092
Mof_C 	C 	0.619	0.619	0.7871	-0.006
Mof_C 	C 	0.6493	0.6493	0.7327	-0.031
Mof_C 	C 	0.7248	0.7248	0.7234	-0.065
Mof_C 	C 	0.7755	0.7755	0.7692	0.049
Mof_C 	C 	0.8853	0.8853	0.7017	0.415
Mof_C 	C 	0.7771	0.7771	0.9312	0.378
Mof_O 	O 	0.01927	0.84141	0.46659	-0.533
Mof_O 	O 	0.11912	0.85244	0.39194	-0.492
Mof_O 	O 	0.15425	0.31179	0.44051	-0.503
Mof_O 	O 	0.9957	0.3105	0.4074	-0.461
Mof_O 	O 	0.1592	0.044	0.3194	-0.499
Mof_O 	O 	0.48073	0.65859	0.96659	-0.506
Mof_O 	O 	0.38088	0.64756	0.89194	-0.482
Mof_O 	O 	0.34575	0.18821	0.94051	-0.507
Mof_O 	O 	0.5043	0.1895	0.9074	-0.475
Mof_O 	O 	0.3408	0.456	0.8194	-0.494
Mof_O 	O 	0.34141	0.51927	0.03341	-0.545
Mof_O 	O 	0.35244	0.61912	0.10806	-0.498
Mof_O 	O 	0.81179	0.65425	0.05949	-0.504
Mof_O 	O 	0.8105	0.4957	0.0926	-0.469
Mof_O 	O 	0.544	0.6592	0.1806	-0.492
Mof_O 	O 	0.15859	0.98073	0.53341	-0.523
Mof_O 	O 	0.14756	0.88088	0.60806	-0.49
Mof_O 	O 	0.68821	0.84575	0.55949	-0.506
Mof_O 	O 	0.6895	0.0043	0.5926	-0.485
Mof_O 	O 	0.956	0.8408	0.6806	-0.483
Mof_O 	O 	0.98073	0.15859	0.53341	-0.523
Mof_O 	O 	0.88088	0.14756	0.60806	-0.49
Mof_O 	O 	0.84575	0.68821	0.55949	-0.506
Mof_O 	O 	0.0043	0.6895	0.5926	-0.485
Mof_O 	O 	0.8408	0.956	0.6806	-0.483
Mof_O 	O 	0.51927	0.34141	0.03341	-0.545
Mof_O 	O 	0.61912	0.35244	0.10806	-0.498
Mof_O 	O 	0.65425	0.81179	0.05949	-0.504
Mof_O 	O 	0.4957	0.8105	0.0926	-0.469
Mof_O 	O 	0.6592	0.544	0.1806	-0.492
Mof_O 	O 	0.65859	0.48073	0.96659	-0.506
Mof_O 	O 	0.64756	0.38088	0.89194	-0.482
Mof_O 	O 	0.18821	0.34575	0.94051	-0.507
Mof_O 	O 	0.1895	0.5043	0.9074	-0.475
Mof_O 	O 	0.456	0.3408	0.8194	-0.494
Mof_O 	O 	0.84141	0.01927	0.46659	-0.533
Mof_O 	O 	0.85244	0.11912	0.39194	-0.492
Mof_O 	O 	0.31179	0.15425	0.44051	-0.503
Mof_O 	O 	0.3105	0.9957	0.4074	-0.461
Mof_O 	O 	0.044	0.1592	0.3194	-0.499
Mof_O 	O 	0.1716	0.1716	0.0353	-0.324
Mof_O 	O 	0.291	0.291	0.05639	-0.498
Mof_O 	O 	0.08166	0.08166	0.44388	-0.935
Mof_O 	O 	0.3284	0.3284	0.5353	-0.308
Mof_O 	O 	0.209	0.209	0.55639	-0.492
Mof_O 	O 	0.41834	0.41834	0.94388	-0.915
Mof_O 	O 	0.6716	0.6716	0.4647	-0.306
Mof_O 	O 	0.791	0.791	0.44361	-0.485
Mof_O 	O 	0.58166	0.58166	0.05612	-0.936
Mof_O 	O 	0.8284	0.8284	0.9647	-0.287
Mof_O 	O 	0.709	0.709	0.94361	-0.479
Mof_O 	O 	0.91834	0.91834	0.55612	-0.913
_end
