data_functionalizedCrystal
_audit_creation_method	'EQeq! by Chris Wilmer'
_symmetry_space_group_name_H-M	'P1'
_symmetry_Int_Tables_number	1
_symmetry_cell_setting	triclinic
loop_
_symmetry_equiv_pos_as_xyz
  x,y,z
_cell_length_a	6.791
_cell_length_b	9.604
_cell_length_c	17.722
_cell_angle_alpha	101.826
_cell_angle_beta	96.5
_cell_angle_gamma	106.425
loop_
_atom_site_label
_atom_site_type_symbol
_atom_site_fract_x
_atom_site_fract_y
_atom_site_fract_z
_atom_site_charge
Mof_Zn	Zn	0.07651	0.53716	0.24926	1.205
Mof_Zn	Zn	0.15857	0.19034	0.25068	1.203
Mof_Zn	Zn	0.92349	0.46284	0.75074	1.204
Mof_Zn	Zn	0.84143	0.80966	0.74932	1.202
Mof_H 	H 	0.8087	0.0617	0.0185	0.04
Mof_H 	H 	0.2182	0.458	0.0179	0.04
Mof_H 	H 	0.1477	0.3935	0.8817	0.035
Mof_H 	H 	0.7355	0.0008	0.8826	0.039
Mof_H 	H 	0.3536	0.7016	0.4788	0.04
Mof_H 	H 	0.1298	0.2745	0.4876	0.037
Mof_H 	H 	0.43	0.7787	0.6159	0.047
Mof_H 	H 	0.187	0.3491	0.6223	0.045
Mof_H 	H 	0.1913	0.9383	0.9815	0.04
Mof_H 	H 	0.7818	0.542	0.9821	0.04
Mof_H 	H 	0.8523	0.6065	0.1183	0.035
Mof_H 	H 	0.2645	0.9992	0.1174	0.039
Mof_H 	H 	0.6464	0.2984	0.5212	0.04
Mof_H 	H 	0.8702	0.7255	0.5124	0.037
Mof_H 	H 	0.57	0.2213	0.3841	0.047
Mof_H 	H 	0.813	0.6509	0.3777	0.045
Mof_C 	C 	0.939	0.1907	0.8705	-0.03
Mof_C 	C 	0.0609	0.3078	0.1193	0.402
Mof_C 	C 	0.022	0.2679	0.0332	-0.119
Mof_C 	C 	0.876	0.1286	0.9914	0.025
Mof_C 	C 	0.122	0.3659	0.991	0.025
Mof_C 	C 	0.0807	0.3276	0.9095	-0.067
Mof_C 	C 	0.834	0.0914	0.9101	-0.07
Mof_C 	C 	0.892	0.1502	0.783	0.117
Mof_C 	C 	0.1908	0.4326	0.3828	0.407
Mof_C 	C 	0.3634	0.6178	0.718	0.106
Mof_C 	C 	0.3233	0.6311	0.5083	0.027
Mof_C 	C 	0.1871	0.3756	0.5133	0.027
Mof_C 	C 	0.3683	0.6779	0.5904	-0.073
Mof_C 	C 	0.235	0.4821	0.4712	-0.113
Mof_C 	C 	0.2247	0.4202	0.5936	-0.074
Mof_C 	C 	0.3186	0.5704	0.6326	-0.028
Mof_C 	C 	0.061	0.8093	0.1295	-0.03
Mof_C 	C 	0.9391	0.6922	0.8807	0.402
Mof_C 	C 	0.978	0.7321	0.9668	-0.119
Mof_C 	C 	0.124	0.8714	0.0086	0.025
Mof_C 	C 	0.878	0.6341	0.009	0.025
Mof_C 	C 	0.9193	0.6724	0.0905	-0.067
Mof_C 	C 	0.166	0.9086	0.0899	-0.07
Mof_C 	C 	0.108	0.8498	0.217	0.117
Mof_C 	C 	0.8092	0.5674	0.6172	0.407
Mof_C 	C 	0.6366	0.3822	0.282	0.106
Mof_C 	C 	0.6767	0.3689	0.4917	0.027
Mof_C 	C 	0.8129	0.6244	0.4867	0.027
Mof_C 	C 	0.6317	0.3221	0.4096	-0.073
Mof_C 	C 	0.765	0.5179	0.5288	-0.113
Mof_C 	C 	0.7753	0.5798	0.4064	-0.074
Mof_C 	C 	0.6814	0.4296	0.3674	-0.028
Mof_N 	N 	0.884	0.245	0.7385	-0.242
Mof_N 	N 	0.2292	0.5717	0.7634	-0.247
Mof_N 	N 	0.5175	0.7224	0.8394	-0.065
Mof_N 	N 	0.3296	0.6399	0.8402	-0.067
Mof_N 	N 	0.835	0.1644	0.6654	-0.065
Mof_N 	N 	0.815	0.0283	0.6666	-0.063
Mof_N 	N 	0.5462	0.7115	0.7632	-0.239
Mof_N 	N 	0.847	0.0127	0.7383	-0.246
Mof_N 	N 	0.116	0.755	0.2615	-0.242
Mof_N 	N 	0.7708	0.4283	0.2366	-0.247
Mof_N 	N 	0.4825	0.2776	0.1606	-0.065
Mof_N 	N 	0.6704	0.3601	0.1598	-0.067
Mof_N 	N 	0.165	0.8356	0.3346	-0.065
Mof_N 	N 	0.185	0.9717	0.3334	-0.063
Mof_N 	N 	0.4538	0.2885	0.2368	-0.239
Mof_N 	N 	0.153	0.9873	0.2617	-0.246
Mof_O 	O 	0.009	0.2026	0.1527	-0.512
Mof_O 	O 	0.1478	0.4446	0.1535	-0.509
Mof_O 	O 	0.2285	0.5349	0.3483	-0.518
Mof_O 	O 	0.1219	0.2939	0.3512	-0.519
Mof_O 	O 	0.991	0.7974	0.8473	-0.512
Mof_O 	O 	0.8522	0.5554	0.8465	-0.509
Mof_O 	O 	0.7715	0.4651	0.6517	-0.518
Mof_O 	O 	0.8781	0.7061	0.6488	-0.519
_end
