data_functionalizedCrystal
_audit_creation_method	'EQeq! by Chris Wilmer'
_symmetry_space_group_name_H-M	'P1'
_symmetry_Int_Tables_number	1
_symmetry_cell_setting	triclinic
loop_
_symmetry_equiv_pos_as_xyz
  x,y,z
_cell_length_a	9.3659
_cell_length_b	10.5662
_cell_length_c	11.0781
_cell_angle_alpha	98.841
_cell_angle_beta	112.937
_cell_angle_gamma	113.844
loop_
_atom_site_label
_atom_site_type_symbol
_atom_site_fract_x
_atom_site_fract_y
_atom_site_fract_z
_atom_site_charge
Mof_Y 	Y 	0.30239	0.9895	0.02367	1.512
Mof_Y 	Y 	0.69761	0.0105	0.97633	1.512
Mof_H 	H 	0.7894	0.3599	0.9929	0.011
Mof_H 	H 	0.951	0.5992	0.0091	0.044
Mof_H 	H 	0.4941	0.5976	0.7959	0.046
Mof_H 	H 	0.3326	0.3646	0.7959	0.051
Mof_H 	H 	0.909	0.6071	0.6311	0.051
Mof_H 	H 	0.3008	0.6119	0.563	0.045
Mof_H 	H 	0.2106	0.6401	0.0071	0.012
Mof_H 	H 	0.049	0.4008	0.9909	0.045
Mof_H 	H 	0.5059	0.4024	0.2041	0.046
Mof_H 	H 	0.6674	0.6354	0.2041	0.051
Mof_H 	H 	0.091	0.3929	0.3689	0.051
Mof_H 	H 	0.6992	0.3881	0.437	0.045
Mof_C 	C 	0.5438	0.3374	0.8944	-0.102
Mof_C 	C 	0.7295	0.4084	0.9558	0.001
Mof_C 	C 	0.8258	0.55	0.9621	-0.037
Mof_C 	C 	0.7379	0.6202	0.8992	-0.097
Mof_C 	C 	0.5539	0.5506	0.8372	-0.007
Mof_C 	C 	0.4571	0.4103	0.8362	-0.014
Mof_C 	C 	0.4426	0.1902	0.9043	0.379
Mof_C 	C 	0.8477	0.7761	0.9083	0.426
Mof_C 	C 	0.1266	0.63	0.6184	-0.092
Mof_C 	C 	0.9459	0.5638	0.5789	-0.02
Mof_C 	C 	0.1799	0.5666	0.5381	-0.014
Mof_C 	C 	0.2627	0.7712	0.7457	0.412
Mof_C 	C 	0.4562	0.6626	0.1056	-0.102
Mof_C 	C 	0.2705	0.5916	0.0442	0.001
Mof_C 	C 	0.1742	0.45	0.0379	-0.037
Mof_C 	C 	0.2621	0.3798	0.1008	-0.097
Mof_C 	C 	0.4461	0.4494	0.1628	-0.007
Mof_C 	C 	0.5429	0.5897	0.1638	-0.014
Mof_C 	C 	0.5574	0.8098	0.0957	0.379
Mof_C 	C 	0.1523	0.2239	0.0917	0.426
Mof_C 	C 	0.8734	0.37	0.3816	-0.092
Mof_C 	C 	0.0541	0.4362	0.4211	-0.02
Mof_C 	C 	0.8201	0.4334	0.4619	-0.014
Mof_C 	C 	0.7373	0.2288	0.2543	0.412
Mof_O 	O 	0.5245	0.1207	0.9437	-0.509
Mof_O 	O 	0.2885	0.1453	0.8847	-0.385
Mof_O 	O 	0.0055	0.8215	0.9351	-0.432
Mof_O 	O 	0.7736	0.8532	0.8854	-0.429
Mof_O 	O 	0.2001	0.8284	0.8049	-0.409
Mof_O 	O 	0.4253	0.8197	0.7851	-0.432
Mof_O 	O 	0.4755	0.8793	0.0563	-0.509
Mof_O 	O 	0.7115	0.8547	0.1153	-0.385
Mof_O 	O 	0.9945	0.1785	0.0649	-0.432
Mof_O 	O 	0.2264	0.1468	0.1146	-0.429
Mof_O 	O 	0.7999	0.1716	0.1951	-0.409
Mof_O 	O 	0.5747	0.1803	0.2149	-0.432
_end
