data_functionalizedCrystal
_audit_creation_method	'EQeq! by Chris Wilmer'
_symmetry_space_group_name_H-M	'P1'
_symmetry_Int_Tables_number	1
_symmetry_cell_setting	triclinic
loop_
_symmetry_equiv_pos_as_xyz
  x,y,z
_cell_length_a	20.6494
_cell_length_b	35.261
_cell_length_c	10.1318
_cell_angle_alpha	90
_cell_angle_beta	115.004
_cell_angle_gamma	90
loop_
_atom_site_label
_atom_site_type_symbol
_atom_site_fract_x
_atom_site_fract_y
_atom_site_fract_z
_atom_site_charge
Mof_Sm	Sm	0.63698	0.47008	0.97796	2.773
Mof_Sm	Sm	0.75699	0.30803	0.01054	2.707
Mof_S 	S 	0.84478	0.24701	0.32068	0.977
Mof_S 	S 	0.70721	0.39034	0.01999	0.676
Mof_S 	S 	0.55789	0.53542	0.13942	0.869
Mof_S 	S 	0.86733	0.23292	0.94329	0.925
Mof_S 	S 	0.75398	0.52691	0.87344	0.985
Mof_S 	S 	0.90358	0.34439	0.04318	0.667
Mof_O 	O 	0.79969	0.28064	0.2517	-0.575
Mof_O 	O 	0.81543	0.25314	0.9869	-0.795
Mof_O 	O 	0.58504	0.52804	0.0285	-0.536
Mof_O 	O 	0.8501	0.19246	0.9448	-0.52
Mof_O 	O 	0.73954	0.42673	0.0045	-0.441
Mof_O 	O 	0.91712	0.25366	0.3299	-0.537
Mof_O 	O 	0.6002	0.56533	0.2416	-0.512
Mof_O 	O 	0.8933	0.32447	0.1649	-0.599
Mof_O 	O 	0.93996	0.24	0.0546	-0.537
Mof_O 	O 	0.5651	0.5013	0.2291	-0.567
Mof_O 	O 	0.75819	0.36847	0.1452	-0.432
Mof_O 	O 	0.848	0.24236	0.466	-0.256
Mof_O 	O 	0.83656	0.33821	0.912	-0.463
Mof_O 	O 	0.64195	0.40127	0.0369	-0.465
Mof_O 	O 	0.48295	0.54808	0.0633	-0.573
Mof_O 	O 	0.8145	0.21259	0.2336	-0.587
Mof_O 	O 	0.68985	0.36559	0.8923	-0.47
Mof_O 	O 	0.96549	0.32524	0.0369	-0.396
Mof_O 	O 	0.8603	0.24494	0.8019	-0.281
Mof_O 	O 	0.9164	0.38465	0.0737	-0.194
Mof_O 	O 	0.714	0.51495	0.9574	-0.62
Mof_O 	O 	0.71	0.51897	0.7199	-0.66
Mof_O 	O 	0.7715	0.56645	0.8949	-0.298
Mof_O 	O 	0.819	0.5042	0.9219	-0.27
Mof_Sm	Sm	0.13698	0.97008	0.97796	2.75
Mof_Sm	Sm	0.25699	0.80803	0.01054	2.709
Mof_S 	S 	0.34478	0.74701	0.32068	1
Mof_S 	S 	0.20721	0.89034	0.01999	0.683
Mof_S 	S 	0.05789	0.03542	0.13942	0.753
Mof_S 	S 	0.36733	0.73292	0.94329	0.948
Mof_S 	S 	0.25398	0.02691	0.87344	0.986
Mof_S 	S 	0.40358	0.84439	0.04318	0.68
Mof_O 	O 	0.29969	0.78064	0.2517	-0.587
Mof_O 	O 	0.31543	0.75314	0.9869	-0.804
Mof_O 	O 	0.08504	0.02804	0.0285	-0.532
Mof_O 	O 	0.3501	0.69246	0.9448	-0.536
Mof_O 	O 	0.23954	0.92673	0.0045	-0.444
Mof_O 	O 	0.41712	0.75366	0.3299	-0.612
Mof_O 	O 	0.1002	0.06533	0.2416	-0.505
Mof_O 	O 	0.3933	0.82447	0.1649	-0.65
Mof_O 	O 	0.43996	0.74	0.0546	-0.615
Mof_O 	O 	0.0651	0.0013	0.2291	-0.57
Mof_O 	O 	0.25819	0.86847	0.1452	-0.44
Mof_O 	O 	0.348	0.74236	0.466	-0.28
Mof_O 	O 	0.33656	0.83821	0.912	-0.474
Mof_O 	O 	0.14195	0.90127	0.0369	-0.474
Mof_O 	O 	0.98295	0.04808	0.0633	-0.487
Mof_O 	O 	0.3145	0.71259	0.2336	-0.599
Mof_O 	O 	0.18985	0.86559	0.8923	-0.481
Mof_O 	O 	0.46549	0.82524	0.0369	-0.469
Mof_O 	O 	0.3603	0.74494	0.8019	-0.302
Mof_O 	O 	0.4164	0.88465	0.0737	-0.228
Mof_O 	O 	0.214	0.01495	0.9574	-0.622
Mof_O 	O 	0.21	0.01897	0.7199	-0.66
Mof_O 	O 	0.2715	0.06645	0.8949	-0.311
Mof_O 	O 	0.319	0.0042	0.9219	-0.286
Mof_Sm	Sm	0.36302	0.47008	0.52204	2.78
Mof_Sm	Sm	0.24301	0.30803	0.48946	2.695
Mof_S 	S 	0.15522	0.24701	0.17932	0.989
Mof_S 	S 	0.29279	0.39034	0.48001	0.677
Mof_S 	S 	0.44211	0.53542	0.36058	0.869
Mof_S 	S 	0.13267	0.23292	0.55671	0.943
Mof_S 	S 	0.24602	0.52691	0.62656	0.993
Mof_S 	S 	0.09642	0.34439	0.45682	0.676
Mof_O 	O 	0.20031	0.28064	0.2483	-0.584
Mof_O 	O 	0.18457	0.25314	0.5131	-0.797
Mof_O 	O 	0.41496	0.52804	0.4715	-0.539
Mof_O 	O 	0.1499	0.19246	0.5552	-0.545
Mof_O 	O 	0.26046	0.42673	0.4955	-0.452
Mof_O 	O 	0.08288	0.25366	0.1701	-0.607
Mof_O 	O 	0.3998	0.56533	0.2584	-0.514
Mof_O 	O 	0.1067	0.32447	0.3351	-0.638
Mof_O 	O 	0.06004	0.24	0.4454	-0.613
Mof_O 	O 	0.4349	0.5013	0.2709	-0.568
Mof_O 	O 	0.24181	0.36847	0.3548	-0.441
Mof_O 	O 	0.152	0.24236	0.034	-0.288
Mof_O 	O 	0.16344	0.33821	0.588	-0.473
Mof_O 	O 	0.35805	0.40127	0.4631	-0.467
Mof_O 	O 	0.51705	0.54808	0.4367	-0.573
Mof_O 	O 	0.1855	0.21259	0.2664	-0.603
Mof_O 	O 	0.31015	0.36559	0.6077	-0.469
Mof_O 	O 	0.03451	0.32524	0.4631	-0.481
Mof_O 	O 	0.1397	0.24494	0.6981	-0.313
Mof_O 	O 	0.0836	0.38465	0.4263	-0.254
Mof_O 	O 	0.286	0.51495	0.5426	-0.626
Mof_O 	O 	0.29	0.51897	0.7801	-0.668
Mof_O 	O 	0.2285	0.56645	0.6051	-0.319
Mof_O 	O 	0.181	0.5042	0.5781	-0.303
Mof_Sm	Sm	0.86302	0.97008	0.52204	2.799
Mof_Sm	Sm	0.74301	0.80803	0.48946	2.702
Mof_S 	S 	0.65522	0.74701	0.17932	1
Mof_S 	S 	0.79279	0.89034	0.48001	0.674
Mof_S 	S 	0.94211	0.03542	0.36058	0.987
Mof_S 	S 	0.63267	0.73292	0.55671	0.952
Mof_S 	S 	0.74602	0.02691	0.62656	0.992
Mof_S 	S 	0.59642	0.84439	0.45682	0.675
Mof_O 	O 	0.70031	0.78064	0.2483	-0.585
Mof_O 	O 	0.68457	0.75314	0.5131	-0.804
Mof_O 	O 	0.91496	0.02804	0.4715	-0.541
Mof_O 	O 	0.6499	0.69246	0.5552	-0.537
Mof_O 	O 	0.76046	0.92673	0.4955	-0.448
Mof_O 	O 	0.58288	0.75366	0.1701	-0.612
Mof_O 	O 	0.8998	0.06533	0.2584	-0.52
Mof_O 	O 	0.6067	0.82447	0.3351	-0.649
Mof_O 	O 	0.56004	0.74	0.4454	-0.618
Mof_O 	O 	0.9349	0.0013	0.2709	-0.565
Mof_O 	O 	0.74181	0.86847	0.3548	-0.434
Mof_O 	O 	0.652	0.74236	0.034	-0.275
Mof_O 	O 	0.66344	0.83821	0.588	-0.468
Mof_O 	O 	0.85805	0.90127	0.4631	-0.456
Mof_O 	O 	0.01705	0.04808	0.4367	-0.659
Mof_O 	O 	0.6855	0.71259	0.2664	-0.6
Mof_O 	O 	0.81015	0.86559	0.6077	-0.459
Mof_O 	O 	0.53451	0.82524	0.4631	-0.47
Mof_O 	O 	0.6397	0.74494	0.6981	-0.302
Mof_O 	O 	0.5836	0.88465	0.4263	-0.228
Mof_O 	O 	0.786	0.01495	0.5426	-0.624
Mof_O 	O 	0.79	0.01897	0.7801	-0.667
Mof_O 	O 	0.7285	0.06645	0.6051	-0.306
Mof_O 	O 	0.681	0.0042	0.5781	-0.287
Mof_Sm	Sm	0.36302	0.52992	0.02204	2.793
Mof_Sm	Sm	0.24301	0.69197	0.98946	2.683
Mof_S 	S 	0.15522	0.75299	0.67932	0.989
Mof_S 	S 	0.29279	0.60966	0.98001	0.672
Mof_S 	S 	0.44211	0.46458	0.86058	0.87
Mof_S 	S 	0.13267	0.76708	0.05671	0.949
Mof_S 	S 	0.24602	0.47309	0.12656	0.992
Mof_S 	S 	0.09642	0.65561	0.95682	0.67
Mof_O 	O 	0.20031	0.71936	0.7483	-0.583
Mof_O 	O 	0.18457	0.74686	0.0131	-0.794
Mof_O 	O 	0.41496	0.47196	0.9715	-0.543
Mof_O 	O 	0.1499	0.80754	0.0552	-0.545
Mof_O 	O 	0.26046	0.57327	0.9955	-0.454
Mof_O 	O 	0.08288	0.74634	0.6701	-0.608
Mof_O 	O 	0.3998	0.43467	0.7584	-0.514
Mof_O 	O 	0.1067	0.67553	0.8351	-0.637
Mof_O 	O 	0.06004	0.76	0.9454	-0.617
Mof_O 	O 	0.4349	0.4987	0.7709	-0.569
Mof_O 	O 	0.24181	0.63153	0.8548	-0.44
Mof_O 	O 	0.152	0.75764	0.534	-0.29
Mof_O 	O 	0.16344	0.66179	0.088	-0.466
Mof_O 	O 	0.35805	0.59873	0.9631	-0.469
Mof_O 	O 	0.51705	0.45192	0.9367	-0.574
Mof_O 	O 	0.1855	0.78741	0.7664	-0.606
Mof_O 	O 	0.31015	0.63441	0.1077	-0.463
Mof_O 	O 	0.03451	0.67476	0.9631	-0.481
Mof_O 	O 	0.1397	0.75506	0.1981	-0.312
Mof_O 	O 	0.0836	0.61535	0.9263	-0.255
Mof_O 	O 	0.286	0.48505	0.0426	-0.625
Mof_O 	O 	0.29	0.48103	0.2801	-0.665
Mof_O 	O 	0.2285	0.43355	0.1051	-0.317
Mof_O 	O 	0.181	0.4958	0.0781	-0.301
Mof_Sm	Sm	0.86302	0.02992	0.02204	2.806
Mof_Sm	Sm	0.74301	0.19197	0.98946	2.692
Mof_S 	S 	0.65522	0.25299	0.67932	1
Mof_S 	S 	0.79279	0.10966	0.98001	0.67
Mof_S 	S 	0.94211	0.96458	0.86058	0.988
Mof_S 	S 	0.63267	0.26708	0.05671	0.955
Mof_S 	S 	0.74602	0.97309	0.12656	0.991
Mof_S 	S 	0.59642	0.15561	0.95682	0.671
Mof_O 	O 	0.70031	0.21936	0.7483	-0.584
Mof_O 	O 	0.68457	0.24686	0.0131	-0.802
Mof_O 	O 	0.91496	0.97196	0.9715	-0.544
Mof_O 	O 	0.6499	0.30754	0.0552	-0.537
Mof_O 	O 	0.76046	0.07327	0.9955	-0.45
Mof_O 	O 	0.58288	0.24634	0.6701	-0.612
Mof_O 	O 	0.8998	0.93467	0.7584	-0.521
Mof_O 	O 	0.6067	0.17553	0.8351	-0.648
Mof_O 	O 	0.56004	0.26	0.9454	-0.62
Mof_O 	O 	0.9349	0.9987	0.7709	-0.566
Mof_O 	O 	0.74181	0.13153	0.8548	-0.434
Mof_O 	O 	0.652	0.25764	0.534	-0.277
Mof_O 	O 	0.66344	0.16179	0.088	-0.464
Mof_O 	O 	0.85805	0.09873	0.9631	-0.457
Mof_O 	O 	0.01705	0.95192	0.9367	-0.66
Mof_O 	O 	0.6855	0.28741	0.7664	-0.602
Mof_O 	O 	0.81015	0.13441	0.1077	-0.455
Mof_O 	O 	0.53451	0.17476	0.9631	-0.469
Mof_O 	O 	0.6397	0.25506	0.1981	-0.301
Mof_O 	O 	0.5836	0.11535	0.9263	-0.227
Mof_O 	O 	0.786	0.98505	0.0426	-0.623
Mof_O 	O 	0.79	0.98103	0.2801	-0.665
Mof_O 	O 	0.7285	0.93355	0.1051	-0.305
Mof_O 	O 	0.681	0.9958	0.0781	-0.285
Mof_Sm	Sm	0.63698	0.52992	0.47796	2.782
Mof_Sm	Sm	0.75699	0.69197	0.51054	2.7
Mof_S 	S 	0.84478	0.75299	0.82068	0.977
Mof_S 	S 	0.70721	0.60966	0.51999	0.674
Mof_S 	S 	0.55789	0.46458	0.63942	0.87
Mof_S 	S 	0.86733	0.76708	0.44329	0.929
Mof_S 	S 	0.75398	0.47309	0.37344	0.985
Mof_S 	S 	0.90358	0.65561	0.54318	0.663
Mof_O 	O 	0.79969	0.71936	0.7517	-0.574
Mof_O 	O 	0.81543	0.74686	0.4869	-0.793
Mof_O 	O 	0.58504	0.47196	0.5285	-0.539
Mof_O 	O 	0.8501	0.80754	0.4448	-0.52
Mof_O 	O 	0.73954	0.57327	0.5045	-0.442
Mof_O 	O 	0.91712	0.74634	0.8299	-0.536
Mof_O 	O 	0.6002	0.43467	0.7416	-0.512
Mof_O 	O 	0.8933	0.67553	0.6649	-0.597
Mof_O 	O 	0.93996	0.76	0.5546	-0.538
Mof_O 	O 	0.5651	0.4987	0.7291	-0.568
Mof_O 	O 	0.75819	0.63153	0.6452	-0.431
Mof_O 	O 	0.848	0.75764	0.966	-0.257
Mof_O 	O 	0.83656	0.66179	0.412	-0.459
Mof_O 	O 	0.64195	0.59873	0.5369	-0.466
Mof_O 	O 	0.48295	0.45192	0.5633	-0.573
Mof_O 	O 	0.8145	0.78741	0.7336	-0.589
Mof_O 	O 	0.68985	0.63441	0.3923	-0.466
Mof_O 	O 	0.96549	0.67476	0.5369	-0.394
Mof_O 	O 	0.8603	0.75506	0.3019	-0.28
Mof_O 	O 	0.9164	0.61535	0.5737	-0.194
Mof_O 	O 	0.714	0.48505	0.4574	-0.619
Mof_O 	O 	0.71	0.48103	0.2199	-0.658
Mof_O 	O 	0.7715	0.43355	0.3949	-0.297
Mof_O 	O 	0.819	0.4958	0.4219	-0.268
Mof_Sm	Sm	0.13698	0.02992	0.47796	2.764
Mof_Sm	Sm	0.25699	0.19197	0.51054	2.696
Mof_S 	S 	0.34478	0.25299	0.82068	1
Mof_S 	S 	0.20721	0.10966	0.51999	0.677
Mof_S 	S 	0.05789	0.96458	0.63942	0.751
Mof_S 	S 	0.36733	0.26708	0.44329	0.952
Mof_S 	S 	0.25398	0.97309	0.37344	0.985
Mof_S 	S 	0.40358	0.15561	0.54318	0.675
Mof_O 	O 	0.29969	0.21936	0.7517	-0.586
Mof_O 	O 	0.31543	0.24686	0.4869	-0.802
Mof_O 	O 	0.08504	0.97196	0.5285	-0.536
Mof_O 	O 	0.3501	0.30754	0.4448	-0.537
Mof_O 	O 	0.23954	0.07327	0.5045	-0.447
Mof_O 	O 	0.41712	0.24634	0.8299	-0.612
Mof_O 	O 	0.1002	0.93467	0.7416	-0.505
Mof_O 	O 	0.3933	0.17553	0.6649	-0.648
Mof_O 	O 	0.43996	0.26	0.5546	-0.618
Mof_O 	O 	0.0651	0.9987	0.7291	-0.571
Mof_O 	O 	0.25819	0.13153	0.6452	-0.439
Mof_O 	O 	0.348	0.25764	0.966	-0.281
Mof_O 	O 	0.33656	0.16179	0.412	-0.468
Mof_O 	O 	0.14195	0.09873	0.5369	-0.477
Mof_O 	O 	0.98295	0.95192	0.5633	-0.486
Mof_O 	O 	0.3145	0.28741	0.7336	-0.602
Mof_O 	O 	0.18985	0.13441	0.3923	-0.475
Mof_O 	O 	0.46549	0.17476	0.5369	-0.469
Mof_O 	O 	0.3603	0.25506	0.3019	-0.301
Mof_O 	O 	0.4164	0.11535	0.5737	-0.228
Mof_O 	O 	0.214	0.98505	0.4574	-0.622
Mof_O 	O 	0.21	0.98103	0.2199	-0.657
Mof_O 	O 	0.2715	0.93355	0.3949	-0.31
Mof_O 	O 	0.319	0.9958	0.4219	-0.285
Mof_Sm	Sm	6.54318e-34	0.28095	0.25	2.506
Mof_Sm	Sm	0.5	0.78095	0.25	2.802
Mof_Sm	Sm	-3.40087e-17	0.71905	0.75	2.498
Mof_Sm	Sm	0.5	0.21905	0.75	2.801
_end
