data_functionalizedCrystal
_audit_creation_method	'EQeq! by Chris Wilmer'
_symmetry_space_group_name_H-M	'P1'
_symmetry_Int_Tables_number	1
_symmetry_cell_setting	triclinic
loop_
_symmetry_equiv_pos_as_xyz
  x,y,z
_cell_length_a	8.309
_cell_length_b	9.35
_cell_length_c	16.158
_cell_angle_alpha	90
_cell_angle_beta	90
_cell_angle_gamma	94.078
loop_
_atom_site_label
_atom_site_type_symbol
_atom_site_fract_x
_atom_site_fract_y
_atom_site_fract_z
_atom_site_charge
Mof_Pr	Pr	0.4681	0.39198	0.60653	2.416
Mof_Pr	Pr	0.0319	0.60802	0.10653	2.395
Mof_Pr	Pr	0.5319	0.60802	0.39347	2.416
Mof_Pr	Pr	0.9681	0.39198	0.89347	2.395
Mof_H 	H 	0.654	0.9662	0.7155	0.05
Mof_H 	H 	0.7235	0.7696	0.7823	-0.029
Mof_H 	H 	0.8947	0.0185	0.9645	-0.032
Mof_H 	H 	0.2213	0.4063	0.4537	0.191
Mof_H 	H 	0.3447	0.5194	0.4455	-0.063
Mof_H 	H 	0.846	0.0338	0.2155	0.059
Mof_H 	H 	0.7765	0.2304	0.2823	-0.035
Mof_H 	H 	0.6053	0.9815	0.4645	-0.034
Mof_H 	H 	0.2787	0.5937	0.9537	0.191
Mof_H 	H 	0.1553	0.4806	0.9455	-0.059
Mof_H 	H 	0.346	0.0338	0.2845	0.05
Mof_H 	H 	0.2765	0.2304	0.2177	-0.029
Mof_H 	H 	0.1053	0.9815	0.0355	-0.032
Mof_H 	H 	0.7787	0.5937	0.5463	0.191
Mof_H 	H 	0.6553	0.4806	0.5545	-0.063
Mof_H 	H 	0.154	0.9662	0.7845	0.059
Mof_H 	H 	0.2235	0.7696	0.7177	-0.035
Mof_H 	H 	0.3947	0.0185	0.5355	-0.034
Mof_H 	H 	0.7213	0.4063	0.0463	0.191
Mof_H 	H 	0.8447	0.5194	0.0545	-0.059
Mof_C 	C 	0.707	0.245	0.754	0.474
Mof_C 	C 	0.742	0.107	0.7966	-0.068
Mof_C 	C 	0.707	0.976	0.766	-0.086
Mof_C 	C 	0.744	0.86	0.806	0.08
Mof_C 	C 	0.815	0.874	0.8835	-0.234
Mof_C 	C 	0.848	0.008	0.9124	0.135
Mof_C 	C 	0.871	0.744	0.9295	0.554
Mof_C 	C 	0.793	0.755	0.254	0.469
Mof_C 	C 	0.758	0.893	0.2966	-0.052
Mof_C 	C 	0.793	0.024	0.266	-0.11
Mof_C 	C 	0.756	0.14	0.306	0.1
Mof_C 	C 	0.685	0.126	0.3835	-0.253
Mof_C 	C 	0.652	0.992	0.4124	0.154
Mof_C 	C 	0.629	0.256	0.4295	0.561
Mof_C 	C 	0.293	0.755	0.246	0.474
Mof_C 	C 	0.258	0.893	0.2034	-0.068
Mof_C 	C 	0.293	0.024	0.234	-0.086
Mof_C 	C 	0.256	0.14	0.194	0.08
Mof_C 	C 	0.185	0.126	0.1165	-0.234
Mof_C 	C 	0.152	0.992	0.0876	0.135
Mof_C 	C 	0.129	0.256	0.0705	0.554
Mof_C 	C 	0.207	0.245	0.746	0.469
Mof_C 	C 	0.242	0.107	0.7034	-0.052
Mof_C 	C 	0.207	0.976	0.734	-0.11
Mof_C 	C 	0.244	0.86	0.694	0.1
Mof_C 	C 	0.315	0.874	0.6165	-0.253
Mof_C 	C 	0.348	0.008	0.5876	0.154
Mof_C 	C 	0.371	0.744	0.5705	0.561
Mof_N 	N 	0.816	0.127	0.8702	-0.237
Mof_N 	N 	0.684	0.873	0.3702	-0.242
Mof_N 	N 	0.184	0.873	0.1298	-0.237
Mof_N 	N 	0.316	0.127	0.6298	-0.242
Mof_O 	O 	0.919	0.761	0.9988	-0.608
Mof_O 	O 	0.855	0.6256	0.8914	-0.619
Mof_O 	O 	0.622	0.236	0.6925	-0.596
Mof_O 	O 	0.767	0.357	0.789	-0.641
Mof_O 	O 	0.324	0.441	0.4709	-0.687
Mof_O 	O 	0.581	0.239	0.4988	-0.613
Mof_O 	O 	0.645	0.3744	0.3914	-0.622
Mof_O 	O 	0.878	0.764	0.1925	-0.587
Mof_O 	O 	0.733	0.643	0.289	-0.639
Mof_O 	O 	0.176	0.559	0.9709	-0.683
Mof_O 	O 	0.081	0.239	0.0012	-0.608
Mof_O 	O 	0.145	0.3744	0.1086	-0.619
Mof_O 	O 	0.378	0.764	0.3075	-0.596
Mof_O 	O 	0.233	0.643	0.211	-0.641
Mof_O 	O 	0.676	0.559	0.5291	-0.687
Mof_O 	O 	0.419	0.761	0.5012	-0.613
Mof_O 	O 	0.355	0.6256	0.6086	-0.622
Mof_O 	O 	0.122	0.236	0.8075	-0.587
Mof_O 	O 	0.267	0.357	0.711	-0.639
Mof_O 	O 	0.824	0.441	0.0291	-0.683
_end
