data_functionalizedCrystal
_audit_creation_method	'EQeq! by Chris Wilmer'
_symmetry_space_group_name_H-M	'P1'
_symmetry_Int_Tables_number	1
_symmetry_cell_setting	triclinic
loop_
_symmetry_equiv_pos_as_xyz
  x,y,z
_cell_length_a	16.1652
_cell_length_b	16.1652
_cell_length_c	29.4964
_cell_angle_alpha	74.316
_cell_angle_beta	74.316
_cell_angle_gamma	63.7851
loop_
_atom_site_label
_atom_site_type_symbol
_atom_site_fract_x
_atom_site_fract_y
_atom_site_fract_z
_atom_site_charge
Mof_Co	Co	0.78939	0.12525	0.517	1.159
Mof_Co	Co	0.03762	0.81996	0.5809	1.148
Mof_Co	Co	0.87475	0.21061	0.983	1.176
Mof_Co	Co	0.18004	0.96238	0.9191	1.181
Mof_Co	Co	0.21061	0.87475	0.483	1.173
Mof_Co	Co	0.96238	0.18004	0.4191	1.181
Mof_Co	Co	0.12525	0.78939	0.017	1.156
Mof_Co	Co	0.81996	0.03762	0.0809	1.146
Mof_Co	Co	8.67158e-18	0	0.5	1.126
Mof_Co	Co	-0	0	-0	1.118
Mof_H 	H 	0.7174	0.0198	0.6134	-0.01
Mof_H 	H 	0.6347	0.0503	0.6876	0.062
Mof_H 	H 	0.5465	0.3237	0.6326	0.069
Mof_H 	H 	0.6301	0.2853	0.5599	0.004
Mof_H 	H 	0.481	0.1144	0.738	0.094
Mof_H 	H 	0.3784	0.2964	0.8288	0.144
Mof_H 	H 	0.5643	0.3255	0.7111	0.146
Mof_H 	H 	0.4703	0.0203	0.8311	0.043
Mof_H 	H 	0.3807	0.9417	0.8771	0.065
Mof_H 	H 	0.1535	0.1623	0.8609	-0.002
Mof_H 	H 	0.2367	0.2493	0.8179	0.063
Mof_H 	H 	0.3897	0.4687	0.8591	0.134
Mof_H 	H 	0.1732	0.6812	0.8045	0.089
Mof_H 	H 	0.3715	0.4997	0.7225	0.126
Mof_H 	H 	0.3647	0.5745	0.9045	0.069
Mof_H 	H 	0.3085	0.6429	0.9708	0.004
Mof_H 	H 	0.0524	0.7242	0.9543	-0
Mof_H 	H 	0.1009	0.6627	0.8865	0.064
Mof_H 	H 	0.1375	0.7765	0.7382	0.066
Mof_H 	H 	0.0639	0.8543	0.6745	-0.005
Mof_H 	H 	0.2095	0.6441	0.6089	0.002
Mof_H 	H 	0.2834	0.5588	0.672	0.065
Mof_H 	H 	0.9546	0.7282	0.5258	-0.022
Mof_H 	H 	0.9026	0.6088	0.5442	0.165
Mof_H 	H 	0.638	0.794	0.5644	0.167
Mof_H 	H 	0.6889	0.9139	0.5463	-0.023
Mof_H 	H 	0.8353	0.5835	0.4871	0.164
Mof_H 	H 	0.8757	0.4517	0.4565	-0.034
Mof_H 	H 	0.7324	0.3542	0.5751	-0.038
Mof_H 	H 	0.6973	0.4827	0.6072	0.167
Mof_H 	H 	0.1178	0.0326	0.3027	-0.127
Mof_H 	H 	0.1795	0.9457	0.2428	0.201
Mof_H 	H 	0.2166	0.7116	0.3396	0.185
Mof_H 	H 	0.1597	0.7981	0.4001	-0.061
Mof_H 	H 	0.9802	0.2826	0.8866	0.017
Mof_H 	H 	0.9497	0.3653	0.8124	0.076
Mof_H 	H 	0.6763	0.4535	0.8674	0.071
Mof_H 	H 	0.7147	0.3699	0.9401	0.006
Mof_H 	H 	0.8856	0.519	0.762	0.099
Mof_H 	H 	0.7036	0.6216	0.6712	0.139
Mof_H 	H 	0.6745	0.4357	0.7889	0.143
Mof_H 	H 	0.9797	0.5297	0.6689	0.107
Mof_H 	H 	0.0583	0.6193	0.6229	-0.062
Mof_H 	H 	0.8377	0.8465	0.6391	0.003
Mof_H 	H 	0.7507	0.7633	0.6821	0.09
Mof_H 	H 	0.5313	0.6103	0.6409	0.134
Mof_H 	H 	0.3188	0.8268	0.6955	0.094
Mof_H 	H 	0.5003	0.6285	0.7775	0.128
Mof_H 	H 	0.4255	0.6353	0.5955	0.068
Mof_H 	H 	0.3571	0.6915	0.5292	0.001
Mof_H 	H 	0.2758	0.9476	0.5457	0.02
Mof_H 	H 	0.3373	0.8991	0.6135	0.073
Mof_H 	H 	0.2235	0.8625	0.7618	0.068
Mof_H 	H 	0.1457	0.9361	0.8255	0.01
Mof_H 	H 	0.3559	0.7905	0.8911	0.003
Mof_H 	H 	0.4412	0.7166	0.828	0.069
Mof_H 	H 	0.2718	0.0454	0.9742	-0.049
Mof_H 	H 	0.3912	0.0974	0.9558	0.156
Mof_H 	H 	0.206	0.362	0.9356	0.164
Mof_H 	H 	0.0861	0.3111	0.9537	-0.045
Mof_H 	H 	0.4165	0.1647	0.0129	0.1
Mof_H 	H 	0.5483	0.1243	0.0435	-0.01
Mof_H 	H 	0.6458	0.2676	0.9249	-0.013
Mof_H 	H 	0.5173	0.3027	0.8928	0.143
Mof_H 	H 	0.9674	0.8822	0.1973	0.062
Mof_H 	H 	0.0543	0.8205	0.2572	0.112
Mof_H 	H 	0.2884	0.7834	0.1604	0.141
Mof_H 	H 	0.2019	0.8403	0.0999	-0.003
Mof_H 	H 	0.2826	0.9802	0.3866	0.018
Mof_H 	H 	0.3653	0.9497	0.3124	0.076
Mof_H 	H 	0.4535	0.6763	0.3674	0.071
Mof_H 	H 	0.3699	0.7147	0.4401	0.004
Mof_H 	H 	0.519	0.8856	0.262	0.099
Mof_H 	H 	0.6216	0.7036	0.1712	0.139
Mof_H 	H 	0.4357	0.6745	0.2889	0.142
Mof_H 	H 	0.5297	0.9797	0.1689	0.108
Mof_H 	H 	0.6193	0.0583	0.1229	-0.066
Mof_H 	H 	0.8465	0.8377	0.1391	0.003
Mof_H 	H 	0.7633	0.7507	0.1821	0.091
Mof_H 	H 	0.6103	0.5313	0.1409	0.133
Mof_H 	H 	0.8268	0.3188	0.1955	0.094
Mof_H 	H 	0.6285	0.5003	0.2775	0.127
Mof_H 	H 	0.6353	0.4255	0.0955	0.068
Mof_H 	H 	0.6915	0.3571	0.0292	-0.003
Mof_H 	H 	0.9476	0.2758	0.0457	0.017
Mof_H 	H 	0.8991	0.3373	0.1135	0.073
Mof_H 	H 	0.8625	0.2235	0.2618	0.068
Mof_H 	H 	0.9361	0.1457	0.3255	0.01
Mof_H 	H 	0.7905	0.3559	0.3911	0.002
Mof_H 	H 	0.7166	0.4412	0.328	0.068
Mof_H 	H 	0.0454	0.2718	0.4742	-0.055
Mof_H 	H 	0.0974	0.3912	0.4558	0.157
Mof_H 	H 	0.362	0.206	0.4356	0.166
Mof_H 	H 	0.3111	0.0861	0.4537	-0.05
Mof_H 	H 	0.1647	0.4165	0.5129	0.153
Mof_H 	H 	0.1243	0.5483	0.5435	-0.051
Mof_H 	H 	0.2676	0.6458	0.4249	-0.039
Mof_H 	H 	0.3027	0.5173	0.3928	0.167
Mof_H 	H 	0.8822	0.9674	0.6973	0.057
Mof_H 	H 	0.8205	0.0543	0.7572	0.114
Mof_H 	H 	0.7834	0.2884	0.6604	0.142
Mof_H 	H 	0.8403	0.2019	0.5999	-0.004
Mof_H 	H 	0.0198	0.7174	0.1134	-0.012
Mof_H 	H 	0.0503	0.6347	0.1876	0.061
Mof_H 	H 	0.3237	0.5465	0.1326	0.068
Mof_H 	H 	0.2853	0.6301	0.0599	0.002
Mof_H 	H 	0.1144	0.481	0.238	0.093
Mof_H 	H 	0.2964	0.3784	0.3288	0.145
Mof_H 	H 	0.3255	0.5643	0.2111	0.146
Mof_H 	H 	0.0203	0.4703	0.3311	0.041
Mof_H 	H 	0.9417	0.3807	0.3771	0.067
Mof_H 	H 	0.1623	0.1535	0.3609	-0.002
Mof_H 	H 	0.2493	0.2367	0.3179	0.062
Mof_H 	H 	0.4687	0.3897	0.3591	0.133
Mof_H 	H 	0.6812	0.1732	0.3045	0.089
Mof_H 	H 	0.4997	0.3715	0.2225	0.126
Mof_H 	H 	0.5745	0.3647	0.4045	0.069
Mof_H 	H 	0.6429	0.3085	0.4708	-0
Mof_H 	H 	0.7242	0.0524	0.4543	-0.004
Mof_H 	H 	0.6627	0.1009	0.3865	0.064
Mof_H 	H 	0.7765	0.1375	0.2382	0.066
Mof_H 	H 	0.8543	0.0639	0.1745	-0.006
Mof_H 	H 	0.6441	0.2095	0.1089	0.001
Mof_H 	H 	0.5588	0.2834	0.172	0.065
Mof_H 	H 	0.7282	0.9546	0.0258	-0.025
Mof_H 	H 	0.6088	0.9026	0.0442	0.165
Mof_H 	H 	0.794	0.638	0.0644	0.168
Mof_H 	H 	0.9139	0.6889	0.0463	-0.025
Mof_H 	H 	0.5835	0.8353	0.9871	0.204
Mof_H 	H 	0.4517	0.8757	0.9565	-0.067
Mof_H 	H 	0.3542	0.7324	0.0751	-0.058
Mof_H 	H 	0.4827	0.6973	0.1072	0.186
Mof_H 	H 	0.0326	0.1178	0.8027	-0.123
Mof_H 	H 	0.9457	0.1795	0.7428	0.199
Mof_H 	H 	0.7116	0.2166	0.8396	0.185
Mof_H 	H 	0.7981	0.1597	0.9001	-0.06
Mof_C 	C 	0.68357	0.08179	0.61755	0.069
Mof_C 	C 	0.63395	0.09955	0.66231	-0.116
Mof_C 	C 	0.5831	0.191	0.66941	0.023
Mof_C 	C 	0.58165	0.26117	0.62976	-0.114
Mof_C 	C 	0.63263	0.23745	0.58619	0.069
Mof_C 	C 	0.53046	0.21612	0.71652	0.129
Mof_C 	C 	0.47803	0.16743	0.74624	-0.2
Mof_C 	C 	0.42096	0.1973	0.78835	0.136
Mof_C 	C 	0.41743	0.27513	0.80113	-0.279
Mof_C 	C 	0.47296	0.32096	0.77201	0.297
Mof_C 	C 	0.52825	0.29313	0.73028	-0.272
Mof_C 	C 	0.3637	0.14474	0.81864	0.003
Mof_C 	C 	0.4054	0.05154	0.83714	-0.066
Mof_C 	C 	0.35089	0.00473	0.86461	-0.025
Mof_C 	C 	0.21861	0.13327	0.85567	0.069
Mof_C 	C 	0.26807	0.18583	0.82897	-0.106
Mof_C 	C 	0.39165	0.47243	0.79024	0.29
Mof_C 	C 	0.35766	0.50162	0.83368	-0.263
Mof_C 	C 	0.27511	0.58071	0.83935	0.121
Mof_C 	C 	0.22906	0.62888	0.80071	-0.184
Mof_C 	C 	0.26473	0.60053	0.75652	0.117
Mof_C 	C 	0.34695	0.52049	0.7517	-0.258
Mof_C 	C 	0.23934	0.61474	0.88566	0.026
Mof_C 	C 	0.3005	0.60704	0.91319	-0.113
Mof_C 	C 	0.26598	0.6476	0.95336	0.063
Mof_C 	C 	0.1164	0.69562	0.94347	0.066
Mof_C 	C 	0.14495	0.65853	0.90276	-0.118
Mof_C 	C 	0.21692	0.6553	0.71447	0.029
Mof_C 	C 	0.15208	0.74628	0.71258	-0.123
Mof_C 	C 	0.10835	0.79341	0.67375	0.071
Mof_C 	C 	0.19254	0.671	0.63601	0.064
Mof_C 	C 	0.23805	0.61901	0.67391	-0.118
Mof_C 	C 	0.85807	0.91207	0.5272	0.436
Mof_C 	C 	0.82721	0.83353	0.53477	-0.252
Mof_C 	C 	0.89077	0.74185	0.53378	0.217
Mof_C 	C 	0.85981	0.67039	0.54456	-0.351
Mof_C 	C 	0.76613	0.69105	0.55576	0.36
Mof_C 	C 	0.70172	0.78112	0.55668	-0.342
Mof_C 	C 	0.73229	0.85241	0.54599	0.218
Mof_C 	C 	0.76219	0.54629	0.5501	0.362
Mof_C 	C 	0.81537	0.53669	0.50505	-0.361
Mof_C 	C 	0.83884	0.45808	0.48661	0.235
Mof_C 	C 	0.80849	0.38851	0.51219	-0.263
Mof_C 	C 	0.75417	0.39991	0.55746	0.224
Mof_C 	C 	0.73217	0.47713	0.57659	-0.348
Mof_C 	C 	0.83107	0.30383	0.49228	0.455
Mof_C 	C 	0.08897	0.98209	0.39689	0.52
Mof_C 	C 	0.13089	0.92509	0.35802	-0.36
Mof_C 	C 	0.1377	0.96778	0.31035	0.389
Mof_C 	C 	0.17302	0.91646	0.27459	-0.457
Mof_C 	C 	0.19913	0.82085	0.28581	0.405
Mof_C 	C 	0.19592	0.77652	0.33232	-0.41
Mof_C 	C 	0.16191	0.82835	0.36837	0.294
Mof_C 	C 	0.91821	0.31643	0.88245	0.073
Mof_C 	C 	0.90045	0.36605	0.83769	-0.112
Mof_C 	C 	0.809	0.4169	0.83059	0.03
Mof_C 	C 	0.73883	0.41835	0.87024	-0.114
Mof_C 	C 	0.76255	0.36737	0.91381	0.072
Mof_C 	C 	0.78388	0.46954	0.78348	0.124
Mof_C 	C 	0.83257	0.52197	0.75376	-0.182
Mof_C 	C 	0.8027	0.57904	0.71165	0.111
Mof_C 	C 	0.72487	0.58257	0.69887	-0.26
Mof_C 	C 	0.67904	0.52704	0.72799	0.289
Mof_C 	C 	0.70687	0.47175	0.76972	-0.263
Mof_C 	C 	0.85526	0.6363	0.68136	0.073
Mof_C 	C 	0.94846	0.5946	0.66286	-0.189
Mof_C 	C 	0.99527	0.64911	0.63539	0.188
Mof_C 	C 	0.86673	0.78139	0.64433	0.102
Mof_C 	C 	0.81417	0.73193	0.67103	-0.152
Mof_C 	C 	0.52757	0.60835	0.70976	0.291
Mof_C 	C 	0.49838	0.64234	0.66632	-0.263
Mof_C 	C 	0.41929	0.72489	0.66065	0.124
Mof_C 	C 	0.37112	0.77094	0.69929	-0.183
Mof_C 	C 	0.39947	0.73527	0.74348	0.122
Mof_C 	C 	0.47951	0.65305	0.7483	-0.258
Mof_C 	C 	0.38526	0.76066	0.61434	0.027
Mof_C 	C 	0.39296	0.6995	0.58681	-0.112
Mof_C 	C 	0.3524	0.73402	0.54664	0.064
Mof_C 	C 	0.30438	0.8836	0.55653	0.066
Mof_C 	C 	0.34147	0.85505	0.59724	-0.114
Mof_C 	C 	0.3447	0.78308	0.78553	0.033
Mof_C 	C 	0.25372	0.84792	0.78742	-0.118
Mof_C 	C 	0.20659	0.89165	0.82625	0.077
Mof_C 	C 	0.329	0.80746	0.86399	0.069
Mof_C 	C 	0.38099	0.76195	0.82609	-0.114
Mof_C 	C 	0.08793	0.14193	0.9728	0.45
Mof_C 	C 	0.16647	0.17279	0.96523	-0.281
Mof_C 	C 	0.25815	0.10923	0.96622	0.231
Mof_C 	C 	0.32961	0.14019	0.95544	-0.362
Mof_C 	C 	0.30895	0.23387	0.94424	0.361
Mof_C 	C 	0.21888	0.29828	0.94332	-0.357
Mof_C 	C 	0.14759	0.26771	0.95401	0.231
Mof_C 	C 	0.45371	0.23781	0.9499	0.295
Mof_C 	C 	0.46331	0.18463	0.99495	-0.244
Mof_C 	C 	0.54192	0.16116	0.01339	0.109
Mof_C 	C 	0.61149	0.19151	0.98781	-0.179
Mof_C 	C 	0.60009	0.24583	0.94254	0.152
Mof_C 	C 	0.52287	0.26783	0.92341	-0.283
Mof_C 	C 	0.69617	0.16893	0.00772	0.401
Mof_C 	C 	0.01791	0.91103	0.10311	0.348
Mof_C 	C 	0.07491	0.86911	0.14198	-0.166
Mof_C 	C 	0.03222	0.8623	0.18965	0.049
Mof_C 	C 	0.08354	0.82698	0.22541	-0.236
Mof_C 	C 	0.17915	0.80087	0.21419	0.285
Mof_C 	C 	0.22348	0.80408	0.16768	-0.271
Mof_C 	C 	0.17165	0.83809	0.13163	0.14
Mof_C 	C 	0.31643	0.91821	0.38245	0.072
Mof_C 	C 	0.36605	0.90045	0.33769	-0.112
Mof_C 	C 	0.4169	0.809	0.33059	0.03
Mof_C 	C 	0.41835	0.73883	0.37024	-0.115
Mof_C 	C 	0.36737	0.76255	0.41381	0.072
Mof_C 	C 	0.46954	0.78388	0.28348	0.124
Mof_C 	C 	0.52197	0.83257	0.25376	-0.181
Mof_C 	C 	0.57904	0.8027	0.21165	0.11
Mof_C 	C 	0.58257	0.72487	0.19887	-0.259
Mof_C 	C 	0.52704	0.67904	0.22799	0.289
Mof_C 	C 	0.47175	0.70687	0.26972	-0.263
Mof_C 	C 	0.6363	0.85526	0.18136	0.075
Mof_C 	C 	0.5946	0.94846	0.16286	-0.193
Mof_C 	C 	0.64911	0.99527	0.13539	0.193
Mof_C 	C 	0.78139	0.86673	0.14433	0.103
Mof_C 	C 	0.73193	0.81417	0.17103	-0.153
Mof_C 	C 	0.60835	0.52757	0.20976	0.291
Mof_C 	C 	0.64234	0.49838	0.16632	-0.262
Mof_C 	C 	0.72489	0.41929	0.16065	0.123
Mof_C 	C 	0.77094	0.37112	0.19929	-0.183
Mof_C 	C 	0.73527	0.39947	0.24348	0.121
Mof_C 	C 	0.65305	0.47951	0.2483	-0.257
Mof_C 	C 	0.76066	0.38526	0.11434	0.027
Mof_C 	C 	0.6995	0.39296	0.08681	-0.113
Mof_C 	C 	0.73402	0.3524	0.04664	0.064
Mof_C 	C 	0.8836	0.30438	0.05653	0.066
Mof_C 	C 	0.85505	0.34147	0.09724	-0.115
Mof_C 	C 	0.78308	0.3447	0.28553	0.033
Mof_C 	C 	0.84792	0.25372	0.28742	-0.118
Mof_C 	C 	0.89165	0.20659	0.32625	0.077
Mof_C 	C 	0.80746	0.329	0.36399	0.069
Mof_C 	C 	0.76195	0.38099	0.32609	-0.115
Mof_C 	C 	0.14193	0.08793	0.4728	0.452
Mof_C 	C 	0.17279	0.16647	0.46523	-0.289
Mof_C 	C 	0.10923	0.25815	0.46622	0.237
Mof_C 	C 	0.14019	0.32961	0.45544	-0.373
Mof_C 	C 	0.23387	0.30895	0.44424	0.37
Mof_C 	C 	0.29828	0.21888	0.44332	-0.366
Mof_C 	C 	0.26771	0.14759	0.45401	0.236
Mof_C 	C 	0.23781	0.45371	0.4499	0.361
Mof_C 	C 	0.18463	0.46331	0.49495	-0.369
Mof_C 	C 	0.16116	0.54192	0.51339	0.233
Mof_C 	C 	0.19151	0.61149	0.48781	-0.273
Mof_C 	C 	0.24583	0.60009	0.44254	0.226
Mof_C 	C 	0.26783	0.52287	0.42341	-0.353
Mof_C 	C 	0.16893	0.69617	0.50772	0.456
Mof_C 	C 	0.91103	0.01791	0.60311	0.352
Mof_C 	C 	0.86911	0.07491	0.64198	-0.17
Mof_C 	C 	0.8623	0.03222	0.68965	0.058
Mof_C 	C 	0.82698	0.08354	0.72541	-0.242
Mof_C 	C 	0.80087	0.17915	0.71419	0.289
Mof_C 	C 	0.80408	0.22348	0.66768	-0.274
Mof_C 	C 	0.83809	0.17165	0.63163	0.144
Mof_C 	C 	0.08179	0.68357	0.11755	0.068
Mof_C 	C 	0.09955	0.63395	0.16231	-0.116
Mof_C 	C 	0.191	0.5831	0.16941	0.023
Mof_C 	C 	0.26117	0.58165	0.12976	-0.115
Mof_C 	C 	0.23745	0.63263	0.08619	0.069
Mof_C 	C 	0.21612	0.53046	0.21652	0.129
Mof_C 	C 	0.16743	0.47803	0.24624	-0.201
Mof_C 	C 	0.1973	0.42096	0.28835	0.137
Mof_C 	C 	0.27513	0.41743	0.30113	-0.28
Mof_C 	C 	0.32096	0.47296	0.27201	0.297
Mof_C 	C 	0.29313	0.52825	0.23028	-0.273
Mof_C 	C 	0.14474	0.3637	0.31864	0.001
Mof_C 	C 	0.05154	0.4054	0.33714	-0.063
Mof_C 	C 	0.00473	0.35089	0.36461	-0.031
Mof_C 	C 	0.13327	0.21861	0.35567	0.068
Mof_C 	C 	0.18583	0.26807	0.32897	-0.105
Mof_C 	C 	0.47243	0.39165	0.29024	0.29
Mof_C 	C 	0.50162	0.35766	0.33368	-0.263
Mof_C 	C 	0.58071	0.27511	0.33935	0.12
Mof_C 	C 	0.62888	0.22906	0.30071	-0.183
Mof_C 	C 	0.60053	0.26473	0.25652	0.117
Mof_C 	C 	0.52049	0.34695	0.2517	-0.258
Mof_C 	C 	0.61474	0.23934	0.38566	0.026
Mof_C 	C 	0.60704	0.3005	0.41319	-0.114
Mof_C 	C 	0.6476	0.26598	0.45336	0.063
Mof_C 	C 	0.69562	0.1164	0.44347	0.066
Mof_C 	C 	0.65853	0.14495	0.40276	-0.119
Mof_C 	C 	0.6553	0.21692	0.21447	0.029
Mof_C 	C 	0.74628	0.15208	0.21258	-0.124
Mof_C 	C 	0.79341	0.10835	0.17375	0.071
Mof_C 	C 	0.671	0.19254	0.13601	0.064
Mof_C 	C 	0.61901	0.23805	0.17391	-0.118
Mof_C 	C 	0.91207	0.85807	0.0272	0.436
Mof_C 	C 	0.83353	0.82721	0.03477	-0.256
Mof_C 	C 	0.74185	0.89077	0.03378	0.221
Mof_C 	C 	0.67039	0.85981	0.04456	-0.359
Mof_C 	C 	0.69105	0.76613	0.05576	0.366
Mof_C 	C 	0.78112	0.70172	0.05668	-0.348
Mof_C 	C 	0.85241	0.73229	0.04599	0.222
Mof_C 	C 	0.54629	0.76219	0.0501	0.413
Mof_C 	C 	0.53669	0.81537	0.00505	-0.455
Mof_C 	C 	0.45808	0.83884	0.98661	0.333
Mof_C 	C 	0.38851	0.80849	0.01219	-0.338
Mof_C 	C 	0.39991	0.75417	0.05746	0.283
Mof_C 	C 	0.47713	0.73217	0.07659	-0.403
Mof_C 	C 	0.30383	0.83107	0.99228	0.502
Mof_C 	C 	0.98209	0.08897	0.89689	0.515
Mof_C 	C 	0.92509	0.13089	0.85802	-0.355
Mof_C 	C 	0.96778	0.1377	0.81035	0.381
Mof_C 	C 	0.91646	0.17302	0.77459	-0.453
Mof_C 	C 	0.82085	0.19913	0.78581	0.403
Mof_C 	C 	0.77652	0.19592	0.83232	-0.407
Mof_C 	C 	0.82835	0.16191	0.86837	0.291
Mof_N 	N 	0.68539	0.14943	0.57975	-0.23
Mof_N 	N 	0.2576	0.04412	0.87445	-0.215
Mof_N 	N 	0.17484	0.69348	0.96879	-0.227
Mof_N 	N 	0.1256	0.75738	0.63527	-0.231
Mof_N 	N 	0.85057	0.31461	0.92025	-0.222
Mof_N 	N 	0.95588	0.7424	0.62555	-0.236
Mof_N 	N 	0.30652	0.82516	0.53121	-0.224
Mof_N 	N 	0.24262	0.8744	0.86473	-0.222
Mof_N 	N 	0.31461	0.85057	0.42025	-0.222
Mof_N 	N 	0.7424	0.95588	0.12555	-0.237
Mof_N 	N 	0.82516	0.30652	0.03121	-0.228
Mof_N 	N 	0.8744	0.24262	0.36473	-0.222
Mof_N 	N 	0.14943	0.68539	0.07975	-0.231
Mof_N 	N 	0.04412	0.2576	0.37445	-0.214
Mof_N 	N 	0.69348	0.17484	0.46879	-0.231
Mof_N 	N 	0.75738	0.1256	0.13527	-0.232
Mof_O 	O 	0.47574	0.3954	0.78594	-0.304
Mof_O 	O 	0.7288	0.62346	0.57153	-0.345
Mof_O 	O 	0.79457	0.99225	0.52758	-0.432
Mof_O 	O 	0.9447	0.89256	0.52143	-0.483
Mof_O 	O 	0.89012	0.29076	0.45428	-0.453
Mof_O 	O 	0.78923	0.25183	0.515	-0.47
Mof_O 	O 	0.05429	0.06979	0.38403	-0.516
Mof_O 	O 	0.08964	0.93956	0.43981	-0.542
Mof_O 	O 	0.90012	0.09326	0.46134	-0.587
Mof_O 	O 	0.6046	0.52426	0.71406	-0.302
Mof_O 	O 	0.37654	0.2712	0.92847	-0.332
Mof_O 	O 	0.00775	0.20543	0.97242	-0.489
Mof_O 	O 	0.10744	0.0553	0.97857	-0.538
Mof_O 	O 	0.70924	0.10988	0.04572	-0.463
Mof_O 	O 	0.74817	0.21077	0.985	-0.448
Mof_O 	O 	0.93021	0.94571	0.11597	-0.386
Mof_O 	O 	0.06044	0.91036	0.06019	-0.505
Mof_O 	O 	0.90674	0.09988	0.03866	-0.589
Mof_O 	O 	0.52426	0.6046	0.21406	-0.302
Mof_O 	O 	0.2712	0.37654	0.42847	-0.351
Mof_O 	O 	0.20543	0.00775	0.47242	-0.495
Mof_O 	O 	0.0553	0.10744	0.47857	-0.544
Mof_O 	O 	0.10988	0.70924	0.54572	-0.475
Mof_O 	O 	0.21077	0.74817	0.485	-0.471
Mof_O 	O 	0.94571	0.93021	0.61597	-0.389
Mof_O 	O 	0.91036	0.06044	0.56019	-0.504
Mof_O 	O 	0.09988	0.90674	0.53866	-0.585
Mof_O 	O 	0.3954	0.47574	0.28594	-0.304
Mof_O 	O 	0.62346	0.7288	0.07153	-0.36
Mof_O 	O 	0.99225	0.79457	0.02758	-0.434
Mof_O 	O 	0.89256	0.9447	0.02143	-0.484
Mof_O 	O 	0.29076	0.89012	0.95428	-0.464
Mof_O 	O 	0.25183	0.78923	0.015	-0.49
Mof_O 	O 	0.06979	0.05429	0.88403	-0.513
Mof_O 	O 	0.93956	0.08964	0.93981	-0.537
Mof_O 	O 	0.09326	0.90012	0.96134	-0.581
Mof_O 	O 	0.2334	0.7666	0.25	-0.325
Mof_O 	O 	0.7666	0.2334	0.75	-0.325
_end
