data_functionalizedCrystal
_audit_creation_method	'EQeq! by Chris Wilmer'
_symmetry_space_group_name_H-M	'P1'
_symmetry_Int_Tables_number	1
_symmetry_cell_setting	triclinic
loop_
_symmetry_equiv_pos_as_xyz
  x,y,z
_cell_length_a	19.4724
_cell_length_b	19.4724
_cell_length_c	37.754
_cell_angle_alpha	90
_cell_angle_beta	90
_cell_angle_gamma	120
loop_
_atom_site_label
_atom_site_type_symbol
_atom_site_fract_x
_atom_site_fract_y
_atom_site_fract_z
_atom_site_charge
Mof_N 	N 	0.1902	0.3932	0.91897	-0.115
Mof_C 	C 	0.1266	0.3984	0.9325	0.405
Mof_H 	H 	0.0951	0.41	0.9171	-0.049
Mof_C 	C 	0.1092	0.3868	0.9684	-0.062
Mof_H 	H 	0.0658	0.3905	0.9777	0.074
Mof_C 	C 	0.1555	0.37	0.99089	0.22
Mof_C 	C 	0.2191	0.3647	0.9774	-0.248
Mof_H 	H 	0.2506	0.3531	0.9927	0.064
Mof_C 	C 	0.2365	0.3763	0.9414	-0.098
Mof_H 	H 	0.2799	0.3727	0.9322	-0.145
Mof_C 	C 	0.125	0.3466	0.0294	0.058
Mof_O 	O 	0.0785	0.3896	0.0425	-0.157
Mof_C 	C 	0.1993	0.274	0.10018	-0.076
Mof_H 	H 	0.2485	0.2876	0.0894	0.101
Mof_C 	C 	0.1792	0.2357	0.13247	-0.042
Mof_C 	C 	0.2335	0.211	0.14893	0.355
Mof_O 	O 	0.2179	0.1837	0.17995	-0.43
Mof_O 	O 	0.2898	0.2178	0.13008	-0.435
Mof_N 	N 	0.85687	0.72653	0.2523	-0.115
Mof_C 	C 	0.79327	0.73173	0.26583	0.405
Mof_H 	H 	0.76177	0.74333	0.25043	-0.049
Mof_C 	C 	0.77587	0.72013	0.30173	-0.062
Mof_H 	H 	0.73247	0.72383	0.31103	0.074
Mof_C 	C 	0.82217	0.70333	0.32422	0.22
Mof_C 	C 	0.88577	0.69803	0.31073	-0.248
Mof_H 	H 	0.91727	0.68643	0.32603	0.064
Mof_C 	C 	0.90317	0.70963	0.27473	-0.098
Mof_H 	H 	0.94657	0.70603	0.26553	-0.145
Mof_C 	C 	0.79167	0.67993	0.36273	0.058
Mof_O 	O 	0.74517	0.72293	0.37583	-0.157
Mof_C 	C 	0.86597	0.60733	0.43351	-0.076
Mof_H 	H 	0.91517	0.62093	0.42273	0.101
Mof_C 	C 	0.84587	0.56903	0.4658	-0.043
Mof_C 	C 	0.90017	0.54433	0.48226	0.355
Mof_O 	O 	0.88457	0.51703	0.51328	-0.43
Mof_O 	O 	0.95647	0.55113	0.46341	-0.435
Mof_N 	N 	0.52353	0.05987	0.58564	-0.115
Mof_C 	C 	0.45993	0.06507	0.59917	0.405
Mof_H 	H 	0.42843	0.07667	0.58377	-0.049
Mof_C 	C 	0.44253	0.05347	0.63507	-0.062
Mof_H 	H 	0.39913	0.05717	0.64437	0.074
Mof_C 	C 	0.48883	0.03667	0.65756	0.22
Mof_C 	C 	0.55243	0.03137	0.64407	-0.248
Mof_H 	H 	0.58393	0.01977	0.65937	0.064
Mof_C 	C 	0.56983	0.04297	0.60807	-0.098
Mof_H 	H 	0.61323	0.03937	0.59887	-0.145
Mof_C 	C 	0.45833	0.01327	0.69607	0.058
Mof_O 	O 	0.41183	0.05627	0.70917	-0.157
Mof_C 	C 	0.53263	0.94067	0.76685	-0.076
Mof_H 	H 	0.58183	0.95427	0.75607	0.101
Mof_C 	C 	0.51253	0.90237	0.79914	-0.043
Mof_C 	C 	0.56683	0.87767	0.8156	0.355
Mof_O 	O 	0.55123	0.85037	0.84662	-0.43
Mof_O 	O 	0.62313	0.88447	0.79675	-0.435
Mof_N 	N 	0.6068	0.797	0.91897	-0.115
Mof_C 	C 	0.6016	0.7282	0.9325	0.405
Mof_H 	H 	0.59	0.6851	0.9171	-0.049
Mof_C 	C 	0.6132	0.7224	0.9684	-0.062
Mof_H 	H 	0.6095	0.6753	0.9777	0.074
Mof_C 	C 	0.63	0.7855	0.99089	0.22
Mof_C 	C 	0.6353	0.8544	0.9774	-0.249
Mof_H 	H 	0.6469	0.8975	0.9927	0.063
Mof_C 	C 	0.6237	0.8602	0.9414	-0.099
Mof_H 	H 	0.6273	0.9072	0.9322	-0.146
Mof_C 	C 	0.6534	0.7784	0.0294	0.057
Mof_O 	O 	0.6104	0.6889	0.0425	-0.158
Mof_C 	C 	0.726	0.9253	0.10018	-0.077
Mof_H 	H 	0.7124	0.9609	0.0894	0.1
Mof_C 	C 	0.7643	0.9435	0.13247	-0.043
Mof_C 	C 	0.789	0.0225	0.14893	0.354
Mof_O 	O 	0.8163	0.0342	0.17995	-0.431
Mof_O 	O 	0.7822	0.072	0.13008	-0.436
Mof_N 	N 	0.27347	0.13033	0.2523	-0.116
Mof_C 	C 	0.26827	0.06153	0.26583	0.404
Mof_H 	H 	0.25667	0.01843	0.25043	-0.05
Mof_C 	C 	0.27987	0.05573	0.30173	-0.063
Mof_H 	H 	0.27617	0.00863	0.31103	0.073
Mof_C 	C 	0.29667	0.11883	0.32422	0.219
Mof_C 	C 	0.30197	0.18773	0.31073	-0.249
Mof_H 	H 	0.31357	0.23083	0.32603	0.063
Mof_C 	C 	0.29037	0.19353	0.27473	-0.099
Mof_H 	H 	0.29397	0.24053	0.26553	-0.146
Mof_C 	C 	0.32007	0.11173	0.36273	0.057
Mof_O 	O 	0.27707	0.02223	0.37583	-0.158
Mof_C 	C 	0.39267	0.25863	0.43351	-0.077
Mof_H 	H 	0.37907	0.29423	0.42273	0.1
Mof_C 	C 	0.43097	0.27683	0.4658	-0.044
Mof_C 	C 	0.45567	0.35583	0.48226	0.354
Mof_O 	O 	0.48297	0.36753	0.51328	-0.431
Mof_O 	O 	0.44887	0.40533	0.46341	-0.436
Mof_N 	N 	0.94013	0.46367	0.58564	-0.116
Mof_C 	C 	0.93493	0.39487	0.59917	0.404
Mof_H 	H 	0.92333	0.35177	0.58377	-0.05
Mof_C 	C 	0.94653	0.38907	0.63507	-0.063
Mof_H 	H 	0.94283	0.34197	0.64437	0.073
Mof_C 	C 	0.96333	0.45217	0.65756	0.219
Mof_C 	C 	0.96863	0.52107	0.64407	-0.249
Mof_H 	H 	0.98023	0.56417	0.65937	0.063
Mof_C 	C 	0.95703	0.52687	0.60807	-0.099
Mof_H 	H 	0.96063	0.57387	0.59887	-0.146
Mof_C 	C 	0.98673	0.44507	0.69607	0.057
Mof_O 	O 	0.94373	0.35557	0.70917	-0.158
Mof_C 	C 	0.05933	0.59197	0.76685	-0.077
Mof_H 	H 	0.04573	0.62757	0.75607	0.1
Mof_C 	C 	0.09763	0.61017	0.79914	-0.044
Mof_C 	C 	0.12233	0.68917	0.8156	0.354
Mof_O 	O 	0.14963	0.70087	0.84662	-0.431
Mof_O 	O 	0.11553	0.73867	0.79675	-0.436
Mof_N 	N 	0.203	0.8098	0.91897	-0.116
Mof_C 	C 	0.2718	0.8734	0.9325	0.404
Mof_H 	H 	0.3149	0.9049	0.9171	-0.05
Mof_C 	C 	0.2776	0.8908	0.9684	-0.063
Mof_H 	H 	0.3247	0.9342	0.9777	0.073
Mof_C 	C 	0.2145	0.8445	0.99089	0.219
Mof_C 	C 	0.1456	0.7809	0.9774	-0.249
Mof_H 	H 	0.1025	0.7494	0.9927	0.063
Mof_C 	C 	0.1398	0.7635	0.9414	-0.099
Mof_H 	H 	0.0928	0.7201	0.9322	-0.146
Mof_C 	C 	0.2216	0.875	0.0294	0.057
Mof_O 	O 	0.3111	0.9215	0.0425	-0.158
Mof_C 	C 	0.0747	0.8007	0.10018	-0.077
Mof_H 	H 	0.0391	0.7515	0.0894	0.1
Mof_C 	C 	0.0565	0.8208	0.13247	-0.044
Mof_C 	C 	0.9775	0.7665	0.14893	0.354
Mof_O 	O 	0.9658	0.7821	0.17995	-0.431
Mof_O 	O 	0.928	0.7102	0.13008	-0.436
Mof_N 	N 	0.86967	0.14313	0.2523	-0.116
Mof_C 	C 	0.93847	0.20673	0.26583	0.404
Mof_H 	H 	0.98157	0.23823	0.25043	-0.05
Mof_C 	C 	0.94427	0.22413	0.30173	-0.063
Mof_H 	H 	0.99137	0.26753	0.31103	0.073
Mof_C 	C 	0.88117	0.17783	0.32422	0.219
Mof_C 	C 	0.81227	0.11423	0.31073	-0.249
Mof_H 	H 	0.76917	0.08273	0.32603	0.063
Mof_C 	C 	0.80647	0.09683	0.27473	-0.099
Mof_H 	H 	0.75947	0.05343	0.26553	-0.146
Mof_C 	C 	0.88827	0.20833	0.36273	0.057
Mof_O 	O 	0.97777	0.25483	0.37583	-0.158
Mof_C 	C 	0.74137	0.13403	0.43351	-0.077
Mof_H 	H 	0.70577	0.08483	0.42273	0.1
Mof_C 	C 	0.72317	0.15413	0.4658	-0.044
Mof_C 	C 	0.64417	0.09983	0.48226	0.354
Mof_O 	O 	0.63247	0.11543	0.51328	-0.431
Mof_O 	O 	0.59467	0.04353	0.46341	-0.436
Mof_N 	N 	0.53633	0.47647	0.58564	-0.116
Mof_C 	C 	0.60513	0.54007	0.59917	0.404
Mof_H 	H 	0.64823	0.57157	0.58377	-0.05
Mof_C 	C 	0.61093	0.55747	0.63507	-0.063
Mof_H 	H 	0.65803	0.60087	0.64437	0.073
Mof_C 	C 	0.54783	0.51117	0.65756	0.219
Mof_C 	C 	0.47893	0.44757	0.64407	-0.249
Mof_H 	H 	0.43583	0.41607	0.65937	0.063
Mof_C 	C 	0.47313	0.43017	0.60807	-0.099
Mof_H 	H 	0.42613	0.38677	0.59887	-0.146
Mof_C 	C 	0.55493	0.54167	0.69607	0.057
Mof_O 	O 	0.64443	0.58817	0.70917	-0.158
Mof_C 	C 	0.40803	0.46737	0.76685	-0.077
Mof_H 	H 	0.37243	0.41817	0.75607	0.1
Mof_C 	C 	0.38983	0.48747	0.79914	-0.043
Mof_C 	C 	0.31083	0.43317	0.8156	0.354
Mof_O 	O 	0.29913	0.44877	0.84662	-0.431
Mof_O 	O 	0.26133	0.37687	0.79675	-0.436
Mof_N 	N 	0.3932	0.1902	0.08103	-0.116
Mof_C 	C 	0.3984	0.1266	0.0675	0.404
Mof_H 	H 	0.41	0.0951	0.0829	-0.05
Mof_C 	C 	0.3868	0.1092	0.0316	-0.063
Mof_H 	H 	0.3905	0.0658	0.0223	0.073
Mof_C 	C 	0.37	0.1555	0.00911	0.219
Mof_C 	C 	0.3647	0.2191	0.0226	-0.249
Mof_H 	H 	0.3531	0.2506	0.0073	0.063
Mof_C 	C 	0.3763	0.2365	0.0586	-0.099
Mof_H 	H 	0.3727	0.2799	0.0678	-0.146
Mof_C 	C 	0.3466	0.125	0.9706	0.057
Mof_O 	O 	0.3896	0.0785	0.9575	-0.158
Mof_C 	C 	0.274	0.1993	0.89982	-0.077
Mof_H 	H 	0.2876	0.2485	0.9106	0.1
Mof_C 	C 	0.2357	0.1792	0.86753	-0.043
Mof_C 	C 	0.211	0.2335	0.85107	0.354
Mof_O 	O 	0.1837	0.2179	0.82005	-0.431
Mof_O 	O 	0.2178	0.2898	0.86992	-0.436
Mof_N 	N 	0.05987	0.52353	0.41436	-0.116
Mof_C 	C 	0.06507	0.45993	0.40083	0.404
Mof_H 	H 	0.07667	0.42843	0.41623	-0.05
Mof_C 	C 	0.05347	0.44253	0.36493	-0.063
Mof_H 	H 	0.05717	0.39913	0.35563	0.073
Mof_C 	C 	0.03667	0.48883	0.34244	0.219
Mof_C 	C 	0.03137	0.55243	0.35593	-0.249
Mof_H 	H 	0.01977	0.58393	0.34063	0.063
Mof_C 	C 	0.04297	0.56983	0.39193	-0.099
Mof_H 	H 	0.03937	0.61323	0.40113	-0.146
Mof_C 	C 	0.01327	0.45833	0.30393	0.057
Mof_O 	O 	0.05627	0.41183	0.29083	-0.158
Mof_C 	C 	0.94067	0.53263	0.23315	-0.077
Mof_H 	H 	0.95427	0.58183	0.24393	0.1
Mof_C 	C 	0.90237	0.51253	0.20086	-0.044
Mof_C 	C 	0.87767	0.56683	0.1844	0.354
Mof_O 	O 	0.85037	0.55123	0.15338	-0.431
Mof_O 	O 	0.88447	0.62313	0.20325	-0.436
Mof_N 	N 	0.72653	0.85687	0.7477	-0.116
Mof_C 	C 	0.73173	0.79327	0.73417	0.404
Mof_H 	H 	0.74333	0.76177	0.74957	-0.05
Mof_C 	C 	0.72013	0.77587	0.69827	-0.063
Mof_H 	H 	0.72383	0.73247	0.68897	0.073
Mof_C 	C 	0.70333	0.82217	0.67578	0.219
Mof_C 	C 	0.69803	0.88577	0.68927	-0.249
Mof_H 	H 	0.68643	0.91727	0.67397	0.063
Mof_C 	C 	0.70963	0.90317	0.72527	-0.099
Mof_H 	H 	0.70603	0.94657	0.73447	-0.146
Mof_C 	C 	0.67993	0.79167	0.63727	0.057
Mof_O 	O 	0.72293	0.74517	0.62417	-0.158
Mof_C 	C 	0.60733	0.86597	0.56649	-0.077
Mof_H 	H 	0.62093	0.91517	0.57727	0.1
Mof_C 	C 	0.56903	0.84587	0.5342	-0.044
Mof_C 	C 	0.54433	0.90017	0.51774	0.354
Mof_O 	O 	0.51703	0.88457	0.48672	-0.431
Mof_O 	O 	0.55113	0.95647	0.53659	-0.436
Mof_N 	N 	0.797	0.6068	0.08103	-0.116
Mof_C 	C 	0.7282	0.6016	0.0675	0.404
Mof_H 	H 	0.6851	0.59	0.0829	-0.05
Mof_C 	C 	0.7224	0.6132	0.0316	-0.063
Mof_H 	H 	0.6753	0.6095	0.0223	0.073
Mof_C 	C 	0.7855	0.63	0.00911	0.219
Mof_C 	C 	0.8544	0.6353	0.0226	-0.249
Mof_H 	H 	0.8975	0.6469	0.0073	0.063
Mof_C 	C 	0.8602	0.6237	0.0586	-0.099
Mof_H 	H 	0.9072	0.6273	0.0678	-0.146
Mof_C 	C 	0.7784	0.6534	0.9706	0.057
Mof_O 	O 	0.6889	0.6104	0.9575	-0.158
Mof_C 	C 	0.9253	0.726	0.89982	-0.077
Mof_H 	H 	0.9609	0.7124	0.9106	0.1
Mof_C 	C 	0.9435	0.7643	0.86753	-0.043
Mof_C 	C 	0.0225	0.789	0.85107	0.354
Mof_O 	O 	0.0342	0.8163	0.82005	-0.431
Mof_O 	O 	0.072	0.7822	0.86992	-0.436
Mof_N 	N 	0.46367	0.94013	0.41436	-0.116
Mof_C 	C 	0.39487	0.93493	0.40083	0.404
Mof_H 	H 	0.35177	0.92333	0.41623	-0.05
Mof_C 	C 	0.38907	0.94653	0.36493	-0.063
Mof_H 	H 	0.34197	0.94283	0.35563	0.073
Mof_C 	C 	0.45217	0.96333	0.34244	0.219
Mof_C 	C 	0.52107	0.96863	0.35593	-0.249
Mof_H 	H 	0.56417	0.98023	0.34063	0.063
Mof_C 	C 	0.52687	0.95703	0.39193	-0.099
Mof_H 	H 	0.57387	0.96063	0.40113	-0.146
Mof_C 	C 	0.44507	0.98673	0.30393	0.057
Mof_O 	O 	0.35557	0.94373	0.29083	-0.158
Mof_C 	C 	0.59197	0.05933	0.23315	-0.077
Mof_H 	H 	0.62757	0.04573	0.24393	0.1
Mof_C 	C 	0.61017	0.09763	0.20086	-0.044
Mof_C 	C 	0.68917	0.12233	0.1844	0.354
Mof_O 	O 	0.70087	0.14963	0.15338	-0.431
Mof_O 	O 	0.73867	0.11553	0.20325	-0.436
Mof_N 	N 	0.13033	0.27347	0.7477	-0.116
Mof_C 	C 	0.06153	0.26827	0.73417	0.404
Mof_H 	H 	0.01843	0.25667	0.74957	-0.05
Mof_C 	C 	0.05573	0.27987	0.69827	-0.063
Mof_H 	H 	0.00863	0.27617	0.68897	0.073
Mof_C 	C 	0.11883	0.29667	0.67578	0.219
Mof_C 	C 	0.18773	0.30197	0.68927	-0.249
Mof_H 	H 	0.23083	0.31357	0.67397	0.063
Mof_C 	C 	0.19353	0.29037	0.72527	-0.099
Mof_H 	H 	0.24053	0.29397	0.73447	-0.146
Mof_C 	C 	0.11173	0.32007	0.63727	0.057
Mof_O 	O 	0.02223	0.27707	0.62417	-0.158
Mof_C 	C 	0.25863	0.39267	0.56649	-0.077
Mof_H 	H 	0.29423	0.37907	0.57727	0.1
Mof_C 	C 	0.27683	0.43097	0.5342	-0.044
Mof_C 	C 	0.35583	0.45567	0.51774	0.354
Mof_O 	O 	0.36753	0.48297	0.48672	-0.431
Mof_O 	O 	0.40533	0.44887	0.53659	-0.436
Mof_N 	N 	0.8098	0.203	0.08103	-0.116
Mof_C 	C 	0.8734	0.2718	0.0675	0.404
Mof_H 	H 	0.9049	0.3149	0.0829	-0.05
Mof_C 	C 	0.8908	0.2776	0.0316	-0.063
Mof_H 	H 	0.9342	0.3247	0.0223	0.073
Mof_C 	C 	0.8445	0.2145	0.00911	0.219
Mof_C 	C 	0.7809	0.1456	0.0226	-0.249
Mof_H 	H 	0.7494	0.1025	0.0073	0.063
Mof_C 	C 	0.7635	0.1398	0.0586	-0.099
Mof_H 	H 	0.7201	0.0928	0.0678	-0.146
Mof_C 	C 	0.875	0.2216	0.9706	0.057
Mof_O 	O 	0.9215	0.3111	0.9575	-0.158
Mof_C 	C 	0.8007	0.0747	0.89982	-0.077
Mof_H 	H 	0.7515	0.0391	0.9106	0.1
Mof_C 	C 	0.8208	0.0565	0.86753	-0.044
Mof_C 	C 	0.7665	0.9775	0.85107	0.354
Mof_O 	O 	0.7821	0.9658	0.82005	-0.431
Mof_O 	O 	0.7102	0.928	0.86992	-0.436
Mof_N 	N 	0.47647	0.53633	0.41436	-0.116
Mof_C 	C 	0.54007	0.60513	0.40083	0.404
Mof_H 	H 	0.57157	0.64823	0.41623	-0.05
Mof_C 	C 	0.55747	0.61093	0.36493	-0.063
Mof_H 	H 	0.60087	0.65803	0.35563	0.073
Mof_C 	C 	0.51117	0.54783	0.34244	0.219
Mof_C 	C 	0.44757	0.47893	0.35593	-0.249
Mof_H 	H 	0.41607	0.43583	0.34063	0.063
Mof_C 	C 	0.43017	0.47313	0.39193	-0.099
Mof_H 	H 	0.38677	0.42613	0.40113	-0.146
Mof_C 	C 	0.54167	0.55493	0.30393	0.057
Mof_O 	O 	0.58817	0.64443	0.29083	-0.158
Mof_C 	C 	0.46737	0.40803	0.23315	-0.077
Mof_H 	H 	0.41817	0.37243	0.24393	0.1
Mof_C 	C 	0.48747	0.38983	0.20086	-0.043
Mof_C 	C 	0.43317	0.31083	0.1844	0.354
Mof_O 	O 	0.44877	0.29913	0.15338	-0.431
Mof_O 	O 	0.37687	0.26133	0.20325	-0.436
Mof_N 	N 	0.14313	0.86967	0.7477	-0.116
Mof_C 	C 	0.20673	0.93847	0.73417	0.404
Mof_H 	H 	0.23823	0.98157	0.74957	-0.05
Mof_C 	C 	0.22413	0.94427	0.69827	-0.063
Mof_H 	H 	0.26753	0.99137	0.68897	0.073
Mof_C 	C 	0.17783	0.88117	0.67578	0.219
Mof_C 	C 	0.11423	0.81227	0.68927	-0.249
Mof_H 	H 	0.08273	0.76917	0.67397	0.063
Mof_C 	C 	0.09683	0.80647	0.72527	-0.099
Mof_H 	H 	0.05343	0.75947	0.73447	-0.146
Mof_C 	C 	0.20833	0.88827	0.63727	0.057
Mof_O 	O 	0.25483	0.97777	0.62417	-0.158
Mof_C 	C 	0.13403	0.74137	0.56649	-0.077
Mof_H 	H 	0.08483	0.70577	0.57727	0.1
Mof_C 	C 	0.15413	0.72317	0.5342	-0.044
Mof_C 	C 	0.09983	0.64417	0.51774	0.354
Mof_O 	O 	0.11543	0.63247	0.48672	-0.431
Mof_O 	O 	0.04353	0.59467	0.53659	-0.436
Mof_N 	N 	0.8098	0.6068	0.08103	-0.116
Mof_C 	C 	0.8734	0.6016	0.0675	0.404
Mof_H 	H 	0.9049	0.59	0.0829	-0.05
Mof_C 	C 	0.8908	0.6132	0.0316	-0.063
Mof_H 	H 	0.9342	0.6095	0.0223	0.073
Mof_C 	C 	0.8445	0.63	0.00911	0.219
Mof_C 	C 	0.7809	0.6353	0.0226	-0.249
Mof_H 	H 	0.7494	0.6469	0.0073	0.063
Mof_C 	C 	0.7635	0.6237	0.0586	-0.099
Mof_H 	H 	0.7201	0.6273	0.0678	-0.146
Mof_C 	C 	0.875	0.6534	0.9706	0.057
Mof_O 	O 	0.9215	0.6104	0.9575	-0.158
Mof_C 	C 	0.8007	0.726	0.89982	-0.077
Mof_H 	H 	0.7515	0.7124	0.9106	0.1
Mof_C 	C 	0.8208	0.7643	0.86753	-0.043
Mof_C 	C 	0.7665	0.789	0.85107	0.354
Mof_O 	O 	0.7821	0.8163	0.82005	-0.431
Mof_O 	O 	0.7102	0.7822	0.86992	-0.436
Mof_N 	N 	0.47647	0.94013	0.41436	-0.116
Mof_C 	C 	0.54007	0.93493	0.40083	0.404
Mof_H 	H 	0.57157	0.92333	0.41623	-0.05
Mof_C 	C 	0.55747	0.94653	0.36493	-0.063
Mof_H 	H 	0.60087	0.94283	0.35563	0.073
Mof_C 	C 	0.51117	0.96333	0.34244	0.219
Mof_C 	C 	0.44757	0.96863	0.35593	-0.249
Mof_H 	H 	0.41607	0.98023	0.34063	0.063
Mof_C 	C 	0.43017	0.95703	0.39193	-0.099
Mof_H 	H 	0.38677	0.96063	0.40113	-0.146
Mof_C 	C 	0.54167	0.98673	0.30393	0.057
Mof_O 	O 	0.58817	0.94373	0.29083	-0.158
Mof_C 	C 	0.46737	0.05933	0.23315	-0.077
Mof_H 	H 	0.41817	0.04573	0.24393	0.1
Mof_C 	C 	0.48747	0.09763	0.20086	-0.044
Mof_C 	C 	0.43317	0.12233	0.1844	0.354
Mof_O 	O 	0.44877	0.14963	0.15338	-0.431
Mof_O 	O 	0.37687	0.11553	0.20325	-0.436
Mof_N 	N 	0.14313	0.27347	0.7477	-0.116
Mof_C 	C 	0.20673	0.26827	0.73417	0.404
Mof_H 	H 	0.23823	0.25667	0.74957	-0.05
Mof_C 	C 	0.22413	0.27987	0.69827	-0.063
Mof_H 	H 	0.26753	0.27617	0.68897	0.073
Mof_C 	C 	0.17783	0.29667	0.67578	0.219
Mof_C 	C 	0.11423	0.30197	0.68927	-0.249
Mof_H 	H 	0.08273	0.31357	0.67397	0.063
Mof_C 	C 	0.09683	0.29037	0.72527	-0.099
Mof_H 	H 	0.05343	0.29397	0.73447	-0.146
Mof_C 	C 	0.20833	0.32007	0.63727	0.057
Mof_O 	O 	0.25483	0.27707	0.62417	-0.158
Mof_C 	C 	0.13403	0.39267	0.56649	-0.077
Mof_H 	H 	0.08483	0.37907	0.57727	0.1
Mof_C 	C 	0.15413	0.43097	0.5342	-0.044
Mof_C 	C 	0.09983	0.45567	0.51774	0.354
Mof_O 	O 	0.11543	0.48297	0.48672	-0.431
Mof_O 	O 	0.04353	0.44887	0.53659	-0.436
Mof_N 	N 	0.3932	0.203	0.08103	-0.116
Mof_C 	C 	0.3984	0.2718	0.0675	0.404
Mof_H 	H 	0.41	0.3149	0.0829	-0.05
Mof_C 	C 	0.3868	0.2776	0.0316	-0.063
Mof_H 	H 	0.3905	0.3247	0.0223	0.073
Mof_C 	C 	0.37	0.2145	0.00911	0.219
Mof_C 	C 	0.3647	0.1456	0.0226	-0.249
Mof_H 	H 	0.3531	0.1025	0.0073	0.063
Mof_C 	C 	0.3763	0.1398	0.0586	-0.099
Mof_H 	H 	0.3727	0.0928	0.0678	-0.146
Mof_C 	C 	0.3466	0.2216	0.9706	0.057
Mof_O 	O 	0.3896	0.3111	0.9575	-0.158
Mof_C 	C 	0.274	0.0747	0.89982	-0.077
Mof_H 	H 	0.2876	0.0391	0.9106	0.1
Mof_C 	C 	0.2357	0.0565	0.86753	-0.043
Mof_C 	C 	0.211	0.9775	0.85107	0.354
Mof_O 	O 	0.1837	0.9658	0.82005	-0.431
Mof_O 	O 	0.2178	0.928	0.86992	-0.436
Mof_N 	N 	0.05987	0.53633	0.41436	-0.116
Mof_C 	C 	0.06507	0.60513	0.40083	0.404
Mof_H 	H 	0.07667	0.64823	0.41623	-0.05
Mof_C 	C 	0.05347	0.61093	0.36493	-0.063
Mof_H 	H 	0.05717	0.65803	0.35563	0.073
Mof_C 	C 	0.03667	0.54783	0.34244	0.219
Mof_C 	C 	0.03137	0.47893	0.35593	-0.249
Mof_H 	H 	0.01977	0.43583	0.34063	0.063
Mof_C 	C 	0.04297	0.47313	0.39193	-0.099
Mof_H 	H 	0.03937	0.42613	0.40113	-0.146
Mof_C 	C 	0.01327	0.55493	0.30393	0.057
Mof_O 	O 	0.05627	0.64443	0.29083	-0.158
Mof_C 	C 	0.94067	0.40803	0.23315	-0.077
Mof_H 	H 	0.95427	0.37243	0.24393	0.1
Mof_C 	C 	0.90237	0.38983	0.20086	-0.044
Mof_C 	C 	0.87767	0.31083	0.1844	0.354
Mof_O 	O 	0.85037	0.29913	0.15338	-0.431
Mof_O 	O 	0.88447	0.26133	0.20325	-0.436
Mof_N 	N 	0.72653	0.86967	0.7477	-0.116
Mof_C 	C 	0.73173	0.93847	0.73417	0.404
Mof_H 	H 	0.74333	0.98157	0.74957	-0.05
Mof_C 	C 	0.72013	0.94427	0.69827	-0.063
Mof_H 	H 	0.72383	0.99137	0.68897	0.073
Mof_C 	C 	0.70333	0.88117	0.67578	0.219
Mof_C 	C 	0.69803	0.81227	0.68927	-0.249
Mof_H 	H 	0.68643	0.76917	0.67397	0.063
Mof_C 	C 	0.70963	0.80647	0.72527	-0.099
Mof_H 	H 	0.70603	0.75947	0.73447	-0.146
Mof_C 	C 	0.67993	0.88827	0.63727	0.057
Mof_O 	O 	0.72293	0.97777	0.62417	-0.158
Mof_C 	C 	0.60733	0.74137	0.56649	-0.077
Mof_H 	H 	0.62093	0.70577	0.57727	0.1
Mof_C 	C 	0.56903	0.72317	0.5342	-0.044
Mof_C 	C 	0.54433	0.64417	0.51774	0.354
Mof_O 	O 	0.51703	0.63247	0.48672	-0.431
Mof_O 	O 	0.55113	0.59467	0.53659	-0.436
Mof_N 	N 	0.797	0.1902	0.08103	-0.116
Mof_C 	C 	0.7282	0.1266	0.0675	0.404
Mof_H 	H 	0.6851	0.0951	0.0829	-0.05
Mof_C 	C 	0.7224	0.1092	0.0316	-0.063
Mof_H 	H 	0.6753	0.0658	0.0223	0.073
Mof_C 	C 	0.7855	0.1555	0.00911	0.219
Mof_C 	C 	0.8544	0.2191	0.0226	-0.249
Mof_H 	H 	0.8975	0.2506	0.0073	0.063
Mof_C 	C 	0.8602	0.2365	0.0586	-0.099
Mof_H 	H 	0.9072	0.2799	0.0678	-0.146
Mof_C 	C 	0.7784	0.125	0.9706	0.057
Mof_O 	O 	0.6889	0.0785	0.9575	-0.158
Mof_C 	C 	0.9253	0.1993	0.89982	-0.077
Mof_H 	H 	0.9609	0.2485	0.9106	0.1
Mof_C 	C 	0.9435	0.1792	0.86753	-0.044
Mof_C 	C 	0.0225	0.2335	0.85107	0.354
Mof_O 	O 	0.0342	0.2179	0.82005	-0.431
Mof_O 	O 	0.072	0.2898	0.86992	-0.436
Mof_N 	N 	0.46367	0.52353	0.41436	-0.116
Mof_C 	C 	0.39487	0.45993	0.40083	0.404
Mof_H 	H 	0.35177	0.42843	0.41623	-0.05
Mof_C 	C 	0.38907	0.44253	0.36493	-0.063
Mof_H 	H 	0.34197	0.39913	0.35563	0.073
Mof_C 	C 	0.45217	0.48883	0.34244	0.219
Mof_C 	C 	0.52107	0.55243	0.35593	-0.249
Mof_H 	H 	0.56417	0.58393	0.34063	0.063
Mof_C 	C 	0.52687	0.56983	0.39193	-0.099
Mof_H 	H 	0.57387	0.61323	0.40113	-0.146
Mof_C 	C 	0.44507	0.45833	0.30393	0.057
Mof_O 	O 	0.35557	0.41183	0.29083	-0.158
Mof_C 	C 	0.59197	0.53263	0.23315	-0.077
Mof_H 	H 	0.62757	0.58183	0.24393	0.1
Mof_C 	C 	0.61017	0.51253	0.20086	-0.043
Mof_C 	C 	0.68917	0.56683	0.1844	0.354
Mof_O 	O 	0.70087	0.55123	0.15338	-0.431
Mof_O 	O 	0.73867	0.62313	0.20325	-0.436
Mof_N 	N 	0.13033	0.85687	0.7477	-0.116
Mof_C 	C 	0.06153	0.79327	0.73417	0.404
Mof_H 	H 	0.01843	0.76177	0.74957	-0.05
Mof_C 	C 	0.05573	0.77587	0.69827	-0.063
Mof_H 	H 	0.00863	0.73247	0.68897	0.073
Mof_C 	C 	0.11883	0.82217	0.67578	0.219
Mof_C 	C 	0.18773	0.88577	0.68927	-0.249
Mof_H 	H 	0.23083	0.91727	0.67397	0.063
Mof_C 	C 	0.19353	0.90317	0.72527	-0.099
Mof_H 	H 	0.24053	0.94657	0.73447	-0.146
Mof_C 	C 	0.11173	0.79167	0.63727	0.057
Mof_O 	O 	0.02223	0.74517	0.62417	-0.158
Mof_C 	C 	0.25863	0.86597	0.56649	-0.077
Mof_H 	H 	0.29423	0.91517	0.57727	0.1
Mof_C 	C 	0.27683	0.84587	0.5342	-0.044
Mof_C 	C 	0.35583	0.90017	0.51774	0.354
Mof_O 	O 	0.36753	0.88457	0.48672	-0.431
Mof_O 	O 	0.40533	0.95647	0.53659	-0.436
Mof_N 	N 	0.6068	0.8098	0.91897	-0.116
Mof_C 	C 	0.6016	0.8734	0.9325	0.404
Mof_H 	H 	0.59	0.9049	0.9171	-0.05
Mof_C 	C 	0.6132	0.8908	0.9684	-0.063
Mof_H 	H 	0.6095	0.9342	0.9777	0.073
Mof_C 	C 	0.63	0.8445	0.99089	0.219
Mof_C 	C 	0.6353	0.7809	0.9774	-0.249
Mof_H 	H 	0.6469	0.7494	0.9927	0.063
Mof_C 	C 	0.6237	0.7635	0.9414	-0.099
Mof_H 	H 	0.6273	0.7201	0.9322	-0.146
Mof_C 	C 	0.6534	0.875	0.0294	0.057
Mof_O 	O 	0.6104	0.9215	0.0425	-0.158
Mof_C 	C 	0.726	0.8007	0.10018	-0.077
Mof_H 	H 	0.7124	0.7515	0.0894	0.1
Mof_C 	C 	0.7643	0.8208	0.13247	-0.043
Mof_C 	C 	0.789	0.7665	0.14893	0.354
Mof_O 	O 	0.8163	0.7821	0.17995	-0.431
Mof_O 	O 	0.7822	0.7102	0.13008	-0.436
Mof_N 	N 	0.27347	0.14313	0.2523	-0.116
Mof_C 	C 	0.26827	0.20673	0.26583	0.404
Mof_H 	H 	0.25667	0.23823	0.25043	-0.05
Mof_C 	C 	0.27987	0.22413	0.30173	-0.063
Mof_H 	H 	0.27617	0.26753	0.31103	0.073
Mof_C 	C 	0.29667	0.17783	0.32422	0.219
Mof_C 	C 	0.30197	0.11423	0.31073	-0.249
Mof_H 	H 	0.31357	0.08273	0.32603	0.063
Mof_C 	C 	0.29037	0.09683	0.27473	-0.099
Mof_H 	H 	0.29397	0.05343	0.26553	-0.146
Mof_C 	C 	0.32007	0.20833	0.36273	0.057
Mof_O 	O 	0.27707	0.25483	0.37583	-0.158
Mof_C 	C 	0.39267	0.13403	0.43351	-0.077
Mof_H 	H 	0.37907	0.08483	0.42273	0.1
Mof_C 	C 	0.43097	0.15413	0.4658	-0.044
Mof_C 	C 	0.45567	0.09983	0.48226	0.354
Mof_O 	O 	0.48297	0.11543	0.51328	-0.431
Mof_O 	O 	0.44887	0.04353	0.46341	-0.436
Mof_N 	N 	0.94013	0.47647	0.58564	-0.116
Mof_C 	C 	0.93493	0.54007	0.59917	0.404
Mof_H 	H 	0.92333	0.57157	0.58377	-0.05
Mof_C 	C 	0.94653	0.55747	0.63507	-0.063
Mof_H 	H 	0.94283	0.60087	0.64437	0.073
Mof_C 	C 	0.96333	0.51117	0.65756	0.219
Mof_C 	C 	0.96863	0.44757	0.64407	-0.249
Mof_H 	H 	0.98023	0.41607	0.65937	0.063
Mof_C 	C 	0.95703	0.43017	0.60807	-0.099
Mof_H 	H 	0.96063	0.38677	0.59887	-0.146
Mof_C 	C 	0.98673	0.54167	0.69607	0.057
Mof_O 	O 	0.94373	0.58817	0.70917	-0.158
Mof_C 	C 	0.05933	0.46737	0.76685	-0.077
Mof_H 	H 	0.04573	0.41817	0.75607	0.1
Mof_C 	C 	0.09763	0.48747	0.79914	-0.044
Mof_C 	C 	0.12233	0.43317	0.8156	0.354
Mof_O 	O 	0.14963	0.44877	0.84662	-0.431
Mof_O 	O 	0.11553	0.37687	0.79675	-0.436
Mof_N 	N 	0.203	0.3932	0.91897	-0.116
Mof_C 	C 	0.2718	0.3984	0.9325	0.404
Mof_H 	H 	0.3149	0.41	0.9171	-0.05
Mof_C 	C 	0.2776	0.3868	0.9684	-0.063
Mof_H 	H 	0.3247	0.3905	0.9777	0.073
Mof_C 	C 	0.2145	0.37	0.99089	0.219
Mof_C 	C 	0.1456	0.3647	0.9774	-0.249
Mof_H 	H 	0.1025	0.3531	0.9927	0.063
Mof_C 	C 	0.1398	0.3763	0.9414	-0.099
Mof_H 	H 	0.0928	0.3727	0.9322	-0.146
Mof_C 	C 	0.2216	0.3466	0.0294	0.057
Mof_O 	O 	0.3111	0.3896	0.0425	-0.158
Mof_C 	C 	0.0747	0.274	0.10018	-0.077
Mof_H 	H 	0.0391	0.2876	0.0894	0.1
Mof_C 	C 	0.0565	0.2357	0.13247	-0.043
Mof_C 	C 	0.9775	0.211	0.14893	0.354
Mof_O 	O 	0.9658	0.1837	0.17995	-0.431
Mof_O 	O 	0.928	0.2178	0.13008	-0.436
Mof_N 	N 	0.86967	0.72653	0.2523	-0.116
Mof_C 	C 	0.93847	0.73173	0.26583	0.404
Mof_H 	H 	0.98157	0.74333	0.25043	-0.05
Mof_C 	C 	0.94427	0.72013	0.30173	-0.063
Mof_H 	H 	0.99137	0.72383	0.31103	0.073
Mof_C 	C 	0.88117	0.70333	0.32422	0.219
Mof_C 	C 	0.81227	0.69803	0.31073	-0.249
Mof_H 	H 	0.76917	0.68643	0.32603	0.063
Mof_C 	C 	0.80647	0.70963	0.27473	-0.099
Mof_H 	H 	0.75947	0.70603	0.26553	-0.146
Mof_C 	C 	0.88827	0.67993	0.36273	0.057
Mof_O 	O 	0.97777	0.72293	0.37583	-0.158
Mof_C 	C 	0.74137	0.60733	0.43351	-0.077
Mof_H 	H 	0.70577	0.62093	0.42273	0.1
Mof_C 	C 	0.72317	0.56903	0.4658	-0.044
Mof_C 	C 	0.64417	0.54433	0.48226	0.354
Mof_O 	O 	0.63247	0.51703	0.51328	-0.431
Mof_O 	O 	0.59467	0.55113	0.46341	-0.436
Mof_N 	N 	0.53633	0.05987	0.58564	-0.116
Mof_C 	C 	0.60513	0.06507	0.59917	0.404
Mof_H 	H 	0.64823	0.07667	0.58377	-0.05
Mof_C 	C 	0.61093	0.05347	0.63507	-0.063
Mof_H 	H 	0.65803	0.05717	0.64437	0.073
Mof_C 	C 	0.54783	0.03667	0.65756	0.219
Mof_C 	C 	0.47893	0.03137	0.64407	-0.249
Mof_H 	H 	0.43583	0.01977	0.65937	0.063
Mof_C 	C 	0.47313	0.04297	0.60807	-0.099
Mof_H 	H 	0.42613	0.03937	0.59887	-0.146
Mof_C 	C 	0.55493	0.01327	0.69607	0.057
Mof_O 	O 	0.64443	0.05627	0.70917	-0.158
Mof_C 	C 	0.40803	0.94067	0.76685	-0.077
Mof_H 	H 	0.37243	0.95427	0.75607	0.1
Mof_C 	C 	0.38983	0.90237	0.79914	-0.044
Mof_C 	C 	0.31083	0.87767	0.8156	0.354
Mof_O 	O 	0.29913	0.85037	0.84662	-0.431
Mof_O 	O 	0.26133	0.88447	0.79675	-0.436
Mof_N 	N 	0.1902	0.797	0.91897	-0.116
Mof_C 	C 	0.1266	0.7282	0.9325	0.404
Mof_H 	H 	0.0951	0.6851	0.9171	-0.05
Mof_C 	C 	0.1092	0.7224	0.9684	-0.063
Mof_H 	H 	0.0658	0.6753	0.9777	0.073
Mof_C 	C 	0.1555	0.7855	0.99089	0.219
Mof_C 	C 	0.2191	0.8544	0.9774	-0.249
Mof_H 	H 	0.2506	0.8975	0.9927	0.063
Mof_C 	C 	0.2365	0.8602	0.9414	-0.099
Mof_H 	H 	0.2799	0.9072	0.9322	-0.146
Mof_C 	C 	0.125	0.7784	0.0294	0.057
Mof_O 	O 	0.0785	0.6889	0.0425	-0.158
Mof_C 	C 	0.1993	0.9253	0.10018	-0.077
Mof_H 	H 	0.2485	0.9609	0.0894	0.1
Mof_C 	C 	0.1792	0.9435	0.13247	-0.044
Mof_C 	C 	0.2335	0.0225	0.14893	0.354
Mof_O 	O 	0.2179	0.0342	0.17995	-0.431
Mof_O 	O 	0.2898	0.072	0.13008	-0.436
Mof_N 	N 	0.85687	0.13033	0.2523	-0.116
Mof_C 	C 	0.79327	0.06153	0.26583	0.404
Mof_H 	H 	0.76177	0.01843	0.25043	-0.05
Mof_C 	C 	0.77587	0.05573	0.30173	-0.063
Mof_H 	H 	0.73247	0.00863	0.31103	0.073
Mof_C 	C 	0.82217	0.11883	0.32422	0.219
Mof_C 	C 	0.88577	0.18773	0.31073	-0.249
Mof_H 	H 	0.91727	0.23083	0.32603	0.063
Mof_C 	C 	0.90317	0.19353	0.27473	-0.099
Mof_H 	H 	0.94657	0.24053	0.26553	-0.146
Mof_C 	C 	0.79167	0.11173	0.36273	0.057
Mof_O 	O 	0.74517	0.02223	0.37583	-0.158
Mof_C 	C 	0.86597	0.25863	0.43351	-0.077
Mof_H 	H 	0.91517	0.29423	0.42273	0.1
Mof_C 	C 	0.84587	0.27683	0.4658	-0.044
Mof_C 	C 	0.90017	0.35583	0.48226	0.354
Mof_O 	O 	0.88457	0.36753	0.51328	-0.431
Mof_O 	O 	0.95647	0.40533	0.46341	-0.436
Mof_N 	N 	0.52353	0.46367	0.58564	-0.116
Mof_C 	C 	0.45993	0.39487	0.59917	0.404
Mof_H 	H 	0.42843	0.35177	0.58377	-0.05
Mof_C 	C 	0.44253	0.38907	0.63507	-0.063
Mof_H 	H 	0.39913	0.34197	0.64437	0.073
Mof_C 	C 	0.48883	0.45217	0.65756	0.219
Mof_C 	C 	0.55243	0.52107	0.64407	-0.249
Mof_H 	H 	0.58393	0.56417	0.65937	0.063
Mof_C 	C 	0.56983	0.52687	0.60807	-0.099
Mof_H 	H 	0.61323	0.57387	0.59887	-0.146
Mof_C 	C 	0.45833	0.44507	0.69607	0.057
Mof_O 	O 	0.41183	0.35557	0.70917	-0.158
Mof_C 	C 	0.53263	0.59197	0.76685	-0.077
Mof_H 	H 	0.58183	0.62757	0.75607	0.1
Mof_C 	C 	0.51253	0.61017	0.79914	-0.043
Mof_C 	C 	0.56683	0.68917	0.8156	0.354
Mof_O 	O 	0.55123	0.70087	0.84662	-0.431
Mof_O 	O 	0.62313	0.73867	0.79675	-0.436
Mof_Co	Co	0.18883	0.37767	0.86491	1.151
Mof_C 	C 	0.14645	0.2929	0.0834	0.121
Mof_C 	C 	0.10905	0.2181	0.1493	-0.004
Mof_H 	H 	0.0971	0.1942	0.172	0.065
Mof_N 	N 	0.16475	0.3295	0.0491	-0.139
Mof_Co	Co	0.8555	0.711	0.19824	1.151
Mof_C 	C 	0.81312	0.62623	0.41673	0.121
Mof_C 	C 	0.77572	0.55143	0.48263	-0.004
Mof_H 	H 	0.76377	0.52753	0.50533	0.065
Mof_N 	N 	0.83142	0.66283	0.38243	-0.139
Mof_Co	Co	0.52217	0.04434	0.53158	1.151
Mof_C 	C 	0.47978	0.95957	0.75007	0.121
Mof_C 	C 	0.44238	0.88477	0.81597	-0.004
Mof_H 	H 	0.43043	0.86087	0.83867	0.065
Mof_N 	N 	0.49808	0.99617	0.71577	-0.139
Mof_Co	Co	0.62233	0.81117	0.86491	1.151
Mof_C 	C 	0.7071	0.85355	0.0834	0.121
Mof_C 	C 	0.7819	0.89095	0.1493	-0.004
Mof_H 	H 	0.8058	0.9029	0.172	0.065
Mof_N 	N 	0.6705	0.83525	0.0491	-0.139
Mof_Co	Co	0.289	0.1445	0.19824	1.151
Mof_C 	C 	0.37377	0.18688	0.41673	0.121
Mof_C 	C 	0.44857	0.22428	0.48263	-0.004
Mof_H 	H 	0.47247	0.23623	0.50533	0.065
Mof_N 	N 	0.33717	0.16858	0.38243	-0.139
Mof_Co	Co	0.95566	0.47783	0.53158	1.151
Mof_C 	C 	0.04043	0.52022	0.75007	0.121
Mof_C 	C 	0.11523	0.55762	0.81597	-0.004
Mof_H 	H 	0.13913	0.56957	0.83867	0.065
Mof_N 	N 	0.00383	0.50192	0.71577	-0.139
Mof_Co	Co	0.18883	0.81117	0.86491	1.151
Mof_C 	C 	0.14645	0.85355	0.0834	0.121
Mof_C 	C 	0.10905	0.89095	0.1493	-0.004
Mof_H 	H 	0.0971	0.9029	0.172	0.065
Mof_N 	N 	0.16475	0.83525	0.0491	-0.139
Mof_Co	Co	0.8555	0.1445	0.19824	1.151
Mof_C 	C 	0.81312	0.18688	0.41673	0.121
Mof_C 	C 	0.77572	0.22428	0.48263	-0.004
Mof_H 	H 	0.76377	0.23623	0.50533	0.065
Mof_N 	N 	0.83142	0.16858	0.38243	-0.139
Mof_Co	Co	0.52217	0.47783	0.53158	1.151
Mof_C 	C 	0.47978	0.52022	0.75007	0.121
Mof_C 	C 	0.44238	0.55762	0.81597	-0.004
Mof_H 	H 	0.43043	0.56957	0.83867	0.065
Mof_N 	N 	0.49808	0.50192	0.71577	-0.139
Mof_Co	Co	0.37767	0.18883	0.13509	1.151
Mof_C 	C 	0.2929	0.14645	0.9166	0.121
Mof_C 	C 	0.2181	0.10905	0.8507	-0.004
Mof_H 	H 	0.1942	0.0971	0.828	0.065
Mof_N 	N 	0.3295	0.16475	0.9509	-0.139
Mof_Co	Co	0.04434	0.52217	0.46842	1.151
Mof_C 	C 	0.95957	0.47978	0.24993	0.121
Mof_C 	C 	0.88477	0.44238	0.18403	-0.004
Mof_H 	H 	0.86087	0.43043	0.16133	0.065
Mof_N 	N 	0.99617	0.49808	0.28423	-0.139
Mof_Co	Co	0.711	0.8555	0.80176	1.151
Mof_C 	C 	0.62623	0.81312	0.58327	0.121
Mof_C 	C 	0.55143	0.77572	0.51737	-0.004
Mof_H 	H 	0.52753	0.76377	0.49467	0.065
Mof_N 	N 	0.66283	0.83142	0.61757	-0.139
Mof_Co	Co	0.81117	0.62233	0.13509	1.151
Mof_C 	C 	0.85355	0.7071	0.9166	0.121
Mof_C 	C 	0.89095	0.7819	0.8507	-0.004
Mof_H 	H 	0.9029	0.8058	0.828	0.065
Mof_N 	N 	0.83525	0.6705	0.9509	-0.139
Mof_Co	Co	0.47783	0.95566	0.46842	1.151
Mof_C 	C 	0.52022	0.04043	0.24993	0.121
Mof_C 	C 	0.55762	0.11523	0.18403	-0.004
Mof_H 	H 	0.56957	0.13913	0.16133	0.065
Mof_N 	N 	0.50192	0.00383	0.28423	-0.139
Mof_Co	Co	0.1445	0.289	0.80176	1.151
Mof_C 	C 	0.18688	0.37377	0.58327	0.121
Mof_C 	C 	0.22428	0.44857	0.51737	-0.004
Mof_H 	H 	0.23623	0.47247	0.49467	0.065
Mof_N 	N 	0.16858	0.33717	0.61757	-0.139
Mof_Co	Co	0.81117	0.18883	0.13509	1.151
Mof_C 	C 	0.85355	0.14645	0.9166	0.121
Mof_C 	C 	0.89095	0.10905	0.8507	-0.004
Mof_H 	H 	0.9029	0.0971	0.828	0.065
Mof_N 	N 	0.83525	0.16475	0.9509	-0.139
Mof_Co	Co	0.47783	0.52217	0.46842	1.151
Mof_C 	C 	0.52022	0.47978	0.24993	0.121
Mof_C 	C 	0.55762	0.44238	0.18403	-0.004
Mof_H 	H 	0.56957	0.43043	0.16133	0.065
Mof_N 	N 	0.50192	0.49808	0.28423	-0.139
Mof_Co	Co	0.1445	0.8555	0.80176	1.151
Mof_C 	C 	0.18688	0.81312	0.58327	0.121
Mof_C 	C 	0.22428	0.77572	0.51737	-0.004
Mof_H 	H 	0.23623	0.76377	0.49467	0.065
Mof_N 	N 	0.16858	0.83142	0.61757	-0.139
_end
