data_functionalizedCrystal
_audit_creation_method	'EQeq! by Chris Wilmer'
_symmetry_space_group_name_H-M	'P1'
_symmetry_Int_Tables_number	1
_symmetry_cell_setting	triclinic
loop_
_symmetry_equiv_pos_as_xyz
  x,y,z
_cell_length_a	10.817
_cell_length_b	27.553
_cell_length_c	9.048
_cell_angle_alpha	90
_cell_angle_beta	90
_cell_angle_gamma	90
loop_
_atom_site_label
_atom_site_type_symbol
_atom_site_fract_x
_atom_site_fract_y
_atom_site_fract_z
_atom_site_charge
Mof_N 	N 	0.21	0.978	0.199	-0.128
Mof_N 	N 	0.475	0.024	0.197	-0.136
Mof_N 	N 	0.006	0.216	0.319	-0.132
Mof_N 	N 	0.725	0.262	0.342	-0.137
Mof_C 	C 	0.16	0.964	0.299	-0.004
Mof_C 	C 	0.526	0.034	0.298	-0.005
Mof_C 	C 	0.06	0.211	0.211	-0.009
Mof_C 	C 	0.309	0.772	0.228	0.004
Mof_N 	N 	0.79	0.478	0.801	-0.116
Mof_N 	N 	0.525	0.524	0.803	-0.117
Mof_N 	N 	0.994	0.716	0.681	-0.135
Mof_N 	N 	0.275	0.762	0.658	-0.141
Mof_C 	C 	0.84	0.464	0.701	0.005
Mof_C 	C 	0.474	0.534	0.702	0.01
Mof_C 	C 	0.94	0.711	0.789	0.028
Mof_C 	C 	0.691	0.272	0.772	0.038
Mof_N 	N 	0.79	0.478	0.199	-0.133
Mof_N 	N 	0.525	0.524	0.197	-0.134
Mof_N 	N 	0.994	0.716	0.319	-0.132
Mof_N 	N 	0.275	0.762	0.342	-0.137
Mof_C 	C 	0.84	0.464	0.299	-0.007
Mof_C 	C 	0.474	0.534	0.298	-0.002
Mof_C 	C 	0.94	0.711	0.211	-0.008
Mof_C 	C 	0.691	0.272	0.228	0.003
Mof_N 	N 	0.21	0.978	0.801	-0.112
Mof_N 	N 	0.475	0.024	0.803	-0.119
Mof_N 	N 	0.006	0.216	0.681	-0.135
Mof_N 	N 	0.725	0.262	0.658	-0.141
Mof_C 	C 	0.16	0.964	0.701	0.008
Mof_C 	C 	0.526	0.034	0.702	0.006
Mof_C 	C 	0.06	0.211	0.789	0.027
Mof_C 	C 	0.309	0.772	0.772	0.038
Mof_Cd	Cd	0.3405	0	-0	0.342
Mof_Cd	Cd	0.1621	0.1941	-0	0.248
Mof_Cd	Cd	0.3967	0.8011	-0	0.241
Mof_N 	N 	0.258	0.08	-0	-0.141
Mof_N 	N 	0.41	0.92	-0	-0.138
Mof_C 	C 	0.232	0.118	-0	-0.007
Mof_C 	C 	0.426	0.881	-0	-0.007
Mof_C 	C 	0.581	0.761	-0	-0.067
Mof_C 	C 	0.327	0.242	-0	-0.074
Mof_Cd	Cd	0.6595	0.5	-0	0.353
Mof_Cd	Cd	0.8379	0.6941	-0	0.248
Mof_Cd	Cd	0.6033	0.3011	-0	0.24
Mof_N 	N 	0.742	0.58	-0	-0.14
Mof_N 	N 	0.59	0.42	-0	-0.142
Mof_C 	C 	0.768	0.618	-0	-0.005
Mof_C 	C 	0.574	0.381	-0	-0.008
Mof_C 	C 	0.419	0.261	-0	-0.068
Mof_C 	C 	0.673	0.742	-0	-0.074
Mof_Cd	Cd	0.8647	0.237	0.5	0.397
Mof_Cd	Cd	0.6319	0.0516	0.5	0.268
Mof_Cd	Cd	0.0667	0.9397	0.5	0.279
Mof_N 	N 	0.782	0.159	0.5	-0.133
Mof_N 	N 	0.94	0.317	0.5	-0.13
Mof_C 	C 	0.733	0.123	0.5	0.002
Mof_C 	C 	0.058	0.858	0.5	0.002
Mof_C 	C 	0.791	0.998	0.5	-0.048
Mof_C 	C 	0.88	0.978	0.5	-0.058
Mof_Cd	Cd	0.1353	0.737	0.5	0.398
Mof_Cd	Cd	0.3681	0.5516	0.5	0.274
Mof_Cd	Cd	0.9333	0.4397	0.5	0.276
Mof_N 	N 	0.218	0.659	0.5	-0.132
Mof_N 	N 	0.06	0.817	0.5	-0.13
Mof_C 	C 	0.267	0.623	0.5	0.003
Mof_C 	C 	0.942	0.358	0.5	0.001
Mof_C 	C 	0.209	0.498	0.5	-0.058
Mof_C 	C 	0.12	0.478	0.5	-0.059
_end
