data_functionalizedCrystal
_audit_creation_method	'EQeq! by Chris Wilmer'
_symmetry_space_group_name_H-M	'P1'
_symmetry_Int_Tables_number	1
_symmetry_cell_setting	triclinic
loop_
_symmetry_equiv_pos_as_xyz
  x,y,z
_cell_length_a	34.5079
_cell_length_b	19.159
_cell_length_c	23.9838
_cell_angle_alpha	90
_cell_angle_beta	128.019
_cell_angle_gamma	90
loop_
_atom_site_label
_atom_site_type_symbol
_atom_site_fract_x
_atom_site_fract_y
_atom_site_fract_z
_atom_site_charge
Mof_C 	C 	0.9435	0.4515	0.0713	0.476
Mof_C 	C 	0.9908	0.4307	0.1402	-0.204
Mof_C 	C 	0.9989	0.361	0.1591	0.12
Mof_H 	H 	0.9745	0.3281	0.1307	-0.01
Mof_C 	C 	0.043	0.3411	0.2197	-0.187
Mof_H 	H 	0.0492	0.2946	0.2336	0.096
Mof_C 	C 	0.0781	0.3909	0.2598	0.112
Mof_H 	H 	0.1087	0.3765	0.3	-0.007
Mof_C 	C 	0.0275	0.4785	0.1854	0.108
Mof_C 	C 	0.0201	0.556	0.1751	0.101
Mof_C 	C 	0.9745	0.6486	0.1663	0.092
Mof_H 	H 	0.9469	0.6653	0.1603	-0.006
Mof_C 	C 	0.0067	0.6958	0.174	-0.19
Mof_H 	H 	0.0019	0.7433	0.1752	0.085
Mof_C 	C 	0.0466	0.6719	0.1798	0.107
Mof_H 	H 	0.0687	0.7033	0.1839	-0.013
Mof_C 	C 	0.0535	0.6005	0.1796	-0.208
Mof_C 	C 	0.0921	0.5746	0.1744	0.503
Mof_C 	C 	0.846	0.684	0.8126	0.523
Mof_C 	C 	0.8494	0.7392	0.7722	-0.224
Mof_C 	C 	0.8897	0.7819	0.8061	0.155
Mof_H 	H 	0.9164	0.7732	0.853	-0.03
Mof_C 	C 	0.8905	0.8367	0.7715	-0.22
Mof_H 	H 	0.9172	0.867	0.7945	0.102
Mof_C 	C 	0.852	0.8467	0.7032	0.124
Mof_H 	H 	0.8527	0.8853	0.6803	-0.015
Mof_C 	C 	0.8114	0.7509	0.7015	0.112
Mof_C 	C 	0.7685	0.7026	0.6561	0.102
Mof_C 	C 	0.7423	0.5934	0.6146	0.099
Mof_H 	H 	0.7495	0.5463	0.6162	0.009
Mof_C 	C 	0.6937	0.6135	0.5654	-0.182
Mof_H 	H 	0.6693	0.5813	0.5349	0.094
Mof_C 	C 	0.6832	0.6822	0.5637	0.115
Mof_H 	H 	0.6511	0.6983	0.5316	-0.016
Mof_C 	C 	0.7211	0.7278	0.6104	-0.204
Mof_C 	C 	0.7092	0.8029	0.6148	0.529
Mof_C 	C 	0.7772	0.3636	0.6612	0.348
Mof_C 	C 	0.7892	0.3316	0.6166	-0.13
Mof_C 	C 	0.8304	0.2901	0.6515	0.077
Mof_H 	H 	0.8464	0.2781	0.6986	0.002
Mof_C 	C 	0.8479	0.2667	0.6168	-0.165
Mof_H 	H 	0.8759	0.239	0.6398	0.085
Mof_C 	C 	0.8232	0.2849	0.5484	0.097
Mof_H 	H 	0.836	0.2703	0.5256	-0.014
Mof_C 	C 	0.7642	0.3456	0.5443	0.073
Mof_C 	C 	0.7159	0.3813	0.5007	0.119
Mof_C 	C 	0.644	0.399	0.485	0.115
Mof_H 	H 	0.6252	0.3932	0.5004	-0.007
Mof_C 	C 	0.6249	0.4349	0.4247	-0.204
Mof_H 	H 	0.5933	0.4533	0.3992	0.095
Mof_C 	C 	0.6515	0.4442	0.4011	0.136
Mof_H 	H 	0.6379	0.4678	0.3589	-0.02
Mof_C 	C 	0.6986	0.4186	0.44	-0.215
Mof_C 	C 	0.7291	0.437	0.4174	0.504
Mof_C 	C 	0.6844	0.4887	0.6805	0.504
Mof_C 	C 	0.6298	0.4909	0.6251	-0.218
Mof_C 	C 	0.6021	0.4318	0.5986	0.114
Mof_H 	H 	0.6174	0.3885	0.6142	-0.002
Mof_C 	C 	0.5517	0.4352	0.5493	-0.165
Mof_H 	H 	0.5338	0.394	0.5312	0.077
Mof_C 	C 	0.5276	0.4972	0.5262	0.067
Mof_C 	C 	0.5561	0.5565	0.5484	-0.163
Mof_H 	H 	0.5411	0.5995	0.5295	0.076
Mof_C 	C 	0.6071	0.553	0.5989	0.114
Mof_H 	H 	0.6257	0.5938	0.6145	-0.014
Mof_N 	N 	0.07106	0.4588	0.2449	-0.148
Mof_N 	N 	0.97997	0.5789	0.1668	-0.149
Mof_N 	N 	0.8124	0.8046	0.6657	-0.154
Mof_N 	N 	0.7794	0.6353	0.6595	-0.151
Mof_N 	N 	0.6891	0.3718	0.523	-0.146
Mof_N 	N 	0.782	0.3222	0.5112	-0.151
Mof_O 	O 	0.90538	0.4206	0.0538	-0.541
Mof_O 	O 	0.94508	0.4968	0.03451	-0.552
Mof_O 	O 	0.08081	0.5199	0.1378	-0.571
Mof_O 	O 	0.13147	0.6073	0.2039	-0.514
Mof_O 	O 	0.88367	0.6484	0.8554	-0.566
Mof_O 	O 	0.80546	0.6777	0.8017	-0.555
Mof_O 	O 	0.71628	0.8193	0.6704	-0.575
Mof_O 	O 	0.69344	0.8412	0.5625	-0.551
Mof_O 	O 	0.77213	0.3244	0.6986	-0.442
Mof_O 	O 	0.77833	0.4287	0.66766	-0.416
Mof_O 	O 	0.76616	0.4748	0.4594	-0.568
Mof_O 	O 	0.71504	0.416	0.358	-0.535
Mof_O 	O 	0.76472	0.4715	0.84216	-0.694
Mof_O 	O 	0.85901	0.43745	0.90551	-0.716
Mof_O 	O 	0.81595	0.53382	0.79909	-0.696
Mof_O 	O 	0.83585	0.5685	0.92858	-0.773
Mof_O 	O 	0.70494	0.5464	0.7084	-0.577
Mof_O 	O 	0.70654	0.4316	0.6971	-0.515
Mof_Tb	Tb	0.89633	0.54573	0.91612	1.885
Mof_Tb	Tb	0.79376	0.41744	0.78387	2.2
Mof_Tb	Tb	0.82531	0.45937	0.96577	1.93
Mof_Tb	Tb	0.76244	0.59492	0.81633	1.914
Mof_C 	C 	0.4435	0.9515	0.0713	0.475
Mof_C 	C 	0.4908	0.9307	0.1402	-0.206
Mof_C 	C 	0.4989	0.861	0.1591	0.119
Mof_H 	H 	0.4745	0.8281	0.1307	-0.01
Mof_C 	C 	0.543	0.8411	0.2197	-0.188
Mof_H 	H 	0.5492	0.7946	0.2336	0.095
Mof_C 	C 	0.5781	0.8909	0.2598	0.111
Mof_H 	H 	0.6087	0.8765	0.3	-0.008
Mof_C 	C 	0.5275	0.9785	0.1854	0.109
Mof_C 	C 	0.5201	0.056	0.1751	0.1
Mof_C 	C 	0.4745	0.1486	0.1663	0.09
Mof_H 	H 	0.4469	0.1653	0.1603	-0.006
Mof_C 	C 	0.5067	0.1958	0.174	-0.188
Mof_H 	H 	0.5019	0.2433	0.1752	0.085
Mof_C 	C 	0.5466	0.1719	0.1798	0.105
Mof_H 	H 	0.5687	0.2033	0.1839	-0.013
Mof_C 	C 	0.5535	0.1005	0.1796	-0.208
Mof_C 	C 	0.5921	0.0746	0.1744	0.503
Mof_C 	C 	0.346	0.184	0.8126	0.523
Mof_C 	C 	0.3494	0.2392	0.7722	-0.224
Mof_C 	C 	0.3897	0.2819	0.8061	0.155
Mof_H 	H 	0.4164	0.2732	0.853	-0.03
Mof_C 	C 	0.3905	0.3367	0.7715	-0.22
Mof_H 	H 	0.4172	0.367	0.7945	0.102
Mof_C 	C 	0.352	0.3467	0.7032	0.124
Mof_H 	H 	0.3527	0.3853	0.6803	-0.015
Mof_C 	C 	0.3114	0.2509	0.7015	0.112
Mof_C 	C 	0.2685	0.2026	0.6561	0.102
Mof_C 	C 	0.2423	0.0934	0.6146	0.099
Mof_H 	H 	0.2495	0.0463	0.6162	0.009
Mof_C 	C 	0.1937	0.1135	0.5654	-0.182
Mof_H 	H 	0.1693	0.0813	0.5349	0.094
Mof_C 	C 	0.1832	0.1822	0.5637	0.115
Mof_H 	H 	0.1511	0.1983	0.5316	-0.016
Mof_C 	C 	0.2211	0.2278	0.6104	-0.204
Mof_C 	C 	0.2092	0.3029	0.6148	0.529
Mof_C 	C 	0.2772	0.8636	0.6612	0.348
Mof_C 	C 	0.2892	0.8316	0.6166	-0.13
Mof_C 	C 	0.3304	0.7901	0.6515	0.077
Mof_H 	H 	0.3464	0.7781	0.6986	0.002
Mof_C 	C 	0.3479	0.7667	0.6168	-0.165
Mof_H 	H 	0.3759	0.739	0.6398	0.085
Mof_C 	C 	0.3232	0.7849	0.5484	0.097
Mof_H 	H 	0.336	0.7703	0.5256	-0.014
Mof_C 	C 	0.2642	0.8456	0.5443	0.073
Mof_C 	C 	0.2159	0.8813	0.5007	0.119
Mof_C 	C 	0.144	0.899	0.485	0.115
Mof_H 	H 	0.1252	0.8932	0.5004	-0.007
Mof_C 	C 	0.1249	0.9349	0.4247	-0.204
Mof_H 	H 	0.0933	0.9533	0.3992	0.095
Mof_C 	C 	0.1515	0.9442	0.4011	0.136
Mof_H 	H 	0.1379	0.9678	0.3589	-0.02
Mof_C 	C 	0.1986	0.9186	0.44	-0.215
Mof_C 	C 	0.2291	0.937	0.4174	0.504
Mof_C 	C 	0.1844	0.9887	0.6805	0.504
Mof_C 	C 	0.1298	0.9909	0.6251	-0.218
Mof_C 	C 	0.1021	0.9318	0.5986	0.114
Mof_H 	H 	0.1174	0.8885	0.6142	-0.002
Mof_C 	C 	0.0517	0.9352	0.5493	-0.165
Mof_H 	H 	0.0338	0.894	0.5312	0.077
Mof_C 	C 	0.0276	0.9972	0.5262	0.067
Mof_C 	C 	0.0561	0.0565	0.5484	-0.163
Mof_H 	H 	0.0411	0.0995	0.5295	0.076
Mof_C 	C 	0.1071	0.053	0.5989	0.115
Mof_H 	H 	0.1257	0.0938	0.6145	-0.014
Mof_N 	N 	0.57106	0.9588	0.2449	-0.148
Mof_N 	N 	0.47997	0.0789	0.1668	-0.149
Mof_N 	N 	0.3124	0.3046	0.6657	-0.154
Mof_N 	N 	0.2794	0.1353	0.6595	-0.151
Mof_N 	N 	0.1891	0.8718	0.523	-0.146
Mof_N 	N 	0.282	0.8222	0.5112	-0.151
Mof_O 	O 	0.40538	0.9206	0.0538	-0.541
Mof_O 	O 	0.44508	0.9968	0.03451	-0.552
Mof_O 	O 	0.58081	0.0199	0.1378	-0.572
Mof_O 	O 	0.63147	0.1073	0.2039	-0.514
Mof_O 	O 	0.38367	0.1484	0.8554	-0.566
Mof_O 	O 	0.30546	0.1777	0.8017	-0.555
Mof_O 	O 	0.21628	0.3193	0.6704	-0.575
Mof_O 	O 	0.19344	0.3412	0.5625	-0.551
Mof_O 	O 	0.27213	0.8244	0.6986	-0.442
Mof_O 	O 	0.27833	0.9287	0.66766	-0.416
Mof_O 	O 	0.26616	0.9748	0.4594	-0.568
Mof_O 	O 	0.21504	0.916	0.358	-0.535
Mof_O 	O 	0.26472	0.9715	0.84216	-0.694
Mof_O 	O 	0.35901	0.93745	0.90551	-0.717
Mof_O 	O 	0.31595	0.03382	0.79909	-0.696
Mof_O 	O 	0.33585	0.0685	0.92858	-0.772
Mof_O 	O 	0.20494	0.0464	0.7084	-0.576
Mof_O 	O 	0.20654	0.9316	0.6971	-0.515
Mof_Tb	Tb	0.39633	0.04573	0.91612	1.889
Mof_Tb	Tb	0.29376	0.91744	0.78387	2.199
Mof_Tb	Tb	0.32531	0.95937	0.96577	1.926
Mof_Tb	Tb	0.26244	0.09492	0.81633	1.915
Mof_C 	C 	0.0565	0.4515	0.4287	0.475
Mof_C 	C 	0.0092	0.4307	0.3598	-0.206
Mof_C 	C 	0.0011	0.361	0.3409	0.117
Mof_H 	H 	0.0255	0.3281	0.3693	-0.01
Mof_C 	C 	0.957	0.3411	0.2803	-0.187
Mof_H 	H 	0.9508	0.2946	0.2664	0.095
Mof_C 	C 	0.9219	0.3909	0.2402	0.111
Mof_H 	H 	0.8913	0.3765	0.2	-0.008
Mof_C 	C 	0.9725	0.4785	0.3146	0.108
Mof_C 	C 	0.9799	0.556	0.3249	0.101
Mof_C 	C 	0.0255	0.6486	0.3337	0.09
Mof_H 	H 	0.0531	0.6653	0.3397	-0.005
Mof_C 	C 	0.9933	0.6958	0.326	-0.187
Mof_H 	H 	0.9981	0.7433	0.3248	0.085
Mof_C 	C 	0.9534	0.6719	0.3202	0.105
Mof_H 	H 	0.9313	0.7033	0.3161	-0.013
Mof_C 	C 	0.9465	0.6005	0.3204	-0.208
Mof_C 	C 	0.9079	0.5746	0.3256	0.503
Mof_C 	C 	0.154	0.684	0.6874	0.523
Mof_C 	C 	0.1506	0.7392	0.7278	-0.224
Mof_C 	C 	0.1103	0.7819	0.6939	0.155
Mof_H 	H 	0.0836	0.7732	0.647	-0.03
Mof_C 	C 	0.1095	0.8367	0.7285	-0.221
Mof_H 	H 	0.0828	0.867	0.7055	0.102
Mof_C 	C 	0.148	0.8467	0.7968	0.124
Mof_H 	H 	0.1473	0.8853	0.8197	-0.015
Mof_C 	C 	0.1886	0.7509	0.7985	0.112
Mof_C 	C 	0.2315	0.7026	0.8439	0.102
Mof_C 	C 	0.2577	0.5934	0.8854	0.099
Mof_H 	H 	0.2505	0.5463	0.8838	0.009
Mof_C 	C 	0.3063	0.6135	0.9346	-0.182
Mof_H 	H 	0.3307	0.5813	0.9651	0.094
Mof_C 	C 	0.3168	0.6822	0.9363	0.115
Mof_H 	H 	0.3489	0.6983	0.9684	-0.016
Mof_C 	C 	0.2789	0.7278	0.8896	-0.204
Mof_C 	C 	0.2908	0.8029	0.8852	0.529
Mof_C 	C 	0.2228	0.3636	0.8388	0.348
Mof_C 	C 	0.2108	0.3316	0.8834	-0.13
Mof_C 	C 	0.1696	0.2901	0.8485	0.077
Mof_H 	H 	0.1536	0.2781	0.8014	0.002
Mof_C 	C 	0.1521	0.2667	0.8832	-0.164
Mof_H 	H 	0.1241	0.239	0.8602	0.085
Mof_C 	C 	0.1768	0.2849	0.9516	0.097
Mof_H 	H 	0.164	0.2703	0.9744	-0.013
Mof_C 	C 	0.2358	0.3456	0.9557	0.073
Mof_C 	C 	0.2841	0.3813	0.9993	0.12
Mof_C 	C 	0.356	0.399	0.015	0.113
Mof_H 	H 	0.3748	0.3932	0.9996	-0.006
Mof_C 	C 	0.3751	0.4349	0.0753	-0.203
Mof_H 	H 	0.4067	0.4533	0.1008	0.094
Mof_C 	C 	0.3485	0.4442	0.0989	0.135
Mof_H 	H 	0.3621	0.4678	0.1411	-0.02
Mof_C 	C 	0.3014	0.4186	0.06	-0.215
Mof_C 	C 	0.2709	0.437	0.0826	0.504
Mof_C 	C 	0.3156	0.4887	0.8195	0.504
Mof_C 	C 	0.3702	0.4909	0.8749	-0.218
Mof_C 	C 	0.3979	0.4318	0.9014	0.114
Mof_H 	H 	0.3826	0.3885	0.8858	-0.002
Mof_C 	C 	0.4483	0.4352	0.9507	-0.165
Mof_H 	H 	0.4662	0.394	0.9688	0.077
Mof_C 	C 	0.4724	0.4972	0.9738	0.067
Mof_C 	C 	0.4439	0.5565	0.9516	-0.163
Mof_H 	H 	0.4589	0.5995	0.9705	0.076
Mof_C 	C 	0.3929	0.553	0.9011	0.114
Mof_H 	H 	0.3743	0.5938	0.8855	-0.014
Mof_N 	N 	0.92894	0.4588	0.2551	-0.147
Mof_N 	N 	0.02003	0.5789	0.3332	-0.15
Mof_N 	N 	0.1876	0.8046	0.8343	-0.154
Mof_N 	N 	0.2206	0.6353	0.8405	-0.151
Mof_N 	N 	0.3109	0.3718	0.977	-0.145
Mof_N 	N 	0.218	0.3222	0.9888	-0.15
Mof_O 	O 	0.09462	0.4206	0.4462	-0.542
Mof_O 	O 	0.05492	0.4968	0.46549	-0.553
Mof_O 	O 	0.91919	0.5199	0.3622	-0.571
Mof_O 	O 	0.86853	0.6073	0.2961	-0.514
Mof_O 	O 	0.11633	0.6484	0.6446	-0.566
Mof_O 	O 	0.19454	0.6777	0.6983	-0.555
Mof_O 	O 	0.28372	0.8193	0.8296	-0.574
Mof_O 	O 	0.30656	0.8412	0.9375	-0.551
Mof_O 	O 	0.22787	0.3244	0.8014	-0.442
Mof_O 	O 	0.22167	0.4287	0.83234	-0.416
Mof_O 	O 	0.23384	0.4748	0.0406	-0.568
Mof_O 	O 	0.28496	0.416	0.142	-0.535
Mof_O 	O 	0.23528	0.4715	0.65784	-0.694
Mof_O 	O 	0.14099	0.43745	0.59449	-0.716
Mof_O 	O 	0.18405	0.53382	0.70091	-0.697
Mof_O 	O 	0.16415	0.5685	0.57142	-0.773
Mof_O 	O 	0.29506	0.5464	0.7916	-0.577
Mof_O 	O 	0.29346	0.4316	0.8029	-0.515
Mof_Tb	Tb	0.10367	0.54573	0.58388	1.885
Mof_Tb	Tb	0.20624	0.41744	0.71613	2.2
Mof_Tb	Tb	0.17469	0.45937	0.53423	1.93
Mof_Tb	Tb	0.23756	0.59492	0.68367	1.914
Mof_C 	C 	0.5565	0.9515	0.4287	0.475
Mof_C 	C 	0.5092	0.9307	0.3598	-0.206
Mof_C 	C 	0.5011	0.861	0.3409	0.119
Mof_H 	H 	0.5255	0.8281	0.3693	-0.011
Mof_C 	C 	0.457	0.8411	0.2803	-0.188
Mof_H 	H 	0.4508	0.7946	0.2664	0.095
Mof_C 	C 	0.4219	0.8909	0.2402	0.111
Mof_H 	H 	0.3913	0.8765	0.2	-0.008
Mof_C 	C 	0.4725	0.9785	0.3146	0.109
Mof_C 	C 	0.4799	0.056	0.3249	0.101
Mof_C 	C 	0.5255	0.1486	0.3337	0.09
Mof_H 	H 	0.5531	0.1653	0.3397	-0.006
Mof_C 	C 	0.4933	0.1958	0.326	-0.188
Mof_H 	H 	0.4981	0.2433	0.3248	0.085
Mof_C 	C 	0.4534	0.1719	0.3202	0.106
Mof_H 	H 	0.4313	0.2033	0.3161	-0.013
Mof_C 	C 	0.4465	0.1005	0.3204	-0.208
Mof_C 	C 	0.4079	0.0746	0.3256	0.503
Mof_C 	C 	0.654	0.184	0.6874	0.523
Mof_C 	C 	0.6506	0.2392	0.7278	-0.224
Mof_C 	C 	0.6103	0.2819	0.6939	0.155
Mof_H 	H 	0.5836	0.2732	0.647	-0.03
Mof_C 	C 	0.6095	0.3367	0.7285	-0.22
Mof_H 	H 	0.5828	0.367	0.7055	0.102
Mof_C 	C 	0.648	0.3467	0.7968	0.124
Mof_H 	H 	0.6473	0.3853	0.8197	-0.015
Mof_C 	C 	0.6886	0.2509	0.7985	0.112
Mof_C 	C 	0.7315	0.2026	0.8439	0.103
Mof_C 	C 	0.7577	0.0934	0.8854	0.099
Mof_H 	H 	0.7505	0.0463	0.8838	0.009
Mof_C 	C 	0.8063	0.1135	0.9346	-0.182
Mof_H 	H 	0.8307	0.0813	0.9651	0.094
Mof_C 	C 	0.8168	0.1822	0.9363	0.115
Mof_H 	H 	0.8489	0.1983	0.9684	-0.015
Mof_C 	C 	0.7789	0.2278	0.8896	-0.204
Mof_C 	C 	0.7908	0.3029	0.8852	0.529
Mof_C 	C 	0.7228	0.8636	0.8388	0.348
Mof_C 	C 	0.7108	0.8316	0.8834	-0.13
Mof_C 	C 	0.6696	0.7901	0.8485	0.077
Mof_H 	H 	0.6536	0.7781	0.8014	0.002
Mof_C 	C 	0.6521	0.7667	0.8832	-0.165
Mof_H 	H 	0.6241	0.739	0.8602	0.085
Mof_C 	C 	0.6768	0.7849	0.9516	0.097
Mof_H 	H 	0.664	0.7703	0.9744	-0.014
Mof_C 	C 	0.7358	0.8456	0.9557	0.073
Mof_C 	C 	0.7841	0.8813	0.9993	0.117
Mof_C 	C 	0.856	0.899	0.015	0.122
Mof_H 	H 	0.8748	0.8932	0.9996	-0.01
Mof_C 	C 	0.8751	0.9349	0.0753	-0.208
Mof_H 	H 	0.9067	0.9533	0.1008	0.097
Mof_C 	C 	0.8485	0.9442	0.0989	0.138
Mof_H 	H 	0.8621	0.9678	0.1411	-0.021
Mof_C 	C 	0.8014	0.9186	0.06	-0.213
Mof_C 	C 	0.7709	0.937	0.0826	0.504
Mof_C 	C 	0.8156	0.9887	0.8195	0.503
Mof_C 	C 	0.8702	0.9909	0.8749	-0.219
Mof_C 	C 	0.8979	0.9318	0.9014	0.114
Mof_H 	H 	0.8826	0.8885	0.8858	-0.002
Mof_C 	C 	0.9483	0.9352	0.9507	-0.165
Mof_H 	H 	0.9662	0.894	0.9688	0.076
Mof_C 	C 	0.9724	0.9972	0.9738	0.066
Mof_C 	C 	0.9439	0.0565	0.9516	-0.161
Mof_H 	H 	0.9589	0.0995	0.9705	0.076
Mof_C 	C 	0.8929	0.053	0.9011	0.115
Mof_H 	H 	0.8743	0.0938	0.8855	-0.014
Mof_N 	N 	0.42894	0.9588	0.2551	-0.147
Mof_N 	N 	0.52003	0.0789	0.3332	-0.149
Mof_N 	N 	0.6876	0.3046	0.8343	-0.154
Mof_N 	N 	0.7206	0.1353	0.8405	-0.151
Mof_N 	N 	0.8109	0.8718	0.977	-0.148
Mof_N 	N 	0.718	0.8222	0.9888	-0.151
Mof_O 	O 	0.59462	0.9206	0.4462	-0.542
Mof_O 	O 	0.55492	0.9968	0.46549	-0.553
Mof_O 	O 	0.41919	0.0199	0.3622	-0.571
Mof_O 	O 	0.36853	0.1073	0.2961	-0.514
Mof_O 	O 	0.61633	0.1484	0.6446	-0.566
Mof_O 	O 	0.69454	0.1777	0.6983	-0.555
Mof_O 	O 	0.78372	0.3193	0.8296	-0.575
Mof_O 	O 	0.80656	0.3412	0.9375	-0.551
Mof_O 	O 	0.72787	0.8244	0.8014	-0.442
Mof_O 	O 	0.72167	0.9287	0.83234	-0.416
Mof_O 	O 	0.73384	0.9748	0.0406	-0.566
Mof_O 	O 	0.78496	0.916	0.142	-0.535
Mof_O 	O 	0.73528	0.9715	0.65784	-0.694
Mof_O 	O 	0.64099	0.93745	0.59449	-0.717
Mof_O 	O 	0.68405	0.03382	0.70091	-0.696
Mof_O 	O 	0.66415	0.0685	0.57142	-0.773
Mof_O 	O 	0.79506	0.0464	0.7916	-0.576
Mof_O 	O 	0.79346	0.9316	0.8029	-0.515
Mof_Tb	Tb	0.60367	0.04573	0.58388	1.886
Mof_Tb	Tb	0.70624	0.91744	0.71613	2.199
Mof_Tb	Tb	0.67469	0.95937	0.53424	1.93
Mof_Tb	Tb	0.73756	0.09492	0.68367	1.914
Mof_C 	C 	0.0565	0.5485	0.9287	0.475
Mof_C 	C 	0.0092	0.5693	0.8598	-0.205
Mof_C 	C 	0.0011	0.639	0.8409	0.119
Mof_H 	H 	0.0255	0.6719	0.8693	-0.011
Mof_C 	C 	0.957	0.6589	0.7803	-0.188
Mof_H 	H 	0.9508	0.7054	0.7664	0.095
Mof_C 	C 	0.9219	0.6091	0.7402	0.111
Mof_H 	H 	0.8913	0.6235	0.7	-0.008
Mof_C 	C 	0.9725	0.5215	0.8146	0.107
Mof_C 	C 	0.9799	0.444	0.8249	0.101
Mof_C 	C 	0.0255	0.3514	0.8337	0.092
Mof_H 	H 	0.0531	0.3347	0.8397	-0.006
Mof_C 	C 	0.9933	0.3042	0.826	-0.19
Mof_H 	H 	0.9981	0.2567	0.8248	0.085
Mof_C 	C 	0.9534	0.3281	0.8202	0.107
Mof_H 	H 	0.9313	0.2967	0.8161	-0.013
Mof_C 	C 	0.9465	0.3995	0.8204	-0.208
Mof_C 	C 	0.9079	0.4254	0.8256	0.503
Mof_C 	C 	0.154	0.316	0.1874	0.523
Mof_C 	C 	0.1506	0.2608	0.2278	-0.224
Mof_C 	C 	0.1103	0.2181	0.1939	0.155
Mof_H 	H 	0.0836	0.2268	0.147	-0.03
Mof_C 	C 	0.1095	0.1633	0.2285	-0.22
Mof_H 	H 	0.0828	0.133	0.2055	0.102
Mof_C 	C 	0.148	0.1533	0.2968	0.124
Mof_H 	H 	0.1473	0.1147	0.3197	-0.015
Mof_C 	C 	0.1886	0.2491	0.2985	0.112
Mof_C 	C 	0.2315	0.2974	0.3439	0.102
Mof_C 	C 	0.2577	0.4066	0.3854	0.099
Mof_H 	H 	0.2505	0.4537	0.3838	0.009
Mof_C 	C 	0.3063	0.3865	0.4346	-0.182
Mof_H 	H 	0.3307	0.4187	0.4651	0.094
Mof_C 	C 	0.3168	0.3178	0.4363	0.115
Mof_H 	H 	0.3489	0.3017	0.4684	-0.016
Mof_C 	C 	0.2789	0.2722	0.3896	-0.204
Mof_C 	C 	0.2908	0.1971	0.3852	0.529
Mof_C 	C 	0.2228	0.6364	0.3388	0.348
Mof_C 	C 	0.2108	0.6684	0.3834	-0.13
Mof_C 	C 	0.1696	0.7099	0.3485	0.077
Mof_H 	H 	0.1536	0.7219	0.3014	0.002
Mof_C 	C 	0.1521	0.7333	0.3832	-0.165
Mof_H 	H 	0.1241	0.761	0.3602	0.085
Mof_C 	C 	0.1768	0.7151	0.4516	0.097
Mof_H 	H 	0.164	0.7297	0.4744	-0.014
Mof_C 	C 	0.2358	0.6544	0.4557	0.073
Mof_C 	C 	0.2841	0.6187	0.4993	0.119
Mof_C 	C 	0.356	0.601	0.515	0.115
Mof_H 	H 	0.3748	0.6068	0.4996	-0.007
Mof_C 	C 	0.3751	0.5651	0.5753	-0.204
Mof_H 	H 	0.4067	0.5467	0.6008	0.095
Mof_C 	C 	0.3485	0.5558	0.5989	0.136
Mof_H 	H 	0.3621	0.5322	0.6411	-0.02
Mof_C 	C 	0.3014	0.5814	0.56	-0.215
Mof_C 	C 	0.2709	0.563	0.5826	0.504
Mof_C 	C 	0.3156	0.5113	0.3195	0.504
Mof_C 	C 	0.3702	0.5091	0.3749	-0.218
Mof_C 	C 	0.3979	0.5682	0.4014	0.114
Mof_H 	H 	0.3826	0.6115	0.3858	-0.002
Mof_C 	C 	0.4483	0.5648	0.4507	-0.165
Mof_H 	H 	0.4662	0.606	0.4688	0.077
Mof_C 	C 	0.4724	0.5028	0.4738	0.067
Mof_C 	C 	0.4439	0.4435	0.4516	-0.163
Mof_H 	H 	0.4589	0.4005	0.4705	0.076
Mof_C 	C 	0.3929	0.447	0.4011	0.114
Mof_H 	H 	0.3743	0.4062	0.3855	-0.014
Mof_N 	N 	0.92894	0.5412	0.7551	-0.148
Mof_N 	N 	0.02003	0.4211	0.8332	-0.149
Mof_N 	N 	0.1876	0.1954	0.3343	-0.154
Mof_N 	N 	0.2206	0.3647	0.3405	-0.151
Mof_N 	N 	0.3109	0.6282	0.477	-0.146
Mof_N 	N 	0.218	0.6778	0.4888	-0.151
Mof_O 	O 	0.09462	0.5794	0.9462	-0.541
Mof_O 	O 	0.05492	0.5032	0.96549	-0.552
Mof_O 	O 	0.91919	0.4801	0.8622	-0.571
Mof_O 	O 	0.86853	0.3927	0.7961	-0.514
Mof_O 	O 	0.11633	0.3516	0.1446	-0.566
Mof_O 	O 	0.19454	0.3223	0.1983	-0.555
Mof_O 	O 	0.28372	0.1807	0.3296	-0.575
Mof_O 	O 	0.30656	0.1588	0.4375	-0.551
Mof_O 	O 	0.22787	0.6756	0.3014	-0.442
Mof_O 	O 	0.22167	0.5713	0.33234	-0.416
Mof_O 	O 	0.23384	0.5252	0.5406	-0.568
Mof_O 	O 	0.28496	0.584	0.642	-0.535
Mof_O 	O 	0.23528	0.5285	0.15784	-0.694
Mof_O 	O 	0.14099	0.56255	0.09449	-0.716
Mof_O 	O 	0.18405	0.46618	0.20091	-0.696
Mof_O 	O 	0.16415	0.4315	0.07142	-0.773
Mof_O 	O 	0.29506	0.4536	0.2916	-0.577
Mof_O 	O 	0.29346	0.5684	0.3029	-0.515
Mof_Tb	Tb	0.10367	0.45427	0.08388	1.885
Mof_Tb	Tb	0.20624	0.58256	0.21613	2.2
Mof_Tb	Tb	0.17469	0.54063	0.03423	1.93
Mof_Tb	Tb	0.23756	0.40508	0.18367	1.914
Mof_C 	C 	0.5565	0.0485	0.9287	0.475
Mof_C 	C 	0.5092	0.0693	0.8598	-0.206
Mof_C 	C 	0.5011	0.139	0.8409	0.119
Mof_H 	H 	0.5255	0.1719	0.8693	-0.01
Mof_C 	C 	0.457	0.1589	0.7803	-0.188
Mof_H 	H 	0.4508	0.2054	0.7664	0.095
Mof_C 	C 	0.4219	0.1091	0.7402	0.111
Mof_H 	H 	0.3913	0.1235	0.7	-0.008
Mof_C 	C 	0.4725	0.0215	0.8146	0.109
Mof_C 	C 	0.4799	0.944	0.8249	0.1
Mof_C 	C 	0.5255	0.8514	0.8337	0.09
Mof_H 	H 	0.5531	0.8347	0.8397	-0.006
Mof_C 	C 	0.4933	0.8042	0.826	-0.188
Mof_H 	H 	0.4981	0.7567	0.8248	0.085
Mof_C 	C 	0.4534	0.8281	0.8202	0.105
Mof_H 	H 	0.4313	0.7967	0.8161	-0.013
Mof_C 	C 	0.4465	0.8995	0.8204	-0.208
Mof_C 	C 	0.4079	0.9254	0.8256	0.503
Mof_C 	C 	0.654	0.816	0.1874	0.523
Mof_C 	C 	0.6506	0.7608	0.2278	-0.224
Mof_C 	C 	0.6103	0.7181	0.1939	0.155
Mof_H 	H 	0.5836	0.7268	0.147	-0.03
Mof_C 	C 	0.6095	0.6633	0.2285	-0.22
Mof_H 	H 	0.5828	0.633	0.2055	0.102
Mof_C 	C 	0.648	0.6533	0.2968	0.124
Mof_H 	H 	0.6473	0.6147	0.3197	-0.015
Mof_C 	C 	0.6886	0.7491	0.2985	0.112
Mof_C 	C 	0.7315	0.7974	0.3439	0.102
Mof_C 	C 	0.7577	0.9066	0.3854	0.099
Mof_H 	H 	0.7505	0.9537	0.3838	0.009
Mof_C 	C 	0.8063	0.8865	0.4346	-0.182
Mof_H 	H 	0.8307	0.9187	0.4651	0.094
Mof_C 	C 	0.8168	0.8178	0.4363	0.115
Mof_H 	H 	0.8489	0.8017	0.4684	-0.016
Mof_C 	C 	0.7789	0.7722	0.3896	-0.204
Mof_C 	C 	0.7908	0.6971	0.3852	0.529
Mof_C 	C 	0.7228	0.1364	0.3388	0.348
Mof_C 	C 	0.7108	0.1684	0.3834	-0.13
Mof_C 	C 	0.6696	0.2099	0.3485	0.077
Mof_H 	H 	0.6536	0.2219	0.3014	0.002
Mof_C 	C 	0.6521	0.2333	0.3832	-0.165
Mof_H 	H 	0.6241	0.261	0.3602	0.085
Mof_C 	C 	0.6768	0.2151	0.4516	0.097
Mof_H 	H 	0.664	0.2297	0.4744	-0.014
Mof_C 	C 	0.7358	0.1544	0.4557	0.073
Mof_C 	C 	0.7841	0.1187	0.4993	0.119
Mof_C 	C 	0.856	0.101	0.515	0.115
Mof_H 	H 	0.8748	0.1068	0.4996	-0.007
Mof_C 	C 	0.8751	0.0651	0.5753	-0.204
Mof_H 	H 	0.9067	0.0467	0.6008	0.095
Mof_C 	C 	0.8485	0.0558	0.5989	0.136
Mof_H 	H 	0.8621	0.0322	0.6411	-0.02
Mof_C 	C 	0.8014	0.0814	0.56	-0.215
Mof_C 	C 	0.7709	0.063	0.5826	0.504
Mof_C 	C 	0.8156	0.0113	0.3195	0.504
Mof_C 	C 	0.8702	0.0091	0.3749	-0.218
Mof_C 	C 	0.8979	0.0682	0.4014	0.114
Mof_H 	H 	0.8826	0.1115	0.3858	-0.002
Mof_C 	C 	0.9483	0.0648	0.4507	-0.165
Mof_H 	H 	0.9662	0.106	0.4688	0.077
Mof_C 	C 	0.9724	0.0028	0.4738	0.067
Mof_C 	C 	0.9439	0.9435	0.4516	-0.163
Mof_H 	H 	0.9589	0.9005	0.4705	0.076
Mof_C 	C 	0.8929	0.947	0.4011	0.115
Mof_H 	H 	0.8743	0.9062	0.3855	-0.014
Mof_N 	N 	0.42894	0.0412	0.7551	-0.148
Mof_N 	N 	0.52003	0.9211	0.8332	-0.149
Mof_N 	N 	0.6876	0.6954	0.3343	-0.154
Mof_N 	N 	0.7206	0.8647	0.3405	-0.151
Mof_N 	N 	0.8109	0.1282	0.477	-0.146
Mof_N 	N 	0.718	0.1778	0.4888	-0.151
Mof_O 	O 	0.59462	0.0794	0.9462	-0.541
Mof_O 	O 	0.55492	0.0032	0.96549	-0.552
Mof_O 	O 	0.41919	0.9801	0.8622	-0.572
Mof_O 	O 	0.36853	0.8927	0.7961	-0.514
Mof_O 	O 	0.61633	0.8516	0.1446	-0.566
Mof_O 	O 	0.69454	0.8223	0.1983	-0.555
Mof_O 	O 	0.78372	0.6807	0.3296	-0.575
Mof_O 	O 	0.80656	0.6588	0.4375	-0.551
Mof_O 	O 	0.72787	0.1756	0.3014	-0.442
Mof_O 	O 	0.72167	0.0713	0.33234	-0.416
Mof_O 	O 	0.73384	0.0252	0.5406	-0.568
Mof_O 	O 	0.78496	0.084	0.642	-0.535
Mof_O 	O 	0.73528	0.0285	0.15784	-0.694
Mof_O 	O 	0.64099	0.06255	0.09449	-0.717
Mof_O 	O 	0.68405	0.96618	0.20091	-0.696
Mof_O 	O 	0.66415	0.9315	0.07142	-0.772
Mof_O 	O 	0.79506	0.9536	0.2916	-0.576
Mof_O 	O 	0.79346	0.0684	0.3029	-0.515
Mof_Tb	Tb	0.60367	0.95427	0.08388	1.889
Mof_Tb	Tb	0.70624	0.08256	0.21613	2.199
Mof_Tb	Tb	0.67469	0.04063	0.03423	1.926
Mof_Tb	Tb	0.73756	0.90508	0.18367	1.915
Mof_C 	C 	0.9435	0.5485	0.5713	0.475
Mof_C 	C 	0.9908	0.5693	0.6402	-0.206
Mof_C 	C 	0.9989	0.639	0.6591	0.117
Mof_H 	H 	0.9745	0.6719	0.6307	-0.01
Mof_C 	C 	0.043	0.6589	0.7197	-0.187
Mof_H 	H 	0.0492	0.7054	0.7336	0.095
Mof_C 	C 	0.0781	0.6091	0.7598	0.111
Mof_H 	H 	0.1087	0.6235	0.8	-0.008
Mof_C 	C 	0.0275	0.5215	0.6854	0.108
Mof_C 	C 	0.0201	0.444	0.6751	0.101
Mof_C 	C 	0.9745	0.3514	0.6663	0.09
Mof_H 	H 	0.9469	0.3347	0.6603	-0.005
Mof_C 	C 	0.0067	0.3042	0.674	-0.187
Mof_H 	H 	0.0019	0.2567	0.6752	0.085
Mof_C 	C 	0.0466	0.3281	0.6798	0.105
Mof_H 	H 	0.0687	0.2967	0.6839	-0.013
Mof_C 	C 	0.0535	0.3995	0.6796	-0.208
Mof_C 	C 	0.0921	0.4254	0.6744	0.503
Mof_C 	C 	0.846	0.316	0.3126	0.523
Mof_C 	C 	0.8494	0.2608	0.2722	-0.224
Mof_C 	C 	0.8897	0.2181	0.3061	0.155
Mof_H 	H 	0.9164	0.2268	0.353	-0.03
Mof_C 	C 	0.8905	0.1633	0.2715	-0.221
Mof_H 	H 	0.9172	0.133	0.2945	0.102
Mof_C 	C 	0.852	0.1533	0.2032	0.124
Mof_H 	H 	0.8527	0.1147	0.1803	-0.015
Mof_C 	C 	0.8114	0.2491	0.2015	0.112
Mof_C 	C 	0.7685	0.2974	0.1561	0.102
Mof_C 	C 	0.7423	0.4066	0.1146	0.099
Mof_H 	H 	0.7495	0.4537	0.1162	0.009
Mof_C 	C 	0.6937	0.3865	0.0654	-0.182
Mof_H 	H 	0.6693	0.4187	0.0349	0.094
Mof_C 	C 	0.6832	0.3178	0.0637	0.115
Mof_H 	H 	0.6511	0.3017	0.0316	-0.016
Mof_C 	C 	0.7211	0.2722	0.1104	-0.204
Mof_C 	C 	0.7092	0.1971	0.1148	0.529
Mof_C 	C 	0.7772	0.6364	0.1612	0.348
Mof_C 	C 	0.7892	0.6684	0.1166	-0.13
Mof_C 	C 	0.8304	0.7099	0.1515	0.077
Mof_H 	H 	0.8464	0.7219	0.1986	0.002
Mof_C 	C 	0.8479	0.7333	0.1168	-0.164
Mof_H 	H 	0.8759	0.761	0.1398	0.085
Mof_C 	C 	0.8232	0.7151	0.0484	0.097
Mof_H 	H 	0.836	0.7297	0.0256	-0.013
Mof_C 	C 	0.7642	0.6544	0.0443	0.073
Mof_C 	C 	0.7159	0.6187	0.0007	0.12
Mof_C 	C 	0.644	0.601	0.985	0.113
Mof_H 	H 	0.6252	0.6068	0.0004	-0.006
Mof_C 	C 	0.6249	0.5651	0.9247	-0.203
Mof_H 	H 	0.5933	0.5467	0.8992	0.094
Mof_C 	C 	0.6515	0.5558	0.9011	0.135
Mof_H 	H 	0.6379	0.5322	0.8589	-0.02
Mof_C 	C 	0.6986	0.5814	0.94	-0.215
Mof_C 	C 	0.7291	0.563	0.9174	0.504
Mof_C 	C 	0.6844	0.5113	0.1805	0.504
Mof_C 	C 	0.6298	0.5091	0.1251	-0.218
Mof_C 	C 	0.6021	0.5682	0.0986	0.114
Mof_H 	H 	0.6174	0.6115	0.1142	-0.002
Mof_C 	C 	0.5517	0.5648	0.0493	-0.165
Mof_H 	H 	0.5338	0.606	0.0312	0.077
Mof_C 	C 	0.5276	0.5028	0.0262	0.067
Mof_C 	C 	0.5561	0.4435	0.0484	-0.163
Mof_H 	H 	0.5411	0.4005	0.0295	0.076
Mof_C 	C 	0.6071	0.447	0.0989	0.114
Mof_H 	H 	0.6257	0.4062	0.1145	-0.014
Mof_N 	N 	0.07106	0.5412	0.7449	-0.147
Mof_N 	N 	0.97997	0.4211	0.6668	-0.15
Mof_N 	N 	0.8124	0.1954	0.1657	-0.154
Mof_N 	N 	0.7794	0.3647	0.1595	-0.151
Mof_N 	N 	0.6891	0.6282	0.023	-0.145
Mof_N 	N 	0.782	0.6778	0.0112	-0.15
Mof_O 	O 	0.90538	0.5794	0.5538	-0.542
Mof_O 	O 	0.94508	0.5032	0.53451	-0.553
Mof_O 	O 	0.08081	0.4801	0.6378	-0.571
Mof_O 	O 	0.13147	0.3927	0.7039	-0.514
Mof_O 	O 	0.88367	0.3516	0.3554	-0.566
Mof_O 	O 	0.80546	0.3223	0.3017	-0.555
Mof_O 	O 	0.71628	0.1807	0.1704	-0.574
Mof_O 	O 	0.69344	0.1588	0.0625	-0.551
Mof_O 	O 	0.77213	0.6756	0.1986	-0.442
Mof_O 	O 	0.77833	0.5713	0.16766	-0.416
Mof_O 	O 	0.76616	0.5252	0.9594	-0.568
Mof_O 	O 	0.71504	0.584	0.858	-0.535
Mof_O 	O 	0.76472	0.5285	0.34216	-0.694
Mof_O 	O 	0.85901	0.56255	0.40551	-0.716
Mof_O 	O 	0.81595	0.46618	0.29909	-0.697
Mof_O 	O 	0.83585	0.4315	0.42858	-0.773
Mof_O 	O 	0.70494	0.4536	0.2084	-0.577
Mof_O 	O 	0.70654	0.5684	0.1971	-0.515
Mof_Tb	Tb	0.89633	0.45427	0.41612	1.885
Mof_Tb	Tb	0.79376	0.58256	0.28387	2.2
Mof_Tb	Tb	0.82531	0.54063	0.46576	1.93
Mof_Tb	Tb	0.76244	0.40508	0.31633	1.914
Mof_C 	C 	0.4435	0.0485	0.5713	0.475
Mof_C 	C 	0.4908	0.0693	0.6402	-0.206
Mof_C 	C 	0.4989	0.139	0.6591	0.119
Mof_H 	H 	0.4745	0.1719	0.6307	-0.011
Mof_C 	C 	0.543	0.1589	0.7197	-0.188
Mof_H 	H 	0.5492	0.2054	0.7336	0.095
Mof_C 	C 	0.5781	0.1091	0.7598	0.111
Mof_H 	H 	0.6087	0.1235	0.8	-0.008
Mof_C 	C 	0.5275	0.0215	0.6854	0.109
Mof_C 	C 	0.5201	0.944	0.6751	0.101
Mof_C 	C 	0.4745	0.8514	0.6663	0.09
Mof_H 	H 	0.4469	0.8347	0.6603	-0.006
Mof_C 	C 	0.5067	0.8042	0.674	-0.188
Mof_H 	H 	0.5019	0.7567	0.6752	0.085
Mof_C 	C 	0.5466	0.8281	0.6798	0.106
Mof_H 	H 	0.5687	0.7967	0.6839	-0.013
Mof_C 	C 	0.5535	0.8995	0.6796	-0.208
Mof_C 	C 	0.5921	0.9254	0.6744	0.503
Mof_C 	C 	0.346	0.816	0.3126	0.523
Mof_C 	C 	0.3494	0.7608	0.2722	-0.224
Mof_C 	C 	0.3897	0.7181	0.3061	0.155
Mof_H 	H 	0.4164	0.7268	0.353	-0.03
Mof_C 	C 	0.3905	0.6633	0.2715	-0.22
Mof_H 	H 	0.4172	0.633	0.2945	0.102
Mof_C 	C 	0.352	0.6533	0.2032	0.124
Mof_H 	H 	0.3527	0.6147	0.1803	-0.015
Mof_C 	C 	0.3114	0.7491	0.2015	0.112
Mof_C 	C 	0.2685	0.7974	0.1561	0.103
Mof_C 	C 	0.2423	0.9066	0.1146	0.099
Mof_H 	H 	0.2495	0.9537	0.1162	0.009
Mof_C 	C 	0.1937	0.8865	0.0654	-0.182
Mof_H 	H 	0.1693	0.9187	0.0349	0.094
Mof_C 	C 	0.1832	0.8178	0.0637	0.115
Mof_H 	H 	0.1511	0.8017	0.0316	-0.015
Mof_C 	C 	0.2211	0.7722	0.1104	-0.204
Mof_C 	C 	0.2092	0.6971	0.1148	0.529
Mof_C 	C 	0.2772	0.1364	0.1612	0.348
Mof_C 	C 	0.2892	0.1684	0.1166	-0.13
Mof_C 	C 	0.3304	0.2099	0.1515	0.077
Mof_H 	H 	0.3464	0.2219	0.1986	0.002
Mof_C 	C 	0.3479	0.2333	0.1168	-0.165
Mof_H 	H 	0.3759	0.261	0.1398	0.085
Mof_C 	C 	0.3232	0.2151	0.0484	0.097
Mof_H 	H 	0.336	0.2297	0.0256	-0.014
Mof_C 	C 	0.2642	0.1544	0.0443	0.073
Mof_C 	C 	0.2159	0.1187	0.0007	0.117
Mof_C 	C 	0.144	0.101	0.985	0.122
Mof_H 	H 	0.1252	0.1068	0.0004	-0.01
Mof_C 	C 	0.1249	0.0651	0.9247	-0.208
Mof_H 	H 	0.0933	0.0467	0.8992	0.097
Mof_C 	C 	0.1515	0.0558	0.9011	0.138
Mof_H 	H 	0.1379	0.0322	0.8589	-0.021
Mof_C 	C 	0.1986	0.0814	0.94	-0.213
Mof_C 	C 	0.2291	0.063	0.9174	0.504
Mof_C 	C 	0.1844	0.0113	0.1805	0.503
Mof_C 	C 	0.1298	0.0091	0.1251	-0.219
Mof_C 	C 	0.1021	0.0682	0.0986	0.114
Mof_H 	H 	0.1174	0.1115	0.1142	-0.002
Mof_C 	C 	0.0517	0.0648	0.0493	-0.165
Mof_H 	H 	0.0338	0.106	0.0312	0.076
Mof_C 	C 	0.0276	0.0028	0.0262	0.066
Mof_C 	C 	0.0561	0.9435	0.0484	-0.161
Mof_H 	H 	0.0411	0.9005	0.0295	0.076
Mof_C 	C 	0.1071	0.947	0.0989	0.115
Mof_H 	H 	0.1257	0.9062	0.1145	-0.014
Mof_N 	N 	0.57106	0.0412	0.7449	-0.147
Mof_N 	N 	0.47997	0.9211	0.6668	-0.149
Mof_N 	N 	0.3124	0.6954	0.1657	-0.154
Mof_N 	N 	0.2794	0.8647	0.1595	-0.151
Mof_N 	N 	0.1891	0.1282	0.023	-0.148
Mof_N 	N 	0.282	0.1778	0.0112	-0.151
Mof_O 	O 	0.40538	0.0794	0.5538	-0.542
Mof_O 	O 	0.44508	0.0032	0.53451	-0.553
Mof_O 	O 	0.58081	0.9801	0.6378	-0.571
Mof_O 	O 	0.63147	0.8927	0.7039	-0.514
Mof_O 	O 	0.38367	0.8516	0.3554	-0.566
Mof_O 	O 	0.30546	0.8223	0.3017	-0.555
Mof_O 	O 	0.21628	0.6807	0.1704	-0.575
Mof_O 	O 	0.19344	0.6588	0.0625	-0.551
Mof_O 	O 	0.27213	0.1756	0.1986	-0.442
Mof_O 	O 	0.27833	0.0713	0.16766	-0.416
Mof_O 	O 	0.26616	0.0252	0.9594	-0.566
Mof_O 	O 	0.21504	0.084	0.858	-0.535
Mof_O 	O 	0.26472	0.0285	0.34216	-0.694
Mof_O 	O 	0.35901	0.06255	0.40551	-0.716
Mof_O 	O 	0.31595	0.96618	0.29909	-0.696
Mof_O 	O 	0.33585	0.9315	0.42858	-0.773
Mof_O 	O 	0.20494	0.9536	0.2084	-0.576
Mof_O 	O 	0.20654	0.0684	0.1971	-0.515
Mof_Tb	Tb	0.39633	0.95427	0.41612	1.886
Mof_Tb	Tb	0.29376	0.08256	0.28387	2.199
Mof_Tb	Tb	0.32531	0.04063	0.46577	1.93
Mof_Tb	Tb	0.26244	0.90508	0.31633	1.914
_end
