data_functionalizedCrystal
_audit_creation_method	'EQeq! by Chris Wilmer'
_symmetry_space_group_name_H-M	'P1'
_symmetry_Int_Tables_number	1
_symmetry_cell_setting	triclinic
loop_
_symmetry_equiv_pos_as_xyz
  x,y,z
_cell_length_a	18.2943
_cell_length_b	18.2943
_cell_length_c	18.2943
_cell_angle_alpha	60
_cell_angle_beta	60
_cell_angle_gamma	60
loop_
_atom_site_label
_atom_site_type_symbol
_atom_site_fract_x
_atom_site_fract_y
_atom_site_fract_z
_atom_site_charge
Mof_Zn	Zn	0.2066	0.3802	0.2066	1.212
Mof_Zn	Zn	0.3802	0.2066	0.2066	1.212
Mof_Zn	Zn	0.2066	0.2066	0.2066	1.212
Mof_Zn	Zn	0.2066	0.2066	0.3802	1.212
Mof_Zn	Zn	0.6198	0.7934	0.7934	1.212
Mof_Zn	Zn	0.7934	0.6198	0.7934	1.212
Mof_Zn	Zn	0.7934	0.7934	0.7934	1.212
Mof_Zn	Zn	0.7934	0.7934	0.6198	1.212
Mof_H 	H 	0.0451	0.5655	0.0451	0.049
Mof_H 	H 	0.5655	0.0451	0.3443	0.049
Mof_H 	H 	0.0451	0.3443	0.0451	0.048
Mof_H 	H 	0.3443	0.0451	0.5655	0.048
Mof_H 	H 	0.0451	0.0451	0.3443	0.048
Mof_H 	H 	0.5655	0.3443	0.0451	0.048
Mof_H 	H 	0.0451	0.0451	0.5655	0.048
Mof_H 	H 	0.3443	0.5655	0.0451	0.048
Mof_H 	H 	0.0451	0.3443	0.5655	0.048
Mof_H 	H 	0.5655	0.0451	0.0451	0.048
Mof_H 	H 	0.0451	0.5655	0.3443	0.048
Mof_H 	H 	0.3443	0.0451	0.0451	0.048
Mof_H 	H 	0.4345	0.9549	0.9549	0.048
Mof_H 	H 	0.9549	0.4345	0.6557	0.048
Mof_H 	H 	0.6557	0.9549	0.9549	0.048
Mof_H 	H 	0.9549	0.6557	0.4345	0.048
Mof_H 	H 	0.9549	0.9549	0.6557	0.048
Mof_H 	H 	0.6557	0.4345	0.9549	0.048
Mof_H 	H 	0.9549	0.9549	0.4345	0.048
Mof_H 	H 	0.4345	0.6557	0.9549	0.048
Mof_H 	H 	0.6557	0.9549	0.4345	0.048
Mof_H 	H 	0.9549	0.4345	0.9549	0.048
Mof_H 	H 	0.4345	0.9549	0.6557	0.048
Mof_H 	H 	0.9549	0.6557	0.9549	0.048
Mof_C 	C 	0.02675	0.53889	0.02675	-0.014
Mof_C 	C 	0.53889	0.02675	0.40761	-0.014
Mof_C 	C 	0.02675	0.40761	0.02675	-0.014
Mof_C 	C 	0.40761	0.02675	0.53889	-0.014
Mof_C 	C 	0.02675	0.02675	0.40761	-0.014
Mof_C 	C 	0.53889	0.40761	0.02675	-0.014
Mof_C 	C 	0.02675	0.02675	0.53889	-0.014
Mof_C 	C 	0.40761	0.53889	0.02675	-0.014
Mof_C 	C 	0.02675	0.40761	0.53889	-0.014
Mof_C 	C 	0.53889	0.02675	0.02675	-0.014
Mof_C 	C 	0.02675	0.53889	0.40761	-0.014
Mof_C 	C 	0.40761	0.02675	0.02675	-0.014
Mof_C 	C 	0.46111	0.97325	0.97325	-0.014
Mof_C 	C 	0.97325	0.46111	0.59239	-0.014
Mof_C 	C 	0.59239	0.97325	0.97325	-0.014
Mof_C 	C 	0.97325	0.59239	0.46111	-0.014
Mof_C 	C 	0.97325	0.97325	0.59239	-0.014
Mof_C 	C 	0.59239	0.46111	0.97325	-0.014
Mof_C 	C 	0.97325	0.97325	0.46111	-0.014
Mof_C 	C 	0.46111	0.59239	0.97325	-0.014
Mof_C 	C 	0.59239	0.97325	0.46111	-0.014
Mof_C 	C 	0.97325	0.46111	0.97325	-0.014
Mof_C 	C 	0.46111	0.97325	0.59239	-0.014
Mof_C 	C 	0.97325	0.59239	0.97325	-0.014
Mof_C 	C 	0.11147	0.38853	0.11147	0.384
Mof_C 	C 	0.05374	0.44626	0.05374	-0.088
Mof_C 	C 	0.38853	0.11147	0.38853	0.384
Mof_C 	C 	0.44626	0.05374	0.44626	-0.088
Mof_C 	C 	0.11147	0.11147	0.38853	0.384
Mof_C 	C 	0.05374	0.05374	0.44626	-0.088
Mof_C 	C 	0.38853	0.38853	0.11147	0.384
Mof_C 	C 	0.44626	0.44626	0.05374	-0.088
Mof_C 	C 	0.11147	0.38853	0.38853	0.384
Mof_C 	C 	0.05374	0.44626	0.44626	-0.088
Mof_C 	C 	0.38853	0.11147	0.11147	0.384
Mof_C 	C 	0.44626	0.05374	0.05374	-0.088
Mof_C 	C 	0.61147	0.88853	0.88853	0.384
Mof_C 	C 	0.55374	0.94626	0.94626	-0.088
Mof_C 	C 	0.88853	0.61147	0.61147	0.384
Mof_C 	C 	0.94626	0.55374	0.55374	-0.088
Mof_C 	C 	0.88853	0.88853	0.61147	0.384
Mof_C 	C 	0.94626	0.94626	0.55374	-0.088
Mof_C 	C 	0.61147	0.61147	0.88853	0.384
Mof_C 	C 	0.55374	0.55374	0.94626	-0.088
Mof_C 	C 	0.61147	0.88853	0.61147	0.384
Mof_C 	C 	0.55374	0.94626	0.55374	-0.088
Mof_C 	C 	0.88853	0.61147	0.88853	0.384
Mof_C 	C 	0.94626	0.55374	0.94626	-0.088
Mof_O 	O 	0.25	0.25	0.25	-0.961
Mof_O 	O 	0.75	0.75	0.75	-0.961
Mof_O 	O 	0.13372	0.42764	0.13372	-0.506
Mof_O 	O 	0.42764	0.13372	0.30492	-0.506
Mof_O 	O 	0.13372	0.30492	0.13372	-0.506
Mof_O 	O 	0.30492	0.13372	0.42764	-0.506
Mof_O 	O 	0.13372	0.13372	0.30492	-0.506
Mof_O 	O 	0.42764	0.30492	0.13372	-0.506
Mof_O 	O 	0.13372	0.13372	0.42764	-0.506
Mof_O 	O 	0.30492	0.42764	0.13372	-0.506
Mof_O 	O 	0.13372	0.30492	0.42764	-0.506
Mof_O 	O 	0.42764	0.13372	0.13372	-0.506
Mof_O 	O 	0.13372	0.42764	0.30492	-0.506
Mof_O 	O 	0.30492	0.13372	0.13372	-0.506
Mof_O 	O 	0.57236	0.86628	0.86628	-0.506
Mof_O 	O 	0.86628	0.57236	0.69508	-0.506
Mof_O 	O 	0.69508	0.86628	0.86628	-0.506
Mof_O 	O 	0.86628	0.69508	0.57236	-0.506
Mof_O 	O 	0.86628	0.86628	0.69508	-0.506
Mof_O 	O 	0.69508	0.57236	0.86628	-0.506
Mof_O 	O 	0.86628	0.86628	0.57236	-0.506
Mof_O 	O 	0.57236	0.69508	0.86628	-0.506
Mof_O 	O 	0.69508	0.86628	0.57236	-0.506
Mof_O 	O 	0.86628	0.57236	0.86628	-0.506
Mof_O 	O 	0.57236	0.86628	0.69508	-0.506
Mof_O 	O 	0.86628	0.69508	0.86628	-0.506
_end
