data_functionalizedCrystal
_audit_creation_method	'EQeq! by Chris Wilmer'
_symmetry_space_group_name_H-M	'P1'
_symmetry_Int_Tables_number	1
_symmetry_cell_setting	triclinic
loop_
_symmetry_equiv_pos_as_xyz
  x,y,z
_cell_length_a	10.0841
_cell_length_b	30.4643
_cell_length_c	30.4643
_cell_angle_alpha	120
_cell_angle_beta	90
_cell_angle_gamma	90
loop_
_atom_site_label
_atom_site_type_symbol
_atom_site_fract_x
_atom_site_fract_y
_atom_site_fract_z
_atom_site_charge
Mof_Cd	Cd	0.69465	0.27222	0.16468	0.591
Mof_Cd	Cd	0.0387	0.20085	0.36535	0.382
Mof_Cd	Cd	0.69465	0.89246	0.72778	0.591
Mof_Cd	Cd	0.69489	0.30637	0.19996	0.269
Mof_Cd	Cd	0.0387	0.63465	0.8355	0.381
Mof_Cd	Cd	0.30511	0.10641	0.30637	0.268
Mof_Cd	Cd	0.30535	0.10754	0.27222	0.59
Mof_Cd	Cd	0.0248	0.63457	0.8132	0.228
Mof_Cd	Cd	0.69489	0.80004	0.10641	0.268
Mof_Cd	Cd	0.5125	0.33333	0.66666	0.166
Mof_Cd	Cd	0.30511	0.69363	0.80004	0.268
Mof_Cd	Cd	0.0387	0.1645	0.79915	0.381
Mof_Cd	Cd	0.433	0.33333	0.66666	0.342
Mof_Cd	Cd	0.9752	0.36543	0.1868	0.228
Mof_Cd	Cd	0.30535	0.72778	0.83532	0.59
Mof_Cd	Cd	0.0248	0.17863	0.36543	0.228
Mof_Cd	Cd	0.0248	0.1868	0.82137	0.228
Mof_Cd	Cd	0.69465	0.83532	0.10754	0.59
Mof_Cd	Cd	0.9613	0.8355	0.20085	0.381
Mof_Cd	Cd	0.4875	0.66667	0.33334	0.166
Mof_Cd	Cd	0.9752	0.82137	0.63457	0.228
Mof_Cd	Cd	0.9752	0.8132	0.17863	0.228
Mof_Cd	Cd	0.9613	0.79915	0.63465	0.381
Mof_Cd	Cd	0.9613	0.36535	0.1645	0.381
Mof_Cd	Cd	0.30511	0.19996	0.89359	0.268
Mof_Cd	Cd	0.69489	0.89359	0.69363	0.268
Mof_Cd	Cd	0.567	0.66667	0.33334	0.342
Mof_Cd	Cd	0.30535	0.16468	0.89246	0.59
Mof_H 	H 	0.2125	0.8085	0.0999	0.096
Mof_H 	H 	0.7742	0.1066	0.3074	-0.015
Mof_H 	H 	0.6626	0.5082	0.2414	0.008
Mof_H 	H 	0.7222	0.2319	0.7272	0.077
Mof_H 	H 	0.001	0.8002	0.7742	0.069
Mof_H 	H 	0.2258	0.3074	0.2008	-0.016
Mof_H 	H 	0.2258	0.7992	0.1066	-0.015
Mof_H 	H 	0.6626	0.7586	0.2668	0.008
Mof_H 	H 	0.7875	0.0999	0.2914	0.096
Mof_H 	H 	0.0074	0.0191	0.7305	0.084
Mof_H 	H 	0.391	0.7426	0.9674	0.05
Mof_H 	H 	0.7875	0.1915	0.9001	0.096
Mof_H 	H 	0.999	0.1998	0.2258	0.069
Mof_H 	H 	0.3374	0.2414	0.7332	0.008
Mof_H 	H 	0.664	0.767	0.5026	0.093
Mof_H 	H 	0.336	0.2644	0.767	0.093
Mof_H 	H 	0.7222	0.2728	0.5047	0.077
Mof_H 	H 	0.5599	0.1985	0.8287	-0.036
Mof_H 	H 	0.3999	0.0337	0.7973	0.041
Mof_H 	H 	0.2778	0.5047	0.2319	0.077
Mof_H 	H 	0.5599	0.6302	0.8015	-0.036
Mof_H 	H 	0.2125	0.2914	0.1915	0.096
Mof_H 	H 	0.609	0.2574	0.0326	0.05
Mof_H 	H 	0.2778	0.7272	0.4953	0.077
Mof_H 	H 	0.9926	0.7305	0.7114	0.084
Mof_H 	H 	0.4628	0.8099	0.1825	0.123
Mof_H 	H 	0.0074	0.2695	0.2886	0.084
Mof_H 	H 	0.5599	0.1713	0.3698	-0.036
Mof_H 	H 	0.609	0.9674	0.2248	0.05
Mof_H 	H 	0.336	0.233	0.4974	0.093
Mof_H 	H 	0.664	0.4974	0.2644	0.093
Mof_H 	H 	0.2778	0.7681	0.2728	0.077
Mof_H 	H 	0.5372	0.1901	0.8175	0.123
Mof_H 	H 	0.7742	0.6926	0.7992	-0.016
Mof_H 	H 	0.6001	0.7973	0.7636	0.041
Mof_H 	H 	0.999	0.026	0.8002	0.07
Mof_H 	H 	0.4401	0.8015	0.1713	-0.036
Mof_H 	H 	0.7222	0.4953	0.7681	0.077
Mof_H 	H 	0.3999	0.2027	0.2364	0.041
Mof_H 	H 	0.391	0.2248	0.2574	0.05
Mof_H 	H 	0.664	0.7356	0.233	0.093
Mof_H 	H 	0.4628	0.3726	0.1901	0.123
Mof_H 	H 	0.4401	0.8287	0.6302	-0.036
Mof_H 	H 	0.0074	0.7114	0.9809	0.084
Mof_H 	H 	0.001	0.2258	0.026	0.069
Mof_H 	H 	0.4628	0.8175	0.6274	0.123
Mof_H 	H 	0.7742	0.2008	0.8934	-0.015
Mof_H 	H 	0.6001	0.2364	0.0337	0.041
Mof_H 	H 	0.2258	0.8934	0.6926	-0.015
Mof_H 	H 	0.5372	0.1825	0.3726	0.123
Mof_H 	H 	0.609	0.7752	0.7426	0.05
Mof_H 	H 	0.6626	0.7332	0.4918	0.008
Mof_H 	H 	0.7875	0.7086	0.8085	0.096
Mof_H 	H 	0.336	0.5026	0.7356	0.093
Mof_H 	H 	0.001	0.974	0.1998	0.07
Mof_H 	H 	0.4401	0.3698	0.1985	-0.036
Mof_H 	H 	0.9926	0.9809	0.2695	0.084
Mof_H 	H 	0.3374	0.2668	0.5082	0.008
Mof_H 	H 	0.6001	0.9663	0.2027	0.041
Mof_H 	H 	0.9926	0.2886	0.0191	0.084
Mof_H 	H 	0.391	0.0326	0.7752	0.05
Mof_H 	H 	0.2125	0.9001	0.7086	0.096
Mof_H 	H 	0.999	0.7742	0.974	0.069
Mof_H 	H 	0.3999	0.7636	0.9663	0.041
Mof_H 	H 	0.3374	0.4918	0.7586	0.008
Mof_H 	H 	0.5372	0.6274	0.8099	0.123
Mof_C 	C 	0.8025	0.7567	0.7225	-0.01
Mof_C 	C 	0.5516	0.5947	0.788	-0.03
Mof_C 	C 	0.9759	0.3121	0.2316	0.276
Mof_C 	C 	0.8014	0.8044	0.7664	-0.073
Mof_C 	C 	0.5814	0.77	0.5189	-0.142
Mof_C 	C 	0.6798	0.7857	0.7711	0.058
Mof_C 	C 	0.4484	0.788	0.1933	-0.03
Mof_C 	C 	0.7911	0.2022	0.9353	-0.047
Mof_C 	C 	0.9759	0.7684	0.0805	0.276
Mof_C 	C 	0.9111	0.7314	0.7275	-0.011
Mof_C 	C 	0.6602	0.2214	0.4335	-0.045
Mof_C 	C 	0.4739	0.5678	0.2759	0.278
Mof_C 	C 	0.6923	0.8341	0.6057	0.538
Mof_C 	C 	0.4728	0.7487	0.258	-0.039
Mof_C 	C 	0.9006	0.2439	0.9515	-0.039
Mof_C 	C 	0.2186	0.9292	0.7089	0.047
Mof_C 	C 	0.959	0.2603	0.1893	0.279
Mof_C 	C 	0.6728	0.0405	0.2658	-0.013
Mof_C 	C 	0.712	0.8034	0.213	0.087
Mof_C 	C 	0.648	0.5145	0.7682	0.001
Mof_C 	C 	0.352	0.7463	0.5145	0.001
Mof_C 	C 	0.8014	0.2336	0.038	-0.073
Mof_C 	C 	0.2124	0.8062	0.2144	0.285
Mof_C 	C 	0.9127	0.2069	0.9587	-0.032
Mof_C 	C 	0.648	0.2537	0.4855	0.001
Mof_C 	C 	0.5272	0.2513	0.742	-0.039
Mof_C 	C 	0.6746	0.2132	0.9632	-0.022
Mof_C 	C 	0.2124	0.7856	0.5918	0.285
Mof_C 	C 	0.1848	0.0942	0.8385	0.322
Mof_C 	C 	0.5814	0.7749	0.5647	0.129
Mof_C 	C 	0.288	0.213	0.4096	0.087
Mof_C 	C 	0.0873	0.7931	0.0413	-0.032
Mof_C 	C 	0.3077	0.6057	0.7716	0.538
Mof_C 	C 	0.539	0.2021	0.7941	0.037
Mof_C 	C 	0.0241	0.6879	0.7684	0.276
Mof_C 	C 	0.9006	0.7076	0.7561	-0.04
Mof_C 	C 	0.3077	0.1659	0.3943	0.538
Mof_C 	C 	0.0889	0.7275	0.9961	-0.011
Mof_C 	C 	0.6923	0.3943	0.2284	0.538
Mof_C 	C 	0.3398	0.7786	0.5665	-0.045
Mof_C 	C 	0.1986	0.038	0.8044	-0.073
Mof_C 	C 	0.5516	0.1933	0.4053	-0.03
Mof_C 	C 	0.1885	0.6914	0.9102	0.258
Mof_C 	C 	0.2186	0.2911	0.2203	0.047
Mof_C 	C 	0.0889	0.0039	0.7314	-0.011
Mof_C 	C 	0.4308	0.5709	0.7685	-0.177
Mof_C 	C 	0.7876	0.5918	0.8062	0.285
Mof_C 	C 	0.7876	0.1938	0.7856	0.285
Mof_C 	C 	0.9111	0.2725	0.0039	-0.011
Mof_C 	C 	0.539	0.592	0.7979	0.037
Mof_C 	C 	0.3272	0.2658	0.2253	-0.013
Mof_C 	C 	0.9111	0.9961	0.2686	-0.011
Mof_C 	C 	0.4728	0.742	0.4907	-0.039
Mof_C 	C 	0.416	0.2361	0.7469	0.109
Mof_C 	C 	0.712	0.787	0.5904	0.087
Mof_C 	C 	0.3202	0.0146	0.7857	0.058
Mof_C 	C 	0.4186	0.23	0.4811	-0.142
Mof_C 	C 	0.6746	0.0368	0.25	-0.022
Mof_C 	C 	0.352	0.4855	0.2318	0.001
Mof_C 	C 	0.0873	0.2482	0.2069	-0.032
Mof_C 	C 	0.5427	0.0626	0.2645	0.307
Mof_C 	C 	0.7814	0.7089	0.7797	0.047
Mof_C 	C 	0.5516	0.212	0.8067	-0.03
Mof_C 	C 	0.0889	0.2686	0.2725	-0.011
Mof_C 	C 	0.461	0.7941	0.592	0.037
Mof_C 	C 	0.416	0.5108	0.7639	0.109
Mof_C 	C 	0.3254	0.7868	0.0368	-0.022
Mof_C 	C 	0.9127	0.7518	0.7931	-0.032
Mof_C 	C 	0.6602	0.2121	0.7786	-0.045
Mof_C 	C 	0.041	0.7397	0.8107	0.279
Mof_C 	C 	0.584	0.7639	0.2531	0.109
Mof_C 	C 	0.288	0.5904	0.8034	0.087
Mof_C 	C 	0.8152	0.9058	0.1615	0.322
Mof_C 	C 	0.5272	0.258	0.5093	-0.039
Mof_C 	C 	0.9179	0.2226	0.01	0.01
Mof_C 	C 	0.4739	0.7241	0.2919	0.278
Mof_C 	C 	0.041	0.071	0.2603	0.278
Mof_C 	C 	0.3167	0.7461	0.9881	-0.043
Mof_C 	C 	0.0241	0.0805	0.3121	0.276
Mof_C 	C 	0.8014	0.962	0.1956	-0.073
Mof_C 	C 	0.6728	0.2253	0.9595	-0.013
Mof_C 	C 	0.539	0.2059	0.408	0.037
Mof_C 	C 	0.9179	0.7874	0.7774	0.01
Mof_C 	C 	0.4573	0.7981	0.0626	0.307
Mof_C 	C 	0.461	0.408	0.2021	0.037
Mof_C 	C 	0.8025	0.2775	0.0342	-0.009
Mof_C 	C 	0.461	0.7979	0.2059	0.037
Mof_C 	C 	0.4186	0.2251	0.4353	0.129
Mof_C 	C 	0.4186	0.5189	0.7489	-0.142
Mof_C 	C 	0.3272	0.7747	0.0405	-0.013
Mof_C 	C 	0.5427	0.7355	0.7981	0.307
Mof_C 	C 	0.6923	0.7716	0.1659	0.538
Mof_C 	C 	0.648	0.2318	0.7463	0.001
Mof_C 	C 	0.5814	0.7489	0.23	-0.142
Mof_C 	C 	0.5814	0.4353	0.2102	0.129
Mof_C 	C 	0.5427	0.2019	0.9374	0.307
Mof_C 	C 	0.352	0.7682	0.2537	0.001
Mof_C 	C 	0.8115	0.9102	0.2188	0.258
Mof_C 	C 	0.5814	0.7898	0.2251	0.129
Mof_C 	C 	0.959	0.929	0.7397	0.278
Mof_C 	C 	0.6602	0.5665	0.7879	-0.045
Mof_C 	C 	0.7814	0.0708	0.2911	0.047
Mof_C 	C 	0.6728	0.7342	0.7747	-0.013
Mof_C 	C 	0.5261	0.2919	0.5678	0.278
Mof_C 	C 	0.2089	0.2669	0.2022	-0.047
Mof_C 	C 	0.1975	0.2433	0.2775	-0.01
Mof_C 	C 	0.0994	0.2924	0.2439	-0.04
Mof_C 	C 	0.6798	0.9854	0.2143	0.058
Mof_C 	C 	0.3254	0.9632	0.75	-0.022
Mof_C 	C 	0.8025	0.9658	0.2433	-0.009
Mof_C 	C 	0.4573	0.2645	0.2019	0.307
Mof_C 	C 	0.9759	0.9195	0.6879	0.276
Mof_C 	C 	0.5692	0.4291	0.2315	-0.177
Mof_C 	C 	0.712	0.4096	0.1966	0.087
Mof_C 	C 	0.584	0.4892	0.2361	0.109
Mof_C 	C 	0.2124	0.4082	0.1938	0.285
Mof_C 	C 	0.7911	0.7331	0.7978	-0.047
Mof_C 	C 	0.5272	0.4907	0.7487	-0.039
Mof_C 	C 	0.7814	0.2203	0.9292	0.047
Mof_C 	C 	0.8115	0.7812	0.6914	0.258
Mof_C 	C 	0.584	0.7469	0.5108	0.109
Mof_C 	C 	0.8152	0.8385	0.7443	0.322
Mof_C 	C 	0.4308	0.2315	0.8024	-0.177
Mof_C 	C 	0.4186	0.2511	0.77	-0.142
Mof_C 	C 	0.9179	0.99	0.2126	0.009
Mof_C 	C 	0.4186	0.2102	0.7749	0.129
Mof_C 	C 	0.5814	0.4811	0.2511	-0.142
Mof_C 	C 	0.4728	0.5093	0.2513	-0.039
Mof_C 	C 	0.3202	0.2143	0.2289	0.058
Mof_C 	C 	0.0821	0.7774	0.99	0.01
Mof_C 	C 	0.1885	0.2188	0.3086	0.258
Mof_C 	C 	0.4484	0.4053	0.212	-0.03
Mof_C 	C 	0.4308	0.1976	0.4291	-0.177
Mof_C 	C 	0.3272	0.9595	0.7342	-0.013
Mof_C 	C 	0.3167	0.242	0.2539	-0.043
Mof_C 	C 	0.2089	0.7978	0.0647	-0.047
Mof_C 	C 	0.5261	0.4322	0.7241	0.278
Mof_C 	C 	0.6798	0.2289	0.0146	0.058
Mof_C 	C 	0.0821	0.01	0.7874	0.009
Mof_C 	C 	0.6833	0.9881	0.242	-0.043
Mof_C 	C 	0.6833	0.2539	0.0119	-0.043
Mof_C 	C 	0.1975	0.7225	0.9658	-0.009
Mof_C 	C 	0.959	0.8107	0.071	0.278
Mof_C 	C 	0.416	0.2531	0.4892	0.109
Mof_C 	C 	0.1848	0.7443	0.9058	0.322
Mof_C 	C 	0.2089	0.9353	0.7331	-0.047
Mof_C 	C 	0.9006	0.0485	0.2924	-0.04
Mof_C 	C 	0.5692	0.8024	0.5709	-0.177
Mof_C 	C 	0.1975	0.0342	0.7567	-0.009
Mof_C 	C 	0.8152	0.2557	0.0942	0.322
Mof_C 	C 	0.5692	0.7685	0.1976	-0.177
Mof_C 	C 	0.1986	0.7664	0.962	-0.073
Mof_C 	C 	0.0241	0.2316	0.9195	0.276
Mof_C 	C 	0.7911	0.0647	0.2669	-0.047
Mof_C 	C 	0.3398	0.4335	0.2121	-0.045
Mof_C 	C 	0.0821	0.2126	0.2226	0.01
Mof_C 	C 	0.3254	0.25	0.2132	-0.022
Mof_C 	C 	0.3398	0.7879	0.2214	-0.045
Mof_C 	C 	0.4739	0.7081	0.4322	0.278
Mof_C 	C 	0.4484	0.8067	0.5947	-0.03
Mof_C 	C 	0.4186	0.5647	0.7898	0.129
Mof_C 	C 	0.0873	0.9587	0.7518	-0.032
Mof_C 	C 	0.6833	0.758	0.7461	-0.043
Mof_C 	C 	0.1885	0.0898	0.7812	0.258
Mof_C 	C 	0.9127	0.0413	0.2482	-0.032
Mof_C 	C 	0.041	0.1893	0.929	0.278
Mof_C 	C 	0.288	0.1966	0.787	0.087
Mof_C 	C 	0.1986	0.1956	0.2336	-0.073
Mof_C 	C 	0.1848	0.1615	0.2557	0.322
Mof_C 	C 	0.5261	0.2759	0.7081	0.278
Mof_C 	C 	0.3202	0.7711	0.9854	0.058
Mof_C 	C 	0.3077	0.2284	0.8341	0.538
Mof_C 	C 	0.6746	0.75	0.7868	-0.022
Mof_C 	C 	0.7876	0.2144	0.4082	0.285
Mof_C 	C 	0.4573	0.9374	0.7355	0.307
Mof_C 	C 	0.2186	0.7797	0.0708	0.047
Mof_C 	C 	0.0994	0.9515	0.7076	-0.04
Mof_C 	C 	0.8115	0.3086	0.0898	0.258
Mof_C 	C 	0.3167	0.0119	0.758	-0.043
Mof_C 	C 	0.0994	0.7561	0.0485	-0.039
Mof_O 	O 	0.321	0.6088	0.7173	-0.058
Mof_O 	O 	0.6817	0.7701	0.1299	-0.408
Mof_O 	O 	0.8143	0.7794	0.5687	0.001
Mof_O 	O 	0.9869	0.3509	0.2293	-0.251
Mof_O 	O 	0.9314	0.3703	0.092	-0.073
Mof_O 	O 	0.679	0.8915	0.6088	-0.058
Mof_O 	O 	0.7109	0.8289	0.1926	-0.21
Mof_O 	O 	0.1081	0.7962	0.2324	-0.224
Mof_O 	O 	0.3751	0.7244	0.3161	-0.224
Mof_O 	O 	0.7957	0.639	0.8316	-0.228
Mof_O 	O 	0.1987	0.5856	0.7742	-0.31
Mof_O 	O 	0.0387	0.1628	0.8833	-0.216
Mof_O 	O 	0.555	0.9659	0.7596	-0.364
Mof_O 	O 	0.0753	0.7194	0.8834	-0.185
Mof_O 	O 	0.6817	0.8701	0.6402	-0.408
Mof_O 	O 	0.5377	0.1105	0.2729	-0.092
Mof_O 	O 	0.6249	0.4083	0.7244	-0.224
Mof_O 	O 	0.563	0.9639	0.7408	0.127
Mof_O 	O 	0.7202	0.8821	0.1916	-0.188
Mof_O 	O 	0.7202	0.8084	0.6905	-0.188
Mof_O 	O 	0.4623	0.8895	0.7271	-0.092
Mof_O 	O 	0.445	0.0341	0.2404	-0.364
Mof_O 	O 	0.0131	0.1216	0.3509	-0.251
Mof_O 	O 	0.69	0.91	0.108	-0.052
Mof_O 	O 	0.321	0.2827	0.8915	-0.058
Mof_O 	O 	0.31	0.09	0.892	-0.052
Mof_O 	O 	0.7109	0.8074	0.6363	-0.21
Mof_O 	O 	0.8013	0.4144	0.2258	-0.31
Mof_O 	O 	0.9247	0.836	0.7194	-0.185
Mof_O 	O 	0.2891	0.1711	0.8074	-0.21
Mof_O 	O 	0.9314	0.908	0.2783	-0.073
Mof_O 	O 	0.4625	0.8934	0.7002	-0.188
Mof_O 	O 	0.4623	0.2729	0.1624	-0.092
Mof_O 	O 	0.018	0.7304	0.1055	-0.027
Mof_O 	O 	0.4625	0.8068	0.1066	-0.188
Mof_O 	O 	0.555	0.7937	0.0341	-0.364
Mof_O 	O 	0.7202	0.3095	0.1179	-0.188
Mof_O 	O 	0.563	0.2592	0.2231	0.127
Mof_O 	O 	0.69	0.198	0.09	-0.052
Mof_O 	O 	0.5377	0.7271	0.8376	-0.092
Mof_O 	O 	0.1281	0.7083	0.766	-0.223
Mof_O 	O 	0.8571	0.9501	0.7552	-0.2
Mof_O 	O 	0.445	0.2063	0.9659	-0.364
Mof_O 	O 	0.8919	0.2324	0.4362	-0.224
Mof_O 	O 	0.1857	0.5687	0.7893	0.001
Mof_O 	O 	0.2798	0.6905	0.8821	-0.188
Mof_O 	O 	0.0686	0.6297	0.908	-0.073
Mof_O 	O 	0.3751	0.6839	0.4083	-0.224
Mof_O 	O 	0.0131	0.2293	0.8784	-0.251
Mof_O 	O 	0.3183	0.1299	0.3598	-0.408
Mof_O 	O 	0.7117	0.2542	0.1193	-0.423
Mof_O 	O 	0.0686	0.092	0.7217	-0.073
Mof_O 	O 	0.2798	0.1916	0.3095	-0.188
Mof_O 	O 	0.018	0.8945	0.6249	-0.027
Mof_O 	O 	0.7109	0.3637	0.1711	-0.21
Mof_O 	O 	0.6249	0.2756	0.6839	-0.224
Mof_O 	O 	0.2043	0.361	0.1684	-0.228
Mof_O 	O 	0.0753	0.1166	0.836	-0.185
Mof_O 	O 	0.1429	0.1949	0.9501	-0.2
Mof_O 	O 	0.0809	0.6667	0.8937	-0.253
Mof_O 	O 	0.2883	0.7458	0.8807	-0.423
Mof_O 	O 	0.0809	0.227	0.3333	-0.253
Mof_O 	O 	0.4164	0.2999	0.7118	-0.255
Mof_O 	O 	0.7957	0.1926	0.361	-0.228
Mof_O 	O 	0.437	0.0361	0.2592	0.127
Mof_O 	O 	0.8719	0.2917	0.234	-0.223
Mof_O 	O 	0.018	0.3751	0.2696	-0.027
Mof_O 	O 	0.5836	0.5881	0.2999	-0.255
Mof_O 	O 	0.1429	0.7552	0.8051	-0.2
Mof_O 	O 	0.8143	0.4313	0.2107	0.001
Mof_O 	O 	0.563	0.7769	0.0361	0.127
Mof_O 	O 	0.2043	0.8316	0.1926	-0.228
Mof_O 	O 	0.437	0.7408	0.7769	0.127
Mof_O 	O 	0.0387	0.7205	0.8372	-0.216
Mof_O 	O 	0.2798	0.1179	0.8084	-0.188
Mof_O 	O 	0.8919	0.2038	0.7676	-0.224
Mof_O 	O 	0.555	0.2404	0.2063	-0.364
Mof_O 	O 	0.5375	0.1932	0.8934	-0.188
Mof_O 	O 	0.0686	0.2783	0.3703	-0.073
Mof_O 	O 	0.8719	0.766	0.0577	-0.223
Mof_O 	O 	0.8013	0.8114	0.5856	-0.31
Mof_O 	O 	0.9247	0.2806	0.1166	-0.185
Mof_O 	O 	0.8571	0.2448	0.1949	-0.2
Mof_O 	O 	0.31	0.108	0.198	-0.052
Mof_O 	O 	0.5836	0.7118	0.4119	-0.255
Mof_O 	O 	0.2043	0.8074	0.639	-0.228
Mof_O 	O 	0.7117	0.8807	0.1349	-0.423
Mof_O 	O 	0.8013	0.7742	0.1886	-0.31
Mof_O 	O 	0.9869	0.7707	0.1216	-0.251
Mof_O 	O 	0.9314	0.7217	0.6297	-0.073
Mof_O 	O 	0.1081	0.4362	0.2038	-0.224
Mof_O 	O 	0.2883	0.1349	0.2542	-0.423
Mof_O 	O 	0.1429	0.0499	0.2448	-0.2
Mof_O 	O 	0.321	0.1085	0.3912	-0.058
Mof_O 	O 	0.8719	0.9423	0.7083	-0.223
Mof_O 	O 	0.9613	0.8372	0.1167	-0.216
Mof_O 	O 	0.9869	0.8784	0.6491	-0.251
Mof_O 	O 	0.9191	0.773	0.6667	-0.253
Mof_O 	O 	0.9191	0.8937	0.227	-0.253
Mof_O 	O 	0.6817	0.3598	0.2299	-0.408
Mof_O 	O 	0.9191	0.3333	0.1063	-0.253
Mof_O 	O 	0.679	0.7173	0.1085	-0.058
Mof_O 	O 	0.4625	0.2998	0.1932	-0.188
Mof_O 	O 	0.1857	0.2206	0.4313	0.001
Mof_O 	O 	0.1281	0.234	0.9423	-0.223
Mof_O 	O 	0.1857	0.2107	0.7794	0.001
Mof_O 	O 	0.982	0.6249	0.7304	-0.027
Mof_O 	O 	0.4164	0.2882	0.5881	-0.255
Mof_O 	O 	0.3183	0.2299	0.8701	-0.408
Mof_O 	O 	0.679	0.3912	0.2827	-0.058
Mof_O 	O 	0.5377	0.1624	0.8895	-0.092
Mof_O 	O 	0.8143	0.7893	0.2206	0.001
Mof_O 	O 	0.7957	0.1684	0.8074	-0.228
Mof_O 	O 	0.5375	0.1066	0.2998	-0.188
Mof_O 	O 	0.982	0.1055	0.3751	-0.027
Mof_O 	O 	0.8919	0.5638	0.7962	-0.224
Mof_O 	O 	0.4623	0.8376	0.1105	-0.092
Mof_O 	O 	0.5836	0.7001	0.2882	-0.255
Mof_O 	O 	0.4164	0.4119	0.7001	-0.255
Mof_O 	O 	0.0387	0.1167	0.2795	-0.216
Mof_O 	O 	0.31	0.802	0.91	-0.052
Mof_O 	O 	0.437	0.2231	0.9639	0.127
Mof_O 	O 	0.1987	0.1886	0.4144	-0.31
Mof_O 	O 	0.1281	0.0577	0.2917	-0.223
Mof_O 	O 	0.0809	0.1063	0.773	-0.253
Mof_O 	O 	0.1081	0.7676	0.5638	-0.224
Mof_O 	O 	0.3183	0.6402	0.7701	-0.408
Mof_O 	O 	0.1987	0.2258	0.8114	-0.31
Mof_O 	O 	0.445	0.7596	0.7937	-0.364
Mof_O 	O 	0.9613	0.8833	0.7205	-0.216
Mof_O 	O 	0.982	0.2696	0.8945	-0.027
Mof_O 	O 	0.69	0.892	0.802	-0.052
Mof_O 	O 	0.8571	0.8051	0.0499	-0.2
Mof_O 	O 	0.5375	0.7002	0.8068	-0.188
Mof_O 	O 	0.7117	0.8651	0.7458	-0.423
Mof_O 	O 	0.2891	0.1926	0.3637	-0.21
Mof_O 	O 	0.9613	0.2795	0.1628	-0.216
Mof_O 	O 	0.3751	0.5917	0.2756	-0.224
Mof_O 	O 	0.2891	0.6363	0.8289	-0.21
Mof_O 	O 	0.9247	0.8834	0.164	-0.185
Mof_O 	O 	0.0753	0.164	0.2806	-0.185
Mof_O 	O 	0.2883	0.1193	0.8651	-0.423
Mof_O 	O 	0.6249	0.3161	0.5917	-0.224
Mof_O 	O 	0.0131	0.6491	0.7707	-0.251
_end
