data_functionalizedCrystal
_audit_creation_method	'EQeq! by Chris Wilmer'
_symmetry_space_group_name_H-M	'P1'
_symmetry_Int_Tables_number	1
_symmetry_cell_setting	triclinic
loop_
_symmetry_equiv_pos_as_xyz
  x,y,z
_cell_length_a	24.799
_cell_length_b	13.263
_cell_length_c	14.971
_cell_angle_alpha	90
_cell_angle_beta	96.635
_cell_angle_gamma	90
loop_
_atom_site_label
_atom_site_type_symbol
_atom_site_fract_x
_atom_site_fract_y
_atom_site_fract_z
_atom_site_charge
Mof_C 	C 	0.2495	0.9338	0.9261	0.431
Mof_C 	C 	0.2149	0.007	0.8696	-0.183
Mof_C 	C 	0.2367	0.0567	0.7995	0.107
Mof_H 	H 	0.2722	0.0436	0.7887	0.001
Mof_C 	C 	0.2059	0.1244	0.7469	-0.184
Mof_C 	C 	0.1535	0.1465	0.7656	0.059
Mof_H 	H 	0.1327	0.1929	0.73	0.021
Mof_C 	C 	0.1316	0.1004	0.8367	-0.09
Mof_C 	C 	0.1622	0.0276	0.8861	0.051
Mof_H 	H 	0.1471	0.9922	0.9308	0.007
Mof_C 	C 	0.2274	0.1738	0.6665	0.487
Mof_C 	C 	0.0774	0.1312	0.8604	0.109
Mof_C 	C 	0.0616	0.2322	0.8544	-0.155
Mof_H 	H 	0.0841	0.2794	0.8317	0.079
Mof_C 	C 	0.0127	0.2631	0.8819	0.061
Mof_H 	H 	0.0023	0.3304	0.8763	0.007
Mof_C 	C 	0.9793	0.1939	0.9177	-0.133
Mof_C 	C 	0.9937	0.0941	0.9214	0.066
Mof_H 	H 	0.9707	0.0468	0.9428	0.015
Mof_C 	C 	0.0428	0.0632	0.8934	-0.161
Mof_H 	H 	0.0523	0.9953	0.897	0.083
Mof_C 	C 	0.9297	0.2284	0.9574	0.333
Mof_La	La	0.32989	0.79215	0.03064	1.944
Mof_O 	O 	0.29936	0.9466	0.9363	-0.465
Mof_O 	O 	0.22684	0.8602	0.9618	-0.576
Mof_O 	O 	0.27489	0.1514	0.6523	-0.529
Mof_O 	O 	0.19728	0.2347	0.6236	-0.507
Mof_O 	O 	0.91598	0.3193	0.9533	-0.437
Mof_O 	O 	0.90199	0.1632	0.9937	-0.43
Mof_C 	C 	0.7495	0.4338	0.9261	0.43
Mof_C 	C 	0.7149	0.507	0.8696	-0.183
Mof_C 	C 	0.7367	0.5567	0.7995	0.105
Mof_H 	H 	0.7722	0.5436	0.7887	0.001
Mof_C 	C 	0.7059	0.6244	0.7469	-0.185
Mof_C 	C 	0.6535	0.6465	0.7656	0.057
Mof_H 	H 	0.6327	0.6929	0.73	0.021
Mof_C 	C 	0.6316	0.6004	0.8367	-0.09
Mof_C 	C 	0.6622	0.5276	0.8861	0.05
Mof_H 	H 	0.6471	0.4922	0.9308	0.006
Mof_C 	C 	0.7274	0.6738	0.6665	0.486
Mof_C 	C 	0.5774	0.6312	0.8604	0.107
Mof_C 	C 	0.5616	0.7322	0.8544	-0.155
Mof_H 	H 	0.5841	0.7794	0.8317	0.079
Mof_C 	C 	0.5127	0.7631	0.8819	0.063
Mof_H 	H 	0.5023	0.8304	0.8763	0.007
Mof_C 	C 	0.4793	0.6939	0.9177	-0.134
Mof_C 	C 	0.4937	0.5941	0.9214	0.063
Mof_H 	H 	0.4707	0.5468	0.9428	0.016
Mof_C 	C 	0.5428	0.5632	0.8934	-0.156
Mof_H 	H 	0.5523	0.4953	0.897	0.081
Mof_C 	C 	0.4297	0.7284	0.9574	0.334
Mof_La	La	0.82989	0.29215	0.03064	1.941
Mof_O 	O 	0.79936	0.4466	0.9363	-0.464
Mof_O 	O 	0.72684	0.3602	0.9618	-0.575
Mof_O 	O 	0.77489	0.6514	0.6523	-0.529
Mof_O 	O 	0.69728	0.7347	0.6236	-0.507
Mof_O 	O 	0.41598	0.8193	0.9533	-0.438
Mof_O 	O 	0.40199	0.6632	0.9937	-0.431
Mof_C 	C 	0.7505	0.9338	0.5739	0.43
Mof_C 	C 	0.7851	0.007	0.6304	-0.184
Mof_C 	C 	0.7633	0.0567	0.7005	0.106
Mof_H 	H 	0.7278	0.0436	0.7113	0
Mof_C 	C 	0.7941	0.1244	0.7531	-0.185
Mof_C 	C 	0.8465	0.1465	0.7344	0.057
Mof_H 	H 	0.8673	0.1929	0.77	0.021
Mof_C 	C 	0.8684	0.1004	0.6633	-0.091
Mof_C 	C 	0.8378	0.0276	0.6139	0.05
Mof_H 	H 	0.8529	0.9922	0.5692	0.006
Mof_C 	C 	0.7726	0.1738	0.8335	0.486
Mof_C 	C 	0.9226	0.1312	0.6396	0.107
Mof_C 	C 	0.9384	0.2322	0.6456	-0.156
Mof_H 	H 	0.9159	0.2794	0.6683	0.079
Mof_C 	C 	0.9873	0.2631	0.6181	0.064
Mof_H 	H 	0.9977	0.3304	0.6237	0.007
Mof_C 	C 	0.0207	0.1939	0.5823	-0.134
Mof_C 	C 	0.0063	0.0941	0.5786	0.063
Mof_H 	H 	0.0293	0.0468	0.5572	0.016
Mof_C 	C 	0.9572	0.0632	0.6066	-0.156
Mof_H 	H 	0.9477	0.9953	0.603	0.081
Mof_C 	C 	0.0703	0.2284	0.5426	0.334
Mof_La	La	0.67011	0.79215	0.46936	1.943
Mof_O 	O 	0.70064	0.9466	0.5637	-0.465
Mof_O 	O 	0.77316	0.8602	0.5382	-0.576
Mof_O 	O 	0.72511	0.1514	0.8477	-0.529
Mof_O 	O 	0.80272	0.2347	0.8764	-0.506
Mof_O 	O 	0.08402	0.3193	0.5467	-0.438
Mof_O 	O 	0.09801	0.1632	0.5063	-0.431
Mof_C 	C 	0.2505	0.4338	0.5739	0.43
Mof_C 	C 	0.2851	0.507	0.6304	-0.183
Mof_C 	C 	0.2633	0.5567	0.7005	0.105
Mof_H 	H 	0.2278	0.5436	0.7113	0.001
Mof_C 	C 	0.2941	0.6244	0.7531	-0.185
Mof_C 	C 	0.3465	0.6465	0.7344	0.057
Mof_H 	H 	0.3673	0.6929	0.77	0.021
Mof_C 	C 	0.3684	0.6004	0.6633	-0.091
Mof_C 	C 	0.3378	0.5276	0.6139	0.05
Mof_H 	H 	0.3529	0.4922	0.5692	0.006
Mof_C 	C 	0.2726	0.6738	0.8335	0.486
Mof_C 	C 	0.4226	0.6312	0.6396	0.107
Mof_C 	C 	0.4384	0.7322	0.6456	-0.155
Mof_H 	H 	0.4159	0.7794	0.6683	0.078
Mof_C 	C 	0.4873	0.7631	0.6181	0.063
Mof_H 	H 	0.4977	0.8304	0.6237	0.007
Mof_C 	C 	0.5207	0.6939	0.5823	-0.134
Mof_C 	C 	0.5063	0.5941	0.5786	0.063
Mof_H 	H 	0.5293	0.5468	0.5572	0.016
Mof_C 	C 	0.4572	0.5632	0.6066	-0.157
Mof_H 	H 	0.4477	0.4953	0.603	0.081
Mof_C 	C 	0.5703	0.7284	0.5426	0.333
Mof_La	La	0.17011	0.29215	0.46936	1.944
Mof_O 	O 	0.20064	0.4466	0.5637	-0.465
Mof_O 	O 	0.27316	0.3602	0.5382	-0.576
Mof_O 	O 	0.22511	0.6514	0.8477	-0.529
Mof_O 	O 	0.30272	0.7347	0.8764	-0.507
Mof_O 	O 	0.58402	0.8193	0.5467	-0.438
Mof_O 	O 	0.59801	0.6632	0.5063	-0.431
Mof_C 	C 	0.7505	0.0662	0.0739	0.43
Mof_C 	C 	0.7851	0.993	0.1304	-0.184
Mof_C 	C 	0.7633	0.9433	0.2005	0.106
Mof_H 	H 	0.7278	0.9564	0.2113	0
Mof_C 	C 	0.7941	0.8756	0.2531	-0.185
Mof_C 	C 	0.8465	0.8535	0.2344	0.058
Mof_H 	H 	0.8673	0.8071	0.27	0.02
Mof_C 	C 	0.8684	0.8996	0.1633	-0.091
Mof_C 	C 	0.8378	0.9724	0.1139	0.05
Mof_H 	H 	0.8529	0.0078	0.0692	0.006
Mof_C 	C 	0.7726	0.8262	0.3335	0.486
Mof_C 	C 	0.9226	0.8688	0.1396	0.108
Mof_C 	C 	0.9384	0.7678	0.1456	-0.156
Mof_H 	H 	0.9159	0.7206	0.1683	0.078
Mof_C 	C 	0.9873	0.7369	0.1181	0.061
Mof_H 	H 	0.9977	0.6696	0.1237	0.007
Mof_C 	C 	0.0207	0.8061	0.0823	-0.133
Mof_C 	C 	0.0063	0.9059	0.0786	0.066
Mof_H 	H 	0.0293	0.9532	0.0572	0.015
Mof_C 	C 	0.9572	0.9368	0.1066	-0.161
Mof_H 	H 	0.9477	0.0047	0.103	0.083
Mof_C 	C 	0.0703	0.7716	0.0426	0.333
Mof_La	La	0.67011	0.20785	0.96936	1.944
Mof_O 	O 	0.70064	0.0534	0.0637	-0.465
Mof_O 	O 	0.77316	0.1398	0.0382	-0.576
Mof_O 	O 	0.72511	0.8486	0.3477	-0.529
Mof_O 	O 	0.80272	0.7653	0.3764	-0.507
Mof_O 	O 	0.08402	0.6807	0.0467	-0.437
Mof_O 	O 	0.09801	0.8368	0.0063	-0.43
Mof_C 	C 	0.2505	0.5662	0.0739	0.43
Mof_C 	C 	0.2851	0.493	0.1304	-0.183
Mof_C 	C 	0.2633	0.4433	0.2005	0.105
Mof_H 	H 	0.2278	0.4564	0.2113	0.001
Mof_C 	C 	0.2941	0.3756	0.2531	-0.185
Mof_C 	C 	0.3465	0.3535	0.2344	0.057
Mof_H 	H 	0.3673	0.3071	0.27	0.021
Mof_C 	C 	0.3684	0.3996	0.1633	-0.09
Mof_C 	C 	0.3378	0.4724	0.1139	0.05
Mof_H 	H 	0.3529	0.5078	0.0692	0.006
Mof_C 	C 	0.2726	0.3262	0.3335	0.486
Mof_C 	C 	0.4226	0.3688	0.1396	0.107
Mof_C 	C 	0.4384	0.2678	0.1456	-0.155
Mof_H 	H 	0.4159	0.2206	0.1683	0.079
Mof_C 	C 	0.4873	0.2369	0.1181	0.063
Mof_H 	H 	0.4977	0.1696	0.1237	0.007
Mof_C 	C 	0.5207	0.3061	0.0823	-0.134
Mof_C 	C 	0.5063	0.4059	0.0786	0.063
Mof_H 	H 	0.5293	0.4532	0.0572	0.016
Mof_C 	C 	0.4572	0.4368	0.1066	-0.156
Mof_H 	H 	0.4477	0.5047	0.103	0.081
Mof_C 	C 	0.5703	0.2716	0.0426	0.334
Mof_La	La	0.17011	0.70785	0.96936	1.941
Mof_O 	O 	0.20064	0.5534	0.0637	-0.464
Mof_O 	O 	0.27316	0.6398	0.0382	-0.575
Mof_O 	O 	0.22511	0.3486	0.3477	-0.529
Mof_O 	O 	0.30272	0.2653	0.3764	-0.507
Mof_O 	O 	0.58402	0.1807	0.0467	-0.438
Mof_O 	O 	0.59801	0.3368	0.0063	-0.431
Mof_C 	C 	0.2495	0.0662	0.4261	0.43
Mof_C 	C 	0.2149	0.993	0.3696	-0.184
Mof_C 	C 	0.2367	0.9433	0.2995	0.106
Mof_H 	H 	0.2722	0.9564	0.2887	0
Mof_C 	C 	0.2059	0.8756	0.2469	-0.185
Mof_C 	C 	0.1535	0.8535	0.2656	0.057
Mof_H 	H 	0.1327	0.8071	0.23	0.021
Mof_C 	C 	0.1316	0.8996	0.3367	-0.091
Mof_C 	C 	0.1622	0.9724	0.3861	0.05
Mof_H 	H 	0.1471	0.0078	0.4308	0.006
Mof_C 	C 	0.2274	0.8262	0.1665	0.486
Mof_C 	C 	0.0774	0.8688	0.3604	0.107
Mof_C 	C 	0.0616	0.7678	0.3544	-0.156
Mof_H 	H 	0.0841	0.7206	0.3317	0.079
Mof_C 	C 	0.0127	0.7369	0.3819	0.064
Mof_H 	H 	0.0023	0.6696	0.3763	0.007
Mof_C 	C 	0.9793	0.8061	0.4177	-0.134
Mof_C 	C 	0.9937	0.9059	0.4214	0.063
Mof_H 	H 	0.9707	0.9532	0.4428	0.016
Mof_C 	C 	0.0428	0.9368	0.3934	-0.156
Mof_H 	H 	0.0523	0.0047	0.397	0.081
Mof_C 	C 	0.9297	0.7716	0.4574	0.334
Mof_La	La	0.32989	0.20785	0.53064	1.943
Mof_O 	O 	0.29936	0.0534	0.4363	-0.465
Mof_O 	O 	0.22684	0.1398	0.4618	-0.576
Mof_O 	O 	0.27489	0.8486	0.1523	-0.529
Mof_O 	O 	0.19728	0.7653	0.1236	-0.506
Mof_O 	O 	0.91598	0.6807	0.4533	-0.438
Mof_O 	O 	0.90199	0.8368	0.4937	-0.431
Mof_C 	C 	0.7495	0.5662	0.4261	0.43
Mof_C 	C 	0.7149	0.493	0.3696	-0.183
Mof_C 	C 	0.7367	0.4433	0.2995	0.105
Mof_H 	H 	0.7722	0.4564	0.2887	0.001
Mof_C 	C 	0.7059	0.3756	0.2469	-0.185
Mof_C 	C 	0.6535	0.3535	0.2656	0.057
Mof_H 	H 	0.6327	0.3071	0.23	0.021
Mof_C 	C 	0.6316	0.3996	0.3367	-0.091
Mof_C 	C 	0.6622	0.4724	0.3861	0.05
Mof_H 	H 	0.6471	0.5078	0.4308	0.006
Mof_C 	C 	0.7274	0.3262	0.1665	0.486
Mof_C 	C 	0.5774	0.3688	0.3604	0.107
Mof_C 	C 	0.5616	0.2678	0.3544	-0.155
Mof_H 	H 	0.5841	0.2206	0.3317	0.078
Mof_C 	C 	0.5127	0.2369	0.3819	0.063
Mof_H 	H 	0.5023	0.1696	0.3763	0.007
Mof_C 	C 	0.4793	0.3061	0.4177	-0.134
Mof_C 	C 	0.4937	0.4059	0.4214	0.063
Mof_H 	H 	0.4707	0.4532	0.4428	0.016
Mof_C 	C 	0.5428	0.4368	0.3934	-0.157
Mof_H 	H 	0.5523	0.5047	0.397	0.081
Mof_C 	C 	0.4297	0.2716	0.4574	0.333
Mof_La	La	0.82989	0.70785	0.53064	1.944
Mof_O 	O 	0.79936	0.5534	0.4363	-0.465
Mof_O 	O 	0.72684	0.6398	0.4618	-0.576
Mof_O 	O 	0.77489	0.3486	0.1523	-0.529
Mof_O 	O 	0.69728	0.2653	0.1236	-0.507
Mof_O 	O 	0.41598	0.1807	0.4533	-0.438
Mof_O 	O 	0.40199	0.3368	0.4937	-0.431
_end
