data_functionalizedCrystal
_audit_creation_method	'EQeq! by Chris Wilmer'
_symmetry_space_group_name_H-M	'P1'
_symmetry_Int_Tables_number	1
_symmetry_cell_setting	triclinic
loop_
_symmetry_equiv_pos_as_xyz
  x,y,z
_cell_length_a	14.853
_cell_length_b	17.01
_cell_length_c	14.538
_cell_angle_alpha	90
_cell_angle_beta	120.72
_cell_angle_gamma	90
loop_
_atom_site_label
_atom_site_type_symbol
_atom_site_fract_x
_atom_site_fract_y
_atom_site_fract_z
_atom_site_charge
Mof_Br	Br	0.42502	0.89335	0.31346	-0.215
Mof_Br	Br	0.33001	0.34782	0.11135	-0.225
Mof_Co	Co	0.09221	0.12065	0.20785	1.183
Mof_N 	N 	0.1763	0.0445	0.1638	-0.19
Mof_N 	N 	0.2157	0.2058	0.256	-0.19
Mof_O 	O 	0.1703	0.9223	0.8648	-0.401
Mof_O 	O 	0.0241	0.9635	0.861	-0.389
Mof_O 	O 	0.5107	0.3266	0.5512	-0.377
Mof_O 	O 	0.4083	0.24	0.5726	-0.285
Mof_H 	H 	0.0466	0.2235	0.3111	0.245
Mof_C 	C 	0.3115	0.9494	0.2056	0.132
Mof_C 	C 	0.2629	0.0054	0.2359	-0.027
Mof_H 	H 	0.2918	0.0163	0.3098	0.075
Mof_C 	C 	0.1346	0.026	0.0592	0.052
Mof_H 	H 	0.0716	0.0511	0.008	0.049
Mof_C 	C 	0.1799	0.9719	0.0236	-0.047
Mof_C 	C 	0.2716	0.9321	0.0983	-0.068
Mof_H 	H 	0.3047	0.8951	0.0762	0.101
Mof_C 	C 	0.1197	0.9514	0.9044	0.364
Mof_C 	C 	0.3144	0.2946	0.217	0.137
Mof_C 	C 	0.2337	0.2425	0.185	-0.028
Mof_H 	H 	0.1894	0.2319	0.1109	0.081
Mof_C 	C 	0.2806	0.2187	0.3596	0.045
Mof_H 	H 	0.2683	0.1928	0.41	0.041
Mof_C 	C 	0.3663	0.2691	0.3966	-0.041
Mof_C 	C 	0.3843	0.3082	0.3236	-0.076
Mof_H 	H 	0.4422	0.3427	0.3463	0.105
Mof_C 	C 	0.4359	0.2789	0.5175	0.329
Mof_Br	Br	0.92502	0.39335	0.31346	-0.241
Mof_Br	Br	0.83001	0.84782	0.11135	-0.239
Mof_Co	Co	0.59221	0.62065	0.20785	1.178
Mof_N 	N 	0.6763	0.5445	0.1638	-0.194
Mof_N 	N 	0.7157	0.7058	0.256	-0.19
Mof_O 	O 	0.6703	0.4223	0.8648	-0.406
Mof_O 	O 	0.5241	0.4635	0.861	-0.411
Mof_O 	O 	0.0107	0.8266	0.5512	-0.335
Mof_O 	O 	0.9083	0.74	0.5726	-0.279
Mof_H 	H 	0.5466	0.7235	0.3111	0.248
Mof_C 	C 	0.8115	0.4494	0.2056	0.13
Mof_C 	C 	0.7629	0.5054	0.2359	-0.028
Mof_H 	H 	0.7918	0.5163	0.3098	0.072
Mof_C 	C 	0.6346	0.526	0.0592	0.053
Mof_H 	H 	0.5716	0.5511	0.008	0.041
Mof_C 	C 	0.6799	0.4719	0.0236	-0.056
Mof_C 	C 	0.7716	0.4321	0.0983	-0.068
Mof_H 	H 	0.8047	0.3951	0.0762	0.097
Mof_C 	C 	0.6197	0.4514	0.9044	0.369
Mof_C 	C 	0.8144	0.7946	0.217	0.137
Mof_C 	C 	0.7337	0.7425	0.185	-0.032
Mof_H 	H 	0.6894	0.7319	0.1109	0.079
Mof_C 	C 	0.7806	0.7187	0.3596	0.038
Mof_H 	H 	0.7683	0.6928	0.41	0.042
Mof_C 	C 	0.8663	0.7691	0.3966	-0.032
Mof_C 	C 	0.8843	0.8082	0.3236	-0.085
Mof_H 	H 	0.9422	0.8427	0.3463	0.095
Mof_C 	C 	0.9359	0.7789	0.5175	0.28
Mof_Br	Br	0.57498	0.89335	0.18654	-0.214
Mof_Br	Br	0.66999	0.34782	0.38865	-0.229
Mof_Co	Co	0.90779	0.12065	0.29215	1.167
Mof_N 	N 	0.8237	0.0445	0.3362	-0.196
Mof_N 	N 	0.7843	0.2058	0.244	-0.192
Mof_O 	O 	0.8297	0.9223	0.6352	-0.409
Mof_O 	O 	0.9759	0.9635	0.639	-0.436
Mof_O 	O 	0.4893	0.3266	0.9488	-0.377
Mof_O 	O 	0.5917	0.24	0.9274	-0.285
Mof_H 	H 	0.9534	0.2235	0.1889	0.215
Mof_C 	C 	0.6885	0.9494	0.2944	0.131
Mof_C 	C 	0.7371	0.0054	0.2641	-0.028
Mof_H 	H 	0.7082	0.0163	0.1902	0.074
Mof_C 	C 	0.8654	0.026	0.4408	0.052
Mof_H 	H 	0.9284	0.0511	0.492	0.034
Mof_C 	C 	0.8201	0.9719	0.4764	-0.055
Mof_C 	C 	0.7284	0.9321	0.4017	-0.066
Mof_H 	H 	0.6953	0.8951	0.4238	0.101
Mof_C 	C 	0.8803	0.9514	0.5956	0.368
Mof_C 	C 	0.6856	0.2946	0.283	0.135
Mof_C 	C 	0.7663	0.2425	0.315	-0.029
Mof_H 	H 	0.8106	0.2319	0.3891	0.077
Mof_C 	C 	0.7194	0.2187	0.1404	0.046
Mof_H 	H 	0.7317	0.1928	0.09	0.039
Mof_C 	C 	0.6337	0.2691	0.1034	-0.045
Mof_C 	C 	0.6157	0.3082	0.1764	-0.074
Mof_H 	H 	0.5578	0.3427	0.1537	0.103
Mof_C 	C 	0.5641	0.2789	0.9825	0.333
Mof_Br	Br	0.07498	0.39335	0.18654	-0.187
Mof_Br	Br	0.16999	0.84782	0.38865	-0.214
Mof_Co	Co	0.40779	0.62065	0.29215	1.178
Mof_N 	N 	0.3237	0.5445	0.3362	-0.193
Mof_N 	N 	0.2843	0.7058	0.244	-0.192
Mof_O 	O 	0.3297	0.4223	0.6352	-0.403
Mof_O 	O 	0.4759	0.4635	0.639	-0.411
Mof_O 	O 	0.9893	0.8266	0.9488	-0.418
Mof_O 	O 	0.0917	0.74	0.9274	-0.287
Mof_H 	H 	0.4534	0.7235	0.1889	0.248
Mof_C 	C 	0.1885	0.4494	0.2944	0.131
Mof_C 	C 	0.2371	0.5054	0.2641	-0.024
Mof_H 	H 	0.2082	0.5163	0.1902	0.077
Mof_C 	C 	0.3654	0.526	0.4408	0.053
Mof_H 	H 	0.4284	0.5511	0.492	0.042
Mof_C 	C 	0.3201	0.4719	0.4764	-0.05
Mof_C 	C 	0.2284	0.4321	0.4017	-0.065
Mof_H 	H 	0.1953	0.3951	0.4238	0.105
Mof_C 	C 	0.3803	0.4514	0.5956	0.366
Mof_C 	C 	0.1856	0.7946	0.283	0.136
Mof_C 	C 	0.2663	0.7425	0.315	-0.026
Mof_H 	H 	0.3106	0.7319	0.3891	0.079
Mof_C 	C 	0.2194	0.7187	0.1404	0.052
Mof_H 	H 	0.2317	0.6928	0.09	0.039
Mof_C 	C 	0.1337	0.7691	0.1034	-0.051
Mof_C 	C 	0.1157	0.8082	0.1764	-0.066
Mof_H 	H 	0.0578	0.8427	0.1537	0.114
Mof_C 	C 	0.0641	0.7789	0.9825	0.377
Mof_Br	Br	0.57498	0.10665	0.68654	-0.214
Mof_Br	Br	0.66999	0.65218	0.88865	-0.227
Mof_Co	Co	0.90779	0.87935	0.79215	1.168
Mof_N 	N 	0.8237	0.9555	0.8362	-0.195
Mof_N 	N 	0.7843	0.7942	0.744	-0.192
Mof_O 	O 	0.8297	0.0777	0.1352	-0.409
Mof_O 	O 	0.9759	0.0365	0.139	-0.436
Mof_O 	O 	0.4893	0.6734	0.4488	-0.377
Mof_O 	O 	0.5917	0.76	0.4274	-0.285
Mof_H 	H 	0.9534	0.7765	0.6889	0.216
Mof_C 	C 	0.6885	0.0506	0.7944	0.132
Mof_C 	C 	0.7371	0.9946	0.7641	-0.028
Mof_H 	H 	0.7082	0.9837	0.6902	0.075
Mof_C 	C 	0.8654	0.974	0.9408	0.049
Mof_H 	H 	0.9284	0.9489	0.992	0.036
Mof_C 	C 	0.8201	0.0281	0.9764	-0.048
Mof_C 	C 	0.7284	0.0679	0.9017	-0.069
Mof_H 	H 	0.6953	0.1049	0.9238	0.103
Mof_C 	C 	0.8803	0.0486	0.0956	0.364
Mof_C 	C 	0.6856	0.7054	0.783	0.136
Mof_C 	C 	0.7663	0.7575	0.815	-0.029
Mof_H 	H 	0.8106	0.7681	0.8891	0.078
Mof_C 	C 	0.7194	0.7813	0.6404	0.044
Mof_H 	H 	0.7317	0.8072	0.59	0.041
Mof_C 	C 	0.6337	0.7309	0.6034	-0.04
Mof_C 	C 	0.6157	0.6918	0.6764	-0.076
Mof_H 	H 	0.5578	0.6573	0.6537	0.105
Mof_C 	C 	0.5641	0.7211	0.4825	0.329
Mof_Br	Br	0.07498	0.60665	0.68654	-0.187
Mof_Br	Br	0.16999	0.15218	0.88865	-0.212
Mof_Co	Co	0.40779	0.37935	0.79215	1.178
Mof_N 	N 	0.3237	0.4555	0.8362	-0.192
Mof_N 	N 	0.2843	0.2942	0.744	-0.192
Mof_O 	O 	0.3297	0.5777	0.1352	-0.402
Mof_O 	O 	0.4759	0.5365	0.139	-0.411
Mof_O 	O 	0.9893	0.1734	0.4488	-0.42
Mof_O 	O 	0.0917	0.26	0.4274	-0.287
Mof_H 	H 	0.4534	0.2765	0.6889	0.248
Mof_C 	C 	0.1885	0.5506	0.7944	0.132
Mof_C 	C 	0.2371	0.4946	0.7641	-0.025
Mof_H 	H 	0.2082	0.4837	0.6902	0.077
Mof_C 	C 	0.3654	0.474	0.9408	0.052
Mof_H 	H 	0.4284	0.4489	0.992	0.044
Mof_C 	C 	0.3201	0.5281	0.9764	-0.046
Mof_C 	C 	0.2284	0.5679	0.9017	-0.066
Mof_H 	H 	0.1953	0.6049	0.9238	0.106
Mof_C 	C 	0.3803	0.5486	0.0956	0.363
Mof_C 	C 	0.1856	0.2054	0.783	0.137
Mof_C 	C 	0.2663	0.2575	0.815	-0.026
Mof_H 	H 	0.3106	0.2681	0.8891	0.08
Mof_C 	C 	0.2194	0.2813	0.6404	0.052
Mof_H 	H 	0.2317	0.3072	0.59	0.04
Mof_C 	C 	0.1337	0.2309	0.6034	-0.049
Mof_C 	C 	0.1157	0.1918	0.6764	-0.067
Mof_H 	H 	0.0578	0.1573	0.6537	0.115
Mof_C 	C 	0.0641	0.2211	0.4825	0.377
Mof_Br	Br	0.42502	0.10665	0.81346	-0.213
Mof_Br	Br	0.33001	0.65218	0.61135	-0.223
Mof_Co	Co	0.09221	0.87935	0.70785	1.183
Mof_N 	N 	0.1763	0.9555	0.6638	-0.19
Mof_N 	N 	0.2157	0.7942	0.756	-0.19
Mof_O 	O 	0.1703	0.0777	0.3648	-0.401
Mof_O 	O 	0.0241	0.0365	0.361	-0.388
Mof_O 	O 	0.5107	0.6734	0.0512	-0.377
Mof_O 	O 	0.4083	0.76	0.0726	-0.285
Mof_H 	H 	0.0466	0.7765	0.8111	0.245
Mof_C 	C 	0.3115	0.0506	0.7056	0.132
Mof_C 	C 	0.2629	0.9946	0.7359	-0.027
Mof_H 	H 	0.2918	0.9837	0.8098	0.075
Mof_C 	C 	0.1346	0.974	0.5592	0.053
Mof_H 	H 	0.0716	0.9489	0.508	0.051
Mof_C 	C 	0.1799	0.0281	0.5236	-0.045
Mof_C 	C 	0.2716	0.0679	0.5983	-0.069
Mof_H 	H 	0.3047	0.1049	0.5762	0.102
Mof_C 	C 	0.1197	0.0486	0.4044	0.362
Mof_C 	C 	0.3144	0.7054	0.717	0.137
Mof_C 	C 	0.2337	0.7575	0.685	-0.029
Mof_H 	H 	0.1894	0.7681	0.6109	0.082
Mof_C 	C 	0.2806	0.7813	0.8596	0.044
Mof_H 	H 	0.2683	0.8072	0.91	0.042
Mof_C 	C 	0.3663	0.7309	0.8966	-0.037
Mof_C 	C 	0.3843	0.6918	0.8236	-0.077
Mof_H 	H 	0.4422	0.6573	0.8463	0.106
Mof_C 	C 	0.4359	0.7211	0.0175	0.326
Mof_Br	Br	0.92502	0.60665	0.81346	-0.24
Mof_Br	Br	0.83001	0.15218	0.61135	-0.237
Mof_Co	Co	0.59221	0.37935	0.70785	1.178
Mof_N 	N 	0.6763	0.4555	0.6638	-0.193
Mof_N 	N 	0.7157	0.2942	0.756	-0.189
Mof_O 	O 	0.6703	0.5777	0.3648	-0.405
Mof_O 	O 	0.5241	0.5365	0.361	-0.411
Mof_O 	O 	0.0107	0.1734	0.0512	-0.335
Mof_O 	O 	0.9083	0.26	0.0726	-0.279
Mof_H 	H 	0.5466	0.2765	0.8111	0.248
Mof_C 	C 	0.8115	0.5506	0.7056	0.131
Mof_C 	C 	0.7629	0.4946	0.7359	-0.029
Mof_H 	H 	0.7918	0.4837	0.8098	0.073
Mof_C 	C 	0.6346	0.474	0.5592	0.052
Mof_H 	H 	0.5716	0.4489	0.508	0.042
Mof_C 	C 	0.6799	0.5281	0.5236	-0.051
Mof_C 	C 	0.7716	0.5679	0.5983	-0.069
Mof_H 	H 	0.8047	0.6049	0.5762	0.098
Mof_C 	C 	0.6197	0.5486	0.4044	0.366
Mof_C 	C 	0.8144	0.2054	0.717	0.138
Mof_C 	C 	0.7337	0.2575	0.685	-0.032
Mof_H 	H 	0.6894	0.2681	0.6109	0.08
Mof_C 	C 	0.7806	0.2813	0.8596	0.036
Mof_H 	H 	0.7683	0.3072	0.91	0.044
Mof_C 	C 	0.8663	0.2309	0.8966	-0.026
Mof_C 	C 	0.8843	0.1918	0.8236	-0.087
Mof_H 	H 	0.9422	0.1573	0.8463	0.097
Mof_C 	C 	0.9359	0.2211	0.0175	0.275
Mof_O 	O 	-1.80021e-17	0.1892	0.25	-0.634
Mof_O 	O 	0.5	0.6892	0.25	-0.679
Mof_O 	O 	4.15846e-33	0.8108	0.75	-0.635
Mof_O 	O 	0.5	0.3108	0.75	-0.679
_end
