data_functionalizedCrystal
_audit_creation_method	'EQeq! by Chris Wilmer'
_symmetry_space_group_name_H-M	'P1'
_symmetry_Int_Tables_number	1
_symmetry_cell_setting	triclinic
loop_
_symmetry_equiv_pos_as_xyz
  x,y,z
_cell_length_a	35.1502
_cell_length_b	14.6139
_cell_length_c	31.0655
_cell_angle_alpha	90
_cell_angle_beta	101.3
_cell_angle_gamma	90
loop_
_atom_site_label
_atom_site_type_symbol
_atom_site_fract_x
_atom_site_fract_y
_atom_site_fract_z
_atom_site_charge
Mof_I 	I 	0.26873	0.74622	0.20922	-0.381
Mof_I 	I 	0.38024	0.75745	0.44071	-0.38
Mof_I 	I 	0.37546	0.66382	0.30399	-0.407
Mof_I 	I 	0.47586	0.83608	0.36847	-0.354
Mof_I 	I 	0.64983	0.60216	0.49265	-0.371
Mof_I 	I 	0.60799	0.7417	0.60394	-0.38
Mof_Zn	Zn	0.41743	0.86936	0.40257	1.164
Mof_Zn	Zn	0.33034	0.65213	0.22906	1.162
Mof_Zn	Zn	0.62618	0.60104	0.56437	1.164
Mof_N 	N 	0.36268	0.3275	0.6809	-0.28
Mof_N 	N 	0.3186	0.5137	0.2199	-0.276
Mof_N 	N 	0.2793	0.0519	0.2266	-0.14
Mof_N 	N 	0.43044	0.9791	0.4456	-0.271
Mof_N 	N 	0.37934	0.9396	0.3538	-0.272
Mof_N 	N 	0.26675	0.1919	0.1874	-0.138
Mof_N 	N 	0.57929	0.5133	0.5582	-0.278
Mof_N 	N 	0.32022	0.1791	0.2473	-0.136
Mof_N 	N 	0.16773	0.9677	0.109	-0.276
Mof_C 	C 	0.344	0.4548	0.2428	0.068
Mof_H 	H 	0.3664	0.4778	0.2605	-0.016
Mof_N 	N 	0.46025	0.354	0.5845	-0.133
Mof_N 	N 	0.42479	0.2211	0.5581	-0.134
Mof_C 	C 	0.4817	0.3385	0.5541	0.086
Mof_C 	C 	0.2596	0.104	0.1947	0.086
Mof_N 	N 	0.47634	0.2714	0.5245	-0.145
Mof_C 	C 	0.3466	0.9035	0.3311	0.079
Mof_H 	H 	0.3393	0.8451	0.3382	-0.015
Mof_C 	C 	0.2266	0.0585	0.1649	0.064
Mof_C 	C 	0.3337	0.0381	0.2871	0.07
Mof_C 	C 	0.463	0.029	0.4498	0.077
Mof_H 	H 	0.4819	0.011	0.4343	-0.01
Mof_C 	C 	0.3098	0.0933	0.2516	0.1
Mof_C 	C 	0.5643	0.4674	0.522	0.092
Mof_H 	H 	0.5754	0.4746	0.4974	-0.011
Mof_C 	C 	0.2969	0.2267	0.216	0.101
Mof_C 	C 	0.3049	0.3263	0.2149	0.068
Mof_C 	C 	0.3233	0.9507	0.2972	-0.144
Mof_H 	H 	0.3009	0.9239	0.2814	0.089
Mof_C 	C 	0.5154	0.4003	0.5547	0.068
Mof_C 	C 	0.4082	0.0817	0.4957	-0.124
Mof_H 	H 	0.389	0.0987	0.5109	0.084
Mof_C 	C 	0.3507	0.275	0.6461	0.087
Mof_H 	H 	0.3266	0.2468	0.6431	-0.016
Mof_C 	C 	0.3382	0.3609	0.2413	-0.13
Mof_H 	H 	0.3563	0.3219	0.2577	0.09
Mof_C 	C 	0.5629	0.5019	0.5932	0.084
Mof_H 	H 	0.5732	0.5331	0.6189	-0.018
Mof_C 	C 	0.4479	0.2129	0.5287	0.086
Mof_C 	C 	0.5328	0.4095	0.5192	-0.144
Mof_H 	H 	0.5236	0.3771	0.4935	0.089
Mof_C 	C 	0.4318	0.2929	0.5848	0.102
Mof_C 	C 	0.287	0.4794	0.1939	0.084
Mof_H 	H 	0.2694	0.5198	0.1777	-0.015
Mof_C 	C 	0.4034	0.0054	0.4685	0.069
Mof_H 	H 	0.3808	0.9711	0.466	-0.013
Mof_C 	C 	0.2138	0.9748	0.1759	-0.148
Mof_H 	H 	0.225	0.9473	0.2023	0.1
Mof_C 	C 	0.3897	0.0234	0.3435	0.085
Mof_H 	H 	0.4127	0.0479	0.3591	-0.011
Mof_C 	C 	0.4422	0.1321	0.4996	0.058
Mof_C 	C 	0.1798	0.0502	0.0988	0.083
Mof_H 	H 	0.1679	0.0763	0.0723	-0.005
Mof_C 	C 	0.2088	0.0986	0.1255	-0.134
Mof_H 	H 	0.2162	0.1562	0.1174	0.093
Mof_C 	C 	0.4077	0.3046	0.6181	0.079
Mof_C 	C 	0.4698	0.1055	0.4759	-0.129
Mof_H 	H 	0.4926	0.1387	0.4776	0.079
Mof_C 	C 	0.3724	0.2603	0.6141	-0.135
Mof_H 	H 	0.3635	0.2216	0.5905	0.094
Mof_C 	C 	0.3677	0.0751	0.3109	-0.135
Mof_H 	H 	0.3755	0.1338	0.305	0.1
Mof_C 	C 	0.1844	0.9316	0.1477	0.086
Mof_H 	H 	0.1757	0.8753	0.1558	-0.008
Mof_C 	C 	0.4198	0.3589	0.6542	-0.136
Mof_H 	H 	0.4435	0.3893	0.6577	0.093
Mof_C 	C 	0.397	0.3683	0.6854	0.085
Mof_H 	H 	0.4058	0.4041	0.7101	-0.022
Mof_C 	C 	0.2793	0.3873	0.1902	-0.137
Mof_H 	H 	0.2572	0.3661	0.1713	0.087
Mof_C 	C 	0.5313	0.4458	0.5927	-0.141
Mof_H 	H 	0.5209	0.4388	0.6178	0.095
Mof_I 	I 	0.76873	0.24622	0.20922	-0.38
Mof_I 	I 	0.88024	0.25745	0.44071	-0.379
Mof_I 	I 	0.87546	0.16382	0.30399	-0.406
Mof_I 	I 	0.97586	0.33608	0.36847	-0.353
Mof_I 	I 	0.14983	0.10216	0.49265	-0.37
Mof_I 	I 	0.10799	0.2417	0.60394	-0.379
Mof_Zn	Zn	0.91743	0.36936	0.40257	1.165
Mof_Zn	Zn	0.83034	0.15213	0.22906	1.163
Mof_Zn	Zn	0.12618	0.10104	0.56437	1.165
Mof_N 	N 	0.86268	0.8275	0.6809	-0.279
Mof_N 	N 	0.8186	0.0137	0.2199	-0.274
Mof_N 	N 	0.7793	0.5519	0.2266	-0.139
Mof_N 	N 	0.93044	0.4791	0.4456	-0.27
Mof_N 	N 	0.87934	0.4396	0.3538	-0.271
Mof_N 	N 	0.76675	0.6919	0.1874	-0.137
Mof_N 	N 	0.07929	0.0133	0.5582	-0.277
Mof_N 	N 	0.82022	0.6791	0.2473	-0.135
Mof_N 	N 	0.66773	0.4677	0.109	-0.275
Mof_C 	C 	0.844	0.9548	0.2428	0.069
Mof_H 	H 	0.8664	0.9778	0.2605	-0.015
Mof_N 	N 	0.96025	0.854	0.5845	-0.132
Mof_N 	N 	0.92479	0.7211	0.5581	-0.133
Mof_C 	C 	0.9817	0.8385	0.5541	0.087
Mof_C 	C 	0.7596	0.604	0.1947	0.088
Mof_N 	N 	0.97634	0.7714	0.5245	-0.145
Mof_C 	C 	0.8466	0.4035	0.3311	0.079
Mof_H 	H 	0.8393	0.3451	0.3382	-0.015
Mof_C 	C 	0.7266	0.5585	0.1649	0.063
Mof_C 	C 	0.8337	0.5381	0.2871	0.07
Mof_C 	C 	0.963	0.529	0.4498	0.077
Mof_H 	H 	0.9819	0.511	0.4343	-0.01
Mof_C 	C 	0.8098	0.5933	0.2516	0.1
Mof_C 	C 	0.0643	0.9674	0.522	0.092
Mof_H 	H 	0.0754	0.9746	0.4974	-0.011
Mof_C 	C 	0.7969	0.7267	0.216	0.101
Mof_C 	C 	0.8049	0.8263	0.2149	0.068
Mof_C 	C 	0.8233	0.4507	0.2972	-0.144
Mof_H 	H 	0.8009	0.4239	0.2814	0.089
Mof_C 	C 	0.0154	0.9003	0.5547	0.067
Mof_C 	C 	0.9082	0.5817	0.4957	-0.124
Mof_H 	H 	0.889	0.5987	0.5109	0.084
Mof_C 	C 	0.8507	0.775	0.6461	0.087
Mof_H 	H 	0.8266	0.7468	0.6431	-0.016
Mof_C 	C 	0.8382	0.8609	0.2413	-0.13
Mof_H 	H 	0.8563	0.8219	0.2577	0.089
Mof_C 	C 	0.0629	0.0019	0.5932	0.084
Mof_H 	H 	0.0732	0.0331	0.6189	-0.018
Mof_C 	C 	0.9479	0.7129	0.5287	0.086
Mof_C 	C 	0.0328	0.9095	0.5192	-0.144
Mof_H 	H 	0.0236	0.8771	0.4935	0.089
Mof_C 	C 	0.9318	0.7929	0.5848	0.102
Mof_C 	C 	0.787	0.9794	0.1939	0.083
Mof_H 	H 	0.7694	0.0198	0.1777	-0.015
Mof_C 	C 	0.9034	0.5054	0.4685	0.069
Mof_H 	H 	0.8808	0.4711	0.466	-0.013
Mof_C 	C 	0.7138	0.4748	0.1759	-0.147
Mof_H 	H 	0.725	0.4473	0.2023	0.1
Mof_C 	C 	0.8897	0.5234	0.3435	0.085
Mof_H 	H 	0.9127	0.5479	0.3591	-0.011
Mof_C 	C 	0.9422	0.6321	0.4996	0.058
Mof_C 	C 	0.6798	0.5502	0.0988	0.082
Mof_H 	H 	0.6679	0.5763	0.0723	-0.005
Mof_C 	C 	0.7088	0.5986	0.1255	-0.134
Mof_H 	H 	0.7162	0.6562	0.1174	0.093
Mof_C 	C 	0.9077	0.8046	0.6181	0.079
Mof_C 	C 	0.9698	0.6055	0.4759	-0.129
Mof_H 	H 	0.9926	0.6387	0.4776	0.079
Mof_C 	C 	0.8724	0.7603	0.6141	-0.135
Mof_H 	H 	0.8635	0.7216	0.5905	0.094
Mof_C 	C 	0.8677	0.5751	0.3109	-0.135
Mof_H 	H 	0.8755	0.6338	0.305	0.099
Mof_C 	C 	0.6844	0.4316	0.1477	0.085
Mof_H 	H 	0.6757	0.3753	0.1558	-0.008
Mof_C 	C 	0.9198	0.8589	0.6542	-0.136
Mof_H 	H 	0.9435	0.8893	0.6577	0.093
Mof_C 	C 	0.897	0.8683	0.6854	0.085
Mof_H 	H 	0.9058	0.9041	0.7101	-0.022
Mof_C 	C 	0.7793	0.8873	0.1902	-0.137
Mof_H 	H 	0.7572	0.8661	0.1713	0.087
Mof_C 	C 	0.0313	0.9458	0.5927	-0.141
Mof_H 	H 	0.0209	0.9388	0.6178	0.095
Mof_I 	I 	0.26873	0.25378	0.70922	-0.38
Mof_I 	I 	0.38024	0.24255	0.94071	-0.379
Mof_I 	I 	0.37546	0.33618	0.80399	-0.406
Mof_I 	I 	0.47586	0.16392	0.86847	-0.353
Mof_I 	I 	0.64983	0.39784	0.99265	-0.371
Mof_I 	I 	0.60799	0.2583	0.10394	-0.379
Mof_Zn	Zn	0.41743	0.13064	0.90257	1.165
Mof_Zn	Zn	0.33034	0.34787	0.72906	1.163
Mof_Zn	Zn	0.62618	0.39896	0.06437	1.165
Mof_N 	N 	0.36268	0.6725	0.1809	-0.279
Mof_N 	N 	0.3186	0.4863	0.7199	-0.275
Mof_N 	N 	0.2793	0.9481	0.7266	-0.139
Mof_N 	N 	0.43044	0.0209	0.9456	-0.27
Mof_N 	N 	0.37934	0.0604	0.8538	-0.271
Mof_N 	N 	0.26675	0.8081	0.6874	-0.137
Mof_N 	N 	0.57929	0.4867	0.0582	-0.277
Mof_N 	N 	0.32022	0.8209	0.7473	-0.135
Mof_N 	N 	0.16773	0.0323	0.609	-0.275
Mof_C 	C 	0.344	0.5452	0.7428	0.069
Mof_H 	H 	0.3664	0.5222	0.7605	-0.015
Mof_N 	N 	0.46025	0.646	0.0845	-0.132
Mof_N 	N 	0.42479	0.7789	0.0581	-0.133
Mof_C 	C 	0.4817	0.6615	0.0541	0.087
Mof_C 	C 	0.2596	0.896	0.6947	0.088
Mof_N 	N 	0.47634	0.7286	0.0245	-0.145
Mof_C 	C 	0.3466	0.0965	0.8311	0.079
Mof_H 	H 	0.3393	0.1549	0.8382	-0.015
Mof_C 	C 	0.2266	0.9415	0.6649	0.064
Mof_C 	C 	0.3337	0.9619	0.7871	0.07
Mof_C 	C 	0.463	0.971	0.9498	0.078
Mof_H 	H 	0.4819	0.989	0.9343	-0.01
Mof_C 	C 	0.3098	0.9067	0.7516	0.1
Mof_C 	C 	0.5643	0.5326	0.022	0.092
Mof_H 	H 	0.5754	0.5254	0.9974	-0.011
Mof_C 	C 	0.2969	0.7733	0.716	0.101
Mof_C 	C 	0.3049	0.6737	0.7149	0.068
Mof_C 	C 	0.3233	0.0493	0.7972	-0.145
Mof_H 	H 	0.3009	0.0761	0.7814	0.089
Mof_C 	C 	0.5154	0.5997	0.0547	0.068
Mof_C 	C 	0.4082	0.9183	0.9957	-0.124
Mof_H 	H 	0.389	0.9013	0.0109	0.084
Mof_C 	C 	0.3507	0.725	0.1461	0.087
Mof_H 	H 	0.3266	0.7532	0.1431	-0.016
Mof_C 	C 	0.3382	0.6391	0.7413	-0.13
Mof_H 	H 	0.3563	0.6781	0.7577	0.09
Mof_C 	C 	0.5629	0.4981	0.0932	0.084
Mof_H 	H 	0.5732	0.4669	0.1189	-0.018
Mof_C 	C 	0.4479	0.7871	0.0287	0.086
Mof_C 	C 	0.5328	0.5905	0.0192	-0.145
Mof_H 	H 	0.5236	0.6229	0.9935	0.089
Mof_C 	C 	0.4318	0.7071	0.0848	0.102
Mof_C 	C 	0.287	0.5206	0.6939	0.084
Mof_H 	H 	0.2694	0.4802	0.6777	-0.015
Mof_C 	C 	0.4034	0.9946	0.9685	0.07
Mof_H 	H 	0.3808	0.0289	0.966	-0.014
Mof_C 	C 	0.2138	0.0252	0.6759	-0.147
Mof_H 	H 	0.225	0.0527	0.7023	0.1
Mof_C 	C 	0.3897	0.9766	0.8435	0.085
Mof_H 	H 	0.4127	0.9521	0.8591	-0.011
Mof_C 	C 	0.4422	0.8679	0.9996	0.058
Mof_C 	C 	0.1798	0.9498	0.5988	0.082
Mof_H 	H 	0.1679	0.9237	0.5723	-0.005
Mof_C 	C 	0.2088	0.9014	0.6255	-0.134
Mof_H 	H 	0.2162	0.8438	0.6174	0.093
Mof_C 	C 	0.4077	0.6954	0.1181	0.079
Mof_C 	C 	0.4698	0.8945	0.9759	-0.129
Mof_H 	H 	0.4926	0.8613	0.9776	0.079
Mof_C 	C 	0.3724	0.7397	0.1141	-0.135
Mof_H 	H 	0.3635	0.7784	0.0905	0.094
Mof_C 	C 	0.3677	0.9249	0.8109	-0.135
Mof_H 	H 	0.3755	0.8662	0.805	0.1
Mof_C 	C 	0.1844	0.0684	0.6477	0.085
Mof_H 	H 	0.1757	0.1247	0.6558	-0.008
Mof_C 	C 	0.4198	0.6411	0.1542	-0.136
Mof_H 	H 	0.4435	0.6107	0.1577	0.093
Mof_C 	C 	0.397	0.6317	0.1854	0.085
Mof_H 	H 	0.4058	0.5959	0.2101	-0.022
Mof_C 	C 	0.2793	0.6127	0.6902	-0.137
Mof_H 	H 	0.2572	0.6339	0.6713	0.087
Mof_C 	C 	0.5313	0.5542	0.0927	-0.141
Mof_H 	H 	0.5209	0.5612	0.1178	0.095
Mof_I 	I 	0.76873	0.75378	0.70922	-0.38
Mof_I 	I 	0.88024	0.74255	0.94071	-0.379
Mof_I 	I 	0.87546	0.83618	0.80399	-0.406
Mof_I 	I 	0.97586	0.66392	0.86847	-0.353
Mof_I 	I 	0.14983	0.89784	0.99265	-0.37
Mof_I 	I 	0.10799	0.7583	0.10394	-0.379
Mof_Zn	Zn	0.91743	0.63064	0.90257	1.165
Mof_Zn	Zn	0.83034	0.84787	0.72906	1.163
Mof_Zn	Zn	0.12618	0.89896	0.06437	1.165
Mof_N 	N 	0.86268	0.1725	0.1809	-0.279
Mof_N 	N 	0.8186	0.9863	0.7199	-0.274
Mof_N 	N 	0.7793	0.4481	0.7266	-0.139
Mof_N 	N 	0.93044	0.5209	0.9456	-0.27
Mof_N 	N 	0.87934	0.5604	0.8538	-0.271
Mof_N 	N 	0.76675	0.3081	0.6874	-0.137
Mof_N 	N 	0.07929	0.9867	0.0582	-0.277
Mof_N 	N 	0.82022	0.3209	0.7473	-0.135
Mof_N 	N 	0.66773	0.5323	0.609	-0.275
Mof_C 	C 	0.844	0.0452	0.7428	0.069
Mof_H 	H 	0.8664	0.0222	0.7605	-0.015
Mof_N 	N 	0.96025	0.146	0.0845	-0.132
Mof_N 	N 	0.92479	0.2789	0.0581	-0.133
Mof_C 	C 	0.9817	0.1615	0.0541	0.088
Mof_C 	C 	0.7596	0.396	0.6947	0.088
Mof_N 	N 	0.97634	0.2286	0.0245	-0.145
Mof_C 	C 	0.8466	0.5965	0.8311	0.079
Mof_H 	H 	0.8393	0.6549	0.8382	-0.015
Mof_C 	C 	0.7266	0.4415	0.6649	0.063
Mof_C 	C 	0.8337	0.4619	0.7871	0.07
Mof_C 	C 	0.963	0.471	0.9498	0.077
Mof_H 	H 	0.9819	0.489	0.9343	-0.01
Mof_C 	C 	0.8098	0.4067	0.7516	0.1
Mof_C 	C 	0.0643	0.0326	0.022	0.092
Mof_H 	H 	0.0754	0.0254	0.9974	-0.011
Mof_C 	C 	0.7969	0.2733	0.716	0.101
Mof_C 	C 	0.8049	0.1737	0.7149	0.068
Mof_C 	C 	0.8233	0.5493	0.7972	-0.144
Mof_H 	H 	0.8009	0.5761	0.7814	0.089
Mof_C 	C 	0.0154	0.0997	0.0547	0.067
Mof_C 	C 	0.9082	0.4183	0.9957	-0.124
Mof_H 	H 	0.889	0.4013	0.0109	0.084
Mof_C 	C 	0.8507	0.225	0.1461	0.087
Mof_H 	H 	0.8266	0.2532	0.1431	-0.016
Mof_C 	C 	0.8382	0.1391	0.7413	-0.13
Mof_H 	H 	0.8563	0.1781	0.7577	0.089
Mof_C 	C 	0.0629	0.9981	0.0932	0.083
Mof_H 	H 	0.0732	0.9669	0.1189	-0.018
Mof_C 	C 	0.9479	0.2871	0.0287	0.086
Mof_C 	C 	0.0328	0.0905	0.0192	-0.144
Mof_H 	H 	0.0236	0.1229	0.9935	0.089
Mof_C 	C 	0.9318	0.2071	0.0848	0.102
Mof_C 	C 	0.787	0.0206	0.6939	0.083
Mof_H 	H 	0.7694	0.9802	0.6777	-0.015
Mof_C 	C 	0.9034	0.4946	0.9685	0.069
Mof_H 	H 	0.8808	0.5289	0.966	-0.013
Mof_C 	C 	0.7138	0.5252	0.6759	-0.147
Mof_H 	H 	0.725	0.5527	0.7023	0.1
Mof_C 	C 	0.8897	0.4766	0.8435	0.085
Mof_H 	H 	0.9127	0.4521	0.8591	-0.011
Mof_C 	C 	0.9422	0.3679	0.9996	0.058
Mof_C 	C 	0.6798	0.4498	0.5988	0.082
Mof_H 	H 	0.6679	0.4237	0.5723	-0.005
Mof_C 	C 	0.7088	0.4014	0.6255	-0.134
Mof_H 	H 	0.7162	0.3438	0.6174	0.093
Mof_C 	C 	0.9077	0.1954	0.1181	0.079
Mof_C 	C 	0.9698	0.3945	0.9759	-0.128
Mof_H 	H 	0.9926	0.3613	0.9776	0.079
Mof_C 	C 	0.8724	0.2397	0.1141	-0.135
Mof_H 	H 	0.8635	0.2784	0.0905	0.094
Mof_C 	C 	0.8677	0.4249	0.8109	-0.135
Mof_H 	H 	0.8755	0.3662	0.805	0.099
Mof_C 	C 	0.6844	0.5684	0.6477	0.085
Mof_H 	H 	0.6757	0.6247	0.6558	-0.008
Mof_C 	C 	0.9198	0.1411	0.1542	-0.136
Mof_H 	H 	0.9435	0.1107	0.1577	0.093
Mof_C 	C 	0.897	0.1317	0.1854	0.085
Mof_H 	H 	0.9058	0.0959	0.2101	-0.022
Mof_C 	C 	0.7793	0.1127	0.6902	-0.137
Mof_H 	H 	0.7572	0.1339	0.6713	0.087
Mof_C 	C 	0.0313	0.0542	0.0927	-0.14
Mof_H 	H 	0.0209	0.0612	0.1178	0.095
Mof_I 	I 	0.73127	0.74622	0.29078	-0.38
Mof_I 	I 	0.61976	0.75745	0.05929	-0.379
Mof_I 	I 	0.62454	0.66382	0.19601	-0.406
Mof_I 	I 	0.52414	0.83608	0.13153	-0.353
Mof_I 	I 	0.35017	0.60216	0.00735	-0.371
Mof_I 	I 	0.39201	0.7417	0.89606	-0.379
Mof_Zn	Zn	0.58257	0.86936	0.09743	1.165
Mof_Zn	Zn	0.66966	0.65213	0.27094	1.163
Mof_Zn	Zn	0.37382	0.60104	0.93563	1.165
Mof_N 	N 	0.63732	0.3275	0.8191	-0.279
Mof_N 	N 	0.6814	0.5137	0.2801	-0.275
Mof_N 	N 	0.7207	0.0519	0.2734	-0.139
Mof_N 	N 	0.56956	0.9791	0.0544	-0.27
Mof_N 	N 	0.62066	0.9396	0.1462	-0.271
Mof_N 	N 	0.73325	0.1919	0.3126	-0.137
Mof_N 	N 	0.42071	0.5133	0.9418	-0.277
Mof_N 	N 	0.67978	0.1791	0.2527	-0.135
Mof_N 	N 	0.83227	0.9677	0.391	-0.275
Mof_C 	C 	0.656	0.4548	0.2572	0.069
Mof_H 	H 	0.6336	0.4778	0.2395	-0.015
Mof_N 	N 	0.53975	0.354	0.9155	-0.132
Mof_N 	N 	0.57521	0.2211	0.9419	-0.133
Mof_C 	C 	0.5183	0.3385	0.9459	0.087
Mof_C 	C 	0.7404	0.104	0.3053	0.088
Mof_N 	N 	0.52366	0.2714	0.9755	-0.145
Mof_C 	C 	0.6534	0.9035	0.1689	0.079
Mof_H 	H 	0.6607	0.8451	0.1618	-0.015
Mof_C 	C 	0.7734	0.0585	0.3351	0.064
Mof_C 	C 	0.6663	0.0381	0.2129	0.07
Mof_C 	C 	0.537	0.029	0.0502	0.078
Mof_H 	H 	0.5181	0.011	0.0657	-0.01
Mof_C 	C 	0.6902	0.0933	0.2484	0.1
Mof_C 	C 	0.4357	0.4674	0.978	0.092
Mof_H 	H 	0.4246	0.4746	0.0026	-0.011
Mof_C 	C 	0.7031	0.2267	0.284	0.101
Mof_C 	C 	0.6951	0.3263	0.2851	0.068
Mof_C 	C 	0.6767	0.9507	0.2028	-0.145
Mof_H 	H 	0.6991	0.9239	0.2186	0.089
Mof_C 	C 	0.4846	0.4003	0.9453	0.068
Mof_C 	C 	0.5918	0.0817	0.0043	-0.124
Mof_H 	H 	0.611	0.0987	0.9891	0.084
Mof_C 	C 	0.6493	0.275	0.8539	0.087
Mof_H 	H 	0.6734	0.2468	0.8569	-0.016
Mof_C 	C 	0.6618	0.3609	0.2587	-0.13
Mof_H 	H 	0.6437	0.3219	0.2423	0.09
Mof_C 	C 	0.4371	0.5019	0.9068	0.084
Mof_H 	H 	0.4268	0.5331	0.8811	-0.018
Mof_C 	C 	0.5521	0.2129	0.9713	0.086
Mof_C 	C 	0.4672	0.4095	0.9808	-0.145
Mof_H 	H 	0.4764	0.3771	0.0065	0.089
Mof_C 	C 	0.5682	0.2929	0.9152	0.102
Mof_C 	C 	0.713	0.4794	0.3061	0.084
Mof_H 	H 	0.7306	0.5198	0.3223	-0.015
Mof_C 	C 	0.5966	0.0054	0.0315	0.07
Mof_H 	H 	0.6192	0.9711	0.034	-0.014
Mof_C 	C 	0.7862	0.9748	0.3241	-0.147
Mof_H 	H 	0.775	0.9473	0.2977	0.1
Mof_C 	C 	0.6103	0.0234	0.1565	0.085
Mof_H 	H 	0.5873	0.0479	0.1409	-0.011
Mof_C 	C 	0.5578	0.1321	0.0004	0.058
Mof_C 	C 	0.8202	0.0502	0.4012	0.082
Mof_H 	H 	0.8321	0.0763	0.4277	-0.005
Mof_C 	C 	0.7912	0.0986	0.3745	-0.134
Mof_H 	H 	0.7838	0.1562	0.3826	0.093
Mof_C 	C 	0.5923	0.3046	0.8819	0.079
Mof_C 	C 	0.5302	0.1055	0.0241	-0.129
Mof_H 	H 	0.5074	0.1387	0.0224	0.079
Mof_C 	C 	0.6276	0.2603	0.8859	-0.135
Mof_H 	H 	0.6365	0.2216	0.9095	0.094
Mof_C 	C 	0.6323	0.0751	0.1891	-0.135
Mof_H 	H 	0.6245	0.1338	0.195	0.1
Mof_C 	C 	0.8156	0.9316	0.3523	0.085
Mof_H 	H 	0.8243	0.8753	0.3442	-0.008
Mof_C 	C 	0.5802	0.3589	0.8458	-0.136
Mof_H 	H 	0.5565	0.3893	0.8423	0.093
Mof_C 	C 	0.603	0.3683	0.8146	0.085
Mof_H 	H 	0.5942	0.4041	0.7899	-0.022
Mof_C 	C 	0.7207	0.3873	0.3098	-0.137
Mof_H 	H 	0.7428	0.3661	0.3287	0.087
Mof_C 	C 	0.4687	0.4458	0.9073	-0.141
Mof_H 	H 	0.4791	0.4388	0.8822	0.095
Mof_I 	I 	0.23127	0.24622	0.29078	-0.38
Mof_I 	I 	0.11976	0.25745	0.05929	-0.379
Mof_I 	I 	0.12454	0.16382	0.19601	-0.406
Mof_I 	I 	0.02414	0.33608	0.13153	-0.353
Mof_I 	I 	0.85017	0.10216	0.00735	-0.37
Mof_I 	I 	0.89201	0.2417	0.89606	-0.379
Mof_Zn	Zn	0.08257	0.36936	0.09743	1.165
Mof_Zn	Zn	0.16966	0.15213	0.27094	1.163
Mof_Zn	Zn	0.87382	0.10104	0.93563	1.165
Mof_N 	N 	0.13732	0.8275	0.8191	-0.279
Mof_N 	N 	0.1814	0.0137	0.2801	-0.274
Mof_N 	N 	0.2207	0.5519	0.2734	-0.139
Mof_N 	N 	0.06956	0.4791	0.0544	-0.27
Mof_N 	N 	0.12066	0.4396	0.1462	-0.271
Mof_N 	N 	0.23325	0.6919	0.3126	-0.137
Mof_N 	N 	0.92071	0.0133	0.9418	-0.277
Mof_N 	N 	0.17978	0.6791	0.2527	-0.135
Mof_N 	N 	0.33227	0.4677	0.391	-0.275
Mof_C 	C 	0.156	0.9548	0.2572	0.069
Mof_H 	H 	0.1336	0.9778	0.2395	-0.015
Mof_N 	N 	0.03975	0.854	0.9155	-0.132
Mof_N 	N 	0.07521	0.7211	0.9419	-0.133
Mof_C 	C 	0.0183	0.8385	0.9459	0.088
Mof_C 	C 	0.2404	0.604	0.3053	0.088
Mof_N 	N 	0.02366	0.7714	0.9755	-0.145
Mof_C 	C 	0.1534	0.4035	0.1689	0.079
Mof_H 	H 	0.1607	0.3451	0.1618	-0.015
Mof_C 	C 	0.2734	0.5585	0.3351	0.063
Mof_C 	C 	0.1663	0.5381	0.2129	0.07
Mof_C 	C 	0.037	0.529	0.0502	0.077
Mof_H 	H 	0.0181	0.511	0.0657	-0.01
Mof_C 	C 	0.1902	0.5933	0.2484	0.1
Mof_C 	C 	0.9357	0.9674	0.978	0.092
Mof_H 	H 	0.9246	0.9746	0.0026	-0.011
Mof_C 	C 	0.2031	0.7267	0.284	0.101
Mof_C 	C 	0.1951	0.8263	0.2851	0.068
Mof_C 	C 	0.1767	0.4507	0.2028	-0.144
Mof_H 	H 	0.1991	0.4239	0.2186	0.089
Mof_C 	C 	0.9846	0.9003	0.9453	0.067
Mof_C 	C 	0.0918	0.5817	0.0043	-0.124
Mof_H 	H 	0.111	0.5987	0.9891	0.084
Mof_C 	C 	0.1493	0.775	0.8539	0.087
Mof_H 	H 	0.1734	0.7468	0.8569	-0.016
Mof_C 	C 	0.1618	0.8609	0.2587	-0.13
Mof_H 	H 	0.1437	0.8219	0.2423	0.089
Mof_C 	C 	0.9371	0.0019	0.9068	0.083
Mof_H 	H 	0.9268	0.0331	0.8811	-0.018
Mof_C 	C 	0.0521	0.7129	0.9713	0.086
Mof_C 	C 	0.9672	0.9095	0.9808	-0.144
Mof_H 	H 	0.9764	0.8771	0.0065	0.089
Mof_C 	C 	0.0682	0.7929	0.9152	0.102
Mof_C 	C 	0.213	0.9794	0.3061	0.083
Mof_H 	H 	0.2306	0.0198	0.3223	-0.015
Mof_C 	C 	0.0966	0.5054	0.0315	0.069
Mof_H 	H 	0.1192	0.4711	0.034	-0.013
Mof_C 	C 	0.2862	0.4748	0.3241	-0.147
Mof_H 	H 	0.275	0.4473	0.2977	0.1
Mof_C 	C 	0.1103	0.5234	0.1565	0.085
Mof_H 	H 	0.0873	0.5479	0.1409	-0.011
Mof_C 	C 	0.0578	0.6321	0.0004	0.058
Mof_C 	C 	0.3202	0.5502	0.4012	0.082
Mof_H 	H 	0.3321	0.5763	0.4277	-0.005
Mof_C 	C 	0.2912	0.5986	0.3745	-0.134
Mof_H 	H 	0.2838	0.6562	0.3826	0.093
Mof_C 	C 	0.0923	0.8046	0.8819	0.079
Mof_C 	C 	0.0302	0.6055	0.0241	-0.128
Mof_H 	H 	0.0074	0.6387	0.0224	0.079
Mof_C 	C 	0.1276	0.7603	0.8859	-0.135
Mof_H 	H 	0.1365	0.7216	0.9095	0.094
Mof_C 	C 	0.1323	0.5751	0.1891	-0.135
Mof_H 	H 	0.1245	0.6338	0.195	0.099
Mof_C 	C 	0.3156	0.4316	0.3523	0.085
Mof_H 	H 	0.3243	0.3753	0.3442	-0.008
Mof_C 	C 	0.0802	0.8589	0.8458	-0.136
Mof_H 	H 	0.0565	0.8893	0.8423	0.093
Mof_C 	C 	0.103	0.8683	0.8146	0.085
Mof_H 	H 	0.0942	0.9041	0.7899	-0.022
Mof_C 	C 	0.2207	0.8873	0.3098	-0.137
Mof_H 	H 	0.2428	0.8661	0.3287	0.087
Mof_C 	C 	0.9687	0.9458	0.9073	-0.14
Mof_H 	H 	0.9791	0.9388	0.8822	0.095
Mof_I 	I 	0.73127	0.25378	0.79078	-0.38
Mof_I 	I 	0.61976	0.24255	0.55929	-0.379
Mof_I 	I 	0.62454	0.33618	0.69601	-0.406
Mof_I 	I 	0.52414	0.16392	0.63153	-0.353
Mof_I 	I 	0.35017	0.39784	0.50735	-0.37
Mof_I 	I 	0.39201	0.2583	0.39606	-0.379
Mof_Zn	Zn	0.58257	0.13064	0.59743	1.165
Mof_Zn	Zn	0.66966	0.34787	0.77094	1.163
Mof_Zn	Zn	0.37382	0.39896	0.43563	1.165
Mof_N 	N 	0.63732	0.6725	0.3191	-0.279
Mof_N 	N 	0.6814	0.4863	0.7801	-0.275
Mof_N 	N 	0.7207	0.9481	0.7734	-0.139
Mof_N 	N 	0.56956	0.0209	0.5544	-0.27
Mof_N 	N 	0.62066	0.0604	0.6462	-0.271
Mof_N 	N 	0.73325	0.8081	0.8126	-0.137
Mof_N 	N 	0.42071	0.4867	0.4418	-0.277
Mof_N 	N 	0.67978	0.8209	0.7527	-0.135
Mof_N 	N 	0.83227	0.0323	0.891	-0.275
Mof_C 	C 	0.656	0.5452	0.7572	0.069
Mof_H 	H 	0.6336	0.5222	0.7395	-0.015
Mof_N 	N 	0.53975	0.646	0.4155	-0.132
Mof_N 	N 	0.57521	0.7789	0.4419	-0.133
Mof_C 	C 	0.5183	0.6615	0.4459	0.087
Mof_C 	C 	0.7404	0.896	0.8053	0.087
Mof_N 	N 	0.52366	0.7286	0.4755	-0.145
Mof_C 	C 	0.6534	0.0965	0.6689	0.079
Mof_H 	H 	0.6607	0.1549	0.6618	-0.015
Mof_C 	C 	0.7734	0.9415	0.8351	0.064
Mof_C 	C 	0.6663	0.9619	0.7129	0.07
Mof_C 	C 	0.537	0.971	0.5502	0.077
Mof_H 	H 	0.5181	0.989	0.5657	-0.01
Mof_C 	C 	0.6902	0.9067	0.7484	0.1
Mof_C 	C 	0.4357	0.5326	0.478	0.092
Mof_H 	H 	0.4246	0.5254	0.5026	-0.011
Mof_C 	C 	0.7031	0.7733	0.784	0.101
Mof_C 	C 	0.6951	0.6737	0.7851	0.068
Mof_C 	C 	0.6767	0.0493	0.7028	-0.144
Mof_H 	H 	0.6991	0.0761	0.7186	0.089
Mof_C 	C 	0.4846	0.5997	0.4453	0.068
Mof_C 	C 	0.5918	0.9183	0.5043	-0.124
Mof_H 	H 	0.611	0.9013	0.4891	0.084
Mof_C 	C 	0.6493	0.725	0.3539	0.087
Mof_H 	H 	0.6734	0.7532	0.3569	-0.016
Mof_C 	C 	0.6618	0.6391	0.7587	-0.13
Mof_H 	H 	0.6437	0.6781	0.7423	0.09
Mof_C 	C 	0.4371	0.4981	0.4068	0.084
Mof_H 	H 	0.4268	0.4669	0.3811	-0.018
Mof_C 	C 	0.5521	0.7871	0.4713	0.086
Mof_C 	C 	0.4672	0.5905	0.4808	-0.144
Mof_H 	H 	0.4764	0.6229	0.5065	0.089
Mof_C 	C 	0.5682	0.7071	0.4152	0.102
Mof_C 	C 	0.713	0.5206	0.8061	0.084
Mof_H 	H 	0.7306	0.4802	0.8223	-0.015
Mof_C 	C 	0.5966	0.9946	0.5315	0.069
Mof_H 	H 	0.6192	0.0289	0.534	-0.013
Mof_C 	C 	0.7862	0.0252	0.8241	-0.148
Mof_H 	H 	0.775	0.0527	0.7977	0.1
Mof_C 	C 	0.6103	0.9766	0.6565	0.085
Mof_H 	H 	0.5873	0.9521	0.6409	-0.011
Mof_C 	C 	0.5578	0.8679	0.5004	0.058
Mof_C 	C 	0.8202	0.9498	0.9012	0.083
Mof_H 	H 	0.8321	0.9237	0.9277	-0.005
Mof_C 	C 	0.7912	0.9014	0.8745	-0.134
Mof_H 	H 	0.7838	0.8438	0.8826	0.093
Mof_C 	C 	0.5923	0.6954	0.3819	0.079
Mof_C 	C 	0.5302	0.8945	0.5241	-0.129
Mof_H 	H 	0.5074	0.8613	0.5224	0.079
Mof_C 	C 	0.6276	0.7397	0.3859	-0.135
Mof_H 	H 	0.6365	0.7784	0.4095	0.094
Mof_C 	C 	0.6323	0.9249	0.6891	-0.135
Mof_H 	H 	0.6245	0.8662	0.695	0.1
Mof_C 	C 	0.8156	0.0684	0.8523	0.086
Mof_H 	H 	0.8243	0.1247	0.8442	-0.008
Mof_C 	C 	0.5802	0.6411	0.3458	-0.136
Mof_H 	H 	0.5565	0.6107	0.3423	0.093
Mof_C 	C 	0.603	0.6317	0.3146	0.085
Mof_H 	H 	0.5942	0.5959	0.2899	-0.022
Mof_C 	C 	0.7207	0.6127	0.8098	-0.137
Mof_H 	H 	0.7428	0.6339	0.8287	0.087
Mof_C 	C 	0.4687	0.5542	0.4073	-0.141
Mof_H 	H 	0.4791	0.5612	0.3822	0.095
Mof_I 	I 	0.23127	0.75378	0.79078	-0.38
Mof_I 	I 	0.11976	0.74255	0.55929	-0.379
Mof_I 	I 	0.12454	0.83618	0.69601	-0.406
Mof_I 	I 	0.02414	0.66392	0.63153	-0.353
Mof_I 	I 	0.85017	0.89784	0.50735	-0.37
Mof_I 	I 	0.89201	0.7583	0.39606	-0.379
Mof_Zn	Zn	0.08257	0.63064	0.59743	1.165
Mof_Zn	Zn	0.16966	0.84787	0.77094	1.163
Mof_Zn	Zn	0.87382	0.89896	0.43563	1.165
Mof_N 	N 	0.13732	0.1725	0.3191	-0.279
Mof_N 	N 	0.1814	0.9863	0.7801	-0.274
Mof_N 	N 	0.2207	0.4481	0.7734	-0.139
Mof_N 	N 	0.06956	0.5209	0.5544	-0.27
Mof_N 	N 	0.12066	0.5604	0.6462	-0.271
Mof_N 	N 	0.23325	0.3081	0.8126	-0.137
Mof_N 	N 	0.92071	0.9867	0.4418	-0.277
Mof_N 	N 	0.17978	0.3209	0.7527	-0.135
Mof_N 	N 	0.33227	0.5323	0.891	-0.275
Mof_C 	C 	0.156	0.0452	0.7572	0.069
Mof_H 	H 	0.1336	0.0222	0.7395	-0.015
Mof_N 	N 	0.03975	0.146	0.4155	-0.132
Mof_N 	N 	0.07521	0.2789	0.4419	-0.133
Mof_C 	C 	0.0183	0.1615	0.4459	0.087
Mof_C 	C 	0.2404	0.396	0.8053	0.088
Mof_N 	N 	0.02366	0.2286	0.4755	-0.145
Mof_C 	C 	0.1534	0.5965	0.6689	0.079
Mof_H 	H 	0.1607	0.6549	0.6618	-0.015
Mof_C 	C 	0.2734	0.4415	0.8351	0.063
Mof_C 	C 	0.1663	0.4619	0.7129	0.07
Mof_C 	C 	0.037	0.471	0.5502	0.077
Mof_H 	H 	0.0181	0.489	0.5657	-0.01
Mof_C 	C 	0.1902	0.4067	0.7484	0.1
Mof_C 	C 	0.9357	0.0326	0.478	0.092
Mof_H 	H 	0.9246	0.0254	0.5026	-0.011
Mof_C 	C 	0.2031	0.2733	0.784	0.101
Mof_C 	C 	0.1951	0.1737	0.7851	0.068
Mof_C 	C 	0.1767	0.5493	0.7028	-0.144
Mof_H 	H 	0.1991	0.5761	0.7186	0.089
Mof_C 	C 	0.9846	0.0997	0.4453	0.067
Mof_C 	C 	0.0918	0.4183	0.5043	-0.124
Mof_H 	H 	0.111	0.4013	0.4891	0.084
Mof_C 	C 	0.1493	0.225	0.3539	0.087
Mof_H 	H 	0.1734	0.2532	0.3569	-0.016
Mof_C 	C 	0.1618	0.1391	0.7587	-0.13
Mof_H 	H 	0.1437	0.1781	0.7423	0.089
Mof_C 	C 	0.9371	0.9981	0.4068	0.084
Mof_H 	H 	0.9268	0.9669	0.3811	-0.018
Mof_C 	C 	0.0521	0.2871	0.4713	0.086
Mof_C 	C 	0.9672	0.0905	0.4808	-0.144
Mof_H 	H 	0.9764	0.1229	0.5065	0.089
Mof_C 	C 	0.0682	0.2071	0.4152	0.102
Mof_C 	C 	0.213	0.0206	0.8061	0.083
Mof_H 	H 	0.2306	0.9802	0.8223	-0.015
Mof_C 	C 	0.0966	0.4946	0.5315	0.069
Mof_H 	H 	0.1192	0.5289	0.534	-0.013
Mof_C 	C 	0.2862	0.5252	0.8241	-0.147
Mof_H 	H 	0.275	0.5527	0.7977	0.1
Mof_C 	C 	0.1103	0.4766	0.6565	0.085
Mof_H 	H 	0.0873	0.4521	0.6409	-0.011
Mof_C 	C 	0.0578	0.3679	0.5004	0.058
Mof_C 	C 	0.3202	0.4498	0.9012	0.082
Mof_H 	H 	0.3321	0.4237	0.9277	-0.005
Mof_C 	C 	0.2912	0.4014	0.8745	-0.134
Mof_H 	H 	0.2838	0.3438	0.8826	0.093
Mof_C 	C 	0.0923	0.1954	0.3819	0.079
Mof_C 	C 	0.0302	0.3945	0.5241	-0.129
Mof_H 	H 	0.0074	0.3613	0.5224	0.079
Mof_C 	C 	0.1276	0.2397	0.3859	-0.135
Mof_H 	H 	0.1365	0.2784	0.4095	0.094
Mof_C 	C 	0.1323	0.4249	0.6891	-0.135
Mof_H 	H 	0.1245	0.3662	0.695	0.099
Mof_C 	C 	0.3156	0.5684	0.8523	0.085
Mof_H 	H 	0.3243	0.6247	0.8442	-0.008
Mof_C 	C 	0.0802	0.1411	0.3458	-0.136
Mof_H 	H 	0.0565	0.1107	0.3423	0.093
Mof_C 	C 	0.103	0.1317	0.3146	0.085
Mof_H 	H 	0.0942	0.0959	0.2899	-0.022
Mof_C 	C 	0.2207	0.1127	0.8098	-0.137
Mof_H 	H 	0.2428	0.1339	0.8287	0.087
Mof_C 	C 	0.9687	0.0542	0.4073	-0.141
Mof_H 	H 	0.9791	0.0612	0.3822	0.095
_end
