data_functionalizedCrystal
_audit_creation_method	'EQeq! by Chris Wilmer'
_symmetry_space_group_name_H-M	'P1'
_symmetry_Int_Tables_number	1
_symmetry_cell_setting	triclinic
loop_
_symmetry_equiv_pos_as_xyz
  x,y,z
_cell_length_a	27.201
_cell_length_b	39.705
_cell_length_c	39.705
_cell_angle_alpha	90
_cell_angle_beta	90
_cell_angle_gamma	90
loop_
_atom_site_label
_atom_site_type_symbol
_atom_site_fract_x
_atom_site_fract_y
_atom_site_fract_z
_atom_site_charge
Mof_Cu	Cu	0.03144	0.44071	0.01573	0.739
Mof_Cu	Cu	0.57417	0.98829	0.50963	0.738
Mof_Cu	Cu	0.8227	0.07982	0.75	0.903
Mof_Cu	Cu	0.60511	0.4392	0.01289	0.759
Mof_Cu	Cu	0.03144	0.44071	0.48427	0.739
Mof_Cu	Cu	0.53144	0.48427	0.05929	0.739
Mof_Cu	Cu	0.53144	0.01573	0.44071	0.739
Mof_Cu	Cu	0.57417	0.51171	0.99037	0.738
Mof_Cu	Cu	0.57417	0.98829	0.99037	0.738
Mof_Cu	Cu	0.60511	0.4392	0.48711	0.759
Mof_Cu	Cu	0.82766	0.01277	0.75	0.935
Mof_Cu	Cu	0.8227	0.42018	0.75	0.903
Mof_Cu	Cu	0.10511	0.01289	0.4392	0.759
Mof_Cu	Cu	0.10511	0.01289	0.0608	0.759
Mof_Cu	Cu	0.32766	0.75	0.01277	0.935
Mof_Cu	Cu	0.60511	0.0608	0.01289	0.759
Mof_Cu	Cu	0.10511	0.48711	0.0608	0.759
Mof_Cu	Cu	0.12083	0.25	0.25	0.913
Mof_Cu	Cu	0.53144	0.48427	0.44071	0.739
Mof_Cu	Cu	0.60511	0.0608	0.48711	0.759
Mof_Cu	Cu	0.52358	0.25	0.25	0.899
Mof_Cu	Cu	0.07417	0.50963	0.51171	0.738
Mof_Cu	Cu	0.02358	0.25	0.25	0.899
Mof_Cu	Cu	0.07417	0.99037	0.98829	0.738
Mof_Cu	Cu	0.62083	0.25	0.25	0.913
Mof_Cu	Cu	0.53144	0.01573	0.05929	0.739
Mof_Cu	Cu	0.03144	0.05929	0.01573	0.739
Mof_Cu	Cu	0.3227	0.75	0.07982	0.903
Mof_Cu	Cu	0.57417	0.51171	0.50963	0.738
Mof_Cu	Cu	0.82766	0.48723	0.75	0.935
Mof_Cu	Cu	0.07417	0.99037	0.51171	0.738
Mof_Cu	Cu	0.10511	0.48711	0.4392	0.759
Mof_Cu	Cu	0.3227	0.75	0.42018	0.903
Mof_Cu	Cu	0.07417	0.50963	0.98829	0.738
Mof_Cu	Cu	0.32766	0.75	0.48723	0.935
Mof_Cu	Cu	0.03144	0.05929	0.48427	0.739
Mof_H 	H 	0.6663	0.3779	0.4328	0.165
Mof_H 	H 	0.7027	0.4043	0.5656	0.198
Mof_H 	H 	0.4675	0.8818	0.4059	0.073
Mof_H 	H 	0.5081	0.0387	0.1294	0.131
Mof_H 	H 	0.7513	0.5099	0.6615	0.014
Mof_H 	H 	0.6551	0.5407	0.9203	0.145
Mof_H 	H 	0.4276	0.6695	0.0997	0.005
Mof_H 	H 	0.1193	0.6069	0.5239	0.158
Mof_H 	H 	0.4258	0.6716	0.5018	0.008
Mof_H 	H 	0.1663	0.4328	0.3779	0.165
Mof_H 	H 	0.7513	0.9901	0.8385	0.014
Mof_H 	H 	0.9511	0.0926	0.5272	0.135
Mof_H 	H 	0.4589	0.8818	0.993	0.051
Mof_H 	H 	0.9939	0.1112	0.9524	0.143
Mof_H 	H 	0.469	0.0659	0.1165	0.149
Mof_H 	H 	0.7027	0.0957	0.9344	0.198
Mof_H 	H 	0.845	0.8936	0.801	0.057
Mof_H 	H 	0.845	0.8936	0.699	0.057
Mof_H 	H 	0.6841	0.0985	0.5275	0.161
Mof_H 	H 	0.6349	0.3746	0.4668	0.146
Mof_H 	H 	0.4961	0.3665	0.3657	0.09
Mof_H 	H 	0.6445	0.3632	0.1286	0.086
Mof_H 	H 	0.9258	0.5018	0.8284	0.007
Mof_H 	H 	0.5629	0.8891	0.9879	0.154
Mof_H 	H 	0.9961	0.1343	0.1335	0.089
Mof_H 	H 	0.4981	0.1758	0.3247	-0.001
Mof_H 	H 	0.7027	0.0957	0.5656	0.197
Mof_H 	H 	0.4589	0.6182	0.993	0.05
Mof_H 	H 	0.7104	0.4111	0.8317	0.015
Mof_H 	H 	0.5047	0.0748	0.3527	0.176
Mof_H 	H 	0.6254	0.3491	0.4363	0.192
Mof_H 	H 	0.1663	0.0672	0.3779	0.164
Mof_H 	H 	0.9511	0.0926	0.9728	0.134
Mof_H 	H 	0.4511	0.5272	0.4074	0.134
Mof_H 	H 	0.4461	0.933	0.098	0.173
Mof_H 	H 	0.6622	0.0829	0.881	0.081
Mof_H 	H 	0.5629	0.6109	0.9879	0.154
Mof_H 	H 	0.1458	0.327	0.176	-0
Mof_H 	H 	0.4258	0.8284	0.5018	0.007
Mof_H 	H 	0.9461	0.402	0.933	0.173
Mof_H 	H 	0.0643	0.5341	0.9229	0.09
Mof_H 	H 	0.6458	0.176	0.327	-0
Mof_H 	H 	0.1841	0.5275	0.0985	0.16
Mof_H 	H 	0.8342	0.9521	0.801	0.01
Mof_H 	H 	0.9589	0.993	0.8818	0.05
Mof_H 	H 	0.4461	0.567	0.402	0.173
Mof_H 	H 	0.7104	0.4111	0.6683	0.015
Mof_H 	H 	0.1193	0.8931	0.9761	0.157
Mof_H 	H 	0.969	0.3835	0.4341	0.148
Mof_H 	H 	0.5974	0.9617	0.9277	0.092
Mof_H 	H 	0.2513	0.6615	0.5099	0.013
Mof_H 	H 	0.9258	0.9982	0.8284	0.007
Mof_H 	H 	0.1445	0.3714	0.3632	0.085
Mof_H 	H 	0.1458	0.173	0.324	-0
Mof_H 	H 	0.345	0.699	0.8936	0.056
Mof_H 	H 	0.2027	0.5656	0.4043	0.197
Mof_H 	H 	0.0974	0.9277	0.9617	0.092
Mof_H 	H 	0.0047	0.1473	0.0748	0.176
Mof_H 	H 	0.4981	0.1758	0.1753	-0.001
Mof_H 	H 	0.2027	0.5656	0.0957	0.197
Mof_H 	H 	0.9276	0.0997	0.6695	0.004
Mof_H 	H 	0.4675	0.8818	0.0941	0.072
Mof_H 	H 	0.5974	0.5383	0.5723	0.092
Mof_H 	H 	0.2513	0.8385	0.9901	0.013
Mof_H 	H 	0.9675	0.0941	0.6182	0.072
Mof_H 	H 	0.6488	0.3902	0.5577	0.189
Mof_H 	H 	0.1193	0.6069	0.9761	0.157
Mof_H 	H 	0.4511	0.5272	0.0926	0.134
Mof_H 	H 	0.1254	0.4363	0.1509	0.192
Mof_H 	H 	0.1349	0.0332	0.1254	0.145
Mof_H 	H 	0.4276	0.6695	0.4003	0.004
Mof_H 	H 	0.0629	0.5121	0.6109	0.154
Mof_H 	H 	0.1841	0.9725	0.4015	0.16
Mof_H 	H 	0.0047	0.3527	0.4252	0.176
Mof_H 	H 	0.712	0.9864	0.6086	0.064
Mof_H 	H 	0.1254	0.0637	0.3491	0.192
Mof_H 	H 	0.6254	0.3491	0.0637	0.192
Mof_H 	H 	0.9939	0.3888	0.9524	0.142
Mof_H 	H 	0.1488	0.9423	0.3902	0.189
Mof_H 	H 	0.5974	0.9617	0.5723	0.092
Mof_H 	H 	0.5081	0.0387	0.3706	0.13
Mof_H 	H 	0.2513	0.6615	0.9901	0.013
Mof_H 	H 	0.9939	0.3888	0.5476	0.142
Mof_H 	H 	0.5643	0.9229	0.9659	0.09
Mof_H 	H 	0.2104	0.8317	0.4111	0.015
Mof_H 	H 	0.2513	0.8385	0.5099	0.013
Mof_H 	H 	0.6254	0.1509	0.4363	0.192
Mof_H 	H 	0.7513	0.5099	0.8385	0.013
Mof_H 	H 	0.6445	0.3632	0.3714	0.085
Mof_H 	H 	0.7513	0.9901	0.6615	0.013
Mof_H 	H 	0.845	0.6064	0.801	0.056
Mof_H 	H 	0.4939	0.9524	0.1112	0.142
Mof_H 	H 	0.9981	0.1753	0.3242	-0.001
Mof_H 	H 	0.9589	0.507	0.8818	0.05
Mof_H 	H 	0.4258	0.8284	0.9982	0.007
Mof_H 	H 	0.6663	0.3779	0.0672	0.164
Mof_H 	H 	0.6193	0.5239	0.8931	0.157
Mof_H 	H 	0.2027	0.9344	0.0957	0.197
Mof_H 	H 	0.1622	0.619	0.0829	0.081
Mof_H 	H 	0.4461	0.567	0.098	0.173
Mof_H 	H 	0.0629	0.9879	0.8891	0.154
Mof_H 	H 	0.3342	0.801	0.5479	0.01
Mof_H 	H 	0.8505	0.6357	0.75	0.028
Mof_H 	H 	0.212	0.6086	0.5136	0.064
Mof_H 	H 	0.6622	0.4171	0.881	0.081
Mof_H 	H 	0.345	0.699	0.6064	0.056
Mof_H 	H 	0.5629	0.6109	0.5121	0.154
Mof_H 	H 	0.3342	0.801	0.9521	0.01
Mof_H 	H 	0.5081	0.4613	0.3706	0.13
Mof_H 	H 	0.4511	0.9728	0.0926	0.134
Mof_H 	H 	0.1488	0.5577	0.1098	0.189
Mof_H 	H 	0.9961	0.1343	0.3665	0.089
Mof_H 	H 	0.2027	0.9344	0.4043	0.197
Mof_H 	H 	0.4981	0.3242	0.3247	-0.001
Mof_H 	H 	0.015	0.9678	0.5989	0.14
Mof_H 	H 	0.9511	0.4074	0.9728	0.134
Mof_H 	H 	0.4961	0.1335	0.3657	0.089
Mof_H 	H 	0.4589	0.6182	0.507	0.05
Mof_H 	H 	0.1551	0.9203	0.5407	0.144
Mof_H 	H 	0.0081	0.1294	0.0387	0.13
Mof_H 	H 	0.6458	0.176	0.173	-0
Mof_H 	H 	0.712	0.9864	0.8914	0.064
Mof_H 	H 	0.6193	0.9761	0.8931	0.157
Mof_H 	H 	0.0974	0.5723	0.9617	0.092
Mof_H 	H 	0.6349	0.1254	0.4668	0.145
Mof_H 	H 	0.4675	0.6182	0.4059	0.072
Mof_H 	H 	0.4511	0.9728	0.4074	0.134
Mof_H 	H 	0.9461	0.402	0.567	0.173
Mof_H 	H 	0.6254	0.1509	0.0637	0.192
Mof_H 	H 	0.1445	0.1286	0.3632	0.085
Mof_H 	H 	0.6551	0.9593	0.5797	0.144
Mof_H 	H 	0.1254	0.0637	0.1509	0.192
Mof_H 	H 	0.6488	0.3902	0.9423	0.189
Mof_H 	H 	0.1488	0.5577	0.3902	0.189
Mof_H 	H 	0.6841	0.0985	0.9725	0.161
Mof_H 	H 	0.6663	0.1221	0.4328	0.164
Mof_H 	H 	0.9961	0.3657	0.1335	0.089
Mof_H 	H 	0.515	0.9011	0.5322	0.14
Mof_H 	H 	0.6193	0.9761	0.6069	0.157
Mof_H 	H 	0.0643	0.5341	0.5771	0.09
Mof_H 	H 	0.015	0.5322	0.9011	0.14
Mof_H 	H 	0.1622	0.881	0.4171	0.081
Mof_H 	H 	0.0081	0.3706	0.0387	0.13
Mof_H 	H 	0.3505	0.75	0.6357	0.028
Mof_H 	H 	0.2104	0.8317	0.0889	0.015
Mof_H 	H 	0.6349	0.1254	0.0332	0.145
Mof_H 	H 	0.1551	0.5797	0.5407	0.144
Mof_H 	H 	0.9276	0.4003	0.6695	0.004
Mof_H 	H 	0.712	0.5136	0.8914	0.064
Mof_H 	H 	0.469	0.0659	0.3835	0.148
Mof_H 	H 	0.3505	0.75	0.8643	0.028
Mof_H 	H 	0.6841	0.4015	0.5275	0.16
Mof_H 	H 	0.6445	0.1368	0.3714	0.085
Mof_H 	H 	0.5974	0.5383	0.9277	0.092
Mof_H 	H 	0.0047	0.1473	0.4252	0.176
Mof_H 	H 	0.345	0.801	0.6064	0.056
Mof_H 	H 	0.9589	0.993	0.6182	0.05
Mof_H 	H 	0.9258	0.5018	0.6716	0.007
Mof_H 	H 	0.6488	0.1098	0.9423	0.19
Mof_H 	H 	0.9675	0.4059	0.8818	0.072
Mof_H 	H 	0.9981	0.3247	0.1758	-0.001
Mof_H 	H 	0.6622	0.4171	0.619	0.081
Mof_H 	H 	0.0081	0.3706	0.4613	0.129
Mof_H 	H 	0.969	0.3835	0.0659	0.148
Mof_H 	H 	0.2104	0.6683	0.4111	0.015
Mof_H 	H 	0.0643	0.9659	0.9229	0.09
Mof_H 	H 	0.845	0.6064	0.699	0.056
Mof_H 	H 	0.1622	0.881	0.0829	0.081
Mof_H 	H 	0.969	0.1165	0.4341	0.148
Mof_H 	H 	0.0643	0.9659	0.5771	0.09
Mof_H 	H 	0.6458	0.324	0.173	-0
Mof_H 	H 	0.8342	0.5479	0.699	0.01
Mof_H 	H 	0.6551	0.5407	0.5797	0.144
Mof_H 	H 	0.1349	0.4668	0.1254	0.145
Mof_H 	H 	0.1458	0.173	0.176	-0
Mof_H 	H 	0.9276	0.4003	0.8305	0.004
Mof_H 	H 	0.515	0.5989	0.5322	0.14
Mof_H 	H 	0.4258	0.6716	0.9982	0.007
Mof_H 	H 	0.9276	0.0997	0.8305	0.004
Mof_H 	H 	0.5047	0.4252	0.1473	0.176
Mof_H 	H 	0.1193	0.8931	0.5239	0.157
Mof_H 	H 	0.0974	0.9277	0.5383	0.092
Mof_H 	H 	0.1663	0.0672	0.1221	0.164
Mof_H 	H 	0.9961	0.3657	0.3665	0.089
Mof_H 	H 	0.3342	0.699	0.5479	0.01
Mof_H 	H 	0.9981	0.1753	0.1758	-0.001
Mof_H 	H 	0.0081	0.1294	0.4613	0.129
Mof_H 	H 	0.9675	0.0941	0.8818	0.072
Mof_H 	H 	0.5047	0.0748	0.1473	0.176
Mof_H 	H 	0.7027	0.4043	0.9344	0.197
Mof_H 	H 	0.1488	0.9423	0.1098	0.19
Mof_H 	H 	0.8342	0.9521	0.699	0.01
Mof_H 	H 	0.8505	0.8643	0.75	0.028
Mof_H 	H 	0.469	0.4341	0.1165	0.148
Mof_H 	H 	0.515	0.5989	0.9678	0.14
Mof_H 	H 	0.6488	0.1098	0.5577	0.189
Mof_H 	H 	0.0629	0.5121	0.8891	0.154
Mof_H 	H 	0.6663	0.1221	0.0672	0.164
Mof_H 	H 	0.1349	0.0332	0.3746	0.145
Mof_H 	H 	0.015	0.9678	0.9011	0.14
Mof_H 	H 	0.1458	0.327	0.324	-0
Mof_H 	H 	0.515	0.9011	0.9678	0.14
Mof_H 	H 	0.0974	0.5723	0.5383	0.092
Mof_H 	H 	0.2104	0.6683	0.0889	0.015
Mof_H 	H 	0.7104	0.0889	0.6683	0.015
Mof_H 	H 	0.6622	0.0829	0.619	0.081
Mof_H 	H 	0.4939	0.9524	0.3888	0.142
Mof_H 	H 	0.5081	0.4613	0.1294	0.13
Mof_H 	H 	0.9589	0.507	0.6182	0.05
Mof_H 	H 	0.9981	0.3247	0.3242	-0.001
Mof_H 	H 	0.4589	0.8818	0.507	0.05
Mof_H 	H 	0.0047	0.3527	0.0748	0.176
Mof_H 	H 	0.5643	0.5771	0.5341	0.09
Mof_H 	H 	0.9511	0.4074	0.5272	0.134
Mof_H 	H 	0.1841	0.9725	0.0985	0.161
Mof_H 	H 	0.4939	0.5476	0.1112	0.142
Mof_H 	H 	0.4675	0.6182	0.0941	0.072
Mof_H 	H 	0.6841	0.4015	0.9725	0.16
Mof_H 	H 	0.6193	0.5239	0.6069	0.157
Mof_H 	H 	0.6445	0.1368	0.1286	0.085
Mof_H 	H 	0.4939	0.5476	0.3888	0.142
Mof_H 	H 	0.5643	0.9229	0.5341	0.09
Mof_H 	H 	0.1663	0.4328	0.1221	0.164
Mof_H 	H 	0.969	0.1165	0.0659	0.148
Mof_H 	H 	0.5629	0.8891	0.5121	0.154
Mof_H 	H 	0.4961	0.1335	0.1343	0.089
Mof_H 	H 	0.469	0.4341	0.3835	0.148
Mof_H 	H 	0.212	0.8914	0.5136	0.064
Mof_H 	H 	0.4276	0.8305	0.0997	0.004
Mof_H 	H 	0.7104	0.0889	0.8317	0.015
Mof_H 	H 	0.9461	0.098	0.933	0.173
Mof_H 	H 	0.1841	0.5275	0.4015	0.16
Mof_H 	H 	0.8342	0.5479	0.801	0.01
Mof_H 	H 	0.0629	0.9879	0.6109	0.154
Mof_H 	H 	0.1551	0.5797	0.9593	0.144
Mof_H 	H 	0.1349	0.4668	0.3746	0.145
Mof_H 	H 	0.1622	0.619	0.4171	0.081
Mof_H 	H 	0.212	0.6086	0.9864	0.064
Mof_H 	H 	0.345	0.801	0.8936	0.056
Mof_H 	H 	0.4961	0.3665	0.1343	0.089
Mof_H 	H 	0.6551	0.9593	0.9203	0.144
Mof_H 	H 	0.6349	0.3746	0.0332	0.145
Mof_H 	H 	0.4461	0.933	0.402	0.173
Mof_H 	H 	0.1551	0.9203	0.9593	0.144
Mof_H 	H 	0.9939	0.1112	0.5476	0.142
Mof_H 	H 	0.1445	0.1286	0.1368	0.085
Mof_H 	H 	0.4981	0.3242	0.1753	-0.001
Mof_H 	H 	0.6458	0.324	0.327	-0
Mof_H 	H 	0.9675	0.4059	0.6182	0.072
Mof_H 	H 	0.3342	0.699	0.9521	0.01
Mof_H 	H 	0.4276	0.8305	0.4003	0.004
Mof_H 	H 	0.5643	0.5771	0.9659	0.09
Mof_H 	H 	0.1445	0.3714	0.1368	0.085
Mof_H 	H 	0.212	0.8914	0.9864	0.064
Mof_H 	H 	0.9461	0.098	0.567	0.173
Mof_H 	H 	0.015	0.5322	0.5989	0.14
Mof_H 	H 	0.5047	0.4252	0.3527	0.176
Mof_H 	H 	0.712	0.5136	0.6086	0.064
Mof_H 	H 	0.1254	0.4363	0.3491	0.192
Mof_H 	H 	0.9258	0.9982	0.6716	0.007
Mof_C 	C 	0.494	0.5546	0.0598	0.178
Mof_C 	C 	0.5958	0.1038	0.4279	0.23
Mof_C 	C 	0.1145	0.3617	0.1443	-0.209
Mof_C 	C 	0.189	0.6094	0.0355	0.143
Mof_C 	C 	0.969	0.0933	0.9514	-0.542
Mof_C 	C 	0.0685	0.1009	0.3957	-0.248
Mof_C 	C 	0.7346	0.46	0.831	-0.121
Mof_C 	C 	0.1741	0.9493	0.0937	-0.603
Mof_C 	C 	0.1741	0.9493	0.4063	-0.603
Mof_C 	C 	0.3866	0.7959	0.4504	0.428
Mof_C 	C 	0.2346	0.831	0.04	-0.121
Mof_C 	C 	0.2352	0.848	0.0091	0.051
Mof_C 	C 	0.0439	0.5196	0.5913	-0.503
Mof_C 	C 	0.9191	0.4516	0.8249	-0.183
Mof_C 	C 	0.3428	0.78022	0.5944	-0.099
Mof_C 	C 	0.1256	0.9172	0.527	-0.526
Mof_C 	C 	0.0021	0.1258	0.4372	-0.559
Mof_C 	C 	0.5282	0.3324	0.3338	0.119
Mof_C 	C 	0.8364	0.9402	0.78019	0.045
Mof_C 	C 	0.9191	0.0484	0.6751	-0.183
Mof_C 	C 	0.0282	0.3338	0.1676	0.119
Mof_C 	C 	0.0273	0.0112	0.5709	0.126
Mof_C 	C 	0.3364	0.71981	0.5598	0.045
Mof_C 	C 	0.6145	0.3557	0.3617	-0.209
Mof_C 	C 	0.266	0.7969	0.4595	0.371
Mof_C 	C 	0.8364	0.5598	0.78019	0.045
Mof_C 	C 	0.766	0.4595	0.7969	0.371
Mof_C 	C 	0.9191	0.4516	0.6751	-0.183
Mof_C 	C 	0.5282	0.3324	0.1662	0.119
Mof_C 	C 	0.5021	0.4372	0.3742	-0.559
Mof_C 	C 	0.5685	0.3957	0.1009	-0.248
Mof_C 	C 	0.5767	0.2061	0.2957	0.446
Mof_C 	C 	0.0273	0.4888	0.9291	0.126
Mof_C 	C 	0.4717	0.887	0.0442	0.126
Mof_C 	C 	0.0001	0.0381	0.9183	-0.216
Mof_C 	C 	0.133	0.9335	0.4932	0.192
Mof_C 	C 	0.5721	0.3195	0.1782	-0.2
Mof_C 	C 	0.8428	0.9056	0.78022	-0.099
Mof_C 	C 	0.494	0.5546	0.4402	0.178
Mof_C 	C 	0.7094	0.0681	0.6565	0.06
Mof_C 	C 	0.469	0.9514	0.0933	-0.542
Mof_C 	C 	0.2352	0.848	0.4909	0.051
Mof_C 	C 	0.5267	0.1427	0.1413	-0.212
Mof_C 	C 	0.3428	0.71978	0.5944	-0.099
Mof_C 	C 	0.9584	0.4261	0.8706	-0.181
Mof_C 	C 	0.0282	0.1662	0.1676	0.119
Mof_C 	C 	0.994	0.4402	0.9454	0.178
Mof_C 	C 	0.4327	0.8404	0.4817	0.086
Mof_C 	C 	0.1741	0.5507	0.0937	-0.603
Mof_C 	C 	0.5721	0.1805	0.1782	-0.2
Mof_C 	C 	0.5439	0.5913	0.5196	-0.503
Mof_C 	C 	0.659	0.4661	0.5774	-0.225
Mof_C 	C 	0.4327	0.6596	0.4817	0.086
Mof_C 	C 	0.0958	0.4279	0.3962	0.23
Mof_C 	C 	0.7094	0.0681	0.8435	0.06
Mof_C 	C 	0.683	0.4346	0.8731	-0.181
Mof_C 	C 	0.133	0.5665	0.0068	0.192
Mof_C 	C 	0.1256	0.5828	0.973	-0.526
Mof_C 	C 	0.5021	0.0628	0.1258	-0.559
Mof_C 	C 	0.0021	0.3742	0.4372	-0.559
Mof_C 	C 	0.5267	0.3573	0.3587	-0.212
Mof_C 	C 	0.8428	0.5944	0.78022	-0.099
Mof_C 	C 	0.6537	0.0582	0.5528	0.222
Mof_C 	C 	0.659	0.0339	0.5774	-0.226
Mof_C 	C 	0.689	0.4645	0.8906	0.143
Mof_C 	C 	0.0958	0.0721	0.1038	0.23
Mof_C 	C 	0.4191	0.6751	0.4516	-0.183
Mof_C 	C 	0.994	0.4402	0.5546	0.178
Mof_C 	C 	0.7121	0.4932	0.8788	-0.182
Mof_C 	C 	0.4338	0.8401	0.0782	0.085
Mof_C 	C 	0.5267	0.1427	0.3587	-0.212
Mof_C 	C 	0.7352	0.4909	0.652	0.051
Mof_C 	C 	0.5267	0.3573	0.1413	-0.212
Mof_C 	C 	0.1537	0.9472	0.0582	0.222
Mof_C 	C 	0.8462	0.6119	0.75	0.019
Mof_C 	C 	0.7121	0.0068	0.8788	-0.181
Mof_C 	C 	0.183	0.6269	0.4346	-0.181
Mof_C 	C 	0.9191	0.0484	0.8249	-0.183
Mof_C 	C 	0.2094	0.8435	0.0681	0.06
Mof_C 	C 	0.1537	0.9472	0.4418	0.222
Mof_C 	C 	0.494	0.9454	0.4402	0.178
Mof_C 	C 	0.3462	0.75	0.8881	0.019
Mof_C 	C 	0.0685	0.1009	0.1043	-0.248
Mof_C 	C 	0.0702	0.3733	0.1316	0.178
Mof_C 	C 	0.6537	0.4418	0.5528	0.222
Mof_C 	C 	0.6256	0.527	0.9172	-0.526
Mof_C 	C 	0.1151	0.1645	0.3318	0.11
Mof_C 	C 	0.5273	0.9291	0.0112	0.127
Mof_C 	C 	0.5721	0.1805	0.3218	-0.2
Mof_C 	C 	0.5439	0.9087	0.5196	-0.503
Mof_C 	C 	0.7346	0.46	0.669	-0.121
Mof_C 	C 	0.2094	0.8435	0.4319	0.06
Mof_C 	C 	0.955	0.4855	0.8716	-0.198
Mof_C 	C 	0.5685	0.1043	0.1009	-0.248
Mof_C 	C 	0.2346	0.669	0.04	-0.121
Mof_C 	C 	0.994	0.0598	0.9454	0.178
Mof_C 	C 	0.266	0.7969	0.0405	0.371
Mof_C 	C 	0.9717	0.4558	0.613	0.126
Mof_C 	C 	0.683	0.0654	0.6269	-0.181
Mof_C 	C 	0.766	0.0405	0.7031	0.371
Mof_C 	C 	0.6741	0.4063	0.9493	-0.603
Mof_C 	C 	0.633	0.0068	0.9335	0.192
Mof_C 	C 	0.5767	0.2939	0.2957	0.446
Mof_C 	C 	0.1537	0.5528	0.0582	0.222
Mof_C 	C 	0.689	0.4645	0.6094	0.143
Mof_C 	C 	0.633	0.4932	0.9335	0.192
Mof_C 	C 	0.955	0.0145	0.6284	-0.198
Mof_C 	C 	0.955	0.0145	0.8716	-0.197
Mof_C 	C 	0.469	0.9514	0.4067	-0.542
Mof_C 	C 	0.5001	0.9183	0.0381	-0.216
Mof_C 	C 	0.7352	0.0091	0.848	0.051
Mof_C 	C 	0.0273	0.4888	0.5709	0.126
Mof_C 	C 	0.0767	0.2957	0.2061	0.446
Mof_C 	C 	0.6741	0.0937	0.9493	-0.603
Mof_C 	C 	0.5767	0.2061	0.2043	0.446
Mof_C 	C 	0.159	0.9226	0.4661	-0.226
Mof_C 	C 	0.2094	0.6565	0.0681	0.06
Mof_C 	C 	0.5399	0.4234	0.3987	0.215
Mof_C 	C 	0.2121	0.8788	0.4932	-0.182
Mof_C 	C 	0.5282	0.1676	0.1662	0.119
Mof_C 	C 	0.0399	0.1013	0.0766	0.215
Mof_C 	C 	0.3428	0.71978	0.9056	-0.099
Mof_C 	C 	0.6151	0.1682	0.3355	0.11
Mof_C 	C 	0.159	0.5774	0.4661	-0.225
Mof_C 	C 	0.4327	0.6596	0.0183	0.086
Mof_C 	C 	0.683	0.0654	0.8731	-0.181
Mof_C 	C 	0.634	0.3724	0.4422	-0.583
Mof_C 	C 	0.455	0.8716	0.4855	-0.198
Mof_C 	C 	0.4327	0.8404	0.0183	0.086
Mof_C 	C 	0.633	0.0068	0.5665	0.192
Mof_C 	C 	0.5001	0.5817	0.0381	-0.215
Mof_C 	C 	0.6256	0.527	0.5828	-0.526
Mof_C 	C 	0.159	0.5774	0.0339	-0.226
Mof_C 	C 	0.7121	0.0068	0.6212	-0.182
Mof_C 	C 	0.5273	0.5709	0.4888	0.126
Mof_C 	C 	0.955	0.4855	0.6284	-0.198
Mof_C 	C 	0.2121	0.6212	0.4932	-0.182
Mof_C 	C 	0.634	0.1276	0.0578	-0.583
Mof_C 	C 	0.2346	0.831	0.46	-0.121
Mof_C 	C 	0.5439	0.5913	0.9804	-0.503
Mof_C 	C 	0.5685	0.1043	0.3991	-0.248
Mof_C 	C 	0.8428	0.9056	0.71978	-0.099
Mof_C 	C 	0.4338	0.6599	0.4218	0.085
Mof_C 	C 	0.1537	0.5528	0.4418	0.222
Mof_C 	C 	0.0021	0.1258	0.0628	-0.559
Mof_C 	C 	0.3364	0.78019	0.5598	0.045
Mof_C 	C 	0.4717	0.613	0.4558	0.126
Mof_C 	C 	0.8866	0.4504	0.7041	0.428
Mof_C 	C 	0.183	0.8731	0.4346	-0.181
Mof_C 	C 	0.0439	0.5196	0.9087	-0.503
Mof_C 	C 	0.5273	0.9291	0.4888	0.126
Mof_C 	C 	0.9338	0.4218	0.6599	0.085
Mof_C 	C 	0.0267	0.3587	0.1427	-0.212
Mof_C 	C 	0.4191	0.8249	0.0484	-0.183
Mof_C 	C 	0.3364	0.71981	0.9402	0.045
Mof_C 	C 	0.0702	0.3733	0.3684	0.178
Mof_C 	C 	0.0273	0.0112	0.9291	0.127
Mof_C 	C 	0.5958	0.3962	0.0721	0.23
Mof_C 	C 	0.969	0.0933	0.5486	-0.542
Mof_C 	C 	0.7346	0.04	0.831	-0.121
Mof_C 	C 	0.183	0.8731	0.0654	-0.181
Mof_C 	C 	0.8364	0.5598	0.71981	0.045
Mof_C 	C 	0.5282	0.1676	0.3338	0.119
Mof_C 	C 	0.0767	0.2043	0.2061	0.446
Mof_C 	C 	0.5721	0.3195	0.3218	-0.2
Mof_C 	C 	0.1145	0.1383	0.3557	-0.209
Mof_C 	C 	0.7352	0.4909	0.848	0.051
Mof_C 	C 	0.6145	0.1443	0.3617	-0.209
Mof_C 	C 	0.4584	0.6294	0.4261	-0.181
Mof_C 	C 	0.9327	0.4817	0.8404	0.086
Mof_C 	C 	0.0282	0.1662	0.3324	0.119
Mof_C 	C 	0.0021	0.3742	0.0628	-0.559
Mof_C 	C 	0.766	0.0405	0.7969	0.371
Mof_C 	C 	0.6741	0.4063	0.5507	-0.603
Mof_C 	C 	0.4584	0.6294	0.0739	-0.181
Mof_C 	C 	0.689	0.0355	0.6094	0.143
Mof_C 	C 	0.1256	0.9172	0.973	-0.527
Mof_C 	C 	0.133	0.5665	0.4932	0.192
Mof_C 	C 	0.2094	0.6565	0.4319	0.06
Mof_C 	C 	0.4717	0.613	0.0442	0.126
Mof_C 	C 	0.6151	0.3318	0.1645	0.11
Mof_C 	C 	0.9327	0.0183	0.8404	0.086
Mof_C 	C 	0.266	0.7031	0.0405	0.371
Mof_C 	C 	0.133	0.9335	0.0068	0.192
Mof_C 	C 	0.659	0.0339	0.9226	-0.226
Mof_C 	C 	0.0267	0.1413	0.1427	-0.212
Mof_C 	C 	0.1145	0.3617	0.3557	-0.209
Mof_C 	C 	0.0399	0.3987	0.0766	0.215
Mof_C 	C 	0.0439	0.9804	0.9087	-0.503
Mof_C 	C 	0.1151	0.1645	0.1682	0.11
Mof_C 	C 	0.9584	0.4261	0.6294	-0.181
Mof_C 	C 	0.8364	0.9402	0.71981	0.045
Mof_C 	C 	0.0721	0.3218	0.3195	-0.2
Mof_C 	C 	0.469	0.5486	0.0933	-0.542
Mof_C 	C 	0.634	0.1276	0.4422	-0.583
Mof_C 	C 	0.5399	0.4234	0.1013	0.215
Mof_C 	C 	0.494	0.9454	0.0598	0.178
Mof_C 	C 	0.0721	0.3218	0.1805	-0.2
Mof_C 	C 	0.6151	0.3318	0.3355	0.11
Mof_C 	C 	0.0001	0.4619	0.9183	-0.216
Mof_C 	C 	0.0282	0.3338	0.3324	0.119
Mof_C 	C 	0.3428	0.78022	0.9056	-0.099
Mof_C 	C 	0.189	0.6094	0.4645	0.143
Mof_C 	C 	0.9338	0.4218	0.8401	0.085
Mof_C 	C 	0.0399	0.3987	0.4234	0.215
Mof_C 	C 	0.5702	0.3684	0.3733	0.178
Mof_C 	C 	0.3866	0.7041	0.0496	0.428
Mof_C 	C 	0.634	0.3724	0.0578	-0.583
Mof_C 	C 	0.0702	0.1267	0.3684	0.178
Mof_C 	C 	0.3866	0.7041	0.4504	0.428
Mof_C 	C 	0.0001	0.0381	0.5817	-0.215
Mof_C 	C 	0.0685	0.3991	0.1043	-0.248
Mof_C 	C 	0.134	0.0578	0.1276	-0.583
Mof_C 	C 	0.4191	0.8249	0.4516	-0.183
Mof_C 	C 	0.189	0.8906	0.4645	0.143
Mof_C 	C 	0.633	0.4932	0.5665	0.192
Mof_C 	C 	0.4584	0.8706	0.4261	-0.181
Mof_C 	C 	0.0267	0.3587	0.3573	-0.212
Mof_C 	C 	0.189	0.8906	0.0355	0.143
Mof_C 	C 	0.5273	0.5709	0.0112	0.126
Mof_C 	C 	0.9327	0.4817	0.6596	0.086
Mof_C 	C 	0.994	0.0598	0.5546	0.178
Mof_C 	C 	0.9584	0.0739	0.6294	-0.181
Mof_C 	C 	0.4717	0.887	0.4558	0.126
Mof_C 	C 	0.5702	0.3684	0.1267	0.178
Mof_C 	C 	0.0702	0.1267	0.1316	0.178
Mof_C 	C 	0.5958	0.3962	0.4279	0.23
Mof_C 	C 	0.6537	0.0582	0.9472	0.222
Mof_C 	C 	0.134	0.4422	0.1276	-0.583
Mof_C 	C 	0.9717	0.0442	0.887	0.126
Mof_C 	C 	0.455	0.8716	0.0145	-0.197
Mof_C 	C 	0.7094	0.4319	0.6565	0.06
Mof_C 	C 	0.455	0.6284	0.0145	-0.198
Mof_C 	C 	0.6145	0.3557	0.1383	-0.209
Mof_C 	C 	0.2346	0.669	0.46	-0.121
Mof_C 	C 	0.0958	0.0721	0.3962	0.23
Mof_C 	C 	0.5021	0.0628	0.3742	-0.559
Mof_C 	C 	0.2352	0.652	0.4909	0.051
Mof_C 	C 	0.9717	0.4558	0.887	0.126
Mof_C 	C 	0.2121	0.6212	0.0068	-0.181
Mof_C 	C 	0.8866	0.0496	0.7959	0.428
Mof_C 	C 	0.8462	0.8881	0.75	0.019
Mof_C 	C 	0.0721	0.1782	0.3195	-0.2
Mof_C 	C 	0.183	0.6269	0.0654	-0.181
Mof_C 	C 	0.2352	0.652	0.0091	0.051
Mof_C 	C 	0.6145	0.1443	0.1383	-0.209
Mof_C 	C 	0.0721	0.1782	0.1805	-0.2
Mof_C 	C 	0.3462	0.75	0.6119	0.019
Mof_C 	C 	0.6151	0.1682	0.1645	0.11
Mof_C 	C 	0.0767	0.2043	0.2939	0.446
Mof_C 	C 	0.1741	0.5507	0.4063	-0.603
Mof_C 	C 	0.2121	0.8788	0.0068	-0.181
Mof_C 	C 	0.766	0.4595	0.7031	0.371
Mof_C 	C 	0.7352	0.0091	0.652	0.051
Mof_C 	C 	0.7094	0.4319	0.8435	0.06
Mof_C 	C 	0.266	0.7031	0.4595	0.371
Mof_C 	C 	0.683	0.4346	0.6269	-0.181
Mof_C 	C 	0.1145	0.1383	0.1443	-0.209
Mof_C 	C 	0.7121	0.4932	0.6212	-0.182
Mof_C 	C 	0.9327	0.0183	0.6596	0.086
Mof_C 	C 	0.6256	0.973	0.9172	-0.526
Mof_C 	C 	0.5958	0.1038	0.0721	0.23
Mof_C 	C 	0.0685	0.3991	0.3957	-0.248
Mof_C 	C 	0.455	0.6284	0.4855	-0.198
Mof_C 	C 	0.9338	0.0782	0.6599	0.085
Mof_C 	C 	0.969	0.4067	0.5486	-0.542
Mof_C 	C 	0.8428	0.5944	0.71978	-0.099
Mof_C 	C 	0.0001	0.4619	0.5817	-0.215
Mof_C 	C 	0.0267	0.1413	0.3573	-0.212
Mof_C 	C 	0.5439	0.9087	0.9804	-0.503
Mof_C 	C 	0.5021	0.4372	0.1258	-0.559
Mof_C 	C 	0.0399	0.1013	0.4234	0.215
Mof_C 	C 	0.4191	0.6751	0.0484	-0.183
Mof_C 	C 	0.5399	0.0766	0.1013	0.215
Mof_C 	C 	0.689	0.0355	0.8906	0.143
Mof_C 	C 	0.6741	0.0937	0.5507	-0.603
Mof_C 	C 	0.0439	0.9804	0.5913	-0.503
Mof_C 	C 	0.469	0.5486	0.4067	-0.542
Mof_C 	C 	0.7346	0.04	0.669	-0.121
Mof_C 	C 	0.5001	0.9183	0.4619	-0.215
Mof_C 	C 	0.159	0.9226	0.0339	-0.226
Mof_C 	C 	0.6537	0.4418	0.9472	0.222
Mof_C 	C 	0.969	0.4067	0.9514	-0.542
Mof_C 	C 	0.9717	0.0442	0.613	0.126
Mof_C 	C 	0.1256	0.5828	0.527	-0.526
Mof_C 	C 	0.5702	0.1316	0.3733	0.178
Mof_C 	C 	0.5685	0.3957	0.3991	-0.248
Mof_C 	C 	0.0767	0.2957	0.2939	0.446
Mof_C 	C 	0.3866	0.7959	0.0496	0.428
Mof_C 	C 	0.134	0.4422	0.3724	-0.583
Mof_C 	C 	0.134	0.0578	0.3724	-0.583
Mof_C 	C 	0.1151	0.3355	0.3318	0.11
Mof_C 	C 	0.659	0.4661	0.9226	-0.226
Mof_C 	C 	0.8866	0.4504	0.7959	0.428
Mof_C 	C 	0.5001	0.5817	0.4619	-0.215
Mof_C 	C 	0.4584	0.8706	0.0739	-0.181
Mof_C 	C 	0.3364	0.78019	0.9402	0.045
Mof_C 	C 	0.1151	0.3355	0.1682	0.11
Mof_C 	C 	0.5399	0.0766	0.3987	0.215
Mof_C 	C 	0.5702	0.1316	0.1267	0.178
Mof_C 	C 	0.6256	0.973	0.5828	-0.526
Mof_C 	C 	0.5767	0.2939	0.2043	0.446
Mof_C 	C 	0.4338	0.6599	0.0782	0.085
Mof_C 	C 	0.8866	0.0496	0.7041	0.428
Mof_C 	C 	0.4338	0.8401	0.4218	0.085
Mof_C 	C 	0.0958	0.4279	0.1038	0.23
Mof_C 	C 	0.9584	0.0739	0.8706	-0.181
Mof_C 	C 	0.9338	0.0782	0.8401	0.085
Mof_N 	N 	0.1255	0.5282	0.4549	-0.297
Mof_N 	N 	0.5837	0.076	0.445	-0.3
Mof_N 	N 	0.5174	0.9729	0.4535	-0.321
Mof_N 	N 	0.8331	0.9577	0.75	-0.171
Mof_N 	N 	0.0367	0.4824	0.9624	-0.327
Mof_N 	N 	0.0174	0.4535	0.5271	-0.321
Mof_N 	N 	0.0367	0.4824	0.5376	-0.327
Mof_N 	N 	0.5837	0.424	0.445	-0.3
Mof_N 	N 	0.6255	0.0451	0.9718	-0.297
Mof_N 	N 	0.112	0.9638	0.4861	-0.313
Mof_N 	N 	0.0837	0.445	0.424	-0.3
Mof_N 	N 	0.5367	0.9624	0.4824	-0.327
Mof_N 	N 	0.112	0.5362	0.4861	-0.313
Mof_N 	N 	0.1255	0.9718	0.0451	-0.297
Mof_N 	N 	0.5499	0.4408	0.0725	-0.298
Mof_N 	N 	0.612	0.0139	0.5362	-0.313
Mof_N 	N 	0.5174	0.5271	0.0465	-0.321
Mof_N 	N 	0.612	0.4861	0.5362	-0.313
Mof_N 	N 	0.0499	0.4275	0.4408	-0.298
Mof_N 	N 	0.0499	0.0725	0.4408	-0.298
Mof_N 	N 	0.0174	0.0465	0.9729	-0.321
Mof_N 	N 	0.6255	0.4549	0.9718	-0.297
Mof_N 	N 	0.5837	0.076	0.055	-0.3
Mof_N 	N 	0.0499	0.0725	0.0592	-0.298
Mof_N 	N 	0.8331	0.5423	0.75	-0.171
Mof_N 	N 	0.612	0.4861	0.9638	-0.313
Mof_N 	N 	0.5499	0.4408	0.4275	-0.298
Mof_N 	N 	0.1255	0.9718	0.4549	-0.297
Mof_N 	N 	0.6255	0.0451	0.5282	-0.297
Mof_N 	N 	0.112	0.5362	0.0139	-0.313
Mof_N 	N 	0.5367	0.5376	0.0176	-0.327
Mof_N 	N 	0.612	0.0139	0.9638	-0.313
Mof_N 	N 	0.3331	0.75	0.9577	-0.171
Mof_N 	N 	0.5174	0.9729	0.0465	-0.321
Mof_N 	N 	0.1255	0.5282	0.0451	-0.297
Mof_N 	N 	0.5499	0.0592	0.0725	-0.298
Mof_N 	N 	0.5367	0.9624	0.0176	-0.327
Mof_N 	N 	0.0367	0.0176	0.9624	-0.327
Mof_N 	N 	0.0837	0.445	0.076	-0.3
Mof_N 	N 	0.5174	0.5271	0.4535	-0.321
Mof_N 	N 	0.5367	0.5376	0.4824	-0.327
Mof_N 	N 	0.6255	0.4549	0.5282	-0.297
Mof_N 	N 	0.0174	0.4535	0.9729	-0.321
Mof_N 	N 	0.5837	0.424	0.055	-0.3
Mof_N 	N 	0.0499	0.4275	0.0592	-0.298
Mof_N 	N 	0.0837	0.055	0.076	-0.3
Mof_N 	N 	0.5499	0.0592	0.4275	-0.298
Mof_N 	N 	0.3331	0.75	0.5423	-0.171
Mof_N 	N 	0.0367	0.0176	0.5376	-0.327
Mof_N 	N 	0.0837	0.055	0.424	-0.3
Mof_N 	N 	0.0174	0.0465	0.5271	-0.321
Mof_N 	N 	0.112	0.9638	0.0139	-0.313
Mof_O 	O 	0.0333	0.21493	0.28475	-0.422
Mof_O 	O 	0.1139	0.28495	0.21537	-0.464
Mof_O 	O 	0.2797	0.78516	0.01428	-0.428
Mof_O 	O 	0.2736	0.71387	0.07043	-0.409
Mof_O 	O 	0.3725	0.71495	0.07729	-0.437
Mof_O 	O 	0.6139	0.21537	0.21505	-0.464
Mof_O 	O 	0.1139	0.28495	0.28463	-0.464
Mof_O 	O 	0.6139	0.28463	0.28495	-0.464
Mof_O 	O 	0.5333	0.28475	0.21493	-0.422
Mof_O 	O 	0.1139	0.21505	0.28463	-0.464
Mof_O 	O 	0.2736	0.78613	0.42957	-0.409
Mof_O 	O 	0.8749	0.47787	0.71562	-0.442
Mof_O 	O 	0.2736	0.78613	0.07043	-0.409
Mof_O 	O 	0.3749	0.78438	0.02213	-0.442
Mof_O 	O 	0.7736	0.42957	0.78613	-0.409
Mof_O 	O 	0.8725	0.42271	0.78505	-0.437
Mof_O 	O 	0.5333	0.21525	0.28507	-0.422
Mof_O 	O 	0.3725	0.78505	0.42271	-0.437
Mof_O 	O 	0.6139	0.28463	0.21505	-0.464
Mof_O 	O 	0.3725	0.78505	0.07729	-0.437
Mof_O 	O 	0.8749	0.02213	0.71562	-0.442
Mof_O 	O 	0.3749	0.71562	0.02213	-0.442
Mof_O 	O 	0.7797	0.48572	0.78516	-0.428
Mof_O 	O 	0.2797	0.71484	0.01428	-0.428
Mof_O 	O 	0.8725	0.07729	0.71495	-0.437
Mof_O 	O 	0.8749	0.47787	0.78438	-0.442
Mof_O 	O 	0.7797	0.01428	0.78516	-0.428
Mof_O 	O 	0.7797	0.48572	0.71484	-0.428
Mof_O 	O 	0.7736	0.07043	0.71387	-0.409
Mof_O 	O 	0.8725	0.07729	0.78505	-0.437
Mof_O 	O 	0.0333	0.28507	0.21525	-0.422
Mof_O 	O 	0.2797	0.78516	0.48572	-0.428
Mof_O 	O 	0.3725	0.71495	0.42271	-0.437
Mof_O 	O 	0.8725	0.42271	0.71495	-0.437
Mof_O 	O 	0.7736	0.07043	0.78613	-0.409
Mof_O 	O 	0.0333	0.28507	0.28475	-0.422
Mof_O 	O 	0.0333	0.21493	0.21525	-0.422
Mof_O 	O 	0.2797	0.71484	0.48572	-0.428
Mof_O 	O 	0.3749	0.78438	0.47787	-0.442
Mof_O 	O 	0.8749	0.02213	0.78438	-0.442
Mof_O 	O 	0.1139	0.21505	0.21537	-0.464
Mof_O 	O 	0.7736	0.42957	0.71387	-0.409
Mof_O 	O 	0.5333	0.28475	0.28507	-0.422
Mof_O 	O 	0.2736	0.71387	0.42957	-0.409
Mof_O 	O 	0.5333	0.21525	0.21493	-0.422
Mof_O 	O 	0.6139	0.21537	0.28495	-0.464
Mof_O 	O 	0.3749	0.71562	0.47787	-0.442
Mof_O 	O 	0.7797	0.01428	0.71484	-0.428
Mof_Cu	Cu	0.47642	0.75	0.75	0.898
Mof_Cu	Cu	0.97642	0.75	0.75	0.898
Mof_Cu	Cu	0.46856	0.51573	0.94071	0.738
Mof_Cu	Cu	0.89489	0.98711	0.9392	0.758
Mof_Cu	Cu	0.42583	0.48829	0.49037	0.737
Mof_Cu	Cu	0.89489	0.98711	0.5608	0.758
Mof_Cu	Cu	0.42583	0.48829	0.00963	0.737
Mof_Cu	Cu	0.39489	0.9392	0.98711	0.758
Mof_Cu	Cu	0.17234	0.51277	0.25	0.934
Mof_Cu	Cu	0.1773	0.92018	0.25	0.902
Mof_Cu	Cu	0.67234	0.25	0.51277	0.934
Mof_Cu	Cu	0.96856	0.94071	0.51573	0.738
Mof_Cu	Cu	0.39489	0.5608	0.51289	0.758
Mof_Cu	Cu	0.89489	0.51289	0.5608	0.758
Mof_Cu	Cu	0.42583	0.01171	0.00963	0.737
Mof_Cu	Cu	0.67234	0.25	0.98723	0.934
Mof_Cu	Cu	0.1773	0.57982	0.25	0.902
Mof_Cu	Cu	0.92583	0.00963	0.48829	0.737
Mof_Cu	Cu	0.96856	0.55929	0.51573	0.738
Mof_Cu	Cu	0.39489	0.9392	0.51289	0.758
Mof_Cu	Cu	0.92583	0.49037	0.01171	0.737
Mof_Cu	Cu	0.92583	0.49037	0.48829	0.737
Mof_Cu	Cu	0.92583	0.00963	0.01171	0.737
Mof_Cu	Cu	0.46856	0.98427	0.55929	0.738
Mof_Cu	Cu	0.6773	0.25	0.57982	0.902
Mof_Cu	Cu	0.87917	0.75	0.75	0.912
Mof_Cu	Cu	0.96856	0.55929	0.98427	0.738
Mof_Cu	Cu	0.96856	0.94071	0.98427	0.738
Mof_Cu	Cu	0.6773	0.25	0.92018	0.902
Mof_Cu	Cu	0.37917	0.75	0.75	0.912
Mof_Cu	Cu	0.39489	0.5608	0.98711	0.758
Mof_Cu	Cu	0.46856	0.98427	0.94071	0.738
Mof_Cu	Cu	0.89489	0.51289	0.9392	0.758
Mof_Cu	Cu	0.46856	0.51573	0.55929	0.738
Mof_Cu	Cu	0.42583	0.01171	0.49037	0.737
Mof_Cu	Cu	0.17234	0.98723	0.25	0.934
Mof_H 	H 	0.8542	0.673	0.676	-0
Mof_H 	H 	0.4026	0.4617	0.0723	0.092
Mof_H 	H 	0.0742	0.0018	0.1716	0.007
Mof_H 	H 	0.5325	0.3818	0.9059	0.072
Mof_H 	H 	0.155	0.1064	0.199	0.056
Mof_H 	H 	0.5489	0.4728	0.5926	0.134
Mof_H 	H 	0.5019	0.6758	0.8247	-0.001
Mof_H 	H 	0.3807	0.4761	0.3931	0.157
Mof_H 	H 	0.9919	0.8706	0.9613	0.13
Mof_H 	H 	0.0724	0.5997	0.3305	0.004
Mof_H 	H 	0.4919	0.5387	0.6294	0.13
Mof_H 	H 	0.4919	0.5387	0.8706	0.13
Mof_H 	H 	0.031	0.6165	0.9341	0.148
Mof_H 	H 	0.485	0.4011	0.0322	0.14
Mof_H 	H 	0.3555	0.8632	0.6286	0.085
Mof_H 	H 	0.0724	0.9003	0.3305	0.004
Mof_H 	H 	0.3746	0.8491	0.9363	0.192
Mof_H 	H 	0.4919	0.9613	0.6294	0.13
Mof_H 	H 	0.9953	0.6473	0.5748	0.176
Mof_H 	H 	0.485	0.0989	0.4678	0.14
Mof_H 	H 	0.531	0.9341	0.6165	0.148
Mof_H 	H 	0.3651	0.6254	0.9668	0.145
Mof_H 	H 	0.5411	0.1182	0.493	0.05
Mof_H 	H 	0.031	0.6165	0.5659	0.148
Mof_H 	H 	0.2487	0.0099	0.3385	0.013
Mof_H 	H 	0.8542	0.673	0.824	-0
Mof_H 	H 	0.655	0.301	0.3936	0.056
Mof_H 	H 	0.3651	0.6254	0.5332	0.145
Mof_H 	H 	0.5411	0.3818	0.007	0.05
Mof_H 	H 	0.9919	0.6294	0.5387	0.129
Mof_H 	H 	0.155	0.3936	0.301	0.056
Mof_H 	H 	0.4953	0.9252	0.8527	0.176
Mof_H 	H 	0.5411	0.1182	0.007	0.05
Mof_H 	H 	0.8651	0.9668	0.6254	0.145
Mof_H 	H 	0.8378	0.381	0.9171	0.081
Mof_H 	H 	0.0489	0.9074	0.4728	0.134
Mof_H 	H 	0.3512	0.6098	0.0577	0.189
Mof_H 	H 	0.5539	0.067	0.598	0.173
Mof_H 	H 	0.1658	0.4521	0.199	0.01
Mof_H 	H 	0.3159	0.9015	0.0275	0.161
Mof_H 	H 	0.9919	0.6294	0.9613	0.13
Mof_H 	H 	0.4026	0.4617	0.4277	0.092
Mof_H 	H 	0.7487	0.1615	0.0099	0.013
Mof_H 	H 	0.3378	0.5829	0.381	0.081
Mof_H 	H 	0.4357	0.0771	0.0341	0.09
Mof_H 	H 	0.9953	0.6473	0.9252	0.176
Mof_H 	H 	0.3651	0.8746	0.5332	0.145
Mof_H 	H 	0.8746	0.5637	0.6509	0.192
Mof_H 	H 	0.7973	0.0656	0.5957	0.197
Mof_H 	H 	0.3555	0.6368	0.8714	0.085
Mof_H 	H 	0.5742	0.3284	0.0018	0.007
Mof_H 	H 	0.5724	0.1695	0.9003	0.004
Mof_H 	H 	0.8449	0.0797	0.4593	0.144
Mof_H 	H 	0.4357	0.0771	0.4659	0.09
Mof_H 	H 	0.2487	0.4901	0.3385	0.013
Mof_H 	H 	0.0411	0.493	0.1182	0.05
Mof_H 	H 	0.7896	0.3317	0.5889	0.015
Mof_H 	H 	0.3555	0.8632	0.8714	0.085
Mof_H 	H 	0.3746	0.6509	0.9363	0.192
Mof_H 	H 	0.3449	0.0407	0.0797	0.144
Mof_H 	H 	0.7487	0.3385	0.0099	0.013
Mof_H 	H 	0.5325	0.1182	0.5941	0.072
Mof_H 	H 	0.8651	0.9668	0.8746	0.145
Mof_H 	H 	0.3512	0.8902	0.4423	0.189
Mof_H 	H 	0.5489	0.0272	0.9074	0.134
Mof_H 	H 	0.8542	0.827	0.824	-0
Mof_H 	H 	0.6495	0.25	0.3643	0.028
Mof_H 	H 	0.788	0.3914	0.4864	0.064
Mof_H 	H 	0.288	0.4864	0.3914	0.064
Mof_H 	H 	0.0039	0.6343	0.8665	0.089
Mof_H 	H 	0.985	0.4678	0.4011	0.14
Mof_H 	H 	0.655	0.199	0.1064	0.056
Mof_H 	H 	0.0742	0.4982	0.3284	0.007
Mof_H 	H 	0.0411	0.007	0.3818	0.05
Mof_H 	H 	0.9371	0.4879	0.1109	0.154
Mof_H 	H 	0.5061	0.0476	0.8888	0.142
Mof_H 	H 	0.7896	0.1683	0.5889	0.015
Mof_H 	H 	0.5742	0.1716	0.0018	0.007
Mof_H 	H 	0.9357	0.4659	0.0771	0.09
Mof_H 	H 	0.3378	0.9171	0.119	0.081
Mof_H 	H 	0.8555	0.8714	0.8632	0.085
Mof_H 	H 	0.3807	0.0239	0.1069	0.157
Mof_H 	H 	0.0539	0.902	0.433	0.173
Mof_H 	H 	0.0539	0.598	0.067	0.173
Mof_H 	H 	0.8555	0.6286	0.8632	0.085
Mof_H 	H 	0.0039	0.8657	0.8665	0.089
Mof_H 	H 	0.788	0.1086	0.4864	0.064
Mof_H 	H 	0.6495	0.25	0.1357	0.028
Mof_H 	H 	0.8449	0.4203	0.0407	0.144
Mof_H 	H 	0.5019	0.6758	0.6753	-0.001
Mof_H 	H 	0.0019	0.6753	0.6758	-0.001
Mof_H 	H 	0.1495	0.3643	0.25	0.028
Mof_H 	H 	0.8512	0.0577	0.8902	0.19
Mof_H 	H 	0.8159	0.4725	0.5985	0.16
Mof_H 	H 	0.5325	0.1182	0.9059	0.072
Mof_H 	H 	0.5061	0.4524	0.8888	0.142
Mof_H 	H 	0.8337	0.9328	0.8779	0.164
Mof_H 	H 	0.3449	0.0407	0.4203	0.144
Mof_H 	H 	0.5411	0.3818	0.493	0.05
Mof_H 	H 	0.4953	0.5748	0.8527	0.176
Mof_H 	H 	0.6658	0.301	0.4521	0.01
Mof_H 	H 	0.4371	0.3891	0.0121	0.154
Mof_H 	H 	0.1495	0.1357	0.25	0.028
Mof_H 	H 	0.8651	0.5332	0.8746	0.145
Mof_H 	H 	0.288	0.4864	0.1086	0.064
Mof_H 	H 	0.6658	0.199	0.4521	0.01
Mof_H 	H 	0.985	0.0322	0.4011	0.14
Mof_H 	H 	0.0061	0.6112	0.0476	0.142
Mof_H 	H 	0.0724	0.5997	0.1695	0.004
Mof_H 	H 	0.8159	0.0275	0.9015	0.161
Mof_H 	H 	0.1658	0.0479	0.199	0.01
Mof_H 	H 	0.0061	0.8888	0.0476	0.142
Mof_H 	H 	0.8746	0.5637	0.8491	0.192
Mof_H 	H 	0.6658	0.301	0.0479	0.01
Mof_H 	H 	0.2973	0.9043	0.4344	0.197
Mof_H 	H 	0.8746	0.9363	0.6509	0.192
Mof_H 	H 	0.3542	0.824	0.827	-0
Mof_H 	H 	0.8378	0.381	0.5829	0.081
Mof_H 	H 	0.3337	0.8779	0.5672	0.164
Mof_H 	H 	0.3542	0.676	0.827	-0
Mof_H 	H 	0.3159	0.5985	0.0275	0.16
Mof_H 	H 	0.3512	0.8902	0.0577	0.19
Mof_H 	H 	0.3542	0.824	0.673	-0
Mof_H 	H 	0.3337	0.6221	0.9328	0.164
Mof_H 	H 	0.3807	0.0239	0.3931	0.157
Mof_H 	H 	0.5539	0.067	0.902	0.173
Mof_H 	H 	0.7896	0.1683	0.9111	0.015
Mof_H 	H 	0.2896	0.9111	0.1683	0.015
Mof_H 	H 	0.655	0.199	0.3936	0.056
Mof_H 	H 	0.8651	0.5332	0.6254	0.145
Mof_H 	H 	0.0325	0.9059	0.3818	0.072
Mof_H 	H 	0.9953	0.8527	0.9252	0.176
Mof_H 	H 	0.5325	0.3818	0.5941	0.072
Mof_H 	H 	0.9357	0.0341	0.4229	0.09
Mof_H 	H 	0.2973	0.5957	0.4344	0.197
Mof_H 	H 	0.031	0.8835	0.5659	0.148
Mof_H 	H 	0.531	0.9341	0.8835	0.148
Mof_H 	H 	0.4953	0.9252	0.6473	0.176
Mof_H 	H 	0.8512	0.0577	0.6098	0.189
Mof_H 	H 	0.4953	0.5748	0.6473	0.176
Mof_H 	H 	0.288	0.0136	0.3914	0.064
Mof_H 	H 	0.9026	0.4277	0.4617	0.092
Mof_H 	H 	0.3337	0.8779	0.9328	0.164
Mof_H 	H 	0.0019	0.6753	0.8242	-0.001
Mof_H 	H 	0.8807	0.3931	0.4761	0.157
Mof_H 	H 	0.7896	0.3317	0.9111	0.015
Mof_H 	H 	0.4371	0.3891	0.4879	0.154
Mof_H 	H 	0.5061	0.0476	0.6112	0.142
Mof_H 	H 	0.5742	0.1716	0.4982	0.007
Mof_H 	H 	0.8337	0.5672	0.6221	0.164
Mof_H 	H 	0.9953	0.8527	0.5748	0.176
Mof_H 	H 	0.8542	0.827	0.676	-0
Mof_H 	H 	0.9919	0.8706	0.5387	0.129
Mof_H 	H 	0.0039	0.8657	0.6335	0.089
Mof_H 	H 	0.485	0.0989	0.0322	0.14
Mof_H 	H 	0.0742	0.4982	0.1716	0.007
Mof_H 	H 	0.0489	0.5926	0.0272	0.134
Mof_H 	H 	0.8159	0.4725	0.9015	0.16
Mof_H 	H 	0.8337	0.5672	0.8779	0.164
Mof_H 	H 	0.5039	0.6335	0.8657	0.089
Mof_H 	H 	0.5039	0.8665	0.6343	0.089
Mof_H 	H 	0.3337	0.6221	0.5672	0.164
Mof_H 	H 	0.031	0.8835	0.9341	0.148
Mof_H 	H 	0.155	0.1064	0.301	0.056
Mof_H 	H 	0.7973	0.4344	0.5957	0.197
Mof_H 	H 	0.7973	0.4344	0.9043	0.197
Mof_H 	H 	0.4371	0.1109	0.4879	0.154
Mof_H 	H 	0.0039	0.6343	0.6335	0.089
Mof_H 	H 	0.8337	0.9328	0.6221	0.164
Mof_H 	H 	0.3555	0.6368	0.6286	0.085
Mof_H 	H 	0.2487	0.4901	0.1615	0.013
Mof_H 	H 	0.985	0.0322	0.0989	0.14
Mof_H 	H 	0.655	0.301	0.1064	0.056
Mof_H 	H 	0.155	0.3936	0.199	0.056
Mof_H 	H 	0.9026	0.0723	0.4617	0.092
Mof_H 	H 	0.5539	0.433	0.598	0.173
Mof_H 	H 	0.5724	0.1695	0.5997	0.004
Mof_H 	H 	0.5019	0.8242	0.8247	-0.001
Mof_H 	H 	0.9026	0.4277	0.0383	0.092
Mof_H 	H 	0.5489	0.0272	0.5926	0.134
Mof_H 	H 	0.9357	0.0341	0.0771	0.09
Mof_H 	H 	0.3159	0.5985	0.4725	0.16
Mof_H 	H 	0.3512	0.6098	0.4423	0.189
Mof_H 	H 	0.3651	0.8746	0.9668	0.145
Mof_H 	H 	0.4026	0.0383	0.0723	0.092
Mof_H 	H 	0.7487	0.3385	0.4901	0.013
Mof_H 	H 	0.985	0.4678	0.0989	0.14
Mof_H 	H 	0.5061	0.4524	0.6112	0.142
Mof_H 	H 	0.9371	0.4879	0.3891	0.154
Mof_H 	H 	0.0019	0.8247	0.8242	-0.001
Mof_H 	H 	0.6658	0.199	0.0479	0.01
Mof_H 	H 	0.9026	0.0723	0.0383	0.092
Mof_H 	H 	0.8378	0.119	0.5829	0.081
Mof_H 	H 	0.5724	0.3305	0.9003	0.004
Mof_H 	H 	0.0061	0.8888	0.4524	0.142
Mof_H 	H 	0.8512	0.4423	0.6098	0.189
Mof_H 	H 	0.3159	0.9015	0.4725	0.16
Mof_H 	H 	0.8555	0.8714	0.6368	0.085
Mof_H 	H 	0.0061	0.6112	0.4524	0.142
Mof_H 	H 	0.9357	0.4659	0.4229	0.09
Mof_H 	H 	0.788	0.3914	0.0136	0.064
Mof_H 	H 	0.2487	0.0099	0.1615	0.013
Mof_H 	H 	0.2973	0.5957	0.0656	0.197
Mof_H 	H 	0.4371	0.1109	0.0121	0.154
Mof_H 	H 	0.8555	0.6286	0.6368	0.085
Mof_H 	H 	0.3807	0.4761	0.1069	0.157
Mof_H 	H 	0.3746	0.6509	0.5637	0.192
Mof_H 	H 	0.3378	0.9171	0.381	0.081
Mof_H 	H 	0.5019	0.8242	0.6753	-0.001
Mof_H 	H 	0.4026	0.0383	0.4277	0.092
Mof_H 	H 	0.3449	0.4593	0.0797	0.144
Mof_H 	H 	0.0325	0.5941	0.1182	0.072
Mof_H 	H 	0.3542	0.676	0.673	-0
Mof_H 	H 	0.1658	0.0479	0.301	0.01
Mof_H 	H 	0.7487	0.1615	0.4901	0.013
Mof_H 	H 	0.8378	0.119	0.9171	0.081
Mof_H 	H 	0.3746	0.8491	0.5637	0.192
Mof_H 	H 	0.0539	0.598	0.433	0.173
Mof_H 	H 	0.0539	0.902	0.067	0.173
Mof_H 	H 	0.5039	0.6335	0.6343	0.089
Mof_H 	H 	0.0325	0.5941	0.3818	0.072
Mof_H 	H 	0.0411	0.493	0.3818	0.05
Mof_H 	H 	0.2896	0.5889	0.1683	0.015
Mof_H 	H 	0.5039	0.8665	0.8657	0.089
Mof_H 	H 	0.531	0.5659	0.8835	0.148
Mof_H 	H 	0.531	0.5659	0.6165	0.148
Mof_H 	H 	0.8807	0.3931	0.0239	0.157
Mof_H 	H 	0.8746	0.9363	0.8491	0.192
Mof_H 	H 	0.0489	0.9074	0.0272	0.134
Mof_H 	H 	0.0411	0.007	0.1182	0.05
Mof_H 	H 	0.0724	0.9003	0.1695	0.004
Mof_H 	H 	0.2896	0.9111	0.3317	0.015
Mof_H 	H 	0.8807	0.1069	0.0239	0.157
Mof_H 	H 	0.0019	0.8247	0.6758	-0.001
Mof_H 	H 	0.8449	0.4203	0.4593	0.144
Mof_H 	H 	0.3449	0.4593	0.4203	0.144
Mof_H 	H 	0.8512	0.4423	0.8902	0.189
Mof_H 	H 	0.9371	0.0121	0.1109	0.154
Mof_H 	H 	0.8807	0.1069	0.4761	0.157
Mof_H 	H 	0.7973	0.0656	0.9043	0.197
Mof_H 	H 	0.0325	0.9059	0.1182	0.072
Mof_H 	H 	0.5724	0.3305	0.5997	0.004
Mof_H 	H 	0.8449	0.0797	0.0407	0.144
Mof_H 	H 	0.9371	0.0121	0.3891	0.154
Mof_H 	H 	0.0742	0.0018	0.3284	0.007
Mof_H 	H 	0.4357	0.4229	0.4659	0.09
Mof_H 	H 	0.485	0.4011	0.4678	0.14
Mof_H 	H 	0.5539	0.433	0.902	0.173
Mof_H 	H 	0.2973	0.9043	0.0656	0.197
Mof_H 	H 	0.4357	0.4229	0.0341	0.09
Mof_H 	H 	0.288	0.0136	0.1086	0.064
Mof_H 	H 	0.5489	0.4728	0.9074	0.134
Mof_H 	H 	0.3378	0.5829	0.119	0.081
Mof_H 	H 	0.4919	0.9613	0.8706	0.13
Mof_H 	H 	0.1658	0.4521	0.301	0.01
Mof_H 	H 	0.8159	0.0275	0.5985	0.16
Mof_H 	H 	0.0489	0.5926	0.4728	0.134
Mof_H 	H 	0.5742	0.3284	0.4982	0.007
Mof_H 	H 	0.2896	0.5889	0.3317	0.015
Mof_H 	H 	0.788	0.1086	0.0136	0.064
Mof_C 	C 	0.4999	0.0817	0.9619	-0.216
Mof_C 	C 	0.3855	0.8557	0.8617	-0.209
Mof_C 	C 	0.7879	0.1212	0.9932	-0.181
Mof_C 	C 	0.366	0.6276	0.5578	-0.583
Mof_C 	C 	0.367	0.5068	0.4335	0.192
Mof_C 	C 	0.9042	0.5721	0.6038	0.23
Mof_C 	C 	0.841	0.0774	0.5339	-0.226
Mof_C 	C 	0.4979	0.9372	0.6258	-0.559
Mof_C 	C 	0.2648	0.5091	0.152	0.051
Mof_C 	C 	0.531	0.4514	0.5933	-0.542
Mof_C 	C 	0.0673	0.9817	0.3404	0.086
Mof_C 	C 	0.2879	0.9932	0.3788	-0.182
Mof_C 	C 	0.5673	0.3404	0.5183	0.086
Mof_C 	C 	0.006	0.9402	0.0546	0.178
Mof_C 	C 	0.9727	0.9888	0.0709	0.127
Mof_C 	C 	0.4999	0.4183	0.9619	-0.215
Mof_C 	C 	0.4233	0.7939	0.7043	0.446
Mof_C 	C 	0.0673	0.5183	0.1596	0.086
Mof_C 	C 	0.234	0.9595	0.2969	0.371
Mof_C 	C 	0.9718	0.6662	0.8324	0.119
Mof_C 	C 	0.0662	0.5782	0.1599	0.085
Mof_C 	C 	0.7906	0.3435	0.5681	0.06
Mof_C 	C 	0.8849	0.8355	0.6682	0.11
Mof_C 	C 	0.1134	0.5496	0.2041	0.428
Mof_C 	C 	0.1538	0.3881	0.25	0.019
Mof_C 	C 	0.031	0.9067	0.0486	-0.542
Mof_C 	C 	0.841	0.4226	0.5339	-0.225
Mof_C 	C 	0.5809	0.1751	0.9516	-0.183
Mof_C 	C 	0.545	0.3716	0.9855	-0.198
Mof_C 	C 	0.4279	0.6805	0.6782	-0.2
Mof_C 	C 	0.0416	0.5739	0.1294	-0.181
Mof_C 	C 	0.317	0.9346	0.1269	-0.181
Mof_C 	C 	0.4733	0.6427	0.6413	-0.212
Mof_C 	C 	0.9298	0.6267	0.6316	0.178
Mof_C 	C 	0.6538	0.25	0.3881	0.019
Mof_C 	C 	0.2906	0.5681	0.3435	0.06
Mof_C 	C 	0.5283	0.113	0.5442	0.126
Mof_C 	C 	0.8463	0.0528	0.5582	0.222
Mof_C 	C 	0.045	0.9855	0.1284	-0.197
Mof_C 	C 	0.4718	0.6676	0.8338	0.119
Mof_C 	C 	0.3744	0.027	0.0828	-0.526
Mof_C 	C 	0.4315	0.6043	0.8991	-0.248
Mof_C 	C 	0.7654	0.331	0.54	-0.121
Mof_C 	C 	0.3849	0.6682	0.6645	0.11
Mof_C 	C 	0.9601	0.8987	0.9234	0.215
Mof_C 	C 	0.6572	0.21978	0.0944	-0.099
Mof_C 	C 	0.4042	0.8962	0.9279	0.23
Mof_C 	C 	0.9999	0.5381	0.4183	-0.215
Mof_C 	C 	0.5283	0.387	0.9558	0.126
Mof_C 	C 	0.734	0.2031	0.9595	0.371
Mof_C 	C 	0.1538	0.1119	0.25	0.019
Mof_C 	C 	0.1636	0.0598	0.28019	0.045
Mof_C 	C 	0.1572	0.4056	0.21978	-0.099
Mof_C 	C 	0.4999	0.0817	0.5381	-0.215
Mof_C 	C 	0.867	0.0665	0.9932	0.192
Mof_C 	C 	0.4298	0.8684	0.8733	0.178
Mof_C 	C 	0.506	0.4454	0.9402	0.178
Mof_C 	C 	0.5662	0.3401	0.5782	0.085
Mof_C 	C 	0.8463	0.4472	0.9418	0.222
Mof_C 	C 	0.3849	0.8318	0.6645	0.11
Mof_C 	C 	0.9279	0.8218	0.8195	-0.2
Mof_C 	C 	0.7906	0.3435	0.9319	0.06
Mof_C 	C 	0.9718	0.8338	0.6676	0.119
Mof_C 	C 	0.9601	0.6013	0.9234	0.215
Mof_C 	C 	0.4315	0.8957	0.6009	-0.248
Mof_C 	C 	0.9979	0.8742	0.9372	-0.559
Mof_C 	C 	0.8259	0.4493	0.9063	-0.603
Mof_C 	C 	0.9233	0.7043	0.7061	0.446
Mof_C 	C 	0.817	0.1269	0.9346	-0.181
Mof_C 	C 	0.8259	0.4493	0.5937	-0.603
Mof_C 	C 	0.5809	0.3249	0.5484	-0.183
Mof_C 	C 	0.4561	0.0913	0.4804	-0.503
Mof_C 	C 	0.2906	0.9319	0.3435	0.06
Mof_C 	C 	0.1636	0.4402	0.28019	0.045
Mof_C 	C 	0.531	0.4514	0.9067	-0.542
Mof_C 	C 	0.9561	0.4804	0.4087	-0.503
Mof_C 	C 	0.4561	0.0913	0.0196	-0.503
Mof_C 	C 	0.2648	0.5091	0.348	0.051
Mof_C 	C 	0.341	0.5339	0.4226	-0.225
Mof_C 	C 	0.7879	0.1212	0.5068	-0.182
Mof_C 	C 	0.4718	0.8324	0.6662	0.119
Mof_C 	C 	0.4042	0.8962	0.5721	0.23
Mof_C 	C 	0.4233	0.7061	0.7043	0.446
Mof_C 	C 	0.734	0.2031	0.5405	0.371
Mof_C 	C 	0.4727	0.0709	0.9888	0.127
Mof_C 	C 	0.341	0.9661	0.0774	-0.226
Mof_C 	C 	0.5662	0.1599	0.5782	0.085
Mof_C 	C 	0.3463	0.5582	0.0528	0.222
Mof_C 	C 	0.531	0.0486	0.5933	-0.542
Mof_C 	C 	0.031	0.5933	0.0486	-0.542
Mof_C 	C 	0.8855	0.8617	0.8557	-0.209
Mof_C 	C 	0.4733	0.6427	0.8587	-0.212
Mof_C 	C 	0.2906	0.5681	0.1565	0.06
Mof_C 	C 	0.9279	0.6782	0.6805	-0.2
Mof_C 	C 	0.6572	0.28022	0.0944	-0.099
Mof_C 	C 	0.4233	0.7061	0.7957	0.446
Mof_C 	C 	0.9042	0.9279	0.8962	0.23
Mof_C 	C 	0.8855	0.8617	0.6443	-0.209
Mof_C 	C 	0.1636	0.0598	0.21981	0.045
Mof_C 	C 	0.811	0.3906	0.5355	0.143
Mof_C 	C 	0.9315	0.8991	0.6043	-0.248
Mof_C 	C 	0.6134	0.2041	0.5496	0.428
Mof_C 	C 	0.4279	0.8195	0.6782	-0.2
Mof_C 	C 	0.9727	0.9888	0.4291	0.126
Mof_C 	C 	0.0283	0.5442	0.387	0.126
Mof_C 	C 	0.9727	0.5112	0.0709	0.126
Mof_C 	C 	0.6134	0.2959	0.9504	0.428
Mof_C 	C 	0.2879	0.5068	0.3788	-0.182
Mof_C 	C 	0.545	0.3716	0.5145	-0.198
Mof_C 	C 	0.5416	0.1294	0.5739	-0.181
Mof_C 	C 	0.0416	0.9261	0.1294	-0.181
Mof_C 	C 	0.2654	0.54	0.331	-0.121
Mof_C 	C 	0.4999	0.4183	0.5381	-0.215
Mof_C 	C 	0.506	0.4454	0.5598	0.178
Mof_C 	C 	0.5809	0.3249	0.9516	-0.183
Mof_C 	C 	0.2654	0.96	0.169	-0.121
Mof_C 	C 	0.9315	0.6009	0.8957	-0.248
Mof_C 	C 	0.9999	0.9619	0.0817	-0.216
Mof_C 	C 	0.9561	0.0196	0.4087	-0.503
Mof_C 	C 	0.3855	0.6443	0.8617	-0.209
Mof_C 	C 	0.3259	0.9063	0.0507	-0.603
Mof_C 	C 	0.4042	0.6038	0.9279	0.23
Mof_C 	C 	0.2648	0.9909	0.348	0.051
Mof_C 	C 	0.0662	0.5782	0.3401	0.085
Mof_C 	C 	0.866	0.5578	0.6276	-0.583
Mof_C 	C 	0.5673	0.3404	0.9817	0.086
Mof_C 	C 	0.2906	0.9319	0.1565	0.06
Mof_C 	C 	0.7654	0.169	0.54	-0.121
Mof_C 	C 	0.8849	0.6645	0.8318	0.11
Mof_C 	C 	0.3744	0.473	0.4172	-0.526
Mof_C 	C 	0.811	0.3906	0.9645	0.143
Mof_C 	C 	0.1134	0.9504	0.2041	0.428
Mof_C 	C 	0.311	0.9645	0.1094	0.143
Mof_C 	C 	0.367	0.9932	0.0665	0.192
Mof_C 	C 	0.1572	0.0944	0.28022	-0.099
Mof_C 	C 	0.311	0.5355	0.1094	0.143
Mof_C 	C 	0.734	0.2969	0.9595	0.371
Mof_C 	C 	0.031	0.9067	0.4514	-0.542
Mof_C 	C 	0.4561	0.4087	0.4804	-0.503
Mof_C 	C 	0.045	0.5145	0.3716	-0.198
Mof_C 	C 	0.4279	0.6805	0.8218	-0.2
Mof_C 	C 	0.866	0.9422	0.6276	-0.583
Mof_C 	C 	0.9601	0.8987	0.5766	0.215
Mof_C 	C 	0.5809	0.1751	0.5484	-0.183
Mof_C 	C 	0.8744	0.4172	0.027	-0.526
Mof_C 	C 	0.3849	0.6682	0.8355	0.11
Mof_C 	C 	0.006	0.5598	0.4454	0.178
Mof_C 	C 	0.6538	0.25	0.1119	0.019
Mof_C 	C 	0.7654	0.169	0.96	-0.121
Mof_C 	C 	0.4727	0.4291	0.9888	0.126
Mof_C 	C 	0.8744	0.0828	0.473	-0.526
Mof_C 	C 	0.5673	0.1596	0.9817	0.086
Mof_C 	C 	0.9315	0.8991	0.8957	-0.248
Mof_C 	C 	0.3855	0.6443	0.6383	-0.209
Mof_C 	C 	0.6134	0.2959	0.5496	0.428
Mof_C 	C 	0.1134	0.9504	0.2959	0.428
Mof_C 	C 	0.4601	0.9234	0.8987	0.215
Mof_C 	C 	0.9999	0.9619	0.4183	-0.215
Mof_C 	C 	0.0662	0.9218	0.1599	0.085
Mof_C 	C 	0.006	0.9402	0.4454	0.178
Mof_C 	C 	0.1636	0.4402	0.21981	0.045
Mof_C 	C 	0.0673	0.9817	0.1596	0.086
Mof_C 	C 	0.0809	0.9516	0.3249	-0.183
Mof_C 	C 	0.3463	0.5582	0.4472	0.222
Mof_C 	C 	0.234	0.9595	0.2031	0.371
Mof_C 	C 	0.3463	0.9418	0.0528	0.222
Mof_C 	C 	0.866	0.5578	0.8724	-0.583
Mof_C 	C 	0.4601	0.9234	0.6013	0.215
Mof_C 	C 	0.311	0.5355	0.3906	0.143
Mof_C 	C 	0.817	0.1269	0.5654	-0.181
Mof_C 	C 	0.866	0.9422	0.8724	-0.583
Mof_C 	C 	0.5416	0.1294	0.9261	-0.181
Mof_C 	C 	0.0809	0.5484	0.1751	-0.183
Mof_C 	C 	0.3849	0.8318	0.8355	0.11
Mof_C 	C 	0.9999	0.5381	0.0817	-0.216
Mof_C 	C 	0.8259	0.0507	0.9063	-0.603
Mof_C 	C 	0.2879	0.5068	0.1212	-0.182
Mof_C 	C 	0.867	0.0665	0.5068	0.192
Mof_C 	C 	0.5662	0.1599	0.9218	0.085
Mof_C 	C 	0.8463	0.0528	0.9418	0.222
Mof_C 	C 	0.811	0.1094	0.9645	0.143
Mof_C 	C 	0.9042	0.5721	0.8962	0.23
Mof_C 	C 	0.9315	0.6009	0.6043	-0.248
Mof_C 	C 	0.7906	0.1565	0.5681	0.06
Mof_C 	C 	0.9298	0.8733	0.6316	0.178
Mof_C 	C 	0.8849	0.6645	0.6682	0.11
Mof_C 	C 	0.234	0.5405	0.2969	0.371
Mof_C 	C 	0.3744	0.027	0.4172	-0.526
Mof_C 	C 	0.7906	0.1565	0.9319	0.06
Mof_C 	C 	0.0809	0.5484	0.3249	-0.183
Mof_C 	C 	0.5283	0.113	0.9558	0.126
Mof_C 	C 	0.0416	0.9261	0.3706	-0.181
Mof_C 	C 	0.545	0.1284	0.5145	-0.198
Mof_C 	C 	0.4601	0.5766	0.6013	0.215
Mof_C 	C 	0.3744	0.473	0.0828	-0.526
Mof_C 	C 	0.341	0.5339	0.0774	-0.226
Mof_C 	C 	0.311	0.9645	0.3906	0.143
Mof_C 	C 	0.6636	0.28019	0.4402	0.045
Mof_C 	C 	0.867	0.4335	0.9932	0.192
Mof_C 	C 	0.2654	0.96	0.331	-0.121
Mof_C 	C 	0.4298	0.6316	0.6267	0.178
Mof_C 	C 	0.9561	0.0196	0.0913	-0.503
Mof_C 	C 	0.9979	0.6258	0.5628	-0.559
Mof_C 	C 	0.4279	0.8195	0.8218	-0.2
Mof_C 	C 	0.7879	0.3788	0.9932	-0.181
Mof_C 	C 	0.9042	0.9279	0.6038	0.23
Mof_C 	C 	0.0283	0.9558	0.387	0.126
Mof_C 	C 	0.6636	0.28019	0.0598	0.045
Mof_C 	C 	0.006	0.5598	0.0546	0.178
Mof_C 	C 	0.4979	0.5628	0.6258	-0.559
Mof_C 	C 	0.045	0.5145	0.1284	-0.198
Mof_C 	C 	0.4298	0.8684	0.6267	0.178
Mof_C 	C 	0.9298	0.6267	0.8684	0.178
Mof_C 	C 	0.8259	0.0507	0.5937	-0.603
Mof_C 	C 	0.6636	0.21981	0.0598	0.045
Mof_C 	C 	0.8849	0.8355	0.8318	0.11
Mof_C 	C 	0.7648	0.152	0.5091	0.051
Mof_C 	C 	0.6134	0.2041	0.9504	0.428
Mof_C 	C 	0.3855	0.8557	0.6383	-0.209
Mof_C 	C 	0.9233	0.7043	0.7939	0.446
Mof_C 	C 	0.7654	0.331	0.96	-0.121
Mof_C 	C 	0.7879	0.3788	0.5068	-0.182
Mof_C 	C 	0.9733	0.6413	0.8573	-0.212
Mof_C 	C 	0.4298	0.6316	0.8733	0.178
Mof_C 	C 	0.0673	0.5183	0.3404	0.086
Mof_C 	C 	0.045	0.9855	0.3716	-0.198
Mof_C 	C 	0.9233	0.7957	0.7939	0.446
Mof_C 	C 	0.9233	0.7957	0.7061	0.446
Mof_C 	C 	0.8855	0.6383	0.6443	-0.209
Mof_C 	C 	0.8463	0.4472	0.5582	0.222
Mof_C 	C 	0.4727	0.4291	0.5112	0.126
Mof_C 	C 	0.317	0.5654	0.1269	-0.181
Mof_C 	C 	0.0283	0.9558	0.113	0.126
Mof_C 	C 	0.0283	0.5442	0.113	0.126
Mof_C 	C 	0.8744	0.0828	0.027	-0.527
Mof_C 	C 	0.4733	0.8573	0.8587	-0.212
Mof_C 	C 	0.506	0.0546	0.5598	0.178
Mof_C 	C 	0.4718	0.8324	0.8338	0.119
Mof_C 	C 	0.545	0.1284	0.9855	-0.197
Mof_C 	C 	0.7648	0.348	0.5091	0.051
Mof_C 	C 	0.5416	0.3706	0.5739	-0.181
Mof_C 	C 	0.9718	0.8338	0.8324	0.119
Mof_C 	C 	0.5283	0.387	0.5442	0.126
Mof_C 	C 	0.867	0.4335	0.5068	0.192
Mof_C 	C 	0.506	0.0546	0.9402	0.178
Mof_C 	C 	0.366	0.8724	0.5578	-0.583
Mof_C 	C 	0.3259	0.9063	0.4493	-0.603
Mof_C 	C 	0.9298	0.8733	0.8684	0.178
Mof_C 	C 	0.9979	0.6258	0.9372	-0.559
Mof_C 	C 	0.2654	0.54	0.169	-0.121
Mof_C 	C 	0.1572	0.4056	0.28022	-0.099
Mof_C 	C 	0.8744	0.4172	0.473	-0.526
Mof_C 	C 	0.9733	0.6413	0.6427	-0.212
Mof_C 	C 	0.3259	0.5937	0.0507	-0.603
Mof_C 	C 	0.367	0.5068	0.0665	0.192
Mof_C 	C 	0.366	0.6276	0.9422	-0.583
Mof_C 	C 	0.4561	0.4087	0.0196	-0.503
Mof_C 	C 	0.4601	0.5766	0.8987	0.215
Mof_C 	C 	0.811	0.1094	0.5355	0.143
Mof_C 	C 	0.817	0.3731	0.9346	-0.181
Mof_C 	C 	0.0662	0.9218	0.3401	0.085
Mof_C 	C 	0.341	0.9661	0.4226	-0.226
Mof_C 	C 	0.4315	0.8957	0.8991	-0.248
Mof_C 	C 	0.9601	0.6013	0.5766	0.215
Mof_C 	C 	0.6572	0.21978	0.4056	-0.099
Mof_C 	C 	0.5673	0.1596	0.5183	0.086
Mof_C 	C 	0.4979	0.5628	0.8742	-0.559
Mof_C 	C 	0.0809	0.9516	0.1751	-0.183
Mof_C 	C 	0.317	0.9346	0.3731	-0.181
Mof_C 	C 	0.366	0.8724	0.9422	-0.583
Mof_C 	C 	0.1134	0.5496	0.2959	0.428
Mof_C 	C 	0.9733	0.8587	0.6427	-0.212
Mof_C 	C 	0.817	0.3731	0.5654	-0.181
Mof_C 	C 	0.234	0.5405	0.2031	0.371
Mof_C 	C 	0.2879	0.9932	0.1212	-0.181
Mof_C 	C 	0.4042	0.6038	0.5721	0.23
Mof_C 	C 	0.4727	0.0709	0.5112	0.126
Mof_C 	C 	0.4733	0.8573	0.6413	-0.212
Mof_C 	C 	0.9727	0.5112	0.4291	0.126
Mof_C 	C 	0.3463	0.9418	0.4472	0.222
Mof_C 	C 	0.5662	0.3401	0.9218	0.085
Mof_C 	C 	0.841	0.0774	0.9661	-0.226
Mof_C 	C 	0.0416	0.5739	0.3706	-0.181
Mof_C 	C 	0.531	0.0486	0.9067	-0.542
Mof_C 	C 	0.8855	0.6383	0.8557	-0.209
Mof_C 	C 	0.031	0.5933	0.4514	-0.542
Mof_C 	C 	0.734	0.2969	0.5405	0.371
Mof_C 	C 	0.9279	0.6782	0.8195	-0.2
Mof_C 	C 	0.9561	0.4804	0.0913	-0.503
Mof_C 	C 	0.3259	0.5937	0.4493	-0.603
Mof_C 	C 	0.841	0.4226	0.9661	-0.226
Mof_C 	C 	0.4979	0.9372	0.8742	-0.559
Mof_C 	C 	0.4233	0.7939	0.7957	0.446
Mof_C 	C 	0.6636	0.21981	0.4402	0.045
Mof_C 	C 	0.6572	0.28022	0.4056	-0.099
Mof_C 	C 	0.9733	0.8587	0.8573	-0.212
Mof_C 	C 	0.9279	0.8218	0.6805	-0.2
Mof_C 	C 	0.317	0.5654	0.3731	-0.181
Mof_C 	C 	0.5416	0.3706	0.9261	-0.181
Mof_C 	C 	0.7648	0.152	0.9909	0.051
Mof_C 	C 	0.367	0.9932	0.4335	0.192
Mof_C 	C 	0.4718	0.6676	0.6662	0.119
Mof_C 	C 	0.4315	0.6043	0.6009	-0.248
Mof_C 	C 	0.2648	0.9909	0.152	0.051
Mof_C 	C 	0.7648	0.348	0.9909	0.051
Mof_C 	C 	0.9979	0.8742	0.5628	-0.559
Mof_C 	C 	0.1572	0.0944	0.21978	-0.099
Mof_C 	C 	0.9718	0.6662	0.6676	0.119
Mof_N 	N 	0.8745	0.0282	0.5451	-0.297
Mof_N 	N 	0.4826	0.4729	0.9535	-0.321
Mof_N 	N 	0.6669	0.25	0.4577	-0.171
Mof_N 	N 	0.9501	0.5725	0.9408	-0.298
Mof_N 	N 	0.4501	0.9408	0.5725	-0.298
Mof_N 	N 	0.1669	0.0423	0.25	-0.171
Mof_N 	N 	0.4501	0.5592	0.9275	-0.298
Mof_N 	N 	0.388	0.5139	0.4638	-0.313
Mof_N 	N 	0.9826	0.5465	0.0271	-0.321
Mof_N 	N 	0.9163	0.555	0.576	-0.3
Mof_N 	N 	0.4826	0.0271	0.5465	-0.321
Mof_N 	N 	0.9826	0.9535	0.0271	-0.321
Mof_N 	N 	0.388	0.9861	0.0362	-0.313
Mof_N 	N 	0.3745	0.9549	0.4718	-0.297
Mof_N 	N 	0.6669	0.25	0.0423	-0.171
Mof_N 	N 	0.3745	0.5451	0.4718	-0.297
Mof_N 	N 	0.3745	0.9549	0.0282	-0.297
Mof_N 	N 	0.888	0.4638	0.9861	-0.313
Mof_N 	N 	0.9501	0.9275	0.5592	-0.298
Mof_N 	N 	0.9633	0.5176	0.0376	-0.327
Mof_N 	N 	0.9633	0.5176	0.4624	-0.327
Mof_N 	N 	0.4163	0.924	0.945	-0.3
Mof_N 	N 	0.9163	0.945	0.924	-0.3
Mof_N 	N 	0.3745	0.5451	0.0282	-0.297
Mof_N 	N 	0.9163	0.555	0.924	-0.3
Mof_N 	N 	0.4633	0.4624	0.5176	-0.327
Mof_N 	N 	0.9501	0.9275	0.9408	-0.298
Mof_N 	N 	0.4501	0.9408	0.9275	-0.298
Mof_N 	N 	0.388	0.9861	0.4638	-0.313
Mof_N 	N 	0.4163	0.924	0.555	-0.3
Mof_N 	N 	0.888	0.4638	0.5139	-0.313
Mof_N 	N 	0.9501	0.5725	0.5592	-0.298
Mof_N 	N 	0.4633	0.0376	0.5176	-0.327
Mof_N 	N 	0.8745	0.0282	0.9549	-0.297
Mof_N 	N 	0.8745	0.4718	0.5451	-0.297
Mof_N 	N 	0.9826	0.5465	0.4729	-0.321
Mof_N 	N 	0.4633	0.0376	0.9824	-0.327
Mof_N 	N 	0.4163	0.576	0.945	-0.3
Mof_N 	N 	0.4826	0.4729	0.5465	-0.321
Mof_N 	N 	0.9633	0.9824	0.0376	-0.327
Mof_N 	N 	0.888	0.0362	0.9861	-0.313
Mof_N 	N 	0.1669	0.4577	0.25	-0.171
Mof_N 	N 	0.4633	0.4624	0.9824	-0.327
Mof_N 	N 	0.9633	0.9824	0.4624	-0.327
Mof_N 	N 	0.388	0.5139	0.0362	-0.313
Mof_N 	N 	0.9163	0.945	0.576	-0.3
Mof_N 	N 	0.8745	0.4718	0.9549	-0.297
Mof_N 	N 	0.9826	0.9535	0.4729	-0.321
Mof_N 	N 	0.888	0.0362	0.5139	-0.313
Mof_N 	N 	0.4826	0.0271	0.9535	-0.321
Mof_N 	N 	0.4501	0.5592	0.5725	-0.298
Mof_N 	N 	0.4163	0.576	0.555	-0.3
Mof_O 	O 	0.1251	0.97787	0.21562	-0.442
Mof_O 	O 	0.9667	0.78507	0.78475	-0.422
Mof_O 	O 	0.7203	0.28516	0.51428	-0.428
Mof_O 	O 	0.2264	0.92957	0.21387	-0.409
Mof_O 	O 	0.8861	0.71505	0.78463	-0.464
Mof_O 	O 	0.4667	0.78475	0.71493	-0.422
Mof_O 	O 	0.6251	0.21562	0.52213	-0.442
Mof_O 	O 	0.2203	0.98572	0.21484	-0.428
Mof_O 	O 	0.2264	0.92957	0.28613	-0.409
Mof_O 	O 	0.9667	0.78507	0.71525	-0.422
Mof_O 	O 	0.3861	0.71537	0.78495	-0.464
Mof_O 	O 	0.8861	0.78495	0.71537	-0.464
Mof_O 	O 	0.6275	0.21495	0.57729	-0.437
Mof_O 	O 	0.2203	0.98572	0.28516	-0.428
Mof_O 	O 	0.6275	0.28505	0.92271	-0.437
Mof_O 	O 	0.6251	0.28438	0.97787	-0.442
Mof_O 	O 	0.6251	0.21562	0.97787	-0.442
Mof_O 	O 	0.7203	0.21484	0.51428	-0.428
Mof_O 	O 	0.3861	0.78463	0.71505	-0.464
Mof_O 	O 	0.1275	0.92271	0.28505	-0.437
Mof_O 	O 	0.9667	0.71493	0.78475	-0.422
Mof_O 	O 	0.7203	0.28516	0.98572	-0.428
Mof_O 	O 	0.6251	0.28438	0.52213	-0.442
Mof_O 	O 	0.1275	0.57729	0.28505	-0.437
Mof_O 	O 	0.6275	0.21495	0.92271	-0.437
Mof_O 	O 	0.2203	0.51428	0.21484	-0.428
Mof_O 	O 	0.1251	0.52213	0.21562	-0.442
Mof_O 	O 	0.7264	0.21387	0.57043	-0.409
Mof_O 	O 	0.9667	0.71493	0.71525	-0.422
Mof_O 	O 	0.1275	0.92271	0.21495	-0.437
Mof_O 	O 	0.7264	0.28613	0.57043	-0.409
Mof_O 	O 	0.2264	0.57043	0.28613	-0.409
Mof_O 	O 	0.3861	0.71537	0.71505	-0.464
Mof_O 	O 	0.2203	0.51428	0.28516	-0.428
Mof_O 	O 	0.1251	0.97787	0.28438	-0.442
Mof_O 	O 	0.4667	0.71525	0.71493	-0.422
Mof_O 	O 	0.2264	0.57043	0.21387	-0.409
Mof_O 	O 	0.7264	0.28613	0.92957	-0.409
Mof_O 	O 	0.7264	0.21387	0.92957	-0.409
Mof_O 	O 	0.7203	0.21484	0.98572	-0.428
Mof_O 	O 	0.8861	0.71505	0.71537	-0.464
Mof_O 	O 	0.4667	0.78475	0.78507	-0.422
Mof_O 	O 	0.4667	0.71525	0.78507	-0.422
Mof_O 	O 	0.8861	0.78495	0.78463	-0.464
Mof_O 	O 	0.1251	0.52213	0.28438	-0.442
Mof_O 	O 	0.3861	0.78463	0.78495	-0.464
Mof_O 	O 	0.6275	0.28505	0.57729	-0.437
Mof_O 	O 	0.1275	0.57729	0.21495	-0.437
_end
