data_functionalizedCrystal
_audit_creation_method	'EQeq! by Chris Wilmer'
_symmetry_space_group_name_H-M	'P1'
_symmetry_Int_Tables_number	1
_symmetry_cell_setting	triclinic
loop_
_symmetry_equiv_pos_as_xyz
  x,y,z
_cell_length_a	10.3912
_cell_length_b	11.8723
_cell_length_c	11.879
_cell_angle_alpha	82.379
_cell_angle_beta	87.725
_cell_angle_gamma	81.666
loop_
_atom_site_label
_atom_site_type_symbol
_atom_site_fract_x
_atom_site_fract_y
_atom_site_fract_z
_atom_site_charge
Mof_Nd	Nd	0.98104	0.07738	0.23929	2.494
Mof_P 	P 	0.70199	0.31665	0.27806	0.507
Mof_P 	P 	0.11861	0.11678	0.50462	0.499
Mof_P 	P 	0.8463	0.10744	0.96536	0.51
Mof_O 	O 	0.7999	0.2157	0.2591	-0.543
Mof_O 	O 	0.5644	0.3012	0.2447	-0.468
Mof_H 	H 	0.5513	0.3303	0.1788	0.265
Mof_O 	O 	0.7391	0.4295	0.2201	-0.26
Mof_O 	O 	0.8209	0.3306	0.4683	-0.337
Mof_H 	H 	0.8196	0.3289	0.5375	0.22
Mof_O 	O 	0.0817	0.0731	0.624	-0.504
Mof_O 	O 	0.0109	0.1536	0.4208	-0.472
Mof_O 	O 	0.1981	0.2194	0.5115	-0.434
Mof_H 	H 	0.2025	0.2564	0.4484	0.245
Mof_O 	O 	0.2044	0.0098	0.33	-0.575
Mof_H 	H 	0.2451	0.9466	0.3131	0.26
Mof_O 	O 	0.894	0.0703	0.8534	-0.527
Mof_O 	O 	0.9441	0.1411	0.0397	-0.541
Mof_O 	O 	0.7334	0.2094	0.94	-0.453
Mof_H 	H 	0.7559	0.2684	0.9568	0.26
Mof_O 	O 	0.7983	0.99	0.1638	-0.58
Mof_H 	H 	0.7569	0.9485	0.2113	0.279
Mof_C 	C 	0.6944	0.3199	0.4314	-0.009
Mof_H 	H 	0.6712	0.2463	0.4679	0.037
Mof_C 	C 	0.5952	0.4142	0.4679	0.039
Mof_C 	C 	0.4743	0.3888	0.5031	-0.059
Mof_H 	H 	0.4562	0.3141	0.5052	0.065
Mof_C 	C 	0.6218	0.5267	0.4642	-0.056
Mof_H 	H 	0.7034	0.545	0.44	0.076
Mof_C 	C 	0.2277	0.9999	0.4488	0.008
Mof_H 	H 	0.2026	0.9268	0.4846	0.002
Mof_C 	C 	0.3695	0.0004	0.4739	0.021
Mof_C 	C 	0.4146	0.9583	0.5822	-0.051
Mof_H 	H 	0.3578	0.9302	0.638	0.038
Mof_C 	C 	0.4557	0.0421	0.3926	-0.055
Mof_H 	H 	0.4266	0.0709	0.32	0.055
Mof_C 	C 	0.7743	0.9874	0.0459	0.064
Mof_H 	H 	0.8201	0.9154	0.0235	-0.01
Mof_C 	C 	0.6311	0.9929	0.0238	0.011
Mof_C 	C 	0.539	0.0632	0.0792	-0.062
Mof_H 	H 	0.5649	0.1057	0.1325	0.061
Mof_C 	C 	0.5922	0.9293	0.9446	-0.039
Mof_H 	H 	0.6538	0.8816	0.9074	0.019
Mof_Nd	Nd	0.01896	0.92262	0.76071	2.494
Mof_P 	P 	0.29801	0.68335	0.72194	0.507
Mof_P 	P 	0.88139	0.88322	0.49538	0.499
Mof_P 	P 	0.1537	0.89256	0.03464	0.51
Mof_O 	O 	0.2001	0.7843	0.7409	-0.543
Mof_O 	O 	0.4356	0.6988	0.7553	-0.468
Mof_H 	H 	0.4487	0.6697	0.8212	0.265
Mof_O 	O 	0.2609	0.5705	0.7799	-0.26
Mof_O 	O 	0.1791	0.6694	0.5317	-0.337
Mof_H 	H 	0.1804	0.6711	0.4625	0.22
Mof_O 	O 	0.9183	0.9269	0.376	-0.504
Mof_O 	O 	0.9891	0.8464	0.5792	-0.472
Mof_O 	O 	0.8019	0.7806	0.4885	-0.434
Mof_H 	H 	0.7975	0.7436	0.5516	0.245
Mof_O 	O 	0.7956	0.9902	0.67	-0.575
Mof_H 	H 	0.7549	0.0534	0.6869	0.26
Mof_O 	O 	0.106	0.9297	0.1466	-0.527
Mof_O 	O 	0.0559	0.8589	0.9603	-0.541
Mof_O 	O 	0.2666	0.7906	0.06	-0.453
Mof_H 	H 	0.2441	0.7316	0.0432	0.26
Mof_O 	O 	0.2017	0.01	0.8362	-0.58
Mof_H 	H 	0.2431	0.0515	0.7887	0.279
Mof_C 	C 	0.3056	0.6801	0.5686	-0.009
Mof_H 	H 	0.3288	0.7537	0.5321	0.037
Mof_C 	C 	0.4048	0.5858	0.5321	0.039
Mof_C 	C 	0.5257	0.6112	0.4969	-0.059
Mof_H 	H 	0.5438	0.6859	0.4948	0.065
Mof_C 	C 	0.3782	0.4733	0.5358	-0.056
Mof_H 	H 	0.2966	0.455	0.56	0.076
Mof_C 	C 	0.7723	0.0001	0.5512	0.008
Mof_H 	H 	0.7974	0.0732	0.5154	0.002
Mof_C 	C 	0.6305	0.9996	0.5261	0.021
Mof_C 	C 	0.5854	0.0417	0.4178	-0.051
Mof_H 	H 	0.6422	0.0698	0.362	0.038
Mof_C 	C 	0.5443	0.9579	0.6074	-0.055
Mof_H 	H 	0.5734	0.9291	0.68	0.055
Mof_C 	C 	0.2257	0.0126	0.9541	0.064
Mof_H 	H 	0.1799	0.0846	0.9765	-0.01
Mof_C 	C 	0.3689	0.0071	0.9762	0.011
Mof_C 	C 	0.461	0.9368	0.9208	-0.062
Mof_H 	H 	0.4351	0.8943	0.8675	0.061
Mof_C 	C 	0.4078	0.0707	0.0554	-0.039
Mof_H 	H 	0.3462	0.1184	0.0926	0.019
_end
