data_functionalizedCrystal
_audit_creation_method	'EQeq! by Chris Wilmer'
_symmetry_space_group_name_H-M	'P1'
_symmetry_Int_Tables_number	1
_symmetry_cell_setting	triclinic
loop_
_symmetry_equiv_pos_as_xyz
  x,y,z
_cell_length_a	19.3064
_cell_length_b	17.452
_cell_length_c	24.0043
_cell_angle_alpha	90
_cell_angle_beta	90
_cell_angle_gamma	90
loop_
_atom_site_label
_atom_site_type_symbol
_atom_site_fract_x
_atom_site_fract_y
_atom_site_fract_z
_atom_site_charge
Mof_C 	C 	0.5209	0.6627	0.3286	-0.031
Mof_H 	H 	0.533	0.6464	0.3661	0.025
Mof_C 	C 	0.5376	0.6135	0.2851	-0.029
Mof_H 	H 	0.554	0.562	0.2918	0.033
Mof_C 	C 	0.5352	0.6394	0.2304	-0.03
Mof_H 	H 	0.5414	0.6046	0.1995	0.037
Mof_C 	C 	0.5159	0.7146	0.2191	-0.014
Mof_H 	H 	0.5056	0.731	0.1816	0.021
Mof_C 	C 	0.6374	0.7222	0.5709	0.417
Mof_C 	C 	0.6912	0.7822	0.5705	-0.121
Mof_C 	C 	0.7593	0.7586	0.5682	-0.015
Mof_H 	H 	0.7686	0.7063	0.5679	0.048
Mof_C 	C 	0.6789	0.8616	0.5698	0.062
Mof_C 	C 	0.6068	0.8966	0.5546	-0.016
Mof_H 	H 	0.5693	0.8657	0.5453	0.045
Mof_C 	C 	0.6012	0.9771	0.5555	0.003
Mof_H 	H 	0.5573	0.9985	0.559	0.032
Mof_C 	C 	0.815	0.8097	0.5663	0.014
Mof_H 	H 	0.8602	0.7916	0.5641	0.008
Mof_C 	C 	0.7352	0.9152	0.5697	0.041
Mof_C 	C 	0.7192	0.9998	0.5545	-0.031
Mof_H 	H 	0.7557	0.0332	0.5475	0.024
Mof_C 	C 	0.6561	0.0248	0.5514	-0.064
Mof_H 	H 	0.6484	0.077	0.5463	0.051
Mof_C 	C 	0.8022	0.8867	0.5677	-0.149
Mof_C 	C 	0.8647	0.9394	0.5684	0.486
Mof_O 	O 	0.654	0.6586	0.5908	-0.482
Mof_O 	O 	0.5791	0.7379	0.5529	-0.516
Mof_O 	O 	0.9107	0.9304	0.5336	-0.775
Mof_O 	O 	0.8655	0.9888	0.6065	-0.547
Mof_O 	O 	0.4446	0.8957	0.1792	-0.52
Mof_Zn	Zn	0.58104	0.58078	0.60036	1.209
Mof_C 	C 	0.6133	0.8918	0.5835	-0.08
Mof_H 	H 	0.5747	0.8599	0.5829	0.058
Mof_C 	C 	0.6056	0.9635	0.5971	-0.012
Mof_H 	H 	0.5636	0.9792	0.6122	0.026
Mof_C 	C 	0.721	0.9933	0.5816	0.002
Mof_H 	H 	0.7576	0.0279	0.5834	0.032
Mof_C 	C 	0.6578	0.0179	0.5901	-0.022
Mof_H 	H 	0.648	0.07	0.5913	0.036
Mof_C 	C 	0.0209	0.1627	0.3286	-0.874
Mof_H 	H 	0.033	0.1464	0.3661	0.296
Mof_C 	C 	0.0376	0.1135	0.2851	0.239
Mof_H 	H 	0.054	0.062	0.2918	-0.039
Mof_C 	C 	0.0352	0.1394	0.2304	0.431
Mof_H 	H 	0.0414	0.1046	0.1995	-0.077
Mof_C 	C 	0.0159	0.2146	0.2191	-1.059
Mof_H 	H 	0.0056	0.231	0.1816	-0.397
Mof_C 	C 	0.1374	0.2222	0.5709	0.418
Mof_C 	C 	0.1912	0.2822	0.5705	-0.113
Mof_C 	C 	0.2593	0.2586	0.5682	-0.011
Mof_H 	H 	0.2686	0.2063	0.5679	0.052
Mof_C 	C 	0.1789	0.3616	0.5698	0.057
Mof_C 	C 	0.1068	0.3966	0.5546	-0.013
Mof_H 	H 	0.0693	0.3657	0.5453	0.051
Mof_C 	C 	0.1012	0.4771	0.5555	-0.037
Mof_H 	H 	0.0573	0.4985	0.559	0.056
Mof_C 	C 	0.315	0.3097	0.5663	0.013
Mof_H 	H 	0.3602	0.2916	0.5641	0.026
Mof_C 	C 	0.2352	0.4152	0.5697	0.055
Mof_C 	C 	0.2192	0.4998	0.5545	-0.044
Mof_H 	H 	0.2557	0.5332	0.5475	0.029
Mof_C 	C 	0.1561	0.5248	0.5514	-0.038
Mof_H 	H 	0.1484	0.577	0.5463	0.044
Mof_C 	C 	0.3022	0.3867	0.5677	-0.145
Mof_C 	C 	0.3647	0.4394	0.5684	0.477
Mof_O 	O 	0.154	0.1586	0.5908	-0.471
Mof_O 	O 	0.0791	0.2379	0.5529	-0.499
Mof_O 	O 	0.4107	0.4304	0.5336	-0.738
Mof_O 	O 	0.3655	0.4888	0.6065	-0.536
Mof_O 	O 	0.9446	0.3957	0.1792	-0.65
Mof_Zn	Zn	0.08104	0.08078	0.60036	1.213
Mof_C 	C 	0.1133	0.3918	0.5835	-0.071
Mof_H 	H 	0.0747	0.3599	0.5829	0.073
Mof_C 	C 	0.1056	0.4635	0.5971	-0.005
Mof_H 	H 	0.0636	0.4792	0.6122	0.037
Mof_C 	C 	0.221	0.4933	0.5816	-0.031
Mof_H 	H 	0.2576	0.5279	0.5834	0.051
Mof_C 	C 	0.1578	0.5179	0.5901	0.005
Mof_H 	H 	0.148	0.57	0.5913	0.03
Mof_C 	C 	0.4791	0.8373	0.8286	-0.043
Mof_H 	H 	0.467	0.8536	0.8661	0.028
Mof_C 	C 	0.4624	0.8865	0.7851	-0.026
Mof_H 	H 	0.446	0.938	0.7918	0.035
Mof_C 	C 	0.4648	0.8606	0.7304	-0.022
Mof_H 	H 	0.4586	0.8954	0.6995	0.036
Mof_C 	C 	0.4841	0.7854	0.7191	-0.027
Mof_H 	H 	0.4944	0.769	0.6816	0.016
Mof_C 	C 	0.3626	0.7778	0.0709	0.414
Mof_C 	C 	0.3088	0.7178	0.0705	-0.121
Mof_C 	C 	0.2407	0.7414	0.0682	-0.011
Mof_H 	H 	0.2314	0.7937	0.0679	0.05
Mof_C 	C 	0.3211	0.6384	0.0698	0.053
Mof_C 	C 	0.3932	0.6034	0.0546	-0.008
Mof_H 	H 	0.4307	0.6343	0.0453	0.036
Mof_C 	C 	0.3988	0.5229	0.0555	-0.026
Mof_H 	H 	0.4427	0.5015	0.059	0.035
Mof_C 	C 	0.185	0.6903	0.0663	0.011
Mof_H 	H 	0.1398	0.7084	0.0641	0.025
Mof_C 	C 	0.2648	0.5848	0.0697	0.05
Mof_C 	C 	0.2808	0.5002	0.0545	-0.057
Mof_H 	H 	0.2443	0.4668	0.0475	0.028
Mof_C 	C 	0.3439	0.4752	0.0514	-0.062
Mof_H 	H 	0.3516	0.423	0.0463	0.047
Mof_C 	C 	0.1978	0.6133	0.0677	-0.145
Mof_C 	C 	0.1353	0.5606	0.0684	0.474
Mof_O 	O 	0.346	0.8414	0.0908	-0.48
Mof_O 	O 	0.4209	0.7621	0.0529	-0.521
Mof_O 	O 	0.0893	0.5696	0.0336	-0.744
Mof_O 	O 	0.1345	0.5112	0.1065	-0.529
Mof_O 	O 	0.5554	0.6043	0.6792	-0.526
Mof_Zn	Zn	0.41896	0.91922	0.10036	1.21
Mof_C 	C 	0.3867	0.6082	0.0835	-0.08
Mof_H 	H 	0.4253	0.6401	0.0829	0.059
Mof_C 	C 	0.3944	0.5365	0.0971	-0.017
Mof_H 	H 	0.4364	0.5208	0.1122	0.026
Mof_C 	C 	0.279	0.5067	0.0816	-0.019
Mof_H 	H 	0.2424	0.4721	0.0834	0.048
Mof_C 	C 	0.3422	0.4821	0.0901	0.023
Mof_H 	H 	0.352	0.43	0.0913	0.023
Mof_C 	C 	0.9791	0.3373	0.8286	0.781
Mof_H 	H 	0.967	0.3536	0.8661	-0.256
Mof_C 	C 	0.9624	0.3865	0.7851	-0.305
Mof_H 	H 	0.946	0.438	0.7918	0.098
Mof_C 	C 	0.9648	0.3606	0.7304	-0.471
Mof_H 	H 	0.9586	0.3954	0.6995	0.137
Mof_C 	C 	0.9841	0.2854	0.7191	0.963
Mof_H 	H 	0.9944	0.269	0.6816	0.449
Mof_C 	C 	0.8626	0.2778	0.0709	0.415
Mof_C 	C 	0.8088	0.2178	0.0705	-0.126
Mof_C 	C 	0.7407	0.2414	0.0682	-0.015
Mof_H 	H 	0.7314	0.2937	0.0679	0.048
Mof_C 	C 	0.8211	0.1384	0.0698	0.039
Mof_C 	C 	0.8932	0.1034	0.0546	-0.018
Mof_H 	H 	0.9307	0.1343	0.0453	0.022
Mof_C 	C 	0.8988	0.0229	0.0555	-0.029
Mof_H 	H 	0.9427	0.0015	0.059	0.008
Mof_C 	C 	0.685	0.1903	0.0663	0.012
Mof_H 	H 	0.6398	0.2084	0.0641	0.023
Mof_C 	C 	0.7648	0.0848	0.0697	0.06
Mof_C 	C 	0.7808	0.0002	0.0545	-0.075
Mof_H 	H 	0.7443	0.9668	0.0475	0.037
Mof_C 	C 	0.8439	0.9752	0.0514	-0.04
Mof_H 	H 	0.8516	0.923	0.0463	0.033
Mof_C 	C 	0.6978	0.1133	0.0677	-0.155
Mof_C 	C 	0.6353	0.0606	0.0684	0.479
Mof_O 	O 	0.846	0.3414	0.0908	-0.495
Mof_O 	O 	0.9209	0.2621	0.0529	-0.563
Mof_O 	O 	0.5893	0.0696	0.0336	-0.748
Mof_O 	O 	0.6345	0.0112	0.1065	-0.545
Mof_O 	O 	0.0554	0.1043	0.6792	-0.544
Mof_Zn	Zn	0.91896	0.41922	0.10036	1.195
Mof_C 	C 	0.8867	0.1082	0.0835	-0.063
Mof_H 	H 	0.9253	0.1401	0.0829	0.037
Mof_C 	C 	0.8944	0.0365	0.0971	-0.035
Mof_H 	H 	0.9364	0.0208	0.1122	0.003
Mof_C 	C 	0.779	0.0067	0.0816	-0.035
Mof_H 	H 	0.7424	0.9721	0.0834	0.055
Mof_C 	C 	0.8422	0.9821	0.0901	0.031
Mof_H 	H 	0.852	0.93	0.0913	0.006
Mof_C 	C 	0.4791	0.1627	0.1714	-0.044
Mof_H 	H 	0.467	0.1464	0.1339	0.028
Mof_C 	C 	0.4624	0.1135	0.2149	-0.025
Mof_H 	H 	0.446	0.062	0.2082	0.03
Mof_C 	C 	0.4648	0.1394	0.2696	-0.023
Mof_H 	H 	0.4586	0.1046	0.3005	0.034
Mof_C 	C 	0.4841	0.2146	0.2809	-0.027
Mof_H 	H 	0.4944	0.231	0.3184	0.016
Mof_C 	C 	0.3626	0.2222	0.9291	0.417
Mof_C 	C 	0.3088	0.2822	0.9295	-0.116
Mof_C 	C 	0.2407	0.2586	0.9318	-0.005
Mof_H 	H 	0.2314	0.2063	0.9321	0.053
Mof_C 	C 	0.3211	0.3616	0.9302	0.058
Mof_C 	C 	0.3932	0.3966	0.9454	-0.01
Mof_H 	H 	0.4307	0.3657	0.9547	0.046
Mof_C 	C 	0.3988	0.4771	0.9445	-0.008
Mof_H 	H 	0.4427	0.4985	0.941	0.035
Mof_C 	C 	0.185	0.3097	0.9337	0.013
Mof_H 	H 	0.1398	0.2916	0.9359	0.031
Mof_C 	C 	0.2648	0.4152	0.9303	0.054
Mof_C 	C 	0.2808	0.4998	0.9455	-0.053
Mof_H 	H 	0.2443	0.5332	0.9525	0.038
Mof_C 	C 	0.3439	0.5248	0.9486	-0.044
Mof_H 	H 	0.3516	0.577	0.9537	0.051
Mof_C 	C 	0.1978	0.3867	0.9323	-0.138
Mof_C 	C 	0.1353	0.4394	0.9316	0.473
Mof_O 	O 	0.346	0.1586	0.9092	-0.477
Mof_O 	O 	0.4209	0.2379	0.9471	-0.511
Mof_O 	O 	0.0893	0.4304	0.9664	-0.726
Mof_O 	O 	0.1345	0.4888	0.8935	-0.527
Mof_O 	O 	0.5554	0.3957	0.3208	-0.526
Mof_Zn	Zn	0.41896	0.08078	0.89964	1.208
Mof_C 	C 	0.3867	0.3918	0.9165	-0.073
Mof_H 	H 	0.4253	0.3599	0.9171	0.055
Mof_C 	C 	0.3944	0.4635	0.9029	-0.028
Mof_H 	H 	0.4364	0.4792	0.8878	0.03
Mof_C 	C 	0.279	0.4933	0.9184	-0.016
Mof_H 	H 	0.2424	0.5279	0.9166	0.046
Mof_C 	C 	0.3422	0.5179	0.9099	0.006
Mof_H 	H 	0.352	0.57	0.9087	0.028
Mof_C 	C 	0.9791	0.6627	0.1714	0.78
Mof_H 	H 	0.967	0.6464	0.1339	-0.255
Mof_C 	C 	0.9624	0.6135	0.2149	-0.304
Mof_H 	H 	0.946	0.562	0.2082	0.097
Mof_C 	C 	0.9648	0.6394	0.2696	-0.473
Mof_H 	H 	0.9586	0.6046	0.3005	0.138
Mof_C 	C 	0.9841	0.7146	0.2809	0.966
Mof_H 	H 	0.9944	0.731	0.3184	0.45
Mof_C 	C 	0.8626	0.7222	0.9291	0.423
Mof_C 	C 	0.8088	0.7822	0.9295	-0.134
Mof_C 	C 	0.7407	0.7586	0.9318	0.004
Mof_H 	H 	0.7314	0.7063	0.9321	0.048
Mof_C 	C 	0.8211	0.8616	0.9302	0.066
Mof_C 	C 	0.8932	0.8966	0.9454	-0.026
Mof_H 	H 	0.9307	0.8657	0.9547	0.034
Mof_C 	C 	0.8988	0.9771	0.9445	0.03
Mof_H 	H 	0.9427	0.9985	0.941	-0.001
Mof_C 	C 	0.685	0.8097	0.9337	-0.001
Mof_H 	H 	0.6398	0.7916	0.9359	0.034
Mof_C 	C 	0.7648	0.9152	0.9303	0.032
Mof_C 	C 	0.7808	0.9998	0.9455	-0.031
Mof_H 	H 	0.7443	0.0332	0.9525	0.028
Mof_C 	C 	0.8439	0.0248	0.9486	-0.066
Mof_H 	H 	0.8516	0.077	0.9537	0.049
Mof_C 	C 	0.6978	0.8867	0.9323	-0.128
Mof_C 	C 	0.6353	0.9394	0.9316	0.472
Mof_O 	O 	0.846	0.6586	0.9092	-0.492
Mof_O 	O 	0.9209	0.7379	0.9471	-0.555
Mof_O 	O 	0.5893	0.9304	0.9664	-0.724
Mof_O 	O 	0.6345	0.9888	0.8935	-0.53
Mof_O 	O 	0.0554	0.8957	0.3208	-0.538
Mof_Zn	Zn	0.91896	0.58078	0.89964	1.196
Mof_C 	C 	0.8867	0.8918	0.9165	-0.076
Mof_H 	H 	0.9253	0.8599	0.9171	0.04
Mof_C 	C 	0.8944	0.9635	0.9029	-0.028
Mof_H 	H 	0.9364	0.9792	0.8878	0.005
Mof_C 	C 	0.779	0.9933	0.9184	0.014
Mof_H 	H 	0.7424	0.0279	0.9166	0.025
Mof_C 	C 	0.8422	0.0179	0.9099	-0.034
Mof_H 	H 	0.852	0.07	0.9087	0.028
Mof_C 	C 	0.5209	0.3373	0.6714	-0.031
Mof_H 	H 	0.533	0.3536	0.6339	0.024
Mof_C 	C 	0.5376	0.3865	0.7149	-0.03
Mof_H 	H 	0.554	0.438	0.7082	0.032
Mof_C 	C 	0.5352	0.3606	0.7696	-0.031
Mof_H 	H 	0.5414	0.3954	0.8005	0.036
Mof_C 	C 	0.5159	0.2854	0.7809	-0.015
Mof_H 	H 	0.5056	0.269	0.8184	0.02
Mof_C 	C 	0.6374	0.2778	0.4291	0.411
Mof_C 	C 	0.6912	0.2178	0.4295	-0.109
Mof_C 	C 	0.7593	0.2414	0.4318	-0.03
Mof_H 	H 	0.7686	0.2937	0.4321	0.052
Mof_C 	C 	0.6789	0.1384	0.4302	0.038
Mof_C 	C 	0.6068	0.1034	0.4454	-0.011
Mof_H 	H 	0.5693	0.1343	0.4547	0.042
Mof_C 	C 	0.6012	0.0229	0.4445	-0.042
Mof_H 	H 	0.5573	0.0015	0.441	0.041
Mof_C 	C 	0.815	0.1903	0.4337	0.029
Mof_H 	H 	0.8602	0.2084	0.4359	0.002
Mof_C 	C 	0.7352	0.0848	0.4303	0.073
Mof_C 	C 	0.7192	0.0002	0.4455	-0.075
Mof_H 	H 	0.7557	0.9668	0.4525	0.042
Mof_C 	C 	0.6561	0.9752	0.4486	-0.02
Mof_H 	H 	0.6484	0.923	0.4537	0.039
Mof_C 	C 	0.8022	0.1133	0.4323	-0.169
Mof_C 	C 	0.8647	0.0606	0.4316	0.492
Mof_O 	O 	0.654	0.3414	0.4092	-0.481
Mof_O 	O 	0.5791	0.2621	0.4471	-0.515
Mof_O 	O 	0.9107	0.0696	0.4664	-0.781
Mof_O 	O 	0.8655	0.0112	0.3935	-0.559
Mof_O 	O 	0.4446	0.1043	0.8208	-0.526
Mof_Zn	Zn	0.58104	0.41922	0.39964	1.209
Mof_C 	C 	0.6133	0.1082	0.4165	-0.06
Mof_H 	H 	0.5747	0.1401	0.4171	0.051
Mof_C 	C 	0.6056	0.0365	0.4029	-0.03
Mof_H 	H 	0.5636	0.0208	0.3878	0.028
Mof_C 	C 	0.721	0.0067	0.4184	-0.046
Mof_H 	H 	0.7576	0.9721	0.4166	0.06
Mof_C 	C 	0.6578	0.9821	0.4099	0.029
Mof_H 	H 	0.648	0.93	0.4087	0.018
Mof_C 	C 	0.0209	0.8373	0.6714	-0.89
Mof_H 	H 	0.033	0.8536	0.6339	0.301
Mof_C 	C 	0.0376	0.8865	0.7149	0.244
Mof_H 	H 	0.054	0.938	0.7082	-0.036
Mof_C 	C 	0.0352	0.8606	0.7696	0.441
Mof_H 	H 	0.0414	0.8954	0.8005	-0.077
Mof_C 	C 	0.0159	0.7854	0.7809	-1.079
Mof_H 	H 	0.0056	0.769	0.8184	-0.406
Mof_C 	C 	0.1374	0.7778	0.4291	0.417
Mof_C 	C 	0.1912	0.7178	0.4295	-0.112
Mof_C 	C 	0.2593	0.7414	0.4318	-0.012
Mof_H 	H 	0.2686	0.7937	0.4321	0.052
Mof_C 	C 	0.1789	0.6384	0.4302	0.057
Mof_C 	C 	0.1068	0.6034	0.4454	-0.014
Mof_H 	H 	0.0693	0.6343	0.4547	0.051
Mof_C 	C 	0.1012	0.5229	0.4445	-0.037
Mof_H 	H 	0.0573	0.5015	0.441	0.057
Mof_C 	C 	0.315	0.6903	0.4337	0.014
Mof_H 	H 	0.3602	0.7084	0.4359	0.026
Mof_C 	C 	0.2352	0.5848	0.4303	0.055
Mof_C 	C 	0.2192	0.5002	0.4455	-0.043
Mof_H 	H 	0.2557	0.4668	0.4525	0.029
Mof_C 	C 	0.1561	0.4752	0.4486	-0.037
Mof_H 	H 	0.1484	0.423	0.4537	0.044
Mof_C 	C 	0.3022	0.6133	0.4323	-0.145
Mof_C 	C 	0.3647	0.5606	0.4316	0.477
Mof_O 	O 	0.154	0.8414	0.4092	-0.47
Mof_O 	O 	0.0791	0.7621	0.4471	-0.499
Mof_O 	O 	0.4107	0.5696	0.4664	-0.738
Mof_O 	O 	0.3655	0.5112	0.3935	-0.536
Mof_O 	O 	0.9446	0.6043	0.8208	-0.652
Mof_Zn	Zn	0.08104	0.91922	0.39964	1.217
Mof_C 	C 	0.1133	0.6082	0.4165	-0.071
Mof_H 	H 	0.0747	0.6401	0.4171	0.073
Mof_C 	C 	0.1056	0.5365	0.4029	-0.004
Mof_H 	H 	0.0636	0.5208	0.3878	0.037
Mof_C 	C 	0.221	0.5067	0.4184	-0.031
Mof_H 	H 	0.2576	0.4721	0.4166	0.051
Mof_C 	C 	0.1578	0.4821	0.4099	0.004
Mof_H 	H 	0.148	0.43	0.4087	0.03
Mof_C 	C 	0.4791	0.3373	0.6714	-0.043
Mof_H 	H 	0.467	0.3536	0.6339	0.028
Mof_C 	C 	0.4624	0.3865	0.7149	-0.025
Mof_H 	H 	0.446	0.438	0.7082	0.032
Mof_C 	C 	0.4648	0.3606	0.7696	-0.023
Mof_H 	H 	0.4586	0.3954	0.8005	0.035
Mof_C 	C 	0.4841	0.2854	0.7809	-0.027
Mof_H 	H 	0.4944	0.269	0.8184	0.016
Mof_C 	C 	0.3626	0.2778	0.4291	0.413
Mof_C 	C 	0.3088	0.2178	0.4295	-0.111
Mof_C 	C 	0.2407	0.2414	0.4318	-0.016
Mof_H 	H 	0.2314	0.2937	0.4321	0.054
Mof_C 	C 	0.3211	0.1384	0.4302	0.043
Mof_C 	C 	0.3932	0.1034	0.4454	-0.006
Mof_H 	H 	0.4307	0.1343	0.4547	0.04
Mof_C 	C 	0.3988	0.0229	0.4445	-0.04
Mof_H 	H 	0.4427	0.0015	0.441	0.04
Mof_C 	C 	0.185	0.1903	0.4337	0.021
Mof_H 	H 	0.1398	0.2084	0.4359	0.025
Mof_C 	C 	0.2648	0.0848	0.4303	0.069
Mof_C 	C 	0.2808	0.0002	0.4455	-0.077
Mof_H 	H 	0.2443	0.9668	0.4525	0.043
Mof_C 	C 	0.3439	0.9752	0.4486	-0.029
Mof_H 	H 	0.3516	0.923	0.4537	0.043
Mof_C 	C 	0.1978	0.1133	0.4323	-0.152
Mof_C 	C 	0.1353	0.0606	0.4316	0.477
Mof_O 	O 	0.346	0.3414	0.4092	-0.477
Mof_O 	O 	0.4209	0.2621	0.4471	-0.515
Mof_O 	O 	0.0893	0.0696	0.4664	-0.739
Mof_O 	O 	0.1345	0.0112	0.3935	-0.535
Mof_O 	O 	0.5554	0.1043	0.8208	-0.529
Mof_Zn	Zn	0.41896	0.41922	0.39964	1.21
Mof_C 	C 	0.3867	0.1082	0.4165	-0.065
Mof_H 	H 	0.4253	0.1401	0.4171	0.053
Mof_C 	C 	0.3944	0.0365	0.4029	-0.032
Mof_H 	H 	0.4364	0.0208	0.3878	0.029
Mof_C 	C 	0.279	0.0067	0.4184	-0.043
Mof_H 	H 	0.2424	0.9721	0.4166	0.062
Mof_C 	C 	0.3422	0.9821	0.4099	0.041
Mof_H 	H 	0.352	0.93	0.4087	0.016
Mof_C 	C 	0.9791	0.8373	0.6714	0.786
Mof_H 	H 	0.967	0.8536	0.6339	-0.258
Mof_C 	C 	0.9624	0.8865	0.7149	-0.307
Mof_H 	H 	0.946	0.938	0.7082	0.1
Mof_C 	C 	0.9648	0.8606	0.7696	-0.475
Mof_H 	H 	0.9586	0.8954	0.8005	0.14
Mof_C 	C 	0.9841	0.7854	0.7809	0.971
Mof_H 	H 	0.9944	0.769	0.8184	0.452
Mof_C 	C 	0.8626	0.7778	0.4291	0.418
Mof_C 	C 	0.8088	0.7178	0.4295	-0.129
Mof_C 	C 	0.7407	0.7414	0.4318	-0.007
Mof_H 	H 	0.7314	0.7937	0.4321	0.049
Mof_C 	C 	0.8211	0.6384	0.4302	0.049
Mof_C 	C 	0.8932	0.6034	0.4454	-0.021
Mof_H 	H 	0.9307	0.6343	0.4547	0.027
Mof_C 	C 	0.8988	0.5229	0.4445	-0.005
Mof_H 	H 	0.9427	0.5015	0.441	0.004
Mof_C 	C 	0.685	0.6903	0.4337	0.007
Mof_H 	H 	0.6398	0.7084	0.4359	0.028
Mof_C 	C 	0.7648	0.5848	0.4303	0.05
Mof_C 	C 	0.7808	0.5002	0.4455	-0.056
Mof_H 	H 	0.7443	0.4668	0.4525	0.034
Mof_C 	C 	0.8439	0.4752	0.4486	-0.048
Mof_H 	H 	0.8516	0.423	0.4537	0.04
Mof_C 	C 	0.6978	0.6133	0.4323	-0.144
Mof_C 	C 	0.6353	0.5606	0.4316	0.477
Mof_O 	O 	0.846	0.8414	0.4092	-0.493
Mof_O 	O 	0.9209	0.7621	0.4471	-0.56
Mof_O 	O 	0.5893	0.5696	0.4664	-0.737
Mof_O 	O 	0.6345	0.5112	0.3935	-0.539
Mof_O 	O 	0.0554	0.6043	0.8208	-0.541
Mof_Zn	Zn	0.91896	0.91922	0.39964	1.197
Mof_C 	C 	0.8867	0.6082	0.4165	-0.067
Mof_H 	H 	0.9253	0.6401	0.4171	0.037
Mof_C 	C 	0.8944	0.5365	0.4029	-0.033
Mof_H 	H 	0.9364	0.5208	0.3878	0.003
Mof_C 	C 	0.779	0.5067	0.4184	-0.017
Mof_H 	H 	0.7424	0.4721	0.4166	0.043
Mof_C 	C 	0.8422	0.4821	0.4099	0.004
Mof_H 	H 	0.852	0.43	0.4087	0.015
Mof_C 	C 	0.5209	0.1627	0.1714	-0.032
Mof_H 	H 	0.533	0.1464	0.1339	0.024
Mof_C 	C 	0.5376	0.1135	0.2149	-0.03
Mof_H 	H 	0.554	0.062	0.2082	0.03
Mof_C 	C 	0.5352	0.1394	0.2696	-0.032
Mof_H 	H 	0.5414	0.1046	0.3005	0.035
Mof_C 	C 	0.5159	0.2146	0.2809	-0.015
Mof_H 	H 	0.5056	0.231	0.3184	0.019
Mof_C 	C 	0.6374	0.2222	0.9291	0.415
Mof_C 	C 	0.6912	0.2822	0.9295	-0.113
Mof_C 	C 	0.7593	0.2586	0.9318	-0.02
Mof_H 	H 	0.7686	0.2063	0.9321	0.051
Mof_C 	C 	0.6789	0.3616	0.9302	0.051
Mof_C 	C 	0.6068	0.3966	0.9454	-0.015
Mof_H 	H 	0.5693	0.3657	0.9547	0.048
Mof_C 	C 	0.6012	0.4771	0.9445	-0.011
Mof_H 	H 	0.5573	0.4985	0.941	0.036
Mof_C 	C 	0.815	0.3097	0.9337	0.022
Mof_H 	H 	0.8602	0.2916	0.9359	0.007
Mof_C 	C 	0.7352	0.4152	0.9303	0.059
Mof_C 	C 	0.7192	0.4998	0.9455	-0.053
Mof_H 	H 	0.7557	0.5332	0.9525	0.038
Mof_C 	C 	0.6561	0.5248	0.9486	-0.033
Mof_H 	H 	0.6484	0.577	0.9537	0.047
Mof_C 	C 	0.8022	0.3867	0.9323	-0.156
Mof_C 	C 	0.8647	0.4394	0.9316	0.489
Mof_O 	O 	0.654	0.1586	0.9092	-0.48
Mof_O 	O 	0.5791	0.2379	0.9471	-0.511
Mof_O 	O 	0.9107	0.4304	0.9664	-0.769
Mof_O 	O 	0.8655	0.4888	0.8935	-0.553
Mof_O 	O 	0.4446	0.3957	0.3208	-0.523
Mof_Zn	Zn	0.58104	0.08078	0.89964	1.208
Mof_C 	C 	0.6133	0.3918	0.9165	-0.067
Mof_H 	H 	0.5747	0.3599	0.9171	0.053
Mof_C 	C 	0.6056	0.4635	0.9029	-0.027
Mof_H 	H 	0.5636	0.4792	0.8878	0.029
Mof_C 	C 	0.721	0.4933	0.9184	-0.02
Mof_H 	H 	0.7576	0.5279	0.9166	0.045
Mof_C 	C 	0.6578	0.5179	0.9099	-0.003
Mof_H 	H 	0.648	0.57	0.9087	0.029
Mof_C 	C 	0.0209	0.6627	0.1714	-0.885
Mof_H 	H 	0.033	0.6464	0.1339	0.299
Mof_C 	C 	0.0376	0.6135	0.2149	0.242
Mof_H 	H 	0.054	0.562	0.2082	-0.038
Mof_C 	C 	0.0352	0.6394	0.2696	0.438
Mof_H 	H 	0.0414	0.6046	0.3005	-0.077
Mof_C 	C 	0.0159	0.7146	0.2809	-1.073
Mof_H 	H 	0.0056	0.731	0.3184	-0.404
Mof_C 	C 	0.1374	0.7222	0.9291	0.423
Mof_C 	C 	0.1912	0.7822	0.9295	-0.118
Mof_C 	C 	0.2593	0.7586	0.9318	0.001
Mof_H 	H 	0.2686	0.7063	0.9321	0.051
Mof_C 	C 	0.1789	0.8616	0.9302	0.074
Mof_C 	C 	0.1068	0.8966	0.9454	-0.019
Mof_H 	H 	0.0693	0.8657	0.9547	0.057
Mof_C 	C 	0.1012	0.9771	0.9445	0
Mof_H 	H 	0.0573	0.9985	0.941	0.05
Mof_C 	C 	0.315	0.8097	0.9337	0.004
Mof_H 	H 	0.3602	0.7916	0.9359	0.033
Mof_C 	C 	0.2352	0.9152	0.9303	0.036
Mof_C 	C 	0.2192	0.9998	0.9455	-0.015
Mof_H 	H 	0.2557	0.0332	0.9525	0.021
Mof_C 	C 	0.1561	0.0248	0.9486	-0.057
Mof_H 	H 	0.1484	0.077	0.9537	0.053
Mof_C 	C 	0.3022	0.8867	0.9323	-0.128
Mof_C 	C 	0.3647	0.9394	0.9316	0.472
Mof_O 	O 	0.154	0.6586	0.9092	-0.469
Mof_O 	O 	0.0791	0.7379	0.9471	-0.495
Mof_O 	O 	0.4107	0.9304	0.9664	-0.724
Mof_O 	O 	0.3655	0.9888	0.8935	-0.527
Mof_O 	O 	0.9446	0.8957	0.3208	-0.648
Mof_Zn	Zn	0.08104	0.58078	0.89964	1.216
Mof_C 	C 	0.1133	0.8918	0.9165	-0.081
Mof_H 	H 	0.0747	0.8599	0.9171	0.076
Mof_C 	C 	0.1056	0.9635	0.9029	0.002
Mof_H 	H 	0.0636	0.9792	0.8878	0.038
Mof_C 	C 	0.221	0.9933	0.9184	0.002
Mof_H 	H 	0.2576	0.0279	0.9166	0.032
Mof_C 	C 	0.1578	0.0179	0.9099	-0.037
Mof_H 	H 	0.148	0.07	0.9087	0.044
Mof_C 	C 	0.5209	0.8373	0.8286	-0.031
Mof_H 	H 	0.533	0.8536	0.8661	0.024
Mof_C 	C 	0.5376	0.8865	0.7851	-0.031
Mof_H 	H 	0.554	0.938	0.7918	0.034
Mof_C 	C 	0.5352	0.8606	0.7304	-0.031
Mof_H 	H 	0.5414	0.8954	0.6995	0.037
Mof_C 	C 	0.5159	0.7854	0.7191	-0.015
Mof_H 	H 	0.5056	0.769	0.6816	0.02
Mof_C 	C 	0.6374	0.7778	0.0709	0.412
Mof_C 	C 	0.6912	0.7178	0.0705	-0.117
Mof_C 	C 	0.7593	0.7414	0.0682	-0.026
Mof_H 	H 	0.7686	0.7937	0.0679	0.048
Mof_C 	C 	0.6789	0.6384	0.0698	0.047
Mof_C 	C 	0.6068	0.6034	0.0546	-0.013
Mof_H 	H 	0.5693	0.6343	0.0453	0.038
Mof_C 	C 	0.6012	0.5229	0.0555	-0.029
Mof_H 	H 	0.5573	0.5015	0.059	0.036
Mof_C 	C 	0.815	0.6903	0.0663	0.02
Mof_H 	H 	0.8602	0.7084	0.0641	0.002
Mof_C 	C 	0.7352	0.5848	0.0697	0.055
Mof_C 	C 	0.7192	0.5002	0.0545	-0.056
Mof_H 	H 	0.7557	0.4668	0.0475	0.029
Mof_C 	C 	0.6561	0.4752	0.0514	-0.051
Mof_H 	H 	0.6484	0.423	0.0463	0.043
Mof_C 	C 	0.8022	0.6133	0.0677	-0.163
Mof_C 	C 	0.8647	0.5606	0.0684	0.49
Mof_O 	O 	0.654	0.8414	0.0908	-0.483
Mof_O 	O 	0.5791	0.7621	0.0529	-0.521
Mof_O 	O 	0.9107	0.5696	0.0336	-0.787
Mof_O 	O 	0.8655	0.5112	0.1065	-0.555
Mof_O 	O 	0.4446	0.6043	0.6792	-0.523
Mof_Zn	Zn	0.58104	0.91922	0.10036	1.21
Mof_C 	C 	0.6133	0.6082	0.0835	-0.073
Mof_H 	H 	0.5747	0.6401	0.0829	0.056
Mof_C 	C 	0.6056	0.5365	0.0971	-0.017
Mof_H 	H 	0.5636	0.5208	0.1122	0.025
Mof_C 	C 	0.721	0.5067	0.0816	-0.024
Mof_H 	H 	0.7576	0.4721	0.0834	0.047
Mof_C 	C 	0.6578	0.4821	0.0901	0.013
Mof_H 	H 	0.648	0.43	0.0913	0.024
Mof_C 	C 	0.0209	0.3373	0.8286	-0.883
Mof_H 	H 	0.033	0.3536	0.8661	0.299
Mof_C 	C 	0.0376	0.3865	0.7851	0.242
Mof_H 	H 	0.054	0.438	0.7918	-0.038
Mof_C 	C 	0.0352	0.3606	0.7304	0.437
Mof_H 	H 	0.0414	0.3954	0.6995	-0.077
Mof_C 	C 	0.0159	0.2854	0.7191	-1.072
Mof_H 	H 	0.0056	0.269	0.6816	-0.402
Mof_C 	C 	0.1374	0.2778	0.0709	0.414
Mof_C 	C 	0.1912	0.2178	0.0705	-0.109
Mof_C 	C 	0.2593	0.2414	0.0682	-0.02
Mof_H 	H 	0.2686	0.2937	0.0679	0.052
Mof_C 	C 	0.1789	0.1384	0.0698	0.044
Mof_C 	C 	0.1068	0.1034	0.0546	-0.01
Mof_H 	H 	0.0693	0.1343	0.0453	0.045
Mof_C 	C 	0.1012	0.0229	0.0555	-0.065
Mof_H 	H 	0.0573	0.0015	0.059	0.059
Mof_C 	C 	0.315	0.1903	0.0663	0.019
Mof_H 	H 	0.3602	0.2084	0.0641	0.021
Mof_C 	C 	0.2352	0.0848	0.0697	0.067
Mof_C 	C 	0.2192	0.0002	0.0545	-0.065
Mof_H 	H 	0.2557	0.9668	0.0475	0.032
Mof_C 	C 	0.1561	0.9752	0.0514	-0.027
Mof_H 	H 	0.1484	0.923	0.0463	0.037
Mof_C 	C 	0.3022	0.1133	0.0677	-0.157
Mof_C 	C 	0.3647	0.0606	0.0684	0.48
Mof_O 	O 	0.154	0.3414	0.0908	-0.472
Mof_O 	O 	0.0791	0.2621	0.0529	-0.504
Mof_O 	O 	0.4107	0.0696	0.0336	-0.748
Mof_O 	O 	0.3655	0.0112	0.1065	-0.543
Mof_O 	O 	0.9446	0.1043	0.6792	-0.653
Mof_Zn	Zn	0.08104	0.41922	0.10036	1.215
Mof_C 	C 	0.1133	0.1082	0.0835	-0.065
Mof_H 	H 	0.0747	0.1401	0.0829	0.071
Mof_C 	C 	0.1056	0.0365	0.0971	-0.008
Mof_H 	H 	0.0636	0.0208	0.1122	0.036
Mof_C 	C 	0.221	0.0067	0.0816	-0.053
Mof_H 	H 	0.2576	0.9721	0.0834	0.065
Mof_C 	C 	0.1578	0.9821	0.0901	0.035
Mof_H 	H 	0.148	0.93	0.0913	0.02
Mof_C 	C 	0.4791	0.6627	0.3286	-0.043
Mof_H 	H 	0.467	0.6464	0.3661	0.028
Mof_C 	C 	0.4624	0.6135	0.2851	-0.025
Mof_H 	H 	0.446	0.562	0.2918	0.032
Mof_C 	C 	0.4648	0.6394	0.2304	-0.023
Mof_H 	H 	0.4586	0.6046	0.1995	0.035
Mof_C 	C 	0.4841	0.7146	0.2191	-0.027
Mof_H 	H 	0.4944	0.731	0.1816	0.016
Mof_C 	C 	0.3626	0.7222	0.5709	0.419
Mof_C 	C 	0.3088	0.7822	0.5705	-0.126
Mof_C 	C 	0.2407	0.7586	0.5682	-0
Mof_H 	H 	0.2314	0.7063	0.5679	0.049
Mof_C 	C 	0.3211	0.8616	0.5698	0.069
Mof_C 	C 	0.3932	0.8966	0.5546	-0.013
Mof_H 	H 	0.4307	0.8657	0.5453	0.042
Mof_C 	C 	0.3988	0.9771	0.5555	0.007
Mof_H 	H 	0.4427	0.9985	0.559	0.03
Mof_C 	C 	0.185	0.8097	0.5663	0.003
Mof_H 	H 	0.1398	0.7916	0.5641	0.031
Mof_C 	C 	0.2648	0.9152	0.5697	0.034
Mof_C 	C 	0.2808	0.9998	0.5545	-0.03
Mof_H 	H 	0.2443	0.0332	0.5475	0.023
Mof_C 	C 	0.3439	0.0248	0.5514	-0.078
Mof_H 	H 	0.3516	0.077	0.5463	0.055
Mof_C 	C 	0.1978	0.8867	0.5677	-0.13
Mof_C 	C 	0.1353	0.9394	0.5684	0.47
Mof_O 	O 	0.346	0.6586	0.5908	-0.479
Mof_O 	O 	0.4209	0.7379	0.5529	-0.517
Mof_O 	O 	0.0893	0.9304	0.5336	-0.732
Mof_O 	O 	0.1345	0.9888	0.6065	-0.521
Mof_O 	O 	0.5554	0.8957	0.1792	-0.524
Mof_Zn	Zn	0.41896	0.58078	0.60036	1.21
Mof_C 	C 	0.3867	0.8918	0.5835	-0.087
Mof_H 	H 	0.4253	0.8599	0.5829	0.061
Mof_C 	C 	0.3944	0.9635	0.5971	-0.012
Mof_H 	H 	0.4364	0.9792	0.6122	0.027
Mof_C 	C 	0.279	0.9933	0.5816	0.008
Mof_H 	H 	0.2424	0.0279	0.5834	0.032
Mof_C 	C 	0.3422	0.0179	0.5901	-0.014
Mof_H 	H 	0.352	0.07	0.5913	0.036
Mof_C 	C 	0.9791	0.1627	0.3286	0.771
Mof_H 	H 	0.967	0.1464	0.3661	-0.253
Mof_C 	C 	0.9624	0.1135	0.2851	-0.301
Mof_H 	H 	0.946	0.062	0.2918	0.095
Mof_C 	C 	0.9648	0.1394	0.2304	-0.466
Mof_H 	H 	0.9586	0.1046	0.1995	0.135
Mof_C 	C 	0.9841	0.2146	0.2191	0.952
Mof_H 	H 	0.9944	0.231	0.1816	0.444
Mof_C 	C 	0.8626	0.2222	0.5709	0.418
Mof_C 	C 	0.8088	0.2822	0.5705	-0.129
Mof_C 	C 	0.7407	0.2586	0.5682	-0.007
Mof_H 	H 	0.7314	0.2063	0.5679	0.048
Mof_C 	C 	0.8211	0.3616	0.5698	0.05
Mof_C 	C 	0.8932	0.3966	0.5546	-0.022
Mof_H 	H 	0.9307	0.3657	0.5453	0.027
Mof_C 	C 	0.8988	0.4771	0.5555	-0.004
Mof_H 	H 	0.9427	0.4985	0.559	0.004
Mof_C 	C 	0.685	0.3097	0.5663	0.007
Mof_H 	H 	0.6398	0.2916	0.5641	0.027
Mof_C 	C 	0.7648	0.4152	0.5697	0.049
Mof_C 	C 	0.7808	0.4998	0.5545	-0.056
Mof_H 	H 	0.7443	0.5332	0.5475	0.034
Mof_C 	C 	0.8439	0.5248	0.5514	-0.048
Mof_H 	H 	0.8516	0.577	0.5463	0.04
Mof_C 	C 	0.6978	0.3867	0.5677	-0.144
Mof_C 	C 	0.6353	0.4394	0.5684	0.476
Mof_O 	O 	0.846	0.1586	0.5908	-0.494
Mof_O 	O 	0.9209	0.2379	0.5529	-0.559
Mof_O 	O 	0.5893	0.4304	0.5336	-0.737
Mof_O 	O 	0.6345	0.4888	0.6065	-0.539
Mof_O 	O 	0.0554	0.3957	0.1792	-0.54
Mof_Zn	Zn	0.91896	0.08078	0.60036	1.194
Mof_C 	C 	0.8867	0.3918	0.5835	-0.067
Mof_H 	H 	0.9253	0.3599	0.5829	0.038
Mof_C 	C 	0.8944	0.4635	0.5971	-0.033
Mof_H 	H 	0.9364	0.4792	0.6122	0.003
Mof_C 	C 	0.779	0.4933	0.5816	-0.017
Mof_H 	H 	0.7424	0.5279	0.5834	0.043
Mof_C 	C 	0.8422	0.5179	0.5901	0.003
Mof_H 	H 	0.852	0.57	0.5913	0.015
Mof_Zn	Zn	0.5	0.5	0.5	0.708
Mof_Zn	Zn	2.33088e-33	0	0.5	0.713
Mof_Zn	Zn	0.5	0	-0	0.697
Mof_Zn	Zn	-3.12115e-33	0.5	-0	0.709
Mof_C 	C 	0.5	0.7638	0.2626	0.034
Mof_C 	C 	0.5	0.7379	0.3173	0.063
Mof_C 	C 	0.5	0.7757	0.421	0.466
Mof_C 	C 	0.5	0.7999	0.3649	-0.188
Mof_C 	C 	0.5	0.8652	0.3533	0.059
Mof_H 	H 	0.5	0.9009	0.382	0.024
Mof_C 	C 	0.5	0.8916	0.299	-0
Mof_H 	H 	0.5	0.9445	0.2941	0.034
Mof_C 	C 	0.5	0.852	0.2562	-0.132
Mof_C 	C 	0.5	0.8835	0.2005	0.484
Mof_O 	O 	0.5	0.5828	0.5543	-1.093
Mof_O 	O 	0.5	0.7138	0.44	-0.563
Mof_O 	O 	0.5	0.8332	0.4544	-0.318
Mof_Zn	Zn	0.5	0.68402	0.51706	1.206
Mof_Zn	Zn	0.5	0.5432	0.4721	0.955
Mof_C 	C 	-1.89697e-33	0.2638	0.2626	0.118
Mof_C 	C 	-1.10054e-32	0.2379	0.3173	0.074
Mof_C 	C 	-4.2797e-33	0.2757	0.421	0.444
Mof_C 	C 	-7.66238e-33	0.2999	0.3649	-0.123
Mof_C 	C 	-7.71646e-33	0.3652	0.3533	-0.025
Mof_H 	H 	-4.46151e-33	0.4009	0.382	0.069
Mof_C 	C 	-1.72729e-33	0.3916	0.299	0.109
Mof_H 	H 	-7.99243e-33	0.4445	0.2941	0.014
Mof_C 	C 	-1.92681e-33	0.352	0.2562	-0.216
Mof_C 	C 	-2.18647e-33	0.3835	0.2005	0.644
Mof_O 	O 	-3.65829e-33	0.0828	0.5543	-1.054
Mof_O 	O 	-4.19113e-33	0.2138	0.44	-0.524
Mof_O 	O 	-4.124e-33	0.3332	0.4544	-0.282
Mof_Zn	Zn	-1.00742e-32	0.18402	0.51706	1.222
Mof_Zn	Zn	2.20081e-33	0.0432	0.4721	0.969
Mof_C 	C 	0.5	0.7362	0.7626	0.036
Mof_C 	C 	0.5	0.7621	0.8173	0.061
Mof_C 	C 	0.5	0.7243	0.921	0.461
Mof_C 	C 	0.5	0.7001	0.8649	-0.183
Mof_C 	C 	0.5	0.6348	0.8533	0.052
Mof_H 	H 	0.5	0.5991	0.882	0.025
Mof_C 	C 	0.5	0.6084	0.799	0.006
Mof_H 	H 	0.5	0.5555	0.7941	0.029
Mof_C 	C 	0.5	0.648	0.7562	-0.136
Mof_C 	C 	0.5	0.6165	0.7005	0.486
Mof_O 	O 	0.5	0.9172	0.0543	-1.097
Mof_O 	O 	0.5	0.7862	0.94	-0.555
Mof_O 	O 	0.5	0.6668	0.9544	-0.308
Mof_Zn	Zn	0.5	0.81598	0.01706	1.201
Mof_Zn	Zn	0.5	0.9568	0.9721	0.963
Mof_C 	C 	-8.92955e-33	0.2362	0.7626	0.121
Mof_C 	C 	3.81005e-33	0.2621	0.8173	0.072
Mof_C 	C 	-8.19113e-33	0.2243	0.921	0.44
Mof_C 	C 	4.03195e-33	0.2001	0.8649	-0.118
Mof_C 	C 	3.97788e-33	0.1348	0.8533	-0.032
Mof_H 	H 	-8.37294e-33	0.0991	0.882	0.07
Mof_C 	C 	-8.75986e-33	0.1084	0.799	0.114
Mof_H 	H 	-8.78271e-33	0.0555	0.7941	0.009
Mof_C 	C 	-8.95939e-33	0.148	0.7562	-0.221
Mof_C 	C 	-2.97674e-33	0.1165	0.7005	0.645
Mof_O 	O 	4.15457e-33	0.4172	0.0543	-1.057
Mof_O 	O 	-2.05872e-32	0.2862	0.94	-0.517
Mof_O 	O 	4.44918e-33	0.1668	0.9544	-0.274
Mof_Zn	Zn	-5.77263e-33	0.31598	0.01706	1.217
Mof_Zn	Zn	4.53169e-33	0.4568	0.9721	0.976
Mof_C 	C 	0.5	0.2638	0.2374	0.033
Mof_C 	C 	0.5	0.2379	0.1827	0.064
Mof_C 	C 	0.5	0.2757	0.079	0.47
Mof_C 	C 	0.5	0.2999	0.1351	-0.192
Mof_C 	C 	0.5	0.3652	0.1467	0.062
Mof_H 	H 	0.5	0.4009	0.118	0.02
Mof_C 	C 	0.5	0.3916	0.201	-0.002
Mof_H 	H 	0.5	0.4445	0.2059	0.032
Mof_C 	C 	0.5	0.352	0.2438	-0.132
Mof_C 	C 	0.5	0.3835	0.2995	0.484
Mof_O 	O 	0.5	0.0828	0.9457	-1.088
Mof_O 	O 	0.5	0.2138	0.06	-0.57
Mof_O 	O 	0.5	0.3332	0.0456	-0.328
Mof_Zn	Zn	0.5	0.18402	0.98294	1.212
Mof_Zn	Zn	0.5	0.0432	0.0279	0.952
Mof_C 	C 	-5.1356e-33	0.7638	0.2374	0.117
Mof_C 	C 	-1.63146e-32	0.7379	0.1827	0.077
Mof_C 	C 	-8.99518e-33	0.7757	0.079	0.45
Mof_C 	C 	-5.6125e-33	0.7999	0.1351	-0.128
Mof_C 	C 	-2.43727e-33	0.8652	0.1467	-0.018
Mof_H 	H 	-4.13164e-33	0.9009	0.118	0.068
Mof_C 	C 	9.37013e-34	0.8916	0.201	0.104
Mof_H 	H 	-5.28245e-33	0.9445	0.2059	0.018
Mof_C 	C 	-8.22692e-33	0.852	0.2438	-0.212
Mof_C 	C 	-1.10884e-32	0.8835	0.2995	0.643
Mof_O 	O 	-8.07598e-33	0.5828	0.9457	-1.043
Mof_O 	O 	-2.84145e-33	0.7138	0.06	-0.532
Mof_O 	O 	-6.02973e-33	0.8332	0.0456	-0.292
Mof_Zn	Zn	-2.0387e-32	0.68402	0.98294	1.228
Mof_Zn	Zn	-9.62354e-33	0.5432	0.0279	0.968
Mof_C 	C 	0.5	0.2362	0.7374	0.035
Mof_C 	C 	0.5	0.2621	0.6827	0.062
Mof_C 	C 	0.5	0.2243	0.579	0.465
Mof_C 	C 	0.5	0.2001	0.6351	-0.187
Mof_C 	C 	0.5	0.1348	0.6467	0.054
Mof_H 	H 	0.5	0.0991	0.618	0.021
Mof_C 	C 	0.5	0.1084	0.701	0.004
Mof_H 	H 	0.5	0.0555	0.7059	0.026
Mof_C 	C 	0.5	0.148	0.7438	-0.137
Mof_C 	C 	0.5	0.1165	0.7995	0.486
Mof_O 	O 	0.5	0.4172	0.4457	-1.093
Mof_O 	O 	0.5	0.2862	0.56	-0.563
Mof_O 	O 	0.5	0.1668	0.5456	-0.319
Mof_Zn	Zn	0.5	0.31598	0.48294	1.206
Mof_Zn	Zn	0.5	0.4568	0.5279	0.955
Mof_C 	C 	-2.15316e-32	0.7362	0.7374	0.12
Mof_C 	C 	-2.17866e-32	0.7621	0.6827	0.074
Mof_C 	C 	8.94146e-33	0.7243	0.579	0.444
Mof_C 	C 	-2.20085e-32	0.7001	0.6351	-0.122
Mof_C 	C 	-9.46985e-33	0.6348	0.6467	-0.027
Mof_H 	H 	-2.20882e-32	0.5991	0.618	0.07
Mof_C 	C 	-2.97441e-33	0.6084	0.701	0.111
Mof_H 	H 	-2.16785e-32	0.5555	0.7059	0.014
Mof_C 	C 	3.46741e-33	0.648	0.7438	-0.218
Mof_C 	C 	-8.75753e-33	0.6165	0.7995	0.646
Mof_O 	O 	-1.04069e-32	0.9172	0.4457	-1.048
Mof_O 	O 	-9.87402e-33	0.7862	0.56	-0.524
Mof_O 	O 	-3.69885e-33	0.6668	0.5456	-0.282
Mof_Zn	Zn	2.25135e-33	0.81598	0.48294	1.222
Mof_Zn	Zn	-1.6266e-32	0.9568	0.5279	0.972
_end
