data_functionalizedCrystal
_audit_creation_method	'EQeq! by Chris Wilmer'
_symmetry_space_group_name_H-M	'P1'
_symmetry_Int_Tables_number	1
_symmetry_cell_setting	triclinic
loop_
_symmetry_equiv_pos_as_xyz
  x,y,z
_cell_length_a	18.129
_cell_length_b	18.129
_cell_length_c	21.841
_cell_angle_alpha	90
_cell_angle_beta	90
_cell_angle_gamma	90
loop_
_atom_site_label
_atom_site_type_symbol
_atom_site_fract_x
_atom_site_fract_y
_atom_site_fract_z
_atom_site_charge
Mof_C 	C 	0.5636	0.8423	0.6048	0.076
Mof_H 	H 	0.6089	0.8584	0.5874	0.013
Mof_C 	C 	0.5658	0.7985	0.6563	-0.124
Mof_C 	C 	0.637	0.779	0.6873	0.362
Mof_O 	O 	0.6962	0.8044	0.66441	-0.392
Mof_O 	O 	0.6317	0.7402	0.73495	-0.407
Mof_C 	C 	0.0636	0.3423	0.1048	0.072
Mof_H 	H 	0.1089	0.3584	0.0874	0.008
Mof_C 	C 	0.0658	0.2985	0.1563	-0.127
Mof_C 	C 	0.137	0.279	0.1873	0.361
Mof_O 	O 	0.1962	0.3044	0.16441	-0.397
Mof_O 	O 	0.1317	0.2402	0.23495	-0.411
Mof_C 	C 	0.4364	0.1577	0.6048	0.075
Mof_H 	H 	0.3911	0.1416	0.5874	0.01
Mof_C 	C 	0.4342	0.2015	0.6563	-0.126
Mof_C 	C 	0.363	0.221	0.6873	0.361
Mof_O 	O 	0.3038	0.1956	0.66441	-0.395
Mof_O 	O 	0.3683	0.2598	0.73495	-0.408
Mof_C 	C 	0.9364	0.6577	0.1048	0.078
Mof_H 	H 	0.8911	0.6416	0.0874	0.007
Mof_C 	C 	0.9342	0.7015	0.1563	-0.122
Mof_C 	C 	0.863	0.721	0.1873	0.36
Mof_O 	O 	0.8038	0.6956	0.16441	-0.396
Mof_O 	O 	0.8683	0.7598	0.23495	-0.408
Mof_C 	C 	0.1577	0.5636	0.6048	0.075
Mof_H 	H 	0.1416	0.6089	0.5874	0.011
Mof_C 	C 	0.2015	0.5658	0.6563	-0.126
Mof_C 	C 	0.221	0.637	0.6873	0.361
Mof_O 	O 	0.1956	0.6962	0.66441	-0.394
Mof_O 	O 	0.2598	0.6317	0.73495	-0.408
Mof_C 	C 	0.6577	0.0636	0.1048	0.072
Mof_H 	H 	0.6416	0.1089	0.0874	0.008
Mof_C 	C 	0.7015	0.0658	0.1563	-0.126
Mof_C 	C 	0.721	0.137	0.1873	0.361
Mof_O 	O 	0.6956	0.1962	0.16441	-0.397
Mof_O 	O 	0.7598	0.1317	0.23495	-0.41
Mof_C 	C 	0.8423	0.4364	0.6048	0.075
Mof_H 	H 	0.8584	0.3911	0.5874	0.011
Mof_C 	C 	0.7985	0.4342	0.6563	-0.125
Mof_C 	C 	0.779	0.363	0.6873	0.361
Mof_O 	O 	0.8044	0.3038	0.66441	-0.394
Mof_O 	O 	0.7402	0.3683	0.73495	-0.408
Mof_C 	C 	0.3423	0.9364	0.1048	0.078
Mof_H 	H 	0.3584	0.8911	0.0874	0.007
Mof_C 	C 	0.2985	0.9342	0.1563	-0.122
Mof_C 	C 	0.279	0.863	0.1873	0.36
Mof_O 	O 	0.3044	0.8038	0.16441	-0.397
Mof_O 	O 	0.2402	0.8683	0.23495	-0.409
Mof_C 	C 	0.4364	0.8423	0.3952	0.076
Mof_H 	H 	0.3911	0.8584	0.4126	0.011
Mof_C 	C 	0.4342	0.7985	0.3437	-0.127
Mof_C 	C 	0.363	0.779	0.3127	0.362
Mof_O 	O 	0.3038	0.8044	0.33559	-0.394
Mof_O 	O 	0.3683	0.7402	0.26505	-0.41
Mof_C 	C 	0.9364	0.3423	0.8952	0.079
Mof_H 	H 	0.8911	0.3584	0.9126	0.02
Mof_C 	C 	0.9342	0.2985	0.8437	-0.118
Mof_C 	C 	0.863	0.279	0.8127	0.36
Mof_O 	O 	0.8038	0.3044	0.83559	-0.389
Mof_O 	O 	0.8683	0.2402	0.76505	-0.407
Mof_C 	C 	0.5636	0.1577	0.3952	0.076
Mof_H 	H 	0.6089	0.1416	0.4126	0.01
Mof_C 	C 	0.5658	0.2015	0.3437	-0.128
Mof_C 	C 	0.637	0.221	0.3127	0.362
Mof_O 	O 	0.6962	0.1956	0.33559	-0.395
Mof_O 	O 	0.6317	0.2598	0.26505	-0.41
Mof_C 	C 	0.0636	0.6577	0.8952	0.075
Mof_H 	H 	0.1089	0.6416	0.9126	0.021
Mof_C 	C 	0.0658	0.7015	0.8437	-0.121
Mof_C 	C 	0.137	0.721	0.8127	0.361
Mof_O 	O 	0.1962	0.6956	0.83559	-0.389
Mof_O 	O 	0.1317	0.7598	0.76505	-0.408
Mof_C 	C 	0.8423	0.5636	0.3952	0.076
Mof_H 	H 	0.8584	0.6089	0.4126	0.011
Mof_C 	C 	0.7985	0.5658	0.3437	-0.127
Mof_C 	C 	0.779	0.637	0.3127	0.362
Mof_O 	O 	0.8044	0.6962	0.33559	-0.394
Mof_O 	O 	0.7402	0.6317	0.26505	-0.41
Mof_C 	C 	0.3423	0.0636	0.8952	0.075
Mof_H 	H 	0.3584	0.1089	0.9126	0.021
Mof_C 	C 	0.2985	0.0658	0.8437	-0.121
Mof_C 	C 	0.279	0.137	0.8127	0.361
Mof_O 	O 	0.3044	0.1962	0.83559	-0.389
Mof_O 	O 	0.2402	0.1317	0.76505	-0.409
Mof_C 	C 	0.1577	0.4364	0.3952	0.076
Mof_H 	H 	0.1416	0.3911	0.4126	0.01
Mof_C 	C 	0.2015	0.4342	0.3437	-0.128
Mof_C 	C 	0.221	0.363	0.3127	0.362
Mof_O 	O 	0.1956	0.3038	0.33559	-0.395
Mof_O 	O 	0.2598	0.3683	0.26505	-0.41
Mof_C 	C 	0.6577	0.9364	0.8952	0.078
Mof_H 	H 	0.6416	0.8911	0.9126	0.02
Mof_C 	C 	0.7015	0.9342	0.8437	-0.118
Mof_C 	C 	0.721	0.863	0.8127	0.36
Mof_O 	O 	0.6956	0.8038	0.83559	-0.389
Mof_O 	O 	0.7598	0.8683	0.76505	-0.407
Mof_C 	C 	0.4364	0.1577	0.3952	0.076
Mof_H 	H 	0.3911	0.1416	0.4126	0.01
Mof_C 	C 	0.4342	0.2015	0.3437	-0.128
Mof_C 	C 	0.363	0.221	0.3127	0.362
Mof_O 	O 	0.3038	0.1956	0.33559	-0.395
Mof_O 	O 	0.3683	0.2598	0.26505	-0.41
Mof_C 	C 	0.9364	0.6577	0.8952	0.078
Mof_H 	H 	0.8911	0.6416	0.9126	0.02
Mof_C 	C 	0.9342	0.7015	0.8437	-0.118
Mof_C 	C 	0.863	0.721	0.8127	0.36
Mof_O 	O 	0.8038	0.6956	0.83559	-0.389
Mof_O 	O 	0.8683	0.7598	0.76505	-0.407
Mof_C 	C 	0.5636	0.8423	0.3952	0.076
Mof_H 	H 	0.6089	0.8584	0.4126	0.011
Mof_C 	C 	0.5658	0.7985	0.3437	-0.127
Mof_C 	C 	0.637	0.779	0.3127	0.362
Mof_O 	O 	0.6962	0.8044	0.33559	-0.394
Mof_O 	O 	0.6317	0.7402	0.26505	-0.41
Mof_C 	C 	0.0636	0.3423	0.8952	0.075
Mof_H 	H 	0.1089	0.3584	0.9126	0.021
Mof_C 	C 	0.0658	0.2985	0.8437	-0.121
Mof_C 	C 	0.137	0.279	0.8127	0.361
Mof_O 	O 	0.1962	0.3044	0.83559	-0.389
Mof_O 	O 	0.1317	0.2402	0.76505	-0.409
Mof_C 	C 	0.8423	0.4364	0.3952	0.076
Mof_H 	H 	0.8584	0.3911	0.4126	0.011
Mof_C 	C 	0.7985	0.4342	0.3437	-0.127
Mof_C 	C 	0.779	0.363	0.3127	0.362
Mof_O 	O 	0.8044	0.3038	0.33559	-0.394
Mof_O 	O 	0.7402	0.3683	0.26505	-0.41
Mof_C 	C 	0.3423	0.9364	0.8952	0.079
Mof_H 	H 	0.3584	0.8911	0.9126	0.02
Mof_C 	C 	0.2985	0.9342	0.8437	-0.118
Mof_C 	C 	0.279	0.863	0.8127	0.36
Mof_O 	O 	0.3044	0.8038	0.83559	-0.389
Mof_O 	O 	0.2402	0.8683	0.76505	-0.407
Mof_C 	C 	0.1577	0.5636	0.3952	0.076
Mof_H 	H 	0.1416	0.6089	0.4126	0.01
Mof_C 	C 	0.2015	0.5658	0.3437	-0.128
Mof_C 	C 	0.221	0.637	0.3127	0.362
Mof_O 	O 	0.1956	0.6962	0.33559	-0.395
Mof_O 	O 	0.2598	0.6317	0.26505	-0.41
Mof_C 	C 	0.6577	0.0636	0.8952	0.075
Mof_H 	H 	0.6416	0.1089	0.9126	0.021
Mof_C 	C 	0.7015	0.0658	0.8437	-0.121
Mof_C 	C 	0.721	0.137	0.8127	0.361
Mof_O 	O 	0.6956	0.1962	0.83559	-0.389
Mof_O 	O 	0.7598	0.1317	0.76505	-0.408
Mof_C 	C 	0.5636	0.1577	0.6048	0.075
Mof_H 	H 	0.6089	0.1416	0.5874	0.011
Mof_C 	C 	0.5658	0.2015	0.6563	-0.126
Mof_C 	C 	0.637	0.221	0.6873	0.361
Mof_O 	O 	0.6962	0.1956	0.66441	-0.394
Mof_O 	O 	0.6317	0.2598	0.73495	-0.408
Mof_C 	C 	0.0636	0.6577	0.1048	0.072
Mof_H 	H 	0.1089	0.6416	0.0874	0.008
Mof_C 	C 	0.0658	0.7015	0.1563	-0.126
Mof_C 	C 	0.137	0.721	0.1873	0.361
Mof_O 	O 	0.1962	0.6956	0.16441	-0.397
Mof_O 	O 	0.1317	0.7598	0.23495	-0.41
Mof_C 	C 	0.4364	0.8423	0.6048	0.075
Mof_H 	H 	0.3911	0.8584	0.5874	0.011
Mof_C 	C 	0.4342	0.7985	0.6563	-0.125
Mof_C 	C 	0.363	0.779	0.6873	0.361
Mof_O 	O 	0.3038	0.8044	0.66441	-0.394
Mof_O 	O 	0.3683	0.7402	0.73495	-0.408
Mof_C 	C 	0.9364	0.3423	0.1048	0.078
Mof_H 	H 	0.8911	0.3584	0.0874	0.007
Mof_C 	C 	0.9342	0.2985	0.1563	-0.122
Mof_C 	C 	0.863	0.279	0.1873	0.36
Mof_O 	O 	0.8038	0.3044	0.16441	-0.397
Mof_O 	O 	0.8683	0.2402	0.23495	-0.409
Mof_C 	C 	0.1577	0.4364	0.6048	0.075
Mof_H 	H 	0.1416	0.3911	0.5874	0.01
Mof_C 	C 	0.2015	0.4342	0.6563	-0.126
Mof_C 	C 	0.221	0.363	0.6873	0.361
Mof_O 	O 	0.1956	0.3038	0.66441	-0.395
Mof_O 	O 	0.2598	0.3683	0.73495	-0.408
Mof_C 	C 	0.6577	0.9364	0.1048	0.078
Mof_H 	H 	0.6416	0.8911	0.0874	0.007
Mof_C 	C 	0.7015	0.9342	0.1563	-0.122
Mof_C 	C 	0.721	0.863	0.1873	0.36
Mof_O 	O 	0.6956	0.8038	0.16441	-0.396
Mof_O 	O 	0.7598	0.8683	0.23495	-0.408
Mof_C 	C 	0.8423	0.5636	0.6048	0.075
Mof_H 	H 	0.8584	0.6089	0.5874	0.012
Mof_C 	C 	0.7985	0.5658	0.6563	-0.125
Mof_C 	C 	0.779	0.637	0.6873	0.361
Mof_O 	O 	0.8044	0.6962	0.66441	-0.393
Mof_O 	O 	0.7402	0.6317	0.73495	-0.408
Mof_C 	C 	0.3423	0.0636	0.1048	0.072
Mof_H 	H 	0.3584	0.1089	0.0874	0.008
Mof_C 	C 	0.2985	0.0658	0.1563	-0.127
Mof_C 	C 	0.279	0.137	0.1873	0.361
Mof_O 	O 	0.3044	0.1962	0.16441	-0.397
Mof_O 	O 	0.2402	0.1317	0.23495	-0.411
Mof_I 	I 	0.37427	0	0.5	-0.431
Mof_I 	I 	0.87427	0.5	-0	-0.45
Mof_I 	I 	0.62573	0	0.5	-0.43
Mof_I 	I 	0.12573	0.5	-0	-0.457
Mof_I 	I 	-4.77476e-33	0.37427	0.5	-0.431
Mof_I 	I 	0.5	0.87427	-0	-0.45
Mof_I 	I 	-4.77476e-33	0.62573	0.5	-0.43
Mof_I 	I 	0.5	0.12573	-0	-0.457
Mof_Cu	Cu	0.5	0.92657	0.5	0.805
Mof_Cu	Cu	-3.51666e-33	0.42657	-0	0.793
Mof_Cu	Cu	0.5	0.07343	0.5	0.803
Mof_Cu	Cu	-0	0.57343	-0	0.794
Mof_Cu	Cu	0.07343	0.5	0.5	0.803
Mof_Cu	Cu	0.57343	0	-0	0.794
Mof_Cu	Cu	0.92657	0.5	0.5	0.805
Mof_Cu	Cu	0.42657	0	-0	0.793
Mof_N 	N 	0.5	0.8634	0.5779	-0.237
Mof_C 	C 	0.5	0.7759	0.6826	0.069
Mof_H 	H 	0.5	0.7454	0.718	0.043
Mof_N 	N 	3.51883e-34	0.3634	0.0779	-0.244
Mof_C 	C 	6.09981e-33	0.2759	0.1826	0.06
Mof_H 	H 	4.50139e-33	0.2454	0.218	0.041
Mof_N 	N 	0.5	0.1366	0.5779	-0.238
Mof_C 	C 	0.5	0.2241	0.6826	0.069
Mof_H 	H 	0.5	0.2546	0.718	0.042
Mof_N 	N 	3.51883e-34	0.6366	0.0779	-0.244
Mof_C 	C 	-7.96682e-33	0.7241	0.1826	0.06
Mof_H 	H 	-6.04859e-33	0.7546	0.218	0.042
Mof_N 	N 	0.1366	0.5	0.5779	-0.238
Mof_C 	C 	0.2241	0.5	0.6826	0.069
Mof_H 	H 	0.2546	0.5	0.718	0.042
Mof_N 	N 	0.6366	0	0.0779	-0.244
Mof_C 	C 	0.7241	0	0.1826	0.06
Mof_H 	H 	0.7546	0	0.218	0.042
Mof_N 	N 	0.8634	0.5	0.5779	-0.237
Mof_C 	C 	0.7759	0.5	0.6826	0.069
Mof_H 	H 	0.7454	0.5	0.718	0.043
Mof_N 	N 	0.3634	0	0.0779	-0.244
Mof_C 	C 	0.2759	0	0.1826	0.06
Mof_H 	H 	0.2454	0	0.218	0.041
Mof_N 	N 	0.5	0.8634	0.4221	-0.238
Mof_C 	C 	0.5	0.7759	0.3174	0.07
Mof_H 	H 	0.5	0.7454	0.282	0.04
Mof_N 	N 	4.16522e-33	0.3634	0.9221	-0.228
Mof_C 	C 	3.69228e-33	0.2759	0.8174	0.063
Mof_H 	H 	-3.50094e-33	0.2454	0.782	0.042
Mof_N 	N 	0.5	0.1366	0.4221	-0.239
Mof_C 	C 	0.5	0.2241	0.3174	0.07
Mof_H 	H 	0.5	0.2546	0.282	0.04
Mof_N 	N 	-9.90141e-33	0.6366	0.9221	-0.228
Mof_C 	C 	-3.34103e-33	0.7241	0.8174	0.063
Mof_H 	H 	-3.50094e-33	0.7546	0.782	0.043
Mof_N 	N 	0.8634	0.5	0.4221	-0.238
Mof_C 	C 	0.7759	0.5	0.3174	0.07
Mof_H 	H 	0.7454	0.5	0.282	0.04
Mof_N 	N 	0.3634	1.40666e-32	0.9221	-0.228
Mof_C 	C 	0.2759	0	0.8174	0.063
Mof_H 	H 	0.2454	0	0.782	0.042
Mof_N 	N 	0.1366	0.5	0.4221	-0.239
Mof_C 	C 	0.2241	0.5	0.3174	0.07
Mof_H 	H 	0.2546	0.5	0.282	0.04
Mof_N 	N 	0.6366	1.40666e-32	0.9221	-0.228
Mof_C 	C 	0.7241	0	0.8174	0.063
Mof_H 	H 	0.7546	0	0.782	0.043
Mof_Cu	Cu	0.78876	0.78876	0.70935	0.906
Mof_Cu	Cu	0.28876	0.28876	0.20935	0.905
Mof_Cu	Cu	0.21124	0.21124	0.70935	0.906
Mof_Cu	Cu	0.71124	0.71124	0.20935	0.905
Mof_Cu	Cu	0.21124	0.78876	0.70935	0.906
Mof_Cu	Cu	0.71124	0.28876	0.20935	0.905
Mof_Cu	Cu	0.78876	0.21124	0.70935	0.906
Mof_Cu	Cu	0.28876	0.71124	0.20935	0.905
Mof_Cu	Cu	0.21124	0.78876	0.29065	0.906
Mof_Cu	Cu	0.71124	0.28876	0.79065	0.908
Mof_Cu	Cu	0.78876	0.21124	0.29065	0.906
Mof_Cu	Cu	0.28876	0.71124	0.79065	0.908
Mof_Cu	Cu	0.78876	0.78876	0.29065	0.906
Mof_Cu	Cu	0.28876	0.28876	0.79065	0.908
Mof_Cu	Cu	0.21124	0.21124	0.29065	0.905
Mof_Cu	Cu	0.71124	0.71124	0.79065	0.907
_end
