data_functionalizedCrystal
_audit_creation_method	'EQeq! by Chris Wilmer'
_symmetry_space_group_name_H-M	'P1'
_symmetry_Int_Tables_number	1
_symmetry_cell_setting	triclinic
loop_
_symmetry_equiv_pos_as_xyz
  x,y,z
_cell_length_a	7.5121
_cell_length_b	8.9927
_cell_length_c	15.153
_cell_angle_alpha	90.256
_cell_angle_beta	93.391
_cell_angle_gamma	111.091
loop_
_atom_site_label
_atom_site_type_symbol
_atom_site_fract_x
_atom_site_fract_y
_atom_site_fract_z
_atom_site_charge
Mof_Zn	Zn	0.71013	0.55275	0.39358	1.235
Mof_Zn	Zn	0.05751	0.2009	0.25163	1.238
Mof_Zn	Zn	0.65745	0.58168	0.12443	1.229
Mof_P 	P 	0.68142	0.28896	0.2421	0.464
Mof_H 	H 	0.4974	0.2011	0.2381	-0.043
Mof_P 	P 	0.94959	0.81271	0.26678	0.452
Mof_H 	H 	0.0636	0.7497	0.2314	-0.048
Mof_P 	P 	0.73099	0.50873	0.60678	0.489
Mof_H 	H 	0.8346	0.4335	0.6459	-0.046
Mof_P 	P 	0.21545	0.39577	0.07689	0.462
Mof_H 	H 	0.0645	0.4384	0.0743	-0.046
Mof_O 	O 	0.7276	0.3718	0.33167	-0.473
Mof_O 	O 	0.7119	0.3978	0.16459	-0.475
Mof_O 	O 	0.7876	0.1738	0.23301	-0.414
Mof_O 	O 	0.0583	0.9897	0.27443	-0.41
Mof_O 	O 	0.9133	0.7442	0.3582	-0.427
Mof_O 	O 	0.7693	0.7665	0.2052	-0.453
Mof_O 	O 	0.7816	0.665	0.6564	-0.481
Mof_O 	O 	0.7882	0.5329	0.5145	-0.449
Mof_O 	O 	0.5231	0.4021	0.6133	-0.46
Mof_O 	O 	0.1763	0.2593	0.13988	-0.44
Mof_O 	O 	0.2274	0.3365	0.98467	-0.441
Mof_O 	O 	0.3859	0.542	0.1071	-0.463
Mof_Zn	Zn	0.28987	0.44725	0.60642	1.235
Mof_Zn	Zn	0.94249	0.7991	0.74837	1.238
Mof_Zn	Zn	0.34255	0.41832	0.87557	1.229
Mof_P 	P 	0.31858	0.71104	0.7579	0.464
Mof_H 	H 	0.5026	0.7989	0.7619	-0.043
Mof_P 	P 	0.05041	0.18729	0.73322	0.452
Mof_H 	H 	0.9364	0.2503	0.7686	-0.048
Mof_P 	P 	0.26901	0.49127	0.39322	0.489
Mof_H 	H 	0.1654	0.5665	0.3541	-0.046
Mof_P 	P 	0.78455	0.60423	0.92311	0.462
Mof_H 	H 	0.9355	0.5616	0.9257	-0.046
Mof_O 	O 	0.2724	0.6282	0.66833	-0.473
Mof_O 	O 	0.2881	0.6022	0.83541	-0.475
Mof_O 	O 	0.2124	0.8262	0.76699	-0.414
Mof_O 	O 	0.9417	0.0103	0.72557	-0.41
Mof_O 	O 	0.0867	0.2558	0.6418	-0.427
Mof_O 	O 	0.2307	0.2335	0.7948	-0.453
Mof_O 	O 	0.2184	0.335	0.3436	-0.481
Mof_O 	O 	0.2118	0.4671	0.4855	-0.449
Mof_O 	O 	0.4769	0.5979	0.3867	-0.46
Mof_O 	O 	0.8237	0.7407	0.86012	-0.44
Mof_O 	O 	0.7726	0.6635	0.01533	-0.441
Mof_O 	O 	0.6141	0.458	0.8929	-0.463
_end
