data_functionalizedCrystal
_audit_creation_method	'EQeq! by Chris Wilmer'
_symmetry_space_group_name_H-M	'P1'
_symmetry_Int_Tables_number	1
_symmetry_cell_setting	triclinic
loop_
_symmetry_equiv_pos_as_xyz
  x,y,z
_cell_length_a	33.5988
_cell_length_b	33.5988
_cell_length_c	33.5988
_cell_angle_alpha	90
_cell_angle_beta	90
_cell_angle_gamma	90
loop_
_atom_site_label
_atom_site_type_symbol
_atom_site_fract_x
_atom_site_fract_y
_atom_site_fract_z
_atom_site_charge
Mof_Zn	Zn	0.72677	0.77192	0.19688	1.217
Mof_C 	C 	0.5398	0.69167	0.18538	0.15
Mof_C 	C 	0.5623	0.72214	0.16875	-0.167
Mof_H 	H 	0.5525	0.7363	0.1471	0.092
Mof_C 	C 	0.59941	0.73142	0.1845	0.049
Mof_H 	H 	0.6145	0.7518	0.1734	0.034
Mof_C 	C 	0.61402	0.7102	0.2169	-0.105
Mof_C 	C 	0.59153	0.6798	0.23352	0.065
Mof_H 	H 	0.6013	0.6656	0.2552	0.02
Mof_C 	C 	0.55441	0.67048	0.21777	-0.172
Mof_H 	H 	0.5394	0.6501	0.2289	0.099
Mof_C 	C 	0.5012	0.58408	0.08183	-0.14
Mof_C 	C 	0.5371	0.60131	0.09323	0.05
Mof_H 	H 	0.5598	0.5972	0.0781	0.025
Mof_C 	C 	0.53883	0.62475	0.12728	-0.109
Mof_H 	H 	0.5628	0.6363	0.1349	0.076
Mof_C 	C 	0.50477	0.63096	0.14991	0.04
Mof_C 	C 	0.46893	0.61373	0.13851	0.109
Mof_C 	C 	0.4671	0.59029	0.10447	-0.039
Mof_H 	H 	0.4432	0.5788	0.0968	0.068
Mof_C 	C 	0.3947	0.7109	0.21891	0.004
Mof_C 	C 	0.39578	0.6812	0.19013	-0.132
Mof_H 	H 	0.3722	0.6705	0.1804	0.106
Mof_C 	C 	0.43212	0.66759	0.17583	0.119
Mof_C 	C 	0.46739	0.68366	0.1903	0.023
Mof_C 	C 	0.46632	0.71335	0.21908	-0.066
Mof_H 	H 	0.4899	0.7241	0.2288	0.06
Mof_C 	C 	0.42997	0.72698	0.23339	-0.037
Mof_H 	H 	0.4292	0.7469	0.2526	0.057
Mof_O 	O 	0.3225	0.6947	0.2144	-0.558
Mof_C 	C 	0.3481	0.7102	0.2304	0.287
Mof_O 	O 	0.3517	0.7497	0.2517	-0.443
Mof_C 	C 	0.5013	0.5567	0.0505	0.467
Mof_O 	O 	0.5332	0.5453	0.0394	-0.508
Mof_O 	O 	0.4687	0.5399	0.0426	-0.502
Mof_O 	O 	0.435	0.6322	0.1488	-0.215
Mof_C 	C 	0.6591	0.7291	0.2257	0.422
Mof_O 	O 	0.6727	0.7488	0.1992	-0.519
Mof_O 	O 	0.6712	0.7137	0.2562	-0.519
Mof_N 	N 	0.5062	0.6715	0.1721	-0.134
Mof_Zn	Zn	0.22677	0.27192	0.69688	1.218
Mof_C 	C 	0.0398	0.19167	0.68538	0.147
Mof_C 	C 	0.0623	0.22214	0.66875	-0.165
Mof_H 	H 	0.0525	0.2363	0.6471	0.091
Mof_C 	C 	0.09941	0.23142	0.6845	0.048
Mof_H 	H 	0.1145	0.2518	0.6734	0.035
Mof_C 	C 	0.11402	0.2102	0.7169	-0.104
Mof_C 	C 	0.09153	0.1798	0.73352	0.064
Mof_H 	H 	0.1013	0.1656	0.7552	0.02
Mof_C 	C 	0.05441	0.17048	0.71777	-0.17
Mof_H 	H 	0.0394	0.1501	0.7289	0.096
Mof_C 	C 	0.0012	0.08408	0.58183	-0.15
Mof_C 	C 	0.0371	0.10131	0.59323	0.05
Mof_H 	H 	0.0598	0.0972	0.5781	0.026
Mof_C 	C 	0.03883	0.12475	0.62728	-0.105
Mof_H 	H 	0.0628	0.1363	0.6349	0.075
Mof_C 	C 	0.00477	0.13096	0.64991	0.026
Mof_C 	C 	0.96893	0.11373	0.63851	0.121
Mof_C 	C 	0.9671	0.09029	0.60447	-0.025
Mof_H 	H 	0.9432	0.0788	0.5968	0.066
Mof_C 	C 	0.8947	0.2109	0.71891	0.004
Mof_C 	C 	0.89578	0.1812	0.69013	-0.128
Mof_H 	H 	0.8722	0.1705	0.6804	0.107
Mof_C 	C 	0.93212	0.16759	0.67583	0.119
Mof_C 	C 	0.96739	0.18366	0.6903	0.036
Mof_C 	C 	0.96632	0.21335	0.71908	-0.069
Mof_H 	H 	0.9899	0.2241	0.7288	0.066
Mof_C 	C 	0.92997	0.22698	0.73339	-0.032
Mof_H 	H 	0.9292	0.2469	0.7526	0.057
Mof_O 	O 	0.8225	0.1947	0.7144	-0.558
Mof_C 	C 	0.8481	0.2102	0.7304	0.288
Mof_O 	O 	0.8517	0.2497	0.7517	-0.442
Mof_C 	C 	0.0013	0.0567	0.5505	0.454
Mof_O 	O 	0.0332	0.0453	0.5394	-0.507
Mof_O 	O 	0.9687	0.0399	0.5426	-0.49
Mof_O 	O 	0.935	0.1322	0.6488	-0.215
Mof_C 	C 	0.1591	0.2291	0.7257	0.421
Mof_O 	O 	0.1727	0.2488	0.6992	-0.519
Mof_O 	O 	0.1712	0.2137	0.7562	-0.519
Mof_N 	N 	0.0062	0.1715	0.6721	-0.138
Mof_Zn	Zn	0.27323	0.22808	0.19688	1.218
Mof_C 	C 	0.4602	0.30833	0.18538	0.151
Mof_C 	C 	0.4377	0.27786	0.16875	-0.166
Mof_H 	H 	0.4475	0.2637	0.1471	0.093
Mof_C 	C 	0.40059	0.26858	0.1845	0.05
Mof_H 	H 	0.3855	0.2482	0.1734	0.035
Mof_C 	C 	0.38598	0.2898	0.2169	-0.104
Mof_C 	C 	0.40847	0.3202	0.23352	0.066
Mof_H 	H 	0.3987	0.3344	0.2552	0.021
Mof_C 	C 	0.44559	0.32952	0.21777	-0.171
Mof_H 	H 	0.4606	0.3499	0.2289	0.1
Mof_C 	C 	0.4988	0.41592	0.08183	-0.139
Mof_C 	C 	0.4629	0.39869	0.09323	0.051
Mof_H 	H 	0.4402	0.4028	0.0781	0.026
Mof_C 	C 	0.46117	0.37525	0.12728	-0.108
Mof_H 	H 	0.4372	0.3637	0.1349	0.077
Mof_C 	C 	0.49523	0.36904	0.14991	0.041
Mof_C 	C 	0.53107	0.38627	0.13851	0.11
Mof_C 	C 	0.5329	0.40971	0.10447	-0.038
Mof_H 	H 	0.5568	0.4212	0.0968	0.069
Mof_C 	C 	0.6053	0.2891	0.21891	0.005
Mof_C 	C 	0.60422	0.3188	0.19013	-0.131
Mof_H 	H 	0.6278	0.3295	0.1804	0.107
Mof_C 	C 	0.56788	0.33241	0.17583	0.12
Mof_C 	C 	0.53261	0.31634	0.1903	0.024
Mof_C 	C 	0.53368	0.28665	0.21908	-0.065
Mof_H 	H 	0.5101	0.2759	0.2288	0.059
Mof_C 	C 	0.57003	0.27302	0.23339	-0.037
Mof_H 	H 	0.5708	0.2531	0.2526	0.056
Mof_O 	O 	0.6775	0.3053	0.2144	-0.558
Mof_C 	C 	0.6519	0.2898	0.2304	0.287
Mof_O 	O 	0.6483	0.2503	0.2517	-0.443
Mof_C 	C 	0.4987	0.4433	0.0505	0.467
Mof_O 	O 	0.4668	0.4547	0.0394	-0.508
Mof_O 	O 	0.5313	0.4601	0.0426	-0.502
Mof_O 	O 	0.565	0.3678	0.1488	-0.215
Mof_C 	C 	0.3409	0.2709	0.2257	0.421
Mof_O 	O 	0.3273	0.2512	0.1992	-0.52
Mof_O 	O 	0.3288	0.2863	0.2562	-0.519
Mof_N 	N 	0.4938	0.3285	0.1721	-0.134
Mof_Zn	Zn	0.77323	0.72808	0.69688	1.218
Mof_C 	C 	0.9602	0.80833	0.68538	0.155
Mof_C 	C 	0.9377	0.77786	0.66875	-0.167
Mof_H 	H 	0.9475	0.7637	0.6471	0.097
Mof_C 	C 	0.90059	0.76858	0.6845	0.052
Mof_H 	H 	0.8855	0.7482	0.6734	0.036
Mof_C 	C 	0.88598	0.7898	0.7169	-0.104
Mof_C 	C 	0.90847	0.8202	0.73352	0.069
Mof_H 	H 	0.8987	0.8344	0.7552	0.023
Mof_C 	C 	0.94559	0.82952	0.71777	-0.172
Mof_H 	H 	0.9606	0.8499	0.7289	0.104
Mof_C 	C 	0.9988	0.91592	0.58183	-0.123
Mof_C 	C 	0.9629	0.89869	0.59323	0.05
Mof_H 	H 	0.9402	0.9028	0.5781	0.03
Mof_C 	C 	0.96117	0.87525	0.62728	-0.108
Mof_H 	H 	0.9372	0.8637	0.6349	0.079
Mof_C 	C 	0.99523	0.86904	0.64991	0.056
Mof_C 	C 	0.03107	0.88627	0.63851	0.101
Mof_C 	C 	0.0329	0.90971	0.60447	-0.052
Mof_H 	H 	0.0568	0.9212	0.5968	0.075
Mof_C 	C 	0.1053	0.7891	0.71891	0.007
Mof_C 	C 	0.10422	0.8188	0.69013	-0.133
Mof_H 	H 	0.1278	0.8295	0.6804	0.109
Mof_C 	C 	0.06788	0.83241	0.67583	0.122
Mof_C 	C 	0.03261	0.81634	0.6903	0.012
Mof_C 	C 	0.03368	0.78665	0.71908	-0.059
Mof_H 	H 	0.0101	0.7759	0.7288	0.053
Mof_C 	C 	0.07003	0.77302	0.73339	-0.041
Mof_H 	H 	0.0708	0.7531	0.7526	0.057
Mof_O 	O 	0.1775	0.8053	0.7144	-0.558
Mof_C 	C 	0.1519	0.7898	0.7304	0.287
Mof_O 	O 	0.1483	0.7503	0.7517	-0.443
Mof_C 	C 	0.9987	0.9433	0.5505	0.478
Mof_O 	O 	0.9668	0.9547	0.5394	-0.5
Mof_O 	O 	0.0313	0.9601	0.5426	-0.504
Mof_O 	O 	0.065	0.8678	0.6488	-0.214
Mof_C 	C 	0.8409	0.7709	0.7257	0.422
Mof_O 	O 	0.8273	0.7512	0.6992	-0.518
Mof_O 	O 	0.8288	0.7863	0.7562	-0.517
Mof_N 	N 	0.9938	0.8285	0.6721	-0.129
Mof_Zn	Zn	0.27323	0.77192	0.80312	1.218
Mof_C 	C 	0.4602	0.69167	0.81462	0.152
Mof_C 	C 	0.4377	0.72214	0.83125	-0.166
Mof_H 	H 	0.4475	0.7363	0.8529	0.095
Mof_C 	C 	0.40059	0.73142	0.8155	0.051
Mof_H 	H 	0.3855	0.7518	0.8266	0.036
Mof_C 	C 	0.38598	0.7102	0.7831	-0.104
Mof_C 	C 	0.40847	0.6798	0.76648	0.067
Mof_H 	H 	0.3987	0.6656	0.7448	0.021
Mof_C 	C 	0.44559	0.67048	0.78223	-0.171
Mof_H 	H 	0.4606	0.6501	0.7711	0.1
Mof_C 	C 	0.4988	0.58408	0.91817	-0.134
Mof_C 	C 	0.4629	0.60131	0.90677	0.049
Mof_H 	H 	0.4402	0.5972	0.9219	0.03
Mof_C 	C 	0.46117	0.62475	0.87272	-0.105
Mof_H 	H 	0.4372	0.6363	0.8651	0.077
Mof_C 	C 	0.49523	0.63096	0.85009	0.04
Mof_C 	C 	0.53107	0.61373	0.86149	0.111
Mof_C 	C 	0.5329	0.59029	0.89553	-0.04
Mof_H 	H 	0.5568	0.5788	0.9032	0.072
Mof_C 	C 	0.6053	0.7109	0.78109	0.006
Mof_C 	C 	0.60422	0.6812	0.80987	-0.131
Mof_H 	H 	0.6278	0.6705	0.8196	0.109
Mof_C 	C 	0.56788	0.66759	0.82417	0.121
Mof_C 	C 	0.53261	0.68366	0.8097	0.024
Mof_C 	C 	0.53368	0.71335	0.78092	-0.064
Mof_H 	H 	0.5101	0.7241	0.7712	0.06
Mof_C 	C 	0.57003	0.72698	0.76661	-0.037
Mof_H 	H 	0.5708	0.7469	0.7474	0.057
Mof_O 	O 	0.6775	0.6947	0.7856	-0.558
Mof_C 	C 	0.6519	0.7102	0.7696	0.287
Mof_O 	O 	0.6483	0.7497	0.7483	-0.443
Mof_C 	C 	0.4987	0.5567	0.9495	0.465
Mof_O 	O 	0.4668	0.5453	0.9606	-0.499
Mof_O 	O 	0.5313	0.5399	0.9574	-0.493
Mof_O 	O 	0.565	0.6322	0.8512	-0.214
Mof_C 	C 	0.3409	0.7291	0.7743	0.422
Mof_O 	O 	0.3273	0.7488	0.8008	-0.518
Mof_O 	O 	0.3288	0.7137	0.7438	-0.518
Mof_N 	N 	0.4938	0.6715	0.8279	-0.133
Mof_Zn	Zn	0.77323	0.27192	0.30312	1.218
Mof_C 	C 	0.9602	0.19167	0.31462	0.155
Mof_C 	C 	0.9377	0.22214	0.33125	-0.167
Mof_H 	H 	0.9475	0.2363	0.3529	0.097
Mof_C 	C 	0.90059	0.23142	0.3155	0.052
Mof_H 	H 	0.8855	0.2518	0.3266	0.035
Mof_C 	C 	0.88598	0.2102	0.2831	-0.105
Mof_C 	C 	0.90847	0.1798	0.26648	0.068
Mof_H 	H 	0.8987	0.1656	0.2448	0.02
Mof_C 	C 	0.94559	0.17048	0.28223	-0.172
Mof_H 	H 	0.9606	0.1501	0.2711	0.102
Mof_C 	C 	0.9988	0.08408	0.41817	-0.128
Mof_C 	C 	0.9629	0.10131	0.40677	0.052
Mof_H 	H 	0.9402	0.0972	0.4219	0.027
Mof_C 	C 	0.96117	0.12475	0.37272	-0.111
Mof_H 	H 	0.9372	0.1363	0.3651	0.078
Mof_C 	C 	0.99523	0.13096	0.35009	0.055
Mof_C 	C 	0.03107	0.11373	0.36149	0.097
Mof_C 	C 	0.0329	0.09029	0.39553	-0.051
Mof_H 	H 	0.0568	0.0788	0.4032	0.071
Mof_C 	C 	0.1053	0.2109	0.28109	0.006
Mof_C 	C 	0.10422	0.1812	0.30987	-0.134
Mof_H 	H 	0.1278	0.1705	0.3196	0.108
Mof_C 	C 	0.06788	0.16759	0.32417	0.121
Mof_C 	C 	0.03261	0.18366	0.3097	0.012
Mof_C 	C 	0.03368	0.21335	0.28092	-0.06
Mof_H 	H 	0.0101	0.2241	0.2712	0.053
Mof_C 	C 	0.07003	0.22698	0.26661	-0.042
Mof_H 	H 	0.0708	0.2469	0.2474	0.056
Mof_O 	O 	0.1775	0.1947	0.2856	-0.559
Mof_C 	C 	0.1519	0.2102	0.2696	0.286
Mof_O 	O 	0.1483	0.2497	0.2483	-0.444
Mof_C 	C 	0.9987	0.0567	0.4495	0.482
Mof_O 	O 	0.9668	0.0453	0.4606	-0.509
Mof_O 	O 	0.0313	0.0399	0.4574	-0.514
Mof_O 	O 	0.065	0.1322	0.3512	-0.215
Mof_C 	C 	0.8409	0.2291	0.2743	0.422
Mof_O 	O 	0.8273	0.2488	0.3008	-0.519
Mof_O 	O 	0.8288	0.2137	0.2438	-0.519
Mof_N 	N 	0.9938	0.1715	0.3279	-0.129
Mof_Zn	Zn	0.72677	0.22808	0.80312	1.218
Mof_C 	C 	0.5398	0.30833	0.81462	0.151
Mof_C 	C 	0.5623	0.27786	0.83125	-0.166
Mof_H 	H 	0.5525	0.2637	0.8529	0.095
Mof_C 	C 	0.59941	0.26858	0.8155	0.05
Mof_H 	H 	0.6145	0.2482	0.8266	0.035
Mof_C 	C 	0.61402	0.2898	0.7831	-0.104
Mof_C 	C 	0.59153	0.3202	0.76648	0.067
Mof_H 	H 	0.6013	0.3344	0.7448	0.021
Mof_C 	C 	0.55441	0.32952	0.78223	-0.171
Mof_H 	H 	0.5394	0.3499	0.7711	0.1
Mof_C 	C 	0.5012	0.41592	0.91817	-0.134
Mof_C 	C 	0.5371	0.39869	0.90677	0.049
Mof_H 	H 	0.5598	0.4028	0.9219	0.03
Mof_C 	C 	0.53883	0.37525	0.87272	-0.105
Mof_H 	H 	0.5628	0.3637	0.8651	0.077
Mof_C 	C 	0.50477	0.36904	0.85009	0.04
Mof_C 	C 	0.46893	0.38627	0.86149	0.111
Mof_C 	C 	0.4671	0.40971	0.89553	-0.04
Mof_H 	H 	0.4432	0.4212	0.9032	0.072
Mof_C 	C 	0.3947	0.2891	0.78109	0.006
Mof_C 	C 	0.39578	0.3188	0.80987	-0.131
Mof_H 	H 	0.3722	0.3295	0.8196	0.108
Mof_C 	C 	0.43212	0.33241	0.82417	0.121
Mof_C 	C 	0.46739	0.31634	0.8097	0.024
Mof_C 	C 	0.46632	0.28665	0.78092	-0.064
Mof_H 	H 	0.4899	0.2759	0.7712	0.059
Mof_C 	C 	0.42997	0.27302	0.76661	-0.037
Mof_H 	H 	0.4292	0.2531	0.7474	0.057
Mof_O 	O 	0.3225	0.3053	0.7856	-0.558
Mof_C 	C 	0.3481	0.2898	0.7696	0.287
Mof_O 	O 	0.3517	0.2503	0.7483	-0.443
Mof_C 	C 	0.5013	0.4433	0.9495	0.465
Mof_O 	O 	0.5332	0.4547	0.9606	-0.499
Mof_O 	O 	0.4687	0.4601	0.9574	-0.493
Mof_O 	O 	0.435	0.3678	0.8512	-0.214
Mof_C 	C 	0.6591	0.2709	0.7743	0.421
Mof_O 	O 	0.6727	0.2512	0.8008	-0.519
Mof_O 	O 	0.6712	0.2863	0.7438	-0.519
Mof_N 	N 	0.5062	0.3285	0.8279	-0.133
Mof_Zn	Zn	0.22677	0.72808	0.30312	1.218
Mof_C 	C 	0.0398	0.80833	0.31462	0.147
Mof_C 	C 	0.0623	0.77786	0.33125	-0.165
Mof_H 	H 	0.0525	0.7637	0.3529	0.091
Mof_C 	C 	0.09941	0.76858	0.3155	0.048
Mof_H 	H 	0.1145	0.7482	0.3266	0.035
Mof_C 	C 	0.11402	0.7898	0.2831	-0.104
Mof_C 	C 	0.09153	0.8202	0.26648	0.065
Mof_H 	H 	0.1013	0.8344	0.2448	0.021
Mof_C 	C 	0.05441	0.82952	0.28223	-0.17
Mof_H 	H 	0.0394	0.8499	0.2711	0.097
Mof_C 	C 	0.0012	0.91592	0.41817	-0.144
Mof_C 	C 	0.0371	0.89869	0.40677	0.048
Mof_H 	H 	0.0598	0.9028	0.4219	0.029
Mof_C 	C 	0.03883	0.87525	0.37272	-0.102
Mof_H 	H 	0.0628	0.8637	0.3651	0.076
Mof_C 	C 	0.00477	0.86904	0.35009	0.026
Mof_C 	C 	0.96893	0.88627	0.36149	0.124
Mof_C 	C 	0.9671	0.90971	0.39553	-0.027
Mof_H 	H 	0.9432	0.9212	0.4032	0.07
Mof_C 	C 	0.8947	0.7891	0.28109	0.004
Mof_C 	C 	0.89578	0.8188	0.30987	-0.128
Mof_H 	H 	0.8722	0.8295	0.3196	0.108
Mof_C 	C 	0.93212	0.83241	0.32417	0.12
Mof_C 	C 	0.96739	0.81634	0.3097	0.036
Mof_C 	C 	0.96632	0.78665	0.28092	-0.069
Mof_H 	H 	0.9899	0.7759	0.2712	0.066
Mof_C 	C 	0.92997	0.77302	0.26661	-0.032
Mof_H 	H 	0.9292	0.7531	0.2474	0.057
Mof_O 	O 	0.8225	0.8053	0.2856	-0.557
Mof_C 	C 	0.8481	0.7898	0.2696	0.288
Mof_O 	O 	0.8517	0.7503	0.2483	-0.442
Mof_C 	C 	0.0013	0.9433	0.4495	0.451
Mof_O 	O 	0.0332	0.9547	0.4606	-0.497
Mof_O 	O 	0.9687	0.9601	0.4574	-0.481
Mof_O 	O 	0.935	0.8678	0.3512	-0.214
Mof_C 	C 	0.1591	0.7709	0.2743	0.421
Mof_O 	O 	0.1727	0.7512	0.3008	-0.519
Mof_O 	O 	0.1712	0.7863	0.2438	-0.519
Mof_N 	N 	0.0062	0.8285	0.3279	-0.138
Mof_Zn	Zn	0.19688	0.72677	0.77192	1.218
Mof_C 	C 	0.18538	0.5398	0.69167	0.151
Mof_C 	C 	0.16875	0.5623	0.72214	-0.166
Mof_H 	H 	0.1471	0.5525	0.7363	0.093
Mof_C 	C 	0.1845	0.59941	0.73142	0.05
Mof_H 	H 	0.1734	0.6145	0.7518	0.035
Mof_C 	C 	0.2169	0.61402	0.7102	-0.104
Mof_C 	C 	0.23352	0.59153	0.6798	0.066
Mof_H 	H 	0.2552	0.6013	0.6656	0.021
Mof_C 	C 	0.21777	0.55441	0.67048	-0.171
Mof_H 	H 	0.2289	0.5394	0.6501	0.1
Mof_C 	C 	0.08183	0.5012	0.58408	-0.139
Mof_C 	C 	0.09323	0.5371	0.60131	0.051
Mof_H 	H 	0.0781	0.5598	0.5972	0.026
Mof_C 	C 	0.12728	0.53883	0.62475	-0.108
Mof_H 	H 	0.1349	0.5628	0.6363	0.077
Mof_C 	C 	0.14991	0.50477	0.63096	0.041
Mof_C 	C 	0.13851	0.46893	0.61373	0.11
Mof_C 	C 	0.10447	0.4671	0.59029	-0.038
Mof_H 	H 	0.0968	0.4432	0.5788	0.069
Mof_C 	C 	0.21891	0.3947	0.7109	0.005
Mof_C 	C 	0.19013	0.39578	0.6812	-0.131
Mof_H 	H 	0.1804	0.3722	0.6705	0.107
Mof_C 	C 	0.17583	0.43212	0.66759	0.12
Mof_C 	C 	0.1903	0.46739	0.68366	0.024
Mof_C 	C 	0.21908	0.46632	0.71335	-0.065
Mof_H 	H 	0.2288	0.4899	0.7241	0.06
Mof_C 	C 	0.23339	0.42997	0.72698	-0.037
Mof_H 	H 	0.2526	0.4292	0.7469	0.057
Mof_O 	O 	0.2144	0.3225	0.6947	-0.558
Mof_C 	C 	0.2304	0.3481	0.7102	0.287
Mof_O 	O 	0.2517	0.3517	0.7497	-0.443
Mof_C 	C 	0.0505	0.5013	0.5567	0.467
Mof_O 	O 	0.0394	0.5332	0.5453	-0.508
Mof_O 	O 	0.0426	0.4687	0.5399	-0.502
Mof_O 	O 	0.1488	0.435	0.6322	-0.215
Mof_C 	C 	0.2257	0.6591	0.7291	0.422
Mof_O 	O 	0.1992	0.6727	0.7488	-0.519
Mof_O 	O 	0.2562	0.6712	0.7137	-0.519
Mof_N 	N 	0.1721	0.5062	0.6715	-0.134
Mof_Zn	Zn	0.69688	0.22677	0.27192	1.218
Mof_C 	C 	0.68538	0.0398	0.19167	0.147
Mof_C 	C 	0.66875	0.0623	0.22214	-0.165
Mof_H 	H 	0.6471	0.0525	0.2363	0.091
Mof_C 	C 	0.6845	0.09941	0.23142	0.048
Mof_H 	H 	0.6734	0.1145	0.2518	0.035
Mof_C 	C 	0.7169	0.11402	0.2102	-0.104
Mof_C 	C 	0.73352	0.09153	0.1798	0.064
Mof_H 	H 	0.7552	0.1013	0.1656	0.02
Mof_C 	C 	0.71777	0.05441	0.17048	-0.17
Mof_H 	H 	0.7289	0.0394	0.1501	0.096
Mof_C 	C 	0.58183	0.0012	0.08408	-0.15
Mof_C 	C 	0.59323	0.0371	0.10131	0.05
Mof_H 	H 	0.5781	0.0598	0.0972	0.026
Mof_C 	C 	0.62728	0.03883	0.12475	-0.105
Mof_H 	H 	0.6349	0.0628	0.1363	0.075
Mof_C 	C 	0.64991	0.00477	0.13096	0.026
Mof_C 	C 	0.63851	0.96893	0.11373	0.121
Mof_C 	C 	0.60447	0.9671	0.09029	-0.025
Mof_H 	H 	0.5968	0.9432	0.0788	0.066
Mof_C 	C 	0.71891	0.8947	0.2109	0.004
Mof_C 	C 	0.69013	0.89578	0.1812	-0.128
Mof_H 	H 	0.6804	0.8722	0.1705	0.107
Mof_C 	C 	0.67583	0.93212	0.16759	0.119
Mof_C 	C 	0.6903	0.96739	0.18366	0.036
Mof_C 	C 	0.71908	0.96632	0.21335	-0.069
Mof_H 	H 	0.7288	0.9899	0.2241	0.066
Mof_C 	C 	0.73339	0.92997	0.22698	-0.032
Mof_H 	H 	0.7526	0.9292	0.2469	0.057
Mof_O 	O 	0.7144	0.8225	0.1947	-0.558
Mof_C 	C 	0.7304	0.8481	0.2102	0.288
Mof_O 	O 	0.7517	0.8517	0.2497	-0.442
Mof_C 	C 	0.5505	0.0013	0.0567	0.454
Mof_O 	O 	0.5394	0.0332	0.0453	-0.507
Mof_O 	O 	0.5426	0.9687	0.0399	-0.49
Mof_O 	O 	0.6488	0.935	0.1322	-0.215
Mof_C 	C 	0.7257	0.1591	0.2291	0.421
Mof_O 	O 	0.6992	0.1727	0.2488	-0.519
Mof_O 	O 	0.7562	0.1712	0.2137	-0.519
Mof_N 	N 	0.6721	0.0062	0.1715	-0.138
Mof_Zn	Zn	0.19688	0.27323	0.22808	1.218
Mof_C 	C 	0.18538	0.4602	0.30833	0.151
Mof_C 	C 	0.16875	0.4377	0.27786	-0.166
Mof_H 	H 	0.1471	0.4475	0.2637	0.093
Mof_C 	C 	0.1845	0.40059	0.26858	0.05
Mof_H 	H 	0.1734	0.3855	0.2482	0.035
Mof_C 	C 	0.2169	0.38598	0.2898	-0.104
Mof_C 	C 	0.23352	0.40847	0.3202	0.066
Mof_H 	H 	0.2552	0.3987	0.3344	0.021
Mof_C 	C 	0.21777	0.44559	0.32952	-0.171
Mof_H 	H 	0.2289	0.4606	0.3499	0.1
Mof_C 	C 	0.08183	0.4988	0.41592	-0.139
Mof_C 	C 	0.09323	0.4629	0.39869	0.051
Mof_H 	H 	0.0781	0.4402	0.4028	0.026
Mof_C 	C 	0.12728	0.46117	0.37525	-0.108
Mof_H 	H 	0.1349	0.4372	0.3637	0.077
Mof_C 	C 	0.14991	0.49523	0.36904	0.041
Mof_C 	C 	0.13851	0.53107	0.38627	0.11
Mof_C 	C 	0.10447	0.5329	0.40971	-0.038
Mof_H 	H 	0.0968	0.5568	0.4212	0.069
Mof_C 	C 	0.21891	0.6053	0.2891	0.005
Mof_C 	C 	0.19013	0.60422	0.3188	-0.131
Mof_H 	H 	0.1804	0.6278	0.3295	0.107
Mof_C 	C 	0.17583	0.56788	0.33241	0.12
Mof_C 	C 	0.1903	0.53261	0.31634	0.024
Mof_C 	C 	0.21908	0.53368	0.28665	-0.065
Mof_H 	H 	0.2288	0.5101	0.2759	0.059
Mof_C 	C 	0.23339	0.57003	0.27302	-0.037
Mof_H 	H 	0.2526	0.5708	0.2531	0.056
Mof_O 	O 	0.2144	0.6775	0.3053	-0.558
Mof_C 	C 	0.2304	0.6519	0.2898	0.287
Mof_O 	O 	0.2517	0.6483	0.2503	-0.443
Mof_C 	C 	0.0505	0.4987	0.4433	0.467
Mof_O 	O 	0.0394	0.4668	0.4547	-0.508
Mof_O 	O 	0.0426	0.5313	0.4601	-0.502
Mof_O 	O 	0.1488	0.565	0.3678	-0.215
Mof_C 	C 	0.2257	0.3409	0.2709	0.421
Mof_O 	O 	0.1992	0.3273	0.2512	-0.52
Mof_O 	O 	0.2562	0.3288	0.2863	-0.519
Mof_N 	N 	0.1721	0.4938	0.3285	-0.134
Mof_Zn	Zn	0.69688	0.77323	0.72808	1.218
Mof_C 	C 	0.68538	0.9602	0.80833	0.155
Mof_C 	C 	0.66875	0.9377	0.77786	-0.167
Mof_H 	H 	0.6471	0.9475	0.7637	0.097
Mof_C 	C 	0.6845	0.90059	0.76858	0.052
Mof_H 	H 	0.6734	0.8855	0.7482	0.036
Mof_C 	C 	0.7169	0.88598	0.7898	-0.104
Mof_C 	C 	0.73352	0.90847	0.8202	0.069
Mof_H 	H 	0.7552	0.8987	0.8344	0.023
Mof_C 	C 	0.71777	0.94559	0.82952	-0.172
Mof_H 	H 	0.7289	0.9606	0.8499	0.104
Mof_C 	C 	0.58183	0.9988	0.91592	-0.123
Mof_C 	C 	0.59323	0.9629	0.89869	0.05
Mof_H 	H 	0.5781	0.9402	0.9028	0.03
Mof_C 	C 	0.62728	0.96117	0.87525	-0.108
Mof_H 	H 	0.6349	0.9372	0.8637	0.079
Mof_C 	C 	0.64991	0.99523	0.86904	0.056
Mof_C 	C 	0.63851	0.03107	0.88627	0.101
Mof_C 	C 	0.60447	0.0329	0.90971	-0.052
Mof_H 	H 	0.5968	0.0568	0.9212	0.075
Mof_C 	C 	0.71891	0.1053	0.7891	0.007
Mof_C 	C 	0.69013	0.10422	0.8188	-0.133
Mof_H 	H 	0.6804	0.1278	0.8295	0.109
Mof_C 	C 	0.67583	0.06788	0.83241	0.122
Mof_C 	C 	0.6903	0.03261	0.81634	0.012
Mof_C 	C 	0.71908	0.03368	0.78665	-0.059
Mof_H 	H 	0.7288	0.0101	0.7759	0.053
Mof_C 	C 	0.73339	0.07003	0.77302	-0.041
Mof_H 	H 	0.7526	0.0708	0.7531	0.057
Mof_O 	O 	0.7144	0.1775	0.8053	-0.558
Mof_C 	C 	0.7304	0.1519	0.7898	0.287
Mof_O 	O 	0.7517	0.1483	0.7503	-0.443
Mof_C 	C 	0.5505	0.9987	0.9433	0.478
Mof_O 	O 	0.5394	0.9668	0.9547	-0.5
Mof_O 	O 	0.5426	0.0313	0.9601	-0.504
Mof_O 	O 	0.6488	0.065	0.8678	-0.214
Mof_C 	C 	0.7257	0.8409	0.7709	0.422
Mof_O 	O 	0.6992	0.8273	0.7512	-0.518
Mof_O 	O 	0.7562	0.8288	0.7863	-0.517
Mof_N 	N 	0.6721	0.9938	0.8285	-0.129
Mof_Zn	Zn	0.80312	0.27323	0.77192	1.218
Mof_C 	C 	0.81462	0.4602	0.69167	0.152
Mof_C 	C 	0.83125	0.4377	0.72214	-0.166
Mof_H 	H 	0.8529	0.4475	0.7363	0.095
Mof_C 	C 	0.8155	0.40059	0.73142	0.051
Mof_H 	H 	0.8266	0.3855	0.7518	0.036
Mof_C 	C 	0.7831	0.38598	0.7102	-0.104
Mof_C 	C 	0.76648	0.40847	0.6798	0.067
Mof_H 	H 	0.7448	0.3987	0.6656	0.021
Mof_C 	C 	0.78223	0.44559	0.67048	-0.171
Mof_H 	H 	0.7711	0.4606	0.6501	0.1
Mof_C 	C 	0.91817	0.4988	0.58408	-0.134
Mof_C 	C 	0.90677	0.4629	0.60131	0.049
Mof_H 	H 	0.9219	0.4402	0.5972	0.03
Mof_C 	C 	0.87272	0.46117	0.62475	-0.105
Mof_H 	H 	0.8651	0.4372	0.6363	0.077
Mof_C 	C 	0.85009	0.49523	0.63096	0.04
Mof_C 	C 	0.86149	0.53107	0.61373	0.111
Mof_C 	C 	0.89553	0.5329	0.59029	-0.04
Mof_H 	H 	0.9032	0.5568	0.5788	0.072
Mof_C 	C 	0.78109	0.6053	0.7109	0.006
Mof_C 	C 	0.80987	0.60422	0.6812	-0.131
Mof_H 	H 	0.8196	0.6278	0.6705	0.109
Mof_C 	C 	0.82417	0.56788	0.66759	0.121
Mof_C 	C 	0.8097	0.53261	0.68366	0.024
Mof_C 	C 	0.78092	0.53368	0.71335	-0.064
Mof_H 	H 	0.7712	0.5101	0.7241	0.06
Mof_C 	C 	0.76661	0.57003	0.72698	-0.037
Mof_H 	H 	0.7474	0.5708	0.7469	0.057
Mof_O 	O 	0.7856	0.6775	0.6947	-0.558
Mof_C 	C 	0.7696	0.6519	0.7102	0.287
Mof_O 	O 	0.7483	0.6483	0.7497	-0.443
Mof_C 	C 	0.9495	0.4987	0.5567	0.465
Mof_O 	O 	0.9606	0.4668	0.5453	-0.499
Mof_O 	O 	0.9574	0.5313	0.5399	-0.493
Mof_O 	O 	0.8512	0.565	0.6322	-0.214
Mof_C 	C 	0.7743	0.3409	0.7291	0.422
Mof_O 	O 	0.8008	0.3273	0.7488	-0.518
Mof_O 	O 	0.7438	0.3288	0.7137	-0.518
Mof_N 	N 	0.8279	0.4938	0.6715	-0.133
Mof_Zn	Zn	0.30312	0.77323	0.27192	1.218
Mof_C 	C 	0.31462	0.9602	0.19167	0.155
Mof_C 	C 	0.33125	0.9377	0.22214	-0.167
Mof_H 	H 	0.3529	0.9475	0.2363	0.097
Mof_C 	C 	0.3155	0.90059	0.23142	0.052
Mof_H 	H 	0.3266	0.8855	0.2518	0.035
Mof_C 	C 	0.2831	0.88598	0.2102	-0.105
Mof_C 	C 	0.26648	0.90847	0.1798	0.068
Mof_H 	H 	0.2448	0.8987	0.1656	0.02
Mof_C 	C 	0.28223	0.94559	0.17048	-0.172
Mof_H 	H 	0.2711	0.9606	0.1501	0.102
Mof_C 	C 	0.41817	0.9988	0.08408	-0.128
Mof_C 	C 	0.40677	0.9629	0.10131	0.052
Mof_H 	H 	0.4219	0.9402	0.0972	0.027
Mof_C 	C 	0.37272	0.96117	0.12475	-0.111
Mof_H 	H 	0.3651	0.9372	0.1363	0.078
Mof_C 	C 	0.35009	0.99523	0.13096	0.055
Mof_C 	C 	0.36149	0.03107	0.11373	0.097
Mof_C 	C 	0.39553	0.0329	0.09029	-0.051
Mof_H 	H 	0.4032	0.0568	0.0788	0.071
Mof_C 	C 	0.28109	0.1053	0.2109	0.006
Mof_C 	C 	0.30987	0.10422	0.1812	-0.134
Mof_H 	H 	0.3196	0.1278	0.1705	0.108
Mof_C 	C 	0.32417	0.06788	0.16759	0.121
Mof_C 	C 	0.3097	0.03261	0.18366	0.012
Mof_C 	C 	0.28092	0.03368	0.21335	-0.06
Mof_H 	H 	0.2712	0.0101	0.2241	0.053
Mof_C 	C 	0.26661	0.07003	0.22698	-0.042
Mof_H 	H 	0.2474	0.0708	0.2469	0.056
Mof_O 	O 	0.2856	0.1775	0.1947	-0.559
Mof_C 	C 	0.2696	0.1519	0.2102	0.286
Mof_O 	O 	0.2483	0.1483	0.2497	-0.444
Mof_C 	C 	0.4495	0.9987	0.0567	0.482
Mof_O 	O 	0.4606	0.9668	0.0453	-0.509
Mof_O 	O 	0.4574	0.0313	0.0399	-0.514
Mof_O 	O 	0.3512	0.065	0.1322	-0.215
Mof_C 	C 	0.2743	0.8409	0.2291	0.422
Mof_O 	O 	0.3008	0.8273	0.2488	-0.519
Mof_O 	O 	0.2438	0.8288	0.2137	-0.519
Mof_N 	N 	0.3279	0.9938	0.1715	-0.129
Mof_Zn	Zn	0.80312	0.72677	0.22808	1.218
Mof_C 	C 	0.81462	0.5398	0.30833	0.151
Mof_C 	C 	0.83125	0.5623	0.27786	-0.166
Mof_H 	H 	0.8529	0.5525	0.2637	0.095
Mof_C 	C 	0.8155	0.59941	0.26858	0.05
Mof_H 	H 	0.8266	0.6145	0.2482	0.035
Mof_C 	C 	0.7831	0.61402	0.2898	-0.104
Mof_C 	C 	0.76648	0.59153	0.3202	0.067
Mof_H 	H 	0.7448	0.6013	0.3344	0.021
Mof_C 	C 	0.78223	0.55441	0.32952	-0.171
Mof_H 	H 	0.7711	0.5394	0.3499	0.1
Mof_C 	C 	0.91817	0.5012	0.41592	-0.134
Mof_C 	C 	0.90677	0.5371	0.39869	0.049
Mof_H 	H 	0.9219	0.5598	0.4028	0.03
Mof_C 	C 	0.87272	0.53883	0.37525	-0.105
Mof_H 	H 	0.8651	0.5628	0.3637	0.077
Mof_C 	C 	0.85009	0.50477	0.36904	0.04
Mof_C 	C 	0.86149	0.46893	0.38627	0.111
Mof_C 	C 	0.89553	0.4671	0.40971	-0.04
Mof_H 	H 	0.9032	0.4432	0.4212	0.072
Mof_C 	C 	0.78109	0.3947	0.2891	0.006
Mof_C 	C 	0.80987	0.39578	0.3188	-0.131
Mof_H 	H 	0.8196	0.3722	0.3295	0.108
Mof_C 	C 	0.82417	0.43212	0.33241	0.121
Mof_C 	C 	0.8097	0.46739	0.31634	0.024
Mof_C 	C 	0.78092	0.46632	0.28665	-0.064
Mof_H 	H 	0.7712	0.4899	0.2759	0.059
Mof_C 	C 	0.76661	0.42997	0.27302	-0.037
Mof_H 	H 	0.7474	0.4292	0.2531	0.057
Mof_O 	O 	0.7856	0.3225	0.3053	-0.558
Mof_C 	C 	0.7696	0.3481	0.2898	0.287
Mof_O 	O 	0.7483	0.3517	0.2503	-0.443
Mof_C 	C 	0.9495	0.5013	0.4433	0.465
Mof_O 	O 	0.9606	0.5332	0.4547	-0.499
Mof_O 	O 	0.9574	0.4687	0.4601	-0.493
Mof_O 	O 	0.8512	0.435	0.3678	-0.214
Mof_C 	C 	0.7743	0.6591	0.2709	0.421
Mof_O 	O 	0.8008	0.6727	0.2512	-0.519
Mof_O 	O 	0.7438	0.6712	0.2863	-0.519
Mof_N 	N 	0.8279	0.5062	0.3285	-0.133
Mof_Zn	Zn	0.30312	0.22677	0.72808	1.218
Mof_C 	C 	0.31462	0.0398	0.80833	0.147
Mof_C 	C 	0.33125	0.0623	0.77786	-0.165
Mof_H 	H 	0.3529	0.0525	0.7637	0.091
Mof_C 	C 	0.3155	0.09941	0.76858	0.048
Mof_H 	H 	0.3266	0.1145	0.7482	0.035
Mof_C 	C 	0.2831	0.11402	0.7898	-0.104
Mof_C 	C 	0.26648	0.09153	0.8202	0.065
Mof_H 	H 	0.2448	0.1013	0.8344	0.021
Mof_C 	C 	0.28223	0.05441	0.82952	-0.17
Mof_H 	H 	0.2711	0.0394	0.8499	0.097
Mof_C 	C 	0.41817	0.0012	0.91592	-0.144
Mof_C 	C 	0.40677	0.0371	0.89869	0.048
Mof_H 	H 	0.4219	0.0598	0.9028	0.029
Mof_C 	C 	0.37272	0.03883	0.87525	-0.102
Mof_H 	H 	0.3651	0.0628	0.8637	0.076
Mof_C 	C 	0.35009	0.00477	0.86904	0.026
Mof_C 	C 	0.36149	0.96893	0.88627	0.124
Mof_C 	C 	0.39553	0.9671	0.90971	-0.027
Mof_H 	H 	0.4032	0.9432	0.9212	0.07
Mof_C 	C 	0.28109	0.8947	0.7891	0.004
Mof_C 	C 	0.30987	0.89578	0.8188	-0.128
Mof_H 	H 	0.3196	0.8722	0.8295	0.108
Mof_C 	C 	0.32417	0.93212	0.83241	0.12
Mof_C 	C 	0.3097	0.96739	0.81634	0.036
Mof_C 	C 	0.28092	0.96632	0.78665	-0.069
Mof_H 	H 	0.2712	0.9899	0.7759	0.066
Mof_C 	C 	0.26661	0.92997	0.77302	-0.032
Mof_H 	H 	0.2474	0.9292	0.7531	0.057
Mof_O 	O 	0.2856	0.8225	0.8053	-0.557
Mof_C 	C 	0.2696	0.8481	0.7898	0.288
Mof_O 	O 	0.2483	0.8517	0.7503	-0.442
Mof_C 	C 	0.4495	0.0013	0.9433	0.451
Mof_O 	O 	0.4606	0.0332	0.9547	-0.497
Mof_O 	O 	0.4574	0.9687	0.9601	-0.481
Mof_O 	O 	0.3512	0.935	0.8678	-0.214
Mof_C 	C 	0.2743	0.1591	0.7709	0.421
Mof_O 	O 	0.3008	0.1727	0.7512	-0.519
Mof_O 	O 	0.2438	0.1712	0.7863	-0.519
Mof_N 	N 	0.3279	0.0062	0.8285	-0.138
Mof_Zn	Zn	0.77192	0.19688	0.72677	1.218
Mof_C 	C 	0.69167	0.18538	0.5398	0.151
Mof_C 	C 	0.72214	0.16875	0.5623	-0.166
Mof_H 	H 	0.7363	0.1471	0.5525	0.093
Mof_C 	C 	0.73142	0.1845	0.59941	0.05
Mof_H 	H 	0.7518	0.1734	0.6145	0.035
Mof_C 	C 	0.7102	0.2169	0.61402	-0.104
Mof_C 	C 	0.6798	0.23352	0.59153	0.066
Mof_H 	H 	0.6656	0.2552	0.6013	0.021
Mof_C 	C 	0.67048	0.21777	0.55441	-0.171
Mof_H 	H 	0.6501	0.2289	0.5394	0.1
Mof_C 	C 	0.58408	0.08183	0.5012	-0.139
Mof_C 	C 	0.60131	0.09323	0.5371	0.051
Mof_H 	H 	0.5972	0.0781	0.5598	0.026
Mof_C 	C 	0.62475	0.12728	0.53883	-0.108
Mof_H 	H 	0.6363	0.1349	0.5628	0.077
Mof_C 	C 	0.63096	0.14991	0.50477	0.041
Mof_C 	C 	0.61373	0.13851	0.46893	0.11
Mof_C 	C 	0.59029	0.10447	0.4671	-0.038
Mof_H 	H 	0.5788	0.0968	0.4432	0.069
Mof_C 	C 	0.7109	0.21891	0.3947	0.005
Mof_C 	C 	0.6812	0.19013	0.39578	-0.131
Mof_H 	H 	0.6705	0.1804	0.3722	0.107
Mof_C 	C 	0.66759	0.17583	0.43212	0.12
Mof_C 	C 	0.68366	0.1903	0.46739	0.024
Mof_C 	C 	0.71335	0.21908	0.46632	-0.065
Mof_H 	H 	0.7241	0.2288	0.4899	0.06
Mof_C 	C 	0.72698	0.23339	0.42997	-0.037
Mof_H 	H 	0.7469	0.2526	0.4292	0.057
Mof_O 	O 	0.6947	0.2144	0.3225	-0.558
Mof_C 	C 	0.7102	0.2304	0.3481	0.287
Mof_O 	O 	0.7497	0.2517	0.3517	-0.443
Mof_C 	C 	0.5567	0.0505	0.5013	0.467
Mof_O 	O 	0.5453	0.0394	0.5332	-0.508
Mof_O 	O 	0.5399	0.0426	0.4687	-0.502
Mof_O 	O 	0.6322	0.1488	0.435	-0.215
Mof_C 	C 	0.7291	0.2257	0.6591	0.422
Mof_O 	O 	0.7488	0.1992	0.6727	-0.519
Mof_O 	O 	0.7137	0.2562	0.6712	-0.519
Mof_N 	N 	0.6715	0.1721	0.5062	-0.134
Mof_Zn	Zn	0.27192	0.69688	0.22677	1.218
Mof_C 	C 	0.19167	0.68538	0.0398	0.147
Mof_C 	C 	0.22214	0.66875	0.0623	-0.165
Mof_H 	H 	0.2363	0.6471	0.0525	0.091
Mof_C 	C 	0.23142	0.6845	0.09941	0.048
Mof_H 	H 	0.2518	0.6734	0.1145	0.035
Mof_C 	C 	0.2102	0.7169	0.11402	-0.104
Mof_C 	C 	0.1798	0.73352	0.09153	0.064
Mof_H 	H 	0.1656	0.7552	0.1013	0.02
Mof_C 	C 	0.17048	0.71777	0.05441	-0.17
Mof_H 	H 	0.1501	0.7289	0.0394	0.096
Mof_C 	C 	0.08408	0.58183	0.0012	-0.15
Mof_C 	C 	0.10131	0.59323	0.0371	0.05
Mof_H 	H 	0.0972	0.5781	0.0598	0.026
Mof_C 	C 	0.12475	0.62728	0.03883	-0.105
Mof_H 	H 	0.1363	0.6349	0.0628	0.075
Mof_C 	C 	0.13096	0.64991	0.00477	0.026
Mof_C 	C 	0.11373	0.63851	0.96893	0.121
Mof_C 	C 	0.09029	0.60447	0.9671	-0.025
Mof_H 	H 	0.0788	0.5968	0.9432	0.066
Mof_C 	C 	0.2109	0.71891	0.8947	0.004
Mof_C 	C 	0.1812	0.69013	0.89578	-0.128
Mof_H 	H 	0.1705	0.6804	0.8722	0.107
Mof_C 	C 	0.16759	0.67583	0.93212	0.119
Mof_C 	C 	0.18366	0.6903	0.96739	0.036
Mof_C 	C 	0.21335	0.71908	0.96632	-0.069
Mof_H 	H 	0.2241	0.7288	0.9899	0.066
Mof_C 	C 	0.22698	0.73339	0.92997	-0.032
Mof_H 	H 	0.2469	0.7526	0.9292	0.057
Mof_O 	O 	0.1947	0.7144	0.8225	-0.558
Mof_C 	C 	0.2102	0.7304	0.8481	0.288
Mof_O 	O 	0.2497	0.7517	0.8517	-0.442
Mof_C 	C 	0.0567	0.5505	0.0013	0.454
Mof_O 	O 	0.0453	0.5394	0.0332	-0.507
Mof_O 	O 	0.0399	0.5426	0.9687	-0.49
Mof_O 	O 	0.1322	0.6488	0.935	-0.215
Mof_C 	C 	0.2291	0.7257	0.1591	0.421
Mof_O 	O 	0.2488	0.6992	0.1727	-0.519
Mof_O 	O 	0.2137	0.7562	0.1712	-0.519
Mof_N 	N 	0.1715	0.6721	0.0062	-0.138
Mof_Zn	Zn	0.22808	0.19688	0.27323	1.218
Mof_C 	C 	0.30833	0.18538	0.4602	0.151
Mof_C 	C 	0.27786	0.16875	0.4377	-0.166
Mof_H 	H 	0.2637	0.1471	0.4475	0.093
Mof_C 	C 	0.26858	0.1845	0.40059	0.05
Mof_H 	H 	0.2482	0.1734	0.3855	0.035
Mof_C 	C 	0.2898	0.2169	0.38598	-0.104
Mof_C 	C 	0.3202	0.23352	0.40847	0.066
Mof_H 	H 	0.3344	0.2552	0.3987	0.021
Mof_C 	C 	0.32952	0.21777	0.44559	-0.171
Mof_H 	H 	0.3499	0.2289	0.4606	0.1
Mof_C 	C 	0.41592	0.08183	0.4988	-0.139
Mof_C 	C 	0.39869	0.09323	0.4629	0.051
Mof_H 	H 	0.4028	0.0781	0.4402	0.026
Mof_C 	C 	0.37525	0.12728	0.46117	-0.108
Mof_H 	H 	0.3637	0.1349	0.4372	0.077
Mof_C 	C 	0.36904	0.14991	0.49523	0.041
Mof_C 	C 	0.38627	0.13851	0.53107	0.11
Mof_C 	C 	0.40971	0.10447	0.5329	-0.038
Mof_H 	H 	0.4212	0.0968	0.5568	0.069
Mof_C 	C 	0.2891	0.21891	0.6053	0.005
Mof_C 	C 	0.3188	0.19013	0.60422	-0.131
Mof_H 	H 	0.3295	0.1804	0.6278	0.107
Mof_C 	C 	0.33241	0.17583	0.56788	0.12
Mof_C 	C 	0.31634	0.1903	0.53261	0.024
Mof_C 	C 	0.28665	0.21908	0.53368	-0.065
Mof_H 	H 	0.2759	0.2288	0.5101	0.059
Mof_C 	C 	0.27302	0.23339	0.57003	-0.037
Mof_H 	H 	0.2531	0.2526	0.5708	0.056
Mof_O 	O 	0.3053	0.2144	0.6775	-0.558
Mof_C 	C 	0.2898	0.2304	0.6519	0.287
Mof_O 	O 	0.2503	0.2517	0.6483	-0.443
Mof_C 	C 	0.4433	0.0505	0.4987	0.467
Mof_O 	O 	0.4547	0.0394	0.4668	-0.508
Mof_O 	O 	0.4601	0.0426	0.5313	-0.502
Mof_O 	O 	0.3678	0.1488	0.565	-0.215
Mof_C 	C 	0.2709	0.2257	0.3409	0.421
Mof_O 	O 	0.2512	0.1992	0.3273	-0.52
Mof_O 	O 	0.2863	0.2562	0.3288	-0.519
Mof_N 	N 	0.3285	0.1721	0.4938	-0.134
Mof_Zn	Zn	0.72808	0.69688	0.77323	1.218
Mof_C 	C 	0.80833	0.68538	0.9602	0.155
Mof_C 	C 	0.77786	0.66875	0.9377	-0.167
Mof_H 	H 	0.7637	0.6471	0.9475	0.097
Mof_C 	C 	0.76858	0.6845	0.90059	0.052
Mof_H 	H 	0.7482	0.6734	0.8855	0.036
Mof_C 	C 	0.7898	0.7169	0.88598	-0.104
Mof_C 	C 	0.8202	0.73352	0.90847	0.069
Mof_H 	H 	0.8344	0.7552	0.8987	0.023
Mof_C 	C 	0.82952	0.71777	0.94559	-0.172
Mof_H 	H 	0.8499	0.7289	0.9606	0.104
Mof_C 	C 	0.91592	0.58183	0.9988	-0.123
Mof_C 	C 	0.89869	0.59323	0.9629	0.05
Mof_H 	H 	0.9028	0.5781	0.9402	0.03
Mof_C 	C 	0.87525	0.62728	0.96117	-0.108
Mof_H 	H 	0.8637	0.6349	0.9372	0.079
Mof_C 	C 	0.86904	0.64991	0.99523	0.056
Mof_C 	C 	0.88627	0.63851	0.03107	0.101
Mof_C 	C 	0.90971	0.60447	0.0329	-0.052
Mof_H 	H 	0.9212	0.5968	0.0568	0.075
Mof_C 	C 	0.7891	0.71891	0.1053	0.007
Mof_C 	C 	0.8188	0.69013	0.10422	-0.133
Mof_H 	H 	0.8295	0.6804	0.1278	0.109
Mof_C 	C 	0.83241	0.67583	0.06788	0.122
Mof_C 	C 	0.81634	0.6903	0.03261	0.012
Mof_C 	C 	0.78665	0.71908	0.03368	-0.059
Mof_H 	H 	0.7759	0.7288	0.0101	0.053
Mof_C 	C 	0.77302	0.73339	0.07003	-0.041
Mof_H 	H 	0.7531	0.7526	0.0708	0.057
Mof_O 	O 	0.8053	0.7144	0.1775	-0.558
Mof_C 	C 	0.7898	0.7304	0.1519	0.287
Mof_O 	O 	0.7503	0.7517	0.1483	-0.443
Mof_C 	C 	0.9433	0.5505	0.9987	0.478
Mof_O 	O 	0.9547	0.5394	0.9668	-0.5
Mof_O 	O 	0.9601	0.5426	0.0313	-0.504
Mof_O 	O 	0.8678	0.6488	0.065	-0.214
Mof_C 	C 	0.7709	0.7257	0.8409	0.422
Mof_O 	O 	0.7512	0.6992	0.8273	-0.518
Mof_O 	O 	0.7863	0.7562	0.8288	-0.517
Mof_N 	N 	0.8285	0.6721	0.9938	-0.129
Mof_Zn	Zn	0.77192	0.80312	0.27323	1.218
Mof_C 	C 	0.69167	0.81462	0.4602	0.152
Mof_C 	C 	0.72214	0.83125	0.4377	-0.166
Mof_H 	H 	0.7363	0.8529	0.4475	0.095
Mof_C 	C 	0.73142	0.8155	0.40059	0.051
Mof_H 	H 	0.7518	0.8266	0.3855	0.036
Mof_C 	C 	0.7102	0.7831	0.38598	-0.104
Mof_C 	C 	0.6798	0.76648	0.40847	0.067
Mof_H 	H 	0.6656	0.7448	0.3987	0.021
Mof_C 	C 	0.67048	0.78223	0.44559	-0.171
Mof_H 	H 	0.6501	0.7711	0.4606	0.1
Mof_C 	C 	0.58408	0.91817	0.4988	-0.134
Mof_C 	C 	0.60131	0.90677	0.4629	0.049
Mof_H 	H 	0.5972	0.9219	0.4402	0.03
Mof_C 	C 	0.62475	0.87272	0.46117	-0.105
Mof_H 	H 	0.6363	0.8651	0.4372	0.077
Mof_C 	C 	0.63096	0.85009	0.49523	0.04
Mof_C 	C 	0.61373	0.86149	0.53107	0.111
Mof_C 	C 	0.59029	0.89553	0.5329	-0.04
Mof_H 	H 	0.5788	0.9032	0.5568	0.072
Mof_C 	C 	0.7109	0.78109	0.6053	0.006
Mof_C 	C 	0.6812	0.80987	0.60422	-0.131
Mof_H 	H 	0.6705	0.8196	0.6278	0.109
Mof_C 	C 	0.66759	0.82417	0.56788	0.121
Mof_C 	C 	0.68366	0.8097	0.53261	0.024
Mof_C 	C 	0.71335	0.78092	0.53368	-0.064
Mof_H 	H 	0.7241	0.7712	0.5101	0.06
Mof_C 	C 	0.72698	0.76661	0.57003	-0.037
Mof_H 	H 	0.7469	0.7474	0.5708	0.057
Mof_O 	O 	0.6947	0.7856	0.6775	-0.558
Mof_C 	C 	0.7102	0.7696	0.6519	0.287
Mof_O 	O 	0.7497	0.7483	0.6483	-0.443
Mof_C 	C 	0.5567	0.9495	0.4987	0.465
Mof_O 	O 	0.5453	0.9606	0.4668	-0.499
Mof_O 	O 	0.5399	0.9574	0.5313	-0.493
Mof_O 	O 	0.6322	0.8512	0.565	-0.214
Mof_C 	C 	0.7291	0.7743	0.3409	0.422
Mof_O 	O 	0.7488	0.8008	0.3273	-0.518
Mof_O 	O 	0.7137	0.7438	0.3288	-0.518
Mof_N 	N 	0.6715	0.8279	0.4938	-0.133
Mof_Zn	Zn	0.27192	0.30312	0.77323	1.218
Mof_C 	C 	0.19167	0.31462	0.9602	0.155
Mof_C 	C 	0.22214	0.33125	0.9377	-0.167
Mof_H 	H 	0.2363	0.3529	0.9475	0.097
Mof_C 	C 	0.23142	0.3155	0.90059	0.052
Mof_H 	H 	0.2518	0.3266	0.8855	0.035
Mof_C 	C 	0.2102	0.2831	0.88598	-0.105
Mof_C 	C 	0.1798	0.26648	0.90847	0.068
Mof_H 	H 	0.1656	0.2448	0.8987	0.02
Mof_C 	C 	0.17048	0.28223	0.94559	-0.172
Mof_H 	H 	0.1501	0.2711	0.9606	0.102
Mof_C 	C 	0.08408	0.41817	0.9988	-0.128
Mof_C 	C 	0.10131	0.40677	0.9629	0.052
Mof_H 	H 	0.0972	0.4219	0.9402	0.027
Mof_C 	C 	0.12475	0.37272	0.96117	-0.111
Mof_H 	H 	0.1363	0.3651	0.9372	0.078
Mof_C 	C 	0.13096	0.35009	0.99523	0.055
Mof_C 	C 	0.11373	0.36149	0.03107	0.097
Mof_C 	C 	0.09029	0.39553	0.0329	-0.051
Mof_H 	H 	0.0788	0.4032	0.0568	0.071
Mof_C 	C 	0.2109	0.28109	0.1053	0.006
Mof_C 	C 	0.1812	0.30987	0.10422	-0.134
Mof_H 	H 	0.1705	0.3196	0.1278	0.108
Mof_C 	C 	0.16759	0.32417	0.06788	0.121
Mof_C 	C 	0.18366	0.3097	0.03261	0.012
Mof_C 	C 	0.21335	0.28092	0.03368	-0.06
Mof_H 	H 	0.2241	0.2712	0.0101	0.053
Mof_C 	C 	0.22698	0.26661	0.07003	-0.042
Mof_H 	H 	0.2469	0.2474	0.0708	0.056
Mof_O 	O 	0.1947	0.2856	0.1775	-0.559
Mof_C 	C 	0.2102	0.2696	0.1519	0.286
Mof_O 	O 	0.2497	0.2483	0.1483	-0.444
Mof_C 	C 	0.0567	0.4495	0.9987	0.482
Mof_O 	O 	0.0453	0.4606	0.9668	-0.509
Mof_O 	O 	0.0399	0.4574	0.0313	-0.514
Mof_O 	O 	0.1322	0.3512	0.065	-0.215
Mof_C 	C 	0.2291	0.2743	0.8409	0.422
Mof_O 	O 	0.2488	0.3008	0.8273	-0.519
Mof_O 	O 	0.2137	0.2438	0.8288	-0.519
Mof_N 	N 	0.1715	0.3279	0.9938	-0.129
Mof_Zn	Zn	0.22808	0.80312	0.72677	1.218
Mof_C 	C 	0.30833	0.81462	0.5398	0.151
Mof_C 	C 	0.27786	0.83125	0.5623	-0.166
Mof_H 	H 	0.2637	0.8529	0.5525	0.095
Mof_C 	C 	0.26858	0.8155	0.59941	0.05
Mof_H 	H 	0.2482	0.8266	0.6145	0.035
Mof_C 	C 	0.2898	0.7831	0.61402	-0.104
Mof_C 	C 	0.3202	0.76648	0.59153	0.067
Mof_H 	H 	0.3344	0.7448	0.6013	0.021
Mof_C 	C 	0.32952	0.78223	0.55441	-0.171
Mof_H 	H 	0.3499	0.7711	0.5394	0.1
Mof_C 	C 	0.41592	0.91817	0.5012	-0.134
Mof_C 	C 	0.39869	0.90677	0.5371	0.049
Mof_H 	H 	0.4028	0.9219	0.5598	0.03
Mof_C 	C 	0.37525	0.87272	0.53883	-0.105
Mof_H 	H 	0.3637	0.8651	0.5628	0.077
Mof_C 	C 	0.36904	0.85009	0.50477	0.04
Mof_C 	C 	0.38627	0.86149	0.46893	0.111
Mof_C 	C 	0.40971	0.89553	0.4671	-0.04
Mof_H 	H 	0.4212	0.9032	0.4432	0.072
Mof_C 	C 	0.2891	0.78109	0.3947	0.006
Mof_C 	C 	0.3188	0.80987	0.39578	-0.131
Mof_H 	H 	0.3295	0.8196	0.3722	0.108
Mof_C 	C 	0.33241	0.82417	0.43212	0.121
Mof_C 	C 	0.31634	0.8097	0.46739	0.024
Mof_C 	C 	0.28665	0.78092	0.46632	-0.064
Mof_H 	H 	0.2759	0.7712	0.4899	0.059
Mof_C 	C 	0.27302	0.76661	0.42997	-0.037
Mof_H 	H 	0.2531	0.7474	0.4292	0.057
Mof_O 	O 	0.3053	0.7856	0.3225	-0.558
Mof_C 	C 	0.2898	0.7696	0.3481	0.287
Mof_O 	O 	0.2503	0.7483	0.3517	-0.443
Mof_C 	C 	0.4433	0.9495	0.5013	0.465
Mof_O 	O 	0.4547	0.9606	0.5332	-0.499
Mof_O 	O 	0.4601	0.9574	0.4687	-0.493
Mof_O 	O 	0.3678	0.8512	0.435	-0.214
Mof_C 	C 	0.2709	0.7743	0.6591	0.421
Mof_O 	O 	0.2512	0.8008	0.6727	-0.519
Mof_O 	O 	0.2863	0.7438	0.6712	-0.519
Mof_N 	N 	0.3285	0.8279	0.5062	-0.133
Mof_Zn	Zn	0.72808	0.30312	0.22677	1.218
Mof_C 	C 	0.80833	0.31462	0.0398	0.147
Mof_C 	C 	0.77786	0.33125	0.0623	-0.165
Mof_H 	H 	0.7637	0.3529	0.0525	0.091
Mof_C 	C 	0.76858	0.3155	0.09941	0.048
Mof_H 	H 	0.7482	0.3266	0.1145	0.035
Mof_C 	C 	0.7898	0.2831	0.11402	-0.104
Mof_C 	C 	0.8202	0.26648	0.09153	0.065
Mof_H 	H 	0.8344	0.2448	0.1013	0.021
Mof_C 	C 	0.82952	0.28223	0.05441	-0.17
Mof_H 	H 	0.8499	0.2711	0.0394	0.097
Mof_C 	C 	0.91592	0.41817	0.0012	-0.144
Mof_C 	C 	0.89869	0.40677	0.0371	0.048
Mof_H 	H 	0.9028	0.4219	0.0598	0.029
Mof_C 	C 	0.87525	0.37272	0.03883	-0.102
Mof_H 	H 	0.8637	0.3651	0.0628	0.076
Mof_C 	C 	0.86904	0.35009	0.00477	0.026
Mof_C 	C 	0.88627	0.36149	0.96893	0.124
Mof_C 	C 	0.90971	0.39553	0.9671	-0.027
Mof_H 	H 	0.9212	0.4032	0.9432	0.07
Mof_C 	C 	0.7891	0.28109	0.8947	0.004
Mof_C 	C 	0.8188	0.30987	0.89578	-0.128
Mof_H 	H 	0.8295	0.3196	0.8722	0.108
Mof_C 	C 	0.83241	0.32417	0.93212	0.12
Mof_C 	C 	0.81634	0.3097	0.96739	0.036
Mof_C 	C 	0.78665	0.28092	0.96632	-0.069
Mof_H 	H 	0.7759	0.2712	0.9899	0.066
Mof_C 	C 	0.77302	0.26661	0.92997	-0.032
Mof_H 	H 	0.7531	0.2474	0.9292	0.057
Mof_O 	O 	0.8053	0.2856	0.8225	-0.557
Mof_C 	C 	0.7898	0.2696	0.8481	0.288
Mof_O 	O 	0.7503	0.2483	0.8517	-0.442
Mof_C 	C 	0.9433	0.4495	0.0013	0.451
Mof_O 	O 	0.9547	0.4606	0.0332	-0.497
Mof_O 	O 	0.9601	0.4574	0.9687	-0.481
Mof_O 	O 	0.8678	0.3512	0.935	-0.214
Mof_C 	C 	0.7709	0.2743	0.1591	0.421
Mof_O 	O 	0.7512	0.3008	0.1727	-0.519
Mof_O 	O 	0.7863	0.2438	0.1712	-0.519
Mof_N 	N 	0.8285	0.3279	0.0062	-0.138
Mof_Zn	Zn	0.72341	0.72341	0.27659	1.224
Mof_O 	O 	0.75533	0.75533	0.24467	-0.977
Mof_Zn	Zn	0.22341	0.22341	0.77659	1.224
Mof_O 	O 	0.25533	0.25533	0.74467	-0.977
Mof_Zn	Zn	0.27659	0.27659	0.27659	1.224
Mof_O 	O 	0.24467	0.24467	0.24467	-0.978
Mof_Zn	Zn	0.77659	0.77659	0.77659	1.225
Mof_O 	O 	0.74467	0.74467	0.74467	-0.977
Mof_Zn	Zn	0.27659	0.72341	0.72341	1.224
Mof_O 	O 	0.24467	0.75533	0.75533	-0.977
Mof_Zn	Zn	0.77659	0.22341	0.22341	1.224
Mof_O 	O 	0.74467	0.25533	0.25533	-0.977
Mof_Zn	Zn	0.72341	0.27659	0.72341	1.224
Mof_O 	O 	0.75533	0.24467	0.75533	-0.977
Mof_Zn	Zn	0.22341	0.77659	0.22341	1.224
Mof_O 	O 	0.25533	0.74467	0.25533	-0.977
Mof_Zn	Zn	0.54384	0.5	-0	1.199
Mof_Zn	Zn	0.04384	5.32438e-33	0.5	1.198
Mof_Zn	Zn	0.45616	0.5	-0	1.199
Mof_Zn	Zn	0.95616	5.32438e-33	0.5	1.2
Mof_Zn	Zn	1.8747e-33	0.54384	0.5	1.199
Mof_Zn	Zn	0.5	0.04384	-0	1.198
Mof_Zn	Zn	1.25235e-32	0.45616	0.5	1.199
Mof_Zn	Zn	0.5	0.95616	-0	1.2
Mof_Zn	Zn	0.5	5.32438e-33	0.54384	1.199
Mof_Zn	Zn	1.49547e-33	0.5	0.04384	1.198
Mof_Zn	Zn	0.5	5.32438e-33	0.45616	1.199
Mof_Zn	Zn	1.42338e-32	0.5	0.95616	1.2
_end
