data_functionalizedCrystal
_audit_creation_method	'EQeq! by Chris Wilmer'
_symmetry_space_group_name_H-M	'P1'
_symmetry_Int_Tables_number	1
_symmetry_cell_setting	triclinic
loop_
_symmetry_equiv_pos_as_xyz
  x,y,z
_cell_length_a	27.294
_cell_length_b	27.294
_cell_length_c	6.9565
_cell_angle_alpha	90
_cell_angle_beta	90
_cell_angle_gamma	120
loop_
_atom_site_label
_atom_site_type_symbol
_atom_site_fract_x
_atom_site_fract_y
_atom_site_fract_z
_atom_site_charge
Mof_Er	Er	0.74726	0.3417	0.11645	2.071
Mof_O 	O 	0.78788	0.3984	0.8414	-0.614
Mof_O 	O 	0.84571	0.39787	0.1785	-0.528
Mof_O 	O 	0.9386	0.4494	0.1673	-0.458
Mof_O 	O 	0.75692	0.34114	0.4457	-1.017
Mof_H 	H 	0.7883	0.3458	0.4793	0.372
Mof_N 	N 	0.84315	0.4587	0.6147	-0.302
Mof_N 	N 	0.9385	0.4874	0.8227	-0.169
Mof_C 	C 	0.8378	0.4342	0.7897	0.296
Mof_C 	C 	0.888	0.4507	0.8969	-0.2
Mof_C 	C 	0.942	0.5095	0.65	-0.067
Mof_H 	H 	0.9771	0.5348	0.5983	0.035
Mof_C 	C 	0.8934	0.4947	0.547	0.094
Mof_H 	H 	0.8963	0.5107	0.4266	-0.028
Mof_C 	C 	0.8896	0.4305	0.0954	0.403
Mof_Er	Er	0.41393	0.67504	0.44978	2.119
Mof_O 	O 	0.45455	0.73173	0.17473	-0.637
Mof_O 	O 	0.51238	0.7312	0.51183	-0.533
Mof_O 	O 	0.60527	0.78273	0.50063	-0.448
Mof_O 	O 	0.42359	0.67447	0.77903	-1.025
Mof_H 	H 	0.45497	0.67913	0.81263	0.379
Mof_N 	N 	0.50982	0.79203	0.94803	-0.292
Mof_N 	N 	0.60517	0.82073	0.15603	-0.177
Mof_C 	C 	0.50447	0.76753	0.12303	0.29
Mof_C 	C 	0.55467	0.78403	0.23023	-0.233
Mof_C 	C 	0.60867	0.84283	0.98333	-0.041
Mof_H 	H 	0.64377	0.86813	0.93163	0.039
Mof_C 	C 	0.56007	0.82803	0.88033	0.088
Mof_H 	H 	0.56297	0.84403	0.75993	-0.022
Mof_C 	C 	0.55627	0.76383	0.42873	0.438
Mof_Er	Er	0.0806	0.00837	0.78312	2.179
Mof_O 	O 	0.12121	0.06507	0.50807	-0.637
Mof_O 	O 	0.17904	0.06454	0.84517	-0.528
Mof_O 	O 	0.27193	0.11607	0.83397	-0.437
Mof_O 	O 	0.09025	0.00781	0.11237	-1.026
Mof_H 	H 	0.12163	0.01247	0.14597	0.377
Mof_N 	N 	0.17648	0.12537	0.28137	-0.305
Mof_N 	N 	0.27183	0.15407	0.48937	-0.162
Mof_C 	C 	0.17113	0.10087	0.45637	0.31
Mof_C 	C 	0.22133	0.11737	0.56357	-0.234
Mof_C 	C 	0.27533	0.17617	0.31667	-0.069
Mof_H 	H 	0.31043	0.20147	0.26497	0.042
Mof_C 	C 	0.22673	0.16137	0.21367	0.096
Mof_H 	H 	0.22963	0.17737	0.09327	-0.031
Mof_C 	C 	0.22293	0.09717	0.76207	0.443
Mof_Er	Er	0.6583	0.40556	0.11645	2.072
Mof_O 	O 	0.6016	0.38948	0.8414	-0.612
Mof_O 	O 	0.60213	0.44784	0.1785	-0.526
Mof_O 	O 	0.5506	0.4892	0.1673	-0.445
Mof_O 	O 	0.65886	0.41578	0.4457	-1.016
Mof_H 	H 	0.6542	0.4425	0.4793	0.374
Mof_N 	N 	0.5413	0.38445	0.6147	-0.3
Mof_N 	N 	0.5126	0.4511	0.8227	-0.162
Mof_C 	C 	0.5658	0.4036	0.7897	0.297
Mof_C 	C 	0.5493	0.4373	0.8969	-0.196
Mof_C 	C 	0.4905	0.4325	0.65	-0.065
Mof_H 	H 	0.4652	0.4423	0.5983	0.045
Mof_C 	C 	0.5053	0.3987	0.547	0.097
Mof_H 	H 	0.4893	0.3856	0.4266	-0.026
Mof_C 	C 	0.5695	0.4591	0.0954	0.403
Mof_Er	Er	0.32496	0.73889	0.44978	2.119
Mof_O 	O 	0.26827	0.72281	0.17473	-0.637
Mof_O 	O 	0.2688	0.78117	0.51183	-0.533
Mof_O 	O 	0.21727	0.82253	0.50063	-0.449
Mof_O 	O 	0.32553	0.74911	0.77903	-1.025
Mof_H 	H 	0.32087	0.77583	0.81263	0.379
Mof_N 	N 	0.20797	0.71778	0.94803	-0.292
Mof_N 	N 	0.17927	0.78443	0.15603	-0.177
Mof_C 	C 	0.23247	0.73693	0.12303	0.29
Mof_C 	C 	0.21597	0.77063	0.23023	-0.232
Mof_C 	C 	0.15717	0.76583	0.98333	-0.039
Mof_H 	H 	0.13187	0.77563	0.93163	0.043
Mof_C 	C 	0.17197	0.73203	0.88033	0.089
Mof_H 	H 	0.15597	0.71893	0.75993	-0.018
Mof_C 	C 	0.23617	0.79243	0.42873	0.438
Mof_Er	Er	0.99163	0.07223	0.78312	2.083
Mof_O 	O 	0.93493	0.05615	0.50807	-0.624
Mof_O 	O 	0.93546	0.11451	0.84517	-0.524
Mof_O 	O 	0.88393	0.15587	0.83397	-0.441
Mof_O 	O 	0.99219	0.08245	0.11237	-1.023
Mof_H 	H 	0.98753	0.10917	0.14597	0.366
Mof_N 	N 	0.87463	0.05112	0.28137	-0.293
Mof_N 	N 	0.84593	0.11777	0.48937	-0.163
Mof_C 	C 	0.89913	0.07027	0.45637	0.308
Mof_C 	C 	0.88263	0.10397	0.56357	-0.233
Mof_C 	C 	0.82383	0.09917	0.31667	-0.066
Mof_H 	H 	0.79853	0.10897	0.26497	0.042
Mof_C 	C 	0.83863	0.06537	0.21367	0.094
Mof_H 	H 	0.82263	0.05227	0.09327	-0.023
Mof_C 	C 	0.90283	0.12577	0.76207	0.437
Mof_Er	Er	0.59444	0.25274	0.11645	2.073
Mof_O 	O 	0.61052	0.21212	0.8414	-0.612
Mof_O 	O 	0.55216	0.15429	0.1785	-0.524
Mof_O 	O 	0.5108	0.0614	0.1673	-0.437
Mof_O 	O 	0.58422	0.24308	0.4457	-1.017
Mof_H 	H 	0.5575	0.2117	0.4793	0.374
Mof_N 	N 	0.61555	0.15685	0.6147	-0.3
Mof_N 	N 	0.5489	0.0615	0.8227	-0.159
Mof_C 	C 	0.5964	0.1622	0.7897	0.298
Mof_C 	C 	0.5627	0.112	0.8969	-0.194
Mof_C 	C 	0.5675	0.058	0.65	-0.063
Mof_H 	H 	0.5577	0.0229	0.5983	0.052
Mof_C 	C 	0.6013	0.1066	0.547	0.098
Mof_H 	H 	0.6144	0.1037	0.4266	-0.024
Mof_C 	C 	0.5409	0.1104	0.0954	0.402
Mof_Er	Er	0.26111	0.58607	0.44978	2.12
Mof_O 	O 	0.27719	0.54545	0.17473	-0.637
Mof_O 	O 	0.21883	0.48762	0.51183	-0.532
Mof_O 	O 	0.17747	0.39473	0.50063	-0.446
Mof_O 	O 	0.25089	0.57641	0.77903	-1.025
Mof_H 	H 	0.22417	0.54503	0.81263	0.379
Mof_N 	N 	0.28222	0.49018	0.94803	-0.292
Mof_N 	N 	0.21557	0.39483	0.15603	-0.177
Mof_C 	C 	0.26307	0.49553	0.12303	0.29
Mof_C 	C 	0.22937	0.44533	0.23023	-0.232
Mof_C 	C 	0.23417	0.39133	0.98333	-0.04
Mof_H 	H 	0.22437	0.35623	0.93163	0.041
Mof_C 	C 	0.26797	0.43993	0.88033	0.089
Mof_H 	H 	0.28107	0.43703	0.75993	-0.02
Mof_C 	C 	0.20757	0.44373	0.42873	0.438
Mof_Er	Er	0.92777	0.9194	0.78312	2.075
Mof_O 	O 	0.94385	0.87879	0.50807	-0.641
Mof_O 	O 	0.88549	0.82096	0.84517	-0.524
Mof_O 	O 	0.84413	0.72807	0.83397	-0.439
Mof_O 	O 	0.91755	0.90975	0.11237	-1.026
Mof_H 	H 	0.89083	0.87837	0.14597	0.372
Mof_N 	N 	0.94888	0.82352	0.28137	-0.309
Mof_N 	N 	0.88223	0.72817	0.48937	-0.163
Mof_C 	C 	0.92973	0.82887	0.45637	0.306
Mof_C 	C 	0.89603	0.77867	0.56357	-0.235
Mof_C 	C 	0.90083	0.72467	0.31667	-0.071
Mof_H 	H 	0.89103	0.68957	0.26497	0.04
Mof_C 	C 	0.93463	0.77327	0.21367	0.094
Mof_H 	H 	0.94773	0.77037	0.09327	-0.035
Mof_C 	C 	0.87423	0.77707	0.76207	0.437
Mof_Er	Er	0.25274	0.6583	0.88355	2.143
Mof_O 	O 	0.21212	0.6016	0.1586	-0.645
Mof_O 	O 	0.15429	0.60213	0.8215	-0.537
Mof_O 	O 	0.0614	0.5506	0.8327	-0.437
Mof_O 	O 	0.24308	0.65886	0.5543	-1.024
Mof_H 	H 	0.2117	0.6542	0.5207	0.375
Mof_N 	N 	0.15685	0.5413	0.3853	-0.304
Mof_N 	N 	0.0615	0.5126	0.1773	-0.159
Mof_C 	C 	0.1622	0.5658	0.2103	0.314
Mof_C 	C 	0.112	0.5493	0.1031	-0.257
Mof_C 	C 	0.058	0.4905	0.35	-0.069
Mof_H 	H 	0.0229	0.4652	0.4017	0.053
Mof_C 	C 	0.1066	0.5053	0.453	0.099
Mof_H 	H 	0.1037	0.4893	0.5734	-0.021
Mof_C 	C 	0.1104	0.5695	0.9046	0.464
Mof_Er	Er	0.9194	0.99163	0.21688	2.018
Mof_O 	O 	0.87879	0.93493	0.49193	-0.63
Mof_O 	O 	0.82096	0.93546	0.15483	-0.534
Mof_O 	O 	0.72807	0.88393	0.16603	-0.458
Mof_O 	O 	0.90975	0.99219	0.88763	-1.009
Mof_H 	H 	0.87837	0.98753	0.85403	0.372
Mof_N 	N 	0.82352	0.87463	0.71863	-0.298
Mof_N 	N 	0.72817	0.84593	0.51063	-0.164
Mof_C 	C 	0.82887	0.89913	0.54363	0.306
Mof_C 	C 	0.77867	0.88263	0.43643	-0.235
Mof_C 	C 	0.72467	0.82383	0.68333	-0.066
Mof_H 	H 	0.68957	0.79853	0.73503	0.047
Mof_C 	C 	0.77327	0.83863	0.78633	0.096
Mof_H 	H 	0.77037	0.82263	0.90673	-0.016
Mof_C 	C 	0.77707	0.90283	0.23793	0.437
Mof_Er	Er	0.58607	0.32496	0.55022	2.12
Mof_O 	O 	0.54545	0.26827	0.82527	-0.628
Mof_O 	O 	0.48762	0.2688	0.48817	-0.535
Mof_O 	O 	0.39473	0.21727	0.49937	-0.45
Mof_O 	O 	0.57641	0.32553	0.22097	-1.013
Mof_H 	H 	0.54503	0.32087	0.18737	0.365
Mof_N 	N 	0.49018	0.20797	0.05197	-0.323
Mof_N 	N 	0.39483	0.17927	0.84397	-0.14
Mof_C 	C 	0.49553	0.23247	0.87697	0.342
Mof_C 	C 	0.44533	0.21597	0.76977	-0.24
Mof_C 	C 	0.39133	0.15717	0.01667	-0.111
Mof_H 	H 	0.35623	0.13187	0.06837	0.055
Mof_C 	C 	0.43993	0.17197	0.11967	0.111
Mof_H 	H 	0.43703	0.15597	0.24007	-0.028
Mof_C 	C 	0.44373	0.23617	0.57127	0.445
Mof_Er	Er	0.3417	0.59444	0.88355	2.142
Mof_O 	O 	0.3984	0.61052	0.1586	-0.645
Mof_O 	O 	0.39787	0.55216	0.8215	-0.538
Mof_O 	O 	0.4494	0.5108	0.8327	-0.445
Mof_O 	O 	0.34114	0.58422	0.5543	-1.024
Mof_H 	H 	0.3458	0.5575	0.5207	0.375
Mof_N 	N 	0.4587	0.61555	0.3853	-0.304
Mof_N 	N 	0.4874	0.5489	0.1773	-0.162
Mof_C 	C 	0.4342	0.5964	0.2103	0.314
Mof_C 	C 	0.4507	0.5627	0.1031	-0.258
Mof_C 	C 	0.5095	0.5675	0.35	-0.07
Mof_H 	H 	0.5348	0.5577	0.4017	0.045
Mof_C 	C 	0.4947	0.6013	0.453	0.097
Mof_H 	H 	0.5107	0.6144	0.5734	-0.022
Mof_C 	C 	0.4305	0.5409	0.9046	0.464
Mof_Er	Er	0.00837	0.92777	0.21688	2.098
Mof_O 	O 	0.06507	0.94385	0.49193	-0.643
Mof_O 	O 	0.06454	0.88549	0.15483	-0.537
Mof_O 	O 	0.11607	0.84413	0.16603	-0.454
Mof_O 	O 	0.00781	0.91755	0.88763	-1.014
Mof_H 	H 	0.01247	0.89083	0.85403	0.383
Mof_N 	N 	0.12537	0.94888	0.71863	-0.311
Mof_N 	N 	0.15407	0.88223	0.51063	-0.163
Mof_C 	C 	0.10087	0.92973	0.54363	0.307
Mof_C 	C 	0.11737	0.89603	0.43643	-0.236
Mof_C 	C 	0.17617	0.90083	0.68333	-0.069
Mof_H 	H 	0.20147	0.89103	0.73503	0.046
Mof_C 	C 	0.16137	0.93463	0.78633	0.099
Mof_H 	H 	0.17737	0.94773	0.90673	-0.024
Mof_C 	C 	0.09717	0.87423	0.23793	0.441
Mof_Er	Er	0.67504	0.26111	0.55022	2.12
Mof_O 	O 	0.73173	0.27719	0.82527	-0.628
Mof_O 	O 	0.7312	0.21883	0.48817	-0.535
Mof_O 	O 	0.78273	0.17747	0.49937	-0.449
Mof_O 	O 	0.67447	0.25089	0.22097	-1.014
Mof_H 	H 	0.67913	0.22417	0.18737	0.366
Mof_N 	N 	0.79203	0.28222	0.05197	-0.323
Mof_N 	N 	0.82073	0.21557	0.84397	-0.142
Mof_C 	C 	0.76753	0.26307	0.87697	0.341
Mof_C 	C 	0.78403	0.22937	0.76977	-0.241
Mof_C 	C 	0.84283	0.23417	0.01667	-0.112
Mof_H 	H 	0.86813	0.22437	0.06837	0.05
Mof_C 	C 	0.82803	0.26797	0.11967	0.11
Mof_H 	H 	0.84403	0.28107	0.24007	-0.031
Mof_C 	C 	0.76383	0.20757	0.57127	0.445
Mof_Er	Er	0.40556	0.74726	0.88355	2.141
Mof_O 	O 	0.38948	0.78788	0.1586	-0.646
Mof_O 	O 	0.44784	0.84571	0.8215	-0.54
Mof_O 	O 	0.4892	0.9386	0.8327	-0.457
Mof_O 	O 	0.41578	0.75692	0.5543	-1.023
Mof_H 	H 	0.4425	0.7883	0.5207	0.374
Mof_N 	N 	0.38445	0.84315	0.3853	-0.304
Mof_N 	N 	0.4511	0.9385	0.1773	-0.168
Mof_C 	C 	0.4036	0.8378	0.2103	0.314
Mof_C 	C 	0.4373	0.888	0.1031	-0.262
Mof_C 	C 	0.4325	0.942	0.35	-0.071
Mof_H 	H 	0.4423	0.9771	0.4017	0.037
Mof_C 	C 	0.3987	0.8934	0.453	0.095
Mof_H 	H 	0.3856	0.8963	0.5734	-0.024
Mof_C 	C 	0.4591	0.8896	0.9046	0.466
Mof_Er	Er	0.07223	0.0806	0.21688	2.119
Mof_O 	O 	0.05615	0.12121	0.49193	-0.625
Mof_O 	O 	0.11451	0.17904	0.15483	-0.538
Mof_O 	O 	0.15587	0.27193	0.16603	-0.456
Mof_O 	O 	0.08245	0.09025	0.88763	-1.01
Mof_H 	H 	0.10917	0.12163	0.85403	0.376
Mof_N 	N 	0.05112	0.17648	0.71863	-0.293
Mof_N 	N 	0.11777	0.27183	0.51063	-0.162
Mof_C 	C 	0.07027	0.17113	0.54363	0.31
Mof_C 	C 	0.10397	0.22133	0.43643	-0.234
Mof_C 	C 	0.09917	0.27533	0.68333	-0.063
Mof_H 	H 	0.10897	0.31043	0.73503	0.048
Mof_C 	C 	0.06537	0.22673	0.78633	0.099
Mof_H 	H 	0.05227	0.22963	0.90673	-0.011
Mof_C 	C 	0.12577	0.22293	0.23793	0.442
Mof_Er	Er	0.73889	0.41393	0.55022	2.119
Mof_O 	O 	0.72281	0.45455	0.82527	-0.628
Mof_O 	O 	0.78117	0.51238	0.48817	-0.536
Mof_O 	O 	0.82253	0.60527	0.49937	-0.451
Mof_O 	O 	0.74911	0.42359	0.22097	-1.013
Mof_H 	H 	0.77583	0.45497	0.18737	0.365
Mof_N 	N 	0.71778	0.50982	0.05197	-0.323
Mof_N 	N 	0.78443	0.60517	0.84397	-0.141
Mof_C 	C 	0.73693	0.50447	0.87697	0.341
Mof_C 	C 	0.77063	0.55467	0.76977	-0.241
Mof_C 	C 	0.76583	0.60867	0.01667	-0.112
Mof_H 	H 	0.77563	0.64377	0.06837	0.053
Mof_C 	C 	0.73203	0.56007	0.11967	0.111
Mof_H 	H 	0.71893	0.56297	0.24007	-0.029
Mof_C 	C 	0.79243	0.55627	0.57127	0.445
Mof_Cu	Cu	-0	0.5	-0	0.886
Mof_Cu	Cu	0.66667	0.83333	0.33333	0.884
Mof_Cu	Cu	0.33333	0.16667	0.66667	0.889
Mof_Cu	Cu	0.5	0.5	-0	0.875
Mof_Cu	Cu	0.16667	0.83333	0.33333	0.885
Mof_Cu	Cu	0.83333	0.16667	0.66667	0.888
Mof_Cu	Cu	0.5	0	-0	0.886
Mof_Cu	Cu	0.16667	0.33333	0.33333	0.886
Mof_Cu	Cu	0.83333	0.66667	0.66667	0.888
Mof_O 	O 	0.66667	0.33333	0.33333	-0.669
Mof_O 	O 	0.33333	0.66667	0.66667	-0.681
Mof_O 	O 	-0	0	-0	-0.658
Mof_O 	O 	0.66667	0.33333	0.0159	-1.108
Mof_H 	H 	0.66667	0.33333	0.8937	0.269
Mof_O 	O 	0.33333	0.66667	0.34923	-1.073
Mof_H 	H 	0.33333	0.66667	0.22703	0.226
Mof_O 	O 	1.40616e-33	0	0.68257	-1.04
Mof_H 	H 	2.81232e-33	-2.81232e-33	0.56037	0.223
Mof_O 	O 	0.33333	0.66667	0.9841	-1.053
Mof_H 	H 	0.33333	0.66667	0.1063	0.199
Mof_O 	O 	1.40616e-33	0	0.31743	-1.03
Mof_H 	H 	1.40616e-33	0	0.43963	0.218
Mof_O 	O 	0.66667	0.33333	0.65077	-1.055
Mof_H 	H 	0.66667	0.33333	0.77297	0.2
_end
