data_functionalizedCrystal
_audit_creation_method	'EQeq! by Chris Wilmer'
_symmetry_space_group_name_H-M	'P1'
_symmetry_Int_Tables_number	1
_symmetry_cell_setting	triclinic
loop_
_symmetry_equiv_pos_as_xyz
  x,y,z
_cell_length_a	11.7436
_cell_length_b	11.7436
_cell_length_c	20.979
_cell_angle_alpha	97.3327
_cell_angle_beta	97.3327
_cell_angle_gamma	100.333
loop_
_atom_site_label
_atom_site_type_symbol
_atom_site_fract_x
_atom_site_fract_y
_atom_site_fract_z
_atom_site_charge
Mof_Mg	Mg	0.04988	0.54042	0.30768	1.456
Mof_Mg	Mg	0.45958	0.95012	0.19232	1.456
Mof_Mg	Mg	0.95012	0.45958	0.69232	1.456
Mof_Mg	Mg	0.54042	0.04988	0.80768	1.456
Mof_Mg	Mg	0.24815	0.75185	0.25	1.477
Mof_Mg	Mg	0.75185	0.24815	0.75	1.477
Mof_H 	H 	0.1244	0.023	0.361	0.025
Mof_H 	H 	0.0797	0.1665	0.4337	0.045
Mof_H 	H 	0.9995	0.7761	0.4633	0.03
Mof_H 	H 	0.5018	0.7308	0.4143	0.035
Mof_H 	H 	0.6354	0.706	0.4993	0.056
Mof_H 	H 	0.3042	0.4148	0.4178	0.039
Mof_H 	H 	0.0339	0.3107	0.11	0.033
Mof_H 	H 	0.9899	0.2717	0.9984	0.066
Mof_H 	H 	0.0539	0.6569	0.1087	0.053
Mof_H 	H 	0.977	0.8756	0.139	0.026
Mof_H 	H 	0.8335	0.9203	0.0663	0.046
Mof_H 	H 	0.2239	0.0005	0.0367	0.031
Mof_H 	H 	0.2692	0.4982	0.0857	0.036
Mof_H 	H 	0.294	0.3646	0.0007	0.056
Mof_H 	H 	0.5852	0.6958	0.0822	0.039
Mof_H 	H 	0.6893	0.9661	0.39	0.032
Mof_H 	H 	0.7283	0.0101	0.5016	0.066
Mof_H 	H 	0.3431	0.9461	0.3913	0.053
Mof_H 	H 	0.8756	0.977	0.639	0.026
Mof_H 	H 	0.9203	0.8335	0.5663	0.046
Mof_H 	H 	0.0005	0.2239	0.5367	0.031
Mof_H 	H 	0.4982	0.2692	0.5857	0.036
Mof_H 	H 	0.3646	0.294	0.5007	0.056
Mof_H 	H 	0.6958	0.5852	0.5822	0.039
Mof_H 	H 	0.9661	0.6893	0.89	0.033
Mof_H 	H 	0.0101	0.7283	0.0016	0.066
Mof_H 	H 	0.9461	0.3431	0.8913	0.053
Mof_H 	H 	0.023	0.1244	0.861	0.026
Mof_H 	H 	0.1665	0.0797	0.9337	0.046
Mof_H 	H 	0.7761	0.9995	0.9633	0.031
Mof_H 	H 	0.7308	0.5018	0.9143	0.036
Mof_H 	H 	0.706	0.6354	0.9993	0.056
Mof_H 	H 	0.4148	0.3042	0.9178	0.039
Mof_H 	H 	0.3107	0.0339	0.61	0.032
Mof_H 	H 	0.2717	0.9899	0.4984	0.066
Mof_H 	H 	0.6569	0.0539	0.6087	0.053
Mof_C 	C 	0.1024	0.7952	0.3598	0.423
Mof_C 	C 	0.0688	0.8866	0.4063	-0.125
Mof_C 	C 	0.0902	0.002	0.3976	0.028
Mof_C 	C 	0.0634	0.0872	0.4407	-0.096
Mof_C 	C 	0.0121	0.0589	0.4953	0.012
Mof_C 	C 	0.0167	0.8563	0.4582	-0.016
Mof_C 	C 	0.3019	0.5905	0.3518	0.433
Mof_C 	C 	0.39	0.574	0.4068	-0.117
Mof_C 	C 	0.4889	0.6605	0.4326	0.026
Mof_C 	C 	0.5676	0.6466	0.4835	-0.096
Mof_C 	C 	0.5491	0.5447	0.5127	0.014
Mof_C 	C 	0.3718	0.4736	0.4346	-0.024
Mof_C 	C 	0.0666	0.5092	0.1913	0.355
Mof_C 	C 	0.047	0.4882	0.1192	-0.099
Mof_C 	C 	0.028	0.3734	0.086	0.02
Mof_C 	C 	0.0011	0.3501	0.0199	-0.097
Mof_C 	C 	0.9895	0.4409	0.9831	0.024
Mof_C 	C 	0.0396	0.5792	0.0858	-0.034
Mof_C 	C 	0.2048	0.8976	0.1402	0.423
Mof_C 	C 	0.1134	0.9312	0.0937	-0.124
Mof_C 	C 	0.998	0.9098	0.1024	0.028
Mof_C 	C 	0.9128	0.9366	0.0593	-0.096
Mof_C 	C 	0.9411	0.9879	0.0047	0.011
Mof_C 	C 	0.1437	0.9833	0.0418	-0.016
Mof_C 	C 	0.4095	0.6981	0.1482	0.433
Mof_C 	C 	0.426	0.61	0.0932	-0.117
Mof_C 	C 	0.3395	0.5111	0.0674	0.026
Mof_C 	C 	0.3534	0.4324	0.0165	-0.096
Mof_C 	C 	0.4553	0.4509	0.9873	0.014
Mof_C 	C 	0.5264	0.6282	0.0654	-0.024
Mof_C 	C 	0.4908	0.9334	0.3087	0.355
Mof_C 	C 	0.5118	0.953	0.3808	-0.099
Mof_C 	C 	0.6266	0.972	0.414	0.02
Mof_C 	C 	0.6499	0.9989	0.4801	-0.097
Mof_C 	C 	0.5591	0.0105	0.5169	0.024
Mof_C 	C 	0.4208	0.9604	0.4142	-0.034
Mof_C 	C 	0.8976	0.2048	0.6402	0.423
Mof_C 	C 	0.9312	0.1134	0.5937	-0.125
Mof_C 	C 	0.9098	0.998	0.6024	0.028
Mof_C 	C 	0.9366	0.9128	0.5593	-0.096
Mof_C 	C 	0.9879	0.9411	0.5047	0.012
Mof_C 	C 	0.9833	0.1437	0.5418	-0.016
Mof_C 	C 	0.6981	0.4095	0.6482	0.433
Mof_C 	C 	0.61	0.426	0.5932	-0.117
Mof_C 	C 	0.5111	0.3395	0.5674	0.026
Mof_C 	C 	0.4324	0.3534	0.5165	-0.096
Mof_C 	C 	0.4509	0.4553	0.4873	0.014
Mof_C 	C 	0.6282	0.5264	0.5654	-0.024
Mof_C 	C 	0.9334	0.4908	0.8087	0.355
Mof_C 	C 	0.953	0.5118	0.8808	-0.099
Mof_C 	C 	0.972	0.6266	0.914	0.02
Mof_C 	C 	0.9989	0.6499	0.9801	-0.097
Mof_C 	C 	0.0105	0.5591	0.0169	0.024
Mof_C 	C 	0.9604	0.4208	0.9142	-0.034
Mof_C 	C 	0.7952	0.1024	0.8598	0.423
Mof_C 	C 	0.8866	0.0688	0.9063	-0.124
Mof_C 	C 	0.002	0.0902	0.8976	0.028
Mof_C 	C 	0.0872	0.0634	0.9407	-0.096
Mof_C 	C 	0.0589	0.0121	0.9953	0.011
Mof_C 	C 	0.8563	0.0167	0.9582	-0.016
Mof_C 	C 	0.5905	0.3019	0.8518	0.433
Mof_C 	C 	0.574	0.39	0.9068	-0.117
Mof_C 	C 	0.6605	0.4889	0.9326	0.026
Mof_C 	C 	0.6466	0.5676	0.9835	-0.096
Mof_C 	C 	0.5447	0.5491	0.0127	0.014
Mof_C 	C 	0.4736	0.3718	0.9346	-0.024
Mof_C 	C 	0.5092	0.0666	0.6913	0.355
Mof_C 	C 	0.4882	0.047	0.6192	-0.099
Mof_C 	C 	0.3734	0.028	0.586	0.02
Mof_C 	C 	0.3501	0.0011	0.5199	-0.097
Mof_C 	C 	0.4409	0.9895	0.4831	0.024
Mof_C 	C 	0.5792	0.0396	0.5858	-0.034
Mof_O 	O 	0.0737	0.6899	0.3692	-0.571
Mof_O 	O 	0.1553	0.8289	0.31544	-0.49
Mof_O 	O 	0.3291	0.6747	0.32234	-0.492
Mof_O 	O 	0.2081	0.5149	0.33983	-0.553
Mof_O 	O 	0.105	0.6114	0.22307	-0.615
Mof_O 	O 	0.0353	0.4233	0.21984	-0.489
Mof_O 	O 	0.3101	0.9263	0.1308	-0.571
Mof_O 	O 	0.1711	0.8447	0.18456	-0.49
Mof_O 	O 	0.3253	0.6709	0.17766	-0.492
Mof_O 	O 	0.4851	0.7919	0.16017	-0.553
Mof_O 	O 	0.3886	0.895	0.27693	-0.615
Mof_O 	O 	0.5767	0.9647	0.28016	-0.489
Mof_O 	O 	0.9263	0.3101	0.6308	-0.571
Mof_O 	O 	0.8447	0.1711	0.68456	-0.49
Mof_O 	O 	0.6709	0.3253	0.67766	-0.492
Mof_O 	O 	0.7919	0.4851	0.66017	-0.553
Mof_O 	O 	0.895	0.3886	0.77693	-0.615
Mof_O 	O 	0.9647	0.5767	0.78016	-0.489
Mof_O 	O 	0.6899	0.0737	0.8692	-0.571
Mof_O 	O 	0.8289	0.1553	0.81544	-0.49
Mof_O 	O 	0.6747	0.3291	0.82234	-0.492
Mof_O 	O 	0.5149	0.2081	0.83983	-0.553
Mof_O 	O 	0.6114	0.105	0.72307	-0.615
Mof_O 	O 	0.4233	0.0353	0.71984	-0.489
_end
