data_functionalizedCrystal
_audit_creation_method	'EQeq! by Chris Wilmer'
_symmetry_space_group_name_H-M	'P1'
_symmetry_Int_Tables_number	1
_symmetry_cell_setting	triclinic
loop_
_symmetry_equiv_pos_as_xyz
  x,y,z
_cell_length_a	10.781
_cell_length_b	13.903
_cell_length_c	18.74
_cell_angle_alpha	90
_cell_angle_beta	98.17
_cell_angle_gamma	90
loop_
_atom_site_label
_atom_site_type_symbol
_atom_site_fract_x
_atom_site_fract_y
_atom_site_fract_z
_atom_site_charge
Mof_Ni	Ni	0.6057	0.73079	0.47625	1.149
Mof_C 	C 	0.99905	0.75702	0.96611	-0.054
Mof_C 	C 	0.10848	0.81053	0.9816	0.039
Mof_H 	H 	0.1041	0.8777	0.9904	0.08
Mof_C 	C 	0.22437	0.76584	0.98423	-0.079
Mof_C 	C 	0.23083	0.66763	0.97138	0.031
Mof_H 	H 	0.31	0.6371	0.9732	0.071
Mof_C 	C 	0.12141	0.61411	0.95588	-0.048
Mof_C 	C 	0.00552	0.65881	0.95325	0.026
Mof_H 	H 	0.9307	0.6222	0.9427	0.082
Mof_C 	C 	0.87461	0.80429	0.97253	0.349
Mof_C 	C 	0.347	0.81841	0.99522	0.401
Mof_C 	C 	0.128	0.50852	0.9422	0.284
Mof_O 	O 	0.77689	0.75848	0.94362	-0.332
Mof_O 	O 	0.87222	0.88267	0.00441	-0.238
Mof_O 	O 	0.3478	0.90793	0.98495	-0.353
Mof_O 	O 	0.44118	0.76547	0.01307	-0.432
Mof_O 	O 	0.24047	0.47191	0.96774	-0.172
Mof_O 	O 	0.04346	0.46096	0.9115	-0.197
Mof_C 	C 	0.52629	0.9816	0.33146	-0.036
Mof_C 	C 	0.52825	0.99224	0.25787	0.071
Mof_H 	H 	0.5672	0.9448	0.2321	0.068
Mof_C 	C 	0.47347	0.07183	0.22234	-0.115
Mof_C 	C 	0.42044	0.14309	0.26037	0.03
Mof_H 	H 	0.3855	0.1989	0.236	0.067
Mof_C 	C 	0.41856	0.13272	0.33398	-0.051
Mof_C 	C 	0.46971	0.0511	0.36957	-0.02
Mof_H 	H 	0.4661	0.0428	0.4196	0.075
Mof_C 	C 	0.59172	0.89932	0.37234	0.309
Mof_C 	C 	0.4692	0.08395	0.141	0.383
Mof_C 	C 	0.36551	0.21399	0.37393	0.307
Mof_O 	O 	0.55485	0.86516	0.42596	-0.326
Mof_O 	O 	0.69276	0.86715	0.34666	-0.192
Mof_O 	O 	0.47995	0.00897	0.10542	-0.41
Mof_O 	O 	0.45855	0.16943	0.11916	-0.409
Mof_O 	O 	0.3657	0.2969	0.34911	-0.213
Mof_O 	O 	0.3252	0.19236	0.43304	-0.316
Mof_O 	O 	0.64038	0.89704	0.03208	-0.33
Mof_Ni	Ni	0.3943	0.23079	0.02375	1.131
Mof_C 	C 	0.00095	0.25702	0.53389	-0.043
Mof_C 	C 	0.89152	0.31053	0.5184	0.019
Mof_H 	H 	0.8959	0.3777	0.5096	0.074
Mof_C 	C 	0.77563	0.26584	0.51577	-0.067
Mof_C 	C 	0.76917	0.16763	0.52862	0.005
Mof_H 	H 	0.69	0.1371	0.5268	0.067
Mof_C 	C 	0.87859	0.11411	0.54412	-0.026
Mof_C 	C 	0.99448	0.15881	0.54675	0.001
Mof_H 	H 	0.0693	0.1222	0.5573	0.08
Mof_C 	C 	0.12539	0.30429	0.52747	0.311
Mof_C 	C 	0.653	0.31841	0.50478	0.359
Mof_C 	C 	0.872	0.00852	0.5578	0.199
Mof_O 	O 	0.22311	0.25848	0.55638	-0.332
Mof_O 	O 	0.12778	0.38267	0.49559	-0.217
Mof_O 	O 	0.6522	0.40793	0.51505	-0.367
Mof_O 	O 	0.55882	0.26547	0.48693	-0.396
Mof_O 	O 	0.75953	0.97191	0.53226	-0.144
Mof_O 	O 	0.95654	0.96096	0.5885	-0.157
Mof_C 	C 	0.47371	0.4816	0.16854	-0.068
Mof_C 	C 	0.47175	0.49224	0.24213	0.029
Mof_H 	H 	0.4328	0.4448	0.2679	0.073
Mof_C 	C 	0.52653	0.57183	0.27766	-0.072
Mof_C 	C 	0.57956	0.64309	0.23963	0.024
Mof_H 	H 	0.6145	0.6989	0.264	0.071
Mof_C 	C 	0.58144	0.63272	0.16602	-0.057
Mof_C 	C 	0.53029	0.5511	0.13043	0.024
Mof_H 	H 	0.5339	0.5428	0.0804	0.063
Mof_C 	C 	0.40828	0.39932	0.12766	0.314
Mof_C 	C 	0.5308	0.58395	0.359	0.373
Mof_C 	C 	0.63449	0.71399	0.12607	0.311
Mof_O 	O 	0.44515	0.36516	0.07404	-0.344
Mof_O 	O 	0.30724	0.36715	0.15334	-0.201
Mof_O 	O 	0.52005	0.50897	0.39458	-0.384
Mof_O 	O 	0.54145	0.66943	0.38084	-0.4
Mof_O 	O 	0.6343	0.7969	0.15089	-0.21
Mof_O 	O 	0.6748	0.69236	0.06696	-0.326
Mof_O 	O 	0.35962	0.39704	0.46792	-0.335
Mof_Ni	Ni	0.3943	0.26921	0.52375	1.148
Mof_C 	C 	0.00095	0.24298	0.03389	-0.05
Mof_C 	C 	0.89152	0.18947	0.0184	0.016
Mof_H 	H 	0.8959	0.1223	0.0096	0.06
Mof_C 	C 	0.77563	0.23416	0.01577	-0.07
Mof_C 	C 	0.76917	0.33237	0.02862	0.015
Mof_H 	H 	0.69	0.3629	0.0268	0.06
Mof_C 	C 	0.87859	0.38589	0.04412	-0.055
Mof_C 	C 	0.99448	0.34119	0.04675	0.019
Mof_H 	H 	0.0693	0.3778	0.0573	0.071
Mof_C 	C 	0.12539	0.19571	0.02747	0.263
Mof_C 	C 	0.653	0.18159	0.00478	0.315
Mof_C 	C 	0.872	0.49148	0.0578	0.281
Mof_O 	O 	0.22311	0.24152	0.05638	-0.331
Mof_O 	O 	0.12778	0.11733	0.99559	-0.178
Mof_O 	O 	0.6522	0.09207	0.01505	-0.376
Mof_O 	O 	0.55882	0.23453	0.98693	-0.35
Mof_O 	O 	0.75953	0.52809	0.03226	-0.196
Mof_O 	O 	0.95654	0.53904	0.0885	-0.213
Mof_C 	C 	0.47371	0.0184	0.66854	-0.09
Mof_C 	C 	0.47175	0.00776	0.74213	-0.007
Mof_H 	H 	0.4328	0.0552	0.7679	0.08
Mof_C 	C 	0.52653	0.92817	0.77766	-0.034
Mof_C 	C 	0.57956	0.85691	0.73963	0.016
Mof_H 	H 	0.6145	0.8011	0.764	0.075
Mof_C 	C 	0.58144	0.86728	0.66602	-0.058
Mof_C 	C 	0.53029	0.9489	0.63043	0.059
Mof_H 	H 	0.5339	0.9572	0.5804	0.066
Mof_C 	C 	0.40828	0.10068	0.62766	0.317
Mof_C 	C 	0.5308	0.91605	0.859	0.362
Mof_C 	C 	0.63449	0.78601	0.62607	0.313
Mof_O 	O 	0.44515	0.13484	0.57404	-0.338
Mof_O 	O 	0.30724	0.13285	0.65334	-0.202
Mof_O 	O 	0.52005	0.99103	0.89458	-0.352
Mof_O 	O 	0.54145	0.83057	0.88084	-0.391
Mof_O 	O 	0.6343	0.7031	0.65089	-0.213
Mof_O 	O 	0.6748	0.80764	0.56696	-0.316
Mof_O 	O 	0.35962	0.10296	0.96792	-0.322
Mof_Ni	Ni	0.6057	0.76921	0.97625	1.161
Mof_C 	C 	0.99905	0.74298	0.46611	-0.045
Mof_C 	C 	0.10848	0.68947	0.4816	0.024
Mof_H 	H 	0.1041	0.6223	0.4904	0.072
Mof_C 	C 	0.22437	0.73416	0.48423	-0.076
Mof_C 	C 	0.23083	0.83237	0.47138	0.033
Mof_H 	H 	0.31	0.8629	0.4732	0.068
Mof_C 	C 	0.12141	0.88589	0.45588	-0.065
Mof_C 	C 	0.00552	0.84119	0.45325	0.018
Mof_H 	H 	0.9307	0.8778	0.4427	0.086
Mof_C 	C 	0.87461	0.69571	0.47253	0.313
Mof_C 	C 	0.347	0.68159	0.49522	0.363
Mof_C 	C 	0.128	0.99148	0.4422	0.355
Mof_O 	O 	0.77689	0.74152	0.44362	-0.331
Mof_O 	O 	0.87222	0.61733	0.50441	-0.216
Mof_O 	O 	0.3478	0.59207	0.48495	-0.368
Mof_O 	O 	0.44118	0.73453	0.51307	-0.396
Mof_O 	O 	0.24047	0.02809	0.46774	-0.222
Mof_O 	O 	0.04346	0.03904	0.4115	-0.25
Mof_C 	C 	0.52629	0.5184	0.83146	-0.058
Mof_C 	C 	0.52825	0.50776	0.75787	0.024
Mof_H 	H 	0.5672	0.5552	0.7321	0.076
Mof_C 	C 	0.47347	0.42817	0.72234	-0.068
Mof_C 	C 	0.42044	0.35691	0.76037	0.02
Mof_H 	H 	0.3855	0.3011	0.736	0.072
Mof_C 	C 	0.41856	0.36728	0.83398	-0.049
Mof_C 	C 	0.46971	0.4489	0.86957	0.018
Mof_H 	H 	0.4661	0.4572	0.9196	0.078
Mof_C 	C 	0.59172	0.60068	0.87234	0.311
Mof_C 	C 	0.4692	0.41605	0.641	0.372
Mof_C 	C 	0.36551	0.28601	0.87393	0.307
Mof_O 	O 	0.55485	0.63484	0.92596	-0.321
Mof_O 	O 	0.69276	0.63285	0.84666	-0.194
Mof_O 	O 	0.47995	0.49103	0.60542	-0.383
Mof_O 	O 	0.45855	0.33057	0.61916	-0.399
Mof_O 	O 	0.3657	0.2031	0.84911	-0.214
Mof_O 	O 	0.3252	0.30764	0.93304	-0.302
Mof_O 	O 	0.64038	0.60296	0.53208	-0.334
Mof_Ni	Ni	0.5	0	-0	1.108
Mof_Ni	Ni	0.5	0.5	0.5	1.137
_end
