data_functionalizedCrystal
_audit_creation_method	'EQeq! by Chris Wilmer'
_symmetry_space_group_name_H-M	'P1'
_symmetry_Int_Tables_number	1
_symmetry_cell_setting	triclinic
loop_
_symmetry_equiv_pos_as_xyz
  x,y,z
_cell_length_a	30.8568
_cell_length_b	30.8568
_cell_length_c	6.4681
_cell_angle_alpha	90
_cell_angle_beta	90
_cell_angle_gamma	90
loop_
_atom_site_label
_atom_site_type_symbol
_atom_site_fract_x
_atom_site_fract_y
_atom_site_fract_z
_atom_site_charge
Mof_Na	Na	0.34048	0.72119	0.81931	2.099
Mof_O 	O 	0.44024	0.8395	0.9739	-0.89
Mof_O 	O 	0.48556	0.80896	0.2293	-0.798
Mof_O 	O 	0.35947	0.8038	0.6669	-1.197
Mof_C 	C 	0.34101	0.81547	0.8303	0.69
Mof_C 	C 	0.33762	0.86311	0.8777	-0.547
Mof_H 	H 	0.3657	0.877	0.8538	0.029
Mof_H 	H 	0.3292	0.867	0.0225	0.031
Mof_H 	H 	0.3158	0.8763	0.7877	0.049
Mof_O 	O 	0.32519	0.78942	0.9599	-1.183
Mof_O 	O 	0.26569	0.70246	0.8485	-1.223
Mof_H 	H 	0.2769	0.624	0.937	0.252
Mof_H 	H 	0.2251	0.624	0.9205	0.259
Mof_H 	H 	0.248	0.624	0.1425	0.248
Mof_Na	Na	0.84048	0.22119	0.31931	2.005
Mof_O 	O 	0.94024	0.3395	0.4739	-0.895
Mof_O 	O 	0.98556	0.30896	0.7293	-0.795
Mof_O 	O 	0.85947	0.3038	0.1669	-1.217
Mof_C 	C 	0.84101	0.31547	0.3303	0.724
Mof_C 	C 	0.83762	0.36311	0.3777	-0.643
Mof_H 	H 	0.8657	0.377	0.3538	0.054
Mof_H 	H 	0.8292	0.367	0.5225	0.07
Mof_H 	H 	0.8158	0.3763	0.2877	0.064
Mof_O 	O 	0.82519	0.28942	0.4599	-1.221
Mof_O 	O 	0.76569	0.20246	0.3485	-1.203
Mof_H 	H 	0.7769	0.124	0.437	0.187
Mof_H 	H 	0.7251	0.124	0.4205	0.19
Mof_H 	H 	0.748	0.124	0.6425	0.197
Mof_Na	Na	0.15952	0.27881	0.31931	2.004
Mof_O 	O 	0.05976	0.1605	0.4739	-0.896
Mof_O 	O 	0.01444	0.19104	0.7293	-0.795
Mof_O 	O 	0.14053	0.1962	0.1669	-1.215
Mof_C 	C 	0.15899	0.18453	0.3303	0.721
Mof_C 	C 	0.16238	0.13689	0.3777	-0.636
Mof_H 	H 	0.1343	0.123	0.3538	0.049
Mof_H 	H 	0.1708	0.133	0.5225	0.066
Mof_H 	H 	0.1842	0.1237	0.2877	0.059
Mof_O 	O 	0.17481	0.21058	0.4599	-1.22
Mof_O 	O 	0.23431	0.29754	0.3485	-1.206
Mof_H 	H 	0.2231	0.376	0.437	0.194
Mof_H 	H 	0.2749	0.376	0.4205	0.197
Mof_H 	H 	0.252	0.376	0.6425	0.204
Mof_Na	Na	0.65952	0.77881	0.81931	2.099
Mof_O 	O 	0.55976	0.6605	0.9739	-0.887
Mof_O 	O 	0.51444	0.69104	0.2293	-0.798
Mof_O 	O 	0.64053	0.6962	0.6669	-1.198
Mof_C 	C 	0.65899	0.68453	0.8303	0.692
Mof_C 	C 	0.66238	0.63689	0.8777	-0.55
Mof_H 	H 	0.6343	0.623	0.8538	0.032
Mof_H 	H 	0.6708	0.633	0.0225	0.033
Mof_H 	H 	0.6842	0.6237	0.7877	0.051
Mof_O 	O 	0.67481	0.71058	0.9599	-1.183
Mof_O 	O 	0.73431	0.79754	0.8485	-1.223
Mof_H 	H 	0.7231	0.876	0.937	0.252
Mof_H 	H 	0.7749	0.876	0.9205	0.259
Mof_H 	H 	0.752	0.876	0.1425	0.248
Mof_Na	Na	0.52881	0.09048	0.06931	2.001
Mof_O 	O 	0.4105	0.19024	0.2239	-0.907
Mof_O 	O 	0.44104	0.23556	0.4793	-0.806
Mof_O 	O 	0.4462	0.10947	0.9169	-1.186
Mof_C 	C 	0.43453	0.09101	0.0803	0.677
Mof_C 	C 	0.38689	0.08762	0.1277	-0.59
Mof_H 	H 	0.373	0.1157	0.1038	0.033
Mof_H 	H 	0.383	0.0792	0.2725	0.053
Mof_H 	H 	0.3737	0.0658	0.0377	0.038
Mof_O 	O 	0.46058	0.07519	0.2099	-1.188
Mof_O 	O 	0.54754	0.01569	0.0985	-1.227
Mof_H 	H 	0.626	0.0269	0.187	0.253
Mof_H 	H 	0.626	0.9751	0.1705	0.272
Mof_H 	H 	0.626	0.998	0.3925	0.282
Mof_Na	Na	0.02881	0.59048	0.56931	2.051
Mof_O 	O 	0.9105	0.69024	0.7239	-0.906
Mof_O 	O 	0.94104	0.73556	0.9793	-0.8
Mof_O 	O 	0.9462	0.60947	0.4169	-1.203
Mof_C 	C 	0.93453	0.59101	0.5803	0.722
Mof_C 	C 	0.88689	0.58762	0.6277	-0.652
Mof_H 	H 	0.873	0.6157	0.6038	0.058
Mof_H 	H 	0.883	0.5792	0.7725	0.081
Mof_H 	H 	0.8737	0.5658	0.5377	0.076
Mof_O 	O 	0.96058	0.57519	0.7099	-1.21
Mof_O 	O 	0.04754	0.51569	0.5985	-1.224
Mof_H 	H 	0.126	0.5269	0.687	0.2
Mof_H 	H 	0.126	0.4751	0.6705	0.205
Mof_H 	H 	0.126	0.498	0.8925	0.211
Mof_Na	Na	0.97119	0.90952	0.56931	2.085
Mof_O 	O 	0.0895	0.80976	0.7239	-0.906
Mof_O 	O 	0.05896	0.76444	0.9793	-0.801
Mof_O 	O 	0.0538	0.89053	0.4169	-1.204
Mof_C 	C 	0.06547	0.90899	0.5803	0.719
Mof_C 	C 	0.11311	0.91238	0.6277	-0.641
Mof_H 	H 	0.127	0.8843	0.6038	0.055
Mof_H 	H 	0.117	0.9208	0.7725	0.079
Mof_H 	H 	0.1263	0.9342	0.5377	0.07
Mof_O 	O 	0.03942	0.92481	0.7099	-1.195
Mof_O 	O 	0.95246	0.98431	0.5985	-1.194
Mof_H 	H 	0.874	0.9731	0.687	0.248
Mof_H 	H 	0.874	0.0249	0.6705	0.238
Mof_H 	H 	0.874	0.002	0.8925	0.242
Mof_Na	Na	0.47119	0.40952	0.06931	1.983
Mof_O 	O 	0.5895	0.30976	0.2239	-0.908
Mof_O 	O 	0.55896	0.26444	0.4793	-0.806
Mof_O 	O 	0.5538	0.39053	0.9169	-1.187
Mof_C 	C 	0.56547	0.40899	0.0803	0.687
Mof_C 	C 	0.61311	0.41238	0.1277	-0.612
Mof_H 	H 	0.627	0.3843	0.1038	0.04
Mof_H 	H 	0.617	0.4208	0.2725	0.063
Mof_H 	H 	0.6263	0.4342	0.0377	0.054
Mof_O 	O 	0.53942	0.42481	0.2099	-1.2
Mof_O 	O 	0.45246	0.48431	0.0985	-1.224
Mof_H 	H 	0.374	0.4731	0.187	0.188
Mof_H 	H 	0.374	0.5249	0.1705	0.189
Mof_H 	H 	0.374	0.502	0.3925	0.196
Mof_Na	Na	0.15952	0.72119	0.18069	1.997
Mof_O 	O 	0.05976	0.8395	0.0261	-0.916
Mof_O 	O 	0.01444	0.80896	0.7707	-0.807
Mof_O 	O 	0.14053	0.8038	0.3331	-1.219
Mof_C 	C 	0.15899	0.81547	0.1697	0.75
Mof_C 	C 	0.16238	0.86311	0.1223	-0.739
Mof_H 	H 	0.1343	0.877	0.1462	0.079
Mof_H 	H 	0.1708	0.867	0.9775	0.116
Mof_H 	H 	0.1842	0.8763	0.2123	0.098
Mof_O 	O 	0.17481	0.78942	0.0401	-1.224
Mof_O 	O 	0.23431	0.70246	0.1515	-1.23
Mof_H 	H 	0.2231	0.624	0.063	0.219
Mof_H 	H 	0.2749	0.624	0.0795	0.223
Mof_H 	H 	0.252	0.624	0.8575	0.236
Mof_Na	Na	0.65952	0.22119	0.68069	2.093
Mof_O 	O 	0.55976	0.3395	0.5261	-0.907
Mof_O 	O 	0.51444	0.30896	0.2707	-0.809
Mof_O 	O 	0.64053	0.3038	0.8331	-1.202
Mof_C 	C 	0.65899	0.31547	0.6697	0.718
Mof_C 	C 	0.66238	0.36311	0.6223	-0.636
Mof_H 	H 	0.6343	0.377	0.6462	0.054
Mof_H 	H 	0.6708	0.367	0.4775	0.07
Mof_H 	H 	0.6842	0.3763	0.7123	0.068
Mof_O 	O 	0.67481	0.28942	0.5401	-1.216
Mof_O 	O 	0.73431	0.20246	0.6515	-1.205
Mof_H 	H 	0.7231	0.124	0.563	0.187
Mof_H 	H 	0.7749	0.124	0.5795	0.195
Mof_H 	H 	0.752	0.124	0.3575	0.193
Mof_Na	Na	0.34048	0.27881	0.68069	2.093
Mof_O 	O 	0.44024	0.1605	0.5261	-0.908
Mof_O 	O 	0.48556	0.19104	0.2707	-0.809
Mof_O 	O 	0.35947	0.1962	0.8331	-1.2
Mof_C 	C 	0.34101	0.18453	0.6697	0.715
Mof_C 	C 	0.33762	0.13689	0.6223	-0.629
Mof_H 	H 	0.3657	0.123	0.6462	0.049
Mof_H 	H 	0.3292	0.133	0.4775	0.066
Mof_H 	H 	0.3158	0.1237	0.7123	0.063
Mof_O 	O 	0.32519	0.21058	0.5401	-1.215
Mof_O 	O 	0.26569	0.29754	0.6515	-1.208
Mof_H 	H 	0.2769	0.376	0.563	0.194
Mof_H 	H 	0.2251	0.376	0.5795	0.202
Mof_H 	H 	0.248	0.376	0.3575	0.201
Mof_Na	Na	0.84048	0.77881	0.18069	1.998
Mof_O 	O 	0.94024	0.6605	0.0261	-0.912
Mof_O 	O 	0.98556	0.69104	0.7707	-0.807
Mof_O 	O 	0.85947	0.6962	0.3331	-1.22
Mof_C 	C 	0.84101	0.68453	0.1697	0.751
Mof_C 	C 	0.83762	0.63689	0.1223	-0.741
Mof_H 	H 	0.8657	0.623	0.1462	0.081
Mof_H 	H 	0.8292	0.633	0.9775	0.117
Mof_H 	H 	0.8158	0.6237	0.2123	0.1
Mof_O 	O 	0.82519	0.71058	0.0401	-1.224
Mof_O 	O 	0.76569	0.79754	0.1515	-1.23
Mof_H 	H 	0.7769	0.876	0.063	0.219
Mof_H 	H 	0.7251	0.876	0.0795	0.223
Mof_H 	H 	0.748	0.876	0.8575	0.237
Mof_Na	Na	0.97119	0.09048	0.93069	2.12
Mof_O 	O 	0.0895	0.19024	0.7761	-0.894
Mof_O 	O 	0.05896	0.23556	0.5207	-0.799
Mof_O 	O 	0.0538	0.10947	0.0831	-1.23
Mof_C 	C 	0.06547	0.09101	0.9197	0.751
Mof_C 	C 	0.11311	0.08762	0.8723	-0.662
Mof_H 	H 	0.127	0.1157	0.8962	0.064
Mof_H 	H 	0.117	0.0792	0.7275	0.075
Mof_H 	H 	0.1263	0.0658	0.9623	0.075
Mof_O 	O 	0.03942	0.07519	0.7901	-1.222
Mof_O 	O 	0.95246	0.01569	0.9015	-1.224
Mof_H 	H 	0.874	0.0269	0.813	0.267
Mof_H 	H 	0.874	0.9751	0.8295	0.292
Mof_H 	H 	0.874	0.998	0.6075	0.293
Mof_Na	Na	0.47119	0.59048	0.43069	2.026
Mof_O 	O 	0.5895	0.69024	0.2761	-0.898
Mof_O 	O 	0.55896	0.73556	0.0207	-0.805
Mof_O 	O 	0.5538	0.60947	0.5831	-1.215
Mof_C 	C 	0.56547	0.59101	0.4197	0.725
Mof_C 	C 	0.61311	0.58762	0.3723	-0.648
Mof_H 	H 	0.627	0.6157	0.3962	0.056
Mof_H 	H 	0.617	0.5792	0.2275	0.069
Mof_H 	H 	0.6263	0.5658	0.4623	0.073
Mof_O 	O 	0.53942	0.57519	0.2901	-1.224
Mof_O 	O 	0.45246	0.51569	0.4015	-1.22
Mof_H 	H 	0.374	0.5269	0.313	0.189
Mof_H 	H 	0.374	0.4751	0.3295	0.194
Mof_H 	H 	0.374	0.498	0.1075	0.192
Mof_Na	Na	0.52881	0.90952	0.43069	2.06
Mof_O 	O 	0.4105	0.80976	0.2761	-0.898
Mof_O 	O 	0.44104	0.76444	0.0207	-0.806
Mof_O 	O 	0.4462	0.89053	0.5831	-1.217
Mof_C 	C 	0.43453	0.90899	0.4197	0.722
Mof_C 	C 	0.38689	0.91238	0.3723	-0.637
Mof_H 	H 	0.373	0.8843	0.3962	0.053
Mof_H 	H 	0.383	0.9208	0.2275	0.067
Mof_H 	H 	0.3737	0.9342	0.4623	0.068
Mof_O 	O 	0.46058	0.92481	0.2901	-1.208
Mof_O 	O 	0.54754	0.98431	0.4015	-1.19
Mof_H 	H 	0.626	0.9731	0.313	0.237
Mof_H 	H 	0.626	0.0249	0.3295	0.228
Mof_H 	H 	0.626	0.002	0.1075	0.222
Mof_Na	Na	0.02881	0.40952	0.93069	2.101
Mof_O 	O 	0.9105	0.30976	0.7761	-0.895
Mof_O 	O 	0.94104	0.26444	0.5207	-0.799
Mof_O 	O 	0.9462	0.39053	0.0831	-1.232
Mof_C 	C 	0.93453	0.40899	0.9197	0.761
Mof_C 	C 	0.88689	0.41238	0.8723	-0.683
Mof_H 	H 	0.873	0.3843	0.8962	0.071
Mof_H 	H 	0.883	0.4208	0.7275	0.085
Mof_H 	H 	0.8737	0.4342	0.9623	0.091
Mof_O 	O 	0.96058	0.42481	0.7901	-1.234
Mof_O 	O 	0.04754	0.48431	0.9015	-1.221
Mof_H 	H 	0.126	0.4731	0.813	0.202
Mof_H 	H 	0.126	0.5249	0.8295	0.209
Mof_H 	H 	0.126	0.502	0.6075	0.207
Mof_Na	Na	0.65952	0.27881	0.18069	1.998
Mof_O 	O 	0.55976	0.1605	0.0261	-0.914
Mof_O 	O 	0.51444	0.19104	0.7707	-0.807
Mof_O 	O 	0.64053	0.1962	0.3331	-1.218
Mof_C 	C 	0.65899	0.18453	0.1697	0.748
Mof_C 	C 	0.66238	0.13689	0.1223	-0.734
Mof_H 	H 	0.6343	0.123	0.1462	0.077
Mof_H 	H 	0.6708	0.133	0.9775	0.113
Mof_H 	H 	0.6842	0.1237	0.2123	0.095
Mof_O 	O 	0.67481	0.21058	0.0401	-1.223
Mof_O 	O 	0.73431	0.29754	0.1515	-1.23
Mof_H 	H 	0.7231	0.376	0.063	0.219
Mof_H 	H 	0.7749	0.376	0.0795	0.223
Mof_H 	H 	0.752	0.376	0.8575	0.236
Mof_Na	Na	0.15952	0.77881	0.68069	2.093
Mof_O 	O 	0.05976	0.6605	0.5261	-0.907
Mof_O 	O 	0.01444	0.69104	0.2707	-0.809
Mof_O 	O 	0.14053	0.6962	0.8331	-1.202
Mof_C 	C 	0.15899	0.68453	0.6697	0.717
Mof_C 	C 	0.16238	0.63689	0.6223	-0.636
Mof_H 	H 	0.1343	0.623	0.6462	0.054
Mof_H 	H 	0.1708	0.633	0.4775	0.07
Mof_H 	H 	0.1842	0.6237	0.7123	0.068
Mof_O 	O 	0.17481	0.71058	0.5401	-1.216
Mof_O 	O 	0.23431	0.79754	0.6515	-1.208
Mof_H 	H 	0.2231	0.876	0.563	0.194
Mof_H 	H 	0.2749	0.876	0.5795	0.202
Mof_H 	H 	0.252	0.876	0.3575	0.201
Mof_Na	Na	0.84048	0.72119	0.68069	2.092
Mof_O 	O 	0.94024	0.8395	0.5261	-0.91
Mof_O 	O 	0.98556	0.80896	0.2707	-0.81
Mof_O 	O 	0.85947	0.8038	0.8331	-1.201
Mof_C 	C 	0.84101	0.81547	0.6697	0.716
Mof_C 	C 	0.83762	0.86311	0.6223	-0.633
Mof_H 	H 	0.8657	0.877	0.6462	0.051
Mof_H 	H 	0.8292	0.867	0.4775	0.068
Mof_H 	H 	0.8158	0.8763	0.7123	0.066
Mof_O 	O 	0.82519	0.78942	0.5401	-1.216
Mof_O 	O 	0.76569	0.70246	0.6515	-1.208
Mof_H 	H 	0.7769	0.624	0.563	0.194
Mof_H 	H 	0.7251	0.624	0.5795	0.202
Mof_H 	H 	0.748	0.624	0.3575	0.201
Mof_Na	Na	0.34048	0.22119	0.18069	1.998
Mof_O 	O 	0.44024	0.3395	0.0261	-0.912
Mof_O 	O 	0.48556	0.30896	0.7707	-0.807
Mof_O 	O 	0.35947	0.3038	0.3331	-1.22
Mof_C 	C 	0.34101	0.31547	0.1697	0.751
Mof_C 	C 	0.33762	0.36311	0.1223	-0.741
Mof_H 	H 	0.3657	0.377	0.1462	0.081
Mof_H 	H 	0.3292	0.367	0.9775	0.117
Mof_H 	H 	0.3158	0.3763	0.2123	0.1
Mof_O 	O 	0.32519	0.28942	0.0401	-1.224
Mof_O 	O 	0.26569	0.20246	0.1515	-1.226
Mof_H 	H 	0.2769	0.124	0.063	0.211
Mof_H 	H 	0.2251	0.124	0.0795	0.216
Mof_H 	H 	0.248	0.124	0.8575	0.229
Mof_Na	Na	0.47119	0.90952	0.93069	2.134
Mof_O 	O 	0.5895	0.80976	0.7761	-0.895
Mof_O 	O 	0.55896	0.76444	0.5207	-0.799
Mof_O 	O 	0.5538	0.89053	0.0831	-1.233
Mof_C 	C 	0.56547	0.90899	0.9197	0.757
Mof_C 	C 	0.61311	0.91238	0.8723	-0.672
Mof_H 	H 	0.627	0.8843	0.8962	0.067
Mof_H 	H 	0.617	0.9208	0.7275	0.082
Mof_H 	H 	0.6263	0.9342	0.9623	0.085
Mof_O 	O 	0.53942	0.92481	0.7901	-1.218
Mof_O 	O 	0.45246	0.98431	0.9015	-1.19
Mof_H 	H 	0.374	0.9731	0.813	0.25
Mof_H 	H 	0.374	0.0249	0.8295	0.243
Mof_H 	H 	0.374	0.002	0.6075	0.238
Mof_Na	Na	0.97119	0.40952	0.43069	2.027
Mof_O 	O 	0.0895	0.30976	0.2761	-0.898
Mof_O 	O 	0.05896	0.26444	0.0207	-0.806
Mof_O 	O 	0.0538	0.39053	0.5831	-1.216
Mof_C 	C 	0.06547	0.40899	0.4197	0.725
Mof_C 	C 	0.11311	0.41238	0.3723	-0.648
Mof_H 	H 	0.127	0.3843	0.3962	0.056
Mof_H 	H 	0.117	0.4208	0.2275	0.069
Mof_H 	H 	0.1263	0.4342	0.4623	0.073
Mof_O 	O 	0.03942	0.42481	0.2901	-1.224
Mof_O 	O 	0.95246	0.48431	0.4015	-1.22
Mof_H 	H 	0.874	0.4731	0.313	0.189
Mof_H 	H 	0.874	0.5249	0.3295	0.194
Mof_H 	H 	0.874	0.502	0.1075	0.192
Mof_Na	Na	0.02881	0.09048	0.43069	2.044
Mof_O 	O 	0.9105	0.19024	0.2761	-0.897
Mof_O 	O 	0.94104	0.23556	0.0207	-0.806
Mof_O 	O 	0.9462	0.10947	0.5831	-1.214
Mof_C 	C 	0.93453	0.09101	0.4197	0.715
Mof_C 	C 	0.88689	0.08762	0.3723	-0.626
Mof_H 	H 	0.873	0.1157	0.3962	0.049
Mof_H 	H 	0.883	0.0792	0.2275	0.059
Mof_H 	H 	0.8737	0.0658	0.4623	0.057
Mof_O 	O 	0.96058	0.07519	0.2901	-1.212
Mof_O 	O 	0.04754	0.01569	0.4015	-1.224
Mof_H 	H 	0.126	0.0269	0.313	0.253
Mof_H 	H 	0.126	0.9751	0.3295	0.277
Mof_H 	H 	0.126	0.998	0.1075	0.277
Mof_Na	Na	0.52881	0.59048	0.93069	2.1
Mof_O 	O 	0.4105	0.69024	0.7761	-0.895
Mof_O 	O 	0.44104	0.73556	0.5207	-0.799
Mof_O 	O 	0.4462	0.60947	0.0831	-1.231
Mof_C 	C 	0.43453	0.59101	0.9197	0.761
Mof_C 	C 	0.38689	0.58762	0.8723	-0.683
Mof_H 	H 	0.373	0.6157	0.8962	0.071
Mof_H 	H 	0.383	0.5792	0.7275	0.085
Mof_H 	H 	0.3737	0.5658	0.9623	0.091
Mof_O 	O 	0.46058	0.57519	0.7901	-1.233
Mof_O 	O 	0.54754	0.51569	0.9015	-1.221
Mof_H 	H 	0.626	0.5269	0.813	0.202
Mof_H 	H 	0.626	0.4751	0.8295	0.209
Mof_H 	H 	0.626	0.498	0.6075	0.207
Mof_Na	Na	0.84048	0.27881	0.81931	2.098
Mof_O 	O 	0.94024	0.1605	0.9739	-0.889
Mof_O 	O 	0.98556	0.19104	0.2293	-0.798
Mof_O 	O 	0.85947	0.1962	0.6669	-1.197
Mof_C 	C 	0.84101	0.18453	0.8303	0.689
Mof_C 	C 	0.83762	0.13689	0.8777	-0.543
Mof_H 	H 	0.8657	0.123	0.8538	0.027
Mof_H 	H 	0.8292	0.133	0.0225	0.029
Mof_H 	H 	0.8158	0.1237	0.7877	0.046
Mof_O 	O 	0.82519	0.21058	0.9599	-1.182
Mof_O 	O 	0.76569	0.29754	0.8485	-1.223
Mof_H 	H 	0.7769	0.376	0.937	0.252
Mof_H 	H 	0.7251	0.376	0.9205	0.259
Mof_H 	H 	0.748	0.376	0.1425	0.248
Mof_Na	Na	0.34048	0.77881	0.31931	2.005
Mof_O 	O 	0.44024	0.6605	0.4739	-0.895
Mof_O 	O 	0.48556	0.69104	0.7293	-0.795
Mof_O 	O 	0.35947	0.6962	0.1669	-1.217
Mof_C 	C 	0.34101	0.68453	0.3303	0.723
Mof_C 	C 	0.33762	0.63689	0.3777	-0.643
Mof_H 	H 	0.3657	0.623	0.3538	0.054
Mof_H 	H 	0.3292	0.633	0.5225	0.07
Mof_H 	H 	0.3158	0.6237	0.2877	0.064
Mof_O 	O 	0.32519	0.71058	0.4599	-1.221
Mof_O 	O 	0.26569	0.79754	0.3485	-1.207
Mof_H 	H 	0.2769	0.876	0.437	0.195
Mof_H 	H 	0.2251	0.876	0.4205	0.198
Mof_H 	H 	0.248	0.876	0.6425	0.205
Mof_Na	Na	0.65952	0.72119	0.31931	2.004
Mof_O 	O 	0.55976	0.8395	0.4739	-0.898
Mof_O 	O 	0.51444	0.80896	0.7293	-0.796
Mof_O 	O 	0.64053	0.8038	0.1669	-1.216
Mof_C 	C 	0.65899	0.81547	0.3303	0.722
Mof_C 	C 	0.66238	0.86311	0.3777	-0.639
Mof_H 	H 	0.6343	0.877	0.3538	0.051
Mof_H 	H 	0.6708	0.867	0.5225	0.068
Mof_H 	H 	0.6842	0.8763	0.2877	0.062
Mof_O 	O 	0.67481	0.78942	0.4599	-1.221
Mof_O 	O 	0.73431	0.70246	0.3485	-1.206
Mof_H 	H 	0.7231	0.624	0.437	0.194
Mof_H 	H 	0.7749	0.624	0.4205	0.197
Mof_H 	H 	0.752	0.624	0.6425	0.204
Mof_Na	Na	0.15952	0.22119	0.81931	2.099
Mof_O 	O 	0.05976	0.3395	0.9739	-0.887
Mof_O 	O 	0.01444	0.30896	0.2293	-0.798
Mof_O 	O 	0.14053	0.3038	0.6669	-1.198
Mof_C 	C 	0.15899	0.31547	0.8303	0.691
Mof_C 	C 	0.16238	0.36311	0.8777	-0.549
Mof_H 	H 	0.1343	0.377	0.8538	0.031
Mof_H 	H 	0.1708	0.367	0.0225	0.032
Mof_H 	H 	0.1842	0.3763	0.7877	0.05
Mof_O 	O 	0.17481	0.28942	0.9599	-1.183
Mof_O 	O 	0.23431	0.20246	0.8485	-1.219
Mof_H 	H 	0.2231	0.124	0.937	0.245
Mof_H 	H 	0.2749	0.124	0.9205	0.252
Mof_H 	H 	0.252	0.124	0.1425	0.241
Mof_Na	Na	0.02881	0.90952	0.06931	2.016
Mof_O 	O 	0.9105	0.80976	0.2239	-0.908
Mof_O 	O 	0.94104	0.76444	0.4793	-0.806
Mof_O 	O 	0.9462	0.89053	0.9169	-1.189
Mof_C 	C 	0.93453	0.90899	0.0803	0.684
Mof_C 	C 	0.88689	0.91238	0.1277	-0.601
Mof_H 	H 	0.873	0.8843	0.1038	0.036
Mof_H 	H 	0.883	0.9208	0.2725	0.061
Mof_H 	H 	0.8737	0.9342	0.0377	0.049
Mof_O 	O 	0.96058	0.92481	0.2099	-1.185
Mof_O 	O 	0.04754	0.98431	0.0985	-1.194
Mof_H 	H 	0.126	0.9731	0.187	0.235
Mof_H 	H 	0.126	0.0249	0.1705	0.222
Mof_H 	H 	0.126	0.002	0.3925	0.226
Mof_Na	Na	0.52881	0.40952	0.56931	2.05
Mof_O 	O 	0.4105	0.30976	0.7239	-0.906
Mof_O 	O 	0.44104	0.26444	0.9793	-0.8
Mof_O 	O 	0.4462	0.39053	0.4169	-1.203
Mof_C 	C 	0.43453	0.40899	0.5803	0.722
Mof_C 	C 	0.38689	0.41238	0.6277	-0.652
Mof_H 	H 	0.373	0.3843	0.6038	0.058
Mof_H 	H 	0.383	0.4208	0.7725	0.081
Mof_H 	H 	0.3737	0.4342	0.5377	0.076
Mof_O 	O 	0.46058	0.42481	0.7099	-1.21
Mof_O 	O 	0.54754	0.48431	0.5985	-1.223
Mof_H 	H 	0.626	0.4731	0.687	0.2
Mof_H 	H 	0.626	0.5249	0.6705	0.205
Mof_H 	H 	0.626	0.502	0.8925	0.211
Mof_Na	Na	0.47119	0.09048	0.56931	2.068
Mof_O 	O 	0.5895	0.19024	0.7239	-0.906
Mof_O 	O 	0.55896	0.23556	0.9793	-0.801
Mof_O 	O 	0.5538	0.10947	0.4169	-1.202
Mof_C 	C 	0.56547	0.09101	0.5803	0.711
Mof_C 	C 	0.61311	0.08762	0.6277	-0.63
Mof_H 	H 	0.627	0.1157	0.6038	0.051
Mof_H 	H 	0.617	0.0792	0.7725	0.071
Mof_H 	H 	0.6263	0.0658	0.5377	0.059
Mof_O 	O 	0.53942	0.07519	0.7099	-1.198
Mof_O 	O 	0.45246	0.01569	0.5985	-1.227
Mof_H 	H 	0.374	0.0269	0.687	0.265
Mof_H 	H 	0.374	0.9751	0.6705	0.288
Mof_H 	H 	0.374	0.998	0.8925	0.297
Mof_Na	Na	0.97119	0.59048	0.06931	1.983
Mof_O 	O 	0.0895	0.69024	0.2239	-0.908
Mof_O 	O 	0.05896	0.73556	0.4793	-0.806
Mof_O 	O 	0.0538	0.60947	0.9169	-1.187
Mof_C 	C 	0.06547	0.59101	0.0803	0.687
Mof_C 	C 	0.11311	0.58762	0.1277	-0.612
Mof_H 	H 	0.127	0.6157	0.1038	0.04
Mof_H 	H 	0.117	0.5792	0.2725	0.063
Mof_H 	H 	0.1263	0.5658	0.0377	0.054
Mof_O 	O 	0.03942	0.57519	0.2099	-1.2
Mof_O 	O 	0.95246	0.51569	0.0985	-1.224
Mof_H 	H 	0.874	0.5269	0.187	0.188
Mof_H 	H 	0.874	0.4751	0.1705	0.189
Mof_H 	H 	0.874	0.498	0.3925	0.196
Mof_Na	Na	0.25	0.77806	-0	1.701
Mof_C 	C 	0.25	0.68309	-0	1.048
Mof_C 	C 	0.25	0.63461	-0	-1.752
Mof_Na	Na	0.75	0.27806	0.5	1.825
Mof_C 	C 	0.75	0.18309	0.5	0.983
Mof_C 	C 	0.75	0.13461	0.5	-1.475
Mof_Na	Na	0.25	0.22194	0.5	1.822
Mof_C 	C 	0.25	0.31691	0.5	0.994
Mof_C 	C 	0.25	0.36539	0.5	-1.51
Mof_Na	Na	0.75	0.72194	-0	1.701
Mof_C 	C 	0.75	0.81691	-0	1.048
Mof_C 	C 	0.75	0.86539	-0	-1.753
Mof_Na	Na	0.47194	-5.12368e-34	0.25	1.644
Mof_C 	C 	0.56691	-5.12368e-34	0.25	1.044
Mof_C 	C 	0.61539	-5.12368e-34	0.25	-1.814
Mof_Na	Na	0.97194	0.5	0.75	1.85
Mof_C 	C 	0.06691	0.5	0.75	1.013
Mof_C 	C 	0.11539	0.5	0.75	-1.545
Mof_Na	Na	0.02806	0	0.75	1.736
Mof_C 	C 	0.93309	0	0.75	1.063
Mof_C 	C 	0.88461	0	0.75	-1.875
Mof_Na	Na	0.52806	0.5	0.25	1.759
Mof_C 	C 	0.43309	0.5	0.25	0.994
Mof_C 	C 	0.38461	0.5	0.25	-1.483
Mof_Na	Na	0.75	0.22194	-0	1.698
Mof_C 	C 	0.75	0.31691	-0	1.048
Mof_C 	C 	0.75	0.36539	-0	-1.752
Mof_Na	Na	0.25	0.72194	0.5	1.824
Mof_C 	C 	0.25	0.81691	0.5	0.994
Mof_C 	C 	0.25	0.86539	0.5	-1.51
Mof_Na	Na	0.75	0.77806	0.5	1.824
Mof_C 	C 	0.75	0.68309	0.5	0.994
Mof_C 	C 	0.75	0.63461	0.5	-1.509
Mof_Na	Na	0.25	0.27806	-0	1.7
Mof_C 	C 	0.25	0.18309	-0	1.037
Mof_C 	C 	0.25	0.13461	-0	-1.719
Mof_Na	Na	0.52806	0	0.75	1.733
Mof_C 	C 	0.43309	0	0.75	1.063
Mof_C 	C 	0.38461	0	0.75	-1.876
Mof_Na	Na	0.02806	0.5	0.25	1.76
Mof_C 	C 	0.93309	0.5	0.25	0.994
Mof_C 	C 	0.88461	0.5	0.25	-1.483
Mof_Na	Na	0.97194	-5.12368e-34	0.25	1.645
Mof_C 	C 	0.06691	-5.12368e-34	0.25	1.044
Mof_C 	C 	0.11539	-5.12368e-34	0.25	-1.811
Mof_Na	Na	0.47194	0.5	0.75	1.849
Mof_C 	C 	0.56691	0.5	0.75	1.013
Mof_C 	C 	0.61539	0.5	0.75	-1.545
Mof_Na	Na	0.43656	0.81344	0.625	3.275
Mof_Na	Na	0.93656	0.31344	0.125	3.226
Mof_Na	Na	0.06344	0.18656	0.125	3.219
Mof_Na	Na	0.56344	0.68656	0.625	3.283
Mof_Na	Na	0.43656	0.18656	0.875	3.315
Mof_Na	Na	0.93656	0.68656	0.375	3.271
Mof_Na	Na	0.06344	0.81344	0.375	3.262
Mof_Na	Na	0.56344	0.31344	0.875	3.322
Mof_Na	Na	0.56344	0.18656	0.375	3.264
Mof_Na	Na	0.06344	0.68656	0.875	3.323
Mof_Na	Na	0.93656	0.81344	0.875	3.314
Mof_Na	Na	0.43656	0.31344	0.375	3.271
Mof_Na	Na	0.56344	0.81344	0.125	3.218
Mof_Na	Na	0.06344	0.31344	0.625	3.284
Mof_Na	Na	0.93656	0.18656	0.625	3.278
Mof_Na	Na	0.43656	0.68656	0.125	3.226
Mof_Cl	Cl	0.44473	0.80527	0.125	0.277
Mof_Cl	Cl	0.94473	0.30527	0.625	0.297
Mof_Cl	Cl	0.05527	0.19473	0.625	0.298
Mof_Cl	Cl	0.55527	0.69473	0.125	0.276
Mof_Cl	Cl	0.44473	0.19473	0.375	0.3
Mof_Cl	Cl	0.94473	0.69473	0.875	0.317
Mof_Cl	Cl	0.05527	0.80527	0.875	0.318
Mof_Cl	Cl	0.55527	0.30527	0.375	0.299
Mof_Cl	Cl	0.55527	0.19473	0.875	0.317
Mof_Cl	Cl	0.05527	0.69473	0.375	0.299
Mof_Cl	Cl	0.94473	0.80527	0.375	0.3
Mof_Cl	Cl	0.44473	0.30527	0.875	0.317
Mof_Cl	Cl	0.55527	0.80527	0.625	0.298
Mof_Cl	Cl	0.05527	0.30527	0.125	0.276
Mof_Cl	Cl	0.94473	0.19473	0.125	0.277
Mof_Cl	Cl	0.44473	0.69473	0.625	0.297
_end
