data_functionalizedCrystal
_audit_creation_method	'EQeq! by Chris Wilmer'
_symmetry_space_group_name_H-M	'P1'
_symmetry_Int_Tables_number	1
_symmetry_cell_setting	triclinic
loop_
_symmetry_equiv_pos_as_xyz
  x,y,z
_cell_length_a	13.1995
_cell_length_b	13.1995
_cell_length_c	27.7158
_cell_angle_alpha	90
_cell_angle_beta	90
_cell_angle_gamma	90
loop_
_atom_site_label
_atom_site_type_symbol
_atom_site_fract_x
_atom_site_fract_y
_atom_site_fract_z
_atom_site_charge
Mof_C 	C 	0.2659	0.8731	0.4416	0.16
Mof_H 	H 	0.2328	0.9157	0.4642	-0.044
Mof_C 	C 	0.2071	0.8216	0.4066	-0.197
Mof_H 	H 	0.1365	0.8344	0.4042	0.091
Mof_C 	C 	0.3556	0.7452	0.3782	0.064
Mof_H 	H 	0.3903	0.6994	0.3576	0
Mof_C 	C 	0.4098	0.8042	0.4105	-0.102
Mof_H 	H 	0.4817	0.8026	0.4094	0.043
Mof_C 	C 	0.1735	0.5881	0.3534	-0.011
Mof_H 	H 	0.2048	0.5588	0.3809	0.021
Mof_C 	C 	0.1105	0.5282	0.3236	-0.076
Mof_H 	H 	0.0976	0.4598	0.3322	0.043
Mof_C 	C 	0.0855	0.6716	0.2719	-0.08
Mof_H 	H 	0.0543	0.7024	0.2447	0.053
Mof_C 	C 	0.1496	0.7288	0.302	-0.012
Mof_H 	H 	0.1648	0.7968	0.2934	0.026
Mof_C 	C 	0.7341	0.1269	0.4416	0.213
Mof_H 	H 	0.7672	0.0843	0.4642	-0.059
Mof_C 	C 	0.7929	0.1784	0.4066	-0.254
Mof_H 	H 	0.8635	0.1656	0.4042	0.109
Mof_C 	C 	0.6444	0.2548	0.3782	0.129
Mof_H 	H 	0.6097	0.3006	0.3576	-0.021
Mof_C 	C 	0.5902	0.1958	0.4105	-0.157
Mof_H 	H 	0.5183	0.1974	0.4094	0.063
Mof_C 	C 	0.8265	0.4119	0.3534	-0.021
Mof_H 	H 	0.7952	0.4412	0.3809	0.027
Mof_C 	C 	0.8895	0.4718	0.3236	-0.067
Mof_H 	H 	0.9024	0.5402	0.3322	0.042
Mof_C 	C 	0.9145	0.3284	0.2719	-0.072
Mof_H 	H 	0.9457	0.2976	0.2447	0.048
Mof_C 	C 	0.8504	0.2712	0.302	-0.021
Mof_H 	H 	0.8352	0.2032	0.2934	0.028
Mof_C 	C 	0.6269	0.7659	0.9416	0.322
Mof_H 	H 	0.5843	0.7328	0.9642	-0.089
Mof_C 	C 	0.6784	0.7071	0.9066	-0.364
Mof_H 	H 	0.6656	0.6365	0.9042	0.148
Mof_C 	C 	0.7548	0.8556	0.8782	0.245
Mof_H 	H 	0.8006	0.8903	0.8576	-0.059
Mof_C 	C 	0.6958	0.9098	0.9105	-0.261
Mof_H 	H 	0.6974	0.9817	0.9094	0.1
Mof_C 	C 	0.9119	0.6735	0.8534	-0.001
Mof_H 	H 	0.9412	0.7048	0.8809	0.012
Mof_C 	C 	0.9718	0.6105	0.8236	-0.086
Mof_H 	H 	0.0402	0.5976	0.8322	0.05
Mof_C 	C 	0.8284	0.5855	0.7719	-0.08
Mof_H 	H 	0.7976	0.5543	0.7447	0.051
Mof_C 	C 	0.7712	0.6496	0.802	-0.013
Mof_H 	H 	0.7032	0.6648	0.7934	0.026
Mof_C 	C 	0.3731	0.2341	0.9416	0.377
Mof_H 	H 	0.4157	0.2672	0.9642	-0.107
Mof_C 	C 	0.3216	0.2929	0.9066	-0.425
Mof_H 	H 	0.3344	0.3635	0.9042	0.167
Mof_C 	C 	0.2452	0.1444	0.8782	0.308
Mof_H 	H 	0.1994	0.1097	0.8576	-0.078
Mof_C 	C 	0.3042	0.0902	0.9105	-0.316
Mof_H 	H 	0.3026	0.0183	0.9094	0.123
Mof_C 	C 	0.0881	0.3265	0.8534	-0.018
Mof_H 	H 	0.0588	0.2952	0.8809	0.024
Mof_C 	C 	0.0282	0.3895	0.8236	-0.061
Mof_H 	H 	0.9598	0.4024	0.8322	0.038
Mof_C 	C 	0.1716	0.4145	0.7719	-0.072
Mof_H 	H 	0.2024	0.4457	0.7447	0.049
Mof_C 	C 	0.2288	0.3504	0.802	-0.024
Mof_H 	H 	0.2968	0.3352	0.7934	0.029
Mof_C 	C 	0.7341	0.8731	0.0584	-0.086
Mof_H 	H 	0.7672	0.9157	0.0358	0.034
Mof_C 	C 	0.7929	0.8216	0.0934	0.07
Mof_H 	H 	0.8635	0.8344	0.0958	0.002
Mof_C 	C 	0.6444	0.7452	0.1218	-0.216
Mof_H 	H 	0.6097	0.6994	0.1424	0.092
Mof_C 	C 	0.5902	0.8042	0.0895	0.14
Mof_H 	H 	0.5183	0.8026	0.0906	-0.041
Mof_C 	C 	0.8265	0.5881	0.1466	-0.029
Mof_H 	H 	0.7952	0.5588	0.1191	0.037
Mof_C 	C 	0.8895	0.5282	0.1764	-0.065
Mof_H 	H 	0.9024	0.4598	0.1678	0.041
Mof_C 	C 	0.9145	0.6716	0.2281	-0.074
Mof_H 	H 	0.9457	0.7024	0.2553	0.047
Mof_C 	C 	0.8504	0.7288	0.198	-0.016
Mof_H 	H 	0.8352	0.7968	0.2066	0.027
Mof_C 	C 	0.2659	0.1269	0.0584	-0.033
Mof_H 	H 	0.2328	0.0843	0.0358	0.018
Mof_C 	C 	0.2071	0.1784	0.0934	0.012
Mof_H 	H 	0.1365	0.1656	0.0958	0.023
Mof_C 	C 	0.3556	0.2548	0.1218	-0.151
Mof_H 	H 	0.3903	0.3006	0.1424	0.071
Mof_C 	C 	0.4098	0.1958	0.0895	0.085
Mof_H 	H 	0.4817	0.1974	0.0906	-0.021
Mof_C 	C 	0.1735	0.4119	0.1466	-0.021
Mof_H 	H 	0.2048	0.4412	0.1191	0.033
Mof_C 	C 	0.1105	0.4718	0.1764	-0.072
Mof_H 	H 	0.0976	0.5402	0.1678	0.042
Mof_C 	C 	0.0855	0.3284	0.2281	-0.079
Mof_H 	H 	0.0543	0.2976	0.2553	0.052
Mof_C 	C 	0.1496	0.2712	0.198	-0.011
Mof_H 	H 	0.1648	0.2032	0.2066	0.027
Mof_C 	C 	0.3731	0.7659	0.5584	0.172
Mof_H 	H 	0.4157	0.7328	0.5358	-0.047
Mof_C 	C 	0.3216	0.7071	0.5934	-0.208
Mof_H 	H 	0.3344	0.6365	0.5958	0.095
Mof_C 	C 	0.2452	0.8556	0.6218	0.08
Mof_H 	H 	0.1994	0.8903	0.6424	-0.005
Mof_C 	C 	0.3042	0.9098	0.5895	-0.115
Mof_H 	H 	0.3026	0.9817	0.5906	0.046
Mof_C 	C 	0.0881	0.6735	0.6466	-0.023
Mof_H 	H 	0.0588	0.7048	0.6191	0.029
Mof_C 	C 	0.0282	0.6105	0.6764	-0.06
Mof_H 	H 	0.9598	0.5976	0.6678	0.037
Mof_C 	C 	0.1716	0.5855	0.7281	-0.074
Mof_H 	H 	0.2024	0.5543	0.7553	0.048
Mof_C 	C 	0.2288	0.6496	0.698	-0.02
Mof_H 	H 	0.2968	0.6648	0.7066	0.028
Mof_C 	C 	0.6269	0.2341	0.5584	0.227
Mof_H 	H 	0.5843	0.2672	0.5358	-0.064
Mof_C 	C 	0.6784	0.2929	0.5934	-0.269
Mof_H 	H 	0.6656	0.3635	0.5958	0.114
Mof_C 	C 	0.7548	0.1444	0.6218	0.142
Mof_H 	H 	0.8006	0.1097	0.6424	-0.024
Mof_C 	C 	0.6958	0.0902	0.5895	-0.169
Mof_H 	H 	0.6974	0.0183	0.5906	0.069
Mof_C 	C 	0.9119	0.3265	0.6466	-0.007
Mof_H 	H 	0.9412	0.2952	0.6191	0.018
Mof_C 	C 	0.9718	0.3895	0.6764	-0.084
Mof_H 	H 	0.0402	0.4024	0.6678	0.049
Mof_C 	C 	0.8284	0.4145	0.7281	-0.08
Mof_H 	H 	0.7976	0.4457	0.7553	0.051
Mof_C 	C 	0.7712	0.3504	0.698	-0.013
Mof_H 	H 	0.7032	0.3352	0.7066	0.026
Mof_C 	C 	0.7341	0.1269	0.5584	0.226
Mof_H 	H 	0.7672	0.0843	0.5358	-0.064
Mof_C 	C 	0.7929	0.1784	0.5934	-0.267
Mof_H 	H 	0.8635	0.1656	0.5958	0.114
Mof_C 	C 	0.6444	0.2548	0.6218	0.143
Mof_H 	H 	0.6097	0.3006	0.6424	-0.025
Mof_C 	C 	0.5902	0.1958	0.5895	-0.169
Mof_H 	H 	0.5183	0.1974	0.5906	0.067
Mof_C 	C 	0.8265	0.4119	0.6466	-0.02
Mof_H 	H 	0.7952	0.4412	0.6191	0.026
Mof_C 	C 	0.8895	0.4718	0.6764	-0.068
Mof_H 	H 	0.9024	0.5402	0.6678	0.042
Mof_C 	C 	0.9145	0.3284	0.7281	-0.073
Mof_H 	H 	0.9457	0.2976	0.7553	0.047
Mof_C 	C 	0.8504	0.2712	0.698	-0.021
Mof_H 	H 	0.8352	0.2032	0.7066	0.028
Mof_C 	C 	0.2659	0.8731	0.5584	0.173
Mof_H 	H 	0.2328	0.9157	0.5358	-0.047
Mof_C 	C 	0.2071	0.8216	0.5934	-0.21
Mof_H 	H 	0.1365	0.8344	0.5958	0.095
Mof_C 	C 	0.3556	0.7452	0.6218	0.079
Mof_H 	H 	0.3903	0.6994	0.6424	-0.004
Mof_C 	C 	0.4098	0.8042	0.5895	-0.115
Mof_H 	H 	0.4817	0.8026	0.5906	0.048
Mof_C 	C 	0.1735	0.5881	0.6466	-0.01
Mof_H 	H 	0.2048	0.5588	0.6191	0.02
Mof_C 	C 	0.1105	0.5282	0.6764	-0.076
Mof_H 	H 	0.0976	0.4598	0.6678	0.043
Mof_C 	C 	0.0855	0.6716	0.7281	-0.081
Mof_H 	H 	0.0543	0.7024	0.7553	0.052
Mof_C 	C 	0.1496	0.7288	0.698	-0.012
Mof_H 	H 	0.1648	0.7968	0.7066	0.026
Mof_C 	C 	0.3731	0.2341	0.0584	-0.032
Mof_H 	H 	0.4157	0.2672	0.0358	0.017
Mof_C 	C 	0.3216	0.2929	0.0934	0.011
Mof_H 	H 	0.3344	0.3635	0.0958	0.022
Mof_C 	C 	0.2452	0.1444	0.1218	-0.152
Mof_H 	H 	0.1994	0.1097	0.1424	0.072
Mof_C 	C 	0.3042	0.0902	0.0895	0.085
Mof_H 	H 	0.3026	0.0183	0.0906	-0.019
Mof_C 	C 	0.0881	0.3265	0.1466	-0.034
Mof_H 	H 	0.0588	0.2952	0.1191	0.041
Mof_C 	C 	0.0282	0.3895	0.1764	-0.055
Mof_H 	H 	0.9598	0.4024	0.1678	0.035
Mof_C 	C 	0.1716	0.4145	0.2281	-0.073
Mof_H 	H 	0.2024	0.4457	0.2553	0.048
Mof_C 	C 	0.2288	0.3504	0.198	-0.019
Mof_H 	H 	0.2968	0.3352	0.2066	0.028
Mof_C 	C 	0.6269	0.7659	0.0584	-0.087
Mof_H 	H 	0.5843	0.7328	0.0358	0.035
Mof_C 	C 	0.6784	0.7071	0.0934	0.072
Mof_H 	H 	0.6656	0.6365	0.0958	0.002
Mof_C 	C 	0.7548	0.8556	0.1218	-0.215
Mof_H 	H 	0.8006	0.8903	0.1424	0.091
Mof_C 	C 	0.6958	0.9098	0.0895	0.139
Mof_H 	H 	0.6974	0.9817	0.0906	-0.042
Mof_C 	C 	0.9119	0.6735	0.1466	-0.017
Mof_H 	H 	0.9412	0.7048	0.1191	0.029
Mof_C 	C 	0.9718	0.6105	0.1764	-0.08
Mof_H 	H 	0.0402	0.5976	0.1678	0.047
Mof_C 	C 	0.8284	0.5855	0.2281	-0.081
Mof_H 	H 	0.7976	0.5543	0.2553	0.051
Mof_C 	C 	0.7712	0.6496	0.198	-0.009
Mof_H 	H 	0.7032	0.6648	0.2066	0.025
Mof_C 	C 	0.2659	0.1269	0.9416	0.376
Mof_H 	H 	0.2328	0.0843	0.9642	-0.106
Mof_C 	C 	0.2071	0.1784	0.9066	-0.423
Mof_H 	H 	0.1365	0.1656	0.9042	0.168
Mof_C 	C 	0.3556	0.2548	0.8782	0.309
Mof_H 	H 	0.3903	0.3006	0.8576	-0.079
Mof_C 	C 	0.4098	0.1958	0.9105	-0.316
Mof_H 	H 	0.4817	0.1974	0.9094	0.121
Mof_C 	C 	0.1735	0.4119	0.8534	-0.005
Mof_H 	H 	0.2048	0.4412	0.8809	0.016
Mof_C 	C 	0.1105	0.4718	0.8236	-0.077
Mof_H 	H 	0.0976	0.5402	0.8322	0.044
Mof_C 	C 	0.0855	0.3284	0.7719	-0.079
Mof_H 	H 	0.0543	0.2976	0.7447	0.052
Mof_C 	C 	0.1496	0.2712	0.802	-0.016
Mof_H 	H 	0.1648	0.2032	0.7934	0.027
Mof_C 	C 	0.7341	0.8731	0.9416	0.323
Mof_H 	H 	0.7672	0.9157	0.9642	-0.09
Mof_C 	C 	0.7929	0.8216	0.9066	-0.366
Mof_H 	H 	0.8635	0.8344	0.9042	0.147
Mof_C 	C 	0.6444	0.7452	0.8782	0.244
Mof_H 	H 	0.6097	0.6994	0.8576	-0.058
Mof_C 	C 	0.5902	0.8042	0.9105	-0.261
Mof_H 	H 	0.5183	0.8026	0.9094	0.101
Mof_C 	C 	0.8265	0.5881	0.8534	-0.013
Mof_H 	H 	0.7952	0.5588	0.8809	0.02
Mof_C 	C 	0.8895	0.5282	0.8236	-0.07
Mof_H 	H 	0.9024	0.4598	0.8322	0.043
Mof_C 	C 	0.9145	0.6716	0.7719	-0.074
Mof_H 	H 	0.9457	0.7024	0.7447	0.047
Mof_C 	C 	0.8504	0.7288	0.802	-0.021
Mof_H 	H 	0.8352	0.7968	0.7934	0.028
Mof_C 	C 	0.6269	0.2341	0.4416	0.214
Mof_H 	H 	0.5843	0.2672	0.4642	-0.06
Mof_C 	C 	0.6784	0.2929	0.4066	-0.255
Mof_H 	H 	0.6656	0.3635	0.4042	0.11
Mof_C 	C 	0.7548	0.1444	0.3782	0.127
Mof_H 	H 	0.8006	0.1097	0.3576	-0.02
Mof_C 	C 	0.6958	0.0902	0.4105	-0.156
Mof_H 	H 	0.6974	0.0183	0.4094	0.064
Mof_C 	C 	0.9119	0.3265	0.3534	-0.008
Mof_H 	H 	0.9412	0.2952	0.3809	0.019
Mof_C 	C 	0.9718	0.3895	0.3236	-0.083
Mof_H 	H 	0.0402	0.4024	0.3322	0.048
Mof_C 	C 	0.8284	0.4145	0.2719	-0.079
Mof_H 	H 	0.7976	0.4457	0.2447	0.051
Mof_C 	C 	0.7712	0.3504	0.302	-0.013
Mof_H 	H 	0.7032	0.3352	0.2934	0.026
Mof_C 	C 	0.3731	0.7659	0.4416	0.16
Mof_H 	H 	0.4157	0.7328	0.4642	-0.042
Mof_C 	C 	0.3216	0.7071	0.4066	-0.195
Mof_H 	H 	0.3344	0.6365	0.4042	0.09
Mof_C 	C 	0.2452	0.8556	0.3782	0.066
Mof_H 	H 	0.1994	0.8903	0.3576	-0
Mof_C 	C 	0.3042	0.9098	0.4105	-0.103
Mof_H 	H 	0.3026	0.9817	0.4094	0.042
Mof_C 	C 	0.0881	0.6735	0.3534	-0.024
Mof_H 	H 	0.0588	0.7048	0.3809	0.029
Mof_C 	C 	0.0282	0.6105	0.3236	-0.06
Mof_H 	H 	0.9598	0.5976	0.3322	0.036
Mof_C 	C 	0.1716	0.5855	0.2719	-0.073
Mof_H 	H 	0.2024	0.5543	0.2447	0.049
Mof_C 	C 	0.2288	0.6496	0.302	-0.02
Mof_H 	H 	0.2968	0.6648	0.2934	0.028
Mof_N 	N 	0.3639	0.8639	0.4435	-0.242
Mof_C 	C 	0.2526	0.7526	0.3759	0.064
Mof_C 	C 	0.1901	0.6901	0.3425	-0.02
Mof_C 	C 	0.0674	0.5674	0.2823	0.101
Mof_N 	N 	0.6361	0.1361	0.4435	-0.244
Mof_C 	C 	0.7474	0.2474	0.3759	0.06
Mof_C 	C 	0.8099	0.3099	0.3425	-0.02
Mof_C 	C 	0.9326	0.4326	0.2823	0.102
Mof_N 	N 	0.3639	0.1361	0.9435	-0.243
Mof_C 	C 	0.2526	0.2474	0.8759	0.05
Mof_C 	C 	0.1901	0.3099	0.8425	-0.015
Mof_C 	C 	0.0674	0.4326	0.7823	0.102
Mof_N 	N 	0.6361	0.8639	0.0565	-0.233
Mof_C 	C 	0.7474	0.7526	0.1241	0.08
Mof_C 	C 	0.8099	0.6901	0.1575	-0.026
Mof_C 	C 	0.9326	0.5674	0.2177	0.101
Mof_N 	N 	0.3639	0.1361	0.0565	-0.235
Mof_C 	C 	0.2526	0.2474	0.1241	0.073
Mof_C 	C 	0.1901	0.3099	0.1575	-0.019
Mof_C 	C 	0.0674	0.4326	0.2177	0.098
Mof_N 	N 	0.6361	0.1361	0.5565	-0.244
Mof_C 	C 	0.7474	0.2474	0.6241	0.06
Mof_C 	C 	0.8099	0.3099	0.6575	-0.021
Mof_C 	C 	0.9326	0.4326	0.7177	0.103
Mof_N 	N 	0.3639	0.8639	0.5565	-0.242
Mof_C 	C 	0.2526	0.7526	0.6241	0.063
Mof_C 	C 	0.1901	0.6901	0.6575	-0.021
Mof_C 	C 	0.0674	0.5674	0.7177	0.102
Mof_N 	N 	0.6361	0.8639	0.9435	-0.241
Mof_C 	C 	0.7474	0.7526	0.8759	0.056
Mof_C 	C 	0.8099	0.6901	0.8425	-0.022
Mof_C 	C 	0.9326	0.5674	0.7823	0.105
Mof_C 	C 	7.19588e-33	0.5	0.25	-0.125
Mof_C 	C 	5.90463e-33	0.5	0.75	-0.128
Mof_Cu	Cu	0.43388	0.93388	0.5	0.798
Mof_Cu	Cu	0.56612	0.06612	0.5	0.799
Mof_Cu	Cu	0.56612	0.93388	-0	0.792
Mof_Cu	Cu	0.43388	0.06612	-0	0.794
Mof_I 	I 	0.37945	0.12055	0.5	-0.468
Mof_I 	I 	0.62055	0.87945	0.5	-0.475
Mof_I 	I 	0.62055	0.12055	-0	-0.494
Mof_I 	I 	0.37945	0.87945	-0	-0.497
Mof_C 	C 	0.7659	0.3731	0.9416	0.322
Mof_H 	H 	0.7328	0.4157	0.9642	-0.089
Mof_C 	C 	0.7071	0.3216	0.9066	-0.364
Mof_H 	H 	0.6365	0.3344	0.9042	0.148
Mof_C 	C 	0.8556	0.2452	0.8782	0.246
Mof_H 	H 	0.8903	0.1994	0.8576	-0.059
Mof_C 	C 	0.9098	0.3042	0.9105	-0.262
Mof_H 	H 	0.9817	0.3026	0.9094	0.1
Mof_C 	C 	0.6735	0.0881	0.8534	-0.017
Mof_H 	H 	0.7048	0.0588	0.8809	0.023
Mof_C 	C 	0.6105	0.0282	0.8236	-0.062
Mof_H 	H 	0.5976	0.9598	0.8322	0.038
Mof_C 	C 	0.5855	0.1716	0.7719	-0.073
Mof_H 	H 	0.5543	0.2024	0.7447	0.049
Mof_C 	C 	0.6496	0.2288	0.802	-0.022
Mof_H 	H 	0.6648	0.2968	0.7934	0.029
Mof_C 	C 	0.2341	0.6269	0.9416	0.377
Mof_H 	H 	0.2672	0.5843	0.9642	-0.107
Mof_C 	C 	0.2929	0.6784	0.9066	-0.425
Mof_H 	H 	0.3635	0.6656	0.9042	0.167
Mof_C 	C 	0.1444	0.7548	0.8782	0.307
Mof_H 	H 	0.1097	0.8006	0.8576	-0.078
Mof_C 	C 	0.0902	0.6958	0.9105	-0.315
Mof_H 	H 	0.0183	0.6974	0.9094	0.122
Mof_C 	C 	0.3265	0.9119	0.8534	-0.001
Mof_H 	H 	0.2952	0.9412	0.8809	0.013
Mof_C 	C 	0.3895	0.9718	0.8236	-0.085
Mof_H 	H 	0.4024	0.0402	0.8322	0.05
Mof_C 	C 	0.4145	0.8284	0.7719	-0.08
Mof_H 	H 	0.4457	0.7976	0.7447	0.051
Mof_C 	C 	0.3504	0.7712	0.802	-0.015
Mof_H 	H 	0.3352	0.7032	0.7934	0.026
Mof_C 	C 	0.1269	0.2659	0.4416	0.214
Mof_H 	H 	0.0843	0.2328	0.4642	-0.059
Mof_C 	C 	0.1784	0.2071	0.4066	-0.254
Mof_H 	H 	0.1656	0.1365	0.4042	0.11
Mof_C 	C 	0.2548	0.3556	0.3782	0.129
Mof_H 	H 	0.3006	0.3903	0.3576	-0.021
Mof_C 	C 	0.1958	0.4098	0.4105	-0.157
Mof_H 	H 	0.1974	0.4817	0.4094	0.063
Mof_C 	C 	0.4119	0.1735	0.3534	-0.012
Mof_H 	H 	0.4412	0.2048	0.3809	0.022
Mof_C 	C 	0.4718	0.1105	0.3236	-0.075
Mof_H 	H 	0.5402	0.0976	0.3322	0.043
Mof_C 	C 	0.3284	0.0855	0.2719	-0.078
Mof_H 	H 	0.2976	0.0543	0.2447	0.053
Mof_C 	C 	0.2712	0.1496	0.302	-0.014
Mof_H 	H 	0.2032	0.1648	0.2934	0.027
Mof_C 	C 	0.8731	0.7341	0.4416	0.16
Mof_H 	H 	0.9157	0.7672	0.4642	-0.043
Mof_C 	C 	0.8216	0.7929	0.4066	-0.196
Mof_H 	H 	0.8344	0.8635	0.4042	0.09
Mof_C 	C 	0.7452	0.6444	0.3782	0.064
Mof_H 	H 	0.6994	0.6097	0.3576	0.001
Mof_C 	C 	0.8042	0.5902	0.4105	-0.102
Mof_H 	H 	0.8026	0.5183	0.4094	0.043
Mof_C 	C 	0.5881	0.8265	0.3534	-0.02
Mof_H 	H 	0.5588	0.7952	0.3809	0.026
Mof_C 	C 	0.5282	0.8895	0.3236	-0.068
Mof_H 	H 	0.4598	0.9024	0.3322	0.042
Mof_C 	C 	0.6716	0.9145	0.2719	-0.073
Mof_H 	H 	0.7024	0.9457	0.2447	0.048
Mof_C 	C 	0.7288	0.8504	0.302	-0.019
Mof_H 	H 	0.7968	0.8352	0.2934	0.027
Mof_C 	C 	0.2341	0.3731	0.5584	0.227
Mof_H 	H 	0.2672	0.4157	0.5358	-0.064
Mof_C 	C 	0.2929	0.3216	0.5934	-0.269
Mof_H 	H 	0.3635	0.3344	0.5958	0.115
Mof_C 	C 	0.1444	0.2452	0.6218	0.142
Mof_H 	H 	0.1097	0.1994	0.6424	-0.024
Mof_C 	C 	0.0902	0.3042	0.5895	-0.169
Mof_H 	H 	0.0183	0.3026	0.5906	0.069
Mof_C 	C 	0.3265	0.0881	0.6466	-0.024
Mof_H 	H 	0.2952	0.0588	0.6191	0.029
Mof_C 	C 	0.3895	0.0282	0.6764	-0.059
Mof_H 	H 	0.4024	0.9598	0.6678	0.036
Mof_C 	C 	0.4145	0.1716	0.7281	-0.073
Mof_H 	H 	0.4457	0.2024	0.7553	0.048
Mof_C 	C 	0.3504	0.2288	0.698	-0.022
Mof_H 	H 	0.3352	0.2968	0.7066	0.029
Mof_C 	C 	0.7659	0.6269	0.5584	0.172
Mof_H 	H 	0.7328	0.5843	0.5358	-0.047
Mof_C 	C 	0.7071	0.6784	0.5934	-0.208
Mof_H 	H 	0.6365	0.6656	0.5958	0.095
Mof_C 	C 	0.8556	0.7548	0.6218	0.079
Mof_H 	H 	0.8903	0.8006	0.6424	-0.005
Mof_C 	C 	0.9098	0.6958	0.5895	-0.115
Mof_H 	H 	0.9817	0.6974	0.5906	0.046
Mof_C 	C 	0.6735	0.9119	0.6466	-0.007
Mof_H 	H 	0.7048	0.9412	0.6191	0.017
Mof_C 	C 	0.6105	0.9718	0.6764	-0.084
Mof_H 	H 	0.5976	0.0402	0.6678	0.049
Mof_C 	C 	0.5855	0.8284	0.7281	-0.081
Mof_H 	H 	0.5543	0.7976	0.7553	0.051
Mof_C 	C 	0.6496	0.7712	0.698	-0.011
Mof_H 	H 	0.6648	0.7032	0.7066	0.025
Mof_C 	C 	0.8731	0.2659	0.0584	-0.086
Mof_H 	H 	0.9157	0.2328	0.0358	0.034
Mof_C 	C 	0.8216	0.2071	0.0934	0.07
Mof_H 	H 	0.8344	0.1365	0.0958	0.003
Mof_C 	C 	0.7452	0.3556	0.1218	-0.215
Mof_H 	H 	0.6994	0.3903	0.1424	0.092
Mof_C 	C 	0.8042	0.4098	0.0895	0.139
Mof_H 	H 	0.8026	0.4817	0.0906	-0.041
Mof_C 	C 	0.5881	0.1735	0.1466	-0.02
Mof_H 	H 	0.5588	0.2048	0.1191	0.032
Mof_C 	C 	0.5282	0.1105	0.1764	-0.072
Mof_H 	H 	0.4598	0.0976	0.1678	0.042
Mof_C 	C 	0.6716	0.0855	0.2281	-0.08
Mof_H 	H 	0.7024	0.0543	0.2553	0.052
Mof_C 	C 	0.7288	0.1496	0.198	-0.009
Mof_H 	H 	0.7968	0.1648	0.2066	0.026
Mof_C 	C 	0.1269	0.7341	0.0584	-0.033
Mof_H 	H 	0.0843	0.7672	0.0358	0.018
Mof_C 	C 	0.1784	0.7929	0.0934	0.013
Mof_H 	H 	0.1656	0.8635	0.0958	0.022
Mof_C 	C 	0.2548	0.6444	0.1218	-0.151
Mof_H 	H 	0.3006	0.6097	0.1424	0.071
Mof_C 	C 	0.1958	0.5902	0.0895	0.085
Mof_H 	H 	0.1974	0.5183	0.0906	-0.021
Mof_C 	C 	0.4119	0.8265	0.1466	-0.03
Mof_H 	H 	0.4412	0.7952	0.1191	0.038
Mof_C 	C 	0.4718	0.8895	0.1764	-0.064
Mof_H 	H 	0.5402	0.9024	0.1678	0.04
Mof_C 	C 	0.3284	0.9145	0.2281	-0.073
Mof_H 	H 	0.2976	0.9457	0.2553	0.047
Mof_C 	C 	0.2712	0.8504	0.198	-0.018
Mof_H 	H 	0.2032	0.8352	0.2066	0.028
Mof_C 	C 	0.2341	0.6269	0.0584	-0.032
Mof_H 	H 	0.2672	0.5843	0.0358	0.017
Mof_C 	C 	0.2929	0.6784	0.0934	0.011
Mof_H 	H 	0.3635	0.6656	0.0958	0.022
Mof_C 	C 	0.1444	0.7548	0.1218	-0.153
Mof_H 	H 	0.1097	0.8006	0.1424	0.072
Mof_C 	C 	0.0902	0.6958	0.0895	0.085
Mof_H 	H 	0.0183	0.6974	0.0906	-0.019
Mof_C 	C 	0.3265	0.9119	0.1466	-0.018
Mof_H 	H 	0.2952	0.9412	0.1191	0.03
Mof_C 	C 	0.3895	0.9718	0.1764	-0.08
Mof_H 	H 	0.4024	0.0402	0.1678	0.047
Mof_C 	C 	0.4145	0.8284	0.2281	-0.08
Mof_H 	H 	0.4457	0.7976	0.2553	0.051
Mof_C 	C 	0.3504	0.7712	0.198	-0.01
Mof_H 	H 	0.3352	0.7032	0.2066	0.026
Mof_C 	C 	0.7659	0.3731	0.0584	-0.087
Mof_H 	H 	0.7328	0.4157	0.0358	0.035
Mof_C 	C 	0.7071	0.3216	0.0934	0.072
Mof_H 	H 	0.6365	0.3344	0.0958	0.002
Mof_C 	C 	0.8556	0.2452	0.1218	-0.214
Mof_H 	H 	0.8903	0.1994	0.1424	0.091
Mof_C 	C 	0.9098	0.3042	0.0895	0.139
Mof_H 	H 	0.9817	0.3026	0.0906	-0.042
Mof_C 	C 	0.6735	0.0881	0.1466	-0.033
Mof_H 	H 	0.7048	0.0588	0.1191	0.04
Mof_C 	C 	0.6105	0.0282	0.1764	-0.056
Mof_H 	H 	0.5976	0.9598	0.1678	0.035
Mof_C 	C 	0.5855	0.1716	0.2281	-0.074
Mof_H 	H 	0.5543	0.2024	0.2553	0.049
Mof_C 	C 	0.6496	0.2288	0.198	-0.017
Mof_H 	H 	0.6648	0.2968	0.2066	0.028
Mof_C 	C 	0.8731	0.7341	0.5584	0.173
Mof_H 	H 	0.9157	0.7672	0.5358	-0.048
Mof_C 	C 	0.8216	0.7929	0.5934	-0.21
Mof_H 	H 	0.8344	0.8635	0.5958	0.094
Mof_C 	C 	0.7452	0.6444	0.6218	0.078
Mof_H 	H 	0.6994	0.6097	0.6424	-0.004
Mof_C 	C 	0.8042	0.5902	0.5895	-0.114
Mof_H 	H 	0.8026	0.5183	0.5906	0.047
Mof_C 	C 	0.5881	0.8265	0.6466	-0.019
Mof_H 	H 	0.5588	0.7952	0.6191	0.026
Mof_C 	C 	0.5282	0.8895	0.6764	-0.068
Mof_H 	H 	0.4598	0.9024	0.6678	0.042
Mof_C 	C 	0.6716	0.9145	0.7281	-0.075
Mof_H 	H 	0.7024	0.9457	0.7553	0.047
Mof_C 	C 	0.7288	0.8504	0.698	-0.019
Mof_H 	H 	0.7968	0.8352	0.7066	0.027
Mof_C 	C 	0.1269	0.2659	0.5584	0.226
Mof_H 	H 	0.0843	0.2328	0.5358	-0.063
Mof_C 	C 	0.1784	0.2071	0.5934	-0.268
Mof_H 	H 	0.1656	0.1365	0.5958	0.115
Mof_C 	C 	0.2548	0.3556	0.6218	0.144
Mof_H 	H 	0.3006	0.3903	0.6424	-0.025
Mof_C 	C 	0.1958	0.4098	0.5895	-0.17
Mof_H 	H 	0.1974	0.4817	0.5906	0.067
Mof_C 	C 	0.4119	0.1735	0.6466	-0.011
Mof_H 	H 	0.4412	0.2048	0.6191	0.021
Mof_C 	C 	0.4718	0.1105	0.6764	-0.075
Mof_H 	H 	0.5402	0.0976	0.6678	0.043
Mof_C 	C 	0.3284	0.0855	0.7281	-0.08
Mof_H 	H 	0.2976	0.0543	0.7553	0.052
Mof_C 	C 	0.2712	0.1496	0.698	-0.014
Mof_H 	H 	0.2032	0.1648	0.7066	0.027
Mof_C 	C 	0.7659	0.6269	0.4416	0.159
Mof_H 	H 	0.7328	0.5843	0.4642	-0.042
Mof_C 	C 	0.7071	0.6784	0.4066	-0.195
Mof_H 	H 	0.6365	0.6656	0.4042	0.09
Mof_C 	C 	0.8556	0.7548	0.3782	0.065
Mof_H 	H 	0.8903	0.8006	0.3576	-0.001
Mof_C 	C 	0.9098	0.6958	0.4105	-0.102
Mof_H 	H 	0.9817	0.6974	0.4094	0.041
Mof_C 	C 	0.6735	0.9119	0.3534	-0.008
Mof_H 	H 	0.7048	0.9412	0.3809	0.018
Mof_C 	C 	0.6105	0.9718	0.3236	-0.084
Mof_H 	H 	0.5976	0.0402	0.3322	0.049
Mof_C 	C 	0.5855	0.8284	0.2719	-0.08
Mof_H 	H 	0.5543	0.7976	0.2447	0.052
Mof_C 	C 	0.6496	0.7712	0.302	-0.011
Mof_H 	H 	0.6648	0.7032	0.2934	0.025
Mof_C 	C 	0.2341	0.3731	0.4416	0.214
Mof_H 	H 	0.2672	0.4157	0.4642	-0.06
Mof_C 	C 	0.2929	0.3216	0.4066	-0.255
Mof_H 	H 	0.3635	0.3344	0.4042	0.11
Mof_C 	C 	0.1444	0.2452	0.3782	0.128
Mof_H 	H 	0.1097	0.1994	0.3576	-0.019
Mof_C 	C 	0.0902	0.3042	0.4105	-0.157
Mof_H 	H 	0.0183	0.3026	0.4094	0.065
Mof_C 	C 	0.3265	0.0881	0.3534	-0.025
Mof_H 	H 	0.2952	0.0588	0.3809	0.03
Mof_C 	C 	0.3895	0.0282	0.3236	-0.059
Mof_H 	H 	0.4024	0.9598	0.3322	0.036
Mof_C 	C 	0.4145	0.1716	0.2719	-0.072
Mof_H 	H 	0.4457	0.2024	0.2447	0.049
Mof_C 	C 	0.3504	0.2288	0.302	-0.022
Mof_H 	H 	0.3352	0.2968	0.2934	0.029
Mof_C 	C 	0.1269	0.7341	0.9416	0.375
Mof_H 	H 	0.0843	0.7672	0.9642	-0.106
Mof_C 	C 	0.1784	0.7929	0.9066	-0.423
Mof_H 	H 	0.1656	0.8635	0.9042	0.167
Mof_C 	C 	0.2548	0.6444	0.8782	0.309
Mof_H 	H 	0.3006	0.6097	0.8576	-0.079
Mof_C 	C 	0.1958	0.5902	0.9105	-0.316
Mof_H 	H 	0.1974	0.5183	0.9094	0.121
Mof_C 	C 	0.4119	0.8265	0.8534	-0.014
Mof_H 	H 	0.4412	0.7952	0.8809	0.021
Mof_C 	C 	0.4718	0.8895	0.8236	-0.069
Mof_H 	H 	0.5402	0.9024	0.8322	0.043
Mof_C 	C 	0.3284	0.9145	0.7719	-0.073
Mof_H 	H 	0.2976	0.9457	0.7447	0.047
Mof_C 	C 	0.2712	0.8504	0.802	-0.023
Mof_H 	H 	0.2032	0.8352	0.7934	0.029
Mof_C 	C 	0.8731	0.2659	0.9416	0.323
Mof_H 	H 	0.9157	0.2328	0.9642	-0.09
Mof_C 	C 	0.8216	0.2071	0.9066	-0.366
Mof_H 	H 	0.8344	0.1365	0.9042	0.148
Mof_C 	C 	0.7452	0.3556	0.8782	0.245
Mof_H 	H 	0.6994	0.3903	0.8576	-0.058
Mof_C 	C 	0.8042	0.4098	0.9105	-0.261
Mof_H 	H 	0.8026	0.4817	0.9094	0.102
Mof_C 	C 	0.5881	0.1735	0.8534	-0.004
Mof_H 	H 	0.5588	0.2048	0.8809	0.015
Mof_C 	C 	0.5282	0.1105	0.8236	-0.078
Mof_H 	H 	0.4598	0.0976	0.8322	0.045
Mof_C 	C 	0.6716	0.0855	0.7719	-0.08
Mof_H 	H 	0.7024	0.0543	0.7447	0.052
Mof_C 	C 	0.7288	0.1496	0.802	-0.014
Mof_H 	H 	0.7968	0.1648	0.7934	0.026
Mof_N 	N 	0.1361	0.3639	0.4435	-0.244
Mof_C 	C 	0.2474	0.2526	0.3759	0.059
Mof_C 	C 	0.3099	0.1901	0.3425	-0.017
Mof_C 	C 	0.4326	0.0674	0.2823	0.1
Mof_N 	N 	0.8639	0.6361	0.4435	-0.242
Mof_C 	C 	0.7526	0.7474	0.3759	0.065
Mof_C 	C 	0.6901	0.8099	0.3425	-0.024
Mof_C 	C 	0.5674	0.9326	0.2823	0.103
Mof_N 	N 	0.8639	0.3639	0.0565	-0.233
Mof_C 	C 	0.7526	0.2526	0.1241	0.078
Mof_C 	C 	0.6901	0.1901	0.1575	-0.023
Mof_C 	C 	0.5674	0.0674	0.2177	0.099
Mof_N 	N 	0.1361	0.6361	0.0565	-0.235
Mof_C 	C 	0.2474	0.7474	0.1241	0.075
Mof_C 	C 	0.3099	0.8099	0.1575	-0.022
Mof_C 	C 	0.4326	0.9326	0.2177	0.1
Mof_N 	N 	0.8639	0.6361	0.5565	-0.242
Mof_C 	C 	0.7526	0.7474	0.6241	0.065
Mof_C 	C 	0.6901	0.8099	0.6575	-0.024
Mof_C 	C 	0.5674	0.9326	0.7177	0.104
Mof_N 	N 	0.1361	0.3639	0.5565	-0.244
Mof_C 	C 	0.2474	0.2526	0.6241	0.058
Mof_C 	C 	0.3099	0.1901	0.6575	-0.017
Mof_C 	C 	0.4326	0.0674	0.7177	0.101
Mof_N 	N 	0.1361	0.6361	0.9435	-0.243
Mof_C 	C 	0.2474	0.7474	0.8759	0.051
Mof_C 	C 	0.3099	0.8099	0.8425	-0.019
Mof_C 	C 	0.4326	0.9326	0.7823	0.103
Mof_N 	N 	0.8639	0.3639	0.9435	-0.241
Mof_C 	C 	0.7526	0.2526	0.8759	0.055
Mof_C 	C 	0.6901	0.1901	0.8425	-0.019
Mof_C 	C 	0.5674	0.0674	0.7823	0.103
Mof_C 	C 	0.5	0	0.25	-0.125
Mof_C 	C 	0.5	-2.09107e-32	0.75	-0.128
Mof_Cu	Cu	0.06612	0.43388	0.5	0.799
Mof_Cu	Cu	0.93388	0.56612	0.5	0.797
Mof_Cu	Cu	0.93388	0.43388	-0	0.792
Mof_Cu	Cu	0.06612	0.56612	-0	0.794
Mof_I 	I 	0.87945	0.37945	0.5	-0.473
Mof_I 	I 	0.12055	0.62055	0.5	-0.469
Mof_I 	I 	0.12055	0.37945	-0	-0.492
Mof_I 	I 	0.87945	0.62055	-0	-0.499
_end
