data_functionalizedCrystal
_audit_creation_method	'EQeq! by Chris Wilmer'
_symmetry_space_group_name_H-M	'P1'
_symmetry_Int_Tables_number	1
_symmetry_cell_setting	triclinic
loop_
_symmetry_equiv_pos_as_xyz
  x,y,z
_cell_length_a	20.0407
_cell_length_b	10.0674
_cell_length_c	18.9273
_cell_angle_alpha	90
_cell_angle_beta	101.3
_cell_angle_gamma	90
loop_
_atom_site_label
_atom_site_type_symbol
_atom_site_fract_x
_atom_site_fract_y
_atom_site_fract_z
_atom_site_charge
Mof_Cd	Cd	0.90519	0.94938	0.9738	0.506
Mof_O 	O 	0.79174	0.8903	0.92129	-0.309
Mof_O 	O 	0.85008	0.0002	0.85739	-0.27
Mof_O 	O 	0.00426	0.9185	0.93373	-0.269
Mof_O 	O 	0.89749	0.1593	0.00833	-0.282
Mof_O 	O 	0.93494	0.776	0.04125	-0.299
Mof_C 	C 	0.79475	0.9516	0.86492	0.335
Mof_O 	O 	0.65307	0.8619	0.99228	-0.279
Mof_C 	C 	0.73356	0.9688	0.80664	-0.124
Mof_C 	C 	0.73434	0.0572	0.75098	0.067
Mof_C 	C 	0.6745	0.8999	0.8079	0.068
Mof_H 	H 	0.7739	0.1042	0.7492	0.029
Mof_C 	C 	0.67681	0.0771	0.69748	-0.135
Mof_C 	C 	0.6171	0.9194	0.7552	-0.136
Mof_H 	H 	0.6732	0.8394	0.8448	0.02
Mof_H 	H 	0.6785	0.136	0.6601	0.091
Mof_C 	C 	0.61704	0.0096	0.69962	0.089
Mof_H 	H 	0.5778	0.8714	0.7569	0.087
Mof_C 	C 	0.55406	0.0327	0.64522	-0.011
Mof_C 	C 	0.5347	0.1616	0.62281	-0.025
Mof_C 	C 	0.51208	0.9279	0.61614	-0.03
Mof_H 	H 	0.5627	0.2326	0.6406	0.058
Mof_C 	C 	0.4741	0.1853	0.5742	-0.055
Mof_C 	C 	0.45126	0.9515	0.56869	-0.059
Mof_H 	H 	0.5251	0.8411	0.6288	0.064
Mof_C 	C 	0.43208	0.0802	0.54811	0.002
Mof_C 	C 	0.45459	0.3235	0.54794	0.301
Mof_C 	C 	0.4069	0.8368	0.53648	0.313
Mof_H 	H 	0.3909	0.0958	0.5168	0.064
Mof_Cd	Cd	0.40519	0.44938	0.9738	0.511
Mof_O 	O 	0.29174	0.3903	0.92129	-0.306
Mof_O 	O 	0.35008	0.5002	0.85739	-0.27
Mof_O 	O 	0.50426	0.4185	0.93373	-0.268
Mof_O 	O 	0.39749	0.6593	0.00833	-0.284
Mof_O 	O 	0.43494	0.276	0.04125	-0.301
Mof_C 	C 	0.29475	0.4516	0.86492	0.335
Mof_O 	O 	0.15307	0.3619	0.99228	-0.277
Mof_C 	C 	0.23356	0.4688	0.80664	-0.12
Mof_C 	C 	0.23434	0.5572	0.75098	0.062
Mof_C 	C 	0.1745	0.3999	0.8079	0.065
Mof_H 	H 	0.2739	0.6042	0.7492	0.031
Mof_C 	C 	0.17681	0.5771	0.69748	-0.131
Mof_C 	C 	0.1171	0.4194	0.7552	-0.131
Mof_H 	H 	0.1732	0.3394	0.8448	0.022
Mof_H 	H 	0.1785	0.636	0.6601	0.09
Mof_C 	C 	0.11704	0.5096	0.69962	0.086
Mof_H 	H 	0.0778	0.3714	0.7569	0.086
Mof_C 	C 	0.05406	0.5327	0.64522	-0.011
Mof_C 	C 	0.0347	0.6616	0.62281	-0.026
Mof_C 	C 	0.01208	0.4279	0.61614	-0.029
Mof_H 	H 	0.0627	0.7326	0.6406	0.058
Mof_C 	C 	0.9741	0.6853	0.5742	-0.055
Mof_C 	C 	0.95126	0.4515	0.56869	-0.058
Mof_H 	H 	0.0251	0.3411	0.6288	0.064
Mof_C 	C 	0.93208	0.5802	0.54811	0.001
Mof_C 	C 	0.95459	0.8235	0.54794	0.301
Mof_C 	C 	0.9069	0.3368	0.53648	0.313
Mof_H 	H 	0.8909	0.5958	0.5168	0.064
Mof_Cd	Cd	0.09481	0.94938	0.5262	0.485
Mof_O 	O 	0.20826	0.8903	0.57871	-0.317
Mof_O 	O 	0.14992	0.0002	0.64261	-0.271
Mof_O 	O 	0.99574	0.9185	0.56627	-0.275
Mof_O 	O 	0.10251	0.1593	0.49167	-0.269
Mof_O 	O 	0.06506	0.776	0.45875	-0.289
Mof_C 	C 	0.20525	0.9516	0.63508	0.338
Mof_O 	O 	0.34693	0.8619	0.50772	-0.294
Mof_C 	C 	0.26644	0.9688	0.69336	-0.129
Mof_C 	C 	0.26566	0.0572	0.74902	0.071
Mof_C 	C 	0.3255	0.8999	0.6921	0.072
Mof_H 	H 	0.2261	0.1042	0.7508	0.028
Mof_C 	C 	0.32319	0.0771	0.80252	-0.137
Mof_C 	C 	0.3829	0.9194	0.7448	-0.139
Mof_H 	H 	0.3268	0.8394	0.6552	0.017
Mof_H 	H 	0.3215	0.136	0.8399	0.095
Mof_C 	C 	0.38296	0.0096	0.80038	0.092
Mof_H 	H 	0.4222	0.8714	0.7431	0.088
Mof_C 	C 	0.44594	0.0327	0.85478	-0.008
Mof_C 	C 	0.4653	0.1616	0.87719	-0.025
Mof_C 	C 	0.48792	0.9279	0.88386	-0.03
Mof_H 	H 	0.4373	0.2326	0.8594	0.059
Mof_C 	C 	0.5259	0.1853	0.9258	-0.05
Mof_C 	C 	0.54874	0.9515	0.93131	-0.053
Mof_H 	H 	0.4749	0.8411	0.8712	0.066
Mof_C 	C 	0.56792	0.0802	0.95189	0.002
Mof_C 	C 	0.54541	0.3235	0.95206	0.301
Mof_C 	C 	0.5931	0.8368	0.96352	0.311
Mof_H 	H 	0.6091	0.0958	0.9832	0.07
Mof_Cd	Cd	0.59481	0.44938	0.5262	0.486
Mof_O 	O 	0.70826	0.3903	0.57871	-0.317
Mof_O 	O 	0.64992	0.5002	0.64261	-0.272
Mof_O 	O 	0.49574	0.4185	0.56627	-0.275
Mof_O 	O 	0.60251	0.6593	0.49167	-0.27
Mof_O 	O 	0.56506	0.276	0.45875	-0.288
Mof_C 	C 	0.70525	0.4516	0.63508	0.338
Mof_O 	O 	0.84693	0.3619	0.50772	-0.294
Mof_C 	C 	0.76644	0.4688	0.69336	-0.124
Mof_C 	C 	0.76566	0.5572	0.74902	0.065
Mof_C 	C 	0.8255	0.3999	0.6921	0.068
Mof_H 	H 	0.7261	0.6042	0.7508	0.03
Mof_C 	C 	0.82319	0.5771	0.80252	-0.132
Mof_C 	C 	0.8829	0.4194	0.7448	-0.133
Mof_H 	H 	0.8268	0.3394	0.6552	0.019
Mof_H 	H 	0.8215	0.636	0.8399	0.093
Mof_C 	C 	0.88296	0.5096	0.80038	0.086
Mof_H 	H 	0.9222	0.3714	0.7431	0.086
Mof_C 	C 	0.94594	0.5327	0.85478	-0.005
Mof_C 	C 	0.9653	0.6616	0.87719	-0.031
Mof_C 	C 	0.98792	0.4279	0.88386	-0.035
Mof_H 	H 	0.9373	0.7326	0.8594	0.06
Mof_C 	C 	0.0259	0.6853	0.9258	-0.045
Mof_C 	C 	0.04874	0.4515	0.93131	-0.047
Mof_H 	H 	0.9749	0.3411	0.8712	0.068
Mof_C 	C 	0.06792	0.5802	0.95189	-0.004
Mof_C 	C 	0.04541	0.8235	0.95206	0.299
Mof_C 	C 	0.0931	0.3368	0.96352	0.309
Mof_H 	H 	0.1091	0.5958	0.9832	0.072
Mof_Cd	Cd	0.09481	0.05062	0.0262	0.462
Mof_O 	O 	0.20826	0.1097	0.07871	-0.32
Mof_O 	O 	0.14992	0.9998	0.14261	-0.275
Mof_O 	O 	0.99574	0.0815	0.06627	-0.28
Mof_O 	O 	0.10251	0.8407	0.99167	-0.254
Mof_O 	O 	0.06506	0.224	0.95875	-0.273
Mof_C 	C 	0.20525	0.0484	0.13508	0.338
Mof_O 	O 	0.34693	0.1381	0.00772	-0.302
Mof_C 	C 	0.26644	0.0312	0.19336	-0.125
Mof_C 	C 	0.26566	0.9428	0.24902	0.064
Mof_C 	C 	0.3255	0.1001	0.1921	0.068
Mof_H 	H 	0.2261	0.8958	0.2508	0.029
Mof_C 	C 	0.32319	0.9229	0.30252	-0.134
Mof_C 	C 	0.3829	0.0806	0.2448	-0.133
Mof_H 	H 	0.3268	0.1606	0.1552	0.018
Mof_H 	H 	0.3215	0.864	0.3399	0.09
Mof_C 	C 	0.38296	0.9904	0.30038	0.087
Mof_H 	H 	0.4222	0.1286	0.2431	0.087
Mof_C 	C 	0.44594	0.9673	0.35478	-0.012
Mof_C 	C 	0.4653	0.8384	0.37719	-0.026
Mof_C 	C 	0.48792	0.0721	0.38386	-0.028
Mof_H 	H 	0.4373	0.7674	0.3594	0.058
Mof_C 	C 	0.5259	0.8147	0.4258	-0.055
Mof_C 	C 	0.54874	0.0485	0.43131	-0.057
Mof_H 	H 	0.4749	0.1589	0.3712	0.063
Mof_C 	C 	0.56792	0.9198	0.45189	-0.001
Mof_C 	C 	0.54541	0.6765	0.45206	0.301
Mof_C 	C 	0.5931	0.1632	0.46352	0.312
Mof_H 	H 	0.6091	0.9042	0.4832	0.064
Mof_Cd	Cd	0.59481	0.55062	0.0262	0.464
Mof_O 	O 	0.70826	0.6097	0.07871	-0.32
Mof_O 	O 	0.64992	0.4998	0.14261	-0.274
Mof_O 	O 	0.49574	0.5815	0.06627	-0.281
Mof_O 	O 	0.60251	0.3407	0.99167	-0.255
Mof_O 	O 	0.56506	0.724	0.95875	-0.275
Mof_C 	C 	0.70525	0.5484	0.13508	0.338
Mof_O 	O 	0.84693	0.6381	0.00772	-0.3
Mof_C 	C 	0.76644	0.5312	0.19336	-0.126
Mof_C 	C 	0.76566	0.4428	0.24902	0.066
Mof_C 	C 	0.8255	0.6001	0.1921	0.069
Mof_H 	H 	0.7261	0.3958	0.2508	0.028
Mof_C 	C 	0.82319	0.4229	0.30252	-0.135
Mof_C 	C 	0.8829	0.5806	0.2448	-0.135
Mof_H 	H 	0.8268	0.6606	0.1552	0.018
Mof_H 	H 	0.8215	0.364	0.3399	0.091
Mof_C 	C 	0.88296	0.4904	0.30038	0.088
Mof_H 	H 	0.9222	0.6286	0.2431	0.087
Mof_C 	C 	0.94594	0.4673	0.35478	-0.013
Mof_C 	C 	0.9653	0.3384	0.37719	-0.024
Mof_C 	C 	0.98792	0.5721	0.38386	-0.027
Mof_H 	H 	0.9373	0.2674	0.3594	0.057
Mof_C 	C 	0.0259	0.3147	0.4258	-0.057
Mof_C 	C 	0.04874	0.5485	0.43131	-0.06
Mof_H 	H 	0.9749	0.6589	0.3712	0.063
Mof_C 	C 	0.06792	0.4198	0.45189	0.002
Mof_C 	C 	0.04541	0.1765	0.45206	0.302
Mof_C 	C 	0.0931	0.6632	0.46352	0.313
Mof_H 	H 	0.1091	0.4042	0.4832	0.064
Mof_Cd	Cd	0.90519	0.05062	0.4738	0.487
Mof_O 	O 	0.79174	0.1097	0.42129	-0.317
Mof_O 	O 	0.85008	0.9998	0.35739	-0.273
Mof_O 	O 	0.00426	0.0815	0.43373	-0.275
Mof_O 	O 	0.89749	0.8407	0.50833	-0.27
Mof_O 	O 	0.93494	0.224	0.54125	-0.288
Mof_C 	C 	0.79475	0.0484	0.36492	0.338
Mof_O 	O 	0.65307	0.1381	0.49228	-0.293
Mof_C 	C 	0.73356	0.0312	0.30664	-0.124
Mof_C 	C 	0.73434	0.9428	0.25098	0.063
Mof_C 	C 	0.6745	0.1001	0.3079	0.067
Mof_H 	H 	0.7739	0.8958	0.2492	0.029
Mof_C 	C 	0.67681	0.9229	0.19748	-0.134
Mof_C 	C 	0.6171	0.0806	0.2552	-0.133
Mof_H 	H 	0.6732	0.1606	0.3448	0.019
Mof_H 	H 	0.6785	0.864	0.1601	0.088
Mof_C 	C 	0.61704	0.9904	0.19962	0.086
Mof_H 	H 	0.5778	0.1286	0.2569	0.086
Mof_C 	C 	0.55406	0.9673	0.14522	-0.015
Mof_C 	C 	0.5347	0.8384	0.12281	-0.025
Mof_C 	C 	0.51208	0.0721	0.11614	-0.029
Mof_H 	H 	0.5627	0.7674	0.1406	0.057
Mof_C 	C 	0.4741	0.8147	0.0742	-0.061
Mof_C 	C 	0.45126	0.0485	0.06869	-0.064
Mof_H 	H 	0.5251	0.1589	0.1288	0.061
Mof_C 	C 	0.43208	0.9198	0.04811	0.002
Mof_C 	C 	0.45459	0.6765	0.04794	0.301
Mof_C 	C 	0.4069	0.1632	0.03648	0.313
Mof_H 	H 	0.3909	0.9042	0.0168	0.059
Mof_Cd	Cd	0.40519	0.55062	0.4738	0.486
Mof_O 	O 	0.29174	0.6097	0.42129	-0.317
Mof_O 	O 	0.35008	0.4998	0.35739	-0.273
Mof_O 	O 	0.50426	0.5815	0.43373	-0.275
Mof_O 	O 	0.39749	0.3407	0.50833	-0.269
Mof_O 	O 	0.43494	0.724	0.54125	-0.288
Mof_C 	C 	0.29475	0.5484	0.36492	0.338
Mof_O 	O 	0.15307	0.6381	0.49228	-0.294
Mof_C 	C 	0.23356	0.5312	0.30664	-0.124
Mof_C 	C 	0.23434	0.4428	0.25098	0.063
Mof_C 	C 	0.1745	0.6001	0.3079	0.067
Mof_H 	H 	0.2739	0.3958	0.2492	0.029
Mof_C 	C 	0.17681	0.4229	0.19748	-0.133
Mof_C 	C 	0.1171	0.5806	0.2552	-0.133
Mof_H 	H 	0.1732	0.6606	0.3448	0.019
Mof_H 	H 	0.1785	0.364	0.1601	0.088
Mof_C 	C 	0.11704	0.4904	0.19962	0.084
Mof_H 	H 	0.0778	0.6286	0.2569	0.086
Mof_C 	C 	0.05406	0.4673	0.14522	-0.011
Mof_C 	C 	0.0347	0.3384	0.12281	-0.031
Mof_C 	C 	0.01208	0.5721	0.11614	-0.035
Mof_H 	H 	0.0627	0.2674	0.1406	0.059
Mof_C 	C 	0.9741	0.3147	0.0742	-0.056
Mof_C 	C 	0.95126	0.5485	0.06869	-0.06
Mof_H 	H 	0.0251	0.6589	0.1288	0.063
Mof_C 	C 	0.93208	0.4198	0.04811	-0.002
Mof_C 	C 	0.95459	0.1765	0.04794	0.3
Mof_C 	C 	0.9069	0.6632	0.03648	0.311
Mof_H 	H 	0.8909	0.4042	0.0168	0.06
Mof_Cd	Cd	0.75	0.75	-0	0.417
Mof_Cd	Cd	0.25	0.25	-0	0.415
Mof_Cd	Cd	0.25	0.75	0.5	0.439
Mof_Cd	Cd	0.75	0.25	0.5	0.439
_end
