data_functionalizedCrystal
_audit_creation_method	'EQeq! by Chris Wilmer'
_symmetry_space_group_name_H-M	'P1'
_symmetry_Int_Tables_number	1
_symmetry_cell_setting	triclinic
loop_
_symmetry_equiv_pos_as_xyz
  x,y,z
_cell_length_a	28.187
_cell_length_b	14.002
_cell_length_c	27.657
_cell_angle_alpha	90
_cell_angle_beta	116.228
_cell_angle_gamma	90
loop_
_atom_site_label
_atom_site_type_symbol
_atom_site_fract_x
_atom_site_fract_y
_atom_site_fract_z
_atom_site_charge
Mof_Cd	Cd	0.19982	0.63155	0.15299	0.396
Mof_Cd	Cd	0.4045	0.37502	0.04978	0.383
Mof_Cd	Cd	0.12435	0.46383	0.22083	0.383
Mof_O 	O 	0.17927	0.47081	0.14634	-0.298
Mof_O 	O 	0.34035	0.5018	0.11905	-0.252
Mof_O 	O 	0.1846	0.37369	0.21237	-0.295
Mof_O 	O 	0.31795	0.10763	0.27146	-0.3
Mof_O 	O 	0.38598	0.3684	0.12425	-0.284
Mof_O 	O 	0.38485	0.1185	0.25161	-0.289
Mof_N 	N 	0.10859	0.0848	0.11115	-0.318
Mof_N 	N 	0.21434	0.115	0.28707	-0.15
Mof_N 	N 	0.31427	0.3842	0.99197	-0.151
Mof_N 	N 	0.23037	0.4329	0.95485	-0.312
Mof_N 	N 	0.19284	0.7932	0.15191	-0.156
Mof_N 	N 	0.06881	0.967	0.15102	-0.313
Mof_N 	N 	0.13586	0.4226	0.93714	-0.315
Mof_N 	N 	0.20305	0.6131	0.07204	-0.152
Mof_N 	N 	0.19263	0.5596	0.99217	-0.317
Mof_N 	N 	0.1489	0.0609	0.212	-0.315
Mof_N 	N 	0.08361	0.1346	0.02706	-0.155
Mof_N 	N 	0.16344	0.5516	0.89225	-0.312
Mof_N 	N 	0.15704	0.9348	0.15074	-0.31
Mof_N 	N 	0.98734	0.9081	0.11247	-0.152
Mof_N 	N 	0.13723	0.5764	0.80465	-0.153
Mof_N 	N 	0.0959	0.2895	0.94339	-0.146
Mof_C 	C 	0.22414	0.8626	0.14536	-0.016
Mof_H 	H 	0.2553	0.8516	0.1425	0.039
Mof_C 	C 	0.01123	0.8795	0.16522	-0.016
Mof_H 	H 	0.9958	0.8416	0.1819	0.051
Mof_C 	C 	0.27247	0.2784	0.2136	0.029
Mof_H 	H 	0.2552	0.2493	0.2316	0.039
Mof_C 	C 	0.32494	0.3669	0.16114	-0.094
Mof_C 	C 	0.31987	0.2409	0.21799	-0.102
Mof_C 	C 	0.23478	0.357	0.92494	0.047
Mof_H 	H 	0.2074	0.3302	0.8947	0.012
Mof_C 	C 	0.34284	0.1511	0.24974	0.304
Mof_C 	C 	0.35338	0.4152	0.13283	0.307
Mof_C 	C 	0.20082	0.4046	0.17956	0.316
Mof_C 	C 	0.06079	0.9152	0.18914	0.049
Mof_H 	H 	0.0851	0.9064	0.2249	0.011
Mof_C 	C 	0.02312	0.9588	0.10596	0.14
Mof_H 	H 	0.0175	0.9865	0.0733	-0.031
Mof_C 	C 	0.34585	0.2852	0.19148	0.024
Mof_H 	H 	0.3774	0.2599	0.1941	0.044
Mof_C 	C 	0.16373	0.521	0.84634	0.141
Mof_H 	H 	0.1811	0.4657	0.8442	-0.023
Mof_C 	C 	0.05854	0.3539	0.9125	-0.018
Mof_H 	H 	0.0222	0.3433	0.8968	0.039
Mof_C 	C 	0.18272	0.5463	0.03522	0.142
Mof_H 	H 	0.1634	0.4949	0.0385	-0.02
Mof_C 	C 	0.20241	0.9496	0.14378	0.048
Mof_H 	H 	0.2154	0.008	0.139	0.005
Mof_C 	C 	0.2771	0.4036	0.15609	0.028
Mof_H 	H 	0.2627	0.4576	0.1351	0.04
Mof_C 	C 	0.1337	0.6343	0.87777	0.046
Mof_H 	H 	0.1258	0.6731	0.9005	0.004
Mof_C 	C 	0.15366	0.8398	0.15504	0.141
Mof_H 	H 	0.1265	0.81	0.1597	-0.027
Mof_C 	C 	0.09803	0.0614	0.05999	0.132
Mof_H 	H 	0.1007	0.9995	0.0492	-0.03
Mof_C 	C 	0.20135	0.0655	0.24256	0.143
Mof_H 	H 	0.2259	0.0368	0.2333	-0.014
Mof_C 	C 	0.12742	0.1133	0.23943	0.055
Mof_H 	H 	0.0917	0.1255	0.2284	0.002
Mof_C 	C 	0.11834	0.6486	0.82464	-0.022
Mof_H 	H 	0.098	0.6997	0.8047	0.034
Mof_C 	C 	0.28582	0.3288	0.9474	-0.02
Mof_H 	H 	0.2996	0.2797	0.9347	0.041
Mof_C 	C 	0.10082	0.1818	0.11014	0.056
Mof_H 	H 	0.1048	0.2199	0.1392	0.004
Mof_C 	C 	0.27985	0.4444	0.99458	0.133
Mof_H 	H 	0.2887	0.4908	0.0213	-0.01
Mof_C 	C 	0.223	0.6408	0.00401	0.053
Mof_H 	H 	0.237	0.6688	0.9826	-0.002
Mof_C 	C 	0.14156	0.3333	0.957	0.14
Mof_H 	H 	0.1742	0.3054	0.9781	-0.021
Mof_C 	C 	0.08201	0.4352	0.908	0.053
Mof_H 	H 	0.065	0.4895	0.8888	0
Mof_C 	C 	0.2288	0.6725	0.05242	-0.017
Mof_H 	H 	0.2476	0.7268	0.0698	0.035
Mof_C 	C 	0.16788	0.1438	0.28543	-0.01
Mof_H 	H 	0.1644	0.1794	0.312	0.042
Mof_C 	C 	0.0864	0.2116	0.05926	-0.027
Mof_H 	H 	0.0794	0.2746	0.0476	0.041
Mof_C 	C 	0.25078	0.3596	0.18235	-0.1
Mof_B 	B 	0.18059	0.4921	0.9444	0.942
Mof_B 	B 	0.12084	0.0126	0.15664	0.942
Mof_Cd	Cd	0.69982	0.13155	0.15299	0.397
Mof_Cd	Cd	0.9045	0.87502	0.04978	0.385
Mof_Cd	Cd	0.62435	0.96383	0.22083	0.385
Mof_O 	O 	0.67927	0.97081	0.14634	-0.296
Mof_O 	O 	0.84035	0.0018	0.11905	-0.253
Mof_O 	O 	0.6846	0.87369	0.21237	-0.294
Mof_O 	O 	0.81795	0.60763	0.27146	-0.299
Mof_O 	O 	0.88598	0.8684	0.12425	-0.284
Mof_O 	O 	0.88485	0.6185	0.25161	-0.288
Mof_N 	N 	0.60859	0.5848	0.11115	-0.318
Mof_N 	N 	0.71434	0.615	0.28707	-0.149
Mof_N 	N 	0.81427	0.8842	0.99197	-0.15
Mof_N 	N 	0.73037	0.9329	0.95485	-0.311
Mof_N 	N 	0.69284	0.2932	0.15191	-0.156
Mof_N 	N 	0.56881	0.467	0.15102	-0.314
Mof_N 	N 	0.63586	0.9226	0.93714	-0.315
Mof_N 	N 	0.70305	0.1131	0.07204	-0.152
Mof_N 	N 	0.69263	0.0596	0.99217	-0.313
Mof_N 	N 	0.6489	0.5609	0.212	-0.315
Mof_N 	N 	0.58361	0.6346	0.02706	-0.155
Mof_N 	N 	0.66344	0.0516	0.89225	-0.311
Mof_N 	N 	0.65704	0.4348	0.15074	-0.311
Mof_N 	N 	0.48734	0.4081	0.11247	-0.153
Mof_N 	N 	0.63723	0.0764	0.80465	-0.153
Mof_N 	N 	0.5959	0.7895	0.94339	-0.146
Mof_C 	C 	0.72414	0.3626	0.14536	-0.015
Mof_H 	H 	0.7553	0.3516	0.1425	0.039
Mof_C 	C 	0.51123	0.3795	0.16522	-0.016
Mof_H 	H 	0.4958	0.3416	0.1819	0.051
Mof_C 	C 	0.77247	0.7784	0.2136	0.029
Mof_H 	H 	0.7552	0.7493	0.2316	0.039
Mof_C 	C 	0.82494	0.8669	0.16114	-0.094
Mof_C 	C 	0.81987	0.7409	0.21799	-0.102
Mof_C 	C 	0.73478	0.857	0.92494	0.046
Mof_H 	H 	0.7074	0.8302	0.8947	0.012
Mof_C 	C 	0.84284	0.6511	0.24974	0.304
Mof_C 	C 	0.85338	0.9152	0.13283	0.308
Mof_C 	C 	0.70082	0.9046	0.17956	0.316
Mof_C 	C 	0.56079	0.4152	0.18914	0.048
Mof_H 	H 	0.5851	0.4064	0.2249	0.011
Mof_C 	C 	0.52312	0.4588	0.10596	0.14
Mof_H 	H 	0.5175	0.4865	0.0733	-0.031
Mof_C 	C 	0.84585	0.7852	0.19148	0.024
Mof_H 	H 	0.8774	0.7599	0.1941	0.044
Mof_C 	C 	0.66373	0.021	0.84634	0.143
Mof_H 	H 	0.6811	0.9657	0.8442	-0.024
Mof_C 	C 	0.55854	0.8539	0.9125	-0.018
Mof_H 	H 	0.5222	0.8433	0.8968	0.038
Mof_C 	C 	0.68272	0.0463	0.03522	0.136
Mof_H 	H 	0.6634	0.9949	0.0385	-0.017
Mof_C 	C 	0.70241	0.4496	0.14378	0.045
Mof_H 	H 	0.7154	0.508	0.139	0.007
Mof_C 	C 	0.7771	0.9036	0.15609	0.028
Mof_H 	H 	0.7627	0.9576	0.1351	0.04
Mof_C 	C 	0.6337	0.1343	0.87777	0.046
Mof_H 	H 	0.6258	0.1731	0.9005	0.005
Mof_C 	C 	0.65366	0.3398	0.15504	0.141
Mof_H 	H 	0.6265	0.31	0.1597	-0.027
Mof_C 	C 	0.59803	0.5614	0.05999	0.135
Mof_H 	H 	0.6007	0.4995	0.0492	-0.032
Mof_C 	C 	0.70135	0.5655	0.24256	0.143
Mof_H 	H 	0.7259	0.5368	0.2333	-0.014
Mof_C 	C 	0.62742	0.6133	0.23943	0.055
Mof_H 	H 	0.5917	0.6255	0.2284	0.002
Mof_C 	C 	0.61834	0.1486	0.82464	-0.022
Mof_H 	H 	0.598	0.1997	0.8047	0.034
Mof_C 	C 	0.78582	0.8288	0.9474	-0.02
Mof_H 	H 	0.7996	0.7797	0.9347	0.041
Mof_C 	C 	0.60082	0.6818	0.11014	0.056
Mof_H 	H 	0.6048	0.7199	0.1392	0.004
Mof_C 	C 	0.77985	0.9444	0.99458	0.129
Mof_H 	H 	0.7887	0.9908	0.0213	-0.007
Mof_C 	C 	0.723	0.1408	0.00401	0.046
Mof_H 	H 	0.737	0.1688	0.9826	0.002
Mof_C 	C 	0.64156	0.8333	0.957	0.139
Mof_H 	H 	0.6742	0.8054	0.9781	-0.021
Mof_C 	C 	0.58201	0.9352	0.908	0.052
Mof_H 	H 	0.565	0.9895	0.8888	0
Mof_C 	C 	0.7288	0.1725	0.05242	-0.013
Mof_H 	H 	0.7476	0.2268	0.0698	0.033
Mof_C 	C 	0.66788	0.6438	0.28543	-0.01
Mof_H 	H 	0.6644	0.6794	0.312	0.042
Mof_C 	C 	0.5864	0.7116	0.05926	-0.027
Mof_H 	H 	0.5794	0.7746	0.0476	0.042
Mof_C 	C 	0.75078	0.8596	0.18235	-0.1
Mof_B 	B 	0.68059	0.9921	0.9444	0.938
Mof_B 	B 	0.62084	0.5126	0.15664	0.944
Mof_Cd	Cd	0.80018	0.63155	0.34701	0.397
Mof_Cd	Cd	0.5955	0.37502	0.45022	0.384
Mof_Cd	Cd	0.87565	0.46383	0.27917	0.384
Mof_O 	O 	0.82073	0.47081	0.35366	-0.297
Mof_O 	O 	0.65965	0.5018	0.38095	-0.251
Mof_O 	O 	0.8154	0.37369	0.28763	-0.294
Mof_O 	O 	0.68205	0.10763	0.22854	-0.299
Mof_O 	O 	0.61402	0.3684	0.37575	-0.283
Mof_O 	O 	0.61515	0.1185	0.24839	-0.288
Mof_N 	N 	0.89141	0.0848	0.38885	-0.318
Mof_N 	N 	0.78566	0.115	0.21293	-0.149
Mof_N 	N 	0.68573	0.3842	0.50803	-0.15
Mof_N 	N 	0.76963	0.4329	0.54515	-0.312
Mof_N 	N 	0.80716	0.7932	0.34809	-0.156
Mof_N 	N 	0.93119	0.967	0.34898	-0.314
Mof_N 	N 	0.86414	0.4226	0.56286	-0.315
Mof_N 	N 	0.79695	0.6131	0.42796	-0.152
Mof_N 	N 	0.80737	0.5596	0.50783	-0.317
Mof_N 	N 	0.8511	0.0609	0.288	-0.315
Mof_N 	N 	0.91639	0.1346	0.47294	-0.155
Mof_N 	N 	0.83656	0.5516	0.60775	-0.312
Mof_N 	N 	0.84296	0.9348	0.34926	-0.31
Mof_N 	N 	0.01266	0.9081	0.38753	-0.153
Mof_N 	N 	0.86277	0.5764	0.69535	-0.153
Mof_N 	N 	0.9041	0.2895	0.55661	-0.146
Mof_C 	C 	0.77586	0.8626	0.35464	-0.015
Mof_H 	H 	0.7447	0.8516	0.3575	0.039
Mof_C 	C 	0.98877	0.8795	0.33478	-0.016
Mof_H 	H 	0.0042	0.8416	0.3181	0.051
Mof_C 	C 	0.72753	0.2784	0.2864	0.029
Mof_H 	H 	0.7448	0.2493	0.2684	0.039
Mof_C 	C 	0.67506	0.3669	0.33886	-0.094
Mof_C 	C 	0.68013	0.2409	0.28201	-0.102
Mof_C 	C 	0.76522	0.357	0.57506	0.047
Mof_H 	H 	0.7926	0.3302	0.6053	0.012
Mof_C 	C 	0.65716	0.1511	0.25026	0.304
Mof_C 	C 	0.64662	0.4152	0.36717	0.307
Mof_C 	C 	0.79918	0.4046	0.32044	0.316
Mof_C 	C 	0.93921	0.9152	0.31086	0.048
Mof_H 	H 	0.9149	0.9064	0.2751	0.011
Mof_C 	C 	0.97688	0.9588	0.39404	0.14
Mof_H 	H 	0.9825	0.9865	0.4267	-0.031
Mof_C 	C 	0.65415	0.2852	0.30852	0.024
Mof_H 	H 	0.6226	0.2599	0.3059	0.044
Mof_C 	C 	0.83627	0.521	0.65366	0.141
Mof_H 	H 	0.8189	0.4657	0.6558	-0.023
Mof_C 	C 	0.94146	0.3539	0.5875	-0.018
Mof_H 	H 	0.9778	0.3433	0.6032	0.039
Mof_C 	C 	0.81728	0.5463	0.46478	0.141
Mof_H 	H 	0.8366	0.4949	0.4615	-0.02
Mof_C 	C 	0.79759	0.9496	0.35622	0.047
Mof_H 	H 	0.7846	0.008	0.361	0.006
Mof_C 	C 	0.7229	0.4036	0.34391	0.028
Mof_H 	H 	0.7373	0.4576	0.3649	0.04
Mof_C 	C 	0.8663	0.6343	0.62223	0.046
Mof_H 	H 	0.8742	0.6731	0.5995	0.004
Mof_C 	C 	0.84634	0.8398	0.34496	0.141
Mof_H 	H 	0.8735	0.81	0.3403	-0.027
Mof_C 	C 	0.90197	0.0614	0.44001	0.134
Mof_H 	H 	0.8993	0.9995	0.4508	-0.031
Mof_C 	C 	0.79865	0.0655	0.25744	0.143
Mof_H 	H 	0.7741	0.0368	0.2667	-0.014
Mof_C 	C 	0.87258	0.1133	0.26057	0.055
Mof_H 	H 	0.9083	0.1255	0.2716	0.002
Mof_C 	C 	0.88166	0.6486	0.67536	-0.022
Mof_H 	H 	0.902	0.6997	0.6953	0.034
Mof_C 	C 	0.71418	0.3288	0.5526	-0.02
Mof_H 	H 	0.7004	0.2797	0.5653	0.041
Mof_C 	C 	0.89918	0.1818	0.38986	0.056
Mof_H 	H 	0.8952	0.2199	0.3608	0.004
Mof_C 	C 	0.72015	0.4444	0.50542	0.133
Mof_H 	H 	0.7113	0.4908	0.4787	-0.009
Mof_C 	C 	0.777	0.6408	0.49599	0.051
Mof_H 	H 	0.763	0.6688	0.5174	-0.001
Mof_C 	C 	0.85844	0.3333	0.543	0.14
Mof_H 	H 	0.8258	0.3054	0.5219	-0.021
Mof_C 	C 	0.91799	0.4352	0.592	0.053
Mof_H 	H 	0.935	0.4895	0.6112	0.001
Mof_C 	C 	0.7712	0.6725	0.44758	-0.016
Mof_H 	H 	0.7524	0.7268	0.4302	0.034
Mof_C 	C 	0.83212	0.1438	0.21457	-0.01
Mof_H 	H 	0.8356	0.1794	0.188	0.042
Mof_C 	C 	0.9136	0.2116	0.44074	-0.027
Mof_H 	H 	0.9206	0.2746	0.4524	0.041
Mof_C 	C 	0.74922	0.3596	0.31765	-0.1
Mof_B 	B 	0.81941	0.4921	0.5556	0.942
Mof_B 	B 	0.87916	0.0126	0.34336	0.943
Mof_Cd	Cd	0.30018	0.13155	0.34701	0.397
Mof_Cd	Cd	0.0955	0.87502	0.45022	0.384
Mof_Cd	Cd	0.37565	0.96383	0.27917	0.384
Mof_O 	O 	0.32073	0.97081	0.35366	-0.296
Mof_O 	O 	0.15965	0.0018	0.38095	-0.251
Mof_O 	O 	0.3154	0.87369	0.28763	-0.294
Mof_O 	O 	0.18205	0.60763	0.22854	-0.299
Mof_O 	O 	0.11402	0.8684	0.37575	-0.283
Mof_O 	O 	0.11515	0.6185	0.24839	-0.288
Mof_N 	N 	0.39141	0.5848	0.38885	-0.318
Mof_N 	N 	0.28566	0.615	0.21293	-0.149
Mof_N 	N 	0.18573	0.8842	0.50803	-0.15
Mof_N 	N 	0.26963	0.9329	0.54515	-0.312
Mof_N 	N 	0.30716	0.2932	0.34809	-0.156
Mof_N 	N 	0.43119	0.467	0.34898	-0.314
Mof_N 	N 	0.36414	0.9226	0.56286	-0.315
Mof_N 	N 	0.29695	0.1131	0.42796	-0.152
Mof_N 	N 	0.30737	0.0596	0.50783	-0.316
Mof_N 	N 	0.3511	0.5609	0.288	-0.315
Mof_N 	N 	0.41639	0.6346	0.47294	-0.155
Mof_N 	N 	0.33656	0.0516	0.60775	-0.312
Mof_N 	N 	0.34296	0.4348	0.34926	-0.311
Mof_N 	N 	0.51266	0.4081	0.38753	-0.153
Mof_N 	N 	0.36277	0.0764	0.69535	-0.153
Mof_N 	N 	0.4041	0.7895	0.55661	-0.146
Mof_C 	C 	0.27586	0.3626	0.35464	-0.015
Mof_H 	H 	0.2447	0.3516	0.3575	0.039
Mof_C 	C 	0.48877	0.3795	0.33478	-0.016
Mof_H 	H 	0.5042	0.3416	0.3181	0.051
Mof_C 	C 	0.22753	0.7784	0.2864	0.029
Mof_H 	H 	0.2448	0.7493	0.2684	0.039
Mof_C 	C 	0.17506	0.8669	0.33886	-0.094
Mof_C 	C 	0.18013	0.7409	0.28201	-0.102
Mof_C 	C 	0.26522	0.857	0.57506	0.047
Mof_H 	H 	0.2926	0.8302	0.6053	0.012
Mof_C 	C 	0.15716	0.6511	0.25026	0.304
Mof_C 	C 	0.14662	0.9152	0.36717	0.307
Mof_C 	C 	0.29918	0.9046	0.32044	0.316
Mof_C 	C 	0.43921	0.4152	0.31086	0.048
Mof_H 	H 	0.4149	0.4064	0.2751	0.011
Mof_C 	C 	0.47688	0.4588	0.39404	0.14
Mof_H 	H 	0.4825	0.4865	0.4267	-0.031
Mof_C 	C 	0.15415	0.7852	0.30852	0.024
Mof_H 	H 	0.1226	0.7599	0.3059	0.044
Mof_C 	C 	0.33627	0.021	0.65366	0.142
Mof_H 	H 	0.3189	0.9657	0.6558	-0.023
Mof_C 	C 	0.44146	0.8539	0.5875	-0.018
Mof_H 	H 	0.4778	0.8433	0.6032	0.039
Mof_C 	C 	0.31728	0.0463	0.46478	0.141
Mof_H 	H 	0.3366	0.9949	0.4615	-0.02
Mof_C 	C 	0.29759	0.4496	0.35622	0.045
Mof_H 	H 	0.2846	0.508	0.361	0.007
Mof_C 	C 	0.2229	0.9036	0.34391	0.028
Mof_H 	H 	0.2373	0.9576	0.3649	0.04
Mof_C 	C 	0.3663	0.1343	0.62223	0.046
Mof_H 	H 	0.3742	0.1731	0.5995	0.004
Mof_C 	C 	0.34634	0.3398	0.34496	0.141
Mof_H 	H 	0.3735	0.31	0.3403	-0.027
Mof_C 	C 	0.40197	0.5614	0.44001	0.135
Mof_H 	H 	0.3993	0.4995	0.4508	-0.032
Mof_C 	C 	0.29865	0.5655	0.25744	0.143
Mof_H 	H 	0.2741	0.5368	0.2667	-0.014
Mof_C 	C 	0.37258	0.6133	0.26057	0.055
Mof_H 	H 	0.4083	0.6255	0.2716	0.002
Mof_C 	C 	0.38166	0.1486	0.67536	-0.022
Mof_H 	H 	0.402	0.1997	0.6953	0.034
Mof_C 	C 	0.21418	0.8288	0.5526	-0.02
Mof_H 	H 	0.2004	0.7797	0.5653	0.041
Mof_C 	C 	0.39918	0.6818	0.38986	0.056
Mof_H 	H 	0.3952	0.7199	0.3608	0.004
Mof_C 	C 	0.22015	0.9444	0.50542	0.133
Mof_H 	H 	0.2113	0.9908	0.4787	-0.009
Mof_C 	C 	0.277	0.1408	0.49599	0.051
Mof_H 	H 	0.263	0.1688	0.5174	-0.001
Mof_C 	C 	0.35844	0.8333	0.543	0.14
Mof_H 	H 	0.3258	0.8054	0.5219	-0.021
Mof_C 	C 	0.41799	0.9352	0.592	0.053
Mof_H 	H 	0.435	0.9895	0.6112	0
Mof_C 	C 	0.2712	0.1725	0.44758	-0.016
Mof_H 	H 	0.2524	0.2268	0.4302	0.034
Mof_C 	C 	0.33212	0.6438	0.21457	-0.01
Mof_H 	H 	0.3356	0.6794	0.188	0.042
Mof_C 	C 	0.4136	0.7116	0.44074	-0.027
Mof_H 	H 	0.4206	0.7746	0.4524	0.042
Mof_C 	C 	0.24922	0.8596	0.31765	-0.1
Mof_B 	B 	0.31941	0.9921	0.5556	0.941
Mof_B 	B 	0.37916	0.5126	0.34336	0.944
Mof_Cd	Cd	0.80018	0.36845	0.84701	0.397
Mof_Cd	Cd	0.5955	0.62498	0.95022	0.384
Mof_Cd	Cd	0.87565	0.53617	0.77917	0.384
Mof_O 	O 	0.82073	0.52919	0.85366	-0.297
Mof_O 	O 	0.65965	0.4982	0.88095	-0.251
Mof_O 	O 	0.8154	0.62631	0.78763	-0.294
Mof_O 	O 	0.68205	0.89237	0.72854	-0.299
Mof_O 	O 	0.61402	0.6316	0.87575	-0.283
Mof_O 	O 	0.61515	0.8815	0.74839	-0.288
Mof_N 	N 	0.89141	0.9152	0.88885	-0.317
Mof_N 	N 	0.78566	0.885	0.71293	-0.149
Mof_N 	N 	0.68573	0.6158	0.00803	-0.15
Mof_N 	N 	0.76963	0.5671	0.04515	-0.312
Mof_N 	N 	0.80716	0.2068	0.84809	-0.156
Mof_N 	N 	0.93119	0.033	0.84898	-0.313
Mof_N 	N 	0.86414	0.5774	0.06286	-0.315
Mof_N 	N 	0.79695	0.3869	0.92796	-0.152
Mof_N 	N 	0.80737	0.4404	0.00783	-0.317
Mof_N 	N 	0.8511	0.9391	0.788	-0.315
Mof_N 	N 	0.91639	0.8654	0.97294	-0.155
Mof_N 	N 	0.83656	0.4484	0.10775	-0.312
Mof_N 	N 	0.84296	0.0652	0.84926	-0.31
Mof_N 	N 	0.01266	0.0919	0.88753	-0.152
Mof_N 	N 	0.86277	0.4236	0.19535	-0.153
Mof_N 	N 	0.9041	0.7105	0.05661	-0.146
Mof_C 	C 	0.77586	0.1374	0.85464	-0.016
Mof_H 	H 	0.7447	0.1484	0.8575	0.039
Mof_C 	C 	0.98877	0.1205	0.83478	-0.016
Mof_H 	H 	0.0042	0.1584	0.8181	0.051
Mof_C 	C 	0.72753	0.7216	0.7864	0.029
Mof_H 	H 	0.7448	0.7507	0.7684	0.039
Mof_C 	C 	0.67506	0.6331	0.83886	-0.094
Mof_C 	C 	0.68013	0.7591	0.78201	-0.102
Mof_C 	C 	0.76522	0.643	0.07506	0.047
Mof_H 	H 	0.7926	0.6698	0.1053	0.012
Mof_C 	C 	0.65716	0.8489	0.75026	0.304
Mof_C 	C 	0.64662	0.5848	0.86717	0.307
Mof_C 	C 	0.79918	0.5954	0.82044	0.316
Mof_C 	C 	0.93921	0.0848	0.81086	0.049
Mof_H 	H 	0.9149	0.0936	0.7751	0.011
Mof_C 	C 	0.97688	0.0412	0.89404	0.14
Mof_H 	H 	0.9825	0.0135	0.9267	-0.031
Mof_C 	C 	0.65415	0.7148	0.80852	0.024
Mof_H 	H 	0.6226	0.7401	0.8059	0.044
Mof_C 	C 	0.83627	0.479	0.15366	0.141
Mof_H 	H 	0.8189	0.5343	0.1558	-0.023
Mof_C 	C 	0.94146	0.6461	0.0875	-0.018
Mof_H 	H 	0.9778	0.6567	0.1032	0.039
Mof_C 	C 	0.81728	0.4537	0.96478	0.142
Mof_H 	H 	0.8366	0.5051	0.9615	-0.02
Mof_C 	C 	0.79759	0.0504	0.85622	0.048
Mof_H 	H 	0.7846	0.992	0.861	0.005
Mof_C 	C 	0.7229	0.5964	0.84391	0.028
Mof_H 	H 	0.7373	0.5424	0.8649	0.04
Mof_C 	C 	0.8663	0.3657	0.12223	0.046
Mof_H 	H 	0.8742	0.3269	0.0995	0.004
Mof_C 	C 	0.84634	0.1602	0.84496	0.141
Mof_H 	H 	0.8735	0.19	0.8403	-0.027
Mof_C 	C 	0.90197	0.9386	0.94001	0.132
Mof_H 	H 	0.8993	0.0005	0.9508	-0.03
Mof_C 	C 	0.79865	0.9345	0.75744	0.143
Mof_H 	H 	0.7741	0.9632	0.7667	-0.014
Mof_C 	C 	0.87258	0.8867	0.76057	0.055
Mof_H 	H 	0.9083	0.8745	0.7716	0.002
Mof_C 	C 	0.88166	0.3514	0.17536	-0.022
Mof_H 	H 	0.902	0.3003	0.1953	0.034
Mof_C 	C 	0.71418	0.6712	0.0526	-0.02
Mof_H 	H 	0.7004	0.7203	0.0653	0.041
Mof_C 	C 	0.89918	0.8182	0.88986	0.056
Mof_H 	H 	0.8952	0.7801	0.8608	0.004
Mof_C 	C 	0.72015	0.5556	0.00542	0.133
Mof_H 	H 	0.7113	0.5092	0.9787	-0.01
Mof_C 	C 	0.777	0.3592	0.99599	0.053
Mof_H 	H 	0.763	0.3312	0.0174	-0.002
Mof_C 	C 	0.85844	0.6667	0.043	0.14
Mof_H 	H 	0.8258	0.6946	0.0219	-0.021
Mof_C 	C 	0.91799	0.5648	0.092	0.053
Mof_H 	H 	0.935	0.5105	0.1112	0
Mof_C 	C 	0.7712	0.3275	0.94758	-0.017
Mof_H 	H 	0.7524	0.2732	0.9302	0.035
Mof_C 	C 	0.83212	0.8562	0.71457	-0.01
Mof_H 	H 	0.8356	0.8206	0.688	0.042
Mof_C 	C 	0.9136	0.7884	0.94074	-0.027
Mof_H 	H 	0.9206	0.7254	0.9524	0.041
Mof_C 	C 	0.74922	0.6404	0.81765	-0.1
Mof_B 	B 	0.81941	0.5079	0.0556	0.942
Mof_B 	B 	0.87916	0.9874	0.84336	0.942
Mof_Cd	Cd	0.30018	0.86845	0.84701	0.397
Mof_Cd	Cd	0.0955	0.12498	0.95022	0.385
Mof_Cd	Cd	0.37565	0.03617	0.77917	0.385
Mof_O 	O 	0.32073	0.02919	0.85366	-0.296
Mof_O 	O 	0.15965	0.9982	0.88095	-0.253
Mof_O 	O 	0.3154	0.12631	0.78763	-0.294
Mof_O 	O 	0.18205	0.39237	0.72854	-0.299
Mof_O 	O 	0.11402	0.1316	0.87575	-0.284
Mof_O 	O 	0.11515	0.3815	0.74839	-0.288
Mof_N 	N 	0.39141	0.4152	0.88885	-0.318
Mof_N 	N 	0.28566	0.385	0.71293	-0.149
Mof_N 	N 	0.18573	0.1158	0.00803	-0.15
Mof_N 	N 	0.26963	0.0671	0.04515	-0.311
Mof_N 	N 	0.30716	0.7068	0.84809	-0.156
Mof_N 	N 	0.43119	0.533	0.84898	-0.314
Mof_N 	N 	0.36414	0.0774	0.06286	-0.315
Mof_N 	N 	0.29695	0.8869	0.92796	-0.152
Mof_N 	N 	0.30737	0.9404	0.00783	-0.313
Mof_N 	N 	0.3511	0.4391	0.788	-0.315
Mof_N 	N 	0.41639	0.3654	0.97294	-0.155
Mof_N 	N 	0.33656	0.9484	0.10775	-0.311
Mof_N 	N 	0.34296	0.5652	0.84926	-0.311
Mof_N 	N 	0.51266	0.5919	0.88753	-0.153
Mof_N 	N 	0.36277	0.9236	0.19535	-0.153
Mof_N 	N 	0.4041	0.2105	0.05661	-0.146
Mof_C 	C 	0.27586	0.6374	0.85464	-0.015
Mof_H 	H 	0.2447	0.6484	0.8575	0.039
Mof_C 	C 	0.48877	0.6205	0.83478	-0.016
Mof_H 	H 	0.5042	0.6584	0.8181	0.051
Mof_C 	C 	0.22753	0.2216	0.7864	0.029
Mof_H 	H 	0.2448	0.2507	0.7684	0.039
Mof_C 	C 	0.17506	0.1331	0.83886	-0.094
Mof_C 	C 	0.18013	0.2591	0.78201	-0.102
Mof_C 	C 	0.26522	0.143	0.07506	0.046
Mof_H 	H 	0.2926	0.1698	0.1053	0.012
Mof_C 	C 	0.15716	0.3489	0.75026	0.304
Mof_C 	C 	0.14662	0.0848	0.86717	0.308
Mof_C 	C 	0.29918	0.0954	0.82044	0.316
Mof_C 	C 	0.43921	0.5848	0.81086	0.048
Mof_H 	H 	0.4149	0.5936	0.7751	0.011
Mof_C 	C 	0.47688	0.5412	0.89404	0.14
Mof_H 	H 	0.4825	0.5135	0.9267	-0.031
Mof_C 	C 	0.15415	0.2148	0.80852	0.024
Mof_H 	H 	0.1226	0.2401	0.8059	0.044
Mof_C 	C 	0.33627	0.979	0.15366	0.143
Mof_H 	H 	0.3189	0.0343	0.1558	-0.024
Mof_C 	C 	0.44146	0.1461	0.0875	-0.018
Mof_H 	H 	0.4778	0.1567	0.1032	0.038
Mof_C 	C 	0.31728	0.9537	0.96478	0.136
Mof_H 	H 	0.3366	0.0051	0.9615	-0.017
Mof_C 	C 	0.29759	0.5504	0.85622	0.045
Mof_H 	H 	0.2846	0.492	0.861	0.007
Mof_C 	C 	0.2229	0.0964	0.84391	0.028
Mof_H 	H 	0.2373	0.0424	0.8649	0.04
Mof_C 	C 	0.3663	0.8657	0.12223	0.046
Mof_H 	H 	0.3742	0.8269	0.0995	0.005
Mof_C 	C 	0.34634	0.6602	0.84496	0.141
Mof_H 	H 	0.3735	0.69	0.8403	-0.027
Mof_C 	C 	0.40197	0.4386	0.94001	0.135
Mof_H 	H 	0.3993	0.5005	0.9508	-0.032
Mof_C 	C 	0.29865	0.4345	0.75744	0.143
Mof_H 	H 	0.2741	0.4632	0.7667	-0.014
Mof_C 	C 	0.37258	0.3867	0.76057	0.055
Mof_H 	H 	0.4083	0.3745	0.7716	0.002
Mof_C 	C 	0.38166	0.8514	0.17536	-0.022
Mof_H 	H 	0.402	0.8003	0.1953	0.034
Mof_C 	C 	0.21418	0.1712	0.0526	-0.02
Mof_H 	H 	0.2004	0.2203	0.0653	0.041
Mof_C 	C 	0.39918	0.3182	0.88986	0.056
Mof_H 	H 	0.3952	0.2801	0.8608	0.004
Mof_C 	C 	0.22015	0.0556	0.00542	0.129
Mof_H 	H 	0.2113	0.0092	0.9787	-0.007
Mof_C 	C 	0.277	0.8592	0.99599	0.046
Mof_H 	H 	0.263	0.8312	0.0174	0.002
Mof_C 	C 	0.35844	0.1667	0.043	0.139
Mof_H 	H 	0.3258	0.1946	0.0219	-0.021
Mof_C 	C 	0.41799	0.0648	0.092	0.052
Mof_H 	H 	0.435	0.0105	0.1112	0
Mof_C 	C 	0.2712	0.8275	0.94758	-0.013
Mof_H 	H 	0.2524	0.7732	0.9302	0.033
Mof_C 	C 	0.33212	0.3562	0.71457	-0.01
Mof_H 	H 	0.3356	0.3206	0.688	0.042
Mof_C 	C 	0.4136	0.2884	0.94074	-0.027
Mof_H 	H 	0.4206	0.2254	0.9524	0.042
Mof_C 	C 	0.24922	0.1404	0.81765	-0.1
Mof_B 	B 	0.31941	0.0079	0.0556	0.938
Mof_B 	B 	0.37916	0.4874	0.84336	0.944
Mof_Cd	Cd	0.19982	0.36845	0.65299	0.397
Mof_Cd	Cd	0.4045	0.62498	0.54978	0.384
Mof_Cd	Cd	0.12435	0.53617	0.72083	0.384
Mof_O 	O 	0.17927	0.52919	0.64634	-0.297
Mof_O 	O 	0.34035	0.4982	0.61905	-0.251
Mof_O 	O 	0.1846	0.62631	0.71237	-0.294
Mof_O 	O 	0.31795	0.89237	0.77146	-0.299
Mof_O 	O 	0.38598	0.6316	0.62425	-0.283
Mof_O 	O 	0.38485	0.8815	0.75161	-0.288
Mof_N 	N 	0.10859	0.9152	0.61115	-0.318
Mof_N 	N 	0.21434	0.885	0.78707	-0.149
Mof_N 	N 	0.31427	0.6158	0.49197	-0.15
Mof_N 	N 	0.23037	0.5671	0.45485	-0.312
Mof_N 	N 	0.19284	0.2068	0.65191	-0.156
Mof_N 	N 	0.06881	0.033	0.65102	-0.314
Mof_N 	N 	0.13586	0.5774	0.43714	-0.315
Mof_N 	N 	0.20305	0.3869	0.57204	-0.152
Mof_N 	N 	0.19263	0.4404	0.49217	-0.317
Mof_N 	N 	0.1489	0.9391	0.712	-0.315
Mof_N 	N 	0.08361	0.8654	0.52706	-0.155
Mof_N 	N 	0.16344	0.4484	0.39225	-0.312
Mof_N 	N 	0.15704	0.0652	0.65074	-0.31
Mof_N 	N 	0.98734	0.0919	0.61247	-0.153
Mof_N 	N 	0.13723	0.4236	0.30465	-0.153
Mof_N 	N 	0.0959	0.7105	0.44339	-0.146
Mof_C 	C 	0.22414	0.1374	0.64536	-0.015
Mof_H 	H 	0.2553	0.1484	0.6425	0.039
Mof_C 	C 	0.01123	0.1205	0.66522	-0.016
Mof_H 	H 	0.9958	0.1584	0.6819	0.051
Mof_C 	C 	0.27247	0.7216	0.7136	0.029
Mof_H 	H 	0.2552	0.7507	0.7316	0.039
Mof_C 	C 	0.32494	0.6331	0.66114	-0.094
Mof_C 	C 	0.31987	0.7591	0.71799	-0.102
Mof_C 	C 	0.23478	0.643	0.42494	0.047
Mof_H 	H 	0.2074	0.6698	0.3947	0.012
Mof_C 	C 	0.34284	0.8489	0.74974	0.304
Mof_C 	C 	0.35338	0.5848	0.63283	0.307
Mof_C 	C 	0.20082	0.5954	0.67956	0.316
Mof_C 	C 	0.06079	0.0848	0.68914	0.048
Mof_H 	H 	0.0851	0.0936	0.7249	0.011
Mof_C 	C 	0.02312	0.0412	0.60596	0.14
Mof_H 	H 	0.0175	0.0135	0.5733	-0.031
Mof_C 	C 	0.34585	0.7148	0.69148	0.024
Mof_H 	H 	0.3774	0.7401	0.6941	0.044
Mof_C 	C 	0.16373	0.479	0.34634	0.141
Mof_H 	H 	0.1811	0.5343	0.3442	-0.023
Mof_C 	C 	0.05854	0.6461	0.4125	-0.018
Mof_H 	H 	0.0222	0.6567	0.3968	0.039
Mof_C 	C 	0.18272	0.4537	0.53522	0.141
Mof_H 	H 	0.1634	0.5051	0.5385	-0.02
Mof_C 	C 	0.20241	0.0504	0.64378	0.047
Mof_H 	H 	0.2154	0.992	0.639	0.006
Mof_C 	C 	0.2771	0.5964	0.65609	0.028
Mof_H 	H 	0.2627	0.5424	0.6351	0.04
Mof_C 	C 	0.1337	0.3657	0.37777	0.046
Mof_H 	H 	0.1258	0.3269	0.4005	0.004
Mof_C 	C 	0.15366	0.1602	0.65504	0.141
Mof_H 	H 	0.1265	0.19	0.6597	-0.027
Mof_C 	C 	0.09803	0.9386	0.55999	0.134
Mof_H 	H 	0.1007	0.0005	0.5492	-0.031
Mof_C 	C 	0.20135	0.9345	0.74256	0.143
Mof_H 	H 	0.2259	0.9632	0.7333	-0.014
Mof_C 	C 	0.12742	0.8867	0.73943	0.055
Mof_H 	H 	0.0917	0.8745	0.7284	0.002
Mof_C 	C 	0.11834	0.3514	0.32464	-0.022
Mof_H 	H 	0.098	0.3003	0.3047	0.034
Mof_C 	C 	0.28582	0.6712	0.4474	-0.02
Mof_H 	H 	0.2996	0.7203	0.4347	0.041
Mof_C 	C 	0.10082	0.8182	0.61014	0.056
Mof_H 	H 	0.1048	0.7801	0.6392	0.004
Mof_C 	C 	0.27985	0.5556	0.49458	0.133
Mof_H 	H 	0.2887	0.5092	0.5213	-0.009
Mof_C 	C 	0.223	0.3592	0.50401	0.051
Mof_H 	H 	0.237	0.3312	0.4826	-0.001
Mof_C 	C 	0.14156	0.6667	0.457	0.14
Mof_H 	H 	0.1742	0.6946	0.4781	-0.021
Mof_C 	C 	0.08201	0.5648	0.408	0.053
Mof_H 	H 	0.065	0.5105	0.3888	0.001
Mof_C 	C 	0.2288	0.3275	0.55242	-0.016
Mof_H 	H 	0.2476	0.2732	0.5698	0.034
Mof_C 	C 	0.16788	0.8562	0.78543	-0.01
Mof_H 	H 	0.1644	0.8206	0.812	0.042
Mof_C 	C 	0.0864	0.7884	0.55926	-0.027
Mof_H 	H 	0.0794	0.7254	0.5476	0.041
Mof_C 	C 	0.25078	0.6404	0.68235	-0.1
Mof_B 	B 	0.18059	0.5079	0.4444	0.942
Mof_B 	B 	0.12084	0.9874	0.65664	0.943
Mof_Cd	Cd	0.69982	0.86845	0.65299	0.397
Mof_Cd	Cd	0.9045	0.12498	0.54978	0.384
Mof_Cd	Cd	0.62435	0.03617	0.72083	0.384
Mof_O 	O 	0.67927	0.02919	0.64634	-0.296
Mof_O 	O 	0.84035	0.9982	0.61905	-0.251
Mof_O 	O 	0.6846	0.12631	0.71237	-0.294
Mof_O 	O 	0.81795	0.39237	0.77146	-0.299
Mof_O 	O 	0.88598	0.1316	0.62425	-0.283
Mof_O 	O 	0.88485	0.3815	0.75161	-0.288
Mof_N 	N 	0.60859	0.4152	0.61115	-0.318
Mof_N 	N 	0.71434	0.385	0.78707	-0.149
Mof_N 	N 	0.81427	0.1158	0.49197	-0.15
Mof_N 	N 	0.73037	0.0671	0.45485	-0.312
Mof_N 	N 	0.69284	0.7068	0.65191	-0.156
Mof_N 	N 	0.56881	0.533	0.65102	-0.314
Mof_N 	N 	0.63586	0.0774	0.43714	-0.315
Mof_N 	N 	0.70305	0.8869	0.57204	-0.152
Mof_N 	N 	0.69263	0.9404	0.49217	-0.316
Mof_N 	N 	0.6489	0.4391	0.712	-0.315
Mof_N 	N 	0.58361	0.3654	0.52706	-0.155
Mof_N 	N 	0.66344	0.9484	0.39225	-0.312
Mof_N 	N 	0.65704	0.5652	0.65074	-0.311
Mof_N 	N 	0.48734	0.5919	0.61247	-0.153
Mof_N 	N 	0.63723	0.9236	0.30465	-0.153
Mof_N 	N 	0.5959	0.2105	0.44339	-0.146
Mof_C 	C 	0.72414	0.6374	0.64536	-0.015
Mof_H 	H 	0.7553	0.6484	0.6425	0.039
Mof_C 	C 	0.51123	0.6205	0.66522	-0.016
Mof_H 	H 	0.4958	0.6584	0.6819	0.051
Mof_C 	C 	0.77247	0.2216	0.7136	0.029
Mof_H 	H 	0.7552	0.2507	0.7316	0.039
Mof_C 	C 	0.82494	0.1331	0.66114	-0.094
Mof_C 	C 	0.81987	0.2591	0.71799	-0.102
Mof_C 	C 	0.73478	0.143	0.42494	0.047
Mof_H 	H 	0.7074	0.1698	0.3947	0.012
Mof_C 	C 	0.84284	0.3489	0.74974	0.304
Mof_C 	C 	0.85338	0.0848	0.63283	0.307
Mof_C 	C 	0.70082	0.0954	0.67956	0.316
Mof_C 	C 	0.56079	0.5848	0.68914	0.048
Mof_H 	H 	0.5851	0.5936	0.7249	0.011
Mof_C 	C 	0.52312	0.5412	0.60596	0.14
Mof_H 	H 	0.5175	0.5135	0.5733	-0.031
Mof_C 	C 	0.84585	0.2148	0.69148	0.024
Mof_H 	H 	0.8774	0.2401	0.6941	0.044
Mof_C 	C 	0.66373	0.979	0.34634	0.142
Mof_H 	H 	0.6811	0.0343	0.3442	-0.023
Mof_C 	C 	0.55854	0.1461	0.4125	-0.018
Mof_H 	H 	0.5222	0.1567	0.3968	0.039
Mof_C 	C 	0.68272	0.9537	0.53522	0.141
Mof_H 	H 	0.6634	0.0051	0.5385	-0.02
Mof_C 	C 	0.70241	0.5504	0.64378	0.045
Mof_H 	H 	0.7154	0.492	0.639	0.007
Mof_C 	C 	0.7771	0.0964	0.65609	0.028
Mof_H 	H 	0.7627	0.0424	0.6351	0.04
Mof_C 	C 	0.6337	0.8657	0.37777	0.046
Mof_H 	H 	0.6258	0.8269	0.4005	0.004
Mof_C 	C 	0.65366	0.6602	0.65504	0.141
Mof_H 	H 	0.6265	0.69	0.6597	-0.027
Mof_C 	C 	0.59803	0.4386	0.55999	0.135
Mof_H 	H 	0.6007	0.5005	0.5492	-0.032
Mof_C 	C 	0.70135	0.4345	0.74256	0.143
Mof_H 	H 	0.7259	0.4632	0.7333	-0.014
Mof_C 	C 	0.62742	0.3867	0.73943	0.055
Mof_H 	H 	0.5917	0.3745	0.7284	0.002
Mof_C 	C 	0.61834	0.8514	0.32464	-0.022
Mof_H 	H 	0.598	0.8003	0.3047	0.034
Mof_C 	C 	0.78582	0.1712	0.4474	-0.02
Mof_H 	H 	0.7996	0.2203	0.4347	0.041
Mof_C 	C 	0.60082	0.3182	0.61014	0.056
Mof_H 	H 	0.6048	0.2801	0.6392	0.004
Mof_C 	C 	0.77985	0.0556	0.49458	0.133
Mof_H 	H 	0.7887	0.0092	0.5213	-0.009
Mof_C 	C 	0.723	0.8592	0.50401	0.051
Mof_H 	H 	0.737	0.8312	0.4826	-0.001
Mof_C 	C 	0.64156	0.1667	0.457	0.14
Mof_H 	H 	0.6742	0.1946	0.4781	-0.021
Mof_C 	C 	0.58201	0.0648	0.408	0.053
Mof_H 	H 	0.565	0.0105	0.3888	0
Mof_C 	C 	0.7288	0.8275	0.55242	-0.016
Mof_H 	H 	0.7476	0.7732	0.5698	0.034
Mof_C 	C 	0.66788	0.3562	0.78543	-0.01
Mof_H 	H 	0.6644	0.3206	0.812	0.042
Mof_C 	C 	0.5864	0.2884	0.55926	-0.027
Mof_H 	H 	0.5794	0.2254	0.5476	0.042
Mof_C 	C 	0.75078	0.1404	0.68235	-0.1
Mof_B 	B 	0.68059	0.0079	0.4444	0.941
Mof_B 	B 	0.62084	0.4874	0.65664	0.944
_end
