data_functionalizedCrystal
_audit_creation_method	'EQeq! by Chris Wilmer'
_symmetry_space_group_name_H-M	'P1'
_symmetry_Int_Tables_number	1
_symmetry_cell_setting	triclinic
loop_
_symmetry_equiv_pos_as_xyz
  x,y,z
_cell_length_a	11.077
_cell_length_b	14.8156
_cell_length_c	13.4336
_cell_angle_alpha	99.046
_cell_angle_beta	90
_cell_angle_gamma	90
loop_
_atom_site_label
_atom_site_type_symbol
_atom_site_fract_x
_atom_site_fract_y
_atom_site_fract_z
_atom_site_charge
Mof_Ni	Ni	0.99863	0.95653	0.88825	1.093
Mof_Ni	Ni	0.14819	0.86488	0.09248	1.088
Mof_Ni	Ni	0.49863	0.04347	0.61175	1.098
Mof_Ni	Ni	0.64819	0.13512	0.40752	1.089
Mof_Ni	Ni	0.00137	0.04347	0.11175	1.093
Mof_Ni	Ni	0.85181	0.13512	0.90752	1.088
Mof_Ni	Ni	0.50137	0.95653	0.38825	1.097
Mof_Ni	Ni	0.35181	0.86488	0.59248	1.088
Mof_H 	H 	0.0621	0.1143	0.9625	0.266
Mof_H 	H 	0.366	0.0471	0.9274	0.072
Mof_H 	H 	0.3975	0.9469	0.09	0.068
Mof_H 	H 	0.4973	0.8781	0.9118	0.091
Mof_H 	H 	0.1043	0.7005	0.1931	-0.007
Mof_H 	H 	0.0555	0.551	0.1574	0.081
Mof_H 	H 	0.0087	0.582	0.8763	0.083
Mof_H 	H 	0.0717	0.7292	0.9184	-0.033
Mof_H 	H 	0.5621	0.8857	0.5375	0.27
Mof_H 	H 	0.866	0.9529	0.5726	0.066
Mof_H 	H 	0.8975	0.0531	0.41	0.077
Mof_H 	H 	0.9973	0.1219	0.5882	0.09
Mof_H 	H 	0.6043	0.2995	0.3069	-0.007
Mof_H 	H 	0.5555	0.449	0.3426	0.082
Mof_H 	H 	0.5087	0.418	0.6237	0.083
Mof_H 	H 	0.5717	0.2708	0.5816	-0.034
Mof_H 	H 	0.9379	0.8857	0.0375	0.266
Mof_H 	H 	0.634	0.9529	0.0726	0.072
Mof_H 	H 	0.6025	0.0531	0.91	0.068
Mof_H 	H 	0.5027	0.1219	0.0882	0.091
Mof_H 	H 	0.8957	0.2995	0.8069	-0.007
Mof_H 	H 	0.9445	0.449	0.8426	0.081
Mof_H 	H 	0.9913	0.418	0.1237	0.083
Mof_H 	H 	0.9283	0.2708	0.0816	-0.033
Mof_H 	H 	0.4379	0.1143	0.4625	0.27
Mof_H 	H 	0.134	0.0471	0.4274	0.066
Mof_H 	H 	0.1025	0.9469	0.59	0.077
Mof_H 	H 	0.0027	0.8781	0.4118	0.09
Mof_H 	H 	0.3957	0.7005	0.6931	-0.007
Mof_H 	H 	0.4445	0.551	0.6574	0.082
Mof_H 	H 	0.4913	0.582	0.3763	0.083
Mof_H 	H 	0.4283	0.7292	0.4184	-0.034
Mof_C 	C 	0.3782	0.9885	0.951	-0.097
Mof_C 	C 	0.3938	0.0063	0.0667	-0.114
Mof_C 	C 	0.4915	0.941	0.8981	-0.108
Mof_C 	C 	0.2644	0.929	0.9261	0.339
Mof_C 	C 	0.2808	0.0556	0.1113	0.354
Mof_C 	C 	0.4755	0.9409	0.785	0.393
Mof_C 	C 	0.0876	0.676	0.1264	0.098
Mof_C 	C 	0.0546	0.5864	0.1061	-0.156
Mof_C 	C 	0.0205	0.5483	0.0118	0.07
Mof_C 	C 	0.0289	0.6037	0.9429	-0.162
Mof_C 	C 	0.0673	0.6932	0.9691	0.115
Mof_C 	C 	0.8782	0.0115	0.549	-0.087
Mof_C 	C 	0.8938	0.9937	0.4333	-0.134
Mof_C 	C 	0.9915	0.059	0.6019	-0.098
Mof_C 	C 	0.7644	0.071	0.5739	0.336
Mof_C 	C 	0.7808	0.9444	0.3887	0.358
Mof_C 	C 	0.9755	0.0591	0.715	0.389
Mof_C 	C 	0.5876	0.324	0.3736	0.099
Mof_C 	C 	0.5546	0.4136	0.3939	-0.158
Mof_C 	C 	0.5205	0.4517	0.4882	0.074
Mof_C 	C 	0.5289	0.3963	0.5571	-0.167
Mof_C 	C 	0.5673	0.3068	0.5309	0.113
Mof_C 	C 	0.6218	0.0115	0.049	-0.097
Mof_C 	C 	0.6062	0.9937	0.9333	-0.114
Mof_C 	C 	0.5085	0.059	0.1019	-0.108
Mof_C 	C 	0.7356	0.071	0.0739	0.339
Mof_C 	C 	0.7192	0.9444	0.8887	0.354
Mof_C 	C 	0.5245	0.0591	0.215	0.393
Mof_C 	C 	0.9124	0.324	0.8736	0.098
Mof_C 	C 	0.9454	0.4136	0.8939	-0.156
Mof_C 	C 	0.9795	0.4517	0.9882	0.07
Mof_C 	C 	0.9711	0.3963	0.0571	-0.162
Mof_C 	C 	0.9327	0.3068	0.0309	0.115
Mof_C 	C 	0.1218	0.9885	0.451	-0.087
Mof_C 	C 	0.1062	0.0063	0.5667	-0.134
Mof_C 	C 	0.0085	0.941	0.3981	-0.098
Mof_C 	C 	0.2356	0.929	0.4261	0.336
Mof_C 	C 	0.2192	0.0556	0.6113	0.358
Mof_C 	C 	0.0245	0.9409	0.285	0.389
Mof_C 	C 	0.4124	0.676	0.6264	0.099
Mof_C 	C 	0.4454	0.5864	0.6061	-0.158
Mof_C 	C 	0.4795	0.5483	0.5118	0.074
Mof_C 	C 	0.4711	0.6037	0.4429	-0.167
Mof_C 	C 	0.4327	0.6932	0.4691	0.113
Mof_N 	N 	0.0972	0.7297	0.0586	-0.259
Mof_N 	N 	0.5972	0.2703	0.4414	-0.258
Mof_N 	N 	0.9028	0.2703	0.9414	-0.259
Mof_N 	N 	0.4028	0.7297	0.5586	-0.258
Mof_O 	O 	0.1857	0.9589	0.8732	-0.412
Mof_O 	O 	0.256	0.8554	0.9622	-0.411
Mof_O 	O 	0.1865	0.0065	0.113	-0.523
Mof_O 	O 	0.282	0.1388	0.141	-0.295
Mof_O 	O 	0.4259	0.8728	0.7345	-0.434
Mof_O 	O 	0.5094	0.0105	0.7517	-0.443
Mof_O 	O 	0.9984	0.085	0.9725	-0.76
Mof_O 	O 	0.6857	0.0411	0.6268	-0.413
Mof_O 	O 	0.756	0.1446	0.5378	-0.412
Mof_O 	O 	0.6865	0.9935	0.387	-0.522
Mof_O 	O 	0.782	0.8612	0.359	-0.296
Mof_O 	O 	0.9259	0.1272	0.7655	-0.433
Mof_O 	O 	0.0094	0.9895	0.7483	-0.435
Mof_O 	O 	0.4984	0.915	0.5275	-0.766
Mof_O 	O 	0.8143	0.0411	0.1268	-0.412
Mof_O 	O 	0.744	0.1446	0.0378	-0.411
Mof_O 	O 	0.8135	0.9935	0.887	-0.523
Mof_O 	O 	0.718	0.8612	0.859	-0.295
Mof_O 	O 	0.5741	0.1272	0.2655	-0.434
Mof_O 	O 	0.4906	0.9895	0.2483	-0.443
Mof_O 	O 	0.0016	0.915	0.0275	-0.76
Mof_O 	O 	0.3143	0.9589	0.3732	-0.413
Mof_O 	O 	0.244	0.8554	0.4622	-0.412
Mof_O 	O 	0.3135	0.0065	0.613	-0.522
Mof_O 	O 	0.218	0.1388	0.641	-0.296
Mof_O 	O 	0.0741	0.8728	0.2345	-0.433
Mof_O 	O 	0.9906	0.0105	0.2517	-0.435
Mof_O 	O 	0.5016	0.085	0.4725	-0.766
_end
