data_functionalizedCrystal
_audit_creation_method	'EQeq! by Chris Wilmer'
_symmetry_space_group_name_H-M	'P1'
_symmetry_Int_Tables_number	1
_symmetry_cell_setting	triclinic
loop_
_symmetry_equiv_pos_as_xyz
  x,y,z
_cell_length_a	11.665
_cell_length_b	13.915
_cell_length_c	17.343
_cell_angle_alpha	95.514
_cell_angle_beta	99.792
_cell_angle_gamma	101.313
loop_
_atom_site_label
_atom_site_type_symbol
_atom_site_fract_x
_atom_site_fract_y
_atom_site_fract_z
_atom_site_charge
Mof_Ce	Ce	0.84883	0.06065	0.00409	2.6
Mof_O 	O 	0.7035	0.0789	0.0864	-0.775
Mof_O 	O 	0.3316	0.9382	0.0912	-0.736
Mof_O 	O 	0.9757	0.1332	0.9201	-0.624
Mof_O 	O 	0.6653	0.9015	0.9936	-0.507
Mof_O 	O 	0.8922	0.9285	0.925	-0.674
Mof_O 	O 	0.1084	0.0462	0.8983	-0.722
Mof_O 	O 	0.9982	0.8233	0.8914	-0.569
Mof_N 	N 	0.1234	0.3911	0.5216	-0.123
Mof_N 	N 	0.1758	0.5181	0.4045	-0.126
Mof_N 	N 	0.3402	0.4991	0.6243	-0.127
Mof_N 	N 	0.3903	0.63	0.508	-0.122
Mof_C 	C 	0.0979	0.1811	0.8291	-0.302
Mof_C 	C 	0.6131	0.7007	0.7001	0.159
Mof_C 	C 	0.9019	0.856	0.8818	0.547
Mof_C 	C 	0.3823	0.8392	0.1913	-0.269
Mof_C 	C 	0.2179	0.5808	0.3542	0.118
Mof_C 	C 	0.8049	0.8034	0.8157	-0.249
Mof_C 	C 	0.1659	0.2992	0.7194	0.194
Mof_C 	C 	0.0796	0.4538	0.361	0.117
Mof_C 	C 	0.2816	0.8355	0.222	0.197
Mof_H 	H 	0.2249	0.8721	0.2023	-0.039
Mof_C 	C 	0.0556	0.1152	0.8865	0.634
Mof_C 	C 	0.6089	0.7914	0.7399	-0.212
Mof_H 	H 	0.5404	0.8184	0.7271	0.124
Mof_C 	C 	0.0454	0.258	0.8136	0.185
Mof_H 	H 	0.9841	0.2706	0.8403	-0.015
Mof_C 	C 	0.2996	0.4355	0.6734	0.117
Mof_C 	C 	0.9282	0.2175	0.2973	-0.229
Mof_H 	H 	0.9969	0.1954	0.3198	0.095
Mof_C 	C 	0.7038	0.8425	0.7979	0.168
Mof_H 	H 	0.7	0.9039	0.8254	-0.011
Mof_C 	C 	0.3785	0.4593	0.7512	-0.084
Mof_H 	H 	0.3705	0.4262	0.7961	0.07
Mof_C 	C 	0.3419	0.7222	0.31	0.182
Mof_C 	C 	0.0591	0.4741	0.2798	-0.075
Mof_H 	H 	0.9969	0.4392	0.238	0.073
Mof_C 	C 	0.5069	0.6414	0.6415	-0.12
Mof_C 	C 	0.4076	0.9002	0.1285	0.614
Mof_C 	C 	0.0095	0.3746	0.3863	-0.121
Mof_C 	C 	0.2616	0.7782	0.282	-0.238
Mof_H 	H 	0.1922	0.7775	0.3039	0.116
Mof_C 	C 	0.4634	0.5364	0.7467	-0.079
Mof_H 	H 	0.5277	0.5692	0.7879	0.068
Mof_C 	C 	0.115	0.3405	0.5852	0.118
Mof_C 	C 	0.1456	0.5522	0.2754	-0.088
Mof_H 	H 	0.1571	0.5825	0.2297	0.067
Mof_C 	C 	0.1972	0.3626	0.6567	-0.141
Mof_C 	C 	0.8452	0.1573	0.2346	0.183
Mof_H 	H 	0.8585	0.0959	0.2132	-0.06
Mof_C 	C 	0.4401	0.5608	0.6681	0.116
Mof_C 	C 	0.4618	0.7838	0.2194	0.179
Mof_H 	H 	0.5321	0.786	0.1983	-0.006
Mof_C 	C 	0.5012	0.7583	0.4659	-0.076
Mof_H 	H 	0.5291	0.8051	0.4332	0.071
Mof_C 	C 	0.9116	0.3076	0.3263	0.166
Mof_C 	C 	0.7454	0.1887	0.2053	-0.272
Mof_C 	C 	0.8094	0.7178	0.7751	0.157
Mof_H 	H 	0.8794	0.6924	0.7866	0.009
Mof_C 	C 	0.3164	0.6586	0.3726	-0.135
Mof_C 	C 	0.218	0.2213	0.7343	-0.26
Mof_H 	H 	0.2779	0.2079	0.7066	0.114
Mof_C 	C 	0.7156	0.6647	0.7167	-0.214
Mof_H 	H 	0.7219	0.6045	0.6885	0.117
Mof_C 	C 	0.4413	0.7243	0.2784	-0.235
Mof_H 	H 	0.4965	0.6855	0.2964	0.115
Mof_C 	C 	0.0107	0.2662	0.5653	-0.079
Mof_H 	H 	0.9823	0.2214	0.5993	0.049
Mof_C 	C 	0.3964	0.6802	0.4435	0.124
Mof_C 	C 	0.4848	0.6735	0.5676	0.123
Mof_C 	C 	0.028	0.3476	0.4615	0.121
Mof_C 	C 	0.5532	0.7542	0.5405	-0.076
Mof_H 	H 	0.6235	0.7978	0.5698	0.072
Mof_C 	C 	0.1835	0.162	0.7896	0.207
Mof_H 	H 	0.2198	0.108	0.7999	-0.033
Mof_C 	C 	0.7246	0.2755	0.237	0.168
Mof_H 	H 	0.6511	0.2931	0.2185	-0.011
Mof_C 	C 	0.8096	0.3394	0.2965	-0.22
Mof_H 	H 	0.7977	0.4023	0.3156	0.12
Mof_C 	C 	0.0809	0.3178	0.7592	-0.256
Mof_H 	H 	0.0454	0.3725	0.7496	0.12
Mof_C 	C 	0.9571	0.2682	0.4906	-0.088
Mof_H 	H 	0.8857	0.2251	0.4625	0.056
Mof_C 	C 	0.6638	0.1298	0.1348	0.56
Mof_O 	O 	0.5515	0.1015	0.142	-0.288
Mof_O 	O 	0.486	0.8096	0.0012	-0.352
Mof_C 	C 	0.595	0.818	0.9905	0.399
Mof_C 	C 	0.7384	0.7109	0.9644	0.049
Mof_C 	C 	0.761	0.619	0.9418	0.003
Mof_C 	C 	0.6741	0.5337	0.9379	0.079
Mof_C 	C 	0.5644	0.5403	0.9567	-0.028
Mof_C 	C 	0.5418	0.6323	0.9793	0.081
Mof_C 	C 	0.6288	0.7176	0.9832	-0.106
Mof_O 	O 	0.5236	0.9457	0.1397	-0.252
Mof_O 	O 	0.8193	0.2382	0.0024	-0.549
Mof_O 	O 	0.9314	0.3442	0.1018	-0.289
Mof_O 	O 	0.5615	0.1507	0.1052	-0.316
Mof_O 	O 	0.4878	0.8774	0.087	-0.374
Mof_C 	C 	0.8557	0.3186	0.0355	0.478
Mof_C 	C 	0.8219	0.4933	0.0576	0.086
Mof_C 	C 	0.8077	0.405	0.0085	-0.237
Mof_C 	C 	0.7512	0.3953	0.9299	0.157
Mof_C 	C 	0.709	0.4739	0.9005	-0.074
Mof_C 	C 	0.7797	0.5718	0.0281	-0.087
Mof_C 	C 	0.723	0.5621	0.9496	0
Mof_Ce	Ce	0.15117	0.93935	0.99591	3.416
Mof_O 	O 	0.2965	0.9211	0.9136	-0.776
Mof_O 	O 	0.6684	0.0618	0.9088	-0.682
Mof_O 	O 	0.0243	0.8668	0.0799	-0.72
Mof_O 	O 	0.3347	0.0985	0.0064	-0.645
Mof_O 	O 	0.1078	0.0715	0.075	-0.855
Mof_O 	O 	0.8916	0.9538	0.1017	-0.583
Mof_O 	O 	0.0018	0.1767	0.1086	-0.538
Mof_N 	N 	0.8766	0.6089	0.4784	-0.122
Mof_N 	N 	0.8242	0.4819	0.5955	-0.125
Mof_N 	N 	0.6598	0.5009	0.3757	-0.127
Mof_N 	N 	0.6097	0.37	0.492	-0.123
Mof_C 	C 	0.9021	0.8189	0.1709	-0.297
Mof_C 	C 	0.3869	0.2993	0.2999	0.182
Mof_C 	C 	0.0981	0.144	0.1182	0.605
Mof_C 	C 	0.6177	0.1608	0.8087	-0.258
Mof_C 	C 	0.7821	0.4192	0.6458	0.118
Mof_C 	C 	0.1951	0.1966	0.1843	-0.321
Mof_C 	C 	0.8341	0.7008	0.2806	0.193
Mof_C 	C 	0.9204	0.5462	0.639	0.115
Mof_C 	C 	0.7184	0.1645	0.778	0.174
Mof_H 	H 	0.7751	0.1279	0.7977	-0.045
Mof_C 	C 	0.9444	0.8848	0.1135	0.632
Mof_C 	C 	0.3911	0.2086	0.2601	-0.258
Mof_H 	H 	0.4596	0.1816	0.2729	0.119
Mof_C 	C 	0.9546	0.742	0.1864	0.193
Mof_H 	H 	0.0159	0.7294	0.1597	-0.028
Mof_C 	C 	0.7004	0.5645	0.3266	0.114
Mof_C 	C 	0.0718	0.7825	0.7027	-0.217
Mof_H 	H 	0.0031	0.8046	0.6802	0.108
Mof_C 	C 	0.2962	0.1575	0.2021	0.216
Mof_H 	H 	0.3	0.0961	0.1746	-0.081
Mof_C 	C 	0.6215	0.5407	0.2488	-0.079
Mof_H 	H 	0.6295	0.5738	0.2039	0.062
Mof_C 	C 	0.6581	0.2778	0.69	0.171
Mof_C 	C 	0.9409	0.5259	0.7202	-0.067
Mof_H 	H 	0.0031	0.5608	0.762	0.069
Mof_C 	C 	0.4931	0.3586	0.3585	-0.131
Mof_C 	C 	0.5924	0.0998	0.8715	0.579
Mof_C 	C 	0.9905	0.6254	0.6137	-0.118
Mof_C 	C 	0.7384	0.2218	0.718	-0.236
Mof_H 	H 	0.8078	0.2225	0.6961	0.104
Mof_C 	C 	0.5366	0.4636	0.2533	-0.087
Mof_H 	H 	0.4723	0.4308	0.2121	0.071
Mof_C 	C 	0.885	0.6595	0.4148	0.117
Mof_C 	C 	0.8544	0.4478	0.7246	-0.091
Mof_H 	H 	0.8429	0.4175	0.7703	0.071
Mof_C 	C 	0.8028	0.6374	0.3433	-0.136
Mof_C 	C 	0.1548	0.8427	0.7654	0.183
Mof_H 	H 	0.1415	0.9041	0.7868	-0.025
Mof_C 	C 	0.5599	0.4392	0.3319	0.121
Mof_C 	C 	0.5382	0.2162	0.7806	0.16
Mof_H 	H 	0.4679	0.214	0.8017	-0
Mof_C 	C 	0.4988	0.2417	0.5341	-0.082
Mof_H 	H 	0.4709	0.1949	0.5668	0.05
Mof_C 	C 	0.0884	0.6924	0.6737	0.162
Mof_C 	C 	0.2546	0.8113	0.7947	-0.262
Mof_C 	C 	0.1906	0.2822	0.2249	0.201
Mof_H 	H 	0.1206	0.3076	0.2134	-0.008
Mof_C 	C 	0.6836	0.3414	0.6274	-0.134
Mof_C 	C 	0.782	0.7787	0.2657	-0.248
Mof_H 	H 	0.7221	0.7921	0.2934	0.124
Mof_C 	C 	0.2844	0.3353	0.2833	-0.249
Mof_H 	H 	0.2781	0.3955	0.3115	0.128
Mof_C 	C 	0.5587	0.2757	0.7216	-0.229
Mof_H 	H 	0.5035	0.3145	0.7036	0.111
Mof_C 	C 	0.9893	0.7338	0.4347	-0.058
Mof_H 	H 	0.0177	0.7786	0.4007	0.058
Mof_C 	C 	0.6036	0.3198	0.5565	0.117
Mof_C 	C 	0.5152	0.3265	0.4324	0.122
Mof_C 	C 	0.972	0.6524	0.5385	0.131
Mof_C 	C 	0.4468	0.2458	0.4595	-0.085
Mof_H 	H 	0.3765	0.2022	0.4302	0.053
Mof_C 	C 	0.8165	0.838	0.2104	0.201
Mof_H 	H 	0.7802	0.892	0.2001	-0.003
Mof_C 	C 	0.2754	0.7245	0.763	0.167
Mof_H 	H 	0.3489	0.7069	0.7815	-0.009
Mof_C 	C 	0.1904	0.6606	0.7035	-0.214
Mof_H 	H 	0.2023	0.5977	0.6844	0.118
Mof_C 	C 	0.9191	0.6822	0.2408	-0.258
Mof_H 	H 	0.9546	0.6275	0.2504	0.12
Mof_C 	C 	0.0429	0.7318	0.5094	-0.096
Mof_H 	H 	0.1143	0.7749	0.5375	0.077
Mof_C 	C 	0.3362	0.8702	0.8652	0.58
Mof_O 	O 	0.4485	0.8985	0.858	-0.225
Mof_O 	O 	0.514	0.1904	0.9988	-0.253
Mof_C 	C 	0.405	0.182	0.0095	0.322
Mof_C 	C 	0.2616	0.2891	0.0356	0.023
Mof_C 	C 	0.239	0.381	0.0582	-0.039
Mof_C 	C 	0.3259	0.4663	0.0621	-0.009
Mof_C 	C 	0.4356	0.4597	0.0433	-0.035
Mof_C 	C 	0.4582	0.3677	0.0207	0.03
Mof_C 	C 	0.3712	0.2824	0.0168	-0.104
Mof_O 	O 	0.4764	0.0543	0.8603	-0.32
Mof_O 	O 	0.1807	0.7618	0.9976	-0.569
Mof_O 	O 	0.0686	0.6558	0.8982	-0.289
Mof_O 	O 	0.4385	0.8493	0.8948	-0.305
Mof_O 	O 	0.5122	0.1226	0.913	-0.35
Mof_C 	C 	0.1443	0.6814	0.9645	0.475
Mof_C 	C 	0.1781	0.5067	0.9424	0.038
Mof_C 	C 	0.1923	0.595	0.9915	-0.099
Mof_C 	C 	0.2488	0.6047	0.0701	0.017
Mof_C 	C 	0.291	0.5261	0.0995	-0.018
Mof_C 	C 	0.2203	0.4282	0.9719	0.029
Mof_C 	C 	0.277	0.4379	0.0504	0.018
Mof_Ce	Ce	0.5	0	-0	2.464
_end
