data_functionalizedCrystal
_audit_creation_method	'EQeq! by Chris Wilmer'
_symmetry_space_group_name_H-M	'P1'
_symmetry_Int_Tables_number	1
_symmetry_cell_setting	triclinic
loop_
_symmetry_equiv_pos_as_xyz
  x,y,z
_cell_length_a	11.6941
_cell_length_b	21.3768
_cell_length_c	21.3768
_cell_angle_alpha	63.2484
_cell_angle_beta	79.4934
_cell_angle_gamma	100.507
loop_
_atom_site_label
_atom_site_type_symbol
_atom_site_fract_x
_atom_site_fract_y
_atom_site_fract_z
_atom_site_charge
Mof_Nd	Nd	0.5551	0.07949	0.39063	2.252
Mof_Nd	Nd	0.94573	0.39063	0.52988	2.252
Mof_Nd	Nd	0.47561	0.52988	0.07949	2.252
Mof_Nd	Nd	0.4449	0.92051	0.60937	2.251
Mof_Nd	Nd	0.05427	0.60937	0.47012	2.251
Mof_Nd	Nd	0.52439	0.47012	0.92051	2.252
Mof_C 	C 	0.52117	0.89634	0.45783	0.543
Mof_C 	C 	0.53098	0.83305	0.44371	-0.182
Mof_C 	C 	0.42761	0.79122	0.44139	0.131
Mof_C 	C 	0.4269	0.7271	0.44	-0.131
Mof_C 	C 	0.3067	0.6784	0.4471	0.358
Mof_C 	C 	0.53341	0.70632	0.43899	0.072
Mof_C 	C 	0.64225	0.7475	0.43895	0.016
Mof_C 	C 	0.63695	0.812	0.44045	0.082
Mof_C 	C 	0.2683	0.9629	0.5273	0.429
Mof_C 	C 	0.979	0.45783	0.64583	0.543
Mof_C 	C 	0.97469	0.44371	0.72324	-0.183
Mof_C 	C 	0.869	0.44139	0.76739	0.131
Mof_C 	C 	0.8669	0.44	0.8329	-0.131
Mof_C 	C 	0.7538	0.4471	0.8745	0.358
Mof_C 	C 	0.9724	0.43899	0.85469	0.072
Mof_C 	C 	0.0812	0.43895	0.81355	0.015
Mof_C 	C 	0.0774	0.44045	0.74755	0.082
Mof_C 	C 	0.7956	0.5273	0.5098	0.429
Mof_C 	C 	0.62483	0.64583	0.89634	0.543
Mof_C 	C 	0.69793	0.72324	0.83305	-0.183
Mof_C 	C 	0.63639	0.76739	0.79122	0.131
Mof_C 	C 	0.6998	0.8329	0.7271	-0.132
Mof_C 	C 	0.6283	0.8745	0.6784	0.358
Mof_C 	C 	0.82709	0.85469	0.70632	0.074
Mof_C 	C 	0.89475	0.81355	0.7475	0.014
Mof_C 	C 	0.82495	0.74755	0.812	0.083
Mof_C 	C 	0.3054	0.5098	0.9629	0.429
Mof_C 	C 	0.47883	0.10366	0.54217	0.543
Mof_C 	C 	0.46902	0.16695	0.55629	-0.182
Mof_C 	C 	0.57239	0.20878	0.55861	0.131
Mof_C 	C 	0.5731	0.2729	0.56	-0.131
Mof_C 	C 	0.6933	0.3216	0.5529	0.358
Mof_C 	C 	0.46659	0.29368	0.56101	0.072
Mof_C 	C 	0.35775	0.2525	0.56105	0.016
Mof_C 	C 	0.36305	0.188	0.55955	0.082
Mof_C 	C 	0.7317	0.0371	0.4727	0.429
Mof_C 	C 	0.021	0.54217	0.35417	0.543
Mof_C 	C 	0.02531	0.55629	0.27676	-0.183
Mof_C 	C 	0.131	0.55861	0.23261	0.131
Mof_C 	C 	0.1331	0.56	0.1671	-0.131
Mof_C 	C 	0.2462	0.5529	0.1255	0.358
Mof_C 	C 	0.0276	0.56101	0.14531	0.072
Mof_C 	C 	0.9188	0.56105	0.18645	0.015
Mof_C 	C 	0.9226	0.55955	0.25245	0.082
Mof_C 	C 	0.2044	0.4727	0.4902	0.429
Mof_C 	C 	0.37517	0.35417	0.10366	0.543
Mof_C 	C 	0.30207	0.27676	0.16695	-0.183
Mof_C 	C 	0.36361	0.23261	0.20878	0.131
Mof_C 	C 	0.3002	0.1671	0.2729	-0.132
Mof_C 	C 	0.3717	0.1255	0.3216	0.358
Mof_C 	C 	0.17291	0.14531	0.29368	0.074
Mof_C 	C 	0.10525	0.18645	0.2525	0.014
Mof_C 	C 	0.17505	0.25245	0.188	0.083
Mof_C 	C 	0.6946	0.4902	0.0371	0.429
Mof_I 	I 	0.27431	0.8296	0.43549	-0.189
Mof_I 	I 	0.5317	0.60826	0.43894	-0.1
Mof_I 	I 	0.79368	0.8789	0.43895	-0.122
Mof_I 	I 	0.7098	0.43549	0.73491	-0.188
Mof_I 	I 	0.97064	0.43894	0.9528	-0.098
Mof_I 	I 	0.23263	0.43895	0.68215	-0.123
Mof_I 	I 	0.44471	0.73491	0.8296	-0.189
Mof_I 	I 	0.92344	0.9528	0.60826	-0.091
Mof_I 	I 	0.91478	0.68215	0.8789	-0.119
Mof_I 	I 	0.72569	0.1704	0.56451	-0.189
Mof_I 	I 	0.4683	0.39174	0.56106	-0.1
Mof_I 	I 	0.20632	0.1211	0.56105	-0.122
Mof_I 	I 	0.2902	0.56451	0.26509	-0.188
Mof_I 	I 	0.02936	0.56106	0.0472	-0.098
Mof_I 	I 	0.76737	0.56105	0.31785	-0.123
Mof_I 	I 	0.55529	0.26509	0.1704	-0.189
Mof_I 	I 	0.07656	0.0472	0.39174	-0.091
Mof_I 	I 	0.08522	0.31785	0.1211	-0.119
Mof_N 	N 	0.74476	0.72652	0.43804	-0.165
Mof_N 	N 	0.1828	0.43804	0.83544	-0.166
Mof_N 	N 	0.01824	0.83544	0.72652	-0.158
Mof_N 	N 	0.25524	0.27348	0.56196	-0.165
Mof_N 	N 	0.8172	0.56196	0.16456	-0.166
Mof_N 	N 	0.98176	0.16456	0.27348	-0.158
Mof_O 	O 	0.55694	0.95973	0.40461	-0.557
Mof_O 	O 	0.47637	0.87463	0.52432	-0.552
Mof_O 	O 	0.23466	0.63807	0.50949	-0.465
Mof_O 	O 	0.2822	0.68347	0.39097	-0.432
Mof_O 	O 	0.37782	0.99277	0.49231	-0.648
Mof_O 	O 	0.2307	0.9177	0.5934	-0.492
Mof_O 	O 	0.96155	0.40461	0.63566	-0.557
Mof_O 	O 	0.00069	0.52432	0.60105	-0.552
Mof_O 	O 	0.74415	0.50949	0.85244	-0.466
Mof_O 	O 	0.67317	0.39097	0.92556	-0.432
Mof_O 	O 	0.87013	0.49231	0.51492	-0.648
Mof_O 	O 	0.8241	0.5934	0.4889	-0.497
Mof_O 	O 	0.59721	0.63566	0.95973	-0.557
Mof_O 	O 	0.60174	0.60105	0.87463	-0.552
Mof_O 	O 	0.59659	0.85244	0.63807	-0.465
Mof_O 	O 	0.59873	0.92556	0.68347	-0.432
Mof_O 	O 	0.38505	0.51492	0.99277	-0.648
Mof_O 	O 	0.313	0.4889	0.9177	-0.501
Mof_O 	O 	0.44306	0.04027	0.59539	-0.557
Mof_O 	O 	0.52363	0.12537	0.47568	-0.552
Mof_O 	O 	0.76534	0.36193	0.49051	-0.465
Mof_O 	O 	0.7178	0.31653	0.60903	-0.432
Mof_O 	O 	0.62218	0.00723	0.50769	-0.648
Mof_O 	O 	0.7693	0.0823	0.4066	-0.492
Mof_O 	O 	0.03845	0.59539	0.36434	-0.557
Mof_O 	O 	0.99931	0.47568	0.39895	-0.552
Mof_O 	O 	0.25585	0.49051	0.14756	-0.466
Mof_O 	O 	0.32683	0.60903	0.07444	-0.432
Mof_O 	O 	0.12987	0.50769	0.48508	-0.648
Mof_O 	O 	0.1759	0.4066	0.5111	-0.497
Mof_O 	O 	0.40279	0.36434	0.04027	-0.557
Mof_O 	O 	0.39826	0.39895	0.12537	-0.552
Mof_O 	O 	0.40341	0.14756	0.36193	-0.465
Mof_O 	O 	0.40127	0.07444	0.31653	-0.432
Mof_O 	O 	0.61495	0.48508	0.00723	-0.648
Mof_O 	O 	0.687	0.5111	0.0823	-0.501
Mof_H 	H 	0.17548	0.24309	0.55495	0.063
Mof_H 	H 	0.25098	0.32107	0.56972	0.093
Mof_H 	H 	0.74902	0.67893	0.43028	0.093
Mof_H 	H 	0.82452	0.75691	0.44505	0.063
Mof_H 	H 	0.24119	0.40575	0.82589	0.063
Mof_H 	H 	0.20769	0.46958	0.86293	0.098
Mof_H 	H 	0.06957	0.80893	0.70202	0.069
Mof_H 	H 	0.06813	0.87989	0.73382	0.069
Mof_H 	H 	0.79231	0.53042	0.13707	0.098
Mof_H 	H 	0.75881	0.59425	0.17411	0.063
Mof_H 	H 	0.93187	0.12011	0.26618	0.069
Mof_H 	H 	0.93043	0.19107	0.29798	0.069
_end
