data_functionalizedCrystal
_audit_creation_method	'EQeq! by Chris Wilmer'
_symmetry_space_group_name_H-M	'P1'
_symmetry_Int_Tables_number	1
_symmetry_cell_setting	triclinic
loop_
_symmetry_equiv_pos_as_xyz
  x,y,z
_cell_length_a	8.3259
_cell_length_b	22.773
_cell_length_c	20.105
_cell_angle_alpha	90
_cell_angle_beta	93.7
_cell_angle_gamma	90
loop_
_atom_site_label
_atom_site_type_symbol
_atom_site_fract_x
_atom_site_fract_y
_atom_site_fract_z
_atom_site_charge
Mof_C 	C 	0.692	0.4489	0.5656	0.347
Mof_C 	C 	0.7487	0.4062	0.6199	-0.075
Mof_C 	C 	0.6465	0.3619	0.6378	-0.012
Mof_H 	H 	0.5442	0.3576	0.6145	0.053
Mof_C 	C 	0.6923	0.3236	0.6897	-0.038
Mof_H 	H 	0.6193	0.2944	0.7029	0.041
Mof_C 	C 	0.8413	0.3278	0.7216	-0.031
Mof_C 	C 	0.9467	0.3716	0.7042	-0.04
Mof_H 	H 	0.0496	0.375	0.7272	0.062
Mof_C 	C 	0.9007	0.4108	0.6523	0
Mof_H 	H 	0.9733	0.4403	0.6396	0.047
Mof_C 	C 	0.898	0.288	0.7779	0.224
Mof_C 	C 	0.9336	0.15	0.9307	0.121
Mof_H 	H 	0.0079	0.1515	0.9685	0.004
Mof_C 	C 	0.944	0.1931	0.8833	-0.201
Mof_H 	H 	0.0212	0.2237	0.889	0.125
Mof_C 	C 	0.8374	0.1908	0.8262	0.202
Mof_C 	C 	0.7334	0.1426	0.8198	-0.203
Mof_H 	H 	0.6642	0.138	0.7807	0.101
Mof_C 	C 	0.7314	0.1021	0.87	0.113
Mof_H 	H 	0.66	0.0697	0.8644	0.002
Mof_C 	C 	0.8519	0.6567	0.4524	0.316
Mof_C 	C 	0.8564	0.713	0.4112	-0.061
Mof_C 	C 	0.7476	0.7245	0.361	-0.011
Mof_H 	H 	0.6603	0.698	0.3532	0.047
Mof_C 	C 	0.7556	0.7724	0.3206	-0.033
Mof_H 	H 	0.6807	0.776	0.2831	0.037
Mof_C 	C 	0.8663	0.8146	0.3323	-0.04
Mof_C 	C 	0.9776	0.8031	0.3828	-0.035
Mof_H 	H 	0.0599	0.8312	0.3932	0.06
Mof_C 	C 	0.9754	0.7518	0.42	-0.009
Mof_H 	H 	0.0609	0.7443	0.4525	0.052
Mof_C 	C 	0.8807	0.8681	0.2927	0.217
Mof_C 	C 	0.786	0.915	0.1847	0.207
Mof_C 	C 	0.6873	0.9066	0.1271	-0.208
Mof_H 	H 	0.6251	0.8717	0.1219	0.112
Mof_C 	C 	0.6786	0.9485	0.0773	0.114
Mof_H 	H 	0.6137	0.9412	0.0375	0.001
Mof_C 	C 	0.8534	0.0088	0.1404	0.115
Mof_H 	H 	0.9118	0.0445	0.1452	-0.003
Mof_C 	C 	0.8686	0.969	0.1917	-0.205
Mof_H 	H 	0.9335	0.9776	0.2311	0.129
Mof_N 	N 	0.8262	0.1058	0.9274	-0.222
Mof_N 	N 	0.8284	0.2333	0.7758	-0.245
Mof_N 	N 	0.7614	0.00038	0.0839	-0.227
Mof_N 	N 	0.7926	0.8705	0.2323	-0.245
Mof_O 	O 	0.7844	0.49285	0.55803	-0.397
Mof_O 	O 	0.5642	0.43922	0.53291	-0.365
Mof_O 	O 	0.7314	0.62349	0.43695	-0.377
Mof_O 	O 	0.9581	0.6473	0.4958	-0.289
Mof_O 	O 	0.9645	0.9096	0.3127	-0.225
Mof_O 	O 	0.9949	0.3032	0.8218	-0.23
Mof_Cu	Cu	0.71295	0.55428	0.49448	0.919
Mof_H 	H 	0.77	0.221	0.7402	0.127
Mof_H 	H 	0.7305	0.84	0.2229	0.128
Mof_C 	C 	0.808	0.9489	0.9344	0.348
Mof_C 	C 	0.7513	0.9062	0.8801	-0.074
Mof_C 	C 	0.8535	0.8619	0.8622	-0.011
Mof_H 	H 	0.9558	0.8576	0.8855	0.054
Mof_C 	C 	0.8077	0.8236	0.8103	-0.038
Mof_H 	H 	0.8807	0.7944	0.7971	0.042
Mof_C 	C 	0.6587	0.8278	0.7784	-0.031
Mof_C 	C 	0.5533	0.8716	0.7958	-0.041
Mof_H 	H 	0.4504	0.875	0.7728	0.063
Mof_C 	C 	0.5993	0.9108	0.8477	0.001
Mof_H 	H 	0.5267	0.9403	0.8604	0.047
Mof_C 	C 	0.602	0.788	0.7221	0.224
Mof_C 	C 	0.5664	0.65	0.5693	0.12
Mof_H 	H 	0.4921	0.6515	0.5315	0.005
Mof_C 	C 	0.556	0.6931	0.6167	-0.202
Mof_H 	H 	0.4788	0.7237	0.611	0.126
Mof_C 	C 	0.6626	0.6908	0.6738	0.202
Mof_C 	C 	0.7666	0.6426	0.6802	-0.203
Mof_H 	H 	0.8358	0.638	0.7193	0.102
Mof_C 	C 	0.7686	0.6021	0.63	0.113
Mof_H 	H 	0.84	0.5697	0.6356	0.002
Mof_C 	C 	0.6481	0.1567	0.0476	0.316
Mof_C 	C 	0.6436	0.213	0.0888	-0.061
Mof_C 	C 	0.7524	0.2245	0.139	-0.011
Mof_H 	H 	0.8397	0.198	0.1468	0.047
Mof_C 	C 	0.7444	0.2724	0.1794	-0.033
Mof_H 	H 	0.8193	0.276	0.2169	0.037
Mof_C 	C 	0.6337	0.3146	0.1677	-0.04
Mof_C 	C 	0.5224	0.3031	0.1172	-0.035
Mof_H 	H 	0.4401	0.3312	0.1068	0.06
Mof_C 	C 	0.5246	0.2518	0.08	-0.01
Mof_H 	H 	0.4391	0.2443	0.0475	0.052
Mof_C 	C 	0.6193	0.3681	0.2073	0.217
Mof_C 	C 	0.714	0.415	0.3153	0.207
Mof_C 	C 	0.8127	0.4066	0.3729	-0.208
Mof_H 	H 	0.8749	0.3717	0.3781	0.112
Mof_C 	C 	0.8214	0.4485	0.4227	0.114
Mof_H 	H 	0.8863	0.4412	0.4625	0.001
Mof_C 	C 	0.6466	0.5088	0.3596	0.117
Mof_H 	H 	0.5882	0.5445	0.3548	-0.003
Mof_C 	C 	0.6314	0.469	0.3083	-0.206
Mof_H 	H 	0.5665	0.4776	0.2689	0.129
Mof_N 	N 	0.6738	0.6058	0.5726	-0.222
Mof_N 	N 	0.6716	0.7333	0.7242	-0.245
Mof_N 	N 	0.7386	0.50038	0.4161	-0.226
Mof_N 	N 	0.7074	0.3705	0.2677	-0.245
Mof_O 	O 	0.7156	0.99285	0.94197	-0.397
Mof_O 	O 	0.9358	0.93922	0.96709	-0.364
Mof_O 	O 	0.7686	0.12349	0.06305	-0.378
Mof_O 	O 	0.5419	0.1473	0.0042	-0.289
Mof_O 	O 	0.5355	0.4096	0.1873	-0.225
Mof_O 	O 	0.5051	0.8032	0.6782	-0.231
Mof_Cu	Cu	0.78705	0.05428	0.00552	0.919
Mof_H 	H 	0.73	0.721	0.7598	0.127
Mof_H 	H 	0.7695	0.34	0.2771	0.127
Mof_C 	C 	0.308	0.5511	0.4344	0.348
Mof_C 	C 	0.2513	0.5938	0.3801	-0.074
Mof_C 	C 	0.3535	0.6381	0.3622	-0.011
Mof_H 	H 	0.4558	0.6424	0.3855	0.054
Mof_C 	C 	0.3077	0.6764	0.3103	-0.038
Mof_H 	H 	0.3807	0.7056	0.2971	0.041
Mof_C 	C 	0.1587	0.6722	0.2784	-0.031
Mof_C 	C 	0.0533	0.6284	0.2958	-0.04
Mof_H 	H 	0.9504	0.625	0.2728	0.062
Mof_C 	C 	0.0993	0.5892	0.3477	0
Mof_H 	H 	0.0267	0.5597	0.3604	0.047
Mof_C 	C 	0.102	0.712	0.2221	0.224
Mof_C 	C 	0.0664	0.85	0.0693	0.121
Mof_H 	H 	0.9921	0.8485	0.0315	0.004
Mof_C 	C 	0.056	0.8069	0.1167	-0.201
Mof_H 	H 	0.9788	0.7763	0.111	0.125
Mof_C 	C 	0.1626	0.8092	0.1738	0.202
Mof_C 	C 	0.2666	0.8574	0.1802	-0.203
Mof_H 	H 	0.3358	0.862	0.2193	0.101
Mof_C 	C 	0.2686	0.8979	0.13	0.113
Mof_H 	H 	0.34	0.9303	0.1356	0.002
Mof_C 	C 	0.1481	0.3433	0.5476	0.316
Mof_C 	C 	0.1436	0.287	0.5888	-0.061
Mof_C 	C 	0.2524	0.2755	0.639	-0.011
Mof_H 	H 	0.3397	0.302	0.6468	0.047
Mof_C 	C 	0.2444	0.2276	0.6794	-0.033
Mof_H 	H 	0.3193	0.224	0.7169	0.037
Mof_C 	C 	0.1337	0.1854	0.6677	-0.04
Mof_C 	C 	0.0224	0.1969	0.6172	-0.035
Mof_H 	H 	0.9401	0.1688	0.6068	0.06
Mof_C 	C 	0.0246	0.2482	0.58	-0.009
Mof_H 	H 	0.9391	0.2557	0.5475	0.052
Mof_C 	C 	0.1193	0.1319	0.7073	0.217
Mof_C 	C 	0.214	0.085	0.8153	0.207
Mof_C 	C 	0.3127	0.0934	0.8729	-0.208
Mof_H 	H 	0.3749	0.1283	0.8781	0.112
Mof_C 	C 	0.3214	0.0515	0.9227	0.114
Mof_H 	H 	0.3863	0.0588	0.9625	0.001
Mof_C 	C 	0.1466	0.9912	0.8596	0.115
Mof_H 	H 	0.0882	0.9555	0.8548	-0.003
Mof_C 	C 	0.1314	0.031	0.8083	-0.205
Mof_H 	H 	0.0665	0.0224	0.7689	0.129
Mof_N 	N 	0.1738	0.8942	0.0726	-0.222
Mof_N 	N 	0.1716	0.7667	0.2242	-0.245
Mof_N 	N 	0.2386	0.99962	0.9161	-0.227
Mof_N 	N 	0.2074	0.1295	0.7677	-0.245
Mof_O 	O 	0.2156	0.50715	0.44197	-0.397
Mof_O 	O 	0.4358	0.56078	0.46709	-0.365
Mof_O 	O 	0.2686	0.37651	0.56305	-0.377
Mof_O 	O 	0.0419	0.3527	0.5042	-0.289
Mof_O 	O 	0.0355	0.0904	0.6873	-0.225
Mof_O 	O 	0.0051	0.6968	0.1782	-0.23
Mof_Cu	Cu	0.28705	0.44572	0.50552	0.919
Mof_H 	H 	0.23	0.779	0.2598	0.127
Mof_H 	H 	0.2695	0.16	0.7771	0.128
Mof_C 	C 	0.192	0.0511	0.0656	0.348
Mof_C 	C 	0.2487	0.0938	0.1199	-0.074
Mof_C 	C 	0.1465	0.1381	0.1378	-0.011
Mof_H 	H 	0.0442	0.1424	0.1145	0.054
Mof_C 	C 	0.1923	0.1764	0.1897	-0.038
Mof_H 	H 	0.1193	0.2056	0.2029	0.042
Mof_C 	C 	0.3413	0.1722	0.2216	-0.031
Mof_C 	C 	0.4467	0.1284	0.2042	-0.041
Mof_H 	H 	0.5496	0.125	0.2272	0.063
Mof_C 	C 	0.4007	0.0892	0.1523	0.001
Mof_H 	H 	0.4733	0.0597	0.1396	0.047
Mof_C 	C 	0.398	0.212	0.2779	0.224
Mof_C 	C 	0.4336	0.35	0.4307	0.12
Mof_H 	H 	0.5079	0.3485	0.4685	0.005
Mof_C 	C 	0.444	0.3069	0.3833	-0.202
Mof_H 	H 	0.5212	0.2763	0.389	0.126
Mof_C 	C 	0.3374	0.3092	0.3262	0.202
Mof_C 	C 	0.2334	0.3574	0.3198	-0.203
Mof_H 	H 	0.1642	0.362	0.2807	0.102
Mof_C 	C 	0.2314	0.3979	0.37	0.113
Mof_H 	H 	0.16	0.4303	0.3644	0.002
Mof_C 	C 	0.3519	0.8433	0.9524	0.316
Mof_C 	C 	0.3564	0.787	0.9112	-0.061
Mof_C 	C 	0.2476	0.7755	0.861	-0.011
Mof_H 	H 	0.1603	0.802	0.8532	0.047
Mof_C 	C 	0.2556	0.7276	0.8206	-0.033
Mof_H 	H 	0.1807	0.724	0.7831	0.037
Mof_C 	C 	0.3663	0.6854	0.8323	-0.04
Mof_C 	C 	0.4776	0.6969	0.8828	-0.035
Mof_H 	H 	0.5599	0.6688	0.8932	0.06
Mof_C 	C 	0.4754	0.7482	0.92	-0.01
Mof_H 	H 	0.5609	0.7557	0.9525	0.052
Mof_C 	C 	0.3807	0.6319	0.7927	0.217
Mof_C 	C 	0.286	0.585	0.6847	0.207
Mof_C 	C 	0.1873	0.5934	0.6271	-0.208
Mof_H 	H 	0.1251	0.6283	0.6219	0.112
Mof_C 	C 	0.1786	0.5515	0.5773	0.114
Mof_H 	H 	0.1137	0.5588	0.5375	0.001
Mof_C 	C 	0.3534	0.4912	0.6404	0.117
Mof_H 	H 	0.4118	0.4555	0.6452	-0.003
Mof_C 	C 	0.3686	0.531	0.6917	-0.206
Mof_H 	H 	0.4335	0.5224	0.7311	0.129
Mof_N 	N 	0.3262	0.3942	0.4274	-0.222
Mof_N 	N 	0.3284	0.2667	0.2758	-0.245
Mof_N 	N 	0.2614	0.49962	0.5839	-0.226
Mof_N 	N 	0.2926	0.6295	0.7323	-0.245
Mof_O 	O 	0.2844	0.00715	0.05803	-0.397
Mof_O 	O 	0.0642	0.06078	0.03291	-0.364
Mof_O 	O 	0.2314	0.87651	0.93695	-0.378
Mof_O 	O 	0.4581	0.8527	0.9958	-0.289
Mof_O 	O 	0.4645	0.5904	0.8127	-0.225
Mof_O 	O 	0.4949	0.1968	0.3218	-0.231
Mof_Cu	Cu	0.21295	0.94572	0.99448	0.919
Mof_H 	H 	0.27	0.279	0.2402	0.127
Mof_H 	H 	0.2305	0.66	0.7229	0.127
_end
