data_functionalizedCrystal
_audit_creation_method	'EQeq! by Chris Wilmer'
_symmetry_space_group_name_H-M	'P1'
_symmetry_Int_Tables_number	1
_symmetry_cell_setting	triclinic
loop_
_symmetry_equiv_pos_as_xyz
  x,y,z
_cell_length_a	22.993
_cell_length_b	22.993
_cell_length_c	71.297
_cell_angle_alpha	90
_cell_angle_beta	90
_cell_angle_gamma	120
loop_
_atom_site_label
_atom_site_type_symbol
_atom_site_fract_x
_atom_site_fract_y
_atom_site_fract_z
_atom_site_charge
Mof_Ag	Ag	0.0262	0.51138	0.50099	0.366
Mof_O 	O 	0.2555	0.6231	0.42651	-0.885
Mof_C 	C 	0.2076	0.637	0.4277	0.54
Mof_O 	O 	0.299	0.5859	0.39405	-0.895
Mof_C 	C 	0.3257	0.5244	0.41474	-0.638
Mof_H 	H 	0.3146	0.4798	0.4177	0.214
Mof_C 	C 	0.3006	0.5321	0.39743	0.521
Mof_N 	N 	0.0889	0.5566	0.47641	-0.167
Mof_C 	C 	0.1573	0.5789	0.47676	-0.034
Mof_H 	H 	0.1777	0.5754	0.488	0.007
Mof_C 	C 	0.1959	0.6065	0.46073	0.033
Mof_H 	H 	0.2427	0.6218	0.461	0.023
Mof_C 	C 	0.166	0.6117	0.44435	-0.189
Mof_C 	C 	0.4916	0.9024	0.44399	0.019
Mof_H 	H 	0.5155	0.9228	0.4328	0.014
Mof_C 	C 	0.5027	0.941	0.46002	-0.01
Mof_H 	H 	0.5342	0.9878	0.4598	0.038
Mof_N 	N 	0.1769	0.7972	0.35614	-0.178
Mof_C 	C 	0.2219	0.7752	0.35215	-0.011
Mof_H 	H 	0.241	0.7816	0.34	0.011
Mof_C 	C 	0.2391	0.7439	0.36598	0.021
Mof_H 	H 	0.2699	0.7288	0.3633	0.046
Mof_C 	C 	0.2112	0.7345	0.38379	-0.16
Mof_C 	C 	0.1662	0.7565	0.38778	0.001
Mof_H 	H 	0.1471	0.7501	0.4	0.001
Mof_C 	C 	0.149	0.7878	0.37396	-0.014
Mof_H 	H 	0.1182	0.8029	0.3767	-0.002
Mof_Ag	Ag	0.69287	0.84471	0.83432	0.514
Mof_O 	O 	0.92217	0.95643	0.75984	-0.719
Mof_C 	C 	0.87427	0.97033	0.76103	0.605
Mof_O 	O 	0.96567	0.91923	0.72738	-0.683
Mof_C 	C 	0.99237	0.85773	0.74807	-0.388
Mof_H 	H 	0.98127	0.81313	0.75103	0.159
Mof_C 	C 	0.96727	0.86543	0.73076	0.396
Mof_N 	N 	0.75557	0.88993	0.80974	-0.169
Mof_C 	C 	0.82397	0.91223	0.81009	-0.013
Mof_H 	H 	0.84437	0.90873	0.82133	0.023
Mof_C 	C 	0.86257	0.93983	0.79406	0.039
Mof_H 	H 	0.90937	0.95513	0.79433	0.054
Mof_C 	C 	0.83267	0.94503	0.77768	-0.18
Mof_C 	C 	0.15827	0.23573	0.77732	0.003
Mof_H 	H 	0.18217	0.25613	0.76613	-0.006
Mof_C 	C 	0.16937	0.27433	0.79335	-0.029
Mof_H 	H 	0.20087	0.32113	0.79313	0.012
Mof_N 	N 	0.84357	0.13053	0.68947	-0.179
Mof_C 	C 	0.88857	0.10853	0.68548	-0.011
Mof_H 	H 	0.90767	0.11493	0.67333	0.017
Mof_C 	C 	0.90577	0.07723	0.69931	0.008
Mof_H 	H 	0.93657	0.06213	0.69663	0.055
Mof_C 	C 	0.87787	0.06783	0.71712	-0.153
Mof_C 	C 	0.83287	0.08983	0.72111	-0.006
Mof_H 	H 	0.81377	0.08343	0.73333	-0.002
Mof_C 	C 	0.81567	0.12113	0.70729	-0.016
Mof_H 	H 	0.78487	0.13623	0.71003	-0.006
Mof_Ag	Ag	0.35953	0.17805	0.16766	0.447
Mof_O 	O 	0.58883	0.28977	0.09318	-0.886
Mof_C 	C 	0.54093	0.30367	0.09437	0.541
Mof_O 	O 	0.63233	0.25257	0.06072	-0.9
Mof_C 	C 	0.65903	0.19107	0.08141	-0.65
Mof_H 	H 	0.64793	0.14647	0.08437	0.214
Mof_C 	C 	0.63393	0.19877	0.0641	0.539
Mof_N 	N 	0.42223	0.22327	0.14308	-0.171
Mof_C 	C 	0.49063	0.24557	0.14343	-0.032
Mof_H 	H 	0.51103	0.24207	0.15467	0.003
Mof_C 	C 	0.52923	0.27317	0.1274	0.03
Mof_H 	H 	0.57603	0.28847	0.12767	0.021
Mof_C 	C 	0.49933	0.27837	0.11102	-0.186
Mof_C 	C 	0.82493	0.56907	0.11066	0.014
Mof_H 	H 	0.84883	0.58947	0.09947	-0.003
Mof_C 	C 	0.83603	0.60767	0.12669	-0.022
Mof_H 	H 	0.86753	0.65447	0.12647	0.02
Mof_N 	N 	0.51023	0.46387	0.02281	-0.178
Mof_C 	C 	0.55523	0.44187	0.01882	-0.013
Mof_H 	H 	0.57433	0.44827	0.00667	0.008
Mof_C 	C 	0.57243	0.41057	0.03265	0.02
Mof_H 	H 	0.60323	0.39547	0.02997	0.046
Mof_C 	C 	0.54453	0.40117	0.05046	-0.161
Mof_C 	C 	0.49953	0.42317	0.05445	0
Mof_H 	H 	0.48043	0.41677	0.06667	0.002
Mof_C 	C 	0.48233	0.45447	0.04063	-0.016
Mof_H 	H 	0.45153	0.46957	0.04337	-0
Mof_Ag	Ag	0.48862	0.51482	0.50099	0.468
Mof_O 	O 	0.3769	0.6324	0.42651	-0.883
Mof_C 	C 	0.363	0.5706	0.4277	0.539
Mof_O 	O 	0.4141	0.7131	0.39405	-0.895
Mof_C 	C 	0.4756	0.8013	0.41474	-0.638
Mof_H 	H 	0.5202	0.8348	0.4177	0.224
Mof_C 	C 	0.4679	0.7685	0.39743	0.525
Mof_N 	N 	0.4434	0.5323	0.47641	-0.171
Mof_C 	C 	0.4211	0.5784	0.47676	-0.029
Mof_H 	H 	0.4246	0.6023	0.488	0.007
Mof_C 	C 	0.3935	0.5894	0.46073	0.031
Mof_H 	H 	0.3782	0.6209	0.461	0.023
Mof_C 	C 	0.3883	0.5543	0.44435	-0.186
Mof_C 	C 	0.0976	0.5892	0.44399	0.009
Mof_H 	H 	0.0772	0.5927	0.4328	-0.025
Mof_C 	C 	0.059	0.5617	0.46002	-0.038
Mof_H 	H 	0.0122	0.5464	0.4598	-0.007
Mof_N 	N 	0.2028	0.3797	0.35614	-0.178
Mof_C 	C 	0.2248	0.4467	0.35215	-0.017
Mof_H 	H 	0.2184	0.4594	0.34	0.007
Mof_C 	C 	0.2561	0.4952	0.36598	0.018
Mof_H 	H 	0.2712	0.5411	0.3633	0.046
Mof_C 	C 	0.2655	0.4767	0.38379	-0.165
Mof_C 	C 	0.2435	0.4097	0.38778	-0.003
Mof_H 	H 	0.2499	0.397	0.4	-0.005
Mof_C 	C 	0.2122	0.3612	0.37396	-0.022
Mof_H 	H 	0.1971	0.3153	0.3767	-0.011
Mof_Ag	Ag	0.15529	0.84815	0.83432	0.471
Mof_O 	O 	0.04357	0.96573	0.75984	-0.687
Mof_C 	C 	0.02967	0.90393	0.76103	0.333
Mof_O 	O 	0.08077	0.04643	0.72738	-0.811
Mof_C 	C 	0.14227	0.13463	0.74807	-0.586
Mof_H 	H 	0.18687	0.16813	0.75103	0.197
Mof_C 	C 	0.13457	0.10183	0.73076	0.469
Mof_N 	N 	0.11007	0.86563	0.80974	-0.18
Mof_C 	C 	0.08777	0.91173	0.81009	-0.001
Mof_H 	H 	0.09127	0.93563	0.82133	0.005
Mof_C 	C 	0.06017	0.92273	0.79406	-0.024
Mof_H 	H 	0.04487	0.95423	0.79433	0.049
Mof_C 	C 	0.05497	0.88763	0.77768	-0.099
Mof_C 	C 	0.76427	0.92253	0.77732	0.025
Mof_H 	H 	0.74387	0.92603	0.76613	0.006
Mof_C 	C 	0.72567	0.89503	0.79335	-0.018
Mof_H 	H 	0.67887	0.87973	0.79313	0.018
Mof_N 	N 	0.86947	0.71303	0.68947	-0.184
Mof_C 	C 	0.89147	0.78003	0.68548	0.017
Mof_H 	H 	0.88507	0.79273	0.67333	0.007
Mof_C 	C 	0.92277	0.82853	0.69931	-0.02
Mof_H 	H 	0.93787	0.87443	0.69663	0.075
Mof_C 	C 	0.93217	0.81003	0.71712	-0.087
Mof_C 	C 	0.91017	0.74303	0.72111	-0.037
Mof_H 	H 	0.91657	0.73033	0.73333	0.028
Mof_C 	C 	0.87887	0.69453	0.70729	0.011
Mof_H 	H 	0.86377	0.64863	0.71003	-0.002
Mof_Ag	Ag	0.82195	0.18149	0.16766	0.459
Mof_O 	O 	0.71023	0.29907	0.09318	-0.884
Mof_C 	C 	0.69633	0.23727	0.09437	0.544
Mof_O 	O 	0.74743	0.37977	0.06072	-0.891
Mof_C 	C 	0.80893	0.46797	0.08141	-0.629
Mof_H 	H 	0.85353	0.50147	0.08437	0.219
Mof_C 	C 	0.80123	0.43517	0.0641	0.508
Mof_N 	N 	0.77673	0.19897	0.14308	-0.172
Mof_C 	C 	0.75443	0.24507	0.14343	-0.031
Mof_H 	H 	0.75793	0.26897	0.15467	0.008
Mof_C 	C 	0.72683	0.25607	0.1274	0.033
Mof_H 	H 	0.71153	0.28757	0.12767	0.022
Mof_C 	C 	0.72163	0.22097	0.11102	-0.189
Mof_C 	C 	0.43093	0.25587	0.11066	0.012
Mof_H 	H 	0.41053	0.25937	0.09947	-0.008
Mof_C 	C 	0.39233	0.22837	0.12669	-0.028
Mof_H 	H 	0.34553	0.21307	0.12647	0.014
Mof_N 	N 	0.53613	0.04637	0.02281	-0.183
Mof_C 	C 	0.55813	0.11337	0.01882	-0.04
Mof_H 	H 	0.55173	0.12607	0.00667	0.002
Mof_C 	C 	0.58943	0.16187	0.03265	0.053
Mof_H 	H 	0.60453	0.20777	0.02997	0.034
Mof_C 	C 	0.59883	0.14337	0.05046	-0.214
Mof_C 	C 	0.57683	0.07637	0.05445	0.101
Mof_H 	H 	0.58323	0.06367	0.06667	-0.052
Mof_C 	C 	0.54553	0.02787	0.04063	-0.217
Mof_H 	H 	0.53043	0.98197	0.04337	0.127
Mof_Ag	Ag	0.48518	0.9738	0.50099	0.599
Mof_O 	O 	0.3676	0.7445	0.42651	-0.881
Mof_C 	C 	0.4294	0.7924	0.4277	0.545
Mof_O 	O 	0.2869	0.701	0.39405	-0.894
Mof_C 	C 	0.1987	0.6743	0.41474	-0.639
Mof_H 	H 	0.1652	0.6854	0.4177	0.215
Mof_C 	C 	0.2315	0.6994	0.39743	0.522
Mof_N 	N 	0.4677	0.9111	0.47641	-0.174
Mof_C 	C 	0.4216	0.8427	0.47676	-0.019
Mof_H 	H 	0.3977	0.8223	0.488	0.006
Mof_C 	C 	0.4106	0.8041	0.46073	0.032
Mof_H 	H 	0.3791	0.7573	0.461	0.024
Mof_C 	C 	0.4457	0.834	0.44435	-0.176
Mof_C 	C 	0.4108	0.5084	0.44399	0.012
Mof_H 	H 	0.4073	0.4845	0.4328	-0.011
Mof_C 	C 	0.4383	0.4973	0.46002	-0.028
Mof_H 	H 	0.4536	0.4658	0.4598	0.012
Mof_N 	N 	0.6203	0.8231	0.35614	-0.177
Mof_C 	C 	0.5533	0.7781	0.35215	-0.01
Mof_H 	H 	0.5406	0.759	0.34	0.007
Mof_C 	C 	0.5048	0.7609	0.36598	0.02
Mof_H 	H 	0.4589	0.7301	0.3633	0.046
Mof_C 	C 	0.5233	0.7888	0.38379	-0.159
Mof_C 	C 	0.5903	0.8338	0.38778	0.004
Mof_H 	H 	0.603	0.8529	0.4	0.012
Mof_C 	C 	0.6388	0.851	0.37396	-0.01
Mof_H 	H 	0.6847	0.8818	0.3767	0.015
Mof_Ag	Ag	0.15185	0.30713	0.83432	0.43
Mof_O 	O 	0.03427	0.07783	0.75984	-0.801
Mof_C 	C 	0.09607	0.12573	0.76103	0.485
Mof_O 	O 	0.95357	0.03433	0.72738	-0.752
Mof_C 	C 	0.86537	0.00763	0.74807	-0.704
Mof_H 	H 	0.83187	0.01873	0.75103	0.217
Mof_C 	C 	0.89817	0.03273	0.73076	0.49
Mof_N 	N 	0.13437	0.24443	0.80974	-0.174
Mof_C 	C 	0.08827	0.17603	0.81009	-0.038
Mof_H 	H 	0.06437	0.15563	0.82133	-0.018
Mof_C 	C 	0.07727	0.13743	0.79406	0.015
Mof_H 	H 	0.04577	0.09063	0.79433	-0.01
Mof_C 	C 	0.11237	0.16733	0.77768	-0.178
Mof_C 	C 	0.07747	0.84173	0.77732	-0.043
Mof_H 	H 	0.07397	0.81783	0.76613	-0.002
Mof_C 	C 	0.10497	0.83063	0.79335	-0.005
Mof_H 	H 	0.12027	0.79913	0.79313	-0.001
Mof_N 	N 	0.28697	0.15643	0.68947	-0.18
Mof_C 	C 	0.21997	0.11143	0.68548	-0.02
Mof_H 	H 	0.20727	0.09233	0.67333	-0.002
Mof_C 	C 	0.17147	0.09423	0.69931	0.007
Mof_H 	H 	0.12557	0.06343	0.69663	0.025
Mof_C 	C 	0.18997	0.12213	0.71712	-0.155
Mof_C 	C 	0.25697	0.16713	0.72111	-0.01
Mof_H 	H 	0.26967	0.18623	0.73333	0
Mof_C 	C 	0.30547	0.18433	0.70729	-0.019
Mof_H 	H 	0.35137	0.21513	0.71003	-0.004
Mof_Ag	Ag	0.81851	0.64047	0.16766	0.492
Mof_O 	O 	0.70093	0.41117	0.09318	-0.883
Mof_C 	C 	0.76273	0.45907	0.09437	0.538
Mof_O 	O 	0.62023	0.36767	0.06072	-0.895
Mof_C 	C 	0.53203	0.34097	0.08141	-0.639
Mof_H 	H 	0.49853	0.35207	0.08437	0.217
Mof_C 	C 	0.56483	0.36607	0.0641	0.522
Mof_N 	N 	0.80103	0.57777	0.14308	-0.171
Mof_C 	C 	0.75493	0.50937	0.14343	-0.025
Mof_H 	H 	0.73103	0.48897	0.15467	0.006
Mof_C 	C 	0.74393	0.47077	0.1274	0.031
Mof_H 	H 	0.71243	0.42397	0.12767	0.024
Mof_C 	C 	0.77903	0.50067	0.11102	-0.18
Mof_C 	C 	0.74413	0.17507	0.11066	0.012
Mof_H 	H 	0.74063	0.15117	0.09947	-0.017
Mof_C 	C 	0.77163	0.16397	0.12669	-0.031
Mof_H 	H 	0.78693	0.13247	0.12647	0.002
Mof_N 	N 	0.95363	0.48977	0.02281	-0.174
Mof_C 	C 	0.88663	0.44477	0.01882	0.009
Mof_H 	H 	0.87393	0.42567	0.00667	0.013
Mof_C 	C 	0.83813	0.42757	0.03265	-0.007
Mof_H 	H 	0.79223	0.39677	0.02997	0.055
Mof_C 	C 	0.85663	0.45547	0.05046	-0.119
Mof_C 	C 	0.92363	0.50047	0.05445	-0.081
Mof_H 	H 	0.93633	0.51957	0.06667	0.045
Mof_C 	C 	0.97213	0.51767	0.04063	0.147
Mof_H 	H 	0.01803	0.54847	0.04337	-0.102
Mof_Ag	Ag	0.48862	0.9738	0.00099	0.597
Mof_O 	O 	0.3769	0.7445	0.92651	-0.881
Mof_C 	C 	0.363	0.7924	0.9277	0.544
Mof_O 	O 	0.4141	0.701	0.89405	-0.894
Mof_C 	C 	0.4756	0.6743	0.91474	-0.638
Mof_H 	H 	0.5202	0.6854	0.9177	0.221
Mof_C 	C 	0.4679	0.6994	0.89743	0.524
Mof_N 	N 	0.4434	0.9111	0.97641	-0.174
Mof_C 	C 	0.4211	0.8427	0.97676	-0.02
Mof_H 	H 	0.4246	0.8223	0.988	0.006
Mof_C 	C 	0.3935	0.8041	0.96073	0.031
Mof_H 	H 	0.3782	0.7573	0.961	0.024
Mof_C 	C 	0.3883	0.834	0.94435	-0.178
Mof_C 	C 	0.0976	0.5084	0.94399	0.008
Mof_H 	H 	0.0772	0.4845	0.9328	-0.027
Mof_C 	C 	0.059	0.4973	0.96002	-0.039
Mof_H 	H 	0.0122	0.4658	0.9598	-0.008
Mof_N 	N 	0.2028	0.8231	0.85614	-0.178
Mof_C 	C 	0.2248	0.7781	0.85215	-0.013
Mof_H 	H 	0.2184	0.759	0.84	0.006
Mof_C 	C 	0.2561	0.7609	0.86598	0.018
Mof_H 	H 	0.2712	0.7301	0.8633	0.046
Mof_C 	C 	0.2655	0.7888	0.88379	-0.162
Mof_C 	C 	0.2435	0.8338	0.88778	0.001
Mof_H 	H 	0.2499	0.8529	0.9	0.007
Mof_C 	C 	0.2122	0.851	0.87396	-0.015
Mof_H 	H 	0.1971	0.8818	0.8767	0.006
Mof_Ag	Ag	0.15529	0.30713	0.33432	0.425
Mof_O 	O 	0.04357	0.07783	0.25984	-0.76
Mof_C 	C 	0.02967	0.12573	0.26103	0.341
Mof_O 	O 	0.08077	0.03433	0.22738	-0.816
Mof_C 	C 	0.14227	0.00763	0.24807	-0.755
Mof_H 	H 	0.18687	0.01873	0.25103	0.227
Mof_C 	C 	0.13457	0.03273	0.23076	0.515
Mof_N 	N 	0.11007	0.24443	0.30974	-0.18
Mof_C 	C 	0.08777	0.17603	0.31009	-0.024
Mof_H 	H 	0.09127	0.15563	0.32133	-0.019
Mof_C 	C 	0.06017	0.13743	0.29406	-0.019
Mof_H 	H 	0.04487	0.09063	0.29433	0.003
Mof_C 	C 	0.05497	0.16733	0.27768	-0.126
Mof_C 	C 	0.76427	0.84173	0.27732	-0.017
Mof_H 	H 	0.74387	0.81783	0.26613	0.004
Mof_C 	C 	0.72567	0.83063	0.29335	-0.005
Mof_H 	H 	0.67887	0.79913	0.29313	0.006
Mof_N 	N 	0.86947	0.15643	0.18947	-0.183
Mof_C 	C 	0.89147	0.11143	0.18548	0.002
Mof_H 	H 	0.88507	0.09233	0.17333	-0.002
Mof_C 	C 	0.92277	0.09423	0.19931	-0.012
Mof_H 	H 	0.93787	0.06343	0.19663	0.05
Mof_C 	C 	0.93217	0.12213	0.21712	-0.109
Mof_C 	C 	0.91017	0.16713	0.22111	-0.029
Mof_H 	H 	0.91657	0.18623	0.23333	0.02
Mof_C 	C 	0.87887	0.18433	0.20729	0.001
Mof_H 	H 	0.86377	0.21513	0.21003	-0.002
Mof_Ag	Ag	0.82195	0.64047	0.66766	0.486
Mof_O 	O 	0.71023	0.41117	0.59318	-0.882
Mof_C 	C 	0.69633	0.45907	0.59437	0.541
Mof_O 	O 	0.74743	0.36767	0.56072	-0.891
Mof_C 	C 	0.80893	0.34097	0.58141	-0.63
Mof_H 	H 	0.85353	0.35207	0.58437	0.22
Mof_C 	C 	0.80123	0.36607	0.5641	0.508
Mof_N 	N 	0.77673	0.57777	0.64308	-0.171
Mof_C 	C 	0.75443	0.50937	0.64343	-0.027
Mof_H 	H 	0.75793	0.48897	0.65467	0.009
Mof_C 	C 	0.72683	0.47077	0.6274	0.033
Mof_H 	H 	0.71153	0.42397	0.62767	0.023
Mof_C 	C 	0.72163	0.50067	0.61102	-0.184
Mof_C 	C 	0.43093	0.17507	0.61066	0.011
Mof_H 	H 	0.41053	0.15117	0.59947	-0.016
Mof_C 	C 	0.39233	0.16397	0.62669	-0.032
Mof_H 	H 	0.34553	0.13247	0.62647	0.003
Mof_N 	N 	0.53613	0.48977	0.52281	-0.178
Mof_C 	C 	0.55813	0.44477	0.51882	-0.013
Mof_H 	H 	0.55173	0.42567	0.50667	0.008
Mof_C 	C 	0.58943	0.42757	0.53265	0.02
Mof_H 	H 	0.60453	0.39677	0.52997	0.046
Mof_C 	C 	0.59883	0.45547	0.55046	-0.162
Mof_C 	C 	0.57683	0.50047	0.55445	0
Mof_H 	H 	0.58323	0.51957	0.56667	0.002
Mof_C 	C 	0.54553	0.51767	0.54063	-0.016
Mof_H 	H 	0.53043	0.54847	0.54337	0
Mof_Ag	Ag	0.48518	0.51138	0.00099	0.47
Mof_O 	O 	0.3676	0.6231	0.92651	-0.884
Mof_C 	C 	0.4294	0.637	0.9277	0.542
Mof_O 	O 	0.2869	0.5859	0.89405	-0.895
Mof_C 	C 	0.1987	0.5244	0.91474	-0.639
Mof_H 	H 	0.1652	0.4798	0.9177	0.211
Mof_C 	C 	0.2315	0.5321	0.89743	0.52
Mof_N 	N 	0.4677	0.5566	0.97641	-0.171
Mof_C 	C 	0.4216	0.5789	0.97676	-0.028
Mof_H 	H 	0.3977	0.5754	0.988	0.006
Mof_C 	C 	0.4106	0.6065	0.96073	0.032
Mof_H 	H 	0.3791	0.6218	0.961	0.023
Mof_C 	C 	0.4457	0.6117	0.94435	-0.183
Mof_C 	C 	0.4108	0.9024	0.94399	0.018
Mof_H 	H 	0.4073	0.9228	0.9328	0.012
Mof_C 	C 	0.4383	0.941	0.96002	-0.012
Mof_H 	H 	0.4536	0.9878	0.9598	0.037
Mof_N 	N 	0.6203	0.7972	0.85614	-0.177
Mof_C 	C 	0.5533	0.7752	0.85215	-0.008
Mof_H 	H 	0.5406	0.7816	0.84	0.01
Mof_C 	C 	0.5048	0.7439	0.86598	0.021
Mof_H 	H 	0.4589	0.7288	0.8633	0.046
Mof_C 	C 	0.5233	0.7345	0.88379	-0.158
Mof_C 	C 	0.5903	0.7565	0.88778	0.004
Mof_H 	H 	0.603	0.7501	0.9	0.009
Mof_C 	C 	0.6388	0.7878	0.87396	-0.009
Mof_H 	H 	0.6847	0.8029	0.8767	0.01
Mof_Ag	Ag	0.15185	0.84471	0.33432	0.482
Mof_O 	O 	0.03427	0.95643	0.25984	-0.776
Mof_C 	C 	0.09607	0.97033	0.26103	0.638
Mof_O 	O 	0.95357	0.91923	0.22738	-0.686
Mof_C 	C 	0.86537	0.85773	0.24807	-0.512
Mof_H 	H 	0.83187	0.81313	0.25103	0.182
Mof_C 	C 	0.89817	0.86543	0.23076	0.429
Mof_N 	N 	0.13437	0.88993	0.30974	-0.168
Mof_C 	C 	0.08827	0.91223	0.31009	-0.032
Mof_H 	H 	0.06437	0.90873	0.32133	0.007
Mof_C 	C 	0.07727	0.93983	0.29406	0.049
Mof_H 	H 	0.04577	0.95513	0.29433	0.02
Mof_C 	C 	0.11237	0.94503	0.27768	-0.209
Mof_C 	C 	0.07747	0.23573	0.27732	-0.035
Mof_H 	H 	0.07397	0.25613	0.26613	-0.007
Mof_C 	C 	0.10497	0.27433	0.29335	-0.017
Mof_H 	H 	0.12027	0.32113	0.29313	0.002
Mof_N 	N 	0.28697	0.13053	0.18947	-0.178
Mof_C 	C 	0.21997	0.10853	0.18548	-0.027
Mof_H 	H 	0.20727	0.11493	0.17333	0.009
Mof_C 	C 	0.17147	0.07723	0.19931	0.018
Mof_H 	H 	0.12557	0.06213	0.19663	0.028
Mof_C 	C 	0.18997	0.06783	0.21712	-0.181
Mof_C 	C 	0.25697	0.08983	0.22111	0.003
Mof_H 	H 	0.26967	0.08343	0.23333	-0.012
Mof_C 	C 	0.30547	0.12113	0.20729	-0.029
Mof_H 	H 	0.35137	0.13623	0.21003	-0.006
Mof_Ag	Ag	0.81851	0.17805	0.66766	0.473
Mof_O 	O 	0.70093	0.28977	0.59318	-0.885
Mof_C 	C 	0.76273	0.30367	0.59437	0.538
Mof_O 	O 	0.62023	0.25257	0.56072	-0.9
Mof_C 	C 	0.53203	0.19107	0.58141	-0.65
Mof_H 	H 	0.49853	0.14647	0.58437	0.214
Mof_C 	C 	0.56483	0.19877	0.5641	0.54
Mof_N 	N 	0.80103	0.22327	0.64308	-0.171
Mof_C 	C 	0.75493	0.24557	0.64343	-0.028
Mof_H 	H 	0.73103	0.24207	0.65467	0.003
Mof_C 	C 	0.74393	0.27317	0.6274	0.03
Mof_H 	H 	0.71243	0.28847	0.62767	0.022
Mof_C 	C 	0.77903	0.27837	0.61102	-0.181
Mof_C 	C 	0.74413	0.56907	0.61066	0.013
Mof_H 	H 	0.74063	0.58947	0.59947	-0.01
Mof_C 	C 	0.77163	0.60767	0.62669	-0.025
Mof_H 	H 	0.78693	0.65447	0.62647	0.011
Mof_N 	N 	0.95363	0.46387	0.52281	-0.174
Mof_C 	C 	0.88663	0.44187	0.51882	0.009
Mof_H 	H 	0.87393	0.44827	0.50667	0.013
Mof_C 	C 	0.83813	0.41057	0.53265	-0.007
Mof_H 	H 	0.79223	0.39547	0.52997	0.055
Mof_C 	C 	0.85663	0.40117	0.55046	-0.118
Mof_C 	C 	0.92363	0.42317	0.55445	-0.082
Mof_H 	H 	0.93633	0.41677	0.56667	0.046
Mof_C 	C 	0.97213	0.45447	0.54063	0.15
Mof_H 	H 	0.01803	0.46957	0.54337	-0.104
Mof_Ag	Ag	0.0262	0.51482	0.00099	0.365
Mof_O 	O 	0.2555	0.6324	0.92651	-0.886
Mof_C 	C 	0.2076	0.5706	0.9277	0.538
Mof_O 	O 	0.299	0.7131	0.89405	-0.896
Mof_C 	C 	0.3257	0.8013	0.91474	-0.639
Mof_H 	H 	0.3146	0.8348	0.9177	0.221
Mof_C 	C 	0.3006	0.7685	0.89743	0.523
Mof_N 	N 	0.0889	0.5323	0.97641	-0.169
Mof_C 	C 	0.1573	0.5784	0.97676	-0.036
Mof_H 	H 	0.1777	0.6023	0.988	0.007
Mof_C 	C 	0.1959	0.5894	0.96073	0.032
Mof_H 	H 	0.2427	0.6209	0.961	0.021
Mof_C 	C 	0.166	0.5543	0.94435	-0.191
Mof_C 	C 	0.4916	0.5892	0.94399	0.013
Mof_H 	H 	0.5155	0.5927	0.9328	-0.007
Mof_C 	C 	0.5027	0.5617	0.96002	-0.025
Mof_H 	H 	0.5342	0.5464	0.9598	0.013
Mof_N 	N 	0.1769	0.3797	0.85614	-0.178
Mof_C 	C 	0.2219	0.4467	0.85215	-0.016
Mof_H 	H 	0.241	0.4594	0.84	0.009
Mof_C 	C 	0.2391	0.4952	0.86598	0.02
Mof_H 	H 	0.2699	0.5411	0.8633	0.046
Mof_C 	C 	0.2112	0.4767	0.88379	-0.164
Mof_C 	C 	0.1662	0.4097	0.88778	-0.003
Mof_H 	H 	0.1471	0.397	0.9	-0.007
Mof_C 	C 	0.149	0.3612	0.87396	-0.021
Mof_H 	H 	0.1182	0.3153	0.8767	-0.015
Mof_Ag	Ag	0.69287	0.84815	0.33432	0.508
Mof_O 	O 	0.92217	0.96573	0.25984	-0.673
Mof_C 	C 	0.87427	0.90393	0.26103	0.445
Mof_O 	O 	0.96567	0.04643	0.22738	-0.746
Mof_C 	C 	0.99237	0.13463	0.24807	-0.41
Mof_H 	H 	0.98127	0.16813	0.25103	0.164
Mof_C 	C 	0.96727	0.10183	0.23076	0.413
Mof_N 	N 	0.75557	0.86563	0.30974	-0.176
Mof_C 	C 	0.82397	0.91173	0.31009	0.003
Mof_H 	H 	0.84437	0.93563	0.32133	0.022
Mof_C 	C 	0.86257	0.92273	0.29406	0.001
Mof_H 	H 	0.90937	0.95423	0.29433	0.069
Mof_C 	C 	0.83267	0.88763	0.27768	-0.122
Mof_C 	C 	0.15827	0.92253	0.27732	0.037
Mof_H 	H 	0.18217	0.92603	0.26613	0.002
Mof_C 	C 	0.16937	0.89503	0.29335	-0.029
Mof_H 	H 	0.20087	0.87973	0.29313	0.022
Mof_N 	N 	0.84357	0.71303	0.18947	-0.182
Mof_C 	C 	0.88857	0.78003	0.18548	0.011
Mof_H 	H 	0.90767	0.79273	0.17333	0.015
Mof_C 	C 	0.90577	0.82853	0.19931	-0.012
Mof_H 	H 	0.93657	0.87443	0.19663	0.077
Mof_C 	C 	0.87787	0.81003	0.21712	-0.105
Mof_C 	C 	0.83287	0.74303	0.22111	-0.027
Mof_H 	H 	0.81377	0.73033	0.23333	0.018
Mof_C 	C 	0.81567	0.69453	0.20729	0.004
Mof_H 	H 	0.78487	0.64863	0.21003	-0.003
Mof_Ag	Ag	0.35953	0.18149	0.66766	0.44
Mof_O 	O 	0.58883	0.29907	0.59318	-0.885
Mof_C 	C 	0.54093	0.23727	0.59437	0.544
Mof_O 	O 	0.63233	0.37977	0.56072	-0.895
Mof_C 	C 	0.65903	0.46797	0.58141	-0.639
Mof_H 	H 	0.64793	0.50147	0.58437	0.217
Mof_C 	C 	0.63393	0.43517	0.5641	0.522
Mof_N 	N 	0.42223	0.19897	0.64308	-0.172
Mof_C 	C 	0.49063	0.24507	0.64343	-0.033
Mof_H 	H 	0.51103	0.26897	0.65467	0.005
Mof_C 	C 	0.52923	0.25607	0.6274	0.032
Mof_H 	H 	0.57603	0.28757	0.62767	0.021
Mof_C 	C 	0.49933	0.22097	0.61102	-0.19
Mof_C 	C 	0.82493	0.25587	0.61066	0.013
Mof_H 	H 	0.84883	0.25937	0.59947	-0.002
Mof_C 	C 	0.83603	0.22837	0.62669	-0.023
Mof_H 	H 	0.86753	0.21307	0.62647	0.022
Mof_N 	N 	0.51023	0.04637	0.52281	-0.182
Mof_C 	C 	0.55523	0.11337	0.51882	-0.04
Mof_H 	H 	0.57433	0.12607	0.50667	0.002
Mof_C 	C 	0.57243	0.16187	0.53265	0.053
Mof_H 	H 	0.60323	0.20777	0.52997	0.034
Mof_C 	C 	0.54453	0.14337	0.55046	-0.215
Mof_C 	C 	0.49953	0.07637	0.55445	0.102
Mof_H 	H 	0.48043	0.06367	0.56667	-0.052
Mof_C 	C 	0.48233	0.02787	0.54063	-0.219
Mof_H 	H 	0.45153	0.98197	0.54337	0.128
Mof_Ga	Ga	0.33333	0.66667	0.40969	3.858
Mof_Ga	Ga	-0	-4.94923e-32	0.74302	3.069
Mof_Ga	Ga	0.66667	0.33333	0.07636	3.858
Mof_Ga	Ga	0.33333	0.66667	0.90969	3.858
Mof_Ga	Ga	-6.18653e-33	-1.23731e-32	0.24302	3.071
Mof_Ga	Ga	0.66667	0.33333	0.57636	3.858
Mof_Ag	Ag	0.99845	0.46166	0.40412	0.596
Mof_O 	O 	0.2557	0.6227	0.33772	-0.894
Mof_O 	O 	0.3031	0.5886	0.30482	-0.888
Mof_C 	C 	0.1964	0.6162	0.33451	0.471
Mof_C 	C 	0.3569	0.5344	0.32047	-0.577
Mof_H 	H 	0.3639	0.4971	0.32	0.194
Mof_C 	C 	0.3189	0.5433	0.30674	0.467
Mof_N 	N 	0.0628	0.516	0.38092	-0.185
Mof_C 	C 	0.0364	0.5195	0.36369	-0.176
Mof_H 	H 	0.9893	0.5009	0.3623	0.11
Mof_C 	C 	0.0789	0.5502	0.34853	0.062
Mof_H 	H 	0.0608	0.5526	0.3368	-0.054
Mof_C 	C 	0.1478	0.5775	0.3506	-0.154
Mof_C 	C 	0.3997	0.8258	0.36783	-0.038
Mof_H 	H 	0.3712	0.7787	0.3693	0.068
Mof_C 	C 	0.4115	0.8683	0.38299	0.031
Mof_H 	H 	0.3911	0.8503	0.3948	0.008
Mof_N 	N 	0.1653	0.7682	0.26203	-0.181
Mof_C 	C 	0.1258	0.7441	0.27805	0
Mof_H 	H 	0.0862	0.7472	0.2792	-0.012
Mof_C 	C 	0.1442	0.7156	0.29238	-0.034
Mof_H 	H 	0.1172	0.6991	0.3034	-0.005
Mof_C 	C 	0.202	0.7111	0.29071	-0.1
Mof_C 	C 	0.2415	0.7351	0.27469	-0.006
Mof_H 	H 	0.281	0.7321	0.2736	0.06
Mof_C 	C 	0.2231	0.7637	0.26035	0.008
Mof_H 	H 	0.2501	0.7801	0.2494	0.005
Mof_Ag	Ag	0.66512	0.79499	0.73745	0.51
Mof_O 	O 	0.92237	0.95603	0.67105	-0.671
Mof_O 	O 	0.96977	0.92193	0.63815	-0.71
Mof_C 	C 	0.86307	0.94953	0.66784	0.344
Mof_C 	C 	0.02357	0.86773	0.6538	-0.61
Mof_H 	H 	0.03057	0.83043	0.65333	0.184
Mof_C 	C 	0.98557	0.87663	0.64007	0.501
Mof_N 	N 	0.72947	0.84933	0.71425	-0.185
Mof_C 	C 	0.70307	0.85283	0.69702	0.016
Mof_H 	H 	0.65597	0.83423	0.69563	0.007
Mof_C 	C 	0.74557	0.88353	0.68186	-0.051
Mof_H 	H 	0.72747	0.88593	0.67013	0.017
Mof_C 	C 	0.81447	0.91083	0.68393	-0.047
Mof_C 	C 	0.06637	0.15913	0.70116	-0.012
Mof_H 	H 	0.03787	0.11203	0.70263	0.036
Mof_C 	C 	0.07817	0.20163	0.71632	-0.004
Mof_H 	H 	0.05777	0.18363	0.72813	-0.003
Mof_N 	N 	0.83197	0.10153	0.59536	-0.188
Mof_C 	C 	0.79247	0.07743	0.61138	0.009
Mof_H 	H 	0.75287	0.08053	0.61253	-0.017
Mof_C 	C 	0.81087	0.04893	0.62571	-0.079
Mof_H 	H 	0.78387	0.03243	0.63673	-0.004
Mof_C 	C 	0.86867	0.04443	0.62404	-0.043
Mof_C 	C 	0.90817	0.06843	0.60802	-0.056
Mof_H 	H 	0.94767	0.06543	0.60693	0.086
Mof_C 	C 	0.88977	0.09703	0.59368	0.019
Mof_H 	H 	0.91677	0.11343	0.58273	0.007
Mof_Ag	Ag	0.33178	0.12833	0.07079	0.453
Mof_O 	O 	0.58903	0.28937	0.00439	-0.891
Mof_O 	O 	0.63643	0.25527	0.97149	-0.888
Mof_C 	C 	0.52973	0.28287	0.00118	0.459
Mof_C 	C 	0.69023	0.20107	0.98714	-0.577
Mof_H 	H 	0.69723	0.16377	0.98667	0.19
Mof_C 	C 	0.65223	0.20997	0.97341	0.465
Mof_N 	N 	0.39613	0.18267	0.04759	-0.18
Mof_C 	C 	0.36973	0.18617	0.03036	-0.013
Mof_H 	H 	0.32263	0.16757	0.02897	0.01
Mof_C 	C 	0.41223	0.21687	0.0152	-0.024
Mof_H 	H 	0.39413	0.21927	0.00347	-0.002
Mof_C 	C 	0.48113	0.24417	0.01727	-0.113
Mof_C 	C 	0.73303	0.49247	0.0345	-0.005
Mof_H 	H 	0.70453	0.44537	0.03597	0.057
Mof_C 	C 	0.74483	0.53497	0.04966	0.005
Mof_H 	H 	0.72443	0.51697	0.06147	0.002
Mof_N 	N 	0.49863	0.43487	0.9287	-0.182
Mof_C 	C 	0.45913	0.41077	0.94472	0.003
Mof_H 	H 	0.41953	0.41387	0.94587	-0.004
Mof_C 	C 	0.47753	0.38227	0.95905	-0.035
Mof_H 	H 	0.45053	0.36577	0.97007	0.003
Mof_C 	C 	0.53533	0.37777	0.95738	-0.098
Mof_C 	C 	0.57483	0.40177	0.94136	-0.009
Mof_H 	H 	0.61433	0.39877	0.94027	0.06
Mof_C 	C 	0.55643	0.43037	0.92702	0.008
Mof_H 	H 	0.58343	0.44677	0.91607	0.002
Mof_Ag	Ag	0.53834	0.53679	0.40412	0.498
Mof_O 	O 	0.3773	0.633	0.33772	-0.89
Mof_O 	O 	0.4114	0.7145	0.30482	-0.886
Mof_C 	C 	0.3838	0.5802	0.33451	0.46
Mof_C 	C 	0.4656	0.8225	0.32047	-0.569
Mof_H 	H 	0.5029	0.8668	0.32	0.2
Mof_C 	C 	0.4567	0.7756	0.30674	0.466
Mof_N 	N 	0.484	0.5468	0.38092	-0.182
Mof_C 	C 	0.4805	0.5169	0.36369	-0.008
Mof_H 	H 	0.4991	0.4884	0.3623	0.01
Mof_C 	C 	0.4498	0.5287	0.34853	-0.022
Mof_H 	H 	0.4474	0.5082	0.3368	-0.002
Mof_C 	C 	0.4225	0.5703	0.3506	-0.11
Mof_C 	C 	0.1742	0.5739	0.36783	0.022
Mof_H 	H 	0.2213	0.5925	0.3693	0.047
Mof_C 	C 	0.1317	0.5432	0.38299	-0.019
Mof_H 	H 	0.1497	0.5408	0.3948	-0.002
Mof_N 	N 	0.2318	0.3971	0.26203	-0.182
Mof_C 	C 	0.2559	0.3817	0.27805	0.002
Mof_H 	H 	0.2528	0.339	0.2792	-0.003
Mof_C 	C 	0.2844	0.4286	0.29238	-0.035
Mof_H 	H 	0.3009	0.4181	0.3034	0.003
Mof_C 	C 	0.2889	0.4909	0.29071	-0.099
Mof_C 	C 	0.2649	0.5064	0.27469	-0.011
Mof_H 	H 	0.2679	0.5489	0.2736	0.061
Mof_C 	C 	0.2363	0.4594	0.26035	0.006
Mof_H 	H 	0.2199	0.47	0.2494	-0.002
Mof_Ag	Ag	0.20501	0.87012	0.73745	0.513
Mof_O 	O 	0.04397	0.96633	0.67105	-0.729
Mof_O 	O 	0.07807	0.04783	0.63815	-0.801
Mof_C 	C 	0.05047	0.91353	0.66784	0.427
Mof_C 	C 	0.13227	0.15583	0.6538	-0.531
Mof_H 	H 	0.16957	0.20013	0.65333	0.181
Mof_C 	C 	0.12337	0.10893	0.64007	0.423
Mof_N 	N 	0.15067	0.88013	0.71425	-0.184
Mof_C 	C 	0.14717	0.85023	0.69702	-0.004
Mof_H 	H 	0.16577	0.82173	0.69563	0.006
Mof_C 	C 	0.11647	0.86203	0.68186	-0.029
Mof_H 	H 	0.11407	0.84153	0.67013	-0.001
Mof_C 	C 	0.08917	0.90363	0.68393	-0.095
Mof_C 	C 	0.84087	0.90723	0.70116	-0.037
Mof_H 	H 	0.88797	0.92583	0.70263	0.088
Mof_C 	C 	0.79837	0.87653	0.71632	0.032
Mof_H 	H 	0.81637	0.87413	0.72813	0.005
Mof_N 	N 	0.89847	0.73043	0.59536	-0.182
Mof_C 	C 	0.92257	0.71503	0.61138	0.014
Mof_H 	H 	0.91947	0.67233	0.61253	0.005
Mof_C 	C 	0.95107	0.76193	0.62571	-0.03
Mof_H 	H 	0.96757	0.75143	0.63673	0.023
Mof_C 	C 	0.95557	0.82423	0.62404	-0.084
Mof_C 	C 	0.93157	0.83973	0.60802	-0.012
Mof_H 	H 	0.93457	0.88223	0.60693	0.077
Mof_C 	C 	0.90297	0.79273	0.59368	0.021
Mof_H 	H 	0.88657	0.80333	0.58273	0.005
Mof_Ag	Ag	0.87167	0.20346	0.07079	0.523
Mof_O 	O 	0.71063	0.29967	0.00439	-0.89
Mof_O 	O 	0.74473	0.38117	0.97149	-0.886
Mof_C 	C 	0.71713	0.24687	0.00118	0.46
Mof_C 	C 	0.79893	0.48917	0.98714	-0.577
Mof_H 	H 	0.83623	0.53347	0.98667	0.198
Mof_C 	C 	0.79003	0.44227	0.97341	0.469
Mof_N 	N 	0.81733	0.21347	0.04759	-0.183
Mof_C 	C 	0.81383	0.18357	0.03036	-0.007
Mof_H 	H 	0.83243	0.15507	0.02897	0.007
Mof_C 	C 	0.78313	0.19537	0.0152	-0.023
Mof_H 	H 	0.78073	0.17487	0.00347	-0.003
Mof_C 	C 	0.75583	0.23697	0.01727	-0.109
Mof_C 	C 	0.50753	0.24057	0.0345	-0.005
Mof_H 	H 	0.55463	0.25917	0.03597	0.057
Mof_C 	C 	0.46503	0.20987	0.04966	0
Mof_H 	H 	0.48303	0.20747	0.06147	0.001
Mof_N 	N 	0.56513	0.06377	0.9287	-0.18
Mof_C 	C 	0.58923	0.04837	0.94472	-0.012
Mof_H 	H 	0.58613	0.00567	0.94587	-0.021
Mof_C 	C 	0.61773	0.09527	0.95905	-0.04
Mof_H 	H 	0.63423	0.08477	0.97007	-0.01
Mof_C 	C 	0.62223	0.15757	0.95738	-0.104
Mof_C 	C 	0.59823	0.17307	0.94136	-0.01
Mof_H 	H 	0.60123	0.21557	0.94027	0.059
Mof_C 	C 	0.56963	0.12607	0.92702	-0.001
Mof_H 	H 	0.55323	0.13667	0.91607	-0
Mof_Ag	Ag	0.46321	0.00155	0.40412	0.369
Mof_O 	O 	0.367	0.7443	0.33772	-0.887
Mof_O 	O 	0.2855	0.6969	0.30482	-0.887
Mof_C 	C 	0.4198	0.8036	0.33451	0.446
Mof_C 	C 	0.1775	0.6431	0.32047	-0.584
Mof_H 	H 	0.1332	0.6361	0.32	0.189
Mof_C 	C 	0.2244	0.6811	0.30674	0.469
Mof_N 	N 	0.4532	0.9372	0.38092	-0.178
Mof_C 	C 	0.4831	0.9636	0.36369	0.199
Mof_H 	H 	0.5116	0.0107	0.3623	-0.112
Mof_C 	C 	0.4713	0.9211	0.34853	-0.126
Mof_H 	H 	0.4918	0.9392	0.3368	0.063
Mof_C 	C 	0.4297	0.8522	0.3506	-0.057
Mof_C 	C 	0.4261	0.6003	0.36783	-0.004
Mof_H 	H 	0.4075	0.6288	0.3693	0.057
Mof_C 	C 	0.4568	0.5885	0.38299	0.004
Mof_H 	H 	0.4592	0.6089	0.3948	0.003
Mof_N 	N 	0.6029	0.8347	0.26203	-0.182
Mof_C 	C 	0.6183	0.8742	0.27805	0.005
Mof_H 	H 	0.661	0.9138	0.2792	0.011
Mof_C 	C 	0.5714	0.8558	0.29238	-0.034
Mof_H 	H 	0.5819	0.8828	0.3034	0.014
Mof_C 	C 	0.5091	0.798	0.29071	-0.096
Mof_C 	C 	0.4936	0.7585	0.27469	-0.011
Mof_H 	H 	0.4511	0.719	0.2736	0.061
Mof_C 	C 	0.5406	0.7769	0.26035	0.008
Mof_H 	H 	0.53	0.7499	0.2494	-0
Mof_Ag	Ag	0.12988	0.33488	0.73745	0.472
Mof_O 	O 	0.03367	0.07763	0.67105	-0.802
Mof_O 	O 	0.95217	0.03023	0.63815	-0.698
Mof_C 	C 	0.08647	0.13693	0.66784	0.415
Mof_C 	C 	0.84417	0.97643	0.6538	-0.327
Mof_H 	H 	0.79987	0.96943	0.65333	0.14
Mof_C 	C 	0.89107	0.01443	0.64007	0.266
Mof_N 	N 	0.11987	0.27053	0.71425	-0.182
Mof_C 	C 	0.14977	0.29693	0.69702	-0.01
Mof_H 	H 	0.17827	0.34403	0.69563	0.01
Mof_C 	C 	0.13797	0.25443	0.68186	-0.027
Mof_H 	H 	0.15847	0.27253	0.67013	-0
Mof_C 	C 	0.09637	0.18553	0.68393	-0.108
Mof_C 	C 	0.09277	0.93363	0.70116	-0.018
Mof_H 	H 	0.07417	0.96213	0.70263	0.077
Mof_C 	C 	0.12347	0.92183	0.71632	0.011
Mof_H 	H 	0.12587	0.94223	0.72813	0.016
Mof_N 	N 	0.26957	0.16803	0.59536	-0.182
Mof_C 	C 	0.28497	0.20753	0.61138	0.002
Mof_H 	H 	0.32767	0.24713	0.61253	-0.001
Mof_C 	C 	0.23807	0.18913	0.62571	-0.037
Mof_H 	H 	0.24857	0.21613	0.63673	0.006
Mof_C 	C 	0.17577	0.13133	0.62404	-0.097
Mof_C 	C 	0.16027	0.09183	0.60802	-0.015
Mof_H 	H 	0.11777	0.05233	0.60693	0.031
Mof_C 	C 	0.20727	0.11023	0.59368	-0.001
Mof_H 	H 	0.19667	0.08323	0.58273	-0.009
Mof_Ag	Ag	0.79654	0.66822	0.07079	0.506
Mof_O 	O 	0.70033	0.41097	0.00439	-0.89
Mof_O 	O 	0.61883	0.36357	0.97149	-0.887
Mof_C 	C 	0.75313	0.47027	0.00118	0.461
Mof_C 	C 	0.51083	0.30977	0.98714	-0.578
Mof_H 	H 	0.46653	0.30277	0.98667	0.194
Mof_C 	C 	0.55773	0.34777	0.97341	0.467
Mof_N 	N 	0.78653	0.60387	0.04759	-0.181
Mof_C 	C 	0.81643	0.63027	0.03036	-0.005
Mof_H 	H 	0.84493	0.67737	0.02897	0.013
Mof_C 	C 	0.80463	0.58777	0.0152	-0.02
Mof_H 	H 	0.82513	0.60587	0.00347	-0
Mof_C 	C 	0.76303	0.51887	0.01727	-0.11
Mof_C 	C 	0.75943	0.26697	0.0345	-0.004
Mof_H 	H 	0.74083	0.29547	0.03597	0.057
Mof_C 	C 	0.79013	0.25517	0.04966	0.005
Mof_H 	H 	0.79253	0.27557	0.06147	0.004
Mof_N 	N 	0.93623	0.50137	0.9287	-0.183
Mof_C 	C 	0.95163	0.54087	0.94472	0.014
Mof_H 	H 	0.99433	0.58047	0.94587	0.016
Mof_C 	C 	0.90473	0.52247	0.95905	-0.03
Mof_H 	H 	0.91523	0.54947	0.97007	0.015
Mof_C 	C 	0.84243	0.46467	0.95738	-0.094
Mof_C 	C 	0.82693	0.42517	0.94136	-0.009
Mof_H 	H 	0.78443	0.38567	0.94027	0.061
Mof_C 	C 	0.87393	0.44357	0.92702	0.014
Mof_H 	H 	0.86333	0.41657	0.91607	0.001
Mof_Ag	Ag	0.53834	0.00155	0.90412	0.372
Mof_O 	O 	0.3773	0.7443	0.83772	-0.887
Mof_O 	O 	0.4114	0.6969	0.80482	-0.886
Mof_C 	C 	0.3838	0.8036	0.83451	0.446
Mof_C 	C 	0.4656	0.6431	0.82047	-0.578
Mof_H 	H 	0.5029	0.6361	0.82	0.194
Mof_C 	C 	0.4567	0.6811	0.80674	0.468
Mof_N 	N 	0.484	0.9372	0.88092	-0.178
Mof_C 	C 	0.4805	0.9636	0.86369	0.199
Mof_H 	H 	0.4991	0.0107	0.8623	-0.112
Mof_C 	C 	0.4498	0.9211	0.84853	-0.126
Mof_H 	H 	0.4474	0.9392	0.8368	0.063
Mof_C 	C 	0.4225	0.8522	0.8506	-0.056
Mof_C 	C 	0.1742	0.6003	0.86783	0.023
Mof_H 	H 	0.2213	0.6288	0.8693	0.047
Mof_C 	C 	0.1317	0.5885	0.88299	-0.019
Mof_H 	H 	0.1497	0.6089	0.8948	-0.001
Mof_N 	N 	0.2318	0.8347	0.76203	-0.183
Mof_C 	C 	0.2559	0.8742	0.77805	0.005
Mof_H 	H 	0.2528	0.9138	0.7792	0.011
Mof_C 	C 	0.2844	0.8558	0.79238	-0.034
Mof_H 	H 	0.3009	0.8828	0.8034	0.014
Mof_C 	C 	0.2889	0.798	0.79071	-0.097
Mof_C 	C 	0.2649	0.7585	0.77469	-0.012
Mof_H 	H 	0.2679	0.719	0.7736	0.061
Mof_C 	C 	0.2363	0.7769	0.76035	0.007
Mof_H 	H 	0.2199	0.7499	0.7494	-0.003
Mof_Ag	Ag	0.20501	0.33488	0.23745	0.483
Mof_O 	O 	0.04397	0.07763	0.17105	-0.807
Mof_O 	O 	0.07807	0.03023	0.13815	-0.756
Mof_C 	C 	0.05047	0.13693	0.16784	0.45
Mof_C 	C 	0.13227	0.97643	0.1538	-0.338
Mof_H 	H 	0.16957	0.96943	0.15333	0.147
Mof_C 	C 	0.12337	0.01443	0.14007	0.27
Mof_N 	N 	0.15067	0.27053	0.21425	-0.181
Mof_C 	C 	0.14717	0.29693	0.19702	-0.017
Mof_H 	H 	0.16577	0.34403	0.19563	0.009
Mof_C 	C 	0.11647	0.25443	0.18186	-0.02
Mof_H 	H 	0.11407	0.27253	0.17013	-0.007
Mof_C 	C 	0.08917	0.18553	0.18393	-0.124
Mof_C 	C 	0.84087	0.93363	0.20116	-0.031
Mof_H 	H 	0.88797	0.96213	0.20263	0.094
Mof_C 	C 	0.79837	0.92183	0.21632	0.027
Mof_H 	H 	0.81637	0.94223	0.22813	0.015
Mof_N 	N 	0.89847	0.16803	0.09536	-0.179
Mof_C 	C 	0.92257	0.20753	0.11138	0.007
Mof_H 	H 	0.91947	0.24713	0.11253	0.009
Mof_C 	C 	0.95107	0.18913	0.12571	-0.017
Mof_H 	H 	0.96757	0.21613	0.13673	0.021
Mof_C 	C 	0.95557	0.13133	0.12404	-0.108
Mof_C 	C 	0.93157	0.09183	0.10802	0.002
Mof_H 	H 	0.93457	0.05233	0.10693	0.043
Mof_C 	C 	0.90297	0.11023	0.09368	0.007
Mof_H 	H 	0.88657	0.08323	0.08273	-0.004
Mof_Ag	Ag	0.87167	0.66822	0.57079	0.531
Mof_O 	O 	0.71063	0.41097	0.50439	-0.89
Mof_O 	O 	0.74473	0.36357	0.47149	-0.886
Mof_C 	C 	0.71713	0.47027	0.50118	0.461
Mof_C 	C 	0.79893	0.30977	0.48714	-0.578
Mof_H 	H 	0.83623	0.30277	0.48667	0.198
Mof_C 	C 	0.79003	0.34777	0.47341	0.47
Mof_N 	N 	0.81733	0.60387	0.54759	-0.182
Mof_C 	C 	0.81383	0.63027	0.53036	-0.004
Mof_H 	H 	0.83243	0.67737	0.52897	0.01
Mof_C 	C 	0.78313	0.58777	0.5152	-0.021
Mof_H 	H 	0.78073	0.60587	0.50347	-0.001
Mof_C 	C 	0.75583	0.51887	0.51727	-0.108
Mof_C 	C 	0.50753	0.26697	0.5345	-0.005
Mof_H 	H 	0.55463	0.29547	0.53597	0.057
Mof_C 	C 	0.46503	0.25517	0.54966	0.002
Mof_H 	H 	0.48303	0.27557	0.56147	0.003
Mof_N 	N 	0.56513	0.50137	0.4287	-0.182
Mof_C 	C 	0.58923	0.54087	0.44472	0.002
Mof_H 	H 	0.58613	0.58047	0.44587	0.001
Mof_C 	C 	0.61773	0.52247	0.45905	-0.034
Mof_H 	H 	0.63423	0.54947	0.47007	0.004
Mof_C 	C 	0.62223	0.46467	0.45738	-0.099
Mof_C 	C 	0.59823	0.42517	0.44136	-0.01
Mof_H 	H 	0.60123	0.38567	0.44027	0.06
Mof_C 	C 	0.56963	0.44357	0.42702	0.007
Mof_H 	H 	0.55323	0.41657	0.41607	0
Mof_Ag	Ag	0.46321	0.46166	0.90412	0.492
Mof_O 	O 	0.367	0.6227	0.83772	-0.89
Mof_O 	O 	0.2855	0.5886	0.80482	-0.888
Mof_C 	C 	0.4198	0.6162	0.83451	0.46
Mof_C 	C 	0.1775	0.5344	0.82047	-0.584
Mof_H 	H 	0.1332	0.4971	0.82	0.189
Mof_C 	C 	0.2244	0.5433	0.80674	0.469
Mof_N 	N 	0.4532	0.516	0.88092	-0.182
Mof_C 	C 	0.4831	0.5195	0.86369	-0.008
Mof_H 	H 	0.5116	0.5009	0.8623	0.011
Mof_C 	C 	0.4713	0.5502	0.84853	-0.022
Mof_H 	H 	0.4918	0.5526	0.8368	-0.001
Mof_C 	C 	0.4297	0.5775	0.8506	-0.111
Mof_C 	C 	0.4261	0.8258	0.86783	-0.038
Mof_H 	H 	0.4075	0.7787	0.8693	0.068
Mof_C 	C 	0.4568	0.8683	0.88299	0.031
Mof_H 	H 	0.4592	0.8503	0.8948	0.008
Mof_N 	N 	0.6029	0.7682	0.76203	-0.181
Mof_C 	C 	0.6183	0.7441	0.77805	0.003
Mof_H 	H 	0.661	0.7472	0.7792	-0.001
Mof_C 	C 	0.5714	0.7156	0.79238	-0.034
Mof_H 	H 	0.5819	0.6991	0.8034	0.004
Mof_C 	C 	0.5091	0.7111	0.79071	-0.098
Mof_C 	C 	0.4936	0.7351	0.77469	-0.007
Mof_H 	H 	0.4511	0.7321	0.7736	0.06
Mof_C 	C 	0.5406	0.7637	0.76035	0.009
Mof_H 	H 	0.53	0.7801	0.7494	0.004
Mof_Ag	Ag	0.12988	0.79499	0.23745	0.489
Mof_O 	O 	0.03367	0.95603	0.17105	-0.722
Mof_O 	O 	0.95217	0.92193	0.13815	-0.677
Mof_C 	C 	0.08647	0.94953	0.16784	0.354
Mof_C 	C 	0.84417	0.86773	0.1538	-0.47
Mof_H 	H 	0.79987	0.83043	0.15333	0.16
Mof_C 	C 	0.89107	0.87663	0.14007	0.389
Mof_N 	N 	0.11987	0.84933	0.21425	-0.184
Mof_C 	C 	0.14977	0.85283	0.19702	0.009
Mof_H 	H 	0.17827	0.83423	0.19563	0.009
Mof_C 	C 	0.13797	0.88353	0.18186	-0.046
Mof_H 	H 	0.15847	0.88593	0.17013	0.014
Mof_C 	C 	0.09637	0.91083	0.18393	-0.063
Mof_C 	C 	0.09277	0.15913	0.20116	-0.007
Mof_H 	H 	0.07417	0.11203	0.20263	0.041
Mof_C 	C 	0.12347	0.20163	0.21632	-0.009
Mof_H 	H 	0.12587	0.18363	0.22813	0.005
Mof_N 	N 	0.26957	0.10153	0.09536	-0.187
Mof_C 	C 	0.28497	0.07743	0.11138	0.003
Mof_H 	H 	0.32767	0.08053	0.11253	-0.015
Mof_C 	C 	0.23807	0.04893	0.12571	-0.073
Mof_H 	H 	0.24857	0.03243	0.13673	-0.008
Mof_C 	C 	0.17577	0.04443	0.12404	-0.06
Mof_C 	C 	0.16027	0.06843	0.10802	-0.049
Mof_H 	H 	0.11777	0.06543	0.10693	0.055
Mof_C 	C 	0.20727	0.09703	0.09368	0.006
Mof_H 	H 	0.19667	0.11343	0.08273	-0.003
Mof_Ag	Ag	0.79654	0.12833	0.57079	0.464
Mof_O 	O 	0.70033	0.28937	0.50439	-0.892
Mof_O 	O 	0.61883	0.25527	0.47149	-0.888
Mof_C 	C 	0.75313	0.28287	0.50118	0.46
Mof_C 	C 	0.51083	0.20107	0.48714	-0.577
Mof_H 	H 	0.46653	0.16377	0.48667	0.19
Mof_C 	C 	0.55773	0.20997	0.47341	0.465
Mof_N 	N 	0.78653	0.18267	0.54759	-0.18
Mof_C 	C 	0.81643	0.18617	0.53036	-0.01
Mof_H 	H 	0.84493	0.16757	0.52897	0.013
Mof_C 	C 	0.80463	0.21687	0.5152	-0.022
Mof_H 	H 	0.82513	0.21927	0.50347	-0
Mof_C 	C 	0.76303	0.24417	0.51727	-0.112
Mof_C 	C 	0.75943	0.49247	0.5345	-0.004
Mof_H 	H 	0.74083	0.44537	0.53597	0.056
Mof_C 	C 	0.79013	0.53497	0.54966	0.006
Mof_H 	H 	0.79253	0.51697	0.56147	0.004
Mof_N 	N 	0.93623	0.43487	0.4287	-0.183
Mof_C 	C 	0.95163	0.41077	0.44472	0.014
Mof_H 	H 	0.99433	0.41387	0.44587	0.015
Mof_C 	C 	0.90473	0.38227	0.45905	-0.03
Mof_H 	H 	0.91523	0.36577	0.47007	0.015
Mof_C 	C 	0.84243	0.37777	0.45738	-0.094
Mof_C 	C 	0.82693	0.40177	0.44136	-0.008
Mof_H 	H 	0.78443	0.39877	0.44027	0.061
Mof_C 	C 	0.87393	0.43037	0.42702	0.014
Mof_H 	H 	0.86333	0.44677	0.41607	0.002
Mof_Ag	Ag	0.99845	0.53679	0.90412	0.598
Mof_O 	O 	0.2557	0.633	0.83772	-0.894
Mof_O 	O 	0.3031	0.7145	0.80482	-0.887
Mof_C 	C 	0.1964	0.5802	0.83451	0.471
Mof_C 	C 	0.3569	0.8225	0.82047	-0.569
Mof_H 	H 	0.3639	0.8668	0.82	0.2
Mof_C 	C 	0.3189	0.7756	0.80674	0.466
Mof_N 	N 	0.0628	0.5468	0.88092	-0.184
Mof_C 	C 	0.0364	0.5169	0.86369	-0.176
Mof_H 	H 	0.9893	0.4884	0.8623	0.109
Mof_C 	C 	0.0789	0.5287	0.84853	0.062
Mof_H 	H 	0.0608	0.5082	0.8368	-0.054
Mof_C 	C 	0.1478	0.5703	0.8506	-0.154
Mof_C 	C 	0.3997	0.5739	0.86783	-0.005
Mof_H 	H 	0.3712	0.5925	0.8693	0.056
Mof_C 	C 	0.4115	0.5432	0.88299	0.003
Mof_H 	H 	0.3911	0.5408	0.8948	0.002
Mof_N 	N 	0.1653	0.3971	0.76203	-0.181
Mof_C 	C 	0.1258	0.3817	0.77805	-0
Mof_H 	H 	0.0862	0.339	0.7792	-0.013
Mof_C 	C 	0.1442	0.4286	0.79238	-0.035
Mof_H 	H 	0.1172	0.4181	0.8034	-0.005
Mof_C 	C 	0.202	0.4909	0.79071	-0.1
Mof_C 	C 	0.2415	0.5064	0.77469	-0.008
Mof_H 	H 	0.281	0.5489	0.7736	0.06
Mof_C 	C 	0.2231	0.4594	0.76035	0.006
Mof_H 	H 	0.2501	0.47	0.7494	0.002
Mof_Ag	Ag	0.66512	0.87012	0.23745	0.523
Mof_O 	O 	0.92237	0.96633	0.17105	-0.676
Mof_O 	O 	0.96977	0.04783	0.13815	-0.778
Mof_C 	C 	0.86307	0.91353	0.16784	0.382
Mof_C 	C 	0.02357	0.15583	0.1538	-0.659
Mof_H 	H 	0.03057	0.20013	0.15333	0.199
Mof_C 	C 	0.98557	0.10893	0.14007	0.534
Mof_N 	N 	0.72947	0.88013	0.21425	-0.185
Mof_C 	C 	0.70307	0.85023	0.19702	0.009
Mof_H 	H 	0.65597	0.82173	0.19563	0.006
Mof_C 	C 	0.74557	0.86203	0.18186	-0.042
Mof_H 	H 	0.72747	0.84153	0.17013	0.009
Mof_C 	C 	0.81447	0.90363	0.18393	-0.064
Mof_C 	C 	0.06637	0.90723	0.20116	-0.03
Mof_H 	H 	0.03787	0.92583	0.20263	0.065
Mof_C 	C 	0.07817	0.87653	0.21632	0.021
Mof_H 	H 	0.05777	0.87413	0.22813	-0.003
Mof_N 	N 	0.83197	0.73043	0.09536	-0.185
Mof_C 	C 	0.79247	0.71503	0.11138	0.015
Mof_H 	H 	0.75287	0.67233	0.11253	-0.006
Mof_C 	C 	0.81087	0.76193	0.12571	-0.056
Mof_H 	H 	0.78387	0.75143	0.13673	0.013
Mof_C 	C 	0.86867	0.82423	0.12404	-0.057
Mof_C 	C 	0.90817	0.83973	0.10802	-0.036
Mof_H 	H 	0.94767	0.88223	0.10693	0.095
Mof_C 	C 	0.88977	0.79273	0.09368	0.026
Mof_H 	H 	0.91677	0.80333	0.08273	0.01
Mof_Ag	Ag	0.33178	0.20346	0.57079	0.485
Mof_O 	O 	0.58903	0.29967	0.50439	-0.89
Mof_O 	O 	0.63643	0.38117	0.47149	-0.886
Mof_C 	C 	0.52973	0.24687	0.50118	0.459
Mof_C 	C 	0.69023	0.48917	0.48714	-0.577
Mof_H 	H 	0.69723	0.53347	0.48667	0.194
Mof_C 	C 	0.65223	0.44227	0.47341	0.467
Mof_N 	N 	0.39613	0.21347	0.54759	-0.182
Mof_C 	C 	0.36973	0.18357	0.53036	-0.011
Mof_H 	H 	0.32263	0.15507	0.52897	0.007
Mof_C 	C 	0.41223	0.19537	0.5152	-0.024
Mof_H 	H 	0.39413	0.17487	0.50347	-0.003
Mof_C 	C 	0.48113	0.23697	0.51727	-0.111
Mof_C 	C 	0.73303	0.24057	0.5345	-0.005
Mof_H 	H 	0.70453	0.25917	0.53597	0.057
Mof_C 	C 	0.74483	0.20987	0.54966	0.001
Mof_H 	H 	0.72443	0.20747	0.56147	0.001
Mof_N 	N 	0.49863	0.06377	0.4287	-0.18
Mof_C 	C 	0.45913	0.04837	0.44472	-0.012
Mof_H 	H 	0.41953	0.00567	0.44587	-0.023
Mof_C 	C 	0.47753	0.09527	0.45905	-0.04
Mof_H 	H 	0.45053	0.08477	0.47007	-0.01
Mof_C 	C 	0.53533	0.15757	0.45738	-0.104
Mof_C 	C 	0.57483	0.17307	0.44136	-0.01
Mof_H 	H 	0.61433	0.21557	0.44027	0.06
Mof_C 	C 	0.55643	0.12607	0.42702	-0.001
Mof_H 	H 	0.58343	0.13667	0.41607	0.001
Mof_Ga	Ga	0.33333	0.66667	0.32136	3.902
Mof_Ga	Ga	-2.47461e-32	-4.94923e-32	0.65469	3.091
Mof_Ga	Ga	0.66667	0.33333	0.98803	3.902
Mof_Ga	Ga	0.33333	0.66667	0.82136	3.902
Mof_Ga	Ga	-1.23731e-32	-1.23731e-32	0.15469	3.093
Mof_Ga	Ga	0.66667	0.33333	0.48803	3.902
Mof_Ag	Ag	0.97115	0.4873	0.30178	0.57
Mof_O 	O 	0.2578	0.6333	0.24325	-0.877
Mof_O 	O 	0.2923	0.5895	0.21007	-0.915
Mof_C 	C 	0.1942	0.6265	0.23656	0.377
Mof_C 	C 	0.3492	0.5355	0.22059	-0.574
Mof_H 	H 	0.3632	0.5044	0.2172	0.188
Mof_C 	C 	0.3067	0.5411	0.20841	0.498
Mof_N 	N 	0.0403	0.5265	0.27819	-0.186
Mof_C 	C 	0.0291	0.5568	0.26281	-0.153
Mof_H 	H 	0.9868	0.554	0.2612	0.095
Mof_C 	C 	0.08	0.5912	0.24977	0.029
Mof_H 	H 	0.0724	0.612	0.2393	-0.027
Mof_C 	C 	0.142	0.5953	0.25212	-0.106
Mof_C 	C 	0.4118	0.8469	0.2675	-0.062
Mof_H 	H 	0.3723	0.8046	0.2691	0.073
Mof_C 	C 	0.4283	0.8978	0.28053	0.032
Mof_H 	H 	0.3999	0.8902	0.2911	0.009
Mof_N 	N 	0.1959	0.7732	0.15967	-0.176
Mof_C 	C 	0.1444	0.716	0.16807	-0.013
Mof_H 	H 	0.1003	0.6955	0.1631	-0.011
Mof_C 	C 	0.1575	0.6889	0.18385	-0.012
Mof_H 	H 	0.1224	0.6498	0.1896	-0.005
Mof_C 	C 	0.2221	0.719	0.19122	-0.157
Mof_C 	C 	0.2736	0.7762	0.18281	0.019
Mof_H 	H 	0.3177	0.7967	0.1879	0.036
Mof_C 	C 	0.2605	0.8033	0.16704	-0.022
Mof_H 	H 	0.2957	0.8423	0.1613	0.014
Mof_Ag	Ag	0.63782	0.82063	0.63511	0.491
Mof_O 	O 	0.92447	0.96663	0.57658	-0.647
Mof_O 	O 	0.95897	0.92283	0.5434	-0.736
Mof_C 	C 	0.86087	0.95983	0.56989	0.238
Mof_C 	C 	0.01587	0.86883	0.55392	-0.646
Mof_H 	H 	0.02987	0.83773	0.55053	0.206
Mof_C 	C 	0.97337	0.87443	0.54174	0.579
Mof_N 	N 	0.70697	0.85983	0.61152	-0.188
Mof_C 	C 	0.69577	0.89013	0.59614	0.041
Mof_H 	H 	0.65347	0.88733	0.59453	-0.006
Mof_C 	C 	0.74667	0.92453	0.5831	-0.084
Mof_H 	H 	0.73907	0.94533	0.57263	0.046
Mof_C 	C 	0.80867	0.92863	0.58545	0.011
Mof_C 	C 	0.07847	0.18023	0.60083	-0.038
Mof_H 	H 	0.03897	0.13793	0.60243	0.037
Mof_C 	C 	0.09497	0.23113	0.61386	-0
Mof_H 	H 	0.06657	0.22353	0.62443	-0.011
Mof_N 	N 	0.86257	0.10653	0.493	-0.208
Mof_C 	C 	0.81107	0.04933	0.5014	0.118
Mof_H 	H 	0.76697	0.02883	0.49643	-0.066
Mof_C 	C 	0.82417	0.02223	0.51718	-0.303
Mof_H 	H 	0.78907	0.98313	0.52293	0.166
Mof_C 	C 	0.88877	0.05233	0.52455	0.043
Mof_C 	C 	0.94027	0.10953	0.51614	-0.108
Mof_H 	H 	0.98437	0.13003	0.52123	0.089
Mof_C 	C 	0.92717	0.13663	0.50037	0.045
Mof_H 	H 	0.96237	0.17563	0.49463	-0.007
Mof_Ag	Ag	0.30448	0.15397	0.96845	0.421
Mof_O 	O 	0.59113	0.29997	0.90992	-0.875
Mof_O 	O 	0.62563	0.25617	0.87674	-0.915
Mof_C 	C 	0.52753	0.29317	0.90323	0.363
Mof_C 	C 	0.68253	0.20217	0.88726	-0.573
Mof_H 	H 	0.69653	0.17107	0.88387	0.187
Mof_C 	C 	0.64003	0.20777	0.87508	0.498
Mof_N 	N 	0.37363	0.19317	0.94486	-0.184
Mof_C 	C 	0.36243	0.22347	0.92948	0.005
Mof_H 	H 	0.32013	0.22067	0.92787	-0.018
Mof_C 	C 	0.41333	0.25787	0.91644	-0.056
Mof_H 	H 	0.40573	0.27867	0.90597	0.01
Mof_C 	C 	0.47533	0.26197	0.91879	-0.066
Mof_C 	C 	0.74513	0.51357	0.93417	-0.031
Mof_H 	H 	0.70563	0.47127	0.93577	0.062
Mof_C 	C 	0.76163	0.56447	0.9472	0.007
Mof_H 	H 	0.73323	0.55687	0.95777	0
Mof_N 	N 	0.52923	0.43987	0.82634	-0.175
Mof_C 	C 	0.47773	0.38267	0.83474	-0.012
Mof_H 	H 	0.43363	0.36217	0.82977	-0.002
Mof_C 	C 	0.49083	0.35557	0.85052	-0.011
Mof_H 	H 	0.45573	0.31647	0.85627	-0.001
Mof_C 	C 	0.55543	0.38567	0.85789	-0.156
Mof_C 	C 	0.60693	0.44287	0.84948	0.015
Mof_H 	H 	0.65103	0.46337	0.85457	0.032
Mof_C 	C 	0.59383	0.46997	0.83371	-0.022
Mof_H 	H 	0.62903	0.50897	0.82797	0.005
Mof_Ag	Ag	0.5127	0.48385	0.30178	0.465
Mof_O 	O 	0.3667	0.6245	0.24325	-0.875
Mof_O 	O 	0.4105	0.7028	0.21007	-0.913
Mof_C 	C 	0.3735	0.5677	0.23656	0.366
Mof_C 	C 	0.4645	0.8137	0.22059	-0.563
Mof_H 	H 	0.4956	0.8588	0.2172	0.19
Mof_C 	C 	0.4589	0.7656	0.20841	0.495
Mof_N 	N 	0.4735	0.5138	0.27819	-0.182
Mof_C 	C 	0.4432	0.4723	0.26281	0.011
Mof_H 	H 	0.446	0.4328	0.2612	-0.01
Mof_C 	C 	0.4088	0.4888	0.24977	-0.053
Mof_H 	H 	0.388	0.4604	0.2393	0.014
Mof_C 	C 	0.4047	0.5467	0.25212	-0.065
Mof_C 	C 	0.1531	0.5649	0.2675	-0.007
Mof_H 	H 	0.1954	0.5677	0.2691	0.052
Mof_C 	C 	0.1022	0.5305	0.28053	-0.016
Mof_H 	H 	0.1098	0.5097	0.2911	-0.006
Mof_N 	N 	0.2268	0.4227	0.15967	-0.174
Mof_C 	C 	0.284	0.4284	0.16807	-0.01
Mof_H 	H 	0.3045	0.4048	0.1631	0.002
Mof_C 	C 	0.3111	0.4686	0.18385	-0.011
Mof_H 	H 	0.3502	0.4726	0.1896	0.004
Mof_C 	C 	0.281	0.5031	0.19122	-0.155
Mof_C 	C 	0.2238	0.4974	0.18281	0.013
Mof_H 	H 	0.2033	0.521	0.1879	0.027
Mof_C 	C 	0.1967	0.4572	0.16704	-0.023
Mof_H 	H 	0.1577	0.4534	0.1613	-0.006
Mof_Ag	Ag	0.17937	0.81718	0.63511	0.469
Mof_O 	O 	0.03337	0.95783	0.57658	-0.719
Mof_O 	O 	0.07717	0.03613	0.5434	-0.82
Mof_C 	C 	0.04017	0.90103	0.56989	0.374
Mof_C 	C 	0.13117	0.14703	0.55392	-0.524
Mof_H 	H 	0.16227	0.19213	0.55053	0.169
Mof_C 	C 	0.12557	0.09893	0.54174	0.441
Mof_N 	N 	0.14017	0.84713	0.61152	-0.181
Mof_C 	C 	0.10987	0.80563	0.59614	0.004
Mof_H 	H 	0.11267	0.76613	0.59453	-0.015
Mof_C 	C 	0.07547	0.82213	0.5831	-0.049
Mof_H 	H 	0.05467	0.79373	0.57263	0
Mof_C 	C 	0.07137	0.88003	0.58545	-0.076
Mof_C 	C 	0.81977	0.89823	0.60083	-0.066
Mof_H 	H 	0.86207	0.90103	0.60243	0.084
Mof_C 	C 	0.76887	0.86383	0.61386	0.035
Mof_H 	H 	0.77647	0.84303	0.62443	-0.005
Mof_N 	N 	0.89347	0.75603	0.493	-0.155
Mof_C 	C 	0.95067	0.76173	0.5014	-0.082
Mof_H 	H 	0.97117	0.73813	0.49643	0.051
Mof_C 	C 	0.97777	0.80193	0.51718	0.184
Mof_H 	H 	0.01687	0.80593	0.52293	-0.1
Mof_C 	C 	0.94767	0.83643	0.52455	-0.228
Mof_C 	C 	0.89047	0.83073	0.51614	0.069
Mof_H 	H 	0.86997	0.85433	0.52123	0.025
Mof_C 	C 	0.86337	0.79053	0.50037	-0.039
Mof_H 	H 	0.82437	0.78673	0.49463	0.018
Mof_Ag	Ag	0.84603	0.15052	0.96845	0.467
Mof_O 	O 	0.70003	0.29117	0.90992	-0.875
Mof_O 	O 	0.74383	0.36947	0.87674	-0.914
Mof_C 	C 	0.70683	0.23437	0.90323	0.367
Mof_C 	C 	0.79783	0.48037	0.88726	-0.576
Mof_H 	H 	0.82893	0.52547	0.88387	0.191
Mof_C 	C 	0.79223	0.43227	0.87508	0.5
Mof_N 	N 	0.80683	0.18047	0.94486	-0.181
Mof_C 	C 	0.77653	0.13897	0.92948	0.012
Mof_H 	H 	0.77933	0.09947	0.92787	-0.016
Mof_C 	C 	0.74213	0.15547	0.91644	-0.052
Mof_H 	H 	0.72133	0.12707	0.90597	0.011
Mof_C 	C 	0.73803	0.21337	0.91879	-0.064
Mof_C 	C 	0.48643	0.23157	0.93417	-0.035
Mof_H 	H 	0.52873	0.23437	0.93577	0.061
Mof_C 	C 	0.43553	0.19717	0.9472	0.001
Mof_H 	H 	0.44313	0.17637	0.95777	-0.006
Mof_N 	N 	0.56013	0.08937	0.82634	-0.172
Mof_C 	C 	0.61733	0.09507	0.83474	-0.016
Mof_H 	H 	0.63783	0.07147	0.82977	-0.01
Mof_C 	C 	0.64443	0.13527	0.85052	-0.012
Mof_H 	H 	0.68353	0.13927	0.85627	0
Mof_C 	C 	0.61433	0.16977	0.85789	-0.155
Mof_C 	C 	0.55713	0.16407	0.84948	0.014
Mof_H 	H 	0.53663	0.18767	0.85457	0.026
Mof_C 	C 	0.53003	0.12387	0.83371	-0.027
Mof_H 	H 	0.49103	0.12007	0.82797	-0.006
Mof_Ag	Ag	0.51615	0.02885	0.30178	0.334
Mof_O 	O 	0.3755	0.7422	0.24325	-0.872
Mof_O 	O 	0.2972	0.7077	0.21007	-0.914
Mof_C 	C 	0.4323	0.8058	0.23656	0.352
Mof_C 	C 	0.1863	0.6508	0.22059	-0.582
Mof_H 	H 	0.1412	0.6368	0.2172	0.186
Mof_C 	C 	0.2344	0.6933	0.20841	0.502
Mof_N 	N 	0.4862	0.9597	0.27819	-0.178
Mof_C 	C 	0.5277	0.9709	0.26281	0.211
Mof_H 	H 	0.5672	0.0132	0.2612	-0.138
Mof_C 	C 	0.5112	0.92	0.24977	-0.152
Mof_H 	H 	0.5396	0.9276	0.2393	0.063
Mof_C 	C 	0.4533	0.858	0.25212	-0.016
Mof_C 	C 	0.4351	0.5882	0.2675	-0.032
Mof_H 	H 	0.4323	0.6277	0.2691	0.062
Mof_C 	C 	0.4695	0.5717	0.28053	0.006
Mof_H 	H 	0.4903	0.6001	0.2911	0.001
Mof_N 	N 	0.5773	0.8041	0.15967	-0.174
Mof_C 	C 	0.5716	0.8556	0.16807	-0.006
Mof_H 	H 	0.5952	0.8997	0.1631	0.015
Mof_C 	C 	0.5314	0.8425	0.18385	-0.01
Mof_H 	H 	0.5274	0.8776	0.1896	0.014
Mof_C 	C 	0.4969	0.7779	0.19122	-0.151
Mof_C 	C 	0.5026	0.7264	0.18281	0.014
Mof_H 	H 	0.479	0.6823	0.1879	0.032
Mof_C 	C 	0.5428	0.7395	0.16704	-0.02
Mof_H 	H 	0.5466	0.7043	0.1613	0.002
Mof_Ag	Ag	0.18282	0.36218	0.63511	0.448
Mof_O 	O 	0.04217	0.07553	0.57658	-0.782
Mof_O 	O 	0.96387	0.04103	0.5434	-0.705
Mof_C 	C 	0.09897	0.13913	0.56989	0.324
Mof_C 	C 	0.85297	0.98413	0.55392	-0.262
Mof_H 	H 	0.80787	0.97013	0.55053	0.106
Mof_C 	C 	0.90107	0.02663	0.54174	0.218
Mof_N 	N 	0.15287	0.29303	0.61152	-0.183
Mof_C 	C 	0.19437	0.30423	0.59614	0.008
Mof_H 	H 	0.23387	0.34653	0.59453	-0.01
Mof_C 	C 	0.17787	0.25333	0.5831	-0.057
Mof_H 	H 	0.20627	0.26093	0.57263	0.014
Mof_C 	C 	0.11997	0.19133	0.58545	-0.064
Mof_C 	C 	0.10177	0.92153	0.60083	-0.033
Mof_H 	H 	0.09897	0.96103	0.60243	0.084
Mof_C 	C 	0.13617	0.90503	0.61386	0.009
Mof_H 	H 	0.15697	0.93343	0.62443	0.019
Mof_N 	N 	0.24397	0.13743	0.493	-0.177
Mof_C 	C 	0.23827	0.18893	0.5014	-0.014
Mof_H 	H 	0.26187	0.23303	0.49643	-0.003
Mof_C 	C 	0.19807	0.17583	0.51718	-0.022
Mof_H 	H 	0.19407	0.21093	0.52293	0
Mof_C 	C 	0.16357	0.11123	0.52455	-0.15
Mof_C 	C 	0.16927	0.05973	0.51614	-0.002
Mof_H 	H 	0.14567	0.01563	0.52123	0.006
Mof_C 	C 	0.20947	0.07283	0.50037	-0.029
Mof_H 	H 	0.21327	0.03763	0.49463	-0.018
Mof_Ag	Ag	0.84948	0.69552	0.96845	0.501
Mof_O 	O 	0.70883	0.40887	0.90992	-0.875
Mof_O 	O 	0.63053	0.37437	0.87674	-0.914
Mof_C 	C 	0.76563	0.47247	0.90323	0.368
Mof_C 	C 	0.51963	0.31747	0.88726	-0.573
Mof_H 	H 	0.47453	0.30347	0.88387	0.184
Mof_C 	C 	0.56773	0.35997	0.87508	0.498
Mof_N 	N 	0.81953	0.62637	0.94486	-0.181
Mof_C 	C 	0.86103	0.63757	0.92948	0.012
Mof_H 	H 	0.90053	0.67987	0.92787	0.004
Mof_C 	C 	0.84453	0.58667	0.91644	-0.049
Mof_H 	H 	0.87293	0.59427	0.90597	0.018
Mof_C 	C 	0.78663	0.52467	0.91879	-0.066
Mof_C 	C 	0.76843	0.25487	0.93417	-0.029
Mof_H 	H 	0.76563	0.29437	0.93577	0.063
Mof_C 	C 	0.80283	0.23837	0.9472	0.008
Mof_H 	H 	0.82363	0.26677	0.95777	0.006
Mof_N 	N 	0.91063	0.47077	0.82634	-0.177
Mof_C 	C 	0.90493	0.52227	0.83474	-0.004
Mof_H 	H 	0.92853	0.56637	0.82977	0.013
Mof_C 	C 	0.86473	0.50917	0.85052	-0.01
Mof_H 	H 	0.86073	0.54427	0.85627	0.01
Mof_C 	C 	0.83023	0.44457	0.85789	-0.154
Mof_C 	C 	0.83593	0.39307	0.84948	0.015
Mof_H 	H 	0.81233	0.34897	0.85457	0.033
Mof_C 	C 	0.87613	0.40617	0.83371	-0.018
Mof_H 	H 	0.87993	0.37097	0.82797	0.007
Mof_Ag	Ag	0.5127	0.02885	0.80178	0.334
Mof_O 	O 	0.3667	0.7422	0.74325	-0.872
Mof_O 	O 	0.4105	0.7077	0.71007	-0.913
Mof_C 	C 	0.3735	0.8058	0.73656	0.352
Mof_C 	C 	0.4645	0.6508	0.72059	-0.574
Mof_H 	H 	0.4956	0.6368	0.7172	0.188
Mof_C 	C 	0.4589	0.6933	0.70841	0.499
Mof_N 	N 	0.4735	0.9597	0.77819	-0.178
Mof_C 	C 	0.4432	0.9709	0.76281	0.214
Mof_H 	H 	0.446	0.0132	0.7612	-0.14
Mof_C 	C 	0.4088	0.92	0.74977	-0.154
Mof_H 	H 	0.388	0.9276	0.7393	0.064
Mof_C 	C 	0.4047	0.858	0.75212	-0.015
Mof_C 	C 	0.1531	0.5882	0.7675	-0.006
Mof_H 	H 	0.1954	0.6277	0.7691	0.052
Mof_C 	C 	0.1022	0.5717	0.78053	-0.016
Mof_H 	H 	0.1098	0.6001	0.7911	-0.006
Mof_N 	N 	0.2268	0.8041	0.65967	-0.174
Mof_C 	C 	0.284	0.8556	0.66807	-0.006
Mof_H 	H 	0.3045	0.8997	0.6631	0.017
Mof_C 	C 	0.3111	0.8425	0.68385	-0.009
Mof_H 	H 	0.3502	0.8776	0.6896	0.014
Mof_C 	C 	0.281	0.7779	0.69122	-0.152
Mof_C 	C 	0.2238	0.7264	0.68281	0.011
Mof_H 	H 	0.2033	0.6823	0.6879	0.027
Mof_C 	C 	0.1967	0.7395	0.66704	-0.021
Mof_H 	H 	0.1577	0.7043	0.6613	-0.007
Mof_Ag	Ag	0.17937	0.36218	0.13511	0.446
Mof_O 	O 	0.03337	0.07553	0.07658	-0.794
Mof_O 	O 	0.07717	0.04103	0.0434	-0.764
Mof_C 	C 	0.04017	0.13913	0.06989	0.388
Mof_C 	C 	0.13117	0.98413	0.05392	-0.268
Mof_H 	H 	0.16227	0.97013	0.05053	0.105
Mof_C 	C 	0.12557	0.02663	0.04174	0.214
Mof_N 	N 	0.14017	0.29303	0.11152	-0.18
Mof_C 	C 	0.10987	0.30423	0.09614	-0.007
Mof_H 	H 	0.11267	0.34653	0.09453	-0.014
Mof_C 	C 	0.07547	0.25333	0.0831	-0.041
Mof_H 	H 	0.05467	0.26093	0.07263	-0.006
Mof_C 	C 	0.07137	0.19133	0.08545	-0.1
Mof_C 	C 	0.81977	0.92153	0.10083	-0.051
Mof_H 	H 	0.86207	0.96103	0.10243	0.097
Mof_C 	C 	0.76887	0.90503	0.11386	0.026
Mof_H 	H 	0.77647	0.93343	0.12443	0.013
Mof_N 	N 	0.89347	0.13743	0.993	-0.152
Mof_C 	C 	0.95067	0.18893	0.0014	-0.107
Mof_H 	H 	0.97117	0.23303	0.99643	0.055
Mof_C 	C 	0.97777	0.17583	0.01718	0.214
Mof_H 	H 	0.01687	0.21093	0.02293	-0.125
Mof_C 	C 	0.94767	0.11123	0.02455	-0.271
Mof_C 	C 	0.89047	0.05973	0.01614	0.083
Mof_H 	H 	0.86997	0.01563	0.02123	-0.01
Mof_C 	C 	0.86337	0.07283	0.00037	-0.062
Mof_H 	H 	0.82437	0.03763	0.99463	0.002
Mof_Ag	Ag	0.84603	0.69552	0.46845	0.506
Mof_O 	O 	0.70003	0.40887	0.40992	-0.875
Mof_O 	O 	0.74383	0.37437	0.37674	-0.914
Mof_C 	C 	0.70683	0.47247	0.40323	0.369
Mof_C 	C 	0.79783	0.31747	0.38726	-0.575
Mof_H 	H 	0.82893	0.30347	0.38387	0.188
Mof_C 	C 	0.79223	0.35997	0.37508	0.499
Mof_N 	N 	0.80683	0.62637	0.44486	-0.18
Mof_C 	C 	0.77653	0.63757	0.42948	0.014
Mof_H 	H 	0.77933	0.67987	0.42787	-0.001
Mof_C 	C 	0.74213	0.58667	0.41644	-0.049
Mof_H 	H 	0.72133	0.59427	0.40597	0.016
Mof_C 	C 	0.73803	0.52467	0.41879	-0.064
Mof_C 	C 	0.48643	0.25487	0.43417	-0.033
Mof_H 	H 	0.52873	0.29437	0.43577	0.062
Mof_C 	C 	0.43553	0.23837	0.4472	0.004
Mof_H 	H 	0.44313	0.26677	0.45777	0.001
Mof_N 	N 	0.56013	0.47077	0.32634	-0.175
Mof_C 	C 	0.61733	0.52227	0.33474	-0.009
Mof_H 	H 	0.63783	0.56637	0.32977	0.004
Mof_C 	C 	0.64443	0.50917	0.35052	-0.011
Mof_H 	H 	0.68353	0.54427	0.35627	0.007
Mof_C 	C 	0.61433	0.44457	0.35789	-0.154
Mof_C 	C 	0.55713	0.39307	0.34948	0.014
Mof_H 	H 	0.53663	0.34897	0.35457	0.029
Mof_C 	C 	0.53003	0.40617	0.33371	-0.022
Mof_H 	H 	0.49103	0.37097	0.32797	-0
Mof_Ag	Ag	0.51615	0.4873	0.80178	0.464
Mof_O 	O 	0.3755	0.6333	0.74325	-0.875
Mof_O 	O 	0.2972	0.5895	0.71007	-0.915
Mof_C 	C 	0.4323	0.6265	0.73656	0.366
Mof_C 	C 	0.1863	0.5355	0.72059	-0.582
Mof_H 	H 	0.1412	0.5044	0.7172	0.186
Mof_C 	C 	0.2344	0.5411	0.70841	0.501
Mof_N 	N 	0.4862	0.5265	0.77819	-0.182
Mof_C 	C 	0.5277	0.5568	0.76281	0.01
Mof_H 	H 	0.5672	0.554	0.7612	-0.009
Mof_C 	C 	0.5112	0.5912	0.74977	-0.052
Mof_H 	H 	0.5396	0.612	0.7393	0.013
Mof_C 	C 	0.4533	0.5953	0.75212	-0.066
Mof_C 	C 	0.4351	0.8469	0.7675	-0.063
Mof_H 	H 	0.4323	0.8046	0.7691	0.074
Mof_C 	C 	0.4695	0.8978	0.78053	0.032
Mof_H 	H 	0.4903	0.8902	0.7911	0.009
Mof_N 	N 	0.5773	0.7732	0.65967	-0.175
Mof_C 	C 	0.5716	0.716	0.66807	-0.01
Mof_H 	H 	0.5952	0.6955	0.6631	0
Mof_C 	C 	0.5314	0.6889	0.68385	-0.011
Mof_H 	H 	0.5274	0.6498	0.6896	0.003
Mof_C 	C 	0.4969	0.719	0.69122	-0.154
Mof_C 	C 	0.5026	0.7762	0.68281	0.018
Mof_H 	H 	0.479	0.7967	0.6879	0.036
Mof_C 	C 	0.5428	0.8033	0.66704	-0.02
Mof_H 	H 	0.5466	0.8423	0.6613	0.013
Mof_Ag	Ag	0.18282	0.82063	0.13511	0.475
Mof_O 	O 	0.04217	0.96663	0.07658	-0.695
Mof_O 	O 	0.96387	0.92283	0.0434	-0.694
Mof_C 	C 	0.09897	0.95983	0.06989	0.238
Mof_C 	C 	0.85297	0.86883	0.05392	-0.461
Mof_H 	H 	0.80787	0.83773	0.05053	0.159
Mof_C 	C 	0.90107	0.87443	0.04174	0.412
Mof_N 	N 	0.15287	0.85983	0.11152	-0.188
Mof_C 	C 	0.19437	0.89013	0.09614	0.036
Mof_H 	H 	0.23387	0.88733	0.09453	-0.006
Mof_C 	C 	0.17787	0.92453	0.0831	-0.082
Mof_H 	H 	0.20627	0.94533	0.07263	0.044
Mof_C 	C 	0.11997	0.92863	0.08545	0.001
Mof_C 	C 	0.10177	0.18023	0.10083	-0.024
Mof_H 	H 	0.09897	0.13793	0.10243	0.048
Mof_C 	C 	0.13617	0.23113	0.11386	-0.008
Mof_H 	H 	0.15697	0.22353	0.12443	0.005
Mof_N 	N 	0.24397	0.10653	0.993	-0.209
Mof_C 	C 	0.23827	0.04933	0.0014	0.115
Mof_H 	H 	0.26187	0.02883	0.99643	-0.071
Mof_C 	C 	0.19807	0.02223	0.01718	-0.317
Mof_H 	H 	0.19407	0.98313	0.02293	0.168
Mof_C 	C 	0.16357	0.05233	0.02455	0.03
Mof_C 	C 	0.16927	0.10953	0.01614	-0.112
Mof_H 	H 	0.14567	0.13003	0.02123	0.062
Mof_C 	C 	0.20947	0.13663	0.00037	0.032
Mof_H 	H 	0.21327	0.17563	0.99463	-0.024
Mof_Ag	Ag	0.84948	0.15397	0.46845	0.457
Mof_O 	O 	0.70883	0.29997	0.40992	-0.876
Mof_O 	O 	0.63053	0.25617	0.37674	-0.915
Mof_C 	C 	0.76563	0.29317	0.40323	0.365
Mof_C 	C 	0.51963	0.20217	0.38726	-0.572
Mof_H 	H 	0.47453	0.17107	0.38387	0.184
Mof_C 	C 	0.56773	0.20777	0.37508	0.497
Mof_N 	N 	0.81953	0.19317	0.44486	-0.184
Mof_C 	C 	0.86103	0.22347	0.42948	0.007
Mof_H 	H 	0.90053	0.22067	0.42787	-0.004
Mof_C 	C 	0.84453	0.25787	0.41644	-0.053
Mof_H 	H 	0.87293	0.27867	0.40597	0.015
Mof_C 	C 	0.78663	0.26197	0.41879	-0.067
Mof_C 	C 	0.76843	0.51357	0.43417	-0.028
Mof_H 	H 	0.76563	0.47127	0.43577	0.063
Mof_C 	C 	0.80283	0.56447	0.4472	0.009
Mof_H 	H 	0.82363	0.55687	0.45777	0.006
Mof_N 	N 	0.91063	0.43987	0.32634	-0.177
Mof_C 	C 	0.90493	0.38267	0.33474	-0.005
Mof_H 	H 	0.92853	0.36217	0.32977	0.011
Mof_C 	C 	0.86473	0.35557	0.35052	-0.01
Mof_H 	H 	0.86073	0.31647	0.35627	0.005
Mof_C 	C 	0.83023	0.38567	0.35789	-0.155
Mof_C 	C 	0.83593	0.44287	0.34948	0.016
Mof_H 	H 	0.81233	0.46337	0.35457	0.035
Mof_C 	C 	0.87613	0.46997	0.33371	-0.018
Mof_H 	H 	0.87993	0.50897	0.32797	0.009
Mof_Ag	Ag	0.97115	0.48385	0.80178	0.571
Mof_O 	O 	0.2578	0.6245	0.74325	-0.877
Mof_O 	O 	0.2923	0.7028	0.71007	-0.914
Mof_C 	C 	0.1942	0.5677	0.73656	0.377
Mof_C 	C 	0.3492	0.8137	0.72059	-0.563
Mof_H 	H 	0.3632	0.8588	0.7172	0.19
Mof_C 	C 	0.3067	0.7656	0.70841	0.495
Mof_N 	N 	0.0403	0.5138	0.77819	-0.185
Mof_C 	C 	0.0291	0.4723	0.76281	-0.155
Mof_H 	H 	0.9868	0.4328	0.7612	0.097
Mof_C 	C 	0.08	0.4888	0.74977	0.031
Mof_H 	H 	0.0724	0.4604	0.7393	-0.028
Mof_C 	C 	0.142	0.5467	0.75212	-0.106
Mof_C 	C 	0.4118	0.5649	0.7675	-0.032
Mof_H 	H 	0.3723	0.5677	0.7691	0.062
Mof_C 	C 	0.4283	0.5305	0.78053	0.005
Mof_H 	H 	0.3999	0.5097	0.7911	0
Mof_N 	N 	0.1959	0.4227	0.65967	-0.175
Mof_C 	C 	0.1444	0.4284	0.66807	-0.013
Mof_H 	H 	0.1003	0.4048	0.6631	-0.01
Mof_C 	C 	0.1575	0.4686	0.68385	-0.012
Mof_H 	H 	0.1224	0.4726	0.6896	-0.005
Mof_C 	C 	0.2221	0.5031	0.69122	-0.158
Mof_C 	C 	0.2736	0.4974	0.68281	0.016
Mof_H 	H 	0.3177	0.521	0.6879	0.031
Mof_C 	C 	0.2605	0.4572	0.66704	-0.023
Mof_H 	H 	0.2957	0.4534	0.6613	0.003
Mof_Ag	Ag	0.63782	0.81718	0.13511	0.488
Mof_O 	O 	0.92447	0.95783	0.07658	-0.661
Mof_O 	O 	0.95897	0.03613	0.0434	-0.806
Mof_C 	C 	0.86087	0.90103	0.06989	0.31
Mof_C 	C 	0.01587	0.14703	0.05392	-0.702
Mof_H 	H 	0.02987	0.19213	0.05053	0.216
Mof_C 	C 	0.97337	0.09893	0.04174	0.614
Mof_N 	N 	0.70697	0.84713	0.11152	-0.184
Mof_C 	C 	0.69577	0.80563	0.09614	0.024
Mof_H 	H 	0.65347	0.76613	0.09453	-0.011
Mof_C 	C 	0.74667	0.82213	0.0831	-0.067
Mof_H 	H 	0.73907	0.79373	0.07263	0.023
Mof_C 	C 	0.80867	0.88003	0.08545	-0.03
Mof_C 	C 	0.07847	0.89823	0.10083	-0.063
Mof_H 	H 	0.03897	0.90103	0.10243	0.06
Mof_C 	C 	0.09497	0.86383	0.11386	0.026
Mof_H 	H 	0.06657	0.84303	0.12443	-0.017
Mof_N 	N 	0.86257	0.75603	0.993	-0.179
Mof_C 	C 	0.81107	0.76173	0.0014	0.013
Mof_H 	H 	0.76697	0.73813	0.99643	-0
Mof_C 	C 	0.82417	0.80193	0.01718	-0.036
Mof_H 	H 	0.78907	0.80593	0.02293	0.024
Mof_C 	C 	0.88877	0.83643	0.02455	-0.095
Mof_C 	C 	0.94027	0.83073	0.01614	-0.012
Mof_H 	H 	0.98437	0.85433	0.02123	0.067
Mof_C 	C 	0.92717	0.79053	0.00037	0.006
Mof_H 	H 	0.96237	0.78673	0.99463	0.014
Mof_Ag	Ag	0.30448	0.15052	0.46845	0.426
Mof_O 	O 	0.59113	0.29117	0.40992	-0.875
Mof_O 	O 	0.62563	0.36947	0.37674	-0.915
Mof_C 	C 	0.52753	0.23437	0.40323	0.364
Mof_C 	C 	0.68253	0.48037	0.38726	-0.575
Mof_H 	H 	0.69653	0.52547	0.38387	0.191
Mof_C 	C 	0.64003	0.43227	0.37508	0.499
Mof_N 	N 	0.37363	0.18047	0.44486	-0.183
Mof_C 	C 	0.36243	0.13897	0.42948	0.008
Mof_H 	H 	0.32013	0.09947	0.42787	-0.025
Mof_C 	C 	0.41333	0.15547	0.41644	-0.056
Mof_H 	H 	0.40573	0.12707	0.40597	0.008
Mof_C 	C 	0.47533	0.21337	0.41879	-0.065
Mof_C 	C 	0.74513	0.23157	0.43417	-0.034
Mof_H 	H 	0.70563	0.23437	0.43577	0.061
Mof_C 	C 	0.76163	0.19717	0.4472	0.003
Mof_H 	H 	0.73323	0.17637	0.45777	-0.006
Mof_N 	N 	0.52923	0.08937	0.32634	-0.172
Mof_C 	C 	0.47773	0.09507	0.33474	-0.018
Mof_H 	H 	0.43363	0.07147	0.32977	-0.013
Mof_C 	C 	0.49083	0.13527	0.35052	-0.012
Mof_H 	H 	0.45573	0.13927	0.35627	-0.004
Mof_C 	C 	0.55543	0.16977	0.35789	-0.156
Mof_C 	C 	0.60693	0.16407	0.34948	0.014
Mof_H 	H 	0.65103	0.18767	0.35457	0.028
Mof_C 	C 	0.59383	0.12387	0.33371	-0.027
Mof_H 	H 	0.62903	0.12007	0.32797	-0.003
Mof_Ga	Ga	0.33333	0.66667	0.22681	4.107
Mof_Ga	Ga	-2.47461e-32	-2.47461e-32	0.56014	3.247
Mof_Ga	Ga	0.66667	0.33333	0.89348	4.106
Mof_Ga	Ga	0.33333	0.66667	0.72681	4.107
Mof_Ga	Ga	-0	-3.09327e-33	0.06014	3.249
Mof_Ga	Ga	0.66667	0.33333	0.39348	4.106
_end
