data_functionalizedCrystal
_audit_creation_method	'EQeq! by Chris Wilmer'
_symmetry_space_group_name_H-M	'P1'
_symmetry_Int_Tables_number	1
_symmetry_cell_setting	triclinic
loop_
_symmetry_equiv_pos_as_xyz
  x,y,z
_cell_length_a	15.0805
_cell_length_b	15.6823
_cell_length_c	27.3024
_cell_angle_alpha	90
_cell_angle_beta	101.67
_cell_angle_gamma	90
loop_
_atom_site_label
_atom_site_type_symbol
_atom_site_fract_x
_atom_site_fract_y
_atom_site_fract_z
_atom_site_charge
Mof_Er	Er	0.78008	0.61627	0.37115	2.1
Mof_H 	H 	0.9208	0.5752	0.2888	-0.069
Mof_H 	H 	0.1425	0.61	0.2787	0.042
Mof_H 	H 	0.0839	0.5276	0.2862	0.04
Mof_H 	H 	0.049	0.5914	0.2406	0.032
Mof_H 	H 	0.7281	0.6099	0.2344	-0.092
Mof_H 	H 	0.5847	0.7359	0.1463	0.057
Mof_H 	H 	0.6867	0.7021	0.1536	0.051
Mof_H 	H 	0.6054	0.6359	0.1522	0.048
Mof_H 	H 	0.5457	0.7945	0.207	0.065
Mof_H 	H 	0.5418	0.7352	0.2542	0.071
Mof_H 	H 	0.6209	0.8042	0.2572	0.075
Mof_H 	H 	0.8629	0.804	0.3305	-0.077
Mof_H 	H 	0.6907	0.9788	0.3535	0.031
Mof_H 	H 	0.6567	0.8819	0.3512	0.058
Mof_H 	H 	0.7268	0.9158	0.3993	0.066
Mof_H 	H 	0.7855	0.0116	0.3089	0.049
Mof_H 	H 	0.8832	0.968	0.3233	0.06
Mof_H 	H 	0.8121	0.9364	0.275	0.048
Mof_H 	H 	0.5497	0.6312	0.3233	-0.105
Mof_H 	H 	0.4385	0.7692	0.4151	0.053
Mof_H 	H 	0.5141	0.7026	0.4408	0.073
Mof_H 	H 	0.5431	0.7876	0.4157	0.076
Mof_H 	H 	0.3587	0.7348	0.3486	0.063
Mof_H 	H 	0.406	0.7285	0.3012	0.065
Mof_H 	H 	0.3771	0.6435	0.3264	0.064
Mof_H 	H 	0.811	0.7723	0.4632	-0.07
Mof_H 	H 	0.6751	0.6895	0.5628	0.049
Mof_H 	H 	0.6483	0.648	0.5083	0.081
Mof_H 	H 	0.7408	0.6213	0.545	0.067
Mof_H 	H 	0.7161	0.8157	0.5666	0.049
Mof_H 	H 	0.8117	0.8354	0.5521	0.036
Mof_H 	H 	0.7198	0.8625	0.5149	0.055
Mof_H 	H 	0.675	0.5129	0.455	-0.079
Mof_H 	H 	0.5196	0.3378	0.377	0.052
Mof_H 	H 	0.5548	0.4114	0.3451	0.063
Mof_H 	H 	0.6233	0.3394	0.3715	0.053
Mof_H 	H 	0.4938	0.3719	0.4459	0.056
Mof_H 	H 	0.5798	0.396	0.4883	0.037
Mof_H 	H 	0.5115	0.469	0.4631	0.065
Mof_H 	H 	0.8642	0.4331	0.4275	-0.081
Mof_H 	H 	0.13	0.4403	0.4536	0.082
Mof_H 	H 	0.0793	0.4989	0.4086	0.075
Mof_H 	H 	0.0817	0.5267	0.4652	0.081
Mof_H 	H 	0.0701	0.3282	0.4633	0.082
Mof_H 	H 	0.9777	0.3312	0.4836	0.073
Mof_H 	H 	0.9758	0.3076	0.4264	0.062
Mof_H 	H 	0.7078	0.4312	0.3005	-0.088
Mof_H 	H 	0.8022	0.2638	0.2461	0.057
Mof_H 	H 	0.7322	0.273	0.2827	0.037
Mof_H 	H 	0.7138	0.3218	0.2301	0.038
Mof_H 	H 	0.9247	0.3314	0.2642	0.061
Mof_H 	H 	0.9153	0.4329	0.2605	0.079
Mof_H 	H 	0.9416	0.3878	0.3141	0.08
Mof_C 	C 	0.9501	0.6198	0.3095	0.283
Mof_C 	C 	0.0851	0.692	0.3417	-0.03
Mof_C 	C 	0.081	0.5874	0.2756	-0.166
Mof_C 	C 	0.6927	0.6503	0.24789	0.311
Mof_C 	C 	0.6279	0.693	0.16282	-0.196
Mof_C 	C 	0.582	0.7638	0.23536	-0.206
Mof_C 	C 	0.8151	0.8189	0.34683	0.319
Mof_C 	C 	0.7083	0.9199	0.3629	-0.176
Mof_C 	C 	0.819	0.958	0.3093	-0.187
Mof_C 	C 	0.5584	0.6594	0.3547	0.315
Mof_C 	C 	0.4967	0.7431	0.4132	-0.196
Mof_C 	C 	0.4005	0.7016	0.33285	-0.209
Mof_C 	C 	0.7839	0.7245	0.47578	0.287
Mof_C 	C 	0.6986	0.6683	0.53419	-0.196
Mof_C 	C 	0.7485	0.8194	0.53897	-0.184
Mof_C 	C 	0.6613	0.4812	0.4248	0.296
Mof_C 	C 	0.571	0.3747	0.3746	-0.174
Mof_C 	C 	0.5404	0.4151	0.4572	-0.186
Mof_C 	C 	0.9162	0.4676	0.42846	0.306
Mof_C 	C 	0.0782	0.4781	0.4423	-0.206
Mof_C 	C 	0.0055	0.3425	0.4548	-0.21
Mof_C 	C 	0.7705	0.4373	0.30082	0.296
Mof_C 	C 	0.7606	0.3027	0.2583	-0.186
Mof_C 	C 	0.9057	0.3825	0.28	-0.214
Mof_N 	N 	0.0325	0.637	0.30709	-0.161
Mof_N 	N 	0.6381	0.7006	0.21697	-0.141
Mof_N 	N 	0.7831	0.8951	0.34	-0.145
Mof_N 	N 	0.4888	0.6986	0.36602	-0.133
Mof_N 	N 	0.7456	0.7368	0.51409	-0.131
Mof_N 	N 	0.5938	0.4273	0.41924	-0.138
Mof_N 	N 	0.9951	0.4318	0.44152	-0.124
Mof_N 	N 	0.8103	0.3757	0.28181	-0.144
Mof_O 	O 	0.90507	0.65782	0.33722	-0.434
Mof_O 	O 	0.7001	0.6534	0.29365	-0.484
Mof_O 	O 	0.789	0.76385	0.37275	-0.458
Mof_O 	O 	0.63472	0.6563	0.38158	-0.442
Mof_O 	O 	0.78737	0.65414	0.45442	-0.439
Mof_O 	O 	0.70874	0.49374	0.39322	-0.454
Mof_O 	O 	0.90425	0.54385	0.41719	-0.449
Mof_O 	O 	0.8082	0.50353	0.31931	-0.443
Mof_Er	Er	0.21992	0.11627	0.12885	2.101
Mof_H 	H 	0.0792	0.0752	0.2112	-0.068
Mof_H 	H 	0.8575	0.11	0.2213	0.043
Mof_H 	H 	0.9161	0.0276	0.2138	0.041
Mof_H 	H 	0.951	0.0914	0.2594	0.033
Mof_H 	H 	0.2719	0.1099	0.2656	-0.091
Mof_H 	H 	0.4153	0.2359	0.3537	0.057
Mof_H 	H 	0.3133	0.2021	0.3464	0.051
Mof_H 	H 	0.3946	0.1359	0.3478	0.048
Mof_H 	H 	0.4543	0.2945	0.293	0.065
Mof_H 	H 	0.4582	0.2352	0.2458	0.071
Mof_H 	H 	0.3791	0.3042	0.2428	0.075
Mof_H 	H 	0.1371	0.304	0.1695	-0.077
Mof_H 	H 	0.3093	0.4788	0.1465	0.031
Mof_H 	H 	0.3433	0.3819	0.1488	0.058
Mof_H 	H 	0.2732	0.4158	0.1007	0.066
Mof_H 	H 	0.2145	0.5116	0.1911	0.05
Mof_H 	H 	0.1168	0.468	0.1767	0.06
Mof_H 	H 	0.1879	0.4364	0.225	0.049
Mof_H 	H 	0.4503	0.1312	0.1767	-0.105
Mof_H 	H 	0.5615	0.2692	0.0849	0.052
Mof_H 	H 	0.4859	0.2026	0.0592	0.073
Mof_H 	H 	0.4569	0.2876	0.0843	0.076
Mof_H 	H 	0.6413	0.2348	0.1514	0.063
Mof_H 	H 	0.594	0.2285	0.1988	0.065
Mof_H 	H 	0.6229	0.1435	0.1736	0.064
Mof_H 	H 	0.189	0.2723	0.0368	-0.07
Mof_H 	H 	0.3249	0.1895	0.9372	0.049
Mof_H 	H 	0.3517	0.148	0.9917	0.081
Mof_H 	H 	0.2592	0.1213	0.955	0.067
Mof_H 	H 	0.2839	0.3157	0.9334	0.049
Mof_H 	H 	0.1883	0.3354	0.9479	0.036
Mof_H 	H 	0.2802	0.3625	0.9851	0.055
Mof_H 	H 	0.325	0.0129	0.045	-0.079
Mof_H 	H 	0.4804	0.8378	0.123	0.052
Mof_H 	H 	0.4452	0.9114	0.1549	0.063
Mof_H 	H 	0.3767	0.8394	0.1285	0.053
Mof_H 	H 	0.5062	0.8719	0.0541	0.056
Mof_H 	H 	0.4202	0.896	0.0117	0.038
Mof_H 	H 	0.4885	0.969	0.0369	0.065
Mof_H 	H 	0.1358	0.9331	0.0725	-0.081
Mof_H 	H 	0.87	0.9403	0.0464	0.081
Mof_H 	H 	0.9207	0.9989	0.0914	0.074
Mof_H 	H 	0.9183	0.0267	0.0348	0.079
Mof_H 	H 	0.9299	0.8282	0.0367	0.083
Mof_H 	H 	0.0223	0.8312	0.0164	0.073
Mof_H 	H 	0.0242	0.8076	0.0736	0.062
Mof_H 	H 	0.2922	0.9312	0.1995	-0.088
Mof_H 	H 	0.1978	0.7638	0.2539	0.057
Mof_H 	H 	0.2678	0.773	0.2173	0.037
Mof_H 	H 	0.2862	0.8218	0.2699	0.038
Mof_H 	H 	0.0753	0.8314	0.2358	0.062
Mof_H 	H 	0.0847	0.9329	0.2395	0.079
Mof_H 	H 	0.0584	0.8878	0.1859	0.08
Mof_C 	C 	0.0499	0.1198	0.1905	0.284
Mof_C 	C 	0.9149	0.192	0.1583	-0.031
Mof_C 	C 	0.919	0.0874	0.2244	-0.166
Mof_C 	C 	0.3073	0.1503	0.25211	0.311
Mof_C 	C 	0.3721	0.193	0.33718	-0.196
Mof_C 	C 	0.418	0.2638	0.26464	-0.206
Mof_C 	C 	0.1849	0.3189	0.15317	0.319
Mof_C 	C 	0.2917	0.4199	0.1371	-0.176
Mof_C 	C 	0.181	0.458	0.1907	-0.189
Mof_C 	C 	0.4416	0.1594	0.1453	0.315
Mof_C 	C 	0.5033	0.2431	0.0868	-0.196
Mof_C 	C 	0.5995	0.2016	0.16715	-0.209
Mof_C 	C 	0.2161	0.2245	0.02422	0.287
Mof_C 	C 	0.3014	0.1683	0.96581	-0.196
Mof_C 	C 	0.2515	0.3194	0.96103	-0.184
Mof_C 	C 	0.3387	0.9812	0.0752	0.296
Mof_C 	C 	0.429	0.8747	0.1254	-0.174
Mof_C 	C 	0.4596	0.9151	0.0428	-0.186
Mof_C 	C 	0.0838	0.9676	0.07154	0.306
Mof_C 	C 	0.9218	0.9781	0.0577	-0.203
Mof_C 	C 	0.9945	0.8425	0.0452	-0.212
Mof_C 	C 	0.2295	0.9373	0.19918	0.295
Mof_C 	C 	0.2394	0.8027	0.2417	-0.186
Mof_C 	C 	0.0943	0.8825	0.22	-0.214
Mof_N 	N 	0.9675	0.137	0.19291	-0.162
Mof_N 	N 	0.3619	0.2006	0.28303	-0.141
Mof_N 	N 	0.2169	0.3951	0.16	-0.144
Mof_N 	N 	0.5112	0.1986	0.13398	-0.134
Mof_N 	N 	0.2544	0.2368	0.98591	-0.131
Mof_N 	N 	0.4062	0.9273	0.08076	-0.138
Mof_N 	N 	0.0049	0.9318	0.05848	-0.124
Mof_N 	N 	0.1897	0.8757	0.21819	-0.144
Mof_O 	O 	0.09493	0.15782	0.16278	-0.434
Mof_O 	O 	0.2999	0.1534	0.20635	-0.484
Mof_O 	O 	0.211	0.26385	0.12725	-0.458
Mof_O 	O 	0.36528	0.1563	0.11842	-0.442
Mof_O 	O 	0.21263	0.15414	0.04558	-0.439
Mof_O 	O 	0.29126	0.99374	0.10678	-0.454
Mof_O 	O 	0.09575	0.04385	0.08281	-0.449
Mof_O 	O 	0.1918	0.00353	0.18069	-0.443
Mof_Er	Er	0.21992	0.38373	0.62885	2.101
Mof_H 	H 	0.0792	0.4248	0.7112	-0.068
Mof_H 	H 	0.8575	0.39	0.7213	0.043
Mof_H 	H 	0.9161	0.4724	0.7138	0.041
Mof_H 	H 	0.951	0.4086	0.7594	0.033
Mof_H 	H 	0.2719	0.3901	0.7656	-0.091
Mof_H 	H 	0.4153	0.2641	0.8537	0.057
Mof_H 	H 	0.3133	0.2979	0.8464	0.051
Mof_H 	H 	0.3946	0.3641	0.8478	0.048
Mof_H 	H 	0.4543	0.2055	0.793	0.065
Mof_H 	H 	0.4582	0.2648	0.7458	0.071
Mof_H 	H 	0.3791	0.1958	0.7428	0.075
Mof_H 	H 	0.1371	0.196	0.6695	-0.077
Mof_H 	H 	0.3093	0.0212	0.6465	0.031
Mof_H 	H 	0.3433	0.1181	0.6488	0.058
Mof_H 	H 	0.2732	0.0842	0.6007	0.066
Mof_H 	H 	0.2145	0.9884	0.6911	0.049
Mof_H 	H 	0.1168	0.032	0.6767	0.06
Mof_H 	H 	0.1879	0.0636	0.725	0.048
Mof_H 	H 	0.4503	0.3688	0.6767	-0.105
Mof_H 	H 	0.5615	0.2308	0.5849	0.053
Mof_H 	H 	0.4859	0.2974	0.5592	0.073
Mof_H 	H 	0.4569	0.2124	0.5843	0.076
Mof_H 	H 	0.6413	0.2652	0.6514	0.063
Mof_H 	H 	0.594	0.2715	0.6988	0.065
Mof_H 	H 	0.6229	0.3565	0.6736	0.064
Mof_H 	H 	0.189	0.2277	0.5368	-0.07
Mof_H 	H 	0.3249	0.3105	0.4372	0.049
Mof_H 	H 	0.3517	0.352	0.4917	0.081
Mof_H 	H 	0.2592	0.3787	0.455	0.067
Mof_H 	H 	0.2839	0.1843	0.4334	0.049
Mof_H 	H 	0.1883	0.1646	0.4479	0.036
Mof_H 	H 	0.2802	0.1375	0.4851	0.055
Mof_H 	H 	0.325	0.4871	0.545	-0.079
Mof_H 	H 	0.4804	0.6622	0.623	0.052
Mof_H 	H 	0.4452	0.5886	0.6549	0.063
Mof_H 	H 	0.3767	0.6606	0.6285	0.053
Mof_H 	H 	0.5062	0.6281	0.5541	0.056
Mof_H 	H 	0.4202	0.604	0.5117	0.037
Mof_H 	H 	0.4885	0.531	0.5369	0.065
Mof_H 	H 	0.1358	0.5669	0.5725	-0.081
Mof_H 	H 	0.87	0.5597	0.5464	0.082
Mof_H 	H 	0.9207	0.5011	0.5914	0.075
Mof_H 	H 	0.9183	0.4733	0.5348	0.081
Mof_H 	H 	0.9299	0.6718	0.5367	0.082
Mof_H 	H 	0.0223	0.6688	0.5164	0.073
Mof_H 	H 	0.0242	0.6924	0.5736	0.062
Mof_H 	H 	0.2922	0.5688	0.6995	-0.088
Mof_H 	H 	0.1978	0.7362	0.7539	0.057
Mof_H 	H 	0.2678	0.727	0.7173	0.037
Mof_H 	H 	0.2862	0.6782	0.7699	0.038
Mof_H 	H 	0.0753	0.6686	0.7358	0.061
Mof_H 	H 	0.0847	0.5671	0.7395	0.079
Mof_H 	H 	0.0584	0.6122	0.6859	0.08
Mof_C 	C 	0.0499	0.3802	0.6905	0.283
Mof_C 	C 	0.9149	0.308	0.6583	-0.03
Mof_C 	C 	0.919	0.4126	0.7244	-0.166
Mof_C 	C 	0.3073	0.3497	0.75211	0.311
Mof_C 	C 	0.3721	0.307	0.83718	-0.196
Mof_C 	C 	0.418	0.2362	0.76464	-0.206
Mof_C 	C 	0.1849	0.1811	0.65317	0.319
Mof_C 	C 	0.2917	0.0801	0.6371	-0.176
Mof_C 	C 	0.181	0.042	0.6907	-0.187
Mof_C 	C 	0.4416	0.3406	0.6453	0.315
Mof_C 	C 	0.5033	0.2569	0.5868	-0.196
Mof_C 	C 	0.5995	0.2984	0.66715	-0.209
Mof_C 	C 	0.2161	0.2755	0.52422	0.287
Mof_C 	C 	0.3014	0.3317	0.46581	-0.196
Mof_C 	C 	0.2515	0.1806	0.46103	-0.184
Mof_C 	C 	0.3387	0.5188	0.5752	0.296
Mof_C 	C 	0.429	0.6253	0.6254	-0.174
Mof_C 	C 	0.4596	0.5849	0.5428	-0.186
Mof_C 	C 	0.0838	0.5324	0.57154	0.306
Mof_C 	C 	0.9218	0.5219	0.5577	-0.206
Mof_C 	C 	0.9945	0.6575	0.5452	-0.21
Mof_C 	C 	0.2295	0.5627	0.69918	0.296
Mof_C 	C 	0.2394	0.6973	0.7417	-0.186
Mof_C 	C 	0.0943	0.6175	0.72	-0.214
Mof_N 	N 	0.9675	0.363	0.69291	-0.161
Mof_N 	N 	0.3619	0.2994	0.78303	-0.141
Mof_N 	N 	0.2169	0.1049	0.66	-0.145
Mof_N 	N 	0.5112	0.3014	0.63398	-0.133
Mof_N 	N 	0.2544	0.2632	0.48591	-0.131
Mof_N 	N 	0.4062	0.5727	0.58076	-0.138
Mof_N 	N 	0.0049	0.5682	0.55848	-0.124
Mof_N 	N 	0.1897	0.6243	0.71819	-0.144
Mof_O 	O 	0.09493	0.34218	0.66278	-0.434
Mof_O 	O 	0.2999	0.3466	0.70635	-0.484
Mof_O 	O 	0.211	0.23615	0.62725	-0.458
Mof_O 	O 	0.36528	0.3437	0.61842	-0.442
Mof_O 	O 	0.21263	0.34586	0.54558	-0.439
Mof_O 	O 	0.29126	0.50626	0.60678	-0.454
Mof_O 	O 	0.09575	0.45615	0.58281	-0.449
Mof_O 	O 	0.1918	0.49647	0.68069	-0.443
Mof_Er	Er	0.78008	0.88373	0.87115	2.101
Mof_H 	H 	0.9208	0.9248	0.7888	-0.068
Mof_H 	H 	0.1425	0.89	0.7787	0.043
Mof_H 	H 	0.0839	0.9724	0.7862	0.041
Mof_H 	H 	0.049	0.9086	0.7406	0.033
Mof_H 	H 	0.7281	0.8901	0.7344	-0.091
Mof_H 	H 	0.5847	0.7641	0.6463	0.057
Mof_H 	H 	0.6867	0.7979	0.6536	0.051
Mof_H 	H 	0.6054	0.8641	0.6522	0.048
Mof_H 	H 	0.5457	0.7055	0.707	0.065
Mof_H 	H 	0.5418	0.7648	0.7542	0.071
Mof_H 	H 	0.6209	0.6958	0.7572	0.075
Mof_H 	H 	0.8629	0.696	0.8305	-0.077
Mof_H 	H 	0.6907	0.5212	0.8535	0.031
Mof_H 	H 	0.6567	0.6181	0.8512	0.058
Mof_H 	H 	0.7268	0.5842	0.8993	0.066
Mof_H 	H 	0.7855	0.4884	0.8089	0.05
Mof_H 	H 	0.8832	0.532	0.8233	0.06
Mof_H 	H 	0.8121	0.5636	0.775	0.049
Mof_H 	H 	0.5497	0.8688	0.8233	-0.105
Mof_H 	H 	0.4385	0.7308	0.9151	0.052
Mof_H 	H 	0.5141	0.7974	0.9408	0.073
Mof_H 	H 	0.5431	0.7124	0.9157	0.076
Mof_H 	H 	0.3587	0.7652	0.8486	0.063
Mof_H 	H 	0.406	0.7715	0.8012	0.065
Mof_H 	H 	0.3771	0.8565	0.8264	0.064
Mof_H 	H 	0.811	0.7277	0.9632	-0.07
Mof_H 	H 	0.6751	0.8105	0.0628	0.049
Mof_H 	H 	0.6483	0.852	0.0083	0.081
Mof_H 	H 	0.7408	0.8787	0.045	0.067
Mof_H 	H 	0.7161	0.6843	0.0666	0.049
Mof_H 	H 	0.8117	0.6646	0.0521	0.036
Mof_H 	H 	0.7198	0.6375	0.0149	0.055
Mof_H 	H 	0.675	0.9871	0.955	-0.079
Mof_H 	H 	0.5196	0.1622	0.877	0.052
Mof_H 	H 	0.5548	0.0886	0.8451	0.063
Mof_H 	H 	0.6233	0.1606	0.8715	0.053
Mof_H 	H 	0.4938	0.1281	0.9459	0.056
Mof_H 	H 	0.5798	0.104	0.9883	0.038
Mof_H 	H 	0.5115	0.031	0.9631	0.065
Mof_H 	H 	0.8642	0.0669	0.9275	-0.081
Mof_H 	H 	0.13	0.0597	0.9536	0.081
Mof_H 	H 	0.0793	0.0011	0.9086	0.074
Mof_H 	H 	0.0817	0.9733	0.9652	0.079
Mof_H 	H 	0.0701	0.1718	0.9633	0.083
Mof_H 	H 	0.9777	0.1688	0.9836	0.073
Mof_H 	H 	0.9758	0.1924	0.9264	0.062
Mof_H 	H 	0.7078	0.0688	0.8005	-0.088
Mof_H 	H 	0.8022	0.2362	0.7461	0.057
Mof_H 	H 	0.7322	0.227	0.7827	0.037
Mof_H 	H 	0.7138	0.1782	0.7301	0.038
Mof_H 	H 	0.9247	0.1686	0.7642	0.062
Mof_H 	H 	0.9153	0.0671	0.7605	0.079
Mof_H 	H 	0.9416	0.1122	0.8141	0.08
Mof_C 	C 	0.9501	0.8802	0.8095	0.284
Mof_C 	C 	0.0851	0.808	0.8417	-0.031
Mof_C 	C 	0.081	0.9126	0.7756	-0.166
Mof_C 	C 	0.6927	0.8497	0.74789	0.311
Mof_C 	C 	0.6279	0.807	0.66282	-0.196
Mof_C 	C 	0.582	0.7362	0.73536	-0.206
Mof_C 	C 	0.8151	0.6811	0.84683	0.319
Mof_C 	C 	0.7083	0.5801	0.8629	-0.176
Mof_C 	C 	0.819	0.542	0.8093	-0.189
Mof_C 	C 	0.5584	0.8406	0.8547	0.315
Mof_C 	C 	0.4967	0.7569	0.9132	-0.196
Mof_C 	C 	0.4005	0.7984	0.83285	-0.209
Mof_C 	C 	0.7839	0.7755	0.97578	0.287
Mof_C 	C 	0.6986	0.8317	0.03419	-0.196
Mof_C 	C 	0.7485	0.6806	0.03897	-0.184
Mof_C 	C 	0.6613	0.0188	0.9248	0.296
Mof_C 	C 	0.571	0.1253	0.8746	-0.174
Mof_C 	C 	0.5404	0.0849	0.9572	-0.186
Mof_C 	C 	0.9162	0.0324	0.92846	0.306
Mof_C 	C 	0.0782	0.0219	0.9423	-0.203
Mof_C 	C 	0.0055	0.1575	0.9548	-0.212
Mof_C 	C 	0.7705	0.0627	0.80082	0.295
Mof_C 	C 	0.7606	0.1973	0.7583	-0.186
Mof_C 	C 	0.9057	0.1175	0.78	-0.214
Mof_N 	N 	0.0325	0.863	0.80709	-0.162
Mof_N 	N 	0.6381	0.7994	0.71697	-0.141
Mof_N 	N 	0.7831	0.6049	0.84	-0.144
Mof_N 	N 	0.4888	0.8014	0.86602	-0.134
Mof_N 	N 	0.7456	0.7632	0.01409	-0.131
Mof_N 	N 	0.5938	0.0727	0.91924	-0.138
Mof_N 	N 	0.9951	0.0682	0.94152	-0.124
Mof_N 	N 	0.8103	0.1243	0.78181	-0.144
Mof_O 	O 	0.90507	0.84218	0.83722	-0.434
Mof_O 	O 	0.7001	0.8466	0.79365	-0.484
Mof_O 	O 	0.789	0.73615	0.87275	-0.458
Mof_O 	O 	0.63472	0.8437	0.88158	-0.442
Mof_O 	O 	0.78737	0.84586	0.95442	-0.439
Mof_O 	O 	0.70874	0.00626	0.89322	-0.454
Mof_O 	O 	0.90425	0.95615	0.91719	-0.449
Mof_O 	O 	0.8082	0.99647	0.81931	-0.443
Mof_Cu	Cu	0.23234	0.7999	0.62196	0.825
Mof_Cu	Cu	0.72727	0.5563	0.65726	0.826
Mof_Cu	Cu	0.9265	0.80874	0.66536	0.826
Mof_Cu	Cu	0.4698	0.9763	0.72561	0.827
Mof_Cu	Cu	0.73131	0.06474	0.6533	0.824
Mof_Cu	Cu	0.74503	0.31784	0.5425	0.826
Mof_Cu	Cu	0.76766	0.2999	0.87804	0.825
Mof_Cu	Cu	0.27273	0.0563	0.84274	0.827
Mof_Cu	Cu	0.0735	0.30874	0.83464	0.826
Mof_Cu	Cu	0.5302	0.4763	0.77439	0.827
Mof_Cu	Cu	0.26869	0.56474	0.8467	0.824
Mof_Cu	Cu	0.25497	0.81784	0.9575	0.826
Mof_Cu	Cu	0.76766	0.2001	0.37804	0.825
Mof_Cu	Cu	0.27273	0.4437	0.34274	0.826
Mof_Cu	Cu	0.0735	0.19126	0.33464	0.826
Mof_Cu	Cu	0.5302	0.0237	0.27439	0.827
Mof_Cu	Cu	0.26869	0.93526	0.3467	0.824
Mof_Cu	Cu	0.25497	0.68216	0.4575	0.826
Mof_Cu	Cu	0.23234	0.7001	0.12196	0.825
Mof_Cu	Cu	0.72727	0.9437	0.15726	0.827
Mof_Cu	Cu	0.9265	0.69126	0.16536	0.826
Mof_Cu	Cu	0.4698	0.5237	0.22561	0.827
Mof_Cu	Cu	0.73131	0.43526	0.1533	0.824
Mof_Cu	Cu	0.74503	0.18216	0.0425	0.826
Mof_C 	C 	0.0424	0.8119	0.6481	-0.218
Mof_C 	C 	0.8141	0.6447	0.66845	-0.216
Mof_C 	C 	0.3367	0.8477	0.66259	-0.229
Mof_C 	C 	0.64	0.5273	0.69583	-0.21
Mof_C 	C 	0.2402	0.7109	0.52206	-0.221
Mof_C 	C 	0.8629	0.9121	0.67209	-0.208
Mof_C 	C 	0.7278	0.4207	0.57571	-0.211
Mof_C 	C 	0.5685	0.0222	0.70194	-0.217
Mof_C 	C 	0.7395	0.1582	0.61066	-0.231
Mof_C 	C 	0.9576	0.3119	0.8519	-0.217
Mof_C 	C 	0.1859	0.1447	0.83155	-0.216
Mof_C 	C 	0.6633	0.3477	0.83741	-0.229
Mof_C 	C 	0.36	0.0273	0.80417	-0.21
Mof_C 	C 	0.7598	0.2109	0.97794	-0.22
Mof_C 	C 	0.1371	0.4121	0.82791	-0.208
Mof_C 	C 	0.2722	0.9207	0.92429	-0.211
Mof_C 	C 	0.4315	0.5222	0.79806	-0.218
Mof_C 	C 	0.2605	0.6582	0.88934	-0.231
Mof_C 	C 	0.9576	0.1881	0.3519	-0.218
Mof_C 	C 	0.1859	0.3553	0.33155	-0.216
Mof_C 	C 	0.6633	0.1523	0.33741	-0.229
Mof_C 	C 	0.36	0.4727	0.30417	-0.21
Mof_C 	C 	0.7598	0.2891	0.47794	-0.221
Mof_C 	C 	0.1371	0.0879	0.32791	-0.208
Mof_C 	C 	0.2722	0.5793	0.42429	-0.211
Mof_C 	C 	0.4315	0.9778	0.29806	-0.217
Mof_C 	C 	0.2605	0.8418	0.38934	-0.231
Mof_C 	C 	0.0424	0.6881	0.1481	-0.217
Mof_C 	C 	0.8141	0.8553	0.16845	-0.216
Mof_C 	C 	0.3367	0.6523	0.16259	-0.229
Mof_C 	C 	0.64	0.9727	0.19583	-0.21
Mof_C 	C 	0.2402	0.7891	0.02206	-0.22
Mof_C 	C 	0.8629	0.5879	0.17209	-0.208
Mof_C 	C 	0.7278	0.0793	0.07571	-0.211
Mof_C 	C 	0.5685	0.4778	0.20194	-0.218
Mof_C 	C 	0.7395	0.3418	0.11066	-0.231
Mof_N 	N 	0.1125	0.8124	0.63696	-0.21
Mof_N 	N 	0.862	0.7033	0.67151	-0.207
Mof_N 	N 	0.3964	0.8833	0.68747	-0.199
Mof_N 	N 	0.5918	0.5067	0.7216	-0.21
Mof_N 	N 	0.235	0.7374	0.56134	-0.21
Mof_N 	N 	0.8182	0.9726	0.66896	-0.211
Mof_N 	N 	0.7225	0.4789	0.6006	-0.206
Mof_N 	N 	0.6281	0.0459	0.68538	-0.205
Mof_N 	N 	0.7446	0.2164	0.58529	-0.206
Mof_N 	N 	0.8875	0.3124	0.86304	-0.21
Mof_N 	N 	0.138	0.2033	0.82849	-0.207
Mof_N 	N 	0.6036	0.3833	0.81253	-0.199
Mof_N 	N 	0.4082	0.0067	0.7784	-0.21
Mof_N 	N 	0.765	0.2374	0.93866	-0.21
Mof_N 	N 	0.1818	0.4726	0.83104	-0.211
Mof_N 	N 	0.2775	0.9789	0.8994	-0.206
Mof_N 	N 	0.3719	0.5459	0.81462	-0.205
Mof_N 	N 	0.2554	0.7164	0.91471	-0.206
Mof_N 	N 	0.8875	0.1876	0.36304	-0.21
Mof_N 	N 	0.138	0.2967	0.32849	-0.207
Mof_N 	N 	0.6036	0.1167	0.31253	-0.199
Mof_N 	N 	0.4082	0.4933	0.2784	-0.21
Mof_N 	N 	0.765	0.2626	0.43866	-0.21
Mof_N 	N 	0.1818	0.0274	0.33104	-0.211
Mof_N 	N 	0.2775	0.5211	0.3994	-0.206
Mof_N 	N 	0.3719	0.9541	0.31462	-0.205
Mof_N 	N 	0.2554	0.7836	0.41471	-0.206
Mof_N 	N 	0.1125	0.6876	0.13696	-0.21
Mof_N 	N 	0.862	0.7967	0.17151	-0.207
Mof_N 	N 	0.3964	0.6167	0.18747	-0.199
Mof_N 	N 	0.5918	0.9933	0.2216	-0.21
Mof_N 	N 	0.235	0.7626	0.06134	-0.21
Mof_N 	N 	0.8182	0.5274	0.16896	-0.211
Mof_N 	N 	0.7225	0.0211	0.1006	-0.206
Mof_N 	N 	0.6281	0.4541	0.18538	-0.205
Mof_N 	N 	0.7446	0.2836	0.08529	-0.206
_end
