data_functionalizedCrystal
_audit_creation_method	'EQeq! by Chris Wilmer'
_symmetry_space_group_name_H-M	'P1'
_symmetry_Int_Tables_number	1
_symmetry_cell_setting	triclinic
loop_
_symmetry_equiv_pos_as_xyz
  x,y,z
_cell_length_a	10.9453
_cell_length_b	11.4851
_cell_length_c	13.453
_cell_angle_alpha	69.539
_cell_angle_beta	80.095
_cell_angle_gamma	62.42
loop_
_atom_site_label
_atom_site_type_symbol
_atom_site_fract_x
_atom_site_fract_y
_atom_site_fract_z
_atom_site_charge
Mof_U 	U 	0.63266	0.70178	0.83352	-0.009
Mof_Ce	Ce	0.62199	0.21398	0.77513	1.806
Mof_O 	O 	0.8587	0.5287	0.9051	-0.209
Mof_O 	O 	0.7753	0.4842	0.7944	-0.227
Mof_O 	O 	0.8564	0.2059	0.7612	-0.509
Mof_O 	O 	0.9009	0.3553	0.6226	-0.241
Mof_O 	O 	0.4283	0.9081	0.8275	-0.233
Mof_O 	O 	0.5155	0.0605	0.7749	-0.46
Mof_O 	O 	0.4751	0.1741	0.9315	-0.485
Mof_O 	O 	0.3118	0.2146	0.0538	-0.234
Mof_O 	O 	0.5086	0.6914	0.7128	-0.219
Mof_O 	O 	0.4288	0.6982	0.5704	-0.294
Mof_O 	O 	0.7391	0.6297	0.5339	-0.207
Mof_O 	O 	0.8563	0.7513	0.4786	-0.204
Mof_C 	C 	0.0083	0.3359	0.8458	-0.036
Mof_C 	C 	0.118	0.3112	0.9049	-0.02
Mof_H 	H 	0.0997	0.3611	0.9515	0.066
Mof_C 	C 	0.251	0.2151	0.8952	-0.09
Mof_C 	C 	0.278	0.1367	0.8267	-0.087
Mof_C 	C 	0.1671	0.1553	0.7737	0.014
Mof_H 	H 	0.1833	0.0987	0.7329	0.041
Mof_C 	C 	0.0326	0.2568	0.7806	-0.074
Mof_C 	C 	0.6201	0.0011	0.4515	-0.01
Mof_H 	H 	0.7016	0.0026	0.4186	0.05
Mof_C 	C 	0.6181	0.8743	0.5036	-0.045
Mof_C 	C 	0.4946	0.8736	0.5534	-0.045
Mof_C 	C 	0.8727	0.4547	0.8487	0.277
Mof_C 	C 	0.3559	0.1985	0.9622	0.358
Mof_C 	C 	0.4191	0.0278	0.809	0.368
Mof_C 	C 	0.9211	0.2749	0.7171	0.385
Mof_C 	C 	0.4796	0.7447	0.6164	0.297
Mof_C 	C 	0.7422	0.7447	0.5078	0.274
Mof_U 	U 	0.36734	0.29822	0.16648	-0.008
Mof_Ce	Ce	0.37801	0.78602	0.22487	1.807
Mof_O 	O 	0.1413	0.4713	0.0949	-0.208
Mof_O 	O 	0.2247	0.5158	0.2056	-0.226
Mof_O 	O 	0.1436	0.7941	0.2388	-0.509
Mof_O 	O 	0.0991	0.6447	0.3774	-0.241
Mof_O 	O 	0.5717	0.0919	0.1725	-0.233
Mof_O 	O 	0.4845	0.9395	0.2251	-0.46
Mof_O 	O 	0.5249	0.8259	0.0685	-0.485
Mof_O 	O 	0.6882	0.7854	0.9462	-0.234
Mof_O 	O 	0.4914	0.3086	0.2872	-0.219
Mof_O 	O 	0.5712	0.3018	0.4296	-0.294
Mof_O 	O 	0.2609	0.3703	0.4661	-0.207
Mof_O 	O 	0.1437	0.2487	0.5214	-0.204
Mof_C 	C 	0.9917	0.6641	0.1542	-0.036
Mof_C 	C 	0.882	0.6888	0.0951	-0.02
Mof_H 	H 	0.9003	0.6389	0.0485	0.066
Mof_C 	C 	0.749	0.7849	0.1048	-0.09
Mof_C 	C 	0.722	0.8633	0.1733	-0.087
Mof_C 	C 	0.8329	0.8447	0.2263	0.014
Mof_H 	H 	0.8167	0.9013	0.2671	0.041
Mof_C 	C 	0.9674	0.7432	0.2194	-0.074
Mof_C 	C 	0.3799	0.9989	0.5485	-0.01
Mof_H 	H 	0.2984	0.9974	0.5814	0.05
Mof_C 	C 	0.3819	0.1257	0.4964	-0.045
Mof_C 	C 	0.5054	0.1264	0.4466	-0.045
Mof_C 	C 	0.1273	0.5453	0.1513	0.277
Mof_C 	C 	0.6441	0.8015	0.0378	0.358
Mof_C 	C 	0.5809	0.9722	0.191	0.368
Mof_C 	C 	0.0789	0.7251	0.2829	0.385
Mof_C 	C 	0.5204	0.2553	0.3836	0.297
Mof_C 	C 	0.2578	0.2553	0.4922	0.274
Mof_U 	U 	-6.07172e-17	0.5	0.5	0
_end
