data_functionalizedCrystal
_audit_creation_method	'EQeq! by Chris Wilmer'
_symmetry_space_group_name_H-M	'P1'
_symmetry_Int_Tables_number	1
_symmetry_cell_setting	triclinic
loop_
_symmetry_equiv_pos_as_xyz
  x,y,z
_cell_length_a	9.776
_cell_length_b	16.337
_cell_length_c	21.534
_cell_angle_alpha	103.82
_cell_angle_beta	100.74
_cell_angle_gamma	95.87
loop_
_atom_site_label
_atom_site_type_symbol
_atom_site_fract_x
_atom_site_fract_y
_atom_site_fract_z
_atom_site_charge
Mof_La	La	0.27874	0.52002	0.99834	2.172
Mof_I 	I 	0.76244	0.99304	0.49955	-0.72
Mof_I 	I 	0.98235	0.77672	0.46579	-0.616
Mof_I 	I 	0.08137	0.97505	0.66816	-0.607
Mof_I 	I 	0.69872	0.7822	0.60712	-0.594
Mof_Cu	Cu	0.01122	0.94095	0.53717	0.699
Mof_Cu	Cu	0.7515	0.82579	0.49858	0.733
Mof_Cu	Cu	0.81525	0.94112	0.61767	0.733
Mof_Cu	Cu	0.95984	0.81265	0.59212	0.723
Mof_O 	O 	0.1702	0.5549	0.0942	-0.549
Mof_O 	O 	0.949	0.4897	0.0762	-0.59
Mof_O 	O 	0.5415	0.3641	0.9268	-0.529
Mof_O 	O 	0.3279	0.4018	0.915	-0.555
Mof_O 	O 	0.353	0.5879	0.9153	-0.517
Mof_O 	O 	0.5615	0.5475	0.9356	-0.589
Mof_N 	N 	0.5757	0.7628	0.4308	-0.246
Mof_N 	N 	0.703	0.0212	0.6643	-0.256
Mof_N 	N 	0.0958	0.7473	0.6334	-0.259
Mof_C 	C 	0.4516	0.7865	0.4353	0.106
Mof_H 	H 	0.4479	0.8343	0.4683	-0.014
Mof_C 	C 	0.3268	0.7428	0.3927	-0.184
Mof_H 	H 	0.2415	0.7608	0.3981	0.112
Mof_C 	C 	0.329	0.6738	0.343	0.126
Mof_C 	C 	0.4598	0.6494	0.3371	-0.172
Mof_H 	H 	0.4665	0.6035	0.3032	0.094
Mof_C 	C 	0.58	0.6949	0.3826	0.093
Mof_H 	H 	0.6666	0.6774	0.3794	-0.014
Mof_C 	C 	0.1993	0.6262	0.2968	-0.07
Mof_C 	C 	0.1892	0.6009	0.2287	0.041
Mof_H 	H 	0.267	0.6152	0.2121	0.02
Mof_C 	C 	0.0669	0.5554	0.1855	-0.175
Mof_C 	C 	0.9492	0.5326	0.2095	0.061
Mof_H 	H 	0.8677	0.5007	0.1808	0.008
Mof_C 	C 	0.9545	0.5577	0.276	-0.11
Mof_H 	H 	0.8766	0.5429	0.2923	0.07
Mof_C 	C 	0.0756	0.6047	0.3179	0.003
Mof_H 	H 	0.076	0.6231	0.3622	0.045
Mof_C 	C 	0.0581	0.531	0.1123	0.49
Mof_C 	C 	0.7526	0.0971	0.7071	0.111
Mof_H 	H 	0.85	0.1128	0.7195	-0.022
Mof_C 	C 	0.6729	0.1533	0.7342	-0.192
Mof_H 	H 	0.716	0.2043	0.7646	0.096
Mof_C 	C 	0.5265	0.1342	0.7163	0.141
Mof_C 	C 	0.4732	0.0541	0.6721	-0.192
Mof_H 	H 	0.3764	0.0363	0.6589	0.114
Mof_C 	C 	0.5634	0.0022	0.6485	0.115
Mof_H 	H 	0.524	0.9498	0.6192	-0.024
Mof_C 	C 	0.4301	0.1913	0.7425	-0.099
Mof_C 	C 	0.4695	0.2476	0.803	0.084
Mof_H 	H 	0.5594	0.2512	0.8282	0.004
Mof_C 	C 	0.3768	0.3	0.8278	-0.209
Mof_C 	C 	0.245	0.2944	0.7906	0.105
Mof_H 	H 	0.1824	0.3285	0.8069	-0.004
Mof_C 	C 	0.2033	0.2372	0.7276	-0.154
Mof_H 	H 	0.1139	0.2334	0.702	0.089
Mof_C 	C 	0.2962	0.1878	0.705	0.061
Mof_H 	H 	0.2696	0.1504	0.6633	-0
Mof_C 	C 	0.4164	0.3592	0.8936	0.499
Mof_C 	C 	0.2297	0.7609	0.6304	0.111
Mof_H 	H 	0.2547	0.7957	0.6046	-0.027
Mof_C 	C 	0.3358	0.7264	0.6635	-0.187
Mof_H 	H 	0.4281	0.7378	0.659	0.114
Mof_C 	C 	0.3029	0.6743	0.7036	0.132
Mof_C 	C 	0.1614	0.6621	0.7052	-0.193
Mof_H 	H 	0.1315	0.6284	0.7309	0.096
Mof_C 	C 	0.0651	0.6977	0.6706	0.117
Mof_H 	H 	0.9715	0.6864	0.6732	-0.026
Mof_C 	C 	0.4117	0.6394	0.7419	-0.081
Mof_C 	C 	0.3944	0.623	0.8012	0.059
Mof_H 	H 	0.3125	0.6341	0.8156	0.018
Mof_C 	C 	0.4938	0.5911	0.8389	-0.189
Mof_C 	C 	0.6167	0.5758	0.8178	0.078
Mof_H 	H 	0.6883	0.5579	0.8439	-0.009
Mof_C 	C 	0.6327	0.5877	0.7564	-0.125
Mof_H 	H 	0.7119	0.5735	0.7407	0.075
Mof_C 	C 	0.5316	0.6202	0.7198	0.02
Mof_H 	H 	0.544	0.6292	0.68	0.033
Mof_C 	C 	0.4688	0.5737	0.9011	0.496
Mof_La	La	0.72126	0.47998	0.00166	2.173
Mof_I 	I 	0.23756	0.00696	0.50045	-0.719
Mof_I 	I 	0.01765	0.22328	0.53421	-0.615
Mof_I 	I 	0.91863	0.02495	0.33184	-0.606
Mof_I 	I 	0.30128	0.2178	0.39288	-0.594
Mof_Cu	Cu	0.98878	0.05905	0.46283	0.699
Mof_Cu	Cu	0.2485	0.17421	0.50142	0.733
Mof_Cu	Cu	0.18475	0.05888	0.38233	0.733
Mof_Cu	Cu	0.04016	0.18735	0.40788	0.723
Mof_O 	O 	0.8298	0.4451	0.9058	-0.549
Mof_O 	O 	0.051	0.5103	0.9238	-0.59
Mof_O 	O 	0.4585	0.6359	0.0732	-0.529
Mof_O 	O 	0.6721	0.5982	0.085	-0.555
Mof_O 	O 	0.647	0.4121	0.0847	-0.517
Mof_O 	O 	0.4385	0.4525	0.0644	-0.589
Mof_N 	N 	0.4243	0.2372	0.5692	-0.246
Mof_N 	N 	0.297	0.9788	0.3357	-0.256
Mof_N 	N 	0.9042	0.2527	0.3666	-0.259
Mof_C 	C 	0.5484	0.2135	0.5647	0.106
Mof_H 	H 	0.5521	0.1657	0.5317	-0.014
Mof_C 	C 	0.6732	0.2572	0.6073	-0.184
Mof_H 	H 	0.7585	0.2392	0.6019	0.112
Mof_C 	C 	0.671	0.3262	0.657	0.126
Mof_C 	C 	0.5402	0.3506	0.6629	-0.172
Mof_H 	H 	0.5335	0.3965	0.6968	0.094
Mof_C 	C 	0.42	0.3051	0.6174	0.093
Mof_H 	H 	0.3334	0.3226	0.6206	-0.014
Mof_C 	C 	0.8007	0.3738	0.7032	-0.07
Mof_C 	C 	0.8108	0.3991	0.7713	0.041
Mof_H 	H 	0.733	0.3848	0.7879	0.02
Mof_C 	C 	0.9331	0.4446	0.8145	-0.175
Mof_C 	C 	0.0508	0.4674	0.7905	0.061
Mof_H 	H 	0.1323	0.4993	0.8192	0.008
Mof_C 	C 	0.0455	0.4423	0.724	-0.11
Mof_H 	H 	0.1234	0.4571	0.7077	0.07
Mof_C 	C 	0.9244	0.3953	0.6821	0.003
Mof_H 	H 	0.924	0.3769	0.6378	0.045
Mof_C 	C 	0.9419	0.469	0.8877	0.49
Mof_C 	C 	0.2474	0.9029	0.2929	0.111
Mof_H 	H 	0.15	0.8872	0.2805	-0.022
Mof_C 	C 	0.3271	0.8467	0.2658	-0.192
Mof_H 	H 	0.284	0.7957	0.2354	0.096
Mof_C 	C 	0.4735	0.8658	0.2837	0.141
Mof_C 	C 	0.5268	0.9459	0.3279	-0.192
Mof_H 	H 	0.6236	0.9637	0.3411	0.114
Mof_C 	C 	0.4366	0.9978	0.3515	0.115
Mof_H 	H 	0.476	0.0502	0.3808	-0.024
Mof_C 	C 	0.5699	0.8087	0.2575	-0.099
Mof_C 	C 	0.5305	0.7524	0.197	0.084
Mof_H 	H 	0.4406	0.7488	0.1718	0.004
Mof_C 	C 	0.6232	0.7	0.1722	-0.209
Mof_C 	C 	0.755	0.7056	0.2094	0.105
Mof_H 	H 	0.8176	0.6715	0.1931	-0.004
Mof_C 	C 	0.7967	0.7628	0.2724	-0.154
Mof_H 	H 	0.8861	0.7666	0.298	0.089
Mof_C 	C 	0.7038	0.8122	0.295	0.061
Mof_H 	H 	0.7304	0.8496	0.3367	-0
Mof_C 	C 	0.5836	0.6408	0.1064	0.499
Mof_C 	C 	0.7703	0.2391	0.3696	0.111
Mof_H 	H 	0.7453	0.2043	0.3954	-0.027
Mof_C 	C 	0.6642	0.2736	0.3365	-0.187
Mof_H 	H 	0.5719	0.2622	0.341	0.114
Mof_C 	C 	0.6971	0.3257	0.2964	0.132
Mof_C 	C 	0.8386	0.3379	0.2948	-0.193
Mof_H 	H 	0.8685	0.3716	0.2691	0.096
Mof_C 	C 	0.9349	0.3023	0.3294	0.117
Mof_H 	H 	0.0285	0.3136	0.3268	-0.026
Mof_C 	C 	0.5883	0.3606	0.2581	-0.081
Mof_C 	C 	0.6056	0.377	0.1988	0.059
Mof_H 	H 	0.6875	0.3659	0.1844	0.018
Mof_C 	C 	0.5062	0.4089	0.1611	-0.189
Mof_C 	C 	0.3833	0.4242	0.1822	0.078
Mof_H 	H 	0.3117	0.4421	0.1561	-0.009
Mof_C 	C 	0.3673	0.4123	0.2436	-0.125
Mof_H 	H 	0.2881	0.4265	0.2593	0.075
Mof_C 	C 	0.4684	0.3798	0.2802	0.02
Mof_H 	H 	0.456	0.3708	0.32	0.033
Mof_C 	C 	0.5312	0.4263	0.0989	0.496
_end
