data_functionalizedCrystal
_audit_creation_method	'EQeq! by Chris Wilmer'
_symmetry_space_group_name_H-M	'P1'
_symmetry_Int_Tables_number	1
_symmetry_cell_setting	triclinic
loop_
_symmetry_equiv_pos_as_xyz
  x,y,z
_cell_length_a	4.3536
_cell_length_b	12.9002
_cell_length_c	12.9002
_cell_angle_alpha	61.2481
_cell_angle_beta	83.5409
_cell_angle_gamma	96.4591
loop_
_atom_site_label
_atom_site_type_symbol
_atom_site_fract_x
_atom_site_fract_y
_atom_site_fract_z
_atom_site_charge
Mof_Co	Co	0.69991	0.16257	0.83834	1.123
Mof_Co	Co	0.53825	0.83834	0.99909	1.035
Mof_Co	Co	0.53734	0.99909	0.16257	1.06
Mof_P 	P 	0.06203	0	-0	0.66
Mof_H 	H 	0.9852	0.4476	0.6962	-0.002
Mof_H 	H 	0.9379	0.6112	0.525	0.067
Mof_H 	H 	0.443	0.2376	0.6221	-0.005
Mof_H 	H 	0.3887	0.3973	0.4404	0.079
Mof_H 	H 	0.6814	0.6962	0.8562	-0.011
Mof_H 	H 	0.4629	0.525	0.8638	0.12
Mof_H 	H 	0.0651	0.6221	0.1403	-0.024
Mof_H 	H 	0.8291	0.4404	0.1623	0.111
Mof_H 	H 	0.5376	0.8562	0.4476	-0.001
Mof_H 	H 	0.3267	0.8638	0.6112	0.11
Mof_H 	H 	0.2054	0.1403	0.2376	-0.007
Mof_H 	H 	0.9914	0.1623	0.3973	0.082
Mof_C 	C 	0.6436	0.5292	0.4691	0.042
Mof_C 	C 	0.5977	0.6365	0.3634	0.093
Mof_C 	C 	0.8575	0.4378	0.6453	0.053
Mof_C 	C 	0.8254	0.5346	0.5444	-0.115
Mof_C 	C 	0.5445	0.3159	0.6014	0.07
Mof_C 	C 	0.5016	0.4096	0.4938	-0.115
Mof_C 	C 	0.1127	0.4691	0.0017	0.25
Mof_C 	C 	0.9611	0.3634	0.0001	0.147
Mof_C 	C 	0.5028	0.6453	0.9169	0.02
Mof_C 	C 	0.3698	0.5444	0.921	-0.334
Mof_C 	C 	0.1459	0.6014	0.0827	0.154
Mof_C 	C 	0.9954	0.4938	0.0966	-0.209
Mof_C 	C 	0.1144	0.0017	0.5292	0.212
Mof_C 	C 	0.9612	0.0001	0.6365	0.158
Mof_C 	C 	0.4197	0.9169	0.4378	0.005
Mof_C 	C 	0.2908	0.921	0.5346	-0.306
Mof_C 	C 	0.2286	0.0827	0.3159	0.111
Mof_C 	C 	0.092	0.0966	0.4096	-0.139
Mof_N 	N 	0.7065	0.3228	0.6767	-0.246
Mof_N 	N 	0.5214	0.7518	0.1868	-0.161
Mof_N 	N 	0.5363	0.813	0.2459	-0.19
Mof_N 	N 	0.5592	0.6392	0.2584	-0.096
Mof_N 	N 	0.576	0.7408	0.357	-0.113
Mof_N 	N 	0.3832	0.6767	0.0005	-0.188
Mof_N 	N 	0.7082	0.1868	0.0614	-0.102
Mof_N 	N 	0.7822	0.2459	0.9411	-0.229
Mof_N 	N 	0.8176	0.2584	0.1024	-0.097
Mof_N 	N 	0.933	0.357	0.9022	-0.165
Mof_N 	N 	0.3837	0.0005	0.3228	-0.176
Mof_N 	N 	0.7696	0.0614	0.7518	-0.124
Mof_N 	N 	0.7233	0.9411	0.813	-0.253
Mof_N 	N 	0.92	0.1024	0.6392	-0.104
Mof_N 	N 	0.8352	0.9022	0.7408	-0.175
Mof_O 	O 	0.2261	0.1147	0.8853	-0.585
Mof_O 	O 	0.1114	0.8853	-0	-0.532
Mof_O 	O 	0.1114	0	0.1147	-0.449
Mof_O 	O 	0.69973	0	-0	-0.509
_end
