data_functionalizedCrystal
_audit_creation_method	'EQeq! by Chris Wilmer'
_symmetry_space_group_name_H-M	'P1'
_symmetry_Int_Tables_number	1
_symmetry_cell_setting	triclinic
loop_
_symmetry_equiv_pos_as_xyz
  x,y,z
_cell_length_a	8.629
_cell_length_b	9.8397
_cell_length_c	24.95
_cell_angle_alpha	90.512
_cell_angle_beta	90
_cell_angle_gamma	90
loop_
_atom_site_label
_atom_site_type_symbol
_atom_site_fract_x
_atom_site_fract_y
_atom_site_fract_z
_atom_site_charge
Mof_Zn	Zn	0.20058	0.68731	0.39875	1.179
Mof_Zn	Zn	0.31487	0.76706	0.07862	1.199
Mof_Zn	Zn	0.70058	0.81269	0.10125	1.18
Mof_Zn	Zn	0.81487	0.73294	0.42138	1.206
Mof_Zn	Zn	0.79942	0.31269	0.60125	1.178
Mof_Zn	Zn	0.68513	0.23294	0.92138	1.204
Mof_Zn	Zn	0.29942	0.18731	0.89875	1.176
Mof_Zn	Zn	0.18513	0.26706	0.57862	1.195
Mof_Zn	Zn	0.5	0	-0	1.203
Mof_Zn	Zn	1.14512e-32	0.5	0.5	1.218
Mof_H 	H 	0.2655	0.3104	0.0709	0.043
Mof_H 	H 	0.9724	0.4583	0.1823	0.121
Mof_H 	H 	0.0219	0.0534	0.1647	0.062
Mof_H 	H 	0.7945	0.1459	0.2151	0.128
Mof_H 	H 	0.7882	0.3027	0.227	0.136
Mof_H 	H 	0.958	0.3961	0.2989	0.073
Mof_H 	H 	0.1429	0.147	0.4068	0.019
Mof_H 	H 	0.9322	0.996	0.2741	0.105
Mof_H 	H 	0.5303	0.7578	0.0197	0.252
Mof_H 	H 	0.7655	0.1896	0.4291	0.026
Mof_H 	H 	0.4724	0.0417	0.3177	0.054
Mof_H 	H 	0.5219	0.4466	0.3353	0.052
Mof_H 	H 	0.2945	0.3541	0.2849	0.116
Mof_H 	H 	0.2882	0.1973	0.273	0.116
Mof_H 	H 	0.458	0.1039	0.2011	0.073
Mof_H 	H 	0.6429	0.353	0.0932	0.039
Mof_H 	H 	0.4322	0.504	0.2259	0.076
Mof_H 	H 	0.0303	0.7422	0.4803	0.265
Mof_H 	H 	0.7345	0.6896	0.9291	0.026
Mof_H 	H 	0.0276	0.5417	0.8177	0.013
Mof_H 	H 	0.9781	0.9466	0.8353	0.043
Mof_H 	H 	0.2055	0.8541	0.7849	0.112
Mof_H 	H 	0.2118	0.6973	0.773	0.109
Mof_H 	H 	0.042	0.6039	0.7011	0.088
Mof_H 	H 	0.8571	0.853	0.5932	0.062
Mof_H 	H 	0.0678	0.004	0.7259	0.038
Mof_H 	H 	0.4697	0.2422	0.9803	0.28
Mof_H 	H 	0.2345	0.8104	0.5709	0.046
Mof_H 	H 	0.5276	0.9583	0.6823	0.092
Mof_H 	H 	0.4781	0.5534	0.6647	0.059
Mof_H 	H 	0.7055	0.6459	0.7151	0.128
Mof_H 	H 	0.7118	0.8027	0.727	0.134
Mof_H 	H 	0.542	0.8961	0.7989	0.089
Mof_H 	H 	0.3571	0.647	0.9068	0.045
Mof_H 	H 	0.5678	0.496	0.7741	0.076
Mof_H 	H 	0.9697	0.2578	0.5197	0.267
Mof_C 	C 	0.1555	0.1604	0.11456	-0.036
Mof_C 	C 	0.1962	0.2956	0.0988	-0.052
Mof_C 	C 	0.1288	0.4044	0.12666	-0.006
Mof_C 	C 	0.0184	0.384	0.16537	-0.196
Mof_C 	C 	0.9737	0.2492	0.17986	0.189
Mof_C 	C 	0.0467	0.1415	0.15453	-0.164
Mof_C 	C 	0.8569	0.2249	0.22408	-0.333
Mof_C 	C 	0.9375	0.2023	0.27785	0.12
Mof_C 	C 	0.9806	0.3083	0.30991	-0.056
Mof_C 	C 	0.0563	0.2911	0.358	-0.112
Mof_C 	C 	0.0906	0.1605	0.37467	0.027
Mof_C 	C 	0.0461	0.0492	0.34305	-0.107
Mof_C 	C 	0.9658	0.0697	0.29456	-0.107
Mof_C 	C 	0.2376	0.0407	0.08918	0.305
Mof_C 	C 	0.1755	0.547	0.11255	0.293
Mof_C 	C 	0.1057	0.4122	0.39147	0.382
Mof_C 	C 	0.0831	0.9092	0.36196	0.348
Mof_C 	C 	0.6555	0.3396	0.38544	-0.087
Mof_C 	C 	0.6962	0.2044	0.4012	0.015
Mof_C 	C 	0.6288	0.0956	0.37334	-0.096
Mof_C 	C 	0.5184	0.116	0.33463	-0.067
Mof_C 	C 	0.4737	0.2508	0.32014	0.088
Mof_C 	C 	0.5467	0.3585	0.34547	-0.074
Mof_C 	C 	0.3569	0.2751	0.27592	-0.28
Mof_C 	C 	0.4375	0.2977	0.22215	0.114
Mof_C 	C 	0.4806	0.1917	0.19009	-0.1
Mof_C 	C 	0.5563	0.2089	0.142	-0.061
Mof_C 	C 	0.5906	0.3395	0.12533	-0.013
Mof_C 	C 	0.5461	0.4508	0.15695	-0.043
Mof_C 	C 	0.4658	0.4303	0.20544	-0.1
Mof_C 	C 	0.7376	0.4593	0.41082	0.37
Mof_C 	C 	0.6755	0.953	0.38745	0.352
Mof_C 	C 	0.6057	0.0878	0.10853	0.333
Mof_C 	C 	0.5831	0.5908	0.13804	0.306
Mof_C 	C 	0.8445	0.8396	0.88544	-0.121
Mof_C 	C 	0.8038	0.7044	0.9012	0.046
Mof_C 	C 	0.8712	0.5956	0.87334	-0.108
Mof_C 	C 	0.9816	0.616	0.83463	0.038
Mof_C 	C 	0.0263	0.7508	0.82014	0
Mof_C 	C 	0.9533	0.8585	0.84547	0.005
Mof_C 	C 	0.1431	0.7751	0.77592	-0.241
Mof_C 	C 	0.0625	0.7977	0.72215	0.112
Mof_C 	C 	0.0194	0.6917	0.69009	-0.143
Mof_C 	C 	0.9437	0.7089	0.642	-0.017
Mof_C 	C 	0.9094	0.8395	0.62533	-0.045
Mof_C 	C 	0.9539	0.9508	0.65695	0.015
Mof_C 	C 	0.0342	0.9303	0.70544	-0.088
Mof_C 	C 	0.7624	0.9593	0.91082	0.419
Mof_C 	C 	0.8245	0.453	0.88745	0.338
Mof_C 	C 	0.8943	0.5878	0.60853	0.357
Mof_C 	C 	0.9169	0.0908	0.63804	0.271
Mof_C 	C 	0.3445	0.6604	0.61456	-0.064
Mof_C 	C 	0.3038	0.7956	0.5988	-0.031
Mof_C 	C 	0.3712	0.9044	0.62666	-0.006
Mof_C 	C 	0.4816	0.884	0.66537	-0.118
Mof_C 	C 	0.5263	0.7492	0.67986	0.122
Mof_C 	C 	0.4533	0.6415	0.65453	-0.101
Mof_C 	C 	0.6431	0.7249	0.72408	-0.308
Mof_C 	C 	0.5625	0.7023	0.77785	0.126
Mof_C 	C 	0.5194	0.8083	0.80991	-0.099
Mof_C 	C 	0.4437	0.7911	0.858	-0.069
Mof_C 	C 	0.4094	0.6605	0.87467	-0.008
Mof_C 	C 	0.4539	0.5492	0.84305	-0.041
Mof_C 	C 	0.5342	0.5697	0.79456	-0.105
Mof_C 	C 	0.2624	0.5407	0.58918	0.359
Mof_C 	C 	0.3245	0.047	0.61255	0.274
Mof_C 	C 	0.3943	0.9122	0.89147	0.404
Mof_C 	C 	0.4169	0.4092	0.86196	0.305
Mof_O 	O 	0.2378	0.9333	0.11345	-0.459
Mof_O 	O 	0.2925	0.0604	0.04199	-0.496
Mof_O 	O 	0.2908	0.5655	0.08047	-0.456
Mof_O 	O 	0.1166	0.6451	0.13418	-0.373
Mof_O 	O 	0.123	0.5216	0.3652	-0.509
Mof_O 	O 	0.131	0.3978	0.43934	-0.505
Mof_O 	O 	0.1856	0.8957	0.39816	-0.458
Mof_O 	O 	0.011	0.8098	0.34484	-0.425
Mof_O 	O 	0.5112	0.8198	0.04252	-0.84
Mof_O 	O 	0.7378	0.5667	0.38655	-0.493
Mof_O 	O 	0.7925	0.4396	0.45801	-0.477
Mof_O 	O 	0.7908	0.9345	0.41953	-0.442
Mof_O 	O 	0.6166	0.8549	0.36582	-0.372
Mof_O 	O 	0.623	0.9784	0.1348	-0.465
Mof_O 	O 	0.631	0.1022	0.06066	-0.505
Mof_O 	O 	0.6856	0.6043	0.10184	-0.46
Mof_O 	O 	0.511	0.6902	0.15516	-0.407
Mof_O 	O 	0.0112	0.6802	0.45748	-0.857
Mof_O 	O 	0.7622	0.0667	0.88655	-0.531
Mof_O 	O 	0.7075	0.9396	0.95801	-0.461
Mof_O 	O 	0.7092	0.4345	0.91953	-0.449
Mof_O 	O 	0.8834	0.3549	0.86582	-0.371
Mof_O 	O 	0.877	0.4784	0.6348	-0.493
Mof_O 	O 	0.869	0.6022	0.56066	-0.483
Mof_O 	O 	0.8144	0.1043	0.60184	-0.459
Mof_O 	O 	0.989	0.1902	0.65516	-0.391
Mof_O 	O 	0.4888	0.1802	0.95748	-0.847
Mof_O 	O 	0.2622	0.4333	0.61345	-0.504
Mof_O 	O 	0.2075	0.5604	0.54199	-0.486
Mof_O 	O 	0.2092	0.0655	0.58047	-0.465
Mof_O 	O 	0.3834	0.1451	0.63418	-0.373
Mof_O 	O 	0.377	0.0216	0.8652	-0.537
Mof_O 	O 	0.369	0.8978	0.93934	-0.478
Mof_O 	O 	0.3144	0.3957	0.89816	-0.457
Mof_O 	O 	0.489	0.3098	0.84484	-0.412
Mof_O 	O 	0.9888	0.3198	0.54252	-0.835
_end
