data_functionalizedCrystal
_audit_creation_method	'EQeq! by Chris Wilmer'
_symmetry_space_group_name_H-M	'P1'
_symmetry_Int_Tables_number	1
_symmetry_cell_setting	triclinic
loop_
_symmetry_equiv_pos_as_xyz
  x,y,z
_cell_length_a	10.833
_cell_length_b	14.17
_cell_length_c	14.4
_cell_angle_alpha	100.519
_cell_angle_beta	90
_cell_angle_gamma	90
loop_
_atom_site_label
_atom_site_type_symbol
_atom_site_fract_x
_atom_site_fract_y
_atom_site_fract_z
_atom_site_charge
Mof_Co	Co	0.71144	0.82061	0.69934	1.175
Mof_Co	Co	0.21144	0.67939	0.80066	1.171
Mof_Co	Co	0.28856	0.17939	0.30066	1.171
Mof_Co	Co	0.78856	0.32061	0.19934	1.174
Mof_Co	Co	0.5	0.5	0.5	1.212
Mof_Co	Co	-0	0	-0	1.152
Mof_H 	H 	0.6666	0.2145	0.4946	0.08
Mof_H 	H 	0.8488	0.0131	0.3097	0.072
Mof_H 	H 	0.5889	0.0915	0.5461	0.08
Mof_H 	H 	0.903	0.9555	0.4394	0.081
Mof_H 	H 	0.1666	0.2855	0.0054	0.055
Mof_H 	H 	0.3488	0.4869	0.1903	0.077
Mof_H 	H 	0.0889	0.4085	0.9539	0.059
Mof_H 	H 	0.403	0.5445	0.0606	0.077
Mof_H 	H 	0.3334	0.7855	0.5054	0.073
Mof_H 	H 	0.1512	0.9869	0.6903	0.085
Mof_H 	H 	0.4111	0.9085	0.4539	0.065
Mof_H 	H 	0.097	0.0445	0.5606	0.065
Mof_H 	H 	0.8334	0.7145	0.9946	0.097
Mof_H 	H 	0.6512	0.5131	0.8097	0.079
Mof_H 	H 	0.9111	0.5915	0.0461	0.087
Mof_H 	H 	0.597	0.4555	0.9394	0.068
Mof_C 	C 	0.7219	0.256	0.3747	0.003
Mof_C 	C 	0.7094	0.1948	0.4368	-0.048
Mof_C 	C 	0.7596	0.1034	0.415	0.052
Mof_C 	C 	0.8172	0.0764	0.3277	-0.051
Mof_C 	C 	0.8286	0.1406	0.2681	0.007
Mof_C 	C 	0.8811	0.122	0.1709	0.317
Mof_C 	C 	0.6775	0.3591	0.3878	0.345
Mof_C 	C 	0.6382	0.9782	0.6061	0.036
Mof_C 	C 	0.6487	0.0422	0.5449	-0.094
Mof_C 	C 	0.7471	0.0348	0.4812	0.009
Mof_C 	C 	0.8346	0.9621	0.4813	-0.002
Mof_C 	C 	0.8185	0.9002	0.5441	0.002
Mof_C 	C 	0.8987	0.8148	0.5521	0.306
Mof_C 	C 	0.5401	0.9774	0.6797	0.344
Mof_C 	C 	0.2219	0.244	0.1253	-0.018
Mof_C 	C 	0.2094	0.3052	0.0632	-0.05
Mof_C 	C 	0.2596	0.3966	0.085	0.039
Mof_C 	C 	0.3172	0.4236	0.1723	-0.05
Mof_C 	C 	0.3286	0.3594	0.2319	-0.002
Mof_C 	C 	0.3811	0.378	0.3291	0.314
Mof_C 	C 	0.1775	0.1409	0.1122	0.345
Mof_C 	C 	0.1382	0.5218	0.8939	0.001
Mof_C 	C 	0.1487	0.4578	0.9551	-0.012
Mof_C 	C 	0.2471	0.4652	0.0188	0.004
Mof_C 	C 	0.3346	0.5379	0.0187	-0.095
Mof_C 	C 	0.3185	0.5998	0.9559	0.033
Mof_C 	C 	0.3987	0.6852	0.9479	0.343
Mof_C 	C 	0.0401	0.5226	0.8203	0.237
Mof_C 	C 	0.2781	0.744	0.6253	-0.007
Mof_C 	C 	0.2906	0.8052	0.5632	-0.043
Mof_C 	C 	0.2404	0.8966	0.585	0.031
Mof_C 	C 	0.1828	0.9236	0.6723	-0.042
Mof_C 	C 	0.1714	0.8594	0.7319	-0.001
Mof_C 	C 	0.1189	0.878	0.8291	0.31
Mof_C 	C 	0.3225	0.6409	0.6122	0.343
Mof_C 	C 	0.3618	0.0218	0.3939	-0.038
Mof_C 	C 	0.3513	0.9578	0.4551	-0.013
Mof_C 	C 	0.2529	0.9652	0.5188	0.079
Mof_C 	C 	0.1654	0.0379	0.5187	-0.115
Mof_C 	C 	0.1815	0.0998	0.4559	0.001
Mof_C 	C 	0.1013	0.1852	0.4479	0.299
Mof_C 	C 	0.4599	0.0226	0.3203	0.254
Mof_C 	C 	0.7781	0.756	0.8747	0.015
Mof_C 	C 	0.7906	0.6948	0.9368	-0.042
Mof_C 	C 	0.7404	0.6034	0.915	0.046
Mof_C 	C 	0.6828	0.5764	0.8277	-0.043
Mof_C 	C 	0.6714	0.6406	0.7681	0.006
Mof_C 	C 	0.6189	0.622	0.6709	0.316
Mof_C 	C 	0.8225	0.8591	0.8878	0.338
Mof_C 	C 	0.8618	0.4782	0.1061	-0.001
Mof_C 	C 	0.8513	0.5422	0.0449	-0.096
Mof_C 	C 	0.7529	0.5348	0.9812	0.077
Mof_C 	C 	0.6654	0.4621	0.9813	-0.015
Mof_C 	C 	0.6815	0.4002	0.0441	-0.03
Mof_C 	C 	0.6013	0.3148	0.0521	0.259
Mof_C 	C 	0.9599	0.4774	0.1797	0.365
Mof_N 	N 	0.723	0.9084	0.6048	-0.209
Mof_N 	N 	0.7797	0.2291	0.291	-0.203
Mof_N 	N 	0.223	0.5916	0.8952	-0.211
Mof_N 	N 	0.2797	0.2709	0.209	-0.204
Mof_N 	N 	0.277	0.0916	0.3952	-0.208
Mof_N 	N 	0.2203	0.7709	0.709	-0.204
Mof_N 	N 	0.777	0.4084	0.1048	-0.205
Mof_N 	N 	0.7203	0.7291	0.791	-0.203
Mof_O 	O 	0.8878	0.1961	0.1319	-0.362
Mof_O 	O 	0.9128	0.0396	0.1345	-0.349
Mof_O 	O 	0.6955	0.4023	0.3214	-0.375
Mof_O 	O 	0.6256	0.3912	0.4638	-0.368
Mof_O 	O 	0.9828	0.7944	0.4956	-0.191
Mof_O 	O 	0.8721	0.7702	0.6162	-0.338
Mof_O 	O 	0.4584	0.0379	0.6867	-0.259
Mof_O 	O 	0.5508	0.912	0.727	-0.347
Mof_O 	O 	0.6076	0.6062	0.4495	-0.216
Mof_O 	O 	0.3878	0.3039	0.3681	-0.368
Mof_O 	O 	0.4128	0.4604	0.3655	-0.351
Mof_O 	O 	0.1955	0.0977	0.1786	-0.4
Mof_O 	O 	0.1256	0.1088	0.0362	-0.41
Mof_O 	O 	0.4828	0.7056	0.0044	-0.258
Mof_O 	O 	0.3721	0.7298	0.8838	-0.352
Mof_O 	O 	0.9584	0.4621	0.8133	-0.155
Mof_O 	O 	0.0508	0.588	0.773	-0.348
Mof_O 	O 	0.1076	0.8938	0.0505	-0.23
Mof_O 	O 	0.1122	0.8039	0.8681	-0.366
Mof_O 	O 	0.0872	0.9604	0.8655	-0.329
Mof_O 	O 	0.3045	0.5977	0.6786	-0.38
Mof_O 	O 	0.3744	0.6088	0.5362	-0.373
Mof_O 	O 	0.0172	0.2056	0.5044	-0.243
Mof_O 	O 	0.1279	0.2298	0.3838	-0.365
Mof_O 	O 	0.5416	0.9621	0.3133	-0.17
Mof_O 	O 	0.4492	0.088	0.273	-0.346
Mof_O 	O 	0.3924	0.3938	0.5505	-0.221
Mof_O 	O 	0.6122	0.6961	0.6319	-0.364
Mof_O 	O 	0.5872	0.5396	0.6345	-0.346
Mof_O 	O 	0.8045	0.9023	0.8214	-0.354
Mof_O 	O 	0.8744	0.8912	0.9638	-0.317
Mof_O 	O 	0.5172	0.2944	0.9956	-0.17
Mof_O 	O 	0.6279	0.2702	0.1162	-0.35
Mof_O 	O 	0.0416	0.5379	0.1867	-0.278
Mof_O 	O 	0.9492	0.412	0.227	-0.345
Mof_O 	O 	0.8924	0.1062	0.9495	-0.182
_end
