data_functionalizedCrystal
_audit_creation_method	'EQeq! by Chris Wilmer'
_symmetry_space_group_name_H-M	'P1'
_symmetry_Int_Tables_number	1
_symmetry_cell_setting	triclinic
loop_
_symmetry_equiv_pos_as_xyz
  x,y,z
_cell_length_a	8.9108
_cell_length_b	9.0223
_cell_length_c	15.6837
_cell_angle_alpha	90
_cell_angle_beta	90
_cell_angle_gamma	90
loop_
_atom_site_label
_atom_site_type_symbol
_atom_site_fract_x
_atom_site_fract_y
_atom_site_fract_z
_atom_site_charge
Mof_Y 	Y 	0.39073	0.03133	0.39609	1.416
Mof_Y 	Y 	0.60927	0.46867	0.89609	1.418
Mof_Y 	Y 	0.89073	0.96867	0.10391	1.415
Mof_Y 	Y 	0.10927	0.53133	0.60391	1.419
Mof_P 	P 	0.06799	0.12751	0.29399	0.512
Mof_P 	P 	0.93201	0.37249	0.79399	0.521
Mof_P 	P 	0.56799	0.87249	0.20601	0.519
Mof_P 	P 	0.43201	0.62751	0.70601	0.519
Mof_H 	H 	0.2524	0.1441	0.1896	0.098
Mof_H 	H 	0.1775	0.3	0.2032	0.102
Mof_H 	H 	0.2212	0.4407	0.3128	0.161
Mof_H 	H 	0.3914	0.4599	0.3346	0.145
Mof_H 	H 	0.4807	0.3765	0.2163	0.135
Mof_H 	H 	0.4881	0.2057	0.1972	0.142
Mof_H 	H 	0.9039	0.2692	0.3224	0.312
Mof_H 	H 	0.7476	0.3559	0.6896	0.099
Mof_H 	H 	0.8225	0.2	0.7032	0.103
Mof_H 	H 	0.7788	0.0593	0.8128	0.162
Mof_H 	H 	0.6086	0.0401	0.8346	0.145
Mof_H 	H 	0.5193	0.1235	0.7163	0.134
Mof_H 	H 	0.5119	0.2943	0.6972	0.142
Mof_H 	H 	0.0961	0.2308	0.8224	0.314
Mof_H 	H 	0.7524	0.8559	0.3104	0.099
Mof_H 	H 	0.6775	0.7	0.2968	0.103
Mof_H 	H 	0.7212	0.5593	0.1872	0.161
Mof_H 	H 	0.8914	0.5401	0.1654	0.145
Mof_H 	H 	0.9807	0.6235	0.2837	0.135
Mof_H 	H 	0.9881	0.7943	0.3028	0.142
Mof_H 	H 	0.4039	0.7308	0.1776	0.314
Mof_H 	H 	0.2476	0.6441	0.8104	0.099
Mof_H 	H 	0.3225	0.8	0.7968	0.103
Mof_H 	H 	0.2788	0.9407	0.6872	0.162
Mof_H 	H 	0.1086	0.9599	0.6654	0.147
Mof_H 	H 	0.0193	0.8765	0.7837	0.136
Mof_H 	H 	0.0119	0.7057	0.8028	0.141
Mof_H 	H 	0.5961	0.7692	0.6776	0.314
Mof_C 	C 	0.2162	0.2132	0.2323	-0.266
Mof_C 	C 	0.3069	0.3925	0.339	-0.367
Mof_C 	C 	0.2733	0.3687	0.4305	0.477
Mof_C 	C 	0.4808	0.2789	0.2423	-0.323
Mof_C 	C 	0.615	0.2644	0.3022	0.394
Mof_C 	C 	0.7838	0.2868	0.7323	-0.267
Mof_C 	C 	0.6931	0.1075	0.839	-0.367
Mof_C 	C 	0.7267	0.1313	0.9305	0.477
Mof_C 	C 	0.5192	0.2211	0.7423	-0.324
Mof_C 	C 	0.385	0.2356	0.8022	0.394
Mof_C 	C 	0.7162	0.7868	0.2677	-0.267
Mof_C 	C 	0.8069	0.6075	0.161	-0.367
Mof_C 	C 	0.7733	0.6313	0.0695	0.477
Mof_C 	C 	0.9808	0.7211	0.2577	-0.326
Mof_C 	C 	0.115	0.7356	0.1978	0.396
Mof_C 	C 	0.2838	0.7132	0.7677	-0.267
Mof_C 	C 	0.1931	0.8925	0.661	-0.368
Mof_C 	C 	0.2267	0.8687	0.5695	0.478
Mof_C 	C 	0.0192	0.7789	0.7577	-0.321
Mof_C 	C 	0.885	0.7644	0.6978	0.391
Mof_N 	N 	0.3421	0.257	0.2898	-0.039
Mof_N 	N 	0.6579	0.243	0.7898	-0.039
Mof_N 	N 	0.8421	0.743	0.2102	-0.039
Mof_N 	N 	0.1579	0.757	0.7102	-0.039
Mof_O 	O 	0.3137	0.2449	0.46521	-0.419
Mof_O 	O 	0.208	0.4684	0.47071	-0.441
Mof_O 	O 	0.7394	0.3165	0.2764	-0.326
Mof_O 	O 	0.5992	0.1879	0.37018	-0.405
Mof_O 	O 	0.9832	0.249	0.3463	-0.479
Mof_O 	O 	0.9649	0.051	0.23265	-0.434
Mof_O 	O 	0.1458	0.0257	0.35531	-0.397
Mof_O 	O 	0.6863	0.2551	0.96521	-0.419
Mof_O 	O 	0.792	0.0316	0.97071	-0.44
Mof_O 	O 	0.2606	0.1835	0.7764	-0.329
Mof_O 	O 	0.4008	0.3121	0.87018	-0.407
Mof_O 	O 	0.0168	0.251	0.8463	-0.486
Mof_O 	O 	0.0351	0.449	0.73265	-0.441
Mof_O 	O 	0.8542	0.4743	0.85531	-0.396
Mof_O 	O 	0.8137	0.7551	0.03479	-0.418
Mof_O 	O 	0.708	0.5316	0.02929	-0.44
Mof_O 	O 	0.2394	0.6835	0.2236	-0.327
Mof_O 	O 	0.0992	0.8121	0.12982	-0.404
Mof_O 	O 	0.4832	0.751	0.1537	-0.483
Mof_O 	O 	0.4649	0.949	0.26735	-0.438
Mof_O 	O 	0.6458	0.9743	0.14469	-0.395
Mof_O 	O 	0.1863	0.7449	0.53479	-0.418
Mof_O 	O 	0.292	0.9684	0.52929	-0.438
Mof_O 	O 	0.7606	0.8165	0.7236	-0.327
Mof_O 	O 	0.9008	0.6879	0.62982	-0.406
Mof_O 	O 	0.5168	0.749	0.6537	-0.483
Mof_O 	O 	0.5351	0.551	0.76735	-0.44
Mof_O 	O 	0.3542	0.5257	0.64469	-0.396
_end
