data_functionalizedCrystal
_audit_creation_method	'EQeq! by Chris Wilmer'
_symmetry_space_group_name_H-M	'P1'
_symmetry_Int_Tables_number	1
_symmetry_cell_setting	triclinic
loop_
_symmetry_equiv_pos_as_xyz
  x,y,z
_cell_length_a	7.7297
_cell_length_b	10.2725
_cell_length_c	16.0234
_cell_angle_alpha	86.817
_cell_angle_beta	85.974
_cell_angle_gamma	77.107
loop_
_atom_site_label
_atom_site_type_symbol
_atom_site_fract_x
_atom_site_fract_y
_atom_site_fract_z
_atom_site_charge
Mof_Eu	Eu	0.35439	0.33627	0.06325	2.204
Mof_Eu	Eu	0.6151	0.86838	0.32466	2.203
Mof_O 	O 	0.2064	0.2973	0.7774	-0.302
Mof_O 	O 	0.0997	0.0727	0.7048	-0.333
Mof_O 	O 	0.4905	0.356	0.6519	-0.419
Mof_O 	O 	0.6401	0.1881	0.7288	-0.443
Mof_O 	O 	0.7595	0.4435	0.882	-0.532
Mof_O 	O 	0.5919	0.3381	0.9677	-0.629
Mof_O 	O 	0.7859	0.5157	0.0485	-0.464
Mof_O 	O 	0.0379	0.3685	0.0762	-0.463
Mof_O 	O 	0.3378	0.9705	0.5759	-0.438
Mof_O 	O 	0.4068	0.8895	0.4473	-0.437
Mof_O 	O 	0.3973	0.0883	0.2995	-0.387
Mof_O 	O 	0.6179	0.9555	0.1813	-0.438
Mof_O 	O 	0.2908	0.2475	0.203	-0.443
Mof_O 	O 	0.5002	0.1067	0.0832	-0.483
Mof_C 	C 	0.0606	0.4879	0.7051	0.044
Mof_H 	H 	0.1632	0.5245	0.7047	0.023
Mof_C 	C 	0.9124	0.5573	0.6654	-0.102
Mof_H 	H 	0.9105	0.644	0.6409	0.074
Mof_C 	C 	0.7667	0.5006	0.6615	0.027
Mof_H 	H 	0.6678	0.5454	0.6312	0.028
Mof_C 	C 	0.7664	0.3779	0.7022	-0.101
Mof_C 	C 	0.9117	0.315	0.7467	0.061
Mof_C 	C 	0.6196	0.3051	0.6938	0.323
Mof_C 	C 	0.0182	0.9664	0.8285	0.081
Mof_H 	H 	0.0885	0.8838	0.81	0.009
Mof_C 	C 	0.9212	0.9695	0.9042	-0.136
Mof_H 	H 	0.9233	0.8897	0.9373	0.053
Mof_C 	C 	0.821	0.0897	0.9311	0.096
Mof_H 	H 	0.7531	0.0927	0.983	-0
Mof_C 	C 	0.8188	0.2063	0.883	-0.203
Mof_C 	C 	0.9177	0.1985	0.8065	0.13
Mof_C 	C 	0.7149	0.3388	0.9122	0.522
Mof_C 	C 	0.949	0.467	0.0358	0.27
Mof_C 	C 	0.4254	0.9583	0.508	0.267
Mof_C 	C 	0.5126	0.0613	0.1579	0.262
Mof_C 	C 	0.3895	0.1386	0.2254	0.233
Mof_N 	N 	0.0599	0.3689	0.744	-0.085
Mof_N 	N 	0.0149	0.0788	0.7805	-0.073
Mof_Eu	Eu	0.64561	0.66373	0.93675	2.205
Mof_Eu	Eu	0.3849	0.13162	0.67534	2.204
Mof_O 	O 	0.7936	0.7027	0.2226	-0.302
Mof_O 	O 	0.9003	0.9273	0.2952	-0.333
Mof_O 	O 	0.5095	0.644	0.3481	-0.419
Mof_O 	O 	0.3599	0.8119	0.2712	-0.443
Mof_O 	O 	0.2405	0.5565	0.118	-0.532
Mof_O 	O 	0.4081	0.6619	0.0323	-0.629
Mof_O 	O 	0.2141	0.4843	0.9515	-0.464
Mof_O 	O 	0.9621	0.6315	0.9238	-0.463
Mof_O 	O 	0.6622	0.0295	0.4241	-0.438
Mof_O 	O 	0.5932	0.1105	0.5527	-0.437
Mof_O 	O 	0.6027	0.9117	0.7005	-0.387
Mof_O 	O 	0.3821	0.0445	0.8187	-0.438
Mof_O 	O 	0.7092	0.7525	0.797	-0.443
Mof_O 	O 	0.4998	0.8933	0.9168	-0.483
Mof_C 	C 	0.9394	0.5121	0.2949	0.044
Mof_H 	H 	0.8368	0.4755	0.2953	0.023
Mof_C 	C 	0.0876	0.4427	0.3346	-0.102
Mof_H 	H 	0.0895	0.356	0.3591	0.074
Mof_C 	C 	0.2333	0.4994	0.3385	0.027
Mof_H 	H 	0.3322	0.4546	0.3688	0.028
Mof_C 	C 	0.2336	0.6221	0.2978	-0.101
Mof_C 	C 	0.0883	0.685	0.2533	0.061
Mof_C 	C 	0.3804	0.6949	0.3062	0.323
Mof_C 	C 	0.9818	0.0336	0.1715	0.081
Mof_H 	H 	0.9115	0.1162	0.19	0.009
Mof_C 	C 	0.0788	0.0305	0.0958	-0.136
Mof_H 	H 	0.0767	0.1103	0.0627	0.053
Mof_C 	C 	0.179	0.9103	0.0689	0.096
Mof_H 	H 	0.2469	0.9073	0.017	-0
Mof_C 	C 	0.1812	0.7937	0.117	-0.203
Mof_C 	C 	0.0823	0.8015	0.1935	0.13
Mof_C 	C 	0.2851	0.6612	0.0878	0.522
Mof_C 	C 	0.051	0.533	0.9642	0.27
Mof_C 	C 	0.5746	0.0417	0.492	0.267
Mof_C 	C 	0.4874	0.9387	0.8421	0.262
Mof_C 	C 	0.6105	0.8614	0.7746	0.233
Mof_N 	N 	0.9401	0.6311	0.256	-0.085
Mof_N 	N 	0.9851	0.9212	0.2195	-0.073
_end
