data_functionalizedCrystal
_audit_creation_method	'EQeq! by Chris Wilmer'
_symmetry_space_group_name_H-M	'P1'
_symmetry_Int_Tables_number	1
_symmetry_cell_setting	triclinic
loop_
_symmetry_equiv_pos_as_xyz
  x,y,z
_cell_length_a	25.5907
_cell_length_b	42.314
_cell_length_c	42.314
_cell_angle_alpha	107.585
_cell_angle_beta	90.6846
_cell_angle_gamma	90.6846
loop_
_atom_site_label
_atom_site_type_symbol
_atom_site_fract_x
_atom_site_fract_y
_atom_site_fract_z
_atom_site_charge
Mof_In	In	0.95482	0.09106	0.86054	1.439
Mof_In	In	0.94976	0.0137	0.78832	1.478
Mof_In	In	0.89684	0.10276	0.78288	1.484
Mof_In	In	0.05293	0.09033	0.79515	1.487
Mof_In	In	0.94853	0.94322	0.70964	1.45
Mof_In	In	0.89305	0.02172	0.70024	1.485
Mof_In	In	0.85119	0.10614	0.69924	1.445
Mof_In	In	0.049	0.00918	0.7122	1.487
Mof_In	In	0.99594	0.09899	0.70733	1.496
Mof_In	In	0.1374	0.08297	0.72179	1.446
Mof_In	In	0.44954	0.29414	0.65766	1.444
Mof_In	In	0.39486	0.216	0.66936	1.491
Mof_In	In	0.44644	0.22213	0.58039	1.481
Mof_In	In	0.55029	0.23024	0.6577	1.48
Mof_In	In	0.35178	0.1319	0.67178	1.456
Mof_In	In	0.39305	0.13391	0.58751	1.486
Mof_In	In	0.44978	0.14433	0.50933	1.449
Mof_In	In	0.49621	0.14129	0.66481	1.495
Mof_In	In	0.5498	0.14803	0.57633	1.484
Mof_In	In	0.63768	0.15802	0.65058	1.452
Mof_In	In	0.91996	0.68662	0.45142	1.444
Mof_In	In	0.91724	0.74182	0.53814	1.473
Mof_In	In	0.83031	0.65547	0.50475	1.485
Mof_In	In	0.98973	0.65154	0.51212	1.495
Mof_In	In	0.91278	0.78834	0.62862	1.462
Mof_In	In	0.82578	0.71309	0.60205	1.498
Mof_In	In	0.75452	0.63054	0.56886	1.437
Mof_In	In	0.9864	0.70868	0.60868	1.505
Mof_In	In	0.89703	0.62273	0.57721	1.491
Mof_In	In	0.04433	0.62429	0.58249	1.438
Mof_In	In	0.28965	0.17305	0.23157	1.459
Mof_In	In	0.36403	0.14551	0.29487	1.476
Mof_In	In	0.35751	0.09171	0.19663	1.491
Mof_In	In	0.43533	0.18091	0.22683	1.484
Mof_In	In	0.44941	0.11396	0.35088	1.451
Mof_In	In	0.44427	0.05958	0.26316	1.492
Mof_In	In	0.52284	0.14946	0.29304	1.475
Mof_In	In	0.51703	0.09452	0.19472	1.499
Mof_In	In	0.4376	0.01541	0.17143	1.45
Mof_In	In	0.58155	0.17878	0.22558	1.411
Mof_In	In	0.45482	0.86054	0.09106	1.437
Mof_In	In	0.44976	0.78832	0.0137	1.477
Mof_In	In	0.39684	0.78288	0.10276	1.483
Mof_In	In	0.55293	0.79515	0.09033	1.486
Mof_In	In	0.44853	0.70964	0.94322	1.449
Mof_In	In	0.39305	0.70024	0.02172	1.484
Mof_In	In	0.35119	0.69924	0.10614	1.446
Mof_In	In	0.549	0.7122	0.00918	1.487
Mof_In	In	0.49594	0.70733	0.09899	1.495
Mof_In	In	0.6374	0.72179	0.08297	1.446
Mof_In	In	0.94954	0.65766	0.29414	1.444
Mof_In	In	0.89486	0.66936	0.216	1.491
Mof_In	In	0.94644	0.58039	0.22213	1.481
Mof_In	In	0.05029	0.6577	0.23024	1.48
Mof_In	In	0.85178	0.67178	0.1319	1.456
Mof_In	In	0.89305	0.58751	0.13391	1.486
Mof_In	In	0.94978	0.50933	0.14433	1.449
Mof_In	In	0.99621	0.66481	0.14129	1.495
Mof_In	In	0.0498	0.57633	0.14803	1.484
Mof_In	In	0.13768	0.65058	0.15802	1.452
Mof_In	In	0.41996	0.45142	0.68662	1.444
Mof_In	In	0.41724	0.53814	0.74182	1.473
Mof_In	In	0.33031	0.50475	0.65547	1.485
Mof_In	In	0.48973	0.51212	0.65154	1.495
Mof_In	In	0.41278	0.62862	0.78834	1.462
Mof_In	In	0.32578	0.60205	0.71309	1.498
Mof_In	In	0.25452	0.56886	0.63054	1.437
Mof_In	In	0.4864	0.60868	0.70868	1.504
Mof_In	In	0.39703	0.57721	0.62273	1.491
Mof_In	In	0.54433	0.58249	0.62429	1.438
Mof_In	In	0.78965	0.23157	0.17305	1.459
Mof_In	In	0.86403	0.29487	0.14551	1.476
Mof_In	In	0.85751	0.19663	0.09171	1.491
Mof_In	In	0.93533	0.22683	0.18091	1.484
Mof_In	In	0.94941	0.35088	0.11396	1.451
Mof_In	In	0.94427	0.26316	0.05958	1.492
Mof_In	In	0.02284	0.29304	0.14946	1.475
Mof_In	In	0.01703	0.19472	0.09452	1.499
Mof_In	In	0.9376	0.17143	0.01541	1.45
Mof_In	In	0.08155	0.22558	0.17878	1.411
Mof_H 	H 	0.0617	0.5525	0.5987	0.001
Mof_H 	H 	0.6379	0.6156	0.5316	-0.003
Mof_H 	H 	0.1665	0.6479	0.6101	0.151
Mof_H 	H 	0.1939	0.626	0.577	0.154
Mof_H 	H 	0.2197	0.6293	0.6125	0.136
Mof_H 	H 	0.9016	0.884	0.735	-0.002
Mof_H 	H 	0.8773	0.8263	0.7021	-0.009
Mof_H 	H 	0.0023	0.8754	0.6438	0.181
Mof_H 	H 	0.9636	0.8486	0.6196	0.17
Mof_H 	H 	0.9501	0.8872	0.6298	0.174
Mof_H 	H 	0.3369	0.0849	0.7155	-0.024
Mof_H 	H 	0.2548	0.0626	0.735	-0.006
Mof_H 	H 	0.1782	0.1367	0.6875	0.181
Mof_H 	H 	0.2329	0.1541	0.6839	0.172
Mof_H 	H 	0.2123	0.1223	0.6549	0.176
Mof_H 	H 	0.7516	0.1824	0.6472	-0.031
Mof_H 	H 	0.8335	0.1613	0.6583	0.005
Mof_H 	H 	0.7273	0.104	0.7066	0.193
Mof_H 	H 	0.6768	0.1103	0.6867	0.208
Mof_H 	H 	0.7181	0.0829	0.6685	0.208
Mof_H 	H 	0.4041	0.0769	0.4533	0.003
Mof_H 	H 	0.4154	0.0632	0.393	-0.006
Mof_H 	H 	0.5168	0.1659	0.4431	0.162
Mof_H 	H 	0.4792	0.1706	0.4144	0.155
Mof_H 	H 	0.4611	0.1829	0.4521	0.166
Mof_H 	H 	0.9177	0.7403	0.4075	-0.001
Mof_H 	H 	0.4318	0.3488	0.7272	-0.009
Mof_H 	H 	0.9224	0.619	0.349	0.169
Mof_H 	H 	0.9237	0.6269	0.3885	0.148
Mof_H 	H 	0.9771	0.6255	0.3689	0.164
Mof_H 	H 	0.383	0.9784	0.1084	-0.01
Mof_H 	H 	0.8965	0.0667	0.9187	-0
Mof_H 	H 	0.1709	0.1952	0.2694	-0.004
Mof_H 	H 	0.5617	0.5987	0.5525	0.001
Mof_H 	H 	0.1379	0.5316	0.6156	-0.003
Mof_H 	H 	0.6665	0.6101	0.6479	0.151
Mof_H 	H 	0.6939	0.577	0.626	0.154
Mof_H 	H 	0.7197	0.6125	0.6293	0.136
Mof_H 	H 	0.4016	0.735	0.884	-0.002
Mof_H 	H 	0.3773	0.7021	0.8263	-0.009
Mof_H 	H 	0.5023	0.6438	0.8754	0.181
Mof_H 	H 	0.4636	0.6196	0.8486	0.17
Mof_H 	H 	0.4501	0.6298	0.8872	0.174
Mof_H 	H 	0.8369	0.7155	0.0849	-0.024
Mof_H 	H 	0.7548	0.735	0.0626	-0.006
Mof_H 	H 	0.6782	0.6875	0.1367	0.181
Mof_H 	H 	0.7329	0.6839	0.1541	0.172
Mof_H 	H 	0.7123	0.6549	0.1223	0.176
Mof_H 	H 	0.2516	0.6472	0.1824	-0.031
Mof_H 	H 	0.3335	0.6583	0.1613	0.005
Mof_H 	H 	0.2273	0.7066	0.104	0.193
Mof_H 	H 	0.1768	0.6867	0.1103	0.208
Mof_H 	H 	0.2181	0.6685	0.0829	0.208
Mof_H 	H 	0.9041	0.4533	0.0769	0.003
Mof_H 	H 	0.9154	0.393	0.0632	-0.006
Mof_H 	H 	0.0168	0.4431	0.1659	0.162
Mof_H 	H 	0.9792	0.4144	0.1706	0.155
Mof_H 	H 	0.9611	0.4521	0.1829	0.166
Mof_H 	H 	0.4177	0.4075	0.7403	-0.001
Mof_H 	H 	0.9318	0.7272	0.3488	-0.009
Mof_H 	H 	0.4224	0.349	0.619	0.168
Mof_H 	H 	0.4237	0.3885	0.6269	0.148
Mof_H 	H 	0.4771	0.3689	0.6255	0.164
Mof_H 	H 	0.883	0.1084	0.9784	-0.01
Mof_H 	H 	0.3965	0.9187	0.0667	-0
Mof_H 	H 	0.6709	0.2694	0.1952	-0.004
Mof_C 	C 	0.1558	0.5979	0.6017	0.235
Mof_C 	C 	0.0951	0.5631	0.6013	-0.001
Mof_C 	C 	0.6354	0.6101	0.5517	-0.003
Mof_C 	C 	0.1866	0.6279	0.6001	-0.551
Mof_C 	C 	0.9375	0.8666	0.6658	0.29
Mof_C 	C 	0.9086	0.8743	0.7121	-0.001
Mof_C 	C 	0.896	0.842	0.6944	0.015
Mof_C 	C 	0.9657	0.8697	0.6375	-0.641
Mof_C 	C 	0.2408	0.1111	0.6949	0.285
Mof_C 	C 	0.3023	0.0904	0.7112	0.047
Mof_C 	C 	0.2575	0.078	0.7228	-0.016
Mof_C 	C 	0.2138	0.1328	0.679	-0.637
Mof_C 	C 	0.7423	0.129	0.675	0.367
Mof_C 	C 	0.7553	0.1645	0.6563	0.058
Mof_C 	C 	0.8002	0.1538	0.6628	-0.024
Mof_C 	C 	0.7139	0.1047	0.6849	-0.742
Mof_C 	C 	0.456	0.1328	0.4316	0.268
Mof_C 	C 	0.4193	0.0906	0.4418	-0.019
Mof_C 	C 	0.4245	0.0838	0.409	0.005
Mof_C 	C 	0.4803	0.1658	0.4356	-0.596
Mof_C 	C 	0.9365	0.6679	0.3735	0.258
Mof_C 	C 	0.9244	0.7189	0.3929	0.006
Mof_C 	C 	0.432	0.3609	0.7115	0
Mof_C 	C 	0.9402	0.6317	0.3697	-0.584
Mof_C 	C 	0.963	0.1399	0.9355	-0.007
Mof_C 	C 	0.406	0.9618	0.1112	0.006
Mof_C 	C 	0.911	0.0884	0.928	-0
Mof_C 	C 	0.219	0.2099	0.1775	-0.074
Mof_C 	C 	0.177	0.1996	0.249	0.026
Mof_C 	C 	0.6426	0.2182	0.2154	-0.21
Mof_C 	C 	0.6558	0.6017	0.5979	0.235
Mof_C 	C 	0.5951	0.6013	0.5631	-0.001
Mof_C 	C 	0.1354	0.5517	0.6101	-0.003
Mof_C 	C 	0.6866	0.6001	0.6279	-0.552
Mof_C 	C 	0.4375	0.6658	0.8666	0.29
Mof_C 	C 	0.4086	0.7121	0.8743	-0.001
Mof_C 	C 	0.396	0.6944	0.842	0.015
Mof_C 	C 	0.4657	0.6375	0.8697	-0.641
Mof_C 	C 	0.7408	0.6949	0.1111	0.285
Mof_C 	C 	0.8023	0.7112	0.0904	0.047
Mof_C 	C 	0.7575	0.7228	0.078	-0.016
Mof_C 	C 	0.7138	0.679	0.1328	-0.637
Mof_C 	C 	0.2423	0.675	0.129	0.367
Mof_C 	C 	0.2553	0.6563	0.1645	0.058
Mof_C 	C 	0.3002	0.6628	0.1538	-0.024
Mof_C 	C 	0.2139	0.6849	0.1047	-0.742
Mof_C 	C 	0.956	0.4316	0.1328	0.268
Mof_C 	C 	0.9193	0.4418	0.0906	-0.019
Mof_C 	C 	0.9245	0.409	0.0838	0.005
Mof_C 	C 	0.9803	0.4356	0.1658	-0.597
Mof_C 	C 	0.4365	0.3735	0.6679	0.257
Mof_C 	C 	0.4244	0.3929	0.7189	0.006
Mof_C 	C 	0.932	0.7115	0.3609	0
Mof_C 	C 	0.4402	0.3697	0.6317	-0.584
Mof_C 	C 	0.463	0.9355	0.1399	-0.007
Mof_C 	C 	0.906	0.1112	0.9618	0.006
Mof_C 	C 	0.411	0.928	0.0884	-0
Mof_C 	C 	0.719	0.1775	0.2099	-0.074
Mof_C 	C 	0.677	0.249	0.1996	0.026
Mof_C 	C 	0.1426	0.2154	0.2182	-0.21
Mof_S 	S 	0.9393	0.03193	0.84761	-0.75
Mof_S 	S 	0.8872	0.12182	0.84212	-0.751
Mof_S 	S 	0.938	0.95439	0.76879	-0.756
Mof_S 	S 	0.8834	0.04124	0.7619	-1.134
Mof_S 	S 	0.0391	0.02869	0.77365	-1.135
Mof_S 	S 	0.9867	0.11791	0.76869	-1.137
Mof_S 	S 	0.8808	0.96275	0.67983	-0.771
Mof_S 	S 	0.8293	0.048	0.67448	-0.769
Mof_S 	S 	0.0366	0.94987	0.69195	-0.768
Mof_S 	S 	0.983	0.0373	0.68622	-1.131
Mof_S 	S 	0.1356	0.02356	0.69834	-0.761
Mof_S 	S 	0.3818	0.27486	0.68728	-0.753
Mof_S 	S 	0.4329	0.28142	0.59878	-0.766
Mof_S 	S 	0.5386	0.28958	0.67604	-0.753
Mof_S 	S 	0.3811	0.19537	0.60767	-1.133
Mof_S 	S 	0.4353	0.20321	0.52083	-0.769
Mof_S 	S 	0.4848	0.20258	0.68446	-1.141
Mof_S 	S 	0.5362	0.20935	0.59601	-1.137
Mof_S 	S 	0.6377	0.21821	0.67147	-0.755
Mof_S 	S 	0.3292	0.10823	0.61349	-0.768
Mof_S 	S 	0.3818	0.11427	0.52815	-0.762
Mof_S 	S 	0.4326	0.11397	0.68997	-0.762
Mof_S 	S 	0.4836	0.12096	0.60312	-1.135
Mof_S 	S 	0.5829	0.12897	0.67947	-0.785
Mof_S 	S 	0.6369	0.13539	0.59073	-0.761
Mof_S 	S 	0.9217	0.7451	0.4823	-0.744
Mof_S 	S 	0.8352	0.65927	0.44925	-0.755
Mof_S 	S 	0.9955	0.65488	0.45644	-0.773
Mof_S 	S 	0.9182	0.79761	0.57521	-0.777
Mof_S 	S 	0.8328	0.7136	0.54334	-1.133
Mof_S 	S 	0.7529	0.62536	0.51026	-0.762
Mof_S 	S 	0.9924	0.70995	0.55023	-1.138
Mof_S 	S 	0.90529	0.62374	0.51838	-1.127
Mof_S 	S 	0.061	0.6208	0.5252	-0.768
Mof_S 	S 	0.8284	0.76822	0.64068	-0.746
Mof_S 	S 	0.7458	0.68533	0.60783	-0.77
Mof_S 	S 	0.9011	0.68099	0.61419	-1.145
Mof_S 	S 	0.8171	0.59569	0.58519	-0.762
Mof_S 	S 	0.0582	0.67869	0.62197	-0.773
Mof_S 	S 	0.9686	0.59344	0.59178	-0.759
Mof_S 	S 	0.3672	0.1411	0.34994	-0.766
Mof_S 	S 	0.3631	0.08831	0.25467	-1.138
Mof_S 	S 	0.4406	0.17831	0.28515	-1.127
Mof_S 	S 	0.5213	0.09191	0.25279	-1.135
Mof_S 	S 	0.0828	0.11334	0.69408	-0.775
Mof_S 	S 	0.1395	0.10423	0.78153	-0.758
Mof_S 	S 	0.0436	0.10843	0.85443	-0.76
Mof_S 	S 	0.9322	0.12526	0.68182	-0.765
Mof_S 	S 	0.8323	0.12859	0.75747	-0.769
Mof_S 	S 	0.9879	0.76399	0.64615	-0.772
Mof_S 	S 	0.3331	0.19025	0.69627	-0.77
Mof_S 	S 	0.539	0.12885	0.51677	-0.76
Mof_S 	S 	0.2783	0.11943	0.19025	-0.756
Mof_S 	S 	0.3561	0.20827	0.21929	-0.754
Mof_S 	S 	0.2846	0.17358	0.2888	-0.742
Mof_S 	S 	0.3565	0.03683	0.15773	-0.761
Mof_S 	S 	0.4356	0.12333	0.18685	-1.134
Mof_S 	S 	0.5089	0.21054	0.21488	-0.752
Mof_S 	S 	0.4412	0.00445	0.22443	-0.761
Mof_S 	S 	0.5164	0.03955	0.15647	-0.762
Mof_S 	S 	0.5932	0.12487	0.18529	-0.741
Mof_S 	S 	0.4503	0.05589	0.31873	-0.759
Mof_S 	S 	0.5976	0.18048	0.28272	-0.747
Mof_S 	S 	0.5272	0.14591	0.34851	-0.778
Mof_S 	S 	0.4393	0.84761	0.03193	-0.75
Mof_S 	S 	0.3872	0.84212	0.12182	-0.751
Mof_S 	S 	0.438	0.76879	0.95439	-0.756
Mof_S 	S 	0.3834	0.7619	0.04124	-1.134
Mof_S 	S 	0.5391	0.77365	0.02869	-1.135
Mof_S 	S 	0.4867	0.76869	0.11791	-1.137
Mof_S 	S 	0.3808	0.67983	0.96275	-0.771
Mof_S 	S 	0.3293	0.67448	0.048	-0.769
Mof_S 	S 	0.5366	0.69195	0.94987	-0.768
Mof_S 	S 	0.483	0.68622	0.0373	-1.131
Mof_S 	S 	0.6356	0.69834	0.02356	-0.761
Mof_S 	S 	0.8818	0.68728	0.27486	-0.753
Mof_S 	S 	0.9329	0.59878	0.28142	-0.766
Mof_S 	S 	0.0386	0.67604	0.28958	-0.752
Mof_S 	S 	0.8811	0.60767	0.19537	-1.133
Mof_S 	S 	0.9353	0.52083	0.20321	-0.769
Mof_S 	S 	0.9848	0.68446	0.20258	-1.141
Mof_S 	S 	0.0362	0.59601	0.20935	-1.137
Mof_S 	S 	0.1377	0.67147	0.21821	-0.755
Mof_S 	S 	0.8292	0.61349	0.10823	-0.768
Mof_S 	S 	0.8818	0.52815	0.11427	-0.762
Mof_S 	S 	0.9326	0.68997	0.11397	-0.762
Mof_S 	S 	0.9836	0.60312	0.12096	-1.135
Mof_S 	S 	0.0829	0.67947	0.12897	-0.785
Mof_S 	S 	0.1369	0.59073	0.13539	-0.761
Mof_S 	S 	0.4217	0.4823	0.7451	-0.744
Mof_S 	S 	0.3352	0.44925	0.65927	-0.755
Mof_S 	S 	0.4955	0.45644	0.65488	-0.774
Mof_S 	S 	0.4182	0.57521	0.79761	-0.777
Mof_S 	S 	0.3328	0.54334	0.7136	-1.133
Mof_S 	S 	0.2529	0.51026	0.62536	-0.762
Mof_S 	S 	0.4924	0.55023	0.70995	-1.138
Mof_S 	S 	0.40529	0.51838	0.62374	-1.127
Mof_S 	S 	0.561	0.5252	0.6208	-0.768
Mof_S 	S 	0.3284	0.64068	0.76822	-0.746
Mof_S 	S 	0.2458	0.60783	0.68533	-0.77
Mof_S 	S 	0.4011	0.61419	0.68099	-1.145
Mof_S 	S 	0.3171	0.58519	0.59569	-0.762
Mof_S 	S 	0.5582	0.62197	0.67869	-0.773
Mof_S 	S 	0.4686	0.59178	0.59344	-0.76
Mof_S 	S 	0.8672	0.34994	0.1411	-0.766
Mof_S 	S 	0.8631	0.25467	0.08831	-1.138
Mof_S 	S 	0.9406	0.28515	0.17831	-1.127
Mof_S 	S 	0.0213	0.25279	0.09191	-1.135
Mof_S 	S 	0.5828	0.69408	0.11334	-0.775
Mof_S 	S 	0.6395	0.78153	0.10423	-0.758
Mof_S 	S 	0.5436	0.85443	0.10843	-0.76
Mof_S 	S 	0.4322	0.68182	0.12526	-0.765
Mof_S 	S 	0.3323	0.75747	0.12859	-0.769
Mof_S 	S 	0.4879	0.64615	0.76399	-0.772
Mof_S 	S 	0.8331	0.69627	0.19025	-0.77
Mof_S 	S 	0.039	0.51677	0.12885	-0.76
Mof_S 	S 	0.7783	0.19025	0.11943	-0.756
Mof_S 	S 	0.8561	0.21929	0.20827	-0.754
Mof_S 	S 	0.7846	0.2888	0.17358	-0.742
Mof_S 	S 	0.8565	0.15773	0.03683	-0.761
Mof_S 	S 	0.9356	0.18685	0.12333	-1.134
Mof_S 	S 	0.0089	0.21488	0.21054	-0.752
Mof_S 	S 	0.9412	0.22443	0.00445	-0.761
Mof_S 	S 	0.0164	0.15647	0.03955	-0.762
Mof_S 	S 	0.0932	0.18529	0.12487	-0.741
Mof_S 	S 	0.9503	0.31873	0.05589	-0.759
Mof_S 	S 	0.0976	0.28272	0.18048	-0.747
Mof_S 	S 	0.0272	0.34851	0.14591	-0.778
Mof_N 	N 	0.1049	0.5929	0.5959	-0.313
Mof_N 	N 	0.6754	0.6105	0.5733	-0.315
Mof_N 	N 	0.9147	0.8376	0.6654	-0.332
Mof_N 	N 	0.9318	0.89	0.6934	-0.34
Mof_N 	N 	0.2207	0.0938	0.7122	-0.324
Mof_N 	N 	0.292	0.1091	0.6947	-0.345
Mof_N 	N 	0.7913	0.1311	0.6767	-0.349
Mof_N 	N 	0.7188	0.1494	0.6628	-0.371
Mof_N 	N 	0.441	0.1226	0.4556	-0.33
Mof_N 	N 	0.4452	0.111	0.402	-0.323
Mof_N 	N 	0.4386	0.3477	0.6789	-0.326
Mof_N 	N 	0.928	0.6911	0.4017	-0.329
Mof_N 	N 	0.9407	0.1064	0.9144	-0.263
Mof_N 	N 	0.4371	0.965	0.1354	-0.264
Mof_N 	N 	0.2156	0.198	0.2274	-0.251
Mof_N 	N 	0.181	0.2059	0.2047	-0.063
Mof_N 	N 	0.6049	0.5959	0.5929	-0.313
Mof_N 	N 	0.1754	0.5733	0.6105	-0.315
Mof_N 	N 	0.4147	0.6654	0.8376	-0.332
Mof_N 	N 	0.4318	0.6934	0.89	-0.34
Mof_N 	N 	0.7207	0.7122	0.0938	-0.324
Mof_N 	N 	0.792	0.6947	0.1091	-0.345
Mof_N 	N 	0.2913	0.6767	0.1311	-0.349
Mof_N 	N 	0.2188	0.6628	0.1494	-0.371
Mof_N 	N 	0.941	0.4556	0.1226	-0.33
Mof_N 	N 	0.9452	0.402	0.111	-0.323
Mof_N 	N 	0.9386	0.6789	0.3477	-0.326
Mof_N 	N 	0.428	0.4017	0.6911	-0.329
Mof_N 	N 	0.4407	0.9144	0.1064	-0.263
Mof_N 	N 	0.9371	0.1354	0.965	-0.264
Mof_N 	N 	0.7156	0.2274	0.198	-0.251
Mof_N 	N 	0.681	0.2047	0.2059	-0.063
Mof_In	In	0.54518	0.13946	0.90894	1.437
Mof_In	In	0.55024	0.21168	0.9863	1.477
Mof_In	In	0.60316	0.21712	0.89724	1.483
Mof_In	In	0.44707	0.20485	0.90967	1.486
Mof_In	In	0.55147	0.29036	0.05678	1.449
Mof_In	In	0.60695	0.29976	0.97828	1.484
Mof_In	In	0.64881	0.30076	0.89386	1.446
Mof_In	In	0.451	0.2878	0.99082	1.487
Mof_In	In	0.50406	0.29267	0.90101	1.495
Mof_In	In	0.3626	0.27821	0.91703	1.446
Mof_In	In	0.05046	0.34234	0.70586	1.444
Mof_In	In	0.10514	0.33064	0.784	1.491
Mof_In	In	0.05356	0.41961	0.77787	1.481
Mof_In	In	0.94971	0.3423	0.76976	1.48
Mof_In	In	0.14822	0.32822	0.8681	1.456
Mof_In	In	0.10695	0.41249	0.86609	1.486
Mof_In	In	0.05022	0.49067	0.85567	1.449
Mof_In	In	0.00379	0.33519	0.85871	1.495
Mof_In	In	0.9502	0.42367	0.85197	1.484
Mof_In	In	0.86232	0.34942	0.84198	1.452
Mof_In	In	0.58004	0.54858	0.31338	1.444
Mof_In	In	0.58276	0.46186	0.25818	1.473
Mof_In	In	0.66969	0.49525	0.34453	1.485
Mof_In	In	0.51027	0.48788	0.34846	1.495
Mof_In	In	0.58722	0.37138	0.21166	1.462
Mof_In	In	0.67422	0.39795	0.28691	1.498
Mof_In	In	0.74548	0.43114	0.36946	1.437
Mof_In	In	0.5136	0.39132	0.29132	1.504
Mof_In	In	0.60297	0.42279	0.37727	1.491
Mof_In	In	0.45567	0.41751	0.37571	1.438
Mof_In	In	0.21035	0.76843	0.82695	1.459
Mof_In	In	0.13597	0.70513	0.85449	1.476
Mof_In	In	0.14249	0.80337	0.90829	1.491
Mof_In	In	0.06467	0.77317	0.81909	1.484
Mof_In	In	0.05059	0.64912	0.88604	1.451
Mof_In	In	0.05573	0.73684	0.94042	1.492
Mof_In	In	0.97716	0.70696	0.85054	1.475
Mof_In	In	0.98297	0.80528	0.90548	1.499
Mof_In	In	0.0624	0.82857	0.98459	1.45
Mof_In	In	0.91845	0.77442	0.82122	1.411
Mof_In	In	0.04518	0.90894	0.13946	1.438
Mof_In	In	0.05024	0.9863	0.21168	1.477
Mof_In	In	0.10316	0.89724	0.21712	1.483
Mof_In	In	0.94707	0.90967	0.20485	1.486
Mof_In	In	0.05147	0.05678	0.29036	1.449
Mof_In	In	0.10695	0.97828	0.29976	1.484
Mof_In	In	0.14881	0.89386	0.30076	1.445
Mof_In	In	0.951	0.99082	0.2878	1.487
Mof_In	In	0.00406	0.90101	0.29267	1.496
Mof_In	In	0.8626	0.91703	0.27821	1.446
Mof_In	In	0.55046	0.70586	0.34234	1.444
Mof_In	In	0.60514	0.784	0.33064	1.491
Mof_In	In	0.55356	0.77787	0.41961	1.481
Mof_In	In	0.44971	0.76976	0.3423	1.48
Mof_In	In	0.64822	0.8681	0.32822	1.456
Mof_In	In	0.60695	0.86609	0.41249	1.486
Mof_In	In	0.55022	0.85567	0.49067	1.449
Mof_In	In	0.50379	0.85871	0.33519	1.495
Mof_In	In	0.4502	0.85197	0.42367	1.484
Mof_In	In	0.36232	0.84198	0.34942	1.452
Mof_In	In	0.08004	0.31338	0.54858	1.444
Mof_In	In	0.08276	0.25818	0.46186	1.473
Mof_In	In	0.16969	0.34453	0.49525	1.485
Mof_In	In	0.01027	0.34846	0.48788	1.495
Mof_In	In	0.08722	0.21166	0.37138	1.462
Mof_In	In	0.17422	0.28691	0.39795	1.498
Mof_In	In	0.24548	0.36946	0.43114	1.437
Mof_In	In	0.0136	0.29132	0.39132	1.505
Mof_In	In	0.10297	0.37727	0.42279	1.491
Mof_In	In	0.95567	0.37571	0.41751	1.438
Mof_In	In	0.71035	0.82695	0.76843	1.459
Mof_In	In	0.63597	0.85449	0.70513	1.476
Mof_In	In	0.64249	0.90829	0.80337	1.491
Mof_In	In	0.56467	0.81909	0.77317	1.484
Mof_In	In	0.55059	0.88604	0.64912	1.451
Mof_In	In	0.55573	0.94042	0.73684	1.492
Mof_In	In	0.47716	0.85054	0.70696	1.475
Mof_In	In	0.48297	0.90548	0.80528	1.499
Mof_In	In	0.5624	0.98459	0.82857	1.45
Mof_In	In	0.41845	0.82122	0.77442	1.411
Mof_H 	H 	0.4383	0.4013	0.4475	0.001
Mof_H 	H 	0.8621	0.4684	0.3844	-0.003
Mof_H 	H 	0.3335	0.3899	0.3521	0.151
Mof_H 	H 	0.3061	0.423	0.374	0.154
Mof_H 	H 	0.2803	0.3875	0.3707	0.136
Mof_H 	H 	0.5984	0.265	0.116	-0.002
Mof_H 	H 	0.6227	0.2979	0.1737	-0.009
Mof_H 	H 	0.4977	0.3562	0.1246	0.181
Mof_H 	H 	0.5364	0.3804	0.1514	0.17
Mof_H 	H 	0.5499	0.3702	0.1128	0.174
Mof_H 	H 	0.1631	0.2845	0.9151	-0.024
Mof_H 	H 	0.2452	0.265	0.9374	-0.006
Mof_H 	H 	0.3218	0.3125	0.8633	0.181
Mof_H 	H 	0.2671	0.3161	0.8459	0.172
Mof_H 	H 	0.2877	0.3451	0.8777	0.176
Mof_H 	H 	0.7484	0.3528	0.8176	-0.031
Mof_H 	H 	0.6665	0.3417	0.8387	0.005
Mof_H 	H 	0.7727	0.2934	0.896	0.193
Mof_H 	H 	0.8232	0.3133	0.8897	0.208
Mof_H 	H 	0.7819	0.3315	0.9171	0.208
Mof_H 	H 	0.0959	0.5467	0.9231	0.003
Mof_H 	H 	0.0846	0.607	0.9368	-0.006
Mof_H 	H 	0.9832	0.5569	0.8341	0.162
Mof_H 	H 	0.0208	0.5856	0.8294	0.155
Mof_H 	H 	0.0389	0.5479	0.8171	0.166
Mof_H 	H 	0.5823	0.5925	0.2597	-0.001
Mof_H 	H 	0.0682	0.2728	0.6512	-0.009
Mof_H 	H 	0.5776	0.651	0.381	0.168
Mof_H 	H 	0.5763	0.6115	0.3731	0.148
Mof_H 	H 	0.5229	0.6311	0.3745	0.164
Mof_H 	H 	0.117	0.8916	0.0216	-0.01
Mof_H 	H 	0.6035	0.0813	0.9333	-0
Mof_H 	H 	0.3291	0.7306	0.8048	-0.004
Mof_H 	H 	0.9383	0.4475	0.4013	0.001
Mof_H 	H 	0.3621	0.3844	0.4684	-0.003
Mof_H 	H 	0.8335	0.3521	0.3899	0.151
Mof_H 	H 	0.8061	0.374	0.423	0.154
Mof_H 	H 	0.7803	0.3707	0.3875	0.136
Mof_H 	H 	0.0984	0.116	0.265	-0.002
Mof_H 	H 	0.1227	0.1737	0.2979	-0.009
Mof_H 	H 	0.9977	0.1246	0.3562	0.181
Mof_H 	H 	0.0364	0.1514	0.3804	0.17
Mof_H 	H 	0.0499	0.1128	0.3702	0.174
Mof_H 	H 	0.6631	0.9151	0.2845	-0.024
Mof_H 	H 	0.7452	0.9374	0.265	-0.006
Mof_H 	H 	0.8218	0.8633	0.3125	0.181
Mof_H 	H 	0.7671	0.8459	0.3161	0.172
Mof_H 	H 	0.7877	0.8777	0.3451	0.176
Mof_H 	H 	0.2484	0.8176	0.3528	-0.031
Mof_H 	H 	0.1665	0.8387	0.3417	0.005
Mof_H 	H 	0.2727	0.896	0.2934	0.193
Mof_H 	H 	0.3232	0.8897	0.3133	0.208
Mof_H 	H 	0.2819	0.9171	0.3315	0.208
Mof_H 	H 	0.5959	0.9231	0.5467	0.003
Mof_H 	H 	0.5846	0.9368	0.607	-0.006
Mof_H 	H 	0.4832	0.8341	0.5569	0.162
Mof_H 	H 	0.5208	0.8294	0.5856	0.155
Mof_H 	H 	0.5389	0.8171	0.5479	0.166
Mof_H 	H 	0.0823	0.2597	0.5925	-0.001
Mof_H 	H 	0.5682	0.6512	0.2728	-0.009
Mof_H 	H 	0.0776	0.381	0.651	0.169
Mof_H 	H 	0.0763	0.3731	0.6115	0.148
Mof_H 	H 	0.0229	0.3745	0.6311	0.164
Mof_H 	H 	0.617	0.0216	0.8916	-0.01
Mof_H 	H 	0.1035	0.9333	0.0813	-0
Mof_H 	H 	0.8291	0.8048	0.7306	-0.004
Mof_C 	C 	0.3442	0.3983	0.4021	0.235
Mof_C 	C 	0.4049	0.3987	0.4369	-0.001
Mof_C 	C 	0.8646	0.4483	0.3899	-0.003
Mof_C 	C 	0.3134	0.3999	0.3721	-0.552
Mof_C 	C 	0.5625	0.3342	0.1334	0.29
Mof_C 	C 	0.5914	0.2879	0.1257	-0.001
Mof_C 	C 	0.604	0.3056	0.158	0.015
Mof_C 	C 	0.5343	0.3625	0.1303	-0.641
Mof_C 	C 	0.2592	0.3051	0.8889	0.285
Mof_C 	C 	0.1977	0.2888	0.9096	0.047
Mof_C 	C 	0.2425	0.2772	0.922	-0.016
Mof_C 	C 	0.2862	0.321	0.8672	-0.637
Mof_C 	C 	0.7577	0.325	0.871	0.367
Mof_C 	C 	0.7447	0.3437	0.8355	0.058
Mof_C 	C 	0.6998	0.3372	0.8462	-0.024
Mof_C 	C 	0.7861	0.3151	0.8953	-0.742
Mof_C 	C 	0.044	0.5684	0.8672	0.268
Mof_C 	C 	0.0807	0.5582	0.9094	-0.019
Mof_C 	C 	0.0755	0.591	0.9162	0.005
Mof_C 	C 	0.0197	0.5644	0.8342	-0.597
Mof_C 	C 	0.5635	0.6265	0.3321	0.257
Mof_C 	C 	0.5756	0.6071	0.2811	0.006
Mof_C 	C 	0.068	0.2885	0.6391	0
Mof_C 	C 	0.5598	0.6303	0.3683	-0.584
Mof_C 	C 	0.537	0.0645	0.8601	-0.007
Mof_C 	C 	0.094	0.8888	0.0382	0.006
Mof_C 	C 	0.589	0.072	0.9116	-0
Mof_C 	C 	0.281	0.8225	0.7901	-0.074
Mof_C 	C 	0.323	0.751	0.8004	0.026
Mof_C 	C 	0.8574	0.7846	0.7818	-0.21
Mof_C 	C 	0.8442	0.4021	0.3983	0.235
Mof_C 	C 	0.9049	0.4369	0.3987	-0.001
Mof_C 	C 	0.3646	0.3899	0.4483	-0.003
Mof_C 	C 	0.8134	0.3721	0.3999	-0.551
Mof_C 	C 	0.0625	0.1334	0.3342	0.29
Mof_C 	C 	0.0914	0.1257	0.2879	-0.001
Mof_C 	C 	0.104	0.158	0.3056	0.015
Mof_C 	C 	0.0343	0.1303	0.3625	-0.641
Mof_C 	C 	0.7592	0.8889	0.3051	0.285
Mof_C 	C 	0.6977	0.9096	0.2888	0.047
Mof_C 	C 	0.7425	0.922	0.2772	-0.016
Mof_C 	C 	0.7862	0.8672	0.321	-0.637
Mof_C 	C 	0.2577	0.871	0.325	0.367
Mof_C 	C 	0.2447	0.8355	0.3437	0.058
Mof_C 	C 	0.1998	0.8462	0.3372	-0.024
Mof_C 	C 	0.2861	0.8953	0.3151	-0.742
Mof_C 	C 	0.544	0.8672	0.5684	0.268
Mof_C 	C 	0.5807	0.9094	0.5582	-0.019
Mof_C 	C 	0.5755	0.9162	0.591	0.005
Mof_C 	C 	0.5197	0.8342	0.5644	-0.596
Mof_C 	C 	0.0635	0.3321	0.6265	0.258
Mof_C 	C 	0.0756	0.2811	0.6071	0.006
Mof_C 	C 	0.568	0.6391	0.2885	0
Mof_C 	C 	0.0598	0.3683	0.6303	-0.584
Mof_C 	C 	0.037	0.8601	0.0645	-0.007
Mof_C 	C 	0.594	0.0382	0.8888	0.006
Mof_C 	C 	0.089	0.9116	0.072	-0
Mof_C 	C 	0.781	0.7901	0.8225	-0.074
Mof_C 	C 	0.823	0.8004	0.751	0.026
Mof_C 	C 	0.3574	0.7818	0.7846	-0.21
Mof_S 	S 	0.5607	0.15239	0.96807	-0.75
Mof_S 	S 	0.6128	0.15788	0.87818	-0.751
Mof_S 	S 	0.562	0.23121	0.04561	-0.756
Mof_S 	S 	0.6166	0.2381	0.95876	-1.134
Mof_S 	S 	0.4609	0.22635	0.97131	-1.135
Mof_S 	S 	0.5133	0.23131	0.88209	-1.137
Mof_S 	S 	0.6192	0.32017	0.03725	-0.771
Mof_S 	S 	0.6707	0.32552	0.952	-0.769
Mof_S 	S 	0.4634	0.30805	0.05013	-0.768
Mof_S 	S 	0.517	0.31378	0.9627	-1.131
Mof_S 	S 	0.3644	0.30166	0.97644	-0.761
Mof_S 	S 	0.1182	0.31272	0.72514	-0.753
Mof_S 	S 	0.0671	0.40122	0.71858	-0.766
Mof_S 	S 	0.9614	0.32396	0.71042	-0.752
Mof_S 	S 	0.1189	0.39233	0.80463	-1.133
Mof_S 	S 	0.0647	0.47917	0.79679	-0.769
Mof_S 	S 	0.0152	0.31554	0.79742	-1.141
Mof_S 	S 	0.9638	0.40399	0.79065	-1.137
Mof_S 	S 	0.8623	0.32853	0.78179	-0.755
Mof_S 	S 	0.1708	0.38651	0.89177	-0.768
Mof_S 	S 	0.1182	0.47185	0.88573	-0.762
Mof_S 	S 	0.0674	0.31003	0.88603	-0.762
Mof_S 	S 	0.0164	0.39688	0.87904	-1.135
Mof_S 	S 	0.9171	0.32053	0.87103	-0.785
Mof_S 	S 	0.8631	0.40927	0.86461	-0.761
Mof_S 	S 	0.5783	0.5177	0.2549	-0.744
Mof_S 	S 	0.6648	0.55075	0.34073	-0.755
Mof_S 	S 	0.5045	0.54356	0.34512	-0.774
Mof_S 	S 	0.5818	0.42479	0.20239	-0.777
Mof_S 	S 	0.6672	0.45666	0.2864	-1.133
Mof_S 	S 	0.7471	0.48974	0.37464	-0.762
Mof_S 	S 	0.5076	0.44977	0.29005	-1.138
Mof_S 	S 	0.59471	0.48162	0.37626	-1.127
Mof_S 	S 	0.439	0.4748	0.3792	-0.768
Mof_S 	S 	0.6716	0.35932	0.23178	-0.746
Mof_S 	S 	0.7542	0.39217	0.31467	-0.77
Mof_S 	S 	0.5989	0.38581	0.31901	-1.145
Mof_S 	S 	0.6829	0.41481	0.40431	-0.762
Mof_S 	S 	0.4418	0.37803	0.32131	-0.773
Mof_S 	S 	0.5314	0.40822	0.40656	-0.76
Mof_S 	S 	0.1328	0.65006	0.8589	-0.766
Mof_S 	S 	0.1369	0.74533	0.91169	-1.138
Mof_S 	S 	0.0594	0.71485	0.82169	-1.127
Mof_S 	S 	0.9787	0.74721	0.90809	-1.135
Mof_S 	S 	0.4172	0.30592	0.88666	-0.775
Mof_S 	S 	0.3605	0.21847	0.89577	-0.758
Mof_S 	S 	0.4564	0.14557	0.89157	-0.76
Mof_S 	S 	0.5678	0.31818	0.87474	-0.765
Mof_S 	S 	0.6677	0.24253	0.87141	-0.769
Mof_S 	S 	0.5121	0.35385	0.23601	-0.772
Mof_S 	S 	0.1669	0.30373	0.80975	-0.77
Mof_S 	S 	0.961	0.48323	0.87115	-0.76
Mof_S 	S 	0.2217	0.80975	0.88057	-0.756
Mof_S 	S 	0.1439	0.78071	0.79173	-0.754
Mof_S 	S 	0.2154	0.7112	0.82642	-0.742
Mof_S 	S 	0.1435	0.84227	0.96317	-0.761
Mof_S 	S 	0.0644	0.81315	0.87667	-1.134
Mof_S 	S 	0.9911	0.78512	0.78946	-0.752
Mof_S 	S 	0.0588	0.77557	0.99555	-0.761
Mof_S 	S 	0.9836	0.84353	0.96045	-0.762
Mof_S 	S 	0.9068	0.81471	0.87513	-0.741
Mof_S 	S 	0.0497	0.68127	0.94411	-0.759
Mof_S 	S 	0.9024	0.71728	0.81952	-0.747
Mof_S 	S 	0.9728	0.65149	0.85409	-0.778
Mof_S 	S 	0.0607	0.96807	0.15239	-0.75
Mof_S 	S 	0.1128	0.87818	0.15788	-0.751
Mof_S 	S 	0.062	0.04561	0.23121	-0.756
Mof_S 	S 	0.1166	0.95876	0.2381	-1.134
Mof_S 	S 	0.9609	0.97131	0.22635	-1.135
Mof_S 	S 	0.0133	0.88209	0.23131	-1.137
Mof_S 	S 	0.1192	0.03725	0.32017	-0.771
Mof_S 	S 	0.1707	0.952	0.32552	-0.769
Mof_S 	S 	0.9634	0.05013	0.30805	-0.768
Mof_S 	S 	0.017	0.9627	0.31378	-1.131
Mof_S 	S 	0.8644	0.97644	0.30166	-0.761
Mof_S 	S 	0.6182	0.72514	0.31272	-0.753
Mof_S 	S 	0.5671	0.71858	0.40122	-0.766
Mof_S 	S 	0.4614	0.71042	0.32396	-0.753
Mof_S 	S 	0.6189	0.80463	0.39233	-1.133
Mof_S 	S 	0.5647	0.79679	0.47917	-0.769
Mof_S 	S 	0.5152	0.79742	0.31554	-1.141
Mof_S 	S 	0.4638	0.79065	0.40399	-1.137
Mof_S 	S 	0.3623	0.78179	0.32853	-0.755
Mof_S 	S 	0.6708	0.89177	0.38651	-0.768
Mof_S 	S 	0.6182	0.88573	0.47185	-0.762
Mof_S 	S 	0.5674	0.88603	0.31003	-0.762
Mof_S 	S 	0.5164	0.87904	0.39688	-1.135
Mof_S 	S 	0.4171	0.87103	0.32053	-0.785
Mof_S 	S 	0.3631	0.86461	0.40927	-0.761
Mof_S 	S 	0.0783	0.2549	0.5177	-0.744
Mof_S 	S 	0.1648	0.34073	0.55075	-0.755
Mof_S 	S 	0.0045	0.34512	0.54356	-0.773
Mof_S 	S 	0.0818	0.20239	0.42479	-0.777
Mof_S 	S 	0.1672	0.2864	0.45666	-1.133
Mof_S 	S 	0.2471	0.37464	0.48974	-0.762
Mof_S 	S 	0.0076	0.29005	0.44977	-1.138
Mof_S 	S 	0.09471	0.37626	0.48162	-1.127
Mof_S 	S 	0.939	0.3792	0.4748	-0.768
Mof_S 	S 	0.1716	0.23178	0.35932	-0.746
Mof_S 	S 	0.2542	0.31467	0.39217	-0.77
Mof_S 	S 	0.0989	0.31901	0.38581	-1.145
Mof_S 	S 	0.1829	0.40431	0.41481	-0.762
Mof_S 	S 	0.9418	0.32131	0.37803	-0.773
Mof_S 	S 	0.0314	0.40656	0.40822	-0.759
Mof_S 	S 	0.6328	0.8589	0.65006	-0.766
Mof_S 	S 	0.6369	0.91169	0.74533	-1.138
Mof_S 	S 	0.5594	0.82169	0.71485	-1.127
Mof_S 	S 	0.4787	0.90809	0.74721	-1.135
Mof_S 	S 	0.9172	0.88666	0.30592	-0.775
Mof_S 	S 	0.8605	0.89577	0.21847	-0.758
Mof_S 	S 	0.9564	0.89157	0.14557	-0.76
Mof_S 	S 	0.0678	0.87474	0.31818	-0.765
Mof_S 	S 	0.1677	0.87141	0.24253	-0.769
Mof_S 	S 	0.0121	0.23601	0.35385	-0.772
Mof_S 	S 	0.6669	0.80975	0.30373	-0.77
Mof_S 	S 	0.461	0.87115	0.48323	-0.76
Mof_S 	S 	0.7217	0.88057	0.80975	-0.756
Mof_S 	S 	0.6439	0.79173	0.78071	-0.754
Mof_S 	S 	0.7154	0.82642	0.7112	-0.742
Mof_S 	S 	0.6435	0.96317	0.84227	-0.761
Mof_S 	S 	0.5644	0.87667	0.81315	-1.134
Mof_S 	S 	0.4911	0.78946	0.78512	-0.752
Mof_S 	S 	0.5588	0.99555	0.77557	-0.761
Mof_S 	S 	0.4836	0.96045	0.84353	-0.762
Mof_S 	S 	0.4068	0.87513	0.81471	-0.741
Mof_S 	S 	0.5497	0.94411	0.68127	-0.759
Mof_S 	S 	0.4024	0.81952	0.71728	-0.747
Mof_S 	S 	0.4728	0.85409	0.65149	-0.778
Mof_N 	N 	0.3951	0.4041	0.4071	-0.313
Mof_N 	N 	0.8246	0.4267	0.3895	-0.315
Mof_N 	N 	0.5853	0.3346	0.1624	-0.332
Mof_N 	N 	0.5682	0.3066	0.11	-0.34
Mof_N 	N 	0.2793	0.2878	0.9062	-0.324
Mof_N 	N 	0.208	0.3053	0.8909	-0.345
Mof_N 	N 	0.7087	0.3233	0.8689	-0.349
Mof_N 	N 	0.7812	0.3372	0.8506	-0.371
Mof_N 	N 	0.059	0.5444	0.8774	-0.33
Mof_N 	N 	0.0548	0.598	0.889	-0.323
Mof_N 	N 	0.0614	0.3211	0.6523	-0.326
Mof_N 	N 	0.572	0.5983	0.3089	-0.329
Mof_N 	N 	0.5593	0.0856	0.8936	-0.263
Mof_N 	N 	0.0629	0.8646	0.035	-0.264
Mof_N 	N 	0.2844	0.7726	0.802	-0.251
Mof_N 	N 	0.319	0.7953	0.7941	-0.063
Mof_N 	N 	0.8951	0.4071	0.4041	-0.313
Mof_N 	N 	0.3246	0.3895	0.4267	-0.315
Mof_N 	N 	0.0853	0.1624	0.3346	-0.332
Mof_N 	N 	0.0682	0.11	0.3066	-0.34
Mof_N 	N 	0.7793	0.9062	0.2878	-0.324
Mof_N 	N 	0.708	0.8909	0.3053	-0.345
Mof_N 	N 	0.2087	0.8689	0.3233	-0.349
Mof_N 	N 	0.2812	0.8506	0.3372	-0.371
Mof_N 	N 	0.559	0.8774	0.5444	-0.33
Mof_N 	N 	0.5548	0.889	0.598	-0.323
Mof_N 	N 	0.5614	0.6523	0.3211	-0.326
Mof_N 	N 	0.072	0.3089	0.5983	-0.329
Mof_N 	N 	0.0593	0.8936	0.0856	-0.263
Mof_N 	N 	0.5629	0.035	0.8646	-0.264
Mof_N 	N 	0.7844	0.802	0.7726	-0.251
Mof_N 	N 	0.819	0.7941	0.7953	-0.063
_end
