data_functionalizedCrystal
_audit_creation_method	'EQeq! by Chris Wilmer'
_symmetry_space_group_name_H-M	'P1'
_symmetry_Int_Tables_number	1
_symmetry_cell_setting	triclinic
loop_
_symmetry_equiv_pos_as_xyz
  x,y,z
_cell_length_a	9.6931
_cell_length_b	12.6453
_cell_length_c	26.411
_cell_angle_alpha	91.391
_cell_angle_beta	90
_cell_angle_gamma	90
loop_
_atom_site_label
_atom_site_type_symbol
_atom_site_fract_x
_atom_site_fract_y
_atom_site_fract_z
_atom_site_charge
Mof_Eu	Eu	0.19708	0.85827	0.75328	2.371
Mof_Eu	Eu	0.69708	0.64173	0.74672	2.371
Mof_Eu	Eu	0.80292	0.14173	0.24672	2.371
Mof_Eu	Eu	0.30292	0.35827	0.25328	2.371
Mof_H 	H 	0.1724	0.4257	0.5061	0.089
Mof_H 	H 	0.4155	0.6375	0.437	0.084
Mof_H 	H 	0.2703	0.692	0.6352	0.097
Mof_H 	H 	0.3572	0.7717	0.6012	0.126
Mof_H 	H 	0.1588	0.4342	0.4182	0.043
Mof_H 	H 	0.3073	0.4543	0.3938	0.034
Mof_H 	H 	0.0877	0.6051	0.3989	0.157
Mof_H 	H 	0.2389	0.6345	0.3798	0.146
Mof_H 	H 	0.9288	0.8375	0.436	0.086
Mof_H 	H 	0.6723	0.0723	0.483	0.089
Mof_H 	H 	0.8292	0.7724	0.612	0.128
Mof_H 	H 	0.7437	0.8694	0.6366	0.132
Mof_H 	H 	0.6853	0.0411	0.398	0.035
Mof_H 	H 	0.84	0.0169	0.3804	0.055
Mof_H 	H 	0.6221	0.8682	0.3796	0.159
Mof_H 	H 	0.7779	0.8387	0.3653	0.155
Mof_H 	H 	0.6724	0.0743	0.9939	0.087
Mof_H 	H 	0.9155	0.8625	0.063	0.082
Mof_H 	H 	0.7703	0.808	0.8648	0.096
Mof_H 	H 	0.8572	0.7283	0.8988	0.124
Mof_H 	H 	0.6588	0.0658	0.0818	0.041
Mof_H 	H 	0.8073	0.0457	0.1062	0.033
Mof_H 	H 	0.5877	0.8949	0.1011	0.156
Mof_H 	H 	0.7389	0.8655	0.1202	0.146
Mof_H 	H 	0.4288	0.6625	0.064	0.086
Mof_H 	H 	0.1723	0.4277	0.017	0.089
Mof_H 	H 	0.3292	0.7276	0.888	0.128
Mof_H 	H 	0.2437	0.6306	0.8634	0.132
Mof_H 	H 	0.1853	0.4589	0.102	0.035
Mof_H 	H 	0.34	0.4831	0.1196	0.054
Mof_H 	H 	0.1221	0.6318	0.1204	0.159
Mof_H 	H 	0.2779	0.6613	0.1347	0.155
Mof_H 	H 	0.8276	0.5743	0.4939	0.088
Mof_H 	H 	0.5845	0.3625	0.563	0.083
Mof_H 	H 	0.7297	0.308	0.3648	0.096
Mof_H 	H 	0.6428	0.2283	0.3988	0.125
Mof_H 	H 	0.8412	0.5658	0.5818	0.042
Mof_H 	H 	0.6927	0.5457	0.6062	0.033
Mof_H 	H 	0.9123	0.3949	0.6011	0.156
Mof_H 	H 	0.7611	0.3655	0.6202	0.145
Mof_H 	H 	0.0712	0.1625	0.564	0.086
Mof_H 	H 	0.3277	0.9277	0.517	0.089
Mof_H 	H 	0.1708	0.2276	0.388	0.128
Mof_H 	H 	0.2563	0.1306	0.3634	0.132
Mof_H 	H 	0.3147	0.9589	0.602	0.035
Mof_H 	H 	0.16	0.9831	0.6196	0.055
Mof_H 	H 	0.3779	0.1318	0.6204	0.159
Mof_H 	H 	0.2221	0.1613	0.6347	0.155
Mof_H 	H 	0.3276	0.9257	0.0061	0.087
Mof_H 	H 	0.0845	0.1375	0.937	0.082
Mof_H 	H 	0.2297	0.192	0.1352	0.096
Mof_H 	H 	0.1428	0.2717	0.1012	0.124
Mof_H 	H 	0.3412	0.9342	0.9182	0.041
Mof_H 	H 	0.1927	0.9543	0.8938	0.033
Mof_H 	H 	0.4123	0.1051	0.8989	0.156
Mof_H 	H 	0.2611	0.1345	0.8798	0.146
Mof_H 	H 	0.5712	0.3375	0.936	0.086
Mof_H 	H 	0.8277	0.5723	0.983	0.089
Mof_H 	H 	0.6708	0.2724	0.112	0.128
Mof_H 	H 	0.7563	0.3694	0.1366	0.132
Mof_H 	H 	0.8147	0.5411	0.898	0.035
Mof_H 	H 	0.66	0.5169	0.8804	0.054
Mof_H 	H 	0.8779	0.3682	0.8796	0.159
Mof_H 	H 	0.7221	0.3387	0.8653	0.155
Mof_C 	C 	0.3876	0.595	0.55837	0.048
Mof_C 	C 	0.2918	0.5133	0.55434	0.056
Mof_C 	C 	0.2394	0.4805	0.50777	-0.115
Mof_C 	C 	0.2837	0.5266	0.46363	0.069
Mof_C 	C 	0.382	0.6064	0.46703	-0.112
Mof_C 	C 	0.4317	0.6411	0.51386	0.057
Mof_C 	C 	0.3647	0.715	0.62631	-0.28
Mof_C 	C 	0.4369	0.757	0.673	0.552
Mof_C 	C 	0.2308	0.4884	0.4129	-0.015
Mof_C 	C 	0.1705	0.5765	0.3814	-0.371
Mof_C 	C 	0.1309	0.5438	0.3283	0.467
Mof_C 	C 	0.8706	0.9242	0.55201	0.044
Mof_C 	C 	0.9251	0.8621	0.51253	0.06
Mof_C 	C 	0.8893	0.8799	0.46237	-0.111
Mof_C 	C 	0.7957	0.9598	0.4505	0.068
Mof_C 	C 	0.7384	0.0192	0.49	-0.114
Mof_C 	C 	0.7769	0.0018	0.53954	0.064
Mof_C 	C 	0.8377	0.841	0.63057	-0.294
Mof_C 	C 	0.9093	0.8249	0.68075	0.582
Mof_C 	C 	0.758	0.9861	0.3969	-0.009
Mof_C 	C 	0.7083	0.8959	0.3648	-0.37
Mof_C 	C 	0.6814	0.9248	0.3107	0.478
Mof_C 	C 	0.8876	0.905	0.94163	0.05
Mof_C 	C 	0.7918	0.9867	0.94566	0.053
Mof_C 	C 	0.7394	0.0195	0.99223	-0.111
Mof_C 	C 	0.7837	0.9734	0.03637	0.067
Mof_C 	C 	0.882	0.8936	0.03297	-0.11
Mof_C 	C 	0.9317	0.8589	0.98614	0.055
Mof_C 	C 	0.8647	0.785	0.87369	-0.279
Mof_C 	C 	0.9369	0.743	0.827	0.55
Mof_C 	C 	0.7308	0.0116	0.0871	-0.014
Mof_C 	C 	0.6705	0.9235	0.1186	-0.372
Mof_C 	C 	0.6309	0.9562	0.1717	0.468
Mof_C 	C 	0.3706	0.5758	0.94799	0.045
Mof_C 	C 	0.4251	0.6379	0.98747	0.06
Mof_C 	C 	0.3893	0.6201	0.03763	-0.111
Mof_C 	C 	0.2957	0.5402	0.0495	0.069
Mof_C 	C 	0.2384	0.4808	0.01	-0.115
Mof_C 	C 	0.2769	0.4982	0.96046	0.063
Mof_C 	C 	0.3377	0.659	0.86943	-0.295
Mof_C 	C 	0.4093	0.6751	0.81925	0.584
Mof_C 	C 	0.258	0.5139	0.1031	-0.009
Mof_C 	C 	0.2083	0.6041	0.1352	-0.37
Mof_C 	C 	0.1814	0.5752	0.1893	0.478
Mof_C 	C 	0.6124	0.405	0.44163	0.048
Mof_C 	C 	0.7082	0.4867	0.44566	0.056
Mof_C 	C 	0.7606	0.5195	0.49223	-0.115
Mof_C 	C 	0.7163	0.4734	0.53637	0.069
Mof_C 	C 	0.618	0.3936	0.53297	-0.112
Mof_C 	C 	0.5683	0.3589	0.48614	0.057
Mof_C 	C 	0.6353	0.285	0.37369	-0.28
Mof_C 	C 	0.5631	0.243	0.327	0.552
Mof_C 	C 	0.7692	0.5116	0.5871	-0.015
Mof_C 	C 	0.8295	0.4235	0.6186	-0.371
Mof_C 	C 	0.8691	0.4562	0.6717	0.467
Mof_C 	C 	0.1294	0.0758	0.44799	0.044
Mof_C 	C 	0.0749	0.1379	0.48747	0.06
Mof_C 	C 	0.1107	0.1201	0.53763	-0.111
Mof_C 	C 	0.2043	0.0402	0.5495	0.068
Mof_C 	C 	0.2616	0.9808	0.51	-0.114
Mof_C 	C 	0.2231	0.9982	0.46046	0.064
Mof_C 	C 	0.1623	0.159	0.36943	-0.294
Mof_C 	C 	0.0907	0.1751	0.31925	0.582
Mof_C 	C 	0.242	0.0139	0.6031	-0.009
Mof_C 	C 	0.2917	0.1041	0.6352	-0.37
Mof_C 	C 	0.3186	0.0752	0.6893	0.478
Mof_C 	C 	0.1124	0.095	0.05837	0.05
Mof_C 	C 	0.2082	0.0133	0.05434	0.053
Mof_C 	C 	0.2606	0.9805	0.00777	-0.111
Mof_C 	C 	0.2163	0.0266	0.96363	0.067
Mof_C 	C 	0.118	0.1064	0.96703	-0.11
Mof_C 	C 	0.0683	0.1411	0.01386	0.055
Mof_C 	C 	0.1353	0.215	0.12631	-0.279
Mof_C 	C 	0.0631	0.257	0.173	0.55
Mof_C 	C 	0.2692	0.9884	0.9129	-0.014
Mof_C 	C 	0.3295	0.0765	0.8814	-0.372
Mof_C 	C 	0.3691	0.0438	0.8283	0.468
Mof_C 	C 	0.6294	0.4242	0.05201	0.045
Mof_C 	C 	0.5749	0.3621	0.01253	0.06
Mof_C 	C 	0.6107	0.3799	0.96237	-0.111
Mof_C 	C 	0.7043	0.4598	0.9505	0.069
Mof_C 	C 	0.7616	0.5192	0.99	-0.115
Mof_C 	C 	0.7231	0.5018	0.03954	0.063
Mof_C 	C 	0.6623	0.341	0.13057	-0.295
Mof_C 	C 	0.5907	0.3249	0.18075	0.584
Mof_C 	C 	0.742	0.4861	0.8969	-0.009
Mof_C 	C 	0.7917	0.3959	0.8648	-0.37
Mof_C 	C 	0.8186	0.4248	0.8107	0.478
Mof_I 	I 	0.57661	0.76343	0.51716	-0.127
Mof_I 	I 	0.23583	0.43409	0.6199	-0.135
Mof_I 	I 	0.06241	0.73994	0.52831	-0.137
Mof_I 	I 	0.69627	0.10227	0.59664	-0.114
Mof_I 	I 	0.07661	0.73657	0.98284	-0.126
Mof_I 	I 	0.73583	0.06591	0.8801	-0.134
Mof_I 	I 	0.56241	0.76006	0.97169	-0.138
Mof_I 	I 	0.19627	0.39773	0.90336	-0.114
Mof_I 	I 	0.42339	0.23657	0.48284	-0.127
Mof_I 	I 	0.76417	0.56591	0.3801	-0.135
Mof_I 	I 	0.93759	0.26006	0.47169	-0.137
Mof_I 	I 	0.30373	0.89773	0.40336	-0.114
Mof_I 	I 	0.92339	0.26343	0.01716	-0.126
Mof_I 	I 	0.26417	0.93409	0.1199	-0.134
Mof_I 	I 	0.43759	0.23994	0.02831	-0.138
Mof_I 	I 	0.80373	0.60227	0.09664	-0.114
Mof_O 	O 	0.4406	0.627	0.60463	-0.135
Mof_O 	O 	0.3768	0.8347	0.69488	-0.589
Mof_O 	O 	0.5464	0.715	0.68687	-0.607
Mof_O 	O 	0.1521	0.4548	0.31084	-0.53
Mof_O 	O 	0.0765	0.619	0.30295	-0.258
Mof_O 	O 	0.916	0.9137	0.60095	-0.115
Mof_O 	O 	0.0191	0.8711	0.6908	-0.588
Mof_O 	O 	0.8499	0.7607	0.7088	-0.622
Mof_O 	O 	0.7703	0.9741	0.28671	-0.512
Mof_O 	O 	0.567	0.8961	0.29126	-0.264
Mof_O 	O 	0.9406	0.873	0.89537	-0.137
Mof_O 	O 	0.8768	0.6653	0.80512	-0.589
Mof_O 	O 	0.0464	0.785	0.81313	-0.605
Mof_O 	O 	0.6521	0.0452	0.18916	-0.53
Mof_O 	O 	0.5765	0.881	0.19705	-0.258
Mof_O 	O 	0.416	0.5863	0.89905	-0.114
Mof_O 	O 	0.5191	0.6289	0.8092	-0.59
Mof_O 	O 	0.3499	0.7393	0.7912	-0.622
Mof_O 	O 	0.2703	0.5259	0.21329	-0.512
Mof_O 	O 	0.067	0.6039	0.20874	-0.264
Mof_O 	O 	0.5594	0.373	0.39537	-0.135
Mof_O 	O 	0.6232	0.1653	0.30512	-0.589
Mof_O 	O 	0.4536	0.285	0.31313	-0.607
Mof_O 	O 	0.8479	0.5452	0.68916	-0.53
Mof_O 	O 	0.9235	0.381	0.69705	-0.258
Mof_O 	O 	0.084	0.0863	0.39905	-0.115
Mof_O 	O 	0.9809	0.1289	0.3092	-0.588
Mof_O 	O 	0.1501	0.2393	0.2912	-0.622
Mof_O 	O 	0.2297	0.0259	0.71329	-0.512
Mof_O 	O 	0.433	0.1039	0.70874	-0.264
Mof_O 	O 	0.0594	0.127	0.10463	-0.137
Mof_O 	O 	0.1232	0.3347	0.19488	-0.589
Mof_O 	O 	0.9536	0.215	0.18687	-0.605
Mof_O 	O 	0.3479	0.9548	0.81084	-0.53
Mof_O 	O 	0.4235	0.119	0.80295	-0.258
Mof_O 	O 	0.584	0.4137	0.10095	-0.114
Mof_O 	O 	0.4809	0.3711	0.1908	-0.59
Mof_O 	O 	0.6501	0.2607	0.2088	-0.622
Mof_O 	O 	0.7297	0.4741	0.78671	-0.512
Mof_O 	O 	0.933	0.3961	0.79126	-0.264
_end
