data_functionalizedCrystal
_audit_creation_method	'EQeq! by Chris Wilmer'
_symmetry_space_group_name_H-M	'P1'
_symmetry_Int_Tables_number	1
_symmetry_cell_setting	triclinic
loop_
_symmetry_equiv_pos_as_xyz
  x,y,z
_cell_length_a	12.5693
_cell_length_b	12.5693
_cell_length_c	8.2216
_cell_angle_alpha	90
_cell_angle_beta	90
_cell_angle_gamma	120
loop_
_atom_site_label
_atom_site_type_symbol
_atom_site_fract_x
_atom_site_fract_y
_atom_site_fract_z
_atom_site_charge
Mof_Mg	Mg	0.33431	0.3323	0.58747	1.48
Mof_O 	O 	0.42331	0.26452	0.44207	-0.461
Mof_O 	O 	0.4242	0.15567	0.22998	-0.554
Mof_O 	O 	0.40028	0.48903	0.44095	-0.461
Mof_O 	O 	0.50766	0.59967	0.22888	-0.555
Mof_O 	O 	0.17606	0.24059	0.44463	-0.46
Mof_O 	O 	0.06923	0.24535	0.23241	-0.548
Mof_C 	C 	0.37303	0.18661	0.3339	0.527
Mof_H 	H 	0.2868	0.1465	0.3298	-0.159
Mof_C 	C 	0.47645	0.51604	0.3299	0.528
Mof_H 	H 	0.5144	0.4681	0.3215	-0.16
Mof_C 	C 	0.14338	0.29332	0.3466	0.523
Mof_H 	H 	0.1782	0.3786	0.3596	-0.146
Mof_Mg	Mg	0.6677	0.00201	0.58747	1.478
Mof_O 	O 	0.73548	0.15879	0.44207	-0.465
Mof_O 	O 	0.84433	0.26853	0.22998	-0.552
Mof_O 	O 	0.51097	0.91125	0.44095	-0.463
Mof_O 	O 	0.40033	0.90799	0.22888	-0.558
Mof_O 	O 	0.75941	0.93547	0.44463	-0.456
Mof_O 	O 	0.75465	0.82388	0.23241	-0.551
Mof_C 	C 	0.81339	0.18642	0.3339	0.528
Mof_H 	H 	0.8535	0.1403	0.3298	-0.16
Mof_C 	C 	0.48396	0.96041	0.3299	0.549
Mof_H 	H 	0.5319	0.0463	0.3215	-0.172
Mof_C 	C 	0.70668	0.85006	0.3466	0.523
Mof_H 	H 	0.6214	0.7996	0.3596	-0.147
Mof_Mg	Mg	0.99799	0.66569	0.58747	1.478
Mof_O 	O 	0.84121	0.57669	0.44207	-0.464
Mof_O 	O 	0.73147	0.5758	0.22998	-0.553
Mof_O 	O 	0.08875	0.59972	0.44095	-0.463
Mof_O 	O 	0.09201	0.49234	0.22888	-0.558
Mof_O 	O 	0.06453	0.82394	0.44463	-0.452
Mof_O 	O 	0.17612	0.93077	0.23241	-0.545
Mof_C 	C 	0.81358	0.62697	0.3339	0.528
Mof_H 	H 	0.8597	0.7132	0.3298	-0.159
Mof_C 	C 	0.03959	0.52355	0.3299	0.549
Mof_H 	H 	0.9537	0.4856	0.3215	-0.172
Mof_C 	C 	0.14994	0.85662	0.3466	0.522
Mof_H 	H 	0.2004	0.8218	0.3596	-0.145
Mof_Mg	Mg	0.66569	0.6677	0.08747	1.451
Mof_O 	O 	0.57669	0.73548	0.94207	-0.311
Mof_O 	O 	0.5758	0.84433	0.72998	-0.408
Mof_O 	O 	0.59972	0.51097	0.94095	-0.312
Mof_O 	O 	0.49234	0.40033	0.72888	-0.414
Mof_O 	O 	0.82394	0.75941	0.94463	-0.313
Mof_O 	O 	0.93077	0.75465	0.73241	-0.418
Mof_C 	C 	0.62697	0.81339	0.8339	0.468
Mof_H 	H 	0.7132	0.8535	0.8298	-0.077
Mof_C 	C 	0.52355	0.48396	0.8299	0.469
Mof_H 	H 	0.4856	0.5319	0.8215	-0.081
Mof_C 	C 	0.85662	0.70668	0.8466	0.465
Mof_H 	H 	0.8218	0.6214	0.8596	-0.07
Mof_Mg	Mg	0.3323	0.99799	0.08747	1.452
Mof_O 	O 	0.26452	0.84121	0.94207	-0.308
Mof_O 	O 	0.15567	0.73147	0.72998	-0.407
Mof_O 	O 	0.48903	0.08875	0.94095	-0.309
Mof_O 	O 	0.59967	0.09201	0.72888	-0.409
Mof_O 	O 	0.24059	0.06453	0.94463	-0.319
Mof_O 	O 	0.24535	0.17612	0.73241	-0.414
Mof_C 	C 	0.18661	0.81358	0.8339	0.467
Mof_H 	H 	0.1465	0.8597	0.8298	-0.073
Mof_C 	C 	0.51604	0.03959	0.8299	0.436
Mof_H 	H 	0.4681	0.9537	0.8215	-0.062
Mof_C 	C 	0.29332	0.14994	0.8466	0.467
Mof_H 	H 	0.3786	0.2004	0.8596	-0.07
Mof_Mg	Mg	0.00201	0.33431	0.08747	1.452
Mof_O 	O 	0.15879	0.42331	0.94207	-0.309
Mof_O 	O 	0.26853	0.4242	0.72998	-0.411
Mof_O 	O 	0.91125	0.40028	0.94095	-0.31
Mof_O 	O 	0.90799	0.50766	0.72888	-0.409
Mof_O 	O 	0.93547	0.17606	0.94463	-0.327
Mof_O 	O 	0.82388	0.06923	0.73241	-0.423
Mof_C 	C 	0.18642	0.37303	0.8339	0.468
Mof_H 	H 	0.1403	0.2868	0.8298	-0.077
Mof_C 	C 	0.96041	0.47645	0.8299	0.437
Mof_H 	H 	0.0463	0.5144	0.8215	-0.062
Mof_C 	C 	0.85006	0.14338	0.8466	0.469
Mof_H 	H 	0.7996	0.1782	0.8596	-0.072
_end
