data_functionalizedCrystal
_audit_creation_method	'EQeq! by Chris Wilmer'
_symmetry_space_group_name_H-M	'P1'
_symmetry_Int_Tables_number	1
_symmetry_cell_setting	triclinic
loop_
_symmetry_equiv_pos_as_xyz
  x,y,z
_cell_length_a	14.5102
_cell_length_b	14.5102
_cell_length_c	15.832
_cell_angle_alpha	90
_cell_angle_beta	90
_cell_angle_gamma	120
loop_
_atom_site_label
_atom_site_type_symbol
_atom_site_fract_x
_atom_site_fract_y
_atom_site_fract_z
_atom_site_charge
Mof_O 	O 	0.9442	0.383	0.0907	-0.473
Mof_C 	C 	0.868	0.3502	0.139	0.438
Mof_O 	O 	0.8045	0.3853	0.1458	-0.468
Mof_C 	C 	0.8503	0.2595	0.1944	-0.201
Mof_H 	H 	0.8337	0.1966	0.1592	0.068
Mof_H 	H 	0.9157	0.279	0.227	0.111
Mof_O 	O 	0.617	0.5612	0.0907	-0.514
Mof_C 	C 	0.6498	0.5178	0.139	0.448
Mof_O 	O 	0.6147	0.4192	0.1458	-0.483
Mof_C 	C 	0.7405	0.5908	0.1944	-0.218
Mof_H 	H 	0.8034	0.6371	0.1592	0.099
Mof_H 	H 	0.721	0.6367	0.227	0.1
Mof_O 	O 	0.4388	0.0558	0.0907	-0.554
Mof_C 	C 	0.4822	0.132	0.139	0.426
Mof_O 	O 	0.5808	0.1955	0.1458	-0.489
Mof_C 	C 	0.4092	0.1497	0.1944	-0.177
Mof_H 	H 	0.3629	0.1663	0.1592	0.05
Mof_H 	H 	0.3633	0.0843	0.227	0.047
Mof_O 	O 	0.0558	0.617	0.0907	-0.549
Mof_C 	C 	0.132	0.6498	0.139	0.436
Mof_O 	O 	0.1955	0.6147	0.1458	-0.491
Mof_C 	C 	0.1497	0.7405	0.1944	-0.195
Mof_H 	H 	0.1663	0.8034	0.1592	0.077
Mof_H 	H 	0.0843	0.721	0.227	0.062
Mof_O 	O 	0.383	0.4388	0.0907	-0.523
Mof_C 	C 	0.3502	0.4822	0.139	0.429
Mof_O 	O 	0.3853	0.5808	0.1458	-0.479
Mof_C 	C 	0.2595	0.4092	0.1944	-0.181
Mof_H 	H 	0.1966	0.3629	0.1592	0.046
Mof_H 	H 	0.279	0.3633	0.227	0.072
Mof_O 	O 	0.5612	0.9442	0.0907	-0.468
Mof_C 	C 	0.5178	0.868	0.139	0.447
Mof_O 	O 	0.4192	0.8045	0.1458	-0.47
Mof_C 	C 	0.5908	0.8503	0.1944	-0.22
Mof_H 	H 	0.6371	0.8337	0.1592	0.094
Mof_H 	H 	0.6367	0.9157	0.227	0.125
Mof_O 	O 	0.383	0.9442	0.4093	-0.427
Mof_C 	C 	0.3502	0.868	0.361	0.44
Mof_O 	O 	0.3853	0.8045	0.3542	-0.444
Mof_C 	C 	0.2595	0.8503	0.3056	-0.202
Mof_H 	H 	0.1966	0.8337	0.3408	0.087
Mof_H 	H 	0.279	0.9157	0.273	0.112
Mof_O 	O 	0.5612	0.617	0.4093	-0.467
Mof_C 	C 	0.5178	0.6498	0.361	0.45
Mof_O 	O 	0.4192	0.6147	0.3542	-0.459
Mof_C 	C 	0.5908	0.7405	0.3056	-0.218
Mof_H 	H 	0.6371	0.8034	0.3408	0.118
Mof_H 	H 	0.6367	0.721	0.273	0.101
Mof_O 	O 	0.0558	0.4388	0.4093	-0.507
Mof_C 	C 	0.132	0.4822	0.361	0.428
Mof_O 	O 	0.1955	0.5808	0.3542	-0.465
Mof_C 	C 	0.1497	0.4092	0.3056	-0.177
Mof_H 	H 	0.1663	0.3629	0.3408	0.069
Mof_H 	H 	0.0843	0.3633	0.273	0.048
Mof_O 	O 	0.617	0.0558	0.4093	-0.503
Mof_C 	C 	0.6498	0.132	0.361	0.438
Mof_O 	O 	0.6147	0.1955	0.3542	-0.467
Mof_C 	C 	0.7405	0.1497	0.3056	-0.196
Mof_H 	H 	0.8034	0.1663	0.3408	0.096
Mof_H 	H 	0.721	0.0843	0.273	0.062
Mof_O 	O 	0.4388	0.383	0.4093	-0.476
Mof_C 	C 	0.4822	0.3502	0.361	0.431
Mof_O 	O 	0.5808	0.3853	0.3542	-0.455
Mof_C 	C 	0.4092	0.2595	0.3056	-0.181
Mof_H 	H 	0.3629	0.1966	0.3408	0.065
Mof_H 	H 	0.3633	0.279	0.273	0.073
Mof_O 	O 	0.9442	0.5612	0.4093	-0.423
Mof_C 	C 	0.868	0.5178	0.361	0.45
Mof_O 	O 	0.8045	0.4192	0.3542	-0.446
Mof_C 	C 	0.8503	0.5908	0.3056	-0.22
Mof_H 	H 	0.8337	0.6371	0.3408	0.113
Mof_H 	H 	0.9157	0.6367	0.273	0.125
Mof_O 	O 	0.0558	0.617	0.9093	-0.435
Mof_C 	C 	0.132	0.6498	0.861	0.438
Mof_O 	O 	0.1955	0.6147	0.8542	-0.439
Mof_C 	C 	0.1497	0.7405	0.8056	-0.201
Mof_H 	H 	0.1663	0.8034	0.8408	0.12
Mof_H 	H 	0.0843	0.721	0.773	0.072
Mof_O 	O 	0.383	0.4388	0.9093	-0.406
Mof_C 	C 	0.3502	0.4822	0.861	0.432
Mof_O 	O 	0.3853	0.5808	0.8542	-0.427
Mof_C 	C 	0.2595	0.4092	0.8056	-0.187
Mof_H 	H 	0.1966	0.3629	0.8408	0.091
Mof_H 	H 	0.279	0.3633	0.773	0.084
Mof_O 	O 	0.5612	0.9442	0.9093	-0.357
Mof_C 	C 	0.5178	0.868	0.861	0.45
Mof_O 	O 	0.4192	0.8045	0.8542	-0.419
Mof_C 	C 	0.5908	0.8503	0.8056	-0.225
Mof_H 	H 	0.6371	0.8337	0.8408	0.137
Mof_H 	H 	0.6367	0.9157	0.773	0.135
Mof_O 	O 	0.9442	0.383	0.9093	-0.361
Mof_C 	C 	0.868	0.3502	0.861	0.441
Mof_O 	O 	0.8045	0.3853	0.8542	-0.417
Mof_C 	C 	0.8503	0.2595	0.8056	-0.207
Mof_H 	H 	0.8337	0.1966	0.8408	0.111
Mof_H 	H 	0.9157	0.279	0.773	0.121
Mof_O 	O 	0.617	0.5612	0.9093	-0.398
Mof_C 	C 	0.6498	0.5178	0.861	0.45
Mof_O 	O 	0.6147	0.4192	0.8542	-0.431
Mof_C 	C 	0.7405	0.5908	0.8056	-0.223
Mof_H 	H 	0.8034	0.6371	0.8408	0.142
Mof_H 	H 	0.721	0.6367	0.773	0.111
Mof_O 	O 	0.4388	0.0558	0.9093	-0.438
Mof_C 	C 	0.4822	0.132	0.861	0.429
Mof_O 	O 	0.5808	0.1955	0.8542	-0.437
Mof_C 	C 	0.4092	0.1497	0.8056	-0.183
Mof_H 	H 	0.3629	0.1663	0.8408	0.095
Mof_H 	H 	0.3633	0.0843	0.773	0.059
Mof_O 	O 	0.617	0.0558	0.5907	-0.504
Mof_C 	C 	0.6498	0.132	0.639	0.442
Mof_O 	O 	0.6147	0.1955	0.6458	-0.47
Mof_C 	C 	0.7405	0.1497	0.6944	-0.204
Mof_H 	H 	0.8034	0.1663	0.6592	0.101
Mof_H 	H 	0.721	0.0843	0.727	0.073
Mof_O 	O 	0.4388	0.383	0.5907	-0.476
Mof_C 	C 	0.4822	0.3502	0.639	0.435
Mof_O 	O 	0.5808	0.3853	0.6458	-0.458
Mof_C 	C 	0.4092	0.2595	0.6944	-0.189
Mof_H 	H 	0.3629	0.1966	0.6592	0.07
Mof_H 	H 	0.3633	0.279	0.727	0.084
Mof_O 	O 	0.9442	0.5612	0.5907	-0.424
Mof_C 	C 	0.868	0.5178	0.639	0.453
Mof_O 	O 	0.8045	0.4192	0.6458	-0.449
Mof_C 	C 	0.8503	0.5908	0.6944	-0.228
Mof_H 	H 	0.8337	0.6371	0.6592	0.118
Mof_H 	H 	0.9157	0.6367	0.727	0.135
Mof_O 	O 	0.383	0.9442	0.5907	-0.428
Mof_C 	C 	0.3502	0.868	0.639	0.444
Mof_O 	O 	0.3853	0.8045	0.6458	-0.447
Mof_C 	C 	0.2595	0.8503	0.6944	-0.209
Mof_H 	H 	0.1966	0.8337	0.6592	0.092
Mof_H 	H 	0.279	0.9157	0.727	0.121
Mof_O 	O 	0.5612	0.617	0.5907	-0.468
Mof_C 	C 	0.5178	0.6498	0.639	0.454
Mof_O 	O 	0.4192	0.6147	0.6458	-0.462
Mof_C 	C 	0.5908	0.7405	0.6944	-0.226
Mof_H 	H 	0.6371	0.8034	0.6592	0.123
Mof_H 	H 	0.6367	0.721	0.727	0.112
Mof_O 	O 	0.0558	0.4388	0.5907	-0.508
Mof_C 	C 	0.132	0.4822	0.639	0.432
Mof_O 	O 	0.1955	0.5808	0.6458	-0.468
Mof_C 	C 	0.1497	0.4092	0.6944	-0.186
Mof_H 	H 	0.1663	0.3629	0.6592	0.075
Mof_H 	H 	0.0843	0.3633	0.727	0.06
Mof_Gd	Gd	0.66667	0.33333	0.25	1.878
Mof_Gd	Gd	0.33333	0.66667	0.25	1.878
Mof_Gd	Gd	0.33333	0.66667	0.75	1.894
Mof_Gd	Gd	0.66667	0.33333	0.75	1.894
Mof_Zn	Zn	-0	0.5	-0	1.139
Mof_Zn	Zn	0.5	0.5	-0	1.17
Mof_Zn	Zn	0.5	0	-0	1.139
Mof_Zn	Zn	0.5	0	0.5	1.192
Mof_Zn	Zn	0.5	0.5	0.5	1.224
Mof_Zn	Zn	-2.74283e-17	0.5	0.5	1.192
Mof_O 	O 	0.7653	0.2347	0.25	-0.232
Mof_O 	O 	0.7653	0.5306	0.25	-0.218
Mof_O 	O 	0.4694	0.2347	0.25	-0.246
Mof_O 	O 	0.2347	0.7653	0.25	-0.232
Mof_O 	O 	0.2347	0.4694	0.25	-0.246
Mof_O 	O 	0.5306	0.7653	0.25	-0.218
Mof_O 	O 	0.2347	0.7653	0.75	-0.225
Mof_O 	O 	0.2347	0.4694	0.75	-0.239
Mof_O 	O 	0.5306	0.7653	0.75	-0.211
Mof_O 	O 	0.7653	0.2347	0.75	-0.225
Mof_O 	O 	0.7653	0.5306	0.75	-0.211
Mof_O 	O 	0.4694	0.2347	0.75	-0.239
_end
