data_functionalizedCrystal
_audit_creation_method	'EQeq! by Chris Wilmer'
_symmetry_space_group_name_H-M	'P1'
_symmetry_Int_Tables_number	1
_symmetry_cell_setting	triclinic
loop_
_symmetry_equiv_pos_as_xyz
  x,y,z
_cell_length_a	21.8
_cell_length_b	21.8
_cell_length_c	35.407
_cell_angle_alpha	90
_cell_angle_beta	90
_cell_angle_gamma	90
loop_
_atom_site_label
_atom_site_type_symbol
_atom_site_fract_x
_atom_site_fract_y
_atom_site_fract_z
_atom_site_charge
Mof_Fe	Fe	0.71909	0.9998	0.90135	0.946
Mof_Fe	Fe	0.65711	0.0027	0.98651	0.978
Mof_Fe	Fe	0.80733	0.99276	0.97681	0.974
Mof_Fe	Fe	0.28091	0.0002	0.40135	0.945
Mof_Fe	Fe	0.34289	0.9973	0.48651	0.979
Mof_Fe	Fe	0.19267	0.00724	0.47681	0.974
Mof_Fe	Fe	0.78091	0.4998	0.34865	0.946
Mof_Fe	Fe	0.84289	0.5027	0.26349	0.978
Mof_Fe	Fe	0.69267	0.49276	0.27319	0.974
Mof_Fe	Fe	0.21909	0.5002	0.84865	0.946
Mof_Fe	Fe	0.15711	0.4973	0.76349	0.978
Mof_Fe	Fe	0.30733	0.50724	0.77319	0.974
Mof_H 	H 	0.5663	0.8853	0.8614	0.026
Mof_H 	H 	0.5033	0.8052	0.8451	0.074
Mof_H 	H 	0.4916	0.7543	0.9537	0.065
Mof_H 	H 	0.5579	0.8359	0.9708	0.03
Mof_H 	H 	0.5036	0.6932	0.842	0.087
Mof_H 	H 	0.4342	0.6215	0.8187	0.016
Mof_H 	H 	0.3265	0.6453	0.9076	0.012
Mof_H 	H 	0.3926	0.7192	0.9304	0.079
Mof_H 	H 	0.9211	0.1434	0.9474	0.024
Mof_H 	H 	0.9733	0.2279	0.9305	0.068
Mof_H 	H 	0.8916	0.2266	0.8324	0.064
Mof_H 	H 	0.8335	0.138	0.8502	0.025
Mof_H 	H 	0.0453	0.2707	0.9074	0.068
Mof_H 	H 	0.1163	0.3492	0.8899	0.024
Mof_H 	H 	0.0069	0.3807	0.8006	0.018
Mof_H 	H 	0.9431	0.3028	0.8195	0.073
Mof_H 	H 	0.6607	0.149	0.0629	0.024
Mof_H 	H 	0.6695	0.2149	0.1133	0.088
Mof_H 	H 	0.8508	0.1884	0.1157	0.072
Mof_H 	H 	0.8425	0.1163	0.0683	0.019
Mof_H 	H 	0.6877	0.2288	0.1767	0.071
Mof_H 	H 	0.685	0.3156	0.2175	0.042
Mof_H 	H 	0.8465	0.3733	0.1758	0.026
Mof_H 	H 	0.8494	0.2901	0.1354	0.065
Mof_H 	H 	0.4337	0.1147	0.3614	0.026
Mof_H 	H 	0.4967	0.1948	0.3451	0.074
Mof_H 	H 	0.5084	0.2457	0.4537	0.065
Mof_H 	H 	0.4421	0.1641	0.4708	0.03
Mof_H 	H 	0.4964	0.3068	0.342	0.087
Mof_H 	H 	0.5658	0.3785	0.3187	0.016
Mof_H 	H 	0.6735	0.3547	0.4076	0.012
Mof_H 	H 	0.6074	0.2808	0.4304	0.079
Mof_H 	H 	0.0789	0.8566	0.4474	0.024
Mof_H 	H 	0.0267	0.7721	0.4305	0.068
Mof_H 	H 	0.1084	0.7734	0.3324	0.063
Mof_H 	H 	0.1665	0.862	0.3502	0.025
Mof_H 	H 	0.9547	0.7293	0.4074	0.068
Mof_H 	H 	0.8837	0.6508	0.3899	0.024
Mof_H 	H 	0.9931	0.6193	0.3006	0.018
Mof_H 	H 	0.0569	0.6972	0.3195	0.073
Mof_H 	H 	0.3393	0.851	0.5629	0.024
Mof_H 	H 	0.3305	0.7851	0.6133	0.088
Mof_H 	H 	0.1492	0.8116	0.6157	0.072
Mof_H 	H 	0.1575	0.8837	0.5683	0.019
Mof_H 	H 	0.3123	0.7712	0.6767	0.071
Mof_H 	H 	0.315	0.6844	0.7175	0.042
Mof_H 	H 	0.1535	0.6267	0.6758	0.026
Mof_H 	H 	0.1506	0.7099	0.6354	0.065
Mof_H 	H 	0.9337	0.3853	0.3886	0.027
Mof_H 	H 	0.9967	0.3052	0.4049	0.074
Mof_H 	H 	0.0084	0.2543	0.2963	0.064
Mof_H 	H 	0.9421	0.3359	0.2792	0.031
Mof_H 	H 	0.9964	0.1932	0.408	0.089
Mof_H 	H 	0.0658	0.1215	0.4313	0.015
Mof_H 	H 	0.1735	0.1453	0.3424	0.011
Mof_H 	H 	0.1074	0.2192	0.3196	0.08
Mof_H 	H 	0.5789	0.6434	0.3026	0.023
Mof_H 	H 	0.5267	0.7279	0.3195	0.068
Mof_H 	H 	0.6084	0.7266	0.4176	0.064
Mof_H 	H 	0.6665	0.638	0.3998	0.025
Mof_H 	H 	0.4547	0.7707	0.3426	0.068
Mof_H 	H 	0.3837	0.8492	0.3601	0.024
Mof_H 	H 	0.4931	0.8807	0.4494	0.018
Mof_H 	H 	0.5569	0.8028	0.4305	0.073
Mof_H 	H 	0.8393	0.649	0.1871	0.024
Mof_H 	H 	0.8305	0.7149	0.1367	0.088
Mof_H 	H 	0.6492	0.6884	0.1343	0.072
Mof_H 	H 	0.6575	0.6163	0.1817	0.019
Mof_H 	H 	0.8123	0.7288	0.0733	0.071
Mof_H 	H 	0.815	0.8156	0.0325	0.042
Mof_H 	H 	0.6535	0.8733	0.0742	0.026
Mof_H 	H 	0.6506	0.7901	0.1146	0.065
Mof_H 	H 	0.0663	0.6147	0.8886	0.027
Mof_H 	H 	0.0033	0.6948	0.9049	0.074
Mof_H 	H 	0.9916	0.7457	0.7963	0.064
Mof_H 	H 	0.0579	0.6641	0.7792	0.031
Mof_H 	H 	0.0036	0.8068	0.908	0.089
Mof_H 	H 	0.9342	0.8785	0.9313	0.015
Mof_H 	H 	0.8265	0.8547	0.8424	0.011
Mof_H 	H 	0.8926	0.7808	0.8196	0.08
Mof_H 	H 	0.4211	0.3566	0.8026	0.023
Mof_H 	H 	0.4733	0.2721	0.8195	0.068
Mof_H 	H 	0.3916	0.2734	0.9176	0.064
Mof_H 	H 	0.3335	0.362	0.8998	0.025
Mof_H 	H 	0.5453	0.2293	0.8426	0.068
Mof_H 	H 	0.6163	0.1508	0.8601	0.024
Mof_H 	H 	0.5069	0.1193	0.9494	0.018
Mof_H 	H 	0.4431	0.1972	0.9305	0.073
Mof_H 	H 	0.1607	0.351	0.6871	0.024
Mof_H 	H 	0.1695	0.2851	0.6367	0.088
Mof_H 	H 	0.3508	0.3116	0.6343	0.072
Mof_H 	H 	0.3425	0.3837	0.6817	0.019
Mof_H 	H 	0.1877	0.2712	0.5733	0.071
Mof_H 	H 	0.185	0.1844	0.5325	0.042
Mof_H 	H 	0.3465	0.1267	0.5742	0.026
Mof_H 	H 	0.3494	0.2099	0.6146	0.065
Mof_C 	C 	0.6152	0.9153	0.9283	0.391
Mof_C 	C 	0.5721	0.8651	0.9183	-0.131
Mof_C 	C 	0.5525	0.8575	0.8803	0.048
Mof_C 	C 	0.5144	0.8108	0.8708	-0.104
Mof_C 	C 	0.4908	0.7703	0.8984	0.034
Mof_C 	C 	0.5074	0.7804	0.9346	-0.101
Mof_C 	C 	0.5481	0.8292	0.945	0.047
Mof_C 	C 	0.452	0.7176	0.8871	0.073
Mof_C 	C 	0.4664	0.6854	0.855	-0.141
Mof_C 	C 	0.4256	0.6414	0.842	0.089
Mof_C 	C 	0.3737	0.6254	0.8612	-0.169
Mof_C 	C 	0.3623	0.6552	0.8936	0.09
Mof_C 	C 	0.4013	0.7001	0.9069	-0.141
Mof_C 	C 	0.3301	0.5813	0.8438	0.413
Mof_C 	C 	0.828	0.0845	0.9169	0.415
Mof_C 	C 	0.8668	0.1359	0.9018	-0.145
Mof_C 	C 	0.9133	0.1608	0.9233	0.066
Mof_C 	C 	0.9483	0.208	0.9123	-0.118
Mof_C 	C 	0.9494	0.2282	0.8765	0.042
Mof_C 	C 	0.9006	0.207	0.8557	-0.104
Mof_C 	C 	0.8618	0.1561	0.8673	0.058
Mof_C 	C 	0.9912	0.2754	0.8629	0.065
Mof_C 	C 	0.0394	0.2916	0.8841	-0.118
Mof_C 	C 	0.083	0.3384	0.874	0.06
Mof_C 	C 	0.0731	0.3665	0.8396	-0.156
Mof_C 	C 	0.0183	0.3559	0.8216	0.077
Mof_C 	C 	0.9798	0.3099	0.8333	-0.133
Mof_C 	C 	0.1176	0.4151	0.8267	0.464
Mof_C 	C 	0.7426	0.0788	0.0301	0.398
Mof_C 	C 	0.7516	0.1263	0.0608	-0.141
Mof_C 	C 	0.6996	0.1561	0.0741	0.066
Mof_C 	C 	0.7054	0.1959	0.1036	-0.13
Mof_C 	C 	0.7593	0.2093	0.1196	0.064
Mof_C 	C 	0.8117	0.1793	0.1053	-0.124
Mof_C 	C 	0.8071	0.1375	0.0768	0.066
Mof_C 	C 	0.7645	0.2546	0.1487	0.032
Mof_C 	C 	0.7188	0.2592	0.1752	-0.094
Mof_C 	C 	0.7185	0.3104	0.2006	0.041
Mof_C 	C 	0.7666	0.3528	0.201	-0.137
Mof_C 	C 	0.8136	0.3447	0.1761	0.053
Mof_C 	C 	0.8146	0.296	0.1512	-0.101
Mof_C 	C 	0.7644	0.4073	0.2254	0.409
Mof_C 	C 	0.3848	0.0847	0.4283	0.391
Mof_C 	C 	0.4279	0.1349	0.4183	-0.131
Mof_C 	C 	0.4475	0.1425	0.3803	0.048
Mof_C 	C 	0.4856	0.1892	0.3708	-0.104
Mof_C 	C 	0.5092	0.2297	0.3984	0.034
Mof_C 	C 	0.4926	0.2196	0.4346	-0.101
Mof_C 	C 	0.4519	0.1708	0.445	0.047
Mof_C 	C 	0.548	0.2824	0.3871	0.073
Mof_C 	C 	0.5336	0.3146	0.355	-0.141
Mof_C 	C 	0.5744	0.3586	0.342	0.089
Mof_C 	C 	0.6263	0.3746	0.3612	-0.169
Mof_C 	C 	0.6377	0.3448	0.3936	0.09
Mof_C 	C 	0.5987	0.2999	0.4069	-0.141
Mof_C 	C 	0.6699	0.4187	0.3438	0.413
Mof_C 	C 	0.172	0.9155	0.4169	0.415
Mof_C 	C 	0.1332	0.8641	0.4018	-0.145
Mof_C 	C 	0.0867	0.8392	0.4233	0.066
Mof_C 	C 	0.0517	0.792	0.4123	-0.118
Mof_C 	C 	0.0506	0.7718	0.3765	0.042
Mof_C 	C 	0.0994	0.793	0.3557	-0.104
Mof_C 	C 	0.1382	0.8439	0.3673	0.058
Mof_C 	C 	0.0088	0.7246	0.3629	0.065
Mof_C 	C 	0.9606	0.7084	0.3841	-0.118
Mof_C 	C 	0.917	0.6616	0.374	0.06
Mof_C 	C 	0.9269	0.6335	0.3396	-0.156
Mof_C 	C 	0.9817	0.6441	0.3216	0.077
Mof_C 	C 	0.0202	0.6901	0.3333	-0.133
Mof_C 	C 	0.8824	0.5849	0.3267	0.464
Mof_C 	C 	0.2574	0.9212	0.5301	0.398
Mof_C 	C 	0.2484	0.8737	0.5608	-0.141
Mof_C 	C 	0.3004	0.8439	0.5741	0.066
Mof_C 	C 	0.2946	0.8041	0.6036	-0.13
Mof_C 	C 	0.2407	0.7907	0.6196	0.064
Mof_C 	C 	0.1883	0.8207	0.6053	-0.124
Mof_C 	C 	0.1929	0.8625	0.5768	0.066
Mof_C 	C 	0.2355	0.7454	0.6487	0.032
Mof_C 	C 	0.2812	0.7408	0.6752	-0.094
Mof_C 	C 	0.2815	0.6896	0.7006	0.041
Mof_C 	C 	0.2334	0.6472	0.701	-0.137
Mof_C 	C 	0.1864	0.6553	0.6761	0.053
Mof_C 	C 	0.1854	0.704	0.6512	-0.101
Mof_C 	C 	0.2356	0.5927	0.7254	0.409
Mof_C 	C 	0.8848	0.4153	0.3217	0.39
Mof_C 	C 	0.9279	0.3651	0.3317	-0.129
Mof_C 	C 	0.9475	0.3575	0.3697	0.046
Mof_C 	C 	0.9856	0.3108	0.3792	-0.101
Mof_C 	C 	0.0092	0.2703	0.3516	0.03
Mof_C 	C 	0.9926	0.2804	0.3154	-0.097
Mof_C 	C 	0.9519	0.3292	0.305	0.045
Mof_C 	C 	0.048	0.2176	0.3629	0.075
Mof_C 	C 	0.0336	0.1854	0.395	-0.144
Mof_C 	C 	0.0744	0.1414	0.408	0.091
Mof_C 	C 	0.1263	0.1254	0.3888	-0.171
Mof_C 	C 	0.1377	0.1552	0.3564	0.091
Mof_C 	C 	0.0987	0.2001	0.3431	-0.143
Mof_C 	C 	0.1699	0.0813	0.4062	0.414
Mof_C 	C 	0.672	0.5845	0.3331	0.415
Mof_C 	C 	0.6332	0.6359	0.3482	-0.145
Mof_C 	C 	0.5867	0.6608	0.3267	0.066
Mof_C 	C 	0.5517	0.708	0.3377	-0.119
Mof_C 	C 	0.5506	0.7282	0.3735	0.042
Mof_C 	C 	0.5994	0.707	0.3943	-0.104
Mof_C 	C 	0.6382	0.6561	0.3827	0.058
Mof_C 	C 	0.5088	0.7754	0.3871	0.064
Mof_C 	C 	0.4606	0.7916	0.3659	-0.117
Mof_C 	C 	0.417	0.8384	0.376	0.06
Mof_C 	C 	0.4269	0.8665	0.4104	-0.155
Mof_C 	C 	0.4817	0.8559	0.4284	0.077
Mof_C 	C 	0.5202	0.8099	0.4167	-0.133
Mof_C 	C 	0.3824	0.9151	0.4233	0.464
Mof_C 	C 	0.7574	0.5788	0.2199	0.398
Mof_C 	C 	0.7484	0.6263	0.1892	-0.141
Mof_C 	C 	0.8004	0.6561	0.1759	0.066
Mof_C 	C 	0.7946	0.6959	0.1464	-0.13
Mof_C 	C 	0.7407	0.7093	0.1304	0.064
Mof_C 	C 	0.6883	0.6793	0.1447	-0.124
Mof_C 	C 	0.6929	0.6375	0.1732	0.066
Mof_C 	C 	0.7355	0.7546	0.1013	0.032
Mof_C 	C 	0.7812	0.7592	0.0748	-0.094
Mof_C 	C 	0.7815	0.8104	0.0494	0.041
Mof_C 	C 	0.7334	0.8528	0.049	-0.137
Mof_C 	C 	0.6864	0.8447	0.0739	0.053
Mof_C 	C 	0.6854	0.796	0.0988	-0.101
Mof_C 	C 	0.7356	0.9073	0.0246	0.409
Mof_C 	C 	0.1152	0.5847	0.8217	0.39
Mof_C 	C 	0.0721	0.6349	0.8317	-0.129
Mof_C 	C 	0.0525	0.6425	0.8697	0.046
Mof_C 	C 	0.0144	0.6892	0.8792	-0.101
Mof_C 	C 	0.9908	0.7297	0.8516	0.03
Mof_C 	C 	0.0074	0.7196	0.8154	-0.097
Mof_C 	C 	0.0481	0.6708	0.805	0.045
Mof_C 	C 	0.952	0.7824	0.8629	0.075
Mof_C 	C 	0.9664	0.8146	0.895	-0.144
Mof_C 	C 	0.9256	0.8586	0.908	0.091
Mof_C 	C 	0.8737	0.8746	0.8888	-0.171
Mof_C 	C 	0.8623	0.8448	0.8564	0.091
Mof_C 	C 	0.9013	0.7999	0.8431	-0.143
Mof_C 	C 	0.8301	0.9187	0.9062	0.414
Mof_C 	C 	0.328	0.4155	0.8331	0.415
Mof_C 	C 	0.3668	0.3641	0.8482	-0.145
Mof_C 	C 	0.4133	0.3392	0.8267	0.066
Mof_C 	C 	0.4483	0.292	0.8377	-0.119
Mof_C 	C 	0.4494	0.2718	0.8735	0.042
Mof_C 	C 	0.4006	0.293	0.8943	-0.104
Mof_C 	C 	0.3618	0.3439	0.8827	0.058
Mof_C 	C 	0.4912	0.2246	0.8871	0.064
Mof_C 	C 	0.5394	0.2084	0.8659	-0.117
Mof_C 	C 	0.583	0.1616	0.876	0.06
Mof_C 	C 	0.5731	0.1335	0.9104	-0.155
Mof_C 	C 	0.5183	0.1441	0.9284	0.077
Mof_C 	C 	0.4798	0.1901	0.9167	-0.133
Mof_C 	C 	0.6176	0.0849	0.9233	0.464
Mof_C 	C 	0.2426	0.4212	0.7199	0.398
Mof_C 	C 	0.2516	0.3737	0.6892	-0.141
Mof_C 	C 	0.1996	0.3439	0.6759	0.066
Mof_C 	C 	0.2054	0.3041	0.6464	-0.13
Mof_C 	C 	0.2593	0.2907	0.6304	0.064
Mof_C 	C 	0.3117	0.3207	0.6447	-0.124
Mof_C 	C 	0.3071	0.3625	0.6732	0.066
Mof_C 	C 	0.2645	0.2454	0.6013	0.032
Mof_C 	C 	0.2188	0.2408	0.5748	-0.094
Mof_C 	C 	0.2185	0.1896	0.5494	0.041
Mof_C 	C 	0.2666	0.1472	0.549	-0.137
Mof_C 	C 	0.3136	0.1553	0.5739	0.053
Mof_C 	C 	0.3146	0.204	0.5988	-0.101
Mof_C 	C 	0.2644	0.0927	0.5246	0.409
Mof_O 	O 	0.6476	0.9391	0.9024	-0.386
Mof_O 	O 	0.6147	0.9314	0.9627	-0.392
Mof_O 	O 	0.3442	0.5591	0.8128	-0.415
Mof_O 	O 	0.279	0.5688	0.861	-0.387
Mof_O 	O 	0.8384	0.0678	0.9498	-0.399
Mof_O 	O 	0.7889	0.0625	0.8945	-0.387
Mof_O 	O 	0.1078	0.4367	0.7953	-0.416
Mof_O 	O 	0.1572	0.4301	0.8488	-0.42
Mof_O 	O 	0.7904	0.0487	0.0204	-0.396
Mof_O 	O 	0.6899	0.0728	0.0166	-0.4
Mof_O 	O 	0.8103	0.442	0.2251	-0.4
Mof_O 	O 	0.716	0.4159	0.2439	-0.394
Mof_O 	O 	0.7268	0.9977	0.95514	-0.537
Mof_O 	O 	0.3524	0.0609	0.4024	-0.386
Mof_O 	O 	0.3853	0.0686	0.4627	-0.393
Mof_O 	O 	0.6558	0.4409	0.3128	-0.415
Mof_O 	O 	0.721	0.4312	0.361	-0.387
Mof_O 	O 	0.1616	0.9322	0.4498	-0.399
Mof_O 	O 	0.2111	0.9375	0.3945	-0.387
Mof_O 	O 	0.8922	0.5633	0.2953	-0.416
Mof_O 	O 	0.8428	0.5699	0.3488	-0.42
Mof_O 	O 	0.2096	0.9513	0.5204	-0.396
Mof_O 	O 	0.3101	0.9272	0.5166	-0.4
Mof_O 	O 	0.1897	0.558	0.7251	-0.4
Mof_O 	O 	0.284	0.5841	0.7439	-0.394
Mof_O 	O 	0.2732	0.0023	0.45514	-0.537
Mof_O 	O 	0.8524	0.4391	0.3476	-0.386
Mof_O 	O 	0.8853	0.4314	0.2873	-0.392
Mof_O 	O 	0.1558	0.0591	0.4372	-0.415
Mof_O 	O 	0.221	0.0688	0.389	-0.388
Mof_O 	O 	0.6616	0.5678	0.3002	-0.399
Mof_O 	O 	0.7111	0.5625	0.3555	-0.388
Mof_O 	O 	0.3922	0.9367	0.4547	-0.416
Mof_O 	O 	0.3428	0.9301	0.4012	-0.42
Mof_O 	O 	0.7096	0.5487	0.2296	-0.396
Mof_O 	O 	0.8101	0.5728	0.2334	-0.4
Mof_O 	O 	0.6897	0.942	0.0249	-0.401
Mof_O 	O 	0.784	0.9159	0.0061	-0.394
Mof_O 	O 	0.7732	0.4977	0.29486	-0.537
Mof_O 	O 	0.1476	0.5609	0.8476	-0.386
Mof_O 	O 	0.1147	0.5686	0.7873	-0.392
Mof_O 	O 	0.8442	0.9409	0.9372	-0.415
Mof_O 	O 	0.779	0.9312	0.889	-0.388
Mof_O 	O 	0.3384	0.4322	0.8002	-0.399
Mof_O 	O 	0.2889	0.4375	0.8555	-0.388
Mof_O 	O 	0.6078	0.0633	0.9547	-0.416
Mof_O 	O 	0.6572	0.0699	0.9012	-0.42
Mof_O 	O 	0.2904	0.4513	0.7296	-0.396
Mof_O 	O 	0.1899	0.4272	0.7334	-0.4
Mof_O 	O 	0.3103	0.058	0.5249	-0.401
Mof_O 	O 	0.216	0.0841	0.5061	-0.394
Mof_O 	O 	0.2268	0.5023	0.79486	-0.537
Mof_Fe	Fe	0.5002	0.21909	0.15135	0.946
Mof_Fe	Fe	0.4973	0.15711	0.23651	0.978
Mof_Fe	Fe	0.50724	0.30733	0.22681	0.974
Mof_Fe	Fe	0.4998	0.78091	0.65135	0.946
Mof_Fe	Fe	0.5027	0.84289	0.73651	0.978
Mof_Fe	Fe	0.49276	0.69267	0.72681	0.974
Mof_Fe	Fe	0.9998	0.71909	0.09865	0.946
Mof_Fe	Fe	0.0027	0.65711	0.01349	0.978
Mof_Fe	Fe	0.99276	0.80733	0.02319	0.974
Mof_Fe	Fe	0.0002	0.28091	0.59865	0.945
Mof_Fe	Fe	0.9973	0.34289	0.51349	0.979
Mof_Fe	Fe	0.00724	0.19267	0.52319	0.974
Mof_H 	H 	0.6147	0.0663	0.1114	0.027
Mof_H 	H 	0.6948	0.0033	0.0951	0.074
Mof_H 	H 	0.7457	0.9916	0.2037	0.064
Mof_H 	H 	0.6641	0.0579	0.2208	0.031
Mof_H 	H 	0.8068	0.0036	0.092	0.089
Mof_H 	H 	0.8785	0.9342	0.0687	0.015
Mof_H 	H 	0.8547	0.8265	0.1576	0.011
Mof_H 	H 	0.7808	0.8926	0.1804	0.08
Mof_H 	H 	0.3566	0.4211	0.1974	0.023
Mof_H 	H 	0.2721	0.4733	0.1805	0.068
Mof_H 	H 	0.2734	0.3916	0.0824	0.064
Mof_H 	H 	0.362	0.3335	0.1002	0.025
Mof_H 	H 	0.2293	0.5453	0.1574	0.068
Mof_H 	H 	0.1508	0.6163	0.1399	0.024
Mof_H 	H 	0.1193	0.5069	0.0506	0.018
Mof_H 	H 	0.1972	0.4431	0.0695	0.073
Mof_H 	H 	0.351	0.1607	0.3129	0.024
Mof_H 	H 	0.2851	0.1695	0.3633	0.088
Mof_H 	H 	0.3116	0.3508	0.3657	0.072
Mof_H 	H 	0.3837	0.3425	0.3183	0.019
Mof_H 	H 	0.2712	0.1877	0.4267	0.071
Mof_H 	H 	0.1844	0.185	0.4675	0.042
Mof_H 	H 	0.1267	0.3465	0.4258	0.026
Mof_H 	H 	0.2099	0.3494	0.3854	0.065
Mof_H 	H 	0.3853	0.9337	0.6114	0.027
Mof_H 	H 	0.3052	0.9967	0.5951	0.074
Mof_H 	H 	0.2543	0.0084	0.7037	0.064
Mof_H 	H 	0.3359	0.9421	0.7208	0.031
Mof_H 	H 	0.1932	0.9964	0.592	0.089
Mof_H 	H 	0.1215	0.0658	0.5687	0.015
Mof_H 	H 	0.1453	0.1735	0.6576	0.011
Mof_H 	H 	0.2192	0.1074	0.6804	0.08
Mof_H 	H 	0.6434	0.5789	0.6974	0.023
Mof_H 	H 	0.7279	0.5267	0.6805	0.068
Mof_H 	H 	0.7266	0.6084	0.5824	0.064
Mof_H 	H 	0.638	0.6665	0.6002	0.025
Mof_H 	H 	0.7707	0.4547	0.6574	0.068
Mof_H 	H 	0.8492	0.3837	0.6399	0.024
Mof_H 	H 	0.8807	0.4931	0.5506	0.018
Mof_H 	H 	0.8028	0.5569	0.5695	0.073
Mof_H 	H 	0.649	0.8393	0.8129	0.024
Mof_H 	H 	0.7149	0.8305	0.8633	0.088
Mof_H 	H 	0.6884	0.6492	0.8657	0.072
Mof_H 	H 	0.6163	0.6575	0.8183	0.019
Mof_H 	H 	0.7288	0.8123	0.9267	0.071
Mof_H 	H 	0.8156	0.815	0.9675	0.042
Mof_H 	H 	0.8733	0.6535	0.9258	0.026
Mof_H 	H 	0.7901	0.6506	0.8854	0.065
Mof_H 	H 	0.8853	0.5663	0.1386	0.026
Mof_H 	H 	0.8052	0.5033	0.1549	0.074
Mof_H 	H 	0.7543	0.4916	0.0463	0.065
Mof_H 	H 	0.8359	0.5579	0.0292	0.03
Mof_H 	H 	0.6932	0.5036	0.158	0.087
Mof_H 	H 	0.6215	0.4342	0.1813	0.016
Mof_H 	H 	0.6453	0.3265	0.0924	0.012
Mof_H 	H 	0.7192	0.3926	0.0696	0.079
Mof_H 	H 	0.1434	0.9211	0.0526	0.024
Mof_H 	H 	0.2279	0.9733	0.0695	0.068
Mof_H 	H 	0.2266	0.8916	0.1676	0.064
Mof_H 	H 	0.138	0.8335	0.1498	0.025
Mof_H 	H 	0.2707	0.0453	0.0926	0.068
Mof_H 	H 	0.3492	0.1163	0.1101	0.024
Mof_H 	H 	0.3807	0.0069	0.1994	0.018
Mof_H 	H 	0.3028	0.9431	0.1805	0.073
Mof_H 	H 	0.149	0.6607	0.9371	0.024
Mof_H 	H 	0.2149	0.6695	0.8867	0.088
Mof_H 	H 	0.1884	0.8508	0.8843	0.072
Mof_H 	H 	0.1163	0.8425	0.9317	0.019
Mof_H 	H 	0.2288	0.6877	0.8233	0.071
Mof_H 	H 	0.3156	0.685	0.7825	0.042
Mof_H 	H 	0.3733	0.8465	0.8242	0.026
Mof_H 	H 	0.2901	0.8494	0.8646	0.065
Mof_H 	H 	0.1147	0.4337	0.6386	0.026
Mof_H 	H 	0.1948	0.4967	0.6549	0.074
Mof_H 	H 	0.2457	0.5084	0.5463	0.065
Mof_H 	H 	0.1641	0.4421	0.5292	0.03
Mof_H 	H 	0.3068	0.4964	0.658	0.087
Mof_H 	H 	0.3785	0.5658	0.6813	0.016
Mof_H 	H 	0.3547	0.6735	0.5924	0.012
Mof_H 	H 	0.2808	0.6074	0.5696	0.079
Mof_H 	H 	0.8566	0.0789	0.5526	0.024
Mof_H 	H 	0.7721	0.0267	0.5695	0.068
Mof_H 	H 	0.7734	0.1084	0.6676	0.063
Mof_H 	H 	0.862	0.1665	0.6498	0.025
Mof_H 	H 	0.7293	0.9547	0.5926	0.068
Mof_H 	H 	0.6508	0.8837	0.6101	0.024
Mof_H 	H 	0.6193	0.9931	0.6994	0.018
Mof_H 	H 	0.6972	0.0569	0.6805	0.073
Mof_H 	H 	0.851	0.3393	0.4371	0.024
Mof_H 	H 	0.7851	0.3305	0.3867	0.088
Mof_H 	H 	0.8116	0.1492	0.3843	0.072
Mof_H 	H 	0.8837	0.1575	0.4317	0.019
Mof_H 	H 	0.7712	0.3123	0.3233	0.071
Mof_H 	H 	0.6844	0.315	0.2825	0.042
Mof_H 	H 	0.6267	0.1535	0.3242	0.026
Mof_H 	H 	0.7099	0.1506	0.3646	0.065
Mof_C 	C 	0.5847	0.1152	0.1783	0.39
Mof_C 	C 	0.6349	0.0721	0.1683	-0.129
Mof_C 	C 	0.6425	0.0525	0.1303	0.046
Mof_C 	C 	0.6892	0.0144	0.1208	-0.101
Mof_C 	C 	0.7297	0.9908	0.1484	0.03
Mof_C 	C 	0.7196	0.0074	0.1846	-0.097
Mof_C 	C 	0.6708	0.0481	0.195	0.045
Mof_C 	C 	0.7824	0.952	0.1371	0.075
Mof_C 	C 	0.8146	0.9664	0.105	-0.144
Mof_C 	C 	0.8586	0.9256	0.092	0.091
Mof_C 	C 	0.8746	0.8737	0.1112	-0.171
Mof_C 	C 	0.8448	0.8623	0.1436	0.091
Mof_C 	C 	0.7999	0.9013	0.1569	-0.143
Mof_C 	C 	0.9187	0.8301	0.0938	0.414
Mof_C 	C 	0.4155	0.328	0.1669	0.415
Mof_C 	C 	0.3641	0.3668	0.1518	-0.145
Mof_C 	C 	0.3392	0.4133	0.1733	0.066
Mof_C 	C 	0.292	0.4483	0.1623	-0.119
Mof_C 	C 	0.2718	0.4494	0.1265	0.042
Mof_C 	C 	0.293	0.4006	0.1057	-0.104
Mof_C 	C 	0.3439	0.3618	0.1173	0.058
Mof_C 	C 	0.2246	0.4912	0.1129	0.064
Mof_C 	C 	0.2084	0.5394	0.1341	-0.117
Mof_C 	C 	0.1616	0.583	0.124	0.06
Mof_C 	C 	0.1335	0.5731	0.0896	-0.155
Mof_C 	C 	0.1441	0.5183	0.0716	0.077
Mof_C 	C 	0.1901	0.4798	0.0833	-0.133
Mof_C 	C 	0.0849	0.6176	0.0767	0.464
Mof_C 	C 	0.4212	0.2426	0.2801	0.398
Mof_C 	C 	0.3737	0.2516	0.3108	-0.141
Mof_C 	C 	0.3439	0.1996	0.3241	0.066
Mof_C 	C 	0.3041	0.2054	0.3536	-0.13
Mof_C 	C 	0.2907	0.2593	0.3696	0.064
Mof_C 	C 	0.3207	0.3117	0.3553	-0.124
Mof_C 	C 	0.3625	0.3071	0.3268	0.066
Mof_C 	C 	0.2454	0.2645	0.3987	0.032
Mof_C 	C 	0.2408	0.2188	0.4252	-0.094
Mof_C 	C 	0.1896	0.2185	0.4506	0.041
Mof_C 	C 	0.1472	0.2666	0.451	-0.137
Mof_C 	C 	0.1553	0.3136	0.4261	0.053
Mof_C 	C 	0.204	0.3146	0.4012	-0.101
Mof_C 	C 	0.0927	0.2644	0.4754	0.409
Mof_C 	C 	0.4153	0.8848	0.6783	0.39
Mof_C 	C 	0.3651	0.9279	0.6683	-0.129
Mof_C 	C 	0.3575	0.9475	0.6303	0.046
Mof_C 	C 	0.3108	0.9856	0.6208	-0.101
Mof_C 	C 	0.2703	0.0092	0.6484	0.03
Mof_C 	C 	0.2804	0.9926	0.6846	-0.097
Mof_C 	C 	0.3292	0.9519	0.695	0.045
Mof_C 	C 	0.2176	0.048	0.6371	0.075
Mof_C 	C 	0.1854	0.0336	0.605	-0.144
Mof_C 	C 	0.1414	0.0744	0.592	0.091
Mof_C 	C 	0.1254	0.1263	0.6112	-0.171
Mof_C 	C 	0.1552	0.1377	0.6436	0.091
Mof_C 	C 	0.2001	0.0987	0.6569	-0.143
Mof_C 	C 	0.0813	0.1699	0.5938	0.414
Mof_C 	C 	0.5845	0.672	0.6669	0.415
Mof_C 	C 	0.6359	0.6332	0.6518	-0.145
Mof_C 	C 	0.6608	0.5867	0.6733	0.066
Mof_C 	C 	0.708	0.5517	0.6623	-0.119
Mof_C 	C 	0.7282	0.5506	0.6265	0.042
Mof_C 	C 	0.707	0.5994	0.6057	-0.104
Mof_C 	C 	0.6561	0.6382	0.6173	0.058
Mof_C 	C 	0.7754	0.5088	0.6129	0.064
Mof_C 	C 	0.7916	0.4606	0.6341	-0.117
Mof_C 	C 	0.8384	0.417	0.624	0.06
Mof_C 	C 	0.8665	0.4269	0.5896	-0.155
Mof_C 	C 	0.8559	0.4817	0.5716	0.077
Mof_C 	C 	0.8099	0.5202	0.5833	-0.133
Mof_C 	C 	0.9151	0.3824	0.5767	0.464
Mof_C 	C 	0.5788	0.7574	0.7801	0.398
Mof_C 	C 	0.6263	0.7484	0.8108	-0.141
Mof_C 	C 	0.6561	0.8004	0.8241	0.066
Mof_C 	C 	0.6959	0.7946	0.8536	-0.13
Mof_C 	C 	0.7093	0.7407	0.8696	0.064
Mof_C 	C 	0.6793	0.6883	0.8553	-0.124
Mof_C 	C 	0.6375	0.6929	0.8268	0.066
Mof_C 	C 	0.7546	0.7355	0.8987	0.032
Mof_C 	C 	0.7592	0.7812	0.9252	-0.094
Mof_C 	C 	0.8104	0.7815	0.9506	0.041
Mof_C 	C 	0.8528	0.7334	0.951	-0.137
Mof_C 	C 	0.8447	0.6864	0.9261	0.053
Mof_C 	C 	0.796	0.6854	0.9012	-0.101
Mof_C 	C 	0.9073	0.7356	0.9754	0.409
Mof_C 	C 	0.9153	0.6152	0.0717	0.391
Mof_C 	C 	0.8651	0.5721	0.0817	-0.131
Mof_C 	C 	0.8575	0.5525	0.1197	0.048
Mof_C 	C 	0.8108	0.5144	0.1292	-0.104
Mof_C 	C 	0.7703	0.4908	0.1016	0.034
Mof_C 	C 	0.7804	0.5074	0.0654	-0.101
Mof_C 	C 	0.8292	0.5481	0.055	0.047
Mof_C 	C 	0.7176	0.452	0.1129	0.073
Mof_C 	C 	0.6854	0.4664	0.145	-0.141
Mof_C 	C 	0.6414	0.4256	0.158	0.089
Mof_C 	C 	0.6254	0.3737	0.1388	-0.169
Mof_C 	C 	0.6552	0.3623	0.1064	0.09
Mof_C 	C 	0.7001	0.4013	0.0931	-0.141
Mof_C 	C 	0.5813	0.3301	0.1562	0.413
Mof_C 	C 	0.0845	0.828	0.0831	0.415
Mof_C 	C 	0.1359	0.8668	0.0982	-0.145
Mof_C 	C 	0.1608	0.9133	0.0767	0.066
Mof_C 	C 	0.208	0.9483	0.0877	-0.118
Mof_C 	C 	0.2282	0.9494	0.1235	0.042
Mof_C 	C 	0.207	0.9006	0.1443	-0.104
Mof_C 	C 	0.1561	0.8618	0.1327	0.058
Mof_C 	C 	0.2754	0.9912	0.1371	0.065
Mof_C 	C 	0.2916	0.0394	0.1159	-0.118
Mof_C 	C 	0.3384	0.083	0.126	0.06
Mof_C 	C 	0.3665	0.0731	0.1604	-0.156
Mof_C 	C 	0.3559	0.0183	0.1784	0.077
Mof_C 	C 	0.3099	0.9798	0.1667	-0.133
Mof_C 	C 	0.4151	0.1176	0.1733	0.464
Mof_C 	C 	0.0788	0.7426	0.9699	0.398
Mof_C 	C 	0.1263	0.7516	0.9392	-0.141
Mof_C 	C 	0.1561	0.6996	0.9259	0.066
Mof_C 	C 	0.1959	0.7054	0.8964	-0.13
Mof_C 	C 	0.2093	0.7593	0.8804	0.064
Mof_C 	C 	0.1793	0.8117	0.8947	-0.124
Mof_C 	C 	0.1375	0.8071	0.9232	0.066
Mof_C 	C 	0.2546	0.7645	0.8513	0.032
Mof_C 	C 	0.2592	0.7188	0.8248	-0.094
Mof_C 	C 	0.3104	0.7185	0.7994	0.041
Mof_C 	C 	0.3528	0.7666	0.799	-0.137
Mof_C 	C 	0.3447	0.8136	0.8239	0.053
Mof_C 	C 	0.296	0.8146	0.8488	-0.101
Mof_C 	C 	0.4073	0.7644	0.7746	0.409
Mof_C 	C 	0.0847	0.3848	0.5717	0.391
Mof_C 	C 	0.1349	0.4279	0.5817	-0.131
Mof_C 	C 	0.1425	0.4475	0.6197	0.048
Mof_C 	C 	0.1892	0.4856	0.6292	-0.104
Mof_C 	C 	0.2297	0.5092	0.6016	0.034
Mof_C 	C 	0.2196	0.4926	0.5654	-0.101
Mof_C 	C 	0.1708	0.4519	0.555	0.047
Mof_C 	C 	0.2824	0.548	0.6129	0.073
Mof_C 	C 	0.3146	0.5336	0.645	-0.141
Mof_C 	C 	0.3586	0.5744	0.658	0.089
Mof_C 	C 	0.3746	0.6263	0.6388	-0.169
Mof_C 	C 	0.3448	0.6377	0.6064	0.09
Mof_C 	C 	0.2999	0.5987	0.5931	-0.141
Mof_C 	C 	0.4187	0.6699	0.6562	0.413
Mof_C 	C 	0.9155	0.172	0.5831	0.415
Mof_C 	C 	0.8641	0.1332	0.5982	-0.145
Mof_C 	C 	0.8392	0.0867	0.5767	0.066
Mof_C 	C 	0.792	0.0517	0.5877	-0.118
Mof_C 	C 	0.7718	0.0506	0.6235	0.042
Mof_C 	C 	0.793	0.0994	0.6443	-0.104
Mof_C 	C 	0.8439	0.1382	0.6327	0.058
Mof_C 	C 	0.7246	0.0088	0.6371	0.065
Mof_C 	C 	0.7084	0.9606	0.6159	-0.118
Mof_C 	C 	0.6616	0.917	0.626	0.06
Mof_C 	C 	0.6335	0.9269	0.6604	-0.156
Mof_C 	C 	0.6441	0.9817	0.6784	0.077
Mof_C 	C 	0.6901	0.0202	0.6667	-0.133
Mof_C 	C 	0.5849	0.8824	0.6733	0.464
Mof_C 	C 	0.9212	0.2574	0.4699	0.398
Mof_C 	C 	0.8737	0.2484	0.4392	-0.141
Mof_C 	C 	0.8439	0.3004	0.4259	0.066
Mof_C 	C 	0.8041	0.2946	0.3964	-0.13
Mof_C 	C 	0.7907	0.2407	0.3804	0.064
Mof_C 	C 	0.8207	0.1883	0.3947	-0.124
Mof_C 	C 	0.8625	0.1929	0.4232	0.066
Mof_C 	C 	0.7454	0.2355	0.3513	0.032
Mof_C 	C 	0.7408	0.2812	0.3248	-0.094
Mof_C 	C 	0.6896	0.2815	0.2994	0.041
Mof_C 	C 	0.6472	0.2334	0.299	-0.137
Mof_C 	C 	0.6553	0.1864	0.3239	0.053
Mof_C 	C 	0.704	0.1854	0.3488	-0.101
Mof_C 	C 	0.5927	0.2356	0.2746	0.409
Mof_O 	O 	0.5609	0.1476	0.1524	-0.386
Mof_O 	O 	0.5686	0.1147	0.2127	-0.392
Mof_O 	O 	0.9409	0.8442	0.0628	-0.415
Mof_O 	O 	0.9312	0.779	0.111	-0.388
Mof_O 	O 	0.4322	0.3384	0.1998	-0.399
Mof_O 	O 	0.4375	0.2889	0.1445	-0.388
Mof_O 	O 	0.0633	0.6078	0.0453	-0.416
Mof_O 	O 	0.0699	0.6572	0.0988	-0.42
Mof_O 	O 	0.4513	0.2904	0.2704	-0.396
Mof_O 	O 	0.4272	0.1899	0.2666	-0.4
Mof_O 	O 	0.058	0.3103	0.4751	-0.401
Mof_O 	O 	0.0841	0.216	0.4939	-0.394
Mof_O 	O 	0.5023	0.2268	0.20514	-0.537
Mof_O 	O 	0.4391	0.8524	0.6524	-0.386
Mof_O 	O 	0.4314	0.8853	0.7127	-0.392
Mof_O 	O 	0.0591	0.1558	0.5628	-0.415
Mof_O 	O 	0.0688	0.221	0.611	-0.388
Mof_O 	O 	0.5678	0.6616	0.6998	-0.399
Mof_O 	O 	0.5625	0.7111	0.6445	-0.388
Mof_O 	O 	0.9367	0.3922	0.5453	-0.416
Mof_O 	O 	0.9301	0.3428	0.5988	-0.42
Mof_O 	O 	0.5487	0.7096	0.7704	-0.396
Mof_O 	O 	0.5728	0.8101	0.7666	-0.4
Mof_O 	O 	0.942	0.6897	0.9751	-0.401
Mof_O 	O 	0.9159	0.784	0.9939	-0.394
Mof_O 	O 	0.4977	0.7732	0.70514	-0.537
Mof_O 	O 	0.9391	0.6476	0.0976	-0.386
Mof_O 	O 	0.9314	0.6147	0.0373	-0.392
Mof_O 	O 	0.5591	0.3442	0.1872	-0.415
Mof_O 	O 	0.5688	0.279	0.139	-0.387
Mof_O 	O 	0.0678	0.8384	0.0502	-0.399
Mof_O 	O 	0.0625	0.7889	0.1055	-0.387
Mof_O 	O 	0.4367	0.1078	0.2047	-0.416
Mof_O 	O 	0.4301	0.1572	0.1512	-0.42
Mof_O 	O 	0.0487	0.7904	0.9796	-0.396
Mof_O 	O 	0.0728	0.6899	0.9834	-0.4
Mof_O 	O 	0.442	0.8103	0.7749	-0.4
Mof_O 	O 	0.4159	0.716	0.7561	-0.394
Mof_O 	O 	0.9977	0.7268	0.04486	-0.537
Mof_O 	O 	0.0609	0.3524	0.5976	-0.386
Mof_O 	O 	0.0686	0.3853	0.5373	-0.393
Mof_O 	O 	0.4409	0.6558	0.6872	-0.415
Mof_O 	O 	0.4312	0.721	0.639	-0.387
Mof_O 	O 	0.9322	0.1616	0.5502	-0.399
Mof_O 	O 	0.9375	0.2111	0.6055	-0.387
Mof_O 	O 	0.5633	0.8922	0.7047	-0.416
Mof_O 	O 	0.5699	0.8428	0.6512	-0.42
Mof_O 	O 	0.9513	0.2096	0.4796	-0.396
Mof_O 	O 	0.9272	0.3101	0.4834	-0.4
Mof_O 	O 	0.558	0.1897	0.2749	-0.4
Mof_O 	O 	0.5841	0.284	0.2561	-0.394
Mof_O 	O 	0.0023	0.2732	0.54486	-0.537
_end
