data_functionalizedCrystal
_audit_creation_method	'EQeq! by Chris Wilmer'
_symmetry_space_group_name_H-M	'P1'
_symmetry_Int_Tables_number	1
_symmetry_cell_setting	triclinic
loop_
_symmetry_equiv_pos_as_xyz
  x,y,z
_cell_length_a	6.798
_cell_length_b	13.285
_cell_length_c	16.457
_cell_angle_alpha	90
_cell_angle_beta	90
_cell_angle_gamma	90
loop_
_atom_site_label
_atom_site_type_symbol
_atom_site_fract_x
_atom_site_fract_y
_atom_site_fract_z
_atom_site_charge
Mof_C 	C 	0.7747	0.6095	0.9045	0.422
Mof_C 	C 	0.7592	0.5349	0.8365	-0.08
Mof_C 	C 	0.9286	0.4897	0.8065	-0.012
Mof_H 	H 	0.0493	0.5023	0.8311	0.057
Mof_C 	C 	0.5784	0.5126	0.8024	-0.012
Mof_H 	H 	0.4644	0.5396	0.8248	0.059
Mof_C 	C 	0.5662	0.4507	0.7356	-0.006
Mof_H 	H 	0.4444	0.4375	0.7122	0.054
Mof_C 	C 	0.9177	0.4255	0.7399	-0.009
Mof_H 	H 	0.0309	0.3947	0.7202	0.059
Mof_C 	C 	0.737	0.4075	0.7026	-0.091
Mof_C 	C 	0.7258	0.3458	0.6274	0.435
Mof_O 	O 	0.2837	0.6896	0.0096	-0.677
Mof_O 	O 	0.8834	0.3138	0.5985	-0.508
Mof_O 	O 	0.6146	0.6464	0.9294	-0.502
Mof_O 	O 	0.5566	0.3307	0.5982	-0.512
Mof_O 	O 	0.9442	0.632	0.9298	-0.51
Mof_V 	V 	0.06409	0.73509	0.00142	1.834
Mof_C 	C 	0.7253	0.3905	0.4045	0.42
Mof_C 	C 	0.7408	0.4651	0.3365	-0.078
Mof_C 	C 	0.5714	0.5103	0.3065	-0.017
Mof_H 	H 	0.4507	0.4977	0.3311	0.058
Mof_C 	C 	0.9216	0.4874	0.3024	-0.019
Mof_H 	H 	0.0356	0.4604	0.3248	0.061
Mof_C 	C 	0.9338	0.5493	0.2356	0.002
Mof_H 	H 	0.0556	0.5625	0.2122	0.05
Mof_C 	C 	0.5823	0.5745	0.2399	-0.001
Mof_H 	H 	0.4691	0.6053	0.2202	0.054
Mof_C 	C 	0.763	0.5925	0.2026	-0.095
Mof_C 	C 	0.7742	0.6542	0.1274	0.437
Mof_O 	O 	0.2163	0.3104	0.5096	-0.676
Mof_O 	O 	0.6166	0.6862	0.0985	-0.506
Mof_O 	O 	0.8854	0.3536	0.4294	-0.502
Mof_O 	O 	0.9434	0.6693	0.0982	-0.51
Mof_O 	O 	0.5558	0.368	0.4298	-0.511
Mof_V 	V 	0.43591	0.26491	0.50142	1.835
Mof_C 	C 	0.2253	0.1095	0.5955	0.421
Mof_C 	C 	0.2408	0.0349	0.6635	-0.08
Mof_C 	C 	0.0714	0.9897	0.6935	-0.01
Mof_H 	H 	0.9507	0.0023	0.6689	0.052
Mof_C 	C 	0.4216	0.0126	0.6976	-0.012
Mof_H 	H 	0.5356	0.0396	0.6752	0.058
Mof_C 	C 	0.4338	0.9507	0.7644	-0.007
Mof_H 	H 	0.5556	0.9375	0.7878	0.054
Mof_C 	C 	0.0823	0.9255	0.7601	-0.009
Mof_H 	H 	0.9691	0.8947	0.7798	0.059
Mof_C 	C 	0.263	0.9075	0.7974	-0.09
Mof_C 	C 	0.2742	0.8458	0.8726	0.435
Mof_O 	O 	0.7163	0.1896	0.4904	-0.678
Mof_O 	O 	0.1166	0.8138	0.9015	-0.507
Mof_O 	O 	0.3854	0.1464	0.5706	-0.502
Mof_O 	O 	0.4434	0.8307	0.9018	-0.512
Mof_O 	O 	0.0558	0.132	0.5702	-0.508
Mof_V 	V 	0.93591	0.23509	0.49858	1.834
Mof_C 	C 	0.2747	0.8905	0.0955	0.416
Mof_C 	C 	0.2592	0.9651	0.1635	-0.067
Mof_C 	C 	0.4286	0.0103	0.1935	-0.026
Mof_H 	H 	0.5493	0.9977	0.1689	0.061
Mof_C 	C 	0.0784	0.9874	0.1976	-0.042
Mof_H 	H 	0.9644	0.9604	0.1752	0.072
Mof_C 	C 	0.0662	0.0493	0.2644	0.021
Mof_H 	H 	0.9444	0.0625	0.2878	0.042
Mof_C 	C 	0.4177	0.0745	0.2601	0.008
Mof_H 	H 	0.5309	0.1053	0.2798	0.051
Mof_C 	C 	0.237	0.0925	0.2974	-0.105
Mof_C 	C 	0.2258	0.1542	0.3726	0.44
Mof_O 	O 	0.7837	0.8104	0.9904	-0.677
Mof_O 	O 	0.3834	0.1862	0.4015	-0.508
Mof_O 	O 	0.1146	0.8536	0.0706	-0.502
Mof_O 	O 	0.0566	0.1693	0.4018	-0.511
Mof_O 	O 	0.4442	0.868	0.0702	-0.509
Mof_V 	V 	0.56409	0.76491	0.99858	1.835
_end
