data_functionalizedCrystal
_audit_creation_method	'EQeq! by Chris Wilmer'
_symmetry_space_group_name_H-M	'P1'
_symmetry_Int_Tables_number	1
_symmetry_cell_setting	triclinic
loop_
_symmetry_equiv_pos_as_xyz
  x,y,z
_cell_length_a	18.5728
_cell_length_b	18.5728
_cell_length_c	18.5728
_cell_angle_alpha	90
_cell_angle_beta	90
_cell_angle_gamma	90
loop_
_atom_site_label
_atom_site_type_symbol
_atom_site_fract_x
_atom_site_fract_y
_atom_site_fract_z
_atom_site_charge
Mof_Ce	Ce	0.3929	0.2598	0.2441	3.069
Mof_O 	O 	0.3225	0.3225	0.1775	-1.162
Mof_O 	O 	0.452	0.273	0.128	-0.585
Mof_O 	O 	0.357	0.257	0.053	-0.602
Mof_C 	C 	0.426	0.269	0.064	0.506
Mof_C 	C 	0.463	0.274	-0	-0.112
Mof_O 	O 	0.4696	0.257	0.349	-0.573
Mof_O 	O 	0.383	0.252	0.4345	-0.589
Mof_C 	C 	0.45	0.259	0.419	0.484
Mof_C 	C 	0.509	0.267	0.464	-0.105
Mof_Ce	Ce	0.6071	0.7402	0.2441	3.068
Mof_O 	O 	0.6775	0.6775	0.1775	-1.162
Mof_O 	O 	0.548	0.727	0.128	-0.586
Mof_O 	O 	0.643	0.743	0.053	-0.602
Mof_C 	C 	0.574	0.731	0.064	0.506
Mof_C 	C 	0.537	0.726	-0	-0.112
Mof_O 	O 	0.5304	0.743	0.349	-0.574
Mof_O 	O 	0.617	0.748	0.4345	-0.589
Mof_C 	C 	0.55	0.741	0.419	0.483
Mof_C 	C 	0.491	0.733	0.464	-0.105
Mof_Ce	Ce	0.6071	0.2598	0.7559	3.066
Mof_O 	O 	0.6775	0.3225	0.8225	-1.161
Mof_O 	O 	0.548	0.273	0.872	-0.585
Mof_O 	O 	0.643	0.257	0.947	-0.603
Mof_C 	C 	0.574	0.269	0.936	0.496
Mof_C 	C 	0.537	0.274	-0	-0.103
Mof_O 	O 	0.5304	0.257	0.651	-0.573
Mof_O 	O 	0.617	0.252	0.5655	-0.589
Mof_C 	C 	0.55	0.259	0.581	0.484
Mof_C 	C 	0.491	0.267	0.536	-0.105
Mof_Ce	Ce	0.3929	0.7402	0.7559	3.066
Mof_O 	O 	0.3225	0.6775	0.8225	-1.162
Mof_O 	O 	0.452	0.727	0.872	-0.585
Mof_O 	O 	0.357	0.743	0.947	-0.603
Mof_C 	C 	0.426	0.731	0.936	0.496
Mof_C 	C 	0.463	0.726	-0	-0.103
Mof_O 	O 	0.4696	0.743	0.651	-0.574
Mof_O 	O 	0.383	0.748	0.5655	-0.589
Mof_C 	C 	0.45	0.741	0.581	0.483
Mof_C 	C 	0.509	0.733	0.536	-0.106
Mof_Ce	Ce	0.2441	0.3929	0.2598	3.068
Mof_O 	O 	0.1775	0.3225	0.3225	-1.162
Mof_O 	O 	0.128	0.452	0.273	-0.585
Mof_O 	O 	0.053	0.357	0.257	-0.602
Mof_C 	C 	0.064	0.426	0.269	0.506
Mof_C 	C 	-2.91286e-33	0.463	0.274	-0.112
Mof_O 	O 	0.349	0.4696	0.257	-0.573
Mof_O 	O 	0.4345	0.383	0.252	-0.589
Mof_C 	C 	0.419	0.45	0.259	0.484
Mof_C 	C 	0.464	0.509	0.267	-0.105
Mof_Ce	Ce	0.2441	0.6071	0.7402	3.068
Mof_O 	O 	0.1775	0.6775	0.6775	-1.162
Mof_O 	O 	0.128	0.548	0.727	-0.586
Mof_O 	O 	0.053	0.643	0.743	-0.602
Mof_C 	C 	0.064	0.574	0.731	0.506
Mof_C 	C 	2.72206e-33	0.537	0.726	-0.112
Mof_O 	O 	0.349	0.5304	0.743	-0.574
Mof_O 	O 	0.4345	0.617	0.748	-0.589
Mof_C 	C 	0.419	0.55	0.741	0.483
Mof_C 	C 	0.464	0.491	0.733	-0.105
Mof_Ce	Ce	0.7559	0.6071	0.2598	3.066
Mof_O 	O 	0.8225	0.6775	0.3225	-1.161
Mof_O 	O 	0.872	0.548	0.273	-0.585
Mof_O 	O 	0.947	0.643	0.257	-0.603
Mof_C 	C 	0.936	0.574	0.269	0.496
Mof_C 	C 	1.02734e-33	0.537	0.274	-0.103
Mof_O 	O 	0.651	0.5304	0.257	-0.573
Mof_O 	O 	0.5655	0.617	0.252	-0.589
Mof_C 	C 	0.581	0.55	0.259	0.484
Mof_C 	C 	0.536	0.491	0.267	-0.105
Mof_Ce	Ce	0.7559	0.3929	0.7402	3.066
Mof_O 	O 	0.8225	0.3225	0.6775	-1.162
Mof_O 	O 	0.872	0.452	0.727	-0.585
Mof_O 	O 	0.947	0.357	0.743	-0.603
Mof_C 	C 	0.936	0.426	0.731	0.496
Mof_C 	C 	-5.15834e-33	0.463	0.726	-0.103
Mof_O 	O 	0.651	0.4696	0.743	-0.574
Mof_O 	O 	0.5655	0.383	0.748	-0.589
Mof_C 	C 	0.581	0.45	0.741	0.483
Mof_C 	C 	0.536	0.509	0.733	-0.106
Mof_Ce	Ce	0.2598	0.2441	0.3929	3.068
Mof_O 	O 	0.3225	0.1775	0.3225	-1.162
Mof_O 	O 	0.273	0.128	0.452	-0.585
Mof_O 	O 	0.257	0.053	0.357	-0.602
Mof_C 	C 	0.269	0.064	0.426	0.506
Mof_C 	C 	0.274	-3.9402e-33	0.463	-0.112
Mof_O 	O 	0.257	0.349	0.4696	-0.573
Mof_O 	O 	0.252	0.4345	0.383	-0.589
Mof_C 	C 	0.259	0.419	0.45	0.484
Mof_C 	C 	0.267	0.464	0.509	-0.105
Mof_Ce	Ce	0.7402	0.2441	0.6071	3.068
Mof_O 	O 	0.6775	0.1775	0.6775	-1.162
Mof_O 	O 	0.727	0.128	0.548	-0.586
Mof_O 	O 	0.743	0.053	0.643	-0.602
Mof_C 	C 	0.731	0.064	0.574	0.506
Mof_C 	C 	0.726	0	0.537	-0.112
Mof_O 	O 	0.743	0.349	0.5304	-0.574
Mof_O 	O 	0.748	0.4345	0.617	-0.589
Mof_C 	C 	0.741	0.419	0.55	0.483
Mof_C 	C 	0.733	0.464	0.491	-0.105
Mof_Ce	Ce	0.2598	0.7559	0.6071	3.066
Mof_O 	O 	0.3225	0.8225	0.6775	-1.161
Mof_O 	O 	0.273	0.872	0.548	-0.585
Mof_O 	O 	0.257	0.947	0.643	-0.603
Mof_C 	C 	0.269	0.936	0.574	0.496
Mof_C 	C 	0.274	0	0.537	-0.103
Mof_O 	O 	0.257	0.651	0.5304	-0.573
Mof_O 	O 	0.252	0.5655	0.617	-0.589
Mof_C 	C 	0.259	0.581	0.55	0.484
Mof_C 	C 	0.267	0.536	0.491	-0.105
Mof_Ce	Ce	0.7402	0.7559	0.3929	3.066
Mof_O 	O 	0.6775	0.8225	0.3225	-1.162
Mof_O 	O 	0.727	0.872	0.452	-0.585
Mof_O 	O 	0.743	0.947	0.357	-0.603
Mof_C 	C 	0.731	0.936	0.426	0.496
Mof_C 	C 	0.726	-3.9402e-33	0.463	-0.103
Mof_O 	O 	0.743	0.651	0.4696	-0.574
Mof_O 	O 	0.748	0.5655	0.383	-0.589
Mof_C 	C 	0.741	0.581	0.45	0.483
Mof_C 	C 	0.733	0.536	0.509	-0.106
Mof_Ce	Ce	0.1071	0.2402	0.2559	3.072
Mof_O 	O 	0.1775	0.1775	0.3225	-1.163
Mof_O 	O 	0.048	0.227	0.372	-0.583
Mof_O 	O 	0.143	0.243	0.447	-0.602
Mof_C 	C 	0.074	0.231	0.436	0.503
Mof_C 	C 	0.037	0.226	0.5	-0.101
Mof_O 	O 	0.0304	0.243	0.151	-0.573
Mof_O 	O 	0.117	0.248	0.0655	-0.59
Mof_C 	C 	0.05	0.241	0.081	0.494
Mof_C 	C 	0.991	0.233	0.036	-0.115
Mof_Ce	Ce	0.8929	0.7598	0.2559	3.062
Mof_O 	O 	0.8225	0.8225	0.3225	-1.161
Mof_O 	O 	0.952	0.773	0.372	-0.589
Mof_O 	O 	0.857	0.757	0.447	-0.604
Mof_C 	C 	0.926	0.769	0.436	0.509
Mof_C 	C 	0.963	0.774	0.5	-0.125
Mof_O 	O 	0.9696	0.757	0.151	-0.573
Mof_O 	O 	0.883	0.752	0.0655	-0.584
Mof_C 	C 	0.95	0.759	0.081	0.468
Mof_C 	C 	0.009	0.767	0.036	-0.075
Mof_Ce	Ce	0.8929	0.2402	0.7441	3.065
Mof_O 	O 	0.8225	0.1775	0.6775	-1.162
Mof_O 	O 	0.952	0.227	0.628	-0.589
Mof_O 	O 	0.857	0.243	0.553	-0.604
Mof_C 	C 	0.926	0.231	0.564	0.509
Mof_C 	C 	0.963	0.226	0.5	-0.124
Mof_O 	O 	0.9696	0.243	0.849	-0.575
Mof_O 	O 	0.883	0.248	0.9345	-0.589
Mof_C 	C 	0.95	0.241	0.919	0.473
Mof_C 	C 	0.009	0.233	0.964	-0.096
Mof_Ce	Ce	0.1071	0.7598	0.7441	3.068
Mof_O 	O 	0.1775	0.8225	0.6775	-1.162
Mof_O 	O 	0.048	0.773	0.628	-0.583
Mof_O 	O 	0.143	0.757	0.553	-0.602
Mof_C 	C 	0.074	0.769	0.564	0.502
Mof_C 	C 	0.037	0.774	0.5	-0.102
Mof_O 	O 	0.0304	0.757	0.849	-0.575
Mof_O 	O 	0.117	0.752	0.9345	-0.595
Mof_C 	C 	0.05	0.759	0.919	0.498
Mof_C 	C 	0.991	0.767	0.964	-0.137
Mof_Ce	Ce	0.2559	0.1071	0.2402	3.072
Mof_O 	O 	0.3225	0.1775	0.1775	-1.163
Mof_O 	O 	0.372	0.048	0.227	-0.583
Mof_O 	O 	0.447	0.143	0.243	-0.602
Mof_C 	C 	0.436	0.074	0.231	0.503
Mof_C 	C 	0.5	0.037	0.226	-0.101
Mof_O 	O 	0.151	0.0304	0.243	-0.573
Mof_O 	O 	0.0655	0.117	0.248	-0.59
Mof_C 	C 	0.081	0.05	0.241	0.494
Mof_C 	C 	0.036	0.991	0.233	-0.115
Mof_Ce	Ce	0.2559	0.8929	0.7598	3.062
Mof_O 	O 	0.3225	0.8225	0.8225	-1.161
Mof_O 	O 	0.372	0.952	0.773	-0.589
Mof_O 	O 	0.447	0.857	0.757	-0.604
Mof_C 	C 	0.436	0.926	0.769	0.509
Mof_C 	C 	0.5	0.963	0.774	-0.125
Mof_O 	O 	0.151	0.9696	0.757	-0.573
Mof_O 	O 	0.0655	0.883	0.752	-0.584
Mof_C 	C 	0.081	0.95	0.759	0.468
Mof_C 	C 	0.036	0.009	0.767	-0.075
Mof_Ce	Ce	0.7441	0.8929	0.2402	3.065
Mof_O 	O 	0.6775	0.8225	0.1775	-1.162
Mof_O 	O 	0.628	0.952	0.227	-0.589
Mof_O 	O 	0.553	0.857	0.243	-0.604
Mof_C 	C 	0.564	0.926	0.231	0.509
Mof_C 	C 	0.5	0.963	0.226	-0.124
Mof_O 	O 	0.849	0.9696	0.243	-0.575
Mof_O 	O 	0.9345	0.883	0.248	-0.589
Mof_C 	C 	0.919	0.95	0.241	0.473
Mof_C 	C 	0.964	0.009	0.233	-0.096
Mof_Ce	Ce	0.7441	0.1071	0.7598	3.068
Mof_O 	O 	0.6775	0.1775	0.8225	-1.162
Mof_O 	O 	0.628	0.048	0.773	-0.583
Mof_O 	O 	0.553	0.143	0.757	-0.602
Mof_C 	C 	0.564	0.074	0.769	0.502
Mof_C 	C 	0.5	0.037	0.774	-0.102
Mof_O 	O 	0.849	0.0304	0.757	-0.575
Mof_O 	O 	0.9345	0.117	0.752	-0.595
Mof_C 	C 	0.919	0.05	0.759	0.498
Mof_C 	C 	0.964	0.991	0.767	-0.137
Mof_Ce	Ce	0.2402	0.2559	0.1071	3.072
Mof_O 	O 	0.1775	0.3225	0.1775	-1.163
Mof_O 	O 	0.227	0.372	0.048	-0.583
Mof_O 	O 	0.243	0.447	0.143	-0.602
Mof_C 	C 	0.231	0.436	0.074	0.503
Mof_C 	C 	0.226	0.5	0.037	-0.101
Mof_O 	O 	0.243	0.151	0.0304	-0.573
Mof_O 	O 	0.248	0.0655	0.117	-0.59
Mof_C 	C 	0.241	0.081	0.05	0.494
Mof_C 	C 	0.233	0.036	0.991	-0.115
Mof_Ce	Ce	0.7598	0.2559	0.8929	3.062
Mof_O 	O 	0.8225	0.3225	0.8225	-1.161
Mof_O 	O 	0.773	0.372	0.952	-0.589
Mof_O 	O 	0.757	0.447	0.857	-0.604
Mof_C 	C 	0.769	0.436	0.926	0.509
Mof_C 	C 	0.774	0.5	0.963	-0.125
Mof_O 	O 	0.757	0.151	0.9696	-0.573
Mof_O 	O 	0.752	0.0655	0.883	-0.584
Mof_C 	C 	0.759	0.081	0.95	0.468
Mof_C 	C 	0.767	0.036	0.009	-0.075
Mof_Ce	Ce	0.2402	0.7441	0.8929	3.065
Mof_O 	O 	0.1775	0.6775	0.8225	-1.162
Mof_O 	O 	0.227	0.628	0.952	-0.589
Mof_O 	O 	0.243	0.553	0.857	-0.604
Mof_C 	C 	0.231	0.564	0.926	0.509
Mof_C 	C 	0.226	0.5	0.963	-0.124
Mof_O 	O 	0.243	0.849	0.9696	-0.575
Mof_O 	O 	0.248	0.9345	0.883	-0.589
Mof_C 	C 	0.241	0.919	0.95	0.473
Mof_C 	C 	0.233	0.964	0.009	-0.096
Mof_Ce	Ce	0.7598	0.7441	0.1071	3.068
Mof_O 	O 	0.8225	0.6775	0.1775	-1.162
Mof_O 	O 	0.773	0.628	0.048	-0.583
Mof_O 	O 	0.757	0.553	0.143	-0.602
Mof_C 	C 	0.769	0.564	0.074	0.502
Mof_C 	C 	0.774	0.5	0.037	-0.102
Mof_O 	O 	0.757	0.849	0.0304	-0.575
Mof_O 	O 	0.752	0.9345	0.117	-0.595
Mof_C 	C 	0.759	0.919	0.05	0.498
Mof_C 	C 	0.767	0.964	0.991	-0.137
Mof_O 	O 	0.3349	0.3349	0.3349	-0.974
Mof_O 	O 	0.6651	0.6651	0.3349	-0.974
Mof_O 	O 	0.6651	0.3349	0.6651	-0.974
Mof_O 	O 	0.3349	0.6651	0.6651	-0.974
Mof_O 	O 	0.1651	0.1651	0.1651	-0.974
Mof_O 	O 	0.8349	0.8349	0.1651	-0.974
Mof_O 	O 	0.8349	0.1651	0.8349	-0.974
Mof_O 	O 	0.1651	0.8349	0.8349	-0.974
_end
