data_functionalizedCrystal
_audit_creation_method	'EQeq! by Chris Wilmer'
_symmetry_space_group_name_H-M	'P1'
_symmetry_Int_Tables_number	1
_symmetry_cell_setting	triclinic
loop_
_symmetry_equiv_pos_as_xyz
  x,y,z
_cell_length_a	14.7236
_cell_length_b	14.7236
_cell_length_c	8.9544
_cell_angle_alpha	90
_cell_angle_beta	90
_cell_angle_gamma	90
loop_
_atom_site_label
_atom_site_type_symbol
_atom_site_fract_x
_atom_site_fract_y
_atom_site_fract_z
_atom_site_charge
Mof_Co	Co	0.98829	0.13148	0.34972	1.19
Mof_Co	Co	0.13146	0.49883	0.16341	1.224
Mof_P 	P 	0.99981	0.35267	0.3055	0.706
Mof_P 	P 	0.98749	0.14663	0.7088	0.549
Mof_O 	O 	0.0838	0.3904	0.234	-0.481
Mof_O 	O 	0.0035	0.2478	0.7534	-0.4
Mof_O 	O 	0.9462	0.1389	0.5537	-0.452
Mof_O 	O 	0.9945	0.2525	0.2644	-0.429
Mof_O 	O 	0.08	0.0996	0.7158	-0.459
Mof_O 	O 	0.9232	0.109	0.8278	-0.444
Mof_O 	O 	0.9211	0.4018	0.244	-0.497
Mof_O 	O 	0.993	0.3637	0.4609	-0.547
Mof_Zn	Zn	0.00117	0.36854	0.66341	1.263
Mof_Zn	Zn	0.13148	0.01171	0.84972	1.238
Mof_Co	Co	0.01171	0.86852	0.34972	1.189
Mof_Co	Co	0.86854	0.50117	0.16341	1.223
Mof_P 	P 	0.00019	0.64733	0.3055	0.706
Mof_P 	P 	0.01251	0.85337	0.7088	0.549
Mof_O 	O 	0.9162	0.6096	0.234	-0.481
Mof_O 	O 	0.9965	0.7522	0.7534	-0.4
Mof_O 	O 	0.0538	0.8611	0.5537	-0.452
Mof_O 	O 	0.0055	0.7475	0.2644	-0.429
Mof_O 	O 	0.92	0.9004	0.7158	-0.459
Mof_O 	O 	0.0768	0.891	0.8278	-0.444
Mof_O 	O 	0.0789	0.5982	0.244	-0.497
Mof_O 	O 	0.007	0.6363	0.4609	-0.547
Mof_Zn	Zn	0.99883	0.63146	0.66341	1.263
Mof_Zn	Zn	0.86852	0.98829	0.84972	1.238
Mof_Co	Co	0.50117	0.13146	0.66341	1.225
Mof_P 	P 	0.64733	0.99981	0.8055	0.71
Mof_P 	P 	0.85337	0.98749	0.2088	0.546
Mof_O 	O 	0.6096	0.0838	0.734	-0.48
Mof_O 	O 	0.7522	0.0035	0.2534	-0.402
Mof_O 	O 	0.8611	0.9462	0.0537	-0.469
Mof_O 	O 	0.7475	0.9945	0.7644	-0.442
Mof_O 	O 	0.9004	0.08	0.2158	-0.447
Mof_O 	O 	0.891	0.9232	0.3278	-0.43
Mof_O 	O 	0.5982	0.9211	0.744	-0.496
Mof_O 	O 	0.6363	0.993	0.9609	-0.546
Mof_Zn	Zn	0.63146	0.00117	0.16341	1.262
Mof_Co	Co	0.49883	0.86854	0.66341	1.225
Mof_P 	P 	0.35267	0.00019	0.8055	0.71
Mof_P 	P 	0.14663	0.01251	0.2088	0.546
Mof_O 	O 	0.3904	0.9162	0.734	-0.48
Mof_O 	O 	0.2478	0.9965	0.2534	-0.402
Mof_O 	O 	0.1389	0.0538	0.0537	-0.469
Mof_O 	O 	0.2525	0.0055	0.7644	-0.442
Mof_O 	O 	0.0996	0.92	0.2158	-0.447
Mof_O 	O 	0.109	0.0768	0.3278	-0.43
Mof_O 	O 	0.4018	0.0789	0.744	-0.496
Mof_O 	O 	0.3637	0.007	0.9609	-0.546
Mof_Zn	Zn	0.36854	0.99883	0.16341	1.262
Mof_Co	Co	0.48829	0.36852	0.34972	1.188
Mof_P 	P 	0.49981	0.14733	0.3055	0.708
Mof_P 	P 	0.48749	0.35337	0.7088	0.545
Mof_O 	O 	0.5838	0.1096	0.234	-0.494
Mof_O 	O 	0.5035	0.2522	0.7534	-0.388
Mof_O 	O 	0.4462	0.3611	0.5537	-0.451
Mof_O 	O 	0.4945	0.2475	0.2644	-0.429
Mof_O 	O 	0.58	0.4004	0.7158	-0.46
Mof_O 	O 	0.4232	0.391	0.8278	-0.444
Mof_O 	O 	0.4211	0.0982	0.244	-0.51
Mof_O 	O 	0.493	0.1363	0.4609	-0.534
Mof_Zn	Zn	0.63148	0.48829	0.84972	1.237
Mof_Co	Co	0.51171	0.63148	0.34972	1.188
Mof_P 	P 	0.50019	0.85267	0.3055	0.708
Mof_P 	P 	0.51251	0.64663	0.7088	0.545
Mof_O 	O 	0.4162	0.8904	0.234	-0.494
Mof_O 	O 	0.4965	0.7478	0.7534	-0.388
Mof_O 	O 	0.5538	0.6389	0.5537	-0.451
Mof_O 	O 	0.5055	0.7525	0.2644	-0.429
Mof_O 	O 	0.42	0.5996	0.7158	-0.46
Mof_O 	O 	0.5768	0.609	0.8278	-0.444
Mof_O 	O 	0.5789	0.9018	0.244	-0.51
Mof_O 	O 	0.507	0.8637	0.4609	-0.534
Mof_Zn	Zn	0.36852	0.51171	0.84972	1.237
Mof_P 	P 	0.14733	0.50019	0.8055	0.712
Mof_P 	P 	0.35337	0.51251	0.2088	0.542
Mof_O 	O 	0.1096	0.4162	0.734	-0.493
Mof_O 	O 	0.2522	0.4965	0.2534	-0.39
Mof_O 	O 	0.3611	0.5538	0.0537	-0.469
Mof_O 	O 	0.2475	0.5055	0.7644	-0.442
Mof_O 	O 	0.4004	0.42	0.2158	-0.447
Mof_O 	O 	0.391	0.5768	0.3278	-0.43
Mof_O 	O 	0.0982	0.5789	0.744	-0.509
Mof_O 	O 	0.1363	0.507	0.9609	-0.533
Mof_P 	P 	0.85267	0.49981	0.8055	0.712
Mof_P 	P 	0.64663	0.48749	0.2088	0.542
Mof_O 	O 	0.8904	0.5838	0.734	-0.493
Mof_O 	O 	0.7478	0.5035	0.2534	-0.39
Mof_O 	O 	0.6389	0.4462	0.0537	-0.469
Mof_O 	O 	0.7525	0.4945	0.7644	-0.442
Mof_O 	O 	0.5996	0.58	0.2158	-0.447
Mof_O 	O 	0.609	0.4232	0.3278	-0.43
Mof_O 	O 	0.9018	0.4211	0.744	-0.509
Mof_O 	O 	0.8637	0.493	0.9609	-0.533
_end
