data_functionalizedCrystal
_audit_creation_method	'EQeq! by Chris Wilmer'
_symmetry_space_group_name_H-M	'P1'
_symmetry_Int_Tables_number	1
_symmetry_cell_setting	triclinic
loop_
_symmetry_equiv_pos_as_xyz
  x,y,z
_cell_length_a	6.8023
_cell_length_b	13.912
_cell_length_c	16.052
_cell_angle_alpha	90
_cell_angle_beta	90
_cell_angle_gamma	90
loop_
_atom_site_label
_atom_site_type_symbol
_atom_site_fract_x
_atom_site_fract_y
_atom_site_fract_z
_atom_site_charge
Mof_V 	V 	0.5645	0.23606	0.99921	1.835
Mof_V 	V 	0.9355	0.76394	0.49921	1.834
Mof_V 	V 	0.4355	0.73606	0.50079	1.835
Mof_V 	V 	0.0645	0.26394	0.00079	1.835
Mof_H 	H 	0.554	0.0544	0.7929	0.053
Mof_H 	H 	0.5319	0.9477	0.6842	0.059
Mof_H 	H 	0.9671	0.0809	0.7947	0.061
Mof_H 	H 	0.9486	0.9724	0.6847	0.047
Mof_H 	H 	0.946	0.9456	0.2929	0.042
Mof_H 	H 	0.9681	0.0523	0.1842	0.071
Mof_H 	H 	0.5329	0.9191	0.2947	0.053
Mof_H 	H 	0.5514	0.0276	0.1847	0.06
Mof_H 	H 	0.446	0.5544	0.7071	0.052
Mof_H 	H 	0.4681	0.4477	0.8158	0.06
Mof_H 	H 	0.0329	0.5809	0.7053	0.058
Mof_H 	H 	0.0514	0.4724	0.8153	0.056
Mof_H 	H 	0.054	0.4456	0.2071	0.047
Mof_H 	H 	0.0319	0.5523	0.3158	0.063
Mof_H 	H 	0.4671	0.4191	0.2053	0.054
Mof_H 	H 	0.4486	0.5276	0.3153	0.058
Mof_C 	C 	0.2746	0.1432	0.87863	0.44
Mof_C 	C 	0.2623	0.0769	0.80643	-0.093
Mof_C 	C 	0.4313	0.0374	0.772	-0.002
Mof_C 	C 	0.418	0.9735	0.7071	-0.013
Mof_C 	C 	0.081	0.0535	0.7733	-0.013
Mof_C 	C 	0.0702	0.9882	0.7074	0.002
Mof_C 	C 	0.238	0.9473	0.67578	-0.087
Mof_C 	C 	0.2241	0.8753	0.6071	0.423
Mof_C 	C 	0.2254	0.8568	0.37863	0.445
Mof_C 	C 	0.2377	0.9231	0.30643	-0.107
Mof_C 	C 	0.0687	0.9626	0.272	0.018
Mof_C 	C 	0.082	0.0265	0.2071	-0.036
Mof_C 	C 	0.419	0.9465	0.2733	0.004
Mof_C 	C 	0.4298	0.0118	0.2074	-0.02
Mof_C 	C 	0.262	0.0527	0.17578	-0.072
Mof_C 	C 	0.2759	0.1247	0.1071	0.418
Mof_C 	C 	0.7254	0.6432	0.62137	0.442
Mof_C 	C 	0.7377	0.5769	0.69357	-0.097
Mof_C 	C 	0.5687	0.5374	0.728	-0.001
Mof_C 	C 	0.582	0.4735	0.7929	-0.014
Mof_C 	C 	0.919	0.5535	0.7267	-0.006
Mof_C 	C 	0.9298	0.4882	0.7926	-0.012
Mof_C 	C 	0.762	0.4473	0.82422	-0.082
Mof_C 	C 	0.7759	0.3753	0.8929	0.421
Mof_C 	C 	0.7746	0.3568	0.12137	0.443
Mof_C 	C 	0.7623	0.4231	0.19357	-0.101
Mof_C 	C 	0.9313	0.4626	0.228	0.008
Mof_C 	C 	0.918	0.5265	0.2929	-0.021
Mof_C 	C 	0.581	0.4465	0.2267	0.002
Mof_C 	C 	0.5702	0.5118	0.2926	-0.017
Mof_C 	C 	0.738	0.5527	0.32422	-0.078
Mof_C 	C 	0.7241	0.6247	0.3929	0.42
Mof_O 	O 	0.78224	0.19061	0.9961	-0.676
Mof_O 	O 	0.4425	0.16221	0.90641	-0.516
Mof_O 	O 	0.0563	0.85455	0.58015	-0.51
Mof_O 	O 	0.1167	0.17671	0.90649	-0.51
Mof_O 	O 	0.3857	0.84035	0.58196	-0.499
Mof_O 	O 	0.71776	0.80939	0.4961	-0.677
Mof_O 	O 	0.0575	0.83779	0.40641	-0.516
Mof_O 	O 	0.4437	0.14545	0.08015	-0.51
Mof_O 	O 	0.3833	0.82329	0.40649	-0.511
Mof_O 	O 	0.1143	0.15965	0.08196	-0.499
Mof_O 	O 	0.21776	0.69061	0.5039	-0.676
Mof_O 	O 	0.5575	0.66221	0.59359	-0.516
Mof_O 	O 	0.9437	0.35455	0.91985	-0.511
Mof_O 	O 	0.8833	0.67671	0.59351	-0.512
Mof_O 	O 	0.6143	0.34035	0.91804	-0.498
Mof_O 	O 	0.28224	0.30939	0.0039	-0.676
Mof_O 	O 	0.9425	0.33779	0.09359	-0.514
Mof_O 	O 	0.5563	0.64545	0.41985	-0.511
Mof_O 	O 	0.6167	0.32329	0.09351	-0.51
Mof_O 	O 	0.8857	0.65965	0.41804	-0.499
_end
