data_functionalizedCrystal
_audit_creation_method	'EQeq! by Chris Wilmer'
_symmetry_space_group_name_H-M	'P1'
_symmetry_Int_Tables_number	1
_symmetry_cell_setting	triclinic
loop_
_symmetry_equiv_pos_as_xyz
  x,y,z
_cell_length_a	22.286
_cell_length_b	19.845
_cell_length_c	34.29
_cell_angle_alpha	90
_cell_angle_beta	90.968
_cell_angle_gamma	90
loop_
_atom_site_label
_atom_site_type_symbol
_atom_site_fract_x
_atom_site_fract_y
_atom_site_fract_z
_atom_site_charge
Mof_Zn	Zn	0.54603	0.65287	0.11973	1.18
Mof_Zn	Zn	0.26925	0.32043	0.46641	1.22
Mof_Zn	Zn	0.57607	0.203	0.22368	1.213
Mof_Zn	Zn	0.43731	0.22678	0.22173	1.205
Mof_Zn	Zn	0.49134	0.08559	0.25755	1.167
Mof_Zn	Zn	0.48841	0.11767	0.16764	1.204
Mof_Zn	Zn	0.18526	0.22597	0.9816	1.216
Mof_C 	C 	0.5238	0.3348	0.2088	0.434
Mof_C 	C 	0.54248	0.39862	0.18843	-0.261
Mof_C 	C 	0.50077	0.4367	0.1674	0.158
Mof_H 	H 	0.4609	0.4228	0.1657	-0.022
Mof_C 	C 	0.51857	0.49546	0.14883	-0.254
Mof_C 	C 	0.57809	0.51619	0.1513	0.363
Mof_C 	C 	0.61981	0.47813	0.17234	-0.446
Mof_C 	C 	0.602	0.41935	0.1909	0.245
Mof_H 	H 	0.6299	0.3939	0.205	-0.075
Mof_C 	C 	0.6874	0.4975	0.1742	0.867
Mof_C 	C 	0.7146	0.4968	0.132	-1.212
Mof_H 	H 	0.7095	0.4529	0.1207	0.351
Mof_H 	H 	0.7566	0.5075	0.1336	0.346
Mof_H 	H 	0.6942	0.5296	0.116	0.37
Mof_C 	C 	0.695	0.5682	0.1931	-1.28
Mof_H 	H 	0.6782	0.5679	0.2187	0.378
Mof_H 	H 	0.6745	0.6012	0.1773	0.389
Mof_H 	H 	0.7369	0.5793	0.195	0.383
Mof_C 	C 	0.7267	0.4482	0.1981	-1.284
Mof_H 	H 	0.7128	0.4464	0.2244	0.386
Mof_H 	H 	0.7676	0.4633	0.1981	0.374
Mof_H 	H 	0.7242	0.4041	0.1866	0.373
Mof_C 	C 	0.4721	0.5261	0.1249	0.093
Mof_H 	H 	0.4361	0.5031	0.1216	-0.01
Mof_C 	C 	0.43087	0.61364	0.08423	0.011
Mof_C 	C 	0.3912	0.57621	0.06121	-0.079
Mof_H 	H 	0.3934	0.5294	0.0613	0.042
Mof_C 	C 	0.34831	0.6087	0.03812	-0.048
Mof_H 	H 	0.3218	0.5837	0.0227	0.011
Mof_C 	C 	0.34507	0.6787	0.03805	-0.031
Mof_H 	H 	0.3164	0.7004	0.0226	0.006
Mof_C 	C 	0.3847	0.71611	0.06106	-0.092
Mof_H 	H 	0.3825	0.7629	0.061	0.054
Mof_C 	C 	0.42762	0.68359	0.08415	0.022
Mof_C 	C 	0.4668	0.7772	0.12054	0.1
Mof_H 	H 	0.4335	0.8017	0.1121	-0.003
Mof_C 	C 	0.50972	0.81107	0.1468	-0.268
Mof_C 	C 	0.49694	0.87849	0.15385	0.174
Mof_H 	H 	0.4655	0.8995	0.1404	-0.02
Mof_C 	C 	0.53113	0.91454	0.18095	-0.28
Mof_C 	C 	0.5781	0.88316	0.20101	0.289
Mof_H 	H 	0.601	0.9073	0.2191	-0.099
Mof_C 	C 	0.59088	0.81574	0.19397	-0.525
Mof_C 	C 	0.55669	0.77969	0.16686	0.397
Mof_C 	C 	0.6466	0.7826	0.2158	1.141
Mof_C 	C 	0.6251	0.7225	0.2394	-1.615
Mof_H 	H 	0.6587	0.7021	0.2528	0.468
Mof_H 	H 	0.6066	0.6901	0.2223	0.503
Mof_H 	H 	0.5964	0.7374	0.2582	0.476
Mof_C 	C 	0.6931	0.7606	0.1863	-1.624
Mof_H 	H 	0.7267	0.7404	0.1998	0.489
Mof_H 	H 	0.7065	0.7991	0.1719	0.498
Mof_H 	H 	0.6755	0.7283	0.1686	0.493
Mof_C 	C 	0.6786	0.8322	0.2443	-1.553
Mof_H 	H 	0.7119	0.8098	0.2568	0.455
Mof_H 	H 	0.6508	0.8469	0.2636	0.458
Mof_H 	H 	0.6928	0.8704	0.23	0.467
Mof_C 	C 	0.5182	0.9872	0.1885	0.409
Mof_C 	C 	0.3783	0.1938	0.14709	0.394
Mof_C 	C 	0.33405	0.2123	0.11617	-0.18
Mof_C 	C 	0.32373	0.16949	0.08467	0.09
Mof_H 	H 	0.3436	0.1284	0.0834	0.008
Mof_C 	C 	0.2837	0.18815	0.05509	-0.181
Mof_C 	C 	0.2539	0.2496	0.05702	0.249
Mof_C 	C 	0.2642	0.29238	0.08852	-0.208
Mof_C 	C 	0.3043	0.2737	0.1181	0.102
Mof_H 	H 	0.3112	0.3023	0.1392	-0.009
Mof_C 	C 	0.2354	0.3672	0.0891	0.315
Mof_C 	C 	0.1681	0.3619	0.0862	-0.769
Mof_H 	H 	0.1535	0.3374	0.1083	0.233
Mof_H 	H 	0.157	0.3387	0.0626	0.24
Mof_H 	H 	0.151	0.4063	0.0859	0.212
Mof_C 	C 	0.2566	0.4033	0.1279	-0.759
Mof_H 	H 	0.2388	0.3814	0.1498	0.239
Mof_H 	H 	0.2443	0.4497	0.1272	0.224
Mof_H 	H 	0.2995	0.4009	0.1303	0.245
Mof_C 	C 	0.274	0.1385	0.0255	0.074
Mof_H 	H 	0.2974	0.0998	0.0274	0.006
Mof_C 	C 	0.2298	0.0881	0.96925	0.025
Mof_C 	C 	0.2408	0.0207	0.97757	-0.084
Mof_H 	H 	0.2563	0.0083	0.0019	0.061
Mof_C 	C 	0.2288	0.9717	0.94953	-0.04
Mof_H 	H 	0.2362	0.9266	0.9551	0.029
Mof_C 	C 	0.2057	0.9902	0.91317	-0.044
Mof_H 	H 	0.1977	0.9574	0.8944	0.014
Mof_C 	C 	0.1947	0.0577	0.90485	-0.085
Mof_H 	H 	0.1793	0.07	0.8805	0.041
Mof_C 	C 	0.2067	0.10663	0.93289	0.017
Mof_C 	C 	0.185	0.2036	0.894	0.116
Mof_H 	H 	0.1916	0.1769	0.8723	-0.031
Mof_C 	C 	0.1672	0.27294	0.88738	-0.285
Mof_C 	C 	0.15086	0.28602	0.84882	0.179
Mof_H 	H 	0.1568	0.2535	0.8298	-0.044
Mof_C 	C 	0.12557	0.34776	0.83873	-0.299
Mof_C 	C 	0.11662	0.39643	0.8672	0.298
Mof_H 	H 	0.0997	0.4377	0.8604	-0.108
Mof_C 	C 	0.13295	0.38335	0.90576	-0.536
Mof_C 	C 	0.1582	0.3216	0.91585	0.407
Mof_C 	C 	0.126	0.4392	0.93733	1.082
Mof_C 	C 	0.0861	0.4169	0.9702	-1.544
Mof_H 	H 	0.1024	0.3769	0.9821	0.478
Mof_H 	H 	0.0465	0.4077	0.9601	0.452
Mof_H 	H 	0.084	0.4521	0.9894	0.436
Mof_C 	C 	0.187	0.4596	0.954	-1.54
Mof_H 	H 	0.2065	0.4208	0.9652	0.479
Mof_H 	H 	0.1819	0.4932	0.9738	0.444
Mof_H 	H 	0.2112	0.4775	0.9335	0.448
Mof_C 	C 	0.0974	0.5044	0.9195	-1.401
Mof_H 	H 	0.0937	0.5379	0.9395	0.39
Mof_H 	H 	0.0583	0.494	0.9088	0.407
Mof_H 	H 	0.1224	0.5213	0.8992	0.403
Mof_C 	C 	0.1027	0.3581	0.7971	0.439
Mof_C 	C 	0.4099	0.1944	0.29896	0.413
Mof_C 	C 	0.37801	0.20521	0.33714	-0.225
Mof_C 	C 	0.33879	0.25881	0.34231	0.128
Mof_H 	H 	0.3294	0.2872	0.3215	-0.008
Mof_C 	C 	0.31361	0.26995	0.37856	-0.216
Mof_C 	C 	0.32764	0.22749	0.40963	0.325
Mof_C 	C 	0.36686	0.17388	0.40446	-0.352
Mof_C 	C 	0.39205	0.16274	0.36822	0.188
Mof_H 	H 	0.4183	0.1269	0.3648	-0.055
Mof_C 	C 	0.37863	0.12017	0.43772	0.679
Mof_C 	C 	0.41537	0.05905	0.42429	-1.074
Mof_H 	H 	0.4539	0.0739	0.4157	0.311
Mof_H 	H 	0.3945	0.0369	0.4032	0.316
Mof_H 	H 	0.4206	0.0282	0.4456	0.292
Mof_C 	C 	0.31585	0.09023	0.45135	-1.04
Mof_H 	H 	0.2952	0.0703	0.4294	0.319
Mof_H 	H 	0.2918	0.1258	0.4618	0.332
Mof_H 	H 	0.3228	0.0566	0.471	0.288
Mof_C 	C 	0.41608	0.1543	0.47225	-1.032
Mof_H 	H 	0.4532	0.1713	0.4624	0.306
Mof_H 	H 	0.4243	0.1215	0.4922	0.28
Mof_H 	H 	0.3933	0.1907	0.483	0.317
Mof_C 	C 	0.26915	0.32439	0.37824	0.09
Mof_H 	H 	0.2593	0.3448	0.3546	-0.005
Mof_C 	C 	0.19757	0.39643	0.40806	0.034
Mof_C 	C 	0.18258	0.4336	0.37495	-0.09
Mof_H 	H 	0.2023	0.4256	0.3517	0.052
Mof_C 	C 	0.1382	0.4827	0.37659	-0.012
Mof_H 	H 	0.1282	0.5075	0.3544	0.018
Mof_C 	C 	0.10881	0.49459	0.41135	-0.04
Mof_H 	H 	0.0791	0.5274	0.4124	0.049
Mof_C 	C 	0.12379	0.4574	0.44446	-0.072
Mof_H 	H 	0.1041	0.4654	0.4677	0.055
Mof_C 	C 	0.16817	0.40835	0.44282	0.026
Mof_C 	C 	0.1561	0.3629	0.50628	0.109
Mof_H 	H 	0.1181	0.3825	0.5056	-0.006
Mof_C 	C 	0.17315	0.32833	0.54193	-0.252
Mof_C 	C 	0.13312	0.33691	0.57218	0.167
Mof_H 	H 	0.0972	0.3598	0.5678	-0.017
Mof_C 	C 	0.14677	0.3113	0.60901	-0.263
Mof_C 	C 	0.20044	0.2772	0.6156	0.263
Mof_H 	H 	0.2096	0.2601	0.6402	-0.087
Mof_C 	C 	0.24048	0.26861	0.58535	-0.472
Mof_C 	C 	0.22683	0.29417	0.54852	0.385
Mof_C 	C 	0.3017	0.232	0.5942	0.97
Mof_C 	C 	0.3039	0.1679	0.568	-1.342
Mof_H 	H 	0.3411	0.1446	0.5726	0.378
Mof_H 	H 	0.3009	0.1808	0.541	0.417
Mof_H 	H 	0.271	0.1387	0.5742	0.392
Mof_C 	C 	0.3542	0.278	0.5834	-1.437
Mof_H 	H 	0.3537	0.3177	0.5994	0.432
Mof_H 	H 	0.3504	0.2908	0.5565	0.45
Mof_H 	H 	0.3913	0.2544	0.5876	0.418
Mof_C 	C 	0.3086	0.2105	0.6372	-1.385
Mof_H 	H 	0.3075	0.2497	0.6536	0.405
Mof_H 	H 	0.3462	0.1877	0.6409	0.392
Mof_H 	H 	0.2764	0.1807	0.6438	0.402
Mof_C 	C 	0.1041	0.3223	0.64253	0.444
Mof_C 	C 	0.0369	0.2531	0.0526	-0.56
Mof_H 	H 	0.0647	0.2866	0.062	0.149
Mof_H 	H 	0.0138	0.2365	0.074	0.148
Mof_H 	H 	0.0105	0.2728	0.0334	0.158
Mof_C 	C 	0.0017	0.1663	0.0221	-0.318
Mof_H 	H 	0.9997	0.1216	0.0115	0.004
Mof_H 	H 	0.9849	0.1977	0.0036	0.1
Mof_H 	H 	0.9792	0.1681	0.0457	0.085
Mof_C 	C 	0.467	0.3989	0.4697	-0.761
Mof_H 	H 	0.4719	0.3614	0.4523	0.243
Mof_H 	H 	0.4957	0.3957	0.4907	0.264
Mof_H 	H 	0.4731	0.4402	0.4557	0.236
Mof_C 	C 	0.418	0.4671	0.5169	-0.719
Mof_H 	H 	0.3846	0.4856	0.5307	0.235
Mof_H 	H 	0.4344	0.5009	0.5001	0.224
Mof_H 	H 	0.4482	0.4525	0.5353	0.214
Mof_O 	O 	0.5645	0.3018	0.2261	-0.518
Mof_O 	O 	0.4704	0.3172	0.20706	-0.505
Mof_O 	O 	0.59543	0.5736	0.13514	-0.516
Mof_O 	O 	0.5712	0.7157	0.16079	-0.54
Mof_O 	O 	0.49133	0.02044	0.16182	-0.51
Mof_O 	O 	0.53451	0.0125	0.22065	-0.526
Mof_O 	O 	0.37743	0.2245	0.17923	-0.512
Mof_O 	O 	0.41741	0.1483	0.13888	-0.507
Mof_O 	O 	0.2158	0.2701	0.02888	-0.46
Mof_O 	O 	0.1728	0.3102	0.95267	-0.517
Mof_O 	O 	0.11821	0.3143	0.77174	-0.535
Mof_O 	O 	0.06976	0.4068	0.79021	-0.523
Mof_O 	O 	0.39632	0.2339	0.27099	-0.512
Mof_O 	O 	0.4484	0.1491	0.29796	-0.531
Mof_O 	O 	0.3091	0.2403	0.44534	-0.476
Mof_O 	O 	0.26502	0.2854	0.52005	-0.505
Mof_O 	O 	0.05391	0.3474	0.63457	-0.513
Mof_O 	O 	0.12241	0.3061	0.67618	-0.537
Mof_O 	O 	0.1017	0.1986	0.9942	-0.441
Mof_O 	O 	0.3334	0.3898	0.4708	-0.464
Mof_O 	O 	0.49924	0.15955	0.21795	-0.963
Mof_N 	N 	0.4717	0.7161	0.10814	-0.266
Mof_N 	N 	0.478	0.585	0.1075	-0.267
Mof_N 	N 	0.2426	0.3457	0.40969	-0.247
Mof_N 	N 	0.1878	0.3695	0.4754	-0.256
Mof_N 	N 	0.1923	0.1762	0.92781	-0.259
Mof_N 	N 	0.2369	0.141	0.99661	-0.253
Mof_S 	S 	0.076	0.1874	0.0321	0.265
Mof_S 	S 	0.3934	0.3977	0.4886	0.395
Mof_Zn	Zn	0.04603	0.84713	0.61973	1.181
Mof_Zn	Zn	0.76925	0.17957	0.96641	1.221
Mof_Zn	Zn	0.07607	0.297	0.72368	1.214
Mof_Zn	Zn	0.93731	0.27322	0.72173	1.206
Mof_Zn	Zn	0.99134	0.41441	0.75755	1.168
Mof_Zn	Zn	0.98841	0.38233	0.66764	1.205
Mof_Zn	Zn	0.68526	0.27403	0.4816	1.217
Mof_C 	C 	0.0238	0.1652	0.7088	0.437
Mof_C 	C 	0.04248	0.10138	0.68843	-0.26
Mof_C 	C 	0.00077	0.0633	0.6674	0.162
Mof_H 	H 	0.9609	0.0772	0.6657	-0.023
Mof_C 	C 	0.01857	0.00454	0.64883	-0.25
Mof_C 	C 	0.07809	0.98381	0.6513	0.359
Mof_C 	C 	0.11981	0.02187	0.67234	-0.441
Mof_C 	C 	0.102	0.08065	0.6909	0.244
Mof_H 	H 	0.1299	0.1061	0.705	-0.073
Mof_C 	C 	0.1874	0.0025	0.6742	0.864
Mof_C 	C 	0.2146	0.0032	0.632	-1.199
Mof_H 	H 	0.2095	0.0471	0.6207	0.348
Mof_H 	H 	0.2566	0.9925	0.6336	0.342
Mof_H 	H 	0.1942	0.9704	0.616	0.365
Mof_C 	C 	0.195	0.9318	0.6931	-1.277
Mof_H 	H 	0.1782	0.9321	0.7187	0.377
Mof_H 	H 	0.1745	0.8988	0.6773	0.388
Mof_H 	H 	0.2369	0.9207	0.695	0.382
Mof_C 	C 	0.2267	0.0518	0.6981	-1.28
Mof_H 	H 	0.2128	0.0536	0.7244	0.385
Mof_H 	H 	0.2676	0.0367	0.6981	0.373
Mof_H 	H 	0.2242	0.0959	0.6866	0.372
Mof_C 	C 	0.9721	0.9739	0.6249	0.093
Mof_H 	H 	0.9361	0.9969	0.6216	-0.009
Mof_C 	C 	0.93087	0.88636	0.58423	0.011
Mof_C 	C 	0.8912	0.92379	0.56121	-0.079
Mof_H 	H 	0.8934	0.9706	0.5613	0.042
Mof_C 	C 	0.84831	0.8913	0.53812	-0.048
Mof_H 	H 	0.8218	0.9163	0.5227	0.012
Mof_C 	C 	0.84507	0.8213	0.53805	-0.031
Mof_H 	H 	0.8164	0.7996	0.5226	0.006
Mof_C 	C 	0.8847	0.78389	0.56106	-0.092
Mof_H 	H 	0.8825	0.7371	0.561	0.054
Mof_C 	C 	0.92762	0.81641	0.58415	0.022
Mof_C 	C 	0.9668	0.7228	0.62054	0.102
Mof_H 	H 	0.9335	0.6983	0.6121	-0.004
Mof_C 	C 	0.00972	0.68893	0.6468	-0.27
Mof_C 	C 	0.99694	0.62151	0.65385	0.177
Mof_H 	H 	0.9655	0.6005	0.6404	-0.021
Mof_C 	C 	0.03113	0.58546	0.68095	-0.282
Mof_C 	C 	0.0781	0.61684	0.70101	0.29
Mof_H 	H 	0.101	0.5927	0.7191	-0.099
Mof_C 	C 	0.09088	0.68426	0.69397	-0.526
Mof_C 	C 	0.05669	0.72031	0.66686	0.398
Mof_C 	C 	0.1466	0.7174	0.7158	1.141
Mof_C 	C 	0.1251	0.7775	0.7394	-1.615
Mof_H 	H 	0.1587	0.7979	0.7528	0.468
Mof_H 	H 	0.1066	0.8099	0.7223	0.503
Mof_H 	H 	0.0964	0.7626	0.7582	0.476
Mof_C 	C 	0.1931	0.7394	0.6863	-1.624
Mof_H 	H 	0.2267	0.7596	0.6998	0.489
Mof_H 	H 	0.2065	0.7009	0.6719	0.498
Mof_H 	H 	0.1755	0.7717	0.6686	0.493
Mof_C 	C 	0.1786	0.6678	0.7443	-1.553
Mof_H 	H 	0.2119	0.6902	0.7568	0.455
Mof_H 	H 	0.1508	0.6531	0.7636	0.458
Mof_H 	H 	0.1928	0.6296	0.73	0.467
Mof_C 	C 	0.0182	0.5128	0.6885	0.41
Mof_C 	C 	0.8783	0.3062	0.64709	0.394
Mof_C 	C 	0.83405	0.2877	0.61617	-0.18
Mof_C 	C 	0.82373	0.33051	0.58467	0.09
Mof_H 	H 	0.8436	0.3716	0.5834	0.008
Mof_C 	C 	0.7837	0.31185	0.55509	-0.181
Mof_C 	C 	0.7539	0.2504	0.55702	0.249
Mof_C 	C 	0.7642	0.20762	0.58852	-0.208
Mof_C 	C 	0.8043	0.2263	0.6181	0.102
Mof_H 	H 	0.8112	0.1977	0.6392	-0.009
Mof_C 	C 	0.7354	0.1328	0.5891	0.314
Mof_C 	C 	0.6681	0.1381	0.5862	-0.768
Mof_H 	H 	0.6535	0.1626	0.6083	0.232
Mof_H 	H 	0.657	0.1613	0.5626	0.24
Mof_H 	H 	0.651	0.0937	0.5859	0.211
Mof_C 	C 	0.7566	0.0967	0.6279	-0.758
Mof_H 	H 	0.7388	0.1186	0.6498	0.239
Mof_H 	H 	0.7443	0.0503	0.6272	0.223
Mof_H 	H 	0.7995	0.0991	0.6303	0.245
Mof_C 	C 	0.774	0.3615	0.5255	0.073
Mof_H 	H 	0.7974	0.4002	0.5274	0.006
Mof_C 	C 	0.7298	0.4119	0.46925	0.024
Mof_C 	C 	0.7408	0.4793	0.47757	-0.084
Mof_H 	H 	0.7563	0.4917	0.5019	0.06
Mof_C 	C 	0.7288	0.5283	0.44953	-0.04
Mof_H 	H 	0.7362	0.5734	0.4551	0.029
Mof_C 	C 	0.7057	0.5098	0.41317	-0.042
Mof_H 	H 	0.6977	0.5426	0.3944	0.013
Mof_C 	C 	0.6947	0.4423	0.40485	-0.087
Mof_H 	H 	0.6793	0.43	0.3805	0.042
Mof_C 	C 	0.7067	0.39337	0.43289	0.017
Mof_C 	C 	0.685	0.2964	0.394	0.115
Mof_H 	H 	0.6916	0.3231	0.3723	-0.031
Mof_C 	C 	0.6672	0.22706	0.38738	-0.285
Mof_C 	C 	0.65086	0.21398	0.34882	0.179
Mof_H 	H 	0.6568	0.2465	0.3298	-0.044
Mof_C 	C 	0.62557	0.15224	0.33873	-0.299
Mof_C 	C 	0.61662	0.10357	0.3672	0.297
Mof_H 	H 	0.5997	0.0623	0.3604	-0.108
Mof_C 	C 	0.63295	0.11665	0.40576	-0.535
Mof_C 	C 	0.6582	0.1784	0.41585	0.406
Mof_C 	C 	0.626	0.0608	0.43733	1.079
Mof_C 	C 	0.5861	0.0831	0.4702	-1.54
Mof_H 	H 	0.6024	0.1231	0.4821	0.477
Mof_H 	H 	0.5465	0.0923	0.4601	0.451
Mof_H 	H 	0.584	0.0479	0.4894	0.435
Mof_C 	C 	0.687	0.0404	0.454	-1.537
Mof_H 	H 	0.7065	0.0792	0.4652	0.478
Mof_H 	H 	0.6819	0.0068	0.4738	0.443
Mof_H 	H 	0.7112	0.0225	0.4335	0.447
Mof_C 	C 	0.5974	0.9956	0.4195	-1.397
Mof_H 	H 	0.5937	0.9621	0.4395	0.389
Mof_H 	H 	0.5583	0.006	0.4088	0.405
Mof_H 	H 	0.6224	0.9787	0.3992	0.402
Mof_C 	C 	0.6027	0.1419	0.2971	0.438
Mof_C 	C 	0.9099	0.3056	0.79896	0.413
Mof_C 	C 	0.87801	0.29479	0.83714	-0.225
Mof_C 	C 	0.83879	0.24119	0.84231	0.128
Mof_H 	H 	0.8294	0.2128	0.8215	-0.009
Mof_C 	C 	0.81361	0.23005	0.87856	-0.216
Mof_C 	C 	0.82764	0.27251	0.90963	0.325
Mof_C 	C 	0.86686	0.32612	0.90446	-0.351
Mof_C 	C 	0.89205	0.33726	0.86822	0.188
Mof_H 	H 	0.9183	0.3731	0.8648	-0.055
Mof_C 	C 	0.87863	0.37983	0.93772	0.679
Mof_C 	C 	0.91537	0.44095	0.92429	-1.073
Mof_H 	H 	0.9539	0.4261	0.9157	0.311
Mof_H 	H 	0.8945	0.4631	0.9032	0.315
Mof_H 	H 	0.9206	0.4718	0.9456	0.291
Mof_C 	C 	0.81585	0.40977	0.95135	-1.039
Mof_H 	H 	0.7952	0.4297	0.9294	0.319
Mof_H 	H 	0.7918	0.3742	0.9618	0.332
Mof_H 	H 	0.8228	0.4434	0.971	0.287
Mof_C 	C 	0.91608	0.3457	0.97225	-1.032
Mof_H 	H 	0.9532	0.3287	0.9624	0.306
Mof_H 	H 	0.9243	0.3785	0.9922	0.279
Mof_H 	H 	0.8933	0.3093	0.983	0.316
Mof_C 	C 	0.76915	0.17561	0.87824	0.09
Mof_H 	H 	0.7593	0.1552	0.8546	-0.005
Mof_C 	C 	0.69757	0.10357	0.90806	0.034
Mof_C 	C 	0.68258	0.0664	0.87495	-0.09
Mof_H 	H 	0.7023	0.0744	0.8517	0.052
Mof_C 	C 	0.6382	0.0173	0.87659	-0.014
Mof_H 	H 	0.6282	0.9925	0.8544	0.019
Mof_C 	C 	0.60881	0.00541	0.91135	-0.041
Mof_H 	H 	0.5791	0.9726	0.9124	0.049
Mof_C 	C 	0.62379	0.0426	0.94446	-0.072
Mof_H 	H 	0.6041	0.0346	0.9677	0.055
Mof_C 	C 	0.66817	0.09165	0.94282	0.026
Mof_C 	C 	0.6561	0.1371	0.00628	0.109
Mof_H 	H 	0.6181	0.1175	0.0056	-0.006
Mof_C 	C 	0.67315	0.17167	0.04193	-0.252
Mof_C 	C 	0.63312	0.16309	0.07218	0.167
Mof_H 	H 	0.5972	0.1402	0.0678	-0.017
Mof_C 	C 	0.64677	0.1887	0.10901	-0.263
Mof_C 	C 	0.70044	0.2228	0.1156	0.263
Mof_H 	H 	0.7096	0.2399	0.1402	-0.087
Mof_C 	C 	0.74048	0.23139	0.08535	-0.472
Mof_C 	C 	0.72683	0.20583	0.04852	0.385
Mof_C 	C 	0.8017	0.268	0.0942	0.969
Mof_C 	C 	0.8039	0.3321	0.068	-1.341
Mof_H 	H 	0.8411	0.3554	0.0726	0.377
Mof_H 	H 	0.8009	0.3192	0.041	0.417
Mof_H 	H 	0.771	0.3613	0.0742	0.391
Mof_C 	C 	0.8542	0.222	0.0834	-1.437
Mof_H 	H 	0.8537	0.1823	0.0994	0.432
Mof_H 	H 	0.8504	0.2092	0.0565	0.45
Mof_H 	H 	0.8913	0.2456	0.0876	0.417
Mof_C 	C 	0.8086	0.2895	0.1372	-1.385
Mof_H 	H 	0.8075	0.2503	0.1536	0.405
Mof_H 	H 	0.8462	0.3123	0.1409	0.391
Mof_H 	H 	0.7764	0.3193	0.1438	0.401
Mof_C 	C 	0.6041	0.1777	0.14253	0.444
Mof_C 	C 	0.5369	0.2469	0.5526	-0.56
Mof_H 	H 	0.5647	0.2134	0.562	0.149
Mof_H 	H 	0.5138	0.2635	0.574	0.147
Mof_H 	H 	0.5105	0.2272	0.5334	0.157
Mof_C 	C 	0.5017	0.3337	0.5221	-0.35
Mof_H 	H 	0.4997	0.3784	0.5115	0.02
Mof_H 	H 	0.4849	0.3023	0.5036	0.11
Mof_H 	H 	0.4792	0.3319	0.5457	0.095
Mof_C 	C 	0.967	0.1011	0.9697	-0.778
Mof_H 	H 	0.9719	0.1386	0.9523	0.248
Mof_H 	H 	0.9957	0.1043	0.9907	0.276
Mof_H 	H 	0.9731	0.0598	0.9557	0.24
Mof_C 	C 	0.918	0.0329	0.0169	-0.727
Mof_H 	H 	0.8846	0.0144	0.0307	0.237
Mof_H 	H 	0.9344	0.9991	0.0001	0.227
Mof_H 	H 	0.9482	0.0475	0.0353	0.217
Mof_O 	O 	0.0645	0.1982	0.7261	-0.518
Mof_O 	O 	0.9704	0.1828	0.70706	-0.507
Mof_O 	O 	0.09543	0.9264	0.63514	-0.516
Mof_O 	O 	0.0712	0.7843	0.66079	-0.54
Mof_O 	O 	0.99133	0.47956	0.66182	-0.51
Mof_O 	O 	0.03451	0.4875	0.72065	-0.526
Mof_O 	O 	0.87743	0.2755	0.67923	-0.512
Mof_O 	O 	0.91741	0.3517	0.63888	-0.507
Mof_O 	O 	0.7158	0.2299	0.52888	-0.46
Mof_O 	O 	0.6728	0.1898	0.45267	-0.517
Mof_O 	O 	0.61821	0.1857	0.27174	-0.535
Mof_O 	O 	0.56976	0.0932	0.29021	-0.524
Mof_O 	O 	0.89632	0.2661	0.77099	-0.512
Mof_O 	O 	0.9484	0.3509	0.79796	-0.531
Mof_O 	O 	0.8091	0.2597	0.94534	-0.476
Mof_O 	O 	0.76502	0.2146	0.02005	-0.505
Mof_O 	O 	0.55391	0.1526	0.13457	-0.514
Mof_O 	O 	0.62241	0.1939	0.17618	-0.537
Mof_O 	O 	0.6017	0.3014	0.4942	-0.442
Mof_O 	O 	0.8334	0.1102	0.9708	-0.466
Mof_O 	O 	0.99924	0.34045	0.71795	-0.963
Mof_N 	N 	0.9717	0.7839	0.60814	-0.266
Mof_N 	N 	0.978	0.915	0.6075	-0.267
Mof_N 	N 	0.7426	0.1543	0.90969	-0.247
Mof_N 	N 	0.6878	0.1305	0.9754	-0.256
Mof_N 	N 	0.6923	0.3238	0.42781	-0.259
Mof_N 	N 	0.7369	0.359	0.49661	-0.253
Mof_S 	S 	0.576	0.3126	0.5321	0.271
Mof_S 	S 	0.8934	0.1023	0.9886	0.401
Mof_Zn	Zn	0.95397	0.15287	0.38027	1.181
Mof_Zn	Zn	0.23075	0.82043	0.03359	1.221
Mof_Zn	Zn	0.92393	0.703	0.27632	1.214
Mof_Zn	Zn	0.06269	0.72678	0.27827	1.206
Mof_Zn	Zn	0.00866	0.58559	0.24245	1.168
Mof_Zn	Zn	0.01159	0.61767	0.33236	1.205
Mof_Zn	Zn	0.31474	0.72597	0.5184	1.217
Mof_C 	C 	0.9762	0.8348	0.2912	0.437
Mof_C 	C 	0.95752	0.89862	0.31157	-0.26
Mof_C 	C 	0.99923	0.9367	0.3326	0.162
Mof_H 	H 	0.0391	0.9228	0.3343	-0.023
Mof_C 	C 	0.98143	0.99546	0.35117	-0.25
Mof_C 	C 	0.92191	0.01619	0.3487	0.359
Mof_C 	C 	0.88019	0.97813	0.32766	-0.441
Mof_C 	C 	0.898	0.91935	0.3091	0.244
Mof_H 	H 	0.8701	0.8939	0.295	-0.073
Mof_C 	C 	0.8126	0.9975	0.3258	0.864
Mof_C 	C 	0.7854	0.9968	0.368	-1.199
Mof_H 	H 	0.7905	0.9529	0.3793	0.348
Mof_H 	H 	0.7434	0.0075	0.3664	0.342
Mof_H 	H 	0.8058	0.0296	0.384	0.365
Mof_C 	C 	0.805	0.0682	0.3069	-1.277
Mof_H 	H 	0.8218	0.0679	0.2813	0.377
Mof_H 	H 	0.8255	0.1012	0.3227	0.388
Mof_H 	H 	0.7631	0.0793	0.305	0.382
Mof_C 	C 	0.7733	0.9482	0.3019	-1.28
Mof_H 	H 	0.7872	0.9464	0.2756	0.385
Mof_H 	H 	0.7324	0.9633	0.3019	0.373
Mof_H 	H 	0.7758	0.9041	0.3134	0.372
Mof_C 	C 	0.0279	0.0261	0.3751	0.093
Mof_H 	H 	0.0639	0.0031	0.3784	-0.009
Mof_C 	C 	0.06913	0.11364	0.41577	0.011
Mof_C 	C 	0.1088	0.07621	0.43879	-0.079
Mof_H 	H 	0.1066	0.0294	0.4387	0.042
Mof_C 	C 	0.15169	0.1087	0.46188	-0.048
Mof_H 	H 	0.1782	0.0837	0.4773	0.012
Mof_C 	C 	0.15493	0.1787	0.46195	-0.031
Mof_H 	H 	0.1836	0.2004	0.4774	0.006
Mof_C 	C 	0.1153	0.21611	0.43894	-0.092
Mof_H 	H 	0.1175	0.2629	0.439	0.054
Mof_C 	C 	0.07238	0.18359	0.41585	0.022
Mof_C 	C 	0.0332	0.2772	0.37946	0.102
Mof_H 	H 	0.0665	0.3017	0.3879	-0.004
Mof_C 	C 	0.99028	0.31107	0.3532	-0.27
Mof_C 	C 	0.00306	0.37849	0.34615	0.177
Mof_H 	H 	0.0345	0.3995	0.3596	-0.021
Mof_C 	C 	0.96887	0.41454	0.31905	-0.282
Mof_C 	C 	0.9219	0.38316	0.29899	0.29
Mof_H 	H 	0.899	0.4073	0.2809	-0.099
Mof_C 	C 	0.90912	0.31574	0.30603	-0.526
Mof_C 	C 	0.94331	0.27969	0.33314	0.398
Mof_C 	C 	0.8534	0.2826	0.2842	1.141
Mof_C 	C 	0.8749	0.2225	0.2606	-1.615
Mof_H 	H 	0.8413	0.2021	0.2472	0.468
Mof_H 	H 	0.8934	0.1901	0.2777	0.503
Mof_H 	H 	0.9036	0.2374	0.2418	0.476
Mof_C 	C 	0.8069	0.2606	0.3137	-1.624
Mof_H 	H 	0.7733	0.2404	0.3002	0.489
Mof_H 	H 	0.7935	0.2991	0.3281	0.498
Mof_H 	H 	0.8245	0.2283	0.3314	0.493
Mof_C 	C 	0.8214	0.3322	0.2557	-1.553
Mof_H 	H 	0.7881	0.3098	0.2432	0.455
Mof_H 	H 	0.8492	0.3469	0.2364	0.458
Mof_H 	H 	0.8072	0.3704	0.27	0.467
Mof_C 	C 	0.9818	0.4872	0.3115	0.41
Mof_C 	C 	0.1217	0.6938	0.35291	0.394
Mof_C 	C 	0.16595	0.7123	0.38383	-0.18
Mof_C 	C 	0.17627	0.66949	0.41533	0.09
Mof_H 	H 	0.1564	0.6284	0.4166	0.008
Mof_C 	C 	0.2163	0.68815	0.44491	-0.181
Mof_C 	C 	0.2461	0.7496	0.44298	0.249
Mof_C 	C 	0.2358	0.79238	0.41148	-0.208
Mof_C 	C 	0.1957	0.7737	0.3819	0.102
Mof_H 	H 	0.1888	0.8023	0.3608	-0.009
Mof_C 	C 	0.2646	0.8672	0.4109	0.314
Mof_C 	C 	0.3319	0.8619	0.4138	-0.768
Mof_H 	H 	0.3465	0.8374	0.3917	0.232
Mof_H 	H 	0.343	0.8387	0.4374	0.24
Mof_H 	H 	0.349	0.9063	0.4141	0.211
Mof_C 	C 	0.2434	0.9033	0.3721	-0.758
Mof_H 	H 	0.2612	0.8814	0.3502	0.239
Mof_H 	H 	0.2557	0.9497	0.3728	0.223
Mof_H 	H 	0.2005	0.9009	0.3697	0.245
Mof_C 	C 	0.226	0.6385	0.4745	0.073
Mof_H 	H 	0.2026	0.5998	0.4726	0.006
Mof_C 	C 	0.2702	0.5881	0.53075	0.024
Mof_C 	C 	0.2592	0.5207	0.52243	-0.084
Mof_H 	H 	0.2437	0.5083	0.4981	0.06
Mof_C 	C 	0.2712	0.4717	0.55047	-0.04
Mof_H 	H 	0.2638	0.4266	0.5449	0.029
Mof_C 	C 	0.2943	0.4902	0.58683	-0.042
Mof_H 	H 	0.3023	0.4574	0.6056	0.013
Mof_C 	C 	0.3053	0.5577	0.59515	-0.087
Mof_H 	H 	0.3207	0.57	0.6195	0.042
Mof_C 	C 	0.2933	0.60663	0.56711	0.017
Mof_C 	C 	0.315	0.7036	0.606	0.115
Mof_H 	H 	0.3084	0.6769	0.6277	-0.031
Mof_C 	C 	0.3328	0.77294	0.61262	-0.285
Mof_C 	C 	0.34914	0.78602	0.65118	0.179
Mof_H 	H 	0.3432	0.7535	0.6702	-0.044
Mof_C 	C 	0.37443	0.84776	0.66127	-0.299
Mof_C 	C 	0.38338	0.89643	0.6328	0.297
Mof_H 	H 	0.4003	0.9377	0.6396	-0.108
Mof_C 	C 	0.36705	0.88335	0.59424	-0.535
Mof_C 	C 	0.3418	0.8216	0.58415	0.406
Mof_C 	C 	0.374	0.9392	0.56267	1.079
Mof_C 	C 	0.4139	0.9169	0.5298	-1.54
Mof_H 	H 	0.3976	0.8769	0.5179	0.477
Mof_H 	H 	0.4535	0.9077	0.5399	0.451
Mof_H 	H 	0.416	0.9521	0.5106	0.435
Mof_C 	C 	0.313	0.9596	0.546	-1.537
Mof_H 	H 	0.2935	0.9208	0.5348	0.478
Mof_H 	H 	0.3181	0.9932	0.5262	0.443
Mof_H 	H 	0.2888	0.9775	0.5665	0.447
Mof_C 	C 	0.4026	0.0044	0.5805	-1.397
Mof_H 	H 	0.4063	0.0379	0.5605	0.389
Mof_H 	H 	0.4417	0.994	0.5912	0.405
Mof_H 	H 	0.3776	0.0213	0.6008	0.402
Mof_C 	C 	0.3973	0.8581	0.7029	0.438
Mof_C 	C 	0.0901	0.6944	0.20104	0.413
Mof_C 	C 	0.12199	0.70521	0.16286	-0.225
Mof_C 	C 	0.16121	0.75881	0.15769	0.128
Mof_H 	H 	0.1706	0.7872	0.1785	-0.009
Mof_C 	C 	0.18639	0.76995	0.12144	-0.216
Mof_C 	C 	0.17236	0.72749	0.09037	0.325
Mof_C 	C 	0.13314	0.67388	0.09554	-0.351
Mof_C 	C 	0.10795	0.66274	0.13178	0.188
Mof_H 	H 	0.0817	0.6269	0.1352	-0.055
Mof_C 	C 	0.12137	0.62017	0.06228	0.679
Mof_C 	C 	0.08463	0.55905	0.07571	-1.073
Mof_H 	H 	0.0461	0.5739	0.0843	0.311
Mof_H 	H 	0.1055	0.5369	0.0968	0.315
Mof_H 	H 	0.0794	0.5282	0.0544	0.291
Mof_C 	C 	0.18415	0.59023	0.04865	-1.039
Mof_H 	H 	0.2048	0.5703	0.0706	0.319
Mof_H 	H 	0.2082	0.6258	0.0382	0.332
Mof_H 	H 	0.1772	0.5566	0.029	0.287
Mof_C 	C 	0.08392	0.6543	0.02775	-1.032
Mof_H 	H 	0.0468	0.6713	0.0376	0.306
Mof_H 	H 	0.0757	0.6215	0.0078	0.279
Mof_H 	H 	0.1067	0.6907	0.017	0.316
Mof_C 	C 	0.23085	0.82439	0.12176	0.09
Mof_H 	H 	0.2407	0.8448	0.1454	-0.005
Mof_C 	C 	0.30243	0.89643	0.09194	0.034
Mof_C 	C 	0.31742	0.9336	0.12505	-0.09
Mof_H 	H 	0.2977	0.9256	0.1483	0.052
Mof_C 	C 	0.3618	0.9827	0.12341	-0.014
Mof_H 	H 	0.3718	0.0075	0.1456	0.019
Mof_C 	C 	0.39119	0.99459	0.08865	-0.041
Mof_H 	H 	0.4209	0.0274	0.0876	0.049
Mof_C 	C 	0.37621	0.9574	0.05554	-0.072
Mof_H 	H 	0.3959	0.9654	0.0323	0.055
Mof_C 	C 	0.33183	0.90835	0.05718	0.026
Mof_C 	C 	0.3439	0.8629	0.99372	0.109
Mof_H 	H 	0.3819	0.8825	0.9944	-0.006
Mof_C 	C 	0.32685	0.82833	0.95807	-0.252
Mof_C 	C 	0.36688	0.83691	0.92782	0.167
Mof_H 	H 	0.4028	0.8598	0.9322	-0.017
Mof_C 	C 	0.35323	0.8113	0.89099	-0.263
Mof_C 	C 	0.29956	0.7772	0.8844	0.263
Mof_H 	H 	0.2904	0.7601	0.8598	-0.087
Mof_C 	C 	0.25952	0.76861	0.91465	-0.472
Mof_C 	C 	0.27317	0.79417	0.95148	0.385
Mof_C 	C 	0.1983	0.732	0.9058	0.969
Mof_C 	C 	0.1961	0.6679	0.932	-1.341
Mof_H 	H 	0.1589	0.6446	0.9274	0.377
Mof_H 	H 	0.1991	0.6808	0.959	0.417
Mof_H 	H 	0.229	0.6387	0.9258	0.391
Mof_C 	C 	0.1458	0.778	0.9166	-1.437
Mof_H 	H 	0.1463	0.8177	0.9006	0.432
Mof_H 	H 	0.1496	0.7908	0.9435	0.45
Mof_H 	H 	0.1087	0.7544	0.9124	0.417
Mof_C 	C 	0.1914	0.7105	0.8628	-1.385
Mof_H 	H 	0.1925	0.7497	0.8464	0.405
Mof_H 	H 	0.1538	0.6877	0.8591	0.391
Mof_H 	H 	0.2236	0.6807	0.8562	0.401
Mof_C 	C 	0.3959	0.8223	0.85747	0.444
Mof_C 	C 	0.4631	0.7531	0.4474	-0.56
Mof_H 	H 	0.4353	0.7866	0.438	0.149
Mof_H 	H 	0.4862	0.7365	0.426	0.147
Mof_H 	H 	0.4895	0.7728	0.4666	0.157
Mof_C 	C 	0.4983	0.6663	0.4779	-0.35
Mof_H 	H 	0.5003	0.6216	0.4885	0.02
Mof_H 	H 	0.5151	0.6977	0.4964	0.11
Mof_H 	H 	0.5208	0.6681	0.4543	0.095
Mof_C 	C 	0.033	0.8989	0.0303	-0.778
Mof_H 	H 	0.0281	0.8614	0.0477	0.248
Mof_H 	H 	0.0043	0.8957	0.0093	0.276
Mof_H 	H 	0.0269	0.9402	0.0443	0.24
Mof_C 	C 	0.082	0.9671	0.9831	-0.727
Mof_H 	H 	0.1154	0.9856	0.9693	0.237
Mof_H 	H 	0.0656	0.0009	0.9999	0.227
Mof_H 	H 	0.0518	0.9525	0.9647	0.217
Mof_O 	O 	0.9355	0.8018	0.2739	-0.518
Mof_O 	O 	0.0296	0.8172	0.29294	-0.507
Mof_O 	O 	0.90457	0.0736	0.36486	-0.516
Mof_O 	O 	0.9288	0.2157	0.33921	-0.54
Mof_O 	O 	0.00867	0.52044	0.33818	-0.51
Mof_O 	O 	0.96549	0.5125	0.27935	-0.526
Mof_O 	O 	0.12257	0.7245	0.32077	-0.512
Mof_O 	O 	0.08259	0.6483	0.36112	-0.507
Mof_O 	O 	0.2842	0.7701	0.47112	-0.46
Mof_O 	O 	0.3272	0.8102	0.54733	-0.517
Mof_O 	O 	0.38179	0.8143	0.72826	-0.535
Mof_O 	O 	0.43024	0.9068	0.70979	-0.524
Mof_O 	O 	0.10368	0.7339	0.22901	-0.512
Mof_O 	O 	0.0516	0.6491	0.20204	-0.531
Mof_O 	O 	0.1909	0.7403	0.05466	-0.476
Mof_O 	O 	0.23498	0.7854	0.97995	-0.505
Mof_O 	O 	0.44609	0.8474	0.86543	-0.514
Mof_O 	O 	0.37759	0.8061	0.82382	-0.537
Mof_O 	O 	0.3983	0.6986	0.5058	-0.442
Mof_O 	O 	0.1666	0.8898	0.0292	-0.466
Mof_O 	O 	0.00076	0.65955	0.28205	-0.963
Mof_N 	N 	0.0283	0.2161	0.39186	-0.266
Mof_N 	N 	0.022	0.085	0.3925	-0.267
Mof_N 	N 	0.2574	0.8457	0.09031	-0.247
Mof_N 	N 	0.3122	0.8695	0.0246	-0.256
Mof_N 	N 	0.3077	0.6762	0.57219	-0.259
Mof_N 	N 	0.2631	0.641	0.50339	-0.253
Mof_S 	S 	0.424	0.6874	0.4679	0.271
Mof_S 	S 	0.1066	0.8977	0.0114	0.401
Mof_Zn	Zn	0.45397	0.34713	0.88027	1.181
Mof_Zn	Zn	0.73075	0.67957	0.53359	1.221
Mof_Zn	Zn	0.42393	0.797	0.77632	1.214
Mof_Zn	Zn	0.56269	0.77322	0.77827	1.206
Mof_Zn	Zn	0.50866	0.91441	0.74245	1.168
Mof_Zn	Zn	0.51159	0.88233	0.83236	1.205
Mof_Zn	Zn	0.81474	0.77403	0.0184	1.217
Mof_C 	C 	0.4762	0.6652	0.7912	0.435
Mof_C 	C 	0.45752	0.60138	0.81157	-0.26
Mof_C 	C 	0.49923	0.5633	0.8326	0.159
Mof_H 	H 	0.5391	0.5772	0.8343	-0.021
Mof_C 	C 	0.48143	0.50454	0.85117	-0.253
Mof_C 	C 	0.42191	0.48381	0.8487	0.364
Mof_C 	C 	0.38019	0.52187	0.82766	-0.445
Mof_C 	C 	0.398	0.58065	0.8091	0.246
Mof_H 	H 	0.3701	0.6061	0.795	-0.074
Mof_C 	C 	0.3126	0.5025	0.8258	0.868
Mof_C 	C 	0.2854	0.5032	0.868	-1.211
Mof_H 	H 	0.2905	0.5471	0.8793	0.351
Mof_H 	H 	0.2434	0.4925	0.8664	0.346
Mof_H 	H 	0.3058	0.4704	0.884	0.37
Mof_C 	C 	0.305	0.4318	0.8069	-1.28
Mof_H 	H 	0.3218	0.4321	0.7813	0.378
Mof_H 	H 	0.3255	0.3988	0.8227	0.389
Mof_H 	H 	0.2631	0.4207	0.805	0.383
Mof_C 	C 	0.2733	0.5518	0.8019	-1.284
Mof_H 	H 	0.2872	0.5536	0.7756	0.386
Mof_H 	H 	0.2324	0.5367	0.8019	0.374
Mof_H 	H 	0.2758	0.5959	0.8134	0.373
Mof_C 	C 	0.5279	0.4739	0.8751	0.093
Mof_H 	H 	0.5639	0.4969	0.8784	-0.01
Mof_C 	C 	0.56913	0.38636	0.91577	0.011
Mof_C 	C 	0.6088	0.42379	0.93879	-0.079
Mof_H 	H 	0.6066	0.4706	0.9387	0.042
Mof_C 	C 	0.65169	0.3913	0.96188	-0.048
Mof_H 	H 	0.6782	0.4163	0.9773	0.011
Mof_C 	C 	0.65493	0.3213	0.96195	-0.031
Mof_H 	H 	0.6836	0.2996	0.9774	0.006
Mof_C 	C 	0.6153	0.28389	0.93894	-0.092
Mof_H 	H 	0.6175	0.2371	0.939	0.054
Mof_C 	C 	0.57238	0.31641	0.91585	0.022
Mof_C 	C 	0.5332	0.2228	0.87946	0.1
Mof_H 	H 	0.5665	0.1983	0.8879	-0.003
Mof_C 	C 	0.49028	0.18893	0.8532	-0.268
Mof_C 	C 	0.50306	0.12151	0.84615	0.174
Mof_H 	H 	0.5345	0.1005	0.8596	-0.02
Mof_C 	C 	0.46887	0.08546	0.81905	-0.28
Mof_C 	C 	0.4219	0.11684	0.79899	0.289
Mof_H 	H 	0.399	0.0927	0.7809	-0.099
Mof_C 	C 	0.40912	0.18426	0.80603	-0.525
Mof_C 	C 	0.44331	0.22031	0.83314	0.397
Mof_C 	C 	0.3534	0.2174	0.7842	1.141
Mof_C 	C 	0.3749	0.2775	0.7606	-1.615
Mof_H 	H 	0.3413	0.2979	0.7472	0.468
Mof_H 	H 	0.3934	0.3099	0.7777	0.503
Mof_H 	H 	0.4036	0.2626	0.7418	0.476
Mof_C 	C 	0.3069	0.2394	0.8137	-1.624
Mof_H 	H 	0.2733	0.2596	0.8002	0.489
Mof_H 	H 	0.2935	0.2009	0.8281	0.498
Mof_H 	H 	0.3245	0.2717	0.8314	0.493
Mof_C 	C 	0.3214	0.1678	0.7557	-1.553
Mof_H 	H 	0.2881	0.1902	0.7432	0.455
Mof_H 	H 	0.3492	0.1531	0.7364	0.458
Mof_H 	H 	0.3072	0.1296	0.77	0.467
Mof_C 	C 	0.4818	0.0128	0.8115	0.409
Mof_C 	C 	0.6217	0.8062	0.85291	0.394
Mof_C 	C 	0.66595	0.7877	0.88383	-0.18
Mof_C 	C 	0.67627	0.83051	0.91533	0.09
Mof_H 	H 	0.6564	0.8716	0.9166	0.008
Mof_C 	C 	0.7163	0.81185	0.94491	-0.181
Mof_C 	C 	0.7461	0.7504	0.94298	0.249
Mof_C 	C 	0.7358	0.70762	0.91148	-0.208
Mof_C 	C 	0.6957	0.7263	0.8819	0.102
Mof_H 	H 	0.6888	0.6977	0.8608	-0.009
Mof_C 	C 	0.7646	0.6328	0.9109	0.315
Mof_C 	C 	0.8319	0.6381	0.9138	-0.769
Mof_H 	H 	0.8465	0.6626	0.8917	0.233
Mof_H 	H 	0.843	0.6613	0.9374	0.24
Mof_H 	H 	0.849	0.5937	0.9141	0.212
Mof_C 	C 	0.7434	0.5967	0.8721	-0.759
Mof_H 	H 	0.7612	0.6186	0.8502	0.239
Mof_H 	H 	0.7557	0.5503	0.8728	0.224
Mof_H 	H 	0.7005	0.5991	0.8697	0.245
Mof_C 	C 	0.726	0.8615	0.9745	0.074
Mof_H 	H 	0.7026	0.9002	0.9726	0.006
Mof_C 	C 	0.7702	0.9119	0.03075	0.025
Mof_C 	C 	0.7592	0.9793	0.02243	-0.084
Mof_H 	H 	0.7437	0.9917	0.9981	0.061
Mof_C 	C 	0.7712	0.0283	0.05047	-0.04
Mof_H 	H 	0.7638	0.0734	0.0449	0.029
Mof_C 	C 	0.7943	0.0098	0.08683	-0.044
Mof_H 	H 	0.8023	0.0426	0.1056	0.014
Mof_C 	C 	0.8053	0.9423	0.09515	-0.085
Mof_H 	H 	0.8207	0.93	0.1195	0.041
Mof_C 	C 	0.7933	0.89337	0.06711	0.017
Mof_C 	C 	0.815	0.7964	0.106	0.116
Mof_H 	H 	0.8084	0.8231	0.1277	-0.031
Mof_C 	C 	0.8328	0.72706	0.11262	-0.285
Mof_C 	C 	0.84914	0.71398	0.15118	0.179
Mof_H 	H 	0.8432	0.7465	0.1702	-0.044
Mof_C 	C 	0.87443	0.65224	0.16127	-0.299
Mof_C 	C 	0.88338	0.60357	0.1328	0.298
Mof_H 	H 	0.9003	0.5623	0.1396	-0.108
Mof_C 	C 	0.86705	0.61665	0.09424	-0.536
Mof_C 	C 	0.8418	0.6784	0.08415	0.407
Mof_C 	C 	0.874	0.5608	0.06267	1.082
Mof_C 	C 	0.9139	0.5831	0.0298	-1.544
Mof_H 	H 	0.8976	0.6231	0.0179	0.478
Mof_H 	H 	0.9535	0.5923	0.0399	0.452
Mof_H 	H 	0.916	0.5479	0.0106	0.436
Mof_C 	C 	0.813	0.5404	0.046	-1.54
Mof_H 	H 	0.7935	0.5792	0.0348	0.479
Mof_H 	H 	0.8181	0.5068	0.0262	0.444
Mof_H 	H 	0.7888	0.5225	0.0665	0.448
Mof_C 	C 	0.9026	0.4956	0.0805	-1.401
Mof_H 	H 	0.9063	0.4621	0.0605	0.39
Mof_H 	H 	0.9417	0.506	0.0912	0.407
Mof_H 	H 	0.8776	0.4787	0.1008	0.403
Mof_C 	C 	0.8973	0.6419	0.2029	0.439
Mof_C 	C 	0.5901	0.8056	0.70104	0.413
Mof_C 	C 	0.62199	0.79479	0.66286	-0.225
Mof_C 	C 	0.66121	0.74119	0.65769	0.128
Mof_H 	H 	0.6706	0.7128	0.6785	-0.008
Mof_C 	C 	0.68639	0.73005	0.62144	-0.216
Mof_C 	C 	0.67236	0.77251	0.59037	0.325
Mof_C 	C 	0.63314	0.82612	0.59554	-0.352
Mof_C 	C 	0.60795	0.83726	0.63178	0.188
Mof_H 	H 	0.5817	0.8731	0.6352	-0.055
Mof_C 	C 	0.62137	0.87983	0.56228	0.679
Mof_C 	C 	0.58463	0.94095	0.57571	-1.074
Mof_H 	H 	0.5461	0.9261	0.5843	0.311
Mof_H 	H 	0.6055	0.9631	0.5968	0.316
Mof_H 	H 	0.5794	0.9718	0.5544	0.292
Mof_C 	C 	0.68415	0.90977	0.54865	-1.04
Mof_H 	H 	0.7048	0.9297	0.5706	0.319
Mof_H 	H 	0.7082	0.8742	0.5382	0.332
Mof_H 	H 	0.6772	0.9434	0.529	0.288
Mof_C 	C 	0.58392	0.8457	0.52775	-1.032
Mof_H 	H 	0.5468	0.8287	0.5376	0.306
Mof_H 	H 	0.5757	0.8785	0.5078	0.28
Mof_H 	H 	0.6067	0.8093	0.517	0.317
Mof_C 	C 	0.73085	0.67561	0.62176	0.09
Mof_H 	H 	0.7407	0.6552	0.6454	-0.005
Mof_C 	C 	0.80243	0.60357	0.59194	0.034
Mof_C 	C 	0.81742	0.5664	0.62505	-0.09
Mof_H 	H 	0.7977	0.5744	0.6483	0.052
Mof_C 	C 	0.8618	0.5173	0.62341	-0.012
Mof_H 	H 	0.8718	0.4925	0.6456	0.018
Mof_C 	C 	0.89119	0.50541	0.58865	-0.04
Mof_H 	H 	0.9209	0.4726	0.5876	0.049
Mof_C 	C 	0.87621	0.5426	0.55554	-0.072
Mof_H 	H 	0.8959	0.5346	0.5323	0.055
Mof_C 	C 	0.83183	0.59165	0.55718	0.026
Mof_C 	C 	0.8439	0.6371	0.49372	0.109
Mof_H 	H 	0.8819	0.6175	0.4944	-0.006
Mof_C 	C 	0.82685	0.67167	0.45807	-0.252
Mof_C 	C 	0.86688	0.66309	0.42782	0.167
Mof_H 	H 	0.9028	0.6402	0.4322	-0.017
Mof_C 	C 	0.85323	0.6887	0.39099	-0.263
Mof_C 	C 	0.79956	0.7228	0.3844	0.263
Mof_H 	H 	0.7904	0.7399	0.3598	-0.087
Mof_C 	C 	0.75952	0.73139	0.41465	-0.472
Mof_C 	C 	0.77317	0.70583	0.45148	0.385
Mof_C 	C 	0.6983	0.768	0.4058	0.97
Mof_C 	C 	0.6961	0.8321	0.432	-1.342
Mof_H 	H 	0.6589	0.8554	0.4274	0.378
Mof_H 	H 	0.6991	0.8192	0.459	0.417
Mof_H 	H 	0.729	0.8613	0.4258	0.392
Mof_C 	C 	0.6458	0.722	0.4166	-1.437
Mof_H 	H 	0.6463	0.6823	0.4006	0.432
Mof_H 	H 	0.6496	0.7092	0.4435	0.45
Mof_H 	H 	0.6087	0.7456	0.4124	0.418
Mof_C 	C 	0.6914	0.7895	0.3628	-1.385
Mof_H 	H 	0.6925	0.7503	0.3464	0.405
Mof_H 	H 	0.6538	0.8123	0.3591	0.392
Mof_H 	H 	0.7236	0.8193	0.3562	0.402
Mof_C 	C 	0.8959	0.6777	0.35747	0.444
Mof_C 	C 	0.9631	0.7469	0.9474	-0.56
Mof_H 	H 	0.9353	0.7134	0.938	0.149
Mof_H 	H 	0.9862	0.7635	0.926	0.148
Mof_H 	H 	0.9895	0.7272	0.9666	0.158
Mof_C 	C 	0.9983	0.8337	0.9779	-0.318
Mof_H 	H 	0.0003	0.8784	0.9885	0.004
Mof_H 	H 	0.0151	0.8023	0.9964	0.1
Mof_H 	H 	0.0208	0.8319	0.9543	0.085
Mof_C 	C 	0.533	0.6011	0.5303	-0.761
Mof_H 	H 	0.5281	0.6386	0.5477	0.243
Mof_H 	H 	0.5043	0.6043	0.5093	0.264
Mof_H 	H 	0.5269	0.5598	0.5443	0.236
Mof_C 	C 	0.582	0.5329	0.4831	-0.719
Mof_H 	H 	0.6154	0.5144	0.4693	0.235
Mof_H 	H 	0.5656	0.4991	0.4999	0.224
Mof_H 	H 	0.5518	0.5475	0.4647	0.214
Mof_O 	O 	0.4355	0.6982	0.7739	-0.518
Mof_O 	O 	0.5296	0.6828	0.79294	-0.505
Mof_O 	O 	0.40457	0.4264	0.86486	-0.516
Mof_O 	O 	0.4288	0.2843	0.83921	-0.54
Mof_O 	O 	0.50867	0.97956	0.83818	-0.51
Mof_O 	O 	0.46549	0.9875	0.77935	-0.526
Mof_O 	O 	0.62257	0.7755	0.82077	-0.512
Mof_O 	O 	0.58259	0.8517	0.86112	-0.507
Mof_O 	O 	0.7842	0.7299	0.97112	-0.46
Mof_O 	O 	0.8272	0.6898	0.04733	-0.517
Mof_O 	O 	0.88179	0.6857	0.22826	-0.535
Mof_O 	O 	0.93024	0.5932	0.20979	-0.523
Mof_O 	O 	0.60368	0.7661	0.72901	-0.512
Mof_O 	O 	0.5516	0.8509	0.70204	-0.531
Mof_O 	O 	0.6909	0.7597	0.55466	-0.476
Mof_O 	O 	0.73498	0.7146	0.47995	-0.505
Mof_O 	O 	0.94609	0.6526	0.36543	-0.513
Mof_O 	O 	0.87759	0.6939	0.32382	-0.537
Mof_O 	O 	0.8983	0.8014	0.0058	-0.441
Mof_O 	O 	0.6666	0.6102	0.5292	-0.464
Mof_O 	O 	0.50076	0.84045	0.78205	-0.963
Mof_N 	N 	0.5283	0.2839	0.89186	-0.266
Mof_N 	N 	0.522	0.415	0.8925	-0.267
Mof_N 	N 	0.7574	0.6543	0.59031	-0.247
Mof_N 	N 	0.8122	0.6305	0.5246	-0.256
Mof_N 	N 	0.8077	0.8238	0.07219	-0.259
Mof_N 	N 	0.7631	0.859	0.00339	-0.253
Mof_S 	S 	0.924	0.8126	0.9679	0.265
Mof_S 	S 	0.6066	0.6023	0.5114	0.395
_end
