data_functionalizedCrystal
_audit_creation_method	'EQeq! by Chris Wilmer'
_symmetry_space_group_name_H-M	'P1'
_symmetry_Int_Tables_number	1
_symmetry_cell_setting	triclinic
loop_
_symmetry_equiv_pos_as_xyz
  x,y,z
_cell_length_a	20.4051
_cell_length_b	16.4969
_cell_length_c	9.3469
_cell_angle_alpha	90
_cell_angle_beta	94.1221
_cell_angle_gamma	90
loop_
_atom_site_label
_atom_site_type_symbol
_atom_site_fract_x
_atom_site_fract_y
_atom_site_fract_z
_atom_site_charge
Mof_O 	O 	0.31153	0.17296	0.40871	-0.468
Mof_O 	O 	0.18491	0.16981	0.62729	-0.435
Mof_O 	O 	0.18445	0.1709	0.3881	-0.441
Mof_O 	O 	0.32059	0.1751	0.64922	-0.431
Mof_C 	C 	0.15819	0.14783	0.50369	0.334
Mof_C 	C 	0.10037	0.09762	0.48581	-0.093
Mof_C 	C 	0.0668	0.06204	0.59893	-0.009
Mof_H 	H 	0.08322	0.07594	0.70853	0.041
Mof_C 	C 	0.39476	0.05575	0.37775	0.009
Mof_H 	H 	0.3544	0.06846	0.30069	0.045
Mof_C 	C 	0.97776	0.97445	0.68183	-0.061
Mof_H 	H 	0.99286	0.98845	0.79095	0.044
Mof_C 	C 	0.01163	0.00879	0.57092	0.013
Mof_H 	H 	0.33828	0.30293	0.14422	0.044
Mof_H 	H 	0.34104	0.1966	0.89492	0.051
Mof_C 	C 	0.34182	0.15043	0.52833	0.33
Mof_C 	C 	0.39611	0.09175	0.51464	-0.08
Mof_C 	C 	0.45174	0.07328	0.60905	-0.014
Mof_H 	H 	0.45697	0.10317	0.71232	0.041
Mof_C 	C 	0.07688	0.07689	0.34568	0.017
Mof_H 	H 	0.1013	0.10046	0.256	0.038
Mof_C 	C 	0.44484	0.00335	0.33706	-0.058
Mof_H 	H 	0.44335	0.9814	0.22909	0.045
Mof_C 	C 	0.50173	0.01785	0.56855	0.013
Mof_C 	C 	0.2111	0.17773	0.08085	-0.031
Mof_H 	H 	0.23459	0.12142	0.1247	0.042
Mof_H 	H 	0.15982	0.17498	0.11061	0.042
Mof_C 	C 	0.2121	0.17814	0.90965	-0.036
Mof_H 	H 	0.16082	0.1768	0.86328	0.05
Mof_H 	H 	0.23456	0.12145	0.87236	0.047
Mof_O 	O 	0.68847	0.67296	0.59129	-0.467
Mof_O 	O 	0.81509	0.66981	0.37271	-0.434
Mof_O 	O 	0.81555	0.6709	0.6119	-0.44
Mof_O 	O 	0.67941	0.6751	0.35078	-0.43
Mof_C 	C 	0.84181	0.64783	0.49631	0.334
Mof_C 	C 	0.89963	0.59762	0.51419	-0.093
Mof_C 	C 	0.9332	0.56204	0.40107	-0.009
Mof_H 	H 	0.91678	0.57594	0.29147	0.041
Mof_C 	C 	0.60524	0.55575	0.62225	0.009
Mof_H 	H 	0.6456	0.56846	0.69931	0.045
Mof_C 	C 	0.02224	0.47445	0.31817	-0.061
Mof_H 	H 	0.00714	0.48845	0.20905	0.044
Mof_C 	C 	0.98837	0.50879	0.42908	0.013
Mof_H 	H 	0.66172	0.80293	0.85578	0.044
Mof_H 	H 	0.65896	0.6966	0.10508	0.051
Mof_C 	C 	0.65818	0.65043	0.47167	0.33
Mof_C 	C 	0.60389	0.59175	0.48536	-0.08
Mof_C 	C 	0.54826	0.57328	0.39095	-0.014
Mof_H 	H 	0.54303	0.60317	0.28768	0.041
Mof_C 	C 	0.92312	0.57689	0.65432	0.017
Mof_H 	H 	0.8987	0.60046	0.744	0.038
Mof_C 	C 	0.55516	0.50335	0.66294	-0.058
Mof_H 	H 	0.55665	0.4814	0.77091	0.045
Mof_C 	C 	0.49827	0.51785	0.43145	0.013
Mof_C 	C 	0.7889	0.67773	0.91915	-0.031
Mof_H 	H 	0.76541	0.62142	0.8753	0.042
Mof_H 	H 	0.84018	0.67498	0.88939	0.042
Mof_C 	C 	0.7879	0.67814	0.09035	-0.036
Mof_H 	H 	0.83918	0.6768	0.13672	0.05
Mof_H 	H 	0.76544	0.62145	0.12764	0.047
Mof_O 	O 	0.68847	0.82704	0.59129	-0.467
Mof_O 	O 	0.81509	0.83019	0.37271	-0.434
Mof_O 	O 	0.81555	0.8291	0.6119	-0.44
Mof_O 	O 	0.67941	0.8249	0.35078	-0.43
Mof_C 	C 	0.84181	0.85217	0.49631	0.334
Mof_C 	C 	0.89963	0.90238	0.51419	-0.093
Mof_C 	C 	0.9332	0.93796	0.40107	-0.009
Mof_H 	H 	0.91678	0.92406	0.29147	0.041
Mof_C 	C 	0.60524	0.94425	0.62225	0.009
Mof_H 	H 	0.6456	0.93154	0.69931	0.045
Mof_C 	C 	0.02224	0.02555	0.31817	-0.061
Mof_H 	H 	0.00714	0.01155	0.20905	0.044
Mof_C 	C 	0.98837	0.99121	0.42908	0.013
Mof_H 	H 	0.66172	0.69707	0.85578	0.044
Mof_H 	H 	0.65896	0.8034	0.10508	0.051
Mof_C 	C 	0.65818	0.84957	0.47167	0.33
Mof_C 	C 	0.60389	0.90825	0.48536	-0.08
Mof_C 	C 	0.54826	0.92672	0.39095	-0.014
Mof_H 	H 	0.54303	0.89683	0.28768	0.041
Mof_C 	C 	0.92312	0.92311	0.65432	0.017
Mof_H 	H 	0.8987	0.89954	0.744	0.038
Mof_C 	C 	0.55516	0.99665	0.66294	-0.058
Mof_H 	H 	0.55665	0.0186	0.77091	0.045
Mof_C 	C 	0.49827	0.98215	0.43145	0.013
Mof_C 	C 	0.7889	0.82227	0.91915	-0.031
Mof_H 	H 	0.76541	0.87858	0.8753	0.042
Mof_H 	H 	0.84018	0.82502	0.88939	0.042
Mof_C 	C 	0.7879	0.82186	0.09035	-0.036
Mof_H 	H 	0.83918	0.8232	0.13672	0.05
Mof_H 	H 	0.76544	0.87855	0.12764	0.047
Mof_O 	O 	0.31153	0.32704	0.40871	-0.467
Mof_O 	O 	0.18491	0.33019	0.62729	-0.434
Mof_O 	O 	0.18445	0.3291	0.3881	-0.44
Mof_O 	O 	0.32059	0.3249	0.64922	-0.43
Mof_C 	C 	0.15819	0.35217	0.50369	0.334
Mof_C 	C 	0.10037	0.40238	0.48581	-0.093
Mof_C 	C 	0.0668	0.43796	0.59893	-0.009
Mof_H 	H 	0.08322	0.42406	0.70853	0.041
Mof_C 	C 	0.39476	0.44425	0.37775	0.009
Mof_H 	H 	0.3544	0.43154	0.30069	0.045
Mof_C 	C 	0.97776	0.52555	0.68183	-0.061
Mof_H 	H 	0.99286	0.51155	0.79095	0.044
Mof_C 	C 	0.01163	0.49121	0.57092	0.013
Mof_H 	H 	0.33828	0.19707	0.14422	0.044
Mof_H 	H 	0.34104	0.3034	0.89492	0.051
Mof_C 	C 	0.34182	0.34957	0.52833	0.33
Mof_C 	C 	0.39611	0.40825	0.51464	-0.08
Mof_C 	C 	0.45174	0.42672	0.60905	-0.014
Mof_H 	H 	0.45697	0.39683	0.71232	0.041
Mof_C 	C 	0.07688	0.42311	0.34568	0.017
Mof_H 	H 	0.1013	0.39954	0.256	0.038
Mof_C 	C 	0.44484	0.49665	0.33706	-0.058
Mof_H 	H 	0.44335	0.5186	0.22909	0.045
Mof_C 	C 	0.50173	0.48215	0.56855	0.013
Mof_C 	C 	0.2111	0.32227	0.08085	-0.031
Mof_H 	H 	0.23459	0.37858	0.1247	0.042
Mof_H 	H 	0.15982	0.32502	0.11061	0.042
Mof_C 	C 	0.2121	0.32186	0.90965	-0.036
Mof_H 	H 	0.16082	0.3232	0.86328	0.05
Mof_H 	H 	0.23456	0.37855	0.87236	0.047
Mof_Ni	Ni	0.25177	0.25	0.63725	1.099
Mof_Ni	Ni	0.25009	0.25	0.39237	1.111
Mof_N 	N 	0.2465	0.25	0.85199	-0.168
Mof_N 	N 	0.24362	0.25	0.15064	-0.149
Mof_C 	C 	0.31115	0.25	0.09954	-0.037
Mof_C 	C 	0.31301	0.25	0.92841	-0.04
Mof_Ni	Ni	0.74823	0.75	0.36275	1.099
Mof_Ni	Ni	0.74991	0.75	0.60763	1.111
Mof_N 	N 	0.7535	0.75	0.14801	-0.168
Mof_N 	N 	0.75638	0.75	0.84936	-0.149
Mof_C 	C 	0.68885	0.75	0.90046	-0.037
Mof_C 	C 	0.68699	0.75	0.07159	-0.04
_end
