data_functionalizedCrystal
_audit_creation_method	'EQeq! by Chris Wilmer'
_symmetry_space_group_name_H-M	'P1'
_symmetry_Int_Tables_number	1
_symmetry_cell_setting	triclinic
loop_
_symmetry_equiv_pos_as_xyz
  x,y,z
_cell_length_a	12.681
_cell_length_b	16.1637
_cell_length_c	16.1637
_cell_angle_alpha	66.5832
_cell_angle_beta	74.8402
_cell_angle_gamma	105.16
loop_
_atom_site_label
_atom_site_type_symbol
_atom_site_fract_x
_atom_site_fract_y
_atom_site_fract_z
_atom_site_charge
Mof_Nd	Nd	0.00196	0.13637	0.46464	2.776
Mof_Nd	Nd	0.4666	0.46464	0.39899	2.803
Mof_Nd	Nd	0.86559	0.39899	0.13637	2.809
Mof_Nd	Nd	0.99804	0.86363	0.53536	2.776
Mof_Nd	Nd	0.5334	0.53536	0.60101	2.803
Mof_Nd	Nd	0.13441	0.60101	0.86363	2.809
Mof_H 	H 	0.6857	0.842	0.5363	0.19
Mof_H 	H 	0.7745	0.8859	0.4269	0.188
Mof_H 	H 	0.3972	0.8242	0.5929	0.219
Mof_H 	H 	0.2816	0.7619	0.5912	0.21
Mof_H 	H 	0.696	0.9065	0.2984	-0.089
Mof_H 	H 	0.5774	0.9093	0.2901	-0.086
Mof_H 	H 	0.5841	0.936	0.483	-0.01
Mof_H 	H 	0.6745	0.9829	0.373	-0.006
Mof_H 	H 	0.6604	0.8284	0.2314	0.26
Mof_H 	H 	0.5227	0.7786	0.295	0.273
Mof_H 	H 	0.222	0.5363	0.6217	0.192
Mof_H 	H 	0.2014	0.4269	0.6872	0.19
Mof_H 	H 	0.9901	0.5929	0.5829	0.22
Mof_H 	H 	0.8728	0.5912	0.6469	0.211
Mof_H 	H 	0.9944	0.2984	0.7951	-0.085
Mof_H 	H 	0.8675	0.2901	0.8006	-0.084
Mof_H 	H 	0.0671	0.483	0.581	-0.009
Mof_H 	H 	0.0475	0.373	0.6441	-0.005
Mof_H 	H 	0.8918	0.2314	0.9402	0.261
Mof_H 	H 	0.8177	0.295	0.9264	0.272
Mof_H 	H 	0.8437	0.6217	0.842	0.19
Mof_H 	H 	0.8886	0.6872	0.8859	0.188
Mof_H 	H 	0.573	0.5829	0.8242	0.218
Mof_H 	H 	0.5197	0.6469	0.7619	0.21
Mof_H 	H 	0.7895	0.7951	0.9065	-0.085
Mof_H 	H 	0.6681	0.8006	0.9093	-0.082
Mof_H 	H 	0.6481	0.581	0.936	-0.009
Mof_H 	H 	0.6916	0.6441	0.9829	-0.005
Mof_H 	H 	0.832	0.9402	0.8284	0.251
Mof_H 	H 	0.7441	0.9264	0.7786	0.265
Mof_H 	H 	0.3143	0.158	0.4637	0.19
Mof_H 	H 	0.2255	0.1141	0.5731	0.188
Mof_H 	H 	0.6028	0.1758	0.4071	0.219
Mof_H 	H 	0.7184	0.2381	0.4088	0.21
Mof_H 	H 	0.304	0.0935	0.7016	-0.089
Mof_H 	H 	0.4226	0.0907	0.7099	-0.086
Mof_H 	H 	0.4159	0.064	0.517	-0.01
Mof_H 	H 	0.3255	0.0171	0.627	-0.006
Mof_H 	H 	0.3396	0.1716	0.7686	0.26
Mof_H 	H 	0.4773	0.2214	0.705	0.273
Mof_H 	H 	0.778	0.4637	0.3783	0.192
Mof_H 	H 	0.7986	0.5731	0.3128	0.19
Mof_H 	H 	0.0099	0.4071	0.4171	0.22
Mof_H 	H 	0.1272	0.4088	0.3531	0.211
Mof_H 	H 	0.0056	0.7016	0.2049	-0.085
Mof_H 	H 	0.1325	0.7099	0.1994	-0.084
Mof_H 	H 	0.9329	0.517	0.419	-0.009
Mof_H 	H 	0.9525	0.627	0.3559	-0.005
Mof_H 	H 	0.1082	0.7686	0.0598	0.261
Mof_H 	H 	0.1823	0.705	0.0736	0.272
Mof_H 	H 	0.1563	0.3783	0.158	0.19
Mof_H 	H 	0.1114	0.3128	0.1141	0.188
Mof_H 	H 	0.427	0.4171	0.1758	0.218
Mof_H 	H 	0.4803	0.3531	0.2381	0.21
Mof_H 	H 	0.2105	0.2049	0.0935	-0.085
Mof_H 	H 	0.3319	0.1994	0.0907	-0.082
Mof_H 	H 	0.3519	0.419	0.064	-0.009
Mof_H 	H 	0.3084	0.3559	0.0171	-0.005
Mof_H 	H 	0.168	0.0598	0.1716	0.251
Mof_H 	H 	0.2559	0.0736	0.2214	0.265
Mof_C 	C 	0.8062	0.977	0.4784	0.56
Mof_C 	C 	0.7265	0.9011	0.4715	-0.536
Mof_C 	C 	0.3724	0.6817	0.6406	0.683
Mof_C 	C 	0.3657	0.7752	0.5754	-0.598
Mof_C 	C 	0.4286	0.82	0.4669	0.204
Mof_C 	C 	0.6106	0.8666	0.3248	0.423
Mof_C 	C 	0.635	0.9234	0.4374	0.198
Mof_C 	C 	0.6096	0.6998	0.3596	0.694
Mof_C 	C 	0.5992	0.7969	0.2983	-0.755
Mof_C 	C 	0.2846	0.4784	0.5446	0.574
Mof_C 	C 	0.198	0.4715	0.6274	-0.544
Mof_C 	C 	0.013	0.6406	0.6777	0.687
Mof_C 	C 	0.9411	0.5754	0.6494	-0.603
Mof_C 	C 	0.8955	0.4669	0.7131	0.205
Mof_C 	C 	0.9354	0.3248	0.8086	0.419
Mof_C 	C 	0.0724	0.4374	0.6392	0.201
Mof_C 	C 	0.9692	0.3596	0.9406	0.693
Mof_C 	C 	0.8975	0.2983	0.9048	-0.752
Mof_C 	C 	0.8292	0.5446	0.977	0.57
Mof_C 	C 	0.8254	0.6274	0.9011	-0.54
Mof_C 	C 	0.6907	0.6777	0.6817	0.682
Mof_C 	C 	0.5905	0.6494	0.7752	-0.597
Mof_C 	C 	0.6086	0.7131	0.82	0.204
Mof_C 	C 	0.744	0.8086	0.8666	0.408
Mof_C 	C 	0.7116	0.6392	0.9234	0.199
Mof_C 	C 	0.9098	0.9406	0.6998	0.67
Mof_C 	C 	0.8023	0.9048	0.7969	-0.733
Mof_C 	C 	0.1938	0.023	0.5216	0.56
Mof_C 	C 	0.2735	0.0989	0.5285	-0.536
Mof_C 	C 	0.6276	0.3183	0.3594	0.683
Mof_C 	C 	0.6343	0.2248	0.4246	-0.598
Mof_C 	C 	0.5714	0.18	0.5331	0.204
Mof_C 	C 	0.3894	0.1334	0.6752	0.423
Mof_C 	C 	0.365	0.0766	0.5626	0.198
Mof_C 	C 	0.3904	0.3002	0.6404	0.694
Mof_C 	C 	0.4008	0.2031	0.7017	-0.755
Mof_C 	C 	0.7154	0.5216	0.4554	0.574
Mof_C 	C 	0.802	0.5285	0.3726	-0.544
Mof_C 	C 	0.987	0.3594	0.3223	0.687
Mof_C 	C 	0.0589	0.4246	0.3506	-0.603
Mof_C 	C 	0.1045	0.5331	0.2869	0.205
Mof_C 	C 	0.0646	0.6752	0.1914	0.419
Mof_C 	C 	0.9276	0.5626	0.3608	0.201
Mof_C 	C 	0.0308	0.6404	0.0594	0.693
Mof_C 	C 	0.1025	0.7017	0.0952	-0.752
Mof_C 	C 	0.1708	0.4554	0.023	0.57
Mof_C 	C 	0.1746	0.3726	0.0989	-0.54
Mof_C 	C 	0.3093	0.3223	0.3183	0.682
Mof_C 	C 	0.4095	0.3506	0.2248	-0.597
Mof_C 	C 	0.3914	0.2869	0.18	0.204
Mof_C 	C 	0.256	0.1914	0.1334	0.408
Mof_C 	C 	0.2884	0.3608	0.0766	0.199
Mof_C 	C 	0.0902	0.0594	0.3002	0.67
Mof_C 	C 	0.1977	0.0952	0.2031	-0.733
Mof_N 	N 	0.5587	0.8412	0.4302	-0.198
Mof_N 	N 	0.9889	0.4302	0.7286	-0.197
Mof_N 	N 	0.7175	0.7286	0.8412	-0.196
Mof_N 	N 	0.4413	0.1588	0.5698	-0.198
Mof_N 	N 	0.0111	0.5698	0.2714	-0.197
Mof_N 	N 	0.2825	0.2714	0.1588	-0.196
Mof_O 	O 	0.8113	0.0631	0.4391	-0.467
Mof_O 	O 	0.6244	0.6862	0.4351	-0.597
Mof_O 	O 	0.3016	0.6295	0.7276	-0.649
Mof_O 	O 	0.4551	0.6604	0.6028	-0.582
Mof_O 	O 	0.874	0.9577	0.523	-0.779
Mof_O 	O 	0.0902	0.2403	0.529	-0.368
Mof_O 	O 	0.6019	0.6432	0.3252	-0.616
Mof_O 	O 	0.8199	0.1398	0.5731	-0.332
Mof_O 	O 	0.2504	0.4391	0.4978	-0.479
Mof_O 	O 	0.0595	0.4351	0.8787	-0.597
Mof_O 	O 	0.0292	0.7276	0.6429	-0.642
Mof_O 	O 	0.0579	0.6028	0.7368	-0.582
Mof_O 	O 	0.397	0.523	0.5193	-0.784
Mof_O 	O 	0.6192	0.529	0.2307	-0.368
Mof_O 	O 	0.9271	0.3252	0.0316	-0.612
Mof_O 	O 	0.393	0.5731	0.2871	-0.338
Mof_O 	O 	0.7482	0.4978	0.0631	-0.477
Mof_O 	O 	0.9382	0.8787	0.6862	-0.591
Mof_O 	O 	0.6721	0.6429	0.6295	-0.647
Mof_O 	O 	0.7947	0.7368	0.6604	-0.58
Mof_O 	O 	0.9163	0.5193	0.9577	-0.786
Mof_O 	O 	0.8499	0.2307	0.2403	-0.366
Mof_O 	O 	0.9587	0.0316	0.6432	-0.593
Mof_O 	O 	0.6801	0.2871	0.1398	-0.338
Mof_O 	O 	0.1887	0.9369	0.5609	-0.467
Mof_O 	O 	0.3756	0.3138	0.5649	-0.597
Mof_O 	O 	0.6984	0.3705	0.2724	-0.649
Mof_O 	O 	0.5449	0.3396	0.3972	-0.582
Mof_O 	O 	0.126	0.0423	0.477	-0.779
Mof_O 	O 	0.9098	0.7597	0.471	-0.368
Mof_O 	O 	0.3981	0.3568	0.6748	-0.616
Mof_O 	O 	0.1801	0.8602	0.4269	-0.332
Mof_O 	O 	0.7496	0.5609	0.5022	-0.479
Mof_O 	O 	0.9405	0.5649	0.1213	-0.597
Mof_O 	O 	0.9708	0.2724	0.3571	-0.642
Mof_O 	O 	0.9421	0.3972	0.2632	-0.582
Mof_O 	O 	0.603	0.477	0.4807	-0.784
Mof_O 	O 	0.3808	0.471	0.7693	-0.368
Mof_O 	O 	0.0729	0.6748	0.9684	-0.612
Mof_O 	O 	0.607	0.4269	0.7129	-0.338
Mof_O 	O 	0.2518	0.5022	0.9369	-0.477
Mof_O 	O 	0.0618	0.1213	0.3138	-0.591
Mof_O 	O 	0.3279	0.3571	0.3705	-0.647
Mof_O 	O 	0.2053	0.2632	0.3396	-0.58
Mof_O 	O 	0.0837	0.4807	0.0423	-0.786
Mof_O 	O 	0.1501	0.7693	0.7597	-0.366
Mof_O 	O 	0.0413	0.9684	0.3568	-0.593
Mof_O 	O 	0.3199	0.7129	0.8602	-0.338
Mof_Br	Br	0.61108	0.38135	0.93021	-0.232
Mof_Br	Br	0.54129	0.93021	0.68844	-0.234
Mof_Br	Br	0.22973	0.68844	0.38135	-0.23
Mof_Br	Br	0.38892	0.61865	0.06979	-0.232
Mof_Br	Br	0.45871	0.06979	0.31156	-0.234
Mof_Br	Br	0.77027	0.31156	0.61865	-0.23
_end
