data_functionalizedCrystal
_audit_creation_method	'EQeq! by Chris Wilmer'
_symmetry_space_group_name_H-M	'P1'
_symmetry_Int_Tables_number	1
_symmetry_cell_setting	triclinic
loop_
_symmetry_equiv_pos_as_xyz
  x,y,z
_cell_length_a	7.085
_cell_length_b	13.334
_cell_length_c	14.383
_cell_angle_alpha	69.66
_cell_angle_beta	90.02
_cell_angle_gamma	74.6
loop_
_atom_site_label
_atom_site_type_symbol
_atom_site_fract_x
_atom_site_fract_y
_atom_site_fract_z
_atom_site_charge
Mof_Pd	Pd	0.48136	0.03734	0.73828	0.303
Mof_C 	C 	0.6788	0.0392	0.8362	-0.231
Mof_N 	N 	0.1818	0.019	0.5881	-0.27
Mof_N 	N 	0.792	0.0324	0.8965	-0.207
Mof_C 	C 	0.2867	0.0285	0.6433	-0.29
Mof_C 	C 	0.6844	0.0285	0.6434	-0.267
Mof_N 	N 	0.799	0.019	0.5887	-0.247
Mof_N 	N 	0.9214	0.1573	0.9887	-0.164
Mof_N 	N 	0.9188	0.1618	0.425	-0.166
Mof_C 	C 	0.2836	0.0393	0.8361	-0.247
Mof_N 	N 	0.8815	0.2368	0.4738	-0.108
Mof_C 	C 	0.7442	0.5108	0.2167	0.017
Mof_H 	H 	0.7378	0.5203	0.2792	0.035
Mof_N 	N 	0.8354	0.3288	0.3154	-0.115
Mof_C 	C 	0.831	0.337	0.4056	0.097
Mof_H 	H 	0.7969	0.4047	0.4181	0.004
Mof_C 	C 	0.8802	0.243	0.9095	0.128
Mof_H 	H 	0.8821	0.2415	0.8439	-0.017
Mof_C 	C 	0.8895	0.2201	0.33	0.114
Mof_H 	H 	0.9045	0.19	0.2786	-0.057
Mof_N 	N 	0.794	0.4114	0.2172	-0.078
Mof_N 	N 	0.833	0.3366	0.9313	-0.106
Mof_N 	N 	0.9	0.1949	0.0703	-0.168
Mof_N 	N 	0.1755	0.0323	0.8965	-0.229
Mof_C 	C 	0.6396	0.7172	0.1258	-0.076
Mof_H 	H 	0.6262	0.7368	0.1834	0.046
Mof_C 	C 	0.6976	0.6089	0.1286	0.017
Mof_C 	C 	0.6026	0.7952	0.0279	0.015
Mof_H 	H 	0.6006	0.8711	0.0096	-0.104
Mof_C 	C 	0.7629	0.4735	0.7831	0.032
Mof_H 	H 	0.7914	0.4136	0.7592	0.029
Mof_C 	C 	0.684	0.7463	0.9631	-0.005
Mof_H 	H 	0.6929	0.7873	0.8953	0.007
Mof_N 	N 	0.777	0.4511	0.869	-0.077
Mof_C 	C 	0.7056	0.5854	0.7101	0.021
Mof_C 	C 	0.692	0.6131	0.6146	-0.056
Mof_H 	H 	0.7196	0.5592	0.5836	0.048
Mof_C 	C 	0.849	0.2984	0.0343	0.097
Mof_H 	H 	0.8247	0.3452	0.0725	0.018
Mof_C 	C 	0.6078	0.7865	0.6137	0.014
Mof_H 	H 	0.5963	0.864	0.5916	-0.112
Mof_C 	C 	0.636	0.727	0.5598	-0.045
Mof_H 	H 	0.6205	0.7573	0.489	0.034
Mof_S 	S 	0.7666	0.6068	0.0145	0.05
Mof_S 	S 	0.7045	0.7016	0.7352	-0.477
Mof_S 	S 	0.6258	0.6069	0.0142	-0.02
Mof_C 	C 	0.569	0.7457	0.9622	-0.062
Mof_H 	H 	0.5196	0.7864	0.8943	0.007
Mof_S 	S 	0.5934	0.7015	0.7351	0.448
Mof_Pd	Pd	0.519	0.962	0.6154	0.563
Mof_Fe	Fe	0.998	0.003	0.648	0.635
Mof_Fe	Fe	0.001	0.002	0.848	0.474
Mof_Pd	Pd	0.521	0.96	0.9147	0.516
Mof_Pd	Pd	0.51864	0.96266	0.26172	0.344
Mof_C 	C 	0.3212	0.9608	0.1638	-0.202
Mof_N 	N 	0.8182	0.981	0.4119	-0.216
Mof_N 	N 	0.208	0.9676	0.1035	-0.245
Mof_C 	C 	0.7133	0.9715	0.3567	-0.212
Mof_C 	C 	0.3156	0.9715	0.3566	-0.228
Mof_N 	N 	0.201	0.981	0.4113	-0.237
Mof_N 	N 	0.0786	0.8427	0.0113	-0.182
Mof_N 	N 	0.0812	0.8382	0.575	-0.176
Mof_C 	C 	0.7164	0.9607	0.1639	-0.192
Mof_N 	N 	0.1185	0.7632	0.5262	-0.12
Mof_C 	C 	0.2558	0.4892	0.7833	0.004
Mof_H 	H 	0.2622	0.4797	0.7208	0.031
Mof_N 	N 	0.1646	0.6712	0.6846	-0.119
Mof_C 	C 	0.169	0.663	0.5944	0.084
Mof_H 	H 	0.2031	0.5953	0.5819	-0.004
Mof_C 	C 	0.1198	0.757	0.0905	0.112
Mof_H 	H 	0.1179	0.7585	0.1561	-0.033
Mof_C 	C 	0.1105	0.7799	0.67	0.101
Mof_H 	H 	0.0955	0.81	0.7214	-0.062
Mof_N 	N 	0.206	0.5886	0.7828	-0.084
Mof_N 	N 	0.167	0.6634	0.0687	-0.125
Mof_N 	N 	0.1	0.8051	0.9297	-0.157
Mof_N 	N 	0.8245	0.9677	0.1035	-0.232
Mof_C 	C 	0.3604	0.2828	0.8742	-0.11
Mof_H 	H 	0.3738	0.2632	0.8166	0.052
Mof_C 	C 	0.3024	0.3911	0.8714	0.017
Mof_C 	C 	0.3974	0.2048	0.9721	0.071
Mof_H 	H 	0.3994	0.1289	0.9904	-0.099
Mof_C 	C 	0.2371	0.5265	0.2169	0.018
Mof_H 	H 	0.2086	0.5864	0.2408	0.022
Mof_C 	C 	0.316	0.2537	0.0369	-0.116
Mof_H 	H 	0.3071	0.2127	0.1047	0.014
Mof_N 	N 	0.223	0.5489	0.131	-0.089
Mof_C 	C 	0.2944	0.4146	0.2899	0.019
Mof_C 	C 	0.308	0.3869	0.3854	-0.064
Mof_H 	H 	0.2804	0.4408	0.4164	0.039
Mof_C 	C 	0.151	0.7016	0.9657	0.113
Mof_H 	H 	0.1753	0.6548	0.9275	0.008
Mof_C 	C 	0.3922	0.2135	0.3863	0.006
Mof_H 	H 	0.4037	0.136	0.4084	-0.104
Mof_C 	C 	0.364	0.273	0.4402	-0.052
Mof_H 	H 	0.3795	0.2427	0.511	0.029
Mof_S 	S 	0.2334	0.3932	0.9855	0.01
Mof_S 	S 	0.2955	0.2984	0.2648	0.344
Mof_S 	S 	0.3742	0.3931	0.9858	0.044
Mof_C 	C 	0.431	0.2543	0.0378	-0.032
Mof_H 	H 	0.4804	0.2136	0.1057	0.003
Mof_S 	S 	0.4066	0.2985	0.2649	-0.405
Mof_Pd	Pd	0.481	0.038	0.3846	0.411
Mof_Fe	Fe	0.002	0.997	0.352	0.517
Mof_Fe	Fe	0.999	0.998	0.152	0.621
Mof_Pd	Pd	0.479	0.04	0.0853	0.354
Mof_Fe	Fe	-1.16307e-17	0	0.5	0.384
Mof_Fe	Fe	-0	0	-0	0.357
_end
