data_functionalizedCrystal
_audit_creation_method	'EQeq! by Chris Wilmer'
_symmetry_space_group_name_H-M	'P1'
_symmetry_Int_Tables_number	1
_symmetry_cell_setting	triclinic
loop_
_symmetry_equiv_pos_as_xyz
  x,y,z
_cell_length_a	10.524
_cell_length_b	11.307
_cell_length_c	14.316
_cell_angle_alpha	111.186
_cell_angle_beta	107.831
_cell_angle_gamma	91.583
loop_
_atom_site_label
_atom_site_type_symbol
_atom_site_fract_x
_atom_site_fract_y
_atom_site_fract_z
_atom_site_charge
Mof_Gd	Gd	0.30683	0.51726	0.91887	1.818
Mof_Gd	Gd	0.21557	0.36764	0.60525	1.622
Mof_Gd	Gd	0.69317	0.48274	0.08113	1.817
Mof_Gd	Gd	0.78443	0.63236	0.39475	1.621
Mof_H 	H 	0.8863	0.6192	0.0239	0.125
Mof_H 	H 	0.738	0.6076	0.0035	0.063
Mof_H 	H 	0.1336	0.8928	0.5094	0.168
Mof_H 	H 	0.1581	0.0357	0.5595	0.187
Mof_H 	H 	0.5784	0.0622	0.4102	0.159
Mof_H 	H 	0.5075	0.1422	0.4801	0.175
Mof_H 	H 	0.5494	0.3536	0.6439	-0.009
Mof_H 	H 	0.7329	0.3151	0.5893	0.057
Mof_H 	H 	0.9768	0.5291	0.8859	0.072
Mof_H 	H 	0.367	0.1183	0.9172	0.022
Mof_H 	H 	0.377	0.9145	0.9183	0.072
Mof_H 	H 	0.1746	0.7647	0.6048	0.085
Mof_H 	H 	0.0552	0.9708	0.2889	0.023
Mof_H 	H 	0.0602	0.807	0.1379	0.076
Mof_H 	H 	0.4667	0.8848	0.2547	0.106
Mof_H 	H 	0.1137	0.3808	0.9761	0.125
Mof_H 	H 	0.262	0.3924	0.9965	0.063
Mof_H 	H 	0.8664	0.1072	0.4906	0.168
Mof_H 	H 	0.8419	0.9643	0.4405	0.187
Mof_H 	H 	0.4216	0.9378	0.5898	0.159
Mof_H 	H 	0.4925	0.8578	0.5199	0.175
Mof_H 	H 	0.4506	0.6464	0.3561	-0.009
Mof_H 	H 	0.2671	0.6849	0.4107	0.057
Mof_H 	H 	0.0232	0.4709	0.1141	0.072
Mof_H 	H 	0.633	0.8817	0.0828	0.022
Mof_H 	H 	0.623	0.0855	0.0817	0.072
Mof_H 	H 	0.8254	0.2353	0.3952	0.085
Mof_H 	H 	0.9448	0.0292	0.7111	0.023
Mof_H 	H 	0.9398	0.193	0.8621	0.076
Mof_H 	H 	0.5333	0.1152	0.7453	0.106
Mof_C 	C 	0.5275	0.4805	0.8297	0.475
Mof_C 	C 	0.6496	0.4647	0.7975	-0.226
Mof_C 	C 	0.6357	0.3896	0.6929	0.079
Mof_C 	C 	0.7446	0.3667	0.6596	-0.097
Mof_C 	C 	0.8732	0.4221	0.7329	-0.05
Mof_C 	C 	0.9964	0.4039	0.7006	0.398
Mof_C 	C 	0.8899	0.4952	0.8373	-0.124
Mof_C 	C 	0.7803	0.5198	0.8722	0.17
Mof_C 	C 	0.2588	0.2003	0.7658	0.476
Mof_C 	C 	0.2642	0.0665	0.7614	-0.214
Mof_C 	C 	0.3269	0.0472	0.854	0.074
Mof_C 	C 	0.3318	0.925	0.8556	-0.087
Mof_C 	C 	0.2678	0.8192	0.7619	-0.034
Mof_C 	C 	0.2613	0.6846	0.7607	0.409
Mof_C 	C 	0.2121	0.8365	0.6679	-0.146
Mof_C 	C 	0.2101	0.958	0.6643	0.201
Mof_C 	C 	0.2424	0.1407	0.4515	0.348
Mof_C 	C 	0.2546	0.0299	0.3617	-0.182
Mof_C 	C 	0.1383	0.9542	0.2812	0.067
Mof_C 	C 	0.1398	0.8561	0.1907	-0.11
Mof_C 	C 	0.2662	0.8328	0.181	0.024
Mof_C 	C 	0.2764	0.7299	0.0823	0.278
Mof_C 	C 	0.3837	0.9041	0.2612	-0.169
Mof_C 	C 	0.38	0.0034	0.3507	0.19
Mof_C 	C 	0.4725	0.5195	0.1703	0.475
Mof_C 	C 	0.3504	0.5353	0.2025	-0.226
Mof_C 	C 	0.3643	0.6104	0.3071	0.079
Mof_C 	C 	0.2554	0.6333	0.3404	-0.097
Mof_C 	C 	0.1268	0.5779	0.2671	-0.05
Mof_C 	C 	0.0036	0.5961	0.2994	0.398
Mof_C 	C 	0.1101	0.5048	0.1627	-0.124
Mof_C 	C 	0.2197	0.4802	0.1278	0.17
Mof_C 	C 	0.7412	0.7997	0.2342	0.476
Mof_C 	C 	0.7358	0.9335	0.2386	-0.214
Mof_C 	C 	0.6731	0.9528	0.146	0.074
Mof_C 	C 	0.6682	0.075	0.1444	-0.087
Mof_C 	C 	0.7322	0.1808	0.2381	-0.034
Mof_C 	C 	0.7387	0.3154	0.2393	0.409
Mof_C 	C 	0.7879	0.1635	0.3321	-0.146
Mof_C 	C 	0.7899	0.042	0.3357	0.201
Mof_C 	C 	0.7576	0.8593	0.5485	0.348
Mof_C 	C 	0.7454	0.9701	0.6383	-0.182
Mof_C 	C 	0.8617	0.0458	0.7188	0.067
Mof_C 	C 	0.8602	0.1439	0.8093	-0.11
Mof_C 	C 	0.7338	0.1672	0.819	0.024
Mof_C 	C 	0.7236	0.2701	0.9177	0.278
Mof_C 	C 	0.6163	0.0959	0.7388	-0.169
Mof_C 	C 	0.62	0.9966	0.6493	0.19
Mof_N 	N 	0.8047	0.5914	0.9805	-0.305
Mof_N 	N 	0.1612	0.9628	0.5655	-0.341
Mof_N 	N 	0.5049	0.0791	0.4231	-0.328
Mof_N 	N 	0.1953	0.4086	0.0195	-0.305
Mof_N 	N 	0.8388	0.0372	0.4345	-0.341
Mof_N 	N 	0.4951	0.9209	0.5769	-0.328
Mof_O 	O 	0.5418	0.5322	0.9283	-0.553
Mof_O 	O 	0.4111	0.4439	0.7611	-0.55
Mof_O 	O 	0.1112	0.4431	0.7709	-0.538
Mof_O 	O 	0.9829	0.3544	0.6035	-0.44
Mof_O 	O 	0.2947	0.2907	0.8565	-0.474
Mof_O 	O 	0.2181	0.215	0.6791	-0.476
Mof_O 	O 	0.3083	0.6749	0.8479	-0.464
Mof_O 	O 	0.206	0.592	0.6717	-0.478
Mof_O 	O 	0.1268	0.1666	0.4523	-0.416
Mof_O 	O 	0.3464	0.2101	0.5256	-0.421
Mof_O 	O 	0.3904	0.7077	0.078	-0.399
Mof_O 	O 	0.1694	0.6634	0.0067	-0.387
Mof_O 	O 	0.4582	0.4678	0.0717	-0.553
Mof_O 	O 	0.5889	0.5561	0.2389	-0.55
Mof_O 	O 	0.8888	0.5569	0.2291	-0.538
Mof_O 	O 	0.0171	0.6456	0.3965	-0.44
Mof_O 	O 	0.7053	0.7093	0.1435	-0.474
Mof_O 	O 	0.7819	0.785	0.3209	-0.476
Mof_O 	O 	0.6917	0.3251	0.1521	-0.464
Mof_O 	O 	0.794	0.408	0.3283	-0.478
Mof_O 	O 	0.8732	0.8334	0.5477	-0.416
Mof_O 	O 	0.6536	0.7899	0.4744	-0.421
Mof_O 	O 	0.6096	0.2923	0.922	-0.399
Mof_O 	O 	0.8306	0.3366	0.9933	-0.387
_end
