data_functionalizedCrystal
_audit_creation_method	'EQeq! by Chris Wilmer'
_symmetry_space_group_name_H-M	'P1'
_symmetry_Int_Tables_number	1
_symmetry_cell_setting	triclinic
loop_
_symmetry_equiv_pos_as_xyz
  x,y,z
_cell_length_a	8.6503
_cell_length_b	10.1871
_cell_length_c	16.921
_cell_angle_alpha	90
_cell_angle_beta	94.688
_cell_angle_gamma	90
loop_
_atom_site_label
_atom_site_type_symbol
_atom_site_fract_x
_atom_site_fract_y
_atom_site_fract_z
_atom_site_charge
Mof_Ga	Ga	0.23211	0.82679	0.79826	4.551
Mof_Ga	Ga	0.08362	0.85117	0.59704	4.245
Mof_Ga	Ga	0.57616	0.65885	0.76886	4.378
Mof_P 	P 	0.87628	0.85223	0.74123	1.151
Mof_P 	P 	0.22196	0.12408	0.83632	1.009
Mof_P 	P 	0.40509	0.64238	0.92795	1.119
Mof_O 	O 	0.2698	0.9838	0.8593	-1.044
Mof_O 	O 	0.2673	0.7214	0.8921	-1.086
Mof_O 	O 	0.0102	0.8335	0.8053	-1.119
Mof_O 	O 	0.2046	0.6651	0.7378	-1.175
Mof_F 	F 	0.2038	0.9187	0.6964	-1.476
Mof_F 	F 	0.4528	0.8271	0.7798	-1.4
Mof_O 	O 	0.9198	0.8157	0.6582	-1.193
Mof_O 	O 	0.348	0.5036	0.9491	-1.169
Mof_O 	O 	0.2761	0.2127	0.9075	-1.098
Mof_O 	O 	0.4694	0.7117	0.0036	-1.197
Mof_O 	O 	0.7489	0.7582	0.7617	-1.165
Mof_O 	O 	0.5344	0.6243	0.872	-1.327
Mof_O 	O 	0.0433	0.1352	0.8258	-1.148
Mof_O 	O 	0.8127	0.9937	0.7399	-1.039
Mof_N 	N 	0.474	0.797	0.016	0.166
Mof_Ga	Ga	0.26789	0.32679	0.70174	4.556
Mof_Ga	Ga	0.41638	0.35117	0.90296	4.349
Mof_Ga	Ga	0.92384	0.15885	0.73114	4.273
Mof_P 	P 	0.62372	0.35223	0.75877	1.142
Mof_P 	P 	0.27804	0.62408	0.66368	1.001
Mof_P 	P 	0.09491	0.14238	0.57205	1.126
Mof_O 	O 	0.2302	0.4838	0.6407	-1.034
Mof_O 	O 	0.2327	0.2214	0.6079	-1.084
Mof_O 	O 	0.4898	0.3335	0.6947	-1.108
Mof_O 	O 	0.2954	0.1651	0.7622	-1.173
Mof_F 	F 	0.2962	0.4187	0.8036	-1.482
Mof_F 	F 	0.0472	0.3271	0.7202	-1.382
Mof_O 	O 	0.5802	0.3157	0.8418	-1.222
Mof_O 	O 	0.152	0.0036	0.5509	-1.138
Mof_O 	O 	0.2239	0.7127	0.5925	-1.085
Mof_O 	O 	0.0306	0.2117	0.4964	-1.169
Mof_O 	O 	0.7511	0.2582	0.7383	-1.15
Mof_O 	O 	0.9656	0.1243	0.628	-1.325
Mof_O 	O 	0.4567	0.6352	0.6742	-1.182
Mof_O 	O 	0.6873	0.4937	0.7601	-1.066
Mof_N 	N 	0.026	0.297	0.484	0.168
Mof_Ga	Ga	0.76789	0.17321	0.20174	4.552
Mof_Ga	Ga	0.91638	0.14883	0.40296	4.246
Mof_Ga	Ga	0.42384	0.34115	0.23114	4.379
Mof_P 	P 	0.12372	0.14777	0.25877	1.152
Mof_P 	P 	0.77804	0.87592	0.16368	1.009
Mof_P 	P 	0.59491	0.35762	0.07205	1.119
Mof_O 	O 	0.7302	0.0162	0.1407	-1.044
Mof_O 	O 	0.7327	0.2786	0.1079	-1.086
Mof_O 	O 	0.9898	0.1665	0.1947	-1.119
Mof_O 	O 	0.7954	0.3349	0.2622	-1.175
Mof_F 	F 	0.7962	0.0813	0.3036	-1.476
Mof_F 	F 	0.5472	0.1729	0.2202	-1.4
Mof_O 	O 	0.0802	0.1843	0.3418	-1.193
Mof_O 	O 	0.652	0.4964	0.0509	-1.169
Mof_O 	O 	0.7239	0.7873	0.0925	-1.098
Mof_O 	O 	0.5306	0.2883	0.9964	-1.197
Mof_O 	O 	0.2511	0.2418	0.2383	-1.165
Mof_O 	O 	0.4656	0.3757	0.128	-1.327
Mof_O 	O 	0.9567	0.8648	0.1742	-1.148
Mof_O 	O 	0.1873	0.0063	0.2601	-1.039
Mof_N 	N 	0.526	0.203	0.984	0.166
Mof_Ga	Ga	0.73211	0.67321	0.29826	4.556
Mof_Ga	Ga	0.58362	0.64883	0.09704	4.349
Mof_Ga	Ga	0.07616	0.84115	0.26886	4.273
Mof_P 	P 	0.37628	0.64777	0.24123	1.142
Mof_P 	P 	0.72196	0.37592	0.33632	1.001
Mof_P 	P 	0.90509	0.85762	0.42795	1.126
Mof_O 	O 	0.7698	0.5162	0.3593	-1.034
Mof_O 	O 	0.7673	0.7786	0.3921	-1.084
Mof_O 	O 	0.5102	0.6665	0.3053	-1.108
Mof_O 	O 	0.7046	0.8349	0.2378	-1.173
Mof_F 	F 	0.7038	0.5813	0.1964	-1.482
Mof_F 	F 	0.9528	0.6729	0.2798	-1.382
Mof_O 	O 	0.4198	0.6843	0.1582	-1.222
Mof_O 	O 	0.848	0.9964	0.4491	-1.138
Mof_O 	O 	0.7761	0.2873	0.4075	-1.085
Mof_O 	O 	0.9694	0.7883	0.5036	-1.169
Mof_O 	O 	0.2489	0.7418	0.2617	-1.15
Mof_O 	O 	0.0344	0.8757	0.372	-1.325
Mof_O 	O 	0.5433	0.3648	0.3258	-1.182
Mof_O 	O 	0.3127	0.5063	0.2399	-1.066
Mof_N 	N 	0.974	0.703	0.516	0.168
_end
