data_functionalizedCrystal
_audit_creation_method	'EQeq! by Chris Wilmer'
_symmetry_space_group_name_H-M	'P1'
_symmetry_Int_Tables_number	1
_symmetry_cell_setting	triclinic
loop_
_symmetry_equiv_pos_as_xyz
  x,y,z
_cell_length_a	13.4855
_cell_length_b	14.5663
_cell_length_c	15.3523
_cell_angle_alpha	114.087
_cell_angle_beta	116.053
_cell_angle_gamma	90
loop_
_atom_site_label
_atom_site_type_symbol
_atom_site_fract_x
_atom_site_fract_y
_atom_site_fract_z
_atom_site_charge
Mof_Cu	Cu	0.45429	0.8486	0.3886	0.921
Mof_Cu	Cu	0.54571	0.1514	0.6114	0.921
Mof_Cu	Cu	0.93431	0.3486	0.3886	0.921
Mof_Cu	Cu	0.06569	0.6514	0.6114	0.921
Mof_H 	H 	0.2163	0.123	0.5336	0.024
Mof_H 	H 	0.2253	0.6086	0.9516	0.089
Mof_H 	H 	0.9382	0.6521	0.256	0.083
Mof_H 	H 	0.7439	0.6542	0.1264	0.051
Mof_H 	H 	0.1669	0.344	0.2714	0.026
Mof_H 	H 	0.6822	0.8479	0.744	0.083
Mof_H 	H 	0.6827	0.377	0.4664	0.024
Mof_H 	H 	0.5791	0.3908	0.9348	0.06
Mof_H 	H 	0.5643	0.5559	0.3976	0.059
Mof_H 	H 	0.1045	0.844	0.2714	0.026
Mof_H 	H 	0.5176	0.4378	0.3074	0.049
Mof_H 	H 	0.6506	0.1682	0.3422	0.102
Mof_H 	H 	0.3494	0.8318	0.6578	0.102
Mof_H 	H 	0.6999	0.0403	0.2242	0.127
Mof_H 	H 	0.5984	0.8654	0.1488	0.087
Mof_H 	H 	0.2561	0.3458	0.8736	0.051
Mof_H 	H 	0.7837	0.877	0.4664	0.024
Mof_H 	H 	0.3123	0.3565	0.2306	0.075
Mof_H 	H 	0.8333	0.0559	0.3976	0.059
Mof_H 	H 	0.9375	0.3453	0.5798	0.008
Mof_H 	H 	0.6916	0.6682	0.3422	0.101
Mof_H 	H 	0.6051	0.5114	0.8248	0.126
Mof_H 	H 	0.6942	0.3554	0.2962	0.01
Mof_H 	H 	0.3173	0.623	0.5336	0.024
Mof_H 	H 	0.2102	0.0622	0.6926	0.048
Mof_H 	H 	0.3577	0.1547	0.4202	0.008
Mof_H 	H 	0.3186	0.8297	0.4956	0.005
Mof_H 	H 	0.0854	0.6218	0.8014	0.013
Mof_H 	H 	0.7747	0.3914	0.0484	0.089
Mof_H 	H 	0.4496	0.6346	0.8512	0.088
Mof_H 	H 	0.7898	0.9378	0.3074	0.048
Mof_H 	H 	0.8331	0.656	0.7286	0.026
Mof_H 	H 	0.4757	0.4597	0.7758	0.127
Mof_H 	H 	0.6877	0.6435	0.7694	0.075
Mof_H 	H 	0.3084	0.3318	0.6578	0.101
Mof_H 	H 	0.7803	0.9886	0.1752	0.125
Mof_H 	H 	0.5504	0.3654	0.1488	0.088
Mof_H 	H 	0.1667	0.9441	0.6024	0.059
Mof_H 	H 	0.6175	0.8458	0.8736	0.052
Mof_H 	H 	0.4209	0.6092	0.0652	0.06
Mof_H 	H 	0.9684	0.8656	0.5048	0.084
Mof_H 	H 	0.398	0.1446	0.7038	0.01
Mof_H 	H 	0.0618	0.3479	0.744	0.083
Mof_H 	H 	0.3557	0.8908	0.9348	0.06
Mof_H 	H 	0.5243	0.5403	0.2242	0.127
Mof_H 	H 	0.2737	0.8914	0.0484	0.088
Mof_H 	H 	0.3178	0.1521	0.256	0.083
Mof_H 	H 	0.6423	0.8453	0.5798	0.008
Mof_H 	H 	0.4824	0.5622	0.6926	0.049
Mof_H 	H 	0.3949	0.4886	0.1752	0.126
Mof_H 	H 	0.7263	0.1086	0.9516	0.088
Mof_H 	H 	0.5364	0.3656	0.5048	0.084
Mof_H 	H 	0.4636	0.6344	0.4952	0.084
Mof_H 	H 	0.9183	0.8565	0.2306	0.074
Mof_H 	H 	0.2197	0.0114	0.8248	0.125
Mof_H 	H 	0.9146	0.3782	0.1986	0.013
Mof_H 	H 	0.177	0.3297	0.4956	0.005
Mof_H 	H 	0.8955	0.156	0.7286	0.026
Mof_H 	H 	0.3825	0.1542	0.1264	0.052
Mof_H 	H 	0.284	0.8782	0.1986	0.013
Mof_H 	H 	0.716	0.1218	0.8014	0.013
Mof_H 	H 	0.0625	0.6547	0.4202	0.008
Mof_H 	H 	0.3001	0.9597	0.7758	0.127
Mof_H 	H 	0.6443	0.1092	0.0652	0.06
Mof_H 	H 	0.0316	0.1344	0.4952	0.084
Mof_H 	H 	0.6814	0.1703	0.5044	0.005
Mof_H 	H 	0.602	0.8554	0.2962	0.01
Mof_H 	H 	0.0817	0.1435	0.7694	0.074
Mof_H 	H 	0.3058	0.6446	0.7038	0.01
Mof_H 	H 	0.4016	0.1346	0.8512	0.087
Mof_H 	H 	0.823	0.6703	0.5044	0.005
Mof_H 	H 	0.4357	0.4441	0.6024	0.059
Mof_C 	C 	0.86651	0.52341	0.56622	0.375
Mof_C 	C 	0.04579	0.07529	0.44898	-0.135
Mof_C 	C 	0.16543	0.99463	0.66866	-0.069
Mof_C 	C 	0.40319	0.57529	0.44898	-0.137
Mof_C 	C 	0.68398	0.43168	0.52816	0.06
Mof_C 	C 	0.55845	0.38035	0.9823	-0.032
Mof_C 	C 	0.31602	0.56832	0.47184	0.06
Mof_C 	C 	0.28938	0.63788	0.75536	0.09
Mof_C 	C 	0.37534	0.63154	0.84268	-0.144
Mof_C 	C 	0.62466	0.36846	0.15732	-0.144
Mof_C 	C 	0.91236	0.65416	0.30512	-0.153
Mof_C 	C 	0.45478	0.14888	0.17316	-0.039
Mof_C 	C 	0.34868	0.87568	0.18836	0.087
Mof_C 	C 	0.71838	0.64888	0.17316	-0.039
Mof_C 	C 	0.65781	0.11651	0.90182	-0.149
Mof_C 	C 	0.16032	0.62432	0.81164	0.088
Mof_C 	C 	0.8457	0.665	0.4524	0.085
Mof_C 	C 	0.52089	0.84449	0.72078	0.102
Mof_C 	C 	0.46598	0.13788	0.75536	0.089
Mof_C 	C 	0.75599	0.38349	0.09818	-0.151
Mof_C 	C 	0.50323	0.49463	0.66866	-0.071
Mof_C 	C 	0.01414	0.34414	0.59688	0.081
Mof_C 	C 	0.08764	0.34584	0.69488	-0.153
Mof_C 	C 	0.83457	0.00537	0.33134	-0.069
Mof_C 	C 	0.95421	0.92471	0.55102	-0.135
Mof_C 	C 	0.41726	0.15586	0.40312	0.082
Mof_C 	C 	0.56492	0.35632	0.72484	0.373
Mof_C 	C 	0.56573	0.12043	0.91886	0.105
Mof_C 	C 	0.76688	0.66368	0.35596	-0.154
Mof_C 	C 	0.08985	0.90355	0.3167	0.059
Mof_C 	C 	0.57615	0.11965	0.0177	-0.029
Mof_C 	C 	0.41092	0.83632	0.64404	-0.154
Mof_C 	C 	0.80011	0.65551	0.27922	0.102
Mof_C 	C 	0.28162	0.35112	0.82684	-0.039
Mof_C 	C 	0.65132	0.12432	0.81164	0.087
Mof_C 	C 	0.58274	0.84414	0.59688	0.082
Mof_C 	C 	0.02112	0.08922	0.70724	-0.134
Mof_C 	C 	0.40338	0.49678	0.35896	0.092
Mof_C 	C 	0.83968	0.37568	0.18836	0.088
Mof_C 	C 	0.34219	0.88349	0.09818	-0.149
Mof_C 	C 	0.46203	0.53923	0.24166	-0.299
Mof_C 	C 	0.84008	0.14368	0.27516	0.372
Mof_C 	C 	0.3933	0.835	0.5476	0.085
Mof_C 	C 	0.43427	0.87957	0.08114	0.105
Mof_C 	C 	0.30029	0.97659	0.43378	0.375
Mof_C 	C 	0.58908	0.16368	0.35596	-0.154
Mof_C 	C 	0.69971	0.02341	0.56622	0.375
Mof_C 	C 	0.22037	0.96077	0.75834	-0.297
Mof_C 	C 	0.44155	0.61965	0.0177	-0.032
Mof_C 	C 	0.53797	0.46077	0.75834	-0.299
Mof_C 	C 	0.98586	0.65586	0.40312	0.081
Mof_C 	C 	0.22679	0.48289	0.40638	-0.133
Mof_C 	C 	0.53402	0.86212	0.24464	0.089
Mof_C 	C 	0.77315	0.59645	0.6833	0.059
Mof_C 	C 	0.39276	0.15416	0.30512	-0.153
Mof_C 	C 	0.71062	0.36212	0.24464	0.09
Mof_C 	C 	0.54522	0.85112	0.82684	-0.039
Mof_C 	C 	0.04442	0.00322	0.64104	0.09
Mof_C 	C 	0.64687	0.37957	0.08114	0.109
Mof_C 	C 	0.49677	0.50537	0.33134	-0.071
Mof_C 	C 	0.60724	0.84584	0.69488	-0.153
Mof_C 	C 	0.97888	0.91078	0.29276	-0.134
Mof_C 	C 	0.17959	0.98289	0.40638	-0.132
Mof_C 	C 	0.24401	0.61651	0.90182	-0.151
Mof_C 	C 	0.84418	0.93168	0.52816	0.059
Mof_C 	C 	0.82041	0.01711	0.59362	-0.132
Mof_C 	C 	0.35313	0.62043	0.91886	0.109
Mof_C 	C 	0.77963	0.03923	0.24166	-0.297
Mof_C 	C 	0.15582	0.06832	0.47184	0.059
Mof_C 	C 	0.23312	0.33632	0.64404	-0.154
Mof_C 	C 	0.46734	0.13154	0.84268	-0.143
Mof_C 	C 	0.6067	0.165	0.4524	0.085
Mof_C 	C 	0.42385	0.88035	0.9823	-0.029
Mof_C 	C 	0.59662	0.50322	0.64104	0.092
Mof_C 	C 	0.68612	0.58922	0.70724	-0.134
Mof_C 	C 	0.47911	0.15551	0.27922	0.102
Mof_C 	C 	0.22685	0.40355	0.3167	0.059
Mof_C 	C 	0.19989	0.34449	0.72078	0.102
Mof_C 	C 	0.1543	0.335	0.5476	0.085
Mof_C 	C 	0.15992	0.85632	0.72484	0.372
Mof_C 	C 	0.31388	0.41078	0.29276	-0.134
Mof_C 	C 	0.13349	0.47659	0.43378	0.375
Mof_C 	C 	0.43508	0.64368	0.27516	0.373
Mof_C 	C 	0.77321	0.51711	0.59362	-0.133
Mof_C 	C 	0.53266	0.86846	0.15732	-0.143
Mof_C 	C 	0.95558	0.99678	0.35896	0.09
Mof_C 	C 	0.59681	0.42471	0.55102	-0.137
Mof_C 	C 	0.91015	0.09645	0.6833	0.059
Mof_N 	N 	0.38676	0.36426	0.85552	-0.077
Mof_N 	N 	0.53124	0.13574	0.14448	-0.077
Mof_N 	N 	0.45461	0.36731	0.95842	-0.077
Mof_N 	N 	0.54539	0.63269	0.04158	-0.077
Mof_N 	N 	0.46876	0.86426	0.85552	-0.077
Mof_N 	N 	0.04646	0.34098	0.52472	-0.218
Mof_N 	N 	0.95354	0.65902	0.47528	-0.218
Mof_N 	N 	0.49619	0.13269	0.04158	-0.077
Mof_N 	N 	0.61324	0.63574	0.14448	-0.077
Mof_N 	N 	0.47826	0.84098	0.52472	-0.218
Mof_N 	N 	0.5567	0.1351	0.7398	-0.21
Mof_N 	N 	0.4433	0.8649	0.2602	-0.21
Mof_N 	N 	0.1831	0.6351	0.7398	-0.211
Mof_N 	N 	0.8169	0.3649	0.2602	-0.211
Mof_N 	N 	0.50381	0.86731	0.95842	-0.077
Mof_N 	N 	0.52174	0.15902	0.47528	-0.218
Mof_O 	O 	0.37699	0.04759	0.51942	-0.385
Mof_O 	O 	0.62301	0.95241	0.48058	-0.385
Mof_O 	O 	0.16589	0.77982	0.6498	-0.384
Mof_O 	O 	0.83411	0.22018	0.3502	-0.384
Mof_O 	O 	0.94573	0.60196	0.63142	-0.408
Mof_O 	O 	0.33593	0.65383	0.23046	-0.307
Mof_O 	O 	0.14243	0.54759	0.51942	-0.385
Mof_O 	O 	0.89453	0.15383	0.23046	-0.306
Mof_O 	O 	0.05427	0.39804	0.36858	-0.408
Mof_O 	O 	0.68569	0.10196	0.63142	-0.409
Mof_O 	O 	0.10547	0.84617	0.76954	-0.306
Mof_O 	O 	0.66407	0.34617	0.76954	-0.307
Mof_O 	O 	0.85757	0.45241	0.48058	-0.385
Mof_O 	O 	0.51609	0.72018	0.3502	-0.384
Mof_O 	O 	0.48391	0.27982	0.6498	-0.384
Mof_O 	O 	0.31431	0.89804	0.36858	-0.409
_end
