data_functionalizedCrystal
_audit_creation_method	'EQeq! by Chris Wilmer'
_symmetry_space_group_name_H-M	'P1'
_symmetry_Int_Tables_number	1
_symmetry_cell_setting	triclinic
loop_
_symmetry_equiv_pos_as_xyz
  x,y,z
_cell_length_a	13.8942
_cell_length_b	27.574
_cell_length_c	44.874
_cell_angle_alpha	90
_cell_angle_beta	90
_cell_angle_gamma	90
loop_
_atom_site_label
_atom_site_type_symbol
_atom_site_fract_x
_atom_site_fract_y
_atom_site_fract_z
_atom_site_charge
Mof_Zn	Zn	0.15183	0.45413	0.08412	1.166
Mof_Zn	Zn	0.38298	0.47755	0.91404	1.165
Mof_Zn	Zn	0.17576	0.25854	0.81999	1.166
Mof_Zn	Zn	0.84817	0.04587	0.58412	1.166
Mof_Zn	Zn	0.61702	0.02245	0.41404	1.165
Mof_Zn	Zn	0.82424	0.24146	0.31999	1.166
Mof_Zn	Zn	0.65183	0.54587	0.41588	1.165
Mof_Zn	Zn	0.88298	0.52245	0.58596	1.164
Mof_Zn	Zn	0.67576	0.74146	0.68001	1.165
Mof_Zn	Zn	0.34817	0.95413	0.91588	1.165
Mof_Zn	Zn	0.11702	0.97755	0.08596	1.164
Mof_Zn	Zn	0.32424	0.75854	0.18001	1.165
Mof_H 	H 	0.0384	0.0867	0.1726	0.083
Mof_H 	H 	0.0613	0.0149	0.147	-0.008
Mof_H 	H 	0.0974	0.0827	0.0715	-0.017
Mof_H 	H 	0.0741	0.1567	0.0943	0.087
Mof_H 	H 	0.0195	0.3513	0.1661	0.08
Mof_H 	H 	0.0558	0.4219	0.1399	-0.009
Mof_H 	H 	0.1328	0.3477	0.0696	-0.013
Mof_H 	H 	0.1007	0.2739	0.093	0.079
Mof_H 	H 	0.9483	0.1542	0.2309	0.079
Mof_H 	H 	0.8898	0.1617	0.2782	-0.006
Mof_H 	H 	0.9353	0.3023	0.2772	-0.004
Mof_H 	H 	0.9876	0.2989	0.2281	0.081
Mof_H 	H 	0.6909	0.3955	0.8896	0.108
Mof_H 	H 	0.5353	0.4197	0.8831	-0.017
Mof_H 	H 	0.5236	0.468	0.9646	-0.012
Mof_H 	H 	0.6752	0.4409	0.9739	0.099
Mof_H 	H 	0.8752	0.4488	0.0133	0.089
Mof_H 	H 	0.9578	0.4686	0.0569	-0.014
Mof_H 	H 	0.2035	0.4281	0.0202	0.002
Mof_H 	H 	0.1254	0.4032	0.9769	0.077
Mof_H 	H 	0.1264	0.3569	0.9115	0.08
Mof_H 	H 	0.2088	0.3188	0.8735	-0.005
Mof_H 	H 	0.9688	0.2811	0.8346	-0.016
Mof_H 	H 	0.8759	0.3132	0.8737	0.08
Mof_H 	H 	0.9616	0.4133	0.6726	0.083
Mof_H 	H 	0.9387	0.4851	0.647	-0.008
Mof_H 	H 	0.9026	0.4173	0.5715	-0.017
Mof_H 	H 	0.9259	0.3433	0.5943	0.086
Mof_H 	H 	0.9805	0.1487	0.6661	0.08
Mof_H 	H 	0.9442	0.0781	0.6399	-0.009
Mof_H 	H 	0.8672	0.1523	0.5696	-0.013
Mof_H 	H 	0.8993	0.2261	0.593	0.079
Mof_H 	H 	0.0517	0.3458	0.7309	0.079
Mof_H 	H 	0.1102	0.3383	0.7782	-0.006
Mof_H 	H 	0.0647	0.1977	0.7772	-0.004
Mof_H 	H 	0.0124	0.2011	0.7281	0.082
Mof_H 	H 	0.3091	0.1045	0.3896	0.108
Mof_H 	H 	0.4647	0.0803	0.3831	-0.017
Mof_H 	H 	0.4764	0.032	0.4646	-0.012
Mof_H 	H 	0.3248	0.0591	0.4739	0.099
Mof_H 	H 	0.1248	0.0512	0.5133	0.089
Mof_H 	H 	0.0422	0.0314	0.5569	-0.014
Mof_H 	H 	0.7965	0.0719	0.5202	0.002
Mof_H 	H 	0.8746	0.0968	0.4769	0.077
Mof_H 	H 	0.8736	0.1431	0.4115	0.08
Mof_H 	H 	0.7912	0.1812	0.3735	-0.005
Mof_H 	H 	0.0312	0.2189	0.3346	-0.014
Mof_H 	H 	0.1241	0.1868	0.3737	0.079
Mof_H 	H 	0.5384	0.9133	0.3274	0.083
Mof_H 	H 	0.5613	0.9851	0.353	-0.008
Mof_H 	H 	0.5974	0.9173	0.4285	-0.017
Mof_H 	H 	0.5741	0.8433	0.4057	0.087
Mof_H 	H 	0.5195	0.6487	0.3339	0.08
Mof_H 	H 	0.5558	0.5781	0.3601	-0.009
Mof_H 	H 	0.6328	0.6523	0.4304	-0.013
Mof_H 	H 	0.6007	0.7261	0.407	0.079
Mof_H 	H 	0.4483	0.8458	0.2691	0.079
Mof_H 	H 	0.3898	0.8383	0.2218	-0.006
Mof_H 	H 	0.4353	0.6977	0.2228	-0.004
Mof_H 	H 	0.4876	0.7011	0.2719	0.082
Mof_H 	H 	0.1909	0.6045	0.6104	0.108
Mof_H 	H 	0.0353	0.5803	0.6169	-0.017
Mof_H 	H 	0.0236	0.532	0.5354	-0.012
Mof_H 	H 	0.1752	0.5591	0.5261	0.099
Mof_H 	H 	0.3752	0.5512	0.4867	0.089
Mof_H 	H 	0.4578	0.5314	0.4431	-0.014
Mof_H 	H 	0.7035	0.5719	0.4798	0.002
Mof_H 	H 	0.6254	0.5968	0.5231	0.077
Mof_H 	H 	0.6264	0.6431	0.5885	0.08
Mof_H 	H 	0.7088	0.6812	0.6265	-0.005
Mof_H 	H 	0.4688	0.7189	0.6654	-0.015
Mof_H 	H 	0.3759	0.6868	0.6263	0.08
Mof_H 	H 	0.4616	0.5867	0.8274	0.083
Mof_H 	H 	0.4387	0.5149	0.853	-0.008
Mof_H 	H 	0.4026	0.5827	0.9285	-0.017
Mof_H 	H 	0.4259	0.6567	0.9057	0.086
Mof_H 	H 	0.4805	0.8513	0.8339	0.08
Mof_H 	H 	0.4442	0.9219	0.8601	-0.009
Mof_H 	H 	0.3672	0.8477	0.9304	-0.013
Mof_H 	H 	0.3993	0.7739	0.907	0.079
Mof_H 	H 	0.5517	0.6542	0.7691	0.079
Mof_H 	H 	0.6102	0.6617	0.7218	-0.006
Mof_H 	H 	0.5647	0.8023	0.7228	-0.004
Mof_H 	H 	0.5124	0.7989	0.7719	0.082
Mof_H 	H 	0.8091	0.8955	0.1104	0.108
Mof_H 	H 	0.9647	0.9197	0.1169	-0.016
Mof_H 	H 	0.9764	0.968	0.0354	-0.011
Mof_H 	H 	0.8248	0.9409	0.0261	0.099
Mof_H 	H 	0.6248	0.9488	0.9867	0.089
Mof_H 	H 	0.5422	0.9686	0.9431	-0.014
Mof_H 	H 	0.2965	0.9281	0.9798	0.002
Mof_H 	H 	0.3746	0.9032	0.0231	0.077
Mof_H 	H 	0.3736	0.8569	0.0885	0.08
Mof_H 	H 	0.2912	0.8188	0.1265	-0.005
Mof_H 	H 	0.5312	0.7811	0.1654	-0.015
Mof_H 	H 	0.6241	0.8132	0.1263	0.08
Mof_C 	C 	0.0377	0.1778	0.15055	0.097
Mof_C 	C 	0.0513	0.1298	0.13534	0.065
Mof_C 	C 	0.0496	0.0867	0.1518	-0.122
Mof_C 	C 	0.065	0.0446	0.1363	0.068
Mof_C 	C 	0.0859	0.0833	0.0923	0.094
Mof_C 	C 	0.0708	0.1277	0.1057	-0.131
Mof_C 	C 	0.0389	0.2593	0.14854	0.099
Mof_C 	C 	0.058	0.3052	0.1323	0.053
Mof_C 	C 	0.0435	0.3496	0.1463	-0.116
Mof_C 	C 	0.0655	0.3915	0.1304	0.063
Mof_C 	C 	0.1103	0.3481	0.08955	0.069
Mof_C 	C 	0.0913	0.3038	0.10321	-0.118
Mof_C 	C 	0.0005	0.222	0.19167	0.105
Mof_C 	C 	0.9719	0.2247	0.22347	0.049
Mof_C 	C 	0.9438	0.1855	0.2396	-0.113
Mof_C 	C 	0.9094	0.1899	0.2678	0.058
Mof_C 	C 	0.9345	0.272	0.2672	0.073
Mof_C 	C 	0.9679	0.2702	0.23803	-0.114
Mof_C 	C 	0.8016	0.3986	0.9381	0.081
Mof_C 	C 	0.6998	0.4123	0.93235	0.075
Mof_C 	C 	0.6568	0.409	0.906	-0.161
Mof_C 	C 	0.5648	0.4248	0.902	0.102
Mof_C 	C 	0.558	0.4521	0.94916	0.093
Mof_C 	C 	0.6474	0.4361	0.9548	-0.152
Mof_C 	C 	0.9391	0.4053	0.9642	0.099
Mof_C 	C 	0.9911	0.4216	0.99121	0.049
Mof_C 	C 	0.9423	0.4427	0.0147	-0.117
Mof_C 	C 	0.9921	0.455	0.0406	0.064
Mof_C 	C 	0.1354	0.4306	0.0191	0.059
Mof_C 	C 	0.0897	0.4163	0.9931	-0.109
Mof_C 	C 	0.9378	0.3643	0.9203	0.105
Mof_C 	C 	0.9923	0.3398	0.89674	0.057
Mof_C 	C 	0.0918	0.3406	0.8962	-0.108
Mof_C 	C 	0.1405	0.3178	0.8735	0.064
Mof_C 	C 	0.0011	0.2952	0.8512	0.078
Mof_C 	C 	0.9441	0.3157	0.874	-0.118
Mof_C 	C 	0.9623	0.3222	0.65055	0.096
Mof_C 	C 	0.9487	0.3702	0.63534	0.064
Mof_C 	C 	0.9504	0.4133	0.6518	-0.122
Mof_C 	C 	0.935	0.4554	0.6363	0.067
Mof_C 	C 	0.9141	0.4167	0.5923	0.094
Mof_C 	C 	0.9292	0.3723	0.6057	-0.131
Mof_C 	C 	0.9611	0.2407	0.64854	0.099
Mof_C 	C 	0.942	0.1948	0.6323	0.052
Mof_C 	C 	0.9565	0.1504	0.6463	-0.116
Mof_C 	C 	0.9345	0.1085	0.6304	0.063
Mof_C 	C 	0.8897	0.1519	0.58955	0.069
Mof_C 	C 	0.9087	0.1962	0.60321	-0.118
Mof_C 	C 	0.9995	0.278	0.69167	0.104
Mof_C 	C 	0.0281	0.2753	0.72347	0.05
Mof_C 	C 	0.0562	0.3145	0.7396	-0.114
Mof_C 	C 	0.0906	0.3101	0.7678	0.058
Mof_C 	C 	0.0655	0.228	0.7672	0.073
Mof_C 	C 	0.0321	0.2298	0.73803	-0.115
Mof_C 	C 	0.1984	0.1014	0.4381	0.081
Mof_C 	C 	0.3002	0.0877	0.43235	0.075
Mof_C 	C 	0.3432	0.091	0.406	-0.161
Mof_C 	C 	0.4352	0.0752	0.402	0.102
Mof_C 	C 	0.442	0.0479	0.44916	0.093
Mof_C 	C 	0.3526	0.0639	0.4548	-0.152
Mof_C 	C 	0.0609	0.0947	0.4642	0.098
Mof_C 	C 	0.0089	0.0784	0.49121	0.051
Mof_C 	C 	0.0577	0.0573	0.5147	-0.118
Mof_C 	C 	0.0079	0.045	0.5406	0.066
Mof_C 	C 	0.8646	0.0694	0.5191	0.06
Mof_C 	C 	0.9103	0.0837	0.4931	-0.111
Mof_C 	C 	0.0622	0.1357	0.4203	0.105
Mof_C 	C 	0.0077	0.1602	0.39674	0.058
Mof_C 	C 	0.9082	0.1594	0.3962	-0.109
Mof_C 	C 	0.8595	0.1822	0.3735	0.064
Mof_C 	C 	0.9989	0.2048	0.3512	0.075
Mof_C 	C 	0.0559	0.1843	0.374	-0.116
Mof_C 	C 	0.5377	0.8222	0.34945	0.096
Mof_C 	C 	0.5513	0.8702	0.36466	0.064
Mof_C 	C 	0.5496	0.9133	0.3482	-0.122
Mof_C 	C 	0.565	0.9554	0.3637	0.067
Mof_C 	C 	0.5859	0.9167	0.4077	0.094
Mof_C 	C 	0.5708	0.8723	0.3943	-0.131
Mof_C 	C 	0.5389	0.7407	0.35146	0.099
Mof_C 	C 	0.558	0.6948	0.3677	0.053
Mof_C 	C 	0.5435	0.6504	0.3537	-0.116
Mof_C 	C 	0.5655	0.6085	0.3696	0.063
Mof_C 	C 	0.6103	0.6519	0.41045	0.069
Mof_C 	C 	0.5913	0.6962	0.39679	-0.118
Mof_C 	C 	0.5005	0.778	0.30833	0.105
Mof_C 	C 	0.4719	0.7753	0.27653	0.049
Mof_C 	C 	0.4438	0.8145	0.2604	-0.114
Mof_C 	C 	0.4094	0.8101	0.2322	0.058
Mof_C 	C 	0.4345	0.728	0.2328	0.073
Mof_C 	C 	0.4679	0.7298	0.26197	-0.115
Mof_C 	C 	0.3016	0.6014	0.5619	0.081
Mof_C 	C 	0.1998	0.5877	0.56765	0.075
Mof_C 	C 	0.1568	0.591	0.594	-0.161
Mof_C 	C 	0.0648	0.5752	0.598	0.102
Mof_C 	C 	0.058	0.5479	0.55084	0.093
Mof_C 	C 	0.1474	0.5639	0.5452	-0.152
Mof_C 	C 	0.4391	0.5947	0.5358	0.098
Mof_C 	C 	0.4911	0.5784	0.50879	0.05
Mof_C 	C 	0.4423	0.5573	0.4853	-0.117
Mof_C 	C 	0.4921	0.545	0.4594	0.065
Mof_C 	C 	0.6354	0.5694	0.4809	0.059
Mof_C 	C 	0.5897	0.5837	0.5069	-0.109
Mof_C 	C 	0.4378	0.6357	0.5797	0.105
Mof_C 	C 	0.4923	0.6602	0.60326	0.058
Mof_C 	C 	0.5918	0.6594	0.6038	-0.108
Mof_C 	C 	0.6405	0.6822	0.6265	0.064
Mof_C 	C 	0.5011	0.7048	0.6488	0.077
Mof_C 	C 	0.4441	0.6843	0.626	-0.117
Mof_C 	C 	0.4623	0.6778	0.84945	0.096
Mof_C 	C 	0.4487	0.6298	0.86466	0.064
Mof_C 	C 	0.4504	0.5867	0.8482	-0.122
Mof_C 	C 	0.435	0.5446	0.8637	0.067
Mof_C 	C 	0.4141	0.5833	0.9077	0.094
Mof_C 	C 	0.4292	0.6277	0.8943	-0.131
Mof_C 	C 	0.4611	0.7593	0.85146	0.099
Mof_C 	C 	0.442	0.8052	0.8677	0.053
Mof_C 	C 	0.4565	0.8496	0.8537	-0.116
Mof_C 	C 	0.4345	0.8915	0.8696	0.063
Mof_C 	C 	0.3897	0.8481	0.91045	0.069
Mof_C 	C 	0.4087	0.8038	0.89679	-0.118
Mof_C 	C 	0.4995	0.722	0.80833	0.105
Mof_C 	C 	0.5281	0.7247	0.77653	0.049
Mof_C 	C 	0.5562	0.6855	0.7604	-0.114
Mof_C 	C 	0.5906	0.6899	0.7322	0.058
Mof_C 	C 	0.5655	0.772	0.7328	0.073
Mof_C 	C 	0.5321	0.7702	0.76197	-0.115
Mof_C 	C 	0.6984	0.8986	0.0619	0.081
Mof_C 	C 	0.8002	0.9123	0.06765	0.075
Mof_C 	C 	0.8432	0.909	0.094	-0.161
Mof_C 	C 	0.9352	0.9248	0.098	0.102
Mof_C 	C 	0.942	0.9521	0.05084	0.093
Mof_C 	C 	0.8526	0.9361	0.0452	-0.151
Mof_C 	C 	0.5609	0.9053	0.0358	0.098
Mof_C 	C 	0.5089	0.9216	0.00879	0.05
Mof_C 	C 	0.5577	0.9427	0.9853	-0.117
Mof_C 	C 	0.5079	0.955	0.9594	0.065
Mof_C 	C 	0.3646	0.9306	0.9809	0.059
Mof_C 	C 	0.4103	0.9163	0.0069	-0.109
Mof_C 	C 	0.5622	0.8643	0.0797	0.105
Mof_C 	C 	0.5077	0.8398	0.10326	0.058
Mof_C 	C 	0.4082	0.8406	0.1038	-0.108
Mof_C 	C 	0.3595	0.8178	0.1265	0.064
Mof_C 	C 	0.4989	0.7952	0.1488	0.077
Mof_C 	C 	0.5559	0.8157	0.126	-0.117
Mof_I 	I 	0.33002	0.43813	0.07709	-0.388
Mof_I 	I 	0.07865	0.52177	0.11487	-0.363
Mof_I 	I 	0.30059	0.42485	0.87601	-0.375
Mof_I 	I 	0.30629	0.49583	0.96478	-0.39
Mof_I 	I 	0.33247	0.30588	0.81222	-0.366
Mof_I 	I 	0.18598	0.16896	0.83332	-0.373
Mof_I 	I 	0.66998	0.06187	0.57709	-0.388
Mof_I 	I 	0.92135	0.97823	0.61487	-0.362
Mof_I 	I 	0.69941	0.07515	0.37601	-0.375
Mof_I 	I 	0.69371	0.00417	0.46478	-0.39
Mof_I 	I 	0.66753	0.19412	0.31222	-0.366
Mof_I 	I 	0.81402	0.33104	0.33332	-0.374
Mof_I 	I 	0.83002	0.56187	0.42291	-0.388
Mof_I 	I 	0.57865	0.47823	0.38513	-0.363
Mof_I 	I 	0.80059	0.57515	0.62399	-0.375
Mof_I 	I 	0.80629	0.50417	0.53522	-0.39
Mof_I 	I 	0.83247	0.69412	0.68778	-0.366
Mof_I 	I 	0.68598	0.83104	0.66668	-0.374
Mof_I 	I 	0.16998	0.93813	0.92291	-0.389
Mof_I 	I 	0.42135	0.02177	0.88513	-0.362
Mof_I 	I 	0.19941	0.92485	0.12399	-0.376
Mof_I 	I 	0.19371	0.99583	0.03522	-0.39
Mof_I 	I 	0.16753	0.80588	0.18778	-0.366
Mof_I 	I 	0.31402	0.66896	0.16668	-0.374
Mof_N 	N 	0.0959	0.2942	0.85112	-0.278
Mof_N 	N 	0.0877	0.4479	0.0431	-0.27
Mof_N 	N 	0.5154	0.4466	0.9227	-0.283
Mof_N 	N 	0.9898	0.3809	0.94372	-0.138
Mof_N 	N 	0.8437	0.3702	0.91701	-0.13
Mof_N 	N 	0.8464	0.4158	0.96187	-0.144
Mof_N 	N 	0.0852	0.0424	0.1065	-0.276
Mof_N 	N 	0.099	0.3914	0.10276	-0.273
Mof_N 	N 	0.9022	0.2343	0.28145	-0.274
Mof_N 	N 	0.0504	0.2171	0.13432	-0.138
Mof_N 	N 	0.0138	0.1775	0.18037	-0.137
Mof_N 	N 	0.0146	0.2634	0.17787	-0.139
Mof_N 	N 	0.9041	0.2058	0.35112	-0.277
Mof_N 	N 	0.9123	0.0521	0.5431	-0.271
Mof_N 	N 	0.4846	0.0534	0.4227	-0.283
Mof_N 	N 	0.0102	0.1191	0.44372	-0.138
Mof_N 	N 	0.1563	0.1298	0.41701	-0.13
Mof_N 	N 	0.1536	0.0842	0.46187	-0.144
Mof_N 	N 	0.9148	0.4576	0.6065	-0.276
Mof_N 	N 	0.901	0.1086	0.60276	-0.273
Mof_N 	N 	0.0978	0.2657	0.78145	-0.274
Mof_N 	N 	0.9496	0.2829	0.63432	-0.139
Mof_N 	N 	0.9862	0.3225	0.68037	-0.137
Mof_N 	N 	0.9854	0.2366	0.67787	-0.139
Mof_N 	N 	0.5959	0.7058	0.64888	-0.278
Mof_N 	N 	0.5877	0.5521	0.4569	-0.27
Mof_N 	N 	0.0154	0.5534	0.5773	-0.283
Mof_N 	N 	0.4898	0.6191	0.55628	-0.138
Mof_N 	N 	0.3437	0.6298	0.58299	-0.13
Mof_N 	N 	0.3464	0.5842	0.53813	-0.144
Mof_N 	N 	0.5852	0.9576	0.3935	-0.276
Mof_N 	N 	0.599	0.6086	0.39724	-0.273
Mof_N 	N 	0.4022	0.7657	0.21855	-0.274
Mof_N 	N 	0.5504	0.7829	0.36568	-0.138
Mof_N 	N 	0.5138	0.8225	0.31963	-0.137
Mof_N 	N 	0.5146	0.7366	0.32213	-0.139
Mof_N 	N 	0.4041	0.7942	0.14888	-0.278
Mof_N 	N 	0.4123	0.9479	0.9569	-0.27
Mof_N 	N 	0.9846	0.9466	0.0773	-0.283
Mof_N 	N 	0.5102	0.8809	0.05628	-0.138
Mof_N 	N 	0.6563	0.8702	0.08299	-0.13
Mof_N 	N 	0.6536	0.9158	0.03813	-0.144
Mof_N 	N 	0.4148	0.5424	0.8935	-0.277
Mof_N 	N 	0.401	0.8914	0.89724	-0.273
Mof_N 	N 	0.5978	0.7343	0.71855	-0.274
Mof_N 	N 	0.4496	0.7171	0.86568	-0.139
Mof_N 	N 	0.4862	0.6775	0.81963	-0.137
Mof_N 	N 	0.4854	0.7634	0.82213	-0.139
Mof_Zn	Zn	0.84817	0.54587	0.91588	1.165
Mof_Zn	Zn	0.61702	0.52245	0.08596	1.164
Mof_Zn	Zn	0.82424	0.74146	0.18001	1.165
Mof_Zn	Zn	0.15183	0.95413	0.41588	1.165
Mof_Zn	Zn	0.38298	0.97755	0.58596	1.164
Mof_Zn	Zn	0.17576	0.75854	0.68001	1.165
Mof_Zn	Zn	0.34817	0.45413	0.58412	1.165
Mof_Zn	Zn	0.11702	0.47755	0.41404	1.164
Mof_Zn	Zn	0.32424	0.25854	0.31999	1.165
Mof_Zn	Zn	0.65183	0.04587	0.08412	1.165
Mof_Zn	Zn	0.88298	0.02245	0.91404	1.164
Mof_Zn	Zn	0.67576	0.24146	0.81999	1.165
Mof_H 	H 	0.9616	0.9133	0.8274	0.083
Mof_H 	H 	0.9387	0.9851	0.853	-0.008
Mof_H 	H 	0.9026	0.9173	0.9285	-0.017
Mof_H 	H 	0.9259	0.8433	0.9057	0.087
Mof_H 	H 	0.9805	0.6487	0.8339	0.08
Mof_H 	H 	0.9442	0.5781	0.8601	-0.009
Mof_H 	H 	0.8672	0.6523	0.9304	-0.013
Mof_H 	H 	0.8993	0.7261	0.907	0.079
Mof_H 	H 	0.0517	0.8458	0.7691	0.079
Mof_H 	H 	0.1102	0.8383	0.7218	-0.006
Mof_H 	H 	0.0647	0.6977	0.7228	-0.004
Mof_H 	H 	0.0124	0.7011	0.7719	0.081
Mof_H 	H 	0.3091	0.6045	0.1104	0.108
Mof_H 	H 	0.4647	0.5803	0.1169	-0.017
Mof_H 	H 	0.4764	0.532	0.0354	-0.012
Mof_H 	H 	0.3248	0.5591	0.0261	0.099
Mof_H 	H 	0.1248	0.5512	0.9867	0.089
Mof_H 	H 	0.0422	0.5314	0.9431	-0.014
Mof_H 	H 	0.7965	0.5719	0.9798	0.002
Mof_H 	H 	0.8746	0.5968	0.0231	0.077
Mof_H 	H 	0.8736	0.6431	0.0885	0.08
Mof_H 	H 	0.7912	0.6812	0.1265	-0.005
Mof_H 	H 	0.0312	0.7189	0.1654	-0.016
Mof_H 	H 	0.1241	0.6868	0.1263	0.08
Mof_H 	H 	0.0384	0.5867	0.3274	0.083
Mof_H 	H 	0.0613	0.5149	0.353	-0.008
Mof_H 	H 	0.0974	0.5827	0.4285	-0.017
Mof_H 	H 	0.0741	0.6567	0.4057	0.086
Mof_H 	H 	0.0195	0.8513	0.3339	0.08
Mof_H 	H 	0.0558	0.9219	0.3601	-0.009
Mof_H 	H 	0.1328	0.8477	0.4304	-0.013
Mof_H 	H 	0.1007	0.7739	0.407	0.079
Mof_H 	H 	0.9483	0.6542	0.2691	0.079
Mof_H 	H 	0.8898	0.6617	0.2218	-0.006
Mof_H 	H 	0.9353	0.8023	0.2228	-0.004
Mof_H 	H 	0.9876	0.7989	0.2719	0.082
Mof_H 	H 	0.6909	0.8955	0.6104	0.108
Mof_H 	H 	0.5353	0.9197	0.6169	-0.017
Mof_H 	H 	0.5236	0.968	0.5354	-0.012
Mof_H 	H 	0.6752	0.9409	0.5261	0.099
Mof_H 	H 	0.8752	0.9488	0.4867	0.089
Mof_H 	H 	0.9578	0.9686	0.4431	-0.014
Mof_H 	H 	0.2035	0.9281	0.4798	0.002
Mof_H 	H 	0.1254	0.9032	0.5231	0.077
Mof_H 	H 	0.1264	0.8569	0.5885	0.08
Mof_H 	H 	0.2088	0.8188	0.6265	-0.005
Mof_H 	H 	0.9688	0.7811	0.6654	-0.014
Mof_H 	H 	0.8759	0.8132	0.6263	0.079
Mof_H 	H 	0.4616	0.0867	0.6726	0.083
Mof_H 	H 	0.4387	0.0149	0.647	-0.008
Mof_H 	H 	0.4026	0.0827	0.5715	-0.017
Mof_H 	H 	0.4259	0.1567	0.5943	0.087
Mof_H 	H 	0.4805	0.3513	0.6661	0.08
Mof_H 	H 	0.4442	0.4219	0.6399	-0.009
Mof_H 	H 	0.3672	0.3477	0.5696	-0.013
Mof_H 	H 	0.3993	0.2739	0.593	0.079
Mof_H 	H 	0.5517	0.1542	0.7309	0.079
Mof_H 	H 	0.6102	0.1617	0.7782	-0.006
Mof_H 	H 	0.5647	0.3023	0.7772	-0.004
Mof_H 	H 	0.5124	0.2989	0.7281	0.082
Mof_H 	H 	0.8091	0.3955	0.3896	0.108
Mof_H 	H 	0.9647	0.4197	0.3831	-0.017
Mof_H 	H 	0.9764	0.468	0.4646	-0.012
Mof_H 	H 	0.8248	0.4409	0.4739	0.099
Mof_H 	H 	0.6248	0.4488	0.5133	0.089
Mof_H 	H 	0.5422	0.4686	0.5569	-0.014
Mof_H 	H 	0.2965	0.4281	0.5202	0.002
Mof_H 	H 	0.3746	0.4032	0.4769	0.077
Mof_H 	H 	0.3736	0.3569	0.4115	0.08
Mof_H 	H 	0.2912	0.3188	0.3735	-0.005
Mof_H 	H 	0.5312	0.2811	0.3346	-0.015
Mof_H 	H 	0.6241	0.3132	0.3737	0.08
Mof_H 	H 	0.5384	0.4133	0.1726	0.083
Mof_H 	H 	0.5613	0.4851	0.147	-0.008
Mof_H 	H 	0.5974	0.4173	0.0715	-0.017
Mof_H 	H 	0.5741	0.3433	0.0943	0.086
Mof_H 	H 	0.5195	0.1487	0.1661	0.08
Mof_H 	H 	0.5558	0.0781	0.1399	-0.009
Mof_H 	H 	0.6328	0.1523	0.0696	-0.013
Mof_H 	H 	0.6007	0.2261	0.093	0.079
Mof_H 	H 	0.4483	0.3458	0.2309	0.079
Mof_H 	H 	0.3898	0.3383	0.2782	-0.006
Mof_H 	H 	0.4353	0.1977	0.2772	-0.004
Mof_H 	H 	0.4876	0.2011	0.2281	0.082
Mof_H 	H 	0.1909	0.1045	0.8896	0.108
Mof_H 	H 	0.0353	0.0803	0.8831	-0.016
Mof_H 	H 	0.0236	0.032	0.9646	-0.011
Mof_H 	H 	0.1752	0.0591	0.9739	0.099
Mof_H 	H 	0.3752	0.0512	0.0133	0.089
Mof_H 	H 	0.4578	0.0314	0.0569	-0.014
Mof_H 	H 	0.7035	0.0719	0.0202	0.002
Mof_H 	H 	0.6254	0.0968	0.9769	0.077
Mof_H 	H 	0.6264	0.1431	0.9115	0.08
Mof_H 	H 	0.7088	0.1812	0.8735	-0.005
Mof_H 	H 	0.4688	0.2189	0.8346	-0.015
Mof_H 	H 	0.3759	0.1868	0.8737	0.08
Mof_C 	C 	0.9623	0.8222	0.84945	0.097
Mof_C 	C 	0.9487	0.8702	0.86466	0.065
Mof_C 	C 	0.9504	0.9133	0.8482	-0.122
Mof_C 	C 	0.935	0.9554	0.8637	0.068
Mof_C 	C 	0.9141	0.9167	0.9077	0.094
Mof_C 	C 	0.9292	0.8723	0.8943	-0.131
Mof_C 	C 	0.9611	0.7407	0.85146	0.099
Mof_C 	C 	0.942	0.6948	0.8677	0.053
Mof_C 	C 	0.9565	0.6504	0.8537	-0.116
Mof_C 	C 	0.9345	0.6085	0.8696	0.063
Mof_C 	C 	0.8897	0.6519	0.91045	0.069
Mof_C 	C 	0.9087	0.6962	0.89679	-0.118
Mof_C 	C 	0.9995	0.778	0.80833	0.105
Mof_C 	C 	0.0281	0.7753	0.77653	0.049
Mof_C 	C 	0.0562	0.8145	0.7604	-0.113
Mof_C 	C 	0.0906	0.8101	0.7322	0.058
Mof_C 	C 	0.0655	0.728	0.7328	0.073
Mof_C 	C 	0.0321	0.7298	0.76197	-0.114
Mof_C 	C 	0.1984	0.6014	0.0619	0.081
Mof_C 	C 	0.3002	0.5877	0.06765	0.075
Mof_C 	C 	0.3432	0.591	0.094	-0.161
Mof_C 	C 	0.4352	0.5752	0.098	0.102
Mof_C 	C 	0.442	0.5479	0.05084	0.093
Mof_C 	C 	0.3526	0.5639	0.0452	-0.152
Mof_C 	C 	0.0609	0.5947	0.0358	0.099
Mof_C 	C 	0.0089	0.5784	0.00879	0.049
Mof_C 	C 	0.0577	0.5573	0.9853	-0.117
Mof_C 	C 	0.0079	0.545	0.9594	0.064
Mof_C 	C 	0.8646	0.5694	0.9809	0.059
Mof_C 	C 	0.9103	0.5837	0.0069	-0.109
Mof_C 	C 	0.0622	0.6357	0.0797	0.105
Mof_C 	C 	0.0077	0.6602	0.10326	0.057
Mof_C 	C 	0.9082	0.6594	0.1038	-0.108
Mof_C 	C 	0.8595	0.6822	0.1265	0.064
Mof_C 	C 	0.9989	0.7048	0.1488	0.078
Mof_C 	C 	0.0559	0.6843	0.126	-0.118
Mof_C 	C 	0.0377	0.6778	0.34945	0.096
Mof_C 	C 	0.0513	0.6298	0.36466	0.064
Mof_C 	C 	0.0496	0.5867	0.3482	-0.122
Mof_C 	C 	0.065	0.5446	0.3637	0.067
Mof_C 	C 	0.0859	0.5833	0.4077	0.094
Mof_C 	C 	0.0708	0.6277	0.3943	-0.131
Mof_C 	C 	0.0389	0.7593	0.35146	0.099
Mof_C 	C 	0.058	0.8052	0.3677	0.052
Mof_C 	C 	0.0435	0.8496	0.3537	-0.116
Mof_C 	C 	0.0655	0.8915	0.3696	0.063
Mof_C 	C 	0.1103	0.8481	0.41045	0.069
Mof_C 	C 	0.0913	0.8038	0.39679	-0.118
Mof_C 	C 	0.0005	0.722	0.30833	0.104
Mof_C 	C 	0.9719	0.7247	0.27653	0.05
Mof_C 	C 	0.9438	0.6855	0.2604	-0.114
Mof_C 	C 	0.9094	0.6899	0.2322	0.058
Mof_C 	C 	0.9345	0.772	0.2328	0.073
Mof_C 	C 	0.9679	0.7702	0.26197	-0.115
Mof_C 	C 	0.8016	0.8986	0.5619	0.081
Mof_C 	C 	0.6998	0.9123	0.56765	0.075
Mof_C 	C 	0.6568	0.909	0.594	-0.161
Mof_C 	C 	0.5648	0.9248	0.598	0.102
Mof_C 	C 	0.558	0.9521	0.55084	0.093
Mof_C 	C 	0.6474	0.9361	0.5452	-0.152
Mof_C 	C 	0.9391	0.9053	0.5358	0.098
Mof_C 	C 	0.9911	0.9216	0.50879	0.051
Mof_C 	C 	0.9423	0.9427	0.4853	-0.118
Mof_C 	C 	0.9921	0.955	0.4594	0.066
Mof_C 	C 	0.1354	0.9306	0.4809	0.06
Mof_C 	C 	0.0897	0.9163	0.5069	-0.111
Mof_C 	C 	0.9378	0.8643	0.5797	0.105
Mof_C 	C 	0.9923	0.8398	0.60326	0.058
Mof_C 	C 	0.0918	0.8406	0.6038	-0.109
Mof_C 	C 	0.1405	0.8178	0.6265	0.064
Mof_C 	C 	0.0011	0.7952	0.6488	0.075
Mof_C 	C 	0.9441	0.8157	0.626	-0.116
Mof_C 	C 	0.4623	0.1778	0.65055	0.096
Mof_C 	C 	0.4487	0.1298	0.63534	0.064
Mof_C 	C 	0.4504	0.0867	0.6518	-0.122
Mof_C 	C 	0.435	0.0446	0.6363	0.067
Mof_C 	C 	0.4141	0.0833	0.5923	0.094
Mof_C 	C 	0.4292	0.1277	0.6057	-0.131
Mof_C 	C 	0.4611	0.2593	0.64854	0.099
Mof_C 	C 	0.442	0.3052	0.6323	0.053
Mof_C 	C 	0.4565	0.3496	0.6463	-0.116
Mof_C 	C 	0.4345	0.3915	0.6304	0.063
Mof_C 	C 	0.3897	0.3481	0.58955	0.069
Mof_C 	C 	0.4087	0.3038	0.60321	-0.118
Mof_C 	C 	0.4995	0.222	0.69167	0.105
Mof_C 	C 	0.5281	0.2247	0.72347	0.049
Mof_C 	C 	0.5562	0.1855	0.7396	-0.114
Mof_C 	C 	0.5906	0.1899	0.7678	0.058
Mof_C 	C 	0.5655	0.272	0.7672	0.073
Mof_C 	C 	0.5321	0.2702	0.73803	-0.115
Mof_C 	C 	0.6984	0.3986	0.4381	0.081
Mof_C 	C 	0.8002	0.4123	0.43235	0.075
Mof_C 	C 	0.8432	0.409	0.406	-0.161
Mof_C 	C 	0.9352	0.4248	0.402	0.102
Mof_C 	C 	0.942	0.4521	0.44916	0.093
Mof_C 	C 	0.8526	0.4361	0.4548	-0.152
Mof_C 	C 	0.5609	0.4053	0.4642	0.098
Mof_C 	C 	0.5089	0.4216	0.49121	0.05
Mof_C 	C 	0.5577	0.4427	0.5147	-0.117
Mof_C 	C 	0.5079	0.455	0.5406	0.065
Mof_C 	C 	0.3646	0.4306	0.5191	0.059
Mof_C 	C 	0.4103	0.4163	0.4931	-0.109
Mof_C 	C 	0.5622	0.3643	0.4203	0.105
Mof_C 	C 	0.5077	0.3398	0.39674	0.058
Mof_C 	C 	0.4082	0.3406	0.3962	-0.108
Mof_C 	C 	0.3595	0.3178	0.3735	0.064
Mof_C 	C 	0.4989	0.2952	0.3512	0.077
Mof_C 	C 	0.5559	0.3157	0.374	-0.117
Mof_C 	C 	0.5377	0.3222	0.15055	0.096
Mof_C 	C 	0.5513	0.3702	0.13534	0.064
Mof_C 	C 	0.5496	0.4133	0.1518	-0.122
Mof_C 	C 	0.565	0.4554	0.1363	0.067
Mof_C 	C 	0.5859	0.4167	0.0923	0.094
Mof_C 	C 	0.5708	0.3723	0.1057	-0.131
Mof_C 	C 	0.5389	0.2407	0.14854	0.099
Mof_C 	C 	0.558	0.1948	0.1323	0.053
Mof_C 	C 	0.5435	0.1504	0.1463	-0.116
Mof_C 	C 	0.5655	0.1085	0.1304	0.063
Mof_C 	C 	0.6103	0.1519	0.08955	0.069
Mof_C 	C 	0.5913	0.1962	0.10321	-0.118
Mof_C 	C 	0.5005	0.278	0.19167	0.105
Mof_C 	C 	0.4719	0.2753	0.22347	0.049
Mof_C 	C 	0.4438	0.3145	0.2396	-0.114
Mof_C 	C 	0.4094	0.3101	0.2678	0.058
Mof_C 	C 	0.4345	0.228	0.2672	0.073
Mof_C 	C 	0.4679	0.2298	0.23803	-0.115
Mof_C 	C 	0.3016	0.1014	0.9381	0.081
Mof_C 	C 	0.1998	0.0877	0.93235	0.075
Mof_C 	C 	0.1568	0.091	0.906	-0.161
Mof_C 	C 	0.0648	0.0752	0.902	0.102
Mof_C 	C 	0.058	0.0479	0.94916	0.093
Mof_C 	C 	0.1474	0.0639	0.9548	-0.151
Mof_C 	C 	0.4391	0.0947	0.9642	0.098
Mof_C 	C 	0.4911	0.0784	0.99121	0.05
Mof_C 	C 	0.4423	0.0573	0.0147	-0.117
Mof_C 	C 	0.4921	0.045	0.0406	0.065
Mof_C 	C 	0.6354	0.0694	0.0191	0.059
Mof_C 	C 	0.5897	0.0837	0.9931	-0.109
Mof_C 	C 	0.4378	0.1357	0.9203	0.105
Mof_C 	C 	0.4923	0.1602	0.89674	0.058
Mof_C 	C 	0.5918	0.1594	0.8962	-0.108
Mof_C 	C 	0.6405	0.1822	0.8735	0.064
Mof_C 	C 	0.5011	0.2048	0.8512	0.077
Mof_C 	C 	0.4441	0.1843	0.874	-0.117
Mof_I 	I 	0.66998	0.56187	0.92291	-0.388
Mof_I 	I 	0.92135	0.47823	0.88513	-0.363
Mof_I 	I 	0.69941	0.57515	0.12399	-0.375
Mof_I 	I 	0.69371	0.50417	0.03522	-0.39
Mof_I 	I 	0.66753	0.69412	0.18778	-0.366
Mof_I 	I 	0.81402	0.83104	0.16668	-0.373
Mof_I 	I 	0.33002	0.93813	0.42291	-0.388
Mof_I 	I 	0.07865	0.02177	0.38513	-0.362
Mof_I 	I 	0.30059	0.92485	0.62399	-0.375
Mof_I 	I 	0.30629	0.99583	0.53522	-0.39
Mof_I 	I 	0.33247	0.80588	0.68778	-0.366
Mof_I 	I 	0.18598	0.66896	0.66668	-0.374
Mof_I 	I 	0.16998	0.43813	0.57709	-0.388
Mof_I 	I 	0.42135	0.52177	0.61487	-0.363
Mof_I 	I 	0.19941	0.42485	0.37601	-0.375
Mof_I 	I 	0.19371	0.49583	0.46478	-0.39
Mof_I 	I 	0.16753	0.30588	0.31222	-0.366
Mof_I 	I 	0.31402	0.16896	0.33332	-0.374
Mof_I 	I 	0.83002	0.06187	0.07709	-0.389
Mof_I 	I 	0.57865	0.97823	0.11487	-0.362
Mof_I 	I 	0.80059	0.07515	0.87601	-0.376
Mof_I 	I 	0.80629	0.00417	0.96478	-0.39
Mof_I 	I 	0.83247	0.19412	0.81222	-0.366
Mof_I 	I 	0.68598	0.33104	0.83332	-0.374
Mof_N 	N 	0.9041	0.7058	0.14888	-0.278
Mof_N 	N 	0.9123	0.5521	0.9569	-0.27
Mof_N 	N 	0.4846	0.5534	0.0773	-0.283
Mof_N 	N 	0.0102	0.6191	0.05628	-0.138
Mof_N 	N 	0.1563	0.6298	0.08299	-0.13
Mof_N 	N 	0.1536	0.5842	0.03813	-0.144
Mof_N 	N 	0.9148	0.9576	0.8935	-0.276
Mof_N 	N 	0.901	0.6086	0.89724	-0.273
Mof_N 	N 	0.0978	0.7657	0.71855	-0.274
Mof_N 	N 	0.9496	0.7829	0.86568	-0.138
Mof_N 	N 	0.9862	0.8225	0.81963	-0.137
Mof_N 	N 	0.9854	0.7366	0.82213	-0.139
Mof_N 	N 	0.0959	0.7942	0.64888	-0.277
Mof_N 	N 	0.0877	0.9479	0.4569	-0.271
Mof_N 	N 	0.5154	0.9466	0.5773	-0.283
Mof_N 	N 	0.9898	0.8809	0.55628	-0.138
Mof_N 	N 	0.8437	0.8702	0.58299	-0.13
Mof_N 	N 	0.8464	0.9158	0.53813	-0.144
Mof_N 	N 	0.0852	0.5424	0.3935	-0.276
Mof_N 	N 	0.099	0.8914	0.39724	-0.273
Mof_N 	N 	0.9022	0.7343	0.21855	-0.274
Mof_N 	N 	0.0504	0.7171	0.36568	-0.139
Mof_N 	N 	0.0138	0.6775	0.31963	-0.137
Mof_N 	N 	0.0146	0.7634	0.32213	-0.139
Mof_N 	N 	0.4041	0.2942	0.35112	-0.278
Mof_N 	N 	0.4123	0.4479	0.5431	-0.27
Mof_N 	N 	0.9846	0.4466	0.4227	-0.283
Mof_N 	N 	0.5102	0.3809	0.44372	-0.138
Mof_N 	N 	0.6563	0.3702	0.41701	-0.13
Mof_N 	N 	0.6536	0.4158	0.46187	-0.144
Mof_N 	N 	0.4148	0.0424	0.6065	-0.276
Mof_N 	N 	0.401	0.3914	0.60276	-0.273
Mof_N 	N 	0.5978	0.2343	0.78145	-0.274
Mof_N 	N 	0.4496	0.2171	0.63432	-0.138
Mof_N 	N 	0.4862	0.1775	0.68037	-0.137
Mof_N 	N 	0.4854	0.2634	0.67787	-0.139
Mof_N 	N 	0.5959	0.2058	0.85112	-0.278
Mof_N 	N 	0.5877	0.0521	0.0431	-0.27
Mof_N 	N 	0.0154	0.0534	0.9227	-0.283
Mof_N 	N 	0.4898	0.1191	0.94372	-0.138
Mof_N 	N 	0.3437	0.1298	0.91701	-0.13
Mof_N 	N 	0.3464	0.0842	0.96187	-0.144
Mof_N 	N 	0.5852	0.4576	0.1065	-0.277
Mof_N 	N 	0.599	0.1086	0.10276	-0.273
Mof_N 	N 	0.4022	0.2657	0.28145	-0.274
Mof_N 	N 	0.5504	0.2829	0.13432	-0.139
Mof_N 	N 	0.5138	0.3225	0.18037	-0.137
Mof_N 	N 	0.5146	0.2366	0.17787	-0.139
_end
