data_functionalizedCrystal
_audit_creation_method	'EQeq! by Chris Wilmer'
_symmetry_space_group_name_H-M	'P1'
_symmetry_Int_Tables_number	1
_symmetry_cell_setting	triclinic
loop_
_symmetry_equiv_pos_as_xyz
  x,y,z
_cell_length_a	17.515
_cell_length_b	26.6822
_cell_length_c	26.6822
_cell_angle_alpha	76.2961
_cell_angle_beta	70.8396
_cell_angle_gamma	70.8396
loop_
_atom_site_label
_atom_site_type_symbol
_atom_site_fract_x
_atom_site_fract_y
_atom_site_fract_z
_atom_site_charge
Mof_Zn	Zn	0.9065	0.90003	0.51601	1.197
Mof_Zn	Zn	0.66567	0.4093	0.01416	1.202
Mof_Zn	Zn	0.5935	0.48399	0.09997	1.2
Mof_Zn	Zn	0.82254	0.59997	0.98399	1.201
Mof_Zn	Zn	0.83433	0.98584	0.5907	1.201
Mof_Zn	Zn	0.74765	0.50235	0.00235	1.21
Mof_Zn	Zn	0.91995	0.48761	0.02633	1.194
Mof_Zn	Zn	0.91087	0.51416	0.9093	1.199
Mof_Zn	Zn	0.75235	0.99765	0.49765	1.208
Mof_Zn	Zn	0.58005	0.97367	0.51239	1.197
Mof_Zn	Zn	0.67746	0.01601	0.40003	1.2
Mof_Zn	Zn	0.93389	0.01239	0.47367	1.197
Mof_Zn	Zn	0.58913	0.0907	0.48584	1.201
Mof_Zn	Zn	0.56611	0.52633	0.98761	1.198
Mof_Cd	Cd	0.2452	0.75	0.75	0.438
Mof_Cd	Cd	0.75	0.05764	0.94236	0.44
Mof_Cd	Cd	0.2548	0.25	0.25	0.434
Mof_Cd	Cd	0.25	0.44236	0.55764	0.44
Mof_H 	H 	0.1324	0.3132	0.9816	0.412
Mof_H 	H 	0.4157	0.0357	0.6275	0.422
Mof_H 	H 	0.8584	0.516	0.7328	0.168
Mof_H 	H 	0.0843	0.3725	0.9643	0.434
Mof_H 	H 	0.745	0.093	0.6778	-0.017
Mof_H 	H 	0.804	0.8613	0.6949	0.674
Mof_H 	H 	0.5951	0.0646	0.7594	0.195
Mof_H 	H 	0.9854	0.7099	0.7025	0.283
Mof_H 	H 	0.5124	0.9325	0.7207	0.152
Mof_H 	H 	0.3117	0.3339	0.9953	0.414
Mof_H 	H 	0.8344	0.2207	0.4325	0.148
Mof_H 	H 	0.6098	0.7326	0.7912	0.16
Mof_H 	H 	0.6961	0.7918	0.5084	0.062
Mof_H 	H 	0.6336	0.7674	0.7088	0.161
Mof_H 	H 	0.4359	0.3857	0.5893	0.015
Mof_H 	H 	0.1409	0.1661	0.5047	0.428
Mof_H 	H 	0.3676	0.0184	0.6868	0.404
Mof_H 	H 	0.506	0.1754	0.3684	0.761
Mof_H 	H 	0.6022	0.2025	0.2099	0.592
Mof_H 	H 	0.232	0.3192	0.0768	-0.065
Mof_H 	H 	0.4664	0.6706	0.9476	-0.006
Mof_H 	H 	0.6771	0.1728	0.1662	0.64
Mof_H 	H 	0.7142	0.2462	0.4346	0.153
Mof_H 	H 	0.9815	0.2527	0.8885	0.177
Mof_H 	H 	0.3328	0.075	0.6564	0.401
Mof_H 	H 	0.9442	0.4291	0.5033	0.011
Mof_H 	H 	0.0277	0.868	0.8888	0.092
Mof_H 	H 	0.6416	0.2672	0.484	0.165
Mof_H 	H 	0.7419	0.8033	0.9365	-0.038
Mof_H 	H 	0.9746	0.7809	0.4145	0.178
Mof_H 	H 	0.2969	0.5431	0.2961	-0.074
Mof_H 	H 	0.0303	0.388	0.1884	-0.003
Mof_H 	H 	0.0336	0.0524	0.3294	-0.015
Mof_H 	H 	0.3204	0.542	0.5566	0.038
Mof_H 	H 	0.581	0.0566	0.042	0.037
Mof_H 	H 	0.8369	0.4448	0.724	0.174
Mof_H 	H 	0.4915	0.8831	0.7115	0.158
Mof_H 	H 	0.0882	0.8642	0.3876	0.549
Mof_H 	H 	0.8978	0.7901	0.7975	0.633
Mof_H 	H 	0.6227	0.2473	0.6115	0.187
Mof_H 	H 	0.9839	0.6662	0.6728	0.328
Mof_H 	H 	0.9139	0.2115	0.3831	0.151
Mof_H 	H 	0.3456	0.0434	0.551	0.427
Mof_H 	H 	0.3766	0.0709	0.9967	0.007
Mof_H 	H 	0.9913	0.9254	0.2208	0.154
Mof_H 	H 	0.442	0.0552	0.064	0.056
Mof_H 	H 	0.1797	0.8576	0.3498	0.521
Mof_H 	H 	0.9272	0.1868	0.5184	0.419
Mof_H 	H 	0.0085	0.2885	0.1169	0.235
Mof_H 	H 	0.8229	0.8338	0.8272	0.668
Mof_H 	H 	0.7825	0.0796	0.266	-0.017
Mof_H 	H 	0.9817	0.6967	0.5635	-0.085
Mof_H 	H 	0.2323	0.4173	0.9159	0.401
Mof_H 	H 	0.5616	0.633	0.216	0.174
Mof_H 	H 	0.6061	0.5261	0.2789	0.173
Mof_H 	H 	0.5558	0.4967	0.5709	0.005
Mof_H 	H 	0.919	0.958	0.9434	0.056
Mof_H 	H 	0.6631	0.276	0.5552	0.18
Mof_H 	H 	0.5891	0.0893	0.8857	0.015
Mof_H 	H 	0.3035	0.3225	0.9425	0.409
Mof_H 	H 	0.5087	0.7792	0.0746	0.157
Mof_H 	H 	0.9457	0.412	0.5924	0.055
Mof_H 	H 	0.2562	0.0341	0.5677	0.386
Mof_H 	H 	0.0743	0.5844	0.6718	-0.018
Mof_H 	H 	0.688	0.9523	0.7285	0.172
Mof_H 	H 	0.696	0.3051	0.1387	0.648
Mof_H 	H 	0.9154	0.8371	0.8139	0.671
Mof_H 	H 	0.8305	0.9156	0.8282	-0.133
Mof_H 	H 	0.6408	0.2552	0.3492	0.627
Mof_H 	H 	0.7493	0.7834	0.6194	0.072
Mof_H 	H 	0.2668	0.2909	0.9979	0.425
Mof_H 	H 	0.5846	0.1861	0.1629	0.648
Mof_H 	H 	0.1409	0.7826	0.5854	0.044
Mof_H 	H 	0.6312	0.2285	0.4523	0.169
Mof_H 	H 	0.5057	0.0552	0.776	0.183
Mof_H 	H 	0.992	0.6887	0.7911	0.352
Mof_H 	H 	0.9384	0.784	0.367	0.163
Mof_H 	H 	0.367	0.6428	0.1858	0.501
Mof_H 	H 	0.9802	0.3429	0.8693	0.066
Mof_H 	H 	0.4501	0.088	0.9076	0.054
Mof_H 	H 	0.5373	0.9211	0.2497	0.396
Mof_H 	H 	0.6072	0.984	0.7672	0.168
Mof_H 	H 	0.8787	0.754	0.1248	0.412
Mof_H 	H 	0.2685	0.5775	0.1343	0.421
Mof_H 	H 	0.4963	0.7082	0.9916	0.067
Mof_H 	H 	0.1436	0.7985	0.6665	-0.015
Mof_H 	H 	0.8719	0.766	0.5796	-0.028
Mof_H 	H 	0.3564	0.3335	0.2015	-0.018
Mof_H 	H 	0.372	0.5768	0.8192	-0.062
Mof_H 	H 	0.9943	0.224	0.9448	0.17
Mof_H 	H 	0.0037	0.0084	0.2918	0.102
Mof_H 	H 	0.2081	0.5789	0.2503	0.404
Mof_H 	H 	0.8639	0.7961	0.0431	-0.085
Mof_H 	H 	0.0158	0.407	0.8222	0.051
Mof_H 	H 	0.1422	0.8719	0.4635	0.467
Mof_H 	H 	0.9901	0.8594	0.7226	0.776
Mof_H 	H 	0.8928	0.2328	0.016	0.163
Mof_H 	H 	0.1234	0.0033	0.9291	0.033
Mof_H 	H 	0.804	0.7146	0.484	0.161
Mof_H 	H 	0.5146	0.2975	0.2901	0.592
Mof_H 	H 	0.66	0.8876	0.3642	0.52
Mof_H 	H 	0.9047	0.3388	0.2256	0.162
Mof_H 	H 	0.9677	0.8321	0.3711	0.171
Mof_H 	H 	0.9111	0.9739	0.2211	0.177
Mof_H 	H 	0.0499	0.0924	0.912	0.03
Mof_H 	H 	0.5846	0.8294	0.5524	-0.007
Mof_H 	H 	0.6213	0.8752	0.246	0.388
Mof_H 	H 	0.1274	0.8521	0.8077	0.006
Mof_H 	H 	0.7452	0.2448	0.1508	0.625
Mof_H 	H 	0.9718	0.8113	0.7089	0.761
Mof_H 	H 	0.8902	0.2088	0.2674	0.151
Mof_H 	H 	0.84	0.6358	0.1124	0.557
Mof_H 	H 	0.0612	0.4448	0.436	0.047
Mof_H 	H 	0.3591	0.4146	0.2174	0.04
Mof_H 	H 	0.5789	0.4643	0.8725	0.419
Mof_H 	H 	0.1965	0.0575	0.6775	0.408
Mof_H 	H 	0.4118	0.6124	0.1358	0.526
Mof_H 	H 	0.9776	0.6281	0.0365	0.519
Mof_H 	H 	0.5861	0.6169	0.7885	0.159
Mof_H 	H 	0.1883	0.0047	0.6661	0.413
Mof_H 	H 	0.8633	0.6955	0.7721	0.363
Mof_H 	H 	0.6956	0.8572	0.3142	0.494
Mof_H 	H 	0.8773	0.3885	0.7527	0.179
Mof_H 	H 	0.8939	0.7211	0.4739	0.17
Mof_H 	H 	0.2425	0.6248	0.254	0.396
Mof_H 	H 	0.2315	0.8657	0.4225	0.434
Mof_H 	H 	0.4789	0.9762	0.3258	0.437
Mof_H 	H 	0.4802	0.9365	0.6711	0.165
Mof_H 	H 	0.1544	0.449	0.9566	0.438
Mof_H 	H 	0.9106	0.867	0.284	0.163
Mof_H 	H 	0.8044	0.6858	0.1428	0.531
Mof_H 	H 	0.546	0.8085	0.7081	0.178
Mof_H 	H 	0.133	0.8142	0.3572	0.523
Mof_H 	H 	0.8479	0.1194	0.2834	0.065
Mof_H 	H 	0.4336	0.3139	0.3371	0.649
Mof_H 	H 	0.2575	0.746	0.3752	0.404
Mof_H 	H 	0.4388	0.564	0.5552	0.054
Mof_H 	H 	0.5642	0.425	0.8436	0.398
Mof_H 	H 	0.0685	0.1775	0.5575	0.427
Mof_H 	H 	0.2677	0.0841	0.5827	0.393
Mof_H 	H 	0.142	0.0677	0.5341	0.406
Mof_H 	H 	0.358	0.4659	0.9323	0.386
Mof_H 	H 	0.9049	0.2406	0.9354	0.187
Mof_H 	H 	0.8688	0.5477	0.7715	0.177
Mof_H 	H 	0.2128	0.3077	0.3521	0.016
Mof_H 	H 	0.4444	0.4979	0.7909	0.419
Mof_H 	H 	0.9601	0.7087	0.1315	0.392
Mof_H 	H 	0.3726	0.1923	0.1479	0.014
Mof_H 	H 	0.1796	0.4434	0.458	0.042
Mof_H 	H 	0.5282	0.2911	0.1887	0.726
Mof_H 	H 	0.4723	0.1112	0.132	0.066
Mof_H 	H 	0.9691	0.1612	0.2744	0.171
Mof_H 	H 	0.1067	0.112	0.3116	-0.019
Mof_H 	H 	0.9154	0.4476	0.1706	-0
Mof_H 	H 	0.7858	0.5654	0.7538	0.162
Mof_H 	H 	0.128	0.1808	0.4232	-0.072
Mof_H 	H 	0.4911	0.0854	0.2826	0.04
Mof_H 	H 	0.0664	0.6629	0.6861	0.353
Mof_H 	H 	0.058	0.936	0.9448	0.03
Mof_H 	H 	0.6924	0.1571	0.6307	0.077
Mof_H 	H 	0.6521	0.7166	0.8806	0.069
Mof_H 	H 	0.5198	0.1307	0.6571	0.077
Mof_H 	H 	0.9122	0.1711	0.4365	0.157
Mof_H 	H 	0.5323	0.6289	0.1679	0.185
Mof_H 	H 	0.8309	0.8045	0.7279	0.64
Mof_H 	H 	0.67	0.7191	0.0855	0.19
Mof_H 	H 	0.3578	0.5365	0.1281	0.451
Mof_H 	H 	0.2872	0.6479	0.6923	0.016
Mof_H 	H 	0.9974	0.984	0.2146	0.16
Mof_H 	H 	0.5309	0.7256	0.8388	0.183
Mof_H 	H 	0.9502	0.8684	0.6754	0.783
Mof_H 	H 	0.4842	0.1778	0.593	-0.015
Mof_H 	H 	0.4697	0.8116	0.612	-0.015
Mof_H 	H 	0.8076	0.3693	0.8429	0.074
Mof_H 	H 	0.7431	0.2399	0.9317	-0.043
Mof_H 	H 	0.2887	0.4422	0.3006	0.02
Mof_H 	H 	0.5889	0.7789	0.0261	0.176
Mof_H 	H 	0.8291	0.8711	0.3321	0.176
Mof_H 	H 	0.3203	0.6502	0.1424	0.502
Mof_H 	H 	0.7548	0.8492	0.7552	0.653
Mof_H 	H 	0.6281	0.4204	0.234	-0.017
Mof_H 	H 	0.4315	0.4425	0.8225	0.404
Mof_H 	H 	0.5626	0.6915	0.7919	0.178
Mof_H 	H 	0.4345	0.4159	0.9173	0.392
Mof_H 	H 	0.5878	0.5635	0.8289	0.166
Mof_H 	H 	0.508	0.2089	0.3113	0.727
Mof_H 	H 	0.5185	0.1115	0.7473	0.188
Mof_H 	H 	0.5728	0.4816	0.8132	0.4
Mof_H 	H 	0.2113	0.6994	0.5578	0.018
Mof_H 	H 	0.1997	0.6315	0.2087	0.382
Mof_H 	H 	0.6367	0.2279	0.3045	0.602
Mof_H 	H 	0.2919	0.7497	0.4211	0.41
Mof_H 	H 	0.5183	0.4365	0.3033	-0.036
Mof_H 	H 	0.0853	0.4317	0.7399	0.015
Mof_H 	H 	0.4257	0.3282	0.4156	-0.123
Mof_H 	H 	0.268	0.9232	0.6808	-0.064
Mof_H 	H 	0.9627	0.7503	0.0789	0.415
Mof_H 	H 	0.6709	0.6679	0.1289	0.181
Mof_H 	H 	0.994	0.6316	0.8246	0.386
Mof_H 	H 	0.3003	0.7913	0.3685	0.388
Mof_H 	H 	0.9358	0.1564	0.575	0.416
Mof_H 	H 	0.1086	0.7015	0.8335	-0.013
Mof_H 	H 	0.1672	0.3436	0.925	0.41
Mof_H 	H 	0.5099	0.2774	0.1406	0.756
Mof_H 	H 	0.9374	0.2081	0.3085	0.167
Mof_H 	H 	0.9876	0.2793	0.0675	0.206
Mof_H 	H 	0.6398	0.1949	0.3613	0.649
Mof_H 	H 	0.2191	0.8258	0.4762	0.454
Mof_H 	H 	0.0556	0.2091	0.5021	0.443
Mof_H 	H 	0.3914	0.1665	0.2985	-0.018
Mof_H 	H 	0.5894	0.716	0.133	0.171
Mof_H 	H 	0.0198	0.3289	0.0635	0.238
Mof_H 	H 	0.6691	0.2721	0.1955	0.601
Mof_H 	H 	0.0641	0.4107	0.6143	0.011
Mof_H 	H 	0.0211	0.6742	0.0238	0.529
Mof_H 	H 	0.4279	0.2226	0.3594	0.757
Mof_H 	H 	0.755	0.3222	0.907	-0.016
Mof_H 	H 	0.4147	0.2601	0.5683	-0.041
Mof_H 	H 	0.44	0.4566	0.949	0.426
Mof_H 	H 	0.83	0.9145	0.2809	0.184
Mof_H 	H 	0.2845	0.632	0.6112	0.068
Mof_H 	H 	0.5498	0.3246	0.1316	0.76
Mof_H 	H 	0.2438	0.4323	0.9659	0.394
Mof_H 	H 	0.6695	0.1718	0.0844	-0.124
Mof_H 	H 	0.954	0.2919	0.1915	0.15
Mof_H 	H 	0.696	0.516	0.2854	0.16
Mof_H 	H 	0.3933	0.6884	0.888	-0.014
Mof_H 	H 	0.8602	0.6387	0.8051	0.407
Mof_H 	H 	0.8664	0.2912	0.2326	0.14
Mof_H 	H 	0.0655	0.0827	0.5841	0.417
Mof_H 	H 	0.5953	0.7744	0.6612	0.185
Mof_H 	H 	0.5026	0.7854	0.016	0.164
Mof_H 	H 	0.5254	0.5855	0.2191	0.193
Mof_H 	H 	0.2332	0.0021	0.7091	0.423
Mof_H 	H 	0.5161	0.3272	0.3338	0.641
Mof_H 	H 	0.06	0.051	0.5434	0.454
Mof_H 	H 	0.2031	0.7039	0.4569	-0.092
Mof_H 	H 	0.0197	0.6343	0.0775	0.508
Mof_H 	H 	0.2809	0.5238	0.1742	0.442
Mof_H 	H 	0.3591	0.4953	0.8339	0.411
Mof_H 	H 	0.9109	0.1143	0.9107	0.033
Mof_H 	H 	0.9191	0.4354	0.7406	0.182
Mof_H 	H 	0.5315	0.0578	0.1994	0.02
Mof_H 	H 	0.895	0.2538	0.0654	0.149
Mof_H 	H 	0.6361	0.9569	0.2039	-0.072
Mof_H 	H 	0.4803	0.9225	0.3657	0.417
Mof_H 	H 	0.812	0.2715	0.0477	0.17
Mof_H 	H 	0.605	0.9346	0.7462	0.156
Mof_H 	H 	0.5543	0.4076	0.588	0.051
Mof_H 	H 	0.8625	0.7208	0.4254	0.151
Mof_H 	H 	0.8039	0.4916	0.2082	0.058
Mof_H 	H 	0.6129	0.8498	0.3576	0.496
Mof_H 	H 	0.5224	0.9635	0.3719	0.447
Mof_H 	H 	0.7581	0.0635	0.1967	-0.035
Mof_H 	H 	0.0089	0.7174	0.9146	0.071
Mof_H 	H 	0.7569	0.0683	0.7601	-0.046
Mof_H 	H 	0.9685	0.8006	0.9422	-0.03
Mof_H 	H 	0.2155	0.3888	0.368	0.067
Mof_H 	H 	0.8871	0.6424	0.1502	0.529
Mof_H 	H 	0.5399	0.8685	0.2913	0.374
Mof_H 	H 	0.9211	0.1275	0.5357	0.44
Mof_H 	H 	0.6656	0.5675	0.7793	0.154
Mof_H 	H 	0.7175	0.734	0.9204	-0.017
Mof_H 	H 	0.7507	0.3806	0.2166	0.058
Mof_H 	H 	0.5809	0.2594	0.5646	0.194
Mof_H 	H 	0.8592	0.6508	0.7448	0.387
Mof_H 	H 	0.0721	0.6406	0.7774	0.403
Mof_H 	H 	0.6375	0.5746	0.2792	0.152
Mof_C 	C 	0.7528	0.1015	0.5805	-0.006
Mof_C 	C 	0.6673	0.6802	0.8782	-0.15
Mof_C 	C 	0.6019	0.4419	0.2081	0.081
Mof_C 	C 	0.0438	0.8347	0.8777	-0.175
Mof_C 	C 	0.5583	0.6088	0.1958	-0.598
Mof_C 	C 	0.7564	0.5452	0.096	0.136
Mof_C 	C 	0.2346	0.6065	0.2299	-1.318
Mof_C 	C 	0.5625	0.0563	0.6949	0.119
Mof_C 	C 	0.8565	0.8281	0.4235	0.108
Mof_C 	C 	0.7873	0.1287	0.4285	-0.092
Mof_C 	C 	0.2422	0.3291	0.3251	0.029
Mof_C 	C 	0.996	0.4409	0.8325	-0.032
Mof_C 	C 	0.8373	0.923	0.7498	-0.783
Mof_C 	C 	0.5115	0.9483	0.3467	-1.445
Mof_C 	C 	0.4076	0.1554	0.2652	0.02
Mof_C 	C 	0.4024	0.4879	0.3089	-0.235
Mof_C 	C 	0.8091	0.8422	0.7296	-2.183
Mof_C 	C 	0.1704	0.1867	0.3187	0.323
Mof_C 	C 	0.7166	0.0267	0.2719	-0.26
Mof_C 	C 	0.7719	0.5129	0.1853	-0.117
Mof_C 	C 	0.8043	0.5132	0.1302	-0.034
Mof_C 	C 	0.1346	0.6324	0.5284	0.358
Mof_C 	C 	0.824	0.8832	0.4232	-0.127
Mof_C 	C 	0.6007	0.7926	0.6864	-0.548
Mof_C 	C 	0.929	0.7299	0.1065	-1.385
Mof_C 	C 	0.9043	0.6909	0.0799	1.152
Mof_C 	C 	0.9477	0.9868	0.3698	-0.012
Mof_C 	C 	0.3242	0.8187	0.6867	0.316
Mof_C 	C 	0.508	0.488	0.572	0.017
Mof_C 	C 	0.7904	0.497	0.8128	0.055
Mof_C 	C 	0.48	0.6336	0.95	0.087
Mof_C 	C 	0.4186	0.453	0.9218	-1.348
Mof_C 	C 	0.1751	0.8091	0.4201	1.097
Mof_C 	C 	0.571	0.8935	0.2701	-1.3
Mof_C 	C 	0.436	0.4215	0.5825	0.048
Mof_C 	C 	0.7257	0.8198	0.6218	-0.157
Mof_C 	C 	0.7709	0.8563	0.5921	-0.008
Mof_C 	C 	0.4834	0.2089	0.5145	-0.321
Mof_C 	C 	0.6915	0.5445	0.2061	0.05
Mof_C 	C 	0.1036	0.8251	0.8291	0.059
Mof_C 	C 	0.3249	0.5799	0.1909	1.057
Mof_C 	C 	0.7481	0.7081	0.9419	0.09
Mof_C 	C 	0.0241	0.0659	0.9179	-0.034
Mof_C 	C 	0.3517	0.5255	0.2791	0.254
Mof_C 	C 	0.3654	0.4716	0.3676	0.335
Mof_C 	C 	0.6957	0.8698	0.4868	-0.03
Mof_C 	C 	0.1793	0.3435	0.0857	0.218
Mof_C 	C 	0.3915	0.5857	0.8435	0.22
Mof_C 	C 	0.621	0.5868	0.8058	-0.489
Mof_C 	C 	0.8976	0.9548	0.404	0.122
Mof_C 	C 	0.9364	0.45	0.1336	0.054
Mof_C 	C 	0.9479	0.1526	0.5382	-1.394
Mof_C 	C 	0.432	0.072	0.988	0.023
Mof_C 	C 	0.3826	0.5371	0.2239	-0.494
Mof_C 	C 	0.945	0.9849	0.9371	-0.031
Mof_C 	C 	0.6455	0.8376	0.655	0.099
Mof_C 	C 	0.02	0.05	0.3664	0.127
Mof_C 	C 	0.676	0.5768	0.1168	-0.128
Mof_C 	C 	0.8391	0.1585	0.3921	0.036
Mof_C 	C 	0.8981	0.7919	0.5581	0.122
Mof_C 	C 	0.4882	0.2105	0.3491	-2.507
Mof_C 	C 	0.545	0.095	0.652	-0.157
Mof_C 	C 	0.6024	0.596	0.0452	0.134
Mof_C 	C 	0.9921	0.4179	0.5659	-0.14
Mof_C 	C 	0.3964	0.1709	0.1749	0.028
Mof_C 	C 	0.1174	0.7761	0.4629	-0.538
Mof_C 	C 	0.3627	0.8608	0.6516	-0.22
Mof_C 	C 	0.0814	0.0782	0.547	-1.42
Mof_C 	C 	0.1718	0.7652	0.6554	0.03
Mof_C 	C 	0.4416	0.8474	0.6152	0.13
Mof_C 	C 	0.9783	0.6384	0.753	0.869
Mof_C 	C 	0.724	0.4728	0.906	0.129
Mof_C 	C 	0.6909	0.2704	0.1578	-2.098
Mof_C 	C 	0.8796	0.3632	0.0116	-0.099
Mof_C 	C 	0.7954	0.8676	0.9716	0.338
Mof_C 	C 	0.9417	0.8042	0.3912	-0.57
Mof_C 	C 	0.9864	0.3058	0.0868	-0.687
Mof_C 	C 	0.6609	0.6079	0.8415	0.04
Mof_C 	C 	0.0157	0.7167	0.5383	0.274
Mof_C 	C 	0.5957	0.9201	0.3091	1.043
Mof_C 	C 	0.7743	0.3782	0.1802	-0.128
Mof_C 	C 	0.6436	0.9629	0.2761	-0.486
Mof_C 	C 	0.133	0.4371	0.4849	0.027
Mof_C 	C 	0.288	0.4097	0.2943	0.008
Mof_C 	C 	0.0584	0.3848	0.1526	0.114
Mof_C 	C 	0.6103	0.8921	0.6585	0.035
Mof_C 	C 	0.8008	0.8089	0.9879	-0.243
Mof_C 	C 	0.9522	0.8491	0.7105	-2.591
Mof_C 	C 	0.412	0.3022	0.4948	-0.311
Mof_C 	C 	0.8998	0.3128	0.997	0.05
Mof_C 	C 	0.6704	0.2371	0.4647	-0.508
Mof_C 	C 	0.5116	0.205	0.46	0.487
Mof_C 	C 	0.7096	0.1872	0.503	0.047
Mof_C 	C 	0.8993	0.3136	0.2074	-0.489
Mof_C 	C 	0.3574	0.9544	0.6252	-0.448
Mof_C 	C 	0.008	0.7943	0.9097	0.102
Mof_C 	C 	0.2066	0.4218	0.953	-1.373
Mof_C 	C 	0.6191	0.2296	0.3422	-2.101
Mof_C 	C 	0.4899	0.2498	0.423	-0.754
Mof_C 	C 	0.955	0.348	0.905	-0.149
Mof_C 	C 	0.1698	0.7556	0.6068	-0.125
Mof_C 	C 	0.2235	0.0202	0.6752	-1.368
Mof_C 	C 	0.4783	0.8875	0.5839	-0.241
Mof_C 	C 	0.0166	0.4855	0.7911	-0.125
Mof_C 	C 	0.1758	0.3133	0.1813	0.314
Mof_C 	C 	0.6627	0.2502	0.077	-0.754
Mof_C 	C 	0.1935	0.8467	0.4483	-1.501
Mof_C 	C 	0.8085	0.7939	0.4555	0.055
Mof_C 	C 	0.4497	0.6125	0.9161	-0.238
Mof_C 	C 	0.8697	0.8616	0.747	1.772
Mof_C 	C 	0.5478	0.2895	0.1509	-2.504
Mof_C 	C 	0.4759	0.0821	0.9341	-0.118
Mof_C 	C 	0.064	0.4175	0.5785	0.077
Mof_C 	C 	0.6278	0.9647	0.7371	-0.518
Mof_C 	C 	0.5797	0.7074	0.8136	-0.545
Mof_C 	C 	0.6538	0.5399	0.2685	-0.508
Mof_C 	C 	0.9203	0.1864	0.2926	-0.526
Mof_C 	C 	0.8437	0.7791	0.0255	0.272
Mof_C 	C 	0.8619	0.155	0.3376	0.088
Mof_C 	C 	0.6863	0.1949	0.5563	0.121
Mof_C 	C 	0.723	0.2425	0.9681	0.214
Mof_C 	C 	0.6028	0.0272	0.594	0.132
Mof_C 	C 	0.9884	0.54	0.795	0.248
Mof_C 	C 	0.3543	0.3512	0.5162	0.368
Mof_C 	C 	0.5152	0.4733	0.2281	-0.267
Mof_C 	C 	0.0924	0.7348	0.8446	0.055
Mof_C 	C 	0.212	0.7057	0.5903	0.017
Mof_C 	C 	0.7281	0.8147	0.4871	-0.12
Mof_C 	C 	0.9622	0.9601	0.2315	-0.53
Mof_C 	C 	0.4336	0.2575	0.5319	0.209
Mof_C 	C 	0.9565	0.2505	0.9265	-0.566
Mof_C 	C 	0.7436	0.904	0.4548	0.136
Mof_C 	C 	0.0355	0.8017	0.4891	0.436
Mof_C 	C 	0.6737	0.9891	0.3017	0.362
Mof_C 	C 	0.7358	0.9107	0.5955	0.113
Mof_C 	C 	0.0322	0.7444	0.8932	-0.178
Mof_C 	C 	0.1916	0.3685	0.9861	0.938
Mof_C 	C 	0.5579	0.7061	0.0445	0.059
Mof_C 	C 	0.7834	0.7281	0.9733	-0.273
Mof_C 	C 	0.0976	0.6911	0.5121	-0.289
Mof_C 	C 	0.4042	0.6526	0.8848	0.128
Mof_C 	C 	0.437	0.5456	0.8748	-0.443
Mof_C 	C 	0.7544	0.1368	0.4884	-0.1
Mof_C 	C 	0.5217	0.247	0.3616	1.705
Mof_C 	C 	0.7932	0.0145	0.7089	-0.329
Mof_C 	C 	0.0958	0.1152	0.3474	0.15
Mof_C 	C 	0.0101	0.577	0.7502	-0.354
Mof_C 	C 	0.068	0.012	0.928	-0.049
Mof_C 	C 	0.0664	0.4681	0.7425	0.054
Mof_C 	C 	0.3084	0.0139	0.6315	0.926
Mof_C 	C 	0.0062	0.6726	0.6984	-1.084
Mof_C 	C 	0.7456	0.5116	0.8632	-0.102
Mof_C 	C 	0.4538	0.4861	0.8685	0.919
Mof_C 	C 	0.7472	0.4195	0.8985	-0.007
Mof_C 	C 	0.8696	0.9232	0.3832	-0.117
Mof_C 	C 	0.0462	0.1315	0.5139	0.985
Mof_C 	C 	0.1085	0.1565	0.4143	0.245
Mof_C 	C 	0.7293	0.0383	0.2167	0.139
Mof_C 	C 	0.5652	0.0805	0.6015	-0.007
Mof_C 	C 	0.6555	0.9285	0.6287	-0.089
Mof_C 	C 	0.1426	0.3748	0.0456	-0.449
Mof_C 	C 	0.5435	0.0735	0.7495	-0.587
Mof_C 	C 	0.8548	0.6611	0.1253	-1.792
Mof_C 	C 	0.0118	0.6509	0.7895	-1.283
Mof_C 	C 	0.7291	0.4079	0.1437	-0.026
Mof_C 	C 	0.8137	0.4437	0.8051	0.112
Mof_C 	C 	0.777	0.0319	0.7575	0.222
Mof_C 	C 	0.8296	0.5353	0.7629	-0.52
Mof_C 	C 	0.4362	0.941	0.589	0.341
Mof_C 	C 	0.2438	0.3777	0.3347	-0.122
Mof_C 	C 	0.4843	0.4617	0.2833	0.145
Mof_C 	C 	0.6381	0.6624	0.845	0.099
Mof_C 	C 	0.792	0.405	0.848	-0.154
Mof_C 	C 	0.9885	0.6533	0.0517	-1.707
Mof_C 	C 	0.94	0.0785	0.9175	-0.013
Mof_C 	C 	0.9421	0.9555	0.2939	0.079
Mof_C 	C 	0.6992	0.0121	0.1911	-0.228
Mof_C 	C 	0.8772	0.8274	0.8016	-2.18
Mof_C 	C 	0.2562	0.6653	0.6223	-0.119
Mof_C 	C 	0.8462	0.7315	0.4601	-0.508
Mof_C 	C 	0.6002	0.003	0.6872	0.056
Mof_C 	C 	0.063	0.1252	0.4544	-0.475
Mof_C 	C 	0.4562	0.1223	0.1653	-0.122
Mof_C 	C 	0.709	0.1978	0.0052	-0.317
Mof_C 	C 	0.7193	0.6437	0.9079	-0.005
Mof_C 	C 	0.6563	0.9745	0.2209	0.244
Mof_C 	C 	0.7707	0.7833	0.9617	0.152
Mof_C 	C 	0.1457	0.4838	0.6488	0.315
Mof_C 	C 	0.8629	0.8912	0.3042	-0.569
Mof_C 	C 	0.992	0.428	0.512	-0.014
Mof_C 	C 	0.0217	0.4161	0.1125	-0.208
Mof_C 	C 	0.3296	0.6813	0.8133	0.315
Mof_C 	C 	0.8564	0.7239	0.0371	-0.532
Mof_C 	C 	0.758	0.0955	0.4107	0.116
Mof_C 	C 	0.5521	0.4618	0.8474	-1.311
Mof_C 	C 	0.8445	0.3713	0.0715	-0.117
Mof_C 	C 	0.1387	0.3474	0.9618	-1.341
Mof_C 	C 	0.6766	0.295	0.04	0.485
Mof_C 	C 	0.3302	0.3932	0.2444	-0.128
Mof_C 	C 	0.1373	0.3484	0.1392	-0.212
Mof_C 	C 	0.5636	0.8664	0.55	0.088
Mof_C 	C 	0.7783	0.0162	0.8512	0.377
Mof_C 	C 	0.6303	0.253	0.1384	1.703
Mof_C 	C 	0.6371	0.6958	0.1088	-0.589
Mof_C 	C 	0.4402	0.2983	0.4403	0.409
Mof_C 	C 	0.4189	0.4798	0.8248	-1.359
Mof_C 	C 	0.56	0.0825	0.9215	0.051
Mof_C 	C 	0.3207	0.9143	0.6565	0.222
Mof_C 	C 	0.9375	0.3051	0.9437	0.109
Mof_C 	C 	0.0638	0.411	0.059	0.329
Mof_C 	C 	0.6204	0.9884	0.6368	-0.107
Mof_C 	C 	0.7694	0.0591	0.6675	0.112
Mof_C 	C 	0.9848	0.7719	0.5267	-0.367
Mof_C 	C 	0.0598	0.5597	0.7017	0.162
Mof_C 	C 	0.8722	0.2629	0.0353	-0.509
Mof_C 	C 	0.8327	0.1218	0.3198	-0.151
Mof_C 	C 	0.791	0.9948	0.8022	-0.328
Mof_C 	C 	0.6435	0.5765	0.1719	0.119
Mof_C 	C 	0.0811	0.1752	0.5202	-1.424
Mof_C 	C 	0.6335	0.2495	0.5735	-0.587
Mof_C 	C 	0.4719	0.0621	0.0281	-0.107
Mof_C 	C 	0.5299	0.6853	0.0129	-0.128
Mof_C 	C 	0.8263	0.6983	0.0109	0.383
Mof_C 	C 	0.1249	0.1516	0.3608	-0.232
Mof_C 	C 	0.8972	0.406	0.9728	0.129
Mof_C 	C 	0.3751	0.6392	0.8484	-0.217
Mof_C 	C 	0.367	0.5151	0.5629	0.039
Mof_C 	C 	0.1412	0.8389	0.3747	-1.742
Mof_C 	C 	0.504	0.1675	0.5591	0.11
Mof_C 	C 	0.8897	0.3415	0.1079	0.092
Mof_C 	C 	0.0338	0.089	0.441	0.383
Mof_C 	C 	0.1483	0.7209	0.4745	0.305
Mof_C 	C 	0.879	0.1942	0.4132	-0.478
Mof_C 	C 	0.2578	0.6749	0.6709	0.04
Mof_C 	C 	0.4678	0.1068	0.2556	-0.128
Mof_C 	C 	0.742	0.5893	0.9045	0.12
Mof_C 	C 	0.7068	0.2911	0.9855	-0.32
Mof_C 	C 	0.0281	0.9719	0.9379	-0.017
Mof_C 	C 	0.7127	0.5715	0.8713	-0.089
Mof_C 	C 	0.8545	0.345	0.1624	0.054
Mof_C 	C 	0.5079	0.4341	0.5821	-0.116
Mof_C 	C 	0.708	0.152	0.595	-0.16
Mof_C 	C 	0.7217	0.1488	0.9838	0.373
Mof_C 	C 	0.3065	0.5517	0.1533	-1.459
Mof_C 	C 	0.8665	0.4265	0.7505	-0.568
Mof_C 	C 	0.7807	0.0921	0.3563	-0.013
Mof_C 	C 	0.4662	0.559	0.911	0.339
Mof_C 	C 	0.2654	0.7701	0.3935	-1.347
Mof_C 	C 	0.0503	0.0839	0.3875	-0.263
Mof_C 	C 	0.8809	0.6578	0.7704	-1.285
Mof_C 	C 	0.8212	0.9403	0.7983	0.428
Mof_C 	C 	0.6081	0.6719	0.0765	0.112
Mof_C 	C 	0.492	0.0903	0.2057	0.008
Mof_C 	C 	0.7046	0.0284	0.1324	0.333
Mof_C 	C 	0.3588	0.6253	0.1611	-1.683
Mof_C 	C 	0.3613	0.0382	0.6526	-1.319
Mof_C 	C 	0.2934	0.047	0.5782	-1.353
Mof_C 	C 	0.8234	0.96	0.705	0.496
Mof_C 	C 	0.7642	0.4045	0.0893	0.129
Mof_C 	C 	0.4938	0.3016	0.3274	-2.098
Mof_C 	C 	0.6228	0.1984	0.1726	-2.096
Mof_C 	C 	0.9348	0.3985	0.9195	-0.019
Mof_C 	C 	0.6304	0.6168	0.0768	-0.124
Mof_C 	C 	0.0621	0.4379	0.4719	-0.066
Mof_C 	C 	0.088	0.5052	0.6978	-0.161
Mof_C 	C 	0.4379	0.5281	0.5621	-0.102
Mof_C 	C 	0.2765	0.3248	0.9798	-1.376
Mof_C 	C 	0.7519	0.0581	0.2919	0.08
Mof_C 	C 	0.7306	0.3325	0.9409	0.11
Mof_C 	C 	0.9701	0.9871	0.3147	-0.184
Mof_C 	C 	0.555	0.0629	0.0151	0.039
Mof_C 	C 	0.5378	0.7685	0.0399	-0.518
Mof_C 	C 	0.5136	0.9132	0.6942	-0.486
Mof_C 	C 	0.8919	0.9235	0.3281	0.097
Mof_C 	C 	0.6788	0.2017	0.0597	0.411
Mof_C 	C 	0.6452	0.8747	0.3389	-1.665
Mof_C 	C 	0.776	0.094	0.5272	0.126
Mof_C 	C 	0.4645	0.5109	0.1983	0.369
Mof_C 	C 	0.5523	0.6302	0.0132	-0.029
Mof_C 	C 	0.3282	0.3446	0.2348	0.021
Mof_N 	N 	0.9528	0.4445	0.8821	-0.255
Mof_N 	N 	0.854	0.8406	0.5594	-0.284
Mof_N 	N 	0.7794	0.0555	0.6179	-0.282
Mof_N 	N 	0.754	0.6594	0.9406	-0.273
Mof_N 	N 	0.6111	0.8941	0.5179	-0.274
Mof_N 	N 	0.9014	0.0383	0.9269	-0.111
Mof_N 	N 	0.1279	0.7753	0.8125	-0.163
Mof_N 	N 	0.5472	0.1179	0.5555	-0.281
Mof_N 	N 	0.7206	0.3821	0.9445	-0.28
Mof_N 	N 	0.9769	0.0179	0.3941	-0.294
Mof_N 	N 	0.2843	0.3125	0.2753	-0.156
Mof_N 	N 	0.5986	0.0731	0.9617	-0.129
Mof_N 	N 	0.2157	0.7247	0.6875	-0.152
Mof_N 	N 	0.5231	0.6059	0.9821	-0.273
Mof_N 	N 	0.746	0.0594	0.3406	-0.273
Mof_N 	N 	0.8889	0.4821	0.1059	-0.271
Mof_N 	N 	0.3721	0.1875	0.2247	-0.156
Mof_N 	N 	0.1334	0.4269	0.5383	-0.13
Mof_N 	N 	0.646	0.4406	0.1594	-0.272
Mof_N 	N 	0.3666	0.4617	0.5731	-0.13
Mof_O 	O 	0.5663	0.0378	0.4538	-0.724
Mof_O 	O 	0.0103	0.855	0.478	-0.526
Mof_O 	O 	0.2487	0.2816	0.1678	-0.309
Mof_O 	O 	0.9918	0.0588	0.4816	-0.544
Mof_O 	O 	0.6578	0.3417	0.0567	-0.58
Mof_O 	O 	0.8433	0.645	0.022	-0.532
Mof_O 	O 	0.6269	0.0167	0.5431	-0.647
Mof_O 	O 	0.9438	0.5567	0.8417	-0.499
Mof_O 	O 	0.1373	0.319	0.2314	-0.271
Mof_O 	O 	0.7179	0.106	0.0166	-0.271
Mof_O 	O 	0.3123	0.7314	0.819	-0.275
Mof_O 	O 	0.9421	0.9538	0.5378	-0.734
Mof_O 	O 	0.825	0.8898	0.993	-0.266
Mof_O 	O 	0.6264	0.5427	0.0415	-0.658
Mof_O 	O 	0.5562	0.1583	0.4433	-0.58
Mof_O 	O 	0.7821	0.9834	0.894	-0.273
Mof_O 	O 	0.7111	0.0633	0.4451	-0.653
Mof_O 	O 	0.0322	0.4412	0.0184	-0.506
Mof_O 	O 	0.8731	0.4569	0.9833	-0.65
Mof_O 	O 	0.4172	0.4337	0.3907	-0.245
Mof_O 	O 	0.0828	0.6093	0.5663	-0.237
Mof_O 	O 	0.5579	0.4622	0.0462	-0.726
Mof_O 	O 	0.3019	0.6678	0.7816	-0.305
Mof_O 	O 	0.7343	0.1486	0.9348	-0.301
Mof_O 	O 	0.7416	0.0663	0.1093	-0.246
Mof_O 	O 	0.3627	0.7686	0.681	-0.276
Mof_O 	O 	0.7894	0.5415	0.0427	-0.66
Mof_O 	O 	0.9337	0.5462	0.9622	-0.727
Mof_O 	O 	0.1877	0.181	0.2686	-0.274
Mof_O 	O 	0.675	0.007	0.1102	-0.261
Mof_O 	O 	0.7657	0.0652	0.8514	-0.302
Mof_O 	O 	0.7106	0.9573	0.4585	-0.659
Mof_O 	O 	0.8133	0.0431	0.5167	-0.647
Mof_O 	O 	0.2078	0.6102	0.507	-0.267
Mof_O 	O 	0.7195	0.4367	0.0549	-0.657
Mof_O 	O 	0.8422	0.9433	0.6583	-0.587
Mof_O 	O 	0.2513	0.8322	0.7184	-0.309
Mof_O 	O 	0.2922	0.493	0.3898	-0.261
Mof_O 	O 	0.4678	0.9816	0.5588	-0.517
Mof_O 	O 	0.6567	0.978	0.355	-0.523
Mof_O 	O 	0.4897	0.522	0.145	-0.524
Mof_O 	O 	0.5082	0.5184	0.9412	-0.515
Mof_O 	O 	0.6867	0.4833	0.9569	-0.647
Mof_O 	O 	0.8736	0.9585	0.4573	-0.658
Mof_O 	O 	0.1981	0.2184	0.3322	-0.31
Mof_O 	O 	0.7805	0.9451	0.5633	-0.654
Mof_O 	O 	0.1595	0.5166	0.606	-0.251
Mof_O 	O 	0.3405	0.394	0.4834	-0.268
Mof_O 	O 	0.3177	0.3514	0.5652	-0.298
Mof_O 	O 	0.7889	0.5549	0.9367	-0.653
Mof_O 	O 	0.7584	0.8907	0.9337	-0.247
Mof_O 	O 	0.1823	0.4348	0.6486	-0.283
_end
