data_functionalizedCrystal
_audit_creation_method	'EQeq! by Chris Wilmer'
_symmetry_space_group_name_H-M	'P1'
_symmetry_Int_Tables_number	1
_symmetry_cell_setting	triclinic
loop_
_symmetry_equiv_pos_as_xyz
  x,y,z
_cell_length_a	11.7089
_cell_length_b	11.7089
_cell_length_c	14.7332
_cell_angle_alpha	109.164
_cell_angle_beta	109.164
_cell_angle_gamma	98.4153
loop_
_atom_site_label
_atom_site_type_symbol
_atom_site_fract_x
_atom_site_fract_y
_atom_site_fract_z
_atom_site_charge
Mof_Cd	Cd	0.78034	0.02408	0.7875	0.491
Mof_Cd	Cd	0.97592	0.21966	0.7125	0.491
Mof_Cd	Cd	0.21966	0.97592	0.2125	0.492
Mof_Cd	Cd	0.02408	0.78034	0.2875	0.492
Mof_H 	H 	0.8081	0.2579	0.8067	0.399
Mof_H 	H 	0.1209	0.0445	0.0193	0.054
Mof_H 	H 	0.1933	0.4141	0.0878	0.107
Mof_H 	H 	0.2951	0.2827	0.3121	0.091
Mof_H 	H 	0.909	0.5198	0.0917	0.059
Mof_H 	H 	0.9088	0.2136	0.1556	0.111
Mof_H 	H 	0.0454	0.5602	0.3841	0.095
Mof_H 	H 	0.7421	0.1919	0.6933	0.399
Mof_H 	H 	0.9555	0.8791	0.4807	0.054
Mof_H 	H 	0.5859	0.8067	0.4122	0.106
Mof_H 	H 	0.7173	0.7049	0.1879	0.091
Mof_H 	H 	0.4802	0.091	0.4083	0.059
Mof_H 	H 	0.7864	0.0912	0.3444	0.111
Mof_H 	H 	0.4398	0.9546	0.1159	0.095
Mof_H 	H 	0.1919	0.7421	0.1933	0.399
Mof_H 	H 	0.8791	0.9555	0.9807	0.054
Mof_H 	H 	0.8067	0.5859	0.9122	0.107
Mof_H 	H 	0.7049	0.7173	0.6879	0.091
Mof_H 	H 	0.091	0.4802	0.9083	0.059
Mof_H 	H 	0.0912	0.7864	0.8444	0.111
Mof_H 	H 	0.9546	0.4398	0.6159	0.095
Mof_H 	H 	0.2579	0.8081	0.3067	0.399
Mof_H 	H 	0.0445	0.1209	0.5193	0.054
Mof_H 	H 	0.4141	0.1933	0.5878	0.106
Mof_H 	H 	0.2827	0.2951	0.8121	0.091
Mof_H 	H 	0.5198	0.909	0.5917	0.059
Mof_H 	H 	0.2136	0.9088	0.6556	0.111
Mof_H 	H 	0.5602	0.0454	0.8841	0.095
Mof_C 	C 	0.1553	0.1273	0.0689	0.048
Mof_C 	C 	0.1462	0.2234	0.0346	-0.036
Mof_C 	C 	0.196	0.347	0.1082	-0.083
Mof_C 	C 	0.2501	0.3677	0.2132	0.137
Mof_C 	C 	0.2572	0.2672	0.2414	-0.034
Mof_C 	C 	0.0745	0.1893	0.9189	0.317
Mof_C 	C 	0.9272	0.4842	0.1407	0.039
Mof_C 	C 	0.8967	0.3539	0.1049	-0.033
Mof_C 	C 	0.9258	0.3006	0.1769	-0.088
Mof_C 	C 	0.9811	0.3803	0.2813	0.14
Mof_C 	C 	0.008	0.5086	0.3128	-0.033
Mof_C 	C 	0.8372	0.2772	0.9879	0.31
Mof_C 	C 	0.8727	0.8447	0.4311	0.049
Mof_C 	C 	0.7766	0.8538	0.4654	-0.036
Mof_C 	C 	0.653	0.804	0.3918	-0.082
Mof_C 	C 	0.6323	0.7499	0.2868	0.136
Mof_C 	C 	0.7328	0.7428	0.2586	-0.034
Mof_C 	C 	0.8107	0.9255	0.5811	0.318
Mof_C 	C 	0.5158	0.0728	0.3593	0.038
Mof_C 	C 	0.6461	0.1033	0.3951	-0.031
Mof_C 	C 	0.6994	0.0742	0.3231	-0.089
Mof_C 	C 	0.6197	0.0189	0.2187	0.14
Mof_C 	C 	0.4914	0.992	0.1872	-0.032
Mof_C 	C 	0.7228	0.1628	0.5121	0.309
Mof_C 	C 	0.8447	0.8727	0.9311	0.048
Mof_C 	C 	0.8538	0.7766	0.9654	-0.036
Mof_C 	C 	0.804	0.653	0.8918	-0.083
Mof_C 	C 	0.7499	0.6323	0.7868	0.137
Mof_C 	C 	0.7428	0.7328	0.7586	-0.034
Mof_C 	C 	0.9255	0.8107	0.0811	0.317
Mof_C 	C 	0.0728	0.5158	0.8593	0.039
Mof_C 	C 	0.1033	0.6461	0.8951	-0.033
Mof_C 	C 	0.0742	0.6994	0.8231	-0.088
Mof_C 	C 	0.0189	0.6197	0.7187	0.14
Mof_C 	C 	0.992	0.4914	0.6872	-0.033
Mof_C 	C 	0.1628	0.7228	0.0121	0.31
Mof_C 	C 	0.1273	0.1553	0.5689	0.049
Mof_C 	C 	0.2234	0.1462	0.5346	-0.036
Mof_C 	C 	0.347	0.196	0.6082	-0.082
Mof_C 	C 	0.3677	0.2501	0.7132	0.136
Mof_C 	C 	0.2672	0.2572	0.7414	-0.034
Mof_C 	C 	0.1893	0.0745	0.4189	0.318
Mof_C 	C 	0.4842	0.9272	0.6407	0.038
Mof_C 	C 	0.3539	0.8967	0.6049	-0.031
Mof_C 	C 	0.3006	0.9258	0.6769	-0.089
Mof_C 	C 	0.3803	0.9811	0.7813	0.14
Mof_C 	C 	0.5086	0.008	0.8128	-0.032
Mof_C 	C 	0.2772	0.8372	0.4879	0.309
Mof_Br	Br	0.31205	0.53263	0.31857	-0.211
Mof_Br	Br	0.02388	0.31354	0.38533	-0.219
Mof_Br	Br	0.46737	0.68795	0.18143	-0.211
Mof_Br	Br	0.68646	0.97612	0.11467	-0.219
Mof_Br	Br	0.68795	0.46737	0.68143	-0.211
Mof_Br	Br	0.97612	0.68646	0.61467	-0.219
Mof_Br	Br	0.53263	0.31205	0.81857	-0.211
Mof_Br	Br	0.31354	0.02388	0.88533	-0.219
Mof_N 	N 	0.2112	0.1476	0.1701	-0.112
Mof_N 	N 	0.9816	0.561	0.2427	-0.109
Mof_N 	N 	0.8524	0.7888	0.3299	-0.112
Mof_N 	N 	0.439	0.0184	0.2573	-0.109
Mof_N 	N 	0.7888	0.8524	0.8299	-0.112
Mof_N 	N 	0.0184	0.439	0.7573	-0.109
Mof_N 	N 	0.1476	0.2112	0.6701	-0.112
Mof_N 	N 	0.561	0.9816	0.7427	-0.109
Mof_O 	O 	0.99771	0.08209	0.8671	-0.259
Mof_O 	O 	0.09772	0.27068	0.8846	-0.27
Mof_O 	O 	0.8199	0.3385	0.9316	-0.267
Mof_O 	O 	0.81145	0.15935	0.9566	-0.264
Mof_O 	O 	0.91791	0.00229	0.6329	-0.26
Mof_O 	O 	0.72932	0.90228	0.6154	-0.27
Mof_O 	O 	0.6615	0.1801	0.5684	-0.267
Mof_O 	O 	0.84065	0.18855	0.5434	-0.264
Mof_O 	O 	0.00229	0.91791	0.1329	-0.259
Mof_O 	O 	0.90228	0.72932	0.1154	-0.27
Mof_O 	O 	0.1801	0.6615	0.0684	-0.267
Mof_O 	O 	0.18855	0.84065	0.0434	-0.264
Mof_O 	O 	0.08209	0.99771	0.3671	-0.26
Mof_O 	O 	0.27068	0.09772	0.3846	-0.27
Mof_O 	O 	0.3385	0.8199	0.4316	-0.267
Mof_O 	O 	0.15935	0.81145	0.4566	-0.264
Mof_O 	O 	0.8	0.2	0.75	-0.761
Mof_O 	O 	0.2	0.8	0.25	-0.761
_end
