data_functionalizedCrystal
_audit_creation_method	'EQeq! by Chris Wilmer'
_symmetry_space_group_name_H-M	'P1'
_symmetry_Int_Tables_number	1
_symmetry_cell_setting	triclinic
loop_
_symmetry_equiv_pos_as_xyz
  x,y,z
_cell_length_a	13.0771
_cell_length_b	26.5999
_cell_length_c	13.1458
_cell_angle_alpha	90
_cell_angle_beta	116.363
_cell_angle_gamma	90
loop_
_atom_site_label
_atom_site_type_symbol
_atom_site_fract_x
_atom_site_fract_y
_atom_site_fract_z
_atom_site_charge
Mof_Tb	Tb	0.82028	0.0052	0.91942	2.242
Mof_O 	O 	0.8803	0.0668	0.0635	-0.566
Mof_O 	O 	0.6894	0.0526	0.7806	-0.635
Mof_O 	O 	0.0622	0.0462	0.1226	-0.599
Mof_O 	O 	0.1101	0.4524	0.4273	-0.584
Mof_O 	O 	0.9248	0.4351	0.3715	-0.551
Mof_O 	O 	0.306	0.4382	0.6679	-0.59
Mof_C 	C 	0.9827	0.0765	0.1147	0.525
Mof_C 	C 	0.6215	0.0808	0.7036	0.611
Mof_C 	C 	0.017	0.1278	0.1684	-0.237
Mof_C 	C 	0.6031	0.1329	0.7363	-0.287
Mof_O 	O 	0.5693	0.0683	0.6034	-0.594
Mof_C 	C 	0.1196	0.1486	0.1814	0.126
Mof_C 	C 	0.9427	0.155	0.1963	0.165
Mof_C 	C 	0.521	0.1637	0.6558	0.2
Mof_C 	C 	0.6676	0.1506	0.8471	0.154
Mof_Tb	Tb	0.4524	0.00685	0.5036	1.081
Mof_H 	H 	0.1687	0.1298	0.1626	-0.015
Mof_C 	C 	0.1491	0.197	0.2223	-0.189
Mof_H 	H 	0.8737	0.1411	0.1868	-0.033
Mof_C 	C 	0.9727	0.2031	0.2386	-0.259
Mof_H 	H 	0.4778	0.152	0.5822	-0.032
Mof_C 	C 	0.5038	0.2117	0.6856	-0.295
Mof_H 	H 	0.7222	0.1298	0.9007	-0.039
Mof_C 	C 	0.6515	0.1981	0.8778	-0.214
Mof_O 	O 	0.317	0.0741	0.5	-0.24
Mof_O 	O 	0.387	0.0313	0.647	-0.249
Mof_O 	O 	0.4257	0.4553	0.8462	-0.608
Mof_H 	H 	0.2179	0.211	0.2315	0.072
Mof_C 	C 	0.0738	0.2246	0.2494	0.08
Mof_C 	C 	0.9082	0.24	0.2783	0.585
Mof_C 	C 	0.5696	0.2293	0.7961	0.085
Mof_C 	C 	0.4182	0.2513	0.6124	0.671
Mof_H 	H 	0.6943	0.2095	0.9517	0.067
Mof_N 	N 	0.314	0.0614	0.592	0.067
Mof_C 	C 	0.0786	0.2772	0.2838	0.064
Mof_C 	C 	0.9071	0.2209	0.389	-1.041
Mof_C 	C 	0.7869	0.2494	0.1882	-1.161
Mof_C 	C 	0.9824	0.2866	0.3024	-0.25
Mof_C 	C 	0.5359	0.2806	0.8018	0.081
Mof_C 	C 	0.2963	0.2332	0.5697	-1.306
Mof_C 	C 	0.4405	0.2663	0.5115	-1.143
Mof_C 	C 	0.4458	0.2944	0.6981	-0.293
Mof_O 	O 	0.269	0.0871	0.637	-0.149
Mof_C 	C 	0.1562	0.3152	0.2999	-0.173
Mof_H 	H 	0.8765	0.246	0.4196	0.334
Mof_H 	H 	0.9861	0.214	0.4415	0.325
Mof_H 	H 	0.8618	0.1911	0.3754	0.332
Mof_H 	H 	0.7528	0.2754	0.2129	0.377
Mof_H 	H 	0.7427	0.2193	0.1769	0.359
Mof_H 	H 	0.787	0.259	0.1187	0.37
Mof_C 	C 	0.9628	0.334	0.3341	0.144
Mof_C 	C 	0.5769	0.3152	0.8931	-0.208
Mof_H 	H 	0.2848	0.222	0.6325	0.423
Mof_H 	H 	0.2816	0.2062	0.5176	0.429
Mof_H 	H 	0.244	0.2601	0.5326	0.413
Mof_H 	H 	0.3934	0.2947	0.4745	0.364
Mof_H 	H 	0.4204	0.239	0.4594	0.372
Mof_H 	H 	0.5208	0.2746	0.5375	0.348
Mof_C 	C 	0.397	0.3412	0.6832	0.191
Mof_H 	H 	0.2198	0.3091	0.2874	0.062
Mof_C 	C 	0.1394	0.3624	0.3347	0.106
Mof_H 	H 	0.8978	0.3405	0.3439	-0.026
Mof_C 	C 	0.0433	0.3718	0.351	-0.22
Mof_H 	H 	0.6362	0.3063	0.9627	0.071
Mof_C 	C 	0.5286	0.3616	0.8779	0.15
Mof_H 	H 	0.3372	0.3502	0.614	-0.044
Mof_C 	C 	0.4384	0.3752	0.7734	-0.273
Mof_H 	H 	0.1925	0.3878	0.347	-0.002
Mof_C 	C 	0.0245	0.4237	0.3861	0.512
Mof_H 	H 	0.5557	0.3846	0.9374	-0.029
Mof_C 	C 	0.3836	0.4263	0.7597	0.576
Mof_Tb	Tb	0.17972	0.5052	0.58058	2.246
Mof_O 	O 	0.1197	0.5668	0.4365	-0.569
Mof_O 	O 	0.3106	0.5526	0.7194	-0.637
Mof_O 	O 	0.9378	0.5462	0.3774	-0.601
Mof_O 	O 	0.8899	0.9524	0.0727	-0.585
Mof_O 	O 	0.0752	0.9351	0.1285	-0.556
Mof_O 	O 	0.694	0.9382	0.8321	-0.586
Mof_C 	C 	0.0173	0.5765	0.3853	0.524
Mof_C 	C 	0.3785	0.5808	0.7964	0.607
Mof_C 	C 	0.983	0.6278	0.3316	-0.234
Mof_C 	C 	0.3969	0.6329	0.7637	-0.282
Mof_O 	O 	0.4307	0.5683	0.8966	-0.586
Mof_C 	C 	0.8804	0.6486	0.3186	0.126
Mof_C 	C 	0.0573	0.655	0.3037	0.162
Mof_C 	C 	0.479	0.6637	0.8442	0.194
Mof_C 	C 	0.3324	0.6506	0.6529	0.151
Mof_Tb	Tb	0.5476	0.50685	0.9964	0.789
Mof_H 	H 	0.8313	0.6298	0.3374	-0.014
Mof_C 	C 	0.8509	0.697	0.2777	-0.189
Mof_H 	H 	0.1263	0.6411	0.3132	-0.033
Mof_C 	C 	0.0273	0.7031	0.2614	-0.26
Mof_H 	H 	0.5222	0.652	0.9178	-0.028
Mof_C 	C 	0.4962	0.7117	0.8144	-0.288
Mof_H 	H 	0.2778	0.6298	0.5993	-0.037
Mof_C 	C 	0.3485	0.6981	0.6222	-0.211
Mof_O 	O 	0.683	0.5741	-0	-0.218
Mof_O 	O 	0.613	0.5313	0.853	-0.225
Mof_O 	O 	0.5743	0.9553	0.6538	-0.598
Mof_H 	H 	0.7821	0.711	0.2685	0.072
Mof_C 	C 	0.9262	0.7246	0.2506	0.081
Mof_C 	C 	0.0918	0.74	0.2217	0.582
Mof_C 	C 	0.4304	0.7293	0.7039	0.082
Mof_C 	C 	0.5818	0.7513	0.8876	0.656
Mof_H 	H 	0.3057	0.7095	0.5483	0.067
Mof_N 	N 	0.686	0.5614	0.908	0.064
Mof_C 	C 	0.9214	0.7772	0.2162	0.065
Mof_C 	C 	0.0929	0.7209	0.111	-1.035
Mof_C 	C 	0.2131	0.7494	0.3118	-1.156
Mof_C 	C 	0.0176	0.7866	0.1976	-0.25
Mof_C 	C 	0.4641	0.7806	0.6982	0.08
Mof_C 	C 	0.7037	0.7332	0.9303	-1.292
Mof_C 	C 	0.5595	0.7663	0.9885	-1.103
Mof_C 	C 	0.5542	0.7944	0.8019	-0.287
Mof_O 	O 	0.731	0.5871	0.863	-0.148
Mof_C 	C 	0.8438	0.8152	0.2001	-0.173
Mof_H 	H 	0.1235	0.746	0.0804	0.332
Mof_H 	H 	0.0139	0.714	0.0585	0.322
Mof_H 	H 	0.1382	0.6911	0.1246	0.33
Mof_H 	H 	0.2472	0.7754	0.2871	0.375
Mof_H 	H 	0.2573	0.7193	0.3231	0.357
Mof_H 	H 	0.213	0.759	0.3813	0.367
Mof_C 	C 	0.0372	0.834	0.1659	0.14
Mof_C 	C 	0.4231	0.8152	0.6069	-0.208
Mof_H 	H 	0.7152	0.722	0.8675	0.419
Mof_H 	H 	0.7184	0.7062	0.9824	0.426
Mof_H 	H 	0.756	0.7601	0.9674	0.41
Mof_H 	H 	0.6066	0.7947	0.0255	0.35
Mof_H 	H 	0.5796	0.739	0.0406	0.359
Mof_H 	H 	0.4792	0.7746	0.9625	0.338
Mof_C 	C 	0.603	0.8412	0.8168	0.188
Mof_H 	H 	0.7802	0.8091	0.2126	0.062
Mof_C 	C 	0.8606	0.8624	0.1653	0.105
Mof_H 	H 	0.1022	0.8405	0.1561	-0.026
Mof_C 	C 	0.9567	0.8718	0.149	-0.217
Mof_H 	H 	0.3638	0.8063	0.5373	0.071
Mof_C 	C 	0.4714	0.8616	0.6221	0.15
Mof_H 	H 	0.6628	0.8502	0.886	-0.042
Mof_C 	C 	0.5616	0.8752	0.7266	-0.271
Mof_H 	H 	0.8075	0.8878	0.153	-0.002
Mof_C 	C 	0.9755	0.9237	0.1139	0.515
Mof_H 	H 	0.4443	0.8846	0.5626	-0.032
Mof_C 	C 	0.6164	0.9263	0.7403	0.571
Mof_Tb	Tb	0.17972	0.9948	0.08058	2.237
Mof_O 	O 	0.1197	0.9332	0.9365	-0.565
Mof_O 	O 	0.3106	0.9474	0.2194	-0.635
Mof_O 	O 	0.9378	0.9538	0.8774	-0.6
Mof_O 	O 	0.8899	0.5476	0.5727	-0.586
Mof_O 	O 	0.0752	0.5649	0.6285	-0.555
Mof_O 	O 	0.694	0.5618	0.3321	-0.587
Mof_C 	C 	0.0173	0.9235	0.8853	0.525
Mof_C 	C 	0.3785	0.9192	0.2964	0.611
Mof_C 	C 	0.983	0.8722	0.8316	-0.236
Mof_C 	C 	0.3969	0.8671	0.2637	-0.286
Mof_O 	O 	0.4307	0.9317	0.3966	-0.594
Mof_C 	C 	0.8804	0.8514	0.8186	0.126
Mof_C 	C 	0.0573	0.845	0.8037	0.164
Mof_C 	C 	0.479	0.8363	0.3442	0.2
Mof_C 	C 	0.3324	0.8494	0.1529	0.154
Mof_Tb	Tb	0.5476	0.99315	0.4964	1.086
Mof_H 	H 	0.8313	0.8702	0.8374	-0.014
Mof_C 	C 	0.8509	0.803	0.7777	-0.188
Mof_H 	H 	0.1263	0.8589	0.8132	-0.033
Mof_C 	C 	0.0273	0.7969	0.7614	-0.259
Mof_H 	H 	0.5222	0.848	0.4178	-0.032
Mof_C 	C 	0.4962	0.7883	0.3144	-0.295
Mof_H 	H 	0.2778	0.8702	0.0993	-0.039
Mof_C 	C 	0.3485	0.8019	0.1222	-0.213
Mof_O 	O 	0.683	0.9259	0.5	-0.24
Mof_O 	O 	0.613	0.9687	0.353	-0.25
Mof_O 	O 	0.5743	0.5447	0.1538	-0.589
Mof_H 	H 	0.7821	0.789	0.7685	0.072
Mof_C 	C 	0.9262	0.7754	0.7506	0.08
Mof_C 	C 	0.0918	0.76	0.7217	0.585
Mof_C 	C 	0.4304	0.7707	0.2039	0.084
Mof_C 	C 	0.5818	0.7487	0.3876	0.671
Mof_H 	H 	0.3057	0.7905	0.0483	0.067
Mof_N 	N 	0.686	0.9386	0.408	0.067
Mof_C 	C 	0.9214	0.7228	0.7162	0.064
Mof_C 	C 	0.0929	0.7791	0.611	-1.041
Mof_C 	C 	0.2131	0.7506	0.8118	-1.162
Mof_C 	C 	0.0176	0.7134	0.6976	-0.25
Mof_C 	C 	0.4641	0.7194	0.1982	0.082
Mof_C 	C 	0.7037	0.7668	0.4303	-1.307
Mof_C 	C 	0.5595	0.7337	0.4885	-1.143
Mof_C 	C 	0.5542	0.7056	0.3019	-0.293
Mof_O 	O 	0.731	0.9129	0.363	-0.149
Mof_C 	C 	0.8438	0.6848	0.7001	-0.173
Mof_H 	H 	0.1235	0.754	0.5804	0.335
Mof_H 	H 	0.0139	0.786	0.5585	0.325
Mof_H 	H 	0.1382	0.8089	0.6246	0.332
Mof_H 	H 	0.2472	0.7246	0.7871	0.377
Mof_H 	H 	0.2573	0.7807	0.8231	0.36
Mof_H 	H 	0.213	0.741	0.8813	0.37
Mof_C 	C 	0.0372	0.666	0.6659	0.144
Mof_C 	C 	0.4231	0.6848	0.1069	-0.21
Mof_H 	H 	0.7152	0.778	0.3675	0.423
Mof_H 	H 	0.7184	0.7938	0.4824	0.429
Mof_H 	H 	0.756	0.7399	0.4674	0.413
Mof_H 	H 	0.6066	0.7053	0.5255	0.364
Mof_H 	H 	0.5796	0.761	0.5406	0.372
Mof_H 	H 	0.4792	0.7254	0.4625	0.348
Mof_C 	C 	0.603	0.6588	0.3168	0.192
Mof_H 	H 	0.7802	0.6909	0.7126	0.062
Mof_C 	C 	0.8606	0.6376	0.6653	0.106
Mof_H 	H 	0.1022	0.6595	0.6561	-0.027
Mof_C 	C 	0.9567	0.6282	0.649	-0.221
Mof_H 	H 	0.3638	0.6937	0.0373	0.07
Mof_C 	C 	0.4714	0.6384	0.1221	0.152
Mof_H 	H 	0.6628	0.6498	0.386	-0.044
Mof_C 	C 	0.5616	0.6248	0.2266	-0.274
Mof_H 	H 	0.8075	0.6122	0.653	-0.003
Mof_C 	C 	0.9755	0.5763	0.6139	0.512
Mof_H 	H 	0.4443	0.6154	0.0626	-0.037
Mof_C 	C 	0.6164	0.5737	0.2403	0.569
Mof_Tb	Tb	0.82028	0.4948	0.41942	2.25
Mof_O 	O 	0.8803	0.4332	0.5635	-0.57
Mof_O 	O 	0.6894	0.4474	0.2806	-0.635
Mof_O 	O 	0.0622	0.4538	0.6226	-0.604
Mof_O 	O 	0.1101	0.0476	0.9273	-0.584
Mof_O 	O 	0.9248	0.0649	0.8715	-0.556
Mof_O 	O 	0.306	0.0618	0.1679	-0.586
Mof_C 	C 	0.9827	0.4235	0.6147	0.525
Mof_C 	C 	0.6215	0.4192	0.2036	0.615
Mof_C 	C 	0.017	0.3722	0.6684	-0.237
Mof_C 	C 	0.6031	0.3671	0.2363	-0.288
Mof_O 	O 	0.5693	0.4317	0.1034	-0.601
Mof_C 	C 	0.1196	0.3514	0.6814	0.126
Mof_C 	C 	0.9427	0.345	0.6963	0.164
Mof_C 	C 	0.521	0.3363	0.1558	0.202
Mof_C 	C 	0.6676	0.3494	0.3471	0.156
Mof_Tb	Tb	0.4524	0.49315	0.0036	1.377
Mof_H 	H 	0.1687	0.3702	0.6626	-0.015
Mof_C 	C 	0.1491	0.303	0.7223	-0.19
Mof_H 	H 	0.8737	0.3589	0.6868	-0.033
Mof_C 	C 	0.9727	0.2969	0.7386	-0.261
Mof_H 	H 	0.4778	0.348	0.0822	-0.033
Mof_C 	C 	0.5038	0.2883	0.1856	-0.295
Mof_H 	H 	0.7222	0.3702	0.4007	-0.039
Mof_C 	C 	0.6515	0.3019	0.3778	-0.215
Mof_O 	O 	0.317	0.4259	-0	-0.264
Mof_O 	O 	0.387	0.4687	0.147	-0.275
Mof_O 	O 	0.4257	0.0447	0.3462	-0.598
Mof_H 	H 	0.2179	0.289	0.7315	0.072
Mof_C 	C 	0.0738	0.2754	0.7494	0.082
Mof_C 	C 	0.9082	0.26	0.7783	0.584
Mof_C 	C 	0.5696	0.2707	0.2961	0.085
Mof_C 	C 	0.4182	0.2487	0.1124	0.666
Mof_H 	H 	0.6943	0.2905	0.4517	0.068
Mof_N 	N 	0.314	0.4386	0.092	0.071
Mof_C 	C 	0.0786	0.2228	0.7838	0.065
Mof_C 	C 	0.9071	0.2791	0.889	-1.04
Mof_C 	C 	0.7869	0.2506	0.6882	-1.159
Mof_C 	C 	0.9824	0.2134	0.8024	-0.251
Mof_C 	C 	0.5359	0.2194	0.3018	0.081
Mof_C 	C 	0.2963	0.2668	0.0697	-1.302
Mof_C 	C 	0.4405	0.2337	0.0115	-1.13
Mof_C 	C 	0.4458	0.2056	0.1981	-0.291
Mof_O 	O 	0.269	0.4129	0.137	-0.15
Mof_C 	C 	0.1562	0.1848	0.7999	-0.172
Mof_H 	H 	0.8765	0.254	0.9196	0.334
Mof_H 	H 	0.9861	0.286	0.9415	0.325
Mof_H 	H 	0.8618	0.3089	0.8754	0.332
Mof_H 	H 	0.7528	0.2246	0.7129	0.376
Mof_H 	H 	0.7427	0.2807	0.6769	0.358
Mof_H 	H 	0.787	0.241	0.6187	0.368
Mof_C 	C 	0.9628	0.166	0.8341	0.14
Mof_C 	C 	0.5769	0.1848	0.3931	-0.208
Mof_H 	H 	0.2848	0.278	0.1325	0.422
Mof_H 	H 	0.2816	0.2938	0.0176	0.428
Mof_H 	H 	0.244	0.2399	0.0326	0.412
Mof_H 	H 	0.3934	0.2053	0.9745	0.36
Mof_H 	H 	0.4204	0.261	0.9594	0.368
Mof_H 	H 	0.5208	0.2254	0.0375	0.345
Mof_C 	C 	0.397	0.1588	0.1832	0.19
Mof_H 	H 	0.2198	0.1909	0.7874	0.062
Mof_C 	C 	0.1394	0.1376	0.8347	0.105
Mof_H 	H 	0.8978	0.1595	0.8439	-0.026
Mof_C 	C 	0.0433	0.1282	0.851	-0.217
Mof_H 	H 	0.6362	0.1937	0.4627	0.071
Mof_C 	C 	0.5286	0.1384	0.3779	0.15
Mof_H 	H 	0.3372	0.1498	0.114	-0.043
Mof_C 	C 	0.4384	0.1248	0.2734	-0.273
Mof_H 	H 	0.1925	0.1122	0.847	-0.002
Mof_C 	C 	0.0245	0.0763	0.8861	0.514
Mof_H 	H 	0.5557	0.1154	0.4374	-0.033
Mof_C 	C 	0.3836	0.0737	0.2597	0.571
_end
