data_functionalizedCrystal
_audit_creation_method	'EQeq! by Chris Wilmer'
_symmetry_space_group_name_H-M	'P1'
_symmetry_Int_Tables_number	1
_symmetry_cell_setting	triclinic
loop_
_symmetry_equiv_pos_as_xyz
  x,y,z
_cell_length_a	26.982
_cell_length_b	21.882
_cell_length_c	13.8219
_cell_angle_alpha	90
_cell_angle_beta	90
_cell_angle_gamma	90
loop_
_atom_site_label
_atom_site_type_symbol
_atom_site_fract_x
_atom_site_fract_y
_atom_site_fract_z
_atom_site_charge
Mof_Co	Co	0.11772	0.68528	0.96662	1.183
Mof_Si	Si	0.1316	0.44566	0.46551	1.128
Mof_O 	O 	0.1071	0.6493	0.0982	-0.351
Mof_C 	C 	0.1419	0.6068	0.0982	0.154
Mof_O 	O 	0.31703	0.27698	0.6593	-0.416
Mof_C 	C 	0.3074	0.2776	0.571	0.289
Mof_C 	C 	0.266	0.3181	0.5404	0.113
Mof_C 	C 	0.2366	0.3453	0.6093	-0.27
Mof_H 	H 	0.243	0.3377	0.6743	0.138
Mof_C 	C 	0.2548	0.3316	0.4498	-0.264
Mof_H 	H 	0.2726	0.3133	0.4001	0.136
Mof_O 	O 	0.94346	0.2358	0.4673	-0.428
Mof_C 	C 	0.9525	0.2752	0.4054	0.327
Mof_C 	C 	0.9965	0.3162	0.4205	0.102
Mof_C 	C 	0.0268	0.3103	0.4956	-0.279
Mof_H 	H 	0.0216	0.2791	0.5402	0.142
Mof_C 	C 	0.012	0.3543	0.3496	-0.238
Mof_H 	H 	0.9961	0.3534	0.2899	0.128
Mof_C 	C 	0.1386	0.494	0.3561	-0.658
Mof_O 	O 	0.13043	0.66064	0.8263	-0.497
Mof_C 	C 	0.07813	0.3927	0.448	-0.516
Mof_C 	C 	0.1194	0.4966	0.5713	-0.435
Mof_C 	C 	0.18728	0.3975	0.4938	-0.496
Mof_C 	C 	0.1072	0.5754	0.7335	0.062
Mof_O 	O 	0.07163	0.6015	0.8831	-0.318
Mof_C 	C 	0.1465	0.5817	0.675	-0.2
Mof_H 	H 	0.1702	0.6115	0.6875	0.116
Mof_C 	C 	0.1515	0.5425	0.5941	0.224
Mof_H 	H 	0.1786	0.5485	0.5536	-0.057
Mof_C 	C 	0.102	0.6145	0.8198	0.284
Mof_C 	C 	0.1985	0.3832	0.585	0.304
Mof_H 	H 	0.1794	0.3999	0.6343	-0.085
Mof_C 	C 	0.0515	0.395	0.364	0.272
Mof_H 	H 	0.0595	0.4235	0.3165	-0.072
Mof_C 	C 	0.0663	0.3506	0.5079	0.344
Mof_H 	H 	0.0854	0.3466	0.5636	-0.1
Mof_C 	C 	0.0794	0.4915	0.6332	0.227
Mof_H 	H 	0.0557	0.4617	0.6209	-0.058
Mof_C 	C 	0.0734	0.529	0.7125	-0.201
Mof_H 	H 	0.0463	0.5232	0.7529	0.114
Mof_C 	C 	0.2172	0.3723	0.4266	0.29
Mof_H 	H 	0.2123	0.3826	0.3619	-0.075
Mof_O 	O 	0.32968	0.2462	0.5053	-0.412
Mof_O 	O 	0.92659	0.28518	0.3326	-0.436
Mof_C 	C 	0.1425	0.5672	0.1905	0.34
Mof_O 	O 	0.1718	0.5983	0.0349	-0.276
Mof_C 	C 	0.1045	0.5717	0.2497	-0.452
Mof_H 	H 	0.0784	0.5978	0.2353	0.207
Mof_C 	C 	0.1039	0.5364	0.3353	0.435
Mof_H 	H 	0.0784	0.5427	0.3794	-0.13
Mof_C 	C 	0.1766	0.528	0.2089	-0.538
Mof_H 	H 	0.2038	0.5239	0.1681	0.227
Mof_C 	C 	0.172	0.4926	0.2896	0.547
Mof_H 	H 	0.1966	0.4632	0.2979	-0.162
Mof_Co	Co	0.38228	0.31472	0.96662	1.182
Mof_Si	Si	0.3684	0.55434	0.46551	1.129
Mof_O 	O 	0.3929	0.3507	0.0982	-0.352
Mof_C 	C 	0.3581	0.3932	0.0982	0.153
Mof_O 	O 	0.18297	0.72302	0.6593	-0.417
Mof_C 	C 	0.1926	0.7224	0.571	0.288
Mof_C 	C 	0.234	0.6819	0.5404	0.112
Mof_C 	C 	0.2634	0.6547	0.6093	-0.272
Mof_H 	H 	0.257	0.6623	0.6743	0.138
Mof_C 	C 	0.2452	0.6684	0.4498	-0.264
Mof_H 	H 	0.2274	0.6867	0.4001	0.136
Mof_O 	O 	0.55654	0.7642	0.4673	-0.428
Mof_C 	C 	0.5475	0.7248	0.4054	0.326
Mof_C 	C 	0.5035	0.6838	0.4205	0.106
Mof_C 	C 	0.4732	0.6897	0.4956	-0.283
Mof_H 	H 	0.4784	0.7209	0.5402	0.144
Mof_C 	C 	0.488	0.6457	0.3496	-0.243
Mof_H 	H 	0.5039	0.6466	0.2899	0.131
Mof_C 	C 	0.3614	0.506	0.3561	-0.659
Mof_O 	O 	0.36957	0.33936	0.8263	-0.497
Mof_C 	C 	0.42187	0.6073	0.448	-0.519
Mof_C 	C 	0.3806	0.5034	0.5713	-0.436
Mof_C 	C 	0.31272	0.6025	0.4938	-0.497
Mof_C 	C 	0.3928	0.4246	0.7335	0.062
Mof_O 	O 	0.42837	0.3985	0.8831	-0.318
Mof_C 	C 	0.3535	0.4183	0.675	-0.201
Mof_H 	H 	0.3298	0.3885	0.6875	0.116
Mof_C 	C 	0.3485	0.4575	0.5941	0.224
Mof_H 	H 	0.3214	0.4515	0.5536	-0.058
Mof_C 	C 	0.398	0.3855	0.8198	0.284
Mof_C 	C 	0.3015	0.6168	0.585	0.305
Mof_H 	H 	0.3206	0.6001	0.6343	-0.085
Mof_C 	C 	0.4485	0.605	0.364	0.276
Mof_H 	H 	0.4405	0.5765	0.3165	-0.073
Mof_C 	C 	0.4337	0.6494	0.5079	0.348
Mof_H 	H 	0.4146	0.6534	0.5636	-0.102
Mof_C 	C 	0.4206	0.5085	0.6332	0.228
Mof_H 	H 	0.4443	0.5383	0.6209	-0.058
Mof_C 	C 	0.4266	0.471	0.7125	-0.202
Mof_H 	H 	0.4537	0.4768	0.7529	0.114
Mof_C 	C 	0.2828	0.6277	0.4266	0.291
Mof_H 	H 	0.2877	0.6174	0.3619	-0.075
Mof_O 	O 	0.17032	0.7538	0.5053	-0.412
Mof_O 	O 	0.57341	0.71482	0.3326	-0.435
Mof_C 	C 	0.3575	0.4328	0.1905	0.341
Mof_O 	O 	0.3282	0.4017	0.0349	-0.276
Mof_C 	C 	0.3955	0.4283	0.2497	-0.452
Mof_H 	H 	0.4216	0.4022	0.2353	0.207
Mof_C 	C 	0.3961	0.4636	0.3353	0.435
Mof_H 	H 	0.4216	0.4573	0.3794	-0.13
Mof_C 	C 	0.3234	0.472	0.2089	-0.539
Mof_H 	H 	0.2962	0.4761	0.1681	0.228
Mof_C 	C 	0.328	0.5074	0.2896	0.547
Mof_H 	H 	0.3034	0.5368	0.2979	-0.162
Mof_Co	Co	0.38228	0.18528	0.53338	1.182
Mof_Si	Si	0.3684	0.94566	0.03449	1.126
Mof_O 	O 	0.3929	0.1493	0.4018	-0.353
Mof_C 	C 	0.3581	0.1068	0.4018	0.153
Mof_O 	O 	0.18297	0.77698	0.8407	-0.417
Mof_C 	C 	0.1926	0.7776	0.929	0.29
Mof_C 	C 	0.234	0.8181	0.9596	0.107
Mof_C 	C 	0.2634	0.8453	0.8907	-0.267
Mof_H 	H 	0.257	0.8377	0.8257	0.137
Mof_C 	C 	0.2452	0.8316	0.0502	-0.258
Mof_H 	H 	0.2274	0.8133	0.0999	0.134
Mof_O 	O 	0.55654	0.7358	0.0327	-0.428
Mof_C 	C 	0.5475	0.7752	0.0946	0.326
Mof_C 	C 	0.5035	0.8162	0.0795	0.104
Mof_C 	C 	0.4732	0.8103	0.0044	-0.28
Mof_H 	H 	0.4784	0.7791	0.9598	0.142
Mof_C 	C 	0.488	0.8543	0.1504	-0.241
Mof_H 	H 	0.5039	0.8534	0.2101	0.13
Mof_C 	C 	0.3614	0.994	0.1439	-0.657
Mof_O 	O 	0.36957	0.16064	0.6737	-0.497
Mof_C 	C 	0.42187	0.8927	0.052	-0.516
Mof_C 	C 	0.3806	0.9966	0.9287	-0.436
Mof_C 	C 	0.31272	0.8975	0.0062	-0.492
Mof_C 	C 	0.3928	0.0754	0.7665	0.062
Mof_O 	O 	0.42837	0.1015	0.6169	-0.318
Mof_C 	C 	0.3535	0.0817	0.825	-0.201
Mof_H 	H 	0.3298	0.1115	0.8125	0.116
Mof_C 	C 	0.3485	0.0425	0.9059	0.224
Mof_H 	H 	0.3214	0.0485	0.9464	-0.058
Mof_C 	C 	0.398	0.1145	0.6802	0.284
Mof_C 	C 	0.3015	0.8832	0.915	0.299
Mof_H 	H 	0.3206	0.8999	0.8657	-0.083
Mof_C 	C 	0.4485	0.895	0.136	0.274
Mof_H 	H 	0.4405	0.9235	0.1835	-0.073
Mof_C 	C 	0.4337	0.8506	0.9921	0.344
Mof_H 	H 	0.4146	0.8466	0.9364	-0.101
Mof_C 	C 	0.4206	0.9915	0.8668	0.227
Mof_H 	H 	0.4443	0.9617	0.8791	-0.058
Mof_C 	C 	0.4266	0.029	0.7875	-0.201
Mof_H 	H 	0.4537	0.0232	0.7471	0.114
Mof_C 	C 	0.2828	0.8723	0.0734	0.286
Mof_H 	H 	0.2877	0.8826	0.1381	-0.073
Mof_O 	O 	0.17032	0.7462	0.9947	-0.413
Mof_O 	O 	0.57341	0.78518	0.1674	-0.435
Mof_C 	C 	0.3575	0.0672	0.3095	0.339
Mof_O 	O 	0.3282	0.0983	0.4651	-0.277
Mof_C 	C 	0.3955	0.0717	0.2503	-0.451
Mof_H 	H 	0.4216	0.0978	0.2647	0.206
Mof_C 	C 	0.3961	0.0364	0.1647	0.434
Mof_H 	H 	0.4216	0.0427	0.1206	-0.129
Mof_C 	C 	0.3234	0.028	0.2911	-0.537
Mof_H 	H 	0.2962	0.0239	0.3319	0.227
Mof_C 	C 	0.328	0.9926	0.2104	0.546
Mof_H 	H 	0.3034	0.9632	0.2021	-0.162
Mof_Co	Co	0.11772	0.81472	0.53338	1.182
Mof_Si	Si	0.1316	0.05434	0.03449	1.116
Mof_O 	O 	0.1071	0.8507	0.4018	-0.353
Mof_C 	C 	0.1419	0.8932	0.4018	0.155
Mof_O 	O 	0.31703	0.22302	0.8407	-0.417
Mof_C 	C 	0.3074	0.2224	0.929	0.29
Mof_C 	C 	0.266	0.1819	0.9596	0.105
Mof_C 	C 	0.2366	0.1547	0.8907	-0.263
Mof_H 	H 	0.243	0.1623	0.8257	0.135
Mof_C 	C 	0.2548	0.1684	0.0502	-0.255
Mof_H 	H 	0.2726	0.1867	0.0999	0.133
Mof_O 	O 	0.94346	0.2642	0.0327	-0.431
Mof_C 	C 	0.9525	0.2248	0.0946	0.335
Mof_C 	C 	0.9965	0.1838	0.0795	0.081
Mof_C 	C 	0.0268	0.1897	0.0044	-0.251
Mof_H 	H 	0.0216	0.2209	0.9598	0.132
Mof_C 	C 	0.012	0.1457	0.1504	-0.217
Mof_H 	H 	0.9961	0.1466	0.2101	0.121
Mof_C 	C 	0.1386	0.006	0.1439	-0.651
Mof_O 	O 	0.13043	0.83936	0.6737	-0.497
Mof_C 	C 	0.07813	0.1073	0.052	-0.496
Mof_C 	C 	0.1194	0.0034	0.9287	-0.432
Mof_C 	C 	0.18728	0.1025	0.0062	-0.487
Mof_C 	C 	0.1072	0.9246	0.7665	0.061
Mof_O 	O 	0.07163	0.8985	0.6169	-0.318
Mof_C 	C 	0.1465	0.9183	0.825	-0.199
Mof_H 	H 	0.1702	0.8885	0.8125	0.116
Mof_C 	C 	0.1515	0.9575	0.9059	0.221
Mof_H 	H 	0.1786	0.9515	0.9464	-0.057
Mof_C 	C 	0.102	0.8855	0.6802	0.284
Mof_C 	C 	0.1985	0.1168	0.915	0.294
Mof_H 	H 	0.1794	0.1001	0.8657	-0.082
Mof_C 	C 	0.0515	0.105	0.136	0.254
Mof_H 	H 	0.0595	0.0765	0.1835	-0.066
Mof_C 	C 	0.0663	0.1494	0.9921	0.317
Mof_H 	H 	0.0854	0.1534	0.9364	-0.092
Mof_C 	C 	0.0794	0.0085	0.8668	0.225
Mof_H 	H 	0.0557	0.0383	0.8791	-0.057
Mof_C 	C 	0.0734	0.971	0.7875	-0.2
Mof_H 	H 	0.0463	0.9768	0.7471	0.113
Mof_C 	C 	0.2172	0.1277	0.0734	0.282
Mof_H 	H 	0.2123	0.1174	0.1381	-0.072
Mof_O 	O 	0.32968	0.2538	0.9947	-0.413
Mof_O 	O 	0.92659	0.21482	0.1674	-0.437
Mof_C 	C 	0.1425	0.9328	0.3095	0.336
Mof_O 	O 	0.1718	0.9017	0.4651	-0.277
Mof_C 	C 	0.1045	0.9283	0.2503	-0.447
Mof_H 	H 	0.0784	0.9022	0.2647	0.205
Mof_C 	C 	0.1039	0.9636	0.1647	0.429
Mof_H 	H 	0.0784	0.9573	0.1206	-0.127
Mof_C 	C 	0.1766	0.972	0.2911	-0.533
Mof_H 	H 	0.2038	0.9761	0.3319	0.225
Mof_C 	C 	0.172	0.0074	0.2104	0.54
Mof_H 	H 	0.1966	0.0368	0.2021	-0.16
Mof_Co	Co	0.88228	0.31472	0.03338	1.182
Mof_Si	Si	0.8684	0.55434	0.53449	1.127
Mof_O 	O 	0.8929	0.3507	0.9018	-0.352
Mof_C 	C 	0.8581	0.3932	0.9018	0.153
Mof_O 	O 	0.68297	0.72302	0.3407	-0.417
Mof_C 	C 	0.6926	0.7224	0.429	0.288
Mof_C 	C 	0.734	0.6819	0.4596	0.112
Mof_C 	C 	0.7634	0.6547	0.3907	-0.271
Mof_H 	H 	0.757	0.6623	0.3257	0.138
Mof_C 	C 	0.7452	0.6684	0.5502	-0.264
Mof_H 	H 	0.7274	0.6867	0.5999	0.136
Mof_O 	O 	0.05654	0.7642	0.5327	-0.428
Mof_C 	C 	0.0475	0.7248	0.5946	0.327
Mof_C 	C 	0.0035	0.6838	0.5795	0.102
Mof_C 	C 	0.9732	0.6897	0.5044	-0.279
Mof_H 	H 	0.9784	0.7209	0.4598	0.142
Mof_C 	C 	0.988	0.6457	0.6504	-0.238
Mof_H 	H 	0.0039	0.6466	0.7101	0.128
Mof_C 	C 	0.8614	0.506	0.6439	-0.658
Mof_O 	O 	0.86957	0.33936	0.1737	-0.497
Mof_C 	C 	0.92187	0.6073	0.552	-0.516
Mof_C 	C 	0.8806	0.5034	0.4287	-0.435
Mof_C 	C 	0.81272	0.6025	0.5062	-0.496
Mof_C 	C 	0.8928	0.4246	0.2665	0.062
Mof_O 	O 	0.92837	0.3985	0.1169	-0.318
Mof_C 	C 	0.8535	0.4183	0.325	-0.2
Mof_H 	H 	0.8298	0.3885	0.3125	0.116
Mof_C 	C 	0.8485	0.4575	0.4059	0.224
Mof_H 	H 	0.8214	0.4515	0.4464	-0.057
Mof_C 	C 	0.898	0.3855	0.1802	0.284
Mof_C 	C 	0.8015	0.6168	0.415	0.304
Mof_H 	H 	0.8206	0.6001	0.3657	-0.085
Mof_C 	C 	0.9485	0.605	0.636	0.272
Mof_H 	H 	0.9405	0.5765	0.6835	-0.072
Mof_C 	C 	0.9337	0.6494	0.4921	0.344
Mof_H 	H 	0.9146	0.6534	0.4364	-0.1
Mof_C 	C 	0.9206	0.5085	0.3668	0.227
Mof_H 	H 	0.9443	0.5383	0.3791	-0.058
Mof_C 	C 	0.9266	0.471	0.2875	-0.201
Mof_H 	H 	0.9537	0.4768	0.2471	0.114
Mof_C 	C 	0.7828	0.6277	0.5734	0.29
Mof_H 	H 	0.7877	0.6174	0.6381	-0.075
Mof_O 	O 	0.67032	0.7538	0.4947	-0.412
Mof_O 	O 	0.07341	0.71482	0.6674	-0.436
Mof_C 	C 	0.8575	0.4328	0.8095	0.34
Mof_O 	O 	0.8282	0.4017	0.9651	-0.276
Mof_C 	C 	0.8955	0.4283	0.7503	-0.452
Mof_H 	H 	0.9216	0.4022	0.7647	0.207
Mof_C 	C 	0.8961	0.4636	0.6647	0.435
Mof_H 	H 	0.9216	0.4573	0.6206	-0.13
Mof_C 	C 	0.8234	0.472	0.7911	-0.538
Mof_H 	H 	0.7962	0.4761	0.8319	0.227
Mof_C 	C 	0.828	0.5074	0.7104	0.547
Mof_H 	H 	0.8034	0.5368	0.7021	-0.162
Mof_Co	Co	0.61772	0.68528	0.03338	1.182
Mof_Si	Si	0.6316	0.44566	0.53449	1.129
Mof_O 	O 	0.6071	0.6493	0.9018	-0.352
Mof_C 	C 	0.6419	0.6068	0.9018	0.153
Mof_O 	O 	0.81703	0.27698	0.3407	-0.417
Mof_C 	C 	0.8074	0.2776	0.429	0.288
Mof_C 	C 	0.766	0.3181	0.4596	0.112
Mof_C 	C 	0.7366	0.3453	0.3907	-0.272
Mof_H 	H 	0.743	0.3377	0.3257	0.138
Mof_C 	C 	0.7548	0.3316	0.5502	-0.264
Mof_H 	H 	0.7726	0.3133	0.5999	0.136
Mof_O 	O 	0.44346	0.2358	0.5327	-0.428
Mof_C 	C 	0.4525	0.2752	0.5946	0.326
Mof_C 	C 	0.4965	0.3162	0.5795	0.106
Mof_C 	C 	0.5268	0.3103	0.5044	-0.283
Mof_H 	H 	0.5216	0.2791	0.4598	0.144
Mof_C 	C 	0.512	0.3543	0.6504	-0.243
Mof_H 	H 	0.4961	0.3534	0.7101	0.131
Mof_C 	C 	0.6386	0.494	0.6439	-0.659
Mof_O 	O 	0.63043	0.66064	0.1737	-0.497
Mof_C 	C 	0.57813	0.3927	0.552	-0.519
Mof_C 	C 	0.6194	0.4966	0.4287	-0.436
Mof_C 	C 	0.68728	0.3975	0.5062	-0.497
Mof_C 	C 	0.6072	0.5754	0.2665	0.062
Mof_O 	O 	0.57163	0.6015	0.1169	-0.318
Mof_C 	C 	0.6465	0.5817	0.325	-0.201
Mof_H 	H 	0.6702	0.6115	0.3125	0.116
Mof_C 	C 	0.6515	0.5425	0.4059	0.224
Mof_H 	H 	0.6786	0.5485	0.4464	-0.058
Mof_C 	C 	0.602	0.6145	0.1802	0.284
Mof_C 	C 	0.6985	0.3832	0.415	0.305
Mof_H 	H 	0.6794	0.3999	0.3657	-0.085
Mof_C 	C 	0.5515	0.395	0.636	0.276
Mof_H 	H 	0.5595	0.4235	0.6835	-0.073
Mof_C 	C 	0.5663	0.3506	0.4921	0.348
Mof_H 	H 	0.5854	0.3466	0.4364	-0.102
Mof_C 	C 	0.5794	0.4915	0.3668	0.228
Mof_H 	H 	0.5557	0.4617	0.3791	-0.058
Mof_C 	C 	0.5734	0.529	0.2875	-0.202
Mof_H 	H 	0.5463	0.5232	0.2471	0.114
Mof_C 	C 	0.7172	0.3723	0.5734	0.291
Mof_H 	H 	0.7123	0.3826	0.6381	-0.075
Mof_O 	O 	0.82968	0.2462	0.4947	-0.412
Mof_O 	O 	0.42659	0.28518	0.6674	-0.435
Mof_C 	C 	0.6425	0.5672	0.8095	0.341
Mof_O 	O 	0.6718	0.5983	0.9651	-0.276
Mof_C 	C 	0.6045	0.5717	0.7503	-0.452
Mof_H 	H 	0.5784	0.5978	0.7647	0.207
Mof_C 	C 	0.6039	0.5364	0.6647	0.435
Mof_H 	H 	0.5784	0.5427	0.6206	-0.13
Mof_C 	C 	0.6766	0.528	0.7911	-0.539
Mof_H 	H 	0.7038	0.5239	0.8319	0.228
Mof_C 	C 	0.672	0.4926	0.7104	0.547
Mof_H 	H 	0.6966	0.4632	0.7021	-0.162
Mof_Co	Co	0.61772	0.81472	0.46662	1.182
Mof_Si	Si	0.6316	0.05434	0.96551	1.126
Mof_O 	O 	0.6071	0.8507	0.5982	-0.353
Mof_C 	C 	0.6419	0.8932	0.5982	0.153
Mof_O 	O 	0.81703	0.22302	0.1593	-0.417
Mof_C 	C 	0.8074	0.2224	0.071	0.29
Mof_C 	C 	0.766	0.1819	0.0404	0.107
Mof_C 	C 	0.7366	0.1547	0.1093	-0.267
Mof_H 	H 	0.743	0.1623	0.1743	0.137
Mof_C 	C 	0.7548	0.1684	0.9498	-0.258
Mof_H 	H 	0.7726	0.1867	0.9001	0.134
Mof_O 	O 	0.44346	0.2642	0.9673	-0.428
Mof_C 	C 	0.4525	0.2248	0.9054	0.326
Mof_C 	C 	0.4965	0.1838	0.9205	0.104
Mof_C 	C 	0.5268	0.1897	0.9956	-0.28
Mof_H 	H 	0.5216	0.2209	0.0402	0.142
Mof_C 	C 	0.512	0.1457	0.8496	-0.241
Mof_H 	H 	0.4961	0.1466	0.7899	0.13
Mof_C 	C 	0.6386	0.006	0.8561	-0.657
Mof_O 	O 	0.63043	0.83936	0.3263	-0.497
Mof_C 	C 	0.57813	0.1073	0.948	-0.516
Mof_C 	C 	0.6194	0.0034	0.0713	-0.436
Mof_C 	C 	0.68728	0.1025	0.9938	-0.492
Mof_C 	C 	0.6072	0.9246	0.2335	0.062
Mof_O 	O 	0.57163	0.8985	0.3831	-0.318
Mof_C 	C 	0.6465	0.9183	0.175	-0.201
Mof_H 	H 	0.6702	0.8885	0.1875	0.116
Mof_C 	C 	0.6515	0.9575	0.0941	0.224
Mof_H 	H 	0.6786	0.9515	0.0536	-0.058
Mof_C 	C 	0.602	0.8855	0.3198	0.284
Mof_C 	C 	0.6985	0.1168	0.085	0.299
Mof_H 	H 	0.6794	0.1001	0.1343	-0.083
Mof_C 	C 	0.5515	0.105	0.864	0.274
Mof_H 	H 	0.5595	0.0765	0.8165	-0.073
Mof_C 	C 	0.5663	0.1494	0.0079	0.344
Mof_H 	H 	0.5854	0.1534	0.0636	-0.101
Mof_C 	C 	0.5794	0.0085	0.1332	0.227
Mof_H 	H 	0.5557	0.0383	0.1209	-0.058
Mof_C 	C 	0.5734	0.971	0.2125	-0.201
Mof_H 	H 	0.5463	0.9768	0.2529	0.114
Mof_C 	C 	0.7172	0.1277	0.9266	0.286
Mof_H 	H 	0.7123	0.1174	0.8619	-0.073
Mof_O 	O 	0.82968	0.2538	0.0053	-0.413
Mof_O 	O 	0.42659	0.21482	0.8326	-0.435
Mof_C 	C 	0.6425	0.9328	0.6905	0.339
Mof_O 	O 	0.6718	0.9017	0.5349	-0.277
Mof_C 	C 	0.6045	0.9283	0.7497	-0.451
Mof_H 	H 	0.5784	0.9022	0.7353	0.206
Mof_C 	C 	0.6039	0.9636	0.8353	0.434
Mof_H 	H 	0.5784	0.9573	0.8794	-0.129
Mof_C 	C 	0.6766	0.972	0.7089	-0.537
Mof_H 	H 	0.7038	0.9761	0.6681	0.227
Mof_C 	C 	0.672	0.0074	0.7896	0.546
Mof_H 	H 	0.6966	0.0368	0.7979	-0.162
Mof_Co	Co	0.88228	0.18528	0.46662	1.182
Mof_Si	Si	0.8684	0.94566	0.96551	1.116
Mof_O 	O 	0.8929	0.1493	0.5982	-0.353
Mof_C 	C 	0.8581	0.1068	0.5982	0.155
Mof_O 	O 	0.68297	0.77698	0.1593	-0.417
Mof_C 	C 	0.6926	0.7776	0.071	0.29
Mof_C 	C 	0.734	0.8181	0.0404	0.105
Mof_C 	C 	0.7634	0.8453	0.1093	-0.263
Mof_H 	H 	0.757	0.8377	0.1743	0.135
Mof_C 	C 	0.7452	0.8316	0.9498	-0.255
Mof_H 	H 	0.7274	0.8133	0.9001	0.133
Mof_O 	O 	0.05654	0.7358	0.9673	-0.431
Mof_C 	C 	0.0475	0.7752	0.9054	0.335
Mof_C 	C 	0.0035	0.8162	0.9205	0.081
Mof_C 	C 	0.9732	0.8103	0.9956	-0.251
Mof_H 	H 	0.9784	0.7791	0.0402	0.132
Mof_C 	C 	0.988	0.8543	0.8496	-0.217
Mof_H 	H 	0.0039	0.8534	0.7899	0.121
Mof_C 	C 	0.8614	0.994	0.8561	-0.651
Mof_O 	O 	0.86957	0.16064	0.3263	-0.497
Mof_C 	C 	0.92187	0.8927	0.948	-0.496
Mof_C 	C 	0.8806	0.9966	0.0713	-0.432
Mof_C 	C 	0.81272	0.8975	0.9938	-0.487
Mof_C 	C 	0.8928	0.0754	0.2335	0.061
Mof_O 	O 	0.92837	0.1015	0.3831	-0.318
Mof_C 	C 	0.8535	0.0817	0.175	-0.199
Mof_H 	H 	0.8298	0.1115	0.1875	0.116
Mof_C 	C 	0.8485	0.0425	0.0941	0.221
Mof_H 	H 	0.8214	0.0485	0.0536	-0.057
Mof_C 	C 	0.898	0.1145	0.3198	0.284
Mof_C 	C 	0.8015	0.8832	0.085	0.294
Mof_H 	H 	0.8206	0.8999	0.1343	-0.082
Mof_C 	C 	0.9485	0.895	0.864	0.254
Mof_H 	H 	0.9405	0.9235	0.8165	-0.066
Mof_C 	C 	0.9337	0.8506	0.0079	0.317
Mof_H 	H 	0.9146	0.8466	0.0636	-0.092
Mof_C 	C 	0.9206	0.9915	0.1332	0.225
Mof_H 	H 	0.9443	0.9617	0.1209	-0.057
Mof_C 	C 	0.9266	0.029	0.2125	-0.2
Mof_H 	H 	0.9537	0.0232	0.2529	0.113
Mof_C 	C 	0.7828	0.8723	0.9266	0.282
Mof_H 	H 	0.7877	0.8826	0.8619	-0.072
Mof_O 	O 	0.67032	0.7462	0.0053	-0.413
Mof_O 	O 	0.07341	0.78518	0.8326	-0.437
Mof_C 	C 	0.8575	0.0672	0.6905	0.336
Mof_O 	O 	0.8282	0.0983	0.5349	-0.277
Mof_C 	C 	0.8955	0.0717	0.7497	-0.447
Mof_H 	H 	0.9216	0.0978	0.7353	0.205
Mof_C 	C 	0.8961	0.0364	0.8353	0.429
Mof_H 	H 	0.9216	0.0427	0.8794	-0.127
Mof_C 	C 	0.8234	0.028	0.7089	-0.533
Mof_H 	H 	0.7962	0.0239	0.6681	0.225
Mof_C 	C 	0.828	0.9926	0.7896	0.54
Mof_H 	H 	0.8034	0.9632	0.7979	-0.16
Mof_Co	Co	0.1284	0.75	0.75	1.192
Mof_Co	Co	0.3716	0.25	0.75	1.192
Mof_Co	Co	0.8716	0.25	0.25	1.192
Mof_Co	Co	0.6284	0.75	0.25	1.192
_end
