data_functionalizedCrystal
_audit_creation_method	'EQeq! by Chris Wilmer'
_symmetry_space_group_name_H-M	'P1'
_symmetry_Int_Tables_number	1
_symmetry_cell_setting	triclinic
loop_
_symmetry_equiv_pos_as_xyz
  x,y,z
_cell_length_a	28.834
_cell_length_b	16.381
_cell_length_c	23.199
_cell_angle_alpha	90
_cell_angle_beta	92.893
_cell_angle_gamma	90
loop_
_atom_site_label
_atom_site_type_symbol
_atom_site_fract_x
_atom_site_fract_y
_atom_site_fract_z
_atom_site_charge
Mof_Co	Co	0.79806	0.71863	0.03516	1.192
Mof_Co	Co	0.79511	0.60635	0.15666	1.136
Mof_Co	Co	0.70884	0.75547	0.12981	1.159
Mof_O 	O 	0.83554	0.6135	0.0255	-0.443
Mof_O 	O 	0.81482	0.52597	0.09462	-0.475
Mof_O 	O 	0.95339	0.3023	0.96141	-0.297
Mof_O 	O 	0.16622	0.23888	0.03774	-0.478
Mof_O 	O 	0.14036	0.2859	0.11915	-0.419
Mof_O 	O 	0.83778	0.78428	0.09316	-0.44
Mof_O 	O 	0.8523	0.68366	0.15687	-0.454
Mof_O 	O 	0.75595	0.82299	0.02397	-0.556
Mof_O 	O 	0.73208	0.87213	0.10698	-0.419
Mof_O 	O 	0.81055	0.1834	0.97365	-0.303
Mof_O 	O 	0.72708	0.2221	0.7138	-0.452
Mof_O 	O 	0.77226	0.3321	0.72645	-0.492
Mof_O 	O 	0.75527	0.67601	0.09884	-0.792
Mof_H 	H 	0.7373	0.6421	0.0813	0.235
Mof_C 	C 	0.83598	0.5446	0.05009	0.408
Mof_C 	C 	0.86526	0.4792	0.02474	-0.203
Mof_C 	C 	0.86021	0.3983	0.03974	0.153
Mof_H 	H 	0.8367	0.3831	0.0649	-0.01
Mof_C 	C 	0.88925	0.3387	0.0185	-0.272
Mof_H 	H 	0.8855	0.283	0.0286	0.14
Mof_C 	C 	0.92351	0.3617	0.9826	0.28
Mof_C 	C 	0.92878	0.4418	0.9659	-0.262
Mof_H 	H 	0.9522	0.4567	0.9405	0.127
Mof_C 	C 	0.89912	0.5006	0.987	0.145
Mof_H 	H 	0.9021	0.5559	0.9755	-0
Mof_C 	C 	0.13306	0.2662	0.06666	0.361
Mof_C 	C 	0.08542	0.274	0.0406	-0.177
Mof_C 	C 	0.0503	0.3115	0.071	0.122
Mof_H 	H 	0.0569	0.3298	0.1094	0.006
Mof_C 	C 	0.00608	0.322	0.0456	-0.233
Mof_H 	H 	0.9826	0.3481	0.0662	0.111
Mof_C 	C 	0.99635	0.2943	0.99	0.257
Mof_C 	C 	0.03052	0.2548	0.9599	-0.226
Mof_H 	H 	0.0235	0.2341	0.9222	0.122
Mof_C 	C 	0.07467	0.2457	0.9851	0.121
Mof_H 	H 	0.098	0.2198	0.9642	0.002
Mof_C 	C 	0.85821	0.7537	0.13698	0.407
Mof_C 	C 	0.89467	0.8059	0.168	-0.194
Mof_C 	C 	0.91043	0.8777	0.14379	0.14
Mof_H 	H 	0.897	0.8955	0.1077	-0.001
Mof_C 	C 	0.94513	0.9235	0.1711	-0.256
Mof_H 	H 	0.9559	0.972	0.1538	0.128
Mof_C 	C 	0.96406	0.8976	0.2241	0.274
Mof_C 	C 	0.94751	0.8286	0.2504	-0.26
Mof_H 	H 	0.9598	0.8126	0.2875	0.125
Mof_C 	C 	0.91269	0.7825	0.2221	0.141
Mof_H 	H 	0.9012	0.7349	0.2399	-0.006
Mof_C 	C 	0.75097	0.881	0.05963	0.41
Mof_C 	C 	0.76855	0.9622	0.0415	-0.206
Mof_C 	C 	0.74913	0.0347	0.05997	0.154
Mof_H 	H 	0.7264	0.0336	0.0882	-0.007
Mof_C 	C 	0.76278	0.1088	0.0373	-0.266
Mof_H 	H 	0.7494	0.1585	0.0495	0.138
Mof_C 	C 	0.79642	0.1088	0.99659	0.284
Mof_C 	C 	0.81758	0.038	0.9798	-0.271
Mof_H 	H 	0.8416	0.0398	0.9533	0.123
Mof_C 	C 	0.80353	0.9639	0.00186	0.137
Mof_H 	H 	0.8176	0.9145	0.9901	-0.019
Mof_C 	C 	0.75431	0.2678	0.74359	0.421
Mof_C 	C 	0.76758	0.2436	0.80484	-0.208
Mof_C 	C 	0.74611	0.1796	0.83199	0.154
Mof_H 	H 	0.7216	0.151	0.812	-0.018
Mof_C 	C 	0.75981	0.1564	0.88791	-0.278
Mof_H 	H 	0.7451	0.1119	0.9059	0.125
Mof_C 	C 	0.79517	0.1992	0.9169	0.283
Mof_C 	C 	0.81732	0.2637	0.8907	-0.264
Mof_H 	H 	0.8418	0.2922	0.9109	0.138
Mof_C 	C 	0.80335	0.2859	0.83482	0.15
Mof_H 	H 	0.8182	0.3302	0.8168	-0.012
Mof_Co	Co	0.29806	0.21863	0.03516	1.191
Mof_Co	Co	0.29511	0.10635	0.15666	1.135
Mof_Co	Co	0.20884	0.25547	0.12981	1.158
Mof_O 	O 	0.33554	0.1135	0.0255	-0.443
Mof_O 	O 	0.31482	0.02597	0.09462	-0.475
Mof_O 	O 	0.45339	0.8023	0.96141	-0.301
Mof_O 	O 	0.66622	0.73888	0.03774	-0.478
Mof_O 	O 	0.64036	0.7859	0.11915	-0.42
Mof_O 	O 	0.33778	0.28428	0.09316	-0.44
Mof_O 	O 	0.3523	0.18366	0.15687	-0.454
Mof_O 	O 	0.25595	0.32299	0.02397	-0.557
Mof_O 	O 	0.23208	0.37213	0.10698	-0.419
Mof_O 	O 	0.31055	0.6834	0.97365	-0.302
Mof_O 	O 	0.22708	0.7221	0.7138	-0.452
Mof_O 	O 	0.27226	0.8321	0.72645	-0.492
Mof_O 	O 	0.25527	0.17601	0.09884	-0.792
Mof_H 	H 	0.2373	0.1421	0.0813	0.235
Mof_C 	C 	0.33598	0.0446	0.05009	0.408
Mof_C 	C 	0.36526	0.9792	0.02474	-0.202
Mof_C 	C 	0.36021	0.8983	0.03974	0.153
Mof_H 	H 	0.3367	0.8831	0.0649	-0.01
Mof_C 	C 	0.38925	0.8387	0.0185	-0.272
Mof_H 	H 	0.3855	0.783	0.0286	0.141
Mof_C 	C 	0.42351	0.8617	0.9826	0.281
Mof_C 	C 	0.42878	0.9418	0.9659	-0.263
Mof_H 	H 	0.4522	0.9567	0.9405	0.128
Mof_C 	C 	0.39912	0.0006	0.987	0.147
Mof_H 	H 	0.4021	0.0559	0.9755	0
Mof_C 	C 	0.63306	0.7662	0.06666	0.364
Mof_C 	C 	0.58542	0.774	0.0406	-0.186
Mof_C 	C 	0.5503	0.8115	0.071	0.137
Mof_H 	H 	0.5569	0.8298	0.1094	0
Mof_C 	C 	0.50608	0.822	0.0456	-0.257
Mof_H 	H 	0.4826	0.8481	0.0662	0.122
Mof_C 	C 	0.49635	0.7943	0.99	0.277
Mof_C 	C 	0.53052	0.7548	0.9599	-0.242
Mof_H 	H 	0.5235	0.7341	0.9222	0.127
Mof_C 	C 	0.57467	0.7457	0.9851	0.131
Mof_H 	H 	0.598	0.7198	0.9642	-0.002
Mof_C 	C 	0.35821	0.2537	0.13698	0.408
Mof_C 	C 	0.39467	0.3059	0.168	-0.195
Mof_C 	C 	0.41043	0.3777	0.14379	0.143
Mof_H 	H 	0.397	0.3955	0.1077	-0.002
Mof_C 	C 	0.44513	0.4235	0.1711	-0.259
Mof_H 	H 	0.4559	0.472	0.1538	0.131
Mof_C 	C 	0.46406	0.3976	0.2241	0.281
Mof_C 	C 	0.44751	0.3286	0.2504	-0.263
Mof_H 	H 	0.4598	0.3126	0.2875	0.127
Mof_C 	C 	0.41269	0.2825	0.2221	0.144
Mof_H 	H 	0.4012	0.2349	0.2399	-0.007
Mof_C 	C 	0.25097	0.381	0.05963	0.41
Mof_C 	C 	0.26855	0.4622	0.0415	-0.206
Mof_C 	C 	0.24913	0.5347	0.05997	0.154
Mof_H 	H 	0.2264	0.5336	0.0882	-0.007
Mof_C 	C 	0.26278	0.6088	0.0373	-0.265
Mof_H 	H 	0.2494	0.6585	0.0495	0.138
Mof_C 	C 	0.29642	0.6088	0.99659	0.283
Mof_C 	C 	0.31758	0.538	0.9798	-0.269
Mof_H 	H 	0.3416	0.5398	0.9533	0.122
Mof_C 	C 	0.30353	0.4639	0.00186	0.135
Mof_H 	H 	0.3176	0.4145	0.9901	-0.018
Mof_C 	C 	0.25431	0.7678	0.74359	0.421
Mof_C 	C 	0.26758	0.7436	0.80484	-0.208
Mof_C 	C 	0.24611	0.6796	0.83199	0.154
Mof_H 	H 	0.2216	0.651	0.812	-0.018
Mof_C 	C 	0.25981	0.6564	0.88791	-0.278
Mof_H 	H 	0.2451	0.6119	0.9059	0.125
Mof_C 	C 	0.29517	0.6992	0.9169	0.283
Mof_C 	C 	0.31732	0.7637	0.8907	-0.264
Mof_H 	H 	0.3418	0.7922	0.9109	0.138
Mof_C 	C 	0.30335	0.7859	0.83482	0.15
Mof_H 	H 	0.3182	0.8302	0.8168	-0.012
Mof_Co	Co	0.20194	0.71863	0.46484	1.191
Mof_Co	Co	0.20489	0.60635	0.34334	1.135
Mof_Co	Co	0.29116	0.75547	0.37019	1.158
Mof_O 	O 	0.16446	0.6135	0.4745	-0.443
Mof_O 	O 	0.18518	0.52597	0.40538	-0.475
Mof_O 	O 	0.04661	0.3023	0.53859	-0.305
Mof_O 	O 	0.83378	0.23888	0.46226	-0.479
Mof_O 	O 	0.85964	0.2859	0.38085	-0.421
Mof_O 	O 	0.16222	0.78428	0.40684	-0.44
Mof_O 	O 	0.1477	0.68366	0.34313	-0.454
Mof_O 	O 	0.24405	0.82299	0.47603	-0.556
Mof_O 	O 	0.26792	0.87213	0.39302	-0.419
Mof_O 	O 	0.18945	0.1834	0.52635	-0.302
Mof_O 	O 	0.27292	0.2221	0.7862	-0.452
Mof_O 	O 	0.22774	0.3321	0.77355	-0.492
Mof_O 	O 	0.24473	0.67601	0.40116	-0.792
Mof_H 	H 	0.2627	0.6421	0.4187	0.235
Mof_C 	C 	0.16402	0.5446	0.44991	0.408
Mof_C 	C 	0.13474	0.4792	0.47526	-0.203
Mof_C 	C 	0.13979	0.3983	0.46026	0.154
Mof_H 	H 	0.1633	0.3831	0.4351	-0.01
Mof_C 	C 	0.11075	0.3387	0.4815	-0.273
Mof_H 	H 	0.1145	0.283	0.4714	0.142
Mof_C 	C 	0.07649	0.3617	0.5174	0.284
Mof_C 	C 	0.07122	0.4418	0.5341	-0.263
Mof_H 	H 	0.0478	0.4567	0.5595	0.129
Mof_C 	C 	0.10088	0.5006	0.513	0.146
Mof_H 	H 	0.0979	0.5559	0.5245	0
Mof_C 	C 	0.86694	0.2662	0.43334	0.368
Mof_C 	C 	0.91458	0.274	0.4594	-0.197
Mof_C 	C 	0.9497	0.3115	0.429	0.153
Mof_H 	H 	0.9431	0.3298	0.3906	-0.006
Mof_C 	C 	0.99392	0.322	0.4544	-0.285
Mof_H 	H 	0.0174	0.3481	0.4338	0.134
Mof_C 	C 	0.00365	0.2943	0.51	0.298
Mof_C 	C 	0.96948	0.2548	0.5401	-0.261
Mof_H 	H 	0.9765	0.2341	0.5778	0.132
Mof_C 	C 	0.92533	0.2457	0.5149	0.144
Mof_H 	H 	0.902	0.2198	0.5358	-0.006
Mof_C 	C 	0.14179	0.7537	0.36302	0.408
Mof_C 	C 	0.10533	0.8059	0.332	-0.195
Mof_C 	C 	0.08957	0.8777	0.35621	0.143
Mof_H 	H 	0.103	0.8955	0.3923	-0.002
Mof_C 	C 	0.05487	0.9235	0.3289	-0.259
Mof_H 	H 	0.0441	0.972	0.3462	0.131
Mof_C 	C 	0.03594	0.8976	0.2759	0.281
Mof_C 	C 	0.05249	0.8286	0.2496	-0.262
Mof_H 	H 	0.0402	0.8126	0.2125	0.128
Mof_C 	C 	0.08731	0.7825	0.2779	0.144
Mof_H 	H 	0.0988	0.7349	0.2601	-0.006
Mof_C 	C 	0.24903	0.881	0.44037	0.41
Mof_C 	C 	0.23145	0.9622	0.4585	-0.207
Mof_C 	C 	0.25087	0.0347	0.44003	0.154
Mof_H 	H 	0.2736	0.0336	0.4118	-0.007
Mof_C 	C 	0.23722	0.1088	0.4627	-0.265
Mof_H 	H 	0.2506	0.1585	0.4505	0.138
Mof_C 	C 	0.20358	0.1088	0.50341	0.283
Mof_C 	C 	0.18242	0.038	0.5202	-0.271
Mof_H 	H 	0.1584	0.0398	0.5467	0.123
Mof_C 	C 	0.19647	0.9639	0.49814	0.138
Mof_H 	H 	0.1824	0.9145	0.5099	-0.019
Mof_C 	C 	0.24569	0.2678	0.75641	0.421
Mof_C 	C 	0.23242	0.2436	0.69516	-0.208
Mof_C 	C 	0.25389	0.1796	0.66801	0.154
Mof_H 	H 	0.2784	0.151	0.688	-0.018
Mof_C 	C 	0.24019	0.1564	0.61209	-0.278
Mof_H 	H 	0.2549	0.1119	0.5941	0.125
Mof_C 	C 	0.20483	0.1992	0.5831	0.283
Mof_C 	C 	0.18268	0.2637	0.6093	-0.264
Mof_H 	H 	0.1582	0.2922	0.5891	0.138
Mof_C 	C 	0.19665	0.2859	0.66518	0.15
Mof_H 	H 	0.1818	0.3302	0.6832	-0.012
Mof_Co	Co	0.70194	0.21863	0.46484	1.191
Mof_Co	Co	0.70489	0.10635	0.34334	1.135
Mof_Co	Co	0.79116	0.25547	0.37019	1.158
Mof_O 	O 	0.66446	0.1135	0.4745	-0.442
Mof_O 	O 	0.68518	0.02597	0.40538	-0.475
Mof_O 	O 	0.54661	0.8023	0.53859	-0.301
Mof_O 	O 	0.33378	0.73888	0.46226	-0.478
Mof_O 	O 	0.35964	0.7859	0.38085	-0.42
Mof_O 	O 	0.66222	0.28428	0.40684	-0.44
Mof_O 	O 	0.6477	0.18366	0.34313	-0.454
Mof_O 	O 	0.74405	0.32299	0.47603	-0.556
Mof_O 	O 	0.76792	0.37213	0.39302	-0.419
Mof_O 	O 	0.68945	0.6834	0.52635	-0.302
Mof_O 	O 	0.77292	0.7221	0.7862	-0.452
Mof_O 	O 	0.72774	0.8321	0.77355	-0.493
Mof_O 	O 	0.74473	0.17601	0.40116	-0.792
Mof_H 	H 	0.7627	0.1421	0.4187	0.235
Mof_C 	C 	0.66402	0.0446	0.44991	0.408
Mof_C 	C 	0.63474	0.9792	0.47526	-0.202
Mof_C 	C 	0.63979	0.8983	0.46026	0.153
Mof_H 	H 	0.6633	0.8831	0.4351	-0.01
Mof_C 	C 	0.61075	0.8387	0.4815	-0.271
Mof_H 	H 	0.6145	0.783	0.4714	0.141
Mof_C 	C 	0.57649	0.8617	0.5174	0.281
Mof_C 	C 	0.57122	0.9418	0.5341	-0.261
Mof_H 	H 	0.5478	0.9567	0.5595	0.128
Mof_C 	C 	0.60088	0.0006	0.513	0.145
Mof_H 	H 	0.5979	0.0559	0.5245	0
Mof_C 	C 	0.36694	0.7662	0.43334	0.364
Mof_C 	C 	0.41458	0.774	0.4594	-0.186
Mof_C 	C 	0.4497	0.8115	0.429	0.137
Mof_H 	H 	0.4431	0.8298	0.3906	0
Mof_C 	C 	0.49392	0.822	0.4544	-0.257
Mof_H 	H 	0.5174	0.8481	0.4338	0.122
Mof_C 	C 	0.50365	0.7943	0.51	0.277
Mof_C 	C 	0.46948	0.7548	0.5401	-0.242
Mof_H 	H 	0.4765	0.7341	0.5778	0.127
Mof_C 	C 	0.42533	0.7457	0.5149	0.131
Mof_H 	H 	0.402	0.7198	0.5358	-0.002
Mof_C 	C 	0.64179	0.2537	0.36302	0.408
Mof_C 	C 	0.60533	0.3059	0.332	-0.195
Mof_C 	C 	0.58957	0.3777	0.35621	0.143
Mof_H 	H 	0.603	0.3955	0.3923	-0.002
Mof_C 	C 	0.55487	0.4235	0.3289	-0.259
Mof_H 	H 	0.5441	0.472	0.3462	0.131
Mof_C 	C 	0.53594	0.3976	0.2759	0.281
Mof_C 	C 	0.55249	0.3286	0.2496	-0.263
Mof_H 	H 	0.5402	0.3126	0.2125	0.127
Mof_C 	C 	0.58731	0.2825	0.2779	0.144
Mof_H 	H 	0.5988	0.2349	0.2601	-0.007
Mof_C 	C 	0.74903	0.381	0.44037	0.41
Mof_C 	C 	0.73145	0.4622	0.4585	-0.207
Mof_C 	C 	0.75087	0.5347	0.44003	0.155
Mof_H 	H 	0.7736	0.5336	0.4118	-0.007
Mof_C 	C 	0.73722	0.6088	0.4627	-0.265
Mof_H 	H 	0.7506	0.6585	0.4505	0.138
Mof_C 	C 	0.70358	0.6088	0.50341	0.283
Mof_C 	C 	0.68242	0.538	0.5202	-0.271
Mof_H 	H 	0.6584	0.5398	0.5467	0.123
Mof_C 	C 	0.69647	0.4639	0.49814	0.138
Mof_H 	H 	0.6824	0.4145	0.5099	-0.019
Mof_C 	C 	0.74569	0.7678	0.75641	0.421
Mof_C 	C 	0.73242	0.7436	0.69516	-0.208
Mof_C 	C 	0.75389	0.6796	0.66801	0.154
Mof_H 	H 	0.7784	0.651	0.688	-0.018
Mof_C 	C 	0.74019	0.6564	0.61209	-0.278
Mof_H 	H 	0.7549	0.6119	0.5941	0.125
Mof_C 	C 	0.70483	0.6992	0.5831	0.283
Mof_C 	C 	0.68268	0.7637	0.6093	-0.264
Mof_H 	H 	0.6582	0.7922	0.5891	0.138
Mof_C 	C 	0.69665	0.7859	0.66518	0.15
Mof_H 	H 	0.6818	0.8302	0.6832	-0.012
Mof_Co	Co	0.20194	0.28137	0.96484	1.191
Mof_Co	Co	0.20489	0.39365	0.84334	1.135
Mof_Co	Co	0.29116	0.24453	0.87019	1.158
Mof_O 	O 	0.16446	0.3865	0.9745	-0.442
Mof_O 	O 	0.18518	0.47403	0.90538	-0.475
Mof_O 	O 	0.04661	0.6977	0.03859	-0.305
Mof_O 	O 	0.83378	0.76112	0.96226	-0.479
Mof_O 	O 	0.85964	0.7141	0.88085	-0.421
Mof_O 	O 	0.16222	0.21572	0.90684	-0.44
Mof_O 	O 	0.1477	0.31634	0.84313	-0.454
Mof_O 	O 	0.24405	0.17701	0.97603	-0.556
Mof_O 	O 	0.26792	0.12787	0.89302	-0.419
Mof_O 	O 	0.18945	0.8166	0.02635	-0.303
Mof_O 	O 	0.27292	0.7779	0.2862	-0.452
Mof_O 	O 	0.22774	0.6679	0.27355	-0.492
Mof_O 	O 	0.24473	0.32399	0.90116	-0.792
Mof_H 	H 	0.2627	0.3579	0.9187	0.235
Mof_C 	C 	0.16402	0.4554	0.94991	0.408
Mof_C 	C 	0.13474	0.5208	0.97526	-0.202
Mof_C 	C 	0.13979	0.6017	0.96026	0.154
Mof_H 	H 	0.1633	0.6169	0.9351	-0.01
Mof_C 	C 	0.11075	0.6613	0.9815	-0.272
Mof_H 	H 	0.1145	0.717	0.9714	0.141
Mof_C 	C 	0.07649	0.6383	0.0174	0.283
Mof_C 	C 	0.07122	0.5582	0.0341	-0.263
Mof_H 	H 	0.0478	0.5433	0.0595	0.129
Mof_C 	C 	0.10088	0.4994	0.013	0.145
Mof_H 	H 	0.0979	0.4441	0.0245	0
Mof_C 	C 	0.86694	0.7338	0.93334	0.367
Mof_C 	C 	0.91458	0.726	0.9594	-0.196
Mof_C 	C 	0.9497	0.6885	0.929	0.152
Mof_H 	H 	0.9431	0.6702	0.8906	-0.006
Mof_C 	C 	0.99392	0.678	0.9544	-0.284
Mof_H 	H 	0.0174	0.6519	0.9338	0.133
Mof_C 	C 	0.00365	0.7057	0.01	0.298
Mof_C 	C 	0.96948	0.7452	0.0401	-0.261
Mof_H 	H 	0.9765	0.7659	0.0778	0.131
Mof_C 	C 	0.92533	0.7543	0.0149	0.143
Mof_H 	H 	0.902	0.7802	0.0358	-0.006
Mof_C 	C 	0.14179	0.2463	0.86302	0.408
Mof_C 	C 	0.10533	0.1941	0.832	-0.195
Mof_C 	C 	0.08957	0.1223	0.85621	0.143
Mof_H 	H 	0.103	0.1045	0.8923	-0.002
Mof_C 	C 	0.05487	0.0765	0.8289	-0.259
Mof_H 	H 	0.0441	0.028	0.8462	0.131
Mof_C 	C 	0.03594	0.1024	0.7759	0.281
Mof_C 	C 	0.05249	0.1714	0.7496	-0.262
Mof_H 	H 	0.0402	0.1874	0.7125	0.128
Mof_C 	C 	0.08731	0.2175	0.7779	0.144
Mof_H 	H 	0.0988	0.2651	0.7601	-0.006
Mof_C 	C 	0.24903	0.119	0.94037	0.411
Mof_C 	C 	0.23145	0.0378	0.9585	-0.208
Mof_C 	C 	0.25087	0.9653	0.94003	0.155
Mof_H 	H 	0.2736	0.9664	0.9118	-0.007
Mof_C 	C 	0.23722	0.8912	0.9627	-0.266
Mof_H 	H 	0.2506	0.8415	0.9505	0.138
Mof_C 	C 	0.20358	0.8912	0.00341	0.284
Mof_C 	C 	0.18242	0.962	0.0202	-0.273
Mof_H 	H 	0.1584	0.9602	0.0467	0.124
Mof_C 	C 	0.19647	0.0361	0.99814	0.141
Mof_H 	H 	0.1824	0.0855	0.0099	-0.021
Mof_C 	C 	0.24569	0.7322	0.25641	0.421
Mof_C 	C 	0.23242	0.7564	0.19516	-0.208
Mof_C 	C 	0.25389	0.8204	0.16801	0.154
Mof_H 	H 	0.2784	0.849	0.188	-0.018
Mof_C 	C 	0.24019	0.8436	0.11209	-0.278
Mof_H 	H 	0.2549	0.8881	0.0941	0.125
Mof_C 	C 	0.20483	0.8008	0.0831	0.283
Mof_C 	C 	0.18268	0.7363	0.1093	-0.264
Mof_H 	H 	0.1582	0.7078	0.0891	0.138
Mof_C 	C 	0.19665	0.7141	0.16518	0.15
Mof_H 	H 	0.1818	0.6698	0.1832	-0.012
Mof_Co	Co	0.70194	0.78137	0.96484	1.191
Mof_Co	Co	0.70489	0.89365	0.84334	1.135
Mof_Co	Co	0.79116	0.74453	0.87019	1.158
Mof_O 	O 	0.66446	0.8865	0.9745	-0.442
Mof_O 	O 	0.68518	0.97403	0.90538	-0.475
Mof_O 	O 	0.54661	0.1977	0.03859	-0.3
Mof_O 	O 	0.33378	0.26112	0.96226	-0.478
Mof_O 	O 	0.35964	0.2141	0.88085	-0.42
Mof_O 	O 	0.66222	0.71572	0.90684	-0.44
Mof_O 	O 	0.6477	0.81634	0.84313	-0.454
Mof_O 	O 	0.74405	0.67701	0.97603	-0.556
Mof_O 	O 	0.76792	0.62787	0.89302	-0.419
Mof_O 	O 	0.68945	0.3166	0.02635	-0.303
Mof_O 	O 	0.77292	0.2779	0.2862	-0.452
Mof_O 	O 	0.72774	0.1679	0.27355	-0.493
Mof_O 	O 	0.74473	0.82399	0.90116	-0.792
Mof_H 	H 	0.7627	0.8579	0.9187	0.235
Mof_C 	C 	0.66402	0.9554	0.94991	0.407
Mof_C 	C 	0.63474	0.0208	0.97526	-0.201
Mof_C 	C 	0.63979	0.1017	0.96026	0.152
Mof_H 	H 	0.6633	0.1169	0.9351	-0.009
Mof_C 	C 	0.61075	0.1613	0.9815	-0.269
Mof_H 	H 	0.6145	0.217	0.9714	0.14
Mof_C 	C 	0.57649	0.1383	0.0174	0.279
Mof_C 	C 	0.57122	0.0582	0.0341	-0.262
Mof_H 	H 	0.5478	0.0433	0.0595	0.128
Mof_C 	C 	0.60088	0.9994	0.013	0.144
Mof_H 	H 	0.5979	0.9441	0.0245	0.001
Mof_C 	C 	0.36694	0.2338	0.93334	0.363
Mof_C 	C 	0.41458	0.226	0.9594	-0.184
Mof_C 	C 	0.4497	0.1885	0.929	0.135
Mof_H 	H 	0.4431	0.1702	0.8906	0.001
Mof_C 	C 	0.49392	0.178	0.9544	-0.254
Mof_H 	H 	0.5174	0.1519	0.9338	0.121
Mof_C 	C 	0.50365	0.2057	0.01	0.274
Mof_C 	C 	0.46948	0.2452	0.0401	-0.24
Mof_H 	H 	0.4765	0.2659	0.0778	0.126
Mof_C 	C 	0.42533	0.2543	0.0149	0.128
Mof_H 	H 	0.402	0.2802	0.0358	-0.001
Mof_C 	C 	0.64179	0.7463	0.86302	0.408
Mof_C 	C 	0.60533	0.6941	0.832	-0.195
Mof_C 	C 	0.58957	0.6223	0.85621	0.143
Mof_H 	H 	0.603	0.6045	0.8923	-0.002
Mof_C 	C 	0.55487	0.5765	0.8289	-0.259
Mof_H 	H 	0.5441	0.528	0.8462	0.131
Mof_C 	C 	0.53594	0.6024	0.7759	0.281
Mof_C 	C 	0.55249	0.6714	0.7496	-0.263
Mof_H 	H 	0.5402	0.6874	0.7125	0.127
Mof_C 	C 	0.58731	0.7175	0.7779	0.144
Mof_H 	H 	0.5988	0.7651	0.7601	-0.007
Mof_C 	C 	0.74903	0.619	0.94037	0.411
Mof_C 	C 	0.73145	0.5378	0.9585	-0.208
Mof_C 	C 	0.75087	0.4653	0.94003	0.155
Mof_H 	H 	0.7736	0.4664	0.9118	-0.007
Mof_C 	C 	0.73722	0.3912	0.9627	-0.264
Mof_H 	H 	0.7506	0.3415	0.9505	0.138
Mof_C 	C 	0.70358	0.3912	0.00341	0.283
Mof_C 	C 	0.68242	0.462	0.0202	-0.272
Mof_H 	H 	0.6584	0.4602	0.0467	0.123
Mof_C 	C 	0.69647	0.5361	0.99814	0.139
Mof_H 	H 	0.6824	0.5855	0.0099	-0.02
Mof_C 	C 	0.74569	0.2322	0.25641	0.421
Mof_C 	C 	0.73242	0.2564	0.19516	-0.208
Mof_C 	C 	0.75389	0.3204	0.16801	0.154
Mof_H 	H 	0.7784	0.349	0.188	-0.018
Mof_C 	C 	0.74019	0.3436	0.11209	-0.278
Mof_H 	H 	0.7549	0.3881	0.0941	0.125
Mof_C 	C 	0.70483	0.3008	0.0831	0.283
Mof_C 	C 	0.68268	0.2363	0.1093	-0.264
Mof_H 	H 	0.6582	0.2078	0.0891	0.138
Mof_C 	C 	0.69665	0.2141	0.16518	0.15
Mof_H 	H 	0.6818	0.1698	0.1832	-0.012
Mof_Co	Co	0.79806	0.28137	0.53516	1.191
Mof_Co	Co	0.79511	0.39365	0.65666	1.135
Mof_Co	Co	0.70884	0.24453	0.62981	1.158
Mof_O 	O 	0.83554	0.3865	0.5255	-0.442
Mof_O 	O 	0.81482	0.47403	0.59462	-0.475
Mof_O 	O 	0.95339	0.6977	0.46141	-0.296
Mof_O 	O 	0.16622	0.76112	0.53774	-0.477
Mof_O 	O 	0.14036	0.7141	0.61915	-0.419
Mof_O 	O 	0.83778	0.21572	0.59316	-0.44
Mof_O 	O 	0.8523	0.31634	0.65687	-0.454
Mof_O 	O 	0.75595	0.17701	0.52397	-0.556
Mof_O 	O 	0.73208	0.12787	0.60698	-0.419
Mof_O 	O 	0.81055	0.8166	0.47365	-0.303
Mof_O 	O 	0.72708	0.7779	0.2138	-0.452
Mof_O 	O 	0.77226	0.6679	0.22645	-0.492
Mof_O 	O 	0.75527	0.32399	0.59884	-0.792
Mof_H 	H 	0.7373	0.3579	0.5813	0.235
Mof_C 	C 	0.83598	0.4554	0.55009	0.408
Mof_C 	C 	0.86526	0.5208	0.52474	-0.201
Mof_C 	C 	0.86021	0.6017	0.53974	0.152
Mof_H 	H 	0.8367	0.6169	0.5649	-0.01
Mof_C 	C 	0.88925	0.6613	0.5185	-0.27
Mof_H 	H 	0.8855	0.717	0.5286	0.14
Mof_C 	C 	0.92351	0.6383	0.4826	0.278
Mof_C 	C 	0.92878	0.5582	0.4659	-0.26
Mof_H 	H 	0.9522	0.5433	0.4405	0.126
Mof_C 	C 	0.89912	0.4994	0.487	0.143
Mof_H 	H 	0.9021	0.4441	0.4755	0.001
Mof_C 	C 	0.13306	0.7338	0.56666	0.36
Mof_C 	C 	0.08542	0.726	0.5406	-0.175
Mof_C 	C 	0.0503	0.6885	0.571	0.12
Mof_H 	H 	0.0569	0.6702	0.6094	0.006
Mof_C 	C 	0.00608	0.678	0.5456	-0.23
Mof_H 	H 	0.9826	0.6519	0.5662	0.11
Mof_C 	C 	0.99635	0.7057	0.49	0.255
Mof_C 	C 	0.03052	0.7452	0.4599	-0.224
Mof_H 	H 	0.0235	0.7659	0.4222	0.122
Mof_C 	C 	0.07467	0.7543	0.4851	0.118
Mof_H 	H 	0.098	0.7802	0.4642	0.003
Mof_C 	C 	0.85821	0.2463	0.63698	0.407
Mof_C 	C 	0.89467	0.1941	0.668	-0.194
Mof_C 	C 	0.91043	0.1223	0.64379	0.14
Mof_H 	H 	0.897	0.1045	0.6077	-0.001
Mof_C 	C 	0.94513	0.0765	0.6711	-0.256
Mof_H 	H 	0.9559	0.028	0.6538	0.128
Mof_C 	C 	0.96406	0.1024	0.7241	0.274
Mof_C 	C 	0.94751	0.1714	0.7504	-0.26
Mof_H 	H 	0.9598	0.1874	0.7875	0.125
Mof_C 	C 	0.91269	0.2175	0.7221	0.141
Mof_H 	H 	0.9012	0.2651	0.7399	-0.006
Mof_C 	C 	0.75097	0.119	0.55963	0.41
Mof_C 	C 	0.76855	0.0378	0.5415	-0.207
Mof_C 	C 	0.74913	0.9653	0.55997	0.154
Mof_H 	H 	0.7264	0.9664	0.5882	-0.007
Mof_C 	C 	0.76278	0.8912	0.5373	-0.265
Mof_H 	H 	0.7494	0.8415	0.5495	0.138
Mof_C 	C 	0.79642	0.8912	0.49659	0.283
Mof_C 	C 	0.81758	0.962	0.4798	-0.271
Mof_H 	H 	0.8416	0.9602	0.4533	0.123
Mof_C 	C 	0.80353	0.0361	0.50186	0.137
Mof_H 	H 	0.8176	0.0855	0.4901	-0.019
Mof_C 	C 	0.75431	0.7322	0.24359	0.421
Mof_C 	C 	0.76758	0.7564	0.30484	-0.208
Mof_C 	C 	0.74611	0.8204	0.33199	0.154
Mof_H 	H 	0.7216	0.849	0.312	-0.018
Mof_C 	C 	0.75981	0.8436	0.38791	-0.278
Mof_H 	H 	0.7451	0.8881	0.4059	0.125
Mof_C 	C 	0.79517	0.8008	0.4169	0.283
Mof_C 	C 	0.81732	0.7363	0.3907	-0.264
Mof_H 	H 	0.8418	0.7078	0.4109	0.138
Mof_C 	C 	0.80335	0.7141	0.33482	0.15
Mof_H 	H 	0.8182	0.6698	0.3168	-0.012
Mof_Co	Co	0.29806	0.78137	0.53516	1.191
Mof_Co	Co	0.29511	0.89365	0.65666	1.135
Mof_Co	Co	0.20884	0.74453	0.62981	1.158
Mof_O 	O 	0.33554	0.8865	0.5255	-0.443
Mof_O 	O 	0.31482	0.97403	0.59462	-0.475
Mof_O 	O 	0.45339	0.1977	0.46141	-0.301
Mof_O 	O 	0.66622	0.26112	0.53774	-0.478
Mof_O 	O 	0.64036	0.2141	0.61915	-0.42
Mof_O 	O 	0.33778	0.71572	0.59316	-0.44
Mof_O 	O 	0.3523	0.81634	0.65687	-0.454
Mof_O 	O 	0.25595	0.67701	0.52397	-0.556
Mof_O 	O 	0.23208	0.62787	0.60698	-0.419
Mof_O 	O 	0.31055	0.3166	0.47365	-0.302
Mof_O 	O 	0.22708	0.2779	0.2138	-0.452
Mof_O 	O 	0.27226	0.1679	0.22645	-0.492
Mof_O 	O 	0.25527	0.82399	0.59884	-0.792
Mof_H 	H 	0.2373	0.8579	0.5813	0.235
Mof_C 	C 	0.33598	0.9554	0.55009	0.408
Mof_C 	C 	0.36526	0.0208	0.52474	-0.202
Mof_C 	C 	0.36021	0.1017	0.53974	0.153
Mof_H 	H 	0.3367	0.1169	0.5649	-0.01
Mof_C 	C 	0.38925	0.1613	0.5185	-0.272
Mof_H 	H 	0.3855	0.217	0.5286	0.141
Mof_C 	C 	0.42351	0.1383	0.4826	0.281
Mof_C 	C 	0.42878	0.0582	0.4659	-0.262
Mof_H 	H 	0.4522	0.0433	0.4405	0.128
Mof_C 	C 	0.39912	0.9994	0.487	0.145
Mof_H 	H 	0.4021	0.9441	0.4755	0
Mof_C 	C 	0.63306	0.2338	0.56666	0.364
Mof_C 	C 	0.58542	0.226	0.5406	-0.186
Mof_C 	C 	0.5503	0.1885	0.571	0.137
Mof_H 	H 	0.5569	0.1702	0.6094	0
Mof_C 	C 	0.50608	0.178	0.5456	-0.257
Mof_H 	H 	0.4826	0.1519	0.5662	0.122
Mof_C 	C 	0.49635	0.2057	0.49	0.277
Mof_C 	C 	0.53052	0.2452	0.4599	-0.242
Mof_H 	H 	0.5235	0.2659	0.4222	0.127
Mof_C 	C 	0.57467	0.2543	0.4851	0.131
Mof_H 	H 	0.598	0.2802	0.4642	-0.002
Mof_C 	C 	0.35821	0.7463	0.63698	0.408
Mof_C 	C 	0.39467	0.6941	0.668	-0.195
Mof_C 	C 	0.41043	0.6223	0.64379	0.143
Mof_H 	H 	0.397	0.6045	0.6077	-0.002
Mof_C 	C 	0.44513	0.5765	0.6711	-0.259
Mof_H 	H 	0.4559	0.528	0.6538	0.131
Mof_C 	C 	0.46406	0.6024	0.7241	0.281
Mof_C 	C 	0.44751	0.6714	0.7504	-0.263
Mof_H 	H 	0.4598	0.6874	0.7875	0.127
Mof_C 	C 	0.41269	0.7175	0.7221	0.144
Mof_H 	H 	0.4012	0.7651	0.7399	-0.007
Mof_C 	C 	0.25097	0.619	0.55963	0.41
Mof_C 	C 	0.26855	0.5378	0.5415	-0.207
Mof_C 	C 	0.24913	0.4653	0.55997	0.155
Mof_H 	H 	0.2264	0.4664	0.5882	-0.007
Mof_C 	C 	0.26278	0.3912	0.5373	-0.265
Mof_H 	H 	0.2494	0.3415	0.5495	0.138
Mof_C 	C 	0.29642	0.3912	0.49659	0.283
Mof_C 	C 	0.31758	0.462	0.4798	-0.271
Mof_H 	H 	0.3416	0.4602	0.4533	0.123
Mof_C 	C 	0.30353	0.5361	0.50186	0.137
Mof_H 	H 	0.3176	0.5855	0.4901	-0.019
Mof_C 	C 	0.25431	0.2322	0.24359	0.421
Mof_C 	C 	0.26758	0.2564	0.30484	-0.208
Mof_C 	C 	0.24611	0.3204	0.33199	0.154
Mof_H 	H 	0.2216	0.349	0.312	-0.018
Mof_C 	C 	0.25981	0.3436	0.38791	-0.278
Mof_H 	H 	0.2451	0.3881	0.4059	0.125
Mof_C 	C 	0.29517	0.3008	0.4169	0.283
Mof_C 	C 	0.31732	0.2363	0.3907	-0.264
Mof_H 	H 	0.3418	0.2078	0.4109	0.138
Mof_C 	C 	0.30335	0.2141	0.33482	0.15
Mof_H 	H 	0.3182	0.1698	0.3168	-0.012
Mof_O 	O 	7.92228e-34	0.9433	0.25	-0.297
Mof_O 	O 	0.5	0.4433	0.25	-0.302
Mof_O 	O 	2.37668e-33	0.0567	0.75	-0.297
Mof_O 	O 	0.5	0.5567	0.75	-0.302
_end
