data_functionalizedCrystal
_audit_creation_method	'EQeq! by Chris Wilmer'
_symmetry_space_group_name_H-M	'P1'
_symmetry_Int_Tables_number	1
_symmetry_cell_setting	triclinic
loop_
_symmetry_equiv_pos_as_xyz
  x,y,z
_cell_length_a	12
_cell_length_b	12.611
_cell_length_c	11.526
_cell_angle_alpha	115.75
_cell_angle_beta	106.99
_cell_angle_gamma	69.34
loop_
_atom_site_label
_atom_site_type_symbol
_atom_site_fract_x
_atom_site_fract_y
_atom_site_fract_z
_atom_site_charge
Mof_S 	S 	0.743	0.3944	0.8467	0.978
Mof_O 	O 	0.6601	0.401	0.924	-0.357
Mof_O 	O 	0.8225	0.4703	0.9291	-0.235
Mof_O 	O 	0.6808	0.423	0.7312	-0.197
Mof_O 	O 	0.8189	0.2627	0.8	-0.192
Mof_O 	O 	0.867	0.377	0.902	-0.211
Mof_O 	O 	0.689	0.536	0.854	-0.178
Mof_O 	O 	0.717	0.318	0.724	-0.249
Mof_N 	N 	0.6024	0.5915	0.1877	-0.183
Mof_N 	N 	0.906	0.9069	0.8094	-0.143
Mof_N 	N 	0.0044	0.4943	0.8061	-0.142
Mof_C 	C 	0.592	0.587	0.297	0.081
Mof_C 	C 	0.649	0.649	0.42	-0.114
Mof_C 	C 	0.7221	0.72	0.4345	0.059
Mof_C 	C 	0.7335	0.7222	0.319	-0.124
Mof_C 	C 	0.674	0.66	0.2019	0.079
Mof_C 	C 	0.909	0.921	0.703	0.083
Mof_C 	C 	0.851	0.862	0.582	-0.103
Mof_C 	C 	0.7845	0.7836	0.5635	0.054
Mof_C 	C 	0.782	0.7726	0.676	-0.108
Mof_C 	C 	0.842	0.8334	0.796	0.082
Mof_C 	C 	0.945	0.425	0.693	0.057
Mof_C 	C 	0.941	0.43	0.574	-0.014
Mof_C 	C 	0.002	0.5003	0.5629	-0.076
Mof_C 	C 	0.068	0.5642	0.678	-0.045
Mof_C 	C 	0.069	0.559	0.7948	0.027
Mof_H 	H 	0.5404	0.5383	0.2904	0.025
Mof_H 	H 	0.6386	0.6411	0.4957	0.083
Mof_H 	H 	0.7836	0.768	0.3221	0.074
Mof_H 	H 	0.6843	0.6622	0.123	-0.01
Mof_H 	H 	0.9552	0.9757	0.7116	0.035
Mof_H 	H 	0.8551	0.8751	0.5065	0.076
Mof_H 	H 	0.7371	0.7211	0.671	0.085
Mof_H 	H 	0.8387	0.8219	0.8722	0.036
Mof_H 	H 	0.9043	0.3695	0.696	0.057
Mof_H 	H 	0.8947	0.3817	0.4953	0.042
Mof_H 	H 	0.1106	0.6143	0.6755	0.048
Mof_H 	H 	0.1184	0.6042	0.8737	0.072
Mof_S 	S 	0.257	0.6056	0.1533	1.052
Mof_O 	O 	0.3399	0.599	0.076	-0.459
Mof_O 	O 	0.1775	0.5297	0.0709	-0.315
Mof_O 	O 	0.3192	0.577	0.2688	-0.206
Mof_O 	O 	0.1811	0.7373	0.2	-0.233
Mof_O 	O 	0.133	0.623	0.098	-0.275
Mof_O 	O 	0.311	0.464	0.146	-0.237
Mof_O 	O 	0.283	0.682	0.276	-0.261
Mof_N 	N 	0.3976	0.4085	0.8123	-0.145
Mof_N 	N 	0.094	0.0931	0.1906	-0.193
Mof_N 	N 	0.9956	0.5057	0.1939	-0.156
Mof_C 	C 	0.408	0.413	0.703	0.079
Mof_C 	C 	0.351	0.351	0.58	-0.104
Mof_C 	C 	0.2779	0.28	0.5655	0.045
Mof_C 	C 	0.2665	0.2778	0.681	-0.107
Mof_C 	C 	0.326	0.34	0.7981	0.077
Mof_C 	C 	0.091	0.079	0.297	0.071
Mof_C 	C 	0.149	0.138	0.418	-0.122
Mof_C 	C 	0.2155	0.2164	0.4365	0.056
Mof_C 	C 	0.218	0.2274	0.324	-0.13
Mof_C 	C 	0.158	0.1666	0.204	0.07
Mof_C 	C 	0.055	0.575	0.307	0.059
Mof_C 	C 	0.059	0.57	0.426	-0.178
Mof_C 	C 	0.998	0.4997	0.4371	0.162
Mof_C 	C 	0.932	0.4358	0.322	-0.166
Mof_C 	C 	0.931	0.441	0.2052	0.094
Mof_H 	H 	0.4596	0.4617	0.7096	0.04
Mof_H 	H 	0.3614	0.3589	0.5043	0.075
Mof_H 	H 	0.2164	0.232	0.6779	0.073
Mof_H 	H 	0.3157	0.3378	0.877	0.051
Mof_H 	H 	0.0448	0.0243	0.2884	-0.005
Mof_H 	H 	0.1449	0.1249	0.4935	0.071
Mof_H 	H 	0.2629	0.2789	0.329	0.077
Mof_H 	H 	0.1613	0.1781	0.1278	-0.023
Mof_H 	H 	0.0957	0.6305	0.304	0.041
Mof_H 	H 	0.1053	0.6183	0.5047	0.091
Mof_H 	H 	0.8894	0.3857	0.3245	0.087
Mof_H 	H 	0.8816	0.3958	0.1263	-0.007
Mof_Fe	Fe	0.5	0.5	-0	0.601
Mof_Fe	Fe	-0	0	-0	0.332
Mof_Fe	Fe	-0	0.5	-0	0.566
_end
