data_functionalizedCrystal
_audit_creation_method	'EQeq! by Chris Wilmer'
_symmetry_space_group_name_H-M	'P1'
_symmetry_Int_Tables_number	1
_symmetry_cell_setting	triclinic
loop_
_symmetry_equiv_pos_as_xyz
  x,y,z
_cell_length_a	36.706
_cell_length_b	6.9945
_cell_length_c	6.1881
_cell_angle_alpha	90
_cell_angle_beta	97.42
_cell_angle_gamma	90
loop_
_atom_site_label
_atom_site_type_symbol
_atom_site_fract_x
_atom_site_fract_y
_atom_site_fract_z
_atom_site_charge
Mof_O 	O 	0.3467	0.4431	0.515	-0.249
Mof_O 	O 	0.2003	0.1901	0.212	-0.477
Mof_O 	O 	0.22436	0.3471	0.6236	-0.665
Mof_C 	C 	0.4489	0.4309	0.3068	0.002
Mof_H 	H 	0.4701	0.386	0.4031	-0.031
Mof_C 	C 	0.4147	0.427	0.3728	-0.044
Mof_H 	H 	0.4118	0.3862	0.519	0.037
Mof_C 	C 	0.3845	0.481	0.2314	-0.006
Mof_C 	C 	0.3888	0.5504	0.0271	-0.078
Mof_H 	H 	0.3681	0.6037	0.9339	0.084
Mof_C 	C 	0.4229	0.5428	0.9581	0.03
Mof_H 	H 	0.4254	0.5682	0.807	-0.017
Mof_C 	C 	0.1749	0.485	0.7627	0.017
Mof_C 	C 	0.1433	0.5584	0.6385	-0.848
Mof_H 	H 	0.1449	0.62	0.5016	0.277
Mof_C 	C 	0.1097	0.5405	0.7163	-0.433
Mof_H 	H 	0.0877	0.58	0.6274	0.131
Mof_C 	C 	0.1079	0.4656	0.9225	0.111
Mof_H 	H 	0.0847	0.4563	0.9768	0.026
Mof_C 	C 	0.1396	0.4043	0.0497	-0.096
Mof_H 	H 	0.1383	0.355	0.1932	0.064
Mof_C 	C 	0.1731	0.4142	0.9698	-0.074
Mof_C 	C 	0.2067	0.354	0.131	0.315
Mof_O 	O 	0.8467	0.9431	0.515	-0.413
Mof_O 	O 	0.7003	0.6901	0.212	-0.46
Mof_O 	O 	0.72436	0.8471	0.6236	-0.678
Mof_C 	C 	0.9489	0.9309	0.3068	-0.502
Mof_H 	H 	0.9701	0.886	0.4031	0.091
Mof_C 	C 	0.9147	0.927	0.3728	-0.323
Mof_H 	H 	0.9118	0.8862	0.519	0.112
Mof_C 	C 	0.8845	0.981	0.2314	0.371
Mof_C 	C 	0.8888	0.0504	0.0271	-1.633
Mof_H 	H 	0.8681	0.1037	0.9339	0.549
Mof_C 	C 	0.9229	0.0428	0.9581	-1.158
Mof_H 	H 	0.9254	0.0682	0.807	0.392
Mof_C 	C 	0.6749	0.985	0.7627	-0.062
Mof_C 	C 	0.6433	0.0584	0.6385	0.046
Mof_H 	H 	0.6449	0.12	0.5016	-0.002
Mof_C 	C 	0.6097	0.0405	0.7163	-0.015
Mof_H 	H 	0.5877	0.08	0.6274	0.014
Mof_C 	C 	0.6079	0.9656	0.9225	0.005
Mof_H 	H 	0.5847	0.9563	0.9768	0.021
Mof_C 	C 	0.6396	0.9043	0.0497	-0.066
Mof_H 	H 	0.6383	0.855	0.1932	0.043
Mof_C 	C 	0.6731	0.9142	0.9698	0.004
Mof_C 	C 	0.7067	0.854	0.131	0.272
Mof_O 	O 	0.6533	0.4431	0.485	-0.251
Mof_O 	O 	0.7997	0.1901	0.788	-0.479
Mof_O 	O 	0.77564	0.3471	0.3764	-0.663
Mof_C 	C 	0.5511	0.4309	0.6932	-0.003
Mof_H 	H 	0.5299	0.386	0.5969	-0.029
Mof_C 	C 	0.5853	0.427	0.6272	-0.031
Mof_H 	H 	0.5882	0.3862	0.481	0.03
Mof_C 	C 	0.6155	0.481	0.7686	-0.026
Mof_C 	C 	0.6112	0.5504	0.9729	-0.005
Mof_H 	H 	0.6319	0.6037	0.0661	0.041
Mof_C 	C 	0.5771	0.5428	0.0419	-0.023
Mof_H 	H 	0.5746	0.5682	0.193	-0.003
Mof_C 	C 	0.8251	0.485	0.2373	0.032
Mof_C 	C 	0.8567	0.5584	0.3615	-0.826
Mof_H 	H 	0.8551	0.62	0.4984	0.272
Mof_C 	C 	0.8903	0.5405	0.2837	-0.397
Mof_H 	H 	0.9123	0.58	0.3726	0.12
Mof_C 	C 	0.8921	0.4656	0.0775	0.065
Mof_H 	H 	0.9153	0.4563	0.0232	0.03
Mof_C 	C 	0.8604	0.4043	0.9503	-0.014
Mof_H 	H 	0.8617	0.355	0.8068	0.039
Mof_C 	C 	0.8269	0.4142	0.0302	-0.138
Mof_C 	C 	0.7933	0.354	0.869	0.355
Mof_O 	O 	0.1533	0.9431	0.485	-0.418
Mof_O 	O 	0.2997	0.6901	0.788	-0.462
Mof_O 	O 	0.27564	0.8471	0.3764	-0.677
Mof_C 	C 	0.0511	0.9309	0.6932	-0.525
Mof_H 	H 	0.0299	0.886	0.5969	0.095
Mof_C 	C 	0.0853	0.927	0.6272	-0.315
Mof_H 	H 	0.0882	0.8862	0.481	0.106
Mof_C 	C 	0.1155	0.981	0.7686	0.367
Mof_C 	C 	0.1112	0.0504	0.9729	-1.622
Mof_H 	H 	0.1319	0.1037	0.0661	0.522
Mof_C 	C 	0.0771	0.0428	0.0419	-1.228
Mof_H 	H 	0.0746	0.0682	0.193	0.409
Mof_C 	C 	0.3251	0.985	0.2373	-0.041
Mof_C 	C 	0.3567	0.0584	0.3615	0.014
Mof_H 	H 	0.3551	0.12	0.4984	0.011
Mof_C 	C 	0.3903	0.0405	0.2837	0.001
Mof_H 	H 	0.4123	0.08	0.3726	0.009
Mof_C 	C 	0.3921	0.9656	0.0775	-0.043
Mof_H 	H 	0.4153	0.9563	0.0232	0.032
Mof_C 	C 	0.3604	0.9043	0.9503	-0.002
Mof_H 	H 	0.3617	0.855	0.8068	0.024
Mof_C 	C 	0.3269	0.9142	0.0302	-0.05
Mof_C 	C 	0.2933	0.854	0.869	0.306
Mof_O 	O 	0.6533	0.5569	0.485	-0.25
Mof_O 	O 	0.7997	0.8099	0.788	-0.48
Mof_O 	O 	0.77564	0.6529	0.3764	-0.659
Mof_C 	C 	0.5511	0.5691	0.6932	0.006
Mof_H 	H 	0.5299	0.614	0.5969	-0.03
Mof_C 	C 	0.5853	0.573	0.6272	-0.032
Mof_H 	H 	0.5882	0.6138	0.481	0.031
Mof_C 	C 	0.6155	0.519	0.7686	-0.029
Mof_C 	C 	0.6112	0.4496	0.9729	0.009
Mof_H 	H 	0.6319	0.3963	0.0661	0.036
Mof_C 	C 	0.5771	0.4572	0.0419	-0.016
Mof_H 	H 	0.5746	0.4318	0.193	-0.006
Mof_C 	C 	0.8251	0.515	0.2373	-0.141
Mof_C 	C 	0.8567	0.4416	0.3615	0.815
Mof_H 	H 	0.8551	0.38	0.4984	-0.243
Mof_C 	C 	0.8903	0.4595	0.2837	0.352
Mof_H 	H 	0.9123	0.42	0.3726	-0.087
Mof_C 	C 	0.8921	0.5344	0.0775	-0.125
Mof_H 	H 	0.9153	0.5437	0.0232	-0.016
Mof_C 	C 	0.8604	0.5957	0.9503	0.03
Mof_H 	H 	0.8617	0.645	0.8068	0.005
Mof_C 	C 	0.8269	0.5858	0.0302	0.013
Mof_C 	C 	0.7933	0.646	0.869	0.321
Mof_O 	O 	0.1533	0.0569	0.485	-0.132
Mof_O 	O 	0.2997	0.3099	0.788	-0.467
Mof_O 	O 	0.27564	0.1529	0.3764	-0.66
Mof_C 	C 	0.0511	0.0691	0.6932	0.481
Mof_H 	H 	0.0299	0.114	0.5969	-0.153
Mof_C 	C 	0.0853	0.073	0.6272	0.285
Mof_H 	H 	0.0882	0.1138	0.481	-0.061
Mof_C 	C 	0.1155	0.019	0.7686	-0.471
Mof_C 	C 	0.1112	0.9496	0.9729	1.655
Mof_H 	H 	0.1319	0.8963	0.0661	-0.457
Mof_C 	C 	0.0771	0.9572	0.0419	1.147
Mof_H 	H 	0.0746	0.9318	0.193	-0.41
Mof_C 	C 	0.3251	0.015	0.2373	-0.081
Mof_C 	C 	0.3567	0.9416	0.3615	-0.015
Mof_H 	H 	0.3551	0.88	0.4984	0.018
Mof_C 	C 	0.3903	0.9595	0.2837	-0.05
Mof_H 	H 	0.4123	0.92	0.3726	0.028
Mof_C 	C 	0.3921	0.0344	0.0775	-0.009
Mof_H 	H 	0.4153	0.0437	0.0232	-0.017
Mof_C 	C 	0.3604	0.0957	0.9503	0.004
Mof_H 	H 	0.3617	0.145	0.8068	0.024
Mof_C 	C 	0.3269	0.0858	0.0302	-0.052
Mof_C 	C 	0.2933	0.146	0.869	0.335
Mof_O 	O 	0.3467	0.5569	0.515	-0.248
Mof_O 	O 	0.2003	0.8099	0.212	-0.477
Mof_O 	O 	0.22436	0.6529	0.6236	-0.661
Mof_C 	C 	0.4489	0.5691	0.3068	0.013
Mof_H 	H 	0.4701	0.614	0.4031	-0.033
Mof_C 	C 	0.4147	0.573	0.3728	-0.045
Mof_H 	H 	0.4118	0.6138	0.519	0.038
Mof_C 	C 	0.3845	0.519	0.2314	-0.011
Mof_C 	C 	0.3888	0.4496	0.0271	-0.056
Mof_H 	H 	0.3681	0.3963	0.9339	0.078
Mof_C 	C 	0.4229	0.4572	0.9581	0.039
Mof_H 	H 	0.4254	0.4318	0.807	-0.02
Mof_C 	C 	0.1749	0.515	0.7627	-0.165
Mof_C 	C 	0.1433	0.4416	0.6385	0.872
Mof_H 	H 	0.1449	0.38	0.5016	-0.263
Mof_C 	C 	0.1097	0.4595	0.7163	0.35
Mof_H 	H 	0.0877	0.42	0.6274	-0.086
Mof_C 	C 	0.1079	0.5344	0.9225	-0.085
Mof_H 	H 	0.0847	0.5437	0.9768	-0.023
Mof_C 	C 	0.1396	0.5957	0.0497	-0.043
Mof_H 	H 	0.1383	0.645	0.1932	0.026
Mof_C 	C 	0.1731	0.5858	0.9698	0.077
Mof_C 	C 	0.2067	0.646	0.131	0.281
Mof_O 	O 	0.8467	0.0569	0.515	-0.131
Mof_O 	O 	0.7003	0.3099	0.212	-0.464
Mof_O 	O 	0.72436	0.1529	0.6236	-0.662
Mof_C 	C 	0.9489	0.0691	0.3068	0.469
Mof_H 	H 	0.9701	0.114	0.4031	-0.146
Mof_C 	C 	0.9147	0.073	0.3728	0.268
Mof_H 	H 	0.9118	0.1138	0.519	-0.052
Mof_C 	C 	0.8845	0.019	0.2314	-0.436
Mof_C 	C 	0.8888	0.9496	0.0271	1.528
Mof_H 	H 	0.8681	0.8963	0.9339	-0.399
Mof_C 	C 	0.9229	0.9572	0.9581	1.185
Mof_H 	H 	0.9254	0.9318	0.807	-0.419
Mof_C 	C 	0.6749	0.015	0.7627	-0.097
Mof_C 	C 	0.6433	0.9416	0.6385	-0.013
Mof_H 	H 	0.6449	0.88	0.5016	0.016
Mof_C 	C 	0.6097	0.9595	0.7163	-0.073
Mof_H 	H 	0.5877	0.92	0.6274	0.036
Mof_C 	C 	0.6079	0.0344	0.9225	0.028
Mof_H 	H 	0.5847	0.0437	0.9768	-0.017
Mof_C 	C 	0.6396	0.0957	0.0497	-0.083
Mof_H 	H 	0.6383	0.145	0.1932	0.05
Mof_C 	C 	0.6731	0.0858	0.9698	0.02
Mof_C 	C 	0.7067	0.146	0.131	0.292
Mof_Tb	Tb	0.2801	0.5	0.47873	2.287
Mof_O 	O 	0.3193	0.5	0.1937	-0.446
Mof_O 	O 	0.2329	0.5	0.1627	-0.533
Mof_N 	N 	0.4531	0.5	0.0996	-0.274
Mof_C 	C 	0.3486	0.5	0.319	0.33
Mof_C 	C 	0.2097	0.5	0.667	0.532
Mof_Tb	Tb	0.7801	0	0.47873	2.38
Mof_O 	O 	0.8193	0	0.1937	-0.454
Mof_O 	O 	0.7329	0	0.1627	-0.519
Mof_N 	N 	0.9531	1.00145e-33	0.0996	-0.218
Mof_C 	C 	0.8486	4.00582e-33	0.319	0.416
Mof_C 	C 	0.7097	0	0.667	0.559
Mof_Tb	Tb	0.7199	0.5	0.52127	2.29
Mof_O 	O 	0.6807	0.5	0.8063	-0.438
Mof_O 	O 	0.7671	0.5	0.8373	-0.54
Mof_N 	N 	0.5469	0.5	0.9004	-0.237
Mof_C 	C 	0.6514	0.5	0.681	0.346
Mof_C 	C 	0.7903	0.5	0.333	0.513
Mof_Tb	Tb	0.2199	4.00582e-33	0.52127	2.385
Mof_O 	O 	0.1807	8.01164e-33	0.8063	-0.446
Mof_O 	O 	0.2671	8.01164e-33	0.8373	-0.523
Mof_N 	N 	0.0469	0	0.9004	-0.182
Mof_C 	C 	0.1514	0	0.681	0.434
Mof_C 	C 	0.2903	0	0.333	0.541
Mof_Cu	Cu	0.5	0.5	-0	0.79
Mof_Cu	Cu	-0	0	-0	0.81
_end
