data_functionalizedCrystal
_audit_creation_method	'EQeq! by Chris Wilmer'
_symmetry_space_group_name_H-M	'P1'
_symmetry_Int_Tables_number	1
_symmetry_cell_setting	triclinic
loop_
_symmetry_equiv_pos_as_xyz
  x,y,z
_cell_length_a	21.8599
_cell_length_b	21.8599
_cell_length_c	21.3525
_cell_angle_alpha	90
_cell_angle_beta	90
_cell_angle_gamma	120
loop_
_atom_site_label
_atom_site_type_symbol
_atom_site_fract_x
_atom_site_fract_y
_atom_site_fract_z
_atom_site_charge
Mof_Cu	Cu	0.53753	0.06785	0.48923	0.899
Mof_O 	O 	0.4571	0.0541	0.43613	-0.393
Mof_O 	O 	0.3911	0.9393	0.45808	-0.404
Mof_O 	O 	0.3758	0.1339	0.25007	-0.405
Mof_O 	O 	0.26	0.0816	0.23111	-0.411
Mof_O 	O 	0.1579	0.8072	0.4519	-0.24
Mof_N 	N 	0.1458	0.8816	0.3814	-0.137
Mof_C 	C 	0.4014	0.9946	0.4322	0.34
Mof_C 	C 	0.3128	0.0892	0.2605	0.349
Mof_C 	C 	0.3552	0.043	0.3488	-0.015
Mof_H 	H 	0.401	0.0799	0.3422	0.066
Mof_C 	C 	0.3415	0.9916	0.3936	-0.034
Mof_C 	C 	0.2729	0.9372	0.4041	-0.096
Mof_H 	H 	0.2643	0.9022	0.4332	0.095
Mof_C 	C 	0.217	0.935	0.3711	0.115
Mof_C 	C 	0.2307	0.9859	0.3256	-0.087
Mof_H 	H 	0.1937	0.9845	0.303	0.08
Mof_C 	C 	0.2993	0.0385	0.314	-0.042
Mof_C 	C 	0.1219	0.8239	0.4208	0.235
Mof_C 	C 	0.0874	0.882	0.3467	-0.158
Mof_H 	H 	0.091	0.8761	0.3021	0.093
Mof_H 	H 	0.0865	0.9254	0.354	0.08
Mof_C 	C 	0.0234	0.8195	0.3742	0.131
Mof_C 	C 	0.044	0.7868	0.4168	-0.119
Mof_C 	C 	0.9956	0.7259	0.4473	0.069
Mof_H 	H 	0.0104	0.7034	0.4754	0.025
Mof_C 	C 	0.9257	0.6997	0.4354	-0.143
Mof_H 	H 	0.8919	0.6593	0.4559	0.099
Mof_C 	C 	0.9049	0.7335	0.3923	0.087
Mof_H 	H 	0.857	0.7146	0.3842	0.013
Mof_C 	C 	0.9523	0.7932	0.3616	-0.176
Mof_H 	H 	0.9375	0.8155	0.3333	0.097
Mof_Cu	Cu	0.2042	0.40118	0.82256	0.898
Mof_O 	O 	0.12377	0.38743	0.76946	-0.394
Mof_O 	O 	0.05777	0.27263	0.79141	-0.405
Mof_O 	O 	0.04247	0.46723	0.5834	-0.406
Mof_O 	O 	0.92667	0.41493	0.56444	-0.413
Mof_O 	O 	0.82457	0.14053	0.78523	-0.241
Mof_N 	N 	0.81247	0.21493	0.71473	-0.138
Mof_C 	C 	0.06807	0.32793	0.76553	0.339
Mof_C 	C 	0.97947	0.42253	0.59383	0.348
Mof_C 	C 	0.02187	0.37633	0.68213	-0.016
Mof_H 	H 	0.06767	0.41323	0.67553	0.065
Mof_C 	C 	0.00817	0.32493	0.72693	-0.035
Mof_C 	C 	0.93957	0.27053	0.73743	-0.097
Mof_H 	H 	0.93097	0.23553	0.76653	0.094
Mof_C 	C 	0.88367	0.26833	0.70443	0.115
Mof_C 	C 	0.89737	0.31923	0.65893	-0.087
Mof_H 	H 	0.86037	0.31783	0.63633	0.08
Mof_C 	C 	0.96597	0.37183	0.64733	-0.042
Mof_C 	C 	0.78857	0.15723	0.75413	0.235
Mof_C 	C 	0.75407	0.21533	0.68003	-0.159
Mof_H 	H 	0.75767	0.20943	0.63543	0.093
Mof_H 	H 	0.75317	0.25873	0.68733	0.08
Mof_C 	C 	0.69007	0.15283	0.70753	0.132
Mof_C 	C 	0.71067	0.12013	0.75013	-0.12
Mof_C 	C 	0.66227	0.05923	0.78063	0.071
Mof_H 	H 	0.67707	0.03673	0.80873	0.024
Mof_C 	C 	0.59237	0.03303	0.76873	-0.144
Mof_H 	H 	0.55857	0.99263	0.78923	0.1
Mof_C 	C 	0.57157	0.06683	0.72563	0.088
Mof_H 	H 	0.52367	0.04793	0.71753	0.012
Mof_C 	C 	0.61897	0.12653	0.69493	-0.177
Mof_H 	H 	0.60417	0.14883	0.66663	0.098
Mof_Cu	Cu	0.87086	0.73452	0.1559	0.898
Mof_O 	O 	0.79043	0.72077	0.1028	-0.394
Mof_O 	O 	0.72443	0.60597	0.12475	-0.405
Mof_O 	O 	0.70913	0.80057	0.91674	-0.406
Mof_O 	O 	0.59333	0.74827	0.89778	-0.413
Mof_O 	O 	0.49123	0.47387	0.11857	-0.241
Mof_N 	N 	0.47913	0.54827	0.04807	-0.138
Mof_C 	C 	0.73473	0.66127	0.09887	0.339
Mof_C 	C 	0.64613	0.75587	0.92717	0.348
Mof_C 	C 	0.68853	0.70967	0.01547	-0.016
Mof_H 	H 	0.73433	0.74657	0.00887	0.065
Mof_C 	C 	0.67483	0.65827	0.06027	-0.035
Mof_C 	C 	0.60623	0.60387	0.07077	-0.096
Mof_H 	H 	0.59763	0.56887	0.09987	0.094
Mof_C 	C 	0.55033	0.60167	0.03777	0.115
Mof_C 	C 	0.56403	0.65257	0.99227	-0.086
Mof_H 	H 	0.52703	0.65117	0.96967	0.08
Mof_C 	C 	0.63263	0.70517	0.98067	-0.042
Mof_C 	C 	0.45523	0.49057	0.08747	0.235
Mof_C 	C 	0.42073	0.54867	0.01337	-0.159
Mof_H 	H 	0.42433	0.54277	0.96877	0.093
Mof_H 	H 	0.41983	0.59207	0.02067	0.08
Mof_C 	C 	0.35673	0.48617	0.04087	0.132
Mof_C 	C 	0.37733	0.45347	0.08347	-0.119
Mof_C 	C 	0.32893	0.39257	0.11397	0.07
Mof_H 	H 	0.34373	0.37007	0.14207	0.025
Mof_C 	C 	0.25903	0.36637	0.10207	-0.143
Mof_H 	H 	0.22523	0.32597	0.12257	0.099
Mof_C 	C 	0.23823	0.40017	0.05897	0.088
Mof_H 	H 	0.19033	0.38127	0.05087	0.012
Mof_C 	C 	0.28563	0.45987	0.02827	-0.177
Mof_H 	H 	0.27083	0.48217	0.99997	0.098
Mof_Cu	Cu	0.93215	0.46968	0.48923	0.898
Mof_O 	O 	0.9459	0.403	0.43613	-0.394
Mof_O 	O 	0.0607	0.4518	0.45808	-0.405
Mof_O 	O 	0.8661	0.2419	0.25007	-0.406
Mof_O 	O 	0.9184	0.1784	0.23111	-0.412
Mof_O 	O 	0.1928	0.3507	0.4519	-0.241
Mof_N 	N 	0.1184	0.2642	0.3814	-0.138
Mof_C 	C 	0.0054	0.4068	0.4322	0.339
Mof_C 	C 	0.9108	0.2236	0.2605	0.348
Mof_C 	C 	0.957	0.3122	0.3488	-0.016
Mof_H 	H 	0.9201	0.3211	0.3422	0.065
Mof_C 	C 	0.0084	0.3499	0.3936	-0.035
Mof_C 	C 	0.0628	0.3357	0.4041	-0.097
Mof_H 	H 	0.0978	0.3621	0.4332	0.094
Mof_C 	C 	0.065	0.282	0.3711	0.115
Mof_C 	C 	0.0141	0.2448	0.3256	-0.087
Mof_H 	H 	0.0155	0.2092	0.303	0.08
Mof_C 	C 	0.9615	0.2608	0.314	-0.042
Mof_C 	C 	0.1761	0.298	0.4208	0.235
Mof_C 	C 	0.118	0.2054	0.3467	-0.158
Mof_H 	H 	0.1239	0.2149	0.3021	0.093
Mof_H 	H 	0.0746	0.1611	0.354	0.08
Mof_C 	C 	0.1805	0.2039	0.3742	0.132
Mof_C 	C 	0.2132	0.2572	0.4168	-0.119
Mof_C 	C 	0.2741	0.2697	0.4473	0.069
Mof_H 	H 	0.2966	0.307	0.4754	0.025
Mof_C 	C 	0.3003	0.226	0.4354	-0.143
Mof_H 	H 	0.3407	0.2326	0.4559	0.099
Mof_C 	C 	0.2665	0.1714	0.3923	0.087
Mof_H 	H 	0.2854	0.1424	0.3842	0.013
Mof_C 	C 	0.2068	0.1591	0.3616	-0.176
Mof_H 	H 	0.1845	0.122	0.3333	0.098
Mof_Cu	Cu	0.59882	0.80301	0.82256	0.898
Mof_O 	O 	0.61257	0.73633	0.76946	-0.394
Mof_O 	O 	0.72737	0.78513	0.79141	-0.405
Mof_O 	O 	0.53277	0.57523	0.5834	-0.406
Mof_O 	O 	0.58507	0.51173	0.56444	-0.413
Mof_O 	O 	0.85947	0.68403	0.78523	-0.241
Mof_N 	N 	0.78507	0.59753	0.71473	-0.138
Mof_C 	C 	0.67207	0.74013	0.76553	0.339
Mof_C 	C 	0.57747	0.55693	0.59383	0.348
Mof_C 	C 	0.62367	0.64553	0.68213	-0.016
Mof_H 	H 	0.58677	0.65443	0.67553	0.065
Mof_C 	C 	0.67507	0.68323	0.72693	-0.035
Mof_C 	C 	0.72947	0.66903	0.73743	-0.096
Mof_H 	H 	0.76447	0.69543	0.76653	0.094
Mof_C 	C 	0.73167	0.61533	0.70443	0.115
Mof_C 	C 	0.68077	0.57813	0.65893	-0.087
Mof_H 	H 	0.68217	0.54253	0.63633	0.08
Mof_C 	C 	0.62817	0.59413	0.64733	-0.042
Mof_C 	C 	0.84277	0.63133	0.75413	0.235
Mof_C 	C 	0.78467	0.53873	0.68003	-0.159
Mof_H 	H 	0.79057	0.54823	0.63543	0.093
Mof_H 	H 	0.74127	0.49443	0.68733	0.08
Mof_C 	C 	0.84717	0.53723	0.70753	0.132
Mof_C 	C 	0.87987	0.59053	0.75013	-0.12
Mof_C 	C 	0.94077	0.60303	0.78063	0.071
Mof_H 	H 	0.96327	0.64033	0.80873	0.024
Mof_C 	C 	0.96697	0.55933	0.76873	-0.144
Mof_H 	H 	0.00737	0.56593	0.78923	0.1
Mof_C 	C 	0.93317	0.50473	0.72563	0.088
Mof_H 	H 	0.95207	0.47573	0.71753	0.012
Mof_C 	C 	0.87347	0.49243	0.69493	-0.177
Mof_H 	H 	0.85117	0.45533	0.66663	0.098
Mof_Cu	Cu	0.26548	0.13635	0.1559	0.898
Mof_O 	O 	0.27923	0.06967	0.1028	-0.394
Mof_O 	O 	0.39403	0.11847	0.12475	-0.405
Mof_O 	O 	0.19943	0.90857	0.91674	-0.406
Mof_O 	O 	0.25173	0.84507	0.89778	-0.412
Mof_O 	O 	0.52613	0.01737	0.11857	-0.24
Mof_N 	N 	0.45173	0.93087	0.04807	-0.138
Mof_C 	C 	0.33873	0.07347	0.09887	0.339
Mof_C 	C 	0.24413	0.89027	0.92717	0.348
Mof_C 	C 	0.29033	0.97887	0.01547	-0.018
Mof_H 	H 	0.25343	0.98777	0.00887	0.065
Mof_C 	C 	0.34173	0.01657	0.06027	-0.034
Mof_C 	C 	0.39613	0.00237	0.07077	-0.096
Mof_H 	H 	0.43113	0.02877	0.09987	0.093
Mof_C 	C 	0.39833	0.94867	0.03777	0.114
Mof_C 	C 	0.34743	0.91147	0.99227	-0.086
Mof_H 	H 	0.34883	0.87587	0.96967	0.08
Mof_C 	C 	0.29483	0.92747	0.98067	-0.041
Mof_C 	C 	0.50943	0.96467	0.08747	0.234
Mof_C 	C 	0.45133	0.87207	0.01337	-0.16
Mof_H 	H 	0.45723	0.88157	0.96877	0.094
Mof_H 	H 	0.40793	0.82777	0.02067	0.08
Mof_C 	C 	0.51383	0.87057	0.04087	0.133
Mof_C 	C 	0.54653	0.92387	0.08347	-0.12
Mof_C 	C 	0.60743	0.93637	0.11397	0.07
Mof_H 	H 	0.62993	0.97367	0.14207	0.024
Mof_C 	C 	0.63363	0.89267	0.10207	-0.144
Mof_H 	H 	0.67403	0.89927	0.12257	0.099
Mof_C 	C 	0.59983	0.83807	0.05897	0.088
Mof_H 	H 	0.61873	0.80907	0.05087	0.012
Mof_C 	C 	0.54013	0.82577	0.02827	-0.178
Mof_H 	H 	0.51783	0.78867	0.99997	0.098
Mof_Cu	Cu	0.53032	0.46247	0.48923	0.898
Mof_O 	O 	0.597	0.5429	0.43613	-0.394
Mof_O 	O 	0.5482	0.6089	0.45808	-0.405
Mof_O 	O 	0.7581	0.6242	0.25007	-0.406
Mof_O 	O 	0.8216	0.74	0.23111	-0.413
Mof_O 	O 	0.6493	0.8421	0.4519	-0.241
Mof_N 	N 	0.7358	0.8542	0.3814	-0.138
Mof_C 	C 	0.5932	0.5986	0.4322	0.339
Mof_C 	C 	0.7764	0.6872	0.2605	0.348
Mof_C 	C 	0.6878	0.6448	0.3488	-0.016
Mof_H 	H 	0.6789	0.599	0.3422	0.065
Mof_C 	C 	0.6501	0.6585	0.3936	-0.035
Mof_C 	C 	0.6643	0.7271	0.4041	-0.097
Mof_H 	H 	0.6379	0.7357	0.4332	0.094
Mof_C 	C 	0.718	0.783	0.3711	0.115
Mof_C 	C 	0.7552	0.7693	0.3256	-0.087
Mof_H 	H 	0.7908	0.8063	0.303	0.08
Mof_C 	C 	0.7392	0.7007	0.314	-0.042
Mof_C 	C 	0.702	0.8781	0.4208	0.235
Mof_C 	C 	0.7946	0.9126	0.3467	-0.158
Mof_H 	H 	0.7851	0.909	0.3021	0.093
Mof_H 	H 	0.8389	0.9135	0.354	0.08
Mof_C 	C 	0.7961	0.9766	0.3742	0.131
Mof_C 	C 	0.7428	0.956	0.4168	-0.119
Mof_C 	C 	0.7303	0.0044	0.4473	0.07
Mof_H 	H 	0.693	0.9896	0.4754	0.025
Mof_C 	C 	0.774	0.0743	0.4354	-0.143
Mof_H 	H 	0.7674	0.1081	0.4559	0.099
Mof_C 	C 	0.8286	0.0951	0.3923	0.087
Mof_H 	H 	0.8576	0.143	0.3842	0.013
Mof_C 	C 	0.8409	0.0477	0.3616	-0.176
Mof_H 	H 	0.878	0.0625	0.3333	0.097
Mof_Cu	Cu	0.19699	0.7958	0.82256	0.898
Mof_O 	O 	0.26367	0.87623	0.76946	-0.394
Mof_O 	O 	0.21487	0.94223	0.79141	-0.405
Mof_O 	O 	0.42477	0.95753	0.5834	-0.406
Mof_O 	O 	0.48827	0.07333	0.56444	-0.413
Mof_O 	O 	0.31597	0.17543	0.78523	-0.241
Mof_N 	N 	0.40247	0.18753	0.71473	-0.138
Mof_C 	C 	0.25987	0.93193	0.76553	0.339
Mof_C 	C 	0.44307	0.02053	0.59383	0.348
Mof_C 	C 	0.35447	0.97813	0.68213	-0.016
Mof_H 	H 	0.34557	0.93233	0.67553	0.065
Mof_C 	C 	0.31677	0.99183	0.72693	-0.035
Mof_C 	C 	0.33097	0.06043	0.73743	-0.097
Mof_H 	H 	0.30457	0.06903	0.76653	0.094
Mof_C 	C 	0.38467	0.11633	0.70443	0.115
Mof_C 	C 	0.42187	0.10263	0.65893	-0.087
Mof_H 	H 	0.45747	0.13963	0.63633	0.08
Mof_C 	C 	0.40587	0.03403	0.64733	-0.042
Mof_C 	C 	0.36867	0.21143	0.75413	0.235
Mof_C 	C 	0.46127	0.24593	0.68003	-0.159
Mof_H 	H 	0.45177	0.24233	0.63543	0.093
Mof_H 	H 	0.50557	0.24683	0.68733	0.08
Mof_C 	C 	0.46277	0.30993	0.70753	0.132
Mof_C 	C 	0.40947	0.28933	0.75013	-0.119
Mof_C 	C 	0.39697	0.33773	0.78063	0.069
Mof_H 	H 	0.35967	0.32293	0.80873	0.025
Mof_C 	C 	0.44067	0.40763	0.76873	-0.143
Mof_H 	H 	0.43407	0.44143	0.78923	0.099
Mof_C 	C 	0.49527	0.42843	0.72563	0.087
Mof_H 	H 	0.52427	0.47633	0.71753	0.013
Mof_C 	C 	0.50757	0.38103	0.69493	-0.176
Mof_H 	H 	0.54467	0.39583	0.66663	0.097
Mof_Cu	Cu	0.86365	0.12914	0.1559	0.898
Mof_O 	O 	0.93033	0.20957	0.1028	-0.393
Mof_O 	O 	0.88153	0.27557	0.12475	-0.405
Mof_O 	O 	0.09143	0.29087	0.91674	-0.406
Mof_O 	O 	0.15493	0.40667	0.89778	-0.412
Mof_O 	O 	0.98263	0.50877	0.11857	-0.24
Mof_N 	N 	0.06913	0.52087	0.04807	-0.138
Mof_C 	C 	0.92653	0.26527	0.09887	0.339
Mof_C 	C 	0.10973	0.35387	0.92717	0.348
Mof_C 	C 	0.02113	0.31147	0.01547	-0.017
Mof_H 	H 	0.01223	0.26567	0.00887	0.065
Mof_C 	C 	0.98343	0.32517	0.06027	-0.034
Mof_C 	C 	0.99763	0.39377	0.07077	-0.096
Mof_H 	H 	0.97123	0.40237	0.09987	0.093
Mof_C 	C 	0.05133	0.44967	0.03777	0.114
Mof_C 	C 	0.08853	0.43597	0.99227	-0.086
Mof_H 	H 	0.12413	0.47297	0.96967	0.08
Mof_C 	C 	0.07253	0.36737	0.98067	-0.042
Mof_C 	C 	0.03533	0.54477	0.08747	0.235
Mof_C 	C 	0.12793	0.57927	0.01337	-0.161
Mof_H 	H 	0.11843	0.57567	0.96877	0.094
Mof_H 	H 	0.17223	0.58017	0.02067	0.08
Mof_C 	C 	0.12943	0.64327	0.04087	0.133
Mof_C 	C 	0.07613	0.62267	0.08347	-0.12
Mof_C 	C 	0.06363	0.67107	0.11397	0.071
Mof_H 	H 	0.02633	0.65627	0.14207	0.024
Mof_C 	C 	0.10733	0.74097	0.10207	-0.144
Mof_H 	H 	0.10073	0.77477	0.12257	0.1
Mof_C 	C 	0.16193	0.76177	0.05897	0.089
Mof_H 	H 	0.19093	0.80967	0.05087	0.012
Mof_C 	C 	0.17423	0.71437	0.02827	-0.179
Mof_H 	H 	0.21133	0.72917	0.99997	0.099
Mof_Cu	Cu	0.46247	0.93215	0.51077	0.898
Mof_O 	O 	0.5429	0.9459	0.56387	-0.394
Mof_O 	O 	0.6089	0.0607	0.54192	-0.405
Mof_O 	O 	0.6242	0.8661	0.74993	-0.406
Mof_O 	O 	0.74	0.9184	0.76889	-0.412
Mof_O 	O 	0.8421	0.1928	0.5481	-0.241
Mof_N 	N 	0.8542	0.1184	0.6186	-0.138
Mof_C 	C 	0.5986	0.0054	0.5678	0.339
Mof_C 	C 	0.6872	0.9108	0.7395	0.348
Mof_C 	C 	0.6448	0.957	0.6512	-0.016
Mof_H 	H 	0.599	0.9201	0.6578	0.065
Mof_C 	C 	0.6585	0.0084	0.6064	-0.035
Mof_C 	C 	0.7271	0.0628	0.5959	-0.097
Mof_H 	H 	0.7357	0.0978	0.5668	0.094
Mof_C 	C 	0.783	0.065	0.6289	0.115
Mof_C 	C 	0.7693	0.0141	0.6744	-0.087
Mof_H 	H 	0.8063	0.0155	0.697	0.08
Mof_C 	C 	0.7007	0.9615	0.686	-0.042
Mof_C 	C 	0.8781	0.1761	0.5792	0.235
Mof_C 	C 	0.9126	0.118	0.6533	-0.158
Mof_H 	H 	0.909	0.1239	0.6979	0.093
Mof_H 	H 	0.9135	0.0746	0.646	0.08
Mof_C 	C 	0.9766	0.1805	0.6258	0.131
Mof_C 	C 	0.956	0.2132	0.5832	-0.119
Mof_C 	C 	0.0044	0.2741	0.5527	0.069
Mof_H 	H 	0.9896	0.2966	0.5246	0.025
Mof_C 	C 	0.0743	0.3003	0.5646	-0.143
Mof_H 	H 	0.1081	0.3407	0.5441	0.099
Mof_C 	C 	0.0951	0.2665	0.6077	0.087
Mof_H 	H 	0.143	0.2854	0.6158	0.013
Mof_C 	C 	0.0477	0.2068	0.6384	-0.176
Mof_H 	H 	0.0625	0.1845	0.6667	0.097
Mof_Cu	Cu	0.12914	0.26548	0.8441	0.898
Mof_O 	O 	0.20957	0.27923	0.8972	-0.394
Mof_O 	O 	0.27557	0.39403	0.87525	-0.405
Mof_O 	O 	0.29087	0.19943	0.08326	-0.406
Mof_O 	O 	0.40667	0.25173	0.10222	-0.413
Mof_O 	O 	0.50877	0.52613	0.88143	-0.241
Mof_N 	N 	0.52087	0.45173	0.95193	-0.138
Mof_C 	C 	0.26527	0.33873	0.90113	0.339
Mof_C 	C 	0.35387	0.24413	0.07283	0.348
Mof_C 	C 	0.31147	0.29033	0.98453	-0.016
Mof_H 	H 	0.26567	0.25343	0.99113	0.065
Mof_C 	C 	0.32517	0.34173	0.93973	-0.035
Mof_C 	C 	0.39377	0.39613	0.92923	-0.096
Mof_H 	H 	0.40237	0.43113	0.90013	0.094
Mof_C 	C 	0.44967	0.39833	0.96223	0.115
Mof_C 	C 	0.43597	0.34743	0.00773	-0.086
Mof_H 	H 	0.47297	0.34883	0.03033	0.08
Mof_C 	C 	0.36737	0.29483	0.01933	-0.042
Mof_C 	C 	0.54477	0.50943	0.91253	0.235
Mof_C 	C 	0.57927	0.45133	0.98663	-0.159
Mof_H 	H 	0.57567	0.45723	0.03123	0.093
Mof_H 	H 	0.58017	0.40793	0.97933	0.08
Mof_C 	C 	0.64327	0.51383	0.95913	0.132
Mof_C 	C 	0.62267	0.54653	0.91653	-0.119
Mof_C 	C 	0.67107	0.60743	0.88603	0.07
Mof_H 	H 	0.65627	0.62993	0.85793	0.025
Mof_C 	C 	0.74097	0.63363	0.89793	-0.143
Mof_H 	H 	0.77477	0.67403	0.87743	0.099
Mof_C 	C 	0.76177	0.59983	0.94103	0.088
Mof_H 	H 	0.80967	0.61873	0.94913	0.012
Mof_C 	C 	0.71437	0.54013	0.97173	-0.177
Mof_H 	H 	0.72917	0.51783	3e-05	0.098
Mof_Cu	Cu	0.7958	0.59882	0.17744	0.898
Mof_O 	O 	0.87623	0.61257	0.23054	-0.394
Mof_O 	O 	0.94223	0.72737	0.20859	-0.405
Mof_O 	O 	0.95753	0.53277	0.4166	-0.406
Mof_O 	O 	0.07333	0.58507	0.43556	-0.413
Mof_O 	O 	0.17543	0.85947	0.21477	-0.241
Mof_N 	N 	0.18753	0.78507	0.28527	-0.138
Mof_C 	C 	0.93193	0.67207	0.23447	0.339
Mof_C 	C 	0.02053	0.57747	0.40617	0.348
Mof_C 	C 	0.97813	0.62367	0.31787	-0.016
Mof_H 	H 	0.93233	0.58677	0.32447	0.065
Mof_C 	C 	0.99183	0.67507	0.27307	-0.035
Mof_C 	C 	0.06043	0.72947	0.26257	-0.097
Mof_H 	H 	0.06903	0.76447	0.23347	0.094
Mof_C 	C 	0.11633	0.73167	0.29557	0.115
Mof_C 	C 	0.10263	0.68077	0.34107	-0.087
Mof_H 	H 	0.13963	0.68217	0.36367	0.08
Mof_C 	C 	0.03403	0.62817	0.35267	-0.042
Mof_C 	C 	0.21143	0.84277	0.24587	0.235
Mof_C 	C 	0.24593	0.78467	0.31997	-0.159
Mof_H 	H 	0.24233	0.79057	0.36457	0.093
Mof_H 	H 	0.24683	0.74127	0.31267	0.08
Mof_C 	C 	0.30993	0.84717	0.29247	0.132
Mof_C 	C 	0.28933	0.87987	0.24987	-0.12
Mof_C 	C 	0.33773	0.94077	0.21937	0.071
Mof_H 	H 	0.32293	0.96327	0.19127	0.024
Mof_C 	C 	0.40763	0.96697	0.23127	-0.144
Mof_H 	H 	0.44143	0.00737	0.21077	0.1
Mof_C 	C 	0.42843	0.93317	0.27437	0.088
Mof_H 	H 	0.47633	0.95207	0.28247	0.012
Mof_C 	C 	0.38103	0.87347	0.30507	-0.177
Mof_H 	H 	0.39583	0.85117	0.33337	0.098
Mof_Cu	Cu	0.06785	0.53032	0.51077	0.898
Mof_O 	O 	0.0541	0.597	0.56387	-0.394
Mof_O 	O 	0.9393	0.5482	0.54192	-0.405
Mof_O 	O 	0.1339	0.7581	0.74993	-0.406
Mof_O 	O 	0.0816	0.8216	0.76889	-0.412
Mof_O 	O 	0.8072	0.6493	0.5481	-0.241
Mof_N 	N 	0.8816	0.7358	0.6186	-0.138
Mof_C 	C 	0.9946	0.5932	0.5678	0.339
Mof_C 	C 	0.0892	0.7764	0.7395	0.348
Mof_C 	C 	0.043	0.6878	0.6512	-0.016
Mof_H 	H 	0.0799	0.6789	0.6578	0.065
Mof_C 	C 	0.9916	0.6501	0.6064	-0.035
Mof_C 	C 	0.9372	0.6643	0.5959	-0.097
Mof_H 	H 	0.9022	0.6379	0.5668	0.094
Mof_C 	C 	0.935	0.718	0.6289	0.115
Mof_C 	C 	0.9859	0.7552	0.6744	-0.087
Mof_H 	H 	0.9845	0.7908	0.697	0.08
Mof_C 	C 	0.0385	0.7392	0.686	-0.042
Mof_C 	C 	0.8239	0.702	0.5792	0.235
Mof_C 	C 	0.882	0.7946	0.6533	-0.158
Mof_H 	H 	0.8761	0.7851	0.6979	0.093
Mof_H 	H 	0.9254	0.8389	0.646	0.08
Mof_C 	C 	0.8195	0.7961	0.6258	0.132
Mof_C 	C 	0.7868	0.7428	0.5832	-0.119
Mof_C 	C 	0.7259	0.7303	0.5527	0.069
Mof_H 	H 	0.7034	0.693	0.5246	0.025
Mof_C 	C 	0.6997	0.774	0.5646	-0.143
Mof_H 	H 	0.6593	0.7674	0.5441	0.099
Mof_C 	C 	0.7335	0.8286	0.6077	0.087
Mof_H 	H 	0.7146	0.8576	0.6158	0.013
Mof_C 	C 	0.7932	0.8409	0.6384	-0.176
Mof_H 	H 	0.8155	0.878	0.6667	0.098
Mof_Cu	Cu	0.73452	0.86365	0.8441	0.898
Mof_O 	O 	0.72077	0.93033	0.8972	-0.394
Mof_O 	O 	0.60597	0.88153	0.87525	-0.405
Mof_O 	O 	0.80057	0.09143	0.08326	-0.406
Mof_O 	O 	0.74827	0.15493	0.10222	-0.412
Mof_O 	O 	0.47387	0.98263	0.88143	-0.24
Mof_N 	N 	0.54827	0.06913	0.95193	-0.138
Mof_C 	C 	0.66127	0.92653	0.90113	0.339
Mof_C 	C 	0.75587	0.10973	0.07283	0.348
Mof_C 	C 	0.70967	0.02113	0.98453	-0.018
Mof_H 	H 	0.74657	0.01223	0.99113	0.065
Mof_C 	C 	0.65827	0.98343	0.93973	-0.034
Mof_C 	C 	0.60387	0.99763	0.92923	-0.096
Mof_H 	H 	0.56887	0.97123	0.90013	0.093
Mof_C 	C 	0.60167	0.05133	0.96223	0.114
Mof_C 	C 	0.65257	0.08853	0.00773	-0.086
Mof_H 	H 	0.65117	0.12413	0.03033	0.08
Mof_C 	C 	0.70517	0.07253	0.01933	-0.041
Mof_C 	C 	0.49057	0.03533	0.91253	0.234
Mof_C 	C 	0.54867	0.12793	0.98663	-0.16
Mof_H 	H 	0.54277	0.11843	0.03123	0.094
Mof_H 	H 	0.59207	0.17223	0.97933	0.08
Mof_C 	C 	0.48617	0.12943	0.95913	0.133
Mof_C 	C 	0.45347	0.07613	0.91653	-0.12
Mof_C 	C 	0.39257	0.06363	0.88603	0.07
Mof_H 	H 	0.37007	0.02633	0.85793	0.024
Mof_C 	C 	0.36637	0.10733	0.89793	-0.144
Mof_H 	H 	0.32597	0.10073	0.87743	0.099
Mof_C 	C 	0.40017	0.16193	0.94103	0.088
Mof_H 	H 	0.38127	0.19093	0.94913	0.012
Mof_C 	C 	0.45987	0.17423	0.97173	-0.178
Mof_H 	H 	0.48217	0.21133	3e-05	0.098
Mof_Cu	Cu	0.40118	0.19699	0.17744	0.898
Mof_O 	O 	0.38743	0.26367	0.23054	-0.394
Mof_O 	O 	0.27263	0.21487	0.20859	-0.405
Mof_O 	O 	0.46723	0.42477	0.4166	-0.406
Mof_O 	O 	0.41493	0.48827	0.43556	-0.413
Mof_O 	O 	0.14053	0.31597	0.21477	-0.241
Mof_N 	N 	0.21493	0.40247	0.28527	-0.138
Mof_C 	C 	0.32793	0.25987	0.23447	0.339
Mof_C 	C 	0.42253	0.44307	0.40617	0.348
Mof_C 	C 	0.37633	0.35447	0.31787	-0.016
Mof_H 	H 	0.41323	0.34557	0.32447	0.065
Mof_C 	C 	0.32493	0.31677	0.27307	-0.035
Mof_C 	C 	0.27053	0.33097	0.26257	-0.096
Mof_H 	H 	0.23553	0.30457	0.23347	0.094
Mof_C 	C 	0.26833	0.38467	0.29557	0.115
Mof_C 	C 	0.31923	0.42187	0.34107	-0.087
Mof_H 	H 	0.31783	0.45747	0.36367	0.08
Mof_C 	C 	0.37183	0.40587	0.35267	-0.042
Mof_C 	C 	0.15723	0.36867	0.24587	0.235
Mof_C 	C 	0.21533	0.46127	0.31997	-0.159
Mof_H 	H 	0.20943	0.45177	0.36457	0.093
Mof_H 	H 	0.25873	0.50557	0.31267	0.08
Mof_C 	C 	0.15283	0.46277	0.29247	0.132
Mof_C 	C 	0.12013	0.40947	0.24987	-0.12
Mof_C 	C 	0.05923	0.39697	0.21937	0.071
Mof_H 	H 	0.03673	0.35967	0.19127	0.024
Mof_C 	C 	0.03303	0.44067	0.23127	-0.144
Mof_H 	H 	0.99263	0.43407	0.21077	0.1
Mof_C 	C 	0.06683	0.49527	0.27437	0.088
Mof_H 	H 	0.04793	0.52427	0.28247	0.012
Mof_C 	C 	0.12653	0.50757	0.30507	-0.177
Mof_H 	H 	0.14883	0.54467	0.33337	0.098
Mof_Cu	Cu	0.46968	0.53753	0.51077	0.898
Mof_O 	O 	0.403	0.4571	0.56387	-0.394
Mof_O 	O 	0.4518	0.3911	0.54192	-0.405
Mof_O 	O 	0.2419	0.3758	0.74993	-0.406
Mof_O 	O 	0.1784	0.26	0.76889	-0.413
Mof_O 	O 	0.3507	0.1579	0.5481	-0.241
Mof_N 	N 	0.2642	0.1458	0.6186	-0.138
Mof_C 	C 	0.4068	0.4014	0.5678	0.339
Mof_C 	C 	0.2236	0.3128	0.7395	0.348
Mof_C 	C 	0.3122	0.3552	0.6512	-0.016
Mof_H 	H 	0.3211	0.401	0.6578	0.065
Mof_C 	C 	0.3499	0.3415	0.6064	-0.035
Mof_C 	C 	0.3357	0.2729	0.5959	-0.097
Mof_H 	H 	0.3621	0.2643	0.5668	0.094
Mof_C 	C 	0.282	0.217	0.6289	0.115
Mof_C 	C 	0.2448	0.2307	0.6744	-0.087
Mof_H 	H 	0.2092	0.1937	0.697	0.08
Mof_C 	C 	0.2608	0.2993	0.686	-0.042
Mof_C 	C 	0.298	0.1219	0.5792	0.235
Mof_C 	C 	0.2054	0.0874	0.6533	-0.158
Mof_H 	H 	0.2149	0.091	0.6979	0.093
Mof_H 	H 	0.1611	0.0865	0.646	0.08
Mof_C 	C 	0.2039	0.0234	0.6258	0.131
Mof_C 	C 	0.2572	0.044	0.5832	-0.119
Mof_C 	C 	0.2697	0.9956	0.5527	0.07
Mof_H 	H 	0.307	0.0104	0.5246	0.025
Mof_C 	C 	0.226	0.9257	0.5646	-0.143
Mof_H 	H 	0.2326	0.8919	0.5441	0.099
Mof_C 	C 	0.1714	0.9049	0.6077	0.087
Mof_H 	H 	0.1424	0.857	0.6158	0.013
Mof_C 	C 	0.1591	0.9523	0.6384	-0.176
Mof_H 	H 	0.122	0.9375	0.6667	0.097
Mof_Cu	Cu	0.13635	0.87086	0.8441	0.898
Mof_O 	O 	0.06967	0.79043	0.8972	-0.393
Mof_O 	O 	0.11847	0.72443	0.87525	-0.405
Mof_O 	O 	0.90857	0.70913	0.08326	-0.406
Mof_O 	O 	0.84507	0.59333	0.10222	-0.412
Mof_O 	O 	0.01737	0.49123	0.88143	-0.24
Mof_N 	N 	0.93087	0.47913	0.95193	-0.138
Mof_C 	C 	0.07347	0.73473	0.90113	0.339
Mof_C 	C 	0.89027	0.64613	0.07283	0.348
Mof_C 	C 	0.97887	0.68853	0.98453	-0.017
Mof_H 	H 	0.98777	0.73433	0.99113	0.065
Mof_C 	C 	0.01657	0.67483	0.93973	-0.034
Mof_C 	C 	0.00237	0.60623	0.92923	-0.096
Mof_H 	H 	0.02877	0.59763	0.90013	0.093
Mof_C 	C 	0.94867	0.55033	0.96223	0.114
Mof_C 	C 	0.91147	0.56403	0.00773	-0.086
Mof_H 	H 	0.87587	0.52703	0.03033	0.08
Mof_C 	C 	0.92747	0.63263	0.01933	-0.042
Mof_C 	C 	0.96467	0.45523	0.91253	0.235
Mof_C 	C 	0.87207	0.42073	0.98663	-0.161
Mof_H 	H 	0.88157	0.42433	0.03123	0.094
Mof_H 	H 	0.82777	0.41983	0.97933	0.08
Mof_C 	C 	0.87057	0.35673	0.95913	0.133
Mof_C 	C 	0.92387	0.37733	0.91653	-0.12
Mof_C 	C 	0.93637	0.32893	0.88603	0.071
Mof_H 	H 	0.97367	0.34373	0.85793	0.024
Mof_C 	C 	0.89267	0.25903	0.89793	-0.144
Mof_H 	H 	0.89927	0.22523	0.87743	0.1
Mof_C 	C 	0.83807	0.23823	0.94103	0.089
Mof_H 	H 	0.80907	0.19033	0.94913	0.012
Mof_C 	C 	0.82577	0.28563	0.97173	-0.179
Mof_H 	H 	0.78867	0.27083	3e-05	0.099
Mof_Cu	Cu	0.80301	0.2042	0.17744	0.898
Mof_O 	O 	0.73633	0.12377	0.23054	-0.394
Mof_O 	O 	0.78513	0.05777	0.20859	-0.405
Mof_O 	O 	0.57523	0.04247	0.4166	-0.406
Mof_O 	O 	0.51173	0.92667	0.43556	-0.413
Mof_O 	O 	0.68403	0.82457	0.21477	-0.241
Mof_N 	N 	0.59753	0.81247	0.28527	-0.138
Mof_C 	C 	0.74013	0.06807	0.23447	0.339
Mof_C 	C 	0.55693	0.97947	0.40617	0.348
Mof_C 	C 	0.64553	0.02187	0.31787	-0.016
Mof_H 	H 	0.65443	0.06767	0.32447	0.065
Mof_C 	C 	0.68323	0.00817	0.27307	-0.035
Mof_C 	C 	0.66903	0.93957	0.26257	-0.097
Mof_H 	H 	0.69543	0.93097	0.23347	0.094
Mof_C 	C 	0.61533	0.88367	0.29557	0.115
Mof_C 	C 	0.57813	0.89737	0.34107	-0.087
Mof_H 	H 	0.54253	0.86037	0.36367	0.08
Mof_C 	C 	0.59413	0.96597	0.35267	-0.042
Mof_C 	C 	0.63133	0.78857	0.24587	0.235
Mof_C 	C 	0.53873	0.75407	0.31997	-0.159
Mof_H 	H 	0.54823	0.75767	0.36457	0.093
Mof_H 	H 	0.49443	0.75317	0.31267	0.08
Mof_C 	C 	0.53723	0.69007	0.29247	0.132
Mof_C 	C 	0.59053	0.71067	0.24987	-0.119
Mof_C 	C 	0.60303	0.66227	0.21937	0.069
Mof_H 	H 	0.64033	0.67707	0.19127	0.025
Mof_C 	C 	0.55933	0.59237	0.23127	-0.143
Mof_H 	H 	0.56593	0.55857	0.21077	0.099
Mof_C 	C 	0.50473	0.57157	0.27437	0.087
Mof_H 	H 	0.47573	0.52367	0.28247	0.013
Mof_C 	C 	0.49243	0.61897	0.30507	-0.176
Mof_H 	H 	0.45533	0.60417	0.33337	0.097
_end
