data_functionalizedCrystal
_audit_creation_method	'EQeq! by Chris Wilmer'
_symmetry_space_group_name_H-M	'P1'
_symmetry_Int_Tables_number	1
_symmetry_cell_setting	triclinic
loop_
_symmetry_equiv_pos_as_xyz
  x,y,z
_cell_length_a	9.515
_cell_length_b	17.5466
_cell_length_c	17.5466
_cell_angle_alpha	103.604
_cell_angle_beta	102.773
_cell_angle_gamma	77.2266
loop_
_atom_site_label
_atom_site_type_symbol
_atom_site_fract_x
_atom_site_fract_y
_atom_site_fract_z
_atom_site_charge
Mof_Mn	Mn	0.06499	0.82066	0.31296	0.939
Mof_Mn	Mn	0.5	0.5	-0	0.767
Mof_Mn	Mn	0.93501	0.17934	0.68704	0.96
Mof_Mn	Mn	0.56499	0.68704	0.17934	0.949
Mof_Mn	Mn	4.16082e-17	0	0.5	0.75
Mof_Mn	Mn	0.43501	0.31296	0.82066	0.947
Mof_H 	H 	0.9338	0.8373	0.6311	0.147
Mof_H 	H 	0.6309	0.6822	0.5896	0.149
Mof_H 	H 	0.1769	0.845	0.606	-0.018
Mof_H 	H 	0.3691	0.3178	0.4104	0.147
Mof_H 	H 	0.6792	0.0376	0.9102	0.192
Mof_H 	H 	0.8151	0.2832	0.2064	0.153
Mof_H 	H 	0.0181	0.4774	0.7274	0.008
Mof_H 	H 	0.6849	0.2064	0.2832	0.136
Mof_H 	H 	0.8194	0.1433	0.0617	0.148
Mof_H 	H 	0.4338	0.3689	0.1627	0.16
Mof_H 	H 	0.3194	0.9383	0.8567	0.15
Mof_H 	H 	0.4819	0.7274	0.4774	-0.006
Mof_H 	H 	0.0735	0.21	0.1586	0.197
Mof_H 	H 	0.8231	0.155	0.394	-0.014
Mof_H 	H 	0.3231	0.606	0.845	-0.003
Mof_H 	H 	0.197	0.0345	0.7835	-0.037
Mof_H 	H 	0.4265	0.1586	0.21	0.2
Mof_H 	H 	0.0823	0.9848	0.178	0.181
Mof_H 	H 	0.4443	0.8644	0.16	-0.045
Mof_H 	H 	0.3151	0.7936	0.7168	0.134
Mof_H 	H 	0.1849	0.7168	0.7936	0.119
Mof_H 	H 	0.0662	0.1627	0.3689	0.158
Mof_H 	H 	0.5735	0.8414	0.79	0.187
Mof_H 	H 	0.6806	0.0617	0.1433	0.164
Mof_H 	H 	0.303	0.7835	0.0345	-0.045
Mof_H 	H 	0.803	0.9655	0.2165	-0.041
Mof_H 	H 	0.5662	0.6311	0.8373	0.145
Mof_H 	H 	0.5181	0.2726	0.5226	-0.008
Mof_H 	H 	0.9819	0.5226	0.2726	-0.024
Mof_H 	H 	0.0557	0.16	0.8644	-0.033
Mof_H 	H 	0.5557	0.1356	0.84	-0.051
Mof_H 	H 	0.6769	0.394	0.155	-0.031
Mof_H 	H 	0.697	0.2165	0.9655	-0.031
Mof_H 	H 	0.9443	0.84	0.1356	-0.062
Mof_H 	H 	0.3208	0.9624	0.0898	0.179
Mof_H 	H 	0.1792	0.0898	0.9624	0.166
Mof_H 	H 	0.4177	0.178	0.9848	0.185
Mof_H 	H 	0.1309	0.4104	0.3178	0.172
Mof_H 	H 	0.9265	0.79	0.8414	0.19
Mof_H 	H 	0.1806	0.8567	0.9383	0.163
Mof_H 	H 	0.5823	0.822	0.0152	0.116
Mof_H 	H 	0.9177	0.0152	0.822	0.121
Mof_H 	H 	0.8691	0.5896	0.6822	0.126
Mof_H 	H 	0.8208	0.9102	0.0376	0.204
Mof_C 	C 	0.6332	0.0223	0.1477	-0.383
Mof_C 	C 	0.9254	0.9363	0.7191	0.077
Mof_C 	C 	0.15	0.669	0.7808	-0.251
Mof_C 	C 	0.7775	0.1863	0.5431	0.368
Mof_C 	C 	0.4254	0.2809	0.0637	0.137
Mof_C 	C 	0.1838	0.5304	0.7906	-0.178
Mof_C 	C 	0.2663	0.811	0.602	0.161
Mof_C 	C 	0.7814	0.2408	0.8416	0.476
Mof_C 	C 	0.4302	0.3301	0.0045	0.274
Mof_C 	C 	0.2337	0.602	0.811	0.126
Mof_C 	C 	0.4492	0.7419	0.5259	0.159
Mof_C 	C 	0.5746	0.7191	0.9363	0.073
Mof_C 	C 	0.1332	0.8523	0.9777	-0.363
Mof_C 	C 	0.9325	0.8027	0.7321	0.344
Mof_C 	C 	0.489	0.0213	0.1107	0.351
Mof_C 	C 	0.9828	0.3367	0.2675	0.367
Mof_C 	C 	0.5386	0.713	0.5926	-0.272
Mof_C 	C 	0.2225	0.8137	0.4569	0.369
Mof_C 	C 	0.7065	0.9645	0.1911	0.259
Mof_C 	C 	0.85	0.331	0.2192	-0.338
Mof_C 	C 	0.65	0.2192	0.331	-0.293
Mof_C 	C 	0.4176	0.9628	0.115	-0.337
Mof_C 	C 	0.8668	0.1477	0.0223	-0.334
Mof_C 	C 	0.923	0.9066	0.8442	0.33
Mof_C 	C 	0.2935	0.0355	0.8089	0.198
Mof_C 	C 	0.9614	0.5926	0.713	-0.202
Mof_C 	C 	0.6359	0.9048	0.197	-0.292
Mof_C 	C 	0.0084	0.1576	0.9046	0.189
Mof_C 	C 	0.7663	0.398	0.189	0.199
Mof_C 	C 	0.4311	0.3149	0.1447	-0.311
Mof_C 	C 	0.1359	0.803	0.0952	-0.322
Mof_C 	C 	0.4828	0.7325	0.6633	0.303
Mof_C 	C 	0.7225	0.5431	0.1863	0.382
Mof_C 	C 	0.9492	0.4741	0.2581	0.219
Mof_C 	C 	0.9311	0.8553	0.6851	-0.262
Mof_C 	C 	0.0508	0.5259	0.7419	0.103
Mof_C 	C 	0.0172	0.6633	0.7325	0.247
Mof_C 	C 	0.3162	0.7906	0.5304	-0.21
Mof_C 	C 	0.5084	0.0954	0.8424	0.247
Mof_C 	C 	0.9214	0.9615	0.7987	-0.221
Mof_C 	C 	0.423	0.1558	0.0934	0.379
Mof_C 	C 	0.0386	0.4074	0.287	-0.349
Mof_C 	C 	0.5824	0.0372	0.885	-0.388
Mof_C 	C 	0.0824	0.115	0.9628	-0.299
Mof_C 	C 	0.011	0.1107	0.0213	0.309
Mof_C 	C 	0.0689	0.1447	0.3149	-0.313
Mof_C 	C 	0.5698	0.6699	0.9955	0.349
Mof_C 	C 	0.35	0.7808	0.669	-0.291
Mof_C 	C 	0.5689	0.6851	0.8553	-0.263
Mof_C 	C 	0.5172	0.2675	0.3367	0.306
Mof_C 	C 	0.4272	0.1894	0.1736	-0.446
Mof_C 	C 	0.0728	0.1736	0.1894	-0.447
Mof_C 	C 	0.4916	0.9046	0.1576	0.236
Mof_C 	C 	0.3641	0.0952	0.803	-0.288
Mof_C 	C 	0.0675	0.1973	0.2679	0.379
Mof_C 	C 	0.4614	0.287	0.4074	-0.273
Mof_C 	C 	0.577	0.8442	0.9066	0.324
Mof_C 	C 	0.8162	0.4696	0.2094	-0.247
Mof_C 	C 	0.5728	0.8106	0.8264	-0.401
Mof_C 	C 	0.9176	0.885	0.0372	-0.419
Mof_C 	C 	0.5786	0.7987	0.9615	-0.216
Mof_C 	C 	0.0786	0.0385	0.2013	-0.345
Mof_C 	C 	0.989	0.8893	0.9787	0.418
Mof_C 	C 	0.0698	0.0045	0.3301	0.274
Mof_C 	C 	0.511	0.9787	0.8893	0.383
Mof_C 	C 	0.2814	0.1584	0.7592	0.485
Mof_C 	C 	0.6838	0.2094	0.4696	-0.211
Mof_C 	C 	0.077	0.0934	0.1558	0.373
Mof_C 	C 	0.3668	0.9777	0.8523	-0.323
Mof_C 	C 	0.0746	0.0637	0.2809	0.134
Mof_C 	C 	0.7186	0.8416	0.2408	0.487
Mof_C 	C 	0.2186	0.7592	0.1584	0.495
Mof_C 	C 	0.4214	0.2013	0.0385	-0.347
Mof_C 	C 	0.4325	0.2679	0.1973	0.378
Mof_C 	C 	0.7337	0.189	0.398	0.16
Mof_C 	C 	0.5675	0.7321	0.8027	0.345
Mof_C 	C 	0.2065	0.8089	0.0355	0.228
Mof_C 	C 	0.9916	0.8424	0.0954	0.291
Mof_C 	C 	0.9272	0.8264	0.8106	-0.4
Mof_C 	C 	0.9302	0.9955	0.6699	0.347
Mof_C 	C 	0.5508	0.2581	0.4741	0.158
Mof_C 	C 	0.8641	0.197	0.9048	-0.255
Mof_C 	C 	0.2775	0.4569	0.8137	0.357
Mof_C 	C 	0.7935	0.1911	0.9645	0.223
Mof_O 	O 	0.3461	0.7256	0.1518	-0.446
Mof_O 	O 	0.3414	0.21447	0.75613	-0.416
Mof_O 	O 	0.1539	0.1518	0.7256	-0.45
Mof_O 	O 	0.8964	0.13655	0.54105	-0.394
Mof_O 	O 	0.0689	0.27624	0.30576	-0.347
Mof_O 	O 	0.7623	0.60829	0.21891	-0.373
Mof_O 	O 	0.9156	0.93632	0.92368	-0.326
Mof_O 	O 	0.3964	0.45895	0.86345	-0.389
Mof_O 	O 	0.0921	0.93215	0.29745	-0.347
Mof_O 	O 	0.6586	0.78553	0.24387	-0.411
Mof_O 	O 	0.4311	0.30576	0.27624	-0.327
Mof_O 	O 	0.1586	0.75613	0.21447	-0.42
Mof_O 	O 	0.9079	0.06785	0.70255	-0.386
Mof_O 	O 	0.5844	0.92368	0.93632	-0.32
Mof_O 	O 	0.7377	0.21891	0.60829	-0.372
Mof_O 	O 	0.1036	0.86345	0.45895	-0.394
Mof_O 	O 	0.2623	0.78109	0.39171	-0.369
Mof_O 	O 	0.4079	0.29745	0.93215	-0.347
Mof_O 	O 	0.9528	0.96816	0.60044	-0.362
Mof_O 	O 	0.5689	0.69424	0.72376	-0.317
Mof_O 	O 	0.0844	0.06368	0.07632	-0.343
Mof_O 	O 	0.5921	0.70255	0.06785	-0.388
Mof_O 	O 	0.2377	0.39171	0.78109	-0.369
Mof_O 	O 	0.8461	0.8482	0.2744	-0.432
Mof_O 	O 	0.5472	0.60044	0.96816	-0.37
Mof_O 	O 	0.0472	0.03184	0.39956	-0.368
Mof_O 	O 	0.6539	0.2744	0.8482	-0.436
Mof_O 	O 	0.9311	0.72376	0.69424	-0.299
Mof_O 	O 	0.4156	0.07632	0.06368	-0.35
Mof_O 	O 	0.8414	0.24387	0.78553	-0.408
Mof_O 	O 	0.4528	0.39956	0.03184	-0.366
Mof_O 	O 	0.6036	0.54105	0.13655	-0.404
_end
