data_functionalizedCrystal
_audit_creation_method	'EQeq! by Chris Wilmer'
_symmetry_space_group_name_H-M	'P1'
_symmetry_Int_Tables_number	1
_symmetry_cell_setting	triclinic
loop_
_symmetry_equiv_pos_as_xyz
  x,y,z
_cell_length_a	23.7715
_cell_length_b	23.7715
_cell_length_c	14.1007
_cell_angle_alpha	90
_cell_angle_beta	90
_cell_angle_gamma	90
loop_
_atom_site_label
_atom_site_type_symbol
_atom_site_fract_x
_atom_site_fract_y
_atom_site_fract_z
_atom_site_charge
Mof_Ag	Ag	0.04852	0.23302	0.10694	0.242
Mof_S 	S 	0.06955	0.14891	0.98959	-0.051
Mof_C 	C 	0.0064	0.1251	0.938	-0.058
Mof_C 	C 	0.9592	0.1104	0.9924	0.14
Mof_C 	C 	0.091	0.0887	0.0544	-0.066
Mof_C 	C 	0.0888	0.0908	0.1543	0.075
Mof_H 	H 	0.0747	0.1236	0.1845	-0.024
Mof_C 	C 	0.0035	0.1226	0.8379	0.077
Mof_H 	H 	0.036	0.1319	0.8018	-0.003
Mof_C 	C 	0.1068	0.0457	0.2096	-0.249
Mof_O 	O 	0.9609	0.1166	0.0878	-0.202
Mof_C 	C 	0.9368	0.1687	0.1171	-0.046
Mof_H 	H 	0.8956	0.1676	0.1079	0.039
Mof_H 	H 	0.9521	0.1996	0.0777	0.028
Mof_C 	C 	0.95	0.1796	0.2199	0.095
Mof_N 	N 	0.9975	0.2077	0.2402	-0.192
Mof_C 	C 	0.01	0.2189	0.3301	0.059
Mof_H 	H 	0.045	0.2365	0.3437	-0.022
Mof_C 	C 	0.9748	0.2062	0.4039	-0.144
Mof_H 	H 	0.9841	0.2169	0.4669	0.042
Mof_C 	C 	0.9252	0.1773	0.3846	0.028
Mof_H 	H 	0.9011	0.1659	0.4348	-0.026
Mof_C 	C 	0.9111	0.1652	0.2899	-0.149
Mof_H 	H 	0.8763	0.1478	0.2742	0.057
Mof_C 	C 	0.1119	0.0507	0.3169	0.666
Mof_C 	C 	0.1749	0.0665	0.3372	-0.058
Mof_H 	H 	0.1905	0.0863	0.2823	0.057
Mof_H 	H 	0.1768	0.091	0.3931	0.121
Mof_H 	H 	0.1966	0.0322	0.349	-0.005
Mof_C 	C 	0.0763	0.0992	0.3573	-0.843
Mof_H 	H 	0.0363	0.0906	0.3492	0.182
Mof_H 	H 	0.0847	0.1039	0.4249	0.21
Mof_H 	H 	0.0854	0.1341	0.3235	0.25
Mof_C 	C 	0.0973	0.9944	0.3637	-0.286
Mof_H 	H 	0.1254	0.9662	0.3459	0.479
Mof_H 	H 	0.097	0.999	0.4327	0.02
Mof_H 	H 	0.06	0.9821	0.3422	0.014
Mof_C 	C 	0.0024	0.127	0.628	-0.962
Mof_C 	C 	0.927	0.0522	0.656	0.01
Mof_C 	C 	0.9021	0.1556	0.661	-0.753
Mof_H 	H 	0.0289	0.146	0.6709	-0.07
Mof_H 	H 	0.9927	0.1521	0.5757	0.296
Mof_H 	H 	0.0197	0.0927	0.6034	0.345
Mof_H 	H 	0.9185	0.0511	0.5884	0.073
Mof_H 	H 	0.8933	0.0438	0.6929	0.08
Mof_H 	H 	0.9563	0.0241	0.6706	-0.035
Mof_H 	H 	0.8742	0.1551	0.7123	0.21
Mof_H 	H 	0.8838	0.1458	0.6011	0.187
Mof_H 	H 	0.9186	0.1933	0.6563	0.174
Mof_Ag	Ag	0.54852	0.73302	0.60694	0.241
Mof_S 	S 	0.56955	0.64891	0.48959	-0.053
Mof_C 	C 	0.5064	0.6251	0.438	-0.059
Mof_C 	C 	0.4592	0.6104	0.4924	0.139
Mof_C 	C 	0.591	0.5887	0.5544	-0.066
Mof_C 	C 	0.5888	0.5908	0.6543	0.074
Mof_H 	H 	0.5747	0.6236	0.6845	-0.025
Mof_C 	C 	0.5035	0.6226	0.3379	0.076
Mof_H 	H 	0.536	0.6319	0.3018	-0.004
Mof_C 	C 	0.6068	0.5457	0.7096	-0.249
Mof_O 	O 	0.4609	0.6166	0.5878	-0.203
Mof_C 	C 	0.4368	0.6687	0.6171	-0.047
Mof_H 	H 	0.3956	0.6676	0.6079	0.039
Mof_H 	H 	0.4521	0.6996	0.5777	0.028
Mof_C 	C 	0.45	0.6796	0.7199	0.095
Mof_N 	N 	0.4975	0.7077	0.7402	-0.192
Mof_C 	C 	0.51	0.7189	0.8301	0.059
Mof_H 	H 	0.545	0.7365	0.8437	-0.022
Mof_C 	C 	0.4748	0.7062	0.9039	-0.145
Mof_H 	H 	0.4841	0.7169	0.9669	0.042
Mof_C 	C 	0.4252	0.6773	0.8846	0.028
Mof_H 	H 	0.4011	0.6659	0.9348	-0.026
Mof_C 	C 	0.4111	0.6652	0.7899	-0.149
Mof_H 	H 	0.3763	0.6478	0.7742	0.057
Mof_C 	C 	0.6119	0.5507	0.8169	0.666
Mof_C 	C 	0.6749	0.5665	0.8372	-0.058
Mof_H 	H 	0.6905	0.5863	0.7823	0.057
Mof_H 	H 	0.6768	0.591	0.8931	0.121
Mof_H 	H 	0.6966	0.5322	0.849	-0.005
Mof_C 	C 	0.5763	0.5992	0.8573	-0.844
Mof_H 	H 	0.5363	0.5906	0.8492	0.182
Mof_H 	H 	0.5847	0.6039	0.9249	0.21
Mof_H 	H 	0.5854	0.6341	0.8235	0.25
Mof_C 	C 	0.5973	0.4944	0.8637	-0.286
Mof_H 	H 	0.6254	0.4662	0.8459	0.479
Mof_H 	H 	0.597	0.499	0.9327	0.02
Mof_H 	H 	0.56	0.4821	0.8422	0.014
Mof_C 	C 	0.5024	0.627	0.128	-0.962
Mof_C 	C 	0.427	0.5522	0.156	0.01
Mof_C 	C 	0.4021	0.6556	0.161	-0.753
Mof_H 	H 	0.5289	0.646	0.1709	-0.07
Mof_H 	H 	0.4927	0.6521	0.0757	0.296
Mof_H 	H 	0.5197	0.5927	0.1034	0.345
Mof_H 	H 	0.4185	0.5511	0.0884	0.073
Mof_H 	H 	0.3933	0.5438	0.1929	0.08
Mof_H 	H 	0.4563	0.5241	0.1706	-0.035
Mof_H 	H 	0.3742	0.6551	0.2123	0.21
Mof_H 	H 	0.3838	0.6458	0.1011	0.187
Mof_H 	H 	0.4186	0.6933	0.1563	0.174
Mof_Ag	Ag	0.95148	0.76698	0.10694	0.241
Mof_S 	S 	0.93045	0.85109	0.98959	-0.052
Mof_C 	C 	0.9936	0.8749	0.938	-0.059
Mof_C 	C 	0.0408	0.8896	0.9924	0.139
Mof_C 	C 	0.909	0.9113	0.0544	-0.067
Mof_C 	C 	0.9112	0.9092	0.1543	0.074
Mof_H 	H 	0.9253	0.8764	0.1845	-0.025
Mof_C 	C 	0.9965	0.8774	0.8379	0.076
Mof_H 	H 	0.964	0.8681	0.8018	-0.004
Mof_C 	C 	0.8932	0.9543	0.2096	-0.25
Mof_O 	O 	0.0391	0.8834	0.0878	-0.203
Mof_C 	C 	0.0632	0.8313	0.1171	-0.047
Mof_H 	H 	0.1044	0.8324	0.1079	0.039
Mof_H 	H 	0.0479	0.8004	0.0777	0.028
Mof_C 	C 	0.05	0.8204	0.2199	0.095
Mof_N 	N 	0.0025	0.7923	0.2402	-0.192
Mof_C 	C 	0.99	0.7811	0.3301	0.059
Mof_H 	H 	0.955	0.7635	0.3437	-0.022
Mof_C 	C 	0.0252	0.7938	0.4039	-0.144
Mof_H 	H 	0.0159	0.7831	0.4669	0.042
Mof_C 	C 	0.0748	0.8227	0.3846	0.028
Mof_H 	H 	0.0989	0.8341	0.4348	-0.026
Mof_C 	C 	0.0889	0.8348	0.2899	-0.149
Mof_H 	H 	0.1237	0.8522	0.2742	0.057
Mof_C 	C 	0.8881	0.9493	0.3169	0.666
Mof_C 	C 	0.8251	0.9335	0.3372	-0.058
Mof_H 	H 	0.8095	0.9137	0.2823	0.057
Mof_H 	H 	0.8232	0.909	0.3931	0.121
Mof_H 	H 	0.8034	0.9678	0.349	-0.005
Mof_C 	C 	0.9237	0.9008	0.3573	-0.843
Mof_H 	H 	0.9637	0.9094	0.3492	0.182
Mof_H 	H 	0.9153	0.8961	0.4249	0.21
Mof_H 	H 	0.9146	0.8659	0.3235	0.25
Mof_C 	C 	0.9027	0.0056	0.3637	-0.286
Mof_H 	H 	0.8746	0.0338	0.3459	0.479
Mof_H 	H 	0.903	0.001	0.4327	0.02
Mof_H 	H 	0.94	0.0179	0.3422	0.014
Mof_C 	C 	0.9976	0.873	0.628	-0.962
Mof_C 	C 	0.073	0.9478	0.656	0.01
Mof_C 	C 	0.0979	0.8444	0.661	-0.753
Mof_H 	H 	0.9711	0.854	0.6709	-0.07
Mof_H 	H 	0.0073	0.8479	0.5757	0.296
Mof_H 	H 	0.9803	0.9073	0.6034	0.345
Mof_H 	H 	0.0815	0.9489	0.5884	0.073
Mof_H 	H 	0.1067	0.9562	0.6929	0.08
Mof_H 	H 	0.0437	0.9759	0.6706	-0.035
Mof_H 	H 	0.1258	0.8449	0.7123	0.21
Mof_H 	H 	0.1162	0.8542	0.6011	0.187
Mof_H 	H 	0.0814	0.8067	0.6563	0.174
Mof_Ag	Ag	0.45148	0.26698	0.60694	0.241
Mof_S 	S 	0.43045	0.35109	0.48959	-0.053
Mof_C 	C 	0.4936	0.3749	0.438	-0.059
Mof_C 	C 	0.5408	0.3896	0.4924	0.139
Mof_C 	C 	0.409	0.4113	0.5544	-0.066
Mof_C 	C 	0.4112	0.4092	0.6543	0.074
Mof_H 	H 	0.4253	0.3764	0.6845	-0.025
Mof_C 	C 	0.4965	0.3774	0.3379	0.076
Mof_H 	H 	0.464	0.3681	0.3018	-0.004
Mof_C 	C 	0.3932	0.4543	0.7096	-0.249
Mof_O 	O 	0.5391	0.3834	0.5878	-0.203
Mof_C 	C 	0.5632	0.3313	0.6171	-0.047
Mof_H 	H 	0.6044	0.3324	0.6079	0.039
Mof_H 	H 	0.5479	0.3004	0.5777	0.028
Mof_C 	C 	0.55	0.3204	0.7199	0.095
Mof_N 	N 	0.5025	0.2923	0.7402	-0.192
Mof_C 	C 	0.49	0.2811	0.8301	0.059
Mof_H 	H 	0.455	0.2635	0.8437	-0.022
Mof_C 	C 	0.5252	0.2938	0.9039	-0.145
Mof_H 	H 	0.5159	0.2831	0.9669	0.042
Mof_C 	C 	0.5748	0.3227	0.8846	0.028
Mof_H 	H 	0.5989	0.3341	0.9348	-0.026
Mof_C 	C 	0.5889	0.3348	0.7899	-0.149
Mof_H 	H 	0.6237	0.3522	0.7742	0.057
Mof_C 	C 	0.3881	0.4493	0.8169	0.666
Mof_C 	C 	0.3251	0.4335	0.8372	-0.058
Mof_H 	H 	0.3095	0.4137	0.7823	0.057
Mof_H 	H 	0.3232	0.409	0.8931	0.121
Mof_H 	H 	0.3034	0.4678	0.849	-0.005
Mof_C 	C 	0.4237	0.4008	0.8573	-0.844
Mof_H 	H 	0.4637	0.4094	0.8492	0.182
Mof_H 	H 	0.4153	0.3961	0.9249	0.21
Mof_H 	H 	0.4146	0.3659	0.8235	0.25
Mof_C 	C 	0.4027	0.5056	0.8637	-0.286
Mof_H 	H 	0.3746	0.5338	0.8459	0.479
Mof_H 	H 	0.403	0.501	0.9327	0.02
Mof_H 	H 	0.44	0.5179	0.8422	0.014
Mof_C 	C 	0.4976	0.373	0.128	-0.962
Mof_C 	C 	0.573	0.4478	0.156	0.01
Mof_C 	C 	0.5979	0.3444	0.161	-0.753
Mof_H 	H 	0.4711	0.354	0.1709	-0.07
Mof_H 	H 	0.5073	0.3479	0.0757	0.296
Mof_H 	H 	0.4803	0.4073	0.1034	0.345
Mof_H 	H 	0.5815	0.4489	0.0884	0.073
Mof_H 	H 	0.6067	0.4562	0.1929	0.08
Mof_H 	H 	0.5437	0.4759	0.1706	-0.035
Mof_H 	H 	0.6258	0.3449	0.2123	0.21
Mof_H 	H 	0.6162	0.3542	0.1011	0.187
Mof_H 	H 	0.5814	0.3067	0.1563	0.174
Mof_Ag	Ag	0.23302	0.95148	0.89306	0.241
Mof_S 	S 	0.14891	0.93045	0.01041	-0.052
Mof_C 	C 	0.1251	0.9936	0.062	-0.059
Mof_C 	C 	0.1104	0.0408	0.0076	0.139
Mof_C 	C 	0.0887	0.909	0.9456	-0.067
Mof_C 	C 	0.0908	0.9112	0.8457	0.074
Mof_H 	H 	0.1236	0.9253	0.8155	-0.025
Mof_C 	C 	0.1226	0.9965	0.1621	0.076
Mof_H 	H 	0.1319	0.964	0.1982	-0.004
Mof_C 	C 	0.0457	0.8932	0.7904	-0.25
Mof_O 	O 	0.1166	0.0391	0.9122	-0.203
Mof_C 	C 	0.1687	0.0632	0.8829	-0.047
Mof_H 	H 	0.1676	0.1044	0.8921	0.039
Mof_H 	H 	0.1996	0.0479	0.9223	0.028
Mof_C 	C 	0.1796	0.05	0.7801	0.095
Mof_N 	N 	0.2077	0.0025	0.7598	-0.192
Mof_C 	C 	0.2189	0.99	0.6699	0.059
Mof_H 	H 	0.2365	0.955	0.6563	-0.022
Mof_C 	C 	0.2062	0.0252	0.5961	-0.144
Mof_H 	H 	0.2169	0.0159	0.5331	0.042
Mof_C 	C 	0.1773	0.0748	0.6154	0.028
Mof_H 	H 	0.1659	0.0989	0.5652	-0.026
Mof_C 	C 	0.1652	0.0889	0.7101	-0.149
Mof_H 	H 	0.1478	0.1237	0.7258	0.057
Mof_C 	C 	0.0507	0.8881	0.6831	0.666
Mof_C 	C 	0.0665	0.8251	0.6628	-0.058
Mof_H 	H 	0.0863	0.8095	0.7177	0.057
Mof_H 	H 	0.091	0.8232	0.6069	0.121
Mof_H 	H 	0.0322	0.8034	0.651	-0.005
Mof_C 	C 	0.0992	0.9237	0.6427	-0.843
Mof_H 	H 	0.0906	0.9637	0.6508	0.182
Mof_H 	H 	0.1039	0.9153	0.5751	0.21
Mof_H 	H 	0.1341	0.9146	0.6765	0.25
Mof_C 	C 	0.9944	0.9027	0.6363	-0.286
Mof_H 	H 	0.9662	0.8746	0.6541	0.479
Mof_H 	H 	0.999	0.903	0.5673	0.02
Mof_H 	H 	0.9821	0.94	0.6578	0.014
Mof_C 	C 	0.127	0.9976	0.372	-0.962
Mof_C 	C 	0.0522	0.073	0.344	0.01
Mof_C 	C 	0.1556	0.0979	0.339	-0.753
Mof_H 	H 	0.146	0.9711	0.3291	-0.07
Mof_H 	H 	0.1521	0.0073	0.4243	0.296
Mof_H 	H 	0.0927	0.9803	0.3966	0.345
Mof_H 	H 	0.0511	0.0815	0.4116	0.073
Mof_H 	H 	0.0438	0.1067	0.3071	0.08
Mof_H 	H 	0.0241	0.0437	0.3294	-0.035
Mof_H 	H 	0.1551	0.1258	0.2877	0.21
Mof_H 	H 	0.1458	0.1162	0.3989	0.187
Mof_H 	H 	0.1933	0.0814	0.3437	0.174
Mof_Ag	Ag	0.73302	0.45148	0.39306	0.241
Mof_S 	S 	0.64891	0.43045	0.51041	-0.053
Mof_C 	C 	0.6251	0.4936	0.562	-0.059
Mof_C 	C 	0.6104	0.5408	0.5076	0.139
Mof_C 	C 	0.5887	0.409	0.4456	-0.066
Mof_C 	C 	0.5908	0.4112	0.3457	0.074
Mof_H 	H 	0.6236	0.4253	0.3155	-0.025
Mof_C 	C 	0.6226	0.4965	0.6621	0.076
Mof_H 	H 	0.6319	0.464	0.6982	-0.004
Mof_C 	C 	0.5457	0.3932	0.2904	-0.249
Mof_O 	O 	0.6166	0.5391	0.4122	-0.203
Mof_C 	C 	0.6687	0.5632	0.3829	-0.047
Mof_H 	H 	0.6676	0.6044	0.3921	0.039
Mof_H 	H 	0.6996	0.5479	0.4223	0.028
Mof_C 	C 	0.6796	0.55	0.2801	0.095
Mof_N 	N 	0.7077	0.5025	0.2598	-0.192
Mof_C 	C 	0.7189	0.49	0.1699	0.059
Mof_H 	H 	0.7365	0.455	0.1563	-0.022
Mof_C 	C 	0.7062	0.5252	0.0961	-0.145
Mof_H 	H 	0.7169	0.5159	0.0331	0.042
Mof_C 	C 	0.6773	0.5748	0.1154	0.028
Mof_H 	H 	0.6659	0.5989	0.0652	-0.026
Mof_C 	C 	0.6652	0.5889	0.2101	-0.149
Mof_H 	H 	0.6478	0.6237	0.2258	0.057
Mof_C 	C 	0.5507	0.3881	0.1831	0.666
Mof_C 	C 	0.5665	0.3251	0.1628	-0.058
Mof_H 	H 	0.5863	0.3095	0.2177	0.057
Mof_H 	H 	0.591	0.3232	0.1069	0.121
Mof_H 	H 	0.5322	0.3034	0.151	-0.005
Mof_C 	C 	0.5992	0.4237	0.1427	-0.844
Mof_H 	H 	0.5906	0.4637	0.1508	0.182
Mof_H 	H 	0.6039	0.4153	0.0751	0.21
Mof_H 	H 	0.6341	0.4146	0.1765	0.25
Mof_C 	C 	0.4944	0.4027	0.1363	-0.286
Mof_H 	H 	0.4662	0.3746	0.1541	0.479
Mof_H 	H 	0.499	0.403	0.0673	0.02
Mof_H 	H 	0.4821	0.44	0.1578	0.014
Mof_C 	C 	0.627	0.4976	0.872	-0.962
Mof_C 	C 	0.5522	0.573	0.844	0.01
Mof_C 	C 	0.6556	0.5979	0.839	-0.753
Mof_H 	H 	0.646	0.4711	0.8291	-0.07
Mof_H 	H 	0.6521	0.5073	0.9243	0.296
Mof_H 	H 	0.5927	0.4803	0.8966	0.345
Mof_H 	H 	0.5511	0.5815	0.9116	0.073
Mof_H 	H 	0.5438	0.6067	0.8071	0.08
Mof_H 	H 	0.5241	0.5437	0.8294	-0.035
Mof_H 	H 	0.6551	0.6258	0.7877	0.21
Mof_H 	H 	0.6458	0.6162	0.8989	0.187
Mof_H 	H 	0.6933	0.5814	0.8437	0.174
Mof_Ag	Ag	0.76698	0.04852	0.89306	0.241
Mof_S 	S 	0.85109	0.06955	0.01041	-0.052
Mof_C 	C 	0.8749	0.0064	0.062	-0.059
Mof_C 	C 	0.8896	0.9592	0.0076	0.139
Mof_C 	C 	0.9113	0.091	0.9456	-0.067
Mof_C 	C 	0.9092	0.0888	0.8457	0.074
Mof_H 	H 	0.8764	0.0747	0.8155	-0.025
Mof_C 	C 	0.8774	0.0035	0.1621	0.076
Mof_H 	H 	0.8681	0.036	0.1982	-0.004
Mof_C 	C 	0.9543	0.1068	0.7904	-0.25
Mof_O 	O 	0.8834	0.9609	0.9122	-0.203
Mof_C 	C 	0.8313	0.9368	0.8829	-0.047
Mof_H 	H 	0.8324	0.8956	0.8921	0.039
Mof_H 	H 	0.8004	0.9521	0.9223	0.028
Mof_C 	C 	0.8204	0.95	0.7801	0.095
Mof_N 	N 	0.7923	0.9975	0.7598	-0.192
Mof_C 	C 	0.7811	0.01	0.6699	0.059
Mof_H 	H 	0.7635	0.045	0.6563	-0.022
Mof_C 	C 	0.7938	0.9748	0.5961	-0.144
Mof_H 	H 	0.7831	0.9841	0.5331	0.042
Mof_C 	C 	0.8227	0.9252	0.6154	0.028
Mof_H 	H 	0.8341	0.9011	0.5652	-0.026
Mof_C 	C 	0.8348	0.9111	0.7101	-0.149
Mof_H 	H 	0.8522	0.8763	0.7258	0.057
Mof_C 	C 	0.9493	0.1119	0.6831	0.666
Mof_C 	C 	0.9335	0.1749	0.6628	-0.058
Mof_H 	H 	0.9137	0.1905	0.7177	0.057
Mof_H 	H 	0.909	0.1768	0.6069	0.121
Mof_H 	H 	0.9678	0.1966	0.651	-0.005
Mof_C 	C 	0.9008	0.0763	0.6427	-0.843
Mof_H 	H 	0.9094	0.0363	0.6508	0.182
Mof_H 	H 	0.8961	0.0847	0.5751	0.21
Mof_H 	H 	0.8659	0.0854	0.6765	0.25
Mof_C 	C 	0.0056	0.0973	0.6363	-0.286
Mof_H 	H 	0.0338	0.1254	0.6541	0.479
Mof_H 	H 	0.001	0.097	0.5673	0.02
Mof_H 	H 	0.0179	0.06	0.6578	0.014
Mof_C 	C 	0.873	0.0024	0.372	-0.962
Mof_C 	C 	0.9478	0.927	0.344	0.01
Mof_C 	C 	0.8444	0.9021	0.339	-0.753
Mof_H 	H 	0.854	0.0289	0.3291	-0.07
Mof_H 	H 	0.8479	0.9927	0.4243	0.296
Mof_H 	H 	0.9073	0.0197	0.3966	0.345
Mof_H 	H 	0.9489	0.9185	0.4116	0.073
Mof_H 	H 	0.9562	0.8933	0.3071	0.08
Mof_H 	H 	0.9759	0.9563	0.3294	-0.035
Mof_H 	H 	0.8449	0.8742	0.2877	0.21
Mof_H 	H 	0.8542	0.8838	0.3989	0.187
Mof_H 	H 	0.8067	0.9186	0.3437	0.174
Mof_Ag	Ag	0.26698	0.54852	0.39306	0.241
Mof_S 	S 	0.35109	0.56955	0.51041	-0.053
Mof_C 	C 	0.3749	0.5064	0.562	-0.059
Mof_C 	C 	0.3896	0.4592	0.5076	0.139
Mof_C 	C 	0.4113	0.591	0.4456	-0.066
Mof_C 	C 	0.4092	0.5888	0.3457	0.074
Mof_H 	H 	0.3764	0.5747	0.3155	-0.025
Mof_C 	C 	0.3774	0.5035	0.6621	0.076
Mof_H 	H 	0.3681	0.536	0.6982	-0.004
Mof_C 	C 	0.4543	0.6068	0.2904	-0.249
Mof_O 	O 	0.3834	0.4609	0.4122	-0.203
Mof_C 	C 	0.3313	0.4368	0.3829	-0.047
Mof_H 	H 	0.3324	0.3956	0.3921	0.039
Mof_H 	H 	0.3004	0.4521	0.4223	0.028
Mof_C 	C 	0.3204	0.45	0.2801	0.095
Mof_N 	N 	0.2923	0.4975	0.2598	-0.192
Mof_C 	C 	0.2811	0.51	0.1699	0.059
Mof_H 	H 	0.2635	0.545	0.1563	-0.022
Mof_C 	C 	0.2938	0.4748	0.0961	-0.145
Mof_H 	H 	0.2831	0.4841	0.0331	0.042
Mof_C 	C 	0.3227	0.4252	0.1154	0.028
Mof_H 	H 	0.3341	0.4011	0.0652	-0.026
Mof_C 	C 	0.3348	0.4111	0.2101	-0.149
Mof_H 	H 	0.3522	0.3763	0.2258	0.057
Mof_C 	C 	0.4493	0.6119	0.1831	0.666
Mof_C 	C 	0.4335	0.6749	0.1628	-0.058
Mof_H 	H 	0.4137	0.6905	0.2177	0.057
Mof_H 	H 	0.409	0.6768	0.1069	0.121
Mof_H 	H 	0.4678	0.6966	0.151	-0.005
Mof_C 	C 	0.4008	0.5763	0.1427	-0.844
Mof_H 	H 	0.4094	0.5363	0.1508	0.182
Mof_H 	H 	0.3961	0.5847	0.0751	0.21
Mof_H 	H 	0.3659	0.5854	0.1765	0.25
Mof_C 	C 	0.5056	0.5973	0.1363	-0.286
Mof_H 	H 	0.5338	0.6254	0.1541	0.479
Mof_H 	H 	0.501	0.597	0.0673	0.02
Mof_H 	H 	0.5179	0.56	0.1578	0.014
Mof_C 	C 	0.373	0.5024	0.872	-0.962
Mof_C 	C 	0.4478	0.427	0.844	0.01
Mof_C 	C 	0.3444	0.4021	0.839	-0.753
Mof_H 	H 	0.354	0.5289	0.8291	-0.07
Mof_H 	H 	0.3479	0.4927	0.9243	0.296
Mof_H 	H 	0.4073	0.5197	0.8966	0.345
Mof_H 	H 	0.4489	0.4185	0.9116	0.073
Mof_H 	H 	0.4562	0.3933	0.8071	0.08
Mof_H 	H 	0.4759	0.4563	0.8294	-0.035
Mof_H 	H 	0.3449	0.3742	0.7877	0.21
Mof_H 	H 	0.3542	0.3838	0.8989	0.187
Mof_H 	H 	0.3067	0.4186	0.8437	0.174
Mof_Ag	Ag	0.45148	0.23302	0.64306	0.241
Mof_S 	S 	0.43045	0.14891	0.76041	-0.053
Mof_C 	C 	0.4936	0.1251	0.812	-0.059
Mof_C 	C 	0.5408	0.1104	0.7576	0.139
Mof_C 	C 	0.409	0.0887	0.6956	-0.066
Mof_C 	C 	0.4112	0.0908	0.5957	0.074
Mof_H 	H 	0.4253	0.1236	0.5655	-0.025
Mof_C 	C 	0.4965	0.1226	0.9121	0.076
Mof_H 	H 	0.464	0.1319	0.9482	-0.004
Mof_C 	C 	0.3932	0.0457	0.5404	-0.25
Mof_O 	O 	0.5391	0.1166	0.6622	-0.203
Mof_C 	C 	0.5632	0.1687	0.6329	-0.047
Mof_H 	H 	0.6044	0.1676	0.6421	0.039
Mof_H 	H 	0.5479	0.1996	0.6723	0.028
Mof_C 	C 	0.55	0.1796	0.5301	0.095
Mof_N 	N 	0.5025	0.2077	0.5098	-0.192
Mof_C 	C 	0.49	0.2189	0.4199	0.059
Mof_H 	H 	0.455	0.2365	0.4063	-0.022
Mof_C 	C 	0.5252	0.2062	0.3461	-0.145
Mof_H 	H 	0.5159	0.2169	0.2831	0.042
Mof_C 	C 	0.5748	0.1773	0.3654	0.028
Mof_H 	H 	0.5989	0.1659	0.3152	-0.026
Mof_C 	C 	0.5889	0.1652	0.4601	-0.149
Mof_H 	H 	0.6237	0.1478	0.4758	0.057
Mof_C 	C 	0.3881	0.0507	0.4331	0.666
Mof_C 	C 	0.3251	0.0665	0.4128	-0.058
Mof_H 	H 	0.3095	0.0863	0.4677	0.057
Mof_H 	H 	0.3232	0.091	0.3569	0.121
Mof_H 	H 	0.3034	0.0322	0.401	-0.005
Mof_C 	C 	0.4237	0.0992	0.3927	-0.844
Mof_H 	H 	0.4637	0.0906	0.4008	0.182
Mof_H 	H 	0.4153	0.1039	0.3251	0.21
Mof_H 	H 	0.4146	0.1341	0.4265	0.25
Mof_C 	C 	0.4027	0.9944	0.3863	-0.286
Mof_H 	H 	0.3746	0.9662	0.4041	0.479
Mof_H 	H 	0.403	0.999	0.3173	0.02
Mof_H 	H 	0.44	0.9821	0.4078	0.014
Mof_C 	C 	0.4976	0.127	0.122	-0.961
Mof_C 	C 	0.573	0.0522	0.094	0.01
Mof_C 	C 	0.5979	0.1556	0.089	-0.753
Mof_H 	H 	0.4711	0.146	0.0791	-0.07
Mof_H 	H 	0.5073	0.1521	0.1743	0.296
Mof_H 	H 	0.4803	0.0927	0.1466	0.345
Mof_H 	H 	0.5815	0.0511	0.1616	0.073
Mof_H 	H 	0.6067	0.0438	0.0571	0.08
Mof_H 	H 	0.5437	0.0241	0.0794	-0.035
Mof_H 	H 	0.6258	0.1551	0.0377	0.21
Mof_H 	H 	0.6162	0.1458	0.1489	0.187
Mof_H 	H 	0.5814	0.1933	0.0937	0.174
Mof_Ag	Ag	0.95148	0.73302	0.14306	0.241
Mof_S 	S 	0.93045	0.64891	0.26041	-0.053
Mof_C 	C 	0.9936	0.6251	0.312	-0.059
Mof_C 	C 	0.0408	0.6104	0.2576	0.139
Mof_C 	C 	0.909	0.5887	0.1956	-0.066
Mof_C 	C 	0.9112	0.5908	0.0957	0.074
Mof_H 	H 	0.9253	0.6236	0.0655	-0.025
Mof_C 	C 	0.9965	0.6226	0.4121	0.076
Mof_H 	H 	0.964	0.6319	0.4482	-0.004
Mof_C 	C 	0.8932	0.5457	0.0404	-0.249
Mof_O 	O 	0.0391	0.6166	0.1622	-0.203
Mof_C 	C 	0.0632	0.6687	0.1329	-0.047
Mof_H 	H 	0.1044	0.6676	0.1421	0.039
Mof_H 	H 	0.0479	0.6996	0.1723	0.028
Mof_C 	C 	0.05	0.6796	0.0301	0.095
Mof_N 	N 	0.0025	0.7077	0.0098	-0.192
Mof_C 	C 	0.99	0.7189	0.9199	0.059
Mof_H 	H 	0.955	0.7365	0.9063	-0.022
Mof_C 	C 	0.0252	0.7062	0.8461	-0.145
Mof_H 	H 	0.0159	0.7169	0.7831	0.042
Mof_C 	C 	0.0748	0.6773	0.8654	0.028
Mof_H 	H 	0.0989	0.6659	0.8152	-0.026
Mof_C 	C 	0.0889	0.6652	0.9601	-0.149
Mof_H 	H 	0.1237	0.6478	0.9758	0.057
Mof_C 	C 	0.8881	0.5507	0.9331	0.666
Mof_C 	C 	0.8251	0.5665	0.9128	-0.058
Mof_H 	H 	0.8095	0.5863	0.9677	0.057
Mof_H 	H 	0.8232	0.591	0.8569	0.121
Mof_H 	H 	0.8034	0.5322	0.901	-0.005
Mof_C 	C 	0.9237	0.5992	0.8927	-0.843
Mof_H 	H 	0.9637	0.5906	0.9008	0.182
Mof_H 	H 	0.9153	0.6039	0.8251	0.21
Mof_H 	H 	0.9146	0.6341	0.9265	0.25
Mof_C 	C 	0.9027	0.4944	0.8863	-0.286
Mof_H 	H 	0.8746	0.4662	0.9041	0.478
Mof_H 	H 	0.903	0.499	0.8173	0.02
Mof_H 	H 	0.94	0.4821	0.9078	0.014
Mof_C 	C 	0.9976	0.627	0.622	-0.962
Mof_C 	C 	0.073	0.5522	0.594	0.01
Mof_C 	C 	0.0979	0.6556	0.589	-0.753
Mof_H 	H 	0.9711	0.646	0.5791	-0.07
Mof_H 	H 	0.0073	0.6521	0.6743	0.296
Mof_H 	H 	0.9803	0.5927	0.6466	0.345
Mof_H 	H 	0.0815	0.5511	0.6616	0.073
Mof_H 	H 	0.1067	0.5438	0.5571	0.08
Mof_H 	H 	0.0437	0.5241	0.5794	-0.035
Mof_H 	H 	0.1258	0.6551	0.5377	0.21
Mof_H 	H 	0.1162	0.6458	0.6489	0.187
Mof_H 	H 	0.0814	0.6933	0.5937	0.174
Mof_Ag	Ag	0.54852	0.76698	0.64306	0.241
Mof_S 	S 	0.56955	0.85109	0.76041	-0.053
Mof_C 	C 	0.5064	0.8749	0.812	-0.059
Mof_C 	C 	0.4592	0.8896	0.7576	0.139
Mof_C 	C 	0.591	0.9113	0.6956	-0.066
Mof_C 	C 	0.5888	0.9092	0.5957	0.074
Mof_H 	H 	0.5747	0.8764	0.5655	-0.025
Mof_C 	C 	0.5035	0.8774	0.9121	0.076
Mof_H 	H 	0.536	0.8681	0.9482	-0.004
Mof_C 	C 	0.6068	0.9543	0.5404	-0.25
Mof_O 	O 	0.4609	0.8834	0.6622	-0.203
Mof_C 	C 	0.4368	0.8313	0.6329	-0.047
Mof_H 	H 	0.3956	0.8324	0.6421	0.039
Mof_H 	H 	0.4521	0.8004	0.6723	0.028
Mof_C 	C 	0.45	0.8204	0.5301	0.095
Mof_N 	N 	0.4975	0.7923	0.5098	-0.192
Mof_C 	C 	0.51	0.7811	0.4199	0.059
Mof_H 	H 	0.545	0.7635	0.4063	-0.022
Mof_C 	C 	0.4748	0.7938	0.3461	-0.145
Mof_H 	H 	0.4841	0.7831	0.2831	0.042
Mof_C 	C 	0.4252	0.8227	0.3654	0.028
Mof_H 	H 	0.4011	0.8341	0.3152	-0.026
Mof_C 	C 	0.4111	0.8348	0.4601	-0.149
Mof_H 	H 	0.3763	0.8522	0.4758	0.057
Mof_C 	C 	0.6119	0.9493	0.4331	0.666
Mof_C 	C 	0.6749	0.9335	0.4128	-0.058
Mof_H 	H 	0.6905	0.9137	0.4677	0.057
Mof_H 	H 	0.6768	0.909	0.3569	0.121
Mof_H 	H 	0.6966	0.9678	0.401	-0.005
Mof_C 	C 	0.5763	0.9008	0.3927	-0.844
Mof_H 	H 	0.5363	0.9094	0.4008	0.182
Mof_H 	H 	0.5847	0.8961	0.3251	0.21
Mof_H 	H 	0.5854	0.8659	0.4265	0.25
Mof_C 	C 	0.5973	0.0056	0.3863	-0.286
Mof_H 	H 	0.6254	0.0338	0.4041	0.479
Mof_H 	H 	0.597	0.001	0.3173	0.02
Mof_H 	H 	0.56	0.0179	0.4078	0.014
Mof_C 	C 	0.5024	0.873	0.122	-0.961
Mof_C 	C 	0.427	0.9478	0.094	0.01
Mof_C 	C 	0.4021	0.8444	0.089	-0.753
Mof_H 	H 	0.5289	0.854	0.0791	-0.07
Mof_H 	H 	0.4927	0.8479	0.1743	0.296
Mof_H 	H 	0.5197	0.9073	0.1466	0.345
Mof_H 	H 	0.4185	0.9489	0.1616	0.073
Mof_H 	H 	0.3933	0.9562	0.0571	0.08
Mof_H 	H 	0.4563	0.9759	0.0794	-0.035
Mof_H 	H 	0.3742	0.8449	0.0377	0.21
Mof_H 	H 	0.3838	0.8542	0.1489	0.187
Mof_H 	H 	0.4186	0.8067	0.0937	0.174
Mof_Ag	Ag	0.04852	0.26698	0.14306	0.241
Mof_S 	S 	0.06955	0.35109	0.26041	-0.053
Mof_C 	C 	0.0064	0.3749	0.312	-0.059
Mof_C 	C 	0.9592	0.3896	0.2576	0.139
Mof_C 	C 	0.091	0.4113	0.1956	-0.066
Mof_C 	C 	0.0888	0.4092	0.0957	0.074
Mof_H 	H 	0.0747	0.3764	0.0655	-0.025
Mof_C 	C 	0.0035	0.3774	0.4121	0.076
Mof_H 	H 	0.036	0.3681	0.4482	-0.004
Mof_C 	C 	0.1068	0.4543	0.0404	-0.249
Mof_O 	O 	0.9609	0.3834	0.1622	-0.203
Mof_C 	C 	0.9368	0.3313	0.1329	-0.047
Mof_H 	H 	0.8956	0.3324	0.1421	0.039
Mof_H 	H 	0.9521	0.3004	0.1723	0.028
Mof_C 	C 	0.95	0.3204	0.0301	0.095
Mof_N 	N 	0.9975	0.2923	0.0098	-0.192
Mof_C 	C 	0.01	0.2811	0.9199	0.059
Mof_H 	H 	0.045	0.2635	0.9063	-0.022
Mof_C 	C 	0.9748	0.2938	0.8461	-0.145
Mof_H 	H 	0.9841	0.2831	0.7831	0.042
Mof_C 	C 	0.9252	0.3227	0.8654	0.028
Mof_H 	H 	0.9011	0.3341	0.8152	-0.026
Mof_C 	C 	0.9111	0.3348	0.9601	-0.149
Mof_H 	H 	0.8763	0.3522	0.9758	0.057
Mof_C 	C 	0.1119	0.4493	0.9331	0.666
Mof_C 	C 	0.1749	0.4335	0.9128	-0.058
Mof_H 	H 	0.1905	0.4137	0.9677	0.057
Mof_H 	H 	0.1768	0.409	0.8569	0.121
Mof_H 	H 	0.1966	0.4678	0.901	-0.005
Mof_C 	C 	0.0763	0.4008	0.8927	-0.843
Mof_H 	H 	0.0363	0.4094	0.9008	0.182
Mof_H 	H 	0.0847	0.3961	0.8251	0.21
Mof_H 	H 	0.0854	0.3659	0.9265	0.25
Mof_C 	C 	0.0973	0.5056	0.8863	-0.286
Mof_H 	H 	0.1254	0.5338	0.9041	0.478
Mof_H 	H 	0.097	0.501	0.8173	0.02
Mof_H 	H 	0.06	0.5179	0.9078	0.014
Mof_C 	C 	0.0024	0.373	0.622	-0.962
Mof_C 	C 	0.927	0.4478	0.594	0.01
Mof_C 	C 	0.9021	0.3444	0.589	-0.753
Mof_H 	H 	0.0289	0.354	0.5791	-0.07
Mof_H 	H 	0.9927	0.3479	0.6743	0.296
Mof_H 	H 	0.0197	0.4073	0.6466	0.345
Mof_H 	H 	0.9185	0.4489	0.6616	0.073
Mof_H 	H 	0.8933	0.4562	0.5571	0.08
Mof_H 	H 	0.9563	0.4759	0.5794	-0.035
Mof_H 	H 	0.8742	0.3449	0.5377	0.21
Mof_H 	H 	0.8838	0.3542	0.6489	0.187
Mof_H 	H 	0.9186	0.3067	0.5937	0.174
Mof_Ag	Ag	0.26698	0.95148	0.85694	0.241
Mof_S 	S 	0.35109	0.93045	0.73959	-0.053
Mof_C 	C 	0.3749	0.9936	0.688	-0.059
Mof_C 	C 	0.3896	0.0408	0.7424	0.139
Mof_C 	C 	0.4113	0.909	0.8044	-0.066
Mof_C 	C 	0.4092	0.9112	0.9043	0.074
Mof_H 	H 	0.3764	0.9253	0.9345	-0.025
Mof_C 	C 	0.3774	0.9965	0.5879	0.076
Mof_H 	H 	0.3681	0.964	0.5518	-0.004
Mof_C 	C 	0.4543	0.8932	0.9596	-0.249
Mof_O 	O 	0.3834	0.0391	0.8378	-0.203
Mof_C 	C 	0.3313	0.0632	0.8671	-0.047
Mof_H 	H 	0.3324	0.1044	0.8579	0.039
Mof_H 	H 	0.3004	0.0479	0.8277	0.028
Mof_C 	C 	0.3204	0.05	0.9699	0.095
Mof_N 	N 	0.2923	0.0025	0.9902	-0.192
Mof_C 	C 	0.2811	0.99	0.0801	0.059
Mof_H 	H 	0.2635	0.955	0.0937	-0.022
Mof_C 	C 	0.2938	0.0252	0.1539	-0.145
Mof_H 	H 	0.2831	0.0159	0.2169	0.042
Mof_C 	C 	0.3227	0.0748	0.1346	0.028
Mof_H 	H 	0.3341	0.0989	0.1848	-0.026
Mof_C 	C 	0.3348	0.0889	0.0399	-0.149
Mof_H 	H 	0.3522	0.1237	0.0242	0.057
Mof_C 	C 	0.4493	0.8881	0.0669	0.666
Mof_C 	C 	0.4335	0.8251	0.0872	-0.058
Mof_H 	H 	0.4137	0.8095	0.0323	0.057
Mof_H 	H 	0.409	0.8232	0.1431	0.121
Mof_H 	H 	0.4678	0.8034	0.099	-0.005
Mof_C 	C 	0.4008	0.9237	0.1073	-0.843
Mof_H 	H 	0.4094	0.9637	0.0992	0.182
Mof_H 	H 	0.3961	0.9153	0.1749	0.21
Mof_H 	H 	0.3659	0.9146	0.0735	0.25
Mof_C 	C 	0.5056	0.9027	0.1137	-0.286
Mof_H 	H 	0.5338	0.8746	0.0959	0.478
Mof_H 	H 	0.501	0.903	0.1827	0.02
Mof_H 	H 	0.5179	0.94	0.0922	0.014
Mof_C 	C 	0.373	0.9976	0.378	-0.962
Mof_C 	C 	0.4478	0.073	0.406	0.01
Mof_C 	C 	0.3444	0.0979	0.411	-0.753
Mof_H 	H 	0.354	0.9711	0.4209	-0.07
Mof_H 	H 	0.3479	0.0073	0.3257	0.296
Mof_H 	H 	0.4073	0.9803	0.3534	0.345
Mof_H 	H 	0.4489	0.0815	0.3384	0.073
Mof_H 	H 	0.4562	0.1067	0.4429	0.08
Mof_H 	H 	0.4759	0.0437	0.4206	-0.035
Mof_H 	H 	0.3449	0.1258	0.4623	0.21
Mof_H 	H 	0.3542	0.1162	0.3511	0.187
Mof_H 	H 	0.3067	0.0814	0.4063	0.174
Mof_Ag	Ag	0.76698	0.45148	0.35694	0.241
Mof_S 	S 	0.85109	0.43045	0.23959	-0.053
Mof_C 	C 	0.8749	0.4936	0.188	-0.059
Mof_C 	C 	0.8896	0.5408	0.2424	0.139
Mof_C 	C 	0.9113	0.409	0.3044	-0.066
Mof_C 	C 	0.9092	0.4112	0.4043	0.074
Mof_H 	H 	0.8764	0.4253	0.4345	-0.025
Mof_C 	C 	0.8774	0.4965	0.0879	0.076
Mof_H 	H 	0.8681	0.464	0.0518	-0.004
Mof_C 	C 	0.9543	0.3932	0.4596	-0.25
Mof_O 	O 	0.8834	0.5391	0.3378	-0.203
Mof_C 	C 	0.8313	0.5632	0.3671	-0.047
Mof_H 	H 	0.8324	0.6044	0.3579	0.039
Mof_H 	H 	0.8004	0.5479	0.3277	0.028
Mof_C 	C 	0.8204	0.55	0.4699	0.095
Mof_N 	N 	0.7923	0.5025	0.4902	-0.192
Mof_C 	C 	0.7811	0.49	0.5801	0.059
Mof_H 	H 	0.7635	0.455	0.5937	-0.022
Mof_C 	C 	0.7938	0.5252	0.6539	-0.145
Mof_H 	H 	0.7831	0.5159	0.7169	0.042
Mof_C 	C 	0.8227	0.5748	0.6346	0.028
Mof_H 	H 	0.8341	0.5989	0.6848	-0.026
Mof_C 	C 	0.8348	0.5889	0.5399	-0.149
Mof_H 	H 	0.8522	0.6237	0.5242	0.057
Mof_C 	C 	0.9493	0.3881	0.5669	0.666
Mof_C 	C 	0.9335	0.3251	0.5872	-0.058
Mof_H 	H 	0.9137	0.3095	0.5323	0.057
Mof_H 	H 	0.909	0.3232	0.6431	0.121
Mof_H 	H 	0.9678	0.3034	0.599	-0.005
Mof_C 	C 	0.9008	0.4237	0.6073	-0.844
Mof_H 	H 	0.9094	0.4637	0.5992	0.182
Mof_H 	H 	0.8961	0.4153	0.6749	0.21
Mof_H 	H 	0.8659	0.4146	0.5735	0.25
Mof_C 	C 	0.0056	0.4027	0.6137	-0.286
Mof_H 	H 	0.0338	0.3746	0.5959	0.479
Mof_H 	H 	0.001	0.403	0.6827	0.02
Mof_H 	H 	0.0179	0.44	0.5922	0.014
Mof_C 	C 	0.873	0.4976	0.878	-0.961
Mof_C 	C 	0.9478	0.573	0.906	0.01
Mof_C 	C 	0.8444	0.5979	0.911	-0.753
Mof_H 	H 	0.854	0.4711	0.9209	-0.07
Mof_H 	H 	0.8479	0.5073	0.8257	0.296
Mof_H 	H 	0.9073	0.4803	0.8534	0.345
Mof_H 	H 	0.9489	0.5815	0.8384	0.073
Mof_H 	H 	0.9562	0.6067	0.9429	0.08
Mof_H 	H 	0.9759	0.5437	0.9206	-0.035
Mof_H 	H 	0.8449	0.6258	0.9623	0.21
Mof_H 	H 	0.8542	0.6162	0.8511	0.187
Mof_H 	H 	0.8067	0.5814	0.9063	0.174
Mof_Ag	Ag	0.73302	0.04852	0.85694	0.241
Mof_S 	S 	0.64891	0.06955	0.73959	-0.053
Mof_C 	C 	0.6251	0.0064	0.688	-0.059
Mof_C 	C 	0.6104	0.9592	0.7424	0.139
Mof_C 	C 	0.5887	0.091	0.8044	-0.066
Mof_C 	C 	0.5908	0.0888	0.9043	0.074
Mof_H 	H 	0.6236	0.0747	0.9345	-0.025
Mof_C 	C 	0.6226	0.0035	0.5879	0.076
Mof_H 	H 	0.6319	0.036	0.5518	-0.004
Mof_C 	C 	0.5457	0.1068	0.9596	-0.249
Mof_O 	O 	0.6166	0.9609	0.8378	-0.203
Mof_C 	C 	0.6687	0.9368	0.8671	-0.047
Mof_H 	H 	0.6676	0.8956	0.8579	0.039
Mof_H 	H 	0.6996	0.9521	0.8277	0.028
Mof_C 	C 	0.6796	0.95	0.9699	0.095
Mof_N 	N 	0.7077	0.9975	0.9902	-0.192
Mof_C 	C 	0.7189	0.01	0.0801	0.059
Mof_H 	H 	0.7365	0.045	0.0937	-0.022
Mof_C 	C 	0.7062	0.9748	0.1539	-0.145
Mof_H 	H 	0.7169	0.9841	0.2169	0.042
Mof_C 	C 	0.6773	0.9252	0.1346	0.028
Mof_H 	H 	0.6659	0.9011	0.1848	-0.026
Mof_C 	C 	0.6652	0.9111	0.0399	-0.149
Mof_H 	H 	0.6478	0.8763	0.0242	0.057
Mof_C 	C 	0.5507	0.1119	0.0669	0.666
Mof_C 	C 	0.5665	0.1749	0.0872	-0.058
Mof_H 	H 	0.5863	0.1905	0.0323	0.057
Mof_H 	H 	0.591	0.1768	0.1431	0.121
Mof_H 	H 	0.5322	0.1966	0.099	-0.005
Mof_C 	C 	0.5992	0.0763	0.1073	-0.843
Mof_H 	H 	0.5906	0.0363	0.0992	0.182
Mof_H 	H 	0.6039	0.0847	0.1749	0.21
Mof_H 	H 	0.6341	0.0854	0.0735	0.25
Mof_C 	C 	0.4944	0.0973	0.1137	-0.286
Mof_H 	H 	0.4662	0.1254	0.0959	0.478
Mof_H 	H 	0.499	0.097	0.1827	0.02
Mof_H 	H 	0.4821	0.06	0.0922	0.014
Mof_C 	C 	0.627	0.0024	0.378	-0.962
Mof_C 	C 	0.5522	0.927	0.406	0.01
Mof_C 	C 	0.6556	0.9021	0.411	-0.753
Mof_H 	H 	0.646	0.0289	0.4209	-0.07
Mof_H 	H 	0.6521	0.9927	0.3257	0.296
Mof_H 	H 	0.5927	0.0197	0.3534	0.345
Mof_H 	H 	0.5511	0.9185	0.3384	0.073
Mof_H 	H 	0.5438	0.8933	0.4429	0.08
Mof_H 	H 	0.5241	0.9563	0.4206	-0.035
Mof_H 	H 	0.6551	0.8742	0.4623	0.21
Mof_H 	H 	0.6458	0.8838	0.3511	0.187
Mof_H 	H 	0.6933	0.9186	0.4063	0.174
Mof_Ag	Ag	0.23302	0.54852	0.35694	0.241
Mof_S 	S 	0.14891	0.56955	0.23959	-0.053
Mof_C 	C 	0.1251	0.5064	0.188	-0.059
Mof_C 	C 	0.1104	0.4592	0.2424	0.139
Mof_C 	C 	0.0887	0.591	0.3044	-0.066
Mof_C 	C 	0.0908	0.5888	0.4043	0.074
Mof_H 	H 	0.1236	0.5747	0.4345	-0.025
Mof_C 	C 	0.1226	0.5035	0.0879	0.076
Mof_H 	H 	0.1319	0.536	0.0518	-0.004
Mof_C 	C 	0.0457	0.6068	0.4596	-0.25
Mof_O 	O 	0.1166	0.4609	0.3378	-0.203
Mof_C 	C 	0.1687	0.4368	0.3671	-0.047
Mof_H 	H 	0.1676	0.3956	0.3579	0.039
Mof_H 	H 	0.1996	0.4521	0.3277	0.028
Mof_C 	C 	0.1796	0.45	0.4699	0.095
Mof_N 	N 	0.2077	0.4975	0.4902	-0.192
Mof_C 	C 	0.2189	0.51	0.5801	0.059
Mof_H 	H 	0.2365	0.545	0.5937	-0.022
Mof_C 	C 	0.2062	0.4748	0.6539	-0.145
Mof_H 	H 	0.2169	0.4841	0.7169	0.042
Mof_C 	C 	0.1773	0.4252	0.6346	0.028
Mof_H 	H 	0.1659	0.4011	0.6848	-0.026
Mof_C 	C 	0.1652	0.4111	0.5399	-0.149
Mof_H 	H 	0.1478	0.3763	0.5242	0.057
Mof_C 	C 	0.0507	0.6119	0.5669	0.666
Mof_C 	C 	0.0665	0.6749	0.5872	-0.058
Mof_H 	H 	0.0863	0.6905	0.5323	0.057
Mof_H 	H 	0.091	0.6768	0.6431	0.121
Mof_H 	H 	0.0322	0.6966	0.599	-0.005
Mof_C 	C 	0.0992	0.5763	0.6073	-0.844
Mof_H 	H 	0.0906	0.5363	0.5992	0.182
Mof_H 	H 	0.1039	0.5847	0.6749	0.21
Mof_H 	H 	0.1341	0.5854	0.5735	0.25
Mof_C 	C 	0.9944	0.5973	0.6137	-0.286
Mof_H 	H 	0.9662	0.6254	0.5959	0.479
Mof_H 	H 	0.999	0.597	0.6827	0.02
Mof_H 	H 	0.9821	0.56	0.5922	0.014
Mof_C 	C 	0.127	0.5024	0.878	-0.961
Mof_C 	C 	0.0522	0.427	0.906	0.01
Mof_C 	C 	0.1556	0.4021	0.911	-0.753
Mof_H 	H 	0.146	0.5289	0.9209	-0.07
Mof_H 	H 	0.1521	0.4927	0.8257	0.296
Mof_H 	H 	0.0927	0.5197	0.8534	0.345
Mof_H 	H 	0.0511	0.4185	0.8384	0.073
Mof_H 	H 	0.0438	0.3933	0.9429	0.08
Mof_H 	H 	0.0241	0.4563	0.9206	-0.035
Mof_H 	H 	0.1551	0.3742	0.9623	0.21
Mof_H 	H 	0.1458	0.3838	0.8511	0.187
Mof_H 	H 	0.1933	0.4186	0.9063	0.174
_end
