data_functionalizedCrystal
_audit_creation_method	'EQeq! by Chris Wilmer'
_symmetry_space_group_name_H-M	'P1'
_symmetry_Int_Tables_number	1
_symmetry_cell_setting	triclinic
loop_
_symmetry_equiv_pos_as_xyz
  x,y,z
_cell_length_a	6.3462
_cell_length_b	16.58
_cell_length_c	24.018
_cell_angle_alpha	90
_cell_angle_beta	90.683
_cell_angle_gamma	90
loop_
_atom_site_label
_atom_site_type_symbol
_atom_site_fract_x
_atom_site_fract_y
_atom_site_fract_z
_atom_site_charge
Mof_Dy	Dy	0.26239	0.06217	0.02321	2.073
Mof_C 	C 	0.2328	0.9441	0.9322	0.548
Mof_C 	C 	0.2732	0.8991	0.8812	-0.374
Mof_C 	C 	0.4711	0.8615	0.8713	0.393
Mof_C 	C 	0.4939	0.8178	0.8208	-0.291
Mof_H 	H 	0.6249	0.7925	0.8134	0.129
Mof_C 	C 	0.3326	0.811	0.7823	0.121
Mof_C 	C 	0.1398	0.8503	0.7924	-0.23
Mof_H 	H 	0.0281	0.847	0.7658	0.101
Mof_C 	C 	0.1137	0.8928	0.8404	0.208
Mof_H 	H 	0.983	0.9191	0.8464	-0.048
Mof_C 	C 	0.3593	0.7615	0.7313	0.085
Mof_C 	C 	0.1949	0.7133	0.7113	-0.257
Mof_H 	H 	0.0616	0.7157	0.7288	0.126
Mof_C 	C 	0.2225	0.6624	0.6667	0.334
Mof_C 	C 	0.4175	0.6596	0.6386	-0.307
Mof_C 	C 	0.5777	0.7095	0.6582	0.155
Mof_H 	H 	0.7097	0.7089	0.6399	-0.009
Mof_C 	C 	0.5509	0.7601	0.7035	-0.182
Mof_H 	H 	0.6633	0.7939	0.7156	0.083
Mof_C 	C 	0.4517	0.6044	0.5912	0.524
Mof_O 	O 	0.0594	0.981	0.9403	-0.658
Mof_O 	O 	0.3728	0.9492	0.9706	-0.709
Mof_O 	O 	0.6093	0.6168	0.5597	-0.548
Mof_O 	O 	0.3229	0.5464	0.5847	-0.537
Mof_O 	O 	0.6339	0.8633	0.9064	-0.557
Mof_O 	O 	0.0558	0.6151	0.6513	-0.449
Mof_H 	H 	0.0943	0.582	0.627	0.27
Mof_Dy	Dy	0.73761	0.56217	0.47679	2.081
Mof_C 	C 	0.7672	0.4441	0.5678	0.547
Mof_C 	C 	0.7268	0.3991	0.6188	-0.372
Mof_C 	C 	0.5289	0.3615	0.6287	0.392
Mof_C 	C 	0.5061	0.3178	0.6792	-0.29
Mof_H 	H 	0.3751	0.2925	0.6866	0.129
Mof_C 	C 	0.6674	0.311	0.7177	0.119
Mof_C 	C 	0.8602	0.3503	0.7076	-0.226
Mof_H 	H 	0.9719	0.347	0.7342	0.099
Mof_C 	C 	0.8863	0.3928	0.6596	0.201
Mof_H 	H 	0.017	0.4191	0.6536	-0.043
Mof_C 	C 	0.6407	0.2615	0.7687	0.086
Mof_C 	C 	0.8051	0.2133	0.7887	-0.257
Mof_H 	H 	0.9384	0.2157	0.7712	0.126
Mof_C 	C 	0.7775	0.1624	0.8333	0.334
Mof_C 	C 	0.5825	0.1596	0.8614	-0.307
Mof_C 	C 	0.4223	0.2095	0.8418	0.155
Mof_H 	H 	0.2903	0.2089	0.8601	-0.008
Mof_C 	C 	0.4491	0.2601	0.7965	-0.182
Mof_H 	H 	0.3367	0.2939	0.7844	0.084
Mof_C 	C 	0.5483	0.1044	0.9088	0.523
Mof_O 	O 	0.9406	0.481	0.5597	-0.66
Mof_O 	O 	0.6272	0.4492	0.5294	-0.71
Mof_O 	O 	0.3907	0.1168	0.9403	-0.545
Mof_O 	O 	0.6771	0.0464	0.9153	-0.534
Mof_O 	O 	0.3661	0.3633	0.5936	-0.557
Mof_O 	O 	0.9442	0.1151	0.8487	-0.449
Mof_H 	H 	0.9057	0.082	0.873	0.271
Mof_Dy	Dy	0.73761	0.93783	0.97679	2.072
Mof_C 	C 	0.7672	0.0559	0.0678	0.547
Mof_C 	C 	0.7268	0.1009	0.1188	-0.374
Mof_C 	C 	0.5289	0.1385	0.1287	0.393
Mof_C 	C 	0.5061	0.1822	0.1792	-0.291
Mof_H 	H 	0.3751	0.2075	0.1866	0.129
Mof_C 	C 	0.6674	0.189	0.2177	0.121
Mof_C 	C 	0.8602	0.1497	0.2076	-0.23
Mof_H 	H 	0.9719	0.153	0.2342	0.101
Mof_C 	C 	0.8863	0.1072	0.1596	0.208
Mof_H 	H 	0.017	0.0809	0.1536	-0.048
Mof_C 	C 	0.6407	0.2385	0.2687	0.085
Mof_C 	C 	0.8051	0.2867	0.2887	-0.257
Mof_H 	H 	0.9384	0.2843	0.2712	0.126
Mof_C 	C 	0.7775	0.3376	0.3333	0.334
Mof_C 	C 	0.5825	0.3404	0.3614	-0.307
Mof_C 	C 	0.4223	0.2905	0.3418	0.155
Mof_H 	H 	0.2903	0.2911	0.3601	-0.009
Mof_C 	C 	0.4491	0.2399	0.2965	-0.182
Mof_H 	H 	0.3367	0.2061	0.2844	0.083
Mof_C 	C 	0.5483	0.3956	0.4088	0.524
Mof_O 	O 	0.9406	0.019	0.0597	-0.658
Mof_O 	O 	0.6272	0.0508	0.0294	-0.709
Mof_O 	O 	0.3907	0.3832	0.4403	-0.548
Mof_O 	O 	0.6771	0.4536	0.4153	-0.537
Mof_O 	O 	0.3661	0.1367	0.0936	-0.557
Mof_O 	O 	0.9442	0.3849	0.3487	-0.449
Mof_H 	H 	0.9057	0.418	0.373	0.27
Mof_Dy	Dy	0.26239	0.43783	0.52321	2.081
Mof_C 	C 	0.2328	0.5559	0.4322	0.547
Mof_C 	C 	0.2732	0.6009	0.3812	-0.372
Mof_C 	C 	0.4711	0.6385	0.3713	0.392
Mof_C 	C 	0.4939	0.6822	0.3208	-0.29
Mof_H 	H 	0.6249	0.7075	0.3134	0.129
Mof_C 	C 	0.3326	0.689	0.2823	0.119
Mof_C 	C 	0.1398	0.6497	0.2924	-0.226
Mof_H 	H 	0.0281	0.653	0.2658	0.099
Mof_C 	C 	0.1137	0.6072	0.3404	0.201
Mof_H 	H 	0.983	0.5809	0.3464	-0.043
Mof_C 	C 	0.3593	0.7385	0.2313	0.086
Mof_C 	C 	0.1949	0.7867	0.2113	-0.257
Mof_H 	H 	0.0616	0.7843	0.2288	0.126
Mof_C 	C 	0.2225	0.8376	0.1667	0.334
Mof_C 	C 	0.4175	0.8404	0.1386	-0.307
Mof_C 	C 	0.5777	0.7905	0.1582	0.155
Mof_H 	H 	0.7097	0.7911	0.1399	-0.008
Mof_C 	C 	0.5509	0.7399	0.2035	-0.182
Mof_H 	H 	0.6633	0.7061	0.2156	0.084
Mof_C 	C 	0.4517	0.8956	0.0912	0.523
Mof_O 	O 	0.0594	0.519	0.4403	-0.66
Mof_O 	O 	0.3728	0.5508	0.4706	-0.71
Mof_O 	O 	0.6093	0.8832	0.0597	-0.545
Mof_O 	O 	0.3229	0.9536	0.0847	-0.534
Mof_O 	O 	0.6339	0.6367	0.4064	-0.557
Mof_O 	O 	0.0558	0.8849	0.1513	-0.449
Mof_H 	H 	0.0943	0.918	0.127	0.271
_end
