data_functionalizedCrystal
_audit_creation_method	'EQeq! by Chris Wilmer'
_symmetry_space_group_name_H-M	'P1'
_symmetry_Int_Tables_number	1
_symmetry_cell_setting	triclinic
loop_
_symmetry_equiv_pos_as_xyz
  x,y,z
_cell_length_a	10.104
_cell_length_b	10.81
_cell_length_c	10.993
_cell_angle_alpha	90
_cell_angle_beta	90
_cell_angle_gamma	90
loop_
_atom_site_label
_atom_site_type_symbol
_atom_site_fract_x
_atom_site_fract_y
_atom_site_fract_z
_atom_site_charge
Mof_O 	O 	0.20019	0.02758	0.54562	-0.394
Mof_O 	O 	0.5534	0.65758	0.2682	-0.395
Mof_O 	O 	0.30965	0.69153	0.22555	-0.226
Mof_O 	O 	0.19918	0.02642	0.31719	-0.381
Mof_O 	O 	0.99166	0.9759	0.42845	-0.21
Mof_O 	O 	0.46362	0.86834	0.2761	-0.395
Mof_P 	P 	0.14181	0.97025	0.43213	0.418
Mof_P 	P 	0.43154	0.7332	0.29475	0.434
Mof_Co	Co	0.35445	0.00184	0.21405	1.191
Mof_H 	H 	0.168	0.8469	0.434	-0.028
Mof_H 	H 	0.405	0.723	0.4166	-0.015
Mof_O 	O 	0.29981	0.97242	0.04562	-0.393
Mof_O 	O 	0.9466	0.34242	0.7682	-0.395
Mof_O 	O 	0.19035	0.30847	0.72555	-0.225
Mof_O 	O 	0.30082	0.97358	0.81719	-0.384
Mof_O 	O 	0.50834	0.0241	0.92845	-0.21
Mof_O 	O 	0.03638	0.13166	0.7761	-0.394
Mof_P 	P 	0.35819	0.02975	0.93213	0.424
Mof_P 	P 	0.06846	0.2668	0.79475	0.434
Mof_Co	Co	0.14555	0.99816	0.71405	1.191
Mof_H 	H 	0.332	0.1531	0.934	-0.028
Mof_H 	H 	0.095	0.277	0.9166	-0.015
Mof_O 	O 	0.79981	0.52758	0.95438	-0.394
Mof_O 	O 	0.4466	0.15758	0.2318	-0.395
Mof_O 	O 	0.69035	0.19153	0.27445	-0.226
Mof_O 	O 	0.80082	0.52642	0.18281	-0.381
Mof_O 	O 	0.00834	0.4759	0.07155	-0.21
Mof_O 	O 	0.53638	0.36834	0.2239	-0.396
Mof_P 	P 	0.85819	0.47025	0.06787	0.418
Mof_P 	P 	0.56846	0.2332	0.20525	0.434
Mof_Co	Co	0.64555	0.50184	0.28595	1.192
Mof_H 	H 	0.832	0.3469	0.066	-0.029
Mof_H 	H 	0.595	0.223	0.0834	-0.016
Mof_O 	O 	0.70019	0.47242	0.45438	-0.395
Mof_O 	O 	0.0534	0.84242	0.7318	-0.397
Mof_O 	O 	0.80965	0.80847	0.77445	-0.225
Mof_O 	O 	0.69918	0.47358	0.68281	-0.381
Mof_O 	O 	0.49166	0.5241	0.57155	-0.212
Mof_O 	O 	0.96362	0.63166	0.7239	-0.396
Mof_P 	P 	0.64181	0.52975	0.56787	0.421
Mof_P 	P 	0.93154	0.7668	0.70525	0.435
Mof_Co	Co	0.85445	0.49816	0.78595	1.192
Mof_H 	H 	0.668	0.6531	0.566	-0.028
Mof_H 	H 	0.905	0.777	0.5834	-0.015
_end
