data_functionalizedCrystal
_audit_creation_method	'EQeq! by Chris Wilmer'
_symmetry_space_group_name_H-M	'P1'
_symmetry_Int_Tables_number	1
_symmetry_cell_setting	triclinic
loop_
_symmetry_equiv_pos_as_xyz
  x,y,z
_cell_length_a	10.0523
_cell_length_b	10.0523
_cell_length_c	19.3284
_cell_angle_alpha	90
_cell_angle_beta	90
_cell_angle_gamma	103.952
loop_
_atom_site_label
_atom_site_type_symbol
_atom_site_fract_x
_atom_site_fract_y
_atom_site_fract_z
_atom_site_charge
Mof_Co	Co	0.80796	0.9372	0.73175	1.189
Mof_Co	Co	0.19204	0.0628	0.23175	1.189
Mof_Co	Co	0.0628	0.19204	0.76825	1.189
Mof_Co	Co	0.9372	0.80796	0.26825	1.189
Mof_H 	H 	0.5071	0.1655	0.7496	0.061
Mof_H 	H 	0.1797	0.2195	0.6032	0.04
Mof_H 	H 	0.4929	0.8345	0.2496	0.06
Mof_H 	H 	0.8203	0.7805	0.1032	0.038
Mof_H 	H 	0.8345	0.4929	0.7504	0.061
Mof_H 	H 	0.7805	0.8203	0.8968	0.035
Mof_H 	H 	0.1655	0.5071	0.2504	0.06
Mof_H 	H 	0.2195	0.1797	0.3968	0.04
Mof_H 	H 	0.4486	0.5514	0.75	0.068
Mof_H 	H 	0.5514	0.4486	0.25	0.067
Mof_H 	H 	0.9167	0.9167	0.5	0.057
Mof_H 	H 	0.0833	0.0833	-0	0.055
Mof_C 	C 	0.3055	0.2869	0.75278	0.294
Mof_C 	C 	0.9564	0.0194	0.6262	0.366
Mof_C 	C 	0.5435	0.2619	0.74988	0.041
Mof_C 	C 	0.45505	0.34995	0.75013	-0.068
Mof_C 	C 	0.03629	0.06431	0.56139	-0.108
Mof_C 	C 	0.1488	0.1736	0.56105	0.053
Mof_C 	C 	0.6945	0.7131	0.25278	0.294
Mof_C 	C 	0.0436	0.9806	0.1262	0.367
Mof_C 	C 	0.4565	0.7381	0.24988	0.041
Mof_C 	C 	0.54495	0.65005	0.25013	-0.07
Mof_C 	C 	0.96371	0.93569	0.06139	-0.113
Mof_C 	C 	0.8512	0.8264	0.06105	0.058
Mof_C 	C 	0.7131	0.6945	0.74722	0.294
Mof_C 	C 	0.9806	0.0436	0.8738	0.366
Mof_C 	C 	0.7381	0.4565	0.75012	0.041
Mof_C 	C 	0.65005	0.54495	0.74987	-0.068
Mof_C 	C 	0.93569	0.96371	0.93861	-0.101
Mof_C 	C 	0.8264	0.8512	0.93895	0.074
Mof_C 	C 	0.2869	0.3055	0.24722	0.294
Mof_C 	C 	0.0194	0.9564	0.3738	0.366
Mof_C 	C 	0.2619	0.5435	0.25012	0.041
Mof_C 	C 	0.34995	0.45505	0.24987	-0.07
Mof_C 	C 	0.06431	0.03629	0.43861	-0.108
Mof_C 	C 	0.1736	0.1488	0.43895	0.053
Mof_C 	C 	0.7788	0.2212	0.75	0.393
Mof_C 	C 	0.6845	0.3155	0.75	-0.1
Mof_C 	C 	0.5086	0.4914	0.75	0.034
Mof_C 	C 	0.2212	0.7788	0.25	0.392
Mof_C 	C 	0.3155	0.6845	0.25	-0.102
Mof_C 	C 	0.4914	0.5086	0.25	0.035
Mof_C 	C 	0.9934	0.9934	0.5	0.055
Mof_C 	C 	0.2178	0.2178	0.5	-0.086
Mof_C 	C 	0.3393	0.3393	0.5	0.303
Mof_C 	C 	0.0066	0.0066	-0	0.044
Mof_C 	C 	0.7822	0.7822	-0	-0.103
Mof_C 	C 	0.6607	0.6607	-0	0.287
Mof_O 	O 	0.21981	0.36113	0.74646	-0.357
Mof_O 	O 	0.26335	0.15987	0.76265	-0.346
Mof_O 	O 	0.84343	0.93297	0.62358	-0.374
Mof_O 	O 	0.0057	0.0691	0.68231	-0.494
Mof_O 	O 	0.72653	0.09799	0.73493	-0.442
Mof_O 	O 	0.3612	0.409	0.55443	-0.21
Mof_O 	O 	0.78019	0.63887	0.24646	-0.359
Mof_O 	O 	0.73665	0.84013	0.26265	-0.348
Mof_O 	O 	0.15657	0.06703	0.12358	-0.375
Mof_O 	O 	0.9943	0.9309	0.18231	-0.497
Mof_O 	O 	0.27347	0.90201	0.23493	-0.444
Mof_O 	O 	0.6388	0.591	0.05443	-0.21
Mof_O 	O 	0.63887	0.78019	0.75354	-0.357
Mof_O 	O 	0.84013	0.73665	0.73735	-0.347
Mof_O 	O 	0.06703	0.15657	0.87642	-0.368
Mof_O 	O 	0.9309	0.9943	0.81769	-0.495
Mof_O 	O 	0.90201	0.27347	0.76507	-0.442
Mof_O 	O 	0.591	0.6388	0.94557	-0.194
Mof_O 	O 	0.36113	0.21981	0.25354	-0.358
Mof_O 	O 	0.15987	0.26335	0.23735	-0.348
Mof_O 	O 	0.93297	0.84343	0.37642	-0.374
Mof_O 	O 	0.0691	0.0057	0.31769	-0.495
Mof_O 	O 	0.09799	0.72653	0.26507	-0.443
Mof_O 	O 	0.409	0.3612	0.44557	-0.21
_end
