data_functionalizedCrystal
_audit_creation_method	'EQeq! by Chris Wilmer'
_symmetry_space_group_name_H-M	'P1'
_symmetry_Int_Tables_number	1
_symmetry_cell_setting	triclinic
loop_
_symmetry_equiv_pos_as_xyz
  x,y,z
_cell_length_a	23.7773
_cell_length_b	23.7773
_cell_length_c	23.7773
_cell_angle_alpha	90
_cell_angle_beta	90
_cell_angle_gamma	90
loop_
_atom_site_label
_atom_site_type_symbol
_atom_site_fract_x
_atom_site_fract_y
_atom_site_fract_z
_atom_site_charge
Mof_Co	Co	0.0066	0.55986	0.86587	1.204
Mof_F 	F 	0.99821	0.58925	0.94788	-0.707
Mof_O 	O 	0.06759	0.61959	0.85001	-0.44
Mof_O 	O 	0.93396	0.48137	0.96457	-0.395
Mof_O 	O 	0.93827	0.50866	0.8743	-0.419
Mof_N 	N 	0.02861	0.52006	0.78827	-0.23
Mof_N 	N 	0.12904	0.44663	0.61791	-0.138
Mof_N 	N 	0.9494	0.62347	0.8402	-0.217
Mof_N 	N 	0.79712	0.77029	0.85017	-0.141
Mof_C 	C 	0.91442	0.48498	0.91549	0.376
Mof_C 	C 	0.85791	0.45891	0.90327	-0.113
Mof_C 	C 	0.8263	0.4333	0.94521	0.038
Mof_H 	H 	0.8396	0.4329	0.982	0.035
Mof_C 	C 	0.7747	0.4081	0.9329	-0.106
Mof_H 	H 	0.7542	0.3912	0.9616	0.068
Mof_C 	C 	0.7536	0.408	0.8786	0.041
Mof_C 	C 	0.7859	0.4345	0.8362	-0.105
Mof_H 	H 	0.7725	0.4353	0.7995	0.068
Mof_C 	C 	0.8375	0.4594	0.8489	0.038
Mof_H 	H 	0.8584	0.4764	0.8205	0.03
Mof_C 	C 	0.70078	0.3779	0.8634	0.043
Mof_C 	C 	0.6696	0.3939	0.8164	-0.107
Mof_H 	H 	0.6806	0.4255	0.796	0.067
Mof_C 	C 	0.9971	0.4804	0.7658	0.095
Mof_H 	H 	0.9628	0.4722	0.7827	0.002
Mof_C 	C 	0.0124	0.4502	0.7184	-0.149
Mof_H 	H 	0.9881	0.4237	0.7029	0.093
Mof_C 	C 	0.06365	0.45992	0.69468	0.08
Mof_C 	C 	0.097	0.5002	0.7177	-0.143
Mof_H 	H 	0.1323	0.508	0.7026	0.094
Mof_C 	C 	0.0773	0.5293	0.7644	0.094
Mof_H 	H 	0.1002	0.5572	0.7796	0.013
Mof_C 	C 	0.08337	0.4272	0.64384	0.097
Mof_C 	C 	0.95779	0.6597	0.79774	0.081
Mof_H 	H 	0.988	0.6533	0.7737	0.007
Mof_C 	C 	0.92409	0.7059	0.7877	-0.129
Mof_H 	H 	0.932	0.7303	0.7581	0.086
Mof_C 	C 	0.87823	0.71513	0.82252	0.061
Mof_C 	C 	0.8689	0.6781	0.8668	-0.124
Mof_H 	H 	0.8389	0.6837	0.8913	0.086
Mof_C 	C 	0.9044	0.6331	0.874	0.078
Mof_H 	H 	0.8973	0.6081	0.9032	0.018
Mof_C 	C 	0.83979	0.764	0.81312	0.103
Mof_Co	Co	0.4934	0.44014	0.36587	1.206
Mof_F 	F 	0.50179	0.41075	0.44788	-0.708
Mof_O 	O 	0.43241	0.38041	0.35001	-0.438
Mof_O 	O 	0.56604	0.51863	0.46457	-0.395
Mof_O 	O 	0.56173	0.49134	0.3743	-0.419
Mof_N 	N 	0.47139	0.47994	0.28827	-0.228
Mof_N 	N 	0.37096	0.55337	0.11791	-0.137
Mof_N 	N 	0.5506	0.37653	0.3402	-0.216
Mof_N 	N 	0.70288	0.22971	0.35017	-0.14
Mof_C 	C 	0.58558	0.51502	0.41549	0.377
Mof_C 	C 	0.64209	0.54109	0.40327	-0.112
Mof_C 	C 	0.6737	0.5667	0.44521	0.039
Mof_H 	H 	0.6604	0.5671	0.482	0.036
Mof_C 	C 	0.7253	0.5919	0.4329	-0.105
Mof_H 	H 	0.7458	0.6088	0.4616	0.069
Mof_C 	C 	0.7464	0.592	0.3786	0.042
Mof_C 	C 	0.7141	0.5655	0.3362	-0.104
Mof_H 	H 	0.7275	0.5647	0.2995	0.069
Mof_C 	C 	0.6625	0.5406	0.3489	0.039
Mof_H 	H 	0.6416	0.5236	0.3205	0.031
Mof_C 	C 	0.79922	0.6221	0.3634	0.043
Mof_C 	C 	0.8304	0.6061	0.3164	-0.106
Mof_H 	H 	0.8194	0.5745	0.296	0.068
Mof_C 	C 	0.5029	0.5196	0.2658	0.092
Mof_H 	H 	0.5372	0.5278	0.2827	0.004
Mof_C 	C 	0.4876	0.5498	0.2184	-0.145
Mof_H 	H 	0.5119	0.5763	0.2029	0.091
Mof_C 	C 	0.43635	0.54008	0.19468	0.078
Mof_C 	C 	0.403	0.4998	0.2177	-0.142
Mof_H 	H 	0.3677	0.492	0.2026	0.094
Mof_C 	C 	0.4227	0.4707	0.2644	0.093
Mof_H 	H 	0.3998	0.4428	0.2796	0.013
Mof_C 	C 	0.41663	0.5728	0.14384	0.097
Mof_C 	C 	0.54221	0.3403	0.29774	0.081
Mof_H 	H 	0.512	0.3467	0.2737	0.006
Mof_C 	C 	0.57591	0.2941	0.2877	-0.129
Mof_H 	H 	0.568	0.2697	0.2581	0.086
Mof_C 	C 	0.62177	0.28487	0.32252	0.061
Mof_C 	C 	0.6311	0.3219	0.3668	-0.125
Mof_H 	H 	0.6611	0.3163	0.3913	0.086
Mof_C 	C 	0.5956	0.3669	0.374	0.078
Mof_H 	H 	0.6027	0.3919	0.4032	0.017
Mof_C 	C 	0.66021	0.236	0.31312	0.103
Mof_Co	Co	0.9934	0.05986	0.63413	1.205
Mof_F 	F 	0.00179	0.08925	0.55212	-0.707
Mof_O 	O 	0.93241	0.11959	0.64999	-0.439
Mof_O 	O 	0.06604	0.98137	0.53543	-0.395
Mof_O 	O 	0.06173	0.00866	0.6257	-0.416
Mof_N 	N 	0.97139	0.02006	0.71173	-0.227
Mof_N 	N 	0.87096	0.94663	0.88209	-0.137
Mof_N 	N 	0.0506	0.12347	0.6598	-0.216
Mof_N 	N 	0.20288	0.27029	0.64983	-0.14
Mof_C 	C 	0.08558	0.98498	0.58451	0.375
Mof_C 	C 	0.14209	0.95891	0.59673	-0.112
Mof_C 	C 	0.1737	0.9333	0.55479	0.038
Mof_H 	H 	0.1604	0.9329	0.518	0.035
Mof_C 	C 	0.2253	0.9081	0.5671	-0.105
Mof_H 	H 	0.2458	0.8912	0.5384	0.069
Mof_C 	C 	0.2464	0.908	0.6214	0.042
Mof_C 	C 	0.2141	0.9345	0.6638	-0.104
Mof_H 	H 	0.2275	0.9353	0.7005	0.069
Mof_C 	C 	0.1625	0.9594	0.6511	0.039
Mof_H 	H 	0.1416	0.9764	0.6795	0.03
Mof_C 	C 	0.29922	0.8779	0.6366	0.044
Mof_C 	C 	0.3304	0.8939	0.6836	-0.106
Mof_H 	H 	0.3194	0.9255	0.704	0.068
Mof_C 	C 	0.0029	0.9804	0.7342	0.082
Mof_H 	H 	0.0372	0.9722	0.7173	0.007
Mof_C 	C 	0.9876	0.9502	0.7816	-0.13
Mof_H 	H 	0.0119	0.9237	0.7971	0.084
Mof_C 	C 	0.93635	0.95992	0.80532	0.076
Mof_C 	C 	0.903	0.0002	0.7823	-0.144
Mof_H 	H 	0.8677	0.008	0.7974	0.093
Mof_C 	C 	0.9227	0.0293	0.7356	0.092
Mof_H 	H 	0.8998	0.0572	0.7204	0.013
Mof_C 	C 	0.91663	0.9272	0.85616	0.099
Mof_C 	C 	0.04221	0.1597	0.70226	0.081
Mof_H 	H 	0.012	0.1533	0.7263	0.006
Mof_C 	C 	0.07591	0.2059	0.7123	-0.129
Mof_H 	H 	0.068	0.2303	0.7419	0.086
Mof_C 	C 	0.12177	0.21513	0.67748	0.061
Mof_C 	C 	0.1311	0.1781	0.6332	-0.124
Mof_H 	H 	0.1611	0.1837	0.6087	0.086
Mof_C 	C 	0.0956	0.1331	0.626	0.078
Mof_H 	H 	0.1027	0.1081	0.5968	0.018
Mof_C 	C 	0.16021	0.264	0.68688	0.103
Mof_Co	Co	0.5066	0.94014	0.13413	1.206
Mof_F 	F 	0.49821	0.91075	0.05212	-0.709
Mof_O 	O 	0.56759	0.88041	0.14999	-0.438
Mof_O 	O 	0.43396	0.01863	0.03543	-0.394
Mof_O 	O 	0.43827	0.99134	0.1257	-0.422
Mof_N 	N 	0.52861	0.97994	0.21173	-0.229
Mof_N 	N 	0.62904	0.05337	0.38209	-0.137
Mof_N 	N 	0.4494	0.87653	0.1598	-0.216
Mof_N 	N 	0.29712	0.72971	0.14983	-0.14
Mof_C 	C 	0.41442	0.01502	0.08451	0.38
Mof_C 	C 	0.35791	0.04109	0.09673	-0.113
Mof_C 	C 	0.3263	0.0667	0.05479	0.04
Mof_H 	H 	0.3396	0.0671	0.018	0.036
Mof_C 	C 	0.2747	0.0919	0.0671	-0.105
Mof_H 	H 	0.2542	0.1088	0.0384	0.07
Mof_C 	C 	0.2536	0.092	0.1214	0.043
Mof_C 	C 	0.2859	0.0655	0.1638	-0.104
Mof_H 	H 	0.2725	0.0647	0.2005	0.07
Mof_C 	C 	0.3375	0.0406	0.1511	0.04
Mof_H 	H 	0.3584	0.0236	0.1795	0.031
Mof_C 	C 	0.20078	0.1221	0.1366	0.044
Mof_C 	C 	0.1696	0.1061	0.1836	-0.106
Mof_H 	H 	0.1806	0.0745	0.204	0.068
Mof_C 	C 	0.4971	0.0196	0.2342	0.095
Mof_H 	H 	0.4628	0.0278	0.2173	0.003
Mof_C 	C 	0.5124	0.0498	0.2816	-0.147
Mof_H 	H 	0.4881	0.0763	0.2971	0.092
Mof_C 	C 	0.56365	0.04008	0.30532	0.08
Mof_C 	C 	0.597	0.9998	0.2823	-0.145
Mof_H 	H 	0.6323	0.992	0.2974	0.095
Mof_C 	C 	0.5773	0.9707	0.2356	0.094
Mof_H 	H 	0.6002	0.9428	0.2204	0.013
Mof_C 	C 	0.58337	0.0728	0.35616	0.097
Mof_C 	C 	0.45779	0.8403	0.20226	0.081
Mof_H 	H 	0.488	0.8467	0.2263	0.006
Mof_C 	C 	0.42409	0.7941	0.2123	-0.129
Mof_H 	H 	0.432	0.7697	0.2419	0.086
Mof_C 	C 	0.37823	0.78487	0.17748	0.061
Mof_C 	C 	0.3689	0.8219	0.1332	-0.125
Mof_H 	H 	0.3389	0.8163	0.1087	0.086
Mof_C 	C 	0.4044	0.8669	0.126	0.078
Mof_H 	H 	0.3973	0.8919	0.0968	0.017
Mof_C 	C 	0.33979	0.736	0.18688	0.103
Mof_Co	Co	0.86587	0.0066	0.55986	1.205
Mof_F 	F 	0.94788	0.99821	0.58925	-0.706
Mof_O 	O 	0.85001	0.06759	0.61959	-0.439
Mof_O 	O 	0.96457	0.93396	0.48137	-0.394
Mof_O 	O 	0.8743	0.93827	0.50866	-0.418
Mof_N 	N 	0.78827	0.02861	0.52006	-0.229
Mof_N 	N 	0.61791	0.12904	0.44663	-0.137
Mof_N 	N 	0.8402	0.9494	0.62347	-0.216
Mof_N 	N 	0.85017	0.79712	0.77029	-0.14
Mof_C 	C 	0.91549	0.91442	0.48498	0.377
Mof_C 	C 	0.90327	0.85791	0.45891	-0.112
Mof_C 	C 	0.94521	0.8263	0.4333	0.039
Mof_H 	H 	0.982	0.8396	0.4329	0.036
Mof_C 	C 	0.9329	0.7747	0.4081	-0.105
Mof_H 	H 	0.9616	0.7542	0.3912	0.069
Mof_C 	C 	0.8786	0.7536	0.408	0.042
Mof_C 	C 	0.8362	0.7859	0.4345	-0.104
Mof_H 	H 	0.7995	0.7725	0.4353	0.069
Mof_C 	C 	0.8489	0.8375	0.4594	0.039
Mof_H 	H 	0.8205	0.8584	0.4764	0.031
Mof_C 	C 	0.8634	0.70078	0.3779	0.044
Mof_C 	C 	0.8164	0.6696	0.3939	-0.106
Mof_H 	H 	0.796	0.6806	0.4255	0.068
Mof_C 	C 	0.7658	0.9971	0.4804	0.096
Mof_H 	H 	0.7827	0.9628	0.4722	0.003
Mof_C 	C 	0.7184	0.0124	0.4502	-0.149
Mof_H 	H 	0.7029	0.9881	0.4237	0.093
Mof_C 	C 	0.69468	0.06365	0.45992	0.08
Mof_C 	C 	0.7177	0.097	0.5002	-0.143
Mof_H 	H 	0.7026	0.1323	0.508	0.094
Mof_C 	C 	0.7644	0.0773	0.5293	0.094
Mof_H 	H 	0.7796	0.1002	0.5572	0.013
Mof_C 	C 	0.64384	0.08337	0.4272	0.097
Mof_C 	C 	0.79774	0.95779	0.6597	0.081
Mof_H 	H 	0.7737	0.988	0.6533	0.007
Mof_C 	C 	0.7877	0.92409	0.7059	-0.129
Mof_H 	H 	0.7581	0.932	0.7303	0.086
Mof_C 	C 	0.82252	0.87823	0.71513	0.061
Mof_C 	C 	0.8668	0.8689	0.6781	-0.124
Mof_H 	H 	0.8913	0.8389	0.6837	0.086
Mof_C 	C 	0.874	0.9044	0.6331	0.078
Mof_H 	H 	0.9032	0.8973	0.6081	0.018
Mof_C 	C 	0.81312	0.83979	0.764	0.103
Mof_Co	Co	0.36587	0.4934	0.44014	1.206
Mof_F 	F 	0.44788	0.50179	0.41075	-0.708
Mof_O 	O 	0.35001	0.43241	0.38041	-0.438
Mof_O 	O 	0.46457	0.56604	0.51863	-0.395
Mof_O 	O 	0.3743	0.56173	0.49134	-0.419
Mof_N 	N 	0.28827	0.47139	0.47994	-0.228
Mof_N 	N 	0.11791	0.37096	0.55337	-0.137
Mof_N 	N 	0.3402	0.5506	0.37653	-0.216
Mof_N 	N 	0.35017	0.70288	0.22971	-0.14
Mof_C 	C 	0.41549	0.58558	0.51502	0.377
Mof_C 	C 	0.40327	0.64209	0.54109	-0.112
Mof_C 	C 	0.44521	0.6737	0.5667	0.039
Mof_H 	H 	0.482	0.6604	0.5671	0.036
Mof_C 	C 	0.4329	0.7253	0.5919	-0.105
Mof_H 	H 	0.4616	0.7458	0.6088	0.069
Mof_C 	C 	0.3786	0.7464	0.592	0.042
Mof_C 	C 	0.3362	0.7141	0.5655	-0.104
Mof_H 	H 	0.2995	0.7275	0.5647	0.069
Mof_C 	C 	0.3489	0.6625	0.5406	0.039
Mof_H 	H 	0.3205	0.6416	0.5236	0.031
Mof_C 	C 	0.3634	0.79922	0.6221	0.043
Mof_C 	C 	0.3164	0.8304	0.6061	-0.106
Mof_H 	H 	0.296	0.8194	0.5745	0.068
Mof_C 	C 	0.2658	0.5029	0.5196	0.092
Mof_H 	H 	0.2827	0.5372	0.5278	0.004
Mof_C 	C 	0.2184	0.4876	0.5498	-0.145
Mof_H 	H 	0.2029	0.5119	0.5763	0.091
Mof_C 	C 	0.19468	0.43635	0.54008	0.078
Mof_C 	C 	0.2177	0.403	0.4998	-0.142
Mof_H 	H 	0.2026	0.3677	0.492	0.094
Mof_C 	C 	0.2644	0.4227	0.4707	0.093
Mof_H 	H 	0.2796	0.3998	0.4428	0.013
Mof_C 	C 	0.14384	0.41663	0.5728	0.097
Mof_C 	C 	0.29774	0.54221	0.3403	0.081
Mof_H 	H 	0.2737	0.512	0.3467	0.006
Mof_C 	C 	0.2877	0.57591	0.2941	-0.129
Mof_H 	H 	0.2581	0.568	0.2697	0.086
Mof_C 	C 	0.32252	0.62177	0.28487	0.061
Mof_C 	C 	0.3668	0.6311	0.3219	-0.125
Mof_H 	H 	0.3913	0.6611	0.3163	0.086
Mof_C 	C 	0.374	0.5956	0.3669	0.078
Mof_H 	H 	0.4032	0.6027	0.3919	0.017
Mof_C 	C 	0.31312	0.66021	0.236	0.103
Mof_Co	Co	0.63413	0.9934	0.05986	1.205
Mof_F 	F 	0.55212	0.00179	0.08925	-0.707
Mof_O 	O 	0.64999	0.93241	0.11959	-0.439
Mof_O 	O 	0.53543	0.06604	0.98137	-0.395
Mof_O 	O 	0.6257	0.06173	0.00866	-0.416
Mof_N 	N 	0.71173	0.97139	0.02006	-0.227
Mof_N 	N 	0.88209	0.87096	0.94663	-0.137
Mof_N 	N 	0.6598	0.0506	0.12347	-0.216
Mof_N 	N 	0.64983	0.20288	0.27029	-0.14
Mof_C 	C 	0.58451	0.08558	0.98498	0.375
Mof_C 	C 	0.59673	0.14209	0.95891	-0.112
Mof_C 	C 	0.55479	0.1737	0.9333	0.038
Mof_H 	H 	0.518	0.1604	0.9329	0.035
Mof_C 	C 	0.5671	0.2253	0.9081	-0.105
Mof_H 	H 	0.5384	0.2458	0.8912	0.069
Mof_C 	C 	0.6214	0.2464	0.908	0.042
Mof_C 	C 	0.6638	0.2141	0.9345	-0.104
Mof_H 	H 	0.7005	0.2275	0.9353	0.069
Mof_C 	C 	0.6511	0.1625	0.9594	0.039
Mof_H 	H 	0.6795	0.1416	0.9764	0.03
Mof_C 	C 	0.6366	0.29922	0.8779	0.044
Mof_C 	C 	0.6836	0.3304	0.8939	-0.106
Mof_H 	H 	0.704	0.3194	0.9255	0.068
Mof_C 	C 	0.7342	0.0029	0.9804	0.082
Mof_H 	H 	0.7173	0.0372	0.9722	0.007
Mof_C 	C 	0.7816	0.9876	0.9502	-0.13
Mof_H 	H 	0.7971	0.0119	0.9237	0.084
Mof_C 	C 	0.80532	0.93635	0.95992	0.076
Mof_C 	C 	0.7823	0.903	0.0002	-0.144
Mof_H 	H 	0.7974	0.8677	0.008	0.093
Mof_C 	C 	0.7356	0.9227	0.0293	0.092
Mof_H 	H 	0.7204	0.8998	0.0572	0.013
Mof_C 	C 	0.85616	0.91663	0.9272	0.099
Mof_C 	C 	0.70226	0.04221	0.1597	0.081
Mof_H 	H 	0.7263	0.012	0.1533	0.006
Mof_C 	C 	0.7123	0.07591	0.2059	-0.129
Mof_H 	H 	0.7419	0.068	0.2303	0.086
Mof_C 	C 	0.67748	0.12177	0.21513	0.061
Mof_C 	C 	0.6332	0.1311	0.1781	-0.124
Mof_H 	H 	0.6087	0.1611	0.1837	0.086
Mof_C 	C 	0.626	0.0956	0.1331	0.078
Mof_H 	H 	0.5968	0.1027	0.1081	0.018
Mof_C 	C 	0.68688	0.16021	0.264	0.103
Mof_Co	Co	0.13413	0.5066	0.94014	1.206
Mof_F 	F 	0.05212	0.49821	0.91075	-0.709
Mof_O 	O 	0.14999	0.56759	0.88041	-0.438
Mof_O 	O 	0.03543	0.43396	0.01863	-0.394
Mof_O 	O 	0.1257	0.43827	0.99134	-0.422
Mof_N 	N 	0.21173	0.52861	0.97994	-0.229
Mof_N 	N 	0.38209	0.62904	0.05337	-0.137
Mof_N 	N 	0.1598	0.4494	0.87653	-0.216
Mof_N 	N 	0.14983	0.29712	0.72971	-0.14
Mof_C 	C 	0.08451	0.41442	0.01502	0.38
Mof_C 	C 	0.09673	0.35791	0.04109	-0.113
Mof_C 	C 	0.05479	0.3263	0.0667	0.04
Mof_H 	H 	0.018	0.3396	0.0671	0.036
Mof_C 	C 	0.0671	0.2747	0.0919	-0.105
Mof_H 	H 	0.0384	0.2542	0.1088	0.07
Mof_C 	C 	0.1214	0.2536	0.092	0.043
Mof_C 	C 	0.1638	0.2859	0.0655	-0.104
Mof_H 	H 	0.2005	0.2725	0.0647	0.07
Mof_C 	C 	0.1511	0.3375	0.0406	0.04
Mof_H 	H 	0.1795	0.3584	0.0236	0.031
Mof_C 	C 	0.1366	0.20078	0.1221	0.044
Mof_C 	C 	0.1836	0.1696	0.1061	-0.106
Mof_H 	H 	0.204	0.1806	0.0745	0.068
Mof_C 	C 	0.2342	0.4971	0.0196	0.095
Mof_H 	H 	0.2173	0.4628	0.0278	0.003
Mof_C 	C 	0.2816	0.5124	0.0498	-0.147
Mof_H 	H 	0.2971	0.4881	0.0763	0.092
Mof_C 	C 	0.30532	0.56365	0.04008	0.08
Mof_C 	C 	0.2823	0.597	0.9998	-0.145
Mof_H 	H 	0.2974	0.6323	0.992	0.095
Mof_C 	C 	0.2356	0.5773	0.9707	0.094
Mof_H 	H 	0.2204	0.6002	0.9428	0.013
Mof_C 	C 	0.35616	0.58337	0.0728	0.097
Mof_C 	C 	0.20226	0.45779	0.8403	0.081
Mof_H 	H 	0.2263	0.488	0.8467	0.006
Mof_C 	C 	0.2123	0.42409	0.7941	-0.129
Mof_H 	H 	0.2419	0.432	0.7697	0.086
Mof_C 	C 	0.17748	0.37823	0.78487	0.061
Mof_C 	C 	0.1332	0.3689	0.8219	-0.125
Mof_H 	H 	0.1087	0.3389	0.8163	0.086
Mof_C 	C 	0.126	0.4044	0.8669	0.078
Mof_H 	H 	0.0968	0.3973	0.8919	0.017
Mof_C 	C 	0.18688	0.33979	0.736	0.103
Mof_Co	Co	0.55986	0.86587	0.0066	1.205
Mof_F 	F 	0.58925	0.94788	0.99821	-0.706
Mof_O 	O 	0.61959	0.85001	0.06759	-0.439
Mof_O 	O 	0.48137	0.96457	0.93396	-0.394
Mof_O 	O 	0.50866	0.8743	0.93827	-0.418
Mof_N 	N 	0.52006	0.78827	0.02861	-0.229
Mof_N 	N 	0.44663	0.61791	0.12904	-0.137
Mof_N 	N 	0.62347	0.8402	0.9494	-0.216
Mof_N 	N 	0.77029	0.85017	0.79712	-0.14
Mof_C 	C 	0.48498	0.91549	0.91442	0.377
Mof_C 	C 	0.45891	0.90327	0.85791	-0.112
Mof_C 	C 	0.4333	0.94521	0.8263	0.039
Mof_H 	H 	0.4329	0.982	0.8396	0.036
Mof_C 	C 	0.4081	0.9329	0.7747	-0.105
Mof_H 	H 	0.3912	0.9616	0.7542	0.069
Mof_C 	C 	0.408	0.8786	0.7536	0.042
Mof_C 	C 	0.4345	0.8362	0.7859	-0.104
Mof_H 	H 	0.4353	0.7995	0.7725	0.069
Mof_C 	C 	0.4594	0.8489	0.8375	0.039
Mof_H 	H 	0.4764	0.8205	0.8584	0.031
Mof_C 	C 	0.3779	0.8634	0.70078	0.044
Mof_C 	C 	0.3939	0.8164	0.6696	-0.106
Mof_H 	H 	0.4255	0.796	0.6806	0.068
Mof_C 	C 	0.4804	0.7658	0.9971	0.096
Mof_H 	H 	0.4722	0.7827	0.9628	0.003
Mof_C 	C 	0.4502	0.7184	0.0124	-0.149
Mof_H 	H 	0.4237	0.7029	0.9881	0.093
Mof_C 	C 	0.45992	0.69468	0.06365	0.08
Mof_C 	C 	0.5002	0.7177	0.097	-0.143
Mof_H 	H 	0.508	0.7026	0.1323	0.094
Mof_C 	C 	0.5293	0.7644	0.0773	0.094
Mof_H 	H 	0.5572	0.7796	0.1002	0.013
Mof_C 	C 	0.4272	0.64384	0.08337	0.097
Mof_C 	C 	0.6597	0.79774	0.95779	0.081
Mof_H 	H 	0.6533	0.7737	0.988	0.007
Mof_C 	C 	0.7059	0.7877	0.92409	-0.129
Mof_H 	H 	0.7303	0.7581	0.932	0.086
Mof_C 	C 	0.71513	0.82252	0.87823	0.061
Mof_C 	C 	0.6781	0.8668	0.8689	-0.124
Mof_H 	H 	0.6837	0.8913	0.8389	0.086
Mof_C 	C 	0.6331	0.874	0.9044	0.078
Mof_H 	H 	0.6081	0.9032	0.8973	0.018
Mof_C 	C 	0.764	0.81312	0.83979	0.103
Mof_Co	Co	0.44014	0.36587	0.4934	1.206
Mof_F 	F 	0.41075	0.44788	0.50179	-0.708
Mof_O 	O 	0.38041	0.35001	0.43241	-0.438
Mof_O 	O 	0.51863	0.46457	0.56604	-0.395
Mof_O 	O 	0.49134	0.3743	0.56173	-0.419
Mof_N 	N 	0.47994	0.28827	0.47139	-0.228
Mof_N 	N 	0.55337	0.11791	0.37096	-0.137
Mof_N 	N 	0.37653	0.3402	0.5506	-0.216
Mof_N 	N 	0.22971	0.35017	0.70288	-0.14
Mof_C 	C 	0.51502	0.41549	0.58558	0.377
Mof_C 	C 	0.54109	0.40327	0.64209	-0.112
Mof_C 	C 	0.5667	0.44521	0.6737	0.039
Mof_H 	H 	0.5671	0.482	0.6604	0.036
Mof_C 	C 	0.5919	0.4329	0.7253	-0.105
Mof_H 	H 	0.6088	0.4616	0.7458	0.069
Mof_C 	C 	0.592	0.3786	0.7464	0.042
Mof_C 	C 	0.5655	0.3362	0.7141	-0.104
Mof_H 	H 	0.5647	0.2995	0.7275	0.069
Mof_C 	C 	0.5406	0.3489	0.6625	0.039
Mof_H 	H 	0.5236	0.3205	0.6416	0.031
Mof_C 	C 	0.6221	0.3634	0.79922	0.043
Mof_C 	C 	0.6061	0.3164	0.8304	-0.106
Mof_H 	H 	0.5745	0.296	0.8194	0.068
Mof_C 	C 	0.5196	0.2658	0.5029	0.092
Mof_H 	H 	0.5278	0.2827	0.5372	0.004
Mof_C 	C 	0.5498	0.2184	0.4876	-0.145
Mof_H 	H 	0.5763	0.2029	0.5119	0.091
Mof_C 	C 	0.54008	0.19468	0.43635	0.078
Mof_C 	C 	0.4998	0.2177	0.403	-0.142
Mof_H 	H 	0.492	0.2026	0.3677	0.094
Mof_C 	C 	0.4707	0.2644	0.4227	0.093
Mof_H 	H 	0.4428	0.2796	0.3998	0.013
Mof_C 	C 	0.5728	0.14384	0.41663	0.097
Mof_C 	C 	0.3403	0.29774	0.54221	0.081
Mof_H 	H 	0.3467	0.2737	0.512	0.006
Mof_C 	C 	0.2941	0.2877	0.57591	-0.129
Mof_H 	H 	0.2697	0.2581	0.568	0.086
Mof_C 	C 	0.28487	0.32252	0.62177	0.061
Mof_C 	C 	0.3219	0.3668	0.6311	-0.125
Mof_H 	H 	0.3163	0.3913	0.6611	0.086
Mof_C 	C 	0.3669	0.374	0.5956	0.078
Mof_H 	H 	0.3919	0.4032	0.6027	0.017
Mof_C 	C 	0.236	0.31312	0.66021	0.103
Mof_Co	Co	0.05986	0.63413	0.9934	1.205
Mof_F 	F 	0.08925	0.55212	0.00179	-0.707
Mof_O 	O 	0.11959	0.64999	0.93241	-0.439
Mof_O 	O 	0.98137	0.53543	0.06604	-0.395
Mof_O 	O 	0.00866	0.6257	0.06173	-0.416
Mof_N 	N 	0.02006	0.71173	0.97139	-0.227
Mof_N 	N 	0.94663	0.88209	0.87096	-0.137
Mof_N 	N 	0.12347	0.6598	0.0506	-0.216
Mof_N 	N 	0.27029	0.64983	0.20288	-0.14
Mof_C 	C 	0.98498	0.58451	0.08558	0.375
Mof_C 	C 	0.95891	0.59673	0.14209	-0.112
Mof_C 	C 	0.9333	0.55479	0.1737	0.038
Mof_H 	H 	0.9329	0.518	0.1604	0.035
Mof_C 	C 	0.9081	0.5671	0.2253	-0.105
Mof_H 	H 	0.8912	0.5384	0.2458	0.069
Mof_C 	C 	0.908	0.6214	0.2464	0.042
Mof_C 	C 	0.9345	0.6638	0.2141	-0.104
Mof_H 	H 	0.9353	0.7005	0.2275	0.069
Mof_C 	C 	0.9594	0.6511	0.1625	0.039
Mof_H 	H 	0.9764	0.6795	0.1416	0.03
Mof_C 	C 	0.8779	0.6366	0.29922	0.044
Mof_C 	C 	0.8939	0.6836	0.3304	-0.106
Mof_H 	H 	0.9255	0.704	0.3194	0.068
Mof_C 	C 	0.9804	0.7342	0.0029	0.082
Mof_H 	H 	0.9722	0.7173	0.0372	0.007
Mof_C 	C 	0.9502	0.7816	0.9876	-0.13
Mof_H 	H 	0.9237	0.7971	0.0119	0.084
Mof_C 	C 	0.95992	0.80532	0.93635	0.076
Mof_C 	C 	0.0002	0.7823	0.903	-0.144
Mof_H 	H 	0.008	0.7974	0.8677	0.093
Mof_C 	C 	0.0293	0.7356	0.9227	0.092
Mof_H 	H 	0.0572	0.7204	0.8998	0.013
Mof_C 	C 	0.9272	0.85616	0.91663	0.099
Mof_C 	C 	0.1597	0.70226	0.04221	0.081
Mof_H 	H 	0.1533	0.7263	0.012	0.006
Mof_C 	C 	0.2059	0.7123	0.07591	-0.129
Mof_H 	H 	0.2303	0.7419	0.068	0.086
Mof_C 	C 	0.21513	0.67748	0.12177	0.061
Mof_C 	C 	0.1781	0.6332	0.1311	-0.124
Mof_H 	H 	0.1837	0.6087	0.1611	0.086
Mof_C 	C 	0.1331	0.626	0.0956	0.078
Mof_H 	H 	0.1081	0.5968	0.1027	0.018
Mof_C 	C 	0.264	0.68688	0.16021	0.103
Mof_Co	Co	0.94014	0.13413	0.5066	1.206
Mof_F 	F 	0.91075	0.05212	0.49821	-0.709
Mof_O 	O 	0.88041	0.14999	0.56759	-0.438
Mof_O 	O 	0.01863	0.03543	0.43396	-0.394
Mof_O 	O 	0.99134	0.1257	0.43827	-0.422
Mof_N 	N 	0.97994	0.21173	0.52861	-0.229
Mof_N 	N 	0.05337	0.38209	0.62904	-0.137
Mof_N 	N 	0.87653	0.1598	0.4494	-0.216
Mof_N 	N 	0.72971	0.14983	0.29712	-0.14
Mof_C 	C 	0.01502	0.08451	0.41442	0.38
Mof_C 	C 	0.04109	0.09673	0.35791	-0.113
Mof_C 	C 	0.0667	0.05479	0.3263	0.04
Mof_H 	H 	0.0671	0.018	0.3396	0.036
Mof_C 	C 	0.0919	0.0671	0.2747	-0.105
Mof_H 	H 	0.1088	0.0384	0.2542	0.07
Mof_C 	C 	0.092	0.1214	0.2536	0.043
Mof_C 	C 	0.0655	0.1638	0.2859	-0.104
Mof_H 	H 	0.0647	0.2005	0.2725	0.07
Mof_C 	C 	0.0406	0.1511	0.3375	0.04
Mof_H 	H 	0.0236	0.1795	0.3584	0.031
Mof_C 	C 	0.1221	0.1366	0.20078	0.044
Mof_C 	C 	0.1061	0.1836	0.1696	-0.106
Mof_H 	H 	0.0745	0.204	0.1806	0.068
Mof_C 	C 	0.0196	0.2342	0.4971	0.095
Mof_H 	H 	0.0278	0.2173	0.4628	0.003
Mof_C 	C 	0.0498	0.2816	0.5124	-0.147
Mof_H 	H 	0.0763	0.2971	0.4881	0.092
Mof_C 	C 	0.04008	0.30532	0.56365	0.08
Mof_C 	C 	0.9998	0.2823	0.597	-0.145
Mof_H 	H 	0.992	0.2974	0.6323	0.095
Mof_C 	C 	0.9707	0.2356	0.5773	0.094
Mof_H 	H 	0.9428	0.2204	0.6002	0.013
Mof_C 	C 	0.0728	0.35616	0.58337	0.097
Mof_C 	C 	0.8403	0.20226	0.45779	0.081
Mof_H 	H 	0.8467	0.2263	0.488	0.006
Mof_C 	C 	0.7941	0.2123	0.42409	-0.129
Mof_H 	H 	0.7697	0.2419	0.432	0.086
Mof_C 	C 	0.78487	0.17748	0.37823	0.061
Mof_C 	C 	0.8219	0.1332	0.3689	-0.125
Mof_H 	H 	0.8163	0.1087	0.3389	0.086
Mof_C 	C 	0.8669	0.126	0.4044	0.078
Mof_H 	H 	0.8919	0.0968	0.3973	0.017
Mof_C 	C 	0.736	0.18688	0.33979	0.103
Mof_Co	Co	0.01127	0.51127	0.98873	1.23
Mof_S 	S 	0.12508	0.62508	0.87492	0.689
Mof_O 	O 	0.16031	0.66031	0.83969	-0.272
Mof_Co	Co	0.48873	0.48873	0.48873	1.231
Mof_S 	S 	0.37492	0.37492	0.37492	0.689
Mof_O 	O 	0.33969	0.33969	0.33969	-0.272
Mof_Co	Co	0.98873	0.01127	0.51127	1.23
Mof_S 	S 	0.87492	0.12508	0.62508	0.689
Mof_O 	O 	0.83969	0.16031	0.66031	-0.272
Mof_Co	Co	0.51127	0.98873	0.01127	1.23
Mof_S 	S 	0.62508	0.87492	0.12508	0.689
Mof_O 	O 	0.66031	0.83969	0.16031	-0.272
_end
