data_functionalizedCrystal
_audit_creation_method	'EQeq! by Chris Wilmer'
_symmetry_space_group_name_H-M	'P1'
_symmetry_Int_Tables_number	1
_symmetry_cell_setting	triclinic
loop_
_symmetry_equiv_pos_as_xyz
  x,y,z
_cell_length_a	21.869
_cell_length_b	21.869
_cell_length_c	11.929
_cell_angle_alpha	90
_cell_angle_beta	90
_cell_angle_gamma	90
loop_
_atom_site_label
_atom_site_type_symbol
_atom_site_fract_x
_atom_site_fract_y
_atom_site_fract_z
_atom_site_charge
Mof_Mo	Mo	0.07875	0.64527	0.16763	1.467
Mof_O 	O 	0.0624	0.6228	0.0148	-0.574
Mof_O 	O 	0.1341	0.5749	0.1717	-0.785
Mof_O 	O 	0.2722	0.5156	0.8946	-0.121
Mof_O 	O 	0.1998	0.6293	0.967	-0.045
Mof_O 	O 	0.1516	0.5595	0.829	-0.081
Mof_O 	O 	0.2669	0.5499	0.1308	-0.423
Mof_C 	C 	0.383	0.542	0.241	-0.175
Mof_C 	C 	0.431	0.542	0.319	-0.141
Mof_C 	C 	0.383	0.46	0.419	-0.198
Mof_C 	C 	0.336	0.459	0.342	-0.214
Mof_La	La	0.17648	0.51557	0.02938	1.099
Mof_O 	O 	0.1763	0.5958	0.94	-0.319
Mof_O 	O 	0.1498	0.5224	0.822	-0.129
Mof_C 	C 	0.348	0.5532	0.313	0.169
Mof_C 	C 	0.3971	0.5541	0.39	0.24
Mof_C 	C 	0.421	0.5495	0.339	0.104
Mof_C 	C 	0.3694	0.5519	0.269	0.165
Mof_Mo	Mo	0.57875	0.14527	0.66763	1.471
Mof_O 	O 	0.5624	0.1228	0.5148	-0.57
Mof_O 	O 	0.6341	0.0749	0.6717	-0.787
Mof_O 	O 	0.7722	0.0156	0.3946	-0.147
Mof_O 	O 	0.6998	0.1293	0.467	-0.043
Mof_O 	O 	0.6516	0.0595	0.329	-0.045
Mof_O 	O 	0.7669	0.0499	0.6308	-0.421
Mof_C 	C 	0.883	0.042	0.741	-0.199
Mof_C 	C 	0.931	0.042	0.819	-0.159
Mof_C 	C 	0.883	0.96	0.919	-0.223
Mof_C 	C 	0.836	0.959	0.842	-0.243
Mof_La	La	0.67648	0.01557	0.52938	1.13
Mof_O 	O 	0.6763	0.0958	0.44	-0.332
Mof_O 	O 	0.6498	0.0224	0.322	-0.19
Mof_C 	C 	0.848	0.0532	0.813	0.193
Mof_C 	C 	0.8971	0.0541	0.89	0.267
Mof_C 	C 	0.921	0.0495	0.839	0.116
Mof_C 	C 	0.8694	0.0519	0.769	0.187
Mof_Mo	Mo	0.92125	0.35473	0.16763	1.469
Mof_O 	O 	0.9376	0.3772	0.0148	-0.575
Mof_O 	O 	0.8659	0.4251	0.1717	-0.785
Mof_O 	O 	0.7278	0.4844	0.8946	-0.119
Mof_O 	O 	0.8002	0.3707	0.967	-0.041
Mof_O 	O 	0.8484	0.4405	0.829	-0.077
Mof_O 	O 	0.7331	0.4501	0.1308	-0.423
Mof_C 	C 	0.617	0.458	0.241	-0.175
Mof_C 	C 	0.569	0.458	0.319	-0.141
Mof_C 	C 	0.617	0.54	0.419	-0.198
Mof_C 	C 	0.664	0.541	0.342	-0.214
Mof_La	La	0.82352	0.48443	0.02938	1.095
Mof_O 	O 	0.8237	0.4042	0.94	-0.316
Mof_O 	O 	0.8502	0.4776	0.822	-0.13
Mof_C 	C 	0.652	0.4468	0.313	0.169
Mof_C 	C 	0.6029	0.4459	0.39	0.241
Mof_C 	C 	0.579	0.4505	0.339	0.104
Mof_C 	C 	0.6306	0.4481	0.269	0.165
Mof_Mo	Mo	0.42125	0.85473	0.66763	1.471
Mof_O 	O 	0.4376	0.8772	0.5148	-0.57
Mof_O 	O 	0.3659	0.9251	0.6717	-0.784
Mof_O 	O 	0.2278	0.9844	0.3946	-0.094
Mof_O 	O 	0.3002	0.8707	0.467	-0.049
Mof_O 	O 	0.3484	0.9405	0.329	-0.117
Mof_O 	O 	0.2331	0.9501	0.6308	-0.418
Mof_C 	C 	0.117	0.958	0.741	-0.194
Mof_C 	C 	0.069	0.958	0.819	-0.155
Mof_C 	C 	0.117	0.04	0.919	-0.21
Mof_C 	C 	0.164	0.041	0.842	-0.229
Mof_La	La	0.32352	0.98443	0.52938	1.092
Mof_O 	O 	0.3237	0.9042	0.44	-0.315
Mof_O 	O 	0.3502	0.9776	0.322	-0.067
Mof_C 	C 	0.152	0.9468	0.813	0.188
Mof_C 	C 	0.1029	0.9459	0.89	0.259
Mof_C 	C 	0.079	0.9505	0.839	0.113
Mof_C 	C 	0.1306	0.9481	0.769	0.184
Mof_Mo	Mo	0.64527	0.92125	0.83237	1.474
Mof_O 	O 	0.6228	0.9376	0.9852	-0.56
Mof_O 	O 	0.5749	0.8659	0.8283	-0.786
Mof_O 	O 	0.5156	0.7278	0.1054	-0.125
Mof_O 	O 	0.6293	0.8002	0.033	-0.049
Mof_O 	O 	0.5595	0.8484	0.171	-0.079
Mof_O 	O 	0.5499	0.7331	0.8692	-0.42
Mof_C 	C 	0.542	0.617	0.759	-0.192
Mof_C 	C 	0.542	0.569	0.681	-0.154
Mof_C 	C 	0.46	0.617	0.581	-0.216
Mof_C 	C 	0.459	0.664	0.658	-0.234
Mof_La	La	0.51557	0.82352	0.97062	1.119
Mof_O 	O 	0.5958	0.8237	0.06	-0.327
Mof_O 	O 	0.5224	0.8502	0.178	-0.131
Mof_C 	C 	0.5532	0.652	0.687	0.185
Mof_C 	C 	0.5541	0.6029	0.61	0.261
Mof_C 	C 	0.5495	0.579	0.661	0.114
Mof_C 	C 	0.5519	0.6306	0.731	0.182
Mof_Mo	Mo	0.14527	0.42125	0.33237	1.469
Mof_O 	O 	0.1228	0.4376	0.4852	-0.569
Mof_O 	O 	0.0749	0.3659	0.3283	-0.786
Mof_O 	O 	0.0156	0.2278	0.6054	-0.15
Mof_O 	O 	0.1293	0.3002	0.533	-0.043
Mof_O 	O 	0.0595	0.3484	0.671	-0.042
Mof_O 	O 	0.0499	0.2331	0.3692	-0.422
Mof_C 	C 	0.042	0.117	0.259	-0.167
Mof_C 	C 	0.042	0.069	0.181	-0.134
Mof_C 	C 	0.96	0.117	0.081	-0.199
Mof_C 	C 	0.959	0.164	0.158	-0.215
Mof_La	La	0.01557	0.32352	0.47062	1.134
Mof_O 	O 	0.0958	0.3237	0.56	-0.332
Mof_O 	O 	0.0224	0.3502	0.678	-0.193
Mof_C 	C 	0.0532	0.152	0.187	0.163
Mof_C 	C 	0.0541	0.1029	0.11	0.228
Mof_C 	C 	0.0495	0.079	0.161	0.099
Mof_C 	C 	0.0519	0.1306	0.231	0.161
Mof_Mo	Mo	0.35473	0.07875	0.83237	1.473
Mof_O 	O 	0.3772	0.0624	0.9852	-0.559
Mof_O 	O 	0.4251	0.1341	0.8283	-0.786
Mof_O 	O 	0.4844	0.2722	0.1054	-0.126
Mof_O 	O 	0.3707	0.1998	0.033	-0.05
Mof_O 	O 	0.4405	0.1516	0.171	-0.081
Mof_O 	O 	0.4501	0.2669	0.8692	-0.42
Mof_C 	C 	0.458	0.383	0.759	-0.191
Mof_C 	C 	0.458	0.431	0.681	-0.153
Mof_C 	C 	0.54	0.383	0.581	-0.216
Mof_C 	C 	0.541	0.336	0.658	-0.234
Mof_La	La	0.48443	0.17648	0.97062	1.128
Mof_O 	O 	0.4042	0.1763	0.06	-0.331
Mof_O 	O 	0.4776	0.1498	0.178	-0.133
Mof_C 	C 	0.4468	0.348	0.687	0.185
Mof_C 	C 	0.4459	0.3971	0.61	0.26
Mof_C 	C 	0.4505	0.421	0.661	0.113
Mof_C 	C 	0.4481	0.3694	0.731	0.181
Mof_Mo	Mo	0.85473	0.57875	0.33237	1.469
Mof_O 	O 	0.8772	0.5624	0.4852	-0.57
Mof_O 	O 	0.9251	0.6341	0.3283	-0.783
Mof_O 	O 	0.9844	0.7722	0.6054	-0.097
Mof_O 	O 	0.8707	0.6998	0.533	-0.048
Mof_O 	O 	0.9405	0.6516	0.671	-0.113
Mof_O 	O 	0.9501	0.7669	0.3692	-0.418
Mof_C 	C 	0.958	0.883	0.259	-0.183
Mof_C 	C 	0.958	0.931	0.181	-0.145
Mof_C 	C 	0.04	0.883	0.081	-0.202
Mof_C 	C 	0.041	0.836	0.158	-0.219
Mof_La	La	0.98443	0.67648	0.47062	1.092
Mof_O 	O 	0.9042	0.6763	0.56	-0.315
Mof_O 	O 	0.9776	0.6498	0.678	-0.072
Mof_C 	C 	0.9468	0.848	0.187	0.178
Mof_C 	C 	0.9459	0.8971	0.11	0.245
Mof_C 	C 	0.9505	0.921	0.161	0.109
Mof_C 	C 	0.9481	0.8694	0.231	0.176
Mof_Mo	Mo	0.07875	0.35473	0.16763	1.466
Mof_O 	O 	0.0624	0.3772	0.0148	-0.575
Mof_O 	O 	0.1341	0.4251	0.1717	-0.784
Mof_O 	O 	0.2722	0.4844	0.8946	-0.12
Mof_O 	O 	0.1998	0.3707	0.967	-0.043
Mof_O 	O 	0.1516	0.4405	0.829	-0.079
Mof_O 	O 	0.2669	0.4501	0.1308	-0.423
Mof_C 	C 	0.383	0.458	0.241	-0.174
Mof_C 	C 	0.431	0.458	0.319	-0.14
Mof_C 	C 	0.383	0.54	0.419	-0.198
Mof_C 	C 	0.336	0.541	0.342	-0.214
Mof_La	La	0.17648	0.48443	0.02938	1.101
Mof_O 	O 	0.1763	0.4042	0.94	-0.319
Mof_O 	O 	0.1498	0.4776	0.822	-0.13
Mof_C 	C 	0.348	0.4468	0.313	0.169
Mof_C 	C 	0.3971	0.4459	0.39	0.24
Mof_C 	C 	0.421	0.4505	0.339	0.104
Mof_C 	C 	0.3694	0.4481	0.269	0.165
Mof_Mo	Mo	0.57875	0.85473	0.66763	1.471
Mof_O 	O 	0.5624	0.8772	0.5148	-0.57
Mof_O 	O 	0.6341	0.9251	0.6717	-0.784
Mof_O 	O 	0.7722	0.9844	0.3946	-0.098
Mof_O 	O 	0.6998	0.8707	0.467	-0.049
Mof_O 	O 	0.6516	0.9405	0.329	-0.115
Mof_O 	O 	0.7669	0.9501	0.6308	-0.418
Mof_C 	C 	0.883	0.958	0.741	-0.201
Mof_C 	C 	0.931	0.958	0.819	-0.16
Mof_C 	C 	0.883	0.04	0.919	-0.22
Mof_C 	C 	0.836	0.041	0.842	-0.24
Mof_La	La	0.67648	0.98443	0.52938	1.094
Mof_O 	O 	0.6763	0.9042	0.44	-0.316
Mof_O 	O 	0.6498	0.9776	0.322	-0.072
Mof_C 	C 	0.848	0.9468	0.813	0.195
Mof_C 	C 	0.8971	0.9459	0.89	0.267
Mof_C 	C 	0.921	0.9505	0.839	0.118
Mof_C 	C 	0.8694	0.9481	0.769	0.19
Mof_Mo	Mo	0.92125	0.64527	0.16763	1.47
Mof_O 	O 	0.9376	0.6228	0.0148	-0.574
Mof_O 	O 	0.8659	0.5749	0.1717	-0.784
Mof_O 	O 	0.7278	0.5156	0.8946	-0.119
Mof_O 	O 	0.8002	0.6293	0.967	-0.042
Mof_O 	O 	0.8484	0.5595	0.829	-0.078
Mof_O 	O 	0.7331	0.5499	0.1308	-0.422
Mof_C 	C 	0.617	0.542	0.241	-0.175
Mof_C 	C 	0.569	0.542	0.319	-0.14
Mof_C 	C 	0.617	0.46	0.419	-0.198
Mof_C 	C 	0.664	0.459	0.342	-0.214
Mof_La	La	0.82352	0.51557	0.02938	1.093
Mof_O 	O 	0.8237	0.5958	0.94	-0.316
Mof_O 	O 	0.8502	0.5224	0.822	-0.129
Mof_C 	C 	0.652	0.5532	0.313	0.169
Mof_C 	C 	0.6029	0.5541	0.39	0.241
Mof_C 	C 	0.579	0.5495	0.339	0.104
Mof_C 	C 	0.6306	0.5519	0.269	0.165
Mof_Mo	Mo	0.42125	0.14527	0.66763	1.471
Mof_O 	O 	0.4376	0.1228	0.5148	-0.57
Mof_O 	O 	0.3659	0.0749	0.6717	-0.787
Mof_O 	O 	0.2278	0.0156	0.3946	-0.151
Mof_O 	O 	0.3002	0.1293	0.467	-0.043
Mof_O 	O 	0.3484	0.0595	0.329	-0.043
Mof_O 	O 	0.2331	0.0499	0.6308	-0.421
Mof_C 	C 	0.117	0.042	0.741	-0.189
Mof_C 	C 	0.069	0.042	0.819	-0.152
Mof_C 	C 	0.117	0.96	0.919	-0.215
Mof_C 	C 	0.164	0.959	0.842	-0.235
Mof_La	La	0.32352	0.01557	0.52938	1.132
Mof_O 	O 	0.3237	0.0958	0.44	-0.332
Mof_O 	O 	0.3502	0.0224	0.322	-0.194
Mof_C 	C 	0.152	0.0532	0.813	0.184
Mof_C 	C 	0.1029	0.0541	0.89	0.256
Mof_C 	C 	0.079	0.0495	0.839	0.11
Mof_C 	C 	0.1306	0.0519	0.769	0.178
Mof_Mo	Mo	0.64527	0.07875	0.83237	1.474
Mof_O 	O 	0.6228	0.0624	0.9852	-0.558
Mof_O 	O 	0.5749	0.1341	0.8283	-0.786
Mof_O 	O 	0.5156	0.2722	0.1054	-0.126
Mof_O 	O 	0.6293	0.1998	0.033	-0.051
Mof_O 	O 	0.5595	0.1516	0.171	-0.082
Mof_O 	O 	0.5499	0.2669	0.8692	-0.419
Mof_C 	C 	0.542	0.383	0.759	-0.191
Mof_C 	C 	0.542	0.431	0.681	-0.153
Mof_C 	C 	0.46	0.383	0.581	-0.216
Mof_C 	C 	0.459	0.336	0.658	-0.234
Mof_La	La	0.51557	0.17648	0.97062	1.127
Mof_O 	O 	0.5958	0.1763	0.06	-0.33
Mof_O 	O 	0.5224	0.1498	0.178	-0.132
Mof_C 	C 	0.5532	0.348	0.687	0.185
Mof_C 	C 	0.5541	0.3971	0.61	0.26
Mof_C 	C 	0.5495	0.421	0.661	0.113
Mof_C 	C 	0.5519	0.3694	0.731	0.181
Mof_Mo	Mo	0.14527	0.57875	0.33237	1.469
Mof_O 	O 	0.1228	0.5624	0.4852	-0.569
Mof_O 	O 	0.0749	0.6341	0.3283	-0.786
Mof_O 	O 	0.0156	0.7722	0.6054	-0.147
Mof_O 	O 	0.1293	0.6998	0.533	-0.043
Mof_O 	O 	0.0595	0.6516	0.671	-0.044
Mof_O 	O 	0.0499	0.7669	0.3692	-0.422
Mof_C 	C 	0.042	0.883	0.259	-0.178
Mof_C 	C 	0.042	0.931	0.181	-0.142
Mof_C 	C 	0.96	0.883	0.081	-0.207
Mof_C 	C 	0.959	0.836	0.158	-0.224
Mof_La	La	0.01557	0.67648	0.47062	1.132
Mof_O 	O 	0.0958	0.6763	0.56	-0.332
Mof_O 	O 	0.0224	0.6498	0.678	-0.189
Mof_C 	C 	0.0532	0.848	0.187	0.173
Mof_C 	C 	0.0541	0.8971	0.11	0.241
Mof_C 	C 	0.0495	0.921	0.161	0.106
Mof_C 	C 	0.0519	0.8694	0.231	0.17
Mof_Mo	Mo	0.35473	0.92125	0.83237	1.474
Mof_O 	O 	0.3772	0.9376	0.9852	-0.561
Mof_O 	O 	0.4251	0.8659	0.8283	-0.786
Mof_O 	O 	0.4844	0.7278	0.1054	-0.124
Mof_O 	O 	0.3707	0.8002	0.033	-0.048
Mof_O 	O 	0.4405	0.8484	0.171	-0.078
Mof_O 	O 	0.4501	0.7331	0.8692	-0.42
Mof_C 	C 	0.458	0.617	0.759	-0.192
Mof_C 	C 	0.458	0.569	0.681	-0.154
Mof_C 	C 	0.54	0.617	0.581	-0.216
Mof_C 	C 	0.541	0.664	0.658	-0.234
Mof_La	La	0.48443	0.82352	0.97062	1.121
Mof_O 	O 	0.4042	0.8237	0.06	-0.327
Mof_O 	O 	0.4776	0.8502	0.178	-0.132
Mof_C 	C 	0.4468	0.652	0.687	0.185
Mof_C 	C 	0.4459	0.6029	0.61	0.261
Mof_C 	C 	0.4505	0.579	0.661	0.114
Mof_C 	C 	0.4481	0.6306	0.731	0.181
Mof_Mo	Mo	0.85473	0.42125	0.33237	1.469
Mof_O 	O 	0.8772	0.4376	0.4852	-0.57
Mof_O 	O 	0.9251	0.3659	0.3283	-0.783
Mof_O 	O 	0.9844	0.2278	0.6054	-0.093
Mof_O 	O 	0.8707	0.3002	0.533	-0.049
Mof_O 	O 	0.9405	0.3484	0.671	-0.116
Mof_O 	O 	0.9501	0.2331	0.3692	-0.418
Mof_C 	C 	0.958	0.117	0.259	-0.174
Mof_C 	C 	0.958	0.069	0.181	-0.139
Mof_C 	C 	0.04	0.117	0.081	-0.191
Mof_C 	C 	0.041	0.164	0.158	-0.207
Mof_La	La	0.98443	0.32352	0.47062	1.09
Mof_O 	O 	0.9042	0.3237	0.56	-0.315
Mof_O 	O 	0.9776	0.3502	0.678	-0.068
Mof_C 	C 	0.9468	0.152	0.187	0.17
Mof_C 	C 	0.9459	0.1029	0.11	0.235
Mof_C 	C 	0.9505	0.079	0.161	0.103
Mof_C 	C 	0.9481	0.1306	0.231	0.168
Mof_Mo	Mo	-2.43937e-33	0.55865	0.97075	1.295
Mof_O 	O 	-1.51254e-32	0.6831	0.1766	-0.66
Mof_O 	O 	-1.18112e-32	0.5576	0.1745	-0.494
Mof_Mo	Mo	0.5	0.05865	0.47075	1.29
Mof_O 	O 	0.5	0.1831	0.6766	-0.659
Mof_O 	O 	0.5	0.0576	0.6745	-0.492
Mof_Mo	Mo	-2.43937e-33	0.44135	0.97075	1.298
Mof_O 	O 	-4.06356e-33	0.3169	0.1766	-0.661
Mof_O 	O 	-2.96167e-33	0.4424	0.1745	-0.494
Mof_Mo	Mo	0.5	0.94135	0.47075	1.306
Mof_O 	O 	0.5	0.8169	0.6766	-0.659
Mof_O 	O 	0.5	0.9424	0.6745	-0.491
Mof_Mo	Mo	0.55865	-1.38273e-34	0.02925	1.263
Mof_O 	O 	0.6831	0	0.8234	-0.659
Mof_O 	O 	0.5576	-4.42475e-33	0.8255	-0.488
Mof_Mo	Mo	0.05865	0.5	0.52925	1.29
Mof_O 	O 	0.1831	0.5	0.3234	-0.659
Mof_O 	O 	0.0576	0.5	0.3255	-0.491
Mof_Mo	Mo	0.44135	-1.38273e-34	0.02925	1.265
Mof_O 	O 	0.3169	0	0.8234	-0.66
Mof_O 	O 	0.4424	-4.42475e-33	0.8255	-0.488
Mof_Mo	Mo	0.94135	0.5	0.52925	1.306
Mof_O 	O 	0.8169	0.5	0.3234	-0.659
Mof_O 	O 	0.9424	0.5	0.3255	-0.49
Mof_O 	O 	0.0659	0.5	0.9937	-0.735
Mof_C 	C 	0.2854	0.5	0.168	0.328
Mof_C 	C 	0.4308	0.5	0.4074	-0.15
Mof_C 	C 	0.3356	0.5	0.2528	-0.01
Mof_O 	O 	0.5659	-2.21237e-33	0.4937	-0.744
Mof_C 	C 	0.7854	-4.42475e-33	0.668	0.323
Mof_C 	C 	0.9308	0	0.9074	-0.118
Mof_C 	C 	0.8356	-4.42475e-33	0.7528	-0.001
Mof_O 	O 	0.9341	0.5	0.9937	-0.727
Mof_C 	C 	0.7146	0.5	0.168	0.328
Mof_C 	C 	0.5692	0.5	0.4074	-0.15
Mof_C 	C 	0.6644	0.5	0.2528	-0.01
Mof_O 	O 	0.4341	-2.21237e-33	0.4937	-0.745
Mof_C 	C 	0.2146	-4.42475e-33	0.668	0.323
Mof_C 	C 	0.0692	0	0.9074	-0.127
Mof_C 	C 	0.1644	-4.42475e-33	0.7528	-0.005
Mof_O 	O 	0.5	0.9341	0.0063	-0.733
Mof_C 	C 	0.5	0.7146	0.832	0.326
Mof_C 	C 	0.5	0.5692	0.5926	-0.143
Mof_C 	C 	0.5	0.6644	0.7472	-0.001
Mof_O 	O 	-5.60163e-33	0.4341	0.5063	-0.745
Mof_C 	C 	-8.17049e-33	0.2146	0.332	0.324
Mof_C 	C 	-3.63708e-34	0.0692	0.0926	-0.142
Mof_C 	C 	5.05575e-34	0.1644	0.2472	-0.015
Mof_O 	O 	0.5	0.0659	0.0063	-0.743
Mof_C 	C 	0.5	0.2854	0.832	0.326
Mof_C 	C 	0.5	0.4308	0.5926	-0.144
Mof_C 	C 	0.5	0.3356	0.7472	-0.001
Mof_O 	O 	-5.60163e-33	0.5659	0.5063	-0.745
Mof_C 	C 	-8.17049e-33	0.7854	0.332	0.324
Mof_C 	C 	-9.7663e-33	0.9308	0.0926	-0.132
Mof_C 	C 	-3.91917e-33	0.8356	0.2472	-0.01
Mof_P 	P 	-3.91345e-33	0.5	0.25	0.608
Mof_P 	P 	0.5	-4.42475e-33	0.75	0.608
Mof_Si	Si	0.5	0.5	0.5	0.671
Mof_Si	Si	-0	0	-0	0.618
_end
