data_functionalizedCrystal
_audit_creation_method	'EQeq! by Chris Wilmer'
_symmetry_space_group_name_H-M	'P1'
_symmetry_Int_Tables_number	1
_symmetry_cell_setting	triclinic
loop_
_symmetry_equiv_pos_as_xyz
  x,y,z
_cell_length_a	7.119
_cell_length_b	21.58
_cell_length_c	9.1
_cell_angle_alpha	90
_cell_angle_beta	90
_cell_angle_gamma	90
loop_
_atom_site_label
_atom_site_type_symbol
_atom_site_fract_x
_atom_site_fract_y
_atom_site_fract_z
_atom_site_charge
Mof_C 	C 	0.333	0.7508	0.779	-0.176
Mof_H 	H 	0.2186	0.7707	0.7927	0.107
Mof_C 	C 	0.3322	0.6926	0.7361	0.147
Mof_H 	H 	0.2168	0.6735	0.7204	-0.002
Mof_N 	N 	0.6035	0.9348	0.9322	-0.105
Mof_N 	N 	0.6568	0.8818	0.8845	-0.059
Mof_O 	O 	0.6458	0.5682	0.6523	-0.484
Mof_C 	C 	0.833	0.2508	0.279	-0.158
Mof_H 	H 	0.7186	0.2707	0.2927	0.086
Mof_C 	C 	0.8322	0.1926	0.2361	0.167
Mof_H 	H 	0.7168	0.1735	0.2204	-0.025
Mof_N 	N 	0.1035	0.4348	0.4322	-0.18
Mof_N 	N 	0.1568	0.3818	0.3845	-0.09
Mof_O 	O 	0.1458	0.0682	0.1523	-0.533
Mof_C 	C 	0.667	0.2492	0.779	-0.174
Mof_H 	H 	0.7814	0.2293	0.7927	0.117
Mof_C 	C 	0.6678	0.3074	0.7361	0.145
Mof_H 	H 	0.7832	0.3265	0.7204	0.012
Mof_N 	N 	0.3965	0.0652	0.9322	-0.145
Mof_N 	N 	0.3432	0.1182	0.8845	-0.075
Mof_O 	O 	0.3542	0.4318	0.6523	-0.492
Mof_C 	C 	0.167	0.7492	0.279	-0.171
Mof_H 	H 	0.2814	0.7293	0.2927	0.087
Mof_C 	C 	0.1678	0.8074	0.2361	0.117
Mof_H 	H 	0.2832	0.8265	0.2204	-0.005
Mof_N 	N 	0.8965	0.5652	0.4322	-0.153
Mof_N 	N 	0.8432	0.6182	0.3845	-0.074
Mof_O 	O 	0.8542	0.9318	0.1523	-0.434
Mof_C 	C 	0.333	0.2492	0.779	-0.175
Mof_H 	H 	0.2186	0.2293	0.7927	0.103
Mof_C 	C 	0.3322	0.3074	0.7361	0.144
Mof_H 	H 	0.2168	0.3265	0.7204	-0.002
Mof_N 	N 	0.6035	0.0652	0.9322	-0.142
Mof_N 	N 	0.6568	0.1182	0.8845	-0.067
Mof_O 	O 	0.6458	0.4318	0.6523	-0.484
Mof_C 	C 	0.833	0.7492	0.279	-0.139
Mof_H 	H 	0.7186	0.7293	0.2927	0.081
Mof_C 	C 	0.8322	0.8074	0.2361	0.149
Mof_H 	H 	0.7168	0.8265	0.2204	-0.011
Mof_N 	N 	0.1035	0.5652	0.4322	-0.18
Mof_N 	N 	0.1568	0.6182	0.3845	-0.091
Mof_O 	O 	0.1458	0.9318	0.1523	-0.466
Mof_C 	C 	0.667	0.7508	0.779	-0.175
Mof_H 	H 	0.7814	0.7707	0.7927	0.122
Mof_C 	C 	0.6678	0.6926	0.7361	0.148
Mof_H 	H 	0.7832	0.6735	0.7204	0.012
Mof_N 	N 	0.3965	0.9348	0.9322	-0.108
Mof_N 	N 	0.3432	0.8818	0.8845	-0.067
Mof_O 	O 	0.3542	0.5682	0.6523	-0.492
Mof_C 	C 	0.167	0.2508	0.279	-0.189
Mof_H 	H 	0.2814	0.2707	0.2927	0.091
Mof_C 	C 	0.1678	0.1926	0.2361	0.135
Mof_H 	H 	0.2832	0.1735	0.2204	-0.018
Mof_N 	N 	0.8965	0.4348	0.4322	-0.153
Mof_N 	N 	0.8432	0.3818	0.3845	-0.074
Mof_O 	O 	0.8542	0.0682	0.1523	-0.501
Mof_C 	C 	0.5	0.7844	0.8038	0.107
Mof_C 	C 	0.5	0.6567	0.7125	-0.234
Mof_C 	C 	0.5	0.5929	0.6692	0.574
Mof_C 	C 	0.5	0.8462	0.8535	0.084
Mof_C 	C 	1.95127e-32	0.2844	0.3038	0.053
Mof_C 	C 	-1.23863e-33	0.1567	0.2125	-0.292
Mof_C 	C 	3.06802e-33	0.0929	0.1692	0.536
Mof_C 	C 	1.52368e-32	0.3462	0.3535	0.035
Mof_C 	C 	0.5	0.2156	0.8038	0.101
Mof_C 	C 	0.5	0.3433	0.7125	-0.232
Mof_C 	C 	0.5	0.4071	0.6692	0.573
Mof_C 	C 	0.5	0.1538	0.8535	0.076
Mof_C 	C 	1.04844e-32	0.7156	0.3038	0.042
Mof_C 	C 	3.27555e-33	0.8433	0.2125	-0.259
Mof_C 	C 	-8.21742e-33	0.9071	0.1692	0.506
Mof_C 	C 	-2.81994e-33	0.6538	0.3535	0.04
Mof_Cu	Cu	0.74826	0	0.033	0.812
Mof_Cu	Cu	0.24826	0.5	0.533	0.883
Mof_Cu	Cu	0.25174	0	0.033	0.805
Mof_Cu	Cu	0.75174	0.5	0.533	0.889
_end
