data_functionalizedCrystal
_audit_creation_method	'EQeq! by Chris Wilmer'
_symmetry_space_group_name_H-M	'P1'
_symmetry_Int_Tables_number	1
_symmetry_cell_setting	triclinic
loop_
_symmetry_equiv_pos_as_xyz
  x,y,z
_cell_length_a	15.147
_cell_length_b	6.6763
_cell_length_c	14.375
_cell_angle_alpha	90
_cell_angle_beta	90
_cell_angle_gamma	90
loop_
_atom_site_label
_atom_site_type_symbol
_atom_site_fract_x
_atom_site_fract_y
_atom_site_fract_z
_atom_site_charge
Mof_O 	O 	0.8519	0.0844	0.637	-0.61
Mof_O 	O 	0.7033	0.584	0.7418	-0.666
Mof_O 	O 	0.6481	0.9156	0.137	-0.611
Mof_O 	O 	0.7967	0.416	0.2418	-0.665
Mof_O 	O 	0.1481	0.5844	0.363	-0.609
Mof_O 	O 	0.2967	0.084	0.2582	-0.665
Mof_O 	O 	0.3519	0.4156	0.863	-0.61
Mof_O 	O 	0.2033	0.916	0.7582	-0.664
Mof_O 	O 	0.1481	0.9156	0.363	-0.609
Mof_O 	O 	0.2967	0.416	0.2582	-0.665
Mof_O 	O 	0.3519	0.0844	0.863	-0.611
Mof_O 	O 	0.2033	0.584	0.7582	-0.665
Mof_O 	O 	0.8519	0.4156	0.637	-0.609
Mof_O 	O 	0.7033	0.916	0.7418	-0.665
Mof_O 	O 	0.6481	0.5844	0.137	-0.61
Mof_O 	O 	0.7967	0.084	0.2418	-0.664
Mof_Tb	Tb	0.80031	0.75	0.62023	1.708
Mof_O 	O 	0.8473	0.75	0.4633	-0.668
Mof_O 	O 	0.8894	0.75	0.7572	-0.553
Mof_N 	N 	0.9647	0.75	0.5948	-0.181
Mof_C 	C 	0.9275	0.75	0.4338	0.394
Mof_Na	Na	0.7346	0.75	0.31	1.815
Mof_C 	C 	0.9691	0.75	0.7587	0.358
Mof_C 	C 	0.9964	0.75	0.5082	-0.036
Mof_C 	C 	0.0179	0.75	0.667	-0.022
Mof_O 	O 	0.9483	0.75	0.3525	-0.393
Mof_O 	O 	0.0185	0.75	0.83	-0.402
Mof_C 	C 	0.0872	0.75	0.494	-0.071
Mof_C 	C 	0.1066	0.75	0.6527	-0.078
Mof_N 	N 	0.1427	0.75	0.566	-0.166
Mof_C 	C 	0.1296	0.75	0.3994	0.428
Mof_C 	C 	0.1767	0.75	0.7298	0.415
Mof_Tb	Tb	0.69969	0.25	0.12023	1.711
Mof_O 	O 	0.6527	0.25	0.9633	-0.669
Mof_O 	O 	0.6106	0.25	0.2572	-0.554
Mof_N 	N 	0.5353	0.25	0.0948	-0.18
Mof_C 	C 	0.5725	0.25	0.9338	0.393
Mof_Na	Na	0.7654	0.25	0.81	1.815
Mof_C 	C 	0.5309	0.25	0.2587	0.362
Mof_C 	C 	0.5036	0.25	0.0082	-0.033
Mof_C 	C 	0.4821	0.25	0.167	-0.025
Mof_O 	O 	0.5517	0.25	0.8525	-0.392
Mof_O 	O 	0.4815	0.25	0.33	-0.404
Mof_C 	C 	0.4128	0.25	0.994	-0.073
Mof_C 	C 	0.3934	0.25	0.1527	-0.078
Mof_N 	N 	0.3573	0.25	0.066	-0.166
Mof_C 	C 	0.3704	0.25	0.8994	0.429
Mof_C 	C 	0.3233	0.25	0.2298	0.415
Mof_Tb	Tb	0.19969	0.25	0.37977	1.708
Mof_O 	O 	0.1527	0.25	0.5367	-0.668
Mof_O 	O 	0.1106	0.25	0.2428	-0.553
Mof_N 	N 	0.0353	0.25	0.4052	-0.181
Mof_C 	C 	0.0725	0.25	0.5662	0.394
Mof_Na	Na	0.2654	0.25	0.69	1.815
Mof_C 	C 	0.0309	0.25	0.2413	0.358
Mof_C 	C 	0.0036	0.25	0.4918	-0.036
Mof_C 	C 	0.9821	0.25	0.333	-0.022
Mof_O 	O 	0.0517	0.25	0.6475	-0.393
Mof_O 	O 	0.9815	0.25	0.17	-0.402
Mof_C 	C 	0.9128	0.25	0.506	-0.071
Mof_C 	C 	0.8934	0.25	0.3473	-0.078
Mof_N 	N 	0.8573	0.25	0.434	-0.166
Mof_C 	C 	0.8704	0.25	0.6006	0.428
Mof_C 	C 	0.8233	0.25	0.2702	0.415
Mof_Tb	Tb	0.30031	0.75	0.87977	1.711
Mof_O 	O 	0.3473	0.75	0.0367	-0.669
Mof_O 	O 	0.3894	0.75	0.7428	-0.554
Mof_N 	N 	0.4647	0.75	0.9052	-0.18
Mof_C 	C 	0.4275	0.75	0.0662	0.393
Mof_Na	Na	0.2346	0.75	0.19	1.815
Mof_C 	C 	0.4691	0.75	0.7413	0.362
Mof_C 	C 	0.4964	0.75	0.9918	-0.033
Mof_C 	C 	0.5179	0.75	0.833	-0.025
Mof_O 	O 	0.4483	0.75	0.1475	-0.392
Mof_O 	O 	0.5185	0.75	0.67	-0.404
Mof_C 	C 	0.5872	0.75	0.006	-0.073
Mof_C 	C 	0.6066	0.75	0.8473	-0.078
Mof_N 	N 	0.6427	0.75	0.934	-0.166
Mof_C 	C 	0.6296	0.75	0.1006	0.429
Mof_C 	C 	0.6767	0.75	0.7702	0.415
_end
