data_functionalizedCrystal
_audit_creation_method	'EQeq! by Chris Wilmer'
_symmetry_space_group_name_H-M	'P1'
_symmetry_Int_Tables_number	1
_symmetry_cell_setting	triclinic
loop_
_symmetry_equiv_pos_as_xyz
  x,y,z
_cell_length_a	15.029
_cell_length_b	19.2206
_cell_length_c	21.3862
_cell_angle_alpha	90
_cell_angle_beta	118.363
_cell_angle_gamma	90
loop_
_atom_site_label
_atom_site_type_symbol
_atom_site_fract_x
_atom_site_fract_y
_atom_site_fract_z
_atom_site_charge
Mof_Zn	Zn	0.78771	0.9317	0.86787	1.236
Mof_Zn	Zn	0.957	0.8743	0.42457	1.165
Mof_Zn	Zn	0.75019	0.78062	0.39652	1.185
Mof_Co	Co	0.24228	0.82004	0.80418	1.168
Mof_O 	O 	0.1603	0.01979	0.78756	-0.23
Mof_O 	O 	0.6462	0.00491	0.78768	-0.331
Mof_O 	O 	0.64427	0.90253	0.83128	-0.443
Mof_O 	O 	0.1417	0.99483	0.06418	-0.435
Mof_O 	O 	0.8436	0.92589	0.8018	-0.443
Mof_O 	O 	0.8451	0.83788	0.9195	-0.521
Mof_O 	O 	0.249	0.01165	0.02188	-0.305
Mof_O 	O 	0.1788	0.07945	0.63137	-0.536
Mof_O 	O 	0.3183	0.12969	0.64344	-0.512
Mof_O 	O 	0.7306	0.8596	0.71756	-0.297
Mof_O 	O 	0.808	0.81307	0.50253	-0.461
Mof_O 	O 	0.9433	0.87257	0.51531	-0.501
Mof_O 	O 	0.2564	0.70655	0.96574	-0.22
Mof_O 	O 	0.89042	0.73448	0.90198	-0.592
Mof_O 	O 	0.2264	0.80879	0.61265	-0.218
Mof_N 	N 	0.3427	0.88688	0.86414	-0.251
Mof_N 	N 	0.1556	0.90073	0.77668	-0.283
Mof_N 	N 	0.3346	0.74144	0.83746	-0.254
Mof_N 	N 	0.2143	0.79098	0.88059	-0.274
Mof_N 	N 	0.1429	0.7576	0.7344	-0.253
Mof_N 	N 	0.2721	0.8392	0.72723	-0.275
Mof_C 	C 	0.4408	0.8743	0.90793	0.075
Mof_H 	H 	0.4622	0.8286	0.9204	-0.009
Mof_C 	C 	0.5107	0.9272	0.935	-0.119
Mof_H 	H 	0.5785	0.9173	0.9651	0.083
Mof_C 	C 	0.4791	0.9946	0.9171	0.027
Mof_H 	H 	0.5257	0.0308	0.9331	0.035
Mof_C 	C 	0.3775	0.0085	0.8751	-0.079
Mof_H 	H 	0.3544	0.054	0.8644	0.07
Mof_C 	C 	0.311	0.95312	0.84932	0.018
Mof_C 	C 	0.2	0.96133	0.80107	0.173
Mof_C 	C 	0.05	0.89727	0.72957	0.103
Mof_C 	C 	0.0144	0.88332	0.65825	-0.092
Mof_H 	H 	0.0593	0.884	0.6398	0.064
Mof_C 	C 	0.9137	0.86834	0.61375	-0.071
Mof_C 	C 	0.8461	0.86919	0.64113	-0.007
Mof_H 	H 	0.7789	0.8566	0.6126	0.051
Mof_C 	C 	0.8797	0.88906	0.71164	-0.048
Mof_C 	C 	0.9813	0.90328	0.75516	-0.104
Mof_H 	H 	0.0035	0.917	0.802	0.093
Mof_C 	C 	0.8845	0.84973	0.53709	0.393
Mof_C 	C 	0.8104	0.8914	0.74463	0.34
Mof_C 	C 	0.3983	0.72014	0.8135	0.087
Mof_H 	H 	0.3978	0.7434	0.7752	-0.009
Mof_C 	C 	0.4634	0.6659	0.843	-0.151
Mof_H 	H 	0.5073	0.6529	0.8258	0.085
Mof_C 	C 	0.4627	0.6308	0.8988	0.054
Mof_H 	H 	0.5071	0.5941	0.9205	0.017
Mof_C 	C 	0.3954	0.6508	0.9223	-0.107
Mof_H 	H 	0.3924	0.6267	0.9589	0.082
Mof_C 	C 	0.3333	0.70656	0.8912	0.03
Mof_C 	C 	0.2626	0.73499	0.91531	0.155
Mof_C 	C 	0.1534	0.82519	0.9067	0.083
Mof_C 	C 	0.1884	0.88549	0.94624	-0.08
Mof_H 	H 	0.2489	0.905	0.9529	0.075
Mof_C 	C 	0.1345	0.91732	0.97629	-0.048
Mof_C 	C 	0.0432	0.88925	0.96494	0.01
Mof_H 	H 	0.0064	0.9106	0.9843	0.04
Mof_C 	C 	0.0066	0.82906	0.92448	-0.12
Mof_C 	C 	0.0615	0.79709	0.89582	-0.043
Mof_H 	H 	0.0371	0.7566	0.8692	0.021
Mof_C 	C 	0.9087	0.79929	0.9146	0.38
Mof_C 	C 	0.0721	0.72	0.7399	0.094
Mof_H 	H 	0.0683	0.7217	0.7821	-0.023
Mof_C 	C 	0.0047	0.679	0.6854	-0.137
Mof_H 	H 	0.9554	0.6541	0.6904	0.081
Mof_C 	C 	0.011	0.6749	0.6232	0.053
Mof_H 	H 	0.9659	0.6475	0.5857	0.02
Mof_C 	C 	0.0849	0.7121	0.6177	-0.102
Mof_H 	H 	0.0919	0.7093	0.5768	0.078
Mof_C 	C 	0.148	0.75328	0.67329	0.03
Mof_C 	C 	0.2207	0.80313	0.66856	0.161
Mof_C 	C 	0.3286	0.8977	0.72327	0.09
Mof_C 	C 	0.4329	0.89633	0.75659	-0.073
Mof_H 	H 	0.4676	0.8565	0.7803	0.063
Mof_C 	C 	0.4854	0.95458	0.75452	-0.051
Mof_C 	C 	0.4334	0.01377	0.719	0.016
Mof_H 	H 	0.4689	0.0527	0.7175	0.048
Mof_C 	C 	0.277	0.95674	0.68767	-0.055
Mof_H 	H 	0.2067	0.9571	0.6648	0.055
Mof_C 	C 	0.5991	0.95498	0.79275	0.314
Mof_C 	C 	0.3291	0.01531	0.68584	-0.096
Mof_C 	C 	0.2705	0.0797	0.65023	0.426
Mof_C 	C 	0.179	0.97982	0.0235	0.326
Mof_Zn	Zn	0.21229	0.4317	0.63213	1.237
Mof_Zn	Zn	0.043	0.3743	0.07543	1.164
Mof_Zn	Zn	0.24981	0.28062	0.10348	1.184
Mof_Co	Co	0.75772	0.32004	0.69582	1.168
Mof_O 	O 	0.8397	0.51979	0.71244	-0.23
Mof_O 	O 	0.3538	0.50491	0.71232	-0.333
Mof_O 	O 	0.35573	0.40253	0.66872	-0.443
Mof_O 	O 	0.8583	0.49483	0.43582	-0.435
Mof_O 	O 	0.1564	0.42589	0.6982	-0.442
Mof_O 	O 	0.1549	0.33788	0.5805	-0.521
Mof_O 	O 	0.751	0.51165	0.47812	-0.3
Mof_O 	O 	0.8212	0.57945	0.86863	-0.537
Mof_O 	O 	0.6817	0.62969	0.85656	-0.513
Mof_O 	O 	0.2694	0.3596	0.78244	-0.297
Mof_O 	O 	0.192	0.31307	0.99747	-0.46
Mof_O 	O 	0.0567	0.37257	0.98469	-0.498
Mof_O 	O 	0.7436	0.20655	0.53426	-0.219
Mof_O 	O 	0.10958	0.23448	0.59802	-0.592
Mof_O 	O 	0.7736	0.30879	0.88735	-0.218
Mof_N 	N 	0.6573	0.38688	0.63586	-0.253
Mof_N 	N 	0.8444	0.40073	0.72332	-0.281
Mof_N 	N 	0.6654	0.24144	0.66254	-0.254
Mof_N 	N 	0.7857	0.29098	0.61941	-0.274
Mof_N 	N 	0.8571	0.2576	0.7656	-0.253
Mof_N 	N 	0.7279	0.3392	0.77277	-0.275
Mof_C 	C 	0.5592	0.3743	0.59207	0.08
Mof_H 	H 	0.5378	0.3286	0.5796	-0.01
Mof_C 	C 	0.4893	0.4272	0.565	-0.128
Mof_H 	H 	0.4215	0.4173	0.5349	0.087
Mof_C 	C 	0.5209	0.4946	0.5829	0.042
Mof_H 	H 	0.4743	0.5308	0.5669	0.029
Mof_C 	C 	0.6225	0.5085	0.6249	-0.091
Mof_H 	H 	0.6456	0.554	0.6356	0.074
Mof_C 	C 	0.689	0.45312	0.65068	0.024
Mof_C 	C 	0.8	0.46133	0.69893	0.172
Mof_C 	C 	0.95	0.39727	0.77043	0.095
Mof_C 	C 	0.9856	0.38332	0.84175	-0.093
Mof_H 	H 	0.9407	0.384	0.8602	0.064
Mof_C 	C 	0.0863	0.36834	0.88625	-0.068
Mof_C 	C 	0.1539	0.36919	0.85887	-0.005
Mof_H 	H 	0.2211	0.3566	0.8874	0.05
Mof_C 	C 	0.1203	0.38906	0.78836	-0.053
Mof_C 	C 	0.0187	0.40328	0.74484	-0.088
Mof_H 	H 	0.9965	0.417	0.698	0.085
Mof_C 	C 	0.1155	0.34973	0.96291	0.392
Mof_C 	C 	0.1896	0.3914	0.75537	0.342
Mof_C 	C 	0.6017	0.22014	0.6865	0.087
Mof_H 	H 	0.6022	0.2434	0.7248	-0.009
Mof_C 	C 	0.5366	0.1659	0.657	-0.151
Mof_H 	H 	0.4927	0.1529	0.6742	0.085
Mof_C 	C 	0.5373	0.1308	0.6012	0.055
Mof_H 	H 	0.4929	0.0941	0.5795	0.018
Mof_C 	C 	0.6046	0.1508	0.5777	-0.107
Mof_H 	H 	0.6076	0.1267	0.5411	0.082
Mof_C 	C 	0.6667	0.20656	0.6088	0.03
Mof_C 	C 	0.7374	0.23499	0.58469	0.156
Mof_C 	C 	0.8466	0.32519	0.5933	0.082
Mof_C 	C 	0.8116	0.38549	0.55376	-0.079
Mof_H 	H 	0.7511	0.405	0.5471	0.075
Mof_C 	C 	0.8655	0.41732	0.52371	-0.048
Mof_C 	C 	0.9568	0.38925	0.53506	0.011
Mof_H 	H 	0.9936	0.4106	0.5157	0.039
Mof_C 	C 	0.9934	0.32906	0.57552	-0.125
Mof_C 	C 	0.9385	0.29709	0.60418	-0.041
Mof_H 	H 	0.9629	0.2566	0.6308	0.019
Mof_C 	C 	0.0913	0.29929	0.5854	0.384
Mof_C 	C 	0.9279	0.22	0.7601	0.095
Mof_H 	H 	0.9317	0.2217	0.7179	-0.024
Mof_C 	C 	0.9953	0.179	0.8146	-0.14
Mof_H 	H 	0.0446	0.1541	0.8096	0.084
Mof_C 	C 	0.989	0.1749	0.8768	0.048
Mof_H 	H 	0.0341	0.1475	0.9143	0.024
Mof_C 	C 	0.9151	0.2121	0.8823	-0.099
Mof_H 	H 	0.9081	0.2093	0.9232	0.077
Mof_C 	C 	0.852	0.25328	0.82671	0.029
Mof_C 	C 	0.7793	0.30313	0.83144	0.162
Mof_C 	C 	0.6714	0.3977	0.77673	0.09
Mof_C 	C 	0.5671	0.39633	0.74341	-0.073
Mof_H 	H 	0.5324	0.3565	0.7197	0.063
Mof_C 	C 	0.5146	0.45458	0.74548	-0.05
Mof_C 	C 	0.5666	0.51377	0.781	0.015
Mof_H 	H 	0.5311	0.5527	0.7825	0.048
Mof_C 	C 	0.723	0.45674	0.81233	-0.054
Mof_H 	H 	0.7933	0.4571	0.8352	0.054
Mof_C 	C 	0.4009	0.45498	0.70725	0.316
Mof_C 	C 	0.6709	0.51531	0.81416	-0.096
Mof_C 	C 	0.7295	0.5797	0.84977	0.426
Mof_C 	C 	0.821	0.47982	0.4765	0.323
Mof_Zn	Zn	0.21229	0.0683	0.13213	1.236
Mof_Zn	Zn	0.043	0.1257	0.57543	1.165
Mof_Zn	Zn	0.24981	0.21938	0.60348	1.185
Mof_Co	Co	0.75772	0.17996	0.19582	1.168
Mof_O 	O 	0.8397	0.98021	0.21244	-0.23
Mof_O 	O 	0.3538	0.99509	0.21232	-0.331
Mof_O 	O 	0.35573	0.09747	0.16872	-0.443
Mof_O 	O 	0.8583	0.00517	0.93582	-0.435
Mof_O 	O 	0.1564	0.07411	0.1982	-0.443
Mof_O 	O 	0.1549	0.16212	0.0805	-0.521
Mof_O 	O 	0.751	0.98835	0.97812	-0.305
Mof_O 	O 	0.8212	0.92055	0.36863	-0.536
Mof_O 	O 	0.6817	0.87031	0.35656	-0.512
Mof_O 	O 	0.2694	0.1404	0.28244	-0.297
Mof_O 	O 	0.192	0.18693	0.49747	-0.461
Mof_O 	O 	0.0567	0.12743	0.48469	-0.501
Mof_O 	O 	0.7436	0.29345	0.03426	-0.22
Mof_O 	O 	0.10958	0.26552	0.09802	-0.592
Mof_O 	O 	0.7736	0.19121	0.38735	-0.218
Mof_N 	N 	0.6573	0.11312	0.13586	-0.251
Mof_N 	N 	0.8444	0.09927	0.22332	-0.283
Mof_N 	N 	0.6654	0.25856	0.16254	-0.254
Mof_N 	N 	0.7857	0.20902	0.11941	-0.274
Mof_N 	N 	0.8571	0.2424	0.2656	-0.253
Mof_N 	N 	0.7279	0.1608	0.27277	-0.275
Mof_C 	C 	0.5592	0.1257	0.09207	0.075
Mof_H 	H 	0.5378	0.1714	0.0796	-0.009
Mof_C 	C 	0.4893	0.0728	0.065	-0.119
Mof_H 	H 	0.4215	0.0827	0.0349	0.083
Mof_C 	C 	0.5209	0.0054	0.0829	0.027
Mof_H 	H 	0.4743	0.9692	0.0669	0.035
Mof_C 	C 	0.6225	0.9915	0.1249	-0.079
Mof_H 	H 	0.6456	0.946	0.1356	0.07
Mof_C 	C 	0.689	0.04688	0.15068	0.018
Mof_C 	C 	0.8	0.03867	0.19893	0.173
Mof_C 	C 	0.95	0.10273	0.27043	0.103
Mof_C 	C 	0.9856	0.11668	0.34175	-0.092
Mof_H 	H 	0.9407	0.116	0.3602	0.064
Mof_C 	C 	0.0863	0.13166	0.38625	-0.071
Mof_C 	C 	0.1539	0.13081	0.35887	-0.007
Mof_H 	H 	0.2211	0.1434	0.3874	0.051
Mof_C 	C 	0.1203	0.11094	0.28836	-0.048
Mof_C 	C 	0.0187	0.09672	0.24484	-0.104
Mof_H 	H 	0.9965	0.083	0.198	0.093
Mof_C 	C 	0.1155	0.15027	0.46291	0.393
Mof_C 	C 	0.1896	0.1086	0.25537	0.34
Mof_C 	C 	0.6017	0.27986	0.1865	0.087
Mof_H 	H 	0.6022	0.2566	0.2248	-0.009
Mof_C 	C 	0.5366	0.3341	0.157	-0.151
Mof_H 	H 	0.4927	0.3471	0.1742	0.085
Mof_C 	C 	0.5373	0.3692	0.1012	0.054
Mof_H 	H 	0.4929	0.4059	0.0795	0.017
Mof_C 	C 	0.6046	0.3492	0.0777	-0.107
Mof_H 	H 	0.6076	0.3733	0.0411	0.082
Mof_C 	C 	0.6667	0.29344	0.1088	0.03
Mof_C 	C 	0.7374	0.26501	0.08469	0.155
Mof_C 	C 	0.8466	0.17481	0.0933	0.083
Mof_C 	C 	0.8116	0.11451	0.05376	-0.08
Mof_H 	H 	0.7511	0.095	0.0471	0.075
Mof_C 	C 	0.8655	0.08268	0.02371	-0.048
Mof_C 	C 	0.9568	0.11075	0.03506	0.01
Mof_H 	H 	0.9936	0.0894	0.0157	0.04
Mof_C 	C 	0.9934	0.17094	0.07552	-0.12
Mof_C 	C 	0.9385	0.20291	0.10418	-0.043
Mof_H 	H 	0.9629	0.2434	0.1308	0.021
Mof_C 	C 	0.0913	0.20071	0.0854	0.38
Mof_C 	C 	0.9279	0.28	0.2601	0.094
Mof_H 	H 	0.9317	0.2783	0.2179	-0.023
Mof_C 	C 	0.9953	0.321	0.3146	-0.137
Mof_H 	H 	0.0446	0.3459	0.3096	0.081
Mof_C 	C 	0.989	0.3251	0.3768	0.053
Mof_H 	H 	0.0341	0.3525	0.4143	0.02
Mof_C 	C 	0.9151	0.2879	0.3823	-0.102
Mof_H 	H 	0.9081	0.2907	0.4232	0.078
Mof_C 	C 	0.852	0.24672	0.32671	0.03
Mof_C 	C 	0.7793	0.19687	0.33144	0.161
Mof_C 	C 	0.6714	0.1023	0.27673	0.09
Mof_C 	C 	0.5671	0.10367	0.24341	-0.073
Mof_H 	H 	0.5324	0.1435	0.2197	0.063
Mof_C 	C 	0.5146	0.04542	0.24548	-0.051
Mof_C 	C 	0.5666	0.98623	0.281	0.016
Mof_H 	H 	0.5311	0.9473	0.2825	0.048
Mof_C 	C 	0.723	0.04326	0.31233	-0.055
Mof_H 	H 	0.7933	0.0429	0.3352	0.055
Mof_C 	C 	0.4009	0.04502	0.20725	0.314
Mof_C 	C 	0.6709	0.98469	0.31416	-0.096
Mof_C 	C 	0.7295	0.9203	0.34977	0.426
Mof_C 	C 	0.821	0.02018	0.9765	0.326
Mof_Zn	Zn	0.78771	0.5683	0.36787	1.237
Mof_Zn	Zn	0.957	0.6257	0.92457	1.164
Mof_Zn	Zn	0.75019	0.71938	0.89652	1.184
Mof_Co	Co	0.24228	0.67996	0.30418	1.168
Mof_O 	O 	0.1603	0.48021	0.28756	-0.23
Mof_O 	O 	0.6462	0.49509	0.28768	-0.333
Mof_O 	O 	0.64427	0.59747	0.33128	-0.443
Mof_O 	O 	0.1417	0.50517	0.56418	-0.435
Mof_O 	O 	0.8436	0.57411	0.3018	-0.442
Mof_O 	O 	0.8451	0.66212	0.4195	-0.521
Mof_O 	O 	0.249	0.48835	0.52188	-0.3
Mof_O 	O 	0.1788	0.42055	0.13137	-0.537
Mof_O 	O 	0.3183	0.37031	0.14344	-0.513
Mof_O 	O 	0.7306	0.6404	0.21756	-0.297
Mof_O 	O 	0.808	0.68693	0.00253	-0.46
Mof_O 	O 	0.9433	0.62743	0.01531	-0.498
Mof_O 	O 	0.2564	0.79345	0.46574	-0.219
Mof_O 	O 	0.89042	0.76552	0.40198	-0.592
Mof_O 	O 	0.2264	0.69121	0.11265	-0.218
Mof_N 	N 	0.3427	0.61312	0.36414	-0.253
Mof_N 	N 	0.1556	0.59927	0.27668	-0.281
Mof_N 	N 	0.3346	0.75856	0.33746	-0.254
Mof_N 	N 	0.2143	0.70902	0.38059	-0.274
Mof_N 	N 	0.1429	0.7424	0.2344	-0.253
Mof_N 	N 	0.2721	0.6608	0.22723	-0.275
Mof_C 	C 	0.4408	0.6257	0.40793	0.08
Mof_H 	H 	0.4622	0.6714	0.4204	-0.01
Mof_C 	C 	0.5107	0.5728	0.435	-0.128
Mof_H 	H 	0.5785	0.5827	0.4651	0.087
Mof_C 	C 	0.4791	0.5054	0.4171	0.042
Mof_H 	H 	0.5257	0.4692	0.4331	0.029
Mof_C 	C 	0.3775	0.4915	0.3751	-0.091
Mof_H 	H 	0.3544	0.446	0.3644	0.074
Mof_C 	C 	0.311	0.54688	0.34932	0.024
Mof_C 	C 	0.2	0.53867	0.30107	0.172
Mof_C 	C 	0.05	0.60273	0.22957	0.095
Mof_C 	C 	0.0144	0.61668	0.15825	-0.093
Mof_H 	H 	0.0593	0.616	0.1398	0.064
Mof_C 	C 	0.9137	0.63166	0.11375	-0.068
Mof_C 	C 	0.8461	0.63081	0.14113	-0.005
Mof_H 	H 	0.7789	0.6434	0.1126	0.05
Mof_C 	C 	0.8797	0.61094	0.21164	-0.053
Mof_C 	C 	0.9813	0.59672	0.25516	-0.088
Mof_H 	H 	0.0035	0.583	0.302	0.085
Mof_C 	C 	0.8845	0.65027	0.03709	0.392
Mof_C 	C 	0.8104	0.6086	0.24463	0.342
Mof_C 	C 	0.3983	0.77986	0.3135	0.087
Mof_H 	H 	0.3978	0.7566	0.2752	-0.009
Mof_C 	C 	0.4634	0.8341	0.343	-0.151
Mof_H 	H 	0.5073	0.8471	0.3258	0.085
Mof_C 	C 	0.4627	0.8692	0.3988	0.055
Mof_H 	H 	0.5071	0.9059	0.4205	0.018
Mof_C 	C 	0.3954	0.8492	0.4223	-0.107
Mof_H 	H 	0.3924	0.8733	0.4589	0.082
Mof_C 	C 	0.3333	0.79344	0.3912	0.03
Mof_C 	C 	0.2626	0.76501	0.41531	0.156
Mof_C 	C 	0.1534	0.67481	0.4067	0.082
Mof_C 	C 	0.1884	0.61451	0.44624	-0.079
Mof_H 	H 	0.2489	0.595	0.4529	0.075
Mof_C 	C 	0.1345	0.58268	0.47629	-0.048
Mof_C 	C 	0.0432	0.61075	0.46494	0.011
Mof_H 	H 	0.0064	0.5894	0.4843	0.039
Mof_C 	C 	0.0066	0.67094	0.42448	-0.125
Mof_C 	C 	0.0615	0.70291	0.39582	-0.041
Mof_H 	H 	0.0371	0.7434	0.3692	0.019
Mof_C 	C 	0.9087	0.70071	0.4146	0.384
Mof_C 	C 	0.0721	0.78	0.2399	0.095
Mof_H 	H 	0.0683	0.7783	0.2821	-0.024
Mof_C 	C 	0.0047	0.821	0.1854	-0.14
Mof_H 	H 	0.9554	0.8459	0.1904	0.084
Mof_C 	C 	0.011	0.8251	0.1232	0.048
Mof_H 	H 	0.9659	0.8525	0.0857	0.024
Mof_C 	C 	0.0849	0.7879	0.1177	-0.099
Mof_H 	H 	0.0919	0.7907	0.0768	0.077
Mof_C 	C 	0.148	0.74672	0.17329	0.029
Mof_C 	C 	0.2207	0.69687	0.16856	0.162
Mof_C 	C 	0.3286	0.6023	0.22327	0.09
Mof_C 	C 	0.4329	0.60367	0.25659	-0.073
Mof_H 	H 	0.4676	0.6435	0.2803	0.063
Mof_C 	C 	0.4854	0.54542	0.25452	-0.05
Mof_C 	C 	0.4334	0.48623	0.219	0.015
Mof_H 	H 	0.4689	0.4473	0.2175	0.048
Mof_C 	C 	0.277	0.54326	0.18767	-0.054
Mof_H 	H 	0.2067	0.5429	0.1648	0.054
Mof_C 	C 	0.5991	0.54502	0.29275	0.316
Mof_C 	C 	0.3291	0.48469	0.18584	-0.096
Mof_C 	C 	0.2705	0.4203	0.15023	0.426
Mof_C 	C 	0.179	0.52018	0.5235	0.323
_end
