data_functionalizedCrystal
_audit_creation_method	'EQeq! by Chris Wilmer'
_symmetry_space_group_name_H-M	'P1'
_symmetry_Int_Tables_number	1
_symmetry_cell_setting	triclinic
loop_
_symmetry_equiv_pos_as_xyz
  x,y,z
_cell_length_a	9.201
_cell_length_b	9.2079
_cell_length_c	15.3255
_cell_angle_alpha	99.87
_cell_angle_beta	99.8513
_cell_angle_gamma	115.45
loop_
_atom_site_label
_atom_site_type_symbol
_atom_site_fract_x
_atom_site_fract_y
_atom_site_fract_z
_atom_site_charge
Mof_Ba	Ba	0.22133	0.97133	0.94266	1.672
Mof_Ba	Ba	0.77867	0.02867	0.05734	1.672
Mof_Ba	Ba	0.5209	0.7709	0.5418	1.685
Mof_Ba	Ba	0.4791	0.2291	0.4582	1.685
Mof_Zr	Zr	0.86548	0.61548	0.23096	3.202
Mof_Zr	Zr	0.13452	0.38452	0.76904	3.202
Mof_C 	C 	0.1018	0.7324	0.109	0.232
Mof_C 	C 	0.0136	0.8434	0.1136	0.286
Mof_C 	C 	0.15	0.5954	0.3546	0.248
Mof_C 	C 	0.2009	0.7828	0.3752	0.281
Mof_C 	C 	0.5072	0.3766	0.109	0.233
Mof_C 	C 	0.6	0.2702	0.1136	0.275
Mof_C 	C 	0.7046	0.7592	0.3546	0.249
Mof_C 	C 	0.6743	0.5924	0.3752	0.281
Mof_C 	C 	0.8982	0.2676	0.891	0.232
Mof_C 	C 	0.9864	0.1566	0.8864	0.286
Mof_C 	C 	0.85	0.4046	0.6454	0.248
Mof_C 	C 	0.7991	0.2172	0.6248	0.281
Mof_C 	C 	0.4928	0.6234	0.891	0.233
Mof_C 	C 	0.4	0.7298	0.8864	0.275
Mof_C 	C 	0.2954	0.2408	0.6454	0.249
Mof_C 	C 	0.3257	0.4076	0.6248	0.281
Mof_O 	O 	0.2099	0.7597	0.0698	-0.351
Mof_O 	O 	0.0582	0.9631	0.0814	-0.487
Mof_O 	O 	0.8982	0.7982	0.1532	-0.704
Mof_O 	O 	0.0445	0.6184	0.1506	-0.592
Mof_O 	O 	0.0035	0.5029	0.3006	-0.6
Mof_O 	O 	0.0948	0.8151	0.329	-0.671
Mof_O 	O 	0.3345	0.8868	0.4314	-0.509
Mof_O 	O 	0.2451	0.5508	0.3922	-0.396
Mof_O 	O 	0.3599	0.3101	0.0698	-0.358
Mof_O 	O 	0.5232	0.1183	0.0814	-0.498
Mof_O 	O 	0.755	0.355	0.1532	-0.7
Mof_O 	O 	0.6061	0.5322	0.1506	-0.596
Mof_O 	O 	0.7971	0.7977	0.3006	-0.602
Mof_O 	O 	0.7342	0.5139	0.329	-0.675
Mof_O 	O 	0.5969	0.5446	0.4314	-0.51
Mof_O 	O 	0.6471	0.8414	0.3922	-0.395
Mof_O 	O 	0.7901	0.2403	0.9302	-0.351
Mof_O 	O 	0.9418	0.0369	0.9186	-0.487
Mof_O 	O 	0.1018	0.2018	0.8468	-0.704
Mof_O 	O 	0.9555	0.3816	0.8494	-0.592
Mof_O 	O 	0.9965	0.4971	0.6994	-0.6
Mof_O 	O 	0.9052	0.1849	0.671	-0.671
Mof_O 	O 	0.6655	0.1132	0.5686	-0.509
Mof_O 	O 	0.7549	0.4492	0.6078	-0.396
Mof_O 	O 	0.6401	0.6899	0.9302	-0.358
Mof_O 	O 	0.4768	0.8817	0.9186	-0.498
Mof_O 	O 	0.245	0.645	0.8468	-0.7
Mof_O 	O 	0.3939	0.4678	0.8494	-0.596
Mof_O 	O 	0.2029	0.2023	0.6994	-0.602
Mof_O 	O 	0.2658	0.4861	0.671	-0.675
Mof_O 	O 	0.4031	0.4554	0.5686	-0.51
Mof_O 	O 	0.3529	0.1586	0.6078	-0.395
_end
