data_functionalizedCrystal
_audit_creation_method	'EQeq! by Chris Wilmer'
_symmetry_space_group_name_H-M	'P1'
_symmetry_Int_Tables_number	1
_symmetry_cell_setting	triclinic
loop_
_symmetry_equiv_pos_as_xyz
  x,y,z
_cell_length_a	31.07
_cell_length_b	31.07
_cell_length_c	31.862
_cell_angle_alpha	90
_cell_angle_beta	90
_cell_angle_gamma	120
loop_
_atom_site_label
_atom_site_type_symbol
_atom_site_fract_x
_atom_site_fract_y
_atom_site_fract_z
_atom_site_charge
Mof_C 	C 	0.06029	0.58082	0.22845	0.099
Mof_H 	H 	0.0305	0.5726	0.2151	-0.004
Mof_C 	C 	0.09979	0.62883	0.22428	-0.177
Mof_H 	H 	0.0965	0.6523	0.2088	0.1
Mof_C 	C 	0.14423	0.64106	0.24364	0.122
Mof_C 	C 	0.14692	0.60551	0.2678	-0.176
Mof_H 	H 	0.176	0.6131	0.282	0.092
Mof_C 	C 	0.10565	0.55838	0.27055	0.098
Mof_H 	H 	0.1077	0.5346	0.2868	0.001
Mof_C 	C 	0.48857	0.98115	0.34653	0.093
Mof_H 	H 	0.5091	0.9734	0.331	0.003
Mof_C 	C 	0.4917	0.98144	0.38985	-0.163
Mof_H 	H 	0.5142	0.9745	0.403	0.096
Mof_C 	C 	0.46044	0.99234	0.41351	0.118
Mof_C 	C 	0.42691	0.00172	0.39246	-0.17
Mof_H 	H 	0.405	0.0082	0.4073	0.087
Mof_C 	C 	0.42669	0.00125	0.34874	0.091
Mof_H 	H 	0.4044	0.008	0.3348	-0
Mof_C 	C 	0.46373	0.99572	0.45947	-0.049
Mof_H 	H 	0.4387	0.9962	0.4751	0.058
Mof_C 	C 	0.37055	0.89991	0.2139	0.091
Mof_H 	H 	0.3962	0.904	0.1963	0.013
Mof_C 	C 	0.32623	0.85555	0.21246	-0.171
Mof_H 	H 	0.3222	0.8303	0.1944	0.106
Mof_C 	C 	0.28759	0.8494	0.23865	0.125
Mof_C 	C 	0.29493	0.88856	0.26375	-0.183
Mof_H 	H 	0.2694	0.8859	0.2808	0.098
Mof_C 	C 	0.34043	0.93184	0.26341	0.101
Mof_H 	H 	0.3448	0.9581	0.2804	-0.003
Mof_C 	C 	0.24051	0.80134	0.24009	-0.053
Mof_H 	H 	0.217	0.7955	0.2607	0.068
Mof_C 	C 	0.18868	0.69095	0.23934	-0.052
Mof_H 	H 	0.2178	0.6981	0.2532	0.06
Mof_N 	N 	0.06293	0.54578	0.25078	-0.164
Mof_N 	N 	0.45697	0.99164	0.32577	-0.155
Mof_N 	N 	0.50134	0.99796	0.4778	-0.077
Mof_N 	N 	0.18758	0.72388	0.21714	-0.073
Mof_N 	N 	0.23243	0.76825	0.21311	-0.071
Mof_N 	N 	0.37849	0.93765	0.23961	-0.163
Mof_C 	C 	0.41918	0.47947	0.22845	0.1
Mof_H 	H 	0.4274	0.4579	0.2151	-0.002
Mof_C 	C 	0.37117	0.47096	0.22428	-0.176
Mof_H 	H 	0.3477	0.4442	0.2088	0.101
Mof_C 	C 	0.35894	0.50317	0.24364	0.123
Mof_C 	C 	0.39449	0.54141	0.2678	-0.176
Mof_H 	H 	0.3869	0.5629	0.282	0.092
Mof_C 	C 	0.44162	0.54727	0.27055	0.098
Mof_H 	H 	0.4654	0.5731	0.2868	0.001
Mof_C 	C 	0.01885	0.50742	0.34653	0.088
Mof_H 	H 	0.0266	0.5357	0.331	0.003
Mof_C 	C 	0.01856	0.51026	0.38985	-0.159
Mof_H 	H 	0.0255	0.5397	0.403	0.093
Mof_C 	C 	0.00766	0.4681	0.41351	0.106
Mof_C 	C 	0.99828	0.42519	0.39246	-0.159
Mof_H 	H 	0.9918	0.3968	0.4073	0.086
Mof_C 	C 	0.99875	0.42544	0.34874	0.095
Mof_H 	H 	0.992	0.3964	0.3348	0.001
Mof_C 	C 	0.00428	0.46801	0.45947	-0.045
Mof_H 	H 	0.0038	0.4425	0.4751	0.054
Mof_C 	C 	0.10009	0.47064	0.2139	0.091
Mof_H 	H 	0.096	0.4922	0.1963	0.012
Mof_C 	C 	0.14445	0.47068	0.21246	-0.172
Mof_H 	H 	0.1697	0.4919	0.1944	0.107
Mof_C 	C 	0.1506	0.43819	0.23865	0.125
Mof_C 	C 	0.11144	0.40637	0.26375	-0.184
Mof_H 	H 	0.1141	0.3835	0.2808	0.098
Mof_C 	C 	0.06816	0.40859	0.26341	0.101
Mof_H 	H 	0.0419	0.3867	0.2804	-0.005
Mof_C 	C 	0.19866	0.43917	0.24009	-0.053
Mof_H 	H 	0.2045	0.4215	0.2607	0.068
Mof_C 	C 	0.30905	0.49773	0.23934	-0.052
Mof_H 	H 	0.3019	0.5197	0.2532	0.06
Mof_N 	N 	0.45422	0.51715	0.25078	-0.164
Mof_N 	N 	0.00836	0.46533	0.32577	-0.159
Mof_N 	N 	0.00204	0.50338	0.4778	-0.082
Mof_N 	N 	0.27612	0.4637	0.21714	-0.073
Mof_N 	N 	0.23175	0.46418	0.21311	-0.071
Mof_N 	N 	0.06235	0.44084	0.23961	-0.164
Mof_C 	C 	0.52053	0.93971	0.22845	0.101
Mof_H 	H 	0.5421	0.9695	0.2151	-0.001
Mof_C 	C 	0.52904	0.90021	0.22428	-0.175
Mof_H 	H 	0.5558	0.9035	0.2088	0.101
Mof_C 	C 	0.49683	0.85577	0.24364	0.123
Mof_C 	C 	0.45859	0.85308	0.2678	-0.176
Mof_H 	H 	0.4371	0.824	0.282	0.092
Mof_C 	C 	0.45273	0.89435	0.27055	0.098
Mof_H 	H 	0.4269	0.8923	0.2868	0.002
Mof_C 	C 	0.49258	0.51143	0.34653	0.09
Mof_H 	H 	0.4643	0.4909	0.331	0.003
Mof_C 	C 	0.48974	0.5083	0.38985	-0.161
Mof_H 	H 	0.4603	0.4858	0.403	0.094
Mof_C 	C 	0.5319	0.53956	0.41351	0.112
Mof_C 	C 	0.57481	0.57309	0.39246	-0.165
Mof_H 	H 	0.6032	0.595	0.4073	0.087
Mof_C 	C 	0.57456	0.57331	0.34874	0.093
Mof_H 	H 	0.6036	0.5956	0.3348	0
Mof_C 	C 	0.53199	0.53627	0.45947	-0.047
Mof_H 	H 	0.5575	0.5613	0.4751	0.056
Mof_C 	C 	0.52936	0.62945	0.2139	0.091
Mof_H 	H 	0.5078	0.6038	0.1963	0.013
Mof_C 	C 	0.52932	0.67377	0.21246	-0.172
Mof_H 	H 	0.5081	0.6778	0.1944	0.107
Mof_C 	C 	0.56181	0.71241	0.23865	0.125
Mof_C 	C 	0.59363	0.70507	0.26375	-0.183
Mof_H 	H 	0.6165	0.7306	0.2808	0.098
Mof_C 	C 	0.59141	0.65957	0.26341	0.101
Mof_H 	H 	0.6133	0.6552	0.2804	-0.004
Mof_C 	C 	0.56083	0.75949	0.24009	-0.053
Mof_H 	H 	0.5785	0.783	0.2607	0.068
Mof_C 	C 	0.50227	0.81132	0.23934	-0.052
Mof_H 	H 	0.4803	0.7822	0.2532	0.06
Mof_N 	N 	0.48285	0.93707	0.25078	-0.163
Mof_N 	N 	0.53467	0.54303	0.32577	-0.157
Mof_N 	N 	0.49662	0.49866	0.4778	-0.079
Mof_N 	N 	0.5363	0.81242	0.21714	-0.073
Mof_N 	N 	0.53582	0.76757	0.21311	-0.071
Mof_N 	N 	0.55916	0.62151	0.23961	-0.164
Mof_C 	C 	0.58082	0.06029	0.27155	0.1
Mof_H 	H 	0.5726	0.0305	0.2849	-0.003
Mof_C 	C 	0.62883	0.09979	0.27572	-0.176
Mof_H 	H 	0.6523	0.0965	0.2912	0.101
Mof_C 	C 	0.64106	0.14423	0.25636	0.123
Mof_C 	C 	0.60551	0.14692	0.2322	-0.176
Mof_H 	H 	0.6131	0.176	0.218	0.092
Mof_C 	C 	0.55838	0.10565	0.22945	0.098
Mof_H 	H 	0.5346	0.1077	0.2132	0.001
Mof_C 	C 	0.98115	0.48857	0.15347	0.093
Mof_H 	H 	0.9734	0.5091	0.169	0.003
Mof_C 	C 	0.98144	0.4917	0.11015	-0.163
Mof_H 	H 	0.9745	0.5142	0.097	0.096
Mof_C 	C 	0.99234	0.46044	0.08649	0.118
Mof_C 	C 	0.00172	0.42691	0.10754	-0.17
Mof_H 	H 	0.0082	0.405	0.0927	0.087
Mof_C 	C 	0.00125	0.42669	0.15126	0.091
Mof_H 	H 	0.008	0.4044	0.1652	-0
Mof_C 	C 	0.99572	0.46373	0.04053	-0.049
Mof_H 	H 	0.9962	0.4387	0.0249	0.058
Mof_C 	C 	0.89991	0.37055	0.2861	0.091
Mof_H 	H 	0.904	0.3962	0.3037	0.013
Mof_C 	C 	0.85555	0.32623	0.28754	-0.171
Mof_H 	H 	0.8303	0.3222	0.3056	0.106
Mof_C 	C 	0.8494	0.28759	0.26135	0.125
Mof_C 	C 	0.88856	0.29493	0.23625	-0.183
Mof_H 	H 	0.8859	0.2694	0.2192	0.098
Mof_C 	C 	0.93184	0.34043	0.23659	0.101
Mof_H 	H 	0.9581	0.3448	0.2196	-0.003
Mof_C 	C 	0.80134	0.24051	0.25991	-0.053
Mof_H 	H 	0.7955	0.217	0.2393	0.068
Mof_C 	C 	0.69095	0.18868	0.26066	-0.052
Mof_H 	H 	0.6981	0.2178	0.2468	0.06
Mof_N 	N 	0.54578	0.06293	0.24922	-0.164
Mof_N 	N 	0.99164	0.45697	0.17423	-0.155
Mof_N 	N 	0.99796	0.50134	0.0222	-0.077
Mof_N 	N 	0.72388	0.18758	0.28286	-0.073
Mof_N 	N 	0.76825	0.23243	0.28689	-0.071
Mof_N 	N 	0.93765	0.37849	0.26039	-0.163
Mof_C 	C 	0.47947	0.41918	0.27155	0.1
Mof_H 	H 	0.4579	0.4274	0.2849	-0.002
Mof_C 	C 	0.47096	0.37117	0.27572	-0.176
Mof_H 	H 	0.4442	0.3477	0.2912	0.101
Mof_C 	C 	0.50317	0.35894	0.25636	0.123
Mof_C 	C 	0.54141	0.39449	0.2322	-0.176
Mof_H 	H 	0.5629	0.3869	0.218	0.092
Mof_C 	C 	0.54727	0.44162	0.22945	0.098
Mof_H 	H 	0.5731	0.4654	0.2132	0.001
Mof_C 	C 	0.50742	0.01885	0.15347	0.088
Mof_H 	H 	0.5357	0.0266	0.169	0.003
Mof_C 	C 	0.51026	0.01856	0.11015	-0.159
Mof_H 	H 	0.5397	0.0255	0.097	0.093
Mof_C 	C 	0.4681	0.00766	0.08649	0.106
Mof_C 	C 	0.42519	0.99828	0.10754	-0.159
Mof_H 	H 	0.3968	0.9918	0.0927	0.086
Mof_C 	C 	0.42544	0.99875	0.15126	0.095
Mof_H 	H 	0.3964	0.992	0.1652	0.001
Mof_C 	C 	0.46801	0.00428	0.04053	-0.045
Mof_H 	H 	0.4425	0.0038	0.0249	0.054
Mof_C 	C 	0.47064	0.10009	0.2861	0.091
Mof_H 	H 	0.4922	0.096	0.3037	0.012
Mof_C 	C 	0.47068	0.14445	0.28754	-0.172
Mof_H 	H 	0.4919	0.1697	0.3056	0.107
Mof_C 	C 	0.43819	0.1506	0.26135	0.125
Mof_C 	C 	0.40637	0.11144	0.23625	-0.184
Mof_H 	H 	0.3835	0.1141	0.2192	0.098
Mof_C 	C 	0.40859	0.06816	0.23659	0.101
Mof_H 	H 	0.3867	0.0419	0.2196	-0.005
Mof_C 	C 	0.43917	0.19866	0.25991	-0.053
Mof_H 	H 	0.4215	0.2045	0.2393	0.068
Mof_C 	C 	0.49773	0.30905	0.26066	-0.052
Mof_H 	H 	0.5197	0.3019	0.2468	0.06
Mof_N 	N 	0.51715	0.45422	0.24922	-0.164
Mof_N 	N 	0.46533	0.00836	0.17423	-0.159
Mof_N 	N 	0.50338	0.00204	0.0222	-0.082
Mof_N 	N 	0.4637	0.27612	0.28286	-0.073
Mof_N 	N 	0.46418	0.23175	0.28689	-0.071
Mof_N 	N 	0.44084	0.06235	0.26039	-0.164
Mof_C 	C 	0.93971	0.52053	0.27155	0.101
Mof_H 	H 	0.9695	0.5421	0.2849	-0.001
Mof_C 	C 	0.90021	0.52904	0.27572	-0.175
Mof_H 	H 	0.9035	0.5558	0.2912	0.101
Mof_C 	C 	0.85577	0.49683	0.25636	0.123
Mof_C 	C 	0.85308	0.45859	0.2322	-0.176
Mof_H 	H 	0.824	0.4371	0.218	0.092
Mof_C 	C 	0.89435	0.45273	0.22945	0.098
Mof_H 	H 	0.8923	0.4269	0.2132	0.002
Mof_C 	C 	0.51143	0.49258	0.15347	0.09
Mof_H 	H 	0.4909	0.4643	0.169	0.003
Mof_C 	C 	0.5083	0.48974	0.11015	-0.161
Mof_H 	H 	0.4858	0.4603	0.097	0.094
Mof_C 	C 	0.53956	0.5319	0.08649	0.112
Mof_C 	C 	0.57309	0.57481	0.10754	-0.165
Mof_H 	H 	0.595	0.6032	0.0927	0.087
Mof_C 	C 	0.57331	0.57456	0.15126	0.093
Mof_H 	H 	0.5956	0.6036	0.1652	0
Mof_C 	C 	0.53627	0.53199	0.04053	-0.047
Mof_H 	H 	0.5613	0.5575	0.0249	0.056
Mof_C 	C 	0.62945	0.52936	0.2861	0.091
Mof_H 	H 	0.6038	0.5078	0.3037	0.013
Mof_C 	C 	0.67377	0.52932	0.28754	-0.172
Mof_H 	H 	0.6778	0.5081	0.3056	0.107
Mof_C 	C 	0.71241	0.56181	0.26135	0.125
Mof_C 	C 	0.70507	0.59363	0.23625	-0.183
Mof_H 	H 	0.7306	0.6165	0.2192	0.098
Mof_C 	C 	0.65957	0.59141	0.23659	0.101
Mof_H 	H 	0.6552	0.6133	0.2196	-0.004
Mof_C 	C 	0.75949	0.56083	0.25991	-0.053
Mof_H 	H 	0.783	0.5785	0.2393	0.068
Mof_C 	C 	0.81132	0.50227	0.26066	-0.052
Mof_H 	H 	0.7822	0.4803	0.2468	0.06
Mof_N 	N 	0.93707	0.48285	0.24922	-0.163
Mof_N 	N 	0.54303	0.53467	0.17423	-0.157
Mof_N 	N 	0.49866	0.49662	0.0222	-0.079
Mof_N 	N 	0.81242	0.5363	0.28286	-0.073
Mof_N 	N 	0.76757	0.53582	0.28689	-0.071
Mof_N 	N 	0.62151	0.55916	0.26039	-0.164
Mof_C 	C 	0.93971	0.41918	0.77155	0.101
Mof_H 	H 	0.9695	0.4274	0.7849	-0.001
Mof_C 	C 	0.90021	0.37117	0.77572	-0.175
Mof_H 	H 	0.9035	0.3477	0.7912	0.101
Mof_C 	C 	0.85577	0.35894	0.75636	0.123
Mof_C 	C 	0.85308	0.39449	0.7322	-0.176
Mof_H 	H 	0.824	0.3869	0.718	0.092
Mof_C 	C 	0.89435	0.44162	0.72945	0.098
Mof_H 	H 	0.8923	0.4654	0.7132	0.002
Mof_C 	C 	0.51143	0.01885	0.65347	0.088
Mof_H 	H 	0.4909	0.0266	0.669	0.003
Mof_C 	C 	0.5083	0.01856	0.61015	-0.159
Mof_H 	H 	0.4858	0.0255	0.597	0.093
Mof_C 	C 	0.53956	0.00766	0.58649	0.106
Mof_C 	C 	0.57309	0.99828	0.60754	-0.159
Mof_H 	H 	0.595	0.9918	0.5927	0.086
Mof_C 	C 	0.57331	0.99875	0.65126	0.095
Mof_H 	H 	0.5956	0.992	0.6652	0.001
Mof_C 	C 	0.53627	0.00428	0.54053	-0.045
Mof_H 	H 	0.5613	0.0038	0.5249	0.054
Mof_C 	C 	0.62945	0.10009	0.7861	0.091
Mof_H 	H 	0.6038	0.096	0.8037	0.012
Mof_C 	C 	0.67377	0.14445	0.78754	-0.172
Mof_H 	H 	0.6778	0.1697	0.8056	0.107
Mof_C 	C 	0.71241	0.1506	0.76135	0.125
Mof_C 	C 	0.70507	0.11144	0.73625	-0.184
Mof_H 	H 	0.7306	0.1141	0.7192	0.098
Mof_C 	C 	0.65957	0.06816	0.73659	0.101
Mof_H 	H 	0.6552	0.0419	0.7196	-0.005
Mof_C 	C 	0.75949	0.19866	0.75991	-0.053
Mof_H 	H 	0.783	0.2045	0.7393	0.068
Mof_C 	C 	0.81132	0.30905	0.76066	-0.052
Mof_H 	H 	0.7822	0.3019	0.7468	0.06
Mof_N 	N 	0.93707	0.45422	0.74922	-0.163
Mof_N 	N 	0.54303	0.00836	0.67423	-0.159
Mof_N 	N 	0.49866	0.00204	0.5222	-0.082
Mof_N 	N 	0.81242	0.27612	0.78286	-0.073
Mof_N 	N 	0.76757	0.23175	0.78689	-0.071
Mof_N 	N 	0.62151	0.06235	0.76039	-0.164
Mof_C 	C 	0.58082	0.52053	0.77155	0.1
Mof_H 	H 	0.5726	0.5421	0.7849	-0.002
Mof_C 	C 	0.62883	0.52904	0.77572	-0.176
Mof_H 	H 	0.6523	0.5558	0.7912	0.101
Mof_C 	C 	0.64106	0.49683	0.75636	0.123
Mof_C 	C 	0.60551	0.45859	0.7322	-0.176
Mof_H 	H 	0.6131	0.4371	0.718	0.092
Mof_C 	C 	0.55838	0.45273	0.72945	0.098
Mof_H 	H 	0.5346	0.4269	0.7132	0.001
Mof_C 	C 	0.98115	0.49258	0.65347	0.092
Mof_H 	H 	0.9734	0.4643	0.669	0.003
Mof_C 	C 	0.98144	0.48974	0.61015	-0.163
Mof_H 	H 	0.9745	0.4603	0.597	0.096
Mof_C 	C 	0.99234	0.5319	0.58649	0.118
Mof_C 	C 	0.00172	0.57481	0.60754	-0.17
Mof_H 	H 	0.0082	0.6032	0.5927	0.087
Mof_C 	C 	0.00125	0.57456	0.65126	0.091
Mof_H 	H 	0.008	0.6036	0.6652	-0
Mof_C 	C 	0.99572	0.53199	0.54053	-0.049
Mof_H 	H 	0.9962	0.5575	0.5249	0.057
Mof_C 	C 	0.89991	0.52936	0.7861	0.091
Mof_H 	H 	0.904	0.5078	0.8037	0.013
Mof_C 	C 	0.85555	0.52932	0.78754	-0.171
Mof_H 	H 	0.8303	0.5081	0.8056	0.106
Mof_C 	C 	0.8494	0.56181	0.76135	0.125
Mof_C 	C 	0.88856	0.59363	0.73625	-0.183
Mof_H 	H 	0.8859	0.6165	0.7192	0.098
Mof_C 	C 	0.93184	0.59141	0.73659	0.101
Mof_H 	H 	0.9581	0.6133	0.7196	-0.003
Mof_C 	C 	0.80134	0.56083	0.75991	-0.053
Mof_H 	H 	0.7955	0.5785	0.7393	0.068
Mof_C 	C 	0.69095	0.50227	0.76066	-0.052
Mof_H 	H 	0.6981	0.4803	0.7468	0.06
Mof_N 	N 	0.54578	0.48285	0.74922	-0.164
Mof_N 	N 	0.99164	0.53467	0.67423	-0.155
Mof_N 	N 	0.99796	0.49662	0.5222	-0.077
Mof_N 	N 	0.72388	0.5363	0.78286	-0.073
Mof_N 	N 	0.76825	0.53582	0.78689	-0.071
Mof_N 	N 	0.93765	0.55916	0.76039	-0.163
Mof_C 	C 	0.47947	0.06029	0.77155	0.1
Mof_H 	H 	0.4579	0.0305	0.7849	-0.003
Mof_C 	C 	0.47096	0.09979	0.77572	-0.176
Mof_H 	H 	0.4442	0.0965	0.7912	0.101
Mof_C 	C 	0.50317	0.14423	0.75636	0.123
Mof_C 	C 	0.54141	0.14692	0.7322	-0.176
Mof_H 	H 	0.5629	0.176	0.718	0.092
Mof_C 	C 	0.54727	0.10565	0.72945	0.098
Mof_H 	H 	0.5731	0.1077	0.7132	0.001
Mof_C 	C 	0.50742	0.48857	0.65347	0.09
Mof_H 	H 	0.5357	0.5091	0.669	0.003
Mof_C 	C 	0.51026	0.4917	0.61015	-0.161
Mof_H 	H 	0.5397	0.5142	0.597	0.094
Mof_C 	C 	0.4681	0.46044	0.58649	0.112
Mof_C 	C 	0.42519	0.42691	0.60754	-0.165
Mof_H 	H 	0.3968	0.405	0.5927	0.087
Mof_C 	C 	0.42544	0.42669	0.65126	0.093
Mof_H 	H 	0.3964	0.4044	0.6652	-0
Mof_C 	C 	0.46801	0.46373	0.54053	-0.047
Mof_H 	H 	0.4425	0.4387	0.5249	0.056
Mof_C 	C 	0.47064	0.37055	0.7861	0.091
Mof_H 	H 	0.4922	0.3962	0.8037	0.013
Mof_C 	C 	0.47068	0.32623	0.78754	-0.172
Mof_H 	H 	0.4919	0.3222	0.8056	0.107
Mof_C 	C 	0.43819	0.28759	0.76135	0.125
Mof_C 	C 	0.40637	0.29493	0.73625	-0.183
Mof_H 	H 	0.3835	0.2694	0.7192	0.098
Mof_C 	C 	0.40859	0.34043	0.73659	0.101
Mof_H 	H 	0.3867	0.3448	0.7196	-0.004
Mof_C 	C 	0.43917	0.24051	0.75991	-0.053
Mof_H 	H 	0.4215	0.217	0.7393	0.068
Mof_C 	C 	0.49773	0.18868	0.76066	-0.052
Mof_H 	H 	0.5197	0.2178	0.7468	0.06
Mof_N 	N 	0.51715	0.06293	0.74922	-0.164
Mof_N 	N 	0.46533	0.45697	0.67423	-0.157
Mof_N 	N 	0.50338	0.50134	0.5222	-0.079
Mof_N 	N 	0.4637	0.18758	0.78286	-0.073
Mof_N 	N 	0.46418	0.23243	0.78689	-0.071
Mof_N 	N 	0.44084	0.37849	0.76039	-0.164
Mof_C 	C 	0.41918	0.93971	0.72845	0.101
Mof_H 	H 	0.4274	0.9695	0.7151	-0.001
Mof_C 	C 	0.37117	0.90021	0.72428	-0.175
Mof_H 	H 	0.3477	0.9035	0.7088	0.101
Mof_C 	C 	0.35894	0.85577	0.74364	0.123
Mof_C 	C 	0.39449	0.85308	0.7678	-0.176
Mof_H 	H 	0.3869	0.824	0.782	0.092
Mof_C 	C 	0.44162	0.89435	0.77055	0.098
Mof_H 	H 	0.4654	0.8923	0.7868	0.002
Mof_C 	C 	0.01885	0.51143	0.84653	0.088
Mof_H 	H 	0.0266	0.4909	0.831	0.003
Mof_C 	C 	0.01856	0.5083	0.88985	-0.159
Mof_H 	H 	0.0255	0.4858	0.903	0.093
Mof_C 	C 	0.00766	0.53956	0.91351	0.106
Mof_C 	C 	0.99828	0.57309	0.89246	-0.159
Mof_H 	H 	0.9918	0.595	0.9073	0.086
Mof_C 	C 	0.99875	0.57331	0.84874	0.094
Mof_H 	H 	0.992	0.5956	0.8348	0.001
Mof_C 	C 	0.00428	0.53627	0.95947	-0.045
Mof_H 	H 	0.0038	0.5613	0.9751	0.054
Mof_C 	C 	0.10009	0.62945	0.7139	0.091
Mof_H 	H 	0.096	0.6038	0.6963	0.012
Mof_C 	C 	0.14445	0.67377	0.71246	-0.172
Mof_H 	H 	0.1697	0.6778	0.6944	0.107
Mof_C 	C 	0.1506	0.71241	0.73865	0.125
Mof_C 	C 	0.11144	0.70507	0.76375	-0.184
Mof_H 	H 	0.1141	0.7306	0.7808	0.098
Mof_C 	C 	0.06816	0.65957	0.76341	0.101
Mof_H 	H 	0.0419	0.6552	0.7804	-0.005
Mof_C 	C 	0.19866	0.75949	0.74009	-0.053
Mof_H 	H 	0.2045	0.783	0.7607	0.068
Mof_C 	C 	0.30905	0.81132	0.73934	-0.052
Mof_H 	H 	0.3019	0.7822	0.7532	0.06
Mof_N 	N 	0.45422	0.93707	0.75078	-0.163
Mof_N 	N 	0.00836	0.54303	0.82577	-0.159
Mof_N 	N 	0.00204	0.49866	0.9778	-0.082
Mof_N 	N 	0.27612	0.81242	0.71714	-0.073
Mof_N 	N 	0.23175	0.76757	0.71311	-0.071
Mof_N 	N 	0.06235	0.62151	0.73961	-0.164
Mof_C 	C 	0.52053	0.58082	0.72845	0.1
Mof_H 	H 	0.5421	0.5726	0.7151	-0.002
Mof_C 	C 	0.52904	0.62883	0.72428	-0.176
Mof_H 	H 	0.5558	0.6523	0.7088	0.101
Mof_C 	C 	0.49683	0.64106	0.74364	0.123
Mof_C 	C 	0.45859	0.60551	0.7678	-0.176
Mof_H 	H 	0.4371	0.6131	0.782	0.092
Mof_C 	C 	0.45273	0.55838	0.77055	0.098
Mof_H 	H 	0.4269	0.5346	0.7868	0.001
Mof_C 	C 	0.49258	0.98115	0.84653	0.093
Mof_H 	H 	0.4643	0.9734	0.831	0.003
Mof_C 	C 	0.48974	0.98144	0.88985	-0.163
Mof_H 	H 	0.4603	0.9745	0.903	0.096
Mof_C 	C 	0.5319	0.99234	0.91351	0.118
Mof_C 	C 	0.57481	0.00172	0.89246	-0.17
Mof_H 	H 	0.6032	0.0082	0.9073	0.087
Mof_C 	C 	0.57456	0.00125	0.84874	0.091
Mof_H 	H 	0.6036	0.008	0.8348	-0
Mof_C 	C 	0.53199	0.99572	0.95947	-0.049
Mof_H 	H 	0.5575	0.9962	0.9751	0.057
Mof_C 	C 	0.52936	0.89991	0.7139	0.091
Mof_H 	H 	0.5078	0.904	0.6963	0.013
Mof_C 	C 	0.52932	0.85555	0.71246	-0.171
Mof_H 	H 	0.5081	0.8303	0.6944	0.106
Mof_C 	C 	0.56181	0.8494	0.73865	0.125
Mof_C 	C 	0.59363	0.88856	0.76375	-0.183
Mof_H 	H 	0.6165	0.8859	0.7808	0.098
Mof_C 	C 	0.59141	0.93184	0.76341	0.101
Mof_H 	H 	0.6133	0.9581	0.7804	-0.003
Mof_C 	C 	0.56083	0.80134	0.74009	-0.053
Mof_H 	H 	0.5785	0.7955	0.7607	0.068
Mof_C 	C 	0.50227	0.69095	0.73934	-0.052
Mof_H 	H 	0.4803	0.6981	0.7532	0.06
Mof_N 	N 	0.48285	0.54578	0.75078	-0.164
Mof_N 	N 	0.53467	0.99164	0.82577	-0.155
Mof_N 	N 	0.49662	0.99796	0.9778	-0.077
Mof_N 	N 	0.5363	0.72388	0.71714	-0.073
Mof_N 	N 	0.53582	0.76825	0.71311	-0.071
Mof_N 	N 	0.55916	0.93765	0.73961	-0.163
Mof_C 	C 	0.06029	0.47947	0.72845	0.1
Mof_H 	H 	0.0305	0.4579	0.7151	-0.003
Mof_C 	C 	0.09979	0.47096	0.72428	-0.176
Mof_H 	H 	0.0965	0.4442	0.7088	0.101
Mof_C 	C 	0.14423	0.50317	0.74364	0.123
Mof_C 	C 	0.14692	0.54141	0.7678	-0.176
Mof_H 	H 	0.176	0.5629	0.782	0.092
Mof_C 	C 	0.10565	0.54727	0.77055	0.098
Mof_H 	H 	0.1077	0.5731	0.7868	0.001
Mof_C 	C 	0.48857	0.50742	0.84653	0.09
Mof_H 	H 	0.5091	0.5357	0.831	0.003
Mof_C 	C 	0.4917	0.51026	0.88985	-0.161
Mof_H 	H 	0.5142	0.5397	0.903	0.094
Mof_C 	C 	0.46044	0.4681	0.91351	0.112
Mof_C 	C 	0.42691	0.42519	0.89246	-0.165
Mof_H 	H 	0.405	0.3968	0.9073	0.087
Mof_C 	C 	0.42669	0.42544	0.84874	0.093
Mof_H 	H 	0.4044	0.3964	0.8348	-0
Mof_C 	C 	0.46373	0.46801	0.95947	-0.047
Mof_H 	H 	0.4387	0.4425	0.9751	0.056
Mof_C 	C 	0.37055	0.47064	0.7139	0.091
Mof_H 	H 	0.3962	0.4922	0.6963	0.013
Mof_C 	C 	0.32623	0.47068	0.71246	-0.172
Mof_H 	H 	0.3222	0.4919	0.6944	0.107
Mof_C 	C 	0.28759	0.43819	0.73865	0.125
Mof_C 	C 	0.29493	0.40637	0.76375	-0.183
Mof_H 	H 	0.2694	0.3835	0.7808	0.098
Mof_C 	C 	0.34043	0.40859	0.76341	0.101
Mof_H 	H 	0.3448	0.3867	0.7804	-0.004
Mof_C 	C 	0.24051	0.43917	0.74009	-0.053
Mof_H 	H 	0.217	0.4215	0.7607	0.068
Mof_C 	C 	0.18868	0.49773	0.73934	-0.052
Mof_H 	H 	0.2178	0.5197	0.7532	0.06
Mof_N 	N 	0.06293	0.51715	0.75078	-0.164
Mof_N 	N 	0.45697	0.46533	0.82577	-0.157
Mof_N 	N 	0.50134	0.50338	0.9778	-0.079
Mof_N 	N 	0.18758	0.4637	0.71714	-0.073
Mof_N 	N 	0.23243	0.46418	0.71311	-0.071
Mof_N 	N 	0.37849	0.44084	0.73961	-0.164
Mof_Cd	Cd	0.46116	-3.79074e-33	0.25	0.368
Mof_Cd	Cd	2.74737e-18	0.46116	0.25	0.368
Mof_Cd	Cd	0.53884	0.53884	0.25	0.372
Mof_Cd	Cd	0.53884	0	0.75	0.368
Mof_Cd	Cd	8.2421e-18	0.53884	0.75	0.368
Mof_Cd	Cd	0.46116	0.46116	0.75	0.372
Mof_C 	C 	0.72696	0.91415	0.56178	0.103
Mof_H 	H 	0.69717	0.90593	0.54843	-0.003
Mof_C 	C 	0.76646	0.96216	0.55761	-0.179
Mof_H 	H 	0.76317	0.98563	0.54213	0.103
Mof_C 	C 	0.8109	0.97439	0.57697	0.129
Mof_C 	C 	0.81359	0.93884	0.60113	-0.179
Mof_H 	H 	0.84267	0.94643	0.61533	0.095
Mof_C 	C 	0.77232	0.89171	0.60388	0.1
Mof_H 	H 	0.77437	0.86793	0.62013	0.001
Mof_C 	C 	0.15524	0.31448	0.67986	0.09
Mof_H 	H 	0.17577	0.30673	0.66433	0.003
Mof_C 	C 	0.15837	0.31477	0.72318	-0.161
Mof_H 	H 	0.18087	0.30783	0.73633	0.094
Mof_C 	C 	0.12711	0.32567	0.74684	0.112
Mof_C 	C 	0.09358	0.33505	0.72579	-0.165
Mof_H 	H 	0.07167	0.34153	0.74063	0.086
Mof_C 	C 	0.09336	0.33458	0.68207	0.093
Mof_H 	H 	0.07107	0.34133	0.66813	-0
Mof_C 	C 	0.1304	0.32905	0.7928	-0.047
Mof_H 	H 	0.10537	0.32953	0.80843	0.055
Mof_C 	C 	0.03722	0.23324	0.54723	0.082
Mof_H 	H 	0.06287	0.23733	0.52963	0.015
Mof_C 	C 	0.9929	0.18888	0.54579	-0.161
Mof_H 	H 	0.98887	0.16363	0.52773	0.104
Mof_C 	C 	0.95426	0.18273	0.57198	0.118
Mof_C 	C 	0.9616	0.22189	0.59708	-0.172
Mof_H 	H 	0.93607	0.21923	0.61413	0.095
Mof_C 	C 	0.0071	0.26517	0.59674	0.091
Mof_H 	H 	0.01147	0.29143	0.61373	-0.002
Mof_C 	C 	0.90718	0.13467	0.57342	-0.05
Mof_H 	H 	0.88367	0.12883	0.59403	0.067
Mof_C 	C 	0.85535	0.02428	0.57267	-0.058
Mof_H 	H 	0.88447	0.03143	0.58653	0.062
Mof_N 	N 	0.7296	0.87911	0.58411	-0.164
Mof_N 	N 	0.12364	0.32497	0.6591	-0.157
Mof_N 	N 	0.16801	0.33129	0.81113	-0.079
Mof_N 	N 	0.85425	0.05721	0.55047	-0.072
Mof_N 	N 	0.8991	0.10158	0.54644	-0.071
Mof_N 	N 	0.04516	0.27098	0.57294	-0.161
Mof_C 	C 	0.08585	0.8128	0.56178	0.098
Mof_H 	H 	0.09407	0.79123	0.54843	-0.002
Mof_C 	C 	0.03784	0.80429	0.55761	-0.172
Mof_H 	H 	0.01437	0.77753	0.54213	0.099
Mof_C 	C 	0.02561	0.8365	0.57697	0.117
Mof_C 	C 	0.06116	0.87474	0.60113	-0.172
Mof_H 	H 	0.05357	0.89623	0.61533	0.091
Mof_C 	C 	0.10829	0.8806	0.60388	0.096
Mof_H 	H 	0.13207	0.90643	0.62013	0.002
Mof_C 	C 	0.68552	0.84075	0.67986	0.09
Mof_H 	H 	0.69327	0.86903	0.66433	0.003
Mof_C 	C 	0.68523	0.84359	0.72318	-0.161
Mof_H 	H 	0.69217	0.87303	0.73633	0.095
Mof_C 	C 	0.67433	0.80143	0.74684	0.112
Mof_C 	C 	0.66495	0.75852	0.72579	-0.165
Mof_H 	H 	0.65847	0.73013	0.74063	0.087
Mof_C 	C 	0.66542	0.75877	0.68207	0.093
Mof_H 	H 	0.65867	0.72973	0.66813	-0
Mof_C 	C 	0.67095	0.80134	0.7928	-0.047
Mof_H 	H 	0.67047	0.77583	0.80843	0.056
Mof_C 	C 	0.76676	0.80397	0.54723	0.091
Mof_H 	H 	0.76267	0.82553	0.52963	0.013
Mof_C 	C 	0.81112	0.80401	0.54579	-0.172
Mof_H 	H 	0.83637	0.82523	0.52773	0.107
Mof_C 	C 	0.81727	0.77152	0.57198	0.125
Mof_C 	C 	0.77811	0.7397	0.59708	-0.183
Mof_H 	H 	0.78077	0.71683	0.61413	0.098
Mof_C 	C 	0.73483	0.74192	0.59674	0.101
Mof_H 	H 	0.70857	0.72003	0.61373	-0.004
Mof_C 	C 	0.86533	0.7725	0.57342	-0.053
Mof_H 	H 	0.87117	0.75483	0.59403	0.068
Mof_C 	C 	0.97572	0.83106	0.57267	-0.046
Mof_H 	H 	0.96857	0.85303	0.58653	0.06
Mof_N 	N 	0.12089	0.85048	0.58411	-0.163
Mof_N 	N 	0.67503	0.79866	0.6591	-0.157
Mof_N 	N 	0.66871	0.83671	0.81113	-0.079
Mof_N 	N 	0.94279	0.79703	0.55047	-0.073
Mof_N 	N 	0.89842	0.79751	0.54644	-0.07
Mof_N 	N 	0.72902	0.77417	0.57294	-0.164
Mof_C 	C 	0.1872	0.27304	0.56178	0.1
Mof_H 	H 	0.20877	0.30283	0.54843	-0.002
Mof_C 	C 	0.19571	0.23354	0.55761	-0.176
Mof_H 	H 	0.22247	0.23683	0.54213	0.101
Mof_C 	C 	0.1635	0.1891	0.57697	0.122
Mof_C 	C 	0.12526	0.18641	0.60113	-0.176
Mof_H 	H 	0.10377	0.15733	0.61533	0.092
Mof_C 	C 	0.1194	0.22768	0.60388	0.097
Mof_H 	H 	0.09357	0.22563	0.62013	0.001
Mof_C 	C 	0.15925	0.84476	0.67986	0.09
Mof_H 	H 	0.13097	0.82423	0.66433	0.003
Mof_C 	C 	0.15641	0.84163	0.72318	-0.161
Mof_H 	H 	0.12697	0.81913	0.73633	0.094
Mof_C 	C 	0.19857	0.87289	0.74684	0.112
Mof_C 	C 	0.24148	0.90642	0.72579	-0.165
Mof_H 	H 	0.26987	0.92833	0.74063	0.087
Mof_C 	C 	0.24123	0.90664	0.68207	0.093
Mof_H 	H 	0.27027	0.92893	0.66813	0
Mof_C 	C 	0.19866	0.8696	0.7928	-0.047
Mof_H 	H 	0.22417	0.89463	0.80843	0.056
Mof_C 	C 	0.19603	0.96278	0.54723	0.1
Mof_H 	H 	0.17447	0.93713	0.52963	0.01
Mof_C 	C 	0.19599	0.0071	0.54579	-0.182
Mof_H 	H 	0.17477	0.01113	0.52773	0.109
Mof_C 	C 	0.22848	0.04574	0.57198	0.132
Mof_C 	C 	0.2603	0.0384	0.59708	-0.194
Mof_H 	H 	0.28317	0.06393	0.61413	0.101
Mof_C 	C 	0.25808	0.9929	0.59674	0.11
Mof_H 	H 	0.27997	0.98853	0.61373	-0.007
Mof_C 	C 	0.2275	0.09282	0.57342	-0.057
Mof_H 	H 	0.24517	0.11633	0.59403	0.069
Mof_C 	C 	0.16894	0.14465	0.57267	-0.052
Mof_H 	H 	0.14697	0.11553	0.58653	0.06
Mof_N 	N 	0.14952	0.2704	0.58411	-0.164
Mof_N 	N 	0.20134	0.87636	0.6591	-0.157
Mof_N 	N 	0.16329	0.83199	0.81113	-0.079
Mof_N 	N 	0.20297	0.14575	0.55047	-0.073
Mof_N 	N 	0.20249	0.1009	0.54644	-0.07
Mof_N 	N 	0.22583	0.95484	0.57294	-0.166
Mof_C 	C 	0.24749	0.39362	0.60488	0.1
Mof_H 	H 	0.23927	0.36383	0.61823	-0.002
Mof_C 	C 	0.2955	0.43312	0.60905	-0.176
Mof_H 	H 	0.31897	0.42983	0.62453	0.101
Mof_C 	C 	0.30773	0.47756	0.58969	0.123
Mof_C 	C 	0.27218	0.48025	0.56553	-0.176
Mof_H 	H 	0.27977	0.50933	0.55133	0.092
Mof_C 	C 	0.22505	0.43898	0.56278	0.098
Mof_H 	H 	0.20127	0.44103	0.54653	0.001
Mof_C 	C 	0.64782	0.8219	0.4868	0.09
Mof_H 	H 	0.64007	0.84243	0.50233	0.003
Mof_C 	C 	0.64811	0.82503	0.44348	-0.161
Mof_H 	H 	0.64117	0.84753	0.43033	0.094
Mof_C 	C 	0.65901	0.79377	0.41982	0.112
Mof_C 	C 	0.66839	0.76024	0.44087	-0.165
Mof_H 	H 	0.67487	0.73833	0.42603	0.087
Mof_C 	C 	0.66792	0.76002	0.48459	0.093
Mof_H 	H 	0.67467	0.73773	0.49853	-0
Mof_C 	C 	0.66239	0.79706	0.37386	-0.047
Mof_H 	H 	0.66287	0.77203	0.35823	0.056
Mof_C 	C 	0.56658	0.70388	0.61943	0.091
Mof_H 	H 	0.57067	0.72953	0.63703	0.012
Mof_C 	C 	0.52222	0.65956	0.62087	-0.172
Mof_H 	H 	0.49697	0.65553	0.63893	0.107
Mof_C 	C 	0.51607	0.62092	0.59468	0.125
Mof_C 	C 	0.55523	0.62826	0.56958	-0.183
Mof_H 	H 	0.55257	0.60273	0.55253	0.098
Mof_C 	C 	0.59851	0.67376	0.56992	0.101
Mof_H 	H 	0.62477	0.67813	0.55293	-0.004
Mof_C 	C 	0.46801	0.57384	0.59324	-0.053
Mof_H 	H 	0.46217	0.55033	0.57263	0.068
Mof_C 	C 	0.35762	0.52201	0.59399	-0.052
Mof_H 	H 	0.36477	0.55113	0.58013	0.06
Mof_N 	N 	0.21245	0.39626	0.58255	-0.164
Mof_N 	N 	0.65831	0.7903	0.50756	-0.157
Mof_N 	N 	0.66463	0.83467	0.35553	-0.079
Mof_N 	N 	0.39055	0.52091	0.61619	-0.073
Mof_N 	N 	0.43492	0.56576	0.62022	-0.071
Mof_N 	N 	0.60432	0.71182	0.59372	-0.164
Mof_C 	C 	0.14614	0.75251	0.60488	0.1
Mof_H 	H 	0.12457	0.76073	0.61823	-0.003
Mof_C 	C 	0.13763	0.7045	0.60905	-0.176
Mof_H 	H 	0.11087	0.68103	0.62453	0.101
Mof_C 	C 	0.16984	0.69227	0.58969	0.123
Mof_C 	C 	0.20808	0.72782	0.56553	-0.176
Mof_H 	H 	0.22957	0.72023	0.55133	0.092
Mof_C 	C 	0.21394	0.77495	0.56278	0.098
Mof_H 	H 	0.23977	0.79873	0.54653	0.001
Mof_C 	C 	0.17409	0.35218	0.4868	0.09
Mof_H 	H 	0.20237	0.35993	0.50233	0.003
Mof_C 	C 	0.17693	0.35189	0.44348	-0.161
Mof_H 	H 	0.20637	0.35883	0.43033	0.094
Mof_C 	C 	0.13477	0.34099	0.41982	0.112
Mof_C 	C 	0.09186	0.33161	0.44087	-0.165
Mof_H 	H 	0.06347	0.32513	0.42603	0.086
Mof_C 	C 	0.09211	0.33208	0.48459	0.093
Mof_H 	H 	0.06307	0.32533	0.49853	-0
Mof_C 	C 	0.13468	0.33761	0.37386	-0.047
Mof_H 	H 	0.10917	0.33713	0.35823	0.055
Mof_C 	C 	0.13731	0.43342	0.61943	0.091
Mof_H 	H 	0.15887	0.42933	0.63703	0.013
Mof_C 	C 	0.13735	0.47778	0.62087	-0.171
Mof_H 	H 	0.15857	0.50303	0.63893	0.106
Mof_C 	C 	0.10486	0.48393	0.59468	0.125
Mof_C 	C 	0.07304	0.44477	0.56958	-0.183
Mof_H 	H 	0.05017	0.44743	0.55253	0.097
Mof_C 	C 	0.07526	0.40149	0.56992	0.1
Mof_H 	H 	0.05337	0.37523	0.55293	-0.005
Mof_C 	C 	0.10584	0.53199	0.59324	-0.053
Mof_H 	H 	0.08817	0.53783	0.57263	0.067
Mof_C 	C 	0.1644	0.64238	0.59399	-0.052
Mof_H 	H 	0.18637	0.63523	0.58013	0.06
Mof_N 	N 	0.18382	0.78755	0.58255	-0.164
Mof_N 	N 	0.132	0.34169	0.50756	-0.157
Mof_N 	N 	0.17005	0.33537	0.35553	-0.079
Mof_N 	N 	0.13037	0.60945	0.61619	-0.073
Mof_N 	N 	0.13085	0.56508	0.62022	-0.071
Mof_N 	N 	0.10751	0.39568	0.59372	-0.164
Mof_C 	C 	0.60638	0.85386	0.60488	0.101
Mof_H 	H 	0.63617	0.87543	0.61823	-0.002
Mof_C 	C 	0.56688	0.86237	0.60905	-0.176
Mof_H 	H 	0.57017	0.88913	0.62453	0.101
Mof_C 	C 	0.52244	0.83016	0.58969	0.123
Mof_C 	C 	0.51975	0.79192	0.56553	-0.176
Mof_H 	H 	0.49067	0.77043	0.55133	0.092
Mof_C 	C 	0.56102	0.78606	0.56278	0.098
Mof_H 	H 	0.55897	0.76023	0.54653	0.001
Mof_C 	C 	0.1781	0.82591	0.4868	0.09
Mof_H 	H 	0.15757	0.79763	0.50233	0.003
Mof_C 	C 	0.17497	0.82307	0.44348	-0.161
Mof_H 	H 	0.15247	0.79363	0.43033	0.094
Mof_C 	C 	0.20623	0.86523	0.41982	0.112
Mof_C 	C 	0.23976	0.90814	0.44087	-0.165
Mof_H 	H 	0.26167	0.93653	0.42603	0.087
Mof_C 	C 	0.23998	0.90789	0.48459	0.093
Mof_H 	H 	0.26227	0.93693	0.49853	0
Mof_C 	C 	0.20294	0.86532	0.37386	-0.047
Mof_H 	H 	0.22797	0.89083	0.35823	0.056
Mof_C 	C 	0.29612	0.86269	0.61943	0.091
Mof_H 	H 	0.27047	0.84113	0.63703	0.012
Mof_C 	C 	0.34044	0.86265	0.62087	-0.172
Mof_H 	H 	0.34447	0.84143	0.63893	0.107
Mof_C 	C 	0.37908	0.89514	0.59468	0.126
Mof_C 	C 	0.37174	0.92696	0.56958	-0.183
Mof_H 	H 	0.39727	0.94983	0.55253	0.099
Mof_C 	C 	0.32624	0.92474	0.56992	0.101
Mof_H 	H 	0.32187	0.94663	0.55293	-0.004
Mof_C 	C 	0.42616	0.89416	0.59324	-0.053
Mof_H 	H 	0.44967	0.91183	0.57263	0.068
Mof_C 	C 	0.47799	0.8356	0.59399	-0.052
Mof_H 	H 	0.44887	0.81363	0.58013	0.06
Mof_N 	N 	0.60374	0.81618	0.58255	-0.164
Mof_N 	N 	0.2097	0.868	0.50756	-0.157
Mof_N 	N 	0.16533	0.82995	0.35553	-0.079
Mof_N 	N 	0.47909	0.86963	0.61619	-0.072
Mof_N 	N 	0.43424	0.86915	0.62022	-0.07
Mof_N 	N 	0.28818	0.89249	0.59372	-0.164
Mof_C 	C 	0.60638	0.75251	0.10488	0.1
Mof_H 	H 	0.63617	0.76073	0.11823	-0.002
Mof_C 	C 	0.56688	0.7045	0.10905	-0.176
Mof_H 	H 	0.57017	0.68103	0.12453	0.101
Mof_C 	C 	0.52244	0.69227	0.08969	0.123
Mof_C 	C 	0.51975	0.72782	0.06553	-0.176
Mof_H 	H 	0.49067	0.72023	0.05133	0.092
Mof_C 	C 	0.56102	0.77495	0.06278	0.098
Mof_H 	H 	0.55897	0.79873	0.04653	0.001
Mof_C 	C 	0.1781	0.35218	0.9868	0.09
Mof_H 	H 	0.15757	0.35993	0.00233	0.003
Mof_C 	C 	0.17497	0.35189	0.94348	-0.161
Mof_H 	H 	0.15247	0.35883	0.93033	0.094
Mof_C 	C 	0.20623	0.34099	0.91982	0.112
Mof_C 	C 	0.23976	0.33161	0.94087	-0.165
Mof_H 	H 	0.26167	0.32513	0.92603	0.087
Mof_C 	C 	0.23998	0.33208	0.98459	0.093
Mof_H 	H 	0.26227	0.32533	0.99853	0
Mof_C 	C 	0.20294	0.33761	0.87386	-0.047
Mof_H 	H 	0.22797	0.33713	0.85823	0.056
Mof_C 	C 	0.29612	0.43342	0.11943	0.091
Mof_H 	H 	0.27047	0.42933	0.13703	0.013
Mof_C 	C 	0.34044	0.47778	0.12087	-0.172
Mof_H 	H 	0.34447	0.50303	0.13893	0.107
Mof_C 	C 	0.37908	0.48393	0.09468	0.125
Mof_C 	C 	0.37174	0.44477	0.06958	-0.183
Mof_H 	H 	0.39727	0.44743	0.05253	0.098
Mof_C 	C 	0.32624	0.40149	0.06992	0.101
Mof_H 	H 	0.32187	0.37523	0.05293	-0.004
Mof_C 	C 	0.42616	0.53199	0.09324	-0.053
Mof_H 	H 	0.44967	0.53783	0.07263	0.068
Mof_C 	C 	0.47799	0.64238	0.09399	-0.052
Mof_H 	H 	0.44887	0.63523	0.08013	0.06
Mof_N 	N 	0.60374	0.78755	0.08255	-0.164
Mof_N 	N 	0.2097	0.34169	0.00756	-0.157
Mof_N 	N 	0.16533	0.33537	0.85553	-0.079
Mof_N 	N 	0.47909	0.60945	0.11619	-0.073
Mof_N 	N 	0.43424	0.56508	0.12022	-0.071
Mof_N 	N 	0.28818	0.39568	0.09372	-0.164
Mof_C 	C 	0.24749	0.85386	0.10488	0.101
Mof_H 	H 	0.23927	0.87543	0.11823	-0.002
Mof_C 	C 	0.2955	0.86237	0.10905	-0.176
Mof_H 	H 	0.31897	0.88913	0.12453	0.101
Mof_C 	C 	0.30773	0.83016	0.08969	0.123
Mof_C 	C 	0.27218	0.79192	0.06553	-0.176
Mof_H 	H 	0.27977	0.77043	0.05133	0.092
Mof_C 	C 	0.22505	0.78606	0.06278	0.098
Mof_H 	H 	0.20127	0.76023	0.04653	0.001
Mof_C 	C 	0.64782	0.82591	0.9868	0.091
Mof_H 	H 	0.64007	0.79763	0.00233	0.003
Mof_C 	C 	0.64811	0.82307	0.94348	-0.161
Mof_H 	H 	0.64117	0.79363	0.93033	0.094
Mof_C 	C 	0.65901	0.86523	0.91982	0.112
Mof_C 	C 	0.66839	0.90814	0.94087	-0.165
Mof_H 	H 	0.67487	0.93653	0.92603	0.087
Mof_C 	C 	0.66792	0.90789	0.98459	0.093
Mof_H 	H 	0.67467	0.93693	0.99853	0
Mof_C 	C 	0.66239	0.86532	0.87386	-0.047
Mof_H 	H 	0.66287	0.89083	0.85823	0.056
Mof_C 	C 	0.56658	0.86269	0.11943	0.091
Mof_H 	H 	0.57067	0.84113	0.13703	0.012
Mof_C 	C 	0.52222	0.86265	0.12087	-0.172
Mof_H 	H 	0.49697	0.84143	0.13893	0.107
Mof_C 	C 	0.51607	0.89514	0.09468	0.126
Mof_C 	C 	0.55523	0.92696	0.06958	-0.183
Mof_H 	H 	0.55257	0.94983	0.05253	0.099
Mof_C 	C 	0.59851	0.92474	0.06992	0.101
Mof_H 	H 	0.62477	0.94663	0.05293	-0.004
Mof_C 	C 	0.46801	0.89416	0.09324	-0.053
Mof_H 	H 	0.46217	0.91183	0.07263	0.068
Mof_C 	C 	0.35762	0.8356	0.09399	-0.052
Mof_H 	H 	0.36477	0.81363	0.08013	0.06
Mof_N 	N 	0.21245	0.81618	0.08255	-0.164
Mof_N 	N 	0.65831	0.868	0.00756	-0.157
Mof_N 	N 	0.66463	0.82995	0.85553	-0.079
Mof_N 	N 	0.39055	0.86963	0.11619	-0.072
Mof_N 	N 	0.43492	0.86915	0.12022	-0.07
Mof_N 	N 	0.60432	0.89249	0.09372	-0.164
Mof_C 	C 	0.14614	0.39362	0.10488	0.1
Mof_H 	H 	0.12457	0.36383	0.11823	-0.003
Mof_C 	C 	0.13763	0.43312	0.10905	-0.176
Mof_H 	H 	0.11087	0.42983	0.12453	0.101
Mof_C 	C 	0.16984	0.47756	0.08969	0.123
Mof_C 	C 	0.20808	0.48025	0.06553	-0.176
Mof_H 	H 	0.22957	0.50933	0.05133	0.092
Mof_C 	C 	0.21394	0.43898	0.06278	0.098
Mof_H 	H 	0.23977	0.44103	0.04653	0.001
Mof_C 	C 	0.17409	0.8219	0.9868	0.09
Mof_H 	H 	0.20237	0.84243	0.00233	0.003
Mof_C 	C 	0.17693	0.82503	0.94348	-0.161
Mof_H 	H 	0.20637	0.84753	0.93033	0.094
Mof_C 	C 	0.13477	0.79377	0.91982	0.112
Mof_C 	C 	0.09186	0.76024	0.94087	-0.165
Mof_H 	H 	0.06347	0.73833	0.92603	0.086
Mof_C 	C 	0.09211	0.76002	0.98459	0.093
Mof_H 	H 	0.06307	0.73773	0.99853	-0
Mof_C 	C 	0.13468	0.79706	0.87386	-0.047
Mof_H 	H 	0.10917	0.77203	0.85823	0.055
Mof_C 	C 	0.13731	0.70388	0.11943	0.091
Mof_H 	H 	0.15887	0.72953	0.13703	0.013
Mof_C 	C 	0.13735	0.65956	0.12087	-0.171
Mof_H 	H 	0.15857	0.65553	0.13893	0.106
Mof_C 	C 	0.10486	0.62092	0.09468	0.125
Mof_C 	C 	0.07304	0.62826	0.06958	-0.183
Mof_H 	H 	0.05017	0.60273	0.05253	0.097
Mof_C 	C 	0.07526	0.67376	0.06992	0.1
Mof_H 	H 	0.05337	0.67813	0.05293	-0.005
Mof_C 	C 	0.10584	0.57384	0.09324	-0.053
Mof_H 	H 	0.08817	0.55033	0.07263	0.067
Mof_C 	C 	0.1644	0.52201	0.09399	-0.052
Mof_H 	H 	0.18637	0.55113	0.08013	0.06
Mof_N 	N 	0.18382	0.39626	0.08255	-0.164
Mof_N 	N 	0.132	0.7903	0.00756	-0.157
Mof_N 	N 	0.17005	0.83467	0.85553	-0.079
Mof_N 	N 	0.13037	0.52091	0.11619	-0.073
Mof_N 	N 	0.13085	0.56576	0.12022	-0.071
Mof_N 	N 	0.10751	0.71182	0.09372	-0.164
Mof_C 	C 	0.08585	0.27304	0.06178	0.098
Mof_H 	H 	0.09407	0.30283	0.04843	-0.002
Mof_C 	C 	0.03784	0.23354	0.05761	-0.172
Mof_H 	H 	0.01437	0.23683	0.04213	0.098
Mof_C 	C 	0.02561	0.1891	0.07697	0.116
Mof_C 	C 	0.06116	0.18641	0.10113	-0.172
Mof_H 	H 	0.05357	0.15733	0.11533	0.09
Mof_C 	C 	0.10829	0.22768	0.10388	0.096
Mof_H 	H 	0.13207	0.22563	0.12013	0.002
Mof_C 	C 	0.68552	0.84476	0.17986	0.091
Mof_H 	H 	0.69327	0.82423	0.16433	0.003
Mof_C 	C 	0.68523	0.84163	0.22318	-0.161
Mof_H 	H 	0.69217	0.81913	0.23633	0.094
Mof_C 	C 	0.67433	0.87289	0.24684	0.112
Mof_C 	C 	0.66495	0.90642	0.22579	-0.165
Mof_H 	H 	0.65847	0.92833	0.24063	0.087
Mof_C 	C 	0.66542	0.90664	0.18207	0.093
Mof_H 	H 	0.65867	0.92893	0.16813	0
Mof_C 	C 	0.67095	0.8696	0.2928	-0.047
Mof_H 	H 	0.67047	0.89463	0.30843	0.056
Mof_C 	C 	0.76676	0.96278	0.04723	0.1
Mof_H 	H 	0.76267	0.93713	0.02963	0.01
Mof_C 	C 	0.81112	0.0071	0.04579	-0.182
Mof_H 	H 	0.83637	0.01113	0.02773	0.109
Mof_C 	C 	0.81727	0.04574	0.07198	0.132
Mof_C 	C 	0.77811	0.0384	0.09708	-0.194
Mof_H 	H 	0.78077	0.06393	0.11413	0.101
Mof_C 	C 	0.73483	0.9929	0.09674	0.11
Mof_H 	H 	0.70857	0.98853	0.11373	-0.007
Mof_C 	C 	0.86533	0.09282	0.07342	-0.056
Mof_H 	H 	0.87117	0.11633	0.09403	0.069
Mof_C 	C 	0.97572	0.14465	0.07267	-0.046
Mof_H 	H 	0.96857	0.11553	0.08653	0.059
Mof_N 	N 	0.12089	0.2704	0.08411	-0.163
Mof_N 	N 	0.67503	0.87636	0.1591	-0.157
Mof_N 	N 	0.66871	0.83199	0.31113	-0.079
Mof_N 	N 	0.94279	0.14575	0.05047	-0.073
Mof_N 	N 	0.89842	0.1009	0.04644	-0.07
Mof_N 	N 	0.72902	0.95484	0.07294	-0.166
Mof_C 	C 	0.1872	0.91415	0.06178	0.102
Mof_H 	H 	0.20877	0.90593	0.04843	-0.003
Mof_C 	C 	0.19571	0.96216	0.05761	-0.179
Mof_H 	H 	0.22247	0.98563	0.04213	0.103
Mof_C 	C 	0.1635	0.97439	0.07697	0.129
Mof_C 	C 	0.12526	0.93884	0.10113	-0.179
Mof_H 	H 	0.10377	0.94643	0.11533	0.094
Mof_C 	C 	0.1194	0.89171	0.10388	0.1
Mof_H 	H 	0.09357	0.86793	0.12013	0.001
Mof_C 	C 	0.15925	0.31448	0.17986	0.09
Mof_H 	H 	0.13097	0.30673	0.16433	0.003
Mof_C 	C 	0.15641	0.31477	0.22318	-0.161
Mof_H 	H 	0.12697	0.30783	0.23633	0.094
Mof_C 	C 	0.19857	0.32567	0.24684	0.112
Mof_C 	C 	0.24148	0.33505	0.22579	-0.165
Mof_H 	H 	0.26987	0.34153	0.24063	0.087
Mof_C 	C 	0.24123	0.33458	0.18207	0.093
Mof_H 	H 	0.27027	0.34133	0.16813	0
Mof_C 	C 	0.19866	0.32905	0.2928	-0.047
Mof_H 	H 	0.22417	0.32953	0.30843	0.056
Mof_C 	C 	0.19603	0.23324	0.04723	0.091
Mof_H 	H 	0.17447	0.23733	0.02963	0.012
Mof_C 	C 	0.19599	0.18888	0.04579	-0.172
Mof_H 	H 	0.17477	0.16363	0.02773	0.106
Mof_C 	C 	0.22848	0.18273	0.07198	0.125
Mof_C 	C 	0.2603	0.22189	0.09708	-0.183
Mof_H 	H 	0.28317	0.21923	0.11413	0.098
Mof_C 	C 	0.25808	0.26517	0.09674	0.101
Mof_H 	H 	0.27997	0.29143	0.11373	-0.004
Mof_C 	C 	0.2275	0.13467	0.07342	-0.053
Mof_H 	H 	0.24517	0.12883	0.09403	0.068
Mof_C 	C 	0.16894	0.02428	0.07267	-0.058
Mof_H 	H 	0.14697	0.03143	0.08653	0.061
Mof_N 	N 	0.14952	0.87911	0.08411	-0.164
Mof_N 	N 	0.20134	0.32497	0.1591	-0.157
Mof_N 	N 	0.16329	0.33129	0.31113	-0.079
Mof_N 	N 	0.20297	0.05721	0.05047	-0.072
Mof_N 	N 	0.20249	0.10158	0.04644	-0.071
Mof_N 	N 	0.22583	0.27098	0.07294	-0.164
Mof_C 	C 	0.72696	0.8128	0.06178	0.101
Mof_H 	H 	0.69717	0.79123	0.04843	-0.002
Mof_C 	C 	0.76646	0.80429	0.05761	-0.176
Mof_H 	H 	0.76317	0.77753	0.04213	0.101
Mof_C 	C 	0.8109	0.8365	0.07697	0.123
Mof_C 	C 	0.81359	0.87474	0.10113	-0.176
Mof_H 	H 	0.84267	0.89623	0.11533	0.093
Mof_C 	C 	0.77232	0.8806	0.10388	0.098
Mof_H 	H 	0.77437	0.90643	0.12013	0.002
Mof_C 	C 	0.15524	0.84075	0.17986	0.09
Mof_H 	H 	0.17577	0.86903	0.16433	0.003
Mof_C 	C 	0.15837	0.84359	0.22318	-0.161
Mof_H 	H 	0.18087	0.87303	0.23633	0.094
Mof_C 	C 	0.12711	0.80143	0.24684	0.112
Mof_C 	C 	0.09358	0.75852	0.22579	-0.165
Mof_H 	H 	0.07167	0.73013	0.24063	0.086
Mof_C 	C 	0.09336	0.75877	0.18207	0.093
Mof_H 	H 	0.07107	0.72973	0.16813	-0
Mof_C 	C 	0.1304	0.80134	0.2928	-0.047
Mof_H 	H 	0.10537	0.77583	0.30843	0.055
Mof_C 	C 	0.03722	0.80397	0.04723	0.082
Mof_H 	H 	0.06287	0.82553	0.02963	0.015
Mof_C 	C 	0.9929	0.80401	0.04579	-0.161
Mof_H 	H 	0.98887	0.82523	0.02773	0.104
Mof_C 	C 	0.95426	0.77152	0.07198	0.119
Mof_C 	C 	0.9616	0.7397	0.09708	-0.172
Mof_H 	H 	0.93607	0.71683	0.11413	0.095
Mof_C 	C 	0.0071	0.74192	0.09674	0.092
Mof_H 	H 	0.01147	0.72003	0.11373	-0.002
Mof_C 	C 	0.90718	0.7725	0.07342	-0.05
Mof_H 	H 	0.88367	0.75483	0.09403	0.067
Mof_C 	C 	0.85535	0.83106	0.07267	-0.052
Mof_H 	H 	0.88447	0.85303	0.08653	0.061
Mof_N 	N 	0.7296	0.85048	0.08411	-0.164
Mof_N 	N 	0.12364	0.79866	0.1591	-0.157
Mof_N 	N 	0.16801	0.83671	0.31113	-0.079
Mof_N 	N 	0.85425	0.79703	0.05047	-0.072
Mof_N 	N 	0.8991	0.79751	0.04644	-0.071
Mof_N 	N 	0.04516	0.77417	0.07294	-0.161
Mof_Cd	Cd	0.12783	0.33333	0.58333	0.371
Mof_Cd	Cd	0.66667	0.7945	0.58333	0.372
Mof_Cd	Cd	0.2055	0.87217	0.58333	0.372
Mof_Cd	Cd	0.2055	0.33333	0.08333	0.372
Mof_Cd	Cd	0.66667	0.87217	0.08333	0.372
Mof_Cd	Cd	0.12783	0.7945	0.08333	0.371
Mof_C 	C 	0.39362	0.24749	0.89512	0.1
Mof_H 	H 	0.36383	0.23927	0.88177	-0.002
Mof_C 	C 	0.43312	0.2955	0.89095	-0.176
Mof_H 	H 	0.42983	0.31897	0.87547	0.101
Mof_C 	C 	0.47756	0.30773	0.91031	0.123
Mof_C 	C 	0.48025	0.27218	0.93447	-0.176
Mof_H 	H 	0.50933	0.27977	0.94867	0.092
Mof_C 	C 	0.43898	0.22505	0.93722	0.098
Mof_H 	H 	0.44103	0.20127	0.95347	0.001
Mof_C 	C 	0.8219	0.64782	0.0132	0.09
Mof_H 	H 	0.84243	0.64007	0.99767	0.003
Mof_C 	C 	0.82503	0.64811	0.05652	-0.161
Mof_H 	H 	0.84753	0.64117	0.06967	0.094
Mof_C 	C 	0.79377	0.65901	0.08018	0.112
Mof_C 	C 	0.76024	0.66839	0.05913	-0.165
Mof_H 	H 	0.73833	0.67487	0.07397	0.087
Mof_C 	C 	0.76002	0.66792	0.01541	0.093
Mof_H 	H 	0.73773	0.67467	0.00147	-0
Mof_C 	C 	0.79706	0.66239	0.12614	-0.047
Mof_H 	H 	0.77203	0.66287	0.14177	0.056
Mof_C 	C 	0.70388	0.56658	0.88057	0.091
Mof_H 	H 	0.72953	0.57067	0.86297	0.012
Mof_C 	C 	0.65956	0.52222	0.87913	-0.172
Mof_H 	H 	0.65553	0.49697	0.86107	0.107
Mof_C 	C 	0.62092	0.51607	0.90532	0.125
Mof_C 	C 	0.62826	0.55523	0.93042	-0.183
Mof_H 	H 	0.60273	0.55257	0.94747	0.098
Mof_C 	C 	0.67376	0.59851	0.93008	0.101
Mof_H 	H 	0.67813	0.62477	0.94707	-0.004
Mof_C 	C 	0.57384	0.46801	0.90676	-0.053
Mof_H 	H 	0.55033	0.46217	0.92737	0.068
Mof_C 	C 	0.52201	0.35762	0.90601	-0.052
Mof_H 	H 	0.55113	0.36477	0.91987	0.06
Mof_N 	N 	0.39626	0.21245	0.91745	-0.164
Mof_N 	N 	0.7903	0.65831	0.99244	-0.157
Mof_N 	N 	0.83467	0.66463	0.14447	-0.079
Mof_N 	N 	0.52091	0.39055	0.88381	-0.073
Mof_N 	N 	0.56576	0.43492	0.87978	-0.071
Mof_N 	N 	0.71182	0.60432	0.90628	-0.164
Mof_C 	C 	0.75251	0.14614	0.89512	0.1
Mof_H 	H 	0.76073	0.12457	0.88177	-0.003
Mof_C 	C 	0.7045	0.13763	0.89095	-0.176
Mof_H 	H 	0.68103	0.11087	0.87547	0.101
Mof_C 	C 	0.69227	0.16984	0.91031	0.123
Mof_C 	C 	0.72782	0.20808	0.93447	-0.176
Mof_H 	H 	0.72023	0.22957	0.94867	0.092
Mof_C 	C 	0.77495	0.21394	0.93722	0.098
Mof_H 	H 	0.79873	0.23977	0.95347	0.001
Mof_C 	C 	0.35218	0.17409	0.0132	0.09
Mof_H 	H 	0.35993	0.20237	0.99767	0.003
Mof_C 	C 	0.35189	0.17693	0.05652	-0.161
Mof_H 	H 	0.35883	0.20637	0.06967	0.094
Mof_C 	C 	0.34099	0.13477	0.08018	0.112
Mof_C 	C 	0.33161	0.09186	0.05913	-0.165
Mof_H 	H 	0.32513	0.06347	0.07397	0.086
Mof_C 	C 	0.33208	0.09211	0.01541	0.093
Mof_H 	H 	0.32533	0.06307	0.00147	-0
Mof_C 	C 	0.33761	0.13468	0.12614	-0.047
Mof_H 	H 	0.33713	0.10917	0.14177	0.055
Mof_C 	C 	0.43342	0.13731	0.88057	0.091
Mof_H 	H 	0.42933	0.15887	0.86297	0.013
Mof_C 	C 	0.47778	0.13735	0.87913	-0.171
Mof_H 	H 	0.50303	0.15857	0.86107	0.106
Mof_C 	C 	0.48393	0.10486	0.90532	0.125
Mof_C 	C 	0.44477	0.07304	0.93042	-0.183
Mof_H 	H 	0.44743	0.05017	0.94747	0.097
Mof_C 	C 	0.40149	0.07526	0.93008	0.1
Mof_H 	H 	0.37523	0.05337	0.94707	-0.005
Mof_C 	C 	0.53199	0.10584	0.90676	-0.053
Mof_H 	H 	0.53783	0.08817	0.92737	0.067
Mof_C 	C 	0.64238	0.1644	0.90601	-0.052
Mof_H 	H 	0.63523	0.18637	0.91987	0.06
Mof_N 	N 	0.78755	0.18382	0.91745	-0.164
Mof_N 	N 	0.34169	0.132	0.99244	-0.157
Mof_N 	N 	0.33537	0.17005	0.14447	-0.079
Mof_N 	N 	0.60945	0.13037	0.88381	-0.073
Mof_N 	N 	0.56508	0.13085	0.87978	-0.071
Mof_N 	N 	0.39568	0.10751	0.90628	-0.164
Mof_C 	C 	0.85386	0.60638	0.89512	0.101
Mof_H 	H 	0.87543	0.63617	0.88177	-0.002
Mof_C 	C 	0.86237	0.56688	0.89095	-0.176
Mof_H 	H 	0.88913	0.57017	0.87547	0.101
Mof_C 	C 	0.83016	0.52244	0.91031	0.123
Mof_C 	C 	0.79192	0.51975	0.93447	-0.176
Mof_H 	H 	0.77043	0.49067	0.94867	0.092
Mof_C 	C 	0.78606	0.56102	0.93722	0.098
Mof_H 	H 	0.76023	0.55897	0.95347	0.001
Mof_C 	C 	0.82591	0.1781	0.0132	0.091
Mof_H 	H 	0.79763	0.15757	0.99767	0.003
Mof_C 	C 	0.82307	0.17497	0.05652	-0.161
Mof_H 	H 	0.79363	0.15247	0.06967	0.094
Mof_C 	C 	0.86523	0.20623	0.08018	0.112
Mof_C 	C 	0.90814	0.23976	0.05913	-0.165
Mof_H 	H 	0.93653	0.26167	0.07397	0.087
Mof_C 	C 	0.90789	0.23998	0.01541	0.093
Mof_H 	H 	0.93693	0.26227	0.00147	0
Mof_C 	C 	0.86532	0.20294	0.12614	-0.047
Mof_H 	H 	0.89083	0.22797	0.14177	0.056
Mof_C 	C 	0.86269	0.29612	0.88057	0.091
Mof_H 	H 	0.84113	0.27047	0.86297	0.012
Mof_C 	C 	0.86265	0.34044	0.87913	-0.172
Mof_H 	H 	0.84143	0.34447	0.86107	0.107
Mof_C 	C 	0.89514	0.37908	0.90532	0.126
Mof_C 	C 	0.92696	0.37174	0.93042	-0.183
Mof_H 	H 	0.94983	0.39727	0.94747	0.099
Mof_C 	C 	0.92474	0.32624	0.93008	0.101
Mof_H 	H 	0.94663	0.32187	0.94707	-0.004
Mof_C 	C 	0.89416	0.42616	0.90676	-0.053
Mof_H 	H 	0.91183	0.44967	0.92737	0.068
Mof_C 	C 	0.8356	0.47799	0.90601	-0.052
Mof_H 	H 	0.81363	0.44887	0.91987	0.06
Mof_N 	N 	0.81618	0.60374	0.91745	-0.164
Mof_N 	N 	0.868	0.2097	0.99244	-0.157
Mof_N 	N 	0.82995	0.16533	0.14447	-0.079
Mof_N 	N 	0.86963	0.47909	0.88381	-0.072
Mof_N 	N 	0.86915	0.43424	0.87978	-0.07
Mof_N 	N 	0.89249	0.28818	0.90628	-0.164
Mof_C 	C 	0.91415	0.72696	0.93822	0.103
Mof_H 	H 	0.90593	0.69717	0.95157	-0.003
Mof_C 	C 	0.96216	0.76646	0.94239	-0.179
Mof_H 	H 	0.98563	0.76317	0.95787	0.103
Mof_C 	C 	0.97439	0.8109	0.92303	0.129
Mof_C 	C 	0.93884	0.81359	0.89887	-0.179
Mof_H 	H 	0.94643	0.84267	0.88467	0.095
Mof_C 	C 	0.89171	0.77232	0.89612	0.1
Mof_H 	H 	0.86793	0.77437	0.87987	0.001
Mof_C 	C 	0.31448	0.15524	0.82014	0.09
Mof_H 	H 	0.30673	0.17577	0.83567	0.003
Mof_C 	C 	0.31477	0.15837	0.77682	-0.161
Mof_H 	H 	0.30783	0.18087	0.76367	0.094
Mof_C 	C 	0.32567	0.12711	0.75316	0.112
Mof_C 	C 	0.33505	0.09358	0.77421	-0.165
Mof_H 	H 	0.34153	0.07167	0.75937	0.086
Mof_C 	C 	0.33458	0.09336	0.81793	0.093
Mof_H 	H 	0.34133	0.07107	0.83187	-0
Mof_C 	C 	0.32905	0.1304	0.7072	-0.047
Mof_H 	H 	0.32953	0.10537	0.69157	0.055
Mof_C 	C 	0.23324	0.03722	0.95277	0.082
Mof_H 	H 	0.23733	0.06287	0.97037	0.015
Mof_C 	C 	0.18888	0.9929	0.95421	-0.161
Mof_H 	H 	0.16363	0.98887	0.97227	0.104
Mof_C 	C 	0.18273	0.95426	0.92802	0.118
Mof_C 	C 	0.22189	0.9616	0.90292	-0.172
Mof_H 	H 	0.21923	0.93607	0.88587	0.095
Mof_C 	C 	0.26517	0.0071	0.90326	0.091
Mof_H 	H 	0.29143	0.01147	0.88627	-0.002
Mof_C 	C 	0.13467	0.90718	0.92658	-0.05
Mof_H 	H 	0.12883	0.88367	0.90597	0.067
Mof_C 	C 	0.02428	0.85535	0.92733	-0.058
Mof_H 	H 	0.03143	0.88447	0.91347	0.062
Mof_N 	N 	0.87911	0.7296	0.91589	-0.164
Mof_N 	N 	0.32497	0.12364	0.8409	-0.157
Mof_N 	N 	0.33129	0.16801	0.68887	-0.079
Mof_N 	N 	0.05721	0.85425	0.94953	-0.072
Mof_N 	N 	0.10158	0.8991	0.95356	-0.071
Mof_N 	N 	0.27098	0.04516	0.92706	-0.161
Mof_C 	C 	0.8128	0.08585	0.93822	0.098
Mof_H 	H 	0.79123	0.09407	0.95157	-0.002
Mof_C 	C 	0.80429	0.03784	0.94239	-0.172
Mof_H 	H 	0.77753	0.01437	0.95787	0.099
Mof_C 	C 	0.8365	0.02561	0.92303	0.117
Mof_C 	C 	0.87474	0.06116	0.89887	-0.172
Mof_H 	H 	0.89623	0.05357	0.88467	0.091
Mof_C 	C 	0.8806	0.10829	0.89612	0.096
Mof_H 	H 	0.90643	0.13207	0.87987	0.002
Mof_C 	C 	0.84075	0.68552	0.82014	0.09
Mof_H 	H 	0.86903	0.69327	0.83567	0.003
Mof_C 	C 	0.84359	0.68523	0.77682	-0.161
Mof_H 	H 	0.87303	0.69217	0.76367	0.095
Mof_C 	C 	0.80143	0.67433	0.75316	0.112
Mof_C 	C 	0.75852	0.66495	0.77421	-0.165
Mof_H 	H 	0.73013	0.65847	0.75937	0.087
Mof_C 	C 	0.75877	0.66542	0.81793	0.093
Mof_H 	H 	0.72973	0.65867	0.83187	-0
Mof_C 	C 	0.80134	0.67095	0.7072	-0.047
Mof_H 	H 	0.77583	0.67047	0.69157	0.056
Mof_C 	C 	0.80397	0.76676	0.95277	0.091
Mof_H 	H 	0.82553	0.76267	0.97037	0.013
Mof_C 	C 	0.80401	0.81112	0.95421	-0.172
Mof_H 	H 	0.82523	0.83637	0.97227	0.107
Mof_C 	C 	0.77152	0.81727	0.92802	0.125
Mof_C 	C 	0.7397	0.77811	0.90292	-0.183
Mof_H 	H 	0.71683	0.78077	0.88587	0.098
Mof_C 	C 	0.74192	0.73483	0.90326	0.101
Mof_H 	H 	0.72003	0.70857	0.88627	-0.004
Mof_C 	C 	0.7725	0.86533	0.92658	-0.053
Mof_H 	H 	0.75483	0.87117	0.90597	0.068
Mof_C 	C 	0.83106	0.97572	0.92733	-0.046
Mof_H 	H 	0.85303	0.96857	0.91347	0.06
Mof_N 	N 	0.85048	0.12089	0.91589	-0.163
Mof_N 	N 	0.79866	0.67503	0.8409	-0.157
Mof_N 	N 	0.83671	0.66871	0.68887	-0.079
Mof_N 	N 	0.79703	0.94279	0.94953	-0.073
Mof_N 	N 	0.79751	0.89842	0.95356	-0.07
Mof_N 	N 	0.77417	0.72902	0.92706	-0.164
Mof_C 	C 	0.27304	0.1872	0.93822	0.1
Mof_H 	H 	0.30283	0.20877	0.95157	-0.002
Mof_C 	C 	0.23354	0.19571	0.94239	-0.176
Mof_H 	H 	0.23683	0.22247	0.95787	0.101
Mof_C 	C 	0.1891	0.1635	0.92303	0.122
Mof_C 	C 	0.18641	0.12526	0.89887	-0.176
Mof_H 	H 	0.15733	0.10377	0.88467	0.092
Mof_C 	C 	0.22768	0.1194	0.89612	0.097
Mof_H 	H 	0.22563	0.09357	0.87987	0.001
Mof_C 	C 	0.84476	0.15925	0.82014	0.09
Mof_H 	H 	0.82423	0.13097	0.83567	0.003
Mof_C 	C 	0.84163	0.15641	0.77682	-0.161
Mof_H 	H 	0.81913	0.12697	0.76367	0.094
Mof_C 	C 	0.87289	0.19857	0.75316	0.112
Mof_C 	C 	0.90642	0.24148	0.77421	-0.165
Mof_H 	H 	0.92833	0.26987	0.75937	0.087
Mof_C 	C 	0.90664	0.24123	0.81793	0.093
Mof_H 	H 	0.92893	0.27027	0.83187	0
Mof_C 	C 	0.8696	0.19866	0.7072	-0.047
Mof_H 	H 	0.89463	0.22417	0.69157	0.056
Mof_C 	C 	0.96278	0.19603	0.95277	0.1
Mof_H 	H 	0.93713	0.17447	0.97037	0.01
Mof_C 	C 	0.0071	0.19599	0.95421	-0.182
Mof_H 	H 	0.01113	0.17477	0.97227	0.109
Mof_C 	C 	0.04574	0.22848	0.92802	0.132
Mof_C 	C 	0.0384	0.2603	0.90292	-0.194
Mof_H 	H 	0.06393	0.28317	0.88587	0.101
Mof_C 	C 	0.9929	0.25808	0.90326	0.11
Mof_H 	H 	0.98853	0.27997	0.88627	-0.007
Mof_C 	C 	0.09282	0.2275	0.92658	-0.057
Mof_H 	H 	0.11633	0.24517	0.90597	0.069
Mof_C 	C 	0.14465	0.16894	0.92733	-0.052
Mof_H 	H 	0.11553	0.14697	0.91347	0.06
Mof_N 	N 	0.2704	0.14952	0.91589	-0.164
Mof_N 	N 	0.87636	0.20134	0.8409	-0.157
Mof_N 	N 	0.83199	0.16329	0.68887	-0.079
Mof_N 	N 	0.14575	0.20297	0.94953	-0.073
Mof_N 	N 	0.1009	0.20249	0.95356	-0.07
Mof_N 	N 	0.95484	0.22583	0.92706	-0.166
Mof_C 	C 	0.27304	0.08585	0.43822	0.098
Mof_H 	H 	0.30283	0.09407	0.45157	-0.002
Mof_C 	C 	0.23354	0.03784	0.44239	-0.172
Mof_H 	H 	0.23683	0.01437	0.45787	0.098
Mof_C 	C 	0.1891	0.02561	0.42303	0.116
Mof_C 	C 	0.18641	0.06116	0.39887	-0.172
Mof_H 	H 	0.15733	0.05357	0.38467	0.09
Mof_C 	C 	0.22768	0.10829	0.39612	0.096
Mof_H 	H 	0.22563	0.13207	0.37987	0.002
Mof_C 	C 	0.84476	0.68552	0.32014	0.091
Mof_H 	H 	0.82423	0.69327	0.33567	0.003
Mof_C 	C 	0.84163	0.68523	0.27682	-0.161
Mof_H 	H 	0.81913	0.69217	0.26367	0.094
Mof_C 	C 	0.87289	0.67433	0.25316	0.112
Mof_C 	C 	0.90642	0.66495	0.27421	-0.165
Mof_H 	H 	0.92833	0.65847	0.25937	0.087
Mof_C 	C 	0.90664	0.66542	0.31793	0.093
Mof_H 	H 	0.92893	0.65867	0.33187	0
Mof_C 	C 	0.8696	0.67095	0.2072	-0.047
Mof_H 	H 	0.89463	0.67047	0.19157	0.056
Mof_C 	C 	0.96278	0.76676	0.45277	0.1
Mof_H 	H 	0.93713	0.76267	0.47037	0.01
Mof_C 	C 	0.0071	0.81112	0.45421	-0.182
Mof_H 	H 	0.01113	0.83637	0.47227	0.109
Mof_C 	C 	0.04574	0.81727	0.42802	0.132
Mof_C 	C 	0.0384	0.77811	0.40292	-0.194
Mof_H 	H 	0.06393	0.78077	0.38587	0.101
Mof_C 	C 	0.9929	0.73483	0.40326	0.11
Mof_H 	H 	0.98853	0.70857	0.38627	-0.007
Mof_C 	C 	0.09282	0.86533	0.42658	-0.057
Mof_H 	H 	0.11633	0.87117	0.40597	0.069
Mof_C 	C 	0.14465	0.97572	0.42733	-0.046
Mof_H 	H 	0.11553	0.96857	0.41347	0.059
Mof_N 	N 	0.2704	0.12089	0.41589	-0.163
Mof_N 	N 	0.87636	0.67503	0.3409	-0.157
Mof_N 	N 	0.83199	0.66871	0.18887	-0.079
Mof_N 	N 	0.14575	0.94279	0.44953	-0.073
Mof_N 	N 	0.1009	0.89842	0.45356	-0.07
Mof_N 	N 	0.95484	0.72902	0.42706	-0.166
Mof_C 	C 	0.91415	0.1872	0.43822	0.103
Mof_H 	H 	0.90593	0.20877	0.45157	-0.003
Mof_C 	C 	0.96216	0.19571	0.44239	-0.179
Mof_H 	H 	0.98563	0.22247	0.45787	0.103
Mof_C 	C 	0.97439	0.1635	0.42303	0.129
Mof_C 	C 	0.93884	0.12526	0.39887	-0.179
Mof_H 	H 	0.94643	0.10377	0.38467	0.094
Mof_C 	C 	0.89171	0.1194	0.39612	0.1
Mof_H 	H 	0.86793	0.09357	0.37987	0.001
Mof_C 	C 	0.31448	0.15925	0.32014	0.09
Mof_H 	H 	0.30673	0.13097	0.33567	0.003
Mof_C 	C 	0.31477	0.15641	0.27682	-0.161
Mof_H 	H 	0.30783	0.12697	0.26367	0.094
Mof_C 	C 	0.32567	0.19857	0.25316	0.112
Mof_C 	C 	0.33505	0.24148	0.27421	-0.165
Mof_H 	H 	0.34153	0.26987	0.25937	0.087
Mof_C 	C 	0.33458	0.24123	0.31793	0.093
Mof_H 	H 	0.34133	0.27027	0.33187	0
Mof_C 	C 	0.32905	0.19866	0.2072	-0.047
Mof_H 	H 	0.32953	0.22417	0.19157	0.056
Mof_C 	C 	0.23324	0.19603	0.45277	0.091
Mof_H 	H 	0.23733	0.17447	0.47037	0.013
Mof_C 	C 	0.18888	0.19599	0.45421	-0.172
Mof_H 	H 	0.16363	0.17477	0.47227	0.106
Mof_C 	C 	0.18273	0.22848	0.42802	0.125
Mof_C 	C 	0.22189	0.2603	0.40292	-0.183
Mof_H 	H 	0.21923	0.28317	0.38587	0.098
Mof_C 	C 	0.26517	0.25808	0.40326	0.101
Mof_H 	H 	0.29143	0.27997	0.38627	-0.004
Mof_C 	C 	0.13467	0.2275	0.42658	-0.053
Mof_H 	H 	0.12883	0.24517	0.40597	0.068
Mof_C 	C 	0.02428	0.16894	0.42733	-0.058
Mof_H 	H 	0.03143	0.14697	0.41347	0.061
Mof_N 	N 	0.87911	0.14952	0.41589	-0.164
Mof_N 	N 	0.32497	0.20134	0.3409	-0.157
Mof_N 	N 	0.33129	0.16329	0.18887	-0.079
Mof_N 	N 	0.05721	0.20297	0.44953	-0.072
Mof_N 	N 	0.10158	0.20249	0.45356	-0.071
Mof_N 	N 	0.27098	0.22583	0.42706	-0.164
Mof_C 	C 	0.8128	0.72696	0.43822	0.101
Mof_H 	H 	0.79123	0.69717	0.45157	-0.002
Mof_C 	C 	0.80429	0.76646	0.44239	-0.176
Mof_H 	H 	0.77753	0.76317	0.45787	0.101
Mof_C 	C 	0.8365	0.8109	0.42303	0.123
Mof_C 	C 	0.87474	0.81359	0.39887	-0.176
Mof_H 	H 	0.89623	0.84267	0.38467	0.093
Mof_C 	C 	0.8806	0.77232	0.39612	0.098
Mof_H 	H 	0.90643	0.77437	0.37987	0.002
Mof_C 	C 	0.84075	0.15524	0.32014	0.09
Mof_H 	H 	0.86903	0.17577	0.33567	0.003
Mof_C 	C 	0.84359	0.15837	0.27682	-0.161
Mof_H 	H 	0.87303	0.18087	0.26367	0.094
Mof_C 	C 	0.80143	0.12711	0.25316	0.112
Mof_C 	C 	0.75852	0.09358	0.27421	-0.165
Mof_H 	H 	0.73013	0.07167	0.25937	0.086
Mof_C 	C 	0.75877	0.09336	0.31793	0.093
Mof_H 	H 	0.72973	0.07107	0.33187	-0
Mof_C 	C 	0.80134	0.1304	0.2072	-0.047
Mof_H 	H 	0.77583	0.10537	0.19157	0.055
Mof_C 	C 	0.80397	0.03722	0.45277	0.082
Mof_H 	H 	0.82553	0.06287	0.47037	0.015
Mof_C 	C 	0.80401	0.9929	0.45421	-0.161
Mof_H 	H 	0.82523	0.98887	0.47227	0.104
Mof_C 	C 	0.77152	0.95426	0.42802	0.119
Mof_C 	C 	0.7397	0.9616	0.40292	-0.172
Mof_H 	H 	0.71683	0.93607	0.38587	0.095
Mof_C 	C 	0.74192	0.0071	0.40326	0.092
Mof_H 	H 	0.72003	0.01147	0.38627	-0.002
Mof_C 	C 	0.7725	0.90718	0.42658	-0.05
Mof_H 	H 	0.75483	0.88367	0.40597	0.067
Mof_C 	C 	0.83106	0.85535	0.42733	-0.052
Mof_H 	H 	0.85303	0.88447	0.41347	0.061
Mof_N 	N 	0.85048	0.7296	0.41589	-0.164
Mof_N 	N 	0.79866	0.12364	0.3409	-0.157
Mof_N 	N 	0.83671	0.16801	0.18887	-0.079
Mof_N 	N 	0.79703	0.85425	0.44953	-0.072
Mof_N 	N 	0.79751	0.8991	0.45356	-0.071
Mof_N 	N 	0.77417	0.04516	0.42706	-0.161
Mof_C 	C 	0.75251	0.60638	0.39512	0.1
Mof_H 	H 	0.76073	0.63617	0.38177	-0.002
Mof_C 	C 	0.7045	0.56688	0.39095	-0.176
Mof_H 	H 	0.68103	0.57017	0.37547	0.101
Mof_C 	C 	0.69227	0.52244	0.41031	0.123
Mof_C 	C 	0.72782	0.51975	0.43447	-0.176
Mof_H 	H 	0.72023	0.49067	0.44867	0.092
Mof_C 	C 	0.77495	0.56102	0.43722	0.098
Mof_H 	H 	0.79873	0.55897	0.45347	0.001
Mof_C 	C 	0.35218	0.1781	0.5132	0.09
Mof_H 	H 	0.35993	0.15757	0.49767	0.003
Mof_C 	C 	0.35189	0.17497	0.55652	-0.161
Mof_H 	H 	0.35883	0.15247	0.56967	0.094
Mof_C 	C 	0.34099	0.20623	0.58018	0.112
Mof_C 	C 	0.33161	0.23976	0.55913	-0.165
Mof_H 	H 	0.32513	0.26167	0.57397	0.087
Mof_C 	C 	0.33208	0.23998	0.51541	0.093
Mof_H 	H 	0.32533	0.26227	0.50147	0
Mof_C 	C 	0.33761	0.20294	0.62614	-0.047
Mof_H 	H 	0.33713	0.22797	0.64177	0.056
Mof_C 	C 	0.43342	0.29612	0.38057	0.091
Mof_H 	H 	0.42933	0.27047	0.36297	0.013
Mof_C 	C 	0.47778	0.34044	0.37913	-0.172
Mof_H 	H 	0.50303	0.34447	0.36107	0.107
Mof_C 	C 	0.48393	0.37908	0.40532	0.125
Mof_C 	C 	0.44477	0.37174	0.43042	-0.183
Mof_H 	H 	0.44743	0.39727	0.44747	0.098
Mof_C 	C 	0.40149	0.32624	0.43008	0.101
Mof_H 	H 	0.37523	0.32187	0.44707	-0.004
Mof_C 	C 	0.53199	0.42616	0.40676	-0.053
Mof_H 	H 	0.53783	0.44967	0.42737	0.068
Mof_C 	C 	0.64238	0.47799	0.40601	-0.052
Mof_H 	H 	0.63523	0.44887	0.41987	0.06
Mof_N 	N 	0.78755	0.60374	0.41745	-0.164
Mof_N 	N 	0.34169	0.2097	0.49244	-0.157
Mof_N 	N 	0.33537	0.16533	0.64447	-0.079
Mof_N 	N 	0.60945	0.47909	0.38381	-0.073
Mof_N 	N 	0.56508	0.43424	0.37978	-0.071
Mof_N 	N 	0.39568	0.28818	0.40628	-0.164
Mof_C 	C 	0.85386	0.24749	0.39512	0.101
Mof_H 	H 	0.87543	0.23927	0.38177	-0.002
Mof_C 	C 	0.86237	0.2955	0.39095	-0.176
Mof_H 	H 	0.88913	0.31897	0.37547	0.101
Mof_C 	C 	0.83016	0.30773	0.41031	0.123
Mof_C 	C 	0.79192	0.27218	0.43447	-0.176
Mof_H 	H 	0.77043	0.27977	0.44867	0.092
Mof_C 	C 	0.78606	0.22505	0.43722	0.098
Mof_H 	H 	0.76023	0.20127	0.45347	0.001
Mof_C 	C 	0.82591	0.64782	0.5132	0.09
Mof_H 	H 	0.79763	0.64007	0.49767	0.003
Mof_C 	C 	0.82307	0.64811	0.55652	-0.161
Mof_H 	H 	0.79363	0.64117	0.56967	0.094
Mof_C 	C 	0.86523	0.65901	0.58018	0.112
Mof_C 	C 	0.90814	0.66839	0.55913	-0.165
Mof_H 	H 	0.93653	0.67487	0.57397	0.087
Mof_C 	C 	0.90789	0.66792	0.51541	0.093
Mof_H 	H 	0.93693	0.67467	0.50147	0
Mof_C 	C 	0.86532	0.66239	0.62614	-0.047
Mof_H 	H 	0.89083	0.66287	0.64177	0.056
Mof_C 	C 	0.86269	0.56658	0.38057	0.091
Mof_H 	H 	0.84113	0.57067	0.36297	0.012
Mof_C 	C 	0.86265	0.52222	0.37913	-0.172
Mof_H 	H 	0.84143	0.49697	0.36107	0.107
Mof_C 	C 	0.89514	0.51607	0.40532	0.126
Mof_C 	C 	0.92696	0.55523	0.43042	-0.183
Mof_H 	H 	0.94983	0.55257	0.44747	0.099
Mof_C 	C 	0.92474	0.59851	0.43008	0.101
Mof_H 	H 	0.94663	0.62477	0.44707	-0.004
Mof_C 	C 	0.89416	0.46801	0.40676	-0.053
Mof_H 	H 	0.91183	0.46217	0.42737	0.068
Mof_C 	C 	0.8356	0.35762	0.40601	-0.052
Mof_H 	H 	0.81363	0.36477	0.41987	0.06
Mof_N 	N 	0.81618	0.21245	0.41745	-0.164
Mof_N 	N 	0.868	0.65831	0.49244	-0.157
Mof_N 	N 	0.82995	0.66463	0.64447	-0.079
Mof_N 	N 	0.86963	0.39055	0.38381	-0.072
Mof_N 	N 	0.86915	0.43492	0.37978	-0.07
Mof_N 	N 	0.89249	0.60432	0.40628	-0.164
Mof_C 	C 	0.39362	0.14614	0.39512	0.1
Mof_H 	H 	0.36383	0.12457	0.38177	-0.003
Mof_C 	C 	0.43312	0.13763	0.39095	-0.176
Mof_H 	H 	0.42983	0.11087	0.37547	0.101
Mof_C 	C 	0.47756	0.16984	0.41031	0.123
Mof_C 	C 	0.48025	0.20808	0.43447	-0.176
Mof_H 	H 	0.50933	0.22957	0.44867	0.092
Mof_C 	C 	0.43898	0.21394	0.43722	0.098
Mof_H 	H 	0.44103	0.23977	0.45347	0.001
Mof_C 	C 	0.8219	0.17409	0.5132	0.09
Mof_H 	H 	0.84243	0.20237	0.49767	0.003
Mof_C 	C 	0.82503	0.17693	0.55652	-0.161
Mof_H 	H 	0.84753	0.20637	0.56967	0.094
Mof_C 	C 	0.79377	0.13477	0.58018	0.112
Mof_C 	C 	0.76024	0.09186	0.55913	-0.165
Mof_H 	H 	0.73833	0.06347	0.57397	0.086
Mof_C 	C 	0.76002	0.09211	0.51541	0.093
Mof_H 	H 	0.73773	0.06307	0.50147	-0
Mof_C 	C 	0.79706	0.13468	0.62614	-0.047
Mof_H 	H 	0.77203	0.10917	0.64177	0.055
Mof_C 	C 	0.70388	0.13731	0.38057	0.091
Mof_H 	H 	0.72953	0.15887	0.36297	0.013
Mof_C 	C 	0.65956	0.13735	0.37913	-0.171
Mof_H 	H 	0.65553	0.15857	0.36107	0.106
Mof_C 	C 	0.62092	0.10486	0.40532	0.125
Mof_C 	C 	0.62826	0.07304	0.43042	-0.183
Mof_H 	H 	0.60273	0.05017	0.44747	0.097
Mof_C 	C 	0.67376	0.07526	0.43008	0.1
Mof_H 	H 	0.67813	0.05337	0.44707	-0.005
Mof_C 	C 	0.57384	0.10584	0.40676	-0.053
Mof_H 	H 	0.55033	0.08817	0.42737	0.067
Mof_C 	C 	0.52201	0.1644	0.40601	-0.052
Mof_H 	H 	0.55113	0.18637	0.41987	0.06
Mof_N 	N 	0.39626	0.18382	0.41745	-0.164
Mof_N 	N 	0.7903	0.132	0.49244	-0.157
Mof_N 	N 	0.83467	0.17005	0.64447	-0.079
Mof_N 	N 	0.52091	0.13037	0.38381	-0.073
Mof_N 	N 	0.56576	0.13085	0.37978	-0.071
Mof_N 	N 	0.71182	0.10751	0.40628	-0.164
Mof_Cd	Cd	0.7945	0.66667	0.91667	0.372
Mof_Cd	Cd	0.33333	0.12783	0.91667	0.371
Mof_Cd	Cd	0.87217	0.2055	0.91667	0.372
Mof_Cd	Cd	0.87217	0.66667	0.41667	0.372
Mof_Cd	Cd	0.33333	0.2055	0.41667	0.372
Mof_Cd	Cd	0.7945	0.12783	0.41667	0.371
_end
