data_functionalizedCrystal
_audit_creation_method	'EQeq! by Chris Wilmer'
_symmetry_space_group_name_H-M	'P1'
_symmetry_Int_Tables_number	1
_symmetry_cell_setting	triclinic
loop_
_symmetry_equiv_pos_as_xyz
  x,y,z
_cell_length_a	5.501
_cell_length_b	22.297
_cell_length_c	20.799
_cell_angle_alpha	97.543
_cell_angle_beta	90
_cell_angle_gamma	90
loop_
_atom_site_label
_atom_site_type_symbol
_atom_site_fract_x
_atom_site_fract_y
_atom_site_fract_z
_atom_site_charge
Mof_Mn	Mn	0.3118	0.21215	0.29929	0.742
Mof_Mn	Mn	0.6882	0.78785	0.70071	0.742
Mof_Mn	Mn	0.8118	0.78785	0.20071	0.738
Mof_Mn	Mn	0.1882	0.21215	0.79929	0.738
Mof_H 	H 	0.4555	0.4922	0.3923	0.072
Mof_H 	H 	0.7261	0.9146	0.4725	0.061
Mof_H 	H 	0.2527	0.7038	0.1076	0.017
Mof_H 	H 	0.2626	0.5949	0.5711	0.044
Mof_H 	H 	0.02	0.115	0.6752	-0.002
Mof_H 	H 	0.7527	0.2962	0.3924	0.018
Mof_H 	H 	0.2026	0.2814	0.5422	0.065
Mof_H 	H 	0.5059	0.9778	0.9063	0.073
Mof_H 	H 	0.2724	0.471	0.8502	0.07
Mof_H 	H 	0.7724	0.529	0.6498	0.071
Mof_H 	H 	0.3598	0.3563	0.8307	-0.003
Mof_H 	H 	0.7276	0.529	0.1498	0.07
Mof_H 	H 	0.7974	0.7186	0.4578	0.065
Mof_H 	H 	0.4289	0.1775	0.0652	0.052
Mof_H 	H 	0.5658	0.3509	0.0958	0.056
Mof_H 	H 	0.52	0.885	0.8248	-0
Mof_H 	H 	0.563	0.6879	0.0106	0.046
Mof_H 	H 	0.164	0.7107	0.8512	0.077
Mof_H 	H 	0.2276	0.471	0.3502	0.071
Mof_H 	H 	0.8662	0.1428	0.5228	0.043
Mof_H 	H 	0.7626	0.4051	0.9289	0.043
Mof_H 	H 	0.2078	0.4267	0.007	0.059
Mof_H 	H 	0.5411	0.5432	0.9061	0.053
Mof_H 	H 	0.1338	0.8572	0.4772	0.043
Mof_H 	H 	0.7374	0.4051	0.4289	0.044
Mof_H 	H 	0.8702	0.0343	0.3826	0.073
Mof_H 	H 	0.7834	0.3237	0.0529	0.052
Mof_H 	H 	0.2974	0.2814	0.0422	0.063
Mof_H 	H 	0.2055	0.8177	0.8755	0.064
Mof_H 	H 	0.7166	0.3237	0.5529	0.052
Mof_H 	H 	0.3662	0.8572	0.9772	0.045
Mof_H 	H 	0.6338	0.1428	0.0228	0.045
Mof_H 	H 	0.454	0.9194	0.556	0.07
Mof_H 	H 	0.5711	0.8225	0.9348	0.052
Mof_H 	H 	0.9941	0.9778	0.4063	0.073
Mof_H 	H 	0.4342	0.6491	0.9042	0.056
Mof_H 	H 	0.1986	0.7712	0.5301	0.086
Mof_H 	H 	0.2166	0.6763	0.9471	0.052
Mof_H 	H 	0.0411	0.4568	0.5939	0.052
Mof_H 	H 	0.954	0.0806	0.944	0.071
Mof_H 	H 	0.6298	0.0343	0.8826	0.073
Mof_H 	H 	0.546	0.0806	0.444	0.07
Mof_H 	H 	0.4464	0.9981	0.3056	0.041
Mof_H 	H 	0.836	0.2893	0.1488	0.077
Mof_H 	H 	0.0912	0.9111	0.7217	0.016
Mof_H 	H 	0.5536	0.0019	0.6944	0.041
Mof_H 	H 	0.7945	0.1823	0.1245	0.064
Mof_H 	H 	0.4941	0.0222	0.0937	0.073
Mof_H 	H 	0.937	0.6879	0.5106	0.049
Mof_H 	H 	0.7473	0.2962	0.8924	0.017
Mof_H 	H 	0.9555	0.5078	0.1077	0.071
Mof_H 	H 	0.5912	0.0889	0.7783	0.018
Mof_H 	H 	0.336	0.7107	0.3512	0.075
Mof_H 	H 	0.0711	0.1775	0.5652	0.047
Mof_H 	H 	0.063	0.3121	0.4894	0.049
Mof_H 	H 	0.7026	0.7186	0.9578	0.063
Mof_H 	H 	0.98	0.885	0.3248	-0.002
Mof_H 	H 	0.3702	0.9657	0.1174	0.073
Mof_H 	H 	0.9289	0.8225	0.4348	0.047
Mof_H 	H 	0.2834	0.6763	0.4471	0.052
Mof_H 	H 	0.9088	0.0889	0.2783	0.016
Mof_H 	H 	0.6986	0.2288	0.9699	0.088
Mof_H 	H 	0.2473	0.7038	0.6076	0.018
Mof_H 	H 	0.0741	0.7877	0.9302	0.071
Mof_H 	H 	0.7055	0.1823	0.6245	0.067
Mof_H 	H 	0.6402	0.6437	0.1693	-0.003
Mof_H 	H 	0.9589	0.5432	0.4061	0.052
Mof_H 	H 	0.9259	0.2123	0.0698	0.071
Mof_H 	H 	0.8014	0.2288	0.4699	0.086
Mof_H 	H 	0.9464	0.0019	0.1944	0.037
Mof_H 	H 	0.4259	0.7877	0.4302	0.073
Mof_H 	H 	0.4088	0.9111	0.2217	0.018
Mof_H 	H 	0.0059	0.0222	0.5937	0.073
Mof_H 	H 	0.7739	0.9146	0.9725	0.062
Mof_H 	H 	0.2945	0.8177	0.3755	0.067
Mof_H 	H 	0.4589	0.4568	0.0939	0.053
Mof_H 	H 	0.2374	0.5949	0.0711	0.043
Mof_H 	H 	0.2739	0.0854	0.5275	0.061
Mof_H 	H 	0.0445	0.4922	0.8923	0.071
Mof_H 	H 	0.1402	0.3563	0.3307	-0.003
Mof_H 	H 	0.5741	0.2123	0.5698	0.073
Mof_H 	H 	0.7922	0.5733	0.993	0.059
Mof_H 	H 	0.664	0.2893	0.6488	0.075
Mof_H 	H 	0.2261	0.0854	0.0275	0.062
Mof_H 	H 	0.1298	0.9657	0.6174	0.073
Mof_H 	H 	0.48	0.115	0.1752	-0
Mof_H 	H 	0.0536	0.9981	0.8056	0.037
Mof_H 	H 	0.437	0.3121	0.9894	0.046
Mof_H 	H 	0.2922	0.4267	0.507	0.059
Mof_H 	H 	0.046	0.9194	0.056	0.071
Mof_H 	H 	0.7078	0.5733	0.493	0.059
Mof_H 	H 	0.0658	0.6491	0.4042	0.056
Mof_H 	H 	0.9342	0.3509	0.5958	0.056
Mof_H 	H 	0.8598	0.6437	0.6693	-0.003
Mof_H 	H 	0.3014	0.7712	0.0301	0.088
Mof_H 	H 	0.5445	0.5078	0.6077	0.072
Mof_C 	C 	0.2719	0.7909	0.40821	-0.101
Mof_C 	C 	0.4711	0.9526	0.5336	-0.082
Mof_C 	C 	0.5072	0.73284	0.82564	0.325
Mof_C 	C 	0.6357	0.8019	0.06148	0.329
Mof_C 	C 	0.3651	0.0504	0.5168	-0.068
Mof_C 	C 	0.47	0.0834	0.7469	0.019
Mof_C 	C 	0.4552	0.2855	0.02236	-0.066
Mof_C 	C 	0.4761	0.47427	0.0559	-0.078
Mof_C 	C 	0.1594	0.0062	0.6068	-0.133
Mof_C 	C 	0.1832	0.4651	0.8891	-0.125
Mof_C 	C 	0.9928	0.73284	0.32564	0.31
Mof_C 	C 	0.7719	0.2091	0.09179	-0.093
Mof_C 	C 	0.581	0.1824	0.04291	-0.047
Mof_C 	C 	0.3657	0.6864	0.926	-0.074
Mof_C 	C 	0.8468	0.5179	0.5523	0.061
Mof_C 	C 	0.3804	0.6177	0.5952	-0.023
Mof_C 	C 	0.1343	0.6864	0.426	-0.071
Mof_C 	C 	0.0416	0.77655	0.50929	-0.133
Mof_C 	C 	0.55	0.9649	0.2994	-0.02
Mof_C 	C 	0.6832	0.5349	0.6109	-0.127
Mof_C 	C 	0.6594	0.9938	0.8932	-0.133
Mof_C 	C 	0.7091	0.6455	0.6494	0.091
Mof_C 	C 	0.5448	0.7145	0.97764	-0.066
Mof_C 	C 	0.1196	0.6177	0.0952	-0.021
Mof_C 	C 	0.8406	0.9938	0.3932	-0.133
Mof_C 	C 	0.8741	0.3219	0.8846	0.022
Mof_C 	C 	0.8247	0.5437	0.4961	-0.073
Mof_C 	C 	0.7909	0.6455	0.1494	0.091
Mof_C 	C 	0.05	0.0351	0.2006	-0.015
Mof_C 	C 	0.2909	0.3545	0.3506	0.091
Mof_C 	C 	0.5289	0.0474	0.4664	-0.082
Mof_C 	C 	0.6196	0.3823	0.4048	-0.023
Mof_C 	C 	0.3337	0.0027	0.5515	0.067
Mof_C 	C 	0.45	0.0351	0.7006	-0.02
Mof_C 	C 	0.8804	0.3823	0.9048	-0.021
Mof_C 	C 	0.0072	0.26716	0.67436	0.31
Mof_C 	C 	0.97	0.9166	0.7531	0.019
Mof_C 	C 	0.9552	0.7145	0.47764	-0.076
Mof_C 	C 	0.1349	0.0504	0.0168	-0.07
Mof_C 	C 	0.2091	0.3545	0.8506	0.091
Mof_C 	C 	0.0448	0.2855	0.52236	-0.076
Mof_C 	C 	0.5416	0.22345	0.99071	-0.139
Mof_C 	C 	0.5239	0.52573	0.9441	-0.078
Mof_C 	C 	0.95	0.9649	0.7994	-0.015
Mof_C 	C 	0.1532	0.4821	0.4477	0.061
Mof_C 	C 	0.8168	0.5349	0.1109	-0.125
Mof_C 	C 	0.6343	0.3136	0.074	-0.074
Mof_C 	C 	0.8657	0.3136	0.574	-0.071
Mof_C 	C 	0.8056	0.2717	0.62461	-0.102
Mof_C 	C 	0.6944	0.2717	0.12461	-0.112
Mof_C 	C 	0.9761	0.52573	0.4441	-0.079
Mof_C 	C 	0.1944	0.7283	0.37539	-0.102
Mof_C 	C 	0.8337	0.9973	0.9485	0.067
Mof_C 	C 	0.6663	0.9973	0.4485	0.067
Mof_C 	C 	0.3741	0.6781	0.6154	0.018
Mof_C 	C 	0.0239	0.47427	0.5559	-0.079
Mof_C 	C 	0.03	0.0834	0.2469	0.019
Mof_C 	C 	0.4584	0.77655	0.00929	-0.139
Mof_C 	C 	0.9584	0.22345	0.49071	-0.133
Mof_C 	C 	0.8651	0.9496	0.9832	-0.07
Mof_C 	C 	0.4928	0.26716	0.17436	0.325
Mof_C 	C 	0.2281	0.7909	0.90821	-0.093
Mof_C 	C 	0.3406	0.0062	0.1068	-0.133
Mof_C 	C 	0.081	0.8176	0.45709	-0.037
Mof_C 	C 	0.8643	0.8019	0.56148	0.325
Mof_C 	C 	0.419	0.8176	0.95709	-0.047
Mof_C 	C 	0.9711	0.0474	0.9664	-0.081
Mof_C 	C 	0.3417	0.0977	0.1907	0.087
Mof_C 	C 	0.8417	0.9023	0.3093	0.087
Mof_C 	C 	0.919	0.1824	0.54291	-0.037
Mof_C 	C 	0.1259	0.6781	0.1154	0.022
Mof_C 	C 	0.3643	0.1981	0.93852	0.329
Mof_C 	C 	0.6259	0.3219	0.3846	0.018
Mof_C 	C 	0.1753	0.4563	0.5039	-0.073
Mof_C 	C 	0.7281	0.2091	0.59179	-0.101
Mof_C 	C 	0.0289	0.9526	0.0336	-0.081
Mof_C 	C 	0.3247	0.4563	0.0039	-0.072
Mof_C 	C 	0.1663	0.0027	0.0515	0.067
Mof_C 	C 	0.1357	0.1981	0.43852	0.325
Mof_C 	C 	0.6753	0.5437	0.9961	-0.072
Mof_C 	C 	0.3168	0.4651	0.3891	-0.127
Mof_C 	C 	0.6532	0.5179	0.0523	0.059
Mof_C 	C 	0.3056	0.7283	0.87539	-0.112
Mof_C 	C 	0.1583	0.0977	0.6907	0.087
Mof_C 	C 	0.53	0.9166	0.2531	0.019
Mof_C 	C 	0.3468	0.4821	0.9477	0.059
Mof_C 	C 	0.6349	0.9496	0.4832	-0.068
Mof_C 	C 	0.6583	0.9023	0.8093	0.087
Mof_N 	N 	0.2489	0.04426	0.66456	-0.106
Mof_N 	N 	0.4172	0.30417	0.35083	-0.181
Mof_N 	N 	0.2152	0.12315	0.24049	-0.185
Mof_N 	N 	0.2511	0.04426	0.16456	-0.107
Mof_N 	N 	0.0828	0.30417	0.85083	-0.184
Mof_N 	N 	0.405	0.40269	0.3825	-0.106
Mof_N 	N 	0.595	0.59731	0.6175	-0.106
Mof_N 	N 	0.5828	0.69583	0.64917	-0.181
Mof_N 	N 	0.095	0.40269	0.8825	-0.107
Mof_N 	N 	0.9172	0.69583	0.14917	-0.184
Mof_N 	N 	0.7511	0.95574	0.33544	-0.106
Mof_N 	N 	0.7489	0.95574	0.83544	-0.107
Mof_N 	N 	0.905	0.59731	0.1175	-0.107
Mof_N 	N 	0.7152	0.87685	0.25951	-0.185
Mof_N 	N 	0.7848	0.87685	0.75951	-0.185
Mof_N 	N 	0.2848	0.12315	0.74049	-0.185
Mof_O 	O 	0.3397	0.18131	0.45509	-0.287
Mof_O 	O 	0.6603	0.81869	0.54491	-0.287
Mof_O 	O 	0.5717	0.80225	0.12041	-0.363
Mof_O 	O 	0.4642	0.76826	0.78331	-0.354
Mof_O 	O 	0.0717	0.19775	0.37959	-0.363
Mof_O 	O 	0.9642	0.23174	0.71669	-0.344
Mof_O 	O 	0.5358	0.23174	0.21669	-0.354
Mof_O 	O 	0.0358	0.76826	0.28331	-0.344
Mof_O 	O 	0.9283	0.80225	0.62041	-0.363
Mof_O 	O 	0.1976	0.29659	0.67296	-0.279
Mof_O 	O 	0.8024	0.70341	0.32704	-0.279
Mof_O 	O 	0.4283	0.19775	0.87959	-0.363
Mof_O 	O 	0.1603	0.18131	0.95509	-0.289
Mof_O 	O 	0.6976	0.70341	0.82704	-0.282
Mof_O 	O 	0.8397	0.81869	0.04491	-0.289
Mof_O 	O 	0.3024	0.29659	0.17296	-0.282
_end
