data_functionalizedCrystal
_audit_creation_method	'EQeq! by Chris Wilmer'
_symmetry_space_group_name_H-M	'P1'
_symmetry_Int_Tables_number	1
_symmetry_cell_setting	triclinic
loop_
_symmetry_equiv_pos_as_xyz
  x,y,z
_cell_length_a	17.16
_cell_length_b	16.787
_cell_length_c	10.072
_cell_angle_alpha	90
_cell_angle_beta	120.77
_cell_angle_gamma	90
loop_
_atom_site_label
_atom_site_type_symbol
_atom_site_fract_x
_atom_site_fract_y
_atom_site_fract_z
_atom_site_charge
Mof_Zn	Zn	0.25128	0.10237	0.84569	1.195
Mof_O 	O 	0.3486	0.18082	0.9263	-0.467
Mof_O 	O 	0.44581	0.08007	0.0178	-0.339
Mof_N 	N 	0.37681	0.98473	0.1882	-0.412
Mof_N 	N 	0.23753	0.04952	0.0096	-0.267
Mof_N 	N 	0.15335	0.05117	0.9941	-0.07
Mof_N 	N 	0.15435	0.00931	0.1012	-0.073
Mof_N 	N 	0.2393	0.9775	0.1923	-0.275
Mof_N 	N 	0.64487	0.32047	0.2335	-0.255
Mof_C 	C 	0.42843	0.15208	0.003	0.311
Mof_C 	C 	0.50412	0.21202	0.0813	-0.029
Mof_C 	C 	0.59316	0.18622	0.1688	-0.071
Mof_H 	H 	0.6067	0.1321	0.1775	0.057
Mof_C 	C 	0.66129	0.24168	0.2427	0.035
Mof_H 	H 	0.7209	0.224	0.3011	0.004
Mof_C 	C 	0.55875	0.34516	0.1471	0.048
Mof_H 	H 	0.5469	0.3996	0.1385	0.001
Mof_C 	C 	0.48692	0.29294	0.0702	-0.072
Mof_H 	H 	0.4279	0.312	0.0117	0.072
Mof_C 	C 	0.28854	0.00323	0.1325	0.218
Mof_H 	H 	0.404	0.974	0.273	0.23
Mof_H 	H 	0.404	0.01	0.144	0.165
Mof_Zn	Zn	0.75128	0.60237	0.84569	1.194
Mof_O 	O 	0.8486	0.68082	0.9263	-0.468
Mof_O 	O 	0.94581	0.58007	0.0178	-0.34
Mof_N 	N 	0.87681	0.48473	0.1882	-0.413
Mof_N 	N 	0.73753	0.54952	0.0096	-0.269
Mof_N 	N 	0.65335	0.55117	0.9941	-0.071
Mof_N 	N 	0.65435	0.50931	0.1012	-0.073
Mof_N 	N 	0.7393	0.4775	0.1923	-0.275
Mof_N 	N 	0.14487	0.82047	0.2335	-0.256
Mof_C 	C 	0.92843	0.65208	0.003	0.31
Mof_C 	C 	0.00412	0.71202	0.0813	-0.028
Mof_C 	C 	0.09316	0.68622	0.1688	-0.071
Mof_H 	H 	0.1067	0.6321	0.1775	0.057
Mof_C 	C 	0.16129	0.74168	0.2427	0.035
Mof_H 	H 	0.2209	0.724	0.3011	0.003
Mof_C 	C 	0.05875	0.84516	0.1471	0.049
Mof_H 	H 	0.0469	0.8996	0.1385	0.001
Mof_C 	C 	0.98692	0.79294	0.0702	-0.073
Mof_H 	H 	0.9279	0.812	0.0117	0.072
Mof_C 	C 	0.78854	0.50323	0.1325	0.218
Mof_H 	H 	0.904	0.474	0.273	0.23
Mof_H 	H 	0.904	0.51	0.144	0.165
Mof_Zn	Zn	0.25128	0.89763	0.34569	1.194
Mof_O 	O 	0.3486	0.81918	0.4263	-0.468
Mof_O 	O 	0.44581	0.91993	0.5178	-0.34
Mof_N 	N 	0.37681	0.01527	0.6882	-0.413
Mof_N 	N 	0.23753	0.95048	0.5096	-0.269
Mof_N 	N 	0.15335	0.94883	0.4941	-0.071
Mof_N 	N 	0.15435	0.99069	0.6012	-0.073
Mof_N 	N 	0.2393	0.0225	0.6923	-0.275
Mof_N 	N 	0.64487	0.67953	0.7335	-0.255
Mof_C 	C 	0.42843	0.84792	0.503	0.311
Mof_C 	C 	0.50412	0.78798	0.5813	-0.029
Mof_C 	C 	0.59316	0.81378	0.6688	-0.071
Mof_H 	H 	0.6067	0.8679	0.6775	0.057
Mof_C 	C 	0.66129	0.75832	0.7427	0.035
Mof_H 	H 	0.7209	0.776	0.8011	0.004
Mof_C 	C 	0.55875	0.65484	0.6471	0.048
Mof_H 	H 	0.5469	0.6004	0.6385	0.001
Mof_C 	C 	0.48692	0.70706	0.5702	-0.072
Mof_H 	H 	0.4279	0.688	0.5117	0.072
Mof_C 	C 	0.28854	0.99677	0.6325	0.218
Mof_H 	H 	0.404	0.026	0.773	0.23
Mof_H 	H 	0.404	0.99	0.644	0.165
Mof_Zn	Zn	0.75128	0.39763	0.34569	1.194
Mof_O 	O 	0.8486	0.31918	0.4263	-0.468
Mof_O 	O 	0.94581	0.41993	0.5178	-0.34
Mof_N 	N 	0.87681	0.51527	0.6882	-0.413
Mof_N 	N 	0.73753	0.45048	0.5096	-0.269
Mof_N 	N 	0.65335	0.44883	0.4941	-0.071
Mof_N 	N 	0.65435	0.49069	0.6012	-0.073
Mof_N 	N 	0.7393	0.5225	0.6923	-0.275
Mof_N 	N 	0.14487	0.17953	0.7335	-0.255
Mof_C 	C 	0.92843	0.34792	0.503	0.311
Mof_C 	C 	0.00412	0.28798	0.5813	-0.029
Mof_C 	C 	0.09316	0.31378	0.6688	-0.07
Mof_H 	H 	0.1067	0.3679	0.6775	0.057
Mof_C 	C 	0.16129	0.25832	0.7427	0.035
Mof_H 	H 	0.2209	0.276	0.8011	0.004
Mof_C 	C 	0.05875	0.15484	0.6471	0.048
Mof_H 	H 	0.0469	0.1004	0.6385	0.001
Mof_C 	C 	0.98692	0.20706	0.5702	-0.071
Mof_H 	H 	0.9279	0.188	0.5117	0.072
Mof_C 	C 	0.78854	0.49677	0.6325	0.218
Mof_H 	H 	0.904	0.526	0.773	0.23
Mof_H 	H 	0.904	0.49	0.644	0.165
Mof_Zn	Zn	0.74872	0.10237	0.65431	1.194
Mof_O 	O 	0.6514	0.18082	0.5737	-0.468
Mof_O 	O 	0.55419	0.08007	0.4822	-0.34
Mof_N 	N 	0.62319	0.98473	0.3118	-0.413
Mof_N 	N 	0.76247	0.04952	0.4904	-0.269
Mof_N 	N 	0.84665	0.05117	0.5059	-0.071
Mof_N 	N 	0.84565	0.00931	0.3988	-0.073
Mof_N 	N 	0.7607	0.9775	0.3077	-0.275
Mof_N 	N 	0.35513	0.32047	0.2665	-0.255
Mof_C 	C 	0.57157	0.15208	0.497	0.311
Mof_C 	C 	0.49588	0.21202	0.4187	-0.029
Mof_C 	C 	0.40684	0.18622	0.3312	-0.071
Mof_H 	H 	0.3933	0.1321	0.3225	0.057
Mof_C 	C 	0.33871	0.24168	0.2573	0.035
Mof_H 	H 	0.2791	0.224	0.1989	0.004
Mof_C 	C 	0.44125	0.34516	0.3529	0.048
Mof_H 	H 	0.4531	0.3996	0.3615	0.001
Mof_C 	C 	0.51308	0.29294	0.4298	-0.072
Mof_H 	H 	0.5721	0.312	0.4883	0.072
Mof_C 	C 	0.71146	0.00323	0.3675	0.218
Mof_H 	H 	0.596	0.974	0.227	0.23
Mof_H 	H 	0.596	0.01	0.356	0.165
Mof_Zn	Zn	0.24872	0.60237	0.65431	1.194
Mof_O 	O 	0.1514	0.68082	0.5737	-0.468
Mof_O 	O 	0.05419	0.58007	0.4822	-0.34
Mof_N 	N 	0.12319	0.48473	0.3118	-0.413
Mof_N 	N 	0.26247	0.54952	0.4904	-0.269
Mof_N 	N 	0.34665	0.55117	0.5059	-0.071
Mof_N 	N 	0.34565	0.50931	0.3988	-0.073
Mof_N 	N 	0.2607	0.4775	0.3077	-0.275
Mof_N 	N 	0.85513	0.82047	0.2665	-0.255
Mof_C 	C 	0.07157	0.65208	0.497	0.311
Mof_C 	C 	0.99588	0.71202	0.4187	-0.029
Mof_C 	C 	0.90684	0.68622	0.3312	-0.07
Mof_H 	H 	0.8933	0.6321	0.3225	0.057
Mof_C 	C 	0.83871	0.74168	0.2573	0.035
Mof_H 	H 	0.7791	0.724	0.1989	0.004
Mof_C 	C 	0.94125	0.84516	0.3529	0.048
Mof_H 	H 	0.9531	0.8996	0.3615	0.001
Mof_C 	C 	0.01308	0.79294	0.4298	-0.071
Mof_H 	H 	0.0721	0.812	0.4883	0.072
Mof_C 	C 	0.21146	0.50323	0.3675	0.218
Mof_H 	H 	0.096	0.474	0.227	0.23
Mof_H 	H 	0.096	0.51	0.356	0.165
Mof_Zn	Zn	0.74872	0.89763	0.15431	1.194
Mof_O 	O 	0.6514	0.81918	0.0737	-0.468
Mof_O 	O 	0.55419	0.91993	0.9822	-0.34
Mof_N 	N 	0.62319	0.01527	0.8118	-0.413
Mof_N 	N 	0.76247	0.95048	0.9904	-0.268
Mof_N 	N 	0.84665	0.94883	0.0059	-0.071
Mof_N 	N 	0.84565	0.99069	0.8988	-0.073
Mof_N 	N 	0.7607	0.0225	0.8077	-0.275
Mof_N 	N 	0.35513	0.67953	0.7665	-0.255
Mof_C 	C 	0.57157	0.84792	0.997	0.311
Mof_C 	C 	0.49588	0.78798	0.9187	-0.029
Mof_C 	C 	0.40684	0.81378	0.8312	-0.071
Mof_H 	H 	0.3933	0.8679	0.8225	0.057
Mof_C 	C 	0.33871	0.75832	0.7573	0.035
Mof_H 	H 	0.2791	0.776	0.6989	0.004
Mof_C 	C 	0.44125	0.65484	0.8529	0.048
Mof_H 	H 	0.4531	0.6004	0.8615	0.001
Mof_C 	C 	0.51308	0.70706	0.9298	-0.072
Mof_H 	H 	0.5721	0.688	0.9883	0.072
Mof_C 	C 	0.71146	0.99677	0.8675	0.218
Mof_H 	H 	0.596	0.026	0.727	0.23
Mof_H 	H 	0.596	0.99	0.856	0.165
Mof_Zn	Zn	0.24872	0.39763	0.15431	1.194
Mof_O 	O 	0.1514	0.31918	0.0737	-0.468
Mof_O 	O 	0.05419	0.41993	0.9822	-0.34
Mof_N 	N 	0.12319	0.51527	0.8118	-0.413
Mof_N 	N 	0.26247	0.45048	0.9904	-0.269
Mof_N 	N 	0.34665	0.44883	0.0059	-0.071
Mof_N 	N 	0.34565	0.49069	0.8988	-0.073
Mof_N 	N 	0.2607	0.5225	0.8077	-0.275
Mof_N 	N 	0.85513	0.17953	0.7665	-0.256
Mof_C 	C 	0.07157	0.34792	0.997	0.31
Mof_C 	C 	0.99588	0.28798	0.9187	-0.028
Mof_C 	C 	0.90684	0.31378	0.8312	-0.071
Mof_H 	H 	0.8933	0.3679	0.8225	0.057
Mof_C 	C 	0.83871	0.25832	0.7573	0.035
Mof_H 	H 	0.7791	0.276	0.6989	0.003
Mof_C 	C 	0.94125	0.15484	0.8529	0.049
Mof_H 	H 	0.9531	0.1004	0.8615	0.001
Mof_C 	C 	0.01308	0.20706	0.9298	-0.073
Mof_H 	H 	0.0721	0.188	0.9883	0.072
Mof_C 	C 	0.21146	0.49677	0.8675	0.218
Mof_H 	H 	0.096	0.526	0.727	0.23
Mof_H 	H 	0.096	0.49	0.856	0.165
_end
