data_functionalizedCrystal
_audit_creation_method	'EQeq! by Chris Wilmer'
_symmetry_space_group_name_H-M	'P1'
_symmetry_Int_Tables_number	1
_symmetry_cell_setting	triclinic
loop_
_symmetry_equiv_pos_as_xyz
  x,y,z
_cell_length_a	7.0275
_cell_length_b	18.139
_cell_length_c	24.704
_cell_angle_alpha	90
_cell_angle_beta	90
_cell_angle_gamma	99.86
loop_
_atom_site_label
_atom_site_type_symbol
_atom_site_fract_x
_atom_site_fract_y
_atom_site_fract_z
_atom_site_charge
Mof_Nd	Nd	0.27833	0.484	0.59913	2.138
Mof_Nd	Nd	0.72167	0.516	0.09913	2.145
Mof_Nd	Nd	0.72167	0.516	0.40087	2.142
Mof_Nd	Nd	0.27833	0.484	0.90087	2.135
Mof_Cu	Cu	0.12083	0.95596	0.50757	0.758
Mof_Cu	Cu	0.67291	0.93955	0.58061	0.784
Mof_Cu	Cu	0.74959	0.05335	0.68422	0.783
Mof_Cu	Cu	0.87917	0.04404	0.00757	0.791
Mof_Cu	Cu	0.32709	0.06045	0.08061	0.808
Mof_Cu	Cu	0.25041	0.94665	0.18422	0.759
Mof_Cu	Cu	0.87917	0.04404	0.49243	0.789
Mof_Cu	Cu	0.32709	0.06045	0.41939	0.808
Mof_Cu	Cu	0.25041	0.94665	0.31578	0.759
Mof_Cu	Cu	0.12083	0.95596	0.99243	0.753
Mof_Cu	Cu	0.67291	0.93955	0.91939	0.781
Mof_Cu	Cu	0.74959	0.05335	0.81578	0.783
Mof_Cu	Cu	0.72838	0.93434	0.75	0.746
Mof_Cu	Cu	0.27162	0.06566	0.25	0.765
Mof_H 	H 	0.0848	0.8582	0.6047	-0.01
Mof_H 	H 	0.1011	0.7362	0.6284	0.072
Mof_H 	H 	0.2022	0.6951	0.4722	0.049
Mof_H 	H 	0.1779	0.817	0.4523	-0.007
Mof_H 	H 	0.6053	0.7925	0.6374	0.012
Mof_H 	H 	0.5945	0.6676	0.6211	0.004
Mof_H 	H 	0.6945	0.718	0.4642	0.027
Mof_H 	H 	0.6928	0.8413	0.4846	-0.005
Mof_H 	H 	0.3928	0.1052	0.6533	0.036
Mof_H 	H 	0.2734	0.2136	0.6384	0.058
Mof_H 	H 	0.8063	0.3296	0.6618	0.021
Mof_H 	H 	0.9059	0.2181	0.6796	0.003
Mof_H 	H 	0.9152	0.1418	0.1047	0
Mof_H 	H 	0.8989	0.2638	0.1284	0.075
Mof_H 	H 	0.7978	0.3049	0.9722	0.053
Mof_H 	H 	0.8221	0.183	0.9523	-0.004
Mof_H 	H 	0.3947	0.2075	0.1374	0.008
Mof_H 	H 	0.4055	0.3324	0.1211	0.009
Mof_H 	H 	0.3055	0.282	0.9642	0.042
Mof_H 	H 	0.3072	0.1587	0.9846	-0.022
Mof_H 	H 	0.6072	0.8948	0.1533	0.022
Mof_H 	H 	0.7266	0.7864	0.1384	0.061
Mof_H 	H 	0.1937	0.6704	0.1618	0.021
Mof_H 	H 	0.0941	0.7819	0.1796	0.001
Mof_H 	H 	0.9152	0.1418	0.3953	0.002
Mof_H 	H 	0.8989	0.2638	0.3716	0.072
Mof_H 	H 	0.7978	0.3049	0.5278	0.05
Mof_H 	H 	0.8221	0.183	0.5477	-0.004
Mof_H 	H 	0.3947	0.2075	0.3626	0.012
Mof_H 	H 	0.4055	0.3324	0.3789	0.003
Mof_H 	H 	0.3055	0.282	0.5358	0.026
Mof_H 	H 	0.3072	0.1587	0.5154	-0
Mof_H 	H 	0.6072	0.8948	0.3467	0.022
Mof_H 	H 	0.7266	0.7864	0.3616	0.061
Mof_H 	H 	0.1937	0.6704	0.3382	0.02
Mof_H 	H 	0.0941	0.7819	0.3204	0.001
Mof_H 	H 	0.0848	0.8582	0.8953	-0.009
Mof_H 	H 	0.1011	0.7362	0.8716	0.069
Mof_H 	H 	0.2022	0.6951	0.0278	0.046
Mof_H 	H 	0.1779	0.817	0.0477	-0.007
Mof_H 	H 	0.6053	0.7925	0.8626	0.017
Mof_H 	H 	0.5945	0.6676	0.8789	-0.003
Mof_H 	H 	0.6945	0.718	0.0358	0.006
Mof_H 	H 	0.6928	0.8413	0.0154	0.023
Mof_H 	H 	0.3928	0.1052	0.8467	0.036
Mof_H 	H 	0.2734	0.2136	0.8616	0.057
Mof_H 	H 	0.8063	0.3296	0.8382	0.021
Mof_H 	H 	0.9059	0.2181	0.8204	0.003
Mof_H 	H 	0.1168	0.8942	0.75	0.02
Mof_H 	H 	0.2702	0.7917	0.75	0.066
Mof_H 	H 	0.7503	0.66	0.75	0.054
Mof_H 	H 	0.6142	0.7657	0.75	0.011
Mof_H 	H 	0.8832	0.1058	0.25	0.03
Mof_H 	H 	0.7298	0.2083	0.25	0.068
Mof_H 	H 	0.2497	0.34	0.25	0.058
Mof_H 	H 	0.3858	0.2343	0.25	0.007
Mof_C 	C 	0.1066	0.8246	0.57786	0.033
Mof_C 	C 	0.1176	0.7516	0.59257	-0.071
Mof_C 	C 	0.1537	0.7022	0.55264	-0.025
Mof_C 	C 	0.177	0.7273	0.49954	-0.062
Mof_C 	C 	0.1624	0.8003	0.4879	0.027
Mof_C 	C 	0.1711	0.6233	0.5677	0.294
Mof_C 	C 	0.622	0.7769	0.60213	-0.008
Mof_C 	C 	0.6168	0.7019	0.59285	0.024
Mof_C 	C 	0.6454	0.6783	0.54031	-0.153
Mof_C 	C 	0.6748	0.7319	0.49975	0.018
Mof_C 	C 	0.6748	0.8061	0.51234	-0.013
Mof_C 	C 	0.6429	0.5967	0.52766	0.52
Mof_C 	C 	0.4763	0.1508	0.6556	0.005
Mof_C 	C 	0.4037	0.2159	0.64634	-0.04
Mof_C 	C 	0.5248	0.2845	0.64888	-0.06
Mof_C 	C 	0.7186	0.285	0.6606	-0.045
Mof_C 	C 	0.7772	0.2172	0.6704	0.017
Mof_C 	C 	0.4476	0.3556	0.63809	0.315
Mof_C 	C 	0.8934	0.1754	0.07786	0.037
Mof_C 	C 	0.8824	0.2484	0.09257	-0.076
Mof_C 	C 	0.8463	0.2978	0.05264	-0.009
Mof_C 	C 	0.823	0.2727	0.99954	-0.077
Mof_C 	C 	0.8376	0.1997	0.9879	0.025
Mof_C 	C 	0.8289	0.3767	0.0677	0.29
Mof_C 	C 	0.378	0.2231	0.10213	0.003
Mof_C 	C 	0.3832	0.2981	0.09285	0.006
Mof_C 	C 	0.3546	0.3217	0.04031	-0.128
Mof_C 	C 	0.3252	0.2681	0.99975	-0.031
Mof_C 	C 	0.3252	0.1939	0.01234	0.033
Mof_C 	C 	0.3571	0.4033	0.02766	0.523
Mof_C 	C 	0.5237	0.8492	0.1556	0.007
Mof_C 	C 	0.5963	0.7841	0.14634	-0.044
Mof_C 	C 	0.4752	0.7155	0.14888	-0.057
Mof_C 	C 	0.2814	0.715	0.1606	-0.047
Mof_C 	C 	0.2228	0.7828	0.1704	0.018
Mof_C 	C 	0.5524	0.6444	0.13809	0.314
Mof_C 	C 	0.8934	0.1754	0.42214	0.032
Mof_C 	C 	0.8824	0.2484	0.40743	-0.068
Mof_C 	C 	0.8463	0.2978	0.44736	-0.025
Mof_C 	C 	0.823	0.2727	0.50046	-0.061
Mof_C 	C 	0.8376	0.1997	0.5121	0.029
Mof_C 	C 	0.8289	0.3767	0.4323	0.295
Mof_C 	C 	0.378	0.2231	0.39787	-0.009
Mof_C 	C 	0.3832	0.2981	0.40715	0.023
Mof_C 	C 	0.3546	0.3217	0.45969	-0.154
Mof_C 	C 	0.3252	0.2681	0.50025	0.018
Mof_C 	C 	0.3252	0.1939	0.48766	-0.014
Mof_C 	C 	0.3571	0.4033	0.47234	0.52
Mof_C 	C 	0.5237	0.8492	0.3444	0.006
Mof_C 	C 	0.5963	0.7841	0.35366	-0.044
Mof_C 	C 	0.4752	0.7155	0.35112	-0.058
Mof_C 	C 	0.2814	0.715	0.3394	-0.047
Mof_C 	C 	0.2228	0.7828	0.3296	0.018
Mof_C 	C 	0.5524	0.6444	0.36191	0.314
Mof_C 	C 	0.1066	0.8246	0.92214	0.028
Mof_C 	C 	0.1176	0.7516	0.90743	-0.064
Mof_C 	C 	0.1537	0.7022	0.94736	-0.041
Mof_C 	C 	0.177	0.7273	0.00046	-0.046
Mof_C 	C 	0.1624	0.8003	0.0121	0.032
Mof_C 	C 	0.1711	0.6233	0.9323	0.299
Mof_C 	C 	0.622	0.7769	0.89787	-0.024
Mof_C 	C 	0.6168	0.7019	0.90715	0.046
Mof_C 	C 	0.6454	0.6783	0.95969	-0.188
Mof_C 	C 	0.6748	0.7319	0.00025	0.083
Mof_C 	C 	0.6748	0.8061	0.98766	-0.075
Mof_C 	C 	0.6429	0.5967	0.97234	0.519
Mof_C 	C 	0.4763	0.1508	0.8444	0.004
Mof_C 	C 	0.4037	0.2159	0.85366	-0.04
Mof_C 	C 	0.5248	0.2845	0.85112	-0.06
Mof_C 	C 	0.7186	0.285	0.8394	-0.045
Mof_C 	C 	0.7772	0.2172	0.8296	0.017
Mof_C 	C 	0.4476	0.3556	0.86191	0.315
Mof_C 	C 	0.0422	0.8466	0.75	0.02
Mof_C 	C 	0.136	0.7848	0.75	-0.06
Mof_C 	C 	0.029	0.713	0.75	-0.03
Mof_C 	C 	0.8287	0.7068	0.75	-0.07
Mof_C 	C 	0.7482	0.7711	0.75	0.029
Mof_C 	C 	0.1304	0.6453	0.75	0.294
Mof_C 	C 	0.9578	0.1534	0.25	0.033
Mof_C 	C 	0.864	0.2152	0.25	-0.068
Mof_C 	C 	0.971	0.287	0.25	-0.015
Mof_C 	C 	0.1713	0.2932	0.25	-0.088
Mof_C 	C 	0.2518	0.2289	0.25	0.036
Mof_C 	C 	0.8696	0.3547	0.25	0.289
Mof_I 	I 	0.01026	0.02946	0.58993	-0.686
Mof_I 	I 	0.47629	0.94268	0.6702	-0.671
Mof_I 	I 	0.98974	0.97054	0.08993	-0.76
Mof_I 	I 	0.52371	0.05732	0.1702	-0.598
Mof_I 	I 	0.98974	0.97054	0.41007	-0.765
Mof_I 	I 	0.52371	0.05732	0.3298	-0.597
Mof_I 	I 	0.01026	0.02946	0.91007	-0.689
Mof_I 	I 	0.47629	0.94268	0.8298	-0.673
Mof_I 	I 	0.5	-8.13639e-33	0.5	-0.715
Mof_I 	I 	0.5	0	-0	-0.707
Mof_I 	I 	0.03092	0.05825	0.75	-0.558
Mof_I 	I 	0.96908	0.94175	0.25	-0.609
Mof_N 	N 	0.1261	0.84864	0.52681	-0.237
Mof_N 	N 	0.65	0.82927	0.56288	-0.221
Mof_N 	N 	0.6623	0.1507	0.6677	-0.229
Mof_N 	N 	0.8739	0.15136	0.02681	-0.227
Mof_N 	N 	0.35	0.17073	0.06288	-0.227
Mof_N 	N 	0.3377	0.8493	0.1677	-0.235
Mof_N 	N 	0.8739	0.15136	0.47319	-0.23
Mof_N 	N 	0.35	0.17073	0.43712	-0.217
Mof_N 	N 	0.3377	0.8493	0.3323	-0.235
Mof_N 	N 	0.1261	0.84864	0.97319	-0.242
Mof_N 	N 	0.65	0.82927	0.93712	-0.209
Mof_N 	N 	0.6623	0.1507	0.8323	-0.229
Mof_N 	N 	0.8503	0.8406	0.75	-0.237
Mof_N 	N 	0.1497	0.1594	0.25	-0.24
Mof_O 	O 	0.1995	0.57836	0.53035	-0.444
Mof_O 	O 	0.1665	0.60512	0.61676	-0.476
Mof_O 	O 	0.5785	0.54937	0.56285	-0.554
Mof_O 	O 	0.7103	0.58309	0.48226	-0.567
Mof_O 	O 	0.563	0.41606	0.63099	-0.442
Mof_O 	O 	0.2689	0.35246	0.63596	-0.476
Mof_O 	O 	0.8005	0.42164	0.03035	-0.438
Mof_O 	O 	0.8335	0.39488	0.11676	-0.474
Mof_O 	O 	0.4215	0.45063	0.06285	-0.555
Mof_O 	O 	0.2897	0.41691	0.98226	-0.575
Mof_O 	O 	0.437	0.58394	0.13099	-0.443
Mof_O 	O 	0.7311	0.64754	0.13596	-0.474
Mof_O 	O 	0.8005	0.42164	0.46965	-0.443
Mof_O 	O 	0.8335	0.39488	0.38324	-0.475
Mof_O 	O 	0.4215	0.45063	0.43715	-0.556
Mof_O 	O 	0.2897	0.41691	0.51774	-0.568
Mof_O 	O 	0.437	0.58394	0.36901	-0.443
Mof_O 	O 	0.7311	0.64754	0.36404	-0.475
Mof_O 	O 	0.1995	0.57836	0.96965	-0.45
Mof_O 	O 	0.1665	0.60512	0.88324	-0.477
Mof_O 	O 	0.5785	0.54937	0.93715	-0.555
Mof_O 	O 	0.7103	0.58309	0.01774	-0.559
Mof_O 	O 	0.563	0.41606	0.86901	-0.442
Mof_O 	O 	0.2689	0.35246	0.86404	-0.477
Mof_O 	O 	0.3104	0.6562	0.75	-0.286
Mof_O 	O 	0.0226	0.5817	0.75	-0.305
Mof_O 	O 	0.6896	0.3438	0.25	-0.286
Mof_O 	O 	0.9774	0.4183	0.25	-0.301
_end
