data_functionalizedCrystal
_audit_creation_method	'EQeq! by Chris Wilmer'
_symmetry_space_group_name_H-M	'P1'
_symmetry_Int_Tables_number	1
_symmetry_cell_setting	triclinic
loop_
_symmetry_equiv_pos_as_xyz
  x,y,z
_cell_length_a	8.6987
_cell_length_b	34.1408
_cell_length_c	8.6081
_cell_angle_alpha	90
_cell_angle_beta	107.578
_cell_angle_gamma	90
loop_
_atom_site_label
_atom_site_type_symbol
_atom_site_fract_x
_atom_site_fract_y
_atom_site_fract_z
_atom_site_charge
Mof_Cu	Cu	0.74864	0.20347	0.48079	0.95
Mof_Cu	Cu	0.73785	0.04553	0.4983	0.949
Mof_O 	O 	0.89567	0.1535	0.61059	-0.253
Mof_O 	O 	0.84818	0.08995	0.62829	-0.29
Mof_O 	O 	0.62075	0.1601	0.35884	-0.288
Mof_O 	O 	0.61147	0.09516	0.33753	-0.247
Mof_O 	O 	0.62359	0.20581	0.64185	-0.277
Mof_O 	O 	0.58664	0.2481	0.82434	-0.241
Mof_O 	O 	0.8741	0.24625	0.6153	-0.293
Mof_O 	O 	0.85791	0.28752	0.80976	-0.29
Mof_O 	O 	0.90589	0.0408	0.38507	-0.281
Mof_O 	O 	0.08851	0.00016	0.34265	-0.243
Mof_O 	O 	0.56971	0.04222	0.61269	-0.286
Mof_O 	O 	0.37848	3e-05	0.62778	-0.289
Mof_C 	C 	0.8178	0.12323	0.5622	0.228
Mof_C 	C 	0.6695	0.12595	0.4053	0.231
Mof_C 	C 	0.8104	0.25863	0.7193	0.239
Mof_C 	C 	0.66	0.23616	0.7323	0.212
Mof_C 	C 	0.9999	0.01136	0.4211	0.231
Mof_C 	C 	0.4849	0.01226	0.5695	0.224
Mof_Cu	Cu	0.25136	0.70347	0.01921	0.943
Mof_Cu	Cu	0.26215	0.54553	0.0017	0.947
Mof_O 	O 	0.10433	0.6535	0.88941	-0.248
Mof_O 	O 	0.15182	0.58995	0.87171	-0.288
Mof_O 	O 	0.37925	0.6601	0.14116	-0.29
Mof_O 	O 	0.38853	0.59516	0.16247	-0.248
Mof_O 	O 	0.37641	0.70581	0.85815	-0.269
Mof_O 	O 	0.41336	0.7481	0.67566	-0.235
Mof_O 	O 	0.1259	0.74625	0.8847	-0.283
Mof_O 	O 	0.14209	0.78752	0.69024	-0.285
Mof_O 	O 	0.09411	0.5408	0.11493	-0.284
Mof_O 	O 	0.91149	0.50016	0.15735	-0.239
Mof_O 	O 	0.43029	0.54222	0.88731	-0.283
Mof_O 	O 	0.62152	0.50003	0.87222	-0.289
Mof_C 	C 	0.1822	0.62323	0.9378	0.241
Mof_C 	C 	0.3305	0.62595	0.0947	0.219
Mof_C 	C 	0.1896	0.75863	0.7807	0.24
Mof_C 	C 	0.34	0.73616	0.7677	0.213
Mof_C 	C 	0.0001	0.51136	0.0789	0.228
Mof_C 	C 	0.5151	0.51226	0.9305	0.224
Mof_Cu	Cu	0.25136	0.79653	0.51921	0.95
Mof_Cu	Cu	0.26215	0.95447	0.5017	0.949
Mof_O 	O 	0.10433	0.8465	0.38941	-0.253
Mof_O 	O 	0.15182	0.91005	0.37171	-0.29
Mof_O 	O 	0.37925	0.8399	0.64116	-0.288
Mof_O 	O 	0.38853	0.90484	0.66247	-0.247
Mof_O 	O 	0.37641	0.79419	0.35815	-0.277
Mof_O 	O 	0.41336	0.7519	0.17566	-0.241
Mof_O 	O 	0.1259	0.75375	0.3847	-0.293
Mof_O 	O 	0.14209	0.71248	0.19024	-0.29
Mof_O 	O 	0.09411	0.9592	0.61493	-0.281
Mof_O 	O 	0.91149	0.99984	0.65735	-0.243
Mof_O 	O 	0.43029	0.95778	0.38731	-0.286
Mof_O 	O 	0.62152	0.99997	0.37222	-0.289
Mof_C 	C 	0.1822	0.87677	0.4378	0.228
Mof_C 	C 	0.3305	0.87405	0.5947	0.231
Mof_C 	C 	0.1896	0.74137	0.2807	0.239
Mof_C 	C 	0.34	0.76384	0.2677	0.212
Mof_C 	C 	0.0001	0.98864	0.5789	0.231
Mof_C 	C 	0.5151	0.98774	0.4305	0.224
Mof_Cu	Cu	0.74864	0.29653	0.98079	0.943
Mof_Cu	Cu	0.73785	0.45447	0.9983	0.947
Mof_O 	O 	0.89567	0.3465	0.11059	-0.248
Mof_O 	O 	0.84818	0.41005	0.12829	-0.288
Mof_O 	O 	0.62075	0.3399	0.85884	-0.29
Mof_O 	O 	0.61147	0.40484	0.83753	-0.248
Mof_O 	O 	0.62359	0.29419	0.14185	-0.269
Mof_O 	O 	0.58664	0.2519	0.32434	-0.235
Mof_O 	O 	0.8741	0.25375	0.1153	-0.283
Mof_O 	O 	0.85791	0.21248	0.30976	-0.285
Mof_O 	O 	0.90589	0.4592	0.88507	-0.284
Mof_O 	O 	0.08851	0.49984	0.84265	-0.239
Mof_O 	O 	0.56971	0.45778	0.11269	-0.283
Mof_O 	O 	0.37848	0.49997	0.12778	-0.289
Mof_C 	C 	0.8178	0.37677	0.0622	0.241
Mof_C 	C 	0.6695	0.37405	0.9053	0.219
Mof_C 	C 	0.8104	0.24137	0.2193	0.24
Mof_C 	C 	0.66	0.26384	0.2323	0.213
Mof_C 	C 	0.9999	0.48864	0.9211	0.228
Mof_C 	C 	0.4849	0.48774	0.0695	0.224
_end
