data_functionalizedCrystal
_audit_creation_method	'EQeq! by Chris Wilmer'
_symmetry_space_group_name_H-M	'P1'
_symmetry_Int_Tables_number	1
_symmetry_cell_setting	triclinic
loop_
_symmetry_equiv_pos_as_xyz
  x,y,z
_cell_length_a	29.881
_cell_length_b	29.881
_cell_length_c	29.881
_cell_angle_alpha	90
_cell_angle_beta	90
_cell_angle_gamma	90
loop_
_atom_site_label
_atom_site_type_symbol
_atom_site_fract_x
_atom_site_fract_y
_atom_site_fract_z
_atom_site_charge
Mof_Er	Er	0.24316	0.18123	0.14139	1.801
Mof_O 	O 	0.31556	0.20182	0.15652	-0.534
Mof_O 	O 	0.31787	0.24746	0.21811	-0.539
Mof_O 	O 	0.641	0.25869	0.8942	-0.566
Mof_O 	O 	0.69875	0.29889	0.91967	-0.543
Mof_O 	O 	0.2475	0.17303	0.22105	-0.855
Mof_H 	H 	0.2737	0.162	0.2298	0.273
Mof_N 	N 	0.60501	0.24403	0.18525	-0.16
Mof_C 	C 	0.33628	0.2267	0.18531	0.434
Mof_C 	C 	0.38596	0.23	0.17903	-0.181
Mof_C 	C 	0.40616	0.2133	0.14008	0.083
Mof_H 	H 	0.3889	0.1986	0.1188	-0.004
Mof_C 	C 	0.41357	0.2497	0.21113	0.084
Mof_H 	H 	0.4007	0.2593	0.2378	-0.005
Mof_C 	C 	0.45209	0.2185	0.13311	-0.156
Mof_H 	H 	0.4647	0.2078	0.1067	0.077
Mof_C 	C 	0.45908	0.2556	0.20522	-0.154
Mof_H 	H 	0.4762	0.2697	0.227	0.073
Mof_C 	C 	0.47953	0.2394	0.16457	0.086
Mof_C 	C 	0.56083	0.2413	0.19107	0.03
Mof_H 	H 	0.5503	0.2366	0.22	0.006
Mof_C 	C 	0.52887	0.24481	0.15652	-0.048
Mof_C 	C 	0.54512	0.25245	0.11384	-0.03
Mof_H 	H 	0.5252	0.2554	0.0901	0.034
Mof_C 	C 	0.5919	0.25587	0.10589	-0.054
Mof_C 	C 	0.6196	0.2505	0.14276	0.027
Mof_H 	H 	0.6503	0.2514	0.138	0.005
Mof_C 	C 	0.61008	0.2608	0.05978	0.105
Mof_C 	C 	0.58807	0.2435	0.02251	-0.175
Mof_H 	H 	0.5617	0.2274	0.0265	0.083
Mof_C 	C 	0.65052	0.2831	0.05184	-0.176
Mof_H 	H 	0.6665	0.2943	0.0761	0.083
Mof_C 	C 	0.60462	0.2498	0.9796	0.102
Mof_H 	H 	0.5887	0.2388	0.9552	-0.011
Mof_C 	C 	0.66757	0.2891	0.00923	0.109
Mof_H 	H 	0.6944	0.3044	0.0053	-0.014
Mof_C 	C 	0.64509	0.2725	0.97256	-0.203
Mof_C 	C 	0.66282	0.27707	0.92477	0.486
Mof_Er	Er	0.25684	0.81877	0.64139	1.801
Mof_O 	O 	0.18444	0.79818	0.65652	-0.534
Mof_O 	O 	0.18213	0.75254	0.71811	-0.539
Mof_O 	O 	0.859	0.74131	0.3942	-0.566
Mof_O 	O 	0.80125	0.70111	0.41967	-0.543
Mof_O 	O 	0.2525	0.82697	0.72105	-0.855
Mof_H 	H 	0.2263	0.838	0.7298	0.273
Mof_N 	N 	0.89499	0.75597	0.68525	-0.16
Mof_C 	C 	0.16372	0.7733	0.68531	0.434
Mof_C 	C 	0.11404	0.77	0.67903	-0.181
Mof_C 	C 	0.09384	0.7867	0.64008	0.083
Mof_H 	H 	0.1111	0.8014	0.6188	-0.004
Mof_C 	C 	0.08643	0.7503	0.71113	0.084
Mof_H 	H 	0.0993	0.7407	0.7378	-0.005
Mof_C 	C 	0.04791	0.7815	0.63311	-0.156
Mof_H 	H 	0.0353	0.7922	0.6067	0.077
Mof_C 	C 	0.04092	0.7444	0.70522	-0.154
Mof_H 	H 	0.0238	0.7303	0.727	0.073
Mof_C 	C 	0.02047	0.7606	0.66457	0.086
Mof_C 	C 	0.93917	0.7587	0.69107	0.03
Mof_H 	H 	0.9497	0.7634	0.72	0.006
Mof_C 	C 	0.97113	0.75519	0.65652	-0.048
Mof_C 	C 	0.95488	0.74755	0.61384	-0.03
Mof_H 	H 	0.9748	0.7446	0.5901	0.034
Mof_C 	C 	0.9081	0.74413	0.60589	-0.054
Mof_C 	C 	0.8804	0.7495	0.64276	0.027
Mof_H 	H 	0.8497	0.7486	0.638	0.005
Mof_C 	C 	0.88992	0.7392	0.55978	0.105
Mof_C 	C 	0.91193	0.7565	0.52251	-0.175
Mof_H 	H 	0.9383	0.7726	0.5265	0.083
Mof_C 	C 	0.84948	0.7169	0.55184	-0.176
Mof_H 	H 	0.8335	0.7057	0.5761	0.083
Mof_C 	C 	0.89538	0.7502	0.4796	0.102
Mof_H 	H 	0.9113	0.7612	0.4552	-0.011
Mof_C 	C 	0.83243	0.7109	0.50923	0.11
Mof_H 	H 	0.8056	0.6956	0.5053	-0.013
Mof_C 	C 	0.85491	0.7275	0.47256	-0.202
Mof_C 	C 	0.83718	0.72293	0.42477	0.487
Mof_Er	Er	0.75684	0.68123	0.35861	1.802
Mof_O 	O 	0.68444	0.70182	0.34348	-0.533
Mof_O 	O 	0.68213	0.74746	0.28189	-0.538
Mof_O 	O 	0.359	0.75869	0.6058	-0.565
Mof_O 	O 	0.30125	0.79889	0.58033	-0.542
Mof_O 	O 	0.7525	0.67303	0.27895	-0.854
Mof_H 	H 	0.7263	0.662	0.2702	0.274
Mof_N 	N 	0.39499	0.74403	0.31475	-0.159
Mof_C 	C 	0.66372	0.7267	0.31469	0.435
Mof_C 	C 	0.61404	0.73	0.32097	-0.18
Mof_C 	C 	0.59384	0.7133	0.35992	0.084
Mof_H 	H 	0.6111	0.6986	0.3812	-0.003
Mof_C 	C 	0.58643	0.7497	0.28887	0.085
Mof_H 	H 	0.5993	0.7593	0.2622	-0.004
Mof_C 	C 	0.54791	0.7185	0.36689	-0.155
Mof_H 	H 	0.5353	0.7078	0.3933	0.078
Mof_C 	C 	0.54092	0.7556	0.29478	-0.153
Mof_H 	H 	0.5238	0.7697	0.273	0.074
Mof_C 	C 	0.52047	0.7394	0.33543	0.087
Mof_C 	C 	0.43917	0.7413	0.30893	0.031
Mof_H 	H 	0.4497	0.7366	0.28	0.007
Mof_C 	C 	0.47113	0.74481	0.34348	-0.047
Mof_C 	C 	0.45488	0.75245	0.38616	-0.029
Mof_H 	H 	0.4748	0.7554	0.4099	0.035
Mof_C 	C 	0.4081	0.75587	0.39411	-0.053
Mof_C 	C 	0.3804	0.7505	0.35724	0.028
Mof_H 	H 	0.3497	0.7514	0.362	0.006
Mof_C 	C 	0.38992	0.7608	0.44022	0.106
Mof_C 	C 	0.41193	0.7435	0.47749	-0.174
Mof_H 	H 	0.4383	0.7274	0.4735	0.084
Mof_C 	C 	0.34948	0.7831	0.44816	-0.175
Mof_H 	H 	0.3335	0.7943	0.4239	0.084
Mof_C 	C 	0.39538	0.7498	0.5204	0.103
Mof_H 	H 	0.4113	0.7388	0.5448	-0.01
Mof_C 	C 	0.33243	0.7891	0.49077	0.11
Mof_H 	H 	0.3056	0.8044	0.4947	-0.013
Mof_C 	C 	0.35491	0.7725	0.52744	-0.202
Mof_C 	C 	0.33718	0.77707	0.57523	0.487
Mof_Er	Er	0.74316	0.31877	0.85861	1.802
Mof_O 	O 	0.81556	0.29818	0.84348	-0.533
Mof_O 	O 	0.81787	0.25254	0.78189	-0.538
Mof_O 	O 	0.141	0.24131	0.1058	-0.565
Mof_O 	O 	0.19875	0.20111	0.08033	-0.542
Mof_O 	O 	0.7475	0.32697	0.77895	-0.854
Mof_H 	H 	0.7737	0.338	0.7702	0.274
Mof_N 	N 	0.10501	0.25597	0.81475	-0.159
Mof_C 	C 	0.83628	0.2733	0.81469	0.435
Mof_C 	C 	0.88596	0.27	0.82097	-0.18
Mof_C 	C 	0.90616	0.2867	0.85992	0.084
Mof_H 	H 	0.8889	0.3014	0.8812	-0.003
Mof_C 	C 	0.91357	0.2503	0.78887	0.085
Mof_H 	H 	0.9007	0.2407	0.7622	-0.004
Mof_C 	C 	0.95209	0.2815	0.86689	-0.155
Mof_H 	H 	0.9647	0.2922	0.8933	0.078
Mof_C 	C 	0.95908	0.2444	0.79478	-0.153
Mof_H 	H 	0.9762	0.2303	0.773	0.074
Mof_C 	C 	0.97953	0.2606	0.83543	0.087
Mof_C 	C 	0.06083	0.2587	0.80893	0.031
Mof_H 	H 	0.0503	0.2634	0.78	0.007
Mof_C 	C 	0.02887	0.25519	0.84348	-0.047
Mof_C 	C 	0.04512	0.24755	0.88616	-0.029
Mof_H 	H 	0.0252	0.2446	0.9099	0.035
Mof_C 	C 	0.0919	0.24413	0.89411	-0.053
Mof_C 	C 	0.1196	0.2495	0.85724	0.028
Mof_H 	H 	0.1503	0.2486	0.862	0.006
Mof_C 	C 	0.11008	0.2392	0.94022	0.106
Mof_C 	C 	0.08807	0.2565	0.97749	-0.174
Mof_H 	H 	0.0617	0.2726	0.9735	0.084
Mof_C 	C 	0.15052	0.2169	0.94816	-0.175
Mof_H 	H 	0.1665	0.2057	0.9239	0.084
Mof_C 	C 	0.10462	0.2502	0.0204	0.103
Mof_H 	H 	0.0887	0.2612	0.0448	-0.01
Mof_C 	C 	0.16757	0.2109	0.99077	0.11
Mof_H 	H 	0.1944	0.1956	0.9947	-0.013
Mof_C 	C 	0.14509	0.2275	0.02744	-0.202
Mof_C 	C 	0.16282	0.22293	0.07523	0.487
Mof_Er	Er	0.14139	0.24316	0.18123	1.802
Mof_O 	O 	0.15652	0.31556	0.20182	-0.533
Mof_O 	O 	0.21811	0.31787	0.24746	-0.538
Mof_O 	O 	0.8942	0.641	0.25869	-0.565
Mof_O 	O 	0.91967	0.69875	0.29889	-0.542
Mof_O 	O 	0.22105	0.2475	0.17303	-0.854
Mof_H 	H 	0.2298	0.2737	0.162	0.274
Mof_N 	N 	0.18525	0.60501	0.24403	-0.159
Mof_C 	C 	0.18531	0.33628	0.2267	0.435
Mof_C 	C 	0.17903	0.38596	0.23	-0.18
Mof_C 	C 	0.14008	0.40616	0.2133	0.084
Mof_H 	H 	0.1188	0.3889	0.1986	-0.003
Mof_C 	C 	0.21113	0.41357	0.2497	0.085
Mof_H 	H 	0.2378	0.4007	0.2593	-0.004
Mof_C 	C 	0.13311	0.45209	0.2185	-0.155
Mof_H 	H 	0.1067	0.4647	0.2078	0.078
Mof_C 	C 	0.20522	0.45908	0.2556	-0.153
Mof_H 	H 	0.227	0.4762	0.2697	0.074
Mof_C 	C 	0.16457	0.47953	0.2394	0.087
Mof_C 	C 	0.19107	0.56083	0.2413	0.031
Mof_H 	H 	0.22	0.5503	0.2366	0.007
Mof_C 	C 	0.15652	0.52887	0.24481	-0.047
Mof_C 	C 	0.11384	0.54512	0.25245	-0.029
Mof_H 	H 	0.0901	0.5252	0.2554	0.035
Mof_C 	C 	0.10589	0.5919	0.25587	-0.053
Mof_C 	C 	0.14276	0.6196	0.2505	0.028
Mof_H 	H 	0.138	0.6503	0.2514	0.006
Mof_C 	C 	0.05978	0.61008	0.2608	0.106
Mof_C 	C 	0.02251	0.58807	0.2435	-0.174
Mof_H 	H 	0.0265	0.5617	0.2274	0.084
Mof_C 	C 	0.05184	0.65052	0.2831	-0.175
Mof_H 	H 	0.0761	0.6665	0.2943	0.084
Mof_C 	C 	0.9796	0.60462	0.2498	0.103
Mof_H 	H 	0.9552	0.5887	0.2388	-0.01
Mof_C 	C 	0.00923	0.66757	0.2891	0.11
Mof_H 	H 	0.0053	0.6944	0.3044	-0.013
Mof_C 	C 	0.97256	0.64509	0.2725	-0.202
Mof_C 	C 	0.92477	0.66282	0.27707	0.487
Mof_Er	Er	0.64139	0.25684	0.81877	1.802
Mof_O 	O 	0.65652	0.18444	0.79818	-0.533
Mof_O 	O 	0.71811	0.18213	0.75254	-0.538
Mof_O 	O 	0.3942	0.859	0.74131	-0.565
Mof_O 	O 	0.41967	0.80125	0.70111	-0.542
Mof_O 	O 	0.72105	0.2525	0.82697	-0.854
Mof_H 	H 	0.7298	0.2263	0.838	0.274
Mof_N 	N 	0.68525	0.89499	0.75597	-0.159
Mof_C 	C 	0.68531	0.16372	0.7733	0.435
Mof_C 	C 	0.67903	0.11404	0.77	-0.18
Mof_C 	C 	0.64008	0.09384	0.7867	0.084
Mof_H 	H 	0.6188	0.1111	0.8014	-0.003
Mof_C 	C 	0.71113	0.08643	0.7503	0.085
Mof_H 	H 	0.7378	0.0993	0.7407	-0.004
Mof_C 	C 	0.63311	0.04791	0.7815	-0.155
Mof_H 	H 	0.6067	0.0353	0.7922	0.078
Mof_C 	C 	0.70522	0.04092	0.7444	-0.153
Mof_H 	H 	0.727	0.0238	0.7303	0.074
Mof_C 	C 	0.66457	0.02047	0.7606	0.087
Mof_C 	C 	0.69107	0.93917	0.7587	0.031
Mof_H 	H 	0.72	0.9497	0.7634	0.007
Mof_C 	C 	0.65652	0.97113	0.75519	-0.047
Mof_C 	C 	0.61384	0.95488	0.74755	-0.029
Mof_H 	H 	0.5901	0.9748	0.7446	0.035
Mof_C 	C 	0.60589	0.9081	0.74413	-0.053
Mof_C 	C 	0.64276	0.8804	0.7495	0.028
Mof_H 	H 	0.638	0.8497	0.7486	0.006
Mof_C 	C 	0.55978	0.88992	0.7392	0.106
Mof_C 	C 	0.52251	0.91193	0.7565	-0.174
Mof_H 	H 	0.5265	0.9383	0.7726	0.084
Mof_C 	C 	0.55184	0.84948	0.7169	-0.175
Mof_H 	H 	0.5761	0.8335	0.7057	0.084
Mof_C 	C 	0.4796	0.89538	0.7502	0.103
Mof_H 	H 	0.4552	0.9113	0.7612	-0.01
Mof_C 	C 	0.50923	0.83243	0.7109	0.11
Mof_H 	H 	0.5053	0.8056	0.6956	-0.013
Mof_C 	C 	0.47256	0.85491	0.7275	-0.202
Mof_C 	C 	0.42477	0.83718	0.72293	0.487
Mof_Er	Er	0.35861	0.75684	0.68123	1.802
Mof_O 	O 	0.34348	0.68444	0.70182	-0.533
Mof_O 	O 	0.28189	0.68213	0.74746	-0.538
Mof_O 	O 	0.6058	0.359	0.75869	-0.565
Mof_O 	O 	0.58033	0.30125	0.79889	-0.542
Mof_O 	O 	0.27895	0.7525	0.67303	-0.854
Mof_H 	H 	0.2702	0.7263	0.662	0.274
Mof_N 	N 	0.31475	0.39499	0.74403	-0.159
Mof_C 	C 	0.31469	0.66372	0.7267	0.435
Mof_C 	C 	0.32097	0.61404	0.73	-0.18
Mof_C 	C 	0.35992	0.59384	0.7133	0.084
Mof_H 	H 	0.3812	0.6111	0.6986	-0.003
Mof_C 	C 	0.28887	0.58643	0.7497	0.085
Mof_H 	H 	0.2622	0.5993	0.7593	-0.004
Mof_C 	C 	0.36689	0.54791	0.7185	-0.155
Mof_H 	H 	0.3933	0.5353	0.7078	0.078
Mof_C 	C 	0.29478	0.54092	0.7556	-0.153
Mof_H 	H 	0.273	0.5238	0.7697	0.074
Mof_C 	C 	0.33543	0.52047	0.7394	0.087
Mof_C 	C 	0.30893	0.43917	0.7413	0.031
Mof_H 	H 	0.28	0.4497	0.7366	0.007
Mof_C 	C 	0.34348	0.47113	0.74481	-0.047
Mof_C 	C 	0.38616	0.45488	0.75245	-0.029
Mof_H 	H 	0.4099	0.4748	0.7554	0.035
Mof_C 	C 	0.39411	0.4081	0.75587	-0.053
Mof_C 	C 	0.35724	0.3804	0.7505	0.028
Mof_H 	H 	0.362	0.3497	0.7514	0.006
Mof_C 	C 	0.44022	0.38992	0.7608	0.106
Mof_C 	C 	0.47749	0.41193	0.7435	-0.174
Mof_H 	H 	0.4735	0.4383	0.7274	0.084
Mof_C 	C 	0.44816	0.34948	0.7831	-0.175
Mof_H 	H 	0.4239	0.3335	0.7943	0.084
Mof_C 	C 	0.5204	0.39538	0.7498	0.103
Mof_H 	H 	0.5448	0.4113	0.7388	-0.01
Mof_C 	C 	0.49077	0.33243	0.7891	0.11
Mof_H 	H 	0.4947	0.3056	0.8044	-0.013
Mof_C 	C 	0.52744	0.35491	0.7725	-0.202
Mof_C 	C 	0.57523	0.33718	0.77707	0.487
Mof_Er	Er	0.85861	0.74316	0.31877	1.802
Mof_O 	O 	0.84348	0.81556	0.29818	-0.533
Mof_O 	O 	0.78189	0.81787	0.25254	-0.538
Mof_O 	O 	0.1058	0.141	0.24131	-0.565
Mof_O 	O 	0.08033	0.19875	0.20111	-0.542
Mof_O 	O 	0.77895	0.7475	0.32697	-0.854
Mof_H 	H 	0.7702	0.7737	0.338	0.274
Mof_N 	N 	0.81475	0.10501	0.25597	-0.159
Mof_C 	C 	0.81469	0.83628	0.2733	0.435
Mof_C 	C 	0.82097	0.88596	0.27	-0.18
Mof_C 	C 	0.85992	0.90616	0.2867	0.084
Mof_H 	H 	0.8812	0.8889	0.3014	-0.003
Mof_C 	C 	0.78887	0.91357	0.2503	0.085
Mof_H 	H 	0.7622	0.9007	0.2407	-0.004
Mof_C 	C 	0.86689	0.95209	0.2815	-0.155
Mof_H 	H 	0.8933	0.9647	0.2922	0.078
Mof_C 	C 	0.79478	0.95908	0.2444	-0.153
Mof_H 	H 	0.773	0.9762	0.2303	0.074
Mof_C 	C 	0.83543	0.97953	0.2606	0.087
Mof_C 	C 	0.80893	0.06083	0.2587	0.031
Mof_H 	H 	0.78	0.0503	0.2634	0.007
Mof_C 	C 	0.84348	0.02887	0.25519	-0.047
Mof_C 	C 	0.88616	0.04512	0.24755	-0.029
Mof_H 	H 	0.9099	0.0252	0.2446	0.035
Mof_C 	C 	0.89411	0.0919	0.24413	-0.053
Mof_C 	C 	0.85724	0.1196	0.2495	0.028
Mof_H 	H 	0.862	0.1503	0.2486	0.006
Mof_C 	C 	0.94022	0.11008	0.2392	0.106
Mof_C 	C 	0.97749	0.08807	0.2565	-0.174
Mof_H 	H 	0.9735	0.0617	0.2726	0.084
Mof_C 	C 	0.94816	0.15052	0.2169	-0.175
Mof_H 	H 	0.9239	0.1665	0.2057	0.084
Mof_C 	C 	0.0204	0.10462	0.2502	0.103
Mof_H 	H 	0.0448	0.0887	0.2612	-0.01
Mof_C 	C 	0.99077	0.16757	0.2109	0.11
Mof_H 	H 	0.9947	0.1944	0.1956	-0.013
Mof_C 	C 	0.02744	0.14509	0.2275	-0.202
Mof_C 	C 	0.07523	0.16282	0.22293	0.487
Mof_Er	Er	0.18123	0.14139	0.24316	1.802
Mof_O 	O 	0.20182	0.15652	0.31556	-0.533
Mof_O 	O 	0.24746	0.21811	0.31787	-0.538
Mof_O 	O 	0.25869	0.8942	0.641	-0.565
Mof_O 	O 	0.29889	0.91967	0.69875	-0.542
Mof_O 	O 	0.17303	0.22105	0.2475	-0.854
Mof_H 	H 	0.162	0.2298	0.2737	0.274
Mof_N 	N 	0.24403	0.18525	0.60501	-0.159
Mof_C 	C 	0.2267	0.18531	0.33628	0.435
Mof_C 	C 	0.23	0.17903	0.38596	-0.18
Mof_C 	C 	0.2133	0.14008	0.40616	0.084
Mof_H 	H 	0.1986	0.1188	0.3889	-0.003
Mof_C 	C 	0.2497	0.21113	0.41357	0.085
Mof_H 	H 	0.2593	0.2378	0.4007	-0.004
Mof_C 	C 	0.2185	0.13311	0.45209	-0.155
Mof_H 	H 	0.2078	0.1067	0.4647	0.078
Mof_C 	C 	0.2556	0.20522	0.45908	-0.153
Mof_H 	H 	0.2697	0.227	0.4762	0.074
Mof_C 	C 	0.2394	0.16457	0.47953	0.087
Mof_C 	C 	0.2413	0.19107	0.56083	0.031
Mof_H 	H 	0.2366	0.22	0.5503	0.007
Mof_C 	C 	0.24481	0.15652	0.52887	-0.047
Mof_C 	C 	0.25245	0.11384	0.54512	-0.029
Mof_H 	H 	0.2554	0.0901	0.5252	0.035
Mof_C 	C 	0.25587	0.10589	0.5919	-0.053
Mof_C 	C 	0.2505	0.14276	0.6196	0.028
Mof_H 	H 	0.2514	0.138	0.6503	0.006
Mof_C 	C 	0.2608	0.05978	0.61008	0.106
Mof_C 	C 	0.2435	0.02251	0.58807	-0.174
Mof_H 	H 	0.2274	0.0265	0.5617	0.084
Mof_C 	C 	0.2831	0.05184	0.65052	-0.175
Mof_H 	H 	0.2943	0.0761	0.6665	0.084
Mof_C 	C 	0.2498	0.9796	0.60462	0.103
Mof_H 	H 	0.2388	0.9552	0.5887	-0.01
Mof_C 	C 	0.2891	0.00923	0.66757	0.11
Mof_H 	H 	0.3044	0.0053	0.6944	-0.013
Mof_C 	C 	0.2725	0.97256	0.64509	-0.202
Mof_C 	C 	0.27707	0.92477	0.66282	0.487
Mof_Er	Er	0.81877	0.64139	0.25684	1.802
Mof_O 	O 	0.79818	0.65652	0.18444	-0.533
Mof_O 	O 	0.75254	0.71811	0.18213	-0.538
Mof_O 	O 	0.74131	0.3942	0.859	-0.565
Mof_O 	O 	0.70111	0.41967	0.80125	-0.542
Mof_O 	O 	0.82697	0.72105	0.2525	-0.854
Mof_H 	H 	0.838	0.7298	0.2263	0.274
Mof_N 	N 	0.75597	0.68525	0.89499	-0.159
Mof_C 	C 	0.7733	0.68531	0.16372	0.435
Mof_C 	C 	0.77	0.67903	0.11404	-0.18
Mof_C 	C 	0.7867	0.64008	0.09384	0.084
Mof_H 	H 	0.8014	0.6188	0.1111	-0.003
Mof_C 	C 	0.7503	0.71113	0.08643	0.085
Mof_H 	H 	0.7407	0.7378	0.0993	-0.004
Mof_C 	C 	0.7815	0.63311	0.04791	-0.155
Mof_H 	H 	0.7922	0.6067	0.0353	0.078
Mof_C 	C 	0.7444	0.70522	0.04092	-0.153
Mof_H 	H 	0.7303	0.727	0.0238	0.074
Mof_C 	C 	0.7606	0.66457	0.02047	0.087
Mof_C 	C 	0.7587	0.69107	0.93917	0.031
Mof_H 	H 	0.7634	0.72	0.9497	0.007
Mof_C 	C 	0.75519	0.65652	0.97113	-0.047
Mof_C 	C 	0.74755	0.61384	0.95488	-0.029
Mof_H 	H 	0.7446	0.5901	0.9748	0.035
Mof_C 	C 	0.74413	0.60589	0.9081	-0.053
Mof_C 	C 	0.7495	0.64276	0.8804	0.028
Mof_H 	H 	0.7486	0.638	0.8497	0.006
Mof_C 	C 	0.7392	0.55978	0.88992	0.106
Mof_C 	C 	0.7565	0.52251	0.91193	-0.174
Mof_H 	H 	0.7726	0.5265	0.9383	0.084
Mof_C 	C 	0.7169	0.55184	0.84948	-0.175
Mof_H 	H 	0.7057	0.5761	0.8335	0.084
Mof_C 	C 	0.7502	0.4796	0.89538	0.103
Mof_H 	H 	0.7612	0.4552	0.9113	-0.01
Mof_C 	C 	0.7109	0.50923	0.83243	0.11
Mof_H 	H 	0.6956	0.5053	0.8056	-0.013
Mof_C 	C 	0.7275	0.47256	0.85491	-0.202
Mof_C 	C 	0.72293	0.42477	0.83718	0.487
Mof_Er	Er	0.68123	0.35861	0.75684	1.802
Mof_O 	O 	0.70182	0.34348	0.68444	-0.533
Mof_O 	O 	0.74746	0.28189	0.68213	-0.538
Mof_O 	O 	0.75869	0.6058	0.359	-0.565
Mof_O 	O 	0.79889	0.58033	0.30125	-0.542
Mof_O 	O 	0.67303	0.27895	0.7525	-0.854
Mof_H 	H 	0.662	0.2702	0.7263	0.274
Mof_N 	N 	0.74403	0.31475	0.39499	-0.159
Mof_C 	C 	0.7267	0.31469	0.66372	0.435
Mof_C 	C 	0.73	0.32097	0.61404	-0.18
Mof_C 	C 	0.7133	0.35992	0.59384	0.084
Mof_H 	H 	0.6986	0.3812	0.6111	-0.003
Mof_C 	C 	0.7497	0.28887	0.58643	0.085
Mof_H 	H 	0.7593	0.2622	0.5993	-0.004
Mof_C 	C 	0.7185	0.36689	0.54791	-0.155
Mof_H 	H 	0.7078	0.3933	0.5353	0.078
Mof_C 	C 	0.7556	0.29478	0.54092	-0.153
Mof_H 	H 	0.7697	0.273	0.5238	0.074
Mof_C 	C 	0.7394	0.33543	0.52047	0.087
Mof_C 	C 	0.7413	0.30893	0.43917	0.031
Mof_H 	H 	0.7366	0.28	0.4497	0.007
Mof_C 	C 	0.74481	0.34348	0.47113	-0.047
Mof_C 	C 	0.75245	0.38616	0.45488	-0.029
Mof_H 	H 	0.7554	0.4099	0.4748	0.035
Mof_C 	C 	0.75587	0.39411	0.4081	-0.053
Mof_C 	C 	0.7505	0.35724	0.3804	0.028
Mof_H 	H 	0.7514	0.362	0.3497	0.006
Mof_C 	C 	0.7608	0.44022	0.38992	0.106
Mof_C 	C 	0.7435	0.47749	0.41193	-0.174
Mof_H 	H 	0.7274	0.4735	0.4383	0.084
Mof_C 	C 	0.7831	0.44816	0.34948	-0.175
Mof_H 	H 	0.7943	0.4239	0.3335	0.084
Mof_C 	C 	0.7498	0.5204	0.39538	0.103
Mof_H 	H 	0.7388	0.5448	0.4113	-0.01
Mof_C 	C 	0.7891	0.49077	0.33243	0.11
Mof_H 	H 	0.8044	0.4947	0.3056	-0.013
Mof_C 	C 	0.7725	0.52744	0.35491	-0.202
Mof_C 	C 	0.77707	0.57523	0.33718	0.487
Mof_Er	Er	0.31877	0.85861	0.74316	1.802
Mof_O 	O 	0.29818	0.84348	0.81556	-0.533
Mof_O 	O 	0.25254	0.78189	0.81787	-0.538
Mof_O 	O 	0.24131	0.1058	0.141	-0.565
Mof_O 	O 	0.20111	0.08033	0.19875	-0.542
Mof_O 	O 	0.32697	0.77895	0.7475	-0.854
Mof_H 	H 	0.338	0.7702	0.7737	0.274
Mof_N 	N 	0.25597	0.81475	0.10501	-0.159
Mof_C 	C 	0.2733	0.81469	0.83628	0.435
Mof_C 	C 	0.27	0.82097	0.88596	-0.18
Mof_C 	C 	0.2867	0.85992	0.90616	0.084
Mof_H 	H 	0.3014	0.8812	0.8889	-0.003
Mof_C 	C 	0.2503	0.78887	0.91357	0.085
Mof_H 	H 	0.2407	0.7622	0.9007	-0.004
Mof_C 	C 	0.2815	0.86689	0.95209	-0.155
Mof_H 	H 	0.2922	0.8933	0.9647	0.078
Mof_C 	C 	0.2444	0.79478	0.95908	-0.153
Mof_H 	H 	0.2303	0.773	0.9762	0.074
Mof_C 	C 	0.2606	0.83543	0.97953	0.087
Mof_C 	C 	0.2587	0.80893	0.06083	0.031
Mof_H 	H 	0.2634	0.78	0.0503	0.007
Mof_C 	C 	0.25519	0.84348	0.02887	-0.047
Mof_C 	C 	0.24755	0.88616	0.04512	-0.029
Mof_H 	H 	0.2446	0.9099	0.0252	0.035
Mof_C 	C 	0.24413	0.89411	0.0919	-0.053
Mof_C 	C 	0.2495	0.85724	0.1196	0.028
Mof_H 	H 	0.2486	0.862	0.1503	0.006
Mof_C 	C 	0.2392	0.94022	0.11008	0.106
Mof_C 	C 	0.2565	0.97749	0.08807	-0.174
Mof_H 	H 	0.2726	0.9735	0.0617	0.084
Mof_C 	C 	0.2169	0.94816	0.15052	-0.175
Mof_H 	H 	0.2057	0.9239	0.1665	0.084
Mof_C 	C 	0.2502	0.0204	0.10462	0.103
Mof_H 	H 	0.2612	0.0448	0.0887	-0.01
Mof_C 	C 	0.2109	0.99077	0.16757	0.11
Mof_H 	H 	0.1956	0.9947	0.1944	-0.013
Mof_C 	C 	0.2275	0.02744	0.14509	-0.202
Mof_C 	C 	0.22293	0.07523	0.16282	0.487
Mof_Er	Er	0.24763	0.24763	0.24763	1.751
Mof_O 	O 	0.17074	0.17074	0.17074	-0.88
Mof_H 	H 	0.15429	0.15429	0.15429	0.305
Mof_Er	Er	0.25237	0.75237	0.74763	1.751
Mof_O 	O 	0.32926	0.82926	0.67074	-0.88
Mof_H 	H 	0.34571	0.84571	0.65429	0.305
Mof_Er	Er	0.75237	0.74763	0.25237	1.751
Mof_O 	O 	0.82926	0.67074	0.32926	-0.88
Mof_H 	H 	0.84571	0.65429	0.34571	0.305
Mof_Er	Er	0.74763	0.25237	0.75237	1.751
Mof_O 	O 	0.67074	0.32926	0.82926	-0.88
Mof_H 	H 	0.65429	0.34571	0.84571	0.305
Mof_Er	Er	0.75684	0.81877	0.85861	1.802
Mof_O 	O 	0.68444	0.79818	0.84348	-0.533
Mof_O 	O 	0.68213	0.75254	0.78189	-0.538
Mof_O 	O 	0.359	0.74131	0.1058	-0.565
Mof_O 	O 	0.30125	0.70111	0.08033	-0.542
Mof_O 	O 	0.7525	0.82697	0.77895	-0.854
Mof_H 	H 	0.7263	0.838	0.7702	0.274
Mof_N 	N 	0.39499	0.75597	0.81475	-0.159
Mof_C 	C 	0.66372	0.7733	0.81469	0.435
Mof_C 	C 	0.61404	0.77	0.82097	-0.18
Mof_C 	C 	0.59384	0.7867	0.85992	0.084
Mof_H 	H 	0.6111	0.8014	0.8812	-0.003
Mof_C 	C 	0.58643	0.7503	0.78887	0.085
Mof_H 	H 	0.5993	0.7407	0.7622	-0.004
Mof_C 	C 	0.54791	0.7815	0.86689	-0.155
Mof_H 	H 	0.5353	0.7922	0.8933	0.078
Mof_C 	C 	0.54092	0.7444	0.79478	-0.153
Mof_H 	H 	0.5238	0.7303	0.773	0.074
Mof_C 	C 	0.52047	0.7606	0.83543	0.087
Mof_C 	C 	0.43917	0.7587	0.80893	0.031
Mof_H 	H 	0.4497	0.7634	0.78	0.007
Mof_C 	C 	0.47113	0.75519	0.84348	-0.047
Mof_C 	C 	0.45488	0.74755	0.88616	-0.029
Mof_H 	H 	0.4748	0.7446	0.9099	0.035
Mof_C 	C 	0.4081	0.74413	0.89411	-0.053
Mof_C 	C 	0.3804	0.7495	0.85724	0.028
Mof_H 	H 	0.3497	0.7486	0.862	0.006
Mof_C 	C 	0.38992	0.7392	0.94022	0.106
Mof_C 	C 	0.41193	0.7565	0.97749	-0.174
Mof_H 	H 	0.4383	0.7726	0.9735	0.084
Mof_C 	C 	0.34948	0.7169	0.94816	-0.175
Mof_H 	H 	0.3335	0.7057	0.9239	0.084
Mof_C 	C 	0.39538	0.7502	0.0204	0.103
Mof_H 	H 	0.4113	0.7612	0.0448	-0.01
Mof_C 	C 	0.33243	0.7109	0.99077	0.11
Mof_H 	H 	0.3056	0.6956	0.9947	-0.013
Mof_C 	C 	0.35491	0.7275	0.02744	-0.202
Mof_C 	C 	0.33718	0.72293	0.07523	0.487
Mof_Er	Er	0.74316	0.18123	0.35861	1.802
Mof_O 	O 	0.81556	0.20182	0.34348	-0.533
Mof_O 	O 	0.81787	0.24746	0.28189	-0.538
Mof_O 	O 	0.141	0.25869	0.6058	-0.565
Mof_O 	O 	0.19875	0.29889	0.58033	-0.542
Mof_O 	O 	0.7475	0.17303	0.27895	-0.854
Mof_H 	H 	0.7737	0.162	0.2702	0.274
Mof_N 	N 	0.10501	0.24403	0.31475	-0.159
Mof_C 	C 	0.83628	0.2267	0.31469	0.435
Mof_C 	C 	0.88596	0.23	0.32097	-0.18
Mof_C 	C 	0.90616	0.2133	0.35992	0.084
Mof_H 	H 	0.8889	0.1986	0.3812	-0.003
Mof_C 	C 	0.91357	0.2497	0.28887	0.085
Mof_H 	H 	0.9007	0.2593	0.2622	-0.004
Mof_C 	C 	0.95209	0.2185	0.36689	-0.155
Mof_H 	H 	0.9647	0.2078	0.3933	0.078
Mof_C 	C 	0.95908	0.2556	0.29478	-0.153
Mof_H 	H 	0.9762	0.2697	0.273	0.074
Mof_C 	C 	0.97953	0.2394	0.33543	0.087
Mof_C 	C 	0.06083	0.2413	0.30893	0.031
Mof_H 	H 	0.0503	0.2366	0.28	0.007
Mof_C 	C 	0.02887	0.24481	0.34348	-0.047
Mof_C 	C 	0.04512	0.25245	0.38616	-0.029
Mof_H 	H 	0.0252	0.2554	0.4099	0.035
Mof_C 	C 	0.0919	0.25587	0.39411	-0.053
Mof_C 	C 	0.1196	0.2505	0.35724	0.028
Mof_H 	H 	0.1503	0.2514	0.362	0.006
Mof_C 	C 	0.11008	0.2608	0.44022	0.106
Mof_C 	C 	0.08807	0.2435	0.47749	-0.174
Mof_H 	H 	0.0617	0.2274	0.4735	0.084
Mof_C 	C 	0.15052	0.2831	0.44816	-0.175
Mof_H 	H 	0.1665	0.2943	0.4239	0.084
Mof_C 	C 	0.10462	0.2498	0.5204	0.103
Mof_H 	H 	0.0887	0.2388	0.5448	-0.01
Mof_C 	C 	0.16757	0.2891	0.49077	0.11
Mof_H 	H 	0.1944	0.3044	0.4947	-0.013
Mof_C 	C 	0.14509	0.2725	0.52744	-0.202
Mof_C 	C 	0.16282	0.27707	0.57523	0.487
Mof_Er	Er	0.24316	0.31877	0.64139	1.802
Mof_O 	O 	0.31556	0.29818	0.65652	-0.533
Mof_O 	O 	0.31787	0.25254	0.71811	-0.538
Mof_O 	O 	0.641	0.24131	0.3942	-0.565
Mof_O 	O 	0.69875	0.20111	0.41967	-0.542
Mof_O 	O 	0.2475	0.32697	0.72105	-0.854
Mof_H 	H 	0.2737	0.338	0.7298	0.274
Mof_N 	N 	0.60501	0.25597	0.68525	-0.159
Mof_C 	C 	0.33628	0.2733	0.68531	0.435
Mof_C 	C 	0.38596	0.27	0.67903	-0.18
Mof_C 	C 	0.40616	0.2867	0.64008	0.084
Mof_H 	H 	0.3889	0.3014	0.6188	-0.003
Mof_C 	C 	0.41357	0.2503	0.71113	0.085
Mof_H 	H 	0.4007	0.2407	0.7378	-0.004
Mof_C 	C 	0.45209	0.2815	0.63311	-0.155
Mof_H 	H 	0.4647	0.2922	0.6067	0.078
Mof_C 	C 	0.45908	0.2444	0.70522	-0.153
Mof_H 	H 	0.4762	0.2303	0.727	0.074
Mof_C 	C 	0.47953	0.2606	0.66457	0.087
Mof_C 	C 	0.56083	0.2587	0.69107	0.031
Mof_H 	H 	0.5503	0.2634	0.72	0.007
Mof_C 	C 	0.52887	0.25519	0.65652	-0.047
Mof_C 	C 	0.54512	0.24755	0.61384	-0.029
Mof_H 	H 	0.5252	0.2446	0.5901	0.035
Mof_C 	C 	0.5919	0.24413	0.60589	-0.053
Mof_C 	C 	0.6196	0.2495	0.64276	0.028
Mof_H 	H 	0.6503	0.2486	0.638	0.006
Mof_C 	C 	0.61008	0.2392	0.55978	0.106
Mof_C 	C 	0.58807	0.2565	0.52251	-0.174
Mof_H 	H 	0.5617	0.2726	0.5265	0.084
Mof_C 	C 	0.65052	0.2169	0.55184	-0.175
Mof_H 	H 	0.6665	0.2057	0.5761	0.084
Mof_C 	C 	0.60462	0.2502	0.4796	0.103
Mof_H 	H 	0.5887	0.2612	0.4552	-0.01
Mof_C 	C 	0.66757	0.2109	0.50923	0.11
Mof_H 	H 	0.6944	0.1956	0.5053	-0.013
Mof_C 	C 	0.64509	0.2275	0.47256	-0.202
Mof_C 	C 	0.66282	0.22293	0.42477	0.487
Mof_Er	Er	0.25684	0.68123	0.14139	1.802
Mof_O 	O 	0.18444	0.70182	0.15652	-0.533
Mof_O 	O 	0.18213	0.74746	0.21811	-0.538
Mof_O 	O 	0.859	0.75869	0.8942	-0.565
Mof_O 	O 	0.80125	0.79889	0.91967	-0.542
Mof_O 	O 	0.2525	0.67303	0.22105	-0.854
Mof_H 	H 	0.2263	0.662	0.2298	0.274
Mof_N 	N 	0.89499	0.74403	0.18525	-0.159
Mof_C 	C 	0.16372	0.7267	0.18531	0.435
Mof_C 	C 	0.11404	0.73	0.17903	-0.18
Mof_C 	C 	0.09384	0.7133	0.14008	0.084
Mof_H 	H 	0.1111	0.6986	0.1188	-0.003
Mof_C 	C 	0.08643	0.7497	0.21113	0.085
Mof_H 	H 	0.0993	0.7593	0.2378	-0.004
Mof_C 	C 	0.04791	0.7185	0.13311	-0.155
Mof_H 	H 	0.0353	0.7078	0.1067	0.078
Mof_C 	C 	0.04092	0.7556	0.20522	-0.153
Mof_H 	H 	0.0238	0.7697	0.227	0.074
Mof_C 	C 	0.02047	0.7394	0.16457	0.087
Mof_C 	C 	0.93917	0.7413	0.19107	0.031
Mof_H 	H 	0.9497	0.7366	0.22	0.007
Mof_C 	C 	0.97113	0.74481	0.15652	-0.047
Mof_C 	C 	0.95488	0.75245	0.11384	-0.029
Mof_H 	H 	0.9748	0.7554	0.0901	0.035
Mof_C 	C 	0.9081	0.75587	0.10589	-0.053
Mof_C 	C 	0.8804	0.7505	0.14276	0.028
Mof_H 	H 	0.8497	0.7514	0.138	0.006
Mof_C 	C 	0.88992	0.7608	0.05978	0.106
Mof_C 	C 	0.91193	0.7435	0.02251	-0.174
Mof_H 	H 	0.9383	0.7274	0.0265	0.084
Mof_C 	C 	0.84948	0.7831	0.05184	-0.175
Mof_H 	H 	0.8335	0.7943	0.0761	0.084
Mof_C 	C 	0.89538	0.7498	0.9796	0.103
Mof_H 	H 	0.9113	0.7388	0.9552	-0.01
Mof_C 	C 	0.83243	0.7891	0.00923	0.11
Mof_H 	H 	0.8056	0.8044	0.0053	-0.013
Mof_C 	C 	0.85491	0.7725	0.97256	-0.202
Mof_C 	C 	0.83718	0.77707	0.92477	0.487
Mof_Er	Er	0.85861	0.75684	0.81877	1.802
Mof_O 	O 	0.84348	0.68444	0.79818	-0.533
Mof_O 	O 	0.78189	0.68213	0.75254	-0.538
Mof_O 	O 	0.1058	0.359	0.74131	-0.565
Mof_O 	O 	0.08033	0.30125	0.70111	-0.542
Mof_O 	O 	0.77895	0.7525	0.82697	-0.854
Mof_H 	H 	0.7702	0.7263	0.838	0.274
Mof_N 	N 	0.81475	0.39499	0.75597	-0.159
Mof_C 	C 	0.81469	0.66372	0.7733	0.435
Mof_C 	C 	0.82097	0.61404	0.77	-0.18
Mof_C 	C 	0.85992	0.59384	0.7867	0.084
Mof_H 	H 	0.8812	0.6111	0.8014	-0.003
Mof_C 	C 	0.78887	0.58643	0.7503	0.085
Mof_H 	H 	0.7622	0.5993	0.7407	-0.004
Mof_C 	C 	0.86689	0.54791	0.7815	-0.155
Mof_H 	H 	0.8933	0.5353	0.7922	0.078
Mof_C 	C 	0.79478	0.54092	0.7444	-0.153
Mof_H 	H 	0.773	0.5238	0.7303	0.074
Mof_C 	C 	0.83543	0.52047	0.7606	0.087
Mof_C 	C 	0.80893	0.43917	0.7587	0.031
Mof_H 	H 	0.78	0.4497	0.7634	0.007
Mof_C 	C 	0.84348	0.47113	0.75519	-0.047
Mof_C 	C 	0.88616	0.45488	0.74755	-0.029
Mof_H 	H 	0.9099	0.4748	0.7446	0.035
Mof_C 	C 	0.89411	0.4081	0.74413	-0.053
Mof_C 	C 	0.85724	0.3804	0.7495	0.028
Mof_H 	H 	0.862	0.3497	0.7486	0.006
Mof_C 	C 	0.94022	0.38992	0.7392	0.106
Mof_C 	C 	0.97749	0.41193	0.7565	-0.174
Mof_H 	H 	0.9735	0.4383	0.7726	0.084
Mof_C 	C 	0.94816	0.34948	0.7169	-0.175
Mof_H 	H 	0.9239	0.3335	0.7057	0.084
Mof_C 	C 	0.0204	0.39538	0.7502	0.103
Mof_H 	H 	0.0448	0.4113	0.7612	-0.01
Mof_C 	C 	0.99077	0.33243	0.7109	0.11
Mof_H 	H 	0.9947	0.3056	0.6956	-0.013
Mof_C 	C 	0.02744	0.35491	0.7275	-0.202
Mof_C 	C 	0.07523	0.33718	0.72293	0.487
Mof_Er	Er	0.35861	0.74316	0.18123	1.802
Mof_O 	O 	0.34348	0.81556	0.20182	-0.533
Mof_O 	O 	0.28189	0.81787	0.24746	-0.538
Mof_O 	O 	0.6058	0.141	0.25869	-0.565
Mof_O 	O 	0.58033	0.19875	0.29889	-0.542
Mof_O 	O 	0.27895	0.7475	0.17303	-0.854
Mof_H 	H 	0.2702	0.7737	0.162	0.274
Mof_N 	N 	0.31475	0.10501	0.24403	-0.159
Mof_C 	C 	0.31469	0.83628	0.2267	0.435
Mof_C 	C 	0.32097	0.88596	0.23	-0.18
Mof_C 	C 	0.35992	0.90616	0.2133	0.084
Mof_H 	H 	0.3812	0.8889	0.1986	-0.003
Mof_C 	C 	0.28887	0.91357	0.2497	0.085
Mof_H 	H 	0.2622	0.9007	0.2593	-0.004
Mof_C 	C 	0.36689	0.95209	0.2185	-0.155
Mof_H 	H 	0.3933	0.9647	0.2078	0.078
Mof_C 	C 	0.29478	0.95908	0.2556	-0.153
Mof_H 	H 	0.273	0.9762	0.2697	0.074
Mof_C 	C 	0.33543	0.97953	0.2394	0.087
Mof_C 	C 	0.30893	0.06083	0.2413	0.031
Mof_H 	H 	0.28	0.0503	0.2366	0.007
Mof_C 	C 	0.34348	0.02887	0.24481	-0.047
Mof_C 	C 	0.38616	0.04512	0.25245	-0.029
Mof_H 	H 	0.4099	0.0252	0.2554	0.035
Mof_C 	C 	0.39411	0.0919	0.25587	-0.053
Mof_C 	C 	0.35724	0.1196	0.2505	0.028
Mof_H 	H 	0.362	0.1503	0.2514	0.006
Mof_C 	C 	0.44022	0.11008	0.2608	0.106
Mof_C 	C 	0.47749	0.08807	0.2435	-0.174
Mof_H 	H 	0.4735	0.0617	0.2274	0.084
Mof_C 	C 	0.44816	0.15052	0.2831	-0.175
Mof_H 	H 	0.4239	0.1665	0.2943	0.084
Mof_C 	C 	0.5204	0.10462	0.2498	0.103
Mof_H 	H 	0.5448	0.0887	0.2388	-0.01
Mof_C 	C 	0.49077	0.16757	0.2891	0.11
Mof_H 	H 	0.4947	0.1944	0.3044	-0.013
Mof_C 	C 	0.52744	0.14509	0.2725	-0.202
Mof_C 	C 	0.57523	0.16282	0.27707	0.487
Mof_Er	Er	0.64139	0.24316	0.31877	1.802
Mof_O 	O 	0.65652	0.31556	0.29818	-0.533
Mof_O 	O 	0.71811	0.31787	0.25254	-0.538
Mof_O 	O 	0.3942	0.641	0.24131	-0.565
Mof_O 	O 	0.41967	0.69875	0.20111	-0.542
Mof_O 	O 	0.72105	0.2475	0.32697	-0.854
Mof_H 	H 	0.7298	0.2737	0.338	0.274
Mof_N 	N 	0.68525	0.60501	0.25597	-0.159
Mof_C 	C 	0.68531	0.33628	0.2733	0.435
Mof_C 	C 	0.67903	0.38596	0.27	-0.18
Mof_C 	C 	0.64008	0.40616	0.2867	0.084
Mof_H 	H 	0.6188	0.3889	0.3014	-0.003
Mof_C 	C 	0.71113	0.41357	0.2503	0.085
Mof_H 	H 	0.7378	0.4007	0.2407	-0.004
Mof_C 	C 	0.63311	0.45209	0.2815	-0.155
Mof_H 	H 	0.6067	0.4647	0.2922	0.078
Mof_C 	C 	0.70522	0.45908	0.2444	-0.153
Mof_H 	H 	0.727	0.4762	0.2303	0.074
Mof_C 	C 	0.66457	0.47953	0.2606	0.087
Mof_C 	C 	0.69107	0.56083	0.2587	0.031
Mof_H 	H 	0.72	0.5503	0.2634	0.007
Mof_C 	C 	0.65652	0.52887	0.25519	-0.047
Mof_C 	C 	0.61384	0.54512	0.24755	-0.029
Mof_H 	H 	0.5901	0.5252	0.2446	0.035
Mof_C 	C 	0.60589	0.5919	0.24413	-0.053
Mof_C 	C 	0.64276	0.6196	0.2495	0.028
Mof_H 	H 	0.638	0.6503	0.2486	0.006
Mof_C 	C 	0.55978	0.61008	0.2392	0.106
Mof_C 	C 	0.52251	0.58807	0.2565	-0.174
Mof_H 	H 	0.5265	0.5617	0.2726	0.084
Mof_C 	C 	0.55184	0.65052	0.2169	-0.175
Mof_H 	H 	0.5761	0.6665	0.2057	0.084
Mof_C 	C 	0.4796	0.60462	0.2502	0.103
Mof_H 	H 	0.4552	0.5887	0.2612	-0.01
Mof_C 	C 	0.50923	0.66757	0.2109	0.11
Mof_H 	H 	0.5053	0.6944	0.1956	-0.013
Mof_C 	C 	0.47256	0.64509	0.2275	-0.202
Mof_C 	C 	0.42477	0.66282	0.22293	0.487
Mof_Er	Er	0.14139	0.25684	0.68123	1.802
Mof_O 	O 	0.15652	0.18444	0.70182	-0.533
Mof_O 	O 	0.21811	0.18213	0.74746	-0.538
Mof_O 	O 	0.8942	0.859	0.75869	-0.565
Mof_O 	O 	0.91967	0.80125	0.79889	-0.542
Mof_O 	O 	0.22105	0.2525	0.67303	-0.854
Mof_H 	H 	0.2298	0.2263	0.662	0.274
Mof_N 	N 	0.18525	0.89499	0.74403	-0.159
Mof_C 	C 	0.18531	0.16372	0.7267	0.435
Mof_C 	C 	0.17903	0.11404	0.73	-0.18
Mof_C 	C 	0.14008	0.09384	0.7133	0.084
Mof_H 	H 	0.1188	0.1111	0.6986	-0.003
Mof_C 	C 	0.21113	0.08643	0.7497	0.085
Mof_H 	H 	0.2378	0.0993	0.7593	-0.004
Mof_C 	C 	0.13311	0.04791	0.7185	-0.155
Mof_H 	H 	0.1067	0.0353	0.7078	0.078
Mof_C 	C 	0.20522	0.04092	0.7556	-0.153
Mof_H 	H 	0.227	0.0238	0.7697	0.074
Mof_C 	C 	0.16457	0.02047	0.7394	0.087
Mof_C 	C 	0.19107	0.93917	0.7413	0.031
Mof_H 	H 	0.22	0.9497	0.7366	0.007
Mof_C 	C 	0.15652	0.97113	0.74481	-0.047
Mof_C 	C 	0.11384	0.95488	0.75245	-0.029
Mof_H 	H 	0.0901	0.9748	0.7554	0.035
Mof_C 	C 	0.10589	0.9081	0.75587	-0.053
Mof_C 	C 	0.14276	0.8804	0.7505	0.028
Mof_H 	H 	0.138	0.8497	0.7514	0.006
Mof_C 	C 	0.05978	0.88992	0.7608	0.106
Mof_C 	C 	0.02251	0.91193	0.7435	-0.174
Mof_H 	H 	0.0265	0.9383	0.7274	0.084
Mof_C 	C 	0.05184	0.84948	0.7831	-0.175
Mof_H 	H 	0.0761	0.8335	0.7943	0.084
Mof_C 	C 	0.9796	0.89538	0.7498	0.103
Mof_H 	H 	0.9552	0.9113	0.7388	-0.01
Mof_C 	C 	0.00923	0.83243	0.7891	0.11
Mof_H 	H 	0.0053	0.8056	0.8044	-0.013
Mof_C 	C 	0.97256	0.85491	0.7725	-0.202
Mof_C 	C 	0.92477	0.83718	0.77707	0.487
Mof_Er	Er	0.81877	0.85861	0.75684	1.802
Mof_O 	O 	0.79818	0.84348	0.68444	-0.533
Mof_O 	O 	0.75254	0.78189	0.68213	-0.538
Mof_O 	O 	0.74131	0.1058	0.359	-0.565
Mof_O 	O 	0.70111	0.08033	0.30125	-0.542
Mof_O 	O 	0.82697	0.77895	0.7525	-0.854
Mof_H 	H 	0.838	0.7702	0.7263	0.274
Mof_N 	N 	0.75597	0.81475	0.39499	-0.159
Mof_C 	C 	0.7733	0.81469	0.66372	0.435
Mof_C 	C 	0.77	0.82097	0.61404	-0.18
Mof_C 	C 	0.7867	0.85992	0.59384	0.084
Mof_H 	H 	0.8014	0.8812	0.6111	-0.003
Mof_C 	C 	0.7503	0.78887	0.58643	0.085
Mof_H 	H 	0.7407	0.7622	0.5993	-0.004
Mof_C 	C 	0.7815	0.86689	0.54791	-0.155
Mof_H 	H 	0.7922	0.8933	0.5353	0.078
Mof_C 	C 	0.7444	0.79478	0.54092	-0.153
Mof_H 	H 	0.7303	0.773	0.5238	0.074
Mof_C 	C 	0.7606	0.83543	0.52047	0.087
Mof_C 	C 	0.7587	0.80893	0.43917	0.031
Mof_H 	H 	0.7634	0.78	0.4497	0.007
Mof_C 	C 	0.75519	0.84348	0.47113	-0.047
Mof_C 	C 	0.74755	0.88616	0.45488	-0.029
Mof_H 	H 	0.7446	0.9099	0.4748	0.035
Mof_C 	C 	0.74413	0.89411	0.4081	-0.053
Mof_C 	C 	0.7495	0.85724	0.3804	0.028
Mof_H 	H 	0.7486	0.862	0.3497	0.006
Mof_C 	C 	0.7392	0.94022	0.38992	0.106
Mof_C 	C 	0.7565	0.97749	0.41193	-0.174
Mof_H 	H 	0.7726	0.9735	0.4383	0.084
Mof_C 	C 	0.7169	0.94816	0.34948	-0.175
Mof_H 	H 	0.7057	0.9239	0.3335	0.084
Mof_C 	C 	0.7502	0.0204	0.39538	0.103
Mof_H 	H 	0.7612	0.0448	0.4113	-0.01
Mof_C 	C 	0.7109	0.99077	0.33243	0.11
Mof_H 	H 	0.6956	0.9947	0.3056	-0.013
Mof_C 	C 	0.7275	0.02744	0.35491	-0.202
Mof_C 	C 	0.72293	0.07523	0.33718	0.487
Mof_Er	Er	0.18123	0.35861	0.74316	1.802
Mof_O 	O 	0.20182	0.34348	0.81556	-0.533
Mof_O 	O 	0.24746	0.28189	0.81787	-0.538
Mof_O 	O 	0.25869	0.6058	0.141	-0.565
Mof_O 	O 	0.29889	0.58033	0.19875	-0.542
Mof_O 	O 	0.17303	0.27895	0.7475	-0.854
Mof_H 	H 	0.162	0.2702	0.7737	0.274
Mof_N 	N 	0.24403	0.31475	0.10501	-0.159
Mof_C 	C 	0.2267	0.31469	0.83628	0.435
Mof_C 	C 	0.23	0.32097	0.88596	-0.18
Mof_C 	C 	0.2133	0.35992	0.90616	0.084
Mof_H 	H 	0.1986	0.3812	0.8889	-0.003
Mof_C 	C 	0.2497	0.28887	0.91357	0.085
Mof_H 	H 	0.2593	0.2622	0.9007	-0.004
Mof_C 	C 	0.2185	0.36689	0.95209	-0.155
Mof_H 	H 	0.2078	0.3933	0.9647	0.078
Mof_C 	C 	0.2556	0.29478	0.95908	-0.153
Mof_H 	H 	0.2697	0.273	0.9762	0.074
Mof_C 	C 	0.2394	0.33543	0.97953	0.087
Mof_C 	C 	0.2413	0.30893	0.06083	0.031
Mof_H 	H 	0.2366	0.28	0.0503	0.007
Mof_C 	C 	0.24481	0.34348	0.02887	-0.047
Mof_C 	C 	0.25245	0.38616	0.04512	-0.029
Mof_H 	H 	0.2554	0.4099	0.0252	0.035
Mof_C 	C 	0.25587	0.39411	0.0919	-0.053
Mof_C 	C 	0.2505	0.35724	0.1196	0.028
Mof_H 	H 	0.2514	0.362	0.1503	0.006
Mof_C 	C 	0.2608	0.44022	0.11008	0.106
Mof_C 	C 	0.2435	0.47749	0.08807	-0.174
Mof_H 	H 	0.2274	0.4735	0.0617	0.084
Mof_C 	C 	0.2831	0.44816	0.15052	-0.175
Mof_H 	H 	0.2943	0.4239	0.1665	0.084
Mof_C 	C 	0.2498	0.5204	0.10462	0.103
Mof_H 	H 	0.2388	0.5448	0.0887	-0.01
Mof_C 	C 	0.2891	0.49077	0.16757	0.11
Mof_H 	H 	0.3044	0.4947	0.1944	-0.013
Mof_C 	C 	0.2725	0.52744	0.14509	-0.202
Mof_C 	C 	0.27707	0.57523	0.16282	0.487
Mof_Er	Er	0.31877	0.64139	0.24316	1.802
Mof_O 	O 	0.29818	0.65652	0.31556	-0.533
Mof_O 	O 	0.25254	0.71811	0.31787	-0.538
Mof_O 	O 	0.24131	0.3942	0.641	-0.565
Mof_O 	O 	0.20111	0.41967	0.69875	-0.542
Mof_O 	O 	0.32697	0.72105	0.2475	-0.854
Mof_H 	H 	0.338	0.7298	0.2737	0.274
Mof_N 	N 	0.25597	0.68525	0.60501	-0.159
Mof_C 	C 	0.2733	0.68531	0.33628	0.435
Mof_C 	C 	0.27	0.67903	0.38596	-0.18
Mof_C 	C 	0.2867	0.64008	0.40616	0.084
Mof_H 	H 	0.3014	0.6188	0.3889	-0.003
Mof_C 	C 	0.2503	0.71113	0.41357	0.085
Mof_H 	H 	0.2407	0.7378	0.4007	-0.004
Mof_C 	C 	0.2815	0.63311	0.45209	-0.155
Mof_H 	H 	0.2922	0.6067	0.4647	0.078
Mof_C 	C 	0.2444	0.70522	0.45908	-0.153
Mof_H 	H 	0.2303	0.727	0.4762	0.074
Mof_C 	C 	0.2606	0.66457	0.47953	0.087
Mof_C 	C 	0.2587	0.69107	0.56083	0.031
Mof_H 	H 	0.2634	0.72	0.5503	0.007
Mof_C 	C 	0.25519	0.65652	0.52887	-0.047
Mof_C 	C 	0.24755	0.61384	0.54512	-0.029
Mof_H 	H 	0.2446	0.5901	0.5252	0.035
Mof_C 	C 	0.24413	0.60589	0.5919	-0.053
Mof_C 	C 	0.2495	0.64276	0.6196	0.028
Mof_H 	H 	0.2486	0.638	0.6503	0.006
Mof_C 	C 	0.2392	0.55978	0.61008	0.106
Mof_C 	C 	0.2565	0.52251	0.58807	-0.174
Mof_H 	H 	0.2726	0.5265	0.5617	0.084
Mof_C 	C 	0.2169	0.55184	0.65052	-0.175
Mof_H 	H 	0.2057	0.5761	0.6665	0.084
Mof_C 	C 	0.2502	0.4796	0.60462	0.103
Mof_H 	H 	0.2612	0.4552	0.5887	-0.01
Mof_C 	C 	0.2109	0.50923	0.66757	0.11
Mof_H 	H 	0.1956	0.5053	0.6944	-0.013
Mof_C 	C 	0.2275	0.47256	0.64509	-0.202
Mof_C 	C 	0.22293	0.42477	0.66282	0.487
Mof_Er	Er	0.68123	0.14139	0.25684	1.802
Mof_O 	O 	0.70182	0.15652	0.18444	-0.533
Mof_O 	O 	0.74746	0.21811	0.18213	-0.538
Mof_O 	O 	0.75869	0.8942	0.859	-0.565
Mof_O 	O 	0.79889	0.91967	0.80125	-0.542
Mof_O 	O 	0.67303	0.22105	0.2525	-0.854
Mof_H 	H 	0.662	0.2298	0.2263	0.274
Mof_N 	N 	0.74403	0.18525	0.89499	-0.159
Mof_C 	C 	0.7267	0.18531	0.16372	0.435
Mof_C 	C 	0.73	0.17903	0.11404	-0.18
Mof_C 	C 	0.7133	0.14008	0.09384	0.084
Mof_H 	H 	0.6986	0.1188	0.1111	-0.003
Mof_C 	C 	0.7497	0.21113	0.08643	0.085
Mof_H 	H 	0.7593	0.2378	0.0993	-0.004
Mof_C 	C 	0.7185	0.13311	0.04791	-0.155
Mof_H 	H 	0.7078	0.1067	0.0353	0.078
Mof_C 	C 	0.7556	0.20522	0.04092	-0.153
Mof_H 	H 	0.7697	0.227	0.0238	0.074
Mof_C 	C 	0.7394	0.16457	0.02047	0.087
Mof_C 	C 	0.7413	0.19107	0.93917	0.031
Mof_H 	H 	0.7366	0.22	0.9497	0.007
Mof_C 	C 	0.74481	0.15652	0.97113	-0.047
Mof_C 	C 	0.75245	0.11384	0.95488	-0.029
Mof_H 	H 	0.7554	0.0901	0.9748	0.035
Mof_C 	C 	0.75587	0.10589	0.9081	-0.053
Mof_C 	C 	0.7505	0.14276	0.8804	0.028
Mof_H 	H 	0.7514	0.138	0.8497	0.006
Mof_C 	C 	0.7608	0.05978	0.88992	0.106
Mof_C 	C 	0.7435	0.02251	0.91193	-0.174
Mof_H 	H 	0.7274	0.0265	0.9383	0.084
Mof_C 	C 	0.7831	0.05184	0.84948	-0.175
Mof_H 	H 	0.7943	0.0761	0.8335	0.084
Mof_C 	C 	0.7498	0.9796	0.89538	0.103
Mof_H 	H 	0.7388	0.9552	0.9113	-0.01
Mof_C 	C 	0.7891	0.00923	0.83243	0.11
Mof_H 	H 	0.8044	0.0053	0.8056	-0.013
Mof_C 	C 	0.7725	0.97256	0.85491	-0.202
Mof_C 	C 	0.77707	0.92477	0.83718	0.487
Mof_Er	Er	0.75237	0.75237	0.75237	1.751
Mof_O 	O 	0.82926	0.82926	0.82926	-0.88
Mof_H 	H 	0.84571	0.84571	0.84571	0.305
Mof_Er	Er	0.74763	0.24763	0.25237	1.751
Mof_O 	O 	0.67074	0.17074	0.32926	-0.88
Mof_H 	H 	0.65429	0.15429	0.34571	0.305
Mof_Er	Er	0.24763	0.25237	0.74763	1.751
Mof_O 	O 	0.17074	0.32926	0.67074	-0.88
Mof_H 	H 	0.15429	0.34571	0.65429	0.305
Mof_Er	Er	0.25237	0.74763	0.24763	1.751
Mof_O 	O 	0.32926	0.67074	0.17074	-0.88
Mof_H 	H 	0.34571	0.65429	0.15429	0.305
_end
