data_functionalizedCrystal
_audit_creation_method	'EQeq! by Chris Wilmer'
_symmetry_space_group_name_H-M	'P1'
_symmetry_Int_Tables_number	1
_symmetry_cell_setting	triclinic
loop_
_symmetry_equiv_pos_as_xyz
  x,y,z
_cell_length_a	15.286
_cell_length_b	32.626
_cell_length_c	10.053
_cell_angle_alpha	90
_cell_angle_beta	107.2
_cell_angle_gamma	90
loop_
_atom_site_label
_atom_site_type_symbol
_atom_site_fract_x
_atom_site_fract_y
_atom_site_fract_z
_atom_site_charge
Mof_Cu	Cu	0.40849	0.71624	0.26962	0.931
Mof_Cu	Cu	0.48204	0.71743	0.01209	0.935
Mof_Cu	Cu	0.33414	0.77476	0.03323	0.932
Mof_O 	O 	0.3709	0.71792	0.0689	-0.747
Mof_H 	H 	0.3307	0.7004	0.0288	0.291
Mof_O 	O 	0.4564	0.65713	0.2603	-0.368
Mof_O 	O 	0.5183	0.66253	0.0816	-0.382
Mof_O 	O 	0.2833	0.72763	0.2818	-0.46
Mof_O 	O 	0.2253	0.76676	0.0923	-0.404
Mof_O 	O 	0.4448	0.72434	0.4679	-0.72
Mof_H 	H 	0.485	0.7073	0.5119	0.285
Mof_O 	O 	0.9651	0.8479	0.1168	-0.029
Mof_O 	O 	0.8431	0.8083	0.0918	-0.083
Mof_O 	O 	0.9856	0.8117	0.4699	-0.096
Mof_O 	O 	0.8778	0.8421	0.5164	-0.09
Mof_O 	O 	0.7598	0.5091	0.2074	-0.045
Mof_O 	O 	0.7484	0.5609	0.082	-0.049
Mof_O 	O 	0.7323	0.5131	0.4836	-0.033
Mof_O 	O 	0.7203	0.4698	0.6356	-0.02
Mof_O 	O 	0.588	0.77811	0.4495	-0.403
Mof_O 	O 	0.5343	0.73909	0.2595	-0.448
Mof_O 	O 	0.6074	0.31922	0.2372	-0.366
Mof_O 	O 	0.6748	0.33306	0.4588	-0.384
Mof_C 	C 	0.4985	0.64355	0.1788	0.34
Mof_C 	C 	0.5271	0.59985	0.1961	-0.057
Mof_C 	C 	0.4815	0.5721	0.2567	0.012
Mof_H 	H 	0.4308	0.5806	0.2826	0.061
Mof_C 	C 	0.5103	0.5328	0.2783	-0.068
Mof_H 	H 	0.4792	0.5151	0.3209	0.091
Mof_C 	C 	0.5832	0.518	0.2401	0.026
Mof_C 	C 	0.6267	0.5459	0.1764	0.075
Mof_C 	C 	0.5995	0.5856	0.1539	-0.051
Mof_H 	H 	0.6299	0.6033	0.1099	0.093
Mof_C 	C 	0.6099	0.4737	0.2655	0.024
Mof_C 	C 	0.6521	0.4576	0.3913	0.074
Mof_C 	C 	0.6654	0.4158	0.4145	-0.043
Mof_H 	H 	0.6969	0.4063	0.503	0.092
Mof_C 	C 	0.6326	0.38851	0.3084	-0.058
Mof_C 	C 	0.5856	0.4041	0.1814	0.007
Mof_H 	H 	0.5602	0.3863	0.1078	0.055
Mof_C 	C 	0.5751	0.4458	0.1605	-0.059
Mof_H 	H 	0.5435	0.4554	0.0723	0.076
Mof_C 	C 	0.6394	0.3437	0.3343	0.337
Mof_C 	C 	0.2191	0.74732	0.1966	0.364
Mof_C 	C 	0.1279	0.7484	0.2231	-0.083
Mof_C 	C 	0.0711	0.781	0.1712	-0.034
Mof_H 	H 	0.0902	0.8018	0.1233	0.08
Mof_C 	C 	0.9853	0.7825	0.1905	0.071
Mof_C 	C 	0.9572	0.7528	0.2724	0.033
Mof_C 	C 	0.0188	0.7197	0.3212	-0.078
Mof_H 	H 	0.0029	0.6989	0.373	0.092
Mof_C 	C 	0.0999	0.718	0.2936	0.035
Mof_H 	H 	0.1376	0.6954	0.3236	0.045
Mof_C 	C 	0.8665	0.7538	0.3023	0.03
Mof_C 	C 	0.8069	0.72271	0.253	-0.073
Mof_H 	H 	0.8257	0.7002	0.2116	0.088
Mof_C 	C 	0.7178	0.7237	0.2629	0.026
Mof_H 	H 	0.6762	0.7034	0.2206	0.045
Mof_C 	C 	0.6914	0.7549	0.3353	-0.08
Mof_C 	C 	0.7561	0.7845	0.3985	-0.034
Mof_H 	H 	0.742	0.8044	0.4553	0.084
Mof_C 	C 	0.8411	0.7844	0.3766	0.075
Mof_C 	C 	0.5971	0.75761	0.3487	0.373
Mof_N 	N 	0.7103	0.5346	0.1314	0.013
Mof_N 	N 	0.9252	0.8161	0.1271	0.009
Mof_N 	N 	0.9048	0.8153	0.4551	-0.003
Mof_N 	N 	0.6921	0.484	0.5186	0.002
Mof_O 	O 	0.9452	0.8381	0.0424	-0.074
Mof_O 	O 	0.8706	0.8332	0.1756	-0.041
Mof_O 	O 	0.7314	0.4993	0.121	-0.049
Mof_O 	O 	0.691	0.543	0.0072	-0.068
Mof_O 	O 	0.6943	0.5207	0.5035	-0.053
Mof_O 	O 	0.6689	0.4725	0.6192	-0.089
Mof_Cu	Cu	0.59151	0.21624	0.23038	0.932
Mof_Cu	Cu	0.51796	0.21743	0.48791	0.939
Mof_Cu	Cu	0.66586	0.27476	0.46677	0.934
Mof_O 	O 	0.6291	0.21792	0.4311	-0.745
Mof_H 	H 	0.6693	0.2004	0.4712	0.293
Mof_O 	O 	0.5436	0.15713	0.2397	-0.367
Mof_O 	O 	0.4817	0.16253	0.4184	-0.38
Mof_O 	O 	0.7167	0.22763	0.2182	-0.459
Mof_O 	O 	0.7747	0.26676	0.4077	-0.402
Mof_O 	O 	0.5552	0.22434	0.0321	-0.708
Mof_H 	H 	0.515	0.2073	0.9881	0.276
Mof_O 	O 	0.0349	0.3479	0.3832	-0.03
Mof_O 	O 	0.1569	0.3083	0.4082	-0.081
Mof_O 	O 	0.0144	0.3117	0.0301	-0.093
Mof_O 	O 	0.1222	0.3421	0.9836	-0.095
Mof_O 	O 	0.2402	0.0091	0.2926	-0.044
Mof_O 	O 	0.2516	0.0609	0.418	-0.049
Mof_O 	O 	0.2677	0.0131	0.0164	-0.03
Mof_O 	O 	0.2797	0.9698	0.8644	-0.02
Mof_O 	O 	0.412	0.27811	0.0505	-0.399
Mof_O 	O 	0.4657	0.23909	0.2405	-0.447
Mof_O 	O 	0.3926	0.81922	0.2628	-0.368
Mof_O 	O 	0.3252	0.83306	0.0412	-0.387
Mof_C 	C 	0.5015	0.14355	0.3212	0.339
Mof_C 	C 	0.4729	0.09985	0.3039	-0.056
Mof_C 	C 	0.5185	0.0721	0.2433	0.012
Mof_H 	H 	0.5692	0.0806	0.2174	0.061
Mof_C 	C 	0.4897	0.0328	0.2217	-0.068
Mof_H 	H 	0.5208	0.0151	0.1791	0.091
Mof_C 	C 	0.4168	0.018	0.2599	0.026
Mof_C 	C 	0.3733	0.0459	0.3236	0.075
Mof_C 	C 	0.4005	0.0856	0.3461	-0.051
Mof_H 	H 	0.3701	0.1033	0.3901	0.094
Mof_C 	C 	0.3901	0.9737	0.2345	0.021
Mof_C 	C 	0.3479	0.9576	0.1087	0.077
Mof_C 	C 	0.3346	0.9158	0.0855	-0.054
Mof_H 	H 	0.3031	0.9063	0.997	0.099
Mof_C 	C 	0.3674	0.88851	0.1916	-0.054
Mof_C 	C 	0.4144	0.9041	0.3186	0.003
Mof_H 	H 	0.4398	0.8863	0.3922	0.054
Mof_C 	C 	0.4249	0.9458	0.3395	-0.057
Mof_H 	H 	0.4565	0.9554	0.4277	0.074
Mof_C 	C 	0.3606	0.8437	0.1657	0.336
Mof_C 	C 	0.7809	0.24732	0.3034	0.364
Mof_C 	C 	0.8721	0.2484	0.2769	-0.081
Mof_C 	C 	0.9289	0.281	0.3288	-0.033
Mof_H 	H 	0.9098	0.3018	0.3767	0.081
Mof_C 	C 	0.0147	0.2825	0.3095	0.072
Mof_C 	C 	0.0428	0.2528	0.2276	0.033
Mof_C 	C 	0.9812	0.2197	0.1788	-0.076
Mof_H 	H 	0.9971	0.1989	0.127	0.093
Mof_C 	C 	0.9001	0.218	0.2064	0.035
Mof_H 	H 	0.8624	0.1954	0.1764	0.047
Mof_C 	C 	0.1335	0.2538	0.1977	0.03
Mof_C 	C 	0.1931	0.22271	0.247	-0.071
Mof_H 	H 	0.1743	0.2002	0.2884	0.089
Mof_C 	C 	0.2822	0.2237	0.2371	0.027
Mof_H 	H 	0.3238	0.2034	0.2794	0.046
Mof_C 	C 	0.3086	0.2549	0.1647	-0.078
Mof_C 	C 	0.2439	0.2845	0.1015	-0.034
Mof_H 	H 	0.258	0.3044	0.0447	0.086
Mof_C 	C 	0.1589	0.2844	0.1234	0.076
Mof_C 	C 	0.4029	0.25761	0.1513	0.372
Mof_N 	N 	0.2897	0.0346	0.3686	0.013
Mof_N 	N 	0.0748	0.3161	0.3729	0.008
Mof_N 	N 	0.0952	0.3153	0.0449	-0
Mof_N 	N 	0.3079	0.984	0.9814	0.002
Mof_O 	O 	0.0548	0.3381	0.4576	-0.071
Mof_O 	O 	0.1294	0.3332	0.3244	-0.04
Mof_O 	O 	0.2686	0.9993	0.379	-0.05
Mof_O 	O 	0.309	0.043	0.4928	-0.068
Mof_O 	O 	0.3057	0.0207	0.9965	-0.057
Mof_O 	O 	0.3311	0.9725	0.8808	-0.088
Mof_Cu	Cu	0.59151	0.28376	0.73038	0.932
Mof_Cu	Cu	0.51796	0.28257	0.98791	0.936
Mof_Cu	Cu	0.66586	0.22524	0.96677	0.932
Mof_O 	O 	0.6291	0.28208	0.9311	-0.747
Mof_H 	H 	0.6693	0.2996	0.9712	0.291
Mof_O 	O 	0.5436	0.34287	0.7397	-0.368
Mof_O 	O 	0.4817	0.33747	0.9184	-0.382
Mof_O 	O 	0.7167	0.27237	0.7182	-0.46
Mof_O 	O 	0.7747	0.23324	0.9077	-0.404
Mof_O 	O 	0.5552	0.27566	0.5321	-0.72
Mof_H 	H 	0.515	0.2927	0.4881	0.285
Mof_O 	O 	0.0349	0.1521	0.8832	-0.029
Mof_O 	O 	0.1569	0.1917	0.9082	-0.083
Mof_O 	O 	0.0144	0.1883	0.5301	-0.096
Mof_O 	O 	0.1222	0.1579	0.4836	-0.09
Mof_O 	O 	0.2402	0.4909	0.7926	-0.045
Mof_O 	O 	0.2516	0.4391	0.918	-0.049
Mof_O 	O 	0.2677	0.4869	0.5164	-0.033
Mof_O 	O 	0.2797	0.5302	0.3644	-0.02
Mof_O 	O 	0.412	0.22189	0.5505	-0.403
Mof_O 	O 	0.4657	0.26091	0.7405	-0.448
Mof_O 	O 	0.3926	0.68078	0.7628	-0.366
Mof_O 	O 	0.3252	0.66694	0.5412	-0.384
Mof_C 	C 	0.5015	0.35645	0.8212	0.34
Mof_C 	C 	0.4729	0.40015	0.8039	-0.057
Mof_C 	C 	0.5185	0.4279	0.7433	0.012
Mof_H 	H 	0.5692	0.4194	0.7174	0.061
Mof_C 	C 	0.4897	0.4672	0.7217	-0.068
Mof_H 	H 	0.5208	0.4849	0.6791	0.091
Mof_C 	C 	0.4168	0.482	0.7599	0.026
Mof_C 	C 	0.3733	0.4541	0.8236	0.075
Mof_C 	C 	0.4005	0.4144	0.8461	-0.051
Mof_H 	H 	0.3701	0.3967	0.8901	0.093
Mof_C 	C 	0.3901	0.5263	0.7345	0.024
Mof_C 	C 	0.3479	0.5424	0.6087	0.074
Mof_C 	C 	0.3346	0.5842	0.5855	-0.043
Mof_H 	H 	0.3031	0.5937	0.497	0.092
Mof_C 	C 	0.3674	0.61149	0.6916	-0.058
Mof_C 	C 	0.4144	0.5959	0.8186	0.007
Mof_H 	H 	0.4398	0.6137	0.8922	0.055
Mof_C 	C 	0.4249	0.5542	0.8395	-0.059
Mof_H 	H 	0.4565	0.5446	0.9277	0.076
Mof_C 	C 	0.3606	0.6563	0.6657	0.337
Mof_C 	C 	0.7809	0.25268	0.8034	0.364
Mof_C 	C 	0.8721	0.2516	0.7769	-0.083
Mof_C 	C 	0.9289	0.219	0.8288	-0.034
Mof_H 	H 	0.9098	0.1982	0.8767	0.08
Mof_C 	C 	0.0147	0.2175	0.8095	0.071
Mof_C 	C 	0.0428	0.2472	0.7276	0.033
Mof_C 	C 	0.9812	0.2803	0.6788	-0.078
Mof_H 	H 	0.9971	0.3011	0.627	0.092
Mof_C 	C 	0.9001	0.282	0.7064	0.035
Mof_H 	H 	0.8624	0.3046	0.6764	0.045
Mof_C 	C 	0.1335	0.2462	0.6977	0.03
Mof_C 	C 	0.1931	0.27729	0.747	-0.073
Mof_H 	H 	0.1743	0.2998	0.7884	0.088
Mof_C 	C 	0.2822	0.2763	0.7371	0.026
Mof_H 	H 	0.3238	0.2966	0.7794	0.045
Mof_C 	C 	0.3086	0.2451	0.6647	-0.08
Mof_C 	C 	0.2439	0.2155	0.6015	-0.034
Mof_H 	H 	0.258	0.1956	0.5447	0.084
Mof_C 	C 	0.1589	0.2156	0.6234	0.075
Mof_C 	C 	0.4029	0.24239	0.6513	0.373
Mof_N 	N 	0.2897	0.4654	0.8686	0.013
Mof_N 	N 	0.0748	0.1839	0.8729	0.009
Mof_N 	N 	0.0952	0.1847	0.5449	-0.003
Mof_N 	N 	0.3079	0.516	0.4814	0.002
Mof_O 	O 	0.0548	0.1619	0.9576	-0.074
Mof_O 	O 	0.1294	0.1668	0.8244	-0.041
Mof_O 	O 	0.2686	0.5007	0.879	-0.049
Mof_O 	O 	0.309	0.457	0.9928	-0.068
Mof_O 	O 	0.3057	0.4793	0.4965	-0.053
Mof_O 	O 	0.3311	0.5275	0.3808	-0.089
Mof_Cu	Cu	0.40849	0.78376	0.76962	0.932
Mof_Cu	Cu	0.48204	0.78257	0.51209	0.939
Mof_Cu	Cu	0.33414	0.72524	0.53323	0.934
Mof_O 	O 	0.3709	0.78208	0.5689	-0.745
Mof_H 	H 	0.3307	0.7996	0.5288	0.293
Mof_O 	O 	0.4564	0.84287	0.7603	-0.367
Mof_O 	O 	0.5183	0.83747	0.5816	-0.38
Mof_O 	O 	0.2833	0.77237	0.7818	-0.459
Mof_O 	O 	0.2253	0.73324	0.5923	-0.402
Mof_O 	O 	0.4448	0.77566	0.9679	-0.708
Mof_H 	H 	0.485	0.7927	0.0119	0.276
Mof_O 	O 	0.9651	0.6521	0.6168	-0.03
Mof_O 	O 	0.8431	0.6917	0.5918	-0.081
Mof_O 	O 	0.9856	0.6883	0.9699	-0.093
Mof_O 	O 	0.8778	0.6579	0.0164	-0.095
Mof_O 	O 	0.7598	0.9909	0.7074	-0.044
Mof_O 	O 	0.7484	0.9391	0.582	-0.049
Mof_O 	O 	0.7323	0.9869	0.9836	-0.03
Mof_O 	O 	0.7203	0.0302	0.1356	-0.02
Mof_O 	O 	0.588	0.72189	0.9495	-0.399
Mof_O 	O 	0.5343	0.76091	0.7595	-0.447
Mof_O 	O 	0.6074	0.18078	0.7372	-0.368
Mof_O 	O 	0.6748	0.16694	0.9588	-0.387
Mof_C 	C 	0.4985	0.85645	0.6788	0.339
Mof_C 	C 	0.5271	0.90015	0.6961	-0.056
Mof_C 	C 	0.4815	0.9279	0.7567	0.012
Mof_H 	H 	0.4308	0.9194	0.7826	0.061
Mof_C 	C 	0.5103	0.9672	0.7783	-0.068
Mof_H 	H 	0.4792	0.9849	0.8209	0.091
Mof_C 	C 	0.5832	0.982	0.7401	0.026
Mof_C 	C 	0.6267	0.9541	0.6764	0.075
Mof_C 	C 	0.5995	0.9144	0.6539	-0.051
Mof_H 	H 	0.6299	0.8967	0.6099	0.094
Mof_C 	C 	0.6099	0.0263	0.7655	0.021
Mof_C 	C 	0.6521	0.0424	0.8913	0.077
Mof_C 	C 	0.6654	0.0842	0.9145	-0.054
Mof_H 	H 	0.6969	0.0937	0.003	0.099
Mof_C 	C 	0.6326	0.11149	0.8084	-0.054
Mof_C 	C 	0.5856	0.0959	0.6814	0.003
Mof_H 	H 	0.5602	0.1137	0.6078	0.054
Mof_C 	C 	0.5751	0.0542	0.6605	-0.057
Mof_H 	H 	0.5435	0.0446	0.5723	0.074
Mof_C 	C 	0.6394	0.1563	0.8343	0.336
Mof_C 	C 	0.2191	0.75268	0.6966	0.364
Mof_C 	C 	0.1279	0.7516	0.7231	-0.081
Mof_C 	C 	0.0711	0.719	0.6712	-0.033
Mof_H 	H 	0.0902	0.6982	0.6233	0.081
Mof_C 	C 	0.9853	0.7175	0.6905	0.072
Mof_C 	C 	0.9572	0.7472	0.7724	0.033
Mof_C 	C 	0.0188	0.7803	0.8212	-0.076
Mof_H 	H 	0.0029	0.8011	0.873	0.093
Mof_C 	C 	0.0999	0.782	0.7936	0.035
Mof_H 	H 	0.1376	0.8046	0.8236	0.047
Mof_C 	C 	0.8665	0.7462	0.8023	0.03
Mof_C 	C 	0.8069	0.77729	0.753	-0.071
Mof_H 	H 	0.8257	0.7998	0.7116	0.089
Mof_C 	C 	0.7178	0.7763	0.7629	0.027
Mof_H 	H 	0.6762	0.7966	0.7206	0.046
Mof_C 	C 	0.6914	0.7451	0.8353	-0.078
Mof_C 	C 	0.7561	0.7155	0.8985	-0.034
Mof_H 	H 	0.742	0.6956	0.9553	0.086
Mof_C 	C 	0.8411	0.7156	0.8766	0.076
Mof_C 	C 	0.5971	0.74239	0.8487	0.372
Mof_N 	N 	0.7103	0.9654	0.6314	0.013
Mof_N 	N 	0.9252	0.6839	0.6271	0.008
Mof_N 	N 	0.9048	0.6847	0.9551	-0
Mof_N 	N 	0.6921	0.016	0.0186	0.002
Mof_O 	O 	0.9452	0.6619	0.5424	-0.071
Mof_O 	O 	0.8706	0.6668	0.6756	-0.04
Mof_O 	O 	0.7314	0.0007	0.621	-0.05
Mof_O 	O 	0.691	0.957	0.5072	-0.068
Mof_O 	O 	0.6943	0.9793	0.0035	-0.057
Mof_O 	O 	0.6689	0.0275	0.1192	-0.088
_end
