data_functionalizedCrystal
_audit_creation_method	'EQeq! by Chris Wilmer'
_symmetry_space_group_name_H-M	'P1'
_symmetry_Int_Tables_number	1
_symmetry_cell_setting	triclinic
loop_
_symmetry_equiv_pos_as_xyz
  x,y,z
_cell_length_a	14.639
_cell_length_b	12.852
_cell_length_c	12.8392
_cell_angle_alpha	90
_cell_angle_beta	104.29
_cell_angle_gamma	90
loop_
_atom_site_label
_atom_site_type_symbol
_atom_site_fract_x
_atom_site_fract_y
_atom_site_fract_z
_atom_site_charge
Mof_Er	Er	0.23611	0.06735	0.32048	2.551
Mof_O 	O 	0.1959	0.0147	0.9671	-0.438
Mof_O 	O 	0.1924	0.0511	0.1335	-0.515
Mof_O 	O 	0.0771	0.0703	0.2729	-0.671
Mof_O 	O 	0.39	0.062	0.432	-0.324
Mof_O 	O 	0.2258	0.8877	0.2953	-0.616
Mof_O 	O 	0.2413	0.7259	0.2511	-0.625
Mof_O 	O 	0.3839	0.0407	0.2742	-0.493
Mof_O 	O 	0.2884	0.185	0.4568	-0.559
Mof_C 	C 	0.2305	0.0128	0.0637	0.544
Mof_H 	H 	0.289	0.9811	0.0878	-0.141
Mof_C 	C 	0.2667	0.8158	0.2651	0.852
Mof_H 	H 	0.3245	0.8316	0.251	-0.248
Mof_C 	C 	0.4251	0.0201	0.366	0.595
Mof_H 	H 	0.4776	0.9768	0.384	-0.091
Mof_O 	O 	0.385	0.987	0.431	-0.257
Mof_O 	O 	0.1949	0.2012	0.431	-0.525
Mof_H 	H 	0.1852	0.2612	0.4821	0.003
Mof_Er	Er	0.73611	0.56735	0.32048	2.573
Mof_O 	O 	0.6959	0.5147	0.9671	-0.462
Mof_O 	O 	0.6924	0.5511	0.1335	-0.519
Mof_O 	O 	0.5771	0.5703	0.2729	-0.699
Mof_O 	O 	0.89	0.562	0.432	-0.311
Mof_O 	O 	0.7258	0.3877	0.2953	-0.611
Mof_O 	O 	0.7413	0.2259	0.2511	-0.614
Mof_O 	O 	0.8839	0.5407	0.2742	-0.475
Mof_O 	O 	0.7884	0.685	0.4568	-0.554
Mof_C 	C 	0.7305	0.5128	0.0637	0.597
Mof_H 	H 	0.789	0.4811	0.0878	-0.162
Mof_C 	C 	0.7667	0.3158	0.2651	0.847
Mof_H 	H 	0.8245	0.3316	0.251	-0.24
Mof_C 	C 	0.9251	0.5201	0.366	0.589
Mof_H 	H 	0.9776	0.4768	0.384	-0.066
Mof_O 	O 	0.885	0.487	0.431	-0.251
Mof_O 	O 	0.6949	0.7012	0.431	-0.519
Mof_H 	H 	0.6852	0.7612	0.4821	0.013
Mof_Er	Er	0.76389	0.06735	0.17952	2.531
Mof_O 	O 	0.8041	0.0147	0.5329	-0.513
Mof_O 	O 	0.8076	0.0511	0.3665	-0.52
Mof_O 	O 	0.9229	0.0703	0.2271	-0.618
Mof_O 	O 	0.61	0.062	0.068	-0.355
Mof_O 	O 	0.7742	0.8877	0.2047	-0.602
Mof_O 	O 	0.7587	0.7259	0.2489	-0.616
Mof_O 	O 	0.6161	0.0407	0.2258	-0.484
Mof_O 	O 	0.7116	0.185	0.0432	-0.562
Mof_C 	C 	0.7695	0.0128	0.4363	0.686
Mof_H 	H 	0.711	0.9811	0.4122	-0.179
Mof_C 	C 	0.7333	0.8158	0.2349	0.847
Mof_H 	H 	0.6755	0.8316	0.249	-0.245
Mof_C 	C 	0.5749	0.0201	0.134	0.578
Mof_H 	H 	0.5224	0.9768	0.116	-0.094
Mof_O 	O 	0.615	0.987	0.069	-0.247
Mof_O 	O 	0.8051	0.2012	0.069	-0.452
Mof_H 	H 	0.8148	0.2612	0.0179	0.06
Mof_Er	Er	0.26389	0.56735	0.17952	2.572
Mof_O 	O 	0.3041	0.5147	0.5329	-0.528
Mof_O 	O 	0.3076	0.5511	0.3665	-0.535
Mof_O 	O 	0.4229	0.5703	0.2271	-0.699
Mof_O 	O 	0.11	0.562	0.068	-0.358
Mof_O 	O 	0.2742	0.3877	0.2047	-0.617
Mof_O 	O 	0.2587	0.2259	0.2489	-0.624
Mof_O 	O 	0.1161	0.5407	0.2258	-0.514
Mof_O 	O 	0.2116	0.685	0.0432	-0.569
Mof_C 	C 	0.2695	0.5128	0.4363	0.697
Mof_H 	H 	0.211	0.4811	0.4122	-0.19
Mof_C 	C 	0.2333	0.3158	0.2349	0.851
Mof_H 	H 	0.1755	0.3316	0.249	-0.254
Mof_C 	C 	0.0749	0.5201	0.134	0.631
Mof_H 	H 	0.0224	0.4768	0.116	-0.14
Mof_O 	O 	0.115	0.487	0.069	-0.283
Mof_O 	O 	0.3051	0.7012	0.069	-0.478
Mof_H 	H 	0.3148	0.7612	0.0179	0.039
Mof_Er	Er	0.76389	0.93265	0.67952	2.571
Mof_O 	O 	0.8041	0.9853	0.0329	-0.548
Mof_O 	O 	0.8076	0.9489	0.8665	-0.527
Mof_O 	O 	0.9229	0.9297	0.7271	-0.609
Mof_O 	O 	0.61	0.938	0.568	-0.325
Mof_O 	O 	0.7742	0.1123	0.7047	-0.601
Mof_O 	O 	0.7587	0.2741	0.7489	-0.61
Mof_O 	O 	0.6161	0.9593	0.7258	-0.485
Mof_O 	O 	0.7116	0.815	0.5432	-0.559
Mof_C 	C 	0.7695	0.9872	0.9363	0.73
Mof_H 	H 	0.711	0.0189	0.9122	-0.174
Mof_C 	C 	0.7333	0.1842	0.7349	0.852
Mof_H 	H 	0.6755	0.1684	0.749	-0.243
Mof_C 	C 	0.5749	0.9799	0.634	0.586
Mof_H 	H 	0.5224	0.0232	0.616	-0.086
Mof_O 	O 	0.615	0.013	0.569	-0.254
Mof_O 	O 	0.8051	0.7988	0.569	-0.511
Mof_H 	H 	0.8148	0.7388	0.5179	0.016
Mof_Er	Er	0.26389	0.43265	0.67952	2.594
Mof_O 	O 	0.3041	0.4853	0.0329	-0.591
Mof_O 	O 	0.3076	0.4489	0.8665	-0.551
Mof_O 	O 	0.4229	0.4297	0.7271	-0.693
Mof_O 	O 	0.11	0.438	0.568	-0.34
Mof_O 	O 	0.2742	0.6123	0.7047	-0.613
Mof_O 	O 	0.2587	0.7741	0.7489	-0.614
Mof_O 	O 	0.1161	0.4593	0.7258	-0.503
Mof_O 	O 	0.2116	0.315	0.5432	-0.567
Mof_C 	C 	0.2695	0.4872	0.9363	0.796
Mof_H 	H 	0.211	0.5189	0.9122	-0.209
Mof_C 	C 	0.2333	0.6842	0.7349	0.853
Mof_H 	H 	0.1755	0.6684	0.749	-0.25
Mof_C 	C 	0.0749	0.4799	0.634	0.612
Mof_H 	H 	0.0224	0.5232	0.616	-0.121
Mof_O 	O 	0.115	0.513	0.569	-0.27
Mof_O 	O 	0.3051	0.2988	0.569	-0.522
Mof_H 	H 	0.3148	0.2388	0.5179	0.005
Mof_Er	Er	0.23611	0.93265	0.82048	2.512
Mof_O 	O 	0.1959	0.9853	0.4671	-0.526
Mof_O 	O 	0.1924	0.9489	0.6335	-0.534
Mof_O 	O 	0.0771	0.9297	0.7729	-0.664
Mof_O 	O 	0.39	0.938	0.932	-0.324
Mof_O 	O 	0.2258	0.1123	0.7953	-0.605
Mof_O 	O 	0.2413	0.2741	0.7511	-0.619
Mof_O 	O 	0.3839	0.9593	0.7742	-0.468
Mof_O 	O 	0.2884	0.815	0.9568	-0.48
Mof_C 	C 	0.2305	0.9872	0.5637	0.682
Mof_H 	H 	0.289	0.0189	0.5878	-0.177
Mof_C 	C 	0.2667	0.1842	0.7651	0.852
Mof_H 	H 	0.3245	0.1684	0.751	-0.243
Mof_C 	C 	0.4251	0.9799	0.866	0.541
Mof_H 	H 	0.4776	0.0232	0.884	-0.058
Mof_O 	O 	0.385	0.013	0.931	-0.216
Mof_O 	O 	0.1949	0.7988	0.931	-0.495
Mof_H 	H 	0.1852	0.7388	0.9821	0.113
Mof_Er	Er	0.73611	0.43265	0.82048	2.548
Mof_O 	O 	0.6959	0.4853	0.4671	-0.523
Mof_O 	O 	0.6924	0.4489	0.6335	-0.53
Mof_O 	O 	0.5771	0.4297	0.7729	-0.692
Mof_O 	O 	0.89	0.438	0.932	-0.302
Mof_O 	O 	0.7258	0.6123	0.7953	-0.604
Mof_O 	O 	0.7413	0.7741	0.7511	-0.611
Mof_O 	O 	0.8839	0.4593	0.7742	-0.463
Mof_O 	O 	0.7884	0.315	0.9568	-0.45
Mof_C 	C 	0.7305	0.4872	0.5637	0.693
Mof_H 	H 	0.789	0.5189	0.5878	-0.179
Mof_C 	C 	0.7667	0.6842	0.7651	0.85
Mof_H 	H 	0.8245	0.6684	0.751	-0.236
Mof_C 	C 	0.9251	0.4799	0.866	0.575
Mof_H 	H 	0.9776	0.5232	0.884	-0.051
Mof_O 	O 	0.885	0.513	0.931	-0.236
Mof_O 	O 	0.6949	0.2988	0.931	-0.478
Mof_H 	H 	0.6852	0.2388	0.9821	0.158
Mof_C 	C 	-6.07086e-18	0.108	0.25	0.885
Mof_H 	H 	-1.21417e-17	0.1799	0.25	-0.267
Mof_C 	C 	0.5	0.608	0.25	1.02
Mof_H 	H 	0.5	0.6799	0.25	-0.291
Mof_C 	C 	3.07508e-33	0.892	0.75	0.882
Mof_H 	H 	-4.85669e-17	0.8201	0.75	-0.261
Mof_C 	C 	0.5	0.392	0.75	1.022
Mof_H 	H 	0.5	0.3201	0.75	-0.286
Mof_C 	C 	0.25	0.25	0.5	1.134
Mof_C 	C 	0.75	0.25	-0	0.776
Mof_C 	C 	0.75	0.75	0.5	1.111
Mof_C 	C 	0.25	0.75	-0	0.882
_end
