data_functionalizedCrystal
_audit_creation_method	'EQeq! by Chris Wilmer'
_symmetry_space_group_name_H-M	'P1'
_symmetry_Int_Tables_number	1
_symmetry_cell_setting	triclinic
loop_
_symmetry_equiv_pos_as_xyz
  x,y,z
_cell_length_a	11.0215
_cell_length_b	15.1486
_cell_length_c	15.1486
_cell_angle_alpha	65.6835
_cell_angle_beta	75.9647
_cell_angle_gamma	104.035
loop_
_atom_site_label
_atom_site_type_symbol
_atom_site_fract_x
_atom_site_fract_y
_atom_site_fract_z
_atom_site_charge
Mof_Fe	Fe	0.5	0.5	0.5	0.601
Mof_H 	H 	0.477	0.6872	0.2918	0.234
Mof_H 	H 	0.3521	0.7072	0.2686	0.215
Mof_H 	H 	0.4452	0.6761	0.2006	0.211
Mof_H 	H 	0.0345	0.2416	0.5287	0.287
Mof_H 	H 	0.0449	0.2758	0.4135	0.284
Mof_H 	H 	0.9556	0.3094	0.481	0.304
Mof_H 	H 	0.0266	0.7112	0.2417	0.231
Mof_H 	H 	0.1597	0.7139	0.2624	0.221
Mof_H 	H 	0.0186	0.6295	0.3505	0.231
Mof_H 	H 	0.1354	0.3754	0.145	0.241
Mof_H 	H 	0.1279	0.3313	0.2605	0.233
Mof_H 	H 	0.2627	0.419	0.1664	0.232
Mof_H 	H 	0.9909	0.6281	0.1394	0.148
Mof_H 	H 	0.523	0.3128	0.7082	0.237
Mof_H 	H 	0.6479	0.2928	0.7314	0.219
Mof_H 	H 	0.5548	0.3239	0.7994	0.222
Mof_H 	H 	0.9655	0.7584	0.4713	0.214
Mof_H 	H 	0.9551	0.7242	0.5865	0.207
Mof_H 	H 	0.0444	0.6906	0.519	0.176
Mof_H 	H 	0.9734	0.2888	0.7583	0.279
Mof_H 	H 	0.8403	0.2861	0.7376	0.25
Mof_H 	H 	0.9814	0.3705	0.6495	0.273
Mof_H 	H 	0.8646	0.6246	0.855	0.281
Mof_H 	H 	0.8721	0.6687	0.7395	0.268
Mof_H 	H 	0.7373	0.581	0.8336	0.261
Mof_H 	H 	0.0091	0.3719	0.8606	0.103
Mof_C 	C 	0.27609	0.34923	0.73596	0.053
Mof_C 	C 	0.31858	0.55269	0.34455	0.242
Mof_C 	C 	0.20202	0.49232	0.33986	-0.18
Mof_C 	C 	0.15574	0.39388	0.42616	0.289
Mof_C 	C 	0.4059	0.6658	0.2698	-0.714
Mof_C 	C 	0.0372	0.2966	0.4658	-0.915
Mof_C 	C 	0.0836	0.5956	0.2359	0.252
Mof_C 	C 	0.14155	0.52265	0.2603	-0.164
Mof_C 	C 	0.1194	0.47509	0.19969	0.239
Mof_C 	C 	0.071	0.669	0.2763	-0.747
Mof_C 	C 	0.1654	0.3929	0.1922	-0.74
Mof_C 	C 	0.72391	0.65077	0.26404	0.06
Mof_C 	C 	0.68142	0.44731	0.65545	0.232
Mof_C 	C 	0.79798	0.50768	0.66014	-0.127
Mof_C 	C 	0.84426	0.60612	0.57384	0.208
Mof_C 	C 	0.5941	0.3342	0.7302	-0.716
Mof_C 	C 	0.9628	0.7034	0.5342	-0.612
Mof_C 	C 	0.9164	0.4044	0.7641	0.296
Mof_C 	C 	0.85845	0.47735	0.7397	-0.192
Mof_C 	C 	0.8806	0.52491	0.80031	0.285
Mof_C 	C 	0.929	0.331	0.7237	-0.824
Mof_C 	C 	0.8346	0.6071	0.8078	-0.813
Mof_S 	S 	0.18452	0.2828	0.86063	-0.106
Mof_S 	S 	0.81548	0.7172	0.13937	-0.114
Mof_N 	N 	0.34325	0.39624	0.64659	-0.202
Mof_N 	N 	0.34162	0.49396	0.4282	-0.178
Mof_N 	N 	0.24124	0.39797	0.47615	-0.157
Mof_N 	N 	0.05055	0.51523	0.14218	-0.171
Mof_N 	N 	0.03197	0.58917	0.16626	-0.249
Mof_N 	N 	0.65675	0.60376	0.35341	-0.203
Mof_N 	N 	0.65838	0.50604	0.5718	-0.176
Mof_N 	N 	0.75876	0.60203	0.52385	-0.138
Mof_N 	N 	0.94945	0.48477	0.85782	-0.152
Mof_N 	N 	0.96803	0.41083	0.83374	-0.202
Mof_Fe	Fe	-0	0.5	-0	0.524
Mof_H 	H 	0.7688	0.2918	0.021	0.221
Mof_H 	H 	0.6207	0.2686	0.0242	0.198
Mof_H 	H 	0.6458	0.2006	0.1233	0.2
Mof_H 	H 	0.5632	0.5287	0.2297	0.243
Mof_H 	H 	0.4584	0.4135	0.3107	0.24
Mof_H 	H 	0.4366	0.481	0.2096	0.233
Mof_H 	H 	0.2683	0.2417	0.0471	0.225
Mof_H 	H 	0.4221	0.2624	0.0237	0.209
Mof_H 	H 	0.3691	0.3505	0.02	0.225
Mof_H 	H 	0.2804	0.145	0.4796	0.254
Mof_H 	H 	0.3884	0.2605	0.4082	0.247
Mof_H 	H 	0.4291	0.1664	0.4146	0.24
Mof_H 	H 	0.1303	0.1394	0.2325	0.108
Mof_H 	H 	0.2312	0.7082	0.979	0.256
Mof_H 	H 	0.3793	0.7314	0.9758	0.237
Mof_H 	H 	0.3542	0.7994	0.8767	0.235
Mof_H 	H 	0.4368	0.4713	0.7703	0.253
Mof_H 	H 	0.5416	0.5865	0.6893	0.245
Mof_H 	H 	0.5634	0.519	0.7904	0.244
Mof_H 	H 	0.7317	0.7583	0.9529	0.286
Mof_H 	H 	0.5779	0.7376	0.9763	0.263
Mof_H 	H 	0.6309	0.6495	0.98	0.28
Mof_H 	H 	0.7196	0.855	0.5204	0.267
Mof_H 	H 	0.6116	0.7395	0.5918	0.253
Mof_H 	H 	0.5709	0.8336	0.5854	0.253
Mof_H 	H 	0.8697	0.8606	0.7675	0.142
Mof_C 	C 	0.01205	0.73596	0.91481	0.017
Mof_C 	C 	0.66313	0.34455	0.10276	0.223
Mof_C 	C 	0.54188	0.33986	0.16782	-0.152
Mof_C 	C 	0.5819	0.42616	0.17996	0.241
Mof_C 	C 	0.6757	0.2698	0.0644	-0.681
Mof_C 	C 	0.503	0.4658	0.2376	-0.75
Mof_C 	C 	0.3195	0.2359	0.1685	0.25
Mof_C 	C 	0.40185	0.2603	0.21705	-0.171
Mof_C 	C 	0.31909	0.19969	0.32522	0.254
Mof_C 	C 	0.3473	0.2763	0.0547	-0.729
Mof_C 	C 	0.3576	0.1922	0.4149	-0.765
Mof_C 	C 	0.98795	0.26404	0.08519	0.093
Mof_C 	C 	0.33687	0.65545	0.89724	0.251
Mof_C 	C 	0.45812	0.66014	0.83218	-0.153
Mof_C 	C 	0.4181	0.57384	0.82004	0.252
Mof_C 	C 	0.3243	0.7302	0.9356	-0.751
Mof_C 	C 	0.497	0.5342	0.7624	-0.766
Mof_C 	C 	0.6805	0.7641	0.8315	0.299
Mof_C 	C 	0.59815	0.7397	0.78295	-0.186
Mof_C 	C 	0.68091	0.80031	0.67478	0.27
Mof_C 	C 	0.6527	0.7237	0.9453	-0.844
Mof_C 	C 	0.6424	0.8078	0.5851	-0.786
Mof_S 	S 	0.04515	0.86063	0.85657	-0.091
Mof_S 	S 	0.95485	0.13937	0.14343	-0.126
Mof_N 	N 	0.98984	0.64659	0.95717	-0.153
Mof_N 	N 	0.76982	0.4282	0.07784	-0.171
Mof_N 	N 	0.71739	0.47615	0.12588	-0.149
Mof_N 	N 	0.19273	0.14218	0.34259	-0.171
Mof_N 	N 	0.19823	0.16626	0.24457	-0.221
Mof_N 	N 	0.01016	0.35341	0.04283	-0.23
Mof_N 	N 	0.23018	0.5718	0.92216	-0.167
Mof_N 	N 	0.28261	0.52385	0.87412	-0.142
Mof_N 	N 	0.80727	0.85782	0.65741	-0.152
Mof_N 	N 	0.80177	0.83374	0.75543	-0.231
Mof_Fe	Fe	-5.51465e-17	0	0.5	0.531
Mof_H 	H 	0.7898	0.021	0.6872	0.234
Mof_H 	H 	0.6449	0.0242	0.7072	0.211
Mof_H 	H 	0.7691	0.1233	0.6761	0.218
Mof_H 	H 	0.7929	0.2297	0.2416	0.251
Mof_H 	H 	0.7691	0.3107	0.2758	0.248
Mof_H 	H 	0.6462	0.2096	0.3094	0.237
Mof_H 	H 	0.3154	0.0471	0.7112	0.242
Mof_H 	H 	0.4458	0.0237	0.7139	0.222
Mof_H 	H 	0.3891	0.02	0.6295	0.235
Mof_H 	H 	0.76	0.4796	0.3754	0.267
Mof_H 	H 	0.7966	0.4082	0.3313	0.26
Mof_H 	H 	0.8437	0.4146	0.419	0.257
Mof_H 	H 	0.3628	0.2325	0.6281	0.123
Mof_H 	H 	0.2102	0.979	0.3128	0.242
Mof_H 	H 	0.3551	0.9758	0.2928	0.224
Mof_H 	H 	0.2309	0.8767	0.3239	0.217
Mof_H 	H 	0.2071	0.7703	0.7584	0.251
Mof_H 	H 	0.2309	0.6893	0.7242	0.243
Mof_H 	H 	0.3538	0.7904	0.6906	0.243
Mof_H 	H 	0.6846	0.9529	0.2888	0.269
Mof_H 	H 	0.5542	0.9763	0.2861	0.25
Mof_H 	H 	0.6109	0.98	0.3705	0.269
Mof_H 	H 	0.24	0.5204	0.6246	0.249
Mof_H 	H 	0.2034	0.5918	0.6687	0.24
Mof_H 	H 	0.1563	0.5854	0.581	0.235
Mof_H 	H 	0.6372	0.7675	0.3719	0.124
Mof_C 	C 	0.92686	0.91481	0.34923	0.065
Mof_C 	C 	0.76589	0.10276	0.55269	0.234
Mof_C 	C 	0.7097	0.16782	0.49232	-0.154
Mof_C 	C 	0.76186	0.17996	0.39388	0.248
Mof_C 	C 	0.7401	0.0644	0.6658	-0.709
Mof_C 	C 	0.7406	0.2376	0.2966	-0.763
Mof_C 	C 	0.488	0.1685	0.5956	0.265
Mof_C 	C 	0.6189	0.21705	0.52265	-0.177
Mof_C 	C 	0.64431	0.32522	0.47509	0.266
Mof_C 	C 	0.402	0.0547	0.669	-0.757
Mof_C 	C 	0.7725	0.4149	0.3929	-0.793
Mof_C 	C 	0.07314	0.08519	0.65077	0.045
Mof_C 	C 	0.23411	0.89724	0.44731	0.24
Mof_C 	C 	0.2903	0.83218	0.50768	-0.152
Mof_C 	C 	0.23814	0.82004	0.60612	0.249
Mof_C 	C 	0.2599	0.9356	0.3342	-0.722
Mof_C 	C 	0.2594	0.7624	0.7034	-0.764
Mof_C 	C 	0.512	0.8315	0.4044	0.283
Mof_C 	C 	0.3811	0.78295	0.47735	-0.179
Mof_C 	C 	0.35569	0.67478	0.52491	0.256
Mof_C 	C 	0.598	0.9453	0.331	-0.815
Mof_C 	C 	0.2275	0.5851	0.6071	-0.755
Mof_S 	S 	0.90172	0.85657	0.2828	-0.09
Mof_S 	S 	0.09828	0.14343	0.7172	-0.13
Mof_N 	N 	0.94701	0.95717	0.39624	-0.177
Mof_N 	N 	0.84766	0.07784	0.49396	-0.17
Mof_N 	N 	0.84327	0.12588	0.39797	-0.146
Mof_N 	N 	0.53532	0.34259	0.51523	-0.168
Mof_N 	N 	0.4428	0.24457	0.58917	-0.224
Mof_N 	N 	0.05299	0.04283	0.60376	-0.208
Mof_N 	N 	0.15234	0.92216	0.50604	-0.169
Mof_N 	N 	0.15673	0.87412	0.60203	-0.146
Mof_N 	N 	0.46468	0.65741	0.48477	-0.167
Mof_N 	N 	0.5572	0.75543	0.41083	-0.228
_end
