data_functionalizedCrystal
_audit_creation_method	'EQeq! by Chris Wilmer'
_symmetry_space_group_name_H-M	'P1'
_symmetry_Int_Tables_number	1
_symmetry_cell_setting	triclinic
loop_
_symmetry_equiv_pos_as_xyz
  x,y,z
_cell_length_a	20.2663
_cell_length_b	20.2663
_cell_length_c	20.2663
_cell_angle_alpha	90
_cell_angle_beta	90
_cell_angle_gamma	90
loop_
_atom_site_label
_atom_site_type_symbol
_atom_site_fract_x
_atom_site_fract_y
_atom_site_fract_z
_atom_site_charge
Mof_Eu	Eu	0.25777	0.14551	0.52011	1.707
Mof_O 	O 	0.2891	0.0874	0.6237	-0.502
Mof_O 	O 	0.20295	0.0337	0.6676	-0.515
Mof_O 	O 	0.2825	0.9177	0.9238	-0.491
Mof_O 	O 	0.19653	0.9358	0.85654	-0.515
Mof_N 	N 	0.27	0.9949	0.7692	-0.198
Mof_C 	C 	0.2629	0.0515	0.6657	0.388
Mof_C 	C 	0.306	0.0257	0.7219	-0.088
Mof_C 	C 	0.3731	0.0315	0.7247	-0.002
Mof_H 	H 	0.3968	0.0524	0.69	-0.002
Mof_C 	C 	0.4058	0.0062	0.7791	-0.084
Mof_H 	H 	0.4524	0.01	0.7825	0.022
Mof_C 	C 	0.37	0.9753	0.8287	-0.008
Mof_H 	H 	0.3914	0.957	0.8662	0.007
Mof_C 	C 	0.302	0.9719	0.8217	-0.085
Mof_C 	C 	0.258	0.9396	0.8718	0.37
Mof_Eu	Eu	0.24223	0.85449	0.02011	1.708
Mof_O 	O 	0.2109	0.9126	0.1237	-0.503
Mof_O 	O 	0.29705	0.9663	0.1676	-0.515
Mof_O 	O 	0.2175	0.0823	0.4238	-0.492
Mof_O 	O 	0.30347	0.0642	0.35654	-0.515
Mof_N 	N 	0.23	0.0051	0.2692	-0.2
Mof_C 	C 	0.2371	0.9485	0.1657	0.387
Mof_C 	C 	0.194	0.9743	0.2219	-0.085
Mof_C 	C 	0.1269	0.9685	0.2247	-0.004
Mof_H 	H 	0.1032	0.9476	0.19	-0.001
Mof_C 	C 	0.0942	0.9938	0.2791	-0.08
Mof_H 	H 	0.0476	0.99	0.2825	0.021
Mof_C 	C 	0.13	0.0247	0.3287	-0.012
Mof_H 	H 	0.1086	0.043	0.3662	0.008
Mof_C 	C 	0.198	0.0281	0.3217	-0.083
Mof_C 	C 	0.242	0.0604	0.3718	0.37
Mof_Eu	Eu	0.74223	0.64551	0.97989	1.703
Mof_O 	O 	0.7109	0.5874	0.8763	-0.503
Mof_O 	O 	0.79705	0.5337	0.8324	-0.516
Mof_O 	O 	0.7175	0.4177	0.5762	-0.492
Mof_O 	O 	0.80347	0.4358	0.64346	-0.515
Mof_N 	N 	0.73	0.4949	0.7308	-0.199
Mof_C 	C 	0.7371	0.5515	0.8343	0.387
Mof_C 	C 	0.694	0.5257	0.7781	-0.089
Mof_C 	C 	0.6269	0.5315	0.7753	-0.001
Mof_H 	H 	0.6032	0.5524	0.81	-0.002
Mof_C 	C 	0.5942	0.5062	0.7209	-0.086
Mof_H 	H 	0.5476	0.51	0.7175	0.022
Mof_C 	C 	0.63	0.4753	0.6713	-0.006
Mof_H 	H 	0.6086	0.457	0.6338	0.007
Mof_C 	C 	0.698	0.4719	0.6783	-0.085
Mof_C 	C 	0.742	0.4396	0.6282	0.37
Mof_Eu	Eu	0.75777	0.35449	0.47989	1.706
Mof_O 	O 	0.7891	0.4126	0.3763	-0.503
Mof_O 	O 	0.70295	0.4663	0.3324	-0.516
Mof_O 	O 	0.7825	0.5823	0.0762	-0.491
Mof_O 	O 	0.69653	0.5642	0.14346	-0.515
Mof_N 	N 	0.77	0.5051	0.2308	-0.199
Mof_C 	C 	0.7629	0.4485	0.3343	0.388
Mof_C 	C 	0.806	0.4743	0.2781	-0.089
Mof_C 	C 	0.8731	0.4685	0.2753	-0.001
Mof_H 	H 	0.8968	0.4476	0.31	-0.002
Mof_C 	C 	0.9058	0.4938	0.2209	-0.085
Mof_H 	H 	0.9524	0.49	0.2175	0.023
Mof_C 	C 	0.87	0.5247	0.1713	-0.006
Mof_H 	H 	0.8914	0.543	0.1338	0.007
Mof_C 	C 	0.802	0.5281	0.1783	-0.085
Mof_C 	C 	0.758	0.5604	0.1282	0.37
Mof_Eu	Eu	0.52011	0.25777	0.14551	1.706
Mof_O 	O 	0.6237	0.2891	0.0874	-0.503
Mof_O 	O 	0.6676	0.20295	0.0337	-0.516
Mof_O 	O 	0.9238	0.2825	0.9177	-0.492
Mof_O 	O 	0.85654	0.19653	0.9358	-0.516
Mof_N 	N 	0.7692	0.27	0.9949	-0.199
Mof_C 	C 	0.6657	0.2629	0.0515	0.388
Mof_C 	C 	0.7219	0.306	0.0257	-0.088
Mof_C 	C 	0.7247	0.3731	0.0315	-0.002
Mof_H 	H 	0.69	0.3968	0.0524	-0.002
Mof_C 	C 	0.7791	0.4058	0.0062	-0.084
Mof_H 	H 	0.7825	0.4524	0.01	0.022
Mof_C 	C 	0.8287	0.37	0.9753	-0.008
Mof_H 	H 	0.8662	0.3914	0.957	0.007
Mof_C 	C 	0.8217	0.302	0.9719	-0.085
Mof_C 	C 	0.8718	0.258	0.9396	0.37
Mof_Eu	Eu	0.02011	0.24223	0.85449	1.708
Mof_O 	O 	0.1237	0.2109	0.9126	-0.503
Mof_O 	O 	0.1676	0.29705	0.9663	-0.515
Mof_O 	O 	0.4238	0.2175	0.0823	-0.492
Mof_O 	O 	0.35654	0.30347	0.0642	-0.515
Mof_N 	N 	0.2692	0.23	0.0051	-0.2
Mof_C 	C 	0.1657	0.2371	0.9485	0.387
Mof_C 	C 	0.2219	0.194	0.9743	-0.085
Mof_C 	C 	0.2247	0.1269	0.9685	-0.004
Mof_H 	H 	0.19	0.1032	0.9476	-0.001
Mof_C 	C 	0.2791	0.0942	0.9938	-0.08
Mof_H 	H 	0.2825	0.0476	0.99	0.021
Mof_C 	C 	0.3287	0.13	0.0247	-0.012
Mof_H 	H 	0.3662	0.1086	0.043	0.008
Mof_C 	C 	0.3217	0.198	0.0281	-0.083
Mof_C 	C 	0.3718	0.242	0.0604	0.37
Mof_Eu	Eu	0.97989	0.74223	0.64551	1.703
Mof_O 	O 	0.8763	0.7109	0.5874	-0.503
Mof_O 	O 	0.8324	0.79705	0.5337	-0.516
Mof_O 	O 	0.5762	0.7175	0.4177	-0.492
Mof_O 	O 	0.64346	0.80347	0.4358	-0.515
Mof_N 	N 	0.7308	0.73	0.4949	-0.199
Mof_C 	C 	0.8343	0.7371	0.5515	0.387
Mof_C 	C 	0.7781	0.694	0.5257	-0.089
Mof_C 	C 	0.7753	0.6269	0.5315	-0.001
Mof_H 	H 	0.81	0.6032	0.5524	-0.002
Mof_C 	C 	0.7209	0.5942	0.5062	-0.086
Mof_H 	H 	0.7175	0.5476	0.51	0.022
Mof_C 	C 	0.6713	0.63	0.4753	-0.006
Mof_H 	H 	0.6338	0.6086	0.457	0.007
Mof_C 	C 	0.6783	0.698	0.4719	-0.085
Mof_C 	C 	0.6282	0.742	0.4396	0.37
Mof_Eu	Eu	0.47989	0.75777	0.35449	1.706
Mof_O 	O 	0.3763	0.7891	0.4126	-0.503
Mof_O 	O 	0.3324	0.70295	0.4663	-0.516
Mof_O 	O 	0.0762	0.7825	0.5823	-0.491
Mof_O 	O 	0.14346	0.69653	0.5642	-0.515
Mof_N 	N 	0.2308	0.77	0.5051	-0.199
Mof_C 	C 	0.3343	0.7629	0.4485	0.388
Mof_C 	C 	0.2781	0.806	0.4743	-0.089
Mof_C 	C 	0.2753	0.8731	0.4685	-0.001
Mof_H 	H 	0.31	0.8968	0.4476	-0.002
Mof_C 	C 	0.2209	0.9058	0.4938	-0.085
Mof_H 	H 	0.2175	0.9524	0.49	0.023
Mof_C 	C 	0.1713	0.87	0.5247	-0.006
Mof_H 	H 	0.1338	0.8914	0.543	0.007
Mof_C 	C 	0.1783	0.802	0.5281	-0.085
Mof_C 	C 	0.1282	0.758	0.5604	0.37
Mof_Eu	Eu	0.14551	0.52011	0.25777	1.706
Mof_O 	O 	0.0874	0.6237	0.2891	-0.503
Mof_O 	O 	0.0337	0.6676	0.20295	-0.516
Mof_O 	O 	0.9177	0.9238	0.2825	-0.492
Mof_O 	O 	0.9358	0.85654	0.19653	-0.516
Mof_N 	N 	0.9949	0.7692	0.27	-0.199
Mof_C 	C 	0.0515	0.6657	0.2629	0.388
Mof_C 	C 	0.0257	0.7219	0.306	-0.088
Mof_C 	C 	0.0315	0.7247	0.3731	-0.002
Mof_H 	H 	0.0524	0.69	0.3968	-0.002
Mof_C 	C 	0.0062	0.7791	0.4058	-0.084
Mof_H 	H 	0.01	0.7825	0.4524	0.022
Mof_C 	C 	0.9753	0.8287	0.37	-0.008
Mof_H 	H 	0.957	0.8662	0.3914	0.007
Mof_C 	C 	0.9719	0.8217	0.302	-0.085
Mof_C 	C 	0.9396	0.8718	0.258	0.37
Mof_Eu	Eu	0.85449	0.02011	0.24223	1.708
Mof_O 	O 	0.9126	0.1237	0.2109	-0.503
Mof_O 	O 	0.9663	0.1676	0.29705	-0.515
Mof_O 	O 	0.0823	0.4238	0.2175	-0.492
Mof_O 	O 	0.0642	0.35654	0.30347	-0.515
Mof_N 	N 	0.0051	0.2692	0.23	-0.2
Mof_C 	C 	0.9485	0.1657	0.2371	0.387
Mof_C 	C 	0.9743	0.2219	0.194	-0.085
Mof_C 	C 	0.9685	0.2247	0.1269	-0.004
Mof_H 	H 	0.9476	0.19	0.1032	-0.001
Mof_C 	C 	0.9938	0.2791	0.0942	-0.08
Mof_H 	H 	0.99	0.2825	0.0476	0.021
Mof_C 	C 	0.0247	0.3287	0.13	-0.012
Mof_H 	H 	0.043	0.3662	0.1086	0.008
Mof_C 	C 	0.0281	0.3217	0.198	-0.083
Mof_C 	C 	0.0604	0.3718	0.242	0.37
Mof_Eu	Eu	0.64551	0.97989	0.74223	1.703
Mof_O 	O 	0.5874	0.8763	0.7109	-0.503
Mof_O 	O 	0.5337	0.8324	0.79705	-0.516
Mof_O 	O 	0.4177	0.5762	0.7175	-0.492
Mof_O 	O 	0.4358	0.64346	0.80347	-0.515
Mof_N 	N 	0.4949	0.7308	0.73	-0.199
Mof_C 	C 	0.5515	0.8343	0.7371	0.387
Mof_C 	C 	0.5257	0.7781	0.694	-0.089
Mof_C 	C 	0.5315	0.7753	0.6269	-0.001
Mof_H 	H 	0.5524	0.81	0.6032	-0.002
Mof_C 	C 	0.5062	0.7209	0.5942	-0.086
Mof_H 	H 	0.51	0.7175	0.5476	0.022
Mof_C 	C 	0.4753	0.6713	0.63	-0.006
Mof_H 	H 	0.457	0.6338	0.6086	0.007
Mof_C 	C 	0.4719	0.6783	0.698	-0.085
Mof_C 	C 	0.4396	0.6282	0.742	0.37
Mof_Eu	Eu	0.35449	0.47989	0.75777	1.706
Mof_O 	O 	0.4126	0.3763	0.7891	-0.503
Mof_O 	O 	0.4663	0.3324	0.70295	-0.516
Mof_O 	O 	0.5823	0.0762	0.7825	-0.491
Mof_O 	O 	0.5642	0.14346	0.69653	-0.515
Mof_N 	N 	0.5051	0.2308	0.77	-0.199
Mof_C 	C 	0.4485	0.3343	0.7629	0.388
Mof_C 	C 	0.4743	0.2781	0.806	-0.089
Mof_C 	C 	0.4685	0.2753	0.8731	-0.001
Mof_H 	H 	0.4476	0.31	0.8968	-0.002
Mof_C 	C 	0.4938	0.2209	0.9058	-0.085
Mof_H 	H 	0.49	0.2175	0.9524	0.023
Mof_C 	C 	0.5247	0.1713	0.87	-0.006
Mof_H 	H 	0.543	0.1338	0.8914	0.007
Mof_C 	C 	0.5281	0.1783	0.802	-0.085
Mof_C 	C 	0.5604	0.1282	0.758	0.37
Mof_Eu	Eu	0.74223	0.85449	0.47989	1.706
Mof_O 	O 	0.7109	0.9126	0.3763	-0.503
Mof_O 	O 	0.79705	0.9663	0.3324	-0.516
Mof_O 	O 	0.7175	0.0823	0.0762	-0.492
Mof_O 	O 	0.80347	0.0642	0.14346	-0.516
Mof_N 	N 	0.73	0.0051	0.2308	-0.199
Mof_C 	C 	0.7371	0.9485	0.3343	0.388
Mof_C 	C 	0.694	0.9743	0.2781	-0.088
Mof_C 	C 	0.6269	0.9685	0.2753	-0.002
Mof_H 	H 	0.6032	0.9476	0.31	-0.002
Mof_C 	C 	0.5942	0.9938	0.2209	-0.084
Mof_H 	H 	0.5476	0.99	0.2175	0.022
Mof_C 	C 	0.63	0.0247	0.1713	-0.008
Mof_H 	H 	0.6086	0.043	0.1338	0.007
Mof_C 	C 	0.698	0.0281	0.1783	-0.085
Mof_C 	C 	0.742	0.0604	0.1282	0.37
Mof_Eu	Eu	0.75777	0.14551	0.97989	1.708
Mof_O 	O 	0.7891	0.0874	0.8763	-0.503
Mof_O 	O 	0.70295	0.0337	0.8324	-0.515
Mof_O 	O 	0.7825	0.9177	0.5762	-0.492
Mof_O 	O 	0.69653	0.9358	0.64346	-0.515
Mof_N 	N 	0.77	0.9949	0.7308	-0.2
Mof_C 	C 	0.7629	0.0515	0.8343	0.387
Mof_C 	C 	0.806	0.0257	0.7781	-0.085
Mof_C 	C 	0.8731	0.0315	0.7753	-0.004
Mof_H 	H 	0.8968	0.0524	0.81	-0.001
Mof_C 	C 	0.9058	0.0062	0.7209	-0.08
Mof_H 	H 	0.9524	0.01	0.7175	0.021
Mof_C 	C 	0.87	0.9753	0.6713	-0.012
Mof_H 	H 	0.8914	0.957	0.6338	0.008
Mof_C 	C 	0.802	0.9719	0.6783	-0.083
Mof_C 	C 	0.758	0.9396	0.6282	0.37
Mof_Eu	Eu	0.25777	0.35449	0.02011	1.703
Mof_O 	O 	0.2891	0.4126	0.1237	-0.503
Mof_O 	O 	0.20295	0.4663	0.1676	-0.516
Mof_O 	O 	0.2825	0.5823	0.4238	-0.492
Mof_O 	O 	0.19653	0.5642	0.35654	-0.515
Mof_N 	N 	0.27	0.5051	0.2692	-0.199
Mof_C 	C 	0.2629	0.4485	0.1657	0.387
Mof_C 	C 	0.306	0.4743	0.2219	-0.089
Mof_C 	C 	0.3731	0.4685	0.2247	-0.001
Mof_H 	H 	0.3968	0.4476	0.19	-0.002
Mof_C 	C 	0.4058	0.4938	0.2791	-0.086
Mof_H 	H 	0.4524	0.49	0.2825	0.022
Mof_C 	C 	0.37	0.5247	0.3287	-0.006
Mof_H 	H 	0.3914	0.543	0.3662	0.007
Mof_C 	C 	0.302	0.5281	0.3217	-0.085
Mof_C 	C 	0.258	0.5604	0.3718	0.37
Mof_Eu	Eu	0.24223	0.64551	0.52011	1.706
Mof_O 	O 	0.2109	0.5874	0.6237	-0.503
Mof_O 	O 	0.29705	0.5337	0.6676	-0.516
Mof_O 	O 	0.2175	0.4177	0.9238	-0.491
Mof_O 	O 	0.30347	0.4358	0.85654	-0.515
Mof_N 	N 	0.23	0.4949	0.7692	-0.199
Mof_C 	C 	0.2371	0.5515	0.6657	0.388
Mof_C 	C 	0.194	0.5257	0.7219	-0.089
Mof_C 	C 	0.1269	0.5315	0.7247	-0.001
Mof_H 	H 	0.1032	0.5524	0.69	-0.002
Mof_C 	C 	0.0942	0.5062	0.7791	-0.085
Mof_H 	H 	0.0476	0.51	0.7825	0.023
Mof_C 	C 	0.13	0.4753	0.8287	-0.006
Mof_H 	H 	0.1086	0.457	0.8662	0.007
Mof_C 	C 	0.198	0.4719	0.8217	-0.085
Mof_C 	C 	0.242	0.4396	0.8718	0.37
Mof_Eu	Eu	0.47989	0.74223	0.85449	1.706
Mof_O 	O 	0.3763	0.7109	0.9126	-0.503
Mof_O 	O 	0.3324	0.79705	0.9663	-0.516
Mof_O 	O 	0.0762	0.7175	0.0823	-0.492
Mof_O 	O 	0.14346	0.80347	0.0642	-0.516
Mof_N 	N 	0.2308	0.73	0.0051	-0.199
Mof_C 	C 	0.3343	0.7371	0.9485	0.388
Mof_C 	C 	0.2781	0.694	0.9743	-0.088
Mof_C 	C 	0.2753	0.6269	0.9685	-0.002
Mof_H 	H 	0.31	0.6032	0.9476	-0.002
Mof_C 	C 	0.2209	0.5942	0.9938	-0.084
Mof_H 	H 	0.2175	0.5476	0.99	0.022
Mof_C 	C 	0.1713	0.63	0.0247	-0.008
Mof_H 	H 	0.1338	0.6086	0.043	0.007
Mof_C 	C 	0.1783	0.698	0.0281	-0.085
Mof_C 	C 	0.1282	0.742	0.0604	0.37
Mof_Eu	Eu	0.97989	0.75777	0.14551	1.708
Mof_O 	O 	0.8763	0.7891	0.0874	-0.503
Mof_O 	O 	0.8324	0.70295	0.0337	-0.515
Mof_O 	O 	0.5762	0.7825	0.9177	-0.492
Mof_O 	O 	0.64346	0.69653	0.9358	-0.515
Mof_N 	N 	0.7308	0.77	0.9949	-0.2
Mof_C 	C 	0.8343	0.7629	0.0515	0.387
Mof_C 	C 	0.7781	0.806	0.0257	-0.085
Mof_C 	C 	0.7753	0.8731	0.0315	-0.004
Mof_H 	H 	0.81	0.8968	0.0524	-0.001
Mof_C 	C 	0.7209	0.9058	0.0062	-0.08
Mof_H 	H 	0.7175	0.9524	0.01	0.021
Mof_C 	C 	0.6713	0.87	0.9753	-0.012
Mof_H 	H 	0.6338	0.8914	0.957	0.008
Mof_C 	C 	0.6783	0.802	0.9719	-0.083
Mof_C 	C 	0.6282	0.758	0.9396	0.37
Mof_Eu	Eu	0.02011	0.25777	0.35449	1.703
Mof_O 	O 	0.1237	0.2891	0.4126	-0.503
Mof_O 	O 	0.1676	0.20295	0.4663	-0.516
Mof_O 	O 	0.4238	0.2825	0.5823	-0.492
Mof_O 	O 	0.35654	0.19653	0.5642	-0.515
Mof_N 	N 	0.2692	0.27	0.5051	-0.199
Mof_C 	C 	0.1657	0.2629	0.4485	0.387
Mof_C 	C 	0.2219	0.306	0.4743	-0.089
Mof_C 	C 	0.2247	0.3731	0.4685	-0.001
Mof_H 	H 	0.19	0.3968	0.4476	-0.002
Mof_C 	C 	0.2791	0.4058	0.4938	-0.086
Mof_H 	H 	0.2825	0.4524	0.49	0.022
Mof_C 	C 	0.3287	0.37	0.5247	-0.006
Mof_H 	H 	0.3662	0.3914	0.543	0.007
Mof_C 	C 	0.3217	0.302	0.5281	-0.085
Mof_C 	C 	0.3718	0.258	0.5604	0.37
Mof_Eu	Eu	0.52011	0.24223	0.64551	1.706
Mof_O 	O 	0.6237	0.2109	0.5874	-0.503
Mof_O 	O 	0.6676	0.29705	0.5337	-0.516
Mof_O 	O 	0.9238	0.2175	0.4177	-0.491
Mof_O 	O 	0.85654	0.30347	0.4358	-0.515
Mof_N 	N 	0.7692	0.23	0.4949	-0.199
Mof_C 	C 	0.6657	0.2371	0.5515	0.388
Mof_C 	C 	0.7219	0.194	0.5257	-0.089
Mof_C 	C 	0.7247	0.1269	0.5315	-0.001
Mof_H 	H 	0.69	0.1032	0.5524	-0.002
Mof_C 	C 	0.7791	0.0942	0.5062	-0.085
Mof_H 	H 	0.7825	0.0476	0.51	0.023
Mof_C 	C 	0.8287	0.13	0.4753	-0.006
Mof_H 	H 	0.8662	0.1086	0.457	0.007
Mof_C 	C 	0.8217	0.198	0.4719	-0.085
Mof_C 	C 	0.8718	0.242	0.4396	0.37
Mof_Eu	Eu	0.85449	0.47989	0.74223	1.706
Mof_O 	O 	0.9126	0.3763	0.7109	-0.503
Mof_O 	O 	0.9663	0.3324	0.79705	-0.516
Mof_O 	O 	0.0823	0.0762	0.7175	-0.492
Mof_O 	O 	0.0642	0.14346	0.80347	-0.516
Mof_N 	N 	0.0051	0.2308	0.73	-0.199
Mof_C 	C 	0.9485	0.3343	0.7371	0.388
Mof_C 	C 	0.9743	0.2781	0.694	-0.088
Mof_C 	C 	0.9685	0.2753	0.6269	-0.002
Mof_H 	H 	0.9476	0.31	0.6032	-0.002
Mof_C 	C 	0.9938	0.2209	0.5942	-0.084
Mof_H 	H 	0.99	0.2175	0.5476	0.022
Mof_C 	C 	0.0247	0.1713	0.63	-0.008
Mof_H 	H 	0.043	0.1338	0.6086	0.007
Mof_C 	C 	0.0281	0.1783	0.698	-0.085
Mof_C 	C 	0.0604	0.1282	0.742	0.37
Mof_Eu	Eu	0.14551	0.97989	0.75777	1.708
Mof_O 	O 	0.0874	0.8763	0.7891	-0.503
Mof_O 	O 	0.0337	0.8324	0.70295	-0.515
Mof_O 	O 	0.9177	0.5762	0.7825	-0.492
Mof_O 	O 	0.9358	0.64346	0.69653	-0.515
Mof_N 	N 	0.9949	0.7308	0.77	-0.2
Mof_C 	C 	0.0515	0.8343	0.7629	0.387
Mof_C 	C 	0.0257	0.7781	0.806	-0.085
Mof_C 	C 	0.0315	0.7753	0.8731	-0.004
Mof_H 	H 	0.0524	0.81	0.8968	-0.001
Mof_C 	C 	0.0062	0.7209	0.9058	-0.08
Mof_H 	H 	0.01	0.7175	0.9524	0.021
Mof_C 	C 	0.9753	0.6713	0.87	-0.012
Mof_H 	H 	0.957	0.6338	0.8914	0.008
Mof_C 	C 	0.9719	0.6783	0.802	-0.083
Mof_C 	C 	0.9396	0.6282	0.758	0.37
Mof_Eu	Eu	0.35449	0.02011	0.25777	1.703
Mof_O 	O 	0.4126	0.1237	0.2891	-0.503
Mof_O 	O 	0.4663	0.1676	0.20295	-0.516
Mof_O 	O 	0.5823	0.4238	0.2825	-0.492
Mof_O 	O 	0.5642	0.35654	0.19653	-0.515
Mof_N 	N 	0.5051	0.2692	0.27	-0.199
Mof_C 	C 	0.4485	0.1657	0.2629	0.387
Mof_C 	C 	0.4743	0.2219	0.306	-0.089
Mof_C 	C 	0.4685	0.2247	0.3731	-0.001
Mof_H 	H 	0.4476	0.19	0.3968	-0.002
Mof_C 	C 	0.4938	0.2791	0.4058	-0.086
Mof_H 	H 	0.49	0.2825	0.4524	0.022
Mof_C 	C 	0.5247	0.3287	0.37	-0.006
Mof_H 	H 	0.543	0.3662	0.3914	0.007
Mof_C 	C 	0.5281	0.3217	0.302	-0.085
Mof_C 	C 	0.5604	0.3718	0.258	0.37
Mof_Eu	Eu	0.64551	0.52011	0.24223	1.706
Mof_O 	O 	0.5874	0.6237	0.2109	-0.503
Mof_O 	O 	0.5337	0.6676	0.29705	-0.516
Mof_O 	O 	0.4177	0.9238	0.2175	-0.491
Mof_O 	O 	0.4358	0.85654	0.30347	-0.515
Mof_N 	N 	0.4949	0.7692	0.23	-0.199
Mof_C 	C 	0.5515	0.6657	0.2371	0.388
Mof_C 	C 	0.5257	0.7219	0.194	-0.089
Mof_C 	C 	0.5315	0.7247	0.1269	-0.001
Mof_H 	H 	0.5524	0.69	0.1032	-0.002
Mof_C 	C 	0.5062	0.7791	0.0942	-0.085
Mof_H 	H 	0.51	0.7825	0.0476	0.023
Mof_C 	C 	0.4753	0.8287	0.13	-0.006
Mof_H 	H 	0.457	0.8662	0.1086	0.007
Mof_C 	C 	0.4719	0.8217	0.198	-0.085
Mof_C 	C 	0.4396	0.8718	0.242	0.37
_end
