data_functionalizedCrystal
_audit_creation_method	'EQeq! by Chris Wilmer'
_symmetry_space_group_name_H-M	'P1'
_symmetry_Int_Tables_number	1
_symmetry_cell_setting	triclinic
loop_
_symmetry_equiv_pos_as_xyz
  x,y,z
_cell_length_a	28.4727
_cell_length_b	28.4727
_cell_length_c	28.4727
_cell_angle_alpha	96.5294
_cell_angle_beta	116.305
_cell_angle_gamma	116.305
loop_
_atom_site_label
_atom_site_type_symbol
_atom_site_fract_x
_atom_site_fract_y
_atom_site_fract_z
_atom_site_charge
Mof_Zn	Zn	0.28133	0.07016	0.46156	1.137
Mof_Zn	Zn	0.36618	0.10926	0.39496	1.186
Mof_Zn	Zn	0.39047	0.14227	0.61238	1.187
Mof_Zn	Zn	0.20303	0.91933	0.42664	1.179
Mof_Zn	Zn	0.16857	0.11005	0.41637	1.18
Mof_Zn	Zn	0.78133	0.31977	0.21116	1.137
Mof_Zn	Zn	0.86618	0.47122	0.25692	1.186
Mof_Zn	Zn	0.89047	0.27808	0.2482	1.187
Mof_Zn	Zn	0.70303	0.27639	0.2837	1.179
Mof_Zn	Zn	0.66856	0.25219	0.05852	1.181
Mof_H 	H 	0.587	0.2735	0.3477	0.051
Mof_H 	H 	0.5142	0.2425	0.3709	0.044
Mof_H 	H 	0.4754	0.0868	0.3212	0.043
Mof_H 	H 	0.5481	0.1178	0.2979	0.053
Mof_H 	H 	0.4347	0.2057	0.799	0.052
Mof_H 	H 	0.4947	0.2295	0.8946	0.046
Mof_H 	H 	0.6162	0.2094	0.8774	0.038
Mof_H 	H 	0.5561	0.1855	0.7816	0.057
Mof_H 	H 	0.0197	0.0014	0.3491	0.066
Mof_H 	H 	0.9316	0.911	0.3104	0.033
Mof_H 	H 	0.942	0.8356	0.316	0.038
Mof_H 	H 	0.0404	0.8506	0.3602	0.068
Mof_H 	H 	0.5238	0.2077	0.4839	0.067
Mof_H 	H 	0.6219	0.2709	0.5676	0.033
Mof_H 	H 	0.6324	0.2821	0.6545	0.034
Mof_H 	H 	0.5448	0.23	0.6576	0.07
Mof_H 	H 	0.4073	0.0579	0.6856	0.065
Mof_H 	H 	0.393	0.9768	0.7026	0.036
Mof_H 	H 	0.3179	0.8887	0.629	0.04
Mof_H 	H 	0.2571	0.8818	0.5383	0.057
Mof_H 	H 	0.3309	0.1806	0.3107	0.068
Mof_H 	H 	0.2793	0.2181	0.2588	0.033
Mof_H 	H 	0.1982	0.214	0.2622	0.037
Mof_H 	H 	0.1687	0.1724	0.3175	0.07
Mof_H 	H 	0.2046	0.217	0.5166	0.062
Mof_H 	H 	0.251	0.2833	0.6043	0.032
Mof_H 	H 	0.337	0.2961	0.6833	0.034
Mof_H 	H 	0.3764	0.2424	0.6744	0.069
Mof_H 	H 	0.1986	0.8478	0.3198	0.062
Mof_H 	H 	0.2212	0.8294	0.254	0.03
Mof_H 	H 	0.2873	0.9037	0.242	0.034
Mof_H 	H 	0.3309	0.9964	0.2959	0.076
Mof_H 	H 	0.087	0.7393	0.3135	0.051
Mof_H 	H 	0.0142	0.6433	0.2717	0.044
Mof_H 	H 	0.9754	0.6542	0.3886	0.043
Mof_H 	H 	0.0481	0.7502	0.4303	0.053
Mof_H 	H 	0.9347	0.1357	0.229	0.052
Mof_H 	H 	0.9947	0.1001	0.2652	0.047
Mof_H 	H 	0.1162	0.2388	0.4068	0.039
Mof_H 	H 	0.0561	0.2745	0.3706	0.056
Mof_H 	H 	0.5197	0.1706	0.0183	0.063
Mof_H 	H 	0.4316	0.1212	0.0206	0.034
Mof_H 	H 	0.442	0.126	0.1064	0.038
Mof_H 	H 	0.5404	0.1802	0.1898	0.068
Mof_H 	H 	0.0238	0.5399	0.3161	0.067
Mof_H 	H 	0.1219	0.5543	0.351	0.033
Mof_H 	H 	0.1324	0.4779	0.3503	0.033
Mof_H 	H 	0.0448	0.3872	0.3148	0.07
Mof_H 	H 	0.9073	0.2217	0.3494	0.065
Mof_H 	H 	0.893	0.1904	0.4162	0.035
Mof_H 	H 	0.8179	0.1889	0.4292	0.04
Mof_H 	H 	0.7571	0.2188	0.3753	0.057
Mof_H 	H 	0.8309	0.5202	0.1503	0.068
Mof_H 	H 	0.7793	0.5205	0.0612	0.034
Mof_H 	H 	0.6982	0.436	0.9842	0.035
Mof_H 	H 	0.6687	0.3512	0.9963	0.069
Mof_H 	H 	0.7046	0.188	0.9876	0.06
Mof_H 	H 	0.751	0.1467	0.9677	0.029
Mof_H 	H 	0.837	0.1537	0.0409	0.035
Mof_H 	H 	0.8764	0.202	0.134	0.069
Mof_H 	H 	0.6986	0.3788	0.3508	0.062
Mof_H 	H 	0.7212	0.4672	0.3918	0.03
Mof_H 	H 	0.7873	0.5453	0.3836	0.034
Mof_H 	H 	0.8309	0.535	0.3345	0.077
Mof_C 	C 	0.57426	0.19851	0.32059	-0.056
Mof_C 	C 	0.56423	0.23555	0.34232	-0.035
Mof_C 	C 	0.5211	0.21716	0.35612	-0.003
Mof_C 	C 	0.48807	0.16181	0.34828	-0.093
Mof_C 	C 	0.49812	0.12478	0.32656	-0.002
Mof_C 	C 	0.54122	0.14315	0.31273	-0.039
Mof_C 	C 	0.6225	0.2198	0.3055	0.316
Mof_C 	C 	0.4383	0.1408	0.3631	0.392
Mof_C 	C 	0.48976	0.19335	0.78129	-0.066
Mof_C 	C 	0.47156	0.20642	0.8149	-0.027
Mof_C 	C 	0.50718	0.22059	0.87173	-0.014
Mof_C 	C 	0.56104	0.22169	0.89495	-0.083
Mof_C 	C 	0.57926	0.20862	0.86136	-0.006
Mof_C 	C 	0.54364	0.19447	0.80453	-0.032
Mof_C 	C 	0.4502	0.1758	0.7176	0.343
Mof_C 	C 	0.6001	0.23614	0.95844	0.349
Mof_C 	C 	0.08873	0.9349	0.38103	0.063
Mof_C 	C 	0.08255	0.97991	0.37768	0.062
Mof_C 	C 	0.02386	0.97098	0.35132	-0.124
Mof_C 	C 	0.97135	0.91708	0.32829	-0.009
Mof_C 	C 	0.97754	0.87209	0.33163	-0.02
Mof_C 	C 	0.03623	0.881	0.35801	-0.111
Mof_C 	C 	0.48193	0.18775	0.5728	0.067
Mof_C 	C 	0.47566	0.18106	0.52072	0.069
Mof_C 	C 	0.52808	0.21221	0.51875	-0.115
Mof_C 	C 	0.58679	0.25003	0.56884	-0.019
Mof_C 	C 	0.59308	0.25674	0.62092	-0.017
Mof_C 	C 	0.54064	0.22559	0.62287	-0.119
Mof_C 	C 	0.29583	0.96559	0.55772	0.061
Mof_C 	C 	0.34071	0.01823	0.6017	0.067
Mof_C 	C 	0.37702	0.02243	0.65587	-0.115
Mof_C 	C 	0.36847	0.974	0.66607	-0.014
Mof_C 	C 	0.32358	0.92141	0.62203	-0.021
Mof_C 	C 	0.28729	0.91719	0.5679	-0.112
Mof_C 	C 	0.23208	0.15164	0.34706	0.066
Mof_C 	C 	0.28047	0.1541	0.34505	0.068
Mof_C 	C 	0.29812	0.17893	0.31209	-0.12
Mof_C 	C 	0.2674	0.20131	0.28115	-0.013
Mof_C 	C 	0.21902	0.19885	0.28317	-0.021
Mof_C 	C 	0.20135	0.17402	0.31611	-0.11
Mof_C 	C 	0.314	0.1976	0.59022	0.073
Mof_C 	C 	0.26271	0.19003	0.5431	0.061
Mof_C 	C 	0.23925	0.22214	0.54845	-0.117
Mof_C 	C 	0.267	0.26182	0.60088	-0.023
Mof_C 	C 	0.31828	0.26938	0.64796	-0.019
Mof_C 	C 	0.34177	0.23725	0.64262	-0.117
Mof_C 	C 	0.29067	0.97736	0.33997	0.071
Mof_C 	C 	0.25115	0.93295	0.34708	0.063
Mof_C 	C 	0.22517	0.87764	0.31493	-0.119
Mof_C 	C 	0.23872	0.86672	0.27564	-0.021
Mof_C 	C 	0.27822	0.91112	0.26852	-0.018
Mof_C 	C 	0.3042	0.96643	0.30067	-0.117
Mof_C 	C 	0.07426	0.75367	0.37575	-0.056
Mof_C 	C 	0.06423	0.72191	0.32868	-0.035
Mof_C 	C 	0.0211	0.66498	0.30394	-0.005
Mof_C 	C 	0.98807	0.63979	0.32626	-0.092
Mof_C 	C 	0.99812	0.67156	0.37334	-0
Mof_C 	C 	0.04122	0.72849	0.39807	-0.04
Mof_C 	C 	0.1225	0.817	0.4027	0.316
Mof_C 	C 	0.9383	0.5752	0.2975	0.392
Mof_C 	C 	0.98976	0.20847	0.29641	-0.067
Mof_C 	C 	0.97156	0.15666	0.26514	-0.026
Mof_C 	C 	0.00718	0.13545	0.28659	-0.016
Mof_C 	C 	0.06104	0.16609	0.33935	-0.081
Mof_C 	C 	0.07926	0.2179	0.37064	-0.007
Mof_C 	C 	0.04364	0.23911	0.34917	-0.032
Mof_C 	C 	0.9502	0.2326	0.2744	0.343
Mof_C 	C 	0.1001	0.14166	0.36396	0.349
Mof_C 	C 	0.58873	0.2077	0.15383	0.064
Mof_C 	C 	0.58255	0.20487	0.10264	0.06
Mof_C 	C 	0.52386	0.17254	0.05288	-0.117
Mof_C 	C 	0.47135	0.14306	0.05427	-0.014
Mof_C 	C 	0.47754	0.14591	0.10545	-0.02
Mof_C 	C 	0.53623	0.17822	0.15523	-0.11
Mof_C 	C 	0.98193	0.40913	0.29418	0.067
Mof_C 	C 	0.97566	0.45494	0.2946	0.069
Mof_C 	C 	0.02808	0.50933	0.31587	-0.117
Mof_C 	C 	0.08679	0.51795	0.33676	-0.019
Mof_C 	C 	0.09308	0.47216	0.33634	-0.017
Mof_C 	C 	0.04064	0.41777	0.31505	-0.12
Mof_C 	C 	0.79583	0.23811	0.33024	0.061
Mof_C 	C 	0.84071	0.23901	0.32248	0.067
Mof_C 	C 	0.87702	0.22115	0.35459	-0.115
Mof_C 	C 	0.86847	0.2024	0.39447	-0.014
Mof_C 	C 	0.82358	0.20155	0.40217	-0.021
Mof_C 	C 	0.78729	0.21939	0.3701	-0.112
Mof_C 	C 	0.73208	0.38502	0.08044	0.066
Mof_C 	C 	0.78047	0.43542	0.12637	0.068
Mof_C 	C 	0.79812	0.48603	0.11919	-0.119
Mof_C 	C 	0.7674	0.48625	0.06609	-0.014
Mof_C 	C 	0.71902	0.43585	0.02017	-0.019
Mof_C 	C 	0.70135	0.38524	0.02733	-0.109
Mof_C 	C 	0.814	0.22378	0.1164	0.072
Mof_C 	C 	0.76271	0.21961	0.07268	0.061
Mof_C 	C 	0.73925	0.1908	0.01711	-0.116
Mof_C 	C 	0.767	0.16612	0.00518	-0.02
Mof_C 	C 	0.81828	0.17032	0.0489	-0.021
Mof_C 	C 	0.84177	0.19915	0.10452	-0.116
Mof_C 	C 	0.79067	0.4507	0.31331	0.071
Mof_C 	C 	0.75115	0.40407	0.3182	0.063
Mof_C 	C 	0.72517	0.41024	0.34753	-0.118
Mof_C 	C 	0.73872	0.46308	0.372	-0.022
Mof_C 	C 	0.77822	0.5097	0.3671	-0.017
Mof_C 	C 	0.8042	0.50353	0.33777	-0.118
Mof_N 	N 	0.14047	0.02796	0.40141	-0.247
Mof_N 	N 	0.18073	0.01265	0.41958	-0.206
Mof_N 	N 	0.42451	0.15514	0.56185	-0.239
Mof_N 	N 	0.15124	0.95672	0.40786	-0.229
Mof_N 	N 	0.38473	0.12851	0.50572	-0.202
Mof_N 	N 	0.41531	0.14278	0.48033	-0.244
Mof_N 	N 	0.34021	0.0576	0.57917	-0.246
Mof_N 	N 	0.29811	0.02941	0.52424	-0.199
Mof_N 	N 	0.2693	0.97365	0.50949	-0.247
Mof_N 	N 	0.30181	0.12956	0.37881	-0.243
Mof_N 	N 	0.26679	0.11248	0.40043	-0.198
Mof_N 	N 	0.22423	0.12532	0.38215	-0.221
Mof_N 	N 	0.32667	0.16097	0.57332	-0.246
Mof_N 	N 	0.28396	0.13228	0.51708	-0.205
Mof_N 	N 	0.24527	0.14932	0.49845	-0.24
Mof_N 	N 	0.30856	0.02585	0.37655	-0.24
Mof_N 	N 	0.28072	0.0115	0.40426	-0.205
Mof_N 	N 	0.24643	0.95549	0.38776	-0.243
Mof_N 	N 	0.64047	0.23906	0.11251	-0.247
Mof_N 	N 	0.68073	0.26115	0.16808	-0.206
Mof_N 	N 	0.92451	0.36266	0.26937	-0.24
Mof_N 	N 	0.65124	0.24338	0.19452	-0.229
Mof_N 	N 	0.88473	0.37901	0.25622	-0.202
Mof_N 	N 	0.91531	0.43498	0.27253	-0.244
Mof_N 	N 	0.84021	0.26104	0.28261	-0.246
Mof_N 	N 	0.79811	0.27387	0.2687	-0.199
Mof_N 	N 	0.7693	0.25981	0.29565	-0.247
Mof_N 	N 	0.80181	0.423	0.17225	-0.243
Mof_N 	N 	0.76679	0.36636	0.15431	-0.198
Mof_N 	N 	0.72423	0.34208	0.09891	-0.221
Mof_N 	N 	0.82667	0.25335	0.1657	-0.246
Mof_N 	N 	0.78396	0.26688	0.15168	-0.205
Mof_N 	N 	0.74527	0.24682	0.09595	-0.24
Mof_N 	N 	0.80856	0.43201	0.28271	-0.24
Mof_N 	N 	0.78072	0.37646	0.26922	-0.206
Mof_N 	N 	0.74643	0.35867	0.29094	-0.243
Mof_O 	O 	0.6381	0.18928	0.29218	-0.368
Mof_O 	O 	0.64463	0.26906	0.30599	-0.471
Mof_O 	O 	0.41758	0.09563	0.36625	-0.46
Mof_O 	O 	0.42496	0.17208	0.37672	-0.451
Mof_O 	O 	0.47031	0.1721	0.68881	-0.463
Mof_O 	O 	0.39516	0.16277	0.69413	-0.399
Mof_O 	O 	0.65108	0.24022	0.97912	-0.461
Mof_O 	O 	0.58249	0.2434	0.98801	-0.419
Mof_O 	O 	0.1381	0.84592	0.44882	-0.368
Mof_O 	O 	0.14463	0.83864	0.37557	-0.472
Mof_O 	O 	0.91758	0.55133	0.32195	-0.46
Mof_O 	O 	0.92496	0.54824	0.25288	-0.451
Mof_O 	O 	0.97031	0.2815	0.29821	-0.463
Mof_O 	O 	0.89516	0.20103	0.23239	-0.399
Mof_O 	O 	0.15108	0.17196	0.41086	-0.46
Mof_O 	O 	0.08249	0.09448	0.33909	-0.418
Mof_Zn	Zn	0.21867	0.68023	0.78884	1.138
Mof_Zn	Zn	0.13382	0.52878	0.74308	1.187
Mof_Zn	Zn	0.10953	0.72192	0.7518	1.188
Mof_Zn	Zn	0.29697	0.72361	0.7163	1.18
Mof_Zn	Zn	0.33144	0.74781	0.94148	1.182
Mof_Zn	Zn	0.71867	0.92984	0.53844	1.138
Mof_Zn	Zn	0.63382	0.89074	0.60504	1.187
Mof_Zn	Zn	0.60953	0.85773	0.38762	1.188
Mof_Zn	Zn	0.79697	0.08067	0.57336	1.18
Mof_Zn	Zn	0.83144	0.88996	0.58364	1.181
Mof_H 	H 	0.913	0.2607	0.6865	0.051
Mof_H 	H 	0.9858	0.3567	0.7283	0.044
Mof_H 	H 	0.0246	0.3458	0.6114	0.043
Mof_H 	H 	0.9519	0.2498	0.5697	0.053
Mof_H 	H 	0.0653	0.8643	0.771	0.052
Mof_H 	H 	0.0053	0.8999	0.7348	0.047
Mof_H 	H 	0.8838	0.7612	0.5932	0.039
Mof_H 	H 	0.9439	0.7255	0.6294	0.056
Mof_H 	H 	0.4803	0.8294	0.9817	0.063
Mof_H 	H 	0.5684	0.8788	0.9794	0.034
Mof_H 	H 	0.558	0.874	0.8936	0.038
Mof_H 	H 	0.4596	0.8198	0.8102	0.068
Mof_H 	H 	0.9762	0.4601	0.6839	0.067
Mof_H 	H 	0.8781	0.4457	0.649	0.033
Mof_H 	H 	0.8676	0.5221	0.6497	0.033
Mof_H 	H 	0.9552	0.6128	0.6852	0.07
Mof_H 	H 	0.0927	0.7783	0.6506	0.065
Mof_H 	H 	0.107	0.8096	0.5838	0.035
Mof_H 	H 	0.1821	0.8111	0.5708	0.04
Mof_H 	H 	0.2429	0.7812	0.6247	0.057
Mof_H 	H 	0.1691	0.4798	0.8497	0.068
Mof_H 	H 	0.2207	0.4795	0.9388	0.034
Mof_H 	H 	0.3018	0.564	0.0158	0.035
Mof_H 	H 	0.3313	0.6488	0.0037	0.069
Mof_H 	H 	0.2954	0.812	0.0124	0.06
Mof_H 	H 	0.249	0.8533	0.0323	0.029
Mof_H 	H 	0.163	0.8463	0.9591	0.035
Mof_H 	H 	0.1236	0.798	0.866	0.069
Mof_H 	H 	0.3014	0.6212	0.6492	0.062
Mof_H 	H 	0.2788	0.5328	0.6082	0.03
Mof_H 	H 	0.2127	0.4547	0.6164	0.034
Mof_H 	H 	0.1691	0.465	0.6655	0.077
Mof_H 	H 	0.413	0.7265	0.6523	0.051
Mof_H 	H 	0.4858	0.7575	0.6291	0.044
Mof_H 	H 	0.5246	0.9132	0.6788	0.043
Mof_H 	H 	0.4519	0.8822	0.7021	0.053
Mof_H 	H 	0.5653	0.7943	0.201	0.052
Mof_H 	H 	0.5053	0.7705	0.1054	0.046
Mof_H 	H 	0.3838	0.7906	0.1226	0.038
Mof_H 	H 	0.4439	0.8145	0.2184	0.057
Mof_H 	H 	0.9803	0.9986	0.6509	0.066
Mof_H 	H 	0.0684	0.089	0.6896	0.033
Mof_H 	H 	0.058	0.1644	0.684	0.038
Mof_H 	H 	0.9596	0.1494	0.6398	0.068
Mof_H 	H 	0.4762	0.7923	0.5161	0.067
Mof_H 	H 	0.3781	0.7291	0.4324	0.033
Mof_H 	H 	0.3676	0.7179	0.3455	0.034
Mof_H 	H 	0.4552	0.77	0.3424	0.07
Mof_H 	H 	0.5927	0.9421	0.3144	0.065
Mof_H 	H 	0.607	0.0232	0.2974	0.036
Mof_H 	H 	0.6821	0.1113	0.371	0.04
Mof_H 	H 	0.7429	0.1182	0.4617	0.057
Mof_H 	H 	0.6691	0.8194	0.6893	0.068
Mof_H 	H 	0.7207	0.7819	0.7412	0.033
Mof_H 	H 	0.8018	0.786	0.7378	0.037
Mof_H 	H 	0.8313	0.8276	0.6825	0.07
Mof_H 	H 	0.7954	0.783	0.4834	0.062
Mof_H 	H 	0.749	0.7167	0.3957	0.032
Mof_H 	H 	0.663	0.7039	0.3167	0.034
Mof_H 	H 	0.6236	0.7576	0.3256	0.069
Mof_H 	H 	0.8014	0.1522	0.6802	0.062
Mof_H 	H 	0.7788	0.1706	0.746	0.03
Mof_H 	H 	0.7127	0.0963	0.758	0.034
Mof_H 	H 	0.6691	0.0036	0.7041	0.076
Mof_C 	C 	0.92574	0.24633	0.62425	-0.056
Mof_C 	C 	0.93577	0.27809	0.67132	-0.035
Mof_C 	C 	0.9789	0.33502	0.69606	-0.005
Mof_C 	C 	0.01193	0.36021	0.67374	-0.092
Mof_C 	C 	0.00188	0.32844	0.62666	-0
Mof_C 	C 	0.95878	0.27151	0.60193	-0.04
Mof_C 	C 	0.8775	0.183	0.5973	0.316
Mof_C 	C 	0.0617	0.4248	0.7025	0.392
Mof_C 	C 	0.01024	0.79153	0.70359	-0.067
Mof_C 	C 	0.02844	0.84334	0.73486	-0.026
Mof_C 	C 	0.99282	0.86455	0.71341	-0.016
Mof_C 	C 	0.93896	0.83391	0.66065	-0.081
Mof_C 	C 	0.92074	0.7821	0.62936	-0.007
Mof_C 	C 	0.95636	0.76089	0.65083	-0.032
Mof_C 	C 	0.0498	0.7674	0.7256	0.343
Mof_C 	C 	0.8999	0.85834	0.63604	0.349
Mof_C 	C 	0.41127	0.7923	0.84617	0.064
Mof_C 	C 	0.41745	0.79513	0.89736	0.06
Mof_C 	C 	0.47614	0.82746	0.94712	-0.117
Mof_C 	C 	0.52865	0.85694	0.94573	-0.014
Mof_C 	C 	0.52246	0.85409	0.89455	-0.02
Mof_C 	C 	0.46377	0.82178	0.84477	-0.11
Mof_C 	C 	0.01807	0.59087	0.70582	0.067
Mof_C 	C 	0.02434	0.54506	0.7054	0.069
Mof_C 	C 	0.97192	0.49067	0.68413	-0.117
Mof_C 	C 	0.91321	0.48205	0.66324	-0.019
Mof_C 	C 	0.90692	0.52784	0.66366	-0.017
Mof_C 	C 	0.95936	0.58223	0.68495	-0.12
Mof_C 	C 	0.20417	0.76189	0.66976	0.061
Mof_C 	C 	0.15929	0.76099	0.67752	0.067
Mof_C 	C 	0.12298	0.77885	0.64541	-0.115
Mof_C 	C 	0.13153	0.7976	0.60553	-0.014
Mof_C 	C 	0.17642	0.79845	0.59783	-0.021
Mof_C 	C 	0.21271	0.78061	0.6299	-0.112
Mof_C 	C 	0.26792	0.61498	0.91956	0.066
Mof_C 	C 	0.21953	0.56458	0.87363	0.068
Mof_C 	C 	0.20188	0.51397	0.88081	-0.119
Mof_C 	C 	0.2326	0.51375	0.93391	-0.014
Mof_C 	C 	0.28098	0.56415	0.97983	-0.019
Mof_C 	C 	0.29865	0.61476	0.97267	-0.109
Mof_C 	C 	0.186	0.77622	0.8836	0.072
Mof_C 	C 	0.23729	0.78039	0.92732	0.061
Mof_C 	C 	0.26075	0.8092	0.98289	-0.116
Mof_C 	C 	0.233	0.83388	0.99482	-0.02
Mof_C 	C 	0.18172	0.82968	0.9511	-0.021
Mof_C 	C 	0.15823	0.80085	0.89548	-0.116
Mof_C 	C 	0.20933	0.5493	0.68669	0.071
Mof_C 	C 	0.24885	0.59593	0.6818	0.063
Mof_C 	C 	0.27483	0.58976	0.65247	-0.118
Mof_C 	C 	0.26128	0.53692	0.628	-0.022
Mof_C 	C 	0.22178	0.4903	0.6329	-0.017
Mof_C 	C 	0.1958	0.49647	0.66223	-0.118
Mof_C 	C 	0.42574	0.80149	0.67941	-0.056
Mof_C 	C 	0.43577	0.76445	0.65768	-0.035
Mof_C 	C 	0.4789	0.78284	0.64388	-0.003
Mof_C 	C 	0.51193	0.83819	0.65172	-0.093
Mof_C 	C 	0.50188	0.87522	0.67344	-0.002
Mof_C 	C 	0.45878	0.85685	0.68727	-0.039
Mof_C 	C 	0.3775	0.7802	0.6945	0.316
Mof_C 	C 	0.5617	0.8592	0.6369	0.392
Mof_C 	C 	0.51024	0.80665	0.21871	-0.066
Mof_C 	C 	0.52844	0.79358	0.1851	-0.027
Mof_C 	C 	0.49282	0.77941	0.12827	-0.014
Mof_C 	C 	0.43896	0.77831	0.10505	-0.083
Mof_C 	C 	0.42074	0.79138	0.13864	-0.006
Mof_C 	C 	0.45636	0.80553	0.19547	-0.032
Mof_C 	C 	0.5498	0.8242	0.2824	0.343
Mof_C 	C 	0.3999	0.76386	0.04156	0.349
Mof_C 	C 	0.91127	0.0651	0.61897	0.063
Mof_C 	C 	0.91745	0.02009	0.62232	0.062
Mof_C 	C 	0.97614	0.02902	0.64868	-0.124
Mof_C 	C 	0.02865	0.08292	0.67171	-0.009
Mof_C 	C 	0.02246	0.12791	0.66837	-0.02
Mof_C 	C 	0.96377	0.119	0.64199	-0.111
Mof_C 	C 	0.51807	0.81225	0.4272	0.067
Mof_C 	C 	0.52434	0.81894	0.47928	0.069
Mof_C 	C 	0.47192	0.78779	0.48125	-0.115
Mof_C 	C 	0.41321	0.74997	0.43116	-0.019
Mof_C 	C 	0.40692	0.74326	0.37908	-0.017
Mof_C 	C 	0.45936	0.77441	0.37713	-0.119
Mof_C 	C 	0.70417	0.03441	0.44228	0.061
Mof_C 	C 	0.65929	0.98177	0.3983	0.067
Mof_C 	C 	0.62298	0.97757	0.34413	-0.115
Mof_C 	C 	0.63153	0.026	0.33393	-0.014
Mof_C 	C 	0.67642	0.07859	0.37797	-0.021
Mof_C 	C 	0.71271	0.08281	0.4321	-0.112
Mof_C 	C 	0.76792	0.84836	0.65294	0.066
Mof_C 	C 	0.71953	0.8459	0.65495	0.068
Mof_C 	C 	0.70188	0.82107	0.68791	-0.12
Mof_C 	C 	0.7326	0.79869	0.71885	-0.013
Mof_C 	C 	0.78098	0.80115	0.71683	-0.021
Mof_C 	C 	0.79865	0.82598	0.68389	-0.11
Mof_C 	C 	0.686	0.8024	0.40978	0.073
Mof_C 	C 	0.73729	0.80997	0.4569	0.061
Mof_C 	C 	0.76075	0.77786	0.45155	-0.117
Mof_C 	C 	0.733	0.73818	0.39912	-0.023
Mof_C 	C 	0.68172	0.73062	0.35204	-0.019
Mof_C 	C 	0.65823	0.76275	0.35738	-0.117
Mof_C 	C 	0.70933	0.02264	0.66003	0.071
Mof_C 	C 	0.74885	0.06705	0.65292	0.063
Mof_C 	C 	0.77483	0.12236	0.68507	-0.119
Mof_C 	C 	0.76128	0.13328	0.72436	-0.021
Mof_C 	C 	0.72178	0.08888	0.73148	-0.018
Mof_C 	C 	0.6958	0.03357	0.69933	-0.117
Mof_N 	N 	0.35953	0.76094	0.88749	-0.247
Mof_N 	N 	0.31927	0.73885	0.83192	-0.206
Mof_N 	N 	0.07549	0.63734	0.73063	-0.24
Mof_N 	N 	0.34876	0.75662	0.80548	-0.229
Mof_N 	N 	0.11527	0.62099	0.74378	-0.202
Mof_N 	N 	0.08469	0.56502	0.72747	-0.244
Mof_N 	N 	0.15979	0.73896	0.71739	-0.246
Mof_N 	N 	0.20189	0.72613	0.7313	-0.199
Mof_N 	N 	0.2307	0.74019	0.70435	-0.247
Mof_N 	N 	0.19819	0.577	0.82775	-0.243
Mof_N 	N 	0.23321	0.63364	0.84569	-0.198
Mof_N 	N 	0.27577	0.65792	0.90109	-0.221
Mof_N 	N 	0.17333	0.74665	0.8343	-0.246
Mof_N 	N 	0.21604	0.73312	0.84832	-0.205
Mof_N 	N 	0.25473	0.75318	0.90405	-0.24
Mof_N 	N 	0.19144	0.56799	0.71729	-0.24
Mof_N 	N 	0.21928	0.62354	0.73078	-0.206
Mof_N 	N 	0.25357	0.64133	0.70906	-0.243
Mof_N 	N 	0.85953	0.97204	0.59859	-0.247
Mof_N 	N 	0.81927	0.98735	0.58042	-0.206
Mof_N 	N 	0.57549	0.84486	0.43815	-0.239
Mof_N 	N 	0.84876	0.04328	0.59214	-0.229
Mof_N 	N 	0.61527	0.87149	0.49428	-0.202
Mof_N 	N 	0.58469	0.85722	0.51967	-0.244
Mof_N 	N 	0.65979	0.9424	0.42083	-0.246
Mof_N 	N 	0.70189	0.97059	0.47576	-0.199
Mof_N 	N 	0.7307	0.02635	0.49051	-0.247
Mof_N 	N 	0.69819	0.87044	0.62119	-0.243
Mof_N 	N 	0.73321	0.88752	0.59957	-0.198
Mof_N 	N 	0.77577	0.87468	0.61785	-0.221
Mof_N 	N 	0.67333	0.83903	0.42668	-0.246
Mof_N 	N 	0.71604	0.86772	0.48292	-0.205
Mof_N 	N 	0.75473	0.85068	0.50155	-0.24
Mof_N 	N 	0.69144	0.97415	0.62345	-0.24
Mof_N 	N 	0.71928	0.9885	0.59574	-0.205
Mof_N 	N 	0.75357	0.04451	0.61224	-0.243
Mof_O 	O 	0.8619	0.15408	0.55118	-0.368
Mof_O 	O 	0.85537	0.16136	0.62443	-0.472
Mof_O 	O 	0.08242	0.44867	0.67805	-0.46
Mof_O 	O 	0.07504	0.45176	0.74712	-0.451
Mof_O 	O 	0.02969	0.7185	0.70179	-0.463
Mof_O 	O 	0.10484	0.79897	0.76761	-0.399
Mof_O 	O 	0.84892	0.82804	0.58914	-0.46
Mof_O 	O 	0.91751	0.90552	0.66091	-0.418
Mof_O 	O 	0.3619	0.81072	0.70782	-0.368
Mof_O 	O 	0.35537	0.73094	0.69401	-0.471
Mof_O 	O 	0.58242	0.90437	0.63375	-0.46
Mof_O 	O 	0.57504	0.82792	0.62328	-0.451
Mof_O 	O 	0.52969	0.8279	0.31119	-0.463
Mof_O 	O 	0.60484	0.83723	0.30587	-0.399
Mof_O 	O 	0.34892	0.75978	0.02088	-0.461
Mof_O 	O 	0.41751	0.7566	0.01199	-0.419
Mof_Zn	Zn	0.39139	0.46156	0.68022	1.138
Mof_Zn	Zn	0.2857	0.39496	0.52878	1.187
Mof_Zn	Zn	0.47011	0.61238	0.72191	1.188
Mof_Zn	Zn	0.50731	0.42664	0.72361	1.18
Mof_Zn	Zn	0.30633	0.41637	0.74781	1.181
Mof_Zn	Zn	0.89139	0.21116	0.92983	1.138
Mof_Zn	Zn	0.7857	0.25692	0.89074	1.187
Mof_Zn	Zn	0.97011	0.2482	0.85772	1.187
Mof_Zn	Zn	0.00731	0.2837	0.08067	1.18
Mof_Zn	Zn	0.80633	0.05853	0.88996	1.181
Mof_H 	H 	0.0742	0.3477	0.2607	0.051
Mof_H 	H 	0.1284	0.3709	0.3567	0.044
Mof_H 	H 	0.2344	0.3212	0.3458	0.043
Mof_H 	H 	0.1801	0.2979	0.2498	0.053
Mof_H 	H 	0.5933	0.799	0.8643	0.052
Mof_H 	H 	0.6651	0.8946	0.8999	0.047
Mof_H 	H 	0.668	0.8774	0.7612	0.039
Mof_H 	H 	0.5961	0.7816	0.7255	0.056
Mof_H 	H 	0.3477	0.3491	0.8294	0.063
Mof_H 	H 	0.3994	0.3104	0.8788	0.035
Mof_H 	H 	0.4804	0.316	0.874	0.037
Mof_H 	H 	0.5096	0.3602	0.8198	0.068
Mof_H 	H 	0.2762	0.4839	0.4601	0.067
Mof_H 	H 	0.2967	0.5676	0.4457	0.033
Mof_H 	H 	0.3724	0.6545	0.5221	0.034
Mof_H 	H 	0.4276	0.6576	0.6128	0.07
Mof_H 	H 	0.6277	0.6856	0.7783	0.065
Mof_H 	H 	0.7258	0.7026	0.8096	0.035
Mof_H 	H 	0.7403	0.629	0.8111	0.04
Mof_H 	H 	0.6565	0.5383	0.7812	0.057
Mof_H 	H 	0.1301	0.3107	0.4798	0.068
Mof_H 	H 	0.0407	0.2588	0.4795	0.033
Mof_H 	H 	0.0482	0.2622	0.564	0.037
Mof_H 	H 	0.1451	0.3175	0.6488	0.07
Mof_H 	H 	0.2996	0.5166	0.812	0.062
Mof_H 	H 	0.321	0.6043	0.8533	0.032
Mof_H 	H 	0.3872	0.6833	0.8463	0.034
Mof_H 	H 	0.432	0.6744	0.798	0.069
Mof_H 	H 	0.472	0.3198	0.6212	0.062
Mof_H 	H 	0.4246	0.254	0.5328	0.03
Mof_H 	H 	0.3383	0.242	0.4547	0.034
Mof_H 	H 	0.2995	0.2959	0.465	0.077
Mof_H 	H 	0.5742	0.3135	0.7265	0.052
Mof_H 	H 	0.6284	0.2717	0.7575	0.044
Mof_H 	H 	0.7344	0.3886	0.9132	0.042
Mof_H 	H 	0.6801	0.4303	0.8822	0.053
Mof_H 	H 	0.0933	0.229	0.7943	0.052
Mof_H 	H 	0.1651	0.2652	0.7705	0.047
Mof_H 	H 	0.168	0.4068	0.7906	0.038
Mof_H 	H 	0.0961	0.3706	0.8145	0.057
Mof_H 	H 	0.8477	0.0183	0.9986	0.059
Mof_H 	H 	0.8994	0.0206	0.089	0.036
Mof_H 	H 	0.9804	0.1064	0.1644	0.038
Mof_H 	H 	0.0096	0.1898	0.1494	0.067
Mof_H 	H 	0.7762	0.3161	0.7923	0.067
Mof_H 	H 	0.7967	0.351	0.7291	0.033
Mof_H 	H 	0.8724	0.3503	0.7179	0.034
Mof_H 	H 	0.9276	0.3148	0.77	0.069
Mof_H 	H 	0.1277	0.3494	0.9421	0.065
Mof_H 	H 	0.2258	0.4162	0.0232	0.036
Mof_H 	H 	0.2403	0.4292	0.1113	0.039
Mof_H 	H 	0.1565	0.3753	0.1182	0.057
Mof_H 	H 	0.6301	0.1503	0.8194	0.068
Mof_H 	H 	0.5407	0.0612	0.7819	0.033
Mof_H 	H 	0.5482	0.9842	0.786	0.037
Mof_H 	H 	0.6451	0.9963	0.8276	0.071
Mof_H 	H 	0.7996	0.9876	0.783	0.063
Mof_H 	H 	0.821	0.9677	0.7167	0.033
Mof_H 	H 	0.8872	0.0409	0.7039	0.033
Mof_H 	H 	0.932	0.134	0.7576	0.069
Mof_H 	H 	0.972	0.3508	0.1522	0.062
Mof_H 	H 	0.9246	0.3918	0.1706	0.03
Mof_H 	H 	0.8383	0.3836	0.0963	0.033
Mof_H 	H 	0.7995	0.3345	0.0036	0.077
Mof_C 	C 	0.12208	0.32059	0.24633	-0.056
Mof_C 	C 	0.10677	0.34232	0.27809	-0.035
Mof_C 	C 	0.13896	0.35612	0.33502	-0.003
Mof_C 	C 	0.18647	0.34828	0.36021	-0.093
Mof_C 	C 	0.20178	0.32656	0.32844	-0.002
Mof_C 	C 	0.16958	0.31273	0.27151	-0.039
Mof_C 	C 	0.0857	0.3055	0.183	0.316
Mof_C 	C 	0.2223	0.3631	0.4248	0.392
Mof_C 	C 	0.58794	0.78129	0.79153	-0.066
Mof_C 	C 	0.60848	0.8149	0.84334	-0.027
Mof_C 	C 	0.65114	0.87173	0.86455	-0.014
Mof_C 	C 	0.67326	0.89495	0.83391	-0.082
Mof_C 	C 	0.65274	0.86136	0.7821	-0.007
Mof_C 	C 	0.61006	0.80453	0.76089	-0.032
Mof_C 	C 	0.5418	0.7176	0.7674	0.343
Mof_C 	C 	0.7223	0.95844	0.85834	0.349
Mof_C 	C 	0.44613	0.38103	0.7923	0.064
Mof_C 	C 	0.39777	0.37768	0.79513	0.06
Mof_C 	C 	0.38034	0.35132	0.82746	-0.117
Mof_C 	C 	0.41121	0.32829	0.85694	-0.014
Mof_C 	C 	0.45954	0.33163	0.85409	-0.02
Mof_C 	C 	0.47701	0.35801	0.82178	-0.11
Mof_C 	C 	0.38505	0.5728	0.59087	0.067
Mof_C 	C 	0.33966	0.52072	0.54506	0.069
Mof_C 	C 	0.30654	0.51875	0.49067	-0.115
Mof_C 	C 	0.31881	0.56884	0.48205	-0.019
Mof_C 	C 	0.36418	0.62092	0.52784	-0.017
Mof_C 	C 	0.39728	0.62287	0.58223	-0.119
Mof_C 	C 	0.59213	0.55772	0.76189	0.061
Mof_C 	C 	0.58347	0.6017	0.76099	0.066
Mof_C 	C 	0.63344	0.65587	0.77885	-0.115
Mof_C 	C 	0.69207	0.66607	0.7976	-0.014
Mof_C 	C 	0.70062	0.62203	0.79845	-0.021
Mof_C 	C 	0.65071	0.5679	0.78061	-0.112
Mof_C 	C 	0.19542	0.34706	0.61498	0.066
Mof_C 	C 	0.19095	0.34505	0.56458	0.068
Mof_C 	C 	0.13316	0.31209	0.51397	-0.12
Mof_C 	C 	0.07984	0.28115	0.51375	-0.012
Mof_C 	C 	0.08432	0.28317	0.56415	-0.021
Mof_C 	C 	0.14209	0.31611	0.61476	-0.109
Mof_C 	C 	0.39262	0.59022	0.77622	0.073
Mof_C 	C 	0.35307	0.5431	0.78039	0.061
Mof_C 	C 	0.32631	0.54845	0.8092	-0.117
Mof_C 	C 	0.33906	0.60088	0.83388	-0.023
Mof_C 	C 	0.37858	0.64796	0.82968	-0.019
Mof_C 	C 	0.40537	0.64262	0.80085	-0.117
Mof_C 	C 	0.36261	0.33997	0.5493	0.071
Mof_C 	C 	0.41413	0.34708	0.59593	0.063
Mof_C 	C 	0.43729	0.31493	0.58976	-0.118
Mof_C 	C 	0.40892	0.27564	0.53692	-0.022
Mof_C 	C 	0.3574	0.26852	0.4903	-0.017
Mof_C 	C 	0.33424	0.30067	0.49647	-0.118
Mof_C 	C 	0.62208	0.37575	0.80149	-0.056
Mof_C 	C 	0.60677	0.32868	0.76445	-0.036
Mof_C 	C 	0.63896	0.30394	0.78284	-0.003
Mof_C 	C 	0.68647	0.32626	0.83819	-0.094
Mof_C 	C 	0.70178	0.37334	0.87522	-0.001
Mof_C 	C 	0.66958	0.39807	0.85685	-0.039
Mof_C 	C 	0.5857	0.4027	0.7802	0.316
Mof_C 	C 	0.7223	0.2975	0.8592	0.393
Mof_C 	C 	0.08794	0.29641	0.80665	-0.066
Mof_C 	C 	0.10848	0.26514	0.79358	-0.027
Mof_C 	C 	0.15114	0.28659	0.77941	-0.014
Mof_C 	C 	0.17326	0.33935	0.77831	-0.082
Mof_C 	C 	0.15274	0.37064	0.79138	-0.006
Mof_C 	C 	0.11006	0.34917	0.80553	-0.033
Mof_C 	C 	0.0418	0.2744	0.8242	0.342
Mof_C 	C 	0.2223	0.36396	0.76386	0.349
Mof_C 	C 	0.94613	0.15383	0.0651	0.064
Mof_C 	C 	0.89777	0.10264	0.02009	0.06
Mof_C 	C 	0.88034	0.05288	0.02902	-0.112
Mof_C 	C 	0.91121	0.05427	0.08292	-0.017
Mof_C 	C 	0.95954	0.10545	0.12791	-0.019
Mof_C 	C 	0.97701	0.15523	0.119	-0.108
Mof_C 	C 	0.88505	0.29418	0.81225	0.066
Mof_C 	C 	0.83966	0.2946	0.81894	0.068
Mof_C 	C 	0.80654	0.31587	0.78779	-0.116
Mof_C 	C 	0.81881	0.33676	0.74997	-0.019
Mof_C 	C 	0.86418	0.33634	0.74326	-0.017
Mof_C 	C 	0.89728	0.31505	0.77441	-0.119
Mof_C 	C 	0.09213	0.33024	0.03441	0.059
Mof_C 	C 	0.08347	0.32248	0.98177	0.068
Mof_C 	C 	0.13344	0.35459	0.97757	-0.112
Mof_C 	C 	0.19207	0.39447	0.026	-0.018
Mof_C 	C 	0.20062	0.40217	0.07859	-0.019
Mof_C 	C 	0.15071	0.3701	0.08281	-0.112
Mof_C 	C 	0.69542	0.08044	0.84836	0.066
Mof_C 	C 	0.69095	0.12637	0.8459	0.068
Mof_C 	C 	0.63316	0.11919	0.82107	-0.12
Mof_C 	C 	0.57984	0.06609	0.79869	-0.013
Mof_C 	C 	0.58432	0.02017	0.80115	-0.021
Mof_C 	C 	0.64209	0.02733	0.82598	-0.111
Mof_C 	C 	0.89262	0.1164	0.8024	0.072
Mof_C 	C 	0.85307	0.07268	0.80997	0.061
Mof_C 	C 	0.82631	0.01711	0.77786	-0.118
Mof_C 	C 	0.83906	0.00518	0.73818	-0.025
Mof_C 	C 	0.87858	0.0489	0.73062	-0.018
Mof_C 	C 	0.90537	0.10452	0.76275	-0.117
Mof_C 	C 	0.86261	0.31331	0.02264	0.074
Mof_C 	C 	0.91413	0.3182	0.06705	0.062
Mof_C 	C 	0.93729	0.34753	0.12236	-0.117
Mof_C 	C 	0.90892	0.372	0.13328	-0.022
Mof_C 	C 	0.8574	0.3671	0.08888	-0.016
Mof_C 	C 	0.83424	0.33777	0.03357	-0.119
Mof_N 	N 	0.37345	0.40141	0.76094	-0.247
Mof_N 	N 	0.40693	0.41958	0.73885	-0.206
Mof_N 	N 	0.40671	0.56185	0.63734	-0.239
Mof_N 	N 	0.45114	0.40786	0.75662	-0.229
Mof_N 	N 	0.37721	0.50572	0.62099	-0.202
Mof_N 	N 	0.33755	0.48033	0.56502	-0.244
Mof_N 	N 	0.52157	0.57917	0.73896	-0.246
Mof_N 	N 	0.49483	0.52424	0.72613	-0.199
Mof_N 	N 	0.53584	0.50949	0.74019	-0.247
Mof_N 	N 	0.24925	0.37881	0.577	-0.243
Mof_N 	N 	0.28795	0.40043	0.63364	-0.198
Mof_N 	N 	0.25683	0.38215	0.65792	-0.221
Mof_N 	N 	0.41235	0.57332	0.74665	-0.246
Mof_N 	N 	0.3848	0.51708	0.73312	-0.205
Mof_N 	N 	0.34913	0.49845	0.75318	-0.24
Mof_N 	N 	0.3507	0.37655	0.56799	-0.24
Mof_N 	N 	0.39276	0.40426	0.62354	-0.206
Mof_N 	N 	0.43227	0.38776	0.64133	-0.243
Mof_N 	N 	0.87345	0.11251	0.97204	-0.248
Mof_N 	N 	0.90693	0.16808	0.98735	-0.208
Mof_N 	N 	0.90671	0.26937	0.84486	-0.24
Mof_N 	N 	0.95114	0.19452	0.04328	-0.228
Mof_N 	N 	0.87721	0.25622	0.87149	-0.202
Mof_N 	N 	0.83755	0.27253	0.85722	-0.244
Mof_N 	N 	0.02157	0.28261	0.9424	-0.245
Mof_N 	N 	0.99483	0.2687	0.97059	-0.201
Mof_N 	N 	0.03584	0.29565	0.02635	-0.247
Mof_N 	N 	0.74925	0.17225	0.87044	-0.243
Mof_N 	N 	0.78795	0.15431	0.88752	-0.198
Mof_N 	N 	0.75683	0.09891	0.87468	-0.222
Mof_N 	N 	0.91235	0.1657	0.83903	-0.247
Mof_N 	N 	0.8848	0.15168	0.86772	-0.205
Mof_N 	N 	0.84913	0.09595	0.85068	-0.24
Mof_N 	N 	0.8507	0.28271	0.97415	-0.241
Mof_N 	N 	0.89276	0.26922	0.9885	-0.207
Mof_N 	N 	0.93227	0.29094	0.04451	-0.241
Mof_O 	O 	0.1029	0.29218	0.15408	-0.369
Mof_O 	O 	0.03693	0.30599	0.16136	-0.472
Mof_O 	O 	0.27062	0.36625	0.44867	-0.46
Mof_O 	O 	0.20464	0.37672	0.45176	-0.451
Mof_O 	O 	0.51671	0.68881	0.7185	-0.463
Mof_O 	O 	0.53136	0.69413	0.79897	-0.399
Mof_O 	O 	0.7389	0.97912	0.82804	-0.46
Mof_O 	O 	0.74461	0.98801	0.90552	-0.418
Mof_O 	O 	0.6029	0.44882	0.81072	-0.368
Mof_O 	O 	0.53693	0.37557	0.73094	-0.471
Mof_O 	O 	0.77062	0.32195	0.90437	-0.461
Mof_O 	O 	0.70464	0.25288	0.82792	-0.451
Mof_O 	O 	0.01671	0.29821	0.8279	-0.462
Mof_O 	O 	0.03136	0.23239	0.83723	-0.398
Mof_O 	O 	0.2389	0.41086	0.75978	-0.46
Mof_O 	O 	0.24461	0.33909	0.7566	-0.418
Mof_Zn	Zn	0.10861	0.78884	0.07017	1.138
Mof_Zn	Zn	0.2143	0.74308	0.10926	1.187
Mof_Zn	Zn	0.02989	0.7518	0.14228	1.187
Mof_Zn	Zn	0.99269	0.7163	0.91933	1.18
Mof_Zn	Zn	0.19367	0.94147	0.11004	1.181
Mof_Zn	Zn	0.60861	0.53844	0.31978	1.138
Mof_Zn	Zn	0.7143	0.60504	0.47122	1.187
Mof_Zn	Zn	0.52989	0.38762	0.27809	1.188
Mof_Zn	Zn	0.49269	0.57336	0.27639	1.18
Mof_Zn	Zn	0.69367	0.58363	0.25219	1.181
Mof_H 	H 	0.4258	0.6865	0.2735	0.052
Mof_H 	H 	0.3716	0.7283	0.2425	0.044
Mof_H 	H 	0.2656	0.6114	0.0868	0.042
Mof_H 	H 	0.3199	0.5697	0.1178	0.053
Mof_H 	H 	0.9067	0.771	0.2057	0.052
Mof_H 	H 	0.8349	0.7348	0.2295	0.047
Mof_H 	H 	0.832	0.5932	0.2094	0.038
Mof_H 	H 	0.9039	0.6294	0.1855	0.057
Mof_H 	H 	0.1523	0.9817	0.0014	0.059
Mof_H 	H 	0.1006	0.9794	0.911	0.036
Mof_H 	H 	0.0196	0.8936	0.8356	0.038
Mof_H 	H 	0.9904	0.8102	0.8506	0.067
Mof_H 	H 	0.2238	0.6839	0.2077	0.067
Mof_H 	H 	0.2033	0.649	0.2709	0.033
Mof_H 	H 	0.1276	0.6497	0.2821	0.034
Mof_H 	H 	0.0724	0.6852	0.23	0.069
Mof_H 	H 	0.8723	0.6506	0.0579	0.065
Mof_H 	H 	0.7742	0.5838	0.9768	0.036
Mof_H 	H 	0.7597	0.5708	0.8887	0.039
Mof_H 	H 	0.8435	0.6247	0.8818	0.057
Mof_H 	H 	0.3699	0.8497	0.1806	0.068
Mof_H 	H 	0.4593	0.9388	0.2181	0.033
Mof_H 	H 	0.4518	0.0158	0.214	0.037
Mof_H 	H 	0.3549	0.0037	0.1724	0.071
Mof_H 	H 	0.2004	0.0124	0.217	0.063
Mof_H 	H 	0.179	0.0323	0.2833	0.033
Mof_H 	H 	0.1128	0.9591	0.2961	0.033
Mof_H 	H 	0.068	0.866	0.2424	0.069
Mof_H 	H 	0.028	0.6492	0.8478	0.062
Mof_H 	H 	0.0754	0.6082	0.8294	0.03
Mof_H 	H 	0.1617	0.6164	0.9037	0.033
Mof_H 	H 	0.2005	0.6655	0.9964	0.077
Mof_H 	H 	0.9258	0.6523	0.7393	0.051
Mof_H 	H 	0.8716	0.6291	0.6433	0.044
Mof_H 	H 	0.7656	0.6788	0.6542	0.043
Mof_H 	H 	0.8199	0.7021	0.7502	0.053
Mof_H 	H 	0.4067	0.201	0.1357	0.052
Mof_H 	H 	0.3349	0.1054	0.1001	0.047
Mof_H 	H 	0.332	0.1226	0.2388	0.039
Mof_H 	H 	0.4039	0.2184	0.2745	0.056
Mof_H 	H 	0.6523	0.6509	0.1706	0.063
Mof_H 	H 	0.6006	0.6896	0.1212	0.035
Mof_H 	H 	0.5196	0.684	0.126	0.037
Mof_H 	H 	0.4904	0.6398	0.1802	0.068
Mof_H 	H 	0.7238	0.5161	0.5399	0.067
Mof_H 	H 	0.7033	0.4324	0.5543	0.033
Mof_H 	H 	0.6276	0.3455	0.4779	0.034
Mof_H 	H 	0.5724	0.3424	0.3872	0.07
Mof_H 	H 	0.3723	0.3144	0.2217	0.065
Mof_H 	H 	0.2742	0.2974	0.1904	0.035
Mof_H 	H 	0.2597	0.371	0.1889	0.04
Mof_H 	H 	0.3435	0.4617	0.2188	0.057
Mof_H 	H 	0.8699	0.6893	0.5202	0.068
Mof_H 	H 	0.9593	0.7412	0.5205	0.033
Mof_H 	H 	0.9518	0.7378	0.436	0.037
Mof_H 	H 	0.8549	0.6825	0.3512	0.07
Mof_H 	H 	0.7004	0.4834	0.188	0.062
Mof_H 	H 	0.679	0.3957	0.1467	0.032
Mof_H 	H 	0.6128	0.3167	0.1537	0.034
Mof_H 	H 	0.568	0.3256	0.202	0.069
Mof_H 	H 	0.528	0.6802	0.3788	0.062
Mof_H 	H 	0.5754	0.746	0.4672	0.03
Mof_H 	H 	0.6617	0.758	0.5453	0.034
Mof_H 	H 	0.7005	0.7041	0.535	0.077
Mof_C 	C 	0.37792	0.62425	0.19851	-0.056
Mof_C 	C 	0.39323	0.67132	0.23555	-0.036
Mof_C 	C 	0.36104	0.69606	0.21716	-0.003
Mof_C 	C 	0.31353	0.67374	0.16181	-0.094
Mof_C 	C 	0.29822	0.62666	0.12478	-0.001
Mof_C 	C 	0.33042	0.60193	0.14315	-0.039
Mof_C 	C 	0.4143	0.5973	0.2198	0.316
Mof_C 	C 	0.2777	0.7025	0.1408	0.393
Mof_C 	C 	0.91206	0.70359	0.19335	-0.066
Mof_C 	C 	0.89152	0.73486	0.20642	-0.027
Mof_C 	C 	0.84886	0.71341	0.22059	-0.014
Mof_C 	C 	0.82674	0.66065	0.22169	-0.082
Mof_C 	C 	0.84726	0.62936	0.20862	-0.006
Mof_C 	C 	0.88994	0.65083	0.19447	-0.033
Mof_C 	C 	0.9582	0.7256	0.1758	0.342
Mof_C 	C 	0.7777	0.63604	0.23614	0.349
Mof_C 	C 	0.05387	0.84617	0.9349	0.064
Mof_C 	C 	0.10223	0.89736	0.97991	0.06
Mof_C 	C 	0.11966	0.94712	0.97098	-0.112
Mof_C 	C 	0.08879	0.94573	0.91708	-0.017
Mof_C 	C 	0.04046	0.89455	0.87209	-0.019
Mof_C 	C 	0.02299	0.84477	0.881	-0.108
Mof_C 	C 	0.11495	0.70582	0.18775	0.066
Mof_C 	C 	0.16034	0.7054	0.18106	0.068
Mof_C 	C 	0.19346	0.68413	0.21221	-0.116
Mof_C 	C 	0.18119	0.66324	0.25003	-0.019
Mof_C 	C 	0.13582	0.66366	0.25674	-0.017
Mof_C 	C 	0.10272	0.68495	0.22559	-0.119
Mof_C 	C 	0.90787	0.66976	0.96559	0.059
Mof_C 	C 	0.91653	0.67752	0.01823	0.068
Mof_C 	C 	0.86656	0.64541	0.02243	-0.112
Mof_C 	C 	0.80793	0.60553	0.974	-0.018
Mof_C 	C 	0.79938	0.59783	0.92141	-0.019
Mof_C 	C 	0.84929	0.6299	0.91719	-0.112
Mof_C 	C 	0.30458	0.91956	0.15164	0.066
Mof_C 	C 	0.30905	0.87363	0.1541	0.068
Mof_C 	C 	0.36684	0.88081	0.17893	-0.12
Mof_C 	C 	0.42016	0.93391	0.20131	-0.013
Mof_C 	C 	0.41568	0.97983	0.19885	-0.021
Mof_C 	C 	0.35791	0.97267	0.17402	-0.111
Mof_C 	C 	0.10738	0.8836	0.1976	0.072
Mof_C 	C 	0.14693	0.92732	0.19003	0.061
Mof_C 	C 	0.17369	0.98289	0.22214	-0.118
Mof_C 	C 	0.16094	0.99482	0.26182	-0.025
Mof_C 	C 	0.12142	0.9511	0.26938	-0.018
Mof_C 	C 	0.09463	0.89548	0.23725	-0.117
Mof_C 	C 	0.13739	0.68669	0.97736	0.074
Mof_C 	C 	0.08587	0.6818	0.93295	0.062
Mof_C 	C 	0.06271	0.65247	0.87764	-0.117
Mof_C 	C 	0.09108	0.628	0.86672	-0.022
Mof_C 	C 	0.1426	0.6329	0.91112	-0.016
Mof_C 	C 	0.16576	0.66223	0.96643	-0.119
Mof_C 	C 	0.87792	0.67941	0.75367	-0.056
Mof_C 	C 	0.89323	0.65768	0.72191	-0.035
Mof_C 	C 	0.86104	0.64388	0.66498	-0.003
Mof_C 	C 	0.81353	0.65172	0.63979	-0.093
Mof_C 	C 	0.79822	0.67344	0.67156	-0.002
Mof_C 	C 	0.83042	0.68727	0.72849	-0.039
Mof_C 	C 	0.9143	0.6945	0.817	0.316
Mof_C 	C 	0.7777	0.6369	0.5752	0.392
Mof_C 	C 	0.41206	0.21871	0.20847	-0.066
Mof_C 	C 	0.39152	0.1851	0.15666	-0.027
Mof_C 	C 	0.34886	0.12827	0.13545	-0.014
Mof_C 	C 	0.32674	0.10505	0.16609	-0.082
Mof_C 	C 	0.34726	0.13864	0.2179	-0.007
Mof_C 	C 	0.38994	0.19547	0.23911	-0.032
Mof_C 	C 	0.4582	0.2824	0.2326	0.343
Mof_C 	C 	0.2777	0.04156	0.14166	0.349
Mof_C 	C 	0.55387	0.61897	0.2077	0.064
Mof_C 	C 	0.60223	0.62232	0.20487	0.06
Mof_C 	C 	0.61966	0.64868	0.17254	-0.117
Mof_C 	C 	0.58879	0.67171	0.14306	-0.014
Mof_C 	C 	0.54046	0.66837	0.14591	-0.02
Mof_C 	C 	0.52299	0.64199	0.17822	-0.11
Mof_C 	C 	0.61495	0.4272	0.40913	0.067
Mof_C 	C 	0.66034	0.47928	0.45494	0.069
Mof_C 	C 	0.69346	0.48125	0.50933	-0.115
Mof_C 	C 	0.68119	0.43116	0.51795	-0.019
Mof_C 	C 	0.63582	0.37908	0.47216	-0.017
Mof_C 	C 	0.60272	0.37713	0.41777	-0.119
Mof_C 	C 	0.40787	0.44228	0.23811	0.061
Mof_C 	C 	0.41653	0.3983	0.23901	0.066
Mof_C 	C 	0.36656	0.34413	0.22115	-0.115
Mof_C 	C 	0.30793	0.33393	0.2024	-0.014
Mof_C 	C 	0.29938	0.37797	0.20155	-0.021
Mof_C 	C 	0.34929	0.4321	0.21939	-0.112
Mof_C 	C 	0.80458	0.65294	0.38502	0.066
Mof_C 	C 	0.80905	0.65495	0.43542	0.068
Mof_C 	C 	0.86684	0.68791	0.48603	-0.12
Mof_C 	C 	0.92016	0.71885	0.48625	-0.012
Mof_C 	C 	0.91568	0.71683	0.43585	-0.021
Mof_C 	C 	0.85791	0.68389	0.38524	-0.109
Mof_C 	C 	0.60738	0.40978	0.22378	0.073
Mof_C 	C 	0.64693	0.4569	0.21961	0.061
Mof_C 	C 	0.67369	0.45155	0.1908	-0.117
Mof_C 	C 	0.66094	0.39912	0.16612	-0.023
Mof_C 	C 	0.62142	0.35204	0.17032	-0.019
Mof_C 	C 	0.59463	0.35738	0.19915	-0.117
Mof_C 	C 	0.63739	0.66003	0.4507	0.071
Mof_C 	C 	0.58587	0.65292	0.40407	0.063
Mof_C 	C 	0.56271	0.68507	0.41024	-0.118
Mof_C 	C 	0.59108	0.72436	0.46308	-0.022
Mof_C 	C 	0.6426	0.73148	0.5097	-0.017
Mof_C 	C 	0.66576	0.69933	0.50353	-0.118
Mof_N 	N 	0.12655	0.88749	0.02796	-0.248
Mof_N 	N 	0.09307	0.83192	0.01265	-0.208
Mof_N 	N 	0.09329	0.73063	0.15514	-0.24
Mof_N 	N 	0.04886	0.80548	0.95672	-0.228
Mof_N 	N 	0.12279	0.74378	0.12851	-0.202
Mof_N 	N 	0.16245	0.72747	0.14278	-0.244
Mof_N 	N 	0.97843	0.71739	0.0576	-0.245
Mof_N 	N 	0.00517	0.7313	0.02941	-0.201
Mof_N 	N 	0.96416	0.70435	0.97365	-0.247
Mof_N 	N 	0.25075	0.82775	0.12956	-0.243
Mof_N 	N 	0.21205	0.84569	0.11248	-0.198
Mof_N 	N 	0.24317	0.90109	0.12532	-0.222
Mof_N 	N 	0.08765	0.8343	0.16097	-0.247
Mof_N 	N 	0.1152	0.84832	0.13228	-0.205
Mof_N 	N 	0.15087	0.90405	0.14932	-0.24
Mof_N 	N 	0.1493	0.71729	0.02585	-0.241
Mof_N 	N 	0.10724	0.73078	0.0115	-0.207
Mof_N 	N 	0.06773	0.70906	0.95549	-0.241
Mof_N 	N 	0.62655	0.59859	0.23906	-0.247
Mof_N 	N 	0.59307	0.58042	0.26115	-0.206
Mof_N 	N 	0.59329	0.43815	0.36266	-0.239
Mof_N 	N 	0.54886	0.59214	0.24338	-0.229
Mof_N 	N 	0.62279	0.49428	0.37901	-0.202
Mof_N 	N 	0.66245	0.51967	0.43498	-0.244
Mof_N 	N 	0.47843	0.42083	0.26104	-0.246
Mof_N 	N 	0.50517	0.47576	0.27387	-0.199
Mof_N 	N 	0.46416	0.49051	0.25981	-0.247
Mof_N 	N 	0.75075	0.62119	0.423	-0.243
Mof_N 	N 	0.71205	0.59957	0.36636	-0.198
Mof_N 	N 	0.74317	0.61785	0.34208	-0.221
Mof_N 	N 	0.58765	0.42668	0.25335	-0.246
Mof_N 	N 	0.6152	0.48292	0.26688	-0.205
Mof_N 	N 	0.65087	0.50155	0.24682	-0.24
Mof_N 	N 	0.6493	0.62345	0.43201	-0.24
Mof_N 	N 	0.60724	0.59574	0.37646	-0.206
Mof_N 	N 	0.56773	0.61224	0.35867	-0.243
Mof_O 	O 	0.3971	0.55118	0.18928	-0.368
Mof_O 	O 	0.46307	0.62443	0.26906	-0.471
Mof_O 	O 	0.22938	0.67805	0.09563	-0.461
Mof_O 	O 	0.29536	0.74712	0.17208	-0.451
Mof_O 	O 	0.98329	0.70179	0.1721	-0.462
Mof_O 	O 	0.96864	0.76761	0.16277	-0.398
Mof_O 	O 	0.7611	0.58914	0.24022	-0.46
Mof_O 	O 	0.75539	0.66091	0.2434	-0.418
Mof_O 	O 	0.8971	0.70782	0.84592	-0.369
Mof_O 	O 	0.96307	0.69401	0.83864	-0.472
Mof_O 	O 	0.72938	0.63375	0.55133	-0.46
Mof_O 	O 	0.79536	0.62328	0.54824	-0.451
Mof_O 	O 	0.48329	0.31119	0.2815	-0.463
Mof_O 	O 	0.46864	0.30587	0.20103	-0.399
Mof_O 	O 	0.2611	0.02088	0.17196	-0.46
Mof_O 	O 	0.25539	0.01199	0.09448	-0.418
_end
