data_functionalizedCrystal
_audit_creation_method	'EQeq! by Chris Wilmer'
_symmetry_space_group_name_H-M	'P1'
_symmetry_Int_Tables_number	1
_symmetry_cell_setting	triclinic
loop_
_symmetry_equiv_pos_as_xyz
  x,y,z
_cell_length_a	36.577
_cell_length_b	36.577
_cell_length_c	36.577
_cell_angle_alpha	90
_cell_angle_beta	90
_cell_angle_gamma	90
loop_
_atom_site_label
_atom_site_type_symbol
_atom_site_fract_x
_atom_site_fract_y
_atom_site_fract_z
_atom_site_charge
Mof_Cu	Cu	0.89121	0.66882	0.58599	0.803
Mof_Cu	Cu	0.95348	0.73125	0.55481	0.786
Mof_S 	S 	0.96786	0.71144	0.45747	-0.541
Mof_S 	S 	0.83165	0.68391	0.60106	-0.479
Mof_N 	N 	0.93064	0.69517	0.52098	-0.267
Mof_N 	N 	0.90394	0.66992	0.53304	-0.245
Mof_N 	N 	0.91553	0.66052	0.47498	-0.249
Mof_H 	H 	0.9147	0.6511	0.4535	0.128
Mof_N 	N 	0.87051	0.62237	0.50396	-0.327
Mof_H 	H 	0.8582	0.6172	0.5233	0.129
Mof_H 	H 	0.8669	0.6103	0.4841	0.144
Mof_N 	N 	0.80537	0.61874	0.57352	-0.261
Mof_N 	N 	0.78159	0.60714	0.54611	-0.251
Mof_N 	N 	0.78422	0.66722	0.54531	-0.244
Mof_H 	H 	0.7806	0.6896	0.5391	0.122
Mof_N 	N 	0.7446	0.6389	0.502	-0.322
Mof_H 	H 	0.7355	0.6191	0.4932	0.104
Mof_H 	H 	0.7381	0.6597	0.4932	0.132
Mof_C 	C 	0.93668	0.68903	0.48606	0.148
Mof_C 	C 	0.89606	0.64992	0.50478	0.212
Mof_C 	C 	0.80629	0.65491	0.57274	0.129
Mof_C 	C 	0.76927	0.63734	0.53	0.19
Mof_Cu	Cu	0.89121	0.16882	0.08599	0.802
Mof_Cu	Cu	0.95348	0.23125	0.05481	0.784
Mof_S 	S 	0.96786	0.21144	0.95747	-0.54
Mof_S 	S 	0.83165	0.18391	0.10106	-0.481
Mof_N 	N 	0.93064	0.19517	0.02098	-0.272
Mof_N 	N 	0.90394	0.16992	0.03304	-0.245
Mof_N 	N 	0.91553	0.16052	0.97498	-0.247
Mof_H 	H 	0.9147	0.1511	0.9535	0.127
Mof_N 	N 	0.87051	0.12237	0.00396	-0.334
Mof_H 	H 	0.8582	0.1172	0.0233	0.13
Mof_H 	H 	0.8669	0.1103	0.9841	0.151
Mof_N 	N 	0.80537	0.11874	0.07352	-0.261
Mof_N 	N 	0.78159	0.10714	0.04611	-0.252
Mof_N 	N 	0.78422	0.16722	0.04531	-0.245
Mof_H 	H 	0.7806	0.1896	0.0391	0.12
Mof_N 	N 	0.7446	0.1389	0.002	-0.337
Mof_H 	H 	0.7355	0.1191	0.9932	0.114
Mof_H 	H 	0.7381	0.1597	0.9932	0.142
Mof_C 	C 	0.93668	0.18903	0.98606	0.155
Mof_C 	C 	0.89606	0.14992	0.00478	0.206
Mof_C 	C 	0.80629	0.15491	0.07274	0.128
Mof_C 	C 	0.76927	0.13734	0.03	0.191
Mof_Cu	Cu	0.39121	0.66882	0.08599	0.802
Mof_Cu	Cu	0.45348	0.73125	0.05481	0.783
Mof_S 	S 	0.46786	0.71144	0.95747	-0.545
Mof_S 	S 	0.33165	0.68391	0.10106	-0.481
Mof_N 	N 	0.43064	0.69517	0.02098	-0.273
Mof_N 	N 	0.40394	0.66992	0.03304	-0.245
Mof_N 	N 	0.41553	0.66052	0.97498	-0.247
Mof_H 	H 	0.4147	0.6511	0.9535	0.127
Mof_N 	N 	0.37051	0.62237	0.00396	-0.334
Mof_H 	H 	0.3582	0.6172	0.0233	0.13
Mof_H 	H 	0.3669	0.6103	0.9841	0.151
Mof_N 	N 	0.30537	0.61874	0.07352	-0.261
Mof_N 	N 	0.28159	0.60714	0.04611	-0.252
Mof_N 	N 	0.28422	0.66722	0.04531	-0.245
Mof_H 	H 	0.2806	0.6896	0.0391	0.12
Mof_N 	N 	0.2446	0.6389	0.002	-0.337
Mof_H 	H 	0.2355	0.6191	0.9932	0.114
Mof_H 	H 	0.2381	0.6597	0.9932	0.142
Mof_C 	C 	0.43668	0.68903	0.98606	0.155
Mof_C 	C 	0.39606	0.64992	0.00478	0.206
Mof_C 	C 	0.30629	0.65491	0.07274	0.128
Mof_C 	C 	0.26927	0.63734	0.03	0.191
Mof_Cu	Cu	0.39121	0.16882	0.58599	0.802
Mof_Cu	Cu	0.45348	0.23125	0.55481	0.783
Mof_S 	S 	0.46786	0.21144	0.45747	-0.547
Mof_S 	S 	0.33165	0.18391	0.60106	-0.48
Mof_N 	N 	0.43064	0.19517	0.52098	-0.269
Mof_N 	N 	0.40394	0.16992	0.53304	-0.246
Mof_N 	N 	0.41553	0.16052	0.47498	-0.25
Mof_H 	H 	0.4147	0.1511	0.4535	0.127
Mof_N 	N 	0.37051	0.12237	0.50396	-0.327
Mof_H 	H 	0.3582	0.1172	0.5233	0.129
Mof_H 	H 	0.3669	0.1103	0.4841	0.144
Mof_N 	N 	0.30537	0.11874	0.57352	-0.261
Mof_N 	N 	0.28159	0.10714	0.54611	-0.251
Mof_N 	N 	0.28422	0.16722	0.54531	-0.244
Mof_H 	H 	0.2806	0.1896	0.5391	0.122
Mof_N 	N 	0.2446	0.1389	0.502	-0.322
Mof_H 	H 	0.2355	0.1191	0.4932	0.105
Mof_H 	H 	0.2381	0.1597	0.4932	0.132
Mof_C 	C 	0.43668	0.18903	0.48606	0.148
Mof_C 	C 	0.39606	0.14992	0.50478	0.211
Mof_C 	C 	0.30629	0.15491	0.57274	0.129
Mof_C 	C 	0.26927	0.13734	0.53	0.19
Mof_Cu	Cu	0.10879	0.33118	0.58599	0.801
Mof_Cu	Cu	0.04652	0.26875	0.55481	0.782
Mof_S 	S 	0.03214	0.28856	0.45747	-0.551
Mof_S 	S 	0.16835	0.31609	0.60106	-0.48
Mof_N 	N 	0.06936	0.30483	0.52098	-0.269
Mof_N 	N 	0.09606	0.33008	0.53304	-0.246
Mof_N 	N 	0.08447	0.33948	0.47498	-0.25
Mof_H 	H 	0.0853	0.3489	0.4535	0.126
Mof_N 	N 	0.12949	0.37763	0.50396	-0.327
Mof_H 	H 	0.1418	0.3828	0.5233	0.129
Mof_H 	H 	0.1331	0.3897	0.4841	0.144
Mof_N 	N 	0.19463	0.38126	0.57352	-0.261
Mof_N 	N 	0.21841	0.39286	0.54611	-0.251
Mof_N 	N 	0.21578	0.33278	0.54531	-0.244
Mof_H 	H 	0.2194	0.3104	0.5391	0.122
Mof_N 	N 	0.2554	0.3611	0.502	-0.322
Mof_H 	H 	0.2645	0.3809	0.4932	0.105
Mof_H 	H 	0.2619	0.3403	0.4932	0.132
Mof_C 	C 	0.06332	0.31097	0.48606	0.148
Mof_C 	C 	0.10394	0.35008	0.50478	0.211
Mof_C 	C 	0.19371	0.34509	0.57274	0.129
Mof_C 	C 	0.23073	0.36266	0.53	0.19
Mof_Cu	Cu	0.10879	0.83118	0.08599	0.801
Mof_Cu	Cu	0.04652	0.76875	0.05481	0.782
Mof_S 	S 	0.03214	0.78856	0.95747	-0.549
Mof_S 	S 	0.16835	0.81609	0.10106	-0.481
Mof_N 	N 	0.06936	0.80483	0.02098	-0.273
Mof_N 	N 	0.09606	0.83008	0.03304	-0.246
Mof_N 	N 	0.08447	0.83948	0.97498	-0.247
Mof_H 	H 	0.0853	0.8489	0.9535	0.127
Mof_N 	N 	0.12949	0.87763	0.00396	-0.334
Mof_H 	H 	0.1418	0.8828	0.0233	0.13
Mof_H 	H 	0.1331	0.8897	0.9841	0.151
Mof_N 	N 	0.19463	0.88126	0.07352	-0.261
Mof_N 	N 	0.21841	0.89286	0.04611	-0.252
Mof_N 	N 	0.21578	0.83278	0.04531	-0.245
Mof_H 	H 	0.2194	0.8104	0.0391	0.12
Mof_N 	N 	0.2554	0.8611	0.002	-0.337
Mof_H 	H 	0.2645	0.8809	0.9932	0.113
Mof_H 	H 	0.2619	0.8403	0.9932	0.142
Mof_C 	C 	0.06332	0.81097	0.98606	0.155
Mof_C 	C 	0.10394	0.85008	0.00478	0.206
Mof_C 	C 	0.19371	0.84509	0.07274	0.128
Mof_C 	C 	0.23073	0.86266	0.03	0.191
Mof_Cu	Cu	0.60879	0.33118	0.08599	0.802
Mof_Cu	Cu	0.54652	0.26875	0.05481	0.783
Mof_S 	S 	0.53214	0.28856	0.95747	-0.545
Mof_S 	S 	0.66835	0.31609	0.10106	-0.481
Mof_N 	N 	0.56936	0.30483	0.02098	-0.273
Mof_N 	N 	0.59606	0.33008	0.03304	-0.245
Mof_N 	N 	0.58447	0.33948	0.97498	-0.247
Mof_H 	H 	0.5853	0.3489	0.9535	0.127
Mof_N 	N 	0.62949	0.37763	0.00396	-0.334
Mof_H 	H 	0.6418	0.3828	0.0233	0.13
Mof_H 	H 	0.6331	0.3897	0.9841	0.151
Mof_N 	N 	0.69463	0.38126	0.07352	-0.261
Mof_N 	N 	0.71841	0.39286	0.04611	-0.252
Mof_N 	N 	0.71578	0.33278	0.04531	-0.245
Mof_H 	H 	0.7194	0.3104	0.0391	0.12
Mof_N 	N 	0.7554	0.3611	0.002	-0.337
Mof_H 	H 	0.7645	0.3809	0.9932	0.113
Mof_H 	H 	0.7619	0.3403	0.9932	0.142
Mof_C 	C 	0.56332	0.31097	0.98606	0.155
Mof_C 	C 	0.60394	0.35008	0.00478	0.206
Mof_C 	C 	0.69371	0.34509	0.07274	0.128
Mof_C 	C 	0.73073	0.36266	0.03	0.191
Mof_Cu	Cu	0.60879	0.83118	0.58599	0.802
Mof_Cu	Cu	0.54652	0.76875	0.55481	0.783
Mof_S 	S 	0.53214	0.78856	0.45747	-0.547
Mof_S 	S 	0.66835	0.81609	0.60106	-0.48
Mof_N 	N 	0.56936	0.80483	0.52098	-0.269
Mof_N 	N 	0.59606	0.83008	0.53304	-0.246
Mof_N 	N 	0.58447	0.83948	0.47498	-0.25
Mof_H 	H 	0.5853	0.8489	0.4535	0.127
Mof_N 	N 	0.62949	0.87763	0.50396	-0.328
Mof_H 	H 	0.6418	0.8828	0.5233	0.129
Mof_H 	H 	0.6331	0.8897	0.4841	0.144
Mof_N 	N 	0.69463	0.88126	0.57352	-0.261
Mof_N 	N 	0.71841	0.89286	0.54611	-0.251
Mof_N 	N 	0.71578	0.83278	0.54531	-0.244
Mof_H 	H 	0.7194	0.8104	0.5391	0.122
Mof_N 	N 	0.7554	0.8611	0.502	-0.322
Mof_H 	H 	0.7645	0.8809	0.4932	0.104
Mof_H 	H 	0.7619	0.8403	0.4932	0.132
Mof_C 	C 	0.56332	0.81097	0.48606	0.148
Mof_C 	C 	0.60394	0.85008	0.50478	0.212
Mof_C 	C 	0.69371	0.84509	0.57274	0.129
Mof_C 	C 	0.73073	0.86266	0.53	0.19
Mof_Cu	Cu	0.10879	0.66882	0.41401	0.801
Mof_Cu	Cu	0.04652	0.73125	0.44519	0.782
Mof_S 	S 	0.03214	0.71144	0.54253	-0.551
Mof_S 	S 	0.16835	0.68391	0.39894	-0.48
Mof_N 	N 	0.06936	0.69517	0.47902	-0.269
Mof_N 	N 	0.09606	0.66992	0.46696	-0.246
Mof_N 	N 	0.08447	0.66052	0.52502	-0.25
Mof_H 	H 	0.0853	0.6511	0.5465	0.126
Mof_N 	N 	0.12949	0.62237	0.49604	-0.327
Mof_H 	H 	0.1418	0.6172	0.4767	0.129
Mof_H 	H 	0.1331	0.6103	0.5159	0.144
Mof_N 	N 	0.19463	0.61874	0.42648	-0.261
Mof_N 	N 	0.21841	0.60714	0.45389	-0.251
Mof_N 	N 	0.21578	0.66722	0.45469	-0.244
Mof_H 	H 	0.2194	0.6896	0.4609	0.122
Mof_N 	N 	0.2554	0.6389	0.498	-0.322
Mof_H 	H 	0.2645	0.6191	0.5068	0.105
Mof_H 	H 	0.2619	0.6597	0.5068	0.132
Mof_C 	C 	0.06332	0.68903	0.51394	0.148
Mof_C 	C 	0.10394	0.64992	0.49522	0.211
Mof_C 	C 	0.19371	0.65491	0.42726	0.129
Mof_C 	C 	0.23073	0.63734	0.47	0.19
Mof_Cu	Cu	0.10879	0.16882	0.91401	0.802
Mof_Cu	Cu	0.04652	0.23125	0.94519	0.783
Mof_S 	S 	0.03214	0.21144	0.04253	-0.553
Mof_S 	S 	0.16835	0.18391	0.89894	-0.48
Mof_N 	N 	0.06936	0.19517	0.97902	-0.265
Mof_N 	N 	0.09606	0.16992	0.96696	-0.247
Mof_N 	N 	0.08447	0.16052	0.02502	-0.253
Mof_H 	H 	0.0853	0.1511	0.0465	0.126
Mof_N 	N 	0.12949	0.12237	0.99604	-0.321
Mof_H 	H 	0.1418	0.1172	0.9767	0.128
Mof_H 	H 	0.1331	0.1103	0.0159	0.136
Mof_N 	N 	0.19463	0.11874	0.92648	-0.261
Mof_N 	N 	0.21841	0.10714	0.95389	-0.25
Mof_N 	N 	0.21578	0.16722	0.95469	-0.244
Mof_H 	H 	0.2194	0.1896	0.9609	0.123
Mof_N 	N 	0.2554	0.1389	0.998	-0.308
Mof_H 	H 	0.2645	0.1191	0.0068	0.096
Mof_H 	H 	0.2619	0.1597	0.0068	0.123
Mof_C 	C 	0.06332	0.18903	0.01394	0.141
Mof_C 	C 	0.10394	0.14992	0.99522	0.216
Mof_C 	C 	0.19371	0.15491	0.92726	0.129
Mof_C 	C 	0.23073	0.13734	0.97	0.19
Mof_Cu	Cu	0.60879	0.66882	0.91401	0.802
Mof_Cu	Cu	0.54652	0.73125	0.94519	0.784
Mof_S 	S 	0.53214	0.71144	0.04253	-0.548
Mof_S 	S 	0.66835	0.68391	0.89894	-0.48
Mof_N 	N 	0.56936	0.69517	0.97902	-0.265
Mof_N 	N 	0.59606	0.66992	0.96696	-0.247
Mof_N 	N 	0.58447	0.66052	0.02502	-0.252
Mof_H 	H 	0.5853	0.6511	0.0465	0.127
Mof_N 	N 	0.62949	0.62237	0.99604	-0.321
Mof_H 	H 	0.6418	0.6172	0.9767	0.129
Mof_H 	H 	0.6331	0.6103	0.0159	0.137
Mof_N 	N 	0.69463	0.61874	0.92648	-0.261
Mof_N 	N 	0.71841	0.60714	0.95389	-0.249
Mof_N 	N 	0.71578	0.66722	0.95469	-0.244
Mof_H 	H 	0.7194	0.6896	0.9609	0.123
Mof_N 	N 	0.7554	0.6389	0.998	-0.308
Mof_H 	H 	0.7645	0.6191	0.0068	0.096
Mof_H 	H 	0.7619	0.6597	0.0068	0.123
Mof_C 	C 	0.56332	0.68903	0.01394	0.141
Mof_C 	C 	0.60394	0.64992	0.99522	0.217
Mof_C 	C 	0.69371	0.65491	0.92726	0.129
Mof_C 	C 	0.73073	0.63734	0.97	0.19
Mof_Cu	Cu	0.60879	0.16882	0.41401	0.802
Mof_Cu	Cu	0.54652	0.23125	0.44519	0.783
Mof_S 	S 	0.53214	0.21144	0.54253	-0.547
Mof_S 	S 	0.66835	0.18391	0.39894	-0.48
Mof_N 	N 	0.56936	0.19517	0.47902	-0.269
Mof_N 	N 	0.59606	0.16992	0.46696	-0.246
Mof_N 	N 	0.58447	0.16052	0.52502	-0.25
Mof_H 	H 	0.5853	0.1511	0.5465	0.127
Mof_N 	N 	0.62949	0.12237	0.49604	-0.327
Mof_H 	H 	0.6418	0.1172	0.4767	0.129
Mof_H 	H 	0.6331	0.1103	0.5159	0.144
Mof_N 	N 	0.69463	0.11874	0.42648	-0.261
Mof_N 	N 	0.71841	0.10714	0.45389	-0.251
Mof_N 	N 	0.71578	0.16722	0.45469	-0.244
Mof_H 	H 	0.7194	0.1896	0.4609	0.122
Mof_N 	N 	0.7554	0.1389	0.498	-0.322
Mof_H 	H 	0.7645	0.1191	0.5068	0.105
Mof_H 	H 	0.7619	0.1597	0.5068	0.132
Mof_C 	C 	0.56332	0.18903	0.51394	0.148
Mof_C 	C 	0.60394	0.14992	0.49522	0.211
Mof_C 	C 	0.69371	0.15491	0.42726	0.129
Mof_C 	C 	0.73073	0.13734	0.47	0.19
Mof_Cu	Cu	0.89121	0.33118	0.41401	0.802
Mof_Cu	Cu	0.95348	0.26875	0.44519	0.785
Mof_S 	S 	0.96786	0.28856	0.54253	-0.542
Mof_S 	S 	0.83165	0.31609	0.39894	-0.48
Mof_N 	N 	0.93064	0.30483	0.47902	-0.268
Mof_N 	N 	0.90394	0.33008	0.46696	-0.246
Mof_N 	N 	0.91553	0.33948	0.52502	-0.25
Mof_H 	H 	0.9147	0.3489	0.5465	0.127
Mof_N 	N 	0.87051	0.37763	0.49604	-0.328
Mof_H 	H 	0.8582	0.3828	0.4767	0.129
Mof_H 	H 	0.8669	0.3897	0.5159	0.144
Mof_N 	N 	0.80537	0.38126	0.42648	-0.261
Mof_N 	N 	0.78159	0.39286	0.45389	-0.251
Mof_N 	N 	0.78422	0.33278	0.45469	-0.244
Mof_H 	H 	0.7806	0.3104	0.4609	0.122
Mof_N 	N 	0.7446	0.3611	0.498	-0.322
Mof_H 	H 	0.7355	0.3809	0.5068	0.105
Mof_H 	H 	0.7381	0.3403	0.5068	0.132
Mof_C 	C 	0.93668	0.31097	0.51394	0.148
Mof_C 	C 	0.89606	0.35008	0.49522	0.212
Mof_C 	C 	0.80629	0.34509	0.42726	0.129
Mof_C 	C 	0.76927	0.36266	0.47	0.19
Mof_Cu	Cu	0.89121	0.83118	0.91401	0.802
Mof_Cu	Cu	0.95348	0.76875	0.94519	0.785
Mof_S 	S 	0.96786	0.78856	0.04253	-0.543
Mof_S 	S 	0.83165	0.81609	0.89894	-0.48
Mof_N 	N 	0.93064	0.80483	0.97902	-0.264
Mof_N 	N 	0.90394	0.83008	0.96696	-0.246
Mof_N 	N 	0.91553	0.83948	0.02502	-0.252
Mof_H 	H 	0.9147	0.8489	0.0465	0.127
Mof_N 	N 	0.87051	0.87763	0.99604	-0.322
Mof_H 	H 	0.8582	0.8828	0.9767	0.129
Mof_H 	H 	0.8669	0.8897	0.0159	0.138
Mof_N 	N 	0.80537	0.88126	0.92648	-0.261
Mof_N 	N 	0.78159	0.89286	0.95389	-0.249
Mof_N 	N 	0.78422	0.83278	0.95469	-0.244
Mof_H 	H 	0.7806	0.8104	0.9609	0.123
Mof_N 	N 	0.7446	0.8611	0.998	-0.308
Mof_H 	H 	0.7355	0.8809	0.0068	0.096
Mof_H 	H 	0.7381	0.8403	0.0068	0.123
Mof_C 	C 	0.93668	0.81097	0.01394	0.141
Mof_C 	C 	0.89606	0.85008	0.99522	0.218
Mof_C 	C 	0.80629	0.84509	0.92726	0.129
Mof_C 	C 	0.76927	0.86266	0.97	0.19
Mof_Cu	Cu	0.39121	0.33118	0.91401	0.802
Mof_Cu	Cu	0.45348	0.26875	0.94519	0.784
Mof_S 	S 	0.46786	0.28856	0.04253	-0.548
Mof_S 	S 	0.33165	0.31609	0.89894	-0.48
Mof_N 	N 	0.43064	0.30483	0.97902	-0.265
Mof_N 	N 	0.40394	0.33008	0.96696	-0.247
Mof_N 	N 	0.41553	0.33948	0.02502	-0.252
Mof_H 	H 	0.4147	0.3489	0.0465	0.127
Mof_N 	N 	0.37051	0.37763	0.99604	-0.321
Mof_H 	H 	0.3582	0.3828	0.9767	0.129
Mof_H 	H 	0.3669	0.3897	0.0159	0.137
Mof_N 	N 	0.30537	0.38126	0.92648	-0.261
Mof_N 	N 	0.28159	0.39286	0.95389	-0.249
Mof_N 	N 	0.28422	0.33278	0.95469	-0.244
Mof_H 	H 	0.2806	0.3104	0.9609	0.123
Mof_N 	N 	0.2446	0.3611	0.998	-0.308
Mof_H 	H 	0.2355	0.3809	0.0068	0.096
Mof_H 	H 	0.2381	0.3403	0.0068	0.123
Mof_C 	C 	0.43668	0.31097	0.01394	0.141
Mof_C 	C 	0.39606	0.35008	0.99522	0.217
Mof_C 	C 	0.30629	0.34509	0.92726	0.129
Mof_C 	C 	0.26927	0.36266	0.97	0.19
Mof_Cu	Cu	0.39121	0.83118	0.41401	0.802
Mof_Cu	Cu	0.45348	0.76875	0.44519	0.783
Mof_S 	S 	0.46786	0.78856	0.54253	-0.547
Mof_S 	S 	0.33165	0.81609	0.39894	-0.48
Mof_N 	N 	0.43064	0.80483	0.47902	-0.269
Mof_N 	N 	0.40394	0.83008	0.46696	-0.246
Mof_N 	N 	0.41553	0.83948	0.52502	-0.25
Mof_H 	H 	0.4147	0.8489	0.5465	0.127
Mof_N 	N 	0.37051	0.87763	0.49604	-0.328
Mof_H 	H 	0.3582	0.8828	0.4767	0.129
Mof_H 	H 	0.3669	0.8897	0.5159	0.144
Mof_N 	N 	0.30537	0.88126	0.42648	-0.261
Mof_N 	N 	0.28159	0.89286	0.45389	-0.251
Mof_N 	N 	0.28422	0.83278	0.45469	-0.244
Mof_H 	H 	0.2806	0.8104	0.4609	0.122
Mof_N 	N 	0.2446	0.8611	0.498	-0.322
Mof_H 	H 	0.2355	0.8809	0.5068	0.105
Mof_H 	H 	0.2381	0.8403	0.5068	0.132
Mof_C 	C 	0.43668	0.81097	0.51394	0.148
Mof_C 	C 	0.39606	0.85008	0.49522	0.212
Mof_C 	C 	0.30629	0.84509	0.42726	0.129
Mof_C 	C 	0.26927	0.86266	0.47	0.19
Mof_Cu	Cu	0.58599	0.89121	0.66882	0.802
Mof_Cu	Cu	0.55481	0.95348	0.73125	0.785
Mof_S 	S 	0.45747	0.96786	0.71144	-0.542
Mof_S 	S 	0.60106	0.83165	0.68391	-0.48
Mof_N 	N 	0.52098	0.93064	0.69517	-0.268
Mof_N 	N 	0.53304	0.90394	0.66992	-0.246
Mof_N 	N 	0.47498	0.91553	0.66052	-0.25
Mof_H 	H 	0.4535	0.9147	0.6511	0.127
Mof_N 	N 	0.50396	0.87051	0.62237	-0.328
Mof_H 	H 	0.5233	0.8582	0.6172	0.129
Mof_H 	H 	0.4841	0.8669	0.6103	0.144
Mof_N 	N 	0.57352	0.80537	0.61874	-0.261
Mof_N 	N 	0.54611	0.78159	0.60714	-0.251
Mof_N 	N 	0.54531	0.78422	0.66722	-0.244
Mof_H 	H 	0.5391	0.7806	0.6896	0.122
Mof_N 	N 	0.502	0.7446	0.6389	-0.322
Mof_H 	H 	0.4932	0.7355	0.6191	0.104
Mof_H 	H 	0.4932	0.7381	0.6597	0.132
Mof_C 	C 	0.48606	0.93668	0.68903	0.148
Mof_C 	C 	0.50478	0.89606	0.64992	0.212
Mof_C 	C 	0.57274	0.80629	0.65491	0.129
Mof_C 	C 	0.53	0.76927	0.63734	0.19
Mof_Cu	Cu	0.58599	0.39121	0.16882	0.802
Mof_Cu	Cu	0.55481	0.45348	0.23125	0.783
Mof_S 	S 	0.45747	0.46786	0.21144	-0.547
Mof_S 	S 	0.60106	0.33165	0.18391	-0.48
Mof_N 	N 	0.52098	0.43064	0.19517	-0.269
Mof_N 	N 	0.53304	0.40394	0.16992	-0.246
Mof_N 	N 	0.47498	0.41553	0.16052	-0.25
Mof_H 	H 	0.4535	0.4147	0.1511	0.127
Mof_N 	N 	0.50396	0.37051	0.12237	-0.327
Mof_H 	H 	0.5233	0.3582	0.1172	0.129
Mof_H 	H 	0.4841	0.3669	0.1103	0.144
Mof_N 	N 	0.57352	0.30537	0.11874	-0.261
Mof_N 	N 	0.54611	0.28159	0.10714	-0.251
Mof_N 	N 	0.54531	0.28422	0.16722	-0.244
Mof_H 	H 	0.5391	0.2806	0.1896	0.122
Mof_N 	N 	0.502	0.2446	0.1389	-0.322
Mof_H 	H 	0.4932	0.2355	0.1191	0.105
Mof_H 	H 	0.4932	0.2381	0.1597	0.132
Mof_C 	C 	0.48606	0.43668	0.18903	0.148
Mof_C 	C 	0.50478	0.39606	0.14992	0.211
Mof_C 	C 	0.57274	0.30629	0.15491	0.129
Mof_C 	C 	0.53	0.26927	0.13734	0.19
Mof_Cu	Cu	0.08599	0.89121	0.16882	0.802
Mof_Cu	Cu	0.05481	0.95348	0.23125	0.784
Mof_S 	S 	0.95747	0.96786	0.21144	-0.54
Mof_S 	S 	0.10106	0.83165	0.18391	-0.481
Mof_N 	N 	0.02098	0.93064	0.19517	-0.272
Mof_N 	N 	0.03304	0.90394	0.16992	-0.245
Mof_N 	N 	0.97498	0.91553	0.16052	-0.247
Mof_H 	H 	0.9535	0.9147	0.1511	0.127
Mof_N 	N 	0.00396	0.87051	0.12237	-0.334
Mof_H 	H 	0.0233	0.8582	0.1172	0.13
Mof_H 	H 	0.9841	0.8669	0.1103	0.151
Mof_N 	N 	0.07352	0.80537	0.11874	-0.261
Mof_N 	N 	0.04611	0.78159	0.10714	-0.252
Mof_N 	N 	0.04531	0.78422	0.16722	-0.245
Mof_H 	H 	0.0391	0.7806	0.1896	0.12
Mof_N 	N 	0.002	0.7446	0.1389	-0.337
Mof_H 	H 	0.9932	0.7355	0.1191	0.114
Mof_H 	H 	0.9932	0.7381	0.1597	0.142
Mof_C 	C 	0.98606	0.93668	0.18903	0.155
Mof_C 	C 	0.00478	0.89606	0.14992	0.206
Mof_C 	C 	0.07274	0.80629	0.15491	0.128
Mof_C 	C 	0.03	0.76927	0.13734	0.191
Mof_Cu	Cu	0.08599	0.39121	0.66882	0.802
Mof_Cu	Cu	0.05481	0.45348	0.73125	0.783
Mof_S 	S 	0.95747	0.46786	0.71144	-0.545
Mof_S 	S 	0.10106	0.33165	0.68391	-0.481
Mof_N 	N 	0.02098	0.43064	0.69517	-0.273
Mof_N 	N 	0.03304	0.40394	0.66992	-0.245
Mof_N 	N 	0.97498	0.41553	0.66052	-0.247
Mof_H 	H 	0.9535	0.4147	0.6511	0.127
Mof_N 	N 	0.00396	0.37051	0.62237	-0.334
Mof_H 	H 	0.0233	0.3582	0.6172	0.13
Mof_H 	H 	0.9841	0.3669	0.6103	0.151
Mof_N 	N 	0.07352	0.30537	0.61874	-0.261
Mof_N 	N 	0.04611	0.28159	0.60714	-0.252
Mof_N 	N 	0.04531	0.28422	0.66722	-0.245
Mof_H 	H 	0.0391	0.2806	0.6896	0.12
Mof_N 	N 	0.002	0.2446	0.6389	-0.337
Mof_H 	H 	0.9932	0.2355	0.6191	0.114
Mof_H 	H 	0.9932	0.2381	0.6597	0.142
Mof_C 	C 	0.98606	0.43668	0.68903	0.155
Mof_C 	C 	0.00478	0.39606	0.64992	0.206
Mof_C 	C 	0.07274	0.30629	0.65491	0.128
Mof_C 	C 	0.03	0.26927	0.63734	0.191
Mof_Cu	Cu	0.58599	0.10879	0.33118	0.801
Mof_Cu	Cu	0.55481	0.04652	0.26875	0.782
Mof_S 	S 	0.45747	0.03214	0.28856	-0.551
Mof_S 	S 	0.60106	0.16835	0.31609	-0.48
Mof_N 	N 	0.52098	0.06936	0.30483	-0.269
Mof_N 	N 	0.53304	0.09606	0.33008	-0.246
Mof_N 	N 	0.47498	0.08447	0.33948	-0.25
Mof_H 	H 	0.4535	0.0853	0.3489	0.126
Mof_N 	N 	0.50396	0.12949	0.37763	-0.327
Mof_H 	H 	0.5233	0.1418	0.3828	0.129
Mof_H 	H 	0.4841	0.1331	0.3897	0.144
Mof_N 	N 	0.57352	0.19463	0.38126	-0.261
Mof_N 	N 	0.54611	0.21841	0.39286	-0.251
Mof_N 	N 	0.54531	0.21578	0.33278	-0.244
Mof_H 	H 	0.5391	0.2194	0.3104	0.122
Mof_N 	N 	0.502	0.2554	0.3611	-0.322
Mof_H 	H 	0.4932	0.2645	0.3809	0.105
Mof_H 	H 	0.4932	0.2619	0.3403	0.132
Mof_C 	C 	0.48606	0.06332	0.31097	0.148
Mof_C 	C 	0.50478	0.10394	0.35008	0.211
Mof_C 	C 	0.57274	0.19371	0.34509	0.129
Mof_C 	C 	0.53	0.23073	0.36266	0.19
Mof_Cu	Cu	0.58599	0.60879	0.83118	0.802
Mof_Cu	Cu	0.55481	0.54652	0.76875	0.783
Mof_S 	S 	0.45747	0.53214	0.78856	-0.547
Mof_S 	S 	0.60106	0.66835	0.81609	-0.48
Mof_N 	N 	0.52098	0.56936	0.80483	-0.269
Mof_N 	N 	0.53304	0.59606	0.83008	-0.246
Mof_N 	N 	0.47498	0.58447	0.83948	-0.25
Mof_H 	H 	0.4535	0.5853	0.8489	0.127
Mof_N 	N 	0.50396	0.62949	0.87763	-0.328
Mof_H 	H 	0.5233	0.6418	0.8828	0.129
Mof_H 	H 	0.4841	0.6331	0.8897	0.144
Mof_N 	N 	0.57352	0.69463	0.88126	-0.261
Mof_N 	N 	0.54611	0.71841	0.89286	-0.251
Mof_N 	N 	0.54531	0.71578	0.83278	-0.244
Mof_H 	H 	0.5391	0.7194	0.8104	0.122
Mof_N 	N 	0.502	0.7554	0.8611	-0.322
Mof_H 	H 	0.4932	0.7645	0.8809	0.104
Mof_H 	H 	0.4932	0.7619	0.8403	0.132
Mof_C 	C 	0.48606	0.56332	0.81097	0.148
Mof_C 	C 	0.50478	0.60394	0.85008	0.212
Mof_C 	C 	0.57274	0.69371	0.84509	0.129
Mof_C 	C 	0.53	0.73073	0.86266	0.19
Mof_Cu	Cu	0.08599	0.10879	0.83118	0.801
Mof_Cu	Cu	0.05481	0.04652	0.76875	0.782
Mof_S 	S 	0.95747	0.03214	0.78856	-0.549
Mof_S 	S 	0.10106	0.16835	0.81609	-0.481
Mof_N 	N 	0.02098	0.06936	0.80483	-0.273
Mof_N 	N 	0.03304	0.09606	0.83008	-0.246
Mof_N 	N 	0.97498	0.08447	0.83948	-0.247
Mof_H 	H 	0.9535	0.0853	0.8489	0.127
Mof_N 	N 	0.00396	0.12949	0.87763	-0.334
Mof_H 	H 	0.0233	0.1418	0.8828	0.13
Mof_H 	H 	0.9841	0.1331	0.8897	0.151
Mof_N 	N 	0.07352	0.19463	0.88126	-0.261
Mof_N 	N 	0.04611	0.21841	0.89286	-0.252
Mof_N 	N 	0.04531	0.21578	0.83278	-0.245
Mof_H 	H 	0.0391	0.2194	0.8104	0.12
Mof_N 	N 	0.002	0.2554	0.8611	-0.337
Mof_H 	H 	0.9932	0.2645	0.8809	0.113
Mof_H 	H 	0.9932	0.2619	0.8403	0.142
Mof_C 	C 	0.98606	0.06332	0.81097	0.155
Mof_C 	C 	0.00478	0.10394	0.85008	0.206
Mof_C 	C 	0.07274	0.19371	0.84509	0.128
Mof_C 	C 	0.03	0.23073	0.86266	0.191
Mof_Cu	Cu	0.08599	0.60879	0.33118	0.802
Mof_Cu	Cu	0.05481	0.54652	0.26875	0.783
Mof_S 	S 	0.95747	0.53214	0.28856	-0.545
Mof_S 	S 	0.10106	0.66835	0.31609	-0.481
Mof_N 	N 	0.02098	0.56936	0.30483	-0.273
Mof_N 	N 	0.03304	0.59606	0.33008	-0.245
Mof_N 	N 	0.97498	0.58447	0.33948	-0.247
Mof_H 	H 	0.9535	0.5853	0.3489	0.127
Mof_N 	N 	0.00396	0.62949	0.37763	-0.334
Mof_H 	H 	0.0233	0.6418	0.3828	0.13
Mof_H 	H 	0.9841	0.6331	0.3897	0.151
Mof_N 	N 	0.07352	0.69463	0.38126	-0.261
Mof_N 	N 	0.04611	0.71841	0.39286	-0.252
Mof_N 	N 	0.04531	0.71578	0.33278	-0.245
Mof_H 	H 	0.0391	0.7194	0.3104	0.12
Mof_N 	N 	0.002	0.7554	0.3611	-0.337
Mof_H 	H 	0.9932	0.7645	0.3809	0.113
Mof_H 	H 	0.9932	0.7619	0.3403	0.142
Mof_C 	C 	0.98606	0.56332	0.31097	0.155
Mof_C 	C 	0.00478	0.60394	0.35008	0.206
Mof_C 	C 	0.07274	0.69371	0.34509	0.128
Mof_C 	C 	0.03	0.73073	0.36266	0.191
Mof_Cu	Cu	0.41401	0.10879	0.66882	0.801
Mof_Cu	Cu	0.44519	0.04652	0.73125	0.782
Mof_S 	S 	0.54253	0.03214	0.71144	-0.551
Mof_S 	S 	0.39894	0.16835	0.68391	-0.48
Mof_N 	N 	0.47902	0.06936	0.69517	-0.269
Mof_N 	N 	0.46696	0.09606	0.66992	-0.246
Mof_N 	N 	0.52502	0.08447	0.66052	-0.25
Mof_H 	H 	0.5465	0.0853	0.6511	0.126
Mof_N 	N 	0.49604	0.12949	0.62237	-0.327
Mof_H 	H 	0.4767	0.1418	0.6172	0.129
Mof_H 	H 	0.5159	0.1331	0.6103	0.144
Mof_N 	N 	0.42648	0.19463	0.61874	-0.261
Mof_N 	N 	0.45389	0.21841	0.60714	-0.251
Mof_N 	N 	0.45469	0.21578	0.66722	-0.244
Mof_H 	H 	0.4609	0.2194	0.6896	0.122
Mof_N 	N 	0.498	0.2554	0.6389	-0.322
Mof_H 	H 	0.5068	0.2645	0.6191	0.105
Mof_H 	H 	0.5068	0.2619	0.6597	0.132
Mof_C 	C 	0.51394	0.06332	0.68903	0.148
Mof_C 	C 	0.49522	0.10394	0.64992	0.211
Mof_C 	C 	0.42726	0.19371	0.65491	0.129
Mof_C 	C 	0.47	0.23073	0.63734	0.19
Mof_Cu	Cu	0.41401	0.60879	0.16882	0.802
Mof_Cu	Cu	0.44519	0.54652	0.23125	0.783
Mof_S 	S 	0.54253	0.53214	0.21144	-0.547
Mof_S 	S 	0.39894	0.66835	0.18391	-0.48
Mof_N 	N 	0.47902	0.56936	0.19517	-0.269
Mof_N 	N 	0.46696	0.59606	0.16992	-0.246
Mof_N 	N 	0.52502	0.58447	0.16052	-0.25
Mof_H 	H 	0.5465	0.5853	0.1511	0.127
Mof_N 	N 	0.49604	0.62949	0.12237	-0.327
Mof_H 	H 	0.4767	0.6418	0.1172	0.129
Mof_H 	H 	0.5159	0.6331	0.1103	0.144
Mof_N 	N 	0.42648	0.69463	0.11874	-0.261
Mof_N 	N 	0.45389	0.71841	0.10714	-0.251
Mof_N 	N 	0.45469	0.71578	0.16722	-0.244
Mof_H 	H 	0.4609	0.7194	0.1896	0.122
Mof_N 	N 	0.498	0.7554	0.1389	-0.322
Mof_H 	H 	0.5068	0.7645	0.1191	0.105
Mof_H 	H 	0.5068	0.7619	0.1597	0.132
Mof_C 	C 	0.51394	0.56332	0.18903	0.148
Mof_C 	C 	0.49522	0.60394	0.14992	0.211
Mof_C 	C 	0.42726	0.69371	0.15491	0.129
Mof_C 	C 	0.47	0.73073	0.13734	0.19
Mof_Cu	Cu	0.91401	0.10879	0.16882	0.802
Mof_Cu	Cu	0.94519	0.04652	0.23125	0.783
Mof_S 	S 	0.04253	0.03214	0.21144	-0.553
Mof_S 	S 	0.89894	0.16835	0.18391	-0.48
Mof_N 	N 	0.97902	0.06936	0.19517	-0.265
Mof_N 	N 	0.96696	0.09606	0.16992	-0.247
Mof_N 	N 	0.02502	0.08447	0.16052	-0.253
Mof_H 	H 	0.0465	0.0853	0.1511	0.126
Mof_N 	N 	0.99604	0.12949	0.12237	-0.321
Mof_H 	H 	0.9767	0.1418	0.1172	0.128
Mof_H 	H 	0.0159	0.1331	0.1103	0.136
Mof_N 	N 	0.92648	0.19463	0.11874	-0.261
Mof_N 	N 	0.95389	0.21841	0.10714	-0.25
Mof_N 	N 	0.95469	0.21578	0.16722	-0.244
Mof_H 	H 	0.9609	0.2194	0.1896	0.123
Mof_N 	N 	0.998	0.2554	0.1389	-0.308
Mof_H 	H 	0.0068	0.2645	0.1191	0.096
Mof_H 	H 	0.0068	0.2619	0.1597	0.123
Mof_C 	C 	0.01394	0.06332	0.18903	0.141
Mof_C 	C 	0.99522	0.10394	0.14992	0.216
Mof_C 	C 	0.92726	0.19371	0.15491	0.129
Mof_C 	C 	0.97	0.23073	0.13734	0.19
Mof_Cu	Cu	0.91401	0.60879	0.66882	0.802
Mof_Cu	Cu	0.94519	0.54652	0.73125	0.784
Mof_S 	S 	0.04253	0.53214	0.71144	-0.548
Mof_S 	S 	0.89894	0.66835	0.68391	-0.48
Mof_N 	N 	0.97902	0.56936	0.69517	-0.265
Mof_N 	N 	0.96696	0.59606	0.66992	-0.247
Mof_N 	N 	0.02502	0.58447	0.66052	-0.252
Mof_H 	H 	0.0465	0.5853	0.6511	0.127
Mof_N 	N 	0.99604	0.62949	0.62237	-0.321
Mof_H 	H 	0.9767	0.6418	0.6172	0.129
Mof_H 	H 	0.0159	0.6331	0.6103	0.137
Mof_N 	N 	0.92648	0.69463	0.61874	-0.261
Mof_N 	N 	0.95389	0.71841	0.60714	-0.249
Mof_N 	N 	0.95469	0.71578	0.66722	-0.244
Mof_H 	H 	0.9609	0.7194	0.6896	0.123
Mof_N 	N 	0.998	0.7554	0.6389	-0.308
Mof_H 	H 	0.0068	0.7645	0.6191	0.096
Mof_H 	H 	0.0068	0.7619	0.6597	0.123
Mof_C 	C 	0.01394	0.56332	0.68903	0.141
Mof_C 	C 	0.99522	0.60394	0.64992	0.217
Mof_C 	C 	0.92726	0.69371	0.65491	0.129
Mof_C 	C 	0.97	0.73073	0.63734	0.19
Mof_Cu	Cu	0.41401	0.89121	0.33118	0.802
Mof_Cu	Cu	0.44519	0.95348	0.26875	0.785
Mof_S 	S 	0.54253	0.96786	0.28856	-0.542
Mof_S 	S 	0.39894	0.83165	0.31609	-0.48
Mof_N 	N 	0.47902	0.93064	0.30483	-0.268
Mof_N 	N 	0.46696	0.90394	0.33008	-0.246
Mof_N 	N 	0.52502	0.91553	0.33948	-0.25
Mof_H 	H 	0.5465	0.9147	0.3489	0.127
Mof_N 	N 	0.49604	0.87051	0.37763	-0.328
Mof_H 	H 	0.4767	0.8582	0.3828	0.129
Mof_H 	H 	0.5159	0.8669	0.3897	0.144
Mof_N 	N 	0.42648	0.80537	0.38126	-0.261
Mof_N 	N 	0.45389	0.78159	0.39286	-0.251
Mof_N 	N 	0.45469	0.78422	0.33278	-0.244
Mof_H 	H 	0.4609	0.7806	0.3104	0.122
Mof_N 	N 	0.498	0.7446	0.3611	-0.322
Mof_H 	H 	0.5068	0.7355	0.3809	0.105
Mof_H 	H 	0.5068	0.7381	0.3403	0.132
Mof_C 	C 	0.51394	0.93668	0.31097	0.148
Mof_C 	C 	0.49522	0.89606	0.35008	0.212
Mof_C 	C 	0.42726	0.80629	0.34509	0.129
Mof_C 	C 	0.47	0.76927	0.36266	0.19
Mof_Cu	Cu	0.41401	0.39121	0.83118	0.802
Mof_Cu	Cu	0.44519	0.45348	0.76875	0.783
Mof_S 	S 	0.54253	0.46786	0.78856	-0.547
Mof_S 	S 	0.39894	0.33165	0.81609	-0.48
Mof_N 	N 	0.47902	0.43064	0.80483	-0.269
Mof_N 	N 	0.46696	0.40394	0.83008	-0.246
Mof_N 	N 	0.52502	0.41553	0.83948	-0.25
Mof_H 	H 	0.5465	0.4147	0.8489	0.127
Mof_N 	N 	0.49604	0.37051	0.87763	-0.328
Mof_H 	H 	0.4767	0.3582	0.8828	0.129
Mof_H 	H 	0.5159	0.3669	0.8897	0.144
Mof_N 	N 	0.42648	0.30537	0.88126	-0.261
Mof_N 	N 	0.45389	0.28159	0.89286	-0.251
Mof_N 	N 	0.45469	0.28422	0.83278	-0.244
Mof_H 	H 	0.4609	0.2806	0.8104	0.122
Mof_N 	N 	0.498	0.2446	0.8611	-0.322
Mof_H 	H 	0.5068	0.2355	0.8809	0.105
Mof_H 	H 	0.5068	0.2381	0.8403	0.132
Mof_C 	C 	0.51394	0.43668	0.81097	0.148
Mof_C 	C 	0.49522	0.39606	0.85008	0.212
Mof_C 	C 	0.42726	0.30629	0.84509	0.129
Mof_C 	C 	0.47	0.26927	0.86266	0.19
Mof_Cu	Cu	0.91401	0.89121	0.83118	0.802
Mof_Cu	Cu	0.94519	0.95348	0.76875	0.785
Mof_S 	S 	0.04253	0.96786	0.78856	-0.543
Mof_S 	S 	0.89894	0.83165	0.81609	-0.48
Mof_N 	N 	0.97902	0.93064	0.80483	-0.264
Mof_N 	N 	0.96696	0.90394	0.83008	-0.246
Mof_N 	N 	0.02502	0.91553	0.83948	-0.252
Mof_H 	H 	0.0465	0.9147	0.8489	0.127
Mof_N 	N 	0.99604	0.87051	0.87763	-0.322
Mof_H 	H 	0.9767	0.8582	0.8828	0.129
Mof_H 	H 	0.0159	0.8669	0.8897	0.138
Mof_N 	N 	0.92648	0.80537	0.88126	-0.261
Mof_N 	N 	0.95389	0.78159	0.89286	-0.249
Mof_N 	N 	0.95469	0.78422	0.83278	-0.244
Mof_H 	H 	0.9609	0.7806	0.8104	0.123
Mof_N 	N 	0.998	0.7446	0.8611	-0.308
Mof_H 	H 	0.0068	0.7355	0.8809	0.096
Mof_H 	H 	0.0068	0.7381	0.8403	0.123
Mof_C 	C 	0.01394	0.93668	0.81097	0.141
Mof_C 	C 	0.99522	0.89606	0.85008	0.218
Mof_C 	C 	0.92726	0.80629	0.84509	0.129
Mof_C 	C 	0.97	0.76927	0.86266	0.19
Mof_Cu	Cu	0.91401	0.39121	0.33118	0.802
Mof_Cu	Cu	0.94519	0.45348	0.26875	0.784
Mof_S 	S 	0.04253	0.46786	0.28856	-0.548
Mof_S 	S 	0.89894	0.33165	0.31609	-0.48
Mof_N 	N 	0.97902	0.43064	0.30483	-0.265
Mof_N 	N 	0.96696	0.40394	0.33008	-0.247
Mof_N 	N 	0.02502	0.41553	0.33948	-0.252
Mof_H 	H 	0.0465	0.4147	0.3489	0.127
Mof_N 	N 	0.99604	0.37051	0.37763	-0.321
Mof_H 	H 	0.9767	0.3582	0.3828	0.129
Mof_H 	H 	0.0159	0.3669	0.3897	0.137
Mof_N 	N 	0.92648	0.30537	0.38126	-0.261
Mof_N 	N 	0.95389	0.28159	0.39286	-0.249
Mof_N 	N 	0.95469	0.28422	0.33278	-0.244
Mof_H 	H 	0.9609	0.2806	0.3104	0.123
Mof_N 	N 	0.998	0.2446	0.3611	-0.308
Mof_H 	H 	0.0068	0.2355	0.3809	0.096
Mof_H 	H 	0.0068	0.2381	0.3403	0.123
Mof_C 	C 	0.01394	0.43668	0.31097	0.141
Mof_C 	C 	0.99522	0.39606	0.35008	0.217
Mof_C 	C 	0.92726	0.30629	0.34509	0.129
Mof_C 	C 	0.97	0.26927	0.36266	0.19
Mof_Cu	Cu	0.66882	0.58599	0.89121	0.802
Mof_Cu	Cu	0.73125	0.55481	0.95348	0.785
Mof_S 	S 	0.71144	0.45747	0.96786	-0.542
Mof_S 	S 	0.68391	0.60106	0.83165	-0.48
Mof_N 	N 	0.69517	0.52098	0.93064	-0.268
Mof_N 	N 	0.66992	0.53304	0.90394	-0.246
Mof_N 	N 	0.66052	0.47498	0.91553	-0.25
Mof_H 	H 	0.6511	0.4535	0.9147	0.127
Mof_N 	N 	0.62237	0.50396	0.87051	-0.328
Mof_H 	H 	0.6172	0.5233	0.8582	0.129
Mof_H 	H 	0.6103	0.4841	0.8669	0.144
Mof_N 	N 	0.61874	0.57352	0.80537	-0.261
Mof_N 	N 	0.60714	0.54611	0.78159	-0.251
Mof_N 	N 	0.66722	0.54531	0.78422	-0.244
Mof_H 	H 	0.6896	0.5391	0.7806	0.122
Mof_N 	N 	0.6389	0.502	0.7446	-0.322
Mof_H 	H 	0.6191	0.4932	0.7355	0.104
Mof_H 	H 	0.6597	0.4932	0.7381	0.132
Mof_C 	C 	0.68903	0.48606	0.93668	0.148
Mof_C 	C 	0.64992	0.50478	0.89606	0.212
Mof_C 	C 	0.65491	0.57274	0.80629	0.129
Mof_C 	C 	0.63734	0.53	0.76927	0.19
Mof_Cu	Cu	0.66882	0.08599	0.39121	0.802
Mof_Cu	Cu	0.73125	0.05481	0.45348	0.783
Mof_S 	S 	0.71144	0.95747	0.46786	-0.545
Mof_S 	S 	0.68391	0.10106	0.33165	-0.481
Mof_N 	N 	0.69517	0.02098	0.43064	-0.273
Mof_N 	N 	0.66992	0.03304	0.40394	-0.245
Mof_N 	N 	0.66052	0.97498	0.41553	-0.247
Mof_H 	H 	0.6511	0.9535	0.4147	0.127
Mof_N 	N 	0.62237	0.00396	0.37051	-0.334
Mof_H 	H 	0.6172	0.0233	0.3582	0.13
Mof_H 	H 	0.6103	0.9841	0.3669	0.151
Mof_N 	N 	0.61874	0.07352	0.30537	-0.261
Mof_N 	N 	0.60714	0.04611	0.28159	-0.252
Mof_N 	N 	0.66722	0.04531	0.28422	-0.245
Mof_H 	H 	0.6896	0.0391	0.2806	0.12
Mof_N 	N 	0.6389	0.002	0.2446	-0.337
Mof_H 	H 	0.6191	0.9932	0.2355	0.114
Mof_H 	H 	0.6597	0.9932	0.2381	0.142
Mof_C 	C 	0.68903	0.98606	0.43668	0.155
Mof_C 	C 	0.64992	0.00478	0.39606	0.206
Mof_C 	C 	0.65491	0.07274	0.30629	0.128
Mof_C 	C 	0.63734	0.03	0.26927	0.191
Mof_Cu	Cu	0.16882	0.58599	0.39121	0.802
Mof_Cu	Cu	0.23125	0.55481	0.45348	0.783
Mof_S 	S 	0.21144	0.45747	0.46786	-0.547
Mof_S 	S 	0.18391	0.60106	0.33165	-0.48
Mof_N 	N 	0.19517	0.52098	0.43064	-0.269
Mof_N 	N 	0.16992	0.53304	0.40394	-0.246
Mof_N 	N 	0.16052	0.47498	0.41553	-0.25
Mof_H 	H 	0.1511	0.4535	0.4147	0.127
Mof_N 	N 	0.12237	0.50396	0.37051	-0.327
Mof_H 	H 	0.1172	0.5233	0.3582	0.129
Mof_H 	H 	0.1103	0.4841	0.3669	0.144
Mof_N 	N 	0.11874	0.57352	0.30537	-0.261
Mof_N 	N 	0.10714	0.54611	0.28159	-0.251
Mof_N 	N 	0.16722	0.54531	0.28422	-0.244
Mof_H 	H 	0.1896	0.5391	0.2806	0.122
Mof_N 	N 	0.1389	0.502	0.2446	-0.322
Mof_H 	H 	0.1191	0.4932	0.2355	0.105
Mof_H 	H 	0.1597	0.4932	0.2381	0.132
Mof_C 	C 	0.18903	0.48606	0.43668	0.148
Mof_C 	C 	0.14992	0.50478	0.39606	0.211
Mof_C 	C 	0.15491	0.57274	0.30629	0.129
Mof_C 	C 	0.13734	0.53	0.26927	0.19
Mof_Cu	Cu	0.16882	0.08599	0.89121	0.802
Mof_Cu	Cu	0.23125	0.05481	0.95348	0.784
Mof_S 	S 	0.21144	0.95747	0.96786	-0.54
Mof_S 	S 	0.18391	0.10106	0.83165	-0.481
Mof_N 	N 	0.19517	0.02098	0.93064	-0.272
Mof_N 	N 	0.16992	0.03304	0.90394	-0.245
Mof_N 	N 	0.16052	0.97498	0.91553	-0.247
Mof_H 	H 	0.1511	0.9535	0.9147	0.127
Mof_N 	N 	0.12237	0.00396	0.87051	-0.334
Mof_H 	H 	0.1172	0.0233	0.8582	0.13
Mof_H 	H 	0.1103	0.9841	0.8669	0.151
Mof_N 	N 	0.11874	0.07352	0.80537	-0.261
Mof_N 	N 	0.10714	0.04611	0.78159	-0.252
Mof_N 	N 	0.16722	0.04531	0.78422	-0.245
Mof_H 	H 	0.1896	0.0391	0.7806	0.12
Mof_N 	N 	0.1389	0.002	0.7446	-0.337
Mof_H 	H 	0.1191	0.9932	0.7355	0.114
Mof_H 	H 	0.1597	0.9932	0.7381	0.142
Mof_C 	C 	0.18903	0.98606	0.93668	0.155
Mof_C 	C 	0.14992	0.00478	0.89606	0.206
Mof_C 	C 	0.15491	0.07274	0.80629	0.128
Mof_C 	C 	0.13734	0.03	0.76927	0.191
Mof_Cu	Cu	0.33118	0.58599	0.10879	0.801
Mof_Cu	Cu	0.26875	0.55481	0.04652	0.782
Mof_S 	S 	0.28856	0.45747	0.03214	-0.551
Mof_S 	S 	0.31609	0.60106	0.16835	-0.48
Mof_N 	N 	0.30483	0.52098	0.06936	-0.269
Mof_N 	N 	0.33008	0.53304	0.09606	-0.246
Mof_N 	N 	0.33948	0.47498	0.08447	-0.25
Mof_H 	H 	0.3489	0.4535	0.0853	0.126
Mof_N 	N 	0.37763	0.50396	0.12949	-0.327
Mof_H 	H 	0.3828	0.5233	0.1418	0.129
Mof_H 	H 	0.3897	0.4841	0.1331	0.144
Mof_N 	N 	0.38126	0.57352	0.19463	-0.261
Mof_N 	N 	0.39286	0.54611	0.21841	-0.251
Mof_N 	N 	0.33278	0.54531	0.21578	-0.244
Mof_H 	H 	0.3104	0.5391	0.2194	0.122
Mof_N 	N 	0.3611	0.502	0.2554	-0.322
Mof_H 	H 	0.3809	0.4932	0.2645	0.105
Mof_H 	H 	0.3403	0.4932	0.2619	0.132
Mof_C 	C 	0.31097	0.48606	0.06332	0.148
Mof_C 	C 	0.35008	0.50478	0.10394	0.211
Mof_C 	C 	0.34509	0.57274	0.19371	0.129
Mof_C 	C 	0.36266	0.53	0.23073	0.19
Mof_Cu	Cu	0.33118	0.08599	0.60879	0.802
Mof_Cu	Cu	0.26875	0.05481	0.54652	0.783
Mof_S 	S 	0.28856	0.95747	0.53214	-0.545
Mof_S 	S 	0.31609	0.10106	0.66835	-0.481
Mof_N 	N 	0.30483	0.02098	0.56936	-0.273
Mof_N 	N 	0.33008	0.03304	0.59606	-0.245
Mof_N 	N 	0.33948	0.97498	0.58447	-0.247
Mof_H 	H 	0.3489	0.9535	0.5853	0.127
Mof_N 	N 	0.37763	0.00396	0.62949	-0.334
Mof_H 	H 	0.3828	0.0233	0.6418	0.13
Mof_H 	H 	0.3897	0.9841	0.6331	0.151
Mof_N 	N 	0.38126	0.07352	0.69463	-0.261
Mof_N 	N 	0.39286	0.04611	0.71841	-0.252
Mof_N 	N 	0.33278	0.04531	0.71578	-0.245
Mof_H 	H 	0.3104	0.0391	0.7194	0.12
Mof_N 	N 	0.3611	0.002	0.7554	-0.337
Mof_H 	H 	0.3809	0.9932	0.7645	0.113
Mof_H 	H 	0.3403	0.9932	0.7619	0.142
Mof_C 	C 	0.31097	0.98606	0.56332	0.155
Mof_C 	C 	0.35008	0.00478	0.60394	0.206
Mof_C 	C 	0.34509	0.07274	0.69371	0.128
Mof_C 	C 	0.36266	0.03	0.73073	0.191
Mof_Cu	Cu	0.83118	0.58599	0.60879	0.802
Mof_Cu	Cu	0.76875	0.55481	0.54652	0.783
Mof_S 	S 	0.78856	0.45747	0.53214	-0.547
Mof_S 	S 	0.81609	0.60106	0.66835	-0.48
Mof_N 	N 	0.80483	0.52098	0.56936	-0.269
Mof_N 	N 	0.83008	0.53304	0.59606	-0.246
Mof_N 	N 	0.83948	0.47498	0.58447	-0.25
Mof_H 	H 	0.8489	0.4535	0.5853	0.127
Mof_N 	N 	0.87763	0.50396	0.62949	-0.328
Mof_H 	H 	0.8828	0.5233	0.6418	0.129
Mof_H 	H 	0.8897	0.4841	0.6331	0.144
Mof_N 	N 	0.88126	0.57352	0.69463	-0.261
Mof_N 	N 	0.89286	0.54611	0.71841	-0.251
Mof_N 	N 	0.83278	0.54531	0.71578	-0.244
Mof_H 	H 	0.8104	0.5391	0.7194	0.122
Mof_N 	N 	0.8611	0.502	0.7554	-0.322
Mof_H 	H 	0.8809	0.4932	0.7645	0.104
Mof_H 	H 	0.8403	0.4932	0.7619	0.132
Mof_C 	C 	0.81097	0.48606	0.56332	0.148
Mof_C 	C 	0.85008	0.50478	0.60394	0.212
Mof_C 	C 	0.84509	0.57274	0.69371	0.129
Mof_C 	C 	0.86266	0.53	0.73073	0.19
Mof_Cu	Cu	0.83118	0.08599	0.10879	0.801
Mof_Cu	Cu	0.76875	0.05481	0.04652	0.782
Mof_S 	S 	0.78856	0.95747	0.03214	-0.549
Mof_S 	S 	0.81609	0.10106	0.16835	-0.481
Mof_N 	N 	0.80483	0.02098	0.06936	-0.273
Mof_N 	N 	0.83008	0.03304	0.09606	-0.246
Mof_N 	N 	0.83948	0.97498	0.08447	-0.247
Mof_H 	H 	0.8489	0.9535	0.0853	0.127
Mof_N 	N 	0.87763	0.00396	0.12949	-0.334
Mof_H 	H 	0.8828	0.0233	0.1418	0.13
Mof_H 	H 	0.8897	0.9841	0.1331	0.151
Mof_N 	N 	0.88126	0.07352	0.19463	-0.261
Mof_N 	N 	0.89286	0.04611	0.21841	-0.252
Mof_N 	N 	0.83278	0.04531	0.21578	-0.245
Mof_H 	H 	0.8104	0.0391	0.2194	0.12
Mof_N 	N 	0.8611	0.002	0.2554	-0.337
Mof_H 	H 	0.8809	0.9932	0.2645	0.113
Mof_H 	H 	0.8403	0.9932	0.2619	0.142
Mof_C 	C 	0.81097	0.98606	0.06332	0.155
Mof_C 	C 	0.85008	0.00478	0.10394	0.206
Mof_C 	C 	0.84509	0.07274	0.19371	0.128
Mof_C 	C 	0.86266	0.03	0.23073	0.191
Mof_Cu	Cu	0.66882	0.41401	0.10879	0.801
Mof_Cu	Cu	0.73125	0.44519	0.04652	0.782
Mof_S 	S 	0.71144	0.54253	0.03214	-0.551
Mof_S 	S 	0.68391	0.39894	0.16835	-0.48
Mof_N 	N 	0.69517	0.47902	0.06936	-0.269
Mof_N 	N 	0.66992	0.46696	0.09606	-0.246
Mof_N 	N 	0.66052	0.52502	0.08447	-0.25
Mof_H 	H 	0.6511	0.5465	0.0853	0.126
Mof_N 	N 	0.62237	0.49604	0.12949	-0.327
Mof_H 	H 	0.6172	0.4767	0.1418	0.129
Mof_H 	H 	0.6103	0.5159	0.1331	0.144
Mof_N 	N 	0.61874	0.42648	0.19463	-0.261
Mof_N 	N 	0.60714	0.45389	0.21841	-0.251
Mof_N 	N 	0.66722	0.45469	0.21578	-0.244
Mof_H 	H 	0.6896	0.4609	0.2194	0.122
Mof_N 	N 	0.6389	0.498	0.2554	-0.322
Mof_H 	H 	0.6191	0.5068	0.2645	0.105
Mof_H 	H 	0.6597	0.5068	0.2619	0.132
Mof_C 	C 	0.68903	0.51394	0.06332	0.148
Mof_C 	C 	0.64992	0.49522	0.10394	0.211
Mof_C 	C 	0.65491	0.42726	0.19371	0.129
Mof_C 	C 	0.63734	0.47	0.23073	0.19
Mof_Cu	Cu	0.66882	0.91401	0.60879	0.802
Mof_Cu	Cu	0.73125	0.94519	0.54652	0.784
Mof_S 	S 	0.71144	0.04253	0.53214	-0.548
Mof_S 	S 	0.68391	0.89894	0.66835	-0.48
Mof_N 	N 	0.69517	0.97902	0.56936	-0.265
Mof_N 	N 	0.66992	0.96696	0.59606	-0.247
Mof_N 	N 	0.66052	0.02502	0.58447	-0.252
Mof_H 	H 	0.6511	0.0465	0.5853	0.127
Mof_N 	N 	0.62237	0.99604	0.62949	-0.321
Mof_H 	H 	0.6172	0.9767	0.6418	0.129
Mof_H 	H 	0.6103	0.0159	0.6331	0.137
Mof_N 	N 	0.61874	0.92648	0.69463	-0.261
Mof_N 	N 	0.60714	0.95389	0.71841	-0.249
Mof_N 	N 	0.66722	0.95469	0.71578	-0.244
Mof_H 	H 	0.6896	0.9609	0.7194	0.123
Mof_N 	N 	0.6389	0.998	0.7554	-0.308
Mof_H 	H 	0.6191	0.0068	0.7645	0.096
Mof_H 	H 	0.6597	0.0068	0.7619	0.123
Mof_C 	C 	0.68903	0.01394	0.56332	0.141
Mof_C 	C 	0.64992	0.99522	0.60394	0.217
Mof_C 	C 	0.65491	0.92726	0.69371	0.129
Mof_C 	C 	0.63734	0.97	0.73073	0.19
Mof_Cu	Cu	0.16882	0.41401	0.60879	0.802
Mof_Cu	Cu	0.23125	0.44519	0.54652	0.783
Mof_S 	S 	0.21144	0.54253	0.53214	-0.547
Mof_S 	S 	0.18391	0.39894	0.66835	-0.48
Mof_N 	N 	0.19517	0.47902	0.56936	-0.269
Mof_N 	N 	0.16992	0.46696	0.59606	-0.246
Mof_N 	N 	0.16052	0.52502	0.58447	-0.25
Mof_H 	H 	0.1511	0.5465	0.5853	0.127
Mof_N 	N 	0.12237	0.49604	0.62949	-0.327
Mof_H 	H 	0.1172	0.4767	0.6418	0.129
Mof_H 	H 	0.1103	0.5159	0.6331	0.144
Mof_N 	N 	0.11874	0.42648	0.69463	-0.261
Mof_N 	N 	0.10714	0.45389	0.71841	-0.251
Mof_N 	N 	0.16722	0.45469	0.71578	-0.244
Mof_H 	H 	0.1896	0.4609	0.7194	0.122
Mof_N 	N 	0.1389	0.498	0.7554	-0.322
Mof_H 	H 	0.1191	0.5068	0.7645	0.105
Mof_H 	H 	0.1597	0.5068	0.7619	0.132
Mof_C 	C 	0.18903	0.51394	0.56332	0.148
Mof_C 	C 	0.14992	0.49522	0.60394	0.211
Mof_C 	C 	0.15491	0.42726	0.69371	0.129
Mof_C 	C 	0.13734	0.47	0.73073	0.19
Mof_Cu	Cu	0.16882	0.91401	0.10879	0.802
Mof_Cu	Cu	0.23125	0.94519	0.04652	0.783
Mof_S 	S 	0.21144	0.04253	0.03214	-0.553
Mof_S 	S 	0.18391	0.89894	0.16835	-0.48
Mof_N 	N 	0.19517	0.97902	0.06936	-0.265
Mof_N 	N 	0.16992	0.96696	0.09606	-0.247
Mof_N 	N 	0.16052	0.02502	0.08447	-0.253
Mof_H 	H 	0.1511	0.0465	0.0853	0.126
Mof_N 	N 	0.12237	0.99604	0.12949	-0.321
Mof_H 	H 	0.1172	0.9767	0.1418	0.128
Mof_H 	H 	0.1103	0.0159	0.1331	0.136
Mof_N 	N 	0.11874	0.92648	0.19463	-0.261
Mof_N 	N 	0.10714	0.95389	0.21841	-0.25
Mof_N 	N 	0.16722	0.95469	0.21578	-0.244
Mof_H 	H 	0.1896	0.9609	0.2194	0.123
Mof_N 	N 	0.1389	0.998	0.2554	-0.308
Mof_H 	H 	0.1191	0.0068	0.2645	0.096
Mof_H 	H 	0.1597	0.0068	0.2619	0.123
Mof_C 	C 	0.18903	0.01394	0.06332	0.141
Mof_C 	C 	0.14992	0.99522	0.10394	0.216
Mof_C 	C 	0.15491	0.92726	0.19371	0.129
Mof_C 	C 	0.13734	0.97	0.23073	0.19
Mof_Cu	Cu	0.33118	0.41401	0.89121	0.802
Mof_Cu	Cu	0.26875	0.44519	0.95348	0.785
Mof_S 	S 	0.28856	0.54253	0.96786	-0.542
Mof_S 	S 	0.31609	0.39894	0.83165	-0.48
Mof_N 	N 	0.30483	0.47902	0.93064	-0.268
Mof_N 	N 	0.33008	0.46696	0.90394	-0.246
Mof_N 	N 	0.33948	0.52502	0.91553	-0.25
Mof_H 	H 	0.3489	0.5465	0.9147	0.127
Mof_N 	N 	0.37763	0.49604	0.87051	-0.328
Mof_H 	H 	0.3828	0.4767	0.8582	0.129
Mof_H 	H 	0.3897	0.5159	0.8669	0.144
Mof_N 	N 	0.38126	0.42648	0.80537	-0.261
Mof_N 	N 	0.39286	0.45389	0.78159	-0.251
Mof_N 	N 	0.33278	0.45469	0.78422	-0.244
Mof_H 	H 	0.3104	0.4609	0.7806	0.122
Mof_N 	N 	0.3611	0.498	0.7446	-0.322
Mof_H 	H 	0.3809	0.5068	0.7355	0.105
Mof_H 	H 	0.3403	0.5068	0.7381	0.132
Mof_C 	C 	0.31097	0.51394	0.93668	0.148
Mof_C 	C 	0.35008	0.49522	0.89606	0.212
Mof_C 	C 	0.34509	0.42726	0.80629	0.129
Mof_C 	C 	0.36266	0.47	0.76927	0.19
Mof_Cu	Cu	0.33118	0.91401	0.39121	0.802
Mof_Cu	Cu	0.26875	0.94519	0.45348	0.784
Mof_S 	S 	0.28856	0.04253	0.46786	-0.548
Mof_S 	S 	0.31609	0.89894	0.33165	-0.48
Mof_N 	N 	0.30483	0.97902	0.43064	-0.265
Mof_N 	N 	0.33008	0.96696	0.40394	-0.247
Mof_N 	N 	0.33948	0.02502	0.41553	-0.252
Mof_H 	H 	0.3489	0.0465	0.4147	0.127
Mof_N 	N 	0.37763	0.99604	0.37051	-0.321
Mof_H 	H 	0.3828	0.9767	0.3582	0.129
Mof_H 	H 	0.3897	0.0159	0.3669	0.137
Mof_N 	N 	0.38126	0.92648	0.30537	-0.261
Mof_N 	N 	0.39286	0.95389	0.28159	-0.249
Mof_N 	N 	0.33278	0.95469	0.28422	-0.244
Mof_H 	H 	0.3104	0.9609	0.2806	0.123
Mof_N 	N 	0.3611	0.998	0.2446	-0.308
Mof_H 	H 	0.3809	0.0068	0.2355	0.096
Mof_H 	H 	0.3403	0.0068	0.2381	0.123
Mof_C 	C 	0.31097	0.01394	0.43668	0.141
Mof_C 	C 	0.35008	0.99522	0.39606	0.217
Mof_C 	C 	0.34509	0.92726	0.30629	0.129
Mof_C 	C 	0.36266	0.97	0.26927	0.19
Mof_Cu	Cu	0.83118	0.41401	0.39121	0.802
Mof_Cu	Cu	0.76875	0.44519	0.45348	0.783
Mof_S 	S 	0.78856	0.54253	0.46786	-0.547
Mof_S 	S 	0.81609	0.39894	0.33165	-0.48
Mof_N 	N 	0.80483	0.47902	0.43064	-0.269
Mof_N 	N 	0.83008	0.46696	0.40394	-0.246
Mof_N 	N 	0.83948	0.52502	0.41553	-0.25
Mof_H 	H 	0.8489	0.5465	0.4147	0.127
Mof_N 	N 	0.87763	0.49604	0.37051	-0.328
Mof_H 	H 	0.8828	0.4767	0.3582	0.129
Mof_H 	H 	0.8897	0.5159	0.3669	0.144
Mof_N 	N 	0.88126	0.42648	0.30537	-0.261
Mof_N 	N 	0.89286	0.45389	0.28159	-0.251
Mof_N 	N 	0.83278	0.45469	0.28422	-0.244
Mof_H 	H 	0.8104	0.4609	0.2806	0.122
Mof_N 	N 	0.8611	0.498	0.2446	-0.322
Mof_H 	H 	0.8809	0.5068	0.2355	0.105
Mof_H 	H 	0.8403	0.5068	0.2381	0.132
Mof_C 	C 	0.81097	0.51394	0.43668	0.148
Mof_C 	C 	0.85008	0.49522	0.39606	0.212
Mof_C 	C 	0.84509	0.42726	0.30629	0.129
Mof_C 	C 	0.86266	0.47	0.26927	0.19
Mof_Cu	Cu	0.83118	0.91401	0.89121	0.802
Mof_Cu	Cu	0.76875	0.94519	0.95348	0.785
Mof_S 	S 	0.78856	0.04253	0.96786	-0.543
Mof_S 	S 	0.81609	0.89894	0.83165	-0.48
Mof_N 	N 	0.80483	0.97902	0.93064	-0.264
Mof_N 	N 	0.83008	0.96696	0.90394	-0.246
Mof_N 	N 	0.83948	0.02502	0.91553	-0.252
Mof_H 	H 	0.8489	0.0465	0.9147	0.127
Mof_N 	N 	0.87763	0.99604	0.87051	-0.322
Mof_H 	H 	0.8828	0.9767	0.8582	0.129
Mof_H 	H 	0.8897	0.0159	0.8669	0.138
Mof_N 	N 	0.88126	0.92648	0.80537	-0.261
Mof_N 	N 	0.89286	0.95389	0.78159	-0.249
Mof_N 	N 	0.83278	0.95469	0.78422	-0.244
Mof_H 	H 	0.8104	0.9609	0.7806	0.123
Mof_N 	N 	0.8611	0.998	0.7446	-0.308
Mof_H 	H 	0.8809	0.0068	0.7355	0.096
Mof_H 	H 	0.8403	0.0068	0.7381	0.123
Mof_C 	C 	0.81097	0.01394	0.93668	0.141
Mof_C 	C 	0.85008	0.99522	0.89606	0.218
Mof_C 	C 	0.84509	0.92726	0.80629	0.129
Mof_C 	C 	0.86266	0.97	0.76927	0.19
Mof_Cu	Cu	0.16882	0.39121	0.08599	0.802
Mof_Cu	Cu	0.23125	0.45348	0.05481	0.783
Mof_S 	S 	0.21144	0.46786	0.95747	-0.545
Mof_S 	S 	0.18391	0.33165	0.10106	-0.481
Mof_N 	N 	0.19517	0.43064	0.02098	-0.273
Mof_N 	N 	0.16992	0.40394	0.03304	-0.245
Mof_N 	N 	0.16052	0.41553	0.97498	-0.247
Mof_H 	H 	0.1511	0.4147	0.9535	0.127
Mof_N 	N 	0.12237	0.37051	0.00396	-0.334
Mof_H 	H 	0.1172	0.3582	0.0233	0.129
Mof_H 	H 	0.1103	0.3669	0.9841	0.15
Mof_N 	N 	0.11874	0.30537	0.07352	-0.261
Mof_N 	N 	0.10714	0.28159	0.04611	-0.252
Mof_N 	N 	0.16722	0.28422	0.04531	-0.245
Mof_H 	H 	0.1896	0.2806	0.0391	0.12
Mof_N 	N 	0.1389	0.2446	0.002	-0.337
Mof_H 	H 	0.1191	0.2355	0.9932	0.114
Mof_H 	H 	0.1597	0.2381	0.9932	0.142
Mof_C 	C 	0.18903	0.43668	0.98606	0.155
Mof_C 	C 	0.14992	0.39606	0.00478	0.205
Mof_C 	C 	0.15491	0.30629	0.07274	0.128
Mof_C 	C 	0.13734	0.26927	0.03	0.191
Mof_Cu	Cu	0.16882	0.89121	0.58599	0.802
Mof_Cu	Cu	0.23125	0.95348	0.55481	0.785
Mof_S 	S 	0.21144	0.96786	0.45747	-0.542
Mof_S 	S 	0.18391	0.83165	0.60106	-0.48
Mof_N 	N 	0.19517	0.93064	0.52098	-0.268
Mof_N 	N 	0.16992	0.90394	0.53304	-0.246
Mof_N 	N 	0.16052	0.91553	0.47498	-0.249
Mof_H 	H 	0.1511	0.9147	0.4535	0.127
Mof_N 	N 	0.12237	0.87051	0.50396	-0.327
Mof_H 	H 	0.1172	0.8582	0.5233	0.129
Mof_H 	H 	0.1103	0.8669	0.4841	0.144
Mof_N 	N 	0.11874	0.80537	0.57352	-0.261
Mof_N 	N 	0.10714	0.78159	0.54611	-0.251
Mof_N 	N 	0.16722	0.78422	0.54531	-0.244
Mof_H 	H 	0.1896	0.7806	0.5391	0.122
Mof_N 	N 	0.1389	0.7446	0.502	-0.322
Mof_H 	H 	0.1191	0.7355	0.4932	0.105
Mof_H 	H 	0.1597	0.7381	0.4932	0.132
Mof_C 	C 	0.18903	0.93668	0.48606	0.148
Mof_C 	C 	0.14992	0.89606	0.50478	0.212
Mof_C 	C 	0.15491	0.80629	0.57274	0.129
Mof_C 	C 	0.13734	0.76927	0.53	0.19
Mof_Cu	Cu	0.66882	0.39121	0.58599	0.802
Mof_Cu	Cu	0.73125	0.45348	0.55481	0.783
Mof_S 	S 	0.71144	0.46786	0.45747	-0.547
Mof_S 	S 	0.68391	0.33165	0.60106	-0.48
Mof_N 	N 	0.69517	0.43064	0.52098	-0.269
Mof_N 	N 	0.66992	0.40394	0.53304	-0.246
Mof_N 	N 	0.66052	0.41553	0.47498	-0.25
Mof_H 	H 	0.6511	0.4147	0.4535	0.127
Mof_N 	N 	0.62237	0.37051	0.50396	-0.328
Mof_H 	H 	0.6172	0.3582	0.5233	0.129
Mof_H 	H 	0.6103	0.3669	0.4841	0.144
Mof_N 	N 	0.61874	0.30537	0.57352	-0.261
Mof_N 	N 	0.60714	0.28159	0.54611	-0.251
Mof_N 	N 	0.66722	0.28422	0.54531	-0.244
Mof_H 	H 	0.6896	0.2806	0.5391	0.122
Mof_N 	N 	0.6389	0.2446	0.502	-0.322
Mof_H 	H 	0.6191	0.2355	0.4932	0.105
Mof_H 	H 	0.6597	0.2381	0.4932	0.132
Mof_C 	C 	0.68903	0.43668	0.48606	0.148
Mof_C 	C 	0.64992	0.39606	0.50478	0.211
Mof_C 	C 	0.65491	0.30629	0.57274	0.129
Mof_C 	C 	0.63734	0.26927	0.53	0.19
Mof_Cu	Cu	0.66882	0.89121	0.08599	0.802
Mof_Cu	Cu	0.73125	0.95348	0.05481	0.784
Mof_S 	S 	0.71144	0.96786	0.95747	-0.54
Mof_S 	S 	0.68391	0.83165	0.10106	-0.481
Mof_N 	N 	0.69517	0.93064	0.02098	-0.272
Mof_N 	N 	0.66992	0.90394	0.03304	-0.245
Mof_N 	N 	0.66052	0.91553	0.97498	-0.247
Mof_H 	H 	0.6511	0.9147	0.9535	0.127
Mof_N 	N 	0.62237	0.87051	0.00396	-0.334
Mof_H 	H 	0.6172	0.8582	0.0233	0.13
Mof_H 	H 	0.6103	0.8669	0.9841	0.151
Mof_N 	N 	0.61874	0.80537	0.07352	-0.261
Mof_N 	N 	0.60714	0.78159	0.04611	-0.252
Mof_N 	N 	0.66722	0.78422	0.04531	-0.245
Mof_H 	H 	0.6896	0.7806	0.0391	0.12
Mof_N 	N 	0.6389	0.7446	0.002	-0.337
Mof_H 	H 	0.6191	0.7355	0.9932	0.113
Mof_H 	H 	0.6597	0.7381	0.9932	0.142
Mof_C 	C 	0.68903	0.93668	0.98606	0.155
Mof_C 	C 	0.64992	0.89606	0.00478	0.206
Mof_C 	C 	0.65491	0.80629	0.07274	0.128
Mof_C 	C 	0.63734	0.76927	0.03	0.191
Mof_Cu	Cu	0.83118	0.60879	0.08599	0.802
Mof_Cu	Cu	0.76875	0.54652	0.05481	0.783
Mof_S 	S 	0.78856	0.53214	0.95747	-0.545
Mof_S 	S 	0.81609	0.66835	0.10106	-0.481
Mof_N 	N 	0.80483	0.56936	0.02098	-0.273
Mof_N 	N 	0.83008	0.59606	0.03304	-0.245
Mof_N 	N 	0.83948	0.58447	0.97498	-0.247
Mof_H 	H 	0.8489	0.5853	0.9535	0.127
Mof_N 	N 	0.87763	0.62949	0.00396	-0.334
Mof_H 	H 	0.8828	0.6418	0.0233	0.13
Mof_H 	H 	0.8897	0.6331	0.9841	0.151
Mof_N 	N 	0.88126	0.69463	0.07352	-0.261
Mof_N 	N 	0.89286	0.71841	0.04611	-0.252
Mof_N 	N 	0.83278	0.71578	0.04531	-0.245
Mof_H 	H 	0.8104	0.7194	0.0391	0.12
Mof_N 	N 	0.8611	0.7554	0.002	-0.337
Mof_H 	H 	0.8809	0.7645	0.9932	0.113
Mof_H 	H 	0.8403	0.7619	0.9932	0.141
Mof_C 	C 	0.81097	0.56332	0.98606	0.155
Mof_C 	C 	0.85008	0.60394	0.00478	0.206
Mof_C 	C 	0.84509	0.69371	0.07274	0.128
Mof_C 	C 	0.86266	0.73073	0.03	0.191
Mof_Cu	Cu	0.83118	0.10879	0.58599	0.801
Mof_Cu	Cu	0.76875	0.04652	0.55481	0.782
Mof_S 	S 	0.78856	0.03214	0.45747	-0.551
Mof_S 	S 	0.81609	0.16835	0.60106	-0.48
Mof_N 	N 	0.80483	0.06936	0.52098	-0.269
Mof_N 	N 	0.83008	0.09606	0.53304	-0.246
Mof_N 	N 	0.83948	0.08447	0.47498	-0.25
Mof_H 	H 	0.8489	0.0853	0.4535	0.127
Mof_N 	N 	0.87763	0.12949	0.50396	-0.328
Mof_H 	H 	0.8828	0.1418	0.5233	0.129
Mof_H 	H 	0.8897	0.1331	0.4841	0.144
Mof_N 	N 	0.88126	0.19463	0.57352	-0.261
Mof_N 	N 	0.89286	0.21841	0.54611	-0.251
Mof_N 	N 	0.83278	0.21578	0.54531	-0.244
Mof_H 	H 	0.8104	0.2194	0.5391	0.122
Mof_N 	N 	0.8611	0.2554	0.502	-0.322
Mof_H 	H 	0.8809	0.2645	0.4932	0.104
Mof_H 	H 	0.8403	0.2619	0.4932	0.132
Mof_C 	C 	0.81097	0.06332	0.48606	0.148
Mof_C 	C 	0.85008	0.10394	0.50478	0.211
Mof_C 	C 	0.84509	0.19371	0.57274	0.129
Mof_C 	C 	0.86266	0.23073	0.53	0.19
Mof_Cu	Cu	0.33118	0.60879	0.58599	0.802
Mof_Cu	Cu	0.26875	0.54652	0.55481	0.783
Mof_S 	S 	0.28856	0.53214	0.45747	-0.547
Mof_S 	S 	0.31609	0.66835	0.60106	-0.48
Mof_N 	N 	0.30483	0.56936	0.52098	-0.269
Mof_N 	N 	0.33008	0.59606	0.53304	-0.246
Mof_N 	N 	0.33948	0.58447	0.47498	-0.25
Mof_H 	H 	0.3489	0.5853	0.4535	0.127
Mof_N 	N 	0.37763	0.62949	0.50396	-0.328
Mof_H 	H 	0.3828	0.6418	0.5233	0.129
Mof_H 	H 	0.3897	0.6331	0.4841	0.144
Mof_N 	N 	0.38126	0.69463	0.57352	-0.261
Mof_N 	N 	0.39286	0.71841	0.54611	-0.251
Mof_N 	N 	0.33278	0.71578	0.54531	-0.244
Mof_H 	H 	0.3104	0.7194	0.5391	0.122
Mof_N 	N 	0.3611	0.7554	0.502	-0.322
Mof_H 	H 	0.3809	0.7645	0.4932	0.104
Mof_H 	H 	0.3403	0.7619	0.4932	0.132
Mof_C 	C 	0.31097	0.56332	0.48606	0.148
Mof_C 	C 	0.35008	0.60394	0.50478	0.211
Mof_C 	C 	0.34509	0.69371	0.57274	0.129
Mof_C 	C 	0.36266	0.73073	0.53	0.19
Mof_Cu	Cu	0.33118	0.10879	0.08599	0.801
Mof_Cu	Cu	0.26875	0.04652	0.05481	0.782
Mof_S 	S 	0.28856	0.03214	0.95747	-0.549
Mof_S 	S 	0.31609	0.16835	0.10106	-0.481
Mof_N 	N 	0.30483	0.06936	0.02098	-0.273
Mof_N 	N 	0.33008	0.09606	0.03304	-0.246
Mof_N 	N 	0.33948	0.08447	0.97498	-0.247
Mof_H 	H 	0.3489	0.0853	0.9535	0.127
Mof_N 	N 	0.37763	0.12949	0.00396	-0.334
Mof_H 	H 	0.3828	0.1418	0.0233	0.13
Mof_H 	H 	0.3897	0.1331	0.9841	0.15
Mof_N 	N 	0.38126	0.19463	0.07352	-0.261
Mof_N 	N 	0.39286	0.21841	0.04611	-0.252
Mof_N 	N 	0.33278	0.21578	0.04531	-0.245
Mof_H 	H 	0.3104	0.2194	0.0391	0.12
Mof_N 	N 	0.3611	0.2554	0.002	-0.337
Mof_H 	H 	0.3809	0.2645	0.9932	0.114
Mof_H 	H 	0.3403	0.2619	0.9932	0.142
Mof_C 	C 	0.31097	0.06332	0.98606	0.155
Mof_C 	C 	0.35008	0.10394	0.00478	0.205
Mof_C 	C 	0.34509	0.19371	0.07274	0.128
Mof_C 	C 	0.36266	0.23073	0.03	0.191
Mof_Cu	Cu	0.16882	0.60879	0.91401	0.802
Mof_Cu	Cu	0.23125	0.54652	0.94519	0.784
Mof_S 	S 	0.21144	0.53214	0.04253	-0.549
Mof_S 	S 	0.18391	0.66835	0.89894	-0.48
Mof_N 	N 	0.19517	0.56936	0.97902	-0.265
Mof_N 	N 	0.16992	0.59606	0.96696	-0.247
Mof_N 	N 	0.16052	0.58447	0.02502	-0.252
Mof_H 	H 	0.1511	0.5853	0.0465	0.126
Mof_N 	N 	0.12237	0.62949	0.99604	-0.321
Mof_H 	H 	0.1172	0.6418	0.9767	0.129
Mof_H 	H 	0.1103	0.6331	0.0159	0.137
Mof_N 	N 	0.11874	0.69463	0.92648	-0.261
Mof_N 	N 	0.10714	0.71841	0.95389	-0.25
Mof_N 	N 	0.16722	0.71578	0.95469	-0.244
Mof_H 	H 	0.1896	0.7194	0.9609	0.123
Mof_N 	N 	0.1389	0.7554	0.998	-0.308
Mof_H 	H 	0.1191	0.7645	0.0068	0.096
Mof_H 	H 	0.1597	0.7619	0.0068	0.123
Mof_C 	C 	0.18903	0.56332	0.01394	0.141
Mof_C 	C 	0.14992	0.60394	0.99522	0.217
Mof_C 	C 	0.15491	0.69371	0.92726	0.129
Mof_C 	C 	0.13734	0.73073	0.97	0.19
Mof_Cu	Cu	0.16882	0.10879	0.41401	0.801
Mof_Cu	Cu	0.23125	0.04652	0.44519	0.782
Mof_S 	S 	0.21144	0.03214	0.54253	-0.551
Mof_S 	S 	0.18391	0.16835	0.39894	-0.48
Mof_N 	N 	0.19517	0.06936	0.47902	-0.269
Mof_N 	N 	0.16992	0.09606	0.46696	-0.246
Mof_N 	N 	0.16052	0.08447	0.52502	-0.25
Mof_H 	H 	0.1511	0.0853	0.5465	0.126
Mof_N 	N 	0.12237	0.12949	0.49604	-0.327
Mof_H 	H 	0.1172	0.1418	0.4767	0.129
Mof_H 	H 	0.1103	0.1331	0.5159	0.143
Mof_N 	N 	0.11874	0.19463	0.42648	-0.261
Mof_N 	N 	0.10714	0.21841	0.45389	-0.251
Mof_N 	N 	0.16722	0.21578	0.45469	-0.244
Mof_H 	H 	0.1896	0.2194	0.4609	0.122
Mof_N 	N 	0.1389	0.2554	0.498	-0.322
Mof_H 	H 	0.1191	0.2645	0.5068	0.105
Mof_H 	H 	0.1597	0.2619	0.5068	0.132
Mof_C 	C 	0.18903	0.06332	0.51394	0.148
Mof_C 	C 	0.14992	0.10394	0.49522	0.211
Mof_C 	C 	0.15491	0.19371	0.42726	0.129
Mof_C 	C 	0.13734	0.23073	0.47	0.19
Mof_Cu	Cu	0.66882	0.60879	0.41401	0.802
Mof_Cu	Cu	0.73125	0.54652	0.44519	0.783
Mof_S 	S 	0.71144	0.53214	0.54253	-0.547
Mof_S 	S 	0.68391	0.66835	0.39894	-0.48
Mof_N 	N 	0.69517	0.56936	0.47902	-0.269
Mof_N 	N 	0.66992	0.59606	0.46696	-0.246
Mof_N 	N 	0.66052	0.58447	0.52502	-0.25
Mof_H 	H 	0.6511	0.5853	0.5465	0.127
Mof_N 	N 	0.62237	0.62949	0.49604	-0.327
Mof_H 	H 	0.6172	0.6418	0.4767	0.129
Mof_H 	H 	0.6103	0.6331	0.5159	0.144
Mof_N 	N 	0.61874	0.69463	0.42648	-0.261
Mof_N 	N 	0.60714	0.71841	0.45389	-0.251
Mof_N 	N 	0.66722	0.71578	0.45469	-0.244
Mof_H 	H 	0.6896	0.7194	0.4609	0.122
Mof_N 	N 	0.6389	0.7554	0.498	-0.322
Mof_H 	H 	0.6191	0.7645	0.5068	0.104
Mof_H 	H 	0.6597	0.7619	0.5068	0.132
Mof_C 	C 	0.68903	0.56332	0.51394	0.148
Mof_C 	C 	0.64992	0.60394	0.49522	0.211
Mof_C 	C 	0.65491	0.69371	0.42726	0.129
Mof_C 	C 	0.63734	0.73073	0.47	0.19
Mof_Cu	Cu	0.66882	0.10879	0.91401	0.802
Mof_Cu	Cu	0.73125	0.04652	0.94519	0.783
Mof_S 	S 	0.71144	0.03214	0.04253	-0.552
Mof_S 	S 	0.68391	0.16835	0.89894	-0.48
Mof_N 	N 	0.69517	0.06936	0.97902	-0.265
Mof_N 	N 	0.66992	0.09606	0.96696	-0.247
Mof_N 	N 	0.66052	0.08447	0.02502	-0.253
Mof_H 	H 	0.6511	0.0853	0.0465	0.126
Mof_N 	N 	0.62237	0.12949	0.99604	-0.321
Mof_H 	H 	0.6172	0.1418	0.9767	0.129
Mof_H 	H 	0.6103	0.1331	0.0159	0.137
Mof_N 	N 	0.61874	0.19463	0.92648	-0.261
Mof_N 	N 	0.60714	0.21841	0.95389	-0.249
Mof_N 	N 	0.66722	0.21578	0.95469	-0.244
Mof_H 	H 	0.6896	0.2194	0.9609	0.123
Mof_N 	N 	0.6389	0.2554	0.998	-0.308
Mof_H 	H 	0.6191	0.2645	0.0068	0.096
Mof_H 	H 	0.6597	0.2619	0.0068	0.123
Mof_C 	C 	0.68903	0.06332	0.01394	0.141
Mof_C 	C 	0.64992	0.10394	0.99522	0.217
Mof_C 	C 	0.65491	0.19371	0.92726	0.129
Mof_C 	C 	0.63734	0.23073	0.97	0.19
Mof_Cu	Cu	0.83118	0.39121	0.91401	0.802
Mof_Cu	Cu	0.76875	0.45348	0.94519	0.784
Mof_S 	S 	0.78856	0.46786	0.04253	-0.548
Mof_S 	S 	0.81609	0.33165	0.89894	-0.48
Mof_N 	N 	0.80483	0.43064	0.97902	-0.265
Mof_N 	N 	0.83008	0.40394	0.96696	-0.247
Mof_N 	N 	0.83948	0.41553	0.02502	-0.252
Mof_H 	H 	0.8489	0.4147	0.0465	0.127
Mof_N 	N 	0.87763	0.37051	0.99604	-0.322
Mof_H 	H 	0.8828	0.3582	0.9767	0.129
Mof_H 	H 	0.8897	0.3669	0.0159	0.138
Mof_N 	N 	0.88126	0.30537	0.92648	-0.261
Mof_N 	N 	0.89286	0.28159	0.95389	-0.249
Mof_N 	N 	0.83278	0.28422	0.95469	-0.244
Mof_H 	H 	0.8104	0.2806	0.9609	0.123
Mof_N 	N 	0.8611	0.2446	0.998	-0.308
Mof_H 	H 	0.8809	0.2355	0.0068	0.096
Mof_H 	H 	0.8403	0.2381	0.0068	0.123
Mof_C 	C 	0.81097	0.43668	0.01394	0.141
Mof_C 	C 	0.85008	0.39606	0.99522	0.217
Mof_C 	C 	0.84509	0.30629	0.92726	0.129
Mof_C 	C 	0.86266	0.26927	0.97	0.19
Mof_Cu	Cu	0.83118	0.89121	0.41401	0.802
Mof_Cu	Cu	0.76875	0.95348	0.44519	0.785
Mof_S 	S 	0.78856	0.96786	0.54253	-0.542
Mof_S 	S 	0.81609	0.83165	0.39894	-0.48
Mof_N 	N 	0.80483	0.93064	0.47902	-0.268
Mof_N 	N 	0.83008	0.90394	0.46696	-0.246
Mof_N 	N 	0.83948	0.91553	0.52502	-0.25
Mof_H 	H 	0.8489	0.9147	0.5465	0.128
Mof_N 	N 	0.87763	0.87051	0.49604	-0.328
Mof_H 	H 	0.8828	0.8582	0.4767	0.13
Mof_H 	H 	0.8897	0.8669	0.5159	0.145
Mof_N 	N 	0.88126	0.80537	0.42648	-0.261
Mof_N 	N 	0.89286	0.78159	0.45389	-0.251
Mof_N 	N 	0.83278	0.78422	0.45469	-0.244
Mof_H 	H 	0.8104	0.7806	0.4609	0.122
Mof_N 	N 	0.8611	0.7446	0.498	-0.322
Mof_H 	H 	0.8809	0.7355	0.5068	0.104
Mof_H 	H 	0.8403	0.7381	0.5068	0.132
Mof_C 	C 	0.81097	0.93668	0.51394	0.148
Mof_C 	C 	0.85008	0.89606	0.49522	0.212
Mof_C 	C 	0.84509	0.80629	0.42726	0.129
Mof_C 	C 	0.86266	0.76927	0.47	0.19
Mof_Cu	Cu	0.33118	0.39121	0.41401	0.802
Mof_Cu	Cu	0.26875	0.45348	0.44519	0.783
Mof_S 	S 	0.28856	0.46786	0.54253	-0.547
Mof_S 	S 	0.31609	0.33165	0.39894	-0.48
Mof_N 	N 	0.30483	0.43064	0.47902	-0.269
Mof_N 	N 	0.33008	0.40394	0.46696	-0.246
Mof_N 	N 	0.33948	0.41553	0.52502	-0.25
Mof_H 	H 	0.3489	0.4147	0.5465	0.127
Mof_N 	N 	0.37763	0.37051	0.49604	-0.328
Mof_H 	H 	0.3828	0.3582	0.4767	0.129
Mof_H 	H 	0.3897	0.3669	0.5159	0.144
Mof_N 	N 	0.38126	0.30537	0.42648	-0.261
Mof_N 	N 	0.39286	0.28159	0.45389	-0.251
Mof_N 	N 	0.33278	0.28422	0.45469	-0.244
Mof_H 	H 	0.3104	0.2806	0.4609	0.122
Mof_N 	N 	0.3611	0.2446	0.498	-0.322
Mof_H 	H 	0.3809	0.2355	0.5068	0.105
Mof_H 	H 	0.3403	0.2381	0.5068	0.132
Mof_C 	C 	0.31097	0.43668	0.51394	0.148
Mof_C 	C 	0.35008	0.39606	0.49522	0.212
Mof_C 	C 	0.34509	0.30629	0.42726	0.129
Mof_C 	C 	0.36266	0.26927	0.47	0.19
Mof_Cu	Cu	0.33118	0.89121	0.91401	0.802
Mof_Cu	Cu	0.26875	0.95348	0.94519	0.785
Mof_S 	S 	0.28856	0.96786	0.04253	-0.543
Mof_S 	S 	0.31609	0.83165	0.89894	-0.48
Mof_N 	N 	0.30483	0.93064	0.97902	-0.264
Mof_N 	N 	0.33008	0.90394	0.96696	-0.246
Mof_N 	N 	0.33948	0.91553	0.02502	-0.252
Mof_H 	H 	0.3489	0.9147	0.0465	0.127
Mof_N 	N 	0.37763	0.87051	0.99604	-0.321
Mof_H 	H 	0.3828	0.8582	0.9767	0.129
Mof_H 	H 	0.3897	0.8669	0.0159	0.137
Mof_N 	N 	0.38126	0.80537	0.92648	-0.261
Mof_N 	N 	0.39286	0.78159	0.95389	-0.249
Mof_N 	N 	0.33278	0.78422	0.95469	-0.244
Mof_H 	H 	0.3104	0.7806	0.9609	0.123
Mof_N 	N 	0.3611	0.7446	0.998	-0.308
Mof_H 	H 	0.3809	0.7355	0.0068	0.096
Mof_H 	H 	0.3403	0.7381	0.0068	0.123
Mof_C 	C 	0.31097	0.93668	0.01394	0.141
Mof_C 	C 	0.35008	0.89606	0.99522	0.218
Mof_C 	C 	0.34509	0.80629	0.92726	0.129
Mof_C 	C 	0.36266	0.76927	0.97	0.19
Mof_Cu	Cu	0.39121	0.08599	0.16882	0.802
Mof_Cu	Cu	0.45348	0.05481	0.23125	0.783
Mof_S 	S 	0.46786	0.95747	0.21144	-0.545
Mof_S 	S 	0.33165	0.10106	0.18391	-0.481
Mof_N 	N 	0.43064	0.02098	0.19517	-0.273
Mof_N 	N 	0.40394	0.03304	0.16992	-0.245
Mof_N 	N 	0.41553	0.97498	0.16052	-0.247
Mof_H 	H 	0.4147	0.9535	0.1511	0.127
Mof_N 	N 	0.37051	0.00396	0.12237	-0.334
Mof_H 	H 	0.3582	0.0233	0.1172	0.129
Mof_H 	H 	0.3669	0.9841	0.1103	0.15
Mof_N 	N 	0.30537	0.07352	0.11874	-0.261
Mof_N 	N 	0.28159	0.04611	0.10714	-0.252
Mof_N 	N 	0.28422	0.04531	0.16722	-0.245
Mof_H 	H 	0.2806	0.0391	0.1896	0.12
Mof_N 	N 	0.2446	0.002	0.1389	-0.337
Mof_H 	H 	0.2355	0.9932	0.1191	0.114
Mof_H 	H 	0.2381	0.9932	0.1597	0.142
Mof_C 	C 	0.43668	0.98606	0.18903	0.155
Mof_C 	C 	0.39606	0.00478	0.14992	0.205
Mof_C 	C 	0.30629	0.07274	0.15491	0.128
Mof_C 	C 	0.26927	0.03	0.13734	0.191
Mof_Cu	Cu	0.39121	0.58599	0.66882	0.802
Mof_Cu	Cu	0.45348	0.55481	0.73125	0.783
Mof_S 	S 	0.46786	0.45747	0.71144	-0.547
Mof_S 	S 	0.33165	0.60106	0.68391	-0.48
Mof_N 	N 	0.43064	0.52098	0.69517	-0.269
Mof_N 	N 	0.40394	0.53304	0.66992	-0.246
Mof_N 	N 	0.41553	0.47498	0.66052	-0.25
Mof_H 	H 	0.4147	0.4535	0.6511	0.127
Mof_N 	N 	0.37051	0.50396	0.62237	-0.328
Mof_H 	H 	0.3582	0.5233	0.6172	0.129
Mof_H 	H 	0.3669	0.4841	0.6103	0.144
Mof_N 	N 	0.30537	0.57352	0.61874	-0.261
Mof_N 	N 	0.28159	0.54611	0.60714	-0.251
Mof_N 	N 	0.28422	0.54531	0.66722	-0.244
Mof_H 	H 	0.2806	0.5391	0.6896	0.122
Mof_N 	N 	0.2446	0.502	0.6389	-0.322
Mof_H 	H 	0.2355	0.4932	0.6191	0.105
Mof_H 	H 	0.2381	0.4932	0.6597	0.132
Mof_C 	C 	0.43668	0.48606	0.68903	0.148
Mof_C 	C 	0.39606	0.50478	0.64992	0.211
Mof_C 	C 	0.30629	0.57274	0.65491	0.129
Mof_C 	C 	0.26927	0.53	0.63734	0.19
Mof_Cu	Cu	0.89121	0.08599	0.66882	0.802
Mof_Cu	Cu	0.95348	0.05481	0.73125	0.784
Mof_S 	S 	0.96786	0.95747	0.71144	-0.54
Mof_S 	S 	0.83165	0.10106	0.68391	-0.481
Mof_N 	N 	0.93064	0.02098	0.69517	-0.272
Mof_N 	N 	0.90394	0.03304	0.66992	-0.245
Mof_N 	N 	0.91553	0.97498	0.66052	-0.247
Mof_H 	H 	0.9147	0.9535	0.6511	0.127
Mof_N 	N 	0.87051	0.00396	0.62237	-0.334
Mof_H 	H 	0.8582	0.0233	0.6172	0.13
Mof_H 	H 	0.8669	0.9841	0.6103	0.151
Mof_N 	N 	0.80537	0.07352	0.61874	-0.261
Mof_N 	N 	0.78159	0.04611	0.60714	-0.252
Mof_N 	N 	0.78422	0.04531	0.66722	-0.245
Mof_H 	H 	0.7806	0.0391	0.6896	0.12
Mof_N 	N 	0.7446	0.002	0.6389	-0.337
Mof_H 	H 	0.7355	0.9932	0.6191	0.113
Mof_H 	H 	0.7381	0.9932	0.6597	0.142
Mof_C 	C 	0.93668	0.98606	0.68903	0.155
Mof_C 	C 	0.89606	0.00478	0.64992	0.206
Mof_C 	C 	0.80629	0.07274	0.65491	0.128
Mof_C 	C 	0.76927	0.03	0.63734	0.191
Mof_Cu	Cu	0.89121	0.58599	0.16882	0.802
Mof_Cu	Cu	0.95348	0.55481	0.23125	0.785
Mof_S 	S 	0.96786	0.45747	0.21144	-0.542
Mof_S 	S 	0.83165	0.60106	0.18391	-0.48
Mof_N 	N 	0.93064	0.52098	0.19517	-0.268
Mof_N 	N 	0.90394	0.53304	0.16992	-0.246
Mof_N 	N 	0.91553	0.47498	0.16052	-0.249
Mof_H 	H 	0.9147	0.4535	0.1511	0.127
Mof_N 	N 	0.87051	0.50396	0.12237	-0.327
Mof_H 	H 	0.8582	0.5233	0.1172	0.129
Mof_H 	H 	0.8669	0.4841	0.1103	0.144
Mof_N 	N 	0.80537	0.57352	0.11874	-0.261
Mof_N 	N 	0.78159	0.54611	0.10714	-0.251
Mof_N 	N 	0.78422	0.54531	0.16722	-0.244
Mof_H 	H 	0.7806	0.5391	0.1896	0.122
Mof_N 	N 	0.7446	0.502	0.1389	-0.322
Mof_H 	H 	0.7355	0.4932	0.1191	0.105
Mof_H 	H 	0.7381	0.4932	0.1597	0.132
Mof_C 	C 	0.93668	0.48606	0.18903	0.148
Mof_C 	C 	0.89606	0.50478	0.14992	0.212
Mof_C 	C 	0.80629	0.57274	0.15491	0.129
Mof_C 	C 	0.76927	0.53	0.13734	0.19
Mof_Cu	Cu	0.60879	0.08599	0.83118	0.802
Mof_Cu	Cu	0.54652	0.05481	0.76875	0.783
Mof_S 	S 	0.53214	0.95747	0.78856	-0.545
Mof_S 	S 	0.66835	0.10106	0.81609	-0.481
Mof_N 	N 	0.56936	0.02098	0.80483	-0.273
Mof_N 	N 	0.59606	0.03304	0.83008	-0.245
Mof_N 	N 	0.58447	0.97498	0.83948	-0.247
Mof_H 	H 	0.5853	0.9535	0.8489	0.127
Mof_N 	N 	0.62949	0.00396	0.87763	-0.334
Mof_H 	H 	0.6418	0.0233	0.8828	0.13
Mof_H 	H 	0.6331	0.9841	0.8897	0.151
Mof_N 	N 	0.69463	0.07352	0.88126	-0.261
Mof_N 	N 	0.71841	0.04611	0.89286	-0.252
Mof_N 	N 	0.71578	0.04531	0.83278	-0.245
Mof_H 	H 	0.7194	0.0391	0.8104	0.12
Mof_N 	N 	0.7554	0.002	0.8611	-0.337
Mof_H 	H 	0.7645	0.9932	0.8809	0.113
Mof_H 	H 	0.7619	0.9932	0.8403	0.141
Mof_C 	C 	0.56332	0.98606	0.81097	0.155
Mof_C 	C 	0.60394	0.00478	0.85008	0.206
Mof_C 	C 	0.69371	0.07274	0.84509	0.128
Mof_C 	C 	0.73073	0.03	0.86266	0.191
Mof_Cu	Cu	0.60879	0.58599	0.33118	0.802
Mof_Cu	Cu	0.54652	0.55481	0.26875	0.783
Mof_S 	S 	0.53214	0.45747	0.28856	-0.547
Mof_S 	S 	0.66835	0.60106	0.31609	-0.48
Mof_N 	N 	0.56936	0.52098	0.30483	-0.269
Mof_N 	N 	0.59606	0.53304	0.33008	-0.246
Mof_N 	N 	0.58447	0.47498	0.33948	-0.25
Mof_H 	H 	0.5853	0.4535	0.3489	0.127
Mof_N 	N 	0.62949	0.50396	0.37763	-0.328
Mof_H 	H 	0.6418	0.5233	0.3828	0.129
Mof_H 	H 	0.6331	0.4841	0.3897	0.144
Mof_N 	N 	0.69463	0.57352	0.38126	-0.261
Mof_N 	N 	0.71841	0.54611	0.39286	-0.251
Mof_N 	N 	0.71578	0.54531	0.33278	-0.244
Mof_H 	H 	0.7194	0.5391	0.3104	0.122
Mof_N 	N 	0.7554	0.502	0.3611	-0.322
Mof_H 	H 	0.7645	0.4932	0.3809	0.104
Mof_H 	H 	0.7619	0.4932	0.3403	0.132
Mof_C 	C 	0.56332	0.48606	0.31097	0.148
Mof_C 	C 	0.60394	0.50478	0.35008	0.211
Mof_C 	C 	0.69371	0.57274	0.34509	0.129
Mof_C 	C 	0.73073	0.53	0.36266	0.19
Mof_Cu	Cu	0.10879	0.08599	0.33118	0.801
Mof_Cu	Cu	0.04652	0.05481	0.26875	0.782
Mof_S 	S 	0.03214	0.95747	0.28856	-0.549
Mof_S 	S 	0.16835	0.10106	0.31609	-0.481
Mof_N 	N 	0.06936	0.02098	0.30483	-0.273
Mof_N 	N 	0.09606	0.03304	0.33008	-0.246
Mof_N 	N 	0.08447	0.97498	0.33948	-0.247
Mof_H 	H 	0.0853	0.9535	0.3489	0.127
Mof_N 	N 	0.12949	0.00396	0.37763	-0.334
Mof_H 	H 	0.1418	0.0233	0.3828	0.13
Mof_H 	H 	0.1331	0.9841	0.3897	0.15
Mof_N 	N 	0.19463	0.07352	0.38126	-0.261
Mof_N 	N 	0.21841	0.04611	0.39286	-0.252
Mof_N 	N 	0.21578	0.04531	0.33278	-0.245
Mof_H 	H 	0.2194	0.0391	0.3104	0.12
Mof_N 	N 	0.2554	0.002	0.3611	-0.337
Mof_H 	H 	0.2645	0.9932	0.3809	0.114
Mof_H 	H 	0.2619	0.9932	0.3403	0.142
Mof_C 	C 	0.06332	0.98606	0.31097	0.155
Mof_C 	C 	0.10394	0.00478	0.35008	0.205
Mof_C 	C 	0.19371	0.07274	0.34509	0.128
Mof_C 	C 	0.23073	0.03	0.36266	0.191
Mof_Cu	Cu	0.10879	0.58599	0.83118	0.801
Mof_Cu	Cu	0.04652	0.55481	0.76875	0.782
Mof_S 	S 	0.03214	0.45747	0.78856	-0.551
Mof_S 	S 	0.16835	0.60106	0.81609	-0.48
Mof_N 	N 	0.06936	0.52098	0.80483	-0.269
Mof_N 	N 	0.09606	0.53304	0.83008	-0.246
Mof_N 	N 	0.08447	0.47498	0.83948	-0.25
Mof_H 	H 	0.0853	0.4535	0.8489	0.127
Mof_N 	N 	0.12949	0.50396	0.87763	-0.328
Mof_H 	H 	0.1418	0.5233	0.8828	0.129
Mof_H 	H 	0.1331	0.4841	0.8897	0.144
Mof_N 	N 	0.19463	0.57352	0.88126	-0.261
Mof_N 	N 	0.21841	0.54611	0.89286	-0.251
Mof_N 	N 	0.21578	0.54531	0.83278	-0.244
Mof_H 	H 	0.2194	0.5391	0.8104	0.122
Mof_N 	N 	0.2554	0.502	0.8611	-0.322
Mof_H 	H 	0.2645	0.4932	0.8809	0.104
Mof_H 	H 	0.2619	0.4932	0.8403	0.132
Mof_C 	C 	0.06332	0.48606	0.81097	0.148
Mof_C 	C 	0.10394	0.50478	0.85008	0.211
Mof_C 	C 	0.19371	0.57274	0.84509	0.129
Mof_C 	C 	0.23073	0.53	0.86266	0.19
Mof_Cu	Cu	0.60879	0.91401	0.16882	0.802
Mof_Cu	Cu	0.54652	0.94519	0.23125	0.784
Mof_S 	S 	0.53214	0.04253	0.21144	-0.549
Mof_S 	S 	0.66835	0.89894	0.18391	-0.48
Mof_N 	N 	0.56936	0.97902	0.19517	-0.265
Mof_N 	N 	0.59606	0.96696	0.16992	-0.247
Mof_N 	N 	0.58447	0.02502	0.16052	-0.252
Mof_H 	H 	0.5853	0.0465	0.1511	0.126
Mof_N 	N 	0.62949	0.99604	0.12237	-0.321
Mof_H 	H 	0.6418	0.9767	0.1172	0.129
Mof_H 	H 	0.6331	0.0159	0.1103	0.137
Mof_N 	N 	0.69463	0.92648	0.11874	-0.261
Mof_N 	N 	0.71841	0.95389	0.10714	-0.25
Mof_N 	N 	0.71578	0.95469	0.16722	-0.244
Mof_H 	H 	0.7194	0.9609	0.1896	0.123
Mof_N 	N 	0.7554	0.998	0.1389	-0.308
Mof_H 	H 	0.7645	0.0068	0.1191	0.096
Mof_H 	H 	0.7619	0.0068	0.1597	0.123
Mof_C 	C 	0.56332	0.01394	0.18903	0.141
Mof_C 	C 	0.60394	0.99522	0.14992	0.217
Mof_C 	C 	0.69371	0.92726	0.15491	0.129
Mof_C 	C 	0.73073	0.97	0.13734	0.19
Mof_Cu	Cu	0.60879	0.41401	0.66882	0.802
Mof_Cu	Cu	0.54652	0.44519	0.73125	0.783
Mof_S 	S 	0.53214	0.54253	0.71144	-0.547
Mof_S 	S 	0.66835	0.39894	0.68391	-0.48
Mof_N 	N 	0.56936	0.47902	0.69517	-0.269
Mof_N 	N 	0.59606	0.46696	0.66992	-0.246
Mof_N 	N 	0.58447	0.52502	0.66052	-0.25
Mof_H 	H 	0.5853	0.5465	0.6511	0.127
Mof_N 	N 	0.62949	0.49604	0.62237	-0.327
Mof_H 	H 	0.6418	0.4767	0.6172	0.129
Mof_H 	H 	0.6331	0.5159	0.6103	0.144
Mof_N 	N 	0.69463	0.42648	0.61874	-0.261
Mof_N 	N 	0.71841	0.45389	0.60714	-0.251
Mof_N 	N 	0.71578	0.45469	0.66722	-0.244
Mof_H 	H 	0.7194	0.4609	0.6896	0.122
Mof_N 	N 	0.7554	0.498	0.6389	-0.322
Mof_H 	H 	0.7645	0.5068	0.6191	0.104
Mof_H 	H 	0.7619	0.5068	0.6597	0.132
Mof_C 	C 	0.56332	0.51394	0.68903	0.148
Mof_C 	C 	0.60394	0.49522	0.64992	0.211
Mof_C 	C 	0.69371	0.42726	0.65491	0.129
Mof_C 	C 	0.73073	0.47	0.63734	0.19
Mof_Cu	Cu	0.10879	0.91401	0.66882	0.802
Mof_Cu	Cu	0.04652	0.94519	0.73125	0.783
Mof_S 	S 	0.03214	0.04253	0.71144	-0.552
Mof_S 	S 	0.16835	0.89894	0.68391	-0.48
Mof_N 	N 	0.06936	0.97902	0.69517	-0.265
Mof_N 	N 	0.09606	0.96696	0.66992	-0.247
Mof_N 	N 	0.08447	0.02502	0.66052	-0.253
Mof_H 	H 	0.0853	0.0465	0.6511	0.126
Mof_N 	N 	0.12949	0.99604	0.62237	-0.321
Mof_H 	H 	0.1418	0.9767	0.6172	0.129
Mof_H 	H 	0.1331	0.0159	0.6103	0.137
Mof_N 	N 	0.19463	0.92648	0.61874	-0.261
Mof_N 	N 	0.21841	0.95389	0.60714	-0.249
Mof_N 	N 	0.21578	0.95469	0.66722	-0.244
Mof_H 	H 	0.2194	0.9609	0.6896	0.123
Mof_N 	N 	0.2554	0.998	0.6389	-0.308
Mof_H 	H 	0.2645	0.0068	0.6191	0.096
Mof_H 	H 	0.2619	0.0068	0.6597	0.123
Mof_C 	C 	0.06332	0.01394	0.68903	0.141
Mof_C 	C 	0.10394	0.99522	0.64992	0.217
Mof_C 	C 	0.19371	0.92726	0.65491	0.129
Mof_C 	C 	0.23073	0.97	0.63734	0.19
Mof_Cu	Cu	0.10879	0.41401	0.16882	0.801
Mof_Cu	Cu	0.04652	0.44519	0.23125	0.782
Mof_S 	S 	0.03214	0.54253	0.21144	-0.551
Mof_S 	S 	0.16835	0.39894	0.18391	-0.48
Mof_N 	N 	0.06936	0.47902	0.19517	-0.269
Mof_N 	N 	0.09606	0.46696	0.16992	-0.246
Mof_N 	N 	0.08447	0.52502	0.16052	-0.25
Mof_H 	H 	0.0853	0.5465	0.1511	0.126
Mof_N 	N 	0.12949	0.49604	0.12237	-0.327
Mof_H 	H 	0.1418	0.4767	0.1172	0.129
Mof_H 	H 	0.1331	0.5159	0.1103	0.143
Mof_N 	N 	0.19463	0.42648	0.11874	-0.261
Mof_N 	N 	0.21841	0.45389	0.10714	-0.251
Mof_N 	N 	0.21578	0.45469	0.16722	-0.244
Mof_H 	H 	0.2194	0.4609	0.1896	0.122
Mof_N 	N 	0.2554	0.498	0.1389	-0.322
Mof_H 	H 	0.2645	0.5068	0.1191	0.105
Mof_H 	H 	0.2619	0.5068	0.1597	0.132
Mof_C 	C 	0.06332	0.51394	0.18903	0.148
Mof_C 	C 	0.10394	0.49522	0.14992	0.211
Mof_C 	C 	0.19371	0.42726	0.15491	0.129
Mof_C 	C 	0.23073	0.47	0.13734	0.19
Mof_Cu	Cu	0.39121	0.91401	0.83118	0.802
Mof_Cu	Cu	0.45348	0.94519	0.76875	0.784
Mof_S 	S 	0.46786	0.04253	0.78856	-0.548
Mof_S 	S 	0.33165	0.89894	0.81609	-0.48
Mof_N 	N 	0.43064	0.97902	0.80483	-0.265
Mof_N 	N 	0.40394	0.96696	0.83008	-0.247
Mof_N 	N 	0.41553	0.02502	0.83948	-0.252
Mof_H 	H 	0.4147	0.0465	0.8489	0.127
Mof_N 	N 	0.37051	0.99604	0.87763	-0.322
Mof_H 	H 	0.3582	0.9767	0.8828	0.129
Mof_H 	H 	0.3669	0.0159	0.8897	0.138
Mof_N 	N 	0.30537	0.92648	0.88126	-0.261
Mof_N 	N 	0.28159	0.95389	0.89286	-0.249
Mof_N 	N 	0.28422	0.95469	0.83278	-0.244
Mof_H 	H 	0.2806	0.9609	0.8104	0.123
Mof_N 	N 	0.2446	0.998	0.8611	-0.308
Mof_H 	H 	0.2355	0.0068	0.8809	0.096
Mof_H 	H 	0.2381	0.0068	0.8403	0.123
Mof_C 	C 	0.43668	0.01394	0.81097	0.141
Mof_C 	C 	0.39606	0.99522	0.85008	0.217
Mof_C 	C 	0.30629	0.92726	0.84509	0.129
Mof_C 	C 	0.26927	0.97	0.86266	0.19
Mof_Cu	Cu	0.39121	0.41401	0.33118	0.802
Mof_Cu	Cu	0.45348	0.44519	0.26875	0.783
Mof_S 	S 	0.46786	0.54253	0.28856	-0.547
Mof_S 	S 	0.33165	0.39894	0.31609	-0.48
Mof_N 	N 	0.43064	0.47902	0.30483	-0.269
Mof_N 	N 	0.40394	0.46696	0.33008	-0.246
Mof_N 	N 	0.41553	0.52502	0.33948	-0.25
Mof_H 	H 	0.4147	0.5465	0.3489	0.127
Mof_N 	N 	0.37051	0.49604	0.37763	-0.328
Mof_H 	H 	0.3582	0.4767	0.3828	0.129
Mof_H 	H 	0.3669	0.5159	0.3897	0.144
Mof_N 	N 	0.30537	0.42648	0.38126	-0.261
Mof_N 	N 	0.28159	0.45389	0.39286	-0.251
Mof_N 	N 	0.28422	0.45469	0.33278	-0.244
Mof_H 	H 	0.2806	0.4609	0.3104	0.122
Mof_N 	N 	0.2446	0.498	0.3611	-0.322
Mof_H 	H 	0.2355	0.5068	0.3809	0.105
Mof_H 	H 	0.2381	0.5068	0.3403	0.132
Mof_C 	C 	0.43668	0.51394	0.31097	0.148
Mof_C 	C 	0.39606	0.49522	0.35008	0.212
Mof_C 	C 	0.30629	0.42726	0.34509	0.129
Mof_C 	C 	0.26927	0.47	0.36266	0.19
Mof_Cu	Cu	0.89121	0.91401	0.33118	0.802
Mof_Cu	Cu	0.95348	0.94519	0.26875	0.785
Mof_S 	S 	0.96786	0.04253	0.28856	-0.543
Mof_S 	S 	0.83165	0.89894	0.31609	-0.48
Mof_N 	N 	0.93064	0.97902	0.30483	-0.264
Mof_N 	N 	0.90394	0.96696	0.33008	-0.246
Mof_N 	N 	0.91553	0.02502	0.33948	-0.252
Mof_H 	H 	0.9147	0.0465	0.3489	0.127
Mof_N 	N 	0.87051	0.99604	0.37763	-0.321
Mof_H 	H 	0.8582	0.9767	0.3828	0.129
Mof_H 	H 	0.8669	0.0159	0.3897	0.137
Mof_N 	N 	0.80537	0.92648	0.38126	-0.261
Mof_N 	N 	0.78159	0.95389	0.39286	-0.249
Mof_N 	N 	0.78422	0.95469	0.33278	-0.244
Mof_H 	H 	0.7806	0.9609	0.3104	0.123
Mof_N 	N 	0.7446	0.998	0.3611	-0.308
Mof_H 	H 	0.7355	0.0068	0.3809	0.096
Mof_H 	H 	0.7381	0.0068	0.3403	0.123
Mof_C 	C 	0.93668	0.01394	0.31097	0.141
Mof_C 	C 	0.89606	0.99522	0.35008	0.218
Mof_C 	C 	0.80629	0.92726	0.34509	0.129
Mof_C 	C 	0.76927	0.97	0.36266	0.19
Mof_Cu	Cu	0.89121	0.41401	0.83118	0.802
Mof_Cu	Cu	0.95348	0.44519	0.76875	0.785
Mof_S 	S 	0.96786	0.54253	0.78856	-0.542
Mof_S 	S 	0.83165	0.39894	0.81609	-0.48
Mof_N 	N 	0.93064	0.47902	0.80483	-0.268
Mof_N 	N 	0.90394	0.46696	0.83008	-0.246
Mof_N 	N 	0.91553	0.52502	0.83948	-0.25
Mof_H 	H 	0.9147	0.5465	0.8489	0.128
Mof_N 	N 	0.87051	0.49604	0.87763	-0.328
Mof_H 	H 	0.8582	0.4767	0.8828	0.13
Mof_H 	H 	0.8669	0.5159	0.8897	0.145
Mof_N 	N 	0.80537	0.42648	0.88126	-0.261
Mof_N 	N 	0.78159	0.45389	0.89286	-0.251
Mof_N 	N 	0.78422	0.45469	0.83278	-0.244
Mof_H 	H 	0.7806	0.4609	0.8104	0.122
Mof_N 	N 	0.7446	0.498	0.8611	-0.322
Mof_H 	H 	0.7355	0.5068	0.8809	0.104
Mof_H 	H 	0.7381	0.5068	0.8403	0.132
Mof_C 	C 	0.93668	0.51394	0.81097	0.148
Mof_C 	C 	0.89606	0.49522	0.85008	0.212
Mof_C 	C 	0.80629	0.42726	0.84509	0.129
Mof_C 	C 	0.76927	0.47	0.86266	0.19
Mof_Cu	Cu	0.08599	0.16882	0.39121	0.802
Mof_Cu	Cu	0.05481	0.23125	0.45348	0.783
Mof_S 	S 	0.95747	0.21144	0.46786	-0.545
Mof_S 	S 	0.10106	0.18391	0.33165	-0.481
Mof_N 	N 	0.02098	0.19517	0.43064	-0.273
Mof_N 	N 	0.03304	0.16992	0.40394	-0.245
Mof_N 	N 	0.97498	0.16052	0.41553	-0.247
Mof_H 	H 	0.9535	0.1511	0.4147	0.127
Mof_N 	N 	0.00396	0.12237	0.37051	-0.334
Mof_H 	H 	0.0233	0.1172	0.3582	0.129
Mof_H 	H 	0.9841	0.1103	0.3669	0.15
Mof_N 	N 	0.07352	0.11874	0.30537	-0.261
Mof_N 	N 	0.04611	0.10714	0.28159	-0.252
Mof_N 	N 	0.04531	0.16722	0.28422	-0.245
Mof_H 	H 	0.0391	0.1896	0.2806	0.12
Mof_N 	N 	0.002	0.1389	0.2446	-0.337
Mof_H 	H 	0.9932	0.1191	0.2355	0.114
Mof_H 	H 	0.9932	0.1597	0.2381	0.142
Mof_C 	C 	0.98606	0.18903	0.43668	0.155
Mof_C 	C 	0.00478	0.14992	0.39606	0.205
Mof_C 	C 	0.07274	0.15491	0.30629	0.128
Mof_C 	C 	0.03	0.13734	0.26927	0.191
Mof_Cu	Cu	0.08599	0.66882	0.89121	0.802
Mof_Cu	Cu	0.05481	0.73125	0.95348	0.784
Mof_S 	S 	0.95747	0.71144	0.96786	-0.54
Mof_S 	S 	0.10106	0.68391	0.83165	-0.481
Mof_N 	N 	0.02098	0.69517	0.93064	-0.272
Mof_N 	N 	0.03304	0.66992	0.90394	-0.245
Mof_N 	N 	0.97498	0.66052	0.91553	-0.247
Mof_H 	H 	0.9535	0.6511	0.9147	0.127
Mof_N 	N 	0.00396	0.62237	0.87051	-0.334
Mof_H 	H 	0.0233	0.6172	0.8582	0.13
Mof_H 	H 	0.9841	0.6103	0.8669	0.151
Mof_N 	N 	0.07352	0.61874	0.80537	-0.261
Mof_N 	N 	0.04611	0.60714	0.78159	-0.252
Mof_N 	N 	0.04531	0.66722	0.78422	-0.245
Mof_H 	H 	0.0391	0.6896	0.7806	0.12
Mof_N 	N 	0.002	0.6389	0.7446	-0.337
Mof_H 	H 	0.9932	0.6191	0.7355	0.113
Mof_H 	H 	0.9932	0.6597	0.7381	0.142
Mof_C 	C 	0.98606	0.68903	0.93668	0.155
Mof_C 	C 	0.00478	0.64992	0.89606	0.206
Mof_C 	C 	0.07274	0.65491	0.80629	0.128
Mof_C 	C 	0.03	0.63734	0.76927	0.191
Mof_Cu	Cu	0.58599	0.16882	0.89121	0.802
Mof_Cu	Cu	0.55481	0.23125	0.95348	0.785
Mof_S 	S 	0.45747	0.21144	0.96786	-0.542
Mof_S 	S 	0.60106	0.18391	0.83165	-0.48
Mof_N 	N 	0.52098	0.19517	0.93064	-0.268
Mof_N 	N 	0.53304	0.16992	0.90394	-0.246
Mof_N 	N 	0.47498	0.16052	0.91553	-0.249
Mof_H 	H 	0.4535	0.1511	0.9147	0.127
Mof_N 	N 	0.50396	0.12237	0.87051	-0.327
Mof_H 	H 	0.5233	0.1172	0.8582	0.129
Mof_H 	H 	0.4841	0.1103	0.8669	0.144
Mof_N 	N 	0.57352	0.11874	0.80537	-0.261
Mof_N 	N 	0.54611	0.10714	0.78159	-0.251
Mof_N 	N 	0.54531	0.16722	0.78422	-0.244
Mof_H 	H 	0.5391	0.1896	0.7806	0.122
Mof_N 	N 	0.502	0.1389	0.7446	-0.322
Mof_H 	H 	0.4932	0.1191	0.7355	0.105
Mof_H 	H 	0.4932	0.1597	0.7381	0.132
Mof_C 	C 	0.48606	0.18903	0.93668	0.148
Mof_C 	C 	0.50478	0.14992	0.89606	0.212
Mof_C 	C 	0.57274	0.15491	0.80629	0.129
Mof_C 	C 	0.53	0.13734	0.76927	0.19
Mof_Cu	Cu	0.58599	0.66882	0.39121	0.802
Mof_Cu	Cu	0.55481	0.73125	0.45348	0.783
Mof_S 	S 	0.45747	0.71144	0.46786	-0.547
Mof_S 	S 	0.60106	0.68391	0.33165	-0.48
Mof_N 	N 	0.52098	0.69517	0.43064	-0.269
Mof_N 	N 	0.53304	0.66992	0.40394	-0.246
Mof_N 	N 	0.47498	0.66052	0.41553	-0.25
Mof_H 	H 	0.4535	0.6511	0.4147	0.127
Mof_N 	N 	0.50396	0.62237	0.37051	-0.328
Mof_H 	H 	0.5233	0.6172	0.3582	0.129
Mof_H 	H 	0.4841	0.6103	0.3669	0.144
Mof_N 	N 	0.57352	0.61874	0.30537	-0.261
Mof_N 	N 	0.54611	0.60714	0.28159	-0.251
Mof_N 	N 	0.54531	0.66722	0.28422	-0.244
Mof_H 	H 	0.5391	0.6896	0.2806	0.122
Mof_N 	N 	0.502	0.6389	0.2446	-0.322
Mof_H 	H 	0.4932	0.6191	0.2355	0.105
Mof_H 	H 	0.4932	0.6597	0.2381	0.132
Mof_C 	C 	0.48606	0.68903	0.43668	0.148
Mof_C 	C 	0.50478	0.64992	0.39606	0.211
Mof_C 	C 	0.57274	0.65491	0.30629	0.129
Mof_C 	C 	0.53	0.63734	0.26927	0.19
Mof_Cu	Cu	0.08599	0.83118	0.60879	0.802
Mof_Cu	Cu	0.05481	0.76875	0.54652	0.783
Mof_S 	S 	0.95747	0.78856	0.53214	-0.545
Mof_S 	S 	0.10106	0.81609	0.66835	-0.481
Mof_N 	N 	0.02098	0.80483	0.56936	-0.273
Mof_N 	N 	0.03304	0.83008	0.59606	-0.245
Mof_N 	N 	0.97498	0.83948	0.58447	-0.247
Mof_H 	H 	0.9535	0.8489	0.5853	0.127
Mof_N 	N 	0.00396	0.87763	0.62949	-0.334
Mof_H 	H 	0.0233	0.8828	0.6418	0.13
Mof_H 	H 	0.9841	0.8897	0.6331	0.151
Mof_N 	N 	0.07352	0.88126	0.69463	-0.261
Mof_N 	N 	0.04611	0.89286	0.71841	-0.252
Mof_N 	N 	0.04531	0.83278	0.71578	-0.245
Mof_H 	H 	0.0391	0.8104	0.7194	0.12
Mof_N 	N 	0.002	0.8611	0.7554	-0.337
Mof_H 	H 	0.9932	0.8809	0.7645	0.113
Mof_H 	H 	0.9932	0.8403	0.7619	0.141
Mof_C 	C 	0.98606	0.81097	0.56332	0.155
Mof_C 	C 	0.00478	0.85008	0.60394	0.206
Mof_C 	C 	0.07274	0.84509	0.69371	0.128
Mof_C 	C 	0.03	0.86266	0.73073	0.191
Mof_Cu	Cu	0.08599	0.33118	0.10879	0.801
Mof_Cu	Cu	0.05481	0.26875	0.04652	0.782
Mof_S 	S 	0.95747	0.28856	0.03214	-0.549
Mof_S 	S 	0.10106	0.31609	0.16835	-0.481
Mof_N 	N 	0.02098	0.30483	0.06936	-0.273
Mof_N 	N 	0.03304	0.33008	0.09606	-0.246
Mof_N 	N 	0.97498	0.33948	0.08447	-0.247
Mof_H 	H 	0.9535	0.3489	0.0853	0.127
Mof_N 	N 	0.00396	0.37763	0.12949	-0.334
Mof_H 	H 	0.0233	0.3828	0.1418	0.13
Mof_H 	H 	0.9841	0.3897	0.1331	0.15
Mof_N 	N 	0.07352	0.38126	0.19463	-0.261
Mof_N 	N 	0.04611	0.39286	0.21841	-0.252
Mof_N 	N 	0.04531	0.33278	0.21578	-0.245
Mof_H 	H 	0.0391	0.3104	0.2194	0.12
Mof_N 	N 	0.002	0.3611	0.2554	-0.337
Mof_H 	H 	0.9932	0.3809	0.2645	0.114
Mof_H 	H 	0.9932	0.3403	0.2619	0.142
Mof_C 	C 	0.98606	0.31097	0.06332	0.155
Mof_C 	C 	0.00478	0.35008	0.10394	0.205
Mof_C 	C 	0.07274	0.34509	0.19371	0.128
Mof_C 	C 	0.03	0.36266	0.23073	0.191
Mof_Cu	Cu	0.58599	0.83118	0.10879	0.801
Mof_Cu	Cu	0.55481	0.76875	0.04652	0.782
Mof_S 	S 	0.45747	0.78856	0.03214	-0.551
Mof_S 	S 	0.60106	0.81609	0.16835	-0.48
Mof_N 	N 	0.52098	0.80483	0.06936	-0.269
Mof_N 	N 	0.53304	0.83008	0.09606	-0.246
Mof_N 	N 	0.47498	0.83948	0.08447	-0.25
Mof_H 	H 	0.4535	0.8489	0.0853	0.127
Mof_N 	N 	0.50396	0.87763	0.12949	-0.328
Mof_H 	H 	0.5233	0.8828	0.1418	0.129
Mof_H 	H 	0.4841	0.8897	0.1331	0.144
Mof_N 	N 	0.57352	0.88126	0.19463	-0.261
Mof_N 	N 	0.54611	0.89286	0.21841	-0.251
Mof_N 	N 	0.54531	0.83278	0.21578	-0.244
Mof_H 	H 	0.5391	0.8104	0.2194	0.122
Mof_N 	N 	0.502	0.8611	0.2554	-0.322
Mof_H 	H 	0.4932	0.8809	0.2645	0.104
Mof_H 	H 	0.4932	0.8403	0.2619	0.132
Mof_C 	C 	0.48606	0.81097	0.06332	0.148
Mof_C 	C 	0.50478	0.85008	0.10394	0.211
Mof_C 	C 	0.57274	0.84509	0.19371	0.129
Mof_C 	C 	0.53	0.86266	0.23073	0.19
Mof_Cu	Cu	0.58599	0.33118	0.60879	0.802
Mof_Cu	Cu	0.55481	0.26875	0.54652	0.783
Mof_S 	S 	0.45747	0.28856	0.53214	-0.547
Mof_S 	S 	0.60106	0.31609	0.66835	-0.48
Mof_N 	N 	0.52098	0.30483	0.56936	-0.269
Mof_N 	N 	0.53304	0.33008	0.59606	-0.246
Mof_N 	N 	0.47498	0.33948	0.58447	-0.25
Mof_H 	H 	0.4535	0.3489	0.5853	0.127
Mof_N 	N 	0.50396	0.37763	0.62949	-0.328
Mof_H 	H 	0.5233	0.3828	0.6418	0.129
Mof_H 	H 	0.4841	0.3897	0.6331	0.144
Mof_N 	N 	0.57352	0.38126	0.69463	-0.261
Mof_N 	N 	0.54611	0.39286	0.71841	-0.251
Mof_N 	N 	0.54531	0.33278	0.71578	-0.244
Mof_H 	H 	0.5391	0.3104	0.7194	0.122
Mof_N 	N 	0.502	0.3611	0.7554	-0.322
Mof_H 	H 	0.4932	0.3809	0.7645	0.104
Mof_H 	H 	0.4932	0.3403	0.7619	0.132
Mof_C 	C 	0.48606	0.31097	0.56332	0.148
Mof_C 	C 	0.50478	0.35008	0.60394	0.211
Mof_C 	C 	0.57274	0.34509	0.69371	0.129
Mof_C 	C 	0.53	0.36266	0.73073	0.19
Mof_Cu	Cu	0.91401	0.16882	0.60879	0.802
Mof_Cu	Cu	0.94519	0.23125	0.54652	0.784
Mof_S 	S 	0.04253	0.21144	0.53214	-0.549
Mof_S 	S 	0.89894	0.18391	0.66835	-0.48
Mof_N 	N 	0.97902	0.19517	0.56936	-0.265
Mof_N 	N 	0.96696	0.16992	0.59606	-0.247
Mof_N 	N 	0.02502	0.16052	0.58447	-0.252
Mof_H 	H 	0.0465	0.1511	0.5853	0.126
Mof_N 	N 	0.99604	0.12237	0.62949	-0.321
Mof_H 	H 	0.9767	0.1172	0.6418	0.129
Mof_H 	H 	0.0159	0.1103	0.6331	0.137
Mof_N 	N 	0.92648	0.11874	0.69463	-0.261
Mof_N 	N 	0.95389	0.10714	0.71841	-0.25
Mof_N 	N 	0.95469	0.16722	0.71578	-0.244
Mof_H 	H 	0.9609	0.1896	0.7194	0.123
Mof_N 	N 	0.998	0.1389	0.7554	-0.308
Mof_H 	H 	0.0068	0.1191	0.7645	0.096
Mof_H 	H 	0.0068	0.1597	0.7619	0.123
Mof_C 	C 	0.01394	0.18903	0.56332	0.141
Mof_C 	C 	0.99522	0.14992	0.60394	0.217
Mof_C 	C 	0.92726	0.15491	0.69371	0.129
Mof_C 	C 	0.97	0.13734	0.73073	0.19
Mof_Cu	Cu	0.91401	0.66882	0.10879	0.802
Mof_Cu	Cu	0.94519	0.73125	0.04652	0.783
Mof_S 	S 	0.04253	0.71144	0.03214	-0.552
Mof_S 	S 	0.89894	0.68391	0.16835	-0.48
Mof_N 	N 	0.97902	0.69517	0.06936	-0.265
Mof_N 	N 	0.96696	0.66992	0.09606	-0.247
Mof_N 	N 	0.02502	0.66052	0.08447	-0.253
Mof_H 	H 	0.0465	0.6511	0.0853	0.126
Mof_N 	N 	0.99604	0.62237	0.12949	-0.321
Mof_H 	H 	0.9767	0.6172	0.1418	0.129
Mof_H 	H 	0.0159	0.6103	0.1331	0.137
Mof_N 	N 	0.92648	0.61874	0.19463	-0.261
Mof_N 	N 	0.95389	0.60714	0.21841	-0.249
Mof_N 	N 	0.95469	0.66722	0.21578	-0.244
Mof_H 	H 	0.9609	0.6896	0.2194	0.123
Mof_N 	N 	0.998	0.6389	0.2554	-0.308
Mof_H 	H 	0.0068	0.6191	0.2645	0.096
Mof_H 	H 	0.0068	0.6597	0.2619	0.123
Mof_C 	C 	0.01394	0.68903	0.06332	0.141
Mof_C 	C 	0.99522	0.64992	0.10394	0.217
Mof_C 	C 	0.92726	0.65491	0.19371	0.129
Mof_C 	C 	0.97	0.63734	0.23073	0.19
Mof_Cu	Cu	0.41401	0.16882	0.10879	0.801
Mof_Cu	Cu	0.44519	0.23125	0.04652	0.782
Mof_S 	S 	0.54253	0.21144	0.03214	-0.551
Mof_S 	S 	0.39894	0.18391	0.16835	-0.48
Mof_N 	N 	0.47902	0.19517	0.06936	-0.269
Mof_N 	N 	0.46696	0.16992	0.09606	-0.246
Mof_N 	N 	0.52502	0.16052	0.08447	-0.25
Mof_H 	H 	0.5465	0.1511	0.0853	0.126
Mof_N 	N 	0.49604	0.12237	0.12949	-0.327
Mof_H 	H 	0.4767	0.1172	0.1418	0.129
Mof_H 	H 	0.5159	0.1103	0.1331	0.143
Mof_N 	N 	0.42648	0.11874	0.19463	-0.261
Mof_N 	N 	0.45389	0.10714	0.21841	-0.251
Mof_N 	N 	0.45469	0.16722	0.21578	-0.244
Mof_H 	H 	0.4609	0.1896	0.2194	0.122
Mof_N 	N 	0.498	0.1389	0.2554	-0.322
Mof_H 	H 	0.5068	0.1191	0.2645	0.105
Mof_H 	H 	0.5068	0.1597	0.2619	0.132
Mof_C 	C 	0.51394	0.18903	0.06332	0.148
Mof_C 	C 	0.49522	0.14992	0.10394	0.211
Mof_C 	C 	0.42726	0.15491	0.19371	0.129
Mof_C 	C 	0.47	0.13734	0.23073	0.19
Mof_Cu	Cu	0.41401	0.66882	0.60879	0.802
Mof_Cu	Cu	0.44519	0.73125	0.54652	0.783
Mof_S 	S 	0.54253	0.71144	0.53214	-0.547
Mof_S 	S 	0.39894	0.68391	0.66835	-0.48
Mof_N 	N 	0.47902	0.69517	0.56936	-0.269
Mof_N 	N 	0.46696	0.66992	0.59606	-0.246
Mof_N 	N 	0.52502	0.66052	0.58447	-0.25
Mof_H 	H 	0.5465	0.6511	0.5853	0.127
Mof_N 	N 	0.49604	0.62237	0.62949	-0.327
Mof_H 	H 	0.4767	0.6172	0.6418	0.129
Mof_H 	H 	0.5159	0.6103	0.6331	0.144
Mof_N 	N 	0.42648	0.61874	0.69463	-0.261
Mof_N 	N 	0.45389	0.60714	0.71841	-0.251
Mof_N 	N 	0.45469	0.66722	0.71578	-0.244
Mof_H 	H 	0.4609	0.6896	0.7194	0.122
Mof_N 	N 	0.498	0.6389	0.7554	-0.322
Mof_H 	H 	0.5068	0.6191	0.7645	0.104
Mof_H 	H 	0.5068	0.6597	0.7619	0.132
Mof_C 	C 	0.51394	0.68903	0.56332	0.148
Mof_C 	C 	0.49522	0.64992	0.60394	0.211
Mof_C 	C 	0.42726	0.65491	0.69371	0.129
Mof_C 	C 	0.47	0.63734	0.73073	0.19
Mof_Cu	Cu	0.91401	0.83118	0.39121	0.802
Mof_Cu	Cu	0.94519	0.76875	0.45348	0.784
Mof_S 	S 	0.04253	0.78856	0.46786	-0.548
Mof_S 	S 	0.89894	0.81609	0.33165	-0.48
Mof_N 	N 	0.97902	0.80483	0.43064	-0.265
Mof_N 	N 	0.96696	0.83008	0.40394	-0.247
Mof_N 	N 	0.02502	0.83948	0.41553	-0.252
Mof_H 	H 	0.0465	0.8489	0.4147	0.127
Mof_N 	N 	0.99604	0.87763	0.37051	-0.322
Mof_H 	H 	0.9767	0.8828	0.3582	0.129
Mof_H 	H 	0.0159	0.8897	0.3669	0.138
Mof_N 	N 	0.92648	0.88126	0.30537	-0.261
Mof_N 	N 	0.95389	0.89286	0.28159	-0.249
Mof_N 	N 	0.95469	0.83278	0.28422	-0.244
Mof_H 	H 	0.9609	0.8104	0.2806	0.123
Mof_N 	N 	0.998	0.8611	0.2446	-0.308
Mof_H 	H 	0.0068	0.8809	0.2355	0.096
Mof_H 	H 	0.0068	0.8403	0.2381	0.123
Mof_C 	C 	0.01394	0.81097	0.43668	0.141
Mof_C 	C 	0.99522	0.85008	0.39606	0.217
Mof_C 	C 	0.92726	0.84509	0.30629	0.129
Mof_C 	C 	0.97	0.86266	0.26927	0.19
Mof_Cu	Cu	0.91401	0.33118	0.89121	0.802
Mof_Cu	Cu	0.94519	0.26875	0.95348	0.785
Mof_S 	S 	0.04253	0.28856	0.96786	-0.543
Mof_S 	S 	0.89894	0.31609	0.83165	-0.48
Mof_N 	N 	0.97902	0.30483	0.93064	-0.264
Mof_N 	N 	0.96696	0.33008	0.90394	-0.246
Mof_N 	N 	0.02502	0.33948	0.91553	-0.252
Mof_H 	H 	0.0465	0.3489	0.9147	0.127
Mof_N 	N 	0.99604	0.37763	0.87051	-0.321
Mof_H 	H 	0.9767	0.3828	0.8582	0.129
Mof_H 	H 	0.0159	0.3897	0.8669	0.137
Mof_N 	N 	0.92648	0.38126	0.80537	-0.261
Mof_N 	N 	0.95389	0.39286	0.78159	-0.249
Mof_N 	N 	0.95469	0.33278	0.78422	-0.244
Mof_H 	H 	0.9609	0.3104	0.7806	0.123
Mof_N 	N 	0.998	0.3611	0.7446	-0.308
Mof_H 	H 	0.0068	0.3809	0.7355	0.096
Mof_H 	H 	0.0068	0.3403	0.7381	0.123
Mof_C 	C 	0.01394	0.31097	0.93668	0.141
Mof_C 	C 	0.99522	0.35008	0.89606	0.218
Mof_C 	C 	0.92726	0.34509	0.80629	0.129
Mof_C 	C 	0.97	0.36266	0.76927	0.19
Mof_Cu	Cu	0.41401	0.83118	0.89121	0.802
Mof_Cu	Cu	0.44519	0.76875	0.95348	0.785
Mof_S 	S 	0.54253	0.78856	0.96786	-0.542
Mof_S 	S 	0.39894	0.81609	0.83165	-0.48
Mof_N 	N 	0.47902	0.80483	0.93064	-0.268
Mof_N 	N 	0.46696	0.83008	0.90394	-0.246
Mof_N 	N 	0.52502	0.83948	0.91553	-0.25
Mof_H 	H 	0.5465	0.8489	0.9147	0.128
Mof_N 	N 	0.49604	0.87763	0.87051	-0.328
Mof_H 	H 	0.4767	0.8828	0.8582	0.13
Mof_H 	H 	0.5159	0.8897	0.8669	0.145
Mof_N 	N 	0.42648	0.88126	0.80537	-0.261
Mof_N 	N 	0.45389	0.89286	0.78159	-0.251
Mof_N 	N 	0.45469	0.83278	0.78422	-0.244
Mof_H 	H 	0.4609	0.8104	0.7806	0.122
Mof_N 	N 	0.498	0.8611	0.7446	-0.322
Mof_H 	H 	0.5068	0.8809	0.7355	0.104
Mof_H 	H 	0.5068	0.8403	0.7381	0.132
Mof_C 	C 	0.51394	0.81097	0.93668	0.148
Mof_C 	C 	0.49522	0.85008	0.89606	0.212
Mof_C 	C 	0.42726	0.84509	0.80629	0.129
Mof_C 	C 	0.47	0.86266	0.76927	0.19
Mof_Cu	Cu	0.41401	0.33118	0.39121	0.802
Mof_Cu	Cu	0.44519	0.26875	0.45348	0.783
Mof_S 	S 	0.54253	0.28856	0.46786	-0.547
Mof_S 	S 	0.39894	0.31609	0.33165	-0.48
Mof_N 	N 	0.47902	0.30483	0.43064	-0.269
Mof_N 	N 	0.46696	0.33008	0.40394	-0.246
Mof_N 	N 	0.52502	0.33948	0.41553	-0.25
Mof_H 	H 	0.5465	0.3489	0.4147	0.127
Mof_N 	N 	0.49604	0.37763	0.37051	-0.328
Mof_H 	H 	0.4767	0.3828	0.3582	0.129
Mof_H 	H 	0.5159	0.3897	0.3669	0.144
Mof_N 	N 	0.42648	0.38126	0.30537	-0.261
Mof_N 	N 	0.45389	0.39286	0.28159	-0.251
Mof_N 	N 	0.45469	0.33278	0.28422	-0.244
Mof_H 	H 	0.4609	0.3104	0.2806	0.122
Mof_N 	N 	0.498	0.3611	0.2446	-0.322
Mof_H 	H 	0.5068	0.3809	0.2355	0.105
Mof_H 	H 	0.5068	0.3403	0.2381	0.132
Mof_C 	C 	0.51394	0.31097	0.43668	0.148
Mof_C 	C 	0.49522	0.35008	0.39606	0.212
Mof_C 	C 	0.42726	0.34509	0.30629	0.129
Mof_C 	C 	0.47	0.36266	0.26927	0.19
Mof_Cu	Cu	0.8521	0.6479	0.6479	0.746
Mof_Cl	Cl	0.90038	0.59962	0.59962	-0.743
Mof_Cu	Cu	0.8521	0.1479	0.1479	0.746
Mof_Cl	Cl	0.90038	0.09962	0.09962	-0.745
Mof_Cu	Cu	0.1479	0.3521	0.6479	0.746
Mof_Cl	Cl	0.09962	0.40038	0.59962	-0.745
Mof_Cu	Cu	0.1479	0.8521	0.1479	0.746
Mof_Cl	Cl	0.09962	0.90038	0.09962	-0.745
Mof_Cu	Cu	0.1479	0.6479	0.3521	0.746
Mof_Cl	Cl	0.09962	0.59962	0.40038	-0.745
Mof_Cu	Cu	0.1479	0.1479	0.8521	0.746
Mof_Cl	Cl	0.09962	0.09962	0.90038	-0.745
Mof_Cu	Cu	0.8521	0.3521	0.3521	0.746
Mof_Cl	Cl	0.90038	0.40038	0.40038	-0.743
Mof_Cu	Cu	0.8521	0.8521	0.8521	0.746
Mof_Cl	Cl	0.90038	0.90038	0.90038	-0.742
Mof_Cu	Cu	0.6479	0.8521	0.6479	0.746
Mof_Cl	Cl	0.59962	0.90038	0.59962	-0.743
Mof_Cu	Cu	0.6479	0.1479	0.3521	0.746
Mof_Cl	Cl	0.59962	0.09962	0.40038	-0.745
Mof_Cu	Cu	0.3521	0.1479	0.6479	0.746
Mof_Cl	Cl	0.40038	0.09962	0.59962	-0.745
Mof_Cu	Cu	0.3521	0.8521	0.3521	0.746
Mof_Cl	Cl	0.40038	0.90038	0.40038	-0.743
Mof_Cu	Cu	0.6479	0.6479	0.8521	0.746
Mof_Cl	Cl	0.59962	0.59962	0.90038	-0.743
Mof_Cu	Cu	0.3521	0.6479	0.1479	0.746
Mof_Cl	Cl	0.40038	0.59962	0.09962	-0.745
Mof_Cu	Cu	0.6479	0.3521	0.1479	0.746
Mof_Cl	Cl	0.59962	0.40038	0.09962	-0.745
Mof_Cu	Cu	0.3521	0.3521	0.8521	0.746
Mof_Cl	Cl	0.40038	0.40038	0.90038	-0.743
Mof_Cu	Cu	0.1479	0.3521	0.1479	0.746
Mof_Cl	Cl	0.09962	0.40038	0.09962	-0.746
Mof_Cu	Cu	0.8521	0.6479	0.1479	0.746
Mof_Cl	Cl	0.90038	0.59962	0.09962	-0.744
Mof_Cu	Cu	0.1479	0.6479	0.8521	0.746
Mof_Cl	Cl	0.09962	0.59962	0.90038	-0.744
Mof_Cu	Cu	0.8521	0.3521	0.8521	0.746
Mof_Cl	Cl	0.90038	0.40038	0.90038	-0.742
Mof_Cu	Cu	0.3521	0.1479	0.1479	0.746
Mof_Cl	Cl	0.40038	0.09962	0.09962	-0.746
Mof_Cu	Cu	0.3521	0.6479	0.6479	0.746
Mof_Cl	Cl	0.40038	0.59962	0.59962	-0.744
Mof_Cu	Cu	0.6479	0.1479	0.8521	0.746
Mof_Cl	Cl	0.59962	0.09962	0.90038	-0.744
Mof_Cu	Cu	0.6479	0.6479	0.3521	0.746
Mof_Cl	Cl	0.59962	0.59962	0.40038	-0.744
Mof_Cu	Cu	0.6479	0.8521	0.1479	0.746
Mof_Cl	Cl	0.59962	0.90038	0.09962	-0.744
Mof_Cu	Cu	0.6479	0.3521	0.6479	0.746
Mof_Cl	Cl	0.59962	0.40038	0.59962	-0.744
Mof_Cu	Cu	0.3521	0.8521	0.8521	0.746
Mof_Cl	Cl	0.40038	0.90038	0.90038	-0.742
Mof_Cu	Cu	0.3521	0.3521	0.3521	0.746
Mof_Cl	Cl	0.40038	0.40038	0.40038	-0.744
Mof_Cu	Cu	0.1479	0.1479	0.3521	0.746
Mof_Cl	Cl	0.09962	0.09962	0.40038	-0.746
Mof_Cu	Cu	0.1479	0.8521	0.6479	0.746
Mof_Cl	Cl	0.09962	0.90038	0.59962	-0.744
Mof_Cu	Cu	0.8521	0.1479	0.6479	0.746
Mof_Cl	Cl	0.90038	0.09962	0.59962	-0.744
Mof_Cu	Cu	0.8521	0.8521	0.3521	0.746
Mof_Cl	Cl	0.90038	0.90038	0.40038	-0.742
Mof_Cu	Cu	1.01284e-32	0.75	0.5	0.697
Mof_Cu	Cu	-0	0.25	-0	0.693
Mof_Cu	Cu	0.5	0.75	-0	0.697
Mof_Cu	Cu	0.5	0.25	0.5	0.7
Mof_Cu	Cu	-6.37895e-33	0.25	0.5	0.697
Mof_Cu	Cu	-0	0.75	-0	0.693
Mof_Cu	Cu	0.5	0.25	-0	0.697
Mof_Cu	Cu	0.5	0.75	0.5	0.7
Mof_Cu	Cu	0.5	0	0.75	0.697
Mof_Cu	Cu	0.5	0.5	0.25	0.7
Mof_Cu	Cu	9.3735e-34	0	0.25	0.693
Mof_Cu	Cu	1.10657e-32	0.5	0.75	0.697
Mof_Cu	Cu	0.5	0	0.25	0.697
Mof_Cu	Cu	0.5	0.5	0.75	0.7
Mof_Cu	Cu	2.81205e-33	0	0.75	0.693
Mof_Cu	Cu	-3.18948e-33	0.5	0.25	0.697
Mof_Cu	Cu	0.75	0.5	-0	0.697
Mof_Cu	Cu	0.75	0	0.5	0.697
Mof_Cu	Cu	0.25	0.5	0.5	0.7
Mof_Cu	Cu	0.25	0	-0	0.693
Mof_Cu	Cu	0.25	0.5	-0	0.697
Mof_Cu	Cu	0.25	0	0.5	0.697
Mof_Cu	Cu	0.75	0.5	0.5	0.7
Mof_Cu	Cu	0.75	0	-0	0.693
_end
