data_functionalizedCrystal
_audit_creation_method	'EQeq! by Chris Wilmer'
_symmetry_space_group_name_H-M	'P1'
_symmetry_Int_Tables_number	1
_symmetry_cell_setting	triclinic
loop_
_symmetry_equiv_pos_as_xyz
  x,y,z
_cell_length_a	18.504
_cell_length_b	18.504
_cell_length_c	39.035
_cell_angle_alpha	90
_cell_angle_beta	90
_cell_angle_gamma	120
loop_
_atom_site_label
_atom_site_type_symbol
_atom_site_fract_x
_atom_site_fract_y
_atom_site_fract_z
_atom_site_charge
Mof_C 	C 	0.026	0.7827	0.30541	0.347
Mof_C 	C 	0.9453	0.7606	0.28819	-0.085
Mof_C 	C 	0.9298	0.73	0.25543	-0.025
Mof_H 	H 	0.9691	0.7192	0.2442	0.046
Mof_C 	C 	0.8504	0.6172	0.1894	0.112
Mof_C 	C 	0.9061	0.7346	0.17822	-0.1
Mof_H 	H 	0.9555	0.782	0.1863	0.061
Mof_C 	C 	0.8662	0.5622	0.213	-0.466
Mof_H 	H 	0.8546	0.5111	0.2009	0.15
Mof_H 	H 	0.8297	0.5477	0.2331	0.152
Mof_H 	H 	0.9247	0.592	0.2204	0.158
Mof_O 	O 	0.07851	0.77315	0.28871	-0.409
Mof_O 	O 	0.03816	0.81391	0.33559	-0.406
Mof_C 	C 	0.69267	0.11603	0.63874	0.348
Mof_C 	C 	0.61197	0.09393	0.62152	-0.086
Mof_C 	C 	0.59647	0.06333	0.58876	-0.024
Mof_H 	H 	0.63577	0.05253	0.57753	0.046
Mof_C 	C 	0.51707	0.95053	0.52273	0.112
Mof_C 	C 	0.57277	0.06793	0.51155	-0.101
Mof_H 	H 	0.62217	0.11533	0.51963	0.062
Mof_C 	C 	0.53287	0.89553	0.54633	-0.466
Mof_H 	H 	0.52127	0.84443	0.53423	0.15
Mof_H 	H 	0.49637	0.88103	0.56643	0.152
Mof_H 	H 	0.59137	0.92533	0.55373	0.158
Mof_O 	O 	0.74518	0.10648	0.62204	-0.409
Mof_O 	O 	0.70483	0.14724	0.66892	-0.406
Mof_C 	C 	0.35933	0.44937	0.97208	0.347
Mof_C 	C 	0.27863	0.42727	0.95486	-0.087
Mof_C 	C 	0.26313	0.39667	0.9221	-0.025
Mof_H 	H 	0.30243	0.38587	0.91087	0.045
Mof_C 	C 	0.18373	0.28387	0.85607	0.111
Mof_C 	C 	0.23943	0.40127	0.84489	-0.102
Mof_H 	H 	0.28883	0.44867	0.85297	0.061
Mof_C 	C 	0.19953	0.22887	0.87967	-0.467
Mof_H 	H 	0.18793	0.17777	0.86757	0.149
Mof_H 	H 	0.16303	0.21437	0.89977	0.151
Mof_H 	H 	0.25803	0.25867	0.88707	0.157
Mof_O 	O 	0.41184	0.43982	0.95538	-0.41
Mof_O 	O 	0.37149	0.48058	0.00226	-0.407
Mof_C 	C 	0.2173	0.2433	0.30541	0.347
Mof_C 	C 	0.2394	0.1847	0.28819	-0.086
Mof_C 	C 	0.27	0.1998	0.25543	-0.025
Mof_H 	H 	0.2808	0.2499	0.2442	0.045
Mof_C 	C 	0.3828	0.2332	0.1894	0.111
Mof_C 	C 	0.2654	0.1715	0.17822	-0.102
Mof_H 	H 	0.218	0.1735	0.1863	0.061
Mof_C 	C 	0.4378	0.304	0.213	-0.467
Mof_H 	H 	0.4889	0.3435	0.2009	0.149
Mof_H 	H 	0.4523	0.282	0.2331	0.151
Mof_H 	H 	0.408	0.3327	0.2204	0.157
Mof_O 	O 	0.22685	0.30536	0.28871	-0.41
Mof_O 	O 	0.18609	0.22425	0.33559	-0.406
Mof_C 	C 	0.88397	0.57663	0.63874	0.347
Mof_C 	C 	0.90607	0.51803	0.62152	-0.087
Mof_C 	C 	0.93667	0.53313	0.58876	-0.025
Mof_H 	H 	0.94747	0.58323	0.57753	0.045
Mof_C 	C 	0.04947	0.56653	0.52273	0.111
Mof_C 	C 	0.93207	0.50483	0.51155	-0.102
Mof_H 	H 	0.88467	0.50683	0.51963	0.061
Mof_C 	C 	0.10447	0.63733	0.54633	-0.467
Mof_H 	H 	0.15557	0.67683	0.53423	0.149
Mof_H 	H 	0.11897	0.61533	0.56643	0.151
Mof_H 	H 	0.07467	0.66603	0.55373	0.157
Mof_O 	O 	0.89352	0.63869	0.62204	-0.41
Mof_O 	O 	0.85276	0.55758	0.66892	-0.406
Mof_C 	C 	0.55063	0.90997	0.97208	0.347
Mof_C 	C 	0.57273	0.85137	0.95486	-0.087
Mof_C 	C 	0.60333	0.86647	0.9221	-0.025
Mof_H 	H 	0.61413	0.91657	0.91087	0.045
Mof_C 	C 	0.71613	0.89987	0.85607	0.11
Mof_C 	C 	0.59873	0.83817	0.84489	-0.102
Mof_H 	H 	0.55133	0.84017	0.85297	0.061
Mof_C 	C 	0.77113	0.97067	0.87967	-0.465
Mof_H 	H 	0.82223	0.01017	0.86757	0.148
Mof_H 	H 	0.78563	0.94867	0.89977	0.151
Mof_H 	H 	0.74133	0.99937	0.88707	0.156
Mof_O 	O 	0.56018	0.97203	0.95538	-0.41
Mof_O 	O 	0.51942	0.89092	0.00226	-0.407
Mof_C 	C 	0.7567	0.974	0.30541	0.346
Mof_C 	C 	0.8153	0.0547	0.28819	-0.086
Mof_C 	C 	0.8002	0.0702	0.25543	-0.026
Mof_H 	H 	0.7501	0.0309	0.2442	0.046
Mof_C 	C 	0.7668	0.1496	0.1894	0.111
Mof_C 	C 	0.8285	0.0939	0.17822	-0.101
Mof_H 	H 	0.8265	0.0445	0.1863	0.061
Mof_C 	C 	0.696	0.1338	0.213	-0.467
Mof_H 	H 	0.6565	0.1454	0.2009	0.149
Mof_H 	H 	0.718	0.1703	0.2331	0.151
Mof_H 	H 	0.6673	0.0753	0.2204	0.157
Mof_O 	O 	0.69464	0.92149	0.28871	-0.41
Mof_O 	O 	0.77575	0.96184	0.33559	-0.406
Mof_C 	C 	0.42337	0.30733	0.63874	0.347
Mof_C 	C 	0.48197	0.38803	0.62152	-0.086
Mof_C 	C 	0.46687	0.40353	0.58876	-0.025
Mof_H 	H 	0.41677	0.36423	0.57753	0.045
Mof_C 	C 	0.43347	0.48293	0.52273	0.111
Mof_C 	C 	0.49517	0.42723	0.51155	-0.102
Mof_H 	H 	0.49317	0.37783	0.51963	0.061
Mof_C 	C 	0.36267	0.46713	0.54633	-0.467
Mof_H 	H 	0.32317	0.47873	0.53423	0.149
Mof_H 	H 	0.38467	0.50363	0.56643	0.151
Mof_H 	H 	0.33397	0.40863	0.55373	0.157
Mof_O 	O 	0.36131	0.25482	0.62204	-0.41
Mof_O 	O 	0.44242	0.29517	0.66892	-0.406
Mof_C 	C 	0.09003	0.64067	0.97208	0.347
Mof_C 	C 	0.14863	0.72137	0.95486	-0.087
Mof_C 	C 	0.13353	0.73687	0.9221	-0.025
Mof_H 	H 	0.08343	0.69757	0.91087	0.045
Mof_C 	C 	0.10013	0.81627	0.85607	0.11
Mof_C 	C 	0.16183	0.76057	0.84489	-0.102
Mof_H 	H 	0.15983	0.71117	0.85297	0.061
Mof_C 	C 	0.02933	0.80047	0.87967	-0.466
Mof_H 	H 	0.98983	0.81207	0.86757	0.148
Mof_H 	H 	0.05133	0.83697	0.89977	0.151
Mof_H 	H 	0.00063	0.74197	0.88707	0.156
Mof_O 	O 	0.02797	0.58816	0.95538	-0.41
Mof_O 	O 	0.10908	0.62851	0.00226	-0.407
Mof_C 	C 	0.7827	0.026	0.69459	0.346
Mof_C 	C 	0.7606	0.9453	0.71181	-0.086
Mof_C 	C 	0.73	0.9298	0.74457	-0.026
Mof_H 	H 	0.7192	0.9691	0.7558	0.045
Mof_C 	C 	0.6172	0.8504	0.8106	0.111
Mof_C 	C 	0.7346	0.9061	0.82178	-0.101
Mof_H 	H 	0.782	0.9555	0.8137	0.06
Mof_C 	C 	0.5622	0.8662	0.787	-0.467
Mof_H 	H 	0.5111	0.8546	0.7991	0.149
Mof_H 	H 	0.5477	0.8297	0.7669	0.151
Mof_H 	H 	0.592	0.9247	0.7796	0.157
Mof_O 	O 	0.77315	0.07851	0.71129	-0.41
Mof_O 	O 	0.81391	0.03816	0.66441	-0.407
Mof_C 	C 	0.44937	0.35933	0.02792	0.347
Mof_C 	C 	0.42727	0.27863	0.04514	-0.087
Mof_C 	C 	0.39667	0.26313	0.0779	-0.025
Mof_H 	H 	0.38587	0.30243	0.08913	0.045
Mof_C 	C 	0.28387	0.18373	0.14393	0.111
Mof_C 	C 	0.40127	0.23943	0.15511	-0.102
Mof_H 	H 	0.44867	0.28883	0.14703	0.061
Mof_C 	C 	0.22887	0.19953	0.12033	-0.467
Mof_H 	H 	0.17777	0.18793	0.13243	0.149
Mof_H 	H 	0.21437	0.16303	0.10023	0.151
Mof_H 	H 	0.25867	0.25803	0.11293	0.157
Mof_O 	O 	0.43982	0.41184	0.04462	-0.41
Mof_O 	O 	0.48058	0.37149	0.99774	-0.407
Mof_C 	C 	0.11603	0.69267	0.36126	0.347
Mof_C 	C 	0.09393	0.61197	0.37848	-0.087
Mof_C 	C 	0.06333	0.59647	0.41124	-0.025
Mof_H 	H 	0.05253	0.63577	0.42247	0.045
Mof_C 	C 	0.95053	0.51707	0.47727	0.111
Mof_C 	C 	0.06793	0.57277	0.48845	-0.102
Mof_H 	H 	0.11533	0.62217	0.48037	0.061
Mof_C 	C 	0.89553	0.53287	0.45367	-0.467
Mof_H 	H 	0.84443	0.52127	0.46577	0.149
Mof_H 	H 	0.88103	0.49637	0.43357	0.151
Mof_H 	H 	0.92533	0.59137	0.44627	0.157
Mof_O 	O 	0.10648	0.74518	0.37796	-0.41
Mof_O 	O 	0.14724	0.70483	0.33108	-0.407
Mof_C 	C 	0.2433	0.2173	0.69459	0.347
Mof_C 	C 	0.1847	0.2394	0.71181	-0.086
Mof_C 	C 	0.1998	0.27	0.74457	-0.025
Mof_H 	H 	0.2499	0.2808	0.7558	0.045
Mof_C 	C 	0.2332	0.3828	0.8106	0.111
Mof_C 	C 	0.1715	0.2654	0.82178	-0.102
Mof_H 	H 	0.1735	0.218	0.8137	0.061
Mof_C 	C 	0.304	0.4378	0.787	-0.467
Mof_H 	H 	0.3435	0.4889	0.7991	0.149
Mof_H 	H 	0.282	0.4523	0.7669	0.151
Mof_H 	H 	0.3327	0.408	0.7796	0.157
Mof_O 	O 	0.30536	0.22685	0.71129	-0.41
Mof_O 	O 	0.22425	0.18609	0.66441	-0.406
Mof_C 	C 	0.90997	0.55063	0.02792	0.347
Mof_C 	C 	0.85137	0.57273	0.04514	-0.087
Mof_C 	C 	0.86647	0.60333	0.0779	-0.025
Mof_H 	H 	0.91657	0.61413	0.08913	0.045
Mof_C 	C 	0.89987	0.71613	0.14393	0.11
Mof_C 	C 	0.83817	0.59873	0.15511	-0.102
Mof_H 	H 	0.84017	0.55133	0.14703	0.061
Mof_C 	C 	0.97067	0.77113	0.12033	-0.465
Mof_H 	H 	0.01017	0.82223	0.13243	0.148
Mof_H 	H 	0.94867	0.78563	0.10023	0.151
Mof_H 	H 	0.99937	0.74133	0.11293	0.156
Mof_O 	O 	0.97203	0.56018	0.04462	-0.41
Mof_O 	O 	0.89092	0.51942	0.99774	-0.407
Mof_C 	C 	0.57663	0.88397	0.36126	0.347
Mof_C 	C 	0.51803	0.90607	0.37848	-0.087
Mof_C 	C 	0.53313	0.93667	0.41124	-0.025
Mof_H 	H 	0.58323	0.94747	0.42247	0.045
Mof_C 	C 	0.56653	0.04947	0.47727	0.111
Mof_C 	C 	0.50483	0.93207	0.48845	-0.102
Mof_H 	H 	0.50683	0.88467	0.48037	0.061
Mof_C 	C 	0.63733	0.10447	0.45367	-0.467
Mof_H 	H 	0.67683	0.15557	0.46577	0.149
Mof_H 	H 	0.61533	0.11897	0.43357	0.151
Mof_H 	H 	0.66603	0.07467	0.44627	0.157
Mof_O 	O 	0.63869	0.89352	0.37796	-0.41
Mof_O 	O 	0.55758	0.85276	0.33108	-0.406
Mof_C 	C 	0.974	0.7567	0.69459	0.346
Mof_C 	C 	0.0547	0.8153	0.71181	-0.086
Mof_C 	C 	0.0702	0.8002	0.74457	-0.026
Mof_H 	H 	0.0309	0.7501	0.7558	0.046
Mof_C 	C 	0.1496	0.7668	0.8106	0.111
Mof_C 	C 	0.0939	0.8285	0.82178	-0.101
Mof_H 	H 	0.0445	0.8265	0.8137	0.061
Mof_C 	C 	0.1338	0.696	0.787	-0.467
Mof_H 	H 	0.1454	0.6565	0.7991	0.149
Mof_H 	H 	0.1703	0.718	0.7669	0.151
Mof_H 	H 	0.0753	0.6673	0.7796	0.157
Mof_O 	O 	0.92149	0.69464	0.71129	-0.41
Mof_O 	O 	0.96184	0.77575	0.66441	-0.406
Mof_C 	C 	0.64067	0.09003	0.02792	0.347
Mof_C 	C 	0.72137	0.14863	0.04514	-0.087
Mof_C 	C 	0.73687	0.13353	0.0779	-0.025
Mof_H 	H 	0.69757	0.08343	0.08913	0.045
Mof_C 	C 	0.81627	0.10013	0.14393	0.11
Mof_C 	C 	0.76057	0.16183	0.15511	-0.102
Mof_H 	H 	0.71117	0.15983	0.14703	0.061
Mof_C 	C 	0.80047	0.02933	0.12033	-0.466
Mof_H 	H 	0.81207	0.98983	0.13243	0.148
Mof_H 	H 	0.83697	0.05133	0.10023	0.151
Mof_H 	H 	0.74197	0.00063	0.11293	0.156
Mof_O 	O 	0.58816	0.02797	0.04462	-0.41
Mof_O 	O 	0.62851	0.10908	0.99774	-0.407
Mof_C 	C 	0.30733	0.42337	0.36126	0.347
Mof_C 	C 	0.38803	0.48197	0.37848	-0.086
Mof_C 	C 	0.40353	0.46687	0.41124	-0.025
Mof_H 	H 	0.36423	0.41677	0.42247	0.045
Mof_C 	C 	0.48293	0.43347	0.47727	0.111
Mof_C 	C 	0.42723	0.49517	0.48845	-0.102
Mof_H 	H 	0.37783	0.49317	0.48037	0.061
Mof_C 	C 	0.46713	0.36267	0.45367	-0.467
Mof_H 	H 	0.47873	0.32317	0.46577	0.149
Mof_H 	H 	0.50363	0.38467	0.43357	0.151
Mof_H 	H 	0.40863	0.33397	0.44627	0.157
Mof_O 	O 	0.25482	0.36131	0.37796	-0.41
Mof_O 	O 	0.29517	0.44242	0.33108	-0.406
Mof_C 	C 	0.974	0.2173	0.69459	0.346
Mof_C 	C 	0.0547	0.2394	0.71181	-0.086
Mof_C 	C 	0.0702	0.27	0.74457	-0.026
Mof_H 	H 	0.0309	0.2808	0.7558	0.045
Mof_C 	C 	0.1496	0.3828	0.8106	0.111
Mof_C 	C 	0.0939	0.2654	0.82178	-0.101
Mof_H 	H 	0.0445	0.218	0.8137	0.06
Mof_C 	C 	0.1338	0.4378	0.787	-0.467
Mof_H 	H 	0.1454	0.4889	0.7991	0.149
Mof_H 	H 	0.1703	0.4523	0.7669	0.151
Mof_H 	H 	0.0753	0.408	0.7796	0.157
Mof_O 	O 	0.92149	0.22685	0.71129	-0.41
Mof_O 	O 	0.96184	0.18609	0.66441	-0.407
Mof_C 	C 	0.64067	0.55063	0.02792	0.347
Mof_C 	C 	0.72137	0.57273	0.04514	-0.087
Mof_C 	C 	0.73687	0.60333	0.0779	-0.025
Mof_H 	H 	0.69757	0.61413	0.08913	0.045
Mof_C 	C 	0.81627	0.71613	0.14393	0.111
Mof_C 	C 	0.76057	0.59873	0.15511	-0.102
Mof_H 	H 	0.71117	0.55133	0.14703	0.061
Mof_C 	C 	0.80047	0.77113	0.12033	-0.467
Mof_H 	H 	0.81207	0.82223	0.13243	0.149
Mof_H 	H 	0.83697	0.78563	0.10023	0.151
Mof_H 	H 	0.74197	0.74133	0.11293	0.157
Mof_O 	O 	0.58816	0.56018	0.04462	-0.41
Mof_O 	O 	0.62851	0.51942	0.99774	-0.407
Mof_C 	C 	0.30733	0.88397	0.36126	0.347
Mof_C 	C 	0.38803	0.90607	0.37848	-0.087
Mof_C 	C 	0.40353	0.93667	0.41124	-0.025
Mof_H 	H 	0.36423	0.94747	0.42247	0.045
Mof_C 	C 	0.48293	0.04947	0.47727	0.111
Mof_C 	C 	0.42723	0.93207	0.48845	-0.102
Mof_H 	H 	0.37783	0.88467	0.48037	0.061
Mof_C 	C 	0.46713	0.10447	0.45367	-0.467
Mof_H 	H 	0.47873	0.15557	0.46577	0.149
Mof_H 	H 	0.50363	0.11897	0.43357	0.151
Mof_H 	H 	0.40863	0.07467	0.44627	0.157
Mof_O 	O 	0.25482	0.89352	0.37796	-0.41
Mof_O 	O 	0.29517	0.85276	0.33108	-0.407
Mof_C 	C 	0.7827	0.7567	0.69459	0.347
Mof_C 	C 	0.7606	0.8153	0.71181	-0.086
Mof_C 	C 	0.73	0.8002	0.74457	-0.025
Mof_H 	H 	0.7192	0.7501	0.7558	0.045
Mof_C 	C 	0.6172	0.7668	0.8106	0.111
Mof_C 	C 	0.7346	0.8285	0.82178	-0.102
Mof_H 	H 	0.782	0.8265	0.8137	0.061
Mof_C 	C 	0.5622	0.696	0.787	-0.467
Mof_H 	H 	0.5111	0.6565	0.7991	0.149
Mof_H 	H 	0.5477	0.718	0.7669	0.151
Mof_H 	H 	0.592	0.6673	0.7796	0.157
Mof_O 	O 	0.77315	0.69464	0.71129	-0.41
Mof_O 	O 	0.81391	0.77575	0.66441	-0.406
Mof_C 	C 	0.44937	0.09003	0.02792	0.347
Mof_C 	C 	0.42727	0.14863	0.04514	-0.087
Mof_C 	C 	0.39667	0.13353	0.0779	-0.025
Mof_H 	H 	0.38587	0.08343	0.08913	0.045
Mof_C 	C 	0.28387	0.10013	0.14393	0.11
Mof_C 	C 	0.40127	0.16183	0.15511	-0.102
Mof_H 	H 	0.44867	0.15983	0.14703	0.061
Mof_C 	C 	0.22887	0.02933	0.12033	-0.465
Mof_H 	H 	0.17777	0.98983	0.13243	0.148
Mof_H 	H 	0.21437	0.05133	0.10023	0.151
Mof_H 	H 	0.25867	0.00063	0.11293	0.156
Mof_O 	O 	0.43982	0.02797	0.04462	-0.41
Mof_O 	O 	0.48058	0.10908	0.99774	-0.407
Mof_C 	C 	0.11603	0.42337	0.36126	0.347
Mof_C 	C 	0.09393	0.48197	0.37848	-0.087
Mof_C 	C 	0.06333	0.46687	0.41124	-0.025
Mof_H 	H 	0.05253	0.41677	0.42247	0.045
Mof_C 	C 	0.95053	0.43347	0.47727	0.111
Mof_C 	C 	0.06793	0.49517	0.48845	-0.102
Mof_H 	H 	0.11533	0.49317	0.48037	0.061
Mof_C 	C 	0.89553	0.36267	0.45367	-0.467
Mof_H 	H 	0.84443	0.32317	0.46577	0.149
Mof_H 	H 	0.88103	0.38467	0.43357	0.151
Mof_H 	H 	0.92533	0.33397	0.44627	0.157
Mof_O 	O 	0.10648	0.36131	0.37796	-0.41
Mof_O 	O 	0.14724	0.44242	0.33108	-0.406
Mof_C 	C 	0.2433	0.026	0.69459	0.346
Mof_C 	C 	0.1847	0.9453	0.71181	-0.086
Mof_C 	C 	0.1998	0.9298	0.74457	-0.026
Mof_H 	H 	0.2499	0.9691	0.7558	0.046
Mof_C 	C 	0.2332	0.8504	0.8106	0.111
Mof_C 	C 	0.1715	0.9061	0.82178	-0.101
Mof_H 	H 	0.1735	0.9555	0.8137	0.061
Mof_C 	C 	0.304	0.8662	0.787	-0.467
Mof_H 	H 	0.3435	0.8546	0.7991	0.149
Mof_H 	H 	0.282	0.8297	0.7669	0.151
Mof_H 	H 	0.3327	0.9247	0.7796	0.157
Mof_O 	O 	0.30536	0.07851	0.71129	-0.41
Mof_O 	O 	0.22425	0.03816	0.66441	-0.406
Mof_C 	C 	0.90997	0.35933	0.02792	0.347
Mof_C 	C 	0.85137	0.27863	0.04514	-0.087
Mof_C 	C 	0.86647	0.26313	0.0779	-0.025
Mof_H 	H 	0.91657	0.30243	0.08913	0.045
Mof_C 	C 	0.89987	0.18373	0.14393	0.11
Mof_C 	C 	0.83817	0.23943	0.15511	-0.102
Mof_H 	H 	0.84017	0.28883	0.14703	0.061
Mof_C 	C 	0.97067	0.19953	0.12033	-0.466
Mof_H 	H 	0.01017	0.18793	0.13243	0.148
Mof_H 	H 	0.94867	0.16303	0.10023	0.151
Mof_H 	H 	0.99937	0.25803	0.11293	0.156
Mof_O 	O 	0.97203	0.41184	0.04462	-0.41
Mof_O 	O 	0.89092	0.37149	0.99774	-0.407
Mof_C 	C 	0.57663	0.69267	0.36126	0.347
Mof_C 	C 	0.51803	0.61197	0.37848	-0.086
Mof_C 	C 	0.53313	0.59647	0.41124	-0.025
Mof_H 	H 	0.58323	0.63577	0.42247	0.045
Mof_C 	C 	0.56653	0.51707	0.47727	0.111
Mof_C 	C 	0.50483	0.57277	0.48845	-0.102
Mof_H 	H 	0.50683	0.62217	0.48037	0.061
Mof_C 	C 	0.63733	0.53287	0.45367	-0.467
Mof_H 	H 	0.67683	0.52127	0.46577	0.149
Mof_H 	H 	0.61533	0.49637	0.43357	0.151
Mof_H 	H 	0.66603	0.59137	0.44627	0.157
Mof_O 	O 	0.63869	0.74518	0.37796	-0.41
Mof_O 	O 	0.55758	0.70483	0.33108	-0.406
Mof_C 	C 	0.2173	0.974	0.30541	0.346
Mof_C 	C 	0.2394	0.0547	0.28819	-0.086
Mof_C 	C 	0.27	0.0702	0.25543	-0.026
Mof_H 	H 	0.2808	0.0309	0.2442	0.045
Mof_C 	C 	0.3828	0.1496	0.1894	0.111
Mof_C 	C 	0.2654	0.0939	0.17822	-0.101
Mof_H 	H 	0.218	0.0445	0.1863	0.06
Mof_C 	C 	0.4378	0.1338	0.213	-0.467
Mof_H 	H 	0.4889	0.1454	0.2009	0.149
Mof_H 	H 	0.4523	0.1703	0.2331	0.151
Mof_H 	H 	0.408	0.0753	0.2204	0.157
Mof_O 	O 	0.22685	0.92149	0.28871	-0.41
Mof_O 	O 	0.18609	0.96184	0.33559	-0.407
Mof_C 	C 	0.88397	0.30733	0.63874	0.347
Mof_C 	C 	0.90607	0.38803	0.62152	-0.087
Mof_C 	C 	0.93667	0.40353	0.58876	-0.025
Mof_H 	H 	0.94747	0.36423	0.57753	0.045
Mof_C 	C 	0.04947	0.48293	0.52273	0.111
Mof_C 	C 	0.93207	0.42723	0.51155	-0.102
Mof_H 	H 	0.88467	0.37783	0.51963	0.061
Mof_C 	C 	0.10447	0.46713	0.54633	-0.467
Mof_H 	H 	0.15557	0.47873	0.53423	0.149
Mof_H 	H 	0.11897	0.50363	0.56643	0.151
Mof_H 	H 	0.07467	0.40863	0.55373	0.157
Mof_O 	O 	0.89352	0.25482	0.62204	-0.41
Mof_O 	O 	0.85276	0.29517	0.66892	-0.407
Mof_C 	C 	0.55063	0.64067	0.97208	0.347
Mof_C 	C 	0.57273	0.72137	0.95486	-0.087
Mof_C 	C 	0.60333	0.73687	0.9221	-0.025
Mof_H 	H 	0.61413	0.69757	0.91087	0.045
Mof_C 	C 	0.71613	0.81627	0.85607	0.111
Mof_C 	C 	0.59873	0.76057	0.84489	-0.102
Mof_H 	H 	0.55133	0.71117	0.85297	0.061
Mof_C 	C 	0.77113	0.80047	0.87967	-0.467
Mof_H 	H 	0.82223	0.81207	0.86757	0.149
Mof_H 	H 	0.78563	0.83697	0.89977	0.151
Mof_H 	H 	0.74133	0.74197	0.88707	0.157
Mof_O 	O 	0.56018	0.58816	0.95538	-0.41
Mof_O 	O 	0.51942	0.62851	0.00226	-0.407
Mof_C 	C 	0.7567	0.7827	0.30541	0.347
Mof_C 	C 	0.8153	0.7606	0.28819	-0.086
Mof_C 	C 	0.8002	0.73	0.25543	-0.025
Mof_H 	H 	0.7501	0.7192	0.2442	0.045
Mof_C 	C 	0.7668	0.6172	0.1894	0.111
Mof_C 	C 	0.8285	0.7346	0.17822	-0.102
Mof_H 	H 	0.8265	0.782	0.1863	0.061
Mof_C 	C 	0.696	0.5622	0.213	-0.467
Mof_H 	H 	0.6565	0.5111	0.2009	0.149
Mof_H 	H 	0.718	0.5477	0.2331	0.151
Mof_H 	H 	0.6673	0.592	0.2204	0.157
Mof_O 	O 	0.69464	0.77315	0.28871	-0.41
Mof_O 	O 	0.77575	0.81391	0.33559	-0.406
Mof_C 	C 	0.42337	0.11603	0.63874	0.347
Mof_C 	C 	0.48197	0.09393	0.62152	-0.087
Mof_C 	C 	0.46687	0.06333	0.58876	-0.025
Mof_H 	H 	0.41677	0.05253	0.57753	0.045
Mof_C 	C 	0.43347	0.95053	0.52273	0.111
Mof_C 	C 	0.49517	0.06793	0.51155	-0.102
Mof_H 	H 	0.49317	0.11533	0.51963	0.061
Mof_C 	C 	0.36267	0.89553	0.54633	-0.467
Mof_H 	H 	0.32317	0.84443	0.53423	0.149
Mof_H 	H 	0.38467	0.88103	0.56643	0.151
Mof_H 	H 	0.33397	0.92533	0.55373	0.157
Mof_O 	O 	0.36131	0.10648	0.62204	-0.41
Mof_O 	O 	0.44242	0.14724	0.66892	-0.406
Mof_C 	C 	0.09003	0.44937	0.97208	0.347
Mof_C 	C 	0.14863	0.42727	0.95486	-0.087
Mof_C 	C 	0.13353	0.39667	0.9221	-0.025
Mof_H 	H 	0.08343	0.38587	0.91087	0.045
Mof_C 	C 	0.10013	0.28387	0.85607	0.11
Mof_C 	C 	0.16183	0.40127	0.84489	-0.102
Mof_H 	H 	0.15983	0.44867	0.85297	0.061
Mof_C 	C 	0.02933	0.22887	0.87967	-0.465
Mof_H 	H 	0.98983	0.17777	0.86757	0.148
Mof_H 	H 	0.05133	0.21437	0.89977	0.151
Mof_H 	H 	0.00063	0.25867	0.88707	0.156
Mof_O 	O 	0.02797	0.43982	0.95538	-0.41
Mof_O 	O 	0.10908	0.48058	0.00226	-0.407
Mof_C 	C 	0.026	0.2433	0.30541	0.346
Mof_C 	C 	0.9453	0.1847	0.28819	-0.086
Mof_C 	C 	0.9298	0.1998	0.25543	-0.026
Mof_H 	H 	0.9691	0.2499	0.2442	0.046
Mof_C 	C 	0.8504	0.2332	0.1894	0.111
Mof_C 	C 	0.9061	0.1715	0.17822	-0.101
Mof_H 	H 	0.9555	0.1735	0.1863	0.061
Mof_C 	C 	0.8662	0.304	0.213	-0.467
Mof_H 	H 	0.8546	0.3435	0.2009	0.149
Mof_H 	H 	0.8297	0.282	0.2331	0.151
Mof_H 	H 	0.9247	0.3327	0.2204	0.157
Mof_O 	O 	0.07851	0.30536	0.28871	-0.41
Mof_O 	O 	0.03816	0.22425	0.33559	-0.406
Mof_C 	C 	0.69267	0.57663	0.63874	0.347
Mof_C 	C 	0.61197	0.51803	0.62152	-0.086
Mof_C 	C 	0.59647	0.53313	0.58876	-0.025
Mof_H 	H 	0.63577	0.58323	0.57753	0.045
Mof_C 	C 	0.51707	0.56653	0.52273	0.111
Mof_C 	C 	0.57277	0.50483	0.51155	-0.102
Mof_H 	H 	0.62217	0.50683	0.51963	0.061
Mof_C 	C 	0.53287	0.63733	0.54633	-0.467
Mof_H 	H 	0.52127	0.67683	0.53423	0.149
Mof_H 	H 	0.49637	0.61533	0.56643	0.151
Mof_H 	H 	0.59137	0.66603	0.55373	0.157
Mof_O 	O 	0.74518	0.63869	0.62204	-0.41
Mof_O 	O 	0.70483	0.55758	0.66892	-0.406
Mof_C 	C 	0.35933	0.90997	0.97208	0.347
Mof_C 	C 	0.27863	0.85137	0.95486	-0.087
Mof_C 	C 	0.26313	0.86647	0.9221	-0.025
Mof_H 	H 	0.30243	0.91657	0.91087	0.045
Mof_C 	C 	0.18373	0.89987	0.85607	0.11
Mof_C 	C 	0.23943	0.83817	0.84489	-0.102
Mof_H 	H 	0.28883	0.84017	0.85297	0.061
Mof_C 	C 	0.19953	0.97067	0.87967	-0.466
Mof_H 	H 	0.18793	0.01017	0.86757	0.148
Mof_H 	H 	0.16303	0.94867	0.89977	0.151
Mof_H 	H 	0.25803	0.99937	0.88707	0.156
Mof_O 	O 	0.41184	0.97203	0.95538	-0.41
Mof_O 	O 	0.37149	0.89092	0.00226	-0.407
Mof_Cu	Cu	0.19098	0.80902	0.30598	0.903
Mof_Cu	Cu	0.85765	0.14235	0.63931	0.903
Mof_Cu	Cu	0.52432	0.47568	0.97264	0.903
Mof_Cu	Cu	0.19098	0.38196	0.30598	0.903
Mof_Cu	Cu	0.85765	0.7153	0.63931	0.903
Mof_Cu	Cu	0.52432	0.04863	0.97264	0.903
Mof_Cu	Cu	0.61804	0.80902	0.30598	0.903
Mof_Cu	Cu	0.2847	0.14235	0.63931	0.903
Mof_Cu	Cu	0.95137	0.47568	0.97264	0.903
Mof_Cu	Cu	0.80902	0.19098	0.69402	0.903
Mof_Cu	Cu	0.47568	0.52432	0.02736	0.903
Mof_Cu	Cu	0.14235	0.85765	0.36069	0.903
Mof_Cu	Cu	0.38196	0.19098	0.69402	0.903
Mof_Cu	Cu	0.04863	0.52432	0.02736	0.903
Mof_Cu	Cu	0.7153	0.85765	0.36069	0.903
Mof_Cu	Cu	0.80902	0.61804	0.69402	0.903
Mof_Cu	Cu	0.47568	0.95137	0.02736	0.903
Mof_Cu	Cu	0.14235	0.2847	0.36069	0.903
Mof_C 	C 	0.88845	0.7769	0.30458	0.022
Mof_H 	H 	0.89965	0.7993	0.3271	0.048
Mof_C 	C 	0.85725	0.7145	0.23815	0.002
Mof_C 	C 	0.8437	0.6874	0.20182	-0.024
Mof_C 	C 	0.55512	0.11023	0.63791	0.023
Mof_H 	H 	0.56632	0.13263	0.66043	0.048
Mof_C 	C 	0.52392	0.04783	0.57148	0.002
Mof_C 	C 	0.51037	0.02073	0.53515	-0.024
Mof_C 	C 	0.22178	0.44357	0.97125	0.023
Mof_H 	H 	0.23298	0.46597	0.99377	0.048
Mof_C 	C 	0.19058	0.38117	0.90482	0.002
Mof_C 	C 	0.17703	0.35407	0.86849	-0.024
Mof_C 	C 	0.2231	0.11155	0.30458	0.022
Mof_H 	H 	0.2007	0.10035	0.3271	0.048
Mof_C 	C 	0.2855	0.14275	0.23815	0.002
Mof_C 	C 	0.3126	0.1563	0.20182	-0.024
Mof_C 	C 	0.88977	0.44488	0.63791	0.023
Mof_H 	H 	0.86737	0.43368	0.66043	0.048
Mof_C 	C 	0.95217	0.47608	0.57148	0.002
Mof_C 	C 	0.97927	0.48963	0.53515	-0.024
Mof_C 	C 	0.55643	0.77822	0.97125	0.023
Mof_H 	H 	0.53403	0.76702	0.99377	0.048
Mof_C 	C 	0.61883	0.80942	0.90482	0.002
Mof_C 	C 	0.64593	0.82297	0.86849	-0.024
Mof_C 	C 	0.88845	0.11155	0.30458	0.022
Mof_H 	H 	0.89965	0.10035	0.3271	0.049
Mof_C 	C 	0.85725	0.14275	0.23815	0.002
Mof_C 	C 	0.8437	0.1563	0.20182	-0.024
Mof_C 	C 	0.55512	0.44488	0.63791	0.023
Mof_H 	H 	0.56632	0.43368	0.66043	0.048
Mof_C 	C 	0.52392	0.47608	0.57148	0.002
Mof_C 	C 	0.51037	0.48963	0.53515	-0.024
Mof_C 	C 	0.22178	0.77822	0.97125	0.023
Mof_H 	H 	0.23298	0.76702	0.99377	0.048
Mof_C 	C 	0.19058	0.80942	0.90482	0.002
Mof_C 	C 	0.17703	0.82297	0.86849	-0.023
Mof_C 	C 	0.7769	0.88845	0.69542	0.022
Mof_H 	H 	0.7993	0.89965	0.6729	0.048
Mof_C 	C 	0.7145	0.85725	0.76185	0.002
Mof_C 	C 	0.6874	0.8437	0.79818	-0.024
Mof_C 	C 	0.44357	0.22178	0.02875	0.023
Mof_H 	H 	0.46597	0.23298	0.00623	0.048
Mof_C 	C 	0.38117	0.19058	0.09518	0.002
Mof_C 	C 	0.35407	0.17703	0.13151	-0.024
Mof_C 	C 	0.11023	0.55512	0.36209	0.023
Mof_H 	H 	0.13263	0.56632	0.33957	0.048
Mof_C 	C 	0.04783	0.52392	0.42852	0.002
Mof_C 	C 	0.02073	0.51037	0.46485	-0.024
Mof_C 	C 	0.11155	0.2231	0.69542	0.022
Mof_H 	H 	0.10035	0.2007	0.6729	0.048
Mof_C 	C 	0.14275	0.2855	0.76185	0.002
Mof_C 	C 	0.1563	0.3126	0.79818	-0.024
Mof_C 	C 	0.77822	0.55643	0.02875	0.023
Mof_H 	H 	0.76702	0.53403	0.00623	0.048
Mof_C 	C 	0.80942	0.61883	0.09518	0.002
Mof_C 	C 	0.82297	0.64593	0.13151	-0.024
Mof_C 	C 	0.44488	0.88977	0.36209	0.023
Mof_H 	H 	0.43368	0.86737	0.33957	0.048
Mof_C 	C 	0.47608	0.95217	0.42852	0.002
Mof_C 	C 	0.48963	0.97927	0.46485	-0.024
Mof_C 	C 	0.11155	0.88845	0.69542	0.022
Mof_H 	H 	0.10035	0.89965	0.6729	0.049
Mof_C 	C 	0.14275	0.85725	0.76185	0.002
Mof_C 	C 	0.1563	0.8437	0.79818	-0.024
Mof_C 	C 	0.77822	0.22178	0.02875	0.023
Mof_H 	H 	0.76702	0.23298	0.00623	0.048
Mof_C 	C 	0.80942	0.19058	0.09518	0.002
Mof_C 	C 	0.82297	0.17703	0.13151	-0.023
Mof_C 	C 	0.44488	0.55512	0.36209	0.023
Mof_H 	H 	0.43368	0.56632	0.33957	0.048
Mof_C 	C 	0.47608	0.52392	0.42852	0.002
Mof_C 	C 	0.48963	0.51037	0.46485	-0.024
_end
