data_functionalizedCrystal
_audit_creation_method	'EQeq! by Chris Wilmer'
_symmetry_space_group_name_H-M	'P1'
_symmetry_Int_Tables_number	1
_symmetry_cell_setting	triclinic
loop_
_symmetry_equiv_pos_as_xyz
  x,y,z
_cell_length_a	18.825
_cell_length_b	8.3912
_cell_length_c	9.2901
_cell_angle_alpha	90
_cell_angle_beta	94.064
_cell_angle_gamma	90
loop_
_atom_site_label
_atom_site_type_symbol
_atom_site_fract_x
_atom_site_fract_y
_atom_site_fract_z
_atom_site_charge
Mof_O 	O 	0.58045	0.5111	0.32625	-0.358
Mof_O 	O 	0.54913	0.6635	0.5495	-0.36
Mof_O 	O 	0.61634	0.4017	0.5684	-0.481
Mof_H 	H 	0.6067	0.4158	0.6522	0.287
Mof_P 	P 	0.60214	0.56056	0.47953	0.465
Mof_C 	C 	0.75035	0.436	0.3617	-0.778
Mof_H 	H 	0.7981	0.414	0.3373	0.265
Mof_H 	H 	0.719	0.436	0.2755	0.267
Mof_H 	H 	0.7354	0.3554	0.4265	0.263
Mof_C 	C 	0.74803	0.597	0.4336	0.246
Mof_C 	C 	0.68631	0.6641	0.4849	-0.137
Mof_C 	C 	0.68966	0.8142	0.5494	-0.141
Mof_H 	H 	0.6482	0.8568	0.5826	0.07
Mof_O 	O 	0.08045	0.0111	0.32625	-0.364
Mof_O 	O 	0.04913	0.1635	0.5495	-0.374
Mof_O 	O 	0.11634	0.9017	0.5684	-0.487
Mof_H 	H 	0.1067	0.9158	0.6522	0.283
Mof_P 	P 	0.10214	0.06056	0.47953	0.458
Mof_C 	C 	0.25035	0.936	0.3617	-0.76
Mof_H 	H 	0.2981	0.914	0.3373	0.254
Mof_H 	H 	0.219	0.936	0.2755	0.262
Mof_H 	H 	0.2354	0.8554	0.4265	0.257
Mof_C 	C 	0.24803	0.097	0.4336	0.235
Mof_C 	C 	0.18631	0.1641	0.4849	-0.133
Mof_C 	C 	0.18966	0.3142	0.5494	-0.143
Mof_H 	H 	0.1482	0.3568	0.5826	0.067
Mof_O 	O 	0.41955	0.5111	0.17375	-0.359
Mof_O 	O 	0.45087	0.6635	0.9505	-0.364
Mof_O 	O 	0.38366	0.4017	0.9316	-0.485
Mof_H 	H 	0.3933	0.4158	0.8478	0.287
Mof_P 	P 	0.39786	0.56056	0.02047	0.467
Mof_C 	C 	0.24965	0.436	0.1383	-0.744
Mof_H 	H 	0.2019	0.414	0.1627	0.246
Mof_H 	H 	0.281	0.436	0.2245	0.256
Mof_H 	H 	0.2646	0.3554	0.0735	0.252
Mof_C 	C 	0.25197	0.597	0.0664	0.224
Mof_C 	C 	0.31369	0.6641	0.0151	-0.123
Mof_C 	C 	0.31034	0.8142	0.9506	-0.156
Mof_H 	H 	0.3518	0.8568	0.9174	0.075
Mof_O 	O 	0.91955	0.0111	0.17375	-0.315
Mof_O 	O 	0.95087	0.1635	0.9505	-0.301
Mof_O 	O 	0.88366	0.9017	0.9316	-0.466
Mof_H 	H 	0.8933	0.9158	0.8478	0.292
Mof_P 	P 	0.89786	0.06056	0.02047	0.461
Mof_C 	C 	0.74965	0.936	0.1383	-0.752
Mof_H 	H 	0.7019	0.914	0.1627	0.251
Mof_H 	H 	0.781	0.936	0.2245	0.26
Mof_H 	H 	0.7646	0.8554	0.0735	0.257
Mof_C 	C 	0.75197	0.097	0.0664	0.226
Mof_C 	C 	0.81369	0.1641	0.0151	-0.12
Mof_C 	C 	0.81034	0.3142	0.9506	-0.159
Mof_H 	H 	0.8518	0.3568	0.9174	0.088
Mof_O 	O 	0.41955	0.4889	0.67375	-0.359
Mof_O 	O 	0.45087	0.3365	0.4505	-0.361
Mof_O 	O 	0.38366	0.5983	0.4316	-0.482
Mof_H 	H 	0.3933	0.5842	0.3478	0.286
Mof_P 	P 	0.39786	0.43944	0.52047	0.464
Mof_C 	C 	0.24965	0.564	0.6383	-0.747
Mof_H 	H 	0.2019	0.586	0.6627	0.246
Mof_H 	H 	0.281	0.564	0.7245	0.256
Mof_H 	H 	0.2646	0.6446	0.5735	0.252
Mof_C 	C 	0.25197	0.403	0.5664	0.228
Mof_C 	C 	0.31369	0.3359	0.5151	-0.129
Mof_C 	C 	0.31034	0.1858	0.4506	-0.148
Mof_H 	H 	0.3518	0.1432	0.4174	0.073
Mof_O 	O 	0.91955	0.9889	0.67375	-0.315
Mof_O 	O 	0.95087	0.8365	0.4505	-0.301
Mof_O 	O 	0.88366	0.0983	0.4316	-0.464
Mof_H 	H 	0.8933	0.0842	0.3478	0.291
Mof_P 	P 	0.89786	0.93944	0.52047	0.461
Mof_C 	C 	0.74965	0.064	0.6383	-0.755
Mof_H 	H 	0.7019	0.086	0.6627	0.252
Mof_H 	H 	0.781	0.064	0.7245	0.261
Mof_H 	H 	0.7646	0.1446	0.5735	0.257
Mof_C 	C 	0.75197	0.903	0.5664	0.228
Mof_C 	C 	0.81369	0.8359	0.5151	-0.122
Mof_C 	C 	0.81034	0.6858	0.4506	-0.156
Mof_H 	H 	0.8518	0.6432	0.4174	0.087
Mof_O 	O 	0.58045	0.4889	0.82625	-0.359
Mof_O 	O 	0.54913	0.3365	0.0495	-0.36
Mof_O 	O 	0.61634	0.5983	0.0684	-0.48
Mof_H 	H 	0.6067	0.5842	0.1522	0.286
Mof_P 	P 	0.60214	0.43944	0.97953	0.463
Mof_C 	C 	0.75035	0.564	0.8617	-0.778
Mof_H 	H 	0.7981	0.586	0.8373	0.265
Mof_H 	H 	0.719	0.564	0.7755	0.267
Mof_H 	H 	0.7354	0.6446	0.9265	0.263
Mof_C 	C 	0.74803	0.403	0.9336	0.247
Mof_C 	C 	0.68631	0.3359	0.9849	-0.14
Mof_C 	C 	0.68966	0.1858	0.0494	-0.137
Mof_H 	H 	0.6482	0.1432	0.0826	0.069
Mof_O 	O 	0.08045	0.9889	0.82625	-0.364
Mof_O 	O 	0.04913	0.8365	0.0495	-0.37
Mof_O 	O 	0.11634	0.0983	0.0684	-0.483
Mof_H 	H 	0.1067	0.0842	0.1522	0.282
Mof_P 	P 	0.10214	0.93944	0.97953	0.453
Mof_C 	C 	0.25035	0.064	0.8617	-0.762
Mof_H 	H 	0.2981	0.086	0.8373	0.254
Mof_H 	H 	0.219	0.064	0.7755	0.262
Mof_H 	H 	0.2354	0.1446	0.9265	0.256
Mof_C 	C 	0.24803	0.903	0.9336	0.238
Mof_C 	C 	0.18631	0.8359	0.9849	-0.14
Mof_C 	C 	0.18966	0.6858	0.0494	-0.135
Mof_H 	H 	0.1482	0.6432	0.0826	0.065
Mof_Mn	Mn	0.5	0.33867	0.25	0.827
Mof_Mn	Mn	4.95364e-34	0.83867	0.25	0.712
Mof_Mn	Mn	0.5	0.66133	0.75	0.826
Mof_Mn	Mn	1.48609e-33	0.16133	0.75	0.709
_end
