data_functionalizedCrystal
_audit_creation_method	'EQeq! by Chris Wilmer'
_symmetry_space_group_name_H-M	'P1'
_symmetry_Int_Tables_number	1
_symmetry_cell_setting	triclinic
loop_
_symmetry_equiv_pos_as_xyz
  x,y,z
_cell_length_a	15.158
_cell_length_b	22.565
_cell_length_c	34.411
_cell_angle_alpha	90
_cell_angle_beta	90
_cell_angle_gamma	90
loop_
_atom_site_label
_atom_site_type_symbol
_atom_site_fract_x
_atom_site_fract_y
_atom_site_fract_z
_atom_site_charge
Mof_O 	O 	0.3907	0.4446	0.53204	-0.557
Mof_O 	O 	0.2576	0.4155	0.54429	-0.496
Mof_O 	O 	0.3973	0.306	0.6257	-0.488
Mof_O 	O 	0.2628	0.3321	0.61097	-0.501
Mof_C 	C 	0.3172	0.3056	0.6332	0.295
Mof_C 	C 	0.2793	0.2827	0.6713	-0.02
Mof_C 	C 	0.1992	0.2932	0.684	-0.066
Mof_C 	C 	0.3396	0.2431	0.6927	-0.064
Mof_H 	H 	0.1613	0.3165	0.6693	0.052
Mof_C 	C 	0.1703	0.2702	0.7191	0.019
Mof_C 	C 	0.3082	0.2175	0.7262	0.02
Mof_H 	H 	0.3966	0.2358	0.6839	0.033
Mof_C 	C 	0.223	0.2306	0.7392	-0.079
Mof_N 	N 	0.0879	0.2872	0.7301	-0.2
Mof_H 	H 	0.3436	0.1914	0.7402	0.022
Mof_C 	C 	0.1896	0.1947	0.7734	0.353
Mof_H 	H 	0.065	0.2731	0.751	0.11
Mof_H 	H 	0.0588	0.3121	0.7162	0.114
Mof_C 	C 	0.2122	0.519	0.4174	0.011
Mof_H 	H 	0.1001	0.492	0.4378	0.032
Mof_H 	H 	0.1519	0.4509	0.4936	0.017
Mof_N 	N 	0.4295	0.5032	0.4647	-0.224
Mof_H 	H 	0.4604	0.5213	0.4475	0.114
Mof_H 	H 	0.4548	0.4884	0.4849	0.118
Mof_C 	C 	0.3383	0.4978	0.46	0.133
Mof_C 	C 	0.3041	0.5229	0.4267	-0.036
Mof_H 	H 	0.3417	0.5429	0.4099	0.044
Mof_C 	C 	0.2817	0.4655	0.485	-0.037
Mof_O 	O 	0.3907	0.9446	0.03204	-0.556
Mof_O 	O 	0.2576	0.9155	0.04429	-0.495
Mof_O 	O 	0.3973	0.806	0.1257	-0.487
Mof_O 	O 	0.2628	0.8321	0.11097	-0.5
Mof_C 	C 	0.3172	0.8056	0.1332	0.296
Mof_C 	C 	0.2793	0.7827	0.1713	-0.019
Mof_C 	C 	0.1992	0.7932	0.184	-0.065
Mof_C 	C 	0.3396	0.7431	0.1927	-0.063
Mof_H 	H 	0.1613	0.8165	0.1693	0.053
Mof_C 	C 	0.1703	0.7702	0.2191	0.02
Mof_C 	C 	0.3082	0.7175	0.2262	0.021
Mof_H 	H 	0.3966	0.7358	0.1839	0.034
Mof_C 	C 	0.223	0.7306	0.2392	-0.078
Mof_N 	N 	0.0879	0.7872	0.2301	-0.198
Mof_H 	H 	0.3436	0.6914	0.2402	0.023
Mof_C 	C 	0.1896	0.6947	0.2734	0.354
Mof_H 	H 	0.065	0.7731	0.251	0.111
Mof_H 	H 	0.0588	0.8121	0.2162	0.115
Mof_C 	C 	0.2122	0.019	0.9174	0.013
Mof_H 	H 	0.1001	0.992	0.9378	0.033
Mof_H 	H 	0.1519	0.9509	0.9936	0.017
Mof_N 	N 	0.4295	0.0032	0.9647	-0.224
Mof_H 	H 	0.4604	0.0213	0.9475	0.115
Mof_H 	H 	0.4548	0.9884	0.9849	0.119
Mof_C 	C 	0.3383	0.9978	0.96	0.14
Mof_C 	C 	0.3041	0.0229	0.9267	-0.033
Mof_H 	H 	0.3417	0.0429	0.9099	0.043
Mof_C 	C 	0.2817	0.9655	0.985	-0.036
Mof_O 	O 	0.8907	0.4446	0.03204	-0.556
Mof_O 	O 	0.7576	0.4155	0.04429	-0.495
Mof_O 	O 	0.8973	0.306	0.1257	-0.487
Mof_O 	O 	0.7628	0.3321	0.11097	-0.5
Mof_C 	C 	0.8172	0.3056	0.1332	0.296
Mof_C 	C 	0.7793	0.2827	0.1713	-0.019
Mof_C 	C 	0.6992	0.2932	0.184	-0.065
Mof_C 	C 	0.8396	0.2431	0.1927	-0.063
Mof_H 	H 	0.6613	0.3165	0.1693	0.053
Mof_C 	C 	0.6703	0.2702	0.2191	0.019
Mof_C 	C 	0.8082	0.2175	0.2262	0.021
Mof_H 	H 	0.8966	0.2358	0.1839	0.034
Mof_C 	C 	0.723	0.2306	0.2392	-0.078
Mof_N 	N 	0.5879	0.2872	0.2301	-0.198
Mof_H 	H 	0.8436	0.1914	0.2402	0.023
Mof_C 	C 	0.6896	0.1947	0.2734	0.354
Mof_H 	H 	0.565	0.2731	0.251	0.111
Mof_H 	H 	0.5588	0.3121	0.2162	0.115
Mof_C 	C 	0.7122	0.519	0.9174	0.012
Mof_H 	H 	0.6001	0.492	0.9378	0.033
Mof_H 	H 	0.6519	0.4509	0.9936	0.018
Mof_N 	N 	0.9295	0.5032	0.9647	-0.223
Mof_H 	H 	0.9604	0.5213	0.9475	0.114
Mof_H 	H 	0.9548	0.4884	0.9849	0.118
Mof_C 	C 	0.8383	0.4978	0.96	0.133
Mof_C 	C 	0.8041	0.5229	0.9267	-0.036
Mof_H 	H 	0.8417	0.5429	0.9099	0.044
Mof_C 	C 	0.7817	0.4655	0.985	-0.037
Mof_O 	O 	0.8907	0.9446	0.53204	-0.556
Mof_O 	O 	0.7576	0.9155	0.54429	-0.495
Mof_O 	O 	0.8973	0.806	0.6257	-0.487
Mof_O 	O 	0.7628	0.8321	0.61097	-0.5
Mof_C 	C 	0.8172	0.8056	0.6332	0.296
Mof_C 	C 	0.7793	0.7827	0.6713	-0.019
Mof_C 	C 	0.6992	0.7932	0.684	-0.065
Mof_C 	C 	0.8396	0.7431	0.6927	-0.063
Mof_H 	H 	0.6613	0.8165	0.6693	0.053
Mof_C 	C 	0.6703	0.7702	0.7191	0.02
Mof_C 	C 	0.8082	0.7175	0.7262	0.021
Mof_H 	H 	0.8966	0.7358	0.6839	0.034
Mof_C 	C 	0.723	0.7306	0.7392	-0.078
Mof_N 	N 	0.5879	0.7872	0.7301	-0.199
Mof_H 	H 	0.8436	0.6914	0.7402	0.023
Mof_C 	C 	0.6896	0.6947	0.7734	0.354
Mof_H 	H 	0.565	0.7731	0.751	0.111
Mof_H 	H 	0.5588	0.8121	0.7162	0.115
Mof_C 	C 	0.7122	0.019	0.4174	0.012
Mof_H 	H 	0.6001	0.992	0.4378	0.033
Mof_H 	H 	0.6519	0.9509	0.4936	0.018
Mof_N 	N 	0.9295	0.0032	0.4647	-0.222
Mof_H 	H 	0.9604	0.0213	0.4475	0.114
Mof_H 	H 	0.9548	0.9884	0.4849	0.118
Mof_C 	C 	0.8383	0.9978	0.46	0.132
Mof_C 	C 	0.8041	0.0229	0.4267	-0.036
Mof_H 	H 	0.8417	0.0429	0.4099	0.045
Mof_C 	C 	0.7817	0.9655	0.485	-0.037
Mof_O 	O 	0.3593	0.3054	0.53204	-0.556
Mof_O 	O 	0.4924	0.3345	0.54429	-0.495
Mof_O 	O 	0.3527	0.444	0.6257	-0.487
Mof_O 	O 	0.4872	0.4179	0.61097	-0.5
Mof_C 	C 	0.4328	0.4444	0.6332	0.296
Mof_C 	C 	0.4707	0.4673	0.6713	-0.019
Mof_C 	C 	0.5508	0.4568	0.684	-0.065
Mof_C 	C 	0.4104	0.5069	0.6927	-0.063
Mof_H 	H 	0.5887	0.4335	0.6693	0.053
Mof_C 	C 	0.5797	0.4798	0.7191	0.02
Mof_C 	C 	0.4418	0.5325	0.7262	0.021
Mof_H 	H 	0.3534	0.5142	0.6839	0.034
Mof_C 	C 	0.527	0.5194	0.7392	-0.078
Mof_N 	N 	0.6621	0.4628	0.7301	-0.198
Mof_H 	H 	0.4064	0.5586	0.7402	0.023
Mof_C 	C 	0.5604	0.5553	0.7734	0.354
Mof_H 	H 	0.685	0.4769	0.751	0.111
Mof_H 	H 	0.6912	0.4379	0.7162	0.115
Mof_C 	C 	0.5378	0.231	0.4174	0.012
Mof_H 	H 	0.6499	0.258	0.4378	0.033
Mof_H 	H 	0.5981	0.2991	0.4936	0.018
Mof_N 	N 	0.3205	0.2468	0.4647	-0.223
Mof_H 	H 	0.2896	0.2287	0.4475	0.115
Mof_H 	H 	0.2952	0.2616	0.4849	0.119
Mof_C 	C 	0.4117	0.2522	0.46	0.133
Mof_C 	C 	0.4459	0.2271	0.4267	-0.036
Mof_H 	H 	0.4083	0.2071	0.4099	0.044
Mof_C 	C 	0.4683	0.2845	0.485	-0.037
Mof_O 	O 	0.3593	0.8054	0.03204	-0.556
Mof_O 	O 	0.4924	0.8345	0.04429	-0.495
Mof_O 	O 	0.3527	0.944	0.1257	-0.487
Mof_O 	O 	0.4872	0.9179	0.11097	-0.5
Mof_C 	C 	0.4328	0.9444	0.1332	0.296
Mof_C 	C 	0.4707	0.9673	0.1713	-0.019
Mof_C 	C 	0.5508	0.9568	0.184	-0.067
Mof_C 	C 	0.4104	0.0069	0.1927	-0.064
Mof_H 	H 	0.5887	0.9335	0.1693	0.054
Mof_C 	C 	0.5797	0.9798	0.2191	0.015
Mof_C 	C 	0.4418	0.0325	0.2262	0.021
Mof_H 	H 	0.3534	0.0142	0.1839	0.034
Mof_C 	C 	0.527	0.0194	0.2392	-0.079
Mof_N 	N 	0.6621	0.9628	0.2301	-0.197
Mof_H 	H 	0.4064	0.0586	0.2402	0.023
Mof_C 	C 	0.5604	0.0553	0.2734	0.354
Mof_H 	H 	0.685	0.9769	0.251	0.111
Mof_H 	H 	0.6912	0.9379	0.2162	0.115
Mof_C 	C 	0.5378	0.731	0.9174	0.012
Mof_H 	H 	0.6499	0.758	0.9378	0.033
Mof_H 	H 	0.5981	0.7991	0.9936	0.018
Mof_N 	N 	0.3205	0.7468	0.9647	-0.223
Mof_H 	H 	0.2896	0.7287	0.9475	0.115
Mof_H 	H 	0.2952	0.7616	0.9849	0.118
Mof_C 	C 	0.4117	0.7522	0.96	0.134
Mof_C 	C 	0.4459	0.7271	0.9267	-0.035
Mof_H 	H 	0.4083	0.7071	0.9099	0.044
Mof_C 	C 	0.4683	0.7845	0.985	-0.037
Mof_O 	O 	0.8593	0.3054	0.03204	-0.556
Mof_O 	O 	0.9924	0.3345	0.04429	-0.496
Mof_O 	O 	0.8527	0.444	0.1257	-0.487
Mof_O 	O 	0.9872	0.4179	0.11097	-0.5
Mof_C 	C 	0.9328	0.4444	0.1332	0.296
Mof_C 	C 	0.9707	0.4673	0.1713	-0.019
Mof_C 	C 	0.0508	0.4568	0.184	-0.065
Mof_C 	C 	0.9104	0.5069	0.1927	-0.063
Mof_H 	H 	0.0887	0.4335	0.1693	0.053
Mof_C 	C 	0.0797	0.4798	0.2191	0.02
Mof_C 	C 	0.9418	0.5325	0.2262	0.021
Mof_H 	H 	0.8534	0.5142	0.1839	0.034
Mof_C 	C 	0.027	0.5194	0.2392	-0.078
Mof_N 	N 	0.1621	0.4628	0.2301	-0.199
Mof_H 	H 	0.9064	0.5586	0.2402	0.023
Mof_C 	C 	0.0604	0.5553	0.2734	0.354
Mof_H 	H 	0.185	0.4769	0.251	0.111
Mof_H 	H 	0.1912	0.4379	0.2162	0.115
Mof_C 	C 	0.0378	0.231	0.9174	0.012
Mof_H 	H 	0.1499	0.258	0.9378	0.033
Mof_H 	H 	0.0981	0.2991	0.9936	0.018
Mof_N 	N 	0.8205	0.2468	0.9647	-0.223
Mof_H 	H 	0.7896	0.2287	0.9475	0.115
Mof_H 	H 	0.7952	0.2616	0.9849	0.119
Mof_C 	C 	0.9117	0.2522	0.96	0.132
Mof_C 	C 	0.9459	0.2271	0.9267	-0.036
Mof_H 	H 	0.9083	0.2071	0.9099	0.045
Mof_C 	C 	0.9683	0.2845	0.985	-0.037
Mof_O 	O 	0.8593	0.8054	0.53204	-0.556
Mof_O 	O 	0.9924	0.8345	0.54429	-0.496
Mof_O 	O 	0.8527	0.944	0.6257	-0.487
Mof_O 	O 	0.9872	0.9179	0.61097	-0.5
Mof_C 	C 	0.9328	0.9444	0.6332	0.296
Mof_C 	C 	0.9707	0.9673	0.6713	-0.019
Mof_C 	C 	0.0508	0.9568	0.684	-0.064
Mof_C 	C 	0.9104	0.0069	0.6927	-0.063
Mof_H 	H 	0.0887	0.9335	0.6693	0.052
Mof_C 	C 	0.0797	0.9798	0.7191	0.024
Mof_C 	C 	0.9418	0.0325	0.7262	0.021
Mof_H 	H 	0.8534	0.0142	0.6839	0.034
Mof_C 	C 	0.027	0.0194	0.7392	-0.077
Mof_N 	N 	0.1621	0.9628	0.7301	-0.199
Mof_H 	H 	0.9064	0.0586	0.7402	0.023
Mof_C 	C 	0.0604	0.0553	0.7734	0.354
Mof_H 	H 	0.185	0.9769	0.751	0.111
Mof_H 	H 	0.1912	0.9379	0.7162	0.115
Mof_C 	C 	0.0378	0.731	0.4174	0.012
Mof_H 	H 	0.1499	0.758	0.4378	0.033
Mof_H 	H 	0.0981	0.7991	0.4936	0.018
Mof_N 	N 	0.8205	0.7468	0.4647	-0.222
Mof_H 	H 	0.7896	0.7287	0.4475	0.115
Mof_H 	H 	0.7952	0.7616	0.4849	0.118
Mof_C 	C 	0.9117	0.7522	0.46	0.132
Mof_C 	C 	0.9459	0.7271	0.4267	-0.036
Mof_H 	H 	0.9083	0.7071	0.4099	0.045
Mof_C 	C 	0.9683	0.7845	0.485	-0.037
Mof_O 	O 	0.6407	0.5554	0.78204	-0.556
Mof_O 	O 	0.5076	0.5845	0.79429	-0.495
Mof_O 	O 	0.6473	0.694	0.8757	-0.487
Mof_O 	O 	0.5128	0.6679	0.86097	-0.5
Mof_C 	C 	0.5672	0.6944	0.8832	0.296
Mof_C 	C 	0.5293	0.7173	0.9213	-0.019
Mof_C 	C 	0.4492	0.7068	0.934	-0.066
Mof_C 	C 	0.5896	0.7569	0.9427	-0.063
Mof_H 	H 	0.4113	0.6835	0.9193	0.053
Mof_C 	C 	0.4203	0.7298	0.9691	0.019
Mof_C 	C 	0.5582	0.7825	0.9762	0.021
Mof_H 	H 	0.6466	0.7642	0.9339	0.034
Mof_C 	C 	0.473	0.7694	0.9892	-0.078
Mof_N 	N 	0.3379	0.7128	0.9801	-0.198
Mof_H 	H 	0.5936	0.8086	0.9902	0.023
Mof_C 	C 	0.4396	0.8053	0.0234	0.354
Mof_H 	H 	0.315	0.7269	0.001	0.111
Mof_H 	H 	0.3088	0.6879	0.9662	0.115
Mof_C 	C 	0.4622	0.481	0.6674	0.012
Mof_H 	H 	0.3501	0.508	0.6878	0.033
Mof_H 	H 	0.4019	0.5491	0.7436	0.018
Mof_N 	N 	0.6795	0.4968	0.7147	-0.223
Mof_H 	H 	0.7104	0.4787	0.6975	0.115
Mof_H 	H 	0.7048	0.5116	0.7349	0.119
Mof_C 	C 	0.5883	0.5022	0.71	0.133
Mof_C 	C 	0.5541	0.4771	0.6767	-0.036
Mof_H 	H 	0.5917	0.4571	0.6599	0.044
Mof_C 	C 	0.5317	0.5345	0.735	-0.037
Mof_O 	O 	0.6407	0.0554	0.28204	-0.556
Mof_O 	O 	0.5076	0.0845	0.29429	-0.495
Mof_O 	O 	0.6473	0.194	0.3757	-0.487
Mof_O 	O 	0.5128	0.1679	0.36097	-0.5
Mof_C 	C 	0.5672	0.1944	0.3832	0.296
Mof_C 	C 	0.5293	0.2173	0.4213	-0.019
Mof_C 	C 	0.4492	0.2068	0.434	-0.065
Mof_C 	C 	0.5896	0.2569	0.4427	-0.063
Mof_H 	H 	0.4113	0.1835	0.4193	0.053
Mof_C 	C 	0.4203	0.2298	0.4691	0.02
Mof_C 	C 	0.5582	0.2825	0.4762	0.021
Mof_H 	H 	0.6466	0.2642	0.4339	0.034
Mof_C 	C 	0.473	0.2694	0.4892	-0.078
Mof_N 	N 	0.3379	0.2128	0.4801	-0.198
Mof_H 	H 	0.5936	0.3086	0.4902	0.023
Mof_C 	C 	0.4396	0.3053	0.5234	0.354
Mof_H 	H 	0.315	0.2269	0.501	0.111
Mof_H 	H 	0.3088	0.1879	0.4662	0.115
Mof_C 	C 	0.4622	0.981	0.1674	0.012
Mof_H 	H 	0.3501	0.008	0.1878	0.033
Mof_H 	H 	0.4019	0.0491	0.2436	0.018
Mof_N 	N 	0.6795	0.9968	0.2147	-0.223
Mof_H 	H 	0.7104	0.9787	0.1975	0.115
Mof_H 	H 	0.7048	0.0116	0.2349	0.119
Mof_C 	C 	0.5883	0.0022	0.21	0.138
Mof_C 	C 	0.5541	0.9771	0.1767	-0.034
Mof_H 	H 	0.5917	0.9571	0.1599	0.043
Mof_C 	C 	0.5317	0.0345	0.235	-0.036
Mof_O 	O 	0.1407	0.5554	0.28204	-0.556
Mof_O 	O 	0.0076	0.5845	0.29429	-0.496
Mof_O 	O 	0.1473	0.694	0.3757	-0.487
Mof_O 	O 	0.0128	0.6679	0.36097	-0.5
Mof_C 	C 	0.0672	0.6944	0.3832	0.296
Mof_C 	C 	0.0293	0.7173	0.4213	-0.019
Mof_C 	C 	0.9492	0.7068	0.434	-0.065
Mof_C 	C 	0.0896	0.7569	0.4427	-0.063
Mof_H 	H 	0.9113	0.6835	0.4193	0.053
Mof_C 	C 	0.9203	0.7298	0.4691	0.02
Mof_C 	C 	0.0582	0.7825	0.4762	0.021
Mof_H 	H 	0.1466	0.7642	0.4339	0.034
Mof_C 	C 	0.973	0.7694	0.4892	-0.078
Mof_N 	N 	0.8379	0.7128	0.4801	-0.199
Mof_H 	H 	0.0936	0.8086	0.4902	0.023
Mof_C 	C 	0.9396	0.8053	0.5234	0.354
Mof_H 	H 	0.815	0.7269	0.501	0.111
Mof_H 	H 	0.8088	0.6879	0.4662	0.115
Mof_C 	C 	0.9622	0.481	0.1674	0.012
Mof_H 	H 	0.8501	0.508	0.1878	0.033
Mof_H 	H 	0.9019	0.5491	0.2436	0.018
Mof_N 	N 	0.1795	0.4968	0.2147	-0.222
Mof_H 	H 	0.2104	0.4787	0.1975	0.115
Mof_H 	H 	0.2048	0.5116	0.2349	0.118
Mof_C 	C 	0.0883	0.5022	0.21	0.132
Mof_C 	C 	0.0541	0.4771	0.1767	-0.036
Mof_H 	H 	0.0917	0.4571	0.1599	0.045
Mof_C 	C 	0.0317	0.5345	0.235	-0.037
Mof_O 	O 	0.1407	0.0554	0.78204	-0.556
Mof_O 	O 	0.0076	0.0845	0.79429	-0.496
Mof_O 	O 	0.1473	0.194	0.8757	-0.487
Mof_O 	O 	0.0128	0.1679	0.86097	-0.5
Mof_C 	C 	0.0672	0.1944	0.8832	0.296
Mof_C 	C 	0.0293	0.2173	0.9213	-0.019
Mof_C 	C 	0.9492	0.2068	0.934	-0.065
Mof_C 	C 	0.0896	0.2569	0.9427	-0.063
Mof_H 	H 	0.9113	0.1835	0.9193	0.053
Mof_C 	C 	0.9203	0.2298	0.9691	0.02
Mof_C 	C 	0.0582	0.2825	0.9762	0.021
Mof_H 	H 	0.1466	0.2642	0.9339	0.034
Mof_C 	C 	0.973	0.2694	0.9892	-0.078
Mof_N 	N 	0.8379	0.2128	0.9801	-0.198
Mof_H 	H 	0.0936	0.3086	0.9902	0.023
Mof_C 	C 	0.9396	0.3053	0.0234	0.354
Mof_H 	H 	0.815	0.2269	0.001	0.11
Mof_H 	H 	0.8088	0.1879	0.9662	0.115
Mof_C 	C 	0.9622	0.981	0.6674	0.012
Mof_H 	H 	0.8501	0.008	0.6878	0.033
Mof_H 	H 	0.9019	0.0491	0.7436	0.018
Mof_N 	N 	0.1795	0.9968	0.7147	-0.222
Mof_H 	H 	0.2104	0.9787	0.6975	0.114
Mof_H 	H 	0.2048	0.0116	0.7349	0.118
Mof_C 	C 	0.0883	0.0022	0.71	0.129
Mof_C 	C 	0.0541	0.9771	0.6767	-0.037
Mof_H 	H 	0.0917	0.9571	0.6599	0.045
Mof_C 	C 	0.0317	0.0345	0.735	-0.038
Mof_O 	O 	0.6093	0.6946	0.78204	-0.556
Mof_O 	O 	0.7424	0.6655	0.79429	-0.495
Mof_O 	O 	0.6027	0.556	0.8757	-0.487
Mof_O 	O 	0.7372	0.5821	0.86097	-0.5
Mof_C 	C 	0.6828	0.5556	0.8832	0.296
Mof_C 	C 	0.7207	0.5327	0.9213	-0.019
Mof_C 	C 	0.8008	0.5432	0.934	-0.065
Mof_C 	C 	0.6604	0.4931	0.9427	-0.063
Mof_H 	H 	0.8387	0.5665	0.9193	0.053
Mof_C 	C 	0.8297	0.5202	0.9691	0.02
Mof_C 	C 	0.6918	0.4675	0.9762	0.021
Mof_H 	H 	0.6034	0.4858	0.9339	0.034
Mof_C 	C 	0.777	0.4806	0.9892	-0.078
Mof_N 	N 	0.9121	0.5372	0.9801	-0.198
Mof_H 	H 	0.6564	0.4414	0.9902	0.023
Mof_C 	C 	0.8104	0.4447	0.0234	0.354
Mof_H 	H 	0.935	0.5231	0.001	0.111
Mof_H 	H 	0.9412	0.5621	0.9662	0.115
Mof_C 	C 	0.7878	0.769	0.6674	0.012
Mof_H 	H 	0.8999	0.742	0.6878	0.033
Mof_H 	H 	0.8481	0.7009	0.7436	0.018
Mof_N 	N 	0.5705	0.7532	0.7147	-0.222
Mof_H 	H 	0.5396	0.7713	0.6975	0.115
Mof_H 	H 	0.5452	0.7384	0.7349	0.119
Mof_C 	C 	0.6617	0.7478	0.71	0.132
Mof_C 	C 	0.6959	0.7729	0.6767	-0.036
Mof_H 	H 	0.6583	0.7929	0.6599	0.045
Mof_C 	C 	0.7183	0.7155	0.735	-0.037
Mof_O 	O 	0.6093	0.1946	0.28204	-0.556
Mof_O 	O 	0.7424	0.1655	0.29429	-0.495
Mof_O 	O 	0.6027	0.056	0.3757	-0.487
Mof_O 	O 	0.7372	0.0821	0.36097	-0.5
Mof_C 	C 	0.6828	0.0556	0.3832	0.296
Mof_C 	C 	0.7207	0.0327	0.4213	-0.019
Mof_C 	C 	0.8008	0.0432	0.434	-0.065
Mof_C 	C 	0.6604	0.9931	0.4427	-0.063
Mof_H 	H 	0.8387	0.0665	0.4193	0.053
Mof_C 	C 	0.8297	0.0202	0.4691	0.02
Mof_C 	C 	0.6918	0.9675	0.4762	0.021
Mof_H 	H 	0.6034	0.9858	0.4339	0.034
Mof_C 	C 	0.777	0.9806	0.4892	-0.078
Mof_N 	N 	0.9121	0.0372	0.4801	-0.199
Mof_H 	H 	0.6564	0.9414	0.4902	0.023
Mof_C 	C 	0.8104	0.9447	0.5234	0.354
Mof_H 	H 	0.935	0.0231	0.501	0.111
Mof_H 	H 	0.9412	0.0621	0.4662	0.115
Mof_C 	C 	0.7878	0.269	0.1674	0.012
Mof_H 	H 	0.8999	0.242	0.1878	0.033
Mof_H 	H 	0.8481	0.2009	0.2436	0.018
Mof_N 	N 	0.5705	0.2532	0.2147	-0.223
Mof_H 	H 	0.5396	0.2713	0.1975	0.115
Mof_H 	H 	0.5452	0.2384	0.2349	0.119
Mof_C 	C 	0.6617	0.2478	0.21	0.133
Mof_C 	C 	0.6959	0.2729	0.1767	-0.035
Mof_H 	H 	0.6583	0.2929	0.1599	0.044
Mof_C 	C 	0.7183	0.2155	0.235	-0.037
Mof_O 	O 	0.1093	0.6946	0.28204	-0.556
Mof_O 	O 	0.2424	0.6655	0.29429	-0.495
Mof_O 	O 	0.1027	0.556	0.3757	-0.487
Mof_O 	O 	0.2372	0.5821	0.36097	-0.5
Mof_C 	C 	0.1828	0.5556	0.3832	0.296
Mof_C 	C 	0.2207	0.5327	0.4213	-0.019
Mof_C 	C 	0.3008	0.5432	0.434	-0.065
Mof_C 	C 	0.1604	0.4931	0.4427	-0.063
Mof_H 	H 	0.3387	0.5665	0.4193	0.053
Mof_C 	C 	0.3297	0.5202	0.4691	0.02
Mof_C 	C 	0.1918	0.4675	0.4762	0.021
Mof_H 	H 	0.1034	0.4858	0.4339	0.034
Mof_C 	C 	0.277	0.4806	0.4892	-0.078
Mof_N 	N 	0.4121	0.5372	0.4801	-0.199
Mof_H 	H 	0.1564	0.4414	0.4902	0.023
Mof_C 	C 	0.3104	0.4447	0.5234	0.354
Mof_H 	H 	0.435	0.5231	0.501	0.111
Mof_H 	H 	0.4412	0.5621	0.4662	0.115
Mof_C 	C 	0.2878	0.769	0.1674	0.012
Mof_H 	H 	0.3999	0.742	0.1878	0.033
Mof_H 	H 	0.3481	0.7009	0.2436	0.018
Mof_N 	N 	0.0705	0.7532	0.2147	-0.223
Mof_H 	H 	0.0396	0.7713	0.1975	0.114
Mof_H 	H 	0.0452	0.7384	0.2349	0.118
Mof_C 	C 	0.1617	0.7478	0.21	0.133
Mof_C 	C 	0.1959	0.7729	0.1767	-0.035
Mof_H 	H 	0.1583	0.7929	0.1599	0.044
Mof_C 	C 	0.2183	0.7155	0.235	-0.037
Mof_O 	O 	0.1093	0.1946	0.78204	-0.556
Mof_O 	O 	0.2424	0.1655	0.79429	-0.495
Mof_O 	O 	0.1027	0.056	0.8757	-0.487
Mof_O 	O 	0.2372	0.0821	0.86097	-0.5
Mof_C 	C 	0.1828	0.0556	0.8832	0.296
Mof_C 	C 	0.2207	0.0327	0.9213	-0.019
Mof_C 	C 	0.3008	0.0432	0.934	-0.068
Mof_C 	C 	0.1604	0.9931	0.9427	-0.064
Mof_H 	H 	0.3387	0.0665	0.9193	0.055
Mof_C 	C 	0.3297	0.0202	0.9691	0.012
Mof_C 	C 	0.1918	0.9675	0.9762	0.021
Mof_H 	H 	0.1034	0.9858	0.9339	0.034
Mof_C 	C 	0.277	0.9806	0.9892	-0.08
Mof_N 	N 	0.4121	0.0372	0.9801	-0.196
Mof_H 	H 	0.1564	0.9414	0.9902	0.023
Mof_C 	C 	0.3104	0.9447	0.0234	0.354
Mof_H 	H 	0.435	0.0231	0.001	0.11
Mof_H 	H 	0.4412	0.0621	0.9662	0.115
Mof_C 	C 	0.2878	0.269	0.6674	0.012
Mof_H 	H 	0.3999	0.242	0.6878	0.033
Mof_H 	H 	0.3481	0.2009	0.7436	0.018
Mof_N 	N 	0.0705	0.2532	0.7147	-0.222
Mof_H 	H 	0.0396	0.2713	0.6975	0.114
Mof_H 	H 	0.0452	0.2384	0.7349	0.118
Mof_C 	C 	0.1617	0.2478	0.71	0.132
Mof_C 	C 	0.1959	0.2729	0.6767	-0.036
Mof_H 	H 	0.1583	0.2929	0.6599	0.045
Mof_C 	C 	0.2183	0.2155	0.735	-0.037
Mof_In	In	0.375	0.375	0.57776	2.516
Mof_In	In	0.375	0.875	0.07776	2.516
Mof_In	In	0.875	0.375	0.07776	2.516
Mof_In	In	0.875	0.875	0.57776	2.516
Mof_In	In	0.625	0.625	0.82776	2.516
Mof_In	In	0.625	0.125	0.32776	2.516
Mof_In	In	0.125	0.625	0.32776	2.516
Mof_In	In	0.125	0.125	0.82776	2.516
Mof_O 	O 	0.3593	0.4446	0.21796	-0.556
Mof_O 	O 	0.4924	0.4155	0.20571	-0.495
Mof_O 	O 	0.3527	0.306	0.1243	-0.487
Mof_O 	O 	0.4872	0.3321	0.13903	-0.5
Mof_C 	C 	0.4328	0.3056	0.1168	0.296
Mof_C 	C 	0.4707	0.2827	0.0787	-0.019
Mof_C 	C 	0.5508	0.2932	0.066	-0.066
Mof_C 	C 	0.4104	0.2431	0.0573	-0.063
Mof_H 	H 	0.5887	0.3165	0.0807	0.053
Mof_C 	C 	0.5797	0.2702	0.0309	0.019
Mof_C 	C 	0.4418	0.2175	0.0238	0.021
Mof_H 	H 	0.3534	0.2358	0.0661	0.034
Mof_C 	C 	0.527	0.2306	0.0108	-0.078
Mof_N 	N 	0.6621	0.2872	0.0199	-0.198
Mof_H 	H 	0.4064	0.1914	0.0098	0.023
Mof_C 	C 	0.5604	0.1947	0.9766	0.354
Mof_H 	H 	0.685	0.2731	0.999	0.111
Mof_H 	H 	0.6912	0.3121	0.0338	0.115
Mof_C 	C 	0.5378	0.519	0.3326	0.012
Mof_H 	H 	0.6499	0.492	0.3122	0.033
Mof_H 	H 	0.5981	0.4509	0.2564	0.018
Mof_N 	N 	0.3205	0.5032	0.2853	-0.223
Mof_H 	H 	0.2896	0.5213	0.3025	0.115
Mof_H 	H 	0.2952	0.4884	0.2651	0.119
Mof_C 	C 	0.4117	0.4978	0.29	0.133
Mof_C 	C 	0.4459	0.5229	0.3233	-0.036
Mof_H 	H 	0.4083	0.5429	0.3401	0.044
Mof_C 	C 	0.4683	0.4655	0.265	-0.037
Mof_O 	O 	0.3593	0.9446	0.71796	-0.556
Mof_O 	O 	0.4924	0.9155	0.70571	-0.495
Mof_O 	O 	0.3527	0.806	0.6243	-0.487
Mof_O 	O 	0.4872	0.8321	0.63903	-0.5
Mof_C 	C 	0.4328	0.8056	0.6168	0.296
Mof_C 	C 	0.4707	0.7827	0.5787	-0.019
Mof_C 	C 	0.5508	0.7932	0.566	-0.065
Mof_C 	C 	0.4104	0.7431	0.5573	-0.063
Mof_H 	H 	0.5887	0.8165	0.5807	0.053
Mof_C 	C 	0.5797	0.7702	0.5309	0.02
Mof_C 	C 	0.4418	0.7175	0.5238	0.021
Mof_H 	H 	0.3534	0.7358	0.5661	0.034
Mof_C 	C 	0.527	0.7306	0.5108	-0.078
Mof_N 	N 	0.6621	0.7872	0.5199	-0.198
Mof_H 	H 	0.4064	0.6914	0.5098	0.023
Mof_C 	C 	0.5604	0.6947	0.4766	0.354
Mof_H 	H 	0.685	0.7731	0.499	0.111
Mof_H 	H 	0.6912	0.8121	0.5338	0.115
Mof_C 	C 	0.5378	0.019	0.8326	0.012
Mof_H 	H 	0.6499	0.992	0.8122	0.033
Mof_H 	H 	0.5981	0.9509	0.7564	0.018
Mof_N 	N 	0.3205	0.0032	0.7853	-0.223
Mof_H 	H 	0.2896	0.0213	0.8025	0.115
Mof_H 	H 	0.2952	0.9884	0.7651	0.119
Mof_C 	C 	0.4117	0.9978	0.79	0.138
Mof_C 	C 	0.4459	0.0229	0.8233	-0.034
Mof_H 	H 	0.4083	0.0429	0.8401	0.043
Mof_C 	C 	0.4683	0.9655	0.765	-0.036
Mof_O 	O 	0.8593	0.4446	0.71796	-0.556
Mof_O 	O 	0.9924	0.4155	0.70571	-0.496
Mof_O 	O 	0.8527	0.306	0.6243	-0.487
Mof_O 	O 	0.9872	0.3321	0.63903	-0.5
Mof_C 	C 	0.9328	0.3056	0.6168	0.296
Mof_C 	C 	0.9707	0.2827	0.5787	-0.019
Mof_C 	C 	0.0508	0.2932	0.566	-0.065
Mof_C 	C 	0.9104	0.2431	0.5573	-0.063
Mof_H 	H 	0.0887	0.3165	0.5807	0.053
Mof_C 	C 	0.0797	0.2702	0.5309	0.02
Mof_C 	C 	0.9418	0.2175	0.5238	0.021
Mof_H 	H 	0.8534	0.2358	0.5661	0.034
Mof_C 	C 	0.027	0.2306	0.5108	-0.078
Mof_N 	N 	0.1621	0.2872	0.5199	-0.199
Mof_H 	H 	0.9064	0.1914	0.5098	0.023
Mof_C 	C 	0.0604	0.1947	0.4766	0.354
Mof_H 	H 	0.185	0.2731	0.499	0.111
Mof_H 	H 	0.1912	0.3121	0.5338	0.115
Mof_C 	C 	0.0378	0.519	0.8326	0.012
Mof_H 	H 	0.1499	0.492	0.8122	0.033
Mof_H 	H 	0.0981	0.4509	0.7564	0.018
Mof_N 	N 	0.8205	0.5032	0.7853	-0.222
Mof_H 	H 	0.7896	0.5213	0.8025	0.115
Mof_H 	H 	0.7952	0.4884	0.7651	0.118
Mof_C 	C 	0.9117	0.4978	0.79	0.132
Mof_C 	C 	0.9459	0.5229	0.8233	-0.036
Mof_H 	H 	0.9083	0.5429	0.8401	0.045
Mof_C 	C 	0.9683	0.4655	0.765	-0.037
Mof_O 	O 	0.8593	0.9446	0.21796	-0.556
Mof_O 	O 	0.9924	0.9155	0.20571	-0.496
Mof_O 	O 	0.8527	0.806	0.1243	-0.487
Mof_O 	O 	0.9872	0.8321	0.13903	-0.5
Mof_C 	C 	0.9328	0.8056	0.1168	0.296
Mof_C 	C 	0.9707	0.7827	0.0787	-0.019
Mof_C 	C 	0.0508	0.7932	0.066	-0.065
Mof_C 	C 	0.9104	0.7431	0.0573	-0.063
Mof_H 	H 	0.0887	0.8165	0.0807	0.053
Mof_C 	C 	0.0797	0.7702	0.0309	0.02
Mof_C 	C 	0.9418	0.7175	0.0238	0.021
Mof_H 	H 	0.8534	0.7358	0.0661	0.034
Mof_C 	C 	0.027	0.7306	0.0108	-0.078
Mof_N 	N 	0.1621	0.7872	0.0199	-0.198
Mof_H 	H 	0.9064	0.6914	0.0098	0.023
Mof_C 	C 	0.0604	0.6947	0.9766	0.354
Mof_H 	H 	0.185	0.7731	0.999	0.11
Mof_H 	H 	0.1912	0.8121	0.0338	0.115
Mof_C 	C 	0.0378	0.019	0.3326	0.012
Mof_H 	H 	0.1499	0.992	0.3122	0.033
Mof_H 	H 	0.0981	0.9509	0.2564	0.018
Mof_N 	N 	0.8205	0.0032	0.2853	-0.222
Mof_H 	H 	0.7896	0.0213	0.3025	0.114
Mof_H 	H 	0.7952	0.9884	0.2651	0.118
Mof_C 	C 	0.9117	0.9978	0.29	0.129
Mof_C 	C 	0.9459	0.0229	0.3233	-0.037
Mof_H 	H 	0.9083	0.0429	0.3401	0.045
Mof_C 	C 	0.9683	0.9655	0.265	-0.038
Mof_O 	O 	0.3907	0.3054	0.21796	-0.556
Mof_O 	O 	0.2576	0.3345	0.20571	-0.495
Mof_O 	O 	0.3973	0.444	0.1243	-0.487
Mof_O 	O 	0.2628	0.4179	0.13903	-0.5
Mof_C 	C 	0.3172	0.4444	0.1168	0.296
Mof_C 	C 	0.2793	0.4673	0.0787	-0.019
Mof_C 	C 	0.1992	0.4568	0.066	-0.065
Mof_C 	C 	0.3396	0.5069	0.0573	-0.063
Mof_H 	H 	0.1613	0.4335	0.0807	0.053
Mof_C 	C 	0.1703	0.4798	0.0309	0.02
Mof_C 	C 	0.3082	0.5325	0.0238	0.021
Mof_H 	H 	0.3966	0.5142	0.0661	0.034
Mof_C 	C 	0.223	0.5194	0.0108	-0.078
Mof_N 	N 	0.0879	0.4628	0.0199	-0.198
Mof_H 	H 	0.3436	0.5586	0.0098	0.023
Mof_C 	C 	0.1896	0.5553	0.9766	0.354
Mof_H 	H 	0.065	0.4769	0.999	0.111
Mof_H 	H 	0.0588	0.4379	0.0338	0.115
Mof_C 	C 	0.2122	0.231	0.3326	0.012
Mof_H 	H 	0.1001	0.258	0.3122	0.033
Mof_H 	H 	0.1519	0.2991	0.2564	0.018
Mof_N 	N 	0.4295	0.2468	0.2853	-0.222
Mof_H 	H 	0.4604	0.2287	0.3025	0.115
Mof_H 	H 	0.4548	0.2616	0.2651	0.119
Mof_C 	C 	0.3383	0.2522	0.29	0.132
Mof_C 	C 	0.3041	0.2271	0.3233	-0.036
Mof_H 	H 	0.3417	0.2071	0.3401	0.045
Mof_C 	C 	0.2817	0.2845	0.265	-0.037
Mof_O 	O 	0.3907	0.8054	0.71796	-0.556
Mof_O 	O 	0.2576	0.8345	0.70571	-0.495
Mof_O 	O 	0.3973	0.944	0.6243	-0.487
Mof_O 	O 	0.2628	0.9179	0.63903	-0.5
Mof_C 	C 	0.3172	0.9444	0.6168	0.296
Mof_C 	C 	0.2793	0.9673	0.5787	-0.019
Mof_C 	C 	0.1992	0.9568	0.566	-0.065
Mof_C 	C 	0.3396	0.0069	0.5573	-0.063
Mof_H 	H 	0.1613	0.9335	0.5807	0.053
Mof_C 	C 	0.1703	0.9798	0.5309	0.02
Mof_C 	C 	0.3082	0.0325	0.5238	0.021
Mof_H 	H 	0.3966	0.0142	0.5661	0.034
Mof_C 	C 	0.223	0.0194	0.5108	-0.078
Mof_N 	N 	0.0879	0.9628	0.5199	-0.199
Mof_H 	H 	0.3436	0.0586	0.5098	0.023
Mof_C 	C 	0.1896	0.0553	0.4766	0.354
Mof_H 	H 	0.065	0.9769	0.499	0.111
Mof_H 	H 	0.0588	0.9379	0.5338	0.115
Mof_C 	C 	0.2122	0.731	0.8326	0.012
Mof_H 	H 	0.1001	0.758	0.8122	0.033
Mof_H 	H 	0.1519	0.7991	0.7564	0.018
Mof_N 	N 	0.4295	0.7468	0.7853	-0.223
Mof_H 	H 	0.4604	0.7287	0.8025	0.115
Mof_H 	H 	0.4548	0.7616	0.7651	0.119
Mof_C 	C 	0.3383	0.7522	0.79	0.133
Mof_C 	C 	0.3041	0.7271	0.8233	-0.035
Mof_H 	H 	0.3417	0.7071	0.8401	0.044
Mof_C 	C 	0.2817	0.7845	0.765	-0.037
Mof_O 	O 	0.8907	0.3054	0.71796	-0.556
Mof_O 	O 	0.7576	0.3345	0.70571	-0.495
Mof_O 	O 	0.8973	0.444	0.6243	-0.487
Mof_O 	O 	0.7628	0.4179	0.63903	-0.5
Mof_C 	C 	0.8172	0.4444	0.6168	0.296
Mof_C 	C 	0.7793	0.4673	0.5787	-0.019
Mof_C 	C 	0.6992	0.4568	0.566	-0.065
Mof_C 	C 	0.8396	0.5069	0.5573	-0.063
Mof_H 	H 	0.6613	0.4335	0.5807	0.053
Mof_C 	C 	0.6703	0.4798	0.5309	0.02
Mof_C 	C 	0.8082	0.5325	0.5238	0.021
Mof_H 	H 	0.8966	0.5142	0.5661	0.034
Mof_C 	C 	0.723	0.5194	0.5108	-0.078
Mof_N 	N 	0.5879	0.4628	0.5199	-0.199
Mof_H 	H 	0.8436	0.5586	0.5098	0.023
Mof_C 	C 	0.6896	0.5553	0.4766	0.354
Mof_H 	H 	0.565	0.4769	0.499	0.111
Mof_H 	H 	0.5588	0.4379	0.5338	0.115
Mof_C 	C 	0.7122	0.231	0.8326	0.012
Mof_H 	H 	0.6001	0.258	0.8122	0.033
Mof_H 	H 	0.6519	0.2991	0.7564	0.018
Mof_N 	N 	0.9295	0.2468	0.7853	-0.223
Mof_H 	H 	0.9604	0.2287	0.8025	0.114
Mof_H 	H 	0.9548	0.2616	0.7651	0.118
Mof_C 	C 	0.8383	0.2522	0.79	0.133
Mof_C 	C 	0.8041	0.2271	0.8233	-0.035
Mof_H 	H 	0.8417	0.2071	0.8401	0.044
Mof_C 	C 	0.7817	0.2845	0.765	-0.037
Mof_O 	O 	0.8907	0.8054	0.21796	-0.556
Mof_O 	O 	0.7576	0.8345	0.20571	-0.495
Mof_O 	O 	0.8973	0.944	0.1243	-0.487
Mof_O 	O 	0.7628	0.9179	0.13903	-0.5
Mof_C 	C 	0.8172	0.9444	0.1168	0.296
Mof_C 	C 	0.7793	0.9673	0.0787	-0.019
Mof_C 	C 	0.6992	0.9568	0.066	-0.068
Mof_C 	C 	0.8396	0.0069	0.0573	-0.064
Mof_H 	H 	0.6613	0.9335	0.0807	0.055
Mof_C 	C 	0.6703	0.9798	0.0309	0.012
Mof_C 	C 	0.8082	0.0325	0.0238	0.021
Mof_H 	H 	0.8966	0.0142	0.0661	0.034
Mof_C 	C 	0.723	0.0194	0.0108	-0.08
Mof_N 	N 	0.5879	0.9628	0.0199	-0.196
Mof_H 	H 	0.8436	0.0586	0.0098	0.023
Mof_C 	C 	0.6896	0.0553	0.9766	0.354
Mof_H 	H 	0.565	0.9769	0.999	0.11
Mof_H 	H 	0.5588	0.9379	0.0338	0.115
Mof_C 	C 	0.7122	0.731	0.3326	0.012
Mof_H 	H 	0.6001	0.758	0.3122	0.033
Mof_H 	H 	0.6519	0.7991	0.2564	0.018
Mof_N 	N 	0.9295	0.7468	0.2853	-0.222
Mof_H 	H 	0.9604	0.7287	0.3025	0.114
Mof_H 	H 	0.9548	0.7616	0.2651	0.118
Mof_C 	C 	0.8383	0.7522	0.29	0.132
Mof_C 	C 	0.8041	0.7271	0.3233	-0.036
Mof_H 	H 	0.8417	0.7071	0.3401	0.045
Mof_C 	C 	0.7817	0.7845	0.265	-0.037
Mof_O 	O 	0.6093	0.5554	0.46796	-0.556
Mof_O 	O 	0.7424	0.5845	0.45571	-0.495
Mof_O 	O 	0.6027	0.694	0.3743	-0.487
Mof_O 	O 	0.7372	0.6679	0.38903	-0.5
Mof_C 	C 	0.6828	0.6944	0.3668	0.296
Mof_C 	C 	0.7207	0.7173	0.3287	-0.019
Mof_C 	C 	0.8008	0.7068	0.316	-0.065
Mof_C 	C 	0.6604	0.7569	0.3073	-0.063
Mof_H 	H 	0.8387	0.6835	0.3307	0.053
Mof_C 	C 	0.8297	0.7298	0.2809	0.02
Mof_C 	C 	0.6918	0.7825	0.2738	0.021
Mof_H 	H 	0.6034	0.7642	0.3161	0.034
Mof_C 	C 	0.777	0.7694	0.2608	-0.078
Mof_N 	N 	0.9121	0.7128	0.2699	-0.199
Mof_H 	H 	0.6564	0.8086	0.2598	0.023
Mof_C 	C 	0.8104	0.8053	0.2266	0.354
Mof_H 	H 	0.935	0.7269	0.249	0.111
Mof_H 	H 	0.9412	0.6879	0.2838	0.115
Mof_C 	C 	0.7878	0.481	0.5826	0.012
Mof_H 	H 	0.8999	0.508	0.5622	0.033
Mof_H 	H 	0.8481	0.5491	0.5064	0.018
Mof_N 	N 	0.5705	0.4968	0.5353	-0.223
Mof_H 	H 	0.5396	0.4787	0.5525	0.115
Mof_H 	H 	0.5452	0.5116	0.5151	0.119
Mof_C 	C 	0.6617	0.5022	0.54	0.133
Mof_C 	C 	0.6959	0.4771	0.5733	-0.036
Mof_H 	H 	0.6583	0.4571	0.5901	0.044
Mof_C 	C 	0.7183	0.5345	0.515	-0.037
Mof_O 	O 	0.6093	0.0554	0.96796	-0.556
Mof_O 	O 	0.7424	0.0845	0.95571	-0.495
Mof_O 	O 	0.6027	0.194	0.8743	-0.487
Mof_O 	O 	0.7372	0.1679	0.88903	-0.5
Mof_C 	C 	0.6828	0.1944	0.8668	0.296
Mof_C 	C 	0.7207	0.2173	0.8287	-0.019
Mof_C 	C 	0.8008	0.2068	0.816	-0.065
Mof_C 	C 	0.6604	0.2569	0.8073	-0.063
Mof_H 	H 	0.8387	0.1835	0.8307	0.053
Mof_C 	C 	0.8297	0.2298	0.7809	0.02
Mof_C 	C 	0.6918	0.2825	0.7738	0.021
Mof_H 	H 	0.6034	0.2642	0.8161	0.034
Mof_C 	C 	0.777	0.2694	0.7608	-0.078
Mof_N 	N 	0.9121	0.2128	0.7699	-0.198
Mof_H 	H 	0.6564	0.3086	0.7598	0.023
Mof_C 	C 	0.8104	0.3053	0.7266	0.354
Mof_H 	H 	0.935	0.2269	0.749	0.111
Mof_H 	H 	0.9412	0.1879	0.7838	0.115
Mof_C 	C 	0.7878	0.981	0.0826	0.013
Mof_H 	H 	0.8999	0.008	0.0622	0.033
Mof_H 	H 	0.8481	0.0491	0.0064	0.017
Mof_N 	N 	0.5705	0.9968	0.0353	-0.224
Mof_H 	H 	0.5396	0.9787	0.0525	0.115
Mof_H 	H 	0.5452	0.0116	0.0151	0.119
Mof_C 	C 	0.6617	0.0022	0.04	0.14
Mof_C 	C 	0.6959	0.9771	0.0733	-0.033
Mof_H 	H 	0.6583	0.9571	0.0901	0.043
Mof_C 	C 	0.7183	0.0345	0.015	-0.036
Mof_O 	O 	0.1093	0.5554	0.96796	-0.556
Mof_O 	O 	0.2424	0.5845	0.95571	-0.495
Mof_O 	O 	0.1027	0.694	0.8743	-0.487
Mof_O 	O 	0.2372	0.6679	0.88903	-0.5
Mof_C 	C 	0.1828	0.6944	0.8668	0.296
Mof_C 	C 	0.2207	0.7173	0.8287	-0.019
Mof_C 	C 	0.3008	0.7068	0.816	-0.065
Mof_C 	C 	0.1604	0.7569	0.8073	-0.063
Mof_H 	H 	0.3387	0.6835	0.8307	0.053
Mof_C 	C 	0.3297	0.7298	0.7809	0.019
Mof_C 	C 	0.1918	0.7825	0.7738	0.021
Mof_H 	H 	0.1034	0.7642	0.8161	0.034
Mof_C 	C 	0.277	0.7694	0.7608	-0.078
Mof_N 	N 	0.4121	0.7128	0.7699	-0.198
Mof_H 	H 	0.1564	0.8086	0.7598	0.023
Mof_C 	C 	0.3104	0.8053	0.7266	0.354
Mof_H 	H 	0.435	0.7269	0.749	0.111
Mof_H 	H 	0.4412	0.6879	0.7838	0.115
Mof_C 	C 	0.2878	0.481	0.0826	0.012
Mof_H 	H 	0.3999	0.508	0.0622	0.033
Mof_H 	H 	0.3481	0.5491	0.0064	0.018
Mof_N 	N 	0.0705	0.4968	0.0353	-0.223
Mof_H 	H 	0.0396	0.4787	0.0525	0.114
Mof_H 	H 	0.0452	0.5116	0.0151	0.118
Mof_C 	C 	0.1617	0.5022	0.04	0.133
Mof_C 	C 	0.1959	0.4771	0.0733	-0.036
Mof_H 	H 	0.1583	0.4571	0.0901	0.044
Mof_C 	C 	0.2183	0.5345	0.015	-0.037
Mof_O 	O 	0.1093	0.0554	0.46796	-0.556
Mof_O 	O 	0.2424	0.0845	0.45571	-0.495
Mof_O 	O 	0.1027	0.194	0.3743	-0.487
Mof_O 	O 	0.2372	0.1679	0.38903	-0.5
Mof_C 	C 	0.1828	0.1944	0.3668	0.296
Mof_C 	C 	0.2207	0.2173	0.3287	-0.019
Mof_C 	C 	0.3008	0.2068	0.316	-0.065
Mof_C 	C 	0.1604	0.2569	0.3073	-0.063
Mof_H 	H 	0.3387	0.1835	0.3307	0.053
Mof_C 	C 	0.3297	0.2298	0.2809	0.02
Mof_C 	C 	0.1918	0.2825	0.2738	0.021
Mof_H 	H 	0.1034	0.2642	0.3161	0.034
Mof_C 	C 	0.277	0.2694	0.2608	-0.078
Mof_N 	N 	0.4121	0.2128	0.2699	-0.199
Mof_H 	H 	0.1564	0.3086	0.2598	0.023
Mof_C 	C 	0.3104	0.3053	0.2266	0.354
Mof_H 	H 	0.435	0.2269	0.249	0.111
Mof_H 	H 	0.4412	0.1879	0.2838	0.115
Mof_C 	C 	0.2878	0.981	0.5826	0.012
Mof_H 	H 	0.3999	0.008	0.5622	0.033
Mof_H 	H 	0.3481	0.0491	0.5064	0.018
Mof_N 	N 	0.0705	0.9968	0.5353	-0.222
Mof_H 	H 	0.0396	0.9787	0.5525	0.114
Mof_H 	H 	0.0452	0.0116	0.5151	0.118
Mof_C 	C 	0.1617	0.0022	0.54	0.132
Mof_C 	C 	0.1959	0.9771	0.5733	-0.036
Mof_H 	H 	0.1583	0.9571	0.5901	0.045
Mof_C 	C 	0.2183	0.0345	0.515	-0.037
Mof_O 	O 	0.6407	0.6946	0.46796	-0.556
Mof_O 	O 	0.5076	0.6655	0.45571	-0.495
Mof_O 	O 	0.6473	0.556	0.3743	-0.487
Mof_O 	O 	0.5128	0.5821	0.38903	-0.5
Mof_C 	C 	0.5672	0.5556	0.3668	0.296
Mof_C 	C 	0.5293	0.5327	0.3287	-0.019
Mof_C 	C 	0.4492	0.5432	0.316	-0.065
Mof_C 	C 	0.5896	0.4931	0.3073	-0.063
Mof_H 	H 	0.4113	0.5665	0.3307	0.053
Mof_C 	C 	0.4203	0.5202	0.2809	0.02
Mof_C 	C 	0.5582	0.4675	0.2738	0.021
Mof_H 	H 	0.6466	0.4858	0.3161	0.034
Mof_C 	C 	0.473	0.4806	0.2608	-0.078
Mof_N 	N 	0.3379	0.5372	0.2699	-0.198
Mof_H 	H 	0.5936	0.4414	0.2598	0.023
Mof_C 	C 	0.4396	0.4447	0.2266	0.354
Mof_H 	H 	0.315	0.5231	0.249	0.111
Mof_H 	H 	0.3088	0.5621	0.2838	0.115
Mof_C 	C 	0.4622	0.769	0.5826	0.012
Mof_H 	H 	0.3501	0.742	0.5622	0.033
Mof_H 	H 	0.4019	0.7009	0.5064	0.018
Mof_N 	N 	0.6795	0.7532	0.5353	-0.223
Mof_H 	H 	0.7104	0.7713	0.5525	0.115
Mof_H 	H 	0.7048	0.7384	0.5151	0.119
Mof_C 	C 	0.5883	0.7478	0.54	0.133
Mof_C 	C 	0.5541	0.7729	0.5733	-0.036
Mof_H 	H 	0.5917	0.7929	0.5901	0.044
Mof_C 	C 	0.5317	0.7155	0.515	-0.037
Mof_O 	O 	0.6407	0.1946	0.96796	-0.556
Mof_O 	O 	0.5076	0.1655	0.95571	-0.495
Mof_O 	O 	0.6473	0.056	0.8743	-0.487
Mof_O 	O 	0.5128	0.0821	0.88903	-0.5
Mof_C 	C 	0.5672	0.0556	0.8668	0.296
Mof_C 	C 	0.5293	0.0327	0.8287	-0.019
Mof_C 	C 	0.4492	0.0432	0.816	-0.067
Mof_C 	C 	0.5896	0.9931	0.8073	-0.064
Mof_H 	H 	0.4113	0.0665	0.8307	0.054
Mof_C 	C 	0.4203	0.0202	0.7809	0.015
Mof_C 	C 	0.5582	0.9675	0.7738	0.021
Mof_H 	H 	0.6466	0.9858	0.8161	0.034
Mof_C 	C 	0.473	0.9806	0.7608	-0.079
Mof_N 	N 	0.3379	0.0372	0.7699	-0.197
Mof_H 	H 	0.5936	0.9414	0.7598	0.023
Mof_C 	C 	0.4396	0.9447	0.7266	0.354
Mof_H 	H 	0.315	0.0231	0.749	0.111
Mof_H 	H 	0.3088	0.0621	0.7838	0.115
Mof_C 	C 	0.4622	0.269	0.0826	0.012
Mof_H 	H 	0.3501	0.242	0.0622	0.033
Mof_H 	H 	0.4019	0.2009	0.0064	0.018
Mof_N 	N 	0.6795	0.2532	0.0353	-0.223
Mof_H 	H 	0.7104	0.2713	0.0525	0.115
Mof_H 	H 	0.7048	0.2384	0.0151	0.118
Mof_C 	C 	0.5883	0.2478	0.04	0.134
Mof_C 	C 	0.5541	0.2729	0.0733	-0.035
Mof_H 	H 	0.5917	0.2929	0.0901	0.044
Mof_C 	C 	0.5317	0.2155	0.015	-0.037
Mof_O 	O 	0.1407	0.6946	0.96796	-0.556
Mof_O 	O 	0.0076	0.6655	0.95571	-0.496
Mof_O 	O 	0.1473	0.556	0.8743	-0.487
Mof_O 	O 	0.0128	0.5821	0.88903	-0.5
Mof_C 	C 	0.0672	0.5556	0.8668	0.296
Mof_C 	C 	0.0293	0.5327	0.8287	-0.019
Mof_C 	C 	0.9492	0.5432	0.816	-0.065
Mof_C 	C 	0.0896	0.4931	0.8073	-0.063
Mof_H 	H 	0.9113	0.5665	0.8307	0.053
Mof_C 	C 	0.9203	0.5202	0.7809	0.02
Mof_C 	C 	0.0582	0.4675	0.7738	0.021
Mof_H 	H 	0.1466	0.4858	0.8161	0.034
Mof_C 	C 	0.973	0.4806	0.7608	-0.078
Mof_N 	N 	0.8379	0.5372	0.7699	-0.199
Mof_H 	H 	0.0936	0.4414	0.7598	0.023
Mof_C 	C 	0.9396	0.4447	0.7266	0.354
Mof_H 	H 	0.815	0.5231	0.749	0.111
Mof_H 	H 	0.8088	0.5621	0.7838	0.115
Mof_C 	C 	0.9622	0.769	0.0826	0.012
Mof_H 	H 	0.8501	0.742	0.0622	0.033
Mof_H 	H 	0.9019	0.7009	0.0064	0.018
Mof_N 	N 	0.1795	0.7532	0.0353	-0.223
Mof_H 	H 	0.2104	0.7713	0.0525	0.115
Mof_H 	H 	0.2048	0.7384	0.0151	0.119
Mof_C 	C 	0.0883	0.7478	0.04	0.132
Mof_C 	C 	0.0541	0.7729	0.0733	-0.036
Mof_H 	H 	0.0917	0.7929	0.0901	0.045
Mof_C 	C 	0.0317	0.7155	0.015	-0.037
Mof_O 	O 	0.1407	0.1946	0.46796	-0.556
Mof_O 	O 	0.0076	0.1655	0.45571	-0.496
Mof_O 	O 	0.1473	0.056	0.3743	-0.487
Mof_O 	O 	0.0128	0.0821	0.38903	-0.5
Mof_C 	C 	0.0672	0.0556	0.3668	0.296
Mof_C 	C 	0.0293	0.0327	0.3287	-0.019
Mof_C 	C 	0.9492	0.0432	0.316	-0.064
Mof_C 	C 	0.0896	0.9931	0.3073	-0.063
Mof_H 	H 	0.9113	0.0665	0.3307	0.052
Mof_C 	C 	0.9203	0.0202	0.2809	0.024
Mof_C 	C 	0.0582	0.9675	0.2738	0.021
Mof_H 	H 	0.1466	0.9858	0.3161	0.034
Mof_C 	C 	0.973	0.9806	0.2608	-0.077
Mof_N 	N 	0.8379	0.0372	0.2699	-0.199
Mof_H 	H 	0.0936	0.9414	0.2598	0.023
Mof_C 	C 	0.9396	0.9447	0.2266	0.354
Mof_H 	H 	0.815	0.0231	0.249	0.111
Mof_H 	H 	0.8088	0.0621	0.2838	0.115
Mof_C 	C 	0.9622	0.269	0.5826	0.012
Mof_H 	H 	0.8501	0.242	0.5622	0.033
Mof_H 	H 	0.9019	0.2009	0.5064	0.018
Mof_N 	N 	0.1795	0.2532	0.5353	-0.222
Mof_H 	H 	0.2104	0.2713	0.5525	0.115
Mof_H 	H 	0.2048	0.2384	0.5151	0.118
Mof_C 	C 	0.0883	0.2478	0.54	0.132
Mof_C 	C 	0.0541	0.2729	0.5733	-0.036
Mof_H 	H 	0.0917	0.2929	0.5901	0.045
Mof_C 	C 	0.0317	0.2155	0.515	-0.037
Mof_In	In	0.375	0.375	0.17224	2.516
Mof_In	In	0.375	0.875	0.67224	2.516
Mof_In	In	0.875	0.375	0.67224	2.516
Mof_In	In	0.875	0.875	0.17224	2.516
Mof_In	In	0.625	0.625	0.42224	2.516
Mof_In	In	0.625	0.125	0.92224	2.516
Mof_In	In	0.125	0.625	0.92224	2.516
Mof_In	In	0.125	0.125	0.42224	2.516
_end
