data_functionalizedCrystal
_audit_creation_method	'EQeq! by Chris Wilmer'
_symmetry_space_group_name_H-M	'P1'
_symmetry_Int_Tables_number	1
_symmetry_cell_setting	triclinic
loop_
_symmetry_equiv_pos_as_xyz
  x,y,z
_cell_length_a	16.2564
_cell_length_b	18.0258
_cell_length_c	19.6093
_cell_angle_alpha	90
_cell_angle_beta	90
_cell_angle_gamma	90
loop_
_atom_site_label
_atom_site_type_symbol
_atom_site_fract_x
_atom_site_fract_y
_atom_site_fract_z
_atom_site_charge
Mof_Ag	Ag	0.38237	0.06845	0.60587	0.438
Mof_Ag	Ag	0.46669	0.03135	0.464	0.115
Mof_Ag	Ag	0.61176	0.95092	0.50015	0.151
Mof_Ag	Ag	0.58808	0.88647	0.6449	0.437
Mof_Ag	Ag	0.41625	0.88551	0.55355	0.373
Mof_Ag	Ag	0.40709	0.94684	0.70747	0.422
Mof_Ag	Ag	0.5372	0.04575	0.72291	0.224
Mof_Ag	Ag	0.59148	0.09084	0.57799	0.466
Mof_Ag	Ag	0.10902	0.40834	0.85788	0.37
Mof_Ag	Ag	0.38659	0.08515	0.32828	0.417
Mof_Ag	Ag	0.35462	0.07236	0.81717	0.493
Mof_Ag	Ag	0.64268	0.08139	0.3732	0.503
Mof_Ag	Ag	0.61763	0.93155	0.10587	0.431
Mof_Ag	Ag	0.53331	0.96865	0.964	0.136
Mof_Ag	Ag	0.38824	0.04908	0.00015	0.133
Mof_Ag	Ag	0.41192	0.11353	0.1449	0.438
Mof_Ag	Ag	0.58375	0.11449	0.05355	0.363
Mof_Ag	Ag	0.59291	0.05316	0.20747	0.424
Mof_Ag	Ag	0.4628	0.95425	0.22291	0.224
Mof_Ag	Ag	0.40852	0.90916	0.07799	0.457
Mof_Ag	Ag	0.89098	0.59166	0.35788	0.364
Mof_Ag	Ag	0.61341	0.91485	0.82828	0.415
Mof_Ag	Ag	0.64538	0.92764	0.31717	0.485
Mof_Ag	Ag	0.35732	0.91861	0.8732	0.508
Mof_Ag	Ag	0.88237	0.43155	0.60587	0.437
Mof_Ag	Ag	0.96669	0.46865	0.464	0.115
Mof_Ag	Ag	0.11176	0.54908	0.50015	0.152
Mof_Ag	Ag	0.08808	0.61353	0.6449	0.436
Mof_Ag	Ag	0.91625	0.61449	0.55355	0.374
Mof_Ag	Ag	0.90709	0.55316	0.70747	0.424
Mof_Ag	Ag	0.0372	0.45425	0.72291	0.221
Mof_Ag	Ag	0.09148	0.40916	0.57799	0.465
Mof_Ag	Ag	0.60902	0.09166	0.85788	0.371
Mof_Ag	Ag	0.88659	0.41485	0.32828	0.416
Mof_Ag	Ag	0.85462	0.42764	0.81717	0.489
Mof_Ag	Ag	0.14268	0.41861	0.3732	0.504
Mof_Ag	Ag	0.11763	0.56845	0.10587	0.428
Mof_Ag	Ag	0.03331	0.53135	0.964	0.138
Mof_Ag	Ag	0.88824	0.45092	0.00015	0.134
Mof_Ag	Ag	0.91192	0.38647	0.1449	0.438
Mof_Ag	Ag	0.08375	0.38551	0.05355	0.362
Mof_Ag	Ag	0.09291	0.44684	0.20747	0.425
Mof_Ag	Ag	0.9628	0.54575	0.22291	0.224
Mof_Ag	Ag	0.90852	0.59084	0.07799	0.456
Mof_Ag	Ag	0.39098	0.90834	0.35788	0.363
Mof_Ag	Ag	0.11341	0.58515	0.82828	0.417
Mof_Ag	Ag	0.14538	0.57236	0.31717	0.484
Mof_Ag	Ag	0.85732	0.58139	0.8732	0.509
Mof_H 	H 	0.3363	0.2417	0.6273	0.176
Mof_H 	H 	0.2943	0.2965	0.6722	0.183
Mof_H 	H 	0.2423	0.1631	0.9254	0.005
Mof_H 	H 	0.1775	0.2753	0.9381	-0.003
Mof_H 	H 	0.2224	0.3221	0.7492	-0.007
Mof_H 	H 	0.6613	0.2494	0.5666	0.227
Mof_H 	H 	0.7012	0.3047	0.5209	0.197
Mof_H 	H 	0.7561	0.1646	0.2687	0.066
Mof_H 	H 	0.8267	0.2713	0.2533	0.045
Mof_H 	H 	0.7752	0.3312	0.4386	-0.026
Mof_H 	H 	0.9867	0.8796	0.5824	0.247
Mof_H 	H 	0.8969	0.8959	0.5814	0.194
Mof_H 	H 	0.7174	0.636	0.5654	0.039
Mof_H 	H 	0.6186	0.7176	0.5977	0.068
Mof_H 	H 	0.7862	0.8694	0.6304	0.014
Mof_H 	H 	0.6637	0.7583	0.1273	0.174
Mof_H 	H 	0.7057	0.7035	0.1722	0.183
Mof_H 	H 	0.7577	0.8369	0.4254	0.001
Mof_H 	H 	0.8225	0.7247	0.4381	-0.007
Mof_H 	H 	0.7776	0.6779	0.2492	-0.007
Mof_H 	H 	0.3387	0.7506	0.0666	0.227
Mof_H 	H 	0.2988	0.6953	0.0209	0.195
Mof_H 	H 	0.2439	0.8354	0.7687	0.065
Mof_H 	H 	0.1733	0.7287	0.7533	0.045
Mof_H 	H 	0.2248	0.6688	0.9386	-0.023
Mof_H 	H 	0.0133	0.1204	0.0824	0.245
Mof_H 	H 	0.1031	0.1041	0.0814	0.192
Mof_H 	H 	0.2826	0.364	0.0654	0.038
Mof_H 	H 	0.3814	0.2824	0.0977	0.068
Mof_H 	H 	0.2138	0.1306	0.1304	0.014
Mof_H 	H 	0.8363	0.2583	0.6273	0.176
Mof_H 	H 	0.7943	0.2035	0.6722	0.183
Mof_H 	H 	0.7423	0.3369	0.9254	0.005
Mof_H 	H 	0.6775	0.2247	0.9381	-0.003
Mof_H 	H 	0.7224	0.1779	0.7492	-0.007
Mof_H 	H 	0.1613	0.2506	0.5666	0.227
Mof_H 	H 	0.2012	0.1953	0.5209	0.197
Mof_H 	H 	0.2561	0.3354	0.2687	0.066
Mof_H 	H 	0.3267	0.2287	0.2533	0.045
Mof_H 	H 	0.2752	0.1688	0.4386	-0.026
Mof_H 	H 	0.4867	0.6204	0.5824	0.247
Mof_H 	H 	0.3969	0.6041	0.5814	0.194
Mof_H 	H 	0.2174	0.864	0.5654	0.039
Mof_H 	H 	0.1186	0.7824	0.5977	0.068
Mof_H 	H 	0.2862	0.6306	0.6304	0.014
Mof_H 	H 	0.1637	0.7417	0.1273	0.174
Mof_H 	H 	0.2057	0.7965	0.1722	0.182
Mof_H 	H 	0.2577	0.6631	0.4254	0.001
Mof_H 	H 	0.3225	0.7753	0.4381	-0.007
Mof_H 	H 	0.2776	0.8221	0.2492	-0.007
Mof_H 	H 	0.8387	0.7494	0.0666	0.227
Mof_H 	H 	0.7988	0.8047	0.0209	0.195
Mof_H 	H 	0.7439	0.6646	0.7687	0.065
Mof_H 	H 	0.6733	0.7713	0.7533	0.046
Mof_H 	H 	0.7248	0.8312	0.9386	-0.023
Mof_H 	H 	0.5133	0.3796	0.0824	0.246
Mof_H 	H 	0.6031	0.3959	0.0814	0.192
Mof_H 	H 	0.7826	0.136	0.0654	0.038
Mof_H 	H 	0.8814	0.2176	0.0977	0.068
Mof_H 	H 	0.7138	0.3694	0.1304	0.014
Mof_C 	C 	0.491	0.9827	0.6265	-0.327
Mof_C 	C 	0.5162	0.9834	0.5687	-0.272
Mof_C 	C 	0.4764	0.9977	0.3426	-0.257
Mof_C 	C 	0.5494	0.005	0.3422	-0.293
Mof_C 	C 	0.2404	0.1959	0.8888	0.023
Mof_C 	C 	0.2001	0.2632	0.8959	0.043
Mof_C 	C 	0.2275	0.2906	0.7866	0.081
Mof_C 	C 	0.2696	0.2266	0.7797	-0.013
Mof_C 	C 	0.3092	0.203	0.714	0.308
Mof_C 	C 	0.7603	0.1976	0.305	0.046
Mof_C 	C 	0.8023	0.2622	0.2953	0.066
Mof_C 	C 	0.7721	0.2971	0.4031	0.093
Mof_C 	C 	0.7288	0.232	0.4137	-0.037
Mof_C 	C 	0.6892	0.2104	0.4804	0.337
Mof_C 	C 	0.7331	0.6835	0.5786	0.017
Mof_C 	C 	0.6732	0.7329	0.5978	0.013
Mof_C 	C 	0.771	0.8218	0.617	0.037
Mof_C 	C 	0.8307	0.7714	0.5976	-0.026
Mof_C 	C 	0.9204	0.7927	0.5907	0.302
Mof_C 	C 	0.4633	0.7941	0.7478	0.099
Mof_C 	C 	0.4587	0.7168	0.779	0.882
Mof_C 	C 	0.2303	0.9857	0.6752	0.179
Mof_C 	C 	0.1336	0.9777	0.6814	0.887
Mof_C 	C 	0.5574	0.2156	0.6891	0.121
Mof_C 	C 	0.5545	0.3016	0.7017	0.907
Mof_C 	C 	0.509	0.0173	0.1265	-0.325
Mof_C 	C 	0.4838	0.0166	0.0687	-0.273
Mof_C 	C 	0.5236	0.0023	0.8426	-0.254
Mof_C 	C 	0.4506	0.995	0.8422	-0.297
Mof_C 	C 	0.7596	0.8041	0.3888	0.022
Mof_C 	C 	0.7999	0.7368	0.3959	0.042
Mof_C 	C 	0.7725	0.7094	0.2866	0.08
Mof_C 	C 	0.7304	0.7734	0.2797	-0.013
Mof_C 	C 	0.6908	0.797	0.214	0.307
Mof_C 	C 	0.2397	0.8024	0.805	0.046
Mof_C 	C 	0.1977	0.7378	0.7953	0.067
Mof_C 	C 	0.2279	0.7029	0.9031	0.095
Mof_C 	C 	0.2712	0.768	0.9137	-0.038
Mof_C 	C 	0.3108	0.7896	0.9804	0.347
Mof_C 	C 	0.2669	0.3165	0.0786	0.015
Mof_C 	C 	0.3268	0.2671	0.0978	0.012
Mof_C 	C 	0.229	0.1782	0.117	0.036
Mof_C 	C 	0.1693	0.2286	0.0976	-0.027
Mof_C 	C 	0.0796	0.2073	0.0907	0.3
Mof_C 	C 	0.5367	0.2059	0.2478	0.099
Mof_C 	C 	0.5413	0.2832	0.279	0.882
Mof_C 	C 	0.7697	0.0143	0.1752	0.18
Mof_C 	C 	0.8664	0.0223	0.1814	0.889
Mof_C 	C 	0.4426	0.7844	0.1891	0.121
Mof_C 	C 	0.4455	0.6984	0.2017	0.907
Mof_C 	C 	0.991	0.5173	0.6265	-0.326
Mof_C 	C 	0.0162	0.5166	0.5687	-0.273
Mof_C 	C 	0.9764	0.5023	0.3426	-0.257
Mof_C 	C 	0.0494	0.495	0.3422	-0.293
Mof_C 	C 	0.7404	0.3041	0.8888	0.023
Mof_C 	C 	0.7001	0.2368	0.8959	0.043
Mof_C 	C 	0.7275	0.2094	0.7866	0.081
Mof_C 	C 	0.7696	0.2734	0.7797	-0.013
Mof_C 	C 	0.8092	0.297	0.714	0.308
Mof_C 	C 	0.2603	0.3024	0.305	0.046
Mof_C 	C 	0.3023	0.2378	0.2953	0.066
Mof_C 	C 	0.2721	0.2029	0.4031	0.093
Mof_C 	C 	0.2288	0.268	0.4137	-0.037
Mof_C 	C 	0.1892	0.2896	0.4804	0.337
Mof_C 	C 	0.2331	0.8165	0.5786	0.017
Mof_C 	C 	0.1732	0.7671	0.5978	0.013
Mof_C 	C 	0.271	0.6782	0.617	0.037
Mof_C 	C 	0.3307	0.7286	0.5976	-0.026
Mof_C 	C 	0.4204	0.7073	0.5907	0.302
Mof_C 	C 	0.9633	0.7059	0.7478	0.099
Mof_C 	C 	0.9587	0.7832	0.779	0.883
Mof_C 	C 	0.7303	0.5143	0.6752	0.181
Mof_C 	C 	0.6336	0.5223	0.6814	0.891
Mof_C 	C 	0.0574	0.2844	0.6891	0.121
Mof_C 	C 	0.0545	0.1984	0.7017	0.907
Mof_C 	C 	0.009	0.4827	0.1265	-0.326
Mof_C 	C 	0.9838	0.4834	0.0687	-0.272
Mof_C 	C 	0.0236	0.4977	0.8426	-0.26
Mof_C 	C 	0.9506	0.505	0.8422	-0.292
Mof_C 	C 	0.2596	0.6959	0.3888	0.022
Mof_C 	C 	0.2999	0.7632	0.3959	0.042
Mof_C 	C 	0.2725	0.7906	0.2866	0.08
Mof_C 	C 	0.2304	0.7266	0.2797	-0.013
Mof_C 	C 	0.1908	0.703	0.214	0.307
Mof_C 	C 	0.7397	0.6976	0.805	0.046
Mof_C 	C 	0.6977	0.7622	0.7953	0.067
Mof_C 	C 	0.7279	0.7971	0.9031	0.095
Mof_C 	C 	0.7712	0.732	0.9137	-0.037
Mof_C 	C 	0.8108	0.7104	0.9804	0.347
Mof_C 	C 	0.7669	0.1835	0.0786	0.015
Mof_C 	C 	0.8268	0.2329	0.0978	0.012
Mof_C 	C 	0.729	0.3218	0.117	0.036
Mof_C 	C 	0.6693	0.2714	0.0976	-0.027
Mof_C 	C 	0.5796	0.2927	0.0907	0.3
Mof_C 	C 	0.0367	0.2941	0.2478	0.098
Mof_C 	C 	0.0413	0.2168	0.279	0.883
Mof_C 	C 	0.2697	0.4857	0.1752	0.181
Mof_C 	C 	0.3664	0.4777	0.1814	0.891
Mof_C 	C 	0.9426	0.7156	0.1891	0.12
Mof_C 	C 	0.9455	0.8016	0.2017	0.908
Mof_N 	N 	0.2761	0.1781	0.8307	-0.135
Mof_N 	N 	0.1926	0.31	0.8463	-0.171
Mof_N 	N 	0.3138	0.2528	0.6656	-0.355
Mof_N 	N 	0.7248	0.1792	0.3642	-0.129
Mof_N 	N 	0.8092	0.313	0.3452	-0.169
Mof_N 	N 	0.6832	0.2605	0.528	-0.394
Mof_N 	N 	0.8128	0.7008	0.5781	-0.147
Mof_N 	N 	0.6911	0.8025	0.6166	-0.166
Mof_N 	N 	0.9366	0.8645	0.584	-0.368
Mof_N 	N 	0.7239	0.8219	0.3307	-0.136
Mof_N 	N 	0.8074	0.69	0.3463	-0.171
Mof_N 	N 	0.6862	0.7472	0.1656	-0.354
Mof_N 	N 	0.2752	0.8208	0.8642	-0.129
Mof_N 	N 	0.1908	0.687	0.8452	-0.169
Mof_N 	N 	0.3168	0.7395	0.028	-0.401
Mof_N 	N 	0.1872	0.2992	0.0781	-0.147
Mof_N 	N 	0.3089	0.1975	0.1166	-0.166
Mof_N 	N 	0.0634	0.1355	0.084	-0.368
Mof_N 	N 	0.7761	0.3219	0.8307	-0.135
Mof_N 	N 	0.6926	0.19	0.8463	-0.171
Mof_N 	N 	0.8138	0.2472	0.6656	-0.355
Mof_N 	N 	0.2248	0.3208	0.3642	-0.129
Mof_N 	N 	0.3092	0.187	0.3452	-0.169
Mof_N 	N 	0.1832	0.2395	0.528	-0.394
Mof_N 	N 	0.3128	0.7992	0.5781	-0.147
Mof_N 	N 	0.1911	0.6975	0.6166	-0.166
Mof_N 	N 	0.4366	0.6355	0.584	-0.368
Mof_N 	N 	0.2239	0.6781	0.3307	-0.136
Mof_N 	N 	0.3074	0.81	0.3463	-0.171
Mof_N 	N 	0.1862	0.7528	0.1656	-0.354
Mof_N 	N 	0.7752	0.6792	0.8642	-0.129
Mof_N 	N 	0.6908	0.813	0.8452	-0.168
Mof_N 	N 	0.8168	0.7605	0.028	-0.401
Mof_N 	N 	0.6872	0.2008	0.0781	-0.147
Mof_N 	N 	0.8089	0.3025	0.1166	-0.166
Mof_N 	N 	0.5634	0.3645	0.084	-0.368
Mof_O 	O 	0.3364	0.138	0.7077	-0.343
Mof_O 	O 	0.6652	0.1482	0.4877	-0.403
Mof_O 	O 	0.9742	0.746	0.5947	-0.304
Mof_O 	O 	0.3987	0.8264	0.7396	-0.256
Mof_O 	O 	0.5374	0.8186	0.7418	-0.279
Mof_O 	O 	0.2518	0.0106	0.6221	-0.267
Mof_O 	O 	0.271	0.9641	0.7248	-0.297
Mof_O 	O 	0.5919	0.1994	0.6336	-0.285
Mof_O 	O 	0.5255	0.1744	0.7315	-0.27
Mof_O 	O 	0.6636	0.862	0.2077	-0.342
Mof_O 	O 	0.3348	0.8518	0.9877	-0.399
Mof_O 	O 	0.0258	0.254	0.0947	-0.304
Mof_O 	O 	0.6013	0.1736	0.2396	-0.256
Mof_O 	O 	0.4626	0.1814	0.2418	-0.279
Mof_O 	O 	0.7482	0.9894	0.1221	-0.268
Mof_O 	O 	0.729	0.0359	0.2248	-0.296
Mof_O 	O 	0.4081	0.8006	0.1336	-0.286
Mof_O 	O 	0.4745	0.8256	0.2315	-0.27
Mof_O 	O 	0.8364	0.362	0.7077	-0.343
Mof_O 	O 	0.1652	0.3518	0.4877	-0.403
Mof_O 	O 	0.4742	0.754	0.5947	-0.304
Mof_O 	O 	0.8987	0.6736	0.7396	-0.257
Mof_O 	O 	0.0374	0.6814	0.7418	-0.28
Mof_O 	O 	0.7518	0.4894	0.6221	-0.269
Mof_O 	O 	0.771	0.5359	0.7248	-0.296
Mof_O 	O 	0.0919	0.3006	0.6336	-0.285
Mof_O 	O 	0.0255	0.3256	0.7315	-0.27
Mof_O 	O 	0.1636	0.638	0.2077	-0.342
Mof_O 	O 	0.8348	0.6482	0.9877	-0.399
Mof_O 	O 	0.5258	0.246	0.0947	-0.304
Mof_O 	O 	0.1013	0.3264	0.2396	-0.256
Mof_O 	O 	0.9626	0.3186	0.2418	-0.279
Mof_O 	O 	0.2482	0.5106	0.1221	-0.27
Mof_O 	O 	0.229	0.4641	0.2248	-0.296
Mof_O 	O 	0.9081	0.6994	0.1336	-0.285
Mof_O 	O 	0.9745	0.6744	0.2315	-0.27
Mof_F 	F 	0.3986	0.6802	0.7503	-0.488
Mof_F 	F 	0.4313	0.7184	0.8418	-0.496
Mof_F 	F 	0.5255	0.6787	0.7845	-0.463
Mof_F 	F 	0.092	0.0079	0.6347	-0.468
Mof_F 	F 	0.1149	0.9052	0.6795	-0.47
Mof_F 	F 	0.1049	0.0056	0.7363	-0.441
Mof_F 	F 	0.4913	0.3293	0.6881	-0.556
Mof_F 	F 	0.6219	0.3368	0.6737	-0.443
Mof_F 	F 	0.5804	0.3155	0.7665	-0.458
Mof_F 	F 	0.6014	0.3198	0.2503	-0.488
Mof_F 	F 	0.5687	0.2816	0.3418	-0.497
Mof_F 	F 	0.4745	0.3213	0.2845	-0.464
Mof_F 	F 	0.908	0.9921	0.1347	-0.469
Mof_F 	F 	0.8851	0.0948	0.1795	-0.471
Mof_F 	F 	0.8951	0.9944	0.2363	-0.442
Mof_F 	F 	0.5087	0.6707	0.1881	-0.558
Mof_F 	F 	0.3781	0.6632	0.1737	-0.444
Mof_F 	F 	0.4196	0.6845	0.2665	-0.458
Mof_F 	F 	0.8986	0.8198	0.7503	-0.488
Mof_F 	F 	0.9313	0.7816	0.8418	-0.496
Mof_F 	F 	0.0255	0.8213	0.7845	-0.465
Mof_F 	F 	0.592	0.4921	0.6347	-0.47
Mof_F 	F 	0.6149	0.5948	0.6795	-0.47
Mof_F 	F 	0.6049	0.4944	0.7363	-0.443
Mof_F 	F 	0.9913	0.1707	0.6881	-0.557
Mof_F 	F 	0.1219	0.1632	0.6737	-0.443
Mof_F 	F 	0.0804	0.1845	0.7665	-0.457
Mof_F 	F 	0.1014	0.1802	0.2503	-0.488
Mof_F 	F 	0.0687	0.2184	0.3418	-0.497
Mof_F 	F 	0.9745	0.1787	0.2845	-0.465
Mof_F 	F 	0.408	0.5079	0.1347	-0.471
Mof_F 	F 	0.3851	0.4052	0.1795	-0.471
Mof_F 	F 	0.3951	0.5056	0.2363	-0.444
Mof_F 	F 	0.0087	0.8293	0.1881	-0.559
Mof_F 	F 	0.8781	0.8368	0.1737	-0.444
Mof_F 	F 	0.9196	0.8155	0.2665	-0.459
_end
