data_functionalizedCrystal
_audit_creation_method	'EQeq! by Chris Wilmer'
_symmetry_space_group_name_H-M	'P1'
_symmetry_Int_Tables_number	1
_symmetry_cell_setting	triclinic
loop_
_symmetry_equiv_pos_as_xyz
  x,y,z
_cell_length_a	15.1129
_cell_length_b	12.4966
_cell_length_c	16.848
_cell_angle_alpha	90
_cell_angle_beta	90
_cell_angle_gamma	90
loop_
_atom_site_label
_atom_site_type_symbol
_atom_site_fract_x
_atom_site_fract_y
_atom_site_fract_z
_atom_site_charge
Mof_Cd	Cd	0.10359	0.01264	0.42593	0.505
Mof_O 	O 	0.2086	0.8651	0.4512	-0.241
Mof_O 	O 	0.203	0.0068	0.5257	-0.265
Mof_O 	O 	0.4807	0.6243	0.5056	-0.265
Mof_O 	O 	0.498	0.5847	0.633	-0.252
Mof_O 	O 	0.4047	0.8488	0.8344	-0.247
Mof_O 	O 	0.3255	0.9872	0.7979	-0.242
Mof_C 	C 	0.232	0.9158	0.5102	0.315
Mof_C 	C 	0.2976	0.8671	0.5666	-0.061
Mof_C 	C 	0.3479	0.7792	0.5459	0.021
Mof_H 	H 	0.3443	0.7523	0.4945	0.064
Mof_C 	C 	0.4643	0.6397	0.5775	0.309
Mof_C 	C 	0.4045	0.7296	0.6009	-0.059
Mof_C 	C 	0.4075	0.769	0.6783	0.014
Mof_H 	H 	0.4436	0.736	0.7157	0.072
Mof_C 	C 	0.3618	0.9006	0.7838	0.304
Mof_C 	C 	0.3571	0.8572	0.7	-0.053
Mof_C 	C 	0.3039	0.9069	0.6439	0.014
Mof_H 	H 	0.272	0.9677	0.6579	0.07
Mof_Cd	Cd	0.39641	0.98736	0.92593	0.499
Mof_O 	O 	0.2914	0.1349	0.9512	-0.237
Mof_O 	O 	0.297	0.9932	0.0257	-0.259
Mof_O 	O 	0.0193	0.3757	0.0056	-0.266
Mof_O 	O 	0.002	0.4153	0.133	-0.251
Mof_O 	O 	0.0953	0.1512	0.3344	-0.247
Mof_O 	O 	0.1745	0.0128	0.2979	-0.241
Mof_C 	C 	0.268	0.0842	0.0102	0.304
Mof_C 	C 	0.2024	0.1329	0.0666	-0.056
Mof_C 	C 	0.1521	0.2208	0.0459	0.014
Mof_H 	H 	0.1557	0.2477	0.9945	0.068
Mof_C 	C 	0.0357	0.3603	0.0775	0.308
Mof_C 	C 	0.0955	0.2704	0.1009	-0.056
Mof_C 	C 	0.0925	0.231	0.1783	0.011
Mof_H 	H 	0.0564	0.264	0.2157	0.073
Mof_C 	C 	0.1382	0.0994	0.2838	0.303
Mof_C 	C 	0.1429	0.1428	0.2	-0.051
Mof_C 	C 	0.1961	0.0931	0.1439	0.01
Mof_H 	H 	0.228	0.0323	0.1579	0.071
Mof_Cd	Cd	0.89641	0.51264	0.07407	0.504
Mof_O 	O 	0.7914	0.3651	0.0488	-0.245
Mof_O 	O 	0.797	0.5068	0.9743	-0.268
Mof_O 	O 	0.5193	0.1243	0.9944	-0.264
Mof_O 	O 	0.502	0.0847	0.867	-0.25
Mof_O 	O 	0.5953	0.3488	0.6656	-0.247
Mof_O 	O 	0.6745	0.4872	0.7021	-0.241
Mof_C 	C 	0.768	0.4158	0.9898	0.32
Mof_C 	C 	0.7024	0.3671	0.9334	-0.065
Mof_C 	C 	0.6521	0.2792	0.9541	0.029
Mof_H 	H 	0.6557	0.2523	0.0055	0.06
Mof_C 	C 	0.5357	0.1397	0.9225	0.31
Mof_C 	C 	0.5955	0.2296	0.8991	-0.062
Mof_C 	C 	0.5925	0.269	0.8217	0.016
Mof_H 	H 	0.5564	0.236	0.7843	0.072
Mof_C 	C 	0.6382	0.4006	0.7162	0.304
Mof_C 	C 	0.6429	0.3572	0.8	-0.054
Mof_C 	C 	0.6961	0.4069	0.8561	0.016
Mof_H 	H 	0.728	0.4677	0.8421	0.069
Mof_Cd	Cd	0.60359	0.48736	0.57407	0.504
Mof_O 	O 	0.7086	0.6349	0.5488	-0.243
Mof_O 	O 	0.703	0.4932	0.4743	-0.267
Mof_O 	O 	0.9807	0.8757	0.4944	-0.266
Mof_O 	O 	0.998	0.9153	0.367	-0.252
Mof_O 	O 	0.9047	0.6512	0.1656	-0.247
Mof_O 	O 	0.8255	0.5128	0.2021	-0.241
Mof_C 	C 	0.732	0.5842	0.4898	0.315
Mof_C 	C 	0.7976	0.6329	0.4334	-0.061
Mof_C 	C 	0.8479	0.7208	0.4541	0.021
Mof_H 	H 	0.8443	0.7477	0.5055	0.064
Mof_C 	C 	0.9643	0.8603	0.4225	0.309
Mof_C 	C 	0.9045	0.7704	0.3991	-0.059
Mof_C 	C 	0.9075	0.731	0.3217	0.014
Mof_H 	H 	0.9436	0.764	0.2843	0.072
Mof_C 	C 	0.8618	0.5994	0.2162	0.303
Mof_C 	C 	0.8571	0.6428	0.3	-0.052
Mof_C 	C 	0.8039	0.5931	0.3561	0.014
Mof_H 	H 	0.772	0.5323	0.3421	0.07
Mof_Cd	Cd	0.89641	0.98736	0.57407	0.504
Mof_O 	O 	0.7914	0.1349	0.5488	-0.242
Mof_O 	O 	0.797	0.9932	0.4743	-0.266
Mof_O 	O 	0.5193	0.3757	0.4944	-0.266
Mof_O 	O 	0.502	0.4153	0.367	-0.252
Mof_O 	O 	0.5953	0.1512	0.1656	-0.247
Mof_O 	O 	0.6745	0.0128	0.2021	-0.242
Mof_C 	C 	0.768	0.0842	0.4898	0.315
Mof_C 	C 	0.7024	0.1329	0.4334	-0.061
Mof_C 	C 	0.6521	0.2208	0.4541	0.021
Mof_H 	H 	0.6557	0.2477	0.5055	0.064
Mof_C 	C 	0.5357	0.3603	0.4225	0.309
Mof_C 	C 	0.5955	0.2704	0.3991	-0.059
Mof_C 	C 	0.5925	0.231	0.3217	0.014
Mof_H 	H 	0.5564	0.264	0.2843	0.072
Mof_C 	C 	0.6382	0.0994	0.2162	0.304
Mof_C 	C 	0.6429	0.1428	0.3	-0.053
Mof_C 	C 	0.6961	0.0931	0.3561	0.014
Mof_H 	H 	0.728	0.0323	0.3421	0.07
Mof_Cd	Cd	0.60359	0.01264	0.07407	0.499
Mof_O 	O 	0.7086	0.8651	0.0488	-0.237
Mof_O 	O 	0.703	0.0068	0.9743	-0.259
Mof_O 	O 	0.9807	0.6243	0.9944	-0.266
Mof_O 	O 	0.998	0.5847	0.867	-0.251
Mof_O 	O 	0.9047	0.8488	0.6656	-0.247
Mof_O 	O 	0.8255	0.9872	0.7021	-0.241
Mof_C 	C 	0.732	0.9158	0.9898	0.304
Mof_C 	C 	0.7976	0.8671	0.9334	-0.056
Mof_C 	C 	0.8479	0.7792	0.9541	0.014
Mof_H 	H 	0.8443	0.7523	0.0055	0.068
Mof_C 	C 	0.9643	0.6397	0.9225	0.308
Mof_C 	C 	0.9045	0.7296	0.8991	-0.056
Mof_C 	C 	0.9075	0.769	0.8217	0.011
Mof_H 	H 	0.9436	0.736	0.7843	0.073
Mof_C 	C 	0.8618	0.9006	0.7162	0.303
Mof_C 	C 	0.8571	0.8572	0.8	-0.051
Mof_C 	C 	0.8039	0.9069	0.8561	0.01
Mof_H 	H 	0.772	0.9677	0.8421	0.071
Mof_Cd	Cd	0.10359	0.48736	0.92593	0.504
Mof_O 	O 	0.2086	0.6349	0.9512	-0.245
Mof_O 	O 	0.203	0.4932	0.0257	-0.268
Mof_O 	O 	0.4807	0.8757	0.0056	-0.264
Mof_O 	O 	0.498	0.9153	0.133	-0.25
Mof_O 	O 	0.4047	0.6512	0.3344	-0.247
Mof_O 	O 	0.3255	0.5128	0.2979	-0.241
Mof_C 	C 	0.232	0.5842	0.0102	0.32
Mof_C 	C 	0.2976	0.6329	0.0666	-0.065
Mof_C 	C 	0.3479	0.7208	0.0459	0.029
Mof_H 	H 	0.3443	0.7477	0.9945	0.06
Mof_C 	C 	0.4643	0.8603	0.0775	0.31
Mof_C 	C 	0.4045	0.7704	0.1009	-0.062
Mof_C 	C 	0.4075	0.731	0.1783	0.016
Mof_H 	H 	0.4436	0.764	0.2157	0.072
Mof_C 	C 	0.3618	0.5994	0.2838	0.304
Mof_C 	C 	0.3571	0.6428	0.2	-0.054
Mof_C 	C 	0.3039	0.5931	0.1439	0.016
Mof_H 	H 	0.272	0.5323	0.1579	0.069
Mof_Cd	Cd	0.39641	0.51264	0.42593	0.504
Mof_O 	O 	0.2914	0.3651	0.4512	-0.243
Mof_O 	O 	0.297	0.5068	0.5257	-0.267
Mof_O 	O 	0.0193	0.1243	0.5056	-0.266
Mof_O 	O 	0.002	0.0847	0.633	-0.252
Mof_O 	O 	0.0953	0.3488	0.8344	-0.247
Mof_O 	O 	0.1745	0.4872	0.7979	-0.241
Mof_C 	C 	0.268	0.4158	0.5102	0.315
Mof_C 	C 	0.2024	0.3671	0.5666	-0.061
Mof_C 	C 	0.1521	0.2792	0.5459	0.021
Mof_H 	H 	0.1557	0.2523	0.4945	0.064
Mof_C 	C 	0.0357	0.1397	0.5775	0.309
Mof_C 	C 	0.0955	0.2296	0.6009	-0.059
Mof_C 	C 	0.0925	0.269	0.6783	0.014
Mof_H 	H 	0.0564	0.236	0.7157	0.072
Mof_C 	C 	0.1382	0.4006	0.7838	0.303
Mof_C 	C 	0.1429	0.3572	0.7	-0.052
Mof_C 	C 	0.1961	0.4069	0.6439	0.014
Mof_H 	H 	0.228	0.4677	0.6579	0.07
_end
