data_functionalizedCrystal
_audit_creation_method	'EQeq! by Chris Wilmer'
_symmetry_space_group_name_H-M	'P1'
_symmetry_Int_Tables_number	1
_symmetry_cell_setting	triclinic
loop_
_symmetry_equiv_pos_as_xyz
  x,y,z
_cell_length_a	9.4902
_cell_length_b	13.9123
_cell_length_c	16.7437
_cell_angle_alpha	83.044
_cell_angle_beta	75.802
_cell_angle_gamma	88.309
loop_
_atom_site_label
_atom_site_type_symbol
_atom_site_fract_x
_atom_site_fract_y
_atom_site_fract_z
_atom_site_charge
Mof_Pr	Pr	0.7054	0.0613	0.44673	2.335
Mof_Pr	Pr	0.2946	0.9387	0.55327	2.335
Mof_H 	H 	0.6849	0.8006	0.9544	0.056
Mof_H 	H 	0.6795	0.786	0.1032	0.056
Mof_H 	H 	0.9112	0.5456	0.3092	0.06
Mof_H 	H 	0.071	0.4033	0.2946	0.055
Mof_H 	H 	0.9976	0.4934	0.0719	0.14
Mof_H 	H 	0.9718	0.7893	0.7451	0.057
Mof_H 	H 	0.8724	0.8905	0.6516	-0.035
Mof_H 	H 	0.4772	0.7775	0.7584	-0.026
Mof_H 	H 	0.5734	0.6843	0.8579	0.098
Mof_H 	H 	0.566	0.6185	0.2467	0.098
Mof_H 	H 	0.4389	0.7077	0.3503	-0.002
Mof_H 	H 	0.8054	0.8479	0.3468	-0.037
Mof_H 	H 	0.9313	0.7622	0.2403	0.101
Mof_H 	H 	0.3151	0.1994	0.0456	0.056
Mof_H 	H 	0.3205	0.214	0.8968	0.056
Mof_H 	H 	0.0888	0.4544	0.6908	0.06
Mof_H 	H 	0.929	0.5967	0.7054	0.055
Mof_H 	H 	0.0024	0.5066	0.9281	0.14
Mof_H 	H 	0.0282	0.2107	0.2549	0.057
Mof_H 	H 	0.1276	0.1095	0.3484	-0.035
Mof_H 	H 	0.5228	0.2225	0.2416	-0.026
Mof_H 	H 	0.4266	0.3157	0.1421	0.098
Mof_H 	H 	0.434	0.3815	0.7533	0.098
Mof_H 	H 	0.5611	0.2923	0.6497	-0.002
Mof_H 	H 	0.1946	0.1521	0.6532	-0.037
Mof_H 	H 	0.0687	0.2378	0.7597	0.101
Mof_C 	C 	0.817	0.6731	0.9498	0.11
Mof_C 	C 	0.7312	0.7519	0.9838	-0.085
Mof_C 	C 	0.7285	0.744	0.0647	-0.081
Mof_C 	C 	0.8133	0.6603	0.0829	0.111
Mof_C 	C 	0.839	0.6303	0.1611	-0.141
Mof_C 	C 	0.9265	0.551	0.1791	0.129
Mof_C 	C 	0.95	0.5175	0.2594	-0.09
Mof_C 	C 	0.0362	0.4396	0.2516	-0.089
Mof_C 	C 	0.0669	0.4204	0.1663	0.126
Mof_C 	C 	0.8471	0.6556	0.8672	-0.141
Mof_C 	C 	0.7835	0.7228	0.809	0.149
Mof_C 	C 	0.8706	0.7865	0.7486	-0.204
Mof_C 	C 	0.811	0.8468	0.6925	0.136
Mof_C 	C 	0.6665	0.8444	0.6953	-0.234
Mof_C 	C 	0.5779	0.7813	0.7562	0.133
Mof_C 	C 	0.6362	0.7237	0.8141	-0.208
Mof_C 	C 	0.6044	0.9056	0.6308	0.523
Mof_C 	C 	0.7632	0.6829	0.2312	0.156
Mof_C 	C 	0.6153	0.6661	0.2658	-0.205
Mof_C 	C 	0.5401	0.7187	0.3283	0.13
Mof_C 	C 	0.6089	0.7867	0.359	-0.238
Mof_C 	C 	0.7555	0.8021	0.3261	0.143
Mof_C 	C 	0.8304	0.7504	0.2626	-0.218
Mof_C 	C 	0.5206	0.8428	0.424	0.495
Mof_C 	C 	0.9995	0.0471	0.52	0.271
Mof_C 	C 	0.183	0.3269	0.0502	0.11
Mof_C 	C 	0.2688	0.2481	0.0162	-0.085
Mof_C 	C 	0.2715	0.256	0.9353	-0.081
Mof_C 	C 	0.1867	0.3397	0.9171	0.111
Mof_C 	C 	0.161	0.3697	0.8389	-0.141
Mof_C 	C 	0.0735	0.449	0.8209	0.129
Mof_C 	C 	0.05	0.4825	0.7406	-0.09
Mof_C 	C 	0.9638	0.5604	0.7484	-0.089
Mof_C 	C 	0.9331	0.5796	0.8337	0.126
Mof_C 	C 	0.1529	0.3444	0.1328	-0.141
Mof_C 	C 	0.2165	0.2772	0.191	0.149
Mof_C 	C 	0.1294	0.2135	0.2514	-0.204
Mof_C 	C 	0.189	0.1532	0.3075	0.136
Mof_C 	C 	0.3335	0.1556	0.3047	-0.234
Mof_C 	C 	0.4221	0.2187	0.2438	0.133
Mof_C 	C 	0.3638	0.2763	0.1859	-0.208
Mof_C 	C 	0.3956	0.0944	0.3692	0.523
Mof_C 	C 	0.2368	0.3171	0.7688	0.156
Mof_C 	C 	0.3847	0.3339	0.7342	-0.205
Mof_C 	C 	0.4599	0.2813	0.6717	0.13
Mof_C 	C 	0.3911	0.2133	0.641	-0.238
Mof_C 	C 	0.2445	0.1979	0.6739	0.143
Mof_C 	C 	0.1696	0.2496	0.7374	-0.218
Mof_C 	C 	0.4794	0.1572	0.576	0.495
Mof_C 	C 	0.0005	0.9529	0.48	0.271
Mof_N 	N 	0.8663	0.6182	0.0119	-0.146
Mof_N 	N 	0.9971	0.4894	0.1248	-0.225
Mof_N 	N 	0.1337	0.3818	0.9881	-0.146
Mof_N 	N 	0.0029	0.5106	0.8752	-0.225
Mof_O 	O 	0.6855	0.9693	0.5839	-0.546
Mof_O 	O 	0.4753	0.8861	0.6293	-0.609
Mof_O 	O 	0.5776	0.9145	0.445	-0.655
Mof_O 	O 	0.3941	0.8165	0.4568	-0.534
Mof_O 	O 	0.9121	0.1114	0.5027	-0.454
Mof_O 	O 	0.0853	0.0536	0.5648	-0.465
Mof_O 	O 	0.3145	0.0307	0.4161	-0.546
Mof_O 	O 	0.5247	0.1139	0.3707	-0.609
Mof_O 	O 	0.4224	0.0855	0.555	-0.655
Mof_O 	O 	0.6059	0.1835	0.5432	-0.534
Mof_O 	O 	0.0879	0.8886	0.4973	-0.454
Mof_O 	O 	0.9147	0.9464	0.4352	-0.465
_end
