data_functionalizedCrystal
_audit_creation_method	'EQeq! by Chris Wilmer'
_symmetry_space_group_name_H-M	'P1'
_symmetry_Int_Tables_number	1
_symmetry_cell_setting	triclinic
loop_
_symmetry_equiv_pos_as_xyz
  x,y,z
_cell_length_a	8.978
_cell_length_b	8.978
_cell_length_c	11.934
_cell_angle_alpha	90
_cell_angle_beta	90
_cell_angle_gamma	90
loop_
_atom_site_label
_atom_site_type_symbol
_atom_site_fract_x
_atom_site_fract_y
_atom_site_fract_z
_atom_site_charge
Mof_C 	C 	0.261	0.122	0.127	-0.073
Mof_C 	C 	0.514	0.266	0.924	-0.051
Mof_C 	C 	0.739	0.878	0.627	-0.067
Mof_C 	C 	0.486	0.734	0.424	-0.075
Mof_C 	C 	0.378	0.761	0.377	-0.069
Mof_C 	C 	0.234	0.014	0.174	-0.078
Mof_C 	C 	0.622	0.239	0.877	-0.07
Mof_C 	C 	0.766	0.986	0.674	-0.072
Mof_C 	C 	0.239	0.622	0.123	-0.074
Mof_C 	C 	0.986	0.766	0.326	-0.077
Mof_C 	C 	0.761	0.378	0.623	-0.069
Mof_C 	C 	0.014	0.234	0.826	-0.074
Mof_C 	C 	0.122	0.261	0.873	-0.048
Mof_C 	C 	0.266	0.514	0.076	-0.082
Mof_C 	C 	0.878	0.739	0.373	-0.071
Mof_C 	C 	0.734	0.486	0.576	-0.074
Mof_Cd	Cd	0.2963	0.2963	-0	0.259
Mof_Cd	Cd	0.7037	0.7037	0.5	0.288
Mof_Cd	Cd	0.2037	0.7963	0.25	0.285
Mof_Cd	Cd	0.7963	0.2037	0.75	0.292
_end
