data_functionalizedCrystal
_audit_creation_method	'EQeq! by Chris Wilmer'
_symmetry_space_group_name_H-M	'P1'
_symmetry_Int_Tables_number	1
_symmetry_cell_setting	triclinic
loop_
_symmetry_equiv_pos_as_xyz
  x,y,z
_cell_length_a	9.7651
_cell_length_b	9.7651
_cell_length_c	11.328
_cell_angle_alpha	104.578
_cell_angle_beta	104.578
_cell_angle_gamma	94.3408
loop_
_atom_site_label
_atom_site_type_symbol
_atom_site_fract_x
_atom_site_fract_y
_atom_site_fract_z
_atom_site_charge
Mof_Na	Na	-0	0	-0	1.319
Mof_Na	Na	-1.42029e-17	2.84057e-17	0.5	1.522
Mof_Zn	Zn	0.88503	0.11497	0.75	1.212
Mof_Zn	Zn	0.11497	0.88503	0.25	1.214
Mof_H 	H 	0.753	0.5014	0.2882	0.104
Mof_H 	H 	0.5014	0.753	0.7882	0.162
Mof_H 	H 	0.247	0.4986	0.7118	0.099
Mof_H 	H 	0.7302	0.787	0.923	-0.034
Mof_H 	H 	0.7874	0.3092	0.3698	-0.007
Mof_H 	H 	0.8785	0.5701	0.7217	0.052
Mof_H 	H 	0.5701	0.8785	0.2217	0.01
Mof_H 	H 	0.4299	0.1215	0.7783	0.021
Mof_H 	H 	0.2126	0.6908	0.6302	-0.015
Mof_H 	H 	0.6908	0.2126	0.1302	0.05
Mof_H 	H 	0.1215	0.4299	0.2783	-0.033
Mof_H 	H 	0.787	0.7302	0.423	0.009
Mof_H 	H 	0.3092	0.7874	0.8698	-0.052
Mof_H 	H 	0.213	0.2698	0.577	-0.058
Mof_H 	H 	0.4986	0.247	0.2118	0.025
Mof_H 	H 	0.2698	0.213	0.077	0.014
Mof_C 	C 	0.4203	0.8365	0.0534	-0.29
Mof_C 	C 	0.1419	0.7057	0.3947	0.406
Mof_C 	C 	0.5157	0.7797	0.8757	-0.296
Mof_C 	C 	0.5797	0.1635	0.9466	-0.056
Mof_C 	C 	0.7057	0.1419	0.8947	0.339
Mof_C 	C 	0.2203	0.4843	0.6243	-0.237
Mof_C 	C 	0.2006	0.3474	0.5438	0.138
Mof_C 	C 	0.4433	0.1453	0.8657	-0.002
Mof_C 	C 	0.1368	0.1786	0.3233	0.479
Mof_C 	C 	0.6526	0.7994	0.9562	0.284
Mof_C 	C 	0.7993	0.4007	0.4245	0.126
Mof_C 	C 	0.8214	0.8632	0.1767	0.499
Mof_C 	C 	0.2007	0.5993	0.5755	0.124
Mof_C 	C 	0.3262	0.1622	0.9135	-0.107
Mof_C 	C 	0.5993	0.2007	0.0755	-0.1
Mof_C 	C 	0.2943	0.8581	0.1053	0.471
Mof_C 	C 	0.5567	0.8547	0.1343	0.233
Mof_C 	C 	0.1786	0.1368	0.8233	0.424
Mof_C 	C 	0.4007	0.7993	0.9245	0.299
Mof_C 	C 	0.1453	0.4433	0.3657	0.145
Mof_C 	C 	0.7994	0.6526	0.4562	0.117
Mof_C 	C 	0.7797	0.5157	0.3757	-0.15
Mof_C 	C 	0.1622	0.3262	0.4135	-0.284
Mof_C 	C 	0.8632	0.8214	0.6767	0.451
Mof_C 	C 	0.8365	0.4203	0.5534	-0.155
Mof_C 	C 	0.8378	0.6738	0.5865	-0.15
Mof_C 	C 	0.3474	0.2006	0.0438	-0.086
Mof_C 	C 	0.8547	0.5567	0.6343	0.121
Mof_C 	C 	0.6738	0.8378	0.0865	-0.281
Mof_C 	C 	0.8581	0.2943	0.6053	0.433
Mof_C 	C 	0.4843	0.2203	0.1243	-0.042
Mof_C 	C 	0.1635	0.5797	0.4466	-0.233
Mof_O 	O 	0.3138	0.8864	0.2235	-0.401
Mof_O 	O 	0.85654	0.92458	0.6255	-0.469
Mof_O 	O 	0.1737	0.8445	0.0315	-0.541
Mof_O 	O 	0.8263	0.1555	0.9685	-0.433
Mof_O 	O 	0.6862	0.1136	0.7765	-0.477
Mof_O 	O 	0.1126	0.1626	0.2084	-0.626
Mof_O 	O 	0.1136	0.6862	0.2765	-0.5
Mof_O 	O 	0.8445	0.1737	0.5315	-0.541
Mof_O 	O 	0.14346	0.07542	0.3745	-0.784
Mof_O 	O 	0.8864	0.3138	0.7235	-0.393
Mof_O 	O 	0.1626	0.1126	0.7084	-0.62
Mof_O 	O 	0.1555	0.8263	0.4685	-0.492
Mof_O 	O 	0.07542	0.14346	0.8745	-0.725
Mof_O 	O 	0.8874	0.8374	0.7916	-0.357
Mof_O 	O 	0.8374	0.8874	0.2916	-0.404
Mof_O 	O 	0.92458	0.85654	0.1255	-0.471
_end
