data_functionalizedCrystal
_audit_creation_method	'EQeq! by Chris Wilmer'
_symmetry_space_group_name_H-M	'P1'
_symmetry_Int_Tables_number	1
_symmetry_cell_setting	triclinic
loop_
_symmetry_equiv_pos_as_xyz
  x,y,z
_cell_length_a	18.5486
_cell_length_b	18.5486
_cell_length_c	9.8538
_cell_angle_alpha	90
_cell_angle_beta	90
_cell_angle_gamma	120
loop_
_atom_site_label
_atom_site_type_symbol
_atom_site_fract_x
_atom_site_fract_y
_atom_site_fract_z
_atom_site_charge
Mof_C 	C 	0.37299	0.21578	0.33107	0.678
Mof_H 	H 	0.4055	0.2165	0.2589	-0.89
Mof_N 	N 	0.4301	0.2194	0.2351	0.799
Mof_H 	H 	0.4596	0.2646	0.19	-0.133
Mof_H 	H 	0.4356	0.1765	0.2208	-0.19
Mof_N 	N 	0.35947	0.27741	0.36023	-0.334
Mof_C 	C 	0.03966	0.54911	0.6644	0.676
Mof_H 	H 	0.07217	0.54983	0.59223	-0.889
Mof_N 	N 	0.09677	0.55273	0.56843	0.8
Mof_H 	H 	0.12627	0.59793	0.52333	-0.132
Mof_H 	H 	0.10227	0.50983	0.55413	-0.19
Mof_N 	N 	0.02614	0.61074	0.69356	-0.336
Mof_C 	C 	0.70632	0.88245	0.99774	0.682
Mof_H 	H 	0.73883	0.88317	0.92557	-0.892
Mof_N 	N 	0.76343	0.88607	0.90177	0.802
Mof_H 	H 	0.79293	0.93127	0.85667	-0.129
Mof_H 	H 	0.76893	0.84317	0.88747	-0.189
Mof_N 	N 	0.6928	0.94408	0.0269	-0.331
Mof_C 	C 	0.78422	0.15721	0.33107	0.68
Mof_H 	H 	0.7835	0.189	0.2589	-0.89
Mof_N 	N 	0.7806	0.2107	0.2351	0.801
Mof_H 	H 	0.7354	0.195	0.19	-0.132
Mof_H 	H 	0.8235	0.2591	0.2208	-0.189
Mof_N 	N 	0.72259	0.08206	0.36023	-0.334
Mof_C 	C 	0.45089	0.49054	0.6644	0.679
Mof_H 	H 	0.45017	0.52233	0.59223	-0.89
Mof_N 	N 	0.44727	0.54403	0.56843	0.8
Mof_H 	H 	0.40207	0.52833	0.52333	-0.132
Mof_H 	H 	0.49017	0.59243	0.55413	-0.189
Mof_N 	N 	0.38926	0.41539	0.69356	-0.333
Mof_C 	C 	0.11755	0.82388	0.99774	0.681
Mof_H 	H 	0.11683	0.85567	0.92557	-0.889
Mof_N 	N 	0.11393	0.87737	0.90177	0.798
Mof_H 	H 	0.06873	0.86167	0.85667	-0.132
Mof_H 	H 	0.15683	0.92577	0.88747	-0.186
Mof_N 	N 	0.05592	0.74873	0.0269	-0.337
Mof_C 	C 	0.84279	0.62701	0.33107	0.68
Mof_H 	H 	0.811	0.5945	0.2589	-0.89
Mof_N 	N 	0.7893	0.5699	0.2351	0.801
Mof_H 	H 	0.805	0.5404	0.19	-0.132
Mof_H 	H 	0.7409	0.5644	0.2208	-0.189
Mof_N 	N 	0.91794	0.64053	0.36023	-0.331
Mof_C 	C 	0.50946	0.96034	0.6644	0.686
Mof_H 	H 	0.47767	0.92783	0.59223	-0.885
Mof_N 	N 	0.45597	0.90323	0.56843	0.794
Mof_H 	H 	0.47167	0.87373	0.52333	-0.13
Mof_H 	H 	0.40757	0.89773	0.55413	-0.186
Mof_N 	N 	0.58461	0.97386	0.69356	-0.33
Mof_C 	C 	0.17612	0.29368	0.99774	0.677
Mof_H 	H 	0.14433	0.26117	0.92557	-0.888
Mof_N 	N 	0.12263	0.23657	0.90177	0.799
Mof_H 	H 	0.13833	0.20707	0.85667	-0.133
Mof_H 	H 	0.07423	0.23107	0.88747	-0.191
Mof_N 	N 	0.25127	0.3072	0.0269	-0.333
Mof_C 	C 	0.21578	0.37299	0.16893	0.679
Mof_H 	H 	0.2165	0.4055	0.2411	-0.889
Mof_N 	N 	0.2194	0.4301	0.2649	0.8
Mof_H 	H 	0.2646	0.4596	0.31	-0.132
Mof_H 	H 	0.1765	0.4356	0.2792	-0.19
Mof_N 	N 	0.27741	0.35947	0.13977	-0.333
Mof_C 	C 	0.88245	0.70632	0.50226	0.682
Mof_H 	H 	0.88317	0.73883	0.57443	-0.892
Mof_N 	N 	0.88607	0.76343	0.59823	0.802
Mof_H 	H 	0.93127	0.79293	0.64333	-0.129
Mof_H 	H 	0.84317	0.76893	0.61253	-0.189
Mof_N 	N 	0.94408	0.6928	0.4731	-0.331
Mof_C 	C 	0.54911	0.03966	0.8356	0.676
Mof_H 	H 	0.54983	0.07217	0.90777	-0.889
Mof_N 	N 	0.55273	0.09677	0.93157	0.8
Mof_H 	H 	0.59793	0.12627	0.97667	-0.133
Mof_H 	H 	0.50983	0.10227	0.94587	-0.19
Mof_N 	N 	0.61074	0.02614	0.80644	-0.337
Mof_C 	C 	0.15721	0.78422	0.16893	0.679
Mof_H 	H 	0.189	0.7835	0.2411	-0.89
Mof_N 	N 	0.2107	0.7806	0.2649	0.801
Mof_H 	H 	0.195	0.7354	0.31	-0.132
Mof_H 	H 	0.2591	0.8235	0.2792	-0.189
Mof_N 	N 	0.08206	0.72259	0.13977	-0.335
Mof_C 	C 	0.82388	0.11755	0.50226	0.68
Mof_H 	H 	0.85567	0.11683	0.57443	-0.89
Mof_N 	N 	0.87737	0.11393	0.59823	0.801
Mof_H 	H 	0.86167	0.06873	0.64333	-0.133
Mof_H 	H 	0.92577	0.15683	0.61253	-0.187
Mof_N 	N 	0.74873	0.05592	0.4731	-0.336
Mof_C 	C 	0.49054	0.45089	0.8356	0.679
Mof_H 	H 	0.52233	0.45017	0.90777	-0.889
Mof_N 	N 	0.54403	0.44727	0.93157	0.8
Mof_H 	H 	0.52833	0.40207	0.97667	-0.132
Mof_H 	H 	0.59243	0.49017	0.94587	-0.189
Mof_N 	N 	0.41539	0.38926	0.80644	-0.333
Mof_C 	C 	0.62701	0.84279	0.16893	0.68
Mof_H 	H 	0.5945	0.811	0.2411	-0.89
Mof_N 	N 	0.5699	0.7893	0.2649	0.801
Mof_H 	H 	0.5404	0.805	0.31	-0.132
Mof_H 	H 	0.5644	0.7409	0.2792	-0.189
Mof_N 	N 	0.64053	0.91794	0.13977	-0.331
Mof_C 	C 	0.29368	0.17612	0.50226	0.677
Mof_H 	H 	0.26117	0.14433	0.57443	-0.888
Mof_N 	N 	0.23657	0.12263	0.59823	0.799
Mof_H 	H 	0.20707	0.13833	0.64333	-0.133
Mof_H 	H 	0.23107	0.07423	0.61253	-0.192
Mof_N 	N 	0.3072	0.25127	0.4731	-0.333
Mof_C 	C 	0.96034	0.50946	0.8356	0.685
Mof_H 	H 	0.92783	0.47767	0.90777	-0.886
Mof_N 	N 	0.90323	0.45597	0.93157	0.794
Mof_H 	H 	0.87373	0.47167	0.97667	-0.13
Mof_H 	H 	0.89773	0.40757	0.94587	-0.186
Mof_N 	N 	0.97386	0.58461	0.80644	-0.33
Mof_C 	C 	0.62701	0.78422	0.66893	0.68
Mof_H 	H 	0.5945	0.7835	0.7411	-0.89
Mof_N 	N 	0.5699	0.7806	0.7649	0.801
Mof_H 	H 	0.5404	0.7354	0.81	-0.132
Mof_H 	H 	0.5644	0.8235	0.7792	-0.189
Mof_N 	N 	0.64053	0.72259	0.63977	-0.333
Mof_C 	C 	0.29368	0.11755	0.00226	0.678
Mof_H 	H 	0.26117	0.11683	0.07443	-0.888
Mof_N 	N 	0.23657	0.11393	0.09823	0.798
Mof_H 	H 	0.20707	0.06873	0.14333	-0.134
Mof_H 	H 	0.23107	0.15683	0.11253	-0.19
Mof_N 	N 	0.3072	0.05592	0.9731	-0.336
Mof_C 	C 	0.96034	0.45089	0.3356	0.686
Mof_H 	H 	0.92783	0.45017	0.40777	-0.885
Mof_N 	N 	0.90323	0.44727	0.43157	0.793
Mof_H 	H 	0.87373	0.40207	0.47667	-0.13
Mof_H 	H 	0.89773	0.49017	0.44587	-0.186
Mof_N 	N 	0.97386	0.38926	0.30644	-0.33
Mof_C 	C 	0.21578	0.84279	0.66893	0.68
Mof_H 	H 	0.2165	0.811	0.7411	-0.89
Mof_N 	N 	0.2194	0.7893	0.7649	0.8
Mof_H 	H 	0.2646	0.805	0.81	-0.132
Mof_H 	H 	0.1765	0.7409	0.7792	-0.189
Mof_N 	N 	0.27741	0.91794	0.63977	-0.331
Mof_C 	C 	0.88245	0.17612	0.00226	0.682
Mof_H 	H 	0.88317	0.14433	0.07443	-0.889
Mof_N 	N 	0.88607	0.12263	0.09823	0.799
Mof_H 	H 	0.93127	0.13833	0.14333	-0.129
Mof_H 	H 	0.84317	0.07423	0.11253	-0.19
Mof_N 	N 	0.94408	0.25127	0.9731	-0.332
Mof_C 	C 	0.54911	0.50946	0.3356	0.679
Mof_H 	H 	0.54983	0.47767	0.40777	-0.89
Mof_N 	N 	0.55273	0.45597	0.43157	0.8
Mof_H 	H 	0.59793	0.47167	0.47667	-0.132
Mof_H 	H 	0.50983	0.40757	0.44587	-0.189
Mof_N 	N 	0.61074	0.58461	0.30644	-0.333
Mof_C 	C 	0.15721	0.37299	0.66893	0.679
Mof_H 	H 	0.189	0.4055	0.7411	-0.89
Mof_N 	N 	0.2107	0.4301	0.7649	0.8
Mof_H 	H 	0.195	0.4596	0.81	-0.132
Mof_H 	H 	0.2591	0.4356	0.7792	-0.189
Mof_N 	N 	0.08206	0.35947	0.63977	-0.334
Mof_C 	C 	0.82388	0.70632	0.00226	0.682
Mof_H 	H 	0.85567	0.73883	0.07443	-0.891
Mof_N 	N 	0.87737	0.76343	0.09823	0.801
Mof_H 	H 	0.86167	0.79293	0.14333	-0.13
Mof_H 	H 	0.92577	0.76893	0.11253	-0.186
Mof_N 	N 	0.74873	0.6928	0.9731	-0.334
Mof_C 	C 	0.49054	0.03966	0.3356	0.677
Mof_H 	H 	0.52233	0.07217	0.40777	-0.889
Mof_N 	N 	0.54403	0.09677	0.43157	0.8
Mof_H 	H 	0.52833	0.12627	0.47667	-0.132
Mof_H 	H 	0.59243	0.10227	0.44587	-0.19
Mof_N 	N 	0.41539	0.02614	0.30644	-0.336
Mof_C 	C 	0.78422	0.62701	0.83107	0.68
Mof_H 	H 	0.7835	0.5945	0.7589	-0.89
Mof_N 	N 	0.7806	0.5699	0.7351	0.801
Mof_H 	H 	0.7354	0.5404	0.69	-0.132
Mof_H 	H 	0.8235	0.5644	0.7208	-0.189
Mof_N 	N 	0.72259	0.64053	0.86023	-0.333
Mof_C 	C 	0.45089	0.96034	0.1644	0.685
Mof_H 	H 	0.45017	0.92783	0.09223	-0.886
Mof_N 	N 	0.44727	0.90323	0.06843	0.794
Mof_H 	H 	0.40207	0.87373	0.02333	-0.13
Mof_H 	H 	0.49017	0.89773	0.05413	-0.186
Mof_N 	N 	0.38926	0.97386	0.19356	-0.33
Mof_C 	C 	0.11755	0.29368	0.49774	0.677
Mof_H 	H 	0.11683	0.26117	0.42557	-0.888
Mof_N 	N 	0.11393	0.23657	0.40177	0.799
Mof_H 	H 	0.06873	0.20707	0.35667	-0.134
Mof_H 	H 	0.15683	0.23107	0.38747	-0.19
Mof_N 	N 	0.05592	0.3072	0.5269	-0.335
Mof_C 	C 	0.84279	0.21578	0.83107	0.679
Mof_H 	H 	0.811	0.2165	0.7589	-0.89
Mof_N 	N 	0.7893	0.2194	0.7351	0.8
Mof_H 	H 	0.805	0.2646	0.69	-0.132
Mof_H 	H 	0.7409	0.1765	0.7208	-0.19
Mof_N 	N 	0.91794	0.27741	0.86023	-0.331
Mof_C 	C 	0.50946	0.54911	0.1644	0.679
Mof_H 	H 	0.47767	0.54983	0.09223	-0.89
Mof_N 	N 	0.45597	0.55273	0.06843	0.8
Mof_H 	H 	0.47167	0.59793	0.02333	-0.132
Mof_H 	H 	0.40757	0.50983	0.05413	-0.189
Mof_N 	N 	0.58461	0.61074	0.19356	-0.333
Mof_C 	C 	0.17612	0.88245	0.49774	0.68
Mof_H 	H 	0.14433	0.88317	0.42557	-0.89
Mof_N 	N 	0.12263	0.88607	0.40177	0.801
Mof_H 	H 	0.13833	0.93127	0.35667	-0.13
Mof_H 	H 	0.07423	0.84317	0.38747	-0.191
Mof_N 	N 	0.25127	0.94408	0.5269	-0.33
Mof_C 	C 	0.37299	0.15721	0.83107	0.679
Mof_H 	H 	0.4055	0.189	0.7589	-0.89
Mof_N 	N 	0.4301	0.2107	0.7351	0.8
Mof_H 	H 	0.4596	0.195	0.69	-0.132
Mof_H 	H 	0.4356	0.2591	0.7208	-0.189
Mof_N 	N 	0.35947	0.08206	0.86023	-0.335
Mof_C 	C 	0.03966	0.49054	0.1644	0.677
Mof_H 	H 	0.07217	0.52233	0.09223	-0.889
Mof_N 	N 	0.09677	0.54403	0.06843	0.8
Mof_H 	H 	0.12627	0.52833	0.02333	-0.132
Mof_H 	H 	0.10227	0.59243	0.05413	-0.19
Mof_N 	N 	0.02614	0.41539	0.19356	-0.337
Mof_C 	C 	0.70632	0.82388	0.49774	0.681
Mof_H 	H 	0.73883	0.85567	0.42557	-0.891
Mof_N 	N 	0.76343	0.87737	0.40177	0.801
Mof_H 	H 	0.79293	0.86167	0.35667	-0.131
Mof_H 	H 	0.76893	0.92577	0.38747	-0.187
Mof_N 	N 	0.6928	0.74873	0.5269	-0.333
Mof_Zn	Zn	0.37641	0.37641	0.25	1.242
Mof_Zn	Zn	0.04308	0.70975	0.58333	1.241
Mof_Zn	Zn	0.70975	0.04308	0.91667	1.24
Mof_Zn	Zn	0.62359	0	0.25	1.24
Mof_Zn	Zn	0.29025	0.33333	0.58333	1.242
Mof_Zn	Zn	0.95692	0.66667	0.91667	1.244
Mof_Zn	Zn	2.2457e-17	0.62359	0.25	1.24
Mof_Zn	Zn	0.66667	0.95692	0.58333	1.244
Mof_Zn	Zn	0.33333	0.29025	0.91667	1.242
Mof_Zn	Zn	0.62359	0.62359	0.75	1.242
Mof_Zn	Zn	0.29025	0.95692	0.08333	1.244
Mof_Zn	Zn	0.95692	0.29025	0.41667	1.244
Mof_Zn	Zn	0.37641	-8.59793e-33	0.75	1.24
Mof_Zn	Zn	0.04308	0.33333	0.08333	1.241
Mof_Zn	Zn	0.70975	0.66667	0.41667	1.242
Mof_Zn	Zn	-1.00722e-17	0.37641	0.75	1.24
Mof_Zn	Zn	0.66667	0.70975	0.08333	1.242
Mof_Zn	Zn	0.33333	0.04308	0.41667	1.241
Mof_F 	F 	0.41214	0.33333	0.08333	-0.654
Mof_F 	F 	0.66667	0.0788	0.08333	-0.655
Mof_F 	F 	0.33333	0.41214	0.41667	-0.654
Mof_F 	F 	0.9212	0.58786	0.08333	-0.651
Mof_F 	F 	0.25453	0.25453	0.75	-0.655
Mof_F 	F 	2.86494e-17	0.74547	0.75	-0.658
Mof_F 	F 	0.0788	0.66667	0.41667	-0.656
Mof_F 	F 	0.74547	-8.59793e-33	0.75	-0.659
Mof_F 	F 	0.58786	0.9212	0.41667	-0.652
Mof_F 	F 	0.58786	0.66667	0.91667	-0.654
Mof_F 	F 	0.25453	0	0.25	-0.659
Mof_F 	F 	0.9212	0.33333	0.58333	-0.652
Mof_F 	F 	0.33333	0.9212	0.91667	-0.651
Mof_F 	F 	3.09621e-18	0.25453	0.25	-0.659
Mof_F 	F 	0.0788	0.41214	0.91667	-0.655
Mof_F 	F 	0.74547	0.74547	0.25	-0.654
Mof_F 	F 	0.66667	0.58786	0.58333	-0.654
Mof_F 	F 	0.41214	0.0788	0.58333	-0.656
Mof_N 	N 	0.33333	0.15071	0.41667	-0.459
Mof_N 	N 	6.73711e-17	0.48404	0.75	-0.463
Mof_N 	N 	0.84929	0.18263	0.41667	-0.458
Mof_N 	N 	0.51596	0.51596	0.75	-0.458
Mof_N 	N 	0.81737	0.66667	0.41667	-0.459
Mof_N 	N 	0.48404	-8.59793e-33	0.75	-0.464
Mof_N 	N 	0.15071	0.33333	0.08333	-0.459
Mof_N 	N 	0.18263	0.84929	0.08333	-0.459
Mof_N 	N 	0.66667	0.81737	0.08333	-0.459
Mof_N 	N 	0.66667	0.84929	0.58333	-0.458
Mof_N 	N 	0.15071	0.81737	0.58333	-0.459
Mof_N 	N 	0.18263	0.33333	0.58333	-0.458
Mof_N 	N 	0.84929	0.66667	0.91667	-0.458
Mof_N 	N 	0.51596	0	0.25	-0.463
Mof_N 	N 	0.81737	0.15071	0.91667	-0.46
Mof_N 	N 	0.48404	0.48404	0.25	-0.458
Mof_N 	N 	0.33333	0.18263	0.91667	-0.459
Mof_N 	N 	6.11786e-17	0.51596	0.25	-0.464
_end
