data_functionalizedCrystal
_audit_creation_method	'EQeq! by Chris Wilmer'
_symmetry_space_group_name_H-M	'P1'
_symmetry_Int_Tables_number	1
_symmetry_cell_setting	triclinic
loop_
_symmetry_equiv_pos_as_xyz
  x,y,z
_cell_length_a	9.593
_cell_length_b	13.795
_cell_length_c	16.875
_cell_angle_alpha	90
_cell_angle_beta	90
_cell_angle_gamma	90
loop_
_atom_site_label
_atom_site_type_symbol
_atom_site_fract_x
_atom_site_fract_y
_atom_site_fract_z
_atom_site_charge
Mof_C 	C 	0.079	0.598	0.4652	0.031
Mof_O 	O 	0.62	0.906	0.0783	-0.395
Mof_O 	O 	0.3894	0.6024	0.416	-0.466
Mof_Br	Br	0.281	0.8097	0.3915	-0.093
Mof_Br	Br	0.277	0.6925	0.1096	-0.184
Mof_C 	C 	0.394	0.679	0.26	0.032
Mof_C 	C 	0.406	0.737	0.192	0.119
Mof_C 	C 	0.401	0.761	0.306	0.11
Mof_C 	C 	0.583	0.83	0.232	0.098
Mof_C 	C 	0.921	0.402	0.4652	0.027
Mof_O 	O 	0.38	0.094	0.0783	-0.486
Mof_O 	O 	0.6106	0.3976	0.416	-0.468
Mof_Br	Br	0.719	0.1903	0.3915	-0.184
Mof_Br	Br	0.723	0.3075	0.1096	-0.207
Mof_C 	C 	0.606	0.321	0.26	0.033
Mof_C 	C 	0.594	0.263	0.192	0.113
Mof_C 	C 	0.599	0.239	0.306	0.122
Mof_C 	C 	0.417	0.17	0.232	0.023
Mof_C 	C 	0.921	0.598	0.5348	0.031
Mof_O 	O 	0.38	0.906	0.9217	-0.318
Mof_O 	O 	0.6106	0.6024	0.584	-0.468
Mof_Br	Br	0.719	0.8097	0.6085	-0.091
Mof_Br	Br	0.723	0.6925	0.8904	-0.061
Mof_C 	C 	0.606	0.679	0.74	0.042
Mof_C 	C 	0.594	0.737	0.808	0.107
Mof_C 	C 	0.599	0.761	0.694	0.112
Mof_C 	C 	0.417	0.83	0.768	0.092
Mof_C 	C 	0.079	0.402	0.5348	0.029
Mof_O 	O 	0.62	0.094	0.9217	-0.397
Mof_O 	O 	0.3894	0.3976	0.584	-0.469
Mof_Br	Br	0.281	0.1903	0.6085	-0.179
Mof_Br	Br	0.277	0.3075	0.8904	-0.077
Mof_C 	C 	0.394	0.321	0.74	0.044
Mof_C 	C 	0.406	0.263	0.808	0.101
Mof_C 	C 	0.401	0.239	0.694	0.124
Mof_C 	C 	0.583	0.17	0.768	0.02
Mof_C 	C 	0.921	0.402	0.5348	0.029
Mof_O 	O 	0.38	0.094	0.9217	-0.397
Mof_O 	O 	0.6106	0.3976	0.584	-0.469
Mof_Br	Br	0.719	0.1903	0.6085	-0.179
Mof_Br	Br	0.723	0.3075	0.8904	-0.077
Mof_C 	C 	0.606	0.321	0.74	0.044
Mof_C 	C 	0.594	0.263	0.808	0.101
Mof_C 	C 	0.599	0.239	0.694	0.124
Mof_C 	C 	0.417	0.17	0.768	0.02
Mof_C 	C 	0.079	0.598	0.5348	0.031
Mof_O 	O 	0.62	0.906	0.9217	-0.318
Mof_O 	O 	0.3894	0.6024	0.584	-0.468
Mof_Br	Br	0.281	0.8097	0.6085	-0.091
Mof_Br	Br	0.277	0.6925	0.8904	-0.061
Mof_C 	C 	0.394	0.679	0.74	0.042
Mof_C 	C 	0.406	0.737	0.808	0.107
Mof_C 	C 	0.401	0.761	0.694	0.112
Mof_C 	C 	0.583	0.83	0.768	0.092
Mof_C 	C 	0.079	0.402	0.4652	0.027
Mof_O 	O 	0.62	0.094	0.0783	-0.486
Mof_O 	O 	0.3894	0.3976	0.416	-0.468
Mof_Br	Br	0.281	0.1903	0.3915	-0.184
Mof_Br	Br	0.277	0.3075	0.1096	-0.207
Mof_C 	C 	0.394	0.321	0.26	0.033
Mof_C 	C 	0.406	0.263	0.192	0.113
Mof_C 	C 	0.401	0.239	0.306	0.122
Mof_C 	C 	0.583	0.17	0.232	0.023
Mof_C 	C 	0.921	0.598	0.4652	0.03
Mof_O 	O 	0.38	0.906	0.0783	-0.396
Mof_O 	O 	0.6106	0.6024	0.416	-0.467
Mof_Br	Br	0.719	0.8097	0.3915	-0.094
Mof_Br	Br	0.723	0.6925	0.1096	-0.185
Mof_C 	C 	0.606	0.679	0.26	0.032
Mof_C 	C 	0.594	0.737	0.192	0.119
Mof_C 	C 	0.599	0.761	0.306	0.11
Mof_C 	C 	0.417	0.83	0.232	0.098
Mof_C 	C 	0.5	0.873	0.114	0.376
Mof_C 	C 	0.5	0.807	0.1828	-0.25
Mof_C 	C 	0.5	0.63	0.3868	0.536
Mof_C 	C 	0.5	0.69	0.3228	-0.225
Mof_C 	C 	0.5	0.127	0.114	0.343
Mof_C 	C 	0.5	0.193	0.1828	-0.187
Mof_C 	C 	0.5	0.37	0.3868	0.541
Mof_C 	C 	0.5	0.31	0.3228	-0.236
Mof_C 	C 	0.5	0.873	0.886	0.367
Mof_C 	C 	0.5	0.807	0.8172	-0.221
Mof_C 	C 	0.5	0.63	0.6132	0.54
Mof_C 	C 	0.5	0.69	0.6772	-0.232
Mof_C 	C 	0.5	0.127	0.886	0.335
Mof_C 	C 	0.5	0.193	0.8172	-0.16
Mof_C 	C 	0.5	0.37	0.6132	0.545
Mof_C 	C 	0.5	0.31	0.6772	-0.243
Mof_C 	C 	0.062	0.5	0.422	0.03
Mof_C 	C 	0.938	0.5	0.422	0.03
Mof_C 	C 	0.938	0.5	0.578	0.032
Mof_C 	C 	0.062	0.5	0.578	0.032
Mof_Zn	Zn	0.6479	0	-0	1.154
Mof_Zn	Zn	0.3521	0	-0	1.154
Mof_N 	N 	0.135	0.5	0.5	-0.221
Mof_Zn	Zn	0.3486	0.5	0.5	1.226
Mof_N 	N 	0.865	0.5	0.5	-0.221
Mof_Zn	Zn	0.6514	0.5	0.5	1.226
_end
