data_functionalizedCrystal
_audit_creation_method	'EQeq! by Chris Wilmer'
_symmetry_space_group_name_H-M	'P1'
_symmetry_Int_Tables_number	1
_symmetry_cell_setting	triclinic
loop_
_symmetry_equiv_pos_as_xyz
  x,y,z
_cell_length_a	16.9293
_cell_length_b	18.4694
_cell_length_c	28.346
_cell_angle_alpha	90
_cell_angle_beta	100.629
_cell_angle_gamma	90
loop_
_atom_site_label
_atom_site_type_symbol
_atom_site_fract_x
_atom_site_fract_y
_atom_site_fract_z
_atom_site_charge
Mof_Mn	Mn	0.21746	0.38004	0.08829	0.886
Mof_O 	O 	0.8	0.795	0.07215	-0.443
Mof_O 	O 	0.786	0.7877	0.14753	-0.325
Mof_O 	O 	0.6143	0.8172	0.0811	-0.413
Mof_O 	O 	0.6385	0.7444	0.02241	-0.415
Mof_O 	O 	0.2012	0.4371	0.02437	-0.44
Mof_O 	O 	0.2344	0.358	0.97135	-0.39
Mof_N 	N 	0.188	0.4962	0.1694	-0.139
Mof_N 	N 	0.0621	0.703	0.7782	-0.136
Mof_N 	N 	0.3262	0.4846	0.1627	-0.131
Mof_N 	N 	0.3269	0.4437	0.1225	-0.183
Mof_N 	N 	0.1562	0.4662	0.1255	-0.184
Mof_N 	N 	0.1396	0.7144	0.7735	-0.138
Mof_C 	C 	0.3789	0.4757	0.0988	0.264
Mof_C 	C 	0.3977	0.4463	0.0535	-0.616
Mof_H 	H 	0.4524	0.4268	0.0594	0.196
Mof_H 	H 	0.3936	0.4851	0.0295	0.195
Mof_H 	H 	0.3595	0.4077	0.0415	0.202
Mof_C 	C 	0.0398	0.4894	0.0617	-0.617
Mof_H 	H 	0.061	0.5138	0.0359	0.194
Mof_H 	H 	0.9847	0.5059	0.0616	0.2
Mof_H 	H 	0.0398	0.4369	0.0565	0.199
Mof_H 	H 	0.9757	0.7779	0.7717	0.022
Mof_C 	C 	0.2118	0.4191	0.9832	0.43
Mof_C 	C 	0.8216	0.7695	0.1144	0.364
Mof_C 	C 	0.0174	0.6163	0.1371	0.178
Mof_C 	C 	0.0823	0.5615	0.1424	-0.254
Mof_C 	C 	0.5716	0.6298	0.0679	0.107
Mof_H 	H 	0.6139	0.6165	0.0518	-0.004
Mof_C 	C 	0.4095	0.5407	0.1231	-0.249
Mof_C 	C 	0.0562	0.6537	0.8132	0.269
Mof_C 	C 	0.6061	0.7584	0.0576	0.414
Mof_C 	C 	0.4904	0.7208	0.0963	0.123
Mof_H 	H 	0.4787	0.7703	0.1008	-0.014
Mof_C 	C 	0.1455	0.5532	0.1801	0.255
Mof_C 	C 	0.9358	0.7051	0.0873	0.099
Mof_H 	H 	0.9241	0.7309	0.0578	0.002
Mof_C 	C 	0.2665	0.4683	0.1918	0.018
Mof_H 	H 	0.2828	0.4903	0.2239	0.012
Mof_H 	H 	0.2631	0.4153	0.1959	0.028
Mof_C 	C 	0.1337	0.6318	0.8321	-0.253
Mof_C 	C 	0.4609	0.596	0.1068	0.19
Mof_C 	C 	0.9731	0.6291	0.1729	-0.201
Mof_H 	H 	0.9856	0.6033	0.2023	0.085
Mof_C 	C 	0.0918	0.5072	0.1093	0.261
Mof_C 	C 	0.5262	0.5763	0.0855	-0.213
Mof_H 	H 	0.5396	0.5267	0.083	0.089
Mof_C 	C 	0.2035	0.4596	0.8983	0.118
Mof_H 	H 	0.2208	0.4127	0.891	0.001
Mof_C 	C 	0.1576	0.5785	0.8713	0.19
Mof_C 	C 	0.5545	0.7027	0.0741	-0.196
Mof_C 	C 	0.1971	0.4757	0.9442	-0.195
Mof_C 	C 	0.1833	0.6712	0.8063	0.246
Mof_C 	C 	0.9977	0.6555	0.0944	-0.203
Mof_H 	H 	0.0278	0.6478	0.0697	0.09
Mof_C 	C 	0.9106	0.6794	0.1662	0.091
Mof_H 	H 	0.8814	0.6877	0.1913	-0.003
Mof_C 	C 	0.8901	0.7181	0.1225	-0.165
Mof_C 	C 	0.3746	0.5444	0.1635	0.254
Mof_C 	C 	0.1732	0.5445	0.9546	0.108
Mof_H 	H 	0.1697	0.557	0.9866	0
Mof_C 	C 	0.1854	0.5106	0.8617	-0.213
Mof_H 	H 	0.1921	0.4987	0.83	0.088
Mof_C 	C 	0.9776	0.6282	0.8232	-0.645
Mof_H 	H 	0.9423	0.6699	0.8246	0.226
Mof_H 	H 	0.9861	0.6025	0.8539	0.219
Mof_H 	H 	0.9526	0.5954	0.7975	0.216
Mof_C 	C 	0.4439	0.6683	0.1116	-0.228
Mof_H 	H 	0.3994	0.6819	0.1257	0.102
Mof_C 	C 	0.1542	0.596	0.918	-0.22
Mof_H 	H 	0.1387	0.6434	0.9255	0.102
Mof_C 	C 	0.2738	0.6677	0.8118	-0.6
Mof_H 	H 	0.2914	0.6998	0.7883	0.199
Mof_H 	H 	0.2901	0.6179	0.8066	0.194
Mof_H 	H 	0.2984	0.6831	0.8443	0.195
Mof_C 	C 	0.3867	0.5973	0.2042	-0.612
Mof_H 	H 	0.4404	0.6188	0.2076	0.198
Mof_H 	H 	0.3816	0.5723	0.2339	0.195
Mof_H 	H 	0.346	0.6355	0.1976	0.198
Mof_C 	C 	0.1677	0.5951	0.2258	-0.606
Mof_H 	H 	0.1634	0.5637	0.2531	0.191
Mof_H 	H 	0.1311	0.6364	0.2253	0.196
Mof_H 	H 	0.223	0.6127	0.229	0.192
Mof_Mn	Mn	0.71746	0.88004	0.08829	0.885
Mof_O 	O 	0.3	0.295	0.07215	-0.444
Mof_O 	O 	0.286	0.2877	0.14753	-0.326
Mof_O 	O 	0.1143	0.3172	0.0811	-0.414
Mof_O 	O 	0.1385	0.2444	0.02241	-0.416
Mof_O 	O 	0.7012	0.9371	0.02437	-0.439
Mof_O 	O 	0.7344	0.858	0.97135	-0.39
Mof_N 	N 	0.688	0.9962	0.1694	-0.138
Mof_N 	N 	0.5621	0.203	0.7782	-0.136
Mof_N 	N 	0.8262	0.9846	0.1627	-0.131
Mof_N 	N 	0.8269	0.9437	0.1225	-0.183
Mof_N 	N 	0.6562	0.9662	0.1255	-0.182
Mof_N 	N 	0.6396	0.2144	0.7735	-0.138
Mof_C 	C 	0.8789	0.9757	0.0988	0.267
Mof_C 	C 	0.8977	0.9463	0.0535	-0.618
Mof_H 	H 	0.9524	0.9268	0.0594	0.197
Mof_H 	H 	0.8936	0.9851	0.0295	0.196
Mof_H 	H 	0.8595	0.9077	0.0415	0.204
Mof_C 	C 	0.5398	0.9894	0.0617	-0.6
Mof_H 	H 	0.561	0.0138	0.0359	0.188
Mof_H 	H 	0.4847	0.0059	0.0616	0.194
Mof_H 	H 	0.5398	0.9369	0.0565	0.195
Mof_H 	H 	0.4757	0.2779	0.7717	0.022
Mof_C 	C 	0.7118	0.9191	0.9832	0.428
Mof_C 	C 	0.3216	0.2695	0.1144	0.364
Mof_C 	C 	0.5174	0.1163	0.1371	0.175
Mof_C 	C 	0.5823	0.0615	0.1424	-0.251
Mof_C 	C 	0.0716	0.1298	0.0679	0.106
Mof_H 	H 	0.1139	0.1165	0.0518	-0.004
Mof_C 	C 	0.9095	0.0407	0.1231	-0.25
Mof_C 	C 	0.5562	0.1537	0.8132	0.27
Mof_C 	C 	0.1061	0.2584	0.0576	0.414
Mof_C 	C 	0.9904	0.2208	0.0963	0.122
Mof_H 	H 	0.9787	0.2703	0.1008	-0.014
Mof_C 	C 	0.6455	0.0532	0.1801	0.253
Mof_C 	C 	0.4358	0.2051	0.0873	0.097
Mof_H 	H 	0.4241	0.2309	0.0578	0.002
Mof_C 	C 	0.7665	0.9683	0.1918	0.018
Mof_H 	H 	0.7828	0.9903	0.2239	0.013
Mof_H 	H 	0.7631	0.9153	0.1959	0.028
Mof_C 	C 	0.6337	0.1318	0.8321	-0.252
Mof_C 	C 	0.9609	0.096	0.1068	0.19
Mof_C 	C 	0.4731	0.1291	0.1729	-0.199
Mof_H 	H 	0.4856	0.1033	0.2023	0.084
Mof_C 	C 	0.5918	0.0072	0.1093	0.254
Mof_C 	C 	0.0262	0.0763	0.0855	-0.212
Mof_H 	H 	0.0396	0.0267	0.083	0.088
Mof_C 	C 	0.7035	0.9596	0.8983	0.114
Mof_H 	H 	0.7208	0.9127	0.891	0.003
Mof_C 	C 	0.6576	0.0785	0.8713	0.188
Mof_C 	C 	0.0545	0.2027	0.0741	-0.195
Mof_C 	C 	0.6971	0.9757	0.9442	-0.195
Mof_C 	C 	0.6833	0.1712	0.8063	0.246
Mof_C 	C 	0.4977	0.1555	0.0944	-0.201
Mof_H 	H 	0.5278	0.1478	0.0697	0.088
Mof_C 	C 	0.4106	0.1794	0.1662	0.089
Mof_H 	H 	0.3814	0.1877	0.1913	-0.002
Mof_C 	C 	0.3901	0.2181	0.1225	-0.164
Mof_C 	C 	0.8746	0.0444	0.1635	0.253
Mof_C 	C 	0.6732	0.0445	0.9546	0.109
Mof_H 	H 	0.6697	0.057	0.9866	0.001
Mof_C 	C 	0.6854	0.0106	0.8617	-0.207
Mof_H 	H 	0.6921	0.9987	0.83	0.085
Mof_C 	C 	0.4776	0.1282	0.8232	-0.647
Mof_H 	H 	0.4423	0.1699	0.8246	0.226
Mof_H 	H 	0.4861	0.1025	0.8539	0.22
Mof_H 	H 	0.4526	0.0954	0.7975	0.216
Mof_C 	C 	0.9439	0.1683	0.1116	-0.227
Mof_H 	H 	0.8994	0.1819	0.1257	0.101
Mof_C 	C 	0.6542	0.096	0.918	-0.219
Mof_H 	H 	0.6387	0.1434	0.9255	0.102
Mof_C 	C 	0.7738	0.1677	0.8118	-0.6
Mof_H 	H 	0.7914	0.1998	0.7883	0.199
Mof_H 	H 	0.7901	0.1179	0.8066	0.195
Mof_H 	H 	0.7984	0.1831	0.8443	0.196
Mof_C 	C 	0.8867	0.0973	0.2042	-0.612
Mof_H 	H 	0.9404	0.1188	0.2076	0.198
Mof_H 	H 	0.8816	0.0723	0.2339	0.195
Mof_H 	H 	0.846	0.1355	0.1976	0.198
Mof_C 	C 	0.6677	0.0951	0.2258	-0.604
Mof_H 	H 	0.6634	0.0637	0.2531	0.191
Mof_H 	H 	0.6311	0.1364	0.2253	0.195
Mof_H 	H 	0.723	0.1127	0.229	0.191
Mof_Mn	Mn	0.78254	0.38004	0.41171	0.885
Mof_O 	O 	0.2	0.795	0.42785	-0.445
Mof_O 	O 	0.214	0.7877	0.35247	-0.326
Mof_O 	O 	0.3857	0.8172	0.4189	-0.413
Mof_O 	O 	0.3615	0.7444	0.47759	-0.411
Mof_O 	O 	0.7988	0.4371	0.47563	-0.417
Mof_O 	O 	0.7656	0.358	0.52865	-0.396
Mof_N 	N 	0.812	0.4962	0.3306	-0.139
Mof_N 	N 	0.9379	0.703	0.7218	-0.136
Mof_N 	N 	0.6738	0.4846	0.3373	-0.131
Mof_N 	N 	0.6731	0.4437	0.3775	-0.184
Mof_N 	N 	0.8438	0.4662	0.3745	-0.185
Mof_N 	N 	0.8604	0.7144	0.7265	-0.137
Mof_C 	C 	0.6211	0.4757	0.4012	0.271
Mof_C 	C 	0.6023	0.4463	0.4465	-0.634
Mof_H 	H 	0.5476	0.4268	0.4406	0.205
Mof_H 	H 	0.6064	0.4851	0.4705	0.207
Mof_H 	H 	0.6405	0.4077	0.4585	0.213
Mof_C 	C 	0.9602	0.4894	0.4383	-0.631
Mof_H 	H 	0.939	0.5138	0.4641	0.205
Mof_H 	H 	0.0153	0.5059	0.4384	0.207
Mof_H 	H 	0.9602	0.4369	0.4435	0.207
Mof_H 	H 	0.0243	0.7779	0.7283	0.022
Mof_C 	C 	0.7882	0.4191	0.5168	0.4
Mof_C 	C 	0.1784	0.7695	0.3856	0.365
Mof_C 	C 	0.9826	0.6163	0.3629	0.179
Mof_C 	C 	0.9177	0.5615	0.3576	-0.256
Mof_C 	C 	0.4284	0.6298	0.4321	0.108
Mof_H 	H 	0.3861	0.6165	0.4482	-0.001
Mof_C 	C 	0.5905	0.5407	0.3769	-0.251
Mof_C 	C 	0.9438	0.6537	0.6868	0.27
Mof_C 	C 	0.3939	0.7584	0.4424	0.415
Mof_C 	C 	0.5096	0.7208	0.4037	0.124
Mof_H 	H 	0.5213	0.7703	0.3992	-0.013
Mof_C 	C 	0.8545	0.5532	0.3199	0.257
Mof_C 	C 	0.0642	0.7051	0.4127	0.099
Mof_H 	H 	0.0759	0.7309	0.4422	0.006
Mof_C 	C 	0.7335	0.4683	0.3082	0.018
Mof_H 	H 	0.7172	0.4903	0.2761	0.012
Mof_H 	H 	0.7369	0.4153	0.3041	0.028
Mof_C 	C 	0.8663	0.6318	0.6679	-0.252
Mof_C 	C 	0.5391	0.596	0.3932	0.192
Mof_C 	C 	0.0269	0.6291	0.3271	-0.202
Mof_H 	H 	0.0144	0.6033	0.2977	0.085
Mof_C 	C 	0.9082	0.5072	0.3907	0.266
Mof_C 	C 	0.4738	0.5763	0.4145	-0.212
Mof_H 	H 	0.4604	0.5267	0.417	0.091
Mof_C 	C 	0.7965	0.4596	0.6017	0.112
Mof_H 	H 	0.7792	0.4127	0.609	0.003
Mof_C 	C 	0.8424	0.5785	0.6287	0.188
Mof_C 	C 	0.4455	0.7027	0.4259	-0.194
Mof_C 	C 	0.8029	0.4757	0.5558	-0.189
Mof_C 	C 	0.8167	0.6712	0.6937	0.245
Mof_C 	C 	0.0023	0.6555	0.4056	-0.203
Mof_H 	H 	0.9722	0.6478	0.4303	0.094
Mof_C 	C 	0.0894	0.6794	0.3338	0.091
Mof_H 	H 	0.1186	0.6877	0.3087	-0.003
Mof_C 	C 	0.1099	0.7181	0.3775	-0.165
Mof_C 	C 	0.6254	0.5444	0.3365	0.255
Mof_C 	C 	0.8268	0.5445	0.5454	0.101
Mof_H 	H 	0.8303	0.557	0.5134	-0.006
Mof_C 	C 	0.8146	0.5106	0.6383	-0.21
Mof_H 	H 	0.8079	0.4987	0.67	0.087
Mof_C 	C 	0.0224	0.6282	0.6768	-0.647
Mof_H 	H 	0.0577	0.6699	0.6754	0.226
Mof_H 	H 	0.0139	0.6025	0.6461	0.219
Mof_H 	H 	0.0474	0.5954	0.7025	0.216
Mof_C 	C 	0.5561	0.6683	0.3884	-0.227
Mof_H 	H 	0.6006	0.6819	0.3743	0.103
Mof_C 	C 	0.8458	0.596	0.582	-0.218
Mof_H 	H 	0.8613	0.6434	0.5745	0.098
Mof_C 	C 	0.7262	0.6677	0.6882	-0.598
Mof_H 	H 	0.7086	0.6998	0.7117	0.198
Mof_H 	H 	0.7099	0.6179	0.6934	0.193
Mof_H 	H 	0.7016	0.6831	0.6557	0.193
Mof_C 	C 	0.6133	0.5973	0.2958	-0.614
Mof_H 	H 	0.5596	0.6188	0.2924	0.199
Mof_H 	H 	0.6184	0.5723	0.2661	0.196
Mof_H 	H 	0.654	0.6355	0.3024	0.199
Mof_C 	C 	0.8323	0.5951	0.2742	-0.607
Mof_H 	H 	0.8366	0.5637	0.2469	0.192
Mof_H 	H 	0.8689	0.6364	0.2747	0.196
Mof_H 	H 	0.777	0.6127	0.271	0.193
Mof_Mn	Mn	0.28254	0.88004	0.41171	0.885
Mof_O 	O 	0.7	0.295	0.42785	-0.445
Mof_O 	O 	0.714	0.2877	0.35247	-0.326
Mof_O 	O 	0.8857	0.3172	0.4189	-0.413
Mof_O 	O 	0.8615	0.2444	0.47759	-0.411
Mof_O 	O 	0.2988	0.9371	0.47563	-0.417
Mof_O 	O 	0.2656	0.858	0.52865	-0.396
Mof_N 	N 	0.312	0.9962	0.3306	-0.139
Mof_N 	N 	0.4379	0.203	0.7218	-0.136
Mof_N 	N 	0.1738	0.9846	0.3373	-0.131
Mof_N 	N 	0.1731	0.9437	0.3775	-0.184
Mof_N 	N 	0.3438	0.9662	0.3745	-0.184
Mof_N 	N 	0.3604	0.2144	0.7265	-0.137
Mof_C 	C 	0.1211	0.9757	0.4012	0.271
Mof_C 	C 	0.1023	0.9463	0.4465	-0.634
Mof_H 	H 	0.0476	0.9268	0.4406	0.205
Mof_H 	H 	0.1064	0.9851	0.4705	0.207
Mof_H 	H 	0.1405	0.9077	0.4585	0.213
Mof_C 	C 	0.4602	0.9894	0.4383	-0.631
Mof_H 	H 	0.439	0.0138	0.4641	0.205
Mof_H 	H 	0.5153	0.0059	0.4384	0.207
Mof_H 	H 	0.4602	0.9369	0.4435	0.207
Mof_H 	H 	0.5243	0.2779	0.7283	0.022
Mof_C 	C 	0.2882	0.9191	0.5168	0.399
Mof_C 	C 	0.6784	0.2695	0.3856	0.365
Mof_C 	C 	0.4826	0.1163	0.3629	0.178
Mof_C 	C 	0.4177	0.0615	0.3576	-0.255
Mof_C 	C 	0.9284	0.1298	0.4321	0.108
Mof_H 	H 	0.8861	0.1165	0.4482	-0.001
Mof_C 	C 	0.0905	0.0407	0.3769	-0.251
Mof_C 	C 	0.4438	0.1537	0.6868	0.269
Mof_C 	C 	0.8939	0.2584	0.4424	0.415
Mof_C 	C 	0.0096	0.2208	0.4037	0.124
Mof_H 	H 	0.0213	0.2703	0.3992	-0.013
Mof_C 	C 	0.3545	0.0532	0.3199	0.256
Mof_C 	C 	0.5642	0.2051	0.4127	0.098
Mof_H 	H 	0.5759	0.2309	0.4422	0.007
Mof_C 	C 	0.2335	0.9683	0.3082	0.018
Mof_H 	H 	0.2172	0.9903	0.2761	0.012
Mof_H 	H 	0.2369	0.9153	0.3041	0.028
Mof_C 	C 	0.3663	0.1318	0.6679	-0.251
Mof_C 	C 	0.0391	0.096	0.3932	0.192
Mof_C 	C 	0.5269	0.1291	0.3271	-0.201
Mof_H 	H 	0.5144	0.1033	0.2977	0.085
Mof_C 	C 	0.4082	0.0072	0.3907	0.266
Mof_C 	C 	0.9738	0.0763	0.4145	-0.211
Mof_H 	H 	0.9604	0.0267	0.417	0.091
Mof_C 	C 	0.2965	0.9596	0.6017	0.109
Mof_H 	H 	0.2792	0.9127	0.609	0.004
Mof_C 	C 	0.3424	0.0785	0.6287	0.186
Mof_C 	C 	0.9455	0.2027	0.4259	-0.193
Mof_C 	C 	0.3029	0.9757	0.5558	-0.188
Mof_C 	C 	0.3167	0.1712	0.6937	0.245
Mof_C 	C 	0.5023	0.1555	0.4056	-0.202
Mof_H 	H 	0.4722	0.1478	0.4303	0.093
Mof_C 	C 	0.5894	0.1794	0.3338	0.09
Mof_H 	H 	0.6186	0.1877	0.3087	-0.003
Mof_C 	C 	0.6099	0.2181	0.3775	-0.165
Mof_C 	C 	0.1254	0.0444	0.3365	0.255
Mof_C 	C 	0.3268	0.0445	0.5454	0.101
Mof_H 	H 	0.3303	0.057	0.5134	-0.006
Mof_C 	C 	0.3146	0.0106	0.6383	-0.206
Mof_H 	H 	0.3079	0.9987	0.67	0.085
Mof_C 	C 	0.5224	0.1282	0.6768	-0.646
Mof_H 	H 	0.5577	0.1699	0.6754	0.226
Mof_H 	H 	0.5139	0.1025	0.6461	0.219
Mof_H 	H 	0.5474	0.0954	0.7025	0.216
Mof_C 	C 	0.0561	0.1683	0.3884	-0.227
Mof_H 	H 	0.1006	0.1819	0.3743	0.103
Mof_C 	C 	0.3458	0.096	0.582	-0.217
Mof_H 	H 	0.3613	0.1434	0.5745	0.098
Mof_C 	C 	0.2262	0.1677	0.6882	-0.598
Mof_H 	H 	0.2086	0.1998	0.7117	0.198
Mof_H 	H 	0.2099	0.1179	0.6934	0.193
Mof_H 	H 	0.2016	0.1831	0.6557	0.193
Mof_C 	C 	0.1133	0.0973	0.2958	-0.613
Mof_H 	H 	0.0596	0.1188	0.2924	0.199
Mof_H 	H 	0.1184	0.0723	0.2661	0.195
Mof_H 	H 	0.154	0.1355	0.3024	0.198
Mof_C 	C 	0.3323	0.0951	0.2742	-0.607
Mof_H 	H 	0.3366	0.0637	0.2469	0.191
Mof_H 	H 	0.3689	0.1364	0.2747	0.196
Mof_H 	H 	0.277	0.1127	0.271	0.192
Mof_Mn	Mn	0.78254	0.61996	0.91171	0.886
Mof_O 	O 	0.2	0.205	0.92785	-0.435
Mof_O 	O 	0.214	0.2123	0.85247	-0.325
Mof_O 	O 	0.3857	0.1828	0.9189	-0.41
Mof_O 	O 	0.3615	0.2556	0.97759	-0.393
Mof_O 	O 	0.7988	0.5629	0.97563	-0.391
Mof_O 	O 	0.7656	0.642	0.02865	-0.39
Mof_N 	N 	0.812	0.5038	0.8306	-0.139
Mof_N 	N 	0.9379	0.297	0.2218	-0.136
Mof_N 	N 	0.6738	0.5154	0.8373	-0.131
Mof_N 	N 	0.6731	0.5563	0.8775	-0.185
Mof_N 	N 	0.8438	0.5338	0.8745	-0.185
Mof_N 	N 	0.8604	0.2856	0.2265	-0.137
Mof_C 	C 	0.6211	0.5243	0.9012	0.279
Mof_C 	C 	0.6023	0.5537	0.9465	-0.654
Mof_H 	H 	0.5476	0.5732	0.9406	0.214
Mof_H 	H 	0.6064	0.5149	0.9705	0.22
Mof_H 	H 	0.6405	0.5923	0.9585	0.225
Mof_C 	C 	0.9602	0.5106	0.9383	-0.645
Mof_H 	H 	0.939	0.4862	0.9641	0.216
Mof_H 	H 	0.0153	0.4941	0.9384	0.214
Mof_H 	H 	0.9602	0.5631	0.9435	0.214
Mof_H 	H 	0.0243	0.2221	0.2283	0.022
Mof_C 	C 	0.7882	0.5809	0.0168	0.365
Mof_C 	C 	0.1784	0.2305	0.8856	0.362
Mof_C 	C 	0.9826	0.3837	0.8629	0.18
Mof_C 	C 	0.9177	0.4385	0.8576	-0.258
Mof_C 	C 	0.4284	0.3702	0.9321	0.108
Mof_H 	H 	0.3861	0.3835	0.9482	0.004
Mof_C 	C 	0.5905	0.4593	0.8769	-0.253
Mof_C 	C 	0.9438	0.3463	0.1868	0.268
Mof_C 	C 	0.3939	0.2416	0.9424	0.412
Mof_C 	C 	0.5096	0.2792	0.9037	0.124
Mof_H 	H 	0.5213	0.2297	0.8992	-0.012
Mof_C 	C 	0.8545	0.4468	0.8199	0.258
Mof_C 	C 	0.0642	0.2949	0.9127	0.098
Mof_H 	H 	0.0759	0.2691	0.9422	0.014
Mof_C 	C 	0.7335	0.5317	0.8082	0.019
Mof_H 	H 	0.7172	0.5097	0.7761	0.012
Mof_H 	H 	0.7369	0.5847	0.8041	0.028
Mof_C 	C 	0.8663	0.3682	0.1679	-0.251
Mof_C 	C 	0.5391	0.404	0.8932	0.193
Mof_C 	C 	0.0269	0.3709	0.8271	-0.202
Mof_H 	H 	0.0144	0.3967	0.7977	0.085
Mof_C 	C 	0.9082	0.4928	0.8907	0.271
Mof_C 	C 	0.4738	0.4237	0.9145	-0.21
Mof_H 	H 	0.4604	0.4733	0.917	0.092
Mof_C 	C 	0.7965	0.5404	0.1017	0.104
Mof_H 	H 	0.7792	0.5873	0.109	0.006
Mof_C 	C 	0.8424	0.4215	0.1287	0.183
Mof_C 	C 	0.4455	0.2973	0.9259	-0.189
Mof_C 	C 	0.8029	0.5243	0.0558	-0.179
Mof_C 	C 	0.8167	0.3288	0.1937	0.243
Mof_C 	C 	0.0023	0.3445	0.9056	-0.202
Mof_H 	H 	0.9722	0.3522	0.9303	0.098
Mof_C 	C 	0.0894	0.3206	0.8338	0.09
Mof_H 	H 	0.1186	0.3123	0.8087	-0.003
Mof_C 	C 	0.1099	0.2819	0.8775	-0.162
Mof_C 	C 	0.6254	0.4556	0.8365	0.256
Mof_C 	C 	0.8268	0.4555	0.0454	0.093
Mof_H 	H 	0.8303	0.443	0.0134	-0.013
Mof_C 	C 	0.8146	0.4894	0.1383	-0.205
Mof_H 	H 	0.8079	0.5013	0.17	0.086
Mof_C 	C 	0.0224	0.3718	0.1768	-0.645
Mof_H 	H 	0.0577	0.3301	0.1754	0.226
Mof_H 	H 	0.0139	0.3975	0.1461	0.219
Mof_H 	H 	0.0474	0.4046	0.2025	0.216
Mof_C 	C 	0.5561	0.3317	0.8884	-0.225
Mof_H 	H 	0.6006	0.3181	0.8743	0.103
Mof_C 	C 	0.8458	0.404	0.082	-0.215
Mof_H 	H 	0.8613	0.3566	0.0745	0.094
Mof_C 	C 	0.7262	0.3323	0.1882	-0.595
Mof_H 	H 	0.7086	0.3002	0.2117	0.197
Mof_H 	H 	0.7099	0.3821	0.1934	0.192
Mof_H 	H 	0.7016	0.3169	0.1557	0.191
Mof_C 	C 	0.6133	0.4027	0.7958	-0.615
Mof_H 	H 	0.5596	0.3812	0.7924	0.199
Mof_H 	H 	0.6184	0.4277	0.7661	0.196
Mof_H 	H 	0.654	0.3645	0.8024	0.199
Mof_C 	C 	0.8323	0.4049	0.7742	-0.608
Mof_H 	H 	0.8366	0.4363	0.7469	0.192
Mof_H 	H 	0.8689	0.3636	0.7747	0.196
Mof_H 	H 	0.777	0.3873	0.771	0.193
Mof_Mn	Mn	0.28254	0.11996	0.91171	0.886
Mof_O 	O 	0.7	0.705	0.92785	-0.435
Mof_O 	O 	0.714	0.7123	0.85247	-0.325
Mof_O 	O 	0.8857	0.6828	0.9189	-0.41
Mof_O 	O 	0.8615	0.7556	0.97759	-0.394
Mof_O 	O 	0.2988	0.0629	0.97563	-0.389
Mof_O 	O 	0.2656	0.142	0.02865	-0.39
Mof_N 	N 	0.312	0.0038	0.8306	-0.138
Mof_N 	N 	0.4379	0.797	0.2218	-0.136
Mof_N 	N 	0.1738	0.0154	0.8373	-0.131
Mof_N 	N 	0.1731	0.0563	0.8775	-0.185
Mof_N 	N 	0.3438	0.0338	0.8745	-0.183
Mof_N 	N 	0.3604	0.7856	0.2265	-0.137
Mof_C 	C 	0.1211	0.0243	0.9012	0.281
Mof_C 	C 	0.1023	0.0537	0.9465	-0.656
Mof_H 	H 	0.0476	0.0732	0.9406	0.215
Mof_H 	H 	0.1064	0.0149	0.9705	0.221
Mof_H 	H 	0.1405	0.0923	0.9585	0.226
Mof_C 	C 	0.4602	0.0106	0.9383	-0.625
Mof_H 	H 	0.439	0.9862	0.9641	0.209
Mof_H 	H 	0.5153	0.9941	0.9384	0.207
Mof_H 	H 	0.4602	0.0631	0.9435	0.209
Mof_H 	H 	0.5243	0.7221	0.2283	0.022
Mof_C 	C 	0.2882	0.0809	0.0168	0.363
Mof_C 	C 	0.6784	0.7305	0.8856	0.361
Mof_C 	C 	0.4826	0.8837	0.8629	0.176
Mof_C 	C 	0.4177	0.9385	0.8576	-0.253
Mof_C 	C 	0.9284	0.8702	0.9321	0.107
Mof_H 	H 	0.8861	0.8835	0.9482	0.004
Mof_C 	C 	0.0905	0.9593	0.8769	-0.255
Mof_C 	C 	0.4438	0.8463	0.1868	0.268
Mof_C 	C 	0.8939	0.7416	0.9424	0.412
Mof_C 	C 	0.0096	0.7792	0.9037	0.123
Mof_H 	H 	0.0213	0.7297	0.8992	-0.012
Mof_C 	C 	0.3545	0.9468	0.8199	0.254
Mof_C 	C 	0.5642	0.7949	0.9127	0.095
Mof_H 	H 	0.5759	0.7691	0.9422	0.014
Mof_C 	C 	0.2335	0.0317	0.8082	0.018
Mof_H 	H 	0.2172	0.0097	0.7761	0.012
Mof_H 	H 	0.2369	0.0847	0.8041	0.028
Mof_C 	C 	0.3663	0.8682	0.1679	-0.25
Mof_C 	C 	0.0391	0.904	0.8932	0.193
Mof_C 	C 	0.5269	0.8709	0.8271	-0.199
Mof_H 	H 	0.5144	0.8967	0.7977	0.084
Mof_C 	C 	0.4082	0.9928	0.8907	0.263
Mof_C 	C 	0.9738	0.9237	0.9145	-0.209
Mof_H 	H 	0.9604	0.9733	0.917	0.092
Mof_C 	C 	0.2965	0.0404	0.1017	0.1
Mof_H 	H 	0.2792	0.0873	0.109	0.007
Mof_C 	C 	0.3424	0.9215	0.1287	0.181
Mof_C 	C 	0.9455	0.7973	0.9259	-0.188
Mof_C 	C 	0.3029	0.0243	0.0558	-0.179
Mof_C 	C 	0.3167	0.8288	0.1937	0.243
Mof_C 	C 	0.5023	0.8445	0.9056	-0.198
Mof_H 	H 	0.4722	0.8522	0.9303	0.096
Mof_C 	C 	0.5894	0.8206	0.8338	0.088
Mof_H 	H 	0.6186	0.8123	0.8087	-0.002
Mof_C 	C 	0.6099	0.7819	0.8775	-0.161
Mof_C 	C 	0.1254	0.9556	0.8365	0.255
Mof_C 	C 	0.3268	0.9555	0.0454	0.093
Mof_H 	H 	0.3303	0.943	0.0134	-0.012
Mof_C 	C 	0.3146	0.9894	0.1383	-0.2
Mof_H 	H 	0.3079	0.0013	0.17	0.083
Mof_C 	C 	0.5224	0.8718	0.1768	-0.646
Mof_H 	H 	0.5577	0.8301	0.1754	0.226
Mof_H 	H 	0.5139	0.8975	0.1461	0.219
Mof_H 	H 	0.5474	0.9046	0.2025	0.216
Mof_C 	C 	0.0561	0.8317	0.8884	-0.225
Mof_H 	H 	0.1006	0.8181	0.8743	0.103
Mof_C 	C 	0.3458	0.904	0.082	-0.213
Mof_H 	H 	0.3613	0.8566	0.0745	0.094
Mof_C 	C 	0.2262	0.8323	0.1882	-0.595
Mof_H 	H 	0.2086	0.8002	0.2117	0.197
Mof_H 	H 	0.2099	0.8821	0.1934	0.193
Mof_H 	H 	0.2016	0.8169	0.1557	0.191
Mof_C 	C 	0.1133	0.9027	0.7958	-0.614
Mof_H 	H 	0.0596	0.8812	0.7924	0.199
Mof_H 	H 	0.1184	0.9277	0.7661	0.195
Mof_H 	H 	0.154	0.8645	0.8024	0.199
Mof_C 	C 	0.3323	0.9049	0.7742	-0.605
Mof_H 	H 	0.3366	0.9363	0.7469	0.191
Mof_H 	H 	0.3689	0.8636	0.7747	0.195
Mof_H 	H 	0.277	0.8873	0.771	0.192
Mof_Mn	Mn	0.21746	0.61996	0.58829	0.885
Mof_O 	O 	0.8	0.205	0.57215	-0.445
Mof_O 	O 	0.786	0.2123	0.64753	-0.326
Mof_O 	O 	0.6143	0.1828	0.5811	-0.413
Mof_O 	O 	0.6385	0.2556	0.52241	-0.411
Mof_O 	O 	0.2012	0.5629	0.52437	-0.417
Mof_O 	O 	0.2344	0.642	0.47135	-0.396
Mof_N 	N 	0.188	0.5038	0.6694	-0.139
Mof_N 	N 	0.0621	0.297	0.2782	-0.136
Mof_N 	N 	0.3262	0.5154	0.6627	-0.131
Mof_N 	N 	0.3269	0.5563	0.6225	-0.184
Mof_N 	N 	0.1562	0.5338	0.6255	-0.185
Mof_N 	N 	0.1396	0.2856	0.2735	-0.137
Mof_C 	C 	0.3789	0.5243	0.5988	0.271
Mof_C 	C 	0.3977	0.5537	0.5535	-0.634
Mof_H 	H 	0.4524	0.5732	0.5594	0.205
Mof_H 	H 	0.3936	0.5149	0.5295	0.207
Mof_H 	H 	0.3595	0.5923	0.5415	0.213
Mof_C 	C 	0.0398	0.5106	0.5617	-0.632
Mof_H 	H 	0.061	0.4862	0.5359	0.205
Mof_H 	H 	0.9847	0.4941	0.5616	0.208
Mof_H 	H 	0.0398	0.5631	0.5565	0.207
Mof_H 	H 	0.9757	0.2221	0.2717	0.022
Mof_C 	C 	0.2118	0.5809	0.4832	0.4
Mof_C 	C 	0.8216	0.2305	0.6144	0.364
Mof_C 	C 	0.0174	0.3837	0.6371	0.177
Mof_C 	C 	0.0823	0.4385	0.6424	-0.255
Mof_C 	C 	0.5716	0.3702	0.5679	0.108
Mof_H 	H 	0.6139	0.3835	0.5518	-0.001
Mof_C 	C 	0.4095	0.4593	0.6231	-0.251
Mof_C 	C 	0.0562	0.3463	0.3132	0.269
Mof_C 	C 	0.6061	0.2416	0.5576	0.415
Mof_C 	C 	0.4904	0.2792	0.5963	0.124
Mof_H 	H 	0.4787	0.2297	0.6008	-0.013
Mof_C 	C 	0.1455	0.4468	0.6801	0.256
Mof_C 	C 	0.9358	0.2949	0.5873	0.097
Mof_H 	H 	0.9241	0.2691	0.5578	0.007
Mof_C 	C 	0.2665	0.5317	0.6918	0.018
Mof_H 	H 	0.2828	0.5097	0.7239	0.012
Mof_H 	H 	0.2631	0.5847	0.6959	0.028
Mof_C 	C 	0.1337	0.3682	0.3321	-0.252
Mof_C 	C 	0.4609	0.404	0.6068	0.192
Mof_C 	C 	0.9731	0.3709	0.6729	-0.2
Mof_H 	H 	0.9856	0.3967	0.7023	0.084
Mof_C 	C 	0.0918	0.4928	0.6093	0.266
Mof_C 	C 	0.5262	0.4237	0.5855	-0.212
Mof_H 	H 	0.5396	0.4733	0.583	0.091
Mof_C 	C 	0.2035	0.5404	0.3983	0.112
Mof_H 	H 	0.2208	0.5873	0.391	0.003
Mof_C 	C 	0.1576	0.4215	0.3713	0.187
Mof_C 	C 	0.5545	0.2973	0.5741	-0.194
Mof_C 	C 	0.1971	0.5243	0.4442	-0.189
Mof_C 	C 	0.1833	0.3288	0.3063	0.245
Mof_C 	C 	0.9977	0.3445	0.5944	-0.2
Mof_H 	H 	0.0278	0.3522	0.5697	0.092
Mof_C 	C 	0.9106	0.3206	0.6662	0.089
Mof_H 	H 	0.8814	0.3123	0.6913	-0.002
Mof_C 	C 	0.8901	0.2819	0.6225	-0.164
Mof_C 	C 	0.3746	0.4556	0.6635	0.255
Mof_C 	C 	0.1732	0.4555	0.4546	0.101
Mof_H 	H 	0.1697	0.443	0.4866	-0.006
Mof_C 	C 	0.1854	0.4894	0.3617	-0.21
Mof_H 	H 	0.1921	0.5013	0.33	0.087
Mof_C 	C 	0.9776	0.3718	0.3232	-0.646
Mof_H 	H 	0.9423	0.3301	0.3246	0.226
Mof_H 	H 	0.9861	0.3975	0.3539	0.219
Mof_H 	H 	0.9526	0.4046	0.2975	0.216
Mof_C 	C 	0.4439	0.3317	0.6116	-0.227
Mof_H 	H 	0.3994	0.3181	0.6257	0.103
Mof_C 	C 	0.1542	0.404	0.418	-0.218
Mof_H 	H 	0.1387	0.3566	0.4255	0.098
Mof_C 	C 	0.2738	0.3323	0.3118	-0.598
Mof_H 	H 	0.2914	0.3002	0.2883	0.198
Mof_H 	H 	0.2901	0.3821	0.3066	0.193
Mof_H 	H 	0.2984	0.3169	0.3443	0.193
Mof_C 	C 	0.3867	0.4027	0.7042	-0.614
Mof_H 	H 	0.4404	0.3812	0.7076	0.199
Mof_H 	H 	0.3816	0.4277	0.7339	0.196
Mof_H 	H 	0.346	0.3645	0.6976	0.199
Mof_C 	C 	0.1677	0.4049	0.7258	-0.607
Mof_H 	H 	0.1634	0.4363	0.7531	0.191
Mof_H 	H 	0.1311	0.3636	0.7253	0.196
Mof_H 	H 	0.223	0.3873	0.729	0.192
Mof_Mn	Mn	0.71746	0.11996	0.58829	0.885
Mof_O 	O 	0.3	0.705	0.57215	-0.445
Mof_O 	O 	0.286	0.7123	0.64753	-0.326
Mof_O 	O 	0.1143	0.6828	0.5811	-0.413
Mof_O 	O 	0.1385	0.7556	0.52241	-0.411
Mof_O 	O 	0.7012	0.0629	0.52437	-0.417
Mof_O 	O 	0.7344	0.142	0.47135	-0.396
Mof_N 	N 	0.688	0.0038	0.6694	-0.139
Mof_N 	N 	0.5621	0.797	0.2782	-0.136
Mof_N 	N 	0.8262	0.0154	0.6627	-0.131
Mof_N 	N 	0.8269	0.0563	0.6225	-0.184
Mof_N 	N 	0.6562	0.0338	0.6255	-0.184
Mof_N 	N 	0.6396	0.7856	0.2735	-0.137
Mof_C 	C 	0.8789	0.0243	0.5988	0.272
Mof_C 	C 	0.8977	0.0537	0.5535	-0.635
Mof_H 	H 	0.9524	0.0732	0.5594	0.205
Mof_H 	H 	0.8936	0.0149	0.5295	0.207
Mof_H 	H 	0.8595	0.0923	0.5415	0.213
Mof_C 	C 	0.5398	0.0106	0.5617	-0.627
Mof_H 	H 	0.561	0.9862	0.5359	0.203
Mof_H 	H 	0.4847	0.9941	0.5616	0.206
Mof_H 	H 	0.5398	0.0631	0.5565	0.206
Mof_H 	H 	0.4757	0.7221	0.2717	0.022
Mof_C 	C 	0.7118	0.0809	0.4832	0.399
Mof_C 	C 	0.3216	0.7305	0.6144	0.365
Mof_C 	C 	0.5174	0.8837	0.6371	0.177
Mof_C 	C 	0.5823	0.9385	0.6424	-0.255
Mof_C 	C 	0.0716	0.8702	0.5679	0.109
Mof_H 	H 	0.1139	0.8835	0.5518	-0.001
Mof_C 	C 	0.9095	0.9593	0.6231	-0.252
Mof_C 	C 	0.5562	0.8463	0.3132	0.269
Mof_C 	C 	0.1061	0.7416	0.5576	0.416
Mof_C 	C 	0.9904	0.7792	0.5963	0.126
Mof_H 	H 	0.9787	0.7297	0.6008	-0.014
Mof_C 	C 	0.6455	0.9468	0.6801	0.255
Mof_C 	C 	0.4358	0.7949	0.5873	0.098
Mof_H 	H 	0.4241	0.7691	0.5578	0.007
Mof_C 	C 	0.7665	0.0317	0.6918	0.018
Mof_H 	H 	0.7828	0.0097	0.7239	0.012
Mof_H 	H 	0.7631	0.0847	0.6959	0.028
Mof_C 	C 	0.6337	0.8682	0.3321	-0.252
Mof_C 	C 	0.9609	0.904	0.6068	0.193
Mof_C 	C 	0.4731	0.8709	0.6729	-0.201
Mof_H 	H 	0.4856	0.8967	0.7023	0.084
Mof_C 	C 	0.5918	0.9928	0.6093	0.264
Mof_C 	C 	0.0262	0.9237	0.5855	-0.213
Mof_H 	H 	0.0396	0.9733	0.583	0.091
Mof_C 	C 	0.7035	0.0404	0.3983	0.11
Mof_H 	H 	0.7208	0.0873	0.391	0.004
Mof_C 	C 	0.6576	0.9215	0.3713	0.186
Mof_C 	C 	0.0545	0.7973	0.5741	-0.195
Mof_C 	C 	0.6971	0.0243	0.4442	-0.188
Mof_C 	C 	0.6833	0.8288	0.3063	0.245
Mof_C 	C 	0.4977	0.8445	0.5944	-0.201
Mof_H 	H 	0.5278	0.8522	0.5697	0.093
Mof_C 	C 	0.4106	0.8206	0.6662	0.09
Mof_H 	H 	0.3814	0.8123	0.6913	-0.003
Mof_C 	C 	0.3901	0.7819	0.6225	-0.164
Mof_C 	C 	0.8746	0.9556	0.6635	0.255
Mof_C 	C 	0.6732	0.9555	0.4546	0.101
Mof_H 	H 	0.6697	0.943	0.4866	-0.006
Mof_C 	C 	0.6854	0.9894	0.3617	-0.208
Mof_H 	H 	0.6921	0.0013	0.33	0.086
Mof_C 	C 	0.4776	0.8718	0.3232	-0.646
Mof_H 	H 	0.4423	0.8301	0.3246	0.226
Mof_H 	H 	0.4861	0.8975	0.3539	0.219
Mof_H 	H 	0.4526	0.9046	0.2975	0.216
Mof_C 	C 	0.9439	0.8317	0.6116	-0.228
Mof_H 	H 	0.8994	0.8181	0.6257	0.103
Mof_C 	C 	0.6542	0.904	0.418	-0.217
Mof_H 	H 	0.6387	0.8566	0.4255	0.098
Mof_C 	C 	0.7738	0.8323	0.3118	-0.598
Mof_H 	H 	0.7914	0.8002	0.2883	0.198
Mof_H 	H 	0.7901	0.8821	0.3066	0.194
Mof_H 	H 	0.7984	0.8169	0.3443	0.193
Mof_C 	C 	0.8867	0.9027	0.7042	-0.613
Mof_H 	H 	0.9404	0.8812	0.7076	0.199
Mof_H 	H 	0.8816	0.9277	0.7339	0.195
Mof_H 	H 	0.846	0.8645	0.6976	0.198
Mof_C 	C 	0.6677	0.9049	0.7258	-0.606
Mof_H 	H 	0.6634	0.9363	0.7531	0.191
Mof_H 	H 	0.6311	0.8636	0.7253	0.196
Mof_H 	H 	0.723	0.8873	0.729	0.192
Mof_Mn	Mn	0.25	0.25	-0	0.982
Mof_Mn	Mn	0.75	0.25	0.5	1.019
Mof_Mn	Mn	0.75	0.75	-0	0.984
Mof_Mn	Mn	0.25	0.75	0.5	1.019
Mof_C 	C 	-2.61019e-17	0.7463	0.75	0.021
Mof_C 	C 	0.5	0.2463	0.75	0.022
Mof_C 	C 	1.85896e-33	0.2537	0.25	0.022
Mof_C 	C 	0.5	0.7537	0.25	0.022
_end
