data_functionalizedCrystal
_audit_creation_method	'EQeq! by Chris Wilmer'
_symmetry_space_group_name_H-M	'P1'
_symmetry_Int_Tables_number	1
_symmetry_cell_setting	triclinic
loop_
_symmetry_equiv_pos_as_xyz
  x,y,z
_cell_length_a	26.3256
_cell_length_b	26.3256
_cell_length_c	26.3256
_cell_angle_alpha	90
_cell_angle_beta	90
_cell_angle_gamma	90
loop_
_atom_site_label
_atom_site_type_symbol
_atom_site_fract_x
_atom_site_fract_y
_atom_site_fract_z
_atom_site_charge
Mof_O 	O 	0.31704	0.24377	0.94738	-0.373
Mof_O 	O 	0.31704	0.74377	0.44738	-0.401
Mof_O 	O 	0.81704	0.24377	0.44738	-0.399
Mof_O 	O 	0.81704	0.74377	0.94738	-0.364
Mof_O 	O 	0.68296	0.75623	0.94738	-0.37
Mof_O 	O 	0.68296	0.25623	0.44738	-0.405
Mof_O 	O 	0.18296	0.75623	0.44738	-0.406
Mof_O 	O 	0.18296	0.25623	0.94738	-0.378
Mof_O 	O 	0.68296	0.24377	0.05262	-0.42
Mof_O 	O 	0.68296	0.74377	0.55262	-0.401
Mof_O 	O 	0.18296	0.24377	0.55262	-0.41
Mof_O 	O 	0.18296	0.74377	0.05262	-0.423
Mof_O 	O 	0.31704	0.75623	0.05262	-0.419
Mof_O 	O 	0.31704	0.25623	0.55262	-0.406
Mof_O 	O 	0.81704	0.75623	0.55262	-0.397
Mof_O 	O 	0.81704	0.25623	0.05262	-0.417
Mof_O 	O 	0.94738	0.31704	0.24377	-0.374
Mof_O 	O 	0.94738	0.81704	0.74377	-0.365
Mof_O 	O 	0.44738	0.31704	0.74377	-0.402
Mof_O 	O 	0.44738	0.81704	0.24377	-0.4
Mof_O 	O 	0.94738	0.68296	0.75623	-0.371
Mof_O 	O 	0.94738	0.18296	0.25623	-0.379
Mof_O 	O 	0.44738	0.68296	0.25623	-0.406
Mof_O 	O 	0.44738	0.18296	0.75623	-0.407
Mof_O 	O 	0.05262	0.68296	0.24377	-0.421
Mof_O 	O 	0.05262	0.18296	0.74377	-0.423
Mof_O 	O 	0.55262	0.68296	0.74377	-0.401
Mof_O 	O 	0.55262	0.18296	0.24377	-0.41
Mof_O 	O 	0.05262	0.31704	0.75623	-0.419
Mof_O 	O 	0.05262	0.81704	0.25623	-0.417
Mof_O 	O 	0.55262	0.31704	0.25623	-0.406
Mof_O 	O 	0.55262	0.81704	0.75623	-0.397
Mof_O 	O 	0.24377	0.94738	0.31704	-0.374
Mof_O 	O 	0.24377	0.44738	0.81704	-0.4
Mof_O 	O 	0.74377	0.94738	0.81704	-0.365
Mof_O 	O 	0.74377	0.44738	0.31704	-0.402
Mof_O 	O 	0.75623	0.94738	0.68296	-0.371
Mof_O 	O 	0.75623	0.44738	0.18296	-0.407
Mof_O 	O 	0.25623	0.94738	0.18296	-0.379
Mof_O 	O 	0.25623	0.44738	0.68296	-0.406
Mof_O 	O 	0.24377	0.05262	0.68296	-0.421
Mof_O 	O 	0.24377	0.55262	0.18296	-0.41
Mof_O 	O 	0.74377	0.05262	0.18296	-0.423
Mof_O 	O 	0.74377	0.55262	0.68296	-0.401
Mof_O 	O 	0.75623	0.05262	0.31704	-0.419
Mof_O 	O 	0.75623	0.55262	0.81704	-0.397
Mof_O 	O 	0.25623	0.05262	0.81704	-0.417
Mof_O 	O 	0.25623	0.55262	0.31704	-0.406
Mof_O 	O 	0.24377	0.31704	0.05262	-0.422
Mof_O 	O 	0.24377	0.81704	0.55262	-0.4
Mof_O 	O 	0.74377	0.31704	0.55262	-0.402
Mof_O 	O 	0.74377	0.81704	0.05262	-0.413
Mof_O 	O 	0.75623	0.68296	0.05262	-0.419
Mof_O 	O 	0.75623	0.18296	0.55262	-0.407
Mof_O 	O 	0.25623	0.68296	0.55262	-0.406
Mof_O 	O 	0.25623	0.18296	0.05262	-0.427
Mof_O 	O 	0.24377	0.68296	0.94738	-0.374
Mof_O 	O 	0.24377	0.18296	0.44738	-0.41
Mof_O 	O 	0.74377	0.68296	0.44738	-0.401
Mof_O 	O 	0.74377	0.18296	0.94738	-0.375
Mof_O 	O 	0.75623	0.31704	0.94738	-0.371
Mof_O 	O 	0.75623	0.81704	0.44738	-0.397
Mof_O 	O 	0.25623	0.31704	0.44738	-0.406
Mof_O 	O 	0.25623	0.81704	0.94738	-0.369
Mof_O 	O 	0.31704	0.94738	0.75623	-0.371
Mof_O 	O 	0.31704	0.44738	0.25623	-0.406
Mof_O 	O 	0.81704	0.94738	0.25623	-0.369
Mof_O 	O 	0.81704	0.44738	0.75623	-0.397
Mof_O 	O 	0.68296	0.94738	0.24377	-0.374
Mof_O 	O 	0.68296	0.44738	0.74377	-0.401
Mof_O 	O 	0.18296	0.94738	0.74377	-0.375
Mof_O 	O 	0.18296	0.44738	0.24377	-0.41
Mof_O 	O 	0.68296	0.05262	0.75623	-0.419
Mof_O 	O 	0.68296	0.55262	0.25623	-0.406
Mof_O 	O 	0.18296	0.05262	0.25623	-0.427
Mof_O 	O 	0.18296	0.55262	0.75623	-0.407
Mof_O 	O 	0.31704	0.05262	0.24377	-0.422
Mof_O 	O 	0.31704	0.55262	0.74377	-0.402
Mof_O 	O 	0.81704	0.05262	0.74377	-0.413
Mof_O 	O 	0.81704	0.55262	0.24377	-0.4
Mof_O 	O 	0.94738	0.24377	0.68296	-0.374
Mof_O 	O 	0.94738	0.74377	0.18296	-0.375
Mof_O 	O 	0.44738	0.24377	0.18296	-0.41
Mof_O 	O 	0.44738	0.74377	0.68296	-0.401
Mof_O 	O 	0.94738	0.75623	0.31704	-0.371
Mof_O 	O 	0.94738	0.25623	0.81704	-0.369
Mof_O 	O 	0.44738	0.75623	0.81704	-0.397
Mof_O 	O 	0.44738	0.25623	0.31704	-0.406
Mof_O 	O 	0.05262	0.24377	0.31704	-0.422
Mof_O 	O 	0.05262	0.74377	0.81704	-0.413
Mof_O 	O 	0.55262	0.24377	0.81704	-0.4
Mof_O 	O 	0.55262	0.74377	0.31704	-0.402
Mof_O 	O 	0.05262	0.75623	0.68296	-0.419
Mof_O 	O 	0.05262	0.25623	0.18296	-0.427
Mof_O 	O 	0.55262	0.75623	0.18296	-0.407
Mof_O 	O 	0.55262	0.25623	0.68296	-0.406
Mof_O 	O 	0.68296	0.75623	0.05262	-0.419
Mof_O 	O 	0.68296	0.25623	0.55262	-0.406
Mof_O 	O 	0.18296	0.75623	0.55262	-0.407
Mof_O 	O 	0.18296	0.25623	0.05262	-0.427
Mof_O 	O 	0.31704	0.24377	0.05262	-0.422
Mof_O 	O 	0.31704	0.74377	0.55262	-0.402
Mof_O 	O 	0.81704	0.24377	0.55262	-0.4
Mof_O 	O 	0.81704	0.74377	0.05262	-0.413
Mof_O 	O 	0.31704	0.75623	0.94738	-0.371
Mof_O 	O 	0.31704	0.25623	0.44738	-0.406
Mof_O 	O 	0.81704	0.75623	0.44738	-0.397
Mof_O 	O 	0.81704	0.25623	0.94738	-0.369
Mof_O 	O 	0.68296	0.24377	0.94738	-0.374
Mof_O 	O 	0.68296	0.74377	0.44738	-0.401
Mof_O 	O 	0.18296	0.24377	0.44738	-0.41
Mof_O 	O 	0.18296	0.74377	0.94738	-0.375
Mof_O 	O 	0.05262	0.68296	0.75623	-0.419
Mof_O 	O 	0.05262	0.18296	0.25623	-0.427
Mof_O 	O 	0.55262	0.68296	0.25623	-0.406
Mof_O 	O 	0.55262	0.18296	0.75623	-0.407
Mof_O 	O 	0.05262	0.31704	0.24377	-0.422
Mof_O 	O 	0.05262	0.81704	0.74377	-0.413
Mof_O 	O 	0.55262	0.31704	0.74377	-0.402
Mof_O 	O 	0.55262	0.81704	0.24377	-0.4
Mof_O 	O 	0.94738	0.31704	0.75623	-0.371
Mof_O 	O 	0.94738	0.81704	0.25623	-0.369
Mof_O 	O 	0.44738	0.31704	0.25623	-0.406
Mof_O 	O 	0.44738	0.81704	0.75623	-0.397
Mof_O 	O 	0.94738	0.68296	0.24377	-0.374
Mof_O 	O 	0.94738	0.18296	0.74377	-0.375
Mof_O 	O 	0.44738	0.68296	0.74377	-0.401
Mof_O 	O 	0.44738	0.18296	0.24377	-0.41
Mof_O 	O 	0.75623	0.05262	0.68296	-0.419
Mof_O 	O 	0.75623	0.55262	0.18296	-0.407
Mof_O 	O 	0.25623	0.05262	0.18296	-0.427
Mof_O 	O 	0.25623	0.55262	0.68296	-0.406
Mof_O 	O 	0.24377	0.05262	0.31704	-0.422
Mof_O 	O 	0.24377	0.55262	0.81704	-0.4
Mof_O 	O 	0.74377	0.05262	0.81704	-0.413
Mof_O 	O 	0.74377	0.55262	0.31704	-0.402
Mof_O 	O 	0.75623	0.94738	0.31704	-0.371
Mof_O 	O 	0.75623	0.44738	0.81704	-0.397
Mof_O 	O 	0.25623	0.94738	0.81704	-0.369
Mof_O 	O 	0.25623	0.44738	0.31704	-0.406
Mof_O 	O 	0.24377	0.94738	0.68296	-0.374
Mof_O 	O 	0.24377	0.44738	0.18296	-0.41
Mof_O 	O 	0.74377	0.94738	0.18296	-0.375
Mof_O 	O 	0.74377	0.44738	0.68296	-0.401
Mof_O 	O 	0.75623	0.68296	0.94738	-0.371
Mof_O 	O 	0.75623	0.18296	0.44738	-0.407
Mof_O 	O 	0.25623	0.68296	0.44738	-0.406
Mof_O 	O 	0.25623	0.18296	0.94738	-0.379
Mof_O 	O 	0.24377	0.31704	0.94738	-0.374
Mof_O 	O 	0.24377	0.81704	0.44738	-0.4
Mof_O 	O 	0.74377	0.31704	0.44738	-0.402
Mof_O 	O 	0.74377	0.81704	0.94738	-0.365
Mof_O 	O 	0.75623	0.31704	0.05262	-0.419
Mof_O 	O 	0.75623	0.81704	0.55262	-0.397
Mof_O 	O 	0.25623	0.31704	0.55262	-0.406
Mof_O 	O 	0.25623	0.81704	0.05262	-0.417
Mof_O 	O 	0.24377	0.68296	0.05262	-0.421
Mof_O 	O 	0.24377	0.18296	0.55262	-0.41
Mof_O 	O 	0.74377	0.68296	0.55262	-0.401
Mof_O 	O 	0.74377	0.18296	0.05262	-0.423
Mof_O 	O 	0.68296	0.05262	0.24377	-0.421
Mof_O 	O 	0.68296	0.55262	0.74377	-0.401
Mof_O 	O 	0.18296	0.05262	0.74377	-0.423
Mof_O 	O 	0.18296	0.55262	0.24377	-0.41
Mof_O 	O 	0.31704	0.05262	0.75623	-0.419
Mof_O 	O 	0.31704	0.55262	0.25623	-0.406
Mof_O 	O 	0.81704	0.05262	0.25623	-0.417
Mof_O 	O 	0.81704	0.55262	0.75623	-0.397
Mof_O 	O 	0.31704	0.94738	0.24377	-0.374
Mof_O 	O 	0.31704	0.44738	0.74377	-0.402
Mof_O 	O 	0.81704	0.94738	0.74377	-0.365
Mof_O 	O 	0.81704	0.44738	0.24377	-0.4
Mof_O 	O 	0.68296	0.94738	0.75623	-0.371
Mof_O 	O 	0.68296	0.44738	0.25623	-0.406
Mof_O 	O 	0.18296	0.94738	0.25623	-0.379
Mof_O 	O 	0.18296	0.44738	0.75623	-0.407
Mof_O 	O 	0.05262	0.75623	0.31704	-0.419
Mof_O 	O 	0.05262	0.25623	0.81704	-0.417
Mof_O 	O 	0.55262	0.75623	0.81704	-0.397
Mof_O 	O 	0.55262	0.25623	0.31704	-0.406
Mof_O 	O 	0.05262	0.24377	0.68296	-0.421
Mof_O 	O 	0.05262	0.74377	0.18296	-0.423
Mof_O 	O 	0.55262	0.24377	0.18296	-0.41
Mof_O 	O 	0.55262	0.74377	0.68296	-0.401
Mof_O 	O 	0.94738	0.75623	0.68296	-0.371
Mof_O 	O 	0.94738	0.25623	0.18296	-0.379
Mof_O 	O 	0.44738	0.75623	0.18296	-0.407
Mof_O 	O 	0.44738	0.25623	0.68296	-0.406
Mof_O 	O 	0.94738	0.24377	0.31704	-0.374
Mof_O 	O 	0.94738	0.74377	0.81704	-0.365
Mof_O 	O 	0.44738	0.24377	0.81704	-0.4
Mof_O 	O 	0.44738	0.74377	0.31704	-0.402
Mof_Cu	Cu	0.28427	0.28427	-0	0.873
Mof_Cu	Cu	0.28427	0.78427	0.5	0.904
Mof_Cu	Cu	0.78427	0.28427	0.5	0.904
Mof_Cu	Cu	0.78427	0.78427	-0	0.877
Mof_Cu	Cu	0.71573	0.71573	-0	0.873
Mof_Cu	Cu	0.71573	0.21573	0.5	0.901
Mof_Cu	Cu	0.21573	0.71573	0.5	0.901
Mof_Cu	Cu	0.21573	0.21573	-0	0.871
Mof_Cu	Cu	0.71573	0.28427	-0	0.873
Mof_Cu	Cu	0.71573	0.78427	0.5	0.904
Mof_Cu	Cu	0.21573	0.28427	0.5	0.901
Mof_Cu	Cu	0.21573	0.78427	-0	0.874
Mof_Cu	Cu	0.28427	0.71573	-0	0.873
Mof_Cu	Cu	0.28427	0.21573	0.5	0.901
Mof_Cu	Cu	0.78427	0.71573	0.5	0.904
Mof_Cu	Cu	0.78427	0.21573	-0	0.874
Mof_Cu	Cu	9.36754e-33	0.28427	0.28427	0.873
Mof_Cu	Cu	2.94054e-33	0.78427	0.78427	0.877
Mof_Cu	Cu	0.5	0.28427	0.78427	0.904
Mof_Cu	Cu	0.5	0.78427	0.28427	0.904
Mof_Cu	Cu	1.37525e-32	0.71573	0.71573	0.873
Mof_Cu	Cu	8.08858e-34	0.21573	0.21573	0.871
Mof_Cu	Cu	0.5	0.71573	0.21573	0.901
Mof_Cu	Cu	0.5	0.21573	0.71573	0.901
Mof_Cu	Cu	1.4902e-32	0.71573	0.28427	0.873
Mof_Cu	Cu	2.94054e-33	0.21573	0.78427	0.874
Mof_Cu	Cu	0.5	0.71573	0.78427	0.904
Mof_Cu	Cu	0.5	0.21573	0.28427	0.901
Mof_Cu	Cu	1.37525e-32	0.28427	0.71573	0.873
Mof_Cu	Cu	8.08858e-34	0.78427	0.21573	0.874
Mof_Cu	Cu	0.5	0.28427	0.21573	0.901
Mof_Cu	Cu	0.5	0.78427	0.71573	0.904
Mof_Cu	Cu	0.28427	5.53446e-33	0.28427	0.873
Mof_Cu	Cu	0.28427	0.5	0.78427	0.904
Mof_Cu	Cu	0.78427	0	0.78427	0.877
Mof_Cu	Cu	0.78427	0.5	0.28427	0.904
Mof_Cu	Cu	0.71573	5.53446e-33	0.71573	0.873
Mof_Cu	Cu	0.71573	0.5	0.21573	0.901
Mof_Cu	Cu	0.21573	0	0.21573	0.871
Mof_Cu	Cu	0.21573	0.5	0.71573	0.901
Mof_Cu	Cu	0.28427	5.53446e-33	0.71573	0.873
Mof_Cu	Cu	0.28427	0.5	0.21573	0.901
Mof_Cu	Cu	0.78427	0	0.21573	0.874
Mof_Cu	Cu	0.78427	0.5	0.71573	0.904
Mof_Cu	Cu	0.71573	5.53446e-33	0.28427	0.873
Mof_Cu	Cu	0.71573	0.5	0.78427	0.904
Mof_Cu	Cu	0.21573	0	0.78427	0.874
Mof_Cu	Cu	0.21573	0.5	0.28427	0.901
Mof_C 	C 	0.32168	0.17832	0.88652	-0.102
Mof_C 	C 	0.29595	0.20405	0.93084	0.351
Mof_C 	C 	0.32168	0.67832	0.38652	-0.107
Mof_C 	C 	0.29595	0.70405	0.43084	0.355
Mof_C 	C 	0.67832	0.82168	0.88652	-0.091
Mof_C 	C 	0.70405	0.79595	0.93084	0.349
Mof_C 	C 	0.67832	0.32168	0.38652	-0.107
Mof_C 	C 	0.70405	0.29595	0.43084	0.355
Mof_C 	C 	0.17832	0.32168	0.88652	-0.102
Mof_C 	C 	0.20405	0.29595	0.93084	0.351
Mof_C 	C 	0.67832	0.17832	0.11348	-0.119
Mof_C 	C 	0.70405	0.20405	0.06916	0.356
Mof_C 	C 	0.67832	0.67832	0.61348	-0.105
Mof_C 	C 	0.70405	0.70405	0.56916	0.354
Mof_C 	C 	0.17832	0.17832	0.61348	-0.116
Mof_C 	C 	0.20405	0.20405	0.56916	0.356
Mof_C 	C 	0.32168	0.82168	0.11348	-0.111
Mof_C 	C 	0.29595	0.79595	0.06916	0.356
Mof_C 	C 	0.32168	0.32168	0.61348	-0.109
Mof_C 	C 	0.29595	0.29595	0.56916	0.357
Mof_C 	C 	0.88652	0.32168	0.17832	-0.102
Mof_C 	C 	0.93084	0.29595	0.20405	0.351
Mof_C 	C 	0.38652	0.32168	0.67832	-0.107
Mof_C 	C 	0.43084	0.29595	0.70405	0.355
Mof_C 	C 	0.88652	0.67832	0.82168	-0.091
Mof_C 	C 	0.93084	0.70405	0.79595	0.349
Mof_C 	C 	0.88652	0.17832	0.32168	-0.102
Mof_C 	C 	0.93084	0.20405	0.29595	0.351
Mof_C 	C 	0.38652	0.67832	0.32168	-0.107
Mof_C 	C 	0.43084	0.70405	0.29595	0.355
Mof_C 	C 	0.11348	0.67832	0.17832	-0.119
Mof_C 	C 	0.06916	0.70405	0.20405	0.356
Mof_C 	C 	0.61348	0.67832	0.67832	-0.105
Mof_C 	C 	0.56916	0.70405	0.70405	0.354
Mof_C 	C 	0.61348	0.17832	0.17832	-0.116
Mof_C 	C 	0.56916	0.20405	0.20405	0.356
Mof_C 	C 	0.11348	0.32168	0.82168	-0.111
Mof_C 	C 	0.06916	0.29595	0.79595	0.356
Mof_C 	C 	0.61348	0.32168	0.32168	-0.109
Mof_C 	C 	0.56916	0.29595	0.29595	0.357
Mof_C 	C 	0.17832	0.88652	0.32168	-0.102
Mof_C 	C 	0.20405	0.93084	0.29595	0.351
Mof_C 	C 	0.17832	0.38652	0.82168	-0.107
Mof_C 	C 	0.20405	0.43084	0.79595	0.355
Mof_C 	C 	0.82168	0.88652	0.67832	-0.091
Mof_C 	C 	0.79595	0.93084	0.70405	0.349
Mof_C 	C 	0.82168	0.38652	0.17832	-0.107
Mof_C 	C 	0.79595	0.43084	0.20405	0.355
Mof_C 	C 	0.32168	0.88652	0.17832	-0.102
Mof_C 	C 	0.29595	0.93084	0.20405	0.351
Mof_C 	C 	0.17832	0.11348	0.67832	-0.119
Mof_C 	C 	0.20405	0.06916	0.70405	0.356
Mof_C 	C 	0.17832	0.61348	0.17832	-0.116
Mof_C 	C 	0.20405	0.56916	0.20405	0.356
Mof_C 	C 	0.82168	0.11348	0.32168	-0.111
Mof_C 	C 	0.79595	0.06916	0.29595	0.356
Mof_C 	C 	0.82168	0.61348	0.82168	-0.097
Mof_C 	C 	0.79595	0.56916	0.79595	0.354
Mof_C 	C 	0.32168	0.61348	0.32168	-0.109
Mof_C 	C 	0.29595	0.56916	0.29595	0.357
Mof_C 	C 	0.17832	0.32168	0.11348	-0.121
Mof_C 	C 	0.20405	0.29595	0.06916	0.357
Mof_C 	C 	0.17832	0.82168	0.61348	-0.106
Mof_C 	C 	0.20405	0.79595	0.56916	0.355
Mof_C 	C 	0.82168	0.67832	0.11348	-0.109
Mof_C 	C 	0.79595	0.70405	0.06916	0.355
Mof_C 	C 	0.82168	0.17832	0.61348	-0.106
Mof_C 	C 	0.79595	0.20405	0.56916	0.355
Mof_C 	C 	0.32168	0.17832	0.11348	-0.121
Mof_C 	C 	0.29595	0.20405	0.06916	0.357
Mof_C 	C 	0.17832	0.67832	0.88652	-0.1
Mof_C 	C 	0.20405	0.70405	0.93084	0.35
Mof_C 	C 	0.17832	0.17832	0.38652	-0.116
Mof_C 	C 	0.20405	0.20405	0.43084	0.357
Mof_C 	C 	0.82168	0.32168	0.88652	-0.093
Mof_C 	C 	0.79595	0.29595	0.93084	0.35
Mof_C 	C 	0.82168	0.82168	0.38652	-0.097
Mof_C 	C 	0.79595	0.79595	0.43084	0.354
Mof_C 	C 	0.32168	0.32168	0.38652	-0.109
Mof_C 	C 	0.29595	0.29595	0.43084	0.357
Mof_C 	C 	0.32168	0.88652	0.82168	-0.093
Mof_C 	C 	0.29595	0.93084	0.79595	0.35
Mof_C 	C 	0.32168	0.38652	0.32168	-0.109
Mof_C 	C 	0.29595	0.43084	0.29595	0.357
Mof_C 	C 	0.67832	0.88652	0.17832	-0.1
Mof_C 	C 	0.70405	0.93084	0.20405	0.35
Mof_C 	C 	0.67832	0.38652	0.67832	-0.106
Mof_C 	C 	0.70405	0.43084	0.70405	0.354
Mof_C 	C 	0.17832	0.38652	0.17832	-0.116
Mof_C 	C 	0.20405	0.43084	0.20405	0.357
Mof_C 	C 	0.67832	0.11348	0.82168	-0.109
Mof_C 	C 	0.70405	0.06916	0.79595	0.355
Mof_C 	C 	0.67832	0.61348	0.32168	-0.107
Mof_C 	C 	0.70405	0.56916	0.29595	0.355
Mof_C 	C 	0.17832	0.11348	0.32168	-0.121
Mof_C 	C 	0.20405	0.06916	0.29595	0.357
Mof_C 	C 	0.32168	0.11348	0.17832	-0.121
Mof_C 	C 	0.29595	0.06916	0.20405	0.357
Mof_C 	C 	0.32168	0.61348	0.67832	-0.107
Mof_C 	C 	0.29595	0.56916	0.70405	0.355
Mof_C 	C 	0.88652	0.17832	0.67832	-0.1
Mof_C 	C 	0.93084	0.20405	0.70405	0.35
Mof_C 	C 	0.38652	0.17832	0.17832	-0.116
Mof_C 	C 	0.43084	0.20405	0.20405	0.357
Mof_C 	C 	0.88652	0.82168	0.32168	-0.093
Mof_C 	C 	0.93084	0.79595	0.29595	0.35
Mof_C 	C 	0.38652	0.82168	0.82168	-0.097
Mof_C 	C 	0.43084	0.79595	0.79595	0.354
Mof_C 	C 	0.38652	0.32168	0.32168	-0.109
Mof_C 	C 	0.43084	0.29595	0.29595	0.357
Mof_C 	C 	0.11348	0.17832	0.32168	-0.121
Mof_C 	C 	0.06916	0.20405	0.29595	0.357
Mof_C 	C 	0.61348	0.17832	0.82168	-0.106
Mof_C 	C 	0.56916	0.20405	0.79595	0.355
Mof_C 	C 	0.11348	0.82168	0.67832	-0.109
Mof_C 	C 	0.06916	0.79595	0.70405	0.355
Mof_C 	C 	0.11348	0.32168	0.17832	-0.121
Mof_C 	C 	0.06916	0.29595	0.20405	0.357
Mof_C 	C 	0.61348	0.82168	0.17832	-0.106
Mof_C 	C 	0.56916	0.79595	0.20405	0.355
Mof_C 	C 	0.67832	0.82168	0.11348	-0.109
Mof_C 	C 	0.70405	0.79595	0.06916	0.355
Mof_C 	C 	0.67832	0.32168	0.61348	-0.107
Mof_C 	C 	0.70405	0.29595	0.56916	0.355
Mof_C 	C 	0.32168	0.67832	0.61348	-0.107
Mof_C 	C 	0.29595	0.70405	0.56916	0.355
Mof_C 	C 	0.32168	0.82168	0.88652	-0.093
Mof_C 	C 	0.29595	0.79595	0.93084	0.35
Mof_C 	C 	0.67832	0.17832	0.88652	-0.1
Mof_C 	C 	0.70405	0.20405	0.93084	0.35
Mof_C 	C 	0.67832	0.67832	0.38652	-0.106
Mof_C 	C 	0.70405	0.70405	0.43084	0.354
Mof_C 	C 	0.11348	0.67832	0.82168	-0.109
Mof_C 	C 	0.06916	0.70405	0.79595	0.355
Mof_C 	C 	0.61348	0.67832	0.32168	-0.107
Mof_C 	C 	0.56916	0.70405	0.29595	0.355
Mof_C 	C 	0.61348	0.32168	0.67832	-0.107
Mof_C 	C 	0.56916	0.29595	0.70405	0.355
Mof_C 	C 	0.88652	0.32168	0.82168	-0.093
Mof_C 	C 	0.93084	0.29595	0.79595	0.35
Mof_C 	C 	0.88652	0.67832	0.17832	-0.1
Mof_C 	C 	0.93084	0.70405	0.20405	0.35
Mof_C 	C 	0.38652	0.67832	0.67832	-0.106
Mof_C 	C 	0.43084	0.70405	0.70405	0.354
Mof_C 	C 	0.82168	0.11348	0.67832	-0.109
Mof_C 	C 	0.79595	0.06916	0.70405	0.355
Mof_C 	C 	0.82168	0.61348	0.17832	-0.106
Mof_C 	C 	0.79595	0.56916	0.20405	0.355
Mof_C 	C 	0.17832	0.61348	0.82168	-0.106
Mof_C 	C 	0.20405	0.56916	0.79595	0.355
Mof_C 	C 	0.82168	0.88652	0.32168	-0.093
Mof_C 	C 	0.79595	0.93084	0.29595	0.35
Mof_C 	C 	0.82168	0.38652	0.82168	-0.097
Mof_C 	C 	0.79595	0.43084	0.79595	0.354
Mof_C 	C 	0.17832	0.88652	0.67832	-0.1
Mof_C 	C 	0.20405	0.93084	0.70405	0.35
Mof_C 	C 	0.82168	0.67832	0.88652	-0.091
Mof_C 	C 	0.79595	0.70405	0.93084	0.349
Mof_C 	C 	0.82168	0.17832	0.38652	-0.107
Mof_C 	C 	0.79595	0.20405	0.43084	0.355
Mof_C 	C 	0.17832	0.82168	0.38652	-0.107
Mof_C 	C 	0.20405	0.79595	0.43084	0.355
Mof_C 	C 	0.82168	0.32168	0.11348	-0.111
Mof_C 	C 	0.79595	0.29595	0.06916	0.356
Mof_C 	C 	0.82168	0.82168	0.61348	-0.097
Mof_C 	C 	0.79595	0.79595	0.56916	0.354
Mof_C 	C 	0.17832	0.67832	0.11348	-0.119
Mof_C 	C 	0.20405	0.70405	0.06916	0.356
Mof_C 	C 	0.67832	0.11348	0.17832	-0.119
Mof_C 	C 	0.70405	0.06916	0.20405	0.356
Mof_C 	C 	0.67832	0.61348	0.67832	-0.105
Mof_C 	C 	0.70405	0.56916	0.70405	0.354
Mof_C 	C 	0.32168	0.11348	0.82168	-0.111
Mof_C 	C 	0.29595	0.06916	0.79595	0.356
Mof_C 	C 	0.32168	0.38652	0.67832	-0.107
Mof_C 	C 	0.29595	0.43084	0.70405	0.355
Mof_C 	C 	0.67832	0.88652	0.82168	-0.091
Mof_C 	C 	0.70405	0.93084	0.79595	0.349
Mof_C 	C 	0.67832	0.38652	0.32168	-0.107
Mof_C 	C 	0.70405	0.43084	0.29595	0.355
Mof_C 	C 	0.11348	0.82168	0.32168	-0.111
Mof_C 	C 	0.06916	0.79595	0.29595	0.356
Mof_C 	C 	0.61348	0.82168	0.82168	-0.097
Mof_C 	C 	0.56916	0.79595	0.79595	0.354
Mof_C 	C 	0.11348	0.17832	0.67832	-0.119
Mof_C 	C 	0.06916	0.20405	0.70405	0.356
Mof_C 	C 	0.88652	0.82168	0.67832	-0.091
Mof_C 	C 	0.93084	0.79595	0.70405	0.349
Mof_C 	C 	0.38652	0.82168	0.17832	-0.107
Mof_C 	C 	0.43084	0.79595	0.20405	0.355
Mof_C 	C 	0.38652	0.17832	0.82168	-0.107
Mof_C 	C 	0.43084	0.20405	0.79595	0.355
Mof_C 	C 	0.36489	0.20058	0.86489	0.059
Mof_H 	H 	0.38073	0.23473	0.88073	0.054
Mof_C 	C 	0.36489	0.70058	0.36489	0.06
Mof_H 	H 	0.38073	0.73473	0.38073	0.051
Mof_C 	C 	0.63511	0.79942	0.86489	0.056
Mof_H 	H 	0.61927	0.76527	0.88073	0.057
Mof_C 	C 	0.63511	0.29942	0.36489	0.06
Mof_H 	H 	0.61927	0.26527	0.38073	0.047
Mof_C 	C 	0.13511	0.79942	0.36489	0.059
Mof_H 	H 	0.11927	0.76527	0.38073	0.044
Mof_C 	C 	0.63511	0.20058	0.13511	0.06
Mof_H 	H 	0.61927	0.23473	0.11927	0.041
Mof_C 	C 	0.63511	0.70058	0.63511	0.058
Mof_H 	H 	0.61927	0.73473	0.61927	0.051
Mof_C 	C 	0.13511	0.70058	0.13511	0.06
Mof_H 	H 	0.11927	0.73473	0.11927	0.039
Mof_C 	C 	0.36489	0.79942	0.13511	0.059
Mof_H 	H 	0.38073	0.76527	0.11927	0.044
Mof_C 	C 	0.36489	0.29942	0.63511	0.06
Mof_H 	H 	0.38073	0.26527	0.61927	0.047
Mof_C 	C 	0.86489	0.36489	0.20058	0.059
Mof_H 	H 	0.88073	0.38073	0.23473	0.054
Mof_C 	C 	0.86489	0.86489	0.70058	0.056
Mof_H 	H 	0.88073	0.88073	0.73473	0.064
Mof_C 	C 	0.36489	0.36489	0.70058	0.06
Mof_H 	H 	0.38073	0.38073	0.73473	0.051
Mof_C 	C 	0.86489	0.63511	0.79942	0.056
Mof_H 	H 	0.88073	0.61927	0.76527	0.057
Mof_C 	C 	0.86489	0.13511	0.29942	0.059
Mof_H 	H 	0.88073	0.11927	0.26527	0.048
Mof_C 	C 	0.36489	0.13511	0.79942	0.059
Mof_H 	H 	0.38073	0.11927	0.76527	0.044
Mof_C 	C 	0.13511	0.63511	0.20058	0.06
Mof_H 	H 	0.11927	0.61927	0.23473	0.041
Mof_C 	C 	0.13511	0.13511	0.70058	0.06
Mof_H 	H 	0.11927	0.11927	0.73473	0.039
Mof_C 	C 	0.13511	0.36489	0.79942	0.059
Mof_H 	H 	0.11927	0.38073	0.76527	0.044
Mof_C 	C 	0.13511	0.86489	0.29942	0.059
Mof_H 	H 	0.11927	0.88073	0.26527	0.048
Mof_C 	C 	0.20058	0.86489	0.36489	0.059
Mof_H 	H 	0.23473	0.88073	0.38073	0.054
Mof_C 	C 	0.70058	0.86489	0.86489	0.056
Mof_H 	H 	0.73473	0.88073	0.88073	0.064
Mof_C 	C 	0.70058	0.36489	0.36489	0.06
Mof_H 	H 	0.73473	0.38073	0.38073	0.051
Mof_C 	C 	0.79942	0.86489	0.63511	0.056
Mof_H 	H 	0.76527	0.88073	0.61927	0.057
Mof_C 	C 	0.79942	0.36489	0.13511	0.059
Mof_H 	H 	0.76527	0.38073	0.11927	0.044
Mof_C 	C 	0.29942	0.86489	0.13511	0.059
Mof_H 	H 	0.26527	0.88073	0.11927	0.048
Mof_C 	C 	0.20058	0.13511	0.63511	0.06
Mof_H 	H 	0.23473	0.11927	0.61927	0.041
Mof_C 	C 	0.70058	0.13511	0.13511	0.06
Mof_H 	H 	0.73473	0.11927	0.11927	0.039
Mof_C 	C 	0.79942	0.13511	0.36489	0.059
Mof_H 	H 	0.76527	0.11927	0.38073	0.044
Mof_C 	C 	0.29942	0.13511	0.86489	0.059
Mof_H 	H 	0.26527	0.11927	0.88073	0.048
Mof_C 	C 	0.20058	0.36489	0.13511	0.061
Mof_H 	H 	0.23473	0.38073	0.11927	0.041
Mof_C 	C 	0.70058	0.36489	0.63511	0.059
Mof_H 	H 	0.73473	0.38073	0.61927	0.051
Mof_C 	C 	0.79942	0.63511	0.13511	0.058
Mof_H 	H 	0.76527	0.61927	0.11927	0.044
Mof_C 	C 	0.29942	0.63511	0.63511	0.059
Mof_H 	H 	0.26527	0.61927	0.61927	0.047
Mof_C 	C 	0.29942	0.13511	0.13511	0.061
Mof_H 	H 	0.26527	0.11927	0.11927	0.035
Mof_C 	C 	0.20058	0.63511	0.86489	0.058
Mof_H 	H 	0.23473	0.61927	0.88073	0.054
Mof_C 	C 	0.20058	0.13511	0.36489	0.061
Mof_H 	H 	0.23473	0.11927	0.38073	0.041
Mof_C 	C 	0.70058	0.63511	0.36489	0.059
Mof_H 	H 	0.73473	0.61927	0.38073	0.051
Mof_C 	C 	0.79942	0.36489	0.86489	0.057
Mof_H 	H 	0.76527	0.38073	0.88073	0.057
Mof_C 	C 	0.29942	0.36489	0.36489	0.061
Mof_H 	H 	0.26527	0.38073	0.38073	0.047
Mof_C 	C 	0.36489	0.86489	0.79942	0.057
Mof_H 	H 	0.38073	0.88073	0.76527	0.057
Mof_C 	C 	0.36489	0.36489	0.29942	0.061
Mof_H 	H 	0.38073	0.38073	0.26527	0.047
Mof_C 	C 	0.63511	0.86489	0.20058	0.058
Mof_H 	H 	0.61927	0.88073	0.23473	0.054
Mof_C 	C 	0.63511	0.36489	0.70058	0.059
Mof_H 	H 	0.61927	0.38073	0.73473	0.051
Mof_C 	C 	0.13511	0.36489	0.20058	0.061
Mof_H 	H 	0.11927	0.38073	0.23473	0.041
Mof_C 	C 	0.63511	0.13511	0.79942	0.058
Mof_H 	H 	0.61927	0.11927	0.76527	0.044
Mof_C 	C 	0.63511	0.63511	0.29942	0.059
Mof_H 	H 	0.61927	0.61927	0.26527	0.047
Mof_C 	C 	0.13511	0.13511	0.29942	0.061
Mof_H 	H 	0.11927	0.11927	0.26527	0.035
Mof_C 	C 	0.36489	0.13511	0.20058	0.061
Mof_H 	H 	0.38073	0.11927	0.23473	0.041
Mof_C 	C 	0.36489	0.63511	0.70058	0.059
Mof_H 	H 	0.38073	0.61927	0.73473	0.051
Mof_C 	C 	0.86489	0.20058	0.63511	0.058
Mof_H 	H 	0.88073	0.23473	0.61927	0.054
Mof_C 	C 	0.86489	0.70058	0.13511	0.058
Mof_H 	H 	0.88073	0.73473	0.11927	0.051
Mof_C 	C 	0.36489	0.20058	0.13511	0.061
Mof_H 	H 	0.38073	0.23473	0.11927	0.041
Mof_C 	C 	0.86489	0.79942	0.36489	0.057
Mof_H 	H 	0.88073	0.76527	0.38073	0.057
Mof_C 	C 	0.86489	0.29942	0.86489	0.057
Mof_H 	H 	0.88073	0.26527	0.88073	0.061
Mof_C 	C 	0.36489	0.29942	0.36489	0.061
Mof_H 	H 	0.38073	0.26527	0.38073	0.047
Mof_C 	C 	0.13511	0.20058	0.36489	0.061
Mof_H 	H 	0.11927	0.23473	0.38073	0.041
Mof_C 	C 	0.13511	0.70058	0.86489	0.058
Mof_H 	H 	0.11927	0.73473	0.88073	0.051
Mof_C 	C 	0.13511	0.79942	0.63511	0.058
Mof_H 	H 	0.11927	0.76527	0.61927	0.044
Mof_C 	C 	0.13511	0.29942	0.13511	0.061
Mof_H 	H 	0.11927	0.26527	0.11927	0.035
Mof_C 	C 	0.63511	0.79942	0.13511	0.058
Mof_H 	H 	0.61927	0.76527	0.11927	0.044
Mof_C 	C 	0.63511	0.29942	0.63511	0.059
Mof_H 	H 	0.61927	0.26527	0.61927	0.047
Mof_C 	C 	0.36489	0.70058	0.63511	0.059
Mof_H 	H 	0.38073	0.73473	0.61927	0.051
Mof_C 	C 	0.36489	0.79942	0.86489	0.057
Mof_H 	H 	0.38073	0.76527	0.88073	0.057
Mof_C 	C 	0.63511	0.20058	0.86489	0.058
Mof_H 	H 	0.61927	0.23473	0.88073	0.054
Mof_C 	C 	0.63511	0.70058	0.36489	0.059
Mof_H 	H 	0.61927	0.73473	0.38073	0.051
Mof_C 	C 	0.13511	0.63511	0.79942	0.058
Mof_H 	H 	0.11927	0.61927	0.76527	0.044
Mof_C 	C 	0.13511	0.86489	0.70058	0.058
Mof_H 	H 	0.11927	0.88073	0.73473	0.051
Mof_C 	C 	0.86489	0.36489	0.79942	0.057
Mof_H 	H 	0.88073	0.38073	0.76527	0.057
Mof_C 	C 	0.86489	0.86489	0.29942	0.057
Mof_H 	H 	0.88073	0.88073	0.26527	0.061
Mof_C 	C 	0.86489	0.63511	0.20058	0.058
Mof_H 	H 	0.88073	0.61927	0.23473	0.054
Mof_C 	C 	0.86489	0.13511	0.70058	0.058
Mof_H 	H 	0.88073	0.11927	0.73473	0.051
Mof_C 	C 	0.79942	0.13511	0.63511	0.058
Mof_H 	H 	0.76527	0.11927	0.61927	0.044
Mof_C 	C 	0.70058	0.13511	0.86489	0.058
Mof_H 	H 	0.73473	0.11927	0.88073	0.051
Mof_C 	C 	0.79942	0.86489	0.36489	0.057
Mof_H 	H 	0.76527	0.88073	0.38073	0.057
Mof_C 	C 	0.29942	0.86489	0.86489	0.057
Mof_H 	H 	0.26527	0.88073	0.88073	0.061
Mof_C 	C 	0.20058	0.86489	0.63511	0.058
Mof_H 	H 	0.23473	0.88073	0.61927	0.054
Mof_C 	C 	0.70058	0.86489	0.13511	0.058
Mof_H 	H 	0.73473	0.88073	0.11927	0.051
Mof_C 	C 	0.79942	0.63511	0.86489	0.056
Mof_H 	H 	0.76527	0.61927	0.88073	0.057
Mof_C 	C 	0.29942	0.63511	0.36489	0.06
Mof_H 	H 	0.26527	0.61927	0.38073	0.047
Mof_C 	C 	0.20058	0.36489	0.86489	0.059
Mof_H 	H 	0.23473	0.38073	0.88073	0.054
Mof_C 	C 	0.29942	0.36489	0.63511	0.06
Mof_H 	H 	0.26527	0.38073	0.61927	0.047
Mof_C 	C 	0.20058	0.63511	0.13511	0.06
Mof_H 	H 	0.23473	0.61927	0.11927	0.041
Mof_C 	C 	0.70058	0.63511	0.63511	0.058
Mof_H 	H 	0.73473	0.61927	0.61927	0.051
Mof_C 	C 	0.63511	0.13511	0.20058	0.06
Mof_H 	H 	0.61927	0.11927	0.23473	0.041
Mof_C 	C 	0.63511	0.63511	0.70058	0.058
Mof_H 	H 	0.61927	0.61927	0.73473	0.051
Mof_C 	C 	0.36489	0.63511	0.29942	0.06
Mof_H 	H 	0.38073	0.61927	0.26527	0.047
Mof_C 	C 	0.36489	0.86489	0.20058	0.059
Mof_H 	H 	0.38073	0.88073	0.23473	0.054
Mof_C 	C 	0.63511	0.86489	0.79942	0.056
Mof_H 	H 	0.61927	0.88073	0.76527	0.057
Mof_C 	C 	0.63511	0.36489	0.29942	0.06
Mof_H 	H 	0.61927	0.38073	0.26527	0.047
Mof_C 	C 	0.13511	0.29942	0.86489	0.059
Mof_H 	H 	0.11927	0.26527	0.88073	0.048
Mof_C 	C 	0.13511	0.20058	0.63511	0.06
Mof_H 	H 	0.11927	0.23473	0.61927	0.041
Mof_C 	C 	0.86489	0.79942	0.63511	0.056
Mof_H 	H 	0.88073	0.76527	0.61927	0.057
Mof_C 	C 	0.86489	0.29942	0.13511	0.059
Mof_H 	H 	0.88073	0.26527	0.11927	0.048
Mof_C 	C 	0.86489	0.20058	0.36489	0.059
Mof_H 	H 	0.88073	0.23473	0.38073	0.054
Mof_C 	C 	0.86489	0.70058	0.86489	0.056
Mof_H 	H 	0.88073	0.73473	0.88073	0.064
_end
