data_functionalizedCrystal
_audit_creation_method	'EQeq! by Chris Wilmer'
_symmetry_space_group_name_H-M	'P1'
_symmetry_Int_Tables_number	1
_symmetry_cell_setting	triclinic
loop_
_symmetry_equiv_pos_as_xyz
  x,y,z
_cell_length_a	8.1768
_cell_length_b	8.1768
_cell_length_c	15.837
_cell_angle_alpha	91.3882
_cell_angle_beta	91.3882
_cell_angle_gamma	95.2028
loop_
_atom_site_label
_atom_site_type_symbol
_atom_site_fract_x
_atom_site_fract_y
_atom_site_fract_z
_atom_site_charge
Mof_Cd	Cd	0.49269	0.51411	0.74956	0.266
Mof_Cd	Cd	0.00367	0.49633	-0	0.337
Mof_Cd	Cd	0.51411	0.49269	0.24956	0.262
Mof_Cd	Cd	0.49633	0.00367	0.5	0.347
Mof_H 	H 	0.81951	0.19611	0.95958	0.066
Mof_H 	H 	0.00077	0.20807	0.89921	0.057
Mof_H 	H 	0.14782	0.12218	0.0184	0.047
Mof_H 	H 	0.96086	0.10046	0.07399	0.057
Mof_H 	H 	0.04244	0.89928	0.92028	0.013
Mof_H 	H 	0.85541	0.87759	0.97581	0.023
Mof_H 	H 	0.00013	0.79093	0.09216	0.064
Mof_H 	H 	0.17993	0.80107	0.0307	0.066
Mof_H 	H 	0.19611	0.81951	0.45958	0.063
Mof_H 	H 	0.20807	0.00077	0.39921	0.053
Mof_H 	H 	0.12218	0.14782	0.5184	0.047
Mof_H 	H 	0.10046	0.96086	0.57399	0.058
Mof_H 	H 	0.89928	0.04244	0.42028	0.01
Mof_H 	H 	0.87759	0.85541	0.47581	0.023
Mof_H 	H 	0.79093	0.00013	0.59216	0.063
Mof_H 	H 	0.80107	0.17993	0.5307	0.068
Mof_C 	C 	0.2867	0.5033	0.8382	-0.018
Mof_C 	C 	0.7294	0.4798	0.1642	-0.001
Mof_C 	C 	0.4811	0.3075	0.6531	-0.009
Mof_C 	C 	0.6988	0.5306	0.843	-0.009
Mof_C 	C 	0.0162	0.0872	0.0125	-0.133
Mof_C 	C 	0.9871	0.9125	0.9817	0.07
Mof_C 	C 	0.5033	0.2867	0.3382	-0.021
Mof_C 	C 	0.4798	0.7294	0.6642	0.002
Mof_C 	C 	0.3075	0.4811	0.1531	-0.011
Mof_C 	C 	0.5306	0.6988	0.343	-0.011
Mof_C 	C 	0.0872	0.0162	0.5125	-0.113
Mof_C 	C 	0.9125	0.9871	0.4817	0.05
Mof_N 	N 	0.1844	0.507	0.8907	-0.13
Mof_N 	N 	0.812	0.4786	0.1111	-0.138
Mof_N 	N 	0.4716	0.211	0.6012	-0.14
Mof_N 	N 	0.7962	0.5344	0.8964	-0.126
Mof_N 	N 	0.9533	0.2139	0.9628	-0.151
Mof_N 	N 	0.0461	0.7863	0.0282	-0.205
Mof_N 	N 	0.507	0.1844	0.3907	-0.135
Mof_N 	N 	0.4786	0.812	0.6111	-0.136
Mof_N 	N 	0.211	0.4716	0.1012	-0.141
Mof_N 	N 	0.5344	0.7962	0.3964	-0.129
Mof_N 	N 	0.2139	0.9533	0.4628	-0.157
Mof_N 	N 	0.7863	0.0461	0.5282	-0.198
_end
