data_functionalizedCrystal
_audit_creation_method	'EQeq! by Chris Wilmer'
_symmetry_space_group_name_H-M	'P1'
_symmetry_Int_Tables_number	1
_symmetry_cell_setting	triclinic
loop_
_symmetry_equiv_pos_as_xyz
  x,y,z
_cell_length_a	9.277
_cell_length_b	13.6193
_cell_length_c	14.7288
_cell_angle_alpha	90
_cell_angle_beta	90.274
_cell_angle_gamma	90
loop_
_atom_site_label
_atom_site_type_symbol
_atom_site_fract_x
_atom_site_fract_y
_atom_site_fract_z
_atom_site_charge
Mof_Pr	Pr	0.25116	0.99685	0.09263	2.728
Mof_C 	C 	0.4935	0.1047	0.3366	-0.071
Mof_C 	C 	0.4674	0.1976	0.3724	0.046
Mof_H 	H 	0.397	0.2391	0.3452	0.029
Mof_C 	C 	0.5446	0.2295	0.4479	-0.164
Mof_C 	C 	0.6434	0.1663	0.49	-0.04
Mof_H 	H 	0.6966	0.1882	0.5414	0.053
Mof_C 	C 	0.6643	0.0722	0.4573	0.096
Mof_C 	C 	0.5918	0.0434	0.3799	-0.08
Mof_H 	H 	0.6094	0.9799	0.3554	0.072
Mof_C 	C 	0.7592	0.0031	0.5098	-0.317
Mof_H 	H 	0.697	0.971	0.549	0.14
Mof_H 	H 	0.823	0.04	0.549	0.131
Mof_C 	C 	0.8438	0.9296	0.4548	0.104
Mof_C 	C 	0.911	0.9548	0.3739	-0.091
Mof_H 	H 	0.894	0.0179	0.3485	0.077
Mof_C 	C 	0.0021	0.8902	0.3291	-0.063
Mof_C 	C 	0.0263	0.7967	0.3655	0.031
Mof_H 	H 	0.0911	0.7528	0.3366	0.033
Mof_C 	C 	0.9548	0.768	0.4446	-0.148
Mof_C 	C 	0.8646	0.8349	0.4882	-0.051
Mof_H 	H 	0.8162	0.8154	0.542	0.058
Mof_C 	C 	0.4148	0.0674	0.2542	0.314
Mof_C 	C 	0.5253	0.3319	0.4867	0.595
Mof_C 	C 	0.0806	0.9249	0.2463	0.31
Mof_C 	C 	0.9739	0.6675	0.4851	0.537
Mof_O 	O 	0.4712	0.9975	0.2083	-0.428
Mof_O 	O 	0.2957	0.1049	0.2328	-0.445
Mof_O 	O 	0.4197	0.3799	0.4607	-0.68
Mof_O 	O 	0.6183	0.3615	0.5415	-0.65
Mof_O 	O 	0.024	0.9911	0.1983	-0.448
Mof_O 	O 	0.2014	0.8871	0.2286	-0.452
Mof_O 	O 	0.0613	0.6102	0.4489	-0.649
Mof_O 	O 	0.9023	0.646	0.5539	-0.597
Mof_Pr	Pr	0.24884	0.49685	0.40737	2.754
Mof_C 	C 	0.0065	0.6047	0.1634	-0.059
Mof_C 	C 	0.0326	0.6976	0.1276	0.038
Mof_H 	H 	0.103	0.7391	0.1548	0.032
Mof_C 	C 	0.9554	0.7295	0.0521	-0.153
Mof_C 	C 	0.8566	0.6663	0.01	-0.061
Mof_H 	H 	0.8034	0.6882	0.9586	0.064
Mof_C 	C 	0.8357	0.5722	0.0427	0.104
Mof_C 	C 	0.9082	0.5434	0.1201	-0.096
Mof_H 	H 	0.8906	0.4799	0.1446	0.077
Mof_C 	C 	0.7408	0.5031	0.9902	-0.31
Mof_H 	H 	0.803	0.471	0.951	0.137
Mof_H 	H 	0.677	0.54	0.951	0.13
Mof_C 	C 	0.6562	0.4296	0.0452	0.095
Mof_C 	C 	0.589	0.4548	0.1261	-0.086
Mof_H 	H 	0.606	0.5179	0.1515	0.074
Mof_C 	C 	0.4979	0.3902	0.1709	-0.065
Mof_C 	C 	0.4737	0.2967	0.1345	0.036
Mof_H 	H 	0.4089	0.2528	0.1634	0.032
Mof_C 	C 	0.5452	0.268	0.0554	-0.153
Mof_C 	C 	0.6354	0.3349	0.0118	-0.041
Mof_H 	H 	0.6838	0.3154	0.958	0.053
Mof_C 	C 	0.0852	0.5674	0.2458	0.303
Mof_C 	C 	0.9747	0.8319	0.0133	0.57
Mof_C 	C 	0.4194	0.4249	0.2537	0.311
Mof_C 	C 	0.5261	0.1675	0.0149	0.546
Mof_O 	O 	0.0288	0.4975	0.2917	-0.423
Mof_O 	O 	0.2043	0.6049	0.2672	-0.448
Mof_O 	O 	0.0803	0.8799	0.0393	-0.67
Mof_O 	O 	0.8817	0.8615	0.9585	-0.629
Mof_O 	O 	0.476	0.4911	0.3017	-0.447
Mof_O 	O 	0.2986	0.3871	0.2714	-0.453
Mof_O 	O 	0.4387	0.1102	0.0511	-0.642
Mof_O 	O 	0.5977	0.146	0.9461	-0.601
Mof_Pr	Pr	0.74884	0.00315	0.90737	2.729
Mof_C 	C 	0.5065	0.8953	0.6634	-0.07
Mof_C 	C 	0.5326	0.8024	0.6276	0.046
Mof_H 	H 	0.603	0.7609	0.6548	0.029
Mof_C 	C 	0.4554	0.7705	0.5521	-0.164
Mof_C 	C 	0.3566	0.8337	0.51	-0.04
Mof_H 	H 	0.3034	0.8118	0.4586	0.053
Mof_C 	C 	0.3357	0.9278	0.5427	0.096
Mof_C 	C 	0.4082	0.9566	0.6201	-0.08
Mof_H 	H 	0.3906	0.0201	0.6446	0.072
Mof_C 	C 	0.2408	0.9969	0.4902	-0.317
Mof_H 	H 	0.303	0.029	0.451	0.14
Mof_H 	H 	0.177	0.96	0.451	0.131
Mof_C 	C 	0.1562	0.0704	0.5452	0.104
Mof_C 	C 	0.089	0.0452	0.6261	-0.091
Mof_H 	H 	0.106	0.9821	0.6515	0.077
Mof_C 	C 	0.9979	0.1098	0.6709	-0.063
Mof_C 	C 	0.9737	0.2033	0.6345	0.031
Mof_H 	H 	0.9089	0.2472	0.6634	0.033
Mof_C 	C 	0.0452	0.232	0.5554	-0.148
Mof_C 	C 	0.1354	0.1651	0.5118	-0.051
Mof_H 	H 	0.1838	0.1846	0.458	0.058
Mof_C 	C 	0.5852	0.9326	0.7458	0.314
Mof_C 	C 	0.4747	0.6681	0.5133	0.595
Mof_C 	C 	0.9194	0.0751	0.7537	0.31
Mof_C 	C 	0.0261	0.3325	0.5149	0.537
Mof_O 	O 	0.5288	0.0025	0.7917	-0.428
Mof_O 	O 	0.7043	0.8951	0.7672	-0.445
Mof_O 	O 	0.5803	0.6201	0.5393	-0.68
Mof_O 	O 	0.3817	0.6385	0.4585	-0.65
Mof_O 	O 	0.976	0.0089	0.8017	-0.448
Mof_O 	O 	0.7986	0.1129	0.7714	-0.452
Mof_O 	O 	0.9387	0.3898	0.5511	-0.649
Mof_O 	O 	0.0977	0.354	0.4461	-0.597
Mof_Pr	Pr	0.75116	0.50315	0.59263	2.754
Mof_C 	C 	0.9935	0.3953	0.8366	-0.059
Mof_C 	C 	0.9674	0.3024	0.8724	0.038
Mof_H 	H 	0.897	0.2609	0.8452	0.032
Mof_C 	C 	0.0446	0.2705	0.9479	-0.153
Mof_C 	C 	0.1434	0.3337	0.99	-0.061
Mof_H 	H 	0.1966	0.3118	0.0414	0.064
Mof_C 	C 	0.1643	0.4278	0.9573	0.104
Mof_C 	C 	0.0918	0.4566	0.8799	-0.096
Mof_H 	H 	0.1094	0.5201	0.8554	0.077
Mof_C 	C 	0.2592	0.4969	0.0098	-0.31
Mof_H 	H 	0.197	0.529	0.049	0.137
Mof_H 	H 	0.323	0.46	0.049	0.13
Mof_C 	C 	0.3438	0.5704	0.9548	0.095
Mof_C 	C 	0.411	0.5452	0.8739	-0.086
Mof_H 	H 	0.394	0.4821	0.8485	0.074
Mof_C 	C 	0.5021	0.6098	0.8291	-0.065
Mof_C 	C 	0.5263	0.7033	0.8655	0.036
Mof_H 	H 	0.5911	0.7472	0.8366	0.032
Mof_C 	C 	0.4548	0.732	0.9446	-0.153
Mof_C 	C 	0.3646	0.6651	0.9882	-0.041
Mof_H 	H 	0.3162	0.6846	0.042	0.053
Mof_C 	C 	0.9148	0.4326	0.7542	0.303
Mof_C 	C 	0.0253	0.1681	0.9867	0.57
Mof_C 	C 	0.5806	0.5751	0.7463	0.311
Mof_C 	C 	0.4739	0.8325	0.9851	0.546
Mof_O 	O 	0.9712	0.5025	0.7083	-0.423
Mof_O 	O 	0.7957	0.3951	0.7328	-0.448
Mof_O 	O 	0.9197	0.1201	0.9607	-0.67
Mof_O 	O 	0.1183	0.1385	0.0415	-0.629
Mof_O 	O 	0.524	0.5089	0.6983	-0.447
Mof_O 	O 	0.7014	0.6129	0.7286	-0.453
Mof_O 	O 	0.5613	0.8898	0.9489	-0.642
Mof_O 	O 	0.4023	0.854	0.0539	-0.601
_end
