data_functionalizedCrystal
_audit_creation_method	'EQeq! by Chris Wilmer'
_symmetry_space_group_name_H-M	'P1'
_symmetry_Int_Tables_number	1
_symmetry_cell_setting	triclinic
loop_
_symmetry_equiv_pos_as_xyz
  x,y,z
_cell_length_a	7.4219
_cell_length_b	31.5289
_cell_length_c	13.6682
_cell_angle_alpha	90
_cell_angle_beta	91.807
_cell_angle_gamma	90
loop_
_atom_site_label
_atom_site_type_symbol
_atom_site_fract_x
_atom_site_fract_y
_atom_site_fract_z
_atom_site_charge
Mof_Be	Be	0.1934	0.50667	0.8898	0.78
Mof_Be	Be	0.814	0.42782	0.762	0.803
Mof_Be	Be	0.1722	0.17301	0.7375	0.793
Mof_Be	Be	0.6463	0.26514	0.8801	0.805
Mof_Be	Be	0.3237	0.5234	0.6061	0.799
Mof_Be	Be	0.4026	0.22093	0.1194	0.787
Mof_P 	P 	0.20499	0.50187	0.10207	0.615
Mof_P 	P 	0.26181	0.08029	0.73159	0.65
Mof_P 	P 	0.79447	0.20955	0.73623	0.62
Mof_P 	P 	0.19555	0.45062	0.72499	0.616
Mof_P 	P 	0.69473	0.484	0.60613	0.67
Mof_P 	P 	0.71314	0.33701	0.74225	0.642
Mof_P 	P 	0.2964	0.21951	0.90867	0.649
Mof_P 	P 	0.7505	0.2622	0.09228	0.651
Mof_O 	O 	0.2651	0.49819	0.99863	-0.369
Mof_O 	O 	0.0219	0.48165	0.11885	-0.403
Mof_O 	O 	0.2089	0.54766	0.13554	-0.374
Mof_O 	O 	0.3352	0.47326	0.16763	-0.309
Mof_H 	H 	0.4567	0.4833	0.1625	0.212
Mof_O 	O 	0.1847	0.12332	0.70564	-0.331
Mof_O 	O 	0.2042	0.0676	0.83307	-0.348
Mof_O 	O 	0.2023	0.04851	0.6529	-0.377
Mof_O 	O 	0.4731	0.08351	0.73177	-0.531
Mof_H 	H 	0.5081	0.0652	0.7047	0.411
Mof_O 	O 	0.9589	0.1821	0.73053	-0.355
Mof_O 	O 	0.7931	0.23223	0.83476	-0.397
Mof_O 	O 	0.7703	0.23993	0.65066	-0.405
Mof_O 	O 	0.6347	0.1767	0.72883	-0.345
Mof_H 	H 	0.5259	0.1877	0.7231	0.253
Mof_O 	O 	0.0174	0.42702	0.72057	-0.357
Mof_O 	O 	0.1934	0.48593	0.64828	-0.41
Mof_O 	O 	0.2474	0.46606	0.82595	-0.391
Mof_O 	O 	0.3361	0.41573	0.69569	-0.349
Mof_H 	H 	0.4445	0.4264	0.6966	0.268
Mof_O 	O 	0.6777	0.44666	0.6764	-0.391
Mof_O 	O 	0.5335	0.51247	0.60945	-0.382
Mof_O 	O 	0.7346	0.46626	0.50582	-0.367
Mof_O 	O 	0.8542	0.51411	0.63947	-0.523
Mof_H 	H 	0.9505	0.5065	0.6356	0.379
Mof_O 	O 	0.8804	0.31896	0.69536	-0.348
Mof_O 	O 	0.7507	0.38027	0.78367	-0.346
Mof_O 	O 	0.6376	0.30914	0.81985	-0.362
Mof_O 	O 	0.5626	0.34291	0.65899	-0.38
Mof_H 	H 	0.5415	0.3212	0.6225	0.286
Mof_O 	O 	0.334	0.20504	0.01312	-0.373
Mof_O 	O 	0.4456	0.24642	0.86913	-0.382
Mof_O 	O 	0.2534	0.18025	0.84772	-0.366
Mof_O 	O 	0.1293	0.25033	0.90555	-0.445
Mof_H 	H 	0.0304	0.2416	0.8865	0.313
Mof_O 	O 	0.7894	0.29922	0.16127	-0.387
Mof_O 	O 	0.612	0.232	0.12981	-0.377
Mof_O 	O 	0.7083	0.27844	0.9906	-0.372
Mof_O 	O 	0.9288	0.23435	0.09069	-0.46
Mof_H 	H 	0.0178	0.2479	0.101	0.315
Mof_Be	Be	0.3066	0.00667	0.6102	0.777
Mof_Be	Be	0.686	0.92782	0.738	0.799
Mof_Be	Be	0.3278	0.67301	0.7625	0.799
Mof_Be	Be	0.8537	0.76514	0.6199	0.796
Mof_Be	Be	0.1763	0.0234	0.8939	0.797
Mof_Be	Be	0.0974	0.72093	0.3806	0.795
Mof_P 	P 	0.29501	0.00187	0.39793	0.614
Mof_P 	P 	0.23819	0.58029	0.76841	0.649
Mof_P 	P 	0.70553	0.70955	0.76377	0.619
Mof_P 	P 	0.30445	0.95062	0.77501	0.616
Mof_P 	P 	0.80527	0.984	0.89387	0.668
Mof_P 	P 	0.78686	0.83701	0.75775	0.641
Mof_P 	P 	0.2036	0.71951	0.59133	0.65
Mof_P 	P 	0.7495	0.7622	0.40772	0.653
Mof_O 	O 	0.2349	0.99819	0.50137	-0.368
Mof_O 	O 	0.4781	0.98165	0.38115	-0.402
Mof_O 	O 	0.2911	0.04766	0.36446	-0.375
Mof_O 	O 	0.1648	0.97326	0.33237	-0.308
Mof_H 	H 	0.0433	0.9833	0.3375	0.212
Mof_O 	O 	0.3153	0.62332	0.79436	-0.329
Mof_O 	O 	0.2958	0.5676	0.66693	-0.346
Mof_O 	O 	0.2977	0.54851	0.8471	-0.375
Mof_O 	O 	0.0269	0.58351	0.76823	-0.52
Mof_H 	H 	0.9919	0.5652	0.7953	0.401
Mof_O 	O 	0.5411	0.6821	0.76947	-0.364
Mof_O 	O 	0.7069	0.73223	0.66524	-0.4
Mof_O 	O 	0.7297	0.73993	0.84934	-0.405
Mof_O 	O 	0.8653	0.6767	0.77117	-0.347
Mof_H 	H 	0.9741	0.6877	0.7769	0.248
Mof_O 	O 	0.4826	0.92702	0.77943	-0.352
Mof_O 	O 	0.3066	0.98593	0.85172	-0.409
Mof_O 	O 	0.2526	0.96606	0.67405	-0.389
Mof_O 	O 	0.1639	0.91573	0.80431	-0.346
Mof_H 	H 	0.0555	0.9264	0.8034	0.27
Mof_O 	O 	0.8223	0.94666	0.8236	-0.392
Mof_O 	O 	0.9665	0.01247	0.89055	-0.379
Mof_O 	O 	0.7654	0.96626	0.99418	-0.368
Mof_O 	O 	0.6458	0.01411	0.86053	-0.521
Mof_H 	H 	0.5495	0.0065	0.8644	0.379
Mof_O 	O 	0.6196	0.81896	0.80464	-0.349
Mof_O 	O 	0.7493	0.88027	0.71633	-0.347
Mof_O 	O 	0.8624	0.80914	0.68015	-0.363
Mof_O 	O 	0.9374	0.84291	0.84101	-0.381
Mof_H 	H 	0.9585	0.8212	0.8775	0.283
Mof_O 	O 	0.166	0.70504	0.48688	-0.371
Mof_O 	O 	0.0544	0.74642	0.63087	-0.373
Mof_O 	O 	0.2466	0.68025	0.65228	-0.364
Mof_O 	O 	0.3707	0.75033	0.59445	-0.443
Mof_H 	H 	0.4696	0.7416	0.6135	0.318
Mof_O 	O 	0.7106	0.79922	0.33873	-0.391
Mof_O 	O 	0.888	0.732	0.37019	-0.386
Mof_O 	O 	0.7917	0.77844	0.5094	-0.374
Mof_O 	O 	0.5712	0.73435	0.40931	-0.482
Mof_H 	H 	0.4822	0.7479	0.399	0.332
Mof_Be	Be	0.8066	0.49333	0.1102	0.779
Mof_Be	Be	0.186	0.57218	0.238	0.802
Mof_Be	Be	0.8278	0.82699	0.2625	0.792
Mof_Be	Be	0.3537	0.73486	0.1199	0.804
Mof_Be	Be	0.6763	0.4766	0.3939	0.799
Mof_Be	Be	0.5974	0.77907	0.8806	0.787
Mof_P 	P 	0.79501	0.49813	0.89793	0.615
Mof_P 	P 	0.73819	0.91971	0.26841	0.65
Mof_P 	P 	0.20553	0.79045	0.26377	0.62
Mof_P 	P 	0.80445	0.54938	0.27501	0.616
Mof_P 	P 	0.30527	0.516	0.39387	0.67
Mof_P 	P 	0.28686	0.66299	0.25775	0.642
Mof_P 	P 	0.7036	0.78049	0.09133	0.649
Mof_P 	P 	0.2495	0.7378	0.90772	0.651
Mof_O 	O 	0.7349	0.50181	0.00137	-0.369
Mof_O 	O 	0.9781	0.51835	0.88115	-0.403
Mof_O 	O 	0.7911	0.45234	0.86446	-0.374
Mof_O 	O 	0.6648	0.52674	0.83237	-0.309
Mof_H 	H 	0.5433	0.5167	0.8375	0.212
Mof_O 	O 	0.8153	0.87668	0.29436	-0.331
Mof_O 	O 	0.7958	0.9324	0.16693	-0.348
Mof_O 	O 	0.7977	0.95149	0.3471	-0.377
Mof_O 	O 	0.5269	0.91649	0.26823	-0.531
Mof_H 	H 	0.4919	0.9348	0.2953	0.411
Mof_O 	O 	0.0411	0.8179	0.26947	-0.355
Mof_O 	O 	0.2069	0.76777	0.16524	-0.397
Mof_O 	O 	0.2297	0.76007	0.34934	-0.405
Mof_O 	O 	0.3653	0.8233	0.27117	-0.345
Mof_H 	H 	0.4741	0.8123	0.2769	0.253
Mof_O 	O 	0.9826	0.57298	0.27943	-0.357
Mof_O 	O 	0.8066	0.51407	0.35172	-0.41
Mof_O 	O 	0.7526	0.53394	0.17405	-0.391
Mof_O 	O 	0.6639	0.58427	0.30431	-0.349
Mof_H 	H 	0.5555	0.5736	0.3034	0.268
Mof_O 	O 	0.3223	0.55334	0.3236	-0.391
Mof_O 	O 	0.4665	0.48753	0.39055	-0.382
Mof_O 	O 	0.2654	0.53374	0.49418	-0.367
Mof_O 	O 	0.1458	0.48589	0.36053	-0.523
Mof_H 	H 	0.0495	0.4935	0.3644	0.379
Mof_O 	O 	0.1196	0.68104	0.30464	-0.348
Mof_O 	O 	0.2493	0.61973	0.21633	-0.346
Mof_O 	O 	0.3624	0.69086	0.18015	-0.362
Mof_O 	O 	0.4374	0.65709	0.34101	-0.38
Mof_H 	H 	0.4585	0.6788	0.3775	0.286
Mof_O 	O 	0.666	0.79496	0.98688	-0.373
Mof_O 	O 	0.5544	0.75358	0.13087	-0.382
Mof_O 	O 	0.7466	0.81975	0.15228	-0.366
Mof_O 	O 	0.8707	0.74967	0.09445	-0.445
Mof_H 	H 	0.9696	0.7584	0.1135	0.313
Mof_O 	O 	0.2106	0.70078	0.83873	-0.387
Mof_O 	O 	0.388	0.768	0.87019	-0.377
Mof_O 	O 	0.2917	0.72156	0.0094	-0.372
Mof_O 	O 	0.0712	0.76565	0.90931	-0.46
Mof_H 	H 	0.9822	0.7521	0.899	0.315
Mof_Be	Be	0.6934	0.99333	0.3898	0.777
Mof_Be	Be	0.314	0.07218	0.262	0.799
Mof_Be	Be	0.6722	0.32699	0.2375	0.799
Mof_Be	Be	0.1463	0.23486	0.3801	0.796
Mof_Be	Be	0.8237	0.9766	0.1061	0.797
Mof_Be	Be	0.9026	0.27907	0.6194	0.795
Mof_P 	P 	0.70499	0.99813	0.60207	0.614
Mof_P 	P 	0.76181	0.41971	0.23159	0.649
Mof_P 	P 	0.29447	0.29045	0.23623	0.619
Mof_P 	P 	0.69555	0.04938	0.22499	0.616
Mof_P 	P 	0.19473	0.016	0.10613	0.668
Mof_P 	P 	0.21314	0.16299	0.24225	0.641
Mof_P 	P 	0.7964	0.28049	0.40867	0.65
Mof_P 	P 	0.2505	0.2378	0.59228	0.653
Mof_O 	O 	0.7651	0.00181	0.49863	-0.368
Mof_O 	O 	0.5219	0.01835	0.61885	-0.402
Mof_O 	O 	0.7089	0.95234	0.63554	-0.375
Mof_O 	O 	0.8352	0.02674	0.66763	-0.308
Mof_H 	H 	0.9567	0.0167	0.6625	0.212
Mof_O 	O 	0.6847	0.37668	0.20564	-0.329
Mof_O 	O 	0.7042	0.4324	0.33307	-0.346
Mof_O 	O 	0.7023	0.45149	0.1529	-0.375
Mof_O 	O 	0.9731	0.41649	0.23177	-0.52
Mof_H 	H 	0.0081	0.4348	0.2047	0.401
Mof_O 	O 	0.4589	0.3179	0.23053	-0.364
Mof_O 	O 	0.2931	0.26777	0.33476	-0.4
Mof_O 	O 	0.2703	0.26007	0.15066	-0.405
Mof_O 	O 	0.1347	0.3233	0.22883	-0.347
Mof_H 	H 	0.0259	0.3123	0.2231	0.248
Mof_O 	O 	0.5174	0.07298	0.22057	-0.352
Mof_O 	O 	0.6934	0.01407	0.14828	-0.409
Mof_O 	O 	0.7474	0.03394	0.32595	-0.389
Mof_O 	O 	0.8361	0.08427	0.19569	-0.346
Mof_H 	H 	0.9445	0.0736	0.1966	0.27
Mof_O 	O 	0.1777	0.05334	0.1764	-0.392
Mof_O 	O 	0.0335	0.98753	0.10945	-0.379
Mof_O 	O 	0.2346	0.03374	0.00582	-0.368
Mof_O 	O 	0.3542	0.98589	0.13947	-0.521
Mof_H 	H 	0.4505	0.9935	0.1356	0.379
Mof_O 	O 	0.3804	0.18104	0.19536	-0.349
Mof_O 	O 	0.2507	0.11973	0.28367	-0.347
Mof_O 	O 	0.1376	0.19086	0.31985	-0.363
Mof_O 	O 	0.0626	0.15709	0.15899	-0.381
Mof_H 	H 	0.0415	0.1788	0.1225	0.283
Mof_O 	O 	0.834	0.29496	0.51312	-0.371
Mof_O 	O 	0.9456	0.25358	0.36913	-0.373
Mof_O 	O 	0.7534	0.31975	0.34772	-0.364
Mof_O 	O 	0.6293	0.24967	0.40555	-0.443
Mof_H 	H 	0.5304	0.2584	0.3865	0.318
Mof_O 	O 	0.2894	0.20078	0.66127	-0.391
Mof_O 	O 	0.112	0.268	0.62981	-0.386
Mof_O 	O 	0.2083	0.22156	0.4906	-0.374
Mof_O 	O 	0.4288	0.26565	0.59069	-0.482
Mof_H 	H 	0.5178	0.2521	0.601	0.332
_end
