data_functionalizedCrystal
_audit_creation_method	'EQeq! by Chris Wilmer'
_symmetry_space_group_name_H-M	'P1'
_symmetry_Int_Tables_number	1
_symmetry_cell_setting	triclinic
loop_
_symmetry_equiv_pos_as_xyz
  x,y,z
_cell_length_a	9.404
_cell_length_b	9.957
_cell_length_c	11.459
_cell_angle_alpha	93.381
_cell_angle_beta	97.716
_cell_angle_gamma	110.242
loop_
_atom_site_label
_atom_site_type_symbol
_atom_site_fract_x
_atom_site_fract_y
_atom_site_fract_z
_atom_site_charge
Mof_La	La	0.78447	0.54726	0.48193	2.029
Mof_La	La	0.21553	0.45274	0.51807	2.029
Mof_H 	H 	0.5827	0.1334	0.3334	0.07
Mof_H 	H 	0.3079	0.7173	0.2787	0.04
Mof_H 	H 	0.1856	0.0041	0.4657	0.023
Mof_H 	H 	0.6456	0.7186	0.1184	0.142
Mof_H 	H 	0.5596	0.6024	0.9241	-0.013
Mof_H 	H 	0.2397	0.7848	0.8817	-0.013
Mof_H 	H 	0.3335	0.9096	0.0721	0.13
Mof_H 	H 	0.4173	0.8666	0.6666	0.07
Mof_H 	H 	0.6921	0.2827	0.7213	0.04
Mof_H 	H 	0.8144	0.9959	0.5343	0.023
Mof_H 	H 	0.3544	0.2814	0.8816	0.142
Mof_H 	H 	0.4404	0.3976	0.0759	-0.013
Mof_H 	H 	0.7603	0.2152	0.1183	-0.013
Mof_H 	H 	0.6665	0.0904	0.9279	0.13
Mof_C 	C 	0.4283	0.2432	0.4688	0.464
Mof_C 	C 	0.3902	0.0924	0.4094	-0.118
Mof_C 	C 	0.492	0.0614	0.3431	-0.078
Mof_C 	C 	0.4553	0.9223	0.2926	0.15
Mof_C 	C 	0.3269	0.8114	0.31	-0.079
Mof_C 	C 	0.2238	0.8433	0.3768	-0.109
Mof_C 	C 	0.0804	0.7287	0.3962	0.386
Mof_C 	C 	0.2548	0.9827	0.424	0.038
Mof_C 	C 	0.4956	0.8222	0.1123	0.278
Mof_C 	C 	0.5646	0.732	0.0707	-0.266
Mof_C 	C 	0.5106	0.66	0.9544	0.135
Mof_C 	C 	0.3861	0.6746	0.8857	-0.186
Mof_C 	C 	0.3222	0.5899	0.7663	0.353
Mof_C 	C 	0.3205	0.7707	0.929	0.137
Mof_C 	C 	0.3763	0.8456	0.0435	-0.269
Mof_C 	C 	0.5717	0.7568	0.5312	0.464
Mof_C 	C 	0.6098	0.9076	0.5906	-0.118
Mof_C 	C 	0.508	0.9386	0.6569	-0.078
Mof_C 	C 	0.5447	0.0777	0.7074	0.15
Mof_C 	C 	0.6731	0.1886	0.69	-0.079
Mof_C 	C 	0.7762	0.1567	0.6232	-0.109
Mof_C 	C 	0.9196	0.2713	0.6038	0.386
Mof_C 	C 	0.7452	0.0173	0.576	0.038
Mof_C 	C 	0.5044	0.1778	0.8877	0.278
Mof_C 	C 	0.4354	0.268	0.9293	-0.266
Mof_C 	C 	0.4894	0.34	0.0456	0.135
Mof_C 	C 	0.6139	0.3254	0.1143	-0.186
Mof_C 	C 	0.6778	0.4101	0.2337	0.353
Mof_C 	C 	0.6795	0.2293	0.071	0.137
Mof_C 	C 	0.6237	0.1544	0.9565	-0.269
Mof_O 	O 	0.5564	0.3356	0.4657	-0.556
Mof_O 	O 	0.3244	0.2661	0.5185	-0.532
Mof_O 	O 	0.9593	0.7548	0.3843	-0.444
Mof_O 	O 	0.0836	0.6076	0.4243	-0.589
Mof_O 	O 	0.5585	0.8955	0.2256	-0.271
Mof_O 	O 	0.2121	0.6101	0.7024	-0.442
Mof_O 	O 	0.3788	0.4995	0.7321	-0.41
Mof_O 	O 	0.4436	0.6644	0.5343	-0.556
Mof_O 	O 	0.6756	0.7339	0.4815	-0.532
Mof_O 	O 	0.0407	0.2452	0.6157	-0.444
Mof_O 	O 	0.9164	0.3924	0.5757	-0.589
Mof_O 	O 	0.4415	0.1045	0.7744	-0.271
Mof_O 	O 	0.7879	0.3899	0.2976	-0.442
Mof_O 	O 	0.6212	0.5005	0.2679	-0.41
_end
