data_functionalizedCrystal
_audit_creation_method	'EQeq! by Chris Wilmer'
_symmetry_space_group_name_H-M	'P1'
_symmetry_Int_Tables_number	1
_symmetry_cell_setting	triclinic
loop_
_symmetry_equiv_pos_as_xyz
  x,y,z
_cell_length_a	9.1176
_cell_length_b	9.1176
_cell_length_c	14.5424
_cell_angle_alpha	79.7865
_cell_angle_beta	79.7864
_cell_angle_gamma	115.745
loop_
_atom_site_label
_atom_site_type_symbol
_atom_site_fract_x
_atom_site_fract_y
_atom_site_fract_z
_atom_site_charge
Mof_Eu	Eu	0.99051	0.24051	0.01898	2.117
Mof_Eu	Eu	0.75949	0.00949	0.48102	2.152
Mof_Eu	Eu	0.00949	0.75949	0.98102	2.116
Mof_Eu	Eu	0.24051	0.99051	0.51898	2.151
Mof_H 	H 	0.6142	0.1898	0.9334	0.073
Mof_H 	H 	0.4524	0.3768	0.9334	0.076
Mof_H 	H 	0.8102	0.3858	0.5666	0.072
Mof_H 	H 	0.6232	0.5476	0.5666	0.075
Mof_H 	H 	0.3858	0.8102	0.0666	0.073
Mof_H 	H 	0.5476	0.6232	0.0666	0.076
Mof_H 	H 	0.1898	0.6142	0.4334	0.072
Mof_H 	H 	0.3768	0.4524	0.4334	0.075
Mof_C 	C 	0.75403	0.43563	0.94154	0.442
Mof_C 	C 	0.6034	0.2858	0.9366	-0.153
Mof_C 	C 	0.30443	0.12283	0.94154	0.461
Mof_C 	C 	0.46	0.2776	0.9366	-0.169
Mof_C 	C 	0.56437	0.24597	0.55846	0.446
Mof_C 	C 	0.7142	0.3966	0.5634	-0.158
Mof_C 	C 	0.87717	0.69557	0.55846	0.458
Mof_C 	C 	0.7224	0.54	0.5634	-0.166
Mof_C 	C 	0.24597	0.56437	0.05846	0.442
Mof_C 	C 	0.3966	0.7142	0.0634	-0.153
Mof_C 	C 	0.69557	0.87717	0.05846	0.461
Mof_C 	C 	0.54	0.7224	0.0634	-0.169
Mof_C 	C 	0.43563	0.75403	0.44154	0.446
Mof_C 	C 	0.2858	0.6034	0.4366	-0.158
Mof_C 	C 	0.12283	0.30443	0.44154	0.458
Mof_C 	C 	0.2776	0.46	0.4366	-0.166
Mof_C 	C 	0.9246	0.0754	0.25	0.28
Mof_C 	C 	0.8254	0.1746	0.25	0.277
Mof_C 	C 	0.0754	0.9246	0.75	0.28
Mof_C 	C 	0.1746	0.8254	0.75	0.277
Mof_O 	O 	0.86595	0.40875	0.9671	-0.615
Mof_O 	O 	0.76767	0.58167	0.92426	-0.483
Mof_O 	O 	0.9912	0.0688	0.1692	-0.458
Mof_O 	O 	0.16695	0.12415	0.9671	-0.621
Mof_O 	O 	0.30807	0.99407	0.92426	-0.504
Mof_O 	O 	0.8396	0.262	0.1692	-0.448
Mof_O 	O 	0.59125	0.13405	0.5329	-0.628
Mof_O 	O 	0.41833	0.23233	0.57574	-0.49
Mof_O 	O 	0.9312	0.0088	0.3308	-0.459
Mof_O 	O 	0.87585	0.83305	0.5329	-0.625
Mof_O 	O 	0.00593	0.69193	0.57574	-0.502
Mof_O 	O 	0.738	0.1604	0.3308	-0.449
Mof_O 	O 	0.13405	0.59125	0.0329	-0.615
Mof_O 	O 	0.23233	0.41833	0.07574	-0.483
Mof_O 	O 	0.0088	0.9312	0.8308	-0.458
Mof_O 	O 	0.83305	0.87585	0.0329	-0.621
Mof_O 	O 	0.69193	0.00593	0.07574	-0.504
Mof_O 	O 	0.1604	0.738	0.8308	-0.448
Mof_O 	O 	0.40875	0.86595	0.4671	-0.628
Mof_O 	O 	0.58167	0.76767	0.42426	-0.49
Mof_O 	O 	0.0688	0.9912	0.6692	-0.459
Mof_O 	O 	0.12415	0.16695	0.4671	-0.625
Mof_O 	O 	0.99407	0.30807	0.42426	-0.502
Mof_O 	O 	0.262	0.8396	0.6692	-0.449
_end
