data_functionalizedCrystal
_audit_creation_method	'EQeq! by Chris Wilmer'
_symmetry_space_group_name_H-M	'P1'
_symmetry_Int_Tables_number	1
_symmetry_cell_setting	triclinic
loop_
_symmetry_equiv_pos_as_xyz
  x,y,z
_cell_length_a	15.665
_cell_length_b	14.616
_cell_length_c	12.307
_cell_angle_alpha	90
_cell_angle_beta	108.31
_cell_angle_gamma	90
loop_
_atom_site_label
_atom_site_type_symbol
_atom_site_fract_x
_atom_site_fract_y
_atom_site_fract_z
_atom_site_charge
Mof_Mn	Mn	0.79807	0.9193	0.32488	0.636
Mof_N 	N 	0.85046	0.84599	0.2029	-0.189
Mof_N 	N 	0.70229	0.80048	0.321	-0.138
Mof_N 	N 	0.39102	0.62768	0.9911	-0.146
Mof_N 	N 	0.3758	0.54119	0.3074	-0.149
Mof_N 	N 	0.48714	0.86727	0.4311	-0.081
Mof_N 	N 	0.9083	0.8238	0.0637	-0.223
Mof_H 	H 	0.951	0.8249	0.0337	0.124
Mof_C 	C 	0.9049	0.8714	0.1515	0.03
Mof_H 	H 	0.9412	0.9226	0.1757	0.018
Mof_C 	C 	0.8335	0.7727	0.0281	0.082
Mof_H 	H 	0.8125	0.7381	0.9615	-0.017
Mof_C 	C 	0.7962	0.7836	0.1129	-0.092
Mof_H 	H 	0.7432	0.7556	0.1143	0.055
Mof_H 	H 	0.4219	0.3322	0.002	0.04
Mof_C 	C 	0.3793	0.3836	0.1235	0.084
Mof_H 	H 	0.3792	0.4463	0.1111	-0.02
Mof_C 	C 	0.4116	0.2372	0.1301	-0.063
Mof_H 	H 	0.4326	0.1805	0.1153	0.049
Mof_C 	C 	0.3783	0.2577	0.215	0.064
Mof_H 	H 	0.3749	0.218	0.2726	-0.004
Mof_C 	C 	0.63337	0.76524	0.2976	-0.118
Mof_C 	C 	0.42854	0.65293	0.081	-0.116
Mof_C 	C 	0.41871	0.59882	0.2881	-0.129
Mof_C 	C 	0.4922	0.81134	0.3679	-0.143
Mof_Mn	Mn	0.29807	0.4193	0.32488	0.617
Mof_N 	N 	0.35046	0.34599	0.2029	-0.191
Mof_N 	N 	0.20229	0.30048	0.321	-0.146
Mof_N 	N 	0.89102	0.12768	0.9911	-0.155
Mof_N 	N 	0.8758	0.04119	0.3074	-0.158
Mof_N 	N 	0.98714	0.36727	0.4311	-0.08
Mof_N 	N 	0.4083	0.3238	0.0637	-0.223
Mof_H 	H 	0.451	0.3249	0.0337	0.093
Mof_C 	C 	0.4049	0.3714	0.1515	0.032
Mof_H 	H 	0.4412	0.4226	0.1757	0.001
Mof_C 	C 	0.3335	0.2727	0.0281	0.083
Mof_H 	H 	0.3125	0.2381	0.9615	-0.019
Mof_C 	C 	0.2962	0.2836	0.1129	-0.088
Mof_H 	H 	0.2432	0.2556	0.1143	0.052
Mof_H 	H 	0.9219	0.8322	0.002	0.023
Mof_C 	C 	0.8793	0.8836	0.1235	0.089
Mof_H 	H 	0.8792	0.9463	0.1111	-0.019
Mof_C 	C 	0.9116	0.7372	0.1301	-0.053
Mof_H 	H 	0.9326	0.6805	0.1153	0.06
Mof_C 	C 	0.8783	0.7577	0.215	0.073
Mof_H 	H 	0.8749	0.718	0.2726	0.005
Mof_C 	C 	0.13337	0.26524	0.2976	-0.103
Mof_C 	C 	0.92854	0.15293	0.081	-0.04
Mof_C 	C 	0.91871	0.09882	0.2881	-0.065
Mof_C 	C 	0.9922	0.31134	0.3679	-0.065
Mof_Mn	Mn	0.20193	0.9193	0.17512	0.615
Mof_N 	N 	0.14954	0.84599	0.2971	-0.193
Mof_N 	N 	0.29771	0.80048	0.179	-0.139
Mof_N 	N 	0.60898	0.62768	0.5089	-0.145
Mof_N 	N 	0.6242	0.54119	0.1926	-0.148
Mof_N 	N 	0.51286	0.86727	0.0689	-0.081
Mof_N 	N 	0.0917	0.8238	0.4363	-0.22
Mof_H 	H 	0.049	0.8249	0.4663	0.059
Mof_C 	C 	0.0951	0.8714	0.3485	0.036
Mof_H 	H 	0.0588	0.9226	0.3243	-0.017
Mof_C 	C 	0.1665	0.7727	0.4719	0.071
Mof_H 	H 	0.1875	0.7381	0.5385	-0.015
Mof_C 	C 	0.2038	0.7836	0.3871	-0.076
Mof_H 	H 	0.2568	0.7556	0.3857	0.049
Mof_H 	H 	0.5781	0.3322	0.498	0.041
Mof_C 	C 	0.6207	0.3836	0.3765	0.083
Mof_H 	H 	0.6208	0.4463	0.3889	-0.018
Mof_C 	C 	0.5884	0.2372	0.3699	-0.061
Mof_H 	H 	0.5674	0.1805	0.3847	0.048
Mof_C 	C 	0.6217	0.2577	0.285	0.061
Mof_H 	H 	0.6251	0.218	0.2274	-0.003
Mof_C 	C 	0.36663	0.76524	0.2024	-0.119
Mof_C 	C 	0.57146	0.65293	0.419	-0.115
Mof_C 	C 	0.58129	0.59882	0.2119	-0.127
Mof_C 	C 	0.5078	0.81134	0.1321	-0.143
Mof_Mn	Mn	0.70193	0.4193	0.17512	0.634
Mof_N 	N 	0.64954	0.34599	0.2971	-0.191
Mof_N 	N 	0.79771	0.30048	0.179	-0.149
Mof_N 	N 	0.10898	0.12768	0.5089	-0.155
Mof_N 	N 	0.1242	0.04119	0.1926	-0.156
Mof_N 	N 	0.01286	0.36727	0.0689	-0.099
Mof_N 	N 	0.5917	0.3238	0.4363	-0.222
Mof_H 	H 	0.549	0.3249	0.4663	0.092
Mof_C 	C 	0.5951	0.3714	0.3485	0.034
Mof_H 	H 	0.5588	0.4226	0.3243	0.001
Mof_C 	C 	0.6665	0.2727	0.4719	0.078
Mof_H 	H 	0.6875	0.2381	0.5385	-0.017
Mof_C 	C 	0.7038	0.2836	0.3871	-0.083
Mof_H 	H 	0.7568	0.2556	0.3857	0.053
Mof_H 	H 	0.0781	0.8322	0.498	0.059
Mof_C 	C 	0.1207	0.8836	0.3765	0.078
Mof_H 	H 	0.1208	0.9463	0.3889	-0.019
Mof_C 	C 	0.0884	0.7372	0.3699	-0.067
Mof_H 	H 	0.0674	0.6805	0.3847	0.036
Mof_C 	C 	0.1217	0.7577	0.285	0.05
Mof_H 	H 	0.1251	0.718	0.2274	-0.011
Mof_C 	C 	0.86663	0.26524	0.2024	-0.07
Mof_C 	C 	0.07146	0.15293	0.419	-0.125
Mof_C 	C 	0.08129	0.09882	0.2119	-0.124
Mof_C 	C 	0.0078	0.31134	0.1321	-0.152
Mof_Mn	Mn	0.20193	0.0807	0.67512	0.614
Mof_N 	N 	0.14954	0.15401	0.7971	-0.193
Mof_N 	N 	0.29771	0.19952	0.679	-0.139
Mof_N 	N 	0.60898	0.37232	0.0089	-0.143
Mof_N 	N 	0.6242	0.45881	0.6926	-0.148
Mof_N 	N 	0.51286	0.13273	0.5689	-0.081
Mof_N 	N 	0.0917	0.1762	0.9363	-0.219
Mof_H 	H 	0.049	0.1751	0.9663	0.058
Mof_C 	C 	0.0951	0.1286	0.8485	0.036
Mof_H 	H 	0.0588	0.0774	0.8243	-0.017
Mof_C 	C 	0.1665	0.2273	0.9719	0.062
Mof_H 	H 	0.1875	0.2619	0.0385	-0.01
Mof_C 	C 	0.2038	0.2164	0.8871	-0.073
Mof_H 	H 	0.2568	0.2444	0.8857	0.048
Mof_H 	H 	0.5781	0.6678	0.998	0.04
Mof_C 	C 	0.6207	0.6164	0.8765	0.083
Mof_H 	H 	0.6208	0.5537	0.8889	-0.018
Mof_C 	C 	0.5884	0.7628	0.8699	-0.06
Mof_H 	H 	0.5674	0.8195	0.8847	0.048
Mof_C 	C 	0.6217	0.7423	0.785	0.061
Mof_H 	H 	0.6251	0.782	0.7274	-0.003
Mof_C 	C 	0.36663	0.23476	0.7024	-0.12
Mof_C 	C 	0.57146	0.34707	0.919	-0.118
Mof_C 	C 	0.58129	0.40118	0.7119	-0.128
Mof_C 	C 	0.5078	0.18866	0.6321	-0.143
Mof_Mn	Mn	0.70193	0.5807	0.67512	0.633
Mof_N 	N 	0.64954	0.65401	0.7971	-0.191
Mof_N 	N 	0.79771	0.69952	0.679	-0.149
Mof_N 	N 	0.10898	0.87232	0.0089	-0.154
Mof_N 	N 	0.1242	0.95881	0.6926	-0.156
Mof_N 	N 	0.01286	0.63273	0.5689	-0.1
Mof_N 	N 	0.5917	0.6762	0.9363	-0.221
Mof_H 	H 	0.549	0.6751	0.9663	0.092
Mof_C 	C 	0.5951	0.6286	0.8485	0.034
Mof_H 	H 	0.5588	0.5774	0.8243	0.001
Mof_C 	C 	0.6665	0.7273	0.9719	0.076
Mof_H 	H 	0.6875	0.7619	0.0385	-0.016
Mof_C 	C 	0.7038	0.7164	0.8871	-0.083
Mof_H 	H 	0.7568	0.7444	0.8857	0.052
Mof_H 	H 	0.0781	0.1678	0.998	0.058
Mof_C 	C 	0.1207	0.1164	0.8765	0.077
Mof_H 	H 	0.1208	0.0537	0.8889	-0.02
Mof_C 	C 	0.0884	0.2628	0.8699	-0.064
Mof_H 	H 	0.0674	0.3195	0.8847	0.034
Mof_C 	C 	0.1217	0.2423	0.785	0.047
Mof_H 	H 	0.1251	0.282	0.7274	-0.011
Mof_C 	C 	0.86663	0.73476	0.7024	-0.07
Mof_C 	C 	0.07146	0.84707	0.919	-0.126
Mof_C 	C 	0.08129	0.90118	0.7119	-0.125
Mof_C 	C 	0.0078	0.68866	0.6321	-0.153
Mof_Mn	Mn	0.79807	0.0807	0.82488	0.636
Mof_N 	N 	0.85046	0.15401	0.7029	-0.189
Mof_N 	N 	0.70229	0.19952	0.821	-0.139
Mof_N 	N 	0.39102	0.37232	0.4911	-0.145
Mof_N 	N 	0.3758	0.45881	0.8074	-0.149
Mof_N 	N 	0.48714	0.13273	0.9311	-0.082
Mof_N 	N 	0.9083	0.1762	0.5637	-0.223
Mof_H 	H 	0.951	0.1751	0.5337	0.124
Mof_C 	C 	0.9049	0.1286	0.6515	0.03
Mof_H 	H 	0.9412	0.0774	0.6757	0.019
Mof_C 	C 	0.8335	0.2273	0.5281	0.082
Mof_H 	H 	0.8125	0.2619	0.4615	-0.017
Mof_C 	C 	0.7962	0.2164	0.6129	-0.091
Mof_H 	H 	0.7432	0.2444	0.6143	0.055
Mof_H 	H 	0.4219	0.6678	0.502	0.04
Mof_C 	C 	0.3793	0.6164	0.6235	0.083
Mof_H 	H 	0.3792	0.5537	0.6111	-0.02
Mof_C 	C 	0.4116	0.7628	0.6301	-0.06
Mof_H 	H 	0.4326	0.8195	0.6153	0.048
Mof_C 	C 	0.3783	0.7423	0.715	0.061
Mof_H 	H 	0.3749	0.782	0.7726	-0.003
Mof_C 	C 	0.63337	0.23476	0.7976	-0.118
Mof_C 	C 	0.42854	0.34707	0.581	-0.117
Mof_C 	C 	0.41871	0.40118	0.7881	-0.13
Mof_C 	C 	0.4922	0.18866	0.8679	-0.143
Mof_Mn	Mn	0.29807	0.5807	0.82488	0.616
Mof_N 	N 	0.35046	0.65401	0.7029	-0.191
Mof_N 	N 	0.20229	0.69952	0.821	-0.147
Mof_N 	N 	0.89102	0.87232	0.4911	-0.153
Mof_N 	N 	0.8758	0.95881	0.8074	-0.158
Mof_N 	N 	0.98714	0.63273	0.9311	-0.081
Mof_N 	N 	0.4083	0.6762	0.5637	-0.221
Mof_H 	H 	0.451	0.6751	0.5337	0.092
Mof_C 	C 	0.4049	0.6286	0.6515	0.032
Mof_H 	H 	0.4412	0.5774	0.6757	0.001
Mof_C 	C 	0.3335	0.7273	0.5281	0.075
Mof_H 	H 	0.3125	0.7619	0.4615	-0.015
Mof_C 	C 	0.2962	0.7164	0.6129	-0.084
Mof_H 	H 	0.2432	0.7444	0.6143	0.052
Mof_H 	H 	0.9219	0.1678	0.502	0.023
Mof_C 	C 	0.8793	0.1164	0.6235	0.089
Mof_H 	H 	0.8792	0.0537	0.6111	-0.019
Mof_C 	C 	0.9116	0.2628	0.6301	-0.053
Mof_H 	H 	0.9326	0.3195	0.6153	0.06
Mof_C 	C 	0.8783	0.2423	0.715	0.073
Mof_H 	H 	0.8749	0.282	0.7726	0.005
Mof_C 	C 	0.13337	0.73476	0.7976	-0.103
Mof_C 	C 	0.92854	0.84707	0.581	-0.043
Mof_C 	C 	0.91871	0.90118	0.7881	-0.065
Mof_C 	C 	0.9922	0.68866	0.8679	-0.065
Mof_Mo	Mo	0.5	0.70589	0.25	1.003
Mof_Mo	Mo	9.67768e-34	0.20589	0.25	0.813
Mof_Mo	Mo	0.5	0.29411	0.75	1.003
Mof_Mo	Mo	-2.12487e-17	0.79411	0.75	0.812
_end
