data_functionalizedCrystal
_audit_creation_method	'EQeq! by Chris Wilmer'
_symmetry_space_group_name_H-M	'P1'
_symmetry_Int_Tables_number	1
_symmetry_cell_setting	triclinic
loop_
_symmetry_equiv_pos_as_xyz
  x,y,z
_cell_length_a	14.0169
_cell_length_b	13.5045
_cell_length_c	12.505
_cell_angle_alpha	90
_cell_angle_beta	116.318
_cell_angle_gamma	90
loop_
_atom_site_label
_atom_site_type_symbol
_atom_site_fract_x
_atom_site_fract_y
_atom_site_fract_z
_atom_site_charge
Mof_Cd	Cd	0.20762	0.15096	0.55687	0.407
Mof_N 	N 	0.3111	0.2619	0.7083	-0.143
Mof_C 	C 	0.0658	0.3481	0.4372	0.045
Mof_H 	H 	0.0273	0.3224	0.4752	0.032
Mof_N 	N 	0.1451	0.2943	0.4361	-0.139
Mof_C 	C 	0.5437	0.4355	0.7842	0.186
Mof_H 	H 	0.5774	0.3877	0.7527	-0.011
Mof_C 	C 	0.9435	0.4918	0.3904	0.183
Mof_H 	H 	0.886	0.4431	0.3681	-0.008
Mof_C 	C 	0.3972	0.3083	0.7106	0.056
Mof_H 	H 	0.4239	0.2876	0.6583	0.02
Mof_C 	C 	0.0384	0.4408	0.3842	-0.065
Mof_C 	C 	0.9725	0.5257	0.5166	-0.502
Mof_H 	H 	0.0314	0.5719	0.5413	0.195
Mof_H 	H 	0.9964	0.4689	0.5695	0.174
Mof_C 	C 	0.408	0.4138	0.8663	0.039
Mof_H 	H 	0.4387	0.4667	0.9179	0.02
Mof_C 	C 	0.1968	0.3287	0.3762	0.057
Mof_H 	H 	0.249	0.2895	0.3706	0.025
Mof_C 	C 	0.0946	0.477	0.3261	0.021
Mof_H 	H 	0.0783	0.5389	0.2898	0.018
Mof_C 	C 	0.277	0.2886	0.7882	0.072
Mof_H 	H 	0.2196	0.2551	0.7894	0.018
Mof_C 	C 	0.4471	0.3856	0.7877	-0.092
Mof_N 	N 	0.904	0.5752	0.3036	-0.399
Mof_H 	H 	0.8488	0.6039	0.3084	0.183
Mof_H 	H 	0.8837	0.5521	0.2301	0.18
Mof_H 	H 	0.9557	0.6194	0.3205	0.144
Mof_C 	C 	0.5085	0.5258	0.7	-0.436
Mof_H 	H 	0.4514	0.5057	0.6242	0.162
Mof_H 	H 	0.4803	0.5758	0.734	0.166
Mof_C 	C 	0.1751	0.4209	0.3221	-0.115
Mof_H 	H 	0.2142	0.4446	0.2838	0.062
Mof_C 	C 	0.8809	0.5749	0.5296	0.433
Mof_O 	O 	0.8336	0.6433	0.4596	-0.329
Mof_C 	C 	0.5965	0.5719	0.6774	0.4
Mof_O 	O 	0.5715	0.6502	0.6148	-0.32
Mof_O 	O 	0.6841	0.5313	0.7124	-0.305
Mof_O 	O 	0.858	0.5492	0.6111	-0.345
Mof_N 	N 	0.6218	0.4639	0.9046	-0.322
Mof_H 	H 	0.6094	0.4517	0.9648	0.148
Mof_H 	H 	0.6799	0.4928	0.9151	0.176
Mof_C 	C 	0.3233	0.3636	0.8684	-0.122
Mof_H 	H 	0.298	0.3803	0.9233	0.078
Mof_Cd	Cd	0.70762	0.65096	0.55687	0.407
Mof_N 	N 	0.8111	0.7619	0.7083	-0.144
Mof_C 	C 	0.5658	0.8481	0.4372	0.056
Mof_H 	H 	0.5273	0.8224	0.4752	0.022
Mof_N 	N 	0.6451	0.7943	0.4361	-0.144
Mof_C 	C 	0.0437	0.9355	0.7842	0.18
Mof_H 	H 	0.0774	0.8877	0.7527	-0.005
Mof_C 	C 	0.4435	0.9918	0.3904	0.202
Mof_H 	H 	0.386	0.9431	0.3681	-0.011
Mof_C 	C 	0.8972	0.8083	0.7106	0.06
Mof_H 	H 	0.9239	0.7876	0.6583	0.014
Mof_C 	C 	0.5384	0.9408	0.3842	-0.096
Mof_C 	C 	0.4725	0.0257	0.5166	-0.474
Mof_H 	H 	0.5314	0.0719	0.5413	0.172
Mof_H 	H 	0.4964	0.9689	0.5695	0.175
Mof_C 	C 	0.908	0.9138	0.8663	0.045
Mof_H 	H 	0.9387	0.9667	0.9179	0.013
Mof_C 	C 	0.6968	0.8287	0.3762	0.064
Mof_H 	H 	0.749	0.7895	0.3706	0.021
Mof_C 	C 	0.5946	0.977	0.3261	0.042
Mof_H 	H 	0.5783	0.0389	0.2898	0.003
Mof_C 	C 	0.777	0.7886	0.7882	0.074
Mof_H 	H 	0.7196	0.7551	0.7894	0.015
Mof_C 	C 	0.9471	0.8856	0.7877	-0.108
Mof_N 	N 	0.404	0.0752	0.3036	-0.404
Mof_H 	H 	0.3488	0.1039	0.3084	0.184
Mof_H 	H 	0.3837	0.0521	0.2301	0.183
Mof_H 	H 	0.4557	0.1194	0.3205	0.151
Mof_C 	C 	0.0085	0.0258	0.7	-0.342
Mof_H 	H 	0.9514	0.0057	0.6242	0.122
Mof_H 	H 	0.9803	0.0758	0.734	0.125
Mof_C 	C 	0.6751	0.9209	0.3221	-0.131
Mof_H 	H 	0.7142	0.9446	0.2838	0.068
Mof_C 	C 	0.3809	0.0749	0.5296	0.428
Mof_O 	O 	0.3336	0.1433	0.4596	-0.326
Mof_C 	C 	0.0965	0.0719	0.6774	0.376
Mof_O 	O 	0.0715	0.1502	0.6148	-0.305
Mof_O 	O 	0.1841	0.0313	0.7124	-0.297
Mof_O 	O 	0.358	0.0492	0.6111	-0.34
Mof_N 	N 	0.1218	0.9639	0.9046	-0.319
Mof_H 	H 	0.1094	0.9517	0.9648	0.152
Mof_H 	H 	0.1799	0.9928	0.9151	0.175
Mof_C 	C 	0.8233	0.8636	0.8684	-0.13
Mof_H 	H 	0.798	0.8803	0.9233	0.079
Mof_Cd	Cd	0.20762	0.84904	0.05687	0.377
Mof_N 	N 	0.3111	0.7381	0.2083	-0.143
Mof_C 	C 	0.0658	0.6519	0.9372	0.052
Mof_H 	H 	0.0273	0.6776	0.9752	0.041
Mof_N 	N 	0.1451	0.7057	0.9361	-0.131
Mof_C 	C 	0.5437	0.5645	0.2842	0.179
Mof_H 	H 	0.5774	0.6123	0.2527	-0.013
Mof_C 	C 	0.9435	0.5082	0.8904	0.211
Mof_H 	H 	0.886	0.5569	0.8681	-0.011
Mof_C 	C 	0.3972	0.6917	0.2106	0.053
Mof_H 	H 	0.4239	0.7124	0.1583	0.015
Mof_C 	C 	0.0384	0.5592	0.8842	-0.067
Mof_C 	C 	0.9725	0.4743	0.0166	-0.523
Mof_H 	H 	0.0314	0.4281	0.0413	0.19
Mof_H 	H 	0.9964	0.5311	0.0695	0.173
Mof_C 	C 	0.408	0.5862	0.3663	0.035
Mof_H 	H 	0.4387	0.5333	0.4179	0.013
Mof_C 	C 	0.1968	0.6713	0.8762	0.063
Mof_H 	H 	0.249	0.7105	0.8706	0.028
Mof_C 	C 	0.0946	0.523	0.8261	0.027
Mof_H 	H 	0.0783	0.4611	0.7898	0.018
Mof_C 	C 	0.277	0.7114	0.2882	0.068
Mof_H 	H 	0.2196	0.7449	0.2894	0.016
Mof_C 	C 	0.4471	0.6144	0.2877	-0.094
Mof_N 	N 	0.904	0.4248	0.8036	-0.406
Mof_H 	H 	0.8488	0.3961	0.8084	0.188
Mof_H 	H 	0.8837	0.4479	0.7301	0.184
Mof_H 	H 	0.9557	0.3806	0.8205	0.151
Mof_C 	C 	0.5085	0.4742	0.2	-0.428
Mof_H 	H 	0.4514	0.4943	0.1242	0.15
Mof_H 	H 	0.4803	0.4242	0.234	0.159
Mof_C 	C 	0.1751	0.5791	0.8221	-0.116
Mof_H 	H 	0.2142	0.5554	0.7838	0.067
Mof_C 	C 	0.8809	0.4251	0.0296	0.395
Mof_O 	O 	0.8336	0.3567	0.9596	-0.293
Mof_C 	C 	0.5965	0.4281	0.1774	0.395
Mof_O 	O 	0.5715	0.3498	0.1148	-0.331
Mof_O 	O 	0.6841	0.4687	0.2124	-0.308
Mof_O 	O 	0.858	0.4508	0.1111	-0.339
Mof_N 	N 	0.6218	0.5361	0.4046	-0.316
Mof_H 	H 	0.6094	0.5483	0.4648	0.132
Mof_H 	H 	0.6799	0.5072	0.4151	0.165
Mof_C 	C 	0.3233	0.6364	0.3684	-0.124
Mof_H 	H 	0.298	0.6197	0.4233	0.07
Mof_Cd	Cd	0.70762	0.34904	0.05687	0.374
Mof_N 	N 	0.8111	0.2381	0.2083	-0.146
Mof_C 	C 	0.5658	0.1519	0.9372	0.059
Mof_H 	H 	0.5273	0.1776	0.9752	0.032
Mof_N 	N 	0.6451	0.2057	0.9361	-0.135
Mof_C 	C 	0.0437	0.0645	0.2842	0.173
Mof_H 	H 	0.0774	0.1123	0.2527	-0.007
Mof_C 	C 	0.4435	0.0082	0.8904	0.222
Mof_H 	H 	0.386	0.0569	0.8681	-0.012
Mof_C 	C 	0.8972	0.1917	0.2106	0.057
Mof_H 	H 	0.9239	0.2124	0.1583	0.009
Mof_C 	C 	0.5384	0.0592	0.8842	-0.092
Mof_C 	C 	0.4725	0.9743	0.0166	-0.484
Mof_H 	H 	0.5314	0.9281	0.0413	0.166
Mof_H 	H 	0.4964	0.0311	0.0695	0.167
Mof_C 	C 	0.908	0.0862	0.3663	0.041
Mof_H 	H 	0.9387	0.0333	0.4179	0.005
Mof_C 	C 	0.6968	0.1713	0.8762	0.067
Mof_H 	H 	0.749	0.2105	0.8706	0.026
Mof_C 	C 	0.5946	0.023	0.8261	0.038
Mof_H 	H 	0.5783	0.9611	0.7898	0.009
Mof_C 	C 	0.777	0.2114	0.2882	0.07
Mof_H 	H 	0.7196	0.2449	0.2894	0.013
Mof_C 	C 	0.9471	0.1144	0.2877	-0.11
Mof_N 	N 	0.404	0.9248	0.8036	-0.41
Mof_H 	H 	0.3488	0.8961	0.8084	0.19
Mof_H 	H 	0.3837	0.9479	0.7301	0.188
Mof_H 	H 	0.4557	0.8806	0.8205	0.158
Mof_C 	C 	0.0085	0.9742	0.2	-0.34
Mof_H 	H 	0.9514	0.9943	0.1242	0.114
Mof_H 	H 	0.9803	0.9242	0.234	0.121
Mof_C 	C 	0.6751	0.0791	0.8221	-0.126
Mof_H 	H 	0.7142	0.0554	0.7838	0.069
Mof_C 	C 	0.3809	0.9251	0.0296	0.386
Mof_O 	O 	0.3336	0.8567	0.9596	-0.289
Mof_C 	C 	0.0965	0.9281	0.1774	0.372
Mof_O 	O 	0.0715	0.8498	0.1148	-0.317
Mof_O 	O 	0.1841	0.9687	0.2124	-0.3
Mof_O 	O 	0.358	0.9508	0.1111	-0.333
Mof_N 	N 	0.1218	0.0361	0.4046	-0.314
Mof_H 	H 	0.1094	0.0483	0.4648	0.135
Mof_H 	H 	0.1799	0.0072	0.4151	0.164
Mof_C 	C 	0.8233	0.1364	0.3684	-0.132
Mof_H 	H 	0.798	0.1197	0.4233	0.071
_end
