data_functionalizedCrystal
_audit_creation_method	'EQeq! by Chris Wilmer'
_symmetry_space_group_name_H-M	'P1'
_symmetry_Int_Tables_number	1
_symmetry_cell_setting	triclinic
loop_
_symmetry_equiv_pos_as_xyz
  x,y,z
_cell_length_a	14.619
_cell_length_b	17.211
_cell_length_c	21.215
_cell_angle_alpha	90
_cell_angle_beta	90
_cell_angle_gamma	90
loop_
_atom_site_label
_atom_site_type_symbol
_atom_site_fract_x
_atom_site_fract_y
_atom_site_fract_z
_atom_site_charge
Mof_O 	O 	0.5669	0.5835	0.9474	-0.736
Mof_O 	O 	0.6454	0.4713	0.8769	-0.731
Mof_O 	O 	0.4939	0.4408	0.9477	-0.741
Mof_O 	O 	0.6587	0.4676	0.0054	-0.795
Mof_N 	N 	0.4553	0.7331	0.7552	-0.273
Mof_O 	O 	0.5339	0.9075	0.6882	-0.571
Mof_O 	O 	0.4439	0.8152	0.6471	-0.533
Mof_O 	O 	0.7087	0.6353	0.854	-0.59
Mof_O 	O 	0.5698	0.6278	0.8115	-0.58
Mof_C 	C 	0.4988	0.8426	0.6877	0.474
Mof_C 	C 	0.5275	0.7899	0.7403	-0.198
Mof_C 	C 	0.6189	0.7524	0.723	0.146
Mof_C 	C 	0.6795	0.7246	0.7758	-0.442
Mof_C 	C 	0.6496	0.6539	0.8162	0.554
Mof_N 	N 	0.9769	0.4342	0.8355	-0.269
Mof_O 	O 	0.8367	0.4729	0.9072	-0.549
Mof_O 	O 	0.7737	0.3552	0.9045	-0.566
Mof_O 	O 	0.0366	0.196	0.9805	-0.583
Mof_O 	O 	0.9662	0.1041	0.9271	-0.596
Mof_C 	C 	0.8354	0.4019	0.8939	0.476
Mof_C 	C 	0.9169	0.368	0.8566	-0.197
Mof_C 	C 	0.9744	0.3119	0.8966	0.128
Mof_C 	C 	0.9241	0.2337	0.9074	-0.467
Mof_C 	C 	0.9796	0.1741	0.9409	0.557
Mof_N 	N 	0.7691	0.8031	0.974	-0.272
Mof_O 	O 	0.8772	0.9128	0.0967	-0.548
Mof_O 	O 	0.8861	0.9215	0.9916	-0.543
Mof_O 	O 	0.5786	0.6326	0.0735	-0.566
Mof_O 	O 	0.7028	0.6594	0.0165	-0.55
Mof_C 	C 	0.8512	0.8969	0.0419	0.467
Mof_C 	C 	0.766	0.847	0.0356	-0.19
Mof_C 	C 	0.747	0.7923	0.091	0.131
Mof_C 	C 	0.6529	0.7528	0.0928	-0.442
Mof_C 	C 	0.6446	0.6756	0.0595	0.515
Mof_H 	H 	0.5519	0.6401	0.9493	0.181
Mof_H 	H 	0.6784	0.4593	0.8368	0.162
Mof_H 	H 	0.4358	0.4103	0.9493	0.168
Mof_H 	H 	0.6986	0.4539	0.0421	0.121
Mof_H 	H 	0.4781	0.6962	0.7817	0.118
Mof_H 	H 	0.4356	0.7101	0.7191	0.1
Mof_H 	H 	0.4077	0.7578	0.7742	0.09
Mof_H 	H 	0.5376	0.8227	0.7786	0.068
Mof_H 	H 	0.606	0.7075	0.6952	-0.035
Mof_H 	H 	0.6541	0.7905	0.6978	-0.041
Mof_H 	H 	0.6888	0.7689	0.8049	0.134
Mof_H 	H 	0.7399	0.7121	0.7574	0.129
Mof_H 	H 	0.0275	0.415	0.816	0.089
Mof_H 	H 	0.9942	0.4628	0.8695	0.097
Mof_H 	H 	0.9454	0.4649	0.8081	0.084
Mof_H 	H 	0.8933	0.3398	0.8188	0.066
Mof_H 	H 	0.9877	0.3363	0.9379	-0.03
Mof_H 	H 	0.0334	0.302	0.8752	-0.029
Mof_H 	H 	0.8678	0.2437	0.932	0.138
Mof_H 	H 	0.9054	0.2125	0.8659	0.142
Mof_H 	H 	0.7215	0.7691	0.9722	0.108
Mof_H 	H 	0.8227	0.7766	0.9712	0.092
Mof_H 	H 	0.7649	0.8373	0.9414	0.095
Mof_H 	H 	0.7128	0.8834	0.033	0.062
Mof_H 	H 	0.7546	0.8222	0.1305	-0.029
Mof_H 	H 	0.7944	0.7512	0.0908	-0.025
Mof_H 	H 	0.6357	0.7452	0.1375	0.132
Mof_H 	H 	0.6078	0.7889	0.074	0.131
Mof_Er	Er	0.7249	0.5607	0.9426	1.668
Mof_Er	Er	0.6267	0.3607	0.9437	1.667
Mof_Er	Er	0.5014	0.5229	0.8611	1.745
Mof_Er	Er	0.5175	0.5156	0.0379	1.683
Mof_O 	O 	0.9331	0.4165	0.4474	-0.736
Mof_O 	O 	0.8546	0.5287	0.3769	-0.733
Mof_O 	O 	0.0061	0.5592	0.4477	-0.741
Mof_O 	O 	0.8413	0.5324	0.5054	-0.797
Mof_N 	N 	0.0447	0.2669	0.2552	-0.274
Mof_O 	O 	0.9661	0.0925	0.1882	-0.576
Mof_O 	O 	0.0561	0.1848	0.1471	-0.535
Mof_O 	O 	0.7913	0.3647	0.354	-0.59
Mof_O 	O 	0.9302	0.3722	0.3115	-0.58
Mof_C 	C 	0.0012	0.1574	0.1877	0.478
Mof_C 	C 	0.9725	0.2101	0.2403	-0.201
Mof_C 	C 	0.8811	0.2476	0.223	0.147
Mof_C 	C 	0.8205	0.2754	0.2758	-0.443
Mof_C 	C 	0.8504	0.3461	0.3162	0.554
Mof_N 	N 	0.5231	0.5658	0.3355	-0.266
Mof_O 	O 	0.6633	0.5271	0.4072	-0.549
Mof_O 	O 	0.7263	0.6448	0.4045	-0.567
Mof_O 	O 	0.4634	0.804	0.4805	-0.589
Mof_O 	O 	0.5338	0.8959	0.4271	-0.59
Mof_C 	C 	0.6646	0.5981	0.3939	0.477
Mof_C 	C 	0.5831	0.632	0.3566	-0.201
Mof_C 	C 	0.5256	0.6881	0.3966	0.141
Mof_C 	C 	0.5759	0.7663	0.4074	-0.475
Mof_C 	C 	0.5204	0.8259	0.4409	0.566
Mof_N 	N 	0.7309	0.1969	0.474	-0.272
Mof_O 	O 	0.6228	0.0872	0.5967	-0.549
Mof_O 	O 	0.6139	0.0785	0.4916	-0.54
Mof_O 	O 	0.9214	0.3674	0.5735	-0.566
Mof_O 	O 	0.7972	0.3406	0.5165	-0.551
Mof_C 	C 	0.6488	0.1031	0.5419	0.463
Mof_C 	C 	0.734	0.153	0.5356	-0.19
Mof_C 	C 	0.753	0.2077	0.591	0.131
Mof_C 	C 	0.8471	0.2472	0.5928	-0.441
Mof_C 	C 	0.8554	0.3244	0.5595	0.515
Mof_H 	H 	0.9481	0.3599	0.4493	0.181
Mof_H 	H 	0.8216	0.5407	0.3368	0.162
Mof_H 	H 	0.0642	0.5897	0.4493	0.168
Mof_H 	H 	0.8014	0.5461	0.5421	0.12
Mof_H 	H 	0.0219	0.3038	0.2817	0.119
Mof_H 	H 	0.0644	0.2899	0.2191	0.1
Mof_H 	H 	0.0923	0.2422	0.2742	0.089
Mof_H 	H 	0.9624	0.1773	0.2786	0.068
Mof_H 	H 	0.894	0.2925	0.1952	-0.035
Mof_H 	H 	0.8459	0.2095	0.1978	-0.042
Mof_H 	H 	0.8112	0.2311	0.3049	0.133
Mof_H 	H 	0.7601	0.2879	0.2574	0.129
Mof_H 	H 	0.4725	0.585	0.316	0.086
Mof_H 	H 	0.5058	0.5372	0.3695	0.097
Mof_H 	H 	0.5546	0.5351	0.3081	0.084
Mof_H 	H 	0.6067	0.6602	0.3188	0.068
Mof_H 	H 	0.5123	0.6637	0.4379	-0.032
Mof_H 	H 	0.4666	0.698	0.3752	-0.035
Mof_H 	H 	0.6322	0.7563	0.432	0.141
Mof_H 	H 	0.5946	0.7875	0.3659	0.145
Mof_H 	H 	0.7785	0.2309	0.4722	0.109
Mof_H 	H 	0.6773	0.2234	0.4712	0.093
Mof_H 	H 	0.7351	0.1627	0.4414	0.094
Mof_H 	H 	0.7872	0.1166	0.533	0.061
Mof_H 	H 	0.7454	0.1778	0.6305	-0.03
Mof_H 	H 	0.7056	0.2488	0.5908	-0.025
Mof_H 	H 	0.8643	0.2548	0.6375	0.131
Mof_H 	H 	0.8922	0.2111	0.574	0.13
Mof_Er	Er	0.7751	0.4393	0.4426	1.671
Mof_Er	Er	0.8733	0.6393	0.4437	1.671
Mof_Er	Er	0.9986	0.4771	0.3611	1.744
Mof_Er	Er	0.9825	0.4844	0.5379	1.679
Mof_O 	O 	0.4331	0.0835	0.5526	-0.736
Mof_O 	O 	0.3546	0.9713	0.6231	-0.731
Mof_O 	O 	0.5061	0.9408	0.5523	-0.74
Mof_O 	O 	0.3413	0.9676	0.4946	-0.796
Mof_N 	N 	0.5447	0.2331	0.7448	-0.274
Mof_O 	O 	0.4661	0.4075	0.8118	-0.574
Mof_O 	O 	0.5561	0.3152	0.8529	-0.535
Mof_O 	O 	0.2913	0.1353	0.646	-0.59
Mof_O 	O 	0.4302	0.1278	0.6885	-0.58
Mof_C 	C 	0.5012	0.3426	0.8123	0.475
Mof_C 	C 	0.4725	0.2899	0.7597	-0.199
Mof_C 	C 	0.3811	0.2524	0.777	0.147
Mof_C 	C 	0.3205	0.2246	0.7242	-0.443
Mof_C 	C 	0.3504	0.1539	0.6838	0.554
Mof_N 	N 	0.0231	0.9342	0.6645	-0.266
Mof_O 	O 	0.1633	0.9729	0.5928	-0.548
Mof_O 	O 	0.2263	0.8552	0.5955	-0.567
Mof_O 	O 	0.9634	0.696	0.5195	-0.59
Mof_O 	O 	0.0338	0.6041	0.5729	-0.591
Mof_C 	C 	0.1646	0.9019	0.6061	0.477
Mof_C 	C 	0.0831	0.868	0.6434	-0.201
Mof_C 	C 	0.0256	0.8119	0.6034	0.142
Mof_C 	C 	0.0759	0.7337	0.5926	-0.476
Mof_C 	C 	0.0204	0.6741	0.5591	0.567
Mof_N 	N 	0.2309	0.3031	0.526	-0.272
Mof_O 	O 	0.1228	0.4128	0.4033	-0.548
Mof_O 	O 	0.1139	0.4215	0.5084	-0.539
Mof_O 	O 	0.4214	0.1326	0.4265	-0.566
Mof_O 	O 	0.2972	0.1594	0.4835	-0.551
Mof_C 	C 	0.1488	0.3969	0.4581	0.463
Mof_C 	C 	0.234	0.347	0.4644	-0.19
Mof_C 	C 	0.253	0.2923	0.409	0.131
Mof_C 	C 	0.3471	0.2528	0.4072	-0.442
Mof_C 	C 	0.3554	0.1756	0.4405	0.515
Mof_H 	H 	0.4481	0.1401	0.5507	0.181
Mof_H 	H 	0.3216	0.9593	0.6632	0.163
Mof_H 	H 	0.5642	0.9103	0.5507	0.168
Mof_H 	H 	0.3014	0.9539	0.4579	0.121
Mof_H 	H 	0.5219	0.1962	0.7183	0.118
Mof_H 	H 	0.5644	0.2101	0.7809	0.1
Mof_H 	H 	0.5923	0.2578	0.7258	0.089
Mof_H 	H 	0.4624	0.3227	0.7214	0.068
Mof_H 	H 	0.394	0.2075	0.8048	-0.036
Mof_H 	H 	0.3459	0.2905	0.8022	-0.041
Mof_H 	H 	0.3112	0.2689	0.6951	0.134
Mof_H 	H 	0.2601	0.2121	0.7426	0.13
Mof_H 	H 	0.9725	0.915	0.684	0.086
Mof_H 	H 	0.0058	0.9628	0.6305	0.098
Mof_H 	H 	0.0546	0.9649	0.6919	0.085
Mof_H 	H 	0.1067	0.8398	0.6812	0.068
Mof_H 	H 	0.0123	0.8363	0.5621	-0.032
Mof_H 	H 	0.9666	0.802	0.6248	-0.036
Mof_H 	H 	0.1322	0.7437	0.568	0.141
Mof_H 	H 	0.0946	0.7125	0.6341	0.146
Mof_H 	H 	0.2785	0.2691	0.5278	0.109
Mof_H 	H 	0.1773	0.2766	0.5288	0.093
Mof_H 	H 	0.2351	0.3373	0.5586	0.095
Mof_H 	H 	0.2872	0.3834	0.467	0.061
Mof_H 	H 	0.2454	0.3222	0.3695	-0.03
Mof_H 	H 	0.2056	0.2512	0.4092	-0.025
Mof_H 	H 	0.3643	0.2452	0.3625	0.131
Mof_H 	H 	0.3922	0.2889	0.426	0.13
Mof_Er	Er	0.2751	0.0607	0.5574	1.669
Mof_Er	Er	0.3733	0.8607	0.5563	1.671
Mof_Er	Er	0.4986	0.0229	0.6389	1.739
Mof_Er	Er	0.4825	0.0156	0.4621	1.678
Mof_O 	O 	0.0669	0.9165	0.0526	-0.739
Mof_O 	O 	0.1454	0.0287	0.1231	-0.732
Mof_O 	O 	0.9939	0.0592	0.0523	-0.744
Mof_O 	O 	0.1587	0.0324	0.9946	-0.799
Mof_N 	N 	0.9553	0.7669	0.2448	-0.274
Mof_O 	O 	0.0339	0.5925	0.3118	-0.575
Mof_O 	O 	0.9439	0.6848	0.3529	-0.535
Mof_O 	O 	0.2087	0.8647	0.146	-0.59
Mof_O 	O 	0.0698	0.8722	0.1885	-0.581
Mof_C 	C 	0.9988	0.6574	0.3123	0.476
Mof_C 	C 	0.0275	0.7101	0.2597	-0.2
Mof_C 	C 	0.1189	0.7476	0.277	0.147
Mof_C 	C 	0.1795	0.7754	0.2242	-0.443
Mof_C 	C 	0.1496	0.8461	0.1838	0.554
Mof_N 	N 	0.4769	0.0658	0.1645	-0.266
Mof_O 	O 	0.3367	0.0271	0.0928	-0.549
Mof_O 	O 	0.2737	0.1448	0.0955	-0.567
Mof_O 	O 	0.5366	0.304	0.0195	-0.588
Mof_O 	O 	0.4662	0.3959	0.0729	-0.592
Mof_C 	C 	0.3354	0.0981	0.1061	0.477
Mof_C 	C 	0.4169	0.132	0.1434	-0.201
Mof_C 	C 	0.4744	0.1881	0.1034	0.14
Mof_C 	C 	0.4241	0.2663	0.0926	-0.475
Mof_C 	C 	0.4796	0.3259	0.0591	0.565
Mof_N 	N 	0.2691	0.6969	0.026	-0.272
Mof_O 	O 	0.3772	0.5872	0.9033	-0.549
Mof_O 	O 	0.3861	0.5785	0.0084	-0.541
Mof_O 	O 	0.0786	0.8674	0.9265	-0.567
Mof_O 	O 	0.2028	0.8406	0.9835	-0.55
Mof_C 	C 	0.3512	0.6031	0.9581	0.464
Mof_C 	C 	0.266	0.653	0.9644	-0.19
Mof_C 	C 	0.247	0.7077	0.909	0.131
Mof_C 	C 	0.1529	0.7472	0.9072	-0.443
Mof_C 	C 	0.1446	0.8244	0.9405	0.516
Mof_H 	H 	0.0519	0.8599	0.0507	0.181
Mof_H 	H 	0.1784	0.0407	0.1632	0.162
Mof_H 	H 	0.9358	0.0897	0.0507	0.169
Mof_H 	H 	0.1986	0.0461	0.9579	0.12
Mof_H 	H 	0.9781	0.8038	0.2183	0.119
Mof_H 	H 	0.9356	0.7899	0.2809	0.101
Mof_H 	H 	0.9077	0.7422	0.2258	0.09
Mof_H 	H 	0.0376	0.6773	0.2214	0.068
Mof_H 	H 	0.106	0.7925	0.3048	-0.035
Mof_H 	H 	0.1541	0.7095	0.3022	-0.042
Mof_H 	H 	0.1888	0.7311	0.1951	0.134
Mof_H 	H 	0.2399	0.7879	0.2426	0.13
Mof_H 	H 	0.5275	0.085	0.184	0.086
Mof_H 	H 	0.4942	0.0372	0.1305	0.097
Mof_H 	H 	0.4454	0.0351	0.1919	0.084
Mof_H 	H 	0.3933	0.1602	0.1812	0.068
Mof_H 	H 	0.4877	0.1637	0.0621	-0.032
Mof_H 	H 	0.5334	0.198	0.1248	-0.035
Mof_H 	H 	0.3678	0.2563	0.068	0.141
Mof_H 	H 	0.4054	0.2875	0.1341	0.145
Mof_H 	H 	0.2215	0.7309	0.0278	0.108
Mof_H 	H 	0.3227	0.7234	0.0288	0.093
Mof_H 	H 	0.2649	0.6627	0.0586	0.094
Mof_H 	H 	0.2128	0.6166	0.967	0.062
Mof_H 	H 	0.2546	0.6778	0.8695	-0.03
Mof_H 	H 	0.2944	0.7488	0.9092	-0.025
Mof_H 	H 	0.1357	0.7548	0.8625	0.132
Mof_H 	H 	0.1078	0.7111	0.926	0.131
Mof_Er	Er	0.2249	0.9393	0.0574	1.671
Mof_Er	Er	0.1267	0.1393	0.0563	1.67
Mof_Er	Er	0.0014	0.9771	0.1389	1.744
Mof_Er	Er	0.0175	0.9844	0.9621	1.698
_end
