data_functionalizedCrystal
_audit_creation_method	'EQeq! by Chris Wilmer'
_symmetry_space_group_name_H-M	'P1'
_symmetry_Int_Tables_number	1
_symmetry_cell_setting	triclinic
loop_
_symmetry_equiv_pos_as_xyz
  x,y,z
_cell_length_a	14.754
_cell_length_b	23.596
_cell_length_c	9.273
_cell_angle_alpha	90
_cell_angle_beta	90
_cell_angle_gamma	90
loop_
_atom_site_label
_atom_site_type_symbol
_atom_site_fract_x
_atom_site_fract_y
_atom_site_fract_z
_atom_site_charge
Mof_Fe	Fe	0.17543	0.80449	0.66387	1.005
Mof_Cl	Cl	0.06554	0.74528	0.5667	-0.297
Mof_O 	O 	0.3368	0.87569	0.3585	-0.23
Mof_O 	O 	0.3668	0.92808	0.6101	-0.252
Mof_O 	O 	0.9824	0.93045	0.7157	-0.281
Mof_O 	O 	0.2683	0.86978	0.7175	-0.248
Mof_C 	C 	0.0432	0.8909	0.7175	0.259
Mof_C 	C 	0.3104	0.8876	0.6094	0.254
Mof_Fe	Fe	0.17543	0.30449	0.16387	1.011
Mof_Cl	Cl	0.06554	0.24528	0.0667	-0.289
Mof_O 	O 	0.3368	0.37569	0.8585	-0.23
Mof_O 	O 	0.3668	0.42808	0.1101	-0.242
Mof_O 	O 	0.9824	0.43045	0.2157	-0.274
Mof_O 	O 	0.2683	0.36978	0.2175	-0.247
Mof_C 	C 	0.0432	0.3909	0.2175	0.257
Mof_C 	C 	0.3104	0.3876	0.1094	0.265
Mof_Fe	Fe	0.67543	0.80449	0.16387	1.01
Mof_Cl	Cl	0.56554	0.74528	0.0667	-0.301
Mof_O 	O 	0.8368	0.87569	0.8585	-0.233
Mof_O 	O 	0.8668	0.92808	0.1101	-0.25
Mof_O 	O 	0.4824	0.93045	0.2157	-0.256
Mof_O 	O 	0.7683	0.86978	0.2175	-0.25
Mof_C 	C 	0.5432	0.8909	0.2175	0.231
Mof_C 	C 	0.8104	0.8876	0.1094	0.265
Mof_Fe	Fe	0.67543	0.30449	0.66387	1.003
Mof_Cl	Cl	0.56554	0.24528	0.5667	-0.31
Mof_O 	O 	0.8368	0.37569	0.3585	-0.232
Mof_O 	O 	0.8668	0.42808	0.6101	-0.252
Mof_O 	O 	0.4824	0.43045	0.7157	-0.253
Mof_O 	O 	0.7683	0.36978	0.7175	-0.248
Mof_C 	C 	0.5432	0.3909	0.7175	0.23
Mof_C 	C 	0.8104	0.3876	0.6094	0.254
Mof_Fe	Fe	0.82457	0.19551	0.66387	1.003
Mof_Cl	Cl	0.93446	0.25472	0.5667	-0.323
Mof_O 	O 	0.6632	0.12431	0.3585	-0.229
Mof_O 	O 	0.6332	0.07192	0.6101	-0.245
Mof_O 	O 	0.0176	0.06955	0.7157	-0.225
Mof_O 	O 	0.7317	0.13022	0.7175	-0.246
Mof_C 	C 	0.9568	0.1091	0.7175	0.201
Mof_C 	C 	0.6896	0.1124	0.6094	0.254
Mof_Fe	Fe	0.82457	0.69551	0.16387	1.009
Mof_Cl	Cl	0.93446	0.75472	0.0667	-0.314
Mof_O 	O 	0.6632	0.62431	0.8585	-0.231
Mof_O 	O 	0.6332	0.57192	0.1101	-0.242
Mof_O 	O 	0.0176	0.56955	0.2157	-0.229
Mof_O 	O 	0.7317	0.63022	0.2175	-0.247
Mof_C 	C 	0.9568	0.6091	0.2175	0.202
Mof_C 	C 	0.6896	0.6124	0.1094	0.265
Mof_Fe	Fe	0.32457	0.19551	0.16387	1.01
Mof_Cl	Cl	0.43446	0.25472	0.0667	-0.301
Mof_O 	O 	0.1632	0.12431	0.8585	-0.226
Mof_O 	O 	0.1332	0.07192	0.1101	-0.236
Mof_O 	O 	0.5176	0.06955	0.2157	-0.247
Mof_O 	O 	0.2317	0.13022	0.2175	-0.244
Mof_C 	C 	0.4568	0.1091	0.2175	0.229
Mof_C 	C 	0.1896	0.1124	0.1094	0.266
Mof_Fe	Fe	0.32457	0.69551	0.66387	1.004
Mof_Cl	Cl	0.43446	0.75472	0.5667	-0.311
Mof_O 	O 	0.1632	0.62431	0.3585	-0.227
Mof_O 	O 	0.1332	0.57192	0.6101	-0.245
Mof_O 	O 	0.5176	0.56955	0.7157	-0.253
Mof_O 	O 	0.2317	0.63022	0.7175	-0.245
Mof_C 	C 	0.4568	0.6091	0.7175	0.23
Mof_C 	C 	0.1896	0.6124	0.6094	0.254
Mof_Fe	Fe	0.42543	0.44551	0.91387	0.997
Mof_Cl	Cl	0.31554	0.50472	0.8167	-0.311
Mof_O 	O 	0.5868	0.37431	0.6085	-0.231
Mof_O 	O 	0.6168	0.32192	0.8601	-0.25
Mof_O 	O 	0.2324	0.31955	0.9657	-0.257
Mof_O 	O 	0.5183	0.38022	0.9675	-0.25
Mof_C 	C 	0.2932	0.3591	0.9675	0.219
Mof_C 	C 	0.5604	0.3624	0.8594	0.254
Mof_Fe	Fe	0.42543	0.94551	0.41387	0.979
Mof_Cl	Cl	0.31554	0.00472	0.3167	-0.286
Mof_O 	O 	0.5868	0.87431	0.1085	-0.23
Mof_O 	O 	0.6168	0.82192	0.3601	-0.248
Mof_O 	O 	0.2324	0.81955	0.4657	-0.252
Mof_O 	O 	0.5183	0.88022	0.4675	-0.246
Mof_C 	C 	0.2932	0.8591	0.4675	0.229
Mof_C 	C 	0.5604	0.8624	0.3594	0.253
Mof_Fe	Fe	0.92543	0.44551	0.41387	0.979
Mof_Cl	Cl	0.81554	0.50472	0.3167	-0.309
Mof_O 	O 	0.0868	0.37431	0.1085	-0.231
Mof_O 	O 	0.1168	0.32192	0.3601	-0.242
Mof_O 	O 	0.7324	0.31955	0.4657	-0.253
Mof_O 	O 	0.0183	0.38022	0.4675	-0.229
Mof_C 	C 	0.7932	0.3591	0.4675	0.23
Mof_C 	C 	0.0604	0.3624	0.3594	0.247
Mof_Fe	Fe	0.92543	0.94551	0.91387	0.947
Mof_Cl	Cl	0.81554	0.00472	0.8167	-0.294
Mof_O 	O 	0.0868	0.87431	0.6085	-0.236
Mof_O 	O 	0.1168	0.82192	0.8601	-0.245
Mof_O 	O 	0.7324	0.81955	0.9657	-0.26
Mof_O 	O 	0.0183	0.88022	0.9675	-0.233
Mof_C 	C 	0.7932	0.8591	0.9675	0.216
Mof_C 	C 	0.0604	0.8624	0.8594	0.246
Mof_Fe	Fe	0.07457	0.05449	0.91387	1.019
Mof_Cl	Cl	0.18446	0.99528	0.8167	-0.332
Mof_O 	O 	0.9132	0.12569	0.6085	-0.227
Mof_O 	O 	0.8832	0.17808	0.8601	-0.255
Mof_O 	O 	0.2676	0.18045	0.9657	-0.258
Mof_O 	O 	0.9817	0.11978	0.9675	-0.266
Mof_C 	C 	0.2068	0.1409	0.9675	0.22
Mof_C 	C 	0.9396	0.1376	0.8594	0.262
Mof_Fe	Fe	0.07457	0.55449	0.41387	1.014
Mof_Cl	Cl	0.18446	0.49528	0.3167	-0.306
Mof_O 	O 	0.9132	0.62569	0.1085	-0.226
Mof_O 	O 	0.8832	0.67808	0.3601	-0.253
Mof_O 	O 	0.2676	0.68045	0.4657	-0.252
Mof_O 	O 	0.9817	0.61978	0.4675	-0.263
Mof_C 	C 	0.2068	0.6409	0.4675	0.231
Mof_C 	C 	0.9396	0.6376	0.3594	0.261
Mof_Fe	Fe	0.57457	0.05449	0.41387	1.015
Mof_Cl	Cl	0.68446	0.99528	0.3167	-0.331
Mof_O 	O 	0.4132	0.12569	0.1085	-0.226
Mof_O 	O 	0.3832	0.17808	0.3601	-0.247
Mof_O 	O 	0.7676	0.18045	0.4657	-0.254
Mof_O 	O 	0.4817	0.11978	0.4675	-0.246
Mof_C 	C 	0.7068	0.1409	0.4675	0.231
Mof_C 	C 	0.4396	0.1376	0.3594	0.255
Mof_Fe	Fe	0.57457	0.55449	0.91387	0.997
Mof_Cl	Cl	0.68446	0.49528	0.8167	-0.315
Mof_O 	O 	0.4132	0.62569	0.6085	-0.231
Mof_O 	O 	0.3832	0.67808	0.8601	-0.25
Mof_O 	O 	0.7676	0.68045	0.9657	-0.261
Mof_O 	O 	0.4817	0.61978	0.9675	-0.249
Mof_C 	C 	0.7068	0.6409	0.9675	0.218
Mof_C 	C 	0.4396	0.6376	0.8594	0.254
Mof_O 	O 	0.25	0.75	0.7376	-0.403
Mof_O 	O 	0.25	0.25	0.2376	-0.401
Mof_O 	O 	0.75	0.25	0.7376	-0.404
Mof_O 	O 	0.75	0.75	0.2376	-0.403
Mof_O 	O 	0.5	0.5	0.9876	-0.404
Mof_O 	O 	0.5	0	0.4876	-0.387
Mof_O 	O 	2.3273e-33	-3.90978e-33	0.9876	-0.373
Mof_O 	O 	-6.67051e-33	0.5	0.4876	-0.387
_end
