data_functionalizedCrystal
_audit_creation_method	'EQeq! by Chris Wilmer'
_symmetry_space_group_name_H-M	'P1'
_symmetry_Int_Tables_number	1
_symmetry_cell_setting	triclinic
loop_
_symmetry_equiv_pos_as_xyz
  x,y,z
_cell_length_a	29.846
_cell_length_b	15.6718
_cell_length_c	9.6937
_cell_angle_alpha	90
_cell_angle_beta	90
_cell_angle_gamma	90
loop_
_atom_site_label
_atom_site_type_symbol
_atom_site_fract_x
_atom_site_fract_y
_atom_site_fract_z
_atom_site_charge
Mof_N 	N 	0.6879	0.1817	0.1448	-0.227
Mof_N 	N 	0.77649	0.2494	0.8572	-0.207
Mof_C 	C 	0.6783	0.2353	0.7337	0.044
Mof_C 	C 	0.669	0.1054	0.8407	0.017
Mof_H 	H 	0.6949	0.2851	0.723	0.009
Mof_C 	C 	0.6472	0.2173	0.6367	-0.101
Mof_C 	C 	0.6365	0.0867	0.7515	-0.063
Mof_H 	H 	0.6793	0.0617	0.8973	0.022
Mof_C 	C 	0.621	0.1415	0.6629	0.107
Mof_H 	H 	0.643	0.2511	0.5589	0.053
Mof_H 	H 	0.6245	0.032	0.7525	0.05
Mof_C 	C 	0.5836	0.1237	0.5687	-0.032
Mof_S 	S 	0.53192	0.10067	0.65217	-0.002
Mof_S 	S 	0.42384	0.1212	0.65178	-0.007
Mof_C 	C 	0.3761	0.1644	0.5683	-0.046
Mof_C 	C 	0.3404	0.1923	0.6638	0.141
Mof_C 	C 	0.2975	0.1742	0.6516	-0.082
Mof_C 	C 	0.3516	0.2512	0.7802	-0.09
Mof_H 	H 	0.2884	0.1429	0.5751	0.05
Mof_C 	C 	0.2636	0.2	0.7508	0.01
Mof_C 	C 	0.3194	0.2773	0.8663	0.032
Mof_H 	H 	0.381	0.2697	0.7926	0.065
Mof_H 	H 	0.234	0.1825	0.7416	0.021
Mof_H 	H 	0.327	0.3156	0.9357	0.026
Mof_C 	C 	0.6441	0.2115	0.1155	0.129
Mof_H 	H 	0.6384	0.2416	0.0347	-0.105
Mof_C 	C 	0.6113	0.1961	0.2051	-0.158
Mof_H 	H 	0.5828	0.2177	0.1893	0.084
Mof_C 	C 	0.6615	0.1085	0.3333	-0.049
Mof_H 	H 	0.6688	0.0682	0.3999	0.04
Mof_C 	C 	0.6938	0.1293	0.2384	0.02
Mof_H 	H 	0.7216	0.1026	0.2448	0.013
Mof_C 	C 	0.3178	0.2674	0.3488	-0.162
Mof_H 	H 	0.324	0.3014	0.4251	0.077
Mof_C 	C 	0.2888	0.294	0.2636	0.109
Mof_H 	H 	0.2748	0.3457	0.2823	-0.015
Mof_C 	C 	0.2989	0.1716	0.136	0.101
Mof_H 	H 	0.2907	0.1369	0.0624	-0.023
Mof_C 	C 	0.3297	0.1395	0.2183	-0.164
Mof_H 	H 	0.3434	0.0871	0.202	0.08
Mof_N 	N 	0.3121	0.8183	0.1448	-0.227
Mof_N 	N 	0.22351	0.7506	0.8572	-0.207
Mof_C 	C 	0.3217	0.7647	0.7337	0.044
Mof_C 	C 	0.331	0.8946	0.8407	0.017
Mof_H 	H 	0.3051	0.7149	0.723	0.009
Mof_C 	C 	0.3528	0.7827	0.6367	-0.101
Mof_C 	C 	0.3635	0.9133	0.7515	-0.063
Mof_H 	H 	0.3207	0.9383	0.8973	0.022
Mof_C 	C 	0.379	0.8585	0.6629	0.107
Mof_H 	H 	0.357	0.7489	0.5589	0.053
Mof_H 	H 	0.3755	0.968	0.7525	0.05
Mof_C 	C 	0.4164	0.8763	0.5687	-0.032
Mof_S 	S 	0.46808	0.89933	0.65217	-0.002
Mof_S 	S 	0.57616	0.8788	0.65178	-0.007
Mof_C 	C 	0.6239	0.8356	0.5683	-0.046
Mof_C 	C 	0.6596	0.8077	0.6638	0.141
Mof_C 	C 	0.7025	0.8258	0.6516	-0.082
Mof_C 	C 	0.6484	0.7488	0.7802	-0.09
Mof_H 	H 	0.7116	0.8571	0.5751	0.05
Mof_C 	C 	0.7364	0.8	0.7508	0.01
Mof_C 	C 	0.6806	0.7227	0.8663	0.032
Mof_H 	H 	0.619	0.7303	0.7926	0.065
Mof_H 	H 	0.766	0.8175	0.7416	0.021
Mof_H 	H 	0.673	0.6844	0.9357	0.026
Mof_C 	C 	0.3559	0.7885	0.1155	0.129
Mof_H 	H 	0.3616	0.7584	0.0347	-0.105
Mof_C 	C 	0.3887	0.8039	0.2051	-0.158
Mof_H 	H 	0.4172	0.7823	0.1893	0.084
Mof_C 	C 	0.3385	0.8915	0.3333	-0.049
Mof_H 	H 	0.3312	0.9318	0.3999	0.04
Mof_C 	C 	0.3062	0.8707	0.2384	0.02
Mof_H 	H 	0.2784	0.8974	0.2448	0.013
Mof_C 	C 	0.6822	0.7326	0.3488	-0.162
Mof_H 	H 	0.676	0.6986	0.4251	0.077
Mof_C 	C 	0.7112	0.706	0.2636	0.109
Mof_H 	H 	0.7252	0.6543	0.2823	-0.015
Mof_C 	C 	0.7011	0.8284	0.136	0.101
Mof_H 	H 	0.7093	0.8631	0.0624	-0.023
Mof_C 	C 	0.6703	0.8605	0.2183	-0.164
Mof_H 	H 	0.6566	0.9129	0.202	0.08
Mof_N 	N 	0.8121	0.6817	0.8552	-0.198
Mof_N 	N 	0.72351	0.7494	0.1428	-0.218
Mof_C 	C 	0.8217	0.7353	0.2663	0.051
Mof_C 	C 	0.831	0.6054	0.1593	0.095
Mof_H 	H 	0.8051	0.7851	0.277	0.004
Mof_C 	C 	0.8528	0.7173	0.3633	-0.132
Mof_C 	C 	0.8635	0.5867	0.2485	-0.173
Mof_H 	H 	0.8207	0.5617	0.1027	-0.02
Mof_C 	C 	0.879	0.6415	0.3371	0.153
Mof_H 	H 	0.857	0.7511	0.4411	0.066
Mof_H 	H 	0.8755	0.532	0.2475	0.084
Mof_C 	C 	0.9164	0.6237	0.4313	-0.051
Mof_S 	S 	0.96808	0.60067	0.34783	-0.008
Mof_S 	S 	0.07616	0.6212	0.34822	-0.017
Mof_C 	C 	0.1239	0.6644	0.4317	-0.047
Mof_C 	C 	0.1596	0.6923	0.3362	0.146
Mof_C 	C 	0.2025	0.6742	0.3484	-0.077
Mof_C 	C 	0.1484	0.7512	0.2198	-0.091
Mof_H 	H 	0.2116	0.6429	0.4249	0.047
Mof_C 	C 	0.2364	0.7	0.2492	0.003
Mof_C 	C 	0.1806	0.7773	0.1337	0.027
Mof_H 	H 	0.119	0.7697	0.2074	0.058
Mof_H 	H 	0.266	0.6825	0.2584	0.021
Mof_H 	H 	0.173	0.8156	0.0643	0.004
Mof_C 	C 	0.8559	0.7115	0.8845	-0.016
Mof_H 	H 	0.8616	0.7416	0.9653	0.11
Mof_C 	C 	0.8887	0.6961	0.7949	-0.077
Mof_H 	H 	0.9172	0.7177	0.8107	0.062
Mof_C 	C 	0.8385	0.6085	0.6667	-0.126
Mof_H 	H 	0.8312	0.5682	0.6001	0.068
Mof_C 	C 	0.8062	0.6293	0.7616	0.092
Mof_H 	H 	0.7784	0.6026	0.7552	-0.009
Mof_C 	C 	0.1822	0.7674	0.6512	-0.152
Mof_H 	H 	0.176	0.8014	0.5749	0.073
Mof_C 	C 	0.2112	0.794	0.7364	0.098
Mof_H 	H 	0.2252	0.8457	0.7177	-0.008
Mof_C 	C 	0.2011	0.6716	0.864	0.088
Mof_H 	H 	0.2093	0.6369	0.9376	0.008
Mof_C 	C 	0.1703	0.6395	0.7817	-0.149
Mof_H 	H 	0.1566	0.5871	0.798	0.081
Mof_N 	N 	0.1879	0.3183	0.8552	-0.198
Mof_N 	N 	0.27649	0.2506	0.1428	-0.218
Mof_C 	C 	0.1783	0.2647	0.2663	0.051
Mof_C 	C 	0.169	0.3946	0.1593	0.095
Mof_H 	H 	0.1949	0.2149	0.277	0.004
Mof_C 	C 	0.1472	0.2827	0.3633	-0.132
Mof_C 	C 	0.1365	0.4133	0.2485	-0.173
Mof_H 	H 	0.1793	0.4383	0.1027	-0.02
Mof_C 	C 	0.121	0.3585	0.3371	0.153
Mof_H 	H 	0.143	0.2489	0.4411	0.066
Mof_H 	H 	0.1245	0.468	0.2475	0.084
Mof_C 	C 	0.0836	0.3763	0.4313	-0.051
Mof_S 	S 	0.03192	0.39933	0.34783	-0.008
Mof_S 	S 	0.92384	0.3788	0.34822	-0.017
Mof_C 	C 	0.8761	0.3356	0.4317	-0.047
Mof_C 	C 	0.8404	0.3077	0.3362	0.146
Mof_C 	C 	0.7975	0.3258	0.3484	-0.077
Mof_C 	C 	0.8516	0.2488	0.2198	-0.091
Mof_H 	H 	0.7884	0.3571	0.4249	0.047
Mof_C 	C 	0.7636	0.3	0.2492	0.003
Mof_C 	C 	0.8194	0.2227	0.1337	0.027
Mof_H 	H 	0.881	0.2303	0.2074	0.058
Mof_H 	H 	0.734	0.3175	0.2584	0.021
Mof_H 	H 	0.827	0.1844	0.0643	0.004
Mof_C 	C 	0.1441	0.2885	0.8845	-0.016
Mof_H 	H 	0.1384	0.2584	0.9653	0.11
Mof_C 	C 	0.1113	0.3039	0.7949	-0.077
Mof_H 	H 	0.0828	0.2823	0.8107	0.062
Mof_C 	C 	0.1615	0.3915	0.6667	-0.126
Mof_H 	H 	0.1688	0.4318	0.6001	0.068
Mof_C 	C 	0.1938	0.3707	0.7616	0.092
Mof_H 	H 	0.2216	0.3974	0.7552	-0.009
Mof_C 	C 	0.8178	0.2326	0.6512	-0.152
Mof_H 	H 	0.824	0.1986	0.5749	0.073
Mof_C 	C 	0.7888	0.206	0.7364	0.098
Mof_H 	H 	0.7748	0.1543	0.7177	-0.008
Mof_C 	C 	0.7989	0.3284	0.864	0.088
Mof_H 	H 	0.7907	0.3631	0.9376	0.008
Mof_C 	C 	0.8297	0.3605	0.7817	-0.149
Mof_H 	H 	0.8434	0.4129	0.798	0.081
Mof_N 	N 	0.3121	0.8183	0.8552	-0.198
Mof_N 	N 	0.22351	0.7506	0.1428	-0.218
Mof_C 	C 	0.3217	0.7647	0.2663	0.051
Mof_C 	C 	0.331	0.8946	0.1593	0.096
Mof_H 	H 	0.3051	0.7149	0.277	0.004
Mof_C 	C 	0.3528	0.7827	0.3633	-0.132
Mof_C 	C 	0.3635	0.9133	0.2485	-0.173
Mof_H 	H 	0.3207	0.9383	0.1027	-0.02
Mof_C 	C 	0.379	0.8585	0.3371	0.153
Mof_H 	H 	0.357	0.7489	0.4411	0.066
Mof_H 	H 	0.3755	0.968	0.2475	0.084
Mof_C 	C 	0.4164	0.8763	0.4313	-0.051
Mof_S 	S 	0.46808	0.89933	0.34783	-0.008
Mof_S 	S 	0.57616	0.8788	0.34822	-0.017
Mof_C 	C 	0.6239	0.8356	0.4317	-0.047
Mof_C 	C 	0.6596	0.8077	0.3362	0.146
Mof_C 	C 	0.7025	0.8258	0.3484	-0.077
Mof_C 	C 	0.6484	0.7488	0.2198	-0.091
Mof_H 	H 	0.7116	0.8571	0.4249	0.047
Mof_C 	C 	0.7364	0.8	0.2492	0.003
Mof_C 	C 	0.6806	0.7227	0.1337	0.027
Mof_H 	H 	0.619	0.7303	0.2074	0.058
Mof_H 	H 	0.766	0.8175	0.2584	0.021
Mof_H 	H 	0.673	0.6844	0.0643	0.003
Mof_C 	C 	0.3559	0.7885	0.8845	-0.017
Mof_H 	H 	0.3616	0.7584	0.9653	0.11
Mof_C 	C 	0.3887	0.8039	0.7949	-0.077
Mof_H 	H 	0.4172	0.7823	0.8107	0.062
Mof_C 	C 	0.3385	0.8915	0.6667	-0.126
Mof_H 	H 	0.3312	0.9318	0.6001	0.068
Mof_C 	C 	0.3062	0.8707	0.7616	0.092
Mof_H 	H 	0.2784	0.8974	0.7552	-0.009
Mof_C 	C 	0.6822	0.7326	0.6512	-0.152
Mof_H 	H 	0.676	0.6986	0.5749	0.073
Mof_C 	C 	0.7112	0.706	0.7364	0.098
Mof_H 	H 	0.7252	0.6543	0.7177	-0.008
Mof_C 	C 	0.7011	0.8284	0.864	0.088
Mof_H 	H 	0.7093	0.8631	0.9376	0.007
Mof_C 	C 	0.6703	0.8605	0.7817	-0.149
Mof_H 	H 	0.6566	0.9129	0.798	0.081
Mof_N 	N 	0.6879	0.1817	0.8552	-0.198
Mof_N 	N 	0.77649	0.2494	0.1428	-0.218
Mof_C 	C 	0.6783	0.2353	0.2663	0.051
Mof_C 	C 	0.669	0.1054	0.1593	0.096
Mof_H 	H 	0.6949	0.2851	0.277	0.004
Mof_C 	C 	0.6472	0.2173	0.3633	-0.132
Mof_C 	C 	0.6365	0.0867	0.2485	-0.173
Mof_H 	H 	0.6793	0.0617	0.1027	-0.02
Mof_C 	C 	0.621	0.1415	0.3371	0.153
Mof_H 	H 	0.643	0.2511	0.4411	0.066
Mof_H 	H 	0.6245	0.032	0.2475	0.084
Mof_C 	C 	0.5836	0.1237	0.4313	-0.051
Mof_S 	S 	0.53192	0.10067	0.34783	-0.008
Mof_S 	S 	0.42384	0.1212	0.34822	-0.017
Mof_C 	C 	0.3761	0.1644	0.4317	-0.047
Mof_C 	C 	0.3404	0.1923	0.3362	0.146
Mof_C 	C 	0.2975	0.1742	0.3484	-0.077
Mof_C 	C 	0.3516	0.2512	0.2198	-0.091
Mof_H 	H 	0.2884	0.1429	0.4249	0.047
Mof_C 	C 	0.2636	0.2	0.2492	0.003
Mof_C 	C 	0.3194	0.2773	0.1337	0.027
Mof_H 	H 	0.381	0.2697	0.2074	0.058
Mof_H 	H 	0.234	0.1825	0.2584	0.021
Mof_H 	H 	0.327	0.3156	0.0643	0.003
Mof_C 	C 	0.6441	0.2115	0.8845	-0.017
Mof_H 	H 	0.6384	0.2416	0.9653	0.11
Mof_C 	C 	0.6113	0.1961	0.7949	-0.077
Mof_H 	H 	0.5828	0.2177	0.8107	0.062
Mof_C 	C 	0.6615	0.1085	0.6667	-0.126
Mof_H 	H 	0.6688	0.0682	0.6001	0.068
Mof_C 	C 	0.6938	0.1293	0.7616	0.092
Mof_H 	H 	0.7216	0.1026	0.7552	-0.009
Mof_C 	C 	0.3178	0.2674	0.6512	-0.152
Mof_H 	H 	0.324	0.3014	0.5749	0.073
Mof_C 	C 	0.2888	0.294	0.7364	0.098
Mof_H 	H 	0.2748	0.3457	0.7177	-0.008
Mof_C 	C 	0.2989	0.1716	0.864	0.088
Mof_H 	H 	0.2907	0.1369	0.9376	0.007
Mof_C 	C 	0.3297	0.1395	0.7817	-0.149
Mof_H 	H 	0.3434	0.0871	0.798	0.081
Mof_N 	N 	0.1879	0.3183	0.1448	-0.227
Mof_N 	N 	0.27649	0.2506	0.8572	-0.207
Mof_C 	C 	0.1783	0.2647	0.7337	0.044
Mof_C 	C 	0.169	0.3946	0.8407	0.017
Mof_H 	H 	0.1949	0.2149	0.723	0.009
Mof_C 	C 	0.1472	0.2827	0.6367	-0.101
Mof_C 	C 	0.1365	0.4133	0.7515	-0.063
Mof_H 	H 	0.1793	0.4383	0.8973	0.022
Mof_C 	C 	0.121	0.3585	0.6629	0.107
Mof_H 	H 	0.143	0.2489	0.5589	0.053
Mof_H 	H 	0.1245	0.468	0.7525	0.05
Mof_C 	C 	0.0836	0.3763	0.5687	-0.032
Mof_S 	S 	0.03192	0.39933	0.65217	-0.002
Mof_S 	S 	0.92384	0.3788	0.65178	-0.007
Mof_C 	C 	0.8761	0.3356	0.5683	-0.046
Mof_C 	C 	0.8404	0.3077	0.6638	0.141
Mof_C 	C 	0.7975	0.3258	0.6516	-0.082
Mof_C 	C 	0.8516	0.2488	0.7802	-0.09
Mof_H 	H 	0.7884	0.3571	0.5751	0.05
Mof_C 	C 	0.7636	0.3	0.7508	0.01
Mof_C 	C 	0.8194	0.2227	0.8663	0.032
Mof_H 	H 	0.881	0.2303	0.7926	0.065
Mof_H 	H 	0.734	0.3175	0.7416	0.021
Mof_H 	H 	0.827	0.1844	0.9357	0.026
Mof_C 	C 	0.1441	0.2885	0.1155	0.129
Mof_H 	H 	0.1384	0.2584	0.0347	-0.105
Mof_C 	C 	0.1113	0.3039	0.2051	-0.158
Mof_H 	H 	0.0828	0.2823	0.1893	0.084
Mof_C 	C 	0.1615	0.3915	0.3333	-0.049
Mof_H 	H 	0.1688	0.4318	0.3999	0.041
Mof_C 	C 	0.1938	0.3707	0.2384	0.02
Mof_H 	H 	0.2216	0.3974	0.2448	0.013
Mof_C 	C 	0.8178	0.2326	0.3488	-0.163
Mof_H 	H 	0.824	0.1986	0.4251	0.077
Mof_C 	C 	0.7888	0.206	0.2636	0.109
Mof_H 	H 	0.7748	0.1543	0.2823	-0.015
Mof_C 	C 	0.7989	0.3284	0.136	0.101
Mof_H 	H 	0.7907	0.3631	0.0624	-0.023
Mof_C 	C 	0.8297	0.3605	0.2183	-0.164
Mof_H 	H 	0.8434	0.4129	0.202	0.08
Mof_N 	N 	0.8121	0.6817	0.1448	-0.227
Mof_N 	N 	0.72351	0.7494	0.8572	-0.207
Mof_C 	C 	0.8217	0.7353	0.7337	0.044
Mof_C 	C 	0.831	0.6054	0.8407	0.017
Mof_H 	H 	0.8051	0.7851	0.723	0.009
Mof_C 	C 	0.8528	0.7173	0.6367	-0.101
Mof_C 	C 	0.8635	0.5867	0.7515	-0.063
Mof_H 	H 	0.8207	0.5617	0.8973	0.022
Mof_C 	C 	0.879	0.6415	0.6629	0.107
Mof_H 	H 	0.857	0.7511	0.5589	0.053
Mof_H 	H 	0.8755	0.532	0.7525	0.05
Mof_C 	C 	0.9164	0.6237	0.5687	-0.032
Mof_S 	S 	0.96808	0.60067	0.65217	-0.002
Mof_S 	S 	0.07616	0.6212	0.65178	-0.007
Mof_C 	C 	0.1239	0.6644	0.5683	-0.046
Mof_C 	C 	0.1596	0.6923	0.6638	0.141
Mof_C 	C 	0.2025	0.6742	0.6516	-0.082
Mof_C 	C 	0.1484	0.7512	0.7802	-0.09
Mof_H 	H 	0.2116	0.6429	0.5751	0.05
Mof_C 	C 	0.2364	0.7	0.7508	0.01
Mof_C 	C 	0.1806	0.7773	0.8663	0.032
Mof_H 	H 	0.119	0.7697	0.7926	0.065
Mof_H 	H 	0.266	0.6825	0.7416	0.021
Mof_H 	H 	0.173	0.8156	0.9357	0.026
Mof_C 	C 	0.8559	0.7115	0.1155	0.129
Mof_H 	H 	0.8616	0.7416	0.0347	-0.105
Mof_C 	C 	0.8887	0.6961	0.2051	-0.158
Mof_H 	H 	0.9172	0.7177	0.1893	0.084
Mof_C 	C 	0.8385	0.6085	0.3333	-0.049
Mof_H 	H 	0.8312	0.5682	0.3999	0.041
Mof_C 	C 	0.8062	0.6293	0.2384	0.02
Mof_H 	H 	0.7784	0.6026	0.2448	0.013
Mof_C 	C 	0.1822	0.7674	0.3488	-0.163
Mof_H 	H 	0.176	0.8014	0.4251	0.077
Mof_C 	C 	0.2112	0.794	0.2636	0.109
Mof_H 	H 	0.2252	0.8457	0.2823	-0.015
Mof_C 	C 	0.2011	0.6716	0.136	0.101
Mof_H 	H 	0.2093	0.6369	0.0624	-0.023
Mof_C 	C 	0.1703	0.6395	0.2183	-0.164
Mof_H 	H 	0.1566	0.5871	0.202	0.08
Mof_Fe	Fe	0.73235	0.21474	-0	0.731
Mof_N 	N 	0.7591	0.1017	-0	-0.25
Mof_N 	N 	0.7086	0.3312	-0	-0.244
Mof_C 	C 	0.7808	0.0438	-0	0.16
Mof_N 	N 	0.8115	0.9811	-0	-0.189
Mof_C 	C 	0.7983	0.9028	-0	0.163
Mof_Fe	Fe	0.26765	0.78526	-0	0.731
Mof_N 	N 	0.2409	0.8983	-0	-0.25
Mof_N 	N 	0.2914	0.6688	-0	-0.244
Mof_C 	C 	0.2192	0.9562	-0	0.16
Mof_N 	N 	0.1885	0.0189	-0	-0.189
Mof_C 	C 	0.2017	0.0972	-0	0.163
Mof_Fe	Fe	0.76765	0.71474	-0	0.731
Mof_N 	N 	0.7409	0.6017	-0	-0.25
Mof_N 	N 	0.7914	0.8312	-0	-0.244
Mof_C 	C 	0.7192	0.5438	-0	0.16
Mof_N 	N 	0.6885	0.4811	-0	-0.189
Mof_C 	C 	0.7017	0.4028	-0	0.163
Mof_Fe	Fe	0.23235	0.28526	-0	0.731
Mof_N 	N 	0.2591	0.3983	-0	-0.25
Mof_N 	N 	0.2086	0.1688	-0	-0.244
Mof_C 	C 	0.2808	0.4562	-0	0.16
Mof_N 	N 	0.3115	0.5189	-0	-0.189
Mof_C 	C 	0.2983	0.5972	-0	0.163
Mof_C 	C 	0.5002	0.1065	0.5	-0.005
Mof_C 	C 	0.455	0.1141	0.5	-0.002
Mof_C 	C 	0.4998	0.8935	0.5	-0.005
Mof_C 	C 	0.545	0.8859	0.5	-0.002
Mof_C 	C 	0.9998	0.6065	0.5	-0.005
Mof_C 	C 	0.045	0.6141	0.5	-0.002
Mof_C 	C 	0.0002	0.3935	0.5	-0.005
Mof_C 	C 	0.955	0.3859	0.5	-0.002
_end
