data_functionalizedCrystal
_audit_creation_method	'EQeq! by Chris Wilmer'
_symmetry_space_group_name_H-M	'P1'
_symmetry_Int_Tables_number	1
_symmetry_cell_setting	triclinic
loop_
_symmetry_equiv_pos_as_xyz
  x,y,z
_cell_length_a	11.0667
_cell_length_b	11.0667
_cell_length_c	14.9142
_cell_angle_alpha	80.6532
_cell_angle_beta	72.1071
_cell_angle_gamma	111.535
loop_
_atom_site_label
_atom_site_type_symbol
_atom_site_fract_x
_atom_site_fract_y
_atom_site_fract_z
_atom_site_charge
Mof_Cu	Cu	0.18315	0.03552	0.32825	0.875
Mof_Cu	Cu	0.13623	0.4886	0.82825	0.876
Mof_Cu	Cu	0.86377	0.5114	0.17175	0.875
Mof_Cu	Cu	0.81685	0.96448	0.67175	0.874
Mof_H 	H 	0.9906	0.6579	0.5761	0.106
Mof_H 	H 	0.3353	0.1744	0.9003	0.074
Mof_H 	H 	0.4253	0.7644	0.4003	0.074
Mof_H 	H 	0.8651	0.6528	0.3257	-0.03
Mof_H 	H 	0.3842	0.6084	0.9522	0.091
Mof_H 	H 	0.4331	0.8176	0.1285	0.075
Mof_H 	H 	0.4785	0.1908	0.1743	-0.03
Mof_H 	H 	0.734	0.5667	0.9239	0.107
Mof_H 	H 	0.5669	0.1824	0.8715	0.075
Mof_H 	H 	0.6158	0.3916	0.0478	0.091
Mof_H 	H 	0.8229	0.7363	0.0764	-0.01
Mof_H 	H 	0.1446	0.2431	0.2093	-0.008
Mof_H 	H 	0.5215	0.8092	0.8257	-0.03
Mof_H 	H 	0.5747	0.2356	0.5997	0.074
Mof_H 	H 	0.2985	0.9311	0.1634	-0.023
Mof_H 	H 	0.1771	0.2637	0.9236	-0.01
Mof_H 	H 	0.0094	0.3421	0.4239	0.106
Mof_H 	H 	0.4055	0.5381	0.6634	-0.024
Mof_H 	H 	0.5539	0.4384	0.6285	0.075
Mof_H 	H 	0.1349	0.3472	0.6743	-0.03
Mof_H 	H 	0.5945	0.4619	0.3366	-0.024
Mof_H 	H 	0.0476	0.6461	0.7093	-0.007
Mof_H 	H 	0.3127	0.8993	0.4236	-0.009
Mof_H 	H 	0.4461	0.5616	0.3715	0.075
Mof_H 	H 	0.6647	0.8256	0.0997	0.074
Mof_H 	H 	0.6873	0.1007	0.5764	-0.009
Mof_H 	H 	0.8554	0.7569	0.7907	-0.008
Mof_H 	H 	0.0606	0.3364	0.5478	0.09
Mof_H 	H 	0.9524	0.3539	0.2907	-0.007
Mof_H 	H 	0.9394	0.6636	0.4522	0.09
Mof_H 	H 	0.7015	0.0689	0.8366	-0.023
Mof_H 	H 	0.266	0.4333	0.0761	0.107
Mof_C 	C 	0.5648	0.7574	0.844	0.097
Mof_C 	C 	0.5948	0.1987	0.6507	-0.141
Mof_C 	C 	0.2411	0.2718	0.1749	0.099
Mof_C 	C 	0.5185	0.362	0.0773	-0.166
Mof_C 	C 	0.3346	0.8805	0.3637	0.081
Mof_C 	C 	0.9393	0.5958	0.4227	-0.166
Mof_C 	C 	0.6863	0.6129	0.9046	-0.161
Mof_C 	C 	0.6506	0.7545	0.1507	-0.142
Mof_C 	C 	0.7589	0.7282	0.8251	0.099
Mof_C 	C 	0.2558	0.3017	0.8637	0.081
Mof_C 	C 	0.3137	0.3871	0.0954	-0.161
Mof_C 	C 	0.6654	0.1195	0.6363	0.081
Mof_C 	C 	0.3875	0.4604	0.7105	0.076
Mof_C 	C 	0.1014	0.4088	0.656	0.097
Mof_C 	C 	0.9549	0.524	0.9777	0.214
Mof_C 	C 	0.5934	0.1699	0.8095	-0.141
Mof_C 	C 	0.3494	0.2455	0.8493	-0.142
Mof_C 	C 	0.8986	0.5912	0.344	0.097
Mof_C 	C 	0.5538	0.2241	0.7397	0.057
Mof_C 	C 	0.4462	0.7759	0.2603	0.057
Mof_C 	C 	0.4815	0.638	0.9227	-0.166
Mof_C 	C 	0.5206	0.5971	0.3095	-0.141
Mof_C 	C 	0.6125	0.5396	0.2895	0.076
Mof_C 	C 	0.9467	0.416	0.3251	0.097
Mof_C 	C 	0.7442	0.6983	0.1363	0.081
Mof_C 	C 	0.5362	0.7065	0.2397	0.057
Mof_C 	C 	0.9983	0.0674	0.4777	0.216
Mof_C 	C 	0.3291	0.902	0.2105	0.076
Mof_C 	C 	0.0451	0.476	0.0223	0.214
Mof_C 	C 	0.6709	0.098	0.7895	0.076
Mof_C 	C 	0.4066	0.8301	0.1905	-0.141
Mof_C 	C 	0.0207	0.4983	0.5428	0.074
Mof_C 	C 	0.4794	0.4029	0.6905	-0.141
Mof_C 	C 	0.0175	0.5909	0.5954	-0.159
Mof_C 	C 	0.4589	0.4365	0.0428	0.075
Mof_C 	C 	0.9793	0.5017	0.4572	0.074
Mof_C 	C 	0.9825	0.4091	0.4046	-0.159
Mof_C 	C 	0.4352	0.2426	0.156	0.097
Mof_C 	C 	0.4638	0.2935	0.7603	0.057
Mof_C 	C 	0.0017	0.9326	0.5223	0.216
Mof_C 	C 	0.5411	0.5635	0.9572	0.075
Mof_C 	C 	0.0533	0.584	0.6749	0.097
Mof_C 	C 	0.0607	0.4042	0.5773	-0.166
Mof_C 	C 	0.4052	0.8013	0.3493	-0.141
Mof_N 	N 	0.7003	0.8018	0.7939	-0.251
Mof_N 	N 	0.2719	0.4076	0.7963	-0.24
Mof_N 	N 	0.9043	0.5058	0.2939	-0.25
Mof_N 	N 	0.7039	0.0682	0.7037	-0.239
Mof_N 	N 	0.2961	0.9318	0.2963	-0.239
Mof_N 	N 	0.0957	0.4942	0.7061	-0.25
Mof_N 	N 	0.7281	0.5924	0.2037	-0.24
Mof_N 	N 	0.2997	0.1982	0.2061	-0.251
Mof_O 	O 	0.141	0.4625	0.9621	-0.377
Mof_O 	O 	0.0708	0.1287	0.3883	-0.375
Mof_O 	O 	0.017	0.4591	0.1117	-0.373
Mof_O 	O 	0.983	0.5409	0.8883	-0.373
Mof_O 	O 	0.0754	0.8969	0.4621	-0.376
Mof_O 	O 	0.9246	0.1031	0.5379	-0.376
Mof_O 	O 	0.9292	0.8713	0.6117	-0.375
Mof_O 	O 	0.859	0.5375	0.0379	-0.377
_end
