data_functionalizedCrystal
_audit_creation_method	'EQeq! by Chris Wilmer'
_symmetry_space_group_name_H-M	'P1'
_symmetry_Int_Tables_number	1
_symmetry_cell_setting	triclinic
loop_
_symmetry_equiv_pos_as_xyz
  x,y,z
_cell_length_a	11.6936
_cell_length_b	11.6936
_cell_length_c	28.6993
_cell_angle_alpha	90
_cell_angle_beta	90
_cell_angle_gamma	120
loop_
_atom_site_label
_atom_site_type_symbol
_atom_site_fract_x
_atom_site_fract_y
_atom_site_fract_z
_atom_site_charge
Mof_Ag	Ag	0.73361	0.71374	0.39594	0.524
Mof_Ag	Ag	0.52814	0.78625	0.38383	0.64
Mof_Ag	Ag	0.50019	0.48745	0.37809	0.544
Mof_C 	C 	0.5488	0.6389	0.4319	-0.469
Mof_C 	C 	0.4891	0.6449	0.4651	0.14
Mof_C 	C 	0.411	0.6401	0.50393	-0.117
Mof_C 	C 	0.4472	0.7524	0.5305	0.093
Mof_H 	H 	0.5213	0.8321	0.5224	0.049
Mof_C 	C 	0.3726	0.7458	0.5692	-0.162
Mof_H 	H 	0.3969	0.821	0.587	0.178
Mof_C 	C 	0.2619	0.6268	0.58135	0.187
Mof_C 	C 	0.2257	0.5144	0.5547	-0.184
Mof_H 	H 	0.1517	0.4348	0.5629	0.177
Mof_C 	C 	0.3003	0.5211	0.516	0.107
Mof_H 	H 	0.2761	0.4459	0.4982	0.031
Mof_C 	C 	0.7822	0.2467	0.6477	0.289
Mof_C 	C 	0.6957	0.174	0.6033	0.498
Mof_C 	C 	0.7757	0.2028	0.5554	0.37
Mof_C 	C 	0.8782	0.1545	0.5477	0.477
Mof_C 	C 	0.8223	0.0012	0.5469	0.256
Mof_F 	F 	0.6374	0.0485	0.6074	-0.444
Mof_F 	F 	0.6129	0.2168	0.5957	-0.438
Mof_F 	F 	0.8435	0.3364	0.5488	-0.394
Mof_F 	F 	0.6835	0.1476	0.5206	-0.364
Mof_F 	F 	0.9355	0.1988	0.5066	-0.394
Mof_F 	F 	0.9669	0.211	0.5805	-0.454
Mof_N 	N 	0.1838	0.6166	0.6225	-0.026
Mof_O 	O 	0.2138	0.7093	0.6451	-0.112
Mof_O 	O 	0.0911	0.5069	0.6316	-0.194
Mof_O 	O 	0.8205	0.1833	0.66972	-0.241
Mof_O 	O 	0.8077	0.3616	0.6546	-0.343
Mof_O 	O 	0.8314	0.9524	0.58353	-0.242
Mof_O 	O 	0.7671	0.9413	0.5105	-0.254
Mof_Ag	Ag	0.28626	0.01987	0.06261	0.505
Mof_Ag	Ag	0.21375	0.74189	0.0505	0.64
Mof_Ag	Ag	0.51255	0.01274	0.04476	0.529
Mof_C 	C 	0.3611	0.9099	0.09857	-0.45
Mof_C 	C 	0.3551	0.8442	0.13177	0.136
Mof_C 	C 	0.3599	0.7709	0.1706	-0.111
Mof_C 	C 	0.2476	0.6948	0.19717	0.089
Mof_H 	H 	0.1679	0.6892	0.18907	0.047
Mof_C 	C 	0.2542	0.6268	0.23587	-0.16
Mof_H 	H 	0.179	0.5759	0.25367	0.173
Mof_C 	C 	0.3732	0.6351	0.24802	0.185
Mof_C 	C 	0.4856	0.7113	0.22137	-0.181
Mof_H 	H 	0.5652	0.7169	0.22957	0.18
Mof_C 	C 	0.4789	0.7792	0.18267	0.104
Mof_H 	H 	0.5541	0.8302	0.16487	0.038
Mof_C 	C 	0.7533	0.5355	0.31437	0.288
Mof_C 	C 	0.826	0.5217	0.26997	0.497
Mof_C 	C 	0.7972	0.5729	0.22207	0.374
Mof_C 	C 	0.8455	0.7237	0.21437	0.467
Mof_C 	C 	0.9988	0.8211	0.21357	0.305
Mof_F 	F 	0.9515	0.5889	0.27407	-0.436
Mof_F 	F 	0.7832	0.3961	0.26237	-0.436
Mof_F 	F 	0.6636	0.5071	0.21547	-0.395
Mof_F 	F 	0.8524	0.5359	0.18727	-0.36
Mof_F 	F 	0.8012	0.7367	0.17327	-0.39
Mof_F 	F 	0.789	0.7559	0.24717	-0.451
Mof_N 	N 	0.3834	0.5672	0.28917	-0.026
Mof_O 	O 	0.2907	0.5045	0.31177	-0.113
Mof_O 	O 	0.4931	0.5842	0.29827	-0.187
Mof_O 	O 	0.8167	0.6372	0.33639	-0.236
Mof_O 	O 	0.6384	0.4461	0.32127	-0.341
Mof_O 	O 	0.0476	0.879	0.2502	-0.27
Mof_O 	O 	0.0587	0.8258	0.17717	-0.275
Mof_Ag	Ag	0.98013	0.26639	0.72927	0.54
Mof_Ag	Ag	0.25811	0.47186	0.71716	0.626
Mof_Ag	Ag	0.98726	0.49981	0.71142	0.565
Mof_C 	C 	0.0901	0.4512	0.76523	-0.485
Mof_C 	C 	0.1558	0.5109	0.79843	0.148
Mof_C 	C 	0.2291	0.589	0.83726	-0.125
Mof_C 	C 	0.3052	0.5528	0.86383	0.099
Mof_H 	H 	0.3108	0.4787	0.85573	0.045
Mof_C 	C 	0.3732	0.6274	0.90253	-0.167
Mof_H 	H 	0.4241	0.6031	0.92033	0.179
Mof_C 	C 	0.3649	0.7381	0.91468	0.193
Mof_C 	C 	0.2887	0.7743	0.88803	-0.189
Mof_H 	H 	0.2831	0.8483	0.89623	0.185
Mof_C 	C 	0.2208	0.6997	0.84933	0.115
Mof_H 	H 	0.1698	0.7239	0.83153	0.03
Mof_C 	C 	0.4645	0.2178	0.98103	0.288
Mof_C 	C 	0.4783	0.3043	0.93663	0.497
Mof_C 	C 	0.4271	0.2243	0.88873	0.371
Mof_C 	C 	0.2763	0.1218	0.88103	0.473
Mof_C 	C 	0.1789	0.1777	0.88023	0.277
Mof_F 	F 	0.4111	0.3626	0.94073	-0.439
Mof_F 	F 	0.6039	0.3871	0.92903	-0.435
Mof_F 	F 	0.4929	0.1565	0.88213	-0.397
Mof_F 	F 	0.4641	0.3165	0.85393	-0.362
Mof_F 	F 	0.2633	0.0645	0.83993	-0.399
Mof_F 	F 	0.2441	0.0331	0.91383	-0.459
Mof_N 	N 	0.4328	0.8162	0.95583	-0.028
Mof_O 	O 	0.4955	0.7862	0.97843	-0.105
Mof_O 	O 	0.4158	0.9089	0.96493	-0.179
Mof_O 	O 	0.3628	0.1795	0.00305	-0.237
Mof_O 	O 	0.5539	0.1923	0.98793	-0.341
Mof_O 	O 	0.121	0.1686	0.91686	-0.257
Mof_O 	O 	0.1742	0.2329	0.84383	-0.267
Mof_Ag	Ag	0.71374	0.73361	0.60406	0.523
Mof_Ag	Ag	0.78625	0.52814	0.61617	0.639
Mof_Ag	Ag	0.48745	0.50019	0.62191	0.543
Mof_C 	C 	0.6389	0.5488	0.5681	-0.47
Mof_C 	C 	0.6449	0.4891	0.5349	0.139
Mof_C 	C 	0.6401	0.411	0.49607	-0.117
Mof_C 	C 	0.7524	0.4472	0.4695	0.093
Mof_H 	H 	0.8321	0.5213	0.4776	0.049
Mof_C 	C 	0.7458	0.3726	0.4308	-0.162
Mof_H 	H 	0.821	0.3969	0.413	0.178
Mof_C 	C 	0.6268	0.2619	0.41865	0.187
Mof_C 	C 	0.5144	0.2257	0.4453	-0.184
Mof_H 	H 	0.4348	0.1517	0.4371	0.177
Mof_C 	C 	0.5211	0.3003	0.484	0.107
Mof_H 	H 	0.4459	0.2761	0.5018	0.031
Mof_C 	C 	0.2467	0.7822	0.3523	0.289
Mof_C 	C 	0.174	0.6957	0.3967	0.498
Mof_C 	C 	0.2028	0.7757	0.4446	0.37
Mof_C 	C 	0.1545	0.8782	0.4523	0.477
Mof_C 	C 	0.0012	0.8223	0.4531	0.256
Mof_F 	F 	0.0485	0.6374	0.3926	-0.444
Mof_F 	F 	0.2168	0.6129	0.4043	-0.438
Mof_F 	F 	0.3364	0.8435	0.4512	-0.394
Mof_F 	F 	0.1476	0.6835	0.4794	-0.364
Mof_F 	F 	0.1988	0.9355	0.4934	-0.394
Mof_F 	F 	0.211	0.9669	0.4195	-0.454
Mof_N 	N 	0.6166	0.1838	0.3775	-0.026
Mof_O 	O 	0.7093	0.2138	0.3549	-0.112
Mof_O 	O 	0.5069	0.0911	0.3684	-0.194
Mof_O 	O 	0.1833	0.8205	0.33028	-0.241
Mof_O 	O 	0.3616	0.8077	0.3454	-0.343
Mof_O 	O 	0.9524	0.8314	0.41647	-0.242
Mof_O 	O 	0.9413	0.7671	0.4895	-0.254
Mof_Ag	Ag	0.01987	0.28626	0.93739	0.505
Mof_Ag	Ag	0.74189	0.21375	0.9495	0.64
Mof_Ag	Ag	0.01274	0.51255	0.95524	0.529
Mof_C 	C 	0.9099	0.3611	0.90143	-0.45
Mof_C 	C 	0.8442	0.3551	0.86823	0.136
Mof_C 	C 	0.7709	0.3599	0.8294	-0.111
Mof_C 	C 	0.6948	0.2476	0.80283	0.089
Mof_H 	H 	0.6892	0.1679	0.81093	0.047
Mof_C 	C 	0.6268	0.2542	0.76413	-0.16
Mof_H 	H 	0.5759	0.179	0.74633	0.173
Mof_C 	C 	0.6351	0.3732	0.75198	0.185
Mof_C 	C 	0.7113	0.4856	0.77863	-0.181
Mof_H 	H 	0.7169	0.5652	0.77043	0.18
Mof_C 	C 	0.7792	0.4789	0.81733	0.104
Mof_H 	H 	0.8302	0.5541	0.83513	0.038
Mof_C 	C 	0.5355	0.7533	0.68563	0.288
Mof_C 	C 	0.5217	0.826	0.73003	0.497
Mof_C 	C 	0.5729	0.7972	0.77793	0.374
Mof_C 	C 	0.7237	0.8455	0.78563	0.467
Mof_C 	C 	0.8211	0.9988	0.78643	0.305
Mof_F 	F 	0.5889	0.9515	0.72593	-0.436
Mof_F 	F 	0.3961	0.7832	0.73763	-0.436
Mof_F 	F 	0.5071	0.6636	0.78453	-0.395
Mof_F 	F 	0.5359	0.8524	0.81273	-0.36
Mof_F 	F 	0.7367	0.8012	0.82673	-0.39
Mof_F 	F 	0.7559	0.789	0.75283	-0.451
Mof_N 	N 	0.5672	0.3834	0.71083	-0.026
Mof_O 	O 	0.5045	0.2907	0.68823	-0.113
Mof_O 	O 	0.5842	0.4931	0.70173	-0.187
Mof_O 	O 	0.6372	0.8167	0.66361	-0.236
Mof_O 	O 	0.4461	0.6384	0.67873	-0.341
Mof_O 	O 	0.879	0.0476	0.7498	-0.27
Mof_O 	O 	0.8258	0.0587	0.82283	-0.275
Mof_Ag	Ag	0.26639	0.98013	0.27073	0.54
Mof_Ag	Ag	0.47186	0.25811	0.28284	0.626
Mof_Ag	Ag	0.49981	0.98726	0.28858	0.565
Mof_C 	C 	0.4512	0.0901	0.23477	-0.485
Mof_C 	C 	0.5109	0.1558	0.20157	0.148
Mof_C 	C 	0.589	0.2291	0.16274	-0.125
Mof_C 	C 	0.5528	0.3052	0.13617	0.099
Mof_H 	H 	0.4787	0.3108	0.14427	0.045
Mof_C 	C 	0.6274	0.3732	0.09747	-0.167
Mof_H 	H 	0.6031	0.4241	0.07967	0.179
Mof_C 	C 	0.7381	0.3649	0.08532	0.193
Mof_C 	C 	0.7743	0.2887	0.11197	-0.189
Mof_H 	H 	0.8483	0.2831	0.10377	0.185
Mof_C 	C 	0.6997	0.2208	0.15067	0.115
Mof_H 	H 	0.7239	0.1698	0.16847	0.03
Mof_C 	C 	0.2178	0.4645	0.01897	0.288
Mof_C 	C 	0.3043	0.4783	0.06337	0.497
Mof_C 	C 	0.2243	0.4271	0.11127	0.371
Mof_C 	C 	0.1218	0.2763	0.11897	0.473
Mof_C 	C 	0.1777	0.1789	0.11977	0.277
Mof_F 	F 	0.3626	0.4111	0.05927	-0.439
Mof_F 	F 	0.3871	0.6039	0.07097	-0.435
Mof_F 	F 	0.1565	0.4929	0.11787	-0.397
Mof_F 	F 	0.3165	0.4641	0.14607	-0.362
Mof_F 	F 	0.0645	0.2633	0.16007	-0.399
Mof_F 	F 	0.0331	0.2441	0.08617	-0.459
Mof_N 	N 	0.8162	0.4328	0.04417	-0.028
Mof_O 	O 	0.7862	0.4955	0.02157	-0.105
Mof_O 	O 	0.9089	0.4158	0.03507	-0.179
Mof_O 	O 	0.1795	0.3628	0.99695	-0.237
Mof_O 	O 	0.1923	0.5539	0.01207	-0.341
Mof_O 	O 	0.1686	0.121	0.08314	-0.257
Mof_O 	O 	0.2329	0.1742	0.15617	-0.267
Mof_Ag	Ag	0.72069	0.72069	0.5	0.531
Mof_Ag	Ag	0.27931	0	0.16667	0.51
Mof_Ag	Ag	3.3868e-17	0.27931	0.83333	0.51
_end
