data_functionalizedCrystal
_audit_creation_method	'EQeq! by Chris Wilmer'
_symmetry_space_group_name_H-M	'P1'
_symmetry_Int_Tables_number	1
_symmetry_cell_setting	triclinic
loop_
_symmetry_equiv_pos_as_xyz
  x,y,z
_cell_length_a	15.8546
_cell_length_b	22.0611
_cell_length_c	22.0611
_cell_angle_alpha	82.5812
_cell_angle_beta	68.9407
_cell_angle_gamma	68.9407
loop_
_atom_site_label
_atom_site_type_symbol
_atom_site_fract_x
_atom_site_fract_y
_atom_site_fract_z
_atom_site_charge
Mof_Ca	Ca	0.85256	0.07214	0.07214	1.165
Mof_Ca	Ca	0.09342	0.03628	0.03628	1.068
Mof_Ca	Ca	0.49684	0.42786	0.42786	1.166
Mof_Ca	Ca	0.66598	0.46372	0.46372	1.086
Mof_Ca	Ca	0.4247	0.92786	0.57214	1.166
Mof_Ca	Ca	0.6297	0.96372	0.53628	1.085
Mof_Ca	Ca	0.4247	0.57214	0.92786	1.166
Mof_Ca	Ca	0.6297	0.53628	0.96372	1.085
Mof_Ca	Ca	0.50316	0.57214	0.57214	1.166
Mof_Ca	Ca	0.33402	0.53628	0.53628	1.086
Mof_Ca	Ca	0.14744	0.92786	0.92786	1.164
Mof_Ca	Ca	0.90658	0.96372	0.96372	1.067
Mof_Ca	Ca	0.5753	0.07214	0.42786	1.166
Mof_Ca	Ca	0.3703	0.03628	0.46372	1.085
Mof_Ca	Ca	0.5753	0.42786	0.07214	1.166
Mof_Ca	Ca	0.3703	0.46372	0.03628	1.085
Mof_Ca	Ca	0.6863	0.1274	0.25	1.607
Mof_Ca	Ca	0.5637	0.3726	0.25	1.607
Mof_Ca	Ca	0.4363	0.75	0.6274	1.607
Mof_Ca	Ca	0.3137	0.75	0.8726	1.607
Mof_Ca	Ca	0.3137	0.8726	0.75	1.607
Mof_Ca	Ca	0.4363	0.6274	0.75	1.607
Mof_Ca	Ca	0.5637	0.25	0.3726	1.607
Mof_Ca	Ca	0.6863	0.25	0.1274	1.607
Mof_H 	H 	0.802	0.9859	0.2987	0.046
Mof_H 	H 	0.83056	0.03852	0.32056	0.04
Mof_H 	H 	0.98252	0.93385	0.40511	0.118
Mof_H 	H 	0.94127	0.00693	0.38573	0.107
Mof_H 	H 	0.10158	0.96	0.316	-0.05
Mof_H 	H 	0.9985	0.04213	0.26927	0.096
Mof_H 	H 	0.0753	0.99122	0.21578	0.104
Mof_H 	H 	0.03002	0.90508	0.18088	0.089
Mof_H 	H 	0.92497	0.90323	0.21303	0.086
Mof_H 	H 	0.868	0.8678	0.3294	0.104
Mof_H 	H 	0.9372	0.84796	0.37024	0.11
Mof_H 	H 	0.14035	0.87415	0.24635	0.123
Mof_H 	H 	0.1051	0.85201	0.31899	0.123
Mof_H 	H 	0.02845	0.82195	0.25995	-0.054
Mof_H 	H 	0.5866	0.5141	0.2013	0.046
Mof_H 	H 	0.68964	0.46148	0.17944	0.041
Mof_H 	H 	0.82148	0.56615	0.09489	0.12
Mof_H 	H 	0.83393	0.49307	0.11427	0.108
Mof_H 	H 	0.87758	0.54	0.184	-0.051
Mof_H 	H 	0.8099	0.45787	0.23073	0.099
Mof_H 	H 	0.7823	0.50878	0.28422	0.104
Mof_H 	H 	0.61598	0.59492	0.31912	0.087
Mof_H 	H 	0.54123	0.59677	0.28697	0.084
Mof_H 	H 	0.5652	0.6322	0.1706	0.104
Mof_H 	H 	0.6554	0.65204	0.12976	0.111
Mof_H 	H 	0.76085	0.62585	0.25365	0.123
Mof_H 	H 	0.7761	0.64799	0.18101	0.123
Mof_H 	H 	0.61035	0.67805	0.24005	-0.053
Mof_H 	H 	0.6007	0.7013	0.4859	0.046
Mof_H 	H 	0.65112	0.67944	0.53852	0.041
Mof_H 	H 	0.88763	0.59489	0.43385	0.119
Mof_H 	H 	0.827	0.61427	0.50693	0.107
Mof_H 	H 	0.91758	0.684	0.46	-0.051
Mof_H 	H 	0.76777	0.73073	0.54213	0.099
Mof_H 	H 	0.79108	0.78422	0.49122	0.104
Mof_H 	H 	0.7109	0.81912	0.40508	0.087
Mof_H 	H 	0.638	0.78697	0.40323	0.084
Mof_H 	H 	0.6974	0.6706	0.3678	0.104
Mof_H 	H 	0.80744	0.62976	0.34796	0.11
Mof_H 	H 	0.8867	0.75365	0.37415	0.123
Mof_H 	H 	0.92409	0.68101	0.35201	0.123
Mof_H 	H 	0.7884	0.74005	0.32195	-0.053
Mof_H 	H 	0.2879	0.7987	0.0141	0.042
Mof_H 	H 	0.36908	0.82056	0.96148	0.034
Mof_H 	H 	0.41637	0.90511	0.06615	0.114
Mof_H 	H 	0.4482	0.88573	0.99307	0.097
Mof_H 	H 	0.56158	0.816	0.04	-0.044
Mof_H 	H 	0.54063	0.76927	0.95787	0.091
Mof_H 	H 	0.56652	0.71578	0.00878	0.099
Mof_H 	H 	0.4351	0.68088	0.09492	0.085
Mof_H 	H 	0.3282	0.71303	0.09677	0.082
Mof_H 	H 	0.2358	0.8294	0.1322	0.101
Mof_H 	H 	0.28516	0.87024	0.15204	0.108
Mof_H 	H 	0.5145	0.74635	0.12585	0.12
Mof_H 	H 	0.45711	0.81899	0.14799	0.12
Mof_H 	H 	0.3504	0.75995	0.17805	-0.051
Mof_H 	H 	0.4134	0.7987	0.4859	0.046
Mof_H 	H 	0.31036	0.82056	0.53852	0.041
Mof_H 	H 	0.17852	0.90511	0.43385	0.12
Mof_H 	H 	0.16607	0.88573	0.50693	0.108
Mof_H 	H 	0.12242	0.816	0.46	-0.051
Mof_H 	H 	0.1901	0.76927	0.54213	0.099
Mof_H 	H 	0.2177	0.71578	0.49122	0.104
Mof_H 	H 	0.38402	0.68088	0.40508	0.087
Mof_H 	H 	0.45877	0.71303	0.40323	0.084
Mof_H 	H 	0.4348	0.8294	0.3678	0.104
Mof_H 	H 	0.3446	0.87024	0.34796	0.111
Mof_H 	H 	0.23915	0.74635	0.37415	0.123
Mof_H 	H 	0.2239	0.81899	0.35201	0.123
Mof_H 	H 	0.38965	0.75995	0.32195	-0.053
Mof_H 	H 	0.198	0.7013	0.0141	0.046
Mof_H 	H 	0.16944	0.67944	0.96148	0.04
Mof_H 	H 	0.01748	0.59489	0.06615	0.118
Mof_H 	H 	0.05873	0.61427	0.99307	0.107
Mof_H 	H 	0.89842	0.684	0.04	-0.05
Mof_H 	H 	0.0015	0.73073	0.95787	0.096
Mof_H 	H 	0.9247	0.78422	0.00878	0.104
Mof_H 	H 	0.96998	0.81912	0.09492	0.089
Mof_H 	H 	0.07503	0.78697	0.09677	0.086
Mof_H 	H 	0.132	0.6706	0.1322	0.104
Mof_H 	H 	0.0628	0.62976	0.15204	0.11
Mof_H 	H 	0.85965	0.75365	0.12585	0.123
Mof_H 	H 	0.8949	0.68101	0.14799	0.123
Mof_H 	H 	0.97155	0.74005	0.17805	-0.054
Mof_H 	H 	0.7121	0.9859	0.2013	0.042
Mof_H 	H 	0.63092	0.03852	0.17944	0.034
Mof_H 	H 	0.58363	0.93385	0.09489	0.114
Mof_H 	H 	0.5518	0.00693	0.11427	0.097
Mof_H 	H 	0.43842	0.96	0.184	-0.044
Mof_H 	H 	0.45937	0.04213	0.23073	0.091
Mof_H 	H 	0.43348	0.99122	0.28422	0.099
Mof_H 	H 	0.5649	0.90508	0.31912	0.085
Mof_H 	H 	0.6718	0.90323	0.28697	0.082
Mof_H 	H 	0.7642	0.8678	0.1706	0.101
Mof_H 	H 	0.71484	0.84796	0.12976	0.108
Mof_H 	H 	0.4855	0.87415	0.25365	0.12
Mof_H 	H 	0.54289	0.85201	0.18101	0.12
Mof_H 	H 	0.6496	0.82195	0.24005	-0.051
Mof_H 	H 	0.3993	0.5141	0.2987	0.046
Mof_H 	H 	0.34888	0.46148	0.32056	0.041
Mof_H 	H 	0.11237	0.56615	0.40511	0.119
Mof_H 	H 	0.173	0.49307	0.38573	0.107
Mof_H 	H 	0.08242	0.54	0.316	-0.051
Mof_H 	H 	0.23223	0.45787	0.26927	0.099
Mof_H 	H 	0.20892	0.50878	0.21578	0.104
Mof_H 	H 	0.2891	0.59492	0.18088	0.087
Mof_H 	H 	0.362	0.59677	0.21303	0.084
Mof_H 	H 	0.3026	0.6322	0.3294	0.104
Mof_H 	H 	0.19256	0.65204	0.37024	0.11
Mof_H 	H 	0.1133	0.62585	0.24635	0.123
Mof_H 	H 	0.07591	0.64799	0.31899	0.123
Mof_H 	H 	0.2116	0.67805	0.25995	-0.053
Mof_H 	H 	0.198	0.0141	0.7013	0.046
Mof_H 	H 	0.16944	0.96148	0.67944	0.04
Mof_H 	H 	0.01748	0.06615	0.59489	0.118
Mof_H 	H 	0.05873	0.99307	0.61427	0.107
Mof_H 	H 	0.89842	0.04	0.684	-0.05
Mof_H 	H 	0.0015	0.95787	0.73073	0.096
Mof_H 	H 	0.9247	0.00878	0.78422	0.104
Mof_H 	H 	0.96998	0.09492	0.81912	0.089
Mof_H 	H 	0.07503	0.09677	0.78697	0.086
Mof_H 	H 	0.132	0.1322	0.6706	0.104
Mof_H 	H 	0.0628	0.15204	0.62976	0.11
Mof_H 	H 	0.85965	0.12585	0.75365	0.123
Mof_H 	H 	0.8949	0.14799	0.68101	0.123
Mof_H 	H 	0.97155	0.17805	0.74005	-0.054
Mof_H 	H 	0.4134	0.4859	0.7987	0.046
Mof_H 	H 	0.31036	0.53852	0.82056	0.041
Mof_H 	H 	0.17852	0.43385	0.90511	0.12
Mof_H 	H 	0.16607	0.50693	0.88573	0.108
Mof_H 	H 	0.12242	0.46	0.816	-0.051
Mof_H 	H 	0.1901	0.54213	0.76927	0.099
Mof_H 	H 	0.2177	0.49122	0.71578	0.104
Mof_H 	H 	0.38402	0.40508	0.68088	0.087
Mof_H 	H 	0.45877	0.40323	0.71303	0.084
Mof_H 	H 	0.4348	0.3678	0.8294	0.104
Mof_H 	H 	0.3446	0.34796	0.87024	0.111
Mof_H 	H 	0.23915	0.37415	0.74635	0.123
Mof_H 	H 	0.2239	0.35201	0.81899	0.123
Mof_H 	H 	0.38965	0.32195	0.75995	-0.053
Mof_H 	H 	0.3993	0.2987	0.5141	0.046
Mof_H 	H 	0.34888	0.32056	0.46148	0.041
Mof_H 	H 	0.11237	0.40511	0.56615	0.119
Mof_H 	H 	0.173	0.38573	0.49307	0.107
Mof_H 	H 	0.08242	0.316	0.54	-0.051
Mof_H 	H 	0.23223	0.26927	0.45787	0.099
Mof_H 	H 	0.20892	0.21578	0.50878	0.104
Mof_H 	H 	0.2891	0.18088	0.59492	0.087
Mof_H 	H 	0.362	0.21303	0.59677	0.084
Mof_H 	H 	0.3026	0.3294	0.6322	0.104
Mof_H 	H 	0.19256	0.37024	0.65204	0.11
Mof_H 	H 	0.1133	0.24635	0.62585	0.123
Mof_H 	H 	0.07591	0.31899	0.64799	0.123
Mof_H 	H 	0.2116	0.25995	0.67805	-0.053
Mof_H 	H 	0.7121	0.2013	0.9859	0.042
Mof_H 	H 	0.63092	0.17944	0.03852	0.034
Mof_H 	H 	0.58363	0.09489	0.93385	0.114
Mof_H 	H 	0.5518	0.11427	0.00693	0.097
Mof_H 	H 	0.43842	0.184	0.96	-0.044
Mof_H 	H 	0.45937	0.23073	0.04213	0.091
Mof_H 	H 	0.43348	0.28422	0.99122	0.099
Mof_H 	H 	0.5649	0.31912	0.90508	0.085
Mof_H 	H 	0.6718	0.28697	0.90323	0.082
Mof_H 	H 	0.7642	0.1706	0.8678	0.101
Mof_H 	H 	0.71484	0.12976	0.84796	0.108
Mof_H 	H 	0.4855	0.25365	0.87415	0.12
Mof_H 	H 	0.54289	0.18101	0.85201	0.12
Mof_H 	H 	0.6496	0.24005	0.82195	-0.051
Mof_H 	H 	0.5866	0.2013	0.5141	0.046
Mof_H 	H 	0.68964	0.17944	0.46148	0.041
Mof_H 	H 	0.82148	0.09489	0.56615	0.12
Mof_H 	H 	0.83393	0.11427	0.49307	0.108
Mof_H 	H 	0.87758	0.184	0.54	-0.051
Mof_H 	H 	0.8099	0.23073	0.45787	0.099
Mof_H 	H 	0.7823	0.28422	0.50878	0.104
Mof_H 	H 	0.61598	0.31912	0.59492	0.087
Mof_H 	H 	0.54123	0.28697	0.59677	0.084
Mof_H 	H 	0.5652	0.1706	0.6322	0.104
Mof_H 	H 	0.6554	0.12976	0.65204	0.111
Mof_H 	H 	0.76085	0.25365	0.62585	0.123
Mof_H 	H 	0.7761	0.18101	0.64799	0.123
Mof_H 	H 	0.61035	0.24005	0.67805	-0.053
Mof_H 	H 	0.802	0.2987	0.9859	0.046
Mof_H 	H 	0.83056	0.32056	0.03852	0.04
Mof_H 	H 	0.98252	0.40511	0.93385	0.118
Mof_H 	H 	0.94127	0.38573	0.00693	0.107
Mof_H 	H 	0.10158	0.316	0.96	-0.05
Mof_H 	H 	0.9985	0.26927	0.04213	0.096
Mof_H 	H 	0.0753	0.21578	0.99122	0.104
Mof_H 	H 	0.03002	0.18088	0.90508	0.089
Mof_H 	H 	0.92497	0.21303	0.90323	0.086
Mof_H 	H 	0.868	0.3294	0.8678	0.104
Mof_H 	H 	0.9372	0.37024	0.84796	0.11
Mof_H 	H 	0.14035	0.24635	0.87415	0.123
Mof_H 	H 	0.1051	0.31899	0.85201	0.123
Mof_H 	H 	0.02845	0.25995	0.82195	-0.054
Mof_H 	H 	0.2879	0.0141	0.7987	0.042
Mof_H 	H 	0.36908	0.96148	0.82056	0.034
Mof_H 	H 	0.41637	0.06615	0.90511	0.114
Mof_H 	H 	0.4482	0.99307	0.88573	0.097
Mof_H 	H 	0.56158	0.04	0.816	-0.044
Mof_H 	H 	0.54063	0.95787	0.76927	0.091
Mof_H 	H 	0.56652	0.00878	0.71578	0.099
Mof_H 	H 	0.4351	0.09492	0.68088	0.085
Mof_H 	H 	0.3282	0.09677	0.71303	0.082
Mof_H 	H 	0.2358	0.1322	0.8294	0.101
Mof_H 	H 	0.28516	0.15204	0.87024	0.108
Mof_H 	H 	0.5145	0.12585	0.74635	0.12
Mof_H 	H 	0.45711	0.14799	0.81899	0.12
Mof_H 	H 	0.3504	0.17805	0.75995	-0.051
Mof_H 	H 	0.6007	0.4859	0.7013	0.046
Mof_H 	H 	0.65112	0.53852	0.67944	0.041
Mof_H 	H 	0.88763	0.43385	0.59489	0.119
Mof_H 	H 	0.827	0.50693	0.61427	0.107
Mof_H 	H 	0.91758	0.46	0.684	-0.051
Mof_H 	H 	0.76777	0.54213	0.73073	0.099
Mof_H 	H 	0.79108	0.49122	0.78422	0.104
Mof_H 	H 	0.7109	0.40508	0.81912	0.087
Mof_H 	H 	0.638	0.40323	0.78697	0.084
Mof_H 	H 	0.6974	0.3678	0.6706	0.104
Mof_H 	H 	0.80744	0.34796	0.62976	0.11
Mof_H 	H 	0.8867	0.37415	0.75365	0.123
Mof_H 	H 	0.92409	0.35201	0.68101	0.123
Mof_H 	H 	0.7884	0.32195	0.74005	-0.053
Mof_C 	C 	0.93964	0.9838	0.24292	0.038
Mof_C 	C 	0.85369	0.99389	0.30633	-0.165
Mof_C 	C 	0.88201	0.94812	0.35946	0.093
Mof_C 	C 	0.96362	0.96234	0.37142	-0.295
Mof_C 	C 	0.04983	0.95134	0.30824	0.216
Mof_C 	C 	0.02052	0.9975	0.25546	-0.263
Mof_C 	C 	0.97555	0.91231	0.22099	-0.263
Mof_C 	C 	0.91866	0.8772	0.33688	-0.293
Mof_C 	C 	0.08527	0.88124	0.28602	-0.356
Mof_C 	C 	0.00507	0.86712	0.27414	0.214
Mof_C 	C 	0.9091	0.02664	0.18996	0.317
Mof_C 	C 	0.7962	0.95868	0.42132	0.252
Mof_C 	C 	0.66636	0.5162	0.25708	0.037
Mof_C 	C 	0.65391	0.50611	0.19367	-0.168
Mof_C 	C 	0.68959	0.55188	0.14054	0.094
Mof_C 	C 	0.79738	0.53766	0.12858	-0.297
Mof_C 	C 	0.80941	0.54866	0.19176	0.217
Mof_C 	C 	0.77348	0.5025	0.24454	-0.269
Mof_C 	C 	0.60885	0.58769	0.27901	-0.26
Mof_C 	C 	0.63274	0.6228	0.16312	-0.292
Mof_C 	C 	0.75253	0.61876	0.21398	-0.356
Mof_C 	C 	0.64633	0.63288	0.22586	0.214
Mof_C 	C 	0.6257	0.47336	0.31004	0.32
Mof_C 	C 	0.6762	0.54132	0.07868	0.252
Mof_C 	C 	0.68256	0.75708	0.4838	0.037
Mof_C 	C 	0.66002	0.69367	0.49389	-0.168
Mof_C 	C 	0.74147	0.64054	0.44812	0.094
Mof_C 	C 	0.83504	0.62858	0.46234	-0.296
Mof_C 	C 	0.85807	0.69176	0.45134	0.217
Mof_C 	C 	0.77598	0.74454	0.4975	-0.269
Mof_C 	C 	0.69654	0.77901	0.41231	-0.26
Mof_C 	C 	0.75554	0.66312	0.3772	-0.292
Mof_C 	C 	0.87129	0.71398	0.38124	-0.356
Mof_C 	C 	0.77921	0.72586	0.36712	0.213
Mof_C 	C 	0.59906	0.81004	0.52664	0.32
Mof_C 	C 	0.71752	0.57868	0.45868	0.252
Mof_C 	C 	0.42344	0.74292	0.0162	0.029
Mof_C 	C 	0.34758	0.80633	0.00611	-0.151
Mof_C 	C 	0.33013	0.85946	0.05188	0.083
Mof_C 	C 	0.42596	0.87142	0.03766	-0.274
Mof_C 	C 	0.50117	0.80824	0.04866	0.201
Mof_C 	C 	0.51802	0.75546	0.0025	-0.25
Mof_C 	C 	0.38786	0.72099	0.08769	-0.253
Mof_C 	C 	0.29586	0.83688	0.1228	-0.283
Mof_C 	C 	0.46651	0.78602	0.11876	-0.345
Mof_C 	C 	0.37219	0.77414	0.13288	0.205
Mof_C 	C 	0.43574	0.68996	0.97336	0.32
Mof_C 	C 	0.25488	0.92132	0.04132	0.256
Mof_C 	C 	0.33364	0.74292	0.4838	0.037
Mof_C 	C 	0.34609	0.80633	0.49389	-0.168
Mof_C 	C 	0.31041	0.85946	0.44812	0.094
Mof_C 	C 	0.20262	0.87142	0.46234	-0.297
Mof_C 	C 	0.19059	0.80824	0.45134	0.217
Mof_C 	C 	0.22652	0.75546	0.4975	-0.269
Mof_C 	C 	0.39115	0.72099	0.41231	-0.26
Mof_C 	C 	0.36726	0.83688	0.3772	-0.292
Mof_C 	C 	0.24747	0.78602	0.38124	-0.356
Mof_C 	C 	0.35367	0.77414	0.36712	0.214
Mof_C 	C 	0.3743	0.68996	0.52664	0.32
Mof_C 	C 	0.3238	0.92132	0.45868	0.252
Mof_C 	C 	0.06036	0.75708	0.0162	0.038
Mof_C 	C 	0.14631	0.69367	0.00611	-0.165
Mof_C 	C 	0.11799	0.64054	0.05188	0.093
Mof_C 	C 	0.03638	0.62858	0.03766	-0.295
Mof_C 	C 	0.95017	0.69176	0.04866	0.216
Mof_C 	C 	0.97948	0.74454	0.0025	-0.263
Mof_C 	C 	0.02445	0.77901	0.08769	-0.263
Mof_C 	C 	0.08134	0.66312	0.1228	-0.293
Mof_C 	C 	0.91473	0.71398	0.11876	-0.356
Mof_C 	C 	0.99493	0.72586	0.13288	0.214
Mof_C 	C 	0.0909	0.81004	0.97336	0.317
Mof_C 	C 	0.2038	0.57868	0.04132	0.252
Mof_C 	C 	0.57656	0.9838	0.25708	0.029
Mof_C 	C 	0.65242	0.99389	0.19367	-0.151
Mof_C 	C 	0.66987	0.94812	0.14054	0.083
Mof_C 	C 	0.57404	0.96234	0.12858	-0.274
Mof_C 	C 	0.49883	0.95134	0.19176	0.201
Mof_C 	C 	0.48198	0.9975	0.24454	-0.25
Mof_C 	C 	0.61214	0.91231	0.27901	-0.253
Mof_C 	C 	0.70414	0.8772	0.16312	-0.283
Mof_C 	C 	0.53349	0.88124	0.21398	-0.345
Mof_C 	C 	0.62781	0.86712	0.22586	0.205
Mof_C 	C 	0.56426	0.02664	0.31004	0.32
Mof_C 	C 	0.74512	0.95868	0.07868	0.256
Mof_C 	C 	0.31744	0.5162	0.24292	0.037
Mof_C 	C 	0.33998	0.50611	0.30633	-0.168
Mof_C 	C 	0.25853	0.55188	0.35946	0.094
Mof_C 	C 	0.16496	0.53766	0.37142	-0.296
Mof_C 	C 	0.14193	0.54866	0.30824	0.217
Mof_C 	C 	0.22402	0.5025	0.25546	-0.269
Mof_C 	C 	0.30346	0.58769	0.22099	-0.26
Mof_C 	C 	0.24446	0.6228	0.33688	-0.292
Mof_C 	C 	0.12871	0.61876	0.28602	-0.356
Mof_C 	C 	0.22079	0.63288	0.27414	0.213
Mof_C 	C 	0.40094	0.47336	0.18996	0.32
Mof_C 	C 	0.28248	0.54132	0.42132	0.252
Mof_C 	C 	0.06036	0.0162	0.75708	0.038
Mof_C 	C 	0.14631	0.00611	0.69367	-0.165
Mof_C 	C 	0.11799	0.05188	0.64054	0.093
Mof_C 	C 	0.03638	0.03766	0.62858	-0.295
Mof_C 	C 	0.95017	0.04866	0.69176	0.216
Mof_C 	C 	0.97948	0.0025	0.74454	-0.263
Mof_C 	C 	0.02445	0.08769	0.77901	-0.263
Mof_C 	C 	0.08134	0.1228	0.66312	-0.293
Mof_C 	C 	0.91473	0.11876	0.71398	-0.356
Mof_C 	C 	0.99493	0.13288	0.72586	0.214
Mof_C 	C 	0.0909	0.97336	0.81004	0.317
Mof_C 	C 	0.2038	0.04132	0.57868	0.252
Mof_C 	C 	0.33364	0.4838	0.74292	0.037
Mof_C 	C 	0.34609	0.49389	0.80633	-0.168
Mof_C 	C 	0.31041	0.44812	0.85946	0.094
Mof_C 	C 	0.20262	0.46234	0.87142	-0.297
Mof_C 	C 	0.19059	0.45134	0.80824	0.217
Mof_C 	C 	0.22652	0.4975	0.75546	-0.269
Mof_C 	C 	0.39115	0.41231	0.72099	-0.26
Mof_C 	C 	0.36726	0.3772	0.83688	-0.292
Mof_C 	C 	0.24747	0.38124	0.78602	-0.356
Mof_C 	C 	0.35367	0.36712	0.77414	0.214
Mof_C 	C 	0.3743	0.52664	0.68996	0.32
Mof_C 	C 	0.3238	0.45868	0.92132	0.252
Mof_C 	C 	0.31744	0.24292	0.5162	0.037
Mof_C 	C 	0.33998	0.30633	0.50611	-0.168
Mof_C 	C 	0.25853	0.35946	0.55188	0.094
Mof_C 	C 	0.16496	0.37142	0.53766	-0.296
Mof_C 	C 	0.14193	0.30824	0.54866	0.217
Mof_C 	C 	0.22402	0.25546	0.5025	-0.269
Mof_C 	C 	0.30346	0.22099	0.58769	-0.26
Mof_C 	C 	0.24446	0.33688	0.6228	-0.292
Mof_C 	C 	0.12871	0.28602	0.61876	-0.356
Mof_C 	C 	0.22079	0.27414	0.63288	0.213
Mof_C 	C 	0.40094	0.18996	0.47336	0.32
Mof_C 	C 	0.28248	0.42132	0.54132	0.252
Mof_C 	C 	0.57656	0.25708	0.9838	0.029
Mof_C 	C 	0.65242	0.19367	0.99389	-0.151
Mof_C 	C 	0.66987	0.14054	0.94812	0.083
Mof_C 	C 	0.57404	0.12858	0.96234	-0.274
Mof_C 	C 	0.49883	0.19176	0.95134	0.201
Mof_C 	C 	0.48198	0.24454	0.9975	-0.25
Mof_C 	C 	0.61214	0.27901	0.91231	-0.253
Mof_C 	C 	0.70414	0.16312	0.8772	-0.283
Mof_C 	C 	0.53349	0.21398	0.88124	-0.345
Mof_C 	C 	0.62781	0.22586	0.86712	0.205
Mof_C 	C 	0.56426	0.31004	0.02664	0.32
Mof_C 	C 	0.74512	0.07868	0.95868	0.256
Mof_C 	C 	0.66636	0.25708	0.5162	0.037
Mof_C 	C 	0.65391	0.19367	0.50611	-0.168
Mof_C 	C 	0.68959	0.14054	0.55188	0.094
Mof_C 	C 	0.79738	0.12858	0.53766	-0.297
Mof_C 	C 	0.80941	0.19176	0.54866	0.217
Mof_C 	C 	0.77348	0.24454	0.5025	-0.269
Mof_C 	C 	0.60885	0.27901	0.58769	-0.26
Mof_C 	C 	0.63274	0.16312	0.6228	-0.292
Mof_C 	C 	0.75253	0.21398	0.61876	-0.356
Mof_C 	C 	0.64633	0.22586	0.63288	0.214
Mof_C 	C 	0.6257	0.31004	0.47336	0.32
Mof_C 	C 	0.6762	0.07868	0.54132	0.252
Mof_C 	C 	0.93964	0.24292	0.9838	0.038
Mof_C 	C 	0.85369	0.30633	0.99389	-0.165
Mof_C 	C 	0.88201	0.35946	0.94812	0.093
Mof_C 	C 	0.96362	0.37142	0.96234	-0.295
Mof_C 	C 	0.04983	0.30824	0.95134	0.216
Mof_C 	C 	0.02052	0.25546	0.9975	-0.263
Mof_C 	C 	0.97555	0.22099	0.91231	-0.263
Mof_C 	C 	0.91866	0.33688	0.8772	-0.293
Mof_C 	C 	0.08527	0.28602	0.88124	-0.356
Mof_C 	C 	0.00507	0.27414	0.86712	0.214
Mof_C 	C 	0.9091	0.18996	0.02664	0.317
Mof_C 	C 	0.7962	0.42132	0.95868	0.252
Mof_C 	C 	0.42344	0.0162	0.74292	0.029
Mof_C 	C 	0.34758	0.00611	0.80633	-0.151
Mof_C 	C 	0.33013	0.05188	0.85946	0.083
Mof_C 	C 	0.42596	0.03766	0.87142	-0.274
Mof_C 	C 	0.50117	0.04866	0.80824	0.201
Mof_C 	C 	0.51802	0.0025	0.75546	-0.25
Mof_C 	C 	0.38786	0.08769	0.72099	-0.253
Mof_C 	C 	0.29586	0.1228	0.83688	-0.283
Mof_C 	C 	0.46651	0.11876	0.78602	-0.345
Mof_C 	C 	0.37219	0.13288	0.77414	0.205
Mof_C 	C 	0.43574	0.97336	0.68996	0.32
Mof_C 	C 	0.25488	0.04132	0.92132	0.256
Mof_C 	C 	0.68256	0.4838	0.75708	0.037
Mof_C 	C 	0.66002	0.49389	0.69367	-0.168
Mof_C 	C 	0.74147	0.44812	0.64054	0.094
Mof_C 	C 	0.83504	0.46234	0.62858	-0.296
Mof_C 	C 	0.85807	0.45134	0.69176	0.217
Mof_C 	C 	0.77598	0.4975	0.74454	-0.269
Mof_C 	C 	0.69654	0.41231	0.77901	-0.26
Mof_C 	C 	0.75554	0.3772	0.66312	-0.292
Mof_C 	C 	0.87129	0.38124	0.71398	-0.356
Mof_C 	C 	0.77921	0.36712	0.72586	0.213
Mof_C 	C 	0.59906	0.52664	0.81004	0.32
Mof_C 	C 	0.71752	0.45868	0.57868	0.252
Mof_C 	C 	0.50923	0.25	0.25	0.917
Mof_C 	C 	0.25923	0.75	0.75	0.917
Mof_C 	C 	0.49077	0.75	0.75	0.917
Mof_C 	C 	0.74077	0.25	0.25	0.917
Mof_O 	O 	0.9774	0.0273	0.1317	-0.494
Mof_O 	O 	0.8306	0.0693	0.1895	-0.566
Mof_O 	O 	0.7158	0.9799	0.4139	-0.49
Mof_O 	O 	0.806	0.9295	0.4765	-0.335
Mof_O 	O 	0.6364	0.4727	0.3683	-0.496
Mof_O 	O 	0.5894	0.4307	0.3105	-0.566
Mof_O 	O 	0.6096	0.5201	0.0861	-0.49
Mof_O 	O 	0.712	0.5705	0.0235	-0.334
Mof_O 	O 	0.6091	0.8683	0.5273	-0.496
Mof_O 	O 	0.5201	0.8105	0.5693	-0.566
Mof_O 	O 	0.6297	0.5861	0.4799	-0.49
Mof_O 	O 	0.7825	0.5235	0.4295	-0.335
Mof_O 	O 	0.5047	0.6317	0.9727	-0.497
Mof_O 	O 	0.3999	0.6895	0.9307	-0.567
Mof_O 	O 	0.1957	0.9139	0.0201	-0.486
Mof_O 	O 	0.2355	0.9765	0.0705	-0.331
Mof_O 	O 	0.3636	0.6317	0.5273	-0.496
Mof_O 	O 	0.4106	0.6895	0.5693	-0.566
Mof_O 	O 	0.3904	0.9139	0.4799	-0.49
Mof_O 	O 	0.288	0.9765	0.4295	-0.334
Mof_O 	O 	0.0226	0.8683	0.9727	-0.494
Mof_O 	O 	0.1694	0.8105	0.9307	-0.566
Mof_O 	O 	0.2842	0.5861	0.0201	-0.49
Mof_O 	O 	0.194	0.5235	0.0705	-0.335
Mof_O 	O 	0.4953	0.0273	0.3683	-0.497
Mof_O 	O 	0.6001	0.0693	0.3105	-0.567
Mof_O 	O 	0.8043	0.9799	0.0861	-0.486
Mof_O 	O 	0.7645	0.9295	0.0235	-0.331
Mof_O 	O 	0.3909	0.4727	0.1317	-0.496
Mof_O 	O 	0.4799	0.4307	0.1895	-0.566
Mof_O 	O 	0.3703	0.5201	0.4139	-0.49
Mof_O 	O 	0.2175	0.5705	0.4765	-0.335
Mof_O 	O 	0.0226	0.9727	0.8683	-0.494
Mof_O 	O 	0.1694	0.9307	0.8105	-0.566
Mof_O 	O 	0.2842	0.0201	0.5861	-0.49
Mof_O 	O 	0.194	0.0705	0.5235	-0.335
Mof_O 	O 	0.3636	0.5273	0.6317	-0.496
Mof_O 	O 	0.4106	0.5693	0.6895	-0.566
Mof_O 	O 	0.3904	0.4799	0.9139	-0.49
Mof_O 	O 	0.288	0.4295	0.9765	-0.334
Mof_O 	O 	0.3909	0.1317	0.4727	-0.496
Mof_O 	O 	0.4799	0.1895	0.4307	-0.566
Mof_O 	O 	0.3703	0.4139	0.5201	-0.49
Mof_O 	O 	0.2175	0.4765	0.5705	-0.335
Mof_O 	O 	0.4953	0.3683	0.0273	-0.497
Mof_O 	O 	0.6001	0.3105	0.0693	-0.567
Mof_O 	O 	0.8043	0.0861	0.9799	-0.486
Mof_O 	O 	0.7645	0.0235	0.9295	-0.331
Mof_O 	O 	0.6364	0.3683	0.4727	-0.496
Mof_O 	O 	0.5894	0.3105	0.4307	-0.566
Mof_O 	O 	0.6096	0.0861	0.5201	-0.49
Mof_O 	O 	0.712	0.0235	0.5705	-0.334
Mof_O 	O 	0.9774	0.1317	0.0273	-0.494
Mof_O 	O 	0.8306	0.1895	0.0693	-0.566
Mof_O 	O 	0.7158	0.4139	0.9799	-0.49
Mof_O 	O 	0.806	0.4765	0.9295	-0.335
Mof_O 	O 	0.5047	0.9727	0.6317	-0.497
Mof_O 	O 	0.3999	0.9307	0.6895	-0.567
Mof_O 	O 	0.1957	0.0201	0.9139	-0.486
Mof_O 	O 	0.2355	0.0705	0.9765	-0.331
Mof_O 	O 	0.6091	0.5273	0.8683	-0.496
Mof_O 	O 	0.5201	0.5693	0.8105	-0.566
Mof_O 	O 	0.6297	0.4799	0.5861	-0.49
Mof_O 	O 	0.7825	0.4295	0.5235	-0.335
Mof_O 	O 	0.6972	0.14	0.14	-0.57
Mof_O 	O 	0.4772	0.36	0.36	-0.57
Mof_O 	O 	0.3372	0.86	0.64	-0.57
Mof_O 	O 	0.3372	0.64	0.86	-0.57
Mof_O 	O 	0.5228	0.64	0.64	-0.57
Mof_O 	O 	0.3028	0.86	0.86	-0.57
Mof_O 	O 	0.6628	0.14	0.36	-0.57
Mof_O 	O 	0.6628	0.36	0.14	-0.57
Mof_O 	O 	0.43354	0.25	0.25	-0.483
Mof_O 	O 	0.18354	0.75	0.75	-0.483
Mof_O 	O 	0.56646	0.75	0.75	-0.483
Mof_O 	O 	0.81646	0.25	0.25	-0.483
Mof_O 	O 	0.54707	0.21431	0.28569	-0.804
Mof_O 	O 	0.54707	0.28569	0.21431	-0.804
Mof_O 	O 	0.33276	0.71431	0.71431	-0.804
Mof_O 	O 	0.26138	0.78569	0.78569	-0.804
Mof_O 	O 	0.45293	0.78569	0.71431	-0.804
Mof_O 	O 	0.45293	0.71431	0.78569	-0.804
Mof_O 	O 	0.73862	0.21431	0.21431	-0.804
Mof_O 	O 	0.66724	0.28569	0.28569	-0.804
_end
