data_functionalizedCrystal
_audit_creation_method	'EQeq! by Chris Wilmer'
_symmetry_space_group_name_H-M	'P1'
_symmetry_Int_Tables_number	1
_symmetry_cell_setting	triclinic
loop_
_symmetry_equiv_pos_as_xyz
  x,y,z
_cell_length_a	15.54
_cell_length_b	15.54
_cell_length_c	18.679
_cell_angle_alpha	90
_cell_angle_beta	90
_cell_angle_gamma	120
loop_
_atom_site_label
_atom_site_type_symbol
_atom_site_fract_x
_atom_site_fract_y
_atom_site_fract_z
_atom_site_charge
Mof_Ni	Ni	0.17468	0.17468	0.16667	1.075
Mof_Ni	Ni	-6.25949e-18	0.82532	0.83333	1.071
Mof_Ni	Ni	0.82532	0	0.5	1.071
Mof_H 	H 	0.4946	0.9355	0.5948	0.095
Mof_H 	H 	0.1887	0.8402	0.776	0.04
Mof_H 	H 	0.4954	0.5409	0.61333	0.113
Mof_H 	H 	0.1401	0.0318	0.414	0.088
Mof_H 	H 	0.3485	0.1598	0.224	0.041
Mof_H 	H 	0.3622	0.2895	0.07677	0.018
Mof_H 	H 	0.7078	0.5986	0.98957	0.109
Mof_H 	H 	0.5409	0.4954	0.72	0.113
Mof_H 	H 	0.1083	0.9682	0.586	0.096
Mof_H 	H 	0.9073	0.0063	0.64973	0.005
Mof_H 	H 	0.0727	0.7105	0.92323	0.02
Mof_H 	H 	0.0927	0.099	0.01693	0.004
Mof_H 	H 	0.0063	0.9073	0.6836	0.005
Mof_H 	H 	0.2895	0.3622	0.25657	0.018
Mof_H 	H 	0.1092	0.4014	0.01043	0.106
Mof_H 	H 	0.8917	0.8599	0.08067	0.102
Mof_H 	H 	0.9273	0.6378	0.74343	0.019
Mof_H 	H 	0.4591	0.9545	0.94667	0.107
Mof_H 	H 	0.9682	0.1083	0.74733	0.096
Mof_H 	H 	0.7105	0.0727	0.4101	0.02
Mof_H 	H 	0.0455	0.5046	0.28	0.125
Mof_H 	H 	0.099	0.0927	0.3164	0.005
Mof_H 	H 	0.8113	0.6515	0.89067	0.042
Mof_H 	H 	0.2922	0.8908	0.6771	0.108
Mof_H 	H 	0.1598	0.3485	0.10933	0.041
Mof_H 	H 	0.8599	0.8917	0.25267	0.103
Mof_H 	H 	0.5054	0.4409	0.07187	0.103
Mof_H 	H 	0.5986	0.7078	0.34377	0.108
Mof_H 	H 	0.9937	0.901	0.98307	0.027
Mof_H 	H 	0.4409	0.5054	0.26147	0.103
Mof_H 	H 	0.901	0.9937	0.35027	0.026
Mof_H 	H 	0.0318	0.1401	0.91933	0.088
Mof_H 	H 	0.5591	0.0645	0.4052	0.096
Mof_H 	H 	0.8908	0.2922	0.65623	0.108
Mof_H 	H 	0.6378	0.9273	0.5899	0.019
Mof_H 	H 	0.5046	0.0455	0.05333	0.124
Mof_H 	H 	0.6515	0.8113	0.44267	0.042
Mof_H 	H 	0.9545	0.4591	0.38667	0.106
Mof_H 	H 	0.0645	0.5591	0.92813	0.095
Mof_H 	H 	0.9355	0.4946	0.73853	0.095
Mof_H 	H 	0.4014	0.1092	0.3229	0.106
Mof_H 	H 	0.8402	0.1887	0.55733	0.04
Mof_C 	C 	0.5753	0.039	0.4448	-0.123
Mof_C 	C 	0.9791	0.4199	0.36847	-0.073
Mof_C 	C 	0.8209	0.7899	0.7431	0.367
Mof_C 	C 	0.4408	0.0209	0.03513	-0.157
Mof_C 	C 	0.1597	0.0945	0.31695	0.083
Mof_C 	C 	0.9589	0.6244	0.78053	0.102
Mof_C 	C 	0.4155	0	0.5	0.091
Mof_C 	C 	0.7307	0.7156	0.7015	-0.101
Mof_C 	C 	0.9055	0.0652	0.65028	0.086
Mof_C 	C 	0.2741	0.9673	0.5546	0.125
Mof_C 	C 	0.0327	0.3068	0.88793	0.103
Mof_C 	C 	0.9673	0.2741	0.77873	0.125
Mof_C 	C 	0.0411	0.6655	0.88613	0.076
Mof_C 	C 	0.3756	0.3345	0.11387	0.09
Mof_C 	C 	0.1252	0.9407	0.6238	-0.129
Mof_C 	C 	0.0652	0.9055	0.68305	0.086
Mof_C 	C 	0.2092	0.9346	0.6209	0.072
Mof_C 	C 	0.368	0.0269	0.07893	0.336
Mof_C 	C 	0.6655	0.0411	0.4472	0.077
Mof_C 	C 	0.1845	0.0593	0.3762	-0.131
Mof_C 	C 	0.5592	0.5801	0.63153	-0.117
Mof_C 	C 	0.632	0.6589	0.58773	0.325
Mof_C 	C 	0.3411	0.9731	0.92107	0.314
Mof_C 	C 	0.4889	0.4889	0.16667	0.085
Mof_C 	C 	0.3345	0.3756	0.21947	0.09
Mof_C 	C 	0.3068	0.0327	0.4454	0.102
Mof_C 	C 	0.0209	0.4408	0.2982	-0.161
Mof_C 	C 	0.5801	0.5592	0.7018	-0.117
Mof_C 	C 	0.9731	0.3411	0.41227	0.312
Mof_C 	C 	0.6244	0.9589	0.5528	0.103
Mof_C 	C 	5.19447e-17	0.5111	0.83333	0.051
Mof_C 	C 	0.0151	0.2844	0.2985	-0.129
Mof_C 	C 	0.3391	0.104	0.32209	-0.12
Mof_C 	C 	0.7156	0.7307	0.63183	-0.101
Mof_C 	C 	0.0945	0.1597	0.01638	0.087
Mof_C 	C 	0.9849	0.2693	0.36817	-0.078
Mof_C 	C 	0.5363	0.961	0.5552	-0.101
Mof_C 	C 	0.6932	0.7259	0.22127	0.11
Mof_C 	C 	0.9407	0.1252	0.70953	-0.129
Mof_C 	C 	0.4199	0.9791	0.96487	-0.078
Mof_C 	C 	0.7649	0.6609	0.98876	-0.122
Mof_C 	C 	0.8403	0.9348	0.34972	0.09
Mof_C 	C 	0.1791	0.969	0.92357	0.385
Mof_C 	C 	0.896	0.2351	0.65542	-0.118
Mof_C 	C 	0.8283	0.6935	0.93007	0.094
Mof_C 	C 	0.039	0.5753	0.88853	-0.123
Mof_C 	C 	0.6935	0.8283	0.40327	0.093
Mof_C 	C 	0.7899	0.8209	0.59023	0.367
Mof_C 	C 	0.7908	0.7254	0.04577	0.08
Mof_C 	C 	0.4637	0.4247	0.11147	-0.136
Mof_C 	C 	0.2844	0.0151	0.03483	-0.125
Mof_C 	C 	0.1348	0.3065	0.06993	0.086
Mof_C 	C 	0.7259	0.6932	0.11207	0.109
Mof_C 	C 	0.8748	0.8155	0.04287	-0.122
Mof_C 	C 	0.961	0.5363	0.77813	-0.102
Mof_C 	C 	0.6589	0.632	0.7456	0.325
Mof_C 	C 	0.2746	0.0654	0.3791	0.071
Mof_C 	C 	0.2351	0.896	0.67791	-0.118
Mof_C 	C 	0.9348	0.8403	0.98362	0.086
Mof_C 	C 	0.0654	0.2746	0.95423	0.068
Mof_C 	C 	0.2101	0.031	0.07643	0.35
Mof_C 	C 	0.5845	0.5845	0.16667	0.104
Mof_C 	C 	0.5111	0	0.5	0.051
Mof_C 	C 	0.969	0.1791	0.40977	0.385
Mof_C 	C 	0.6609	0.7649	0.34458	-0.118
Mof_C 	C 	0.9346	0.2092	0.71243	0.072
Mof_C 	C 	0.8652	0.1717	0.59673	0.088
Mof_C 	C 	0.8155	0.8748	0.29047	-0.126
Mof_C 	C 	0.031	0.2101	0.2569	0.354
Mof_C 	C 	0.7254	0.7908	0.28757	0.078
Mof_C 	C 	0.4247	0.4637	0.22187	-0.136
Mof_C 	C 	0.0593	0.1845	0.95713	-0.134
Mof_C 	C 	0.104	0.3391	0.01124	-0.116
Mof_C 	C 	0.3065	0.1348	0.2634	0.087
Mof_C 	C 	0.0269	0.368	0.2544	0.339
Mof_C 	C 	0.1717	0.8652	0.7366	0.088
Mof_C 	C 	-6.25949e-18	0.4155	0.83333	0.091
Mof_C 	C 	0.2693	0.9849	0.96517	-0.083
Mof_N 	N 	-6.25949e-18	0.6913	0.83333	-0.238
Mof_N 	N 	0.6913	0	0.5	-0.238
Mof_N 	N 	0.8691	0.0882	0.59325	-0.231
Mof_N 	N 	0.0882	0.8691	0.74008	-0.232
Mof_N 	N 	0.7561	0.7561	0.16667	-0.134
Mof_N 	N 	0.6061	0.6406	0.2253	-0.132
Mof_N 	N 	0.3594	0.9655	0.55863	-0.124
Mof_N 	N 	0.9655	0.3594	0.7747	-0.124
Mof_N 	N 	0.0345	0.3939	0.89196	-0.134
Mof_N 	N 	0.2191	0.1309	0.25992	-0.231
Mof_N 	N 	0.1309	0.2191	0.07341	-0.231
Mof_N 	N 	0.9118	0.7809	0.92659	-0.221
Mof_N 	N 	0.3087	0.3087	0.16667	-0.226
Mof_N 	N 	8.29155e-18	0.2439	0.83333	-0.152
Mof_N 	N 	0.7809	0.9118	0.40675	-0.222
Mof_N 	N 	0.3939	0.0345	0.44137	-0.134
Mof_N 	N 	0.6406	0.6061	0.10804	-0.132
Mof_N 	N 	0.2439	0	0.5	-0.152
Mof_O 	O 	0.88492	0.12851	0.43836	-0.398
Mof_O 	O 	0.87149	0.75641	0.77169	-0.38
Mof_O 	O 	0.1601	0.0379	0.92037	-0.301
Mof_O 	O 	0.12851	0.88492	0.89498	-0.398
Mof_O 	O 	0.9621	0.1222	0.2537	-0.267
Mof_O 	O 	0.1222	0.9621	0.07963	-0.262
Mof_O 	O 	0.75641	0.87149	0.56164	-0.38
Mof_O 	O 	0.11508	0.24359	0.22831	-0.39
Mof_O 	O 	0.8778	0.8399	0.58703	-0.263
Mof_O 	O 	0.0379	0.1601	0.41297	-0.301
Mof_O 	O 	0.24359	0.11508	0.10502	-0.389
Mof_O 	O 	0.8399	0.8778	0.7463	-0.263
Mof_F 	F 	0.6602	0.6055	0.8157	-0.446
Mof_F 	F 	0.3945	0.0547	0.14903	-0.452
Mof_F 	F 	0.6055	0.6602	0.51763	-0.446
Mof_F 	F 	0.0547	0.3945	0.1843	-0.452
Mof_F 	F 	0.3398	0.9453	0.85097	-0.441
Mof_F 	F 	0.9453	0.3398	0.48237	-0.44
_end
