data_functionalizedCrystal
_audit_creation_method	'EQeq! by Chris Wilmer'
_symmetry_space_group_name_H-M	'P1'
_symmetry_Int_Tables_number	1
_symmetry_cell_setting	triclinic
loop_
_symmetry_equiv_pos_as_xyz
  x,y,z
_cell_length_a	11.3504
_cell_length_b	12.1923
_cell_length_c	16.1827
_cell_angle_alpha	90
_cell_angle_beta	130.491
_cell_angle_gamma	90
loop_
_atom_site_label
_atom_site_type_symbol
_atom_site_fract_x
_atom_site_fract_y
_atom_site_fract_z
_atom_site_charge
Mof_C 	C 	0.1427	0.88482	0.76806	-0.096
Mof_C 	C 	0.0852	0.79696	0.69817	0.074
Mof_H 	H 	0.9826	0.7754	0.6583	0.051
Mof_C 	C 	0.1812	0.74074	0.68764	-0.119
Mof_C 	C 	0.1196	0.64502	0.61218	0.423
Mof_C 	C 	0.3339	0.77456	0.74681	0.065
Mof_H 	H 	0.3983	0.7373	0.7396	0.054
Mof_C 	C 	0.3904	0.86353	0.81638	-0.093
Mof_C 	C 	0.2951	0.91824	0.82787	0.053
Mof_H 	H 	0.3331	0.9772	0.8755	0.054
Mof_C 	C 	0.5542	0.9006	0.878	0.342
Mof_O 	O 	0.075	0.92386	0.88926	-0.415
Mof_O 	O 	0.8674	0.926	0.69668	-0.229
Mof_O 	O 	0.0551	0.07284	0.7841	-0.263
Mof_O 	O 	0.21706	0.57836	0.62812	-0.452
Mof_O 	O 	0.9763	0.63849	0.53821	-0.473
Mof_O 	O 	0.6377	0.85459	0.86589	-0.353
Mof_O 	O 	0.6042	0.98007	0.94123	-0.386
Mof_S 	S 	0.0235	0.95935	0.78361	0.518
Mof_Zn	Zn	0.17931	0.02369	0.01883	1.236
Mof_C 	C 	0.8573	0.38482	0.73194	-0.086
Mof_C 	C 	0.9148	0.29696	0.80183	0.048
Mof_H 	H 	0.0174	0.2754	0.8417	0.065
Mof_C 	C 	0.8188	0.24074	0.81236	-0.104
Mof_C 	C 	0.8804	0.14502	0.88782	0.403
Mof_C 	C 	0.6661	0.27456	0.75319	0.054
Mof_H 	H 	0.6017	0.2373	0.7604	0.059
Mof_C 	C 	0.6096	0.36353	0.68362	-0.085
Mof_C 	C 	0.7049	0.41824	0.67213	0.044
Mof_H 	H 	0.6669	0.4772	0.6245	0.059
Mof_C 	C 	0.4458	0.4006	0.622	0.339
Mof_O 	O 	0.925	0.42386	0.61074	-0.415
Mof_O 	O 	0.1326	0.426	0.80332	-0.225
Mof_O 	O 	0.9449	0.57284	0.7159	-0.273
Mof_O 	O 	0.78294	0.07836	0.87188	-0.446
Mof_O 	O 	0.0237	0.13849	0.96179	-0.455
Mof_O 	O 	0.3623	0.35459	0.63411	-0.348
Mof_O 	O 	0.3958	0.48007	0.55877	-0.382
Mof_S 	S 	0.9765	0.45935	0.71639	0.517
Mof_Zn	Zn	0.82069	0.52369	0.48117	1.24
Mof_C 	C 	0.8573	0.11518	0.23194	-0.096
Mof_C 	C 	0.9148	0.20304	0.30183	0.074
Mof_H 	H 	0.0174	0.2246	0.3417	0.051
Mof_C 	C 	0.8188	0.25926	0.31236	-0.119
Mof_C 	C 	0.8804	0.35498	0.38782	0.423
Mof_C 	C 	0.6661	0.22544	0.25319	0.065
Mof_H 	H 	0.6017	0.2627	0.2604	0.054
Mof_C 	C 	0.6096	0.13647	0.18362	-0.093
Mof_C 	C 	0.7049	0.08176	0.17213	0.053
Mof_H 	H 	0.6669	0.0228	0.1245	0.054
Mof_C 	C 	0.4458	0.0994	0.122	0.342
Mof_O 	O 	0.925	0.07614	0.11074	-0.415
Mof_O 	O 	0.1326	0.074	0.30332	-0.229
Mof_O 	O 	0.9449	0.92716	0.2159	-0.263
Mof_O 	O 	0.78294	0.42164	0.37188	-0.452
Mof_O 	O 	0.0237	0.36151	0.46179	-0.473
Mof_O 	O 	0.3623	0.14541	0.13411	-0.353
Mof_O 	O 	0.3958	0.01993	0.05877	-0.386
Mof_S 	S 	0.9765	0.04065	0.21639	0.518
Mof_Zn	Zn	0.82069	0.97631	0.98117	1.236
Mof_C 	C 	0.1427	0.61518	0.26806	-0.086
Mof_C 	C 	0.0852	0.70304	0.19817	0.048
Mof_H 	H 	0.9826	0.7246	0.1583	0.065
Mof_C 	C 	0.1812	0.75926	0.18764	-0.104
Mof_C 	C 	0.1196	0.85498	0.11218	0.403
Mof_C 	C 	0.3339	0.72544	0.24681	0.054
Mof_H 	H 	0.3983	0.7627	0.2396	0.059
Mof_C 	C 	0.3904	0.63647	0.31638	-0.085
Mof_C 	C 	0.2951	0.58176	0.32787	0.044
Mof_H 	H 	0.3331	0.5228	0.3755	0.059
Mof_C 	C 	0.5542	0.5994	0.378	0.339
Mof_O 	O 	0.075	0.57614	0.38926	-0.415
Mof_O 	O 	0.8674	0.574	0.19668	-0.225
Mof_O 	O 	0.0551	0.42716	0.2841	-0.273
Mof_O 	O 	0.21706	0.92164	0.12812	-0.446
Mof_O 	O 	0.9763	0.86151	0.03821	-0.455
Mof_O 	O 	0.6377	0.64541	0.36589	-0.348
Mof_O 	O 	0.6042	0.51993	0.44123	-0.382
Mof_S 	S 	0.0235	0.54065	0.28361	0.517
Mof_Zn	Zn	0.17931	0.47631	0.51883	1.24
_end
