data_functionalizedCrystal
_audit_creation_method	'EQeq! by Chris Wilmer'
_symmetry_space_group_name_H-M	'P1'
_symmetry_Int_Tables_number	1
_symmetry_cell_setting	triclinic
loop_
_symmetry_equiv_pos_as_xyz
  x,y,z
_cell_length_a	10.0338
_cell_length_b	8.2827
_cell_length_c	11.1583
_cell_angle_alpha	90
_cell_angle_beta	90
_cell_angle_gamma	90
loop_
_atom_site_label
_atom_site_type_symbol
_atom_site_fract_x
_atom_site_fract_y
_atom_site_fract_z
_atom_site_charge
Mof_Cu	Cu	0.20437	0.00118	0.26844	0.91
Mof_O 	O 	0.0149	0.0983	0.1857	-0.348
Mof_O 	O 	0.8719	0.3015	0.1684	-0.383
Mof_O 	O 	0.1828	0.1079	0.4287	-0.386
Mof_O 	O 	0.2428	0.1151	0.6196	-0.391
Mof_C 	C 	0.9695	0.2321	0.2172	0.402
Mof_H 	H 	0.0115	0.2852	0.2826	-0.09
Mof_C 	C 	0.2305	0.0416	0.5214	0.406
Mof_H 	H 	0.2581	0.932	0.5167	-0.117
Mof_Cu	Cu	0.29563	0.99882	0.76844	0.908
Mof_O 	O 	0.4851	0.9017	0.6857	-0.35
Mof_O 	O 	0.6281	0.6985	0.6684	-0.384
Mof_O 	O 	0.3172	0.8921	0.9287	-0.388
Mof_O 	O 	0.2572	0.8849	0.1196	-0.392
Mof_C 	C 	0.5305	0.7679	0.7172	0.406
Mof_H 	H 	0.4885	0.7148	0.7826	-0.091
Mof_C 	C 	0.2695	0.9584	0.0214	0.407
Mof_H 	H 	0.2419	0.068	0.0167	-0.118
Mof_Cu	Cu	0.79563	0.50118	0.23156	0.908
Mof_O 	O 	0.9851	0.5983	0.3143	-0.349
Mof_O 	O 	0.1281	0.8015	0.3316	-0.383
Mof_O 	O 	0.8172	0.6079	0.0713	-0.386
Mof_O 	O 	0.7572	0.6151	0.8804	-0.391
Mof_C 	C 	0.0305	0.7321	0.2828	0.403
Mof_H 	H 	0.9885	0.7852	0.2174	-0.089
Mof_C 	C 	0.7695	0.5416	0.9786	0.402
Mof_H 	H 	0.7419	0.432	0.9833	-0.116
Mof_Cu	Cu	0.70437	0.49882	0.73156	0.908
Mof_O 	O 	0.5149	0.4017	0.8143	-0.35
Mof_O 	O 	0.3719	0.1985	0.8316	-0.383
Mof_O 	O 	0.6828	0.3921	0.5713	-0.387
Mof_O 	O 	0.7428	0.3849	0.3804	-0.391
Mof_C 	C 	0.4695	0.2679	0.7828	0.406
Mof_H 	H 	0.5115	0.2148	0.7174	-0.091
Mof_C 	C 	0.7305	0.4584	0.4786	0.404
Mof_H 	H 	0.7581	0.568	0.4833	-0.116
_end
