data_functionalizedCrystal
_audit_creation_method	'EQeq! by Chris Wilmer'
_symmetry_space_group_name_H-M	'P1'
_symmetry_Int_Tables_number	1
_symmetry_cell_setting	triclinic
loop_
_symmetry_equiv_pos_as_xyz
  x,y,z
_cell_length_a	12.903
_cell_length_b	13.782
_cell_length_c	27.912
_cell_angle_alpha	75.64
_cell_angle_beta	79.46
_cell_angle_gamma	85.71
loop_
_atom_site_label
_atom_site_type_symbol
_atom_site_fract_x
_atom_site_fract_y
_atom_site_fract_z
_atom_site_charge
Mof_Tb	Tb	0.88016	0.02123	0.55365	1.923
Mof_Tb	Tb	0.47005	0.53812	0.41489	1.771
Mof_Tb	Tb	0.03018	0.87474	0.06046	1.943
Mof_Tb	Tb	0.51652	0.4794	0.91422	1.799
Mof_O 	O 	0.9457	0.9323	0.47205	-0.589
Mof_O 	O 	0.7993	0.9002	0.5254	-0.479
Mof_O 	O 	0.5994	0.5666	0.456	-0.561
Mof_O 	O 	0.6245	0.5896	0.52867	-0.56
Mof_O 	O 	0.0447	0.8879	0.1442	-0.467
Mof_O 	O 	0.9284	0.786	0.14037	-0.453
Mof_O 	O 	0.637	0.5163	0.35742	-0.412
Mof_O 	O 	0.5927	0.392	0.42291	-0.418
Mof_O 	O 	0.8682	0.135	0.47597	-0.541
Mof_O 	O 	0.0196	0.126	0.42269	-0.486
Mof_O 	O 	0.2606	0.6604	0.1477	-0.36
Mof_O 	O 	0.3264	0.509	0.1412	-0.52
Mof_O 	O 	0.8901	0.9837	0.077	-0.507
Mof_O 	O 	0.8764	0.1273	0.02089	-0.552
Mof_O 	O 	0.5056	0.3539	0.1385	-0.435
Mof_O 	O 	0.6134	0.3894	0.06707	-0.432
Mof_O 	O 	0.4887	0.6941	0.3632	-0.535
Mof_O 	O 	0.4449	0.8149	0.4031	-0.345
Mof_O 	O 	0.596	0.5719	0.9541	-0.563
Mof_O 	O 	0.6105	0.6084	0.0249	-0.587
Mof_O 	O 	0.9006	0.9692	0.9665	-0.576
Mof_O 	O 	0.8937	0.8276	0.0247	-0.515
Mof_O 	O 	0.7772	0.937	0.6347	-0.446
Mof_O 	O 	0.9124	0.0175	0.63746	-0.474
Mof_C 	C 	0.8243	0.8243	0.4569	-0.209
Mof_C 	C 	0.7493	0.7524	0.4807	0.138
Mof_H 	H 	0.7227	0.7446	0.5147	-0.003
Mof_C 	C 	0.7148	0.6936	0.4548	-0.218
Mof_C 	C 	0.7518	0.7067	0.404	0.087
Mof_H 	H 	0.7254	0.6678	0.3864	0.005
Mof_C 	C 	0.8277	0.7766	0.3785	-0.111
Mof_C 	C 	0.8646	0.8348	0.4064	0.075
Mof_H 	H 	0.9167	0.8809	0.3908	0.007
Mof_C 	C 	0.8647	0.7884	0.3238	0.136
Mof_C 	C 	0.9595	0.835	0.3004	-0.177
Mof_H 	H 	0.0006	0.8576	0.3193	0.088
Mof_C 	C 	0.9926	0.8479	0.2491	0.114
Mof_H 	H 	0.0558	0.8793	0.234	-0.005
Mof_C 	C 	0.9337	0.8151	0.2205	-0.168
Mof_C 	C 	0.8449	0.7635	0.2438	0.107
Mof_H 	H 	0.8068	0.7366	0.2252	0
Mof_C 	C 	0.8112	0.7509	0.2946	-0.195
Mof_H 	H 	0.7502	0.7159	0.3096	0.105
Mof_C 	C 	0.8597	0.8889	0.4857	0.468
Mof_C 	C 	0.6398	0.6107	0.4812	0.505
Mof_C 	C 	0.971	0.8299	0.1648	0.388
Mof_C 	C 	0.7643	0.382	0.374	-0.102
Mof_C 	C 	0.7936	0.2987	0.4082	0.052
Mof_H 	H 	0.7479	0.2729	0.4378	0.019
Mof_C 	C 	0.8932	0.2534	0.3977	-0.149
Mof_C 	C 	0.9603	0.2927	0.3537	0.022
Mof_H 	H 	0.0253	0.2608	0.3465	0.037
Mof_C 	C 	0.9327	0.3794	0.3197	-0.064
Mof_C 	C 	0.8338	0.4231	0.3309	0.007
Mof_H 	H 	0.8137	0.4812	0.309	0.036
Mof_C 	C 	0.0105	0.4277	0.2749	0.116
Mof_C 	C 	0.0155	0.5301	0.2599	-0.19
Mof_H 	H 	0.9665	0.5698	0.2759	0.098
Mof_C 	C 	0.0932	0.5746	0.221	0.097
Mof_H 	H 	0.0953	0.6442	0.2111	-0.003
Mof_C 	C 	0.1676	0.5179	0.1967	-0.184
Mof_C 	C 	0.1602	0.4148	0.2108	0.099
Mof_H 	H 	0.2084	0.3755	0.1941	0.008
Mof_C 	C 	0.0828	0.3692	0.2492	-0.179
Mof_H 	H 	0.0787	0.2997	0.2579	0.098
Mof_C 	C 	0.6577	0.4339	0.3855	0.32
Mof_C 	C 	0.9295	0.1637	0.4352	0.461
Mof_C 	C 	0.2581	0.5665	0.1588	0.4
Mof_C 	C 	0.7639	0.103	0.0996	-0.18
Mof_C 	C 	0.7162	0.1987	0.0877	0.077
Mof_H 	H 	0.7392	0.2423	0.0569	0.003
Mof_C 	C 	0.6353	0.229	0.1213	-0.127
Mof_C 	C 	0.5993	0.1636	0.1668	0.023
Mof_H 	H 	0.5443	0.184	0.1892	0.029
Mof_C 	C 	0.6445	0.0677	0.1795	-0.076
Mof_C 	C 	0.7273	0.0395	0.1459	0.042
Mof_H 	H 	0.7592	0.9763	0.1545	0.03
Mof_C 	C 	0.6021	0.9964	0.2282	0.121
Mof_C 	C 	0.5991	0.8946	0.2291	-0.173
Mof_H 	H 	0.6238	0.8719	0.2002	0.086
Mof_C 	C 	0.5584	0.8272	0.2739	0.094
Mof_H 	H 	0.5564	0.7594	0.2749	-0.005
Mof_C 	C 	0.5207	0.8617	0.3173	-0.184
Mof_C 	C 	0.5228	0.9615	0.3155	0.109
Mof_H 	H 	0.4965	0.9849	0.344	0
Mof_C 	C 	0.5637	0.0275	0.2714	-0.183
Mof_H 	H 	0.5654	0.0951	0.2709	0.094
Mof_C 	C 	0.8507	0.0697	0.063	0.498
Mof_C 	C 	0.5807	0.3294	0.1083	0.333
Mof_C 	C 	0.4814	0.7859	0.3646	0.416
Mof_C 	C 	0.6996	0.7079	0.9511	-0.254
Mof_C 	C 	0.7521	0.754	0.9783	0.165
Mof_H 	H 	0.745	0.7303	0.0129	-0.021
Mof_C 	C 	0.8145	0.8347	0.9544	-0.244
Mof_C 	C 	0.8241	0.8686	0.903	0.111
Mof_H 	H 	0.8655	0.9235	0.8868	-0.003
Mof_C 	C 	0.7744	0.8238	0.8749	-0.138
Mof_C 	C 	0.7123	0.7418	0.8992	0.113
Mof_H 	H 	0.6792	0.7098	0.8808	-0.001
Mof_C 	C 	0.7903	0.8586	0.8192	0.154
Mof_C 	C 	0.712	0.8508	0.7927	-0.2
Mof_H 	H 	0.648	0.8238	0.81	0.106
Mof_C 	C 	0.7271	0.8825	0.7409	0.105
Mof_H 	H 	0.6734	0.8767	0.7237	0.004
Mof_C 	C 	0.8226	0.923	0.7144	-0.173
Mof_C 	C 	0.8981	0.9308	0.7409	0.115
Mof_H 	H 	0.9619	0.9584	0.7236	0.006
Mof_C 	C 	0.8841	0.8993	0.7922	-0.204
Mof_H 	H 	0.9383	0.9055	0.809	0.109
Mof_C 	C 	0.6302	0.624	0.9786	0.549
Mof_C 	C 	0.8727	0.8812	0.9839	0.521
Mof_C 	C 	0.8384	0.9616	0.6585	0.393
Mof_Tb	Tb	0.11984	0.97877	0.44635	1.924
Mof_Tb	Tb	0.52995	0.46188	0.58511	1.772
Mof_Tb	Tb	0.96982	0.12526	0.93954	1.943
Mof_Tb	Tb	0.48348	0.5206	0.08578	1.799
Mof_O 	O 	0.0543	0.0677	0.52795	-0.589
Mof_O 	O 	0.2007	0.0998	0.4746	-0.479
Mof_O 	O 	0.4006	0.4334	0.544	-0.561
Mof_O 	O 	0.3755	0.4104	0.47133	-0.56
Mof_O 	O 	0.9553	0.1121	0.8558	-0.467
Mof_O 	O 	0.0716	0.214	0.85963	-0.453
Mof_O 	O 	0.363	0.4837	0.64258	-0.412
Mof_O 	O 	0.4073	0.608	0.57709	-0.418
Mof_O 	O 	0.1318	0.865	0.52403	-0.541
Mof_O 	O 	0.9804	0.874	0.57731	-0.486
Mof_O 	O 	0.7394	0.3396	0.8523	-0.36
Mof_O 	O 	0.6736	0.491	0.8588	-0.52
Mof_O 	O 	0.1099	0.0163	0.923	-0.507
Mof_O 	O 	0.1236	0.8727	0.97911	-0.552
Mof_O 	O 	0.4944	0.6461	0.8615	-0.435
Mof_O 	O 	0.3866	0.6106	0.93293	-0.432
Mof_O 	O 	0.5113	0.3059	0.6368	-0.535
Mof_O 	O 	0.5551	0.1851	0.5969	-0.345
Mof_O 	O 	0.404	0.4281	0.0459	-0.563
Mof_O 	O 	0.3895	0.3916	0.9751	-0.587
Mof_O 	O 	0.0994	0.0308	0.0335	-0.576
Mof_O 	O 	0.1063	0.1724	0.9753	-0.515
Mof_O 	O 	0.2228	0.063	0.3653	-0.446
Mof_O 	O 	0.0876	0.9825	0.36254	-0.474
Mof_C 	C 	0.1757	0.1757	0.5431	-0.209
Mof_C 	C 	0.2507	0.2476	0.5193	0.138
Mof_H 	H 	0.2773	0.2554	0.4853	-0.003
Mof_C 	C 	0.2852	0.3064	0.5452	-0.218
Mof_C 	C 	0.2482	0.2933	0.596	0.087
Mof_H 	H 	0.2746	0.3322	0.6136	0.005
Mof_C 	C 	0.1723	0.2234	0.6215	-0.111
Mof_C 	C 	0.1354	0.1652	0.5936	0.075
Mof_H 	H 	0.0833	0.1191	0.6092	0.007
Mof_C 	C 	0.1353	0.2116	0.6762	0.136
Mof_C 	C 	0.0405	0.165	0.6996	-0.177
Mof_H 	H 	0.9994	0.1424	0.6807	0.088
Mof_C 	C 	0.0074	0.1521	0.7509	0.114
Mof_H 	H 	0.9442	0.1207	0.766	-0.005
Mof_C 	C 	0.0663	0.1849	0.7795	-0.168
Mof_C 	C 	0.1551	0.2365	0.7562	0.107
Mof_H 	H 	0.1932	0.2634	0.7748	0
Mof_C 	C 	0.1888	0.2491	0.7054	-0.195
Mof_H 	H 	0.2498	0.2841	0.6904	0.105
Mof_C 	C 	0.1403	0.1111	0.5143	0.468
Mof_C 	C 	0.3602	0.3893	0.5188	0.505
Mof_C 	C 	0.029	0.1701	0.8352	0.388
Mof_C 	C 	0.2357	0.618	0.626	-0.102
Mof_C 	C 	0.2064	0.7013	0.5918	0.052
Mof_H 	H 	0.2521	0.7271	0.5622	0.019
Mof_C 	C 	0.1068	0.7466	0.6023	-0.149
Mof_C 	C 	0.0397	0.7073	0.6463	0.022
Mof_H 	H 	0.9747	0.7392	0.6535	0.037
Mof_C 	C 	0.0673	0.6206	0.6803	-0.064
Mof_C 	C 	0.1662	0.5769	0.6691	0.007
Mof_H 	H 	0.1863	0.5188	0.691	0.036
Mof_C 	C 	0.9895	0.5723	0.7251	0.116
Mof_C 	C 	0.9845	0.4699	0.7401	-0.19
Mof_H 	H 	0.0335	0.4302	0.7241	0.098
Mof_C 	C 	0.9068	0.4254	0.779	0.097
Mof_H 	H 	0.9047	0.3558	0.7889	-0.003
Mof_C 	C 	0.8324	0.4821	0.8033	-0.184
Mof_C 	C 	0.8398	0.5852	0.7892	0.099
Mof_H 	H 	0.7916	0.6245	0.8059	0.008
Mof_C 	C 	0.9172	0.6308	0.7508	-0.179
Mof_H 	H 	0.9213	0.7003	0.7421	0.098
Mof_C 	C 	0.3423	0.5661	0.6145	0.32
Mof_C 	C 	0.0705	0.8363	0.5648	0.461
Mof_C 	C 	0.7419	0.4335	0.8412	0.4
Mof_C 	C 	0.2361	0.897	0.9004	-0.18
Mof_C 	C 	0.2838	0.8013	0.9123	0.077
Mof_H 	H 	0.2608	0.7577	0.9431	0.003
Mof_C 	C 	0.3647	0.771	0.8787	-0.127
Mof_C 	C 	0.4007	0.8364	0.8332	0.023
Mof_H 	H 	0.4557	0.816	0.8108	0.029
Mof_C 	C 	0.3555	0.9323	0.8205	-0.076
Mof_C 	C 	0.2727	0.9605	0.8541	0.042
Mof_H 	H 	0.2408	0.0237	0.8455	0.03
Mof_C 	C 	0.3979	0.0036	0.7718	0.121
Mof_C 	C 	0.4009	0.1054	0.7709	-0.173
Mof_H 	H 	0.3762	0.1281	0.7998	0.086
Mof_C 	C 	0.4416	0.1728	0.7261	0.094
Mof_H 	H 	0.4436	0.2406	0.7251	-0.005
Mof_C 	C 	0.4793	0.1383	0.6827	-0.184
Mof_C 	C 	0.4772	0.0385	0.6845	0.109
Mof_H 	H 	0.5035	0.0151	0.656	0
Mof_C 	C 	0.4363	0.9725	0.7286	-0.183
Mof_H 	H 	0.4346	0.9049	0.7291	0.094
Mof_C 	C 	0.1493	0.9303	0.937	0.498
Mof_C 	C 	0.4193	0.6706	0.8917	0.333
Mof_C 	C 	0.5186	0.2141	0.6354	0.416
Mof_C 	C 	0.3004	0.2921	0.0489	-0.254
Mof_C 	C 	0.2479	0.246	0.0217	0.165
Mof_H 	H 	0.255	0.2697	0.9871	-0.021
Mof_C 	C 	0.1855	0.1653	0.0456	-0.244
Mof_C 	C 	0.1759	0.1314	0.097	0.111
Mof_H 	H 	0.1345	0.0765	0.1132	-0.003
Mof_C 	C 	0.2256	0.1762	0.1251	-0.138
Mof_C 	C 	0.2877	0.2582	0.1008	0.113
Mof_H 	H 	0.3208	0.2902	0.1192	-0.001
Mof_C 	C 	0.2097	0.1414	0.1808	0.154
Mof_C 	C 	0.288	0.1492	0.2073	-0.2
Mof_H 	H 	0.352	0.1762	0.19	0.106
Mof_C 	C 	0.2729	0.1175	0.2591	0.105
Mof_H 	H 	0.3266	0.1233	0.2763	0.004
Mof_C 	C 	0.1774	0.077	0.2856	-0.173
Mof_C 	C 	0.1019	0.0692	0.2591	0.115
Mof_H 	H 	0.0381	0.0416	0.2764	0.006
Mof_C 	C 	0.1159	0.1007	0.2078	-0.204
Mof_H 	H 	0.0617	0.0945	0.191	0.109
Mof_C 	C 	0.3698	0.376	0.0214	0.549
Mof_C 	C 	0.1273	0.1188	0.0161	0.521
Mof_C 	C 	0.1616	0.0384	0.3415	0.393
_end
