data_functionalizedCrystal
_audit_creation_method	'EQeq! by Chris Wilmer'
_symmetry_space_group_name_H-M	'P1'
_symmetry_Int_Tables_number	1
_symmetry_cell_setting	triclinic
loop_
_symmetry_equiv_pos_as_xyz
  x,y,z
_cell_length_a	10.3973
_cell_length_b	23.431
_cell_length_c	6.927
_cell_angle_alpha	90
_cell_angle_beta	90
_cell_angle_gamma	90
loop_
_atom_site_label
_atom_site_type_symbol
_atom_site_fract_x
_atom_site_fract_y
_atom_site_fract_z
_atom_site_charge
Mof_Zn	Zn	0.5	0.36596	0.25	1.202
Mof_O 	O 	0.5	0.4517	0.25	-0.739
Mof_Zn	Zn	-6.85486e-33	0.86596	0.25	1.189
Mof_O 	O 	-6.85486e-33	0.9517	0.25	-0.708
Mof_Zn	Zn	0.5	0.63404	0.75	1.224
Mof_O 	O 	0.5	0.5483	0.75	-0.681
Mof_Zn	Zn	-1.8662e-33	0.13404	0.75	1.208
Mof_O 	O 	1.87347e-33	0.0483	0.75	-0.728
Mof_Zn	Zn	0.5	0.5	-0	1.124
Mof_Zn	Zn	-0	0	-0	1.088
Mof_Zn	Zn	0.5	0.5	0.5	1.16
Mof_Zn	Zn	1.24898e-33	0	0.5	1.123
Mof_O 	O 	0.3426	0.3197	0.25	-0.486
Mof_O 	O 	0.2369	0.4007	0.25	-0.39
Mof_C 	C 	0.116	0.2559	0.25	0.039
Mof_H 	H 	0.1934	0.2361	0.25	0.017
Mof_C 	C 	0.1157	0.3154	0.25	-0.108
Mof_C 	C 	0.2408	0.3487	0.25	0.35
Mof_O 	O 	0.8426	0.8197	0.25	-0.433
Mof_O 	O 	0.7369	0.9007	0.25	-0.32
Mof_C 	C 	0.616	0.7559	0.25	0.007
Mof_H 	H 	0.6934	0.7361	0.25	0.039
Mof_C 	C 	0.6157	0.8154	0.25	-0.093
Mof_C 	C 	0.7408	0.8487	0.25	0.344
Mof_O 	O 	0.6574	0.6803	0.75	-0.425
Mof_O 	O 	0.7631	0.5993	0.75	-0.31
Mof_C 	C 	0.884	0.7441	0.75	0.102
Mof_H 	H 	0.8066	0.7639	0.75	0.049
Mof_C 	C 	0.8843	0.6846	0.75	0.008
Mof_C 	C 	0.7592	0.6513	0.75	0.336
Mof_O 	O 	0.1574	0.1803	0.75	-0.447
Mof_O 	O 	0.2631	0.0993	0.75	-0.357
Mof_C 	C 	0.384	0.2441	0.75	0.008
Mof_H 	H 	0.3066	0.2639	0.75	0.06
Mof_C 	C 	0.3843	0.1846	0.75	-0.08
Mof_C 	C 	0.2592	0.1513	0.75	0.36
Mof_O 	O 	0.6574	0.3197	0.25	-0.479
Mof_O 	O 	0.7631	0.4007	0.25	-0.352
Mof_C 	C 	0.884	0.2559	0.25	0.125
Mof_H 	H 	0.8066	0.2361	0.25	0.005
Mof_C 	C 	0.8843	0.3154	0.25	-0.038
Mof_C 	C 	0.7592	0.3487	0.25	0.343
Mof_O 	O 	0.1574	0.8197	0.25	-0.492
Mof_O 	O 	0.2631	0.9007	0.25	-0.355
Mof_C 	C 	0.384	0.7559	0.25	0.012
Mof_H 	H 	0.3066	0.7361	0.25	0.025
Mof_C 	C 	0.3843	0.8154	0.25	-0.104
Mof_C 	C 	0.2592	0.8487	0.25	0.355
Mof_O 	O 	0.3426	0.6803	0.75	-0.432
Mof_O 	O 	0.2369	0.5993	0.75	-0.347
Mof_C 	C 	0.116	0.7441	0.75	0.02
Mof_H 	H 	0.1934	0.7639	0.75	0.061
Mof_C 	C 	0.1157	0.6846	0.75	-0.059
Mof_C 	C 	0.2408	0.6513	0.75	0.343
Mof_O 	O 	0.8426	0.1803	0.75	-0.387
Mof_O 	O 	0.7369	0.0993	0.75	-0.322
Mof_C 	C 	0.616	0.2441	0.75	0.003
Mof_H 	H 	0.6934	0.2639	0.75	0.073
Mof_C 	C 	0.6157	0.1846	0.75	-0.069
Mof_C 	C 	0.7408	0.1513	0.75	0.349
Mof_N 	N 	-2.71751e-33	0.13073	0.4092	-0.206
Mof_N 	N 	-4.75521e-33	0.077	0.342	-0.234
Mof_N 	N 	0.5	0.63073	0.4092	-0.188
Mof_N 	N 	0.5	0.577	0.342	-0.213
Mof_N 	N 	-2.01669e-32	0.86927	0.9092	-0.162
Mof_N 	N 	2.10329e-33	0.923	0.842	-0.165
Mof_N 	N 	0.5	0.36927	0.9092	-0.149
Mof_N 	N 	0.5	0.423	0.842	-0.178
Mof_N 	N 	-2.11048e-33	0.13073	0.0908	-0.241
Mof_N 	N 	-2.41008e-33	0.077	0.158	-0.251
Mof_N 	N 	0.5	0.63073	0.0908	-0.222
Mof_N 	N 	0.5	0.577	0.158	-0.229
Mof_N 	N 	-2.84416e-32	0.86927	0.5908	-0.198
Mof_N 	N 	9.12301e-33	0.923	0.658	-0.189
Mof_N 	N 	0.5	0.36927	0.5908	-0.185
Mof_N 	N 	0.5	0.423	0.658	-0.203
Mof_C 	C 	6.24491e-34	0.1623	0.25	0.137
Mof_C 	C 	6.24491e-34	0.2264	0.25	-0.193
Mof_C 	C 	6.24491e-34	0.3453	0.25	-0.079
Mof_H 	H 	6.24491e-34	0.385	0.25	0.04
Mof_C 	C 	0.5	0.6623	0.25	0.13
Mof_C 	C 	0.5	0.7264	0.25	-0.076
Mof_C 	C 	0.5	0.8453	0.25	0.027
Mof_H 	H 	0.5	0.885	0.25	0.05
Mof_C 	C 	-5.60588e-33	0.8377	0.75	0.157
Mof_C 	C 	-2.05646e-32	0.7736	0.75	-0.137
Mof_C 	C 	-5.60588e-33	0.6547	0.75	-0.099
Mof_H 	H 	-2.05646e-32	0.615	0.75	0.067
Mof_C 	C 	0.5	0.3377	0.75	0.148
Mof_C 	C 	0.5	0.2736	0.75	-0.037
Mof_C 	C 	0.5	0.1547	0.75	0.022
Mof_H 	H 	0.5	0.115	0.75	0.046
_end
