data_functionalizedCrystal
_audit_creation_method	'EQeq! by Chris Wilmer'
_symmetry_space_group_name_H-M	'P1'
_symmetry_Int_Tables_number	1
_symmetry_cell_setting	triclinic
loop_
_symmetry_equiv_pos_as_xyz
  x,y,z
_cell_length_a	9.6711
_cell_length_b	11.7849
_cell_length_c	14.3863
_cell_angle_alpha	90
_cell_angle_beta	122.276
_cell_angle_gamma	90
loop_
_atom_site_label
_atom_site_type_symbol
_atom_site_fract_x
_atom_site_fract_y
_atom_site_fract_z
_atom_site_charge
Mof_Sm	Sm	0.6168	0.98358	0.33036	2.373
Mof_O 	O 	0.7036	0.7832	0.3435	-0.432
Mof_O 	O 	0.6156	0.6045	0.3014	-0.437
Mof_O 	O 	0.3063	0.6799	0.1732	-0.447
Mof_O 	O 	0.3978	0.8576	0.2047	-0.462
Mof_O 	O 	0.5172	0.8817	0.4343	-0.432
Mof_O 	O 	0.467	0.8919	0.5676	-0.426
Mof_O 	O 	0.8912	0.9847	0.3572	-0.434
Mof_O 	O 	0.1585	0.0124	0.4772	-0.437
Mof_C 	C 	0.5958	0.7095	0.2949	0.274
Mof_C 	C 	0.4172	0.7536	0.2173	0.292
Mof_C 	C 	0.495	0.9348	0.5004	0.288
Mof_C 	C 	0.0168	0.9999	0.4541	0.28
Mof_Sm	Sm	0.3832	0.48358	0.16964	2.372
Mof_O 	O 	0.2964	0.2832	0.1565	-0.431
Mof_O 	O 	0.3844	0.1045	0.1986	-0.434
Mof_O 	O 	0.6937	0.1799	0.3268	-0.446
Mof_O 	O 	0.6022	0.3576	0.2953	-0.461
Mof_O 	O 	0.4828	0.3817	0.0657	-0.431
Mof_O 	O 	0.533	0.3919	0.9324	-0.426
Mof_O 	O 	0.1088	0.4847	0.1428	-0.435
Mof_O 	O 	0.8415	0.5124	0.0228	-0.439
Mof_C 	C 	0.4042	0.2095	0.2051	0.273
Mof_C 	C 	0.5828	0.2536	0.2827	0.292
Mof_C 	C 	0.505	0.4348	0.9996	0.286
Mof_C 	C 	0.9832	0.4999	0.0459	0.28
Mof_Sm	Sm	0.3832	0.01642	0.66964	2.373
Mof_O 	O 	0.2964	0.2168	0.6565	-0.432
Mof_O 	O 	0.3844	0.3955	0.6986	-0.437
Mof_O 	O 	0.6937	0.3201	0.8268	-0.447
Mof_O 	O 	0.6022	0.1424	0.7953	-0.462
Mof_O 	O 	0.4828	0.1183	0.5657	-0.432
Mof_O 	O 	0.533	0.1081	0.4324	-0.426
Mof_O 	O 	0.1088	0.0153	0.6428	-0.434
Mof_O 	O 	0.8415	0.9876	0.5228	-0.437
Mof_C 	C 	0.4042	0.2905	0.7051	0.274
Mof_C 	C 	0.5828	0.2464	0.7827	0.292
Mof_C 	C 	0.505	0.0652	0.4996	0.288
Mof_C 	C 	0.9832	0.0001	0.5459	0.28
Mof_Sm	Sm	0.6168	0.51642	0.83036	2.372
Mof_O 	O 	0.7036	0.7168	0.8435	-0.431
Mof_O 	O 	0.6156	0.8955	0.8014	-0.434
Mof_O 	O 	0.3063	0.8201	0.6732	-0.446
Mof_O 	O 	0.3978	0.6424	0.7047	-0.461
Mof_O 	O 	0.5172	0.6183	0.9343	-0.431
Mof_O 	O 	0.467	0.6081	0.0676	-0.426
Mof_O 	O 	0.8912	0.5153	0.8572	-0.435
Mof_O 	O 	0.1585	0.4876	0.9772	-0.439
Mof_C 	C 	0.5958	0.7905	0.7949	0.273
Mof_C 	C 	0.4172	0.7464	0.7173	0.292
Mof_C 	C 	0.495	0.5652	0.0004	0.286
Mof_C 	C 	0.0168	0.5001	0.9541	0.28
_end
