data_functionalizedCrystal
_audit_creation_method	'EQeq! by Chris Wilmer'
_symmetry_space_group_name_H-M	'P1'
_symmetry_Int_Tables_number	1
_symmetry_cell_setting	triclinic
loop_
_symmetry_equiv_pos_as_xyz
  x,y,z
_cell_length_a	14.803
_cell_length_b	14.803
_cell_length_c	19.901
_cell_angle_alpha	90
_cell_angle_beta	90
_cell_angle_gamma	90
loop_
_atom_site_label
_atom_site_type_symbol
_atom_site_fract_x
_atom_site_fract_y
_atom_site_fract_z
_atom_site_charge
Mof_Cu	Cu	0.5	0.5	-0	0.861
Mof_Cu	Cu	-0	0	-0	0.843
Mof_Cu	Cu	-3.26831e-33	0.5	0.5	0.874
Mof_Cu	Cu	0.5	0	0.5	0.874
Mof_Cu	Cu	0.25	0.75	0.75	0.856
Mof_Cu	Cu	0.75	0.25	0.25	0.855
Mof_Cu	Cu	0.75	0.25	0.75	0.856
Mof_Cu	Cu	0.25	0.75	0.25	0.855
Mof_H 	H 	0.4398	0.7962	0.7943	0.045
Mof_H 	H 	0.5498	0.7501	0.8695	0.068
Mof_H 	H 	0.3109	0.4306	0.9651	0.048
Mof_H 	H 	0.1957	0.4673	0.8897	0.077
Mof_H 	H 	0.2103	0.5927	0.82	0.042
Mof_H 	H 	0.0602	0.7038	0.7943	0.034
Mof_H 	H 	0.9502	0.7499	0.8695	0.092
Mof_H 	H 	0.1891	0.0694	0.9651	0.075
Mof_H 	H 	0.3043	0.0327	0.8897	0.025
Mof_H 	H 	0.2897	0.9073	0.82	0.066
Mof_H 	H 	0.7038	0.4398	0.2943	0.043
Mof_H 	H 	0.7499	0.5498	0.3695	0.063
Mof_H 	H 	0.0694	0.3109	0.4651	0.064
Mof_H 	H 	0.0327	0.1957	0.3897	0.019
Mof_H 	H 	0.9073	0.2103	0.32	0.065
Mof_H 	H 	0.7962	0.0602	0.2943	0.034
Mof_H 	H 	0.7501	0.9502	0.3695	0.088
Mof_H 	H 	0.4306	0.1891	0.4651	0.035
Mof_H 	H 	0.4673	0.3043	0.3897	0.077
Mof_H 	H 	0.5927	0.2897	0.32	0.042
Mof_H 	H 	0.5602	0.2962	0.7057	0.044
Mof_H 	H 	0.4502	0.2501	0.6305	0.061
Mof_H 	H 	0.6891	0.9306	0.5349	0.012
Mof_H 	H 	0.8043	0.9673	0.6103	0.126
Mof_H 	H 	0.7897	0.0927	0.68	0.021
Mof_H 	H 	0.9398	0.2038	0.7057	0.055
Mof_H 	H 	0.0498	0.2499	0.6305	0.033
Mof_H 	H 	0.8109	0.5694	0.5349	0.037
Mof_H 	H 	0.6957	0.5327	0.6103	0.077
Mof_H 	H 	0.7103	0.4073	0.68	0.041
Mof_H 	H 	0.2962	0.9398	0.2057	0.055
Mof_H 	H 	0.2501	0.0498	0.1305	0.028
Mof_H 	H 	0.9306	0.8109	0.0349	0.002
Mof_H 	H 	0.9673	0.6957	0.1103	0.123
Mof_H 	H 	0.0927	0.7103	0.18	0.019
Mof_H 	H 	0.2038	0.5602	0.2057	0.043
Mof_H 	H 	0.2499	0.4502	0.1305	0.058
Mof_H 	H 	0.5694	0.6891	0.0349	0.025
Mof_H 	H 	0.5327	0.8043	0.1103	0.077
Mof_H 	H 	0.4073	0.7897	0.18	0.041
Mof_H 	H 	0.5602	0.2038	0.2057	0.043
Mof_H 	H 	0.4502	0.2499	0.1305	0.058
Mof_H 	H 	0.6891	0.5694	0.0349	0.025
Mof_H 	H 	0.8043	0.5327	0.1103	0.077
Mof_H 	H 	0.7897	0.4073	0.18	0.041
Mof_H 	H 	0.9398	0.2962	0.2057	0.055
Mof_H 	H 	0.0498	0.2501	0.1305	0.028
Mof_H 	H 	0.8109	0.9306	0.0349	0.002
Mof_H 	H 	0.6957	0.9673	0.1103	0.123
Mof_H 	H 	0.7103	0.0927	0.18	0.019
Mof_H 	H 	0.2962	0.5602	0.7057	0.044
Mof_H 	H 	0.2501	0.4502	0.6305	0.061
Mof_H 	H 	0.9306	0.6891	0.5349	0.012
Mof_H 	H 	0.9673	0.8043	0.6103	0.126
Mof_H 	H 	0.0927	0.7897	0.68	0.021
Mof_H 	H 	0.2038	0.9398	0.7057	0.055
Mof_H 	H 	0.2499	0.0498	0.6305	0.033
Mof_H 	H 	0.5694	0.8109	0.5349	0.037
Mof_H 	H 	0.5327	0.6957	0.6103	0.077
Mof_H 	H 	0.4073	0.7103	0.68	0.041
Mof_H 	H 	0.4398	0.7038	0.2943	0.043
Mof_H 	H 	0.5498	0.7499	0.3695	0.063
Mof_H 	H 	0.3109	0.0694	0.4651	0.064
Mof_H 	H 	0.1957	0.0327	0.3897	0.019
Mof_H 	H 	0.2103	0.9073	0.32	0.065
Mof_H 	H 	0.0602	0.7962	0.2943	0.034
Mof_H 	H 	0.9502	0.7501	0.3695	0.088
Mof_H 	H 	0.1891	0.4306	0.4651	0.035
Mof_H 	H 	0.3043	0.4673	0.3897	0.077
Mof_H 	H 	0.2897	0.5927	0.32	0.042
Mof_H 	H 	0.7038	0.0602	0.7943	0.034
Mof_H 	H 	0.7499	0.9502	0.8695	0.092
Mof_H 	H 	0.0694	0.1891	0.9651	0.075
Mof_H 	H 	0.0327	0.3043	0.8897	0.025
Mof_H 	H 	0.9073	0.2897	0.82	0.066
Mof_H 	H 	0.7962	0.4398	0.7943	0.044
Mof_H 	H 	0.7501	0.5498	0.8695	0.067
Mof_H 	H 	0.4306	0.3109	0.9651	0.048
Mof_H 	H 	0.4673	0.1957	0.8897	0.077
Mof_H 	H 	0.5927	0.2103	0.82	0.042
Mof_C 	C 	0.4284	0.7446	0.8214	0.012
Mof_C 	C 	0.4952	0.7166	0.8667	0.031
Mof_C 	C 	0.3184	0.4812	0.9363	0.051
Mof_C 	C 	0.2488	0.5033	0.8915	-0.042
Mof_C 	C 	0.2573	0.5768	0.8503	-0.053
Mof_C 	C 	0.3374	0.6287	0.8537	0.042
Mof_C 	C 	0.4045	0.6013	0.8992	0.113
Mof_C 	C 	0.0716	0.7554	0.8214	0.029
Mof_C 	C 	0.0048	0.7834	0.8667	-0.01
Mof_C 	C 	0.1816	0.0188	0.9363	-0.045
Mof_C 	C 	0.2512	0.9967	0.8915	0.078
Mof_C 	C 	0.2427	0.9232	0.8503	-0.114
Mof_C 	C 	0.1626	0.8713	0.8537	0.071
Mof_C 	C 	0.0955	0.8987	0.8992	0.101
Mof_C 	C 	0.7554	0.4284	0.3214	0.011
Mof_C 	C 	0.7834	0.4952	0.3667	0.027
Mof_C 	C 	0.0188	0.3184	0.4363	-0.049
Mof_C 	C 	0.9967	0.2488	0.3915	0.077
Mof_C 	C 	0.9232	0.2573	0.3503	-0.117
Mof_C 	C 	0.8713	0.3374	0.3537	0.068
Mof_C 	C 	0.8987	0.4045	0.3992	0.097
Mof_C 	C 	0.7446	0.0716	0.3214	0.026
Mof_C 	C 	0.7166	0.0048	0.3667	-0.013
Mof_C 	C 	0.4812	0.1816	0.4363	0.049
Mof_C 	C 	0.5033	0.2512	0.3915	-0.047
Mof_C 	C 	0.5768	0.2427	0.3503	-0.055
Mof_C 	C 	0.6287	0.1626	0.3537	0.042
Mof_C 	C 	0.6013	0.0955	0.3992	0.104
Mof_C 	C 	0.5716	0.2446	0.6786	0.007
Mof_C 	C 	0.5048	0.2166	0.6333	0.028
Mof_C 	C 	0.6816	0.9812	0.5637	0.135
Mof_C 	C 	0.7512	0.0033	0.6085	-0.153
Mof_C 	C 	0.7427	0.0768	0.6497	0.001
Mof_C 	C 	0.6626	0.1287	0.6463	0.016
Mof_C 	C 	0.5955	0.1013	0.6008	0.116
Mof_C 	C 	0.9284	0.2554	0.6786	-0.011
Mof_C 	C 	0.9952	0.2834	0.6333	0.074
Mof_C 	C 	0.8184	0.5188	0.5637	0.05
Mof_C 	C 	0.7488	0.4967	0.6085	-0.048
Mof_C 	C 	0.7573	0.4232	0.6497	-0.052
Mof_C 	C 	0.8374	0.3713	0.6463	0.038
Mof_C 	C 	0.9045	0.3987	0.6008	0.11
Mof_C 	C 	0.2446	0.9284	0.1786	-0.014
Mof_C 	C 	0.2166	0.9952	0.1333	0.072
Mof_C 	C 	0.9812	0.8184	0.0637	0.131
Mof_C 	C 	0.0033	0.7488	0.1085	-0.158
Mof_C 	C 	0.0768	0.7573	0.1497	0
Mof_C 	C 	0.1287	0.8374	0.1463	0.012
Mof_C 	C 	0.1013	0.9045	0.1008	0.114
Mof_C 	C 	0.2554	0.5716	0.1786	0.006
Mof_C 	C 	0.2834	0.5048	0.1333	0.024
Mof_C 	C 	0.5188	0.6816	0.0637	0.048
Mof_C 	C 	0.4967	0.7512	0.1085	-0.051
Mof_C 	C 	0.4232	0.7427	0.1497	-0.054
Mof_C 	C 	0.3713	0.6626	0.1463	0.038
Mof_C 	C 	0.3987	0.5955	0.1008	0.102
Mof_C 	C 	0.5716	0.2554	0.1786	0.006
Mof_C 	C 	0.5048	0.2834	0.1333	0.024
Mof_C 	C 	0.6816	0.5188	0.0637	0.048
Mof_C 	C 	0.7512	0.4967	0.1085	-0.051
Mof_C 	C 	0.7427	0.4232	0.1497	-0.054
Mof_C 	C 	0.6626	0.3713	0.1463	0.038
Mof_C 	C 	0.5955	0.3987	0.1008	0.102
Mof_C 	C 	0.9284	0.2446	0.1786	-0.014
Mof_C 	C 	0.9952	0.2166	0.1333	0.072
Mof_C 	C 	0.8184	0.9812	0.0637	0.131
Mof_C 	C 	0.7488	0.0033	0.1085	-0.158
Mof_C 	C 	0.7573	0.0768	0.1497	0
Mof_C 	C 	0.8374	0.1287	0.1463	0.012
Mof_C 	C 	0.9045	0.1013	0.1008	0.114
Mof_C 	C 	0.2446	0.5716	0.6786	0.007
Mof_C 	C 	0.2166	0.5048	0.6333	0.028
Mof_C 	C 	0.9812	0.6816	0.5637	0.135
Mof_C 	C 	0.0033	0.7512	0.6085	-0.153
Mof_C 	C 	0.0768	0.7427	0.6497	0.001
Mof_C 	C 	0.1287	0.6626	0.6463	0.016
Mof_C 	C 	0.1013	0.5955	0.6008	0.116
Mof_C 	C 	0.2554	0.9284	0.6786	-0.011
Mof_C 	C 	0.2834	0.9952	0.6333	0.074
Mof_C 	C 	0.5188	0.8184	0.5637	0.05
Mof_C 	C 	0.4967	0.7488	0.6085	-0.048
Mof_C 	C 	0.4232	0.7573	0.6497	-0.052
Mof_C 	C 	0.3713	0.8374	0.6463	0.038
Mof_C 	C 	0.3987	0.9045	0.6008	0.11
Mof_C 	C 	0.4284	0.7554	0.3214	0.011
Mof_C 	C 	0.4952	0.7834	0.3667	0.027
Mof_C 	C 	0.3184	0.0188	0.4363	-0.049
Mof_C 	C 	0.2488	0.9967	0.3915	0.077
Mof_C 	C 	0.2573	0.9232	0.3503	-0.117
Mof_C 	C 	0.3374	0.8713	0.3537	0.068
Mof_C 	C 	0.4045	0.8987	0.3992	0.097
Mof_C 	C 	0.0716	0.7446	0.3214	0.026
Mof_C 	C 	0.0048	0.7166	0.3667	-0.013
Mof_C 	C 	0.1816	0.4812	0.4363	0.049
Mof_C 	C 	0.2512	0.5033	0.3915	-0.047
Mof_C 	C 	0.2427	0.5768	0.3503	-0.055
Mof_C 	C 	0.1626	0.6287	0.3537	0.042
Mof_C 	C 	0.0955	0.6013	0.3992	0.104
Mof_C 	C 	0.7554	0.0716	0.8214	0.029
Mof_C 	C 	0.7834	0.0048	0.8667	-0.01
Mof_C 	C 	0.0188	0.1816	0.9363	-0.045
Mof_C 	C 	0.9967	0.2512	0.8915	0.078
Mof_C 	C 	0.9232	0.2427	0.8503	-0.114
Mof_C 	C 	0.8713	0.1626	0.8537	0.071
Mof_C 	C 	0.8987	0.0955	0.8992	0.101
Mof_C 	C 	0.7446	0.4284	0.8214	0.012
Mof_C 	C 	0.7166	0.4952	0.8667	0.031
Mof_C 	C 	0.4812	0.3184	0.9363	0.051
Mof_C 	C 	0.5033	0.2488	0.8915	-0.042
Mof_C 	C 	0.5768	0.2573	0.8503	-0.053
Mof_C 	C 	0.6287	0.3374	0.8537	0.042
Mof_C 	C 	0.6013	0.4045	0.8992	0.113
Mof_N 	N 	0.3496	0.7023	0.8144	-0.205
Mof_N 	N 	0.4845	0.6446	0.906	-0.128
Mof_N 	N 	0.3941	0.5284	0.9397	-0.203
Mof_N 	N 	0.1504	0.7977	0.8144	-0.213
Mof_N 	N 	0.0155	0.8554	0.906	-0.122
Mof_N 	N 	0.1059	0.9716	0.9397	-0.173
Mof_N 	N 	0.7977	0.3496	0.3144	-0.21
Mof_N 	N 	0.8554	0.4845	0.406	-0.133
Mof_N 	N 	0.9716	0.3941	0.4397	-0.183
Mof_N 	N 	0.7023	0.1504	0.3144	-0.209
Mof_N 	N 	0.6446	0.0155	0.406	-0.135
Mof_N 	N 	0.5284	0.1059	0.4397	-0.216
Mof_N 	N 	0.6504	0.2023	0.6856	-0.201
Mof_N 	N 	0.5155	0.1446	0.594	-0.141
Mof_N 	N 	0.6059	0.0284	0.5603	-0.241
Mof_N 	N 	0.8496	0.2977	0.6856	-0.202
Mof_N 	N 	0.9845	0.3554	0.594	-0.139
Mof_N 	N 	0.8941	0.4716	0.5603	-0.212
Mof_N 	N 	0.2023	0.8496	0.1856	-0.198
Mof_N 	N 	0.1446	0.9845	0.094	-0.149
Mof_N 	N 	0.0284	0.8941	0.0603	-0.243
Mof_N 	N 	0.2977	0.6504	0.1856	-0.206
Mof_N 	N 	0.3554	0.5155	0.094	-0.144
Mof_N 	N 	0.4716	0.6059	0.0603	-0.221
Mof_N 	N 	0.6504	0.2977	0.1856	-0.206
Mof_N 	N 	0.5155	0.3554	0.094	-0.144
Mof_N 	N 	0.6059	0.4716	0.0603	-0.221
Mof_N 	N 	0.8496	0.2023	0.1856	-0.198
Mof_N 	N 	0.9845	0.1446	0.094	-0.149
Mof_N 	N 	0.8941	0.0284	0.0603	-0.243
Mof_N 	N 	0.2023	0.6504	0.6856	-0.201
Mof_N 	N 	0.1446	0.5155	0.594	-0.141
Mof_N 	N 	0.0284	0.6059	0.5603	-0.241
Mof_N 	N 	0.2977	0.8496	0.6856	-0.202
Mof_N 	N 	0.3554	0.9845	0.594	-0.139
Mof_N 	N 	0.4716	0.8941	0.5603	-0.212
Mof_N 	N 	0.3496	0.7977	0.3144	-0.21
Mof_N 	N 	0.4845	0.8554	0.406	-0.133
Mof_N 	N 	0.3941	0.9716	0.4397	-0.183
Mof_N 	N 	0.1504	0.7023	0.3144	-0.209
Mof_N 	N 	0.0155	0.6446	0.406	-0.135
Mof_N 	N 	0.1059	0.5284	0.4397	-0.216
Mof_N 	N 	0.7977	0.1504	0.8144	-0.213
Mof_N 	N 	0.8554	0.0155	0.906	-0.122
Mof_N 	N 	0.9716	0.1059	0.9397	-0.173
Mof_N 	N 	0.7023	0.3496	0.8144	-0.205
Mof_N 	N 	0.6446	0.4845	0.906	-0.128
Mof_N 	N 	0.5284	0.3941	0.9397	-0.203
Mof_Cl	Cl	0.75	0.75	0.98	-0.139
Mof_O 	O 	0.8018	0.6982	0.0306	-0.08
Mof_O 	O 	0.6982	0.8018	0.0306	-0.08
Mof_O 	O 	0.8086	0.8086	0.949	-0.023
Mof_O 	O 	0.6914	0.6914	0.949	-0.028
Mof_Cl	Cl	0.75	0.75	0.48	-0.217
Mof_O 	O 	0.8018	0.8018	0.5306	-0.039
Mof_O 	O 	0.6982	0.6982	0.5306	-0.043
Mof_O 	O 	0.6914	0.8086	0.449	-0.03
Mof_O 	O 	0.8086	0.6914	0.449	-0.03
Mof_Cl	Cl	0.25	0.25	0.52	-0.215
Mof_O 	O 	0.1982	0.1982	0.4694	-0.049
Mof_O 	O 	0.3018	0.3018	0.4694	-0.045
Mof_O 	O 	0.1914	0.3086	0.551	-0.038
Mof_O 	O 	0.3086	0.1914	0.551	-0.038
Mof_Cl	Cl	0.25	0.25	0.02	-0.294
Mof_O 	O 	0.1982	0.3018	0.9694	-0.006
Mof_O 	O 	0.3018	0.1982	0.9694	-0.006
Mof_O 	O 	0.3086	0.3086	0.051	-0.039
Mof_O 	O 	0.1914	0.1914	0.051	-0.045
Mof_Cl	Cl	0.48602	0.48602	0.72802	-0.221
Mof_O 	O 	0.4623	0.5743	0.7294	-0.033
Mof_O 	O 	0.5743	0.4623	0.7294	-0.033
Mof_O 	O 	0.4528	0.4528	0.7923	-0.032
Mof_O 	O 	0.434	0.434	0.6788	-0.036
Mof_Cl	Cl	0.01398	0.01398	0.72802	-0.27
Mof_O 	O 	0.0377	0.9257	0.7294	-0.013
Mof_O 	O 	0.9257	0.0377	0.7294	-0.013
Mof_O 	O 	0.0472	0.0472	0.7923	-0.038
Mof_O 	O 	0.066	0.066	0.6788	-0.041
Mof_Cl	Cl	0.01398	0.48602	0.22802	-0.243
Mof_O 	O 	0.9257	0.4623	0.2294	-0.016
Mof_O 	O 	0.0377	0.5743	0.2294	-0.033
Mof_O 	O 	0.0472	0.4528	0.2923	-0.035
Mof_O 	O 	0.066	0.434	0.1788	-0.044
Mof_Cl	Cl	0.48602	0.01398	0.22802	-0.243
Mof_O 	O 	0.5743	0.0377	0.2294	-0.033
Mof_O 	O 	0.4623	0.9257	0.2294	-0.016
Mof_O 	O 	0.4528	0.0472	0.2923	-0.035
Mof_O 	O 	0.434	0.066	0.1788	-0.044
Mof_Cl	Cl	0.51398	0.98602	0.77198	-0.2
Mof_O 	O 	0.5377	0.0743	0.7706	-0.048
Mof_O 	O 	0.4257	0.9623	0.7706	-0.031
Mof_O 	O 	0.5472	0.9528	0.7077	-0.028
Mof_O 	O 	0.566	0.934	0.8212	-0.029
Mof_Cl	Cl	0.98602	0.51398	0.77198	-0.2
Mof_O 	O 	0.9623	0.4257	0.7706	-0.031
Mof_O 	O 	0.0743	0.5377	0.7706	-0.048
Mof_O 	O 	0.9528	0.5472	0.7077	-0.028
Mof_O 	O 	0.934	0.566	0.8212	-0.029
Mof_Cl	Cl	0.98602	0.98602	0.27198	-0.183
Mof_O 	O 	0.0743	0.9623	0.2706	-0.046
Mof_O 	O 	0.9623	0.0743	0.2706	-0.046
Mof_O 	O 	0.9528	0.9528	0.2077	-0.024
Mof_O 	O 	0.934	0.934	0.3212	-0.031
Mof_Cl	Cl	0.51398	0.51398	0.27198	-0.221
Mof_O 	O 	0.4257	0.5377	0.2706	-0.032
Mof_O 	O 	0.5377	0.4257	0.2706	-0.032
Mof_O 	O 	0.5472	0.5472	0.2077	-0.03
Mof_O 	O 	0.566	0.566	0.3212	-0.035
_end
