data_functionalizedCrystal
_audit_creation_method	'EQeq! by Chris Wilmer'
_symmetry_space_group_name_H-M	'P1'
_symmetry_Int_Tables_number	1
_symmetry_cell_setting	triclinic
loop_
_symmetry_equiv_pos_as_xyz
  x,y,z
_cell_length_a	16.687
_cell_length_b	14.7395
_cell_length_c	17.5737
_cell_angle_alpha	90
_cell_angle_beta	90
_cell_angle_gamma	90
loop_
_atom_site_label
_atom_site_type_symbol
_atom_site_fract_x
_atom_site_fract_y
_atom_site_fract_z
_atom_site_charge
Mof_P 	P 	0.85491	0.41238	0.6	0.589
Mof_P 	P 	0.84361	0.11696	0.63098	0.603
Mof_O 	O 	0.7789	0.4199	0.5544	-1.103
Mof_O 	O 	0.8498	0.0649	0.5561	-0.84
Mof_O 	O 	0.7696	0.0905	0.6695	-0.65
Mof_O 	O 	0.8534	0.4599	0.6719	-0.697
Mof_O 	O 	0.9195	0.0993	0.6718	-0.519
Mof_O 	O 	0.939	0.42	0.5727	-0.076
Mof_O 	O 	0.5929	0.0477	0.0391	-0.217
Mof_C 	C 	0.817	0.2335	0.6274	0.093
Mof_C 	C 	0.8712	0.2911	0.5862	0.162
Mof_C 	C 	0.648	0.2004	0.1493	-0.498
Mof_C 	C 	0.8514	0.2248	0.9145	-0.191
Mof_P 	P 	0.35491	0.91238	0.6	0.553
Mof_P 	P 	0.34361	0.61696	0.63098	0.647
Mof_O 	O 	0.2789	0.9199	0.5544	-0.737
Mof_O 	O 	0.3498	0.5649	0.5561	-1.035
Mof_O 	O 	0.2696	0.5905	0.6695	-0.629
Mof_O 	O 	0.3534	0.9599	0.6719	-0.593
Mof_O 	O 	0.4195	0.5993	0.6718	-0.585
Mof_O 	O 	0.439	0.92	0.5727	-0.164
Mof_O 	O 	0.0929	0.5477	0.0391	-0.083
Mof_C 	C 	0.317	0.7335	0.6274	0.056
Mof_C 	C 	0.3712	0.7911	0.5862	0.092
Mof_C 	C 	0.148	0.7004	0.1493	-0.358
Mof_C 	C 	0.3514	0.7248	0.9145	-0.162
Mof_P 	P 	0.14509	0.58762	0.1	0.587
Mof_P 	P 	0.15639	0.88304	0.13098	0.563
Mof_O 	O 	0.2211	0.5801	0.0544	-0.974
Mof_O 	O 	0.1502	0.9351	0.0561	-0.576
Mof_O 	O 	0.2304	0.9095	0.1695	-0.539
Mof_O 	O 	0.1466	0.5401	0.1719	-0.737
Mof_O 	O 	0.0805	0.9007	0.1718	-0.599
Mof_O 	O 	0.061	0.58	0.0727	-0.25
Mof_O 	O 	0.4071	0.9523	0.5391	0.12
Mof_C 	C 	0.183	0.7665	0.1274	0.23
Mof_C 	C 	0.1288	0.7089	0.0862	0.161
Mof_C 	C 	0.352	0.7996	0.6493	-0.198
Mof_C 	C 	0.1486	0.7752	0.4145	-0.338
Mof_P 	P 	0.64509	0.08762	0.1	0.549
Mof_P 	P 	0.65639	0.38304	0.13098	0.618
Mof_O 	O 	0.7211	0.0801	0.0544	-0.795
Mof_O 	O 	0.6502	0.4351	0.0561	-0.906
Mof_O 	O 	0.7304	0.4095	0.1695	-0.631
Mof_O 	O 	0.6466	0.0401	0.1719	-0.917
Mof_O 	O 	0.5805	0.4007	0.1718	-0.601
Mof_O 	O 	0.561	0.08	0.0727	-0.285
Mof_O 	O 	0.9071	0.4523	0.5391	0.042
Mof_C 	C 	0.683	0.2665	0.1274	0.345
Mof_C 	C 	0.6288	0.2089	0.0862	0.31
Mof_C 	C 	0.852	0.2996	0.6493	-0.249
Mof_C 	C 	0.6486	0.2752	0.4145	-0.491
Mof_P 	P 	0.14509	0.41238	0.9	0.569
Mof_P 	P 	0.15639	0.11696	0.86902	0.573
Mof_O 	O 	0.2211	0.4199	0.9456	-0.826
Mof_O 	O 	0.1502	0.0649	0.9439	-0.621
Mof_O 	O 	0.2304	0.0905	0.8305	-0.628
Mof_O 	O 	0.1466	0.4599	0.8281	-0.729
Mof_O 	O 	0.0805	0.0993	0.8282	-0.653
Mof_O 	O 	0.061	0.42	0.9273	-0.316
Mof_O 	O 	0.4071	0.0477	0.4609	-0.105
Mof_C 	C 	0.183	0.2335	0.8726	0.3
Mof_C 	C 	0.1288	0.2911	0.9138	0.291
Mof_C 	C 	0.352	0.2004	0.3507	-0.485
Mof_C 	C 	0.1486	0.2248	0.5855	-0.434
Mof_P 	P 	0.64509	0.91238	0.9	0.518
Mof_P 	P 	0.65639	0.61696	0.86902	0.61
Mof_O 	O 	0.7211	0.9199	0.9456	-0.456
Mof_O 	O 	0.6502	0.5649	0.9439	-0.749
Mof_O 	O 	0.7304	0.5905	0.8305	-0.581
Mof_O 	O 	0.6466	0.9599	0.8281	-0.57
Mof_O 	O 	0.5805	0.5993	0.8282	-0.566
Mof_O 	O 	0.561	0.92	0.9273	-0.208
Mof_O 	O 	0.9071	0.5477	0.4609	0.042
Mof_C 	C 	0.683	0.7335	0.8726	0.133
Mof_C 	C 	0.6288	0.7911	0.9138	0.184
Mof_C 	C 	0.852	0.7004	0.3507	-0.219
Mof_C 	C 	0.6486	0.7248	0.5855	-0.225
Mof_P 	P 	0.85491	0.58762	0.4	0.593
Mof_P 	P 	0.84361	0.88304	0.36902	0.589
Mof_O 	O 	0.7789	0.5801	0.4456	-1.097
Mof_O 	O 	0.8498	0.9351	0.4439	-0.638
Mof_O 	O 	0.7696	0.9095	0.3305	-0.534
Mof_O 	O 	0.8534	0.5401	0.3281	-0.698
Mof_O 	O 	0.9195	0.9007	0.3282	-0.447
Mof_O 	O 	0.939	0.58	0.4273	-0.069
Mof_O 	O 	0.5929	0.9523	0.9609	0.197
Mof_C 	C 	0.817	0.7665	0.3726	0.036
Mof_C 	C 	0.8712	0.7089	0.4138	0.124
Mof_C 	C 	0.648	0.7996	0.8507	-0.244
Mof_C 	C 	0.8514	0.7752	0.0855	-0.169
Mof_P 	P 	0.35491	0.08762	0.4	0.569
Mof_P 	P 	0.34361	0.38304	0.36902	0.649
Mof_O 	O 	0.2789	0.0801	0.4456	-0.923
Mof_O 	O 	0.3498	0.4351	0.4439	-1.03
Mof_O 	O 	0.2696	0.4095	0.3305	-0.652
Mof_O 	O 	0.3534	0.0401	0.3281	-0.934
Mof_O 	O 	0.4195	0.4007	0.3282	-0.596
Mof_O 	O 	0.439	0.08	0.4273	-0.296
Mof_O 	O 	0.0929	0.4523	0.9609	0.107
Mof_C 	C 	0.317	0.2665	0.3726	0.277
Mof_C 	C 	0.3712	0.2089	0.4138	0.31
Mof_C 	C 	0.148	0.2996	0.8507	-0.423
Mof_C 	C 	0.3514	0.2752	0.0855	-0.497
Mof_P 	P 	0.14509	0.58762	0.4	0.611
Mof_P 	P 	0.15639	0.88304	0.36902	0.593
Mof_O 	O 	0.2211	0.5801	0.4456	-1.107
Mof_O 	O 	0.1502	0.9351	0.4439	-0.686
Mof_O 	O 	0.2304	0.9095	0.3305	-0.549
Mof_O 	O 	0.1466	0.5401	0.3281	-0.749
Mof_O 	O 	0.0805	0.9007	0.3282	-0.595
Mof_O 	O 	0.061	0.58	0.4273	-0.263
Mof_O 	O 	0.4071	0.9523	0.9609	0.197
Mof_C 	C 	0.183	0.7665	0.3726	0.214
Mof_C 	C 	0.1288	0.7089	0.4138	0.188
Mof_C 	C 	0.352	0.7996	0.8507	-0.225
Mof_C 	C 	0.1486	0.7752	0.0855	-0.383
Mof_P 	P 	0.64509	0.08762	0.4	0.572
Mof_P 	P 	0.65639	0.38304	0.36902	0.651
Mof_O 	O 	0.7211	0.0801	0.4456	-0.924
Mof_O 	O 	0.6502	0.4351	0.4439	-1.034
Mof_O 	O 	0.7304	0.4095	0.3305	-0.644
Mof_O 	O 	0.6466	0.0401	0.3281	-0.929
Mof_O 	O 	0.5805	0.4007	0.3282	-0.597
Mof_O 	O 	0.561	0.08	0.4273	-0.297
Mof_O 	O 	0.9071	0.4523	0.9609	0.124
Mof_C 	C 	0.683	0.2665	0.3726	0.326
Mof_C 	C 	0.6288	0.2089	0.4138	0.337
Mof_C 	C 	0.852	0.2996	0.8507	-0.276
Mof_C 	C 	0.6486	0.2752	0.0855	-0.539
Mof_P 	P 	0.85491	0.41238	0.9	0.55
Mof_P 	P 	0.84361	0.11696	0.86902	0.567
Mof_O 	O 	0.7789	0.4199	0.9456	-0.808
Mof_O 	O 	0.8498	0.0649	0.9439	-0.562
Mof_O 	O 	0.7696	0.0905	0.8305	-0.611
Mof_O 	O 	0.8534	0.4599	0.8281	-0.676
Mof_O 	O 	0.9195	0.0993	0.8282	-0.501
Mof_O 	O 	0.939	0.42	0.9273	-0.119
Mof_O 	O 	0.5929	0.0477	0.4609	-0.107
Mof_C 	C 	0.817	0.2335	0.8726	0.119
Mof_C 	C 	0.8712	0.2911	0.9138	0.225
Mof_C 	C 	0.648	0.2004	0.3507	-0.503
Mof_C 	C 	0.8514	0.2248	0.5855	-0.212
Mof_P 	P 	0.35491	0.91238	0.9	0.518
Mof_P 	P 	0.34361	0.61696	0.86902	0.61
Mof_O 	O 	0.2789	0.9199	0.9456	-0.466
Mof_O 	O 	0.3498	0.5649	0.9439	-0.753
Mof_O 	O 	0.2696	0.5905	0.8305	-0.59
Mof_O 	O 	0.3534	0.9599	0.8281	-0.576
Mof_O 	O 	0.4195	0.5993	0.8282	-0.567
Mof_O 	O 	0.439	0.92	0.9273	-0.207
Mof_O 	O 	0.0929	0.5477	0.4609	0.028
Mof_C 	C 	0.317	0.7335	0.8726	0.082
Mof_C 	C 	0.3712	0.7911	0.9138	0.155
Mof_C 	C 	0.148	0.7004	0.3507	-0.364
Mof_C 	C 	0.3514	0.7248	0.5855	-0.184
Mof_P 	P 	0.85491	0.58762	0.1	0.569
Mof_P 	P 	0.84361	0.88304	0.13098	0.558
Mof_O 	O 	0.7789	0.5801	0.0544	-0.96
Mof_O 	O 	0.8498	0.9351	0.0561	-0.524
Mof_O 	O 	0.7696	0.9095	0.1695	-0.523
Mof_O 	O 	0.8534	0.5401	0.1719	-0.687
Mof_O 	O 	0.9195	0.9007	0.1718	-0.453
Mof_O 	O 	0.939	0.58	0.0727	-0.06
Mof_O 	O 	0.5929	0.9523	0.5391	0.119
Mof_C 	C 	0.817	0.7665	0.1274	0.056
Mof_C 	C 	0.8712	0.7089	0.0862	0.096
Mof_C 	C 	0.648	0.7996	0.6493	-0.216
Mof_C 	C 	0.8514	0.7752	0.4145	-0.118
Mof_P 	P 	0.35491	0.08762	0.1	0.549
Mof_P 	P 	0.34361	0.38304	0.13098	0.617
Mof_O 	O 	0.2789	0.0801	0.0544	-0.8
Mof_O 	O 	0.3498	0.4351	0.0561	-0.908
Mof_O 	O 	0.2696	0.4095	0.1695	-0.639
Mof_O 	O 	0.3534	0.0401	0.1719	-0.921
Mof_O 	O 	0.4195	0.4007	0.1718	-0.601
Mof_O 	O 	0.439	0.08	0.0727	-0.285
Mof_O 	O 	0.0929	0.4523	0.5391	0.029
Mof_C 	C 	0.317	0.2665	0.1274	0.297
Mof_C 	C 	0.3712	0.2089	0.0862	0.283
Mof_C 	C 	0.148	0.2996	0.6493	-0.397
Mof_C 	C 	0.3514	0.2752	0.4145	-0.45
Mof_P 	P 	0.14509	0.41238	0.6	0.607
Mof_P 	P 	0.15639	0.11696	0.63098	0.608
Mof_O 	O 	0.2211	0.4199	0.5544	-1.111
Mof_O 	O 	0.1502	0.0649	0.5561	-0.887
Mof_O 	O 	0.2304	0.0905	0.6695	-0.666
Mof_O 	O 	0.1466	0.4599	0.6719	-0.748
Mof_O 	O 	0.0805	0.0993	0.6718	-0.671
Mof_O 	O 	0.061	0.42	0.5727	-0.272
Mof_O 	O 	0.4071	0.0477	0.0391	-0.215
Mof_C 	C 	0.183	0.2335	0.6274	0.274
Mof_C 	C 	0.1288	0.2911	0.5862	0.228
Mof_C 	C 	0.352	0.2004	0.1493	-0.481
Mof_C 	C 	0.1486	0.2248	0.9145	-0.414
Mof_P 	P 	0.64509	0.91238	0.6	0.555
Mof_P 	P 	0.65639	0.61696	0.63098	0.649
Mof_O 	O 	0.7211	0.9199	0.5544	-0.737
Mof_O 	O 	0.6502	0.5649	0.5561	-1.038
Mof_O 	O 	0.7304	0.5905	0.6695	-0.621
Mof_O 	O 	0.6466	0.9599	0.6719	-0.589
Mof_O 	O 	0.5805	0.5993	0.6718	-0.585
Mof_O 	O 	0.561	0.92	0.5727	-0.165
Mof_O 	O 	0.9071	0.5477	0.0391	-0.074
Mof_C 	C 	0.683	0.7335	0.6274	0.106
Mof_C 	C 	0.6288	0.7911	0.5862	0.119
Mof_C 	C 	0.852	0.7004	0.1493	-0.215
Mof_C 	C 	0.6486	0.7248	0.9145	-0.204
Mof_Ga	Ga	0.72073	0.5	0.5	3.841
Mof_Ga	Ga	0.22073	0	0.5	2.586
Mof_Ga	Ga	0.27927	0.5	-0	2.906
Mof_Ga	Ga	0.77927	0	-0	1.762
Mof_Ga	Ga	0.27927	0.5	0.5	3.807
Mof_Ga	Ga	0.77927	0	0.5	2.644
Mof_Ga	Ga	0.72073	0.5	-0	2.91
Mof_Ga	Ga	0.22073	0	-0	1.743
Mof_V 	V 	0.27647	0.0124	0.75	1.622
Mof_O 	O 	0.3744	0.1228	0.75	-0.72
Mof_V 	V 	0.77647	0.5124	0.75	1.712
Mof_O 	O 	0.8744	0.6228	0.75	-0.394
Mof_V 	V 	0.72353	0.9876	0.25	1.805
Mof_O 	O 	0.6256	0.8772	0.25	-0.381
Mof_V 	V 	0.22353	0.4876	0.25	1.71
Mof_O 	O 	0.1256	0.3772	0.25	-0.562
Mof_V 	V 	0.72353	0.0124	0.75	1.628
Mof_O 	O 	0.6256	0.1228	0.75	-0.717
Mof_V 	V 	0.22353	0.5124	0.75	1.712
Mof_O 	O 	0.1256	0.6228	0.75	-0.506
Mof_V 	V 	0.27647	0.9876	0.25	1.799
Mof_O 	O 	0.3744	0.8772	0.25	-0.384
Mof_V 	V 	0.77647	0.4876	0.25	1.71
Mof_O 	O 	0.8744	0.3772	0.25	-0.454
Mof_V 	V 	2.96147e-33	0.1268	0.75	1.622
Mof_V 	V 	0.5	0.6268	0.75	1.715
Mof_V 	V 	9.74743e-33	0.8732	0.25	1.636
Mof_V 	V 	0.5	0.3732	0.25	1.693
Mof_K 	K 	0.5	0.0407	0.25	3.656
Mof_K 	K 	0.5	0.9805	0.25	-0.528
Mof_K 	K 	-1.93293e-33	0.5407	0.25	1.339
Mof_K 	K 	-1.93293e-33	0.4805	0.25	0.981
Mof_K 	K 	0.5	0.9593	0.75	-0.284
Mof_K 	K 	0.5	0.0195	0.75	3.177
Mof_K 	K 	2.96147e-33	0.4593	0.75	1.401
Mof_K 	K 	2.96147e-33	0.5195	0.75	0.974
Mof_K 	K 	1.97432e-33	0.5	0.5	-1.898
Mof_K 	K 	0.5	0	0.5	-1.487
Mof_K 	K 	-5.84018e-33	0.5	-0	-1.452
Mof_K 	K 	0.5	0	-0	-1.042
Mof_O 	O 	0.5	0.0124	0.9833	-0.212
Mof_O 	O 	3.88269e-33	0.5124	0.9833	1.067
Mof_O 	O 	0.5	0.9876	0.4833	1.613
Mof_O 	O 	1.90837e-33	0.4876	0.4833	0.362
Mof_O 	O 	0.5	0.0124	0.5167	-0.931
Mof_O 	O 	7.88044e-33	0.5124	0.5167	0.392
Mof_O 	O 	0.5	0.9876	0.0167	0.665
Mof_O 	O 	-3.40166e-33	0.4876	0.0167	-0.536
_end
