data_functionalizedCrystal
_audit_creation_method	'EQeq! by Chris Wilmer'
_symmetry_space_group_name_H-M	'P1'
_symmetry_Int_Tables_number	1
_symmetry_cell_setting	triclinic
loop_
_symmetry_equiv_pos_as_xyz
  x,y,z
_cell_length_a	24.257
_cell_length_b	24.257
_cell_length_c	15.025
_cell_angle_alpha	90
_cell_angle_beta	90
_cell_angle_gamma	90
loop_
_atom_site_label
_atom_site_type_symbol
_atom_site_fract_x
_atom_site_fract_y
_atom_site_fract_z
_atom_site_charge
Mof_O 	O 	0.35189	0.05427	0.0865	-0.637
Mof_O 	O 	0.41703	0.1028	0.1645	-0.743
Mof_C 	C 	0.3666	0.093	0.1393	0.523
Mof_C 	C 	0.323	0.1287	0.1744	-0.217
Mof_C 	C 	0.2711	0.1293	0.1353	0.175
Mof_H 	H 	0.2631	0.1043	0.0884	0.061
Mof_C 	C 	0.2303	0.1664	0.164	-0.188
Mof_C 	C 	0.3346	0.1651	0.2429	0.135
Mof_H 	H 	0.37	0.1648	0.27	-0.018
Mof_C 	C 	0.2432	0.203	0.2331	0.139
Mof_C 	C 	0.2944	0.2025	0.2725	-0.157
Mof_H 	H 	0.3025	0.2274	0.3195	0.097
Mof_C 	C 	0.1754	0.1632	0.1147	0.869
Mof_F 	F 	0.1322	0.1512	0.1667	-0.371
Mof_F 	F 	0.1627	0.2105	0.0734	-0.421
Mof_F 	F 	0.1763	0.1244	0.0513	-0.361
Mof_O 	O 	0.64811	0.94573	0.0865	-0.62
Mof_O 	O 	0.58297	0.8972	0.1645	-0.737
Mof_C 	C 	0.6334	0.907	0.1393	0.52
Mof_C 	C 	0.677	0.8713	0.1744	-0.21
Mof_C 	C 	0.7289	0.8707	0.1353	0.172
Mof_H 	H 	0.7369	0.8957	0.0884	0.067
Mof_C 	C 	0.7697	0.8336	0.164	-0.183
Mof_C 	C 	0.6654	0.8349	0.2429	0.133
Mof_H 	H 	0.63	0.8352	0.27	-0.014
Mof_C 	C 	0.7568	0.797	0.2331	0.138
Mof_C 	C 	0.7056	0.7975	0.2725	-0.154
Mof_H 	H 	0.6975	0.7726	0.3195	0.097
Mof_C 	C 	0.8246	0.8368	0.1147	0.868
Mof_F 	F 	0.8678	0.8488	0.1667	-0.36
Mof_F 	F 	0.8373	0.7895	0.0734	-0.416
Mof_F 	F 	0.8237	0.8756	0.0513	-0.352
Mof_O 	O 	0.94573	0.35189	0.5865	-0.616
Mof_O 	O 	0.8972	0.41703	0.6645	-0.734
Mof_C 	C 	0.907	0.3666	0.6393	0.52
Mof_C 	C 	0.8713	0.323	0.6744	-0.207
Mof_C 	C 	0.8707	0.2711	0.6353	0.171
Mof_H 	H 	0.8957	0.2631	0.5884	0.071
Mof_C 	C 	0.8336	0.2303	0.664	-0.181
Mof_C 	C 	0.8349	0.3346	0.7429	0.134
Mof_H 	H 	0.8352	0.37	0.77	-0.011
Mof_C 	C 	0.797	0.2432	0.7331	0.138
Mof_C 	C 	0.7975	0.2944	0.7725	-0.152
Mof_H 	H 	0.7726	0.3025	0.8195	0.1
Mof_C 	C 	0.8368	0.1754	0.6147	0.867
Mof_F 	F 	0.8488	0.1322	0.6667	-0.362
Mof_F 	F 	0.7895	0.1627	0.5734	-0.412
Mof_F 	F 	0.8756	0.1763	0.5513	-0.345
Mof_O 	O 	0.05427	0.64811	0.5865	-0.63
Mof_O 	O 	0.1028	0.58297	0.6645	-0.74
Mof_C 	C 	0.093	0.6334	0.6393	0.521
Mof_C 	C 	0.1287	0.677	0.6744	-0.212
Mof_C 	C 	0.1293	0.7289	0.6353	0.173
Mof_H 	H 	0.1043	0.7369	0.5884	0.067
Mof_C 	C 	0.1664	0.7697	0.664	-0.183
Mof_C 	C 	0.1651	0.6654	0.7429	0.135
Mof_H 	H 	0.1648	0.63	0.77	-0.014
Mof_C 	C 	0.203	0.7568	0.7331	0.139
Mof_C 	C 	0.2025	0.7056	0.7725	-0.155
Mof_H 	H 	0.2274	0.6975	0.8195	0.1
Mof_C 	C 	0.1632	0.8246	0.6147	0.867
Mof_F 	F 	0.1512	0.8678	0.6667	-0.362
Mof_F 	F 	0.2105	0.8373	0.5734	-0.41
Mof_F 	F 	0.1244	0.8237	0.5513	-0.347
Mof_O 	O 	0.64811	0.05427	0.9135	-0.619
Mof_O 	O 	0.58297	0.1028	0.8355	-0.736
Mof_C 	C 	0.6334	0.093	0.8607	0.52
Mof_C 	C 	0.677	0.1287	0.8256	-0.208
Mof_C 	C 	0.7289	0.1293	0.8647	0.17
Mof_H 	H 	0.7369	0.1043	0.9116	0.074
Mof_C 	C 	0.7697	0.1664	0.836	-0.178
Mof_C 	C 	0.6654	0.1651	0.7571	0.132
Mof_H 	H 	0.63	0.1648	0.73	-0.014
Mof_C 	C 	0.7568	0.203	0.7669	0.137
Mof_C 	C 	0.7056	0.2025	0.7275	-0.152
Mof_H 	H 	0.6975	0.2274	0.6805	0.097
Mof_C 	C 	0.8246	0.1632	0.8853	0.865
Mof_F 	F 	0.8678	0.1512	0.8333	-0.358
Mof_F 	F 	0.8373	0.2105	0.9266	-0.401
Mof_F 	F 	0.8237	0.1244	0.9487	-0.335
Mof_O 	O 	0.35189	0.94573	0.9135	-0.611
Mof_O 	O 	0.41703	0.8972	0.8355	-0.733
Mof_C 	C 	0.3666	0.907	0.8607	0.519
Mof_C 	C 	0.323	0.8713	0.8256	-0.205
Mof_C 	C 	0.2711	0.8707	0.8647	0.17
Mof_H 	H 	0.2631	0.8957	0.9116	0.075
Mof_C 	C 	0.2303	0.8336	0.836	-0.177
Mof_C 	C 	0.3346	0.8349	0.7571	0.131
Mof_H 	H 	0.37	0.8352	0.73	-0.012
Mof_C 	C 	0.2432	0.797	0.7669	0.136
Mof_C 	C 	0.2944	0.7975	0.7275	-0.15
Mof_H 	H 	0.3025	0.7726	0.6805	0.097
Mof_C 	C 	0.1754	0.8368	0.8853	0.866
Mof_F 	F 	0.1322	0.8488	0.8333	-0.361
Mof_F 	F 	0.1627	0.7895	0.9266	-0.405
Mof_F 	F 	0.1763	0.8756	0.9487	-0.337
Mof_O 	O 	0.05427	0.35189	0.4135	-0.631
Mof_O 	O 	0.1028	0.41703	0.3355	-0.744
Mof_C 	C 	0.093	0.3666	0.3607	0.521
Mof_C 	C 	0.1287	0.323	0.3256	-0.214
Mof_C 	C 	0.1293	0.2711	0.3647	0.172
Mof_H 	H 	0.1043	0.2631	0.4116	0.067
Mof_C 	C 	0.1664	0.2303	0.336	-0.183
Mof_C 	C 	0.1651	0.3346	0.2571	0.132
Mof_H 	H 	0.1648	0.37	0.23	-0.018
Mof_C 	C 	0.203	0.2432	0.2669	0.136
Mof_C 	C 	0.2025	0.2944	0.2275	-0.155
Mof_H 	H 	0.2274	0.3025	0.1805	0.093
Mof_C 	C 	0.1632	0.1754	0.3853	0.867
Mof_F 	F 	0.1512	0.1322	0.3333	-0.368
Mof_F 	F 	0.2105	0.1627	0.4266	-0.413
Mof_F 	F 	0.1244	0.1763	0.4487	-0.349
Mof_O 	O 	0.94573	0.64811	0.4135	-0.617
Mof_O 	O 	0.8972	0.58297	0.3355	-0.737
Mof_C 	C 	0.907	0.6334	0.3607	0.519
Mof_C 	C 	0.8713	0.677	0.3256	-0.208
Mof_C 	C 	0.8707	0.7289	0.3647	0.17
Mof_H 	H 	0.8957	0.7369	0.4116	0.071
Mof_C 	C 	0.8336	0.7697	0.336	-0.18
Mof_C 	C 	0.8349	0.6654	0.2571	0.131
Mof_H 	H 	0.8352	0.63	0.23	-0.015
Mof_C 	C 	0.797	0.7568	0.2669	0.136
Mof_C 	C 	0.7975	0.7056	0.2275	-0.152
Mof_H 	H 	0.7726	0.6975	0.1805	0.094
Mof_C 	C 	0.8368	0.8246	0.3853	0.866
Mof_F 	F 	0.8488	0.8678	0.3333	-0.358
Mof_F 	F 	0.7895	0.8373	0.4266	-0.409
Mof_F 	F 	0.8756	0.8237	0.4487	-0.343
Mof_O 	O 	0.64811	0.94573	0.9135	-0.611
Mof_O 	O 	0.58297	0.8972	0.8355	-0.732
Mof_C 	C 	0.6334	0.907	0.8607	0.519
Mof_C 	C 	0.677	0.8713	0.8256	-0.205
Mof_C 	C 	0.7289	0.8707	0.8647	0.17
Mof_H 	H 	0.7369	0.8957	0.9116	0.075
Mof_C 	C 	0.7697	0.8336	0.836	-0.177
Mof_C 	C 	0.6654	0.8349	0.7571	0.131
Mof_H 	H 	0.63	0.8352	0.73	-0.012
Mof_C 	C 	0.7568	0.797	0.7669	0.136
Mof_C 	C 	0.7056	0.7975	0.7275	-0.15
Mof_H 	H 	0.6975	0.7726	0.6805	0.097
Mof_C 	C 	0.8246	0.8368	0.8853	0.865
Mof_F 	F 	0.8678	0.8488	0.8333	-0.356
Mof_F 	F 	0.8373	0.7895	0.9266	-0.402
Mof_F 	F 	0.8237	0.8756	0.9487	-0.335
Mof_O 	O 	0.35189	0.05427	0.9135	-0.619
Mof_O 	O 	0.41703	0.1028	0.8355	-0.736
Mof_C 	C 	0.3666	0.093	0.8607	0.52
Mof_C 	C 	0.323	0.1287	0.8256	-0.208
Mof_C 	C 	0.2711	0.1293	0.8647	0.171
Mof_H 	H 	0.2631	0.1043	0.9116	0.073
Mof_C 	C 	0.2303	0.1664	0.836	-0.179
Mof_C 	C 	0.3346	0.1651	0.7571	0.132
Mof_H 	H 	0.37	0.1648	0.73	-0.014
Mof_C 	C 	0.2432	0.203	0.7669	0.136
Mof_C 	C 	0.2944	0.2025	0.7275	-0.151
Mof_H 	H 	0.3025	0.2274	0.6805	0.097
Mof_C 	C 	0.1754	0.1632	0.8853	0.866
Mof_F 	F 	0.1322	0.1512	0.8333	-0.364
Mof_F 	F 	0.1627	0.2105	0.9266	-0.404
Mof_F 	F 	0.1763	0.1244	0.9487	-0.337
Mof_O 	O 	0.05427	0.64811	0.4135	-0.631
Mof_O 	O 	0.1028	0.58297	0.3355	-0.743
Mof_C 	C 	0.093	0.6334	0.3607	0.521
Mof_C 	C 	0.1287	0.677	0.3256	-0.214
Mof_C 	C 	0.1293	0.7289	0.3647	0.172
Mof_H 	H 	0.1043	0.7369	0.4116	0.067
Mof_C 	C 	0.1664	0.7697	0.336	-0.183
Mof_C 	C 	0.1651	0.6654	0.2571	0.133
Mof_H 	H 	0.1648	0.63	0.23	-0.018
Mof_C 	C 	0.203	0.7568	0.2669	0.137
Mof_C 	C 	0.2025	0.7056	0.2275	-0.155
Mof_H 	H 	0.2274	0.6975	0.1805	0.094
Mof_C 	C 	0.1632	0.8246	0.3853	0.867
Mof_F 	F 	0.1512	0.8678	0.3333	-0.362
Mof_F 	F 	0.2105	0.8373	0.4266	-0.41
Mof_F 	F 	0.1244	0.8237	0.4487	-0.347
Mof_O 	O 	0.94573	0.35189	0.4135	-0.617
Mof_O 	O 	0.8972	0.41703	0.3355	-0.737
Mof_C 	C 	0.907	0.3666	0.3607	0.519
Mof_C 	C 	0.8713	0.323	0.3256	-0.208
Mof_C 	C 	0.8707	0.2711	0.3647	0.17
Mof_H 	H 	0.8957	0.2631	0.4116	0.071
Mof_C 	C 	0.8336	0.2303	0.336	-0.18
Mof_C 	C 	0.8349	0.3346	0.2571	0.131
Mof_H 	H 	0.8352	0.37	0.23	-0.015
Mof_C 	C 	0.797	0.2432	0.2669	0.135
Mof_C 	C 	0.7975	0.2944	0.2275	-0.152
Mof_H 	H 	0.7726	0.3025	0.1805	0.093
Mof_C 	C 	0.8368	0.1754	0.3853	0.867
Mof_F 	F 	0.8488	0.1322	0.3333	-0.364
Mof_F 	F 	0.7895	0.1627	0.4266	-0.412
Mof_F 	F 	0.8756	0.1763	0.4487	-0.345
Mof_O 	O 	0.35189	0.94573	0.0865	-0.621
Mof_O 	O 	0.41703	0.8972	0.1645	-0.737
Mof_C 	C 	0.3666	0.907	0.1393	0.52
Mof_C 	C 	0.323	0.8713	0.1744	-0.211
Mof_C 	C 	0.2711	0.8707	0.1353	0.172
Mof_H 	H 	0.2631	0.8957	0.0884	0.067
Mof_C 	C 	0.2303	0.8336	0.164	-0.184
Mof_C 	C 	0.3346	0.8349	0.2429	0.133
Mof_H 	H 	0.37	0.8352	0.27	-0.014
Mof_C 	C 	0.2432	0.797	0.2331	0.138
Mof_C 	C 	0.2944	0.7975	0.2725	-0.154
Mof_H 	H 	0.3025	0.7726	0.3195	0.097
Mof_C 	C 	0.1754	0.8368	0.1147	0.868
Mof_F 	F 	0.1322	0.8488	0.1667	-0.366
Mof_F 	F 	0.1627	0.7895	0.0734	-0.419
Mof_F 	F 	0.1763	0.8756	0.0513	-0.354
Mof_O 	O 	0.64811	0.05427	0.0865	-0.638
Mof_O 	O 	0.58297	0.1028	0.1645	-0.744
Mof_C 	C 	0.6334	0.093	0.1393	0.522
Mof_C 	C 	0.677	0.1287	0.1744	-0.217
Mof_C 	C 	0.7289	0.1293	0.1353	0.174
Mof_H 	H 	0.7369	0.1043	0.0884	0.061
Mof_C 	C 	0.7697	0.1664	0.164	-0.188
Mof_C 	C 	0.6654	0.1651	0.2429	0.135
Mof_H 	H 	0.63	0.1648	0.27	-0.017
Mof_C 	C 	0.7568	0.203	0.2331	0.14
Mof_C 	C 	0.7056	0.2025	0.2725	-0.158
Mof_H 	H 	0.6975	0.2274	0.3195	0.097
Mof_C 	C 	0.8246	0.1632	0.1147	0.869
Mof_F 	F 	0.8678	0.1512	0.1667	-0.365
Mof_F 	F 	0.8373	0.2105	0.0734	-0.418
Mof_F 	F 	0.8237	0.1244	0.0513	-0.359
Mof_O 	O 	0.94573	0.64811	0.5865	-0.616
Mof_O 	O 	0.8972	0.58297	0.6645	-0.734
Mof_C 	C 	0.907	0.6334	0.6393	0.52
Mof_C 	C 	0.8713	0.677	0.6744	-0.207
Mof_C 	C 	0.8707	0.7289	0.6353	0.171
Mof_H 	H 	0.8957	0.7369	0.5884	0.071
Mof_C 	C 	0.8336	0.7697	0.664	-0.18
Mof_C 	C 	0.8349	0.6654	0.7429	0.133
Mof_H 	H 	0.8352	0.63	0.77	-0.011
Mof_C 	C 	0.797	0.7568	0.7331	0.138
Mof_C 	C 	0.7975	0.7056	0.7725	-0.152
Mof_H 	H 	0.7726	0.6975	0.8195	0.1
Mof_C 	C 	0.8368	0.8246	0.6147	0.866
Mof_F 	F 	0.8488	0.8678	0.6667	-0.357
Mof_F 	F 	0.7895	0.8373	0.5734	-0.409
Mof_F 	F 	0.8756	0.8237	0.5513	-0.343
Mof_O 	O 	0.05427	0.35189	0.5865	-0.63
Mof_O 	O 	0.1028	0.41703	0.6645	-0.74
Mof_C 	C 	0.093	0.3666	0.6393	0.521
Mof_C 	C 	0.1287	0.323	0.6744	-0.213
Mof_C 	C 	0.1293	0.2711	0.6353	0.173
Mof_H 	H 	0.1043	0.2631	0.5884	0.067
Mof_C 	C 	0.1664	0.2303	0.664	-0.184
Mof_C 	C 	0.1651	0.3346	0.7429	0.135
Mof_H 	H 	0.1648	0.37	0.77	-0.014
Mof_C 	C 	0.203	0.2432	0.7331	0.139
Mof_C 	C 	0.2025	0.2944	0.7725	-0.155
Mof_H 	H 	0.2274	0.3025	0.8195	0.1
Mof_C 	C 	0.1632	0.1754	0.6147	0.868
Mof_F 	F 	0.1512	0.1322	0.6667	-0.366
Mof_F 	F 	0.2105	0.1627	0.5734	-0.413
Mof_F 	F 	0.1244	0.1763	0.5513	-0.349
Mof_Zr	Zr	0.39963	0	-0	3.214
Mof_Zr	Zr	0.60037	0	-0	3.214
Mof_Zr	Zr	-4.54953e-33	0.39963	0.5	3.216
Mof_Zr	Zr	-4.54953e-33	0.60037	0.5	3.216
Mof_Zr	Zr	0.5	0.07268	0.11689	3.181
Mof_Zr	Zr	0.5	0.92732	0.11689	3.182
Mof_Zr	Zr	0.92732	0.5	0.61689	3.182
Mof_Zr	Zr	0.07268	0.5	0.61689	3.181
Mof_Zr	Zr	0.5	0.07268	0.88311	3.183
Mof_Zr	Zr	0.5	0.92732	0.88311	3.183
Mof_Zr	Zr	0.07268	0.5	0.38311	3.181
Mof_Zr	Zr	0.92732	0.5	0.38311	3.182
Mof_O 	O 	0.4507	0	0.116	-1.354
Mof_O 	O 	0.5493	0	0.116	-1.354
Mof_O 	O 	-7.13549e-33	0.4507	0.616	-1.35
Mof_O 	O 	-1.42476e-33	0.5493	0.616	-1.35
Mof_O 	O 	0.5493	0	0.884	-1.34
Mof_O 	O 	0.4507	0	0.884	-1.34
Mof_O 	O 	-1.96356e-33	0.4507	0.384	-1.352
Mof_O 	O 	-1.96356e-33	0.5493	0.384	-1.352
Mof_O 	O 	0.4511	0.9272	-0	-1.35
Mof_O 	O 	0.5489	0.0728	-0	-1.362
Mof_O 	O 	0.0728	0.4511	0.5	-1.349
Mof_O 	O 	0.9272	0.5489	0.5	-1.341
Mof_O 	O 	0.5489	0.9272	-0	-1.35
Mof_O 	O 	0.4511	0.0728	-0	-1.362
Mof_O 	O 	0.9272	0.4511	0.5	-1.341
Mof_O 	O 	0.0728	0.5489	0.5	-1.349
_end
