data_functionalizedCrystal
_audit_creation_method	'EQeq! by Chris Wilmer'
_symmetry_space_group_name_H-M	'P1'
_symmetry_Int_Tables_number	1
_symmetry_cell_setting	triclinic
loop_
_symmetry_equiv_pos_as_xyz
  x,y,z
_cell_length_a	35.8691
_cell_length_b	14.8864
_cell_length_c	31.2823
_cell_angle_alpha	90
_cell_angle_beta	102.711
_cell_angle_gamma	90
loop_
_atom_site_label
_atom_site_type_symbol
_atom_site_fract_x
_atom_site_fract_y
_atom_site_fract_z
_atom_site_charge
Mof_Zn	Zn	0.37745	0.40154	0.42929	1.157
Mof_N 	N 	0.6416	0.6622	0.3285	-0.275
Mof_C 	C 	0.6536	0.7113	0.3649	0.065
Mof_H 	H 	0.6787	0.7357	0.3709	-0.011
Mof_C 	C 	0.63	0.7273	0.3939	-0.11
Mof_H 	H 	0.639	0.762	0.4196	0.085
Mof_C 	C 	0.5936	0.6924	0.3851	0.068
Mof_C 	C 	0.5815	0.6398	0.3477	-0.116
Mof_H 	H 	0.5568	0.6129	0.3413	0.087
Mof_C 	C 	0.6064	0.6283	0.3206	0.08
Mof_H 	H 	0.5981	0.5942	0.2946	-0.018
Mof_N 	N 	0.4229	0.4897	0.4354	-0.274
Mof_C 	C 	0.4379	0.5328	0.4719	0.072
Mof_H 	H 	0.4266	0.525	0.4965	-0.007
Mof_C 	C 	0.4688	0.5885	0.476	-0.137
Mof_H 	H 	0.4788	0.618	0.5031	0.074
Mof_C 	C 	0.4851	0.6014	0.441	0.028
Mof_C 	C 	0.4687	0.5612	0.4005	-0.124
Mof_H 	H 	0.4786	0.5719	0.3752	0.077
Mof_C 	C 	0.4375	0.5058	0.3989	0.045
Mof_H 	H 	0.4259	0.478	0.3719	-0.009
Mof_N 	N 	0.5623	0.0109	0.5559	-0.323
Mof_C 	C 	0.5321	0.9575	0.5513	0.073
Mof_H 	H 	0.5131	0.9706	0.5673	-0.006
Mof_C 	C 	0.5272	0.8833	0.524	-0.118
Mof_H 	H 	0.5054	0.846	0.5215	0.06
Mof_C 	C 	0.5548	0.864	0.5003	0.043
Mof_C 	C 	0.5857	0.919	0.5048	-0.104
Mof_H 	H 	0.6053	0.9076	0.4893	0.082
Mof_C 	C 	0.5879	0.9938	0.5333	0.053
Mof_H 	H 	0.6091	0.0334	0.5361	-0.025
Mof_C 	C 	0.5678	0.707	0.4159	0.116
Mof_N 	N 	0.53935	0.6488	0.4131	-0.134
Mof_C 	C 	0.5179	0.6615	0.4424	0.078
Mof_N 	N 	0.52294	0.727	0.47301	-0.162
Mof_C 	C 	0.5508	0.784	0.4709	0.092
Mof_N 	N 	0.5745	0.7761	0.4437	-0.129
Mof_N 	N 	0.3367	0.4702	0.384	-0.274
Mof_C 	C 	0.3309	0.5557	0.3886	0.081
Mof_H 	H 	0.3472	0.5867	0.412	0.012
Mof_C 	C 	0.3023	0.6034	0.3612	-0.122
Mof_H 	H 	0.2997	0.6662	0.365	0.104
Mof_C 	C 	0.2775	0.5584	0.3281	0.05
Mof_C 	C 	0.2835	0.4682	0.3227	-0.116
Mof_H 	H 	0.2669	0.4352	0.3003	0.086
Mof_C 	C 	0.314	0.4259	0.3505	0.06
Mof_H 	H 	0.319	0.3645	0.3458	-0.003
Mof_N 	N 	0.1137	0.4499	0.148	-0.329
Mof_C 	C 	0.1074	0.5335	0.1577	0.096
Mof_H 	H 	0.0849	0.5618	0.1419	-0.017
Mof_C 	C 	0.1315	0.5828	0.1895	-0.129
Mof_H 	H 	0.125	0.6422	0.1962	0.097
Mof_C 	C 	0.1653	0.5442	0.2114	0.063
Mof_C 	C 	0.1716	0.4555	0.2024	-0.124
Mof_H 	H 	0.1935	0.4249	0.2185	0.076
Mof_C 	C 	0.1457	0.4116	0.1697	0.069
Mof_H 	H 	0.151	0.3516	0.1626	-0.03
Mof_N 	N 	0.1867	0.0082	0.284	-0.273
Mof_C 	C 	0.1617	0.9523	0.2603	0.077
Mof_H 	H 	0.1382	0.9757	0.2442	-0.017
Mof_C 	C 	0.1686	0.862	0.258	-0.126
Mof_H 	H 	0.1505	0.8247	0.2393	0.085
Mof_C 	C 	0.2015	0.8252	0.2826	0.063
Mof_C 	C 	0.2277	0.8822	0.3074	-0.121
Mof_H 	H 	0.251	0.8596	0.3245	0.085
Mof_C 	C 	0.2197	0.9737	0.3069	0.067
Mof_H 	H 	0.2381	0.0132	0.3235	-0.01
Mof_C 	C 	0.2452	0.6052	0.2991	0.09
Mof_N 	N 	0.22278	0.554	0.2688	-0.142
Mof_C 	C 	0.1921	0.5961	0.2454	0.103
Mof_N 	N 	0.18361	0.6815	0.25	-0.136
Mof_C 	C 	0.2089	0.7273	0.2795	0.103
Mof_N 	N 	0.24017	0.6923	0.3056	-0.138
Mof_Zn	Zn	0.6743	0.6434	0.2798	0.6
Mof_Zn	Zn	0.57117	0.1143	0.60168	0.703
Mof_I 	I 	0.73551	0.7318	0.30413	-0.088
Mof_I 	I 	0.62806	0.6722	0.20501	-0.325
Mof_I 	I 	0.39725	0.2597	0.39162	-0.297
Mof_I 	I 	0.35589	0.3986	0.5004	-0.086
Mof_I 	I 	0.60393	0.23754	0.56796	1.013
Mof_I 	I 	0.51377	0.1394	0.6344	-1.276
Mof_Zn	Zn	0.6782	0.6482	0.2888	0.551
Mof_Zn	Zn	0.5861	0.1212	0.5937	0.721
Mof_I 	I 	0.7414	0.7264	0.3164	-0.256
Mof_I 	I 	0.6376	0.6808	0.2138	-0.064
Mof_I 	I 	0.3892	0.2644	0.3977	-0.062
Mof_I 	I 	0.353	0.4154	0.5035	-0.22
Mof_I 	I 	0.6234	0.2326	0.5604	-1.476
Mof_I 	I 	0.5288	0.1574	0.6249	0.836
Mof_Zn	Zn	0.87745	0.90154	0.42929	1.158
Mof_N 	N 	0.1416	0.1622	0.3285	-0.274
Mof_C 	C 	0.1536	0.2113	0.3649	0.066
Mof_H 	H 	0.1787	0.2357	0.3709	-0.01
Mof_C 	C 	0.13	0.2273	0.3939	-0.109
Mof_H 	H 	0.139	0.262	0.4196	0.086
Mof_C 	C 	0.0936	0.1924	0.3851	0.069
Mof_C 	C 	0.0815	0.1398	0.3477	-0.115
Mof_H 	H 	0.0568	0.1129	0.3413	0.088
Mof_C 	C 	0.1064	0.1283	0.3206	0.081
Mof_H 	H 	0.0981	0.0942	0.2946	-0.017
Mof_N 	N 	0.9229	0.9897	0.4354	-0.273
Mof_C 	C 	0.9379	0.0328	0.4719	0.072
Mof_H 	H 	0.9266	0.025	0.4965	-0.006
Mof_C 	C 	0.9688	0.0885	0.476	-0.136
Mof_H 	H 	0.9788	0.118	0.5031	0.075
Mof_C 	C 	0.9851	0.1014	0.441	0.029
Mof_C 	C 	0.9687	0.0612	0.4005	-0.123
Mof_H 	H 	0.9786	0.0719	0.3752	0.077
Mof_C 	C 	0.9375	0.0058	0.3989	0.044
Mof_H 	H 	0.9259	0.978	0.3719	-0.009
Mof_N 	N 	0.0623	0.5109	0.5559	-0.323
Mof_C 	C 	0.0321	0.4575	0.5513	0.073
Mof_H 	H 	0.0131	0.4706	0.5673	-0.006
Mof_C 	C 	0.0272	0.3833	0.524	-0.118
Mof_H 	H 	0.0054	0.346	0.5215	0.06
Mof_C 	C 	0.0548	0.364	0.5003	0.043
Mof_C 	C 	0.0857	0.419	0.5048	-0.104
Mof_H 	H 	0.1053	0.4076	0.4893	0.082
Mof_C 	C 	0.0879	0.4938	0.5333	0.053
Mof_H 	H 	0.1091	0.5334	0.5361	-0.025
Mof_C 	C 	0.0678	0.207	0.4159	0.116
Mof_N 	N 	0.03935	0.1488	0.4131	-0.134
Mof_C 	C 	0.0179	0.1615	0.4424	0.077
Mof_N 	N 	0.02294	0.227	0.47301	-0.162
Mof_C 	C 	0.0508	0.284	0.4709	0.092
Mof_N 	N 	0.0745	0.2761	0.4437	-0.129
Mof_N 	N 	0.8367	0.9702	0.384	-0.274
Mof_C 	C 	0.8309	0.0557	0.3886	0.08
Mof_H 	H 	0.8472	0.0867	0.412	0.012
Mof_C 	C 	0.8023	0.1034	0.3612	-0.122
Mof_H 	H 	0.7997	0.1662	0.365	0.104
Mof_C 	C 	0.7775	0.0584	0.3281	0.05
Mof_C 	C 	0.7835	0.9682	0.3227	-0.116
Mof_H 	H 	0.7669	0.9352	0.3003	0.086
Mof_C 	C 	0.814	0.9259	0.3505	0.06
Mof_H 	H 	0.819	0.8645	0.3458	-0.003
Mof_N 	N 	0.6137	0.9499	0.148	-0.329
Mof_C 	C 	0.6074	0.0335	0.1577	0.096
Mof_H 	H 	0.5849	0.0618	0.1419	-0.017
Mof_C 	C 	0.6315	0.0828	0.1895	-0.129
Mof_H 	H 	0.625	0.1422	0.1962	0.097
Mof_C 	C 	0.6653	0.0442	0.2114	0.063
Mof_C 	C 	0.6716	0.9555	0.2024	-0.124
Mof_H 	H 	0.6935	0.9249	0.2185	0.076
Mof_C 	C 	0.6457	0.9116	0.1697	0.069
Mof_H 	H 	0.651	0.8516	0.1626	-0.03
Mof_N 	N 	0.6867	0.5082	0.284	-0.273
Mof_C 	C 	0.6617	0.4523	0.2603	0.077
Mof_H 	H 	0.6382	0.4757	0.2442	-0.017
Mof_C 	C 	0.6686	0.362	0.258	-0.126
Mof_H 	H 	0.6505	0.3247	0.2393	0.086
Mof_C 	C 	0.7015	0.3252	0.2826	0.063
Mof_C 	C 	0.7277	0.3822	0.3074	-0.121
Mof_H 	H 	0.751	0.3596	0.3245	0.085
Mof_C 	C 	0.7197	0.4737	0.3069	0.067
Mof_H 	H 	0.7381	0.5132	0.3235	-0.01
Mof_C 	C 	0.7452	0.1052	0.2991	0.09
Mof_N 	N 	0.72278	0.054	0.2688	-0.142
Mof_C 	C 	0.6921	0.0961	0.2454	0.103
Mof_N 	N 	0.68361	0.1815	0.25	-0.136
Mof_C 	C 	0.7089	0.2273	0.2795	0.103
Mof_N 	N 	0.74017	0.1923	0.3056	-0.138
Mof_Zn	Zn	0.1743	0.1434	0.2798	0.6
Mof_Zn	Zn	0.07117	0.6143	0.60168	0.703
Mof_I 	I 	0.23551	0.2318	0.30413	-0.088
Mof_I 	I 	0.12806	0.1722	0.20501	-0.325
Mof_I 	I 	0.89725	0.7597	0.39162	-0.297
Mof_I 	I 	0.85589	0.8986	0.5004	-0.086
Mof_I 	I 	0.10393	0.73754	0.56796	1.013
Mof_I 	I 	0.01377	0.6394	0.6344	-1.276
Mof_Zn	Zn	0.1782	0.1482	0.2888	0.551
Mof_Zn	Zn	0.0861	0.6212	0.5937	0.721
Mof_I 	I 	0.2414	0.2264	0.3164	-0.256
Mof_I 	I 	0.1376	0.1808	0.2138	-0.064
Mof_I 	I 	0.8892	0.7644	0.3977	-0.062
Mof_I 	I 	0.853	0.9154	0.5035	-0.22
Mof_I 	I 	0.1234	0.7326	0.5604	-1.476
Mof_I 	I 	0.0288	0.6574	0.6249	0.835
Mof_Zn	Zn	0.37745	0.59846	0.92929	1.158
Mof_N 	N 	0.6416	0.3378	0.8285	-0.274
Mof_C 	C 	0.6536	0.2887	0.8649	0.066
Mof_H 	H 	0.6787	0.2643	0.8709	-0.01
Mof_C 	C 	0.63	0.2727	0.8939	-0.109
Mof_H 	H 	0.639	0.238	0.9196	0.086
Mof_C 	C 	0.5936	0.3076	0.8851	0.069
Mof_C 	C 	0.5815	0.3602	0.8477	-0.115
Mof_H 	H 	0.5568	0.3871	0.8413	0.088
Mof_C 	C 	0.6064	0.3717	0.8206	0.081
Mof_H 	H 	0.5981	0.4058	0.7946	-0.017
Mof_N 	N 	0.4229	0.5103	0.9354	-0.273
Mof_C 	C 	0.4379	0.4672	0.9719	0.073
Mof_H 	H 	0.4266	0.475	0.9965	-0.006
Mof_C 	C 	0.4688	0.4115	0.976	-0.136
Mof_H 	H 	0.4788	0.382	0.0031	0.075
Mof_C 	C 	0.4851	0.3986	0.941	0.029
Mof_C 	C 	0.4687	0.4388	0.9005	-0.123
Mof_H 	H 	0.4786	0.4281	0.8752	0.077
Mof_C 	C 	0.4375	0.4942	0.8989	0.045
Mof_H 	H 	0.4259	0.522	0.8719	-0.009
Mof_N 	N 	0.5623	0.9891	0.0559	-0.324
Mof_C 	C 	0.5321	0.0425	0.0513	0.073
Mof_H 	H 	0.5131	0.0294	0.0673	-0.006
Mof_C 	C 	0.5272	0.1167	0.024	-0.118
Mof_H 	H 	0.5054	0.154	0.0215	0.06
Mof_C 	C 	0.5548	0.136	0.0003	0.043
Mof_C 	C 	0.5857	0.081	0.0048	-0.104
Mof_H 	H 	0.6053	0.0924	0.9893	0.082
Mof_C 	C 	0.5879	0.0062	0.0333	0.054
Mof_H 	H 	0.6091	0.9666	0.0361	-0.026
Mof_C 	C 	0.5678	0.293	0.9159	0.116
Mof_N 	N 	0.53935	0.3512	0.9131	-0.134
Mof_C 	C 	0.5179	0.3385	0.9424	0.077
Mof_N 	N 	0.52294	0.273	0.97301	-0.162
Mof_C 	C 	0.5508	0.216	0.9709	0.092
Mof_N 	N 	0.5745	0.2239	0.9437	-0.129
Mof_N 	N 	0.3367	0.5298	0.884	-0.274
Mof_C 	C 	0.3309	0.4443	0.8886	0.081
Mof_H 	H 	0.3472	0.4133	0.912	0.012
Mof_C 	C 	0.3023	0.3966	0.8612	-0.122
Mof_H 	H 	0.2997	0.3338	0.865	0.104
Mof_C 	C 	0.2775	0.4416	0.8281	0.05
Mof_C 	C 	0.2835	0.5318	0.8227	-0.116
Mof_H 	H 	0.2669	0.5648	0.8003	0.086
Mof_C 	C 	0.314	0.5741	0.8505	0.06
Mof_H 	H 	0.319	0.6355	0.8458	-0.003
Mof_N 	N 	0.1137	0.5501	0.648	-0.329
Mof_C 	C 	0.1074	0.4665	0.6577	0.096
Mof_H 	H 	0.0849	0.4382	0.6419	-0.017
Mof_C 	C 	0.1315	0.4172	0.6895	-0.129
Mof_H 	H 	0.125	0.3578	0.6962	0.097
Mof_C 	C 	0.1653	0.4558	0.7114	0.063
Mof_C 	C 	0.1716	0.5445	0.7024	-0.124
Mof_H 	H 	0.1935	0.5751	0.7185	0.076
Mof_C 	C 	0.1457	0.5884	0.6697	0.069
Mof_H 	H 	0.151	0.6484	0.6626	-0.03
Mof_N 	N 	0.1867	0.9918	0.784	-0.273
Mof_C 	C 	0.1617	0.0477	0.7603	0.077
Mof_H 	H 	0.1382	0.0243	0.7442	-0.017
Mof_C 	C 	0.1686	0.138	0.758	-0.126
Mof_H 	H 	0.1505	0.1753	0.7393	0.085
Mof_C 	C 	0.2015	0.1748	0.7826	0.063
Mof_C 	C 	0.2277	0.1178	0.8074	-0.121
Mof_H 	H 	0.251	0.1404	0.8245	0.085
Mof_C 	C 	0.2197	0.0263	0.8069	0.067
Mof_H 	H 	0.2381	0.9868	0.8235	-0.01
Mof_C 	C 	0.2452	0.3948	0.7991	0.09
Mof_N 	N 	0.22278	0.446	0.7688	-0.142
Mof_C 	C 	0.1921	0.4039	0.7454	0.103
Mof_N 	N 	0.18361	0.3185	0.75	-0.136
Mof_C 	C 	0.2089	0.2727	0.7795	0.103
Mof_N 	N 	0.24017	0.3077	0.8056	-0.138
Mof_Zn	Zn	0.6743	0.3566	0.7798	0.6
Mof_Zn	Zn	0.57117	0.8857	0.10168	0.703
Mof_I 	I 	0.73551	0.2682	0.80413	-0.089
Mof_I 	I 	0.62806	0.3278	0.70501	-0.325
Mof_I 	I 	0.39725	0.7403	0.89162	-0.297
Mof_I 	I 	0.35589	0.6014	0.0004	-0.086
Mof_I 	I 	0.60393	0.76246	0.06796	1.012
Mof_I 	I 	0.51377	0.8606	0.1344	-1.276
Mof_Zn	Zn	0.6782	0.3518	0.7888	0.551
Mof_Zn	Zn	0.5861	0.8788	0.0937	0.721
Mof_I 	I 	0.7414	0.2736	0.8164	-0.256
Mof_I 	I 	0.6376	0.3192	0.7138	-0.064
Mof_I 	I 	0.3892	0.7356	0.8977	-0.062
Mof_I 	I 	0.353	0.5846	0.0035	-0.22
Mof_I 	I 	0.6234	0.7674	0.0604	-1.476
Mof_I 	I 	0.5288	0.8426	0.1249	0.836
Mof_Zn	Zn	0.87745	0.09846	0.92929	1.158
Mof_N 	N 	0.1416	0.8378	0.8285	-0.274
Mof_C 	C 	0.1536	0.7887	0.8649	0.066
Mof_H 	H 	0.1787	0.7643	0.8709	-0.01
Mof_C 	C 	0.13	0.7727	0.8939	-0.109
Mof_H 	H 	0.139	0.738	0.9196	0.086
Mof_C 	C 	0.0936	0.8076	0.8851	0.069
Mof_C 	C 	0.0815	0.8602	0.8477	-0.115
Mof_H 	H 	0.0568	0.8871	0.8413	0.088
Mof_C 	C 	0.1064	0.8717	0.8206	0.081
Mof_H 	H 	0.0981	0.9058	0.7946	-0.017
Mof_N 	N 	0.9229	0.0103	0.9354	-0.273
Mof_C 	C 	0.9379	0.9672	0.9719	0.072
Mof_H 	H 	0.9266	0.975	0.9965	-0.006
Mof_C 	C 	0.9688	0.9115	0.976	-0.136
Mof_H 	H 	0.9788	0.882	0.0031	0.075
Mof_C 	C 	0.9851	0.8986	0.941	0.028
Mof_C 	C 	0.9687	0.9388	0.9005	-0.123
Mof_H 	H 	0.9786	0.9281	0.8752	0.077
Mof_C 	C 	0.9375	0.9942	0.8989	0.045
Mof_H 	H 	0.9259	0.022	0.8719	-0.009
Mof_N 	N 	0.0623	0.4891	0.0559	-0.323
Mof_C 	C 	0.0321	0.5425	0.0513	0.073
Mof_H 	H 	0.0131	0.5294	0.0673	-0.006
Mof_C 	C 	0.0272	0.6167	0.024	-0.118
Mof_H 	H 	0.0054	0.654	0.0215	0.06
Mof_C 	C 	0.0548	0.636	0.0003	0.043
Mof_C 	C 	0.0857	0.581	0.0048	-0.104
Mof_H 	H 	0.1053	0.5924	0.9893	0.082
Mof_C 	C 	0.0879	0.5062	0.0333	0.053
Mof_H 	H 	0.1091	0.4666	0.0361	-0.025
Mof_C 	C 	0.0678	0.793	0.9159	0.116
Mof_N 	N 	0.03935	0.8512	0.9131	-0.134
Mof_C 	C 	0.0179	0.8385	0.9424	0.078
Mof_N 	N 	0.02294	0.773	0.97301	-0.162
Mof_C 	C 	0.0508	0.716	0.9709	0.092
Mof_N 	N 	0.0745	0.7239	0.9437	-0.129
Mof_N 	N 	0.8367	0.0298	0.884	-0.275
Mof_C 	C 	0.8309	0.9443	0.8886	0.081
Mof_H 	H 	0.8472	0.9133	0.912	0.012
Mof_C 	C 	0.8023	0.8966	0.8612	-0.122
Mof_H 	H 	0.7997	0.8338	0.865	0.104
Mof_C 	C 	0.7775	0.9416	0.8281	0.05
Mof_C 	C 	0.7835	0.0318	0.8227	-0.116
Mof_H 	H 	0.7669	0.0648	0.8003	0.086
Mof_C 	C 	0.814	0.0741	0.8505	0.06
Mof_H 	H 	0.819	0.1355	0.8458	-0.003
Mof_N 	N 	0.6137	0.0501	0.648	-0.329
Mof_C 	C 	0.6074	0.9665	0.6577	0.096
Mof_H 	H 	0.5849	0.9382	0.6419	-0.017
Mof_C 	C 	0.6315	0.9172	0.6895	-0.129
Mof_H 	H 	0.625	0.8578	0.6962	0.097
Mof_C 	C 	0.6653	0.9558	0.7114	0.063
Mof_C 	C 	0.6716	0.0445	0.7024	-0.124
Mof_H 	H 	0.6935	0.0751	0.7185	0.076
Mof_C 	C 	0.6457	0.0884	0.6697	0.069
Mof_H 	H 	0.651	0.1484	0.6626	-0.03
Mof_N 	N 	0.6867	0.4918	0.784	-0.273
Mof_C 	C 	0.6617	0.5477	0.7603	0.077
Mof_H 	H 	0.6382	0.5243	0.7442	-0.017
Mof_C 	C 	0.6686	0.638	0.758	-0.126
Mof_H 	H 	0.6505	0.6753	0.7393	0.086
Mof_C 	C 	0.7015	0.6748	0.7826	0.063
Mof_C 	C 	0.7277	0.6178	0.8074	-0.121
Mof_H 	H 	0.751	0.6404	0.8245	0.085
Mof_C 	C 	0.7197	0.5263	0.8069	0.067
Mof_H 	H 	0.7381	0.4868	0.8235	-0.01
Mof_C 	C 	0.7452	0.8948	0.7991	0.09
Mof_N 	N 	0.72278	0.946	0.7688	-0.142
Mof_C 	C 	0.6921	0.9039	0.7454	0.103
Mof_N 	N 	0.68361	0.8185	0.75	-0.136
Mof_C 	C 	0.7089	0.7727	0.7795	0.103
Mof_N 	N 	0.74017	0.8077	0.8056	-0.138
Mof_Zn	Zn	0.1743	0.8566	0.7798	0.6
Mof_Zn	Zn	0.07117	0.3857	0.10168	0.703
Mof_I 	I 	0.23551	0.7682	0.80413	-0.088
Mof_I 	I 	0.12806	0.8278	0.70501	-0.325
Mof_I 	I 	0.89725	0.2403	0.89162	-0.297
Mof_I 	I 	0.85589	0.1014	0.0004	-0.086
Mof_I 	I 	0.10393	0.26246	0.06796	1.013
Mof_I 	I 	0.01377	0.3606	0.1344	-1.276
Mof_Zn	Zn	0.1782	0.8518	0.7888	0.551
Mof_Zn	Zn	0.0861	0.3788	0.0937	0.721
Mof_I 	I 	0.2414	0.7736	0.8164	-0.256
Mof_I 	I 	0.1376	0.8192	0.7138	-0.064
Mof_I 	I 	0.8892	0.2356	0.8977	-0.062
Mof_I 	I 	0.853	0.0846	0.0035	-0.22
Mof_I 	I 	0.1234	0.2674	0.0604	-1.476
Mof_I 	I 	0.0288	0.3426	0.1249	0.835
Mof_Zn	Zn	0.62255	0.40154	0.07071	1.158
Mof_N 	N 	0.3584	0.6622	0.1715	-0.274
Mof_C 	C 	0.3464	0.7113	0.1351	0.066
Mof_H 	H 	0.3213	0.7357	0.1291	-0.01
Mof_C 	C 	0.37	0.7273	0.1061	-0.109
Mof_H 	H 	0.361	0.762	0.0804	0.086
Mof_C 	C 	0.4064	0.6924	0.1149	0.069
Mof_C 	C 	0.4185	0.6398	0.1523	-0.115
Mof_H 	H 	0.4432	0.6129	0.1587	0.088
Mof_C 	C 	0.3936	0.6283	0.1794	0.081
Mof_H 	H 	0.4019	0.5942	0.2054	-0.017
Mof_N 	N 	0.5771	0.4897	0.0646	-0.273
Mof_C 	C 	0.5621	0.5328	0.0281	0.073
Mof_H 	H 	0.5734	0.525	0.0035	-0.006
Mof_C 	C 	0.5312	0.5885	0.024	-0.136
Mof_H 	H 	0.5212	0.618	0.9969	0.075
Mof_C 	C 	0.5149	0.6014	0.059	0.029
Mof_C 	C 	0.5313	0.5612	0.0995	-0.123
Mof_H 	H 	0.5214	0.5719	0.1248	0.077
Mof_C 	C 	0.5625	0.5058	0.1011	0.045
Mof_H 	H 	0.5741	0.478	0.1281	-0.009
Mof_N 	N 	0.4377	0.0109	0.9441	-0.324
Mof_C 	C 	0.4679	0.9575	0.9487	0.073
Mof_H 	H 	0.4869	0.9706	0.9327	-0.006
Mof_C 	C 	0.4728	0.8833	0.976	-0.118
Mof_H 	H 	0.4946	0.846	0.9785	0.06
Mof_C 	C 	0.4452	0.864	0.9997	0.043
Mof_C 	C 	0.4143	0.919	0.9952	-0.104
Mof_H 	H 	0.3947	0.9076	0.0107	0.082
Mof_C 	C 	0.4121	0.9938	0.9667	0.054
Mof_H 	H 	0.3909	0.0334	0.9639	-0.026
Mof_C 	C 	0.4322	0.707	0.0841	0.116
Mof_N 	N 	0.46065	0.6488	0.0869	-0.134
Mof_C 	C 	0.4821	0.6615	0.0576	0.077
Mof_N 	N 	0.47706	0.727	0.02699	-0.162
Mof_C 	C 	0.4492	0.784	0.0291	0.092
Mof_N 	N 	0.4255	0.7761	0.0563	-0.129
Mof_N 	N 	0.6633	0.4702	0.116	-0.274
Mof_C 	C 	0.6691	0.5557	0.1114	0.081
Mof_H 	H 	0.6528	0.5867	0.088	0.012
Mof_C 	C 	0.6977	0.6034	0.1388	-0.122
Mof_H 	H 	0.7003	0.6662	0.135	0.104
Mof_C 	C 	0.7225	0.5584	0.1719	0.05
Mof_C 	C 	0.7165	0.4682	0.1773	-0.116
Mof_H 	H 	0.7331	0.4352	0.1997	0.086
Mof_C 	C 	0.686	0.4259	0.1495	0.06
Mof_H 	H 	0.681	0.3645	0.1542	-0.003
Mof_N 	N 	0.8863	0.4499	0.352	-0.329
Mof_C 	C 	0.8926	0.5335	0.3423	0.096
Mof_H 	H 	0.9151	0.5618	0.3581	-0.017
Mof_C 	C 	0.8685	0.5828	0.3105	-0.129
Mof_H 	H 	0.875	0.6422	0.3038	0.097
Mof_C 	C 	0.8347	0.5442	0.2886	0.063
Mof_C 	C 	0.8284	0.4555	0.2976	-0.124
Mof_H 	H 	0.8065	0.4249	0.2815	0.076
Mof_C 	C 	0.8543	0.4116	0.3303	0.069
Mof_H 	H 	0.849	0.3516	0.3374	-0.03
Mof_N 	N 	0.8133	0.0082	0.216	-0.273
Mof_C 	C 	0.8383	0.9523	0.2397	0.077
Mof_H 	H 	0.8618	0.9757	0.2558	-0.017
Mof_C 	C 	0.8314	0.862	0.242	-0.126
Mof_H 	H 	0.8495	0.8247	0.2607	0.085
Mof_C 	C 	0.7985	0.8252	0.2174	0.063
Mof_C 	C 	0.7723	0.8822	0.1926	-0.121
Mof_H 	H 	0.749	0.8596	0.1755	0.085
Mof_C 	C 	0.7803	0.9737	0.1931	0.067
Mof_H 	H 	0.7619	0.0132	0.1765	-0.01
Mof_C 	C 	0.7548	0.6052	0.2009	0.09
Mof_N 	N 	0.77722	0.554	0.2312	-0.142
Mof_C 	C 	0.8079	0.5961	0.2546	0.103
Mof_N 	N 	0.81639	0.6815	0.25	-0.136
Mof_C 	C 	0.7911	0.7273	0.2205	0.103
Mof_N 	N 	0.75983	0.6923	0.1944	-0.138
Mof_Zn	Zn	0.3257	0.6434	0.2202	0.6
Mof_Zn	Zn	0.42883	0.1143	0.89832	0.703
Mof_I 	I 	0.26449	0.7318	0.19587	-0.089
Mof_I 	I 	0.37194	0.6722	0.29499	-0.325
Mof_I 	I 	0.60275	0.2597	0.10838	-0.297
Mof_I 	I 	0.64411	0.3986	0.9996	-0.086
Mof_I 	I 	0.39607	0.23754	0.93204	1.012
Mof_I 	I 	0.48623	0.1394	0.8656	-1.276
Mof_Zn	Zn	0.3218	0.6482	0.2112	0.551
Mof_Zn	Zn	0.4139	0.1212	0.9063	0.721
Mof_I 	I 	0.2586	0.7264	0.1836	-0.256
Mof_I 	I 	0.3624	0.6808	0.2862	-0.064
Mof_I 	I 	0.6108	0.2644	0.1023	-0.062
Mof_I 	I 	0.647	0.4154	0.9965	-0.22
Mof_I 	I 	0.3766	0.2326	0.9396	-1.476
Mof_I 	I 	0.4712	0.1574	0.8751	0.836
Mof_Zn	Zn	0.12255	0.90154	0.07071	1.158
Mof_N 	N 	0.8584	0.1622	0.1715	-0.274
Mof_C 	C 	0.8464	0.2113	0.1351	0.066
Mof_H 	H 	0.8213	0.2357	0.1291	-0.01
Mof_C 	C 	0.87	0.2273	0.1061	-0.109
Mof_H 	H 	0.861	0.262	0.0804	0.086
Mof_C 	C 	0.9064	0.1924	0.1149	0.069
Mof_C 	C 	0.9185	0.1398	0.1523	-0.115
Mof_H 	H 	0.9432	0.1129	0.1587	0.088
Mof_C 	C 	0.8936	0.1283	0.1794	0.081
Mof_H 	H 	0.9019	0.0942	0.2054	-0.017
Mof_N 	N 	0.0771	0.9897	0.0646	-0.273
Mof_C 	C 	0.0621	0.0328	0.0281	0.072
Mof_H 	H 	0.0734	0.025	0.0035	-0.006
Mof_C 	C 	0.0312	0.0885	0.024	-0.136
Mof_H 	H 	0.0212	0.118	0.9969	0.075
Mof_C 	C 	0.0149	0.1014	0.059	0.028
Mof_C 	C 	0.0313	0.0612	0.0995	-0.123
Mof_H 	H 	0.0214	0.0719	0.1248	0.077
Mof_C 	C 	0.0625	0.0058	0.1011	0.045
Mof_H 	H 	0.0741	0.978	0.1281	-0.009
Mof_N 	N 	0.9377	0.5109	0.9441	-0.323
Mof_C 	C 	0.9679	0.4575	0.9487	0.073
Mof_H 	H 	0.9869	0.4706	0.9327	-0.006
Mof_C 	C 	0.9728	0.3833	0.976	-0.118
Mof_H 	H 	0.9946	0.346	0.9785	0.06
Mof_C 	C 	0.9452	0.364	0.9997	0.043
Mof_C 	C 	0.9143	0.419	0.9952	-0.104
Mof_H 	H 	0.8947	0.4076	0.0107	0.082
Mof_C 	C 	0.9121	0.4938	0.9667	0.053
Mof_H 	H 	0.8909	0.5334	0.9639	-0.025
Mof_C 	C 	0.9322	0.207	0.0841	0.116
Mof_N 	N 	0.96065	0.1488	0.0869	-0.134
Mof_C 	C 	0.9821	0.1615	0.0576	0.078
Mof_N 	N 	0.97706	0.227	0.02699	-0.162
Mof_C 	C 	0.9492	0.284	0.0291	0.092
Mof_N 	N 	0.9255	0.2761	0.0563	-0.129
Mof_N 	N 	0.1633	0.9702	0.116	-0.275
Mof_C 	C 	0.1691	0.0557	0.1114	0.081
Mof_H 	H 	0.1528	0.0867	0.088	0.012
Mof_C 	C 	0.1977	0.1034	0.1388	-0.122
Mof_H 	H 	0.2003	0.1662	0.135	0.104
Mof_C 	C 	0.2225	0.0584	0.1719	0.05
Mof_C 	C 	0.2165	0.9682	0.1773	-0.116
Mof_H 	H 	0.2331	0.9352	0.1997	0.086
Mof_C 	C 	0.186	0.9259	0.1495	0.06
Mof_H 	H 	0.181	0.8645	0.1542	-0.003
Mof_N 	N 	0.3863	0.9499	0.352	-0.329
Mof_C 	C 	0.3926	0.0335	0.3423	0.096
Mof_H 	H 	0.4151	0.0618	0.3581	-0.017
Mof_C 	C 	0.3685	0.0828	0.3105	-0.129
Mof_H 	H 	0.375	0.1422	0.3038	0.097
Mof_C 	C 	0.3347	0.0442	0.2886	0.063
Mof_C 	C 	0.3284	0.9555	0.2976	-0.124
Mof_H 	H 	0.3065	0.9249	0.2815	0.076
Mof_C 	C 	0.3543	0.9116	0.3303	0.069
Mof_H 	H 	0.349	0.8516	0.3374	-0.03
Mof_N 	N 	0.3133	0.5082	0.216	-0.273
Mof_C 	C 	0.3383	0.4523	0.2397	0.077
Mof_H 	H 	0.3618	0.4757	0.2558	-0.017
Mof_C 	C 	0.3314	0.362	0.242	-0.126
Mof_H 	H 	0.3495	0.3247	0.2607	0.086
Mof_C 	C 	0.2985	0.3252	0.2174	0.063
Mof_C 	C 	0.2723	0.3822	0.1926	-0.121
Mof_H 	H 	0.249	0.3596	0.1755	0.085
Mof_C 	C 	0.2803	0.4737	0.1931	0.067
Mof_H 	H 	0.2619	0.5132	0.1765	-0.01
Mof_C 	C 	0.2548	0.1052	0.2009	0.09
Mof_N 	N 	0.27722	0.054	0.2312	-0.142
Mof_C 	C 	0.3079	0.0961	0.2546	0.103
Mof_N 	N 	0.31639	0.1815	0.25	-0.136
Mof_C 	C 	0.2911	0.2273	0.2205	0.103
Mof_N 	N 	0.25983	0.1923	0.1944	-0.138
Mof_Zn	Zn	0.8257	0.1434	0.2202	0.6
Mof_Zn	Zn	0.92883	0.6143	0.89832	0.703
Mof_I 	I 	0.76449	0.2318	0.19587	-0.088
Mof_I 	I 	0.87194	0.1722	0.29499	-0.325
Mof_I 	I 	0.10275	0.7597	0.10838	-0.297
Mof_I 	I 	0.14411	0.8986	0.9996	-0.086
Mof_I 	I 	0.89607	0.73754	0.93204	1.013
Mof_I 	I 	0.98623	0.6394	0.8656	-1.276
Mof_Zn	Zn	0.8218	0.1482	0.2112	0.551
Mof_Zn	Zn	0.9139	0.6212	0.9063	0.721
Mof_I 	I 	0.7586	0.2264	0.1836	-0.256
Mof_I 	I 	0.8624	0.1808	0.2862	-0.064
Mof_I 	I 	0.1108	0.7644	0.1023	-0.062
Mof_I 	I 	0.147	0.9154	0.9965	-0.22
Mof_I 	I 	0.8766	0.7326	0.9396	-1.476
Mof_I 	I 	0.9712	0.6574	0.8751	0.835
Mof_Zn	Zn	0.62255	0.59846	0.57071	1.158
Mof_N 	N 	0.3584	0.3378	0.6715	-0.274
Mof_C 	C 	0.3464	0.2887	0.6351	0.066
Mof_H 	H 	0.3213	0.2643	0.6291	-0.01
Mof_C 	C 	0.37	0.2727	0.6061	-0.109
Mof_H 	H 	0.361	0.238	0.5804	0.086
Mof_C 	C 	0.4064	0.3076	0.6149	0.069
Mof_C 	C 	0.4185	0.3602	0.6523	-0.115
Mof_H 	H 	0.4432	0.3871	0.6587	0.088
Mof_C 	C 	0.3936	0.3717	0.6794	0.081
Mof_H 	H 	0.4019	0.4058	0.7054	-0.017
Mof_N 	N 	0.5771	0.5103	0.5646	-0.273
Mof_C 	C 	0.5621	0.4672	0.5281	0.073
Mof_H 	H 	0.5734	0.475	0.5035	-0.006
Mof_C 	C 	0.5312	0.4115	0.524	-0.136
Mof_H 	H 	0.5212	0.382	0.4969	0.075
Mof_C 	C 	0.5149	0.3986	0.559	0.029
Mof_C 	C 	0.5313	0.4388	0.5995	-0.123
Mof_H 	H 	0.5214	0.4281	0.6248	0.077
Mof_C 	C 	0.5625	0.4942	0.6011	0.045
Mof_H 	H 	0.5741	0.522	0.6281	-0.009
Mof_N 	N 	0.4377	0.9891	0.4441	-0.323
Mof_C 	C 	0.4679	0.0425	0.4487	0.073
Mof_H 	H 	0.4869	0.0294	0.4327	-0.006
Mof_C 	C 	0.4728	0.1167	0.476	-0.118
Mof_H 	H 	0.4946	0.154	0.4785	0.06
Mof_C 	C 	0.4452	0.136	0.4997	0.043
Mof_C 	C 	0.4143	0.081	0.4952	-0.104
Mof_H 	H 	0.3947	0.0924	0.5107	0.082
Mof_C 	C 	0.4121	0.0062	0.4667	0.053
Mof_H 	H 	0.3909	0.9666	0.4639	-0.025
Mof_C 	C 	0.4322	0.293	0.5841	0.116
Mof_N 	N 	0.46065	0.3512	0.5869	-0.134
Mof_C 	C 	0.4821	0.3385	0.5576	0.078
Mof_N 	N 	0.47706	0.273	0.52699	-0.162
Mof_C 	C 	0.4492	0.216	0.5291	0.092
Mof_N 	N 	0.4255	0.2239	0.5563	-0.129
Mof_N 	N 	0.6633	0.5298	0.616	-0.274
Mof_C 	C 	0.6691	0.4443	0.6114	0.081
Mof_H 	H 	0.6528	0.4133	0.588	0.012
Mof_C 	C 	0.6977	0.3966	0.6388	-0.122
Mof_H 	H 	0.7003	0.3338	0.635	0.104
Mof_C 	C 	0.7225	0.4416	0.6719	0.05
Mof_C 	C 	0.7165	0.5318	0.6773	-0.116
Mof_H 	H 	0.7331	0.5648	0.6997	0.086
Mof_C 	C 	0.686	0.5741	0.6495	0.06
Mof_H 	H 	0.681	0.6355	0.6542	-0.003
Mof_N 	N 	0.8863	0.5501	0.852	-0.329
Mof_C 	C 	0.8926	0.4665	0.8423	0.096
Mof_H 	H 	0.9151	0.4382	0.8581	-0.017
Mof_C 	C 	0.8685	0.4172	0.8105	-0.129
Mof_H 	H 	0.875	0.3578	0.8038	0.097
Mof_C 	C 	0.8347	0.4558	0.7886	0.063
Mof_C 	C 	0.8284	0.5445	0.7976	-0.124
Mof_H 	H 	0.8065	0.5751	0.7815	0.076
Mof_C 	C 	0.8543	0.5884	0.8303	0.069
Mof_H 	H 	0.849	0.6484	0.8374	-0.03
Mof_N 	N 	0.8133	0.9918	0.716	-0.273
Mof_C 	C 	0.8383	0.0477	0.7397	0.077
Mof_H 	H 	0.8618	0.0243	0.7558	-0.017
Mof_C 	C 	0.8314	0.138	0.742	-0.126
Mof_H 	H 	0.8495	0.1753	0.7607	0.085
Mof_C 	C 	0.7985	0.1748	0.7174	0.063
Mof_C 	C 	0.7723	0.1178	0.6926	-0.121
Mof_H 	H 	0.749	0.1404	0.6755	0.085
Mof_C 	C 	0.7803	0.0263	0.6931	0.067
Mof_H 	H 	0.7619	0.9868	0.6765	-0.01
Mof_C 	C 	0.7548	0.3948	0.7009	0.09
Mof_N 	N 	0.77722	0.446	0.7312	-0.142
Mof_C 	C 	0.8079	0.4039	0.7546	0.103
Mof_N 	N 	0.81639	0.3185	0.75	-0.136
Mof_C 	C 	0.7911	0.2727	0.7205	0.103
Mof_N 	N 	0.75983	0.3077	0.6944	-0.138
Mof_Zn	Zn	0.3257	0.3566	0.7202	0.6
Mof_Zn	Zn	0.42883	0.8857	0.39832	0.703
Mof_I 	I 	0.26449	0.2682	0.69587	-0.088
Mof_I 	I 	0.37194	0.3278	0.79499	-0.325
Mof_I 	I 	0.60275	0.7403	0.60838	-0.297
Mof_I 	I 	0.64411	0.6014	0.4996	-0.086
Mof_I 	I 	0.39607	0.76246	0.43204	1.013
Mof_I 	I 	0.48623	0.8606	0.3656	-1.276
Mof_Zn	Zn	0.3218	0.3518	0.7112	0.551
Mof_Zn	Zn	0.4139	0.8788	0.4063	0.721
Mof_I 	I 	0.2586	0.2736	0.6836	-0.256
Mof_I 	I 	0.3624	0.3192	0.7862	-0.064
Mof_I 	I 	0.6108	0.7356	0.6023	-0.062
Mof_I 	I 	0.647	0.5846	0.4965	-0.22
Mof_I 	I 	0.3766	0.7674	0.4396	-1.476
Mof_I 	I 	0.4712	0.8426	0.3751	0.836
Mof_Zn	Zn	0.12255	0.09846	0.57071	1.158
Mof_N 	N 	0.8584	0.8378	0.6715	-0.274
Mof_C 	C 	0.8464	0.7887	0.6351	0.066
Mof_H 	H 	0.8213	0.7643	0.6291	-0.01
Mof_C 	C 	0.87	0.7727	0.6061	-0.109
Mof_H 	H 	0.861	0.738	0.5804	0.086
Mof_C 	C 	0.9064	0.8076	0.6149	0.069
Mof_C 	C 	0.9185	0.8602	0.6523	-0.115
Mof_H 	H 	0.9432	0.8871	0.6587	0.088
Mof_C 	C 	0.8936	0.8717	0.6794	0.081
Mof_H 	H 	0.9019	0.9058	0.7054	-0.017
Mof_N 	N 	0.0771	0.0103	0.5646	-0.273
Mof_C 	C 	0.0621	0.9672	0.5281	0.072
Mof_H 	H 	0.0734	0.975	0.5035	-0.006
Mof_C 	C 	0.0312	0.9115	0.524	-0.136
Mof_H 	H 	0.0212	0.882	0.4969	0.075
Mof_C 	C 	0.0149	0.8986	0.559	0.029
Mof_C 	C 	0.0313	0.9388	0.5995	-0.123
Mof_H 	H 	0.0214	0.9281	0.6248	0.077
Mof_C 	C 	0.0625	0.9942	0.6011	0.044
Mof_H 	H 	0.0741	0.022	0.6281	-0.009
Mof_N 	N 	0.9377	0.4891	0.4441	-0.323
Mof_C 	C 	0.9679	0.5425	0.4487	0.073
Mof_H 	H 	0.9869	0.5294	0.4327	-0.006
Mof_C 	C 	0.9728	0.6167	0.476	-0.118
Mof_H 	H 	0.9946	0.654	0.4785	0.06
Mof_C 	C 	0.9452	0.636	0.4997	0.043
Mof_C 	C 	0.9143	0.581	0.4952	-0.104
Mof_H 	H 	0.8947	0.5924	0.5107	0.082
Mof_C 	C 	0.9121	0.5062	0.4667	0.053
Mof_H 	H 	0.8909	0.4666	0.4639	-0.025
Mof_C 	C 	0.9322	0.793	0.5841	0.116
Mof_N 	N 	0.96065	0.8512	0.5869	-0.134
Mof_C 	C 	0.9821	0.8385	0.5576	0.077
Mof_N 	N 	0.97706	0.773	0.52699	-0.162
Mof_C 	C 	0.9492	0.716	0.5291	0.092
Mof_N 	N 	0.9255	0.7239	0.5563	-0.129
Mof_N 	N 	0.1633	0.0298	0.616	-0.274
Mof_C 	C 	0.1691	0.9443	0.6114	0.08
Mof_H 	H 	0.1528	0.9133	0.588	0.012
Mof_C 	C 	0.1977	0.8966	0.6388	-0.122
Mof_H 	H 	0.2003	0.8338	0.635	0.104
Mof_C 	C 	0.2225	0.9416	0.6719	0.05
Mof_C 	C 	0.2165	0.0318	0.6773	-0.116
Mof_H 	H 	0.2331	0.0648	0.6997	0.086
Mof_C 	C 	0.186	0.0741	0.6495	0.06
Mof_H 	H 	0.181	0.1355	0.6542	-0.003
Mof_N 	N 	0.3863	0.0501	0.852	-0.329
Mof_C 	C 	0.3926	0.9665	0.8423	0.096
Mof_H 	H 	0.4151	0.9382	0.8581	-0.017
Mof_C 	C 	0.3685	0.9172	0.8105	-0.129
Mof_H 	H 	0.375	0.8578	0.8038	0.097
Mof_C 	C 	0.3347	0.9558	0.7886	0.063
Mof_C 	C 	0.3284	0.0445	0.7976	-0.124
Mof_H 	H 	0.3065	0.0751	0.7815	0.076
Mof_C 	C 	0.3543	0.0884	0.8303	0.069
Mof_H 	H 	0.349	0.1484	0.8374	-0.03
Mof_N 	N 	0.3133	0.4918	0.716	-0.273
Mof_C 	C 	0.3383	0.5477	0.7397	0.077
Mof_H 	H 	0.3618	0.5243	0.7558	-0.017
Mof_C 	C 	0.3314	0.638	0.742	-0.126
Mof_H 	H 	0.3495	0.6753	0.7607	0.086
Mof_C 	C 	0.2985	0.6748	0.7174	0.063
Mof_C 	C 	0.2723	0.6178	0.6926	-0.121
Mof_H 	H 	0.249	0.6404	0.6755	0.085
Mof_C 	C 	0.2803	0.5263	0.6931	0.067
Mof_H 	H 	0.2619	0.4868	0.6765	-0.01
Mof_C 	C 	0.2548	0.8948	0.7009	0.09
Mof_N 	N 	0.27722	0.946	0.7312	-0.142
Mof_C 	C 	0.3079	0.9039	0.7546	0.103
Mof_N 	N 	0.31639	0.8185	0.75	-0.136
Mof_C 	C 	0.2911	0.7727	0.7205	0.103
Mof_N 	N 	0.25983	0.8077	0.6944	-0.138
Mof_Zn	Zn	0.8257	0.8566	0.7202	0.6
Mof_Zn	Zn	0.92883	0.3857	0.39832	0.703
Mof_I 	I 	0.76449	0.7682	0.69587	-0.088
Mof_I 	I 	0.87194	0.8278	0.79499	-0.325
Mof_I 	I 	0.10275	0.2403	0.60838	-0.297
Mof_I 	I 	0.14411	0.1014	0.4996	-0.086
Mof_I 	I 	0.89607	0.26246	0.43204	1.013
Mof_I 	I 	0.98623	0.3606	0.3656	-1.276
Mof_Zn	Zn	0.8218	0.8518	0.7112	0.551
Mof_Zn	Zn	0.9139	0.3788	0.4063	0.721
Mof_I 	I 	0.7586	0.7736	0.6836	-0.256
Mof_I 	I 	0.8624	0.8192	0.7862	-0.064
Mof_I 	I 	0.1108	0.2356	0.6023	-0.062
Mof_I 	I 	0.147	0.0846	0.4965	-0.22
Mof_I 	I 	0.8766	0.2674	0.4396	-1.476
Mof_I 	I 	0.9712	0.3426	0.3751	0.835
_end
