data_functionalizedCrystal
_audit_creation_method	'EQeq! by Chris Wilmer'
_symmetry_space_group_name_H-M	'P1'
_symmetry_Int_Tables_number	1
_symmetry_cell_setting	triclinic
loop_
_symmetry_equiv_pos_as_xyz
  x,y,z
_cell_length_a	14.4751
_cell_length_b	21.3554
_cell_length_c	20.6114
_cell_angle_alpha	90
_cell_angle_beta	90
_cell_angle_gamma	90
loop_
_atom_site_label
_atom_site_type_symbol
_atom_site_fract_x
_atom_site_fract_y
_atom_site_fract_z
_atom_site_charge
Mof_Re	Re	0.90469	0.6394	0.4413	0.428
Mof_S 	S 	0.86969	0.7379	0.48913	-0.297
Mof_N 	N 	0.8522	0.6584	0.6539	-0.208
Mof_N 	N 	0.7372	0.5861	0.531	-0.24
Mof_N 	N 	0.8814	0.5074	0.3652	-0.13
Mof_N 	N 	0.7321	0.6703	0.3459	-0.122
Mof_N 	N 	0.8509	0.8092	0.3202	-0.204
Mof_C 	C 	0.904	0.6703	0.6143	-0.037
Mof_C 	C 	0.7953	0.6045	0.4991	-0.06
Mof_C 	C 	0.8878	0.552	0.394	-0.062
Mof_C 	C 	0.7934	0.6592	0.3798	-0.066
Mof_C 	C 	0.9045	0.7877	0.3547	-0.051
Mof_Re	Re	0.40469	0.1394	0.4413	0.449
Mof_S 	S 	0.36969	0.2379	0.48913	-0.291
Mof_N 	N 	0.3522	0.1584	0.6539	-0.212
Mof_N 	N 	0.2372	0.0861	0.531	-0.242
Mof_N 	N 	0.3814	0.0074	0.3652	-0.161
Mof_N 	N 	0.2321	0.1703	0.3459	-0.121
Mof_N 	N 	0.3509	0.3092	0.3202	-0.207
Mof_C 	C 	0.404	0.1703	0.6143	-0.036
Mof_C 	C 	0.2953	0.1045	0.4991	-0.073
Mof_C 	C 	0.3878	0.052	0.394	-0.074
Mof_C 	C 	0.2934	0.1592	0.3798	-0.068
Mof_C 	C 	0.4045	0.2877	0.3547	-0.05
Mof_Re	Re	0.09531	0.3606	0.9413	0.471
Mof_S 	S 	0.13031	0.2621	0.98913	-0.219
Mof_N 	N 	0.1478	0.3416	0.1539	-0.21
Mof_N 	N 	0.2628	0.4139	0.031	-0.29
Mof_N 	N 	0.1186	0.4926	0.8652	-0.124
Mof_N 	N 	0.2679	0.3297	0.8459	-0.113
Mof_N 	N 	0.1491	0.1908	0.8202	-0.202
Mof_C 	C 	0.096	0.3297	0.1143	-0.03
Mof_C 	C 	0.2047	0.3955	0.9991	0.038
Mof_C 	C 	0.1122	0.448	0.894	-0.044
Mof_C 	C 	0.2066	0.3408	0.8798	-0.064
Mof_C 	C 	0.0955	0.2123	0.8547	-0.046
Mof_Re	Re	0.59531	0.8606	0.9413	0.468
Mof_S 	S 	0.63031	0.7621	0.98913	-0.219
Mof_N 	N 	0.6478	0.8416	0.1539	-0.206
Mof_N 	N 	0.7628	0.9139	0.031	-0.239
Mof_N 	N 	0.6186	0.9926	0.8652	-0.085
Mof_N 	N 	0.7679	0.8297	0.8459	-0.105
Mof_N 	N 	0.6491	0.6908	0.8202	-0.204
Mof_C 	C 	0.596	0.8297	0.1143	-0.02
Mof_C 	C 	0.7047	0.8955	0.9991	0.056
Mof_C 	C 	0.6122	0.948	0.894	-0.017
Mof_C 	C 	0.7066	0.8408	0.8798	-0.052
Mof_C 	C 	0.5955	0.7123	0.8547	-0.047
Mof_Re	Re	0.09531	0.6394	0.0587	0.42
Mof_S 	S 	0.13031	0.7379	0.01087	-0.352
Mof_N 	N 	0.1478	0.6584	0.8461	-0.205
Mof_N 	N 	0.2628	0.5861	0.969	-0.163
Mof_N 	N 	0.1186	0.5074	0.1348	-0.127
Mof_N 	N 	0.2679	0.6703	0.1541	-0.124
Mof_N 	N 	0.1491	0.8092	0.1798	-0.205
Mof_C 	C 	0.096	0.6703	0.8857	-0.019
Mof_C 	C 	0.2047	0.6045	0.0009	-0.15
Mof_C 	C 	0.1122	0.552	0.106	-0.061
Mof_C 	C 	0.2066	0.6592	0.1202	-0.063
Mof_C 	C 	0.0955	0.7877	0.1453	-0.037
Mof_Re	Re	0.59531	0.1394	0.0587	0.422
Mof_S 	S 	0.63031	0.2379	0.01087	-0.357
Mof_N 	N 	0.6478	0.1584	0.8461	-0.207
Mof_N 	N 	0.7628	0.0861	0.969	-0.152
Mof_N 	N 	0.6186	0.0074	0.1348	-0.16
Mof_N 	N 	0.7679	0.1703	0.1541	-0.125
Mof_N 	N 	0.6491	0.3092	0.1798	-0.207
Mof_C 	C 	0.596	0.1703	0.8857	-0.03
Mof_C 	C 	0.7047	0.1045	0.0009	-0.163
Mof_C 	C 	0.6122	0.052	0.106	-0.078
Mof_C 	C 	0.7066	0.1592	0.1202	-0.063
Mof_C 	C 	0.5955	0.2877	0.1453	-0.048
Mof_Re	Re	0.90469	0.3606	0.5587	0.43
Mof_S 	S 	0.86969	0.2621	0.51087	-0.3
Mof_N 	N 	0.8522	0.3416	0.3461	-0.207
Mof_N 	N 	0.7372	0.4139	0.469	-0.24
Mof_N 	N 	0.8814	0.4926	0.6348	-0.13
Mof_N 	N 	0.7321	0.3297	0.6541	-0.12
Mof_N 	N 	0.8509	0.1908	0.6798	-0.203
Mof_C 	C 	0.904	0.3297	0.3857	-0.039
Mof_C 	C 	0.7953	0.3955	0.5009	-0.06
Mof_C 	C 	0.8878	0.448	0.606	-0.061
Mof_C 	C 	0.7934	0.3408	0.6202	-0.065
Mof_C 	C 	0.9045	0.2123	0.6453	-0.061
Mof_Re	Re	0.40469	0.8606	0.5587	0.443
Mof_S 	S 	0.36969	0.7621	0.51087	-0.291
Mof_N 	N 	0.3522	0.8416	0.3461	-0.205
Mof_N 	N 	0.2372	0.9139	0.469	-0.202
Mof_N 	N 	0.3814	0.9926	0.6348	-0.088
Mof_N 	N 	0.2321	0.8297	0.6541	-0.109
Mof_N 	N 	0.3509	0.6908	0.6798	-0.207
Mof_C 	C 	0.404	0.8297	0.3857	-0.016
Mof_C 	C 	0.2953	0.8955	0.5009	-0.038
Mof_C 	C 	0.3878	0.948	0.606	-0.03
Mof_C 	C 	0.2934	0.8408	0.6202	-0.055
Mof_C 	C 	0.4045	0.7123	0.6453	-0.049
Mof_Re	Re	0.09531	0.3606	0.5587	0.446
Mof_S 	S 	0.13031	0.2621	0.51087	-0.293
Mof_N 	N 	0.1478	0.3416	0.3461	-0.208
Mof_N 	N 	0.2628	0.4139	0.469	-0.24
Mof_N 	N 	0.1186	0.4926	0.6348	-0.127
Mof_N 	N 	0.2679	0.3297	0.6541	-0.119
Mof_N 	N 	0.1491	0.1908	0.6798	-0.204
Mof_C 	C 	0.096	0.3297	0.3857	-0.026
Mof_C 	C 	0.2047	0.3955	0.5009	-0.06
Mof_C 	C 	0.1122	0.448	0.606	-0.055
Mof_C 	C 	0.2066	0.3408	0.6202	-0.066
Mof_C 	C 	0.0955	0.2123	0.6453	-0.049
Mof_Re	Re	0.59531	0.8606	0.5587	0.444
Mof_S 	S 	0.63031	0.7621	0.51087	-0.29
Mof_N 	N 	0.6478	0.8416	0.3461	-0.204
Mof_N 	N 	0.7628	0.9139	0.469	-0.192
Mof_N 	N 	0.6186	0.9926	0.6348	-0.087
Mof_N 	N 	0.7679	0.8297	0.6541	-0.11
Mof_N 	N 	0.6491	0.6908	0.6798	-0.206
Mof_C 	C 	0.596	0.8297	0.3857	-0.016
Mof_C 	C 	0.7047	0.8955	0.5009	-0.036
Mof_C 	C 	0.6122	0.948	0.606	-0.028
Mof_C 	C 	0.7066	0.8408	0.6202	-0.054
Mof_C 	C 	0.5955	0.7123	0.6453	-0.049
Mof_Re	Re	0.90469	0.6394	0.0587	0.403
Mof_S 	S 	0.86969	0.7379	0.01087	-0.359
Mof_N 	N 	0.8522	0.6584	0.8461	-0.204
Mof_N 	N 	0.7372	0.5861	0.969	-0.163
Mof_N 	N 	0.8814	0.5074	0.1348	-0.13
Mof_N 	N 	0.7321	0.6703	0.1541	-0.124
Mof_N 	N 	0.8509	0.8092	0.1798	-0.204
Mof_C 	C 	0.904	0.6703	0.8857	-0.032
Mof_C 	C 	0.7953	0.6045	0.0009	-0.15
Mof_C 	C 	0.8878	0.552	0.106	-0.067
Mof_C 	C 	0.7934	0.6592	0.1202	-0.063
Mof_C 	C 	0.9045	0.7877	0.1453	-0.05
Mof_Re	Re	0.40469	0.1394	0.0587	0.422
Mof_S 	S 	0.36969	0.2379	0.01087	-0.357
Mof_N 	N 	0.3522	0.1584	0.8461	-0.208
Mof_N 	N 	0.2372	0.0861	0.969	-0.163
Mof_N 	N 	0.3814	0.0074	0.1348	-0.161
Mof_N 	N 	0.2321	0.1703	0.1541	-0.124
Mof_N 	N 	0.3509	0.3092	0.1798	-0.207
Mof_C 	C 	0.404	0.1703	0.8857	-0.031
Mof_C 	C 	0.2953	0.1045	0.0009	-0.165
Mof_C 	C 	0.3878	0.052	0.106	-0.08
Mof_C 	C 	0.2934	0.1592	0.1202	-0.064
Mof_C 	C 	0.4045	0.2877	0.1453	-0.048
Mof_Re	Re	0.90469	0.3606	0.9413	0.456
Mof_S 	S 	0.86969	0.2621	0.98913	-0.226
Mof_N 	N 	0.8522	0.3416	0.1539	-0.209
Mof_N 	N 	0.7372	0.4139	0.031	-0.29
Mof_N 	N 	0.8814	0.4926	0.8652	-0.127
Mof_N 	N 	0.7321	0.3297	0.8459	-0.114
Mof_N 	N 	0.8509	0.1908	0.8202	-0.201
Mof_C 	C 	0.904	0.3297	0.1143	-0.043
Mof_C 	C 	0.7953	0.3955	0.9991	0.039
Mof_C 	C 	0.8878	0.448	0.894	-0.05
Mof_C 	C 	0.7934	0.3408	0.8798	-0.064
Mof_C 	C 	0.9045	0.2123	0.8547	-0.058
Mof_Re	Re	0.40469	0.8606	0.9413	0.468
Mof_S 	S 	0.36969	0.7621	0.98913	-0.22
Mof_N 	N 	0.3522	0.8416	0.1539	-0.207
Mof_N 	N 	0.2372	0.9139	0.031	-0.249
Mof_N 	N 	0.3814	0.9926	0.8652	-0.086
Mof_N 	N 	0.2321	0.8297	0.8459	-0.104
Mof_N 	N 	0.3509	0.6908	0.8202	-0.205
Mof_C 	C 	0.404	0.8297	0.1143	-0.02
Mof_C 	C 	0.2953	0.8955	0.9991	0.054
Mof_C 	C 	0.3878	0.948	0.894	-0.019
Mof_C 	C 	0.2934	0.8408	0.8798	-0.053
Mof_C 	C 	0.4045	0.7123	0.8547	-0.046
Mof_Re	Re	0.09531	0.6394	0.4413	0.445
Mof_S 	S 	0.13031	0.7379	0.48913	-0.288
Mof_N 	N 	0.1478	0.6584	0.6539	-0.208
Mof_N 	N 	0.2628	0.5861	0.531	-0.24
Mof_N 	N 	0.1186	0.5074	0.3652	-0.127
Mof_N 	N 	0.2679	0.6703	0.3459	-0.121
Mof_N 	N 	0.1491	0.8092	0.3202	-0.205
Mof_C 	C 	0.096	0.6703	0.6143	-0.025
Mof_C 	C 	0.2047	0.6045	0.4991	-0.061
Mof_C 	C 	0.1122	0.552	0.394	-0.055
Mof_C 	C 	0.2066	0.6592	0.3798	-0.067
Mof_C 	C 	0.0955	0.7877	0.3547	-0.039
Mof_Re	Re	0.59531	0.1394	0.4413	0.449
Mof_S 	S 	0.63031	0.2379	0.48913	-0.29
Mof_N 	N 	0.6478	0.1584	0.6539	-0.211
Mof_N 	N 	0.7628	0.0861	0.531	-0.231
Mof_N 	N 	0.6186	0.0074	0.3652	-0.16
Mof_N 	N 	0.7679	0.1703	0.3459	-0.123
Mof_N 	N 	0.6491	0.3092	0.3202	-0.206
Mof_C 	C 	0.596	0.1703	0.6143	-0.036
Mof_C 	C 	0.7047	0.1045	0.4991	-0.071
Mof_C 	C 	0.6122	0.052	0.394	-0.072
Mof_C 	C 	0.7066	0.1592	0.3798	-0.067
Mof_C 	C 	0.5955	0.2877	0.3547	-0.05
Mof_Re	Re	-5.03257e-33	0.69443	0.54158	0.443
Mof_Re	Re	1.01703e-32	0.74933	0.42075	0.444
Mof_S 	S 	2.76184e-33	0.58477	0.51731	-0.262
Mof_S 	S 	-6.05106e-33	0.66168	0.35081	-0.264
Mof_N 	N 	-4.57813e-33	0.8218	0.6267	-0.131
Mof_N 	N 	1.04087e-32	0.8945	0.4654	-0.326
Mof_C 	C 	-1.26676e-32	0.7789	0.5957	-0.043
Mof_C 	C 	1.82585e-32	0.8435	0.4515	-0.032
Mof_Re	Re	0.5	0.19443	0.54158	0.435
Mof_Re	Re	0.5	0.24933	0.42075	0.431
Mof_S 	S 	0.5	0.08477	0.51731	-0.328
Mof_S 	S 	0.5	0.16168	0.35081	-0.28
Mof_N 	N 	0.5	0.3218	0.6267	-0.155
Mof_N 	N 	0.5	0.3945	0.4654	-0.398
Mof_C 	C 	0.5	0.2789	0.5957	-0.053
Mof_C 	C 	0.5	0.3435	0.4515	-0.044
Mof_Re	Re	1.21249e-33	0.30557	0.04158	0.359
Mof_Re	Re	4.91575e-33	0.25067	0.92075	0.447
Mof_S 	S 	-4.02834e-34	0.41523	0.01731	-0.339
Mof_S 	S 	4.54235e-33	0.33832	0.85081	-0.267
Mof_N 	N 	6.76432e-34	0.1782	0.1267	-0.151
Mof_N 	N 	5.15412e-33	0.1055	0.9654	-0.322
Mof_C 	C 	1.50143e-33	0.2211	0.0957	-0.063
Mof_C 	C 	-1.07681e-32	0.1565	0.9515	-0.028
Mof_Re	Re	0.5	0.80557	0.04158	0.343
Mof_Re	Re	0.5	0.75067	0.92075	0.432
Mof_S 	S 	0.5	0.91523	0.01731	-0.287
Mof_S 	S 	0.5	0.83832	0.85081	-0.27
Mof_N 	N 	0.5	0.6782	0.1267	-0.156
Mof_N 	N 	0.5	0.6055	0.9654	-0.354
Mof_C 	C 	0.5	0.7211	0.0957	-0.07
Mof_C 	C 	0.5	0.6565	0.9515	-0.029
Mof_Re	Re	-1.07311e-32	0.69443	0.95842	0.524
Mof_Re	Re	1.03281e-32	0.74933	0.07925	0.444
Mof_S 	S 	5.24643e-33	0.58477	0.98269	-0.183
Mof_S 	S 	-3.16549e-33	0.66168	0.14919	-0.26
Mof_N 	N 	3.63584e-32	0.8218	0.8733	-0.122
Mof_N 	N 	1.15755e-32	0.8945	0.0346	-0.31
Mof_C 	C 	4.82792e-33	0.7789	0.9043	-0.023
Mof_C 	C 	3.72568e-33	0.8435	0.0485	-0.046
Mof_Re	Re	0.5	0.19443	0.95842	0.521
Mof_Re	Re	0.5	0.24933	0.07925	0.43
Mof_S 	S 	0.5	0.08477	0.98269	-0.243
Mof_S 	S 	0.5	0.16168	0.14919	-0.276
Mof_N 	N 	0.5	0.3218	0.8733	-0.144
Mof_N 	N 	0.5	0.3945	0.0346	-0.383
Mof_C 	C 	0.5	0.2789	0.9043	-0.031
Mof_C 	C 	0.5	0.3435	0.0485	-0.059
Mof_Re	Re	1.03714e-32	0.30557	0.45842	0.444
Mof_Re	Re	1.10165e-32	0.25067	0.57925	0.445
Mof_S 	S 	-5.34698e-33	0.41523	0.48269	-0.262
Mof_S 	S 	-4.45806e-33	0.33832	0.64919	-0.262
Mof_N 	N 	-1.969e-33	0.1782	0.3733	-0.151
Mof_N 	N 	2.85415e-33	0.1055	0.5346	-0.366
Mof_C 	C 	2.1585e-33	0.2211	0.4043	-0.047
Mof_C 	C 	1.08523e-32	0.1565	0.5485	-0.043
Mof_Re	Re	0.5	0.80557	0.45842	0.425
Mof_Re	Re	0.5	0.75067	0.57925	0.429
Mof_S 	S 	0.5	0.91523	0.48269	-0.213
Mof_S 	S 	0.5	0.83832	0.64919	-0.266
Mof_N 	N 	0.5	0.6782	0.3733	-0.156
Mof_N 	N 	0.5	0.6055	0.5346	-0.398
Mof_C 	C 	0.5	0.7211	0.4043	-0.054
Mof_C 	C 	0.5	0.6565	0.5485	-0.045
Mof_Yb	Yb	0.76246	0.64251	0.75	0.96
Mof_Yb	Yb	0.26246	0.14251	0.75	0.913
Mof_Yb	Yb	0.23754	0.35749	0.25	0.956
Mof_Yb	Yb	0.73754	0.85749	0.25	1.035
Mof_Yb	Yb	0.23754	0.64251	0.75	0.968
Mof_Yb	Yb	0.73754	0.14251	0.75	0.909
Mof_Yb	Yb	0.76246	0.35749	0.25	0.948
Mof_Yb	Yb	0.26246	0.85749	0.25	1.039
Mof_K 	K 	0.5937	0.5	0.5	1.405
Mof_K 	K 	0.0937	0	0.5	1.28
Mof_K 	K 	0.4063	0.5	-0	1.276
Mof_K 	K 	0.9063	0	-0	0.967
Mof_K 	K 	0.4063	0.5	0.5	1.409
Mof_K 	K 	0.9063	0	0.5	1.101
Mof_K 	K 	0.5937	0.5	-0	1.271
Mof_K 	K 	0.0937	0	-0	1.148
_end
