data_functionalizedCrystal
_audit_creation_method	'EQeq! by Chris Wilmer'
_symmetry_space_group_name_H-M	'P1'
_symmetry_Int_Tables_number	1
_symmetry_cell_setting	triclinic
loop_
_symmetry_equiv_pos_as_xyz
  x,y,z
_cell_length_a	15.3979
_cell_length_b	11.5941
_cell_length_c	12.5879
_cell_angle_alpha	90
_cell_angle_beta	93.862
_cell_angle_gamma	90
loop_
_atom_site_label
_atom_site_type_symbol
_atom_site_fract_x
_atom_site_fract_y
_atom_site_fract_z
_atom_site_charge
Mof_Cd	Cd	0.10975	0.39774	0.03623	0.491
Mof_S 	S 	0.14295	0.22092	0.16692	0.049
Mof_Cl	Cl	0.1548	0.55733	0.17138	-0.29
Mof_Cl	Cl	0.04705	0.26417	0.88531	-0.307
Mof_Cl	Cl	0.05136	0.57822	0.89636	-0.342
Mof_N 	N 	0.2597	0.1086	0.0408	-0.114
Mof_C 	C 	0.2126	0.1573	0.0922	0.128
Mof_Cd	Cd	0.60976	0.89774	0.03623	0.508
Mof_S 	S 	0.64295	0.72092	0.16692	0.069
Mof_Cl	Cl	0.6548	0.05733	0.17138	-0.28
Mof_Cl	Cl	0.54705	0.76417	0.88531	-0.283
Mof_Cl	Cl	0.55136	0.07822	0.89636	-0.312
Mof_N 	N 	0.7597	0.6086	0.0408	-0.112
Mof_C 	C 	0.7126	0.6573	0.0922	0.128
Mof_Cd	Cd	0.89024	0.39774	0.46377	0.527
Mof_S 	S 	0.85705	0.22092	0.33308	0.089
Mof_Cl	Cl	0.8452	0.55733	0.32862	-0.262
Mof_Cl	Cl	0.95295	0.26417	0.61469	-0.242
Mof_Cl	Cl	0.94864	0.57822	0.60364	-0.266
Mof_N 	N 	0.7403	0.1086	0.4592	-0.109
Mof_C 	C 	0.7874	0.1573	0.4078	0.126
Mof_Cd	Cd	0.39025	0.89774	0.46377	0.507
Mof_S 	S 	0.35705	0.72092	0.33308	0.066
Mof_Cl	Cl	0.3452	0.05733	0.32862	-0.287
Mof_Cl	Cl	0.45295	0.76417	0.61469	-0.283
Mof_Cl	Cl	0.44864	0.07822	0.60364	-0.314
Mof_N 	N 	0.2403	0.6086	0.4592	-0.11
Mof_C 	C 	0.2874	0.6573	0.4078	0.127
Mof_Cd	Cd	0.89024	0.60226	0.96377	0.525
Mof_S 	S 	0.85705	0.77908	0.83308	0.087
Mof_Cl	Cl	0.8452	0.44267	0.82862	-0.264
Mof_Cl	Cl	0.95295	0.73583	0.11469	-0.239
Mof_Cl	Cl	0.94864	0.42178	0.10364	-0.264
Mof_N 	N 	0.7403	0.8914	0.9592	-0.109
Mof_C 	C 	0.7874	0.8427	0.9078	0.126
Mof_Cd	Cd	0.39025	0.10226	0.96377	0.508
Mof_S 	S 	0.35705	0.27908	0.83308	0.067
Mof_Cl	Cl	0.3452	0.94267	0.82862	-0.286
Mof_Cl	Cl	0.45295	0.23583	0.11469	-0.283
Mof_Cl	Cl	0.44864	0.92178	0.10364	-0.315
Mof_N 	N 	0.2403	0.3914	0.9592	-0.109
Mof_C 	C 	0.2874	0.3427	0.9078	0.128
Mof_Cd	Cd	0.10975	0.60226	0.53623	0.492
Mof_S 	S 	0.14295	0.77908	0.66692	0.049
Mof_Cl	Cl	0.1548	0.44267	0.67138	-0.291
Mof_Cl	Cl	0.04705	0.73583	0.38531	-0.31
Mof_Cl	Cl	0.05136	0.42178	0.39636	-0.345
Mof_N 	N 	0.2597	0.8914	0.5408	-0.114
Mof_C 	C 	0.2126	0.8427	0.5922	0.128
Mof_Cd	Cd	0.60976	0.10226	0.53623	0.508
Mof_S 	S 	0.64295	0.27908	0.66692	0.069
Mof_Cl	Cl	0.6548	0.94267	0.67138	-0.281
Mof_Cl	Cl	0.54705	0.23583	0.38531	-0.283
Mof_Cl	Cl	0.55136	0.92178	0.39636	-0.312
Mof_N 	N 	0.7597	0.3914	0.5408	-0.112
Mof_C 	C 	0.7126	0.3427	0.5922	0.128
Mof_Cd	Cd	1.58451e-18	0.576	0.25	0.523
Mof_Cd	Cd	0.5	0.076	0.25	0.576
Mof_Cd	Cd	1.26761e-17	0.424	0.75	0.525
Mof_Cd	Cd	0.5	0.924	0.75	0.576
_end
