data_functionalizedCrystal
_audit_creation_method	'EQeq! by Chris Wilmer'
_symmetry_space_group_name_H-M	'P1'
_symmetry_Int_Tables_number	1
_symmetry_cell_setting	triclinic
loop_
_symmetry_equiv_pos_as_xyz
  x,y,z
_cell_length_a	12.758
_cell_length_b	17.5203
_cell_length_c	21.8129
_cell_angle_alpha	90
_cell_angle_beta	90
_cell_angle_gamma	90
loop_
_atom_site_label
_atom_site_type_symbol
_atom_site_fract_x
_atom_site_fract_y
_atom_site_fract_z
_atom_site_charge
Mof_In	In	0.91913	0.98958	0.82681	2.586
Mof_C 	C 	0.84	0.7648	0.7937	0.005
Mof_C 	C 	0.9062	0.7192	0.7592	-0.057
Mof_H 	H 	0.967	0.739	0.7419	0.086
Mof_C 	C 	0.8795	0.6432	0.7513	0.004
Mof_C 	C 	0.7858	0.6142	0.7774	-0.123
Mof_H 	H 	0.7687	0.5629	0.7734	0.101
Mof_C 	C 	0.7207	0.6632	0.8087	0.136
Mof_C 	C 	0.7488	0.7363	0.8201	-0.129
Mof_H 	H 	0.7078	0.7671	0.8452	0.101
Mof_C 	C 	0.5394	0.6132	0.7995	0.105
Mof_C 	C 	0.5273	0.626	0.7364	-0.127
Mof_H 	H 	0.5787	0.6487	0.7123	0.088
Mof_C 	C 	0.4289	0.6009	0.7125	0.03
Mof_H 	H 	0.4158	0.607	0.6708	0.047
Mof_C 	C 	0.3526	0.5682	0.7487	-0.074
Mof_C 	C 	0.368	0.5583	0.8116	-0.015
Mof_H 	H 	0.3154	0.5377	0.8361	0.062
Mof_C 	C 	0.4657	0.5805	0.8374	-0.023
Mof_C 	C 	0.5085	0.5783	0.8973	-0.02
Mof_C 	C 	0.4741	0.5518	0.9536	-0.016
Mof_H 	H 	0.4086	0.5289	0.9573	0.062
Mof_C 	C 	0.5383	0.5596	0.0045	-0.073
Mof_C 	C 	0.6374	0.5907	0.9997	0.04
Mof_H 	H 	0.6798	0.5945	0.0343	0.041
Mof_C 	C 	0.6734	0.6159	0.9443	-0.138
Mof_H 	H 	0.7399	0.6372	0.9406	0.091
Mof_C 	C 	0.6094	0.6091	0.8945	0.106
Mof_C 	C 	0.871	0.8463	0.8048	0.305
Mof_C 	C 	0.9517	0.5904	0.7198	0.291
Mof_C 	C 	0.251	0.5445	0.7224	0.343
Mof_C 	C 	0.4971	0.5357	0.065	0.325
Mof_N 	N 	0.6271	0.6318	0.8331	-0.16
Mof_O 	O 	0.9481	0.8739	0.7765	-0.459
Mof_O 	O 	0.8225	0.8854	0.8432	-0.521
Mof_O 	O 	0.0176	0.6124	0.6823	-0.485
Mof_O 	O 	0.9472	0.5188	0.7346	-0.497
Mof_O 	O 	0.2379	0.5503	0.6655	-0.5
Mof_O 	O 	0.1809	0.5152	0.7546	-0.526
Mof_O 	O 	0.415	0.4973	0.0704	-0.511
Mof_O 	O 	0.5465	0.5553	0.1133	-0.519
Mof_In	In	0.58087	0.01042	0.32681	2.588
Mof_C 	C 	0.66	0.2352	0.2937	0.005
Mof_C 	C 	0.5938	0.2808	0.2592	-0.057
Mof_H 	H 	0.533	0.261	0.2419	0.085
Mof_C 	C 	0.6205	0.3568	0.2513	0.003
Mof_C 	C 	0.7142	0.3858	0.2774	-0.123
Mof_H 	H 	0.7313	0.4371	0.2734	0.101
Mof_C 	C 	0.7793	0.3368	0.3087	0.136
Mof_C 	C 	0.7512	0.2637	0.3201	-0.129
Mof_H 	H 	0.7922	0.2329	0.3452	0.102
Mof_C 	C 	0.9606	0.3868	0.2995	0.109
Mof_C 	C 	0.9727	0.374	0.2364	-0.125
Mof_H 	H 	0.9213	0.3513	0.2123	0.087
Mof_C 	C 	0.0711	0.3991	0.2125	0.028
Mof_H 	H 	0.0842	0.393	0.1708	0.046
Mof_C 	C 	0.1474	0.4318	0.2487	-0.075
Mof_C 	C 	0.132	0.4417	0.3116	-0.011
Mof_H 	H 	0.1846	0.4623	0.3361	0.061
Mof_C 	C 	0.0343	0.4195	0.3374	-0.031
Mof_C 	C 	0.9915	0.4217	0.3973	-0.01
Mof_C 	C 	0.0259	0.4482	0.4536	-0.028
Mof_H 	H 	0.0914	0.4711	0.4573	0.066
Mof_C 	C 	0.9617	0.4404	0.5045	-0.064
Mof_C 	C 	0.8626	0.4093	0.4997	0.035
Mof_H 	H 	0.8202	0.4055	0.5343	0.043
Mof_C 	C 	0.8266	0.3841	0.4443	-0.132
Mof_H 	H 	0.7601	0.3628	0.4406	0.09
Mof_C 	C 	0.8906	0.3909	0.3945	0.102
Mof_C 	C 	0.629	0.1537	0.3048	0.305
Mof_C 	C 	0.5483	0.4096	0.2198	0.291
Mof_C 	C 	0.249	0.4555	0.2224	0.343
Mof_C 	C 	0.0029	0.4643	0.565	0.319
Mof_N 	N 	0.8729	0.3682	0.3331	-0.16
Mof_O 	O 	0.5519	0.1261	0.2765	-0.46
Mof_O 	O 	0.6775	0.1146	0.3432	-0.52
Mof_O 	O 	0.4824	0.3876	0.1823	-0.486
Mof_O 	O 	0.5528	0.4812	0.2346	-0.497
Mof_O 	O 	0.2621	0.4497	0.1655	-0.501
Mof_O 	O 	0.3191	0.4848	0.2546	-0.526
Mof_O 	O 	0.085	0.5027	0.5704	-0.508
Mof_O 	O 	0.9535	0.4447	0.6133	-0.516
Mof_In	In	0.08087	0.48958	0.67319	2.6
Mof_C 	C 	0.16	0.2648	0.7063	0.006
Mof_C 	C 	0.0938	0.2192	0.7408	-0.059
Mof_H 	H 	0.033	0.239	0.7581	0.086
Mof_C 	C 	0.1205	0.1432	0.7487	0.005
Mof_C 	C 	0.2142	0.1142	0.7226	-0.124
Mof_H 	H 	0.2313	0.0629	0.7266	0.101
Mof_C 	C 	0.2793	0.1632	0.6913	0.137
Mof_C 	C 	0.2512	0.2363	0.6799	-0.13
Mof_H 	H 	0.2922	0.2671	0.6548	0.102
Mof_C 	C 	0.4606	0.1132	0.7005	0.105
Mof_C 	C 	0.4727	0.126	0.7636	-0.126
Mof_H 	H 	0.4213	0.1487	0.7877	0.087
Mof_C 	C 	0.5711	0.1009	0.7875	0.03
Mof_H 	H 	0.5842	0.107	0.8292	0.047
Mof_C 	C 	0.6474	0.0682	0.7513	-0.073
Mof_C 	C 	0.632	0.0583	0.6884	-0.015
Mof_H 	H 	0.6846	0.0377	0.6639	0.063
Mof_C 	C 	0.5343	0.0805	0.6626	-0.022
Mof_C 	C 	0.4915	0.0783	0.6027	-0.02
Mof_C 	C 	0.5259	0.0518	0.5464	-0.016
Mof_H 	H 	0.5914	0.0289	0.5427	0.062
Mof_C 	C 	0.4617	0.0596	0.4955	-0.073
Mof_C 	C 	0.3626	0.0907	0.5003	0.042
Mof_H 	H 	0.3202	0.0945	0.4657	0.039
Mof_C 	C 	0.3266	0.1159	0.5557	-0.139
Mof_H 	H 	0.2601	0.1372	0.5594	0.091
Mof_C 	C 	0.3906	0.1091	0.6055	0.106
Mof_C 	C 	0.129	0.3463	0.6952	0.305
Mof_C 	C 	0.0483	0.0904	0.7802	0.285
Mof_C 	C 	0.749	0.0445	0.7776	0.342
Mof_C 	C 	0.5029	0.0357	0.435	0.322
Mof_N 	N 	0.3729	0.1318	0.6669	-0.161
Mof_O 	O 	0.0519	0.3739	0.7235	-0.46
Mof_O 	O 	0.1775	0.3854	0.6568	-0.521
Mof_O 	O 	0.9824	0.1124	0.8177	-0.478
Mof_O 	O 	0.0528	0.0188	0.7654	-0.496
Mof_O 	O 	0.7621	0.0503	0.8345	-0.497
Mof_O 	O 	0.8191	0.0152	0.7454	-0.522
Mof_O 	O 	0.585	0.9973	0.4296	-0.505
Mof_O 	O 	0.4535	0.0553	0.3867	-0.519
Mof_In	In	0.41913	0.51042	0.17319	2.601
Mof_C 	C 	0.34	0.7352	0.2063	0.006
Mof_C 	C 	0.4062	0.7808	0.2408	-0.058
Mof_H 	H 	0.467	0.761	0.2581	0.086
Mof_C 	C 	0.3795	0.8568	0.2487	0.005
Mof_C 	C 	0.2858	0.8858	0.2226	-0.124
Mof_H 	H 	0.2687	0.9371	0.2266	0.103
Mof_C 	C 	0.2207	0.8368	0.1913	0.137
Mof_C 	C 	0.2488	0.7637	0.1799	-0.13
Mof_H 	H 	0.2078	0.7329	0.1548	0.102
Mof_C 	C 	0.0394	0.8868	0.2005	0.109
Mof_C 	C 	0.0273	0.874	0.2636	-0.125
Mof_H 	H 	0.0787	0.8513	0.2877	0.088
Mof_C 	C 	0.9289	0.8991	0.2875	0.028
Mof_H 	H 	0.9158	0.893	0.3292	0.047
Mof_C 	C 	0.8526	0.9318	0.2513	-0.074
Mof_C 	C 	0.868	0.9417	0.1884	-0.012
Mof_H 	H 	0.8154	0.9623	0.1639	0.062
Mof_C 	C 	0.9657	0.9195	0.1626	-0.029
Mof_C 	C 	0.0085	0.9217	0.1027	-0.012
Mof_C 	C 	0.9741	0.9482	0.0464	-0.022
Mof_H 	H 	0.9086	0.9711	0.0427	0.065
Mof_C 	C 	0.0383	0.9404	0.9955	-0.07
Mof_C 	C 	0.1374	0.9093	0.0003	0.049
Mof_H 	H 	0.1798	0.9055	0.9657	0.036
Mof_C 	C 	0.1734	0.8841	0.0557	-0.141
Mof_H 	H 	0.2399	0.8628	0.0594	0.093
Mof_C 	C 	0.1094	0.8909	0.1055	0.106
Mof_C 	C 	0.371	0.6537	0.1952	0.305
Mof_C 	C 	0.4517	0.9096	0.2802	0.291
Mof_C 	C 	0.751	0.9555	0.2776	0.342
Mof_C 	C 	0.9971	0.9643	0.935	0.309
Mof_N 	N 	0.1271	0.8682	0.1669	-0.161
Mof_O 	O 	0.4481	0.6261	0.2235	-0.459
Mof_O 	O 	0.3225	0.6146	0.1568	-0.521
Mof_O 	O 	0.5176	0.8876	0.3177	-0.483
Mof_O 	O 	0.4472	0.9812	0.2654	-0.493
Mof_O 	O 	0.7379	0.9497	0.3345	-0.498
Mof_O 	O 	0.6809	0.9848	0.2454	-0.523
Mof_O 	O 	0.915	0.0027	0.9296	-0.499
Mof_O 	O 	0.0465	0.9447	0.8867	-0.511
_end
