data_functionalizedCrystal
_audit_creation_method	'EQeq! by Chris Wilmer'
_symmetry_space_group_name_H-M	'P1'
_symmetry_Int_Tables_number	1
_symmetry_cell_setting	triclinic
loop_
_symmetry_equiv_pos_as_xyz
  x,y,z
_cell_length_a	23.0077
_cell_length_b	17.0544
_cell_length_c	28.6284
_cell_angle_alpha	90
_cell_angle_beta	101.479
_cell_angle_gamma	90
loop_
_atom_site_label
_atom_site_type_symbol
_atom_site_fract_x
_atom_site_fract_y
_atom_site_fract_z
_atom_site_charge
Mof_Ag	Ag	0.25781	0.71502	0.10114	0.326
Mof_Ag	Ag	0.19468	0.83898	0.13582	0.378
Mof_Ag	Ag	0.19342	0.78808	0.01491	0.385
Mof_Ag	Ag	0.18929	0.81572	0.26069	0.264
Mof_Ag	Ag	0.18601	0.79883	0.39085	0.137
Mof_Ag	Ag	0.25945	0.71289	0.20571	0.436
Mof_Ag	Ag	0.25955	0.91104	0.33382	0.38
Mof_Ag	Ag	0.28006	0.90871	0.22423	0.366
Mof_Ag	Ag	0.25986	0.64037	0.97832	0.349
Mof_Ag	Ag	0.94965	0.2279	0.07497	0.755
Mof_Ag	Ag	0.27104	0.81842	0.94544	0.407
Mof_Ag	Ag	0.29933	0.1097	0.19326	0.707
Mof_Ag	Ag	0.27481	0.9965	0.97827	0.75
Mof_Ag	Ag	0.25724	0.71131	0.3404	0.453
Mof_Ag	Ag	0.28555	0.89076	0.07814	0.434
Mof_C 	C 	0.2852	0.7681	0.0272	-0.427
Mof_C 	C 	0.3392	0.7671	0.0328	0.088
Mof_C 	C 	0.40252	0.7613	0.04017	-0.13
Mof_C 	C 	0.42914	0.6882	0.04874	0.087
Mof_H 	H 	0.406	0.644	0.0505	-0.001
Mof_C 	C 	0.49036	0.6811	0.05472	-0.186
Mof_H 	H 	0.5082	0.6321	0.0604	0.16
Mof_C 	C 	0.52496	0.7471	0.05213	0.218
Mof_C 	C 	0.49835	0.8203	0.04356	-0.19
Mof_H 	H 	0.5215	0.8645	0.0418	0.224
Mof_C 	C 	0.43713	0.8274	0.03758	0.102
Mof_H 	H 	0.4193	0.8763	0.0318	0.048
Mof_C 	C 	0.2879	0.8199	0.154	-0.419
Mof_C 	C 	0.3409	0.8371	0.1628	0.079
Mof_C 	C 	0.4042	0.846	0.17179	-0.122
Mof_C 	C 	0.43887	0.78126	0.16625	0.098
Mof_H 	H 	0.421	0.7332	0.1573	0
Mof_C 	C 	0.50022	0.7884	0.17402	-0.197
Mof_H 	H 	0.5234	0.745	0.1703	0.191
Mof_C 	C 	0.52691	0.8603	0.18734	0.226
Mof_C 	C 	0.49224	0.925	0.19288	-0.162
Mof_H 	H 	0.5101	0.9731	0.2018	0.151
Mof_C 	C 	0.43088	0.9179	0.18511	0.086
Mof_H 	H 	0.4077	0.9612	0.1888	0.02
Mof_C 	C 	0.282	0.7985	0.2757	-0.391
Mof_C 	C 	0.3336	0.7791	0.282	0.072
Mof_C 	C 	0.39595	0.7619	0.2896	-0.088
Mof_C 	C 	0.43654	0.8231	0.29917	0.04
Mof_H 	H 	0.4233	0.8741	0.3018	0.04
Mof_C 	C 	0.4969	0.8079	0.3048	-0.143
Mof_H 	H 	0.5241	0.8488	0.3112	0.12
Mof_C 	C 	0.51667	0.7316	0.3009	0.167
Mof_C 	C 	0.4761	0.6705	0.2913	-0.125
Mof_H 	H 	0.4893	0.6195	0.2887	0.141
Mof_C 	C 	0.41572	0.6857	0.28569	0.055
Mof_H 	H 	0.3886	0.6448	0.2793	0.026
Mof_C 	C 	0.28	0.8028	0.4029	-0.373
Mof_C 	C 	0.3325	0.6785	0.9119	0.062
Mof_C 	C 	0.39435	0.66	0.92161	-0.063
Mof_C 	C 	0.43618	0.71845	0.92053	0.011
Mof_H 	H 	0.424	0.7697	0.9132	0.064
Mof_C 	C 	0.49627	0.7002	0.93042	-0.115
Mof_H 	H 	0.5243	0.7393	0.9297	0.119
Mof_C 	C 	0.51451	0.6235	0.9414	0.136
Mof_C 	C 	0.47267	0.5651	0.9425	-0.11
Mof_H 	H 	0.4849	0.5138	0.9498	0.114
Mof_C 	C 	0.41259	0.5834	0.93259	0.025
Mof_H 	H 	0.3846	0.5443	0.9333	0.055
Mof_C 	C 	0.2002	0.5347	0.0904	0.076
Mof_C 	C 	0.1968	0.4495	0.0891	0.019
Mof_C 	C 	0.24815	0.4064	0.0896	-0.075
Mof_H 	H 	0.2838	0.4321	0.0896	0.069
Mof_C 	C 	0.24621	0.3249	0.09	-0.003
Mof_H 	H 	0.2806	0.2961	0.0903	0.048
Mof_C 	C 	0.1929	0.2866	0.0899	-0.063
Mof_H 	H 	0.1916	0.2321	0.0902	0.053
Mof_C 	C 	0.14149	0.3297	0.08941	0.01
Mof_C 	C 	0.14343	0.4112	0.089	-0.077
Mof_H 	H 	0.109	0.44	0.0887	0.091
Mof_C 	C 	0.0869	0.2897	0.0889	0.116
Mof_C 	C 	0.235	0.5465	0.2806	0.109
Mof_C 	C 	0.2057	0.4804	0.25536	0.036
Mof_C 	C 	0.23742	0.4146	0.24641	-0.076
Mof_H 	H 	0.2786	0.4145	0.2546	0.099
Mof_C 	C 	0.20752	0.3488	0.22526	0.026
Mof_C 	C 	0.14594	0.3489	0.21307	-0.074
Mof_H 	H 	0.1259	0.3049	0.1989	0.066
Mof_C 	C 	0.11427	0.4147	0.222	0.039
Mof_H 	H 	0.0731	0.4148	0.2139	0.058
Mof_C 	C 	0.1442	0.4805	0.24318	-0.057
Mof_H 	H 	0.123	0.5245	0.2492	0.123
Mof_C 	C 	0.2389	0.2794	0.2177	0.108
Mof_C 	C 	0.234	0.1819	0.9773	0.137
Mof_C 	C 	0.20863	0.2559	0.96266	0.023
Mof_C 	C 	0.24426	0.3199	0.9574	-0.072
Mof_H 	H 	0.2853	0.3148	0.9644	0.099
Mof_C 	C 	0.21851	0.3913	0.9416	0.018
Mof_C 	C 	0.1571	0.3987	0.931	-0.059
Mof_H 	H 	0.1399	0.4465	0.9204	0.049
Mof_C 	C 	0.1215	0.3348	0.9363	0.009
Mof_H 	H 	0.0804	0.3399	0.9293	0.124
Mof_C 	C 	0.14725	0.2634	0.9521	-0.054
Mof_H 	H 	0.1234	0.2207	0.9557	0.149
Mof_C 	C 	0.2542	0.4547	0.9326	0.058
Mof_C 	C 	0.1547	0.9017	0.9162	0.142
Mof_C 	C 	0.1062	0.9599	0.8928	0.806
Mof_C 	C 	0.1251	0.6932	0.1819	0.116
Mof_C 	C 	0.068	0.6554	0.1531	0.84
Mof_C 	C 	0.3632	0.0125	0.2975	0.071
Mof_C 	C 	0.4061	0.0789	0.3151	0.997
Mof_C 	C 	0.0795	0.8155	0.0551	0.177
Mof_C 	C 	0.0115	0.8254	0.0417	0.871
Mof_C 	C 	0.3494	0.0348	0.0898	0.349
Mof_F 	F 	0.1196	0.0329	0.90736	-0.442
Mof_F 	F 	0.0533	0.9445	0.9017	-0.477
Mof_F 	F 	0.1018	0.9597	0.84592	-0.486
Mof_F 	F 	0.01911	0.695	0.15446	-0.454
Mof_F 	F 	0.06	0.5837	0.1676	-0.494
Mof_F 	F 	0.0712	0.6511	0.10727	-0.477
Mof_F 	F 	0.4511	0.0823	0.2963	-0.544
Mof_F 	F 	0.3813	0.1478	0.3026	-0.511
Mof_F 	F 	0.4228	0.0817	0.3581	-0.565
Mof_F 	F 	0.9863	0.7537	0.0305	-0.462
Mof_F 	F 	0.9952	0.8606	0.001	-0.485
Mof_F 	F 	0.988	0.8559	0.0728	-0.458
Mof_N 	N 	0.5886	0.7388	0.0573	-0.029
Mof_N 	N 	0.591	0.8675	0.1958	-0.018
Mof_N 	N 	0.5792	0.7172	0.3057	-0.012
Mof_N 	N 	0.5767	0.6037	0.9525	-0.013
Mof_N 	N 	0.2058	0.6022	0.0927	-0.18
Mof_N 	N 	0.0429	0.259	0.0887	-0.185
Mof_N 	N 	0.2556	0.5985	0.3018	-0.186
Mof_N 	N 	0.2615	0.2221	0.2112	-0.189
Mof_N 	N 	0.2518	0.1214	0.9862	-0.187
Mof_N 	N 	0.2824	0.5063	0.9253	-0.161
Mof_O 	O 	0.608	0.6736	0.0529	-0.067
Mof_O 	O 	0.6191	0.7965	0.0642	-0.02
Mof_O 	O 	0.6185	0.8136	0.1839	-0.018
Mof_O 	O 	0.6129	0.9298	0.2116	-0.071
Mof_O 	O 	0.4062	0.1486	0.1979	-0.129
Mof_O 	O 	0.6134	0.7716	0.3145	-0.116
Mof_O 	O 	0.6122	0.6512	0.9442	-0.112
Mof_O 	O 	0.5894	0.5382	0.9705	-0.123
Mof_O 	O 	0.1385	0.8424	0.93515	-0.366
Mof_O 	O 	0.2058	0.9201	0.91246	-0.305
Mof_O 	O 	0.1693	0.6502	0.18804	-0.259
Mof_O 	O 	0.1212	0.7631	0.1934	-0.242
Mof_O 	O 	0.3523	0.969	0.3286	-0.224
Mof_O 	O 	0.3459	0.01	0.25325	-0.288
Mof_O 	O 	0.1021	0.8324	0.09609	-0.236
Mof_O 	O 	0.102	0.7914	0.02183	-0.302
Mof_O 	O 	0.3502	0.9855	0.0597	-0.363
Mof_O 	O 	0.3264	0.0388	0.1262	-0.374
Mof_O 	O 	0.3326	0.0046	0.9247	-0.169
Mof_O 	O 	0.3553	0.8768	0.9251	0.336
Mof_C 	C 	0.3642	0.9469	0.921	0.206
Mof_C 	C 	0.4224	0.9672	0.9079	-0.806
Mof_F 	F 	0.4686	0.9539	0.9414	-0.049
Mof_F 	F 	0.4273	0.0378	0.892	-0.37
Mof_F 	F 	0.4327	0.9206	0.8708	-0.213
Mof_Ag	Ag	0.2828	0.9259	0.103	-0.063
Mof_C 	C 	0.3606	0.915	0.9134	-0.626
Mof_C 	C 	0.393	0.987	0.905	1.791
Mof_F 	F 	0.3649	0.0511	0.9014	-0.62
Mof_F 	F 	0.4334	0.9867	0.8816	-0.051
Mof_F 	F 	0.4322	0.0028	0.9545	-0.306
Mof_O 	O 	0.3415	0.9085	0.95	-0.275
Mof_O 	O 	0.3568	0.8727	0.8783	-0.05
Mof_Ag	Ag	0.74219	0.21502	0.39886	0.327
Mof_Ag	Ag	0.80532	0.33898	0.36418	0.379
Mof_Ag	Ag	0.80658	0.28808	0.48509	0.383
Mof_Ag	Ag	0.81071	0.31572	0.23931	0.266
Mof_Ag	Ag	0.81399	0.29883	0.10915	0.139
Mof_Ag	Ag	0.74055	0.21289	0.29429	0.436
Mof_Ag	Ag	0.74045	0.41104	0.16618	0.382
Mof_Ag	Ag	0.71994	0.40871	0.27577	0.367
Mof_Ag	Ag	0.74014	0.14037	0.52168	0.35
Mof_Ag	Ag	0.05035	0.7279	0.42503	0.756
Mof_Ag	Ag	0.72896	0.31842	0.55456	0.41
Mof_Ag	Ag	0.70067	0.6097	0.30674	0.708
Mof_Ag	Ag	0.72519	0.4965	0.52173	0.761
Mof_Ag	Ag	0.74276	0.21131	0.1596	0.453
Mof_Ag	Ag	0.71445	0.39076	0.42186	0.435
Mof_C 	C 	0.7148	0.2681	0.4728	-0.427
Mof_C 	C 	0.6608	0.2671	0.4672	0.087
Mof_C 	C 	0.59748	0.2613	0.45983	-0.13
Mof_C 	C 	0.57086	0.1882	0.45126	0.087
Mof_H 	H 	0.594	0.144	0.4495	-0.002
Mof_C 	C 	0.50964	0.1811	0.44528	-0.186
Mof_H 	H 	0.4918	0.1321	0.4396	0.16
Mof_C 	C 	0.47504	0.2471	0.44787	0.218
Mof_C 	C 	0.50165	0.3203	0.45644	-0.19
Mof_H 	H 	0.4785	0.3645	0.4582	0.224
Mof_C 	C 	0.56287	0.3274	0.46242	0.102
Mof_H 	H 	0.5807	0.3763	0.4682	0.048
Mof_C 	C 	0.7121	0.3199	0.346	-0.419
Mof_C 	C 	0.6591	0.3371	0.3372	0.079
Mof_C 	C 	0.5958	0.346	0.32821	-0.122
Mof_C 	C 	0.56113	0.28126	0.33375	0.098
Mof_H 	H 	0.579	0.2332	0.3427	0
Mof_C 	C 	0.49978	0.2884	0.32598	-0.197
Mof_H 	H 	0.4766	0.245	0.3297	0.191
Mof_C 	C 	0.47309	0.3603	0.31266	0.226
Mof_C 	C 	0.50776	0.425	0.30712	-0.161
Mof_H 	H 	0.4899	0.4731	0.2982	0.151
Mof_C 	C 	0.56912	0.4179	0.31489	0.086
Mof_H 	H 	0.5923	0.4612	0.3112	0.02
Mof_C 	C 	0.718	0.2985	0.2243	-0.392
Mof_C 	C 	0.6664	0.2791	0.218	0.072
Mof_C 	C 	0.60405	0.2619	0.2104	-0.088
Mof_C 	C 	0.56346	0.3231	0.20083	0.04
Mof_H 	H 	0.5767	0.3741	0.1982	0.04
Mof_C 	C 	0.5031	0.3079	0.1952	-0.142
Mof_H 	H 	0.4759	0.3488	0.1888	0.12
Mof_C 	C 	0.48333	0.2316	0.1991	0.167
Mof_C 	C 	0.5239	0.1705	0.2087	-0.125
Mof_H 	H 	0.5107	0.1195	0.2113	0.14
Mof_C 	C 	0.58428	0.1857	0.21431	0.055
Mof_H 	H 	0.6114	0.1448	0.2207	0.026
Mof_C 	C 	0.72	0.3028	0.0971	-0.373
Mof_C 	C 	0.6675	0.1785	0.5881	0.062
Mof_C 	C 	0.60565	0.16	0.57839	-0.063
Mof_C 	C 	0.56382	0.21845	0.57947	0.011
Mof_H 	H 	0.576	0.2697	0.5868	0.064
Mof_C 	C 	0.50373	0.2002	0.56958	-0.115
Mof_H 	H 	0.4757	0.2393	0.5703	0.12
Mof_C 	C 	0.48549	0.1235	0.5586	0.136
Mof_C 	C 	0.52733	0.0651	0.5575	-0.11
Mof_H 	H 	0.5151	0.0138	0.5502	0.115
Mof_C 	C 	0.58741	0.0834	0.56741	0.025
Mof_H 	H 	0.6154	0.0443	0.5667	0.055
Mof_C 	C 	0.7998	0.0347	0.4096	0.07
Mof_C 	C 	0.8032	0.9495	0.4109	0.027
Mof_C 	C 	0.75185	0.9064	0.4104	-0.079
Mof_H 	H 	0.7162	0.9321	0.4104	0.071
Mof_C 	C 	0.75379	0.8249	0.41	0.001
Mof_H 	H 	0.7194	0.7961	0.4097	0.047
Mof_C 	C 	0.8071	0.7866	0.4101	-0.066
Mof_H 	H 	0.8084	0.7321	0.4098	0.054
Mof_C 	C 	0.85851	0.8297	0.41059	0.013
Mof_C 	C 	0.85657	0.9112	0.411	-0.081
Mof_H 	H 	0.891	0.94	0.4113	0.094
Mof_C 	C 	0.9131	0.7897	0.4111	0.116
Mof_C 	C 	0.765	0.0465	0.2194	0.105
Mof_C 	C 	0.7943	0.9804	0.24464	0.036
Mof_C 	C 	0.76258	0.9146	0.25359	-0.074
Mof_H 	H 	0.7214	0.9145	0.2454	0.099
Mof_C 	C 	0.79248	0.8488	0.27474	0.024
Mof_C 	C 	0.85406	0.8489	0.28693	-0.068
Mof_H 	H 	0.8741	0.8049	0.3011	0.064
Mof_C 	C 	0.88573	0.9147	0.278	0.03
Mof_H 	H 	0.9269	0.9148	0.2861	0.063
Mof_C 	C 	0.8558	0.9805	0.25682	-0.042
Mof_H 	H 	0.877	0.0245	0.2508	0.115
Mof_C 	C 	0.7611	0.7794	0.2823	0.109
Mof_C 	C 	0.766	0.6819	0.5227	0.137
Mof_C 	C 	0.79137	0.7559	0.53734	0.021
Mof_C 	C 	0.75574	0.8199	0.5426	-0.071
Mof_H 	H 	0.7147	0.8148	0.5356	0.098
Mof_C 	C 	0.78149	0.8913	0.5584	0.016
Mof_C 	C 	0.8429	0.8987	0.569	-0.057
Mof_H 	H 	0.8601	0.9465	0.5796	0.05
Mof_C 	C 	0.8785	0.8348	0.5637	0.008
Mof_H 	H 	0.9196	0.8399	0.5707	0.125
Mof_C 	C 	0.85275	0.7634	0.5479	-0.053
Mof_H 	H 	0.8766	0.7207	0.5443	0.148
Mof_C 	C 	0.7458	0.9547	0.5674	0.061
Mof_C 	C 	0.8453	0.4017	0.5838	0.141
Mof_C 	C 	0.8938	0.4599	0.6072	0.812
Mof_C 	C 	0.8749	0.1932	0.3181	0.116
Mof_C 	C 	0.932	0.1554	0.3469	0.84
Mof_C 	C 	0.6368	0.5125	0.2025	0.07
Mof_C 	C 	0.5939	0.5789	0.1849	0.997
Mof_C 	C 	0.9205	0.3155	0.4449	0.175
Mof_C 	C 	0.9885	0.3254	0.4583	0.879
Mof_C 	C 	0.6506	0.5348	0.4102	0.351
Mof_F 	F 	0.8804	0.5329	0.59264	-0.447
Mof_F 	F 	0.9467	0.4445	0.5983	-0.476
Mof_F 	F 	0.8982	0.4597	0.65408	-0.485
Mof_F 	F 	0.98089	0.195	0.34554	-0.454
Mof_F 	F 	0.94	0.0837	0.3324	-0.495
Mof_F 	F 	0.9288	0.1511	0.39273	-0.477
Mof_F 	F 	0.5489	0.5823	0.2037	-0.543
Mof_F 	F 	0.6187	0.6478	0.1974	-0.511
Mof_F 	F 	0.5772	0.5817	0.1419	-0.565
Mof_F 	F 	0.0137	0.2537	0.4695	-0.464
Mof_F 	F 	0.0048	0.3606	0.499	-0.49
Mof_F 	F 	0.012	0.3559	0.4272	-0.462
Mof_N 	N 	0.4114	0.2388	0.4427	-0.029
Mof_N 	N 	0.409	0.3675	0.3042	-0.018
Mof_N 	N 	0.4208	0.2172	0.1943	-0.012
Mof_N 	N 	0.4233	0.1037	0.5475	-0.013
Mof_N 	N 	0.7942	0.1022	0.4073	-0.179
Mof_N 	N 	0.9571	0.759	0.4113	-0.184
Mof_N 	N 	0.7444	0.0985	0.1982	-0.186
Mof_N 	N 	0.7385	0.7221	0.2888	-0.19
Mof_N 	N 	0.7482	0.6214	0.5138	-0.19
Mof_N 	N 	0.7176	0.0063	0.5747	-0.163
Mof_O 	O 	0.392	0.1736	0.4471	-0.067
Mof_O 	O 	0.3809	0.2965	0.4358	-0.021
Mof_O 	O 	0.3815	0.3136	0.3161	-0.018
Mof_O 	O 	0.3871	0.4298	0.2884	-0.072
Mof_O 	O 	0.5938	0.6486	0.3021	-0.129
Mof_O 	O 	0.3866	0.2716	0.1855	-0.116
Mof_O 	O 	0.3878	0.1512	0.5558	-0.111
Mof_O 	O 	0.4106	0.0382	0.5295	-0.122
Mof_O 	O 	0.8615	0.3424	0.56485	-0.366
Mof_O 	O 	0.7942	0.4201	0.58754	-0.304
Mof_O 	O 	0.8307	0.1502	0.31196	-0.26
Mof_O 	O 	0.8788	0.2631	0.3066	-0.241
Mof_O 	O 	0.6477	0.469	0.1714	-0.223
Mof_O 	O 	0.6541	0.51	0.24675	-0.288
Mof_O 	O 	0.8979	0.3324	0.40391	-0.234
Mof_O 	O 	0.898	0.2914	0.47817	-0.302
Mof_O 	O 	0.6498	0.4855	0.4403	-0.365
Mof_O 	O 	0.6736	0.5388	0.3738	-0.375
Mof_O 	O 	0.6674	0.5046	0.5753	-0.174
Mof_O 	O 	0.6447	0.3768	0.5749	0.33
Mof_C 	C 	0.6358	0.4469	0.579	0.207
Mof_C 	C 	0.5776	0.4672	0.5921	-0.791
Mof_F 	F 	0.5314	0.4539	0.5586	-0.05
Mof_F 	F 	0.5727	0.5378	0.608	-0.372
Mof_F 	F 	0.5673	0.4206	0.6292	-0.214
Mof_Ag	Ag	0.7172	0.4259	0.397	-0.066
Mof_C 	C 	0.6394	0.415	0.5866	-0.618
Mof_C 	C 	0.607	0.487	0.595	1.78
Mof_F 	F 	0.6351	0.5511	0.5986	-0.618
Mof_F 	F 	0.5666	0.4867	0.6184	-0.054
Mof_F 	F 	0.5678	0.5028	0.5455	-0.309
Mof_O 	O 	0.6585	0.4085	0.55	-0.274
Mof_O 	O 	0.6432	0.3727	0.6217	-0.05
Mof_Ag	Ag	0.74219	0.28498	0.89886	0.327
Mof_Ag	Ag	0.80532	0.16102	0.86418	0.379
Mof_Ag	Ag	0.80658	0.21192	0.98509	0.386
Mof_Ag	Ag	0.81071	0.18428	0.73931	0.265
Mof_Ag	Ag	0.81399	0.20117	0.60915	0.138
Mof_Ag	Ag	0.74055	0.28711	0.79429	0.437
Mof_Ag	Ag	0.74045	0.08896	0.66618	0.381
Mof_Ag	Ag	0.71994	0.09129	0.77577	0.367
Mof_Ag	Ag	0.74014	0.35963	0.02168	0.35
Mof_Ag	Ag	0.05035	0.7721	0.92503	0.756
Mof_Ag	Ag	0.72896	0.18158	0.05456	0.408
Mof_Ag	Ag	0.70067	0.8903	0.80674	0.708
Mof_Ag	Ag	0.72519	0.0035	0.02173	0.751
Mof_Ag	Ag	0.74276	0.28869	0.6596	0.454
Mof_Ag	Ag	0.71445	0.10924	0.92186	0.434
Mof_C 	C 	0.7148	0.2319	0.9728	-0.427
Mof_C 	C 	0.6608	0.2329	0.9672	0.088
Mof_C 	C 	0.59748	0.2387	0.95983	-0.13
Mof_C 	C 	0.57086	0.3118	0.95126	0.087
Mof_H 	H 	0.594	0.356	0.9495	-0.001
Mof_C 	C 	0.50964	0.3189	0.94528	-0.186
Mof_H 	H 	0.4918	0.3679	0.9396	0.16
Mof_C 	C 	0.47504	0.2529	0.94787	0.218
Mof_C 	C 	0.50165	0.1797	0.95644	-0.19
Mof_H 	H 	0.4785	0.1355	0.9582	0.224
Mof_C 	C 	0.56287	0.1726	0.96242	0.102
Mof_H 	H 	0.5807	0.1237	0.9682	0.048
Mof_C 	C 	0.7121	0.1801	0.846	-0.419
Mof_C 	C 	0.6591	0.1629	0.8372	0.079
Mof_C 	C 	0.5958	0.154	0.82821	-0.122
Mof_C 	C 	0.56113	0.21874	0.83375	0.098
Mof_H 	H 	0.579	0.2668	0.8427	0
Mof_C 	C 	0.49978	0.2116	0.82598	-0.197
Mof_H 	H 	0.4766	0.255	0.8297	0.191
Mof_C 	C 	0.47309	0.1397	0.81266	0.226
Mof_C 	C 	0.50776	0.075	0.80712	-0.162
Mof_H 	H 	0.4899	0.0269	0.7982	0.151
Mof_C 	C 	0.56912	0.0821	0.81489	0.086
Mof_H 	H 	0.5923	0.0388	0.8112	0.02
Mof_C 	C 	0.718	0.2015	0.7243	-0.391
Mof_C 	C 	0.6664	0.2209	0.718	0.072
Mof_C 	C 	0.60405	0.2381	0.7104	-0.088
Mof_C 	C 	0.56346	0.1769	0.70083	0.04
Mof_H 	H 	0.5767	0.1259	0.6982	0.04
Mof_C 	C 	0.5031	0.1921	0.6952	-0.143
Mof_H 	H 	0.4759	0.1512	0.6888	0.12
Mof_C 	C 	0.48333	0.2684	0.6991	0.167
Mof_C 	C 	0.5239	0.3295	0.7087	-0.125
Mof_H 	H 	0.5107	0.3805	0.7113	0.141
Mof_C 	C 	0.58428	0.3143	0.71431	0.055
Mof_H 	H 	0.6114	0.3552	0.7207	0.026
Mof_C 	C 	0.72	0.1972	0.5971	-0.373
Mof_C 	C 	0.6675	0.3215	0.0881	0.062
Mof_C 	C 	0.60565	0.34	0.07839	-0.063
Mof_C 	C 	0.56382	0.28155	0.07947	0.011
Mof_H 	H 	0.576	0.2303	0.0868	0.064
Mof_C 	C 	0.50373	0.2998	0.06958	-0.115
Mof_H 	H 	0.4757	0.2607	0.0703	0.119
Mof_C 	C 	0.48549	0.3765	0.0586	0.136
Mof_C 	C 	0.52733	0.4349	0.0575	-0.11
Mof_H 	H 	0.5151	0.4862	0.0502	0.114
Mof_C 	C 	0.58741	0.4166	0.06741	0.025
Mof_H 	H 	0.6154	0.4557	0.0667	0.055
Mof_C 	C 	0.7998	0.4653	0.9096	0.076
Mof_C 	C 	0.8032	0.5505	0.9109	0.019
Mof_C 	C 	0.75185	0.5936	0.9104	-0.075
Mof_H 	H 	0.7162	0.5679	0.9104	0.069
Mof_C 	C 	0.75379	0.6751	0.91	-0.003
Mof_H 	H 	0.7194	0.7039	0.9097	0.048
Mof_C 	C 	0.8071	0.7134	0.9101	-0.063
Mof_H 	H 	0.8084	0.7679	0.9098	0.053
Mof_C 	C 	0.85851	0.6703	0.91059	0.01
Mof_C 	C 	0.85657	0.5888	0.911	-0.077
Mof_H 	H 	0.891	0.56	0.9113	0.091
Mof_C 	C 	0.9131	0.7103	0.9111	0.116
Mof_C 	C 	0.765	0.4535	0.7194	0.109
Mof_C 	C 	0.7943	0.5196	0.74464	0.036
Mof_C 	C 	0.76258	0.5854	0.75359	-0.076
Mof_H 	H 	0.7214	0.5855	0.7454	0.099
Mof_C 	C 	0.79248	0.6512	0.77474	0.026
Mof_C 	C 	0.85406	0.6511	0.78693	-0.074
Mof_H 	H 	0.8741	0.6951	0.8011	0.066
Mof_C 	C 	0.88573	0.5853	0.778	0.039
Mof_H 	H 	0.9269	0.5852	0.7861	0.058
Mof_C 	C 	0.8558	0.5195	0.75682	-0.057
Mof_H 	H 	0.877	0.4755	0.7508	0.123
Mof_C 	C 	0.7611	0.7206	0.7823	0.108
Mof_C 	C 	0.766	0.8181	0.0227	0.137
Mof_C 	C 	0.79137	0.7441	0.03734	0.023
Mof_C 	C 	0.75574	0.6801	0.0426	-0.072
Mof_H 	H 	0.7147	0.6852	0.0356	0.099
Mof_C 	C 	0.78149	0.6087	0.0584	0.018
Mof_C 	C 	0.8429	0.6013	0.069	-0.059
Mof_H 	H 	0.8601	0.5535	0.0796	0.049
Mof_C 	C 	0.8785	0.6652	0.0637	0.009
Mof_H 	H 	0.9196	0.6601	0.0707	0.124
Mof_C 	C 	0.85275	0.7366	0.0479	-0.054
Mof_H 	H 	0.8766	0.7793	0.0443	0.149
Mof_C 	C 	0.7458	0.5453	0.0674	0.058
Mof_C 	C 	0.8453	0.0983	0.0838	0.142
Mof_C 	C 	0.8938	0.0401	0.1072	0.806
Mof_C 	C 	0.8749	0.3068	0.8181	0.116
Mof_C 	C 	0.932	0.3446	0.8469	0.84
Mof_C 	C 	0.6368	0.9875	0.7025	0.071
Mof_C 	C 	0.5939	0.9211	0.6849	0.997
Mof_C 	C 	0.9205	0.1845	0.9449	0.177
Mof_C 	C 	0.9885	0.1746	0.9583	0.871
Mof_C 	C 	0.6506	0.9652	0.9102	0.349
Mof_F 	F 	0.8804	0.9671	0.09264	-0.442
Mof_F 	F 	0.9467	0.0555	0.0983	-0.477
Mof_F 	F 	0.8982	0.0403	0.15408	-0.486
Mof_F 	F 	0.98089	0.305	0.84554	-0.454
Mof_F 	F 	0.94	0.4163	0.8324	-0.494
Mof_F 	F 	0.9288	0.3489	0.89273	-0.477
Mof_F 	F 	0.5489	0.9177	0.7037	-0.544
Mof_F 	F 	0.6187	0.8522	0.6974	-0.511
Mof_F 	F 	0.5772	0.9183	0.6419	-0.565
Mof_F 	F 	0.0137	0.2463	0.9695	-0.462
Mof_F 	F 	0.0048	0.1394	0.999	-0.485
Mof_F 	F 	0.012	0.1441	0.9272	-0.458
Mof_N 	N 	0.4114	0.2612	0.9427	-0.029
Mof_N 	N 	0.409	0.1325	0.8042	-0.018
Mof_N 	N 	0.4208	0.2828	0.6943	-0.012
Mof_N 	N 	0.4233	0.3963	0.0475	-0.013
Mof_N 	N 	0.7942	0.3978	0.9073	-0.18
Mof_N 	N 	0.9571	0.741	0.9113	-0.185
Mof_N 	N 	0.7444	0.4015	0.6982	-0.186
Mof_N 	N 	0.7385	0.7779	0.7888	-0.189
Mof_N 	N 	0.7482	0.8786	0.0138	-0.187
Mof_N 	N 	0.7176	0.4937	0.0747	-0.161
Mof_O 	O 	0.392	0.3264	0.9471	-0.067
Mof_O 	O 	0.3809	0.2035	0.9358	-0.02
Mof_O 	O 	0.3815	0.1864	0.8161	-0.018
Mof_O 	O 	0.3871	0.0702	0.7884	-0.071
Mof_O 	O 	0.5938	0.8514	0.8021	-0.129
Mof_O 	O 	0.3866	0.2284	0.6855	-0.116
Mof_O 	O 	0.3878	0.3488	0.0558	-0.112
Mof_O 	O 	0.4106	0.4618	0.0295	-0.123
Mof_O 	O 	0.8615	0.1576	0.06485	-0.366
Mof_O 	O 	0.7942	0.0799	0.08754	-0.305
Mof_O 	O 	0.8307	0.3498	0.81196	-0.259
Mof_O 	O 	0.8788	0.2369	0.8066	-0.242
Mof_O 	O 	0.6477	0.031	0.6714	-0.224
Mof_O 	O 	0.6541	0.99	0.74675	-0.288
Mof_O 	O 	0.8979	0.1676	0.90391	-0.236
Mof_O 	O 	0.898	0.2086	0.97817	-0.302
Mof_O 	O 	0.6498	0.0145	0.9403	-0.363
Mof_O 	O 	0.6736	0.9612	0.8738	-0.374
Mof_O 	O 	0.6674	0.9954	0.0753	-0.169
Mof_O 	O 	0.6447	0.1232	0.0749	0.336
Mof_C 	C 	0.6358	0.0531	0.079	0.206
Mof_C 	C 	0.5776	0.0328	0.0921	-0.806
Mof_F 	F 	0.5314	0.0461	0.0586	-0.049
Mof_F 	F 	0.5727	0.9622	0.108	-0.37
Mof_F 	F 	0.5673	0.0794	0.1292	-0.213
Mof_Ag	Ag	0.7172	0.0741	0.897	-0.063
Mof_C 	C 	0.6394	0.085	0.0866	-0.626
Mof_C 	C 	0.607	0.013	0.095	1.791
Mof_F 	F 	0.6351	0.9489	0.0986	-0.62
Mof_F 	F 	0.5666	0.0133	0.1184	-0.051
Mof_F 	F 	0.5678	0.9972	0.0455	-0.306
Mof_O 	O 	0.6585	0.0915	0.05	-0.275
Mof_O 	O 	0.6432	0.1273	0.1217	-0.05
Mof_Ag	Ag	0.25781	0.78498	0.60114	0.327
Mof_Ag	Ag	0.19468	0.66102	0.63582	0.379
Mof_Ag	Ag	0.19342	0.71192	0.51491	0.383
Mof_Ag	Ag	0.18929	0.68428	0.76069	0.266
Mof_Ag	Ag	0.18601	0.70117	0.89085	0.139
Mof_Ag	Ag	0.25945	0.78711	0.70571	0.436
Mof_Ag	Ag	0.25955	0.58896	0.83382	0.382
Mof_Ag	Ag	0.28006	0.59129	0.72423	0.367
Mof_Ag	Ag	0.25986	0.85963	0.47832	0.35
Mof_Ag	Ag	0.94965	0.2721	0.57497	0.756
Mof_Ag	Ag	0.27104	0.68158	0.44544	0.41
Mof_Ag	Ag	0.29933	0.3903	0.69326	0.708
Mof_Ag	Ag	0.27481	0.5035	0.47827	0.761
Mof_Ag	Ag	0.25724	0.78869	0.8404	0.453
Mof_Ag	Ag	0.28555	0.60924	0.57814	0.435
Mof_C 	C 	0.2852	0.7319	0.5272	-0.427
Mof_C 	C 	0.3392	0.7329	0.5328	0.087
Mof_C 	C 	0.40252	0.7387	0.54017	-0.13
Mof_C 	C 	0.42914	0.8118	0.54874	0.087
Mof_H 	H 	0.406	0.856	0.5505	-0.002
Mof_C 	C 	0.49036	0.8189	0.55472	-0.186
Mof_H 	H 	0.5082	0.8679	0.5604	0.16
Mof_C 	C 	0.52496	0.7529	0.55213	0.218
Mof_C 	C 	0.49835	0.6797	0.54356	-0.19
Mof_H 	H 	0.5215	0.6355	0.5418	0.224
Mof_C 	C 	0.43713	0.6726	0.53758	0.102
Mof_H 	H 	0.4193	0.6237	0.5318	0.048
Mof_C 	C 	0.2879	0.6801	0.654	-0.419
Mof_C 	C 	0.3409	0.6629	0.6628	0.079
Mof_C 	C 	0.4042	0.654	0.67179	-0.122
Mof_C 	C 	0.43887	0.71874	0.66625	0.098
Mof_H 	H 	0.421	0.7668	0.6573	0
Mof_C 	C 	0.50022	0.7116	0.67402	-0.197
Mof_H 	H 	0.5234	0.755	0.6703	0.191
Mof_C 	C 	0.52691	0.6397	0.68734	0.226
Mof_C 	C 	0.49224	0.575	0.69288	-0.161
Mof_H 	H 	0.5101	0.5269	0.7018	0.151
Mof_C 	C 	0.43088	0.5821	0.68511	0.086
Mof_H 	H 	0.4077	0.5388	0.6888	0.02
Mof_C 	C 	0.282	0.7015	0.7757	-0.392
Mof_C 	C 	0.3336	0.7209	0.782	0.072
Mof_C 	C 	0.39595	0.7381	0.7896	-0.088
Mof_C 	C 	0.43654	0.6769	0.79917	0.04
Mof_H 	H 	0.4233	0.6259	0.8018	0.04
Mof_C 	C 	0.4969	0.6921	0.8048	-0.142
Mof_H 	H 	0.5241	0.6512	0.8112	0.12
Mof_C 	C 	0.51667	0.7684	0.8009	0.167
Mof_C 	C 	0.4761	0.8295	0.7913	-0.125
Mof_H 	H 	0.4893	0.8805	0.7887	0.14
Mof_C 	C 	0.41572	0.8143	0.78569	0.055
Mof_H 	H 	0.3886	0.8552	0.7793	0.026
Mof_C 	C 	0.28	0.6972	0.9029	-0.373
Mof_C 	C 	0.3325	0.8215	0.4119	0.062
Mof_C 	C 	0.39435	0.84	0.42161	-0.063
Mof_C 	C 	0.43618	0.78155	0.42053	0.011
Mof_H 	H 	0.424	0.7303	0.4132	0.064
Mof_C 	C 	0.49627	0.7998	0.43042	-0.115
Mof_H 	H 	0.5243	0.7607	0.4297	0.12
Mof_C 	C 	0.51451	0.8765	0.4414	0.136
Mof_C 	C 	0.47267	0.9349	0.4425	-0.11
Mof_H 	H 	0.4849	0.9862	0.4498	0.115
Mof_C 	C 	0.41259	0.9166	0.43259	0.025
Mof_H 	H 	0.3846	0.9557	0.4333	0.055
Mof_C 	C 	0.2002	0.9653	0.5904	0.07
Mof_C 	C 	0.1968	0.0505	0.5891	0.027
Mof_C 	C 	0.24815	0.0936	0.5896	-0.079
Mof_H 	H 	0.2838	0.0679	0.5896	0.071
Mof_C 	C 	0.24621	0.1751	0.59	0.001
Mof_H 	H 	0.2806	0.2039	0.5903	0.047
Mof_C 	C 	0.1929	0.2134	0.5899	-0.066
Mof_H 	H 	0.1916	0.2679	0.5902	0.054
Mof_C 	C 	0.14149	0.1703	0.58941	0.013
Mof_C 	C 	0.14343	0.0888	0.589	-0.081
Mof_H 	H 	0.109	0.06	0.5887	0.094
Mof_C 	C 	0.0869	0.2103	0.5889	0.116
Mof_C 	C 	0.235	0.9535	0.7806	0.105
Mof_C 	C 	0.2057	0.0196	0.75536	0.036
Mof_C 	C 	0.23742	0.0854	0.74641	-0.074
Mof_H 	H 	0.2786	0.0855	0.7546	0.099
Mof_C 	C 	0.20752	0.1512	0.72526	0.024
Mof_C 	C 	0.14594	0.1511	0.71307	-0.068
Mof_H 	H 	0.1259	0.1951	0.6989	0.064
Mof_C 	C 	0.11427	0.0853	0.722	0.03
Mof_H 	H 	0.0731	0.0852	0.7139	0.063
Mof_C 	C 	0.1442	0.0195	0.74318	-0.042
Mof_H 	H 	0.123	0.9755	0.7492	0.115
Mof_C 	C 	0.2389	0.2206	0.7177	0.109
Mof_C 	C 	0.234	0.3181	0.4773	0.137
Mof_C 	C 	0.20863	0.2441	0.46266	0.021
Mof_C 	C 	0.24426	0.1801	0.4574	-0.071
Mof_H 	H 	0.2853	0.1852	0.4644	0.098
Mof_C 	C 	0.21851	0.1087	0.4416	0.016
Mof_C 	C 	0.1571	0.1013	0.431	-0.057
Mof_H 	H 	0.1399	0.0535	0.4204	0.05
Mof_C 	C 	0.1215	0.1652	0.4363	0.008
Mof_H 	H 	0.0804	0.1601	0.4293	0.125
Mof_C 	C 	0.14725	0.2366	0.4521	-0.053
Mof_H 	H 	0.1234	0.2793	0.4557	0.148
Mof_C 	C 	0.2542	0.0453	0.4326	0.061
Mof_C 	C 	0.1547	0.5983	0.4162	0.141
Mof_C 	C 	0.1062	0.5401	0.3928	0.812
Mof_C 	C 	0.1251	0.8068	0.6819	0.116
Mof_C 	C 	0.068	0.8446	0.6531	0.84
Mof_C 	C 	0.3632	0.4875	0.7975	0.07
Mof_C 	C 	0.4061	0.4211	0.8151	0.997
Mof_C 	C 	0.0795	0.6845	0.5551	0.175
Mof_C 	C 	0.0115	0.6746	0.5417	0.879
Mof_C 	C 	0.3494	0.4652	0.5898	0.351
Mof_F 	F 	0.1196	0.4671	0.40736	-0.447
Mof_F 	F 	0.0533	0.5555	0.4017	-0.476
Mof_F 	F 	0.1018	0.5403	0.34592	-0.485
Mof_F 	F 	0.01911	0.805	0.65446	-0.454
Mof_F 	F 	0.06	0.9163	0.6676	-0.495
Mof_F 	F 	0.0712	0.8489	0.60727	-0.477
Mof_F 	F 	0.4511	0.4177	0.7963	-0.543
Mof_F 	F 	0.3813	0.3522	0.8026	-0.511
Mof_F 	F 	0.4228	0.4183	0.8581	-0.565
Mof_F 	F 	0.9863	0.7463	0.5305	-0.464
Mof_F 	F 	0.9952	0.6394	0.501	-0.49
Mof_F 	F 	0.988	0.6441	0.5728	-0.462
Mof_N 	N 	0.5886	0.7612	0.5573	-0.029
Mof_N 	N 	0.591	0.6325	0.6958	-0.018
Mof_N 	N 	0.5792	0.7828	0.8057	-0.012
Mof_N 	N 	0.5767	0.8963	0.4525	-0.013
Mof_N 	N 	0.2058	0.8978	0.5927	-0.179
Mof_N 	N 	0.0429	0.241	0.5887	-0.184
Mof_N 	N 	0.2556	0.9015	0.8018	-0.186
Mof_N 	N 	0.2615	0.2779	0.7112	-0.19
Mof_N 	N 	0.2518	0.3786	0.4862	-0.19
Mof_N 	N 	0.2824	0.9937	0.4253	-0.163
Mof_O 	O 	0.608	0.8264	0.5529	-0.067
Mof_O 	O 	0.6191	0.7035	0.5642	-0.021
Mof_O 	O 	0.6185	0.6864	0.6839	-0.018
Mof_O 	O 	0.6129	0.5702	0.7116	-0.072
Mof_O 	O 	0.4062	0.3514	0.6979	-0.129
Mof_O 	O 	0.6134	0.7284	0.8145	-0.116
Mof_O 	O 	0.6122	0.8488	0.4442	-0.111
Mof_O 	O 	0.5894	0.9618	0.4705	-0.122
Mof_O 	O 	0.1385	0.6576	0.43515	-0.366
Mof_O 	O 	0.2058	0.5799	0.41246	-0.304
Mof_O 	O 	0.1693	0.8498	0.68804	-0.26
Mof_O 	O 	0.1212	0.7369	0.6934	-0.241
Mof_O 	O 	0.3523	0.531	0.8286	-0.223
Mof_O 	O 	0.3459	0.49	0.75325	-0.288
Mof_O 	O 	0.1021	0.6676	0.59609	-0.234
Mof_O 	O 	0.102	0.7086	0.52183	-0.302
Mof_O 	O 	0.3502	0.5145	0.5597	-0.365
Mof_O 	O 	0.3264	0.4612	0.6262	-0.375
Mof_O 	O 	0.3326	0.4954	0.4247	-0.174
Mof_O 	O 	0.3553	0.6232	0.4251	0.33
Mof_C 	C 	0.3642	0.5531	0.421	0.207
Mof_C 	C 	0.4224	0.5328	0.4079	-0.791
Mof_F 	F 	0.4686	0.5461	0.4414	-0.05
Mof_F 	F 	0.4273	0.4622	0.392	-0.372
Mof_F 	F 	0.4327	0.5794	0.3708	-0.214
Mof_Ag	Ag	0.2828	0.5741	0.603	-0.066
Mof_C 	C 	0.3606	0.585	0.4134	-0.618
Mof_C 	C 	0.393	0.513	0.405	1.78
Mof_F 	F 	0.3649	0.4489	0.4014	-0.618
Mof_F 	F 	0.4334	0.5133	0.3816	-0.054
Mof_F 	F 	0.4322	0.4972	0.4545	-0.309
Mof_O 	O 	0.3415	0.5915	0.45	-0.274
Mof_O 	O 	0.3568	0.6273	0.3783	-0.05
_end
