data_functionalizedCrystal
_audit_creation_method	'EQeq! by Chris Wilmer'
_symmetry_space_group_name_H-M	'P1'
_symmetry_Int_Tables_number	1
_symmetry_cell_setting	triclinic
loop_
_symmetry_equiv_pos_as_xyz
  x,y,z
_cell_length_a	10.7228
_cell_length_b	16.774
_cell_length_c	19.6191
_cell_angle_alpha	90
_cell_angle_beta	120.924
_cell_angle_gamma	90
loop_
_atom_site_label
_atom_site_type_symbol
_atom_site_fract_x
_atom_site_fract_y
_atom_site_fract_z
_atom_site_charge
Mof_C 	C 	0.6372	0.1921	0.2684	0.07
Mof_H 	H 	0.6733	0.2409	0.2638	-0.034
Mof_C 	C 	0.5148	0.1037	0.2876	0.003
Mof_H 	H 	0.448	0.0799	0.2979	0.01
Mof_C 	C 	0.6106	0.0641	0.2744	-0.017
Mof_H 	H 	0.6225	0.0092	0.2748	0.013
Mof_C 	C 	0.814	0.1072	0.2531	-0.147
Mof_H 	H 	0.8435	0.0521	0.2673	0.076
Mof_H 	H 	0.8927	0.1403	0.292	0.076
Mof_C 	C 	0.7977	0.123	0.1715	0.122
Mof_C 	C 	0.6673	0.0773	0.1036	-0.147
Mof_H 	H 	0.5793	0.0952	0.1015	0.08
Mof_H 	H 	0.6595	0.0921	0.0538	0.077
Mof_C 	C 	0.5997	0.9444	0.133	0.069
Mof_H 	H 	0.5365	0.9639	0.1483	-0.027
Mof_C 	C 	0.7241	0.8652	0.1055	0.016
Mof_H 	H 	0.765	0.8189	0.0993	0.01
Mof_C 	C 	0.7502	0.9394	0.0898	-0.03
Mof_H 	H 	0.8089	0.9534	0.0696	0.03
Mof_C 	C 	0.9393	0.0938	0.1766	-0.167
Mof_H 	H 	0.943	0.0361	0.1808	0.081
Mof_H 	H 	0.9348	0.1075	0.1274	0.083
Mof_C 	C 	0.1506	0.0982	0.3197	0.057
Mof_H 	H 	0.1231	0.0564	0.3404	0.007
Mof_C 	C 	0.1556	0.1852	0.2394	-0.271
Mof_H 	H 	0.1296	0.2141	0.1935	0.1
Mof_C 	C 	0.7698	0.213	0.1525	-0.148
Mof_H 	H 	0.6892	0.2291	0.1586	0.072
Mof_H 	H 	0.855	0.2422	0.1915	0.078
Mof_C 	C 	0.8308	0.2625	0.0501	-0.011
Mof_H 	H 	0.9303	0.2707	0.0826	0.021
Mof_C 	C 	0.7504	0.2738	0.9711	-0.013
Mof_H 	H 	0.7865	0.2913	0.9395	0.013
Mof_C 	C 	0.6033	0.2351	0.0075	0.076
Mof_H 	H 	0.5192	0.2213	0.0074	-0.008
Mof_Co	Co	0.4462	0.2747	0.3231	1.165
Mof_N 	N 	0.5315	0.184	0.2833	-0.251
Mof_N 	N 	0.6868	0.1212	0.2604	-0.105
Mof_N 	N 	0.0748	0.1264	0.2432	-0.058
Mof_C 	C 	0.2752	0.1977	0.3076	0.385
Mof_H 	H 	0.3464	0.2355	0.3185	-0.49
Mof_N 	N 	0.7372	0.2364	0.0732	-0.106
Mof_N 	N 	0.6065	0.2558	0.9436	-0.231
Mof_N 	N 	0.6728	0.9904	0.1094	-0.1
Mof_N 	N 	0.6282	0.8682	0.132	-0.242
Mof_N 	N 	0.2739	0.143	0.3598	-0.191
Mof_C 	C 	0.3628	0.6921	0.2316	0.071
Mof_H 	H 	0.3267	0.7409	0.2362	-0.033
Mof_C 	C 	0.4852	0.6037	0.2124	0.004
Mof_H 	H 	0.552	0.5799	0.2021	0.011
Mof_C 	C 	0.3894	0.5641	0.2256	-0.016
Mof_H 	H 	0.3775	0.5092	0.2252	0.014
Mof_C 	C 	0.186	0.6072	0.2469	-0.147
Mof_H 	H 	0.1565	0.5521	0.2327	0.076
Mof_H 	H 	0.1073	0.6403	0.208	0.076
Mof_C 	C 	0.2023	0.623	0.3285	0.122
Mof_C 	C 	0.3327	0.5773	0.3964	-0.147
Mof_H 	H 	0.4207	0.5952	0.3985	0.08
Mof_H 	H 	0.3405	0.5921	0.4462	0.077
Mof_C 	C 	0.4003	0.4444	0.367	0.069
Mof_H 	H 	0.4635	0.4639	0.3517	-0.027
Mof_C 	C 	0.2759	0.3652	0.3945	0.016
Mof_H 	H 	0.235	0.3189	0.4007	0.01
Mof_C 	C 	0.2498	0.4394	0.4102	-0.03
Mof_H 	H 	0.1911	0.4534	0.4304	0.03
Mof_C 	C 	0.0607	0.5938	0.3234	-0.167
Mof_H 	H 	0.057	0.5361	0.3192	0.081
Mof_H 	H 	0.0652	0.6075	0.3726	0.083
Mof_C 	C 	0.8494	0.5982	0.1803	0.057
Mof_H 	H 	0.8769	0.5564	0.1596	0.007
Mof_C 	C 	0.8444	0.6852	0.2606	-0.271
Mof_H 	H 	0.8704	0.7141	0.3065	0.1
Mof_C 	C 	0.2302	0.713	0.3475	-0.148
Mof_H 	H 	0.3108	0.7291	0.3414	0.072
Mof_H 	H 	0.145	0.7422	0.3085	0.078
Mof_C 	C 	0.1692	0.7625	0.4499	-0.011
Mof_H 	H 	0.0697	0.7707	0.4174	0.02
Mof_C 	C 	0.2496	0.7738	0.5289	-0.013
Mof_H 	H 	0.2135	0.7913	0.5605	0.013
Mof_C 	C 	0.3967	0.7351	0.4925	0.076
Mof_H 	H 	0.4808	0.7213	0.4926	-0.008
Mof_Co	Co	0.5538	0.7747	0.1769	1.165
Mof_N 	N 	0.4685	0.684	0.2167	-0.251
Mof_N 	N 	0.3132	0.6212	0.2396	-0.105
Mof_N 	N 	0.9252	0.6264	0.2568	-0.058
Mof_C 	C 	0.7248	0.6977	0.1924	0.385
Mof_H 	H 	0.6536	0.7355	0.1815	-0.49
Mof_N 	N 	0.2628	0.7364	0.4268	-0.106
Mof_N 	N 	0.3935	0.7558	0.5564	-0.231
Mof_N 	N 	0.3272	0.4904	0.3906	-0.1
Mof_N 	N 	0.3718	0.3682	0.368	-0.242
Mof_N 	N 	0.7261	0.643	0.1402	-0.191
Mof_C 	C 	0.3628	0.8079	0.7316	0.071
Mof_H 	H 	0.3267	0.7591	0.7362	-0.033
Mof_C 	C 	0.4852	0.8963	0.7124	0.004
Mof_H 	H 	0.552	0.9201	0.7021	0.011
Mof_C 	C 	0.3894	0.9359	0.7256	-0.016
Mof_H 	H 	0.3775	0.9908	0.7252	0.014
Mof_C 	C 	0.186	0.8928	0.7469	-0.147
Mof_H 	H 	0.1565	0.9479	0.7327	0.076
Mof_H 	H 	0.1073	0.8597	0.708	0.076
Mof_C 	C 	0.2023	0.877	0.8285	0.122
Mof_C 	C 	0.3327	0.9227	0.8964	-0.147
Mof_H 	H 	0.4207	0.9048	0.8985	0.08
Mof_H 	H 	0.3405	0.9079	0.9462	0.077
Mof_C 	C 	0.4003	0.0556	0.867	0.069
Mof_H 	H 	0.4635	0.0361	0.8517	-0.027
Mof_C 	C 	0.2759	0.1348	0.8945	0.016
Mof_H 	H 	0.235	0.1811	0.9007	0.01
Mof_C 	C 	0.2498	0.0606	0.9102	-0.03
Mof_H 	H 	0.1911	0.0466	0.9304	0.03
Mof_C 	C 	0.0607	0.9062	0.8234	-0.167
Mof_H 	H 	0.057	0.9639	0.8192	0.081
Mof_H 	H 	0.0652	0.8925	0.8726	0.083
Mof_C 	C 	0.8494	0.9018	0.6803	0.057
Mof_H 	H 	0.8769	0.9436	0.6596	0.007
Mof_C 	C 	0.8444	0.8148	0.7606	-0.271
Mof_H 	H 	0.8704	0.7859	0.8065	0.1
Mof_C 	C 	0.2302	0.787	0.8475	-0.148
Mof_H 	H 	0.3108	0.7709	0.8414	0.072
Mof_H 	H 	0.145	0.7578	0.8085	0.078
Mof_C 	C 	0.1692	0.7375	0.9499	-0.011
Mof_H 	H 	0.0697	0.7293	0.9174	0.021
Mof_C 	C 	0.2496	0.7262	0.0289	-0.013
Mof_H 	H 	0.2135	0.7087	0.0605	0.013
Mof_C 	C 	0.3967	0.7649	0.9925	0.076
Mof_H 	H 	0.4808	0.7787	0.9926	-0.008
Mof_Co	Co	0.5538	0.7253	0.6769	1.165
Mof_N 	N 	0.4685	0.816	0.7167	-0.251
Mof_N 	N 	0.3132	0.8788	0.7396	-0.105
Mof_N 	N 	0.9252	0.8736	0.7568	-0.058
Mof_C 	C 	0.7248	0.8023	0.6924	0.385
Mof_H 	H 	0.6536	0.7645	0.6815	-0.49
Mof_N 	N 	0.2628	0.7636	0.9268	-0.106
Mof_N 	N 	0.3935	0.7442	0.0564	-0.231
Mof_N 	N 	0.3272	0.0096	0.8906	-0.1
Mof_N 	N 	0.3718	0.1318	0.868	-0.242
Mof_N 	N 	0.7261	0.857	0.6402	-0.191
Mof_C 	C 	0.6372	0.3079	0.7684	0.071
Mof_H 	H 	0.6733	0.2591	0.7638	-0.033
Mof_C 	C 	0.5148	0.3963	0.7876	0.004
Mof_H 	H 	0.448	0.4201	0.7979	0.011
Mof_C 	C 	0.6106	0.4359	0.7744	-0.016
Mof_H 	H 	0.6225	0.4908	0.7748	0.014
Mof_C 	C 	0.814	0.3928	0.7531	-0.147
Mof_H 	H 	0.8435	0.4479	0.7673	0.076
Mof_H 	H 	0.8927	0.3597	0.792	0.076
Mof_C 	C 	0.7977	0.377	0.6715	0.122
Mof_C 	C 	0.6673	0.4227	0.6036	-0.147
Mof_H 	H 	0.5793	0.4048	0.6015	0.08
Mof_H 	H 	0.6595	0.4079	0.5538	0.077
Mof_C 	C 	0.5997	0.5556	0.633	0.069
Mof_H 	H 	0.5365	0.5361	0.6483	-0.027
Mof_C 	C 	0.7241	0.6348	0.6055	0.016
Mof_H 	H 	0.765	0.6811	0.5993	0.01
Mof_C 	C 	0.7502	0.5606	0.5898	-0.03
Mof_H 	H 	0.8089	0.5466	0.5696	0.03
Mof_C 	C 	0.9393	0.4062	0.6766	-0.167
Mof_H 	H 	0.943	0.4639	0.6808	0.081
Mof_H 	H 	0.9348	0.3925	0.6274	0.083
Mof_C 	C 	0.1506	0.4018	0.8197	0.057
Mof_H 	H 	0.1231	0.4436	0.8404	0.007
Mof_C 	C 	0.1556	0.3148	0.7394	-0.271
Mof_H 	H 	0.1296	0.2859	0.6935	0.1
Mof_C 	C 	0.7698	0.287	0.6525	-0.148
Mof_H 	H 	0.6892	0.2709	0.6586	0.072
Mof_H 	H 	0.855	0.2578	0.6915	0.078
Mof_C 	C 	0.8308	0.2375	0.5501	-0.011
Mof_H 	H 	0.9303	0.2293	0.5826	0.02
Mof_C 	C 	0.7504	0.2262	0.4711	-0.013
Mof_H 	H 	0.7865	0.2087	0.4395	0.013
Mof_C 	C 	0.6033	0.2649	0.5075	0.076
Mof_H 	H 	0.5192	0.2787	0.5074	-0.008
Mof_Co	Co	0.4462	0.2253	0.8231	1.165
Mof_N 	N 	0.5315	0.316	0.7833	-0.251
Mof_N 	N 	0.6868	0.3788	0.7604	-0.105
Mof_N 	N 	0.0748	0.3736	0.7432	-0.058
Mof_C 	C 	0.2752	0.3023	0.8076	0.385
Mof_H 	H 	0.3464	0.2645	0.8185	-0.49
Mof_N 	N 	0.7372	0.2636	0.5732	-0.106
Mof_N 	N 	0.6065	0.2442	0.4436	-0.231
Mof_N 	N 	0.6728	0.5096	0.6094	-0.1
Mof_N 	N 	0.6282	0.6318	0.632	-0.242
Mof_N 	N 	0.2739	0.357	0.8598	-0.191
_end
