data_functionalizedCrystal
_audit_creation_method	'EQeq! by Chris Wilmer'
_symmetry_space_group_name_H-M	'P1'
_symmetry_Int_Tables_number	1
_symmetry_cell_setting	triclinic
loop_
_symmetry_equiv_pos_as_xyz
  x,y,z
_cell_length_a	12.228
_cell_length_b	13.654
_cell_length_c	16.958
_cell_angle_alpha	77.04
_cell_angle_beta	71.34
_cell_angle_gamma	87.9
loop_
_atom_site_label
_atom_site_type_symbol
_atom_site_fract_x
_atom_site_fract_y
_atom_site_fract_z
_atom_site_charge
Mof_Co	Co	0.72538	0.63192	0.88435	1.172
Mof_Co	Co	0.76628	0.62956	0.63827	1.174
Mof_H 	H 	0.5725	0.8135	0.906	-0.005
Mof_H 	H 	0.5812	0.9788	0.9082	0.091
Mof_H 	H 	0.9255	0.9735	0.8217	0.097
Mof_H 	H 	0.9056	0.8083	0.8249	-0.01
Mof_H 	H 	0.8413	0.1327	0.8462	0.062
Mof_H 	H 	0.6106	0.1288	0.932	0.06
Mof_H 	H 	0.8681	0.2816	0.8853	0.095
Mof_H 	H 	0.8746	0.4466	0.8787	-0.014
Mof_H 	H 	0.5425	0.4586	0.9295	-0.001
Mof_H 	H 	0.5251	0.2929	0.9375	0.113
Mof_H 	H 	0.9445	0.6292	0.0678	0.044
Mof_H 	H 	0.9679	0.6346	0.195	0.058
Mof_H 	H 	0.6022	0.6181	0.1745	0.063
Mof_H 	H 	0.8848	0.6413	0.3478	0.064
Mof_H 	H 	0.5415	0.6236	0.4586	0.045
Mof_H 	H 	0.5168	0.6118	0.3327	0.062
Mof_H 	H 	0.47	0.6251	0.6763	0.068
Mof_H 	H 	0.1633	0.6457	0.9195	0.066
Mof_H 	H 	0.3493	0.6478	0.9216	0.044
Mof_H 	H 	0.0242	0.6409	0.8384	0.059
Mof_H 	H 	0.147	0.6307	0.5907	0.037
Mof_H 	H 	0.3313	0.6264	0.5955	0.073
Mof_H 	H 	0.5884	0.7935	0.6703	-0.01
Mof_H 	H 	0.5706	0.9558	0.6849	0.094
Mof_H 	H 	0.9156	0.9861	0.5967	0.09
Mof_H 	H 	0.9219	0.8199	0.5876	-0.006
Mof_H 	H 	0.6579	0.1184	0.674	0.058
Mof_H 	H 	0.8882	0.1399	0.6091	0.064
Mof_H 	H 	0.6373	0.2608	0.7191	0.092
Mof_H 	H 	0.6265	0.426	0.7263	-0.002
Mof_H 	H 	0.9446	0.4776	0.5786	0.004
Mof_H 	H 	0.9629	0.3131	0.5673	0.115
Mof_C 	C 	0.6445	0.8456	0.8904	0.106
Mof_C 	C 	0.6493	0.9451	0.8918	-0.183
Mof_C 	C 	0.7553	0.9965	0.8688	0.131
Mof_C 	C 	0.8523	0.9427	0.8411	-0.192
Mof_C 	C 	0.8389	0.8435	0.8427	0.117
Mof_C 	C 	0.7676	0.1027	0.8714	-0.09
Mof_C 	C 	0.684	0.1593	0.9059	-0.094
Mof_C 	C 	0.6956	0.2656	0.907	0.135
Mof_C 	C 	0.8003	0.3167	0.8927	-0.192
Mof_C 	C 	0.8033	0.4153	0.8896	0.112
Mof_C 	C 	0.6094	0.4221	0.9192	0.121
Mof_C 	C 	0.598	0.3228	0.9236	-0.196
Mof_C 	C 	0.7549	0.6203	0.0267	0.287
Mof_C 	C 	0.7682	0.6238	0.1102	-0.054
Mof_C 	C 	0.8803	0.6285	0.1157	-0.002
Mof_C 	C 	0.8938	0.6321	0.1914	-0.083
Mof_C 	C 	0.7986	0.6321	0.2642	0.031
Mof_C 	C 	0.686	0.6241	0.2598	0.027
Mof_C 	C 	0.6755	0.6215	0.1793	-0.05
Mof_C 	C 	0.8111	0.6365	0.344	-0.054
Mof_C 	C 	0.7179	0.634	0.4147	-0.053
Mof_C 	C 	0.6055	0.6253	0.4104	-0.006
Mof_C 	C 	0.5911	0.6193	0.3347	-0.082
Mof_C 	C 	0.7311	0.6379	0.4995	0.291
Mof_C 	C 	0.5499	0.628	0.8021	0.371
Mof_C 	C 	0.4294	0.6329	0.7982	-0.084
Mof_C 	C 	0.4083	0.6296	0.7245	-0.047
Mof_C 	C 	0.2943	0.6328	0.72	0.039
Mof_C 	C 	0.2007	0.6386	0.7936	0.022
Mof_C 	C 	0.2242	0.6427	0.8704	-0.083
Mof_C 	C 	0.335	0.6421	0.8721	0.012
Mof_C 	C 	0.0863	0.6386	0.7899	-0.03
Mof_C 	C 	0.0671	0.6353	0.7154	-0.102
Mof_C 	C 	0.1605	0.6318	0.6415	0.03
Mof_C 	C 	0.2704	0.6298	0.6445	-0.1
Mof_C 	C 	0.9451	0.6358	0.713	0.395
Mof_C 	C 	0.6556	0.8323	0.6566	0.102
Mof_C 	C 	0.6435	0.9306	0.6649	-0.181
Mof_C 	C 	0.741	0.9906	0.6432	0.123
Mof_C 	C 	0.8473	0.9479	0.6131	-0.173
Mof_C 	C 	0.8503	0.8472	0.6079	0.097
Mof_C 	C 	0.7321	0.0967	0.6515	-0.079
Mof_C 	C 	0.8137	0.161	0.6313	-0.096
Mof_C 	C 	0.8021	0.266	0.6398	0.133
Mof_C 	C 	0.7013	0.304	0.6887	-0.178
Mof_C 	C 	0.6948	0.4042	0.6926	0.102
Mof_C 	C 	0.8806	0.4338	0.6062	0.104
Mof_C 	C 	0.8927	0.3337	0.5995	-0.189
Mof_N 	N 	0.7384	0.7931	0.8676	-0.236
Mof_N 	N 	0.7098	0.4719	0.9012	-0.242
Mof_N 	N 	0.7564	0.7884	0.6303	-0.24
Mof_N 	N 	0.7822	0.4707	0.6502	-0.232
Mof_O 	O 	0.8425	0.6174	0.96351	-0.36
Mof_O 	O 	0.6548	0.6239	0.01931	-0.374
Mof_O 	O 	0.6462	0.6327	0.564	-0.368
Mof_O 	O 	0.833	0.6478	0.50216	-0.373
Mof_O 	O 	0.5666	0.6503	0.86662	-0.424
Mof_O 	O 	0.6271	0.6002	0.744	-0.467
Mof_O 	O 	0.8636	0.6399	0.77885	-0.48
Mof_O 	O 	0.9307	0.6327	0.64366	-0.434
Mof_Co	Co	0.27462	0.36808	0.11565	1.171
Mof_Co	Co	0.23372	0.37044	0.36173	1.173
Mof_H 	H 	0.4275	0.1865	0.094	-0.005
Mof_H 	H 	0.4188	0.0212	0.0918	0.091
Mof_H 	H 	0.0745	0.0265	0.1783	0.097
Mof_H 	H 	0.0944	0.1917	0.1751	-0.01
Mof_H 	H 	0.1587	0.8673	0.1538	0.062
Mof_H 	H 	0.3894	0.8712	0.068	0.06
Mof_H 	H 	0.1319	0.7184	0.1147	0.095
Mof_H 	H 	0.1254	0.5534	0.1213	-0.014
Mof_H 	H 	0.4575	0.5414	0.0705	-0.001
Mof_H 	H 	0.4749	0.7071	0.0625	0.113
Mof_H 	H 	0.0555	0.3708	0.9322	0.044
Mof_H 	H 	0.0321	0.3654	0.805	0.058
Mof_H 	H 	0.3978	0.3819	0.8255	0.063
Mof_H 	H 	0.1152	0.3587	0.6522	0.064
Mof_H 	H 	0.4585	0.3764	0.5414	0.045
Mof_H 	H 	0.4832	0.3882	0.6673	0.062
Mof_H 	H 	0.53	0.3749	0.3237	0.068
Mof_H 	H 	0.8367	0.3543	0.0805	0.066
Mof_H 	H 	0.6507	0.3522	0.0784	0.044
Mof_H 	H 	0.9758	0.3591	0.1616	0.059
Mof_H 	H 	0.853	0.3693	0.4093	0.037
Mof_H 	H 	0.6687	0.3736	0.4045	0.073
Mof_H 	H 	0.4116	0.2065	0.3297	-0.01
Mof_H 	H 	0.4294	0.0442	0.3151	0.094
Mof_H 	H 	0.0844	0.0139	0.4033	0.09
Mof_H 	H 	0.0781	0.1801	0.4124	-0.006
Mof_H 	H 	0.3421	0.8816	0.326	0.058
Mof_H 	H 	0.1118	0.8601	0.3909	0.064
Mof_H 	H 	0.3627	0.7392	0.2809	0.092
Mof_H 	H 	0.3735	0.574	0.2737	-0.002
Mof_H 	H 	0.0554	0.5224	0.4214	0.004
Mof_H 	H 	0.0371	0.6869	0.4327	0.115
Mof_C 	C 	0.3555	0.1544	0.1096	0.106
Mof_C 	C 	0.3507	0.0549	0.1082	-0.183
Mof_C 	C 	0.2447	0.0035	0.1312	0.131
Mof_C 	C 	0.1477	0.0573	0.1589	-0.192
Mof_C 	C 	0.1611	0.1565	0.1573	0.117
Mof_C 	C 	0.2324	0.8973	0.1286	-0.09
Mof_C 	C 	0.316	0.8407	0.0941	-0.094
Mof_C 	C 	0.3044	0.7344	0.093	0.135
Mof_C 	C 	0.1997	0.6833	0.1073	-0.192
Mof_C 	C 	0.1967	0.5847	0.1104	0.112
Mof_C 	C 	0.3906	0.5779	0.0808	0.121
Mof_C 	C 	0.402	0.6772	0.0764	-0.196
Mof_C 	C 	0.2451	0.3797	0.9733	0.287
Mof_C 	C 	0.2318	0.3762	0.8898	-0.054
Mof_C 	C 	0.1197	0.3715	0.8843	-0.002
Mof_C 	C 	0.1062	0.3679	0.8086	-0.083
Mof_C 	C 	0.2014	0.3679	0.7358	0.031
Mof_C 	C 	0.314	0.3759	0.7402	0.027
Mof_C 	C 	0.3245	0.3785	0.8207	-0.05
Mof_C 	C 	0.1889	0.3635	0.656	-0.054
Mof_C 	C 	0.2821	0.366	0.5853	-0.053
Mof_C 	C 	0.3945	0.3747	0.5896	-0.006
Mof_C 	C 	0.4089	0.3807	0.6653	-0.082
Mof_C 	C 	0.2689	0.3621	0.5005	0.291
Mof_C 	C 	0.4501	0.372	0.1979	0.371
Mof_C 	C 	0.5706	0.3671	0.2018	-0.084
Mof_C 	C 	0.5917	0.3704	0.2755	-0.047
Mof_C 	C 	0.7057	0.3672	0.28	0.039
Mof_C 	C 	0.7993	0.3614	0.2064	0.022
Mof_C 	C 	0.7758	0.3573	0.1296	-0.083
Mof_C 	C 	0.665	0.3579	0.1279	0.012
Mof_C 	C 	0.9137	0.3614	0.2101	-0.03
Mof_C 	C 	0.9329	0.3647	0.2846	-0.102
Mof_C 	C 	0.8395	0.3682	0.3585	0.03
Mof_C 	C 	0.7296	0.3702	0.3555	-0.1
Mof_C 	C 	0.0549	0.3642	0.287	0.395
Mof_C 	C 	0.3444	0.1677	0.3434	0.102
Mof_C 	C 	0.3565	0.0694	0.3351	-0.181
Mof_C 	C 	0.259	0.0094	0.3568	0.123
Mof_C 	C 	0.1527	0.0521	0.3869	-0.173
Mof_C 	C 	0.1497	0.1528	0.3921	0.097
Mof_C 	C 	0.2679	0.9033	0.3485	-0.079
Mof_C 	C 	0.1863	0.839	0.3687	-0.096
Mof_C 	C 	0.1979	0.734	0.3602	0.133
Mof_C 	C 	0.2987	0.696	0.3113	-0.178
Mof_C 	C 	0.3052	0.5958	0.3074	0.102
Mof_C 	C 	0.1194	0.5662	0.3938	0.104
Mof_C 	C 	0.1073	0.6663	0.4005	-0.189
Mof_N 	N 	0.2616	0.2069	0.1324	-0.236
Mof_N 	N 	0.2902	0.5281	0.0988	-0.242
Mof_N 	N 	0.2436	0.2116	0.3697	-0.24
Mof_N 	N 	0.2178	0.5293	0.3498	-0.232
Mof_O 	O 	0.1575	0.3826	0.03649	-0.36
Mof_O 	O 	0.3452	0.3761	0.98069	-0.374
Mof_O 	O 	0.3538	0.3673	0.436	-0.368
Mof_O 	O 	0.167	0.3522	0.49784	-0.373
Mof_O 	O 	0.4334	0.3497	0.13338	-0.424
Mof_O 	O 	0.3729	0.3998	0.256	-0.467
Mof_O 	O 	0.1364	0.3601	0.22115	-0.48
Mof_O 	O 	0.0693	0.3673	0.35634	-0.434
_end
