data_functionalizedCrystal
_audit_creation_method	'EQeq! by Chris Wilmer'
_symmetry_space_group_name_H-M	'P1'
_symmetry_Int_Tables_number	1
_symmetry_cell_setting	triclinic
loop_
_symmetry_equiv_pos_as_xyz
  x,y,z
_cell_length_a	23.503
_cell_length_b	23.503
_cell_length_c	23.503
_cell_angle_alpha	90
_cell_angle_beta	90
_cell_angle_gamma	90
loop_
_atom_site_label
_atom_site_type_symbol
_atom_site_fract_x
_atom_site_fract_y
_atom_site_fract_z
_atom_site_charge
Mof_Zn	Zn	0.76263	0.70659	0.82052	1.229
Mof_O 	O 	0.5637	0.9441	0.9525	-0.389
Mof_O 	O 	0.5573	0.935	0.0477	-0.426
Mof_O 	O 	0.7426	0.7585	0.884	-0.477
Mof_O 	O 	0.6979	0.831	0.8439	-0.498
Mof_O 	O 	0.668	0.7869	0.1433	-0.453
Mof_O 	O 	0.7294	0.7335	0.0981	-0.312
Mof_C 	C 	0.6224	0.8759	0.9976	0.024
Mof_C 	C 	0.639	0.8459	0.0464	-0.038
Mof_H 	H 	0.6225	0.8554	0.0811	0.076
Mof_C 	C 	0.678	0.8037	0.0447	-0.137
Mof_C 	C 	0.7048	0.791	0.9921	0.112
Mof_H 	H 	0.7339	0.7641	0.9904	0.042
Mof_C 	C 	0.6877	0.8184	0.9446	-0.11
Mof_C 	C 	0.6469	0.8601	0.9462	0.015
Mof_H 	H 	0.6356	0.8779	0.9127	0.065
Mof_C 	C 	0.5774	0.9233	0.0007	0.266
Mof_C 	C 	0.7107	0.8013	0.8851	0.424
Mof_C 	C 	0.6938	0.7738	0.0976	0.342
Mof_Zn	Zn	0.26263	0.20659	0.32052	1.227
Mof_O 	O 	0.0637	0.4441	0.4525	-0.483
Mof_O 	O 	0.0573	0.435	0.5477	-0.483
Mof_O 	O 	0.2426	0.2585	0.384	-0.489
Mof_O 	O 	0.1979	0.331	0.3439	-0.509
Mof_O 	O 	0.168	0.2869	0.6433	-0.458
Mof_O 	O 	0.2294	0.2335	0.5981	-0.306
Mof_C 	C 	0.1224	0.3759	0.4976	-0.135
Mof_C 	C 	0.139	0.3459	0.5464	0.075
Mof_H 	H 	0.1225	0.3554	0.5811	0.035
Mof_C 	C 	0.178	0.3037	0.5447	-0.135
Mof_C 	C 	0.2048	0.291	0.4921	0.079
Mof_H 	H 	0.2339	0.2641	0.4904	0.032
Mof_C 	C 	0.1877	0.3184	0.4446	-0.145
Mof_C 	C 	0.1469	0.3601	0.4462	0.079
Mof_H 	H 	0.1356	0.3779	0.4127	0.03
Mof_C 	C 	0.0774	0.4233	0.5007	0.402
Mof_C 	C 	0.2107	0.3013	0.3851	0.428
Mof_C 	C 	0.1938	0.2738	0.5976	0.345
Mof_Zn	Zn	0.23737	0.29341	0.82052	1.227
Mof_O 	O 	0.4363	0.0559	0.9525	-0.425
Mof_O 	O 	0.4427	0.065	0.0477	-0.459
Mof_O 	O 	0.2574	0.2415	0.884	-0.485
Mof_O 	O 	0.3021	0.169	0.8439	-0.509
Mof_O 	O 	0.332	0.2131	0.1433	-0.461
Mof_O 	O 	0.2706	0.2665	0.0981	-0.321
Mof_C 	C 	0.3776	0.1241	0.9976	0.005
Mof_C 	C 	0.361	0.1541	0.0464	-0.033
Mof_H 	H 	0.3775	0.1446	0.0811	0.065
Mof_C 	C 	0.322	0.1963	0.0447	-0.151
Mof_C 	C 	0.2952	0.209	0.9921	0.117
Mof_H 	H 	0.2661	0.2359	0.9904	0.033
Mof_C 	C 	0.3123	0.1816	0.9446	-0.126
Mof_C 	C 	0.3531	0.1399	0.9462	0.021
Mof_H 	H 	0.3644	0.1221	0.9127	0.052
Mof_C 	C 	0.4226	0.0767	0.0007	0.269
Mof_C 	C 	0.2893	0.1987	0.8851	0.424
Mof_C 	C 	0.3062	0.2262	0.0976	0.342
Mof_Zn	Zn	0.73737	0.79341	0.32052	1.227
Mof_O 	O 	0.9363	0.5559	0.4525	-0.452
Mof_O 	O 	0.9427	0.565	0.5477	-0.449
Mof_O 	O 	0.7574	0.7415	0.384	-0.486
Mof_O 	O 	0.8021	0.669	0.3439	-0.505
Mof_O 	O 	0.832	0.7131	0.6433	-0.451
Mof_O 	O 	0.7706	0.7665	0.5981	-0.301
Mof_C 	C 	0.8776	0.6241	0.4976	-0.119
Mof_C 	C 	0.861	0.6541	0.5464	0.067
Mof_H 	H 	0.8775	0.6446	0.5811	0.045
Mof_C 	C 	0.822	0.6963	0.5447	-0.124
Mof_C 	C 	0.7952	0.709	0.4921	0.073
Mof_H 	H 	0.7661	0.7359	0.4904	0.037
Mof_C 	C 	0.8123	0.6816	0.4446	-0.135
Mof_C 	C 	0.8531	0.6399	0.4462	0.073
Mof_H 	H 	0.8644	0.6221	0.4127	0.039
Mof_C 	C 	0.9226	0.5767	0.5007	0.397
Mof_C 	C 	0.7893	0.6987	0.3851	0.427
Mof_C 	C 	0.8062	0.7262	0.5976	0.343
Mof_Zn	Zn	0.23737	0.70659	0.17948	1.226
Mof_O 	O 	0.4363	0.9441	0.0475	-0.511
Mof_O 	O 	0.4427	0.935	0.9523	-0.475
Mof_O 	O 	0.2574	0.7585	0.116	-0.494
Mof_O 	O 	0.3021	0.831	0.1561	-0.508
Mof_O 	O 	0.332	0.7869	0.8567	-0.45
Mof_O 	O 	0.2706	0.7335	0.9019	-0.291
Mof_C 	C 	0.3776	0.8759	0.0024	-0.261
Mof_C 	C 	0.361	0.8459	0.9536	0.174
Mof_H 	H 	0.3775	0.8554	0.9189	0.012
Mof_C 	C 	0.322	0.8037	0.9553	-0.113
Mof_C 	C 	0.2952	0.791	0.0079	0.036
Mof_H 	H 	0.2661	0.7641	0.0096	0.033
Mof_C 	C 	0.3123	0.8184	0.0554	-0.158
Mof_C 	C 	0.3531	0.8601	0.0538	0.131
Mof_H 	H 	0.3644	0.8779	0.0873	0.016
Mof_C 	C 	0.4226	0.9233	0.9993	0.531
Mof_C 	C 	0.2893	0.8013	0.1149	0.43
Mof_C 	C 	0.3062	0.7738	0.9024	0.347
Mof_Zn	Zn	0.73737	0.20659	0.67948	1.227
Mof_O 	O 	0.9363	0.4441	0.5475	-0.452
Mof_O 	O 	0.9427	0.435	0.4523	-0.449
Mof_O 	O 	0.7574	0.2585	0.616	-0.488
Mof_O 	O 	0.8021	0.331	0.6561	-0.506
Mof_O 	O 	0.832	0.2869	0.3567	-0.451
Mof_O 	O 	0.7706	0.2335	0.4019	-0.304
Mof_C 	C 	0.8776	0.3759	0.5024	-0.12
Mof_C 	C 	0.861	0.3459	0.4536	0.068
Mof_H 	H 	0.8775	0.3554	0.4189	0.044
Mof_C 	C 	0.822	0.3037	0.4553	-0.126
Mof_C 	C 	0.7952	0.291	0.5079	0.074
Mof_H 	H 	0.7661	0.2641	0.5096	0.035
Mof_C 	C 	0.8123	0.3184	0.5554	-0.137
Mof_C 	C 	0.8531	0.3601	0.5538	0.073
Mof_H 	H 	0.8644	0.3779	0.5873	0.039
Mof_C 	C 	0.9226	0.4233	0.4993	0.397
Mof_C 	C 	0.7893	0.3013	0.6149	0.428
Mof_C 	C 	0.8062	0.2738	0.4024	0.344
Mof_Zn	Zn	0.76263	0.29341	0.17948	1.226
Mof_O 	O 	0.5637	0.0559	0.0475	-0.545
Mof_O 	O 	0.5573	0.065	0.9523	-0.506
Mof_O 	O 	0.7426	0.2415	0.116	-0.494
Mof_O 	O 	0.6979	0.169	0.1561	-0.514
Mof_O 	O 	0.668	0.2131	0.8567	-0.454
Mof_O 	O 	0.7294	0.2665	0.9019	-0.29
Mof_C 	C 	0.6224	0.1241	0.0024	-0.276
Mof_C 	C 	0.639	0.1541	0.9536	0.18
Mof_H 	H 	0.6225	0.1446	0.9189	0.004
Mof_C 	C 	0.678	0.1963	0.9553	-0.12
Mof_C 	C 	0.7048	0.209	0.0079	0.04
Mof_H 	H 	0.7339	0.2359	0.0096	0.032
Mof_C 	C 	0.6877	0.1816	0.0554	-0.165
Mof_C 	C 	0.6469	0.1399	0.0538	0.136
Mof_H 	H 	0.6356	0.1221	0.0873	0.006
Mof_C 	C 	0.5774	0.0767	0.9993	0.535
Mof_C 	C 	0.7107	0.1987	0.1149	0.432
Mof_C 	C 	0.6938	0.2262	0.9024	0.348
Mof_Zn	Zn	0.26263	0.79341	0.67948	1.227
Mof_O 	O 	0.0637	0.5559	0.5475	-0.484
Mof_O 	O 	0.0573	0.565	0.4523	-0.484
Mof_O 	O 	0.2426	0.7415	0.616	-0.488
Mof_O 	O 	0.1979	0.669	0.6561	-0.51
Mof_O 	O 	0.168	0.7131	0.3567	-0.458
Mof_O 	O 	0.2294	0.7665	0.4019	-0.303
Mof_C 	C 	0.1224	0.6241	0.5024	-0.135
Mof_C 	C 	0.139	0.6541	0.4536	0.073
Mof_H 	H 	0.1225	0.6446	0.4189	0.034
Mof_C 	C 	0.178	0.6963	0.4553	-0.134
Mof_C 	C 	0.2048	0.709	0.5079	0.077
Mof_H 	H 	0.2339	0.7359	0.5096	0.035
Mof_C 	C 	0.1877	0.6816	0.5554	-0.144
Mof_C 	C 	0.1469	0.6399	0.5538	0.078
Mof_H 	H 	0.1356	0.6221	0.5873	0.03
Mof_C 	C 	0.0774	0.5767	0.4993	0.402
Mof_C 	C 	0.2107	0.6987	0.6149	0.428
Mof_C 	C 	0.1938	0.7262	0.4024	0.344
Mof_Zn	Zn	0.82052	0.76263	0.70659	1.228
Mof_O 	O 	0.9525	0.5637	0.9441	-0.39
Mof_O 	O 	0.0477	0.5573	0.935	-0.427
Mof_O 	O 	0.884	0.7426	0.7585	-0.478
Mof_O 	O 	0.8439	0.6979	0.831	-0.499
Mof_O 	O 	0.1433	0.668	0.7869	-0.454
Mof_O 	O 	0.0981	0.7294	0.7335	-0.313
Mof_C 	C 	0.9976	0.6224	0.8759	0.023
Mof_C 	C 	0.0464	0.639	0.8459	-0.039
Mof_H 	H 	0.0811	0.6225	0.8554	0.075
Mof_C 	C 	0.0447	0.678	0.8037	-0.138
Mof_C 	C 	0.9921	0.7048	0.791	0.111
Mof_H 	H 	0.9904	0.7339	0.7641	0.041
Mof_C 	C 	0.9446	0.6877	0.8184	-0.111
Mof_C 	C 	0.9462	0.6469	0.8601	0.014
Mof_H 	H 	0.9127	0.6356	0.8779	0.064
Mof_C 	C 	0.0007	0.5774	0.9233	0.265
Mof_C 	C 	0.8851	0.7107	0.8013	0.423
Mof_C 	C 	0.0976	0.6938	0.7738	0.341
Mof_Zn	Zn	0.32052	0.26263	0.20659	1.226
Mof_O 	O 	0.4525	0.0637	0.4441	-0.484
Mof_O 	O 	0.5477	0.0573	0.435	-0.484
Mof_O 	O 	0.384	0.2426	0.2585	-0.49
Mof_O 	O 	0.3439	0.1979	0.331	-0.51
Mof_O 	O 	0.6433	0.168	0.2869	-0.459
Mof_O 	O 	0.5981	0.2294	0.2335	-0.307
Mof_C 	C 	0.4976	0.1224	0.3759	-0.136
Mof_C 	C 	0.5464	0.139	0.3459	0.074
Mof_H 	H 	0.5811	0.1225	0.3554	0.034
Mof_C 	C 	0.5447	0.178	0.3037	-0.136
Mof_C 	C 	0.4921	0.2048	0.291	0.078
Mof_H 	H 	0.4904	0.2339	0.2641	0.032
Mof_C 	C 	0.4446	0.1877	0.3184	-0.145
Mof_C 	C 	0.4462	0.1469	0.3601	0.079
Mof_H 	H 	0.4127	0.1356	0.3779	0.03
Mof_C 	C 	0.5007	0.0774	0.4233	0.402
Mof_C 	C 	0.3851	0.2107	0.3013	0.428
Mof_C 	C 	0.5976	0.1938	0.2738	0.345
Mof_Zn	Zn	0.82052	0.23737	0.29341	1.227
Mof_O 	O 	0.9525	0.4363	0.0559	-0.425
Mof_O 	O 	0.0477	0.4427	0.065	-0.459
Mof_O 	O 	0.884	0.2574	0.2415	-0.485
Mof_O 	O 	0.8439	0.3021	0.169	-0.509
Mof_O 	O 	0.1433	0.332	0.2131	-0.461
Mof_O 	O 	0.0981	0.2706	0.2665	-0.321
Mof_C 	C 	0.9976	0.3776	0.1241	0.005
Mof_C 	C 	0.0464	0.361	0.1541	-0.033
Mof_H 	H 	0.0811	0.3775	0.1446	0.065
Mof_C 	C 	0.0447	0.322	0.1963	-0.151
Mof_C 	C 	0.9921	0.2952	0.209	0.117
Mof_H 	H 	0.9904	0.2661	0.2359	0.033
Mof_C 	C 	0.9446	0.3123	0.1816	-0.126
Mof_C 	C 	0.9462	0.3531	0.1399	0.021
Mof_H 	H 	0.9127	0.3644	0.1221	0.052
Mof_C 	C 	0.0007	0.4226	0.0767	0.269
Mof_C 	C 	0.8851	0.2893	0.1987	0.424
Mof_C 	C 	0.0976	0.3062	0.2262	0.342
Mof_Zn	Zn	0.32052	0.73737	0.79341	1.227
Mof_O 	O 	0.4525	0.9363	0.5559	-0.452
Mof_O 	O 	0.5477	0.9427	0.565	-0.449
Mof_O 	O 	0.384	0.7574	0.7415	-0.486
Mof_O 	O 	0.3439	0.8021	0.669	-0.505
Mof_O 	O 	0.6433	0.832	0.7131	-0.451
Mof_O 	O 	0.5981	0.7706	0.7665	-0.301
Mof_C 	C 	0.4976	0.8776	0.6241	-0.119
Mof_C 	C 	0.5464	0.861	0.6541	0.067
Mof_H 	H 	0.5811	0.8775	0.6446	0.045
Mof_C 	C 	0.5447	0.822	0.6963	-0.124
Mof_C 	C 	0.4921	0.7952	0.709	0.073
Mof_H 	H 	0.4904	0.7661	0.7359	0.037
Mof_C 	C 	0.4446	0.8123	0.6816	-0.135
Mof_C 	C 	0.4462	0.8531	0.6399	0.073
Mof_H 	H 	0.4127	0.8644	0.6221	0.039
Mof_C 	C 	0.5007	0.9226	0.5767	0.397
Mof_C 	C 	0.3851	0.7893	0.6987	0.427
Mof_C 	C 	0.5976	0.8062	0.7262	0.343
Mof_Zn	Zn	0.17948	0.23737	0.70659	1.226
Mof_O 	O 	0.0475	0.4363	0.9441	-0.511
Mof_O 	O 	0.9523	0.4427	0.935	-0.475
Mof_O 	O 	0.116	0.2574	0.7585	-0.494
Mof_O 	O 	0.1561	0.3021	0.831	-0.508
Mof_O 	O 	0.8567	0.332	0.7869	-0.45
Mof_O 	O 	0.9019	0.2706	0.7335	-0.291
Mof_C 	C 	0.0024	0.3776	0.8759	-0.261
Mof_C 	C 	0.9536	0.361	0.8459	0.174
Mof_H 	H 	0.9189	0.3775	0.8554	0.012
Mof_C 	C 	0.9553	0.322	0.8037	-0.113
Mof_C 	C 	0.0079	0.2952	0.791	0.036
Mof_H 	H 	0.0096	0.2661	0.7641	0.033
Mof_C 	C 	0.0554	0.3123	0.8184	-0.158
Mof_C 	C 	0.0538	0.3531	0.8601	0.131
Mof_H 	H 	0.0873	0.3644	0.8779	0.016
Mof_C 	C 	0.9993	0.4226	0.9233	0.531
Mof_C 	C 	0.1149	0.2893	0.8013	0.43
Mof_C 	C 	0.9024	0.3062	0.7738	0.347
Mof_Zn	Zn	0.67948	0.73737	0.20659	1.227
Mof_O 	O 	0.5475	0.9363	0.4441	-0.452
Mof_O 	O 	0.4523	0.9427	0.435	-0.449
Mof_O 	O 	0.616	0.7574	0.2585	-0.488
Mof_O 	O 	0.6561	0.8021	0.331	-0.506
Mof_O 	O 	0.3567	0.832	0.2869	-0.451
Mof_O 	O 	0.4019	0.7706	0.2335	-0.304
Mof_C 	C 	0.5024	0.8776	0.3759	-0.12
Mof_C 	C 	0.4536	0.861	0.3459	0.068
Mof_H 	H 	0.4189	0.8775	0.3554	0.044
Mof_C 	C 	0.4553	0.822	0.3037	-0.126
Mof_C 	C 	0.5079	0.7952	0.291	0.074
Mof_H 	H 	0.5096	0.7661	0.2641	0.035
Mof_C 	C 	0.5554	0.8123	0.3184	-0.137
Mof_C 	C 	0.5538	0.8531	0.3601	0.073
Mof_H 	H 	0.5873	0.8644	0.3779	0.039
Mof_C 	C 	0.4993	0.9226	0.4233	0.397
Mof_C 	C 	0.6149	0.7893	0.3013	0.428
Mof_C 	C 	0.4024	0.8062	0.2738	0.344
Mof_Zn	Zn	0.17948	0.76263	0.29341	1.226
Mof_O 	O 	0.0475	0.5637	0.0559	-0.545
Mof_O 	O 	0.9523	0.5573	0.065	-0.506
Mof_O 	O 	0.116	0.7426	0.2415	-0.494
Mof_O 	O 	0.1561	0.6979	0.169	-0.514
Mof_O 	O 	0.8567	0.668	0.2131	-0.454
Mof_O 	O 	0.9019	0.7294	0.2665	-0.29
Mof_C 	C 	0.0024	0.6224	0.1241	-0.276
Mof_C 	C 	0.9536	0.639	0.1541	0.18
Mof_H 	H 	0.9189	0.6225	0.1446	0.004
Mof_C 	C 	0.9553	0.678	0.1963	-0.12
Mof_C 	C 	0.0079	0.7048	0.209	0.04
Mof_H 	H 	0.0096	0.7339	0.2359	0.032
Mof_C 	C 	0.0554	0.6877	0.1816	-0.165
Mof_C 	C 	0.0538	0.6469	0.1399	0.136
Mof_H 	H 	0.0873	0.6356	0.1221	0.006
Mof_C 	C 	0.9993	0.5774	0.0767	0.535
Mof_C 	C 	0.1149	0.7107	0.1987	0.432
Mof_C 	C 	0.9024	0.6938	0.2262	0.348
Mof_Zn	Zn	0.67948	0.26263	0.79341	1.227
Mof_O 	O 	0.5475	0.0637	0.5559	-0.484
Mof_O 	O 	0.4523	0.0573	0.565	-0.484
Mof_O 	O 	0.616	0.2426	0.7415	-0.488
Mof_O 	O 	0.6561	0.1979	0.669	-0.51
Mof_O 	O 	0.3567	0.168	0.7131	-0.458
Mof_O 	O 	0.4019	0.2294	0.7665	-0.303
Mof_C 	C 	0.5024	0.1224	0.6241	-0.135
Mof_C 	C 	0.4536	0.139	0.6541	0.073
Mof_H 	H 	0.4189	0.1225	0.6446	0.034
Mof_C 	C 	0.4553	0.178	0.6963	-0.134
Mof_C 	C 	0.5079	0.2048	0.709	0.077
Mof_H 	H 	0.5096	0.2339	0.7359	0.035
Mof_C 	C 	0.5554	0.1877	0.6816	-0.144
Mof_C 	C 	0.5538	0.1469	0.6399	0.078
Mof_H 	H 	0.5873	0.1356	0.6221	0.03
Mof_C 	C 	0.4993	0.0774	0.5767	0.402
Mof_C 	C 	0.6149	0.2107	0.6987	0.428
Mof_C 	C 	0.4024	0.1938	0.7262	0.344
Mof_Zn	Zn	0.70659	0.82052	0.76263	1.228
Mof_O 	O 	0.9441	0.9525	0.5637	-0.39
Mof_O 	O 	0.935	0.0477	0.5573	-0.427
Mof_O 	O 	0.7585	0.884	0.7426	-0.478
Mof_O 	O 	0.831	0.8439	0.6979	-0.499
Mof_O 	O 	0.7869	0.1433	0.668	-0.454
Mof_O 	O 	0.7335	0.0981	0.7294	-0.313
Mof_C 	C 	0.8759	0.9976	0.6224	0.023
Mof_C 	C 	0.8459	0.0464	0.639	-0.039
Mof_H 	H 	0.8554	0.0811	0.6225	0.075
Mof_C 	C 	0.8037	0.0447	0.678	-0.138
Mof_C 	C 	0.791	0.9921	0.7048	0.111
Mof_H 	H 	0.7641	0.9904	0.7339	0.041
Mof_C 	C 	0.8184	0.9446	0.6877	-0.111
Mof_C 	C 	0.8601	0.9462	0.6469	0.014
Mof_H 	H 	0.8779	0.9127	0.6356	0.064
Mof_C 	C 	0.9233	0.0007	0.5774	0.265
Mof_C 	C 	0.8013	0.8851	0.7107	0.423
Mof_C 	C 	0.7738	0.0976	0.6938	0.341
Mof_Zn	Zn	0.20659	0.32052	0.26263	1.226
Mof_O 	O 	0.4441	0.4525	0.0637	-0.484
Mof_O 	O 	0.435	0.5477	0.0573	-0.484
Mof_O 	O 	0.2585	0.384	0.2426	-0.49
Mof_O 	O 	0.331	0.3439	0.1979	-0.51
Mof_O 	O 	0.2869	0.6433	0.168	-0.459
Mof_O 	O 	0.2335	0.5981	0.2294	-0.307
Mof_C 	C 	0.3759	0.4976	0.1224	-0.136
Mof_C 	C 	0.3459	0.5464	0.139	0.074
Mof_H 	H 	0.3554	0.5811	0.1225	0.034
Mof_C 	C 	0.3037	0.5447	0.178	-0.136
Mof_C 	C 	0.291	0.4921	0.2048	0.078
Mof_H 	H 	0.2641	0.4904	0.2339	0.032
Mof_C 	C 	0.3184	0.4446	0.1877	-0.145
Mof_C 	C 	0.3601	0.4462	0.1469	0.079
Mof_H 	H 	0.3779	0.4127	0.1356	0.03
Mof_C 	C 	0.4233	0.5007	0.0774	0.402
Mof_C 	C 	0.3013	0.3851	0.2107	0.428
Mof_C 	C 	0.2738	0.5976	0.1938	0.345
Mof_Zn	Zn	0.29341	0.82052	0.23737	1.227
Mof_O 	O 	0.0559	0.9525	0.4363	-0.425
Mof_O 	O 	0.065	0.0477	0.4427	-0.459
Mof_O 	O 	0.2415	0.884	0.2574	-0.485
Mof_O 	O 	0.169	0.8439	0.3021	-0.509
Mof_O 	O 	0.2131	0.1433	0.332	-0.461
Mof_O 	O 	0.2665	0.0981	0.2706	-0.321
Mof_C 	C 	0.1241	0.9976	0.3776	0.005
Mof_C 	C 	0.1541	0.0464	0.361	-0.033
Mof_H 	H 	0.1446	0.0811	0.3775	0.065
Mof_C 	C 	0.1963	0.0447	0.322	-0.151
Mof_C 	C 	0.209	0.9921	0.2952	0.117
Mof_H 	H 	0.2359	0.9904	0.2661	0.033
Mof_C 	C 	0.1816	0.9446	0.3123	-0.126
Mof_C 	C 	0.1399	0.9462	0.3531	0.021
Mof_H 	H 	0.1221	0.9127	0.3644	0.052
Mof_C 	C 	0.0767	0.0007	0.4226	0.269
Mof_C 	C 	0.1987	0.8851	0.2893	0.424
Mof_C 	C 	0.2262	0.0976	0.3062	0.342
Mof_Zn	Zn	0.79341	0.32052	0.73737	1.227
Mof_O 	O 	0.5559	0.4525	0.9363	-0.452
Mof_O 	O 	0.565	0.5477	0.9427	-0.449
Mof_O 	O 	0.7415	0.384	0.7574	-0.486
Mof_O 	O 	0.669	0.3439	0.8021	-0.505
Mof_O 	O 	0.7131	0.6433	0.832	-0.451
Mof_O 	O 	0.7665	0.5981	0.7706	-0.301
Mof_C 	C 	0.6241	0.4976	0.8776	-0.119
Mof_C 	C 	0.6541	0.5464	0.861	0.067
Mof_H 	H 	0.6446	0.5811	0.8775	0.045
Mof_C 	C 	0.6963	0.5447	0.822	-0.124
Mof_C 	C 	0.709	0.4921	0.7952	0.073
Mof_H 	H 	0.7359	0.4904	0.7661	0.037
Mof_C 	C 	0.6816	0.4446	0.8123	-0.135
Mof_C 	C 	0.6399	0.4462	0.8531	0.073
Mof_H 	H 	0.6221	0.4127	0.8644	0.039
Mof_C 	C 	0.5767	0.5007	0.9226	0.397
Mof_C 	C 	0.6987	0.3851	0.7893	0.427
Mof_C 	C 	0.7262	0.5976	0.8062	0.343
Mof_Zn	Zn	0.70659	0.17948	0.23737	1.226
Mof_O 	O 	0.9441	0.0475	0.4363	-0.511
Mof_O 	O 	0.935	0.9523	0.4427	-0.475
Mof_O 	O 	0.7585	0.116	0.2574	-0.494
Mof_O 	O 	0.831	0.1561	0.3021	-0.508
Mof_O 	O 	0.7869	0.8567	0.332	-0.45
Mof_O 	O 	0.7335	0.9019	0.2706	-0.291
Mof_C 	C 	0.8759	0.0024	0.3776	-0.261
Mof_C 	C 	0.8459	0.9536	0.361	0.174
Mof_H 	H 	0.8554	0.9189	0.3775	0.012
Mof_C 	C 	0.8037	0.9553	0.322	-0.113
Mof_C 	C 	0.791	0.0079	0.2952	0.036
Mof_H 	H 	0.7641	0.0096	0.2661	0.033
Mof_C 	C 	0.8184	0.0554	0.3123	-0.158
Mof_C 	C 	0.8601	0.0538	0.3531	0.131
Mof_H 	H 	0.8779	0.0873	0.3644	0.016
Mof_C 	C 	0.9233	0.9993	0.4226	0.531
Mof_C 	C 	0.8013	0.1149	0.2893	0.43
Mof_C 	C 	0.7738	0.9024	0.3062	0.347
Mof_Zn	Zn	0.20659	0.67948	0.73737	1.227
Mof_O 	O 	0.4441	0.5475	0.9363	-0.452
Mof_O 	O 	0.435	0.4523	0.9427	-0.449
Mof_O 	O 	0.2585	0.616	0.7574	-0.488
Mof_O 	O 	0.331	0.6561	0.8021	-0.506
Mof_O 	O 	0.2869	0.3567	0.832	-0.451
Mof_O 	O 	0.2335	0.4019	0.7706	-0.304
Mof_C 	C 	0.3759	0.5024	0.8776	-0.12
Mof_C 	C 	0.3459	0.4536	0.861	0.068
Mof_H 	H 	0.3554	0.4189	0.8775	0.044
Mof_C 	C 	0.3037	0.4553	0.822	-0.126
Mof_C 	C 	0.291	0.5079	0.7952	0.074
Mof_H 	H 	0.2641	0.5096	0.7661	0.035
Mof_C 	C 	0.3184	0.5554	0.8123	-0.137
Mof_C 	C 	0.3601	0.5538	0.8531	0.073
Mof_H 	H 	0.3779	0.5873	0.8644	0.039
Mof_C 	C 	0.4233	0.4993	0.9226	0.397
Mof_C 	C 	0.3013	0.6149	0.7893	0.428
Mof_C 	C 	0.2738	0.4024	0.8062	0.344
Mof_Zn	Zn	0.29341	0.17948	0.76263	1.226
Mof_O 	O 	0.0559	0.0475	0.5637	-0.545
Mof_O 	O 	0.065	0.9523	0.5573	-0.506
Mof_O 	O 	0.2415	0.116	0.7426	-0.494
Mof_O 	O 	0.169	0.1561	0.6979	-0.514
Mof_O 	O 	0.2131	0.8567	0.668	-0.454
Mof_O 	O 	0.2665	0.9019	0.7294	-0.29
Mof_C 	C 	0.1241	0.0024	0.6224	-0.276
Mof_C 	C 	0.1541	0.9536	0.639	0.18
Mof_H 	H 	0.1446	0.9189	0.6225	0.004
Mof_C 	C 	0.1963	0.9553	0.678	-0.12
Mof_C 	C 	0.209	0.0079	0.7048	0.04
Mof_H 	H 	0.2359	0.0096	0.7339	0.032
Mof_C 	C 	0.1816	0.0554	0.6877	-0.165
Mof_C 	C 	0.1399	0.0538	0.6469	0.136
Mof_H 	H 	0.1221	0.0873	0.6356	0.006
Mof_C 	C 	0.0767	0.9993	0.5774	0.535
Mof_C 	C 	0.1987	0.1149	0.7107	0.432
Mof_C 	C 	0.2262	0.9024	0.6938	0.348
Mof_Zn	Zn	0.79341	0.67948	0.26263	1.227
Mof_O 	O 	0.5559	0.5475	0.0637	-0.484
Mof_O 	O 	0.565	0.4523	0.0573	-0.484
Mof_O 	O 	0.7415	0.616	0.2426	-0.488
Mof_O 	O 	0.669	0.6561	0.1979	-0.51
Mof_O 	O 	0.7131	0.3567	0.168	-0.458
Mof_O 	O 	0.7665	0.4019	0.2294	-0.303
Mof_C 	C 	0.6241	0.5024	0.1224	-0.135
Mof_C 	C 	0.6541	0.4536	0.139	0.073
Mof_H 	H 	0.6446	0.4189	0.1225	0.034
Mof_C 	C 	0.6963	0.4553	0.178	-0.134
Mof_C 	C 	0.709	0.5079	0.2048	0.077
Mof_H 	H 	0.7359	0.5096	0.2339	0.035
Mof_C 	C 	0.6816	0.5554	0.1877	-0.144
Mof_C 	C 	0.6399	0.5538	0.1469	0.078
Mof_H 	H 	0.6221	0.5873	0.1356	0.03
Mof_C 	C 	0.5767	0.4993	0.0774	0.402
Mof_C 	C 	0.6987	0.6149	0.2107	0.428
Mof_C 	C 	0.7262	0.4024	0.1938	0.344
Mof_Zn	Zn	0.5	7.77751e-33	0.9364	1.185
Mof_Zn	Zn	1.33025e-32	0.5	0.4364	1.181
Mof_Zn	Zn	0.5	4.86094e-34	0.0636	1.178
Mof_Zn	Zn	1.37794e-32	0.5	0.5636	1.181
Mof_Zn	Zn	0.9364	0.5	-0	1.185
Mof_Zn	Zn	0.4364	3.88875e-33	0.5	1.181
Mof_Zn	Zn	0.0636	0.5	-0	1.178
Mof_Zn	Zn	0.5636	3.88875e-33	0.5	1.181
Mof_Zn	Zn	1.74297e-32	0.9364	0.5	1.185
Mof_Zn	Zn	0.5	0.4364	-0	1.181
Mof_Zn	Zn	5.76345e-33	0.0636	0.5	1.178
Mof_Zn	Zn	0.5	0.5636	-0	1.181
Mof_O 	O 	0.748	0.748	0.748	-0.701
Mof_O 	O 	0.248	0.248	0.248	-0.707
Mof_O 	O 	0.252	0.252	0.748	-0.703
Mof_O 	O 	0.752	0.752	0.248	-0.701
Mof_O 	O 	0.252	0.748	0.252	-0.703
Mof_O 	O 	0.752	0.248	0.752	-0.701
Mof_O 	O 	0.748	0.252	0.252	-0.703
Mof_O 	O 	0.248	0.752	0.752	-0.701
_end
