data_functionalizedCrystal
_audit_creation_method	'EQeq! by Chris Wilmer'
_symmetry_space_group_name_H-M	'P1'
_symmetry_Int_Tables_number	1
_symmetry_cell_setting	triclinic
loop_
_symmetry_equiv_pos_as_xyz
  x,y,z
_cell_length_a	6.8351
_cell_length_b	15.0362
_cell_length_c	19.3197
_cell_angle_alpha	90
_cell_angle_beta	96.305
_cell_angle_gamma	90
loop_
_atom_site_label
_atom_site_type_symbol
_atom_site_fract_x
_atom_site_fract_y
_atom_site_fract_z
_atom_site_charge
Mof_Fe	Fe	0.5251	0.7442	0.5056	1.051
Mof_Fe	Fe	0.9749	0.2442	0.4944	1.089
Mof_Fe	Fe	0.4749	0.2558	0.4944	1.049
Mof_Fe	Fe	0.0251	0.7558	0.5056	1.011
Mof_Fe	Fe	0.5	0	-0	0.716
Mof_Fe	Fe	-0	0.5	-0	0.777
Mof_Fe	Fe	0.5	0.5	-0	0.838
Mof_Fe	Fe	-0	0	-0	0.685
Mof_H 	H 	0.4839	0.6309	0.172	0.043
Mof_H 	H 	0.4583	0.6651	0.2894	0.052
Mof_H 	H 	0.0381	0.6056	0.3378	0.033
Mof_H 	H 	0.0637	0.5714	0.2205	0.018
Mof_H 	H 	0.4738	0.6149	0.6696	0.051
Mof_H 	H 	0.4426	0.5888	0.7878	0.056
Mof_H 	H 	0.0265	0.6397	0.8361	0.042
Mof_H 	H 	0.0577	0.6658	0.7179	0.018
Mof_H 	H 	0.0161	0.1309	0.828	0.045
Mof_H 	H 	0.0417	0.1651	0.7106	0.021
Mof_H 	H 	0.4619	0.1056	0.6622	0.045
Mof_H 	H 	0.4363	0.0714	0.7795	0.046
Mof_H 	H 	0.0262	0.1149	0.3304	0.018
Mof_H 	H 	0.0574	0.0888	0.2122	0.015
Mof_H 	H 	0.4735	0.1397	0.1639	0.055
Mof_H 	H 	0.4423	0.1658	0.2821	0.041
Mof_H 	H 	0.5161	0.3691	0.828	0.078
Mof_H 	H 	0.5417	0.3349	0.7106	0.053
Mof_H 	H 	0.9619	0.3944	0.6622	0.084
Mof_H 	H 	0.9363	0.4286	0.7795	0.086
Mof_H 	H 	0.5262	0.3851	0.3304	0.057
Mof_H 	H 	0.5574	0.4112	0.2122	0.057
Mof_H 	H 	0.9735	0.3603	0.1639	0.092
Mof_H 	H 	0.9423	0.3342	0.2821	0.074
Mof_H 	H 	0.9839	0.8691	0.172	0.084
Mof_H 	H 	0.9583	0.8349	0.2894	0.083
Mof_H 	H 	0.5381	0.8944	0.3378	0.071
Mof_H 	H 	0.5637	0.9286	0.2205	0.066
Mof_H 	H 	0.9738	0.8851	0.6696	0.087
Mof_H 	H 	0.9426	0.9112	0.7878	0.098
Mof_H 	H 	0.5265	0.8603	0.8361	0.08
Mof_H 	H 	0.5577	0.8342	0.7179	0.05
Mof_C 	C 	0.7759	0.5983	0.1865	-0.098
Mof_C 	C 	0.5994	0.6256	0.2066	-0
Mof_C 	C 	0.5845	0.6456	0.275	-0.018
Mof_C 	C 	0.7461	0.6382	0.3234	-0.075
Mof_C 	C 	0.9226	0.6109	0.3033	0.012
Mof_C 	C 	0.9375	0.5909	0.2349	0.033
Mof_C 	C 	0.7924	0.5762	0.111	0.379
Mof_C 	C 	0.7296	0.6602	0.3989	0.364
Mof_C 	C 	0.7684	0.6426	0.6839	-0.105
Mof_C 	C 	0.5891	0.6201	0.7043	0.007
Mof_C 	C 	0.5709	0.6048	0.7732	-0.024
Mof_C 	C 	0.732	0.612	0.8218	-0.063
Mof_C 	C 	0.9113	0.6345	0.8014	0.005
Mof_C 	C 	0.9295	0.6498	0.7325	0.039
Mof_C 	C 	0.788	0.659	0.6095	0.382
Mof_C 	C 	0.2123	0.9044	0.8962	0.323
Mof_C 	C 	0.7241	0.0983	0.8135	-0.064
Mof_C 	C 	0.9006	0.1256	0.7934	-0.001
Mof_C 	C 	0.9155	0.1456	0.725	0.03
Mof_C 	C 	0.7539	0.1382	0.6766	-0.096
Mof_C 	C 	0.5774	0.1109	0.6967	-0.004
Mof_C 	C 	0.5625	0.0909	0.7651	-0.029
Mof_C 	C 	0.7076	0.0762	0.889	0.331
Mof_C 	C 	0.7704	0.1602	0.6011	0.368
Mof_C 	C 	0.7316	0.1426	0.3161	-0.111
Mof_C 	C 	0.9109	0.1201	0.2957	0.027
Mof_C 	C 	0.9291	0.1048	0.2268	0.008
Mof_C 	C 	0.768	0.112	0.1782	-0.084
Mof_C 	C 	0.5887	0.1345	0.1986	-0.026
Mof_C 	C 	0.5705	0.1498	0.2675	-0.002
Mof_C 	C 	0.712	0.159	0.3905	0.382
Mof_C 	C 	0.2877	0.4044	0.1038	0.336
Mof_C 	C 	0.2241	0.4017	0.8135	-0.043
Mof_C 	C 	0.4006	0.3744	0.7934	-0.029
Mof_C 	C 	0.4155	0.3544	0.725	-0.001
Mof_C 	C 	0.2539	0.3618	0.6766	-0.072
Mof_C 	C 	0.0774	0.3891	0.6967	-0.034
Mof_C 	C 	0.0625	0.4091	0.7651	-0.056
Mof_C 	C 	0.2076	0.4238	0.889	0.341
Mof_C 	C 	0.2704	0.3398	0.6011	0.361
Mof_C 	C 	0.2316	0.3574	0.3161	-0.087
Mof_C 	C 	0.4109	0.3799	0.2957	-0.002
Mof_C 	C 	0.4291	0.3952	0.2268	-0.024
Mof_C 	C 	0.268	0.388	0.1782	-0.059
Mof_C 	C 	0.0887	0.3655	0.1986	-0.058
Mof_C 	C 	0.0705	0.3502	0.2675	-0.031
Mof_C 	C 	0.212	0.341	0.3905	0.376
Mof_C 	C 	0.7877	0.0956	0.1038	0.332
Mof_C 	C 	0.2759	0.9017	0.1865	-0.057
Mof_C 	C 	0.0994	0.8744	0.2066	-0.043
Mof_C 	C 	0.0845	0.8544	0.275	-0.041
Mof_C 	C 	0.2461	0.8618	0.3234	-0.057
Mof_C 	C 	0.4226	0.8891	0.3033	-0.01
Mof_C 	C 	0.4375	0.9091	0.2349	-0.009
Mof_C 	C 	0.2924	0.9238	0.111	0.356
Mof_C 	C 	0.2296	0.8398	0.3989	0.359
Mof_C 	C 	0.2684	0.8574	0.6839	-0.085
Mof_C 	C 	0.0891	0.8799	0.7043	-0.017
Mof_C 	C 	0.0709	0.8952	0.7732	-0.06
Mof_C 	C 	0.232	0.888	0.8218	-0.027
Mof_C 	C 	0.4113	0.8655	0.8014	-0.032
Mof_C 	C 	0.4295	0.8502	0.7325	0.014
Mof_C 	C 	0.288	0.841	0.6095	0.377
Mof_C 	C 	0.7123	0.5956	0.8962	0.339
Mof_O 	O 	0.2786	0.6884	0.5054	-0.375
Mof_O 	O 	0.7444	0.9334	0.9996	-0.134
Mof_O 	O 	0.64	0.5774	0.067	-0.396
Mof_O 	O 	0.9585	0.5566	0.0915	-0.344
Mof_O 	O 	0.5678	0.6883	0.4171	-0.375
Mof_O 	O 	0.3777	0.8494	0.4441	-0.314
Mof_O 	O 	0.6395	0.6507	0.5643	-0.379
Mof_O 	O 	0.4534	0.8185	0.5908	-0.346
Mof_O 	O 	0.0449	0.9223	0.9154	-0.246
Mof_O 	O 	0.3629	0.9007	0.9409	-0.224
Mof_O 	O 	0.2214	0.1884	0.4946	-0.397
Mof_O 	O 	0.7556	0.4334	0.0004	-0.346
Mof_O 	O 	0.86	0.0774	0.933	-0.259
Mof_O 	O 	0.5415	0.0566	0.9085	-0.287
Mof_O 	O 	0.9322	0.1883	0.5829	-0.374
Mof_O 	O 	0.1223	0.3494	0.5559	-0.342
Mof_O 	O 	0.8605	0.1507	0.4357	-0.385
Mof_O 	O 	0.0466	0.3185	0.4092	-0.373
Mof_O 	O 	0.4551	0.4223	0.0846	-0.339
Mof_O 	O 	0.1371	0.4007	0.0591	-0.357
Mof_O 	O 	0.7214	0.3116	0.4946	-0.372
Mof_O 	O 	0.2556	0.0666	0.0004	-0.359
Mof_O 	O 	0.36	0.4226	0.933	-0.283
Mof_O 	O 	0.0415	0.4434	0.9085	-0.292
Mof_O 	O 	0.4322	0.3117	0.5829	-0.375
Mof_O 	O 	0.6223	0.1506	0.5559	-0.338
Mof_O 	O 	0.3605	0.3493	0.4357	-0.38
Mof_O 	O 	0.5466	0.1815	0.4092	-0.362
Mof_O 	O 	0.9551	0.0777	0.0846	-0.32
Mof_O 	O 	0.6371	0.0993	0.0591	-0.345
Mof_O 	O 	0.7786	0.8116	0.5054	-0.35
Mof_O 	O 	0.2444	0.5666	0.9996	-0.208
Mof_O 	O 	0.14	0.9226	0.067	-0.354
Mof_O 	O 	0.4585	0.9434	0.0915	-0.317
Mof_O 	O 	0.0678	0.8117	0.4171	-0.377
Mof_O 	O 	0.8777	0.6506	0.4441	-0.309
Mof_O 	O 	0.1395	0.8493	0.5643	-0.374
Mof_O 	O 	0.9534	0.6815	0.5908	-0.335
Mof_O 	O 	0.5449	0.5777	0.9154	-0.278
Mof_O 	O 	0.8629	0.5993	0.9409	-0.242
_end
