data_functionalizedCrystal
_audit_creation_method	'EQeq! by Chris Wilmer'
_symmetry_space_group_name_H-M	'P1'
_symmetry_Int_Tables_number	1
_symmetry_cell_setting	triclinic
loop_
_symmetry_equiv_pos_as_xyz
  x,y,z
_cell_length_a	13.725
_cell_length_b	14.074
_cell_length_c	14.187
_cell_angle_alpha	114.15
_cell_angle_beta	114.2
_cell_angle_gamma	98.24
loop_
_atom_site_label
_atom_site_type_symbol
_atom_site_fract_x
_atom_site_fract_y
_atom_site_fract_z
_atom_site_charge
Mof_Li	Li	0.1828	0.9259	0.8528	1.981
Mof_Li	Li	0.9169	0.938	0.503	3.106
Mof_Li	Li	0.9644	0.5667	0.4571	4.56
Mof_Li	Li	0.0821	0.8255	0.5999	2.091
Mof_Si	Si	0.32817	0.56007	0.09972	0.503
Mof_O 	O 	0.16164	0.98305	0.74869	-1.385
Mof_O 	O 	0.07863	0.0328	0.61576	-1.834
Mof_O 	O 	0.91537	0.80409	0.50727	-1.576
Mof_O 	O 	0.86907	0.64076	0.49754	-1.487
Mof_O 	O 	0.14617	0.80051	0.49402	-0.967
Mof_O 	O 	0.01805	0.62396	0.38121	-1.491
Mof_O 	O 	0.09506	0.59376	0.60421	-2.277
Mof_O 	O 	0.14772	0.77744	0.7245	-1.438
Mof_C 	C 	0.2684	0.40377	0.99523	-0.065
Mof_C 	C 	0.32397	0.33276	0.01843	-0.23
Mof_H 	H 	0.3932	0.3631	0.0936	0.05
Mof_C 	C 	0.27939	0.21876	0.93328	0.247
Mof_H 	H 	0.3164	0.1713	0.9516	-0.21
Mof_C 	C 	0.18045	0.17428	0.82117	-0.593
Mof_C 	C 	0.12383	0.24329	0.79693	0.293
Mof_H 	H 	0.0556	0.2129	0.721	-0.233
Mof_C 	C 	0.1666	0.3558	0.88305	-0.24
Mof_H 	H 	0.1262	0.4017	0.866	0.066
Mof_C 	C 	0.13762	0.05468	0.72255	0.98
Mof_C 	C 	0.48492	0.60959	0.20959	-0.105
Mof_C 	C 	0.57021	0.68177	0.21484	-0.165
Mof_H 	H 	0.5493	0.7068	0.1591	0.026
Mof_C 	C 	0.68628	0.71797	0.30091	0.171
Mof_H 	H 	0.7432	0.77	0.3058	-0.231
Mof_C 	C 	0.71876	0.67817	0.37932	-0.491
Mof_C 	C 	0.63498	0.60416	0.37373	0.191
Mof_H 	H 	0.6568	0.5748	0.4255	-0.107
Mof_C 	C 	0.51963	0.57314	0.29269	-0.176
Mof_H 	H 	0.4628	0.5263	0.2931	0.028
Mof_C 	C 	0.84402	0.71003	0.46765	0.856
Mof_C 	C 	0.25693	0.60115	0.1897	-0.146
Mof_C 	C 	0.31663	0.69995	0.30388	-0.104
Mof_H 	H 	0.393	0.7453	0.3346	-0.008
Mof_C 	C 	0.26616	0.73248	0.37241	0.062
Mof_H 	H 	0.3076	0.8007	0.4485	-0.081
Mof_C 	C 	0.1553	0.66642	0.33125	-0.323
Mof_C 	C 	0.09525	0.56768	0.21852	0.084
Mof_H 	H 	0.0199	0.5213	0.1894	-0.049
Mof_C 	C 	0.14504	0.53662	0.14845	-0.106
Mof_H 	H 	0.1021	0.4701	0.0709	0.017
Mof_C 	C 	0.10194	0.69919	0.40781	0.754
Mof_C 	C 	0.29549	0.61875	0.99817	-0.084
Mof_C 	C 	0.31226	0.57423	0.90013	-0.197
Mof_H 	H 	0.3563	0.528	0.897	0.056
Mof_C 	C 	0.26603	0.59625	0.8077	0.205
Mof_H 	H 	0.2756	0.5625	0.7405	-0.187
Mof_C 	C 	0.20551	0.6679	0.81335	-0.683
Mof_C 	C 	0.1943	0.71869	0.91346	0.289
Mof_H 	H 	0.1577	0.7715	0.9206	-0.299
Mof_C 	C 	0.23658	0.69241	0.00329	-0.246
Mof_H 	H 	0.2252	0.7251	0.0694	0.035
Mof_C 	C 	0.14519	0.68146	0.70626	1.161
Mof_Li	Li	0.8172	0.0741	0.1472	1.982
Mof_Li	Li	0.0831	0.062	0.497	3.107
Mof_Li	Li	0.0356	0.4333	0.5429	4.561
Mof_Li	Li	0.9179	0.1745	0.4001	2.092
Mof_Si	Si	0.67183	0.43993	0.90028	0.503
Mof_O 	O 	0.83836	0.01695	0.25131	-1.385
Mof_O 	O 	0.92137	0.9672	0.38424	-1.834
Mof_O 	O 	0.08463	0.19591	0.49273	-1.576
Mof_O 	O 	0.13093	0.35924	0.50246	-1.487
Mof_O 	O 	0.85383	0.19949	0.50598	-0.967
Mof_O 	O 	0.98195	0.37604	0.61879	-1.491
Mof_O 	O 	0.90494	0.40624	0.39579	-2.277
Mof_O 	O 	0.85228	0.22256	0.2755	-1.438
Mof_C 	C 	0.7316	0.59623	0.00477	-0.065
Mof_C 	C 	0.67603	0.66724	0.98157	-0.23
Mof_H 	H 	0.6068	0.6369	0.9064	0.05
Mof_C 	C 	0.72061	0.78124	0.06672	0.247
Mof_H 	H 	0.6836	0.8287	0.0484	-0.21
Mof_C 	C 	0.81955	0.82572	0.17883	-0.593
Mof_C 	C 	0.87617	0.75671	0.20307	0.293
Mof_H 	H 	0.9444	0.7871	0.279	-0.233
Mof_C 	C 	0.8334	0.6442	0.11695	-0.24
Mof_H 	H 	0.8738	0.5983	0.134	0.066
Mof_C 	C 	0.86238	0.94532	0.27745	0.98
Mof_C 	C 	0.51508	0.39041	0.79041	-0.105
Mof_C 	C 	0.42979	0.31823	0.78516	-0.165
Mof_H 	H 	0.4507	0.2932	0.8409	0.026
Mof_C 	C 	0.31372	0.28203	0.69909	0.171
Mof_H 	H 	0.2568	0.23	0.6942	-0.231
Mof_C 	C 	0.28124	0.32183	0.62068	-0.491
Mof_C 	C 	0.36502	0.39584	0.62627	0.191
Mof_H 	H 	0.3432	0.4252	0.5745	-0.107
Mof_C 	C 	0.48037	0.42686	0.70731	-0.176
Mof_H 	H 	0.5372	0.4737	0.7069	0.028
Mof_C 	C 	0.15598	0.28997	0.53235	0.856
Mof_C 	C 	0.74307	0.39885	0.8103	-0.146
Mof_C 	C 	0.68337	0.30005	0.69612	-0.104
Mof_H 	H 	0.607	0.2547	0.6654	-0.008
Mof_C 	C 	0.73384	0.26752	0.62759	0.062
Mof_H 	H 	0.6924	0.1993	0.5515	-0.081
Mof_C 	C 	0.8447	0.33358	0.66875	-0.323
Mof_C 	C 	0.90475	0.43232	0.78148	0.084
Mof_H 	H 	0.9801	0.4787	0.8106	-0.049
Mof_C 	C 	0.85496	0.46338	0.85155	-0.106
Mof_H 	H 	0.8979	0.5299	0.9291	0.017
Mof_C 	C 	0.89806	0.30081	0.59219	0.754
Mof_C 	C 	0.70451	0.38125	0.00183	-0.084
Mof_C 	C 	0.68774	0.42577	0.09987	-0.197
Mof_H 	H 	0.6437	0.472	0.103	0.056
Mof_C 	C 	0.73397	0.40375	0.1923	0.205
Mof_H 	H 	0.7244	0.4375	0.2595	-0.187
Mof_C 	C 	0.79449	0.3321	0.18665	-0.683
Mof_C 	C 	0.8057	0.28131	0.08654	0.289
Mof_H 	H 	0.8423	0.2285	0.0794	-0.299
Mof_C 	C 	0.76342	0.30759	0.99671	-0.246
Mof_H 	H 	0.7748	0.2749	0.9306	0.035
Mof_C 	C 	0.85481	0.31854	0.29374	1.161
_end
