data_functionalizedCrystal
_audit_creation_method	'EQeq! by Chris Wilmer'
_symmetry_space_group_name_H-M	'P1'
_symmetry_Int_Tables_number	1
_symmetry_cell_setting	triclinic
loop_
_symmetry_equiv_pos_as_xyz
  x,y,z
_cell_length_a	35.7099
_cell_length_b	35.7099
_cell_length_c	16.69
_cell_angle_alpha	90
_cell_angle_beta	90
_cell_angle_gamma	120
loop_
_atom_site_label
_atom_site_type_symbol
_atom_site_fract_x
_atom_site_fract_y
_atom_site_fract_z
_atom_site_charge
Mof_O 	O 	0.88858	0.18786	0.2512	-0.408
Mof_O 	O 	0.89834	0.17784	0.121	-0.402
Mof_C 	C 	0.91097	0.18847	0.1927	0.363
Mof_C 	C 	0.95765	0.20175	0.2108	-0.127
Mof_C 	C 	0.98516	0.2047	0.1493	0.074
Mof_H 	H 	0.9749	0.1977	0.0971	0.025
Mof_C 	C 	0.02872	0.2183	0.1667	-0.157
Mof_H 	H 	0.047	0.2185	0.1267	0.102
Mof_C 	C 	0.04415	0.23121	0.2431	0.132
Mof_C 	C 	0.01676	0.2292	0.3012	-0.168
Mof_H 	H 	0.0275	0.2382	0.3527	0.095
Mof_C 	C 	0.97325	0.21412	0.2866	0.082
Mof_H 	H 	0.955	0.2125	0.3279	0.021
Mof_C 	C 	0.09145	0.2505	0.2597	-0.074
Mof_C 	C 	0.11186	0.2907	0.2961	-0.04
Mof_H 	H 	0.0963	0.3047	0.3057	0.047
Mof_C 	C 	0.0865	0.1473	0.3434	-0.014
Mof_C 	C 	0.0406	0.1173	0.203	-0.001
Mof_O 	O 	0.55525	0.52119	0.58453	-0.408
Mof_O 	O 	0.56501	0.51117	0.45433	-0.402
Mof_C 	C 	0.57764	0.5218	0.52603	0.363
Mof_C 	C 	0.62432	0.53508	0.54413	-0.127
Mof_C 	C 	0.65183	0.53803	0.48263	0.074
Mof_H 	H 	0.64157	0.53103	0.43043	0.025
Mof_C 	C 	0.69539	0.55163	0.50003	-0.157
Mof_H 	H 	0.71367	0.55183	0.46003	0.102
Mof_C 	C 	0.71082	0.56454	0.57643	0.132
Mof_C 	C 	0.68343	0.56253	0.63453	-0.168
Mof_H 	H 	0.69417	0.57153	0.68603	0.095
Mof_C 	C 	0.63992	0.54745	0.61993	0.082
Mof_H 	H 	0.62167	0.54583	0.66123	0.021
Mof_C 	C 	0.75812	0.58383	0.59303	-0.074
Mof_C 	C 	0.77853	0.62403	0.62943	-0.04
Mof_H 	H 	0.76297	0.63803	0.63903	0.047
Mof_C 	C 	0.75317	0.48063	0.67673	-0.014
Mof_C 	C 	0.70727	0.45063	0.53633	-0.001
Mof_O 	O 	0.22191	0.85453	0.91787	-0.408
Mof_O 	O 	0.23167	0.84451	0.78767	-0.402
Mof_C 	C 	0.2443	0.85514	0.85937	0.363
Mof_C 	C 	0.29098	0.86842	0.87747	-0.127
Mof_C 	C 	0.31849	0.87137	0.81597	0.074
Mof_H 	H 	0.30823	0.86437	0.76377	0.025
Mof_C 	C 	0.36205	0.88497	0.83337	-0.157
Mof_H 	H 	0.38033	0.88517	0.79337	0.102
Mof_C 	C 	0.37748	0.89788	0.90977	0.132
Mof_C 	C 	0.35009	0.89587	0.96787	-0.168
Mof_H 	H 	0.36083	0.90487	0.01937	0.095
Mof_C 	C 	0.30658	0.88079	0.95327	0.082
Mof_H 	H 	0.28833	0.87917	0.99457	0.021
Mof_C 	C 	0.42478	0.91717	0.92637	-0.074
Mof_C 	C 	0.44519	0.95737	0.96277	-0.04
Mof_H 	H 	0.42963	0.97137	0.97237	0.047
Mof_C 	C 	0.41983	0.81397	0.01007	-0.014
Mof_C 	C 	0.37393	0.78397	0.86967	-0.002
Mof_O 	O 	0.81214	0.70072	0.2512	-0.409
Mof_O 	O 	0.82216	0.7205	0.121	-0.403
Mof_C 	C 	0.81153	0.7225	0.1927	0.362
Mof_C 	C 	0.79825	0.7559	0.2108	-0.128
Mof_C 	C 	0.7953	0.78046	0.1493	0.073
Mof_H 	H 	0.8023	0.7772	0.0971	0.024
Mof_C 	C 	0.7817	0.81042	0.1667	-0.158
Mof_H 	H 	0.7815	0.8285	0.1267	0.101
Mof_C 	C 	0.76879	0.81294	0.2431	0.131
Mof_C 	C 	0.7708	0.78756	0.3012	-0.169
Mof_H 	H 	0.7618	0.7893	0.3527	0.094
Mof_C 	C 	0.78588	0.75913	0.2866	0.081
Mof_H 	H 	0.7875	0.7425	0.3279	0.02
Mof_C 	C 	0.7495	0.84095	0.2597	-0.075
Mof_C 	C 	0.7093	0.82116	0.2961	-0.041
Mof_H 	H 	0.6953	0.7916	0.3057	0.046
Mof_C 	C 	0.8527	0.9392	0.3434	-0.015
Mof_C 	C 	0.8827	0.9233	0.203	-0.002
Mof_O 	O 	0.47881	0.03405	0.58453	-0.409
Mof_O 	O 	0.48883	0.05383	0.45433	-0.403
Mof_C 	C 	0.4782	0.05583	0.52603	0.362
Mof_C 	C 	0.46492	0.08923	0.54413	-0.128
Mof_C 	C 	0.46197	0.11379	0.48263	0.073
Mof_H 	H 	0.46897	0.11053	0.43043	0.024
Mof_C 	C 	0.44837	0.14375	0.50003	-0.158
Mof_H 	H 	0.44817	0.16183	0.46003	0.101
Mof_C 	C 	0.43546	0.14627	0.57643	0.131
Mof_C 	C 	0.43747	0.12089	0.63453	-0.169
Mof_H 	H 	0.42847	0.12263	0.68603	0.094
Mof_C 	C 	0.45255	0.09246	0.61993	0.081
Mof_H 	H 	0.45417	0.07583	0.66123	0.02
Mof_C 	C 	0.41617	0.17428	0.59303	-0.075
Mof_C 	C 	0.37597	0.15449	0.62943	-0.041
Mof_H 	H 	0.36197	0.12493	0.63903	0.046
Mof_C 	C 	0.51937	0.27253	0.67673	-0.015
Mof_C 	C 	0.54937	0.25663	0.53633	-0.002
Mof_O 	O 	0.14547	0.36739	0.91787	-0.409
Mof_O 	O 	0.15549	0.38717	0.78767	-0.403
Mof_C 	C 	0.14486	0.38917	0.85937	0.362
Mof_C 	C 	0.13158	0.42257	0.87747	-0.128
Mof_C 	C 	0.12863	0.44713	0.81597	0.073
Mof_H 	H 	0.13563	0.44387	0.76377	0.024
Mof_C 	C 	0.11503	0.47709	0.83337	-0.158
Mof_H 	H 	0.11483	0.49517	0.79337	0.101
Mof_C 	C 	0.10212	0.47961	0.90977	0.131
Mof_C 	C 	0.10413	0.45423	0.96787	-0.169
Mof_H 	H 	0.09513	0.45597	0.01937	0.094
Mof_C 	C 	0.11921	0.4258	0.95327	0.081
Mof_H 	H 	0.12083	0.40917	0.99457	0.02
Mof_C 	C 	0.08283	0.50762	0.92637	-0.075
Mof_C 	C 	0.04263	0.48783	0.96277	-0.041
Mof_H 	H 	0.02863	0.45827	0.97237	0.046
Mof_C 	C 	0.18603	0.60587	0.01007	-0.015
Mof_C 	C 	0.21603	0.58997	0.86967	-0.002
Mof_O 	O 	0.29928	0.11142	0.2512	-0.409
Mof_O 	O 	0.2795	0.10166	0.121	-0.403
Mof_C 	C 	0.2775	0.08903	0.1927	0.362
Mof_C 	C 	0.2441	0.04235	0.2108	-0.128
Mof_C 	C 	0.21954	0.01484	0.1493	0.073
Mof_H 	H 	0.2228	0.0251	0.0971	0.024
Mof_C 	C 	0.18958	0.97128	0.1667	-0.157
Mof_H 	H 	0.1715	0.953	0.1267	0.101
Mof_C 	C 	0.18706	0.95585	0.2431	0.131
Mof_C 	C 	0.21244	0.98324	0.3012	-0.169
Mof_H 	H 	0.2107	0.9725	0.3527	0.094
Mof_C 	C 	0.24087	0.02675	0.2866	0.081
Mof_H 	H 	0.2575	0.045	0.3279	0.02
Mof_C 	C 	0.15905	0.90855	0.2597	-0.075
Mof_C 	C 	0.17884	0.88814	0.2961	-0.041
Mof_H 	H 	0.2084	0.9037	0.3057	0.046
Mof_C 	C 	0.0608	0.9135	0.3434	-0.015
Mof_C 	C 	0.0767	0.9594	0.203	-0.002
Mof_O 	O 	0.96595	0.44475	0.58453	-0.409
Mof_O 	O 	0.94617	0.43499	0.45433	-0.403
Mof_C 	C 	0.94417	0.42236	0.52603	0.362
Mof_C 	C 	0.91077	0.37568	0.54413	-0.128
Mof_C 	C 	0.88621	0.34817	0.48263	0.073
Mof_H 	H 	0.88947	0.35843	0.43043	0.024
Mof_C 	C 	0.85625	0.30461	0.50003	-0.158
Mof_H 	H 	0.83817	0.28633	0.46003	0.101
Mof_C 	C 	0.85373	0.28918	0.57643	0.131
Mof_C 	C 	0.87911	0.31657	0.63453	-0.169
Mof_H 	H 	0.87737	0.30583	0.68603	0.094
Mof_C 	C 	0.90754	0.36008	0.61993	0.081
Mof_H 	H 	0.92417	0.37833	0.66123	0.02
Mof_C 	C 	0.82572	0.24188	0.59303	-0.075
Mof_C 	C 	0.84551	0.22147	0.62943	-0.041
Mof_H 	H 	0.87507	0.23703	0.63903	0.046
Mof_C 	C 	0.72747	0.24683	0.67673	-0.015
Mof_C 	C 	0.74337	0.29273	0.53633	-0.002
Mof_O 	O 	0.63261	0.77809	0.91787	-0.409
Mof_O 	O 	0.61283	0.76833	0.78767	-0.403
Mof_C 	C 	0.61083	0.7557	0.85937	0.362
Mof_C 	C 	0.57743	0.70902	0.87747	-0.128
Mof_C 	C 	0.55287	0.68151	0.81597	0.073
Mof_H 	H 	0.55613	0.69177	0.76377	0.024
Mof_C 	C 	0.52291	0.63795	0.83337	-0.158
Mof_H 	H 	0.50483	0.61967	0.79337	0.101
Mof_C 	C 	0.52039	0.62252	0.90977	0.131
Mof_C 	C 	0.54577	0.64991	0.96787	-0.169
Mof_H 	H 	0.54403	0.63917	0.01937	0.094
Mof_C 	C 	0.5742	0.69342	0.95327	0.081
Mof_H 	H 	0.59083	0.71167	0.99457	0.02
Mof_C 	C 	0.49238	0.57522	0.92637	-0.075
Mof_C 	C 	0.51217	0.55481	0.96277	-0.041
Mof_H 	H 	0.54173	0.57037	0.97237	0.046
Mof_C 	C 	0.39413	0.58017	0.01007	-0.015
Mof_C 	C 	0.41003	0.62607	0.86967	-0.002
Mof_O 	O 	0.18786	0.88858	0.7488	-0.409
Mof_O 	O 	0.17784	0.89834	0.879	-0.403
Mof_C 	C 	0.18847	0.91097	0.8073	0.362
Mof_C 	C 	0.20175	0.95765	0.7892	-0.128
Mof_C 	C 	0.2047	0.98516	0.8507	0.073
Mof_H 	H 	0.1977	0.9749	0.9029	0.024
Mof_C 	C 	0.2183	0.02872	0.8333	-0.158
Mof_H 	H 	0.2185	0.047	0.8733	0.101
Mof_C 	C 	0.23121	0.04415	0.7569	0.131
Mof_C 	C 	0.2292	0.01676	0.6988	-0.169
Mof_H 	H 	0.2382	0.0275	0.6473	0.094
Mof_C 	C 	0.21412	0.97325	0.7134	0.081
Mof_H 	H 	0.2125	0.955	0.6721	0.02
Mof_C 	C 	0.2505	0.09145	0.7403	-0.075
Mof_C 	C 	0.2907	0.11186	0.7039	-0.041
Mof_H 	H 	0.3047	0.0963	0.6943	0.046
Mof_C 	C 	0.1473	0.0865	0.6566	-0.015
Mof_C 	C 	0.1173	0.0406	0.797	-0.002
Mof_O 	O 	0.85453	0.22191	0.08213	-0.409
Mof_O 	O 	0.84451	0.23167	0.21233	-0.403
Mof_C 	C 	0.85514	0.2443	0.14063	0.362
Mof_C 	C 	0.86842	0.29098	0.12253	-0.128
Mof_C 	C 	0.87137	0.31849	0.18403	0.073
Mof_H 	H 	0.86437	0.30823	0.23623	0.024
Mof_C 	C 	0.88497	0.36205	0.16663	-0.158
Mof_H 	H 	0.88517	0.38033	0.20663	0.101
Mof_C 	C 	0.89788	0.37748	0.09023	0.131
Mof_C 	C 	0.89587	0.35009	0.03213	-0.169
Mof_H 	H 	0.90487	0.36083	0.98063	0.094
Mof_C 	C 	0.88079	0.30658	0.04673	0.081
Mof_H 	H 	0.87917	0.28833	0.00543	0.02
Mof_C 	C 	0.91717	0.42478	0.07363	-0.075
Mof_C 	C 	0.95737	0.44519	0.03723	-0.041
Mof_H 	H 	0.97137	0.42963	0.02763	0.046
Mof_C 	C 	0.81397	0.41983	0.98993	-0.015
Mof_C 	C 	0.78397	0.37393	0.13033	-0.002
Mof_O 	O 	0.52119	0.55525	0.41547	-0.409
Mof_O 	O 	0.51117	0.56501	0.54567	-0.403
Mof_C 	C 	0.5218	0.57764	0.47397	0.362
Mof_C 	C 	0.53508	0.62432	0.45587	-0.128
Mof_C 	C 	0.53803	0.65183	0.51737	0.073
Mof_H 	H 	0.53103	0.64157	0.56957	0.024
Mof_C 	C 	0.55163	0.69539	0.49997	-0.158
Mof_H 	H 	0.55183	0.71367	0.53997	0.101
Mof_C 	C 	0.56454	0.71082	0.42357	0.131
Mof_C 	C 	0.56253	0.68343	0.36547	-0.169
Mof_H 	H 	0.57153	0.69417	0.31397	0.094
Mof_C 	C 	0.54745	0.63992	0.38007	0.081
Mof_H 	H 	0.54583	0.62167	0.33877	0.02
Mof_C 	C 	0.58383	0.75812	0.40697	-0.075
Mof_C 	C 	0.62403	0.77853	0.37057	-0.041
Mof_H 	H 	0.63803	0.76297	0.36097	0.046
Mof_C 	C 	0.48063	0.75317	0.32327	-0.015
Mof_C 	C 	0.45063	0.70727	0.46367	-0.002
Mof_O 	O 	0.70072	0.81214	0.7488	-0.409
Mof_O 	O 	0.7205	0.82216	0.879	-0.403
Mof_C 	C 	0.7225	0.81153	0.8073	0.362
Mof_C 	C 	0.7559	0.79825	0.7892	-0.128
Mof_C 	C 	0.78046	0.7953	0.8507	0.073
Mof_H 	H 	0.7772	0.8023	0.9029	0.024
Mof_C 	C 	0.81042	0.7817	0.8333	-0.158
Mof_H 	H 	0.8285	0.7815	0.8733	0.101
Mof_C 	C 	0.81294	0.76879	0.7569	0.131
Mof_C 	C 	0.78756	0.7708	0.6988	-0.169
Mof_H 	H 	0.7893	0.7618	0.6473	0.094
Mof_C 	C 	0.75913	0.78588	0.7134	0.081
Mof_H 	H 	0.7425	0.7875	0.6721	0.02
Mof_C 	C 	0.84095	0.7495	0.7403	-0.075
Mof_C 	C 	0.82116	0.7093	0.7039	-0.041
Mof_H 	H 	0.7916	0.6953	0.6943	0.046
Mof_C 	C 	0.9392	0.8527	0.6566	-0.015
Mof_C 	C 	0.9233	0.8827	0.797	-0.002
Mof_O 	O 	0.36739	0.14547	0.08213	-0.409
Mof_O 	O 	0.38717	0.15549	0.21233	-0.403
Mof_C 	C 	0.38917	0.14486	0.14063	0.362
Mof_C 	C 	0.42257	0.13158	0.12253	-0.128
Mof_C 	C 	0.44713	0.12863	0.18403	0.073
Mof_H 	H 	0.44387	0.13563	0.23623	0.024
Mof_C 	C 	0.47709	0.11503	0.16663	-0.158
Mof_H 	H 	0.49517	0.11483	0.20663	0.101
Mof_C 	C 	0.47961	0.10212	0.09023	0.131
Mof_C 	C 	0.45423	0.10413	0.03213	-0.169
Mof_H 	H 	0.45597	0.09513	0.98063	0.094
Mof_C 	C 	0.4258	0.11921	0.04673	0.081
Mof_H 	H 	0.40917	0.12083	0.00543	0.02
Mof_C 	C 	0.50762	0.08283	0.07363	-0.075
Mof_C 	C 	0.48783	0.04263	0.03723	-0.041
Mof_H 	H 	0.45827	0.02863	0.02763	0.046
Mof_C 	C 	0.60587	0.18603	0.98993	-0.015
Mof_C 	C 	0.58997	0.21603	0.13033	-0.002
Mof_O 	O 	0.03405	0.47881	0.41547	-0.409
Mof_O 	O 	0.05383	0.48883	0.54567	-0.403
Mof_C 	C 	0.05583	0.4782	0.47397	0.362
Mof_C 	C 	0.08923	0.46492	0.45587	-0.128
Mof_C 	C 	0.11379	0.46197	0.51737	0.073
Mof_H 	H 	0.11053	0.46897	0.56957	0.024
Mof_C 	C 	0.14375	0.44837	0.49997	-0.158
Mof_H 	H 	0.16183	0.44817	0.53997	0.101
Mof_C 	C 	0.14627	0.43546	0.42357	0.131
Mof_C 	C 	0.12089	0.43747	0.36547	-0.169
Mof_H 	H 	0.12263	0.42847	0.31397	0.094
Mof_C 	C 	0.09246	0.45255	0.38007	0.081
Mof_H 	H 	0.07583	0.45417	0.33877	0.02
Mof_C 	C 	0.17428	0.41617	0.40697	-0.075
Mof_C 	C 	0.15449	0.37597	0.37057	-0.041
Mof_H 	H 	0.12493	0.36197	0.36097	0.046
Mof_C 	C 	0.27253	0.51937	0.32327	-0.015
Mof_C 	C 	0.25663	0.54937	0.46367	-0.002
Mof_O 	O 	0.11142	0.29928	0.7488	-0.409
Mof_O 	O 	0.10166	0.2795	0.879	-0.403
Mof_C 	C 	0.08903	0.2775	0.8073	0.362
Mof_C 	C 	0.04235	0.2441	0.7892	-0.128
Mof_C 	C 	0.01484	0.21954	0.8507	0.073
Mof_H 	H 	0.0251	0.2228	0.9029	0.024
Mof_C 	C 	0.97128	0.18958	0.8333	-0.157
Mof_H 	H 	0.953	0.1715	0.8733	0.101
Mof_C 	C 	0.95585	0.18706	0.7569	0.131
Mof_C 	C 	0.98324	0.21244	0.6988	-0.169
Mof_H 	H 	0.9725	0.2107	0.6473	0.094
Mof_C 	C 	0.02675	0.24087	0.7134	0.081
Mof_H 	H 	0.045	0.2575	0.6721	0.02
Mof_C 	C 	0.90855	0.15905	0.7403	-0.075
Mof_C 	C 	0.88814	0.17884	0.7039	-0.041
Mof_H 	H 	0.9037	0.2084	0.6943	0.046
Mof_C 	C 	0.9135	0.0608	0.6566	-0.015
Mof_C 	C 	0.9594	0.0767	0.797	-0.002
Mof_O 	O 	0.77809	0.63261	0.08213	-0.409
Mof_O 	O 	0.76833	0.61283	0.21233	-0.403
Mof_C 	C 	0.7557	0.61083	0.14063	0.362
Mof_C 	C 	0.70902	0.57743	0.12253	-0.128
Mof_C 	C 	0.68151	0.55287	0.18403	0.073
Mof_H 	H 	0.69177	0.55613	0.23623	0.024
Mof_C 	C 	0.63795	0.52291	0.16663	-0.158
Mof_H 	H 	0.61967	0.50483	0.20663	0.101
Mof_C 	C 	0.62252	0.52039	0.09023	0.131
Mof_C 	C 	0.64991	0.54577	0.03213	-0.169
Mof_H 	H 	0.63917	0.54403	0.98063	0.094
Mof_C 	C 	0.69342	0.5742	0.04673	0.081
Mof_H 	H 	0.71167	0.59083	0.00543	0.02
Mof_C 	C 	0.57522	0.49238	0.07363	-0.075
Mof_C 	C 	0.55481	0.51217	0.03723	-0.041
Mof_H 	H 	0.57037	0.54173	0.02763	0.046
Mof_C 	C 	0.58017	0.39413	0.98993	-0.015
Mof_C 	C 	0.62607	0.41003	0.13033	-0.002
Mof_O 	O 	0.44475	0.96595	0.41547	-0.409
Mof_O 	O 	0.43499	0.94617	0.54567	-0.403
Mof_C 	C 	0.42236	0.94417	0.47397	0.362
Mof_C 	C 	0.37568	0.91077	0.45587	-0.128
Mof_C 	C 	0.34817	0.88621	0.51737	0.073
Mof_H 	H 	0.35843	0.88947	0.56957	0.024
Mof_C 	C 	0.30461	0.85625	0.49997	-0.158
Mof_H 	H 	0.28633	0.83817	0.53997	0.101
Mof_C 	C 	0.28918	0.85373	0.42357	0.131
Mof_C 	C 	0.31657	0.87911	0.36547	-0.169
Mof_H 	H 	0.30583	0.87737	0.31397	0.094
Mof_C 	C 	0.36008	0.90754	0.38007	0.081
Mof_H 	H 	0.37833	0.92417	0.33877	0.02
Mof_C 	C 	0.24188	0.82572	0.40697	-0.075
Mof_C 	C 	0.22147	0.84551	0.37057	-0.041
Mof_H 	H 	0.23703	0.87507	0.36097	0.046
Mof_C 	C 	0.24683	0.72747	0.32327	-0.015
Mof_C 	C 	0.29273	0.74337	0.46367	-0.002
Mof_O 	O 	0.11142	0.81214	0.7488	-0.409
Mof_O 	O 	0.10166	0.82216	0.879	-0.403
Mof_C 	C 	0.08903	0.81153	0.8073	0.362
Mof_C 	C 	0.04235	0.79825	0.7892	-0.128
Mof_C 	C 	0.01484	0.7953	0.8507	0.073
Mof_H 	H 	0.0251	0.8023	0.9029	0.024
Mof_C 	C 	0.97128	0.7817	0.8333	-0.158
Mof_H 	H 	0.953	0.7815	0.8733	0.101
Mof_C 	C 	0.95585	0.76879	0.7569	0.131
Mof_C 	C 	0.98324	0.7708	0.6988	-0.169
Mof_H 	H 	0.9725	0.7618	0.6473	0.094
Mof_C 	C 	0.02675	0.78588	0.7134	0.081
Mof_H 	H 	0.045	0.7875	0.6721	0.02
Mof_C 	C 	0.90855	0.7495	0.7403	-0.075
Mof_C 	C 	0.88814	0.7093	0.7039	-0.041
Mof_H 	H 	0.9037	0.6953	0.6943	0.046
Mof_C 	C 	0.9135	0.8527	0.6566	-0.015
Mof_C 	C 	0.9594	0.8827	0.797	-0.002
Mof_O 	O 	0.77809	0.14547	0.08213	-0.409
Mof_O 	O 	0.76833	0.15549	0.21233	-0.403
Mof_C 	C 	0.7557	0.14486	0.14063	0.362
Mof_C 	C 	0.70902	0.13158	0.12253	-0.128
Mof_C 	C 	0.68151	0.12863	0.18403	0.073
Mof_H 	H 	0.69177	0.13563	0.23623	0.024
Mof_C 	C 	0.63795	0.11503	0.16663	-0.158
Mof_H 	H 	0.61967	0.11483	0.20663	0.101
Mof_C 	C 	0.62252	0.10212	0.09023	0.131
Mof_C 	C 	0.64991	0.10413	0.03213	-0.169
Mof_H 	H 	0.63917	0.09513	0.98063	0.094
Mof_C 	C 	0.69342	0.11921	0.04673	0.081
Mof_H 	H 	0.71167	0.12083	0.00543	0.02
Mof_C 	C 	0.57522	0.08283	0.07363	-0.075
Mof_C 	C 	0.55481	0.04263	0.03723	-0.041
Mof_H 	H 	0.57037	0.02863	0.02763	0.046
Mof_C 	C 	0.58017	0.18603	0.98993	-0.015
Mof_C 	C 	0.62607	0.21603	0.13033	-0.002
Mof_O 	O 	0.44475	0.47881	0.41547	-0.409
Mof_O 	O 	0.43499	0.48883	0.54567	-0.403
Mof_C 	C 	0.42236	0.4782	0.47397	0.362
Mof_C 	C 	0.37568	0.46492	0.45587	-0.128
Mof_C 	C 	0.34817	0.46197	0.51737	0.073
Mof_H 	H 	0.35843	0.46897	0.56957	0.024
Mof_C 	C 	0.30461	0.44837	0.49997	-0.158
Mof_H 	H 	0.28633	0.44817	0.53997	0.101
Mof_C 	C 	0.28918	0.43546	0.42357	0.131
Mof_C 	C 	0.31657	0.43747	0.36547	-0.169
Mof_H 	H 	0.30583	0.42847	0.31397	0.094
Mof_C 	C 	0.36008	0.45255	0.38007	0.081
Mof_H 	H 	0.37833	0.45417	0.33877	0.02
Mof_C 	C 	0.24188	0.41617	0.40697	-0.075
Mof_C 	C 	0.22147	0.37597	0.37057	-0.041
Mof_H 	H 	0.23703	0.36197	0.36097	0.046
Mof_C 	C 	0.24683	0.51937	0.32327	-0.015
Mof_C 	C 	0.29273	0.54937	0.46367	-0.002
Mof_O 	O 	0.18786	0.29928	0.7488	-0.409
Mof_O 	O 	0.17784	0.2795	0.879	-0.403
Mof_C 	C 	0.18847	0.2775	0.8073	0.362
Mof_C 	C 	0.20175	0.2441	0.7892	-0.128
Mof_C 	C 	0.2047	0.21954	0.8507	0.073
Mof_H 	H 	0.1977	0.2228	0.9029	0.024
Mof_C 	C 	0.2183	0.18958	0.8333	-0.158
Mof_H 	H 	0.2185	0.1715	0.8733	0.101
Mof_C 	C 	0.23121	0.18706	0.7569	0.131
Mof_C 	C 	0.2292	0.21244	0.6988	-0.169
Mof_H 	H 	0.2382	0.2107	0.6473	0.094
Mof_C 	C 	0.21412	0.24087	0.7134	0.081
Mof_H 	H 	0.2125	0.2575	0.6721	0.02
Mof_C 	C 	0.2505	0.15905	0.7403	-0.075
Mof_C 	C 	0.2907	0.17884	0.7039	-0.041
Mof_H 	H 	0.3047	0.2084	0.6943	0.046
Mof_C 	C 	0.1473	0.0608	0.6566	-0.015
Mof_C 	C 	0.1173	0.0767	0.797	-0.002
Mof_O 	O 	0.85453	0.63261	0.08213	-0.409
Mof_O 	O 	0.84451	0.61283	0.21233	-0.403
Mof_C 	C 	0.85514	0.61083	0.14063	0.362
Mof_C 	C 	0.86842	0.57743	0.12253	-0.128
Mof_C 	C 	0.87137	0.55287	0.18403	0.073
Mof_H 	H 	0.86437	0.55613	0.23623	0.024
Mof_C 	C 	0.88497	0.52291	0.16663	-0.158
Mof_H 	H 	0.88517	0.50483	0.20663	0.101
Mof_C 	C 	0.89788	0.52039	0.09023	0.131
Mof_C 	C 	0.89587	0.54577	0.03213	-0.169
Mof_H 	H 	0.90487	0.54403	0.98063	0.094
Mof_C 	C 	0.88079	0.5742	0.04673	0.081
Mof_H 	H 	0.87917	0.59083	0.00543	0.02
Mof_C 	C 	0.91717	0.49238	0.07363	-0.075
Mof_C 	C 	0.95737	0.51217	0.03723	-0.041
Mof_H 	H 	0.97137	0.54173	0.02763	0.046
Mof_C 	C 	0.81397	0.39413	0.98993	-0.015
Mof_C 	C 	0.78397	0.41003	0.13033	-0.002
Mof_O 	O 	0.52119	0.96595	0.41547	-0.409
Mof_O 	O 	0.51117	0.94617	0.54567	-0.403
Mof_C 	C 	0.5218	0.94417	0.47397	0.362
Mof_C 	C 	0.53508	0.91077	0.45587	-0.128
Mof_C 	C 	0.53803	0.88621	0.51737	0.073
Mof_H 	H 	0.53103	0.88947	0.56957	0.024
Mof_C 	C 	0.55163	0.85625	0.49997	-0.158
Mof_H 	H 	0.55183	0.83817	0.53997	0.101
Mof_C 	C 	0.56454	0.85373	0.42357	0.131
Mof_C 	C 	0.56253	0.87911	0.36547	-0.169
Mof_H 	H 	0.57153	0.87737	0.31397	0.094
Mof_C 	C 	0.54745	0.90754	0.38007	0.081
Mof_H 	H 	0.54583	0.92417	0.33877	0.02
Mof_C 	C 	0.58383	0.82572	0.40697	-0.075
Mof_C 	C 	0.62403	0.84551	0.37057	-0.041
Mof_H 	H 	0.63803	0.87507	0.36097	0.046
Mof_C 	C 	0.48063	0.72747	0.32327	-0.015
Mof_C 	C 	0.45063	0.74337	0.46367	-0.002
Mof_O 	O 	0.70072	0.88858	0.7488	-0.409
Mof_O 	O 	0.7205	0.89834	0.879	-0.403
Mof_C 	C 	0.7225	0.91097	0.8073	0.362
Mof_C 	C 	0.7559	0.95765	0.7892	-0.128
Mof_C 	C 	0.78046	0.98516	0.8507	0.073
Mof_H 	H 	0.7772	0.9749	0.9029	0.024
Mof_C 	C 	0.81042	0.02872	0.8333	-0.157
Mof_H 	H 	0.8285	0.047	0.8733	0.101
Mof_C 	C 	0.81294	0.04415	0.7569	0.131
Mof_C 	C 	0.78756	0.01676	0.6988	-0.169
Mof_H 	H 	0.7893	0.0275	0.6473	0.094
Mof_C 	C 	0.75913	0.97325	0.7134	0.081
Mof_H 	H 	0.7425	0.955	0.6721	0.02
Mof_C 	C 	0.84095	0.09145	0.7403	-0.075
Mof_C 	C 	0.82116	0.11186	0.7039	-0.041
Mof_H 	H 	0.7916	0.0963	0.6943	0.046
Mof_C 	C 	0.9392	0.0865	0.6566	-0.015
Mof_C 	C 	0.9233	0.0406	0.797	-0.002
Mof_O 	O 	0.36739	0.22191	0.08213	-0.409
Mof_O 	O 	0.38717	0.23167	0.21233	-0.403
Mof_C 	C 	0.38917	0.2443	0.14063	0.362
Mof_C 	C 	0.42257	0.29098	0.12253	-0.128
Mof_C 	C 	0.44713	0.31849	0.18403	0.073
Mof_H 	H 	0.44387	0.30823	0.23623	0.024
Mof_C 	C 	0.47709	0.36205	0.16663	-0.158
Mof_H 	H 	0.49517	0.38033	0.20663	0.101
Mof_C 	C 	0.47961	0.37748	0.09023	0.131
Mof_C 	C 	0.45423	0.35009	0.03213	-0.169
Mof_H 	H 	0.45597	0.36083	0.98063	0.094
Mof_C 	C 	0.4258	0.30658	0.04673	0.081
Mof_H 	H 	0.40917	0.28833	0.00543	0.02
Mof_C 	C 	0.50762	0.42478	0.07363	-0.075
Mof_C 	C 	0.48783	0.44519	0.03723	-0.041
Mof_H 	H 	0.45827	0.42963	0.02763	0.046
Mof_C 	C 	0.60587	0.41983	0.98993	-0.015
Mof_C 	C 	0.58997	0.37393	0.13033	-0.002
Mof_O 	O 	0.03405	0.55525	0.41547	-0.409
Mof_O 	O 	0.05383	0.56501	0.54567	-0.403
Mof_C 	C 	0.05583	0.57764	0.47397	0.362
Mof_C 	C 	0.08923	0.62432	0.45587	-0.128
Mof_C 	C 	0.11379	0.65183	0.51737	0.073
Mof_H 	H 	0.11053	0.64157	0.56957	0.024
Mof_C 	C 	0.14375	0.69539	0.49997	-0.158
Mof_H 	H 	0.16183	0.71367	0.53997	0.101
Mof_C 	C 	0.14627	0.71082	0.42357	0.131
Mof_C 	C 	0.12089	0.68343	0.36547	-0.169
Mof_H 	H 	0.12263	0.69417	0.31397	0.094
Mof_C 	C 	0.09246	0.63992	0.38007	0.081
Mof_H 	H 	0.07583	0.62167	0.33877	0.02
Mof_C 	C 	0.17428	0.75812	0.40697	-0.075
Mof_C 	C 	0.15449	0.77853	0.37057	-0.041
Mof_H 	H 	0.12493	0.76297	0.36097	0.046
Mof_C 	C 	0.27253	0.75317	0.32327	-0.015
Mof_C 	C 	0.25663	0.70727	0.46367	-0.002
Mof_O 	O 	0.81214	0.11142	0.2512	-0.409
Mof_O 	O 	0.82216	0.10166	0.121	-0.403
Mof_C 	C 	0.81153	0.08903	0.1927	0.362
Mof_C 	C 	0.79825	0.04235	0.2108	-0.128
Mof_C 	C 	0.7953	0.01484	0.1493	0.073
Mof_H 	H 	0.8023	0.0251	0.0971	0.024
Mof_C 	C 	0.7817	0.97128	0.1667	-0.158
Mof_H 	H 	0.7815	0.953	0.1267	0.101
Mof_C 	C 	0.76879	0.95585	0.2431	0.131
Mof_C 	C 	0.7708	0.98324	0.3012	-0.169
Mof_H 	H 	0.7618	0.9725	0.3527	0.094
Mof_C 	C 	0.78588	0.02675	0.2866	0.081
Mof_H 	H 	0.7875	0.045	0.3279	0.02
Mof_C 	C 	0.7495	0.90855	0.2597	-0.075
Mof_C 	C 	0.7093	0.88814	0.2961	-0.041
Mof_H 	H 	0.6953	0.9037	0.3057	0.046
Mof_C 	C 	0.8527	0.9135	0.3434	-0.015
Mof_C 	C 	0.8827	0.9594	0.203	-0.002
Mof_O 	O 	0.47881	0.44475	0.58453	-0.409
Mof_O 	O 	0.48883	0.43499	0.45433	-0.403
Mof_C 	C 	0.4782	0.42236	0.52603	0.362
Mof_C 	C 	0.46492	0.37568	0.54413	-0.128
Mof_C 	C 	0.46197	0.34817	0.48263	0.073
Mof_H 	H 	0.46897	0.35843	0.43043	0.024
Mof_C 	C 	0.44837	0.30461	0.50003	-0.158
Mof_H 	H 	0.44817	0.28633	0.46003	0.101
Mof_C 	C 	0.43546	0.28918	0.57643	0.131
Mof_C 	C 	0.43747	0.31657	0.63453	-0.169
Mof_H 	H 	0.42847	0.30583	0.68603	0.094
Mof_C 	C 	0.45255	0.36008	0.61993	0.081
Mof_H 	H 	0.45417	0.37833	0.66123	0.02
Mof_C 	C 	0.41617	0.24188	0.59303	-0.075
Mof_C 	C 	0.37597	0.22147	0.62943	-0.041
Mof_H 	H 	0.36197	0.23703	0.63903	0.046
Mof_C 	C 	0.51937	0.24683	0.67673	-0.015
Mof_C 	C 	0.54937	0.29273	0.53633	-0.002
Mof_O 	O 	0.14547	0.77809	0.91787	-0.409
Mof_O 	O 	0.15549	0.76833	0.78767	-0.403
Mof_C 	C 	0.14486	0.7557	0.85937	0.362
Mof_C 	C 	0.13158	0.70902	0.87747	-0.128
Mof_C 	C 	0.12863	0.68151	0.81597	0.073
Mof_H 	H 	0.13563	0.69177	0.76377	0.024
Mof_C 	C 	0.11503	0.63795	0.83337	-0.158
Mof_H 	H 	0.11483	0.61967	0.79337	0.101
Mof_C 	C 	0.10212	0.62252	0.90977	0.131
Mof_C 	C 	0.10413	0.64991	0.96787	-0.169
Mof_H 	H 	0.09513	0.63917	0.01937	0.094
Mof_C 	C 	0.11921	0.69342	0.95327	0.081
Mof_H 	H 	0.12083	0.71167	0.99457	0.02
Mof_C 	C 	0.08283	0.57522	0.92637	-0.075
Mof_C 	C 	0.04263	0.55481	0.96277	-0.041
Mof_H 	H 	0.02863	0.57037	0.97237	0.046
Mof_C 	C 	0.18603	0.58017	0.01007	-0.015
Mof_C 	C 	0.21603	0.62607	0.86967	-0.002
Mof_O 	O 	0.29928	0.18786	0.2512	-0.409
Mof_O 	O 	0.2795	0.17784	0.121	-0.403
Mof_C 	C 	0.2775	0.18847	0.1927	0.362
Mof_C 	C 	0.2441	0.20175	0.2108	-0.128
Mof_C 	C 	0.21954	0.2047	0.1493	0.073
Mof_H 	H 	0.2228	0.1977	0.0971	0.024
Mof_C 	C 	0.18958	0.2183	0.1667	-0.158
Mof_H 	H 	0.1715	0.2185	0.1267	0.101
Mof_C 	C 	0.18706	0.23121	0.2431	0.131
Mof_C 	C 	0.21244	0.2292	0.3012	-0.169
Mof_H 	H 	0.2107	0.2382	0.3527	0.094
Mof_C 	C 	0.24087	0.21412	0.2866	0.081
Mof_H 	H 	0.2575	0.2125	0.3279	0.02
Mof_C 	C 	0.15905	0.2505	0.2597	-0.075
Mof_C 	C 	0.17884	0.2907	0.2961	-0.041
Mof_H 	H 	0.2084	0.3047	0.3057	0.046
Mof_C 	C 	0.0608	0.1473	0.3434	-0.015
Mof_C 	C 	0.0767	0.1173	0.203	-0.002
Mof_O 	O 	0.96595	0.52119	0.58453	-0.409
Mof_O 	O 	0.94617	0.51117	0.45433	-0.403
Mof_C 	C 	0.94417	0.5218	0.52603	0.362
Mof_C 	C 	0.91077	0.53508	0.54413	-0.128
Mof_C 	C 	0.88621	0.53803	0.48263	0.073
Mof_H 	H 	0.88947	0.53103	0.43043	0.024
Mof_C 	C 	0.85625	0.55163	0.50003	-0.158
Mof_H 	H 	0.83817	0.55183	0.46003	0.101
Mof_C 	C 	0.85373	0.56454	0.57643	0.131
Mof_C 	C 	0.87911	0.56253	0.63453	-0.169
Mof_H 	H 	0.87737	0.57153	0.68603	0.094
Mof_C 	C 	0.90754	0.54745	0.61993	0.081
Mof_H 	H 	0.92417	0.54583	0.66123	0.02
Mof_C 	C 	0.82572	0.58383	0.59303	-0.075
Mof_C 	C 	0.84551	0.62403	0.62943	-0.041
Mof_H 	H 	0.87507	0.63803	0.63903	0.046
Mof_C 	C 	0.72747	0.48063	0.67673	-0.015
Mof_C 	C 	0.74337	0.45063	0.53633	-0.002
Mof_O 	O 	0.63261	0.85453	0.91787	-0.409
Mof_O 	O 	0.61283	0.84451	0.78767	-0.403
Mof_C 	C 	0.61083	0.85514	0.85937	0.362
Mof_C 	C 	0.57743	0.86842	0.87747	-0.128
Mof_C 	C 	0.55287	0.87137	0.81597	0.073
Mof_H 	H 	0.55613	0.86437	0.76377	0.024
Mof_C 	C 	0.52291	0.88497	0.83337	-0.158
Mof_H 	H 	0.50483	0.88517	0.79337	0.101
Mof_C 	C 	0.52039	0.89788	0.90977	0.131
Mof_C 	C 	0.54577	0.89587	0.96787	-0.169
Mof_H 	H 	0.54403	0.90487	0.01937	0.094
Mof_C 	C 	0.5742	0.88079	0.95327	0.081
Mof_H 	H 	0.59083	0.87917	0.99457	0.02
Mof_C 	C 	0.49238	0.91717	0.92637	-0.075
Mof_C 	C 	0.51217	0.95737	0.96277	-0.041
Mof_H 	H 	0.54173	0.97137	0.97237	0.046
Mof_C 	C 	0.39413	0.81397	0.01007	-0.015
Mof_C 	C 	0.41003	0.78397	0.86967	-0.002
Mof_O 	O 	0.88858	0.70072	0.2512	-0.409
Mof_O 	O 	0.89834	0.7205	0.121	-0.403
Mof_C 	C 	0.91097	0.7225	0.1927	0.362
Mof_C 	C 	0.95765	0.7559	0.2108	-0.128
Mof_C 	C 	0.98516	0.78046	0.1493	0.073
Mof_H 	H 	0.9749	0.7772	0.0971	0.024
Mof_C 	C 	0.02872	0.81042	0.1667	-0.157
Mof_H 	H 	0.047	0.8285	0.1267	0.101
Mof_C 	C 	0.04415	0.81294	0.2431	0.131
Mof_C 	C 	0.01676	0.78756	0.3012	-0.169
Mof_H 	H 	0.0275	0.7893	0.3527	0.094
Mof_C 	C 	0.97325	0.75913	0.2866	0.081
Mof_H 	H 	0.955	0.7425	0.3279	0.02
Mof_C 	C 	0.09145	0.84095	0.2597	-0.075
Mof_C 	C 	0.11186	0.82116	0.2961	-0.041
Mof_H 	H 	0.0963	0.7916	0.3057	0.046
Mof_C 	C 	0.0865	0.9392	0.3434	-0.015
Mof_C 	C 	0.0406	0.9233	0.203	-0.002
Mof_O 	O 	0.55525	0.03405	0.58453	-0.409
Mof_O 	O 	0.56501	0.05383	0.45433	-0.403
Mof_C 	C 	0.57764	0.05583	0.52603	0.362
Mof_C 	C 	0.62432	0.08923	0.54413	-0.128
Mof_C 	C 	0.65183	0.11379	0.48263	0.073
Mof_H 	H 	0.64157	0.11053	0.43043	0.024
Mof_C 	C 	0.69539	0.14375	0.50003	-0.158
Mof_H 	H 	0.71367	0.16183	0.46003	0.101
Mof_C 	C 	0.71082	0.14627	0.57643	0.131
Mof_C 	C 	0.68343	0.12089	0.63453	-0.169
Mof_H 	H 	0.69417	0.12263	0.68603	0.094
Mof_C 	C 	0.63992	0.09246	0.61993	0.081
Mof_H 	H 	0.62167	0.07583	0.66123	0.02
Mof_C 	C 	0.75812	0.17428	0.59303	-0.075
Mof_C 	C 	0.77853	0.15449	0.62943	-0.041
Mof_H 	H 	0.76297	0.12493	0.63903	0.046
Mof_C 	C 	0.75317	0.27253	0.67673	-0.015
Mof_C 	C 	0.70727	0.25663	0.53633	-0.002
Mof_O 	O 	0.22191	0.36739	0.91787	-0.409
Mof_O 	O 	0.23167	0.38717	0.78767	-0.403
Mof_C 	C 	0.2443	0.38917	0.85937	0.362
Mof_C 	C 	0.29098	0.42257	0.87747	-0.128
Mof_C 	C 	0.31849	0.44713	0.81597	0.073
Mof_H 	H 	0.30823	0.44387	0.76377	0.024
Mof_C 	C 	0.36205	0.47709	0.83337	-0.158
Mof_H 	H 	0.38033	0.49517	0.79337	0.101
Mof_C 	C 	0.37748	0.47961	0.90977	0.131
Mof_C 	C 	0.35009	0.45423	0.96787	-0.169
Mof_H 	H 	0.36083	0.45597	0.01937	0.094
Mof_C 	C 	0.30658	0.4258	0.95327	0.081
Mof_H 	H 	0.28833	0.40917	0.99457	0.02
Mof_C 	C 	0.42478	0.50762	0.92637	-0.075
Mof_C 	C 	0.44519	0.48783	0.96277	-0.041
Mof_H 	H 	0.42963	0.45827	0.97237	0.046
Mof_C 	C 	0.41983	0.60587	0.01007	-0.015
Mof_C 	C 	0.37393	0.58997	0.86967	-0.002
Mof_Cu	Cu	0.83905	0.16095	0.09155	0.902
Mof_Cu	Cu	0.50572	0.49428	0.42488	0.902
Mof_Cu	Cu	0.17238	0.82762	0.75822	0.902
Mof_Cu	Cu	0.83905	0.6781	0.09155	0.902
Mof_Cu	Cu	0.50572	0.01143	0.42488	0.902
Mof_Cu	Cu	0.17238	0.34477	0.75822	0.902
Mof_Cu	Cu	0.3219	0.16095	0.09155	0.902
Mof_Cu	Cu	0.98857	0.49428	0.42488	0.902
Mof_Cu	Cu	0.65523	0.82762	0.75822	0.902
Mof_Cu	Cu	0.16095	0.83905	0.90845	0.902
Mof_Cu	Cu	0.82762	0.17238	0.24178	0.902
Mof_Cu	Cu	0.49428	0.50572	0.57512	0.902
Mof_Cu	Cu	0.6781	0.83905	0.90845	0.902
Mof_Cu	Cu	0.34477	0.17238	0.24178	0.902
Mof_Cu	Cu	0.01143	0.50572	0.57512	0.902
Mof_Cu	Cu	0.16095	0.3219	0.90845	0.902
Mof_Cu	Cu	0.82762	0.65523	0.24178	0.902
Mof_Cu	Cu	0.49428	0.98857	0.57512	0.902
Mof_O 	O 	0.09477	0.18955	0.2067	-0.223
Mof_C 	C 	0.15545	0.3109	0.319	0.006
Mof_C 	C 	0.1147	0.2294	0.243	0.147
Mof_C 	C 	0.0763	0.1526	0.2582	0.101
Mof_O 	O 	0.76144	0.52288	0.54003	-0.223
Mof_C 	C 	0.82212	0.64423	0.65233	0.006
Mof_C 	C 	0.78137	0.56273	0.57633	0.147
Mof_C 	C 	0.74297	0.48593	0.59153	0.101
Mof_O 	O 	0.42811	0.85622	0.87337	-0.223
Mof_C 	C 	0.48878	0.97757	0.98567	0.006
Mof_C 	C 	0.44803	0.89607	0.90967	0.147
Mof_C 	C 	0.40963	0.81927	0.92487	0.101
Mof_O 	O 	0.81045	0.90523	0.2067	-0.223
Mof_C 	C 	0.6891	0.84455	0.319	0.006
Mof_C 	C 	0.7706	0.8853	0.243	0.147
Mof_C 	C 	0.8474	0.9237	0.2582	0.101
Mof_O 	O 	0.47712	0.23856	0.54003	-0.223
Mof_C 	C 	0.35577	0.17788	0.65233	0.006
Mof_C 	C 	0.43727	0.21863	0.57633	0.147
Mof_C 	C 	0.51407	0.25703	0.59153	0.101
Mof_O 	O 	0.14378	0.57189	0.87337	-0.223
Mof_C 	C 	0.02243	0.51122	0.98567	0.006
Mof_C 	C 	0.10393	0.55197	0.90967	0.147
Mof_C 	C 	0.18073	0.59037	0.92487	0.101
Mof_O 	O 	0.09477	0.90523	0.2067	-0.223
Mof_C 	C 	0.15545	0.84455	0.319	0.006
Mof_C 	C 	0.1147	0.8853	0.243	0.146
Mof_C 	C 	0.0763	0.9237	0.2582	0.101
Mof_O 	O 	0.76144	0.23856	0.54003	-0.223
Mof_C 	C 	0.82212	0.17788	0.65233	0.006
Mof_C 	C 	0.78137	0.21863	0.57633	0.146
Mof_C 	C 	0.74297	0.25703	0.59153	0.101
Mof_O 	O 	0.42811	0.57189	0.87337	-0.223
Mof_C 	C 	0.48878	0.51122	0.98567	0.006
Mof_C 	C 	0.44803	0.55197	0.90967	0.147
Mof_C 	C 	0.40963	0.59037	0.92487	0.101
Mof_O 	O 	0.18955	0.09477	0.7933	-0.223
Mof_C 	C 	0.3109	0.15545	0.681	0.006
Mof_C 	C 	0.2294	0.1147	0.757	0.147
Mof_C 	C 	0.1526	0.0763	0.7418	0.101
Mof_O 	O 	0.85622	0.42811	0.12663	-0.223
Mof_C 	C 	0.97757	0.48878	0.01433	0.006
Mof_C 	C 	0.89607	0.44803	0.09033	0.147
Mof_C 	C 	0.81927	0.40963	0.07513	0.101
Mof_O 	O 	0.52288	0.76144	0.45997	-0.223
Mof_C 	C 	0.64423	0.82212	0.34767	0.006
Mof_C 	C 	0.56273	0.78137	0.42367	0.147
Mof_C 	C 	0.48593	0.74297	0.40847	0.101
Mof_O 	O 	0.90522	0.81045	0.7933	-0.223
Mof_C 	C 	0.84455	0.6891	0.681	0.006
Mof_C 	C 	0.8853	0.7706	0.757	0.147
Mof_C 	C 	0.9237	0.8474	0.7418	0.101
Mof_O 	O 	0.57189	0.14378	0.12663	-0.223
Mof_C 	C 	0.51122	0.02243	0.01433	0.006
Mof_C 	C 	0.55197	0.10393	0.09033	0.147
Mof_C 	C 	0.59037	0.18073	0.07513	0.101
Mof_O 	O 	0.23856	0.47712	0.45997	-0.223
Mof_C 	C 	0.17788	0.35577	0.34767	0.006
Mof_C 	C 	0.21863	0.43727	0.42367	0.147
Mof_C 	C 	0.25703	0.51407	0.40847	0.101
Mof_O 	O 	0.90522	0.09477	0.7933	-0.223
Mof_C 	C 	0.84455	0.15545	0.681	0.006
Mof_C 	C 	0.8853	0.1147	0.757	0.147
Mof_C 	C 	0.9237	0.0763	0.7418	0.101
Mof_O 	O 	0.57189	0.42811	0.12663	-0.223
Mof_C 	C 	0.51122	0.48878	0.01433	0.006
Mof_C 	C 	0.55197	0.44803	0.09033	0.147
Mof_C 	C 	0.59037	0.40963	0.07513	0.101
Mof_O 	O 	0.23856	0.76144	0.45997	-0.223
Mof_C 	C 	0.17788	0.82212	0.34767	0.006
Mof_C 	C 	0.21863	0.78137	0.42367	0.146
Mof_C 	C 	0.25703	0.74297	0.40847	0.101
_end
