data_functionalizedCrystal
_audit_creation_method	'EQeq! by Chris Wilmer'
_symmetry_space_group_name_H-M	'P1'
_symmetry_Int_Tables_number	1
_symmetry_cell_setting	triclinic
loop_
_symmetry_equiv_pos_as_xyz
  x,y,z
_cell_length_a	9.149
_cell_length_b	11.202
_cell_length_c	14.628
_cell_angle_alpha	73.526
_cell_angle_beta	88.045
_cell_angle_gamma	71.284
loop_
_atom_site_label
_atom_site_type_symbol
_atom_site_fract_x
_atom_site_fract_y
_atom_site_fract_z
_atom_site_charge
Mof_Zn	Zn	0.8496	0.1832	0.98636	1.235
Mof_Zn	Zn	0.2906	0.2364	0.7399	1.18
Mof_Zn	Zn	0.5055	0.4873	0.15234	1.218
Mof_P 	P 	0.7501	0.4792	0.997	0.51
Mof_P 	P 	0.0658	0.0796	0.8364	0.471
Mof_H 	H 	0.9737	0.1228	0.7613	-0.057
Mof_P 	P 	0.5888	0.2275	0.8357	0.424
Mof_H 	H 	0.6478	0.1546	0.7666	-0.05
Mof_O 	O 	0.6593	0.5409	0.9056	-0.504
Mof_O 	O 	0.669	0.525	0.0769	-0.485
Mof_O 	O 	0.793	0.33	0.036	-0.274
Mof_O 	O 	0.0143	0.1678	0.9005	-0.482
Mof_O 	O 	0.1022	0.9333	0.8888	-0.458
Mof_O 	O 	0.1926	0.1062	0.7746	-0.486
Mof_O 	O 	0.6746	0.1599	0.9311	-0.458
Mof_O 	O 	0.431	0.2075	0.8483	-0.461
Mof_O 	O 	0.5776	0.3691	0.7929	-0.494
Mof_N 	N 	0.6384	0.8361	0.9635	-0.204
Mof_H 	H 	0.6223	0.8178	0.0295	0.143
Mof_N 	N 	0.1464	0.4265	0.7031	-0.294
Mof_N 	N 	0.582	0.3286	0.2711	-0.268
Mof_N 	N 	0.6566	0.0128	0.6099	-0.135
Mof_N 	N 	0.8333	0.8977	0.5321	-0.129
Mof_C 	C 	0.787	0.8026	0.9396	0.126
Mof_H 	H 	0.8665	0.7668	0.9872	-0.017
Mof_C 	C 	0.821	0.8207	0.847	-0.189
Mof_H 	H 	0.9236	0.7976	0.8313	0.104
Mof_C 	C 	0.521	0.8903	0.897	0.11
Mof_H 	H 	0.4195	0.9167	0.9151	-0.001
Mof_C 	C 	0.5495	0.9074	0.7995	-0.181
Mof_H 	H 	0.469	0.9402	0.7527	0.08
Mof_C 	C 	0.7042	0.8731	0.7759	0.104
Mof_C 	C 	0.167	0.517	0.6262	0.08
Mof_H 	H 	0.247	0.491	0.5878	-0.045
Mof_C 	C 	0.075	0.647	0.6011	-0.157
Mof_H 	H 	0.0977	0.7082	0.5496	0.088
Mof_C 	C 	0.03	0.466	0.7557	0.101
Mof_H 	H 	0.0189	0.4055	0.8118	-0.02
Mof_C 	C 	0.925	0.5899	0.7327	-0.173
Mof_H 	H 	0.8396	0.6098	0.7688	0.095
Mof_C 	C 	0.947	0.6876	0.6532	0.082
Mof_C 	C 	0.697	0.2229	0.2736	0.097
Mof_H 	H 	0.7494	0.2178	0.2185	-0.012
Mof_C 	C 	0.744	0.1199	0.3539	-0.147
Mof_H 	H 	0.8286	0.0477	0.352	0.091
Mof_C 	C 	0.504	0.331	0.3528	0.065
Mof_H 	H 	0.4199	0.4051	0.3526	-0.016
Mof_C 	C 	0.545	0.233	0.4308	-0.124
Mof_H 	H 	0.4876	0.2393	0.4841	0.054
Mof_C 	C 	0.672	0.1179	0.4377	0.051
Mof_C 	C 	0.7371	0.8976	0.6734	0.004
Mof_C 	C 	0.844	0.8267	0.6244	0.015
Mof_C 	C 	0.719	0.0087	0.5251	0.079
Mof_O 	O 	0.853	0.348	0.996	-0.287
Mof_Zn	Zn	0.1504	0.8168	0.01364	1.236
Mof_Zn	Zn	0.7094	0.7636	0.2601	1.181
Mof_Zn	Zn	0.4945	0.5127	0.84766	1.218
Mof_P 	P 	0.2499	0.5208	0.003	0.51
Mof_P 	P 	0.9342	0.9204	0.1636	0.471
Mof_H 	H 	0.0263	0.8772	0.2387	-0.057
Mof_P 	P 	0.4112	0.7725	0.1643	0.424
Mof_H 	H 	0.3522	0.8454	0.2334	-0.05
Mof_O 	O 	0.3407	0.4591	0.0944	-0.504
Mof_O 	O 	0.331	0.475	0.9231	-0.485
Mof_O 	O 	0.207	0.67	0.964	-0.274
Mof_O 	O 	0.9857	0.8322	0.0995	-0.482
Mof_O 	O 	0.8978	0.0667	0.1112	-0.458
Mof_O 	O 	0.8074	0.8938	0.2254	-0.486
Mof_O 	O 	0.3254	0.8401	0.0689	-0.458
Mof_O 	O 	0.569	0.7925	0.1517	-0.461
Mof_O 	O 	0.4224	0.6309	0.2071	-0.494
Mof_N 	N 	0.3616	0.1639	0.0365	-0.204
Mof_H 	H 	0.3777	0.1822	0.9705	0.143
Mof_N 	N 	0.8536	0.5735	0.2969	-0.294
Mof_N 	N 	0.418	0.6714	0.7289	-0.268
Mof_N 	N 	0.3434	0.9872	0.3901	-0.135
Mof_N 	N 	0.1667	0.1023	0.4679	-0.129
Mof_C 	C 	0.213	0.1974	0.0604	0.126
Mof_H 	H 	0.1335	0.2332	0.0128	-0.017
Mof_C 	C 	0.179	0.1793	0.153	-0.189
Mof_H 	H 	0.0764	0.2024	0.1687	0.104
Mof_C 	C 	0.479	0.1097	0.103	0.11
Mof_H 	H 	0.5805	0.0833	0.0849	-0.001
Mof_C 	C 	0.4505	0.0926	0.2005	-0.181
Mof_H 	H 	0.531	0.0598	0.2473	0.08
Mof_C 	C 	0.2958	0.1269	0.2241	0.104
Mof_C 	C 	0.833	0.483	0.3738	0.08
Mof_H 	H 	0.753	0.509	0.4122	-0.045
Mof_C 	C 	0.925	0.353	0.3989	-0.157
Mof_H 	H 	0.9023	0.2918	0.4504	0.088
Mof_C 	C 	0.97	0.534	0.2443	0.101
Mof_H 	H 	0.9811	0.5945	0.1882	-0.02
Mof_C 	C 	0.075	0.4101	0.2673	-0.173
Mof_H 	H 	0.1604	0.3902	0.2312	0.095
Mof_C 	C 	0.053	0.3124	0.3468	0.082
Mof_C 	C 	0.303	0.7771	0.7264	0.097
Mof_H 	H 	0.2506	0.7822	0.7815	-0.012
Mof_C 	C 	0.256	0.8801	0.6461	-0.147
Mof_H 	H 	0.1714	0.9523	0.648	0.091
Mof_C 	C 	0.496	0.669	0.6472	0.065
Mof_H 	H 	0.5801	0.5949	0.6474	-0.016
Mof_C 	C 	0.455	0.767	0.5692	-0.124
Mof_H 	H 	0.5124	0.7607	0.5159	0.054
Mof_C 	C 	0.328	0.8821	0.5623	0.051
Mof_C 	C 	0.2629	0.1024	0.3266	0.004
Mof_C 	C 	0.156	0.1733	0.3756	0.015
Mof_C 	C 	0.281	0.9913	0.4749	0.079
Mof_O 	O 	0.147	0.652	0.004	-0.287
_end
