data_functionalizedCrystal
_audit_creation_method	'EQeq! by Chris Wilmer'
_symmetry_space_group_name_H-M	'P1'
_symmetry_Int_Tables_number	1
_symmetry_cell_setting	triclinic
loop_
_symmetry_equiv_pos_as_xyz
  x,y,z
_cell_length_a	21.014
_cell_length_b	13.1528
_cell_length_c	8.5908
_cell_angle_alpha	90
_cell_angle_beta	100.363
_cell_angle_gamma	90
loop_
_atom_site_label
_atom_site_type_symbol
_atom_site_fract_x
_atom_site_fract_y
_atom_site_fract_z
_atom_site_charge
Mof_Cu	Cu	0.6977	0.29522	0.92604	0.913
Mof_O 	O 	0.74746	0.70718	0.2516	-0.437
Mof_C 	C 	0.80519	0.73502	0.2612	0.449
Mof_O 	O 	0.8385	0.77943	0.3788	-0.436
Mof_C 	C 	0.83739	0.71228	0.1204	-0.463
Mof_H 	H 	0.8849	0.7101	0.156	0.166
Mof_H 	H 	0.8276	0.7678	0.042	0.181
Mof_O 	O 	0.74482	0.42005	0.0093	-0.434
Mof_C 	C 	0.81459	0.611	0.0413	0.241
Mof_H 	H 	0.7676	0.6148	0.9996	-0.019
Mof_H 	H 	0.837	0.5993	0.9509	-0.039
Mof_O 	O 	0.83446	0.34286	0.1336	-0.436
Mof_C 	C 	0.82806	0.5217	0.1566	-0.458
Mof_H 	H 	0.8755	0.5144	0.1889	0.167
Mof_H 	H 	0.8102	0.5383	0.2526	0.179
Mof_C 	C 	0.80049	0.4205	0.0932	0.453
Mof_N 	N 	0.61742	0.3751	0.7803	-0.086
Mof_C 	C 	0.57354	0.3213	0.6775	0.034
Mof_H 	H 	0.5705	0.2498	0.6897	0.023
Mof_C 	C 	0.52648	0.3683	0.5696	-0.094
Mof_H 	H 	0.4934	0.3277	0.5101	0.061
Mof_C 	C 	0.5684	0.5303	0.678	-0.02
Mof_H 	H 	0.5653	0.6023	0.6819	0.026
Mof_C 	C 	0.6155	0.4783	0.7818	0.045
Mof_H 	H 	0.6466	0.5151	0.8543	0.005
Mof_C 	C 	0.5259	0.47398	0.5679	0.005
Mof_C 	C 	0.5252	0.4724	0.5439	0.024
Mof_C 	C 	0.5802	0.52	0.6258	-0.059
Mof_H 	H 	0.587	0.5897	0.6051	0.055
Mof_C 	C 	0.625	0.4706	0.7351	-0.025
Mof_H 	H 	0.6594	0.5098	0.7923	0.037
Mof_N 	N 	0.62402	0.3698	0.7679	-0.068
Mof_Cu	Cu	0.1977	0.79522	0.92604	0.913
Mof_O 	O 	0.24746	0.20718	0.2516	-0.436
Mof_C 	C 	0.30519	0.23502	0.2612	0.45
Mof_O 	O 	0.3385	0.27943	0.3788	-0.435
Mof_C 	C 	0.33739	0.21228	0.1204	-0.462
Mof_H 	H 	0.3849	0.2101	0.156	0.167
Mof_H 	H 	0.3276	0.2678	0.042	0.182
Mof_O 	O 	0.24482	0.92005	0.0093	-0.432
Mof_C 	C 	0.31459	0.111	0.0413	0.241
Mof_H 	H 	0.2676	0.1148	0.9996	-0.017
Mof_H 	H 	0.337	0.0993	0.9509	-0.038
Mof_O 	O 	0.33446	0.84286	0.1336	-0.435
Mof_C 	C 	0.32806	0.0217	0.1566	-0.459
Mof_H 	H 	0.3755	0.0144	0.1889	0.167
Mof_H 	H 	0.3102	0.0383	0.2526	0.179
Mof_C 	C 	0.30049	0.9205	0.0932	0.454
Mof_N 	N 	0.11742	0.8751	0.7803	-0.086
Mof_C 	C 	0.07354	0.8213	0.6775	0.034
Mof_H 	H 	0.0705	0.7498	0.6897	0.023
Mof_C 	C 	0.02648	0.8683	0.5696	-0.094
Mof_H 	H 	0.9934	0.8277	0.5101	0.061
Mof_C 	C 	0.0684	0.0303	0.678	-0.019
Mof_H 	H 	0.0653	0.1023	0.6819	0.026
Mof_C 	C 	0.1155	0.9783	0.7818	0.044
Mof_H 	H 	0.1466	0.0151	0.8543	0.005
Mof_C 	C 	0.0259	0.97398	0.5679	0.005
Mof_C 	C 	0.0252	0.9724	0.5439	0.024
Mof_C 	C 	0.0802	0.02	0.6258	-0.059
Mof_H 	H 	0.087	0.0897	0.6051	0.055
Mof_C 	C 	0.125	0.9706	0.7351	-0.027
Mof_H 	H 	0.1594	0.0098	0.7923	0.038
Mof_N 	N 	0.12402	0.8698	0.7679	-0.068
Mof_Cu	Cu	0.3023	0.29522	0.57396	0.914
Mof_O 	O 	0.25254	0.70718	0.2484	-0.436
Mof_C 	C 	0.19481	0.73502	0.2388	0.451
Mof_O 	O 	0.1615	0.77943	0.1212	-0.435
Mof_C 	C 	0.16261	0.71228	0.3796	-0.463
Mof_H 	H 	0.1151	0.7101	0.344	0.167
Mof_H 	H 	0.1724	0.7678	0.458	0.182
Mof_O 	O 	0.25518	0.42005	0.4907	-0.433
Mof_C 	C 	0.18541	0.611	0.4587	0.243
Mof_H 	H 	0.2324	0.6148	0.5004	-0.018
Mof_H 	H 	0.163	0.5993	0.5491	-0.039
Mof_O 	O 	0.16554	0.34286	0.3664	-0.435
Mof_C 	C 	0.17194	0.5217	0.3434	-0.459
Mof_H 	H 	0.1245	0.5144	0.3111	0.167
Mof_H 	H 	0.1898	0.5383	0.2474	0.179
Mof_C 	C 	0.19951	0.4205	0.4068	0.454
Mof_N 	N 	0.38258	0.3751	0.7197	-0.086
Mof_C 	C 	0.42646	0.3213	0.8225	0.034
Mof_H 	H 	0.4295	0.2498	0.8103	0.023
Mof_C 	C 	0.47352	0.3683	0.9304	-0.094
Mof_H 	H 	0.5066	0.3277	0.9899	0.061
Mof_C 	C 	0.4316	0.5303	0.822	-0.02
Mof_H 	H 	0.4347	0.6023	0.8181	0.026
Mof_C 	C 	0.3845	0.4783	0.7182	0.045
Mof_H 	H 	0.3534	0.5151	0.6457	0.005
Mof_C 	C 	0.4741	0.47398	0.9321	0.005
Mof_C 	C 	0.4748	0.4724	0.9561	0.024
Mof_C 	C 	0.4198	0.52	0.8742	-0.059
Mof_H 	H 	0.413	0.5897	0.8949	0.055
Mof_C 	C 	0.375	0.4706	0.7649	-0.025
Mof_H 	H 	0.3406	0.5098	0.7077	0.037
Mof_N 	N 	0.37598	0.3698	0.7321	-0.068
Mof_Cu	Cu	0.80229	0.79522	0.57396	0.914
Mof_O 	O 	0.75254	0.20718	0.2484	-0.436
Mof_C 	C 	0.69481	0.23502	0.2388	0.451
Mof_O 	O 	0.6615	0.27943	0.1212	-0.436
Mof_C 	C 	0.66261	0.21228	0.3796	-0.463
Mof_H 	H 	0.6151	0.2101	0.344	0.167
Mof_H 	H 	0.6724	0.2678	0.458	0.182
Mof_O 	O 	0.75518	0.92005	0.4907	-0.433
Mof_C 	C 	0.68541	0.111	0.4587	0.243
Mof_H 	H 	0.7324	0.1148	0.5004	-0.018
Mof_H 	H 	0.663	0.0993	0.5491	-0.039
Mof_O 	O 	0.66554	0.84286	0.3664	-0.435
Mof_C 	C 	0.67194	0.0217	0.3434	-0.459
Mof_H 	H 	0.6245	0.0144	0.3111	0.167
Mof_H 	H 	0.6898	0.0383	0.2474	0.179
Mof_C 	C 	0.69951	0.9205	0.4068	0.454
Mof_N 	N 	0.88258	0.8751	0.7197	-0.086
Mof_C 	C 	0.92646	0.8213	0.8225	0.033
Mof_H 	H 	0.9295	0.7498	0.8103	0.024
Mof_C 	C 	0.97352	0.8683	0.9304	-0.092
Mof_H 	H 	0.0066	0.8277	0.9899	0.06
Mof_C 	C 	0.9316	0.0303	0.822	-0.019
Mof_H 	H 	0.9347	0.1023	0.8181	0.026
Mof_C 	C 	0.8845	0.9783	0.7182	0.044
Mof_H 	H 	0.8534	0.0151	0.6457	0.005
Mof_C 	C 	0.9741	0.97398	0.9321	0.005
Mof_C 	C 	0.9748	0.9724	0.9561	0.024
Mof_C 	C 	0.9198	0.02	0.8742	-0.059
Mof_H 	H 	0.913	0.0897	0.8949	0.055
Mof_C 	C 	0.875	0.9706	0.7649	-0.026
Mof_H 	H 	0.8406	0.0098	0.7077	0.037
Mof_N 	N 	0.87598	0.8698	0.7321	-0.068
Mof_Cu	Cu	0.3023	0.70478	0.07396	0.914
Mof_O 	O 	0.25254	0.29282	0.7484	-0.436
Mof_C 	C 	0.19481	0.26498	0.7388	0.45
Mof_O 	O 	0.1615	0.22057	0.6212	-0.435
Mof_C 	C 	0.16261	0.28772	0.8796	-0.462
Mof_H 	H 	0.1151	0.2899	0.844	0.167
Mof_H 	H 	0.1724	0.2322	0.958	0.182
Mof_O 	O 	0.25518	0.57995	0.9907	-0.433
Mof_C 	C 	0.18541	0.389	0.9587	0.242
Mof_H 	H 	0.2324	0.3852	0.0004	-0.018
Mof_H 	H 	0.163	0.4007	0.0491	-0.038
Mof_O 	O 	0.16554	0.65714	0.8664	-0.435
Mof_C 	C 	0.17194	0.4783	0.8434	-0.458
Mof_H 	H 	0.1245	0.4856	0.8111	0.167
Mof_H 	H 	0.1898	0.4617	0.7474	0.179
Mof_C 	C 	0.19951	0.5795	0.9068	0.453
Mof_N 	N 	0.38258	0.6249	0.2197	-0.086
Mof_C 	C 	0.42646	0.6787	0.3225	0.034
Mof_H 	H 	0.4295	0.7502	0.3103	0.023
Mof_C 	C 	0.47352	0.6317	0.4304	-0.094
Mof_H 	H 	0.5066	0.6723	0.4899	0.061
Mof_C 	C 	0.4316	0.4697	0.322	-0.02
Mof_H 	H 	0.4347	0.3977	0.3181	0.026
Mof_C 	C 	0.3845	0.5217	0.2182	0.045
Mof_H 	H 	0.3534	0.4849	0.1457	0.005
Mof_C 	C 	0.4741	0.52602	0.4321	0.005
Mof_C 	C 	0.4748	0.5276	0.4561	0.024
Mof_C 	C 	0.4198	0.48	0.3742	-0.059
Mof_H 	H 	0.413	0.4103	0.3949	0.055
Mof_C 	C 	0.375	0.5294	0.2649	-0.025
Mof_H 	H 	0.3406	0.4902	0.2077	0.037
Mof_N 	N 	0.37598	0.6302	0.2321	-0.068
Mof_Cu	Cu	0.80229	0.20478	0.07396	0.913
Mof_O 	O 	0.75254	0.79282	0.7484	-0.436
Mof_C 	C 	0.69481	0.76498	0.7388	0.45
Mof_O 	O 	0.6615	0.72057	0.6212	-0.435
Mof_C 	C 	0.66261	0.78772	0.8796	-0.462
Mof_H 	H 	0.6151	0.7899	0.844	0.167
Mof_H 	H 	0.6724	0.7322	0.958	0.182
Mof_O 	O 	0.75518	0.07995	0.9907	-0.432
Mof_C 	C 	0.68541	0.889	0.9587	0.241
Mof_H 	H 	0.7324	0.8852	0.0004	-0.017
Mof_H 	H 	0.663	0.9007	0.0491	-0.038
Mof_O 	O 	0.66554	0.15714	0.8664	-0.435
Mof_C 	C 	0.67194	0.9783	0.8434	-0.459
Mof_H 	H 	0.6245	0.9856	0.8111	0.167
Mof_H 	H 	0.6898	0.9617	0.7474	0.179
Mof_C 	C 	0.69951	0.0795	0.9068	0.454
Mof_N 	N 	0.88258	0.1249	0.2197	-0.086
Mof_C 	C 	0.92646	0.1787	0.3225	0.034
Mof_H 	H 	0.9295	0.2502	0.3103	0.023
Mof_C 	C 	0.97352	0.1317	0.4304	-0.094
Mof_H 	H 	0.0066	0.1723	0.4899	0.061
Mof_C 	C 	0.9316	0.9697	0.322	-0.019
Mof_H 	H 	0.9347	0.8977	0.3181	0.026
Mof_C 	C 	0.8845	0.0217	0.2182	0.044
Mof_H 	H 	0.8534	0.9849	0.1457	0.005
Mof_C 	C 	0.9741	0.02602	0.4321	0.005
Mof_C 	C 	0.9748	0.0276	0.4561	0.024
Mof_C 	C 	0.9198	0.98	0.3742	-0.059
Mof_H 	H 	0.913	0.9103	0.3949	0.055
Mof_C 	C 	0.875	0.0294	0.2649	-0.027
Mof_H 	H 	0.8406	0.9902	0.2077	0.038
Mof_N 	N 	0.87598	0.1302	0.2321	-0.068
Mof_Cu	Cu	0.6977	0.70478	0.42604	0.914
Mof_O 	O 	0.74746	0.29282	0.7516	-0.436
Mof_C 	C 	0.80519	0.26498	0.7612	0.451
Mof_O 	O 	0.8385	0.22057	0.8788	-0.435
Mof_C 	C 	0.83739	0.28772	0.6204	-0.463
Mof_H 	H 	0.8849	0.2899	0.656	0.167
Mof_H 	H 	0.8276	0.2322	0.542	0.182
Mof_O 	O 	0.74482	0.57995	0.5093	-0.433
Mof_C 	C 	0.81459	0.389	0.5413	0.243
Mof_H 	H 	0.7676	0.3852	0.4996	-0.018
Mof_H 	H 	0.837	0.4007	0.4509	-0.039
Mof_O 	O 	0.83446	0.65714	0.6336	-0.435
Mof_C 	C 	0.82806	0.4783	0.6566	-0.459
Mof_H 	H 	0.8755	0.4856	0.6889	0.167
Mof_H 	H 	0.8102	0.4617	0.7526	0.179
Mof_C 	C 	0.80049	0.5795	0.5932	0.454
Mof_N 	N 	0.61742	0.6249	0.2803	-0.086
Mof_C 	C 	0.57354	0.6787	0.1775	0.034
Mof_H 	H 	0.5705	0.7502	0.1897	0.023
Mof_C 	C 	0.52648	0.6317	0.0696	-0.094
Mof_H 	H 	0.4934	0.6723	0.0101	0.061
Mof_C 	C 	0.5684	0.4697	0.178	-0.02
Mof_H 	H 	0.5653	0.3977	0.1819	0.026
Mof_C 	C 	0.6155	0.5217	0.2818	0.045
Mof_H 	H 	0.6466	0.4849	0.3543	0.005
Mof_C 	C 	0.5259	0.52602	0.0679	0.005
Mof_C 	C 	0.5252	0.5276	0.0439	0.024
Mof_C 	C 	0.5802	0.48	0.1258	-0.059
Mof_H 	H 	0.587	0.4103	0.1051	0.055
Mof_C 	C 	0.625	0.5294	0.2351	-0.025
Mof_H 	H 	0.6594	0.4902	0.2923	0.037
Mof_N 	N 	0.62402	0.6302	0.2679	-0.068
Mof_Cu	Cu	0.1977	0.20478	0.42604	0.914
Mof_O 	O 	0.24746	0.79282	0.7516	-0.436
Mof_C 	C 	0.30519	0.76498	0.7612	0.451
Mof_O 	O 	0.3385	0.72057	0.8788	-0.436
Mof_C 	C 	0.33739	0.78772	0.6204	-0.463
Mof_H 	H 	0.3849	0.7899	0.656	0.167
Mof_H 	H 	0.3276	0.7322	0.542	0.182
Mof_O 	O 	0.24482	0.07995	0.5093	-0.433
Mof_C 	C 	0.31459	0.889	0.5413	0.243
Mof_H 	H 	0.2676	0.8852	0.4996	-0.018
Mof_H 	H 	0.337	0.9007	0.4509	-0.039
Mof_O 	O 	0.33446	0.15714	0.6336	-0.435
Mof_C 	C 	0.32806	0.9783	0.6566	-0.459
Mof_H 	H 	0.3755	0.9856	0.6889	0.167
Mof_H 	H 	0.3102	0.9617	0.7526	0.179
Mof_C 	C 	0.30049	0.0795	0.5932	0.454
Mof_N 	N 	0.11742	0.1249	0.2803	-0.086
Mof_C 	C 	0.07354	0.1787	0.1775	0.033
Mof_H 	H 	0.0705	0.2502	0.1897	0.024
Mof_C 	C 	0.02648	0.1317	0.0696	-0.092
Mof_H 	H 	0.9934	0.1723	0.0101	0.06
Mof_C 	C 	0.0684	0.9697	0.178	-0.019
Mof_H 	H 	0.0653	0.8977	0.1819	0.026
Mof_C 	C 	0.1155	0.0217	0.2818	0.044
Mof_H 	H 	0.1466	0.9849	0.3543	0.005
Mof_C 	C 	0.0259	0.02602	0.0679	0.005
Mof_C 	C 	0.0252	0.0276	0.0439	0.024
Mof_C 	C 	0.0802	0.98	0.1258	-0.059
Mof_H 	H 	0.087	0.9103	0.1051	0.055
Mof_C 	C 	0.125	0.0294	0.2351	-0.026
Mof_H 	H 	0.1594	0.9902	0.2923	0.037
Mof_N 	N 	0.12402	0.1302	0.2679	-0.068
_end
