data_functionalizedCrystal
_audit_creation_method	'EQeq! by Chris Wilmer'
_symmetry_space_group_name_H-M	'P1'
_symmetry_Int_Tables_number	1
_symmetry_cell_setting	triclinic
loop_
_symmetry_equiv_pos_as_xyz
  x,y,z
_cell_length_a	9.341
_cell_length_b	9.849
_cell_length_c	11.422
_cell_angle_alpha	94.076
_cell_angle_beta	98.577
_cell_angle_gamma	110.927
loop_
_atom_site_label
_atom_site_type_symbol
_atom_site_fract_x
_atom_site_fract_y
_atom_site_fract_z
_atom_site_charge
Mof_Eu	Eu	0.71801	0.45464	0.01471	2.202
Mof_Eu	Eu	0.28199	0.54536	0.98529	2.202
Mof_H 	H 	0.0655	0.6042	0.4229	-0.024
Mof_H 	H 	0.1544	0.7285	0.6159	0.151
Mof_H 	H 	0.8229	0.8978	0.5686	0.14
Mof_H 	H 	0.7313	0.7731	0.3803	-0.031
Mof_H 	H 	0.0796	0.139	0.8354	0.061
Mof_H 	H 	0.6795	0.003	0.9619	0.01
Mof_H 	H 	0.8041	0.7119	0.7793	0.027
Mof_H 	H 	0.9345	0.3958	0.5771	-0.024
Mof_H 	H 	0.8456	0.2715	0.3841	0.151
Mof_H 	H 	0.1771	0.1022	0.4314	0.14
Mof_H 	H 	0.2687	0.2269	0.6197	-0.031
Mof_H 	H 	0.9204	0.861	0.1646	0.061
Mof_H 	H 	0.3205	0.997	0.0381	0.01
Mof_H 	H 	0.1959	0.2881	0.2207	0.027
Mof_C 	C 	0.8243	0.5883	0.26	0.368
Mof_C 	C 	0.8859	0.6726	0.3804	-0.215
Mof_C 	C 	0.0151	0.6616	0.4524	0.164
Mof_C 	C 	0.0688	0.7366	0.5681	-0.295
Mof_C 	C 	0.9965	0.8212	0.6112	0.296
Mof_C 	C 	0.87	0.8371	0.5396	-0.304
Mof_C 	C 	0.8164	0.7632	0.4273	0.182
Mof_C 	C 	0.9529	0.9213	0.7921	0.125
Mof_C 	C 	0.9888	0.0641	0.8444	-0.049
Mof_C 	C 	0.888	0.0933	0.9099	-0.153
Mof_C 	C 	0.7504	0.9817	0.9221	0.071
Mof_C 	C 	0.7202	0.838	0.8742	-0.142
Mof_C 	C 	0.8229	0.8079	0.81	-0.049
Mof_C 	C 	0.9224	0.247	0.9673	0.518
Mof_C 	C 	0.5799	0.718	0.8976	0.44
Mof_C 	C 	0.1757	0.4117	0.74	0.368
Mof_C 	C 	0.1141	0.3274	0.6196	-0.215
Mof_C 	C 	0.9849	0.3384	0.5476	0.164
Mof_C 	C 	0.9312	0.2634	0.4319	-0.295
Mof_C 	C 	0.0035	0.1788	0.3888	0.296
Mof_C 	C 	0.13	0.1629	0.4604	-0.304
Mof_C 	C 	0.1836	0.2368	0.5727	0.182
Mof_C 	C 	0.0471	0.0787	0.2079	0.125
Mof_C 	C 	0.0112	0.9359	0.1556	-0.049
Mof_C 	C 	0.112	0.9067	0.0901	-0.153
Mof_C 	C 	0.2496	0.0183	0.0779	0.071
Mof_C 	C 	0.2798	0.162	0.1258	-0.142
Mof_C 	C 	0.1771	0.1921	0.19	-0.049
Mof_C 	C 	0.0776	0.753	0.0327	0.518
Mof_C 	C 	0.4201	0.282	0.1024	0.44
Mof_O 	O 	0.7152	0.6102	0.192	-0.47
Mof_O 	O 	0.8794	0.497	0.2226	-0.432
Mof_O 	O 	0.8174	0.2707	0.0107	-0.59
Mof_O 	O 	0.055	0.341	0.9682	-0.602
Mof_O 	O 	0.4529	0.7381	0.8888	-0.491
Mof_O 	O 	0.5899	0.6005	0.9255	-0.639
Mof_O 	O 	0.0563	0.8949	0.7262	-0.269
Mof_O 	O 	0.2848	0.3898	0.808	-0.47
Mof_O 	O 	0.1206	0.503	0.7774	-0.432
Mof_O 	O 	0.1826	0.7293	0.9893	-0.59
Mof_O 	O 	0.945	0.659	0.0318	-0.602
Mof_O 	O 	0.5471	0.2619	0.1112	-0.491
Mof_O 	O 	0.4101	0.3995	0.0745	-0.639
Mof_O 	O 	0.9437	0.1051	0.2738	-0.269
_end
