data_functionalizedCrystal
_audit_creation_method	'EQeq! by Chris Wilmer'
_symmetry_space_group_name_H-M	'P1'
_symmetry_Int_Tables_number	1
_symmetry_cell_setting	triclinic
loop_
_symmetry_equiv_pos_as_xyz
  x,y,z
_cell_length_a	32.0319
_cell_length_b	32.0319
_cell_length_c	32.0319
_cell_angle_alpha	60
_cell_angle_beta	60
_cell_angle_gamma	60
loop_
_atom_site_label
_atom_site_type_symbol
_atom_site_fract_x
_atom_site_fract_y
_atom_site_fract_z
_atom_site_charge
Mof_Na	Na	0.75	0.25	0.75	2.608
Mof_Na	Na	0.25	0.75	0.25	2.608
Mof_Na	Na	0.75	0.75	0.25	2.608
Mof_Na	Na	0.25	0.25	0.75	2.608
Mof_Na	Na	0.75	0.25	0.25	2.608
Mof_Na	Na	0.25	0.75	0.75	2.608
Mof_Cd	Cd	0.62364	0.87636	0.25	0.416
Mof_Cd	Cd	0.87636	0.62364	0.25	0.416
Mof_Cd	Cd	0.25	0.25	0.62364	0.416
Mof_Cd	Cd	0.25	0.25	0.87636	0.416
Mof_Cd	Cd	0.62364	0.25	0.25	0.416
Mof_Cd	Cd	0.87636	0.25	0.25	0.416
Mof_Cd	Cd	0.25	0.62364	0.87636	0.416
Mof_Cd	Cd	0.25	0.87636	0.62364	0.416
Mof_Cd	Cd	0.62364	0.25	0.87636	0.416
Mof_Cd	Cd	0.87636	0.25	0.62364	0.416
Mof_Cd	Cd	0.25	0.87636	0.25	0.416
Mof_Cd	Cd	0.25	0.62364	0.25	0.416
Mof_Cd	Cd	0.37636	0.12364	0.75	0.416
Mof_Cd	Cd	0.12364	0.37636	0.75	0.416
Mof_Cd	Cd	0.75	0.75	0.37636	0.416
Mof_Cd	Cd	0.75	0.75	0.12364	0.416
Mof_Cd	Cd	0.37636	0.75	0.75	0.416
Mof_Cd	Cd	0.12364	0.75	0.75	0.416
Mof_Cd	Cd	0.75	0.37636	0.12364	0.417
Mof_Cd	Cd	0.75	0.12364	0.37636	0.417
Mof_Cd	Cd	0.37636	0.75	0.12364	0.417
Mof_Cd	Cd	0.12364	0.75	0.37636	0.417
Mof_Cd	Cd	0.75	0.12364	0.75	0.417
Mof_Cd	Cd	0.75	0.37636	0.75	0.417
Mof_H 	H 	0.6304	0.1592	0.973	0.163
Mof_H 	H 	0.5737	0.0649	0.1397	0.011
Mof_H 	H 	0.5838	0.1296	0.0602	0.111
Mof_H 	H 	0.7087	0.0281	0.9959	0.085
Mof_H 	H 	0.6986	0.9634	0.0752	0.014
Mof_H 	H 	0.1592	0.6304	0.2374	0.163
Mof_H 	H 	0.0649	0.5737	0.2217	0.011
Mof_H 	H 	0.1296	0.5838	0.2264	0.111
Mof_H 	H 	0.0281	0.7087	0.2673	0.085
Mof_H 	H 	0.9634	0.6986	0.2628	0.014
Mof_H 	H 	0.973	0.2374	0.6304	0.163
Mof_H 	H 	0.1397	0.2217	0.5737	0.011
Mof_H 	H 	0.0602	0.2264	0.5838	0.111
Mof_H 	H 	0.9959	0.2673	0.7087	0.085
Mof_H 	H 	0.0752	0.2628	0.6986	0.014
Mof_H 	H 	0.2374	0.973	0.1592	0.162
Mof_H 	H 	0.2217	0.1397	0.0649	0.012
Mof_H 	H 	0.2264	0.0602	0.1296	0.111
Mof_H 	H 	0.2673	0.9959	0.0281	0.084
Mof_H 	H 	0.2628	0.0752	0.9634	0.014
Mof_H 	H 	0.6304	0.973	0.2374	0.163
Mof_H 	H 	0.5737	0.1397	0.2217	0.011
Mof_H 	H 	0.5838	0.0602	0.2264	0.111
Mof_H 	H 	0.7087	0.9959	0.2673	0.085
Mof_H 	H 	0.6986	0.0752	0.2628	0.014
Mof_H 	H 	0.1592	0.2374	0.973	0.162
Mof_H 	H 	0.0649	0.2217	0.1397	0.012
Mof_H 	H 	0.1296	0.2264	0.0602	0.111
Mof_H 	H 	0.0281	0.2673	0.9959	0.084
Mof_H 	H 	0.9634	0.2628	0.0752	0.014
Mof_H 	H 	0.973	0.6304	0.1592	0.163
Mof_H 	H 	0.1397	0.5737	0.0649	0.011
Mof_H 	H 	0.0602	0.5838	0.1296	0.111
Mof_H 	H 	0.9959	0.7087	0.0281	0.085
Mof_H 	H 	0.0752	0.6986	0.9634	0.014
Mof_H 	H 	0.2374	0.1592	0.6304	0.163
Mof_H 	H 	0.2217	0.0649	0.5737	0.011
Mof_H 	H 	0.2264	0.1296	0.5838	0.111
Mof_H 	H 	0.2673	0.0281	0.7087	0.085
Mof_H 	H 	0.2628	0.9634	0.6986	0.014
Mof_H 	H 	0.6304	0.2374	0.1592	0.163
Mof_H 	H 	0.5737	0.2217	0.0649	0.011
Mof_H 	H 	0.5838	0.2264	0.1296	0.111
Mof_H 	H 	0.7087	0.2673	0.0281	0.085
Mof_H 	H 	0.6986	0.2628	0.9634	0.014
Mof_H 	H 	0.1592	0.973	0.6304	0.163
Mof_H 	H 	0.0649	0.1397	0.5737	0.011
Mof_H 	H 	0.1296	0.0602	0.5838	0.111
Mof_H 	H 	0.0281	0.9959	0.7087	0.085
Mof_H 	H 	0.9634	0.0752	0.6986	0.014
Mof_H 	H 	0.973	0.1592	0.2374	0.162
Mof_H 	H 	0.1397	0.0649	0.2217	0.012
Mof_H 	H 	0.0602	0.1296	0.2264	0.111
Mof_H 	H 	0.9959	0.0281	0.2673	0.084
Mof_H 	H 	0.0752	0.9634	0.2628	0.014
Mof_H 	H 	0.2374	0.6304	0.973	0.163
Mof_H 	H 	0.2217	0.5737	0.1397	0.011
Mof_H 	H 	0.2264	0.5838	0.0602	0.111
Mof_H 	H 	0.2673	0.7087	0.9959	0.085
Mof_H 	H 	0.2628	0.6986	0.0752	0.014
Mof_H 	H 	0.3408	0.8696	0.527	0.163
Mof_H 	H 	0.4351	0.9263	0.3603	0.011
Mof_H 	H 	0.3704	0.9162	0.4398	0.111
Mof_H 	H 	0.4719	0.7913	0.5041	0.085
Mof_H 	H 	0.5366	0.8014	0.4248	0.014
Mof_H 	H 	0.8696	0.3408	0.2626	0.163
Mof_H 	H 	0.9263	0.4351	0.2783	0.011
Mof_H 	H 	0.9162	0.3704	0.2736	0.111
Mof_H 	H 	0.7913	0.4719	0.2327	0.085
Mof_H 	H 	0.8014	0.5366	0.2372	0.014
Mof_H 	H 	0.2626	0.527	0.8696	0.163
Mof_H 	H 	0.2783	0.3603	0.9263	0.011
Mof_H 	H 	0.2736	0.4398	0.9162	0.111
Mof_H 	H 	0.2327	0.5041	0.7913	0.085
Mof_H 	H 	0.2372	0.4248	0.8014	0.014
Mof_H 	H 	0.527	0.2626	0.3408	0.163
Mof_H 	H 	0.3603	0.2783	0.4351	0.011
Mof_H 	H 	0.4398	0.2736	0.3704	0.111
Mof_H 	H 	0.5041	0.2327	0.4719	0.085
Mof_H 	H 	0.4248	0.2372	0.5366	0.014
Mof_H 	H 	0.527	0.8696	0.2626	0.163
Mof_H 	H 	0.3603	0.9263	0.2783	0.011
Mof_H 	H 	0.4398	0.9162	0.2736	0.111
Mof_H 	H 	0.5041	0.7913	0.2327	0.085
Mof_H 	H 	0.4248	0.8014	0.2372	0.014
Mof_H 	H 	0.2626	0.3408	0.527	0.163
Mof_H 	H 	0.2783	0.4351	0.3603	0.011
Mof_H 	H 	0.2736	0.3704	0.4398	0.111
Mof_H 	H 	0.2327	0.4719	0.5041	0.085
Mof_H 	H 	0.2372	0.5366	0.4248	0.014
Mof_H 	H 	0.8696	0.527	0.3408	0.163
Mof_H 	H 	0.9263	0.3603	0.4351	0.011
Mof_H 	H 	0.9162	0.4398	0.3704	0.111
Mof_H 	H 	0.7913	0.5041	0.4719	0.085
Mof_H 	H 	0.8014	0.4248	0.5366	0.014
Mof_H 	H 	0.3408	0.2626	0.8696	0.163
Mof_H 	H 	0.4351	0.2783	0.9263	0.011
Mof_H 	H 	0.3704	0.2736	0.9162	0.111
Mof_H 	H 	0.4719	0.2327	0.7913	0.085
Mof_H 	H 	0.5366	0.2372	0.8014	0.014
Mof_H 	H 	0.2626	0.8696	0.3408	0.163
Mof_H 	H 	0.2783	0.9263	0.4351	0.011
Mof_H 	H 	0.2736	0.9162	0.3704	0.111
Mof_H 	H 	0.2327	0.7913	0.4719	0.085
Mof_H 	H 	0.2372	0.8014	0.5366	0.014
Mof_H 	H 	0.527	0.3408	0.8696	0.163
Mof_H 	H 	0.3603	0.4351	0.9263	0.011
Mof_H 	H 	0.4398	0.3704	0.9162	0.111
Mof_H 	H 	0.5041	0.4719	0.7913	0.085
Mof_H 	H 	0.4248	0.5366	0.8014	0.014
Mof_H 	H 	0.3408	0.527	0.2626	0.163
Mof_H 	H 	0.4351	0.3603	0.2783	0.011
Mof_H 	H 	0.3704	0.4398	0.2736	0.111
Mof_H 	H 	0.4719	0.5041	0.2327	0.085
Mof_H 	H 	0.5366	0.4248	0.2372	0.014
Mof_H 	H 	0.8696	0.2626	0.527	0.163
Mof_H 	H 	0.9263	0.2783	0.3603	0.011
Mof_H 	H 	0.9162	0.2736	0.4398	0.111
Mof_H 	H 	0.7913	0.2327	0.5041	0.085
Mof_H 	H 	0.8014	0.2372	0.4248	0.014
Mof_H 	H 	0.3696	0.8408	0.027	0.163
Mof_H 	H 	0.4263	0.9351	0.8603	0.011
Mof_H 	H 	0.4162	0.8704	0.9398	0.111
Mof_H 	H 	0.2913	0.9719	0.0041	0.085
Mof_H 	H 	0.3014	0.0366	0.9248	0.014
Mof_H 	H 	0.8408	0.3696	0.7626	0.163
Mof_H 	H 	0.9351	0.4263	0.7783	0.011
Mof_H 	H 	0.8704	0.4162	0.7736	0.111
Mof_H 	H 	0.9719	0.2913	0.7327	0.085
Mof_H 	H 	0.0366	0.3014	0.7372	0.014
Mof_H 	H 	0.027	0.7626	0.3696	0.163
Mof_H 	H 	0.8603	0.7783	0.4263	0.011
Mof_H 	H 	0.9398	0.7736	0.4162	0.111
Mof_H 	H 	0.0041	0.7327	0.2913	0.085
Mof_H 	H 	0.9248	0.7372	0.3014	0.014
Mof_H 	H 	0.7626	0.027	0.8408	0.162
Mof_H 	H 	0.7783	0.8603	0.9351	0.012
Mof_H 	H 	0.7736	0.9398	0.8704	0.111
Mof_H 	H 	0.7327	0.0041	0.9719	0.084
Mof_H 	H 	0.7372	0.9248	0.0366	0.014
Mof_H 	H 	0.3696	0.027	0.7626	0.163
Mof_H 	H 	0.4263	0.8603	0.7783	0.011
Mof_H 	H 	0.4162	0.9398	0.7736	0.111
Mof_H 	H 	0.2913	0.0041	0.7327	0.085
Mof_H 	H 	0.3014	0.9248	0.7372	0.014
Mof_H 	H 	0.8408	0.7626	0.027	0.162
Mof_H 	H 	0.9351	0.7783	0.8603	0.012
Mof_H 	H 	0.8704	0.7736	0.9398	0.111
Mof_H 	H 	0.9719	0.7327	0.0041	0.084
Mof_H 	H 	0.0366	0.7372	0.9248	0.014
Mof_H 	H 	0.027	0.3696	0.8408	0.163
Mof_H 	H 	0.8603	0.4263	0.9351	0.011
Mof_H 	H 	0.9398	0.4162	0.8704	0.111
Mof_H 	H 	0.0041	0.2913	0.9719	0.085
Mof_H 	H 	0.9248	0.3014	0.0366	0.014
Mof_H 	H 	0.7626	0.8408	0.3696	0.163
Mof_H 	H 	0.7783	0.9351	0.4263	0.011
Mof_H 	H 	0.7736	0.8704	0.4162	0.111
Mof_H 	H 	0.7327	0.9719	0.2913	0.085
Mof_H 	H 	0.7372	0.0366	0.3014	0.014
Mof_H 	H 	0.3696	0.7626	0.8408	0.163
Mof_H 	H 	0.4263	0.7783	0.9351	0.011
Mof_H 	H 	0.4162	0.7736	0.8704	0.111
Mof_H 	H 	0.2913	0.7327	0.9719	0.085
Mof_H 	H 	0.3014	0.7372	0.0366	0.014
Mof_H 	H 	0.8408	0.027	0.3696	0.163
Mof_H 	H 	0.9351	0.8603	0.4263	0.011
Mof_H 	H 	0.8704	0.9398	0.4162	0.111
Mof_H 	H 	0.9719	0.0041	0.2913	0.085
Mof_H 	H 	0.0366	0.9248	0.3014	0.014
Mof_H 	H 	0.027	0.8408	0.7626	0.162
Mof_H 	H 	0.8603	0.9351	0.7783	0.012
Mof_H 	H 	0.9398	0.8704	0.7736	0.111
Mof_H 	H 	0.0041	0.9719	0.7327	0.084
Mof_H 	H 	0.9248	0.0366	0.7372	0.014
Mof_H 	H 	0.7626	0.3696	0.027	0.163
Mof_H 	H 	0.7783	0.4263	0.8603	0.011
Mof_H 	H 	0.7736	0.4162	0.9398	0.111
Mof_H 	H 	0.7327	0.2913	0.0041	0.085
Mof_H 	H 	0.7372	0.3014	0.9248	0.014
Mof_H 	H 	0.6592	0.1304	0.473	0.163
Mof_H 	H 	0.5649	0.0737	0.6397	0.011
Mof_H 	H 	0.6296	0.0838	0.5602	0.111
Mof_H 	H 	0.5281	0.2087	0.4959	0.085
Mof_H 	H 	0.4634	0.1986	0.5752	0.014
Mof_H 	H 	0.1304	0.6592	0.7374	0.163
Mof_H 	H 	0.0737	0.5649	0.7217	0.011
Mof_H 	H 	0.0838	0.6296	0.7264	0.111
Mof_H 	H 	0.2087	0.5281	0.7673	0.085
Mof_H 	H 	0.1986	0.4634	0.7628	0.014
Mof_H 	H 	0.7374	0.473	0.1304	0.163
Mof_H 	H 	0.7217	0.6397	0.0737	0.011
Mof_H 	H 	0.7264	0.5602	0.0838	0.111
Mof_H 	H 	0.7673	0.4959	0.2087	0.085
Mof_H 	H 	0.7628	0.5752	0.1986	0.014
Mof_H 	H 	0.473	0.7374	0.6592	0.163
Mof_H 	H 	0.6397	0.7217	0.5649	0.011
Mof_H 	H 	0.5602	0.7264	0.6296	0.111
Mof_H 	H 	0.4959	0.7673	0.5281	0.085
Mof_H 	H 	0.5752	0.7628	0.4634	0.014
Mof_H 	H 	0.473	0.1304	0.7374	0.163
Mof_H 	H 	0.6397	0.0737	0.7217	0.011
Mof_H 	H 	0.5602	0.0838	0.7264	0.111
Mof_H 	H 	0.4959	0.2087	0.7673	0.085
Mof_H 	H 	0.5752	0.1986	0.7628	0.014
Mof_H 	H 	0.7374	0.6592	0.473	0.163
Mof_H 	H 	0.7217	0.5649	0.6397	0.011
Mof_H 	H 	0.7264	0.6296	0.5602	0.111
Mof_H 	H 	0.7673	0.5281	0.4959	0.085
Mof_H 	H 	0.7628	0.4634	0.5752	0.014
Mof_H 	H 	0.1304	0.473	0.6592	0.163
Mof_H 	H 	0.0737	0.6397	0.5649	0.011
Mof_H 	H 	0.0838	0.5602	0.6296	0.111
Mof_H 	H 	0.2087	0.4959	0.5281	0.085
Mof_H 	H 	0.1986	0.5752	0.4634	0.014
Mof_H 	H 	0.6592	0.7374	0.1304	0.163
Mof_H 	H 	0.5649	0.7217	0.0737	0.011
Mof_H 	H 	0.6296	0.7264	0.0838	0.111
Mof_H 	H 	0.5281	0.7673	0.2087	0.085
Mof_H 	H 	0.4634	0.7628	0.1986	0.014
Mof_H 	H 	0.7374	0.1304	0.6592	0.163
Mof_H 	H 	0.7217	0.0737	0.5649	0.011
Mof_H 	H 	0.7264	0.0838	0.6296	0.111
Mof_H 	H 	0.7673	0.2087	0.5281	0.085
Mof_H 	H 	0.7628	0.1986	0.4634	0.014
Mof_H 	H 	0.473	0.6592	0.1304	0.163
Mof_H 	H 	0.6397	0.5649	0.0737	0.011
Mof_H 	H 	0.5602	0.6296	0.0838	0.111
Mof_H 	H 	0.4959	0.5281	0.2087	0.085
Mof_H 	H 	0.5752	0.4634	0.1986	0.014
Mof_H 	H 	0.6592	0.473	0.7374	0.163
Mof_H 	H 	0.5649	0.6397	0.7217	0.011
Mof_H 	H 	0.6296	0.5602	0.7264	0.111
Mof_H 	H 	0.5281	0.4959	0.7673	0.085
Mof_H 	H 	0.4634	0.5752	0.7628	0.014
Mof_H 	H 	0.1304	0.7374	0.473	0.163
Mof_H 	H 	0.0737	0.7217	0.6397	0.011
Mof_H 	H 	0.0838	0.7264	0.5602	0.111
Mof_H 	H 	0.2087	0.7673	0.4959	0.085
Mof_H 	H 	0.1986	0.7628	0.5752	0.014
Mof_C 	C 	0.6285	0.9637	0.1651	0.41
Mof_C 	C 	0.6352	0.00796	0.11506	-0.159
Mof_C 	C 	0.60094	0.0575	0.11062	0.103
Mof_C 	C 	0.60694	0.09604	0.0633	-0.195
Mof_C 	C 	0.64722	0.08502	0.02044	0.18
Mof_C 	C 	0.68148	0.03548	0.02488	-0.173
Mof_C 	C 	0.67543	0.99697	0.07217	0.089
Mof_C 	C 	0.67216	0.12304	0.9267	0.224
Mof_C 	C 	0.9637	0.6285	0.2427	0.41
Mof_C 	C 	0.00796	0.6352	0.24178	-0.16
Mof_C 	C 	0.0575	0.60094	0.23094	0.103
Mof_C 	C 	0.09604	0.60694	0.23372	-0.195
Mof_C 	C 	0.08502	0.64722	0.24732	0.18
Mof_C 	C 	0.03548	0.68148	0.25816	-0.173
Mof_C 	C 	0.99697	0.67543	0.25543	0.09
Mof_C 	C 	0.12304	0.67216	0.2781	0.224
Mof_C 	C 	0.1651	0.2427	0.6285	0.41
Mof_C 	C 	0.11506	0.24178	0.6352	-0.16
Mof_C 	C 	0.11062	0.23094	0.60094	0.103
Mof_C 	C 	0.0633	0.23372	0.60694	-0.195
Mof_C 	C 	0.02044	0.24732	0.64722	0.18
Mof_C 	C 	0.02488	0.25816	0.68148	-0.173
Mof_C 	C 	0.07217	0.25543	0.67543	0.09
Mof_C 	C 	0.9267	0.2781	0.67216	0.224
Mof_C 	C 	0.2427	0.1651	0.9637	0.409
Mof_C 	C 	0.24178	0.11506	0.00796	-0.158
Mof_C 	C 	0.23094	0.11062	0.0575	0.102
Mof_C 	C 	0.23372	0.0633	0.09604	-0.194
Mof_C 	C 	0.24732	0.02044	0.08502	0.179
Mof_C 	C 	0.25816	0.02488	0.03548	-0.171
Mof_C 	C 	0.25543	0.07217	0.99697	0.088
Mof_C 	C 	0.2781	0.9267	0.12304	0.224
Mof_C 	C 	0.6285	0.1651	0.2427	0.41
Mof_C 	C 	0.6352	0.11506	0.24178	-0.16
Mof_C 	C 	0.60094	0.11062	0.23094	0.103
Mof_C 	C 	0.60694	0.0633	0.23372	-0.195
Mof_C 	C 	0.64722	0.02044	0.24732	0.18
Mof_C 	C 	0.68148	0.02488	0.25816	-0.173
Mof_C 	C 	0.67543	0.07217	0.25543	0.09
Mof_C 	C 	0.67216	0.9267	0.2781	0.224
Mof_C 	C 	0.9637	0.2427	0.1651	0.409
Mof_C 	C 	0.00796	0.24178	0.11506	-0.158
Mof_C 	C 	0.0575	0.23094	0.11062	0.102
Mof_C 	C 	0.09604	0.23372	0.0633	-0.194
Mof_C 	C 	0.08502	0.24732	0.02044	0.179
Mof_C 	C 	0.03548	0.25816	0.02488	-0.171
Mof_C 	C 	0.99697	0.25543	0.07217	0.088
Mof_C 	C 	0.12304	0.2781	0.9267	0.224
Mof_C 	C 	0.1651	0.6285	0.9637	0.41
Mof_C 	C 	0.11506	0.6352	0.00796	-0.159
Mof_C 	C 	0.11062	0.60094	0.0575	0.103
Mof_C 	C 	0.0633	0.60694	0.09604	-0.195
Mof_C 	C 	0.02044	0.64722	0.08502	0.18
Mof_C 	C 	0.02488	0.68148	0.03548	-0.173
Mof_C 	C 	0.07217	0.67543	0.99697	0.089
Mof_C 	C 	0.9267	0.67216	0.12304	0.224
Mof_C 	C 	0.2427	0.9637	0.6285	0.41
Mof_C 	C 	0.24178	0.00796	0.6352	-0.16
Mof_C 	C 	0.23094	0.0575	0.60094	0.103
Mof_C 	C 	0.23372	0.09604	0.60694	-0.195
Mof_C 	C 	0.24732	0.08502	0.64722	0.18
Mof_C 	C 	0.25816	0.03548	0.68148	-0.173
Mof_C 	C 	0.25543	0.99697	0.67543	0.09
Mof_C 	C 	0.2781	0.12304	0.67216	0.224
Mof_C 	C 	0.6285	0.2427	0.9637	0.41
Mof_C 	C 	0.6352	0.24178	0.00796	-0.16
Mof_C 	C 	0.60094	0.23094	0.0575	0.103
Mof_C 	C 	0.60694	0.23372	0.09604	-0.195
Mof_C 	C 	0.64722	0.24732	0.08502	0.18
Mof_C 	C 	0.68148	0.25816	0.03548	-0.173
Mof_C 	C 	0.67543	0.25543	0.99697	0.09
Mof_C 	C 	0.67216	0.2781	0.12304	0.224
Mof_C 	C 	0.9637	0.1651	0.6285	0.41
Mof_C 	C 	0.00796	0.11506	0.6352	-0.159
Mof_C 	C 	0.0575	0.11062	0.60094	0.103
Mof_C 	C 	0.09604	0.0633	0.60694	-0.195
Mof_C 	C 	0.08502	0.02044	0.64722	0.18
Mof_C 	C 	0.03548	0.02488	0.68148	-0.173
Mof_C 	C 	0.99697	0.07217	0.67543	0.089
Mof_C 	C 	0.12304	0.9267	0.67216	0.224
Mof_C 	C 	0.1651	0.9637	0.2427	0.409
Mof_C 	C 	0.11506	0.00796	0.24178	-0.158
Mof_C 	C 	0.11062	0.0575	0.23094	0.102
Mof_C 	C 	0.0633	0.09604	0.23372	-0.194
Mof_C 	C 	0.02044	0.08502	0.24732	0.179
Mof_C 	C 	0.02488	0.03548	0.25816	-0.171
Mof_C 	C 	0.07217	0.99697	0.25543	0.088
Mof_C 	C 	0.9267	0.12304	0.2781	0.224
Mof_C 	C 	0.2427	0.6285	0.1651	0.41
Mof_C 	C 	0.24178	0.6352	0.11506	-0.16
Mof_C 	C 	0.23094	0.60094	0.11062	0.103
Mof_C 	C 	0.23372	0.60694	0.0633	-0.195
Mof_C 	C 	0.24732	0.64722	0.02044	0.18
Mof_C 	C 	0.25816	0.68148	0.02488	-0.173
Mof_C 	C 	0.25543	0.67543	0.07217	0.09
Mof_C 	C 	0.2781	0.67216	0.9267	0.224
Mof_C 	C 	0.5363	0.8715	0.3349	0.41
Mof_C 	C 	0.49204	0.8648	0.38494	-0.16
Mof_C 	C 	0.4425	0.89906	0.38938	0.103
Mof_C 	C 	0.40396	0.89306	0.4367	-0.195
Mof_C 	C 	0.41498	0.85278	0.47956	0.18
Mof_C 	C 	0.46452	0.81852	0.47512	-0.173
Mof_C 	C 	0.50303	0.82457	0.42783	0.09
Mof_C 	C 	0.37696	0.82784	0.5733	0.224
Mof_C 	C 	0.8715	0.5363	0.2573	0.41
Mof_C 	C 	0.8648	0.49204	0.25822	-0.16
Mof_C 	C 	0.89906	0.4425	0.26906	0.103
Mof_C 	C 	0.89306	0.40396	0.26628	-0.195
Mof_C 	C 	0.85278	0.41498	0.25268	0.18
Mof_C 	C 	0.81852	0.46452	0.24184	-0.173
Mof_C 	C 	0.82457	0.50303	0.24457	0.09
Mof_C 	C 	0.82784	0.37696	0.2219	0.224
Mof_C 	C 	0.2573	0.3349	0.8715	0.41
Mof_C 	C 	0.25822	0.38494	0.8648	-0.16
Mof_C 	C 	0.26906	0.38938	0.89906	0.103
Mof_C 	C 	0.26628	0.4367	0.89306	-0.195
Mof_C 	C 	0.25268	0.47956	0.85278	0.18
Mof_C 	C 	0.24184	0.47512	0.81852	-0.173
Mof_C 	C 	0.24457	0.42783	0.82457	0.09
Mof_C 	C 	0.2219	0.5733	0.82784	0.224
Mof_C 	C 	0.3349	0.2573	0.5363	0.41
Mof_C 	C 	0.38494	0.25822	0.49204	-0.16
Mof_C 	C 	0.38938	0.26906	0.4425	0.103
Mof_C 	C 	0.4367	0.26628	0.40396	-0.195
Mof_C 	C 	0.47956	0.25268	0.41498	0.18
Mof_C 	C 	0.47512	0.24184	0.46452	-0.173
Mof_C 	C 	0.42783	0.24457	0.50303	0.09
Mof_C 	C 	0.5733	0.2219	0.37696	0.224
Mof_C 	C 	0.3349	0.8715	0.2573	0.41
Mof_C 	C 	0.38494	0.8648	0.25822	-0.16
Mof_C 	C 	0.38938	0.89906	0.26906	0.103
Mof_C 	C 	0.4367	0.89306	0.26628	-0.195
Mof_C 	C 	0.47956	0.85278	0.25268	0.18
Mof_C 	C 	0.47512	0.81852	0.24184	-0.173
Mof_C 	C 	0.42783	0.82457	0.24457	0.09
Mof_C 	C 	0.5733	0.82784	0.2219	0.224
Mof_C 	C 	0.2573	0.5363	0.3349	0.41
Mof_C 	C 	0.25822	0.49204	0.38494	-0.16
Mof_C 	C 	0.26906	0.4425	0.38938	0.103
Mof_C 	C 	0.26628	0.40396	0.4367	-0.195
Mof_C 	C 	0.25268	0.41498	0.47956	0.18
Mof_C 	C 	0.24184	0.46452	0.47512	-0.173
Mof_C 	C 	0.24457	0.50303	0.42783	0.09
Mof_C 	C 	0.2219	0.37696	0.5733	0.224
Mof_C 	C 	0.8715	0.3349	0.5363	0.41
Mof_C 	C 	0.8648	0.38494	0.49204	-0.16
Mof_C 	C 	0.89906	0.38938	0.4425	0.103
Mof_C 	C 	0.89306	0.4367	0.40396	-0.195
Mof_C 	C 	0.85278	0.47956	0.41498	0.18
Mof_C 	C 	0.81852	0.47512	0.46452	-0.173
Mof_C 	C 	0.82457	0.42783	0.50303	0.09
Mof_C 	C 	0.82784	0.5733	0.37696	0.224
Mof_C 	C 	0.5363	0.2573	0.8715	0.41
Mof_C 	C 	0.49204	0.25822	0.8648	-0.16
Mof_C 	C 	0.4425	0.26906	0.89906	0.103
Mof_C 	C 	0.40396	0.26628	0.89306	-0.195
Mof_C 	C 	0.41498	0.25268	0.85278	0.18
Mof_C 	C 	0.46452	0.24184	0.81852	-0.173
Mof_C 	C 	0.50303	0.24457	0.82457	0.09
Mof_C 	C 	0.37696	0.2219	0.82784	0.224
Mof_C 	C 	0.2573	0.8715	0.5363	0.41
Mof_C 	C 	0.25822	0.8648	0.49204	-0.16
Mof_C 	C 	0.26906	0.89906	0.4425	0.103
Mof_C 	C 	0.26628	0.89306	0.40396	-0.195
Mof_C 	C 	0.25268	0.85278	0.41498	0.18
Mof_C 	C 	0.24184	0.81852	0.46452	-0.173
Mof_C 	C 	0.24457	0.82457	0.50303	0.09
Mof_C 	C 	0.2219	0.82784	0.37696	0.224
Mof_C 	C 	0.3349	0.5363	0.8715	0.41
Mof_C 	C 	0.38494	0.49204	0.8648	-0.16
Mof_C 	C 	0.38938	0.4425	0.89906	0.103
Mof_C 	C 	0.4367	0.40396	0.89306	-0.195
Mof_C 	C 	0.47956	0.41498	0.85278	0.18
Mof_C 	C 	0.47512	0.46452	0.81852	-0.173
Mof_C 	C 	0.42783	0.50303	0.82457	0.09
Mof_C 	C 	0.5733	0.37696	0.82784	0.224
Mof_C 	C 	0.5363	0.3349	0.2573	0.41
Mof_C 	C 	0.49204	0.38494	0.25822	-0.16
Mof_C 	C 	0.4425	0.38938	0.26906	0.103
Mof_C 	C 	0.40396	0.4367	0.26628	-0.195
Mof_C 	C 	0.41498	0.47956	0.25268	0.18
Mof_C 	C 	0.46452	0.47512	0.24184	-0.173
Mof_C 	C 	0.50303	0.42783	0.24457	0.09
Mof_C 	C 	0.37696	0.5733	0.2219	0.224
Mof_C 	C 	0.8715	0.2573	0.3349	0.41
Mof_C 	C 	0.8648	0.25822	0.38494	-0.16
Mof_C 	C 	0.89906	0.26906	0.38938	0.103
Mof_C 	C 	0.89306	0.26628	0.4367	-0.195
Mof_C 	C 	0.85278	0.25268	0.47956	0.18
Mof_C 	C 	0.81852	0.24184	0.47512	-0.173
Mof_C 	C 	0.82457	0.24457	0.42783	0.09
Mof_C 	C 	0.82784	0.2219	0.5733	0.224
Mof_C 	C 	0.3715	0.0363	0.8349	0.41
Mof_C 	C 	0.3648	0.99204	0.88494	-0.159
Mof_C 	C 	0.39906	0.9425	0.88938	0.103
Mof_C 	C 	0.39306	0.90396	0.9367	-0.195
Mof_C 	C 	0.35278	0.91498	0.97956	0.18
Mof_C 	C 	0.31852	0.96452	0.97512	-0.173
Mof_C 	C 	0.32457	0.00303	0.92783	0.089
Mof_C 	C 	0.32784	0.87696	0.0733	0.224
Mof_C 	C 	0.0363	0.3715	0.7573	0.41
Mof_C 	C 	0.99204	0.3648	0.75822	-0.16
Mof_C 	C 	0.9425	0.39906	0.76906	0.103
Mof_C 	C 	0.90396	0.39306	0.76628	-0.195
Mof_C 	C 	0.91498	0.35278	0.75268	0.18
Mof_C 	C 	0.96452	0.31852	0.74184	-0.173
Mof_C 	C 	0.00303	0.32457	0.74457	0.09
Mof_C 	C 	0.87696	0.32784	0.7219	0.224
Mof_C 	C 	0.8349	0.7573	0.3715	0.41
Mof_C 	C 	0.88494	0.75822	0.3648	-0.16
Mof_C 	C 	0.88938	0.76906	0.39906	0.103
Mof_C 	C 	0.9367	0.76628	0.39306	-0.195
Mof_C 	C 	0.97956	0.75268	0.35278	0.18
Mof_C 	C 	0.97512	0.74184	0.31852	-0.173
Mof_C 	C 	0.92783	0.74457	0.32457	0.09
Mof_C 	C 	0.0733	0.7219	0.32784	0.224
Mof_C 	C 	0.7573	0.8349	0.0363	0.409
Mof_C 	C 	0.75822	0.88494	0.99204	-0.158
Mof_C 	C 	0.76906	0.88938	0.9425	0.102
Mof_C 	C 	0.76628	0.9367	0.90396	-0.194
Mof_C 	C 	0.75268	0.97956	0.91498	0.179
Mof_C 	C 	0.74184	0.97512	0.96452	-0.171
Mof_C 	C 	0.74457	0.92783	0.00303	0.088
Mof_C 	C 	0.7219	0.0733	0.87696	0.224
Mof_C 	C 	0.3715	0.8349	0.7573	0.41
Mof_C 	C 	0.3648	0.88494	0.75822	-0.16
Mof_C 	C 	0.39906	0.88938	0.76906	0.103
Mof_C 	C 	0.39306	0.9367	0.76628	-0.195
Mof_C 	C 	0.35278	0.97956	0.75268	0.18
Mof_C 	C 	0.31852	0.97512	0.74184	-0.173
Mof_C 	C 	0.32457	0.92783	0.74457	0.09
Mof_C 	C 	0.32784	0.0733	0.7219	0.224
Mof_C 	C 	0.0363	0.7573	0.8349	0.409
Mof_C 	C 	0.99204	0.75822	0.88494	-0.158
Mof_C 	C 	0.9425	0.76906	0.88938	0.102
Mof_C 	C 	0.90396	0.76628	0.9367	-0.194
Mof_C 	C 	0.91498	0.75268	0.97956	0.179
Mof_C 	C 	0.96452	0.74184	0.97512	-0.171
Mof_C 	C 	0.00303	0.74457	0.92783	0.088
Mof_C 	C 	0.87696	0.7219	0.0733	0.224
Mof_C 	C 	0.8349	0.3715	0.0363	0.41
Mof_C 	C 	0.88494	0.3648	0.99204	-0.159
Mof_C 	C 	0.88938	0.39906	0.9425	0.103
Mof_C 	C 	0.9367	0.39306	0.90396	-0.195
Mof_C 	C 	0.97956	0.35278	0.91498	0.18
Mof_C 	C 	0.97512	0.31852	0.96452	-0.173
Mof_C 	C 	0.92783	0.32457	0.00303	0.089
Mof_C 	C 	0.0733	0.32784	0.87696	0.224
Mof_C 	C 	0.7573	0.0363	0.3715	0.41
Mof_C 	C 	0.75822	0.99204	0.3648	-0.16
Mof_C 	C 	0.76906	0.9425	0.39906	0.103
Mof_C 	C 	0.76628	0.90396	0.39306	-0.195
Mof_C 	C 	0.75268	0.91498	0.35278	0.18
Mof_C 	C 	0.74184	0.96452	0.31852	-0.173
Mof_C 	C 	0.74457	0.00303	0.32457	0.09
Mof_C 	C 	0.7219	0.87696	0.32784	0.224
Mof_C 	C 	0.3715	0.7573	0.0363	0.41
Mof_C 	C 	0.3648	0.75822	0.99204	-0.16
Mof_C 	C 	0.39906	0.76906	0.9425	0.103
Mof_C 	C 	0.39306	0.76628	0.90396	-0.195
Mof_C 	C 	0.35278	0.75268	0.91498	0.18
Mof_C 	C 	0.31852	0.74184	0.96452	-0.173
Mof_C 	C 	0.32457	0.74457	0.00303	0.09
Mof_C 	C 	0.32784	0.7219	0.87696	0.224
Mof_C 	C 	0.0363	0.8349	0.3715	0.41
Mof_C 	C 	0.99204	0.88494	0.3648	-0.159
Mof_C 	C 	0.9425	0.88938	0.39906	0.103
Mof_C 	C 	0.90396	0.9367	0.39306	-0.195
Mof_C 	C 	0.91498	0.97956	0.35278	0.18
Mof_C 	C 	0.96452	0.97512	0.31852	-0.173
Mof_C 	C 	0.00303	0.92783	0.32457	0.089
Mof_C 	C 	0.87696	0.0733	0.32784	0.224
Mof_C 	C 	0.8349	0.0363	0.7573	0.409
Mof_C 	C 	0.88494	0.99204	0.75822	-0.158
Mof_C 	C 	0.88938	0.9425	0.76906	0.102
Mof_C 	C 	0.9367	0.90396	0.76628	-0.194
Mof_C 	C 	0.97956	0.91498	0.75268	0.179
Mof_C 	C 	0.97512	0.96452	0.74184	-0.171
Mof_C 	C 	0.92783	0.00303	0.74457	0.088
Mof_C 	C 	0.0733	0.87696	0.7219	0.224
Mof_C 	C 	0.7573	0.3715	0.8349	0.41
Mof_C 	C 	0.75822	0.3648	0.88494	-0.16
Mof_C 	C 	0.76906	0.39906	0.88938	0.103
Mof_C 	C 	0.76628	0.39306	0.9367	-0.195
Mof_C 	C 	0.75268	0.35278	0.97956	0.18
Mof_C 	C 	0.74184	0.31852	0.97512	-0.173
Mof_C 	C 	0.74457	0.32457	0.92783	0.09
Mof_C 	C 	0.7219	0.32784	0.0733	0.224
Mof_C 	C 	0.4637	0.1285	0.6651	0.41
Mof_C 	C 	0.50796	0.1352	0.61506	-0.16
Mof_C 	C 	0.5575	0.10094	0.61062	0.103
Mof_C 	C 	0.59604	0.10694	0.5633	-0.195
Mof_C 	C 	0.58502	0.14722	0.52044	0.18
Mof_C 	C 	0.53548	0.18148	0.52488	-0.173
Mof_C 	C 	0.49697	0.17543	0.57217	0.09
Mof_C 	C 	0.62304	0.17216	0.4267	0.224
Mof_C 	C 	0.1285	0.4637	0.7427	0.41
Mof_C 	C 	0.1352	0.50796	0.74178	-0.16
Mof_C 	C 	0.10094	0.5575	0.73094	0.103
Mof_C 	C 	0.10694	0.59604	0.73372	-0.195
Mof_C 	C 	0.14722	0.58502	0.74732	0.18
Mof_C 	C 	0.18148	0.53548	0.75816	-0.173
Mof_C 	C 	0.17543	0.49697	0.75543	0.09
Mof_C 	C 	0.17216	0.62304	0.7781	0.224
Mof_C 	C 	0.7427	0.6651	0.1285	0.41
Mof_C 	C 	0.74178	0.61506	0.1352	-0.16
Mof_C 	C 	0.73094	0.61062	0.10094	0.103
Mof_C 	C 	0.73372	0.5633	0.10694	-0.195
Mof_C 	C 	0.74732	0.52044	0.14722	0.18
Mof_C 	C 	0.75816	0.52488	0.18148	-0.173
Mof_C 	C 	0.75543	0.57217	0.17543	0.09
Mof_C 	C 	0.7781	0.4267	0.17216	0.224
Mof_C 	C 	0.6651	0.7427	0.4637	0.41
Mof_C 	C 	0.61506	0.74178	0.50796	-0.16
Mof_C 	C 	0.61062	0.73094	0.5575	0.103
Mof_C 	C 	0.5633	0.73372	0.59604	-0.195
Mof_C 	C 	0.52044	0.74732	0.58502	0.18
Mof_C 	C 	0.52488	0.75816	0.53548	-0.173
Mof_C 	C 	0.57217	0.75543	0.49697	0.09
Mof_C 	C 	0.4267	0.7781	0.62304	0.224
Mof_C 	C 	0.6651	0.1285	0.7427	0.41
Mof_C 	C 	0.61506	0.1352	0.74178	-0.16
Mof_C 	C 	0.61062	0.10094	0.73094	0.103
Mof_C 	C 	0.5633	0.10694	0.73372	-0.195
Mof_C 	C 	0.52044	0.14722	0.74732	0.18
Mof_C 	C 	0.52488	0.18148	0.75816	-0.173
Mof_C 	C 	0.57217	0.17543	0.75543	0.09
Mof_C 	C 	0.4267	0.17216	0.7781	0.224
Mof_C 	C 	0.7427	0.4637	0.6651	0.41
Mof_C 	C 	0.74178	0.50796	0.61506	-0.16
Mof_C 	C 	0.73094	0.5575	0.61062	0.103
Mof_C 	C 	0.73372	0.59604	0.5633	-0.195
Mof_C 	C 	0.74732	0.58502	0.52044	0.18
Mof_C 	C 	0.75816	0.53548	0.52488	-0.173
Mof_C 	C 	0.75543	0.49697	0.57217	0.09
Mof_C 	C 	0.7781	0.62304	0.4267	0.224
Mof_C 	C 	0.1285	0.6651	0.4637	0.41
Mof_C 	C 	0.1352	0.61506	0.50796	-0.16
Mof_C 	C 	0.10094	0.61062	0.5575	0.103
Mof_C 	C 	0.10694	0.5633	0.59604	-0.195
Mof_C 	C 	0.14722	0.52044	0.58502	0.18
Mof_C 	C 	0.18148	0.52488	0.53548	-0.173
Mof_C 	C 	0.17543	0.57217	0.49697	0.09
Mof_C 	C 	0.17216	0.4267	0.62304	0.224
Mof_C 	C 	0.4637	0.7427	0.1285	0.41
Mof_C 	C 	0.50796	0.74178	0.1352	-0.16
Mof_C 	C 	0.5575	0.73094	0.10094	0.103
Mof_C 	C 	0.59604	0.73372	0.10694	-0.195
Mof_C 	C 	0.58502	0.74732	0.14722	0.18
Mof_C 	C 	0.53548	0.75816	0.18148	-0.173
Mof_C 	C 	0.49697	0.75543	0.17543	0.09
Mof_C 	C 	0.62304	0.7781	0.17216	0.224
Mof_C 	C 	0.7427	0.1285	0.4637	0.41
Mof_C 	C 	0.74178	0.1352	0.50796	-0.16
Mof_C 	C 	0.73094	0.10094	0.5575	0.103
Mof_C 	C 	0.73372	0.10694	0.59604	-0.195
Mof_C 	C 	0.74732	0.14722	0.58502	0.18
Mof_C 	C 	0.75816	0.18148	0.53548	-0.173
Mof_C 	C 	0.75543	0.17543	0.49697	0.09
Mof_C 	C 	0.7781	0.17216	0.62304	0.224
Mof_C 	C 	0.6651	0.4637	0.1285	0.41
Mof_C 	C 	0.61506	0.50796	0.1352	-0.16
Mof_C 	C 	0.61062	0.5575	0.10094	0.103
Mof_C 	C 	0.5633	0.59604	0.10694	-0.195
Mof_C 	C 	0.52044	0.58502	0.14722	0.18
Mof_C 	C 	0.52488	0.53548	0.18148	-0.173
Mof_C 	C 	0.57217	0.49697	0.17543	0.09
Mof_C 	C 	0.4267	0.62304	0.17216	0.224
Mof_C 	C 	0.4637	0.6651	0.7427	0.41
Mof_C 	C 	0.50796	0.61506	0.74178	-0.16
Mof_C 	C 	0.5575	0.61062	0.73094	0.103
Mof_C 	C 	0.59604	0.5633	0.73372	-0.195
Mof_C 	C 	0.58502	0.52044	0.74732	0.18
Mof_C 	C 	0.53548	0.52488	0.75816	-0.173
Mof_C 	C 	0.49697	0.57217	0.75543	0.09
Mof_C 	C 	0.62304	0.4267	0.7781	0.224
Mof_C 	C 	0.1285	0.7427	0.6651	0.41
Mof_C 	C 	0.1352	0.74178	0.61506	-0.16
Mof_C 	C 	0.10094	0.73094	0.61062	0.103
Mof_C 	C 	0.10694	0.73372	0.5633	-0.195
Mof_C 	C 	0.14722	0.74732	0.52044	0.18
Mof_C 	C 	0.18148	0.75816	0.52488	-0.173
Mof_C 	C 	0.17543	0.75543	0.57217	0.09
Mof_C 	C 	0.17216	0.7781	0.4267	0.224
Mof_C 	C 	0.69623	0.16143	0.83857	0.367
Mof_C 	C 	0.16143	0.69623	0.30377	0.367
Mof_C 	C 	0.83857	0.30377	0.69623	0.367
Mof_C 	C 	0.30377	0.83857	0.16143	0.367
Mof_C 	C 	0.69623	0.83857	0.30377	0.367
Mof_C 	C 	0.16143	0.30377	0.83857	0.367
Mof_C 	C 	0.83857	0.69623	0.16143	0.367
Mof_C 	C 	0.30377	0.16143	0.69623	0.367
Mof_C 	C 	0.69623	0.30377	0.16143	0.367
Mof_C 	C 	0.16143	0.83857	0.69623	0.367
Mof_C 	C 	0.83857	0.16143	0.30377	0.367
Mof_C 	C 	0.30377	0.69623	0.83857	0.367
Mof_C 	C 	0.33857	0.80377	0.66143	0.367
Mof_C 	C 	0.80377	0.33857	0.19623	0.367
Mof_C 	C 	0.19623	0.66143	0.80377	0.367
Mof_C 	C 	0.66143	0.19623	0.33857	0.367
Mof_C 	C 	0.66143	0.80377	0.19623	0.367
Mof_C 	C 	0.19623	0.33857	0.66143	0.367
Mof_C 	C 	0.80377	0.66143	0.33857	0.367
Mof_C 	C 	0.33857	0.19623	0.80377	0.367
Mof_C 	C 	0.19623	0.80377	0.33857	0.367
Mof_C 	C 	0.66143	0.33857	0.80377	0.367
Mof_C 	C 	0.33857	0.66143	0.19623	0.367
Mof_C 	C 	0.80377	0.19623	0.66143	0.367
Mof_N 	N 	0.64765	0.12833	0.97155	-0.257
Mof_N 	N 	0.67072	0.16604	0.8859	-0.247
Mof_N 	N 	0.12833	0.64765	0.25247	-0.257
Mof_N 	N 	0.16604	0.67072	0.27734	-0.247
Mof_N 	N 	0.97155	0.25247	0.64765	-0.257
Mof_N 	N 	0.8859	0.27734	0.67072	-0.247
Mof_N 	N 	0.25247	0.97155	0.12833	-0.257
Mof_N 	N 	0.27734	0.8859	0.16604	-0.247
Mof_N 	N 	0.64765	0.97155	0.25247	-0.257
Mof_N 	N 	0.67072	0.8859	0.27734	-0.247
Mof_N 	N 	0.12833	0.25247	0.97155	-0.257
Mof_N 	N 	0.16604	0.27734	0.8859	-0.247
Mof_N 	N 	0.97155	0.64765	0.12833	-0.257
Mof_N 	N 	0.8859	0.67072	0.16604	-0.247
Mof_N 	N 	0.25247	0.12833	0.64765	-0.257
Mof_N 	N 	0.27734	0.16604	0.67072	-0.247
Mof_N 	N 	0.64765	0.25247	0.12833	-0.257
Mof_N 	N 	0.67072	0.27734	0.16604	-0.247
Mof_N 	N 	0.12833	0.97155	0.64765	-0.257
Mof_N 	N 	0.16604	0.8859	0.67072	-0.247
Mof_N 	N 	0.97155	0.12833	0.25247	-0.257
Mof_N 	N 	0.8859	0.16604	0.27734	-0.247
Mof_N 	N 	0.25247	0.64765	0.97155	-0.257
Mof_N 	N 	0.27734	0.67072	0.8859	-0.247
Mof_N 	N 	0.37167	0.85235	0.52845	-0.257
Mof_N 	N 	0.33396	0.82928	0.6141	-0.247
Mof_N 	N 	0.85235	0.37167	0.24753	-0.257
Mof_N 	N 	0.82928	0.33396	0.22266	-0.247
Mof_N 	N 	0.24753	0.52845	0.85235	-0.257
Mof_N 	N 	0.22266	0.6141	0.82928	-0.247
Mof_N 	N 	0.52845	0.24753	0.37167	-0.257
Mof_N 	N 	0.6141	0.22266	0.33396	-0.247
Mof_N 	N 	0.52845	0.85235	0.24753	-0.257
Mof_N 	N 	0.6141	0.82928	0.22266	-0.247
Mof_N 	N 	0.24753	0.37167	0.52845	-0.257
Mof_N 	N 	0.22266	0.33396	0.6141	-0.247
Mof_N 	N 	0.85235	0.52845	0.37167	-0.257
Mof_N 	N 	0.82928	0.6141	0.33396	-0.247
Mof_N 	N 	0.37167	0.24753	0.85235	-0.257
Mof_N 	N 	0.33396	0.22266	0.82928	-0.247
Mof_N 	N 	0.24753	0.85235	0.37167	-0.257
Mof_N 	N 	0.22266	0.82928	0.33396	-0.247
Mof_N 	N 	0.52845	0.37167	0.85235	-0.257
Mof_N 	N 	0.6141	0.33396	0.82928	-0.247
Mof_N 	N 	0.37167	0.52845	0.24753	-0.257
Mof_N 	N 	0.33396	0.6141	0.22266	-0.247
Mof_N 	N 	0.85235	0.24753	0.52845	-0.257
Mof_N 	N 	0.82928	0.22266	0.6141	-0.247
Mof_N 	N 	0.35235	0.87167	0.02845	-0.257
Mof_N 	N 	0.32928	0.83396	0.1141	-0.247
Mof_N 	N 	0.87167	0.35235	0.74753	-0.257
Mof_N 	N 	0.83396	0.32928	0.72266	-0.247
Mof_N 	N 	0.02845	0.74753	0.35235	-0.257
Mof_N 	N 	0.1141	0.72266	0.32928	-0.247
Mof_N 	N 	0.74753	0.02845	0.87167	-0.257
Mof_N 	N 	0.72266	0.1141	0.83396	-0.247
Mof_N 	N 	0.35235	0.02845	0.74753	-0.257
Mof_N 	N 	0.32928	0.1141	0.72266	-0.247
Mof_N 	N 	0.87167	0.74753	0.02845	-0.257
Mof_N 	N 	0.83396	0.72266	0.1141	-0.247
Mof_N 	N 	0.02845	0.35235	0.87167	-0.257
Mof_N 	N 	0.1141	0.32928	0.83396	-0.247
Mof_N 	N 	0.74753	0.87167	0.35235	-0.257
Mof_N 	N 	0.72266	0.83396	0.32928	-0.247
Mof_N 	N 	0.35235	0.74753	0.87167	-0.257
Mof_N 	N 	0.32928	0.72266	0.83396	-0.247
Mof_N 	N 	0.87167	0.02845	0.35235	-0.257
Mof_N 	N 	0.83396	0.1141	0.32928	-0.247
Mof_N 	N 	0.02845	0.87167	0.74753	-0.257
Mof_N 	N 	0.1141	0.83396	0.72266	-0.247
Mof_N 	N 	0.74753	0.35235	0.02845	-0.257
Mof_N 	N 	0.72266	0.32928	0.1141	-0.247
Mof_N 	N 	0.62833	0.14765	0.47155	-0.257
Mof_N 	N 	0.66604	0.17072	0.3859	-0.247
Mof_N 	N 	0.14765	0.62833	0.75247	-0.257
Mof_N 	N 	0.17072	0.66604	0.77734	-0.247
Mof_N 	N 	0.75247	0.47155	0.14765	-0.257
Mof_N 	N 	0.77734	0.3859	0.17072	-0.247
Mof_N 	N 	0.47155	0.75247	0.62833	-0.257
Mof_N 	N 	0.3859	0.77734	0.66604	-0.247
Mof_N 	N 	0.47155	0.14765	0.75247	-0.257
Mof_N 	N 	0.3859	0.17072	0.77734	-0.247
Mof_N 	N 	0.75247	0.62833	0.47155	-0.257
Mof_N 	N 	0.77734	0.66604	0.3859	-0.247
Mof_N 	N 	0.14765	0.47155	0.62833	-0.257
Mof_N 	N 	0.17072	0.3859	0.66604	-0.247
Mof_N 	N 	0.62833	0.75247	0.14765	-0.257
Mof_N 	N 	0.66604	0.77734	0.17072	-0.247
Mof_N 	N 	0.75247	0.14765	0.62833	-0.257
Mof_N 	N 	0.77734	0.17072	0.66604	-0.247
Mof_N 	N 	0.47155	0.62833	0.14765	-0.257
Mof_N 	N 	0.3859	0.66604	0.17072	-0.247
Mof_N 	N 	0.62833	0.47155	0.75247	-0.257
Mof_N 	N 	0.66604	0.3859	0.77734	-0.247
Mof_N 	N 	0.14765	0.75247	0.47155	-0.257
Mof_N 	N 	0.17072	0.77734	0.3859	-0.247
Mof_N 	N 	0.69784	0.07596	0.92404	-0.191
Mof_N 	N 	0.07596	0.69784	0.30216	-0.191
Mof_N 	N 	0.92404	0.30216	0.69784	-0.191
Mof_N 	N 	0.30216	0.92404	0.07596	-0.191
Mof_N 	N 	0.69784	0.92404	0.30216	-0.191
Mof_N 	N 	0.07596	0.30216	0.92404	-0.191
Mof_N 	N 	0.92404	0.69784	0.07596	-0.191
Mof_N 	N 	0.30216	0.07596	0.69784	-0.191
Mof_N 	N 	0.69784	0.30216	0.07596	-0.191
Mof_N 	N 	0.07596	0.92404	0.69784	-0.191
Mof_N 	N 	0.92404	0.07596	0.30216	-0.191
Mof_N 	N 	0.30216	0.69784	0.92404	-0.191
Mof_N 	N 	0.42404	0.80216	0.57596	-0.191
Mof_N 	N 	0.80216	0.42404	0.19784	-0.191
Mof_N 	N 	0.19784	0.57596	0.80216	-0.191
Mof_N 	N 	0.57596	0.19784	0.42404	-0.191
Mof_N 	N 	0.57596	0.80216	0.19784	-0.191
Mof_N 	N 	0.19784	0.42404	0.57596	-0.191
Mof_N 	N 	0.80216	0.57596	0.42404	-0.191
Mof_N 	N 	0.42404	0.19784	0.80216	-0.191
Mof_N 	N 	0.19784	0.80216	0.42404	-0.191
Mof_N 	N 	0.57596	0.42404	0.80216	-0.191
Mof_N 	N 	0.42404	0.57596	0.19784	-0.191
Mof_N 	N 	0.80216	0.19784	0.57596	-0.191
Mof_O 	O 	0.65966	0.92262	0.16574	-0.333
Mof_O 	O 	0.59551	0.97309	0.20191	-0.32
Mof_O 	O 	0.92262	0.65966	0.25198	-0.333
Mof_O 	O 	0.97309	0.59551	0.22949	-0.32
Mof_O 	O 	0.16574	0.25198	0.65966	-0.333
Mof_O 	O 	0.20191	0.22949	0.59551	-0.32
Mof_O 	O 	0.25198	0.16574	0.92262	-0.333
Mof_O 	O 	0.22949	0.20191	0.97309	-0.32
Mof_O 	O 	0.65966	0.16574	0.25198	-0.333
Mof_O 	O 	0.59551	0.20191	0.22949	-0.32
Mof_O 	O 	0.92262	0.25198	0.16574	-0.333
Mof_O 	O 	0.97309	0.22949	0.20191	-0.32
Mof_O 	O 	0.16574	0.65966	0.92262	-0.333
Mof_O 	O 	0.20191	0.59551	0.97309	-0.32
Mof_O 	O 	0.25198	0.92262	0.65966	-0.333
Mof_O 	O 	0.22949	0.97309	0.59551	-0.32
Mof_O 	O 	0.65966	0.25198	0.92262	-0.333
Mof_O 	O 	0.59551	0.22949	0.97309	-0.32
Mof_O 	O 	0.92262	0.16574	0.65966	-0.333
Mof_O 	O 	0.97309	0.20191	0.59551	-0.32
Mof_O 	O 	0.16574	0.92262	0.25198	-0.333
Mof_O 	O 	0.20191	0.97309	0.22949	-0.32
Mof_O 	O 	0.25198	0.65966	0.16574	-0.333
Mof_O 	O 	0.22949	0.59551	0.20191	-0.32
Mof_O 	O 	0.57738	0.84034	0.33426	-0.333
Mof_O 	O 	0.52691	0.90449	0.29809	-0.32
Mof_O 	O 	0.84034	0.57738	0.24802	-0.333
Mof_O 	O 	0.90449	0.52691	0.27051	-0.32
Mof_O 	O 	0.24802	0.33426	0.84034	-0.333
Mof_O 	O 	0.27051	0.29809	0.90449	-0.32
Mof_O 	O 	0.33426	0.24802	0.57738	-0.333
Mof_O 	O 	0.29809	0.27051	0.52691	-0.32
Mof_O 	O 	0.33426	0.84034	0.24802	-0.333
Mof_O 	O 	0.29809	0.90449	0.27051	-0.32
Mof_O 	O 	0.24802	0.57738	0.33426	-0.333
Mof_O 	O 	0.27051	0.52691	0.29809	-0.32
Mof_O 	O 	0.84034	0.33426	0.57738	-0.333
Mof_O 	O 	0.90449	0.29809	0.52691	-0.32
Mof_O 	O 	0.57738	0.24802	0.84034	-0.333
Mof_O 	O 	0.52691	0.27051	0.90449	-0.32
Mof_O 	O 	0.24802	0.84034	0.57738	-0.333
Mof_O 	O 	0.27051	0.90449	0.52691	-0.32
Mof_O 	O 	0.33426	0.57738	0.84034	-0.333
Mof_O 	O 	0.29809	0.52691	0.90449	-0.32
Mof_O 	O 	0.57738	0.33426	0.24802	-0.333
Mof_O 	O 	0.52691	0.29809	0.27051	-0.32
Mof_O 	O 	0.84034	0.24802	0.33426	-0.333
Mof_O 	O 	0.90449	0.27051	0.29809	-0.32
Mof_O 	O 	0.34034	0.07738	0.83426	-0.333
Mof_O 	O 	0.40449	0.02691	0.79809	-0.32
Mof_O 	O 	0.07738	0.34034	0.74802	-0.333
Mof_O 	O 	0.02691	0.40449	0.77051	-0.32
Mof_O 	O 	0.83426	0.74802	0.34034	-0.333
Mof_O 	O 	0.79809	0.77051	0.40449	-0.32
Mof_O 	O 	0.74802	0.83426	0.07738	-0.333
Mof_O 	O 	0.77051	0.79809	0.02691	-0.32
Mof_O 	O 	0.34034	0.83426	0.74802	-0.333
Mof_O 	O 	0.40449	0.79809	0.77051	-0.32
Mof_O 	O 	0.07738	0.74802	0.83426	-0.333
Mof_O 	O 	0.02691	0.77051	0.79809	-0.32
Mof_O 	O 	0.83426	0.34034	0.07738	-0.333
Mof_O 	O 	0.79809	0.40449	0.02691	-0.32
Mof_O 	O 	0.74802	0.07738	0.34034	-0.333
Mof_O 	O 	0.77051	0.02691	0.40449	-0.32
Mof_O 	O 	0.34034	0.74802	0.07738	-0.333
Mof_O 	O 	0.40449	0.77051	0.02691	-0.32
Mof_O 	O 	0.07738	0.83426	0.34034	-0.333
Mof_O 	O 	0.02691	0.79809	0.40449	-0.32
Mof_O 	O 	0.83426	0.07738	0.74802	-0.333
Mof_O 	O 	0.79809	0.02691	0.77051	-0.32
Mof_O 	O 	0.74802	0.34034	0.83426	-0.333
Mof_O 	O 	0.77051	0.40449	0.79809	-0.32
Mof_O 	O 	0.42262	0.15966	0.66574	-0.333
Mof_O 	O 	0.47309	0.09551	0.70191	-0.32
Mof_O 	O 	0.15966	0.42262	0.75198	-0.333
Mof_O 	O 	0.09551	0.47309	0.72949	-0.32
Mof_O 	O 	0.75198	0.66574	0.15966	-0.333
Mof_O 	O 	0.72949	0.70191	0.09551	-0.32
Mof_O 	O 	0.66574	0.75198	0.42262	-0.333
Mof_O 	O 	0.70191	0.72949	0.47309	-0.32
Mof_O 	O 	0.66574	0.15966	0.75198	-0.333
Mof_O 	O 	0.70191	0.09551	0.72949	-0.32
Mof_O 	O 	0.75198	0.42262	0.66574	-0.333
Mof_O 	O 	0.72949	0.47309	0.70191	-0.32
Mof_O 	O 	0.15966	0.66574	0.42262	-0.333
Mof_O 	O 	0.09551	0.70191	0.47309	-0.32
Mof_O 	O 	0.42262	0.75198	0.15966	-0.333
Mof_O 	O 	0.47309	0.72949	0.09551	-0.32
Mof_O 	O 	0.75198	0.15966	0.42262	-0.333
Mof_O 	O 	0.72949	0.09551	0.47309	-0.32
Mof_O 	O 	0.66574	0.42262	0.15966	-0.333
Mof_O 	O 	0.70191	0.47309	0.09551	-0.32
Mof_O 	O 	0.42262	0.66574	0.75198	-0.333
Mof_O 	O 	0.47309	0.70191	0.72949	-0.32
Mof_O 	O 	0.15966	0.75198	0.66574	-0.333
Mof_O 	O 	0.09551	0.72949	0.70191	-0.32
Mof_O 	O 	0.69642	0.19998	0.80002	-0.656
Mof_O 	O 	0.19998	0.69642	0.30358	-0.656
Mof_O 	O 	0.80002	0.30358	0.69642	-0.656
Mof_O 	O 	0.30358	0.80002	0.19998	-0.656
Mof_O 	O 	0.69642	0.80002	0.30358	-0.656
Mof_O 	O 	0.19998	0.30358	0.80002	-0.656
Mof_O 	O 	0.80002	0.69642	0.19998	-0.656
Mof_O 	O 	0.30358	0.19998	0.69642	-0.656
Mof_O 	O 	0.69642	0.30358	0.19998	-0.656
Mof_O 	O 	0.19998	0.80002	0.69642	-0.656
Mof_O 	O 	0.80002	0.19998	0.30358	-0.656
Mof_O 	O 	0.30358	0.69642	0.80002	-0.656
Mof_O 	O 	0.30002	0.80358	0.69998	-0.656
Mof_O 	O 	0.80358	0.30002	0.19642	-0.656
Mof_O 	O 	0.19642	0.69998	0.80358	-0.656
Mof_O 	O 	0.69998	0.19642	0.30002	-0.656
Mof_O 	O 	0.69998	0.80358	0.19642	-0.656
Mof_O 	O 	0.19642	0.30002	0.69998	-0.656
Mof_O 	O 	0.80358	0.69998	0.30002	-0.656
Mof_O 	O 	0.30002	0.19642	0.80358	-0.656
Mof_O 	O 	0.19642	0.80358	0.30002	-0.656
Mof_O 	O 	0.69998	0.30002	0.80358	-0.656
Mof_O 	O 	0.30002	0.69998	0.19642	-0.656
Mof_O 	O 	0.80358	0.19642	0.69998	-0.656
_end
