data_functionalizedCrystal
_audit_creation_method	'EQeq! by Chris Wilmer'
_symmetry_space_group_name_H-M	'P1'
_symmetry_Int_Tables_number	1
_symmetry_cell_setting	triclinic
loop_
_symmetry_equiv_pos_as_xyz
  x,y,z
_cell_length_a	33.4232
_cell_length_b	33.4232
_cell_length_c	33.4232
_cell_angle_alpha	60.4952
_cell_angle_beta	60.4952
_cell_angle_gamma	60.4952
loop_
_atom_site_label
_atom_site_type_symbol
_atom_site_fract_x
_atom_site_fract_y
_atom_site_fract_z
_atom_site_charge
Mof_Cu	Cu	0.13286	0.59423	0.05462	0.919
Mof_Cu	Cu	0.05462	0.13286	0.59423	0.919
Mof_Cu	Cu	0.59423	0.05462	0.13286	0.919
Mof_Cu	Cu	0.59423	0.13286	0.05462	0.919
Mof_Cu	Cu	0.13286	0.05462	0.59423	0.919
Mof_Cu	Cu	0.05462	0.59423	0.13286	0.919
Mof_Cu	Cu	0.05553	0.5931	0.5931	0.92
Mof_Cu	Cu	0.133	0.59467	0.59467	0.903
Mof_Cu	Cu	0.5931	0.05553	0.5931	0.92
Mof_Cu	Cu	0.59467	0.133	0.59467	0.903
Mof_Cu	Cu	0.5931	0.5931	0.05553	0.92
Mof_Cu	Cu	0.59467	0.59467	0.133	0.903
Mof_H 	H 	0.9725	0.5655	0.0881	0.022
Mof_H 	H 	0.9325	0.5657	0.0481	0.076
Mof_H 	H 	0.0145	0.5671	0.8963	0.061
Mof_H 	H 	0.0291	0.6034	0.8175	0.07
Mof_H 	H 	0.0703	0.6047	0.7384	0.03
Mof_H 	H 	0.9499	0.5335	0.8349	0.084
Mof_H 	H 	0.9887	0.5388	0.7542	0.033
Mof_H 	H 	0.1009	0.6199	0.2147	0.013
Mof_H 	H 	0.1386	0.6264	0.253	0.088
Mof_H 	H 	0.1724	0.6217	0.2911	0.053
Mof_H 	H 	0.1514	0.5932	0.3685	0.076
Mof_H 	H 	0.1132	0.59	0.4477	0.023
Mof_H 	H 	0.2132	0.6272	0.4392	0.023
Mof_H 	H 	0.2504	0.634	0.3583	0.076
Mof_H 	H 	0.969	0.7462	0.084	0.012
Mof_H 	H 	0.9302	0.8246	0.0459	0.092
Mof_H 	H 	0.1057	0.4441	0.2227	0.023
Mof_H 	H 	0.1458	0.3669	0.2619	0.081
Mof_H 	H 	0.292	0.6014	0.8722	0.027
Mof_H 	H 	0.1745	0.5611	0.9712	0.025
Mof_H 	H 	0.2378	0.5631	0.8969	0.073
Mof_H 	H 	0.2838	0.6368	0.9218	0.071
Mof_H 	H 	0.2202	0.6346	0.996	0.021
Mof_H 	H 	0.0881	0.9725	0.5655	0.022
Mof_H 	H 	0.0481	0.9325	0.5657	0.076
Mof_H 	H 	0.8963	0.0145	0.5671	0.061
Mof_H 	H 	0.8175	0.0291	0.6034	0.07
Mof_H 	H 	0.7384	0.0703	0.6047	0.03
Mof_H 	H 	0.8349	0.9499	0.5335	0.084
Mof_H 	H 	0.7542	0.9887	0.5388	0.033
Mof_H 	H 	0.2147	0.1009	0.6199	0.013
Mof_H 	H 	0.253	0.1386	0.6264	0.088
Mof_H 	H 	0.2911	0.1724	0.6217	0.053
Mof_H 	H 	0.3685	0.1514	0.5932	0.076
Mof_H 	H 	0.4477	0.1132	0.59	0.023
Mof_H 	H 	0.4392	0.2132	0.6272	0.023
Mof_H 	H 	0.3583	0.2504	0.634	0.075
Mof_H 	H 	0.084	0.969	0.7462	0.011
Mof_H 	H 	0.0459	0.9302	0.8246	0.091
Mof_H 	H 	0.2227	0.1057	0.4441	0.022
Mof_H 	H 	0.2619	0.1458	0.3669	0.08
Mof_H 	H 	0.8722	0.292	0.6014	0.026
Mof_H 	H 	0.9712	0.1745	0.5611	0.024
Mof_H 	H 	0.8969	0.2378	0.5631	0.072
Mof_H 	H 	0.9218	0.2838	0.6368	0.07
Mof_H 	H 	0.996	0.2202	0.6346	0.02
Mof_H 	H 	0.5655	0.0881	0.9725	0.021
Mof_H 	H 	0.5657	0.0481	0.9325	0.075
Mof_H 	H 	0.5671	0.8963	0.0145	0.06
Mof_H 	H 	0.6034	0.8175	0.0291	0.069
Mof_H 	H 	0.6047	0.7384	0.0703	0.029
Mof_H 	H 	0.5335	0.8349	0.9499	0.083
Mof_H 	H 	0.5388	0.7542	0.9887	0.032
Mof_H 	H 	0.6199	0.2147	0.1009	0.012
Mof_H 	H 	0.6264	0.253	0.1386	0.087
Mof_H 	H 	0.6217	0.2911	0.1724	0.052
Mof_H 	H 	0.5932	0.3685	0.1514	0.075
Mof_H 	H 	0.59	0.4477	0.1132	0.022
Mof_H 	H 	0.6272	0.4392	0.2132	0.022
Mof_H 	H 	0.634	0.3583	0.2504	0.075
Mof_H 	H 	0.7462	0.084	0.969	0.011
Mof_H 	H 	0.8246	0.0459	0.9302	0.091
Mof_H 	H 	0.4441	0.2227	0.1057	0.022
Mof_H 	H 	0.3669	0.2619	0.1458	0.08
Mof_H 	H 	0.6014	0.8722	0.292	0.026
Mof_H 	H 	0.5611	0.9712	0.1745	0.024
Mof_H 	H 	0.5631	0.8969	0.2378	0.072
Mof_H 	H 	0.6368	0.9218	0.2838	0.07
Mof_H 	H 	0.6346	0.996	0.2202	0.02
Mof_H 	H 	0.5655	0.9725	0.0881	0.021
Mof_H 	H 	0.5657	0.9325	0.0481	0.075
Mof_H 	H 	0.5671	0.0145	0.8963	0.06
Mof_H 	H 	0.6034	0.0291	0.8175	0.069
Mof_H 	H 	0.6047	0.0703	0.7384	0.029
Mof_H 	H 	0.5335	0.9499	0.8349	0.083
Mof_H 	H 	0.5388	0.9887	0.7542	0.032
Mof_H 	H 	0.6199	0.1009	0.2147	0.012
Mof_H 	H 	0.6264	0.1386	0.253	0.087
Mof_H 	H 	0.6217	0.1724	0.2911	0.052
Mof_H 	H 	0.5932	0.1514	0.3685	0.075
Mof_H 	H 	0.59	0.1132	0.4477	0.022
Mof_H 	H 	0.6272	0.2132	0.4392	0.022
Mof_H 	H 	0.634	0.2504	0.3583	0.075
Mof_H 	H 	0.7462	0.969	0.084	0.011
Mof_H 	H 	0.8246	0.9302	0.0459	0.091
Mof_H 	H 	0.4441	0.1057	0.2227	0.022
Mof_H 	H 	0.3669	0.1458	0.2619	0.08
Mof_H 	H 	0.6014	0.292	0.8722	0.026
Mof_H 	H 	0.5611	0.1745	0.9712	0.024
Mof_H 	H 	0.5631	0.2378	0.8969	0.072
Mof_H 	H 	0.6368	0.2838	0.9218	0.07
Mof_H 	H 	0.6346	0.2202	0.996	0.02
Mof_H 	H 	0.9725	0.0881	0.5655	0.021
Mof_H 	H 	0.9325	0.0481	0.5657	0.075
Mof_H 	H 	0.0145	0.8963	0.5671	0.06
Mof_H 	H 	0.0291	0.8175	0.6034	0.069
Mof_H 	H 	0.0703	0.7384	0.6047	0.029
Mof_H 	H 	0.9499	0.8349	0.5335	0.083
Mof_H 	H 	0.9887	0.7542	0.5388	0.032
Mof_H 	H 	0.1009	0.2147	0.6199	0.012
Mof_H 	H 	0.1386	0.253	0.6264	0.087
Mof_H 	H 	0.1724	0.2911	0.6217	0.052
Mof_H 	H 	0.1514	0.3685	0.5932	0.075
Mof_H 	H 	0.1132	0.4477	0.59	0.022
Mof_H 	H 	0.2132	0.4392	0.6272	0.022
Mof_H 	H 	0.2504	0.3583	0.634	0.075
Mof_H 	H 	0.969	0.084	0.7462	0.011
Mof_H 	H 	0.9302	0.0459	0.8246	0.091
Mof_H 	H 	0.1057	0.2227	0.4441	0.022
Mof_H 	H 	0.1458	0.2619	0.3669	0.08
Mof_H 	H 	0.292	0.8722	0.6014	0.026
Mof_H 	H 	0.1745	0.9712	0.5611	0.024
Mof_H 	H 	0.2378	0.8969	0.5631	0.072
Mof_H 	H 	0.2838	0.9218	0.6368	0.07
Mof_H 	H 	0.2202	0.996	0.6346	0.02
Mof_H 	H 	0.0881	0.5655	0.9725	0.021
Mof_H 	H 	0.0481	0.5657	0.9325	0.075
Mof_H 	H 	0.8963	0.5671	0.0145	0.06
Mof_H 	H 	0.8175	0.6034	0.0291	0.069
Mof_H 	H 	0.7384	0.6047	0.0703	0.029
Mof_H 	H 	0.8349	0.5335	0.9499	0.083
Mof_H 	H 	0.7542	0.5388	0.9887	0.032
Mof_H 	H 	0.2147	0.6199	0.1009	0.012
Mof_H 	H 	0.253	0.6264	0.1386	0.087
Mof_H 	H 	0.2911	0.6217	0.1724	0.052
Mof_H 	H 	0.3685	0.5932	0.1514	0.075
Mof_H 	H 	0.4477	0.59	0.1132	0.022
Mof_H 	H 	0.4392	0.6272	0.2132	0.022
Mof_H 	H 	0.3583	0.634	0.2504	0.075
Mof_H 	H 	0.084	0.7462	0.969	0.011
Mof_H 	H 	0.0459	0.8246	0.9302	0.091
Mof_H 	H 	0.2227	0.4441	0.1057	0.022
Mof_H 	H 	0.2619	0.3669	0.1458	0.08
Mof_H 	H 	0.8722	0.6014	0.292	0.026
Mof_H 	H 	0.9712	0.5611	0.1745	0.024
Mof_H 	H 	0.8969	0.5631	0.2378	0.072
Mof_H 	H 	0.9218	0.6368	0.2838	0.07
Mof_H 	H 	0.996	0.6346	0.2202	0.02
Mof_H 	H 	0.0243	0.55175	0.55175	0.044
Mof_H 	H 	0.9454	0.5564	0.5564	-0.004
Mof_H 	H 	0.8869	0.5891	0.5891	0.089
Mof_H 	H 	0.8739	0.6337	0.6337	0.032
Mof_H 	H 	0.9475	0.63245	0.63245	0.027
Mof_H 	H 	0.55175	0.0243	0.55175	0.044
Mof_H 	H 	0.5564	0.9454	0.5564	-0.004
Mof_H 	H 	0.5891	0.8869	0.5891	0.089
Mof_H 	H 	0.6337	0.8739	0.6337	0.032
Mof_H 	H 	0.63245	0.9475	0.63245	0.027
Mof_H 	H 	0.55175	0.55175	0.0243	0.044
Mof_H 	H 	0.5564	0.5564	0.9454	-0.004
Mof_H 	H 	0.5891	0.5891	0.8869	0.089
Mof_H 	H 	0.6337	0.6337	0.8739	0.032
Mof_H 	H 	0.63245	0.63245	0.9475	0.027
Mof_H 	H 	0.8953	0.5667	0.8953	0.069
Mof_H 	H 	0.8953	0.8953	0.5667	0.069
Mof_H 	H 	0.5667	0.8953	0.8953	0.069
Mof_H 	H 	0.2943	0.6136	0.2943	0.059
Mof_H 	H 	0.2943	0.2943	0.6136	0.059
Mof_H 	H 	0.6136	0.2943	0.2943	0.059
Mof_H 	H 	0.89505	0.89505	0.0133	0.046
Mof_H 	H 	0.0133	0.89505	0.89505	0.046
Mof_H 	H 	0.89505	0.0133	0.89505	0.046
Mof_H 	H 	0.2972	0.2972	0.1781	0.053
Mof_H 	H 	0.1781	0.2972	0.2972	0.053
Mof_H 	H 	0.2972	0.1781	0.2972	0.053
Mof_C 	C 	0.98789	0.56778	0.05543	0.072
Mof_C 	C 	0.96421	0.56679	0.03147	-0.136
Mof_C 	C 	0.98265	0.5667	0.91217	-0.094
Mof_C 	C 	0.98419	0.56844	0.83617	0.05
Mof_C 	C 	0.02084	0.58998	0.80525	-0.112
Mof_C 	C 	0.0449	0.59187	0.7574	0.043
Mof_C 	C 	0.97324	0.54887	0.8156	-0.117
Mof_C 	C 	0.99669	0.55214	0.7668	0.051
Mof_C 	C 	0.03085	0.57426	0.73725	-0.118
Mof_C 	C 	0.05529	0.57937	0.68442	0.369
Mof_C 	C 	0.95935	0.56666	0.88691	0.034
Mof_C 	C 	0.13279	0.62025	0.19848	0.104
Mof_C 	C 	0.15609	0.62352	0.22207	-0.168
Mof_C 	C 	0.20475	0.62081	0.27563	-0.077
Mof_C 	C 	0.22937	0.61788	0.30146	0.018
Mof_C 	C 	0.20451	0.61524	0.35362	0.067
Mof_C 	C 	0.16397	0.6013	0.38206	-0.135
Mof_C 	C 	0.14127	0.59881	0.4299	0.067
Mof_C 	C 	0.15879	0.60873	0.45199	-0.138
Mof_C 	C 	0.20006	0.62119	0.42478	0.064
Mof_C 	C 	0.22269	0.62493	0.37612	-0.133
Mof_C 	C 	0.13374	0.60602	0.50384	0.378
Mof_C 	C 	0.9852	0.7617	0.05194	0.11
Mof_C 	C 	0.96192	0.80927	0.02912	-0.176
Mof_C 	C 	0.13766	0.42894	0.20629	0.073
Mof_C 	C 	0.16179	0.38216	0.22969	-0.141
Mof_C 	C 	0.26695	0.60028	0.90197	0.033
Mof_C 	C 	0.19707	0.5755	0.96123	0.054
Mof_C 	C 	0.23448	0.57728	0.91676	-0.103
Mof_C 	C 	0.26201	0.62151	0.93164	-0.105
Mof_C 	C 	0.22461	0.61973	0.97613	0.059
Mof_C 	C 	0.05543	0.98789	0.56778	0.072
Mof_C 	C 	0.03147	0.96421	0.56679	-0.136
Mof_C 	C 	0.91217	0.98265	0.5667	-0.094
Mof_C 	C 	0.83617	0.98419	0.56844	0.05
Mof_C 	C 	0.80525	0.02084	0.58998	-0.112
Mof_C 	C 	0.7574	0.0449	0.59187	0.043
Mof_C 	C 	0.8156	0.97324	0.54887	-0.117
Mof_C 	C 	0.7668	0.99669	0.55214	0.051
Mof_C 	C 	0.73725	0.03085	0.57426	-0.118
Mof_C 	C 	0.68442	0.05529	0.57937	0.369
Mof_C 	C 	0.88691	0.95935	0.56666	0.034
Mof_C 	C 	0.19848	0.13279	0.62025	0.104
Mof_C 	C 	0.22207	0.15609	0.62352	-0.168
Mof_C 	C 	0.27563	0.20475	0.62081	-0.077
Mof_C 	C 	0.30146	0.22937	0.61788	0.018
Mof_C 	C 	0.35362	0.20451	0.61524	0.067
Mof_C 	C 	0.38206	0.16397	0.6013	-0.135
Mof_C 	C 	0.4299	0.14127	0.59881	0.067
Mof_C 	C 	0.45199	0.15879	0.60873	-0.138
Mof_C 	C 	0.42478	0.20006	0.62119	0.064
Mof_C 	C 	0.37612	0.22269	0.62493	-0.133
Mof_C 	C 	0.50384	0.13374	0.60602	0.378
Mof_C 	C 	0.05194	0.9852	0.7617	0.11
Mof_C 	C 	0.02912	0.96192	0.80927	-0.176
Mof_C 	C 	0.20629	0.13766	0.42894	0.073
Mof_C 	C 	0.22969	0.16179	0.38216	-0.141
Mof_C 	C 	0.90197	0.26695	0.60028	0.033
Mof_C 	C 	0.96123	0.19707	0.5755	0.054
Mof_C 	C 	0.91676	0.23448	0.57728	-0.103
Mof_C 	C 	0.93164	0.26201	0.62151	-0.105
Mof_C 	C 	0.97613	0.22461	0.61973	0.059
Mof_C 	C 	0.56778	0.05543	0.98789	0.072
Mof_C 	C 	0.56679	0.03147	0.96421	-0.136
Mof_C 	C 	0.5667	0.91217	0.98265	-0.094
Mof_C 	C 	0.56844	0.83617	0.98419	0.05
Mof_C 	C 	0.58998	0.80525	0.02084	-0.112
Mof_C 	C 	0.59187	0.7574	0.0449	0.043
Mof_C 	C 	0.54887	0.8156	0.97324	-0.117
Mof_C 	C 	0.55214	0.7668	0.99669	0.051
Mof_C 	C 	0.57426	0.73725	0.03085	-0.118
Mof_C 	C 	0.57937	0.68442	0.05529	0.369
Mof_C 	C 	0.56666	0.88691	0.95935	0.034
Mof_C 	C 	0.62025	0.19848	0.13279	0.104
Mof_C 	C 	0.62352	0.22207	0.15609	-0.168
Mof_C 	C 	0.62081	0.27563	0.20475	-0.077
Mof_C 	C 	0.61788	0.30146	0.22937	0.018
Mof_C 	C 	0.61524	0.35362	0.20451	0.067
Mof_C 	C 	0.6013	0.38206	0.16397	-0.135
Mof_C 	C 	0.59881	0.4299	0.14127	0.067
Mof_C 	C 	0.60873	0.45199	0.15879	-0.138
Mof_C 	C 	0.62119	0.42478	0.20006	0.064
Mof_C 	C 	0.62493	0.37612	0.22269	-0.133
Mof_C 	C 	0.60602	0.50384	0.13374	0.378
Mof_C 	C 	0.7617	0.05194	0.9852	0.11
Mof_C 	C 	0.80927	0.02912	0.96192	-0.176
Mof_C 	C 	0.42894	0.20629	0.13766	0.073
Mof_C 	C 	0.38216	0.22969	0.16179	-0.141
Mof_C 	C 	0.60028	0.90197	0.26695	0.033
Mof_C 	C 	0.5755	0.96123	0.19707	0.054
Mof_C 	C 	0.57728	0.91676	0.23448	-0.103
Mof_C 	C 	0.62151	0.93164	0.26201	-0.105
Mof_C 	C 	0.61973	0.97613	0.22461	0.059
Mof_C 	C 	0.56778	0.98789	0.05543	0.072
Mof_C 	C 	0.56679	0.96421	0.03147	-0.136
Mof_C 	C 	0.5667	0.98265	0.91217	-0.094
Mof_C 	C 	0.56844	0.98419	0.83617	0.05
Mof_C 	C 	0.58998	0.02084	0.80525	-0.112
Mof_C 	C 	0.59187	0.0449	0.7574	0.043
Mof_C 	C 	0.54887	0.97324	0.8156	-0.117
Mof_C 	C 	0.55214	0.99669	0.7668	0.051
Mof_C 	C 	0.57426	0.03085	0.73725	-0.118
Mof_C 	C 	0.57937	0.05529	0.68442	0.369
Mof_C 	C 	0.56666	0.95935	0.88691	0.034
Mof_C 	C 	0.62025	0.13279	0.19848	0.104
Mof_C 	C 	0.62352	0.15609	0.22207	-0.168
Mof_C 	C 	0.62081	0.20475	0.27563	-0.077
Mof_C 	C 	0.61788	0.22937	0.30146	0.018
Mof_C 	C 	0.61524	0.20451	0.35362	0.067
Mof_C 	C 	0.6013	0.16397	0.38206	-0.135
Mof_C 	C 	0.59881	0.14127	0.4299	0.067
Mof_C 	C 	0.60873	0.15879	0.45199	-0.138
Mof_C 	C 	0.62119	0.20006	0.42478	0.064
Mof_C 	C 	0.62493	0.22269	0.37612	-0.133
Mof_C 	C 	0.60602	0.13374	0.50384	0.378
Mof_C 	C 	0.7617	0.9852	0.05194	0.11
Mof_C 	C 	0.80927	0.96192	0.02912	-0.176
Mof_C 	C 	0.42894	0.13766	0.20629	0.073
Mof_C 	C 	0.38216	0.16179	0.22969	-0.141
Mof_C 	C 	0.60028	0.26695	0.90197	0.033
Mof_C 	C 	0.5755	0.19707	0.96123	0.054
Mof_C 	C 	0.57728	0.23448	0.91676	-0.103
Mof_C 	C 	0.62151	0.26201	0.93164	-0.105
Mof_C 	C 	0.61973	0.22461	0.97613	0.059
Mof_C 	C 	0.98789	0.05543	0.56778	0.072
Mof_C 	C 	0.96421	0.03147	0.56679	-0.136
Mof_C 	C 	0.98265	0.91217	0.5667	-0.094
Mof_C 	C 	0.98419	0.83617	0.56844	0.05
Mof_C 	C 	0.02084	0.80525	0.58998	-0.112
Mof_C 	C 	0.0449	0.7574	0.59187	0.043
Mof_C 	C 	0.97324	0.8156	0.54887	-0.117
Mof_C 	C 	0.99669	0.7668	0.55214	0.051
Mof_C 	C 	0.03085	0.73725	0.57426	-0.118
Mof_C 	C 	0.05529	0.68442	0.57937	0.369
Mof_C 	C 	0.95935	0.88691	0.56666	0.034
Mof_C 	C 	0.13279	0.19848	0.62025	0.104
Mof_C 	C 	0.15609	0.22207	0.62352	-0.168
Mof_C 	C 	0.20475	0.27563	0.62081	-0.077
Mof_C 	C 	0.22937	0.30146	0.61788	0.018
Mof_C 	C 	0.20451	0.35362	0.61524	0.067
Mof_C 	C 	0.16397	0.38206	0.6013	-0.135
Mof_C 	C 	0.14127	0.4299	0.59881	0.067
Mof_C 	C 	0.15879	0.45199	0.60873	-0.138
Mof_C 	C 	0.20006	0.42478	0.62119	0.064
Mof_C 	C 	0.22269	0.37612	0.62493	-0.133
Mof_C 	C 	0.13374	0.50384	0.60602	0.378
Mof_C 	C 	0.9852	0.05194	0.7617	0.11
Mof_C 	C 	0.96192	0.02912	0.80927	-0.176
Mof_C 	C 	0.13766	0.20629	0.42894	0.073
Mof_C 	C 	0.16179	0.22969	0.38216	-0.141
Mof_C 	C 	0.26695	0.90197	0.60028	0.033
Mof_C 	C 	0.19707	0.96123	0.5755	0.054
Mof_C 	C 	0.23448	0.91676	0.57728	-0.103
Mof_C 	C 	0.26201	0.93164	0.62151	-0.105
Mof_C 	C 	0.22461	0.97613	0.61973	0.059
Mof_C 	C 	0.05543	0.56778	0.98789	0.072
Mof_C 	C 	0.03147	0.56679	0.96421	-0.136
Mof_C 	C 	0.91217	0.5667	0.98265	-0.094
Mof_C 	C 	0.83617	0.56844	0.98419	0.05
Mof_C 	C 	0.80525	0.58998	0.02084	-0.112
Mof_C 	C 	0.7574	0.59187	0.0449	0.043
Mof_C 	C 	0.8156	0.54887	0.97324	-0.117
Mof_C 	C 	0.7668	0.55214	0.99669	0.051
Mof_C 	C 	0.73725	0.57426	0.03085	-0.118
Mof_C 	C 	0.68442	0.57937	0.05529	0.369
Mof_C 	C 	0.88691	0.56666	0.95935	0.034
Mof_C 	C 	0.19848	0.62025	0.13279	0.104
Mof_C 	C 	0.22207	0.62352	0.15609	-0.168
Mof_C 	C 	0.27563	0.62081	0.20475	-0.077
Mof_C 	C 	0.30146	0.61788	0.22937	0.018
Mof_C 	C 	0.35362	0.61524	0.20451	0.067
Mof_C 	C 	0.38206	0.6013	0.16397	-0.135
Mof_C 	C 	0.4299	0.59881	0.14127	0.067
Mof_C 	C 	0.45199	0.60873	0.15879	-0.138
Mof_C 	C 	0.42478	0.62119	0.20006	0.064
Mof_C 	C 	0.37612	0.62493	0.22269	-0.133
Mof_C 	C 	0.50384	0.60602	0.13374	0.378
Mof_C 	C 	0.05194	0.7617	0.9852	0.11
Mof_C 	C 	0.02912	0.80927	0.96192	-0.176
Mof_C 	C 	0.20629	0.42894	0.13766	0.073
Mof_C 	C 	0.22969	0.38216	0.16179	-0.141
Mof_C 	C 	0.90197	0.60028	0.26695	0.033
Mof_C 	C 	0.96123	0.5755	0.19707	0.054
Mof_C 	C 	0.91676	0.57728	0.23448	-0.103
Mof_C 	C 	0.93164	0.62151	0.26201	-0.105
Mof_C 	C 	0.97613	0.61973	0.22461	0.059
Mof_C 	C 	0.99465	0.56936	0.56936	-0.02
Mof_C 	C 	0.94445	0.57287	0.57286	0.1
Mof_C 	C 	0.91385	0.58996	0.58996	-0.175
Mof_C 	C 	0.90487	0.61691	0.61691	-0.006
Mof_C 	C 	0.94995	0.61556	0.61556	0.028
Mof_C 	C 	0.56936	0.99465	0.56936	-0.02
Mof_C 	C 	0.57286	0.94445	0.57286	0.1
Mof_C 	C 	0.58996	0.91385	0.58996	-0.175
Mof_C 	C 	0.61691	0.90487	0.61691	-0.006
Mof_C 	C 	0.61556	0.94995	0.61556	0.028
Mof_C 	C 	0.56936	0.56936	0.99465	-0.02
Mof_C 	C 	0.57287	0.57286	0.94445	0.1
Mof_C 	C 	0.58996	0.58996	0.91385	-0.175
Mof_C 	C 	0.61691	0.61691	0.90487	-0.006
Mof_C 	C 	0.61556	0.61556	0.94995	0.028
Mof_C 	C 	0.05666	0.5765	0.05666	0.368
Mof_C 	C 	0.03243	0.57189	0.03243	-0.139
Mof_C 	C 	0.98539	0.56721	0.98539	0.075
Mof_C 	C 	0.95981	0.56614	0.95981	0.027
Mof_C 	C 	0.91139	0.56665	0.91139	-0.098
Mof_C 	C 	0.05441	0.68411	0.05441	0.389
Mof_C 	C 	0.02997	0.73674	0.02997	-0.17
Mof_C 	C 	0.9834	0.83432	0.9834	0.112
Mof_C 	C 	0.95821	0.88632	0.95821	-0.008
Mof_C 	C 	0.13415	0.50498	0.13415	0.37
Mof_C 	C 	0.15945	0.45354	0.15945	-0.142
Mof_C 	C 	0.20789	0.35705	0.20789	0.08
Mof_C 	C 	0.2337	0.30635	0.2337	0.011
Mof_C 	C 	0.05666	0.05666	0.5765	0.368
Mof_C 	C 	0.03243	0.03243	0.57189	-0.139
Mof_C 	C 	0.98539	0.98539	0.56721	0.075
Mof_C 	C 	0.95981	0.95981	0.56614	0.027
Mof_C 	C 	0.91139	0.91139	0.56665	-0.098
Mof_C 	C 	0.05441	0.05441	0.68411	0.389
Mof_C 	C 	0.02997	0.02997	0.73674	-0.17
Mof_C 	C 	0.9834	0.9834	0.83432	0.112
Mof_C 	C 	0.95821	0.95821	0.88632	-0.008
Mof_C 	C 	0.13415	0.13415	0.50498	0.37
Mof_C 	C 	0.15945	0.15945	0.45354	-0.142
Mof_C 	C 	0.20789	0.20789	0.35705	0.08
Mof_C 	C 	0.2337	0.2337	0.30635	0.011
Mof_C 	C 	0.5765	0.05666	0.05666	0.368
Mof_C 	C 	0.57189	0.03243	0.03243	-0.139
Mof_C 	C 	0.56721	0.98539	0.98539	0.075
Mof_C 	C 	0.56614	0.95981	0.95981	0.027
Mof_C 	C 	0.56665	0.91139	0.91139	-0.098
Mof_C 	C 	0.68411	0.05441	0.05441	0.389
Mof_C 	C 	0.73674	0.02997	0.02997	-0.17
Mof_C 	C 	0.83432	0.9834	0.9834	0.112
Mof_C 	C 	0.88632	0.95821	0.95821	-0.008
Mof_C 	C 	0.50498	0.13415	0.13415	0.37
Mof_C 	C 	0.45354	0.15945	0.15945	-0.142
Mof_C 	C 	0.35705	0.20789	0.20789	0.08
Mof_C 	C 	0.30635	0.2337	0.2337	0.011
Mof_C 	C 	0.1306	0.61214	0.1306	0.392
Mof_C 	C 	0.15472	0.61766	0.15472	-0.171
Mof_C 	C 	0.2017	0.62264	0.2017	0.107
Mof_C 	C 	0.22759	0.62216	0.22759	0.004
Mof_C 	C 	0.2775	0.61612	0.2775	-0.086
Mof_C 	C 	0.1306	0.1306	0.61214	0.392
Mof_C 	C 	0.15472	0.15472	0.61766	-0.171
Mof_C 	C 	0.2017	0.2017	0.62264	0.107
Mof_C 	C 	0.22759	0.22759	0.62216	0.004
Mof_C 	C 	0.2775	0.2775	0.61612	-0.086
Mof_C 	C 	0.61214	0.1306	0.1306	0.392
Mof_C 	C 	0.61766	0.15472	0.15472	-0.171
Mof_C 	C 	0.62264	0.2017	0.2017	0.107
Mof_C 	C 	0.62216	0.22759	0.22759	0.004
Mof_C 	C 	0.61612	0.2775	0.2775	-0.086
Mof_C 	C 	0.91087	0.91087	0.98127	-0.058
Mof_C 	C 	0.98127	0.91087	0.91087	-0.058
Mof_C 	C 	0.91087	0.98127	0.91087	-0.058
Mof_C 	C 	0.28151	0.28151	0.21026	-0.076
Mof_C 	C 	0.21026	0.28151	0.28151	-0.076
Mof_C 	C 	0.28151	0.21026	0.28151	-0.076
Mof_N 	N 	0.19453	0.59529	0.98985	-0.179
Mof_N 	N 	0.98985	0.19453	0.59529	-0.179
Mof_N 	N 	0.59529	0.98985	0.19453	-0.179
Mof_N 	N 	0.59529	0.19453	0.98985	-0.179
Mof_N 	N 	0.19453	0.98985	0.59529	-0.179
Mof_N 	N 	0.98985	0.59529	0.19453	-0.179
Mof_N 	N 	0.99185	0.59296	0.59296	-0.166
Mof_N 	N 	0.59296	0.99185	0.59296	-0.166
Mof_N 	N 	0.59296	0.59296	0.99185	-0.166
Mof_O 	O 	0.09912	0.57879	0.03267	-0.406
Mof_O 	O 	0.03227	0.58079	0.66333	-0.404
Mof_O 	O 	0.09714	0.58328	0.66458	-0.409
Mof_O 	O 	0.15488	0.60941	0.08874	-0.41
Mof_O 	O 	0.15716	0.60621	0.52436	-0.409
Mof_O 	O 	0.0922	0.60377	0.52321	-0.409
Mof_O 	O 	0.09646	0.66381	0.03038	-0.406
Mof_O 	O 	0.15773	0.52501	0.09147	-0.405
Mof_O 	O 	0.03267	0.09912	0.57879	-0.406
Mof_O 	O 	0.66333	0.03227	0.58079	-0.404
Mof_O 	O 	0.66458	0.09714	0.58328	-0.409
Mof_O 	O 	0.08874	0.15488	0.60941	-0.41
Mof_O 	O 	0.52436	0.15716	0.60621	-0.409
Mof_O 	O 	0.52321	0.0922	0.60377	-0.409
Mof_O 	O 	0.03038	0.09646	0.66381	-0.406
Mof_O 	O 	0.09147	0.15773	0.52501	-0.405
Mof_O 	O 	0.57879	0.03267	0.09912	-0.406
Mof_O 	O 	0.58079	0.66333	0.03227	-0.404
Mof_O 	O 	0.58328	0.66458	0.09714	-0.409
Mof_O 	O 	0.60941	0.08874	0.15488	-0.41
Mof_O 	O 	0.60621	0.52436	0.15716	-0.409
Mof_O 	O 	0.60377	0.52321	0.0922	-0.409
Mof_O 	O 	0.66381	0.03038	0.09646	-0.406
Mof_O 	O 	0.52501	0.09147	0.15773	-0.405
Mof_O 	O 	0.57879	0.09912	0.03267	-0.406
Mof_O 	O 	0.58079	0.03227	0.66333	-0.404
Mof_O 	O 	0.58328	0.09714	0.66458	-0.409
Mof_O 	O 	0.60941	0.15488	0.08874	-0.41
Mof_O 	O 	0.60621	0.15716	0.52436	-0.409
Mof_O 	O 	0.60377	0.0922	0.52321	-0.409
Mof_O 	O 	0.66381	0.09646	0.03038	-0.406
Mof_O 	O 	0.52501	0.15773	0.09147	-0.405
Mof_O 	O 	0.09912	0.03267	0.57879	-0.406
Mof_O 	O 	0.03227	0.66333	0.58079	-0.404
Mof_O 	O 	0.09714	0.66458	0.58328	-0.409
Mof_O 	O 	0.15488	0.08874	0.60941	-0.41
Mof_O 	O 	0.15716	0.52436	0.60621	-0.409
Mof_O 	O 	0.0922	0.52321	0.60377	-0.409
Mof_O 	O 	0.09646	0.03038	0.66381	-0.406
Mof_O 	O 	0.15773	0.09147	0.52501	-0.405
Mof_O 	O 	0.03267	0.57879	0.09912	-0.406
Mof_O 	O 	0.66333	0.58079	0.03227	-0.404
Mof_O 	O 	0.66458	0.58328	0.09714	-0.409
Mof_O 	O 	0.08874	0.60941	0.15488	-0.41
Mof_O 	O 	0.52436	0.60621	0.15716	-0.409
Mof_O 	O 	0.52321	0.60377	0.0922	-0.409
Mof_O 	O 	0.03038	0.66381	0.09646	-0.406
Mof_O 	O 	0.09147	0.52501	0.15773	-0.405
Mof_Cu	Cu	0.40577	0.86714	0.94538	0.918
Mof_Cu	Cu	0.86714	0.94538	0.40577	0.918
Mof_Cu	Cu	0.94538	0.40577	0.86714	0.918
Mof_Cu	Cu	0.86714	0.40577	0.94538	0.918
Mof_Cu	Cu	0.94538	0.86714	0.40577	0.918
Mof_Cu	Cu	0.40577	0.94538	0.86714	0.918
Mof_Cu	Cu	0.4069	0.94447	0.4069	0.919
Mof_Cu	Cu	0.40533	0.867	0.40533	0.902
Mof_Cu	Cu	0.94447	0.4069	0.4069	0.919
Mof_Cu	Cu	0.867	0.40533	0.40533	0.902
Mof_Cu	Cu	0.4069	0.4069	0.94447	0.919
Mof_Cu	Cu	0.40533	0.40533	0.867	0.902
Mof_H 	H 	0.4345	0.0275	0.9119	0.021
Mof_H 	H 	0.4343	0.0675	0.9519	0.075
Mof_H 	H 	0.4329	0.9855	0.1037	0.06
Mof_H 	H 	0.3966	0.9709	0.1825	0.069
Mof_H 	H 	0.3953	0.9297	0.2616	0.029
Mof_H 	H 	0.4665	0.0501	0.1651	0.083
Mof_H 	H 	0.4612	0.0113	0.2458	0.032
Mof_H 	H 	0.3801	0.8991	0.7853	0.012
Mof_H 	H 	0.3736	0.8614	0.747	0.087
Mof_H 	H 	0.3783	0.8276	0.7089	0.052
Mof_H 	H 	0.4068	0.8486	0.6315	0.075
Mof_H 	H 	0.41	0.8868	0.5523	0.022
Mof_H 	H 	0.3728	0.7868	0.5608	0.022
Mof_H 	H 	0.366	0.7496	0.6417	0.075
Mof_H 	H 	0.2538	0.031	0.916	0.011
Mof_H 	H 	0.1754	0.0698	0.9541	0.091
Mof_H 	H 	0.5559	0.8943	0.7773	0.022
Mof_H 	H 	0.6331	0.8542	0.7381	0.08
Mof_H 	H 	0.3986	0.708	0.1278	0.026
Mof_H 	H 	0.4389	0.8255	0.0288	0.024
Mof_H 	H 	0.4369	0.7622	0.1031	0.072
Mof_H 	H 	0.3632	0.7162	0.0782	0.07
Mof_H 	H 	0.3654	0.7798	0.004	0.02
Mof_H 	H 	0.0275	0.9119	0.4345	0.021
Mof_H 	H 	0.0675	0.9519	0.4343	0.075
Mof_H 	H 	0.9855	0.1037	0.4329	0.06
Mof_H 	H 	0.9709	0.1825	0.3966	0.069
Mof_H 	H 	0.9297	0.2616	0.3953	0.029
Mof_H 	H 	0.0501	0.1651	0.4665	0.083
Mof_H 	H 	0.0113	0.2458	0.4612	0.032
Mof_H 	H 	0.8991	0.7853	0.3801	0.012
Mof_H 	H 	0.8614	0.747	0.3736	0.087
Mof_H 	H 	0.8276	0.7089	0.3783	0.052
Mof_H 	H 	0.8486	0.6315	0.4068	0.075
Mof_H 	H 	0.8868	0.5523	0.41	0.022
Mof_H 	H 	0.7868	0.5608	0.3728	0.022
Mof_H 	H 	0.7496	0.6417	0.366	0.075
Mof_H 	H 	0.031	0.916	0.2538	0.011
Mof_H 	H 	0.0698	0.9541	0.1754	0.091
Mof_H 	H 	0.8943	0.7773	0.5559	0.022
Mof_H 	H 	0.8542	0.7381	0.6331	0.08
Mof_H 	H 	0.708	0.1278	0.3986	0.026
Mof_H 	H 	0.8255	0.0288	0.4389	0.024
Mof_H 	H 	0.7622	0.1031	0.4369	0.072
Mof_H 	H 	0.7162	0.0782	0.3632	0.07
Mof_H 	H 	0.7798	0.004	0.3654	0.02
Mof_H 	H 	0.9119	0.4345	0.0275	0.021
Mof_H 	H 	0.9519	0.4343	0.0675	0.075
Mof_H 	H 	0.1037	0.4329	0.9855	0.06
Mof_H 	H 	0.1825	0.3966	0.9709	0.069
Mof_H 	H 	0.2616	0.3953	0.9297	0.029
Mof_H 	H 	0.1651	0.4665	0.0501	0.083
Mof_H 	H 	0.2458	0.4612	0.0113	0.032
Mof_H 	H 	0.7853	0.3801	0.8991	0.012
Mof_H 	H 	0.747	0.3736	0.8614	0.087
Mof_H 	H 	0.7089	0.3783	0.8276	0.052
Mof_H 	H 	0.6315	0.4068	0.8486	0.075
Mof_H 	H 	0.5523	0.41	0.8868	0.022
Mof_H 	H 	0.5608	0.3728	0.7868	0.022
Mof_H 	H 	0.6417	0.366	0.7496	0.075
Mof_H 	H 	0.916	0.2538	0.031	0.011
Mof_H 	H 	0.9541	0.1754	0.0698	0.091
Mof_H 	H 	0.7773	0.5559	0.8943	0.022
Mof_H 	H 	0.7381	0.6331	0.8542	0.08
Mof_H 	H 	0.1278	0.3986	0.708	0.026
Mof_H 	H 	0.0288	0.4389	0.8255	0.024
Mof_H 	H 	0.1031	0.4369	0.7622	0.072
Mof_H 	H 	0.0782	0.3632	0.7162	0.07
Mof_H 	H 	0.004	0.3654	0.7798	0.02
Mof_H 	H 	0.0275	0.4345	0.9119	0.021
Mof_H 	H 	0.0675	0.4343	0.9519	0.075
Mof_H 	H 	0.9855	0.4329	0.1037	0.06
Mof_H 	H 	0.9709	0.3966	0.1825	0.069
Mof_H 	H 	0.9297	0.3953	0.2616	0.029
Mof_H 	H 	0.0501	0.4665	0.1651	0.083
Mof_H 	H 	0.0113	0.4612	0.2458	0.032
Mof_H 	H 	0.8991	0.3801	0.7853	0.012
Mof_H 	H 	0.8614	0.3736	0.747	0.087
Mof_H 	H 	0.8276	0.3783	0.7089	0.052
Mof_H 	H 	0.8486	0.4068	0.6315	0.075
Mof_H 	H 	0.8868	0.41	0.5523	0.022
Mof_H 	H 	0.7868	0.3728	0.5608	0.022
Mof_H 	H 	0.7496	0.366	0.6417	0.075
Mof_H 	H 	0.031	0.2538	0.916	0.011
Mof_H 	H 	0.0698	0.1754	0.9541	0.091
Mof_H 	H 	0.8943	0.5559	0.7773	0.022
Mof_H 	H 	0.8542	0.6331	0.7381	0.08
Mof_H 	H 	0.708	0.3986	0.1278	0.026
Mof_H 	H 	0.8255	0.4389	0.0288	0.024
Mof_H 	H 	0.7622	0.4369	0.1031	0.072
Mof_H 	H 	0.7162	0.3632	0.0782	0.07
Mof_H 	H 	0.7798	0.3654	0.004	0.02
Mof_H 	H 	0.9119	0.0275	0.4345	0.021
Mof_H 	H 	0.9519	0.0675	0.4343	0.075
Mof_H 	H 	0.1037	0.9855	0.4329	0.06
Mof_H 	H 	0.1825	0.9709	0.3966	0.069
Mof_H 	H 	0.2616	0.9297	0.3953	0.029
Mof_H 	H 	0.1651	0.0501	0.4665	0.083
Mof_H 	H 	0.2458	0.0113	0.4612	0.032
Mof_H 	H 	0.7853	0.8991	0.3801	0.012
Mof_H 	H 	0.747	0.8614	0.3736	0.087
Mof_H 	H 	0.7089	0.8276	0.3783	0.052
Mof_H 	H 	0.6315	0.8486	0.4068	0.075
Mof_H 	H 	0.5523	0.8868	0.41	0.022
Mof_H 	H 	0.5608	0.7868	0.3728	0.022
Mof_H 	H 	0.6417	0.7496	0.366	0.075
Mof_H 	H 	0.916	0.031	0.2538	0.011
Mof_H 	H 	0.9541	0.0698	0.1754	0.091
Mof_H 	H 	0.7773	0.8943	0.5559	0.022
Mof_H 	H 	0.7381	0.8542	0.6331	0.08
Mof_H 	H 	0.1278	0.708	0.3986	0.026
Mof_H 	H 	0.0288	0.8255	0.4389	0.024
Mof_H 	H 	0.1031	0.7622	0.4369	0.072
Mof_H 	H 	0.0782	0.7162	0.3632	0.07
Mof_H 	H 	0.004	0.7798	0.3654	0.02
Mof_H 	H 	0.4345	0.9119	0.0275	0.021
Mof_H 	H 	0.4343	0.9519	0.0675	0.075
Mof_H 	H 	0.4329	0.1037	0.9855	0.06
Mof_H 	H 	0.3966	0.1825	0.9709	0.069
Mof_H 	H 	0.3953	0.2616	0.9297	0.029
Mof_H 	H 	0.4665	0.1651	0.0501	0.083
Mof_H 	H 	0.4612	0.2458	0.0113	0.032
Mof_H 	H 	0.3801	0.7853	0.8991	0.012
Mof_H 	H 	0.3736	0.747	0.8614	0.087
Mof_H 	H 	0.3783	0.7089	0.8276	0.052
Mof_H 	H 	0.4068	0.6315	0.8486	0.075
Mof_H 	H 	0.41	0.5523	0.8868	0.022
Mof_H 	H 	0.3728	0.5608	0.7868	0.022
Mof_H 	H 	0.366	0.6417	0.7496	0.075
Mof_H 	H 	0.2538	0.916	0.031	0.011
Mof_H 	H 	0.1754	0.9541	0.0698	0.091
Mof_H 	H 	0.5559	0.7773	0.8943	0.022
Mof_H 	H 	0.6331	0.7381	0.8542	0.08
Mof_H 	H 	0.3986	0.1278	0.708	0.026
Mof_H 	H 	0.4389	0.0288	0.8255	0.024
Mof_H 	H 	0.4369	0.1031	0.7622	0.072
Mof_H 	H 	0.3632	0.0782	0.7162	0.07
Mof_H 	H 	0.3654	0.004	0.7798	0.02
Mof_H 	H 	0.44825	0.9757	0.44825	0.044
Mof_H 	H 	0.4436	0.0546	0.4436	-0.004
Mof_H 	H 	0.4109	0.1131	0.4109	0.089
Mof_H 	H 	0.3663	0.1261	0.3663	0.032
Mof_H 	H 	0.36755	0.0525	0.36755	0.027
Mof_H 	H 	0.9757	0.44825	0.44825	0.044
Mof_H 	H 	0.0546	0.4436	0.4436	-0.004
Mof_H 	H 	0.1131	0.4109	0.4109	0.089
Mof_H 	H 	0.1261	0.3663	0.3663	0.032
Mof_H 	H 	0.0525	0.36755	0.36755	0.027
Mof_H 	H 	0.44825	0.44825	0.9757	0.044
Mof_H 	H 	0.4436	0.4436	0.0546	-0.004
Mof_H 	H 	0.4109	0.4109	0.1131	0.089
Mof_H 	H 	0.3663	0.3663	0.1261	0.032
Mof_H 	H 	0.36755	0.36755	0.0525	0.027
Mof_H 	H 	0.4333	0.1047	0.1047	0.069
Mof_H 	H 	0.1047	0.1047	0.4333	0.069
Mof_H 	H 	0.1047	0.4333	0.1047	0.069
Mof_H 	H 	0.3864	0.7057	0.7057	0.059
Mof_H 	H 	0.7057	0.7057	0.3864	0.059
Mof_H 	H 	0.7057	0.3864	0.7057	0.059
Mof_H 	H 	0.10495	0.10495	0.9867	0.046
Mof_H 	H 	0.10495	0.9867	0.10495	0.046
Mof_H 	H 	0.9867	0.10495	0.10495	0.046
Mof_H 	H 	0.7028	0.7028	0.8219	0.053
Mof_H 	H 	0.7028	0.8219	0.7028	0.053
Mof_H 	H 	0.8219	0.7028	0.7028	0.053
Mof_C 	C 	0.43222	0.01211	0.94457	0.072
Mof_C 	C 	0.43321	0.03579	0.96853	-0.136
Mof_C 	C 	0.4333	0.01735	0.08783	-0.094
Mof_C 	C 	0.43156	0.01581	0.16383	0.05
Mof_C 	C 	0.41002	0.97916	0.19475	-0.112
Mof_C 	C 	0.40813	0.9551	0.2426	0.043
Mof_C 	C 	0.45113	0.02676	0.1844	-0.117
Mof_C 	C 	0.44786	0.00331	0.2332	0.051
Mof_C 	C 	0.42574	0.96915	0.26275	-0.118
Mof_C 	C 	0.42063	0.94471	0.31558	0.369
Mof_C 	C 	0.43334	0.04065	0.11309	0.034
Mof_C 	C 	0.37975	0.86721	0.80152	0.104
Mof_C 	C 	0.37648	0.84391	0.77793	-0.168
Mof_C 	C 	0.37919	0.79525	0.72437	-0.077
Mof_C 	C 	0.38212	0.77063	0.69854	0.018
Mof_C 	C 	0.38476	0.79549	0.64638	0.067
Mof_C 	C 	0.3987	0.83603	0.61794	-0.135
Mof_C 	C 	0.40119	0.85873	0.5701	0.067
Mof_C 	C 	0.39127	0.84121	0.54801	-0.138
Mof_C 	C 	0.37881	0.79994	0.57522	0.064
Mof_C 	C 	0.37507	0.77731	0.62388	-0.133
Mof_C 	C 	0.39398	0.86626	0.49616	0.378
Mof_C 	C 	0.2383	0.0148	0.94806	0.11
Mof_C 	C 	0.19073	0.03808	0.97088	-0.176
Mof_C 	C 	0.57106	0.86234	0.79371	0.073
Mof_C 	C 	0.61784	0.83821	0.77031	-0.141
Mof_C 	C 	0.39972	0.73305	0.09803	0.033
Mof_C 	C 	0.4245	0.80293	0.03877	0.054
Mof_C 	C 	0.42272	0.76552	0.08324	-0.103
Mof_C 	C 	0.37849	0.73799	0.06836	-0.105
Mof_C 	C 	0.38027	0.77539	0.02387	0.059
Mof_C 	C 	0.01211	0.94457	0.43222	0.072
Mof_C 	C 	0.03579	0.96853	0.43321	-0.136
Mof_C 	C 	0.01735	0.08783	0.4333	-0.094
Mof_C 	C 	0.01581	0.16383	0.43156	0.05
Mof_C 	C 	0.97916	0.19475	0.41002	-0.112
Mof_C 	C 	0.9551	0.2426	0.40813	0.043
Mof_C 	C 	0.02676	0.1844	0.45113	-0.117
Mof_C 	C 	0.00331	0.2332	0.44786	0.051
Mof_C 	C 	0.96915	0.26275	0.42574	-0.118
Mof_C 	C 	0.94471	0.31558	0.42063	0.369
Mof_C 	C 	0.04065	0.11309	0.43334	0.034
Mof_C 	C 	0.86721	0.80152	0.37975	0.104
Mof_C 	C 	0.84391	0.77793	0.37648	-0.168
Mof_C 	C 	0.79525	0.72437	0.37919	-0.077
Mof_C 	C 	0.77063	0.69854	0.38212	0.018
Mof_C 	C 	0.79549	0.64638	0.38476	0.067
Mof_C 	C 	0.83603	0.61794	0.3987	-0.135
Mof_C 	C 	0.85873	0.5701	0.40119	0.067
Mof_C 	C 	0.84121	0.54801	0.39127	-0.138
Mof_C 	C 	0.79994	0.57522	0.37881	0.064
Mof_C 	C 	0.77731	0.62388	0.37507	-0.133
Mof_C 	C 	0.86626	0.49616	0.39398	0.378
Mof_C 	C 	0.0148	0.94806	0.2383	0.11
Mof_C 	C 	0.03808	0.97088	0.19073	-0.176
Mof_C 	C 	0.86234	0.79371	0.57106	0.073
Mof_C 	C 	0.83821	0.77031	0.61784	-0.141
Mof_C 	C 	0.73305	0.09803	0.39972	0.033
Mof_C 	C 	0.80293	0.03877	0.4245	0.054
Mof_C 	C 	0.76552	0.08324	0.42272	-0.103
Mof_C 	C 	0.73799	0.06836	0.37849	-0.105
Mof_C 	C 	0.77539	0.02387	0.38027	0.059
Mof_C 	C 	0.94457	0.43222	0.01211	0.072
Mof_C 	C 	0.96853	0.43321	0.03579	-0.136
Mof_C 	C 	0.08783	0.4333	0.01735	-0.094
Mof_C 	C 	0.16383	0.43156	0.01581	0.05
Mof_C 	C 	0.19475	0.41002	0.97916	-0.112
Mof_C 	C 	0.2426	0.40813	0.9551	0.043
Mof_C 	C 	0.1844	0.45113	0.02676	-0.117
Mof_C 	C 	0.2332	0.44786	0.00331	0.051
Mof_C 	C 	0.26275	0.42574	0.96915	-0.118
Mof_C 	C 	0.31558	0.42063	0.94471	0.369
Mof_C 	C 	0.11309	0.43334	0.04065	0.034
Mof_C 	C 	0.80152	0.37975	0.86721	0.104
Mof_C 	C 	0.77793	0.37648	0.84391	-0.168
Mof_C 	C 	0.72437	0.37919	0.79525	-0.077
Mof_C 	C 	0.69854	0.38212	0.77063	0.018
Mof_C 	C 	0.64638	0.38476	0.79549	0.067
Mof_C 	C 	0.61794	0.3987	0.83603	-0.135
Mof_C 	C 	0.5701	0.40119	0.85873	0.067
Mof_C 	C 	0.54801	0.39127	0.84121	-0.138
Mof_C 	C 	0.57522	0.37881	0.79994	0.064
Mof_C 	C 	0.62388	0.37507	0.77731	-0.133
Mof_C 	C 	0.49616	0.39398	0.86626	0.378
Mof_C 	C 	0.94806	0.2383	0.0148	0.11
Mof_C 	C 	0.97088	0.19073	0.03808	-0.176
Mof_C 	C 	0.79371	0.57106	0.86234	0.073
Mof_C 	C 	0.77031	0.61784	0.83821	-0.141
Mof_C 	C 	0.09803	0.39972	0.73305	0.033
Mof_C 	C 	0.03877	0.4245	0.80293	0.054
Mof_C 	C 	0.08324	0.42272	0.76552	-0.103
Mof_C 	C 	0.06836	0.37849	0.73799	-0.105
Mof_C 	C 	0.02387	0.38027	0.77539	0.059
Mof_C 	C 	0.01211	0.43222	0.94457	0.072
Mof_C 	C 	0.03579	0.43321	0.96853	-0.136
Mof_C 	C 	0.01735	0.4333	0.08783	-0.094
Mof_C 	C 	0.01581	0.43156	0.16383	0.05
Mof_C 	C 	0.97916	0.41002	0.19475	-0.112
Mof_C 	C 	0.9551	0.40813	0.2426	0.043
Mof_C 	C 	0.02676	0.45113	0.1844	-0.117
Mof_C 	C 	0.00331	0.44786	0.2332	0.051
Mof_C 	C 	0.96915	0.42574	0.26275	-0.118
Mof_C 	C 	0.94471	0.42063	0.31558	0.369
Mof_C 	C 	0.04065	0.43334	0.11309	0.034
Mof_C 	C 	0.86721	0.37975	0.80152	0.104
Mof_C 	C 	0.84391	0.37648	0.77793	-0.168
Mof_C 	C 	0.79525	0.37919	0.72437	-0.077
Mof_C 	C 	0.77063	0.38212	0.69854	0.018
Mof_C 	C 	0.79549	0.38476	0.64638	0.067
Mof_C 	C 	0.83603	0.3987	0.61794	-0.135
Mof_C 	C 	0.85873	0.40119	0.5701	0.067
Mof_C 	C 	0.84121	0.39127	0.54801	-0.138
Mof_C 	C 	0.79994	0.37881	0.57522	0.064
Mof_C 	C 	0.77731	0.37507	0.62388	-0.133
Mof_C 	C 	0.86626	0.39398	0.49616	0.378
Mof_C 	C 	0.0148	0.2383	0.94806	0.11
Mof_C 	C 	0.03808	0.19073	0.97088	-0.176
Mof_C 	C 	0.86234	0.57106	0.79371	0.073
Mof_C 	C 	0.83821	0.61784	0.77031	-0.141
Mof_C 	C 	0.73305	0.39972	0.09803	0.033
Mof_C 	C 	0.80293	0.4245	0.03877	0.054
Mof_C 	C 	0.76552	0.42272	0.08324	-0.103
Mof_C 	C 	0.73799	0.37849	0.06836	-0.105
Mof_C 	C 	0.77539	0.38027	0.02387	0.059
Mof_C 	C 	0.94457	0.01211	0.43222	0.072
Mof_C 	C 	0.96853	0.03579	0.43321	-0.136
Mof_C 	C 	0.08783	0.01735	0.4333	-0.094
Mof_C 	C 	0.16383	0.01581	0.43156	0.05
Mof_C 	C 	0.19475	0.97916	0.41002	-0.112
Mof_C 	C 	0.2426	0.9551	0.40813	0.043
Mof_C 	C 	0.1844	0.02676	0.45113	-0.117
Mof_C 	C 	0.2332	0.00331	0.44786	0.051
Mof_C 	C 	0.26275	0.96915	0.42574	-0.118
Mof_C 	C 	0.31558	0.94471	0.42063	0.369
Mof_C 	C 	0.11309	0.04065	0.43334	0.034
Mof_C 	C 	0.80152	0.86721	0.37975	0.104
Mof_C 	C 	0.77793	0.84391	0.37648	-0.168
Mof_C 	C 	0.72437	0.79525	0.37919	-0.077
Mof_C 	C 	0.69854	0.77063	0.38212	0.018
Mof_C 	C 	0.64638	0.79549	0.38476	0.067
Mof_C 	C 	0.61794	0.83603	0.3987	-0.135
Mof_C 	C 	0.5701	0.85873	0.40119	0.067
Mof_C 	C 	0.54801	0.84121	0.39127	-0.138
Mof_C 	C 	0.57522	0.79994	0.37881	0.064
Mof_C 	C 	0.62388	0.77731	0.37507	-0.133
Mof_C 	C 	0.49616	0.86626	0.39398	0.378
Mof_C 	C 	0.94806	0.0148	0.2383	0.11
Mof_C 	C 	0.97088	0.03808	0.19073	-0.176
Mof_C 	C 	0.79371	0.86234	0.57106	0.073
Mof_C 	C 	0.77031	0.83821	0.61784	-0.141
Mof_C 	C 	0.09803	0.73305	0.39972	0.033
Mof_C 	C 	0.03877	0.80293	0.4245	0.054
Mof_C 	C 	0.08324	0.76552	0.42272	-0.103
Mof_C 	C 	0.06836	0.73799	0.37849	-0.105
Mof_C 	C 	0.02387	0.77539	0.38027	0.059
Mof_C 	C 	0.43222	0.94457	0.01211	0.072
Mof_C 	C 	0.43321	0.96853	0.03579	-0.136
Mof_C 	C 	0.4333	0.08783	0.01735	-0.094
Mof_C 	C 	0.43156	0.16383	0.01581	0.05
Mof_C 	C 	0.41002	0.19475	0.97916	-0.112
Mof_C 	C 	0.40813	0.2426	0.9551	0.043
Mof_C 	C 	0.45113	0.1844	0.02676	-0.117
Mof_C 	C 	0.44786	0.2332	0.00331	0.051
Mof_C 	C 	0.42574	0.26275	0.96915	-0.118
Mof_C 	C 	0.42063	0.31558	0.94471	0.369
Mof_C 	C 	0.43334	0.11309	0.04065	0.034
Mof_C 	C 	0.37975	0.80152	0.86721	0.104
Mof_C 	C 	0.37648	0.77793	0.84391	-0.168
Mof_C 	C 	0.37919	0.72437	0.79525	-0.077
Mof_C 	C 	0.38212	0.69854	0.77063	0.018
Mof_C 	C 	0.38476	0.64638	0.79549	0.067
Mof_C 	C 	0.3987	0.61794	0.83603	-0.135
Mof_C 	C 	0.40119	0.5701	0.85873	0.067
Mof_C 	C 	0.39127	0.54801	0.84121	-0.138
Mof_C 	C 	0.37881	0.57522	0.79994	0.064
Mof_C 	C 	0.37507	0.62388	0.77731	-0.133
Mof_C 	C 	0.39398	0.49616	0.86626	0.378
Mof_C 	C 	0.2383	0.94806	0.0148	0.11
Mof_C 	C 	0.19073	0.97088	0.03808	-0.176
Mof_C 	C 	0.57106	0.79371	0.86234	0.073
Mof_C 	C 	0.61784	0.77031	0.83821	-0.141
Mof_C 	C 	0.39972	0.09803	0.73305	0.033
Mof_C 	C 	0.4245	0.03877	0.80293	0.054
Mof_C 	C 	0.42272	0.08324	0.76552	-0.103
Mof_C 	C 	0.37849	0.06836	0.73799	-0.105
Mof_C 	C 	0.38027	0.02387	0.77539	0.059
Mof_C 	C 	0.43064	0.00535	0.43064	-0.02
Mof_C 	C 	0.42714	0.05555	0.42714	0.1
Mof_C 	C 	0.41004	0.08615	0.41004	-0.175
Mof_C 	C 	0.38309	0.09513	0.38309	-0.006
Mof_C 	C 	0.38444	0.05005	0.38444	0.028
Mof_C 	C 	0.00535	0.43064	0.43064	-0.02
Mof_C 	C 	0.05555	0.42714	0.42713	0.1
Mof_C 	C 	0.08615	0.41004	0.41004	-0.175
Mof_C 	C 	0.09513	0.38309	0.38309	-0.006
Mof_C 	C 	0.05005	0.38444	0.38443	0.028
Mof_C 	C 	0.43064	0.43064	0.00535	-0.02
Mof_C 	C 	0.42714	0.42714	0.05555	0.1
Mof_C 	C 	0.41004	0.41004	0.08615	-0.175
Mof_C 	C 	0.38309	0.38309	0.09513	-0.006
Mof_C 	C 	0.38444	0.38444	0.05005	0.028
Mof_C 	C 	0.4235	0.94334	0.94334	0.368
Mof_C 	C 	0.42811	0.96757	0.96757	-0.139
Mof_C 	C 	0.43279	0.01461	0.01461	0.075
Mof_C 	C 	0.43386	0.04019	0.04019	0.027
Mof_C 	C 	0.43335	0.08861	0.08861	-0.098
Mof_C 	C 	0.31589	0.94559	0.94559	0.389
Mof_C 	C 	0.26326	0.97003	0.97003	-0.17
Mof_C 	C 	0.16568	0.0166	0.0166	0.112
Mof_C 	C 	0.11368	0.04179	0.04179	-0.008
Mof_C 	C 	0.49502	0.86585	0.86585	0.37
Mof_C 	C 	0.54646	0.84055	0.84055	-0.142
Mof_C 	C 	0.64295	0.79211	0.79211	0.08
Mof_C 	C 	0.69365	0.7663	0.7663	0.011
Mof_C 	C 	0.94334	0.94334	0.4235	0.368
Mof_C 	C 	0.96757	0.96757	0.42811	-0.139
Mof_C 	C 	0.01461	0.01461	0.43279	0.075
Mof_C 	C 	0.04019	0.04019	0.43386	0.027
Mof_C 	C 	0.08861	0.08861	0.43335	-0.098
Mof_C 	C 	0.94559	0.94559	0.31589	0.389
Mof_C 	C 	0.97003	0.97003	0.26326	-0.17
Mof_C 	C 	0.0166	0.0166	0.16568	0.112
Mof_C 	C 	0.04179	0.04179	0.11368	-0.008
Mof_C 	C 	0.86585	0.86585	0.49502	0.37
Mof_C 	C 	0.84055	0.84055	0.54646	-0.142
Mof_C 	C 	0.79211	0.79211	0.64295	0.08
Mof_C 	C 	0.7663	0.7663	0.69365	0.011
Mof_C 	C 	0.94334	0.4235	0.94334	0.368
Mof_C 	C 	0.96757	0.42811	0.96757	-0.139
Mof_C 	C 	0.01461	0.43279	0.01461	0.075
Mof_C 	C 	0.04019	0.43386	0.04019	0.027
Mof_C 	C 	0.08861	0.43335	0.08861	-0.098
Mof_C 	C 	0.94559	0.31589	0.94559	0.389
Mof_C 	C 	0.97003	0.26326	0.97003	-0.17
Mof_C 	C 	0.0166	0.16568	0.0166	0.112
Mof_C 	C 	0.04179	0.11368	0.04179	-0.008
Mof_C 	C 	0.86585	0.49502	0.86585	0.37
Mof_C 	C 	0.84055	0.54646	0.84055	-0.142
Mof_C 	C 	0.79211	0.64295	0.79211	0.08
Mof_C 	C 	0.7663	0.69365	0.7663	0.011
Mof_C 	C 	0.38786	0.8694	0.8694	0.392
Mof_C 	C 	0.38234	0.84528	0.84528	-0.171
Mof_C 	C 	0.37736	0.7983	0.7983	0.107
Mof_C 	C 	0.37784	0.77241	0.77241	0.004
Mof_C 	C 	0.38388	0.7225	0.7225	-0.086
Mof_C 	C 	0.8694	0.8694	0.38786	0.392
Mof_C 	C 	0.84528	0.84528	0.38234	-0.171
Mof_C 	C 	0.7983	0.7983	0.37736	0.107
Mof_C 	C 	0.77241	0.77241	0.37784	0.004
Mof_C 	C 	0.7225	0.7225	0.38388	-0.086
Mof_C 	C 	0.8694	0.38786	0.8694	0.392
Mof_C 	C 	0.84528	0.38234	0.84528	-0.171
Mof_C 	C 	0.7983	0.37736	0.7983	0.107
Mof_C 	C 	0.77241	0.37784	0.77241	0.004
Mof_C 	C 	0.7225	0.38388	0.7225	-0.086
Mof_C 	C 	0.08913	0.08913	0.01873	-0.058
Mof_C 	C 	0.08913	0.01873	0.08913	-0.058
Mof_C 	C 	0.01873	0.08913	0.08913	-0.058
Mof_C 	C 	0.71849	0.71849	0.78974	-0.076
Mof_C 	C 	0.71849	0.78974	0.71849	-0.076
Mof_C 	C 	0.78974	0.71849	0.71849	-0.076
Mof_N 	N 	0.40471	0.80547	0.01015	-0.179
Mof_N 	N 	0.80547	0.01015	0.40471	-0.179
Mof_N 	N 	0.01015	0.40471	0.80547	-0.179
Mof_N 	N 	0.80547	0.40471	0.01015	-0.179
Mof_N 	N 	0.01015	0.80547	0.40471	-0.179
Mof_N 	N 	0.40471	0.01015	0.80547	-0.179
Mof_N 	N 	0.40704	0.00815	0.40704	-0.166
Mof_N 	N 	0.00815	0.40704	0.40704	-0.166
Mof_N 	N 	0.40704	0.40704	0.00815	-0.166
Mof_O 	O 	0.42121	0.90088	0.96733	-0.406
Mof_O 	O 	0.41921	0.96773	0.33667	-0.404
Mof_O 	O 	0.41672	0.90286	0.33542	-0.409
Mof_O 	O 	0.39059	0.84512	0.91126	-0.41
Mof_O 	O 	0.39379	0.84284	0.47564	-0.409
Mof_O 	O 	0.39623	0.9078	0.47679	-0.409
Mof_O 	O 	0.33619	0.90354	0.96962	-0.406
Mof_O 	O 	0.47499	0.84227	0.90853	-0.405
Mof_O 	O 	0.90088	0.96733	0.42121	-0.406
Mof_O 	O 	0.96773	0.33667	0.41921	-0.404
Mof_O 	O 	0.90286	0.33542	0.41672	-0.409
Mof_O 	O 	0.84512	0.91126	0.39059	-0.41
Mof_O 	O 	0.84284	0.47564	0.39379	-0.409
Mof_O 	O 	0.9078	0.47679	0.39623	-0.409
Mof_O 	O 	0.90354	0.96962	0.33619	-0.406
Mof_O 	O 	0.84227	0.90853	0.47499	-0.405
Mof_O 	O 	0.96733	0.42121	0.90088	-0.406
Mof_O 	O 	0.33667	0.41921	0.96773	-0.404
Mof_O 	O 	0.33542	0.41672	0.90286	-0.409
Mof_O 	O 	0.91126	0.39059	0.84512	-0.41
Mof_O 	O 	0.47564	0.39379	0.84284	-0.409
Mof_O 	O 	0.47679	0.39623	0.9078	-0.409
Mof_O 	O 	0.96962	0.33619	0.90354	-0.406
Mof_O 	O 	0.90853	0.47499	0.84227	-0.405
Mof_O 	O 	0.90088	0.42121	0.96733	-0.406
Mof_O 	O 	0.96773	0.41921	0.33667	-0.404
Mof_O 	O 	0.90286	0.41672	0.33542	-0.409
Mof_O 	O 	0.84512	0.39059	0.91126	-0.41
Mof_O 	O 	0.84284	0.39379	0.47564	-0.409
Mof_O 	O 	0.9078	0.39623	0.47679	-0.409
Mof_O 	O 	0.90354	0.33619	0.96962	-0.406
Mof_O 	O 	0.84227	0.47499	0.90853	-0.405
Mof_O 	O 	0.96733	0.90088	0.42121	-0.406
Mof_O 	O 	0.33667	0.96773	0.41921	-0.404
Mof_O 	O 	0.33542	0.90286	0.41672	-0.409
Mof_O 	O 	0.91126	0.84512	0.39059	-0.41
Mof_O 	O 	0.47564	0.84284	0.39379	-0.409
Mof_O 	O 	0.47679	0.9078	0.39623	-0.409
Mof_O 	O 	0.96962	0.90354	0.33619	-0.406
Mof_O 	O 	0.90853	0.84227	0.47499	-0.405
Mof_O 	O 	0.42121	0.96733	0.90088	-0.406
Mof_O 	O 	0.41921	0.33667	0.96773	-0.404
Mof_O 	O 	0.41672	0.33542	0.90286	-0.409
Mof_O 	O 	0.39059	0.91126	0.84512	-0.41
Mof_O 	O 	0.39379	0.47564	0.84284	-0.409
Mof_O 	O 	0.39623	0.47679	0.9078	-0.409
Mof_O 	O 	0.33619	0.96962	0.90354	-0.406
Mof_O 	O 	0.47499	0.90853	0.84227	-0.405
_end
