data_functionalizedCrystal
_audit_creation_method	'EQeq! by Chris Wilmer'
_symmetry_space_group_name_H-M	'P1'
_symmetry_Int_Tables_number	1
_symmetry_cell_setting	triclinic
loop_
_symmetry_equiv_pos_as_xyz
  x,y,z
_cell_length_a	28.7135
_cell_length_b	28.7135
_cell_length_c	28.7135
_cell_angle_alpha	90
_cell_angle_beta	90
_cell_angle_gamma	90
loop_
_atom_site_label
_atom_site_type_symbol
_atom_site_fract_x
_atom_site_fract_y
_atom_site_fract_z
_atom_site_charge
Mof_O 	O 	0.265	0.592	0.5177	-0.344
Mof_O 	O 	0.265	0.092	0.0177	-0.323
Mof_O 	O 	0.765	0.592	0.0177	-0.322
Mof_O 	O 	0.765	0.092	0.5177	-0.345
Mof_O 	O 	0.735	0.408	0.5177	-0.344
Mof_O 	O 	0.735	0.908	0.0177	-0.325
Mof_O 	O 	0.235	0.408	0.0177	-0.322
Mof_O 	O 	0.235	0.908	0.5177	-0.347
Mof_O 	O 	0.735	0.592	0.4823	-0.344
Mof_O 	O 	0.735	0.092	0.9823	-0.387
Mof_O 	O 	0.235	0.592	0.9823	-0.387
Mof_O 	O 	0.235	0.092	0.4823	-0.345
Mof_O 	O 	0.265	0.408	0.4823	-0.344
Mof_O 	O 	0.265	0.908	0.9823	-0.389
Mof_O 	O 	0.765	0.408	0.9823	-0.387
Mof_O 	O 	0.765	0.908	0.4823	-0.347
Mof_O 	O 	0.5177	0.265	0.592	-0.344
Mof_O 	O 	0.5177	0.765	0.092	-0.345
Mof_O 	O 	0.0177	0.265	0.092	-0.323
Mof_O 	O 	0.0177	0.765	0.592	-0.322
Mof_O 	O 	0.5177	0.735	0.408	-0.344
Mof_O 	O 	0.5177	0.235	0.908	-0.347
Mof_O 	O 	0.0177	0.735	0.908	-0.325
Mof_O 	O 	0.0177	0.235	0.408	-0.322
Mof_O 	O 	0.4823	0.735	0.592	-0.344
Mof_O 	O 	0.4823	0.235	0.092	-0.345
Mof_O 	O 	0.9823	0.735	0.092	-0.387
Mof_O 	O 	0.9823	0.235	0.592	-0.387
Mof_O 	O 	0.4823	0.265	0.408	-0.344
Mof_O 	O 	0.4823	0.765	0.908	-0.347
Mof_O 	O 	0.9823	0.265	0.908	-0.389
Mof_O 	O 	0.9823	0.765	0.408	-0.387
Mof_O 	O 	0.592	0.5177	0.265	-0.344
Mof_O 	O 	0.592	0.0177	0.765	-0.322
Mof_O 	O 	0.092	0.5177	0.765	-0.345
Mof_O 	O 	0.092	0.0177	0.265	-0.323
Mof_O 	O 	0.408	0.5177	0.735	-0.343
Mof_O 	O 	0.408	0.0177	0.235	-0.321
Mof_O 	O 	0.908	0.5177	0.235	-0.346
Mof_O 	O 	0.908	0.0177	0.735	-0.324
Mof_O 	O 	0.592	0.4823	0.735	-0.343
Mof_O 	O 	0.592	0.9823	0.235	-0.386
Mof_O 	O 	0.092	0.4823	0.235	-0.344
Mof_O 	O 	0.092	0.9823	0.735	-0.386
Mof_O 	O 	0.408	0.4823	0.265	-0.343
Mof_O 	O 	0.408	0.9823	0.765	-0.386
Mof_O 	O 	0.908	0.4823	0.765	-0.346
Mof_O 	O 	0.908	0.9823	0.265	-0.388
Mof_O 	O 	0.592	0.265	0.4823	-0.343
Mof_O 	O 	0.592	0.765	0.9823	-0.386
Mof_O 	O 	0.092	0.265	0.9823	-0.386
Mof_O 	O 	0.092	0.765	0.4823	-0.344
Mof_O 	O 	0.408	0.735	0.4823	-0.343
Mof_O 	O 	0.408	0.235	0.9823	-0.385
Mof_O 	O 	0.908	0.735	0.9823	-0.389
Mof_O 	O 	0.908	0.235	0.4823	-0.346
Mof_O 	O 	0.592	0.735	0.5177	-0.343
Mof_O 	O 	0.592	0.235	0.0177	-0.321
Mof_O 	O 	0.092	0.735	0.0177	-0.322
Mof_O 	O 	0.092	0.235	0.5177	-0.344
Mof_O 	O 	0.408	0.265	0.5177	-0.343
Mof_O 	O 	0.408	0.765	0.0177	-0.321
Mof_O 	O 	0.908	0.265	0.0177	-0.324
Mof_O 	O 	0.908	0.765	0.5177	-0.346
Mof_O 	O 	0.265	0.5177	0.408	-0.343
Mof_O 	O 	0.265	0.0177	0.908	-0.324
Mof_O 	O 	0.765	0.5177	0.908	-0.346
Mof_O 	O 	0.765	0.0177	0.408	-0.321
Mof_O 	O 	0.735	0.5177	0.592	-0.343
Mof_O 	O 	0.735	0.0177	0.092	-0.322
Mof_O 	O 	0.235	0.5177	0.092	-0.344
Mof_O 	O 	0.235	0.0177	0.592	-0.321
Mof_O 	O 	0.735	0.4823	0.408	-0.343
Mof_O 	O 	0.735	0.9823	0.908	-0.389
Mof_O 	O 	0.235	0.4823	0.908	-0.346
Mof_O 	O 	0.235	0.9823	0.408	-0.385
Mof_O 	O 	0.265	0.4823	0.592	-0.343
Mof_O 	O 	0.265	0.9823	0.092	-0.386
Mof_O 	O 	0.765	0.4823	0.092	-0.344
Mof_O 	O 	0.765	0.9823	0.592	-0.386
Mof_O 	O 	0.5177	0.592	0.735	-0.343
Mof_O 	O 	0.5177	0.092	0.235	-0.344
Mof_O 	O 	0.0177	0.592	0.235	-0.321
Mof_O 	O 	0.0177	0.092	0.735	-0.322
Mof_O 	O 	0.5177	0.408	0.265	-0.343
Mof_O 	O 	0.5177	0.908	0.765	-0.346
Mof_O 	O 	0.0177	0.408	0.765	-0.321
Mof_O 	O 	0.0177	0.908	0.265	-0.324
Mof_O 	O 	0.4823	0.592	0.265	-0.343
Mof_O 	O 	0.4823	0.092	0.765	-0.344
Mof_O 	O 	0.9823	0.592	0.765	-0.386
Mof_O 	O 	0.9823	0.092	0.265	-0.386
Mof_O 	O 	0.4823	0.408	0.735	-0.343
Mof_O 	O 	0.4823	0.908	0.235	-0.346
Mof_O 	O 	0.9823	0.408	0.235	-0.385
Mof_O 	O 	0.9823	0.908	0.735	-0.389
Mof_O 	O 	0.735	0.408	0.4823	-0.343
Mof_O 	O 	0.735	0.908	0.9823	-0.389
Mof_O 	O 	0.235	0.408	0.9823	-0.385
Mof_O 	O 	0.235	0.908	0.4823	-0.346
Mof_O 	O 	0.265	0.592	0.4823	-0.343
Mof_O 	O 	0.265	0.092	0.9823	-0.386
Mof_O 	O 	0.765	0.592	0.9823	-0.386
Mof_O 	O 	0.765	0.092	0.4823	-0.344
Mof_O 	O 	0.265	0.408	0.5177	-0.343
Mof_O 	O 	0.265	0.908	0.0177	-0.324
Mof_O 	O 	0.765	0.408	0.0177	-0.321
Mof_O 	O 	0.765	0.908	0.5177	-0.346
Mof_O 	O 	0.735	0.592	0.5177	-0.343
Mof_O 	O 	0.735	0.092	0.0177	-0.322
Mof_O 	O 	0.235	0.592	0.0177	-0.321
Mof_O 	O 	0.235	0.092	0.5177	-0.344
Mof_O 	O 	0.4823	0.735	0.408	-0.343
Mof_O 	O 	0.4823	0.235	0.908	-0.346
Mof_O 	O 	0.9823	0.735	0.908	-0.389
Mof_O 	O 	0.9823	0.235	0.408	-0.385
Mof_O 	O 	0.4823	0.265	0.592	-0.343
Mof_O 	O 	0.4823	0.765	0.092	-0.344
Mof_O 	O 	0.9823	0.265	0.092	-0.386
Mof_O 	O 	0.9823	0.765	0.592	-0.386
Mof_O 	O 	0.5177	0.265	0.408	-0.343
Mof_O 	O 	0.5177	0.765	0.908	-0.346
Mof_O 	O 	0.0177	0.265	0.908	-0.324
Mof_O 	O 	0.0177	0.765	0.408	-0.321
Mof_O 	O 	0.5177	0.735	0.592	-0.343
Mof_O 	O 	0.5177	0.235	0.092	-0.344
Mof_O 	O 	0.0177	0.735	0.092	-0.322
Mof_O 	O 	0.0177	0.235	0.592	-0.321
Mof_O 	O 	0.408	0.4823	0.735	-0.343
Mof_O 	O 	0.408	0.9823	0.235	-0.385
Mof_O 	O 	0.908	0.4823	0.235	-0.346
Mof_O 	O 	0.908	0.9823	0.735	-0.389
Mof_O 	O 	0.592	0.4823	0.265	-0.343
Mof_O 	O 	0.592	0.9823	0.765	-0.386
Mof_O 	O 	0.092	0.4823	0.765	-0.344
Mof_O 	O 	0.092	0.9823	0.265	-0.386
Mof_O 	O 	0.408	0.5177	0.265	-0.343
Mof_O 	O 	0.408	0.0177	0.765	-0.321
Mof_O 	O 	0.908	0.5177	0.765	-0.346
Mof_O 	O 	0.908	0.0177	0.265	-0.324
Mof_O 	O 	0.592	0.5177	0.735	-0.343
Mof_O 	O 	0.592	0.0177	0.235	-0.321
Mof_O 	O 	0.092	0.5177	0.235	-0.344
Mof_O 	O 	0.092	0.0177	0.735	-0.322
Mof_O 	O 	0.408	0.735	0.5177	-0.343
Mof_O 	O 	0.408	0.235	0.0177	-0.321
Mof_O 	O 	0.908	0.735	0.0177	-0.324
Mof_O 	O 	0.908	0.235	0.5177	-0.346
Mof_O 	O 	0.592	0.265	0.5177	-0.343
Mof_O 	O 	0.592	0.765	0.0177	-0.321
Mof_O 	O 	0.092	0.265	0.0177	-0.322
Mof_O 	O 	0.092	0.765	0.5177	-0.344
Mof_O 	O 	0.408	0.265	0.4823	-0.343
Mof_O 	O 	0.408	0.765	0.9823	-0.386
Mof_O 	O 	0.908	0.265	0.9823	-0.388
Mof_O 	O 	0.908	0.765	0.4823	-0.346
Mof_O 	O 	0.592	0.735	0.4823	-0.343
Mof_O 	O 	0.592	0.235	0.9823	-0.386
Mof_O 	O 	0.092	0.735	0.9823	-0.386
Mof_O 	O 	0.092	0.235	0.4823	-0.344
Mof_O 	O 	0.735	0.4823	0.592	-0.343
Mof_O 	O 	0.735	0.9823	0.092	-0.386
Mof_O 	O 	0.235	0.4823	0.092	-0.344
Mof_O 	O 	0.235	0.9823	0.592	-0.386
Mof_O 	O 	0.265	0.4823	0.408	-0.343
Mof_O 	O 	0.265	0.9823	0.908	-0.388
Mof_O 	O 	0.765	0.4823	0.908	-0.346
Mof_O 	O 	0.765	0.9823	0.408	-0.386
Mof_O 	O 	0.265	0.5177	0.592	-0.343
Mof_O 	O 	0.265	0.0177	0.092	-0.322
Mof_O 	O 	0.765	0.5177	0.092	-0.344
Mof_O 	O 	0.765	0.0177	0.592	-0.321
Mof_O 	O 	0.735	0.5177	0.408	-0.343
Mof_O 	O 	0.735	0.0177	0.908	-0.324
Mof_O 	O 	0.235	0.5177	0.908	-0.346
Mof_O 	O 	0.235	0.0177	0.408	-0.321
Mof_O 	O 	0.4823	0.408	0.265	-0.343
Mof_O 	O 	0.4823	0.908	0.765	-0.346
Mof_O 	O 	0.9823	0.408	0.765	-0.386
Mof_O 	O 	0.9823	0.908	0.265	-0.388
Mof_O 	O 	0.4823	0.592	0.735	-0.343
Mof_O 	O 	0.4823	0.092	0.235	-0.344
Mof_O 	O 	0.9823	0.592	0.235	-0.386
Mof_O 	O 	0.9823	0.092	0.735	-0.386
Mof_O 	O 	0.5177	0.408	0.735	-0.343
Mof_O 	O 	0.5177	0.908	0.235	-0.346
Mof_O 	O 	0.0177	0.408	0.235	-0.321
Mof_O 	O 	0.0177	0.908	0.735	-0.324
Mof_O 	O 	0.5177	0.592	0.265	-0.343
Mof_O 	O 	0.5177	0.092	0.765	-0.344
Mof_O 	O 	0.0177	0.592	0.765	-0.321
Mof_O 	O 	0.0177	0.092	0.265	-0.322
Mof_Co	Co	0.19516	0.5	0.5	1.192
Mof_O 	O 	0.2712	0.5	0.5	-0.845
Mof_Co	Co	0.19516	0	-0	1.204
Mof_O 	O 	0.2712	0	-0	-0.819
Mof_Co	Co	0.69516	0.5	-0	1.198
Mof_O 	O 	0.7712	0.5	-0	-0.832
Mof_Co	Co	0.69516	0	0.5	1.198
Mof_O 	O 	0.7712	0	0.5	-0.832
Mof_Co	Co	0.80484	0.5	0.5	1.191
Mof_O 	O 	0.7288	0.5	0.5	-0.845
Mof_Co	Co	0.80484	0	-0	1.203
Mof_O 	O 	0.7288	0	-0	-0.818
Mof_Co	Co	0.30484	0.5	-0	1.198
Mof_O 	O 	0.2288	0.5	-0	-0.832
Mof_Co	Co	0.30484	0	0.5	1.198
Mof_O 	O 	0.2288	0	0.5	-0.832
Mof_Co	Co	0.5	0.19516	0.5	1.192
Mof_O 	O 	0.5	0.2712	0.5	-0.845
Mof_Co	Co	0.5	0.69516	-0	1.198
Mof_O 	O 	0.5	0.7712	-0	-0.832
Mof_Co	Co	-0	0.19516	-0	1.204
Mof_O 	O 	-0	0.2712	-0	-0.819
Mof_Co	Co	6.14002e-33	0.69516	0.5	1.198
Mof_O 	O 	-2.39062e-33	0.7712	0.5	-0.832
Mof_Co	Co	0.5	0.80484	0.5	1.191
Mof_O 	O 	0.5	0.7288	0.5	-0.845
Mof_Co	Co	0.5	0.30484	-0	1.198
Mof_O 	O 	0.5	0.2288	-0	-0.832
Mof_Co	Co	-0	0.80484	-0	1.203
Mof_O 	O 	-0	0.7288	-0	-0.818
Mof_Co	Co	1.8747e-33	0.30484	0.5	1.198
Mof_O 	O 	-2.39062e-33	0.2288	0.5	-0.832
Mof_Co	Co	0.5	0.5	0.19516	1.192
Mof_O 	O 	0.5	0.5	0.2712	-0.845
Mof_Co	Co	0.5	0	0.69516	1.198
Mof_O 	O 	0.5	-8.53065e-33	0.7712	-0.832
Mof_Co	Co	2.60643e-33	0.5	0.69516	1.198
Mof_O 	O 	-5.63911e-33	0.5	0.7712	-0.832
Mof_Co	Co	7.31733e-34	2.13266e-33	0.19516	1.204
Mof_O 	O 	1.01684e-33	2.13266e-33	0.2712	-0.819
Mof_Co	Co	0.5	0.5	0.80484	1.191
Mof_O 	O 	0.5	0.5	0.7288	-0.845
Mof_Co	Co	0.5	-2.13266e-33	0.30484	1.198
Mof_O 	O 	0.5	0	0.2288	-0.832
Mof_Co	Co	1.14297e-33	0.5	0.30484	1.198
Mof_O 	O 	8.57863e-34	0.5	0.2288	-0.832
Mof_Co	Co	3.01767e-33	0	0.80484	1.203
Mof_O 	O 	2.73256e-33	0	0.7288	-0.818
Mof_Co	Co	0.30753	0.54163	0.54163	1.112
Mof_Co	Co	0.30753	0.04163	0.04163	1.113
Mof_Co	Co	0.80753	0.54163	0.04163	1.112
Mof_Co	Co	0.80753	0.04163	0.54163	1.112
Mof_Co	Co	0.69247	0.45837	0.54163	1.112
Mof_Co	Co	0.69247	0.95837	0.04163	1.104
Mof_Co	Co	0.19247	0.45837	0.04163	1.113
Mof_Co	Co	0.19247	0.95837	0.54163	1.103
Mof_Co	Co	0.69247	0.54163	0.45837	1.112
Mof_Co	Co	0.69247	0.04163	0.95837	1.104
Mof_Co	Co	0.19247	0.54163	0.95837	1.103
Mof_Co	Co	0.19247	0.04163	0.45837	1.113
Mof_Co	Co	0.30753	0.45837	0.45837	1.112
Mof_Co	Co	0.30753	0.95837	0.95837	1.095
Mof_Co	Co	0.80753	0.45837	0.95837	1.103
Mof_Co	Co	0.80753	0.95837	0.45837	1.103
Mof_Co	Co	0.54163	0.30753	0.54163	1.112
Mof_Co	Co	0.54163	0.80753	0.04163	1.112
Mof_Co	Co	0.04163	0.30753	0.04163	1.113
Mof_Co	Co	0.04163	0.80753	0.54163	1.112
Mof_Co	Co	0.54163	0.69247	0.45837	1.112
Mof_Co	Co	0.54163	0.19247	0.95837	1.103
Mof_Co	Co	0.04163	0.69247	0.95837	1.104
Mof_Co	Co	0.04163	0.19247	0.45837	1.113
Mof_Co	Co	0.45837	0.69247	0.54163	1.112
Mof_Co	Co	0.45837	0.19247	0.04163	1.113
Mof_Co	Co	0.95837	0.69247	0.04163	1.104
Mof_Co	Co	0.95837	0.19247	0.54163	1.103
Mof_Co	Co	0.45837	0.30753	0.45837	1.112
Mof_Co	Co	0.45837	0.80753	0.95837	1.103
Mof_Co	Co	0.95837	0.30753	0.95837	1.095
Mof_Co	Co	0.95837	0.80753	0.45837	1.103
Mof_Co	Co	0.54163	0.54163	0.30753	1.112
Mof_Co	Co	0.54163	0.04163	0.80753	1.112
Mof_Co	Co	0.04163	0.54163	0.80753	1.112
Mof_Co	Co	0.04163	0.04163	0.30753	1.113
Mof_Co	Co	0.45837	0.54163	0.69247	1.112
Mof_Co	Co	0.45837	0.04163	0.19247	1.113
Mof_Co	Co	0.95837	0.54163	0.19247	1.103
Mof_Co	Co	0.95837	0.04163	0.69247	1.104
Mof_Co	Co	0.54163	0.45837	0.69247	1.112
Mof_Co	Co	0.54163	0.95837	0.19247	1.103
Mof_Co	Co	0.04163	0.45837	0.19247	1.113
Mof_Co	Co	0.04163	0.95837	0.69247	1.104
Mof_Co	Co	0.45837	0.45837	0.30753	1.112
Mof_Co	Co	0.45837	0.95837	0.80753	1.103
Mof_Co	Co	0.95837	0.45837	0.80753	1.103
Mof_Co	Co	0.95837	0.95837	0.30753	1.095
Mof_Co	Co	0.54163	0.30753	0.45837	1.112
Mof_Co	Co	0.54163	0.80753	0.95837	1.103
Mof_Co	Co	0.04163	0.30753	0.95837	1.104
Mof_Co	Co	0.04163	0.80753	0.45837	1.112
Mof_Co	Co	0.45837	0.69247	0.45837	1.112
Mof_Co	Co	0.45837	0.19247	0.95837	1.103
Mof_Co	Co	0.95837	0.69247	0.95837	1.095
Mof_Co	Co	0.95837	0.19247	0.45837	1.103
Mof_Co	Co	0.54163	0.69247	0.54163	1.112
Mof_Co	Co	0.54163	0.19247	0.04163	1.113
Mof_Co	Co	0.04163	0.69247	0.04163	1.113
Mof_Co	Co	0.04163	0.19247	0.54163	1.113
Mof_Co	Co	0.45837	0.30753	0.54163	1.112
Mof_Co	Co	0.45837	0.80753	0.04163	1.112
Mof_Co	Co	0.95837	0.30753	0.04163	1.104
Mof_Co	Co	0.95837	0.80753	0.54163	1.103
Mof_Co	Co	0.30753	0.54163	0.45837	1.112
Mof_Co	Co	0.30753	0.04163	0.95837	1.104
Mof_Co	Co	0.80753	0.54163	0.95837	1.103
Mof_Co	Co	0.80753	0.04163	0.45837	1.112
Mof_Co	Co	0.69247	0.54163	0.54163	1.112
Mof_Co	Co	0.69247	0.04163	0.04163	1.113
Mof_Co	Co	0.19247	0.54163	0.04163	1.113
Mof_Co	Co	0.19247	0.04163	0.54163	1.113
Mof_Co	Co	0.69247	0.45837	0.45837	1.112
Mof_Co	Co	0.69247	0.95837	0.95837	1.095
Mof_Co	Co	0.19247	0.45837	0.95837	1.103
Mof_Co	Co	0.19247	0.95837	0.45837	1.103
Mof_Co	Co	0.30753	0.45837	0.54163	1.112
Mof_Co	Co	0.30753	0.95837	0.04163	1.104
Mof_Co	Co	0.80753	0.45837	0.04163	1.112
Mof_Co	Co	0.80753	0.95837	0.54163	1.103
Mof_Co	Co	0.54163	0.54163	0.69247	1.112
Mof_Co	Co	0.54163	0.04163	0.19247	1.113
Mof_Co	Co	0.04163	0.54163	0.19247	1.113
Mof_Co	Co	0.04163	0.04163	0.69247	1.113
Mof_Co	Co	0.54163	0.45837	0.30753	1.112
Mof_Co	Co	0.54163	0.95837	0.80753	1.103
Mof_Co	Co	0.04163	0.45837	0.80753	1.112
Mof_Co	Co	0.04163	0.95837	0.30753	1.104
Mof_Co	Co	0.45837	0.54163	0.30753	1.112
Mof_Co	Co	0.45837	0.04163	0.80753	1.112
Mof_Co	Co	0.95837	0.54163	0.80753	1.103
Mof_Co	Co	0.95837	0.04163	0.30753	1.104
Mof_Co	Co	0.45837	0.45837	0.69247	1.112
Mof_Co	Co	0.45837	0.95837	0.19247	1.103
Mof_Co	Co	0.95837	0.45837	0.19247	1.103
Mof_Co	Co	0.95837	0.95837	0.69247	1.095
Mof_O 	O 	0.1919	0.5703	0.5	-0.456
Mof_C 	C 	0.2102	0.6515	0.5	-0.14
Mof_C 	C 	0.2431	0.6851	0.5	0.02
Mof_H 	H 	0.2751	0.6767	0.5	0.033
Mof_C 	C 	0.2244	0.6003	0.5	0.47
Mof_O 	O 	0.3541	0.5638	0.5	-0.479
Mof_O 	O 	0.1919	0.0703	-0	-0.454
Mof_C 	C 	0.2102	0.1515	-0	-0.144
Mof_C 	C 	0.2431	0.1851	-0	0.026
Mof_H 	H 	0.2751	0.1767	-0	0.035
Mof_C 	C 	0.2244	0.1003	-0	0.49
Mof_O 	O 	0.3541	0.0638	-0	-0.465
Mof_O 	O 	0.6919	0.5703	-0	-0.455
Mof_C 	C 	0.7102	0.6515	-0	-0.145
Mof_C 	C 	0.7431	0.6851	-0	0.025
Mof_H 	H 	0.7751	0.6767	-0	0.035
Mof_C 	C 	0.7244	0.6003	-0	0.491
Mof_O 	O 	0.8541	0.5638	-0	-0.47
Mof_O 	O 	0.6919	0.0703	0.5	-0.456
Mof_C 	C 	0.7102	0.1515	0.5	-0.141
Mof_C 	C 	0.7431	0.1851	0.5	0.02
Mof_H 	H 	0.7751	0.1767	0.5	0.033
Mof_C 	C 	0.7244	0.1003	0.5	0.47
Mof_O 	O 	0.8541	0.0638	0.5	-0.481
Mof_O 	O 	0.8081	0.4297	0.5	-0.459
Mof_C 	C 	0.7898	0.3485	0.5	-0.143
Mof_C 	C 	0.7569	0.3149	0.5	0.022
Mof_H 	H 	0.7249	0.3233	0.5	0.032
Mof_C 	C 	0.7756	0.3997	0.5	0.471
Mof_O 	O 	0.6459	0.4362	0.5	-0.479
Mof_O 	O 	0.8081	0.9297	-0	-0.47
Mof_C 	C 	0.7898	0.8485	-0	-0.151
Mof_C 	C 	0.7569	0.8149	-0	0.029
Mof_H 	H 	0.7249	0.8233	-0	0.033
Mof_C 	C 	0.7756	0.8997	-0	0.494
Mof_O 	O 	0.6459	0.9362	-0	-0.477
Mof_O 	O 	0.3081	0.4297	-0	-0.455
Mof_C 	C 	0.2898	0.3485	-0	-0.145
Mof_C 	C 	0.2569	0.3149	-0	0.026
Mof_H 	H 	0.2249	0.3233	-0	0.035
Mof_C 	C 	0.2756	0.3997	-0	0.491
Mof_O 	O 	0.1459	0.4362	-0	-0.466
Mof_O 	O 	0.3081	0.9297	0.5	-0.47
Mof_C 	C 	0.2898	0.8485	0.5	-0.145
Mof_C 	C 	0.2569	0.8149	0.5	0.023
Mof_H 	H 	0.2249	0.8233	0.5	0.032
Mof_C 	C 	0.2756	0.8997	0.5	0.473
Mof_O 	O 	0.1459	0.9362	0.5	-0.489
Mof_O 	O 	0.8081	0.5703	0.5	-0.459
Mof_C 	C 	0.7898	0.6515	0.5	-0.143
Mof_C 	C 	0.7569	0.6851	0.5	0.022
Mof_H 	H 	0.7249	0.6767	0.5	0.032
Mof_C 	C 	0.7756	0.6003	0.5	0.471
Mof_O 	O 	0.6459	0.5638	0.5	-0.479
Mof_O 	O 	0.8081	0.0703	-0	-0.457
Mof_C 	C 	0.7898	0.1515	-0	-0.147
Mof_C 	C 	0.7569	0.1851	-0	0.027
Mof_H 	H 	0.7249	0.1767	-0	0.034
Mof_C 	C 	0.7756	0.1003	-0	0.491
Mof_O 	O 	0.6459	0.0638	-0	-0.465
Mof_O 	O 	0.3081	0.5703	-0	-0.455
Mof_C 	C 	0.2898	0.6515	-0	-0.145
Mof_C 	C 	0.2569	0.6851	-0	0.026
Mof_H 	H 	0.2249	0.6767	-0	0.035
Mof_C 	C 	0.2756	0.6003	-0	0.491
Mof_O 	O 	0.1459	0.5638	-0	-0.466
Mof_O 	O 	0.3081	0.0703	0.5	-0.456
Mof_C 	C 	0.2898	0.1515	0.5	-0.141
Mof_C 	C 	0.2569	0.1851	0.5	0.02
Mof_H 	H 	0.2249	0.1767	0.5	0.033
Mof_C 	C 	0.2756	0.1003	0.5	0.47
Mof_O 	O 	0.1459	0.0638	0.5	-0.477
Mof_O 	O 	0.1919	0.4297	0.5	-0.456
Mof_C 	C 	0.2102	0.3485	0.5	-0.141
Mof_C 	C 	0.2431	0.3149	0.5	0.02
Mof_H 	H 	0.2751	0.3233	0.5	0.033
Mof_C 	C 	0.2244	0.3997	0.5	0.47
Mof_O 	O 	0.3541	0.4362	0.5	-0.479
Mof_O 	O 	0.1919	0.9297	-0	-0.468
Mof_C 	C 	0.2102	0.8485	-0	-0.148
Mof_C 	C 	0.2431	0.8149	-0	0.028
Mof_H 	H 	0.2751	0.8233	-0	0.034
Mof_C 	C 	0.2244	0.8997	-0	0.493
Mof_O 	O 	0.3541	0.9362	-0	-0.477
Mof_O 	O 	0.6919	0.4297	-0	-0.455
Mof_C 	C 	0.7102	0.3485	-0	-0.145
Mof_C 	C 	0.7431	0.3149	-0	0.026
Mof_H 	H 	0.7751	0.3233	-0	0.035
Mof_C 	C 	0.7244	0.3997	-0	0.491
Mof_O 	O 	0.8541	0.4362	-0	-0.47
Mof_O 	O 	0.6919	0.9297	0.5	-0.47
Mof_C 	C 	0.7102	0.8485	0.5	-0.145
Mof_C 	C 	0.7431	0.8149	0.5	0.022
Mof_H 	H 	0.7751	0.8233	0.5	0.031
Mof_C 	C 	0.7244	0.8997	0.5	0.473
Mof_O 	O 	0.8541	0.9362	0.5	-0.493
Mof_O 	O 	0.5	0.1919	0.5703	-0.456
Mof_C 	C 	0.5	0.2102	0.6515	-0.14
Mof_C 	C 	0.5	0.2431	0.6851	0.02
Mof_H 	H 	0.5	0.2751	0.6767	0.033
Mof_C 	C 	0.5	0.2244	0.6003	0.47
Mof_O 	O 	0.5	0.3541	0.5638	-0.479
Mof_O 	O 	0.5	0.6919	0.0703	-0.456
Mof_C 	C 	0.5	0.7102	0.1515	-0.141
Mof_C 	C 	0.5	0.7431	0.1851	0.02
Mof_H 	H 	0.5	0.7751	0.1767	0.033
Mof_C 	C 	0.5	0.7244	0.1003	0.47
Mof_O 	O 	0.5	0.8541	0.0638	-0.481
Mof_O 	O 	1.32991e-33	0.1919	0.0703	-0.454
Mof_C 	C 	-3.69729e-33	0.2102	0.1515	-0.144
Mof_C 	C 	6.94014e-34	0.2431	0.1851	0.026
Mof_H 	H 	2.79518e-33	0.2751	0.1767	0.035
Mof_C 	C 	1.4424e-33	0.2244	0.1003	0.49
Mof_O 	O 	7.72377e-34	0.3541	0.0638	-0.465
Mof_O 	O 	2.13828e-33	0.6919	0.5703	-0.455
Mof_C 	C 	-6.08791e-33	0.7102	0.6515	-0.145
Mof_C 	C 	-5.96193e-33	0.7431	0.6851	0.025
Mof_H 	H 	2.53722e-33	0.7751	0.6767	0.035
Mof_C 	C 	-1.05452e-32	0.7244	0.6003	0.491
Mof_O 	O 	2.11391e-33	0.8541	0.5638	-0.47
Mof_O 	O 	0.5	0.8081	0.4297	-0.459
Mof_C 	C 	0.5	0.7898	0.3485	-0.143
Mof_C 	C 	0.5	0.7569	0.3149	0.022
Mof_H 	H 	0.5	0.7249	0.3233	0.032
Mof_C 	C 	0.5	0.7756	0.3997	0.471
Mof_O 	O 	0.5	0.6459	0.4362	-0.479
Mof_O 	O 	0.5	0.3081	0.9297	-0.47
Mof_C 	C 	0.5	0.2898	0.8485	-0.145
Mof_C 	C 	0.5	0.2569	0.8149	0.023
Mof_H 	H 	0.5	0.2249	0.8233	0.032
Mof_C 	C 	0.5	0.2756	0.8997	0.473
Mof_O 	O 	0.5	0.1459	0.9362	-0.489
Mof_O 	O 	3.48582e-33	0.8081	0.9297	-0.47
Mof_C 	C 	1.1712e-32	0.7898	0.8485	-0.151
Mof_C 	C 	-5.47526e-33	0.7569	0.8149	0.029
Mof_H 	H 	3.08688e-33	0.7249	0.8233	0.033
Mof_C 	C 	3.37333e-33	0.7756	0.8997	0.494
Mof_O 	O 	1.20408e-32	0.6459	0.9362	-0.477
Mof_O 	O 	1.61112e-33	0.3081	0.4297	-0.455
Mof_C 	C 	-2.95866e-33	0.2898	0.3485	-0.145
Mof_C 	C 	-3.08464e-33	0.2569	0.3149	0.026
Mof_H 	H 	1.21218e-33	0.2249	0.3233	0.035
Mof_C 	C 	1.49863e-33	0.2756	0.3997	0.491
Mof_O 	O 	-2.62984e-33	0.1459	0.4362	-0.466
Mof_O 	O 	0.5	0.8081	0.5703	-0.459
Mof_C 	C 	0.5	0.7898	0.6515	-0.143
Mof_C 	C 	0.5	0.7569	0.6851	0.022
Mof_H 	H 	0.5	0.7249	0.6767	0.032
Mof_C 	C 	0.5	0.7756	0.6003	0.471
Mof_O 	O 	0.5	0.6459	0.5638	-0.479
Mof_O 	O 	0.5	0.3081	0.0703	-0.456
Mof_C 	C 	0.5	0.2898	0.1515	-0.141
Mof_C 	C 	0.5	0.2569	0.1851	0.02
Mof_H 	H 	0.5	0.2249	0.1767	0.033
Mof_C 	C 	0.5	0.2756	0.1003	0.47
Mof_O 	O 	0.5	0.1459	0.0638	-0.477
Mof_O 	O 	-9.3334e-33	0.8081	0.0703	-0.457
Mof_C 	C 	5.68034e-34	0.7898	0.1515	-0.147
Mof_C 	C 	-3.57131e-33	0.7569	0.1851	0.027
Mof_H 	H 	6.62519e-34	0.7249	0.1767	0.034
Mof_C 	C 	-9.22091e-33	0.7756	0.1003	0.491
Mof_O 	O 	5.0377e-33	0.6459	0.0638	-0.465
Mof_O 	O 	-6.39237e-33	0.3081	0.5703	-0.455
Mof_C 	C 	-6.08791e-33	0.2898	0.6515	-0.145
Mof_C 	C 	2.56871e-33	0.2569	0.6851	0.026
Mof_H 	H 	1.10679e-32	0.2249	0.6767	0.035
Mof_C 	C 	-6.27988e-33	0.2756	0.6003	0.491
Mof_O 	O 	2.11391e-33	0.1459	0.5638	-0.466
Mof_O 	O 	0.5	0.1919	0.4297	-0.456
Mof_C 	C 	0.5	0.2102	0.3485	-0.141
Mof_C 	C 	0.5	0.2431	0.3149	0.02
Mof_H 	H 	0.5	0.2751	0.3233	0.033
Mof_C 	C 	0.5	0.2244	0.3997	0.47
Mof_O 	O 	0.5	0.3541	0.4362	-0.479
Mof_O 	O 	0.5	0.6919	0.9297	-0.47
Mof_C 	C 	0.5	0.7102	0.8485	-0.145
Mof_C 	C 	0.5	0.7431	0.8149	0.022
Mof_H 	H 	0.5	0.7751	0.8233	0.031
Mof_C 	C 	0.5	0.7244	0.8997	0.473
Mof_O 	O 	0.5	0.8541	0.9362	-0.493
Mof_O 	O 	-5.04483e-33	0.1919	0.9297	-0.468
Mof_C 	C 	1.1712e-32	0.2102	0.8485	-0.148
Mof_C 	C 	-5.47526e-33	0.2431	0.8149	0.028
Mof_H 	H 	3.08688e-33	0.2751	0.8233	0.034
Mof_C 	C 	-5.15731e-33	0.2244	0.8997	0.493
Mof_O 	O 	3.51019e-33	0.3541	0.9362	-0.477
Mof_O 	O 	1.01418e-32	0.6919	0.4297	-0.455
Mof_C 	C 	5.57199e-33	0.7102	0.3485	-0.145
Mof_C 	C 	1.18069e-33	0.7431	0.3149	0.026
Mof_H 	H 	1.21218e-33	0.7751	0.3233	0.035
Mof_C 	C 	-1.12973e-32	0.7244	0.3997	0.491
Mof_O 	O 	1.01661e-32	0.8541	0.4362	-0.47
Mof_O 	O 	0.5703	0.5	0.1919	-0.456
Mof_C 	C 	0.6515	0.5	0.2102	-0.14
Mof_C 	C 	0.6851	0.5	0.2431	0.02
Mof_H 	H 	0.6767	0.5	0.2751	0.033
Mof_C 	C 	0.6003	0.5	0.2244	0.47
Mof_O 	O 	0.5638	0.5	0.3541	-0.479
Mof_O 	O 	0.5703	0	0.6919	-0.455
Mof_C 	C 	0.6515	-8.53065e-33	0.7102	-0.145
Mof_C 	C 	0.6851	0	0.7431	0.025
Mof_H 	H 	0.6767	0	0.7751	0.035
Mof_C 	C 	0.6003	0	0.7244	0.491
Mof_O 	O 	0.5638	0	0.8541	-0.47
Mof_O 	O 	0.0703	0.5	0.6919	-0.456
Mof_C 	C 	0.1515	0.5	0.7102	-0.141
Mof_C 	C 	0.1851	0.5	0.7431	0.02
Mof_H 	H 	0.1767	0.5	0.7751	0.033
Mof_C 	C 	0.1003	0.5	0.7244	0.47
Mof_O 	O 	0.0638	0.5	0.8541	-0.481
Mof_O 	O 	0.0703	2.13266e-33	0.1919	-0.454
Mof_C 	C 	0.1515	0	0.2102	-0.144
Mof_C 	C 	0.1851	0	0.2431	0.026
Mof_H 	H 	0.1767	-2.13266e-33	0.2751	0.035
Mof_C 	C 	0.1003	0	0.2244	0.49
Mof_O 	O 	0.0638	0	0.3541	-0.465
Mof_O 	O 	0.4297	0.5	0.8081	-0.459
Mof_C 	C 	0.3485	0.5	0.7898	-0.143
Mof_C 	C 	0.3149	0.5	0.7569	0.022
Mof_H 	H 	0.3233	0.5	0.7249	0.032
Mof_C 	C 	0.3997	0.5	0.7756	0.471
Mof_O 	O 	0.4362	0.5	0.6459	-0.479
Mof_O 	O 	0.4297	4.26532e-33	0.3081	-0.455
Mof_C 	C 	0.3485	-2.13266e-33	0.2898	-0.145
Mof_C 	C 	0.3149	0	0.2569	0.026
Mof_H 	H 	0.3233	0	0.2249	0.035
Mof_C 	C 	0.3997	2.13266e-33	0.2756	0.491
Mof_O 	O 	0.4362	0	0.1459	-0.466
Mof_O 	O 	0.9297	0.5	0.3081	-0.47
Mof_C 	C 	0.8485	0.5	0.2898	-0.145
Mof_C 	C 	0.8149	0.5	0.2569	0.023
Mof_H 	H 	0.8233	0.5	0.2249	0.032
Mof_C 	C 	0.8997	0.5	0.2756	0.473
Mof_O 	O 	0.9362	0.5	0.1459	-0.489
Mof_O 	O 	0.9297	0	0.8081	-0.47
Mof_C 	C 	0.8485	0	0.7898	-0.151
Mof_C 	C 	0.8149	0	0.7569	0.029
Mof_H 	H 	0.8233	0	0.7249	0.033
Mof_C 	C 	0.8997	0	0.7756	0.494
Mof_O 	O 	0.9362	0	0.6459	-0.477
Mof_O 	O 	0.5703	0.5	0.8081	-0.459
Mof_C 	C 	0.6515	0.5	0.7898	-0.143
Mof_C 	C 	0.6851	0.5	0.7569	0.022
Mof_H 	H 	0.6767	0.5	0.7249	0.032
Mof_C 	C 	0.6003	0.5	0.7756	0.471
Mof_O 	O 	0.5638	0.5	0.6459	-0.479
Mof_O 	O 	0.5703	4.26532e-33	0.3081	-0.455
Mof_C 	C 	0.6515	-2.13266e-33	0.2898	-0.145
Mof_C 	C 	0.6851	0	0.2569	0.026
Mof_H 	H 	0.6767	0	0.2249	0.035
Mof_C 	C 	0.6003	2.13266e-33	0.2756	0.491
Mof_O 	O 	0.5638	0	0.1459	-0.466
Mof_O 	O 	0.0703	0.5	0.3081	-0.456
Mof_C 	C 	0.1515	0.5	0.2898	-0.141
Mof_C 	C 	0.1851	0.5	0.2569	0.02
Mof_H 	H 	0.1767	0.5	0.2249	0.033
Mof_C 	C 	0.1003	0.5	0.2756	0.47
Mof_O 	O 	0.0638	0.5	0.1459	-0.477
Mof_O 	O 	0.0703	0	0.8081	-0.457
Mof_C 	C 	0.1515	0	0.7898	-0.147
Mof_C 	C 	0.1851	0	0.7569	0.027
Mof_H 	H 	0.1767	0	0.7249	0.034
Mof_C 	C 	0.1003	0	0.7756	0.491
Mof_O 	O 	0.0638	0	0.6459	-0.465
Mof_O 	O 	0.4297	0.5	0.1919	-0.456
Mof_C 	C 	0.3485	0.5	0.2102	-0.141
Mof_C 	C 	0.3149	0.5	0.2431	0.02
Mof_H 	H 	0.3233	0.5	0.2751	0.033
Mof_C 	C 	0.3997	0.5	0.2244	0.47
Mof_O 	O 	0.4362	0.5	0.3541	-0.479
Mof_O 	O 	0.4297	0	0.6919	-0.455
Mof_C 	C 	0.3485	-8.53065e-33	0.7102	-0.145
Mof_C 	C 	0.3149	0	0.7431	0.026
Mof_H 	H 	0.3233	0	0.7751	0.035
Mof_C 	C 	0.3997	0	0.7244	0.491
Mof_O 	O 	0.4362	0	0.8541	-0.47
Mof_O 	O 	0.9297	0.5	0.6919	-0.47
Mof_C 	C 	0.8485	0.5	0.7102	-0.145
Mof_C 	C 	0.8149	0.5	0.7431	0.022
Mof_H 	H 	0.8233	0.5	0.7751	0.031
Mof_C 	C 	0.8997	0.5	0.7244	0.473
Mof_O 	O 	0.9362	0.5	0.8541	-0.493
Mof_O 	O 	0.9297	2.13266e-33	0.1919	-0.468
Mof_C 	C 	0.8485	0	0.2102	-0.148
Mof_C 	C 	0.8149	0	0.2431	0.028
Mof_H 	H 	0.8233	-2.13266e-33	0.2751	0.034
Mof_C 	C 	0.8997	0	0.2244	0.493
Mof_O 	O 	0.9362	0	0.3541	-0.477
Mof_O 	O 	0.5703	0.1919	0.5	-0.456
Mof_C 	C 	0.6515	0.2102	0.5	-0.14
Mof_C 	C 	0.6851	0.2431	0.5	0.02
Mof_H 	H 	0.6767	0.2751	0.5	0.033
Mof_C 	C 	0.6003	0.2244	0.5	0.47
Mof_O 	O 	0.5638	0.3541	0.5	-0.479
Mof_O 	O 	0.5703	0.6919	-0	-0.455
Mof_C 	C 	0.6515	0.7102	-0	-0.145
Mof_C 	C 	0.6851	0.7431	-0	0.025
Mof_H 	H 	0.6767	0.7751	-0	0.035
Mof_C 	C 	0.6003	0.7244	-0	0.491
Mof_O 	O 	0.5638	0.8541	-0	-0.47
Mof_O 	O 	0.0703	0.1919	-0	-0.454
Mof_C 	C 	0.1515	0.2102	-0	-0.144
Mof_C 	C 	0.1851	0.2431	-0	0.026
Mof_H 	H 	0.1767	0.2751	-0	0.035
Mof_C 	C 	0.1003	0.2244	-0	0.49
Mof_O 	O 	0.0638	0.3541	-0	-0.465
Mof_O 	O 	0.0703	0.6919	0.5	-0.456
Mof_C 	C 	0.1515	0.7102	0.5	-0.141
Mof_C 	C 	0.1851	0.7431	0.5	0.02
Mof_H 	H 	0.1767	0.7751	0.5	0.033
Mof_C 	C 	0.1003	0.7244	0.5	0.47
Mof_O 	O 	0.0638	0.8541	0.5	-0.481
Mof_O 	O 	0.4297	0.8081	0.5	-0.459
Mof_C 	C 	0.3485	0.7898	0.5	-0.143
Mof_C 	C 	0.3149	0.7569	0.5	0.022
Mof_H 	H 	0.3233	0.7249	0.5	0.032
Mof_C 	C 	0.3997	0.7756	0.5	0.471
Mof_O 	O 	0.4362	0.6459	0.5	-0.479
Mof_O 	O 	0.4297	0.3081	-0	-0.455
Mof_C 	C 	0.3485	0.2898	-0	-0.145
Mof_C 	C 	0.3149	0.2569	-0	0.026
Mof_H 	H 	0.3233	0.2249	-0	0.035
Mof_C 	C 	0.3997	0.2756	-0	0.491
Mof_O 	O 	0.4362	0.1459	-0	-0.466
Mof_O 	O 	0.9297	0.8081	-0	-0.47
Mof_C 	C 	0.8485	0.7898	-0	-0.151
Mof_C 	C 	0.8149	0.7569	-0	0.029
Mof_H 	H 	0.8233	0.7249	-0	0.033
Mof_C 	C 	0.8997	0.7756	-0	0.494
Mof_O 	O 	0.9362	0.6459	-0	-0.477
Mof_O 	O 	0.9297	0.3081	0.5	-0.47
Mof_C 	C 	0.8485	0.2898	0.5	-0.145
Mof_C 	C 	0.8149	0.2569	0.5	0.023
Mof_H 	H 	0.8233	0.2249	0.5	0.032
Mof_C 	C 	0.8997	0.2756	0.5	0.473
Mof_O 	O 	0.9362	0.1459	0.5	-0.489
Mof_O 	O 	0.5703	0.8081	0.5	-0.459
Mof_C 	C 	0.6515	0.7898	0.5	-0.143
Mof_C 	C 	0.6851	0.7569	0.5	0.022
Mof_H 	H 	0.6767	0.7249	0.5	0.032
Mof_C 	C 	0.6003	0.7756	0.5	0.471
Mof_O 	O 	0.5638	0.6459	0.5	-0.479
Mof_O 	O 	0.5703	0.3081	-0	-0.455
Mof_C 	C 	0.6515	0.2898	-0	-0.145
Mof_C 	C 	0.6851	0.2569	-0	0.026
Mof_H 	H 	0.6767	0.2249	-0	0.035
Mof_C 	C 	0.6003	0.2756	-0	0.491
Mof_O 	O 	0.5638	0.1459	-0	-0.466
Mof_O 	O 	0.0703	0.8081	-0	-0.457
Mof_C 	C 	0.1515	0.7898	-0	-0.147
Mof_C 	C 	0.1851	0.7569	-0	0.027
Mof_H 	H 	0.1767	0.7249	-0	0.034
Mof_C 	C 	0.1003	0.7756	-0	0.491
Mof_O 	O 	0.0638	0.6459	-0	-0.465
Mof_O 	O 	0.0703	0.3081	0.5	-0.456
Mof_C 	C 	0.1515	0.2898	0.5	-0.141
Mof_C 	C 	0.1851	0.2569	0.5	0.02
Mof_H 	H 	0.1767	0.2249	0.5	0.033
Mof_C 	C 	0.1003	0.2756	0.5	0.47
Mof_O 	O 	0.0638	0.1459	0.5	-0.477
Mof_O 	O 	0.4297	0.1919	0.5	-0.456
Mof_C 	C 	0.3485	0.2102	0.5	-0.141
Mof_C 	C 	0.3149	0.2431	0.5	0.02
Mof_H 	H 	0.3233	0.2751	0.5	0.033
Mof_C 	C 	0.3997	0.2244	0.5	0.47
Mof_O 	O 	0.4362	0.3541	0.5	-0.479
Mof_O 	O 	0.4297	0.6919	-0	-0.455
Mof_C 	C 	0.3485	0.7102	-0	-0.145
Mof_C 	C 	0.3149	0.7431	-0	0.026
Mof_H 	H 	0.3233	0.7751	-0	0.035
Mof_C 	C 	0.3997	0.7244	-0	0.491
Mof_O 	O 	0.4362	0.8541	-0	-0.47
Mof_O 	O 	0.9297	0.1919	-0	-0.468
Mof_C 	C 	0.8485	0.2102	-0	-0.148
Mof_C 	C 	0.8149	0.2431	-0	0.028
Mof_H 	H 	0.8233	0.2751	-0	0.034
Mof_C 	C 	0.8997	0.2244	-0	0.493
Mof_O 	O 	0.9362	0.3541	-0	-0.477
Mof_O 	O 	0.9297	0.6919	0.5	-0.47
Mof_C 	C 	0.8485	0.7102	0.5	-0.145
Mof_C 	C 	0.8149	0.7431	0.5	0.022
Mof_H 	H 	0.8233	0.7751	0.5	0.031
Mof_C 	C 	0.8997	0.7244	0.5	0.473
Mof_O 	O 	0.9362	0.8541	0.5	-0.493
Mof_O 	O 	0.1919	0.5	0.4297	-0.456
Mof_C 	C 	0.2102	0.5	0.3485	-0.141
Mof_C 	C 	0.2431	0.5	0.3149	0.02
Mof_H 	H 	0.2751	0.5	0.3233	0.033
Mof_C 	C 	0.2244	0.5	0.3997	0.47
Mof_O 	O 	0.3541	0.5	0.4362	-0.479
Mof_O 	O 	0.1919	-8.53065e-33	0.9297	-0.468
Mof_C 	C 	0.2102	0	0.8485	-0.148
Mof_C 	C 	0.2431	0	0.8149	0.028
Mof_H 	H 	0.2751	0	0.8233	0.034
Mof_C 	C 	0.2244	0	0.8997	0.493
Mof_O 	O 	0.3541	0	0.9362	-0.477
Mof_O 	O 	0.6919	0.5	0.9297	-0.47
Mof_C 	C 	0.7102	0.5	0.8485	-0.145
Mof_C 	C 	0.7431	0.5	0.8149	0.022
Mof_H 	H 	0.7751	0.5	0.8233	0.031
Mof_C 	C 	0.7244	0.5	0.8997	0.473
Mof_O 	O 	0.8541	0.5	0.9362	-0.493
Mof_O 	O 	0.6919	0	0.4297	-0.455
Mof_C 	C 	0.7102	4.26532e-33	0.3485	-0.145
Mof_C 	C 	0.7431	0	0.3149	0.026
Mof_H 	H 	0.7751	0	0.3233	0.035
Mof_C 	C 	0.7244	0	0.3997	0.491
Mof_O 	O 	0.8541	4.26532e-33	0.4362	-0.47
Mof_O 	O 	0.8081	0.5	0.5703	-0.459
Mof_C 	C 	0.7898	0.5	0.6515	-0.143
Mof_C 	C 	0.7569	0.5	0.6851	0.022
Mof_H 	H 	0.7249	0.5	0.6767	0.032
Mof_C 	C 	0.7756	0.5	0.6003	0.471
Mof_O 	O 	0.6459	0.5	0.5638	-0.479
Mof_O 	O 	0.8081	0	0.0703	-0.457
Mof_C 	C 	0.7898	0	0.1515	-0.147
Mof_C 	C 	0.7569	0	0.1851	0.027
Mof_H 	H 	0.7249	0	0.1767	0.034
Mof_C 	C 	0.7756	1.06633e-33	0.1003	0.491
Mof_O 	O 	0.6459	-5.33165e-34	0.0638	-0.465
Mof_O 	O 	0.3081	0.5	0.0703	-0.456
Mof_C 	C 	0.2898	0.5	0.1515	-0.141
Mof_C 	C 	0.2569	0.5	0.1851	0.02
Mof_H 	H 	0.2249	0.5	0.1767	0.033
Mof_C 	C 	0.2756	0.5	0.1003	0.47
Mof_O 	O 	0.1459	0.5	0.0638	-0.477
Mof_O 	O 	0.3081	0	0.5703	-0.455
Mof_C 	C 	0.2898	0	0.6515	-0.145
Mof_C 	C 	0.2569	0	0.6851	0.026
Mof_H 	H 	0.2249	8.53065e-33	0.6767	0.035
Mof_C 	C 	0.2756	0	0.6003	0.491
Mof_O 	O 	0.1459	0	0.5638	-0.466
Mof_O 	O 	0.8081	0.5	0.4297	-0.459
Mof_C 	C 	0.7898	0.5	0.3485	-0.143
Mof_C 	C 	0.7569	0.5	0.3149	0.022
Mof_H 	H 	0.7249	0.5	0.3233	0.032
Mof_C 	C 	0.7756	0.5	0.3997	0.471
Mof_O 	O 	0.6459	0.5	0.4362	-0.479
Mof_O 	O 	0.8081	-8.53065e-33	0.9297	-0.47
Mof_C 	C 	0.7898	0	0.8485	-0.151
Mof_C 	C 	0.7569	0	0.8149	0.029
Mof_H 	H 	0.7249	0	0.8233	0.033
Mof_C 	C 	0.7756	0	0.8997	0.494
Mof_O 	O 	0.6459	0	0.9362	-0.477
Mof_O 	O 	0.3081	0.5	0.9297	-0.47
Mof_C 	C 	0.2898	0.5	0.8485	-0.145
Mof_C 	C 	0.2569	0.5	0.8149	0.023
Mof_H 	H 	0.2249	0.5	0.8233	0.032
Mof_C 	C 	0.2756	0.5	0.8997	0.473
Mof_O 	O 	0.1459	0.5	0.9362	-0.489
Mof_O 	O 	0.3081	0	0.4297	-0.455
Mof_C 	C 	0.2898	4.26532e-33	0.3485	-0.145
Mof_C 	C 	0.2569	0	0.3149	0.026
Mof_H 	H 	0.2249	0	0.3233	0.035
Mof_C 	C 	0.2756	0	0.3997	0.491
Mof_O 	O 	0.1459	4.26532e-33	0.4362	-0.466
Mof_O 	O 	0.1919	0.5	0.5703	-0.456
Mof_C 	C 	0.2102	0.5	0.6515	-0.14
Mof_C 	C 	0.2431	0.5	0.6851	0.02
Mof_H 	H 	0.2751	0.5	0.6767	0.033
Mof_C 	C 	0.2244	0.5	0.6003	0.47
Mof_O 	O 	0.3541	0.5	0.5638	-0.479
Mof_O 	O 	0.1919	0	0.0703	-0.454
Mof_C 	C 	0.2102	0	0.1515	-0.144
Mof_C 	C 	0.2431	0	0.1851	0.026
Mof_H 	H 	0.2751	0	0.1767	0.035
Mof_C 	C 	0.2244	1.06633e-33	0.1003	0.49
Mof_O 	O 	0.3541	-5.33165e-34	0.0638	-0.465
Mof_O 	O 	0.6919	0.5	0.0703	-0.456
Mof_C 	C 	0.7102	0.5	0.1515	-0.141
Mof_C 	C 	0.7431	0.5	0.1851	0.02
Mof_H 	H 	0.7751	0.5	0.1767	0.033
Mof_C 	C 	0.7244	0.5	0.1003	0.47
Mof_O 	O 	0.8541	0.5	0.0638	-0.481
Mof_O 	O 	0.6919	0	0.5703	-0.455
Mof_C 	C 	0.7102	0	0.6515	-0.145
Mof_C 	C 	0.7431	0	0.6851	0.025
Mof_H 	H 	0.7751	8.53065e-33	0.6767	0.035
Mof_C 	C 	0.7244	0	0.6003	0.491
Mof_O 	O 	0.8541	0	0.5638	-0.47
Mof_O 	O 	0.5	0.5703	0.8081	-0.459
Mof_C 	C 	0.5	0.6515	0.7898	-0.143
Mof_C 	C 	0.5	0.6851	0.7569	0.022
Mof_H 	H 	0.5	0.6767	0.7249	0.032
Mof_C 	C 	0.5	0.6003	0.7756	0.471
Mof_O 	O 	0.5	0.5638	0.6459	-0.479
Mof_O 	O 	0.5	0.0703	0.3081	-0.456
Mof_C 	C 	0.5	0.1515	0.2898	-0.141
Mof_C 	C 	0.5	0.1851	0.2569	0.02
Mof_H 	H 	0.5	0.1767	0.2249	0.033
Mof_C 	C 	0.5	0.1003	0.2756	0.47
Mof_O 	O 	0.5	0.0638	0.1459	-0.477
Mof_O 	O 	-9.77472e-34	0.5703	0.3081	-0.455
Mof_C 	C 	-7.44407e-33	0.6515	0.2898	-0.145
Mof_C 	C 	3.09588e-33	0.6851	0.2569	0.026
Mof_H 	H 	9.37389e-33	0.6767	0.2249	0.035
Mof_C 	C 	-5.36465e-33	0.6003	0.2756	0.491
Mof_O 	O 	3.74603e-33	0.5638	0.1459	-0.466
Mof_O 	O 	-5.50076e-33	0.0703	0.8081	-0.457
Mof_C 	C 	2.96128e-33	0.1515	0.7898	-0.147
Mof_C 	C 	-5.69273e-33	0.1851	0.7569	0.027
Mof_H 	H 	2.71794e-33	0.1767	0.7249	0.034
Mof_C 	C 	-5.62261e-33	0.1003	0.7756	0.491
Mof_O 	O 	2.42174e-33	0.0638	0.6459	-0.465
Mof_O 	O 	0.5	0.4297	0.1919	-0.456
Mof_C 	C 	0.5	0.3485	0.2102	-0.141
Mof_C 	C 	0.5	0.3149	0.2431	0.02
Mof_H 	H 	0.5	0.3233	0.2751	0.033
Mof_C 	C 	0.5	0.3997	0.2244	0.47
Mof_O 	O 	0.5	0.4362	0.3541	-0.479
Mof_O 	O 	0.5	0.9297	0.6919	-0.47
Mof_C 	C 	0.5	0.8485	0.7102	-0.145
Mof_C 	C 	0.5	0.8149	0.7431	0.022
Mof_H 	H 	0.5	0.8233	0.7751	0.031
Mof_C 	C 	0.5	0.8997	0.7244	0.473
Mof_O 	O 	0.5	0.9362	0.8541	-0.493
Mof_O 	O 	2.59421e-33	0.4297	0.6919	-0.455
Mof_C 	C 	2.66282e-33	0.3485	0.7102	-0.145
Mof_C 	C 	-5.74447e-33	0.3149	0.7431	0.026
Mof_H 	H 	2.90616e-33	0.3233	0.7751	0.035
Mof_C 	C 	-1.43452e-32	0.3997	0.7244	0.491
Mof_O 	O 	3.20236e-33	0.4362	0.8541	-0.47
Mof_O 	O 	-5.67848e-33	0.9297	0.1919	-0.468
Mof_C 	C 	9.31877e-33	0.8485	0.2102	-0.148
Mof_C 	C 	9.11479e-34	0.8149	0.2431	0.028
Mof_H 	H 	3.16412e-33	0.8233	0.2751	0.034
Mof_C 	C 	-1.2913e-33	0.8997	0.2244	0.493
Mof_O 	O 	1.32766e-33	0.9362	0.3541	-0.477
Mof_O 	O 	0.5	0.5703	0.1919	-0.456
Mof_C 	C 	0.5	0.6515	0.2102	-0.14
Mof_C 	C 	0.5	0.6851	0.2431	0.02
Mof_H 	H 	0.5	0.6767	0.2751	0.033
Mof_C 	C 	0.5	0.6003	0.2244	0.47
Mof_O 	O 	0.5	0.5638	0.3541	-0.479
Mof_O 	O 	0.5	0.0703	0.6919	-0.456
Mof_C 	C 	0.5	0.1515	0.7102	-0.141
Mof_C 	C 	0.5	0.1851	0.7431	0.02
Mof_H 	H 	0.5	0.1767	0.7751	0.033
Mof_C 	C 	0.5	0.1003	0.7244	0.47
Mof_O 	O 	0.5	0.0638	0.8541	-0.481
Mof_O 	O 	2.59421e-33	0.5703	0.6919	-0.455
Mof_C 	C 	-5.86782e-33	0.6515	0.7102	-0.145
Mof_C 	C 	-5.74447e-33	0.6851	0.7431	0.025
Mof_H 	H 	2.90616e-33	0.6767	0.7751	0.035
Mof_C 	C 	-1.43452e-32	0.6003	0.7244	0.491
Mof_O 	O 	3.20236e-33	0.5638	0.8541	-0.47
Mof_O 	O 	7.1951e-34	0.0703	0.1919	-0.454
Mof_C 	C 	-3.4772e-33	0.1515	0.2102	-0.144
Mof_C 	C 	9.11479e-34	0.1851	0.2431	0.026
Mof_H 	H 	1.03146e-33	0.1767	0.2751	0.035
Mof_C 	C 	8.41365e-34	0.1003	0.2244	0.49
Mof_O 	O 	1.32766e-33	0.0638	0.3541	-0.465
Mof_O 	O 	0.5	0.4297	0.8081	-0.459
Mof_C 	C 	0.5	0.3485	0.7898	-0.143
Mof_C 	C 	0.5	0.3149	0.7569	0.022
Mof_H 	H 	0.5	0.3233	0.7249	0.032
Mof_C 	C 	0.5	0.3997	0.7756	0.471
Mof_O 	O 	0.5	0.4362	0.6459	-0.479
Mof_O 	O 	0.5	0.9297	0.3081	-0.47
Mof_C 	C 	0.5	0.8485	0.2898	-0.145
Mof_C 	C 	0.5	0.8149	0.2569	0.023
Mof_H 	H 	0.5	0.8233	0.2249	0.032
Mof_C 	C 	0.5	0.8997	0.2756	0.473
Mof_O 	O 	0.5	0.9362	0.1459	-0.489
Mof_O 	O 	-9.77472e-34	0.4297	0.3081	-0.455
Mof_C 	C 	-3.17875e-33	0.3485	0.2898	-0.145
Mof_C 	C 	-1.16944e-33	0.3149	0.2569	0.026
Mof_H 	H 	5.10856e-33	0.3233	0.2249	0.035
Mof_C 	C 	3.166e-33	0.3997	0.2756	0.491
Mof_O 	O 	-5.19294e-34	0.4362	0.1459	-0.466
Mof_O 	O 	3.02989e-33	0.9297	0.8081	-0.47
Mof_C 	C 	1.14919e-32	0.8485	0.7898	-0.151
Mof_C 	C 	-5.69273e-33	0.8149	0.7569	0.029
Mof_H 	H 	2.71794e-33	0.8233	0.7249	0.033
Mof_C 	C 	2.90803e-33	0.8997	0.7756	0.494
Mof_O 	O 	1.09524e-32	0.9362	0.6459	-0.477
Mof_C 	C 	0.1629	0.6629	0.5	0.072
Mof_H 	H 	0.1395	0.6395	0.5	0.03
Mof_C 	C 	0.2309	0.7309	0.5	-0.023
Mof_C 	C 	0.1629	0.1629	-0	0.079
Mof_H 	H 	0.1395	0.1395	-0	0.031
Mof_C 	C 	0.2309	0.2309	-0	-0.023
Mof_C 	C 	0.8371	0.3371	0.5	0.074
Mof_H 	H 	0.8605	0.3605	0.5	0.026
Mof_C 	C 	0.7691	0.2691	0.5	-0.026
Mof_C 	C 	0.8371	0.8371	-0	0.083
Mof_H 	H 	0.8605	0.8605	-0	0.023
Mof_C 	C 	0.7691	0.7691	-0	-0.028
Mof_C 	C 	0.8371	0.6629	0.5	0.074
Mof_H 	H 	0.8605	0.6395	0.5	0.026
Mof_C 	C 	0.7691	0.7309	0.5	-0.025
Mof_C 	C 	0.8371	0.1629	-0	0.081
Mof_H 	H 	0.8605	0.1395	-0	0.027
Mof_C 	C 	0.7691	0.2309	-0	-0.025
Mof_C 	C 	0.1629	0.3371	0.5	0.072
Mof_H 	H 	0.1395	0.3605	0.5	0.03
Mof_C 	C 	0.2309	0.2691	0.5	-0.024
Mof_C 	C 	0.1629	0.8371	-0	0.081
Mof_H 	H 	0.1395	0.8605	-0	0.027
Mof_C 	C 	0.2309	0.7691	-0	-0.025
Mof_C 	C 	0.5	0.1629	0.6629	0.072
Mof_H 	H 	0.5	0.1395	0.6395	0.03
Mof_C 	C 	0.5	0.2309	0.7309	-0.023
Mof_C 	C 	-3.65455e-33	0.1629	0.1629	0.079
Mof_H 	H 	2.6557e-33	0.1395	0.1395	0.031
Mof_C 	C 	8.65736e-34	0.2309	0.2309	-0.023
Mof_C 	C 	0.5	0.8371	0.3371	0.074
Mof_H 	H 	0.5	0.8605	0.3605	0.026
Mof_C 	C 	0.5	0.7691	0.2691	-0.026
Mof_C 	C 	2.01999e-32	0.8371	0.8371	0.083
Mof_H 	H 	2.02877e-32	0.8605	0.8605	0.023
Mof_C 	C 	2.88366e-33	0.7691	0.7691	-0.028
Mof_C 	C 	0.5	0.8371	0.6629	0.074
Mof_H 	H 	0.5	0.8605	0.6395	0.026
Mof_C 	C 	0.5	0.7691	0.7309	-0.025
Mof_C 	C 	4.8761e-33	0.8371	0.1629	0.081
Mof_H 	H 	9.05369e-33	0.8605	0.1395	0.027
Mof_C 	C 	8.65736e-34	0.7691	0.2309	-0.025
Mof_C 	C 	0.5	0.1629	0.3371	0.072
Mof_H 	H 	0.5	0.1395	0.3605	0.03
Mof_C 	C 	0.5	0.2309	0.2691	-0.024
Mof_C 	C 	3.13862e-33	0.1629	0.8371	0.081
Mof_H 	H 	3.22636e-33	0.1395	0.8605	0.027
Mof_C 	C 	-5.64698e-33	0.2309	0.7691	-0.025
Mof_C 	C 	0.6629	0.5	0.1629	0.072
Mof_H 	H 	0.6395	0.5	0.1395	0.03
Mof_C 	C 	0.7309	0.5	0.2309	-0.023
Mof_C 	C 	0.6629	0	0.6629	0.079
Mof_H 	H 	0.6395	8.53065e-33	0.6395	0.03
Mof_C 	C 	0.7309	-8.53065e-33	0.7309	-0.023
Mof_C 	C 	0.3371	0.5	0.8371	0.074
Mof_H 	H 	0.3605	0.5	0.8605	0.026
Mof_C 	C 	0.2691	0.5	0.7691	-0.026
Mof_C 	C 	0.3371	0	0.3371	0.08
Mof_H 	H 	0.3605	4.26532e-33	0.3605	0.03
Mof_C 	C 	0.2691	0	0.2691	-0.024
Mof_C 	C 	0.6629	0.5	0.8371	0.074
Mof_H 	H 	0.6395	0.5	0.8605	0.026
Mof_C 	C 	0.7309	0.5	0.7691	-0.025
Mof_C 	C 	0.6629	0	0.3371	0.08
Mof_H 	H 	0.6395	4.26532e-33	0.3605	0.03
Mof_C 	C 	0.7309	0	0.2691	-0.024
Mof_C 	C 	0.3371	0.5	0.1629	0.072
Mof_H 	H 	0.3605	0.5	0.1395	0.03
Mof_C 	C 	0.2691	0.5	0.2309	-0.024
Mof_C 	C 	0.3371	0	0.6629	0.08
Mof_H 	H 	0.3605	8.53065e-33	0.6395	0.03
Mof_C 	C 	0.2691	-8.53065e-33	0.7309	-0.024
Mof_C 	C 	0.6629	0.1629	0.5	0.072
Mof_H 	H 	0.6395	0.1395	0.5	0.03
Mof_C 	C 	0.7309	0.2309	0.5	-0.023
Mof_C 	C 	0.6629	0.6629	-0	0.079
Mof_H 	H 	0.6395	0.6395	-0	0.03
Mof_C 	C 	0.7309	0.7309	-0	-0.023
Mof_C 	C 	0.3371	0.8371	0.5	0.074
Mof_H 	H 	0.3605	0.8605	0.5	0.026
Mof_C 	C 	0.2691	0.7691	0.5	-0.026
Mof_C 	C 	0.3371	0.3371	-0	0.08
Mof_H 	H 	0.3605	0.3605	-0	0.03
Mof_C 	C 	0.2691	0.2691	-0	-0.024
Mof_C 	C 	0.6629	0.8371	0.5	0.074
Mof_H 	H 	0.6395	0.8605	0.5	0.026
Mof_C 	C 	0.7309	0.7691	0.5	-0.025
Mof_C 	C 	0.6629	0.3371	-0	0.08
Mof_H 	H 	0.6395	0.3605	-0	0.03
Mof_C 	C 	0.7309	0.2691	-0	-0.024
Mof_C 	C 	0.3371	0.1629	0.5	0.072
Mof_H 	H 	0.3605	0.1395	0.5	0.03
Mof_C 	C 	0.2691	0.2309	0.5	-0.024
Mof_C 	C 	0.3371	0.6629	-0	0.08
Mof_H 	H 	0.3605	0.6395	-0	0.03
Mof_C 	C 	0.2691	0.7309	-0	-0.024
Mof_C 	C 	0.1629	0.5	0.3371	0.072
Mof_H 	H 	0.1395	0.5	0.3605	0.03
Mof_C 	C 	0.2309	0.5	0.2691	-0.024
Mof_C 	C 	0.1629	8.53065e-33	0.8371	0.081
Mof_H 	H 	0.1395	8.53065e-33	0.8605	0.027
Mof_C 	C 	0.2309	0	0.7691	-0.025
Mof_C 	C 	0.8371	0.5	0.6629	0.074
Mof_H 	H 	0.8605	0.5	0.6395	0.026
Mof_C 	C 	0.7691	0.5	0.7309	-0.025
Mof_C 	C 	0.8371	0	0.1629	0.081
Mof_H 	H 	0.8605	0	0.1395	0.027
Mof_C 	C 	0.7691	-2.13266e-33	0.2309	-0.025
Mof_C 	C 	0.8371	0.5	0.3371	0.074
Mof_H 	H 	0.8605	0.5	0.3605	0.026
Mof_C 	C 	0.7691	0.5	0.2691	-0.026
Mof_C 	C 	0.8371	8.53065e-33	0.8371	0.083
Mof_H 	H 	0.8605	8.53065e-33	0.8605	0.023
Mof_C 	C 	0.7691	0	0.7691	-0.028
Mof_C 	C 	0.1629	0.5	0.6629	0.072
Mof_H 	H 	0.1395	0.5	0.6395	0.03
Mof_C 	C 	0.2309	0.5	0.7309	-0.023
Mof_C 	C 	0.1629	0	0.1629	0.079
Mof_H 	H 	0.1395	0	0.1395	0.031
Mof_C 	C 	0.2309	-2.13266e-33	0.2309	-0.023
Mof_C 	C 	0.5	0.6629	0.8371	0.074
Mof_H 	H 	0.5	0.6395	0.8605	0.026
Mof_C 	C 	0.5	0.7309	0.7691	-0.025
Mof_C 	C 	9.79457e-33	0.6629	0.3371	0.08
Mof_H 	H 	5.61698e-33	0.6395	0.3605	0.03
Mof_C 	C 	-5.38902e-33	0.7309	0.2691	-0.024
Mof_C 	C 	0.5	0.3371	0.1629	0.072
Mof_H 	H 	0.5	0.3605	0.1395	0.03
Mof_C 	C 	0.5	0.2691	0.2309	-0.024
Mof_C 	C 	2.48548e-33	0.3371	0.6629	0.08
Mof_H 	H 	2.39774e-33	0.3605	0.6395	0.03
Mof_C 	C 	-5.79021e-33	0.2691	0.7309	-0.024
Mof_C 	C 	0.5	0.6629	0.1629	0.072
Mof_H 	H 	0.5	0.6395	0.1395	0.03
Mof_C 	C 	0.5	0.7309	0.2309	-0.023
Mof_C 	C 	1.95468e-32	0.6629	0.6629	0.079
Mof_H 	H 	1.9459e-32	0.6395	0.6395	0.03
Mof_C 	C 	-1.43209e-32	0.7309	0.7309	-0.023
Mof_C 	C 	0.5	0.3371	0.8371	0.074
Mof_H 	H 	0.5	0.3605	0.8605	0.026
Mof_C 	C 	0.5	0.2691	0.7691	-0.026
Mof_C 	C 	1.26392e-33	0.3371	0.3371	0.08
Mof_H 	H 	9.88231e-33	0.3605	0.3605	0.03
Mof_C 	C 	-5.38902e-33	0.2691	0.2691	-0.024
_end
