data_functionalizedCrystal
_audit_creation_method	'EQeq! by Chris Wilmer'
_symmetry_space_group_name_H-M	'P1'
_symmetry_Int_Tables_number	1
_symmetry_cell_setting	triclinic
loop_
_symmetry_equiv_pos_as_xyz
  x,y,z
_cell_length_a	8.947
_cell_length_b	8.947
_cell_length_c	10.898
_cell_angle_alpha	90
_cell_angle_beta	90
_cell_angle_gamma	120
loop_
_atom_site_label
_atom_site_type_symbol
_atom_site_fract_x
_atom_site_fract_y
_atom_site_fract_z
_atom_site_charge
Mof_Ti	Ti	-2.48621e-17	0.5	0.16667	1.371
Mof_Ti	Ti	0.5	-1.67066e-32	0.83333	1.377
Mof_Ti	Ti	0.5	0.5	0.5	1.432
Mof_C 	C 	0.30847	0.61694	0.33333	0.234
Mof_C 	C 	0.21052	0.42104	0.33333	0.284
Mof_C 	C 	0.30847	0.69153	-0	0.163
Mof_C 	C 	0.21052	0.78948	-0	0.205
Mof_C 	C 	0.38306	0.69153	0.66667	0.24
Mof_C 	C 	0.57896	0.78948	0.66667	0.284
Mof_C 	C 	0.69153	0.38306	0.33333	0.238
Mof_C 	C 	0.78948	0.57896	0.33333	0.281
Mof_C 	C 	0.69153	0.30847	-0	0.168
Mof_C 	C 	0.78948	0.21052	-0	0.221
Mof_C 	C 	0.61694	0.30847	0.66667	0.237
Mof_C 	C 	0.42104	0.21052	0.66667	0.287
Mof_O 	O 	0.2371	0.686	0.27629	-0.312
Mof_O 	O 	0.0761	0.3485	0.26999	-0.378
Mof_O 	O 	0.4489	0.7629	0.94296	-0.234
Mof_O 	O 	0.2724	0.9239	0.93666	-0.282
Mof_O 	O 	0.314	0.5511	0.60962	-0.314
Mof_O 	O 	0.6515	0.7276	0.60332	-0.363
Mof_O 	O 	0.7629	0.314	0.27629	-0.309
Mof_O 	O 	0.9239	0.6515	0.26999	-0.348
Mof_O 	O 	0.5511	0.2371	0.94296	-0.25
Mof_O 	O 	0.7276	0.0761	0.93666	-0.316
Mof_O 	O 	0.686	0.4489	0.60962	-0.307
Mof_O 	O 	0.3485	0.2724	0.60332	-0.372
Mof_O 	O 	0.5511	0.314	0.39038	-0.321
Mof_O 	O 	0.7276	0.6515	0.39668	-0.366
Mof_O 	O 	0.686	0.2371	0.72371	-0.303
Mof_O 	O 	0.3485	0.0761	0.73001	-0.377
Mof_O 	O 	0.7629	0.4489	0.05704	-0.302
Mof_O 	O 	0.9239	0.2724	0.06334	-0.348
Mof_O 	O 	0.4489	0.686	0.39038	-0.313
Mof_O 	O 	0.2724	0.3485	0.39668	-0.375
Mof_O 	O 	0.314	0.7629	0.72371	-0.299
Mof_O 	O 	0.6515	0.9239	0.73001	-0.346
Mof_O 	O 	0.2371	0.5511	0.05704	-0.313
Mof_O 	O 	0.0761	0.7276	0.06334	-0.369
Mof_H 	H 	0.89529	0.9103	0.88284	0.184
Mof_H 	H 	0.10471	0.0897	0.88284	0.148
Mof_H 	H 	0.98499	0.0897	0.78383	0.153
Mof_H 	H 	0.01501	0.9103	0.78383	0.151
Mof_N 	N 	-0	-1.67066e-32	0.83333	-0.333
Mof_H 	H 	0.01501	0.10471	0.54951	0.129
Mof_H 	H 	0.98499	0.89529	0.54951	0.172
Mof_H 	H 	0.10471	0.01501	0.45049	0.128
Mof_H 	H 	0.89529	0.98499	0.45049	0.171
Mof_N 	N 	4.17665e-33	0	0.5	-0.332
Mof_H 	H 	0.0897	0.98499	0.21617	0.143
Mof_H 	H 	0.9103	0.01501	0.21617	0.14
Mof_H 	H 	0.9103	0.89529	0.11716	0.15
Mof_H 	H 	0.0897	0.10471	0.11716	0.114
Mof_N 	N 	2.08833e-33	-4.17665e-33	0.16667	-0.323
_end
