data_functionalizedCrystal
_audit_creation_method	'EQeq! by Chris Wilmer'
_symmetry_space_group_name_H-M	'P1'
_symmetry_Int_Tables_number	1
_symmetry_cell_setting	triclinic
loop_
_symmetry_equiv_pos_as_xyz
  x,y,z
_cell_length_a	12.8097
_cell_length_b	8.1785
_cell_length_c	23.3387
_cell_angle_alpha	90
_cell_angle_beta	104.414
_cell_angle_gamma	90
loop_
_atom_site_label
_atom_site_type_symbol
_atom_site_fract_x
_atom_site_fract_y
_atom_site_fract_z
_atom_site_charge
Mof_Cd	Cd	0.31075	0.77039	0.40366	0.414
Mof_O 	O 	0.1306	0.7581	0.34101	-0.271
Mof_S 	S 	0.03052	0.84396	0.34216	0.476
Mof_C 	C 	0.7427	0.2466	0.472	0.059
Mof_H 	H 	0.7001	0.1532	0.4674	0.027
Mof_C 	C 	0.0421	0.8889	0.22884	0.033
Mof_H 	H 	0.1045	0.8267	0.2407	0.047
Mof_N 	N 	0.3849	0.8457	0.32852	-0.143
Mof_O 	O 	0.1752	0.0106	0.1304	-0.278
Mof_N 	N 	0.7569	0.3295	0.52199	-0.142
Mof_C 	C 	0.7878	0.291	0.42612	-0.052
Mof_C 	C 	0.0089	0.9435	0.17051	-0.093
Mof_C 	C 	0.6376	0.0333	0.3067	0.128
Mof_C 	C 	0.8147	0.0592	0.28981	0.099
Mof_C 	C 	0.7105	0.9993	0.2731	-0.164
Mof_H 	H 	0.6891	0.9358	0.2391	0.098
Mof_C 	C 	0.9832	0.9266	0.26893	-0.083
Mof_C 	C 	0.3384	0.7967	0.2733	0.078
Mof_H 	H 	0.2757	0.7348	0.2669	0.03
Mof_N 	N 	0.6645	0.1257	0.35615	-0.141
Mof_C 	C 	0.5276	0.9614	0.29249	-0.053
Mof_C 	C 	0.7642	0.189	0.37122	0.128
Mof_O 	O 	0.9468	0.7374	0.35155	-0.252
Mof_C 	C 	0.9166	0.0363	0.15274	0.034
Mof_H 	H 	0.895	0.0749	0.1141	0.038
Mof_C 	C 	0.8176	0.4634	0.5282	0.08
Mof_H 	H 	0.8288	0.522	0.5634	0.029
Mof_C 	C 	0.8647	0.5188	0.4849	-0.107
Mof_H 	H 	0.9056	0.6142	0.4904	0.086
Mof_C 	C 	0.8417	0.1582	0.33997	-0.166
Mof_H 	H 	0.9104	0.203	0.3524	0.108
Mof_C 	C 	0.8886	0.0192	0.25174	0.03
Mof_C 	C 	0.8504	0.4313	0.4334	0.012
Mof_H 	H 	0.8823	0.4656	0.4037	0.043
Mof_C 	C 	0.8565	0.0716	0.19293	-0.099
Mof_H 	H 	0.7931	0.1315	0.1805	0.08
Mof_C 	C 	0.3788	0.8335	0.2261	-0.106
Mof_H 	H 	0.3417	0.8022	0.1882	0.098
Mof_O 	O 	0.0514	0.9835	0.38222	-0.249
Mof_C 	C 	0.4745	0.917	0.2348	0.022
Mof_H 	H 	0.5033	0.9432	0.2031	0.04
Mof_C 	C 	0.4777	0.9266	0.337	0.056
Mof_H 	H 	0.5107	0.9616	0.3751	0.032
Mof_S 	S 	0.08651	0.89386	0.11979	0.493
Mof_O 	O 	0.1276	0.7295	0.135	-0.252
Mof_O 	O 	0.016	0.9093	0.06219	-0.251
Mof_Cd	Cd	0.18925	0.27039	0.09634	0.414
Mof_O 	O 	0.3694	0.2581	0.15899	-0.272
Mof_S 	S 	0.46948	0.34396	0.15784	0.479
Mof_C 	C 	0.7573	0.7466	0.028	0.06
Mof_H 	H 	0.7999	0.6532	0.0326	0.027
Mof_C 	C 	0.4579	0.3889	0.27116	0.038
Mof_H 	H 	0.3955	0.3267	0.2593	0.046
Mof_N 	N 	0.1151	0.3457	0.17148	-0.143
Mof_O 	O 	0.3248	0.5106	0.3696	-0.28
Mof_N 	N 	0.7431	0.8295	0.97801	-0.142
Mof_C 	C 	0.7122	0.791	0.07388	-0.053
Mof_C 	C 	0.4911	0.4435	0.32949	-0.095
Mof_C 	C 	0.8624	0.5333	0.1933	0.129
Mof_C 	C 	0.6853	0.5592	0.21019	0.1
Mof_C 	C 	0.7895	0.4993	0.2269	-0.166
Mof_H 	H 	0.8109	0.4358	0.2609	0.099
Mof_C 	C 	0.5168	0.4266	0.23107	-0.088
Mof_C 	C 	0.1616	0.2967	0.2267	0.079
Mof_H 	H 	0.2243	0.2348	0.2331	0.03
Mof_N 	N 	0.8355	0.6257	0.14385	-0.141
Mof_C 	C 	0.9724	0.4614	0.20751	-0.055
Mof_C 	C 	0.7358	0.689	0.12878	0.129
Mof_O 	O 	0.5532	0.2374	0.14845	-0.254
Mof_C 	C 	0.5834	0.5363	0.34726	0.037
Mof_H 	H 	0.605	0.5749	0.3859	0.038
Mof_C 	C 	0.6824	0.9634	0.9718	0.084
Mof_H 	H 	0.6712	0.022	0.9366	0.027
Mof_C 	C 	0.6353	0.0188	0.0151	-0.11
Mof_H 	H 	0.5944	0.1142	0.0096	0.087
Mof_C 	C 	0.6583	0.6582	0.16003	-0.166
Mof_H 	H 	0.5896	0.703	0.1476	0.108
Mof_C 	C 	0.6114	0.5192	0.24826	0.034
Mof_C 	C 	0.6496	0.9313	0.0666	0.015
Mof_H 	H 	0.6177	0.9656	0.0963	0.042
Mof_C 	C 	0.6435	0.5716	0.30707	-0.101
Mof_H 	H 	0.7069	0.6315	0.3195	0.081
Mof_C 	C 	0.1212	0.3335	0.2739	-0.107
Mof_H 	H 	0.1583	0.3022	0.3118	0.099
Mof_O 	O 	0.4486	0.4835	0.11778	-0.249
Mof_C 	C 	0.0255	0.417	0.2652	0.024
Mof_H 	H 	0.9967	0.4432	0.2969	0.039
Mof_C 	C 	0.0223	0.4266	0.163	0.058
Mof_H 	H 	0.9893	0.4616	0.1249	0.031
Mof_S 	S 	0.41349	0.39386	0.38021	0.495
Mof_O 	O 	0.3724	0.2295	0.365	-0.252
Mof_O 	O 	0.484	0.4093	0.43781	-0.251
Mof_Cd	Cd	0.68925	0.22961	0.59634	0.414
Mof_O 	O 	0.8694	0.2419	0.65899	-0.271
Mof_S 	S 	0.96948	0.15604	0.65784	0.476
Mof_C 	C 	0.2573	0.7534	0.528	0.059
Mof_H 	H 	0.2999	0.8468	0.5326	0.027
Mof_C 	C 	0.9579	0.1111	0.77116	0.033
Mof_H 	H 	0.8955	0.1733	0.7593	0.047
Mof_N 	N 	0.6151	0.1543	0.67148	-0.143
Mof_O 	O 	0.8248	0.9894	0.8696	-0.278
Mof_N 	N 	0.2431	0.6705	0.47801	-0.142
Mof_C 	C 	0.2122	0.709	0.57388	-0.052
Mof_C 	C 	0.9911	0.0565	0.82949	-0.093
Mof_C 	C 	0.3624	0.9667	0.6933	0.128
Mof_C 	C 	0.1853	0.9408	0.71019	0.099
Mof_C 	C 	0.2895	0.0007	0.7269	-0.164
Mof_H 	H 	0.3109	0.0642	0.7609	0.098
Mof_C 	C 	0.0168	0.0734	0.73107	-0.083
Mof_C 	C 	0.6616	0.2033	0.7267	0.078
Mof_H 	H 	0.7243	0.2652	0.7331	0.03
Mof_N 	N 	0.3355	0.8743	0.64385	-0.141
Mof_C 	C 	0.4724	0.0386	0.70751	-0.053
Mof_C 	C 	0.2358	0.811	0.62878	0.128
Mof_O 	O 	0.0532	0.2626	0.64845	-0.252
Mof_C 	C 	0.0834	0.9637	0.84726	0.034
Mof_H 	H 	0.105	0.9251	0.8859	0.038
Mof_C 	C 	0.1824	0.5366	0.4718	0.08
Mof_H 	H 	0.1712	0.478	0.4366	0.029
Mof_C 	C 	0.1353	0.4812	0.5151	-0.107
Mof_H 	H 	0.0944	0.3858	0.5096	0.086
Mof_C 	C 	0.1583	0.8418	0.66003	-0.166
Mof_H 	H 	0.0896	0.797	0.6476	0.108
Mof_C 	C 	0.1114	0.9808	0.74826	0.03
Mof_C 	C 	0.1496	0.5687	0.5666	0.012
Mof_H 	H 	0.1177	0.5344	0.5963	0.043
Mof_C 	C 	0.1435	0.9284	0.80707	-0.099
Mof_H 	H 	0.2069	0.8685	0.8195	0.08
Mof_C 	C 	0.6212	0.1665	0.7739	-0.106
Mof_H 	H 	0.6583	0.1978	0.8118	0.098
Mof_O 	O 	0.9486	0.0165	0.61778	-0.249
Mof_C 	C 	0.5255	0.083	0.7652	0.022
Mof_H 	H 	0.4967	0.0568	0.7969	0.04
Mof_C 	C 	0.5223	0.0734	0.663	0.056
Mof_H 	H 	0.4893	0.0384	0.6249	0.032
Mof_S 	S 	0.91349	0.10614	0.88021	0.493
Mof_O 	O 	0.8724	0.2705	0.865	-0.252
Mof_O 	O 	0.984	0.0907	0.93781	-0.251
Mof_Cd	Cd	0.81075	0.72961	0.90366	0.414
Mof_O 	O 	0.6306	0.7419	0.84101	-0.272
Mof_S 	S 	0.53052	0.65604	0.84216	0.479
Mof_C 	C 	0.2427	0.2534	0.972	0.06
Mof_H 	H 	0.2001	0.3468	0.9674	0.027
Mof_C 	C 	0.5421	0.6111	0.72884	0.038
Mof_H 	H 	0.6045	0.6733	0.7407	0.046
Mof_N 	N 	0.8849	0.6543	0.82852	-0.143
Mof_O 	O 	0.6752	0.4894	0.6304	-0.28
Mof_N 	N 	0.2569	0.1705	0.02199	-0.142
Mof_C 	C 	0.2878	0.209	0.92612	-0.053
Mof_C 	C 	0.5089	0.5565	0.67051	-0.095
Mof_C 	C 	0.1376	0.4667	0.8067	0.129
Mof_C 	C 	0.3147	0.4408	0.78981	0.1
Mof_C 	C 	0.2105	0.5007	0.7731	-0.166
Mof_H 	H 	0.1891	0.5642	0.7391	0.099
Mof_C 	C 	0.4832	0.5734	0.76893	-0.088
Mof_C 	C 	0.8384	0.7033	0.7733	0.079
Mof_H 	H 	0.7757	0.7652	0.7669	0.03
Mof_N 	N 	0.1645	0.3743	0.85615	-0.141
Mof_C 	C 	0.0276	0.5386	0.79249	-0.055
Mof_C 	C 	0.2642	0.311	0.87122	0.129
Mof_O 	O 	0.4468	0.7626	0.85155	-0.254
Mof_C 	C 	0.4166	0.4637	0.65274	0.037
Mof_H 	H 	0.395	0.4251	0.6141	0.038
Mof_C 	C 	0.3176	0.0366	0.0282	0.084
Mof_H 	H 	0.3288	0.978	0.0634	0.027
Mof_C 	C 	0.3647	0.9812	0.9849	-0.11
Mof_H 	H 	0.4056	0.8858	0.9904	0.087
Mof_C 	C 	0.3417	0.3418	0.83997	-0.166
Mof_H 	H 	0.4104	0.297	0.8524	0.108
Mof_C 	C 	0.3886	0.4808	0.75174	0.034
Mof_C 	C 	0.3504	0.0687	0.9334	0.015
Mof_H 	H 	0.3823	0.0344	0.9037	0.042
Mof_C 	C 	0.3565	0.4284	0.69293	-0.101
Mof_H 	H 	0.2931	0.3685	0.6805	0.081
Mof_C 	C 	0.8788	0.6665	0.7261	-0.107
Mof_H 	H 	0.8417	0.6978	0.6882	0.099
Mof_O 	O 	0.5514	0.5165	0.88222	-0.249
Mof_C 	C 	0.9745	0.583	0.7348	0.024
Mof_H 	H 	0.0033	0.5568	0.7031	0.039
Mof_C 	C 	0.9777	0.5734	0.837	0.058
Mof_H 	H 	0.0107	0.5384	0.8751	0.031
Mof_S 	S 	0.58651	0.60614	0.61979	0.495
Mof_O 	O 	0.6276	0.7705	0.635	-0.252
Mof_O 	O 	0.516	0.5907	0.56219	-0.251
_end
