data_functionalizedCrystal
_audit_creation_method	'EQeq! by Chris Wilmer'
_symmetry_space_group_name_H-M	'P1'
_symmetry_Int_Tables_number	1
_symmetry_cell_setting	triclinic
loop_
_symmetry_equiv_pos_as_xyz
  x,y,z
_cell_length_a	27.316
_cell_length_b	17.472
_cell_length_c	10.197
_cell_angle_alpha	90
_cell_angle_beta	90
_cell_angle_gamma	90
loop_
_atom_site_label
_atom_site_type_symbol
_atom_site_fract_x
_atom_site_fract_y
_atom_site_fract_z
_atom_site_charge
Mof_Ga	Ga	0.2203	0.2392	0.0884	4.362
Mof_Ga	Ga	0.3441	0.1793	0.1105	4.362
Mof_Ga	Ga	0.054	0.4235	0.9025	4.424
Mof_Ga	Ga	0.2415	0.4127	0.926	4.162
Mof_P 	P 	0.1416	0.3198	0.904	1.051
Mof_P 	P 	0.2552	0.0657	0.1105	1.088
Mof_P 	P 	0.4404	0.0742	0.0948	1.255
Mof_P 	P 	0.304	0.2734	0.886	1.006
Mof_F 	F 	0.2839	0.2302	0.1793	-1.47
Mof_F 	F 	0.2325	0.3524	0.0937	-1.355
Mof_O 	O 	0.2173	0.1281	0.0871	-1.061
Mof_O 	O 	0.2568	0.2339	0.9261	-1.169
Mof_O 	O 	0.4041	0.1321	0.0479	-1.11
Mof_O 	O 	0.1765	0.3879	0.8879	-1.296
Mof_O 	O 	0.4387	0.0042	0.0083	-1.408
Mof_O 	O 	0.0937	0.3503	0.9696	-1.236
Mof_O 	O 	0.2992	0.3606	0.8984	-1.149
Mof_O 	O 	0.2429	0.0008	0.016	-1.106
Mof_O 	O 	0.3172	0.251	0.7455	-1.022
Mof_O 	O 	0.2535	0.0348	0.2522	-0.99
Mof_O 	O 	0.1607	0.255	0.9873	-1.023
Mof_O 	O 	0.3473	0.2479	0.9728	-1.125
Mof_O 	O 	0.3082	0.0915	0.0785	-1.253
Mof_O 	O 	0.1269	0.2917	0.7669	-1.204
Mof_O 	O 	0.4303	0.047	0.236	-1.385
Mof_O 	O 	0.4915	0.1116	0.0888	-1.365
Mof_Ga	Ga	0.2797	0.2608	0.5884	4.365
Mof_Ga	Ga	0.1559	0.3207	0.6105	4.366
Mof_Ga	Ga	0.446	0.0765	0.4025	4.433
Mof_Ga	Ga	0.2585	0.0873	0.426	4.161
Mof_P 	P 	0.3584	0.1802	0.404	1.053
Mof_P 	P 	0.2448	0.4343	0.6105	1.089
Mof_P 	P 	0.0596	0.4258	0.5948	1.255
Mof_P 	P 	0.196	0.2266	0.386	1.006
Mof_F 	F 	0.2161	0.2698	0.6793	-1.47
Mof_F 	F 	0.2675	0.1476	0.5937	-1.355
Mof_O 	O 	0.2827	0.3719	0.5871	-1.061
Mof_O 	O 	0.2432	0.2661	0.4261	-1.17
Mof_O 	O 	0.0959	0.3679	0.5479	-1.109
Mof_O 	O 	0.3235	0.1121	0.3879	-1.296
Mof_O 	O 	0.0613	0.4958	0.5083	-1.407
Mof_O 	O 	0.4063	0.1497	0.4696	-1.237
Mof_O 	O 	0.2008	0.1394	0.3984	-1.149
Mof_O 	O 	0.2571	0.4992	0.516	-1.104
Mof_O 	O 	0.1828	0.249	0.2455	-1.022
Mof_O 	O 	0.2465	0.4652	0.7522	-0.989
Mof_O 	O 	0.3393	0.245	0.4873	-1.024
Mof_O 	O 	0.1527	0.2521	0.4728	-1.127
Mof_O 	O 	0.1918	0.4085	0.5785	-1.253
Mof_O 	O 	0.3731	0.2083	0.2669	-1.203
Mof_O 	O 	0.0697	0.453	0.736	-1.383
Mof_O 	O 	0.0085	0.3884	0.5888	-1.366
Mof_Ga	Ga	0.7797	0.2392	0.4116	4.366
Mof_Ga	Ga	0.6559	0.1793	0.3895	4.366
Mof_Ga	Ga	0.946	0.4235	0.5975	4.434
Mof_Ga	Ga	0.7585	0.4127	0.574	4.162
Mof_P 	P 	0.8584	0.3198	0.596	1.053
Mof_P 	P 	0.7448	0.0657	0.3895	1.089
Mof_P 	P 	0.5596	0.0742	0.4052	1.256
Mof_P 	P 	0.696	0.2734	0.614	1.007
Mof_F 	F 	0.7161	0.2302	0.3207	-1.47
Mof_F 	F 	0.7675	0.3524	0.4063	-1.355
Mof_O 	O 	0.7827	0.1281	0.4129	-1.061
Mof_O 	O 	0.7432	0.2339	0.5739	-1.17
Mof_O 	O 	0.5959	0.1321	0.4521	-1.109
Mof_O 	O 	0.8235	0.3879	0.6121	-1.296
Mof_O 	O 	0.5613	0.0042	0.4917	-1.407
Mof_O 	O 	0.9063	0.3503	0.5304	-1.238
Mof_O 	O 	0.7008	0.3606	0.6016	-1.149
Mof_O 	O 	0.7571	0.0008	0.484	-1.105
Mof_O 	O 	0.6828	0.251	0.7545	-1.023
Mof_O 	O 	0.7465	0.0348	0.2478	-0.989
Mof_O 	O 	0.8393	0.255	0.5127	-1.024
Mof_O 	O 	0.6527	0.2479	0.5272	-1.127
Mof_O 	O 	0.6918	0.0915	0.4215	-1.253
Mof_O 	O 	0.8731	0.2917	0.7331	-1.204
Mof_O 	O 	0.5697	0.047	0.264	-1.385
Mof_O 	O 	0.5085	0.1116	0.4112	-1.365
Mof_Ga	Ga	0.7203	0.2608	0.9116	4.368
Mof_Ga	Ga	0.8441	0.3207	0.8895	4.369
Mof_Ga	Ga	0.554	0.0765	0.0975	4.432
Mof_Ga	Ga	0.7415	0.0873	0.074	4.16
Mof_P 	P 	0.6416	0.1802	0.096	1.053
Mof_P 	P 	0.7552	0.4343	0.8895	1.09
Mof_P 	P 	0.9404	0.4258	0.9052	1.255
Mof_P 	P 	0.804	0.2266	0.114	1.007
Mof_F 	F 	0.7839	0.2698	0.8207	-1.471
Mof_F 	F 	0.7325	0.1476	0.9063	-1.354
Mof_O 	O 	0.7173	0.3719	0.9129	-1.061
Mof_O 	O 	0.7568	0.2661	0.0739	-1.17
Mof_O 	O 	0.9041	0.3679	0.9521	-1.109
Mof_O 	O 	0.6765	0.1121	0.1121	-1.296
Mof_O 	O 	0.9387	0.4958	0.9917	-1.404
Mof_O 	O 	0.5937	0.1497	0.0304	-1.237
Mof_O 	O 	0.7992	0.1394	0.1016	-1.15
Mof_O 	O 	0.7429	0.4992	0.984	-1.105
Mof_O 	O 	0.8172	0.249	0.2545	-1.023
Mof_O 	O 	0.7535	0.4652	0.7478	-0.989
Mof_O 	O 	0.6607	0.245	0.0127	-1.024
Mof_O 	O 	0.8473	0.2521	0.0272	-1.128
Mof_O 	O 	0.8082	0.4085	0.9215	-1.254
Mof_O 	O 	0.6269	0.2083	0.2331	-1.204
Mof_O 	O 	0.9303	0.453	0.764	-1.384
Mof_O 	O 	0.9915	0.3884	0.9112	-1.363
Mof_Ga	Ga	0.7797	0.7608	0.9116	4.363
Mof_Ga	Ga	0.6559	0.8207	0.8895	4.363
Mof_Ga	Ga	0.946	0.5765	0.0975	4.425
Mof_Ga	Ga	0.7585	0.5873	0.074	4.163
Mof_P 	P 	0.8584	0.6802	0.096	1.052
Mof_P 	P 	0.7448	0.9343	0.8895	1.089
Mof_P 	P 	0.5596	0.9258	0.9052	1.255
Mof_P 	P 	0.696	0.7266	0.114	1.006
Mof_F 	F 	0.7161	0.7698	0.8207	-1.47
Mof_F 	F 	0.7675	0.6476	0.9063	-1.355
Mof_O 	O 	0.7827	0.8719	0.9129	-1.061
Mof_O 	O 	0.7432	0.7661	0.0739	-1.169
Mof_O 	O 	0.5959	0.8679	0.9521	-1.11
Mof_O 	O 	0.8235	0.6121	0.1121	-1.296
Mof_O 	O 	0.5613	0.9958	0.9917	-1.408
Mof_O 	O 	0.9063	0.6497	0.0304	-1.236
Mof_O 	O 	0.7008	0.6394	0.1016	-1.149
Mof_O 	O 	0.7571	0.9992	0.984	-1.106
Mof_O 	O 	0.6828	0.749	0.2545	-1.022
Mof_O 	O 	0.7465	0.9652	0.7478	-0.99
Mof_O 	O 	0.8393	0.745	0.0127	-1.023
Mof_O 	O 	0.6527	0.7521	0.0272	-1.125
Mof_O 	O 	0.6918	0.9085	0.9215	-1.253
Mof_O 	O 	0.8731	0.7083	0.2331	-1.204
Mof_O 	O 	0.5697	0.953	0.764	-1.385
Mof_O 	O 	0.5085	0.8884	0.9112	-1.365
Mof_Ga	Ga	0.7203	0.7392	0.4116	4.365
Mof_Ga	Ga	0.8441	0.6793	0.3895	4.366
Mof_Ga	Ga	0.554	0.9235	0.5975	4.433
Mof_Ga	Ga	0.7415	0.9127	0.574	4.161
Mof_P 	P 	0.6416	0.8198	0.596	1.053
Mof_P 	P 	0.7552	0.5657	0.3895	1.089
Mof_P 	P 	0.9404	0.5742	0.4052	1.255
Mof_P 	P 	0.804	0.7734	0.614	1.006
Mof_F 	F 	0.7839	0.7302	0.3207	-1.47
Mof_F 	F 	0.7325	0.8524	0.4063	-1.355
Mof_O 	O 	0.7173	0.6281	0.4129	-1.061
Mof_O 	O 	0.7568	0.7339	0.5739	-1.17
Mof_O 	O 	0.9041	0.6321	0.4521	-1.109
Mof_O 	O 	0.6765	0.8879	0.6121	-1.296
Mof_O 	O 	0.9387	0.5042	0.4917	-1.407
Mof_O 	O 	0.5937	0.8503	0.5304	-1.237
Mof_O 	O 	0.7992	0.8606	0.6016	-1.149
Mof_O 	O 	0.7429	0.5008	0.484	-1.104
Mof_O 	O 	0.8172	0.751	0.7545	-1.022
Mof_O 	O 	0.7535	0.5348	0.2478	-0.989
Mof_O 	O 	0.6607	0.755	0.5127	-1.024
Mof_O 	O 	0.8473	0.7479	0.5272	-1.127
Mof_O 	O 	0.8082	0.5915	0.4215	-1.253
Mof_O 	O 	0.6269	0.7917	0.7331	-1.203
Mof_O 	O 	0.9303	0.547	0.264	-1.383
Mof_O 	O 	0.9915	0.6116	0.4112	-1.366
Mof_Ga	Ga	0.2203	0.7608	0.5884	4.366
Mof_Ga	Ga	0.3441	0.8207	0.6105	4.366
Mof_Ga	Ga	0.054	0.5765	0.4025	4.434
Mof_Ga	Ga	0.2415	0.5873	0.426	4.162
Mof_P 	P 	0.1416	0.6802	0.404	1.053
Mof_P 	P 	0.2552	0.9343	0.6105	1.089
Mof_P 	P 	0.4404	0.9258	0.5948	1.256
Mof_P 	P 	0.304	0.7266	0.386	1.007
Mof_F 	F 	0.2839	0.7698	0.6793	-1.47
Mof_F 	F 	0.2325	0.6476	0.5937	-1.355
Mof_O 	O 	0.2173	0.8719	0.5871	-1.061
Mof_O 	O 	0.2568	0.7661	0.4261	-1.17
Mof_O 	O 	0.4041	0.8679	0.5479	-1.109
Mof_O 	O 	0.1765	0.6121	0.3879	-1.296
Mof_O 	O 	0.4387	0.9958	0.5083	-1.407
Mof_O 	O 	0.0937	0.6497	0.4696	-1.238
Mof_O 	O 	0.2992	0.6394	0.3984	-1.149
Mof_O 	O 	0.2429	0.9992	0.516	-1.105
Mof_O 	O 	0.3172	0.749	0.2455	-1.023
Mof_O 	O 	0.2535	0.9652	0.7522	-0.989
Mof_O 	O 	0.1607	0.745	0.4873	-1.024
Mof_O 	O 	0.3473	0.7521	0.4728	-1.127
Mof_O 	O 	0.3082	0.9085	0.5785	-1.253
Mof_O 	O 	0.1269	0.7083	0.2669	-1.204
Mof_O 	O 	0.4303	0.953	0.736	-1.385
Mof_O 	O 	0.4915	0.8884	0.5888	-1.365
Mof_Ga	Ga	0.2797	0.7392	0.0884	4.368
Mof_Ga	Ga	0.1559	0.6793	0.1105	4.369
Mof_Ga	Ga	0.446	0.9235	0.9025	4.432
Mof_Ga	Ga	0.2585	0.9127	0.926	4.16
Mof_P 	P 	0.3584	0.8198	0.904	1.053
Mof_P 	P 	0.2448	0.5657	0.1105	1.09
Mof_P 	P 	0.0596	0.5742	0.0948	1.255
Mof_P 	P 	0.196	0.7734	0.886	1.007
Mof_F 	F 	0.2161	0.7302	0.1793	-1.471
Mof_F 	F 	0.2675	0.8524	0.0937	-1.354
Mof_O 	O 	0.2827	0.6281	0.0871	-1.061
Mof_O 	O 	0.2432	0.7339	0.9261	-1.17
Mof_O 	O 	0.0959	0.6321	0.0479	-1.109
Mof_O 	O 	0.3235	0.8879	0.8879	-1.296
Mof_O 	O 	0.0613	0.5042	0.0083	-1.404
Mof_O 	O 	0.4063	0.8503	0.9696	-1.237
Mof_O 	O 	0.2008	0.8606	0.8984	-1.15
Mof_O 	O 	0.2571	0.5008	0.016	-1.105
Mof_O 	O 	0.1828	0.751	0.7455	-1.023
Mof_O 	O 	0.2465	0.5348	0.2522	-0.989
Mof_O 	O 	0.3393	0.755	0.9873	-1.024
Mof_O 	O 	0.1527	0.7479	0.9728	-1.128
Mof_O 	O 	0.1918	0.5915	0.0785	-1.254
Mof_O 	O 	0.3731	0.7917	0.7669	-1.204
Mof_O 	O 	0.0697	0.547	0.236	-1.384
Mof_O 	O 	0.0085	0.6116	0.0888	-1.363
_end
