data_functionalizedCrystal
_audit_creation_method	'EQeq! by Chris Wilmer'
_symmetry_space_group_name_H-M	'P1'
_symmetry_Int_Tables_number	1
_symmetry_cell_setting	triclinic
loop_
_symmetry_equiv_pos_as_xyz
  x,y,z
_cell_length_a	12.352
_cell_length_b	33.725
_cell_length_c	13.03
_cell_angle_alpha	90
_cell_angle_beta	96.63
_cell_angle_gamma	90
loop_
_atom_site_label
_atom_site_type_symbol
_atom_site_fract_x
_atom_site_fract_y
_atom_site_fract_z
_atom_site_charge
Mof_Mn	Mn	0.70928	0.43455	0.10627	0.871
Mof_C 	C 	0.7969	0.35593	0.2405	0.018
Mof_H 	H 	0.818	0.3304	0.2744	0.008
Mof_H 	H 	0.7375	0.3507	0.1844	0.028
Mof_N 	N 	0.7158	0.41798	0.2813	-0.178
Mof_N 	N 	0.7582	0.38267	0.3151	-0.134
Mof_C 	C 	0.7549	0.37867	0.4177	0.253
Mof_C 	C 	0.7087	0.41221	0.4515	-0.25
Mof_C 	C 	0.6853	0.43627	0.3632	0.285
Mof_C 	C 	0.6308	0.47544	0.3541	-0.656
Mof_H 	H 	0.6847	0.4961	0.3448	0.215
Mof_H 	H 	0.5968	0.4809	0.4169	0.21
Mof_H 	H 	0.5748	0.4753	0.2943	0.222
Mof_C 	C 	0.791	0.3412	0.4738	-0.594
Mof_H 	H 	0.7469	0.319	0.4442	0.186
Mof_H 	H 	0.7816	0.344	0.5471	0.194
Mof_H 	H 	0.8679	0.3363	0.4666	0.178
Mof_C 	C 	0.6515	0.44643	0.8771	0.432
Mof_C 	C 	0.6906	0.42113	0.5569	0.085
Mof_C 	C 	0.7729	0.4167	0.6378	-0.193
Mof_H 	H 	0.8434	0.4094	0.622	0.083
Mof_C 	C 	0.7584	0.4222	0.738	0.155
Mof_H 	H 	0.8154	0.4155	0.7905	-0.026
Mof_C 	C 	0.5785	0.441	0.6885	0.073
Mof_H 	H 	0.5095	0.4495	0.7054	0.007
Mof_C 	C 	0.5913	0.4327	0.5862	-0.159
Mof_H 	H 	0.5303	0.435	0.535	0.072
Mof_C 	C 	0.6629	0.43728	0.7649	-0.105
Mof_O 	O 	0.7139	0.43005	0.9453	-0.41
Mof_O 	O 	0.5775	0.46896	0.8897	-0.415
Mof_N 	N 	0.8707	0.4029	0.1297	-0.201
Mof_N 	N 	0.8894	0.37259	0.1971	-0.141
Mof_C 	C 	0.9966	0.36477	0.2189	0.268
Mof_C 	C 	0.0503	0.39186	0.1636	-0.287
Mof_C 	C 	0.9681	0.41504	0.1094	0.323
Mof_C 	C 	0.0411	0.3342	0.2923	-0.611
Mof_H 	H 	0.9925	0.3308	0.3459	0.182
Mof_H 	H 	0.1134	0.3424	0.3243	0.192
Mof_H 	H 	0.0472	0.3091	0.2556	0.18
Mof_C 	C 	0.979	0.44876	0.0363	-0.842
Mof_H 	H 	0.9117	0.4513	0.989	0.283
Mof_H 	H 	0.0402	0.4436	0.9966	0.286
Mof_H 	H 	0.9922	0.4734	0.0756	0.26
Mof_C 	C 	0.1694	0.39605	0.1596	0.195
Mof_C 	C 	0.2338	0.3639	0.1367	-0.218
Mof_H 	H 	0.203	0.3381	0.1293	0.087
Mof_C 	C 	0.3428	0.36966	0.1248	0.106
Mof_H 	H 	0.3858	0.3476	0.109	-0.002
Mof_C 	C 	0.3895	0.40626	0.1354	-0.175
Mof_C 	C 	0.3279	0.43798	0.1619	0.104
Mof_H 	H 	0.3604	0.4634	0.1731	-0.001
Mof_C 	C 	0.2172	0.43264	0.1723	-0.218
Mof_H 	H 	0.1745	0.4548	0.1883	0.094
Mof_C 	C 	0.5046	0.41324	0.1154	0.354
Mof_O 	O 	0.5377	0.44928	0.11	-0.439
Mof_O 	O 	0.5672	0.3848	0.1054	-0.331
Mof_N 	N 	0.1208	0.70858	0.2214	-0.222
Mof_N 	N 	0.0686	0.71495	0.3067	-0.144
Mof_C 	C 	0.9882	0.68818	0.3141	0.269
Mof_C 	C 	0.9902	0.66227	0.231	-0.272
Mof_C 	C 	0.0741	0.67611	0.1761	0.257
Mof_C 	C 	0.1071	0.6598	0.0762	-0.605
Mof_H 	H 	0.0608	0.6714	0.0177	0.18
Mof_H 	H 	0.0985	0.6309	0.0751	0.203
Mof_H 	H 	0.1835	0.6666	0.0709	0.194
Mof_C 	C 	0.9124	0.6891	0.3934	-0.621
Mof_H 	H 	0.9533	0.6854	0.4618	0.184
Mof_H 	H 	0.8588	0.6678	0.3803	0.199
Mof_H 	H 	0.8748	0.7147	0.391	0.19
Mof_C 	C 	0.9209	0.62717	0.2074	0.246
Mof_C 	C 	0.8238	0.62957	0.1485	-0.277
Mof_H 	H 	0.7982	0.6548	0.1241	0.117
Mof_C 	C 	0.76	0.59629	0.1224	0.175
Mof_H 	H 	0.6912	0.5992	0.0824	-0.019
Mof_C 	C 	0.7958	0.55966	0.1538	-0.259
Mof_C 	C 	0.8921	0.55737	0.2141	0.183
Mof_H 	H 	0.9182	0.5323	0.239	-0.032
Mof_C 	C 	0.9521	0.59038	0.2398	-0.285
Mof_H 	H 	0.0192	0.5875	0.2827	0.114
Mof_C 	C 	0.7309	0.52336	0.1188	0.459
Mof_O 	O 	0.6425	0.52818	0.067	-0.433
Mof_O 	O 	0.7734	0.49076	0.1432	-0.433
Mof_C 	C 	0.3307	0.7115	0.1514	-0.185
Mof_O 	O 	0.3949	0.6884	0.1378	-0.123
Mof_C 	C 	0.6972	0.42107	0.5635	0.077
Mof_C 	C 	0.6547	0.39212	0.6233	-0.046
Mof_H 	H 	0.6262	0.3683	0.5921	0.037
Mof_C 	C 	0.6537	0.39806	0.7288	-0.039
Mof_H 	H 	0.6246	0.3783	0.7696	0.055
Mof_C 	C 	0.6954	0.43295	0.7744	-0.052
Mof_C 	C 	0.7379	0.4619	0.7146	-0.048
Mof_H 	H 	0.7664	0.4857	0.7458	0.036
Mof_C 	C 	0.7389	0.456	0.6091	-0.038
Mof_H 	H 	0.768	0.4757	0.5682	0.034
Mof_Mn	Mn	0.29072	0.93455	0.89373	0.909
Mof_C 	C 	0.2031	0.85593	0.7595	0.014
Mof_H 	H 	0.182	0.8304	0.7256	0.014
Mof_H 	H 	0.2625	0.8507	0.8156	0.037
Mof_N 	N 	0.2842	0.91798	0.7187	-0.179
Mof_N 	N 	0.2418	0.88267	0.6849	-0.132
Mof_C 	C 	0.2451	0.87867	0.5823	0.255
Mof_C 	C 	0.2913	0.91221	0.5485	-0.251
Mof_C 	C 	0.3147	0.93627	0.6368	0.288
Mof_C 	C 	0.3692	0.97544	0.6459	-0.664
Mof_H 	H 	0.3153	0.9961	0.6552	0.22
Mof_H 	H 	0.4032	0.9809	0.5831	0.215
Mof_H 	H 	0.4252	0.9753	0.7057	0.225
Mof_C 	C 	0.209	0.8412	0.5262	-0.596
Mof_H 	H 	0.2531	0.819	0.5558	0.188
Mof_H 	H 	0.2184	0.844	0.4529	0.195
Mof_H 	H 	0.1321	0.8363	0.5334	0.179
Mof_C 	C 	0.3485	0.94643	0.1229	0.436
Mof_C 	C 	0.3094	0.92113	0.4431	0.086
Mof_C 	C 	0.2271	0.9167	0.3622	-0.192
Mof_H 	H 	0.1566	0.9094	0.378	0.083
Mof_C 	C 	0.2416	0.9222	0.262	0.154
Mof_H 	H 	0.1846	0.9155	0.2095	-0.024
Mof_C 	C 	0.4215	0.941	0.3115	0.073
Mof_H 	H 	0.4905	0.9495	0.2946	0.009
Mof_C 	C 	0.4087	0.9327	0.4138	-0.158
Mof_H 	H 	0.4697	0.935	0.465	0.073
Mof_C 	C 	0.3371	0.93728	0.2351	-0.105
Mof_O 	O 	0.2861	0.93005	0.0547	-0.433
Mof_O 	O 	0.4225	0.96896	0.1103	-0.425
Mof_N 	N 	0.1293	0.9029	0.8703	-0.175
Mof_N 	N 	0.1106	0.87259	0.8029	-0.132
Mof_C 	C 	0.0034	0.86477	0.7811	0.238
Mof_C 	C 	0.9497	0.89186	0.8364	-0.218
Mof_C 	C 	0.0319	0.91504	0.8906	0.222
Mof_C 	C 	0.9589	0.8342	0.7077	-0.569
Mof_H 	H 	0.0075	0.8308	0.6541	0.169
Mof_H 	H 	0.8866	0.8424	0.6757	0.181
Mof_H 	H 	0.9528	0.8091	0.7444	0.176
Mof_C 	C 	0.021	0.94876	0.9637	-0.459
Mof_H 	H 	0.0883	0.9513	0.011	0.141
Mof_H 	H 	0.9598	0.9436	0.0034	0.145
Mof_H 	H 	0.0078	0.9734	0.9244	0.16
Mof_C 	C 	0.8306	0.89605	0.8404	0.168
Mof_C 	C 	0.7662	0.8639	0.8633	-0.189
Mof_H 	H 	0.797	0.8381	0.8707	0.088
Mof_C 	C 	0.6572	0.86966	0.8752	0.094
Mof_H 	H 	0.6142	0.8476	0.891	0.013
Mof_C 	C 	0.6105	0.90626	0.8646	-0.153
Mof_C 	C 	0.6721	0.93798	0.8381	0.092
Mof_H 	H 	0.6396	0.9634	0.8269	0.009
Mof_C 	C 	0.7828	0.93264	0.8277	-0.188
Mof_H 	H 	0.8255	0.9548	0.8117	0.09
Mof_C 	C 	0.4954	0.91324	0.8846	0.352
Mof_O 	O 	0.4623	0.94928	0.89	-0.426
Mof_O 	O 	0.4328	0.8848	0.8946	-0.318
Mof_N 	N 	0.8792	0.20858	0.7786	-0.224
Mof_N 	N 	0.9314	0.21495	0.6933	-0.143
Mof_C 	C 	0.0118	0.18818	0.6859	0.269
Mof_C 	C 	0.0098	0.16227	0.769	-0.281
Mof_C 	C 	0.9259	0.17611	0.8239	0.274
Mof_C 	C 	0.8929	0.1598	0.9238	-0.639
Mof_H 	H 	0.9392	0.1714	0.9823	0.205
Mof_H 	H 	0.9015	0.1309	0.9249	0.22
Mof_H 	H 	0.8165	0.1666	0.9291	0.212
Mof_C 	C 	0.0876	0.1891	0.6066	-0.619
Mof_H 	H 	0.0467	0.1854	0.5382	0.181
Mof_H 	H 	0.1412	0.1678	0.6197	0.199
Mof_H 	H 	0.1252	0.2147	0.609	0.189
Mof_C 	C 	0.0791	0.12717	0.7926	0.253
Mof_C 	C 	0.1762	0.12957	0.8515	-0.277
Mof_H 	H 	0.2018	0.1548	0.8759	0.126
Mof_C 	C 	0.24	0.09629	0.8776	0.175
Mof_H 	H 	0.3088	0.0992	0.9176	-0.007
Mof_C 	C 	0.2042	0.05966	0.8462	-0.254
Mof_C 	C 	0.1079	0.05737	0.7859	0.183
Mof_H 	H 	0.0818	0.0323	0.761	-0.034
Mof_C 	C 	0.0479	0.09038	0.7602	-0.295
Mof_H 	H 	0.9808	0.0875	0.7173	0.119
Mof_C 	C 	0.2691	0.02336	0.8812	0.446
Mof_O 	O 	0.3575	0.02818	0.933	-0.412
Mof_O 	O 	0.2266	0.99076	0.8568	-0.418
Mof_C 	C 	0.6693	0.2115	0.8486	-0.184
Mof_O 	O 	0.6051	0.1884	0.8622	-0.112
Mof_C 	C 	0.3028	0.92107	0.4365	0.078
Mof_C 	C 	0.3453	0.89212	0.3767	-0.048
Mof_H 	H 	0.3738	0.8683	0.4079	0.038
Mof_C 	C 	0.3463	0.89806	0.2712	-0.037
Mof_H 	H 	0.3754	0.8783	0.2304	0.052
Mof_C 	C 	0.3046	0.93295	0.2256	-0.053
Mof_C 	C 	0.2621	0.9619	0.2854	-0.045
Mof_H 	H 	0.2336	0.9857	0.2542	0.037
Mof_C 	C 	0.2611	0.956	0.3909	-0.039
Mof_H 	H 	0.232	0.9757	0.4318	0.036
Mof_Mn	Mn	0.29072	0.56545	0.89373	0.908
Mof_C 	C 	0.2031	0.64407	0.7595	0.014
Mof_H 	H 	0.182	0.6696	0.7256	0.014
Mof_H 	H 	0.2625	0.6493	0.8156	0.037
Mof_N 	N 	0.2842	0.58202	0.7187	-0.179
Mof_N 	N 	0.2418	0.61733	0.6849	-0.132
Mof_C 	C 	0.2451	0.62133	0.5823	0.254
Mof_C 	C 	0.2913	0.58779	0.5485	-0.25
Mof_C 	C 	0.3147	0.56373	0.6368	0.284
Mof_C 	C 	0.3692	0.52456	0.6459	-0.656
Mof_H 	H 	0.3153	0.5039	0.6552	0.214
Mof_H 	H 	0.4032	0.5191	0.5831	0.21
Mof_H 	H 	0.4252	0.5247	0.7057	0.221
Mof_C 	C 	0.209	0.6588	0.5262	-0.595
Mof_H 	H 	0.2531	0.681	0.5558	0.188
Mof_H 	H 	0.2184	0.656	0.4529	0.194
Mof_H 	H 	0.1321	0.6637	0.5334	0.179
Mof_C 	C 	0.3485	0.55357	0.1229	0.437
Mof_C 	C 	0.3094	0.57887	0.4431	0.086
Mof_C 	C 	0.2271	0.5833	0.3622	-0.192
Mof_H 	H 	0.1566	0.5906	0.378	0.083
Mof_C 	C 	0.2416	0.5778	0.262	0.155
Mof_H 	H 	0.1846	0.5845	0.2095	-0.025
Mof_C 	C 	0.4215	0.559	0.3115	0.072
Mof_H 	H 	0.4905	0.5505	0.2946	0.007
Mof_C 	C 	0.4087	0.5673	0.4138	-0.158
Mof_H 	H 	0.4697	0.565	0.465	0.072
Mof_C 	C 	0.3371	0.56272	0.2351	-0.106
Mof_O 	O 	0.2861	0.56995	0.0547	-0.434
Mof_O 	O 	0.4225	0.53104	0.1103	-0.431
Mof_N 	N 	0.1293	0.5971	0.8703	-0.175
Mof_N 	N 	0.1106	0.62741	0.8029	-0.132
Mof_C 	C 	0.0034	0.63523	0.7811	0.238
Mof_C 	C 	0.9497	0.60814	0.8364	-0.217
Mof_C 	C 	0.0319	0.58496	0.8906	0.22
Mof_C 	C 	0.9589	0.6658	0.7077	-0.569
Mof_H 	H 	0.0075	0.6692	0.6541	0.169
Mof_H 	H 	0.8866	0.6576	0.6757	0.18
Mof_H 	H 	0.9528	0.6909	0.7444	0.176
Mof_C 	C 	0.021	0.55124	0.9637	-0.452
Mof_H 	H 	0.0883	0.5487	0.011	0.137
Mof_H 	H 	0.9598	0.5564	0.0034	0.142
Mof_H 	H 	0.0078	0.5266	0.9244	0.155
Mof_C 	C 	0.8306	0.60395	0.8404	0.168
Mof_C 	C 	0.7662	0.6361	0.8633	-0.189
Mof_H 	H 	0.797	0.6619	0.8707	0.088
Mof_C 	C 	0.6572	0.63034	0.8752	0.095
Mof_H 	H 	0.6142	0.6524	0.891	0.013
Mof_C 	C 	0.6105	0.59374	0.8646	-0.155
Mof_C 	C 	0.6721	0.56202	0.8381	0.093
Mof_H 	H 	0.6396	0.5366	0.8269	0.006
Mof_C 	C 	0.7828	0.56736	0.8277	-0.189
Mof_H 	H 	0.8255	0.5452	0.8117	0.088
Mof_C 	C 	0.4954	0.58676	0.8846	0.353
Mof_O 	O 	0.4623	0.55072	0.89	-0.43
Mof_O 	O 	0.4328	0.6152	0.8946	-0.318
Mof_N 	N 	0.8792	0.29142	0.7786	-0.224
Mof_N 	N 	0.9314	0.28505	0.6933	-0.143
Mof_C 	C 	0.0118	0.31182	0.6859	0.269
Mof_C 	C 	0.0098	0.33773	0.769	-0.282
Mof_C 	C 	0.9259	0.32389	0.8239	0.275
Mof_C 	C 	0.8929	0.3402	0.9238	-0.64
Mof_H 	H 	0.9392	0.3286	0.9823	0.205
Mof_H 	H 	0.9015	0.3691	0.9249	0.22
Mof_H 	H 	0.8165	0.3334	0.9291	0.212
Mof_C 	C 	0.0876	0.3109	0.6066	-0.62
Mof_H 	H 	0.0467	0.3146	0.5382	0.181
Mof_H 	H 	0.1412	0.3322	0.6197	0.199
Mof_H 	H 	0.1252	0.2853	0.609	0.19
Mof_C 	C 	0.0791	0.37283	0.7926	0.255
Mof_C 	C 	0.1762	0.37043	0.8515	-0.28
Mof_H 	H 	0.2018	0.3452	0.8759	0.127
Mof_C 	C 	0.24	0.40371	0.8776	0.179
Mof_H 	H 	0.3088	0.4008	0.9176	-0.009
Mof_C 	C 	0.2042	0.44034	0.8462	-0.259
Mof_C 	C 	0.1079	0.44263	0.7859	0.188
Mof_H 	H 	0.0818	0.4677	0.761	-0.033
Mof_C 	C 	0.0479	0.40962	0.7602	-0.298
Mof_H 	H 	0.9808	0.4125	0.7173	0.121
Mof_C 	C 	0.2691	0.47664	0.8812	0.46
Mof_O 	O 	0.3575	0.47182	0.933	-0.415
Mof_O 	O 	0.2266	0.50924	0.8568	-0.429
Mof_C 	C 	0.6693	0.2885	0.8486	-0.184
Mof_O 	O 	0.6051	0.3116	0.8622	-0.112
Mof_C 	C 	0.3028	0.57893	0.4365	0.077
Mof_C 	C 	0.3453	0.60788	0.3767	-0.049
Mof_H 	H 	0.3738	0.6317	0.4079	0.038
Mof_C 	C 	0.3463	0.60194	0.2712	-0.036
Mof_H 	H 	0.3754	0.6217	0.2304	0.052
Mof_C 	C 	0.3046	0.56705	0.2256	-0.054
Mof_C 	C 	0.2621	0.5381	0.2854	-0.045
Mof_H 	H 	0.2336	0.5143	0.2542	0.034
Mof_C 	C 	0.2611	0.544	0.3909	-0.04
Mof_H 	H 	0.232	0.5243	0.4318	0.035
Mof_Mn	Mn	0.70928	0.06545	0.10627	0.871
Mof_C 	C 	0.7969	0.14407	0.2405	0.019
Mof_H 	H 	0.818	0.1696	0.2744	0.009
Mof_H 	H 	0.7375	0.1493	0.1844	0.029
Mof_N 	N 	0.7158	0.08202	0.2813	-0.176
Mof_N 	N 	0.7582	0.11733	0.3151	-0.133
Mof_C 	C 	0.7549	0.12133	0.4177	0.253
Mof_C 	C 	0.7087	0.08779	0.4515	-0.249
Mof_C 	C 	0.6853	0.06373	0.3632	0.282
Mof_C 	C 	0.6308	0.02456	0.3541	-0.648
Mof_H 	H 	0.6847	0.0039	0.3448	0.21
Mof_H 	H 	0.5968	0.0191	0.4169	0.206
Mof_H 	H 	0.5748	0.0247	0.2943	0.217
Mof_C 	C 	0.791	0.1588	0.4738	-0.593
Mof_H 	H 	0.7469	0.181	0.4442	0.186
Mof_H 	H 	0.7816	0.156	0.5471	0.194
Mof_H 	H 	0.8679	0.1637	0.4666	0.178
Mof_C 	C 	0.6515	0.05357	0.8771	0.431
Mof_C 	C 	0.6906	0.07887	0.5569	0.085
Mof_C 	C 	0.7729	0.0833	0.6378	-0.193
Mof_H 	H 	0.8434	0.0906	0.622	0.083
Mof_C 	C 	0.7584	0.0778	0.738	0.155
Mof_H 	H 	0.8154	0.0845	0.7905	-0.026
Mof_C 	C 	0.5785	0.059	0.6885	0.072
Mof_H 	H 	0.5095	0.0505	0.7054	0.006
Mof_C 	C 	0.5913	0.0673	0.5862	-0.159
Mof_H 	H 	0.5303	0.065	0.535	0.071
Mof_C 	C 	0.6629	0.06272	0.7649	-0.105
Mof_O 	O 	0.7139	0.06995	0.9453	-0.41
Mof_O 	O 	0.5775	0.03104	0.8897	-0.416
Mof_N 	N 	0.8707	0.0971	0.1297	-0.201
Mof_N 	N 	0.8894	0.12741	0.1971	-0.141
Mof_C 	C 	0.9966	0.13523	0.2189	0.266
Mof_C 	C 	0.0503	0.10814	0.1636	-0.286
Mof_C 	C 	0.9681	0.08496	0.1094	0.321
Mof_C 	C 	0.0411	0.1658	0.2923	-0.61
Mof_H 	H 	0.9925	0.1692	0.3459	0.181
Mof_H 	H 	0.1134	0.1576	0.3243	0.191
Mof_H 	H 	0.0472	0.1909	0.2556	0.18
Mof_C 	C 	0.979	0.05124	0.0363	-0.837
Mof_H 	H 	0.9117	0.0487	0.989	0.28
Mof_H 	H 	0.0402	0.0564	0.9966	0.283
Mof_H 	H 	0.9922	0.0266	0.0756	0.256
Mof_C 	C 	0.1694	0.10395	0.1596	0.194
Mof_C 	C 	0.2338	0.1361	0.1367	-0.217
Mof_H 	H 	0.203	0.1619	0.1293	0.087
Mof_C 	C 	0.3428	0.13034	0.1248	0.106
Mof_H 	H 	0.3858	0.1524	0.109	-0.001
Mof_C 	C 	0.3895	0.09374	0.1354	-0.175
Mof_C 	C 	0.3279	0.06202	0.1619	0.104
Mof_H 	H 	0.3604	0.0366	0.1731	-0.004
Mof_C 	C 	0.2172	0.06736	0.1723	-0.218
Mof_H 	H 	0.1745	0.0452	0.1883	0.091
Mof_C 	C 	0.5046	0.08676	0.1154	0.354
Mof_O 	O 	0.5377	0.05072	0.11	-0.439
Mof_O 	O 	0.5672	0.1152	0.1054	-0.331
Mof_N 	N 	0.1208	0.79142	0.2214	-0.222
Mof_N 	N 	0.0686	0.78505	0.3067	-0.145
Mof_C 	C 	0.9882	0.81182	0.3141	0.269
Mof_C 	C 	0.9902	0.83773	0.231	-0.273
Mof_C 	C 	0.0741	0.82389	0.1761	0.257
Mof_C 	C 	0.1071	0.8402	0.0762	-0.605
Mof_H 	H 	0.0608	0.8286	0.0177	0.18
Mof_H 	H 	0.0985	0.8691	0.0751	0.203
Mof_H 	H 	0.1835	0.8334	0.0709	0.194
Mof_C 	C 	0.9124	0.8109	0.3934	-0.621
Mof_H 	H 	0.9533	0.8146	0.4618	0.184
Mof_H 	H 	0.8588	0.8322	0.3803	0.199
Mof_H 	H 	0.8748	0.7853	0.391	0.19
Mof_C 	C 	0.9209	0.87283	0.2074	0.247
Mof_C 	C 	0.8238	0.87043	0.1485	-0.279
Mof_H 	H 	0.7982	0.8452	0.1241	0.118
Mof_C 	C 	0.76	0.90371	0.1224	0.177
Mof_H 	H 	0.6912	0.9008	0.0824	-0.02
Mof_C 	C 	0.7958	0.94034	0.1538	-0.262
Mof_C 	C 	0.8921	0.94263	0.2141	0.186
Mof_H 	H 	0.9182	0.9677	0.239	-0.03
Mof_C 	C 	0.9521	0.90962	0.2398	-0.286
Mof_H 	H 	0.0192	0.9125	0.2827	0.115
Mof_C 	C 	0.7309	0.97664	0.1188	0.471
Mof_O 	O 	0.6425	0.97182	0.067	-0.431
Mof_O 	O 	0.7734	0.00924	0.1432	-0.443
Mof_C 	C 	0.3307	0.7885	0.1514	-0.185
Mof_O 	O 	0.3949	0.8116	0.1378	-0.123
Mof_C 	C 	0.6972	0.07893	0.5635	0.077
Mof_C 	C 	0.6547	0.10788	0.6233	-0.047
Mof_H 	H 	0.6262	0.1317	0.5921	0.037
Mof_C 	C 	0.6537	0.10194	0.7288	-0.039
Mof_H 	H 	0.6246	0.1217	0.7696	0.055
Mof_C 	C 	0.6954	0.06705	0.7744	-0.052
Mof_C 	C 	0.7379	0.0381	0.7146	-0.048
Mof_H 	H 	0.7664	0.0143	0.7458	0.033
Mof_C 	C 	0.7389	0.044	0.6091	-0.039
Mof_H 	H 	0.768	0.0243	0.5682	0.033
Mof_Rh	Rh	0.23321	0.75	0.18148	0.841
Mof_C 	C 	0.1006	0.75	0.3661	0.022
Mof_H 	H 	0.1805	0.75	0.385	-0.005
Mof_H 	H 	0.0654	0.75	0.4306	0.003
Mof_Rh	Rh	0.76679	0.25	0.81852	0.855
Mof_C 	C 	0.8994	0.25	0.6339	0.022
Mof_H 	H 	0.8195	0.25	0.615	-0.006
Mof_H 	H 	0.9346	0.25	0.5694	0.004
Mof_Mn	Mn	0.5	0.5	-0	1.017
Mof_Mn	Mn	0.5	0	-0	1.003
_end
