data_functionalizedCrystal
_audit_creation_method	'EQeq! by Chris Wilmer'
_symmetry_space_group_name_H-M	'P1'
_symmetry_Int_Tables_number	1
_symmetry_cell_setting	triclinic
loop_
_symmetry_equiv_pos_as_xyz
  x,y,z
_cell_length_a	12.2241
_cell_length_b	24.8982
_cell_length_c	31.2482
_cell_angle_alpha	90
_cell_angle_beta	90
_cell_angle_gamma	97.846
loop_
_atom_site_label
_atom_site_type_symbol
_atom_site_fract_x
_atom_site_fract_y
_atom_site_fract_z
_atom_site_charge
Mof_Zn	Zn	0.69631	0.91518	0.87326	1.214
Mof_Zn	Zn	0.207	0.93228	0.13835	1.217
Mof_Zn	Zn	0.38931	0.25502	0.73057	1.211
Mof_Zn	Zn	0.41037	0.79138	0.25701	1.209
Mof_Zn	Zn	0.80369	0.58482	0.37326	1.213
Mof_Zn	Zn	0.19631	0.41518	0.62674	1.213
Mof_Zn	Zn	0.293	0.56772	0.63835	1.216
Mof_Zn	Zn	0.58963	0.20862	0.74299	1.209
Mof_Zn	Zn	0.707	0.43228	0.36165	1.216
Mof_Zn	Zn	0.30369	0.08482	0.12674	1.213
Mof_Zn	Zn	0.11069	0.24498	0.23057	1.211
Mof_Zn	Zn	0.91037	0.29138	0.24299	1.209
Mof_Zn	Zn	0.88931	0.75502	0.76943	1.211
Mof_Zn	Zn	0.793	0.06772	0.86165	1.216
Mof_Zn	Zn	0.08963	0.70862	0.75701	1.209
Mof_Zn	Zn	0.61069	0.74498	0.26943	1.211
Mof_H 	H 	0.7676	0.6953	0.2125	0.043
Mof_H 	H 	0.3508	0.265	0.1918	0.035
Mof_H 	H 	0.7167	0.3841	0.6362	0.066
Mof_H 	H 	0.4781	0.6371	0.6869	0.027
Mof_H 	H 	0.5631	0.9605	0.2528	0.058
Mof_H 	H 	0.7286	0.9014	0.1528	0.065
Mof_H 	H 	0.1664	0.1063	0.7126	0.037
Mof_H 	H 	0.0617	0.6916	0.6183	0.065
Mof_H 	H 	0.7365	0.4508	0.2627	0.03
Mof_H 	H 	0.7391	0.8059	0.9958	0.062
Mof_H 	H 	0.3948	0.8417	0.0457	0.068
Mof_H 	H 	0.0852	0.1485	0.0341	0.068
Mof_H 	H 	0.5581	0.7006	0.3995	0.065
Mof_H 	H 	0.1492	0.235	0.6918	0.035
Mof_H 	H 	0.8336	0.8937	0.2874	0.037
Mof_H 	H 	0.6343	0.7331	0.7573	0.036
Mof_H 	H 	0.1874	0.1464	0.2661	0.045
Mof_H 	H 	0.1623	0.1439	0.1881	0.039
Mof_H 	H 	0.2771	0.7111	0.5282	0.061
Mof_H 	H 	0.6872	0.1431	0.2353	0.036
Mof_H 	H 	0.4419	0.2994	0.6005	0.065
Mof_H 	H 	0.554	0.1397	0.0241	0.046
Mof_H 	H 	0.9935	0.6547	0.3258	0.029
Mof_H 	H 	0.545	0.3278	0.2061	0.04
Mof_H 	H 	0.3939	0.558	0.7287	0.04
Mof_H 	H 	0.8128	0.3569	0.7353	0.036
Mof_H 	H 	0.4411	0.477	0.2155	0.061
Mof_H 	H 	0.4614	0.2023	0.2782	0.042
Mof_H 	H 	0.4597	0.0968	0.8503	0.04
Mof_H 	H 	0.6052	0.1583	0.9543	0.068
Mof_H 	H 	0.1061	0.942	0.2287	0.04
Mof_H 	H 	0.7501	0.2642	0.0383	0.065
Mof_H 	H 	0.0404	0.9231	0.7326	0.055
Mof_H 	H 	0.9419	0.7994	0.8995	0.066
Mof_H 	H 	0.4207	0.9401	0.7594	0.062
Mof_H 	H 	0.5252	0.6186	0.5331	0.045
Mof_H 	H 	0.9912	0.8674	0.2622	0.036
Mof_H 	H 	0.9614	0.7023	0.2218	0.043
Mof_H 	H 	0.2324	0.3047	0.7875	0.043
Mof_H 	H 	0.4596	0.5769	0.2326	0.055
Mof_H 	H 	0.2274	0.1907	0.1589	0.04
Mof_H 	H 	0.5298	0.3865	0.6367	0.038
Mof_H 	H 	0.2833	0.6159	0.3638	0.066
Mof_H 	H 	0.9748	0.8814	0.0331	0.045
Mof_H 	H 	0.3166	0.892	0.2845	0.039
Mof_H 	H 	0.5617	0.1916	0.8817	0.066
Mof_H 	H 	0.4912	0.3674	0.2378	0.037
Mof_H 	H 	0.9597	0.5968	0.6497	0.041
Mof_H 	H 	0.2865	0.2763	0.4304	0.066
Mof_H 	H 	0.7964	0.3362	0.3193	0.04
Mof_H 	H 	0.7373	0.7609	0.1401	0.037
Mof_H 	H 	0.7135	0.7237	0.5696	0.066
Mof_H 	H 	0.0386	0.2977	0.7782	0.043
Mof_H 	H 	0.0631	0.4605	0.2472	0.058
Mof_H 	H 	0.045	0.8278	0.2939	0.04
Mof_H 	H 	0.1343	0.2331	0.7427	0.036
Mof_H 	H 	0.5219	0.3629	0.3131	0.027
Mof_H 	H 	0.8213	0.238	0.7842	0.039
Mof_H 	H 	0.5793	0.0599	0.2406	0.062
Mof_H 	H 	0.1491	0.6125	0.7078	0.034
Mof_H 	H 	0.9862	0.3425	0.7511	0.039
Mof_H 	H 	0.6567	0.2647	0.2338	0.038
Mof_H 	H 	0.4369	0.0395	0.7472	0.058
Mof_H 	H 	0.6664	0.6063	0.7874	0.037
Mof_H 	H 	0.6834	0.108	0.7155	0.039
Mof_H 	H 	0.5138	0.1575	0.2511	0.038
Mof_H 	H 	0.7865	0.7763	0.0696	0.066
Mof_H 	H 	0.4207	0.4502	0.3473	0.042
Mof_H 	H 	0.6061	0.442	0.2713	0.04
Mof_H 	H 	0.0065	0.3453	0.6742	0.029
Mof_H 	H 	0.59	0.0674	0.1402	0.046
Mof_H 	H 	0.7499	0.2358	0.5383	0.065
Mof_H 	H 	0.0793	0.0498	0.8473	0.041
Mof_H 	H 	0.7771	0.2111	0.9718	0.061
Mof_H 	H 	0.7324	0.8047	0.7125	0.043
Mof_H 	H 	0.1052	0.6583	0.5457	0.068
Mof_H 	H 	0.455	0.6722	0.7939	0.04
Mof_H 	H 	0.0219	0.8629	0.1869	0.028
Mof_H 	H 	0.2373	0.2609	0.3599	0.037
Mof_H 	H 	0.9369	0.5395	0.7528	0.058
Mof_H 	H 	0.4935	0.1547	0.1742	0.03
Mof_H 	H 	0.7407	0.343	0.1922	0.04
Mof_H 	H 	0.9781	0.1371	0.8131	0.028
Mof_H 	H 	0.8509	0.3875	0.2922	0.034
Mof_H 	H 	0.2609	0.1941	0.0042	0.062
Mof_H 	H 	0.4702	0.6135	0.3633	0.038
Mof_H 	H 	0.3433	0.7353	0.7662	0.038
Mof_H 	H 	0.91	0.4326	0.6402	0.046
Mof_H 	H 	0.0298	0.8865	0.8633	0.037
Mof_H 	H 	0.4269	0.1973	0.1507	0.035
Mof_H 	H 	0.7364	0.9205	0.7747	0.031
Mof_H 	H 	0.7229	0.2889	0.4718	0.061
Mof_H 	H 	0.0731	0.3027	0.6507	0.034
Mof_H 	H 	0.3213	0.738	0.7158	0.038
Mof_H 	H 	0.9148	0.8515	0.9659	0.068
Mof_H 	H 	0.6491	0.1125	0.7922	0.035
Mof_H 	H 	0.8166	0.392	0.2155	0.039
Mof_H 	H 	0.2964	0.8362	0.1807	0.04
Mof_H 	H 	0.2286	0.4014	0.3472	0.065
Mof_H 	H 	0.0581	0.2006	0.1005	0.066
Mof_H 	H 	0.9269	0.6973	0.3493	0.034
Mof_H 	H 	0.8377	0.8561	0.8119	0.039
Mof_H 	H 	0.8433	0.2353	0.7338	0.038
Mof_H 	H 	0.3126	0.3536	0.7661	0.045
Mof_H 	H 	0.2627	0.2391	0.8599	0.037
Mof_H 	H 	0.5065	0.8453	0.8258	0.03
Mof_H 	H 	0.0793	0.5599	0.2594	0.063
Mof_H 	H 	0.09	0.5674	0.3598	0.046
Mof_H 	H 	0.8508	0.765	0.3082	0.035
Mof_H 	H 	0.1787	0.762	0.2158	0.039
Mof_H 	H 	0.4862	0.8425	0.7489	0.038
Mof_H 	H 	0.054	0.6397	0.4759	0.046
Mof_H 	H 	0.7726	0.8093	0.8411	0.04
Mof_H 	H 	0.2364	0.4205	0.7253	0.031
Mof_H 	H 	0.2593	0.657	0.8078	0.04
Mof_H 	H 	0.5731	0.8027	0.8493	0.035
Mof_H 	H 	0.1567	0.7647	0.2662	0.038
Mof_H 	H 	0.2036	0.6638	0.6807	0.04
Mof_H 	H 	0.4383	0.8084	0.1183	0.066
Mof_H 	H 	0.6787	0.262	0.2842	0.038
Mof_H 	H 	0.6053	0.9166	0.7804	0.038
Mof_H 	H 	0.7714	0.5986	0.6528	0.065
Mof_H 	H 	0.1998	0.713	0.8921	0.038
Mof_H 	H 	0.5386	0.7977	0.7218	0.042
Mof_H 	H 	0.5088	0.6326	0.7622	0.037
Mof_H 	H 	0.5793	0.5498	0.6527	0.042
Mof_H 	H 	0.9383	0.3084	0.3817	0.065
Mof_H 	H 	0.2407	0.843	0.3078	0.04
Mof_H 	H 	0.0252	0.1186	0.9669	0.045
Mof_H 	H 	0.5983	0.3209	0.3317	0.035
Mof_H 	H 	0.955	0.1722	0.7061	0.04
Mof_H 	H 	0.2365	0.9508	0.2373	0.03
Mof_H 	H 	0.7635	0.0492	0.7627	0.03
Mof_H 	H 	0.0983	0.8209	0.1683	0.035
Mof_H 	H 	0.1872	0.6431	0.2647	0.036
Mof_H 	H 	0.0088	0.1326	0.7378	0.036
Mof_H 	H 	0.446	0.8603	0.9759	0.046
Mof_H 	H 	0.8947	0.5834	0.2804	0.037
Mof_H 	H 	0.41	0.9326	0.8598	0.046
Mof_H 	H 	0.8948	0.3417	0.4543	0.068
Mof_H 	H 	0.7593	0.157	0.6922	0.04
Mof_H 	H 	0.5404	0.4231	0.7674	0.055
Mof_H 	H 	0.9702	0.1135	0.1367	0.037
Mof_H 	H 	0.7627	0.7391	0.6401	0.037
Mof_H 	H 	0.3002	0.787	0.3921	0.038
Mof_H 	H 	0.1834	0.608	0.7845	0.039
Mof_H 	H 	0.2391	0.3059	0.5042	0.062
Mof_H 	H 	0.2726	0.3093	0.6589	0.04
Mof_H 	H 	0.9411	0.977	0.2845	0.061
Mof_H 	H 	0.2714	0.0986	0.8472	0.065
Mof_H 	H 	0.9596	0.0769	0.2674	0.055
Mof_H 	H 	0.9207	0.4401	0.7406	0.063
Mof_H 	H 	0.3336	0.3937	0.2126	0.037
Mof_H 	H 	0.8126	0.8536	0.7339	0.045
Mof_H 	H 	0.4148	0.3515	0.5341	0.067
Mof_H 	H 	0.7636	0.5795	0.2747	0.031
Mof_H 	H 	0.6874	0.6464	0.2339	0.045
Mof_H 	H 	0.3377	0.3561	0.6881	0.039
Mof_H 	H 	0.2501	0.7642	0.4617	0.065
Mof_H 	H 	0.7274	0.6907	0.3411	0.04
Mof_H 	H 	0.946	0.3603	0.5241	0.046
Mof_H 	H 	0.1053	0.4166	0.7196	0.037
Mof_H 	H 	0.3947	0.0834	0.2196	0.038
Mof_H 	H 	0.6492	0.735	0.8082	0.035
Mof_H 	H 	0.7833	0.1159	0.1362	0.066
Mof_H 	H 	0.0403	0.4032	0.3503	0.041
Mof_H 	H 	0.0589	0.023	0.7155	0.061
Mof_H 	H 	0.4748	0.3814	0.4669	0.045
Mof_H 	H 	0.2499	0.7358	0.9617	0.065
Mof_H 	H 	0.5403	0.9032	0.1497	0.04
Mof_H 	H 	0.2635	0.5492	0.7373	0.03
Mof_H 	H 	0.2135	0.2237	0.9304	0.066
Mof_H 	H 	0.3128	0.8569	0.7647	0.036
Mof_H 	H 	0.2167	0.8841	0.8638	0.066
Mof_H 	H 	0.9017	0.1791	0.8317	0.035
Mof_H 	H 	0.3657	0.2669	0.2427	0.036
Mof_H 	H 	0.0138	0.6575	0.2489	0.039
Mof_H 	H 	0.2636	0.0795	0.2253	0.031
Mof_H 	H 	0.6623	0.6439	0.3119	0.039
Mof_H 	H 	0.2229	0.7889	0.0282	0.061
Mof_H 	H 	0.3509	0.8875	0.2078	0.035
Mof_H 	H 	0.7036	0.1638	0.8193	0.04
Mof_H 	H 	0.8657	0.7669	0.2573	0.036
Mof_H 	H 	0.7609	0.6941	0.4958	0.062
Mof_H 	H 	0.6998	0.213	0.6079	0.038
Mof_H 	H 	0.8939	0.058	0.7713	0.04
Mof_H 	H 	0.5852	0.6485	0.4659	0.067
Mof_H 	H 	0.2676	0.1953	0.2875	0.043
Mof_H 	H 	0.8002	0.287	0.1079	0.038
Mof_H 	H 	0.9207	0.9502	0.1527	0.041
Mof_H 	H 	0.4017	0.6791	0.6683	0.035
Mof_H 	H 	0.5589	0.523	0.7845	0.061
Mof_C 	C 	0.1871	0.41933	0.2302	-0.08
Mof_C 	C 	0.5818	0.78354	0.13612	-0.09
Mof_C 	C 	0.5367	0.81266	0.06482	0.022
Mof_C 	C 	0.0976	0.82797	0.75363	0.374
Mof_C 	C 	0.8418	0.26444	0.0919	0.018
Mof_C 	C 	0.251	0.86427	0.28095	-0.021
Mof_C 	C 	0.2012	0.4351	0.3498	-0.085
Mof_C 	C 	0.1064	0.83823	0.03663	-0.055
Mof_C 	C 	0.3648	0.47409	0.22221	-0.083
Mof_C 	C 	0.2323	0.16884	0.1851	-0.037
Mof_C 	C 	0.5976	0.32797	0.74637	0.375
Mof_C 	C 	0.7845	0.36011	0.29494	-0.031
Mof_C 	C 	0.3437	0.93731	0.75394	-0.087
Mof_C 	C 	0.3811	0.966	0.85734	-0.024
Mof_C 	C 	0.8316	0.21325	0.76018	-0.015
Mof_C 	C 	0.7968	0.48416	0.75711	0.03
Mof_C 	C 	0.1352	0.02591	0.72221	-0.083
Mof_C 	C 	0.3824	0.57312	0.23781	-0.026
Mof_C 	C 	0.7159	0.78305	0.07915	-0.094
Mof_C 	C 	0.8918	0.98341	0.14912	-0.016
Mof_C 	C 	0.0047	0.65439	0.49468	-0.003
Mof_C 	C 	0.4502	0.17815	0.25291	-0
Mof_C 	C 	0.4626	0.53076	0.3549	-0.11
Mof_C 	C 	0.0498	0.32185	0.75291	-0.002
Mof_C 	C 	0.2569	0.17138	0.26208	-0.027
Mof_C 	C 	0.6709	0.423	0.26613	-0.015
Mof_C 	C 	0.1895	0.91787	0.86067	-0.091
Mof_C 	C 	0.1514	0.86124	0.07856	0.287
Mof_C 	C 	0.1709	0.923	0.23387	-0.015
Mof_C 	C 	0.7797	0.38788	0.74303	0.019
Mof_C 	C 	0.6674	0.89497	0.77836	-0.013
Mof_C 	C 	0.1457	0.25758	0.71769	-0.013
Mof_C 	C 	0.8105	0.08213	0.13933	-0.091
Mof_C 	C 	0.6425	0.80241	0.04996	0.035
Mof_C 	C 	0.8702	0.21535	0.02679	0.032
Mof_C 	C 	0.8113	0.25037	0.05085	-0.09
Mof_C 	C 	0.4207	0.58089	0.36013	0.032
Mof_C 	C 	0.9102	0.56388	0.64868	0.025
Mof_C 	C 	0.0898	0.43612	0.35132	0.025
Mof_C 	C 	0.7012	0.9351	0.1502	-0.085
Mof_C 	C 	0.9626	0.03076	0.1451	-0.112
Mof_C 	C 	0.1082	0.01659	0.85088	-0.016
Mof_C 	C 	0.5529	0.77518	0.1822	0.378
Mof_C 	C 	0.6887	0.24963	0.55085	-0.091
Mof_C 	C 	0.1563	0.56269	0.25394	-0.087
Mof_C 	C 	0.6582	0.23556	0.5919	0.019
Mof_C 	C 	0.0836	0.02977	0.14533	0.4
Mof_C 	C 	0.0699	0.32465	0.67695	-0.014
Mof_C 	C 	0.3543	0.24242	0.21769	-0.013
Mof_C 	C 	0.6866	0.77391	0.12095	0.021
Mof_C 	C 	0.6871	0.91933	0.2698	-0.08
Mof_C 	C 	0.4471	0.22482	0.8178	0.378
Mof_C 	C 	0.6457	0.75758	0.78231	-0.013
Mof_C 	C 	0.1887	0.74963	0.94915	-0.09
Mof_C 	C 	0.1198	0.36378	0.22993	0.371
Mof_C 	C 	0.9633	0.68734	0.56482	0.022
Mof_C 	C 	0.4651	0.83456	0.03604	-0.078
Mof_C 	C 	0.5651	0.25434	0.61092	-0.086
Mof_C 	C 	0.1176	0.92688	0.73781	-0.026
Mof_C 	C 	0.5364	0.30374	0.54561	0.022
Mof_C 	C 	0.2988	0.0649	0.8498	-0.085
Mof_C 	C 	0.8575	0.69759	0.54996	0.035
Mof_C 	C 	0.249	0.63573	0.78095	-0.021
Mof_C 	C 	0.927	0.48787	0.3547	0.392
Mof_C 	C 	0.9024	0.17203	0.24637	0.374
Mof_C 	C 	0.3134	0.22609	0.87905	0.021
Mof_C 	C 	0.5374	0.46924	0.6451	-0.11
Mof_C 	C 	0.1298	0.78465	0.97321	0.032
Mof_C 	C 	0.8129	0.58067	0.7698	-0.08
Mof_C 	C 	0.6514	0.36124	0.42144	0.287
Mof_C 	C 	0.7841	0.71695	0.57915	-0.094
Mof_C 	C 	0.838	0.19783	0.98509	-0.053
Mof_C 	C 	0.4517	0.01334	0.85443	-0.105
Mof_C 	C 	0.3702	0.71535	0.47321	0.033
Mof_C 	C 	0.2653	0.9662	0.85668	0.027
Mof_C 	C 	0.3347	0.61763	0.24882	-0.086
Mof_C 	C 	0.3316	0.71325	0.73982	-0.015
Mof_C 	C 	0.8648	0.97409	0.27779	-0.083
Mof_C 	C 	0.6064	0.33823	0.46337	-0.054
Mof_C 	C 	0.2155	0.63989	0.70506	-0.031
Mof_C 	C 	0.9301	0.67535	0.32305	-0.014
Mof_C 	C 	0.3918	0.48341	0.35088	-0.016
Mof_C 	C 	0.3182	0.52115	0.23398	0.023
Mof_C 	C 	0.7347	0.0338	0.14332	0.027
Mof_C 	C 	0.3298	0.18639	0.99349	-0.054
Mof_C 	C 	0.2841	0.21695	0.92085	-0.094
Mof_C 	C 	0.7677	0.83116	0.8149	-0.037
Mof_C 	C 	0.5134	0.3568	0.48207	-0.005
Mof_C 	C 	0.7431	0.82862	0.73792	-0.027
Mof_C 	C 	0.5047	0.15439	0.00532	-0.003
Mof_C 	C 	0.4182	0.21646	0.86388	-0.09
Mof_C 	C 	0.5793	0.41911	0.63987	0.032
Mof_C 	C 	0.4866	0.6432	0.51793	-0.005
Mof_C 	C 	0.5214	0.66059	0.47791	-0.078
Mof_C 	C 	0.9182	0.71646	0.63612	-0.091
Mof_C 	C 	0.9349	0.24566	0.11092	-0.085
Mof_C 	C 	0.8936	0.16177	0.96337	-0.055
Mof_C 	C 	0.6198	0.86378	0.27007	0.371
Mof_C 	C 	0.724	0.51657	0.64793	0.022
Mof_C 	C 	0.7323	0.66884	0.3149	-0.036
Mof_C 	C 	0.9651	0.33456	0.46396	-0.079
Mof_C 	C 	0.3291	0.577	0.73387	-0.015
Mof_C 	C 	0.3113	0.75037	0.44915	-0.091
Mof_C 	C 	0.8613	0.64558	0.43582	0.29
Mof_C 	C 	0.3802	0.13622	0.72993	0.371
Mof_C 	C 	0.005	0.78738	0.9121	-0.034
Mof_C 	C 	0.9011	0.66454	0.47952	-0.056
Mof_C 	C 	0.7988	0.5649	0.6502	-0.085
Mof_C 	C 	0.505	0.28738	0.5879	-0.032
Mof_C 	C 	0.9164	0.97023	0.85467	0.4
Mof_C 	C 	0.5575	0.34944	0.2327	0.001
Mof_C 	C 	0.9786	0.83941	0.97791	-0.079
Mof_C 	C 	0.9207	0.08089	0.13987	0.032
Mof_C 	C 	0.6653	0.38237	0.75118	-0.086
Mof_C 	C 	0.4118	0.65478	0.69268	-0.016
Mof_C 	C 	0.6989	0.57522	0.77953	0.014
Mof_C 	C 	0.3011	0.42478	0.22047	0.014
Mof_C 	C 	0.1702	0.31361	0.49349	-0.054
Mof_C 	C 	0.0575	0.84944	0.2673	0.003
Mof_C 	C 	0.9502	0.67815	0.24709	-0.002
Mof_C 	C 	0.4102	0.06388	0.85132	0.025
Mof_C 	C 	0.8811	0.466	0.64266	-0.024
Mof_C 	C 	0.995	0.21262	0.0879	-0.034
Mof_C 	C 	0.495	0.71262	0.4121	-0.032
Mof_C 	C 	0.073	0.51213	0.6453	0.392
Mof_C 	C 	0.2032	0.51584	0.24289	0.03
Mof_C 	C 	0.3575	0.19759	0.95004	0.035
Mof_C 	C 	0.8347	0.11763	0.25118	-0.086
Mof_C 	C 	0.6818	0.47885	0.76602	0.023
Mof_C 	C 	0.9118	0.15478	0.80732	-0.016
Mof_C 	C 	0.0882	0.84522	0.19268	-0.016
Mof_C 	C 	0.1674	0.39497	0.72164	-0.013
Mof_C 	C 	0.8326	0.60503	0.27836	-0.013
Mof_C 	C 	0.3326	0.10503	0.22164	-0.013
Mof_C 	C 	0.4024	0.67203	0.25363	0.375
Mof_C 	C 	0.0651	0.75434	0.88908	-0.085
Mof_C 	C 	0.5836	0.52977	0.35467	0.399
Mof_C 	C 	0.2968	0.98416	0.74289	0.03
Mof_C 	C 	0.8602	0.53583	0.75905	-0.032
Mof_C 	C 	0.9425	0.15056	0.7327	0.003
Mof_C 	C 	0.7155	0.13989	0.79494	-0.031
Mof_C 	C 	0.751	0.36427	0.21905	-0.021
Mof_C 	C 	0.4786	0.33941	0.52209	-0.078
Mof_C 	C 	0.0214	0.16059	0.02209	-0.079
Mof_C 	C 	0.5898	0.93612	0.14868	0.025
Mof_C 	C 	0.8011	0.92478	0.27953	0.014
Mof_C 	C 	0.3418	0.76444	0.4081	0.019
Mof_C 	C 	0.4349	0.74566	0.38908	-0.086
Mof_C 	C 	0.0352	0.74149	0.84344	0.374
Mof_C 	C 	0.8291	0.077	0.76613	-0.015
Mof_C 	C 	0.4911	0.19771	0.89176	-0.03
Mof_C 	C 	0.9866	0.1432	0.98207	-0.004
Mof_C 	C 	0.3486	0.63876	0.57856	0.287
Mof_C 	C 	0.2677	0.33116	0.6851	-0.036
Mof_C 	C 	0.573	0.01213	0.8547	0.393
Mof_C 	C 	0.9471	0.72482	0.6822	0.38
Mof_C 	C 	0.0529	0.27518	0.3178	0.38
Mof_C 	C 	0.8437	0.43731	0.74606	-0.087
Mof_C 	C 	0.0818	0.28354	0.36388	-0.091
Mof_C 	C 	0.5352	0.24149	0.65656	0.375
Mof_C 	C 	0.427	0.98787	0.1453	0.393
Mof_C 	C 	0.3129	0.08067	0.7302	-0.08
Mof_C 	C 	0.6082	0.51659	0.64912	-0.016
Mof_C 	C 	0.2159	0.28305	0.42085	-0.094
Mof_C 	C 	0.8486	0.13876	0.92144	0.287
Mof_C 	C 	0.9517	0.51334	0.64557	-0.104
Mof_C 	C 	0.2797	0.88788	0.75697	0.019
Mof_C 	C 	0.338	0.69783	0.51491	-0.054
Mof_C 	C 	0.4636	0.69626	0.45439	0.022
Mof_C 	C 	0.1866	0.27391	0.37905	0.022
Mof_C 	C 	0.276	0.48343	0.35207	0.022
Mof_C 	C 	0.6684	0.28675	0.26018	-0.015
Mof_C 	C 	0.5989	0.83546	0.97952	-0.056
Mof_C 	C 	0.4633	0.18734	0.93518	0.022
Mof_C 	C 	0.1189	0.534	0.35734	-0.024
Mof_C 	C 	0.8824	0.07312	0.26219	-0.026
Mof_C 	C 	0.1684	0.78675	0.23982	-0.015
Mof_C 	C 	0.6563	0.06269	0.24606	-0.087
Mof_C 	C 	0.6387	0.85442	0.93582	0.29
Mof_C 	C 	0.7032	0.01584	0.25711	0.03
Mof_C 	C 	0.2347	0.5338	0.35668	0.027
Mof_C 	C 	0.662	0.30217	0.48509	-0.054
Mof_C 	C 	0.6895	0.41787	0.63933	-0.09
Mof_C 	C 	0.6176	0.42688	0.76219	-0.026
Mof_C 	C 	0.3105	0.58213	0.36067	-0.09
Mof_C 	C 	0.6398	0.96417	0.25905	-0.032
Mof_C 	C 	0.2431	0.32862	0.76208	-0.027
Mof_C 	C 	0.4648	0.75851	0.34344	0.375
Mof_C 	C 	0.0793	0.91911	0.86013	0.032
Mof_C 	C 	0.1989	0.07522	0.72047	0.014
Mof_C 	C 	0.9648	0.25851	0.15656	0.374
Mof_C 	C 	0.1387	0.35442	0.56418	0.29
Mof_C 	C 	0.6702	0.81361	0.00651	-0.054
Mof_C 	C 	0.7569	0.67138	0.23792	-0.027
Mof_C 	C 	0.6298	0.28465	0.52679	0.033
Mof_C 	C 	0.7653	0.4662	0.64332	0.027
Mof_C 	C 	0.8134	0.72609	0.62095	0.022
Mof_C 	C 	0.162	0.80217	0.01491	-0.053
Mof_C 	C 	0.1582	0.73556	0.9081	0.018
Mof_C 	C 	0.5089	0.80229	0.10824	-0.03
Mof_C 	C 	0.8802	0.63622	0.77007	0.371
Mof_C 	C 	0.0989	0.33546	0.52048	-0.056
Mof_C 	C 	0.9953	0.34561	0.50532	-0.003
Mof_C 	C 	0.5483	0.98666	0.14557	-0.105
Mof_C 	C 	0.3613	0.14558	0.06418	0.29
Mof_C 	C 	0.776	0.98343	0.14793	0.021
Mof_C 	C 	0.4011	0.16454	0.02048	-0.056
Mof_C 	C 	0.1653	0.88237	0.74882	-0.086
Mof_C 	C 	0.4425	0.65056	0.7673	0.001
Mof_C 	C 	0.0483	0.48666	0.35443	-0.104
Mof_C 	C 	0.5498	0.82185	0.74709	-0
Mof_C 	C 	0.8543	0.74242	0.28231	-0.013
Mof_C 	C 	0.4301	0.17535	0.17695	-0.014
Mof_C 	C 	0.6189	0.034	0.14266	-0.024
Mof_C 	C 	0.3602	0.03583	0.74095	-0.032
Mof_C 	C 	0.749	0.13573	0.71905	-0.021
Mof_C 	C 	0.9636	0.19626	0.04561	0.022
Mof_C 	C 	0.2203	0.61212	0.25697	0.019
Mof_C 	C 	0.7203	0.11212	0.24303	0.019
Mof_C 	C 	0.8298	0.68639	0.50651	-0.054
Mof_C 	C 	0.0089	0.30229	0.39176	-0.029
Mof_C 	C 	0.0349	0.66544	0.53604	-0.079
Mof_C 	C 	0.9911	0.69771	0.60824	-0.029
Mof_C 	C 	0.5699	0.82465	0.82305	-0.014
Mof_C 	C 	0.1425	0.30241	0.45004	0.035
Mof_C 	C 	0.224	0.01657	0.85207	0.021
Mof_C 	C 	0.0134	0.8568	0.01793	-0.004
Mof_C 	C 	0.0367	0.31266	0.43518	0.022
Mof_C 	C 	0.1398	0.46417	0.24095	-0.032
Mof_C 	C 	0.0364	0.80374	0.95439	0.022
Mof_C 	C 	0.5882	0.34522	0.30732	-0.016
Mof_C 	C 	0.5349	0.16544	0.96396	-0.078
Mof_C 	C 	0.1818	0.97885	0.73398	0.023
Mof_C 	C 	0.6352	0.52591	0.77779	-0.083
Mof_C 	C 	0.2845	0.86011	0.20506	-0.031
Mof_C 	C 	0.4164	0.47023	0.64533	0.399
Mof_C 	C 	0.8182	0.02115	0.26602	0.023
Mof_C 	C 	0.0374	0.96924	0.8549	-0.112
Mof_C 	C 	0.3936	0.66177	0.53663	-0.054
Mof_C 	C 	0.4953	0.84561	0.99468	-0.003
Mof_N 	N 	0.6514	0.85983	0.74131	-0.094
Mof_N 	N 	0.1875	0.8879	0.19608	-0.199
Mof_N 	N 	0.2528	0.29464	0.72275	-0.199
Mof_N 	N 	0.8259	0.63665	0.31902	-0.195
Mof_N 	N 	0.6741	0.86335	0.81902	-0.195
Mof_N 	N 	0.447	0.21142	0.21407	-0.096
Mof_N 	N 	0.1741	0.36335	0.68098	-0.195
Mof_N 	N 	0.7528	0.79464	0.77725	-0.199
Mof_N 	N 	0.553	0.78858	0.78593	-0.096
Mof_N 	N 	0.2294	0.67272	0.74473	-0.201
Mof_N 	N 	0.9289	0.18676	0.76828	-0.096
Mof_N 	N 	0.5711	0.31324	0.26828	-0.096
Mof_N 	N 	0.1538	0.89122	0.2733	-0.095
Mof_N 	N 	0.2472	0.20536	0.22275	-0.199
Mof_N 	N 	0.6875	0.3879	0.30392	-0.199
Mof_N 	N 	0.7472	0.70536	0.27725	-0.199
Mof_N 	N 	0.3259	0.13665	0.18098	-0.195
Mof_N 	N 	0.7706	0.32728	0.25527	-0.201
Mof_N 	N 	0.3462	0.60878	0.7733	-0.095
Mof_N 	N 	0.3125	0.6121	0.69608	-0.199
Mof_N 	N 	0.8462	0.10878	0.7267	-0.095
Mof_N 	N 	0.6538	0.39122	0.2267	-0.095
Mof_N 	N 	0.1514	0.35983	0.75869	-0.094
Mof_N 	N 	0.0711	0.81324	0.23172	-0.096
Mof_N 	N 	0.3486	0.14017	0.25869	-0.094
Mof_N 	N 	0.4289	0.68676	0.73172	-0.096
Mof_N 	N 	0.8125	0.1121	0.80392	-0.199
Mof_N 	N 	0.7294	0.17272	0.75527	-0.201
Mof_N 	N 	0.053	0.28858	0.71407	-0.096
Mof_N 	N 	0.947	0.71142	0.28593	-0.096
Mof_N 	N 	0.2706	0.82728	0.24473	-0.201
Mof_N 	N 	0.8486	0.64017	0.24131	-0.094
Mof_O 	O 	0.7754	0.15853	0.90205	-0.323
Mof_O 	O 	0.99429	0.82501	0.75386	-0.449
Mof_O 	O 	0.3571	0.42866	0.63131	-0.494
Mof_O 	O 	0.981	0.63955	0.75982	-0.461
Mof_O 	O 	0.959	0.28359	0.30565	-0.458
Mof_O 	O 	0.519	0.86045	0.25982	-0.462
Mof_O 	O 	0.6106	0.40349	0.40772	-0.448
Mof_O 	O 	0.1515	0.78828	0.75697	-0.465
Mof_O 	O 	0.86678	0.44358	0.36262	-0.496
Mof_O 	O 	0.37932	0.51175	0.6595	-0.506
Mof_O 	O 	0.541	0.21641	0.80565	-0.457
Mof_O 	O 	0.1106	0.90349	0.09228	-0.448
Mof_O 	O 	0.5939	0.21224	0.67716	-0.451
Mof_O 	O 	0.3304	0.17558	0.72031	-0.46
Mof_O 	O 	0.6429	0.57134	0.36869	-0.494
Mof_O 	O 	0.4061	0.78776	0.32284	-0.451
Mof_O 	O 	0.10855	0.46824	0.65361	-0.506
Mof_O 	O 	0.00571	0.17499	0.24614	-0.449
Mof_O 	O 	0.12068	0.98825	0.1595	-0.506
Mof_O 	O 	0.0939	0.71224	0.82284	-0.451
Mof_O 	O 	0.3485	0.71172	0.25697	-0.465
Mof_O 	O 	0.2754	0.65853	0.59795	-0.323
Mof_O 	O 	0.8304	0.67558	0.77969	-0.46
Mof_O 	O 	0.459	0.78359	0.19435	-0.457
Mof_O 	O 	0.7252	0.84198	0.92059	-0.35
Mof_O 	O 	0.7246	0.34147	0.40205	-0.323
Mof_O 	O 	0.1273	0.26099	0.29394	-0.463
Mof_O 	O 	0.8571	0.92866	0.86869	-0.495
Mof_O 	O 	0.8727	0.73901	0.70606	-0.463
Mof_O 	O 	0.6273	0.76099	0.20606	-0.463
Mof_O 	O 	0.36678	0.94358	0.13738	-0.496
Mof_O 	O 	0.9061	0.28776	0.17716	-0.451
Mof_O 	O 	0.87932	0.01175	0.8405	-0.506
Mof_O 	O 	0.019	0.36045	0.24018	-0.461
Mof_O 	O 	0.7748	0.65802	0.42059	-0.35
Mof_O 	O 	0.2246	0.84147	0.09795	-0.323
Mof_O 	O 	0.6696	0.82442	0.27969	-0.46
Mof_O 	O 	0.481	0.13955	0.74018	-0.462
Mof_O 	O 	0.3727	0.23901	0.79394	-0.463
Mof_O 	O 	0.3894	0.59651	0.59228	-0.448
Mof_O 	O 	0.1429	0.07134	0.13131	-0.495
Mof_O 	O 	0.63322	0.05642	0.86262	-0.496
Mof_O 	O 	0.13322	0.55642	0.63738	-0.496
Mof_O 	O 	0.1696	0.32442	0.22031	-0.46
Mof_O 	O 	0.2252	0.34198	0.57941	-0.35
Mof_O 	O 	0.8894	0.09651	0.90772	-0.448
Mof_O 	O 	0.62068	0.48825	0.3405	-0.506
Mof_O 	O 	0.6515	0.28828	0.74303	-0.465
Mof_O 	O 	0.583	0.88652	0.91656	-0.434
Mof_O 	O 	0.8485	0.21172	0.24303	-0.465
Mof_O 	O 	0.5461	0.73886	0.3284	-0.473
Mof_O 	O 	0.50571	0.67499	0.25386	-0.45
Mof_O 	O 	0.39145	0.03176	0.15361	-0.506
Mof_O 	O 	0.0461	0.23886	0.1716	-0.472
Mof_O 	O 	0.917	0.61348	0.41656	-0.434
Mof_O 	O 	0.4539	0.26114	0.6716	-0.473
Mof_O 	O 	0.041	0.71641	0.69435	-0.458
Mof_O 	O 	0.49429	0.32501	0.74614	-0.45
Mof_O 	O 	0.417	0.11348	0.08344	-0.434
Mof_O 	O 	0.2748	0.15802	0.07941	-0.35
Mof_O 	O 	0.083	0.38652	0.58344	-0.434
Mof_O 	O 	0.9539	0.76114	0.8284	-0.472
Mof_O 	O 	0.60855	0.96824	0.84639	-0.506
Mof_O 	O 	0.89145	0.53176	0.34639	-0.506
_end
