data_functionalizedCrystal
_audit_creation_method	'EQeq! by Chris Wilmer'
_symmetry_space_group_name_H-M	'P1'
_symmetry_Int_Tables_number	1
_symmetry_cell_setting	triclinic
loop_
_symmetry_equiv_pos_as_xyz
  x,y,z
_cell_length_a	11.1753
_cell_length_b	27.609
_cell_length_c	27.609
_cell_angle_alpha	87.6526
_cell_angle_beta	78.3236
_cell_angle_gamma	78.3237
loop_
_atom_site_label
_atom_site_type_symbol
_atom_site_fract_x
_atom_site_fract_y
_atom_site_fract_z
_atom_site_charge
Mof_Zn	Zn	0.39435	0.45855	0.45975	1.177
Mof_Zn	Zn	0.31265	0.54145	0.54025	1.177
Mof_Zn	Zn	0.1041	0.04025	0.95855	1.178
Mof_Zn	Zn	0.1029	0.95975	0.04145	1.179
Mof_Zn	Zn	0.93735	0.95975	0.95855	1.187
Mof_Zn	Zn	0.85565	0.04025	0.04145	1.172
Mof_Zn	Zn	0.1471	0.45855	0.54025	1.177
Mof_Zn	Zn	0.1459	0.54145	0.45975	1.177
Mof_Zn	Zn	0.41168	0.17664	-0	1.213
Mof_Zn	Zn	0.58832	0.82336	-0	1.212
Mof_Zn	Zn	0.66168	0.5	0.67664	1.217
Mof_Zn	Zn	0.83832	0.5	0.32336	1.217
Mof_Zn	Zn	0.41324	1.32713e-23	0.17352	1.211
Mof_Zn	Zn	0.58676	1.0617e-22	0.82648	1.211
Mof_Zn	Zn	0.83676	0.32648	0.5	1.217
Mof_Zn	Zn	0.66324	0.67352	0.5	1.216
Mof_H 	H 	0.4138	0.1347	0.0913	0.149
Mof_H 	H 	0.447	0.1017	0.1327	0.166
Mof_H 	H 	0.2257	0.1289	0.9655	-0.014
Mof_H 	H 	0.218	0.9733	0.1295	-0.009
Mof_H 	H 	0.5737	0.3268	0.3294	0.036
Mof_H 	H 	0.5505	0.2891	0.2591	0.061
Mof_H 	H 	0.2083	0.3735	0.2693	0.077
Mof_H 	H 	0.2315	0.4111	0.3395	0.037
Mof_H 	H 	0.4741	0.2388	0.2232	0.062
Mof_H 	H 	0.4696	0.202	0.1498	0.036
Mof_H 	H 	0.2447	0.3248	0.1132	0.032
Mof_H 	H 	0.2492	0.3617	0.1865	0.075
Mof_H 	H 	0.0377	0.9743	0.2939	0.029
Mof_H 	H 	0.9346	0.9199	0.3439	0.084
Mof_H 	H 	0.2143	0.8069	0.2921	0.071
Mof_H 	H 	0.3175	0.8614	0.242	0.029
Mof_H 	H 	0.6398	0.8653	0.9087	0.151
Mof_H 	H 	0.6814	0.8983	0.8673	0.169
Mof_H 	H 	0.3201	0.8711	0.0345	0.004
Mof_H 	H 	0.3208	0.0267	0.8705	-0.053
Mof_H 	H 	0.2299	0.6732	0.6706	0.036
Mof_H 	H 	0.0987	0.7109	0.7409	0.061
Mof_H 	H 	0.8511	0.6265	0.7307	0.075
Mof_H 	H 	0.9821	0.5889	0.6605	0.042
Mof_H 	H 	0.9361	0.7612	0.7768	0.062
Mof_H 	H 	0.8214	0.798	0.8502	0.038
Mof_H 	H 	0.6827	0.6752	0.8868	0.037
Mof_H 	H 	0.7974	0.6383	0.8135	0.076
Mof_H 	H 	0.3059	0.0257	0.7061	0.021
Mof_H 	H 	0.1984	0.0801	0.6561	0.076
Mof_H 	H 	0.3133	0.1931	0.7079	0.071
Mof_H 	H 	0.4209	0.1386	0.758	0.027
Mof_H 	H 	0.7551	0.4087	0.6347	0.15
Mof_H 	H 	0.8297	0.3673	0.6017	0.168
Mof_H 	H 	0.4412	0.5345	0.6289	-0.005
Mof_H 	H 	0.5975	0.3705	0.4733	-0.031
Mof_H 	H 	0.1531	0.1706	0.8268	0.038
Mof_H 	H 	0.0596	0.2409	0.7891	0.061
Mof_H 	H 	0.7276	0.2307	0.8735	0.077
Mof_H 	H 	0.821	0.1605	0.9111	0.041
Mof_H 	H 	0.9473	0.2768	0.7388	0.062
Mof_H 	H 	0.8694	0.3502	0.702	0.037
Mof_H 	H 	0.6079	0.3868	0.8248	0.036
Mof_H 	H 	0.6857	0.3135	0.8617	0.077
Mof_H 	H 	0.5816	0.2061	0.4743	0.025
Mof_H 	H 	0.5285	0.1561	0.4199	0.077
Mof_H 	H 	0.7564	0.2079	0.3069	0.07
Mof_H 	H 	0.8095	0.258	0.3614	0.028
Mof_H 	H 	0.7985	0.5913	0.3653	0.15
Mof_H 	H 	0.7987	0.6327	0.3983	0.168
Mof_H 	H 	0.6046	0.4655	0.3711	-0.005
Mof_H 	H 	0.4413	0.6295	0.5267	-0.031
Mof_H 	H 	0.1505	0.8294	0.1732	0.034
Mof_H 	H 	0.0896	0.7591	0.2109	0.063
Mof_H 	H 	0.8318	0.7693	0.1265	0.079
Mof_H 	H 	0.8926	0.8395	0.0889	0.033
Mof_H 	H 	0.9629	0.7232	0.2612	0.061
Mof_H 	H 	0.9216	0.6498	0.298	0.037
Mof_H 	H 	0.8195	0.6132	0.1752	0.034
Mof_H 	H 	0.8609	0.6865	0.1383	0.074
Mof_H 	H 	0.262	0.7939	0.5257	0.026
Mof_H 	H 	0.1045	0.8439	0.5801	0.08
Mof_H 	H 	0.2712	0.7921	0.6931	0.071
Mof_H 	H 	0.4289	0.742	0.6386	0.028
Mof_H 	H 	0.6102	0.5913	0.6347	0.15
Mof_H 	H 	0.5686	0.6327	0.6017	0.167
Mof_H 	H 	0.9299	0.4655	0.6289	-0.005
Mof_H 	H 	0.9292	0.6295	0.4733	-0.03
Mof_H 	H 	0.0201	0.8294	0.8268	0.035
Mof_H 	H 	0.1513	0.7591	0.7891	0.06
Mof_H 	H 	0.3989	0.7693	0.8735	0.078
Mof_H 	H 	0.2679	0.8395	0.9111	0.04
Mof_H 	H 	0.3139	0.7232	0.7388	0.061
Mof_H 	H 	0.4286	0.6498	0.702	0.037
Mof_H 	H 	0.5673	0.6132	0.8248	0.036
Mof_H 	H 	0.4526	0.6865	0.8617	0.077
Mof_H 	H 	0.9441	0.7939	0.4743	0.026
Mof_H 	H 	0.0516	0.8439	0.4199	0.08
Mof_H 	H 	0.9367	0.7921	0.3069	0.071
Mof_H 	H 	0.8291	0.742	0.3614	0.029
Mof_H 	H 	0.8362	0.4087	0.3653	0.15
Mof_H 	H 	0.803	0.3673	0.3983	0.167
Mof_H 	H 	0.0243	0.5345	0.3711	-0.005
Mof_H 	H 	0.032	0.3705	0.5267	-0.03
Mof_H 	H 	0.6763	0.1706	0.1732	0.035
Mof_H 	H 	0.6995	0.2409	0.2109	0.061
Mof_H 	H 	0.0417	0.2307	0.1265	0.076
Mof_H 	H 	0.0185	0.1605	0.0889	0.033
Mof_H 	H 	0.7759	0.2768	0.2612	0.061
Mof_H 	H 	0.7804	0.3502	0.298	0.037
Mof_H 	H 	0.0053	0.3868	0.1752	0.031
Mof_H 	H 	0.0008	0.3135	0.1383	0.073
Mof_H 	H 	0.2123	0.2061	0.5257	0.025
Mof_H 	H 	0.3154	0.1561	0.5801	0.077
Mof_H 	H 	0.0357	0.2079	0.6931	0.068
Mof_H 	H 	0.9325	0.258	0.6386	0.031
Mof_H 	H 	0.4515	0.1347	0.9087	0.15
Mof_H 	H 	0.4513	0.1017	0.8673	0.167
Mof_H 	H 	0.6454	0.1289	0.0345	0.004
Mof_H 	H 	0.8087	0.9733	0.8705	-0.008
Mof_H 	H 	0.0995	0.3268	0.6706	0.035
Mof_H 	H 	0.1604	0.2891	0.7409	0.061
Mof_H 	H 	0.4182	0.3735	0.7307	0.078
Mof_H 	H 	0.3574	0.4111	0.6605	0.037
Mof_H 	H 	0.2871	0.2388	0.7768	0.061
Mof_H 	H 	0.3284	0.202	0.8502	0.037
Mof_H 	H 	0.4305	0.3248	0.8868	0.037
Mof_H 	H 	0.3891	0.3617	0.8135	0.076
Mof_H 	H 	0.988	0.9743	0.7061	0.03
Mof_H 	H 	0.1455	0.9199	0.6561	0.081
Mof_H 	H 	0.9788	0.8069	0.7079	0.07
Mof_H 	H 	0.8211	0.8614	0.758	0.03
Mof_H 	H 	0.4949	0.8653	0.0913	0.15
Mof_H 	H 	0.4203	0.8983	0.1327	0.168
Mof_H 	H 	0.8088	0.8711	0.9655	-0.014
Mof_H 	H 	0.6525	0.0267	0.1295	-0.052
Mof_H 	H 	0.0969	0.6732	0.3294	0.035
Mof_H 	H 	0.1904	0.7109	0.2591	0.061
Mof_H 	H 	0.5224	0.6265	0.2693	0.078
Mof_H 	H 	0.429	0.5889	0.3395	0.037
Mof_H 	H 	0.3027	0.7612	0.2232	0.062
Mof_H 	H 	0.3806	0.798	0.1498	0.036
Mof_H 	H 	0.6421	0.6752	0.1132	0.032
Mof_H 	H 	0.5643	0.6383	0.1865	0.076
Mof_H 	H 	0.6684	0.0257	0.2939	0.021
Mof_H 	H 	0.7215	0.0801	0.3439	0.077
Mof_H 	H 	0.4936	0.1931	0.2921	0.071
Mof_H 	H 	0.4405	0.1386	0.242	0.027
Mof_C 	C 	0.2348	0.1112	0.9944	0.099
Mof_C 	C 	0.2148	0.0541	0.0455	0.114
Mof_C 	C 	0.2346	0.0007	0.1105	0.058
Mof_C 	C 	0.338	0.0733	0.0953	0.076
Mof_C 	C 	0.2855	0.0851	0.0589	-0.022
Mof_C 	C 	0.4285	0.3983	0.3853	0.361
Mof_C 	C 	0.5005	0.3361	0.3173	0.03
Mof_C 	C 	0.4866	0.3136	0.2752	-0.1
Mof_C 	C 	0.3771	0.3276	0.2572	0.044
Mof_C 	C 	0.2816	0.3641	0.2813	-0.105
Mof_C 	C 	0.2954	0.3867	0.3235	0.036
Mof_C 	C 	0.4049	0.3726	0.3414	-0.101
Mof_C 	C 	0.4281	0.2561	0.2011	-0.101
Mof_C 	C 	0.4255	0.2339	0.1571	0.032
Mof_C 	C 	0.3568	0.2596	0.1242	-0.104
Mof_C 	C 	0.2907	0.3076	0.1352	0.034
Mof_C 	C 	0.2934	0.3297	0.1791	-0.105
Mof_C 	C 	0.362	0.304	0.2122	0.043
Mof_C 	C 	0.3542	0.2364	0.0754	0.357
Mof_C 	C 	0.2636	0.9539	0.2305	0.392
Mof_C 	C 	0.0728	0.9408	0.2936	0.062
Mof_C 	C 	0.0113	0.9081	0.3235	-0.123
Mof_C 	C 	0.0645	0.858	0.323	0.052
Mof_C 	C 	0.1785	0.8405	0.2925	-0.117
Mof_C 	C 	0.2407	0.8731	0.2625	0.052
Mof_C 	C 	0.1878	0.9232	0.263	-0.132
Mof_C 	C 	0.3404	0.8888	0.0056	0.03
Mof_C 	C 	0.3144	0.9459	0.9545	0.124
Mof_C 	C 	0.3458	0.9993	0.8895	0.129
Mof_C 	C 	0.5066	0.9267	0.9047	0.084
Mof_C 	C 	0.4295	0.9149	0.9411	-0.016
Mof_C 	C 	0.2121	0.6017	0.6147	0.36
Mof_C 	C 	0.1539	0.6639	0.6827	0.029
Mof_C 	C 	0.0754	0.6864	0.7248	-0.1
Mof_C 	C 	0.9619	0.6724	0.7428	0.044
Mof_C 	C 	0.927	0.6359	0.7187	-0.098
Mof_C 	C 	0.0056	0.6133	0.6765	0.025
Mof_C 	C 	0.1189	0.6274	0.6586	-0.098
Mof_C 	C 	0.8853	0.7439	0.7989	-0.098
Mof_C 	C 	0.8165	0.7661	0.8429	0.031
Mof_C 	C 	0.7406	0.7404	0.8758	-0.099
Mof_C 	C 	0.7335	0.6924	0.8648	0.033
Mof_C 	C 	0.8022	0.6703	0.8209	-0.102
Mof_C 	C 	0.8782	0.696	0.7878	0.043
Mof_C 	C 	0.666	0.7636	0.9246	0.355
Mof_C 	C 	0.448	0.0461	0.7695	0.395
Mof_C 	C 	0.3072	0.0592	0.7064	0.06
Mof_C 	C 	0.2429	0.0919	0.6765	-0.123
Mof_C 	C 	0.2455	0.142	0.677	0.051
Mof_C 	C 	0.3115	0.1595	0.7075	-0.119
Mof_C 	C 	0.3763	0.1269	0.7375	0.053
Mof_C 	C 	0.374	0.0768	0.737	-0.138
Mof_C 	C 	0.4792	0.5056	0.6112	0.066
Mof_C 	C 	0.5103	0.4545	0.5541	0.118
Mof_C 	C 	0.5951	0.3895	0.5007	0.092
Mof_C 	C 	0.6833	0.4047	0.5733	0.08
Mof_C 	C 	0.5944	0.4411	0.5851	-0.019
Mof_C 	C 	0.0638	0.1147	0.8983	0.352
Mof_C 	C 	0.0678	0.1827	0.8361	0.024
Mof_C 	C 	0.0118	0.2248	0.8136	-0.099
Mof_C 	C 	0.8843	0.2428	0.8276	0.045
Mof_C 	C 	0.8129	0.2187	0.8641	-0.101
Mof_C 	C 	0.8689	0.1765	0.8867	0.031
Mof_C 	C 	0.9963	0.1586	0.8726	-0.092
Mof_C 	C 	0.8792	0.2989	0.7561	-0.099
Mof_C 	C 	0.8326	0.3429	0.7339	0.032
Mof_C 	C 	0.731	0.3758	0.7596	-0.101
Mof_C 	C 	0.6759	0.3648	0.8076	0.034
Mof_C 	C 	0.7225	0.3209	0.8297	-0.103
Mof_C 	C 	0.8242	0.2878	0.804	0.044
Mof_C 	C 	0.6796	0.4246	0.7364	0.356
Mof_C 	C 	0.7441	0.2695	0.4539	0.393
Mof_C 	C 	0.6164	0.2064	0.4408	0.058
Mof_C 	C 	0.5848	0.1765	0.4081	-0.119
Mof_C 	C 	0.6375	0.177	0.358	0.049
Mof_C 	C 	0.721	0.2075	0.3405	-0.116
Mof_C 	C 	0.7532	0.2375	0.3731	0.05
Mof_C 	C 	0.7008	0.237	0.4232	-0.134
Mof_C 	C 	0.596	0.4944	0.3888	0.066
Mof_C 	C 	0.5189	0.5455	0.4459	0.118
Mof_C 	C 	0.4853	0.6105	0.4993	0.092
Mof_C 	C 	0.6613	0.5953	0.4267	0.08
Mof_C 	C 	0.6206	0.5589	0.4149	-0.019
Mof_C 	C 	0.0768	0.8853	0.1017	0.363
Mof_C 	C 	0.0866	0.8173	0.1639	0.035
Mof_C 	C 	0.0502	0.7752	0.1864	-0.106
Mof_C 	C 	0.9547	0.7572	0.1724	0.05
Mof_C 	C 	0.8957	0.7813	0.1359	-0.111
Mof_C 	C 	0.9321	0.8235	0.1133	0.042
Mof_C 	C 	0.0275	0.8414	0.1274	-0.107
Mof_C 	C 	0.9342	0.7011	0.2439	-0.097
Mof_C 	C 	0.9094	0.6571	0.2661	0.03
Mof_C 	C 	0.8664	0.6242	0.2404	-0.1
Mof_C 	C 	0.8483	0.6352	0.1924	0.032
Mof_C 	C 	0.8731	0.6791	0.1703	-0.101
Mof_C 	C 	0.916	0.7122	0.196	0.04
Mof_C 	C 	0.8406	0.5754	0.2636	0.356
Mof_C 	C 	0.4675	0.7305	0.5461	0.394
Mof_C 	C 	0.2636	0.7936	0.5592	0.06
Mof_C 	C 	0.1694	0.8235	0.5919	-0.121
Mof_C 	C 	0.1725	0.823	0.642	0.052
Mof_C 	C 	0.269	0.7925	0.6595	-0.117
Mof_C 	C 	0.3638	0.7625	0.6269	0.052
Mof_C 	C 	0.361	0.763	0.5768	-0.134
Mof_C 	C 	0.9096	0.4944	0.6112	0.066
Mof_C 	C 	0.9356	0.5455	0.5541	0.119
Mof_C 	C 	0.9042	0.6105	0.5007	0.093
Mof_C 	C 	0.7434	0.5953	0.5733	0.08
Mof_C 	C 	0.8205	0.5589	0.5851	-0.019
Mof_C 	C 	0.0379	0.8853	0.8983	0.357
Mof_C 	C 	0.0961	0.8173	0.8361	0.029
Mof_C 	C 	0.1746	0.7752	0.8136	-0.098
Mof_C 	C 	0.2881	0.7572	0.8276	0.043
Mof_C 	C 	0.323	0.7813	0.8641	-0.102
Mof_C 	C 	0.2444	0.8235	0.8867	0.034
Mof_C 	C 	0.1311	0.8414	0.8726	-0.098
Mof_C 	C 	0.3647	0.7011	0.7561	-0.099
Mof_C 	C 	0.4335	0.6571	0.7339	0.031
Mof_C 	C 	0.5094	0.6242	0.7596	-0.101
Mof_C 	C 	0.5165	0.6352	0.8076	0.034
Mof_C 	C 	0.4478	0.6791	0.8297	-0.103
Mof_C 	C 	0.3718	0.7122	0.804	0.044
Mof_C 	C 	0.584	0.5754	0.7364	0.356
Mof_C 	C 	0.802	0.7305	0.4539	0.394
Mof_C 	C 	0.9428	0.7936	0.4408	0.062
Mof_C 	C 	0.0071	0.8235	0.4081	-0.122
Mof_C 	C 	0.0045	0.823	0.358	0.048
Mof_C 	C 	0.9385	0.7925	0.3405	-0.114
Mof_C 	C 	0.8737	0.7625	0.3731	0.051
Mof_C 	C 	0.876	0.763	0.4232	-0.134
Mof_C 	C 	0.0152	0.5056	0.3888	0.063
Mof_C 	C 	0.0352	0.4545	0.4459	0.115
Mof_C 	C 	0.0154	0.3895	0.4993	0.089
Mof_C 	C 	0.912	0.4047	0.4267	0.079
Mof_C 	C 	0.9645	0.4411	0.4149	-0.015
Mof_C 	C 	0.8215	0.1147	0.1017	0.361
Mof_C 	C 	0.7495	0.1827	0.1639	0.031
Mof_C 	C 	0.7634	0.2248	0.1864	-0.101
Mof_C 	C 	0.8729	0.2428	0.1724	0.044
Mof_C 	C 	0.9684	0.2187	0.1359	-0.105
Mof_C 	C 	0.9546	0.1765	0.1133	0.038
Mof_C 	C 	0.8451	0.1586	0.1274	-0.104
Mof_C 	C 	0.8219	0.2989	0.2439	-0.099
Mof_C 	C 	0.8245	0.3429	0.2661	0.031
Mof_C 	C 	0.8932	0.3758	0.2404	-0.102
Mof_C 	C 	0.9593	0.3648	0.1924	0.036
Mof_C 	C 	0.9566	0.3209	0.1703	-0.101
Mof_C 	C 	0.888	0.2878	0.196	0.042
Mof_C 	C 	0.8958	0.4246	0.2636	0.356
Mof_C 	C 	0.9864	0.2695	0.5461	0.398
Mof_C 	C 	0.1772	0.2064	0.5592	0.058
Mof_C 	C 	0.2387	0.1765	0.5919	-0.119
Mof_C 	C 	0.1855	0.177	0.642	0.047
Mof_C 	C 	0.0715	0.2075	0.6595	-0.114
Mof_C 	C 	0.0093	0.2375	0.6269	0.045
Mof_C 	C 	0.0622	0.237	0.5768	-0.135
Mof_C 	C 	0.654	0.1112	0.0056	0.029
Mof_C 	C 	0.7311	0.0541	0.9545	0.116
Mof_C 	C 	0.7647	0.0007	0.8895	0.058
Mof_C 	C 	0.5887	0.0733	0.9047	0.076
Mof_C 	C 	0.6294	0.0851	0.9411	-0.013
Mof_C 	C 	0.1732	0.3983	0.6147	0.361
Mof_C 	C 	0.1634	0.3361	0.6827	0.031
Mof_C 	C 	0.1998	0.3136	0.7248	-0.101
Mof_C 	C 	0.2953	0.3276	0.7428	0.045
Mof_C 	C 	0.3543	0.3641	0.7187	-0.106
Mof_C 	C 	0.3179	0.3867	0.6765	0.037
Mof_C 	C 	0.2225	0.3726	0.6586	-0.102
Mof_C 	C 	0.3158	0.2561	0.7989	-0.098
Mof_C 	C 	0.3406	0.2339	0.8429	0.03
Mof_C 	C 	0.3836	0.2596	0.8758	-0.099
Mof_C 	C 	0.4017	0.3076	0.8648	0.032
Mof_C 	C 	0.3769	0.3297	0.8209	-0.101
Mof_C 	C 	0.334	0.304	0.7878	0.042
Mof_C 	C 	0.4094	0.2364	0.9246	0.355
Mof_C 	C 	0.7825	0.9539	0.7695	0.392
Mof_C 	C 	0.9864	0.9408	0.7064	0.061
Mof_C 	C 	0.0806	0.9081	0.6765	-0.12
Mof_C 	C 	0.0775	0.858	0.677	0.048
Mof_C 	C 	0.981	0.8405	0.7075	-0.112
Mof_C 	C 	0.8862	0.8731	0.7375	0.049
Mof_C 	C 	0.889	0.9232	0.737	-0.13
Mof_C 	C 	0.7708	0.8888	0.9944	0.105
Mof_C 	C 	0.7397	0.9459	0.0455	0.121
Mof_C 	C 	0.6549	0.9993	0.1105	0.126
Mof_C 	C 	0.5667	0.9267	0.0953	0.085
Mof_C 	C 	0.6556	0.9149	0.0589	-0.026
Mof_C 	C 	0.1862	0.6017	0.3853	0.361
Mof_C 	C 	0.1822	0.6639	0.3173	0.03
Mof_C 	C 	0.2382	0.6864	0.2752	-0.1
Mof_C 	C 	0.3657	0.6724	0.2572	0.044
Mof_C 	C 	0.4371	0.6359	0.2813	-0.105
Mof_C 	C 	0.3811	0.6133	0.3235	0.036
Mof_C 	C 	0.2537	0.6274	0.3414	-0.102
Mof_C 	C 	0.3708	0.7439	0.2011	-0.1
Mof_C 	C 	0.4174	0.7661	0.1571	0.032
Mof_C 	C 	0.519	0.7404	0.1242	-0.104
Mof_C 	C 	0.5741	0.6924	0.1352	0.034
Mof_C 	C 	0.5275	0.6703	0.1791	-0.105
Mof_C 	C 	0.4258	0.696	0.2122	0.044
Mof_C 	C 	0.5704	0.7636	0.0754	0.357
Mof_C 	C 	0.5059	0.0461	0.2305	0.395
Mof_C 	C 	0.6336	0.0592	0.2936	0.06
Mof_C 	C 	0.6652	0.0919	0.3235	-0.122
Mof_C 	C 	0.6125	0.142	0.323	0.051
Mof_C 	C 	0.529	0.1595	0.2925	-0.118
Mof_C 	C 	0.4968	0.1269	0.2625	0.052
Mof_C 	C 	0.5492	0.0768	0.263	-0.137
Mof_N 	N 	0.1832	0.0718	0.0058	-0.313
Mof_N 	N 	0.1834	0.0129	0.0699	-0.295
Mof_N 	N 	0.306	0.0273	0.1227	-0.258
Mof_N 	N 	0.3041	0.1256	0.0272	-0.25
Mof_N 	N 	0.40941	0.10799	0.10819	-0.308
Mof_N 	N 	0.2608	0.9282	0.9942	-0.278
Mof_N 	N 	0.2662	0.9871	0.9301	-0.293
Mof_N 	N 	0.456	0.9727	0.8773	-0.262
Mof_N 	N 	0.4569	0.8744	0.9728	-0.224
Mof_N 	N 	0.62559	0.89201	0.89181	-0.308
Mof_N 	N 	0.439	0.4942	0.5718	-0.296
Mof_N 	N 	0.5033	0.4301	0.5129	-0.294
Mof_N 	N 	0.6787	0.3773	0.5273	-0.26
Mof_N 	N 	0.5813	0.4728	0.6256	-0.238
Mof_N 	N 	0.7676	0.39181	0.60799	-0.308
Mof_N 	N 	0.505	0.5058	0.4282	-0.296
Mof_N 	N 	0.4463	0.5699	0.4871	-0.294
Mof_N 	N 	0.5833	0.6227	0.4727	-0.26
Mof_N 	N 	0.6797	0.5272	0.3744	-0.238
Mof_N 	N 	0.7674	0.60819	0.39201	-0.308
Mof_N 	N 	0.9892	0.5058	0.5718	-0.295
Mof_N 	N 	0.9838	0.5699	0.5129	-0.294
Mof_N 	N 	0.794	0.6227	0.5273	-0.26
Mof_N 	N 	0.7931	0.5272	0.6256	-0.238
Mof_N 	N 	0.62441	0.60819	0.60799	-0.308
Mof_N 	N 	0.0668	0.4942	0.4282	-0.296
Mof_N 	N 	0.0666	0.4301	0.4871	-0.294
Mof_N 	N 	0.944	0.3773	0.4727	-0.259
Mof_N 	N 	0.9459	0.4728	0.3744	-0.238
Mof_N 	N 	0.84059	0.39181	0.39201	-0.307
Mof_N 	N 	0.745	0.0718	0.9942	-0.28
Mof_N 	N 	0.8037	0.0129	0.9301	-0.291
Mof_N 	N 	0.6667	0.0273	0.8773	-0.257
Mof_N 	N 	0.5703	0.1256	0.9728	-0.225
Mof_N 	N 	0.4826	0.10799	0.89181	-0.307
Mof_N 	N 	0.811	0.9282	0.0058	-0.311
Mof_N 	N 	0.7467	0.9871	0.0699	-0.296
Mof_N 	N 	0.5713	0.9727	0.1227	-0.262
Mof_N 	N 	0.6687	0.8744	0.0272	-0.25
Mof_N 	N 	0.4824	0.89201	0.10819	-0.308
Mof_O 	O 	0.5315	0.3902	0.3934	-0.361
Mof_O 	O 	0.3373	0.4302	0.4064	-0.501
Mof_O 	O 	0.4413	0.1999	0.0597	-0.475
Mof_O 	O 	0.2715	0.25	0.0532	-0.346
Mof_O 	O 	0.3473	0.9397	0.1977	-0.477
Mof_O 	O 	0.2367	0.9994	0.242	-0.339
Mof_O 	O 	0.3151	0.6098	0.6066	-0.36
Mof_O 	O 	0.1739	0.5698	0.5936	-0.501
Mof_O 	O 	0.7009	0.8001	0.9403	-0.465
Mof_O 	O 	0.5747	0.75	0.9468	-0.334
Mof_O 	O 	0.4847	0.0603	0.8023	-0.485
Mof_O 	O 	0.4781	0.0006	0.758	-0.358
Mof_O 	O 	0.1749	0.1066	0.8902	-0.358
Mof_O 	O 	0.9937	0.0936	0.9302	-0.494
Mof_O 	O 	0.751	0.4403	0.6999	-0.471
Mof_O 	O 	0.5747	0.4468	0.75	-0.34
Mof_O 	O 	0.795	0.3023	0.4397	-0.482
Mof_O 	O 	0.7287	0.258	0.4994	-0.349
Mof_O 	O 	0.1717	0.8934	0.1098	-0.361
Mof_O 	O 	0.0175	0.9064	0.0698	-0.502
Mof_O 	O 	0.8912	0.5597	0.3001	-0.471
Mof_O 	O 	0.7715	0.5532	0.25	-0.341
Mof_O 	O 	0.537	0.6977	0.5603	-0.482
Mof_O 	O 	0.4861	0.742	0.5006	-0.348
Mof_O 	O 	0.9349	0.8934	0.8902	-0.355
Mof_O 	O 	0.0761	0.9064	0.9302	-0.494
Mof_O 	O 	0.5491	0.5597	0.6999	-0.471
Mof_O 	O 	0.6753	0.5532	0.75	-0.34
Mof_O 	O 	0.7653	0.6977	0.4397	-0.482
Mof_O 	O 	0.7719	0.742	0.4994	-0.348
Mof_O 	O 	0.7185	0.1066	0.1098	-0.363
Mof_O 	O 	0.9127	0.0936	0.0698	-0.504
Mof_O 	O 	0.8087	0.4403	0.3001	-0.471
Mof_O 	O 	0.9785	0.4468	0.25	-0.341
Mof_O 	O 	0.9027	0.3023	0.5603	-0.483
Mof_O 	O 	0.0133	0.258	0.5006	-0.352
Mof_O 	O 	0.0783	0.3902	0.6066	-0.362
Mof_O 	O 	0.2325	0.4302	0.5936	-0.501
Mof_O 	O 	0.3588	0.1999	0.9403	-0.465
Mof_O 	O 	0.4785	0.25	0.9468	-0.334
Mof_O 	O 	0.713	0.9397	0.8023	-0.476
Mof_O 	O 	0.7639	0.9994	0.758	-0.338
Mof_O 	O 	0.0751	0.6098	0.3934	-0.362
Mof_O 	O 	0.2563	0.5698	0.4064	-0.501
Mof_O 	O 	0.499	0.8001	0.0597	-0.475
Mof_O 	O 	0.6753	0.75	0.0532	-0.346
Mof_O 	O 	0.455	0.0603	0.1977	-0.485
Mof_O 	O 	0.5213	0.0006	0.242	-0.357
Mof_O 	O 	0.25	0.5	0.5	-0.976
Mof_O 	O 	-0	0	-0	-0.998
_end
