data_functionalizedCrystal
_audit_creation_method	'EQeq! by Chris Wilmer'
_symmetry_space_group_name_H-M	'P1'
_symmetry_Int_Tables_number	1
_symmetry_cell_setting	triclinic
loop_
_symmetry_equiv_pos_as_xyz
  x,y,z
_cell_length_a	19.131
_cell_length_b	19.226
_cell_length_c	7.1899
_cell_angle_alpha	90
_cell_angle_beta	90
_cell_angle_gamma	90
loop_
_atom_site_label
_atom_site_type_symbol
_atom_site_fract_x
_atom_site_fract_y
_atom_site_fract_z
_atom_site_charge
Mof_Cd	Cd	0.24558	0.3007	0.6633	0.462
Mof_Ca	Ca	0.23236	0.35977	0.13047	1.24
Mof_O 	O 	0.1784	0.27732	0.937	-0.394
Mof_O 	O 	0.12309	0.26548	0.6718	-0.29
Mof_O 	O 	0.8756	0.19225	0.6642	-0.294
Mof_O 	O 	0.81998	0.17453	0.9244	-0.402
Mof_O 	O 	0.25726	0.26842	0.3334	-0.448
Mof_O 	O 	0.26508	0.19069	0.5548	-0.307
Mof_O 	O 	0.27879	0.90944	0.1016	-0.399
Mof_O 	O 	0.28972	0.93879	0.399	-0.48
Mof_C 	C 	0.1245	0.26141	0.846	0.334
Mof_C 	C 	0.8757	0.18719	0.8353	0.349
Mof_C 	C 	0.06203	0.23579	0.9488	-0.049
Mof_C 	C 	0.06326	0.22639	0.1401	-0.062
Mof_H 	H 	0.1042	0.2349	0.2061	0.037
Mof_C 	C 	0.0042	0.2045	0.2331	-0.041
Mof_H 	H 	0.0054	0.1986	0.3614	0.053
Mof_C 	C 	0.9436	0.19158	0.1359	-0.051
Mof_H 	H 	0.9037	0.1774	0.1995	0.029
Mof_C 	C 	0.9413	0.19948	0.9441	-0.051
Mof_C 	C 	0.00105	0.22123	0.8523	-0.001
Mof_H 	H 	0.0002	0.2262	0.7236	0.052
Mof_C 	C 	0.2669	0.20635	0.3869	0.398
Mof_C 	C 	0.2863	0.953	0.2317	0.449
Mof_C 	C 	0.2812	0.15049	0.2488	-0.19
Mof_C 	C 	0.2961	0.1655	0.0651	0.075
Mof_H 	H 	0.2971	0.2117	0.0272	-0.005
Mof_C 	C 	0.3096	0.11411	0.9358	-0.16
Mof_H 	H 	0.3209	0.1257	0.8139	0.108
Mof_C 	C 	0.3061	0.04527	0.99	0.178
Mof_H 	H 	0.3139	0.0102	0.9032	-0.047
Mof_C 	C 	0.29099	0.02788	0.1747	-0.258
Mof_C 	C 	0.2797	0.08034	0.3025	0.138
Mof_H 	H 	0.2709	0.069	0.426	-0.007
Mof_Cd	Cd	0.75442	0.6993	0.1633	0.446
Mof_Ca	Ca	0.76764	0.64023	0.63047	1.344
Mof_O 	O 	0.8216	0.72268	0.437	-0.436
Mof_O 	O 	0.87691	0.73452	0.1718	-0.316
Mof_O 	O 	0.1244	0.80775	0.1642	-0.321
Mof_O 	O 	0.18002	0.82547	0.4244	-0.443
Mof_O 	O 	0.74274	0.73158	0.8334	-0.452
Mof_O 	O 	0.73492	0.80931	0.0548	-0.349
Mof_O 	O 	0.72121	0.09056	0.6016	-0.378
Mof_O 	O 	0.71028	0.06121	0.899	-0.449
Mof_C 	C 	0.8755	0.73859	0.346	0.388
Mof_C 	C 	0.1243	0.81281	0.3353	0.403
Mof_C 	C 	0.93797	0.76421	0.4488	-0.199
Mof_C 	C 	0.93674	0.77361	0.6401	0.125
Mof_H 	H 	0.8958	0.7651	0.7061	-0.016
Mof_C 	C 	0.9958	0.7955	0.7331	-0.202
Mof_H 	H 	0.9946	0.8014	0.8614	0.123
Mof_C 	C 	0.0564	0.80842	0.6359	0.134
Mof_H 	H 	0.0963	0.8226	0.6995	-0.023
Mof_C 	C 	0.0587	0.80052	0.4441	-0.203
Mof_C 	C 	0.99895	0.77877	0.3523	0.124
Mof_H 	H 	0.9998	0.7738	0.2236	0.001
Mof_C 	C 	0.7331	0.79365	0.8869	0.456
Mof_C 	C 	0.7137	0.047	0.7317	0.433
Mof_C 	C 	0.7188	0.84951	0.7488	-0.216
Mof_C 	C 	0.7039	0.8345	0.5651	0.153
Mof_H 	H 	0.7029	0.7883	0.5272	-0.016
Mof_C 	C 	0.6904	0.88589	0.4358	-0.223
Mof_H 	H 	0.6791	0.8743	0.3139	0.121
Mof_C 	C 	0.6939	0.95473	0.49	0.146
Mof_H 	H 	0.6861	0.9898	0.4032	-0.048
Mof_C 	C 	0.70901	0.97212	0.6747	-0.217
Mof_C 	C 	0.7203	0.91966	0.8025	0.144
Mof_H 	H 	0.7291	0.931	0.926	0.002
Mof_Cd	Cd	0.74558	0.1993	0.6633	0.461
Mof_Ca	Ca	0.73236	0.14023	0.13047	1.238
Mof_O 	O 	0.6784	0.22268	0.937	-0.394
Mof_O 	O 	0.62309	0.23452	0.6718	-0.29
Mof_O 	O 	0.3756	0.30775	0.6642	-0.294
Mof_O 	O 	0.31998	0.32547	0.9244	-0.403
Mof_O 	O 	0.75726	0.23158	0.3334	-0.448
Mof_O 	O 	0.76508	0.30931	0.5548	-0.307
Mof_O 	O 	0.77879	0.59056	0.1016	-0.398
Mof_O 	O 	0.78972	0.56121	0.399	-0.48
Mof_C 	C 	0.6245	0.23859	0.846	0.334
Mof_C 	C 	0.3757	0.31281	0.8353	0.349
Mof_C 	C 	0.56203	0.26421	0.9488	-0.048
Mof_C 	C 	0.56326	0.27361	0.1401	-0.062
Mof_H 	H 	0.6042	0.2651	0.2061	0.037
Mof_C 	C 	0.5042	0.2955	0.2331	-0.04
Mof_H 	H 	0.5054	0.3014	0.3614	0.053
Mof_C 	C 	0.4436	0.30842	0.1359	-0.052
Mof_H 	H 	0.4037	0.3226	0.1995	0.029
Mof_C 	C 	0.4413	0.30052	0.9441	-0.052
Mof_C 	C 	0.50105	0.27877	0.8523	-0.001
Mof_H 	H 	0.5002	0.2738	0.7236	0.052
Mof_C 	C 	0.7669	0.29365	0.3869	0.398
Mof_C 	C 	0.7863	0.547	0.2317	0.448
Mof_C 	C 	0.7812	0.34951	0.2488	-0.189
Mof_C 	C 	0.7961	0.3345	0.0651	0.075
Mof_H 	H 	0.7971	0.2883	0.0272	-0.005
Mof_C 	C 	0.8096	0.38589	0.9358	-0.16
Mof_H 	H 	0.8209	0.3743	0.8139	0.107
Mof_C 	C 	0.8061	0.45473	0.99	0.175
Mof_H 	H 	0.8139	0.4898	0.9032	-0.047
Mof_C 	C 	0.79099	0.47212	0.1747	-0.256
Mof_C 	C 	0.7797	0.41966	0.3025	0.137
Mof_H 	H 	0.7709	0.431	0.426	-0.006
Mof_Cd	Cd	0.25442	0.8007	0.1633	0.446
Mof_Ca	Ca	0.26764	0.85977	0.63047	1.343
Mof_O 	O 	0.3216	0.77732	0.437	-0.436
Mof_O 	O 	0.37691	0.76548	0.1718	-0.316
Mof_O 	O 	0.6244	0.69225	0.1642	-0.321
Mof_O 	O 	0.68002	0.67453	0.4244	-0.443
Mof_O 	O 	0.24274	0.76842	0.8334	-0.452
Mof_O 	O 	0.23492	0.69069	0.0548	-0.349
Mof_O 	O 	0.22121	0.40944	0.6016	-0.378
Mof_O 	O 	0.21028	0.43879	0.899	-0.449
Mof_C 	C 	0.3755	0.76141	0.346	0.388
Mof_C 	C 	0.6243	0.68719	0.3353	0.403
Mof_C 	C 	0.43797	0.73579	0.4488	-0.199
Mof_C 	C 	0.43674	0.72639	0.6401	0.126
Mof_H 	H 	0.3958	0.7349	0.7061	-0.016
Mof_C 	C 	0.4958	0.7045	0.7331	-0.204
Mof_H 	H 	0.4946	0.6986	0.8614	0.124
Mof_C 	C 	0.5564	0.69158	0.6359	0.136
Mof_H 	H 	0.5963	0.6774	0.6995	-0.024
Mof_C 	C 	0.5587	0.69948	0.4441	-0.202
Mof_C 	C 	0.49895	0.72123	0.3523	0.123
Mof_H 	H 	0.4998	0.7262	0.2236	0.001
Mof_C 	C 	0.2331	0.70635	0.8869	0.456
Mof_C 	C 	0.2137	0.453	0.7317	0.432
Mof_C 	C 	0.2188	0.65049	0.7488	-0.215
Mof_C 	C 	0.2039	0.6655	0.5651	0.152
Mof_H 	H 	0.2029	0.7117	0.5272	-0.015
Mof_C 	C 	0.1904	0.61411	0.4358	-0.223
Mof_H 	H 	0.1791	0.6257	0.3139	0.12
Mof_C 	C 	0.1939	0.54527	0.49	0.145
Mof_H 	H 	0.1861	0.5102	0.4032	-0.048
Mof_C 	C 	0.20901	0.52788	0.6747	-0.215
Mof_C 	C 	0.2203	0.58034	0.8025	0.144
Mof_H 	H 	0.2291	0.569	0.926	0.003
_end
