data_functionalizedCrystal
_audit_creation_method	'EQeq! by Chris Wilmer'
_symmetry_space_group_name_H-M	'P1'
_symmetry_Int_Tables_number	1
_symmetry_cell_setting	triclinic
loop_
_symmetry_equiv_pos_as_xyz
  x,y,z
_cell_length_a	26.3048
_cell_length_b	26.3048
_cell_length_c	26.3048
_cell_angle_alpha	90
_cell_angle_beta	90
_cell_angle_gamma	90
loop_
_atom_site_label
_atom_site_type_symbol
_atom_site_fract_x
_atom_site_fract_y
_atom_site_fract_z
_atom_site_charge
Mof_O 	O 	0.24351	0.3166	0.05236	-0.424
Mof_O 	O 	0.24351	0.8166	0.55236	-0.402
Mof_O 	O 	0.74351	0.3166	0.55236	-0.404
Mof_O 	O 	0.74351	0.8166	0.05236	-0.415
Mof_O 	O 	0.75649	0.6834	0.05236	-0.421
Mof_O 	O 	0.75649	0.1834	0.55236	-0.409
Mof_O 	O 	0.25649	0.6834	0.55236	-0.408
Mof_O 	O 	0.25649	0.1834	0.05236	-0.43
Mof_O 	O 	0.75649	0.3166	0.94764	-0.372
Mof_O 	O 	0.75649	0.8166	0.44764	-0.399
Mof_O 	O 	0.25649	0.3166	0.44764	-0.408
Mof_O 	O 	0.25649	0.8166	0.94764	-0.37
Mof_O 	O 	0.24351	0.6834	0.94764	-0.375
Mof_O 	O 	0.24351	0.1834	0.44764	-0.412
Mof_O 	O 	0.74351	0.6834	0.44764	-0.403
Mof_O 	O 	0.74351	0.1834	0.94764	-0.376
Mof_O 	O 	0.05236	0.24351	0.3166	-0.424
Mof_O 	O 	0.05236	0.74351	0.8166	-0.415
Mof_O 	O 	0.55236	0.24351	0.8166	-0.402
Mof_O 	O 	0.55236	0.74351	0.3166	-0.404
Mof_O 	O 	0.05236	0.75649	0.6834	-0.421
Mof_O 	O 	0.05236	0.25649	0.1834	-0.431
Mof_O 	O 	0.55236	0.75649	0.1834	-0.41
Mof_O 	O 	0.55236	0.25649	0.6834	-0.409
Mof_O 	O 	0.94764	0.75649	0.3166	-0.373
Mof_O 	O 	0.94764	0.25649	0.8166	-0.371
Mof_O 	O 	0.44764	0.75649	0.8166	-0.4
Mof_O 	O 	0.44764	0.25649	0.3166	-0.409
Mof_O 	O 	0.94764	0.24351	0.6834	-0.376
Mof_O 	O 	0.94764	0.74351	0.1834	-0.377
Mof_O 	O 	0.44764	0.24351	0.1834	-0.413
Mof_O 	O 	0.44764	0.74351	0.6834	-0.404
Mof_O 	O 	0.3166	0.05236	0.24351	-0.425
Mof_O 	O 	0.3166	0.55236	0.74351	-0.405
Mof_O 	O 	0.8166	0.05236	0.74351	-0.416
Mof_O 	O 	0.8166	0.55236	0.24351	-0.403
Mof_O 	O 	0.6834	0.05236	0.75649	-0.422
Mof_O 	O 	0.6834	0.55236	0.25649	-0.409
Mof_O 	O 	0.1834	0.05236	0.25649	-0.431
Mof_O 	O 	0.1834	0.55236	0.75649	-0.41
Mof_O 	O 	0.3166	0.94764	0.75649	-0.373
Mof_O 	O 	0.3166	0.44764	0.25649	-0.409
Mof_O 	O 	0.8166	0.94764	0.25649	-0.371
Mof_O 	O 	0.8166	0.44764	0.75649	-0.4
Mof_O 	O 	0.6834	0.94764	0.24351	-0.376
Mof_O 	O 	0.6834	0.44764	0.74351	-0.404
Mof_O 	O 	0.1834	0.94764	0.74351	-0.377
Mof_O 	O 	0.1834	0.44764	0.24351	-0.413
Mof_O 	O 	0.3166	0.24351	0.94764	-0.376
Mof_O 	O 	0.3166	0.74351	0.44764	-0.405
Mof_O 	O 	0.8166	0.24351	0.44764	-0.403
Mof_O 	O 	0.8166	0.74351	0.94764	-0.367
Mof_O 	O 	0.6834	0.75649	0.94764	-0.373
Mof_O 	O 	0.6834	0.25649	0.44764	-0.409
Mof_O 	O 	0.1834	0.75649	0.44764	-0.41
Mof_O 	O 	0.1834	0.25649	0.94764	-0.382
Mof_O 	O 	0.3166	0.75649	0.05236	-0.422
Mof_O 	O 	0.3166	0.25649	0.55236	-0.409
Mof_O 	O 	0.8166	0.75649	0.55236	-0.399
Mof_O 	O 	0.8166	0.25649	0.05236	-0.42
Mof_O 	O 	0.6834	0.24351	0.05236	-0.425
Mof_O 	O 	0.6834	0.74351	0.55236	-0.404
Mof_O 	O 	0.1834	0.24351	0.55236	-0.413
Mof_O 	O 	0.1834	0.74351	0.05236	-0.426
Mof_O 	O 	0.24351	0.05236	0.6834	-0.425
Mof_O 	O 	0.24351	0.55236	0.1834	-0.413
Mof_O 	O 	0.74351	0.05236	0.1834	-0.426
Mof_O 	O 	0.74351	0.55236	0.6834	-0.404
Mof_O 	O 	0.75649	0.05236	0.3166	-0.422
Mof_O 	O 	0.75649	0.55236	0.8166	-0.399
Mof_O 	O 	0.25649	0.05236	0.8166	-0.42
Mof_O 	O 	0.25649	0.55236	0.3166	-0.409
Mof_O 	O 	0.75649	0.94764	0.6834	-0.373
Mof_O 	O 	0.75649	0.44764	0.1834	-0.41
Mof_O 	O 	0.25649	0.94764	0.1834	-0.382
Mof_O 	O 	0.25649	0.44764	0.6834	-0.409
Mof_O 	O 	0.24351	0.94764	0.3166	-0.376
Mof_O 	O 	0.24351	0.44764	0.8166	-0.403
Mof_O 	O 	0.74351	0.94764	0.8166	-0.367
Mof_O 	O 	0.74351	0.44764	0.3166	-0.405
Mof_O 	O 	0.05236	0.3166	0.75649	-0.422
Mof_O 	O 	0.05236	0.8166	0.25649	-0.42
Mof_O 	O 	0.55236	0.3166	0.25649	-0.409
Mof_O 	O 	0.55236	0.8166	0.75649	-0.399
Mof_O 	O 	0.05236	0.6834	0.24351	-0.425
Mof_O 	O 	0.05236	0.1834	0.74351	-0.426
Mof_O 	O 	0.55236	0.6834	0.74351	-0.404
Mof_O 	O 	0.55236	0.1834	0.24351	-0.413
Mof_O 	O 	0.94764	0.3166	0.24351	-0.376
Mof_O 	O 	0.94764	0.8166	0.74351	-0.367
Mof_O 	O 	0.44764	0.3166	0.74351	-0.405
Mof_O 	O 	0.44764	0.8166	0.24351	-0.403
Mof_O 	O 	0.94764	0.6834	0.75649	-0.373
Mof_O 	O 	0.94764	0.1834	0.25649	-0.382
Mof_O 	O 	0.44764	0.6834	0.25649	-0.409
Mof_O 	O 	0.44764	0.1834	0.75649	-0.41
Mof_O 	O 	0.75649	0.6834	0.94764	-0.373
Mof_O 	O 	0.75649	0.1834	0.44764	-0.41
Mof_O 	O 	0.25649	0.6834	0.44764	-0.409
Mof_O 	O 	0.25649	0.1834	0.94764	-0.382
Mof_O 	O 	0.24351	0.3166	0.94764	-0.376
Mof_O 	O 	0.24351	0.8166	0.44764	-0.403
Mof_O 	O 	0.74351	0.3166	0.44764	-0.405
Mof_O 	O 	0.74351	0.8166	0.94764	-0.367
Mof_O 	O 	0.24351	0.6834	0.05236	-0.425
Mof_O 	O 	0.24351	0.1834	0.55236	-0.413
Mof_O 	O 	0.74351	0.6834	0.55236	-0.404
Mof_O 	O 	0.74351	0.1834	0.05236	-0.426
Mof_O 	O 	0.75649	0.3166	0.05236	-0.422
Mof_O 	O 	0.75649	0.8166	0.55236	-0.399
Mof_O 	O 	0.25649	0.3166	0.55236	-0.409
Mof_O 	O 	0.25649	0.8166	0.05236	-0.42
Mof_O 	O 	0.94764	0.75649	0.6834	-0.373
Mof_O 	O 	0.94764	0.25649	0.1834	-0.382
Mof_O 	O 	0.44764	0.75649	0.1834	-0.41
Mof_O 	O 	0.44764	0.25649	0.6834	-0.409
Mof_O 	O 	0.94764	0.24351	0.3166	-0.376
Mof_O 	O 	0.94764	0.74351	0.8166	-0.367
Mof_O 	O 	0.44764	0.24351	0.8166	-0.403
Mof_O 	O 	0.44764	0.74351	0.3166	-0.405
Mof_O 	O 	0.05236	0.24351	0.6834	-0.425
Mof_O 	O 	0.05236	0.74351	0.1834	-0.426
Mof_O 	O 	0.55236	0.24351	0.1834	-0.413
Mof_O 	O 	0.55236	0.74351	0.6834	-0.404
Mof_O 	O 	0.05236	0.75649	0.3166	-0.422
Mof_O 	O 	0.05236	0.25649	0.8166	-0.42
Mof_O 	O 	0.55236	0.75649	0.8166	-0.399
Mof_O 	O 	0.55236	0.25649	0.3166	-0.409
Mof_O 	O 	0.6834	0.94764	0.75649	-0.373
Mof_O 	O 	0.6834	0.44764	0.25649	-0.409
Mof_O 	O 	0.1834	0.94764	0.25649	-0.382
Mof_O 	O 	0.1834	0.44764	0.75649	-0.41
Mof_O 	O 	0.3166	0.94764	0.24351	-0.376
Mof_O 	O 	0.3166	0.44764	0.74351	-0.405
Mof_O 	O 	0.8166	0.94764	0.74351	-0.367
Mof_O 	O 	0.8166	0.44764	0.24351	-0.403
Mof_O 	O 	0.6834	0.05236	0.24351	-0.425
Mof_O 	O 	0.6834	0.55236	0.74351	-0.404
Mof_O 	O 	0.1834	0.05236	0.74351	-0.426
Mof_O 	O 	0.1834	0.55236	0.24351	-0.413
Mof_O 	O 	0.3166	0.05236	0.75649	-0.422
Mof_O 	O 	0.3166	0.55236	0.25649	-0.409
Mof_O 	O 	0.8166	0.05236	0.25649	-0.42
Mof_O 	O 	0.8166	0.55236	0.75649	-0.399
Mof_O 	O 	0.6834	0.75649	0.05236	-0.422
Mof_O 	O 	0.6834	0.25649	0.55236	-0.409
Mof_O 	O 	0.1834	0.75649	0.55236	-0.41
Mof_O 	O 	0.1834	0.25649	0.05236	-0.431
Mof_O 	O 	0.3166	0.24351	0.05236	-0.425
Mof_O 	O 	0.3166	0.74351	0.55236	-0.405
Mof_O 	O 	0.8166	0.24351	0.55236	-0.403
Mof_O 	O 	0.8166	0.74351	0.05236	-0.416
Mof_O 	O 	0.6834	0.24351	0.94764	-0.376
Mof_O 	O 	0.6834	0.74351	0.44764	-0.404
Mof_O 	O 	0.1834	0.24351	0.44764	-0.413
Mof_O 	O 	0.1834	0.74351	0.94764	-0.377
Mof_O 	O 	0.3166	0.75649	0.94764	-0.373
Mof_O 	O 	0.3166	0.25649	0.44764	-0.409
Mof_O 	O 	0.8166	0.75649	0.44764	-0.4
Mof_O 	O 	0.8166	0.25649	0.94764	-0.371
Mof_O 	O 	0.75649	0.94764	0.3166	-0.373
Mof_O 	O 	0.75649	0.44764	0.8166	-0.4
Mof_O 	O 	0.25649	0.94764	0.8166	-0.371
Mof_O 	O 	0.25649	0.44764	0.3166	-0.409
Mof_O 	O 	0.24351	0.94764	0.6834	-0.376
Mof_O 	O 	0.24351	0.44764	0.1834	-0.413
Mof_O 	O 	0.74351	0.94764	0.1834	-0.377
Mof_O 	O 	0.74351	0.44764	0.6834	-0.404
Mof_O 	O 	0.24351	0.05236	0.3166	-0.425
Mof_O 	O 	0.24351	0.55236	0.8166	-0.403
Mof_O 	O 	0.74351	0.05236	0.8166	-0.416
Mof_O 	O 	0.74351	0.55236	0.3166	-0.405
Mof_O 	O 	0.75649	0.05236	0.6834	-0.422
Mof_O 	O 	0.75649	0.55236	0.1834	-0.41
Mof_O 	O 	0.25649	0.05236	0.1834	-0.431
Mof_O 	O 	0.25649	0.55236	0.6834	-0.409
Mof_O 	O 	0.94764	0.6834	0.24351	-0.376
Mof_O 	O 	0.94764	0.1834	0.74351	-0.377
Mof_O 	O 	0.44764	0.6834	0.74351	-0.404
Mof_O 	O 	0.44764	0.1834	0.24351	-0.413
Mof_O 	O 	0.94764	0.3166	0.75649	-0.373
Mof_O 	O 	0.94764	0.8166	0.25649	-0.371
Mof_O 	O 	0.44764	0.3166	0.25649	-0.409
Mof_O 	O 	0.44764	0.8166	0.75649	-0.4
Mof_O 	O 	0.05236	0.6834	0.75649	-0.422
Mof_O 	O 	0.05236	0.1834	0.25649	-0.431
Mof_O 	O 	0.55236	0.6834	0.25649	-0.409
Mof_O 	O 	0.55236	0.1834	0.75649	-0.41
Mof_O 	O 	0.05236	0.3166	0.24351	-0.425
Mof_O 	O 	0.05236	0.8166	0.74351	-0.416
Mof_O 	O 	0.55236	0.3166	0.74351	-0.405
Mof_O 	O 	0.55236	0.8166	0.24351	-0.403
Mof_Cu	Cu	0.28389	0.28389	-0	0.877
Mof_Cu	Cu	0.28389	0.78389	0.5	0.908
Mof_Cu	Cu	0.78389	0.28389	0.5	0.908
Mof_Cu	Cu	0.78389	0.78389	-0	0.88
Mof_Cu	Cu	0.71611	0.71611	-0	0.876
Mof_Cu	Cu	0.71611	0.21611	0.5	0.904
Mof_Cu	Cu	0.21611	0.71611	0.5	0.904
Mof_Cu	Cu	0.21611	0.21611	-0	0.874
Mof_Cu	Cu	0.71611	0.28389	-0	0.877
Mof_Cu	Cu	0.71611	0.78389	0.5	0.908
Mof_Cu	Cu	0.21611	0.28389	0.5	0.904
Mof_Cu	Cu	0.21611	0.78389	-0	0.877
Mof_Cu	Cu	0.28389	0.71611	-0	0.877
Mof_Cu	Cu	0.28389	0.21611	0.5	0.904
Mof_Cu	Cu	0.78389	0.71611	0.5	0.908
Mof_Cu	Cu	0.78389	0.21611	-0	0.877
Mof_Cu	Cu	3.83822e-33	0.28389	0.28389	0.877
Mof_Cu	Cu	2.93912e-33	0.78389	0.78389	0.88
Mof_Cu	Cu	0.5	0.28389	0.78389	0.908
Mof_Cu	Cu	0.5	0.78389	0.28389	0.908
Mof_Cu	Cu	2.68498e-33	0.71611	0.71611	0.876
Mof_Cu	Cu	8.10283e-34	0.21611	0.21611	0.874
Mof_Cu	Cu	0.5	0.71611	0.21611	0.904
Mof_Cu	Cu	0.5	0.21611	0.71611	0.904
Mof_Cu	Cu	9.38582e-33	0.71611	0.28389	0.877
Mof_Cu	Cu	-2.60849e-33	0.21611	0.78389	0.877
Mof_Cu	Cu	0.5	0.71611	0.78389	0.908
Mof_Cu	Cu	0.5	0.21611	0.28389	0.904
Mof_Cu	Cu	8.23259e-33	0.28389	0.71611	0.877
Mof_Cu	Cu	-1.96352e-33	0.78389	0.21611	0.877
Mof_Cu	Cu	0.5	0.28389	0.21611	0.904
Mof_Cu	Cu	0.5	0.78389	0.71611	0.908
Mof_Cu	Cu	0.28389	2.7738e-33	0.28389	0.877
Mof_Cu	Cu	0.28389	0.5	0.78389	0.908
Mof_Cu	Cu	0.78389	0	0.78389	0.88
Mof_Cu	Cu	0.78389	0.5	0.28389	0.908
Mof_Cu	Cu	0.71611	0	0.71611	0.876
Mof_Cu	Cu	0.71611	0.5	0.21611	0.904
Mof_Cu	Cu	0.21611	0	0.21611	0.874
Mof_Cu	Cu	0.21611	0.5	0.71611	0.904
Mof_Cu	Cu	0.28389	0	0.71611	0.877
Mof_Cu	Cu	0.28389	0.5	0.21611	0.904
Mof_Cu	Cu	0.78389	0	0.21611	0.877
Mof_Cu	Cu	0.78389	0.5	0.71611	0.908
Mof_Cu	Cu	0.71611	2.7738e-33	0.28389	0.877
Mof_Cu	Cu	0.71611	0.5	0.78389	0.908
Mof_Cu	Cu	0.21611	0	0.78389	0.877
Mof_Cu	Cu	0.21611	0.5	0.28389	0.904
Mof_C 	C 	0.17851	0.32149	0.11368	-0.132
Mof_C 	C 	0.20356	0.29644	0.06912	0.372
Mof_C 	C 	0.17851	0.82149	0.61368	-0.111
Mof_C 	C 	0.20356	0.79644	0.56912	0.367
Mof_C 	C 	0.82149	0.67851	0.11368	-0.114
Mof_C 	C 	0.79644	0.70356	0.06912	0.367
Mof_C 	C 	0.82149	0.17851	0.61368	-0.111
Mof_C 	C 	0.79644	0.20356	0.56912	0.367
Mof_C 	C 	0.32149	0.17851	0.11368	-0.132
Mof_C 	C 	0.29644	0.20356	0.06912	0.372
Mof_C 	C 	0.82149	0.32149	0.88632	-0.092
Mof_C 	C 	0.79644	0.29644	0.93088	0.36
Mof_C 	C 	0.82149	0.82149	0.38632	-0.097
Mof_C 	C 	0.79644	0.79644	0.43088	0.365
Mof_C 	C 	0.32149	0.32149	0.38632	-0.116
Mof_C 	C 	0.29644	0.29644	0.43088	0.37
Mof_C 	C 	0.17851	0.67851	0.88632	-0.104
Mof_C 	C 	0.20356	0.70356	0.93088	0.361
Mof_C 	C 	0.17851	0.17851	0.38632	-0.127
Mof_C 	C 	0.20356	0.20356	0.43088	0.371
Mof_C 	C 	0.11368	0.17851	0.32149	-0.132
Mof_C 	C 	0.06912	0.20356	0.29644	0.372
Mof_C 	C 	0.61368	0.17851	0.82149	-0.111
Mof_C 	C 	0.56912	0.20356	0.79644	0.367
Mof_C 	C 	0.11368	0.82149	0.67851	-0.114
Mof_C 	C 	0.06912	0.79644	0.70356	0.367
Mof_C 	C 	0.11368	0.32149	0.17851	-0.132
Mof_C 	C 	0.06912	0.29644	0.20356	0.372
Mof_C 	C 	0.61368	0.82149	0.17851	-0.111
Mof_C 	C 	0.56912	0.79644	0.20356	0.367
Mof_C 	C 	0.88632	0.82149	0.32149	-0.092
Mof_C 	C 	0.93088	0.79644	0.29644	0.36
Mof_C 	C 	0.38632	0.82149	0.82149	-0.097
Mof_C 	C 	0.43088	0.79644	0.79644	0.365
Mof_C 	C 	0.38632	0.32149	0.32149	-0.116
Mof_C 	C 	0.43088	0.29644	0.29644	0.37
Mof_C 	C 	0.88632	0.17851	0.67851	-0.104
Mof_C 	C 	0.93088	0.20356	0.70356	0.361
Mof_C 	C 	0.38632	0.17851	0.17851	-0.127
Mof_C 	C 	0.43088	0.20356	0.20356	0.371
Mof_C 	C 	0.32149	0.11368	0.17851	-0.132
Mof_C 	C 	0.29644	0.06912	0.20356	0.372
Mof_C 	C 	0.32149	0.61368	0.67851	-0.112
Mof_C 	C 	0.29644	0.56912	0.70356	0.368
Mof_C 	C 	0.67851	0.11368	0.82149	-0.114
Mof_C 	C 	0.70356	0.06912	0.79644	0.367
Mof_C 	C 	0.67851	0.61368	0.32149	-0.112
Mof_C 	C 	0.70356	0.56912	0.29644	0.368
Mof_C 	C 	0.17851	0.11368	0.32149	-0.132
Mof_C 	C 	0.20356	0.06912	0.29644	0.372
Mof_C 	C 	0.32149	0.88632	0.82149	-0.092
Mof_C 	C 	0.29644	0.93088	0.79644	0.36
Mof_C 	C 	0.32149	0.38632	0.32149	-0.116
Mof_C 	C 	0.29644	0.43088	0.29644	0.37
Mof_C 	C 	0.67851	0.88632	0.17851	-0.104
Mof_C 	C 	0.70356	0.93088	0.20356	0.361
Mof_C 	C 	0.67851	0.38632	0.67851	-0.111
Mof_C 	C 	0.70356	0.43088	0.70356	0.366
Mof_C 	C 	0.17851	0.38632	0.17851	-0.127
Mof_C 	C 	0.20356	0.43088	0.20356	0.371
Mof_C 	C 	0.32149	0.17851	0.88632	-0.107
Mof_C 	C 	0.29644	0.20356	0.93088	0.363
Mof_C 	C 	0.32149	0.67851	0.38632	-0.113
Mof_C 	C 	0.29644	0.70356	0.43088	0.368
Mof_C 	C 	0.67851	0.82149	0.88632	-0.089
Mof_C 	C 	0.70356	0.79644	0.93088	0.358
Mof_C 	C 	0.67851	0.32149	0.38632	-0.113
Mof_C 	C 	0.70356	0.29644	0.43088	0.368
Mof_C 	C 	0.17851	0.32149	0.88632	-0.107
Mof_C 	C 	0.20356	0.29644	0.93088	0.363
Mof_C 	C 	0.32149	0.82149	0.11368	-0.117
Mof_C 	C 	0.29644	0.79644	0.06912	0.369
Mof_C 	C 	0.32149	0.32149	0.61368	-0.115
Mof_C 	C 	0.29644	0.29644	0.56912	0.369
Mof_C 	C 	0.67851	0.17851	0.11368	-0.129
Mof_C 	C 	0.70356	0.20356	0.06912	0.37
Mof_C 	C 	0.67851	0.67851	0.61368	-0.109
Mof_C 	C 	0.70356	0.70356	0.56912	0.366
Mof_C 	C 	0.17851	0.17851	0.61368	-0.126
Mof_C 	C 	0.20356	0.20356	0.56912	0.37
Mof_C 	C 	0.17851	0.11368	0.67851	-0.129
Mof_C 	C 	0.20356	0.06912	0.70356	0.37
Mof_C 	C 	0.17851	0.61368	0.17851	-0.126
Mof_C 	C 	0.20356	0.56912	0.20356	0.37
Mof_C 	C 	0.82149	0.11368	0.32149	-0.117
Mof_C 	C 	0.79644	0.06912	0.29644	0.369
Mof_C 	C 	0.82149	0.61368	0.82149	-0.096
Mof_C 	C 	0.79644	0.56912	0.79644	0.364
Mof_C 	C 	0.32149	0.61368	0.32149	-0.115
Mof_C 	C 	0.29644	0.56912	0.29644	0.369
Mof_C 	C 	0.82149	0.88632	0.67851	-0.089
Mof_C 	C 	0.79644	0.93088	0.70356	0.358
Mof_C 	C 	0.82149	0.38632	0.17851	-0.112
Mof_C 	C 	0.79644	0.43088	0.20356	0.368
Mof_C 	C 	0.32149	0.88632	0.17851	-0.107
Mof_C 	C 	0.29644	0.93088	0.20356	0.363
Mof_C 	C 	0.17851	0.88632	0.32149	-0.107
Mof_C 	C 	0.20356	0.93088	0.29644	0.363
Mof_C 	C 	0.17851	0.38632	0.82149	-0.112
Mof_C 	C 	0.20356	0.43088	0.79644	0.368
Mof_C 	C 	0.11368	0.32149	0.82149	-0.117
Mof_C 	C 	0.06912	0.29644	0.79644	0.369
Mof_C 	C 	0.61368	0.32149	0.32149	-0.115
Mof_C 	C 	0.56912	0.29644	0.29644	0.369
Mof_C 	C 	0.11368	0.67851	0.17851	-0.129
Mof_C 	C 	0.06912	0.70356	0.20356	0.37
Mof_C 	C 	0.61368	0.67851	0.67851	-0.109
Mof_C 	C 	0.56912	0.70356	0.70356	0.366
Mof_C 	C 	0.61368	0.17851	0.17851	-0.126
Mof_C 	C 	0.56912	0.20356	0.20356	0.37
Mof_C 	C 	0.88632	0.32149	0.17851	-0.107
Mof_C 	C 	0.93088	0.29644	0.20356	0.363
Mof_C 	C 	0.38632	0.32149	0.67851	-0.113
Mof_C 	C 	0.43088	0.29644	0.70356	0.368
Mof_C 	C 	0.88632	0.67851	0.82149	-0.089
Mof_C 	C 	0.93088	0.70356	0.79644	0.358
Mof_C 	C 	0.88632	0.17851	0.32149	-0.107
Mof_C 	C 	0.93088	0.20356	0.29644	0.363
Mof_C 	C 	0.38632	0.67851	0.32149	-0.113
Mof_C 	C 	0.43088	0.70356	0.29644	0.368
Mof_C 	C 	0.82149	0.67851	0.88632	-0.089
Mof_C 	C 	0.79644	0.70356	0.93088	0.358
Mof_C 	C 	0.82149	0.17851	0.38632	-0.112
Mof_C 	C 	0.79644	0.20356	0.43088	0.368
Mof_C 	C 	0.17851	0.82149	0.38632	-0.112
Mof_C 	C 	0.20356	0.79644	0.43088	0.368
Mof_C 	C 	0.17851	0.67851	0.11368	-0.129
Mof_C 	C 	0.20356	0.70356	0.06912	0.37
Mof_C 	C 	0.82149	0.32149	0.11368	-0.117
Mof_C 	C 	0.79644	0.29644	0.06912	0.369
Mof_C 	C 	0.82149	0.82149	0.61368	-0.096
Mof_C 	C 	0.79644	0.79644	0.56912	0.364
Mof_C 	C 	0.88632	0.82149	0.67851	-0.089
Mof_C 	C 	0.93088	0.79644	0.70356	0.358
Mof_C 	C 	0.38632	0.82149	0.17851	-0.112
Mof_C 	C 	0.43088	0.79644	0.20356	0.368
Mof_C 	C 	0.38632	0.17851	0.82149	-0.112
Mof_C 	C 	0.43088	0.20356	0.79644	0.368
Mof_C 	C 	0.11368	0.17851	0.67851	-0.129
Mof_C 	C 	0.06912	0.20356	0.70356	0.37
Mof_C 	C 	0.11368	0.82149	0.32149	-0.117
Mof_C 	C 	0.06912	0.79644	0.29644	0.369
Mof_C 	C 	0.61368	0.82149	0.82149	-0.096
Mof_C 	C 	0.56912	0.79644	0.79644	0.364
Mof_C 	C 	0.67851	0.88632	0.82149	-0.089
Mof_C 	C 	0.70356	0.93088	0.79644	0.358
Mof_C 	C 	0.67851	0.38632	0.32149	-0.113
Mof_C 	C 	0.70356	0.43088	0.29644	0.368
Mof_C 	C 	0.32149	0.38632	0.67851	-0.113
Mof_C 	C 	0.29644	0.43088	0.70356	0.368
Mof_C 	C 	0.67851	0.11368	0.17851	-0.129
Mof_C 	C 	0.70356	0.06912	0.20356	0.37
Mof_C 	C 	0.67851	0.61368	0.67851	-0.109
Mof_C 	C 	0.70356	0.56912	0.70356	0.366
Mof_C 	C 	0.32149	0.11368	0.82149	-0.117
Mof_C 	C 	0.29644	0.06912	0.79644	0.369
Mof_C 	C 	0.67851	0.82149	0.11368	-0.114
Mof_C 	C 	0.70356	0.79644	0.06912	0.367
Mof_C 	C 	0.67851	0.32149	0.61368	-0.112
Mof_C 	C 	0.70356	0.29644	0.56912	0.368
Mof_C 	C 	0.32149	0.67851	0.61368	-0.112
Mof_C 	C 	0.29644	0.70356	0.56912	0.368
Mof_C 	C 	0.67851	0.17851	0.88632	-0.104
Mof_C 	C 	0.70356	0.20356	0.93088	0.361
Mof_C 	C 	0.67851	0.67851	0.38632	-0.111
Mof_C 	C 	0.70356	0.70356	0.43088	0.366
Mof_C 	C 	0.32149	0.82149	0.88632	-0.092
Mof_C 	C 	0.29644	0.79644	0.93088	0.36
Mof_C 	C 	0.82149	0.88632	0.32149	-0.092
Mof_C 	C 	0.79644	0.93088	0.29644	0.36
Mof_C 	C 	0.82149	0.38632	0.82149	-0.097
Mof_C 	C 	0.79644	0.43088	0.79644	0.365
Mof_C 	C 	0.17851	0.88632	0.67851	-0.104
Mof_C 	C 	0.20356	0.93088	0.70356	0.361
Mof_C 	C 	0.17851	0.61368	0.82149	-0.111
Mof_C 	C 	0.20356	0.56912	0.79644	0.367
Mof_C 	C 	0.82149	0.11368	0.67851	-0.114
Mof_C 	C 	0.79644	0.06912	0.70356	0.367
Mof_C 	C 	0.82149	0.61368	0.17851	-0.111
Mof_C 	C 	0.79644	0.56912	0.20356	0.367
Mof_C 	C 	0.88632	0.67851	0.17851	-0.104
Mof_C 	C 	0.93088	0.70356	0.20356	0.361
Mof_C 	C 	0.38632	0.67851	0.67851	-0.111
Mof_C 	C 	0.43088	0.70356	0.70356	0.366
Mof_C 	C 	0.88632	0.32149	0.82149	-0.092
Mof_C 	C 	0.93088	0.29644	0.79644	0.36
Mof_C 	C 	0.11368	0.67851	0.82149	-0.114
Mof_C 	C 	0.06912	0.70356	0.79644	0.367
Mof_C 	C 	0.61368	0.67851	0.32149	-0.112
Mof_C 	C 	0.56912	0.70356	0.29644	0.368
Mof_C 	C 	0.61368	0.32149	0.67851	-0.112
Mof_C 	C 	0.56912	0.29644	0.70356	0.368
Mof_C 	C 	0.13528	0.30006	0.13528	0.069
Mof_H 	H 	0.1208	0.2713	0.1208	0.03
Mof_C 	C 	0.13528	0.80006	0.63528	0.058
Mof_H 	H 	0.1208	0.7713	0.6208	0.042
Mof_C 	C 	0.63528	0.30006	0.63528	0.058
Mof_H 	H 	0.6208	0.2713	0.6208	0.045
Mof_C 	C 	0.63528	0.80006	0.13528	0.058
Mof_H 	H 	0.6208	0.7713	0.1208	0.042
Mof_C 	C 	0.86472	0.69994	0.13528	0.055
Mof_H 	H 	0.8792	0.7287	0.1208	0.05
Mof_C 	C 	0.86472	0.19994	0.63528	0.055
Mof_H 	H 	0.8792	0.2287	0.6208	0.053
Mof_C 	C 	0.36472	0.69994	0.63528	0.057
Mof_H 	H 	0.3792	0.7287	0.6208	0.049
Mof_C 	C 	0.36472	0.19994	0.13528	0.067
Mof_H 	H 	0.3792	0.2287	0.1208	0.036
Mof_C 	C 	0.86472	0.30006	0.86472	0.047
Mof_H 	H 	0.8792	0.2713	0.8792	0.061
Mof_C 	C 	0.86472	0.80006	0.36472	0.049
Mof_H 	H 	0.8792	0.7713	0.3792	0.057
Mof_C 	C 	0.36472	0.30006	0.36472	0.062
Mof_H 	H 	0.3792	0.2713	0.3792	0.044
Mof_C 	C 	0.36472	0.80006	0.86472	0.049
Mof_H 	H 	0.3792	0.7713	0.8792	0.057
Mof_C 	C 	0.13528	0.69994	0.86472	0.055
Mof_H 	H 	0.1208	0.7287	0.8792	0.05
Mof_C 	C 	0.13528	0.19994	0.36472	0.067
Mof_H 	H 	0.1208	0.2287	0.3792	0.036
Mof_C 	C 	0.63528	0.69994	0.36472	0.057
Mof_H 	H 	0.6208	0.7287	0.3792	0.049
Mof_C 	C 	0.63528	0.19994	0.86472	0.055
Mof_H 	H 	0.6208	0.2287	0.8792	0.053
Mof_C 	C 	0.13528	0.13528	0.30006	0.069
Mof_H 	H 	0.1208	0.1208	0.2713	0.03
Mof_C 	C 	0.13528	0.63528	0.80006	0.058
Mof_H 	H 	0.1208	0.6208	0.7713	0.042
Mof_C 	C 	0.63528	0.13528	0.80006	0.058
Mof_H 	H 	0.6208	0.1208	0.7713	0.042
Mof_C 	C 	0.63528	0.63528	0.30006	0.058
Mof_H 	H 	0.6208	0.6208	0.2713	0.045
Mof_C 	C 	0.13528	0.86472	0.69994	0.055
Mof_H 	H 	0.1208	0.8792	0.7287	0.05
Mof_C 	C 	0.13528	0.36472	0.19994	0.067
Mof_H 	H 	0.1208	0.3792	0.2287	0.036
Mof_C 	C 	0.63528	0.86472	0.19994	0.055
Mof_H 	H 	0.6208	0.8792	0.2287	0.053
Mof_C 	C 	0.63528	0.36472	0.69994	0.057
Mof_H 	H 	0.6208	0.3792	0.7287	0.049
Mof_C 	C 	0.86472	0.86472	0.30006	0.047
Mof_H 	H 	0.8792	0.8792	0.2713	0.061
Mof_C 	C 	0.86472	0.36472	0.80006	0.049
Mof_H 	H 	0.8792	0.3792	0.7713	0.057
Mof_C 	C 	0.36472	0.86472	0.80006	0.049
Mof_H 	H 	0.3792	0.8792	0.7713	0.057
Mof_C 	C 	0.36472	0.36472	0.30006	0.062
Mof_H 	H 	0.3792	0.3792	0.2713	0.044
Mof_C 	C 	0.86472	0.13528	0.69994	0.055
Mof_H 	H 	0.8792	0.1208	0.7287	0.05
Mof_C 	C 	0.86472	0.63528	0.19994	0.055
Mof_H 	H 	0.8792	0.6208	0.2287	0.053
Mof_C 	C 	0.36472	0.13528	0.19994	0.067
Mof_H 	H 	0.3792	0.1208	0.2287	0.036
Mof_C 	C 	0.36472	0.63528	0.69994	0.057
Mof_H 	H 	0.3792	0.6208	0.7287	0.049
Mof_C 	C 	0.30006	0.13528	0.13528	0.069
Mof_H 	H 	0.2713	0.1208	0.1208	0.03
Mof_C 	C 	0.30006	0.63528	0.63528	0.058
Mof_H 	H 	0.2713	0.6208	0.6208	0.045
Mof_C 	C 	0.80006	0.13528	0.63528	0.058
Mof_H 	H 	0.7713	0.1208	0.6208	0.042
Mof_C 	C 	0.80006	0.63528	0.13528	0.058
Mof_H 	H 	0.7713	0.6208	0.1208	0.042
Mof_C 	C 	0.69994	0.13528	0.86472	0.055
Mof_H 	H 	0.7287	0.1208	0.8792	0.05
Mof_C 	C 	0.69994	0.63528	0.36472	0.057
Mof_H 	H 	0.7287	0.6208	0.3792	0.049
Mof_C 	C 	0.19994	0.13528	0.36472	0.067
Mof_H 	H 	0.2287	0.1208	0.3792	0.036
Mof_C 	C 	0.19994	0.63528	0.86472	0.055
Mof_H 	H 	0.2287	0.6208	0.8792	0.053
Mof_C 	C 	0.30006	0.86472	0.86472	0.047
Mof_H 	H 	0.2713	0.8792	0.8792	0.061
Mof_C 	C 	0.30006	0.36472	0.36472	0.062
Mof_H 	H 	0.2713	0.3792	0.3792	0.044
Mof_C 	C 	0.80006	0.86472	0.36472	0.049
Mof_H 	H 	0.7713	0.8792	0.3792	0.057
Mof_C 	C 	0.80006	0.36472	0.86472	0.049
Mof_H 	H 	0.7713	0.3792	0.8792	0.057
Mof_C 	C 	0.69994	0.86472	0.13528	0.055
Mof_H 	H 	0.7287	0.8792	0.1208	0.05
Mof_C 	C 	0.69994	0.36472	0.63528	0.057
Mof_H 	H 	0.7287	0.3792	0.6208	0.049
Mof_C 	C 	0.19994	0.86472	0.63528	0.055
Mof_H 	H 	0.2287	0.8792	0.6208	0.053
Mof_C 	C 	0.19994	0.36472	0.13528	0.067
Mof_H 	H 	0.2287	0.3792	0.1208	0.036
Mof_C 	C 	0.30006	0.13528	0.86472	0.058
Mof_H 	H 	0.2713	0.1208	0.8792	0.046
Mof_C 	C 	0.30006	0.63528	0.36472	0.06
Mof_H 	H 	0.2713	0.6208	0.3792	0.044
Mof_C 	C 	0.80006	0.13528	0.36472	0.059
Mof_H 	H 	0.7713	0.1208	0.3792	0.041
Mof_C 	C 	0.80006	0.63528	0.86472	0.047
Mof_H 	H 	0.7713	0.6208	0.8792	0.058
Mof_C 	C 	0.69994	0.86472	0.86472	0.045
Mof_H 	H 	0.7287	0.8792	0.8792	0.065
Mof_C 	C 	0.69994	0.36472	0.36472	0.059
Mof_H 	H 	0.7287	0.3792	0.3792	0.048
Mof_C 	C 	0.19994	0.86472	0.36472	0.057
Mof_H 	H 	0.2287	0.8792	0.3792	0.052
Mof_C 	C 	0.19994	0.36472	0.86472	0.057
Mof_H 	H 	0.2287	0.3792	0.8792	0.052
Mof_C 	C 	0.30006	0.86472	0.13528	0.058
Mof_H 	H 	0.2713	0.8792	0.1208	0.046
Mof_C 	C 	0.30006	0.36472	0.63528	0.06
Mof_H 	H 	0.2713	0.3792	0.6208	0.044
Mof_C 	C 	0.80006	0.86472	0.63528	0.047
Mof_H 	H 	0.7713	0.8792	0.6208	0.058
Mof_C 	C 	0.80006	0.36472	0.13528	0.059
Mof_H 	H 	0.7713	0.3792	0.1208	0.041
Mof_C 	C 	0.69994	0.13528	0.13528	0.066
Mof_H 	H 	0.7287	0.1208	0.1208	0.034
Mof_C 	C 	0.69994	0.63528	0.63528	0.056
Mof_H 	H 	0.7287	0.6208	0.6208	0.049
Mof_C 	C 	0.19994	0.13528	0.63528	0.065
Mof_H 	H 	0.2287	0.1208	0.6208	0.037
Mof_C 	C 	0.19994	0.63528	0.13528	0.065
Mof_H 	H 	0.2287	0.6208	0.1208	0.037
Mof_C 	C 	0.13528	0.13528	0.69994	0.066
Mof_H 	H 	0.1208	0.1208	0.7287	0.034
Mof_C 	C 	0.13528	0.63528	0.19994	0.065
Mof_H 	H 	0.1208	0.6208	0.2287	0.037
Mof_C 	C 	0.63528	0.13528	0.19994	0.065
Mof_H 	H 	0.6208	0.1208	0.2287	0.037
Mof_C 	C 	0.63528	0.63528	0.69994	0.056
Mof_H 	H 	0.6208	0.6208	0.7287	0.049
Mof_C 	C 	0.86472	0.13528	0.30006	0.058
Mof_H 	H 	0.8792	0.1208	0.2713	0.046
Mof_C 	C 	0.86472	0.63528	0.80006	0.047
Mof_H 	H 	0.8792	0.6208	0.7713	0.058
Mof_C 	C 	0.36472	0.13528	0.80006	0.059
Mof_H 	H 	0.3792	0.1208	0.7713	0.041
Mof_C 	C 	0.36472	0.63528	0.30006	0.06
Mof_H 	H 	0.3792	0.6208	0.2713	0.044
Mof_C 	C 	0.86472	0.86472	0.69994	0.045
Mof_H 	H 	0.8792	0.8792	0.7287	0.065
Mof_C 	C 	0.86472	0.36472	0.19994	0.057
Mof_H 	H 	0.8792	0.3792	0.2287	0.052
Mof_C 	C 	0.36472	0.86472	0.19994	0.057
Mof_H 	H 	0.3792	0.8792	0.2287	0.052
Mof_C 	C 	0.36472	0.36472	0.69994	0.059
Mof_H 	H 	0.3792	0.3792	0.7287	0.048
Mof_C 	C 	0.13528	0.86472	0.30006	0.058
Mof_H 	H 	0.1208	0.8792	0.2713	0.046
Mof_C 	C 	0.13528	0.36472	0.80006	0.059
Mof_H 	H 	0.1208	0.3792	0.7713	0.041
Mof_C 	C 	0.63528	0.86472	0.80006	0.047
Mof_H 	H 	0.6208	0.8792	0.7713	0.058
Mof_C 	C 	0.63528	0.36472	0.30006	0.06
Mof_H 	H 	0.6208	0.3792	0.2713	0.044
Mof_C 	C 	0.13528	0.30006	0.86472	0.058
Mof_H 	H 	0.1208	0.2713	0.8792	0.046
Mof_C 	C 	0.13528	0.80006	0.36472	0.059
Mof_H 	H 	0.1208	0.7713	0.3792	0.041
Mof_C 	C 	0.63528	0.30006	0.36472	0.06
Mof_H 	H 	0.6208	0.2713	0.3792	0.044
Mof_C 	C 	0.63528	0.80006	0.86472	0.047
Mof_H 	H 	0.6208	0.7713	0.8792	0.058
Mof_C 	C 	0.13528	0.69994	0.13528	0.066
Mof_H 	H 	0.1208	0.7287	0.1208	0.034
Mof_C 	C 	0.13528	0.19994	0.63528	0.065
Mof_H 	H 	0.1208	0.2287	0.6208	0.037
Mof_C 	C 	0.63528	0.69994	0.63528	0.056
Mof_H 	H 	0.6208	0.7287	0.6208	0.049
Mof_C 	C 	0.63528	0.19994	0.13528	0.065
Mof_H 	H 	0.6208	0.2287	0.1208	0.037
Mof_C 	C 	0.86472	0.30006	0.13528	0.058
Mof_H 	H 	0.8792	0.2713	0.1208	0.046
Mof_C 	C 	0.86472	0.80006	0.63528	0.047
Mof_H 	H 	0.8792	0.7713	0.6208	0.058
Mof_C 	C 	0.36472	0.30006	0.63528	0.06
Mof_H 	H 	0.3792	0.2713	0.6208	0.044
Mof_C 	C 	0.36472	0.80006	0.13528	0.059
Mof_H 	H 	0.3792	0.7713	0.1208	0.041
Mof_C 	C 	0.86472	0.69994	0.86472	0.045
Mof_H 	H 	0.8792	0.7287	0.8792	0.065
Mof_C 	C 	0.86472	0.19994	0.36472	0.057
Mof_H 	H 	0.8792	0.2287	0.3792	0.052
Mof_C 	C 	0.36472	0.69994	0.36472	0.059
Mof_H 	H 	0.3792	0.7287	0.3792	0.048
Mof_C 	C 	0.36472	0.19994	0.86472	0.057
Mof_H 	H 	0.3792	0.2287	0.8792	0.052
_end
