data_functionalizedCrystal
_audit_creation_method	'EQeq! by Chris Wilmer'
_symmetry_space_group_name_H-M	'P1'
_symmetry_Int_Tables_number	1
_symmetry_cell_setting	triclinic
loop_
_symmetry_equiv_pos_as_xyz
  x,y,z
_cell_length_a	10.975
_cell_length_b	12.139
_cell_length_c	13.728
_cell_angle_alpha	67.25
_cell_angle_beta	80.94
_cell_angle_gamma	70.26
loop_
_atom_site_label
_atom_site_type_symbol
_atom_site_fract_x
_atom_site_fract_y
_atom_site_fract_z
_atom_site_charge
Mof_Co	Co	0.043	0.40582	0.815	1.121
Mof_Co	Co	0.13202	0.67145	0.81249	1.153
Mof_Co	Co	0.957	0.59418	0.185	1.16
Mof_Co	Co	0.86798	0.32855	0.18751	1.167
Mof_Co	Co	-3.58236e-17	0.5	-0	1.128
Mof_H 	H 	0.2075	0.4646	0.8574	0.238
Mof_H 	H 	0.8655	0.7168	0.5153	0.155
Mof_H 	H 	0.947	0.9002	0.5202	0.011
Mof_H 	H 	0.7896	0.8272	0.3501	0.009
Mof_H 	H 	0.7286	0.968	0.1806	0.059
Mof_H 	H 	0.7675	0.153	0.1141	0.003
Mof_H 	H 	0.9153	0.0856	0.3782	0.027
Mof_H 	H 	0.6042	0.4286	0.9226	0.171
Mof_H 	H 	0.7337	0.5602	0.7559	0.003
Mof_H 	H 	0.6313	0.5943	0.5833	0.019
Mof_H 	H 	0.4437	0.6457	0.4998	0.061
Mof_H 	H 	0.2478	0.6773	0.5867	-0.006
Mof_H 	H 	0.4201	0.58	0.8469	0.019
Mof_H 	H 	0.1515	0.077	0.1927	0.137
Mof_H 	H 	0.1358	0.0025	0.0331	-0.03
Mof_H 	H 	0.2375	0.8569	0.2995	0.016
Mof_H 	H 	0.2154	0.6696	0.4166	0.059
Mof_H 	H 	0.0999	0.5706	0.3746	-0.005
Mof_H 	H 	0.0532	0.8244	0.0901	-0.015
Mof_H 	H 	0.7925	0.5354	0.1426	0.226
Mof_H 	H 	0.1345	0.2832	0.4847	0.136
Mof_H 	H 	0.053	0.0998	0.4798	-0.015
Mof_H 	H 	0.2104	0.1728	0.6499	-0.003
Mof_H 	H 	0.2714	0.032	0.8194	0.076
Mof_H 	H 	0.2325	0.847	0.8859	0.017
Mof_H 	H 	0.0847	0.9144	0.6218	0.007
Mof_H 	H 	0.3958	0.5714	0.0774	0.119
Mof_H 	H 	0.2663	0.4398	0.2441	0.017
Mof_H 	H 	0.3687	0.4057	0.4167	0.023
Mof_H 	H 	0.5563	0.3543	0.5002	0.058
Mof_H 	H 	0.7522	0.3227	0.4133	0.007
Mof_H 	H 	0.5799	0.42	0.1531	0.009
Mof_H 	H 	0.8485	0.923	0.8073	0.15
Mof_H 	H 	0.8642	0.9975	0.9669	0.033
Mof_H 	H 	0.7625	0.1431	0.7005	0.029
Mof_H 	H 	0.7846	0.3304	0.5834	0.061
Mof_H 	H 	0.9001	0.4294	0.6254	0.013
Mof_H 	H 	0.9468	0.1756	0.9099	0.041
Mof_C 	C 	0.9711	0.6724	0.6465	0.539
Mof_C 	C 	0.9089	0.7517	0.5427	-0.336
Mof_C 	C 	0.9105	0.8644	0.4881	0.142
Mof_C 	C 	0.8626	0.9433	0.3824	-0.065
Mof_C 	C 	0.8042	0.9048	0.3233	0.024
Mof_C 	C 	0.7694	0.9891	0.2223	-0.111
Mof_C 	C 	0.7927	0.1005	0.1825	0.067
Mof_C 	C 	0.88	0.0596	0.3367	0.037
Mof_C 	C 	0.7821	0.4315	0.9556	0.533
Mof_C 	C 	0.6714	0.4621	0.8905	-0.34
Mof_C 	C 	0.6625	0.5341	0.7896	0.128
Mof_C 	C 	0.5477	0.5759	0.7268	-0.071
Mof_C 	C 	0.5527	0.6004	0.621	0.016
Mof_C 	C 	0.4402	0.634	0.5711	-0.115
Mof_C 	C 	0.3226	0.6507	0.6239	0.05
Mof_C 	C 	0.4245	0.594	0.775	0.035
Mof_C 	C 	0.0976	0.2222	0.0483	0.38
Mof_C 	C 	0.1316	0.0908	0.1247	-0.32
Mof_C 	C 	0.1356	0.9921	0.1038	0.115
Mof_C 	C 	0.1398	0.8685	0.1816	-0.089
Mof_C 	C 	0.1924	0.816	0.2806	0.019
Mof_C 	C 	0.1785	0.7048	0.3507	-0.118
Mof_C 	C 	0.1111	0.6448	0.3249	0.048
Mof_C 	C 	0.0804	0.7966	0.1588	0.046
Mof_C 	C 	0.0289	0.3276	0.3535	0.413
Mof_C 	C 	0.0911	0.2483	0.4573	-0.312
Mof_C 	C 	0.0895	0.1356	0.5119	0.117
Mof_C 	C 	0.1374	0.0567	0.6176	-0.089
Mof_C 	C 	0.1958	0.0952	0.6767	0.029
Mof_C 	C 	0.2306	0.0109	0.7777	-0.136
Mof_C 	C 	0.2073	0.8995	0.8175	0.076
Mof_C 	C 	0.12	0.9404	0.6633	0.043
Mof_C 	C 	0.2179	0.5685	0.0444	0.382
Mof_C 	C 	0.3286	0.5379	0.1095	-0.276
Mof_C 	C 	0.3375	0.4659	0.2104	0.075
Mof_C 	C 	0.4523	0.4241	0.2732	-0.053
Mof_C 	C 	0.4473	0.3996	0.379	-0.001
Mof_C 	C 	0.5598	0.366	0.4289	-0.102
Mof_C 	C 	0.6774	0.3493	0.3761	0.04
Mof_C 	C 	0.5755	0.406	0.225	0.025
Mof_C 	C 	0.9024	0.7778	0.9517	0.509
Mof_C 	C 	0.8684	0.9092	0.8753	-0.301
Mof_C 	C 	0.8644	0.0079	0.8962	0.103
Mof_C 	C 	0.8602	0.1315	0.8184	-0.045
Mof_C 	C 	0.8076	0.184	0.7194	0.007
Mof_C 	C 	0.8215	0.2952	0.6493	-0.092
Mof_C 	C 	0.8889	0.3552	0.6751	0.052
Mof_C 	C 	0.9196	0.2034	0.8412	0.039
Mof_N 	N 	0.8504	0.14	0.2366	-0.206
Mof_N 	N 	0.3122	0.6294	0.729	-0.234
Mof_N 	N 	0.0594	0.6912	0.2276	-0.239
Mof_N 	N 	0.1496	0.86	0.7634	-0.22
Mof_N 	N 	0.6878	0.3706	0.271	-0.23
Mof_N 	N 	0.9406	0.3088	0.7724	-0.209
Mof_O 	O 	0.0274	0.7236	0.6828	-0.523
Mof_O 	O 	0.9652	0.5645	0.6891	-0.487
Mof_O 	O 	0.7732	0.3646	0.0516	-0.514
Mof_O 	O 	0.8745	0.474	0.9124	-0.522
Mof_O 	O 	0.1114	0.2384	0.9508	-0.417
Mof_O 	O 	0.0553	0.3056	0.0885	-0.554
Mof_O 	O 	0.1282	0.4897	0.8755	-0.776
Mof_O 	O 	0.9726	0.2764	0.3172	-0.416
Mof_O 	O 	0.0348	0.4355	0.3109	-0.497
Mof_O 	O 	0.2268	0.6354	0.9484	-0.416
Mof_O 	O 	0.1255	0.526	0.0876	-0.548
Mof_O 	O 	0.8886	0.7616	0.0492	-0.494
Mof_O 	O 	0.9447	0.6944	0.9115	-0.51
Mof_O 	O 	0.8718	0.5103	0.1245	-0.769
_end
