data_functionalizedCrystal
_audit_creation_method	'EQeq! by Chris Wilmer'
_symmetry_space_group_name_H-M	'P1'
_symmetry_Int_Tables_number	1
_symmetry_cell_setting	triclinic
loop_
_symmetry_equiv_pos_as_xyz
  x,y,z
_cell_length_a	13.8201
_cell_length_b	13.187
_cell_length_c	13.8527
_cell_angle_alpha	90
_cell_angle_beta	90.804
_cell_angle_gamma	90
loop_
_atom_site_label
_atom_site_type_symbol
_atom_site_fract_x
_atom_site_fract_y
_atom_site_fract_z
_atom_site_charge
Mof_Al	Al	0.1239	0.859	0.2254	2.744
Mof_Al	Al	0.025	0.7406	0.6236	2.827
Mof_Co	Co	0.1239	0.141	0.7254	1.182
Mof_Co	Co	0.025	0.2594	0.1236	1.192
Mof_P 	P 	0.0292	0.2607	0.8946	0.417
Mof_P 	P 	0.1447	0.6251	0.7806	0.75
Mof_O 	O 	0.0689	0.2603	0.9983	-0.495
Mof_O 	O 	0.9911	0.3659	0.8696	-0.367
Mof_O 	O 	0.1204	0.5179	0.748	-0.526
Mof_O 	O 	0.08	0.6546	0.8635	-1.053
Mof_O 	O 	0.0896	0.0048	0.7571	-0.502
Mof_O 	O 	0.1332	0.7003	0.6984	-0.908
Mof_O 	O 	0.0016	0.8757	0.6587	-0.9
Mof_O 	O 	0.1132	0.235	0.8284	-0.481
Mof_O 	O 	0.2479	0.6272	0.8189	-0.476
Mof_O 	O 	0.9486	0.1831	0.885	-0.413
Mof_Al	Al	0.6239	0.359	0.2254	2.824
Mof_Al	Al	0.525	0.2406	0.6236	3.143
Mof_Co	Co	0.6239	0.641	0.7254	1.19
Mof_Co	Co	0.525	0.7594	0.1236	1.226
Mof_P 	P 	0.5292	0.7607	0.8946	0.555
Mof_P 	P 	0.6447	0.1251	0.7806	0.752
Mof_O 	O 	0.5689	0.7603	0.9983	-0.495
Mof_O 	O 	0.4911	0.8659	0.8696	-0.477
Mof_O 	O 	0.6204	0.0179	0.748	-0.506
Mof_O 	O 	0.58	0.1546	0.8635	-0.954
Mof_O 	O 	0.5896	0.5048	0.7571	-0.506
Mof_O 	O 	0.6332	0.2003	0.6984	-0.944
Mof_O 	O 	0.5016	0.3757	0.6587	-0.932
Mof_O 	O 	0.6132	0.735	0.8284	-0.483
Mof_O 	O 	0.7479	0.1272	0.8189	-0.468
Mof_O 	O 	0.4486	0.6831	0.885	-0.499
Mof_Al	Al	0.8761	0.859	0.2746	2.863
Mof_Al	Al	0.975	0.7406	0.8764	3.204
Mof_Co	Co	0.8761	0.141	0.7746	1.197
Mof_Co	Co	0.975	0.2594	0.3764	1.235
Mof_P 	P 	0.9708	0.2607	0.6054	0.698
Mof_P 	P 	0.8553	0.6251	0.7194	0.749
Mof_O 	O 	0.9311	0.2603	0.5017	-0.427
Mof_O 	O 	0.0089	0.3659	0.6304	-0.544
Mof_O 	O 	0.8796	0.5179	0.752	-0.481
Mof_O 	O 	0.92	0.6546	0.6365	-0.859
Mof_O 	O 	0.9104	0.0048	0.7429	-0.423
Mof_O 	O 	0.8668	0.7003	0.8016	-0.952
Mof_O 	O 	0.9984	0.8757	0.8413	-0.87
Mof_O 	O 	0.8868	0.235	0.6716	-0.473
Mof_O 	O 	0.7521	0.6272	0.6811	-0.455
Mof_O 	O 	0.0514	0.1831	0.615	-0.559
Mof_Al	Al	0.3761	0.359	0.2746	2.809
Mof_Al	Al	0.475	0.2406	0.8764	2.932
Mof_Co	Co	0.3761	0.641	0.7746	1.189
Mof_Co	Co	0.475	0.7594	0.3764	1.203
Mof_P 	P 	0.4708	0.7607	0.6054	0.555
Mof_P 	P 	0.3553	0.1251	0.7194	0.751
Mof_O 	O 	0.4311	0.7603	0.5017	-0.437
Mof_O 	O 	0.5089	0.8659	0.6304	-0.457
Mof_O 	O 	0.3796	0.0179	0.752	-0.511
Mof_O 	O 	0.42	0.1546	0.6365	-0.971
Mof_O 	O 	0.4104	0.5048	0.7429	-0.505
Mof_O 	O 	0.3668	0.2003	0.8016	-0.925
Mof_O 	O 	0.4984	0.3757	0.8413	-0.916
Mof_O 	O 	0.3868	0.735	0.6716	-0.476
Mof_O 	O 	0.2521	0.1272	0.6811	-0.463
Mof_O 	O 	0.5514	0.6831	0.615	-0.476
Mof_P 	P 	0.9708	0.7393	0.1054	0.957
Mof_P 	P 	0.8553	0.3749	0.2194	0.66
Mof_O 	O 	0.9311	0.7397	0.0017	-0.851
Mof_O 	O 	0.0089	0.6341	0.1304	-0.606
Mof_O 	O 	0.8796	0.4821	0.252	-0.443
Mof_O 	O 	0.92	0.3454	0.1365	-0.423
Mof_O 	O 	0.9104	0.9952	0.2429	-0.784
Mof_O 	O 	0.8668	0.2997	0.3016	-0.495
Mof_O 	O 	0.9984	0.1243	0.3413	-0.398
Mof_O 	O 	0.8868	0.765	0.1716	-0.882
Mof_O 	O 	0.7521	0.3728	0.1811	-0.779
Mof_O 	O 	0.0514	0.8169	0.115	-0.977
Mof_P 	P 	0.4708	0.2393	0.1054	0.8
Mof_P 	P 	0.3553	0.8749	0.2194	0.656
Mof_O 	O 	0.4311	0.2397	0.0017	-0.809
Mof_O 	O 	0.5089	0.1341	0.1304	-0.509
Mof_O 	O 	0.3796	0.9821	0.252	-0.483
Mof_O 	O 	0.42	0.8454	0.1365	-0.478
Mof_O 	O 	0.4104	0.4952	0.2429	-0.851
Mof_O 	O 	0.3668	0.7997	0.3016	-0.514
Mof_O 	O 	0.4984	0.6243	0.3413	-0.497
Mof_O 	O 	0.3868	0.265	0.1716	-0.875
Mof_O 	O 	0.2521	0.8728	0.1811	-0.773
Mof_O 	O 	0.5514	0.3169	0.115	-0.897
Mof_P 	P 	0.0292	0.7393	0.3946	0.649
Mof_P 	P 	0.1447	0.3749	0.2806	0.658
Mof_O 	O 	0.0689	0.7397	0.4983	-0.847
Mof_O 	O 	0.9911	0.6341	0.3696	-0.413
Mof_O 	O 	0.1204	0.4821	0.248	-0.493
Mof_O 	O 	0.08	0.3454	0.3635	-0.549
Mof_O 	O 	0.0896	0.9952	0.2571	-0.848
Mof_O 	O 	0.1332	0.2997	0.1984	-0.516
Mof_O 	O 	0.0016	0.1243	0.1587	-0.502
Mof_O 	O 	0.1132	0.765	0.3284	-0.868
Mof_O 	O 	0.2479	0.3728	0.3189	-0.796
Mof_O 	O 	0.9486	0.8169	0.385	-0.835
Mof_P 	P 	0.5292	0.2393	0.3946	0.808
Mof_P 	P 	0.6447	0.8749	0.2806	0.662
Mof_O 	O 	0.5689	0.2397	0.4983	-0.902
Mof_O 	O 	0.4911	0.1341	0.3696	-0.529
Mof_O 	O 	0.6204	0.9821	0.248	-0.477
Mof_O 	O 	0.58	0.8454	0.3635	-0.5
Mof_O 	O 	0.5896	0.4952	0.2571	-0.853
Mof_O 	O 	0.6332	0.7997	0.1984	-0.499
Mof_O 	O 	0.5016	0.6243	0.1587	-0.476
Mof_O 	O 	0.6132	0.265	0.3284	-0.884
Mof_O 	O 	0.7479	0.8728	0.3189	-0.799
Mof_O 	O 	0.4486	0.3169	0.385	-0.922
Mof_Co	Co	1.40738e-18	0.4422	0.75	1.122
Mof_P 	P 	2.85823e-33	0.9406	0.75	0.631
Mof_Co	Co	0.5	0.9422	0.75	1.161
Mof_P 	P 	0.5	0.4406	0.75	0.782
Mof_Co	Co	7.0369e-19	0.5578	0.25	1.124
Mof_P 	P 	9.52745e-34	0.0594	0.25	0.615
Mof_Co	Co	0.5	0.0578	0.25	1.17
Mof_P 	P 	0.5	0.5594	0.25	0.755
_end
