data_functionalizedCrystal
_audit_creation_method	'EQeq! by Chris Wilmer'
_symmetry_space_group_name_H-M	'P1'
_symmetry_Int_Tables_number	1
_symmetry_cell_setting	triclinic
loop_
_symmetry_equiv_pos_as_xyz
  x,y,z
_cell_length_a	21.263
_cell_length_b	21.287
_cell_length_c	18.0287
_cell_angle_alpha	90
_cell_angle_beta	96.213
_cell_angle_gamma	90
loop_
_atom_site_label
_atom_site_type_symbol
_atom_site_fract_x
_atom_site_fract_y
_atom_site_fract_z
_atom_site_charge
Mof_Mo	Mo	0.714	0.5189	0.99529	0.517
Mof_Br	Br	0.88151	0.3644	0.06987	-0.417
Mof_Cu	Cu	0.73744	0.54561	0.14095	0.826
Mof_Cu	Cu	0.81756	0.58808	0.97231	0.825
Mof_Cu	Cu	0.78497	0.41305	0.01249	0.836
Mof_S 	S 	0.7155	0.44841	0.08981	-0.549
Mof_S 	S 	0.74022	0.6151	0.04508	-0.551
Mof_S 	S 	0.78994	0.49048	0.92419	-0.529
Mof_N 	N 	0.8118	0.5534	0.2197	-0.249
Mof_N 	N 	0.0926	0.5848	0.4712	-0.249
Mof_N 	N 	0.6527	0.559	0.19	-0.23
Mof_N 	N 	0.6811	0.1472	0.6197	-0.233
Mof_N 	N 	0.7428	0.339	0.9399	-0.221
Mof_C 	C 	0.8593	0.512	0.224	0.075
Mof_H 	H 	0.8554	0.4777	0.192	-0.025
Mof_C 	C 	0.9135	0.5167	0.2725	-0.137
Mof_H 	H 	0.9447	0.4861	0.2725	0.08
Mof_C 	C 	0.9217	0.5667	0.3213	0.053
Mof_C 	C 	0.8724	0.6102	0.3191	-0.138
Mof_H 	H 	0.8748	0.6443	0.3515	0.076
Mof_C 	C 	0.8199	0.6015	0.2678	0.077
Mof_H 	H 	0.7877	0.6312	0.2666	-0.013
Mof_C 	C 	0.0696	0.5293	0.449	0.078
Mof_H 	H 	0.0918	0.4935	0.466	-0.031
Mof_C 	C 	0.0142	0.5216	0.4018	-0.143
Mof_H 	H 	0.0002	0.4814	0.388	0.087
Mof_C 	C 	0.9798	0.5733	0.3753	0.065
Mof_C 	C 	0.0027	0.6304	0.401	-0.147
Mof_H 	H 	0.9804	0.6668	0.3869	0.081
Mof_C 	C 	0.0581	0.6343	0.4472	0.092
Mof_H 	H 	0.0725	0.674	0.4627	-0.02
Mof_C 	C 	0.6436	0.5362	0.2573	0.067
Mof_H 	H 	0.6781	0.5212	0.2882	-0.019
Mof_C 	C 	0.5843	0.5344	0.282	-0.136
Mof_H 	H 	0.5798	0.5187	0.3293	0.056
Mof_C 	C 	0.5321	0.5555	0.2376	0.052
Mof_C 	C 	0.5416	0.5774	0.1674	-0.14
Mof_H 	H 	0.5075	0.5905	0.1344	0.071
Mof_C 	C 	0.6021	0.5795	0.147	0.07
Mof_H 	H 	0.6079	0.5962	0.1005	-0.027
Mof_C 	C 	0.6713	0.2089	0.6164	0.077
Mof_H 	H 	0.6583	0.2271	0.5703	-0.012
Mof_C 	C 	0.6797	0.2472	0.6792	-0.134
Mof_H 	H 	0.6743	0.2904	0.6741	0.072
Mof_C 	C 	0.6959	0.222	0.7487	0.054
Mof_C 	C 	0.7036	0.1565	0.7515	-0.13
Mof_H 	H 	0.7137	0.1365	0.7971	0.074
Mof_C 	C 	0.6962	0.1225	0.6874	0.068
Mof_H 	H 	0.702	0.0793	0.6908	-0.012
Mof_C 	C 	0.6923	0.3508	0.8911	0.083
Mof_H 	H 	0.6681	0.3861	0.899	-0.029
Mof_C 	C 	0.6737	0.3134	0.8288	-0.143
Mof_H 	H 	0.6382	0.3236	0.7962	0.085
Mof_C 	C 	0.7094	0.261	0.8171	0.066
Mof_C 	C 	0.7607	0.2475	0.869	-0.143
Mof_H 	H 	0.7848	0.2117	0.8638	0.076
Mof_C 	C 	0.7757	0.2876	0.9285	0.072
Mof_H 	H 	0.8107	0.2782	0.9623	0.004
Mof_Mo	Mo	0.214	0.0189	0.99529	0.508
Mof_Br	Br	0.38151	0.8644	0.06987	-0.42
Mof_Cu	Cu	0.23744	0.04561	0.14095	0.826
Mof_Cu	Cu	0.31756	0.08808	0.97231	0.823
Mof_Cu	Cu	0.28497	0.91305	0.01249	0.834
Mof_S 	S 	0.2155	0.94841	0.08981	-0.551
Mof_S 	S 	0.24022	0.1151	0.04508	-0.548
Mof_S 	S 	0.28994	0.99048	0.92419	-0.524
Mof_N 	N 	0.3118	0.0534	0.2197	-0.25
Mof_N 	N 	0.5926	0.0848	0.4712	-0.249
Mof_N 	N 	0.1527	0.059	0.19	-0.23
Mof_N 	N 	0.1811	0.6472	0.6197	-0.234
Mof_N 	N 	0.2428	0.839	0.9399	-0.22
Mof_C 	C 	0.3593	0.012	0.224	0.078
Mof_H 	H 	0.3554	0.9777	0.192	-0.028
Mof_C 	C 	0.4135	0.0167	0.2725	-0.136
Mof_H 	H 	0.4447	0.9861	0.2725	0.078
Mof_C 	C 	0.4217	0.0667	0.3213	0.054
Mof_C 	C 	0.3724	0.1102	0.3191	-0.138
Mof_H 	H 	0.3748	0.1443	0.3515	0.076
Mof_C 	C 	0.3199	0.1015	0.2678	0.078
Mof_H 	H 	0.2877	0.1312	0.2666	-0.013
Mof_C 	C 	0.5696	0.0293	0.449	0.078
Mof_H 	H 	0.5918	0.9935	0.466	-0.031
Mof_C 	C 	0.5142	0.0216	0.4018	-0.141
Mof_H 	H 	0.5002	0.9814	0.388	0.086
Mof_C 	C 	0.4798	0.0733	0.3753	0.064
Mof_C 	C 	0.5027	0.1304	0.401	-0.145
Mof_H 	H 	0.4804	0.1668	0.3869	0.081
Mof_C 	C 	0.5581	0.1343	0.4472	0.091
Mof_H 	H 	0.5725	0.174	0.4627	-0.019
Mof_C 	C 	0.1436	0.0362	0.2573	0.067
Mof_H 	H 	0.1781	0.0212	0.2882	-0.019
Mof_C 	C 	0.0843	0.0344	0.282	-0.135
Mof_H 	H 	0.0798	0.0187	0.3293	0.056
Mof_C 	C 	0.0321	0.0555	0.2376	0.051
Mof_C 	C 	0.0416	0.0774	0.1674	-0.139
Mof_H 	H 	0.0075	0.0905	0.1344	0.071
Mof_C 	C 	0.1021	0.0795	0.147	0.07
Mof_H 	H 	0.1079	0.0962	0.1005	-0.026
Mof_C 	C 	0.1713	0.7089	0.6164	0.077
Mof_H 	H 	0.1583	0.7271	0.5703	-0.013
Mof_C 	C 	0.1797	0.7472	0.6792	-0.134
Mof_H 	H 	0.1743	0.7904	0.6741	0.072
Mof_C 	C 	0.1959	0.722	0.7487	0.054
Mof_C 	C 	0.2036	0.6565	0.7515	-0.13
Mof_H 	H 	0.2137	0.6365	0.7971	0.074
Mof_C 	C 	0.1962	0.6225	0.6874	0.068
Mof_H 	H 	0.202	0.5793	0.6908	-0.012
Mof_C 	C 	0.1923	0.8508	0.8911	0.083
Mof_H 	H 	0.1681	0.8861	0.899	-0.029
Mof_C 	C 	0.1737	0.8134	0.8288	-0.143
Mof_H 	H 	0.1382	0.8236	0.7962	0.085
Mof_C 	C 	0.2094	0.761	0.8171	0.066
Mof_C 	C 	0.2607	0.7475	0.869	-0.142
Mof_H 	H 	0.2848	0.7117	0.8638	0.076
Mof_C 	C 	0.2757	0.7876	0.9285	0.072
Mof_H 	H 	0.3107	0.7782	0.9623	0.005
Mof_Mo	Mo	0.286	0.5189	0.50471	0.515
Mof_Br	Br	0.11849	0.3644	0.43013	-0.419
Mof_Cu	Cu	0.26256	0.54561	0.35905	0.825
Mof_Cu	Cu	0.18244	0.58808	0.52769	0.824
Mof_Cu	Cu	0.21503	0.41305	0.48751	0.835
Mof_S 	S 	0.2845	0.44841	0.41019	-0.55
Mof_S 	S 	0.25978	0.6151	0.45492	-0.552
Mof_S 	S 	0.21006	0.49048	0.57581	-0.53
Mof_N 	N 	0.1882	0.5534	0.2803	-0.25
Mof_N 	N 	0.9074	0.5848	0.0288	-0.249
Mof_N 	N 	0.3473	0.559	0.31	-0.231
Mof_N 	N 	0.3189	0.1472	0.8803	-0.234
Mof_N 	N 	0.2572	0.339	0.5601	-0.221
Mof_C 	C 	0.1407	0.512	0.276	0.075
Mof_H 	H 	0.1446	0.4777	0.308	-0.025
Mof_C 	C 	0.0865	0.5167	0.2275	-0.138
Mof_H 	H 	0.0553	0.4861	0.2275	0.08
Mof_C 	C 	0.0783	0.5667	0.1787	0.055
Mof_C 	C 	0.1276	0.6102	0.1809	-0.139
Mof_H 	H 	0.1252	0.6443	0.1485	0.076
Mof_C 	C 	0.1801	0.6015	0.2322	0.078
Mof_H 	H 	0.2123	0.6312	0.2334	-0.013
Mof_C 	C 	0.9304	0.5293	0.051	0.077
Mof_H 	H 	0.9082	0.4935	0.034	-0.03
Mof_C 	C 	0.9858	0.5216	0.0982	-0.141
Mof_H 	H 	0.9998	0.4814	0.112	0.086
Mof_C 	C 	0.0202	0.5733	0.1247	0.062
Mof_C 	C 	0.9973	0.6304	0.099	-0.143
Mof_H 	H 	0.0196	0.6668	0.1131	0.079
Mof_C 	C 	0.9419	0.6343	0.0528	0.09
Mof_H 	H 	0.9275	0.674	0.0373	-0.019
Mof_C 	C 	0.3564	0.5362	0.2427	0.067
Mof_H 	H 	0.3219	0.5212	0.2118	-0.019
Mof_C 	C 	0.4157	0.5344	0.218	-0.136
Mof_H 	H 	0.4202	0.5187	0.1707	0.057
Mof_C 	C 	0.4679	0.5555	0.2624	0.052
Mof_C 	C 	0.4584	0.5774	0.3326	-0.14
Mof_H 	H 	0.4925	0.5905	0.3656	0.071
Mof_C 	C 	0.3979	0.5795	0.353	0.07
Mof_H 	H 	0.3921	0.5962	0.3995	-0.027
Mof_C 	C 	0.3287	0.2089	0.8836	0.077
Mof_H 	H 	0.3417	0.2271	0.9297	-0.013
Mof_C 	C 	0.3203	0.2472	0.8208	-0.134
Mof_H 	H 	0.3257	0.2904	0.8259	0.072
Mof_C 	C 	0.3041	0.222	0.7513	0.054
Mof_C 	C 	0.2964	0.1565	0.7485	-0.13
Mof_H 	H 	0.2863	0.1365	0.7029	0.074
Mof_C 	C 	0.3038	0.1225	0.8126	0.068
Mof_H 	H 	0.298	0.0793	0.8092	-0.013
Mof_C 	C 	0.3077	0.3508	0.6089	0.083
Mof_H 	H 	0.3319	0.3861	0.601	-0.029
Mof_C 	C 	0.3263	0.3134	0.6712	-0.143
Mof_H 	H 	0.3618	0.3236	0.7038	0.085
Mof_C 	C 	0.2906	0.261	0.6829	0.066
Mof_C 	C 	0.2393	0.2475	0.631	-0.143
Mof_H 	H 	0.2152	0.2117	0.6362	0.076
Mof_C 	C 	0.2243	0.2876	0.5715	0.072
Mof_H 	H 	0.1893	0.2782	0.5377	0.004
Mof_Mo	Mo	0.786	0.0189	0.50471	0.515
Mof_Br	Br	0.61849	0.8644	0.43013	-0.419
Mof_Cu	Cu	0.76256	0.04561	0.35905	0.825
Mof_Cu	Cu	0.68244	0.08808	0.52769	0.824
Mof_Cu	Cu	0.71503	0.91305	0.48751	0.835
Mof_S 	S 	0.7845	0.94841	0.41019	-0.551
Mof_S 	S 	0.75978	0.1151	0.45492	-0.552
Mof_S 	S 	0.71006	0.99048	0.57581	-0.529
Mof_N 	N 	0.6882	0.0534	0.2803	-0.25
Mof_N 	N 	0.4074	0.0848	0.0288	-0.249
Mof_N 	N 	0.8473	0.059	0.31	-0.231
Mof_N 	N 	0.8189	0.6472	0.8803	-0.234
Mof_N 	N 	0.7572	0.839	0.5601	-0.221
Mof_C 	C 	0.6407	0.012	0.276	0.076
Mof_H 	H 	0.6446	0.9777	0.308	-0.027
Mof_C 	C 	0.5865	0.0167	0.2275	-0.134
Mof_H 	H 	0.5553	0.9861	0.2275	0.077
Mof_C 	C 	0.5783	0.0667	0.1787	0.053
Mof_C 	C 	0.6276	0.1102	0.1809	-0.138
Mof_H 	H 	0.6252	0.1443	0.1485	0.076
Mof_C 	C 	0.6801	0.1015	0.2322	0.077
Mof_H 	H 	0.7123	0.1312	0.2334	-0.013
Mof_C 	C 	0.4304	0.0293	0.051	0.083
Mof_H 	H 	0.4082	0.9935	0.034	-0.035
Mof_C 	C 	0.4858	0.0216	0.0982	-0.139
Mof_H 	H 	0.4998	0.9814	0.112	0.084
Mof_C 	C 	0.5202	0.0733	0.1247	0.064
Mof_C 	C 	0.4973	0.1304	0.099	-0.145
Mof_H 	H 	0.5196	0.1668	0.1131	0.081
Mof_C 	C 	0.4419	0.1343	0.0528	0.091
Mof_H 	H 	0.4275	0.174	0.0373	-0.018
Mof_C 	C 	0.8564	0.0362	0.2427	0.068
Mof_H 	H 	0.8219	0.0212	0.2118	-0.019
Mof_C 	C 	0.9157	0.0344	0.218	-0.136
Mof_H 	H 	0.9202	0.0187	0.1707	0.058
Mof_C 	C 	0.9679	0.0555	0.2624	0.053
Mof_C 	C 	0.9584	0.0774	0.3326	-0.141
Mof_H 	H 	0.9925	0.0905	0.3656	0.071
Mof_C 	C 	0.8979	0.0795	0.353	0.07
Mof_H 	H 	0.8921	0.0962	0.3995	-0.027
Mof_C 	C 	0.8287	0.7089	0.8836	0.077
Mof_H 	H 	0.8417	0.7271	0.9297	-0.012
Mof_C 	C 	0.8203	0.7472	0.8208	-0.133
Mof_H 	H 	0.8257	0.7904	0.8259	0.072
Mof_C 	C 	0.8041	0.722	0.7513	0.054
Mof_C 	C 	0.7964	0.6565	0.7485	-0.13
Mof_H 	H 	0.7863	0.6365	0.7029	0.074
Mof_C 	C 	0.8038	0.6225	0.8126	0.068
Mof_H 	H 	0.798	0.5793	0.8092	-0.012
Mof_C 	C 	0.8077	0.8508	0.6089	0.083
Mof_H 	H 	0.8319	0.8861	0.601	-0.03
Mof_C 	C 	0.8263	0.8134	0.6712	-0.143
Mof_H 	H 	0.8618	0.8236	0.7038	0.085
Mof_C 	C 	0.7906	0.761	0.6829	0.066
Mof_C 	C 	0.7393	0.7475	0.631	-0.143
Mof_H 	H 	0.7152	0.7117	0.6362	0.076
Mof_C 	C 	0.7243	0.7876	0.5715	0.072
Mof_H 	H 	0.6893	0.7782	0.5377	0.004
Mof_Mo	Mo	0.286	0.4811	0.00471	0.516
Mof_Br	Br	0.11849	0.6356	0.93013	-0.418
Mof_Cu	Cu	0.26256	0.45439	0.85905	0.825
Mof_Cu	Cu	0.18244	0.41192	0.02769	0.824
Mof_Cu	Cu	0.21503	0.58695	0.98751	0.835
Mof_S 	S 	0.2845	0.55159	0.91019	-0.55
Mof_S 	S 	0.25978	0.3849	0.95492	-0.552
Mof_S 	S 	0.21006	0.50952	0.07581	-0.53
Mof_N 	N 	0.1882	0.4466	0.7803	-0.25
Mof_N 	N 	0.9074	0.4152	0.5288	-0.25
Mof_N 	N 	0.3473	0.441	0.81	-0.231
Mof_N 	N 	0.3189	0.8528	0.3803	-0.234
Mof_N 	N 	0.2572	0.661	0.0601	-0.221
Mof_C 	C 	0.1407	0.488	0.776	0.075
Mof_H 	H 	0.1446	0.5223	0.808	-0.025
Mof_C 	C 	0.0865	0.4833	0.7275	-0.137
Mof_H 	H 	0.0553	0.5139	0.7275	0.08
Mof_C 	C 	0.0783	0.4333	0.6787	0.053
Mof_C 	C 	0.1276	0.3898	0.6809	-0.138
Mof_H 	H 	0.1252	0.3557	0.6485	0.076
Mof_C 	C 	0.1801	0.3985	0.7322	0.077
Mof_H 	H 	0.2123	0.3688	0.7334	-0.013
Mof_C 	C 	0.9304	0.4707	0.551	0.078
Mof_H 	H 	0.9082	0.5065	0.534	-0.031
Mof_C 	C 	0.9858	0.4784	0.5982	-0.143
Mof_H 	H 	0.9998	0.5186	0.612	0.087
Mof_C 	C 	0.0202	0.4267	0.6247	0.065
Mof_C 	C 	0.9973	0.3696	0.599	-0.147
Mof_H 	H 	0.0196	0.3332	0.6131	0.081
Mof_C 	C 	0.9419	0.3657	0.5528	0.092
Mof_H 	H 	0.9275	0.326	0.5373	-0.02
Mof_C 	C 	0.3564	0.4638	0.7427	0.067
Mof_H 	H 	0.3219	0.4788	0.7118	-0.019
Mof_C 	C 	0.4157	0.4656	0.718	-0.136
Mof_H 	H 	0.4202	0.4813	0.6707	0.056
Mof_C 	C 	0.4679	0.4445	0.7624	0.052
Mof_C 	C 	0.4584	0.4226	0.8326	-0.14
Mof_H 	H 	0.4925	0.4095	0.8656	0.071
Mof_C 	C 	0.3979	0.4205	0.853	0.07
Mof_H 	H 	0.3921	0.4038	0.8995	-0.027
Mof_C 	C 	0.3287	0.7911	0.3836	0.077
Mof_H 	H 	0.3417	0.7729	0.4297	-0.012
Mof_C 	C 	0.3203	0.7528	0.3208	-0.134
Mof_H 	H 	0.3257	0.7096	0.3259	0.072
Mof_C 	C 	0.3041	0.778	0.2513	0.054
Mof_C 	C 	0.2964	0.8435	0.2485	-0.13
Mof_H 	H 	0.2863	0.8635	0.2029	0.074
Mof_C 	C 	0.3038	0.8775	0.3126	0.068
Mof_H 	H 	0.298	0.9207	0.3092	-0.012
Mof_C 	C 	0.3077	0.6492	0.1089	0.083
Mof_H 	H 	0.3319	0.6139	0.101	-0.029
Mof_C 	C 	0.3263	0.6866	0.1712	-0.143
Mof_H 	H 	0.3618	0.6764	0.2038	0.085
Mof_C 	C 	0.2906	0.739	0.1829	0.066
Mof_C 	C 	0.2393	0.7525	0.131	-0.143
Mof_H 	H 	0.2152	0.7883	0.1362	0.076
Mof_C 	C 	0.2243	0.7124	0.0715	0.072
Mof_H 	H 	0.1893	0.7218	0.0377	0.004
Mof_Mo	Mo	0.786	0.9811	0.00471	0.508
Mof_Br	Br	0.61849	0.1356	0.93013	-0.42
Mof_Cu	Cu	0.76256	0.95439	0.85905	0.826
Mof_Cu	Cu	0.68244	0.91192	0.02769	0.823
Mof_Cu	Cu	0.71503	0.08695	0.98751	0.834
Mof_S 	S 	0.7845	0.05159	0.91019	-0.551
Mof_S 	S 	0.75978	0.8849	0.95492	-0.548
Mof_S 	S 	0.71006	0.00952	0.07581	-0.524
Mof_N 	N 	0.6882	0.9466	0.7803	-0.25
Mof_N 	N 	0.4074	0.9152	0.5288	-0.249
Mof_N 	N 	0.8473	0.941	0.81	-0.23
Mof_N 	N 	0.8189	0.3528	0.3803	-0.234
Mof_N 	N 	0.7572	0.161	0.0601	-0.22
Mof_C 	C 	0.6407	0.988	0.776	0.078
Mof_H 	H 	0.6446	0.0223	0.808	-0.028
Mof_C 	C 	0.5865	0.9833	0.7275	-0.136
Mof_H 	H 	0.5553	0.0139	0.7275	0.078
Mof_C 	C 	0.5783	0.9333	0.6787	0.054
Mof_C 	C 	0.6276	0.8898	0.6809	-0.138
Mof_H 	H 	0.6252	0.8557	0.6485	0.076
Mof_C 	C 	0.6801	0.8985	0.7322	0.078
Mof_H 	H 	0.7123	0.8688	0.7334	-0.013
Mof_C 	C 	0.4304	0.9707	0.551	0.078
Mof_H 	H 	0.4082	0.0065	0.534	-0.031
Mof_C 	C 	0.4858	0.9784	0.5982	-0.141
Mof_H 	H 	0.4998	0.0186	0.612	0.086
Mof_C 	C 	0.5202	0.9267	0.6247	0.064
Mof_C 	C 	0.4973	0.8696	0.599	-0.145
Mof_H 	H 	0.5196	0.8332	0.6131	0.081
Mof_C 	C 	0.4419	0.8657	0.5528	0.091
Mof_H 	H 	0.4275	0.826	0.5373	-0.019
Mof_C 	C 	0.8564	0.9638	0.7427	0.067
Mof_H 	H 	0.8219	0.9788	0.7118	-0.019
Mof_C 	C 	0.9157	0.9656	0.718	-0.135
Mof_H 	H 	0.9202	0.9813	0.6707	0.056
Mof_C 	C 	0.9679	0.9445	0.7624	0.051
Mof_C 	C 	0.9584	0.9226	0.8326	-0.139
Mof_H 	H 	0.9925	0.9095	0.8656	0.071
Mof_C 	C 	0.8979	0.9205	0.853	0.07
Mof_H 	H 	0.8921	0.9038	0.8995	-0.026
Mof_C 	C 	0.8287	0.2911	0.3836	0.077
Mof_H 	H 	0.8417	0.2729	0.4297	-0.013
Mof_C 	C 	0.8203	0.2528	0.3208	-0.134
Mof_H 	H 	0.8257	0.2096	0.3259	0.072
Mof_C 	C 	0.8041	0.278	0.2513	0.054
Mof_C 	C 	0.7964	0.3435	0.2485	-0.13
Mof_H 	H 	0.7863	0.3635	0.2029	0.074
Mof_C 	C 	0.8038	0.3775	0.3126	0.068
Mof_H 	H 	0.798	0.4207	0.3092	-0.012
Mof_C 	C 	0.8077	0.1492	0.1089	0.083
Mof_H 	H 	0.8319	0.1139	0.101	-0.029
Mof_C 	C 	0.8263	0.1866	0.1712	-0.143
Mof_H 	H 	0.8618	0.1764	0.2038	0.085
Mof_C 	C 	0.7906	0.239	0.1829	0.066
Mof_C 	C 	0.7393	0.2525	0.131	-0.142
Mof_H 	H 	0.7152	0.2883	0.1362	0.076
Mof_C 	C 	0.7243	0.2124	0.0715	0.072
Mof_H 	H 	0.6893	0.2218	0.0377	0.005
Mof_Mo	Mo	0.714	0.4811	0.49529	0.515
Mof_Br	Br	0.88151	0.6356	0.56987	-0.419
Mof_Cu	Cu	0.73744	0.45439	0.64095	0.825
Mof_Cu	Cu	0.81756	0.41192	0.47231	0.824
Mof_Cu	Cu	0.78497	0.58695	0.51249	0.835
Mof_S 	S 	0.7155	0.55159	0.58981	-0.55
Mof_S 	S 	0.74022	0.3849	0.54508	-0.552
Mof_S 	S 	0.78994	0.50952	0.42419	-0.53
Mof_N 	N 	0.8118	0.4466	0.7197	-0.25
Mof_N 	N 	0.0926	0.4152	0.9712	-0.249
Mof_N 	N 	0.6527	0.441	0.69	-0.231
Mof_N 	N 	0.6811	0.8528	0.1197	-0.234
Mof_N 	N 	0.7428	0.661	0.4399	-0.221
Mof_C 	C 	0.8593	0.488	0.724	0.075
Mof_H 	H 	0.8554	0.5223	0.692	-0.025
Mof_C 	C 	0.9135	0.4833	0.7725	-0.138
Mof_H 	H 	0.9447	0.5139	0.7725	0.08
Mof_C 	C 	0.9217	0.4333	0.8213	0.055
Mof_C 	C 	0.8724	0.3898	0.8191	-0.139
Mof_H 	H 	0.8748	0.3557	0.8515	0.076
Mof_C 	C 	0.8199	0.3985	0.7678	0.078
Mof_H 	H 	0.7877	0.3688	0.7666	-0.013
Mof_C 	C 	0.0696	0.4707	0.949	0.077
Mof_H 	H 	0.0918	0.5065	0.966	-0.03
Mof_C 	C 	0.0142	0.4784	0.9018	-0.141
Mof_H 	H 	0.0002	0.5186	0.888	0.086
Mof_C 	C 	0.9798	0.4267	0.8753	0.062
Mof_C 	C 	0.0027	0.3696	0.901	-0.143
Mof_H 	H 	0.9804	0.3332	0.8869	0.079
Mof_C 	C 	0.0581	0.3657	0.9472	0.09
Mof_H 	H 	0.0725	0.326	0.9627	-0.019
Mof_C 	C 	0.6436	0.4638	0.7573	0.067
Mof_H 	H 	0.6781	0.4788	0.7882	-0.019
Mof_C 	C 	0.5843	0.4656	0.782	-0.136
Mof_H 	H 	0.5798	0.4813	0.8293	0.057
Mof_C 	C 	0.5321	0.4445	0.7376	0.052
Mof_C 	C 	0.5416	0.4226	0.6674	-0.14
Mof_H 	H 	0.5075	0.4095	0.6344	0.071
Mof_C 	C 	0.6021	0.4205	0.647	0.07
Mof_H 	H 	0.6079	0.4038	0.6005	-0.027
Mof_C 	C 	0.6713	0.7911	0.1164	0.077
Mof_H 	H 	0.6583	0.7729	0.0703	-0.013
Mof_C 	C 	0.6797	0.7528	0.1792	-0.134
Mof_H 	H 	0.6743	0.7096	0.1741	0.072
Mof_C 	C 	0.6959	0.778	0.2487	0.054
Mof_C 	C 	0.7036	0.8435	0.2515	-0.13
Mof_H 	H 	0.7137	0.8635	0.2971	0.074
Mof_C 	C 	0.6962	0.8775	0.1874	0.068
Mof_H 	H 	0.702	0.9207	0.1908	-0.013
Mof_C 	C 	0.6923	0.6492	0.3911	0.083
Mof_H 	H 	0.6681	0.6139	0.399	-0.029
Mof_C 	C 	0.6737	0.6866	0.3288	-0.143
Mof_H 	H 	0.6382	0.6764	0.2962	0.085
Mof_C 	C 	0.7094	0.739	0.3171	0.066
Mof_C 	C 	0.7607	0.7525	0.369	-0.143
Mof_H 	H 	0.7848	0.7883	0.3638	0.076
Mof_C 	C 	0.7757	0.7124	0.4285	0.072
Mof_H 	H 	0.8107	0.7218	0.4623	0.004
Mof_Mo	Mo	0.214	0.9811	0.49529	0.515
Mof_Br	Br	0.38151	0.1356	0.56987	-0.419
Mof_Cu	Cu	0.23744	0.95439	0.64095	0.825
Mof_Cu	Cu	0.31756	0.91192	0.47231	0.824
Mof_Cu	Cu	0.28497	0.08695	0.51249	0.835
Mof_S 	S 	0.2155	0.05159	0.58981	-0.551
Mof_S 	S 	0.24022	0.8849	0.54508	-0.552
Mof_S 	S 	0.28994	0.00952	0.42419	-0.529
Mof_N 	N 	0.3118	0.9466	0.7197	-0.25
Mof_N 	N 	0.5926	0.9152	0.9712	-0.249
Mof_N 	N 	0.1527	0.941	0.69	-0.231
Mof_N 	N 	0.1811	0.3528	0.1197	-0.234
Mof_N 	N 	0.2428	0.161	0.4399	-0.221
Mof_C 	C 	0.3593	0.988	0.724	0.076
Mof_H 	H 	0.3554	0.0223	0.692	-0.027
Mof_C 	C 	0.4135	0.9833	0.7725	-0.134
Mof_H 	H 	0.4447	0.0139	0.7725	0.077
Mof_C 	C 	0.4217	0.9333	0.8213	0.053
Mof_C 	C 	0.3724	0.8898	0.8191	-0.138
Mof_H 	H 	0.3748	0.8557	0.8515	0.076
Mof_C 	C 	0.3199	0.8985	0.7678	0.077
Mof_H 	H 	0.2877	0.8688	0.7666	-0.013
Mof_C 	C 	0.5696	0.9707	0.949	0.083
Mof_H 	H 	0.5918	0.0065	0.966	-0.035
Mof_C 	C 	0.5142	0.9784	0.9018	-0.139
Mof_H 	H 	0.5002	0.0186	0.888	0.084
Mof_C 	C 	0.4798	0.9267	0.8753	0.064
Mof_C 	C 	0.5027	0.8696	0.901	-0.145
Mof_H 	H 	0.4804	0.8332	0.8869	0.081
Mof_C 	C 	0.5581	0.8657	0.9472	0.091
Mof_H 	H 	0.5725	0.826	0.9627	-0.018
Mof_C 	C 	0.1436	0.9638	0.7573	0.068
Mof_H 	H 	0.1781	0.9788	0.7882	-0.019
Mof_C 	C 	0.0843	0.9656	0.782	-0.136
Mof_H 	H 	0.0798	0.9813	0.8293	0.058
Mof_C 	C 	0.0321	0.9445	0.7376	0.053
Mof_C 	C 	0.0416	0.9226	0.6674	-0.141
Mof_H 	H 	0.0075	0.9095	0.6344	0.071
Mof_C 	C 	0.1021	0.9205	0.647	0.07
Mof_H 	H 	0.1079	0.9038	0.6005	-0.027
Mof_C 	C 	0.1713	0.2911	0.1164	0.077
Mof_H 	H 	0.1583	0.2729	0.0703	-0.012
Mof_C 	C 	0.1797	0.2528	0.1792	-0.133
Mof_H 	H 	0.1743	0.2096	0.1741	0.072
Mof_C 	C 	0.1959	0.278	0.2487	0.054
Mof_C 	C 	0.2036	0.3435	0.2515	-0.13
Mof_H 	H 	0.2137	0.3635	0.2971	0.074
Mof_C 	C 	0.1962	0.3775	0.1874	0.068
Mof_H 	H 	0.202	0.4207	0.1908	-0.012
Mof_C 	C 	0.1923	0.1492	0.3911	0.083
Mof_H 	H 	0.1681	0.1139	0.399	-0.03
Mof_C 	C 	0.1737	0.1866	0.3288	-0.143
Mof_H 	H 	0.1382	0.1764	0.2962	0.085
Mof_C 	C 	0.2094	0.239	0.3171	0.066
Mof_C 	C 	0.2607	0.2525	0.369	-0.143
Mof_H 	H 	0.2848	0.2883	0.3638	0.076
Mof_C 	C 	0.2757	0.2124	0.4285	0.072
Mof_H 	H 	0.3107	0.2218	0.4623	0.004
_end
