data_functionalizedCrystal
_audit_creation_method	'EQeq! by Chris Wilmer'
_symmetry_space_group_name_H-M	'P1'
_symmetry_Int_Tables_number	1
_symmetry_cell_setting	triclinic
loop_
_symmetry_equiv_pos_as_xyz
  x,y,z
_cell_length_a	26.0729
_cell_length_b	26.0729
_cell_length_c	26.0729
_cell_angle_alpha	90
_cell_angle_beta	90
_cell_angle_gamma	90
loop_
_atom_site_label
_atom_site_type_symbol
_atom_site_fract_x
_atom_site_fract_y
_atom_site_fract_z
_atom_site_charge
Mof_Zr	Zr	0.9847	0.40759	0.98687	3.247
Mof_O 	O 	0.9317	0.4644	0.9495	0.93
Mof_C 	C 	0.986	0.31957	0.13527	0.079
Mof_C 	C 	0.99375	0.36352	0.10039	0.404
Mof_O 	O 	0.00641	0.40551	0.12166	-0.664
Mof_O 	O 	0.98735	0.35497	0.05292	-0.656
Mof_C 	C 	0.9635	0.1338	0.3218	-0.145
Mof_C 	C 	0.9672	0.09846	0.3659	0.495
Mof_O 	O 	0.9681	0.12041	0.40977	-0.693
Mof_O 	O 	0.96915	0.05116	0.35666	-0.669
Mof_C 	C 	0.9731	0.2416	0.2033	-0.227
Mof_C 	C 	0.9675	0.2015	0.2427	0.098
Mof_C 	C 	0.9876	0.2281	0.1505	-4.985
Mof_H 	H 	0.9969	0.1951	0.1407	1.752
Mof_C 	C 	0.9859	0.2699	0.1164	-2.891
Mof_H 	H 	0.9848	0.2642	0.0812	1.074
Mof_C 	C 	0.985	0.3285	0.1895	0.135
Mof_H 	H 	0.9921	0.361	0.2025	-0.05
Mof_C 	C 	0.9673	0.1474	0.2316	-0.205
Mof_H 	H 	0.9674	0.1357	0.1979	0.12
Mof_C 	C 	0.9671	0.1164	0.2682	-0.053
Mof_H 	H 	0.9693	0.0815	0.2615	0.077
Mof_C 	C 	0.9646	0.1858	0.3286	0.057
Mof_H 	H 	0.9633	0.1989	0.3617	-0.008
Mof_N 	N 	0.9737	0.2896	0.2214	-0.636
Mof_N 	N 	0.9675	0.2175	0.2901	0.016
Mof_Co	Co	0.96813	0.29983	0.30084	0.732
Mof_Cl	Cl	0.0162	0.2949	0.3868	-0.062
Mof_Cl	Cl	0.0302	0.3781	0.2922	-0.338
Mof_Co	Co	0.0025	0.29575	0.2995	0.869
Mof_C 	C 	0.9579	0.2328	0.1516	5.084
Mof_H 	H 	0.9448	0.2013	0.1411	-1.504
Mof_C 	C 	0.9636	0.2732	0.1179	2.602
Mof_H 	H 	0.9528	0.27	0.084	-0.975
Mof_C 	C 	0.003	0.3226	0.1847	-0.2
Mof_H 	H 	0.0206	0.3519	0.1948	0.145
Mof_C 	C 	0.9457	0.1542	0.235	0.076
Mof_H 	H 	0.93	0.1466	0.2039	0.008
Mof_C 	C 	0.9472	0.1173	0.2745	0.116
Mof_H 	H 	0.9376	0.0834	0.2688	0.019
Mof_C 	C 	0.9814	0.1838	0.3293	-0.011
Mof_H 	H 	0.9923	0.193	0.362	0.061
Mof_N 	N 	0.9955	0.2862	0.2186	0.429
Mof_N 	N 	0.9842	0.2215	0.2901	-0.282
Mof_O 	O 	0.9486	0.4736	0.9621	-1.972
Mof_Cl	Cl	0.0414	0.2903	0.3511	-0.613
Mof_Cl	Cl	0.9624	0.3867	0.3009	-0.435
Mof_Zr	Zr	0.5153	0.59241	0.48687	3.246
Mof_O 	O 	0.5683	0.5356	0.4495	0.926
Mof_C 	C 	0.514	0.68043	0.63527	0.079
Mof_C 	C 	0.50625	0.63648	0.60039	0.401
Mof_O 	O 	0.49359	0.59449	0.62166	-0.663
Mof_O 	O 	0.51265	0.64503	0.55292	-0.657
Mof_C 	C 	0.5365	0.8662	0.8218	-0.145
Mof_C 	C 	0.5328	0.90154	0.8659	0.495
Mof_O 	O 	0.5319	0.87959	0.90977	-0.694
Mof_O 	O 	0.53085	0.94884	0.85666	-0.67
Mof_C 	C 	0.5269	0.7584	0.7033	-0.227
Mof_C 	C 	0.5325	0.7985	0.7427	0.094
Mof_C 	C 	0.5124	0.7719	0.6505	-5.018
Mof_H 	H 	0.5031	0.8049	0.6407	1.764
Mof_C 	C 	0.5141	0.7301	0.6164	-2.91
Mof_H 	H 	0.5152	0.7358	0.5812	1.081
Mof_C 	C 	0.515	0.6715	0.6895	0.142
Mof_H 	H 	0.5079	0.639	0.7025	-0.053
Mof_C 	C 	0.5327	0.8526	0.7316	-0.208
Mof_H 	H 	0.5326	0.8643	0.6979	0.122
Mof_C 	C 	0.5329	0.8836	0.7682	-0.056
Mof_H 	H 	0.5307	0.9185	0.7615	0.078
Mof_C 	C 	0.5354	0.8142	0.8286	0.061
Mof_H 	H 	0.5367	0.8011	0.8617	-0.01
Mof_N 	N 	0.5263	0.7104	0.7214	-0.64
Mof_N 	N 	0.5325	0.7825	0.7901	0.045
Mof_Co	Co	0.53187	0.70017	0.80084	0.731
Mof_Cl	Cl	0.4838	0.7051	0.8868	-0.062
Mof_Cl	Cl	0.4698	0.6219	0.7922	-0.337
Mof_Co	Co	0.4975	0.70425	0.7995	0.871
Mof_C 	C 	0.5421	0.7672	0.6516	5.118
Mof_H 	H 	0.5552	0.7987	0.6411	-1.514
Mof_C 	C 	0.5364	0.7268	0.6179	2.62
Mof_H 	H 	0.5472	0.73	0.584	-0.982
Mof_C 	C 	0.497	0.6774	0.6847	-0.206
Mof_H 	H 	0.4794	0.6481	0.6948	0.149
Mof_C 	C 	0.5543	0.8458	0.735	0.081
Mof_H 	H 	0.57	0.8534	0.7039	0.006
Mof_C 	C 	0.5528	0.8827	0.7745	0.118
Mof_H 	H 	0.5624	0.9166	0.7688	0.018
Mof_C 	C 	0.5186	0.8162	0.8293	-0.018
Mof_H 	H 	0.5077	0.807	0.862	0.064
Mof_N 	N 	0.5045	0.7138	0.7186	0.434
Mof_N 	N 	0.5158	0.7785	0.7901	-0.309
Mof_O 	O 	0.5514	0.5264	0.4621	-1.968
Mof_Cl	Cl	0.4586	0.7097	0.8511	-0.612
Mof_Cl	Cl	0.5376	0.6133	0.8009	-0.436
Mof_Zr	Zr	0.0153	0.90759	0.51313	3.246
Mof_O 	O 	0.0683	0.9644	0.5505	0.925
Mof_C 	C 	0.014	0.81957	0.36473	0.082
Mof_C 	C 	0.00625	0.86352	0.39961	0.401
Mof_O 	O 	0.99359	0.90551	0.37834	-0.664
Mof_O 	O 	0.01265	0.85497	0.44708	-0.657
Mof_C 	C 	0.0365	0.6338	0.1782	-0.144
Mof_C 	C 	0.0328	0.59846	0.1341	0.494
Mof_O 	O 	0.0319	0.62041	0.09023	-0.694
Mof_O 	O 	0.03085	0.55116	0.14334	-0.669
Mof_C 	C 	0.0269	0.7416	0.2967	-0.228
Mof_C 	C 	0.0325	0.7015	0.2573	0.089
Mof_C 	C 	0.0124	0.7281	0.3495	-5.085
Mof_H 	H 	0.0031	0.6951	0.3593	1.787
Mof_C 	C 	0.0141	0.7699	0.3836	-2.949
Mof_H 	H 	0.0152	0.7642	0.4188	1.095
Mof_C 	C 	0.015	0.8285	0.3105	0.141
Mof_H 	H 	0.0079	0.861	0.2975	-0.053
Mof_C 	C 	0.0327	0.6474	0.2684	-0.212
Mof_H 	H 	0.0326	0.6357	0.3021	0.123
Mof_C 	C 	0.0329	0.6164	0.2318	-0.06
Mof_H 	H 	0.0307	0.5815	0.2385	0.08
Mof_C 	C 	0.0354	0.6858	0.1714	0.069
Mof_H 	H 	0.0367	0.6989	0.1383	-0.013
Mof_N 	N 	0.0263	0.7896	0.2786	-0.646
Mof_N 	N 	0.0325	0.7175	0.2099	0.094
Mof_Co	Co	0.03187	0.79983	0.19916	0.731
Mof_Cl	Cl	0.9838	0.7949	0.1132	-0.063
Mof_Cl	Cl	0.9698	0.8781	0.2078	-0.337
Mof_Co	Co	0.9975	0.79575	0.2005	0.872
Mof_C 	C 	0.0421	0.7328	0.3484	5.186
Mof_H 	H 	0.0552	0.7013	0.3589	-1.535
Mof_C 	C 	0.0364	0.7732	0.3821	2.654
Mof_H 	H 	0.0472	0.77	0.416	-0.995
Mof_C 	C 	0.997	0.8226	0.3153	-0.207
Mof_H 	H 	0.9794	0.8519	0.3052	0.149
Mof_C 	C 	0.0543	0.6542	0.265	0.087
Mof_H 	H 	0.07	0.6466	0.2961	0.004
Mof_C 	C 	0.0528	0.6173	0.2255	0.121
Mof_H 	H 	0.0624	0.5834	0.2312	0.017
Mof_C 	C 	0.0186	0.6838	0.1707	-0.032
Mof_H 	H 	0.0077	0.693	0.138	0.07
Mof_N 	N 	0.0045	0.7862	0.2814	0.441
Mof_N 	N 	0.0158	0.7215	0.2099	-0.356
Mof_O 	O 	0.0514	0.9736	0.5379	-1.966
Mof_Cl	Cl	0.9586	0.7903	0.1489	-0.61
Mof_Cl	Cl	0.0376	0.8867	0.1991	-0.435
Mof_Zr	Zr	0.4847	0.09241	0.01313	3.246
Mof_O 	O 	0.4317	0.0356	0.0505	0.925
Mof_C 	C 	0.486	0.18043	0.86473	0.081
Mof_C 	C 	0.49375	0.13648	0.89961	0.4
Mof_O 	O 	0.50641	0.09449	0.87834	-0.663
Mof_O 	O 	0.48735	0.14503	0.94708	-0.656
Mof_C 	C 	0.4635	0.3662	0.6782	-0.144
Mof_C 	C 	0.4672	0.40154	0.6341	0.494
Mof_O 	O 	0.4681	0.37959	0.59023	-0.693
Mof_O 	O 	0.46915	0.44884	0.64334	-0.669
Mof_C 	C 	0.4731	0.2584	0.7967	-0.228
Mof_C 	C 	0.4675	0.2985	0.7573	0.092
Mof_C 	C 	0.4876	0.2719	0.8495	-5.054
Mof_H 	H 	0.4969	0.3049	0.8593	1.776
Mof_C 	C 	0.4859	0.2301	0.8836	-2.931
Mof_H 	H 	0.4848	0.2358	0.9188	1.089
Mof_C 	C 	0.485	0.1715	0.8105	0.142
Mof_H 	H 	0.4921	0.139	0.7975	-0.054
Mof_C 	C 	0.4673	0.3526	0.7684	-0.209
Mof_H 	H 	0.4674	0.3643	0.8021	0.122
Mof_C 	C 	0.4671	0.3836	0.7318	-0.057
Mof_H 	H 	0.4693	0.4185	0.7385	0.079
Mof_C 	C 	0.4646	0.3142	0.6714	0.064
Mof_H 	H 	0.4633	0.3011	0.6383	-0.011
Mof_N 	N 	0.4737	0.2104	0.7786	-0.644
Mof_N 	N 	0.4675	0.2825	0.7099	0.064
Mof_Co	Co	0.46813	0.20017	0.69916	0.731
Mof_Cl	Cl	0.5162	0.2051	0.6132	-0.062
Mof_Cl	Cl	0.5302	0.1219	0.7078	-0.336
Mof_Co	Co	0.5025	0.20425	0.7005	0.871
Mof_C 	C 	0.4579	0.2672	0.8484	5.155
Mof_H 	H 	0.4448	0.2987	0.8589	-1.525
Mof_C 	C 	0.4636	0.2268	0.8821	2.638
Mof_H 	H 	0.4528	0.23	0.916	-0.989
Mof_C 	C 	0.503	0.1774	0.8153	-0.208
Mof_H 	H 	0.5206	0.1481	0.8052	0.15
Mof_C 	C 	0.4457	0.3458	0.765	0.083
Mof_H 	H 	0.43	0.3534	0.7961	0.006
Mof_C 	C 	0.4472	0.3827	0.7255	0.119
Mof_H 	H 	0.4376	0.4166	0.7312	0.018
Mof_C 	C 	0.4814	0.3162	0.6707	-0.023
Mof_H 	H 	0.4923	0.307	0.638	0.066
Mof_N 	N 	0.4955	0.2138	0.7814	0.438
Mof_N 	N 	0.4842	0.2785	0.7099	-0.327
Mof_O 	O 	0.4486	0.0264	0.0379	-1.968
Mof_Cl	Cl	0.5414	0.2097	0.6489	-0.611
Mof_Cl	Cl	0.4624	0.1133	0.6991	-0.436
Mof_Zr	Zr	0.98687	0.9847	0.40759	3.246
Mof_O 	O 	0.9495	0.9317	0.4644	0.929
Mof_C 	C 	0.13527	0.986	0.31957	0.078
Mof_C 	C 	0.10039	0.99375	0.36352	0.403
Mof_O 	O 	0.12166	0.00641	0.40551	-0.665
Mof_O 	O 	0.05292	0.98735	0.35497	-0.657
Mof_C 	C 	0.3218	0.9635	0.1338	-0.145
Mof_C 	C 	0.3659	0.9672	0.09846	0.495
Mof_O 	O 	0.40977	0.9681	0.12041	-0.693
Mof_O 	O 	0.35666	0.96915	0.05116	-0.669
Mof_C 	C 	0.2033	0.9731	0.2416	-0.227
Mof_C 	C 	0.2427	0.9675	0.2015	0.098
Mof_C 	C 	0.1505	0.9876	0.2281	-4.985
Mof_H 	H 	0.1407	0.9969	0.1951	1.752
Mof_C 	C 	0.1164	0.9859	0.2699	-2.891
Mof_H 	H 	0.0812	0.9848	0.2642	1.074
Mof_C 	C 	0.1895	0.985	0.3285	0.135
Mof_H 	H 	0.2025	0.9921	0.361	-0.05
Mof_C 	C 	0.2316	0.9673	0.1474	-0.205
Mof_H 	H 	0.1979	0.9674	0.1357	0.12
Mof_C 	C 	0.2682	0.9671	0.1164	-0.053
Mof_H 	H 	0.2615	0.9693	0.0815	0.077
Mof_C 	C 	0.3286	0.9646	0.1858	0.057
Mof_H 	H 	0.3617	0.9633	0.1989	-0.008
Mof_N 	N 	0.2214	0.9737	0.2896	-0.636
Mof_N 	N 	0.2901	0.9675	0.2175	0.016
Mof_Co	Co	0.30084	0.96813	0.29983	0.732
Mof_Cl	Cl	0.3868	0.0162	0.2949	-0.062
Mof_Cl	Cl	0.2922	0.0302	0.3781	-0.338
Mof_Co	Co	0.2995	0.0025	0.29575	0.869
Mof_C 	C 	0.1516	0.9579	0.2328	5.084
Mof_H 	H 	0.1411	0.9448	0.2013	-1.504
Mof_C 	C 	0.1179	0.9636	0.2732	2.602
Mof_H 	H 	0.084	0.9528	0.27	-0.975
Mof_C 	C 	0.1847	0.003	0.3226	-0.2
Mof_H 	H 	0.1948	0.0206	0.3519	0.145
Mof_C 	C 	0.235	0.9457	0.1542	0.076
Mof_H 	H 	0.2039	0.93	0.1466	0.008
Mof_C 	C 	0.2745	0.9472	0.1173	0.116
Mof_H 	H 	0.2688	0.9376	0.0834	0.019
Mof_C 	C 	0.3293	0.9814	0.1838	-0.011
Mof_H 	H 	0.362	0.9923	0.193	0.061
Mof_N 	N 	0.2186	0.9955	0.2862	0.429
Mof_N 	N 	0.2901	0.9842	0.2215	-0.282
Mof_O 	O 	0.9621	0.9486	0.4736	-1.972
Mof_Cl	Cl	0.3511	0.0414	0.2903	-0.613
Mof_Cl	Cl	0.3009	0.9624	0.3867	-0.435
Mof_Zr	Zr	0.48687	0.5153	0.59241	3.246
Mof_O 	O 	0.4495	0.5683	0.5356	0.926
Mof_C 	C 	0.63527	0.514	0.68043	0.079
Mof_C 	C 	0.60039	0.50625	0.63648	0.401
Mof_O 	O 	0.62166	0.49359	0.59449	-0.663
Mof_O 	O 	0.55292	0.51265	0.64503	-0.657
Mof_C 	C 	0.8218	0.5365	0.8662	-0.145
Mof_C 	C 	0.8659	0.5328	0.90154	0.495
Mof_O 	O 	0.90977	0.5319	0.87959	-0.694
Mof_O 	O 	0.85666	0.53085	0.94884	-0.67
Mof_C 	C 	0.7033	0.5269	0.7584	-0.227
Mof_C 	C 	0.7427	0.5325	0.7985	0.094
Mof_C 	C 	0.6505	0.5124	0.7719	-5.018
Mof_H 	H 	0.6407	0.5031	0.8049	1.764
Mof_C 	C 	0.6164	0.5141	0.7301	-2.91
Mof_H 	H 	0.5812	0.5152	0.7358	1.081
Mof_C 	C 	0.6895	0.515	0.6715	0.142
Mof_H 	H 	0.7025	0.5079	0.639	-0.053
Mof_C 	C 	0.7316	0.5327	0.8526	-0.208
Mof_H 	H 	0.6979	0.5326	0.8643	0.122
Mof_C 	C 	0.7682	0.5329	0.8836	-0.056
Mof_H 	H 	0.7615	0.5307	0.9185	0.078
Mof_C 	C 	0.8286	0.5354	0.8142	0.061
Mof_H 	H 	0.8617	0.5367	0.8011	-0.01
Mof_N 	N 	0.7214	0.5263	0.7104	-0.64
Mof_N 	N 	0.7901	0.5325	0.7825	0.045
Mof_Co	Co	0.80084	0.53187	0.70017	0.731
Mof_Cl	Cl	0.8868	0.4838	0.7051	-0.062
Mof_Cl	Cl	0.7922	0.4698	0.6219	-0.337
Mof_Co	Co	0.7995	0.4975	0.70425	0.871
Mof_C 	C 	0.6516	0.5421	0.7672	5.118
Mof_H 	H 	0.6411	0.5552	0.7987	-1.514
Mof_C 	C 	0.6179	0.5364	0.7268	2.62
Mof_H 	H 	0.584	0.5472	0.73	-0.982
Mof_C 	C 	0.6847	0.497	0.6774	-0.206
Mof_H 	H 	0.6948	0.4794	0.6481	0.149
Mof_C 	C 	0.735	0.5543	0.8458	0.081
Mof_H 	H 	0.7039	0.57	0.8534	0.006
Mof_C 	C 	0.7745	0.5528	0.8827	0.118
Mof_H 	H 	0.7688	0.5624	0.9166	0.018
Mof_C 	C 	0.8293	0.5186	0.8162	-0.018
Mof_H 	H 	0.862	0.5077	0.807	0.064
Mof_N 	N 	0.7186	0.5045	0.7138	0.434
Mof_N 	N 	0.7901	0.5158	0.7785	-0.309
Mof_O 	O 	0.4621	0.5514	0.5264	-1.968
Mof_Cl	Cl	0.8511	0.4586	0.7097	-0.612
Mof_Cl	Cl	0.8009	0.5376	0.6133	-0.436
Mof_Zr	Zr	0.51313	0.0153	0.90759	3.246
Mof_O 	O 	0.5505	0.0683	0.9644	0.925
Mof_C 	C 	0.36473	0.014	0.81957	0.082
Mof_C 	C 	0.39961	0.00625	0.86352	0.401
Mof_O 	O 	0.37834	0.99359	0.90551	-0.664
Mof_O 	O 	0.44708	0.01265	0.85497	-0.657
Mof_C 	C 	0.1782	0.0365	0.6338	-0.144
Mof_C 	C 	0.1341	0.0328	0.59846	0.494
Mof_O 	O 	0.09023	0.0319	0.62041	-0.694
Mof_O 	O 	0.14334	0.03085	0.55116	-0.669
Mof_C 	C 	0.2967	0.0269	0.7416	-0.228
Mof_C 	C 	0.2573	0.0325	0.7015	0.089
Mof_C 	C 	0.3495	0.0124	0.7281	-5.085
Mof_H 	H 	0.3593	0.0031	0.6951	1.787
Mof_C 	C 	0.3836	0.0141	0.7699	-2.949
Mof_H 	H 	0.4188	0.0152	0.7642	1.095
Mof_C 	C 	0.3105	0.015	0.8285	0.141
Mof_H 	H 	0.2975	0.0079	0.861	-0.053
Mof_C 	C 	0.2684	0.0327	0.6474	-0.212
Mof_H 	H 	0.3021	0.0326	0.6357	0.123
Mof_C 	C 	0.2318	0.0329	0.6164	-0.06
Mof_H 	H 	0.2385	0.0307	0.5815	0.08
Mof_C 	C 	0.1714	0.0354	0.6858	0.069
Mof_H 	H 	0.1383	0.0367	0.6989	-0.013
Mof_N 	N 	0.2786	0.0263	0.7896	-0.646
Mof_N 	N 	0.2099	0.0325	0.7175	0.094
Mof_Co	Co	0.19916	0.03187	0.79983	0.731
Mof_Cl	Cl	0.1132	0.9838	0.7949	-0.063
Mof_Cl	Cl	0.2078	0.9698	0.8781	-0.337
Mof_Co	Co	0.2005	0.9975	0.79575	0.872
Mof_C 	C 	0.3484	0.0421	0.7328	5.186
Mof_H 	H 	0.3589	0.0552	0.7013	-1.535
Mof_C 	C 	0.3821	0.0364	0.7732	2.654
Mof_H 	H 	0.416	0.0472	0.77	-0.995
Mof_C 	C 	0.3153	0.997	0.8226	-0.207
Mof_H 	H 	0.3052	0.9794	0.8519	0.149
Mof_C 	C 	0.265	0.0543	0.6542	0.087
Mof_H 	H 	0.2961	0.07	0.6466	0.004
Mof_C 	C 	0.2255	0.0528	0.6173	0.121
Mof_H 	H 	0.2312	0.0624	0.5834	0.017
Mof_C 	C 	0.1707	0.0186	0.6838	-0.032
Mof_H 	H 	0.138	0.0077	0.693	0.07
Mof_N 	N 	0.2814	0.0045	0.7862	0.441
Mof_N 	N 	0.2099	0.0158	0.7215	-0.356
Mof_O 	O 	0.5379	0.0514	0.9736	-1.966
Mof_Cl	Cl	0.1489	0.9586	0.7903	-0.61
Mof_Cl	Cl	0.1991	0.0376	0.8867	-0.435
Mof_Zr	Zr	0.01313	0.4847	0.09241	3.246
Mof_O 	O 	0.0505	0.4317	0.0356	0.925
Mof_C 	C 	0.86473	0.486	0.18043	0.081
Mof_C 	C 	0.89961	0.49375	0.13648	0.4
Mof_O 	O 	0.87834	0.50641	0.09449	-0.663
Mof_O 	O 	0.94708	0.48735	0.14503	-0.656
Mof_C 	C 	0.6782	0.4635	0.3662	-0.144
Mof_C 	C 	0.6341	0.4672	0.40154	0.494
Mof_O 	O 	0.59023	0.4681	0.37959	-0.693
Mof_O 	O 	0.64334	0.46915	0.44884	-0.669
Mof_C 	C 	0.7967	0.4731	0.2584	-0.228
Mof_C 	C 	0.7573	0.4675	0.2985	0.092
Mof_C 	C 	0.8495	0.4876	0.2719	-5.054
Mof_H 	H 	0.8593	0.4969	0.3049	1.776
Mof_C 	C 	0.8836	0.4859	0.2301	-2.931
Mof_H 	H 	0.9188	0.4848	0.2358	1.089
Mof_C 	C 	0.8105	0.485	0.1715	0.142
Mof_H 	H 	0.7975	0.4921	0.139	-0.054
Mof_C 	C 	0.7684	0.4673	0.3526	-0.209
Mof_H 	H 	0.8021	0.4674	0.3643	0.122
Mof_C 	C 	0.7318	0.4671	0.3836	-0.057
Mof_H 	H 	0.7385	0.4693	0.4185	0.079
Mof_C 	C 	0.6714	0.4646	0.3142	0.064
Mof_H 	H 	0.6383	0.4633	0.3011	-0.011
Mof_N 	N 	0.7786	0.4737	0.2104	-0.644
Mof_N 	N 	0.7099	0.4675	0.2825	0.064
Mof_Co	Co	0.69916	0.46813	0.20017	0.731
Mof_Cl	Cl	0.6132	0.5162	0.2051	-0.062
Mof_Cl	Cl	0.7078	0.5302	0.1219	-0.336
Mof_Co	Co	0.7005	0.5025	0.20425	0.871
Mof_C 	C 	0.8484	0.4579	0.2672	5.155
Mof_H 	H 	0.8589	0.4448	0.2987	-1.525
Mof_C 	C 	0.8821	0.4636	0.2268	2.638
Mof_H 	H 	0.916	0.4528	0.23	-0.989
Mof_C 	C 	0.8153	0.503	0.1774	-0.208
Mof_H 	H 	0.8052	0.5206	0.1481	0.15
Mof_C 	C 	0.765	0.4457	0.3458	0.083
Mof_H 	H 	0.7961	0.43	0.3534	0.006
Mof_C 	C 	0.7255	0.4472	0.3827	0.119
Mof_H 	H 	0.7312	0.4376	0.4166	0.018
Mof_C 	C 	0.6707	0.4814	0.3162	-0.023
Mof_H 	H 	0.638	0.4923	0.307	0.066
Mof_N 	N 	0.7814	0.4955	0.2138	0.438
Mof_N 	N 	0.7099	0.4842	0.2785	-0.327
Mof_O 	O 	0.0379	0.4486	0.0264	-1.968
Mof_Cl	Cl	0.6489	0.5414	0.2097	-0.611
Mof_Cl	Cl	0.6991	0.4624	0.1133	-0.436
Mof_Zr	Zr	0.40759	0.98687	0.9847	3.246
Mof_O 	O 	0.4644	0.9495	0.9317	0.929
Mof_C 	C 	0.31957	0.13527	0.986	0.078
Mof_C 	C 	0.36352	0.10039	0.99375	0.403
Mof_O 	O 	0.40551	0.12166	0.00641	-0.665
Mof_O 	O 	0.35497	0.05292	0.98735	-0.657
Mof_C 	C 	0.1338	0.3218	0.9635	-0.145
Mof_C 	C 	0.09846	0.3659	0.9672	0.495
Mof_O 	O 	0.12041	0.40977	0.9681	-0.693
Mof_O 	O 	0.05116	0.35666	0.96915	-0.669
Mof_C 	C 	0.2416	0.2033	0.9731	-0.227
Mof_C 	C 	0.2015	0.2427	0.9675	0.098
Mof_C 	C 	0.2281	0.1505	0.9876	-4.985
Mof_H 	H 	0.1951	0.1407	0.9969	1.752
Mof_C 	C 	0.2699	0.1164	0.9859	-2.891
Mof_H 	H 	0.2642	0.0812	0.9848	1.074
Mof_C 	C 	0.3285	0.1895	0.985	0.135
Mof_H 	H 	0.361	0.2025	0.9921	-0.05
Mof_C 	C 	0.1474	0.2316	0.9673	-0.205
Mof_H 	H 	0.1357	0.1979	0.9674	0.12
Mof_C 	C 	0.1164	0.2682	0.9671	-0.053
Mof_H 	H 	0.0815	0.2615	0.9693	0.077
Mof_C 	C 	0.1858	0.3286	0.9646	0.057
Mof_H 	H 	0.1989	0.3617	0.9633	-0.008
Mof_N 	N 	0.2896	0.2214	0.9737	-0.636
Mof_N 	N 	0.2175	0.2901	0.9675	0.016
Mof_Co	Co	0.29983	0.30084	0.96813	0.732
Mof_Cl	Cl	0.2949	0.3868	0.0162	-0.062
Mof_Cl	Cl	0.3781	0.2922	0.0302	-0.338
Mof_Co	Co	0.29575	0.2995	0.0025	0.869
Mof_C 	C 	0.2328	0.1516	0.9579	5.084
Mof_H 	H 	0.2013	0.1411	0.9448	-1.504
Mof_C 	C 	0.2732	0.1179	0.9636	2.602
Mof_H 	H 	0.27	0.084	0.9528	-0.975
Mof_C 	C 	0.3226	0.1847	0.003	-0.2
Mof_H 	H 	0.3519	0.1948	0.0206	0.145
Mof_C 	C 	0.1542	0.235	0.9457	0.076
Mof_H 	H 	0.1466	0.2039	0.93	0.008
Mof_C 	C 	0.1173	0.2745	0.9472	0.116
Mof_H 	H 	0.0834	0.2688	0.9376	0.019
Mof_C 	C 	0.1838	0.3293	0.9814	-0.011
Mof_H 	H 	0.193	0.362	0.9923	0.061
Mof_N 	N 	0.2862	0.2186	0.9955	0.429
Mof_N 	N 	0.2215	0.2901	0.9842	-0.282
Mof_O 	O 	0.4736	0.9621	0.9486	-1.972
Mof_Cl	Cl	0.2903	0.3511	0.0414	-0.613
Mof_Cl	Cl	0.3867	0.3009	0.9624	-0.435
Mof_Zr	Zr	0.59241	0.48687	0.5153	3.246
Mof_O 	O 	0.5356	0.4495	0.5683	0.926
Mof_C 	C 	0.68043	0.63527	0.514	0.079
Mof_C 	C 	0.63648	0.60039	0.50625	0.401
Mof_O 	O 	0.59449	0.62166	0.49359	-0.663
Mof_O 	O 	0.64503	0.55292	0.51265	-0.657
Mof_C 	C 	0.8662	0.8218	0.5365	-0.145
Mof_C 	C 	0.90154	0.8659	0.5328	0.495
Mof_O 	O 	0.87959	0.90977	0.5319	-0.694
Mof_O 	O 	0.94884	0.85666	0.53085	-0.67
Mof_C 	C 	0.7584	0.7033	0.5269	-0.227
Mof_C 	C 	0.7985	0.7427	0.5325	0.094
Mof_C 	C 	0.7719	0.6505	0.5124	-5.018
Mof_H 	H 	0.8049	0.6407	0.5031	1.764
Mof_C 	C 	0.7301	0.6164	0.5141	-2.91
Mof_H 	H 	0.7358	0.5812	0.5152	1.081
Mof_C 	C 	0.6715	0.6895	0.515	0.142
Mof_H 	H 	0.639	0.7025	0.5079	-0.053
Mof_C 	C 	0.8526	0.7316	0.5327	-0.208
Mof_H 	H 	0.8643	0.6979	0.5326	0.122
Mof_C 	C 	0.8836	0.7682	0.5329	-0.056
Mof_H 	H 	0.9185	0.7615	0.5307	0.078
Mof_C 	C 	0.8142	0.8286	0.5354	0.061
Mof_H 	H 	0.8011	0.8617	0.5367	-0.01
Mof_N 	N 	0.7104	0.7214	0.5263	-0.64
Mof_N 	N 	0.7825	0.7901	0.5325	0.045
Mof_Co	Co	0.70017	0.80084	0.53187	0.731
Mof_Cl	Cl	0.7051	0.8868	0.4838	-0.062
Mof_Cl	Cl	0.6219	0.7922	0.4698	-0.337
Mof_Co	Co	0.70425	0.7995	0.4975	0.871
Mof_C 	C 	0.7672	0.6516	0.5421	5.118
Mof_H 	H 	0.7987	0.6411	0.5552	-1.514
Mof_C 	C 	0.7268	0.6179	0.5364	2.62
Mof_H 	H 	0.73	0.584	0.5472	-0.982
Mof_C 	C 	0.6774	0.6847	0.497	-0.206
Mof_H 	H 	0.6481	0.6948	0.4794	0.149
Mof_C 	C 	0.8458	0.735	0.5543	0.081
Mof_H 	H 	0.8534	0.7039	0.57	0.006
Mof_C 	C 	0.8827	0.7745	0.5528	0.118
Mof_H 	H 	0.9166	0.7688	0.5624	0.018
Mof_C 	C 	0.8162	0.8293	0.5186	-0.018
Mof_H 	H 	0.807	0.862	0.5077	0.064
Mof_N 	N 	0.7138	0.7186	0.5045	0.434
Mof_N 	N 	0.7785	0.7901	0.5158	-0.309
Mof_O 	O 	0.5264	0.4621	0.5514	-1.968
Mof_Cl	Cl	0.7097	0.8511	0.4586	-0.612
Mof_Cl	Cl	0.6133	0.8009	0.5376	-0.436
Mof_Zr	Zr	0.90759	0.51313	0.0153	3.246
Mof_O 	O 	0.9644	0.5505	0.0683	0.925
Mof_C 	C 	0.81957	0.36473	0.014	0.082
Mof_C 	C 	0.86352	0.39961	0.00625	0.401
Mof_O 	O 	0.90551	0.37834	0.99359	-0.664
Mof_O 	O 	0.85497	0.44708	0.01265	-0.657
Mof_C 	C 	0.6338	0.1782	0.0365	-0.144
Mof_C 	C 	0.59846	0.1341	0.0328	0.494
Mof_O 	O 	0.62041	0.09023	0.0319	-0.694
Mof_O 	O 	0.55116	0.14334	0.03085	-0.669
Mof_C 	C 	0.7416	0.2967	0.0269	-0.228
Mof_C 	C 	0.7015	0.2573	0.0325	0.089
Mof_C 	C 	0.7281	0.3495	0.0124	-5.085
Mof_H 	H 	0.6951	0.3593	0.0031	1.787
Mof_C 	C 	0.7699	0.3836	0.0141	-2.949
Mof_H 	H 	0.7642	0.4188	0.0152	1.095
Mof_C 	C 	0.8285	0.3105	0.015	0.141
Mof_H 	H 	0.861	0.2975	0.0079	-0.053
Mof_C 	C 	0.6474	0.2684	0.0327	-0.212
Mof_H 	H 	0.6357	0.3021	0.0326	0.123
Mof_C 	C 	0.6164	0.2318	0.0329	-0.06
Mof_H 	H 	0.5815	0.2385	0.0307	0.08
Mof_C 	C 	0.6858	0.1714	0.0354	0.069
Mof_H 	H 	0.6989	0.1383	0.0367	-0.013
Mof_N 	N 	0.7896	0.2786	0.0263	-0.646
Mof_N 	N 	0.7175	0.2099	0.0325	0.094
Mof_Co	Co	0.79983	0.19916	0.03187	0.731
Mof_Cl	Cl	0.7949	0.1132	0.9838	-0.063
Mof_Cl	Cl	0.8781	0.2078	0.9698	-0.337
Mof_Co	Co	0.79575	0.2005	0.9975	0.872
Mof_C 	C 	0.7328	0.3484	0.0421	5.186
Mof_H 	H 	0.7013	0.3589	0.0552	-1.535
Mof_C 	C 	0.7732	0.3821	0.0364	2.654
Mof_H 	H 	0.77	0.416	0.0472	-0.995
Mof_C 	C 	0.8226	0.3153	0.997	-0.207
Mof_H 	H 	0.8519	0.3052	0.9794	0.149
Mof_C 	C 	0.6542	0.265	0.0543	0.087
Mof_H 	H 	0.6466	0.2961	0.07	0.004
Mof_C 	C 	0.6173	0.2255	0.0528	0.121
Mof_H 	H 	0.5834	0.2312	0.0624	0.017
Mof_C 	C 	0.6838	0.1707	0.0186	-0.032
Mof_H 	H 	0.693	0.138	0.0077	0.07
Mof_N 	N 	0.7862	0.2814	0.0045	0.441
Mof_N 	N 	0.7215	0.2099	0.0158	-0.356
Mof_O 	O 	0.9736	0.5379	0.0514	-1.966
Mof_Cl	Cl	0.7903	0.1489	0.9586	-0.61
Mof_Cl	Cl	0.8867	0.1991	0.0376	-0.435
Mof_Zr	Zr	0.09241	0.01313	0.4847	3.246
Mof_O 	O 	0.0356	0.0505	0.4317	0.925
Mof_C 	C 	0.18043	0.86473	0.486	0.081
Mof_C 	C 	0.13648	0.89961	0.49375	0.4
Mof_O 	O 	0.09449	0.87834	0.50641	-0.663
Mof_O 	O 	0.14503	0.94708	0.48735	-0.656
Mof_C 	C 	0.3662	0.6782	0.4635	-0.144
Mof_C 	C 	0.40154	0.6341	0.4672	0.494
Mof_O 	O 	0.37959	0.59023	0.4681	-0.693
Mof_O 	O 	0.44884	0.64334	0.46915	-0.669
Mof_C 	C 	0.2584	0.7967	0.4731	-0.228
Mof_C 	C 	0.2985	0.7573	0.4675	0.092
Mof_C 	C 	0.2719	0.8495	0.4876	-5.054
Mof_H 	H 	0.3049	0.8593	0.4969	1.776
Mof_C 	C 	0.2301	0.8836	0.4859	-2.931
Mof_H 	H 	0.2358	0.9188	0.4848	1.089
Mof_C 	C 	0.1715	0.8105	0.485	0.142
Mof_H 	H 	0.139	0.7975	0.4921	-0.054
Mof_C 	C 	0.3526	0.7684	0.4673	-0.209
Mof_H 	H 	0.3643	0.8021	0.4674	0.122
Mof_C 	C 	0.3836	0.7318	0.4671	-0.057
Mof_H 	H 	0.4185	0.7385	0.4693	0.079
Mof_C 	C 	0.3142	0.6714	0.4646	0.064
Mof_H 	H 	0.3011	0.6383	0.4633	-0.011
Mof_N 	N 	0.2104	0.7786	0.4737	-0.644
Mof_N 	N 	0.2825	0.7099	0.4675	0.064
Mof_Co	Co	0.20017	0.69916	0.46813	0.731
Mof_Cl	Cl	0.2051	0.6132	0.5162	-0.062
Mof_Cl	Cl	0.1219	0.7078	0.5302	-0.336
Mof_Co	Co	0.20425	0.7005	0.5025	0.871
Mof_C 	C 	0.2672	0.8484	0.4579	5.155
Mof_H 	H 	0.2987	0.8589	0.4448	-1.525
Mof_C 	C 	0.2268	0.8821	0.4636	2.638
Mof_H 	H 	0.23	0.916	0.4528	-0.989
Mof_C 	C 	0.1774	0.8153	0.503	-0.208
Mof_H 	H 	0.1481	0.8052	0.5206	0.15
Mof_C 	C 	0.3458	0.765	0.4457	0.083
Mof_H 	H 	0.3534	0.7961	0.43	0.006
Mof_C 	C 	0.3827	0.7255	0.4472	0.119
Mof_H 	H 	0.4166	0.7312	0.4376	0.018
Mof_C 	C 	0.3162	0.6707	0.4814	-0.023
Mof_H 	H 	0.307	0.638	0.4923	0.066
Mof_N 	N 	0.2138	0.7814	0.4955	0.438
Mof_N 	N 	0.2785	0.7099	0.4842	-0.327
Mof_O 	O 	0.0264	0.0379	0.4486	-1.968
Mof_Cl	Cl	0.2097	0.6489	0.5414	-0.611
Mof_Cl	Cl	0.1133	0.6991	0.4624	-0.436
Mof_Zr	Zr	0.0153	0.59241	0.01313	3.246
Mof_O 	O 	0.0683	0.5356	0.0505	0.929
Mof_C 	C 	0.014	0.68043	0.86473	0.078
Mof_C 	C 	0.00625	0.63648	0.89961	0.403
Mof_O 	O 	0.99359	0.59449	0.87834	-0.665
Mof_O 	O 	0.01265	0.64503	0.94708	-0.657
Mof_C 	C 	0.0365	0.8662	0.6782	-0.145
Mof_C 	C 	0.0328	0.90154	0.6341	0.495
Mof_O 	O 	0.0319	0.87959	0.59023	-0.693
Mof_O 	O 	0.03085	0.94884	0.64334	-0.669
Mof_C 	C 	0.0269	0.7584	0.7967	-0.227
Mof_C 	C 	0.0325	0.7985	0.7573	0.098
Mof_C 	C 	0.0124	0.7719	0.8495	-4.985
Mof_H 	H 	0.0031	0.8049	0.8593	1.752
Mof_C 	C 	0.0141	0.7301	0.8836	-2.891
Mof_H 	H 	0.0152	0.7358	0.9188	1.074
Mof_C 	C 	0.015	0.6715	0.8105	0.135
Mof_H 	H 	0.0079	0.639	0.7975	-0.05
Mof_C 	C 	0.0327	0.8526	0.7684	-0.205
Mof_H 	H 	0.0326	0.8643	0.8021	0.12
Mof_C 	C 	0.0329	0.8836	0.7318	-0.053
Mof_H 	H 	0.0307	0.9185	0.7385	0.077
Mof_C 	C 	0.0354	0.8142	0.6714	0.057
Mof_H 	H 	0.0367	0.8011	0.6383	-0.008
Mof_N 	N 	0.0263	0.7104	0.7786	-0.636
Mof_N 	N 	0.0325	0.7825	0.7099	0.016
Mof_Co	Co	0.03187	0.70017	0.69916	0.732
Mof_Cl	Cl	0.9838	0.7051	0.6132	-0.062
Mof_Cl	Cl	0.9698	0.6219	0.7078	-0.338
Mof_Co	Co	0.9975	0.70425	0.7005	0.869
Mof_C 	C 	0.0421	0.7672	0.8484	5.084
Mof_H 	H 	0.0552	0.7987	0.8589	-1.504
Mof_C 	C 	0.0364	0.7268	0.8821	2.602
Mof_H 	H 	0.0472	0.73	0.916	-0.975
Mof_C 	C 	0.997	0.6774	0.8153	-0.2
Mof_H 	H 	0.9794	0.6481	0.8052	0.145
Mof_C 	C 	0.0543	0.8458	0.765	0.076
Mof_H 	H 	0.07	0.8534	0.7961	0.008
Mof_C 	C 	0.0528	0.8827	0.7255	0.116
Mof_H 	H 	0.0624	0.9166	0.7312	0.019
Mof_C 	C 	0.0186	0.8162	0.6707	-0.011
Mof_H 	H 	0.0077	0.807	0.638	0.061
Mof_N 	N 	0.0045	0.7138	0.7814	0.429
Mof_N 	N 	0.0158	0.7785	0.7099	-0.282
Mof_O 	O 	0.0514	0.5264	0.0379	-1.972
Mof_Cl	Cl	0.9586	0.7097	0.6489	-0.613
Mof_Cl	Cl	0.0376	0.6133	0.6991	-0.435
Mof_Zr	Zr	0.4847	0.40759	0.51313	3.246
Mof_O 	O 	0.4317	0.4644	0.5505	0.926
Mof_C 	C 	0.486	0.31957	0.36473	0.079
Mof_C 	C 	0.49375	0.36352	0.39961	0.401
Mof_O 	O 	0.50641	0.40551	0.37834	-0.663
Mof_O 	O 	0.48735	0.35497	0.44708	-0.657
Mof_C 	C 	0.4635	0.1338	0.1782	-0.145
Mof_C 	C 	0.4672	0.09846	0.1341	0.495
Mof_O 	O 	0.4681	0.12041	0.09023	-0.694
Mof_O 	O 	0.46915	0.05116	0.14334	-0.67
Mof_C 	C 	0.4731	0.2416	0.2967	-0.227
Mof_C 	C 	0.4675	0.2015	0.2573	0.094
Mof_C 	C 	0.4876	0.2281	0.3495	-5.018
Mof_H 	H 	0.4969	0.1951	0.3593	1.764
Mof_C 	C 	0.4859	0.2699	0.3836	-2.91
Mof_H 	H 	0.4848	0.2642	0.4188	1.081
Mof_C 	C 	0.485	0.3285	0.3105	0.142
Mof_H 	H 	0.4921	0.361	0.2975	-0.053
Mof_C 	C 	0.4673	0.1474	0.2684	-0.208
Mof_H 	H 	0.4674	0.1357	0.3021	0.122
Mof_C 	C 	0.4671	0.1164	0.2318	-0.056
Mof_H 	H 	0.4693	0.0815	0.2385	0.078
Mof_C 	C 	0.4646	0.1858	0.1714	0.061
Mof_H 	H 	0.4633	0.1989	0.1383	-0.01
Mof_N 	N 	0.4737	0.2896	0.2786	-0.64
Mof_N 	N 	0.4675	0.2175	0.2099	0.045
Mof_Co	Co	0.46813	0.29983	0.19916	0.731
Mof_Cl	Cl	0.5162	0.2949	0.1132	-0.062
Mof_Cl	Cl	0.5302	0.3781	0.2078	-0.337
Mof_Co	Co	0.5025	0.29575	0.2005	0.871
Mof_C 	C 	0.4579	0.2328	0.3484	5.118
Mof_H 	H 	0.4448	0.2013	0.3589	-1.514
Mof_C 	C 	0.4636	0.2732	0.3821	2.62
Mof_H 	H 	0.4528	0.27	0.416	-0.982
Mof_C 	C 	0.503	0.3226	0.3153	-0.206
Mof_H 	H 	0.5206	0.3519	0.3052	0.149
Mof_C 	C 	0.4457	0.1542	0.265	0.081
Mof_H 	H 	0.43	0.1466	0.2961	0.006
Mof_C 	C 	0.4472	0.1173	0.2255	0.118
Mof_H 	H 	0.4376	0.0834	0.2312	0.018
Mof_C 	C 	0.4814	0.1838	0.1707	-0.018
Mof_H 	H 	0.4923	0.193	0.138	0.064
Mof_N 	N 	0.4955	0.2862	0.2814	0.434
Mof_N 	N 	0.4842	0.2215	0.2099	-0.309
Mof_O 	O 	0.4486	0.4736	0.5379	-1.968
Mof_Cl	Cl	0.5414	0.2903	0.1489	-0.612
Mof_Cl	Cl	0.4624	0.3867	0.1991	-0.436
Mof_Zr	Zr	0.9847	0.09241	0.48687	3.246
Mof_O 	O 	0.9317	0.0356	0.4495	0.925
Mof_C 	C 	0.986	0.18043	0.63527	0.082
Mof_C 	C 	0.99375	0.13648	0.60039	0.401
Mof_O 	O 	0.00641	0.09449	0.62166	-0.664
Mof_O 	O 	0.98735	0.14503	0.55292	-0.657
Mof_C 	C 	0.9635	0.3662	0.8218	-0.144
Mof_C 	C 	0.9672	0.40154	0.8659	0.494
Mof_O 	O 	0.9681	0.37959	0.90977	-0.694
Mof_O 	O 	0.96915	0.44884	0.85666	-0.669
Mof_C 	C 	0.9731	0.2584	0.7033	-0.228
Mof_C 	C 	0.9675	0.2985	0.7427	0.089
Mof_C 	C 	0.9876	0.2719	0.6505	-5.085
Mof_H 	H 	0.9969	0.3049	0.6407	1.787
Mof_C 	C 	0.9859	0.2301	0.6164	-2.949
Mof_H 	H 	0.9848	0.2358	0.5812	1.095
Mof_C 	C 	0.985	0.1715	0.6895	0.141
Mof_H 	H 	0.9921	0.139	0.7025	-0.053
Mof_C 	C 	0.9673	0.3526	0.7316	-0.212
Mof_H 	H 	0.9674	0.3643	0.6979	0.123
Mof_C 	C 	0.9671	0.3836	0.7682	-0.06
Mof_H 	H 	0.9693	0.4185	0.7615	0.08
Mof_C 	C 	0.9646	0.3142	0.8286	0.069
Mof_H 	H 	0.9633	0.3011	0.8617	-0.013
Mof_N 	N 	0.9737	0.2104	0.7214	-0.646
Mof_N 	N 	0.9675	0.2825	0.7901	0.094
Mof_Co	Co	0.96813	0.20017	0.80084	0.731
Mof_Cl	Cl	0.0162	0.2051	0.8868	-0.063
Mof_Cl	Cl	0.0302	0.1219	0.7922	-0.337
Mof_Co	Co	0.0025	0.20425	0.7995	0.872
Mof_C 	C 	0.9579	0.2672	0.6516	5.186
Mof_H 	H 	0.9448	0.2987	0.6411	-1.535
Mof_C 	C 	0.9636	0.2268	0.6179	2.654
Mof_H 	H 	0.9528	0.23	0.584	-0.995
Mof_C 	C 	0.003	0.1774	0.6847	-0.207
Mof_H 	H 	0.0206	0.1481	0.6948	0.149
Mof_C 	C 	0.9457	0.3458	0.735	0.087
Mof_H 	H 	0.93	0.3534	0.7039	0.004
Mof_C 	C 	0.9472	0.3827	0.7745	0.121
Mof_H 	H 	0.9376	0.4166	0.7688	0.017
Mof_C 	C 	0.9814	0.3162	0.8293	-0.032
Mof_H 	H 	0.9923	0.307	0.862	0.07
Mof_N 	N 	0.9955	0.2138	0.7186	0.441
Mof_N 	N 	0.9842	0.2785	0.7901	-0.356
Mof_O 	O 	0.9486	0.0264	0.4621	-1.966
Mof_Cl	Cl	0.0414	0.2097	0.8511	-0.61
Mof_Cl	Cl	0.9624	0.1133	0.8009	-0.435
Mof_Zr	Zr	0.5153	0.90759	0.98687	3.246
Mof_O 	O 	0.5683	0.9644	0.9495	0.925
Mof_C 	C 	0.514	0.81957	0.13527	0.081
Mof_C 	C 	0.50625	0.86352	0.10039	0.4
Mof_O 	O 	0.49359	0.90551	0.12166	-0.663
Mof_O 	O 	0.51265	0.85497	0.05292	-0.656
Mof_C 	C 	0.5365	0.6338	0.3218	-0.144
Mof_C 	C 	0.5328	0.59846	0.3659	0.494
Mof_O 	O 	0.5319	0.62041	0.40977	-0.693
Mof_O 	O 	0.53085	0.55116	0.35666	-0.669
Mof_C 	C 	0.5269	0.7416	0.2033	-0.228
Mof_C 	C 	0.5325	0.7015	0.2427	0.092
Mof_C 	C 	0.5124	0.7281	0.1505	-5.054
Mof_H 	H 	0.5031	0.6951	0.1407	1.776
Mof_C 	C 	0.5141	0.7699	0.1164	-2.931
Mof_H 	H 	0.5152	0.7642	0.0812	1.089
Mof_C 	C 	0.515	0.8285	0.1895	0.142
Mof_H 	H 	0.5079	0.861	0.2025	-0.054
Mof_C 	C 	0.5327	0.6474	0.2316	-0.209
Mof_H 	H 	0.5326	0.6357	0.1979	0.122
Mof_C 	C 	0.5329	0.6164	0.2682	-0.057
Mof_H 	H 	0.5307	0.5815	0.2615	0.079
Mof_C 	C 	0.5354	0.6858	0.3286	0.064
Mof_H 	H 	0.5367	0.6989	0.3617	-0.011
Mof_N 	N 	0.5263	0.7896	0.2214	-0.644
Mof_N 	N 	0.5325	0.7175	0.2901	0.064
Mof_Co	Co	0.53187	0.79983	0.30084	0.731
Mof_Cl	Cl	0.4838	0.7949	0.3868	-0.062
Mof_Cl	Cl	0.4698	0.8781	0.2922	-0.336
Mof_Co	Co	0.4975	0.79575	0.2995	0.871
Mof_C 	C 	0.5421	0.7328	0.1516	5.155
Mof_H 	H 	0.5552	0.7013	0.1411	-1.525
Mof_C 	C 	0.5364	0.7732	0.1179	2.638
Mof_H 	H 	0.5472	0.77	0.084	-0.989
Mof_C 	C 	0.497	0.8226	0.1847	-0.208
Mof_H 	H 	0.4794	0.8519	0.1948	0.15
Mof_C 	C 	0.5543	0.6542	0.235	0.083
Mof_H 	H 	0.57	0.6466	0.2039	0.006
Mof_C 	C 	0.5528	0.6173	0.2745	0.119
Mof_H 	H 	0.5624	0.5834	0.2688	0.018
Mof_C 	C 	0.5186	0.6838	0.3293	-0.023
Mof_H 	H 	0.5077	0.693	0.362	0.066
Mof_N 	N 	0.5045	0.7862	0.2186	0.438
Mof_N 	N 	0.5158	0.7215	0.2901	-0.327
Mof_O 	O 	0.5514	0.9736	0.9621	-1.968
Mof_Cl	Cl	0.4586	0.7903	0.3511	-0.611
Mof_Cl	Cl	0.5376	0.8867	0.3009	-0.436
Mof_Zr	Zr	0.01313	0.0153	0.59241	3.246
Mof_O 	O 	0.0505	0.0683	0.5356	0.929
Mof_C 	C 	0.86473	0.014	0.68043	0.078
Mof_C 	C 	0.89961	0.00625	0.63648	0.403
Mof_O 	O 	0.87834	0.99359	0.59449	-0.665
Mof_O 	O 	0.94708	0.01265	0.64503	-0.657
Mof_C 	C 	0.6782	0.0365	0.8662	-0.145
Mof_C 	C 	0.6341	0.0328	0.90154	0.495
Mof_O 	O 	0.59023	0.0319	0.87959	-0.693
Mof_O 	O 	0.64334	0.03085	0.94884	-0.669
Mof_C 	C 	0.7967	0.0269	0.7584	-0.227
Mof_C 	C 	0.7573	0.0325	0.7985	0.098
Mof_C 	C 	0.8495	0.0124	0.7719	-4.985
Mof_H 	H 	0.8593	0.0031	0.8049	1.752
Mof_C 	C 	0.8836	0.0141	0.7301	-2.891
Mof_H 	H 	0.9188	0.0152	0.7358	1.074
Mof_C 	C 	0.8105	0.015	0.6715	0.135
Mof_H 	H 	0.7975	0.0079	0.639	-0.05
Mof_C 	C 	0.7684	0.0327	0.8526	-0.205
Mof_H 	H 	0.8021	0.0326	0.8643	0.12
Mof_C 	C 	0.7318	0.0329	0.8836	-0.053
Mof_H 	H 	0.7385	0.0307	0.9185	0.077
Mof_C 	C 	0.6714	0.0354	0.8142	0.057
Mof_H 	H 	0.6383	0.0367	0.8011	-0.008
Mof_N 	N 	0.7786	0.0263	0.7104	-0.636
Mof_N 	N 	0.7099	0.0325	0.7825	0.016
Mof_Co	Co	0.69916	0.03187	0.70017	0.732
Mof_Cl	Cl	0.6132	0.9838	0.7051	-0.062
Mof_Cl	Cl	0.7078	0.9698	0.6219	-0.338
Mof_Co	Co	0.7005	0.9975	0.70425	0.869
Mof_C 	C 	0.8484	0.0421	0.7672	5.084
Mof_H 	H 	0.8589	0.0552	0.7987	-1.504
Mof_C 	C 	0.8821	0.0364	0.7268	2.602
Mof_H 	H 	0.916	0.0472	0.73	-0.975
Mof_C 	C 	0.8153	0.997	0.6774	-0.2
Mof_H 	H 	0.8052	0.9794	0.6481	0.145
Mof_C 	C 	0.765	0.0543	0.8458	0.076
Mof_H 	H 	0.7961	0.07	0.8534	0.008
Mof_C 	C 	0.7255	0.0528	0.8827	0.116
Mof_H 	H 	0.7312	0.0624	0.9166	0.019
Mof_C 	C 	0.6707	0.0186	0.8162	-0.011
Mof_H 	H 	0.638	0.0077	0.807	0.061
Mof_N 	N 	0.7814	0.0045	0.7138	0.429
Mof_N 	N 	0.7099	0.0158	0.7785	-0.282
Mof_O 	O 	0.0379	0.0514	0.5264	-1.972
Mof_Cl	Cl	0.6489	0.9586	0.7097	-0.613
Mof_Cl	Cl	0.6991	0.0376	0.6133	-0.435
Mof_Zr	Zr	0.51313	0.4847	0.40759	3.246
Mof_O 	O 	0.5505	0.4317	0.4644	0.926
Mof_C 	C 	0.36473	0.486	0.31957	0.079
Mof_C 	C 	0.39961	0.49375	0.36352	0.401
Mof_O 	O 	0.37834	0.50641	0.40551	-0.663
Mof_O 	O 	0.44708	0.48735	0.35497	-0.657
Mof_C 	C 	0.1782	0.4635	0.1338	-0.145
Mof_C 	C 	0.1341	0.4672	0.09846	0.495
Mof_O 	O 	0.09023	0.4681	0.12041	-0.694
Mof_O 	O 	0.14334	0.46915	0.05116	-0.67
Mof_C 	C 	0.2967	0.4731	0.2416	-0.227
Mof_C 	C 	0.2573	0.4675	0.2015	0.094
Mof_C 	C 	0.3495	0.4876	0.2281	-5.018
Mof_H 	H 	0.3593	0.4969	0.1951	1.764
Mof_C 	C 	0.3836	0.4859	0.2699	-2.91
Mof_H 	H 	0.4188	0.4848	0.2642	1.081
Mof_C 	C 	0.3105	0.485	0.3285	0.142
Mof_H 	H 	0.2975	0.4921	0.361	-0.053
Mof_C 	C 	0.2684	0.4673	0.1474	-0.208
Mof_H 	H 	0.3021	0.4674	0.1357	0.122
Mof_C 	C 	0.2318	0.4671	0.1164	-0.056
Mof_H 	H 	0.2385	0.4693	0.0815	0.078
Mof_C 	C 	0.1714	0.4646	0.1858	0.061
Mof_H 	H 	0.1383	0.4633	0.1989	-0.01
Mof_N 	N 	0.2786	0.4737	0.2896	-0.64
Mof_N 	N 	0.2099	0.4675	0.2175	0.045
Mof_Co	Co	0.19916	0.46813	0.29983	0.731
Mof_Cl	Cl	0.1132	0.5162	0.2949	-0.062
Mof_Cl	Cl	0.2078	0.5302	0.3781	-0.337
Mof_Co	Co	0.2005	0.5025	0.29575	0.871
Mof_C 	C 	0.3484	0.4579	0.2328	5.118
Mof_H 	H 	0.3589	0.4448	0.2013	-1.514
Mof_C 	C 	0.3821	0.4636	0.2732	2.62
Mof_H 	H 	0.416	0.4528	0.27	-0.982
Mof_C 	C 	0.3153	0.503	0.3226	-0.206
Mof_H 	H 	0.3052	0.5206	0.3519	0.149
Mof_C 	C 	0.265	0.4457	0.1542	0.081
Mof_H 	H 	0.2961	0.43	0.1466	0.006
Mof_C 	C 	0.2255	0.4472	0.1173	0.118
Mof_H 	H 	0.2312	0.4376	0.0834	0.018
Mof_C 	C 	0.1707	0.4814	0.1838	-0.018
Mof_H 	H 	0.138	0.4923	0.193	0.064
Mof_N 	N 	0.2814	0.4955	0.2862	0.434
Mof_N 	N 	0.2099	0.4842	0.2215	-0.309
Mof_O 	O 	0.5379	0.4486	0.4736	-1.968
Mof_Cl	Cl	0.1489	0.5414	0.2903	-0.612
Mof_Cl	Cl	0.1991	0.4624	0.3867	-0.436
Mof_Zr	Zr	0.48687	0.9847	0.09241	3.246
Mof_O 	O 	0.4495	0.9317	0.0356	0.925
Mof_C 	C 	0.63527	0.986	0.18043	0.082
Mof_C 	C 	0.60039	0.99375	0.13648	0.401
Mof_O 	O 	0.62166	0.00641	0.09449	-0.664
Mof_O 	O 	0.55292	0.98735	0.14503	-0.657
Mof_C 	C 	0.8218	0.9635	0.3662	-0.144
Mof_C 	C 	0.8659	0.9672	0.40154	0.494
Mof_O 	O 	0.90977	0.9681	0.37959	-0.694
Mof_O 	O 	0.85666	0.96915	0.44884	-0.669
Mof_C 	C 	0.7033	0.9731	0.2584	-0.228
Mof_C 	C 	0.7427	0.9675	0.2985	0.089
Mof_C 	C 	0.6505	0.9876	0.2719	-5.085
Mof_H 	H 	0.6407	0.9969	0.3049	1.787
Mof_C 	C 	0.6164	0.9859	0.2301	-2.949
Mof_H 	H 	0.5812	0.9848	0.2358	1.095
Mof_C 	C 	0.6895	0.985	0.1715	0.141
Mof_H 	H 	0.7025	0.9921	0.139	-0.053
Mof_C 	C 	0.7316	0.9673	0.3526	-0.212
Mof_H 	H 	0.6979	0.9674	0.3643	0.123
Mof_C 	C 	0.7682	0.9671	0.3836	-0.06
Mof_H 	H 	0.7615	0.9693	0.4185	0.08
Mof_C 	C 	0.8286	0.9646	0.3142	0.069
Mof_H 	H 	0.8617	0.9633	0.3011	-0.013
Mof_N 	N 	0.7214	0.9737	0.2104	-0.646
Mof_N 	N 	0.7901	0.9675	0.2825	0.094
Mof_Co	Co	0.80084	0.96813	0.20017	0.731
Mof_Cl	Cl	0.8868	0.0162	0.2051	-0.063
Mof_Cl	Cl	0.7922	0.0302	0.1219	-0.337
Mof_Co	Co	0.7995	0.0025	0.20425	0.872
Mof_C 	C 	0.6516	0.9579	0.2672	5.186
Mof_H 	H 	0.6411	0.9448	0.2987	-1.535
Mof_C 	C 	0.6179	0.9636	0.2268	2.654
Mof_H 	H 	0.584	0.9528	0.23	-0.995
Mof_C 	C 	0.6847	0.003	0.1774	-0.207
Mof_H 	H 	0.6948	0.0206	0.1481	0.149
Mof_C 	C 	0.735	0.9457	0.3458	0.087
Mof_H 	H 	0.7039	0.93	0.3534	0.004
Mof_C 	C 	0.7745	0.9472	0.3827	0.121
Mof_H 	H 	0.7688	0.9376	0.4166	0.017
Mof_C 	C 	0.8293	0.9814	0.3162	-0.032
Mof_H 	H 	0.862	0.9923	0.307	0.07
Mof_N 	N 	0.7186	0.9955	0.2138	0.441
Mof_N 	N 	0.7901	0.9842	0.2785	-0.356
Mof_O 	O 	0.4621	0.9486	0.0264	-1.966
Mof_Cl	Cl	0.8511	0.0414	0.2097	-0.61
Mof_Cl	Cl	0.8009	0.9624	0.1133	-0.435
Mof_Zr	Zr	0.98687	0.5153	0.90759	3.246
Mof_O 	O 	0.9495	0.5683	0.9644	0.925
Mof_C 	C 	0.13527	0.514	0.81957	0.081
Mof_C 	C 	0.10039	0.50625	0.86352	0.4
Mof_O 	O 	0.12166	0.49359	0.90551	-0.663
Mof_O 	O 	0.05292	0.51265	0.85497	-0.656
Mof_C 	C 	0.3218	0.5365	0.6338	-0.144
Mof_C 	C 	0.3659	0.5328	0.59846	0.494
Mof_O 	O 	0.40977	0.5319	0.62041	-0.693
Mof_O 	O 	0.35666	0.53085	0.55116	-0.669
Mof_C 	C 	0.2033	0.5269	0.7416	-0.228
Mof_C 	C 	0.2427	0.5325	0.7015	0.092
Mof_C 	C 	0.1505	0.5124	0.7281	-5.054
Mof_H 	H 	0.1407	0.5031	0.6951	1.776
Mof_C 	C 	0.1164	0.5141	0.7699	-2.931
Mof_H 	H 	0.0812	0.5152	0.7642	1.089
Mof_C 	C 	0.1895	0.515	0.8285	0.142
Mof_H 	H 	0.2025	0.5079	0.861	-0.054
Mof_C 	C 	0.2316	0.5327	0.6474	-0.209
Mof_H 	H 	0.1979	0.5326	0.6357	0.122
Mof_C 	C 	0.2682	0.5329	0.6164	-0.057
Mof_H 	H 	0.2615	0.5307	0.5815	0.079
Mof_C 	C 	0.3286	0.5354	0.6858	0.064
Mof_H 	H 	0.3617	0.5367	0.6989	-0.011
Mof_N 	N 	0.2214	0.5263	0.7896	-0.644
Mof_N 	N 	0.2901	0.5325	0.7175	0.064
Mof_Co	Co	0.30084	0.53187	0.79983	0.731
Mof_Cl	Cl	0.3868	0.4838	0.7949	-0.062
Mof_Cl	Cl	0.2922	0.4698	0.8781	-0.336
Mof_Co	Co	0.2995	0.4975	0.79575	0.871
Mof_C 	C 	0.1516	0.5421	0.7328	5.155
Mof_H 	H 	0.1411	0.5552	0.7013	-1.525
Mof_C 	C 	0.1179	0.5364	0.7732	2.638
Mof_H 	H 	0.084	0.5472	0.77	-0.989
Mof_C 	C 	0.1847	0.497	0.8226	-0.208
Mof_H 	H 	0.1948	0.4794	0.8519	0.15
Mof_C 	C 	0.235	0.5543	0.6542	0.083
Mof_H 	H 	0.2039	0.57	0.6466	0.006
Mof_C 	C 	0.2745	0.5528	0.6173	0.119
Mof_H 	H 	0.2688	0.5624	0.5834	0.018
Mof_C 	C 	0.3293	0.5186	0.6838	-0.023
Mof_H 	H 	0.362	0.5077	0.693	0.066
Mof_N 	N 	0.2186	0.5045	0.7862	0.438
Mof_N 	N 	0.2901	0.5158	0.7215	-0.327
Mof_O 	O 	0.9621	0.5514	0.9736	-1.968
Mof_Cl	Cl	0.3511	0.4586	0.7903	-0.611
Mof_Cl	Cl	0.3009	0.5376	0.8867	-0.436
Mof_Zr	Zr	0.59241	0.01313	0.0153	3.246
Mof_O 	O 	0.5356	0.0505	0.0683	0.929
Mof_C 	C 	0.68043	0.86473	0.014	0.078
Mof_C 	C 	0.63648	0.89961	0.00625	0.403
Mof_O 	O 	0.59449	0.87834	0.99359	-0.665
Mof_O 	O 	0.64503	0.94708	0.01265	-0.657
Mof_C 	C 	0.8662	0.6782	0.0365	-0.145
Mof_C 	C 	0.90154	0.6341	0.0328	0.495
Mof_O 	O 	0.87959	0.59023	0.0319	-0.693
Mof_O 	O 	0.94884	0.64334	0.03085	-0.669
Mof_C 	C 	0.7584	0.7967	0.0269	-0.227
Mof_C 	C 	0.7985	0.7573	0.0325	0.098
Mof_C 	C 	0.7719	0.8495	0.0124	-4.985
Mof_H 	H 	0.8049	0.8593	0.0031	1.752
Mof_C 	C 	0.7301	0.8836	0.0141	-2.891
Mof_H 	H 	0.7358	0.9188	0.0152	1.074
Mof_C 	C 	0.6715	0.8105	0.015	0.135
Mof_H 	H 	0.639	0.7975	0.0079	-0.05
Mof_C 	C 	0.8526	0.7684	0.0327	-0.205
Mof_H 	H 	0.8643	0.8021	0.0326	0.12
Mof_C 	C 	0.8836	0.7318	0.0329	-0.053
Mof_H 	H 	0.9185	0.7385	0.0307	0.077
Mof_C 	C 	0.8142	0.6714	0.0354	0.057
Mof_H 	H 	0.8011	0.6383	0.0367	-0.008
Mof_N 	N 	0.7104	0.7786	0.0263	-0.636
Mof_N 	N 	0.7825	0.7099	0.0325	0.016
Mof_Co	Co	0.70017	0.69916	0.03187	0.732
Mof_Cl	Cl	0.7051	0.6132	0.9838	-0.062
Mof_Cl	Cl	0.6219	0.7078	0.9698	-0.338
Mof_Co	Co	0.70425	0.7005	0.9975	0.869
Mof_C 	C 	0.7672	0.8484	0.0421	5.084
Mof_H 	H 	0.7987	0.8589	0.0552	-1.504
Mof_C 	C 	0.7268	0.8821	0.0364	2.602
Mof_H 	H 	0.73	0.916	0.0472	-0.975
Mof_C 	C 	0.6774	0.8153	0.997	-0.2
Mof_H 	H 	0.6481	0.8052	0.9794	0.145
Mof_C 	C 	0.8458	0.765	0.0543	0.076
Mof_H 	H 	0.8534	0.7961	0.07	0.008
Mof_C 	C 	0.8827	0.7255	0.0528	0.116
Mof_H 	H 	0.9166	0.7312	0.0624	0.019
Mof_C 	C 	0.8162	0.6707	0.0186	-0.011
Mof_H 	H 	0.807	0.638	0.0077	0.061
Mof_N 	N 	0.7138	0.7814	0.0045	0.429
Mof_N 	N 	0.7785	0.7099	0.0158	-0.282
Mof_O 	O 	0.5264	0.0379	0.0514	-1.972
Mof_Cl	Cl	0.7097	0.6489	0.9586	-0.613
Mof_Cl	Cl	0.6133	0.6991	0.0376	-0.435
Mof_Zr	Zr	0.40759	0.51313	0.4847	3.246
Mof_O 	O 	0.4644	0.5505	0.4317	0.926
Mof_C 	C 	0.31957	0.36473	0.486	0.079
Mof_C 	C 	0.36352	0.39961	0.49375	0.401
Mof_O 	O 	0.40551	0.37834	0.50641	-0.663
Mof_O 	O 	0.35497	0.44708	0.48735	-0.657
Mof_C 	C 	0.1338	0.1782	0.4635	-0.145
Mof_C 	C 	0.09846	0.1341	0.4672	0.495
Mof_O 	O 	0.12041	0.09023	0.4681	-0.694
Mof_O 	O 	0.05116	0.14334	0.46915	-0.67
Mof_C 	C 	0.2416	0.2967	0.4731	-0.227
Mof_C 	C 	0.2015	0.2573	0.4675	0.094
Mof_C 	C 	0.2281	0.3495	0.4876	-5.018
Mof_H 	H 	0.1951	0.3593	0.4969	1.764
Mof_C 	C 	0.2699	0.3836	0.4859	-2.91
Mof_H 	H 	0.2642	0.4188	0.4848	1.081
Mof_C 	C 	0.3285	0.3105	0.485	0.142
Mof_H 	H 	0.361	0.2975	0.4921	-0.053
Mof_C 	C 	0.1474	0.2684	0.4673	-0.208
Mof_H 	H 	0.1357	0.3021	0.4674	0.122
Mof_C 	C 	0.1164	0.2318	0.4671	-0.056
Mof_H 	H 	0.0815	0.2385	0.4693	0.078
Mof_C 	C 	0.1858	0.1714	0.4646	0.061
Mof_H 	H 	0.1989	0.1383	0.4633	-0.01
Mof_N 	N 	0.2896	0.2786	0.4737	-0.64
Mof_N 	N 	0.2175	0.2099	0.4675	0.045
Mof_Co	Co	0.29983	0.19916	0.46813	0.731
Mof_Cl	Cl	0.2949	0.1132	0.5162	-0.062
Mof_Cl	Cl	0.3781	0.2078	0.5302	-0.337
Mof_Co	Co	0.29575	0.2005	0.5025	0.871
Mof_C 	C 	0.2328	0.3484	0.4579	5.118
Mof_H 	H 	0.2013	0.3589	0.4448	-1.514
Mof_C 	C 	0.2732	0.3821	0.4636	2.62
Mof_H 	H 	0.27	0.416	0.4528	-0.982
Mof_C 	C 	0.3226	0.3153	0.503	-0.206
Mof_H 	H 	0.3519	0.3052	0.5206	0.149
Mof_C 	C 	0.1542	0.265	0.4457	0.081
Mof_H 	H 	0.1466	0.2961	0.43	0.006
Mof_C 	C 	0.1173	0.2255	0.4472	0.118
Mof_H 	H 	0.0834	0.2312	0.4376	0.018
Mof_C 	C 	0.1838	0.1707	0.4814	-0.018
Mof_H 	H 	0.193	0.138	0.4923	0.064
Mof_N 	N 	0.2862	0.2814	0.4955	0.434
Mof_N 	N 	0.2215	0.2099	0.4842	-0.309
Mof_O 	O 	0.4736	0.5379	0.4486	-1.968
Mof_Cl	Cl	0.2903	0.1489	0.5414	-0.612
Mof_Cl	Cl	0.3867	0.1991	0.4624	-0.436
Mof_Zr	Zr	0.09241	0.48687	0.9847	3.246
Mof_O 	O 	0.0356	0.4495	0.9317	0.925
Mof_C 	C 	0.18043	0.63527	0.986	0.082
Mof_C 	C 	0.13648	0.60039	0.99375	0.401
Mof_O 	O 	0.09449	0.62166	0.00641	-0.664
Mof_O 	O 	0.14503	0.55292	0.98735	-0.657
Mof_C 	C 	0.3662	0.8218	0.9635	-0.144
Mof_C 	C 	0.40154	0.8659	0.9672	0.494
Mof_O 	O 	0.37959	0.90977	0.9681	-0.694
Mof_O 	O 	0.44884	0.85666	0.96915	-0.669
Mof_C 	C 	0.2584	0.7033	0.9731	-0.228
Mof_C 	C 	0.2985	0.7427	0.9675	0.089
Mof_C 	C 	0.2719	0.6505	0.9876	-5.085
Mof_H 	H 	0.3049	0.6407	0.9969	1.787
Mof_C 	C 	0.2301	0.6164	0.9859	-2.949
Mof_H 	H 	0.2358	0.5812	0.9848	1.095
Mof_C 	C 	0.1715	0.6895	0.985	0.141
Mof_H 	H 	0.139	0.7025	0.9921	-0.053
Mof_C 	C 	0.3526	0.7316	0.9673	-0.212
Mof_H 	H 	0.3643	0.6979	0.9674	0.123
Mof_C 	C 	0.3836	0.7682	0.9671	-0.06
Mof_H 	H 	0.4185	0.7615	0.9693	0.08
Mof_C 	C 	0.3142	0.8286	0.9646	0.069
Mof_H 	H 	0.3011	0.8617	0.9633	-0.013
Mof_N 	N 	0.2104	0.7214	0.9737	-0.646
Mof_N 	N 	0.2825	0.7901	0.9675	0.094
Mof_Co	Co	0.20017	0.80084	0.96813	0.731
Mof_Cl	Cl	0.2051	0.8868	0.0162	-0.063
Mof_Cl	Cl	0.1219	0.7922	0.0302	-0.337
Mof_Co	Co	0.20425	0.7995	0.0025	0.872
Mof_C 	C 	0.2672	0.6516	0.9579	5.186
Mof_H 	H 	0.2987	0.6411	0.9448	-1.535
Mof_C 	C 	0.2268	0.6179	0.9636	2.654
Mof_H 	H 	0.23	0.584	0.9528	-0.995
Mof_C 	C 	0.1774	0.6847	0.003	-0.207
Mof_H 	H 	0.1481	0.6948	0.0206	0.149
Mof_C 	C 	0.3458	0.735	0.9457	0.087
Mof_H 	H 	0.3534	0.7039	0.93	0.004
Mof_C 	C 	0.3827	0.7745	0.9472	0.121
Mof_H 	H 	0.4166	0.7688	0.9376	0.017
Mof_C 	C 	0.3162	0.8293	0.9814	-0.032
Mof_H 	H 	0.307	0.862	0.9923	0.07
Mof_N 	N 	0.2138	0.7186	0.9955	0.441
Mof_N 	N 	0.2785	0.7901	0.9842	-0.356
Mof_O 	O 	0.0264	0.4621	0.9486	-1.966
Mof_Cl	Cl	0.2097	0.8511	0.0414	-0.61
Mof_Cl	Cl	0.1133	0.8009	0.9624	-0.435
Mof_Zr	Zr	0.90759	0.98687	0.5153	3.246
Mof_O 	O 	0.9644	0.9495	0.5683	0.925
Mof_C 	C 	0.81957	0.13527	0.514	0.081
Mof_C 	C 	0.86352	0.10039	0.50625	0.4
Mof_O 	O 	0.90551	0.12166	0.49359	-0.663
Mof_O 	O 	0.85497	0.05292	0.51265	-0.656
Mof_C 	C 	0.6338	0.3218	0.5365	-0.144
Mof_C 	C 	0.59846	0.3659	0.5328	0.494
Mof_O 	O 	0.62041	0.40977	0.5319	-0.693
Mof_O 	O 	0.55116	0.35666	0.53085	-0.669
Mof_C 	C 	0.7416	0.2033	0.5269	-0.228
Mof_C 	C 	0.7015	0.2427	0.5325	0.092
Mof_C 	C 	0.7281	0.1505	0.5124	-5.054
Mof_H 	H 	0.6951	0.1407	0.5031	1.776
Mof_C 	C 	0.7699	0.1164	0.5141	-2.931
Mof_H 	H 	0.7642	0.0812	0.5152	1.089
Mof_C 	C 	0.8285	0.1895	0.515	0.142
Mof_H 	H 	0.861	0.2025	0.5079	-0.054
Mof_C 	C 	0.6474	0.2316	0.5327	-0.209
Mof_H 	H 	0.6357	0.1979	0.5326	0.122
Mof_C 	C 	0.6164	0.2682	0.5329	-0.057
Mof_H 	H 	0.5815	0.2615	0.5307	0.079
Mof_C 	C 	0.6858	0.3286	0.5354	0.064
Mof_H 	H 	0.6989	0.3617	0.5367	-0.011
Mof_N 	N 	0.7896	0.2214	0.5263	-0.644
Mof_N 	N 	0.7175	0.2901	0.5325	0.064
Mof_Co	Co	0.79983	0.30084	0.53187	0.731
Mof_Cl	Cl	0.7949	0.3868	0.4838	-0.062
Mof_Cl	Cl	0.8781	0.2922	0.4698	-0.336
Mof_Co	Co	0.79575	0.2995	0.4975	0.871
Mof_C 	C 	0.7328	0.1516	0.5421	5.155
Mof_H 	H 	0.7013	0.1411	0.5552	-1.525
Mof_C 	C 	0.7732	0.1179	0.5364	2.638
Mof_H 	H 	0.77	0.084	0.5472	-0.989
Mof_C 	C 	0.8226	0.1847	0.497	-0.208
Mof_H 	H 	0.8519	0.1948	0.4794	0.15
Mof_C 	C 	0.6542	0.235	0.5543	0.083
Mof_H 	H 	0.6466	0.2039	0.57	0.006
Mof_C 	C 	0.6173	0.2745	0.5528	0.119
Mof_H 	H 	0.5834	0.2688	0.5624	0.018
Mof_C 	C 	0.6838	0.3293	0.5186	-0.023
Mof_H 	H 	0.693	0.362	0.5077	0.066
Mof_N 	N 	0.7862	0.2186	0.5045	0.438
Mof_N 	N 	0.7215	0.2901	0.5158	-0.327
Mof_O 	O 	0.9736	0.9621	0.5514	-1.968
Mof_Cl	Cl	0.7903	0.3511	0.4586	-0.611
Mof_Cl	Cl	0.8867	0.3009	0.5376	-0.436
Mof_O 	O 	0.9474	0.4474	0.0526	0.149
Mof_O 	O 	0.9611	0.4611	0.0389	-1.194
Mof_O 	O 	0.5526	0.5526	0.5526	0.15
Mof_O 	O 	0.5389	0.5389	0.5389	-1.197
Mof_O 	O 	0.0526	0.9474	0.4474	0.149
Mof_O 	O 	0.0389	0.9611	0.4611	-1.194
Mof_O 	O 	0.4474	0.0526	0.9474	0.149
Mof_O 	O 	0.4611	0.0389	0.9611	-1.194
Mof_O 	O 	0.0526	0.5526	0.9474	0.149
Mof_O 	O 	0.0389	0.5389	0.9611	-1.194
Mof_O 	O 	0.4474	0.4474	0.4474	0.15
Mof_O 	O 	0.4611	0.4611	0.4611	-1.197
Mof_O 	O 	0.9474	0.0526	0.5526	0.149
Mof_O 	O 	0.9611	0.0389	0.5389	-1.194
Mof_O 	O 	0.5526	0.9474	0.0526	0.149
Mof_O 	O 	0.5389	0.9611	0.0389	-1.194
_end
