data_functionalizedCrystal
_audit_creation_method	'EQeq! by Chris Wilmer'
_symmetry_space_group_name_H-M	'P1'
_symmetry_Int_Tables_number	1
_symmetry_cell_setting	triclinic
loop_
_symmetry_equiv_pos_as_xyz
  x,y,z
_cell_length_a	14.0636
_cell_length_b	15.9152
_cell_length_c	16.5858
_cell_angle_alpha	90
_cell_angle_beta	90
_cell_angle_gamma	90
loop_
_atom_site_label
_atom_site_type_symbol
_atom_site_fract_x
_atom_site_fract_y
_atom_site_fract_z
_atom_site_charge
Mof_Ni	Ni	0.47904	0.81749	0.39336	1.132
Mof_C 	C 	0.257	0.9955	0.34118	-0.02
Mof_C 	C 	0.221	0.07275	0.36604	-0.066
Mof_H 	H 	0.2459	0.0986	0.4131	0.063
Mof_C 	C 	0.149	0.1127	0.32273	-0.049
Mof_C 	C 	0.1138	0.07383	0.25408	-0.046
Mof_H 	H 	0.0682	0.1023	0.2218	0.049
Mof_C 	C 	0.144	0.9935	0.23144	-0.044
Mof_C 	C 	0.216	0.95491	0.2754	0.001
Mof_H 	H 	0.2374	0.9005	0.2604	0.058
Mof_C 	C 	0.3434	0.95928	0.38255	0.343
Mof_C 	C 	0.1073	0.19382	0.3497	0.278
Mof_C 	C 	0.0962	0.95317	0.15954	0.412
Mof_O 	O 	0.36893	0.99442	0.44679	-0.37
Mof_O 	O 	0.38201	0.89734	0.34818	-0.401
Mof_O 	O 	0.13047	0.2247	0.41659	-0.351
Mof_O 	O 	0.04497	0.22877	0.30538	-0.388
Mof_O 	O 	0.06409	0.00261	0.1089	-0.491
Mof_O 	O 	0.09141	0.87368	0.15982	-0.441
Mof_C 	C 	0.5815	0.8024	0.6145	-0.977
Mof_H 	H 	0.6494	0.7887	0.6165	0.337
Mof_H 	H 	0.5452	0.7588	0.6425	0.34
Mof_H 	H 	0.5706	0.8567	0.6407	0.34
Mof_C 	C 	0.5499	0.80715	0.5281	0.613
Mof_O 	O 	0.56826	0.75021	0.47981	-0.427
Mof_O 	O 	0.49763	0.8686	0.50511	-0.557
Mof_Ni	Ni	0.02096	0.18251	0.89336	1.118
Mof_C 	C 	0.243	0.0045	0.84118	-0.207
Mof_C 	C 	0.279	0.92725	0.86604	0.15
Mof_H 	H 	0.2541	0.9014	0.9131	0.023
Mof_C 	C 	0.351	0.8873	0.82273	-0.155
Mof_C 	C 	0.3862	0.92617	0.75408	0.157
Mof_H 	H 	0.4318	0.8977	0.7218	0.011
Mof_C 	C 	0.356	0.0065	0.73144	-0.196
Mof_C 	C 	0.284	0.04509	0.7754	0.119
Mof_H 	H 	0.2626	0.0995	0.7604	0.018
Mof_C 	C 	0.1566	0.04072	0.88255	0.391
Mof_C 	C 	0.3927	0.80618	0.8497	0.322
Mof_C 	C 	0.4038	0.04683	0.65954	0.349
Mof_O 	O 	0.13107	0.00558	0.94679	-0.407
Mof_O 	O 	0.11799	0.10266	0.84818	-0.429
Mof_O 	O 	0.36953	0.7753	0.91659	-0.328
Mof_O 	O 	0.45503	0.77123	0.80538	-0.367
Mof_O 	O 	0.43591	0.99739	0.6089	-0.369
Mof_O 	O 	0.40859	0.12632	0.65982	-0.402
Mof_C 	C 	0.9185	0.1976	0.1145	-0.954
Mof_H 	H 	0.8506	0.2113	0.1165	0.319
Mof_H 	H 	0.9548	0.2412	0.1425	0.34
Mof_H 	H 	0.9294	0.1433	0.1407	0.335
Mof_C 	C 	0.9501	0.19285	0.0281	0.574
Mof_O 	O 	0.93174	0.24979	0.97981	-0.336
Mof_O 	O 	0.00237	0.1314	0.00511	-0.64
Mof_Ni	Ni	0.52096	0.31749	0.10664	1.119
Mof_C 	C 	0.743	0.4955	0.15882	-0.115
Mof_C 	C 	0.779	0.57275	0.13396	0.042
Mof_H 	H 	0.7541	0.5986	0.0869	0.035
Mof_C 	C 	0.851	0.6127	0.17727	-0.094
Mof_C 	C 	0.8862	0.57383	0.24592	0.05
Mof_H 	H 	0.9318	0.6023	0.2782	0.052
Mof_C 	C 	0.856	0.4935	0.26856	-0.105
Mof_C 	C 	0.784	0.45491	0.2246	0.057
Mof_H 	H 	0.7626	0.4005	0.2396	0.043
Mof_C 	C 	0.6566	0.45928	0.11745	0.37
Mof_C 	C 	0.8927	0.69382	0.1503	0.3
Mof_C 	C 	0.9038	0.45317	0.34046	0.379
Mof_O 	O 	0.63107	0.49442	0.05321	-0.42
Mof_O 	O 	0.61799	0.39734	0.15182	-0.416
Mof_O 	O 	0.86953	0.7247	0.08341	-0.351
Mof_O 	O 	0.95503	0.72877	0.19462	-0.343
Mof_O 	O 	0.93591	0.50261	0.3911	-0.389
Mof_O 	O 	0.90859	0.37368	0.34018	-0.382
Mof_C 	C 	0.4185	0.3024	0.8855	-1.053
Mof_H 	H 	0.3506	0.2887	0.8835	0.361
Mof_H 	H 	0.4548	0.2588	0.8575	0.366
Mof_H 	H 	0.4294	0.3567	0.8593	0.353
Mof_C 	C 	0.4501	0.30715	0.9719	0.714
Mof_O 	O 	0.43174	0.25021	0.02019	-0.518
Mof_O 	O 	0.50237	0.3686	0.99489	-0.548
Mof_Ni	Ni	0.97904	0.68251	0.60664	1.149
Mof_C 	C 	0.757	0.5045	0.65882	-0.106
Mof_C 	C 	0.721	0.42725	0.63396	0.041
Mof_H 	H 	0.7459	0.4014	0.5869	0.041
Mof_C 	C 	0.649	0.3873	0.67727	-0.096
Mof_C 	C 	0.6138	0.42617	0.74592	0.054
Mof_H 	H 	0.5682	0.3977	0.7782	0.038
Mof_C 	C 	0.644	0.5065	0.76856	-0.106
Mof_C 	C 	0.716	0.54509	0.7246	0.059
Mof_H 	H 	0.7374	0.5995	0.7396	0.049
Mof_C 	C 	0.8434	0.54072	0.61745	0.368
Mof_C 	C 	0.6073	0.30618	0.6503	0.3
Mof_C 	C 	0.5962	0.54683	0.84046	0.382
Mof_O 	O 	0.86893	0.50558	0.55321	-0.384
Mof_O 	O 	0.88201	0.60266	0.65182	-0.394
Mof_O 	O 	0.63047	0.2753	0.58341	-0.342
Mof_O 	O 	0.54497	0.27123	0.69462	-0.365
Mof_O 	O 	0.56409	0.49739	0.8911	-0.392
Mof_O 	O 	0.59141	0.62632	0.84018	-0.392
Mof_C 	C 	0.0815	0.6976	0.3855	-0.865
Mof_H 	H 	0.1494	0.7113	0.3835	0.298
Mof_H 	H 	0.0452	0.7412	0.3575	0.29
Mof_H 	H 	0.0706	0.6433	0.3593	0.28
Mof_C 	C 	0.0499	0.69285	0.4719	0.505
Mof_O 	O 	0.06826	0.74979	0.52019	-0.422
Mof_O 	O 	0.99763	0.6314	0.49489	-0.487
Mof_Ni	Ni	0.52096	0.18251	0.60664	1.128
Mof_C 	C 	0.743	0.0045	0.65882	-0.202
Mof_C 	C 	0.779	0.92725	0.63396	0.148
Mof_H 	H 	0.7541	0.9014	0.5869	0.019
Mof_C 	C 	0.851	0.8873	0.67727	-0.145
Mof_C 	C 	0.8862	0.92617	0.74592	0.15
Mof_H 	H 	0.9318	0.8977	0.7782	0.029
Mof_C 	C 	0.856	0.0065	0.76856	-0.178
Mof_C 	C 	0.784	0.04509	0.7246	0.116
Mof_H 	H 	0.7626	0.0995	0.7396	0.027
Mof_C 	C 	0.6566	0.04072	0.61745	0.394
Mof_C 	C 	0.8927	0.80618	0.6503	0.321
Mof_C 	C 	0.9038	0.04683	0.84046	0.346
Mof_O 	O 	0.63107	0.00558	0.55321	-0.425
Mof_O 	O 	0.61799	0.10266	0.65182	-0.42
Mof_O 	O 	0.86953	0.7753	0.58341	-0.334
Mof_O 	O 	0.95503	0.77123	0.69462	-0.341
Mof_O 	O 	0.93591	0.99739	0.8911	-0.317
Mof_O 	O 	0.90859	0.12632	0.84018	-0.363
Mof_C 	C 	0.4185	0.1976	0.3855	-0.956
Mof_H 	H 	0.3506	0.2113	0.3835	0.323
Mof_H 	H 	0.4548	0.2412	0.3575	0.331
Mof_H 	H 	0.4294	0.1433	0.3593	0.316
Mof_C 	C 	0.4501	0.19285	0.4719	0.6
Mof_O 	O 	0.43174	0.24979	0.52019	-0.43
Mof_O 	O 	0.50237	0.1314	0.49489	-0.571
Mof_Ni	Ni	0.97904	0.81749	0.10664	1.138
Mof_C 	C 	0.757	0.9955	0.15882	-0.018
Mof_C 	C 	0.721	0.07275	0.13396	-0.067
Mof_H 	H 	0.7459	0.0986	0.0869	0.057
Mof_C 	C 	0.649	0.1127	0.17727	-0.042
Mof_C 	C 	0.6138	0.07383	0.24592	-0.048
Mof_H 	H 	0.5682	0.1023	0.2782	0.063
Mof_C 	C 	0.644	0.9935	0.26856	-0.031
Mof_C 	C 	0.716	0.95491	0.2246	-0
Mof_H 	H 	0.7374	0.9005	0.2396	0.065
Mof_C 	C 	0.8434	0.95928	0.11745	0.343
Mof_C 	C 	0.6073	0.19382	0.1503	0.278
Mof_C 	C 	0.5962	0.95317	0.34046	0.414
Mof_O 	O 	0.86893	0.99442	0.05321	-0.375
Mof_O 	O 	0.88201	0.89734	0.15182	-0.391
Mof_O 	O 	0.63047	0.2247	0.08341	-0.358
Mof_O 	O 	0.54497	0.22877	0.19462	-0.365
Mof_O 	O 	0.56409	0.00261	0.3911	-0.46
Mof_O 	O 	0.59141	0.87368	0.34018	-0.408
Mof_C 	C 	0.0815	0.8024	0.8855	-0.945
Mof_H 	H 	0.1494	0.7887	0.8835	0.331
Mof_H 	H 	0.0452	0.7588	0.8575	0.319
Mof_H 	H 	0.0706	0.8567	0.8593	0.311
Mof_C 	C 	0.0499	0.80715	0.9719	0.601
Mof_O 	O 	0.06826	0.75021	0.02019	-0.5
Mof_O 	O 	0.99763	0.8686	0.99489	-0.453
Mof_Ni	Ni	0.47904	0.68251	0.89336	1.14
Mof_C 	C 	0.257	0.5045	0.84118	-0.111
Mof_C 	C 	0.221	0.42725	0.86604	0.043
Mof_H 	H 	0.2459	0.4014	0.9131	0.045
Mof_C 	C 	0.149	0.3873	0.82273	-0.105
Mof_C 	C 	0.1138	0.42617	0.75408	0.059
Mof_H 	H 	0.0682	0.3977	0.7218	0.021
Mof_C 	C 	0.144	0.5065	0.73144	-0.123
Mof_C 	C 	0.216	0.54509	0.7754	0.062
Mof_H 	H 	0.2374	0.5995	0.7604	0.041
Mof_C 	C 	0.3434	0.54072	0.88255	0.367
Mof_C 	C 	0.1073	0.30618	0.8497	0.301
Mof_C 	C 	0.0962	0.54683	0.65954	0.383
Mof_O 	O 	0.36893	0.50558	0.94679	-0.373
Mof_O 	O 	0.38201	0.60266	0.84818	-0.405
Mof_O 	O 	0.13047	0.2753	0.91659	-0.337
Mof_O 	O 	0.04497	0.27123	0.80538	-0.392
Mof_O 	O 	0.06409	0.49739	0.6089	-0.438
Mof_O 	O 	0.09141	0.62632	0.65982	-0.429
Mof_C 	C 	0.5815	0.6976	0.1145	-0.877
Mof_H 	H 	0.6494	0.7113	0.1165	0.298
Mof_H 	H 	0.5452	0.7412	0.1425	0.304
Mof_H 	H 	0.5706	0.6433	0.1407	0.303
Mof_C 	C 	0.5499	0.69285	0.0281	0.496
Mof_O 	O 	0.56826	0.74979	0.97981	-0.337
Mof_O 	O 	0.49763	0.6314	0.00511	-0.574
Mof_Ni	Ni	0.02096	0.31749	0.39336	1.111
Mof_C 	C 	0.243	0.4955	0.34118	-0.119
Mof_C 	C 	0.279	0.57275	0.36604	0.043
Mof_H 	H 	0.2541	0.5986	0.4131	0.04
Mof_C 	C 	0.351	0.6127	0.32273	-0.102
Mof_C 	C 	0.3862	0.57383	0.25408	0.055
Mof_H 	H 	0.4318	0.6023	0.2218	0.036
Mof_C 	C 	0.356	0.4935	0.23144	-0.12
Mof_C 	C 	0.284	0.45491	0.2754	0.06
Mof_H 	H 	0.2626	0.4005	0.2604	0.035
Mof_C 	C 	0.1566	0.45928	0.38255	0.369
Mof_C 	C 	0.3927	0.69382	0.3497	0.3
Mof_C 	C 	0.4038	0.45317	0.15954	0.38
Mof_O 	O 	0.13107	0.49442	0.44679	-0.408
Mof_O 	O 	0.11799	0.39734	0.34818	-0.425
Mof_O 	O 	0.36953	0.7247	0.41659	-0.343
Mof_O 	O 	0.45503	0.72877	0.30538	-0.367
Mof_O 	O 	0.43591	0.50261	0.1089	-0.432
Mof_O 	O 	0.40859	0.37368	0.15982	-0.417
Mof_C 	C 	0.9185	0.3024	0.6145	-1.072
Mof_H 	H 	0.8506	0.2887	0.6165	0.363
Mof_H 	H 	0.9548	0.2588	0.6425	0.383
Mof_H 	H 	0.9294	0.3567	0.6407	0.378
Mof_C 	C 	0.9501	0.30715	0.5281	0.71
Mof_O 	O 	0.93174	0.25021	0.47981	-0.435
Mof_O 	O 	0.00237	0.3686	0.50511	-0.639
Mof_Ni	Ni	0.5	0	0.5	1.129
Mof_Ni	Ni	-0	0	-0	1.076
Mof_Ni	Ni	0.5	0.5	-0	1.118
Mof_Ni	Ni	2.21091e-33	0.5	0.5	1.122
_end
