data_functionalizedCrystal
_audit_creation_method	'EQeq! by Chris Wilmer'
_symmetry_space_group_name_H-M	'P1'
_symmetry_Int_Tables_number	1
_symmetry_cell_setting	triclinic
loop_
_symmetry_equiv_pos_as_xyz
  x,y,z
_cell_length_a	19.801
_cell_length_b	20.162
_cell_length_c	27.225
_cell_angle_alpha	97.544
_cell_angle_beta	100.609
_cell_angle_gamma	111.627
loop_
_atom_site_label
_atom_site_type_symbol
_atom_site_fract_x
_atom_site_fract_y
_atom_site_fract_z
_atom_site_charge
Mof_Zn	Zn	0.55489	0.26488	0.88037	1.206
Mof_Zn	Zn	0.06265	0.66882	0.19364	1.203
Mof_Zn	Zn	0.47331	0.96388	0.6753	1.194
Mof_Zn	Zn	0.16166	0.76243	0.57125	1.21
Mof_Zn	Zn	0.04032	0.89018	0.34986	1.193
Mof_Zn	Zn	0.70354	0.36791	0.09631	1.195
Mof_Zn	Zn	0.45359	0.11128	0.66828	1.196
Mof_Zn	Zn	0.8614	0.35883	0.10011	1.193
Mof_Zn	Zn	0.93285	0.78222	0.40667	1.194
Mof_O 	O 	0.5513	0.3382	0.83862	-0.435
Mof_O 	O 	0.6388	0.3079	0.81466	-0.343
Mof_O 	O 	0.461	0.8499	0.6865	-0.389
Mof_O 	O 	0.5436	0.9192	0.6532	-0.429
Mof_O 	O 	0.0727	0.7502	0.5976	-0.486
Mof_O 	O 	0.0352	0.6359	0.5635	-0.307
Mof_O 	O 	0.1455	0.9429	0.30174	-0.341
Mof_O 	O 	0.0578	0.975	0.32014	-0.468
Mof_O 	O 	0.0883	0.5823	0.2468	-0.355
Mof_O 	O 	0.1268	0.6148	0.1788	-0.424
Mof_O 	O 	0.5872	0.3961	0.0723	-0.336
Mof_O 	O 	0.6138	0.324	0.12013	-0.454
Mof_O 	O 	0.4759	0.2605	0.91745	-0.435
Mof_O 	O 	0.5076	0.1741	0.94289	-0.338
Mof_O 	O 	0.9902	0.384	0.08519	-0.339
Mof_O 	O 	0.9209	0.3046	0.12292	-0.447
Mof_O 	O 	0.8439	0.7614	0.4327	-0.454
Mof_O 	O 	0.8849	0.6787	0.4545	-0.334
Mof_O 	O 	0.2664	0.7586	0.5286	-0.353
Mof_O 	O 	0.2121	0.6938	0.5776	-0.495
Mof_O 	O 	0.9489	0.8715	0.37746	-0.539
Mof_O 	O 	0.1594	0.7765	0.19288	-0.375
Mof_O 	O 	0.0424	0.75	0.1558	-0.41
Mof_O 	O 	0.7711	0.3234	0.12821	-0.533
Mof_O 	O 	0.5062	0.05205	0.64476	-0.533
Mof_N 	N 	0.2392	0.8537	0.6229	-0.245
Mof_N 	N 	0.7249	0.5668	0.67073	-0.144
Mof_N 	N 	0.6323	0.6044	0.69062	-0.143
Mof_N 	N 	0.7204	0.6755	0.65008	-0.141
Mof_N 	N 	0.1928	0.2873	0.21863	-0.141
Mof_N 	N 	0.2805	0.2423	0.19466	-0.141
Mof_N 	N 	0.2751	0.3499	0.17164	-0.142
Mof_N 	N 	0.2059	0.1815	0.06096	-0.141
Mof_N 	N 	0.1355	0.0989	0.10526	-0.144
Mof_N 	N 	0.2388	0.0843	0.08074	-0.144
Mof_N 	N 	0.5397	0.6207	0.53961	-0.142
Mof_N 	N 	0.4716	0.5306	0.58106	-0.142
Mof_N 	N 	0.5802	0.5272	0.55728	-0.139
Mof_N 	N 	0.1288	0.7982	0.5088	-0.25
Mof_N 	N 	0.0378	0.8073	0.44855	-0.298
Mof_N 	N 	0.1204	0.9019	0.4127	-0.294
Mof_N 	N 	0.2509	0.9444	0.4537	-0.152
Mof_N 	N 	0.2951	0.8986	0.5182	-0.295
Mof_H 	H 	0.3407	0.9294	0.5191	0.144
Mof_H 	H 	0.2886	0.8687	0.5395	0.137
Mof_N 	N 	0.0179	0.7896	0.30998	-0.302
Mof_N 	N 	0.034	0.7035	0.25736	-0.249
Mof_N 	N 	0.9208	0.7086	0.34401	-0.295
Mof_N 	N 	0.885	0.5824	0.309	-0.151
Mof_N 	N 	0.9472	0.5397	0.2581	-0.3
Mof_H 	H 	0.9209	0.4951	0.2609	0.148
Mof_H 	H 	0.9806	0.5471	0.2398	0.144
Mof_N 	N 	0.9632	0.5862	0.15052	-0.243
Mof_N 	N 	0.8879	0.4659	0.12178	-0.304
Mof_N 	N 	0.768	0.475	0.1235	-0.298
Mof_N 	N 	0.7792	0.5974	0.1517	-0.15
Mof_N 	N 	0.8912	0.6968	0.1708	-0.302
Mof_H 	H 	0.8671	0.7248	0.1765	0.149
Mof_H 	H 	0.94	0.7165	0.1744	0.142
Mof_N 	N 	0.6994	0.3384	0.02235	-0.3
Mof_N 	N 	0.6483	0.303	0.93714	-0.255
Mof_N 	N 	0.8139	0.3185	0.02331	-0.293
Mof_N 	N 	0.8219	0.2715	0.9402	-0.153
Mof_N 	N 	0.7371	0.2564	0.8661	-0.311
Mof_H 	H 	0.7654	0.2429	0.8491	0.176
Mof_H 	H 	0.6953	0.2577	0.8494	0.157
Mof_N 	N 	0.5203	0.1718	0.82739	-0.253
Mof_N 	N 	0.4818	0.1164	0.74353	-0.303
Mof_N 	N 	0.5161	0.0143	0.75061	-0.294
Mof_N 	N 	0.5778	0.0173	0.8362	-0.152
Mof_N 	N 	0.5914	0.1033	0.9055	-0.299
Mof_H 	H 	0.6127	0.0816	0.9253	0.151
Mof_H 	H 	0.5856	0.1424	0.919	0.143
Mof_N 	N 	0.1177	0.9153	0.6022	-0.298
Mof_H 	H 	0.0858	0.9361	0.5972	0.145
Mof_H 	H 	0.101	0.8677	0.5998	0.135
Mof_N 	N 	0.218	0.029	0.6172	-0.151
Mof_N 	N 	0.3447	0.045	0.64352	-0.307
Mof_N 	N 	0.3614	0.9329	0.65136	-0.302
Mof_C 	C 	0.5994	0.3428	0.8125	0.319
Mof_C 	C 	0.609	0.3956	0.7768	-0.079
Mof_C 	C 	0.5779	0.4462	0.7785	0.013
Mof_H 	H 	0.5451	0.4455	0.8001	0.043
Mof_C 	C 	0.594	0.4978	0.7492	-0.071
Mof_H 	H 	0.5721	0.5325	0.7505	0.066
Mof_C 	C 	0.6426	0.4997	0.7175	0.02
Mof_C 	C 	0.6713	0.4465	0.7139	-0.07
Mof_H 	H 	0.7027	0.4457	0.6915	0.067
Mof_C 	C 	0.6536	0.3948	0.7434	0.013
Mof_H 	H 	0.6725	0.3578	0.7406	0.046
Mof_C 	C 	0.6676	0.5603	0.6914	0.122
Mof_C 	C 	0.6609	0.6616	0.6696	0.115
Mof_C 	C 	0.7516	0.6272	0.6528	0.111
Mof_C 	C 	0.6229	0.7128	0.6677	0.036
Mof_C 	C 	0.5639	0.7025	0.6902	-0.09
Mof_H 	H 	0.547	0.6622	0.706	0.073
Mof_C 	C 	0.5521	0.809	0.6676	-0.104
Mof_C 	C 	0.6102	0.818	0.6449	0.028
Mof_H 	H 	0.6267	0.8584	0.6291	0.04
Mof_C 	C 	0.6457	0.77	0.6443	-0.088
Mof_H 	H 	0.6853	0.777	0.6277	0.071
Mof_C 	C 	0.5166	0.8625	0.6688	0.333
Mof_C 	C 	0.8203	0.6419	0.6352	0.032
Mof_C 	C 	0.8602	0.7106	0.6267	-0.094
Mof_H 	H 	0.8418	0.7478	0.6306	0.071
Mof_C 	C 	0.9277	0.7244	0.6124	0.04
Mof_H 	H 	0.9552	0.7718	0.6075	0.025
Mof_C 	C 	0.9551	0.6721	0.6054	-0.112
Mof_C 	C 	0.9143	0.6038	0.6136	0.037
Mof_H 	H 	0.9323	0.5663	0.6091	0.036
Mof_C 	C 	0.8484	0.5896	0.6281	-0.095
Mof_H 	H 	0.8215	0.5423	0.6333	0.073
Mof_C 	C 	0.0271	0.688	0.5888	0.374
Mof_C 	C 	0.1137	0.9845	0.3009	0.335
Mof_C 	C 	0.1405	0.0511	0.2788	-0.1
Mof_C 	C 	0.1056	0.0994	0.2786	0.027
Mof_H 	H 	0.0628	0.0905	0.292	0.035
Mof_C 	C 	0.1336	0.1603	0.2588	-0.092
Mof_H 	H 	0.1105	0.194	0.2593	0.071
Mof_C 	C 	0.1941	0.1733	0.2384	0.036
Mof_C 	C 	0.2289	0.1257	0.2396	-0.087
Mof_H 	H 	0.2723	0.1352	0.2268	0.073
Mof_C 	C 	0.2016	0.0646	0.259	0.028
Mof_H 	H 	0.2253	0.0314	0.2587	0.041
Mof_C 	C 	0.2239	0.2381	0.2157	0.111
Mof_C 	C 	0.22	0.3423	0.1958	0.119
Mof_C 	C 	0.3059	0.3006	0.1745	0.113
Mof_C 	C 	0.1906	0.3979	0.1963	0.012
Mof_C 	C 	0.1438	0.4027	0.2276	-0.06
Mof_H 	H 	0.1268	0.3655	0.2461	0.064
Mof_C 	C 	0.1215	0.4595	0.2327	-0.003
Mof_H 	H 	0.0917	0.4628	0.2558	0.044
Mof_C 	C 	0.1423	0.5115	0.2044	-0.062
Mof_C 	C 	0.1857	0.5062	0.1708	0.002
Mof_H 	H 	0.1981	0.5411	0.1501	0.053
Mof_C 	C 	0.2116	0.4503	0.167	-0.06
Mof_H 	H 	0.2428	0.448	0.1447	0.061
Mof_C 	C 	0.118	0.5764	0.2122	0.306
Mof_C 	C 	0.3715	0.3116	0.1529	0.024
Mof_C 	C 	0.3967	0.3673	0.1272	-0.079
Mof_H 	H 	0.3703	0.3978	0.1221	0.065
Mof_C 	C 	0.4587	0.3786	0.1094	0.014
Mof_H 	H 	0.4745	0.4158	0.0908	0.043
Mof_C 	C 	0.4992	0.336	0.1182	-0.08
Mof_C 	C 	0.4743	0.281	0.1428	0.017
Mof_H 	H 	0.5012	0.2511	0.1482	0.044
Mof_C 	C 	0.4106	0.268	0.1601	-0.079
Mof_H 	H 	0.3936	0.2289	0.177	0.068
Mof_C 	C 	0.5718	0.3526	0.1019	0.313
Mof_C 	C 	0.4693	0.2106	0.9427	0.328
Mof_C 	C 	0.4127	0.1958	0.9735	-0.098
Mof_C 	C 	0.3713	0.2363	0.9783	0.03
Mof_H 	H 	0.3785	0.276	0.9616	0.04
Mof_C 	C 	0.3187	0.22	0.0072	-0.088
Mof_H 	H 	0.2905	0.2489	0.0101	0.07
Mof_C 	C 	0.3069	0.1631	0.0317	0.035
Mof_C 	C 	0.3484	0.1233	0.0273	-0.091
Mof_H 	H 	0.3414	0.0839	0.0442	0.07
Mof_C 	C 	0.4007	0.1392	0.9988	0.028
Mof_H 	H 	0.4291	0.1104	0.9965	0.037
Mof_C 	C 	0.2469	0.141	0.0594	0.109
Mof_C 	C 	0.1518	0.1576	0.0858	0.118
Mof_C 	C 	0.1809	0.065	0.1024	0.111
Mof_C 	C 	0.107	0.201	0.0904	0.02
Mof_C 	C 	0.1203	0.2632	0.0692	-0.072
Mof_H 	H 	0.1587	0.2776	0.0516	0.065
Mof_C 	C 	0.0783	0.3028	0.0738	0.013
Mof_H 	H 	0.0866	0.3436	0.0582	0.042
Mof_C 	C 	0.024	0.2851	0.1008	-0.079
Mof_C 	C 	0.0104	0.2236	0.1229	0.011
Mof_H 	H 	0.9728	0.2102	0.1412	0.043
Mof_C 	C 	0.0522	0.1836	0.1174	-0.07
Mof_H 	H 	0.0435	0.1424	0.1327	0.065
Mof_C 	C 	0.9765	0.328	0.1038	0.307
Mof_C 	C 	0.166	0.9976	0.1224	0.034
Mof_C 	C 	0.0961	0.9608	0.129	-0.09
Mof_H 	H 	0.0591	0.9803	0.1232	0.071
Mof_C 	C 	0.0796	0.8948	0.1443	0.032
Mof_H 	H 	0.0307	0.8692	0.1484	0.032
Mof_C 	C 	0.1312	0.8661	0.1536	-0.094
Mof_C 	C 	0.2028	0.9052	0.1493	0.031
Mof_H 	H 	0.2411	0.888	0.158	0.033
Mof_C 	C 	0.2182	0.9692	0.1326	-0.091
Mof_H 	H 	0.2669	0.9944	0.128	0.071
Mof_C 	C 	0.1104	0.7935	0.1685	0.317
Mof_C 	C 	0.8386	0.7067	0.4529	0.307
Mof_C 	C 	0.7711	0.6744	0.4749	-0.081
Mof_C 	C 	0.7209	0.7052	0.4743	0.012
Mof_H 	H 	0.7276	0.7461	0.459	0.043
Mof_C 	C 	0.6598	0.6788	0.4953	-0.077
Mof_H 	H 	0.6255	0.7017	0.4951	0.067
Mof_C 	C 	0.6506	0.6182	0.5165	0.026
Mof_C 	C 	0.7015	0.5865	0.516	-0.074
Mof_H 	H 	0.6957	0.5451	0.5306	0.07
Mof_C 	C 	0.7613	0.6149	0.4942	0.013
Mof_H 	H 	0.7953	0.592	0.493	0.048
Mof_C 	C 	0.5862	0.5876	0.5394	0.117
Mof_C 	C 	0.482	0.5891	0.5603	0.106
Mof_C 	C 	0.5204	0.5017	0.5778	0.114
Mof_C 	C 	0.5089	0.4345	0.5988	0.037
Mof_C 	C 	0.4569	0.4131	0.6269	-0.095
Mof_H 	H 	0.4293	0.4416	0.6334	0.073
Mof_C 	C 	0.4446	0.3517	0.6453	0.037
Mof_H 	H 	0.409	0.3379	0.6652	0.035
Mof_C 	C 	0.4828	0.3094	0.6357	-0.103
Mof_C 	C 	0.5353	0.3288	0.6085	0.024
Mof_H 	H 	0.5622	0.2994	0.6021	0.041
Mof_C 	C 	0.5492	0.3937	0.5898	-0.087
Mof_H 	H 	0.5862	0.4088	0.5711	0.072
Mof_C 	C 	0.4252	0.6217	0.5602	0.046
Mof_C 	C 	0.4338	0.684	0.5419	-0.111
Mof_H 	H 	0.4768	0.7075	0.5298	0.077
Mof_C 	C 	0.3813	0.7115	0.5411	0.058
Mof_H 	H 	0.3881	0.7544	0.5281	0.026
Mof_C 	C 	0.3198	0.6808	0.5578	-0.123
Mof_C 	C 	0.313	0.6222	0.5787	0.045
Mof_H 	H 	0.2715	0.6021	0.5929	0.036
Mof_C 	C 	0.3649	0.59	0.5802	-0.102
Mof_H 	H 	0.3588	0.5481	0.5944	0.076
Mof_C 	C 	0.2582	0.7111	0.5575	0.398
Mof_C 	C 	0.0568	0.7761	0.4865	0.091
Mof_H 	H 	0.0196	0.7394	0.4969	-0.014
Mof_C 	C 	0.162	0.8507	0.4826	-0.034
Mof_C 	C 	0.1067	0.8568	0.4469	0.094
Mof_C 	C 	0.1939	0.9432	0.4207	0.108
Mof_H 	H 	0.206	0.9766	0.3989	-0.006
Mof_C 	C 	0.2366	0.8972	0.485	0.152
Mof_C 	C 	0.0526	0.7732	0.2764	0.102
Mof_H 	H 	0.0898	0.8105	0.2663	-0.017
Mof_C 	C 	0.9702	0.7226	0.313	0.102
Mof_C 	C 	0.9796	0.6699	0.2822	-0.04
Mof_C 	C 	0.9366	0.5956	0.2812	0.153
Mof_C 	C 	0.8799	0.6369	0.3372	0.11
Mof_H 	H 	0.842	0.624	0.3554	-0.007
Mof_C 	C 	0.9572	0.5191	0.1354	0.093
Mof_H 	H 	0.0001	0.5088	0.1342	-0.015
Mof_C 	C 	0.8438	0.5031	0.1309	0.099
Mof_C 	C 	0.8891	0.5764	0.1474	-0.042
Mof_C 	C 	0.854	0.625	0.1567	0.151
Mof_C 	C 	0.7419	0.5266	0.1359	0.102
Mof_H 	H 	0.6894	0.509	0.1328	-0.004
Mof_C 	C 	0.642	0.3282	0.983	0.085
Mof_H 	H 	0.6	0.3383	0.9875	-0.016
Mof_C 	C 	0.7159	0.2958	0.9475	-0.043
Mof_C 	C 	0.7467	0.3176	0.9995	0.101
Mof_C 	C 	0.8456	0.2925	0.9899	0.106
Mof_H 	H 	0.8912	0.2889	0.0046	-0.005
Mof_C 	C 	0.7576	0.2746	0.9168	0.155
Mof_C 	C 	0.4889	0.1709	0.7799	0.098
Mof_H 	H 	0.472	0.2077	0.7722	-0.021
Mof_C 	C 	0.5113	0.0775	0.771	0.109
Mof_C 	C 	0.5344	0.1098	0.8214	-0.042
Mof_C 	C 	0.5678	0.0771	0.8551	0.149
Mof_C 	C 	0.5506	0.9899	0.786	0.107
Mof_H 	H 	0.5567	0.9466	0.7737	-0.009
Mof_C 	C 	0.3107	0.8635	0.6398	0.085
Mof_H 	H 	0.3247	0.8238	0.6435	-0.013
Mof_C 	C 	0.32	0.9728	0.64	0.103
Mof_C 	C 	0.2905	0.0671	0.6303	0.114
Mof_H 	H 	0.3063	0.1177	0.6303	-0.011
Mof_C 	C 	0.1916	0.9558	0.6134	0.141
Mof_C 	C 	0.2455	0.9243	0.6239	-0.046
Mof_C 	C 	0.5296	0.751	0.6896	0.032
Mof_H 	H 	0.4889	0.7433	0.7051	0.037
Mof_O 	O 	0.4995	0.1999	0.6415	-0.465
Mof_O 	O 	0.4242	0.2244	0.6822	-0.344
Mof_C 	C 	0.4696	0.239	0.6536	0.348
Mof_Zn	Zn	0.44511	0.73512	0.11963	1.207
Mof_Zn	Zn	0.93735	0.33118	0.80636	1.204
Mof_Zn	Zn	0.52669	0.03612	0.3247	1.195
Mof_Zn	Zn	0.83834	0.23757	0.42875	1.211
Mof_Zn	Zn	0.95968	0.10982	0.65014	1.194
Mof_Zn	Zn	0.29646	0.63209	0.90369	1.196
Mof_Zn	Zn	0.54641	0.88872	0.33172	1.197
Mof_Zn	Zn	0.1386	0.64117	0.89989	1.194
Mof_Zn	Zn	0.06715	0.21778	0.59333	1.195
Mof_O 	O 	0.4487	0.6618	0.16138	-0.434
Mof_O 	O 	0.3612	0.6921	0.18534	-0.342
Mof_O 	O 	0.539	0.1501	0.3135	-0.388
Mof_O 	O 	0.4564	0.0808	0.3468	-0.428
Mof_O 	O 	0.9273	0.2498	0.4024	-0.485
Mof_O 	O 	0.9648	0.3641	0.4365	-0.306
Mof_O 	O 	0.8545	0.0571	0.69826	-0.34
Mof_O 	O 	0.9422	0.025	0.67986	-0.468
Mof_O 	O 	0.9117	0.4177	0.7532	-0.355
Mof_O 	O 	0.8732	0.3852	0.8212	-0.424
Mof_O 	O 	0.4128	0.6039	0.9277	-0.336
Mof_O 	O 	0.3862	0.676	0.87987	-0.454
Mof_O 	O 	0.5241	0.7395	0.08255	-0.435
Mof_O 	O 	0.4924	0.8259	0.05711	-0.338
Mof_O 	O 	0.0098	0.616	0.91481	-0.339
Mof_O 	O 	0.0791	0.6954	0.87708	-0.447
Mof_O 	O 	0.1561	0.2386	0.5673	-0.454
Mof_O 	O 	0.1151	0.3213	0.5455	-0.334
Mof_O 	O 	0.7336	0.2414	0.4714	-0.353
Mof_O 	O 	0.7879	0.3062	0.4224	-0.495
Mof_O 	O 	0.0511	0.1285	0.62254	-0.539
Mof_O 	O 	0.8406	0.2235	0.80712	-0.375
Mof_O 	O 	0.9576	0.25	0.8442	-0.41
Mof_O 	O 	0.2289	0.6766	0.87179	-0.533
Mof_O 	O 	0.4938	0.94795	0.35524	-0.533
Mof_N 	N 	0.7608	0.1463	0.3771	-0.245
Mof_N 	N 	0.2751	0.4332	0.32927	-0.144
Mof_N 	N 	0.3677	0.3956	0.30938	-0.143
Mof_N 	N 	0.2796	0.3245	0.34992	-0.141
Mof_N 	N 	0.8072	0.7127	0.78137	-0.141
Mof_N 	N 	0.7195	0.7577	0.80534	-0.141
Mof_N 	N 	0.7249	0.6501	0.82836	-0.142
Mof_N 	N 	0.7941	0.8185	0.93904	-0.141
Mof_N 	N 	0.8645	0.9011	0.89474	-0.144
Mof_N 	N 	0.7612	0.9157	0.91926	-0.144
Mof_N 	N 	0.4603	0.3793	0.46039	-0.142
Mof_N 	N 	0.5284	0.4694	0.41894	-0.142
Mof_N 	N 	0.4198	0.4728	0.44272	-0.139
Mof_N 	N 	0.8712	0.2018	0.4912	-0.25
Mof_N 	N 	0.9622	0.1927	0.55145	-0.298
Mof_N 	N 	0.8796	0.0981	0.5873	-0.294
Mof_N 	N 	0.7491	0.0556	0.5463	-0.152
Mof_N 	N 	0.7049	0.1014	0.4818	-0.295
Mof_H 	H 	0.6593	0.0706	0.4809	0.144
Mof_H 	H 	0.7114	0.1313	0.4605	0.137
Mof_N 	N 	0.9821	0.2104	0.69002	-0.302
Mof_N 	N 	0.966	0.2965	0.74264	-0.249
Mof_N 	N 	0.0792	0.2914	0.65599	-0.295
Mof_N 	N 	0.115	0.4176	0.691	-0.151
Mof_N 	N 	0.0528	0.4603	0.7419	-0.3
Mof_H 	H 	0.0791	0.5049	0.7391	0.148
Mof_H 	H 	0.0194	0.4529	0.7602	0.144
Mof_N 	N 	0.0368	0.4138	0.84948	-0.243
Mof_N 	N 	0.1121	0.5341	0.87822	-0.304
Mof_N 	N 	0.232	0.525	0.8765	-0.298
Mof_N 	N 	0.2208	0.4026	0.8483	-0.15
Mof_N 	N 	0.1088	0.3032	0.8292	-0.302
Mof_H 	H 	0.1329	0.2752	0.8235	0.149
Mof_H 	H 	0.06	0.2835	0.8256	0.142
Mof_N 	N 	0.3006	0.6616	0.97765	-0.3
Mof_N 	N 	0.3517	0.697	0.06286	-0.255
Mof_N 	N 	0.1861	0.6815	0.97669	-0.293
Mof_N 	N 	0.1781	0.7285	0.0598	-0.153
Mof_N 	N 	0.2629	0.7436	0.1339	-0.311
Mof_H 	H 	0.2346	0.7571	0.1509	0.176
Mof_H 	H 	0.3047	0.7423	0.1506	0.157
Mof_N 	N 	0.4797	0.8282	0.17261	-0.253
Mof_N 	N 	0.5182	0.8836	0.25647	-0.303
Mof_N 	N 	0.4839	0.9857	0.24939	-0.294
Mof_N 	N 	0.4222	0.9827	0.1638	-0.152
Mof_N 	N 	0.4086	0.8967	0.0945	-0.299
Mof_H 	H 	0.3873	0.9184	0.0747	0.151
Mof_H 	H 	0.4144	0.8576	0.081	0.143
Mof_N 	N 	0.8823	0.0847	0.3978	-0.298
Mof_H 	H 	0.9142	0.0639	0.4028	0.145
Mof_H 	H 	0.899	0.1323	0.4002	0.135
Mof_N 	N 	0.782	0.971	0.3828	-0.151
Mof_N 	N 	0.6553	0.955	0.35648	-0.307
Mof_N 	N 	0.6386	0.0671	0.34864	-0.302
Mof_C 	C 	0.4006	0.6572	0.1875	0.319
Mof_C 	C 	0.391	0.6044	0.2232	-0.079
Mof_C 	C 	0.4221	0.5538	0.2215	0.013
Mof_H 	H 	0.4549	0.5545	0.1999	0.043
Mof_C 	C 	0.406	0.5022	0.2508	-0.071
Mof_H 	H 	0.4279	0.4675	0.2495	0.066
Mof_C 	C 	0.3574	0.5003	0.2825	0.02
Mof_C 	C 	0.3287	0.5535	0.2861	-0.07
Mof_H 	H 	0.2973	0.5543	0.3085	0.067
Mof_C 	C 	0.3464	0.6052	0.2566	0.013
Mof_H 	H 	0.3275	0.6422	0.2594	0.046
Mof_C 	C 	0.3324	0.4397	0.3086	0.122
Mof_C 	C 	0.3391	0.3384	0.3304	0.115
Mof_C 	C 	0.2484	0.3728	0.3472	0.111
Mof_C 	C 	0.3771	0.2872	0.3323	0.036
Mof_C 	C 	0.4361	0.2975	0.3098	-0.09
Mof_H 	H 	0.453	0.3378	0.294	0.073
Mof_C 	C 	0.4479	0.191	0.3324	-0.104
Mof_C 	C 	0.3898	0.182	0.3551	0.028
Mof_H 	H 	0.3733	0.1416	0.3709	0.04
Mof_C 	C 	0.3543	0.23	0.3557	-0.088
Mof_H 	H 	0.3147	0.223	0.3723	0.071
Mof_C 	C 	0.4834	0.1375	0.3312	0.333
Mof_C 	C 	0.1797	0.3581	0.3648	0.032
Mof_C 	C 	0.1398	0.2894	0.3733	-0.094
Mof_H 	H 	0.1582	0.2522	0.3694	0.071
Mof_C 	C 	0.0723	0.2756	0.3876	0.04
Mof_H 	H 	0.0448	0.2282	0.3925	0.025
Mof_C 	C 	0.0449	0.3279	0.3946	-0.112
Mof_C 	C 	0.0857	0.3962	0.3864	0.037
Mof_H 	H 	0.0677	0.4337	0.3909	0.036
Mof_C 	C 	0.1516	0.4104	0.3719	-0.095
Mof_H 	H 	0.1785	0.4577	0.3667	0.073
Mof_C 	C 	0.9729	0.312	0.4112	0.374
Mof_C 	C 	0.8863	0.0155	0.6991	0.335
Mof_C 	C 	0.8595	0.9489	0.7212	-0.1
Mof_C 	C 	0.8944	0.9006	0.7214	0.027
Mof_H 	H 	0.9372	0.9095	0.708	0.035
Mof_C 	C 	0.8664	0.8397	0.7412	-0.092
Mof_H 	H 	0.8895	0.806	0.7407	0.071
Mof_C 	C 	0.8059	0.8267	0.7616	0.036
Mof_C 	C 	0.7711	0.8743	0.7604	-0.087
Mof_H 	H 	0.7277	0.8648	0.7732	0.073
Mof_C 	C 	0.7984	0.9354	0.741	0.028
Mof_H 	H 	0.7747	0.9686	0.7413	0.041
Mof_C 	C 	0.7761	0.7619	0.7843	0.111
Mof_C 	C 	0.78	0.6577	0.8042	0.119
Mof_C 	C 	0.6941	0.6994	0.8255	0.113
Mof_C 	C 	0.8094	0.6021	0.8037	0.012
Mof_C 	C 	0.8562	0.5973	0.7724	-0.06
Mof_H 	H 	0.8732	0.6345	0.7539	0.064
Mof_C 	C 	0.8785	0.5405	0.7673	-0.003
Mof_H 	H 	0.9083	0.5372	0.7442	0.044
Mof_C 	C 	0.8577	0.4885	0.7956	-0.062
Mof_C 	C 	0.8143	0.4938	0.8292	0.002
Mof_H 	H 	0.8019	0.4589	0.8499	0.053
Mof_C 	C 	0.7884	0.5497	0.833	-0.06
Mof_H 	H 	0.7572	0.552	0.8553	0.061
Mof_C 	C 	0.882	0.4236	0.7878	0.306
Mof_C 	C 	0.6285	0.6884	0.8471	0.024
Mof_C 	C 	0.6033	0.6327	0.8728	-0.079
Mof_H 	H 	0.6297	0.6022	0.8779	0.065
Mof_C 	C 	0.5413	0.6214	0.8906	0.014
Mof_H 	H 	0.5255	0.5842	0.9092	0.043
Mof_C 	C 	0.5008	0.664	0.8818	-0.08
Mof_C 	C 	0.5257	0.719	0.8572	0.017
Mof_H 	H 	0.4988	0.7489	0.8518	0.044
Mof_C 	C 	0.5894	0.732	0.8399	-0.079
Mof_H 	H 	0.6064	0.7711	0.823	0.068
Mof_C 	C 	0.4282	0.6474	0.8981	0.313
Mof_C 	C 	0.5307	0.7894	0.0573	0.328
Mof_C 	C 	0.5873	0.8042	0.0265	-0.098
Mof_C 	C 	0.6287	0.7637	0.0217	0.03
Mof_H 	H 	0.6215	0.724	0.0384	0.04
Mof_C 	C 	0.6813	0.78	0.9928	-0.088
Mof_H 	H 	0.7095	0.7511	0.9899	0.07
Mof_C 	C 	0.6931	0.8369	0.9683	0.035
Mof_C 	C 	0.6516	0.8767	0.9727	-0.091
Mof_H 	H 	0.6586	0.9161	0.9558	0.07
Mof_C 	C 	0.5993	0.8608	0.0012	0.028
Mof_H 	H 	0.5709	0.8896	0.0035	0.037
Mof_C 	C 	0.7531	0.859	0.9406	0.109
Mof_C 	C 	0.8482	0.8424	0.9142	0.118
Mof_C 	C 	0.8191	0.935	0.8976	0.111
Mof_C 	C 	0.893	0.799	0.9096	0.02
Mof_C 	C 	0.8797	0.7368	0.9308	-0.072
Mof_H 	H 	0.8413	0.7224	0.9484	0.065
Mof_C 	C 	0.9217	0.6972	0.9262	0.013
Mof_H 	H 	0.9134	0.6564	0.9418	0.042
Mof_C 	C 	0.976	0.7149	0.8992	-0.079
Mof_C 	C 	0.9896	0.7764	0.8771	0.011
Mof_H 	H 	0.0272	0.7898	0.8588	0.043
Mof_C 	C 	0.9478	0.8164	0.8826	-0.07
Mof_H 	H 	0.9565	0.8576	0.8673	0.065
Mof_C 	C 	0.0235	0.672	0.8962	0.307
Mof_C 	C 	0.834	0.0024	0.8776	0.034
Mof_C 	C 	0.9039	0.0392	0.871	-0.09
Mof_H 	H 	0.9409	0.0197	0.8768	0.071
Mof_C 	C 	0.9204	0.1052	0.8557	0.032
Mof_H 	H 	0.9693	0.1308	0.8516	0.032
Mof_C 	C 	0.8688	0.1339	0.8464	-0.094
Mof_C 	C 	0.7972	0.0948	0.8507	0.031
Mof_H 	H 	0.7589	0.112	0.842	0.033
Mof_C 	C 	0.7818	0.0308	0.8674	-0.091
Mof_H 	H 	0.7331	0.0056	0.872	0.071
Mof_C 	C 	0.8896	0.2065	0.8315	0.317
Mof_C 	C 	0.1614	0.2933	0.5471	0.307
Mof_C 	C 	0.2289	0.3256	0.5251	-0.081
Mof_C 	C 	0.2791	0.2948	0.5257	0.012
Mof_H 	H 	0.2724	0.2539	0.541	0.043
Mof_C 	C 	0.3402	0.3212	0.5047	-0.077
Mof_H 	H 	0.3745	0.2983	0.5049	0.067
Mof_C 	C 	0.3494	0.3818	0.4835	0.026
Mof_C 	C 	0.2985	0.4135	0.484	-0.074
Mof_H 	H 	0.3043	0.4549	0.4694	0.07
Mof_C 	C 	0.2387	0.3851	0.5058	0.013
Mof_H 	H 	0.2047	0.408	0.507	0.048
Mof_C 	C 	0.4138	0.4124	0.4606	0.117
Mof_C 	C 	0.518	0.4109	0.4397	0.106
Mof_C 	C 	0.4796	0.4983	0.4222	0.114
Mof_C 	C 	0.4911	0.5655	0.4012	0.037
Mof_C 	C 	0.5431	0.5869	0.3731	-0.095
Mof_H 	H 	0.5707	0.5584	0.3666	0.073
Mof_C 	C 	0.5554	0.6483	0.3547	0.037
Mof_H 	H 	0.591	0.6621	0.3348	0.035
Mof_C 	C 	0.5172	0.6906	0.3643	-0.103
Mof_C 	C 	0.4647	0.6712	0.3915	0.024
Mof_H 	H 	0.4378	0.7006	0.3979	0.041
Mof_C 	C 	0.4508	0.6063	0.4102	-0.087
Mof_H 	H 	0.4138	0.5912	0.4289	0.072
Mof_C 	C 	0.5748	0.3783	0.4398	0.046
Mof_C 	C 	0.5662	0.316	0.4581	-0.111
Mof_H 	H 	0.5232	0.2925	0.4702	0.077
Mof_C 	C 	0.6187	0.2885	0.4589	0.058
Mof_H 	H 	0.6119	0.2456	0.4719	0.026
Mof_C 	C 	0.6802	0.3192	0.4422	-0.123
Mof_C 	C 	0.687	0.3778	0.4213	0.045
Mof_H 	H 	0.7285	0.3979	0.4071	0.036
Mof_C 	C 	0.6351	0.41	0.4198	-0.102
Mof_H 	H 	0.6412	0.4519	0.4056	0.076
Mof_C 	C 	0.7418	0.2889	0.4425	0.398
Mof_C 	C 	0.9432	0.2239	0.5135	0.091
Mof_H 	H 	0.9804	0.2606	0.5031	-0.014
Mof_C 	C 	0.838	0.1493	0.5174	-0.034
Mof_C 	C 	0.8933	0.1432	0.5531	0.094
Mof_C 	C 	0.8061	0.0568	0.5793	0.108
Mof_H 	H 	0.794	0.0234	0.6011	-0.006
Mof_C 	C 	0.7634	0.1028	0.515	0.152
Mof_C 	C 	0.9474	0.2268	0.7236	0.102
Mof_H 	H 	0.9102	0.1895	0.7337	-0.017
Mof_C 	C 	0.0298	0.2774	0.687	0.102
Mof_C 	C 	0.0204	0.3301	0.7178	-0.04
Mof_C 	C 	0.0634	0.4044	0.7188	0.153
Mof_C 	C 	0.1201	0.3631	0.6628	0.11
Mof_H 	H 	0.158	0.376	0.6446	-0.007
Mof_C 	C 	0.0428	0.4809	0.8646	0.093
Mof_H 	H 	0.9999	0.4912	0.8658	-0.015
Mof_C 	C 	0.1562	0.4969	0.8691	0.099
Mof_C 	C 	0.1109	0.4236	0.8526	-0.042
Mof_C 	C 	0.146	0.375	0.8433	0.151
Mof_C 	C 	0.2581	0.4734	0.8641	0.102
Mof_H 	H 	0.3106	0.491	0.8672	-0.004
Mof_C 	C 	0.358	0.6718	0.017	0.085
Mof_H 	H 	0.4	0.6617	0.0125	-0.016
Mof_C 	C 	0.2841	0.7042	0.0525	-0.043
Mof_C 	C 	0.2533	0.6824	0.0005	0.101
Mof_C 	C 	0.1544	0.7075	0.0101	0.106
Mof_H 	H 	0.1088	0.7111	0.9954	-0.005
Mof_C 	C 	0.2424	0.7254	0.0832	0.155
Mof_C 	C 	0.5111	0.8291	0.2201	0.098
Mof_H 	H 	0.528	0.7923	0.2278	-0.021
Mof_C 	C 	0.4887	0.9225	0.229	0.109
Mof_C 	C 	0.4656	0.8902	0.1786	-0.042
Mof_C 	C 	0.4322	0.9229	0.1449	0.149
Mof_C 	C 	0.4494	0.0101	0.214	0.107
Mof_H 	H 	0.4433	0.0534	0.2263	-0.009
Mof_C 	C 	0.6893	0.1365	0.3602	0.085
Mof_H 	H 	0.6753	0.1762	0.3565	-0.013
Mof_C 	C 	0.68	0.0272	0.36	0.103
Mof_C 	C 	0.7095	0.9329	0.3697	0.114
Mof_H 	H 	0.6937	0.8823	0.3697	-0.011
Mof_C 	C 	0.8084	0.0442	0.3866	0.141
Mof_C 	C 	0.7545	0.0757	0.3761	-0.046
Mof_C 	C 	0.4704	0.249	0.3104	0.032
Mof_H 	H 	0.5111	0.2567	0.2949	0.037
Mof_O 	O 	0.5005	0.8001	0.3585	-0.465
Mof_O 	O 	0.5758	0.7756	0.3178	-0.344
Mof_C 	C 	0.5304	0.761	0.3464	0.348
_end
