data_functionalizedCrystal
_audit_creation_method	'EQeq! by Chris Wilmer'
_symmetry_space_group_name_H-M	'P1'
_symmetry_Int_Tables_number	1
_symmetry_cell_setting	triclinic
loop_
_symmetry_equiv_pos_as_xyz
  x,y,z
_cell_length_a	8.5302
_cell_length_b	8.5902
_cell_length_c	16.1582
_cell_angle_alpha	89.309
_cell_angle_beta	78.004
_cell_angle_gamma	68.812
loop_
_atom_site_label
_atom_site_type_symbol
_atom_site_fract_x
_atom_site_fract_y
_atom_site_fract_z
_atom_site_charge
Mof_Li	Li	0.852	0.782	0.6213	4.241
Mof_Li	Li	0.175	0.815	0.678	4.228
Mof_Li	Li	0.523	0.795	0.15	4.31
Mof_Li	Li	0.5308	0.758	0.6222	1.496
Mof_Zr	Zr	0.40307	0.2622	0.41405	3.198
Mof_Zr	Zr	0.62219	0.3424	0.88835	3.199
Mof_C 	C 	0.184	0.5625	0.5396	0.492
Mof_C 	C 	0.554	0.9829	0.2813	0.259
Mof_C 	C 	0.6785	0.5608	0.7437	0.478
Mof_C 	C 	0.6644	0.5793	0.0198	0.091
Mof_C 	C 	0.0584	0.5465	0.4911	0.224
Mof_C 	C 	0.509	0.48	0.2795	0.559
Mof_C 	C 	0.8342	0.039	0.761	0.681
Mof_C 	C 	0.475	0.634	0.0263	0.222
Mof_C 	C 	0.4885	0.5684	0.751	0.512
Mof_C 	C 	0.9657	0.06	0.8107	0.149
Mof_C 	C 	0.538	0.0324	0.5499	0.458
Mof_C 	C 	0.6617	0.4241	0.3257	0.153
Mof_C 	C 	0.505	0.147	0.0286	0.338
Mof_C 	C 	0.3548	0.0371	0.559	0.474
Mof_C 	C 	0.3469	0.048	0.2916	0.383
Mof_C 	C 	0.367	0.198	0.9766	0.226
Mof_O 	O 	0.3938	0.4228	0.3094	-0.708
Mof_O 	O 	0.2956	0.958	0.6115	-1.309
Mof_O 	O 	0.6377	0.1857	0.9922	-0.636
Mof_O 	O 	0.6503	0.8659	0.2264	-0.954
Mof_O 	O 	0.3977	0.6583	0.7077	-1.351
Mof_O 	O 	0.1317	0.6795	0.5979	-1.751
Mof_O 	O 	0.3967	0.2702	0.9113	-0.567
Mof_O 	O 	0.6825	0.1462	0.7859	-0.777
Mof_O 	O 	0.2278	0.1662	0.0009	-0.223
Mof_O 	O 	0.4473	0.4763	0.8055	-0.7
Mof_O 	O 	0.3396	0.4627	0.5159	-0.741
Mof_O 	O 	0.2705	0.1578	0.3396	-0.637
Mof_O 	O 	0.8913	0.932	0.7047	-1.72
Mof_O 	O 	0.4971	0.072	0.0914	-0.647
Mof_O 	O 	0.1149	0.9643	0.793	-0.846
Mof_O 	O 	0.5795	0.1249	0.4958	-0.698
Mof_O 	O 	0.3012	0.9611	0.2449	-0.834
Mof_O 	O 	0.7578	0.4686	0.7942	-0.729
Mof_O 	O 	0.7294	0.6423	0.0604	-0.876
Mof_O 	O 	0.5054	0.5646	0.2215	-0.837
Mof_O 	O 	0.274	0.1375	0.51	-0.733
Mof_O 	O 	0.1254	0.4242	0.4341	-0.545
Mof_O 	O 	0.6281	0.941	0.5953	-1.322
Mof_O 	O 	0.6265	0.3418	0.39	-0.568
Mof_O 	O 	0.7834	0.4528	0.3041	-0.23
Mof_O 	O 	0.903	0.1809	0.867	-0.508
Mof_O 	O 	0.7297	0.6447	0.6902	-1.325
Mof_O 	O 	0.5946	0.06	0.3298	-0.626
Mof_O 	O 	0.9098	0.6456	0.5097	-1.012
Mof_O 	O 	0.4329	0.5502	0.9697	-0.564
Mof_O 	O 	0.7593	0.4444	0.9585	-0.482
Mof_O 	O 	0.3766	0.7371	0.0782	-0.915
_end
