data_functionalizedCrystal
_audit_creation_method	'EQeq! by Chris Wilmer'
_symmetry_space_group_name_H-M	'P1'
_symmetry_Int_Tables_number	1
_symmetry_cell_setting	triclinic
loop_
_symmetry_equiv_pos_as_xyz
  x,y,z
_cell_length_a	34.6853
_cell_length_b	34.6853
_cell_length_c	35.2696
_cell_angle_alpha	119.453
_cell_angle_beta	119.453
_cell_angle_gamma	90
loop_
_atom_site_label
_atom_site_type_symbol
_atom_site_fract_x
_atom_site_fract_y
_atom_site_fract_z
_atom_site_charge
Mof_Cu	Cu	0.93339	0.21673	-0	0.886
Mof_Cu	Cu	0.74347	0.96042	0.77438	0.908
Mof_Cu	Cu	0.08862	0.70979	-0	0.885
Mof_Cu	Cu	0.91138	0.29021	-0	0.884
Mof_Cu	Cu	0.03091	0.81396	0.77438	0.908
Mof_Cu	Cu	0.21673	0.06661	-0	0.885
Mof_Cu	Cu	0.75184	0.65823	0.70104	0.905
Mof_Cu	Cu	0.81396	0.74347	0.77438	0.908
Mof_Cu	Cu	0.0508	0.95719	0.29896	0.904
Mof_Cu	Cu	0.29021	0.08862	-0	0.883
Mof_Cu	Cu	0.70979	0.91138	-0	0.884
Mof_Cu	Cu	0.06661	0.78327	-0	0.885
Mof_Cu	Cu	0.03958	0.96909	0.22562	0.905
Mof_Cu	Cu	0.65823	0.9492	0.70104	0.904
Mof_Cu	Cu	0.96042	0.03091	0.77438	0.907
Mof_Cu	Cu	0.78327	0.93339	-0	0.885
Mof_Cu	Cu	0.95719	0.24816	0.29896	0.904
Mof_Cu	Cu	0.24816	0.34177	0.29896	0.905
Mof_Cu	Cu	0.18604	0.25653	0.22562	0.906
Mof_Cu	Cu	0.96909	0.18604	0.22562	0.905
Mof_Cu	Cu	0.9492	0.04281	0.70104	0.904
Mof_Cu	Cu	0.34177	0.0508	0.29896	0.905
Mof_Cu	Cu	0.04281	0.75184	0.70104	0.905
Mof_Cu	Cu	0.25653	0.03958	0.22562	0.906
Mof_H 	H 	0.2903	0.6678	0.2462	0.103
Mof_H 	H 	0.7912	0.537	0.7824	0.036
Mof_H 	H 	0.7205	0.9432	0.2256	0.006
Mof_H 	H 	0.3886	0.2016	0.4064	0.077
Mof_H 	H 	0.8185	0.9844	0.718	0.067
Mof_H 	H 	0.4028	0.0301	0.2128	0.073
Mof_H 	H 	0.9048	0.7747	0.3678	0.033
Mof_H 	H 	0.2253	0.537	0.6322	0.035
Mof_H 	H 	0.3322	0.0441	0.7538	0.104
Mof_H 	H 	0.4069	0.0952	0.6322	0.035
Mof_H 	H 	0.0339	0.2312	0.4878	0.04
Mof_H 	H 	0.7097	0.3322	0.7538	0.104
Mof_H 	H 	0.4133	0.6773	0.2706	0.1
Mof_H 	H 	0.4069	0.0217	0.6932	0.081
Mof_H 	H 	0.1562	0.9256	0.8658	0.067
Mof_H 	H 	0.4693	0.0737	0.8614	0.049
Mof_H 	H 	0.9559	0.5784	0.2462	0.102
Mof_H 	H 	0.5911	0.289	0.635	0.085
Mof_H 	H 	0.2016	0.0178	0.4064	0.079
Mof_H 	H 	0.473	0.7246	0.443	0.024
Mof_H 	H 	0.2566	0.0339	0.4878	0.04
Mof_H 	H 	0.5891	0.2809	0.1774	0.076
Mof_H 	H 	0.2795	0.0568	0.7744	0.01
Mof_H 	H 	0.5981	0.4207	0.7106	0.095
Mof_H 	H 	0.6715	0.4069	0.6932	0.076
Mof_H 	H 	0.19	0.8173	0.7872	0.076
Mof_H 	H 	0.0523	0.3866	0.0996	0.078
Mof_H 	H 	0.8875	0.7101	0.2894	0.09
Mof_H 	H 	0.3281	0.9074	0.2388	0.083
Mof_H 	H 	0.1125	0.2899	0.7106	0.095
Mof_H 	H 	0.3314	0.3281	0.2388	0.084
Mof_H 	H 	0.0926	0.0893	0.7612	0.088
Mof_H 	H 	0.9561	0.654	0.365	0.085
Mof_H 	H 	0.711	0.9561	0.365	0.085
Mof_H 	H 	0.3227	0.1427	0.7294	0.104
Mof_H 	H 	0.9699	0.19	0.7872	0.075
Mof_H 	H 	0.1005	0.2664	0.282	0.066
Mof_H 	H 	0.5461	0.7434	0.5122	0.039
Mof_H 	H 	0.5051	0.2824	0.2256	0.006
Mof_H 	H 	0.5883	0.8965	0.1774	0.074
Mof_H 	H 	0.5933	0.4133	0.2706	0.1
Mof_H 	H 	0.5972	0.9699	0.7872	0.075
Mof_H 	H 	0.2863	0.6715	0.6932	0.076
Mof_H 	H 	0.3866	0.0473	0.0996	0.078
Mof_H 	H 	0.0473	0.713	0.0996	0.078
Mof_H 	H 	0.5867	0.3227	0.7294	0.104
Mof_H 	H 	0.0737	0.3921	0.8614	0.049
Mof_H 	H 	0.0084	0.7293	0.2706	0.036
Mof_H 	H 	0.0918	0.3501	0.4042	0.084
Mof_H 	H 	0.0301	0.81	0.2128	0.073
Mof_H 	H 	0.654	0.4089	0.365	0.085
Mof_H 	H 	0.463	0.5931	0.3678	0.033
Mof_H 	H 	0.8942	0.3459	0.1242	0.074
Mof_H 	H 	0.7176	0.2795	0.7744	0.009
Mof_H 	H 	0.2809	0.5883	0.1774	0.076
Mof_H 	H 	0.7688	0.5461	0.5122	0.039
Mof_H 	H 	0.1815	0.0156	0.282	0.067
Mof_H 	H 	0.6686	0.6719	0.7612	0.087
Mof_H 	H 	0.4067	0.5867	0.7294	0.104
Mof_H 	H 	0.7246	0.97	0.443	0.024
Mof_H 	H 	0.9432	0.5051	0.2256	0.006
Mof_H 	H 	0.287	0.9477	0.9004	0.091
Mof_H 	H 	0.2123	0.5307	0.1386	0.039
Mof_H 	H 	0.9074	0.9107	0.2388	0.083
Mof_H 	H 	0.7342	0.8439	0.2496	0.024
Mof_H 	H 	0.2454	0.7912	0.7824	0.037
Mof_H 	H 	0.7378	0.4587	0.7294	0.033
Mof_H 	H 	0.4587	0.9916	0.7294	0.024
Mof_H 	H 	0.537	0.4069	0.6322	0.035
Mof_H 	H 	0.8173	0.5972	0.7872	0.076
Mof_H 	H 	0.2622	0.5413	0.2706	0.03
Mof_H 	H 	0.0088	0.7546	0.2176	0.035
Mof_H 	H 	0.9783	0.7137	0.3068	0.074
Mof_H 	H 	0.9158	0.4248	0.1874	0.041
Mof_H 	H 	0.7952	0.6114	0.5936	0.077
Mof_H 	H 	0.0541	0.0918	0.4042	0.085
Mof_H 	H 	0.3124	0.0541	0.4042	0.084
Mof_H 	H 	0.0441	0.4216	0.7538	0.104
Mof_H 	H 	0.7293	0.2622	0.2706	0.03
Mof_H 	H 	0.9822	0.7952	0.5936	0.076
Mof_H 	H 	0.5931	0.9783	0.3068	0.074
Mof_H 	H 	0.2707	0.7378	0.7294	0.033
Mof_H 	H 	0.5154	0.4057	0.2496	0.024
Mof_H 	H 	0.4216	0.7097	0.7538	0.104
Mof_H 	H 	0.23	0.7783	0.1242	0.074
Mof_H 	H 	0.1058	0.6541	0.8758	0.085
Mof_H 	H 	0.713	0.0523	0.0996	0.078
Mof_H 	H 	0.5931	0.9048	0.3678	0.033
Mof_H 	H 	0.81	0.1827	0.2128	0.072
Mof_H 	H 	0.0893	0.6686	0.7612	0.087
Mof_H 	H 	0.9527	0.287	0.9004	0.09
Mof_H 	H 	0.9477	0.6134	0.9004	0.09
Mof_H 	H 	0.4019	0.5793	0.2894	0.09
Mof_H 	H 	0.7434	0.9661	0.5122	0.039
Mof_H 	H 	0.3459	0.23	0.1242	0.074
Mof_H 	H 	0.8908	0.9238	0.125	0.063
Mof_H 	H 	0.9107	0.3314	0.2388	0.083
Mof_H 	H 	0.5784	0.2903	0.2462	0.103
Mof_H 	H 	0.346	0.5911	0.635	0.085
Mof_H 	H 	0.2374	0.0842	0.8126	0.045
Mof_H 	H 	0.9256	0.7096	0.8658	0.067
Mof_H 	H 	0.9459	0.9082	0.5958	0.083
Mof_H 	H 	0.77	0.2217	0.8758	0.085
Mof_H 	H 	0.0217	0.2863	0.6932	0.081
Mof_H 	H 	0.9661	0.7688	0.5122	0.039
Mof_H 	H 	0.0178	0.2048	0.4064	0.079
Mof_H 	H 	0.4207	0.1125	0.7106	0.095
Mof_H 	H 	0.6773	0.8573	0.2706	0.1
Mof_H 	H 	0.0762	0.7658	0.875	0.074
Mof_H 	H 	0.1035	0.4109	0.8226	0.086
Mof_H 	H 	0.0598	0.8438	0.1342	0.06
Mof_H 	H 	0.6499	0.6876	0.5958	0.084
Mof_H 	H 	0.0744	0.2904	0.1342	0.06
Mof_H 	H 	0.6134	0.9527	0.9004	0.09
Mof_H 	H 	0.1427	0.4067	0.7294	0.104
Mof_H 	H 	0.8965	0.5891	0.1774	0.075
Mof_H 	H 	0.7184	0.473	0.443	0.024
Mof_H 	H 	0.0842	0.5752	0.8126	0.045
Mof_H 	H 	0.0156	0.1005	0.282	0.067
Mof_H 	H 	0.9844	0.8995	0.718	0.066
Mof_H 	H 	0.4846	0.5943	0.7504	0.029
Mof_H 	H 	0.7747	0.463	0.3678	0.033
Mof_H 	H 	0.2342	0.2012	0.125	0.064
Mof_H 	H 	0.5793	0.8875	0.2894	0.09
Mof_H 	H 	0.7284	0.2374	0.8126	0.045
Mof_H 	H 	0.0439	0.346	0.635	0.086
Mof_H 	H 	0.6079	0.2123	0.1386	0.039
Mof_H 	H 	0.1561	0.4846	0.7504	0.029
Mof_H 	H 	0.2824	0.7205	0.2256	0.006
Mof_H 	H 	0.2312	0.4539	0.4878	0.04
Mof_H 	H 	0.7101	0.4019	0.2894	0.09
Mof_H 	H 	0.527	0.2754	0.557	0.024
Mof_H 	H 	0.2217	0.1058	0.8758	0.085
Mof_H 	H 	0.7984	0.9822	0.5936	0.076
Mof_H 	H 	0.7191	0.4117	0.8226	0.083
Mof_H 	H 	0.7336	0.8185	0.718	0.068
Mof_H 	H 	0.2899	0.5981	0.7106	0.095
Mof_H 	H 	0.4109	0.7191	0.8226	0.083
Mof_H 	H 	0.7988	0.1092	0.875	0.074
Mof_H 	H 	0.9402	0.1562	0.8658	0.067
Mof_H 	H 	0.2664	0.1815	0.282	0.066
Mof_H 	H 	0.6719	0.0926	0.7612	0.087
Mof_H 	H 	0.9238	0.2342	0.125	0.063
Mof_H 	H 	0.2658	0.1561	0.7504	0.029
Mof_H 	H 	0.6678	0.9559	0.2462	0.102
Mof_H 	H 	0.8439	0.5154	0.2496	0.024
Mof_H 	H 	0.4057	0.7342	0.2496	0.024
Mof_H 	H 	0.7137	0.3285	0.3068	0.077
Mof_H 	H 	0.463	0.0088	0.2176	0.035
Mof_H 	H 	0.9263	0.6079	0.1386	0.041
Mof_H 	H 	0.4089	0.711	0.365	0.085
Mof_H 	H 	0.8573	0.5933	0.2706	0.1
Mof_H 	H 	0.1092	0.0762	0.875	0.075
Mof_H 	H 	0.1827	0.4028	0.2128	0.072
Mof_H 	H 	0.4248	0.2716	0.1874	0.041
Mof_H 	H 	0.2754	0.03	0.557	0.025
Mof_H 	H 	0.5752	0.7284	0.8126	0.045
Mof_H 	H 	0.8438	0.0744	0.1342	0.06
Mof_H 	H 	0.537	0.9912	0.7824	0.038
Mof_H 	H 	0.0568	0.4949	0.7744	0.009
Mof_H 	H 	0.5943	0.2658	0.7504	0.029
Mof_H 	H 	0.97	0.7184	0.443	0.024
Mof_H 	H 	0.6876	0.9459	0.5958	0.083
Mof_H 	H 	0.7783	0.8942	0.1242	0.074
Mof_H 	H 	0.6114	0.7984	0.5936	0.077
Mof_H 	H 	0.03	0.2816	0.557	0.025
Mof_H 	H 	0.5413	0.0084	0.2706	0.037
Mof_H 	H 	0.2904	0.0598	0.1342	0.06
Mof_H 	H 	0.5307	0.9263	0.1386	0.041
Mof_H 	H 	0.9082	0.6499	0.5958	0.083
Mof_H 	H 	0.8995	0.7336	0.718	0.068
Mof_H 	H 	0.4949	0.7176	0.7744	0.009
Mof_H 	H 	0.2088	0.463	0.2176	0.036
Mof_H 	H 	0.7626	0.9158	0.1874	0.041
Mof_H 	H 	0.7877	0.4693	0.8614	0.052
Mof_H 	H 	0.7658	0.7988	0.875	0.073
Mof_H 	H 	0.9912	0.2454	0.7824	0.039
Mof_H 	H 	0.3501	0.3124	0.4042	0.084
Mof_H 	H 	0.0952	0.2253	0.6322	0.035
Mof_H 	H 	0.4117	0.1035	0.8226	0.085
Mof_H 	H 	0.3921	0.7877	0.8614	0.052
Mof_H 	H 	0.2816	0.527	0.557	0.024
Mof_H 	H 	0.289	0.0439	0.635	0.086
Mof_H 	H 	0.9916	0.2707	0.7294	0.023
Mof_H 	H 	0.2012	0.8908	0.125	0.063
Mof_H 	H 	0.7096	0.9402	0.8658	0.067
Mof_H 	H 	0.7546	0.2088	0.2176	0.036
Mof_H 	H 	0.6541	0.77	0.8758	0.084
Mof_H 	H 	0.2716	0.7626	0.1874	0.041
Mof_H 	H 	0.4539	0.2566	0.4878	0.04
Mof_H 	H 	0.3285	0.5931	0.3068	0.077
Mof_H 	H 	0.2048	0.3886	0.4064	0.077
Mof_C 	C 	0.79793	0.97977	0.6848	-0.009
Mof_C 	C 	0.16586	0.86756	0.82	-0.043
Mof_C 	C 	0.03942	0.0419	0.31054	0.352
Mof_C 	C 	0.8138	0.5005	0.817	0.057
Mof_C 	C 	0.5426	0.656	0.7684	0.098
Mof_C 	C 	0.4188	0.0326	0.7286	-0.131
Mof_C 	C 	0.9131	0.7482	0.3666	0.032
Mof_C 	C 	0.2258	0.1124	0.7684	0.099
Mof_C 	C 	0.48087	0.32717	0.53974	0.078
Mof_C 	C 	0.3336	0.0933	0.7412	0.185
Mof_C 	C 	0.3289	0.7658	0.7972	-0.012
Mof_C 	C 	0.11232	0.09065	0.79268	-0.074
Mof_C 	C 	0.16301	0.32882	0.21304	0.357
Mof_C 	C 	0.63249	0.78634	0.6111	-0.076
Mof_C 	C 	0.13009	0.9931	0.30964	0.341
Mof_C 	C 	0.471	0.6179	0.7496	0.053
Mof_C 	C 	0.09769	0.57639	0.79518	-0.015
Mof_C 	C 	0.25026	0.03475	0.3394	-0.046
Mof_C 	C 	0.4661	0.0089	0.1924	0.006
Mof_C 	C 	0.5445	0.937	0.1742	-0.009
Mof_C 	C 	0.89253	0.65612	0.6129	-0.062
Mof_C 	C 	0.9322	0.7478	0.4088	-0.047
Mof_C 	C 	0.3816	0.0869	0.6334	0.035
Mof_C 	C 	0.32882	0.05003	0.21304	0.357
Mof_C 	C 	0.11313	0.29497	0.3152	-0.01
Mof_C 	C 	0.03475	0.08914	0.3394	-0.045
Mof_C 	C 	0.0678	0.2522	0.5912	-0.047
Mof_C 	C 	0.28638	0.04306	0.49472	-0.008
Mof_C 	C 	0.33394	0.05489	0.11012	-0.054
Mof_C 	C 	0.8755	0.5752	0.2614	-0.184
Mof_C 	C 	0.90231	0.42361	0.20482	-0.018
Mof_C 	C 	0.00405	0.30488	0.06984	0.366
Mof_C 	C 	0.6179	0.2786	0.7496	0.053
Mof_C 	C 	0.7352	0.8964	0.2414	-0.08
Mof_C 	C 	0.17524	0.36751	0.3889	-0.076
Mof_C 	C 	0.5842	0.3902	0.6794	-0.153
Mof_C 	C 	0.0559	0.3215	0.6354	-0.147
Mof_C 	C 	0.79864	0.91371	0.072	0.353
Mof_C 	C 	0.94997	0.11578	0.78696	0.355
Mof_C 	C 	0.9514	0.7159	0.4106	0.026
Mof_C 	C 	0.18401	0.01251	0.33906	-0.029
Mof_C 	C 	0.77737	0.12232	0.85954	-0.02
Mof_C 	C 	0.31964	0.29797	0.20732	-0.069
Mof_C 	C 	0.7658	0.4683	0.7972	-0.012
Mof_C 	C 	0.74336	0.07256	0.11832	-0.057
Mof_C 	C 	0.7628	0.4555	0.8258	-0.005
Mof_C 	C 	0.68036	0.70203	0.79268	-0.074
Mof_C 	C 	0.2522	0.5234	0.5912	-0.047
Mof_C 	C 	0.2518	0.5465	0.6334	0.034
Mof_C 	C 	0.96525	0.91086	0.6606	-0.048
Mof_C 	C 	0.7134	0.926	0.2368	0.078
Mof_C 	C 	0.074	0.4766	0.7632	0.08
Mof_C 	C 	0.4535	0.6184	0.3666	0.032
Mof_C 	C 	0.08914	0.30465	0.3394	-0.047
Mof_C 	C 	0.81092	0.89995	0.1397	-0.075
Mof_C 	C 	0.77618	0.05523	0.11012	-0.056
Mof_C 	C 	0.5408	0.3053	0.5894	0.027
Mof_C 	C 	0.2648	0.1036	0.7586	-0.077
Mof_C 	C 	0.0679	0.434	0.753	-0.201
Mof_C 	C 	0.03384	0.7555	0.15548	0.089
Mof_C 	C 	0.4574	0.344	0.2316	0.096
Mof_C 	C 	0.70203	0.11232	0.79268	-0.074
Mof_C 	C 	0.32878	0.23975	0.1397	-0.075
Mof_C 	C 	0.0314	0.3289	0.7972	-0.025
Mof_C 	C 	0.01251	0.15505	0.33906	-0.029
Mof_C 	C 	0.32717	0.05887	0.53974	0.079
Mof_C 	C 	0.91416	0.6807	0.85936	-0.008
Mof_C 	C 	0.2892	0.5842	0.6794	-0.153
Mof_C 	C 	0.42361	0.30251	0.20482	-0.018
Mof_C 	C 	0.39998	0.03384	0.15548	0.089
Mof_C 	C 	0.28055	0.95922	0.21424	0.336
Mof_C 	C 	0.7006	0.2657	0.2504	0.008
Mof_C 	C 	0.15048	0.38531	0.18676	-0.063
Mof_C 	C 	0.661	0.9322	0.4088	-0.047
Mof_C 	C 	0.0089	0.7263	0.1924	0.005
Mof_C 	C 	0.16122	0.10126	0.81632	0.101
Mof_C 	C 	0.6878	0.4015	0.7524	0.109
Mof_C 	C 	0.89874	0.3449	0.18368	0.091
Mof_C 	C 	0.87836	0.60002	0.84452	0.1
Mof_C 	C 	0.6183	0.278	0.1974	-0.122
Mof_C 	C 	0.26093	0.03553	0.41206	0.094
Mof_C 	C 	0.9441	0.6785	0.3646	-0.146
Mof_C 	C 	0.07256	0.37496	0.11832	-0.057
Mof_C 	C 	0.71945	0.04078	0.78576	0.334
Mof_C 	C 	0.73907	0.96447	0.58794	0.091
Mof_C 	C 	0.3053	0.0486	0.5894	0.027
Mof_C 	C 	0.67345	0.81599	0.66094	-0.032
Mof_C 	C 	0.0153	0.2994	0.7496	0.024
Mof_C 	C 	0.9968	0.6835	0.183	0.051
Mof_C 	C 	0.06579	0.76496	0.06984	0.359
Mof_C 	C 	0.89995	0.32878	0.1397	-0.075
Mof_C 	C 	0.0419	0.27112	0.31054	0.352
Mof_C 	C 	0.722	0.4209	0.8026	-0.116
Mof_C 	C 	0.4248	0.6141	0.7386	-0.181
Mof_C 	C 	0.2372	0.5445	0.1742	-0.002
Mof_C 	C 	0.344	0.7742	0.2316	0.096
Mof_C 	C 	0.73236	0.09391	0.81488	-0.028
Mof_C 	C 	0.15505	0.32655	0.33906	-0.033
Mof_C 	C 	0.7263	0.1835	0.1924	0
Mof_C 	C 	0.6711	0.2342	0.2028	-0.021
Mof_C 	C 	0.20834	0.45166	0.49472	-0.008
Mof_C 	C 	0.08584	0.3193	0.14064	0.001
Mof_C 	C 	0.23975	0.81092	0.1397	-0.075
Mof_C 	C 	0.34388	0.27963	0.3871	-0.061
Mof_C 	C 	0.69512	0.93421	0.93016	0.353
Mof_C 	C 	0.19855	0.84952	0.81324	-0.069
Mof_C 	C 	0.3509	0.6878	0.7524	0.109
Mof_C 	C 	0.4076	0.6479	0.7412	0.184
Mof_C 	C 	0.319	0.0679	0.753	-0.201
Mof_C 	C 	0.27963	0.04322	0.3871	-0.062
Mof_C 	C 	0.84952	0.61469	0.81324	-0.068
Mof_C 	C 	0.30251	0.78121	0.20482	-0.018
Mof_C 	C 	0.78634	0.97861	0.6111	-0.075
Mof_C 	C 	0.1835	0.4661	0.1924	0
Mof_C 	C 	0.05523	0.33394	0.11012	-0.056
Mof_C 	C 	0.97861	0.82476	0.6111	-0.075
Mof_C 	C 	0.30488	0.06579	0.06984	0.359
Mof_C 	C 	0.3165	0.8138	0.817	0.057
Mof_C 	C 	0.05489	0.77618	0.11012	-0.054
Mof_C 	C 	0.4683	0.0314	0.7972	-0.024
Mof_C 	C 	0.71506	0.16122	0.81632	0.101
Mof_C 	C 	0.51913	0.67283	0.46026	0.077
Mof_C 	C 	0.73722	0.77737	0.85954	-0.019
Mof_C 	C 	0.67122	0.76025	0.8603	-0.081
Mof_C 	C 	0.5005	0.0032	0.817	0.066
Mof_C 	C 	0.57639	0.69749	0.79518	-0.015
Mof_C 	C 	0.22263	0.87768	0.14046	-0.012
Mof_C 	C 	0.69749	0.21879	0.79518	-0.014
Mof_C 	C 	0.324	0.6012	0.6808	0.136
Mof_C 	C 	0.5234	0.3108	0.2368	0.079
Mof_C 	C 	0.18908	0.10005	0.8603	-0.082
Mof_C 	C 	0.27903	0.26764	0.18512	-0.039
Mof_C 	C 	0.29797	0.88768	0.20732	-0.069
Mof_C 	C 	0.9581	0.72888	0.68946	0.351
Mof_C 	C 	0.26764	0.90609	0.18512	-0.04
Mof_C 	C 	0.2786	0.1317	0.7496	0.054
Mof_C 	C 	0.98749	0.84495	0.66094	-0.036
Mof_C 	C 	0.2657	0.5498	0.2504	0.008
Mof_C 	C 	0.95922	0.93369	0.21424	0.336
Mof_C 	C 	0.82045	0.68346	0.69036	0.344
Mof_C 	C 	0.02139	0.17524	0.3889	-0.077
Mof_C 	C 	0.8165	0.5339	0.8076	0.005
Mof_C 	C 	0.65414	0.95244	0.82	-0.045
Mof_C 	C 	0.5062	0.345	0.2414	-0.08
Mof_C 	C 	0.94477	0.66606	0.88988	-0.036
Mof_C 	C 	0.0486	0.2841	0.5894	0.027
Mof_C 	C 	0.0796	0.324	0.6808	0.136
Mof_C 	C 	0.03628	0.80145	0.18676	-0.064
Mof_C 	C 	0.96058	0.9581	0.68946	0.352
Mof_C 	C 	0.73136	0.96058	0.68946	0.351
Mof_C 	C 	0.70503	0.79793	0.6848	-0.011
Mof_C 	C 	0.6184	0.9131	0.3666	0.032
Mof_C 	C 	0.566	0.3149	0.247	-0.204
Mof_C 	C 	0.5985	0.9354	0.2476	0.105
Mof_C 	C 	0.11578	0.83699	0.78696	0.354
Mof_C 	C 	0.6012	0.3568	0.6808	0.136
Mof_C 	C 	0.5752	0.3859	0.2614	-0.184
Mof_C 	C 	0.6664	0.9067	0.2588	0.183
Mof_C 	C 	0.8964	0.5062	0.2414	-0.08
Mof_C 	C 	0.6902	0.304	0.2714	-0.124
Mof_C 	C 	0.1862	0.4995	0.183	0.056
Mof_C 	C 	0.84887	0.62347	0.58794	0.092
Mof_C 	C 	0.37653	0.26093	0.41206	0.092
Mof_C 	C 	0.62504	0.95424	0.88168	-0.063
Mof_C 	C 	0.9911	0.2737	0.8076	-0.003
Mof_C 	C 	0.656	0.2258	0.7684	0.099
Mof_C 	C 	0.6491	0.3122	0.2476	0.111
Mof_C 	C 	0.69535	0.74974	0.6606	-0.046
Mof_C 	C 	0.87768	0.91783	0.14046	-0.012
Mof_C 	C 	0.37496	0.04576	0.11832	-0.059
Mof_C 	C 	0.88422	0.16301	0.21304	0.357
Mof_C 	C 	0.0952	0.2892	0.6794	-0.153
Mof_C 	C 	0.91371	0.27336	0.072	0.353
Mof_C 	C 	0.5465	0.3816	0.6334	0.035
Mof_C 	C 	0.3703	0.7628	0.8258	-0.005
Mof_C 	C 	0.34586	0.04756	0.18	-0.052
Mof_C 	C 	0.61469	0.96372	0.81324	-0.067
Mof_C 	C 	0.926	0.5234	0.2368	0.078
Mof_C 	C 	0.81599	0.98749	0.66094	-0.035
Mof_C 	C 	0.96372	0.19855	0.81324	-0.067
Mof_C 	C 	0.78121	0.90231	0.20482	-0.018
Mof_C 	C 	0.96447	0.84887	0.58794	0.091
Mof_C 	C 	0.94511	0.22382	0.88988	-0.039
Mof_C 	C 	0.278	0.5791	0.1974	-0.122
Mof_C 	C 	0.6947	0.9514	0.4106	0.025
Mof_C 	C 	0.5234	0.339	0.5912	-0.047
Mof_C 	C 	0.7555	0.12164	0.15548	0.088
Mof_C 	C 	0.3138	0.1245	0.7386	-0.181
Mof_C 	C 	0.27112	0.26864	0.31054	0.352
Mof_C 	C 	0.08629	0.72664	0.928	0.346
Mof_C 	C 	0.1036	0.4938	0.7586	-0.077
Mof_C 	C 	0.90609	0.91748	0.18512	-0.04
Mof_C 	C 	0.3521	0.6664	0.2588	0.183
Mof_C 	C 	0.7482	0.4535	0.3666	0.032
Mof_C 	C 	0.3817	0.722	0.8026	-0.116
Mof_C 	C 	0.9931	0.17955	0.30964	0.341
Mof_C 	C 	0.0548	0.82134	0.14064	-0
Mof_C 	C 	0.95424	0.25664	0.88168	-0.063
Mof_C 	C 	0.7478	0.4766	0.4088	-0.047
Mof_C 	C 	0.2994	0.7343	0.7496	0.003
Mof_C 	C 	0.0032	0.3165	0.817	0.066
Mof_C 	C 	0.9686	0.6711	0.2028	-0.013
Mof_C 	C 	0.681	0.9321	0.247	-0.204
Mof_C 	C 	0.84171	0.20136	0.928	0.346
Mof_C 	C 	0.4766	0.661	0.4088	-0.047
Mof_C 	C 	0.45166	0.28638	0.49472	-0.008
Mof_C 	C 	0.31654	0.13009	0.30964	0.345
Mof_C 	C 	0.3108	0.7134	0.2368	0.079
Mof_C 	C 	0.9048	0.7108	0.3206	-0.152
Mof_C 	C 	0.9847	0.7006	0.2504	-0.005
Mof_C 	C 	0.7214	0.8683	0.2504	0.052
Mof_C 	C 	0.5924	0.3521	0.2588	0.183
Mof_C 	C 	0.9452	0.17866	0.85936	-0.006
Mof_C 	C 	0.88687	0.70503	0.6848	-0.011
Mof_C 	C 	0.04306	0.20834	0.49472	-0.008
Mof_C 	C 	0.30465	0.25026	0.3394	-0.047
Mof_C 	C 	0.08252	0.72097	0.81488	-0.029
Mof_C 	C 	0.4015	0.0646	0.7524	0.117
Mof_C 	C 	0.76496	0.00405	0.06984	0.365
Mof_C 	C 	0.06631	0.74498	0.78576	0.334
Mof_C 	C 	0.9067	0.5924	0.2588	0.183
Mof_C 	C 	0.2866	0.074	0.7632	0.08
Mof_C 	C 	0.21366	0.02139	0.3889	-0.077
Mof_C 	C 	0.93369	0.25502	0.21424	0.336
Mof_C 	C 	0.86756	0.65414	0.82	-0.044
Mof_C 	C 	0.4205	0.6861	0.3646	-0.146
Mof_C 	C 	0.04322	0.10747	0.3871	-0.062
Mof_C 	C 	0.9674	0.6902	0.2714	-0.116
Mof_C 	C 	0.6892	0.2866	0.7632	0.079
Mof_C 	C 	0.05003	0.88422	0.21304	0.357
Mof_C 	C 	0.83878	0.89874	0.18368	0.09
Mof_C 	C 	0.2737	0.8165	0.8076	0.005
Mof_C 	C 	0.95244	0.16586	0.82	-0.045
Mof_C 	C 	0.09065	0.68036	0.79268	-0.074
Mof_C 	C 	0.7742	0.8876	0.2316	0.096
Mof_C 	C 	0.0806	0.3817	0.8026	-0.124
Mof_C 	C 	0.38531	0.03628	0.18676	-0.064
Mof_C 	C 	0.96616	0.2445	0.84452	0.098
Mof_C 	C 	0.5317	0.9686	0.2028	-0.012
Mof_C 	C 	0.91086	0.69535	0.6606	-0.047
Mof_C 	C 	0.93421	0.23504	0.93016	0.352
Mof_C 	C 	0.3568	0.0796	0.6808	0.136
Mof_C 	C 	0.3988	0.6432	0.3192	0.134
Mof_C 	C 	0.66606	0.94511	0.88988	-0.039
Mof_C 	C 	0.9204	0.676	0.3192	0.134
Mof_C 	C 	0.72664	0.84171	0.928	0.346
Mof_C 	C 	0.76025	0.18908	0.8603	-0.081
Mof_C 	C 	0.91783	0.26278	0.14046	-0.013
Mof_C 	C 	0.32655	0.18401	0.33906	-0.033
Mof_C 	C 	0.83699	0.67118	0.78696	0.354
Mof_C 	C 	0.86991	0.0069	0.69036	0.347
Mof_C 	C 	0.1245	0.4248	0.7386	-0.181
Mof_C 	C 	0.2342	0.5317	0.2028	-0.021
Mof_C 	C 	0.97977	0.88687	0.6848	-0.009
Mof_C 	C 	0.7159	0.4592	0.4106	0.026
Mof_C 	C 	0.20136	0.08629	0.928	0.346
Mof_C 	C 	0.5339	0.9911	0.8076	-0.002
Mof_C 	C 	0.10005	0.67122	0.8603	-0.081
Mof_C 	C 	0.29497	0.20207	0.3152	-0.01
Mof_C 	C 	0.696	0.4188	0.7286	-0.118
Mof_C 	C 	0.3098	0.696	0.7286	-0.118
Mof_C 	C 	0.20207	0.02023	0.3152	-0.012
Mof_C 	C 	0.72097	0.73236	0.81488	-0.029
Mof_C 	C 	0.54834	0.71362	0.50528	-0.008
Mof_C 	C 	0.82476	0.63249	0.6111	-0.076
Mof_C 	C 	0.9354	0.6491	0.2476	0.106
Mof_C 	C 	0.83414	0.13244	0.18	-0.054
Mof_C 	C 	0.3821	0.7214	0.2504	0.052
Mof_C 	C 	0.1317	0.471	0.7496	0.054
Mof_C 	C 	0.4938	0.655	0.7586	-0.077
Mof_C 	C 	0.15113	0.37653	0.41206	0.093
Mof_C 	C 	0.5791	0.9194	0.1974	-0.117
Mof_C 	C 	0.26864	0.03942	0.31054	0.352
Mof_C 	C 	0.4592	0.6947	0.4106	0.026
Mof_C 	C 	0.063	0.3703	0.8258	0.006
Mof_C 	C 	0.16907	0.09047	0.88084	-0.021
Mof_C 	C 	0.67283	0.94113	0.46026	0.077
Mof_C 	C 	0.0326	0.3098	0.7286	-0.132
Mof_C 	C 	0.15829	0.79864	0.072	0.353
Mof_C 	C 	0.6098	0.9048	0.3206	-0.152
Mof_C 	C 	0.21879	0.09769	0.79518	-0.014
Mof_C 	C 	0.676	0.3988	0.3192	0.134
Mof_C 	C 	0.6862	0.8755	0.2614	-0.184
Mof_C 	C 	0.65612	0.72037	0.6129	-0.062
Mof_C 	C 	0.62347	0.73907	0.58794	0.092
Mof_C 	C 	0.5498	0.9847	0.2504	-0.006
Mof_C 	C 	0.7343	0.4502	0.7496	0.003
Mof_C 	C 	0.72888	0.73136	0.68946	0.351
Mof_C 	C 	0.26278	0.22263	0.14046	-0.013
Mof_C 	C 	0.937	0.6297	0.1742	-0.008
Mof_C 	C 	0.80145	0.15048	0.18676	-0.063
Mof_C 	C 	0.2841	0.5408	0.5894	0.027
Mof_C 	C 	0.91748	0.27903	0.18512	-0.039
Mof_C 	C 	0.05887	0.21257	0.53974	0.079
Mof_C 	C 	0.3215	0.5795	0.6354	-0.146
Mof_C 	C 	0.9321	0.566	0.247	-0.204
Mof_C 	C 	0.10126	0.6551	0.81632	0.101
Mof_C 	C 	0.2445	0.87836	0.84452	0.1
Mof_C 	C 	0.27336	0.15829	0.072	0.353
Mof_C 	C 	0.28494	0.83878	0.18368	0.09
Mof_C 	C 	0.03553	0.15113	0.41206	0.094
Mof_C 	C 	0.79166	0.54834	0.50528	-0.008
Mof_C 	C 	0.0646	0.3509	0.7524	0.118
Mof_C 	C 	0.02023	0.11313	0.3152	-0.012
Mof_C 	C 	0.74974	0.96525	0.6606	-0.048
Mof_C 	C 	0.71177	0.79037	0.88084	-0.023
Mof_C 	C 	0.4555	0.063	0.8258	0.006
Mof_C 	C 	0.72037	0.95678	0.6129	-0.061
Mof_C 	C 	0.339	0.0678	0.5912	-0.047
Mof_C 	C 	0.09391	0.08252	0.81488	-0.027
Mof_C 	C 	0.12232	0.08217	0.85954	-0.02
Mof_C 	C 	0.345	0.7352	0.2414	-0.08
Mof_C 	C 	0.83093	0.90953	0.11916	-0.039
Mof_C 	C 	0.82134	0.08584	0.14064	0.001
Mof_C 	C 	0.90953	0.28823	0.11916	-0.039
Mof_C 	C 	0.12164	0.39998	0.15548	0.088
Mof_C 	C 	0.04756	0.83414	0.18	-0.053
Mof_C 	C 	0.1124	0.5426	0.7684	0.099
Mof_C 	C 	0.84495	0.67345	0.66094	-0.032
Mof_C 	C 	0.25664	0.92744	0.88168	-0.066
Mof_C 	C 	0.0069	0.82045	0.69036	0.346
Mof_C 	C 	0.25502	0.28055	0.21424	0.336
Mof_C 	C 	0.04576	0.74336	0.11832	-0.059
Mof_C 	C 	0.7108	0.4158	0.3206	-0.152
Mof_C 	C 	0.10747	0.34388	0.3871	-0.061
Mof_C 	C 	0.529	0.3821	0.2504	0.052
Mof_C 	C 	0.6785	0.4205	0.3646	-0.146
Mof_C 	C 	0.71362	0.95694	0.50528	-0.008
Mof_C 	C 	0.304	0.5812	0.2714	-0.124
Mof_C 	C 	0.17866	0.91416	0.85936	-0.008
Mof_C 	C 	0.67118	0.94997	0.78696	0.355
Mof_C 	C 	0.3122	0.5985	0.2476	0.111
Mof_C 	C 	0.4502	0.0153	0.7496	0.022
Mof_C 	C 	0.8683	0.529	0.2504	0.052
Mof_C 	C 	0.4766	0.6892	0.7632	0.079
Mof_C 	C 	0.6297	0.2372	0.1742	-0.002
Mof_C 	C 	0.6861	0.9441	0.3646	-0.146
Mof_C 	C 	0.17955	0.31654	0.30964	0.345
Mof_C 	C 	0.3149	0.681	0.247	-0.204
Mof_C 	C 	0.79037	0.16907	0.88084	-0.022
Mof_C 	C 	0.22382	0.94477	0.88988	-0.036
Mof_C 	C 	0.0933	0.4076	0.7412	0.185
Mof_C 	C 	0.92744	0.62504	0.88168	-0.065
Mof_C 	C 	0.434	0.6851	0.753	-0.201
Mof_C 	C 	0.655	0.2648	0.7586	-0.077
Mof_C 	C 	0.4209	0.0806	0.8026	-0.123
Mof_C 	C 	0.60002	0.96616	0.84452	0.098
Mof_C 	C 	0.28823	0.20963	0.11916	-0.039
Mof_C 	C 	0.8876	0.4574	0.2316	0.096
Mof_C 	C 	0.6807	0.9452	0.85936	-0.006
Mof_C 	C 	0.88768	0.90935	0.20732	-0.069
Mof_C 	C 	0.6835	0.1862	0.183	0.056
Mof_C 	C 	0.04078	0.06631	0.78576	0.334
Mof_C 	C 	0.68346	0.86991	0.69036	0.344
Mof_C 	C 	0.5795	0.3139	0.6354	-0.147
Mof_C 	C 	0.20963	0.83093	0.11916	-0.039
Mof_C 	C 	0.5812	0.9674	0.2714	-0.114
Mof_C 	C 	0.09047	0.71177	0.88084	-0.022
Mof_C 	C 	0.08217	0.73722	0.85954	-0.019
Mof_C 	C 	0.36751	0.21366	0.3889	-0.076
Mof_C 	C 	0.94113	0.78743	0.46026	0.077
Mof_C 	C 	0.6432	0.9204	0.3192	0.134
Mof_C 	C 	0.21257	0.48087	0.53974	0.078
Mof_C 	C 	0.99595	0.69512	0.93016	0.343
Mof_C 	C 	0.3193	0.0548	0.14064	-0.001
Mof_C 	C 	0.3139	0.0559	0.6354	-0.147
Mof_C 	C 	0.3859	0.6862	0.2614	-0.184
Mof_C 	C 	0.3902	0.0952	0.6794	-0.154
Mof_C 	C 	0.6141	0.3138	0.7386	-0.181
Mof_C 	C 	0.13244	0.34586	0.18	-0.054
Mof_C 	C 	0.6851	0.319	0.753	-0.201
Mof_C 	C 	0.95678	0.89253	0.6129	-0.061
Mof_C 	C 	0.74498	0.71945	0.78576	0.334
Mof_C 	C 	0.4158	0.6098	0.3206	-0.152
Mof_C 	C 	0.23504	0.99595	0.93016	0.341
Mof_C 	C 	0.90935	0.31964	0.20732	-0.069
Mof_C 	C 	0.95694	0.79166	0.50528	-0.008
Mof_C 	C 	0.9194	0.6183	0.1974	-0.117
Mof_C 	C 	0.0869	0.2518	0.6334	0.035
Mof_C 	C 	0.6479	0.3336	0.7412	0.184
Mof_C 	C 	0.3449	0.28494	0.18368	0.091
Mof_C 	C 	0.4995	0.9968	0.183	0.05
Mof_C 	C 	0.6551	0.71506	0.81632	0.1
Mof_C 	C 	0.78743	0.51913	0.46026	0.077
Mof_N 	N 	0.6398	0.16899	0.7686	-0.038
Mof_N 	N 	0.63593	0.3572	0.265	-0.168
Mof_N 	N 	0.7215	0.14052	0.16104	-0.093
Mof_N 	N 	0.5583	0.6239	0.7564	-0.091
Mof_N 	N 	0.14903	0.42953	0.48706	-0.039
Mof_N 	N 	0.56046	0.97948	0.83896	-0.092
Mof_N 	N 	0.16899	0.1288	0.7686	-0.038
Mof_N 	N 	0.68503	0.18214	0.79126	-0.089
Mof_N 	N 	0.6551	0.1434	0.1424	-0.081
Mof_N 	N 	0.8712	0.40039	0.2314	-0.042
Mof_N 	N 	0.3572	0.62907	0.265	-0.168
Mof_N 	N 	0.42953	0.33803	0.48706	-0.039
Mof_N 	N 	0.60912	0.68503	0.79126	-0.089
Mof_N 	N 	0.3449	0.8566	0.8576	-0.073
Mof_N 	N 	0.8566	0.5127	0.8576	-0.073
Mof_N 	N 	0.43954	0.02052	0.16104	-0.094
Mof_N 	N 	0.89377	0.39088	0.20874	-0.089
Mof_N 	N 	0.62907	0.9078	0.265	-0.168
Mof_N 	N 	0.42024	0.29363	0.46248	-0.09
Mof_N 	N 	0.85948	0.56046	0.83896	-0.093
Mof_N 	N 	0.14052	0.43954	0.16104	-0.093
Mof_N 	N 	0.10623	0.60912	0.79126	-0.089
Mof_N 	N 	0.8826	0.5485	0.8706	-0.033
Mof_N 	N 	0.18214	0.10623	0.79126	-0.089
Mof_N 	N 	0.17378	0.46758	0.53176	-0.085
Mof_N 	N 	0.53242	0.64202	0.46824	-0.085
Mof_N 	N 	0.94247	0.85097	0.51294	-0.04
Mof_N 	N 	0.33803	0.05753	0.48706	-0.039
Mof_N 	N 	0.02052	0.7215	0.16104	-0.094
Mof_N 	N 	0.1288	0.59961	0.7686	-0.038
Mof_N 	N 	0.9078	0.63593	0.265	-0.168
Mof_N 	N 	0.82622	0.53242	0.46824	-0.085
Mof_N 	N 	0.16885	0.42024	0.46248	-0.089
Mof_N 	N 	0.4873	0.999	0.1424	-0.081
Mof_N 	N 	0.6779	0.1174	0.1294	-0.042
Mof_N 	N 	0.4417	0.3761	0.2436	-0.094
Mof_N 	N 	0.46758	0.35798	0.53176	-0.085
Mof_N 	N 	0.81786	0.89377	0.20874	-0.089
Mof_N 	N 	0.999	0.6551	0.1424	-0.081
Mof_N 	N 	0.6239	0.1981	0.7564	-0.091
Mof_N 	N 	0.988	0.3221	0.8706	-0.035
Mof_N 	N 	0.35798	0.06418	0.53176	-0.085
Mof_N 	N 	0.83115	0.57976	0.53752	-0.09
Mof_N 	N 	0.3221	0.8826	0.8706	-0.033
Mof_N 	N 	0.012	0.6779	0.1294	-0.041
Mof_N 	N 	0.37093	0.0922	0.735	-0.167
Mof_N 	N 	0.57047	0.66197	0.51294	-0.039
Mof_N 	N 	0.8675	0.4417	0.2436	-0.094
Mof_N 	N 	0.5127	0.001	0.8576	-0.072
Mof_N 	N 	0.95776	0.83115	0.53752	-0.09
Mof_N 	N 	0.83101	0.8712	0.2314	-0.042
Mof_N 	N 	0.001	0.3449	0.8576	-0.072
Mof_N 	N 	0.1325	0.5583	0.7564	-0.091
Mof_N 	N 	0.06418	0.17378	0.53176	-0.084
Mof_N 	N 	0.64202	0.93582	0.46824	-0.085
Mof_N 	N 	0.40039	0.3602	0.2314	-0.042
Mof_N 	N 	0.8019	0.8675	0.2436	-0.094
Mof_N 	N 	0.2785	0.85948	0.83896	-0.093
Mof_N 	N 	0.31497	0.81786	0.20874	-0.089
Mof_N 	N 	0.3602	0.83101	0.2314	-0.042
Mof_N 	N 	0.0922	0.36407	0.735	-0.168
Mof_N 	N 	0.04224	0.16885	0.46248	-0.09
Mof_N 	N 	0.3761	0.8019	0.2436	-0.094
Mof_N 	N 	0.39088	0.31497	0.20874	-0.089
Mof_N 	N 	0.70637	0.95776	0.53752	-0.09
Mof_N 	N 	0.85097	0.57047	0.51294	-0.04
Mof_N 	N 	0.59961	0.6398	0.7686	-0.038
Mof_N 	N 	0.1981	0.1325	0.7564	-0.091
Mof_N 	N 	0.6428	0.37093	0.735	-0.166
Mof_N 	N 	0.5485	0.988	0.8706	-0.035
Mof_N 	N 	0.36407	0.6428	0.735	-0.166
Mof_N 	N 	0.66197	0.94247	0.51294	-0.04
Mof_N 	N 	0.97948	0.2785	0.83896	-0.092
Mof_N 	N 	0.05753	0.14903	0.48706	-0.039
Mof_N 	N 	0.29363	0.04224	0.46248	-0.09
Mof_N 	N 	0.4515	0.012	0.1294	-0.041
Mof_N 	N 	0.93582	0.82622	0.46824	-0.086
Mof_N 	N 	0.1174	0.4515	0.1294	-0.042
Mof_N 	N 	0.1434	0.4873	0.1424	-0.081
Mof_N 	N 	0.57976	0.70637	0.53752	-0.09
Mof_O 	O 	0.25129	0.97369	0.19062	-0.406
Mof_O 	O 	0.10756	0.99685	0.2719	-0.408
Mof_O 	O 	0.31262	0.05104	0.33438	-0.401
Mof_O 	O 	0.13276	0.81897	0.05492	-0.417
Mof_O 	O 	0.07784	0.76405	0.94508	-0.384
Mof_O 	O 	0.99685	0.16434	0.2719	-0.408
Mof_O 	O 	0.93637	0.27459	0.25708	-0.398
Mof_O 	O 	0.83566	0.72495	0.7281	-0.405
Mof_O 	O 	0.72792	0.97839	0.05356	-0.416
Mof_O 	O 	0.81897	0.92216	0.05492	-0.417
Mof_O 	O 	0.20869	0.00404	0.9452	-0.385
Mof_O 	O 	0.75675	0.9044	0.0552	-0.426
Mof_O 	O 	0.64266	0.95186	0.74848	-0.404
Mof_O 	O 	0.88235	0.01937	0.66944	-0.405
Mof_O 	O 	0.23924	0.03344	0.26812	-0.41
Mof_O 	O 	0.32564	0.07517	0.05356	-0.413
Mof_O 	O 	0.90751	0.14851	0.19474	-0.417
Mof_O 	O 	0.78307	0.74871	0.80938	-0.398
Mof_O 	O 	0.04814	0.89418	0.25152	-0.405
Mof_O 	O 	0.73651	0.94116	0.9452	-0.393
Mof_O 	O 	0.9044	0.29845	0.0552	-0.426
Mof_O 	O 	0.28334	0.31262	0.33438	-0.401
Mof_O 	O 	0.95377	0.09249	0.80526	-0.411
Mof_O 	O 	0.94896	0.97824	0.66562	-0.404
Mof_O 	O 	0.92483	0.27208	0.94644	-0.381
Mof_O 	O 	0.67436	0.92483	0.94644	-0.381
Mof_O 	O 	0.34993	0.11765	0.33056	-0.405
Mof_O 	O 	0.05104	0.02176	0.33438	-0.399
Mof_O 	O 	0.26349	0.05884	0.0548	-0.424
Mof_O 	O 	0.99596	0.26349	0.0548	-0.428
Mof_O 	O 	0.0956	0.70155	0.9448	-0.393
Mof_O 	O 	0.76405	0.86724	0.94508	-0.385
Mof_O 	O 	0.92216	0.23595	0.05492	-0.417
Mof_O 	O 	0.79131	0.99596	0.0548	-0.427
Mof_O 	O 	0.97839	0.32564	0.05356	-0.417
Mof_O 	O 	0.35734	0.04814	0.25152	-0.404
Mof_O 	O 	0.20338	0.35734	0.25152	-0.405
Mof_O 	O 	0.72541	0.67929	0.74292	-0.395
Mof_O 	O 	0.00404	0.73651	0.9452	-0.387
Mof_O 	O 	0.89244	0.00315	0.7281	-0.405
Mof_O 	O 	0.24325	0.0956	0.9448	-0.393
Mof_O 	O 	0.02176	0.28334	0.33438	-0.4
Mof_O 	O 	0.21693	0.25129	0.19062	-0.405
Mof_O 	O 	0.71277	0.95377	0.80526	-0.412
Mof_O 	O 	0.05884	0.79131	0.0548	-0.424
Mof_O 	O 	0.01751	0.06363	0.74292	-0.392
Mof_O 	O 	0.28723	0.04623	0.19474	-0.416
Mof_O 	O 	0.29845	0.1508	0.0552	-0.426
Mof_O 	O 	0.97824	0.71666	0.66562	-0.403
Mof_O 	O 	0.11765	0.98063	0.33056	-0.406
Mof_O 	O 	0.21291	0.34993	0.33056	-0.405
Mof_O 	O 	0.02631	0.06067	0.80938	-0.395
Mof_O 	O 	0.23468	0.23924	0.26812	-0.411
Mof_O 	O 	0.94116	0.20869	0.9452	-0.392
Mof_O 	O 	0.96656	0.97112	0.73188	-0.411
Mof_O 	O 	0.68738	0.94896	0.66562	-0.402
Mof_O 	O 	0.95186	0.10582	0.74848	-0.404
Mof_O 	O 	0.1508	0.75675	0.0552	-0.426
Mof_O 	O 	0.18103	0.07784	0.94508	-0.383
Mof_O 	O 	0.97112	0.76532	0.73188	-0.41
Mof_O 	O 	0.98249	0.93637	0.25708	-0.399
Mof_O 	O 	0.76532	0.76076	0.73188	-0.409
Mof_O 	O 	0.70155	0.8492	0.9448	-0.394
Mof_O 	O 	0.27208	0.02161	0.94644	-0.375
Mof_O 	O 	0.8492	0.24325	0.9448	-0.394
Mof_O 	O 	0.67929	0.01751	0.74292	-0.393
Mof_O 	O 	0.78709	0.65007	0.66944	-0.405
Mof_O 	O 	0.89418	0.20338	0.25152	-0.405
Mof_O 	O 	0.97369	0.93933	0.19062	-0.406
Mof_O 	O 	0.06067	0.78307	0.80938	-0.397
Mof_O 	O 	0.71666	0.68738	0.66562	-0.401
Mof_O 	O 	0.02161	0.67436	0.94644	-0.376
Mof_O 	O 	0.14851	0.28723	0.19474	-0.417
Mof_O 	O 	0.76076	0.96656	0.73188	-0.41
Mof_O 	O 	0.72495	0.89244	0.7281	-0.405
Mof_O 	O 	0.93933	0.21693	0.19062	-0.405
Mof_O 	O 	0.32071	0.98249	0.25708	-0.399
Mof_O 	O 	0.01937	0.78709	0.66944	-0.405
Mof_O 	O 	0.02888	0.23468	0.26812	-0.41
Mof_O 	O 	0.74871	0.02631	0.80938	-0.396
Mof_O 	O 	0.00315	0.83566	0.7281	-0.405
Mof_O 	O 	0.07517	0.72792	0.05356	-0.413
Mof_O 	O 	0.27505	0.10756	0.2719	-0.407
Mof_O 	O 	0.85149	0.71277	0.80526	-0.411
Mof_O 	O 	0.98063	0.21291	0.33056	-0.406
Mof_O 	O 	0.16434	0.27505	0.2719	-0.407
Mof_O 	O 	0.10582	0.79662	0.74848	-0.403
Mof_O 	O 	0.27459	0.32071	0.25708	-0.397
Mof_O 	O 	0.09249	0.85149	0.80526	-0.411
Mof_O 	O 	0.23595	0.13276	0.05492	-0.417
Mof_O 	O 	0.65007	0.88235	0.66944	-0.406
Mof_O 	O 	0.86724	0.18103	0.94508	-0.385
Mof_O 	O 	0.04623	0.90751	0.19474	-0.417
Mof_O 	O 	0.79662	0.64266	0.74848	-0.403
Mof_O 	O 	0.06363	0.72541	0.74292	-0.395
Mof_O 	O 	0.03344	0.02888	0.26812	-0.409
_end
