data_functionalizedCrystal
_audit_creation_method	'EQeq! by Chris Wilmer'
_symmetry_space_group_name_H-M	'P1'
_symmetry_Int_Tables_number	1
_symmetry_cell_setting	triclinic
loop_
_symmetry_equiv_pos_as_xyz
  x,y,z
_cell_length_a	11.0282
_cell_length_b	11.0282
_cell_length_c	18.9717
_cell_angle_alpha	90
_cell_angle_beta	90
_cell_angle_gamma	120
loop_
_atom_site_label
_atom_site_type_symbol
_atom_site_fract_x
_atom_site_fract_y
_atom_site_fract_z
_atom_site_charge
Mof_O 	O 	0.33	0.904	0.672	-0.585
Mof_O 	O 	0.5226	0.8895	0.6777	-0.664
Mof_C 	C 	0.4444	0.9194	0.6416	0.525
Mof_C 	C 	0.4841	0.9854	0.5728	-0.175
Mof_C 	C 	0.6026	0.9994	0.5365	0.029
Mof_C 	C 	0.3771	0.9864	0.5363	0.033
Mof_O 	O 	0.096	0.426	0.672	-0.585
Mof_O 	O 	0.1105	0.6331	0.6777	-0.664
Mof_C 	C 	0.0806	0.525	0.6416	0.526
Mof_C 	C 	0.0146	0.4987	0.5728	-0.174
Mof_C 	C 	0.0006	0.6032	0.5365	0.03
Mof_C 	C 	0.0136	0.3907	0.5363	0.034
Mof_O 	O 	0.574	0.67	0.672	-0.584
Mof_O 	O 	0.3669	0.4774	0.6777	-0.663
Mof_C 	C 	0.475	0.5556	0.6416	0.526
Mof_C 	C 	0.5013	0.5159	0.5728	-0.174
Mof_C 	C 	0.3968	0.3974	0.5365	0.03
Mof_C 	C 	0.6093	0.6229	0.5363	0.034
Mof_O 	O 	0.33	0.904	0.828	-0.584
Mof_O 	O 	0.5226	0.8895	0.8223	-0.663
Mof_C 	C 	0.4444	0.9194	0.8584	0.526
Mof_C 	C 	0.4841	0.9854	0.9272	-0.174
Mof_C 	C 	0.6026	0.9994	0.9635	0.03
Mof_C 	C 	0.3771	0.9864	0.9637	0.034
Mof_O 	O 	0.096	0.426	0.828	-0.584
Mof_O 	O 	0.1105	0.6331	0.8223	-0.663
Mof_C 	C 	0.0806	0.525	0.8584	0.526
Mof_C 	C 	0.0146	0.4987	0.9272	-0.174
Mof_C 	C 	0.0006	0.6032	0.9635	0.03
Mof_C 	C 	0.0136	0.3907	0.9637	0.034
Mof_O 	O 	0.574	0.67	0.828	-0.584
Mof_O 	O 	0.3669	0.4774	0.8223	-0.663
Mof_C 	C 	0.475	0.5556	0.8584	0.526
Mof_C 	C 	0.5013	0.5159	0.9272	-0.174
Mof_C 	C 	0.3968	0.3974	0.9635	0.03
Mof_C 	C 	0.6093	0.6229	0.9637	0.034
Mof_O 	O 	0.904	0.33	0.328	-0.584
Mof_O 	O 	0.8895	0.5226	0.3223	-0.663
Mof_C 	C 	0.9194	0.4444	0.3584	0.526
Mof_C 	C 	0.9854	0.4841	0.4272	-0.174
Mof_C 	C 	0.9994	0.6026	0.4635	0.03
Mof_C 	C 	0.9864	0.3771	0.4637	0.034
Mof_O 	O 	0.426	0.096	0.328	-0.584
Mof_O 	O 	0.6331	0.1105	0.3223	-0.663
Mof_C 	C 	0.525	0.0806	0.3584	0.526
Mof_C 	C 	0.4987	0.0146	0.4272	-0.174
Mof_C 	C 	0.6032	0.0006	0.4635	0.03
Mof_C 	C 	0.3907	0.0136	0.4637	0.034
Mof_O 	O 	0.67	0.574	0.328	-0.584
Mof_O 	O 	0.4774	0.3669	0.3223	-0.663
Mof_C 	C 	0.5556	0.475	0.3584	0.526
Mof_C 	C 	0.5159	0.5013	0.4272	-0.174
Mof_C 	C 	0.3974	0.3968	0.4635	0.03
Mof_C 	C 	0.6229	0.6093	0.4637	0.034
Mof_O 	O 	0.904	0.33	0.172	-0.584
Mof_O 	O 	0.8895	0.5226	0.1777	-0.663
Mof_C 	C 	0.9194	0.4444	0.1416	0.526
Mof_C 	C 	0.9854	0.4841	0.0728	-0.174
Mof_C 	C 	0.9994	0.6026	0.0365	0.03
Mof_C 	C 	0.9864	0.3771	0.0363	0.034
Mof_O 	O 	0.426	0.096	0.172	-0.584
Mof_O 	O 	0.6331	0.1105	0.1777	-0.663
Mof_C 	C 	0.525	0.0806	0.1416	0.526
Mof_C 	C 	0.4987	0.0146	0.0728	-0.174
Mof_C 	C 	0.6032	0.0006	0.0365	0.03
Mof_C 	C 	0.3907	0.0136	0.0363	0.034
Mof_O 	O 	0.67	0.574	0.172	-0.584
Mof_O 	O 	0.4774	0.3669	0.1777	-0.663
Mof_C 	C 	0.5556	0.475	0.1416	0.526
Mof_C 	C 	0.5159	0.5013	0.0728	-0.174
Mof_C 	C 	0.3974	0.3968	0.0365	0.03
Mof_C 	C 	0.6229	0.6093	0.0363	0.034
Mof_Cr	Cr	0.2236	0.7628	0.75	1.996
Mof_Cr	Cr	0.2372	0.4608	0.75	1.996
Mof_Cr	Cr	0.5392	0.7764	0.75	1.996
Mof_Cr	Cr	0.7628	0.2236	0.25	1.996
Mof_Cr	Cr	0.4608	0.2372	0.25	1.996
Mof_Cr	Cr	0.7764	0.5392	0.25	1.996
Mof_O 	O 	0.33333	0.66667	0.75	-0.998
Mof_O 	O 	0.66667	0.33333	0.25	-0.998
_end
