data_functionalizedCrystal
_audit_creation_method	'EQeq! by Chris Wilmer'
_symmetry_space_group_name_H-M	'P1'
_symmetry_Int_Tables_number	1
_symmetry_cell_setting	triclinic
loop_
_symmetry_equiv_pos_as_xyz
  x,y,z
_cell_length_a	30.5919
_cell_length_b	30.5919
_cell_length_c	44.8181
_cell_angle_alpha	90
_cell_angle_beta	90
_cell_angle_gamma	90
loop_
_atom_site_label
_atom_site_type_symbol
_atom_site_fract_x
_atom_site_fract_y
_atom_site_fract_z
_atom_site_charge
Mof_Zn	Zn	0.09537	0.8483	0.62816	1.201
Mof_Zn	Zn	0.13349	0.78925	0.67398	1.2
Mof_O 	O 	0.11116	0.31593	0.53174	-0.498
Mof_O 	O 	0.10038	0.24531	0.53162	-0.495
Mof_O 	O 	0.16365	0.15485	0.61041	-0.479
Mof_O 	O 	0.20137	0.18644	0.64731	-0.476
Mof_O 	O 	0.29543	0.42784	0.80985	-0.48
Mof_O 	O 	0.34449	0.45376	0.84158	-0.49
Mof_O 	O 	0.37438	0.60899	0.84462	-0.498
Mof_O 	O 	0.35251	0.65185	0.80731	-0.472
Mof_O 	O 	0.10971	0.74675	0.64305	-0.473
Mof_O 	O 	0.0743	0.79151	0.61196	-0.487
Mof_O 	O 	0.98749	0.72849	0.53103	-0.499
Mof_O 	O 	0.97621	0.65725	0.53072	-0.478
Mof_O 	O 	0.168	0.3959	0.5998	-0.267
Mof_O 	O 	0.2744	0.4851	0.71751	-0.268
Mof_O 	O 	0.1504	0.6124	0.6294	-0.267
Mof_N 	N 	0.2139	0.343	0.61793	-0.249
Mof_H 	H 	0.237	0.3384	0.6291	0.126
Mof_N 	N 	0.2239	0.412	0.6323	-0.261
Mof_H 	H 	0.2474	0.4014	0.6411	0.128
Mof_N 	N 	0.2817	0.5537	0.73409	-0.248
Mof_H 	H 	0.2761	0.5811	0.7296	0.121
Mof_N 	N 	0.2481	0.5421	0.69097	-0.284
Mof_H 	H 	0.2459	0.5708	0.6912	0.132
Mof_N 	N 	0.1443	0.5441	0.6091	-0.26
Mof_H 	H 	0.1332	0.529	0.5942	0.129
Mof_N 	N 	0.0999	0.5987	0.5923	-0.238
Mof_H 	H 	0.0942	0.5796	0.5781	0.122
Mof_C 	C 	0.1167	0.27881	0.54158	0.438
Mof_C 	C 	0.1797	0.1875	0.62367	0.397
Mof_C 	C 	0.1465	0.2736	0.56822	-0.094
Mof_C 	C 	0.1514	0.2332	0.58161	0.036
Mof_H 	H 	0.1373	0.2083	0.5734	0.039
Mof_C 	C 	0.1773	0.2292	0.60755	-0.093
Mof_C 	C 	0.1963	0.2648	0.61948	-0.05
Mof_H 	H 	0.2117	0.2626	0.6378	0.061
Mof_C 	C 	0.1931	0.3072	0.60423	0.103
Mof_C 	C 	0.1678	0.3098	0.57872	-0.056
Mof_H 	H 	0.1652	0.3368	0.5684	0.082
Mof_C 	C 	0.3195	0.4572	0.82007	0.415
Mof_C 	C 	0.3559	0.6157	0.82092	0.404
Mof_C 	C 	0.3201	0.5003	0.80475	-0.086
Mof_C 	C 	0.3395	0.5361	0.81837	0.023
Mof_H 	H 	0.3538	0.5331	0.8371	0.042
Mof_C 	C 	0.3377	0.5773	0.80384	-0.077
Mof_C 	C 	0.3201	0.5822	0.77699	-0.066
Mof_H 	H 	0.3207	0.6099	0.7675	0.065
Mof_C 	C 	0.3008	0.5467	0.7627	0.109
Mof_C 	C 	0.3006	0.5052	0.7768	-0.061
Mof_H 	H 	0.2873	0.4809	0.7673	0.088
Mof_C 	C 	0.0851	0.7544	0.62118	0.397
Mof_C 	C 	0.9938	0.6912	0.5405	0.418
Mof_C 	C 	0.0729	0.7161	0.60249	-0.085
Mof_C 	C 	0.0424	0.7209	0.5792	0.031
Mof_H 	H 	0.0313	0.7491	0.5744	0.039
Mof_C 	C 	0.0289	0.6854	0.56375	-0.091
Mof_C 	C 	0.0457	0.6447	0.5698	-0.056
Mof_H 	H 	0.0361	0.6199	0.5588	0.061
Mof_C 	C 	0.0767	0.6401	0.5921	0.098
Mof_C 	C 	0.0908	0.6771	0.6086	-0.056
Mof_H 	H 	0.1124	0.6743	0.6237	0.087
Mof_C 	C 	0.1992	0.3843	0.6144	0.306
Mof_C 	C 	0.271	0.524	0.7128	0.322
Mof_C 	C 	0.1304	0.5876	0.6137	0.296
Mof_C 	C 	0.2129	0.4571	0.63724	0.234
Mof_C 	C 	0.2361	0.4757	0.66132	-0.282
Mof_H 	H 	0.2566	0.4593	0.6726	0.147
Mof_C 	C 	0.2271	0.5203	0.66772	0.26
Mof_C 	C 	0.1977	0.545	0.65185	-0.295
Mof_H 	H 	0.1924	0.5748	0.6567	0.153
Mof_C 	C 	0.1755	0.5243	0.628	0.239
Mof_C 	C 	0.1819	0.4795	0.6194	-0.268
Mof_H 	H 	0.1667	0.4662	0.6033	0.144
Mof_Zn	Zn	0.59537	0.3483	0.12816	1.2
Mof_Zn	Zn	0.63349	0.28925	0.17398	1.199
Mof_O 	O 	0.61116	0.81593	0.03174	-0.501
Mof_O 	O 	0.60038	0.74531	0.03162	-0.497
Mof_O 	O 	0.66365	0.65485	0.11041	-0.48
Mof_O 	O 	0.70137	0.68644	0.14731	-0.477
Mof_O 	O 	0.79543	0.92784	0.30985	-0.481
Mof_O 	O 	0.84449	0.95376	0.34158	-0.491
Mof_O 	O 	0.87438	0.10899	0.34462	-0.499
Mof_O 	O 	0.85251	0.15185	0.30731	-0.473
Mof_O 	O 	0.60971	0.24675	0.14305	-0.474
Mof_O 	O 	0.5743	0.29151	0.11196	-0.489
Mof_O 	O 	0.48749	0.22849	0.03103	-0.501
Mof_O 	O 	0.47621	0.15725	0.03072	-0.48
Mof_O 	O 	0.668	0.8959	0.0998	-0.267
Mof_O 	O 	0.7744	0.9851	0.21751	-0.268
Mof_O 	O 	0.6504	0.1124	0.1294	-0.267
Mof_N 	N 	0.7139	0.843	0.11793	-0.249
Mof_H 	H 	0.737	0.8384	0.1291	0.126
Mof_N 	N 	0.7239	0.912	0.1323	-0.261
Mof_H 	H 	0.7474	0.9014	0.1411	0.128
Mof_N 	N 	0.7817	0.0537	0.23409	-0.248
Mof_H 	H 	0.7761	0.0811	0.2296	0.121
Mof_N 	N 	0.7481	0.0421	0.19097	-0.284
Mof_H 	H 	0.7459	0.0708	0.1912	0.132
Mof_N 	N 	0.6443	0.0441	0.1091	-0.26
Mof_H 	H 	0.6332	0.029	0.0942	0.128
Mof_N 	N 	0.5999	0.0987	0.0923	-0.237
Mof_H 	H 	0.5942	0.0796	0.0781	0.121
Mof_C 	C 	0.6167	0.77881	0.04158	0.438
Mof_C 	C 	0.6797	0.6875	0.12367	0.397
Mof_C 	C 	0.6465	0.7736	0.06822	-0.095
Mof_C 	C 	0.6514	0.7332	0.08161	0.036
Mof_H 	H 	0.6373	0.7083	0.0734	0.038
Mof_C 	C 	0.6773	0.7292	0.10755	-0.093
Mof_C 	C 	0.6963	0.7648	0.11948	-0.05
Mof_H 	H 	0.7117	0.7626	0.1378	0.061
Mof_C 	C 	0.6931	0.8072	0.10423	0.102
Mof_C 	C 	0.6678	0.8098	0.07872	-0.056
Mof_H 	H 	0.6652	0.8368	0.0684	0.081
Mof_C 	C 	0.8195	0.9572	0.32007	0.415
Mof_C 	C 	0.8559	0.1157	0.32092	0.404
Mof_C 	C 	0.8201	0.0003	0.30475	-0.086
Mof_C 	C 	0.8395	0.0361	0.31837	0.023
Mof_H 	H 	0.8538	0.0331	0.3371	0.042
Mof_C 	C 	0.8377	0.0773	0.30384	-0.077
Mof_C 	C 	0.8201	0.0822	0.27699	-0.066
Mof_H 	H 	0.8207	0.1099	0.2675	0.065
Mof_C 	C 	0.8008	0.0467	0.2627	0.109
Mof_C 	C 	0.8006	0.0052	0.2768	-0.061
Mof_H 	H 	0.7873	0.9809	0.2673	0.088
Mof_C 	C 	0.5851	0.2544	0.12118	0.397
Mof_C 	C 	0.4938	0.1912	0.0405	0.418
Mof_C 	C 	0.5729	0.2161	0.10249	-0.085
Mof_C 	C 	0.5424	0.2209	0.0792	0.032
Mof_H 	H 	0.5313	0.2491	0.0744	0.038
Mof_C 	C 	0.5289	0.1854	0.06375	-0.092
Mof_C 	C 	0.5457	0.1447	0.0698	-0.055
Mof_H 	H 	0.5361	0.1199	0.0588	0.06
Mof_C 	C 	0.5767	0.1401	0.0921	0.098
Mof_C 	C 	0.5908	0.1771	0.1086	-0.055
Mof_H 	H 	0.6124	0.1743	0.1237	0.087
Mof_C 	C 	0.6992	0.8843	0.1144	0.306
Mof_C 	C 	0.771	0.024	0.2128	0.322
Mof_C 	C 	0.6304	0.0876	0.1137	0.296
Mof_C 	C 	0.7129	0.9571	0.13724	0.234
Mof_C 	C 	0.7361	0.9757	0.16132	-0.282
Mof_H 	H 	0.7566	0.9593	0.1726	0.147
Mof_C 	C 	0.7271	0.0203	0.16772	0.26
Mof_C 	C 	0.6977	0.045	0.15185	-0.295
Mof_H 	H 	0.6924	0.0748	0.1567	0.153
Mof_C 	C 	0.6755	0.0243	0.128	0.239
Mof_C 	C 	0.6819	0.9795	0.1194	-0.268
Mof_H 	H 	0.6667	0.9662	0.1033	0.143
Mof_Zn	Zn	0.90463	0.1517	0.62816	1.2
Mof_Zn	Zn	0.86651	0.21075	0.67398	1.199
Mof_O 	O 	0.88884	0.68407	0.53174	-0.499
Mof_O 	O 	0.89962	0.75469	0.53162	-0.496
Mof_O 	O 	0.83635	0.84515	0.61041	-0.48
Mof_O 	O 	0.79863	0.81356	0.64731	-0.477
Mof_O 	O 	0.70457	0.57216	0.80985	-0.481
Mof_O 	O 	0.65551	0.54624	0.84158	-0.491
Mof_O 	O 	0.62562	0.39101	0.84462	-0.499
Mof_O 	O 	0.64749	0.34815	0.80731	-0.473
Mof_O 	O 	0.89029	0.25325	0.64305	-0.474
Mof_O 	O 	0.9257	0.20849	0.61196	-0.488
Mof_O 	O 	0.01251	0.27151	0.53103	-0.499
Mof_O 	O 	0.02379	0.34275	0.53072	-0.478
Mof_O 	O 	0.832	0.6041	0.5998	-0.267
Mof_O 	O 	0.7256	0.5149	0.71751	-0.268
Mof_O 	O 	0.8496	0.3876	0.6294	-0.267
Mof_N 	N 	0.7861	0.657	0.61793	-0.249
Mof_H 	H 	0.763	0.6616	0.6291	0.126
Mof_N 	N 	0.7761	0.588	0.6323	-0.261
Mof_H 	H 	0.7526	0.5986	0.6411	0.128
Mof_N 	N 	0.7183	0.4463	0.73409	-0.248
Mof_H 	H 	0.7239	0.4189	0.7296	0.121
Mof_N 	N 	0.7519	0.4579	0.69097	-0.284
Mof_H 	H 	0.7541	0.4292	0.6912	0.132
Mof_N 	N 	0.8557	0.4559	0.6091	-0.26
Mof_H 	H 	0.8668	0.471	0.5942	0.129
Mof_N 	N 	0.9001	0.4013	0.5923	-0.238
Mof_H 	H 	0.9058	0.4204	0.5781	0.122
Mof_C 	C 	0.8833	0.72119	0.54158	0.438
Mof_C 	C 	0.8203	0.8125	0.62367	0.397
Mof_C 	C 	0.8535	0.7264	0.56822	-0.094
Mof_C 	C 	0.8486	0.7668	0.58161	0.036
Mof_H 	H 	0.8627	0.7917	0.5734	0.039
Mof_C 	C 	0.8227	0.7708	0.60755	-0.093
Mof_C 	C 	0.8037	0.7352	0.61948	-0.05
Mof_H 	H 	0.7883	0.7374	0.6378	0.061
Mof_C 	C 	0.8069	0.6928	0.60423	0.103
Mof_C 	C 	0.8322	0.6902	0.57872	-0.056
Mof_H 	H 	0.8348	0.6632	0.5684	0.082
Mof_C 	C 	0.6805	0.5428	0.82007	0.415
Mof_C 	C 	0.6441	0.3843	0.82092	0.404
Mof_C 	C 	0.6799	0.4997	0.80475	-0.086
Mof_C 	C 	0.6605	0.4639	0.81837	0.023
Mof_H 	H 	0.6462	0.4669	0.8371	0.042
Mof_C 	C 	0.6623	0.4227	0.80384	-0.077
Mof_C 	C 	0.6799	0.4178	0.77699	-0.066
Mof_H 	H 	0.6793	0.3901	0.7675	0.065
Mof_C 	C 	0.6992	0.4533	0.7627	0.109
Mof_C 	C 	0.6994	0.4948	0.7768	-0.061
Mof_H 	H 	0.7127	0.5191	0.7673	0.088
Mof_C 	C 	0.9149	0.2456	0.62118	0.397
Mof_C 	C 	0.0062	0.3088	0.5405	0.418
Mof_C 	C 	0.9271	0.2839	0.60249	-0.085
Mof_C 	C 	0.9576	0.2791	0.5792	0.031
Mof_H 	H 	0.9687	0.2509	0.5744	0.039
Mof_C 	C 	0.9711	0.3146	0.56375	-0.091
Mof_C 	C 	0.9543	0.3553	0.5698	-0.056
Mof_H 	H 	0.9639	0.3801	0.5588	0.061
Mof_C 	C 	0.9233	0.3599	0.5921	0.098
Mof_C 	C 	0.9092	0.3229	0.6086	-0.056
Mof_H 	H 	0.8876	0.3257	0.6237	0.087
Mof_C 	C 	0.8008	0.6157	0.6144	0.306
Mof_C 	C 	0.729	0.476	0.7128	0.322
Mof_C 	C 	0.8696	0.4124	0.6137	0.296
Mof_C 	C 	0.7871	0.5429	0.63724	0.234
Mof_C 	C 	0.7639	0.5243	0.66132	-0.282
Mof_H 	H 	0.7434	0.5407	0.6726	0.147
Mof_C 	C 	0.7729	0.4797	0.66772	0.26
Mof_C 	C 	0.8023	0.455	0.65185	-0.295
Mof_H 	H 	0.8076	0.4252	0.6567	0.153
Mof_C 	C 	0.8245	0.4757	0.628	0.239
Mof_C 	C 	0.8181	0.5205	0.6194	-0.268
Mof_H 	H 	0.8333	0.5338	0.6033	0.144
Mof_Zn	Zn	0.40463	0.6517	0.12816	1.2
Mof_Zn	Zn	0.36651	0.71075	0.17398	1.199
Mof_O 	O 	0.38884	0.18407	0.03174	-0.501
Mof_O 	O 	0.39962	0.25469	0.03162	-0.497
Mof_O 	O 	0.33635	0.34515	0.11041	-0.48
Mof_O 	O 	0.29863	0.31356	0.14731	-0.477
Mof_O 	O 	0.20457	0.07216	0.30985	-0.481
Mof_O 	O 	0.15551	0.04624	0.34158	-0.491
Mof_O 	O 	0.12562	0.89101	0.34462	-0.499
Mof_O 	O 	0.14749	0.84815	0.30731	-0.473
Mof_O 	O 	0.39029	0.75325	0.14305	-0.474
Mof_O 	O 	0.4257	0.70849	0.11196	-0.489
Mof_O 	O 	0.51251	0.77151	0.03103	-0.501
Mof_O 	O 	0.52379	0.84275	0.03072	-0.48
Mof_O 	O 	0.332	0.1041	0.0998	-0.267
Mof_O 	O 	0.2256	0.0149	0.21751	-0.268
Mof_O 	O 	0.3496	0.8876	0.1294	-0.267
Mof_N 	N 	0.2861	0.157	0.11793	-0.249
Mof_H 	H 	0.263	0.1616	0.1291	0.126
Mof_N 	N 	0.2761	0.088	0.1323	-0.261
Mof_H 	H 	0.2526	0.0986	0.1411	0.128
Mof_N 	N 	0.2183	0.9463	0.23409	-0.248
Mof_H 	H 	0.2239	0.9189	0.2296	0.121
Mof_N 	N 	0.2519	0.9579	0.19097	-0.284
Mof_H 	H 	0.2541	0.9292	0.1912	0.132
Mof_N 	N 	0.3557	0.9559	0.1091	-0.26
Mof_H 	H 	0.3668	0.971	0.0942	0.128
Mof_N 	N 	0.4001	0.9013	0.0923	-0.237
Mof_H 	H 	0.4058	0.9204	0.0781	0.121
Mof_C 	C 	0.3833	0.22119	0.04158	0.438
Mof_C 	C 	0.3203	0.3125	0.12367	0.397
Mof_C 	C 	0.3535	0.2264	0.06822	-0.095
Mof_C 	C 	0.3486	0.2668	0.08161	0.036
Mof_H 	H 	0.3627	0.2917	0.0734	0.038
Mof_C 	C 	0.3227	0.2708	0.10755	-0.093
Mof_C 	C 	0.3037	0.2352	0.11948	-0.05
Mof_H 	H 	0.2883	0.2374	0.1378	0.061
Mof_C 	C 	0.3069	0.1928	0.10423	0.102
Mof_C 	C 	0.3322	0.1902	0.07872	-0.056
Mof_H 	H 	0.3348	0.1632	0.0684	0.081
Mof_C 	C 	0.1805	0.0428	0.32007	0.415
Mof_C 	C 	0.1441	0.8843	0.32092	0.404
Mof_C 	C 	0.1799	0.9997	0.30475	-0.086
Mof_C 	C 	0.1605	0.9639	0.31837	0.023
Mof_H 	H 	0.1462	0.9669	0.3371	0.042
Mof_C 	C 	0.1623	0.9227	0.30384	-0.077
Mof_C 	C 	0.1799	0.9178	0.27699	-0.066
Mof_H 	H 	0.1793	0.8901	0.2675	0.065
Mof_C 	C 	0.1992	0.9533	0.2627	0.109
Mof_C 	C 	0.1994	0.9948	0.2768	-0.061
Mof_H 	H 	0.2127	0.0191	0.2673	0.088
Mof_C 	C 	0.4149	0.7456	0.12118	0.397
Mof_C 	C 	0.5062	0.8088	0.0405	0.418
Mof_C 	C 	0.4271	0.7839	0.10249	-0.085
Mof_C 	C 	0.4576	0.7791	0.0792	0.032
Mof_H 	H 	0.4687	0.7509	0.0744	0.038
Mof_C 	C 	0.4711	0.8146	0.06375	-0.092
Mof_C 	C 	0.4543	0.8553	0.0698	-0.055
Mof_H 	H 	0.4639	0.8801	0.0588	0.06
Mof_C 	C 	0.4233	0.8599	0.0921	0.098
Mof_C 	C 	0.4092	0.8229	0.1086	-0.055
Mof_H 	H 	0.3876	0.8257	0.1237	0.087
Mof_C 	C 	0.3008	0.1157	0.1144	0.306
Mof_C 	C 	0.229	0.976	0.2128	0.322
Mof_C 	C 	0.3696	0.9124	0.1137	0.296
Mof_C 	C 	0.2871	0.0429	0.13724	0.234
Mof_C 	C 	0.2639	0.0243	0.16132	-0.282
Mof_H 	H 	0.2434	0.0407	0.1726	0.147
Mof_C 	C 	0.2729	0.9797	0.16772	0.26
Mof_C 	C 	0.3023	0.955	0.15185	-0.295
Mof_H 	H 	0.3076	0.9252	0.1567	0.153
Mof_C 	C 	0.3245	0.9757	0.128	0.239
Mof_C 	C 	0.3181	0.0205	0.1194	-0.268
Mof_H 	H 	0.3333	0.0338	0.1033	0.143
Mof_Zn	Zn	0.1517	0.09537	0.62816	1.2
Mof_Zn	Zn	0.21075	0.13349	0.67398	1.199
Mof_O 	O 	0.68407	0.11116	0.53174	-0.499
Mof_O 	O 	0.75469	0.10038	0.53162	-0.496
Mof_O 	O 	0.84515	0.16365	0.61041	-0.48
Mof_O 	O 	0.81356	0.20137	0.64731	-0.477
Mof_O 	O 	0.57216	0.29543	0.80985	-0.481
Mof_O 	O 	0.54624	0.34449	0.84158	-0.491
Mof_O 	O 	0.39101	0.37438	0.84462	-0.499
Mof_O 	O 	0.34815	0.35251	0.80731	-0.473
Mof_O 	O 	0.25325	0.10971	0.64305	-0.474
Mof_O 	O 	0.20849	0.0743	0.61196	-0.488
Mof_O 	O 	0.27151	0.98749	0.53103	-0.499
Mof_O 	O 	0.34275	0.97621	0.53072	-0.478
Mof_O 	O 	0.6041	0.168	0.5998	-0.267
Mof_O 	O 	0.5149	0.2744	0.71751	-0.268
Mof_O 	O 	0.3876	0.1504	0.6294	-0.267
Mof_N 	N 	0.657	0.2139	0.61793	-0.249
Mof_H 	H 	0.6616	0.237	0.6291	0.126
Mof_N 	N 	0.588	0.2239	0.6323	-0.261
Mof_H 	H 	0.5986	0.2474	0.6411	0.128
Mof_N 	N 	0.4463	0.2817	0.73409	-0.248
Mof_H 	H 	0.4189	0.2761	0.7296	0.121
Mof_N 	N 	0.4579	0.2481	0.69097	-0.284
Mof_H 	H 	0.4292	0.2459	0.6912	0.132
Mof_N 	N 	0.4559	0.1443	0.6091	-0.26
Mof_H 	H 	0.471	0.1332	0.5942	0.129
Mof_N 	N 	0.4013	0.0999	0.5923	-0.238
Mof_H 	H 	0.4204	0.0942	0.5781	0.122
Mof_C 	C 	0.72119	0.1167	0.54158	0.438
Mof_C 	C 	0.8125	0.1797	0.62367	0.397
Mof_C 	C 	0.7264	0.1465	0.56822	-0.094
Mof_C 	C 	0.7668	0.1514	0.58161	0.036
Mof_H 	H 	0.7917	0.1373	0.5734	0.039
Mof_C 	C 	0.7708	0.1773	0.60755	-0.093
Mof_C 	C 	0.7352	0.1963	0.61948	-0.05
Mof_H 	H 	0.7374	0.2117	0.6378	0.061
Mof_C 	C 	0.6928	0.1931	0.60423	0.103
Mof_C 	C 	0.6902	0.1678	0.57872	-0.056
Mof_H 	H 	0.6632	0.1652	0.5684	0.082
Mof_C 	C 	0.5428	0.3195	0.82007	0.415
Mof_C 	C 	0.3843	0.3559	0.82092	0.404
Mof_C 	C 	0.4997	0.3201	0.80475	-0.086
Mof_C 	C 	0.4639	0.3395	0.81837	0.023
Mof_H 	H 	0.4669	0.3538	0.8371	0.042
Mof_C 	C 	0.4227	0.3377	0.80384	-0.077
Mof_C 	C 	0.4178	0.3201	0.77699	-0.066
Mof_H 	H 	0.3901	0.3207	0.7675	0.065
Mof_C 	C 	0.4533	0.3008	0.7627	0.109
Mof_C 	C 	0.4948	0.3006	0.7768	-0.061
Mof_H 	H 	0.5191	0.2873	0.7673	0.088
Mof_C 	C 	0.2456	0.0851	0.62118	0.397
Mof_C 	C 	0.3088	0.9938	0.5405	0.418
Mof_C 	C 	0.2839	0.0729	0.60249	-0.085
Mof_C 	C 	0.2791	0.0424	0.5792	0.031
Mof_H 	H 	0.2509	0.0313	0.5744	0.039
Mof_C 	C 	0.3146	0.0289	0.56375	-0.091
Mof_C 	C 	0.3553	0.0457	0.5698	-0.056
Mof_H 	H 	0.3801	0.0361	0.5588	0.061
Mof_C 	C 	0.3599	0.0767	0.5921	0.098
Mof_C 	C 	0.3229	0.0908	0.6086	-0.056
Mof_H 	H 	0.3257	0.1124	0.6237	0.087
Mof_C 	C 	0.6157	0.1992	0.6144	0.306
Mof_C 	C 	0.476	0.271	0.7128	0.322
Mof_C 	C 	0.4124	0.1304	0.6137	0.296
Mof_C 	C 	0.5429	0.2129	0.63724	0.234
Mof_C 	C 	0.5243	0.2361	0.66132	-0.282
Mof_H 	H 	0.5407	0.2566	0.6726	0.147
Mof_C 	C 	0.4797	0.2271	0.66772	0.26
Mof_C 	C 	0.455	0.1977	0.65185	-0.295
Mof_H 	H 	0.4252	0.1924	0.6567	0.153
Mof_C 	C 	0.4757	0.1755	0.628	0.239
Mof_C 	C 	0.5205	0.1819	0.6194	-0.268
Mof_H 	H 	0.5338	0.1667	0.6033	0.144
Mof_Zn	Zn	0.6517	0.59537	0.12816	1.2
Mof_Zn	Zn	0.71075	0.63349	0.17398	1.199
Mof_O 	O 	0.18407	0.61116	0.03174	-0.501
Mof_O 	O 	0.25469	0.60038	0.03162	-0.497
Mof_O 	O 	0.34515	0.66365	0.11041	-0.48
Mof_O 	O 	0.31356	0.70137	0.14731	-0.477
Mof_O 	O 	0.07216	0.79543	0.30985	-0.481
Mof_O 	O 	0.04624	0.84449	0.34158	-0.491
Mof_O 	O 	0.89101	0.87438	0.34462	-0.499
Mof_O 	O 	0.84815	0.85251	0.30731	-0.473
Mof_O 	O 	0.75325	0.60971	0.14305	-0.474
Mof_O 	O 	0.70849	0.5743	0.11196	-0.489
Mof_O 	O 	0.77151	0.48749	0.03103	-0.501
Mof_O 	O 	0.84275	0.47621	0.03072	-0.48
Mof_O 	O 	0.1041	0.668	0.0998	-0.267
Mof_O 	O 	0.0149	0.7744	0.21751	-0.268
Mof_O 	O 	0.8876	0.6504	0.1294	-0.267
Mof_N 	N 	0.157	0.7139	0.11793	-0.249
Mof_H 	H 	0.1616	0.737	0.1291	0.126
Mof_N 	N 	0.088	0.7239	0.1323	-0.261
Mof_H 	H 	0.0986	0.7474	0.1411	0.128
Mof_N 	N 	0.9463	0.7817	0.23409	-0.248
Mof_H 	H 	0.9189	0.7761	0.2296	0.121
Mof_N 	N 	0.9579	0.7481	0.19097	-0.284
Mof_H 	H 	0.9292	0.7459	0.1912	0.132
Mof_N 	N 	0.9559	0.6443	0.1091	-0.26
Mof_H 	H 	0.971	0.6332	0.0942	0.128
Mof_N 	N 	0.9013	0.5999	0.0923	-0.237
Mof_H 	H 	0.9204	0.5942	0.0781	0.121
Mof_C 	C 	0.22119	0.6167	0.04158	0.438
Mof_C 	C 	0.3125	0.6797	0.12367	0.397
Mof_C 	C 	0.2264	0.6465	0.06822	-0.095
Mof_C 	C 	0.2668	0.6514	0.08161	0.036
Mof_H 	H 	0.2917	0.6373	0.0734	0.038
Mof_C 	C 	0.2708	0.6773	0.10755	-0.093
Mof_C 	C 	0.2352	0.6963	0.11948	-0.05
Mof_H 	H 	0.2374	0.7117	0.1378	0.061
Mof_C 	C 	0.1928	0.6931	0.10423	0.102
Mof_C 	C 	0.1902	0.6678	0.07872	-0.056
Mof_H 	H 	0.1632	0.6652	0.0684	0.081
Mof_C 	C 	0.0428	0.8195	0.32007	0.415
Mof_C 	C 	0.8843	0.8559	0.32092	0.404
Mof_C 	C 	0.9997	0.8201	0.30475	-0.086
Mof_C 	C 	0.9639	0.8395	0.31837	0.023
Mof_H 	H 	0.9669	0.8538	0.3371	0.042
Mof_C 	C 	0.9227	0.8377	0.30384	-0.077
Mof_C 	C 	0.9178	0.8201	0.27699	-0.066
Mof_H 	H 	0.8901	0.8207	0.2675	0.065
Mof_C 	C 	0.9533	0.8008	0.2627	0.109
Mof_C 	C 	0.9948	0.8006	0.2768	-0.061
Mof_H 	H 	0.0191	0.7873	0.2673	0.088
Mof_C 	C 	0.7456	0.5851	0.12118	0.397
Mof_C 	C 	0.8088	0.4938	0.0405	0.418
Mof_C 	C 	0.7839	0.5729	0.10249	-0.085
Mof_C 	C 	0.7791	0.5424	0.0792	0.032
Mof_H 	H 	0.7509	0.5313	0.0744	0.038
Mof_C 	C 	0.8146	0.5289	0.06375	-0.092
Mof_C 	C 	0.8553	0.5457	0.0698	-0.055
Mof_H 	H 	0.8801	0.5361	0.0588	0.06
Mof_C 	C 	0.8599	0.5767	0.0921	0.098
Mof_C 	C 	0.8229	0.5908	0.1086	-0.055
Mof_H 	H 	0.8257	0.6124	0.1237	0.087
Mof_C 	C 	0.1157	0.6992	0.1144	0.306
Mof_C 	C 	0.976	0.771	0.2128	0.322
Mof_C 	C 	0.9124	0.6304	0.1137	0.296
Mof_C 	C 	0.0429	0.7129	0.13724	0.234
Mof_C 	C 	0.0243	0.7361	0.16132	-0.282
Mof_H 	H 	0.0407	0.7566	0.1726	0.147
Mof_C 	C 	0.9797	0.7271	0.16772	0.26
Mof_C 	C 	0.955	0.6977	0.15185	-0.295
Mof_H 	H 	0.9252	0.6924	0.1567	0.153
Mof_C 	C 	0.9757	0.6755	0.128	0.239
Mof_C 	C 	0.0205	0.6819	0.1194	-0.268
Mof_H 	H 	0.0338	0.6667	0.1033	0.143
Mof_Zn	Zn	0.8483	0.90463	0.62816	1.2
Mof_Zn	Zn	0.78925	0.86651	0.67398	1.199
Mof_O 	O 	0.31593	0.88884	0.53174	-0.499
Mof_O 	O 	0.24531	0.89962	0.53162	-0.496
Mof_O 	O 	0.15485	0.83635	0.61041	-0.48
Mof_O 	O 	0.18644	0.79863	0.64731	-0.477
Mof_O 	O 	0.42784	0.70457	0.80985	-0.481
Mof_O 	O 	0.45376	0.65551	0.84158	-0.491
Mof_O 	O 	0.60899	0.62562	0.84462	-0.499
Mof_O 	O 	0.65185	0.64749	0.80731	-0.473
Mof_O 	O 	0.74675	0.89029	0.64305	-0.474
Mof_O 	O 	0.79151	0.9257	0.61196	-0.488
Mof_O 	O 	0.72849	0.01251	0.53103	-0.499
Mof_O 	O 	0.65725	0.02379	0.53072	-0.478
Mof_O 	O 	0.3959	0.832	0.5998	-0.267
Mof_O 	O 	0.4851	0.7256	0.71751	-0.268
Mof_O 	O 	0.6124	0.8496	0.6294	-0.267
Mof_N 	N 	0.343	0.7861	0.61793	-0.249
Mof_H 	H 	0.3384	0.763	0.6291	0.126
Mof_N 	N 	0.412	0.7761	0.6323	-0.261
Mof_H 	H 	0.4014	0.7526	0.6411	0.128
Mof_N 	N 	0.5537	0.7183	0.73409	-0.248
Mof_H 	H 	0.5811	0.7239	0.7296	0.121
Mof_N 	N 	0.5421	0.7519	0.69097	-0.284
Mof_H 	H 	0.5708	0.7541	0.6912	0.132
Mof_N 	N 	0.5441	0.8557	0.6091	-0.26
Mof_H 	H 	0.529	0.8668	0.5942	0.129
Mof_N 	N 	0.5987	0.9001	0.5923	-0.238
Mof_H 	H 	0.5796	0.9058	0.5781	0.122
Mof_C 	C 	0.27881	0.8833	0.54158	0.438
Mof_C 	C 	0.1875	0.8203	0.62367	0.397
Mof_C 	C 	0.2736	0.8535	0.56822	-0.094
Mof_C 	C 	0.2332	0.8486	0.58161	0.036
Mof_H 	H 	0.2083	0.8627	0.5734	0.039
Mof_C 	C 	0.2292	0.8227	0.60755	-0.093
Mof_C 	C 	0.2648	0.8037	0.61948	-0.05
Mof_H 	H 	0.2626	0.7883	0.6378	0.061
Mof_C 	C 	0.3072	0.8069	0.60423	0.103
Mof_C 	C 	0.3098	0.8322	0.57872	-0.056
Mof_H 	H 	0.3368	0.8348	0.5684	0.082
Mof_C 	C 	0.4572	0.6805	0.82007	0.415
Mof_C 	C 	0.6157	0.6441	0.82092	0.404
Mof_C 	C 	0.5003	0.6799	0.80475	-0.086
Mof_C 	C 	0.5361	0.6605	0.81837	0.023
Mof_H 	H 	0.5331	0.6462	0.8371	0.042
Mof_C 	C 	0.5773	0.6623	0.80384	-0.077
Mof_C 	C 	0.5822	0.6799	0.77699	-0.066
Mof_H 	H 	0.6099	0.6793	0.7675	0.065
Mof_C 	C 	0.5467	0.6992	0.7627	0.109
Mof_C 	C 	0.5052	0.6994	0.7768	-0.061
Mof_H 	H 	0.4809	0.7127	0.7673	0.088
Mof_C 	C 	0.7544	0.9149	0.62118	0.397
Mof_C 	C 	0.6912	0.0062	0.5405	0.418
Mof_C 	C 	0.7161	0.9271	0.60249	-0.085
Mof_C 	C 	0.7209	0.9576	0.5792	0.031
Mof_H 	H 	0.7491	0.9687	0.5744	0.039
Mof_C 	C 	0.6854	0.9711	0.56375	-0.091
Mof_C 	C 	0.6447	0.9543	0.5698	-0.056
Mof_H 	H 	0.6199	0.9639	0.5588	0.061
Mof_C 	C 	0.6401	0.9233	0.5921	0.098
Mof_C 	C 	0.6771	0.9092	0.6086	-0.056
Mof_H 	H 	0.6743	0.8876	0.6237	0.087
Mof_C 	C 	0.3843	0.8008	0.6144	0.306
Mof_C 	C 	0.524	0.729	0.7128	0.322
Mof_C 	C 	0.5876	0.8696	0.6137	0.296
Mof_C 	C 	0.4571	0.7871	0.63724	0.234
Mof_C 	C 	0.4757	0.7639	0.66132	-0.282
Mof_H 	H 	0.4593	0.7434	0.6726	0.147
Mof_C 	C 	0.5203	0.7729	0.66772	0.26
Mof_C 	C 	0.545	0.8023	0.65185	-0.295
Mof_H 	H 	0.5748	0.8076	0.6567	0.153
Mof_C 	C 	0.5243	0.8245	0.628	0.239
Mof_C 	C 	0.4795	0.8181	0.6194	-0.268
Mof_H 	H 	0.4662	0.8333	0.6033	0.144
Mof_Zn	Zn	0.3483	0.40463	0.12816	1.2
Mof_Zn	Zn	0.28925	0.36651	0.17398	1.199
Mof_O 	O 	0.81593	0.38884	0.03174	-0.501
Mof_O 	O 	0.74531	0.39962	0.03162	-0.497
Mof_O 	O 	0.65485	0.33635	0.11041	-0.48
Mof_O 	O 	0.68644	0.29863	0.14731	-0.477
Mof_O 	O 	0.92784	0.20457	0.30985	-0.481
Mof_O 	O 	0.95376	0.15551	0.34158	-0.491
Mof_O 	O 	0.10899	0.12562	0.34462	-0.499
Mof_O 	O 	0.15185	0.14749	0.30731	-0.473
Mof_O 	O 	0.24675	0.39029	0.14305	-0.474
Mof_O 	O 	0.29151	0.4257	0.11196	-0.489
Mof_O 	O 	0.22849	0.51251	0.03103	-0.501
Mof_O 	O 	0.15725	0.52379	0.03072	-0.48
Mof_O 	O 	0.8959	0.332	0.0998	-0.267
Mof_O 	O 	0.9851	0.2256	0.21751	-0.268
Mof_O 	O 	0.1124	0.3496	0.1294	-0.267
Mof_N 	N 	0.843	0.2861	0.11793	-0.249
Mof_H 	H 	0.8384	0.263	0.1291	0.126
Mof_N 	N 	0.912	0.2761	0.1323	-0.261
Mof_H 	H 	0.9014	0.2526	0.1411	0.128
Mof_N 	N 	0.0537	0.2183	0.23409	-0.248
Mof_H 	H 	0.0811	0.2239	0.2296	0.121
Mof_N 	N 	0.0421	0.2519	0.19097	-0.284
Mof_H 	H 	0.0708	0.2541	0.1912	0.132
Mof_N 	N 	0.0441	0.3557	0.1091	-0.26
Mof_H 	H 	0.029	0.3668	0.0942	0.128
Mof_N 	N 	0.0987	0.4001	0.0923	-0.237
Mof_H 	H 	0.0796	0.4058	0.0781	0.121
Mof_C 	C 	0.77881	0.3833	0.04158	0.438
Mof_C 	C 	0.6875	0.3203	0.12367	0.397
Mof_C 	C 	0.7736	0.3535	0.06822	-0.095
Mof_C 	C 	0.7332	0.3486	0.08161	0.036
Mof_H 	H 	0.7083	0.3627	0.0734	0.038
Mof_C 	C 	0.7292	0.3227	0.10755	-0.093
Mof_C 	C 	0.7648	0.3037	0.11948	-0.05
Mof_H 	H 	0.7626	0.2883	0.1378	0.061
Mof_C 	C 	0.8072	0.3069	0.10423	0.102
Mof_C 	C 	0.8098	0.3322	0.07872	-0.056
Mof_H 	H 	0.8368	0.3348	0.0684	0.081
Mof_C 	C 	0.9572	0.1805	0.32007	0.415
Mof_C 	C 	0.1157	0.1441	0.32092	0.404
Mof_C 	C 	0.0003	0.1799	0.30475	-0.086
Mof_C 	C 	0.0361	0.1605	0.31837	0.023
Mof_H 	H 	0.0331	0.1462	0.3371	0.042
Mof_C 	C 	0.0773	0.1623	0.30384	-0.077
Mof_C 	C 	0.0822	0.1799	0.27699	-0.066
Mof_H 	H 	0.1099	0.1793	0.2675	0.065
Mof_C 	C 	0.0467	0.1992	0.2627	0.109
Mof_C 	C 	0.0052	0.1994	0.2768	-0.061
Mof_H 	H 	0.9809	0.2127	0.2673	0.088
Mof_C 	C 	0.2544	0.4149	0.12118	0.397
Mof_C 	C 	0.1912	0.5062	0.0405	0.418
Mof_C 	C 	0.2161	0.4271	0.10249	-0.085
Mof_C 	C 	0.2209	0.4576	0.0792	0.032
Mof_H 	H 	0.2491	0.4687	0.0744	0.038
Mof_C 	C 	0.1854	0.4711	0.06375	-0.092
Mof_C 	C 	0.1447	0.4543	0.0698	-0.055
Mof_H 	H 	0.1199	0.4639	0.0588	0.06
Mof_C 	C 	0.1401	0.4233	0.0921	0.098
Mof_C 	C 	0.1771	0.4092	0.1086	-0.055
Mof_H 	H 	0.1743	0.3876	0.1237	0.087
Mof_C 	C 	0.8843	0.3008	0.1144	0.306
Mof_C 	C 	0.024	0.229	0.2128	0.322
Mof_C 	C 	0.0876	0.3696	0.1137	0.296
Mof_C 	C 	0.9571	0.2871	0.13724	0.234
Mof_C 	C 	0.9757	0.2639	0.16132	-0.282
Mof_H 	H 	0.9593	0.2434	0.1726	0.147
Mof_C 	C 	0.0203	0.2729	0.16772	0.26
Mof_C 	C 	0.045	0.3023	0.15185	-0.295
Mof_H 	H 	0.0748	0.3076	0.1567	0.153
Mof_C 	C 	0.0243	0.3245	0.128	0.239
Mof_C 	C 	0.9795	0.3181	0.1194	-0.268
Mof_H 	H 	0.9662	0.3333	0.1033	0.143
Mof_Zn	Zn	0.90463	0.1517	0.37184	1.2
Mof_Zn	Zn	0.86651	0.21075	0.32602	1.199
Mof_O 	O 	0.88884	0.68407	0.46826	-0.499
Mof_O 	O 	0.89962	0.75469	0.46838	-0.496
Mof_O 	O 	0.83635	0.84515	0.38959	-0.48
Mof_O 	O 	0.79863	0.81356	0.35269	-0.477
Mof_O 	O 	0.70457	0.57216	0.19015	-0.481
Mof_O 	O 	0.65551	0.54624	0.15842	-0.491
Mof_O 	O 	0.62562	0.39101	0.15538	-0.499
Mof_O 	O 	0.64749	0.34815	0.19269	-0.473
Mof_O 	O 	0.89029	0.25325	0.35695	-0.474
Mof_O 	O 	0.9257	0.20849	0.38804	-0.488
Mof_O 	O 	0.01251	0.27151	0.46897	-0.499
Mof_O 	O 	0.02379	0.34275	0.46928	-0.478
Mof_O 	O 	0.832	0.6041	0.4002	-0.267
Mof_O 	O 	0.7256	0.5149	0.28249	-0.268
Mof_O 	O 	0.8496	0.3876	0.3706	-0.267
Mof_N 	N 	0.7861	0.657	0.38207	-0.249
Mof_H 	H 	0.763	0.6616	0.3709	0.126
Mof_N 	N 	0.7761	0.588	0.3677	-0.261
Mof_H 	H 	0.7526	0.5986	0.3589	0.128
Mof_N 	N 	0.7183	0.4463	0.26591	-0.248
Mof_H 	H 	0.7239	0.4189	0.2704	0.121
Mof_N 	N 	0.7519	0.4579	0.30903	-0.284
Mof_H 	H 	0.7541	0.4292	0.3088	0.132
Mof_N 	N 	0.8557	0.4559	0.3909	-0.26
Mof_H 	H 	0.8668	0.471	0.4058	0.129
Mof_N 	N 	0.9001	0.4013	0.4077	-0.238
Mof_H 	H 	0.9058	0.4204	0.4219	0.122
Mof_C 	C 	0.8833	0.72119	0.45842	0.438
Mof_C 	C 	0.8203	0.8125	0.37633	0.397
Mof_C 	C 	0.8535	0.7264	0.43178	-0.094
Mof_C 	C 	0.8486	0.7668	0.41839	0.036
Mof_H 	H 	0.8627	0.7917	0.4266	0.039
Mof_C 	C 	0.8227	0.7708	0.39245	-0.093
Mof_C 	C 	0.8037	0.7352	0.38052	-0.05
Mof_H 	H 	0.7883	0.7374	0.3622	0.061
Mof_C 	C 	0.8069	0.6928	0.39577	0.103
Mof_C 	C 	0.8322	0.6902	0.42128	-0.056
Mof_H 	H 	0.8348	0.6632	0.4316	0.082
Mof_C 	C 	0.6805	0.5428	0.17993	0.415
Mof_C 	C 	0.6441	0.3843	0.17908	0.404
Mof_C 	C 	0.6799	0.4997	0.19525	-0.086
Mof_C 	C 	0.6605	0.4639	0.18163	0.023
Mof_H 	H 	0.6462	0.4669	0.1629	0.042
Mof_C 	C 	0.6623	0.4227	0.19616	-0.077
Mof_C 	C 	0.6799	0.4178	0.22301	-0.066
Mof_H 	H 	0.6793	0.3901	0.2325	0.065
Mof_C 	C 	0.6992	0.4533	0.2373	0.109
Mof_C 	C 	0.6994	0.4948	0.2232	-0.061
Mof_H 	H 	0.7127	0.5191	0.2327	0.088
Mof_C 	C 	0.9149	0.2456	0.37882	0.397
Mof_C 	C 	0.0062	0.3088	0.4595	0.418
Mof_C 	C 	0.9271	0.2839	0.39751	-0.085
Mof_C 	C 	0.9576	0.2791	0.4208	0.031
Mof_H 	H 	0.9687	0.2509	0.4256	0.039
Mof_C 	C 	0.9711	0.3146	0.43625	-0.091
Mof_C 	C 	0.9543	0.3553	0.4302	-0.056
Mof_H 	H 	0.9639	0.3801	0.4412	0.061
Mof_C 	C 	0.9233	0.3599	0.4079	0.098
Mof_C 	C 	0.9092	0.3229	0.3914	-0.056
Mof_H 	H 	0.8876	0.3257	0.3763	0.087
Mof_C 	C 	0.8008	0.6157	0.3856	0.306
Mof_C 	C 	0.729	0.476	0.2872	0.322
Mof_C 	C 	0.8696	0.4124	0.3863	0.296
Mof_C 	C 	0.7871	0.5429	0.36276	0.234
Mof_C 	C 	0.7639	0.5243	0.33868	-0.282
Mof_H 	H 	0.7434	0.5407	0.3274	0.147
Mof_C 	C 	0.7729	0.4797	0.33228	0.26
Mof_C 	C 	0.8023	0.455	0.34815	-0.295
Mof_H 	H 	0.8076	0.4252	0.3433	0.153
Mof_C 	C 	0.8245	0.4757	0.372	0.239
Mof_C 	C 	0.8181	0.5205	0.3806	-0.268
Mof_H 	H 	0.8333	0.5338	0.3967	0.144
Mof_Zn	Zn	0.40463	0.6517	0.87184	1.2
Mof_Zn	Zn	0.36651	0.71075	0.82602	1.199
Mof_O 	O 	0.38884	0.18407	0.96826	-0.497
Mof_O 	O 	0.39962	0.25469	0.96838	-0.493
Mof_O 	O 	0.33635	0.34515	0.88959	-0.48
Mof_O 	O 	0.29863	0.31356	0.85269	-0.477
Mof_O 	O 	0.20457	0.07216	0.69015	-0.481
Mof_O 	O 	0.15551	0.04624	0.65842	-0.491
Mof_O 	O 	0.12562	0.89101	0.65538	-0.499
Mof_O 	O 	0.14749	0.84815	0.69269	-0.473
Mof_O 	O 	0.39029	0.75325	0.85695	-0.474
Mof_O 	O 	0.4257	0.70849	0.88804	-0.488
Mof_O 	O 	0.51251	0.77151	0.96897	-0.497
Mof_O 	O 	0.52379	0.84275	0.96928	-0.476
Mof_O 	O 	0.332	0.1041	0.9002	-0.266
Mof_O 	O 	0.2256	0.0149	0.78249	-0.268
Mof_O 	O 	0.3496	0.8876	0.8706	-0.267
Mof_N 	N 	0.2861	0.157	0.88207	-0.249
Mof_H 	H 	0.263	0.1616	0.8709	0.126
Mof_N 	N 	0.2761	0.088	0.8677	-0.261
Mof_H 	H 	0.2526	0.0986	0.8589	0.128
Mof_N 	N 	0.2183	0.9463	0.76591	-0.248
Mof_H 	H 	0.2239	0.9189	0.7704	0.121
Mof_N 	N 	0.2519	0.9579	0.80903	-0.284
Mof_H 	H 	0.2541	0.9292	0.8088	0.132
Mof_N 	N 	0.3557	0.9559	0.8909	-0.26
Mof_H 	H 	0.3668	0.971	0.9058	0.129
Mof_N 	N 	0.4001	0.9013	0.9077	-0.238
Mof_H 	H 	0.4058	0.9204	0.9219	0.122
Mof_C 	C 	0.3833	0.22119	0.95842	0.437
Mof_C 	C 	0.3203	0.3125	0.87633	0.397
Mof_C 	C 	0.3535	0.2264	0.93178	-0.093
Mof_C 	C 	0.3486	0.2668	0.91839	0.035
Mof_H 	H 	0.3627	0.2917	0.9266	0.039
Mof_C 	C 	0.3227	0.2708	0.89245	-0.092
Mof_C 	C 	0.3037	0.2352	0.88052	-0.051
Mof_H 	H 	0.2883	0.2374	0.8622	0.061
Mof_C 	C 	0.3069	0.1928	0.89577	0.103
Mof_C 	C 	0.3322	0.1902	0.92128	-0.057
Mof_H 	H 	0.3348	0.1632	0.9316	0.083
Mof_C 	C 	0.1805	0.0428	0.67993	0.415
Mof_C 	C 	0.1441	0.8843	0.67908	0.404
Mof_C 	C 	0.1799	0.9997	0.69525	-0.086
Mof_C 	C 	0.1605	0.9639	0.68163	0.023
Mof_H 	H 	0.1462	0.9669	0.6629	0.042
Mof_C 	C 	0.1623	0.9227	0.69616	-0.077
Mof_C 	C 	0.1799	0.9178	0.72301	-0.066
Mof_H 	H 	0.1793	0.8901	0.7325	0.065
Mof_C 	C 	0.1992	0.9533	0.7373	0.109
Mof_C 	C 	0.1994	0.9948	0.7232	-0.061
Mof_H 	H 	0.2127	0.0191	0.7327	0.088
Mof_C 	C 	0.4149	0.7456	0.87882	0.397
Mof_C 	C 	0.5062	0.8088	0.9595	0.417
Mof_C 	C 	0.4271	0.7839	0.89751	-0.084
Mof_C 	C 	0.4576	0.7791	0.9208	0.031
Mof_H 	H 	0.4687	0.7509	0.9256	0.039
Mof_C 	C 	0.4711	0.8146	0.93625	-0.09
Mof_C 	C 	0.4543	0.8553	0.9302	-0.056
Mof_H 	H 	0.4639	0.8801	0.9412	0.062
Mof_C 	C 	0.4233	0.8599	0.9079	0.099
Mof_C 	C 	0.4092	0.8229	0.8914	-0.056
Mof_H 	H 	0.3876	0.8257	0.8763	0.087
Mof_C 	C 	0.3008	0.1157	0.8856	0.306
Mof_C 	C 	0.229	0.976	0.7872	0.322
Mof_C 	C 	0.3696	0.9124	0.8863	0.296
Mof_C 	C 	0.2871	0.0429	0.86276	0.235
Mof_C 	C 	0.2639	0.0243	0.83868	-0.282
Mof_H 	H 	0.2434	0.0407	0.8274	0.147
Mof_C 	C 	0.2729	0.9797	0.83228	0.26
Mof_C 	C 	0.3023	0.955	0.84815	-0.295
Mof_H 	H 	0.3076	0.9252	0.8433	0.153
Mof_C 	C 	0.3245	0.9757	0.872	0.239
Mof_C 	C 	0.3181	0.0205	0.8806	-0.268
Mof_H 	H 	0.3333	0.0338	0.8967	0.144
Mof_Zn	Zn	0.09537	0.8483	0.37184	1.2
Mof_Zn	Zn	0.13349	0.78925	0.32602	1.199
Mof_O 	O 	0.11116	0.31593	0.46826	-0.499
Mof_O 	O 	0.10038	0.24531	0.46838	-0.496
Mof_O 	O 	0.16365	0.15485	0.38959	-0.48
Mof_O 	O 	0.20137	0.18644	0.35269	-0.477
Mof_O 	O 	0.29543	0.42784	0.19015	-0.481
Mof_O 	O 	0.34449	0.45376	0.15842	-0.491
Mof_O 	O 	0.37438	0.60899	0.15538	-0.499
Mof_O 	O 	0.35251	0.65185	0.19269	-0.473
Mof_O 	O 	0.10971	0.74675	0.35695	-0.474
Mof_O 	O 	0.0743	0.79151	0.38804	-0.488
Mof_O 	O 	0.98749	0.72849	0.46897	-0.499
Mof_O 	O 	0.97621	0.65725	0.46928	-0.478
Mof_O 	O 	0.168	0.3959	0.4002	-0.267
Mof_O 	O 	0.2744	0.4851	0.28249	-0.268
Mof_O 	O 	0.1504	0.6124	0.3706	-0.267
Mof_N 	N 	0.2139	0.343	0.38207	-0.249
Mof_H 	H 	0.237	0.3384	0.3709	0.126
Mof_N 	N 	0.2239	0.412	0.3677	-0.261
Mof_H 	H 	0.2474	0.4014	0.3589	0.128
Mof_N 	N 	0.2817	0.5537	0.26591	-0.248
Mof_H 	H 	0.2761	0.5811	0.2704	0.121
Mof_N 	N 	0.2481	0.5421	0.30903	-0.284
Mof_H 	H 	0.2459	0.5708	0.3088	0.132
Mof_N 	N 	0.1443	0.5441	0.3909	-0.26
Mof_H 	H 	0.1332	0.529	0.4058	0.129
Mof_N 	N 	0.0999	0.5987	0.4077	-0.238
Mof_H 	H 	0.0942	0.5796	0.4219	0.122
Mof_C 	C 	0.1167	0.27881	0.45842	0.438
Mof_C 	C 	0.1797	0.1875	0.37633	0.397
Mof_C 	C 	0.1465	0.2736	0.43178	-0.094
Mof_C 	C 	0.1514	0.2332	0.41839	0.036
Mof_H 	H 	0.1373	0.2083	0.4266	0.039
Mof_C 	C 	0.1773	0.2292	0.39245	-0.093
Mof_C 	C 	0.1963	0.2648	0.38052	-0.05
Mof_H 	H 	0.2117	0.2626	0.3622	0.061
Mof_C 	C 	0.1931	0.3072	0.39577	0.103
Mof_C 	C 	0.1678	0.3098	0.42128	-0.056
Mof_H 	H 	0.1652	0.3368	0.4316	0.082
Mof_C 	C 	0.3195	0.4572	0.17993	0.415
Mof_C 	C 	0.3559	0.6157	0.17908	0.404
Mof_C 	C 	0.3201	0.5003	0.19525	-0.086
Mof_C 	C 	0.3395	0.5361	0.18163	0.023
Mof_H 	H 	0.3538	0.5331	0.1629	0.042
Mof_C 	C 	0.3377	0.5773	0.19616	-0.077
Mof_C 	C 	0.3201	0.5822	0.22301	-0.066
Mof_H 	H 	0.3207	0.6099	0.2325	0.065
Mof_C 	C 	0.3008	0.5467	0.2373	0.109
Mof_C 	C 	0.3006	0.5052	0.2232	-0.061
Mof_H 	H 	0.2873	0.4809	0.2327	0.088
Mof_C 	C 	0.0851	0.7544	0.37882	0.397
Mof_C 	C 	0.9938	0.6912	0.4595	0.418
Mof_C 	C 	0.0729	0.7161	0.39751	-0.085
Mof_C 	C 	0.0424	0.7209	0.4208	0.031
Mof_H 	H 	0.0313	0.7491	0.4256	0.039
Mof_C 	C 	0.0289	0.6854	0.43625	-0.091
Mof_C 	C 	0.0457	0.6447	0.4302	-0.056
Mof_H 	H 	0.0361	0.6199	0.4412	0.061
Mof_C 	C 	0.0767	0.6401	0.4079	0.098
Mof_C 	C 	0.0908	0.6771	0.3914	-0.056
Mof_H 	H 	0.1124	0.6743	0.3763	0.087
Mof_C 	C 	0.1992	0.3843	0.3856	0.306
Mof_C 	C 	0.271	0.524	0.2872	0.322
Mof_C 	C 	0.1304	0.5876	0.3863	0.296
Mof_C 	C 	0.2129	0.4571	0.36276	0.234
Mof_C 	C 	0.2361	0.4757	0.33868	-0.282
Mof_H 	H 	0.2566	0.4593	0.3274	0.147
Mof_C 	C 	0.2271	0.5203	0.33228	0.26
Mof_C 	C 	0.1977	0.545	0.34815	-0.295
Mof_H 	H 	0.1924	0.5748	0.3433	0.153
Mof_C 	C 	0.1755	0.5243	0.372	0.239
Mof_C 	C 	0.1819	0.4795	0.3806	-0.268
Mof_H 	H 	0.1667	0.4662	0.3967	0.144
Mof_Zn	Zn	0.59537	0.3483	0.87184	1.2
Mof_Zn	Zn	0.63349	0.28925	0.82602	1.199
Mof_O 	O 	0.61116	0.81593	0.96826	-0.497
Mof_O 	O 	0.60038	0.74531	0.96838	-0.493
Mof_O 	O 	0.66365	0.65485	0.88959	-0.48
Mof_O 	O 	0.70137	0.68644	0.85269	-0.477
Mof_O 	O 	0.79543	0.92784	0.69015	-0.481
Mof_O 	O 	0.84449	0.95376	0.65842	-0.491
Mof_O 	O 	0.87438	0.10899	0.65538	-0.499
Mof_O 	O 	0.85251	0.15185	0.69269	-0.473
Mof_O 	O 	0.60971	0.24675	0.85695	-0.474
Mof_O 	O 	0.5743	0.29151	0.88804	-0.488
Mof_O 	O 	0.48749	0.22849	0.96897	-0.497
Mof_O 	O 	0.47621	0.15725	0.96928	-0.476
Mof_O 	O 	0.668	0.8959	0.9002	-0.266
Mof_O 	O 	0.7744	0.9851	0.78249	-0.268
Mof_O 	O 	0.6504	0.1124	0.8706	-0.267
Mof_N 	N 	0.7139	0.843	0.88207	-0.249
Mof_H 	H 	0.737	0.8384	0.8709	0.126
Mof_N 	N 	0.7239	0.912	0.8677	-0.261
Mof_H 	H 	0.7474	0.9014	0.8589	0.128
Mof_N 	N 	0.7817	0.0537	0.76591	-0.248
Mof_H 	H 	0.7761	0.0811	0.7704	0.121
Mof_N 	N 	0.7481	0.0421	0.80903	-0.284
Mof_H 	H 	0.7459	0.0708	0.8088	0.132
Mof_N 	N 	0.6443	0.0441	0.8909	-0.26
Mof_H 	H 	0.6332	0.029	0.9058	0.129
Mof_N 	N 	0.5999	0.0987	0.9077	-0.238
Mof_H 	H 	0.5942	0.0796	0.9219	0.122
Mof_C 	C 	0.6167	0.77881	0.95842	0.437
Mof_C 	C 	0.6797	0.6875	0.87633	0.397
Mof_C 	C 	0.6465	0.7736	0.93178	-0.093
Mof_C 	C 	0.6514	0.7332	0.91839	0.035
Mof_H 	H 	0.6373	0.7083	0.9266	0.039
Mof_C 	C 	0.6773	0.7292	0.89245	-0.092
Mof_C 	C 	0.6963	0.7648	0.88052	-0.051
Mof_H 	H 	0.7117	0.7626	0.8622	0.061
Mof_C 	C 	0.6931	0.8072	0.89577	0.103
Mof_C 	C 	0.6678	0.8098	0.92128	-0.057
Mof_H 	H 	0.6652	0.8368	0.9316	0.083
Mof_C 	C 	0.8195	0.9572	0.67993	0.415
Mof_C 	C 	0.8559	0.1157	0.67908	0.404
Mof_C 	C 	0.8201	0.0003	0.69525	-0.086
Mof_C 	C 	0.8395	0.0361	0.68163	0.023
Mof_H 	H 	0.8538	0.0331	0.6629	0.042
Mof_C 	C 	0.8377	0.0773	0.69616	-0.077
Mof_C 	C 	0.8201	0.0822	0.72301	-0.066
Mof_H 	H 	0.8207	0.1099	0.7325	0.065
Mof_C 	C 	0.8008	0.0467	0.7373	0.109
Mof_C 	C 	0.8006	0.0052	0.7232	-0.061
Mof_H 	H 	0.7873	0.9809	0.7327	0.088
Mof_C 	C 	0.5851	0.2544	0.87882	0.397
Mof_C 	C 	0.4938	0.1912	0.9595	0.417
Mof_C 	C 	0.5729	0.2161	0.89751	-0.084
Mof_C 	C 	0.5424	0.2209	0.9208	0.031
Mof_H 	H 	0.5313	0.2491	0.9256	0.039
Mof_C 	C 	0.5289	0.1854	0.93625	-0.09
Mof_C 	C 	0.5457	0.1447	0.9302	-0.056
Mof_H 	H 	0.5361	0.1199	0.9412	0.062
Mof_C 	C 	0.5767	0.1401	0.9079	0.099
Mof_C 	C 	0.5908	0.1771	0.8914	-0.056
Mof_H 	H 	0.6124	0.1743	0.8763	0.087
Mof_C 	C 	0.6992	0.8843	0.8856	0.306
Mof_C 	C 	0.771	0.024	0.7872	0.322
Mof_C 	C 	0.6304	0.0876	0.8863	0.296
Mof_C 	C 	0.7129	0.9571	0.86276	0.235
Mof_C 	C 	0.7361	0.9757	0.83868	-0.282
Mof_H 	H 	0.7566	0.9593	0.8274	0.147
Mof_C 	C 	0.7271	0.0203	0.83228	0.26
Mof_C 	C 	0.6977	0.045	0.84815	-0.295
Mof_H 	H 	0.6924	0.0748	0.8433	0.153
Mof_C 	C 	0.6755	0.0243	0.872	0.239
Mof_C 	C 	0.6819	0.9795	0.8806	-0.268
Mof_H 	H 	0.6667	0.9662	0.8967	0.144
Mof_Zn	Zn	0.8483	0.90463	0.37184	1.2
Mof_Zn	Zn	0.78925	0.86651	0.32602	1.199
Mof_O 	O 	0.31593	0.88884	0.46826	-0.499
Mof_O 	O 	0.24531	0.89962	0.46838	-0.496
Mof_O 	O 	0.15485	0.83635	0.38959	-0.48
Mof_O 	O 	0.18644	0.79863	0.35269	-0.477
Mof_O 	O 	0.42784	0.70457	0.19015	-0.481
Mof_O 	O 	0.45376	0.65551	0.15842	-0.491
Mof_O 	O 	0.60899	0.62562	0.15538	-0.499
Mof_O 	O 	0.65185	0.64749	0.19269	-0.473
Mof_O 	O 	0.74675	0.89029	0.35695	-0.474
Mof_O 	O 	0.79151	0.9257	0.38804	-0.488
Mof_O 	O 	0.72849	0.01251	0.46897	-0.499
Mof_O 	O 	0.65725	0.02379	0.46928	-0.478
Mof_O 	O 	0.3959	0.832	0.4002	-0.267
Mof_O 	O 	0.4851	0.7256	0.28249	-0.268
Mof_O 	O 	0.6124	0.8496	0.3706	-0.267
Mof_N 	N 	0.343	0.7861	0.38207	-0.249
Mof_H 	H 	0.3384	0.763	0.3709	0.126
Mof_N 	N 	0.412	0.7761	0.3677	-0.261
Mof_H 	H 	0.4014	0.7526	0.3589	0.128
Mof_N 	N 	0.5537	0.7183	0.26591	-0.248
Mof_H 	H 	0.5811	0.7239	0.2704	0.121
Mof_N 	N 	0.5421	0.7519	0.30903	-0.284
Mof_H 	H 	0.5708	0.7541	0.3088	0.132
Mof_N 	N 	0.5441	0.8557	0.3909	-0.26
Mof_H 	H 	0.529	0.8668	0.4058	0.129
Mof_N 	N 	0.5987	0.9001	0.4077	-0.238
Mof_H 	H 	0.5796	0.9058	0.4219	0.122
Mof_C 	C 	0.27881	0.8833	0.45842	0.438
Mof_C 	C 	0.1875	0.8203	0.37633	0.397
Mof_C 	C 	0.2736	0.8535	0.43178	-0.094
Mof_C 	C 	0.2332	0.8486	0.41839	0.036
Mof_H 	H 	0.2083	0.8627	0.4266	0.039
Mof_C 	C 	0.2292	0.8227	0.39245	-0.093
Mof_C 	C 	0.2648	0.8037	0.38052	-0.05
Mof_H 	H 	0.2626	0.7883	0.3622	0.061
Mof_C 	C 	0.3072	0.8069	0.39577	0.103
Mof_C 	C 	0.3098	0.8322	0.42128	-0.056
Mof_H 	H 	0.3368	0.8348	0.4316	0.082
Mof_C 	C 	0.4572	0.6805	0.17993	0.415
Mof_C 	C 	0.6157	0.6441	0.17908	0.404
Mof_C 	C 	0.5003	0.6799	0.19525	-0.086
Mof_C 	C 	0.5361	0.6605	0.18163	0.023
Mof_H 	H 	0.5331	0.6462	0.1629	0.042
Mof_C 	C 	0.5773	0.6623	0.19616	-0.077
Mof_C 	C 	0.5822	0.6799	0.22301	-0.066
Mof_H 	H 	0.6099	0.6793	0.2325	0.065
Mof_C 	C 	0.5467	0.6992	0.2373	0.109
Mof_C 	C 	0.5052	0.6994	0.2232	-0.061
Mof_H 	H 	0.4809	0.7127	0.2327	0.088
Mof_C 	C 	0.7544	0.9149	0.37882	0.397
Mof_C 	C 	0.6912	0.0062	0.4595	0.418
Mof_C 	C 	0.7161	0.9271	0.39751	-0.085
Mof_C 	C 	0.7209	0.9576	0.4208	0.031
Mof_H 	H 	0.7491	0.9687	0.4256	0.039
Mof_C 	C 	0.6854	0.9711	0.43625	-0.091
Mof_C 	C 	0.6447	0.9543	0.4302	-0.056
Mof_H 	H 	0.6199	0.9639	0.4412	0.061
Mof_C 	C 	0.6401	0.9233	0.4079	0.098
Mof_C 	C 	0.6771	0.9092	0.3914	-0.056
Mof_H 	H 	0.6743	0.8876	0.3763	0.087
Mof_C 	C 	0.3843	0.8008	0.3856	0.306
Mof_C 	C 	0.524	0.729	0.2872	0.322
Mof_C 	C 	0.5876	0.8696	0.3863	0.296
Mof_C 	C 	0.4571	0.7871	0.36276	0.234
Mof_C 	C 	0.4757	0.7639	0.33868	-0.282
Mof_H 	H 	0.4593	0.7434	0.3274	0.147
Mof_C 	C 	0.5203	0.7729	0.33228	0.26
Mof_C 	C 	0.545	0.8023	0.34815	-0.295
Mof_H 	H 	0.5748	0.8076	0.3433	0.153
Mof_C 	C 	0.5243	0.8245	0.372	0.239
Mof_C 	C 	0.4795	0.8181	0.3806	-0.268
Mof_H 	H 	0.4662	0.8333	0.3967	0.144
Mof_Zn	Zn	0.3483	0.40463	0.87184	1.2
Mof_Zn	Zn	0.28925	0.36651	0.82602	1.199
Mof_O 	O 	0.81593	0.38884	0.96826	-0.497
Mof_O 	O 	0.74531	0.39962	0.96838	-0.493
Mof_O 	O 	0.65485	0.33635	0.88959	-0.48
Mof_O 	O 	0.68644	0.29863	0.85269	-0.477
Mof_O 	O 	0.92784	0.20457	0.69015	-0.481
Mof_O 	O 	0.95376	0.15551	0.65842	-0.491
Mof_O 	O 	0.10899	0.12562	0.65538	-0.499
Mof_O 	O 	0.15185	0.14749	0.69269	-0.473
Mof_O 	O 	0.24675	0.39029	0.85695	-0.474
Mof_O 	O 	0.29151	0.4257	0.88804	-0.488
Mof_O 	O 	0.22849	0.51251	0.96897	-0.497
Mof_O 	O 	0.15725	0.52379	0.96928	-0.476
Mof_O 	O 	0.8959	0.332	0.9002	-0.266
Mof_O 	O 	0.9851	0.2256	0.78249	-0.268
Mof_O 	O 	0.1124	0.3496	0.8706	-0.267
Mof_N 	N 	0.843	0.2861	0.88207	-0.249
Mof_H 	H 	0.8384	0.263	0.8709	0.126
Mof_N 	N 	0.912	0.2761	0.8677	-0.261
Mof_H 	H 	0.9014	0.2526	0.8589	0.128
Mof_N 	N 	0.0537	0.2183	0.76591	-0.248
Mof_H 	H 	0.0811	0.2239	0.7704	0.121
Mof_N 	N 	0.0421	0.2519	0.80903	-0.284
Mof_H 	H 	0.0708	0.2541	0.8088	0.132
Mof_N 	N 	0.0441	0.3557	0.8909	-0.26
Mof_H 	H 	0.029	0.3668	0.9058	0.129
Mof_N 	N 	0.0987	0.4001	0.9077	-0.238
Mof_H 	H 	0.0796	0.4058	0.9219	0.122
Mof_C 	C 	0.77881	0.3833	0.95842	0.437
Mof_C 	C 	0.6875	0.3203	0.87633	0.397
Mof_C 	C 	0.7736	0.3535	0.93178	-0.093
Mof_C 	C 	0.7332	0.3486	0.91839	0.035
Mof_H 	H 	0.7083	0.3627	0.9266	0.039
Mof_C 	C 	0.7292	0.3227	0.89245	-0.092
Mof_C 	C 	0.7648	0.3037	0.88052	-0.051
Mof_H 	H 	0.7626	0.2883	0.8622	0.061
Mof_C 	C 	0.8072	0.3069	0.89577	0.103
Mof_C 	C 	0.8098	0.3322	0.92128	-0.057
Mof_H 	H 	0.8368	0.3348	0.9316	0.083
Mof_C 	C 	0.9572	0.1805	0.67993	0.415
Mof_C 	C 	0.1157	0.1441	0.67908	0.404
Mof_C 	C 	0.0003	0.1799	0.69525	-0.086
Mof_C 	C 	0.0361	0.1605	0.68163	0.023
Mof_H 	H 	0.0331	0.1462	0.6629	0.042
Mof_C 	C 	0.0773	0.1623	0.69616	-0.077
Mof_C 	C 	0.0822	0.1799	0.72301	-0.066
Mof_H 	H 	0.1099	0.1793	0.7325	0.065
Mof_C 	C 	0.0467	0.1992	0.7373	0.109
Mof_C 	C 	0.0052	0.1994	0.7232	-0.061
Mof_H 	H 	0.9809	0.2127	0.7327	0.088
Mof_C 	C 	0.2544	0.4149	0.87882	0.397
Mof_C 	C 	0.1912	0.5062	0.9595	0.417
Mof_C 	C 	0.2161	0.4271	0.89751	-0.084
Mof_C 	C 	0.2209	0.4576	0.9208	0.031
Mof_H 	H 	0.2491	0.4687	0.9256	0.039
Mof_C 	C 	0.1854	0.4711	0.93625	-0.09
Mof_C 	C 	0.1447	0.4543	0.9302	-0.056
Mof_H 	H 	0.1199	0.4639	0.9412	0.062
Mof_C 	C 	0.1401	0.4233	0.9079	0.099
Mof_C 	C 	0.1771	0.4092	0.8914	-0.056
Mof_H 	H 	0.1743	0.3876	0.8763	0.087
Mof_C 	C 	0.8843	0.3008	0.8856	0.306
Mof_C 	C 	0.024	0.229	0.7872	0.322
Mof_C 	C 	0.0876	0.3696	0.8863	0.296
Mof_C 	C 	0.9571	0.2871	0.86276	0.235
Mof_C 	C 	0.9757	0.2639	0.83868	-0.282
Mof_H 	H 	0.9593	0.2434	0.8274	0.147
Mof_C 	C 	0.0203	0.2729	0.83228	0.26
Mof_C 	C 	0.045	0.3023	0.84815	-0.295
Mof_H 	H 	0.0748	0.3076	0.8433	0.153
Mof_C 	C 	0.0243	0.3245	0.872	0.239
Mof_C 	C 	0.9795	0.3181	0.8806	-0.268
Mof_H 	H 	0.9662	0.3333	0.8967	0.144
Mof_Zn	Zn	0.1517	0.09537	0.37184	1.2
Mof_Zn	Zn	0.21075	0.13349	0.32602	1.199
Mof_O 	O 	0.68407	0.11116	0.46826	-0.499
Mof_O 	O 	0.75469	0.10038	0.46838	-0.496
Mof_O 	O 	0.84515	0.16365	0.38959	-0.48
Mof_O 	O 	0.81356	0.20137	0.35269	-0.477
Mof_O 	O 	0.57216	0.29543	0.19015	-0.481
Mof_O 	O 	0.54624	0.34449	0.15842	-0.491
Mof_O 	O 	0.39101	0.37438	0.15538	-0.499
Mof_O 	O 	0.34815	0.35251	0.19269	-0.473
Mof_O 	O 	0.25325	0.10971	0.35695	-0.474
Mof_O 	O 	0.20849	0.0743	0.38804	-0.488
Mof_O 	O 	0.27151	0.98749	0.46897	-0.499
Mof_O 	O 	0.34275	0.97621	0.46928	-0.478
Mof_O 	O 	0.6041	0.168	0.4002	-0.267
Mof_O 	O 	0.5149	0.2744	0.28249	-0.268
Mof_O 	O 	0.3876	0.1504	0.3706	-0.267
Mof_N 	N 	0.657	0.2139	0.38207	-0.249
Mof_H 	H 	0.6616	0.237	0.3709	0.126
Mof_N 	N 	0.588	0.2239	0.3677	-0.261
Mof_H 	H 	0.5986	0.2474	0.3589	0.128
Mof_N 	N 	0.4463	0.2817	0.26591	-0.248
Mof_H 	H 	0.4189	0.2761	0.2704	0.121
Mof_N 	N 	0.4579	0.2481	0.30903	-0.284
Mof_H 	H 	0.4292	0.2459	0.3088	0.132
Mof_N 	N 	0.4559	0.1443	0.3909	-0.26
Mof_H 	H 	0.471	0.1332	0.4058	0.129
Mof_N 	N 	0.4013	0.0999	0.4077	-0.238
Mof_H 	H 	0.4204	0.0942	0.4219	0.122
Mof_C 	C 	0.72119	0.1167	0.45842	0.438
Mof_C 	C 	0.8125	0.1797	0.37633	0.397
Mof_C 	C 	0.7264	0.1465	0.43178	-0.094
Mof_C 	C 	0.7668	0.1514	0.41839	0.036
Mof_H 	H 	0.7917	0.1373	0.4266	0.039
Mof_C 	C 	0.7708	0.1773	0.39245	-0.093
Mof_C 	C 	0.7352	0.1963	0.38052	-0.05
Mof_H 	H 	0.7374	0.2117	0.3622	0.061
Mof_C 	C 	0.6928	0.1931	0.39577	0.103
Mof_C 	C 	0.6902	0.1678	0.42128	-0.056
Mof_H 	H 	0.6632	0.1652	0.4316	0.082
Mof_C 	C 	0.5428	0.3195	0.17993	0.415
Mof_C 	C 	0.3843	0.3559	0.17908	0.404
Mof_C 	C 	0.4997	0.3201	0.19525	-0.086
Mof_C 	C 	0.4639	0.3395	0.18163	0.023
Mof_H 	H 	0.4669	0.3538	0.1629	0.042
Mof_C 	C 	0.4227	0.3377	0.19616	-0.077
Mof_C 	C 	0.4178	0.3201	0.22301	-0.066
Mof_H 	H 	0.3901	0.3207	0.2325	0.065
Mof_C 	C 	0.4533	0.3008	0.2373	0.109
Mof_C 	C 	0.4948	0.3006	0.2232	-0.061
Mof_H 	H 	0.5191	0.2873	0.2327	0.088
Mof_C 	C 	0.2456	0.0851	0.37882	0.397
Mof_C 	C 	0.3088	0.9938	0.4595	0.418
Mof_C 	C 	0.2839	0.0729	0.39751	-0.085
Mof_C 	C 	0.2791	0.0424	0.4208	0.031
Mof_H 	H 	0.2509	0.0313	0.4256	0.039
Mof_C 	C 	0.3146	0.0289	0.43625	-0.091
Mof_C 	C 	0.3553	0.0457	0.4302	-0.056
Mof_H 	H 	0.3801	0.0361	0.4412	0.061
Mof_C 	C 	0.3599	0.0767	0.4079	0.098
Mof_C 	C 	0.3229	0.0908	0.3914	-0.056
Mof_H 	H 	0.3257	0.1124	0.3763	0.087
Mof_C 	C 	0.6157	0.1992	0.3856	0.306
Mof_C 	C 	0.476	0.271	0.2872	0.322
Mof_C 	C 	0.4124	0.1304	0.3863	0.296
Mof_C 	C 	0.5429	0.2129	0.36276	0.234
Mof_C 	C 	0.5243	0.2361	0.33868	-0.282
Mof_H 	H 	0.5407	0.2566	0.3274	0.147
Mof_C 	C 	0.4797	0.2271	0.33228	0.26
Mof_C 	C 	0.455	0.1977	0.34815	-0.295
Mof_H 	H 	0.4252	0.1924	0.3433	0.153
Mof_C 	C 	0.4757	0.1755	0.372	0.239
Mof_C 	C 	0.5205	0.1819	0.3806	-0.268
Mof_H 	H 	0.5338	0.1667	0.3967	0.144
Mof_Zn	Zn	0.6517	0.59537	0.87184	1.2
Mof_Zn	Zn	0.71075	0.63349	0.82602	1.199
Mof_O 	O 	0.18407	0.61116	0.96826	-0.497
Mof_O 	O 	0.25469	0.60038	0.96838	-0.493
Mof_O 	O 	0.34515	0.66365	0.88959	-0.48
Mof_O 	O 	0.31356	0.70137	0.85269	-0.477
Mof_O 	O 	0.07216	0.79543	0.69015	-0.481
Mof_O 	O 	0.04624	0.84449	0.65842	-0.491
Mof_O 	O 	0.89101	0.87438	0.65538	-0.499
Mof_O 	O 	0.84815	0.85251	0.69269	-0.473
Mof_O 	O 	0.75325	0.60971	0.85695	-0.474
Mof_O 	O 	0.70849	0.5743	0.88804	-0.488
Mof_O 	O 	0.77151	0.48749	0.96897	-0.497
Mof_O 	O 	0.84275	0.47621	0.96928	-0.476
Mof_O 	O 	0.1041	0.668	0.9002	-0.266
Mof_O 	O 	0.0149	0.7744	0.78249	-0.268
Mof_O 	O 	0.8876	0.6504	0.8706	-0.267
Mof_N 	N 	0.157	0.7139	0.88207	-0.249
Mof_H 	H 	0.1616	0.737	0.8709	0.126
Mof_N 	N 	0.088	0.7239	0.8677	-0.261
Mof_H 	H 	0.0986	0.7474	0.8589	0.128
Mof_N 	N 	0.9463	0.7817	0.76591	-0.248
Mof_H 	H 	0.9189	0.7761	0.7704	0.121
Mof_N 	N 	0.9579	0.7481	0.80903	-0.284
Mof_H 	H 	0.9292	0.7459	0.8088	0.132
Mof_N 	N 	0.9559	0.6443	0.8909	-0.26
Mof_H 	H 	0.971	0.6332	0.9058	0.129
Mof_N 	N 	0.9013	0.5999	0.9077	-0.238
Mof_H 	H 	0.9204	0.5942	0.9219	0.122
Mof_C 	C 	0.22119	0.6167	0.95842	0.437
Mof_C 	C 	0.3125	0.6797	0.87633	0.397
Mof_C 	C 	0.2264	0.6465	0.93178	-0.093
Mof_C 	C 	0.2668	0.6514	0.91839	0.035
Mof_H 	H 	0.2917	0.6373	0.9266	0.039
Mof_C 	C 	0.2708	0.6773	0.89245	-0.092
Mof_C 	C 	0.2352	0.6963	0.88052	-0.051
Mof_H 	H 	0.2374	0.7117	0.8622	0.061
Mof_C 	C 	0.1928	0.6931	0.89577	0.103
Mof_C 	C 	0.1902	0.6678	0.92128	-0.057
Mof_H 	H 	0.1632	0.6652	0.9316	0.083
Mof_C 	C 	0.0428	0.8195	0.67993	0.415
Mof_C 	C 	0.8843	0.8559	0.67908	0.404
Mof_C 	C 	0.9997	0.8201	0.69525	-0.086
Mof_C 	C 	0.9639	0.8395	0.68163	0.023
Mof_H 	H 	0.9669	0.8538	0.6629	0.042
Mof_C 	C 	0.9227	0.8377	0.69616	-0.077
Mof_C 	C 	0.9178	0.8201	0.72301	-0.066
Mof_H 	H 	0.8901	0.8207	0.7325	0.065
Mof_C 	C 	0.9533	0.8008	0.7373	0.109
Mof_C 	C 	0.9948	0.8006	0.7232	-0.061
Mof_H 	H 	0.0191	0.7873	0.7327	0.088
Mof_C 	C 	0.7456	0.5851	0.87882	0.397
Mof_C 	C 	0.8088	0.4938	0.9595	0.417
Mof_C 	C 	0.7839	0.5729	0.89751	-0.084
Mof_C 	C 	0.7791	0.5424	0.9208	0.031
Mof_H 	H 	0.7509	0.5313	0.9256	0.039
Mof_C 	C 	0.8146	0.5289	0.93625	-0.09
Mof_C 	C 	0.8553	0.5457	0.9302	-0.056
Mof_H 	H 	0.8801	0.5361	0.9412	0.062
Mof_C 	C 	0.8599	0.5767	0.9079	0.099
Mof_C 	C 	0.8229	0.5908	0.8914	-0.056
Mof_H 	H 	0.8257	0.6124	0.8763	0.087
Mof_C 	C 	0.1157	0.6992	0.8856	0.306
Mof_C 	C 	0.976	0.771	0.7872	0.322
Mof_C 	C 	0.9124	0.6304	0.8863	0.296
Mof_C 	C 	0.0429	0.7129	0.86276	0.235
Mof_C 	C 	0.0243	0.7361	0.83868	-0.282
Mof_H 	H 	0.0407	0.7566	0.8274	0.147
Mof_C 	C 	0.9797	0.7271	0.83228	0.26
Mof_C 	C 	0.955	0.6977	0.84815	-0.295
Mof_H 	H 	0.9252	0.6924	0.8433	0.153
Mof_C 	C 	0.9757	0.6755	0.872	0.239
Mof_C 	C 	0.0205	0.6819	0.8806	-0.268
Mof_H 	H 	0.0338	0.6667	0.8967	0.144
Mof_Zn	Zn	0.07162	0.34182	0.5	1.204
Mof_Zn	Zn	0.05326	0.24633	0.5	1.201
Mof_Zn	Zn	0.57162	0.84182	-0	1.202
Mof_Zn	Zn	0.55326	0.74633	-0	1.199
Mof_Zn	Zn	0.92838	0.65818	0.5	1.204
Mof_Zn	Zn	0.94674	0.75367	0.5	1.201
Mof_Zn	Zn	0.42838	0.15818	-0	1.202
Mof_Zn	Zn	0.44674	0.25367	-0	1.199
Mof_Zn	Zn	0.65818	0.07162	0.5	1.204
Mof_Zn	Zn	0.75367	0.05326	0.5	1.201
Mof_Zn	Zn	0.15818	0.57162	-0	1.202
Mof_Zn	Zn	0.25367	0.55326	-0	1.199
Mof_Zn	Zn	0.34182	0.92838	0.5	1.204
Mof_Zn	Zn	0.24633	0.94674	0.5	1.201
Mof_Zn	Zn	0.84182	0.42838	-0	1.202
Mof_Zn	Zn	0.74633	0.44674	-0	1.199
_end
