data_functionalizedCrystal
_audit_creation_method	'EQeq! by Chris Wilmer'
_symmetry_space_group_name_H-M	'P1'
_symmetry_Int_Tables_number	1
_symmetry_cell_setting	triclinic
loop_
_symmetry_equiv_pos_as_xyz
  x,y,z
_cell_length_a	35.963
_cell_length_b	35.963
_cell_length_c	31.9
_cell_angle_alpha	90
_cell_angle_beta	90
_cell_angle_gamma	90
loop_
_atom_site_label
_atom_site_type_symbol
_atom_site_fract_x
_atom_site_fract_y
_atom_site_fract_z
_atom_site_charge
Mof_O 	O 	0.28726	0.15382	0.19726	-0.527
Mof_O 	O 	0.29765	0.10994	0.2446	-0.314
Mof_O 	O 	0.25007	0.12244	0.05283	-0.45
Mof_O 	O 	0.21087	0.07532	0.04879	-0.411
Mof_O 	O 	0.21085	0.76748	0.18331	-0.544
Mof_O 	O 	0.24478	0.8027	0.2255	-0.618
Mof_O 	O 	0.15687	0.82693	0.05479	-0.566
Mof_O 	O 	0.1621	0.88788	0.0472	-0.577
Mof_O 	O 	0.0271	0.1021	0.9616	-0.174
Mof_N 	N 	0.2767	0.97444	0.2002	-0.081
Mof_N 	N 	0.2676	0.93792	0.19723	-0.188
Mof_H 	H 	0.2752	0.9208	0.214	0.16
Mof_N 	N 	0.2389	0.9643	0.1444	-0.146
Mof_C 	C 	0.28755	0.12037	0.2089	0.413
Mof_C 	C 	0.27516	0.09215	0.17733	-0.116
Mof_C 	C 	0.2634	0.10414	0.1382	0.045
Mof_H 	H 	0.2649	0.1292	0.1314	0.039
Mof_C 	C 	0.2494	0.07915	0.109	-0.084
Mof_C 	C 	0.2477	0.04139	0.1195	-0.004
Mof_H 	H 	0.2378	0.0245	0.1004	0.05
Mof_C 	C 	0.2605	0.02899	0.1574	-0.029
Mof_C 	C 	0.2742	0.05456	0.18679	0.008
Mof_H 	H 	0.2827	0.0463	0.2127	0.054
Mof_C 	C 	0.259	0.98881	0.1675	0.12
Mof_C 	C 	0.245	0.93238	0.1643	0.16
Mof_C 	C 	0.2364	0.09261	0.0673	0.313
Mof_C 	C 	0.22539	0.79764	0.19331	0.537
Mof_C 	C 	0.21909	0.83094	0.16566	-0.222
Mof_C 	C 	0.2348	0.86501	0.1772	0.096
Mof_H 	H 	0.2493	0.8667	0.2012	0.002
Mof_C 	C 	0.2286	0.89612	0.1526	-0.117
Mof_C 	C 	0.2072	0.89389	0.117	0.099
Mof_H 	H 	0.2031	0.915	0.1009	0.007
Mof_C 	C 	0.1918	0.86025	0.105	-0.223
Mof_C 	C 	0.19735	0.82866	0.1298	0.144
Mof_H 	H 	0.1865	0.8062	0.1223	-0.004
Mof_C 	C 	0.1684	0.8583	0.0655	0.538
Mof_O 	O 	0.0347	0.128	0.9432	-0.196
Mof_O 	O 	0.78726	0.65382	0.69726	-0.526
Mof_O 	O 	0.79765	0.60994	0.7446	-0.312
Mof_O 	O 	0.75007	0.62244	0.55283	-0.452
Mof_O 	O 	0.71087	0.57532	0.54879	-0.413
Mof_O 	O 	0.71085	0.26748	0.68331	-0.544
Mof_O 	O 	0.74478	0.3027	0.7255	-0.619
Mof_O 	O 	0.65687	0.32693	0.55479	-0.586
Mof_O 	O 	0.6621	0.38788	0.5472	-0.593
Mof_O 	O 	0.5271	0.6021	0.4616	-0.226
Mof_N 	N 	0.7767	0.47444	0.7002	-0.081
Mof_N 	N 	0.7676	0.43792	0.69723	-0.189
Mof_H 	H 	0.7752	0.4208	0.714	0.16
Mof_N 	N 	0.7389	0.4643	0.6444	-0.145
Mof_C 	C 	0.78755	0.62037	0.7089	0.412
Mof_C 	C 	0.77516	0.59215	0.67733	-0.113
Mof_C 	C 	0.7634	0.60414	0.6382	0.041
Mof_H 	H 	0.7649	0.6292	0.6314	0.042
Mof_C 	C 	0.7494	0.57915	0.609	-0.077
Mof_C 	C 	0.7477	0.54139	0.6195	-0.007
Mof_H 	H 	0.7378	0.5245	0.6004	0.057
Mof_C 	C 	0.7605	0.52899	0.6574	-0.024
Mof_C 	C 	0.7742	0.55456	0.68679	0.006
Mof_H 	H 	0.7827	0.5463	0.7127	0.056
Mof_C 	C 	0.759	0.48881	0.6675	0.121
Mof_C 	C 	0.745	0.43238	0.6643	0.163
Mof_C 	C 	0.7364	0.59261	0.5673	0.312
Mof_C 	C 	0.72539	0.29764	0.69331	0.539
Mof_C 	C 	0.71909	0.33094	0.66566	-0.223
Mof_C 	C 	0.7348	0.36501	0.6772	0.1
Mof_H 	H 	0.7493	0.3667	0.7012	0.002
Mof_C 	C 	0.7286	0.39612	0.6526	-0.118
Mof_C 	C 	0.7072	0.39389	0.617	0.105
Mof_H 	H 	0.7031	0.415	0.6009	0.008
Mof_C 	C 	0.6918	0.36025	0.605	-0.228
Mof_C 	C 	0.69735	0.32866	0.6298	0.15
Mof_H 	H 	0.6865	0.3062	0.6223	-0.005
Mof_C 	C 	0.6684	0.3583	0.5655	0.557
Mof_O 	O 	0.5347	0.628	0.4432	-0.225
Mof_O 	O 	0.71274	0.84618	0.19726	-0.528
Mof_O 	O 	0.70235	0.89006	0.2446	-0.315
Mof_O 	O 	0.74993	0.87756	0.05283	-0.451
Mof_O 	O 	0.78913	0.92468	0.04879	-0.412
Mof_O 	O 	0.78915	0.23252	0.18331	-0.545
Mof_O 	O 	0.75522	0.1973	0.2255	-0.619
Mof_O 	O 	0.84313	0.17307	0.05479	-0.567
Mof_O 	O 	0.8379	0.11212	0.0472	-0.578
Mof_O 	O 	0.9729	0.8979	0.9616	-0.175
Mof_N 	N 	0.7233	0.02556	0.2002	-0.082
Mof_N 	N 	0.7324	0.06208	0.19723	-0.189
Mof_H 	H 	0.7248	0.0792	0.214	0.159
Mof_N 	N 	0.7611	0.0357	0.1444	-0.147
Mof_C 	C 	0.71245	0.87963	0.2089	0.412
Mof_C 	C 	0.72484	0.90785	0.17733	-0.117
Mof_C 	C 	0.7366	0.89586	0.1382	0.044
Mof_H 	H 	0.7351	0.8708	0.1314	0.039
Mof_C 	C 	0.7506	0.92085	0.109	-0.084
Mof_C 	C 	0.7523	0.95861	0.1195	-0.004
Mof_H 	H 	0.7622	0.9755	0.1004	0.05
Mof_C 	C 	0.7395	0.97101	0.1574	-0.029
Mof_C 	C 	0.7258	0.94544	0.18679	0.008
Mof_H 	H 	0.7173	0.9537	0.2127	0.054
Mof_C 	C 	0.741	0.01119	0.1675	0.12
Mof_C 	C 	0.755	0.06762	0.1643	0.16
Mof_C 	C 	0.7636	0.90739	0.0673	0.313
Mof_C 	C 	0.77461	0.20236	0.19331	0.537
Mof_C 	C 	0.78091	0.16906	0.16566	-0.222
Mof_C 	C 	0.7652	0.13499	0.1772	0.096
Mof_H 	H 	0.7507	0.1333	0.2012	0.002
Mof_C 	C 	0.7714	0.10388	0.1526	-0.117
Mof_C 	C 	0.7928	0.10611	0.117	0.099
Mof_H 	H 	0.7969	0.085	0.1009	0.007
Mof_C 	C 	0.8082	0.13975	0.105	-0.223
Mof_C 	C 	0.80265	0.17134	0.1298	0.144
Mof_H 	H 	0.8135	0.1938	0.1223	-0.004
Mof_C 	C 	0.8316	0.1417	0.0655	0.538
Mof_O 	O 	0.9653	0.872	0.9432	-0.196
Mof_O 	O 	0.21274	0.34618	0.69726	-0.526
Mof_O 	O 	0.20235	0.39006	0.7446	-0.312
Mof_O 	O 	0.24993	0.37756	0.55283	-0.452
Mof_O 	O 	0.28913	0.42468	0.54879	-0.413
Mof_O 	O 	0.28915	0.73252	0.68331	-0.544
Mof_O 	O 	0.25522	0.6973	0.7255	-0.619
Mof_O 	O 	0.34313	0.67307	0.55479	-0.586
Mof_O 	O 	0.3379	0.61212	0.5472	-0.593
Mof_O 	O 	0.4729	0.3979	0.4616	-0.226
Mof_N 	N 	0.2233	0.52556	0.7002	-0.081
Mof_N 	N 	0.2324	0.56208	0.69723	-0.189
Mof_H 	H 	0.2248	0.5792	0.714	0.16
Mof_N 	N 	0.2611	0.5357	0.6444	-0.145
Mof_C 	C 	0.21245	0.37963	0.7089	0.412
Mof_C 	C 	0.22484	0.40785	0.67733	-0.113
Mof_C 	C 	0.2366	0.39586	0.6382	0.041
Mof_H 	H 	0.2351	0.3708	0.6314	0.042
Mof_C 	C 	0.2506	0.42085	0.609	-0.077
Mof_C 	C 	0.2523	0.45861	0.6195	-0.007
Mof_H 	H 	0.2622	0.4755	0.6004	0.057
Mof_C 	C 	0.2395	0.47101	0.6574	-0.024
Mof_C 	C 	0.2258	0.44544	0.68679	0.006
Mof_H 	H 	0.2173	0.4537	0.7127	0.056
Mof_C 	C 	0.241	0.51119	0.6675	0.121
Mof_C 	C 	0.255	0.56762	0.6643	0.163
Mof_C 	C 	0.2636	0.40739	0.5673	0.312
Mof_C 	C 	0.27461	0.70236	0.69331	0.539
Mof_C 	C 	0.28091	0.66906	0.66566	-0.223
Mof_C 	C 	0.2652	0.63499	0.6772	0.1
Mof_H 	H 	0.2507	0.6333	0.7012	0.002
Mof_C 	C 	0.2714	0.60388	0.6526	-0.118
Mof_C 	C 	0.2928	0.60611	0.617	0.105
Mof_H 	H 	0.2969	0.585	0.6009	0.008
Mof_C 	C 	0.3082	0.63975	0.605	-0.228
Mof_C 	C 	0.30265	0.67134	0.6298	0.15
Mof_H 	H 	0.3135	0.6938	0.6223	-0.005
Mof_C 	C 	0.3316	0.6417	0.5655	0.557
Mof_O 	O 	0.4653	0.372	0.4432	-0.225
Mof_O 	O 	0.84618	0.28726	0.19726	-0.528
Mof_O 	O 	0.89006	0.29765	0.2446	-0.315
Mof_O 	O 	0.87756	0.25007	0.05283	-0.451
Mof_O 	O 	0.92468	0.21087	0.04879	-0.412
Mof_O 	O 	0.23252	0.21085	0.18331	-0.545
Mof_O 	O 	0.1973	0.24478	0.2255	-0.619
Mof_O 	O 	0.17307	0.15687	0.05479	-0.567
Mof_O 	O 	0.11212	0.1621	0.0472	-0.578
Mof_O 	O 	0.8979	0.0271	0.9616	-0.175
Mof_N 	N 	0.02556	0.2767	0.2002	-0.082
Mof_N 	N 	0.06208	0.2676	0.19723	-0.189
Mof_H 	H 	0.0792	0.2752	0.214	0.159
Mof_N 	N 	0.0357	0.2389	0.1444	-0.147
Mof_C 	C 	0.87963	0.28755	0.2089	0.412
Mof_C 	C 	0.90785	0.27516	0.17733	-0.117
Mof_C 	C 	0.89586	0.2634	0.1382	0.044
Mof_H 	H 	0.8708	0.2649	0.1314	0.039
Mof_C 	C 	0.92085	0.2494	0.109	-0.084
Mof_C 	C 	0.95861	0.2477	0.1195	-0.004
Mof_H 	H 	0.9755	0.2378	0.1004	0.05
Mof_C 	C 	0.97101	0.2605	0.1574	-0.029
Mof_C 	C 	0.94544	0.2742	0.18679	0.008
Mof_H 	H 	0.9537	0.2827	0.2127	0.054
Mof_C 	C 	0.01119	0.259	0.1675	0.12
Mof_C 	C 	0.06762	0.245	0.1643	0.16
Mof_C 	C 	0.90739	0.2364	0.0673	0.313
Mof_C 	C 	0.20236	0.22539	0.19331	0.537
Mof_C 	C 	0.16906	0.21909	0.16566	-0.222
Mof_C 	C 	0.13499	0.2348	0.1772	0.096
Mof_H 	H 	0.1333	0.2493	0.2012	0.002
Mof_C 	C 	0.10388	0.2286	0.1526	-0.117
Mof_C 	C 	0.10611	0.2072	0.117	0.099
Mof_H 	H 	0.085	0.2031	0.1009	0.007
Mof_C 	C 	0.13975	0.1918	0.105	-0.223
Mof_C 	C 	0.17134	0.19735	0.1298	0.144
Mof_H 	H 	0.1938	0.1865	0.1223	-0.004
Mof_C 	C 	0.1417	0.1684	0.0655	0.538
Mof_O 	O 	0.872	0.0347	0.9432	-0.196
Mof_O 	O 	0.34618	0.78726	0.69726	-0.526
Mof_O 	O 	0.39006	0.79765	0.7446	-0.312
Mof_O 	O 	0.37756	0.75007	0.55283	-0.452
Mof_O 	O 	0.42468	0.71087	0.54879	-0.413
Mof_O 	O 	0.73252	0.71085	0.68331	-0.544
Mof_O 	O 	0.6973	0.74478	0.7255	-0.619
Mof_O 	O 	0.67307	0.65687	0.55479	-0.586
Mof_O 	O 	0.61212	0.6621	0.5472	-0.593
Mof_O 	O 	0.3979	0.5271	0.4616	-0.226
Mof_N 	N 	0.52556	0.7767	0.7002	-0.081
Mof_N 	N 	0.56208	0.7676	0.69723	-0.189
Mof_H 	H 	0.5792	0.7752	0.714	0.16
Mof_N 	N 	0.5357	0.7389	0.6444	-0.145
Mof_C 	C 	0.37963	0.78755	0.7089	0.412
Mof_C 	C 	0.40785	0.77516	0.67733	-0.113
Mof_C 	C 	0.39586	0.7634	0.6382	0.041
Mof_H 	H 	0.3708	0.7649	0.6314	0.042
Mof_C 	C 	0.42085	0.7494	0.609	-0.077
Mof_C 	C 	0.45861	0.7477	0.6195	-0.007
Mof_H 	H 	0.4755	0.7378	0.6004	0.057
Mof_C 	C 	0.47101	0.7605	0.6574	-0.024
Mof_C 	C 	0.44544	0.7742	0.68679	0.006
Mof_H 	H 	0.4537	0.7827	0.7127	0.056
Mof_C 	C 	0.51119	0.759	0.6675	0.121
Mof_C 	C 	0.56762	0.745	0.6643	0.163
Mof_C 	C 	0.40739	0.7364	0.5673	0.312
Mof_C 	C 	0.70236	0.72539	0.69331	0.539
Mof_C 	C 	0.66906	0.71909	0.66566	-0.223
Mof_C 	C 	0.63499	0.7348	0.6772	0.1
Mof_H 	H 	0.6333	0.7493	0.7012	0.002
Mof_C 	C 	0.60388	0.7286	0.6526	-0.118
Mof_C 	C 	0.60611	0.7072	0.617	0.105
Mof_H 	H 	0.585	0.7031	0.6009	0.008
Mof_C 	C 	0.63975	0.6918	0.605	-0.228
Mof_C 	C 	0.67134	0.69735	0.6298	0.15
Mof_H 	H 	0.6938	0.6865	0.6223	-0.005
Mof_C 	C 	0.6417	0.6684	0.5655	0.557
Mof_O 	O 	0.372	0.5347	0.4432	-0.225
Mof_O 	O 	0.15382	0.71274	0.19726	-0.528
Mof_O 	O 	0.10994	0.70235	0.2446	-0.315
Mof_O 	O 	0.12244	0.74993	0.05283	-0.451
Mof_O 	O 	0.07532	0.78913	0.04879	-0.412
Mof_O 	O 	0.76748	0.78915	0.18331	-0.545
Mof_O 	O 	0.8027	0.75522	0.2255	-0.619
Mof_O 	O 	0.82693	0.84313	0.05479	-0.567
Mof_O 	O 	0.88788	0.8379	0.0472	-0.578
Mof_O 	O 	0.1021	0.9729	0.9616	-0.175
Mof_N 	N 	0.97444	0.7233	0.2002	-0.082
Mof_N 	N 	0.93792	0.7324	0.19723	-0.189
Mof_H 	H 	0.9208	0.7248	0.214	0.159
Mof_N 	N 	0.9643	0.7611	0.1444	-0.147
Mof_C 	C 	0.12037	0.71245	0.2089	0.412
Mof_C 	C 	0.09215	0.72484	0.17733	-0.117
Mof_C 	C 	0.10414	0.7366	0.1382	0.044
Mof_H 	H 	0.1292	0.7351	0.1314	0.039
Mof_C 	C 	0.07915	0.7506	0.109	-0.084
Mof_C 	C 	0.04139	0.7523	0.1195	-0.004
Mof_H 	H 	0.0245	0.7622	0.1004	0.05
Mof_C 	C 	0.02899	0.7395	0.1574	-0.029
Mof_C 	C 	0.05456	0.7258	0.18679	0.008
Mof_H 	H 	0.0463	0.7173	0.2127	0.054
Mof_C 	C 	0.98881	0.741	0.1675	0.12
Mof_C 	C 	0.93238	0.755	0.1643	0.16
Mof_C 	C 	0.09261	0.7636	0.0673	0.313
Mof_C 	C 	0.79764	0.77461	0.19331	0.537
Mof_C 	C 	0.83094	0.78091	0.16566	-0.222
Mof_C 	C 	0.86501	0.7652	0.1772	0.096
Mof_H 	H 	0.8667	0.7507	0.2012	0.002
Mof_C 	C 	0.89612	0.7714	0.1526	-0.117
Mof_C 	C 	0.89389	0.7928	0.117	0.099
Mof_H 	H 	0.915	0.7969	0.1009	0.007
Mof_C 	C 	0.86025	0.8082	0.105	-0.223
Mof_C 	C 	0.82866	0.80265	0.1298	0.144
Mof_H 	H 	0.8062	0.8135	0.1223	-0.004
Mof_C 	C 	0.8583	0.8316	0.0655	0.538
Mof_O 	O 	0.128	0.9653	0.9432	-0.196
Mof_O 	O 	0.65382	0.21274	0.69726	-0.526
Mof_O 	O 	0.60994	0.20235	0.7446	-0.312
Mof_O 	O 	0.62244	0.24993	0.55283	-0.452
Mof_O 	O 	0.57532	0.28913	0.54879	-0.413
Mof_O 	O 	0.26748	0.28915	0.68331	-0.544
Mof_O 	O 	0.3027	0.25522	0.7255	-0.619
Mof_O 	O 	0.32693	0.34313	0.55479	-0.586
Mof_O 	O 	0.38788	0.3379	0.5472	-0.593
Mof_O 	O 	0.6021	0.4729	0.4616	-0.226
Mof_N 	N 	0.47444	0.2233	0.7002	-0.081
Mof_N 	N 	0.43792	0.2324	0.69723	-0.189
Mof_H 	H 	0.4208	0.2248	0.714	0.16
Mof_N 	N 	0.4643	0.2611	0.6444	-0.145
Mof_C 	C 	0.62037	0.21245	0.7089	0.412
Mof_C 	C 	0.59215	0.22484	0.67733	-0.113
Mof_C 	C 	0.60414	0.2366	0.6382	0.041
Mof_H 	H 	0.6292	0.2351	0.6314	0.042
Mof_C 	C 	0.57915	0.2506	0.609	-0.077
Mof_C 	C 	0.54139	0.2523	0.6195	-0.007
Mof_H 	H 	0.5245	0.2622	0.6004	0.057
Mof_C 	C 	0.52899	0.2395	0.6574	-0.024
Mof_C 	C 	0.55456	0.2258	0.68679	0.006
Mof_H 	H 	0.5463	0.2173	0.7127	0.056
Mof_C 	C 	0.48881	0.241	0.6675	0.121
Mof_C 	C 	0.43238	0.255	0.6643	0.163
Mof_C 	C 	0.59261	0.2636	0.5673	0.312
Mof_C 	C 	0.29764	0.27461	0.69331	0.539
Mof_C 	C 	0.33094	0.28091	0.66566	-0.223
Mof_C 	C 	0.36501	0.2652	0.6772	0.1
Mof_H 	H 	0.3667	0.2507	0.7012	0.002
Mof_C 	C 	0.39612	0.2714	0.6526	-0.118
Mof_C 	C 	0.39389	0.2928	0.617	0.105
Mof_H 	H 	0.415	0.2969	0.6009	0.008
Mof_C 	C 	0.36025	0.3082	0.605	-0.228
Mof_C 	C 	0.32866	0.30265	0.6298	0.15
Mof_H 	H 	0.3062	0.3135	0.6223	-0.005
Mof_C 	C 	0.3583	0.3316	0.5655	0.557
Mof_O 	O 	0.628	0.4653	0.4432	-0.225
Mof_O 	O 	0.71274	0.15382	0.30274	-0.527
Mof_O 	O 	0.70235	0.10994	0.2554	-0.316
Mof_O 	O 	0.74993	0.12244	0.44717	-0.452
Mof_O 	O 	0.78913	0.07532	0.45121	-0.413
Mof_O 	O 	0.78915	0.76748	0.31669	-0.544
Mof_O 	O 	0.75522	0.8027	0.2745	-0.619
Mof_O 	O 	0.84313	0.82693	0.44521	-0.586
Mof_O 	O 	0.8379	0.88788	0.4528	-0.593
Mof_O 	O 	0.9729	0.1021	0.5384	-0.226
Mof_N 	N 	0.7233	0.97444	0.2998	-0.081
Mof_N 	N 	0.7324	0.93792	0.30277	-0.189
Mof_H 	H 	0.7248	0.9208	0.286	0.159
Mof_N 	N 	0.7611	0.9643	0.3556	-0.145
Mof_C 	C 	0.71245	0.12037	0.2911	0.412
Mof_C 	C 	0.72484	0.09215	0.32267	-0.114
Mof_C 	C 	0.7366	0.10414	0.3618	0.042
Mof_H 	H 	0.7351	0.1292	0.3686	0.041
Mof_C 	C 	0.7506	0.07915	0.391	-0.077
Mof_C 	C 	0.7523	0.04139	0.3805	-0.006
Mof_H 	H 	0.7622	0.0245	0.3996	0.056
Mof_C 	C 	0.7395	0.02899	0.3426	-0.025
Mof_C 	C 	0.7258	0.05456	0.31321	0.007
Mof_H 	H 	0.7173	0.0463	0.2873	0.055
Mof_C 	C 	0.741	0.98881	0.3325	0.121
Mof_C 	C 	0.755	0.93238	0.3357	0.162
Mof_C 	C 	0.7636	0.09261	0.4327	0.313
Mof_C 	C 	0.77461	0.79764	0.30669	0.538
Mof_C 	C 	0.78091	0.83094	0.33434	-0.223
Mof_C 	C 	0.7652	0.86501	0.3228	0.099
Mof_H 	H 	0.7507	0.8667	0.2988	0.002
Mof_C 	C 	0.7714	0.89612	0.3474	-0.118
Mof_C 	C 	0.7928	0.89389	0.383	0.105
Mof_H 	H 	0.7969	0.915	0.3991	0.008
Mof_C 	C 	0.8082	0.86025	0.395	-0.227
Mof_C 	C 	0.80265	0.82866	0.3702	0.149
Mof_H 	H 	0.8135	0.8062	0.3777	-0.005
Mof_C 	C 	0.8316	0.8583	0.4345	0.557
Mof_O 	O 	0.9653	0.128	0.5568	-0.225
Mof_O 	O 	0.21274	0.65382	0.80274	-0.524
Mof_O 	O 	0.20235	0.60994	0.7554	-0.313
Mof_O 	O 	0.24993	0.62244	0.94717	-0.401
Mof_O 	O 	0.28913	0.57532	0.95121	-0.36
Mof_O 	O 	0.28915	0.26748	0.81669	-0.541
Mof_O 	O 	0.25522	0.3027	0.7745	-0.618
Mof_O 	O 	0.34313	0.32693	0.94521	-0.524
Mof_O 	O 	0.3379	0.38788	0.9528	-0.525
Mof_O 	O 	0.4729	0.6021	0.0384	-0.235
Mof_N 	N 	0.2233	0.47444	0.7998	-0.079
Mof_N 	N 	0.2324	0.43792	0.80277	-0.188
Mof_H 	H 	0.2248	0.4208	0.786	0.161
Mof_N 	N 	0.2611	0.4643	0.8556	-0.14
Mof_C 	C 	0.21245	0.62037	0.7911	0.411
Mof_C 	C 	0.22484	0.59215	0.82267	-0.107
Mof_C 	C 	0.2366	0.60414	0.8618	0.035
Mof_H 	H 	0.2351	0.6292	0.8686	0.048
Mof_C 	C 	0.2506	0.57915	0.891	-0.061
Mof_C 	C 	0.2523	0.54139	0.8805	-0.013
Mof_H 	H 	0.2622	0.5245	0.8996	0.068
Mof_C 	C 	0.2395	0.52899	0.8426	-0.016
Mof_C 	C 	0.2258	0.55456	0.81321	0.003
Mof_H 	H 	0.2173	0.5463	0.7873	0.058
Mof_C 	C 	0.241	0.48881	0.8325	0.123
Mof_C 	C 	0.255	0.43238	0.8357	0.163
Mof_C 	C 	0.2636	0.59261	0.9327	0.303
Mof_C 	C 	0.27461	0.29764	0.80669	0.536
Mof_C 	C 	0.28091	0.33094	0.83434	-0.212
Mof_C 	C 	0.2652	0.36501	0.8228	0.093
Mof_H 	H 	0.2507	0.3667	0.7988	0.005
Mof_C 	C 	0.2714	0.39612	0.8474	-0.107
Mof_C 	C 	0.2928	0.39389	0.883	0.093
Mof_H 	H 	0.2969	0.415	0.8991	0.021
Mof_C 	C 	0.3082	0.36025	0.895	-0.203
Mof_C 	C 	0.30265	0.32866	0.8702	0.139
Mof_H 	H 	0.3135	0.3062	0.8777	0.004
Mof_C 	C 	0.3316	0.3583	0.9345	0.531
Mof_O 	O 	0.4653	0.628	0.0568	-0.217
Mof_O 	O 	0.28726	0.84618	0.30274	-0.527
Mof_O 	O 	0.29765	0.89006	0.2554	-0.316
Mof_O 	O 	0.25007	0.87756	0.44717	-0.452
Mof_O 	O 	0.21087	0.92468	0.45121	-0.413
Mof_O 	O 	0.21085	0.23252	0.31669	-0.544
Mof_O 	O 	0.24478	0.1973	0.2745	-0.619
Mof_O 	O 	0.15687	0.17307	0.44521	-0.586
Mof_O 	O 	0.1621	0.11212	0.4528	-0.593
Mof_O 	O 	0.0271	0.8979	0.5384	-0.226
Mof_N 	N 	0.2767	0.02556	0.2998	-0.081
Mof_N 	N 	0.2676	0.06208	0.30277	-0.189
Mof_H 	H 	0.2752	0.0792	0.286	0.159
Mof_N 	N 	0.2389	0.0357	0.3556	-0.145
Mof_C 	C 	0.28755	0.87963	0.2911	0.412
Mof_C 	C 	0.27516	0.90785	0.32267	-0.114
Mof_C 	C 	0.2634	0.89586	0.3618	0.042
Mof_H 	H 	0.2649	0.8708	0.3686	0.041
Mof_C 	C 	0.2494	0.92085	0.391	-0.077
Mof_C 	C 	0.2477	0.95861	0.3805	-0.006
Mof_H 	H 	0.2378	0.9755	0.3996	0.056
Mof_C 	C 	0.2605	0.97101	0.3426	-0.025
Mof_C 	C 	0.2742	0.94544	0.31321	0.007
Mof_H 	H 	0.2827	0.9537	0.2873	0.055
Mof_C 	C 	0.259	0.01119	0.3325	0.121
Mof_C 	C 	0.245	0.06762	0.3357	0.162
Mof_C 	C 	0.2364	0.90739	0.4327	0.313
Mof_C 	C 	0.22539	0.20236	0.30669	0.538
Mof_C 	C 	0.21909	0.16906	0.33434	-0.223
Mof_C 	C 	0.2348	0.13499	0.3228	0.099
Mof_H 	H 	0.2493	0.1333	0.2988	0.002
Mof_C 	C 	0.2286	0.10388	0.3474	-0.118
Mof_C 	C 	0.2072	0.10611	0.383	0.105
Mof_H 	H 	0.2031	0.085	0.3991	0.008
Mof_C 	C 	0.1918	0.13975	0.395	-0.227
Mof_C 	C 	0.19735	0.17134	0.3702	0.149
Mof_H 	H 	0.1865	0.1938	0.3777	-0.005
Mof_C 	C 	0.1684	0.1417	0.4345	0.557
Mof_O 	O 	0.0347	0.872	0.5568	-0.225
Mof_O 	O 	0.78726	0.34618	0.80274	-0.524
Mof_O 	O 	0.79765	0.39006	0.7554	-0.313
Mof_O 	O 	0.75007	0.37756	0.94717	-0.401
Mof_O 	O 	0.71087	0.42468	0.95121	-0.36
Mof_O 	O 	0.71085	0.73252	0.81669	-0.541
Mof_O 	O 	0.74478	0.6973	0.7745	-0.618
Mof_O 	O 	0.65687	0.67307	0.94521	-0.524
Mof_O 	O 	0.6621	0.61212	0.9528	-0.525
Mof_O 	O 	0.5271	0.3979	0.0384	-0.235
Mof_N 	N 	0.7767	0.52556	0.7998	-0.079
Mof_N 	N 	0.7676	0.56208	0.80277	-0.188
Mof_H 	H 	0.7752	0.5792	0.786	0.161
Mof_N 	N 	0.7389	0.5357	0.8556	-0.14
Mof_C 	C 	0.78755	0.37963	0.7911	0.411
Mof_C 	C 	0.77516	0.40785	0.82267	-0.107
Mof_C 	C 	0.7634	0.39586	0.8618	0.035
Mof_H 	H 	0.7649	0.3708	0.8686	0.048
Mof_C 	C 	0.7494	0.42085	0.891	-0.061
Mof_C 	C 	0.7477	0.45861	0.8805	-0.013
Mof_H 	H 	0.7378	0.4755	0.8996	0.068
Mof_C 	C 	0.7605	0.47101	0.8426	-0.016
Mof_C 	C 	0.7742	0.44544	0.81321	0.003
Mof_H 	H 	0.7827	0.4537	0.7873	0.058
Mof_C 	C 	0.759	0.51119	0.8325	0.123
Mof_C 	C 	0.745	0.56762	0.8357	0.163
Mof_C 	C 	0.7364	0.40739	0.9327	0.303
Mof_C 	C 	0.72539	0.70236	0.80669	0.536
Mof_C 	C 	0.71909	0.66906	0.83434	-0.212
Mof_C 	C 	0.7348	0.63499	0.8228	0.093
Mof_H 	H 	0.7493	0.6333	0.7988	0.005
Mof_C 	C 	0.7286	0.60388	0.8474	-0.107
Mof_C 	C 	0.7072	0.60611	0.883	0.093
Mof_H 	H 	0.7031	0.585	0.8991	0.021
Mof_C 	C 	0.6918	0.63975	0.895	-0.203
Mof_C 	C 	0.69735	0.67134	0.8702	0.139
Mof_H 	H 	0.6865	0.6938	0.8777	0.004
Mof_C 	C 	0.6684	0.6417	0.9345	0.531
Mof_O 	O 	0.5347	0.372	0.0568	-0.217
Mof_O 	O 	0.15382	0.28726	0.30274	-0.527
Mof_O 	O 	0.10994	0.29765	0.2554	-0.316
Mof_O 	O 	0.12244	0.25007	0.44717	-0.452
Mof_O 	O 	0.07532	0.21087	0.45121	-0.413
Mof_O 	O 	0.76748	0.21085	0.31669	-0.544
Mof_O 	O 	0.8027	0.24478	0.2745	-0.619
Mof_O 	O 	0.82693	0.15687	0.44521	-0.586
Mof_O 	O 	0.88788	0.1621	0.4528	-0.593
Mof_O 	O 	0.1021	0.0271	0.5384	-0.226
Mof_N 	N 	0.97444	0.2767	0.2998	-0.081
Mof_N 	N 	0.93792	0.2676	0.30277	-0.189
Mof_H 	H 	0.9208	0.2752	0.286	0.159
Mof_N 	N 	0.9643	0.2389	0.3556	-0.145
Mof_C 	C 	0.12037	0.28755	0.2911	0.412
Mof_C 	C 	0.09215	0.27516	0.32267	-0.114
Mof_C 	C 	0.10414	0.2634	0.3618	0.042
Mof_H 	H 	0.1292	0.2649	0.3686	0.041
Mof_C 	C 	0.07915	0.2494	0.391	-0.077
Mof_C 	C 	0.04139	0.2477	0.3805	-0.006
Mof_H 	H 	0.0245	0.2378	0.3996	0.056
Mof_C 	C 	0.02899	0.2605	0.3426	-0.025
Mof_C 	C 	0.05456	0.2742	0.31321	0.007
Mof_H 	H 	0.0463	0.2827	0.2873	0.055
Mof_C 	C 	0.98881	0.259	0.3325	0.121
Mof_C 	C 	0.93238	0.245	0.3357	0.162
Mof_C 	C 	0.09261	0.2364	0.4327	0.313
Mof_C 	C 	0.79764	0.22539	0.30669	0.538
Mof_C 	C 	0.83094	0.21909	0.33434	-0.223
Mof_C 	C 	0.86501	0.2348	0.3228	0.099
Mof_H 	H 	0.8667	0.2493	0.2988	0.002
Mof_C 	C 	0.89612	0.2286	0.3474	-0.118
Mof_C 	C 	0.89389	0.2072	0.383	0.105
Mof_H 	H 	0.915	0.2031	0.3991	0.008
Mof_C 	C 	0.86025	0.1918	0.395	-0.227
Mof_C 	C 	0.82866	0.19735	0.3702	0.149
Mof_H 	H 	0.8062	0.1865	0.3777	-0.005
Mof_C 	C 	0.8583	0.1684	0.4345	0.557
Mof_O 	O 	0.128	0.0347	0.5568	-0.225
Mof_O 	O 	0.65382	0.78726	0.80274	-0.524
Mof_O 	O 	0.60994	0.79765	0.7554	-0.313
Mof_O 	O 	0.62244	0.75007	0.94717	-0.401
Mof_O 	O 	0.57532	0.71087	0.95121	-0.36
Mof_O 	O 	0.26748	0.71085	0.81669	-0.541
Mof_O 	O 	0.3027	0.74478	0.7745	-0.618
Mof_O 	O 	0.32693	0.65687	0.94521	-0.524
Mof_O 	O 	0.38788	0.6621	0.9528	-0.525
Mof_O 	O 	0.6021	0.5271	0.0384	-0.235
Mof_N 	N 	0.47444	0.7767	0.7998	-0.079
Mof_N 	N 	0.43792	0.7676	0.80277	-0.188
Mof_H 	H 	0.4208	0.7752	0.786	0.161
Mof_N 	N 	0.4643	0.7389	0.8556	-0.14
Mof_C 	C 	0.62037	0.78755	0.7911	0.411
Mof_C 	C 	0.59215	0.77516	0.82267	-0.107
Mof_C 	C 	0.60414	0.7634	0.8618	0.035
Mof_H 	H 	0.6292	0.7649	0.8686	0.048
Mof_C 	C 	0.57915	0.7494	0.891	-0.061
Mof_C 	C 	0.54139	0.7477	0.8805	-0.013
Mof_H 	H 	0.5245	0.7378	0.8996	0.068
Mof_C 	C 	0.52899	0.7605	0.8426	-0.016
Mof_C 	C 	0.55456	0.7742	0.81321	0.003
Mof_H 	H 	0.5463	0.7827	0.7873	0.058
Mof_C 	C 	0.48881	0.759	0.8325	0.123
Mof_C 	C 	0.43238	0.745	0.8357	0.163
Mof_C 	C 	0.59261	0.7364	0.9327	0.303
Mof_C 	C 	0.29764	0.72539	0.80669	0.536
Mof_C 	C 	0.33094	0.71909	0.83434	-0.212
Mof_C 	C 	0.36501	0.7348	0.8228	0.093
Mof_H 	H 	0.3667	0.7493	0.7988	0.005
Mof_C 	C 	0.39612	0.7286	0.8474	-0.107
Mof_C 	C 	0.39389	0.7072	0.883	0.093
Mof_H 	H 	0.415	0.7031	0.8991	0.021
Mof_C 	C 	0.36025	0.6918	0.895	-0.203
Mof_C 	C 	0.32866	0.69735	0.8702	0.139
Mof_H 	H 	0.3062	0.6865	0.8777	0.004
Mof_C 	C 	0.3583	0.6684	0.9345	0.531
Mof_O 	O 	0.628	0.5347	0.0568	-0.217
Mof_O 	O 	0.84618	0.71274	0.30274	-0.527
Mof_O 	O 	0.89006	0.70235	0.2554	-0.316
Mof_O 	O 	0.87756	0.74993	0.44717	-0.452
Mof_O 	O 	0.92468	0.78913	0.45121	-0.413
Mof_O 	O 	0.23252	0.78915	0.31669	-0.544
Mof_O 	O 	0.1973	0.75522	0.2745	-0.619
Mof_O 	O 	0.17307	0.84313	0.44521	-0.586
Mof_O 	O 	0.11212	0.8379	0.4528	-0.593
Mof_O 	O 	0.8979	0.9729	0.5384	-0.226
Mof_N 	N 	0.02556	0.7233	0.2998	-0.081
Mof_N 	N 	0.06208	0.7324	0.30277	-0.189
Mof_H 	H 	0.0792	0.7248	0.286	0.159
Mof_N 	N 	0.0357	0.7611	0.3556	-0.145
Mof_C 	C 	0.87963	0.71245	0.2911	0.412
Mof_C 	C 	0.90785	0.72484	0.32267	-0.114
Mof_C 	C 	0.89586	0.7366	0.3618	0.042
Mof_H 	H 	0.8708	0.7351	0.3686	0.041
Mof_C 	C 	0.92085	0.7506	0.391	-0.077
Mof_C 	C 	0.95861	0.7523	0.3805	-0.006
Mof_H 	H 	0.9755	0.7622	0.3996	0.056
Mof_C 	C 	0.97101	0.7395	0.3426	-0.025
Mof_C 	C 	0.94544	0.7258	0.31321	0.007
Mof_H 	H 	0.9537	0.7173	0.2873	0.055
Mof_C 	C 	0.01119	0.741	0.3325	0.121
Mof_C 	C 	0.06762	0.755	0.3357	0.162
Mof_C 	C 	0.90739	0.7636	0.4327	0.313
Mof_C 	C 	0.20236	0.77461	0.30669	0.538
Mof_C 	C 	0.16906	0.78091	0.33434	-0.223
Mof_C 	C 	0.13499	0.7652	0.3228	0.099
Mof_H 	H 	0.1333	0.7507	0.2988	0.002
Mof_C 	C 	0.10388	0.7714	0.3474	-0.118
Mof_C 	C 	0.10611	0.7928	0.383	0.105
Mof_H 	H 	0.085	0.7969	0.3991	0.008
Mof_C 	C 	0.13975	0.8082	0.395	-0.227
Mof_C 	C 	0.17134	0.80265	0.3702	0.149
Mof_H 	H 	0.1938	0.8135	0.3777	-0.005
Mof_C 	C 	0.1417	0.8316	0.4345	0.557
Mof_O 	O 	0.872	0.9653	0.5568	-0.225
Mof_O 	O 	0.34618	0.21274	0.80274	-0.524
Mof_O 	O 	0.39006	0.20235	0.7554	-0.313
Mof_O 	O 	0.37756	0.24993	0.94717	-0.401
Mof_O 	O 	0.42468	0.28913	0.95121	-0.36
Mof_O 	O 	0.73252	0.28915	0.81669	-0.541
Mof_O 	O 	0.6973	0.25522	0.7745	-0.618
Mof_O 	O 	0.67307	0.34313	0.94521	-0.524
Mof_O 	O 	0.61212	0.3379	0.9528	-0.525
Mof_O 	O 	0.3979	0.4729	0.0384	-0.235
Mof_N 	N 	0.52556	0.2233	0.7998	-0.079
Mof_N 	N 	0.56208	0.2324	0.80277	-0.188
Mof_H 	H 	0.5792	0.2248	0.786	0.161
Mof_N 	N 	0.5357	0.2611	0.8556	-0.14
Mof_C 	C 	0.37963	0.21245	0.7911	0.411
Mof_C 	C 	0.40785	0.22484	0.82267	-0.107
Mof_C 	C 	0.39586	0.2366	0.8618	0.035
Mof_H 	H 	0.3708	0.2351	0.8686	0.048
Mof_C 	C 	0.42085	0.2506	0.891	-0.061
Mof_C 	C 	0.45861	0.2523	0.8805	-0.013
Mof_H 	H 	0.4755	0.2622	0.8996	0.068
Mof_C 	C 	0.47101	0.2395	0.8426	-0.016
Mof_C 	C 	0.44544	0.2258	0.81321	0.003
Mof_H 	H 	0.4537	0.2173	0.7873	0.058
Mof_C 	C 	0.51119	0.241	0.8325	0.123
Mof_C 	C 	0.56762	0.255	0.8357	0.163
Mof_C 	C 	0.40739	0.2636	0.9327	0.303
Mof_C 	C 	0.70236	0.27461	0.80669	0.536
Mof_C 	C 	0.66906	0.28091	0.83434	-0.212
Mof_C 	C 	0.63499	0.2652	0.8228	0.093
Mof_H 	H 	0.6333	0.2507	0.7988	0.005
Mof_C 	C 	0.60388	0.2714	0.8474	-0.107
Mof_C 	C 	0.60611	0.2928	0.883	0.093
Mof_H 	H 	0.585	0.2969	0.8991	0.021
Mof_C 	C 	0.63975	0.3082	0.895	-0.203
Mof_C 	C 	0.67134	0.30265	0.8702	0.139
Mof_H 	H 	0.6938	0.3135	0.8777	0.004
Mof_C 	C 	0.6417	0.3316	0.9345	0.531
Mof_O 	O 	0.372	0.4653	0.0568	-0.217
Mof_O 	O 	0.71274	0.84618	0.80274	-0.524
Mof_O 	O 	0.70235	0.89006	0.7554	-0.313
Mof_O 	O 	0.74993	0.87756	0.94717	-0.401
Mof_O 	O 	0.78913	0.92468	0.95121	-0.36
Mof_O 	O 	0.78915	0.23252	0.81669	-0.541
Mof_O 	O 	0.75522	0.1973	0.7745	-0.618
Mof_O 	O 	0.84313	0.17307	0.94521	-0.525
Mof_O 	O 	0.8379	0.11212	0.9528	-0.526
Mof_O 	O 	0.9729	0.8979	0.0384	-0.235
Mof_N 	N 	0.7233	0.02556	0.7998	-0.079
Mof_N 	N 	0.7324	0.06208	0.80277	-0.188
Mof_H 	H 	0.7248	0.0792	0.786	0.161
Mof_N 	N 	0.7611	0.0357	0.8556	-0.14
Mof_C 	C 	0.71245	0.87963	0.7911	0.411
Mof_C 	C 	0.72484	0.90785	0.82267	-0.107
Mof_C 	C 	0.7366	0.89586	0.8618	0.035
Mof_H 	H 	0.7351	0.8708	0.8686	0.048
Mof_C 	C 	0.7506	0.92085	0.891	-0.062
Mof_C 	C 	0.7523	0.95861	0.8805	-0.012
Mof_H 	H 	0.7622	0.9755	0.8996	0.068
Mof_C 	C 	0.7395	0.97101	0.8426	-0.017
Mof_C 	C 	0.7258	0.94544	0.81321	0.003
Mof_H 	H 	0.7173	0.9537	0.7873	0.058
Mof_C 	C 	0.741	0.01119	0.8325	0.122
Mof_C 	C 	0.755	0.06762	0.8357	0.163
Mof_C 	C 	0.7636	0.90739	0.9327	0.303
Mof_C 	C 	0.77461	0.20236	0.80669	0.536
Mof_C 	C 	0.78091	0.16906	0.83434	-0.212
Mof_C 	C 	0.7652	0.13499	0.8228	0.093
Mof_H 	H 	0.7507	0.1333	0.7988	0.005
Mof_C 	C 	0.7714	0.10388	0.8474	-0.107
Mof_C 	C 	0.7928	0.10611	0.883	0.093
Mof_H 	H 	0.7969	0.085	0.8991	0.021
Mof_C 	C 	0.8082	0.13975	0.895	-0.203
Mof_C 	C 	0.80265	0.17134	0.8702	0.139
Mof_H 	H 	0.8135	0.1938	0.8777	0.004
Mof_C 	C 	0.8316	0.1417	0.9345	0.531
Mof_O 	O 	0.9653	0.872	0.0568	-0.217
Mof_O 	O 	0.21274	0.34618	0.30274	-0.527
Mof_O 	O 	0.20235	0.39006	0.2554	-0.316
Mof_O 	O 	0.24993	0.37756	0.44717	-0.452
Mof_O 	O 	0.28913	0.42468	0.45121	-0.413
Mof_O 	O 	0.28915	0.73252	0.31669	-0.544
Mof_O 	O 	0.25522	0.6973	0.2745	-0.619
Mof_O 	O 	0.34313	0.67307	0.44521	-0.586
Mof_O 	O 	0.3379	0.61212	0.4528	-0.593
Mof_O 	O 	0.4729	0.3979	0.5384	-0.226
Mof_N 	N 	0.2233	0.52556	0.2998	-0.081
Mof_N 	N 	0.2324	0.56208	0.30277	-0.189
Mof_H 	H 	0.2248	0.5792	0.286	0.159
Mof_N 	N 	0.2611	0.5357	0.3556	-0.145
Mof_C 	C 	0.21245	0.37963	0.2911	0.412
Mof_C 	C 	0.22484	0.40785	0.32267	-0.114
Mof_C 	C 	0.2366	0.39586	0.3618	0.042
Mof_H 	H 	0.2351	0.3708	0.3686	0.041
Mof_C 	C 	0.2506	0.42085	0.391	-0.077
Mof_C 	C 	0.2523	0.45861	0.3805	-0.006
Mof_H 	H 	0.2622	0.4755	0.3996	0.056
Mof_C 	C 	0.2395	0.47101	0.3426	-0.025
Mof_C 	C 	0.2258	0.44544	0.31321	0.007
Mof_H 	H 	0.2173	0.4537	0.2873	0.055
Mof_C 	C 	0.241	0.51119	0.3325	0.121
Mof_C 	C 	0.255	0.56762	0.3357	0.162
Mof_C 	C 	0.2636	0.40739	0.4327	0.313
Mof_C 	C 	0.27461	0.70236	0.30669	0.538
Mof_C 	C 	0.28091	0.66906	0.33434	-0.223
Mof_C 	C 	0.2652	0.63499	0.3228	0.099
Mof_H 	H 	0.2507	0.6333	0.2988	0.002
Mof_C 	C 	0.2714	0.60388	0.3474	-0.118
Mof_C 	C 	0.2928	0.60611	0.383	0.105
Mof_H 	H 	0.2969	0.585	0.3991	0.008
Mof_C 	C 	0.3082	0.63975	0.395	-0.227
Mof_C 	C 	0.30265	0.67134	0.3702	0.149
Mof_H 	H 	0.3135	0.6938	0.3777	-0.005
Mof_C 	C 	0.3316	0.6417	0.4345	0.557
Mof_O 	O 	0.4653	0.372	0.5568	-0.224
Mof_O 	O 	0.28726	0.15382	0.80274	-0.524
Mof_O 	O 	0.29765	0.10994	0.7554	-0.313
Mof_O 	O 	0.25007	0.12244	0.94717	-0.401
Mof_O 	O 	0.21087	0.07532	0.95121	-0.36
Mof_O 	O 	0.21085	0.76748	0.81669	-0.541
Mof_O 	O 	0.24478	0.8027	0.7745	-0.618
Mof_O 	O 	0.15687	0.82693	0.94521	-0.525
Mof_O 	O 	0.1621	0.88788	0.9528	-0.526
Mof_O 	O 	0.0271	0.1021	0.0384	-0.235
Mof_N 	N 	0.2767	0.97444	0.7998	-0.079
Mof_N 	N 	0.2676	0.93792	0.80277	-0.188
Mof_H 	H 	0.2752	0.9208	0.786	0.161
Mof_N 	N 	0.2389	0.9643	0.8556	-0.14
Mof_C 	C 	0.28755	0.12037	0.7911	0.411
Mof_C 	C 	0.27516	0.09215	0.82267	-0.107
Mof_C 	C 	0.2634	0.10414	0.8618	0.035
Mof_H 	H 	0.2649	0.1292	0.8686	0.048
Mof_C 	C 	0.2494	0.07915	0.891	-0.062
Mof_C 	C 	0.2477	0.04139	0.8805	-0.012
Mof_H 	H 	0.2378	0.0245	0.8996	0.068
Mof_C 	C 	0.2605	0.02899	0.8426	-0.017
Mof_C 	C 	0.2742	0.05456	0.81321	0.003
Mof_H 	H 	0.2827	0.0463	0.7873	0.058
Mof_C 	C 	0.259	0.98881	0.8325	0.122
Mof_C 	C 	0.245	0.93238	0.8357	0.163
Mof_C 	C 	0.2364	0.09261	0.9327	0.303
Mof_C 	C 	0.22539	0.79764	0.80669	0.536
Mof_C 	C 	0.21909	0.83094	0.83434	-0.212
Mof_C 	C 	0.2348	0.86501	0.8228	0.093
Mof_H 	H 	0.2493	0.8667	0.7988	0.005
Mof_C 	C 	0.2286	0.89612	0.8474	-0.107
Mof_C 	C 	0.2072	0.89389	0.883	0.093
Mof_H 	H 	0.2031	0.915	0.8991	0.021
Mof_C 	C 	0.1918	0.86025	0.895	-0.203
Mof_C 	C 	0.19735	0.82866	0.8702	0.139
Mof_H 	H 	0.1865	0.8062	0.8777	0.004
Mof_C 	C 	0.1684	0.8583	0.9345	0.531
Mof_O 	O 	0.0347	0.128	0.0568	-0.217
Mof_O 	O 	0.78726	0.65382	0.30274	-0.527
Mof_O 	O 	0.79765	0.60994	0.2554	-0.316
Mof_O 	O 	0.75007	0.62244	0.44717	-0.452
Mof_O 	O 	0.71087	0.57532	0.45121	-0.413
Mof_O 	O 	0.71085	0.26748	0.31669	-0.544
Mof_O 	O 	0.74478	0.3027	0.2745	-0.619
Mof_O 	O 	0.65687	0.32693	0.44521	-0.586
Mof_O 	O 	0.6621	0.38788	0.4528	-0.593
Mof_O 	O 	0.5271	0.6021	0.5384	-0.226
Mof_N 	N 	0.7767	0.47444	0.2998	-0.081
Mof_N 	N 	0.7676	0.43792	0.30277	-0.189
Mof_H 	H 	0.7752	0.4208	0.286	0.159
Mof_N 	N 	0.7389	0.4643	0.3556	-0.145
Mof_C 	C 	0.78755	0.62037	0.2911	0.412
Mof_C 	C 	0.77516	0.59215	0.32267	-0.114
Mof_C 	C 	0.7634	0.60414	0.3618	0.042
Mof_H 	H 	0.7649	0.6292	0.3686	0.041
Mof_C 	C 	0.7494	0.57915	0.391	-0.077
Mof_C 	C 	0.7477	0.54139	0.3805	-0.006
Mof_H 	H 	0.7378	0.5245	0.3996	0.056
Mof_C 	C 	0.7605	0.52899	0.3426	-0.025
Mof_C 	C 	0.7742	0.55456	0.31321	0.007
Mof_H 	H 	0.7827	0.5463	0.2873	0.055
Mof_C 	C 	0.759	0.48881	0.3325	0.121
Mof_C 	C 	0.745	0.43238	0.3357	0.162
Mof_C 	C 	0.7364	0.59261	0.4327	0.313
Mof_C 	C 	0.72539	0.29764	0.30669	0.538
Mof_C 	C 	0.71909	0.33094	0.33434	-0.223
Mof_C 	C 	0.7348	0.36501	0.3228	0.099
Mof_H 	H 	0.7493	0.3667	0.2988	0.002
Mof_C 	C 	0.7286	0.39612	0.3474	-0.118
Mof_C 	C 	0.7072	0.39389	0.383	0.105
Mof_H 	H 	0.7031	0.415	0.3991	0.008
Mof_C 	C 	0.6918	0.36025	0.395	-0.227
Mof_C 	C 	0.69735	0.32866	0.3702	0.149
Mof_H 	H 	0.6865	0.3062	0.3777	-0.005
Mof_C 	C 	0.6684	0.3583	0.4345	0.557
Mof_O 	O 	0.5347	0.628	0.5568	-0.224
Mof_O 	O 	0.15382	0.71274	0.80274	-0.524
Mof_O 	O 	0.10994	0.70235	0.7554	-0.313
Mof_O 	O 	0.12244	0.74993	0.94717	-0.401
Mof_O 	O 	0.07532	0.78913	0.95121	-0.36
Mof_O 	O 	0.76748	0.78915	0.81669	-0.541
Mof_O 	O 	0.8027	0.75522	0.7745	-0.618
Mof_O 	O 	0.82693	0.84313	0.94521	-0.525
Mof_O 	O 	0.88788	0.8379	0.9528	-0.526
Mof_O 	O 	0.1021	0.9729	0.0384	-0.235
Mof_N 	N 	0.97444	0.7233	0.7998	-0.079
Mof_N 	N 	0.93792	0.7324	0.80277	-0.188
Mof_H 	H 	0.9208	0.7248	0.786	0.161
Mof_N 	N 	0.9643	0.7611	0.8556	-0.14
Mof_C 	C 	0.12037	0.71245	0.7911	0.411
Mof_C 	C 	0.09215	0.72484	0.82267	-0.107
Mof_C 	C 	0.10414	0.7366	0.8618	0.035
Mof_H 	H 	0.1292	0.7351	0.8686	0.048
Mof_C 	C 	0.07915	0.7506	0.891	-0.062
Mof_C 	C 	0.04139	0.7523	0.8805	-0.012
Mof_H 	H 	0.0245	0.7622	0.8996	0.068
Mof_C 	C 	0.02899	0.7395	0.8426	-0.017
Mof_C 	C 	0.05456	0.7258	0.81321	0.003
Mof_H 	H 	0.0463	0.7173	0.7873	0.058
Mof_C 	C 	0.98881	0.741	0.8325	0.122
Mof_C 	C 	0.93238	0.755	0.8357	0.163
Mof_C 	C 	0.09261	0.7636	0.9327	0.303
Mof_C 	C 	0.79764	0.77461	0.80669	0.536
Mof_C 	C 	0.83094	0.78091	0.83434	-0.212
Mof_C 	C 	0.86501	0.7652	0.8228	0.093
Mof_H 	H 	0.8667	0.7507	0.7988	0.005
Mof_C 	C 	0.89612	0.7714	0.8474	-0.107
Mof_C 	C 	0.89389	0.7928	0.883	0.093
Mof_H 	H 	0.915	0.7969	0.8991	0.021
Mof_C 	C 	0.86025	0.8082	0.895	-0.203
Mof_C 	C 	0.82866	0.80265	0.8702	0.139
Mof_H 	H 	0.8062	0.8135	0.8777	0.004
Mof_C 	C 	0.8583	0.8316	0.9345	0.531
Mof_O 	O 	0.128	0.9653	0.0568	-0.217
Mof_O 	O 	0.65382	0.21274	0.30274	-0.527
Mof_O 	O 	0.60994	0.20235	0.2554	-0.316
Mof_O 	O 	0.62244	0.24993	0.44717	-0.452
Mof_O 	O 	0.57532	0.28913	0.45121	-0.413
Mof_O 	O 	0.26748	0.28915	0.31669	-0.544
Mof_O 	O 	0.3027	0.25522	0.2745	-0.619
Mof_O 	O 	0.32693	0.34313	0.44521	-0.586
Mof_O 	O 	0.38788	0.3379	0.4528	-0.593
Mof_O 	O 	0.6021	0.4729	0.5384	-0.226
Mof_N 	N 	0.47444	0.2233	0.2998	-0.081
Mof_N 	N 	0.43792	0.2324	0.30277	-0.189
Mof_H 	H 	0.4208	0.2248	0.286	0.159
Mof_N 	N 	0.4643	0.2611	0.3556	-0.145
Mof_C 	C 	0.62037	0.21245	0.2911	0.412
Mof_C 	C 	0.59215	0.22484	0.32267	-0.114
Mof_C 	C 	0.60414	0.2366	0.3618	0.042
Mof_H 	H 	0.6292	0.2351	0.3686	0.041
Mof_C 	C 	0.57915	0.2506	0.391	-0.077
Mof_C 	C 	0.54139	0.2523	0.3805	-0.006
Mof_H 	H 	0.5245	0.2622	0.3996	0.056
Mof_C 	C 	0.52899	0.2395	0.3426	-0.025
Mof_C 	C 	0.55456	0.2258	0.31321	0.007
Mof_H 	H 	0.5463	0.2173	0.2873	0.055
Mof_C 	C 	0.48881	0.241	0.3325	0.121
Mof_C 	C 	0.43238	0.255	0.3357	0.162
Mof_C 	C 	0.59261	0.2636	0.4327	0.313
Mof_C 	C 	0.29764	0.27461	0.30669	0.538
Mof_C 	C 	0.33094	0.28091	0.33434	-0.223
Mof_C 	C 	0.36501	0.2652	0.3228	0.099
Mof_H 	H 	0.3667	0.2507	0.2988	0.002
Mof_C 	C 	0.39612	0.2714	0.3474	-0.118
Mof_C 	C 	0.39389	0.2928	0.383	0.105
Mof_H 	H 	0.415	0.2969	0.3991	0.008
Mof_C 	C 	0.36025	0.3082	0.395	-0.227
Mof_C 	C 	0.32866	0.30265	0.3702	0.149
Mof_H 	H 	0.3062	0.3135	0.3777	-0.005
Mof_C 	C 	0.3583	0.3316	0.4345	0.557
Mof_O 	O 	0.628	0.4653	0.5568	-0.224
Mof_O 	O 	0.84618	0.28726	0.80274	-0.524
Mof_O 	O 	0.89006	0.29765	0.7554	-0.313
Mof_O 	O 	0.87756	0.25007	0.94717	-0.401
Mof_O 	O 	0.92468	0.21087	0.95121	-0.36
Mof_O 	O 	0.23252	0.21085	0.81669	-0.541
Mof_O 	O 	0.1973	0.24478	0.7745	-0.618
Mof_O 	O 	0.17307	0.15687	0.94521	-0.525
Mof_O 	O 	0.11212	0.1621	0.9528	-0.526
Mof_O 	O 	0.8979	0.0271	0.0384	-0.235
Mof_N 	N 	0.02556	0.2767	0.7998	-0.079
Mof_N 	N 	0.06208	0.2676	0.80277	-0.188
Mof_H 	H 	0.0792	0.2752	0.786	0.161
Mof_N 	N 	0.0357	0.2389	0.8556	-0.14
Mof_C 	C 	0.87963	0.28755	0.7911	0.411
Mof_C 	C 	0.90785	0.27516	0.82267	-0.107
Mof_C 	C 	0.89586	0.2634	0.8618	0.035
Mof_H 	H 	0.8708	0.2649	0.8686	0.048
Mof_C 	C 	0.92085	0.2494	0.891	-0.062
Mof_C 	C 	0.95861	0.2477	0.8805	-0.012
Mof_H 	H 	0.9755	0.2378	0.8996	0.068
Mof_C 	C 	0.97101	0.2605	0.8426	-0.017
Mof_C 	C 	0.94544	0.2742	0.81321	0.003
Mof_H 	H 	0.9537	0.2827	0.7873	0.058
Mof_C 	C 	0.01119	0.259	0.8325	0.122
Mof_C 	C 	0.06762	0.245	0.8357	0.163
Mof_C 	C 	0.90739	0.2364	0.9327	0.303
Mof_C 	C 	0.20236	0.22539	0.80669	0.536
Mof_C 	C 	0.16906	0.21909	0.83434	-0.212
Mof_C 	C 	0.13499	0.2348	0.8228	0.093
Mof_H 	H 	0.1333	0.2493	0.7988	0.005
Mof_C 	C 	0.10388	0.2286	0.8474	-0.107
Mof_C 	C 	0.10611	0.2072	0.883	0.093
Mof_H 	H 	0.085	0.2031	0.8991	0.021
Mof_C 	C 	0.13975	0.1918	0.895	-0.203
Mof_C 	C 	0.17134	0.19735	0.8702	0.139
Mof_H 	H 	0.1938	0.1865	0.8777	0.004
Mof_C 	C 	0.1417	0.1684	0.9345	0.531
Mof_O 	O 	0.872	0.0347	0.0568	-0.217
Mof_O 	O 	0.34618	0.78726	0.30274	-0.527
Mof_O 	O 	0.39006	0.79765	0.2554	-0.316
Mof_O 	O 	0.37756	0.75007	0.44717	-0.452
Mof_O 	O 	0.42468	0.71087	0.45121	-0.413
Mof_O 	O 	0.73252	0.71085	0.31669	-0.544
Mof_O 	O 	0.6973	0.74478	0.2745	-0.619
Mof_O 	O 	0.67307	0.65687	0.44521	-0.586
Mof_O 	O 	0.61212	0.6621	0.4528	-0.593
Mof_O 	O 	0.3979	0.5271	0.5384	-0.226
Mof_N 	N 	0.52556	0.7767	0.2998	-0.081
Mof_N 	N 	0.56208	0.7676	0.30277	-0.189
Mof_H 	H 	0.5792	0.7752	0.286	0.159
Mof_N 	N 	0.5357	0.7389	0.3556	-0.145
Mof_C 	C 	0.37963	0.78755	0.2911	0.412
Mof_C 	C 	0.40785	0.77516	0.32267	-0.114
Mof_C 	C 	0.39586	0.7634	0.3618	0.042
Mof_H 	H 	0.3708	0.7649	0.3686	0.041
Mof_C 	C 	0.42085	0.7494	0.391	-0.077
Mof_C 	C 	0.45861	0.7477	0.3805	-0.006
Mof_H 	H 	0.4755	0.7378	0.3996	0.056
Mof_C 	C 	0.47101	0.7605	0.3426	-0.025
Mof_C 	C 	0.44544	0.7742	0.31321	0.007
Mof_H 	H 	0.4537	0.7827	0.2873	0.055
Mof_C 	C 	0.51119	0.759	0.3325	0.121
Mof_C 	C 	0.56762	0.745	0.3357	0.162
Mof_C 	C 	0.40739	0.7364	0.4327	0.313
Mof_C 	C 	0.70236	0.72539	0.30669	0.538
Mof_C 	C 	0.66906	0.71909	0.33434	-0.223
Mof_C 	C 	0.63499	0.7348	0.3228	0.099
Mof_H 	H 	0.6333	0.7493	0.2988	0.002
Mof_C 	C 	0.60388	0.7286	0.3474	-0.118
Mof_C 	C 	0.60611	0.7072	0.383	0.105
Mof_H 	H 	0.585	0.7031	0.3991	0.008
Mof_C 	C 	0.63975	0.6918	0.395	-0.227
Mof_C 	C 	0.67134	0.69735	0.3702	0.149
Mof_H 	H 	0.6938	0.6865	0.3777	-0.005
Mof_C 	C 	0.6417	0.6684	0.4345	0.557
Mof_O 	O 	0.372	0.5347	0.5568	-0.224
Mof_O 	O 	0.28726	0.84618	0.69726	-0.526
Mof_O 	O 	0.29765	0.89006	0.7446	-0.312
Mof_O 	O 	0.25007	0.87756	0.55283	-0.452
Mof_O 	O 	0.21087	0.92468	0.54879	-0.413
Mof_O 	O 	0.21085	0.23252	0.68331	-0.544
Mof_O 	O 	0.24478	0.1973	0.7255	-0.619
Mof_O 	O 	0.15687	0.17307	0.55479	-0.586
Mof_O 	O 	0.1621	0.11212	0.5472	-0.593
Mof_O 	O 	0.0271	0.8979	0.4616	-0.226
Mof_N 	N 	0.2767	0.02556	0.7002	-0.081
Mof_N 	N 	0.2676	0.06208	0.69723	-0.189
Mof_H 	H 	0.2752	0.0792	0.714	0.16
Mof_N 	N 	0.2389	0.0357	0.6444	-0.145
Mof_C 	C 	0.28755	0.87963	0.7089	0.412
Mof_C 	C 	0.27516	0.90785	0.67733	-0.113
Mof_C 	C 	0.2634	0.89586	0.6382	0.041
Mof_H 	H 	0.2649	0.8708	0.6314	0.042
Mof_C 	C 	0.2494	0.92085	0.609	-0.077
Mof_C 	C 	0.2477	0.95861	0.6195	-0.006
Mof_H 	H 	0.2378	0.9755	0.6004	0.057
Mof_C 	C 	0.2605	0.97101	0.6574	-0.024
Mof_C 	C 	0.2742	0.94544	0.68679	0.006
Mof_H 	H 	0.2827	0.9537	0.7127	0.056
Mof_C 	C 	0.259	0.01119	0.6675	0.121
Mof_C 	C 	0.245	0.06762	0.6643	0.163
Mof_C 	C 	0.2364	0.90739	0.5673	0.312
Mof_C 	C 	0.22539	0.20236	0.69331	0.539
Mof_C 	C 	0.21909	0.16906	0.66566	-0.223
Mof_C 	C 	0.2348	0.13499	0.6772	0.1
Mof_H 	H 	0.2493	0.1333	0.7012	0.002
Mof_C 	C 	0.2286	0.10388	0.6526	-0.118
Mof_C 	C 	0.2072	0.10611	0.617	0.105
Mof_H 	H 	0.2031	0.085	0.6009	0.008
Mof_C 	C 	0.1918	0.13975	0.605	-0.228
Mof_C 	C 	0.19735	0.17134	0.6298	0.15
Mof_H 	H 	0.1865	0.1938	0.6223	-0.005
Mof_C 	C 	0.1684	0.1417	0.5655	0.557
Mof_O 	O 	0.0347	0.872	0.4432	-0.225
Mof_O 	O 	0.78726	0.34618	0.19726	-0.528
Mof_O 	O 	0.79765	0.39006	0.2446	-0.315
Mof_O 	O 	0.75007	0.37756	0.05283	-0.451
Mof_O 	O 	0.71087	0.42468	0.04879	-0.412
Mof_O 	O 	0.71085	0.73252	0.18331	-0.545
Mof_O 	O 	0.74478	0.6973	0.2255	-0.619
Mof_O 	O 	0.65687	0.67307	0.05479	-0.567
Mof_O 	O 	0.6621	0.61212	0.0472	-0.578
Mof_O 	O 	0.5271	0.3979	0.9616	-0.174
Mof_N 	N 	0.7767	0.52556	0.2002	-0.082
Mof_N 	N 	0.7676	0.56208	0.19723	-0.189
Mof_H 	H 	0.7752	0.5792	0.214	0.159
Mof_N 	N 	0.7389	0.5357	0.1444	-0.147
Mof_C 	C 	0.78755	0.37963	0.2089	0.412
Mof_C 	C 	0.77516	0.40785	0.17733	-0.117
Mof_C 	C 	0.7634	0.39586	0.1382	0.044
Mof_H 	H 	0.7649	0.3708	0.1314	0.039
Mof_C 	C 	0.7494	0.42085	0.109	-0.084
Mof_C 	C 	0.7477	0.45861	0.1195	-0.004
Mof_H 	H 	0.7378	0.4755	0.1004	0.05
Mof_C 	C 	0.7605	0.47101	0.1574	-0.029
Mof_C 	C 	0.7742	0.44544	0.18679	0.008
Mof_H 	H 	0.7827	0.4537	0.2127	0.054
Mof_C 	C 	0.759	0.51119	0.1675	0.12
Mof_C 	C 	0.745	0.56762	0.1643	0.16
Mof_C 	C 	0.7364	0.40739	0.0673	0.313
Mof_C 	C 	0.72539	0.70236	0.19331	0.537
Mof_C 	C 	0.71909	0.66906	0.16566	-0.222
Mof_C 	C 	0.7348	0.63499	0.1772	0.096
Mof_H 	H 	0.7493	0.6333	0.2012	0.002
Mof_C 	C 	0.7286	0.60388	0.1526	-0.117
Mof_C 	C 	0.7072	0.60611	0.117	0.099
Mof_H 	H 	0.7031	0.585	0.1009	0.007
Mof_C 	C 	0.6918	0.63975	0.105	-0.223
Mof_C 	C 	0.69735	0.67134	0.1298	0.144
Mof_H 	H 	0.6865	0.6938	0.1223	-0.004
Mof_C 	C 	0.6684	0.6417	0.0655	0.537
Mof_O 	O 	0.5347	0.372	0.9432	-0.196
Mof_O 	O 	0.71274	0.15382	0.69726	-0.526
Mof_O 	O 	0.70235	0.10994	0.7446	-0.312
Mof_O 	O 	0.74993	0.12244	0.55283	-0.452
Mof_O 	O 	0.78913	0.07532	0.54879	-0.413
Mof_O 	O 	0.78915	0.76748	0.68331	-0.544
Mof_O 	O 	0.75522	0.8027	0.7255	-0.619
Mof_O 	O 	0.84313	0.82693	0.55479	-0.586
Mof_O 	O 	0.8379	0.88788	0.5472	-0.593
Mof_O 	O 	0.9729	0.1021	0.4616	-0.226
Mof_N 	N 	0.7233	0.97444	0.7002	-0.081
Mof_N 	N 	0.7324	0.93792	0.69723	-0.189
Mof_H 	H 	0.7248	0.9208	0.714	0.16
Mof_N 	N 	0.7611	0.9643	0.6444	-0.145
Mof_C 	C 	0.71245	0.12037	0.7089	0.412
Mof_C 	C 	0.72484	0.09215	0.67733	-0.113
Mof_C 	C 	0.7366	0.10414	0.6382	0.041
Mof_H 	H 	0.7351	0.1292	0.6314	0.042
Mof_C 	C 	0.7506	0.07915	0.609	-0.077
Mof_C 	C 	0.7523	0.04139	0.6195	-0.006
Mof_H 	H 	0.7622	0.0245	0.6004	0.057
Mof_C 	C 	0.7395	0.02899	0.6574	-0.024
Mof_C 	C 	0.7258	0.05456	0.68679	0.006
Mof_H 	H 	0.7173	0.0463	0.7127	0.056
Mof_C 	C 	0.741	0.98881	0.6675	0.121
Mof_C 	C 	0.755	0.93238	0.6643	0.163
Mof_C 	C 	0.7636	0.09261	0.5673	0.312
Mof_C 	C 	0.77461	0.79764	0.69331	0.539
Mof_C 	C 	0.78091	0.83094	0.66566	-0.223
Mof_C 	C 	0.7652	0.86501	0.6772	0.1
Mof_H 	H 	0.7507	0.8667	0.7012	0.002
Mof_C 	C 	0.7714	0.89612	0.6526	-0.118
Mof_C 	C 	0.7928	0.89389	0.617	0.105
Mof_H 	H 	0.7969	0.915	0.6009	0.008
Mof_C 	C 	0.8082	0.86025	0.605	-0.228
Mof_C 	C 	0.80265	0.82866	0.6298	0.15
Mof_H 	H 	0.8135	0.8062	0.6223	-0.005
Mof_C 	C 	0.8316	0.8583	0.5655	0.557
Mof_O 	O 	0.9653	0.128	0.4432	-0.225
Mof_O 	O 	0.21274	0.65382	0.19726	-0.528
Mof_O 	O 	0.20235	0.60994	0.2446	-0.315
Mof_O 	O 	0.24993	0.62244	0.05283	-0.451
Mof_O 	O 	0.28913	0.57532	0.04879	-0.412
Mof_O 	O 	0.28915	0.26748	0.18331	-0.545
Mof_O 	O 	0.25522	0.3027	0.2255	-0.619
Mof_O 	O 	0.34313	0.32693	0.05479	-0.567
Mof_O 	O 	0.3379	0.38788	0.0472	-0.578
Mof_O 	O 	0.4729	0.6021	0.9616	-0.174
Mof_N 	N 	0.2233	0.47444	0.2002	-0.082
Mof_N 	N 	0.2324	0.43792	0.19723	-0.189
Mof_H 	H 	0.2248	0.4208	0.214	0.159
Mof_N 	N 	0.2611	0.4643	0.1444	-0.147
Mof_C 	C 	0.21245	0.62037	0.2089	0.412
Mof_C 	C 	0.22484	0.59215	0.17733	-0.117
Mof_C 	C 	0.2366	0.60414	0.1382	0.044
Mof_H 	H 	0.2351	0.6292	0.1314	0.039
Mof_C 	C 	0.2506	0.57915	0.109	-0.084
Mof_C 	C 	0.2523	0.54139	0.1195	-0.004
Mof_H 	H 	0.2622	0.5245	0.1004	0.05
Mof_C 	C 	0.2395	0.52899	0.1574	-0.029
Mof_C 	C 	0.2258	0.55456	0.18679	0.008
Mof_H 	H 	0.2173	0.5463	0.2127	0.054
Mof_C 	C 	0.241	0.48881	0.1675	0.12
Mof_C 	C 	0.255	0.43238	0.1643	0.16
Mof_C 	C 	0.2636	0.59261	0.0673	0.313
Mof_C 	C 	0.27461	0.29764	0.19331	0.537
Mof_C 	C 	0.28091	0.33094	0.16566	-0.222
Mof_C 	C 	0.2652	0.36501	0.1772	0.096
Mof_H 	H 	0.2507	0.3667	0.2012	0.002
Mof_C 	C 	0.2714	0.39612	0.1526	-0.117
Mof_C 	C 	0.2928	0.39389	0.117	0.099
Mof_H 	H 	0.2969	0.415	0.1009	0.007
Mof_C 	C 	0.3082	0.36025	0.105	-0.223
Mof_C 	C 	0.30265	0.32866	0.1298	0.144
Mof_H 	H 	0.3135	0.3062	0.1223	-0.004
Mof_C 	C 	0.3316	0.3583	0.0655	0.537
Mof_O 	O 	0.4653	0.628	0.9432	-0.196
Mof_O 	O 	0.84618	0.71274	0.69726	-0.526
Mof_O 	O 	0.89006	0.70235	0.7446	-0.312
Mof_O 	O 	0.87756	0.74993	0.55283	-0.452
Mof_O 	O 	0.92468	0.78913	0.54879	-0.413
Mof_O 	O 	0.23252	0.78915	0.68331	-0.544
Mof_O 	O 	0.1973	0.75522	0.7255	-0.619
Mof_O 	O 	0.17307	0.84313	0.55479	-0.586
Mof_O 	O 	0.11212	0.8379	0.5472	-0.593
Mof_O 	O 	0.8979	0.9729	0.4616	-0.226
Mof_N 	N 	0.02556	0.7233	0.7002	-0.081
Mof_N 	N 	0.06208	0.7324	0.69723	-0.189
Mof_H 	H 	0.0792	0.7248	0.714	0.16
Mof_N 	N 	0.0357	0.7611	0.6444	-0.145
Mof_C 	C 	0.87963	0.71245	0.7089	0.412
Mof_C 	C 	0.90785	0.72484	0.67733	-0.113
Mof_C 	C 	0.89586	0.7366	0.6382	0.041
Mof_H 	H 	0.8708	0.7351	0.6314	0.042
Mof_C 	C 	0.92085	0.7506	0.609	-0.077
Mof_C 	C 	0.95861	0.7523	0.6195	-0.006
Mof_H 	H 	0.9755	0.7622	0.6004	0.057
Mof_C 	C 	0.97101	0.7395	0.6574	-0.024
Mof_C 	C 	0.94544	0.7258	0.68679	0.006
Mof_H 	H 	0.9537	0.7173	0.7127	0.056
Mof_C 	C 	0.01119	0.741	0.6675	0.121
Mof_C 	C 	0.06762	0.755	0.6643	0.163
Mof_C 	C 	0.90739	0.7636	0.5673	0.312
Mof_C 	C 	0.20236	0.77461	0.69331	0.539
Mof_C 	C 	0.16906	0.78091	0.66566	-0.223
Mof_C 	C 	0.13499	0.7652	0.6772	0.1
Mof_H 	H 	0.1333	0.7507	0.7012	0.002
Mof_C 	C 	0.10388	0.7714	0.6526	-0.118
Mof_C 	C 	0.10611	0.7928	0.617	0.105
Mof_H 	H 	0.085	0.7969	0.6009	0.008
Mof_C 	C 	0.13975	0.8082	0.605	-0.228
Mof_C 	C 	0.17134	0.80265	0.6298	0.15
Mof_H 	H 	0.1938	0.8135	0.6223	-0.005
Mof_C 	C 	0.1417	0.8316	0.5655	0.557
Mof_O 	O 	0.872	0.9653	0.4432	-0.225
Mof_O 	O 	0.34618	0.21274	0.19726	-0.528
Mof_O 	O 	0.39006	0.20235	0.2446	-0.315
Mof_O 	O 	0.37756	0.24993	0.05283	-0.451
Mof_O 	O 	0.42468	0.28913	0.04879	-0.412
Mof_O 	O 	0.73252	0.28915	0.18331	-0.545
Mof_O 	O 	0.6973	0.25522	0.2255	-0.619
Mof_O 	O 	0.67307	0.34313	0.05479	-0.567
Mof_O 	O 	0.61212	0.3379	0.0472	-0.578
Mof_O 	O 	0.3979	0.4729	0.9616	-0.174
Mof_N 	N 	0.52556	0.2233	0.2002	-0.082
Mof_N 	N 	0.56208	0.2324	0.19723	-0.189
Mof_H 	H 	0.5792	0.2248	0.214	0.159
Mof_N 	N 	0.5357	0.2611	0.1444	-0.147
Mof_C 	C 	0.37963	0.21245	0.2089	0.412
Mof_C 	C 	0.40785	0.22484	0.17733	-0.117
Mof_C 	C 	0.39586	0.2366	0.1382	0.044
Mof_H 	H 	0.3708	0.2351	0.1314	0.039
Mof_C 	C 	0.42085	0.2506	0.109	-0.084
Mof_C 	C 	0.45861	0.2523	0.1195	-0.004
Mof_H 	H 	0.4755	0.2622	0.1004	0.05
Mof_C 	C 	0.47101	0.2395	0.1574	-0.029
Mof_C 	C 	0.44544	0.2258	0.18679	0.008
Mof_H 	H 	0.4537	0.2173	0.2127	0.054
Mof_C 	C 	0.51119	0.241	0.1675	0.12
Mof_C 	C 	0.56762	0.255	0.1643	0.16
Mof_C 	C 	0.40739	0.2636	0.0673	0.313
Mof_C 	C 	0.70236	0.27461	0.19331	0.537
Mof_C 	C 	0.66906	0.28091	0.16566	-0.222
Mof_C 	C 	0.63499	0.2652	0.1772	0.096
Mof_H 	H 	0.6333	0.2507	0.2012	0.002
Mof_C 	C 	0.60388	0.2714	0.1526	-0.117
Mof_C 	C 	0.60611	0.2928	0.117	0.099
Mof_H 	H 	0.585	0.2969	0.1009	0.007
Mof_C 	C 	0.63975	0.3082	0.105	-0.223
Mof_C 	C 	0.67134	0.30265	0.1298	0.144
Mof_H 	H 	0.6938	0.3135	0.1223	-0.004
Mof_C 	C 	0.6417	0.3316	0.0655	0.537
Mof_O 	O 	0.372	0.4653	0.9432	-0.196
Mof_O 	O 	0.15382	0.28726	0.69726	-0.526
Mof_O 	O 	0.10994	0.29765	0.7446	-0.312
Mof_O 	O 	0.12244	0.25007	0.55283	-0.452
Mof_O 	O 	0.07532	0.21087	0.54879	-0.413
Mof_O 	O 	0.76748	0.21085	0.68331	-0.544
Mof_O 	O 	0.8027	0.24478	0.7255	-0.619
Mof_O 	O 	0.82693	0.15687	0.55479	-0.586
Mof_O 	O 	0.88788	0.1621	0.5472	-0.593
Mof_O 	O 	0.1021	0.0271	0.4616	-0.226
Mof_N 	N 	0.97444	0.2767	0.7002	-0.081
Mof_N 	N 	0.93792	0.2676	0.69723	-0.189
Mof_H 	H 	0.9208	0.2752	0.714	0.16
Mof_N 	N 	0.9643	0.2389	0.6444	-0.145
Mof_C 	C 	0.12037	0.28755	0.7089	0.412
Mof_C 	C 	0.09215	0.27516	0.67733	-0.113
Mof_C 	C 	0.10414	0.2634	0.6382	0.041
Mof_H 	H 	0.1292	0.2649	0.6314	0.042
Mof_C 	C 	0.07915	0.2494	0.609	-0.077
Mof_C 	C 	0.04139	0.2477	0.6195	-0.006
Mof_H 	H 	0.0245	0.2378	0.6004	0.057
Mof_C 	C 	0.02899	0.2605	0.6574	-0.024
Mof_C 	C 	0.05456	0.2742	0.68679	0.006
Mof_H 	H 	0.0463	0.2827	0.7127	0.056
Mof_C 	C 	0.98881	0.259	0.6675	0.121
Mof_C 	C 	0.93238	0.245	0.6643	0.163
Mof_C 	C 	0.09261	0.2364	0.5673	0.312
Mof_C 	C 	0.79764	0.22539	0.69331	0.539
Mof_C 	C 	0.83094	0.21909	0.66566	-0.223
Mof_C 	C 	0.86501	0.2348	0.6772	0.1
Mof_H 	H 	0.8667	0.2493	0.7012	0.002
Mof_C 	C 	0.89612	0.2286	0.6526	-0.118
Mof_C 	C 	0.89389	0.2072	0.617	0.105
Mof_H 	H 	0.915	0.2031	0.6009	0.008
Mof_C 	C 	0.86025	0.1918	0.605	-0.228
Mof_C 	C 	0.82866	0.19735	0.6298	0.15
Mof_H 	H 	0.8062	0.1865	0.6223	-0.005
Mof_C 	C 	0.8583	0.1684	0.5655	0.557
Mof_O 	O 	0.128	0.0347	0.4432	-0.225
Mof_O 	O 	0.65382	0.78726	0.19726	-0.528
Mof_O 	O 	0.60994	0.79765	0.2446	-0.315
Mof_O 	O 	0.62244	0.75007	0.05283	-0.451
Mof_O 	O 	0.57532	0.71087	0.04879	-0.412
Mof_O 	O 	0.26748	0.71085	0.18331	-0.545
Mof_O 	O 	0.3027	0.74478	0.2255	-0.619
Mof_O 	O 	0.32693	0.65687	0.05479	-0.567
Mof_O 	O 	0.38788	0.6621	0.0472	-0.578
Mof_O 	O 	0.6021	0.5271	0.9616	-0.174
Mof_N 	N 	0.47444	0.7767	0.2002	-0.082
Mof_N 	N 	0.43792	0.7676	0.19723	-0.189
Mof_H 	H 	0.4208	0.7752	0.214	0.159
Mof_N 	N 	0.4643	0.7389	0.1444	-0.147
Mof_C 	C 	0.62037	0.78755	0.2089	0.412
Mof_C 	C 	0.59215	0.77516	0.17733	-0.117
Mof_C 	C 	0.60414	0.7634	0.1382	0.044
Mof_H 	H 	0.6292	0.7649	0.1314	0.039
Mof_C 	C 	0.57915	0.7494	0.109	-0.084
Mof_C 	C 	0.54139	0.7477	0.1195	-0.004
Mof_H 	H 	0.5245	0.7378	0.1004	0.05
Mof_C 	C 	0.52899	0.7605	0.1574	-0.029
Mof_C 	C 	0.55456	0.7742	0.18679	0.008
Mof_H 	H 	0.5463	0.7827	0.2127	0.054
Mof_C 	C 	0.48881	0.759	0.1675	0.12
Mof_C 	C 	0.43238	0.745	0.1643	0.16
Mof_C 	C 	0.59261	0.7364	0.0673	0.313
Mof_C 	C 	0.29764	0.72539	0.19331	0.537
Mof_C 	C 	0.33094	0.71909	0.16566	-0.222
Mof_C 	C 	0.36501	0.7348	0.1772	0.096
Mof_H 	H 	0.3667	0.7493	0.2012	0.002
Mof_C 	C 	0.39612	0.7286	0.1526	-0.117
Mof_C 	C 	0.39389	0.7072	0.117	0.099
Mof_H 	H 	0.415	0.7031	0.1009	0.007
Mof_C 	C 	0.36025	0.6918	0.105	-0.223
Mof_C 	C 	0.32866	0.69735	0.1298	0.144
Mof_H 	H 	0.3062	0.6865	0.1223	-0.004
Mof_C 	C 	0.3583	0.6684	0.0655	0.537
Mof_O 	O 	0.628	0.5347	0.9432	-0.196
Mof_Tb	Tb	0.28721	0.21279	0.22453	2.243
Mof_Tb	Tb	0.71279	0.78721	0.22453	2.243
Mof_Tb	Tb	0.21279	0.28721	0.72453	2.245
Mof_Tb	Tb	0.78721	0.28721	0.22453	2.243
Mof_Tb	Tb	0.21279	0.71279	0.22453	2.243
Mof_Tb	Tb	0.71279	0.21279	0.27547	2.243
Mof_Tb	Tb	0.28721	0.78721	0.27547	2.243
Mof_Tb	Tb	0.21279	0.28721	0.27547	2.243
Mof_Tb	Tb	0.78721	0.71279	0.27547	2.243
Mof_Tb	Tb	0.71279	0.78721	0.77547	2.246
Mof_Tb	Tb	0.28721	0.21279	0.77547	2.246
Mof_Tb	Tb	0.21279	0.71279	0.77547	2.246
Mof_Tb	Tb	0.78721	0.28721	0.77547	2.246
Mof_Tb	Tb	0.28721	0.78721	0.72453	2.245
Mof_Tb	Tb	0.71279	0.21279	0.72453	2.245
Mof_Tb	Tb	0.78721	0.71279	0.72453	2.245
Mof_Tb	Tb	0.20283	0.12728	-0	1.913
Mof_Tb	Tb	0.08058	0.12699	-0	1.767
Mof_O 	O 	0.1434	0.0979	-0	-0.513
Mof_Tb	Tb	0.70283	0.62728	0.5	2.095
Mof_Tb	Tb	0.58058	0.62699	0.5	1.934
Mof_O 	O 	0.6434	0.5979	0.5	-0.513
Mof_Tb	Tb	0.79717	0.87272	-0	1.913
Mof_Tb	Tb	0.91942	0.87301	-0	1.767
Mof_O 	O 	0.8566	0.9021	-0	-0.513
Mof_Tb	Tb	0.29717	0.37272	0.5	2.095
Mof_Tb	Tb	0.41942	0.37301	0.5	1.934
Mof_O 	O 	0.3566	0.4021	0.5	-0.513
Mof_Tb	Tb	0.87272	0.20283	-0	1.913
Mof_Tb	Tb	0.87301	0.08058	-0	1.767
Mof_O 	O 	0.9021	0.1434	-0	-0.513
Mof_Tb	Tb	0.37272	0.70283	0.5	2.095
Mof_Tb	Tb	0.37301	0.58058	0.5	1.934
Mof_O 	O 	0.4021	0.6434	0.5	-0.513
Mof_Tb	Tb	0.12728	0.79717	-0	1.913
Mof_Tb	Tb	0.12699	0.91942	-0	1.767
Mof_O 	O 	0.0979	0.8566	-0	-0.513
Mof_Tb	Tb	0.62728	0.29717	0.5	2.095
Mof_Tb	Tb	0.62699	0.41942	0.5	1.934
Mof_O 	O 	0.5979	0.3566	0.5	-0.513
Mof_Tb	Tb	0.79717	0.12728	0.5	2.095
Mof_Tb	Tb	0.91942	0.12699	0.5	1.934
Mof_O 	O 	0.8566	0.0979	0.5	-0.513
Mof_Tb	Tb	0.29717	0.62728	-0	1.912
Mof_Tb	Tb	0.41942	0.62699	-0	1.766
Mof_O 	O 	0.3566	0.5979	-0	-0.514
Mof_Tb	Tb	0.20283	0.87272	0.5	2.095
Mof_Tb	Tb	0.08058	0.87301	0.5	1.934
Mof_O 	O 	0.1434	0.9021	0.5	-0.513
Mof_Tb	Tb	0.70283	0.37272	-0	1.912
Mof_Tb	Tb	0.58058	0.37301	-0	1.766
Mof_O 	O 	0.6434	0.4021	-0	-0.514
Mof_Tb	Tb	0.12728	0.20283	0.5	2.095
Mof_Tb	Tb	0.12699	0.08058	0.5	1.934
Mof_O 	O 	0.0979	0.1434	0.5	-0.513
Mof_Tb	Tb	0.62728	0.70283	-0	1.912
Mof_Tb	Tb	0.62699	0.58058	-0	1.766
Mof_O 	O 	0.5979	0.6434	-0	-0.514
Mof_Tb	Tb	0.87272	0.79717	0.5	2.095
Mof_Tb	Tb	0.87301	0.91942	0.5	1.934
Mof_O 	O 	0.9021	0.8566	0.5	-0.513
Mof_Tb	Tb	0.37272	0.29717	-0	1.912
Mof_Tb	Tb	0.37301	0.41942	-0	1.766
Mof_O 	O 	0.4021	0.3566	-0	-0.514
_end
