data_functionalizedCrystal
_audit_creation_method	'EQeq! by Chris Wilmer'
_symmetry_space_group_name_H-M	'P1'
_symmetry_Int_Tables_number	1
_symmetry_cell_setting	triclinic
loop_
_symmetry_equiv_pos_as_xyz
  x,y,z
_cell_length_a	18.819
_cell_length_b	18.819
_cell_length_c	38.603
_cell_angle_alpha	90
_cell_angle_beta	90
_cell_angle_gamma	120
loop_
_atom_site_label
_atom_site_type_symbol
_atom_site_fract_x
_atom_site_fract_y
_atom_site_fract_z
_atom_site_charge
Mof_C 	C 	0.76098	0.97274	0.3074	0.331
Mof_C 	C 	0.81992	0.05228	0.29015	-0.027
Mof_C 	C 	0.80553	0.0668	0.25632	-0.07
Mof_H 	H 	0.7575	0.029	0.2452	0.094
Mof_C 	C 	0.9102	0.187	0.1781	0.041
Mof_C 	C 	0.8679	0.2298	0.1901	0.048
Mof_N 	N 	0.9926	0.197	0.1817	-0.103
Mof_O 	O 	0.7775	0.96167	0.33775	-0.369
Mof_O 	O 	0.69971	0.92281	0.28981	-0.38
Mof_S 	S 	0.0443	0.2436	0.14788	0.113
Mof_N 	N 	0.8974	0.3019	0.2104	-0.105
Mof_C 	C 	0.42765	0.30607	0.64073	0.331
Mof_C 	C 	0.48659	0.38561	0.62348	-0.028
Mof_C 	C 	0.4722	0.40013	0.58965	-0.069
Mof_H 	H 	0.42417	0.36233	0.57853	0.094
Mof_C 	C 	0.57687	0.52033	0.51143	0.04
Mof_C 	C 	0.53457	0.56313	0.52343	0.048
Mof_N 	N 	0.65927	0.53033	0.51503	-0.103
Mof_O 	O 	0.44417	0.295	0.67108	-0.369
Mof_O 	O 	0.36638	0.25614	0.62314	-0.38
Mof_S 	S 	0.71097	0.57693	0.48121	0.114
Mof_N 	N 	0.56407	0.63523	0.54373	-0.105
Mof_C 	C 	0.09431	0.63941	0.97407	0.331
Mof_C 	C 	0.15325	0.71895	0.95682	-0.028
Mof_C 	C 	0.13886	0.73347	0.92299	-0.069
Mof_H 	H 	0.09083	0.69567	0.91187	0.094
Mof_C 	C 	0.24353	0.85367	0.84477	0.04
Mof_C 	C 	0.20123	0.89647	0.85677	0.048
Mof_N 	N 	0.32593	0.86367	0.84837	-0.103
Mof_O 	O 	0.11083	0.62834	0.00442	-0.369
Mof_O 	O 	0.03304	0.58948	0.95648	-0.38
Mof_S 	S 	0.37763	0.91027	0.81455	0.114
Mof_N 	N 	0.23073	0.96857	0.87707	-0.106
Mof_C 	C 	0.02726	0.78824	0.3074	0.33
Mof_C 	C 	0.94772	0.76764	0.29015	-0.028
Mof_C 	C 	0.9332	0.73873	0.25632	-0.07
Mof_H 	H 	0.971	0.7285	0.2452	0.093
Mof_C 	C 	0.813	0.7232	0.1781	0.039
Mof_C 	C 	0.7702	0.6381	0.1901	0.047
Mof_N 	N 	0.803	0.7956	0.1817	-0.104
Mof_O 	O 	0.03833	0.81583	0.33775	-0.37
Mof_O 	O 	0.07719	0.7769	0.28981	-0.381
Mof_S 	S 	0.7564	0.8007	0.14788	0.113
Mof_N 	N 	0.6981	0.5955	0.2104	-0.106
Mof_C 	C 	0.69393	0.12157	0.64073	0.33
Mof_C 	C 	0.61439	0.10097	0.62348	-0.029
Mof_C 	C 	0.59987	0.07206	0.58965	-0.07
Mof_H 	H 	0.63767	0.06183	0.57853	0.093
Mof_C 	C 	0.47967	0.05653	0.51143	0.039
Mof_C 	C 	0.43687	0.97143	0.52343	0.047
Mof_N 	N 	0.46967	0.12893	0.51503	-0.104
Mof_O 	O 	0.705	0.14916	0.67108	-0.37
Mof_O 	O 	0.74386	0.11023	0.62314	-0.381
Mof_S 	S 	0.42307	0.13403	0.48121	0.113
Mof_N 	N 	0.36477	0.92883	0.54373	-0.106
Mof_C 	C 	0.36059	0.45491	0.97407	0.33
Mof_C 	C 	0.28105	0.43431	0.95682	-0.029
Mof_C 	C 	0.26653	0.4054	0.92299	-0.07
Mof_H 	H 	0.30433	0.39517	0.91187	0.093
Mof_C 	C 	0.14633	0.38987	0.84477	0.039
Mof_C 	C 	0.10353	0.30477	0.85677	0.047
Mof_N 	N 	0.13633	0.46227	0.84837	-0.104
Mof_O 	O 	0.37166	0.4825	0.00442	-0.37
Mof_O 	O 	0.41052	0.44357	0.95648	-0.381
Mof_S 	S 	0.08973	0.46737	0.81455	0.113
Mof_N 	N 	0.03143	0.26217	0.87707	-0.106
Mof_C 	C 	0.21176	0.23902	0.3074	0.33
Mof_C 	C 	0.23236	0.18008	0.29015	-0.029
Mof_C 	C 	0.26127	0.19447	0.25632	-0.07
Mof_H 	H 	0.2715	0.2425	0.2452	0.093
Mof_C 	C 	0.2768	0.0898	0.1781	0.04
Mof_C 	C 	0.3619	0.1321	0.1901	0.047
Mof_N 	N 	0.2044	0.0074	0.1817	-0.104
Mof_O 	O 	0.18417	0.2225	0.33775	-0.37
Mof_O 	O 	0.2231	0.30029	0.28981	-0.381
Mof_S 	S 	0.1993	0.9557	0.14788	0.112
Mof_N 	N 	0.4045	0.1026	0.2104	-0.106
Mof_C 	C 	0.87843	0.57235	0.64073	0.33
Mof_C 	C 	0.89903	0.51341	0.62348	-0.029
Mof_C 	C 	0.92794	0.5278	0.58965	-0.07
Mof_H 	H 	0.93817	0.57583	0.57853	0.093
Mof_C 	C 	0.94347	0.42313	0.51143	0.039
Mof_C 	C 	0.02857	0.46543	0.52343	0.047
Mof_N 	N 	0.87107	0.34073	0.51503	-0.104
Mof_O 	O 	0.85084	0.55583	0.67108	-0.37
Mof_O 	O 	0.88977	0.63362	0.62314	-0.381
Mof_S 	S 	0.86597	0.28903	0.48121	0.113
Mof_N 	N 	0.07117	0.43593	0.54373	-0.106
Mof_C 	C 	0.54509	0.90569	0.97407	0.33
Mof_C 	C 	0.56569	0.84675	0.95682	-0.029
Mof_C 	C 	0.5946	0.86114	0.92299	-0.07
Mof_H 	H 	0.60483	0.90917	0.91187	0.093
Mof_C 	C 	0.61013	0.75647	0.84477	0.039
Mof_C 	C 	0.69523	0.79877	0.85677	0.047
Mof_N 	N 	0.53773	0.67407	0.84837	-0.104
Mof_O 	O 	0.5175	0.88917	0.00442	-0.37
Mof_O 	O 	0.55643	0.96696	0.95648	-0.381
Mof_S 	S 	0.53263	0.62237	0.81455	0.113
Mof_N 	N 	0.73783	0.76927	0.87707	-0.106
Mof_C 	C 	0.97274	0.76098	0.6926	0.33
Mof_C 	C 	0.05228	0.81992	0.70985	-0.028
Mof_C 	C 	0.0668	0.80553	0.74368	-0.071
Mof_H 	H 	0.029	0.7575	0.7548	0.093
Mof_C 	C 	0.187	0.9102	0.8219	0.04
Mof_C 	C 	0.2298	0.8679	0.8099	0.047
Mof_N 	N 	0.197	0.9926	0.8183	-0.104
Mof_O 	O 	0.96167	0.7775	0.66225	-0.37
Mof_O 	O 	0.92281	0.69971	0.71019	-0.381
Mof_S 	S 	0.2436	0.0443	0.85212	0.112
Mof_N 	N 	0.3019	0.8974	0.7896	-0.106
Mof_C 	C 	0.63941	0.09431	0.02593	0.33
Mof_C 	C 	0.71895	0.15325	0.04318	-0.029
Mof_C 	C 	0.73347	0.13886	0.07701	-0.07
Mof_H 	H 	0.69567	0.09083	0.08813	0.093
Mof_C 	C 	0.85367	0.24353	0.15523	0.039
Mof_C 	C 	0.89647	0.20123	0.14323	0.047
Mof_N 	N 	0.86367	0.32593	0.15163	-0.104
Mof_O 	O 	0.62834	0.11083	0.99558	-0.37
Mof_O 	O 	0.58948	0.03304	0.04352	-0.381
Mof_S 	S 	0.91027	0.37763	0.18545	0.113
Mof_N 	N 	0.96857	0.23073	0.12293	-0.106
Mof_C 	C 	0.30607	0.42765	0.35927	0.33
Mof_C 	C 	0.38561	0.48659	0.37652	-0.029
Mof_C 	C 	0.40013	0.4722	0.41035	-0.07
Mof_H 	H 	0.36233	0.42417	0.42147	0.093
Mof_C 	C 	0.52033	0.57687	0.48857	0.039
Mof_C 	C 	0.56313	0.53457	0.47657	0.047
Mof_N 	N 	0.53033	0.65927	0.48497	-0.104
Mof_O 	O 	0.295	0.44417	0.32892	-0.37
Mof_O 	O 	0.25614	0.36638	0.37686	-0.381
Mof_S 	S 	0.57693	0.71097	0.51879	0.113
Mof_N 	N 	0.63523	0.56407	0.45627	-0.106
Mof_C 	C 	0.78824	0.02726	0.6926	0.33
Mof_C 	C 	0.76764	0.94772	0.70985	-0.028
Mof_C 	C 	0.73873	0.9332	0.74368	-0.07
Mof_H 	H 	0.7285	0.971	0.7548	0.093
Mof_C 	C 	0.7232	0.813	0.8219	0.039
Mof_C 	C 	0.6381	0.7702	0.8099	0.047
Mof_N 	N 	0.7956	0.803	0.8183	-0.104
Mof_O 	O 	0.81583	0.03833	0.66225	-0.37
Mof_O 	O 	0.7769	0.07719	0.71019	-0.381
Mof_S 	S 	0.8007	0.7564	0.85212	0.113
Mof_N 	N 	0.5955	0.6981	0.7896	-0.106
Mof_C 	C 	0.45491	0.36059	0.02593	0.33
Mof_C 	C 	0.43431	0.28105	0.04318	-0.029
Mof_C 	C 	0.4054	0.26653	0.07701	-0.07
Mof_H 	H 	0.39517	0.30433	0.08813	0.093
Mof_C 	C 	0.38987	0.14633	0.15523	0.039
Mof_C 	C 	0.30477	0.10353	0.14323	0.047
Mof_N 	N 	0.46227	0.13633	0.15163	-0.104
Mof_O 	O 	0.4825	0.37166	0.99558	-0.37
Mof_O 	O 	0.44357	0.41052	0.04352	-0.381
Mof_S 	S 	0.46737	0.08973	0.18545	0.113
Mof_N 	N 	0.26217	0.03143	0.12293	-0.106
Mof_C 	C 	0.12157	0.69393	0.35927	0.33
Mof_C 	C 	0.10097	0.61439	0.37652	-0.029
Mof_C 	C 	0.07206	0.59987	0.41035	-0.07
Mof_H 	H 	0.06183	0.63767	0.42147	0.093
Mof_C 	C 	0.05653	0.47967	0.48857	0.039
Mof_C 	C 	0.97143	0.43687	0.47657	0.047
Mof_N 	N 	0.12893	0.46967	0.48497	-0.104
Mof_O 	O 	0.14916	0.705	0.32892	-0.37
Mof_O 	O 	0.11023	0.74386	0.37686	-0.381
Mof_S 	S 	0.13403	0.42307	0.51879	0.113
Mof_N 	N 	0.92883	0.36477	0.45627	-0.106
Mof_C 	C 	0.23902	0.21176	0.6926	0.33
Mof_C 	C 	0.18008	0.23236	0.70985	-0.029
Mof_C 	C 	0.19447	0.26127	0.74368	-0.07
Mof_H 	H 	0.2425	0.2715	0.7548	0.093
Mof_C 	C 	0.0898	0.2768	0.8219	0.04
Mof_C 	C 	0.1321	0.3619	0.8099	0.047
Mof_N 	N 	0.0074	0.2044	0.8183	-0.104
Mof_O 	O 	0.2225	0.18417	0.66225	-0.37
Mof_O 	O 	0.30029	0.2231	0.71019	-0.381
Mof_S 	S 	0.9557	0.1993	0.85212	0.112
Mof_N 	N 	0.1026	0.4045	0.7896	-0.106
Mof_C 	C 	0.90569	0.54509	0.02593	0.33
Mof_C 	C 	0.84675	0.56569	0.04318	-0.029
Mof_C 	C 	0.86114	0.5946	0.07701	-0.07
Mof_H 	H 	0.90917	0.60483	0.08813	0.093
Mof_C 	C 	0.75647	0.61013	0.15523	0.039
Mof_C 	C 	0.79877	0.69523	0.14323	0.047
Mof_N 	N 	0.67407	0.53773	0.15163	-0.104
Mof_O 	O 	0.88917	0.5175	0.99558	-0.37
Mof_O 	O 	0.96696	0.55643	0.04352	-0.381
Mof_S 	S 	0.62237	0.53263	0.18545	0.113
Mof_N 	N 	0.76927	0.73783	0.12293	-0.106
Mof_C 	C 	0.57235	0.87843	0.35927	0.33
Mof_C 	C 	0.51341	0.89903	0.37652	-0.029
Mof_C 	C 	0.5278	0.92794	0.41035	-0.07
Mof_H 	H 	0.57583	0.93817	0.42147	0.093
Mof_C 	C 	0.42313	0.94347	0.48857	0.039
Mof_C 	C 	0.46543	0.02857	0.47657	0.047
Mof_N 	N 	0.34073	0.87107	0.48497	-0.104
Mof_O 	O 	0.55583	0.85084	0.32892	-0.37
Mof_O 	O 	0.63362	0.88977	0.37686	-0.381
Mof_S 	S 	0.28903	0.86597	0.51879	0.113
Mof_N 	N 	0.43593	0.07117	0.45627	-0.106
Mof_C 	C 	0.23902	0.02726	0.6926	0.33
Mof_C 	C 	0.18008	0.94772	0.70985	-0.028
Mof_C 	C 	0.19447	0.9332	0.74368	-0.071
Mof_H 	H 	0.2425	0.971	0.7548	0.093
Mof_C 	C 	0.0898	0.813	0.8219	0.04
Mof_C 	C 	0.1321	0.7702	0.8099	0.047
Mof_N 	N 	0.0074	0.803	0.8183	-0.104
Mof_O 	O 	0.2225	0.03833	0.66225	-0.37
Mof_O 	O 	0.30029	0.07719	0.71019	-0.381
Mof_S 	S 	0.9557	0.7564	0.85212	0.112
Mof_N 	N 	0.1026	0.6981	0.7896	-0.106
Mof_C 	C 	0.90569	0.36059	0.02593	0.33
Mof_C 	C 	0.84675	0.28105	0.04318	-0.029
Mof_C 	C 	0.86114	0.26653	0.07701	-0.07
Mof_H 	H 	0.90917	0.30433	0.08813	0.093
Mof_C 	C 	0.75647	0.14633	0.15523	0.039
Mof_C 	C 	0.79877	0.10353	0.14323	0.047
Mof_N 	N 	0.67407	0.13633	0.15163	-0.104
Mof_O 	O 	0.88917	0.37166	0.99558	-0.37
Mof_O 	O 	0.96696	0.41052	0.04352	-0.381
Mof_S 	S 	0.62237	0.08973	0.18545	0.113
Mof_N 	N 	0.76927	0.03143	0.12293	-0.106
Mof_C 	C 	0.57235	0.69393	0.35927	0.33
Mof_C 	C 	0.51341	0.61439	0.37652	-0.029
Mof_C 	C 	0.5278	0.59987	0.41035	-0.07
Mof_H 	H 	0.57583	0.63767	0.42147	0.093
Mof_C 	C 	0.42313	0.47967	0.48857	0.039
Mof_C 	C 	0.46543	0.43687	0.47657	0.047
Mof_N 	N 	0.34073	0.46967	0.48497	-0.104
Mof_O 	O 	0.55583	0.705	0.32892	-0.37
Mof_O 	O 	0.63362	0.74386	0.37686	-0.381
Mof_S 	S 	0.28903	0.42307	0.51879	0.113
Mof_N 	N 	0.43593	0.36477	0.45627	-0.106
Mof_C 	C 	0.97274	0.21176	0.6926	0.33
Mof_C 	C 	0.05228	0.23236	0.70985	-0.028
Mof_C 	C 	0.0668	0.26127	0.74368	-0.07
Mof_H 	H 	0.029	0.2715	0.7548	0.093
Mof_C 	C 	0.187	0.2768	0.8219	0.039
Mof_C 	C 	0.2298	0.3619	0.8099	0.047
Mof_N 	N 	0.197	0.2044	0.8183	-0.104
Mof_O 	O 	0.96167	0.18417	0.66225	-0.37
Mof_O 	O 	0.92281	0.2231	0.71019	-0.381
Mof_S 	S 	0.2436	0.1993	0.85212	0.113
Mof_N 	N 	0.3019	0.4045	0.7896	-0.106
Mof_C 	C 	0.63941	0.54509	0.02593	0.33
Mof_C 	C 	0.71895	0.56569	0.04318	-0.029
Mof_C 	C 	0.73347	0.5946	0.07701	-0.07
Mof_H 	H 	0.69567	0.60483	0.08813	0.093
Mof_C 	C 	0.85367	0.61013	0.15523	0.039
Mof_C 	C 	0.89647	0.69523	0.14323	0.047
Mof_N 	N 	0.86367	0.53773	0.15163	-0.104
Mof_O 	O 	0.62834	0.5175	0.99558	-0.37
Mof_O 	O 	0.58948	0.55643	0.04352	-0.381
Mof_S 	S 	0.91027	0.53263	0.18545	0.113
Mof_N 	N 	0.96857	0.73783	0.12293	-0.106
Mof_C 	C 	0.30607	0.87843	0.35927	0.33
Mof_C 	C 	0.38561	0.89903	0.37652	-0.029
Mof_C 	C 	0.40013	0.92794	0.41035	-0.07
Mof_H 	H 	0.36233	0.93817	0.42147	0.093
Mof_C 	C 	0.52033	0.94347	0.48857	0.039
Mof_C 	C 	0.56313	0.02857	0.47657	0.047
Mof_N 	N 	0.53033	0.87107	0.48497	-0.104
Mof_O 	O 	0.295	0.85084	0.32892	-0.37
Mof_O 	O 	0.25614	0.88977	0.37686	-0.381
Mof_S 	S 	0.57693	0.86597	0.51879	0.113
Mof_N 	N 	0.63523	0.07117	0.45627	-0.106
Mof_C 	C 	0.78824	0.76098	0.6926	0.33
Mof_C 	C 	0.76764	0.81992	0.70985	-0.029
Mof_C 	C 	0.73873	0.80553	0.74368	-0.07
Mof_H 	H 	0.7285	0.7575	0.7548	0.093
Mof_C 	C 	0.7232	0.9102	0.8219	0.04
Mof_C 	C 	0.6381	0.8679	0.8099	0.047
Mof_N 	N 	0.7956	0.9926	0.8183	-0.104
Mof_O 	O 	0.81583	0.7775	0.66225	-0.37
Mof_O 	O 	0.7769	0.69971	0.71019	-0.381
Mof_S 	S 	0.8007	0.0443	0.85212	0.112
Mof_N 	N 	0.5955	0.8974	0.7896	-0.106
Mof_C 	C 	0.45491	0.09431	0.02593	0.33
Mof_C 	C 	0.43431	0.15325	0.04318	-0.029
Mof_C 	C 	0.4054	0.13886	0.07701	-0.07
Mof_H 	H 	0.39517	0.09083	0.08813	0.093
Mof_C 	C 	0.38987	0.24353	0.15523	0.039
Mof_C 	C 	0.30477	0.20123	0.14323	0.047
Mof_N 	N 	0.46227	0.32593	0.15163	-0.104
Mof_O 	O 	0.4825	0.11083	0.99558	-0.37
Mof_O 	O 	0.44357	0.03304	0.04352	-0.381
Mof_S 	S 	0.46737	0.37763	0.18545	0.113
Mof_N 	N 	0.26217	0.23073	0.12293	-0.106
Mof_C 	C 	0.12157	0.42765	0.35927	0.33
Mof_C 	C 	0.10097	0.48659	0.37652	-0.029
Mof_C 	C 	0.07206	0.4722	0.41035	-0.07
Mof_H 	H 	0.06183	0.42417	0.42147	0.093
Mof_C 	C 	0.05653	0.57687	0.48857	0.039
Mof_C 	C 	0.97143	0.53457	0.47657	0.047
Mof_N 	N 	0.12893	0.65927	0.48497	-0.104
Mof_O 	O 	0.14916	0.44417	0.32892	-0.37
Mof_O 	O 	0.11023	0.36638	0.37686	-0.381
Mof_S 	S 	0.13403	0.71097	0.51879	0.113
Mof_N 	N 	0.92883	0.56407	0.45627	-0.106
Mof_C 	C 	0.02726	0.23902	0.3074	0.33
Mof_C 	C 	0.94772	0.18008	0.29015	-0.028
Mof_C 	C 	0.9332	0.19447	0.25632	-0.071
Mof_H 	H 	0.971	0.2425	0.2452	0.093
Mof_C 	C 	0.813	0.0898	0.1781	0.04
Mof_C 	C 	0.7702	0.1321	0.1901	0.047
Mof_N 	N 	0.803	0.0074	0.1817	-0.104
Mof_O 	O 	0.03833	0.2225	0.33775	-0.37
Mof_O 	O 	0.07719	0.30029	0.28981	-0.381
Mof_S 	S 	0.7564	0.9557	0.14788	0.112
Mof_N 	N 	0.6981	0.1026	0.2104	-0.106
Mof_C 	C 	0.69393	0.57235	0.64073	0.33
Mof_C 	C 	0.61439	0.51341	0.62348	-0.029
Mof_C 	C 	0.59987	0.5278	0.58965	-0.07
Mof_H 	H 	0.63767	0.57583	0.57853	0.093
Mof_C 	C 	0.47967	0.42313	0.51143	0.039
Mof_C 	C 	0.43687	0.46543	0.52343	0.047
Mof_N 	N 	0.46967	0.34073	0.51503	-0.104
Mof_O 	O 	0.705	0.55583	0.67108	-0.37
Mof_O 	O 	0.74386	0.63362	0.62314	-0.381
Mof_S 	S 	0.42307	0.28903	0.48121	0.113
Mof_N 	N 	0.36477	0.43593	0.54373	-0.106
Mof_C 	C 	0.36059	0.90569	0.97407	0.33
Mof_C 	C 	0.28105	0.84675	0.95682	-0.029
Mof_C 	C 	0.26653	0.86114	0.92299	-0.07
Mof_H 	H 	0.30433	0.90917	0.91187	0.093
Mof_C 	C 	0.14633	0.75647	0.84477	0.039
Mof_C 	C 	0.10353	0.79877	0.85677	0.047
Mof_N 	N 	0.13633	0.67407	0.84837	-0.104
Mof_O 	O 	0.37166	0.88917	0.00442	-0.37
Mof_O 	O 	0.41052	0.96696	0.95648	-0.381
Mof_S 	S 	0.08973	0.62237	0.81455	0.113
Mof_N 	N 	0.03143	0.76927	0.87707	-0.106
Mof_C 	C 	0.21176	0.97274	0.3074	0.33
Mof_C 	C 	0.23236	0.05228	0.29015	-0.028
Mof_C 	C 	0.26127	0.0668	0.25632	-0.07
Mof_H 	H 	0.2715	0.029	0.2452	0.093
Mof_C 	C 	0.2768	0.187	0.1781	0.039
Mof_C 	C 	0.3619	0.2298	0.1901	0.047
Mof_N 	N 	0.2044	0.197	0.1817	-0.104
Mof_O 	O 	0.18417	0.96167	0.33775	-0.37
Mof_O 	O 	0.2231	0.92281	0.28981	-0.381
Mof_S 	S 	0.1993	0.2436	0.14788	0.113
Mof_N 	N 	0.4045	0.3019	0.2104	-0.106
Mof_C 	C 	0.87843	0.30607	0.64073	0.33
Mof_C 	C 	0.89903	0.38561	0.62348	-0.029
Mof_C 	C 	0.92794	0.40013	0.58965	-0.07
Mof_H 	H 	0.93817	0.36233	0.57853	0.093
Mof_C 	C 	0.94347	0.52033	0.51143	0.039
Mof_C 	C 	0.02857	0.56313	0.52343	0.047
Mof_N 	N 	0.87107	0.53033	0.51503	-0.104
Mof_O 	O 	0.85084	0.295	0.67108	-0.37
Mof_O 	O 	0.88977	0.25614	0.62314	-0.381
Mof_S 	S 	0.86597	0.57693	0.48121	0.113
Mof_N 	N 	0.07117	0.63523	0.54373	-0.106
Mof_C 	C 	0.54509	0.63941	0.97407	0.33
Mof_C 	C 	0.56569	0.71895	0.95682	-0.029
Mof_C 	C 	0.5946	0.73347	0.92299	-0.07
Mof_H 	H 	0.60483	0.69567	0.91187	0.093
Mof_C 	C 	0.61013	0.85367	0.84477	0.039
Mof_C 	C 	0.69523	0.89647	0.85677	0.047
Mof_N 	N 	0.53773	0.86367	0.84837	-0.104
Mof_O 	O 	0.5175	0.62834	0.00442	-0.37
Mof_O 	O 	0.55643	0.58948	0.95648	-0.381
Mof_S 	S 	0.53263	0.91027	0.81455	0.113
Mof_N 	N 	0.73783	0.96857	0.87707	-0.106
Mof_C 	C 	0.76098	0.78824	0.3074	0.33
Mof_C 	C 	0.81992	0.76764	0.29015	-0.029
Mof_C 	C 	0.80553	0.73873	0.25632	-0.07
Mof_H 	H 	0.7575	0.7285	0.2452	0.093
Mof_C 	C 	0.9102	0.7232	0.1781	0.04
Mof_C 	C 	0.8679	0.6381	0.1901	0.047
Mof_N 	N 	0.9926	0.7956	0.1817	-0.104
Mof_O 	O 	0.7775	0.81583	0.33775	-0.37
Mof_O 	O 	0.69971	0.7769	0.28981	-0.381
Mof_S 	S 	0.0443	0.8007	0.14788	0.112
Mof_N 	N 	0.8974	0.5955	0.2104	-0.106
Mof_C 	C 	0.42765	0.12157	0.64073	0.33
Mof_C 	C 	0.48659	0.10097	0.62348	-0.029
Mof_C 	C 	0.4722	0.07206	0.58965	-0.07
Mof_H 	H 	0.42417	0.06183	0.57853	0.093
Mof_C 	C 	0.57687	0.05653	0.51143	0.039
Mof_C 	C 	0.53457	0.97143	0.52343	0.047
Mof_N 	N 	0.65927	0.12893	0.51503	-0.104
Mof_O 	O 	0.44417	0.14916	0.67108	-0.37
Mof_O 	O 	0.36638	0.11023	0.62314	-0.381
Mof_S 	S 	0.71097	0.13403	0.48121	0.113
Mof_N 	N 	0.56407	0.92883	0.54373	-0.106
Mof_C 	C 	0.09431	0.45491	0.97407	0.33
Mof_C 	C 	0.15325	0.43431	0.95682	-0.029
Mof_C 	C 	0.13886	0.4054	0.92299	-0.07
Mof_H 	H 	0.09083	0.39517	0.91187	0.093
Mof_C 	C 	0.24353	0.38987	0.84477	0.039
Mof_C 	C 	0.20123	0.30477	0.85677	0.047
Mof_N 	N 	0.32593	0.46227	0.84837	-0.104
Mof_O 	O 	0.11083	0.4825	0.00442	-0.37
Mof_O 	O 	0.03304	0.44357	0.95648	-0.381
Mof_S 	S 	0.37763	0.46737	0.81455	0.113
Mof_N 	N 	0.23073	0.26217	0.87707	-0.106
Mof_C 	C 	0.89135	0.10865	0.30705	-0.018
Mof_H 	H 	0.9014	0.0986	0.3296	0.083
Mof_C 	C 	0.86235	0.13765	0.23871	0.088
Mof_C 	C 	0.8474	0.1526	0.20237	-0.064
Mof_C 	C 	0.55802	0.44198	0.64038	-0.018
Mof_H 	H 	0.56807	0.43193	0.66293	0.083
Mof_C 	C 	0.52902	0.47098	0.57204	0.088
Mof_C 	C 	0.51407	0.48593	0.5357	-0.064
Mof_C 	C 	0.22468	0.77532	0.97372	-0.018
Mof_H 	H 	0.23473	0.76527	0.99627	0.083
Mof_C 	C 	0.19568	0.80432	0.90538	0.088
Mof_C 	C 	0.18073	0.81927	0.86904	-0.064
Mof_C 	C 	0.89135	0.7827	0.30705	-0.018
Mof_H 	H 	0.9014	0.8028	0.3296	0.083
Mof_C 	C 	0.86235	0.7247	0.23871	0.088
Mof_C 	C 	0.8474	0.6948	0.20237	-0.064
Mof_C 	C 	0.55802	0.11603	0.64038	-0.018
Mof_H 	H 	0.56807	0.13613	0.66293	0.083
Mof_C 	C 	0.52902	0.05803	0.57204	0.088
Mof_C 	C 	0.51407	0.02813	0.5357	-0.064
Mof_C 	C 	0.22468	0.44937	0.97372	-0.018
Mof_H 	H 	0.23473	0.46947	0.99627	0.083
Mof_C 	C 	0.19568	0.39137	0.90538	0.088
Mof_C 	C 	0.18073	0.36147	0.86904	-0.064
Mof_C 	C 	0.2173	0.10865	0.30705	-0.018
Mof_H 	H 	0.1972	0.0986	0.3296	0.083
Mof_C 	C 	0.2753	0.13765	0.23871	0.088
Mof_C 	C 	0.3052	0.1526	0.20237	-0.064
Mof_C 	C 	0.88397	0.44198	0.64038	-0.018
Mof_H 	H 	0.86387	0.43193	0.66293	0.083
Mof_C 	C 	0.94197	0.47098	0.57204	0.088
Mof_C 	C 	0.97187	0.48593	0.5357	-0.064
Mof_C 	C 	0.55063	0.77532	0.97372	-0.018
Mof_H 	H 	0.53053	0.76527	0.99627	0.083
Mof_C 	C 	0.60863	0.80432	0.90538	0.088
Mof_C 	C 	0.63853	0.81927	0.86904	-0.064
Mof_C 	C 	0.10865	0.89135	0.69295	-0.018
Mof_H 	H 	0.0986	0.9014	0.6704	0.083
Mof_C 	C 	0.13765	0.86235	0.76129	0.088
Mof_C 	C 	0.1526	0.8474	0.79763	-0.064
Mof_C 	C 	0.77532	0.22468	0.02628	-0.018
Mof_H 	H 	0.76527	0.23473	0.00373	0.083
Mof_C 	C 	0.80432	0.19568	0.09462	0.088
Mof_C 	C 	0.81927	0.18073	0.13096	-0.064
Mof_C 	C 	0.44198	0.55802	0.35962	-0.018
Mof_H 	H 	0.43193	0.56807	0.33707	0.083
Mof_C 	C 	0.47098	0.52902	0.42796	0.088
Mof_C 	C 	0.48593	0.51407	0.4643	-0.064
Mof_C 	C 	0.7827	0.89135	0.69295	-0.018
Mof_H 	H 	0.8028	0.9014	0.6704	0.083
Mof_C 	C 	0.7247	0.86235	0.76129	0.088
Mof_C 	C 	0.6948	0.8474	0.79763	-0.064
Mof_C 	C 	0.44937	0.22468	0.02628	-0.018
Mof_H 	H 	0.46947	0.23473	0.00373	0.083
Mof_C 	C 	0.39137	0.19568	0.09462	0.088
Mof_C 	C 	0.36147	0.18073	0.13096	-0.064
Mof_C 	C 	0.11603	0.55802	0.35962	-0.018
Mof_H 	H 	0.13613	0.56807	0.33707	0.083
Mof_C 	C 	0.05803	0.52902	0.42796	0.088
Mof_C 	C 	0.02813	0.51407	0.4643	-0.064
Mof_C 	C 	0.10865	0.2173	0.69295	-0.018
Mof_H 	H 	0.0986	0.1972	0.6704	0.083
Mof_C 	C 	0.13765	0.2753	0.76129	0.088
Mof_C 	C 	0.1526	0.3052	0.79763	-0.064
Mof_C 	C 	0.77532	0.55063	0.02628	-0.018
Mof_H 	H 	0.76527	0.53053	0.00373	0.083
Mof_C 	C 	0.80432	0.60863	0.09462	0.088
Mof_C 	C 	0.81927	0.63853	0.13096	-0.064
Mof_C 	C 	0.44198	0.88397	0.35962	-0.018
Mof_H 	H 	0.43193	0.86387	0.33707	0.083
Mof_C 	C 	0.47098	0.94197	0.42796	0.088
Mof_C 	C 	0.48593	0.97187	0.4643	-0.064
Mof_O 	O 	0.7803	0.89015	0.40982	-0.371
Mof_H 	H 	0.7499	0.87495	0.4277	0.227
Mof_Cu	Cu	0.7123	0.85615	0.36169	0.929
Mof_O 	O 	0.44697	0.22348	0.74315	-0.371
Mof_H 	H 	0.41657	0.20828	0.76103	0.227
Mof_Cu	Cu	0.37897	0.18948	0.69502	0.929
Mof_O 	O 	0.11363	0.55682	0.07649	-0.371
Mof_H 	H 	0.08323	0.54162	0.09437	0.227
Mof_Cu	Cu	0.04563	0.52282	0.02835	0.929
Mof_O 	O 	0.10985	0.89015	0.40982	-0.371
Mof_H 	H 	0.12505	0.87495	0.4277	0.227
Mof_Cu	Cu	0.14385	0.85615	0.36169	0.929
Mof_O 	O 	0.77652	0.22348	0.74315	-0.371
Mof_H 	H 	0.79172	0.20828	0.76103	0.227
Mof_Cu	Cu	0.81052	0.18948	0.69502	0.929
Mof_O 	O 	0.44318	0.55682	0.07649	-0.371
Mof_H 	H 	0.45838	0.54162	0.09437	0.227
Mof_Cu	Cu	0.47718	0.52282	0.02835	0.929
Mof_O 	O 	0.10985	0.2197	0.40982	-0.371
Mof_H 	H 	0.12505	0.2501	0.4277	0.227
Mof_Cu	Cu	0.14385	0.2877	0.36169	0.929
Mof_O 	O 	0.77652	0.55303	0.74315	-0.371
Mof_H 	H 	0.79172	0.58343	0.76103	0.227
Mof_Cu	Cu	0.81052	0.62103	0.69502	0.929
Mof_O 	O 	0.44318	0.88637	0.07649	-0.371
Mof_H 	H 	0.45838	0.91677	0.09437	0.227
Mof_Cu	Cu	0.47718	0.95437	0.02835	0.929
Mof_O 	O 	0.89015	0.7803	0.59018	-0.371
Mof_H 	H 	0.87495	0.7499	0.5723	0.227
Mof_Cu	Cu	0.85615	0.7123	0.63831	0.929
Mof_O 	O 	0.55682	0.11363	0.92351	-0.371
Mof_H 	H 	0.54162	0.08323	0.90563	0.227
Mof_Cu	Cu	0.52282	0.04563	0.97165	0.929
Mof_O 	O 	0.22348	0.44697	0.25685	-0.371
Mof_H 	H 	0.20828	0.41657	0.23897	0.227
Mof_Cu	Cu	0.18948	0.37897	0.30498	0.929
Mof_O 	O 	0.89015	0.10985	0.59018	-0.371
Mof_H 	H 	0.87495	0.12505	0.5723	0.227
Mof_Cu	Cu	0.85615	0.14385	0.63831	0.929
Mof_O 	O 	0.55682	0.44318	0.92351	-0.371
Mof_H 	H 	0.54162	0.45838	0.90563	0.227
Mof_Cu	Cu	0.52282	0.47718	0.97165	0.929
Mof_O 	O 	0.22348	0.77652	0.25685	-0.371
Mof_H 	H 	0.20828	0.79172	0.23897	0.227
Mof_Cu	Cu	0.18948	0.81052	0.30498	0.929
Mof_O 	O 	0.2197	0.10985	0.59018	-0.371
Mof_H 	H 	0.2501	0.12505	0.5723	0.227
Mof_Cu	Cu	0.2877	0.14385	0.63831	0.929
Mof_O 	O 	0.88637	0.44318	0.92351	-0.371
Mof_H 	H 	0.91677	0.45838	0.90563	0.227
Mof_Cu	Cu	0.95437	0.47718	0.97165	0.929
Mof_O 	O 	0.55303	0.77652	0.25685	-0.371
Mof_H 	H 	0.58343	0.79172	0.23897	0.227
Mof_Cu	Cu	0.62103	0.81052	0.30498	0.929
_end
