data_functionalizedCrystal
_audit_creation_method	'EQeq! by Chris Wilmer'
_symmetry_space_group_name_H-M	'P1'
_symmetry_Int_Tables_number	1
_symmetry_cell_setting	triclinic
loop_
_symmetry_equiv_pos_as_xyz
  x,y,z
_cell_length_a	20.7475
_cell_length_b	20.7475
_cell_length_c	20.7475
_cell_angle_alpha	90
_cell_angle_beta	90
_cell_angle_gamma	90
loop_
_atom_site_label
_atom_site_type_symbol
_atom_site_fract_x
_atom_site_fract_y
_atom_site_fract_z
_atom_site_charge
Mof_Zr	Zr	0.11957	0	-0	3.218
Mof_Zr	Zr	0.11957	0.5	0.5	3.28
Mof_Zr	Zr	0.61957	0	0.5	3.223
Mof_Zr	Zr	0.61957	0.5	-0	3.223
Mof_Zr	Zr	0.88043	0	-0	3.163
Mof_Zr	Zr	0.88043	0.5	0.5	3.223
Mof_Zr	Zr	0.38043	0	0.5	3.222
Mof_Zr	Zr	0.38043	0.5	-0	3.222
Mof_Zr	Zr	1.41326e-33	0.11957	-0	3.218
Mof_Zr	Zr	-3.77835e-33	0.61957	0.5	3.223
Mof_Zr	Zr	0.5	0.11957	0.5	3.28
Mof_Zr	Zr	0.5	0.61957	-0	3.223
Mof_Zr	Zr	-0	0.88043	-0	3.163
Mof_Zr	Zr	7.52775e-33	0.38043	0.5	3.222
Mof_Zr	Zr	0.5	0.88043	0.5	3.223
Mof_Zr	Zr	0.5	0.38043	-0	3.222
Mof_Zr	Zr	1.86158e-33	1.41326e-33	0.11957	3.218
Mof_Zr	Zr	-3.33004e-33	0.5	0.61957	3.223
Mof_Zr	Zr	0.5	0	0.61957	3.224
Mof_Zr	Zr	0.5	0.5	0.11957	3.281
Mof_Zr	Zr	3.30108e-33	0	0.88043	3.164
Mof_Zr	Zr	7.07944e-33	0.5	0.38043	3.223
Mof_Zr	Zr	0.5	2.82653e-33	0.38043	3.223
Mof_Zr	Zr	0.5	0.5	0.88043	3.224
Mof_O 	O 	0.16983	0.09448	-0	-0.358
Mof_C 	C 	0.18575	0.26721	-0	-0.038
Mof_H 	H 	0.1415	0.279	-0	0.013
Mof_O 	O 	0.1852	0.0786	-0	-0.315
Mof_O 	O 	0.16983	0.59448	0.5	-0.212
Mof_C 	C 	0.18575	0.76721	0.5	0.019
Mof_H 	H 	0.1415	0.779	0.5	0.077
Mof_O 	O 	0.1852	0.5786	0.5	-0.324
Mof_O 	O 	0.66983	0.09448	0.5	-0.253
Mof_C 	C 	0.68575	0.26721	0.5	0.002
Mof_H 	H 	0.6415	0.279	0.5	0.067
Mof_O 	O 	0.6852	0.0786	0.5	-0.305
Mof_O 	O 	0.66983	0.59448	-0	-0.305
Mof_C 	C 	0.68575	0.76721	-0	0.016
Mof_H 	H 	0.6415	0.779	-0	0.042
Mof_O 	O 	0.6852	0.5786	-0	-0.323
Mof_O 	O 	0.83017	0.90552	-0	-0.151
Mof_C 	C 	0.81425	0.73279	-0	-0.099
Mof_H 	H 	0.8585	0.721	-0	0.117
Mof_O 	O 	0.8148	0.9214	-0	-0.324
Mof_O 	O 	0.83017	0.40552	0.5	-0.307
Mof_C 	C 	0.81425	0.23279	0.5	-0.06
Mof_H 	H 	0.8585	0.221	0.5	0.145
Mof_O 	O 	0.8148	0.4214	0.5	-0.228
Mof_O 	O 	0.33017	0.90552	0.5	0.013
Mof_C 	C 	0.31425	0.73279	0.5	-0.058
Mof_H 	H 	0.3585	0.721	0.5	0.084
Mof_O 	O 	0.3148	0.9214	0.5	-0.391
Mof_O 	O 	0.33017	0.40552	-0	-0.344
Mof_C 	C 	0.31425	0.23279	-0	-0.058
Mof_H 	H 	0.3585	0.221	-0	0.023
Mof_O 	O 	0.3148	0.4214	-0	-0.305
Mof_O 	O 	0.83017	0.09448	-0	-0.45
Mof_C 	C 	0.81425	0.26721	-0	-0.07
Mof_H 	H 	0.8585	0.279	-0	0.108
Mof_O 	O 	0.8148	0.0786	-0	-0.218
Mof_O 	O 	0.83017	0.59448	0.5	-0.307
Mof_C 	C 	0.81425	0.76721	0.5	-0.014
Mof_H 	H 	0.8585	0.779	0.5	0.169
Mof_O 	O 	0.8148	0.5786	0.5	-0.227
Mof_O 	O 	0.33017	0.09448	0.5	-0.291
Mof_C 	C 	0.31425	0.26721	0.5	-0.027
Mof_H 	H 	0.3585	0.279	0.5	0.074
Mof_O 	O 	0.3148	0.0786	0.5	-0.283
Mof_O 	O 	0.33017	0.59448	-0	-0.344
Mof_C 	C 	0.31425	0.76721	-0	-0.011
Mof_H 	H 	0.3585	0.779	-0	0.049
Mof_O 	O 	0.3148	0.5786	-0	-0.302
Mof_O 	O 	0.16983	0.90552	-0	-0.052
Mof_C 	C 	0.18575	0.73279	-0	-0.069
Mof_H 	H 	0.1415	0.721	-0	0.024
Mof_O 	O 	0.1852	0.9214	-0	-0.424
Mof_O 	O 	0.16983	0.40552	0.5	-0.212
Mof_C 	C 	0.18575	0.23279	0.5	-0.028
Mof_H 	H 	0.1415	0.221	0.5	0.051
Mof_O 	O 	0.1852	0.4214	0.5	-0.326
Mof_O 	O 	0.66983	0.90552	0.5	0.047
Mof_C 	C 	0.68575	0.73279	0.5	-0.03
Mof_H 	H 	0.6415	0.721	0.5	0.076
Mof_O 	O 	0.6852	0.9214	0.5	-0.411
Mof_O 	O 	0.66983	0.40552	-0	-0.305
Mof_C 	C 	0.68575	0.23279	-0	-0.029
Mof_H 	H 	0.6415	0.221	-0	0.016
Mof_O 	O 	0.6852	0.4214	-0	-0.326
Mof_O 	O 	3.54243e-34	0.16983	0.09448	-0.358
Mof_C 	C 	-1.82465e-33	0.18575	0.26721	-0.038
Mof_H 	H 	-1.78044e-33	0.1415	0.279	0.013
Mof_O 	O 	1.70797e-33	0.1852	0.0786	-0.315
Mof_O 	O 	7.882e-33	0.66983	0.59448	-0.305
Mof_C 	C 	-2.77648e-33	0.68575	0.76721	0.016
Mof_H 	H 	8.57384e-33	0.6415	0.779	0.042
Mof_O 	O 	1.34755e-32	0.6852	0.5786	-0.323
Mof_O 	O 	0.5	0.16983	0.59448	-0.212
Mof_C 	C 	0.5	0.18575	0.76721	0.019
Mof_H 	H 	0.5	0.1415	0.779	0.077
Mof_O 	O 	0.5	0.1852	0.5786	-0.324
Mof_O 	O 	0.5	0.66983	0.09448	-0.253
Mof_C 	C 	0.5	0.68575	0.26721	0.002
Mof_H 	H 	0.5	0.6415	0.279	0.067
Mof_O 	O 	0.5	0.6852	0.0786	-0.305
Mof_O 	O 	1.47013e-32	0.83017	0.90552	-0.151
Mof_C 	C 	1.40536e-32	0.81425	0.73279	-0.099
Mof_H 	H 	8.35637e-33	0.8585	0.721	0.117
Mof_O 	O 	2.60669e-32	0.8148	0.9214	-0.324
Mof_O 	O 	-1.30607e-33	0.33017	0.40552	-0.344
Mof_C 	C 	6.52588e-33	0.31425	0.23279	-0.058
Mof_H 	H 	-4.82444e-33	0.3585	0.221	0.023
Mof_O 	O 	1.58e-33	0.3148	0.4214	-0.305
Mof_O 	O 	0.5	0.83017	0.40552	-0.307
Mof_C 	C 	0.5	0.81425	0.23279	-0.06
Mof_H 	H 	0.5	0.8585	0.221	0.145
Mof_O 	O 	0.5	0.8148	0.4214	-0.228
Mof_O 	O 	0.5	0.33017	0.90552	0.013
Mof_C 	C 	0.5	0.31425	0.73279	-0.058
Mof_H 	H 	0.5	0.3585	0.721	0.084
Mof_O 	O 	0.5	0.3148	0.9214	-0.391
Mof_O 	O 	-9.5386e-33	0.83017	0.09448	-0.45
Mof_C 	C 	6.65493e-33	0.81425	0.26721	-0.07
Mof_H 	H 	9.52566e-33	0.8585	0.279	0.108
Mof_O 	O 	4.53449e-33	0.8148	0.0786	-0.218
Mof_O 	O 	7.882e-33	0.33017	0.59448	-0.344
Mof_C 	C 	2.87658e-33	0.31425	0.76721	-0.011
Mof_H 	H 	8.57384e-33	0.3585	0.779	0.049
Mof_O 	O 	1.91286e-32	0.3148	0.5786	-0.302
Mof_O 	O 	0.5	0.83017	0.59448	-0.307
Mof_C 	C 	0.5	0.81425	0.76721	-0.014
Mof_H 	H 	0.5	0.8585	0.779	0.169
Mof_O 	O 	0.5	0.8148	0.5786	-0.227
Mof_O 	O 	0.5	0.33017	0.09448	-0.291
Mof_C 	C 	0.5	0.31425	0.26721	-0.027
Mof_H 	H 	0.5	0.3585	0.279	0.074
Mof_O 	O 	0.5	0.3148	0.0786	-0.283
Mof_O 	O 	3.39516e-33	0.16983	0.90552	-0.052
Mof_C 	C 	-8.55858e-33	0.18575	0.73279	-0.069
Mof_H 	H 	2.70332e-33	0.1415	0.721	0.024
Mof_O 	O 	3.4547e-33	0.1852	0.9214	-0.424
Mof_O 	O 	1.52046e-33	0.66983	0.40552	-0.305
Mof_C 	C 	-1.9537e-33	0.68575	0.23279	-0.029
Mof_H 	H 	3.65514e-33	0.6415	0.221	0.016
Mof_O 	O 	7.23305e-33	0.6852	0.4214	-0.326
Mof_O 	O 	0.5	0.16983	0.40552	-0.212
Mof_C 	C 	0.5	0.18575	0.23279	-0.028
Mof_H 	H 	0.5	0.1415	0.221	0.051
Mof_O 	O 	0.5	0.1852	0.4214	-0.326
Mof_O 	O 	0.5	0.66983	0.90552	0.047
Mof_C 	C 	0.5	0.68575	0.73279	-0.03
Mof_H 	H 	0.5	0.6415	0.721	0.076
Mof_O 	O 	0.5	0.6852	0.9214	-0.411
Mof_O 	O 	0.09448	1.41326e-33	0.16983	-0.358
Mof_C 	C 	0.26721	0	0.18575	-0.038
Mof_H 	H 	0.279	-1.41326e-33	0.1415	0.013
Mof_O 	O 	0.0786	0	0.1852	-0.315
Mof_O 	O 	0.09448	0.5	0.66983	-0.253
Mof_C 	C 	0.26721	0.5	0.68575	0.002
Mof_H 	H 	0.279	0.5	0.6415	0.067
Mof_O 	O 	0.0786	0.5	0.6852	-0.305
Mof_O 	O 	0.59448	0	0.66983	-0.305
Mof_C 	C 	0.76721	5.65305e-33	0.68575	0.016
Mof_H 	H 	0.779	0	0.6415	0.042
Mof_O 	O 	0.5786	5.65305e-33	0.6852	-0.323
Mof_O 	O 	0.59448	0.5	0.16983	-0.212
Mof_C 	C 	0.76721	0.5	0.18575	0.019
Mof_H 	H 	0.779	0.5	0.1415	0.077
Mof_O 	O 	0.5786	0.5	0.1852	-0.324
Mof_O 	O 	0.90552	-5.65305e-33	0.83017	-0.151
Mof_C 	C 	0.73279	5.65305e-33	0.81425	-0.099
Mof_H 	H 	0.721	1.13061e-32	0.8585	0.117
Mof_O 	O 	0.9214	5.65305e-33	0.8148	-0.324
Mof_O 	O 	0.90552	0.5	0.33017	0.013
Mof_C 	C 	0.73279	0.5	0.31425	-0.058
Mof_H 	H 	0.721	0.5	0.3585	0.084
Mof_O 	O 	0.9214	0.5	0.3148	-0.391
Mof_O 	O 	0.40552	0	0.33017	-0.344
Mof_C 	C 	0.23279	2.82653e-33	0.31425	-0.058
Mof_H 	H 	0.221	0	0.3585	0.023
Mof_O 	O 	0.4214	2.82653e-33	0.3148	-0.305
Mof_O 	O 	0.40552	0.5	0.83017	-0.307
Mof_C 	C 	0.23279	0.5	0.81425	-0.06
Mof_H 	H 	0.221	0.5	0.8585	0.145
Mof_O 	O 	0.4214	0.5	0.8148	-0.228
Mof_O 	O 	0.09448	-5.65305e-33	0.83017	-0.45
Mof_C 	C 	0.26721	5.65305e-33	0.81425	-0.07
Mof_H 	H 	0.279	1.13061e-32	0.8585	0.108
Mof_O 	O 	0.0786	5.65305e-33	0.8148	-0.218
Mof_O 	O 	0.09448	0.5	0.33017	-0.291
Mof_C 	C 	0.26721	0.5	0.31425	-0.027
Mof_H 	H 	0.279	0.5	0.3585	0.074
Mof_O 	O 	0.0786	0.5	0.3148	-0.283
Mof_O 	O 	0.59448	0	0.33017	-0.344
Mof_C 	C 	0.76721	2.82653e-33	0.31425	-0.011
Mof_H 	H 	0.779	0	0.3585	0.049
Mof_O 	O 	0.5786	2.82653e-33	0.3148	-0.302
Mof_O 	O 	0.59448	0.5	0.83017	-0.307
Mof_C 	C 	0.76721	0.5	0.81425	-0.014
Mof_H 	H 	0.779	0.5	0.8585	0.169
Mof_O 	O 	0.5786	0.5	0.8148	-0.227
Mof_O 	O 	0.90552	1.41326e-33	0.16983	-0.052
Mof_C 	C 	0.73279	0	0.18575	-0.069
Mof_H 	H 	0.721	-1.41326e-33	0.1415	0.024
Mof_O 	O 	0.9214	0	0.1852	-0.424
Mof_O 	O 	0.90552	0.5	0.66983	0.047
Mof_C 	C 	0.73279	0.5	0.68575	-0.03
Mof_H 	H 	0.721	0.5	0.6415	0.076
Mof_O 	O 	0.9214	0.5	0.6852	-0.411
Mof_O 	O 	0.40552	0	0.66983	-0.305
Mof_C 	C 	0.23279	5.65305e-33	0.68575	-0.029
Mof_H 	H 	0.221	0	0.6415	0.016
Mof_O 	O 	0.4214	5.65305e-33	0.6852	-0.326
Mof_O 	O 	0.40552	0.5	0.16983	-0.212
Mof_C 	C 	0.23279	0.5	0.18575	-0.028
Mof_H 	H 	0.221	0.5	0.1415	0.051
Mof_O 	O 	0.4214	0.5	0.1852	-0.326
Mof_O 	O 	0.09448	0.16983	-0	-0.358
Mof_C 	C 	0.26721	0.18575	-0	-0.038
Mof_H 	H 	0.279	0.1415	-0	0.013
Mof_O 	O 	0.0786	0.1852	-0	-0.315
Mof_O 	O 	0.09448	0.66983	0.5	-0.253
Mof_C 	C 	0.26721	0.68575	0.5	0.002
Mof_H 	H 	0.279	0.6415	0.5	0.067
Mof_O 	O 	0.0786	0.6852	0.5	-0.305
Mof_O 	O 	0.59448	0.16983	0.5	-0.212
Mof_C 	C 	0.76721	0.18575	0.5	0.019
Mof_H 	H 	0.779	0.1415	0.5	0.077
Mof_O 	O 	0.5786	0.1852	0.5	-0.324
Mof_O 	O 	0.59448	0.66983	-0	-0.305
Mof_C 	C 	0.76721	0.68575	-0	0.016
Mof_H 	H 	0.779	0.6415	-0	0.042
Mof_O 	O 	0.5786	0.6852	-0	-0.323
Mof_O 	O 	0.90552	0.83017	-0	-0.151
Mof_C 	C 	0.73279	0.81425	-0	-0.099
Mof_H 	H 	0.721	0.8585	-0	0.117
Mof_O 	O 	0.9214	0.8148	-0	-0.324
Mof_O 	O 	0.90552	0.33017	0.5	0.013
Mof_C 	C 	0.73279	0.31425	0.5	-0.058
Mof_H 	H 	0.721	0.3585	0.5	0.084
Mof_O 	O 	0.9214	0.3148	0.5	-0.391
Mof_O 	O 	0.40552	0.83017	0.5	-0.307
Mof_C 	C 	0.23279	0.81425	0.5	-0.06
Mof_H 	H 	0.221	0.8585	0.5	0.145
Mof_O 	O 	0.4214	0.8148	0.5	-0.228
Mof_O 	O 	0.40552	0.33017	-0	-0.344
Mof_C 	C 	0.23279	0.31425	-0	-0.058
Mof_H 	H 	0.221	0.3585	-0	0.023
Mof_O 	O 	0.4214	0.3148	-0	-0.305
Mof_O 	O 	0.09448	0.83017	-0	-0.45
Mof_C 	C 	0.26721	0.81425	-0	-0.07
Mof_H 	H 	0.279	0.8585	-0	0.108
Mof_O 	O 	0.0786	0.8148	-0	-0.218
Mof_O 	O 	0.09448	0.33017	0.5	-0.291
Mof_C 	C 	0.26721	0.31425	0.5	-0.027
Mof_H 	H 	0.279	0.3585	0.5	0.074
Mof_O 	O 	0.0786	0.3148	0.5	-0.283
Mof_O 	O 	0.59448	0.83017	0.5	-0.307
Mof_C 	C 	0.76721	0.81425	0.5	-0.014
Mof_H 	H 	0.779	0.8585	0.5	0.169
Mof_O 	O 	0.5786	0.8148	0.5	-0.227
Mof_O 	O 	0.59448	0.33017	-0	-0.344
Mof_C 	C 	0.76721	0.31425	-0	-0.011
Mof_H 	H 	0.779	0.3585	-0	0.049
Mof_O 	O 	0.5786	0.3148	-0	-0.302
Mof_O 	O 	0.90552	0.16983	-0	-0.052
Mof_C 	C 	0.73279	0.18575	-0	-0.069
Mof_H 	H 	0.721	0.1415	-0	0.024
Mof_O 	O 	0.9214	0.1852	-0	-0.424
Mof_O 	O 	0.90552	0.66983	0.5	0.047
Mof_C 	C 	0.73279	0.68575	0.5	-0.03
Mof_H 	H 	0.721	0.6415	0.5	0.076
Mof_O 	O 	0.9214	0.6852	0.5	-0.411
Mof_O 	O 	0.40552	0.16983	0.5	-0.212
Mof_C 	C 	0.23279	0.18575	0.5	-0.028
Mof_H 	H 	0.221	0.1415	0.5	0.051
Mof_O 	O 	0.4214	0.1852	0.5	-0.326
Mof_O 	O 	0.40552	0.66983	-0	-0.305
Mof_C 	C 	0.23279	0.68575	-0	-0.029
Mof_H 	H 	0.221	0.6415	-0	0.016
Mof_O 	O 	0.4214	0.6852	-0	-0.326
Mof_O 	O 	0.16983	1.13061e-32	0.90552	-0.052
Mof_C 	C 	0.18575	0	0.73279	-0.069
Mof_H 	H 	0.1415	5.65305e-33	0.721	0.024
Mof_O 	O 	0.1852	1.13061e-32	0.9214	-0.424
Mof_O 	O 	0.16983	0.5	0.40552	-0.212
Mof_C 	C 	0.18575	0.5	0.23279	-0.028
Mof_H 	H 	0.1415	0.5	0.221	0.051
Mof_O 	O 	0.1852	0.5	0.4214	-0.326
Mof_O 	O 	0.66983	0	0.40552	-0.305
Mof_C 	C 	0.68575	0	0.23279	-0.029
Mof_H 	H 	0.6415	0	0.221	0.016
Mof_O 	O 	0.6852	-5.65305e-33	0.4214	-0.326
Mof_O 	O 	0.66983	0.5	0.90552	0.047
Mof_C 	C 	0.68575	0.5	0.73279	-0.03
Mof_H 	H 	0.6415	0.5	0.721	0.076
Mof_O 	O 	0.6852	0.5	0.9214	-0.411
Mof_O 	O 	0.83017	-7.06632e-34	0.09448	-0.45
Mof_C 	C 	0.81425	2.82653e-33	0.26721	-0.07
Mof_H 	H 	0.8585	0	0.279	0.108
Mof_O 	O 	0.8148	7.06632e-34	0.0786	-0.218
Mof_O 	O 	0.83017	0.5	0.59448	-0.307
Mof_C 	C 	0.81425	0.5	0.76721	-0.014
Mof_H 	H 	0.8585	0.5	0.779	0.169
Mof_O 	O 	0.8148	0.5	0.5786	-0.227
Mof_O 	O 	0.33017	5.65305e-33	0.59448	-0.344
Mof_C 	C 	0.31425	5.65305e-33	0.76721	-0.011
Mof_H 	H 	0.3585	5.65305e-33	0.779	0.049
Mof_O 	O 	0.3148	5.65305e-33	0.5786	-0.302
Mof_O 	O 	0.33017	0.5	0.09448	-0.291
Mof_C 	C 	0.31425	0.5	0.26721	-0.027
Mof_H 	H 	0.3585	0.5	0.279	0.074
Mof_O 	O 	0.3148	0.5	0.0786	-0.283
Mof_O 	O 	0.83017	1.13061e-32	0.90552	-0.151
Mof_C 	C 	0.81425	0	0.73279	-0.099
Mof_H 	H 	0.8585	5.65305e-33	0.721	0.117
Mof_O 	O 	0.8148	1.13061e-32	0.9214	-0.324
Mof_O 	O 	0.83017	0.5	0.40552	-0.307
Mof_C 	C 	0.81425	0.5	0.23279	-0.06
Mof_H 	H 	0.8585	0.5	0.221	0.145
Mof_O 	O 	0.8148	0.5	0.4214	-0.228
Mof_O 	O 	0.33017	0	0.40552	-0.344
Mof_C 	C 	0.31425	0	0.23279	-0.058
Mof_H 	H 	0.3585	0	0.221	0.023
Mof_O 	O 	0.3148	-5.65305e-33	0.4214	-0.305
Mof_O 	O 	0.33017	0.5	0.90552	0.013
Mof_C 	C 	0.31425	0.5	0.73279	-0.058
Mof_H 	H 	0.3585	0.5	0.721	0.084
Mof_O 	O 	0.3148	0.5	0.9214	-0.391
Mof_O 	O 	0.16983	-7.06632e-34	0.09448	-0.358
Mof_C 	C 	0.18575	2.82653e-33	0.26721	-0.038
Mof_H 	H 	0.1415	0	0.279	0.013
Mof_O 	O 	0.1852	7.06632e-34	0.0786	-0.315
Mof_O 	O 	0.16983	0.5	0.59448	-0.212
Mof_C 	C 	0.18575	0.5	0.76721	0.019
Mof_H 	H 	0.1415	0.5	0.779	0.077
Mof_O 	O 	0.1852	0.5	0.5786	-0.324
Mof_O 	O 	0.66983	5.65305e-33	0.59448	-0.305
Mof_C 	C 	0.68575	5.65305e-33	0.76721	0.016
Mof_H 	H 	0.6415	5.65305e-33	0.779	0.042
Mof_O 	O 	0.6852	5.65305e-33	0.5786	-0.323
Mof_O 	O 	0.66983	0.5	0.09448	-0.253
Mof_C 	C 	0.68575	0.5	0.26721	0.002
Mof_H 	H 	0.6415	0.5	0.279	0.067
Mof_O 	O 	0.6852	0.5	0.0786	-0.305
Mof_O 	O 	-8.19347e-33	0.09448	0.83017	-0.45
Mof_C 	C 	3.05295e-33	0.26721	0.81425	-0.07
Mof_H 	H 	1.4525e-32	0.279	0.8585	0.108
Mof_O 	O 	3.05501e-33	0.0786	0.8148	-0.218
Mof_O 	O 	6.89099e-33	0.59448	0.33017	-0.344
Mof_C 	C 	4.00478e-33	0.76721	0.31425	-0.011
Mof_H 	H 	9.82374e-33	0.779	0.3585	0.049
Mof_O 	O 	1.81395e-32	0.5786	0.3148	-0.302
Mof_O 	O 	0.5	0.09448	0.33017	-0.291
Mof_C 	C 	0.5	0.26721	0.31425	-0.027
Mof_H 	H 	0.5	0.279	0.3585	0.074
Mof_O 	O 	0.5	0.0786	0.3148	-0.283
Mof_O 	O 	0.5	0.59448	0.83017	-0.307
Mof_C 	C 	0.5	0.76721	0.81425	-0.014
Mof_H 	H 	0.5	0.779	0.8585	0.169
Mof_O 	O 	0.5	0.5786	0.8148	-0.227
Mof_O 	O 	7.70308e-33	0.90552	0.16983	-0.052
Mof_C 	C 	-6.36987e-33	0.73279	0.18575	-0.069
Mof_H 	H 	5.3054e-34	0.721	0.1415	0.024
Mof_O 	O 	9.17397e-33	0.9214	0.1852	-0.424
Mof_O 	O 	2.51146e-33	0.40552	0.66983	-0.305
Mof_C 	C 	-3.0819e-33	0.23279	0.68575	-0.029
Mof_H 	H 	8.05829e-33	0.221	0.6415	0.016
Mof_O 	O 	8.22214e-33	0.4214	0.6852	-0.326
Mof_O 	O 	0.5	0.90552	0.66983	0.047
Mof_C 	C 	0.5	0.73279	0.68575	-0.03
Mof_H 	H 	0.5	0.721	0.6415	0.076
Mof_O 	O 	0.5	0.9214	0.6852	-0.411
Mof_O 	O 	0.5	0.40552	0.16983	-0.212
Mof_C 	C 	0.5	0.23279	0.18575	-0.028
Mof_H 	H 	0.5	0.221	0.1415	0.051
Mof_O 	O 	0.5	0.4214	0.1852	-0.326
Mof_O 	O 	-7.76503e-34	0.09448	0.16983	-0.358
Mof_C 	C 	-7.16812e-34	0.26721	0.18575	-0.038
Mof_H 	H 	-2.29599e-33	0.279	0.1415	0.013
Mof_O 	O 	6.94389e-34	0.0786	0.1852	-0.315
Mof_O 	O 	8.16451e-33	0.59448	0.66983	-0.305
Mof_C 	C 	2.57115e-33	0.76721	0.68575	0.016
Mof_H 	H 	1.37113e-32	0.779	0.6415	0.042
Mof_O 	O 	1.38752e-32	0.5786	0.6852	-0.323
Mof_O 	O 	0.5	0.09448	0.66983	-0.253
Mof_C 	C 	0.5	0.26721	0.68575	0.002
Mof_H 	H 	0.5	0.279	0.6415	0.067
Mof_O 	O 	0.5	0.0786	0.6852	-0.305
Mof_O 	O 	0.5	0.59448	0.16983	-0.212
Mof_C 	C 	0.5	0.76721	0.18575	0.019
Mof_H 	H 	0.5	0.779	0.1415	0.077
Mof_O 	O 	0.5	0.5786	0.1852	-0.324
Mof_O 	O 	2.00718e-32	0.90552	0.83017	-0.151
Mof_C 	C 	8.706e-33	0.73279	0.81425	-0.099
Mof_H 	H 	3.21886e-33	0.721	0.8585	0.117
Mof_O 	O 	2.56672e-32	0.9214	0.8148	-0.324
Mof_O 	O 	1.23794e-33	0.40552	0.33017	-0.344
Mof_C 	C 	6.8313e-33	0.23279	0.31425	-0.058
Mof_H 	H 	-4.30889e-33	0.221	0.3585	0.023
Mof_O 	O 	1.18031e-33	0.4214	0.3148	-0.305
Mof_O 	O 	0.5	0.90552	0.33017	0.013
Mof_C 	C 	0.5	0.73279	0.31425	-0.058
Mof_H 	H 	0.5	0.721	0.3585	0.084
Mof_O 	O 	0.5	0.9214	0.3148	-0.391
Mof_O 	O 	0.5	0.40552	0.83017	-0.307
Mof_C 	C 	0.5	0.23279	0.81425	-0.06
Mof_H 	H 	0.5	0.221	0.8585	0.145
Mof_O 	O 	0.5	0.4214	0.8148	-0.228
Mof_C 	C 	0.15169	0.15169	-0	0.23
Mof_C 	C 	0.20306	0.20306	-0	-0.057
Mof_C 	C 	0.15169	0.65169	0.5	0.225
Mof_C 	C 	0.20306	0.70306	0.5	-0.012
Mof_C 	C 	0.65169	0.15169	0.5	0.225
Mof_C 	C 	0.70306	0.20306	0.5	-0.012
Mof_C 	C 	0.65169	0.65169	-0	0.2
Mof_C 	C 	0.70306	0.70306	-0	-0.061
Mof_C 	C 	0.84831	0.84831	-0	0.108
Mof_C 	C 	0.79694	0.79694	-0	0.073
Mof_C 	C 	0.84831	0.34831	0.5	0.164
Mof_C 	C 	0.79694	0.29694	0.5	0.063
Mof_C 	C 	0.34831	0.84831	0.5	0.164
Mof_C 	C 	0.29694	0.79694	0.5	0.063
Mof_C 	C 	0.34831	0.34831	-0	0.205
Mof_C 	C 	0.29694	0.29694	-0	-0.044
Mof_C 	C 	0.84831	0.15169	-0	0.168
Mof_C 	C 	0.79694	0.20306	-0	0.01
Mof_C 	C 	0.84831	0.65169	0.5	0.163
Mof_C 	C 	0.79694	0.70306	0.5	0.052
Mof_C 	C 	0.34831	0.15169	0.5	0.227
Mof_C 	C 	0.29694	0.20306	0.5	-0.003
Mof_C 	C 	0.34831	0.65169	-0	0.203
Mof_C 	C 	0.29694	0.70306	-0	-0.053
Mof_C 	C 	0.15169	0.84831	-0	0.168
Mof_C 	C 	0.20306	0.79694	-0	0.01
Mof_C 	C 	0.15169	0.34831	0.5	0.227
Mof_C 	C 	0.20306	0.29694	0.5	-0.003
Mof_C 	C 	0.65169	0.84831	0.5	0.163
Mof_C 	C 	0.70306	0.79694	0.5	0.052
Mof_C 	C 	0.65169	0.34831	-0	0.203
Mof_C 	C 	0.70306	0.29694	-0	-0.053
Mof_C 	C 	5.68746e-34	0.15169	0.15169	0.23
Mof_C 	C 	3.58788e-33	0.20306	0.20306	-0.057
Mof_C 	C 	1.37496e-32	0.65169	0.65169	0.2
Mof_C 	C 	-3.017e-33	0.70306	0.70306	-0.061
Mof_C 	C 	0.5	0.15169	0.65169	0.225
Mof_C 	C 	0.5	0.20306	0.70306	-0.012
Mof_C 	C 	0.5	0.65169	0.15169	0.225
Mof_C 	C 	0.5	0.70306	0.20306	-0.012
Mof_C 	C 	3.18065e-33	0.84831	0.84831	0.108
Mof_C 	C 	-8.31806e-33	0.79694	0.79694	0.073
Mof_C 	C 	6.95901e-33	0.34831	0.34831	0.205
Mof_C 	C 	1.11335e-33	0.29694	0.29694	-0.044
Mof_C 	C 	0.5	0.84831	0.34831	0.164
Mof_C 	C 	0.5	0.79694	0.29694	0.063
Mof_C 	C 	0.5	0.34831	0.84831	0.164
Mof_C 	C 	0.5	0.29694	0.79694	0.063
Mof_C 	C 	6.2218e-33	0.84831	0.15169	0.168
Mof_C 	C 	-6.30496e-33	0.79694	0.20306	0.01
Mof_C 	C 	8.0965e-33	0.34831	0.65169	0.203
Mof_C 	C 	8.28911e-33	0.29694	0.70306	-0.053
Mof_C 	C 	0.5	0.84831	0.65169	0.163
Mof_C 	C 	0.5	0.79694	0.70306	0.052
Mof_C 	C 	0.5	0.34831	0.15169	0.227
Mof_C 	C 	0.5	0.29694	0.20306	-0.003
Mof_C 	C 	3.18065e-33	0.15169	0.84831	0.168
Mof_C 	C 	-8.31806e-33	0.20306	0.79694	0.01
Mof_C 	C 	9.78553e-33	0.65169	0.34831	0.203
Mof_C 	C 	3.93987e-33	0.70306	0.29694	-0.053
Mof_C 	C 	0.5	0.15169	0.34831	0.227
Mof_C 	C 	0.5	0.20306	0.29694	-0.003
Mof_C 	C 	0.5	0.65169	0.84831	0.163
Mof_C 	C 	0.5	0.70306	0.79694	0.052
Mof_C 	C 	0.15169	0	0.15169	0.23
Mof_C 	C 	0.20306	1.41326e-33	0.20306	-0.057
Mof_C 	C 	0.15169	0.5	0.65169	0.225
Mof_C 	C 	0.20306	0.5	0.70306	-0.012
Mof_C 	C 	0.65169	5.65305e-33	0.65169	0.2
Mof_C 	C 	0.70306	0	0.70306	-0.061
Mof_C 	C 	0.65169	0.5	0.15169	0.225
Mof_C 	C 	0.70306	0.5	0.20306	-0.012
Mof_C 	C 	0.84831	0	0.84831	0.108
Mof_C 	C 	0.79694	-5.65305e-33	0.79694	0.073
Mof_C 	C 	0.84831	0.5	0.34831	0.164
Mof_C 	C 	0.79694	0.5	0.29694	0.063
Mof_C 	C 	0.34831	2.82653e-33	0.34831	0.205
Mof_C 	C 	0.29694	0	0.29694	-0.044
Mof_C 	C 	0.34831	0.5	0.84831	0.164
Mof_C 	C 	0.29694	0.5	0.79694	0.063
Mof_C 	C 	0.15169	0	0.84831	0.168
Mof_C 	C 	0.20306	-5.65305e-33	0.79694	0.01
Mof_C 	C 	0.15169	0.5	0.34831	0.227
Mof_C 	C 	0.20306	0.5	0.29694	-0.003
Mof_C 	C 	0.65169	2.82653e-33	0.34831	0.203
Mof_C 	C 	0.70306	0	0.29694	-0.053
Mof_C 	C 	0.65169	0.5	0.84831	0.163
Mof_C 	C 	0.70306	0.5	0.79694	0.052
Mof_C 	C 	0.84831	0	0.15169	0.168
Mof_C 	C 	0.79694	1.41326e-33	0.20306	0.01
Mof_C 	C 	0.84831	0.5	0.65169	0.163
Mof_C 	C 	0.79694	0.5	0.70306	0.052
Mof_C 	C 	0.34831	5.65305e-33	0.65169	0.203
Mof_C 	C 	0.29694	0	0.70306	-0.053
Mof_C 	C 	0.34831	0.5	0.15169	0.227
Mof_C 	C 	0.29694	0.5	0.20306	-0.003
Mof_O 	O 	0.0668	0.0668	0.0668	5.452
Mof_O 	O 	0.0496	0.0496	0.0496	-5.85
Mof_H 	H 	0.0946	0.0946	0.0946	-1.63
Mof_O 	O 	0.0668	0.5668	0.5668	2.917
Mof_O 	O 	0.0496	0.5496	0.5496	-3.542
Mof_H 	H 	0.0946	0.5946	0.5946	-0.896
Mof_O 	O 	0.5668	0.0668	0.5668	2.917
Mof_O 	O 	0.5496	0.0496	0.5496	-3.542
Mof_H 	H 	0.5946	0.0946	0.5946	-0.896
Mof_O 	O 	0.5668	0.5668	0.0668	2.917
Mof_O 	O 	0.5496	0.5496	0.0496	-3.542
Mof_H 	H 	0.5946	0.5946	0.0946	-0.896
Mof_O 	O 	0.9332	0.9332	0.0668	0.124
Mof_O 	O 	0.9504	0.9504	0.0496	-0.903
Mof_H 	H 	0.9054	0.9054	0.0946	0.043
Mof_O 	O 	0.9332	0.4332	0.5668	0.056
Mof_O 	O 	0.9504	0.4504	0.5496	-0.891
Mof_H 	H 	0.9054	0.4054	0.5946	-0.005
Mof_O 	O 	0.4332	0.9332	0.5668	0.056
Mof_O 	O 	0.4504	0.9504	0.5496	-0.891
Mof_H 	H 	0.4054	0.9054	0.5946	-0.005
Mof_O 	O 	0.4332	0.4332	0.0668	2.938
Mof_O 	O 	0.4504	0.4504	0.0496	-3.559
Mof_H 	H 	0.4054	0.4054	0.0946	-0.907
Mof_O 	O 	0.9332	0.0668	0.9332	0.124
Mof_O 	O 	0.9504	0.0496	0.9504	-0.903
Mof_H 	H 	0.9054	0.0946	0.9054	0.043
Mof_O 	O 	0.9332	0.5668	0.4332	0.056
Mof_O 	O 	0.9504	0.5496	0.4504	-0.891
Mof_H 	H 	0.9054	0.5946	0.4054	-0.005
Mof_O 	O 	0.4332	0.0668	0.4332	2.938
Mof_O 	O 	0.4504	0.0496	0.4504	-3.559
Mof_H 	H 	0.4054	0.0946	0.4054	-0.907
Mof_O 	O 	0.4332	0.5668	0.9332	0.056
Mof_O 	O 	0.4504	0.5496	0.9504	-0.891
Mof_H 	H 	0.4054	0.5946	0.9054	-0.005
Mof_O 	O 	0.0668	0.9332	0.9332	0.124
Mof_O 	O 	0.0496	0.9504	0.9504	-0.903
Mof_H 	H 	0.0946	0.9054	0.9054	0.043
Mof_O 	O 	0.0668	0.4332	0.4332	2.938
Mof_O 	O 	0.0496	0.4504	0.4504	-3.559
Mof_H 	H 	0.0946	0.4054	0.4054	-0.907
Mof_O 	O 	0.5668	0.9332	0.4332	0.056
Mof_O 	O 	0.5496	0.9504	0.4504	-0.891
Mof_H 	H 	0.5946	0.9054	0.4054	-0.005
Mof_O 	O 	0.5668	0.4332	0.9332	0.056
Mof_O 	O 	0.5496	0.4504	0.9504	-0.891
Mof_H 	H 	0.5946	0.4054	0.9054	-0.005
Mof_O 	O 	0.0668	0.0668	0.9332	2.899
Mof_O 	O 	0.0496	0.0496	0.9504	-3.473
Mof_H 	H 	0.0946	0.0946	0.9054	-0.823
Mof_O 	O 	0.0668	0.5668	0.4332	2.928
Mof_O 	O 	0.0496	0.5496	0.4504	-3.551
Mof_H 	H 	0.0946	0.5946	0.4054	-0.902
Mof_O 	O 	0.5668	0.0668	0.4332	2.928
Mof_O 	O 	0.5496	0.0496	0.4504	-3.551
Mof_H 	H 	0.5946	0.0946	0.4054	-0.902
Mof_O 	O 	0.5668	0.5668	0.9332	0.033
Mof_O 	O 	0.5496	0.5496	0.9504	-0.871
Mof_H 	H 	0.5946	0.5946	0.9054	0.003
Mof_O 	O 	0.9332	0.9332	0.9332	-2.873
Mof_O 	O 	0.9504	0.9504	0.9504	1.862
Mof_H 	H 	0.9054	0.9054	0.9054	0.969
Mof_O 	O 	0.9332	0.4332	0.4332	0.079
Mof_O 	O 	0.9504	0.4504	0.4504	-0.909
Mof_H 	H 	0.9054	0.4054	0.4054	-0.013
Mof_O 	O 	0.4332	0.9332	0.4332	0.079
Mof_O 	O 	0.4504	0.9504	0.4504	-0.909
Mof_H 	H 	0.4054	0.9054	0.4054	-0.013
Mof_O 	O 	0.4332	0.4332	0.9332	0.079
Mof_O 	O 	0.4504	0.4504	0.9504	-0.909
Mof_H 	H 	0.4054	0.4054	0.9054	-0.013
Mof_O 	O 	0.0668	0.9332	0.0668	2.899
Mof_O 	O 	0.0496	0.9504	0.0496	-3.473
Mof_H 	H 	0.0946	0.9054	0.0946	-0.823
Mof_O 	O 	0.0668	0.4332	0.5668	2.928
Mof_O 	O 	0.0496	0.4504	0.5496	-3.551
Mof_H 	H 	0.0946	0.4054	0.5946	-0.902
Mof_O 	O 	0.5668	0.9332	0.5668	0.033
Mof_O 	O 	0.5496	0.9504	0.5496	-0.871
Mof_H 	H 	0.5946	0.9054	0.5946	0.003
Mof_O 	O 	0.5668	0.4332	0.0668	2.928
Mof_O 	O 	0.5496	0.4504	0.0496	-3.551
Mof_H 	H 	0.5946	0.4054	0.0946	-0.902
Mof_O 	O 	0.9332	0.0668	0.0668	2.899
Mof_O 	O 	0.9504	0.0496	0.0496	-3.473
Mof_H 	H 	0.9054	0.0946	0.0946	-0.823
Mof_O 	O 	0.9332	0.5668	0.5668	0.033
Mof_O 	O 	0.9504	0.5496	0.5496	-0.871
Mof_H 	H 	0.9054	0.5946	0.5946	0.003
Mof_O 	O 	0.4332	0.0668	0.5668	2.928
Mof_O 	O 	0.4504	0.0496	0.5496	-3.551
Mof_H 	H 	0.4054	0.0946	0.5946	-0.902
Mof_O 	O 	0.4332	0.5668	0.0668	2.928
Mof_O 	O 	0.4504	0.5496	0.0496	-3.551
Mof_H 	H 	0.4054	0.5946	0.0946	-0.902
_end
