data_functionalizedCrystal
_audit_creation_method	'EQeq! by Chris Wilmer'
_symmetry_space_group_name_H-M	'P1'
_symmetry_Int_Tables_number	1
_symmetry_cell_setting	triclinic
loop_
_symmetry_equiv_pos_as_xyz
  x,y,z
_cell_length_a	18.348
_cell_length_b	18.348
_cell_length_c	65.094
_cell_angle_alpha	90
_cell_angle_beta	90
_cell_angle_gamma	120
loop_
_atom_site_label
_atom_site_type_symbol
_atom_site_fract_x
_atom_site_fract_y
_atom_site_fract_z
_atom_site_charge
Mof_C 	C 	0.9099	0.3631	0.6006	0.333
Mof_C 	C 	0.8404	0.2918	0.6116	-0.067
Mof_C 	C 	0.8364	0.2904	0.6332	-0.031
Mof_H 	H 	0.8759	0.3386	0.6406	0.061
Mof_C 	C 	0.8456	0.2812	0.6774	-0.003
Mof_C 	C 	0.8493	0.284	0.6987	0.005
Mof_C 	C 	0.777	0.236	0.7102	0.001
Mof_C 	C 	0.852	0.2759	0.7424	0.005
Mof_C 	C 	0.8568	0.2711	0.7636	0.006
Mof_C 	C 	0.787	0.0991	0.8037	0.001
Mof_C 	C 	0.7919	0.0844	0.8244	-0.008
Mof_C 	C 	0.8285	0.152	0.83806	-0.001
Mof_C 	C 	0.7662	0.1403	0.831	-0.001
Mof_C 	C 	0.8547	0.2484	0.8102	-0
Mof_C 	C 	0.9256	0.204	0.8703	-0.002
Mof_H 	H 	0.965	0.2548	0.8636	0.054
Mof_C 	C 	0.9399	0.1846	0.8906	-0.122
Mof_C 	C 	0.026	0.2392	0.8998	0.406
Mof_O 	O 	0.976	0.4139	0.60994	-0.401
Mof_O 	O 	0.8888	0.371	0.58205	-0.393
Mof_O 	O 	0.0371	0.2257	0.91699	-0.436
Mof_O 	O 	0.0772	0.3039	0.8895	-0.407
Mof_C 	C 	0.57657	0.69643	0.93393	0.333
Mof_C 	C 	0.50707	0.62513	0.94493	-0.068
Mof_C 	C 	0.50307	0.62373	0.96653	-0.032
Mof_H 	H 	0.54257	0.67193	0.97393	0.06
Mof_C 	C 	0.51227	0.61453	0.01073	-0.004
Mof_C 	C 	0.51597	0.61733	0.03203	0.004
Mof_C 	C 	0.44367	0.56933	0.04353	-0
Mof_C 	C 	0.51867	0.60923	0.07573	0.003
Mof_C 	C 	0.52347	0.60443	0.09693	0.004
Mof_C 	C 	0.45367	0.43243	0.13703	-0.001
Mof_C 	C 	0.45857	0.41773	0.15773	-0.009
Mof_C 	C 	0.49517	0.48533	0.17139	-0.001
Mof_C 	C 	0.43287	0.47363	0.16433	-0.001
Mof_C 	C 	0.52137	0.58173	0.14353	-0
Mof_C 	C 	0.59227	0.53733	0.20363	0.001
Mof_H 	H 	0.63167	0.58813	0.19693	0.052
Mof_C 	C 	0.60657	0.51793	0.22393	-0.126
Mof_C 	C 	0.69267	0.57253	0.23313	0.409
Mof_O 	O 	0.64267	0.74723	0.94327	-0.402
Mof_O 	O 	0.55547	0.70433	0.91538	-0.394
Mof_O 	O 	0.70377	0.55903	0.25032	-0.436
Mof_O 	O 	0.74387	0.63723	0.22283	-0.407
Mof_C 	C 	0.24323	0.02977	0.26727	0.331
Mof_C 	C 	0.17373	0.95847	0.27827	-0.067
Mof_C 	C 	0.16973	0.95707	0.29987	-0.027
Mof_H 	H 	0.20923	0.00527	0.30727	0.057
Mof_C 	C 	0.17893	0.94787	0.34407	-0.003
Mof_C 	C 	0.18263	0.95067	0.36537	0.004
Mof_C 	C 	0.11033	0.90267	0.37687	-0
Mof_C 	C 	0.18533	0.94257	0.40907	0.004
Mof_C 	C 	0.19013	0.93777	0.43027	0.005
Mof_C 	C 	0.12033	0.76577	0.47037	-0.001
Mof_C 	C 	0.12523	0.75107	0.49107	-0.009
Mof_C 	C 	0.16183	0.81867	0.50473	-0.001
Mof_C 	C 	0.09953	0.80697	0.49767	-0.001
Mof_C 	C 	0.18803	0.91507	0.47687	-0
Mof_C 	C 	0.25893	0.87067	0.53697	0.001
Mof_H 	H 	0.29833	0.92147	0.53027	0.052
Mof_C 	C 	0.27323	0.85127	0.55727	-0.127
Mof_C 	C 	0.35933	0.90587	0.56647	0.409
Mof_O 	O 	0.30933	0.08057	0.27661	-0.402
Mof_O 	O 	0.22213	0.03767	0.24872	-0.394
Mof_O 	O 	0.37043	0.89237	0.58366	-0.436
Mof_O 	O 	0.41053	0.97057	0.55617	-0.408
Mof_C 	C 	0.6369	0.5468	0.6006	0.333
Mof_C 	C 	0.7082	0.5486	0.6116	-0.068
Mof_C 	C 	0.7096	0.546	0.6332	-0.032
Mof_H 	H 	0.6614	0.5373	0.6406	0.06
Mof_C 	C 	0.7188	0.5644	0.6774	-0.004
Mof_C 	C 	0.716	0.5653	0.6987	0.004
Mof_C 	C 	0.764	0.541	0.7102	-0
Mof_C 	C 	0.7241	0.5761	0.7424	0.003
Mof_C 	C 	0.7289	0.5857	0.7636	0.004
Mof_C 	C 	0.9009	0.6879	0.8037	-0
Mof_C 	C 	0.9156	0.7075	0.8244	-0.008
Mof_C 	C 	0.848	0.6765	0.83806	-0.001
Mof_C 	C 	0.8597	0.6259	0.831	-0.001
Mof_C 	C 	0.7516	0.6063	0.8102	-0
Mof_C 	C 	0.796	0.7216	0.8703	-0
Mof_H 	H 	0.7452	0.7102	0.8636	0.053
Mof_C 	C 	0.8154	0.7553	0.8906	-0.125
Mof_C 	C 	0.7608	0.7868	0.8998	0.408
Mof_O 	O 	0.5861	0.5621	0.60994	-0.402
Mof_O 	O 	0.629	0.5178	0.58205	-0.394
Mof_O 	O 	0.7743	0.8114	0.91699	-0.436
Mof_O 	O 	0.6961	0.7733	0.8895	-0.407
Mof_C 	C 	0.30357	0.88013	0.93393	0.332
Mof_C 	C 	0.37487	0.88193	0.94493	-0.068
Mof_C 	C 	0.37627	0.87933	0.96653	-0.032
Mof_H 	H 	0.32807	0.87063	0.97393	0.06
Mof_C 	C 	0.38547	0.89773	0.01073	-0.004
Mof_C 	C 	0.38267	0.89863	0.03203	0.004
Mof_C 	C 	0.43067	0.87433	0.04353	-0
Mof_C 	C 	0.39077	0.90943	0.07573	0.003
Mof_C 	C 	0.39557	0.91903	0.09693	0.005
Mof_C 	C 	0.56757	0.02123	0.13703	-0.004
Mof_C 	C 	0.58227	0.04083	0.15773	-0.009
Mof_C 	C 	0.51467	0.00983	0.17139	-0.003
Mof_C 	C 	0.52637	0.95923	0.16433	0.003
Mof_C 	C 	0.41827	0.93963	0.14353	-0.001
Mof_C 	C 	0.46267	0.05493	0.20363	0
Mof_H 	H 	0.41187	0.04353	0.19693	0.052
Mof_C 	C 	0.48207	0.08863	0.22393	-0.127
Mof_C 	C 	0.42747	0.12013	0.23313	0.409
Mof_O 	O 	0.25277	0.89543	0.94327	-0.402
Mof_O 	O 	0.29567	0.85113	0.91538	-0.394
Mof_O 	O 	0.44097	0.14473	0.25032	-0.436
Mof_O 	O 	0.36277	0.10663	0.22283	-0.408
Mof_C 	C 	0.97023	0.21347	0.26727	0.33
Mof_C 	C 	0.04153	0.21527	0.27827	-0.067
Mof_C 	C 	0.04293	0.21267	0.29987	-0.028
Mof_H 	H 	0.99473	0.20397	0.30727	0.057
Mof_C 	C 	0.05213	0.23107	0.34407	-0.003
Mof_C 	C 	0.04933	0.23197	0.36537	0.004
Mof_C 	C 	0.09733	0.20767	0.37687	-0
Mof_C 	C 	0.05743	0.24277	0.40907	0.003
Mof_C 	C 	0.06223	0.25237	0.43027	0.005
Mof_C 	C 	0.23423	0.35457	0.47037	-0.001
Mof_C 	C 	0.24893	0.37417	0.49107	-0.009
Mof_C 	C 	0.18133	0.34317	0.50473	-0.001
Mof_C 	C 	0.19303	0.29257	0.49767	-0.001
Mof_C 	C 	0.08493	0.27297	0.47687	-0
Mof_C 	C 	0.12933	0.38827	0.53697	0.001
Mof_H 	H 	0.07853	0.37687	0.53027	0.052
Mof_C 	C 	0.14873	0.42197	0.55727	-0.127
Mof_C 	C 	0.09413	0.45347	0.56647	0.409
Mof_O 	O 	0.91943	0.22877	0.27661	-0.402
Mof_O 	O 	0.96233	0.18447	0.24872	-0.394
Mof_O 	O 	0.10763	0.47807	0.58366	-0.436
Mof_O 	O 	0.02943	0.43997	0.55617	-0.408
Mof_C 	C 	0.4532	0.0901	0.6006	0.332
Mof_C 	C 	0.4514	0.1596	0.6116	-0.068
Mof_C 	C 	0.454	0.1636	0.6332	-0.032
Mof_H 	H 	0.4627	0.1241	0.6406	0.06
Mof_C 	C 	0.4356	0.1544	0.6774	-0.004
Mof_C 	C 	0.4347	0.1507	0.6987	0.004
Mof_C 	C 	0.459	0.223	0.7102	-0
Mof_C 	C 	0.4239	0.148	0.7424	0.004
Mof_C 	C 	0.4143	0.1432	0.7636	0.005
Mof_C 	C 	0.3121	0.213	0.8037	-0.001
Mof_C 	C 	0.2925	0.2081	0.8244	-0.009
Mof_C 	C 	0.3235	0.1715	0.83806	-0.001
Mof_C 	C 	0.3741	0.2338	0.831	-0.001
Mof_C 	C 	0.3937	0.1453	0.8102	-0
Mof_C 	C 	0.2784	0.0744	0.8703	-0.001
Mof_H 	H 	0.2898	0.035	0.8636	0.053
Mof_C 	C 	0.2447	0.0601	0.8906	-0.124
Mof_C 	C 	0.2132	0.974	0.8998	0.406
Mof_O 	O 	0.4379	0.024	0.60994	-0.402
Mof_O 	O 	0.4822	0.1112	0.58205	-0.393
Mof_O 	O 	0.1886	0.9629	0.91699	-0.436
Mof_O 	O 	0.2267	0.9228	0.8895	-0.407
Mof_C 	C 	0.11987	0.42343	0.93393	0.332
Mof_C 	C 	0.11807	0.49293	0.94493	-0.068
Mof_C 	C 	0.12067	0.49693	0.96653	-0.032
Mof_H 	H 	0.12937	0.45743	0.97393	0.06
Mof_C 	C 	0.10227	0.48773	0.01073	-0.004
Mof_C 	C 	0.10137	0.48403	0.03203	0.004
Mof_C 	C 	0.12567	0.55633	0.04353	-0
Mof_C 	C 	0.09057	0.48133	0.07573	0.003
Mof_C 	C 	0.08097	0.47653	0.09693	0.005
Mof_C 	C 	0.97877	0.54633	0.13703	-0.004
Mof_C 	C 	0.95917	0.54143	0.15773	-0.009
Mof_C 	C 	0.99017	0.50483	0.17139	-0.003
Mof_C 	C 	0.04077	0.56713	0.16433	0.003
Mof_C 	C 	0.06037	0.47863	0.14353	-0.001
Mof_C 	C 	0.94507	0.40773	0.20363	0
Mof_H 	H 	0.95647	0.36833	0.19693	0.052
Mof_C 	C 	0.91137	0.39343	0.22393	-0.127
Mof_C 	C 	0.87987	0.30733	0.23313	0.409
Mof_O 	O 	0.10457	0.35733	0.94327	-0.402
Mof_O 	O 	0.14887	0.44453	0.91538	-0.394
Mof_O 	O 	0.85527	0.29623	0.25032	-0.436
Mof_O 	O 	0.89337	0.25613	0.22283	-0.408
Mof_C 	C 	0.78653	0.75677	0.26727	0.333
Mof_C 	C 	0.78473	0.82627	0.27827	-0.069
Mof_C 	C 	0.78733	0.83027	0.29987	-0.031
Mof_H 	H 	0.79603	0.79077	0.30727	0.06
Mof_C 	C 	0.76893	0.82107	0.34407	-0.004
Mof_C 	C 	0.76803	0.81737	0.36537	0.004
Mof_C 	C 	0.79233	0.88967	0.37687	-0
Mof_C 	C 	0.75723	0.81467	0.40907	0.003
Mof_C 	C 	0.74763	0.80987	0.43027	0.004
Mof_C 	C 	0.64543	0.87967	0.47037	-0.001
Mof_C 	C 	0.62583	0.87477	0.49107	-0.009
Mof_C 	C 	0.65683	0.83817	0.50473	-0.001
Mof_C 	C 	0.70743	0.90047	0.49767	-0.001
Mof_C 	C 	0.72703	0.81197	0.47687	-0
Mof_C 	C 	0.61173	0.74107	0.53697	0.001
Mof_H 	H 	0.62313	0.70167	0.53027	0.052
Mof_C 	C 	0.57803	0.72677	0.55727	-0.126
Mof_C 	C 	0.54653	0.64067	0.56647	0.409
Mof_O 	O 	0.77123	0.69067	0.27661	-0.402
Mof_O 	O 	0.81553	0.77787	0.24872	-0.394
Mof_O 	O 	0.52193	0.62957	0.58366	-0.436
Mof_O 	O 	0.56003	0.58947	0.55617	-0.407
Mof_C 	C 	0.6369	0.0901	0.6006	0.332
Mof_C 	C 	0.7082	0.1596	0.6116	-0.068
Mof_C 	C 	0.7096	0.1636	0.6332	-0.032
Mof_H 	H 	0.6614	0.1241	0.6406	0.06
Mof_C 	C 	0.7188	0.1544	0.6774	-0.004
Mof_C 	C 	0.716	0.1507	0.6987	0.004
Mof_C 	C 	0.764	0.223	0.7102	-0
Mof_C 	C 	0.7241	0.148	0.7424	0.004
Mof_C 	C 	0.7289	0.1432	0.7636	0.005
Mof_C 	C 	0.9009	0.213	0.8037	0
Mof_C 	C 	0.9156	0.2081	0.8244	-0.008
Mof_C 	C 	0.848	0.1715	0.83806	-0.001
Mof_C 	C 	0.8597	0.2338	0.831	-0.001
Mof_C 	C 	0.7516	0.1453	0.8102	-0
Mof_C 	C 	0.796	0.0744	0.8703	-0.002
Mof_H 	H 	0.7452	0.035	0.8636	0.054
Mof_C 	C 	0.8154	0.0601	0.8906	-0.122
Mof_C 	C 	0.7608	0.974	0.8998	0.406
Mof_O 	O 	0.5861	0.024	0.60994	-0.401
Mof_O 	O 	0.629	0.1112	0.58205	-0.393
Mof_O 	O 	0.7743	0.9629	0.91699	-0.436
Mof_O 	O 	0.6961	0.9228	0.8895	-0.407
Mof_C 	C 	0.30357	0.42343	0.93393	0.333
Mof_C 	C 	0.37487	0.49293	0.94493	-0.068
Mof_C 	C 	0.37627	0.49693	0.96653	-0.032
Mof_H 	H 	0.32807	0.45743	0.97393	0.06
Mof_C 	C 	0.38547	0.48773	0.01073	-0.004
Mof_C 	C 	0.38267	0.48403	0.03203	0.004
Mof_C 	C 	0.43067	0.55633	0.04353	-0
Mof_C 	C 	0.39077	0.48133	0.07573	0.003
Mof_C 	C 	0.39557	0.47653	0.09693	0.004
Mof_C 	C 	0.56757	0.54633	0.13703	-0.001
Mof_C 	C 	0.58227	0.54143	0.15773	-0.009
Mof_C 	C 	0.51467	0.50483	0.17139	-0.001
Mof_C 	C 	0.52637	0.56713	0.16433	-0.001
Mof_C 	C 	0.41827	0.47863	0.14353	-0
Mof_C 	C 	0.46267	0.40773	0.20363	0.001
Mof_H 	H 	0.41187	0.36833	0.19693	0.052
Mof_C 	C 	0.48207	0.39343	0.22393	-0.126
Mof_C 	C 	0.42747	0.30733	0.23313	0.409
Mof_O 	O 	0.25277	0.35733	0.94327	-0.402
Mof_O 	O 	0.29567	0.44453	0.91538	-0.394
Mof_O 	O 	0.44097	0.29623	0.25032	-0.436
Mof_O 	O 	0.36277	0.25613	0.22283	-0.407
Mof_C 	C 	0.97023	0.75677	0.26727	0.331
Mof_C 	C 	0.04153	0.82627	0.27827	-0.067
Mof_C 	C 	0.04293	0.83027	0.29987	-0.027
Mof_H 	H 	0.99473	0.79077	0.30727	0.057
Mof_C 	C 	0.05213	0.82107	0.34407	-0.003
Mof_C 	C 	0.04933	0.81737	0.36537	0.004
Mof_C 	C 	0.09733	0.88967	0.37687	-0
Mof_C 	C 	0.05743	0.81467	0.40907	0.004
Mof_C 	C 	0.06223	0.80987	0.43027	0.005
Mof_C 	C 	0.23423	0.87967	0.47037	-0.001
Mof_C 	C 	0.24893	0.87477	0.49107	-0.009
Mof_C 	C 	0.18133	0.83817	0.50473	-0.001
Mof_C 	C 	0.19303	0.90047	0.49767	-0.001
Mof_C 	C 	0.08493	0.81197	0.47687	-0
Mof_C 	C 	0.12933	0.74107	0.53697	0.001
Mof_H 	H 	0.07853	0.70167	0.53027	0.052
Mof_C 	C 	0.14873	0.72677	0.55727	-0.127
Mof_C 	C 	0.09413	0.64067	0.56647	0.409
Mof_O 	O 	0.91943	0.69067	0.27661	-0.402
Mof_O 	O 	0.96233	0.77787	0.24872	-0.394
Mof_O 	O 	0.10763	0.62957	0.58366	-0.436
Mof_O 	O 	0.02943	0.58947	0.55617	-0.408
Mof_C 	C 	0.4532	0.3631	0.6006	0.333
Mof_C 	C 	0.4514	0.2918	0.6116	-0.068
Mof_C 	C 	0.454	0.2904	0.6332	-0.032
Mof_H 	H 	0.4627	0.3386	0.6406	0.06
Mof_C 	C 	0.4356	0.2812	0.6774	-0.004
Mof_C 	C 	0.4347	0.284	0.6987	0.004
Mof_C 	C 	0.459	0.236	0.7102	-0
Mof_C 	C 	0.4239	0.2759	0.7424	0.003
Mof_C 	C 	0.4143	0.2711	0.7636	0.004
Mof_C 	C 	0.3121	0.0991	0.8037	-0
Mof_C 	C 	0.2925	0.0844	0.8244	-0.008
Mof_C 	C 	0.3235	0.152	0.83806	-0.001
Mof_C 	C 	0.3741	0.1403	0.831	-0.001
Mof_C 	C 	0.3937	0.2484	0.8102	-0
Mof_C 	C 	0.2784	0.204	0.8703	-0
Mof_H 	H 	0.2898	0.2548	0.8636	0.053
Mof_C 	C 	0.2447	0.1846	0.8906	-0.125
Mof_C 	C 	0.2132	0.2392	0.8998	0.408
Mof_O 	O 	0.4379	0.4139	0.60994	-0.402
Mof_O 	O 	0.4822	0.371	0.58205	-0.394
Mof_O 	O 	0.1886	0.2257	0.91699	-0.436
Mof_O 	O 	0.2267	0.3039	0.8895	-0.407
Mof_C 	C 	0.11987	0.69643	0.93393	0.332
Mof_C 	C 	0.11807	0.62513	0.94493	-0.068
Mof_C 	C 	0.12067	0.62373	0.96653	-0.032
Mof_H 	H 	0.12937	0.67193	0.97393	0.06
Mof_C 	C 	0.10227	0.61453	0.01073	-0.004
Mof_C 	C 	0.10137	0.61733	0.03203	0.004
Mof_C 	C 	0.12567	0.56933	0.04353	-0
Mof_C 	C 	0.09057	0.60923	0.07573	0.003
Mof_C 	C 	0.08097	0.60443	0.09693	0.005
Mof_C 	C 	0.97877	0.43243	0.13703	-0.004
Mof_C 	C 	0.95917	0.41773	0.15773	-0.009
Mof_C 	C 	0.99017	0.48533	0.17139	-0.003
Mof_C 	C 	0.04077	0.47363	0.16433	0.003
Mof_C 	C 	0.06037	0.58173	0.14353	-0.001
Mof_C 	C 	0.94507	0.53733	0.20363	0
Mof_H 	H 	0.95647	0.58813	0.19693	0.052
Mof_C 	C 	0.91137	0.51793	0.22393	-0.127
Mof_C 	C 	0.87987	0.57253	0.23313	0.409
Mof_O 	O 	0.10457	0.74723	0.94327	-0.402
Mof_O 	O 	0.14887	0.70433	0.91538	-0.394
Mof_O 	O 	0.85527	0.55903	0.25032	-0.436
Mof_O 	O 	0.89337	0.63723	0.22283	-0.408
Mof_C 	C 	0.78653	0.02977	0.26727	0.33
Mof_C 	C 	0.78473	0.95847	0.27827	-0.067
Mof_C 	C 	0.78733	0.95707	0.29987	-0.028
Mof_H 	H 	0.79603	0.00527	0.30727	0.057
Mof_C 	C 	0.76893	0.94787	0.34407	-0.003
Mof_C 	C 	0.76803	0.95067	0.36537	0.004
Mof_C 	C 	0.79233	0.90267	0.37687	-0
Mof_C 	C 	0.75723	0.94257	0.40907	0.003
Mof_C 	C 	0.74763	0.93777	0.43027	0.005
Mof_C 	C 	0.64543	0.76577	0.47037	-0.001
Mof_C 	C 	0.62583	0.75107	0.49107	-0.009
Mof_C 	C 	0.65683	0.81867	0.50473	-0.001
Mof_C 	C 	0.70743	0.80697	0.49767	-0.001
Mof_C 	C 	0.72703	0.91507	0.47687	-0
Mof_C 	C 	0.61173	0.87067	0.53697	0.001
Mof_H 	H 	0.62313	0.92147	0.53027	0.052
Mof_C 	C 	0.57803	0.85127	0.55727	-0.127
Mof_C 	C 	0.54653	0.90587	0.56647	0.409
Mof_O 	O 	0.77123	0.08057	0.27661	-0.402
Mof_O 	O 	0.81553	0.03767	0.24872	-0.394
Mof_O 	O 	0.52193	0.89237	0.58366	-0.436
Mof_O 	O 	0.56003	0.97057	0.55617	-0.408
Mof_C 	C 	0.9099	0.5468	0.6006	0.332
Mof_C 	C 	0.8404	0.5486	0.6116	-0.068
Mof_C 	C 	0.8364	0.546	0.6332	-0.032
Mof_H 	H 	0.8759	0.5373	0.6406	0.06
Mof_C 	C 	0.8456	0.5644	0.6774	-0.004
Mof_C 	C 	0.8493	0.5653	0.6987	0.004
Mof_C 	C 	0.777	0.541	0.7102	-0
Mof_C 	C 	0.852	0.5761	0.7424	0.004
Mof_C 	C 	0.8568	0.5857	0.7636	0.005
Mof_C 	C 	0.787	0.6879	0.8037	-0.001
Mof_C 	C 	0.7919	0.7075	0.8244	-0.009
Mof_C 	C 	0.8285	0.6765	0.83806	-0.001
Mof_C 	C 	0.7662	0.6259	0.831	-0.001
Mof_C 	C 	0.8547	0.6063	0.8102	-0
Mof_C 	C 	0.9256	0.7216	0.8703	-0.001
Mof_H 	H 	0.965	0.7102	0.8636	0.053
Mof_C 	C 	0.9399	0.7553	0.8906	-0.124
Mof_C 	C 	0.026	0.7868	0.8998	0.406
Mof_O 	O 	0.976	0.5621	0.60994	-0.402
Mof_O 	O 	0.8888	0.5178	0.58205	-0.393
Mof_O 	O 	0.0371	0.8114	0.91699	-0.436
Mof_O 	O 	0.0772	0.7733	0.8895	-0.407
Mof_C 	C 	0.57657	0.88013	0.93393	0.332
Mof_C 	C 	0.50707	0.88193	0.94493	-0.068
Mof_C 	C 	0.50307	0.87933	0.96653	-0.032
Mof_H 	H 	0.54257	0.87063	0.97393	0.06
Mof_C 	C 	0.51227	0.89773	0.01073	-0.004
Mof_C 	C 	0.51597	0.89863	0.03203	0.004
Mof_C 	C 	0.44367	0.87433	0.04353	-0
Mof_C 	C 	0.51867	0.90943	0.07573	0.003
Mof_C 	C 	0.52347	0.91903	0.09693	0.005
Mof_C 	C 	0.45367	0.02123	0.13703	-0.004
Mof_C 	C 	0.45857	0.04083	0.15773	-0.009
Mof_C 	C 	0.49517	0.00983	0.17139	-0.003
Mof_C 	C 	0.43287	0.95923	0.16433	0.003
Mof_C 	C 	0.52137	0.93963	0.14353	-0.001
Mof_C 	C 	0.59227	0.05493	0.20363	0
Mof_H 	H 	0.63167	0.04353	0.19693	0.052
Mof_C 	C 	0.60657	0.08863	0.22393	-0.127
Mof_C 	C 	0.69267	0.12013	0.23313	0.409
Mof_O 	O 	0.64267	0.89543	0.94327	-0.402
Mof_O 	O 	0.55547	0.85113	0.91538	-0.394
Mof_O 	O 	0.70377	0.14473	0.25032	-0.436
Mof_O 	O 	0.74387	0.10663	0.22283	-0.408
Mof_C 	C 	0.24323	0.21347	0.26727	0.333
Mof_C 	C 	0.17373	0.21527	0.27827	-0.069
Mof_C 	C 	0.16973	0.21267	0.29987	-0.031
Mof_H 	H 	0.20923	0.20397	0.30727	0.06
Mof_C 	C 	0.17893	0.23107	0.34407	-0.004
Mof_C 	C 	0.18263	0.23197	0.36537	0.004
Mof_C 	C 	0.11033	0.20767	0.37687	-0
Mof_C 	C 	0.18533	0.24277	0.40907	0.003
Mof_C 	C 	0.19013	0.25237	0.43027	0.004
Mof_C 	C 	0.12033	0.35457	0.47037	-0.001
Mof_C 	C 	0.12523	0.37417	0.49107	-0.009
Mof_C 	C 	0.16183	0.34317	0.50473	-0.001
Mof_C 	C 	0.09953	0.29257	0.49767	-0.001
Mof_C 	C 	0.18803	0.27297	0.47687	-0
Mof_C 	C 	0.25893	0.38827	0.53697	0.001
Mof_H 	H 	0.29833	0.37687	0.53027	0.052
Mof_C 	C 	0.27323	0.42197	0.55727	-0.126
Mof_C 	C 	0.35933	0.45347	0.56647	0.409
Mof_O 	O 	0.30933	0.22877	0.27661	-0.402
Mof_O 	O 	0.22213	0.18447	0.24872	-0.394
Mof_O 	O 	0.37043	0.47807	0.58366	-0.436
Mof_O 	O 	0.41053	0.43997	0.55617	-0.407
Mof_Cu	Cu	0.94955	0.47477	0.56663	0.905
Mof_Cu	Cu	0.04869	0.52435	0.5995	0.913
Mof_Cu	Cu	0.61622	0.80811	0.89996	0.905
Mof_Cu	Cu	0.71536	0.85768	0.93283	0.913
Mof_Cu	Cu	0.28288	0.14144	0.2333	0.904
Mof_Cu	Cu	0.38202	0.19101	0.26617	0.913
Mof_Cu	Cu	0.52523	0.47477	0.56663	0.905
Mof_Cu	Cu	0.47565	0.52435	0.5995	0.913
Mof_Cu	Cu	0.19189	0.80811	0.89996	0.905
Mof_Cu	Cu	0.14232	0.85768	0.93283	0.913
Mof_Cu	Cu	0.85856	0.14144	0.2333	0.904
Mof_Cu	Cu	0.80899	0.19101	0.26617	0.913
Mof_Cu	Cu	0.52523	0.05045	0.56663	0.905
Mof_Cu	Cu	0.47565	0.95131	0.5995	0.913
Mof_Cu	Cu	0.19189	0.38378	0.89996	0.905
Mof_Cu	Cu	0.14232	0.28464	0.93283	0.913
Mof_Cu	Cu	0.85856	0.71712	0.2333	0.904
Mof_Cu	Cu	0.80899	0.61798	0.26617	0.913
Mof_C 	C 	0.7705	0.2295	0.6012	0.016
Mof_H 	H 	0.7654	0.2346	0.5869	0.059
Mof_C 	C 	0.7785	0.2215	0.6438	0.023
Mof_C 	C 	0.77	0.23	0.6676	-0.01
Mof_C 	C 	0.7945	0.2055	0.73134	0.002
Mof_C 	C 	0.80345	0.19655	0.77372	-0.001
Mof_C 	C 	0.8189	0.1811	0.79659	0.002
Mof_C 	C 	0.8535	0.1465	0.8609	0.001
Mof_C 	C 	0.88555	0.11445	0.8987	0.086
Mof_H 	H 	0.89835	0.10165	0.9119	0.034
Mof_C 	C 	0.43717	0.56283	0.93453	0.017
Mof_H 	H 	0.43207	0.56793	0.92023	0.059
Mof_C 	C 	0.44517	0.55483	0.97713	0.022
Mof_C 	C 	0.43667	0.56333	0.00093	-0.01
Mof_C 	C 	0.46117	0.53883	0.06467	0.002
Mof_C 	C 	0.47012	0.52988	0.10705	-0.001
Mof_C 	C 	0.48557	0.51443	0.12992	0.002
Mof_C 	C 	0.52017	0.47983	0.19423	-0.001
Mof_C 	C 	0.55222	0.44778	0.23203	0.09
Mof_H 	H 	0.56502	0.43498	0.24523	0.032
Mof_C 	C 	0.10383	0.89617	0.26787	0.016
Mof_H 	H 	0.09873	0.90127	0.25357	0.06
Mof_C 	C 	0.11183	0.88817	0.31047	0.019
Mof_C 	C 	0.10333	0.89667	0.33427	-0.009
Mof_C 	C 	0.12783	0.87217	0.39801	0.002
Mof_C 	C 	0.13678	0.86322	0.44039	-0.001
Mof_C 	C 	0.15223	0.84777	0.46326	0.002
Mof_C 	C 	0.18683	0.81317	0.52757	-0.002
Mof_C 	C 	0.21888	0.78112	0.56537	0.091
Mof_H 	H 	0.23168	0.76832	0.57857	0.032
Mof_C 	C 	0.7705	0.541	0.6012	0.017
Mof_H 	H 	0.7654	0.5308	0.5869	0.059
Mof_C 	C 	0.7785	0.557	0.6438	0.022
Mof_C 	C 	0.77	0.54	0.6676	-0.01
Mof_C 	C 	0.7945	0.589	0.73134	0.002
Mof_C 	C 	0.80345	0.6069	0.77372	-0.001
Mof_C 	C 	0.8189	0.6378	0.79659	0.002
Mof_C 	C 	0.8535	0.707	0.8609	-0
Mof_C 	C 	0.88555	0.7711	0.8987	0.088
Mof_H 	H 	0.89835	0.7967	0.9119	0.033
Mof_C 	C 	0.43717	0.87433	0.93453	0.017
Mof_H 	H 	0.43207	0.86413	0.92023	0.059
Mof_C 	C 	0.44517	0.89033	0.97713	0.022
Mof_C 	C 	0.43667	0.87333	0.00093	-0.01
Mof_C 	C 	0.46117	0.92233	0.06467	0.002
Mof_C 	C 	0.47012	0.94023	0.10705	-0.002
Mof_C 	C 	0.48557	0.97113	0.12992	0.006
Mof_C 	C 	0.52017	0.04033	0.19423	-0.001
Mof_C 	C 	0.55222	0.10443	0.23203	0.09
Mof_H 	H 	0.56502	0.13003	0.24523	0.032
Mof_C 	C 	0.10383	0.20767	0.26787	0.016
Mof_H 	H 	0.09873	0.19747	0.25357	0.06
Mof_C 	C 	0.11183	0.22367	0.31047	0.021
Mof_C 	C 	0.10333	0.20667	0.33427	-0.01
Mof_C 	C 	0.12783	0.25567	0.39801	0.002
Mof_C 	C 	0.13678	0.27357	0.44039	-0.001
Mof_C 	C 	0.15223	0.30447	0.46326	0.002
Mof_C 	C 	0.18683	0.37367	0.52757	-0.001
Mof_C 	C 	0.21888	0.43777	0.56537	0.09
Mof_H 	H 	0.23168	0.46337	0.57857	0.032
Mof_C 	C 	0.459	0.2295	0.6012	0.017
Mof_H 	H 	0.4692	0.2346	0.5869	0.059
Mof_C 	C 	0.443	0.2215	0.6438	0.022
Mof_C 	C 	0.46	0.23	0.6676	-0.01
Mof_C 	C 	0.411	0.2055	0.73134	0.002
Mof_C 	C 	0.3931	0.19655	0.77372	-0.001
Mof_C 	C 	0.3622	0.1811	0.79659	0.002
Mof_C 	C 	0.293	0.1465	0.8609	-0
Mof_C 	C 	0.2289	0.11445	0.8987	0.088
Mof_H 	H 	0.2033	0.10165	0.9119	0.033
Mof_C 	C 	0.12567	0.56283	0.93453	0.017
Mof_H 	H 	0.13587	0.56793	0.92023	0.059
Mof_C 	C 	0.10967	0.55483	0.97713	0.022
Mof_C 	C 	0.12667	0.56333	0.00093	-0.01
Mof_C 	C 	0.07767	0.53883	0.06467	0.002
Mof_C 	C 	0.05977	0.52988	0.10705	-0.002
Mof_C 	C 	0.02887	0.51443	0.12992	0.006
Mof_C 	C 	0.95967	0.47983	0.19423	-0.001
Mof_C 	C 	0.89557	0.44778	0.23203	0.09
Mof_H 	H 	0.86997	0.43498	0.24523	0.032
Mof_C 	C 	0.79233	0.89617	0.26787	0.016
Mof_H 	H 	0.80253	0.90127	0.25357	0.06
Mof_C 	C 	0.77633	0.88817	0.31047	0.021
Mof_C 	C 	0.79333	0.89667	0.33427	-0.01
Mof_C 	C 	0.74433	0.87217	0.39801	0.002
Mof_C 	C 	0.72643	0.86322	0.44039	-0.001
Mof_C 	C 	0.69553	0.84777	0.46326	0.002
Mof_C 	C 	0.62633	0.81317	0.52757	-0.001
Mof_C 	C 	0.56223	0.78112	0.56537	0.09
Mof_H 	H 	0.53663	0.76832	0.57857	0.032
Mof_C 	C 	0.3631	0.9099	0.3994	0.332
Mof_C 	C 	0.2918	0.8404	0.3884	-0.068
Mof_C 	C 	0.2904	0.8364	0.3668	-0.032
Mof_H 	H 	0.3386	0.8759	0.3594	0.06
Mof_C 	C 	0.2812	0.8456	0.3226	-0.004
Mof_C 	C 	0.284	0.8493	0.3013	0.004
Mof_C 	C 	0.236	0.777	0.2898	-0
Mof_C 	C 	0.2759	0.852	0.2576	0.004
Mof_C 	C 	0.2711	0.8568	0.2364	0.005
Mof_C 	C 	0.0991	0.787	0.1963	0
Mof_C 	C 	0.0844	0.7919	0.1756	-0.008
Mof_C 	C 	0.152	0.8285	0.16194	-0.001
Mof_C 	C 	0.1403	0.7662	0.169	-0.001
Mof_C 	C 	0.2484	0.8547	0.1898	-0
Mof_C 	C 	0.204	0.9256	0.1297	-0.002
Mof_H 	H 	0.2548	0.965	0.1364	0.054
Mof_C 	C 	0.1846	0.9399	0.1094	-0.122
Mof_C 	C 	0.2392	0.026	0.1002	0.406
Mof_O 	O 	0.4139	0.976	0.39006	-0.401
Mof_O 	O 	0.371	0.8888	0.41795	-0.393
Mof_O 	O 	0.2257	0.0371	0.08301	-0.436
Mof_O 	O 	0.3039	0.0772	0.1105	-0.407
Mof_C 	C 	0.02977	0.24323	0.73273	0.331
Mof_C 	C 	0.95847	0.17373	0.72173	-0.067
Mof_C 	C 	0.95707	0.16973	0.70013	-0.027
Mof_H 	H 	0.00527	0.20923	0.69273	0.057
Mof_C 	C 	0.94787	0.17893	0.65593	-0.003
Mof_C 	C 	0.95067	0.18263	0.63463	0.004
Mof_C 	C 	0.90267	0.11033	0.62313	-0
Mof_C 	C 	0.94257	0.18533	0.59093	0.004
Mof_C 	C 	0.93777	0.19013	0.56973	0.005
Mof_C 	C 	0.76577	0.12033	0.52963	-0.001
Mof_C 	C 	0.75107	0.12523	0.50893	-0.009
Mof_C 	C 	0.81867	0.16183	0.49527	-0.001
Mof_C 	C 	0.80697	0.09953	0.50233	-0.001
Mof_C 	C 	0.91507	0.18803	0.52313	-0
Mof_C 	C 	0.87067	0.25893	0.46303	0.001
Mof_H 	H 	0.92147	0.29833	0.46973	0.052
Mof_C 	C 	0.85127	0.27323	0.44273	-0.127
Mof_C 	C 	0.90587	0.35933	0.43353	0.409
Mof_O 	O 	0.08057	0.30933	0.72339	-0.402
Mof_O 	O 	0.03767	0.22213	0.75128	-0.394
Mof_O 	O 	0.89237	0.37043	0.41634	-0.436
Mof_O 	O 	0.97057	0.41053	0.44383	-0.408
Mof_C 	C 	0.69643	0.57657	0.06607	0.333
Mof_C 	C 	0.62513	0.50707	0.05507	-0.068
Mof_C 	C 	0.62373	0.50307	0.03347	-0.032
Mof_H 	H 	0.67193	0.54257	0.02607	0.06
Mof_C 	C 	0.61453	0.51227	0.98927	-0.004
Mof_C 	C 	0.61733	0.51597	0.96797	0.004
Mof_C 	C 	0.56933	0.44367	0.95647	-0
Mof_C 	C 	0.60923	0.51867	0.92427	0.003
Mof_C 	C 	0.60443	0.52347	0.90307	0.004
Mof_C 	C 	0.43243	0.45367	0.86297	-0.001
Mof_C 	C 	0.41773	0.45857	0.84227	-0.009
Mof_C 	C 	0.48533	0.49517	0.82861	-0.001
Mof_C 	C 	0.47363	0.43287	0.83567	-0.001
Mof_C 	C 	0.58173	0.52137	0.85647	-0
Mof_C 	C 	0.53733	0.59227	0.79637	0.001
Mof_H 	H 	0.58813	0.63167	0.80307	0.052
Mof_C 	C 	0.51793	0.60657	0.77607	-0.126
Mof_C 	C 	0.57253	0.69267	0.76687	0.409
Mof_O 	O 	0.74723	0.64267	0.05673	-0.402
Mof_O 	O 	0.70433	0.55547	0.08462	-0.394
Mof_O 	O 	0.55903	0.70377	0.74968	-0.436
Mof_O 	O 	0.63723	0.74387	0.77717	-0.407
Mof_C 	C 	0.5468	0.6369	0.3994	0.333
Mof_C 	C 	0.5486	0.7082	0.3884	-0.068
Mof_C 	C 	0.546	0.7096	0.3668	-0.032
Mof_H 	H 	0.5373	0.6614	0.3594	0.06
Mof_C 	C 	0.5644	0.7188	0.3226	-0.004
Mof_C 	C 	0.5653	0.716	0.3013	0.004
Mof_C 	C 	0.541	0.764	0.2898	-0
Mof_C 	C 	0.5761	0.7241	0.2576	0.003
Mof_C 	C 	0.5857	0.7289	0.2364	0.004
Mof_C 	C 	0.6879	0.9009	0.1963	-0
Mof_C 	C 	0.7075	0.9156	0.1756	-0.008
Mof_C 	C 	0.6765	0.848	0.16194	-0.001
Mof_C 	C 	0.6259	0.8597	0.169	-0.001
Mof_C 	C 	0.6063	0.7516	0.1898	-0
Mof_C 	C 	0.7216	0.796	0.1297	-0
Mof_H 	H 	0.7102	0.7452	0.1364	0.053
Mof_C 	C 	0.7553	0.8154	0.1094	-0.125
Mof_C 	C 	0.7868	0.7608	0.1002	0.408
Mof_O 	O 	0.5621	0.5861	0.39006	-0.402
Mof_O 	O 	0.5178	0.629	0.41795	-0.394
Mof_O 	O 	0.8114	0.7743	0.08301	-0.436
Mof_O 	O 	0.7733	0.6961	0.1105	-0.407
Mof_C 	C 	0.21347	0.97023	0.73273	0.33
Mof_C 	C 	0.21527	0.04153	0.72173	-0.067
Mof_C 	C 	0.21267	0.04293	0.70013	-0.028
Mof_H 	H 	0.20397	0.99473	0.69273	0.057
Mof_C 	C 	0.23107	0.05213	0.65593	-0.003
Mof_C 	C 	0.23197	0.04933	0.63463	0.004
Mof_C 	C 	0.20767	0.09733	0.62313	-0
Mof_C 	C 	0.24277	0.05743	0.59093	0.003
Mof_C 	C 	0.25237	0.06223	0.56973	0.005
Mof_C 	C 	0.35457	0.23423	0.52963	-0.001
Mof_C 	C 	0.37417	0.24893	0.50893	-0.009
Mof_C 	C 	0.34317	0.18133	0.49527	-0.001
Mof_C 	C 	0.29257	0.19303	0.50233	-0.001
Mof_C 	C 	0.27297	0.08493	0.52313	-0
Mof_C 	C 	0.38827	0.12933	0.46303	0.001
Mof_H 	H 	0.37687	0.07853	0.46973	0.052
Mof_C 	C 	0.42197	0.14873	0.44273	-0.127
Mof_C 	C 	0.45347	0.09413	0.43353	0.409
Mof_O 	O 	0.22877	0.91943	0.72339	-0.402
Mof_O 	O 	0.18447	0.96233	0.75128	-0.394
Mof_O 	O 	0.47807	0.10763	0.41634	-0.436
Mof_O 	O 	0.43997	0.02943	0.44383	-0.408
Mof_C 	C 	0.88013	0.30357	0.06607	0.332
Mof_C 	C 	0.88193	0.37487	0.05507	-0.068
Mof_C 	C 	0.87933	0.37627	0.03347	-0.032
Mof_H 	H 	0.87063	0.32807	0.02607	0.06
Mof_C 	C 	0.89773	0.38547	0.98927	-0.004
Mof_C 	C 	0.89863	0.38267	0.96797	0.004
Mof_C 	C 	0.87433	0.43067	0.95647	-0
Mof_C 	C 	0.90943	0.39077	0.92427	0.003
Mof_C 	C 	0.91903	0.39557	0.90307	0.005
Mof_C 	C 	0.02123	0.56757	0.86297	-0.004
Mof_C 	C 	0.04083	0.58227	0.84227	-0.009
Mof_C 	C 	0.00983	0.51467	0.82861	-0.003
Mof_C 	C 	0.95923	0.52637	0.83567	0.003
Mof_C 	C 	0.93963	0.41827	0.85647	-0.001
Mof_C 	C 	0.05493	0.46267	0.79637	0
Mof_H 	H 	0.04353	0.41187	0.80307	0.052
Mof_C 	C 	0.08863	0.48207	0.77607	-0.127
Mof_C 	C 	0.12013	0.42747	0.76687	0.409
Mof_O 	O 	0.89543	0.25277	0.05673	-0.402
Mof_O 	O 	0.85113	0.29567	0.08462	-0.394
Mof_O 	O 	0.14473	0.44097	0.74968	-0.436
Mof_O 	O 	0.10663	0.36277	0.77717	-0.408
Mof_C 	C 	0.0901	0.4532	0.3994	0.332
Mof_C 	C 	0.1596	0.4514	0.3884	-0.068
Mof_C 	C 	0.1636	0.454	0.3668	-0.032
Mof_H 	H 	0.1241	0.4627	0.3594	0.06
Mof_C 	C 	0.1544	0.4356	0.3226	-0.004
Mof_C 	C 	0.1507	0.4347	0.3013	0.004
Mof_C 	C 	0.223	0.459	0.2898	-0
Mof_C 	C 	0.148	0.4239	0.2576	0.004
Mof_C 	C 	0.1432	0.4143	0.2364	0.005
Mof_C 	C 	0.213	0.3121	0.1963	-0.001
Mof_C 	C 	0.2081	0.2925	0.1756	-0.009
Mof_C 	C 	0.1715	0.3235	0.16194	-0.001
Mof_C 	C 	0.2338	0.3741	0.169	-0.001
Mof_C 	C 	0.1453	0.3937	0.1898	-0
Mof_C 	C 	0.0744	0.2784	0.1297	-0.001
Mof_H 	H 	0.035	0.2898	0.1364	0.053
Mof_C 	C 	0.0601	0.2447	0.1094	-0.124
Mof_C 	C 	0.974	0.2132	0.1002	0.406
Mof_O 	O 	0.024	0.4379	0.39006	-0.402
Mof_O 	O 	0.1112	0.4822	0.41795	-0.393
Mof_O 	O 	0.9629	0.1886	0.08301	-0.436
Mof_O 	O 	0.9228	0.2267	0.1105	-0.407
Mof_C 	C 	0.75677	0.78653	0.73273	0.333
Mof_C 	C 	0.82627	0.78473	0.72173	-0.069
Mof_C 	C 	0.83027	0.78733	0.70013	-0.031
Mof_H 	H 	0.79077	0.79603	0.69273	0.06
Mof_C 	C 	0.82107	0.76893	0.65593	-0.004
Mof_C 	C 	0.81737	0.76803	0.63463	0.004
Mof_C 	C 	0.88967	0.79233	0.62313	-0
Mof_C 	C 	0.81467	0.75723	0.59093	0.003
Mof_C 	C 	0.80987	0.74763	0.56973	0.004
Mof_C 	C 	0.87967	0.64543	0.52963	-0.001
Mof_C 	C 	0.87477	0.62583	0.50893	-0.009
Mof_C 	C 	0.83817	0.65683	0.49527	-0.001
Mof_C 	C 	0.90047	0.70743	0.50233	-0.001
Mof_C 	C 	0.81197	0.72703	0.52313	-0
Mof_C 	C 	0.74107	0.61173	0.46303	0.001
Mof_H 	H 	0.70167	0.62313	0.46973	0.052
Mof_C 	C 	0.72677	0.57803	0.44273	-0.126
Mof_C 	C 	0.64067	0.54653	0.43353	0.409
Mof_O 	O 	0.69067	0.77123	0.72339	-0.402
Mof_O 	O 	0.77787	0.81553	0.75128	-0.394
Mof_O 	O 	0.62957	0.52193	0.41634	-0.436
Mof_O 	O 	0.58947	0.56003	0.44383	-0.407
Mof_C 	C 	0.42343	0.11987	0.06607	0.332
Mof_C 	C 	0.49293	0.11807	0.05507	-0.068
Mof_C 	C 	0.49693	0.12067	0.03347	-0.032
Mof_H 	H 	0.45743	0.12937	0.02607	0.06
Mof_C 	C 	0.48773	0.10227	0.98927	-0.004
Mof_C 	C 	0.48403	0.10137	0.96797	0.004
Mof_C 	C 	0.55633	0.12567	0.95647	-0
Mof_C 	C 	0.48133	0.09057	0.92427	0.003
Mof_C 	C 	0.47653	0.08097	0.90307	0.005
Mof_C 	C 	0.54633	0.97877	0.86297	-0.004
Mof_C 	C 	0.54143	0.95917	0.84227	-0.009
Mof_C 	C 	0.50483	0.99017	0.82861	-0.003
Mof_C 	C 	0.56713	0.04077	0.83567	0.003
Mof_C 	C 	0.47863	0.06037	0.85647	-0.001
Mof_C 	C 	0.40773	0.94507	0.79637	0
Mof_H 	H 	0.36833	0.95647	0.80307	0.052
Mof_C 	C 	0.39343	0.91137	0.77607	-0.127
Mof_C 	C 	0.30733	0.87987	0.76687	0.409
Mof_O 	O 	0.35733	0.10457	0.05673	-0.402
Mof_O 	O 	0.44453	0.14887	0.08462	-0.394
Mof_O 	O 	0.29623	0.85527	0.74968	-0.436
Mof_O 	O 	0.25613	0.89337	0.77717	-0.408
Mof_C 	C 	0.0901	0.6369	0.3994	0.332
Mof_C 	C 	0.1596	0.7082	0.3884	-0.068
Mof_C 	C 	0.1636	0.7096	0.3668	-0.032
Mof_H 	H 	0.1241	0.6614	0.3594	0.06
Mof_C 	C 	0.1544	0.7188	0.3226	-0.004
Mof_C 	C 	0.1507	0.716	0.3013	0.004
Mof_C 	C 	0.223	0.764	0.2898	-0
Mof_C 	C 	0.148	0.7241	0.2576	0.004
Mof_C 	C 	0.1432	0.7289	0.2364	0.005
Mof_C 	C 	0.213	0.9009	0.1963	0
Mof_C 	C 	0.2081	0.9156	0.1756	-0.008
Mof_C 	C 	0.1715	0.848	0.16194	-0.001
Mof_C 	C 	0.2338	0.8597	0.169	-0.001
Mof_C 	C 	0.1453	0.7516	0.1898	-0
Mof_C 	C 	0.0744	0.796	0.1297	-0.002
Mof_H 	H 	0.035	0.7452	0.1364	0.054
Mof_C 	C 	0.0601	0.8154	0.1094	-0.122
Mof_C 	C 	0.974	0.7608	0.1002	0.406
Mof_O 	O 	0.024	0.5861	0.39006	-0.401
Mof_O 	O 	0.1112	0.629	0.41795	-0.393
Mof_O 	O 	0.9629	0.7743	0.08301	-0.436
Mof_O 	O 	0.9228	0.6961	0.1105	-0.407
Mof_C 	C 	0.75677	0.97023	0.73273	0.331
Mof_C 	C 	0.82627	0.04153	0.72173	-0.067
Mof_C 	C 	0.83027	0.04293	0.70013	-0.027
Mof_H 	H 	0.79077	0.99473	0.69273	0.057
Mof_C 	C 	0.82107	0.05213	0.65593	-0.003
Mof_C 	C 	0.81737	0.04933	0.63463	0.004
Mof_C 	C 	0.88967	0.09733	0.62313	-0
Mof_C 	C 	0.81467	0.05743	0.59093	0.004
Mof_C 	C 	0.80987	0.06223	0.56973	0.005
Mof_C 	C 	0.87967	0.23423	0.52963	-0.001
Mof_C 	C 	0.87477	0.24893	0.50893	-0.009
Mof_C 	C 	0.83817	0.18133	0.49527	-0.001
Mof_C 	C 	0.90047	0.19303	0.50233	-0.001
Mof_C 	C 	0.81197	0.08493	0.52313	-0
Mof_C 	C 	0.74107	0.12933	0.46303	0.001
Mof_H 	H 	0.70167	0.07853	0.46973	0.052
Mof_C 	C 	0.72677	0.14873	0.44273	-0.127
Mof_C 	C 	0.64067	0.09413	0.43353	0.409
Mof_O 	O 	0.69067	0.91943	0.72339	-0.402
Mof_O 	O 	0.77787	0.96233	0.75128	-0.394
Mof_O 	O 	0.62957	0.10763	0.41634	-0.436
Mof_O 	O 	0.58947	0.02943	0.44383	-0.408
Mof_C 	C 	0.42343	0.30357	0.06607	0.333
Mof_C 	C 	0.49293	0.37487	0.05507	-0.068
Mof_C 	C 	0.49693	0.37627	0.03347	-0.032
Mof_H 	H 	0.45743	0.32807	0.02607	0.06
Mof_C 	C 	0.48773	0.38547	0.98927	-0.004
Mof_C 	C 	0.48403	0.38267	0.96797	0.004
Mof_C 	C 	0.55633	0.43067	0.95647	-0
Mof_C 	C 	0.48133	0.39077	0.92427	0.003
Mof_C 	C 	0.47653	0.39557	0.90307	0.004
Mof_C 	C 	0.54633	0.56757	0.86297	-0.001
Mof_C 	C 	0.54143	0.58227	0.84227	-0.009
Mof_C 	C 	0.50483	0.51467	0.82861	-0.001
Mof_C 	C 	0.56713	0.52637	0.83567	-0.001
Mof_C 	C 	0.47863	0.41827	0.85647	-0
Mof_C 	C 	0.40773	0.46267	0.79637	0.001
Mof_H 	H 	0.36833	0.41187	0.80307	0.052
Mof_C 	C 	0.39343	0.48207	0.77607	-0.126
Mof_C 	C 	0.30733	0.42747	0.76687	0.409
Mof_O 	O 	0.35733	0.25277	0.05673	-0.402
Mof_O 	O 	0.44453	0.29567	0.08462	-0.394
Mof_O 	O 	0.29623	0.44097	0.74968	-0.436
Mof_O 	O 	0.25613	0.36277	0.77717	-0.407
Mof_C 	C 	0.3631	0.4532	0.3994	0.333
Mof_C 	C 	0.2918	0.4514	0.3884	-0.068
Mof_C 	C 	0.2904	0.454	0.3668	-0.032
Mof_H 	H 	0.3386	0.4627	0.3594	0.06
Mof_C 	C 	0.2812	0.4356	0.3226	-0.004
Mof_C 	C 	0.284	0.4347	0.3013	0.004
Mof_C 	C 	0.236	0.459	0.2898	-0
Mof_C 	C 	0.2759	0.4239	0.2576	0.003
Mof_C 	C 	0.2711	0.4143	0.2364	0.004
Mof_C 	C 	0.0991	0.3121	0.1963	-0
Mof_C 	C 	0.0844	0.2925	0.1756	-0.008
Mof_C 	C 	0.152	0.3235	0.16194	-0.001
Mof_C 	C 	0.1403	0.3741	0.169	-0.001
Mof_C 	C 	0.2484	0.3937	0.1898	-0
Mof_C 	C 	0.204	0.2784	0.1297	-0
Mof_H 	H 	0.2548	0.2898	0.1364	0.053
Mof_C 	C 	0.1846	0.2447	0.1094	-0.125
Mof_C 	C 	0.2392	0.2132	0.1002	0.408
Mof_O 	O 	0.4139	0.4379	0.39006	-0.402
Mof_O 	O 	0.371	0.4822	0.41795	-0.394
Mof_O 	O 	0.2257	0.1886	0.08301	-0.436
Mof_O 	O 	0.3039	0.2267	0.1105	-0.407
Mof_C 	C 	0.02977	0.78653	0.73273	0.33
Mof_C 	C 	0.95847	0.78473	0.72173	-0.067
Mof_C 	C 	0.95707	0.78733	0.70013	-0.028
Mof_H 	H 	0.00527	0.79603	0.69273	0.057
Mof_C 	C 	0.94787	0.76893	0.65593	-0.003
Mof_C 	C 	0.95067	0.76803	0.63463	0.004
Mof_C 	C 	0.90267	0.79233	0.62313	-0
Mof_C 	C 	0.94257	0.75723	0.59093	0.003
Mof_C 	C 	0.93777	0.74763	0.56973	0.005
Mof_C 	C 	0.76577	0.64543	0.52963	-0.001
Mof_C 	C 	0.75107	0.62583	0.50893	-0.009
Mof_C 	C 	0.81867	0.65683	0.49527	-0.001
Mof_C 	C 	0.80697	0.70743	0.50233	-0.001
Mof_C 	C 	0.91507	0.72703	0.52313	-0
Mof_C 	C 	0.87067	0.61173	0.46303	0.001
Mof_H 	H 	0.92147	0.62313	0.46973	0.052
Mof_C 	C 	0.85127	0.57803	0.44273	-0.127
Mof_C 	C 	0.90587	0.54653	0.43353	0.409
Mof_O 	O 	0.08057	0.77123	0.72339	-0.402
Mof_O 	O 	0.03767	0.81553	0.75128	-0.394
Mof_O 	O 	0.89237	0.52193	0.41634	-0.436
Mof_O 	O 	0.97057	0.56003	0.44383	-0.408
Mof_C 	C 	0.69643	0.11987	0.06607	0.332
Mof_C 	C 	0.62513	0.11807	0.05507	-0.068
Mof_C 	C 	0.62373	0.12067	0.03347	-0.032
Mof_H 	H 	0.67193	0.12937	0.02607	0.06
Mof_C 	C 	0.61453	0.10227	0.98927	-0.004
Mof_C 	C 	0.61733	0.10137	0.96797	0.004
Mof_C 	C 	0.56933	0.12567	0.95647	-0
Mof_C 	C 	0.60923	0.09057	0.92427	0.003
Mof_C 	C 	0.60443	0.08097	0.90307	0.005
Mof_C 	C 	0.43243	0.97877	0.86297	-0.004
Mof_C 	C 	0.41773	0.95917	0.84227	-0.009
Mof_C 	C 	0.48533	0.99017	0.82861	-0.003
Mof_C 	C 	0.47363	0.04077	0.83567	0.003
Mof_C 	C 	0.58173	0.06037	0.85647	-0.001
Mof_C 	C 	0.53733	0.94507	0.79637	0
Mof_H 	H 	0.58813	0.95647	0.80307	0.052
Mof_C 	C 	0.51793	0.91137	0.77607	-0.127
Mof_C 	C 	0.57253	0.87987	0.76687	0.409
Mof_O 	O 	0.74723	0.10457	0.05673	-0.402
Mof_O 	O 	0.70433	0.14887	0.08462	-0.394
Mof_O 	O 	0.55903	0.85527	0.74968	-0.436
Mof_O 	O 	0.63723	0.89337	0.77717	-0.408
Mof_C 	C 	0.5468	0.9099	0.3994	0.332
Mof_C 	C 	0.5486	0.8404	0.3884	-0.068
Mof_C 	C 	0.546	0.8364	0.3668	-0.032
Mof_H 	H 	0.5373	0.8759	0.3594	0.06
Mof_C 	C 	0.5644	0.8456	0.3226	-0.004
Mof_C 	C 	0.5653	0.8493	0.3013	0.004
Mof_C 	C 	0.541	0.777	0.2898	-0
Mof_C 	C 	0.5761	0.852	0.2576	0.004
Mof_C 	C 	0.5857	0.8568	0.2364	0.005
Mof_C 	C 	0.6879	0.787	0.1963	-0.001
Mof_C 	C 	0.7075	0.7919	0.1756	-0.009
Mof_C 	C 	0.6765	0.8285	0.16194	-0.001
Mof_C 	C 	0.6259	0.7662	0.169	-0.001
Mof_C 	C 	0.6063	0.8547	0.1898	-0
Mof_C 	C 	0.7216	0.9256	0.1297	-0.001
Mof_H 	H 	0.7102	0.965	0.1364	0.053
Mof_C 	C 	0.7553	0.9399	0.1094	-0.124
Mof_C 	C 	0.7868	0.026	0.1002	0.406
Mof_O 	O 	0.5621	0.976	0.39006	-0.402
Mof_O 	O 	0.5178	0.8888	0.41795	-0.393
Mof_O 	O 	0.8114	0.0371	0.08301	-0.436
Mof_O 	O 	0.7733	0.0772	0.1105	-0.407
Mof_C 	C 	0.21347	0.24323	0.73273	0.333
Mof_C 	C 	0.21527	0.17373	0.72173	-0.069
Mof_C 	C 	0.21267	0.16973	0.70013	-0.031
Mof_H 	H 	0.20397	0.20923	0.69273	0.06
Mof_C 	C 	0.23107	0.17893	0.65593	-0.004
Mof_C 	C 	0.23197	0.18263	0.63463	0.004
Mof_C 	C 	0.20767	0.11033	0.62313	-0
Mof_C 	C 	0.24277	0.18533	0.59093	0.003
Mof_C 	C 	0.25237	0.19013	0.56973	0.004
Mof_C 	C 	0.35457	0.12033	0.52963	-0.001
Mof_C 	C 	0.37417	0.12523	0.50893	-0.009
Mof_C 	C 	0.34317	0.16183	0.49527	-0.001
Mof_C 	C 	0.29257	0.09953	0.50233	-0.001
Mof_C 	C 	0.27297	0.18803	0.52313	-0
Mof_C 	C 	0.38827	0.25893	0.46303	0.001
Mof_H 	H 	0.37687	0.29833	0.46973	0.052
Mof_C 	C 	0.42197	0.27323	0.44273	-0.126
Mof_C 	C 	0.45347	0.35933	0.43353	0.409
Mof_O 	O 	0.22877	0.30933	0.72339	-0.402
Mof_O 	O 	0.18447	0.22213	0.75128	-0.394
Mof_O 	O 	0.47807	0.37043	0.41634	-0.436
Mof_O 	O 	0.43997	0.41053	0.44383	-0.407
Mof_C 	C 	0.88013	0.57657	0.06607	0.332
Mof_C 	C 	0.88193	0.50707	0.05507	-0.068
Mof_C 	C 	0.87933	0.50307	0.03347	-0.032
Mof_H 	H 	0.87063	0.54257	0.02607	0.06
Mof_C 	C 	0.89773	0.51227	0.98927	-0.004
Mof_C 	C 	0.89863	0.51597	0.96797	0.004
Mof_C 	C 	0.87433	0.44367	0.95647	-0
Mof_C 	C 	0.90943	0.51867	0.92427	0.003
Mof_C 	C 	0.91903	0.52347	0.90307	0.005
Mof_C 	C 	0.02123	0.45367	0.86297	-0.004
Mof_C 	C 	0.04083	0.45857	0.84227	-0.009
Mof_C 	C 	0.00983	0.49517	0.82861	-0.003
Mof_C 	C 	0.95923	0.43287	0.83567	0.003
Mof_C 	C 	0.93963	0.52137	0.85647	-0.001
Mof_C 	C 	0.05493	0.59227	0.79637	0
Mof_H 	H 	0.04353	0.63167	0.80307	0.052
Mof_C 	C 	0.08863	0.60657	0.77607	-0.127
Mof_C 	C 	0.12013	0.69267	0.76687	0.409
Mof_O 	O 	0.89543	0.64267	0.05673	-0.402
Mof_O 	O 	0.85113	0.55547	0.08462	-0.394
Mof_O 	O 	0.14473	0.70377	0.74968	-0.436
Mof_O 	O 	0.10663	0.74387	0.77717	-0.408
Mof_Cu	Cu	0.47477	0.94955	0.43337	0.905
Mof_Cu	Cu	0.52435	0.04869	0.4005	0.913
Mof_Cu	Cu	0.14144	0.28288	0.7667	0.904
Mof_Cu	Cu	0.19101	0.38202	0.73383	0.913
Mof_Cu	Cu	0.80811	0.61622	0.10004	0.905
Mof_Cu	Cu	0.85768	0.71536	0.06717	0.913
Mof_Cu	Cu	0.47477	0.52523	0.43337	0.905
Mof_Cu	Cu	0.52434	0.47565	0.4005	0.913
Mof_Cu	Cu	0.14144	0.85856	0.7667	0.904
Mof_Cu	Cu	0.19101	0.80899	0.73383	0.913
Mof_Cu	Cu	0.80811	0.19189	0.10004	0.905
Mof_Cu	Cu	0.85768	0.14232	0.06717	0.913
Mof_Cu	Cu	0.05045	0.52523	0.43337	0.905
Mof_Cu	Cu	0.95131	0.47565	0.4005	0.913
Mof_Cu	Cu	0.71712	0.85856	0.7667	0.904
Mof_Cu	Cu	0.61798	0.80899	0.73383	0.913
Mof_Cu	Cu	0.38378	0.19189	0.10004	0.905
Mof_Cu	Cu	0.28464	0.14232	0.06717	0.913
Mof_C 	C 	0.2295	0.7705	0.3988	0.016
Mof_H 	H 	0.2346	0.7654	0.4131	0.059
Mof_C 	C 	0.2215	0.7785	0.3562	0.023
Mof_C 	C 	0.23	0.77	0.3324	-0.01
Mof_C 	C 	0.2055	0.7945	0.26866	0.002
Mof_C 	C 	0.19655	0.80345	0.22628	-0.001
Mof_C 	C 	0.1811	0.8189	0.20341	0.002
Mof_C 	C 	0.1465	0.8535	0.1391	0.001
Mof_C 	C 	0.11445	0.88555	0.1013	0.086
Mof_H 	H 	0.10165	0.89835	0.0881	0.034
Mof_C 	C 	0.89617	0.10383	0.73213	0.016
Mof_H 	H 	0.90127	0.09873	0.74643	0.06
Mof_C 	C 	0.88817	0.11183	0.68953	0.019
Mof_C 	C 	0.89667	0.10333	0.66573	-0.009
Mof_C 	C 	0.87217	0.12783	0.60199	0.002
Mof_C 	C 	0.86322	0.13678	0.55961	-0.001
Mof_C 	C 	0.84777	0.15223	0.53674	0.002
Mof_C 	C 	0.81317	0.18683	0.47243	-0.002
Mof_C 	C 	0.78112	0.21888	0.43463	0.091
Mof_H 	H 	0.76832	0.23168	0.42143	0.032
Mof_C 	C 	0.56283	0.43717	0.06547	0.017
Mof_H 	H 	0.56793	0.43207	0.07977	0.059
Mof_C 	C 	0.55483	0.44517	0.02287	0.022
Mof_C 	C 	0.56333	0.43667	0.99907	-0.01
Mof_C 	C 	0.53883	0.46117	0.93533	0.002
Mof_C 	C 	0.52988	0.47012	0.89295	-0.001
Mof_C 	C 	0.51443	0.48557	0.87008	0.002
Mof_C 	C 	0.47983	0.52017	0.80577	-0.001
Mof_C 	C 	0.44778	0.55222	0.76797	0.09
Mof_H 	H 	0.43498	0.56502	0.75477	0.032
Mof_C 	C 	0.541	0.7705	0.3988	0.017
Mof_H 	H 	0.5308	0.7654	0.4131	0.059
Mof_C 	C 	0.557	0.7785	0.3562	0.022
Mof_C 	C 	0.54	0.77	0.3324	-0.01
Mof_C 	C 	0.589	0.7945	0.26866	0.002
Mof_C 	C 	0.6069	0.80345	0.22628	-0.001
Mof_C 	C 	0.6378	0.8189	0.20341	0.002
Mof_C 	C 	0.707	0.8535	0.1391	-0
Mof_C 	C 	0.7711	0.88555	0.1013	0.088
Mof_H 	H 	0.7967	0.89835	0.0881	0.033
Mof_C 	C 	0.20767	0.10383	0.73213	0.016
Mof_H 	H 	0.19747	0.09873	0.74643	0.06
Mof_C 	C 	0.22367	0.11183	0.68953	0.021
Mof_C 	C 	0.20667	0.10333	0.66573	-0.01
Mof_C 	C 	0.25567	0.12783	0.60199	0.002
Mof_C 	C 	0.27357	0.13678	0.55961	-0.001
Mof_C 	C 	0.30447	0.15223	0.53674	0.002
Mof_C 	C 	0.37367	0.18683	0.47243	-0.001
Mof_C 	C 	0.43777	0.21888	0.43463	0.09
Mof_H 	H 	0.46337	0.23168	0.42143	0.032
Mof_C 	C 	0.87433	0.43717	0.06547	0.017
Mof_H 	H 	0.86413	0.43207	0.07977	0.059
Mof_C 	C 	0.89033	0.44517	0.02287	0.022
Mof_C 	C 	0.87333	0.43667	0.99907	-0.01
Mof_C 	C 	0.92233	0.46117	0.93533	0.002
Mof_C 	C 	0.94023	0.47012	0.89295	-0.002
Mof_C 	C 	0.97113	0.48557	0.87008	0.006
Mof_C 	C 	0.04033	0.52017	0.80577	-0.001
Mof_C 	C 	0.10443	0.55222	0.76797	0.09
Mof_H 	H 	0.13003	0.56502	0.75477	0.032
Mof_C 	C 	0.2295	0.459	0.3988	0.017
Mof_H 	H 	0.2346	0.4692	0.4131	0.059
Mof_C 	C 	0.2215	0.443	0.3562	0.022
Mof_C 	C 	0.23	0.46	0.3324	-0.01
Mof_C 	C 	0.2055	0.411	0.26866	0.002
Mof_C 	C 	0.19655	0.3931	0.22628	-0.001
Mof_C 	C 	0.1811	0.3622	0.20341	0.002
Mof_C 	C 	0.1465	0.293	0.1391	-0
Mof_C 	C 	0.11445	0.2289	0.1013	0.088
Mof_H 	H 	0.10165	0.2033	0.0881	0.033
Mof_C 	C 	0.89617	0.79233	0.73213	0.016
Mof_H 	H 	0.90127	0.80253	0.74643	0.06
Mof_C 	C 	0.88817	0.77633	0.68953	0.021
Mof_C 	C 	0.89667	0.79333	0.66573	-0.01
Mof_C 	C 	0.87217	0.74433	0.60199	0.002
Mof_C 	C 	0.86322	0.72643	0.55961	-0.001
Mof_C 	C 	0.84777	0.69553	0.53674	0.002
Mof_C 	C 	0.81317	0.62633	0.47243	-0.001
Mof_C 	C 	0.78112	0.56223	0.43463	0.09
Mof_H 	H 	0.76832	0.53663	0.42143	0.032
Mof_C 	C 	0.56283	0.12567	0.06547	0.017
Mof_H 	H 	0.56793	0.13587	0.07977	0.059
Mof_C 	C 	0.55483	0.10967	0.02287	0.022
Mof_C 	C 	0.56333	0.12667	0.99907	-0.01
Mof_C 	C 	0.53883	0.07767	0.93533	0.002
Mof_C 	C 	0.52988	0.05977	0.89295	-0.002
Mof_C 	C 	0.51443	0.02887	0.87008	0.006
Mof_C 	C 	0.47983	0.95967	0.80577	-0.001
Mof_C 	C 	0.44778	0.89557	0.76797	0.09
Mof_H 	H 	0.43498	0.86997	0.75477	0.032
_end
