data_functionalizedCrystal
_audit_creation_method	'EQeq! by Chris Wilmer'
_symmetry_space_group_name_H-M	'P1'
_symmetry_Int_Tables_number	1
_symmetry_cell_setting	triclinic
loop_
_symmetry_equiv_pos_as_xyz
  x,y,z
_cell_length_a	14.3905
_cell_length_b	22.2074
_cell_length_c	22.2732
_cell_angle_alpha	83.9921
_cell_angle_beta	71.1528
_cell_angle_gamma	71.095
loop_
_atom_site_label
_atom_site_type_symbol
_atom_site_fract_x
_atom_site_fract_y
_atom_site_fract_z
_atom_site_charge
Mof_Cu	Cu	0.57844	0.25235	0.82005	0.858
Mof_Cu	Cu	0.60151	0.74765	0.82005	0.858
Mof_Cu	Cu	0.08079	0.24765	0.32005	0.85
Mof_Cu	Cu	0.59916	0.75235	0.32005	0.858
Mof_H 	H 	0.569	0.1696	0.934	0.016
Mof_H 	H 	0.4692	0.1678	0.0392	0.097
Mof_H 	H 	0.2842	0.3438	0.0132	0.095
Mof_H 	H 	0.3875	0.3382	0.9076	0.002
Mof_H 	H 	0.4144	0.2052	0.1428	0.103
Mof_H 	H 	0.3068	0.206	0.2462	0.021
Mof_H 	H 	0.0615	0.3012	0.195	-0.002
Mof_H 	H 	0.1619	0.3072	0.0908	0.085
Mof_H 	H 	0.7393	0.1248	0.7864	0.012
Mof_H 	H 	0.7473	0.018	0.7854	0.111
Mof_H 	H 	0.4358	0.072	0.838	0.108
Mof_H 	H 	0.4347	0.1768	0.8404	-0.007
Mof_H 	H 	0.6056	0.334	0.9074	0.017
Mof_H 	H 	0.6055	0.4374	0.9156	0.102
Mof_H 	H 	0.5506	0.4752	0.7454	0.091
Mof_H 	H 	0.5383	0.3742	0.7472	-0.001
Mof_H 	H 	0.497	0.8304	0.934	0.016
Mof_H 	H 	0.4916	0.8322	0.0392	0.097
Mof_H 	H 	0.7026	0.6562	0.0132	0.096
Mof_H 	H 	0.7049	0.6618	0.9076	0.004
Mof_H 	H 	0.4428	0.7948	0.1428	0.103
Mof_H 	H 	0.447	0.794	0.2462	0.022
Mof_H 	H 	0.7435	0.6988	0.195	0.007
Mof_H 	H 	0.7473	0.6928	0.0908	0.089
Mof_H 	H 	0.4743	0.8752	0.7864	0.011
Mof_H 	H 	0.4673	0.982	0.7854	0.106
Mof_H 	H 	0.7262	0.928	0.838	0.106
Mof_H 	H 	0.7249	0.8232	0.8404	-0.005
Mof_H 	H 	0.487	0.666	0.9074	0.017
Mof_H 	H 	0.4789	0.5626	0.9156	0.102
Mof_H 	H 	0.704	0.5248	0.7454	0.093
Mof_H 	H 	0.7145	0.6258	0.7472	0
Mof_H 	H 	0.9886	0.3304	0.434	0.021
Mof_H 	H 	0.887	0.3322	0.5392	0.099
Mof_H 	H 	0.878	0.1562	0.5132	0.087
Mof_H 	H 	0.9757	0.1618	0.4076	0.013
Mof_H 	H 	0.8696	0.2948	0.6428	0.109
Mof_H 	H 	0.7628	0.294	0.7462	0.022
Mof_H 	H 	0.6127	0.1988	0.695	0.006
Mof_H 	H 	0.7191	0.1928	0.5908	0.089
Mof_H 	H 	0.1141	0.3752	0.2864	0.038
Mof_H 	H 	0.0153	0.482	0.2854	0.058
Mof_H 	H 	0.7578	0.428	0.338	0.095
Mof_H 	H 	0.8615	0.3232	0.3404	0.002
Mof_H 	H 	0.1896	0.166	0.4074	0.015
Mof_H 	H 	0.2929	0.0626	0.4156	0.103
Mof_H 	H 	0.2758	0.0248	0.2454	0.093
Mof_H 	H 	0.1625	0.1258	0.2472	-0.004
Mof_H 	H 	0.5774	0.6696	0.434	0.015
Mof_H 	H 	0.5738	0.6678	0.5392	0.097
Mof_H 	H 	0.6088	0.8438	0.5132	0.085
Mof_H 	H 	0.6167	0.8382	0.4076	0.007
Mof_H 	H 	0.4876	0.7052	0.6428	0.104
Mof_H 	H 	0.491	0.706	0.7462	0.022
Mof_H 	H 	0.6923	0.8012	0.695	0.006
Mof_H 	H 	0.6901	0.8072	0.5908	0.088
Mof_H 	H 	0.5995	0.6248	0.2864	0.009
Mof_H 	H 	0.6993	0.518	0.2854	0.114
Mof_H 	H 	0.9042	0.572	0.338	0.12
Mof_H 	H 	0.7981	0.6768	0.3404	-0.006
Mof_H 	H 	0.403	0.834	0.4074	0.018
Mof_H 	H 	0.2915	0.9374	0.4156	0.1
Mof_H 	H 	0.4788	0.9752	0.2454	0.09
Mof_H 	H 	0.5903	0.8742	0.2472	0
Mof_C 	C 	0.50971	0.20512	0.95046	0.083
Mof_C 	C 	0.45122	0.20384	0.01332	-0.101
Mof_C 	C 	0.36652	0.25574	0.03762	0.085
Mof_C 	C 	0.34193	0.3073	0.99784	-0.137
Mof_C 	C 	0.40448	0.30354	0.9351	0.091
Mof_C 	C 	0.29931	0.25622	0.10516	0.065
Mof_C 	C 	0.3422	0.22566	0.15254	-0.109
Mof_C 	C 	0.27724	0.22576	0.21396	0.076
Mof_C 	C 	0.13406	0.28182	0.18426	0.077
Mof_C 	C 	0.19329	0.28526	0.12176	-0.109
Mof_C 	C 	0.67708	0.11402	0.79722	0.09
Mof_C 	C 	0.68221	0.0502	0.79598	-0.114
Mof_C 	C 	0.59332	0.03426	0.8101	0.089
Mof_C 	C 	0.49871	0.08186	0.82732	-0.125
Mof_C 	C 	0.49918	0.14402	0.82842	0.093
Mof_C 	C 	0.59252	0.36358	0.87478	0.084
Mof_C 	C 	0.59467	0.4249	0.87956	-0.11
Mof_C 	C 	0.58067	0.46762	0.83084	0.072
Mof_C 	C 	0.56048	0.44736	0.77988	-0.115
Mof_C 	C 	0.55527	0.38684	0.78082	0.085
Mof_C 	C 	0.53983	0.79488	0.95046	0.083
Mof_C 	C 	0.53546	0.79616	0.01332	-0.101
Mof_C 	C 	0.59586	0.74426	0.03762	0.084
Mof_C 	C 	0.66023	0.6927	0.99784	-0.135
Mof_C 	C 	0.66042	0.69646	0.9351	0.091
Mof_C 	C 	0.59553	0.74378	0.10516	0.065
Mof_C 	C 	0.50526	0.77434	0.15254	-0.108
Mof_C 	C 	0.5088	0.77424	0.21396	0.076
Mof_C 	C 	0.68168	0.71818	0.18426	0.078
Mof_C 	C 	0.68495	0.71474	0.12176	-0.107
Mof_C 	C 	0.5257	0.88598	0.79722	0.087
Mof_C 	C 	0.52181	0.9498	0.79598	-0.109
Mof_C 	C 	0.59658	0.96574	0.8101	0.079
Mof_C 	C 	0.67397	0.91814	0.82732	-0.12
Mof_C 	C 	0.6724	0.85598	0.82842	0.09
Mof_C 	C 	0.5327	0.63642	0.87478	0.084
Mof_C 	C 	0.52577	0.5751	0.87956	-0.11
Mof_C 	C 	0.58849	0.53238	0.83084	0.072
Mof_C 	C 	0.65964	0.55264	0.77988	-0.115
Mof_C 	C 	0.66391	0.61316	0.78082	0.086
Mof_C 	C 	0.96483	0.29488	0.45046	0.089
Mof_C 	C 	0.90506	0.29616	0.51332	-0.101
Mof_C 	C 	0.87226	0.24426	0.53762	0.075
Mof_C 	C 	0.89923	0.1927	0.49784	-0.112
Mof_C 	C 	0.95802	0.19646	0.4351	0.085
Mof_C 	C 	0.80553	0.24378	0.60516	0.072
Mof_C 	C 	0.81786	0.27434	0.65254	-0.111
Mof_C 	C 	0.753	0.27424	0.71396	0.079
Mof_C 	C 	0.66588	0.21818	0.68426	0.079
Mof_C 	C 	0.72855	0.21474	0.62176	-0.11
Mof_C 	C 	0.0411	0.38598	0.29722	-0
Mof_C 	C 	0.98241	0.4498	0.29598	-0.001
Mof_C 	C 	0.87758	0.46574	0.3101	0.034
Mof_C 	C 	0.83057	0.41814	0.32732	-0.087
Mof_C 	C 	0.8932	0.35598	0.32842	0.072
Mof_C 	C 	0.2061	0.13642	0.37478	0.084
Mof_C 	C 	0.26957	0.0751	0.37956	-0.113
Mof_C 	C 	0.29829	0.03238	0.33084	0.078
Mof_C 	C 	0.25784	0.05264	0.27988	-0.118
Mof_C 	C 	0.19211	0.11316	0.28082	0.086
Mof_C 	C 	0.58471	0.70512	0.45046	0.088
Mof_C 	C 	0.58162	0.70384	0.51332	-0.104
Mof_C 	C 	0.59012	0.75574	0.53762	0.074
Mof_C 	C 	0.60293	0.8073	0.49784	-0.115
Mof_C 	C 	0.60688	0.80354	0.4351	0.083
Mof_C 	C 	0.58931	0.75622	0.60516	0.069
Mof_C 	C 	0.5296	0.72566	0.65254	-0.111
Mof_C 	C 	0.53304	0.72576	0.71396	0.077
Mof_C 	C 	0.64986	0.78182	0.68426	0.078
Mof_C 	C 	0.64969	0.78526	0.62176	-0.11
Mof_C 	C 	0.66168	0.61402	0.29722	0.097
Mof_C 	C 	0.72161	0.5502	0.29598	-0.128
Mof_C 	C 	0.81232	0.53426	0.3101	0.112
Mof_C 	C 	0.84211	0.58186	0.32732	-0.137
Mof_C 	C 	0.77838	0.64402	0.32842	0.1
Mof_C 	C 	0.41912	0.86358	0.37478	0.081
Mof_C 	C 	0.35087	0.9249	0.37956	-0.106
Mof_C 	C 	0.37087	0.96762	0.33084	0.066
Mof_C 	C 	0.46228	0.94736	0.27988	-0.112
Mof_C 	C 	0.52707	0.88684	0.28082	0.083
Mof_N 	N 	0.48656	0.25428	0.9116	-0.231
Mof_N 	N 	0.58574	0.16046	0.81346	-0.233
Mof_N 	N 	0.57291	0.34408	0.8267	-0.23
Mof_N 	N 	0.17363	0.25272	0.23002	-0.23
Mof_N 	N 	0.60184	0.74572	0.9116	-0.231
Mof_N 	N 	0.6008	0.83954	0.81346	-0.232
Mof_N 	N 	0.60039	0.65592	0.8267	-0.23
Mof_N 	N 	0.59635	0.74728	0.23002	-0.228
Mof_N 	N 	0.99084	0.24572	0.4116	-0.224
Mof_N 	N 	0.9962	0.33954	0.31346	-0.202
Mof_N 	N 	0.16699	0.15592	0.3267	-0.233
Mof_N 	N 	0.67635	0.24728	0.73002	-0.229
Mof_N 	N 	0.59756	0.75428	0.4116	-0.23
Mof_N 	N 	0.69034	0.66046	0.31346	-0.236
Mof_N 	N 	0.50631	0.84408	0.3267	-0.229
Mof_N 	N 	0.59363	0.75272	0.73002	-0.229
Mof_Cu	Cu	0.50488	0.24684	0.46886	0.873
Mof_Cu	Cu	0.02626	0.75316	0.46886	0.867
Mof_Cu	Cu	0.00172	0.25316	0.96886	0.865
Mof_Cu	Cu	0.02942	0.74684	0.96886	0.867
Mof_H 	H 	0.6008	0.1648	0.3542	0.017
Mof_H 	H 	0.7015	0.1652	0.2492	0.09
Mof_H 	H 	0.7123	0.3394	0.2784	0.09
Mof_H 	H 	0.6113	0.3344	0.3828	0.032
Mof_H 	H 	0.7163	0.2074	0.1464	0.107
Mof_H 	H 	0.8205	0.2102	0.0426	0.025
Mof_H 	H 	0.9723	0.3026	0.0966	0.022
Mof_H 	H 	0.8717	0.3032	0.2002	0.088
Mof_H 	H 	0.4841	0.1176	0.5052	0.011
Mof_H 	H 	0.5863	0.014	0.5128	0.1
Mof_H 	H 	0.8375	0.0764	0.456	0.098
Mof_H 	H 	0.7271	0.1786	0.451	0.006
Mof_H 	H 	0.4013	0.3334	0.3808	0.02
Mof_H 	H 	0.3028	0.439	0.3748	0.105
Mof_H 	H 	0.3272	0.4704	0.544	0.089
Mof_H 	H 	0.4266	0.3654	0.5454	0.017
Mof_H 	H 	0.045	0.8352	0.3542	0.012
Mof_H 	H 	0.0493	0.8348	0.2492	0.088
Mof_H 	H 	0.0093	0.6606	0.2784	0.088
Mof_H 	H 	0.0059	0.6656	0.3828	0.027
Mof_H 	H 	0.1373	0.7926	0.1464	0.101
Mof_H 	H 	0.1369	0.7898	0.0426	0.025
Mof_H 	H 	0.9311	0.6974	0.0966	0.017
Mof_H 	H 	0.9281	0.6968	0.2002	0.082
Mof_H 	H 	0.0107	0.8824	0.5052	-0.019
Mof_H 	H 	0.9009	0.986	0.5128	0.111
Mof_H 	H 	0.7065	0.9236	0.456	0.095
Mof_H 	H 	0.8219	0.8214	0.451	0.007
Mof_H 	H 	0.2179	0.6666	0.3808	0.02
Mof_H 	H 	0.3224	0.561	0.3748	0.105
Mof_H 	H 	0.1288	0.5296	0.544	0.086
Mof_H 	H 	0.028	0.6346	0.5454	0.011
Mof_H 	H 	0.0156	0.3352	0.8542	0.01
Mof_H 	H 	0.1167	0.3348	0.7492	0.086
Mof_H 	H 	0.3017	0.1606	0.7784	0.09
Mof_H 	H 	0.1957	0.1656	0.8828	0.031
Mof_H 	H 	0.1737	0.2926	0.6464	0.105
Mof_H 	H 	0.2807	0.2898	0.5426	0.021
Mof_H 	H 	0.5249	0.1974	0.5966	0.014
Mof_H 	H 	0.4249	0.1968	0.7002	0.086
Mof_H 	H 	0.8517	0.3824	0.0052	0.015
Mof_H 	H 	0.8503	0.486	0.0128	0.101
Mof_H 	H 	0.1639	0.4236	0.956	0.091
Mof_H 	H 	0.1557	0.3214	0.951	0.006
Mof_H 	H 	0.9847	0.1666	0.8808	-0.004
Mof_H 	H 	0.9918	0.061	0.8748	0.158
Mof_H 	H 	0.0476	0.0296	0.044	0.101
Mof_H 	H 	0.042	0.1346	0.0454	0.005
Mof_H 	H 	0.1302	0.6648	0.8542	0.017
Mof_H 	H 	0.1341	0.6652	0.7492	0.085
Mof_H 	H 	0.9199	0.8394	0.7784	0.086
Mof_H 	H 	0.9215	0.8344	0.8828	0.032
Mof_H 	H 	0.1799	0.7074	0.6464	0.104
Mof_H 	H 	0.1767	0.7102	0.5426	0.022
Mof_H 	H 	0.8785	0.8026	0.5966	0.012
Mof_H 	H 	0.8749	0.8032	0.7002	0.081
Mof_H 	H 	0.1431	0.6176	0.0052	0.018
Mof_H 	H 	0.1369	0.514	0.0128	0.104
Mof_H 	H 	0.8801	0.5764	0.956	0.089
Mof_H 	H 	0.8933	0.6786	0.951	0.004
Mof_H 	H 	0.1345	0.8334	0.8808	0.025
Mof_H 	H 	0.1334	0.939	0.8748	0.092
Mof_H 	H 	0.9084	0.9704	0.044	0.076
Mof_H 	H 	0.9126	0.8654	0.0454	0.022
Mof_C 	C 	0.62397	0.20056	0.3387	0.08
Mof_C 	C 	0.68423	0.2006	0.27574	-0.104
Mof_C 	C 	0.71931	0.25214	0.25164	0.057
Mof_C 	C 	0.69064	0.30288	0.29284	-0.109
Mof_C 	C 	0.63023	0.29958	0.35516	0.069
Mof_C 	C 	0.78271	0.2538	0.18578	0.066
Mof_C 	C 	0.76898	0.227	0.13724	-0.114
Mof_C 	C 	0.8316	0.22866	0.07514	0.081
Mof_C 	C 	0.91972	0.28278	0.10698	0.086
Mof_C 	C 	0.86037	0.28312	0.16874	-0.116
Mof_C 	C 	0.55661	0.10892	0.49506	0.088
Mof_C 	C 	0.61729	0.04684	0.49898	-0.106
Mof_C 	C 	0.72465	0.03264	0.48246	0.072
Mof_C 	C 	0.76541	0.08352	0.46566	-0.121
Mof_C 	C 	0.69898	0.1444	0.46324	0.081
Mof_C 	C 	0.38635	0.36198	0.41412	0.082
Mof_C 	C 	0.32678	0.42456	0.41048	-0.105
Mof_C 	C 	0.30249	0.4665	0.46052	0.072
Mof_C 	C 	0.34145	0.4431	0.5098	-0.11
Mof_C 	C 	0.40085	0.38058	0.51052	0.083
Mof_C 	C 	0.03733	0.79944	0.3387	0.079
Mof_C 	C 	0.04003	0.7994	0.27574	-0.112
Mof_C 	C 	0.02905	0.74786	0.25164	0.064
Mof_C 	C 	0.01652	0.69712	0.29284	-0.118
Mof_C 	C 	0.01461	0.70042	0.35516	0.069
Mof_C 	C 	0.03151	0.7462	0.18578	0.034
Mof_C 	C 	0.09378	0.773	0.13724	-0.103
Mof_C 	C 	0.09326	0.77134	0.07514	0.067
Mof_C 	C 	0.9733	0.71722	0.10698	0.095
Mof_C 	C 	0.97089	0.71688	0.16874	-0.087
Mof_C 	C 	0.94833	0.89108	0.49506	0.135
Mof_C 	C 	0.88373	0.95316	0.49898	-0.127
Mof_C 	C 	0.79289	0.96736	0.48246	0.079
Mof_C 	C 	0.76893	0.91648	0.46566	-0.126
Mof_C 	C 	0.83778	0.8556	0.46324	0.086
Mof_C 	C 	0.19953	0.63802	0.41412	0.083
Mof_C 	C 	0.26274	0.57544	0.41048	-0.105
Mof_C 	C 	0.23699	0.5335	0.46052	0.072
Mof_C 	C 	0.14875	0.5569	0.5098	-0.112
Mof_C 	C 	0.08863	0.61942	0.51052	0.082
Mof_C 	C 	0.07453	0.29944	0.8387	0.077
Mof_C 	C 	0.13483	0.2994	0.77574	-0.106
Mof_C 	C 	0.22145	0.24786	0.75164	0.055
Mof_C 	C 	0.24352	0.19712	0.79284	-0.11
Mof_C 	C 	0.17981	0.20042	0.85516	0.067
Mof_C 	C 	0.28651	0.2462	0.68578	0.064
Mof_C 	C 	0.24598	0.273	0.63724	-0.115
Mof_C 	C 	0.31026	0.27134	0.57514	0.078
Mof_C 	C 	0.4525	0.21722	0.60698	0.084
Mof_C 	C 	0.39349	0.21688	0.66874	-0.118
Mof_C 	C 	0.91553	0.39108	0.99506	0.094
Mof_C 	C 	0.91413	0.45316	0.99898	-0.09
Mof_C 	C 	0.00729	0.46736	0.98246	0.052
Mof_C 	C 	0.09893	0.41648	0.96566	-0.117
Mof_C 	C 	0.09338	0.3556	0.96324	0.072
Mof_C 	C 	0.99833	0.13802	0.91412	0.176
Mof_C 	C 	0.00134	0.07544	0.91048	-0.22
Mof_C 	C 	0.01899	0.0335	0.96052	0.129
Mof_C 	C 	0.03455	0.0569	0.0098	-0.149
Mof_C 	C 	0.03143	0.11942	0.01052	0.11
Mof_C 	C 	0.08677	0.70056	0.8387	0.071
Mof_C 	C 	0.08943	0.7006	0.77574	-0.099
Mof_C 	C 	0.02691	0.75214	0.75164	0.035
Mof_C 	C 	0.96364	0.80288	0.79284	-0.085
Mof_C 	C 	0.96503	0.79958	0.85516	0.082
Mof_C 	C 	0.02771	0.7538	0.68578	0.045
Mof_C 	C 	0.11678	0.727	0.63724	-0.111
Mof_C 	C 	0.1146	0.72866	0.57514	0.073
Mof_C 	C 	0.94052	0.78278	0.60698	0.099
Mof_C 	C 	0.93777	0.78312	0.66874	-0.096
Mof_C 	C 	0.08941	0.60892	0.99506	0.074
Mof_C 	C 	0.08689	0.54684	0.99898	-0.109
Mof_C 	C 	0.01025	0.53264	0.98246	0.053
Mof_C 	C 	0.93541	0.58352	0.96566	-0.1
Mof_C 	C 	0.94338	0.6444	0.96324	0.093
Mof_C 	C 	0.08755	0.86198	0.91412	0.062
Mof_C 	C 	0.08818	0.92456	0.91048	-0.076
Mof_C 	C 	0.02049	0.9665	0.96052	0.005
Mof_C 	C 	0.95565	0.9431	0.0098	-0.054
Mof_C 	C 	0.95805	0.88058	0.01052	0.087
Mof_N 	N 	0.59716	0.24878	0.3781	-0.22
Mof_N 	N 	0.59648	0.15688	0.47756	-0.225
Mof_N 	N 	0.42339	0.3403	0.46252	-0.219
Mof_N 	N 	0.90718	0.25554	0.0599	-0.216
Mof_N 	N 	0.64672	0.33406	0.5055	0.056
Mof_N 	N 	0.02474	0.75122	0.3781	-0.224
Mof_N 	N 	0.92596	0.84312	0.47756	-0.227
Mof_N 	N 	0.11409	0.6597	0.46252	-0.221
Mof_N 	N 	0.03292	0.74446	0.0599	-0.231
Mof_N 	N 	0.84778	0.66594	0.5055	0.056
Mof_N 	N 	0.09594	0.25122	0.8781	-0.222
Mof_N 	N 	0.00336	0.34312	0.97756	-0.236
Mof_N 	N 	0.01369	0.1597	0.96252	-0.252
Mof_N 	N 	0.41272	0.24446	0.5599	-0.223
Mof_N 	N 	0.23078	0.16594	0.0055	0.059
Mof_N 	N 	0.02596	0.74878	0.8781	-0.23
Mof_N 	N 	0.01908	0.65688	0.97756	-0.235
Mof_N 	N 	0.02379	0.8403	0.96252	-0.228
Mof_N 	N 	0.02738	0.75554	0.5599	-0.234
Mof_N 	N 	0.76372	0.83406	0.0055	0.058
Mof_O 	O 	0.62115	0.28588	0.51202	-0.2
Mof_O 	O 	0.6889	0.3626	0.4592	-0.11
Mof_O 	O 	0.6211	0.3652	0.5568	-0.103
Mof_O 	O 	0.86683	0.71412	0.51202	-0.192
Mof_O 	O 	0.8519	0.6374	0.4592	-0.105
Mof_O 	O 	0.8221	0.6348	0.5568	-0.099
Mof_O 	O 	0.15703	0.21412	0.01202	-0.2
Mof_O 	O 	0.3015	0.1374	0.9592	-0.115
Mof_O 	O 	0.2363	0.1348	0.0568	-0.103
Mof_O 	O 	0.83095	0.78588	0.01202	-0.192
Mof_O 	O 	0.7393	0.8626	0.9592	-0.113
Mof_O 	O 	0.7069	0.8652	0.0568	-0.102
Mof_N 	N 	0.45256	0.245	0.26448	0.06
Mof_O 	O 	0.39942	0.2954	0.28436	-0.118
Mof_O 	O 	0.43515	0.2044	0.2981	-0.125
Mof_O 	O 	0.51707	0.2366	0.20986	-0.104
Mof_N 	N 	0.06383	0.99654	0.384	0.051
Mof_O 	O 	0.03149	0.04282	0.418	-0.138
Mof_O 	O 	0.12352	0.94516	0.391	-0.12
Mof_O 	O 	0.0373	-6.80502e-23	0.3352	-0.115
Mof_N 	N 	0.7807	0.943	0.6622	0.053
Mof_O 	O 	0.7443	0.9004	0.6688	-0.119
Mof_O 	O 	0.7555	0.9972	0.642	-0.088
Mof_O 	O 	0.8537	0.9304	0.686	-0.108
Mof_N 	N 	0.8054	0.0028	0.9076	0.055
Mof_O 	O 	0.8577	0.9602	0.8686	-0.113
Mof_O 	O 	0.8218	0.0538	0.8936	-0.11
Mof_O 	O 	0.746	0.9936	0.9584	-0.093
Mof_N 	N 	0.6457	0.244	0.0274	0.059
Mof_O 	O 	0.698	0.1982	0.9958	-0.123
Mof_O 	O 	0.6492	0.2924	0.0016	-0.118
Mof_O 	O 	0.591	0.238	0.0824	-0.103
Mof_N 	N 	0.28296	0.755	0.26448	0.06
Mof_O 	O 	0.31622	0.7046	0.28436	-0.117
Mof_O 	O 	0.26675	0.7956	0.2981	-0.126
Mof_O 	O 	0.27307	0.7634	0.20986	-0.105
Mof_N 	N 	0.55217	0.00346	0.384	0.055
Mof_O 	O 	0.55051	0.95718	0.418	-0.132
Mof_O 	O 	0.48548	0.05484	0.391	-0.116
Mof_O 	O 	0.6275	-6.80502e-23	0.3352	-0.107
Mof_N 	N 	0.5571	0.057	0.6622	0.053
Mof_O 	O 	0.5869	0.0996	0.6688	-0.118
Mof_O 	O 	0.6025	0.0028	0.642	-0.086
Mof_O 	O 	0.4603	0.0696	0.686	-0.112
Mof_N 	N 	0.287	0.9972	0.9076	0.049
Mof_O 	O 	0.2737	0.0398	0.8686	-0.114
Mof_O 	O 	0.2846	0.9462	0.8936	-0.114
Mof_O 	O 	0.2956	0.0064	0.9584	-0.09
Mof_N 	N 	0.3269	0.756	0.0274	0.059
Mof_O 	O 	0.3062	0.8018	0.9958	-0.126
Mof_O 	O 	0.3492	0.7076	0.0016	-0.119
Mof_O 	O 	0.3266	0.762	0.0824	-0.104
Mof_N 	N 	0.94756	0.255	0.76448	0.07
Mof_O 	O 	0.94482	0.2046	0.78436	-0.111
Mof_O 	O 	0.88955	0.2956	0.7981	-0.12
Mof_O 	O 	0.00367	0.2634	0.70986	-0.122
Mof_N 	N 	0.31037	0.50346	0.884	0.054
Mof_O 	O 	0.32431	0.45718	0.918	-0.131
Mof_O 	O 	0.31868	0.55484	0.891	-0.117
Mof_O 	O 	0.2873	0.5	0.8352	-0.112
Mof_N 	N 	0.9737	0.557	0.1622	0.074
Mof_O 	O 	0.8947	0.5996	0.1688	-0.117
Mof_O 	O 	0.0027	0.5028	0.142	-0.106
Mof_O 	O 	0.0341	0.5696	0.186	-0.127
Mof_N 	N 	0.0582	0.4972	0.4076	0.041
Mof_O 	O 	0.0679	0.5398	0.3686	-0.118
Mof_O 	O 	0.1256	0.4462	0.3936	-0.116
Mof_O 	O 	0.9896	0.5064	0.4584	-0.072
Mof_N 	N 	0.1397	0.256	0.5274	0.057
Mof_O 	O 	0.1462	0.3018	0.4958	-0.126
Mof_O 	O 	0.1916	0.2076	0.5016	-0.125
Mof_O 	O 	0.079	0.262	0.5824	-0.112
Mof_N 	N 	0.28796	0.745	0.76448	0.06
Mof_O 	O 	0.27082	0.7954	0.78436	-0.12
Mof_O 	O 	0.31235	0.7044	0.7981	-0.126
Mof_O 	O 	0.28647	0.7366	0.70986	-0.106
Mof_N 	N 	0.80563	0.49654	0.884	0.053
Mof_O 	O 	0.75769	0.54282	0.918	-0.129
Mof_O 	O 	0.79032	0.44516	0.891	-0.114
Mof_O 	O 	0.8775	0.5	0.8352	-0.103
Mof_N 	N 	0.8641	0.443	0.1622	0.053
Mof_O 	O 	0.9365	0.4004	0.1688	-0.109
Mof_O 	O 	0.8553	0.4972	0.142	-0.08
Mof_O 	O 	0.7799	0.4304	0.186	-0.111
Mof_N 	N 	0.5342	0.5028	0.4076	0.052
Mof_O 	O 	0.5635	0.4602	0.3686	-0.114
Mof_O 	O 	0.4808	0.5538	0.3936	-0.113
Mof_O 	O 	0.552	0.4936	0.4584	-0.09
Mof_N 	N 	0.3329	0.744	0.5274	0.056
Mof_O 	O 	0.358	0.6982	0.4958	-0.12
Mof_O 	O 	0.3068	0.7924	0.5016	-0.123
Mof_O 	O 	0.3386	0.738	0.5824	-0.105
_end
