data_functionalizedCrystal
_audit_creation_method	'EQeq! by Chris Wilmer'
_symmetry_space_group_name_H-M	'P1'
_symmetry_Int_Tables_number	1
_symmetry_cell_setting	triclinic
loop_
_symmetry_equiv_pos_as_xyz
  x,y,z
_cell_length_a	9.6484
_cell_length_b	11.7939
_cell_length_c	11.8603
_cell_angle_alpha	73.671
_cell_angle_beta	67.426
_cell_angle_gamma	74.356
loop_
_atom_site_label
_atom_site_type_symbol
_atom_site_fract_x
_atom_site_fract_y
_atom_site_fract_z
_atom_site_charge
Mof_Mg	Mg	0.63984	0.26049	0.33464	1.477
Mof_S 	S 	0.37844	0.7037	0.11655	-0.061
Mof_S 	S 	0.11196	0.29144	0.3948	-0.043
Mof_O 	O 	0.5051	0.55608	0.31533	-0.486
Mof_O 	O 	0.6618	0.4188	0.20383	-0.495
Mof_O 	O 	0.2056	0.8939	0.9797	-0.613
Mof_O 	O 	0.3056	0.83243	0.80016	-0.552
Mof_O 	O 	0.4121	0.2965	0.39376	-0.505
Mof_O 	O 	0.3332	0.40088	0.54544	-0.484
Mof_O 	O 	0.8633	0.2483	0.33254	-0.412
Mof_O 	O 	0.6694	0.3434	0.46483	-0.582
Mof_C 	C 	0.5721	0.5175	0.2157	0.44
Mof_C 	C 	0.5394	0.594	0.1023	-0.216
Mof_C 	C 	0.6171	0.5866	0.9803	0.174
Mof_H 	H 	0.7073	0.5326	0.9543	0.013
Mof_C 	C 	0.5468	0.6693	0.8982	-0.093
Mof_H 	H 	0.5857	0.6764	0.8121	0.065
Mof_C 	C 	0.4152	0.7377	0.959	-0.044
Mof_C 	C 	0.3018	0.8271	0.9086	0.437
Mof_C 	C 	0.3114	0.345	0.4806	0.391
Mof_C 	C 	0.1509	0.3374	0.5026	-0.061
Mof_C 	C 	0.0196	0.3741	0.5944	-0.179
Mof_H 	H 	0.0184	0.4007	0.6616	0.075
Mof_C 	C 	0.8874	0.367	0.5754	0.131
Mof_H 	H 	0.7889	0.3885	0.6286	0.002
Mof_C 	C 	0.919	0.3252	0.4706	-0.065
Mof_C 	C 	0.8123	0.3054	0.4191	0.356
Mof_O 	O 	0.6439	0.0931	0.4566	-0.689
Mof_H 	H 	0.6341	0.0951	0.5278	0.277
Mof_C 	C 	0.5799	0.9951	0.4585	0.868
Mof_H 	H 	0.6389	0.9194	0.4871	-0.273
Mof_H 	H 	0.585	0.9965	0.3748	-0.222
Mof_H 	H 	0.7142	0.0817	0.4852	0.182
Mof_C 	C 	0.543	0.011	0.531	-0.787
Mof_H 	H 	0.6019	0.9352	0.5592	0.244
Mof_H 	H 	0.4728	0.0424	0.6039	0.233
Mof_Mg	Mg	0.36016	0.73951	0.66536	1.477
Mof_S 	S 	0.62156	0.2963	0.88345	0.161
Mof_S 	S 	0.88804	0.70856	0.6052	0.142
Mof_O 	O 	0.4949	0.44392	0.68467	-0.467
Mof_O 	O 	0.3382	0.5812	0.79617	-0.463
Mof_O 	O 	0.7944	0.1061	0.0203	-0.61
Mof_O 	O 	0.6944	0.16757	0.19984	-0.517
Mof_O 	O 	0.5879	0.7035	0.60624	-0.529
Mof_O 	O 	0.6668	0.59912	0.45456	-0.499
Mof_O 	O 	0.1367	0.7517	0.66746	-0.477
Mof_O 	O 	0.3306	0.6566	0.53517	-0.584
Mof_C 	C 	0.4279	0.4825	0.7843	0.374
Mof_C 	C 	0.4606	0.406	0.8977	0.007
Mof_C 	C 	0.3829	0.4134	0.0197	-0.209
Mof_H 	H 	0.2927	0.4674	0.0457	0.072
Mof_C 	C 	0.4532	0.3307	0.1018	0.118
Mof_H 	H 	0.4143	0.3236	0.1879	-0.01
Mof_C 	C 	0.5848	0.2623	0.041	-0.271
Mof_C 	C 	0.6982	0.1729	0.0914	0.507
Mof_C 	C 	0.6886	0.655	0.5194	0.455
Mof_C 	C 	0.8491	0.6626	0.4974	-0.181
Mof_C 	C 	0.9804	0.6259	0.4056	0.174
Mof_H 	H 	0.9816	0.5993	0.3384	-0.006
Mof_C 	C 	0.1126	0.633	0.4246	-0.175
Mof_H 	H 	0.2111	0.6115	0.3714	0.09
Mof_C 	C 	0.081	0.6748	0.5294	-0.134
Mof_C 	C 	0.1877	0.6946	0.5809	0.353
Mof_O 	O 	0.3561	0.9069	0.5434	-0.648
Mof_H 	H 	0.3659	0.9049	0.4722	0.118
Mof_C 	C 	0.4201	0.0049	0.5415	-0.845
Mof_H 	H 	0.3611	0.0806	0.5129	0.321
Mof_H 	H 	0.415	0.0035	0.6252	0.286
Mof_H 	H 	0.2858	0.9183	0.5148	0.182
Mof_C 	C 	0.457	0.989	0.469	0.9
Mof_H 	H 	0.3981	0.0648	0.4408	-0.247
Mof_H 	H 	0.5272	0.9576	0.3961	-0.277
Mof_Mg	Mg	0.5	0.5	0.5	1.477
Mof_Mg	Mg	-0	0	-0	1.432
_end
