data_functionalizedCrystal
_audit_creation_method	'EQeq! by Chris Wilmer'
_symmetry_space_group_name_H-M	'P1'
_symmetry_Int_Tables_number	1
_symmetry_cell_setting	triclinic
loop_
_symmetry_equiv_pos_as_xyz
  x,y,z
_cell_length_a	6.7883
_cell_length_b	14.484
_cell_length_c	28.9167
_cell_angle_alpha	90
_cell_angle_beta	93.295
_cell_angle_gamma	90
loop_
_atom_site_label
_atom_site_type_symbol
_atom_site_fract_x
_atom_site_fract_y
_atom_site_fract_z
_atom_site_charge
Mof_Ni	Ni	0.99864	0.77426	0.25358	1.057
Mof_Ni	Ni	0.5036	0.52446	0.24623	1.054
Mof_N 	N 	0.8026	0.3731	0.26627	-0.175
Mof_N 	N 	0.8602	0.727	0.68631	-0.24
Mof_N 	N 	0.7988	0.6743	0.27261	-0.175
Mof_N 	N 	0.1379	0.773	0.32082	-0.241
Mof_C 	C 	0.6873	0.432	0.26188	-0.233
Mof_N 	N 	0.1912	0.6719	0.23576	-0.176
Mof_N 	N 	0.194	0.3771	0.22871	-0.178
Mof_C 	C 	0.3345	0.7745	0.32818	0.062
Mof_H 	H 	0.4136	0.779	0.3022	-0.011
Mof_C 	C 	0.6637	0.7245	0.67867	0.058
Mof_H 	H 	0.584	0.7197	0.7045	-0.01
Mof_C 	C 	0.3172	0.7903	0.49668	-0.047
Mof_H 	H 	0.1911	0.8185	0.4923	0.04
Mof_C 	C 	0.4095	0.756	0.45837	-0.014
Mof_C 	C 	0.6827	0.7075	0.51037	-0.047
Mof_H 	H 	0.8082	0.6788	0.5147	0.041
Mof_C 	C 	0.592	0.7419	0.54845	-0.013
Mof_C 	C 	0.3149	0.762	0.41103	0.073
Mof_C 	C 	0.5721	0.7288	0.63483	-0.142
Mof_H 	H 	0.4322	0.7271	0.631	0.07
Mof_C 	C 	0.6852	0.7355	0.59596	0.07
Mof_C 	C 	0.031	0.7666	0.35795	0.079
Mof_H 	H 	0.8914	0.7659	0.3532	-0.019
Mof_C 	C 	0.427	0.7698	0.37193	-0.142
Mof_H 	H 	0.5669	0.7718	0.3755	0.07
Mof_C 	C 	0.9681	0.733	0.64918	0.069
Mof_H 	H 	0.1077	0.7346	0.6541	-0.014
Mof_C 	C 	0.4054	0.7839	0.54072	-0.046
Mof_H 	H 	0.3398	0.8082	0.5662	0.037
Mof_C 	C 	0.5948	0.7139	0.46605	-0.047
Mof_H 	H 	0.6606	0.6896	0.4406	0.039
Mof_C 	C 	0.8891	0.7368	0.60434	-0.142
Mof_H 	H 	0.9732	0.7402	0.5792	0.071
Mof_C 	C 	0.111	0.7609	0.4027	-0.146
Mof_H 	H 	0.0272	0.7563	0.4278	0.074
Mof_C 	C 	0.3104	0.615	0.23815	-0.234
Mof_C 	C 	0.6839	0.6159	0.26577	-0.233
Mof_C 	C 	0.3117	0.4341	0.23398	-0.233
Mof_Ni	Ni	0.00136	0.27426	0.24642	1.056
Mof_Ni	Ni	0.4964	0.02446	0.25377	1.053
Mof_N 	N 	0.1974	0.8731	0.23373	-0.176
Mof_N 	N 	0.1398	0.227	0.81369	-0.241
Mof_N 	N 	0.2012	0.1743	0.22739	-0.176
Mof_N 	N 	0.8621	0.273	0.17918	-0.242
Mof_C 	C 	0.3127	0.932	0.23812	-0.232
Mof_N 	N 	0.8088	0.1719	0.26424	-0.177
Mof_N 	N 	0.806	0.8771	0.27129	-0.178
Mof_C 	C 	0.6655	0.2745	0.17182	0.062
Mof_H 	H 	0.5864	0.279	0.1978	-0.011
Mof_C 	C 	0.3363	0.2245	0.82133	0.059
Mof_H 	H 	0.416	0.2197	0.7955	-0.01
Mof_C 	C 	0.6828	0.2903	0.00332	-0.048
Mof_H 	H 	0.8089	0.3185	0.0077	0.04
Mof_C 	C 	0.5905	0.256	0.04163	-0.013
Mof_C 	C 	0.3173	0.2075	0.98963	-0.046
Mof_H 	H 	0.1918	0.1788	0.9853	0.04
Mof_C 	C 	0.408	0.2419	0.95155	-0.014
Mof_C 	C 	0.6851	0.262	0.08897	0.072
Mof_C 	C 	0.4279	0.2288	0.86517	-0.142
Mof_H 	H 	0.5678	0.2271	0.869	0.07
Mof_C 	C 	0.3148	0.2355	0.90404	0.07
Mof_C 	C 	0.969	0.2666	0.14205	0.078
Mof_H 	H 	0.1086	0.2659	0.1468	-0.019
Mof_C 	C 	0.573	0.2698	0.12807	-0.142
Mof_H 	H 	0.4331	0.2718	0.1245	0.07
Mof_C 	C 	0.0319	0.233	0.85082	0.069
Mof_H 	H 	0.8923	0.2346	0.8459	-0.013
Mof_C 	C 	0.5946	0.2839	0.95928	-0.045
Mof_H 	H 	0.6602	0.3082	0.9338	0.037
Mof_C 	C 	0.4052	0.2139	0.03395	-0.048
Mof_H 	H 	0.3394	0.1896	0.0594	0.039
Mof_C 	C 	0.1109	0.2368	0.89566	-0.142
Mof_H 	H 	0.0268	0.2402	0.9208	0.071
Mof_C 	C 	0.889	0.2609	0.0973	-0.146
Mof_H 	H 	0.9728	0.2563	0.0722	0.074
Mof_C 	C 	0.6896	0.115	0.26185	-0.234
Mof_C 	C 	0.3161	0.1159	0.23423	-0.234
Mof_C 	C 	0.6883	0.9341	0.26602	-0.233
Mof_Ni	Ni	0.00136	0.22574	0.74642	1.056
Mof_Ni	Ni	0.4964	0.47554	0.75377	1.053
Mof_N 	N 	0.1974	0.6269	0.73373	-0.176
Mof_N 	N 	0.1398	0.273	0.31369	-0.241
Mof_N 	N 	0.2012	0.3257	0.72739	-0.176
Mof_N 	N 	0.8621	0.227	0.67918	-0.242
Mof_C 	C 	0.3127	0.568	0.73812	-0.234
Mof_N 	N 	0.8088	0.3281	0.76424	-0.177
Mof_N 	N 	0.806	0.6229	0.77129	-0.178
Mof_C 	C 	0.6655	0.2255	0.67182	0.062
Mof_H 	H 	0.5864	0.221	0.6978	-0.011
Mof_C 	C 	0.3363	0.2755	0.32133	0.058
Mof_H 	H 	0.416	0.2803	0.2955	-0.01
Mof_C 	C 	0.6828	0.2097	0.50332	-0.047
Mof_H 	H 	0.8089	0.1815	0.5077	0.04
Mof_C 	C 	0.5905	0.244	0.54163	-0.014
Mof_C 	C 	0.3173	0.2925	0.48963	-0.047
Mof_H 	H 	0.1918	0.3212	0.4853	0.041
Mof_C 	C 	0.408	0.2581	0.45155	-0.013
Mof_C 	C 	0.6851	0.238	0.58897	0.073
Mof_C 	C 	0.4279	0.2712	0.36517	-0.142
Mof_H 	H 	0.5678	0.2729	0.369	0.07
Mof_C 	C 	0.3148	0.2645	0.40404	0.07
Mof_C 	C 	0.969	0.2334	0.64205	0.079
Mof_H 	H 	0.1086	0.2341	0.6468	-0.019
Mof_C 	C 	0.573	0.2302	0.62807	-0.142
Mof_H 	H 	0.4331	0.2282	0.6245	0.07
Mof_C 	C 	0.0319	0.267	0.35082	0.069
Mof_H 	H 	0.8923	0.2654	0.3459	-0.014
Mof_C 	C 	0.5946	0.2161	0.45928	-0.046
Mof_H 	H 	0.6602	0.1918	0.4338	0.037
Mof_C 	C 	0.4052	0.2861	0.53395	-0.047
Mof_H 	H 	0.3394	0.3104	0.5594	0.039
Mof_C 	C 	0.1109	0.2632	0.39566	-0.142
Mof_H 	H 	0.0268	0.2598	0.4208	0.071
Mof_C 	C 	0.889	0.2391	0.5973	-0.146
Mof_H 	H 	0.9728	0.2437	0.5722	0.074
Mof_C 	C 	0.6896	0.385	0.76185	-0.234
Mof_C 	C 	0.3161	0.3841	0.73423	-0.233
Mof_C 	C 	0.6883	0.5659	0.76602	-0.233
Mof_Ni	Ni	0.99864	0.72574	0.75358	1.056
Mof_Ni	Ni	0.5036	0.97554	0.74623	1.053
Mof_N 	N 	0.8026	0.1269	0.76627	-0.176
Mof_N 	N 	0.8602	0.773	0.18631	-0.241
Mof_N 	N 	0.7988	0.8257	0.77261	-0.176
Mof_N 	N 	0.1379	0.727	0.82082	-0.242
Mof_C 	C 	0.6873	0.068	0.76188	-0.232
Mof_N 	N 	0.1912	0.8281	0.73576	-0.177
Mof_N 	N 	0.194	0.1229	0.72871	-0.178
Mof_C 	C 	0.3345	0.7255	0.82818	0.062
Mof_H 	H 	0.4136	0.721	0.8022	-0.011
Mof_C 	C 	0.6637	0.7755	0.17867	0.059
Mof_H 	H 	0.584	0.7803	0.2045	-0.01
Mof_C 	C 	0.3172	0.7097	0.99668	-0.048
Mof_H 	H 	0.1911	0.6815	0.9923	0.04
Mof_C 	C 	0.4095	0.744	0.95837	-0.013
Mof_C 	C 	0.6827	0.7925	0.01037	-0.046
Mof_H 	H 	0.8082	0.8212	0.0147	0.04
Mof_C 	C 	0.592	0.7581	0.04845	-0.014
Mof_C 	C 	0.3149	0.738	0.91103	0.072
Mof_C 	C 	0.5721	0.7712	0.13483	-0.142
Mof_H 	H 	0.4322	0.7729	0.131	0.07
Mof_C 	C 	0.6852	0.7645	0.09596	0.07
Mof_C 	C 	0.031	0.7334	0.85795	0.078
Mof_H 	H 	0.8914	0.7341	0.8532	-0.019
Mof_C 	C 	0.427	0.7302	0.87193	-0.142
Mof_H 	H 	0.5669	0.7282	0.8755	0.07
Mof_C 	C 	0.9681	0.767	0.14918	0.069
Mof_H 	H 	0.1077	0.7654	0.1541	-0.013
Mof_C 	C 	0.4054	0.7161	0.04072	-0.045
Mof_H 	H 	0.3398	0.6918	0.0662	0.037
Mof_C 	C 	0.5948	0.7861	0.96605	-0.048
Mof_H 	H 	0.6606	0.8104	0.9406	0.039
Mof_C 	C 	0.8891	0.7632	0.10434	-0.142
Mof_H 	H 	0.9732	0.7598	0.0792	0.071
Mof_C 	C 	0.111	0.7391	0.9027	-0.146
Mof_H 	H 	0.0272	0.7437	0.9278	0.074
Mof_C 	C 	0.3104	0.885	0.73815	-0.234
Mof_C 	C 	0.6839	0.8841	0.76577	-0.234
Mof_C 	C 	0.3117	0.0659	0.73398	-0.233
_end
