data_functionalizedCrystal
_audit_creation_method	'EQeq! by Chris Wilmer'
_symmetry_space_group_name_H-M	'P1'
_symmetry_Int_Tables_number	1
_symmetry_cell_setting	triclinic
loop_
_symmetry_equiv_pos_as_xyz
  x,y,z
_cell_length_a	23.31
_cell_length_b	15.3407
_cell_length_c	23.684
_cell_angle_alpha	90
_cell_angle_beta	113.845
_cell_angle_gamma	90
loop_
_atom_site_label
_atom_site_type_symbol
_atom_site_fract_x
_atom_site_fract_y
_atom_site_fract_z
_atom_site_charge
Mof_O 	O 	0.3473	0.7845	0.587	-0.956
Mof_Zn	Zn	0.34135	0.82552	0.50787	1.205
Mof_Zn	Zn	0.39112	0.87092	0.64768	1.211
Mof_Zn	Zn	0.83008	0.79245	0.00899	1.233
Mof_Zn	Zn	0.39979	0.67299	0.60785	1.172
Mof_Zn	Zn	0.26504	0.76562	0.58576	1.205
Mof_O 	O 	0.8117	0.8812	0.9454	-0.322
Mof_C 	C 	0.7797	0.8758	0.8913	0.444
Mof_H 	H 	0.7671	0.8165	0.8848	-0.009
Mof_N 	N 	0.7538	0.9117	0.8373	-0.105
Mof_C 	C 	0.7918	0.995	0.842	-0.371
Mof_H 	H 	0.7746	0.0256	0.8024	0.116
Mof_H 	H 	0.8356	0.9794	0.8521	0.138
Mof_H 	H 	0.7893	0.0323	0.8744	0.137
Mof_C 	C 	0.7203	0.885	0.7776	-0.136
Mof_H 	H 	0.7092	0.9365	0.7504	0.096
Mof_H 	H 	0.6819	0.8559	0.7747	0.267
Mof_H 	H 	0.7457	0.8453	0.7652	0.053
Mof_O 	O 	0.5499	0.2406	0.4406	-0.492
Mof_O 	O 	0.6169	0.264	0.5381	-0.471
Mof_O 	O 	0.4176	0.9739	0.6138	-0.502
Mof_O 	O 	0.3743	0.9453	0.5126	-0.489
Mof_C 	C 	0.5298	0.1675	0.5191	-0.082
Mof_C 	C 	0.466	0.1606	0.4807	-0.046
Mof_H 	H 	0.4486	0.1966	0.4451	0.049
Mof_C 	C 	0.4277	0.1019	0.4938	0.013
Mof_H 	H 	0.3849	0.0958	0.4663	0.03
Mof_C 	C 	0.4527	0.0513	0.5483	-0.139
Mof_C 	C 	0.5169	0.0583	0.587	0.072
Mof_C 	C 	0.5555	0.116	0.5727	0.007
Mof_C 	C 	0.6237	0.1128	0.6189	-0.052
Mof_H 	H 	0.6512	0.154	0.6084	0.051
Mof_C 	C 	0.5532	0.0042	0.6456	-0.158
Mof_H 	H 	0.5259	0.9628	0.6561	0.09
Mof_C 	C 	0.6428	0.0171	0.6188	-0.058
Mof_C 	C 	0.6032	0.9596	0.6327	0.092
Mof_C 	C 	0.6145	0.8694	0.6339	-0.145
Mof_H 	H 	0.5883	0.8301	0.6436	0.073
Mof_C 	C 	0.6624	0.8382	0.6215	0.03
Mof_H 	H 	0.6693	0.7771	0.6223	0.012
Mof_C 	C 	0.7021	0.8952	0.6073	-0.102
Mof_H 	H 	0.735	0.8726	0.5978	0.058
Mof_C 	C 	0.6928	0.9858	0.6073	0.011
Mof_H 	H 	0.7204	0.0249	0.5996	0.002
Mof_C 	C 	0.6243	0.1292	0.6821	0.007
Mof_C 	C 	0.5848	0.0697	0.6954	0.051
Mof_C 	C 	0.5783	0.0782	0.7516	-0.093
Mof_H 	H 	0.5518	0.0403	0.7621	0.057
Mof_C 	C 	0.6134	0.1467	0.7927	-0.017
Mof_H 	H 	0.6107	0.153	0.8315	0.028
Mof_C 	C 	0.6497	0.2016	0.778	-0.043
Mof_H 	H 	0.6714	0.2463	0.8064	0.041
Mof_C 	C 	0.6566	0.1954	0.7226	-0.059
Mof_H 	H 	0.6825	0.235	0.7127	0.053
Mof_C 	C 	0.5699	0.2296	0.4988	0.308
Mof_C 	C 	0.4125	0.9844	0.5607	0.411
Mof_O 	O 	0.4696	0.839	0.7152	-0.505
Mof_O 	O 	0.4708	0.698	0.6923	-0.503
Mof_C 	C 	0.5429	0.7504	0.7896	-0.118
Mof_C 	C 	0.5438	0.807	0.8364	-0.009
Mof_H 	H 	0.5123	0.8505	0.8274	0.035
Mof_C 	C 	0.5899	0.8003	0.8956	-0.028
Mof_H 	H 	0.5885	0.8375	0.9271	0.05
Mof_C 	C 	0.638	0.7409	0.9098	-0.087
Mof_C 	C 	0.6384	0.6833	0.8635	0.038
Mof_C 	C 	0.5896	0.6872	0.8043	0.039
Mof_C 	C 	0.5967	0.6188	0.7599	-0.083
Mof_H 	H 	0.5623	0.6211	0.7175	0.059
Mof_C 	C 	0.6877	0.6119	0.87	-0.098
Mof_H 	H 	0.7222	0.6092	0.9122	0.082
Mof_C 	C 	0.6012	0.5313	0.7922	0.014
Mof_C 	C 	0.6494	0.5291	0.8519	0.035
Mof_C 	C 	0.6589	0.4522	0.8878	-0.083
Mof_H 	H 	0.6913	0.4491	0.9282	0.057
Mof_C 	C 	0.6203	0.3826	0.8629	-0.013
Mof_H 	H 	0.627	0.3304	0.8864	0.026
Mof_C 	C 	0.5726	0.3853	0.8059	-0.043
Mof_H 	H 	0.546	0.336	0.7912	0.047
Mof_C 	C 	0.5623	0.458	0.7692	-0.056
Mof_H 	H 	0.5295	0.4587	0.729	0.042
Mof_C 	C 	0.6618	0.6309	0.7604	0.012
Mof_C 	C 	0.7111	0.6287	0.8197	0.038
Mof_C 	C 	0.773	0.638	0.8273	-0.086
Mof_H 	H 	0.8058	0.6383	0.8675	0.073
Mof_C 	C 	0.787	0.647	0.7754	-0.021
Mof_H 	H 	0.8294	0.6506	0.78	0.039
Mof_C 	C 	0.7373	0.6508	0.7159	-0.039
Mof_H 	H 	0.7462	0.6582	0.6804	0.04
Mof_C 	C 	0.6752	0.6435	0.7095	-0.069
Mof_H 	H 	0.642	0.6473	0.6697	0.047
Mof_C 	C 	0.4896	0.7623	0.7262	0.405
Mof_O 	O 	0.6789	0.775	0.0167	-0.475
Mof_C 	C 	0.692	0.7455	0.973	0.349
Mof_O 	O 	0.7442	0.7152	0.9808	-0.458
Mof_O 	O 	0.3512	0.6122	0.6528	-0.527
Mof_O 	O 	0.2507	0.6492	0.6117	-0.509
Mof_C 	C 	0.2797	0.5339	0.6824	-0.119
Mof_C 	C 	0.2186	0.5317	0.6788	-0.003
Mof_H 	H 	0.1878	0.5679	0.6496	0.039
Mof_C 	C 	0.2018	0.4802	0.7151	-0.022
Mof_H 	H 	0.1598	0.4819	0.7118	0.051
Mof_C 	C 	0.2461	0.4224	0.7591	-0.103
Mof_C 	C 	0.3064	0.4196	0.7601	0.046
Mof_C 	C 	0.3237	0.4765	0.7217	0.046
Mof_C 	C 	0.3937	0.4657	0.7339	-0.09
Mof_H 	H 	0.4072	0.5062	0.7086	0.063
Mof_C 	C 	0.3604	0.3586	0.7997	-0.097
Mof_H 	H 	0.3476	0.3176	0.8253	0.077
Mof_C 	C 	0.429	0.4801	0.802	0.029
Mof_C 	C 	0.4112	0.4231	0.8392	0.028
Mof_C 	C 	0.439	0.4299	0.9048	-0.073
Mof_H 	H 	0.4283	0.3914	0.9305	0.057
Mof_C 	C 	0.4817	0.4948	0.9284	-0.025
Mof_H 	H 	0.501	0.5009	0.972	0.042
Mof_C 	C 	0.4985	0.5509	0.8943	-0.028
Mof_H 	H 	0.5288	0.5945	0.9146	0.044
Mof_C 	C 	0.4727	0.5473	0.8297	-0.073
Mof_H 	H 	0.4841	0.588	0.8058	0.064
Mof_C 	C 	0.4009	0.3702	0.7206	0.017
Mof_C 	C 	0.3829	0.3128	0.7581	0.035
Mof_C 	C 	0.3893	0.2213	0.751	-0.082
Mof_H 	H 	0.3781	0.1811	0.7753	0.062
Mof_C 	C 	0.4116	0.1914	0.7092	-0.016
Mof_H 	H 	0.4148	0.1303	0.7045	0.038
Mof_C 	C 	0.4297	0.2479	0.6739	-0.043
Mof_H 	H 	0.4464	0.2259	0.6462	0.05
Mof_C 	C 	0.423	0.3389	0.6794	-0.062
Mof_H 	H 	0.434	0.3781	0.6543	0.039
Mof_C 	C 	0.2963	0.6028	0.6456	0.401
Mof_O 	O 	0.9508	0.8642	0.2056	-0.498
Mof_O 	O 	0.9627	0.7227	0.2078	-0.507
Mof_O 	O 	0.1974	0.7913	0.5056	-0.475
Mof_O 	O 	0.2545	0.8411	0.4485	-0.478
Mof_C 	C 	0.0386	0.8074	0.2849	-0.125
Mof_C 	C 	0.0454	0.7539	0.3358	0.01
Mof_H 	H 	0.014	0.712	0.3323	0.033
Mof_C 	C 	0.0982	0.7626	0.3914	-0.038
Mof_H 	H 	0.1021	0.7269	0.4256	0.049
Mof_C 	C 	0.1451	0.8226	0.3976	-0.068
Mof_C 	C 	0.137	0.8759	0.3465	0.03
Mof_C 	C 	0.0847	0.8688	0.2901	0.057
Mof_C 	C 	0.082	0.938	0.2419	-0.086
Mof_H 	H 	0.0431	0.9339	0.2029	0.069
Mof_C 	C 	0.1831	0.9476	0.3449	-0.078
Mof_H 	H 	0.222	0.9523	0.3838	0.073
Mof_C 	C 	0.1424	0.9248	0.2316	0.021
Mof_C 	C 	0.1954	0.9301	0.2876	0.035
Mof_C 	C 	0.2546	0.9227	0.2881	-0.081
Mof_H 	H 	0.291	0.9264	0.3256	0.063
Mof_C 	C 	0.2588	0.9107	0.2368	-0.01
Mof_H 	H 	0.2998	0.9059	0.2378	0.037
Mof_C 	C 	0.2062	0.9037	0.1761	-0.039
Mof_H 	H 	0.2139	0.8943	0.1401	0.047
Mof_C 	C 	0.1433	0.9109	0.1716	-0.061
Mof_H 	H 	0.1069	0.9071	0.1341	0.059
Mof_C 	C 	0.0891	0.0255	0.2737	0.026
Mof_C 	C 	0.1439	0.0291	0.3285	0.01
Mof_C 	C 	0.1549	0.1131	0.3615	-0.066
Mof_H 	H 	0.1904	0.1189	0.3995	0.047
Mof_C 	C 	0.118	0.1786	0.3404	-0.028
Mof_H 	H 	0.1278	0.2327	0.3617	0.035
Mof_C 	C 	0.062	0.1703	0.2845	-0.031
Mof_H 	H 	0.034	0.2181	0.27	0.043
Mof_C 	C 	0.0494	0.0948	0.2532	-0.069
Mof_H 	H 	0.0125	0.0896	0.2162	0.051
Mof_C 	C 	0.979	0.7967	0.2275	0.445
Mof_C 	C 	0.2046	0.8206	0.4561	0.304
Mof_O 	O 	0.2496	0.8465	0.6439	-0.488
Mof_O 	O 	0.3396	0.9169	0.6879	-0.492
Mof_O 	O 	0.9203	0.6364	0.0774	-0.495
Mof_O 	O 	0.8698	0.6938	0.9829	-0.449
Mof_C 	C 	0.9413	0.5805	0.9949	-0.099
Mof_C 	C 	0.9625	0.6094	0.9519	-0.01
Mof_H 	H 	0.9495	0.6648	0.9332	0.041
Mof_C 	C 	0.0027	0.5591	0.9354	-0.013
Mof_H 	H 	0.0189	0.5822	0.9076	0.041
Mof_C 	C 	0.0196	0.4765	0.9584	-0.113
Mof_C 	C 	0.9949	0.4418	0.9981	0.058
Mof_C 	C 	0.9565	0.4938	0.0169	0.032
Mof_C 	C 	0.9327	0.4483	0.06	-0.08
Mof_H 	H 	0.9062	0.4866	0.0739	0.064
Mof_C 	C 	0.0016	0.3491	0.0246	-0.099
Mof_H 	H 	0.0283	0.3109	0.0109	0.084
Mof_C 	C 	0.8964	0.3673	0.0218	0.018
Mof_C 	C 	0.9329	0.3152	0.0026	0.027
Mof_C 	C 	0.9078	0.2424	0.9693	-0.075
Mof_H 	H 	0.9333	0.2057	0.9568	0.059
Mof_C 	C 	0.8456	0.2207	0.9532	-0.031
Mof_H 	H 	0.8268	0.1719	0.9278	0.032
Mof_C 	C 	0.8103	0.2771	0.9777	-0.029
Mof_H 	H 	0.7688	0.2608	0.9711	0.032
Mof_C 	C 	0.8335	0.3491	0.0082	-0.072
Mof_H 	H 	0.8086	0.3872	0.0205	0.052
Mof_C 	C 	0.99	0.4135	0.1127	0.016
Mof_C 	C 	0.028	0.3603	0.0944	0.038
Mof_C 	C 	0.0838	0.3243	0.1364	-0.083
Mof_H 	H 	0.1088	0.2883	0.1227	0.061
Mof_C 	C 	0.1025	0.3427	0.2001	-0.029
Mof_H 	H 	0.1406	0.3201	0.2298	0.035
Mof_C 	C 	0.0648	0.3932	0.2177	-0.035
Mof_H 	H 	0.0766	0.404	0.2605	0.038
Mof_C 	C 	0.0097	0.4296	0.1758	-0.061
Mof_H 	H 	0.9852	0.4657	0.19	0.053
Mof_C 	C 	0.9079	0.6406	0.0211	0.378
Mof_O 	O 	0.8354	0.7896	0.093	-0.942
Mof_Zn	Zn	0.75356	0.7683	0.09287	1.207
Mof_Zn	Zn	0.88889	0.69359	0.13346	1.217
Mof_Zn	Zn	0.86724	0.9001	0.137	1.196
Mof_O 	O 	0.1477	0.099	0.8355	-0.528
Mof_O 	O 	0.2469	0.1451	0.8791	-0.521
Mof_C 	C 	0.2865	0.8972	0.6834	0.281
Mof_C 	C 	0.2643	0.9392	0.728	0.232
Mof_C 	C 	0.2028	0.9336	0.7222	-0.523
Mof_C 	C 	0.1829	0.9815	0.7613	0.4
Mof_C 	C 	0.225	0.0338	0.8077	-0.42
Mof_C 	C 	0.2885	0.0148	0.8246	0.513
Mof_C 	C 	0.3088	0.9737	0.7838	-0.467
Mof_C 	C 	0.2047	0.0959	0.8451	0.51
Mof_C 	C 	0.1553	0.8519	0.6934	-0.895
Mof_C 	C 	0.1231	0.9399	0.7677	0.081
Mof_C 	C 	0.0739	0.945	0.7015	-0.101
Mof_C 	C 	0.0935	0.898	0.661	0.258
Mof_C 	C 	0.0551	0.903	0.5948	-0.259
Mof_C 	C 	0.014	0.971	0.5799	0.124
Mof_C 	C 	0.994	0.019	0.618	-0.165
Mof_C 	C 	0.0241	0.006	0.6797	0.036
Mof_H 	H 	0.012	0.0379	0.7077	0.019
Mof_H 	H 	0.9608	0.06	0.6016	0.079
Mof_H 	H 	0.9959	0.9872	0.5376	-0.007
Mof_H 	H 	0.0586	0.8643	0.5653	0.119
Mof_C 	C 	0.1272	0.8428	0.7815	-0.176
Mof_C 	C 	0.1457	0.7936	0.7408	0.397
Mof_C 	C 	0.1162	0.801	0.8274	0.107
Mof_C 	C 	0.1461	0.7039	0.7457	-0.335
Mof_C 	C 	0.134	0.6618	0.7934	0.167
Mof_C 	C 	0.116	0.711	0.8323	-0.211
Mof_H 	H 	0.1082	0.8348	0.8569	-0.001
Mof_H 	H 	0.1049	0.6841	0.8622	0.097
Mof_H 	H 	0.1372	0.6003	0.7982	-0.045
Mof_H 	H 	0.1548	0.6694	0.7168	0.146
Mof_H 	H 	0.1103	0.9738	0.7968	0.039
Mof_H 	H 	0.1671	0.8174	0.6639	0.266
Mof_C 	C 	0.0682	0.4292	0.9422	0.384
Mof_O 	O 	0.0802	0.3491	0.9528	-0.32
Mof_O 	O 	0.0824	0.4602	0.9006	-0.15
Mof_C 	C 	0.2258	0.3789	0.8048	0.388
Mof_O 	O 	0.2701	0.347	0.8515	-0.331
Mof_O 	O 	0.1765	0.417	0.8071	-0.334
Mof_O 	O 	0.7683	0.8434	0.9278	-0.35
Mof_H 	H 	0.824	0.8778	0.9046	-0.023
Mof_C 	C 	0.6856	0.8808	0.8039	-0.616
Mof_H 	H 	0.6666	0.9084	0.7632	0.121
Mof_H 	H 	0.6618	0.8969	0.8283	0.231
Mof_H 	H 	0.6848	0.8173	0.799	0.099
Mof_C 	C 	0.769	0.937	0.788	0.145
Mof_H 	H 	0.7312	0.9619	0.7551	-0.077
Mof_H 	H 	0.7831	0.8867	0.7723	-0.035
Mof_H 	H 	0.8018	0.9815	0.8023	0.008
Mof_O 	O 	0.1031	0.3754	0.9858	-0.218
Mof_O 	O 	0.0933	0.4735	0.9131	-0.297
Mof_O 	O 	0.1686	0.3645	0.7936	-0.24
Mof_O 	O 	0.2607	0.3236	0.8401	-0.14
Mof_H 	H 	0.1404	0.9783	0.7561	-0.118
Mof_H 	H 	0.1739	0.897	0.6914	0.611
Mof_C 	C 	0.339	0.0129	0.8946	0.584
Mof_H 	H 	0.3237	0.0439	0.923	-0.104
Mof_C 	C 	0.3781	0.933	0.8222	-0.585
Mof_H 	H 	0.3938	0.9015	0.7943	0.182
Mof_C 	C 	0.3947	0.06	0.8893	-0.197
Mof_C 	C 	0.416	0.0153	0.8486	0.177
Mof_C 	C 	0.4781	0.039	0.8481	-0.197
Mof_H 	H 	0.5025	0.0016	0.8346	0.089
Mof_C 	C 	0.4949	0.122	0.8701	0.085
Mof_H 	H 	0.5245	0.1516	0.8588	-0.004
Mof_C 	C 	0.4718	0.166	0.9072	-0.157
Mof_H 	H 	0.4916	0.2193	0.9254	0.079
Mof_C 	C 	0.4221	0.1383	0.9198	0.091
Mof_H 	H 	0.4076	0.1688	0.9464	0.004
Mof_C 	C 	0.3628	0.9218	0.9175	-0.315
Mof_C 	C 	0.3851	0.8779	0.8776	0.341
Mof_C 	C 	0.4149	0.7972	0.8947	-0.301
Mof_H 	H 	0.4326	0.7689	0.8699	0.133
Mof_C 	C 	0.4177	0.759	0.9497	0.16
Mof_H 	H 	0.4347	0.7021	0.9606	-0.025
Mof_C 	C 	0.396	0.803	0.9886	-0.225
Mof_H 	H 	0.404	0.7808	0.0284	0.1
Mof_C 	C 	0.362	0.8815	0.9692	0.182
Mof_H 	H 	0.3394	0.9056	0.9909	-0.033
Mof_H 	H 	0.3182	0.0303	0.8646	-0.431
Mof_H 	H 	0.3523	0.9687	0.7934	0.43
Mof_O 	O 	0.6527	0.2845	0.413	-0.955
Mof_Zn	Zn	0.65865	0.32552	0.49213	1.206
Mof_Zn	Zn	0.60888	0.37092	0.35232	1.212
Mof_Zn	Zn	0.16992	0.29245	0.99101	1.234
Mof_Zn	Zn	0.60021	0.17299	0.39215	1.172
Mof_Zn	Zn	0.73496	0.26562	0.41424	1.205
Mof_O 	O 	0.1883	0.3812	0.0546	-0.323
Mof_C 	C 	0.2203	0.3758	0.1087	0.441
Mof_H 	H 	0.2329	0.3165	0.1152	-0.008
Mof_N 	N 	0.2462	0.4117	0.1627	-0.097
Mof_C 	C 	0.2082	0.495	0.158	-0.446
Mof_H 	H 	0.2254	0.5256	0.1976	0.146
Mof_H 	H 	0.1644	0.4794	0.1479	0.156
Mof_H 	H 	0.2107	0.5323	0.1256	0.167
Mof_C 	C 	0.2797	0.385	0.2224	-0.104
Mof_H 	H 	0.2908	0.4365	0.2496	0.08
Mof_H 	H 	0.3181	0.3559	0.2253	0.272
Mof_H 	H 	0.2543	0.3453	0.2348	0.042
Mof_O 	O 	0.4501	0.7406	0.5594	-0.493
Mof_O 	O 	0.3831	0.764	0.4619	-0.472
Mof_O 	O 	0.5824	0.4739	0.3862	-0.501
Mof_O 	O 	0.6257	0.4453	0.4874	-0.489
Mof_C 	C 	0.4702	0.6675	0.4809	-0.091
Mof_C 	C 	0.534	0.6606	0.5193	-0.034
Mof_H 	H 	0.5514	0.6966	0.5549	0.046
Mof_C 	C 	0.5723	0.6019	0.5062	0
Mof_H 	H 	0.6151	0.5958	0.5337	0.037
Mof_C 	C 	0.5473	0.5513	0.4517	-0.116
Mof_C 	C 	0.4831	0.5583	0.413	0.05
Mof_C 	C 	0.4445	0.616	0.4273	0.025
Mof_C 	C 	0.3763	0.6128	0.3811	-0.085
Mof_H 	H 	0.3488	0.654	0.3916	0.061
Mof_C 	C 	0.4468	0.5042	0.3544	-0.099
Mof_H 	H 	0.4741	0.4628	0.3439	0.067
Mof_C 	C 	0.3572	0.5171	0.3812	0.007
Mof_C 	C 	0.3968	0.4596	0.3673	0.029
Mof_C 	C 	0.3855	0.3694	0.3661	-0.094
Mof_H 	H 	0.4117	0.3301	0.3564	0.056
Mof_C 	C 	0.3376	0.3382	0.3785	-0.02
Mof_H 	H 	0.3307	0.2771	0.3777	0.029
Mof_C 	C 	0.2979	0.3952	0.3927	-0.048
Mof_H 	H 	0.265	0.3726	0.4022	0.037
Mof_C 	C 	0.3072	0.4858	0.3927	-0.069
Mof_H 	H 	0.2796	0.5249	0.4004	0.035
Mof_C 	C 	0.3757	0.6292	0.3179	0.028
Mof_C 	C 	0.4152	0.5697	0.3046	0.029
Mof_C 	C 	0.4217	0.5782	0.2484	-0.075
Mof_H 	H 	0.4482	0.5403	0.2379	0.054
Mof_C 	C 	0.3866	0.6467	0.2073	-0.03
Mof_H 	H 	0.3893	0.653	0.1685	0.034
Mof_C 	C 	0.3503	0.7016	0.222	-0.028
Mof_H 	H 	0.3286	0.7463	0.1936	0.036
Mof_C 	C 	0.3434	0.6954	0.2774	-0.074
Mof_H 	H 	0.3175	0.735	0.2873	0.058
Mof_C 	C 	0.4301	0.7296	0.5012	0.312
Mof_C 	C 	0.5875	0.4844	0.4393	0.395
Mof_O 	O 	0.5304	0.339	0.2848	-0.506
Mof_O 	O 	0.5292	0.198	0.3077	-0.504
Mof_C 	C 	0.4571	0.2504	0.2104	-0.118
Mof_C 	C 	0.4562	0.307	0.1636	-0.009
Mof_H 	H 	0.4877	0.3505	0.1726	0.033
Mof_C 	C 	0.4101	0.3003	0.1044	-0.029
Mof_H 	H 	0.4115	0.3375	0.0729	0.049
Mof_C 	C 	0.362	0.2409	0.0902	-0.087
Mof_C 	C 	0.3616	0.1833	0.1365	0.037
Mof_C 	C 	0.4104	0.1872	0.1957	0.039
Mof_C 	C 	0.4033	0.1188	0.2401	-0.08
Mof_H 	H 	0.4377	0.1211	0.2825	0.057
Mof_C 	C 	0.3123	0.1119	0.13	-0.095
Mof_H 	H 	0.2778	0.1092	0.0878	0.08
Mof_C 	C 	0.3988	0.0313	0.2078	0.005
Mof_C 	C 	0.3506	0.0291	0.1481	0.027
Mof_C 	C 	0.3411	0.9522	0.1122	-0.072
Mof_H 	H 	0.3087	0.9491	0.0718	0.056
Mof_C 	C 	0.3797	0.8826	0.1371	-0.015
Mof_H 	H 	0.373	0.8304	0.1136	0.027
Mof_C 	C 	0.4274	0.8853	0.1941	-0.046
Mof_H 	H 	0.454	0.836	0.2088	0.049
Mof_C 	C 	0.4377	0.958	0.2308	-0.043
Mof_H 	H 	0.4705	0.9587	0.271	0.041
Mof_C 	C 	0.3382	0.1309	0.2396	0.01
Mof_C 	C 	0.2889	0.1287	0.1803	0.036
Mof_C 	C 	0.227	0.138	0.1727	-0.086
Mof_H 	H 	0.1942	0.1383	0.1325	0.072
Mof_C 	C 	0.213	0.147	0.2246	-0.022
Mof_H 	H 	0.1706	0.1506	0.22	0.039
Mof_C 	C 	0.2627	0.1508	0.2841	-0.04
Mof_H 	H 	0.2538	0.1582	0.3196	0.039
Mof_C 	C 	0.3248	0.1435	0.2905	-0.07
Mof_H 	H 	0.358	0.1473	0.3303	0.046
Mof_C 	C 	0.5104	0.2623	0.2738	0.406
Mof_O 	O 	0.3211	0.275	0.9833	-0.475
Mof_C 	C 	0.308	0.2455	0.027	0.349
Mof_O 	O 	0.2558	0.2152	0.0192	-0.459
Mof_O 	O 	0.6488	0.1122	0.3472	-0.528
Mof_O 	O 	0.7493	0.1492	0.3883	-0.51
Mof_C 	C 	0.7203	0.0339	0.3176	-0.122
Mof_C 	C 	0.7814	0.0317	0.3212	-0.021
Mof_H 	H 	0.8122	0.0679	0.3504	0.043
Mof_C 	C 	0.7982	0.9802	0.2849	-0.002
Mof_H 	H 	0.8402	0.9819	0.2882	0.047
Mof_C 	C 	0.7539	0.9224	0.2409	-0.108
Mof_C 	C 	0.6936	0.9196	0.2399	0.05
Mof_C 	C 	0.6763	0.9765	0.2783	0.05
Mof_C 	C 	0.6063	0.9657	0.2661	-0.074
Mof_H 	H 	0.5928	0.0062	0.2914	0.053
Mof_C 	C 	0.6396	0.8586	0.2003	-0.104
Mof_H 	H 	0.6524	0.8176	0.1747	0.08
Mof_C 	C 	0.571	0.9801	0.198	0.024
Mof_C 	C 	0.5888	0.9231	0.1608	0.041
Mof_C 	C 	0.561	0.9299	0.0952	-0.1
Mof_H 	H 	0.5717	0.8914	0.0695	0.068
Mof_C 	C 	0.5183	0.9948	0.0716	0.026
Mof_H 	H 	0.499	0.0009	0.028	0.02
Mof_C 	C 	0.5015	0.0509	0.1057	-0.066
Mof_H 	H 	0.4712	0.0945	0.0854	0.056
Mof_C 	C 	0.5273	0.0473	0.1703	-0.062
Mof_H 	H 	0.5159	0.088	0.1942	0.059
Mof_C 	C 	0.5991	0.8702	0.2794	0.012
Mof_C 	C 	0.6171	0.8128	0.2419	0.039
Mof_C 	C 	0.6107	0.7213	0.249	-0.084
Mof_H 	H 	0.6219	0.6811	0.2247	0.063
Mof_C 	C 	0.5884	0.6914	0.2908	-0.013
Mof_H 	H 	0.5852	0.6303	0.2955	0.04
Mof_C 	C 	0.5703	0.7479	0.3261	-0.044
Mof_H 	H 	0.5536	0.7259	0.3538	0.051
Mof_C 	C 	0.577	0.8389	0.3206	-0.058
Mof_H 	H 	0.566	0.8781	0.3457	0.04
Mof_C 	C 	0.7037	0.1028	0.3544	0.401
Mof_O 	O 	0.0492	0.3642	0.7944	-0.499
Mof_O 	O 	0.0373	0.2227	0.7922	-0.508
Mof_O 	O 	0.8026	0.2913	0.4944	-0.476
Mof_O 	O 	0.7455	0.3411	0.5515	-0.479
Mof_C 	C 	0.9614	0.3074	0.7151	-0.125
Mof_C 	C 	0.9546	0.2539	0.6642	0.009
Mof_H 	H 	0.986	0.212	0.6677	0.033
Mof_C 	C 	0.9018	0.2626	0.6086	-0.038
Mof_H 	H 	0.8979	0.2269	0.5744	0.048
Mof_C 	C 	0.8549	0.3226	0.6024	-0.069
Mof_C 	C 	0.863	0.3759	0.6535	0.03
Mof_C 	C 	0.9153	0.3688	0.7099	0.057
Mof_C 	C 	0.918	0.438	0.7581	-0.094
Mof_H 	H 	0.9569	0.4339	0.7971	0.07
Mof_C 	C 	0.8169	0.4476	0.6551	-0.086
Mof_H 	H 	0.778	0.4523	0.6162	0.073
Mof_C 	C 	0.8576	0.4248	0.7684	0.021
Mof_C 	C 	0.8046	0.4301	0.7124	0.035
Mof_C 	C 	0.7454	0.4227	0.7119	-0.083
Mof_H 	H 	0.709	0.4264	0.6744	0.061
Mof_C 	C 	0.7412	0.4107	0.7632	-0.011
Mof_H 	H 	0.7002	0.4059	0.7622	0.036
Mof_C 	C 	0.7938	0.4037	0.8239	-0.04
Mof_H 	H 	0.7861	0.3943	0.8599	0.047
Mof_C 	C 	0.8567	0.4109	0.8284	-0.063
Mof_H 	H 	0.8931	0.4071	0.8659	0.058
Mof_C 	C 	0.9109	0.5255	0.7263	0.034
Mof_C 	C 	0.8561	0.5291	0.6715	0.018
Mof_C 	C 	0.8451	0.6131	0.6385	-0.068
Mof_H 	H 	0.8096	0.6189	0.6005	0.05
Mof_C 	C 	0.882	0.6786	0.6596	-0.027
Mof_H 	H 	0.8722	0.7327	0.6383	0.035
Mof_C 	C 	0.938	0.6703	0.7155	-0.029
Mof_H 	H 	0.966	0.7181	0.73	0.043
Mof_C 	C 	0.9506	0.5948	0.7468	-0.072
Mof_H 	H 	0.9875	0.5896	0.7838	0.055
Mof_C 	C 	0.021	0.2967	0.7725	0.444
Mof_C 	C 	0.7954	0.3206	0.5439	0.303
Mof_O 	O 	0.7504	0.3465	0.3561	-0.491
Mof_O 	O 	0.6604	0.4169	0.3121	-0.497
Mof_O 	O 	0.0797	0.1364	0.9226	-0.5
Mof_O 	O 	0.1302	0.1938	0.0171	-0.449
Mof_C 	C 	0.0587	0.0805	0.0051	-0.117
Mof_C 	C 	0.0375	0.1094	0.0481	0.005
Mof_H 	H 	0.0505	0.1648	0.0668	0.036
Mof_C 	C 	0.9973	0.0591	0.0646	-0.036
Mof_H 	H 	0.9811	0.0822	0.0924	0.047
Mof_C 	C 	0.9804	0.9765	0.0416	-0.092
Mof_C 	C 	0.0051	0.9418	0.0019	0.041
Mof_C 	C 	0.0435	0.9938	0.9831	0.053
Mof_C 	C 	0.0673	0.9483	0.94	-0.089
Mof_H 	H 	0.0938	0.9866	0.9261	0.07
Mof_C 	C 	0.9984	0.8491	0.9754	-0.089
Mof_H 	H 	0.9717	0.8109	0.9891	0.081
Mof_C 	C 	0.1036	0.8673	0.9782	0.025
Mof_C 	C 	0.0671	0.8152	0.9974	0.02
Mof_C 	C 	0.0922	0.7424	0.0307	-0.069
Mof_H 	H 	0.0667	0.7057	0.0432	0.058
Mof_C 	C 	0.1544	0.7207	0.0468	-0.034
Mof_H 	H 	0.1732	0.6719	0.0722	0.034
Mof_C 	C 	0.1897	0.7771	0.0223	-0.024
Mof_H 	H 	0.2312	0.7608	0.0289	0.032
Mof_C 	C 	0.1665	0.8491	0.9918	-0.078
Mof_H 	H 	0.1914	0.8872	0.9795	0.055
Mof_C 	C 	0.01	0.9135	0.8873	0.019
Mof_C 	C 	0.972	0.8603	0.9056	0.036
Mof_C 	C 	0.9162	0.8243	0.8636	-0.081
Mof_H 	H 	0.8912	0.7883	0.8773	0.061
Mof_C 	C 	0.8975	0.8427	0.7999	-0.028
Mof_H 	H 	0.8594	0.8201	0.7702	0.035
Mof_C 	C 	0.9352	0.8932	0.7823	-0.035
Mof_H 	H 	0.9234	0.904	0.7395	0.041
Mof_C 	C 	0.9903	0.9296	0.8242	-0.058
Mof_H 	H 	0.0148	0.9657	0.81	0.055
Mof_C 	C 	0.0921	0.1406	0.9789	0.379
Mof_O 	O 	0.1646	0.2896	0.907	-0.942
Mof_Zn	Zn	0.24644	0.2683	0.90713	1.207
Mof_Zn	Zn	0.11111	0.19359	0.86654	1.216
Mof_Zn	Zn	0.13276	0.4001	0.863	1.195
Mof_O 	O 	0.8523	0.599	0.1645	-0.52
Mof_O 	O 	0.7531	0.6451	0.1209	-0.517
Mof_C 	C 	0.7135	0.3972	0.3166	0.293
Mof_C 	C 	0.7357	0.4392	0.272	0.198
Mof_C 	C 	0.7972	0.4336	0.2778	-0.466
Mof_C 	C 	0.8171	0.4815	0.2387	0.331
Mof_C 	C 	0.775	0.5338	0.1923	-0.367
Mof_C 	C 	0.7115	0.5148	0.1754	0.458
Mof_C 	C 	0.6912	0.4737	0.2162	-0.433
Mof_C 	C 	0.7953	0.5959	0.1549	0.492
Mof_C 	C 	0.8447	0.3519	0.3066	-0.835
Mof_C 	C 	0.8769	0.4399	0.2323	0.029
Mof_C 	C 	0.9261	0.445	0.2985	-0.093
Mof_C 	C 	0.9065	0.398	0.339	0.238
Mof_C 	C 	0.9449	0.403	0.4052	-0.24
Mof_C 	C 	0.986	0.471	0.4201	0.098
Mof_C 	C 	0.006	0.519	0.382	-0.142
Mof_C 	C 	0.9759	0.506	0.3203	0.033
Mof_H 	H 	0.988	0.5379	0.2923	0.024
Mof_H 	H 	0.0392	0.56	0.3984	0.073
Mof_H 	H 	0.0041	0.4872	0.4624	-0.003
Mof_H 	H 	0.9414	0.3643	0.4347	0.112
Mof_C 	C 	0.8728	0.3428	0.2185	-0.144
Mof_C 	C 	0.8543	0.2936	0.2592	0.363
Mof_C 	C 	0.8838	0.301	0.1726	0.081
Mof_C 	C 	0.8539	0.2039	0.2543	-0.311
Mof_C 	C 	0.866	0.1618	0.2066	0.146
Mof_C 	C 	0.884	0.211	0.1677	-0.19
Mof_H 	H 	0.8918	0.3348	0.1431	0.007
Mof_H 	H 	0.8951	0.1841	0.1378	0.089
Mof_H 	H 	0.8628	0.1003	0.2018	-0.04
Mof_H 	H 	0.8452	0.1694	0.2832	0.136
Mof_H 	H 	0.8897	0.4738	0.2032	0.048
Mof_H 	H 	0.8329	0.3174	0.3361	0.251
Mof_C 	C 	0.9318	0.9292	0.0578	0.378
Mof_O 	O 	0.9198	0.8491	0.0472	-0.319
Mof_O 	O 	0.9176	0.9602	0.0994	-0.146
Mof_C 	C 	0.7742	0.8789	0.1952	0.39
Mof_O 	O 	0.7299	0.847	0.1485	-0.332
Mof_O 	O 	0.8235	0.917	0.1929	-0.332
Mof_O 	O 	0.2317	0.3434	0.0722	-0.35
Mof_H 	H 	0.176	0.3778	0.0954	-0.022
Mof_C 	C 	0.3144	0.3808	0.1961	-0.663
Mof_H 	H 	0.3334	0.4084	0.2368	0.128
Mof_H 	H 	0.3382	0.3969	0.1717	0.244
Mof_H 	H 	0.3152	0.3173	0.201	0.109
Mof_C 	C 	0.231	0.437	0.212	0.138
Mof_H 	H 	0.2688	0.4619	0.2449	-0.073
Mof_H 	H 	0.2169	0.3867	0.2277	-0.033
Mof_H 	H 	0.1982	0.4815	0.1977	0.011
Mof_O 	O 	0.8969	0.8754	0.0142	-0.217
Mof_O 	O 	0.9067	0.9735	0.0869	-0.296
Mof_O 	O 	0.8314	0.8645	0.2064	-0.241
Mof_O 	O 	0.7393	0.8236	0.1599	-0.139
Mof_H 	H 	0.8596	0.4783	0.2439	-0.073
Mof_H 	H 	0.8261	0.397	0.3086	0.565
Mof_C 	C 	0.661	0.5129	0.1054	0.484
Mof_H 	H 	0.6763	0.5439	0.077	-0.076
Mof_C 	C 	0.6219	0.433	0.1778	-0.569
Mof_H 	H 	0.6062	0.4015	0.2057	0.177
Mof_C 	C 	0.6053	0.56	0.1107	-0.169
Mof_C 	C 	0.584	0.5153	0.1514	0.175
Mof_C 	C 	0.5219	0.539	0.1519	-0.189
Mof_H 	H 	0.4975	0.5016	0.1654	0.091
Mof_C 	C 	0.5051	0.622	0.1299	0.076
Mof_H 	H 	0.4755	0.6516	0.1412	-0
Mof_C 	C 	0.5282	0.666	0.0928	-0.144
Mof_H 	H 	0.5084	0.7193	0.0746	0.075
Mof_C 	C 	0.5779	0.6383	0.0802	0.072
Mof_H 	H 	0.5924	0.6688	0.0536	0.011
Mof_C 	C 	0.6372	0.4218	0.0825	-0.281
Mof_C 	C 	0.6149	0.3779	0.1224	0.318
Mof_C 	C 	0.5851	0.2972	0.1053	-0.284
Mof_H 	H 	0.5674	0.2689	0.1301	0.126
Mof_C 	C 	0.5823	0.259	0.0503	0.143
Mof_H 	H 	0.5653	0.2021	0.0394	-0.02
Mof_C 	C 	0.604	0.303	0.0114	-0.206
Mof_H 	H 	0.596	0.2808	0.9716	0.093
Mof_C 	C 	0.638	0.3815	0.0308	0.154
Mof_H 	H 	0.6606	0.4056	0.0091	-0.026
Mof_H 	H 	0.6818	0.5303	0.1354	-0.359
Mof_H 	H 	0.6477	0.4687	0.2066	0.409
_end
