data_functionalizedCrystal
_audit_creation_method	'EQeq! by Chris Wilmer'
_symmetry_space_group_name_H-M	'P1'
_symmetry_Int_Tables_number	1
_symmetry_cell_setting	triclinic
loop_
_symmetry_equiv_pos_as_xyz
  x,y,z
_cell_length_a	16.049
_cell_length_b	9.622
_cell_length_c	7.465
_cell_angle_alpha	90
_cell_angle_beta	90
_cell_angle_gamma	90
loop_
_atom_site_label
_atom_site_type_symbol
_atom_site_fract_x
_atom_site_fract_y
_atom_site_fract_z
_atom_site_charge
Mof_Cu	Cu	0.3344	0.8417	0.7598	0.929
Mof_O 	O 	0.259	0.1843	0.5032	-0.311
Mof_O 	O 	0.2702	0.9677	0.5988	-0.375
Mof_O 	O 	0.5813	0.2281	0.6246	-0.361
Mof_O 	O 	0.4981	0.2935	0.8367	-0.269
Mof_C 	C 	0.2874	0.0934	0.5981	0.347
Mof_C 	C 	0.3619	0.1375	0.7111	-0.016
Mof_N 	N 	0.3731	0.024	0.8521	-0.162
Mof_C 	C 	0.4395	0.1606	0.6036	-0.046
Mof_C 	C 	0.51	0.229	0.6961	0.329
Mof_N 	N 	0.2784	0.6762	0.6576	-0.209
Mof_C 	C 	0.3099	0.5526	0.6204	0.129
Mof_N 	N 	0.2484	0.4643	0.5683	-0.108
Mof_C 	C 	0.1773	0.5403	0.574	0.068
Mof_C 	C 	0.1944	0.6688	0.6259	0.06
Mof_Cu	Cu	0.6656	0.3417	0.7402	0.928
Mof_O 	O 	0.741	0.6843	0.9968	-0.311
Mof_O 	O 	0.7298	0.4677	0.9012	-0.377
Mof_O 	O 	0.4187	0.7281	0.8754	-0.362
Mof_O 	O 	0.5019	0.7935	0.6633	-0.27
Mof_C 	C 	0.7126	0.5934	0.9019	0.347
Mof_C 	C 	0.6381	0.6375	0.7889	-0.017
Mof_N 	N 	0.6269	0.524	0.6479	-0.161
Mof_C 	C 	0.5605	0.6606	0.8964	-0.046
Mof_C 	C 	0.49	0.729	0.8039	0.329
Mof_N 	N 	0.7216	0.1762	0.8424	-0.209
Mof_C 	C 	0.6901	0.0526	0.8796	0.129
Mof_N 	N 	0.7516	0.9643	0.9317	-0.108
Mof_C 	C 	0.8227	0.0403	0.926	0.069
Mof_C 	C 	0.8056	0.1688	0.8741	0.06
Mof_Cu	Cu	0.1656	0.1583	0.2598	0.927
Mof_O 	O 	0.241	0.8157	0.0032	-0.312
Mof_O 	O 	0.2298	0.0323	0.0988	-0.378
Mof_O 	O 	0.9187	0.7719	0.1246	-0.362
Mof_O 	O 	0.0019	0.7065	0.3367	-0.269
Mof_C 	C 	0.2126	0.9066	0.0981	0.348
Mof_C 	C 	0.1381	0.8625	0.2111	-0.017
Mof_N 	N 	0.1269	0.976	0.3521	-0.161
Mof_C 	C 	0.0605	0.8394	0.1036	-0.044
Mof_C 	C 	0.99	0.771	0.1961	0.326
Mof_N 	N 	0.2216	0.3238	0.1576	-0.209
Mof_C 	C 	0.1901	0.4474	0.1204	0.129
Mof_N 	N 	0.2516	0.5357	0.0683	-0.108
Mof_C 	C 	0.3227	0.4597	0.074	0.068
Mof_C 	C 	0.3056	0.3312	0.1259	0.06
Mof_Cu	Cu	0.8344	0.6583	0.2402	0.927
Mof_O 	O 	0.759	0.3157	0.4968	-0.312
Mof_O 	O 	0.7702	0.5323	0.4012	-0.377
Mof_O 	O 	0.0813	0.2719	0.3754	-0.362
Mof_O 	O 	0.9981	0.2065	0.1633	-0.269
Mof_C 	C 	0.7874	0.4066	0.4019	0.347
Mof_C 	C 	0.8619	0.3625	0.2889	-0.017
Mof_N 	N 	0.8731	0.476	0.1479	-0.162
Mof_C 	C 	0.9395	0.3394	0.3964	-0.045
Mof_C 	C 	0.01	0.271	0.3039	0.327
Mof_N 	N 	0.7784	0.8238	0.3424	-0.209
Mof_C 	C 	0.8099	0.9474	0.3796	0.127
Mof_N 	N 	0.7484	0.0357	0.4317	-0.107
Mof_C 	C 	0.6773	0.9597	0.426	0.068
Mof_C 	C 	0.6944	0.8312	0.3741	0.06
_end
