data_functionalizedCrystal
_audit_creation_method	'EQeq! by Chris Wilmer'
_symmetry_space_group_name_H-M	'P1'
_symmetry_Int_Tables_number	1
_symmetry_cell_setting	triclinic
loop_
_symmetry_equiv_pos_as_xyz
  x,y,z
_cell_length_a	13.1723
_cell_length_b	13.1723
_cell_length_c	15.867
_cell_angle_alpha	92.6837
_cell_angle_beta	92.6837
_cell_angle_gamma	109.093
loop_
_atom_site_label
_atom_site_type_symbol
_atom_site_fract_x
_atom_site_fract_y
_atom_site_fract_z
_atom_site_charge
Mof_Zn	Zn	0.5628	0.57242	0.43922	1.217
Mof_Zn	Zn	0.4372	0.42758	0.56078	1.217
Mof_Zn	Zn	0.42758	0.4372	0.06078	1.217
Mof_Zn	Zn	0.57242	0.5628	0.93922	1.217
Mof_H 	H 	0.7945	0.8185	0.0891	0.019
Mof_H 	H 	0.9858	0.7426	0.4624	0.178
Mof_H 	H 	0.1947	0.9105	0.4314	0.174
Mof_H 	H 	0.6173	0.0147	0.6659	0.06
Mof_H 	H 	0.7716	0.7426	0.4428	-0.017
Mof_H 	H 	0.0142	0.2574	0.5376	0.178
Mof_H 	H 	0.4457	0.9663	0.9007	0.066
Mof_H 	H 	0.5001	0.8297	0.8562	0.07
Mof_H 	H 	0.1815	0.2055	0.4109	0.017
Mof_H 	H 	0.9086	0.9492	0.2207	0.091
Mof_H 	H 	0.0058	0.8114	0.1354	0.18
Mof_H 	H 	0.2426	0.0048	0.9376	0.179
Mof_H 	H 	0.3323	0.7009	0.168	0.025
Mof_H 	H 	0.1886	0.9942	0.3646	0.183
Mof_H 	H 	0.7964	0.1	0.0113	0.172
Mof_H 	H 	0.8542	0.32	0.7351	0.056
Mof_H 	H 	0.3462	0.2524	0.8319	0.114
Mof_H 	H 	0.3827	0.9853	0.3341	0.059
Mof_H 	H 	0.9663	0.4457	0.4007	0.065
Mof_H 	H 	0.0337	0.5543	0.5993	0.065
Mof_H 	H 	0.2991	0.6677	0.332	0.025
Mof_H 	H 	0.9492	0.9086	0.7207	0.091
Mof_H 	H 	0.8185	0.7945	0.5891	0.017
Mof_H 	H 	0.1358	0.3962	0.9182	0.025
Mof_H 	H 	0.2036	0.9	0.9887	0.172
Mof_H 	H 	0.7009	0.3323	0.668	0.025
Mof_H 	H 	0.9	0.2036	0.4887	0.173
Mof_H 	H 	0.1205	0.4387	0.4712	0.016
Mof_H 	H 	0.6677	0.2991	0.832	0.025
Mof_H 	H 	0.4999	0.1703	0.1438	0.07
Mof_H 	H 	0.7426	0.7716	0.9428	-0.018
Mof_H 	H 	0.4821	0.6781	0.7711	0.032
Mof_H 	H 	0.8297	0.5001	0.3562	0.069
Mof_H 	H 	0.4387	0.1205	0.9712	0.015
Mof_H 	H 	0.7574	0.9952	0.0624	0.179
Mof_H 	H 	0.3613	0.4507	0.2395	-0.014
Mof_H 	H 	0.2284	0.2574	0.5572	-0.018
Mof_H 	H 	0.32	0.8542	0.2351	0.056
Mof_H 	H 	0.8053	0.0895	0.5686	0.173
Mof_H 	H 	0.1393	0.1177	0.1437	0.096
Mof_H 	H 	0.8754	0.1054	0.8556	0.169
Mof_H 	H 	0.5179	0.3219	0.2289	0.032
Mof_H 	H 	0.7426	0.9858	0.9624	0.174
Mof_H 	H 	0.7476	0.6538	0.6681	0.115
Mof_H 	H 	0.5493	0.6387	0.2605	-0.014
Mof_H 	H 	0.8823	0.8607	0.3563	0.096
Mof_H 	H 	0.68	0.1458	0.7649	0.056
Mof_H 	H 	0.1	0.7964	0.5113	0.173
Mof_H 	H 	0.0508	0.0914	0.2793	0.091
Mof_H 	H 	0.3219	0.5179	0.7289	0.033
Mof_H 	H 	0.1703	0.4999	0.6438	0.069
Mof_H 	H 	0.0895	0.8053	0.0686	0.17
Mof_H 	H 	0.9942	0.1886	0.8646	0.18
Mof_H 	H 	0.6387	0.5493	0.7605	-0.014
Mof_H 	H 	0.8795	0.5613	0.5288	0.016
Mof_H 	H 	0.6538	0.7476	0.1681	0.114
Mof_H 	H 	0.6781	0.4821	0.2711	0.033
Mof_H 	H 	0.0914	0.0508	0.7793	0.091
Mof_H 	H 	0.9952	0.7574	0.5624	0.182
Mof_H 	H 	0.1458	0.68	0.2649	0.056
Mof_H 	H 	0.5543	0.0337	0.0993	0.066
Mof_H 	H 	0.2574	0.2284	0.0572	-0.018
Mof_H 	H 	0.4507	0.3613	0.7395	-0.014
Mof_H 	H 	0.2055	0.1815	0.9109	0.018
Mof_H 	H 	0.1246	0.8946	0.1444	0.169
Mof_H 	H 	0.0147	0.6173	0.1659	0.057
Mof_H 	H 	0.9853	0.3827	0.8341	0.057
Mof_H 	H 	0.3962	0.1358	0.4182	0.024
Mof_H 	H 	0.1177	0.1393	0.6437	0.096
Mof_H 	H 	0.9105	0.1947	0.9314	0.17
Mof_H 	H 	0.6038	0.8642	0.5818	0.024
Mof_H 	H 	0.8946	0.1246	0.6444	0.171
Mof_H 	H 	0.0048	0.2426	0.4376	0.182
Mof_H 	H 	0.8642	0.6038	0.0818	0.025
Mof_H 	H 	0.8607	0.8823	0.8563	0.096
Mof_H 	H 	0.1054	0.8754	0.3556	0.171
Mof_H 	H 	0.5613	0.8795	0.0288	0.015
Mof_H 	H 	0.8114	0.0058	0.6354	0.183
Mof_H 	H 	0.2524	0.3462	0.3319	0.115
Mof_H 	H 	0.2574	0.0142	0.0376	0.174
Mof_C 	C 	0.2484	0.3208	0.2751	-0.22
Mof_C 	C 	0.1261	0.4849	0.4271	0.045
Mof_C 	C 	0.4111	0.0535	0.3125	-0.114
Mof_C 	C 	0.4596	0.245	0.333	-0.127
Mof_C 	C 	0.0703	0.0585	0.9434	-0.112
Mof_C 	C 	0.7744	0.4538	0.5947	-0.131
Mof_C 	C 	0.5101	0.9663	0.1148	-0.12
Mof_C 	C 	0.2539	0.2535	0.6128	0.113
Mof_C 	C 	0.163	0.481	0.7001	-0.112
Mof_C 	C 	0.14	0.6278	0.3045	-0.114
Mof_C 	C 	0.0585	0.0703	0.4434	-0.114
Mof_C 	C 	0.5889	0.9465	0.6875	-0.114
Mof_C 	C 	0.9698	0.0708	0.9491	0.087
Mof_C 	C 	0.2315	0.6211	0.345	0.043
Mof_C 	C 	0.1832	0.187	0.1646	-0.205
Mof_C 	C 	0.8568	0.5812	0.1372	0.042
Mof_C 	C 	0.0602	0.4442	0.7301	0.038
Mof_C 	C 	0.1775	0.2227	0.2483	0.178
Mof_C 	C 	0.3419	0.4705	0.8904	0.399
Mof_C 	C 	0.5462	0.2256	0.9053	-0.132
Mof_C 	C 	0.5151	0.8739	0.0729	0.047
Mof_C 	C 	0.147	0.1102	0.8051	-0.197
Mof_C 	C 	0.0657	0.8533	0.1047	-0.515
Mof_C 	C 	0.3208	0.2484	0.7751	-0.219
Mof_C 	C 	0.481	0.163	0.2001	-0.113
Mof_C 	C 	0.4538	0.7744	0.0947	-0.132
Mof_C 	C 	0.6174	0.6858	0.2808	0.138
Mof_C 	C 	0.9887	0.1011	0.4936	0.094
Mof_C 	C 	0.469	0.6742	0.0566	0.388
Mof_C 	C 	0.0242	0.789	0.5111	-0.515
Mof_C 	C 	0.7461	0.7465	0.3872	0.113
Mof_C 	C 	0.0113	0.8989	0.5064	0.094
Mof_C 	C 	0.5295	0.6581	0.6096	0.399
Mof_C 	C 	0.9292	0.0302	0.5509	0.094
Mof_C 	C 	0.245	0.4596	0.833	-0.126
Mof_C 	C 	0.0535	0.4111	0.8125	-0.11
Mof_C 	C 	0.5587	0.0381	0.8206	0.038
Mof_C 	C 	0.9465	0.5889	0.1875	-0.11
Mof_C 	C 	0.2535	0.2539	0.1128	0.113
Mof_C 	C 	0.9297	0.9415	0.0566	-0.112
Mof_C 	C 	0.519	0.837	0.7999	-0.113
Mof_C 	C 	0.4188	0.1432	0.3628	0.044
Mof_C 	C 	0.789	0.0242	0.0111	-0.51
Mof_C 	C 	0.0381	0.5587	0.3206	0.037
Mof_C 	C 	0.8517	0.8765	0.1148	0.055
Mof_C 	C 	0.1483	0.1235	0.8852	0.055
Mof_C 	C 	0.6792	0.7516	0.2249	-0.219
Mof_C 	C 	0.9415	0.9297	0.5566	-0.114
Mof_C 	C 	0.9398	0.5558	0.2699	0.038
Mof_C 	C 	0.6742	0.469	0.5566	0.388
Mof_C 	C 	0.3826	0.3142	0.7192	0.138
Mof_C 	C 	0.5096	0.7464	0.7495	0.047
Mof_C 	C 	0.7773	0.8225	0.2517	0.178
Mof_C 	C 	0.7685	0.3789	0.655	0.043
Mof_C 	C 	0.0302	0.9292	0.0509	0.087
Mof_C 	C 	0.531	0.3258	0.9434	0.388
Mof_C 	C 	0.8168	0.813	0.8354	-0.205
Mof_C 	C 	0.1235	0.1483	0.3852	0.056
Mof_C 	C 	0.0708	0.9698	0.4491	0.094
Mof_C 	C 	0.7464	0.5096	0.2495	0.045
Mof_C 	C 	0.837	0.519	0.2999	-0.112
Mof_C 	C 	0.6211	0.2315	0.845	0.044
Mof_C 	C 	0.2227	0.1775	0.7483	0.178
Mof_C 	C 	0.5558	0.9398	0.7699	0.039
Mof_C 	C 	0.2256	0.5462	0.4053	-0.131
Mof_C 	C 	0.1011	0.9887	0.9936	0.099
Mof_C 	C 	0.3722	0.86	0.1955	-0.114
Mof_C 	C 	0.3789	0.7685	0.155	0.044
Mof_C 	C 	0.8225	0.7773	0.7517	0.178
Mof_C 	C 	0.3142	0.3826	0.2192	0.138
Mof_C 	C 	0.755	0.5404	0.167	-0.126
Mof_C 	C 	0.6581	0.5295	0.1096	0.399
Mof_C 	C 	0.813	0.8168	0.3354	-0.205
Mof_C 	C 	0.853	0.8898	0.1949	-0.197
Mof_C 	C 	0.3258	0.531	0.4434	0.388
Mof_C 	C 	0.1467	0.9343	0.3953	-0.521
Mof_C 	C 	0.4705	0.3419	0.3904	0.399
Mof_C 	C 	0.2536	0.4904	0.7505	0.045
Mof_C 	C 	0.9663	0.5101	0.6148	-0.118
Mof_C 	C 	0.7516	0.6792	0.7249	-0.22
Mof_C 	C 	0.8765	0.8517	0.6148	0.056
Mof_C 	C 	0.4899	0.0337	0.8852	-0.12
Mof_C 	C 	0.4904	0.2536	0.2505	0.047
Mof_C 	C 	0.5812	0.8568	0.6372	0.044
Mof_C 	C 	0.86	0.3722	0.6955	-0.114
Mof_C 	C 	0.1432	0.4188	0.8628	0.042
Mof_C 	C 	0.4849	0.1261	0.9271	0.047
Mof_C 	C 	0.4413	0.9619	0.1794	0.038
Mof_C 	C 	0.9758	0.211	0.4889	-0.515
Mof_C 	C 	0.187	0.1832	0.6646	-0.205
Mof_C 	C 	0.9343	0.1467	0.8953	-0.515
Mof_C 	C 	0.8989	0.0113	0.0064	0.099
Mof_C 	C 	0.0337	0.4899	0.3852	-0.118
Mof_C 	C 	0.211	0.9758	0.9889	-0.51
Mof_C 	C 	0.8739	0.5151	0.5729	0.045
Mof_C 	C 	0.9619	0.4413	0.6794	0.037
Mof_C 	C 	0.8898	0.853	0.6949	-0.198
Mof_C 	C 	0.6278	0.14	0.8045	-0.114
Mof_C 	C 	0.7465	0.7461	0.8872	0.113
Mof_C 	C 	0.8533	0.0657	0.6047	-0.521
Mof_C 	C 	0.4442	0.0602	0.2301	0.039
Mof_C 	C 	0.6858	0.6174	0.7808	0.138
Mof_C 	C 	0.5404	0.755	0.667	-0.127
Mof_C 	C 	0.1102	0.147	0.3051	-0.198
Mof_N 	N 	0.684	0.6468	0.8608	-0.269
Mof_N 	N 	0.3532	0.316	0.6392	-0.269
Mof_N 	N 	0.6468	0.684	0.3608	-0.269
Mof_N 	N 	0.316	0.3532	0.1392	-0.269
Mof_O 	O 	0.42025	0.58715	0.0884	-0.463
Mof_O 	O 	0.57975	0.41285	0.9116	-0.463
Mof_O 	O 	0.4331	0.5223	0.8662	-0.465
Mof_O 	O 	0.67447	0.57353	0.04128	-0.474
Mof_O 	O 	0.57353	0.67447	0.54128	-0.475
Mof_O 	O 	0.4777	0.5669	0.6338	-0.465
Mof_O 	O 	0.41285	0.57975	0.4116	-0.463
Mof_O 	O 	0.31574	0.46926	0.5028	-0.464
Mof_O 	O 	0.58715	0.42025	0.5884	-0.463
Mof_O 	O 	0.42647	0.32553	0.45872	-0.475
Mof_O 	O 	0.46926	0.31574	0.0028	-0.464
Mof_O 	O 	0.5223	0.4331	0.3662	-0.465
Mof_O 	O 	0.32553	0.42647	0.95872	-0.474
Mof_O 	O 	0.5669	0.4777	0.1338	-0.465
Mof_O 	O 	0.68426	0.53074	0.4972	-0.464
Mof_O 	O 	0.53074	0.68426	0.9972	-0.464
_end
