data_functionalizedCrystal
_audit_creation_method	'EQeq! by Chris Wilmer'
_symmetry_space_group_name_H-M	'P1'
_symmetry_Int_Tables_number	1
_symmetry_cell_setting	triclinic
loop_
_symmetry_equiv_pos_as_xyz
  x,y,z
_cell_length_a	11.269
_cell_length_b	13.382
_cell_length_c	25.592
_cell_angle_alpha	90
_cell_angle_beta	90
_cell_angle_gamma	90
loop_
_atom_site_label
_atom_site_type_symbol
_atom_site_fract_x
_atom_site_fract_y
_atom_site_fract_z
_atom_site_charge
Mof_Co	Co	0.9171	0.94008	0.63655	1.178
Mof_Co	Co	0.17142	0.05968	0.57886	1.175
Mof_Co	Co	0.5829	0.05992	0.13655	1.18
Mof_Co	Co	0.32858	0.94032	0.07886	1.177
Mof_Co	Co	0.0829	0.44008	0.86345	1.18
Mof_Co	Co	0.82858	0.55968	0.92114	1.177
Mof_Co	Co	0.4171	0.55992	0.36345	1.18
Mof_Co	Co	0.67142	0.44032	0.42114	1.177
Mof_H 	H 	0.1082	0.8713	0.5876	0.229
Mof_H 	H 	0.1493	0.9091	0.6441	0.222
Mof_H 	H 	0.7123	0.7085	0.56	0.068
Mof_H 	H 	0.1324	0.3131	0.677	0.063
Mof_H 	H 	0.6229	0.5862	0.5095	0.025
Mof_H 	H 	0.1444	0.4245	0.7468	0.015
Mof_H 	H 	0.9303	0.4943	0.4551	0.015
Mof_H 	H 	0.9212	0.1382	0.7662	0.064
Mof_H 	H 	0.5218	0.1148	0.6584	0.063
Mof_H 	H 	0.4966	0.814	0.6678	0.067
Mof_H 	H 	0.0311	0.6139	0.5033	0.071
Mof_H 	H 	0.7265	0.099	0.6564	0.02
Mof_H 	H 	0.8532	0.2729	0.3978	0.019
Mof_H 	H 	0.7382	0.1883	0.5629	0.063
Mof_H 	H 	0.9561	0.1471	0.4405	0.062
Mof_H 	H 	0.7027	0.8053	0.6614	0.016
Mof_H 	H 	0.9444	0.2514	0.8345	0.021
Mof_H 	H 	0.6483	0.3124	0.518	0.015
Mof_H 	H 	0.3918	0.1287	0.0876	0.229
Mof_H 	H 	0.3507	0.0909	0.1441	0.222
Mof_H 	H 	0.7877	0.2915	0.06	0.067
Mof_H 	H 	0.3676	0.6869	0.177	0.063
Mof_H 	H 	0.8771	0.4138	0.0095	0.025
Mof_H 	H 	0.3556	0.5755	0.2468	0.015
Mof_H 	H 	0.5697	0.5057	0.9551	0.016
Mof_H 	H 	0.5788	0.8618	0.2662	0.064
Mof_H 	H 	0.9782	0.8852	0.1584	0.061
Mof_H 	H 	0.0034	0.186	0.1678	0.064
Mof_H 	H 	0.4689	0.3861	0.0033	0.069
Mof_H 	H 	0.7735	0.901	0.1564	0.022
Mof_H 	H 	0.6468	0.7271	0.8978	0.019
Mof_H 	H 	0.7618	0.8117	0.0629	0.063
Mof_H 	H 	0.5439	0.8529	0.9405	0.062
Mof_H 	H 	0.7973	0.1947	0.1614	0.017
Mof_H 	H 	0.5556	0.7486	0.3345	0.021
Mof_H 	H 	0.8517	0.6876	0.018	0.015
Mof_H 	H 	0.8918	0.3713	0.9124	0.229
Mof_H 	H 	0.8507	0.4091	0.8559	0.222
Mof_H 	H 	0.2877	0.2085	0.94	0.068
Mof_H 	H 	0.8676	0.8131	0.823	0.063
Mof_H 	H 	0.3771	0.0862	0.9905	0.025
Mof_H 	H 	0.8556	0.9245	0.7532	0.015
Mof_H 	H 	0.0697	0.9943	0.0449	0.018
Mof_H 	H 	0.0788	0.6382	0.7338	0.064
Mof_H 	H 	0.4782	0.6148	0.8416	0.063
Mof_H 	H 	0.5034	0.314	0.8322	0.067
Mof_H 	H 	0.9689	0.1139	0.9967	0.073
Mof_H 	H 	0.2735	0.599	0.8436	0.021
Mof_H 	H 	0.1468	0.7729	0.1022	0.019
Mof_H 	H 	0.2618	0.6883	0.9371	0.063
Mof_H 	H 	0.0439	0.6471	0.0595	0.062
Mof_H 	H 	0.2973	0.3053	0.8386	0.016
Mof_H 	H 	0.0556	0.7514	0.6655	0.02
Mof_H 	H 	0.3517	0.8124	0.982	0.016
Mof_H 	H 	0.6082	0.6287	0.4124	0.228
Mof_H 	H 	0.6493	0.5909	0.3559	0.222
Mof_H 	H 	0.2123	0.7915	0.44	0.068
Mof_H 	H 	0.6324	0.1869	0.323	0.063
Mof_H 	H 	0.1229	0.9138	0.4905	0.026
Mof_H 	H 	0.6444	0.0755	0.2532	0.016
Mof_H 	H 	0.4303	0.0057	0.5449	0.015
Mof_H 	H 	0.4212	0.3618	0.2338	0.064
Mof_H 	H 	0.0218	0.3852	0.3416	0.061
Mof_H 	H 	0.9966	0.686	0.3322	0.064
Mof_H 	H 	0.5311	0.8861	0.4967	0.069
Mof_H 	H 	0.2265	0.401	0.3436	0.021
Mof_H 	H 	0.3532	0.2271	0.6022	0.019
Mof_H 	H 	0.2382	0.3117	0.4371	0.063
Mof_H 	H 	0.4561	0.3529	0.5595	0.062
Mof_H 	H 	0.2027	0.6947	0.3386	0.018
Mof_H 	H 	0.4444	0.2486	0.1655	0.021
Mof_H 	H 	0.1483	0.1876	0.482	0.015
Mof_C 	C 	0.3524	0.9716	0.65433	0.318
Mof_C 	C 	0.759	0.6663	0.53836	-0.054
Mof_C 	C 	0.8835	0.6769	0.53632	-0.032
Mof_C 	C 	0.0932	0.29894	0.70903	-0.051
Mof_C 	C 	0.4858	0.966	0.66009	-0.032
Mof_C 	C 	0.7068	0.5932	0.508	0.041
Mof_C 	C 	0.9252	0.07516	0.5387	0.355
Mof_C 	C 	0.9436	0.7598	0.5656	0.321
Mof_C 	C 	0.1005	0.3645	0.75099	0.039
Mof_C 	C 	0.8861	0.5395	0.47613	0.045
Mof_C 	C 	0.9696	0.1957	0.76169	-0.046
Mof_C 	C 	0.5569	0.0502	0.65857	-0.06
Mof_C 	C 	0.0271	0.2123	0.71512	-0.048
Mof_C 	C 	0.5419	0.8734	0.66358	-0.063
Mof_C 	C 	0.9469	0.6104	0.5049	-0.064
Mof_C 	C 	0.679	0.0404	0.65727	0.045
Mof_C 	C 	0.8318	0.2569	0.43272	0.045
Mof_C 	C 	0.8583	0.1526	0.50709	-0.04
Mof_C 	C 	0.0225	0.13447	0.67211	0.366
Mof_C 	C 	0.7655	0.2048	0.52888	-0.061
Mof_C 	C 	0.8923	0.1801	0.45751	-0.059
Mof_C 	C 	0.6653	0.8689	0.66075	0.045
Mof_C 	C 	0.983	0.264	0.80217	0.04
Mof_C 	C 	0.7133	0.2791	0.502	0.048
Mof_C 	C 	0.1476	0.0284	0.15433	0.316
Mof_C 	C 	0.741	0.3337	0.03836	-0.053
Mof_C 	C 	0.6165	0.3231	0.03632	-0.034
Mof_C 	C 	0.4068	0.70106	0.20903	-0.051
Mof_C 	C 	0.0142	0.034	0.16009	-0.036
Mof_C 	C 	0.7932	0.4068	0.008	0.04
Mof_C 	C 	0.5748	0.92484	0.0387	0.353
Mof_C 	C 	0.5564	0.2402	0.0656	0.325
Mof_C 	C 	0.3995	0.6355	0.25099	0.039
Mof_C 	C 	0.6139	0.4605	0.97613	0.044
Mof_C 	C 	0.5304	0.8043	0.26169	-0.047
Mof_C 	C 	0.9431	0.9498	0.15857	-0.057
Mof_C 	C 	0.4729	0.7877	0.21512	-0.047
Mof_C 	C 	0.9581	0.1266	0.16358	-0.055
Mof_C 	C 	0.5531	0.3896	0.0049	-0.06
Mof_C 	C 	0.821	0.9596	0.15727	0.04
Mof_C 	C 	0.6682	0.7431	0.93272	0.046
Mof_C 	C 	0.6417	0.8474	0.00709	-0.04
Mof_C 	C 	0.4775	0.86553	0.17211	0.368
Mof_C 	C 	0.7345	0.7952	0.02888	-0.062
Mof_C 	C 	0.6077	0.8199	0.95751	-0.06
Mof_C 	C 	0.8347	0.1311	0.16075	0.042
Mof_C 	C 	0.517	0.736	0.30217	0.039
Mof_C 	C 	0.7867	0.7209	0.002	0.048
Mof_C 	C 	0.6476	0.4716	0.84567	0.317
Mof_C 	C 	0.241	0.1663	0.96164	-0.054
Mof_C 	C 	0.1165	0.1769	0.96368	-0.032
Mof_C 	C 	0.9068	0.79894	0.79097	-0.051
Mof_C 	C 	0.5142	0.466	0.83991	-0.031
Mof_C 	C 	0.2932	0.0932	0.992	0.041
Mof_C 	C 	0.0748	0.57516	0.9613	0.353
Mof_C 	C 	0.0564	0.2598	0.9344	0.322
Mof_C 	C 	0.8995	0.8645	0.74901	0.039
Mof_C 	C 	0.1139	0.0395	0.02387	0.041
Mof_C 	C 	0.0304	0.6957	0.73831	-0.047
Mof_C 	C 	0.4431	0.5502	0.84143	-0.06
Mof_C 	C 	0.9729	0.7123	0.78488	-0.048
Mof_C 	C 	0.4581	0.3734	0.83642	-0.063
Mof_C 	C 	0.0531	0.1104	0.9951	-0.065
Mof_C 	C 	0.321	0.5404	0.84273	0.043
Mof_C 	C 	0.1682	0.7569	0.06728	0.045
Mof_C 	C 	0.1417	0.6526	0.99291	-0.041
Mof_C 	C 	0.9775	0.63447	0.82789	0.368
Mof_C 	C 	0.2345	0.7048	0.97112	-0.061
Mof_C 	C 	0.1077	0.6801	0.04249	-0.058
Mof_C 	C 	0.3347	0.3689	0.83925	0.045
Mof_C 	C 	0.017	0.764	0.69783	0.041
Mof_C 	C 	0.2867	0.7791	0.998	0.047
Mof_C 	C 	0.8524	0.5284	0.34567	0.319
Mof_C 	C 	0.259	0.8337	0.46164	-0.053
Mof_C 	C 	0.3835	0.8231	0.46368	-0.034
Mof_C 	C 	0.5932	0.20106	0.29097	-0.051
Mof_C 	C 	0.9858	0.534	0.33991	-0.036
Mof_C 	C 	0.2068	0.9068	0.492	0.041
Mof_C 	C 	0.4252	0.42484	0.4613	0.353
Mof_C 	C 	0.4436	0.7402	0.4344	0.325
Mof_C 	C 	0.6005	0.1355	0.24901	0.039
Mof_C 	C 	0.3861	0.9605	0.52387	0.044
Mof_C 	C 	0.4696	0.3043	0.23831	-0.047
Mof_C 	C 	0.0569	0.4498	0.34143	-0.056
Mof_C 	C 	0.5271	0.2877	0.28488	-0.047
Mof_C 	C 	0.0419	0.6266	0.33642	-0.056
Mof_C 	C 	0.4469	0.8896	0.4951	-0.06
Mof_C 	C 	0.179	0.4596	0.34273	0.041
Mof_C 	C 	0.3318	0.2431	0.56728	0.046
Mof_C 	C 	0.3583	0.3474	0.49291	-0.039
Mof_C 	C 	0.5225	0.36553	0.32789	0.368
Mof_C 	C 	0.2655	0.2952	0.47112	-0.062
Mof_C 	C 	0.3923	0.3199	0.54249	-0.059
Mof_C 	C 	0.1653	0.6311	0.33925	0.042
Mof_C 	C 	0.483	0.236	0.19783	0.039
Mof_C 	C 	0.2133	0.2209	0.498	0.048
Mof_N 	N 	0.73297	0.95037	0.65721	-0.208
Mof_N 	N 	0.76723	0.53176	0.47663	-0.212
Mof_N 	N 	0.04818	0.34664	0.79716	-0.212
Mof_N 	N 	0.7458	0.30912	0.45503	-0.215
Mof_N 	N 	0.76703	0.04963	0.15721	-0.205
Mof_N 	N 	0.73277	0.46824	0.97663	-0.211
Mof_N 	N 	0.45182	0.65336	0.29716	-0.212
Mof_N 	N 	0.7542	0.69088	0.95503	-0.215
Mof_N 	N 	0.26703	0.45037	0.84279	-0.207
Mof_N 	N 	0.23277	0.03176	0.02337	-0.212
Mof_N 	N 	0.95182	0.84664	0.70284	-0.213
Mof_N 	N 	0.2542	0.80912	0.04497	-0.215
Mof_N 	N 	0.23297	0.54963	0.34279	-0.206
Mof_N 	N 	0.26723	0.96824	0.52337	-0.211
Mof_N 	N 	0.54818	0.15336	0.20284	-0.212
Mof_N 	N 	0.2458	0.19088	0.54497	-0.215
Mof_O 	O 	0.03282	0.06269	0.5259	-0.423
Mof_O 	O 	0.95524	0.06183	0.68111	-0.429
Mof_O 	O 	0.31466	0.04849	0.63086	-0.396
Mof_O 	O 	0.08461	0.15008	0.63236	-0.422
Mof_O 	O 	0.86997	0.03362	0.5747	-0.412
Mof_O 	O 	0.87714	0.81428	0.59333	-0.401
Mof_O 	O 	0.10105	0.92669	0.61307	-0.653
Mof_O 	O 	0.05366	0.76764	0.56125	-0.299
Mof_O 	O 	0.29191	0.90119	0.67133	-0.289
Mof_O 	O 	0.46718	0.93731	0.0259	-0.421
Mof_O 	O 	0.54476	0.93817	0.18111	-0.432
Mof_O 	O 	0.18534	0.95151	0.13086	-0.393
Mof_O 	O 	0.41539	0.84992	0.13236	-0.422
Mof_O 	O 	0.63003	0.96638	0.0747	-0.413
Mof_O 	O 	0.62286	0.18572	0.09333	-0.401
Mof_O 	O 	0.39895	0.07331	0.11307	-0.655
Mof_O 	O 	0.44634	0.23236	0.06125	-0.301
Mof_O 	O 	0.20809	0.09881	0.17133	-0.289
Mof_O 	O 	0.96718	0.56269	0.9741	-0.421
Mof_O 	O 	0.04476	0.56183	0.81889	-0.432
Mof_O 	O 	0.68534	0.54849	0.86914	-0.395
Mof_O 	O 	0.91539	0.65008	0.86764	-0.422
Mof_O 	O 	0.13003	0.53362	0.9253	-0.413
Mof_O 	O 	0.12286	0.31428	0.90667	-0.401
Mof_O 	O 	0.89895	0.42669	0.88693	-0.654
Mof_O 	O 	0.94634	0.26764	0.93875	-0.299
Mof_O 	O 	0.70809	0.40119	0.82867	-0.289
Mof_O 	O 	0.53282	0.43731	0.4741	-0.421
Mof_O 	O 	0.45524	0.43817	0.31889	-0.432
Mof_O 	O 	0.81466	0.45151	0.36914	-0.396
Mof_O 	O 	0.58461	0.34992	0.36764	-0.422
Mof_O 	O 	0.36997	0.46638	0.4253	-0.412
Mof_O 	O 	0.37714	0.68572	0.40667	-0.401
Mof_O 	O 	0.60105	0.57331	0.38693	-0.654
Mof_O 	O 	0.55366	0.73236	0.43875	-0.301
Mof_O 	O 	0.79191	0.59881	0.32867	-0.29
_end
