data_functionalizedCrystal
_audit_creation_method	'EQeq! by Chris Wilmer'
_symmetry_space_group_name_H-M	'P1'
_symmetry_Int_Tables_number	1
_symmetry_cell_setting	triclinic
loop_
_symmetry_equiv_pos_as_xyz
  x,y,z
_cell_length_a	12.2143
_cell_length_b	13.8051
_cell_length_c	16.5293
_cell_angle_alpha	90
_cell_angle_beta	90
_cell_angle_gamma	90
loop_
_atom_site_label
_atom_site_type_symbol
_atom_site_fract_x
_atom_site_fract_y
_atom_site_fract_z
_atom_site_charge
Mof_N 	N 	0.9309	0.0915	0.5896	-0.162
Mof_N 	N 	0.8667	0.0725	0.6537	-0.1
Mof_N 	N 	0.9548	0.1849	0.5874	-0.164
Mof_C 	C 	0.8537	0.1604	0.6879	0.098
Mof_N 	N 	0.9068	0.2301	0.6488	-0.095
Mof_N 	N 	0.6723	0.2215	0.9009	-0.239
Mof_C 	C 	0.7913	0.1787	0.7614	0.051
Mof_C 	C 	0.7535	0.2725	0.7769	-0.114
Mof_C 	C 	0.7679	0.1085	0.8183	-0.122
Mof_C 	C 	0.6943	0.2899	0.8461	0.076
Mof_H 	H 	0.7684	0.3236	0.7399	0.078
Mof_H 	H 	0.7923	0.0438	0.8107	0.07
Mof_C 	C 	0.7083	0.1334	0.8865	0.08
Mof_H 	H 	0.6678	0.3536	0.8554	-0.001
Mof_H 	H 	0.6925	0.0841	0.9249	-0.024
Mof_N 	N 	0.3161	0.0541	0.4849	-0.046
Mof_N 	N 	0.0691	0.9085	0.5896	-0.16
Mof_N 	N 	0.1333	0.9275	0.6537	-0.08
Mof_N 	N 	0.0452	0.8151	0.5874	-0.194
Mof_C 	C 	0.1463	0.8396	0.6879	0.097
Mof_N 	N 	0.0932	0.7699	0.6488	-0.112
Mof_N 	N 	0.3277	0.7785	0.9009	-0.238
Mof_C 	C 	0.2087	0.8213	0.7614	0.053
Mof_C 	C 	0.2465	0.7275	0.7769	-0.117
Mof_C 	C 	0.2321	0.8915	0.8183	-0.122
Mof_C 	C 	0.3057	0.7101	0.8461	0.075
Mof_H 	H 	0.2316	0.6764	0.7399	0.071
Mof_H 	H 	0.2077	0.9562	0.8107	0.089
Mof_C 	C 	0.2917	0.8666	0.8865	0.084
Mof_H 	H 	0.3322	0.6464	0.8554	-0.003
Mof_H 	H 	0.3075	0.9159	0.9249	-0.008
Mof_N 	N 	0.6839	0.9459	0.4849	-0.027
Mof_N 	N 	0.5691	0.5915	0.9104	-0.155
Mof_N 	N 	0.6333	0.5725	0.8463	-0.089
Mof_N 	N 	0.5452	0.6849	0.9126	-0.165
Mof_C 	C 	0.6463	0.6604	0.8121	0.102
Mof_N 	N 	0.5932	0.7301	0.8512	-0.095
Mof_N 	N 	0.8277	0.7215	0.5991	-0.245
Mof_C 	C 	0.7087	0.6787	0.7386	0.057
Mof_C 	C 	0.7465	0.7725	0.7231	-0.112
Mof_C 	C 	0.7321	0.6085	0.6817	-0.124
Mof_C 	C 	0.8057	0.7899	0.6539	0.083
Mof_H 	H 	0.7316	0.8236	0.7601	0.091
Mof_H 	H 	0.7077	0.5438	0.6893	0.078
Mof_C 	C 	0.7917	0.6334	0.6135	0.086
Mof_H 	H 	0.8322	0.8536	0.6446	0.012
Mof_H 	H 	0.8075	0.5841	0.5751	-0.025
Mof_N 	N 	0.1839	0.5541	0.0151	-0.478
Mof_N 	N 	0.4309	0.4085	0.9104	-0.157
Mof_N 	N 	0.3667	0.4275	0.8463	-0.093
Mof_N 	N 	0.4548	0.3151	0.9126	-0.171
Mof_C 	C 	0.3537	0.3396	0.8121	0.094
Mof_N 	N 	0.4068	0.2699	0.8512	-0.106
Mof_N 	N 	0.1723	0.2785	0.5991	-0.256
Mof_C 	C 	0.2913	0.3213	0.7386	0.046
Mof_C 	C 	0.2535	0.2275	0.7231	-0.121
Mof_C 	C 	0.2679	0.3915	0.6817	-0.129
Mof_C 	C 	0.1943	0.2101	0.6539	0.069
Mof_H 	H 	0.2684	0.1764	0.7601	0.064
Mof_H 	H 	0.2923	0.4562	0.6893	0.074
Mof_C 	C 	0.2083	0.3666	0.6135	0.074
Mof_H 	H 	0.1678	0.1464	0.6446	-0.02
Mof_H 	H 	0.1925	0.4159	0.5751	-0.035
Mof_N 	N 	0.8161	0.4459	0.0151	-0.466
Mof_N 	N 	0.0691	0.9085	0.4104	-0.161
Mof_N 	N 	0.1333	0.9275	0.3463	-0.081
Mof_N 	N 	0.0452	0.8151	0.4126	-0.194
Mof_C 	C 	0.1463	0.8396	0.3121	0.095
Mof_N 	N 	0.0932	0.7699	0.3512	-0.112
Mof_N 	N 	0.3277	0.7785	0.0991	-0.253
Mof_C 	C 	0.2087	0.8213	0.2386	0.053
Mof_C 	C 	0.2465	0.7275	0.2231	-0.117
Mof_C 	C 	0.2321	0.8915	0.1817	-0.128
Mof_C 	C 	0.3057	0.7101	0.1539	0.076
Mof_H 	H 	0.2316	0.6764	0.2601	0.073
Mof_H 	H 	0.2077	0.9562	0.1893	0.084
Mof_C 	C 	0.2917	0.8666	0.1135	0.081
Mof_H 	H 	0.3322	0.6464	0.1446	0
Mof_H 	H 	0.3075	0.9159	0.0751	-0.033
Mof_N 	N 	0.6839	0.9459	0.5151	-0.025
Mof_N 	N 	0.9309	0.0915	0.4104	-0.161
Mof_N 	N 	0.8667	0.0725	0.3463	-0.099
Mof_N 	N 	0.9548	0.1849	0.4126	-0.163
Mof_C 	C 	0.8537	0.1604	0.3121	0.098
Mof_N 	N 	0.9068	0.2301	0.3512	-0.095
Mof_N 	N 	0.6723	0.2215	0.0991	-0.255
Mof_C 	C 	0.7913	0.1787	0.2386	0.05
Mof_C 	C 	0.7535	0.2725	0.2231	-0.114
Mof_C 	C 	0.7679	0.1085	0.1817	-0.129
Mof_C 	C 	0.6943	0.2899	0.1539	0.078
Mof_H 	H 	0.7684	0.3236	0.2601	0.08
Mof_H 	H 	0.7923	0.0438	0.1893	0.065
Mof_C 	C 	0.7083	0.1334	0.1135	0.077
Mof_H 	H 	0.6678	0.3536	0.1446	0.003
Mof_H 	H 	0.6925	0.0841	0.0751	-0.048
Mof_N 	N 	0.3161	0.0541	0.5151	-0.044
Mof_N 	N 	0.4309	0.4085	0.0896	-0.172
Mof_N 	N 	0.3667	0.4275	0.1537	-0.09
Mof_N 	N 	0.4548	0.3151	0.0874	-0.189
Mof_C 	C 	0.3537	0.3396	0.1879	0.092
Mof_N 	N 	0.4068	0.2699	0.1488	-0.113
Mof_N 	N 	0.1723	0.2785	0.4009	-0.256
Mof_C 	C 	0.2913	0.3213	0.2614	0.046
Mof_C 	C 	0.2535	0.2275	0.2769	-0.121
Mof_C 	C 	0.2679	0.3915	0.3183	-0.128
Mof_C 	C 	0.1943	0.2101	0.3461	0.068
Mof_H 	H 	0.2684	0.1764	0.2399	0.059
Mof_H 	H 	0.2923	0.4562	0.3107	0.075
Mof_C 	C 	0.2083	0.3666	0.3865	0.074
Mof_H 	H 	0.1678	0.1464	0.3554	-0.021
Mof_H 	H 	0.1925	0.4159	0.4249	-0.035
Mof_N 	N 	0.8161	0.4459	0.9849	0.419
Mof_N 	N 	0.5691	0.5915	0.0896	-0.17
Mof_N 	N 	0.6333	0.5725	0.1537	-0.086
Mof_N 	N 	0.5452	0.6849	0.0874	-0.183
Mof_C 	C 	0.6463	0.6604	0.1879	0.099
Mof_N 	N 	0.5932	0.7301	0.1488	-0.101
Mof_N 	N 	0.8277	0.7215	0.4009	-0.244
Mof_C 	C 	0.7087	0.6787	0.2614	0.057
Mof_C 	C 	0.7465	0.7725	0.2769	-0.112
Mof_C 	C 	0.7321	0.6085	0.3183	-0.123
Mof_C 	C 	0.8057	0.7899	0.3461	0.082
Mof_H 	H 	0.7316	0.8236	0.2399	0.086
Mof_H 	H 	0.7077	0.5438	0.3107	0.079
Mof_C 	C 	0.7917	0.6334	0.3865	0.085
Mof_H 	H 	0.8322	0.8536	0.3554	0.012
Mof_H 	H 	0.8075	0.5841	0.4249	-0.024
Mof_N 	N 	0.1839	0.5541	0.9849	0.407
Mof_Co	Co	2.53698e-33	0	0.5	1.059
Mof_Co	Co	0.5	0.5	-0	1.099
Mof_N 	N 	0.1313	0.0954	0.5	-0.322
Mof_Co	Co	0.06725	0.23852	0.5	1.067
Mof_N 	N 	0.2262	0.0731	0.5	-0.051
Mof_N 	N 	0.8687	0.9046	0.5	-0.274
Mof_Co	Co	0.93275	0.76148	0.5	1.11
Mof_N 	N 	0.7738	0.9269	0.5	-0.034
Mof_N 	N 	0.3687	0.5954	-0	-0.315
Mof_Co	Co	0.43275	0.73852	-0	1.074
Mof_N 	N 	0.2738	0.5731	-0	-0.064
Mof_N 	N 	0.6313	0.4046	-0	-0.313
Mof_Co	Co	0.56725	0.26148	-0	1.069
Mof_N 	N 	0.7262	0.4269	-0	-0.06
_end
