data_functionalizedCrystal
_audit_creation_method	'EQeq! by Chris Wilmer'
_symmetry_space_group_name_H-M	'P1'
_symmetry_Int_Tables_number	1
_symmetry_cell_setting	triclinic
loop_
_symmetry_equiv_pos_as_xyz
  x,y,z
_cell_length_a	12.7907
_cell_length_b	12.7907
_cell_length_c	19.258
_cell_angle_alpha	71.1226
_cell_angle_beta	71.1226
_cell_angle_gamma	86.7339
loop_
_atom_site_label
_atom_site_type_symbol
_atom_site_fract_x
_atom_site_fract_y
_atom_site_fract_z
_atom_site_charge
Mof_Na	Na	0.81709	0.01845	0.24256	2.48
Mof_Na	Na	0.98155	0.18291	0.25744	2.486
Mof_Na	Na	0.18291	0.98155	0.75744	2.479
Mof_Na	Na	0.01845	0.81709	0.74256	2.485
Mof_Zn	Zn	0.72528	0.79118	0.41158	1.207
Mof_Zn	Zn	0.20882	0.27472	0.08842	1.206
Mof_Zn	Zn	0.27472	0.20882	0.58842	1.207
Mof_Zn	Zn	0.79118	0.72528	0.91158	1.206
Mof_H 	H 	0.786	0.1822	0.2968	0.358
Mof_H 	H 	0.8178	0.214	0.2032	0.358
Mof_H 	H 	0.214	0.8178	0.7032	0.358
Mof_H 	H 	0.1822	0.786	0.7968	0.358
Mof_C 	C 	0.8401	0.7449	0.2739	0.561
Mof_C 	C 	0.905	0.6628	0.2361	-0.174
Mof_C 	C 	0.8699	0.6255	0.1863	0.157
Mof_C 	C 	0.9324	0.553	0.1505	0.16
Mof_C 	C 	0.0298	0.5162	0.1643	-0.206
Mof_C 	C 	0.0641	0.5525	0.2152	0.155
Mof_C 	C 	0.0026	0.6254	0.25	0.163
Mof_C 	C 	0.1048	0.4468	0.1202	0.517
Mof_C 	C 	0.885	0.9438	0.4067	0.662
Mof_C 	C 	0.947	0.9752	0.4539	-0.261
Mof_C 	C 	0.0513	0.9403	0.4504	0.156
Mof_C 	C 	0.8943	0.0359	0.5028	0.142
Mof_C 	C 	0.7183	0.2653	0.2264	0.131
Mof_C 	C 	0.2551	0.1599	0.2261	0.561
Mof_C 	C 	0.3372	0.095	0.2639	-0.175
Mof_C 	C 	0.3745	0.1301	0.3137	0.157
Mof_C 	C 	0.447	0.0676	0.3495	0.161
Mof_C 	C 	0.4838	0.9702	0.3357	-0.207
Mof_C 	C 	0.4475	0.9359	0.2848	0.156
Mof_C 	C 	0.3746	0.9974	0.25	0.163
Mof_C 	C 	0.5532	0.8952	0.3798	0.516
Mof_C 	C 	0.0562	0.115	0.0933	0.666
Mof_C 	C 	0.0248	0.053	0.0461	-0.273
Mof_C 	C 	0.0597	0.9487	0.0496	0.162
Mof_C 	C 	0.9641	0.1057	0.9972	0.148
Mof_C 	C 	0.7347	0.2817	0.2736	0.133
Mof_C 	C 	0.1599	0.2551	0.7261	0.561
Mof_C 	C 	0.095	0.3372	0.7639	-0.174
Mof_C 	C 	0.1301	0.3745	0.8137	0.157
Mof_C 	C 	0.0676	0.447	0.8495	0.16
Mof_C 	C 	0.9702	0.4838	0.8357	-0.206
Mof_C 	C 	0.9359	0.4475	0.7848	0.155
Mof_C 	C 	0.9974	0.3746	0.75	0.163
Mof_C 	C 	0.8952	0.5532	0.8798	0.517
Mof_C 	C 	0.115	0.0562	0.5933	0.662
Mof_C 	C 	0.053	0.0248	0.5461	-0.261
Mof_C 	C 	0.9487	0.0597	0.5496	0.156
Mof_C 	C 	0.1057	0.9641	0.4972	0.142
Mof_C 	C 	0.2817	0.7347	0.7736	0.131
Mof_C 	C 	0.7449	0.8401	0.7739	0.561
Mof_C 	C 	0.6628	0.905	0.7361	-0.175
Mof_C 	C 	0.6255	0.8699	0.6863	0.157
Mof_C 	C 	0.553	0.9324	0.6505	0.161
Mof_C 	C 	0.5162	0.0298	0.6643	-0.207
Mof_C 	C 	0.5525	0.0641	0.7152	0.156
Mof_C 	C 	0.6254	0.0026	0.75	0.163
Mof_C 	C 	0.4468	0.1048	0.6202	0.516
Mof_C 	C 	0.9438	0.885	0.9067	0.666
Mof_C 	C 	0.9752	0.947	0.9539	-0.273
Mof_C 	C 	0.9403	0.0513	0.9504	0.162
Mof_C 	C 	0.0359	0.8943	0.0028	0.148
Mof_C 	C 	0.2653	0.7183	0.7264	0.133
Mof_Cl	Cl	0.74932	0.67324	0.16722	-0.289
Mof_Cl	Cl	0.89153	0.51295	0.08503	-0.326
Mof_Cl	Cl	0.04904	0.67452	0.30962	-0.252
Mof_Cl	Cl	0.18357	0.50187	0.23503	-0.278
Mof_Cl	Cl	0.117	0.86552	0.38933	-0.274
Mof_Cl	Cl	0.76365	0.08181	0.5048	-0.339
Mof_Cl	Cl	0.32676	0.25068	0.33278	-0.288
Mof_Cl	Cl	0.48705	0.10847	0.41497	-0.324
Mof_Cl	Cl	0.32548	0.95096	0.19038	-0.251
Mof_Cl	Cl	0.49813	0.81643	0.26497	-0.278
Mof_Cl	Cl	0.13448	0.883	0.11067	-0.273
Mof_Cl	Cl	0.91819	0.23635	0.9952	-0.336
Mof_Cl	Cl	0.25068	0.32676	0.83278	-0.289
Mof_Cl	Cl	0.10847	0.48705	0.91497	-0.326
Mof_Cl	Cl	0.95096	0.32548	0.69038	-0.252
Mof_Cl	Cl	0.81643	0.49813	0.76497	-0.278
Mof_Cl	Cl	0.883	0.13448	0.61067	-0.274
Mof_Cl	Cl	0.23635	0.91819	0.4952	-0.339
Mof_Cl	Cl	0.67324	0.74932	0.66722	-0.288
Mof_Cl	Cl	0.51295	0.89153	0.58503	-0.324
Mof_Cl	Cl	0.67452	0.04904	0.80962	-0.251
Mof_Cl	Cl	0.50187	0.18357	0.73503	-0.278
Mof_Cl	Cl	0.86552	0.117	0.88933	-0.273
Mof_Cl	Cl	0.08181	0.76365	0.0048	-0.336
Mof_O 	O 	0.7832	0.699	0.3452	-0.498
Mof_O 	O 	0.849	0.842	0.2354	-0.68
Mof_O 	O 	0.0818	0.3442	0.1452	-0.745
Mof_O 	O 	0.1828	0.4926	0.0637	-0.319
Mof_O 	O 	0.8929	0.0049	0.3416	-0.986
Mof_O 	O 	0.8304	0.8508	0.4437	-0.526
Mof_O 	O 	0.301	0.2168	0.1548	-0.5
Mof_O 	O 	0.158	0.151	0.2646	-0.681
Mof_O 	O 	0.6558	0.9182	0.3548	-0.744
Mof_O 	O 	0.5074	0.8172	0.4363	-0.319
Mof_O 	O 	0.9951	0.1071	0.1584	-0.99
Mof_O 	O 	0.1492	0.1696	0.0563	-0.529
Mof_O 	O 	0.2168	0.301	0.6548	-0.498
Mof_O 	O 	0.151	0.158	0.7646	-0.68
Mof_O 	O 	0.9182	0.6558	0.8548	-0.745
Mof_O 	O 	0.8172	0.5074	0.9363	-0.319
Mof_O 	O 	0.1071	0.9951	0.6584	-0.986
Mof_O 	O 	0.1696	0.1492	0.5563	-0.526
Mof_O 	O 	0.699	0.7832	0.8452	-0.5
Mof_O 	O 	0.842	0.849	0.7354	-0.681
Mof_O 	O 	0.3442	0.0818	0.6452	-0.744
Mof_O 	O 	0.4926	0.1828	0.5637	-0.319
Mof_O 	O 	0.0049	0.8929	0.8416	-0.99
Mof_O 	O 	0.8508	0.8304	0.9437	-0.529
Mof_O 	O 	0.7961	0.2039	0.25	-1.4
Mof_O 	O 	0.2039	0.7961	0.75	-1.4
_end
