data_functionalizedCrystal
_audit_creation_method	'EQeq! by Chris Wilmer'
_symmetry_space_group_name_H-M	'P1'
_symmetry_Int_Tables_number	1
_symmetry_cell_setting	triclinic
loop_
_symmetry_equiv_pos_as_xyz
  x,y,z
_cell_length_a	26.9668
_cell_length_b	26.9668
_cell_length_c	26.9668
_cell_angle_alpha	64.432
_cell_angle_beta	82.1352
_cell_angle_gamma	115.568
loop_
_atom_site_label
_atom_site_type_symbol
_atom_site_fract_x
_atom_site_fract_y
_atom_site_fract_z
_atom_site_charge
Mof_Cu	Cu	0.00757	0.0512	0.26711	0.904
Mof_Cu	Cu	0.00342	0.06381	0.35939	0.895
Mof_Cu	Cu	0.68169	0.9488	0.04363	0.903
Mof_Cu	Cu	0.5768	0.93619	0.06039	0.894
Mof_Cu	Cu	0.95637	0.27468	0.99243	0.901
Mof_Cu	Cu	0.93961	0.36281	0.99658	0.893
Mof_Cu	Cu	0.73289	0.72532	0.31831	0.903
Mof_Cu	Cu	0.64061	0.63719	0.4232	0.895
Mof_Cu	Cu	0.99243	0.9488	0.73289	0.903
Mof_Cu	Cu	0.99658	0.93619	0.64061	0.894
Mof_Cu	Cu	0.31831	0.0512	0.95637	0.902
Mof_Cu	Cu	0.4232	0.06381	0.93961	0.893
Mof_Cu	Cu	0.04363	0.72532	0.00757	0.9
Mof_Cu	Cu	0.06039	0.63719	0.00342	0.892
Mof_Cu	Cu	0.26711	0.27468	0.68169	0.903
Mof_Cu	Cu	0.35939	0.36281	0.5768	0.895
Mof_Cu	Cu	0.27498	0.31452	0.96046	0.903
Mof_Cu	Cu	0.36523	0.42327	0.94196	0.907
Mof_Cu	Cu	0.72502	0.68548	0.03954	0.903
Mof_Cu	Cu	0.63477	0.57673	0.05804	0.907
Mof_Cu	Cu	0.96046	0.23544	0.72502	0.903
Mof_Cu	Cu	0.94196	0.30719	0.63477	0.907
Mof_Cu	Cu	0.03954	0.76456	0.27498	0.903
Mof_Cu	Cu	0.05804	0.69281	0.36523	0.907
Mof_Si	Si	0.88944	0.60797	0.85921	2.104
Mof_Si	Si	0.53282	0.39203	0.71853	2.109
Mof_Si	Si	0.28147	0.74865	0.11056	2.105
Mof_Si	Si	0.14079	0.25135	0.46718	2.108
Mof_Si	Si	0.11056	0.39203	0.14079	2.104
Mof_Si	Si	0.46718	0.60797	0.28147	2.109
Mof_Si	Si	0.71853	0.25135	0.88944	2.105
Mof_Si	Si	0.85921	0.74865	0.53282	2.108
Mof_Si	Si	0.60929	0.75826	0.85103	0.868
Mof_Si	Si	0.39071	0.24174	0.14897	0.868
Mof_Si	Si	0.85103	0.46032	0.39071	0.868
Mof_Si	Si	0.14897	0.53968	0.60929	0.868
Mof_H 	H 	0.528	0.2468	0.9336	0.019
Mof_H 	H 	0.5009	0.3805	0.9358	0.042
Mof_H 	H 	0.363	0.2142	0.9672	0.045
Mof_H 	H 	0.8295	0.8693	0.3518	0.039
Mof_H 	H 	0.6798	0.7583	0.5007	0.054
Mof_H 	H 	0.8215	0.9188	0.4717	0.037
Mof_H 	H 	0.0404	0.9223	0.4581	0.018
Mof_H 	H 	0.0537	0.7783	0.4632	0.046
Mof_H 	H 	0.0551	0.9084	0.3153	0.047
Mof_H 	H 	0.9475	0.7896	0.6611	0.202
Mof_H 	H 	0.9011	0.7234	0.7631	-0.209
Mof_H 	H 	0.9696	0.6176	0.765	-0.22
Mof_H 	H 	0.0167	0.6835	0.6628	0.227
Mof_H 	H 	0.9312	0.5444	0.8704	0.649
Mof_H 	H 	0.9025	0.5314	0.9329	0.639
Mof_H 	H 	0.9653	0.5957	0.8862	0.643
Mof_H 	H 	0.9257	0.6872	0.8847	0.651
Mof_H 	H 	0.861	0.6277	0.9327	0.658
Mof_H 	H 	0.8697	0.6811	0.8704	0.665
Mof_H 	H 	0.8365	0.513	0.8279	-0.215
Mof_H 	H 	0.7433	0.4373	0.8424	0.219
Mof_H 	H 	0.6713	0.4892	0.9363	0.225
Mof_H 	H 	0.7651	0.5673	0.9168	-0.214
Mof_H 	H 	0.5991	0.8322	0.7371	-0.041
Mof_H 	H 	0.6219	0.8388	0.6445	0.126
Mof_H 	H 	0.7233	0.7741	0.6848	0.145
Mof_H 	H 	0.6963	0.7613	0.7772	-0.083
Mof_H 	H 	0.8196	0.7532	0.7188	0.019
Mof_H 	H 	0.6837	0.6195	0.8796	0.042
Mof_H 	H 	0.8186	0.7858	0.8512	0.045
Mof_H 	H 	0.7789	0.1307	0.0398	0.041
Mof_H 	H 	0.741	0.2417	0.0785	0.055
Mof_H 	H 	0.6095	0.0812	0.0973	0.038
Mof_H 	H 	0.6196	0.0777	0.8819	0.017
Mof_H 	H 	0.7585	0.2217	0.7246	0.046
Mof_H 	H 	0.7763	0.0916	0.8533	0.047
Mof_H 	H 	0.5493	0.2104	0.8421	0.203
Mof_H 	H 	0.5135	0.2766	0.8223	-0.209
Mof_H 	H 	0.6174	0.3824	0.648	-0.219
Mof_H 	H 	0.6537	0.3165	0.6668	0.223
Mof_H 	H 	0.5852	0.4556	0.6132	0.651
Mof_H 	H 	0.5357	0.4686	0.6289	0.642
Mof_H 	H 	0.5181	0.4043	0.6304	0.646
Mof_H 	H 	0.4281	0.3128	0.7615	0.654
Mof_H 	H 	0.4396	0.3723	0.7667	0.661
Mof_H 	H 	0.4485	0.3189	0.8114	0.667
Mof_H 	H 	0.6591	0.487	0.6765	-0.216
Mof_H 	H 	0.7203	0.5627	0.694	0.219
Mof_H 	H 	0.5745	0.5108	0.8179	0.226
Mof_H 	H 	0.5159	0.4327	0.8022	-0.215
Mof_H 	H 	0.4307	0.1678	0.2331	-0.041
Mof_H 	H 	0.5167	0.1612	0.2169	0.126
Mof_H 	H 	0.5411	0.2259	0.0508	0.146
Mof_H 	H 	0.4615	0.2387	0.065	-0.082
Mof_H 	H 	0.2812	0.4616	0.472	0.019
Mof_H 	H 	0.1204	0.4367	0.4991	0.042
Mof_H 	H 	0.1488	0.3302	0.637	0.045
Mof_H 	H 	0.9602	0.1813	0.1705	0.041
Mof_H 	H 	0.9215	0.1805	0.3202	0.055
Mof_H 	H 	0.9027	0.2932	0.1785	0.038
Mof_H 	H 	0.1181	0.4985	0.9596	0.019
Mof_H 	H 	0.2754	0.5169	0.9463	0.046
Mof_H 	H 	0.1467	0.3704	0.9449	0.048
Mof_H 	H 	0.1579	0.6086	0.0525	0.202
Mof_H 	H 	0.1777	0.6642	0.0989	-0.209
Mof_H 	H 	0.352	0.7346	0.0304	-0.221
Mof_H 	H 	0.3332	0.6795	0.9833	0.228
Mof_H 	H 	0.3868	0.8016	0.0688	0.649
Mof_H 	H 	0.3711	0.8354	0.0975	0.64
Mof_H 	H 	0.3696	0.8515	0.0347	0.643
Mof_H 	H 	0.2385	0.8104	0.0743	0.651
Mof_H 	H 	0.2333	0.7937	0.139	0.659
Mof_H 	H 	0.1886	0.7401	0.1303	0.665
Mof_H 	H 	0.3235	0.6644	0.1635	-0.216
Mof_H 	H 	0.306	0.5857	0.2567	0.219
Mof_H 	H 	0.1821	0.6076	0.3287	0.225
Mof_H 	H 	0.1978	0.6819	0.2349	-0.214
Mof_H 	H 	0.7669	0.3362	0.4009	-0.041
Mof_H 	H 	0.7831	0.2664	0.3781	0.126
Mof_H 	H 	0.9492	0.4081	0.2767	0.146
Mof_H 	H 	0.935	0.4735	0.3037	-0.082
Mof_H 	H 	0.0664	0.5384	0.1804	0.019
Mof_H 	H 	0.0642	0.5633	0.3163	0.042
Mof_H 	H 	0.0328	0.6698	0.1814	0.045
Mof_H 	H 	0.6482	0.8187	0.2211	0.039
Mof_H 	H 	0.4993	0.8195	0.259	0.054
Mof_H 	H 	0.5283	0.7068	0.3905	0.037
Mof_H 	H 	0.5419	0.5015	0.3804	0.018
Mof_H 	H 	0.5368	0.4831	0.2415	0.045
Mof_H 	H 	0.6847	0.6296	0.2237	0.048
Mof_H 	H 	0.3389	0.3914	0.4507	0.203
Mof_H 	H 	0.2369	0.3358	0.4865	-0.209
Mof_H 	H 	0.235	0.2654	0.3826	-0.219
Mof_H 	H 	0.3372	0.3205	0.3463	0.223
Mof_H 	H 	0.1296	0.1984	0.4148	0.65
Mof_H 	H 	0.0671	0.1646	0.4643	0.641
Mof_H 	H 	0.1138	0.1485	0.4819	0.645
Mof_H 	H 	0.1153	0.1896	0.5719	0.654
Mof_H 	H 	0.0673	0.2063	0.5604	0.66
Mof_H 	H 	0.1296	0.2599	0.5515	0.666
Mof_H 	H 	0.1721	0.3356	0.3409	-0.216
Mof_H 	H 	0.1576	0.4143	0.2797	0.219
Mof_H 	H 	0.0637	0.3924	0.4255	0.226
Mof_H 	H 	0.0832	0.3181	0.4841	-0.214
Mof_H 	H 	0.2629	0.6638	0.5693	-0.041
Mof_H 	H 	0.3555	0.7336	0.4833	0.126
Mof_H 	H 	0.3152	0.5919	0.4589	0.145
Mof_H 	H 	0.2228	0.5265	0.5385	-0.083
Mof_H 	H 	0.472	0.7532	0.0664	0.019
Mof_H 	H 	0.4991	0.6195	0.0642	0.042
Mof_H 	H 	0.637	0.7858	0.0328	0.045
Mof_H 	H 	0.1705	0.1307	0.6482	0.039
Mof_H 	H 	0.3202	0.2417	0.4993	0.054
Mof_H 	H 	0.1785	0.0812	0.5283	0.037
Mof_H 	H 	0.9596	0.0777	0.5419	0.018
Mof_H 	H 	0.9463	0.2217	0.5368	0.046
Mof_H 	H 	0.9449	0.0916	0.6847	0.047
Mof_H 	H 	0.0525	0.2104	0.3389	0.202
Mof_H 	H 	0.0989	0.2766	0.2369	-0.209
Mof_H 	H 	0.0304	0.3824	0.235	-0.22
Mof_H 	H 	0.9833	0.3165	0.3372	0.227
Mof_H 	H 	0.0688	0.4556	0.1296	0.649
Mof_H 	H 	0.0975	0.4686	0.0671	0.639
Mof_H 	H 	0.0347	0.4043	0.1138	0.643
Mof_H 	H 	0.0743	0.3128	0.1153	0.651
Mof_H 	H 	0.139	0.3723	0.0673	0.658
Mof_H 	H 	0.1303	0.3189	0.1296	0.665
Mof_H 	H 	0.1635	0.487	0.1721	-0.215
Mof_H 	H 	0.2567	0.5627	0.1576	0.219
Mof_H 	H 	0.3287	0.5108	0.0637	0.225
Mof_H 	H 	0.2349	0.4327	0.0832	-0.214
Mof_H 	H 	0.4009	0.1678	0.2629	-0.041
Mof_H 	H 	0.3781	0.1612	0.3555	0.126
Mof_H 	H 	0.2767	0.2259	0.3152	0.145
Mof_H 	H 	0.3037	0.2387	0.2228	-0.083
Mof_H 	H 	0.1804	0.2468	0.2812	0.019
Mof_H 	H 	0.3163	0.3805	0.1204	0.042
Mof_H 	H 	0.1814	0.2142	0.1488	0.045
Mof_H 	H 	0.2211	0.8693	0.9602	0.041
Mof_H 	H 	0.259	0.7583	0.9215	0.055
Mof_H 	H 	0.3905	0.9188	0.9027	0.038
Mof_H 	H 	0.3804	0.9223	0.1181	0.017
Mof_H 	H 	0.2415	0.7783	0.2754	0.046
Mof_H 	H 	0.2237	0.9084	0.1467	0.047
Mof_H 	H 	0.4507	0.7896	0.1579	0.203
Mof_H 	H 	0.4865	0.7234	0.1777	-0.209
Mof_H 	H 	0.3826	0.6176	0.352	-0.219
Mof_H 	H 	0.3463	0.6835	0.3332	0.223
Mof_H 	H 	0.4148	0.5444	0.3868	0.651
Mof_H 	H 	0.4643	0.5314	0.3711	0.642
Mof_H 	H 	0.4819	0.5957	0.3696	0.646
Mof_H 	H 	0.5719	0.6872	0.2385	0.654
Mof_H 	H 	0.5604	0.6277	0.2333	0.661
Mof_H 	H 	0.5515	0.6811	0.1886	0.667
Mof_H 	H 	0.3409	0.513	0.3235	-0.216
Mof_H 	H 	0.2797	0.4373	0.306	0.219
Mof_H 	H 	0.4255	0.4892	0.1821	0.226
Mof_H 	H 	0.4841	0.5673	0.1978	-0.215
Mof_H 	H 	0.5693	0.8322	0.7669	-0.041
Mof_H 	H 	0.4833	0.8388	0.7831	0.126
Mof_H 	H 	0.4589	0.7741	0.9492	0.146
Mof_H 	H 	0.5385	0.7613	0.935	-0.082
Mof_H 	H 	0.7188	0.5384	0.528	0.019
Mof_H 	H 	0.8796	0.5633	0.5009	0.042
Mof_H 	H 	0.8512	0.6698	0.363	0.045
Mof_H 	H 	0.0398	0.8187	0.8295	0.041
Mof_H 	H 	0.0785	0.8195	0.6798	0.055
Mof_H 	H 	0.0973	0.7068	0.8215	0.038
Mof_H 	H 	0.8819	0.5015	0.0404	0.019
Mof_H 	H 	0.7246	0.4831	0.0537	0.046
Mof_H 	H 	0.8533	0.6296	0.0551	0.048
Mof_H 	H 	0.8421	0.3914	0.9475	0.202
Mof_H 	H 	0.8223	0.3358	0.9011	-0.209
Mof_H 	H 	0.648	0.2654	0.9696	-0.221
Mof_H 	H 	0.6668	0.3205	0.0167	0.228
Mof_H 	H 	0.6132	0.1984	0.9312	0.649
Mof_H 	H 	0.6289	0.1646	0.9025	0.64
Mof_H 	H 	0.6304	0.1485	0.9653	0.643
Mof_H 	H 	0.7615	0.1896	0.9257	0.651
Mof_H 	H 	0.7667	0.2063	0.861	0.659
Mof_H 	H 	0.8114	0.2599	0.8697	0.665
Mof_H 	H 	0.6765	0.3356	0.8365	-0.216
Mof_H 	H 	0.694	0.4143	0.7433	0.219
Mof_H 	H 	0.8179	0.3924	0.6713	0.225
Mof_H 	H 	0.8022	0.3181	0.7651	-0.214
Mof_H 	H 	0.2331	0.6638	0.5991	-0.041
Mof_H 	H 	0.2169	0.7336	0.6219	0.126
Mof_H 	H 	0.0508	0.5919	0.7233	0.146
Mof_H 	H 	0.065	0.5265	0.6963	-0.082
Mof_H 	H 	0.9336	0.4616	0.8196	0.019
Mof_H 	H 	0.9358	0.4367	0.6837	0.042
Mof_H 	H 	0.9672	0.3302	0.8186	0.045
Mof_H 	H 	0.3518	0.1813	0.7789	0.039
Mof_H 	H 	0.5007	0.1805	0.741	0.054
Mof_H 	H 	0.4717	0.2932	0.6095	0.037
Mof_H 	H 	0.4581	0.4985	0.6196	0.018
Mof_H 	H 	0.4632	0.5169	0.7585	0.045
Mof_H 	H 	0.3153	0.3704	0.7763	0.048
Mof_H 	H 	0.6611	0.6086	0.5493	0.203
Mof_H 	H 	0.7631	0.6642	0.5135	-0.209
Mof_H 	H 	0.765	0.7346	0.6174	-0.219
Mof_H 	H 	0.6628	0.6795	0.6537	0.223
Mof_H 	H 	0.8704	0.8016	0.5852	0.65
Mof_H 	H 	0.9329	0.8354	0.5357	0.641
Mof_H 	H 	0.8862	0.8515	0.5181	0.645
Mof_H 	H 	0.8847	0.8104	0.4281	0.654
Mof_H 	H 	0.9327	0.7937	0.4396	0.66
Mof_H 	H 	0.8704	0.7401	0.4485	0.666
Mof_H 	H 	0.8279	0.6644	0.6591	-0.216
Mof_H 	H 	0.8424	0.5857	0.7203	0.219
Mof_H 	H 	0.9363	0.6076	0.5745	0.226
Mof_H 	H 	0.9168	0.6819	0.5159	-0.214
Mof_H 	H 	0.7371	0.3362	0.4307	-0.041
Mof_H 	H 	0.6445	0.2664	0.5167	0.126
Mof_H 	H 	0.6848	0.4081	0.5411	0.145
Mof_H 	H 	0.7772	0.4735	0.4615	-0.083
Mof_C 	C 	0.41703	0.15706	0.95291	0.373
Mof_C 	C 	0.44132	0.22056	0.95064	-0.114
Mof_C 	C 	0.50244	0.2606	0.93816	0.008
Mof_C 	C 	0.52409	0.3194	0.93291	-0.056
Mof_C 	C 	0.48589	0.3401	0.94001	0.001
Mof_C 	C 	0.42519	0.30023	0.95346	-0.108
Mof_C 	C 	0.4034	0.24075	0.95849	0.026
Mof_C 	C 	0.38543	0.32476	0.95653	0.359
Mof_C 	C 	0.89873	0.9596	0.37027	0.346
Mof_C 	C 	0.83585	0.9028	0.40595	-0.119
Mof_C 	C 	0.80862	0.86063	0.38795	0.015
Mof_C 	C 	0.75111	0.8061	0.42299	-0.097
Mof_C 	C 	0.71884	0.7948	0.47676	-0.012
Mof_C 	C 	0.74531	0.838	0.49369	-0.025
Mof_C 	C 	0.80342	0.8907	0.45928	-0.02
Mof_C 	C 	0.716	0.8271	0.5495	0.042
Mof_C 	C 	0.03878	0.9801	0.35112	0.362
Mof_C 	C 	0.04818	0.9258	0.38082	-0.117
Mof_C 	C 	0.04377	0.901	0.43963	-0.016
Mof_C 	C 	0.0444	0.8458	0.4704	-0.065
Mof_C 	C 	0.05238	0.8154	0.44242	-0.009
Mof_C 	C 	0.05404	0.89371	0.35387	0.017
Mof_C 	C 	0.0316	0.8138	0.5336	0.058
Mof_C 	C 	0.014	0.7828	0.5866	-0.194
Mof_C 	C 	0.98723	0.7435	0.65007	0.385
Mof_C 	C 	0.95198	0.755	0.68182	-0.528
Mof_C 	C 	0.92463	0.7155	0.74287	0.583
Mof_C 	C 	0.93104	0.6638	0.77576	-0.892
Mof_C 	C 	0.96539	0.6524	0.74421	0.595
Mof_C 	C 	0.9934	0.6917	0.6827	-0.543
Mof_C 	C 	0.9266	0.5646	0.891	-2.172
Mof_C 	C 	0.886	0.657	0.8906	-2.184
Mof_C 	C 	0.81124	0.5458	0.87376	-0.9
Mof_C 	C 	0.803	0.5076	0.8504	0.595
Mof_C 	C 	0.7472	0.4619	0.8591	-0.553
Mof_C 	C 	0.7046	0.4937	0.9145	-0.554
Mof_C 	C 	0.7606	0.5394	0.9038	0.608
Mof_C 	C 	0.5866	0.3627	0.9187	0.073
Mof_C 	C 	0.6368	0.4033	0.9059	-0.183
Mof_C 	C 	0.69722	0.4531	0.89288	0.397
Mof_C 	C 	0.05751	0.801	0.35809	0.359
Mof_C 	C 	0.05837	0.8404	0.38383	-0.112
Mof_C 	C 	0.69671	0.8189	0.59679	-0.129
Mof_C 	C 	0.67533	0.806	0.65507	0.246
Mof_C 	C 	0.6357	0.7773	0.773	-0.416
Mof_C 	C 	0.6195	0.8144	0.7291	0.194
Mof_C 	C 	0.6373	0.8221	0.6714	-0.267
Mof_C 	C 	0.6955	0.7835	0.6946	-0.34
Mof_C 	C 	0.6766	0.7726	0.753	0.315
Mof_C 	C 	0.72517	0.7583	0.40553	0.35
Mof_C 	C 	0.89003	0.84294	0.74003	0.373
Mof_C 	C 	0.8288	0.77944	0.77924	-0.114
Mof_C 	C 	0.80124	0.7394	0.75816	0.009
Mof_C 	C 	0.74769	0.6806	0.79531	-0.056
Mof_C 	C 	0.71989	0.6599	0.85421	0.002
Mof_C 	C 	0.74631	0.69977	0.87504	-0.108
Mof_C 	C 	0.80076	0.75925	0.83735	0.026
Mof_C 	C 	0.71871	0.67524	0.93933	0.359
Mof_C 	C 	0.67013	0.0404	0.06087	0.346
Mof_C 	C 	0.69125	0.0972	0.06695	-0.116
Mof_C 	C 	0.75142	0.13937	0.05201	0.014
Mof_C 	C 	0.77091	0.1939	0.05499	-0.095
Mof_C 	C 	0.72844	0.2052	0.07596	-0.013
Mof_C 	C 	0.66831	0.162	0.09269	-0.024
Mof_C 	C 	0.65002	0.1093	0.08728	-0.021
Mof_C 	C 	0.6234	0.1729	0.1111	0.043
Mof_C 	C 	0.66878	0.0199	0.94132	0.354
Mof_C 	C 	0.69338	0.0742	0.87762	-0.116
Mof_C 	C 	0.65937	0.099	0.85723	-0.017
Mof_C 	C 	0.6838	0.1542	0.8014	-0.066
Mof_C 	C 	0.74218	0.1846	0.76302	-0.009
Mof_C 	C 	0.75242	0.10629	0.83967	0.016
Mof_C 	C 	0.6526	0.1862	0.7822	0.059
Mof_C 	C 	0.6306	0.2172	0.7688	-0.197
Mof_C 	C 	0.60643	0.2565	0.75627	0.387
Mof_C 	C 	0.56318	0.245	0.80302	-0.529
Mof_C 	C 	0.54163	0.2845	0.79087	0.584
Mof_C 	C 	0.56044	0.3362	0.73276	-0.893
Mof_C 	C 	0.60339	0.3476	0.68701	0.593
Mof_C 	C 	0.6256	0.3083	0.6983	-0.538
Mof_C 	C 	0.5444	0.4354	0.638	-2.179
Mof_C 	C 	0.4524	0.343	0.771	-2.19
Mof_C 	C 	0.58044	0.4542	0.73456	-0.902
Mof_C 	C 	0.642	0.4924	0.7046	0.597
Mof_C 	C 	0.679	0.5381	0.7147	-0.554
Mof_C 	C 	0.5918	0.5063	0.7891	-0.555
Mof_C 	C 	0.5568	0.4606	0.7788	0.609
Mof_C 	C 	0.7186	0.6373	0.7761	0.073
Mof_C 	C 	0.6908	0.5967	0.7665	-0.183
Mof_C 	C 	0.65402	0.5469	0.75588	0.398
Mof_C 	C 	0.84091	0.199	0.74349	0.359
Mof_C 	C 	0.77577	0.1596	0.78203	-0.112
Mof_C 	C 	0.58431	0.1811	0.12219	-0.128
Mof_C 	C 	0.53893	0.194	0.13067	0.246
Mof_C 	C 	0.4497	0.2227	0.1416	-0.416
Mof_C 	C 	0.4565	0.1856	0.1949	0.194
Mof_C 	C 	0.5065	0.1779	0.1848	-0.267
Mof_C 	C 	0.5219	0.2165	0.088	-0.34
Mof_C 	C 	0.4744	0.2274	0.096	0.316
Mof_C 	C 	0.83617	0.2417	0.03313	0.35
Mof_C 	C 	0.25997	0.36994	0.58297	0.373
Mof_C 	C 	0.22076	0.39196	0.55868	-0.113
Mof_C 	C 	0.24184	0.4406	0.49756	0.008
Mof_C 	C 	0.20469	0.457	0.47591	-0.056
Mof_C 	C 	0.14579	0.4259	0.51411	0.001
Mof_C 	C 	0.12496	0.37865	0.57481	-0.108
Mof_C 	C 	0.16265	0.36189	0.5966	0.026
Mof_C 	C 	0.06067	0.34196	0.61457	0.359
Mof_C 	C 	0.93913	0.269	0.10127	0.345
Mof_C 	C 	0.93305	0.2418	0.16415	-0.116
Mof_C 	C 	0.94799	0.19657	0.19138	0.014
Mof_C 	C 	0.94501	0.1741	0.24889	-0.095
Mof_C 	C 	0.92404	0.1956	0.28116	-0.012
Mof_C 	C 	0.90731	0.239	0.25469	-0.024
Mof_C 	C 	0.91272	0.2627	0.19658	-0.021
Mof_C 	C 	0.8889	0.2655	0.284	0.043
Mof_C 	C 	0.05868	0.3899	0.96122	0.359
Mof_C 	C 	0.12238	0.429	0.95182	-0.115
Mof_C 	C 	0.14277	0.4834	0.95623	-0.017
Mof_C 	C 	0.1986	0.5148	0.9556	-0.064
Mof_C 	C 	0.23698	0.4948	0.94762	-0.01
Mof_C 	C 	0.16033	0.40791	0.94596	0.017
Mof_C 	C 	0.2178	0.5652	0.9684	0.058
Mof_C 	C 	0.2312	0.6006	0.986	-0.192
Mof_C 	C 	0.24373	0.6373	0.01277	0.384
Mof_C 	C 	0.19698	0.6338	0.04802	-0.528
Mof_C 	C 	0.20913	0.6675	0.07537	0.583
Mof_C 	C 	0.26724	0.7068	0.06896	-0.893
Mof_C 	C 	0.31299	0.7096	0.03461	0.596
Mof_C 	C 	0.3017	0.6761	0.0066	-0.545
Mof_C 	C 	0.362	0.8176	0.0734	-2.174
Mof_C 	C 	0.229	0.7766	0.114	-2.186
Mof_C 	C 	0.26544	0.685	0.18876	-0.9
Mof_C 	C 	0.2954	0.6534	0.197	0.596
Mof_C 	C 	0.2853	0.6063	0.2528	-0.553
Mof_C 	C 	0.2109	0.6191	0.2954	-0.554
Mof_C 	C 	0.2212	0.6644	0.2394	0.608
Mof_C 	C 	0.2239	0.5053	0.4134	0.073
Mof_C 	C 	0.2335	0.5427	0.3632	-0.183
Mof_C 	C 	0.24412	0.5901	0.30278	0.398
Mof_C 	C 	0.25651	0.4156	0.94249	0.359
Mof_C 	C 	0.21797	0.4422	0.94163	-0.111
Mof_C 	C 	0.87781	0.2935	0.30329	-0.129
Mof_C 	C 	0.86933	0.3304	0.32467	0.246
Mof_C 	C 	0.8584	0.4087	0.3643	-0.416
Mof_C 	C 	0.8051	0.3486	0.3805	0.194
Mof_C 	C 	0.8152	0.3087	0.3627	-0.267
Mof_C 	C 	0.912	0.3901	0.3045	-0.34
Mof_C 	C 	0.904	0.4296	0.3234	0.316
Mof_C 	C 	0.96687	0.1307	0.27483	0.35
Mof_C 	C 	0.04709	0.63006	0.10997	0.373
Mof_C 	C 	0.04936	0.60804	0.1712	-0.114
Mof_C 	C 	0.06184	0.5594	0.19876	0.008
Mof_C 	C 	0.06709	0.543	0.25231	-0.056
Mof_C 	C 	0.05999	0.5741	0.28011	0.002
Mof_C 	C 	0.04654	0.62135	0.25369	-0.108
Mof_C 	C 	0.04151	0.63811	0.19924	0.026
Mof_C 	C 	0.04347	0.65804	0.28129	0.359
Mof_C 	C 	0.62973	0.731	0.32987	0.346
Mof_C 	C 	0.59405	0.7582	0.30875	-0.118
Mof_C 	C 	0.61205	0.80343	0.24858	0.015
Mof_C 	C 	0.57701	0.8259	0.22909	-0.097
Mof_C 	C 	0.52324	0.8044	0.27156	-0.012
Mof_C 	C 	0.50631	0.761	0.33169	-0.025
Mof_C 	C 	0.54072	0.7373	0.34998	-0.02
Mof_C 	C 	0.4505	0.7345	0.3766	0.042
Mof_C 	C 	0.64888	0.6101	0.33122	0.36
Mof_C 	C 	0.61918	0.571	0.30662	-0.117
Mof_C 	C 	0.56037	0.5166	0.34063	-0.016
Mof_C 	C 	0.5296	0.4852	0.3162	-0.066
Mof_C 	C 	0.55758	0.5052	0.25782	-0.009
Mof_C 	C 	0.64613	0.59209	0.24758	0.017
Mof_C 	C 	0.4664	0.4348	0.3474	0.059
Mof_C 	C 	0.4134	0.3994	0.3694	-0.197
Mof_C 	C 	0.34993	0.3627	0.39357	0.387
Mof_C 	C 	0.31818	0.3662	0.43682	-0.529
Mof_C 	C 	0.25713	0.3325	0.45837	0.584
Mof_C 	C 	0.22424	0.2932	0.43956	-0.892
Mof_C 	C 	0.25579	0.2904	0.39661	0.593
Mof_C 	C 	0.3173	0.3239	0.3744	-0.538
Mof_C 	C 	0.109	0.1824	0.4556	-2.177
Mof_C 	C 	0.1094	0.2234	0.5476	-2.189
Mof_C 	C 	0.12624	0.315	0.41956	-0.901
Mof_C 	C 	0.1496	0.3466	0.358	0.596
Mof_C 	C 	0.1409	0.3937	0.321	-0.553
Mof_C 	C 	0.0855	0.3809	0.4082	-0.555
Mof_C 	C 	0.0962	0.3356	0.4432	0.609
Mof_C 	C 	0.0813	0.4947	0.2814	0.073
Mof_C 	C 	0.0941	0.4573	0.3092	-0.183
Mof_C 	C 	0.10712	0.4099	0.34598	0.398
Mof_C 	C 	0.64191	0.5844	0.15909	0.359
Mof_C 	C 	0.61617	0.5578	0.22423	-0.112
Mof_C 	C 	0.40321	0.7065	0.41569	-0.129
Mof_C 	C 	0.34493	0.6696	0.46107	0.246
Mof_C 	C 	0.227	0.5913	0.5503	-0.416
Mof_C 	C 	0.2709	0.6514	0.5435	0.194
Mof_C 	C 	0.3286	0.6913	0.4935	-0.267
Mof_C 	C 	0.3054	0.6099	0.4781	-0.34
Mof_C 	C 	0.247	0.5704	0.5256	0.315
Mof_C 	C 	0.59447	0.8693	0.16383	0.35
Mof_C 	C 	0.58297	0.84294	0.04709	0.373
Mof_C 	C 	0.55868	0.77944	0.04936	-0.114
Mof_C 	C 	0.49756	0.7394	0.06184	0.008
Mof_C 	C 	0.47591	0.6806	0.06709	-0.056
Mof_C 	C 	0.51411	0.6599	0.05999	0.001
Mof_C 	C 	0.57481	0.69977	0.04654	-0.108
Mof_C 	C 	0.5966	0.75925	0.04151	0.026
Mof_C 	C 	0.61457	0.67524	0.04347	0.359
Mof_C 	C 	0.10127	0.0404	0.62973	0.346
Mof_C 	C 	0.16415	0.0972	0.59405	-0.119
Mof_C 	C 	0.19138	0.13937	0.61205	0.015
Mof_C 	C 	0.24889	0.1939	0.57701	-0.097
Mof_C 	C 	0.28116	0.2052	0.52324	-0.012
Mof_C 	C 	0.25469	0.162	0.50631	-0.025
Mof_C 	C 	0.19658	0.1093	0.54072	-0.02
Mof_C 	C 	0.284	0.1729	0.4505	0.042
Mof_C 	C 	0.96122	0.0199	0.64888	0.362
Mof_C 	C 	0.95182	0.0742	0.61918	-0.117
Mof_C 	C 	0.95623	0.099	0.56037	-0.016
Mof_C 	C 	0.9556	0.1542	0.5296	-0.065
Mof_C 	C 	0.94762	0.1846	0.55758	-0.009
Mof_C 	C 	0.94596	0.10629	0.64613	0.017
Mof_C 	C 	0.9684	0.1862	0.4664	0.058
Mof_C 	C 	0.986	0.2172	0.4134	-0.194
Mof_C 	C 	0.01277	0.2565	0.34993	0.385
Mof_C 	C 	0.04802	0.245	0.31818	-0.528
Mof_C 	C 	0.07537	0.2845	0.25713	0.583
Mof_C 	C 	0.06896	0.3362	0.22424	-0.892
Mof_C 	C 	0.03461	0.3476	0.25579	0.595
Mof_C 	C 	0.0066	0.3083	0.3173	-0.543
Mof_C 	C 	0.0734	0.4354	0.109	-2.172
Mof_C 	C 	0.114	0.343	0.1094	-2.184
Mof_C 	C 	0.18876	0.4542	0.12624	-0.9
Mof_C 	C 	0.197	0.4924	0.1496	0.595
Mof_C 	C 	0.2528	0.5381	0.1409	-0.553
Mof_C 	C 	0.2954	0.5063	0.0855	-0.554
Mof_C 	C 	0.2394	0.4606	0.0962	0.608
Mof_C 	C 	0.4134	0.6373	0.0813	0.073
Mof_C 	C 	0.3632	0.5967	0.0941	-0.183
Mof_C 	C 	0.30278	0.5469	0.10712	0.397
Mof_C 	C 	0.94249	0.199	0.64191	0.359
Mof_C 	C 	0.94163	0.1596	0.61617	-0.112
Mof_C 	C 	0.30329	0.1811	0.40321	-0.129
Mof_C 	C 	0.32467	0.194	0.34493	0.246
Mof_C 	C 	0.3643	0.2227	0.227	-0.416
Mof_C 	C 	0.3805	0.1856	0.2709	0.194
Mof_C 	C 	0.3627	0.1779	0.3286	-0.267
Mof_C 	C 	0.3045	0.2165	0.3054	-0.34
Mof_C 	C 	0.3234	0.2274	0.247	0.315
Mof_C 	C 	0.27483	0.2417	0.59447	0.35
Mof_C 	C 	0.10997	0.15706	0.25997	0.373
Mof_C 	C 	0.1712	0.22056	0.22076	-0.114
Mof_C 	C 	0.19876	0.2606	0.24184	0.009
Mof_C 	C 	0.25231	0.3194	0.20469	-0.056
Mof_C 	C 	0.28011	0.3401	0.14579	0.002
Mof_C 	C 	0.25369	0.30023	0.12496	-0.108
Mof_C 	C 	0.19924	0.24075	0.16265	0.026
Mof_C 	C 	0.28129	0.32476	0.06067	0.359
Mof_C 	C 	0.32987	0.9596	0.93913	0.346
Mof_C 	C 	0.30875	0.9028	0.93305	-0.116
Mof_C 	C 	0.24858	0.86063	0.94799	0.014
Mof_C 	C 	0.22909	0.8061	0.94501	-0.095
Mof_C 	C 	0.27156	0.7948	0.92404	-0.013
Mof_C 	C 	0.33169	0.838	0.90731	-0.024
Mof_C 	C 	0.34998	0.8907	0.91272	-0.021
Mof_C 	C 	0.3766	0.8271	0.8889	0.043
Mof_C 	C 	0.33122	0.9801	0.05868	0.354
Mof_C 	C 	0.30662	0.9258	0.12238	-0.116
Mof_C 	C 	0.34063	0.901	0.14277	-0.017
Mof_C 	C 	0.3162	0.8458	0.1986	-0.066
Mof_C 	C 	0.25782	0.8154	0.23698	-0.009
Mof_C 	C 	0.24758	0.89371	0.16033	0.016
Mof_C 	C 	0.3474	0.8138	0.2178	0.059
Mof_C 	C 	0.3694	0.7828	0.2312	-0.197
Mof_C 	C 	0.39357	0.7435	0.24373	0.387
Mof_C 	C 	0.43682	0.755	0.19698	-0.529
Mof_C 	C 	0.45837	0.7155	0.20913	0.584
Mof_C 	C 	0.43956	0.6638	0.26724	-0.893
Mof_C 	C 	0.39661	0.6524	0.31299	0.593
Mof_C 	C 	0.3744	0.6917	0.3017	-0.538
Mof_C 	C 	0.4556	0.5646	0.362	-2.179
Mof_C 	C 	0.5476	0.657	0.229	-2.19
Mof_C 	C 	0.41956	0.5458	0.26544	-0.902
Mof_C 	C 	0.358	0.5076	0.2954	0.597
Mof_C 	C 	0.321	0.4619	0.2853	-0.554
Mof_C 	C 	0.4082	0.4937	0.2109	-0.555
Mof_C 	C 	0.4432	0.5394	0.2212	0.609
Mof_C 	C 	0.2814	0.3627	0.2239	0.073
Mof_C 	C 	0.3092	0.4033	0.2335	-0.183
Mof_C 	C 	0.34598	0.4531	0.24412	0.398
Mof_C 	C 	0.15909	0.801	0.25651	0.359
Mof_C 	C 	0.22423	0.8404	0.21797	-0.112
Mof_C 	C 	0.41569	0.8189	0.87781	-0.128
Mof_C 	C 	0.46107	0.806	0.86933	0.246
Mof_C 	C 	0.5503	0.7773	0.8584	-0.416
Mof_C 	C 	0.5435	0.8144	0.8051	0.194
Mof_C 	C 	0.4935	0.8221	0.8152	-0.267
Mof_C 	C 	0.4781	0.7835	0.912	-0.34
Mof_C 	C 	0.5256	0.7726	0.904	0.316
Mof_C 	C 	0.16383	0.7583	0.96687	0.35
Mof_C 	C 	0.74003	0.63006	0.41703	0.373
Mof_C 	C 	0.77924	0.60804	0.44132	-0.113
Mof_C 	C 	0.75816	0.5594	0.50244	0.008
Mof_C 	C 	0.79531	0.543	0.52409	-0.056
Mof_C 	C 	0.85421	0.5741	0.48589	0.001
Mof_C 	C 	0.87504	0.62135	0.42519	-0.108
Mof_C 	C 	0.83735	0.63811	0.4034	0.026
Mof_C 	C 	0.93933	0.65804	0.38543	0.359
Mof_C 	C 	0.06087	0.731	0.89873	0.345
Mof_C 	C 	0.06695	0.7582	0.83585	-0.116
Mof_C 	C 	0.05201	0.80343	0.80862	0.014
Mof_C 	C 	0.05499	0.8259	0.75111	-0.095
Mof_C 	C 	0.07596	0.8044	0.71884	-0.012
Mof_C 	C 	0.09269	0.761	0.74531	-0.024
Mof_C 	C 	0.08728	0.7373	0.80342	-0.021
Mof_C 	C 	0.1111	0.7345	0.716	0.043
Mof_C 	C 	0.94132	0.6101	0.03878	0.359
Mof_C 	C 	0.87762	0.571	0.04818	-0.115
Mof_C 	C 	0.85723	0.5166	0.04377	-0.017
Mof_C 	C 	0.8014	0.4852	0.0444	-0.064
Mof_C 	C 	0.76302	0.5052	0.05238	-0.01
Mof_C 	C 	0.83967	0.59209	0.05404	0.017
Mof_C 	C 	0.7822	0.4348	0.0316	0.058
Mof_C 	C 	0.7688	0.3994	0.014	-0.192
Mof_C 	C 	0.75627	0.3627	0.98723	0.384
Mof_C 	C 	0.80302	0.3662	0.95198	-0.528
Mof_C 	C 	0.79087	0.3325	0.92463	0.583
Mof_C 	C 	0.73276	0.2932	0.93104	-0.893
Mof_C 	C 	0.68701	0.2904	0.96539	0.596
Mof_C 	C 	0.6983	0.3239	0.9934	-0.545
Mof_C 	C 	0.638	0.1824	0.9266	-2.174
Mof_C 	C 	0.771	0.2234	0.886	-2.186
Mof_C 	C 	0.73456	0.315	0.81124	-0.9
Mof_C 	C 	0.7046	0.3466	0.803	0.596
Mof_C 	C 	0.7147	0.3937	0.7472	-0.553
Mof_C 	C 	0.7891	0.3809	0.7046	-0.554
Mof_C 	C 	0.7788	0.3356	0.7606	0.608
Mof_C 	C 	0.7761	0.4947	0.5866	0.073
Mof_C 	C 	0.7665	0.4573	0.6368	-0.183
Mof_C 	C 	0.75588	0.4099	0.69722	0.398
Mof_C 	C 	0.74349	0.5844	0.05751	0.359
Mof_C 	C 	0.78203	0.5578	0.05837	-0.111
Mof_C 	C 	0.12219	0.7065	0.69671	-0.129
Mof_C 	C 	0.13067	0.6696	0.67533	0.246
Mof_C 	C 	0.1416	0.5913	0.6357	-0.416
Mof_C 	C 	0.1949	0.6514	0.6195	0.194
Mof_C 	C 	0.1848	0.6913	0.6373	-0.267
Mof_C 	C 	0.088	0.6099	0.6955	-0.34
Mof_C 	C 	0.096	0.5704	0.6766	0.316
Mof_C 	C 	0.03313	0.8693	0.72517	0.35
Mof_C 	C 	0.95291	0.36994	0.89003	0.373
Mof_C 	C 	0.95064	0.39196	0.8288	-0.114
Mof_C 	C 	0.93816	0.4406	0.80124	0.008
Mof_C 	C 	0.93291	0.457	0.74769	-0.056
Mof_C 	C 	0.94001	0.4259	0.71989	0.002
Mof_C 	C 	0.95346	0.37865	0.74631	-0.108
Mof_C 	C 	0.95849	0.36189	0.80076	0.026
Mof_C 	C 	0.95653	0.34196	0.71871	0.359
Mof_C 	C 	0.37027	0.269	0.67013	0.346
Mof_C 	C 	0.40595	0.2418	0.69125	-0.118
Mof_C 	C 	0.38795	0.19657	0.75142	0.015
Mof_C 	C 	0.42299	0.1741	0.77091	-0.097
Mof_C 	C 	0.47676	0.1956	0.72844	-0.012
Mof_C 	C 	0.49369	0.239	0.66831	-0.025
Mof_C 	C 	0.45928	0.2627	0.65002	-0.02
Mof_C 	C 	0.5495	0.2655	0.6234	0.042
Mof_C 	C 	0.35112	0.3899	0.66878	0.36
Mof_C 	C 	0.38082	0.429	0.69338	-0.117
Mof_C 	C 	0.43963	0.4834	0.65937	-0.016
Mof_C 	C 	0.4704	0.5148	0.6838	-0.066
Mof_C 	C 	0.44242	0.4948	0.74218	-0.009
Mof_C 	C 	0.35387	0.40791	0.75242	0.017
Mof_C 	C 	0.5336	0.5652	0.6526	0.059
Mof_C 	C 	0.5866	0.6006	0.6306	-0.197
Mof_C 	C 	0.65007	0.6373	0.60643	0.387
Mof_C 	C 	0.68182	0.6338	0.56318	-0.529
Mof_C 	C 	0.74287	0.6675	0.54163	0.584
Mof_C 	C 	0.77576	0.7068	0.56044	-0.892
Mof_C 	C 	0.74421	0.7096	0.60339	0.593
Mof_C 	C 	0.6827	0.6761	0.6256	-0.538
Mof_C 	C 	0.891	0.8176	0.5444	-2.177
Mof_C 	C 	0.8906	0.7766	0.4524	-2.189
Mof_C 	C 	0.87376	0.685	0.58044	-0.901
Mof_C 	C 	0.8504	0.6534	0.642	0.596
Mof_C 	C 	0.8591	0.6063	0.679	-0.553
Mof_C 	C 	0.9145	0.6191	0.5918	-0.555
Mof_C 	C 	0.9038	0.6644	0.5568	0.609
Mof_C 	C 	0.9187	0.5053	0.7186	0.073
Mof_C 	C 	0.9059	0.5427	0.6908	-0.183
Mof_C 	C 	0.89288	0.5901	0.65402	0.398
Mof_C 	C 	0.35809	0.4156	0.84091	0.359
Mof_C 	C 	0.38383	0.4422	0.77577	-0.112
Mof_C 	C 	0.59679	0.2935	0.58431	-0.129
Mof_C 	C 	0.65507	0.3304	0.53893	0.246
Mof_C 	C 	0.773	0.4087	0.4497	-0.416
Mof_C 	C 	0.7291	0.3486	0.4565	0.194
Mof_C 	C 	0.6714	0.3087	0.5065	-0.267
Mof_C 	C 	0.6946	0.3901	0.5219	-0.34
Mof_C 	C 	0.753	0.4296	0.4744	0.315
Mof_C 	C 	0.40553	0.1307	0.83617	0.35
Mof_C 	C 	0.5763	0.6705	0.9058	-0.222
Mof_C 	C 	0.6718	0.8057	0.8661	-0.212
Mof_C 	C 	0.4237	0.3295	0.0942	-0.222
Mof_C 	C 	0.3282	0.1943	0.1339	-0.212
Mof_C 	C 	0.9058	0.4821	0.4237	-0.222
Mof_C 	C 	0.8661	0.5379	0.3282	-0.212
Mof_C 	C 	0.0942	0.5179	0.5763	-0.222
Mof_C 	C 	0.1339	0.4621	0.6718	-0.212
Mof_O 	O 	0.36259	0.12705	0.96294	-0.422
Mof_O 	O 	0.45289	0.14169	0.94276	-0.439
Mof_O 	O 	0.92288	0.98603	0.39615	-0.439
Mof_O 	O 	0.92399	0.97631	0.31742	-0.41
Mof_O 	O 	0.33191	0.28749	0.96574	-0.413
Mof_O 	O 	0.4081	0.37978	0.94998	-0.413
Mof_O 	O 	0.0647	0.75512	0.38678	-0.411
Mof_O 	O 	0.04959	0.8164	0.31037	-0.415
Mof_O 	O 	0.03479	0.00671	0.3782	-0.433
Mof_O 	O 	0.03305	0.99217	0.30234	-0.418
Mof_O 	O 	0.67539	0.70574	0.44105	-0.409
Mof_O 	O 	0.75673	0.77645	0.35402	-0.414
Mof_O 	O 	0.91001	0.87295	0.76446	-0.423
Mof_O 	O 	0.91555	0.85831	0.6888	-0.439
Mof_O 	O 	0.61782	0.01397	0.06315	-0.435
Mof_O 	O 	0.70627	0.02369	0.05232	-0.404
Mof_O 	O 	0.74677	0.71251	0.95558	-0.413
Mof_O 	O 	0.67024	0.62022	0.97168	-0.413
Mof_O 	O 	0.8581	0.24488	0.69042	-0.411
Mof_O 	O 	0.87323	0.1836	0.76681	-0.415
Mof_O 	O 	0.61509	0.99329	0.97192	-0.427
Mof_O 	O 	0.70549	0.00783	0.95912	-0.418
Mof_O 	O 	0.85321	0.29426	0.03035	-0.406
Mof_O 	O 	0.86953	0.22355	0.01972	-0.41
Mof_O 	O 	0.23554	0.32553	0.63741	-0.422
Mof_O 	O 	0.3112	0.39565	0.54711	-0.439
Mof_O 	O 	0.93685	0.31903	0.07712	-0.435
Mof_O 	O 	0.94768	0.24141	0.07601	-0.405
Mof_O 	O 	0.04442	0.29765	0.66809	-0.412
Mof_O 	O 	0.02832	0.35808	0.5919	-0.413
Mof_O 	O 	0.30958	0.45148	0.9353	-0.411
Mof_O 	O 	0.23319	0.35996	0.95041	-0.414
Mof_O 	O 	0.02808	0.41299	0.96521	-0.43
Mof_O 	O 	0.04088	0.33539	0.96695	-0.416
Mof_O 	O 	0.96965	0.11644	0.32461	-0.406
Mof_O 	O 	0.98028	0.11075	0.24327	-0.411
Mof_O 	O 	0.03706	0.67447	0.08999	-0.424
Mof_O 	O 	0.05724	0.60435	0.08445	-0.44
Mof_O 	O 	0.60385	0.68097	0.38218	-0.438
Mof_O 	O 	0.68258	0.75859	0.29373	-0.409
Mof_O 	O 	0.03426	0.70235	0.25323	-0.413
Mof_O 	O 	0.05002	0.64192	0.32976	-0.413
Mof_O 	O 	0.61322	0.54852	0.1419	-0.411
Mof_O 	O 	0.68963	0.64004	0.12677	-0.415
Mof_O 	O 	0.6218	0.58701	0.38491	-0.432
Mof_O 	O 	0.69766	0.66461	0.29451	-0.417
Mof_O 	O 	0.55895	0.88356	0.14679	-0.41
Mof_O 	O 	0.64598	0.88925	0.13047	-0.415
Mof_O 	O 	0.63741	0.87295	0.03706	-0.422
Mof_O 	O 	0.54711	0.85831	0.05724	-0.439
Mof_O 	O 	0.07712	0.01397	0.60385	-0.439
Mof_O 	O 	0.07601	0.02369	0.68258	-0.41
Mof_O 	O 	0.66809	0.71251	0.03426	-0.413
Mof_O 	O 	0.5919	0.62022	0.05002	-0.413
Mof_O 	O 	0.9353	0.24488	0.61322	-0.411
Mof_O 	O 	0.95041	0.1836	0.68963	-0.415
Mof_O 	O 	0.96521	0.99329	0.6218	-0.433
Mof_O 	O 	0.96695	0.00783	0.69766	-0.418
Mof_O 	O 	0.32461	0.29426	0.55895	-0.409
Mof_O 	O 	0.24327	0.22355	0.64598	-0.414
Mof_O 	O 	0.08999	0.12705	0.23554	-0.423
Mof_O 	O 	0.08445	0.14169	0.3112	-0.439
Mof_O 	O 	0.38218	0.98603	0.93685	-0.435
Mof_O 	O 	0.29373	0.97631	0.94768	-0.404
Mof_O 	O 	0.25323	0.28749	0.04442	-0.413
Mof_O 	O 	0.32976	0.37978	0.02832	-0.413
Mof_O 	O 	0.1419	0.75512	0.30958	-0.411
Mof_O 	O 	0.12677	0.8164	0.23319	-0.415
Mof_O 	O 	0.38491	0.00671	0.02808	-0.427
Mof_O 	O 	0.29451	0.99217	0.04088	-0.418
Mof_O 	O 	0.14679	0.70574	0.96965	-0.406
Mof_O 	O 	0.13047	0.77645	0.98028	-0.41
Mof_O 	O 	0.76446	0.67447	0.36259	-0.422
Mof_O 	O 	0.6888	0.60435	0.45289	-0.439
Mof_O 	O 	0.06315	0.68097	0.92288	-0.435
Mof_O 	O 	0.05232	0.75859	0.92399	-0.405
Mof_O 	O 	0.95558	0.70235	0.33191	-0.412
Mof_O 	O 	0.97168	0.64192	0.4081	-0.413
Mof_O 	O 	0.69042	0.54852	0.0647	-0.411
Mof_O 	O 	0.76681	0.64004	0.04959	-0.414
Mof_O 	O 	0.97192	0.58701	0.03479	-0.43
Mof_O 	O 	0.95912	0.66461	0.03305	-0.416
Mof_O 	O 	0.03035	0.88356	0.67539	-0.406
Mof_O 	O 	0.01972	0.88925	0.75673	-0.411
Mof_O 	O 	0.96294	0.32553	0.91001	-0.424
Mof_O 	O 	0.94276	0.39565	0.91555	-0.44
Mof_O 	O 	0.39615	0.31903	0.61782	-0.438
Mof_O 	O 	0.31742	0.24141	0.70627	-0.409
Mof_O 	O 	0.96574	0.29765	0.74677	-0.413
Mof_O 	O 	0.94998	0.35808	0.67024	-0.413
Mof_O 	O 	0.38678	0.45148	0.8581	-0.411
Mof_O 	O 	0.31037	0.35996	0.87323	-0.415
Mof_O 	O 	0.3782	0.41299	0.61509	-0.432
Mof_O 	O 	0.30234	0.33539	0.70549	-0.417
Mof_O 	O 	0.44105	0.11644	0.85321	-0.41
Mof_O 	O 	0.35402	0.11075	0.86953	-0.415
_end
