data_functionalizedCrystal
_audit_creation_method	'EQeq! by Chris Wilmer'
_symmetry_space_group_name_H-M	'P1'
_symmetry_Int_Tables_number	1
_symmetry_cell_setting	triclinic
loop_
_symmetry_equiv_pos_as_xyz
  x,y,z
_cell_length_a	26.7
_cell_length_b	26.7
_cell_length_c	26.72
_cell_angle_alpha	90
_cell_angle_beta	90
_cell_angle_gamma	90
loop_
_atom_site_label
_atom_site_type_symbol
_atom_site_fract_x
_atom_site_fract_y
_atom_site_fract_z
_atom_site_charge
Mof_N 	N 	0.7111	0.89267	0.19566	-0.216
Mof_O 	O 	0.9309	0.97499	0.24042	-0.379
Mof_O 	O 	0.92942	0.98141	0.15649	-0.365
Mof_O 	O 	0.56556	0.01475	0.05181	-0.458
Mof_O 	O 	0.5284	0.93887	0.05125	-0.428
Mof_O 	O 	0.0131	0.9863	0.0717	-0.061
Mof_C 	C 	0.90977	0.97141	0.19837	0.365
Mof_C 	C 	0.85694	0.953	0.19782	-0.152
Mof_C 	C 	0.83164	0.94726	0.15312	0.106
Mof_H 	H 	0.847	0.9561	0.1232	0.02
Mof_C 	C 	0.78288	0.92814	0.15283	-0.213
Mof_H 	H 	0.7659	0.9245	0.1227	0.112
Mof_C 	C 	0.7601	0.91485	0.19633	0.188
Mof_C 	C 	0.78491	0.92064	0.24112	-0.212
Mof_H 	H 	0.7693	0.9115	0.2709	0.111
Mof_C 	C 	0.83287	0.93994	0.242	0.111
Mof_H 	H 	0.8492	0.9442	0.2724	0.008
Mof_C 	C 	0.67397	0.91192	0.16429	0.231
Mof_C 	C 	0.6705	0.96264	0.15423	-0.297
Mof_H 	H 	0.6937	0.9843	0.1687	0.145
Mof_C 	C 	0.63431	0.98199	0.12387	0.243
Mof_H 	H 	0.6326	0.0164	0.1185	-0.063
Mof_C 	C 	0.59955	0.94987	0.10073	-0.233
Mof_C 	C 	0.6021	0.89942	0.1117	0.17
Mof_H 	H 	0.5783	0.8779	0.0981	-0.015
Mof_C 	C 	0.63901	0.87994	0.14225	-0.262
Mof_H 	H 	0.6406	0.8456	0.1481	0.124
Mof_C 	C 	0.56136	0.96972	0.06532	0.442
Mof_C 	C 	0.70315	0.84824	0.22343	0.24
Mof_C 	C 	0.74018	0.81095	0.22466	-0.292
Mof_H 	H 	0.7703	0.816	0.208	0.139
Mof_N 	N 	0.0068	0.0009	0.3282	0.273
Mof_C 	C 	0.9671	0.0029	0.3635	-0.01
Mof_H 	H 	0.9333	0.998	0.3565	-0.092
Mof_N 	N 	0.9879	0.0136	0.41113	0.024
Mof_C 	C 	0.0406	0.0182	0.4054	-0.105
Mof_H 	H 	0.0635	0.0252	0.4307	0.067
Mof_C 	C 	0.0523	0.0104	0.3541	0.166
Mof_H 	H 	0.0841	0.0113	0.34	-0.005
Mof_C 	C 	0.9608	0.012	0.4556	-0.063
Mof_C 	C 	0.9095	0.0185	0.4551	-0.036
Mof_H 	H 	0.8927	0.0249	0.4254	0.028
Mof_N 	N 	0.2889	0.10733	0.19566	-0.202
Mof_O 	O 	0.0691	0.02501	0.24042	-0.424
Mof_O 	O 	0.07058	0.01859	0.15649	-0.399
Mof_O 	O 	0.43444	0.98525	0.05181	-0.378
Mof_O 	O 	0.4716	0.06113	0.05125	-0.407
Mof_O 	O 	0.9869	0.0137	0.0717	-0.069
Mof_C 	C 	0.09023	0.02859	0.19837	0.369
Mof_C 	C 	0.14306	0.047	0.19782	-0.166
Mof_C 	C 	0.16836	0.05274	0.15312	0.107
Mof_H 	H 	0.153	0.0439	0.1232	0.01
Mof_C 	C 	0.21712	0.07186	0.15283	-0.218
Mof_H 	H 	0.2341	0.0755	0.1227	0.107
Mof_C 	C 	0.2399	0.08515	0.19633	0.184
Mof_C 	C 	0.21509	0.07936	0.24112	-0.218
Mof_H 	H 	0.2307	0.0885	0.2709	0.106
Mof_C 	C 	0.16713	0.06006	0.242	0.11
Mof_H 	H 	0.1508	0.0558	0.2724	-0.001
Mof_C 	C 	0.32603	0.08808	0.16429	0.147
Mof_C 	C 	0.3295	0.03736	0.15423	-0.144
Mof_H 	H 	0.3063	0.0157	0.1687	0.078
Mof_C 	C 	0.36569	0.01801	0.12387	-0.006
Mof_H 	H 	0.3674	0.9836	0.1185	0.069
Mof_C 	C 	0.40045	0.05013	0.10073	-0.105
Mof_C 	C 	0.3979	0.10058	0.1117	0.063
Mof_H 	H 	0.4217	0.1221	0.0981	0.019
Mof_C 	C 	0.36099	0.12006	0.14225	-0.174
Mof_H 	H 	0.3594	0.1544	0.1481	0.092
Mof_C 	C 	0.43864	0.03028	0.06532	0.315
Mof_C 	C 	0.29685	0.15176	0.22343	0.233
Mof_C 	C 	0.25982	0.18905	0.22466	-0.288
Mof_H 	H 	0.2297	0.184	0.208	0.133
Mof_N 	N 	0.9932	0.9991	0.3282	-0.347
Mof_C 	C 	0.0329	0.9971	0.3635	-0.148
Mof_H 	H 	0.0667	0.002	0.3565	-0.064
Mof_N 	N 	0.0121	0.9864	0.41113	-0.182
Mof_C 	C 	0.9594	0.9818	0.4054	0.317
Mof_H 	H 	0.9365	0.9748	0.4307	-0.051
Mof_C 	C 	0.9477	0.9896	0.3541	0.117
Mof_H 	H 	0.9159	0.9887	0.34	0.055
Mof_C 	C 	0.0392	0.988	0.4556	0.07
Mof_C 	C 	0.0905	0.9815	0.4551	-0.135
Mof_H 	H 	0.1073	0.9751	0.4254	0.082
Mof_N 	N 	0.10733	0.7111	0.19566	-0.202
Mof_O 	O 	0.02501	0.9309	0.24042	-0.406
Mof_O 	O 	0.01859	0.92942	0.15649	-0.385
Mof_O 	O 	0.98525	0.56556	0.05181	-0.379
Mof_O 	O 	0.06113	0.5284	0.05125	-0.407
Mof_O 	O 	0.0137	0.0131	0.0717	-0.137
Mof_C 	C 	0.02859	0.90977	0.19837	0.37
Mof_C 	C 	0.047	0.85694	0.19782	-0.162
Mof_C 	C 	0.05274	0.83164	0.15312	0.108
Mof_H 	H 	0.0439	0.847	0.1232	0.012
Mof_C 	C 	0.07186	0.78288	0.15283	-0.216
Mof_H 	H 	0.0755	0.7659	0.1227	0.108
Mof_C 	C 	0.08515	0.7601	0.19633	0.185
Mof_C 	C 	0.07936	0.78491	0.24112	-0.217
Mof_H 	H 	0.0885	0.7693	0.2709	0.107
Mof_C 	C 	0.06006	0.83287	0.242	0.112
Mof_H 	H 	0.0558	0.8492	0.2724	-0
Mof_C 	C 	0.08808	0.67397	0.16429	0.148
Mof_C 	C 	0.03736	0.6705	0.15423	-0.146
Mof_H 	H 	0.0157	0.6937	0.1687	0.078
Mof_C 	C 	0.01801	0.63431	0.12387	-0.004
Mof_H 	H 	0.9836	0.6326	0.1185	0.068
Mof_C 	C 	0.05013	0.59955	0.10073	-0.106
Mof_C 	C 	0.10058	0.6021	0.1117	0.064
Mof_H 	H 	0.1221	0.5783	0.0981	0.019
Mof_C 	C 	0.12006	0.63901	0.14225	-0.174
Mof_H 	H 	0.1544	0.6406	0.1481	0.093
Mof_C 	C 	0.03028	0.56136	0.06532	0.316
Mof_C 	C 	0.15176	0.70315	0.22343	0.234
Mof_C 	C 	0.18905	0.74018	0.22466	-0.288
Mof_H 	H 	0.184	0.7703	0.208	0.137
Mof_N 	N 	0.9991	0.0068	0.3282	-0.108
Mof_C 	C 	0.9971	0.9671	0.3635	-0.038
Mof_H 	H 	0.002	0.9333	0.3565	-0.214
Mof_N 	N 	0.9864	0.9879	0.41113	-0.243
Mof_C 	C 	0.9818	0.0406	0.4054	-0.057
Mof_H 	H 	0.9748	0.0635	0.4307	0.091
Mof_C 	C 	0.9896	0.0523	0.3541	0.057
Mof_H 	H 	0.9887	0.0841	0.34	0.005
Mof_C 	C 	0.988	0.9608	0.4556	0.059
Mof_C 	C 	0.9815	0.9095	0.4551	-0.092
Mof_H 	H 	0.9751	0.8927	0.4254	0.066
Mof_N 	N 	0.89267	0.2889	0.19566	-0.216
Mof_O 	O 	0.97499	0.0691	0.24042	-0.395
Mof_O 	O 	0.98141	0.07058	0.15649	-0.375
Mof_O 	O 	0.01475	0.43444	0.05181	-0.457
Mof_O 	O 	0.93887	0.4716	0.05125	-0.428
Mof_O 	O 	0.9863	0.9869	0.0717	0.035
Mof_C 	C 	0.97141	0.09023	0.19837	0.366
Mof_C 	C 	0.953	0.14306	0.19782	-0.154
Mof_C 	C 	0.94726	0.16836	0.15312	0.106
Mof_H 	H 	0.9561	0.153	0.1232	0.018
Mof_C 	C 	0.92814	0.21712	0.15283	-0.215
Mof_H 	H 	0.9245	0.2341	0.1227	0.111
Mof_C 	C 	0.91485	0.2399	0.19633	0.187
Mof_C 	C 	0.92064	0.21509	0.24112	-0.213
Mof_H 	H 	0.9115	0.2307	0.2709	0.11
Mof_C 	C 	0.93994	0.16713	0.242	0.109
Mof_H 	H 	0.9442	0.1508	0.2724	0.008
Mof_C 	C 	0.91192	0.32603	0.16429	0.232
Mof_C 	C 	0.96264	0.3295	0.15423	-0.298
Mof_H 	H 	0.9843	0.3063	0.1687	0.146
Mof_C 	C 	0.98199	0.36569	0.12387	0.245
Mof_H 	H 	0.0164	0.3674	0.1185	-0.064
Mof_C 	C 	0.94987	0.40045	0.10073	-0.234
Mof_C 	C 	0.89942	0.3979	0.1117	0.171
Mof_H 	H 	0.8779	0.4217	0.0981	-0.015
Mof_C 	C 	0.87994	0.36099	0.14225	-0.262
Mof_H 	H 	0.8456	0.3594	0.1481	0.123
Mof_C 	C 	0.96972	0.43864	0.06532	0.443
Mof_C 	C 	0.84824	0.29685	0.22343	0.239
Mof_C 	C 	0.81095	0.25982	0.22466	-0.293
Mof_H 	H 	0.816	0.2297	0.208	0.134
Mof_N 	N 	0.0009	0.9932	0.3282	0.027
Mof_C 	C 	0.0029	0.0329	0.3635	-0.066
Mof_H 	H 	0.998	0.0667	0.3565	0.029
Mof_N 	N 	0.0136	0.0121	0.41113	0.098
Mof_C 	C 	0.0182	0.9594	0.4054	0.278
Mof_H 	H 	0.0252	0.9365	0.4307	-0.075
Mof_C 	C 	0.0104	0.9477	0.3541	0.226
Mof_H 	H 	0.0113	0.9159	0.34	0.06
Mof_C 	C 	0.012	0.0392	0.4556	-0.077
Mof_C 	C 	0.0185	0.0905	0.4551	-0.059
Mof_H 	H 	0.0249	0.1073	0.4254	0.036
Mof_N 	N 	0.7889	0.39267	0.30434	-0.208
Mof_O 	O 	0.5691	0.47499	0.25958	-0.407
Mof_O 	O 	0.57058	0.48141	0.34351	-0.385
Mof_O 	O 	0.93444	0.51475	0.44819	-0.402
Mof_O 	O 	0.9716	0.43887	0.44875	-0.395
Mof_O 	O 	0.4869	0.4863	0.4283	-0.056
Mof_C 	C 	0.59023	0.47141	0.30163	0.37
Mof_C 	C 	0.64306	0.453	0.30218	-0.158
Mof_C 	C 	0.66836	0.44726	0.34688	0.108
Mof_H 	H 	0.653	0.4561	0.3768	0.018
Mof_C 	C 	0.71712	0.42814	0.34717	-0.215
Mof_H 	H 	0.7341	0.4245	0.3773	0.113
Mof_C 	C 	0.7399	0.41485	0.30367	0.187
Mof_C 	C 	0.71509	0.42064	0.25888	-0.215
Mof_H 	H 	0.7307	0.4115	0.2291	0.107
Mof_C 	C 	0.66713	0.43994	0.258	0.111
Mof_H 	H 	0.6508	0.4442	0.2276	0.003
Mof_C 	C 	0.82603	0.41192	0.33571	0.188
Mof_C 	C 	0.8295	0.46264	0.34577	-0.215
Mof_H 	H 	0.8063	0.4843	0.3313	0.112
Mof_C 	C 	0.86569	0.48199	0.37613	0.116
Mof_H 	H 	0.8674	0.5164	0.3815	0.009
Mof_C 	C 	0.90045	0.44987	0.39927	-0.159
Mof_C 	C 	0.8979	0.39942	0.3883	0.113
Mof_H 	H 	0.9217	0.3779	0.4019	0.011
Mof_C 	C 	0.86099	0.37994	0.35775	-0.211
Mof_H 	H 	0.8594	0.3456	0.3519	0.109
Mof_C 	C 	0.93864	0.46972	0.43468	0.377
Mof_C 	C 	0.79685	0.34824	0.27657	0.238
Mof_C 	C 	0.75982	0.31095	0.27534	-0.292
Mof_H 	H 	0.7297	0.316	0.292	0.137
Mof_N 	N 	0.4932	0.5009	0.1718	-0.039
Mof_C 	C 	0.5329	0.5029	0.1365	-0.068
Mof_H 	H 	0.5667	0.498	0.1435	-0.085
Mof_N 	N 	0.5121	0.5136	0.08887	-0.077
Mof_C 	C 	0.4594	0.5182	0.0946	0.113
Mof_H 	H 	0.4365	0.5252	0.0693	0.003
Mof_C 	C 	0.4477	0.5104	0.1459	0.142
Mof_H 	H 	0.4159	0.5113	0.16	0.027
Mof_C 	C 	0.5392	0.512	0.0444	-0.01
Mof_C 	C 	0.5905	0.5185	0.0449	-0.055
Mof_H 	H 	0.6073	0.5249	0.0746	0.042
Mof_N 	N 	0.2111	0.60733	0.30434	-0.209
Mof_O 	O 	0.4309	0.52501	0.25958	-0.407
Mof_O 	O 	0.42942	0.51859	0.34351	-0.385
Mof_O 	O 	0.06556	0.48525	0.44819	-0.419
Mof_O 	O 	0.0284	0.56113	0.44875	-0.424
Mof_O 	O 	0.5131	0.5137	0.4283	-0.056
Mof_C 	C 	0.40977	0.52859	0.30163	0.37
Mof_C 	C 	0.35694	0.547	0.30218	-0.158
Mof_C 	C 	0.33164	0.55274	0.34688	0.108
Mof_H 	H 	0.347	0.5439	0.3768	0.018
Mof_C 	C 	0.28288	0.57186	0.34717	-0.215
Mof_H 	H 	0.2659	0.5755	0.3773	0.113
Mof_C 	C 	0.2601	0.58515	0.30367	0.187
Mof_C 	C 	0.28491	0.57936	0.25888	-0.216
Mof_H 	H 	0.2693	0.5885	0.2291	0.107
Mof_C 	C 	0.33287	0.56006	0.258	0.111
Mof_H 	H 	0.3492	0.5558	0.2276	0.003
Mof_C 	C 	0.17397	0.58808	0.33571	0.19
Mof_C 	C 	0.1705	0.53736	0.34577	-0.222
Mof_H 	H 	0.1937	0.5157	0.3313	0.112
Mof_C 	C 	0.13431	0.51801	0.37613	0.12
Mof_H 	H 	0.1326	0.4836	0.3815	0.001
Mof_C 	C 	0.09955	0.55013	0.39927	-0.171
Mof_C 	C 	0.1021	0.60058	0.3883	0.119
Mof_H 	H 	0.0783	0.6221	0.4019	0.001
Mof_C 	C 	0.13901	0.62006	0.35775	-0.219
Mof_H 	H 	0.1406	0.6544	0.3519	0.109
Mof_C 	C 	0.06136	0.53028	0.43468	0.381
Mof_C 	C 	0.20315	0.65176	0.27657	0.235
Mof_C 	C 	0.24018	0.68905	0.27534	-0.288
Mof_H 	H 	0.2703	0.684	0.292	0.137
Mof_N 	N 	0.5068	0.4991	0.1718	-0.039
Mof_C 	C 	0.4671	0.4971	0.1365	-0.068
Mof_H 	H 	0.4333	0.502	0.1435	-0.085
Mof_N 	N 	0.4879	0.4864	0.08887	-0.077
Mof_C 	C 	0.5406	0.4818	0.0946	0.113
Mof_H 	H 	0.5635	0.4748	0.0693	0.003
Mof_C 	C 	0.5523	0.4896	0.1459	0.142
Mof_H 	H 	0.5841	0.4887	0.16	0.027
Mof_C 	C 	0.4608	0.488	0.0444	-0.01
Mof_C 	C 	0.4095	0.4815	0.0449	-0.055
Mof_H 	H 	0.3927	0.4751	0.0746	0.041
Mof_N 	N 	0.39267	0.2111	0.30434	-0.208
Mof_O 	O 	0.47499	0.4309	0.25958	-0.407
Mof_O 	O 	0.48141	0.42942	0.34351	-0.385
Mof_O 	O 	0.51475	0.06556	0.44819	-0.419
Mof_O 	O 	0.43887	0.0284	0.44875	-0.424
Mof_O 	O 	0.4863	0.5131	0.4283	-0.056
Mof_C 	C 	0.47141	0.40977	0.30163	0.37
Mof_C 	C 	0.453	0.35694	0.30218	-0.158
Mof_C 	C 	0.44726	0.33164	0.34688	0.108
Mof_H 	H 	0.4561	0.347	0.3768	0.018
Mof_C 	C 	0.42814	0.28288	0.34717	-0.215
Mof_H 	H 	0.4245	0.2659	0.3773	0.113
Mof_C 	C 	0.41485	0.2601	0.30367	0.186
Mof_C 	C 	0.42064	0.28491	0.25888	-0.216
Mof_H 	H 	0.4115	0.2693	0.2291	0.107
Mof_C 	C 	0.43994	0.33287	0.258	0.111
Mof_H 	H 	0.4442	0.3492	0.2276	0.003
Mof_C 	C 	0.41192	0.17397	0.33571	0.19
Mof_C 	C 	0.46264	0.1705	0.34577	-0.222
Mof_H 	H 	0.4843	0.1937	0.3313	0.112
Mof_C 	C 	0.48199	0.13431	0.37613	0.12
Mof_H 	H 	0.5164	0.1326	0.3815	0.002
Mof_C 	C 	0.44987	0.09955	0.39927	-0.171
Mof_C 	C 	0.39942	0.1021	0.3883	0.118
Mof_H 	H 	0.3779	0.0783	0.4019	0.001
Mof_C 	C 	0.37994	0.13901	0.35775	-0.218
Mof_H 	H 	0.3456	0.1406	0.3519	0.108
Mof_C 	C 	0.46972	0.06136	0.43468	0.381
Mof_C 	C 	0.34824	0.20315	0.27657	0.234
Mof_C 	C 	0.31095	0.24018	0.27534	-0.289
Mof_H 	H 	0.316	0.2703	0.292	0.135
Mof_N 	N 	0.5009	0.5068	0.1718	-0.039
Mof_C 	C 	0.5029	0.4671	0.1365	-0.068
Mof_H 	H 	0.498	0.4333	0.1435	-0.085
Mof_N 	N 	0.5136	0.4879	0.08887	-0.077
Mof_C 	C 	0.5182	0.5406	0.0946	0.113
Mof_H 	H 	0.5252	0.5635	0.0693	0.003
Mof_C 	C 	0.5104	0.5523	0.1459	0.142
Mof_H 	H 	0.5113	0.5841	0.16	0.028
Mof_C 	C 	0.512	0.4608	0.0444	-0.01
Mof_C 	C 	0.5185	0.4095	0.0449	-0.055
Mof_H 	H 	0.5249	0.3927	0.0746	0.041
Mof_N 	N 	0.60733	0.7889	0.30434	-0.208
Mof_O 	O 	0.52501	0.5691	0.25958	-0.407
Mof_O 	O 	0.51859	0.57058	0.34351	-0.385
Mof_O 	O 	0.48525	0.93444	0.44819	-0.402
Mof_O 	O 	0.56113	0.9716	0.44875	-0.395
Mof_O 	O 	0.5137	0.4869	0.4283	-0.056
Mof_C 	C 	0.52859	0.59023	0.30163	0.37
Mof_C 	C 	0.547	0.64306	0.30218	-0.158
Mof_C 	C 	0.55274	0.66836	0.34688	0.109
Mof_H 	H 	0.5439	0.653	0.3768	0.018
Mof_C 	C 	0.57186	0.71712	0.34717	-0.215
Mof_H 	H 	0.5755	0.7341	0.3773	0.114
Mof_C 	C 	0.58515	0.7399	0.30367	0.187
Mof_C 	C 	0.57936	0.71509	0.25888	-0.215
Mof_H 	H 	0.5885	0.7307	0.2291	0.108
Mof_C 	C 	0.56006	0.66713	0.258	0.112
Mof_H 	H 	0.5558	0.6508	0.2276	0.003
Mof_C 	C 	0.58808	0.82603	0.33571	0.188
Mof_C 	C 	0.53736	0.8295	0.34577	-0.215
Mof_H 	H 	0.5157	0.8063	0.3313	0.112
Mof_C 	C 	0.51801	0.86569	0.37613	0.116
Mof_H 	H 	0.4836	0.8674	0.3815	0.009
Mof_C 	C 	0.55013	0.90045	0.39927	-0.159
Mof_C 	C 	0.60058	0.8979	0.3883	0.114
Mof_H 	H 	0.6221	0.9217	0.4019	0.011
Mof_C 	C 	0.62006	0.86099	0.35775	-0.212
Mof_H 	H 	0.6544	0.8594	0.3519	0.11
Mof_C 	C 	0.53028	0.93864	0.43468	0.377
Mof_C 	C 	0.65176	0.79685	0.27657	0.239
Mof_C 	C 	0.68905	0.75982	0.27534	-0.291
Mof_H 	H 	0.684	0.7297	0.292	0.138
Mof_N 	N 	0.4991	0.4932	0.1718	-0.039
Mof_C 	C 	0.4971	0.5329	0.1365	-0.068
Mof_H 	H 	0.502	0.5667	0.1435	-0.085
Mof_N 	N 	0.4864	0.5121	0.08887	-0.077
Mof_C 	C 	0.4818	0.4594	0.0946	0.113
Mof_H 	H 	0.4748	0.4365	0.0693	0.003
Mof_C 	C 	0.4896	0.4477	0.1459	0.142
Mof_H 	H 	0.4887	0.4159	0.16	0.027
Mof_C 	C 	0.488	0.5392	0.0444	-0.01
Mof_C 	C 	0.4815	0.5905	0.0449	-0.055
Mof_H 	H 	0.4751	0.6073	0.0746	0.042
Mof_N 	N 	0.2889	0.10733	0.80434	-0.201
Mof_O 	O 	0.0691	0.02501	0.75958	-0.424
Mof_O 	O 	0.07058	0.01859	0.84351	-0.395
Mof_O 	O 	0.43444	0.98525	0.94819	-0.356
Mof_O 	O 	0.4716	0.06113	0.94875	-0.385
Mof_O 	O 	0.9869	0.0137	0.9283	-0.063
Mof_C 	C 	0.09023	0.02859	0.80163	0.369
Mof_C 	C 	0.14306	0.047	0.80218	-0.163
Mof_C 	C 	0.16836	0.05274	0.84688	0.108
Mof_H 	H 	0.153	0.0439	0.8768	0.017
Mof_C 	C 	0.21712	0.07186	0.84717	-0.216
Mof_H 	H 	0.2341	0.0755	0.8773	0.114
Mof_C 	C 	0.2399	0.08515	0.80367	0.186
Mof_C 	C 	0.21509	0.07936	0.75888	-0.218
Mof_H 	H 	0.2307	0.0885	0.7291	0.106
Mof_C 	C 	0.16713	0.06006	0.758	0.111
Mof_H 	H 	0.1508	0.0558	0.7276	-0.001
Mof_C 	C 	0.32603	0.08808	0.83571	0.146
Mof_C 	C 	0.3295	0.03736	0.84577	-0.138
Mof_H 	H 	0.3063	0.0157	0.8313	0.078
Mof_C 	C 	0.36569	0.01801	0.87613	-0.009
Mof_H 	H 	0.3674	0.9836	0.8815	0.076
Mof_C 	C 	0.40045	0.05013	0.89927	-0.094
Mof_C 	C 	0.3979	0.10058	0.8883	0.06
Mof_H 	H 	0.4217	0.1221	0.9019	0.028
Mof_C 	C 	0.36099	0.12006	0.85775	-0.167
Mof_H 	H 	0.3594	0.1544	0.8519	0.095
Mof_C 	C 	0.43864	0.03028	0.93468	0.312
Mof_C 	C 	0.29685	0.15176	0.77657	0.234
Mof_C 	C 	0.25982	0.18905	0.77534	-0.288
Mof_H 	H 	0.2297	0.184	0.792	0.136
Mof_N 	N 	0.9932	0.9991	0.6718	-0.347
Mof_C 	C 	0.0329	0.9971	0.6365	-0.148
Mof_H 	H 	0.0667	0.002	0.6435	-0.064
Mof_N 	N 	0.0121	0.9864	0.58887	-0.182
Mof_C 	C 	0.9594	0.9818	0.5946	0.317
Mof_H 	H 	0.9365	0.9748	0.5693	-0.051
Mof_C 	C 	0.9477	0.9896	0.6459	0.117
Mof_H 	H 	0.9159	0.9887	0.66	0.055
Mof_C 	C 	0.0392	0.988	0.5444	0.07
Mof_C 	C 	0.0905	0.9815	0.5449	-0.135
Mof_H 	H 	0.1073	0.9751	0.5746	0.082
Mof_N 	N 	0.7111	0.89267	0.80434	-0.215
Mof_O 	O 	0.9309	0.97499	0.75958	-0.378
Mof_O 	O 	0.92942	0.98141	0.84351	-0.359
Mof_O 	O 	0.56556	0.01475	0.94819	-0.435
Mof_O 	O 	0.5284	0.93887	0.94875	-0.405
Mof_O 	O 	0.0131	0.9863	0.9283	-0.054
Mof_C 	C 	0.90977	0.97141	0.80163	0.366
Mof_C 	C 	0.85694	0.953	0.80218	-0.148
Mof_C 	C 	0.83164	0.94726	0.84688	0.109
Mof_H 	H 	0.847	0.9561	0.8768	0.027
Mof_C 	C 	0.78288	0.92814	0.84717	-0.212
Mof_H 	H 	0.7659	0.9245	0.8773	0.119
Mof_C 	C 	0.7601	0.91485	0.80367	0.189
Mof_C 	C 	0.78491	0.92064	0.75888	-0.212
Mof_H 	H 	0.7693	0.9115	0.7291	0.111
Mof_C 	C 	0.83287	0.93994	0.758	0.111
Mof_H 	H 	0.8492	0.9442	0.7276	0.009
Mof_C 	C 	0.67397	0.91192	0.83571	0.231
Mof_C 	C 	0.6705	0.96264	0.84577	-0.291
Mof_H 	H 	0.6937	0.9843	0.8313	0.146
Mof_C 	C 	0.63431	0.98199	0.87613	0.24
Mof_H 	H 	0.6326	0.0164	0.8815	-0.056
Mof_C 	C 	0.59955	0.94987	0.89927	-0.222
Mof_C 	C 	0.6021	0.89942	0.8883	0.167
Mof_H 	H 	0.5783	0.8779	0.9019	-0.006
Mof_C 	C 	0.63901	0.87994	0.85775	-0.255
Mof_H 	H 	0.6406	0.8456	0.8519	0.126
Mof_C 	C 	0.56136	0.96972	0.93468	0.44
Mof_C 	C 	0.70315	0.84824	0.77657	0.241
Mof_C 	C 	0.74018	0.81095	0.77534	-0.292
Mof_H 	H 	0.7703	0.816	0.792	0.142
Mof_N 	N 	0.0068	0.0009	0.6718	0.273
Mof_C 	C 	0.9671	0.0029	0.6365	-0.01
Mof_H 	H 	0.9333	0.998	0.6435	-0.092
Mof_N 	N 	0.9879	0.0136	0.58887	0.024
Mof_C 	C 	0.0406	0.0182	0.5946	-0.105
Mof_H 	H 	0.0635	0.0252	0.5693	0.067
Mof_C 	C 	0.0523	0.0104	0.6459	0.166
Mof_H 	H 	0.0841	0.0113	0.66	-0.005
Mof_C 	C 	0.9608	0.012	0.5444	-0.063
Mof_C 	C 	0.9095	0.0185	0.5449	-0.036
Mof_H 	H 	0.8927	0.0249	0.5746	0.028
Mof_N 	N 	0.89267	0.2889	0.80434	-0.215
Mof_O 	O 	0.97499	0.0691	0.75958	-0.395
Mof_O 	O 	0.98141	0.07058	0.84351	-0.371
Mof_O 	O 	0.01475	0.43444	0.94819	-0.435
Mof_O 	O 	0.93887	0.4716	0.94875	-0.406
Mof_O 	O 	0.9863	0.9869	0.9283	0.041
Mof_C 	C 	0.97141	0.09023	0.80163	0.365
Mof_C 	C 	0.953	0.14306	0.80218	-0.151
Mof_C 	C 	0.94726	0.16836	0.84688	0.108
Mof_H 	H 	0.9561	0.153	0.8768	0.025
Mof_C 	C 	0.92814	0.21712	0.84717	-0.213
Mof_H 	H 	0.9245	0.2341	0.8773	0.118
Mof_C 	C 	0.91485	0.2399	0.80367	0.189
Mof_C 	C 	0.92064	0.21509	0.75888	-0.213
Mof_H 	H 	0.9115	0.2307	0.7291	0.11
Mof_C 	C 	0.93994	0.16713	0.758	0.109
Mof_H 	H 	0.9442	0.1508	0.7276	0.008
Mof_C 	C 	0.91192	0.32603	0.83571	0.231
Mof_C 	C 	0.96264	0.3295	0.84577	-0.292
Mof_H 	H 	0.9843	0.3063	0.8313	0.147
Mof_C 	C 	0.98199	0.36569	0.87613	0.242
Mof_H 	H 	0.0164	0.3674	0.8815	-0.058
Mof_C 	C 	0.94987	0.40045	0.89927	-0.223
Mof_C 	C 	0.89942	0.3979	0.8883	0.168
Mof_H 	H 	0.8779	0.4217	0.9019	-0.006
Mof_C 	C 	0.87994	0.36099	0.85775	-0.255
Mof_H 	H 	0.8456	0.3594	0.8519	0.126
Mof_C 	C 	0.96972	0.43864	0.93468	0.44
Mof_C 	C 	0.84824	0.29685	0.77657	0.24
Mof_C 	C 	0.81095	0.25982	0.77534	-0.292
Mof_H 	H 	0.816	0.2297	0.792	0.138
Mof_N 	N 	0.0009	0.9932	0.6718	0.027
Mof_C 	C 	0.0029	0.0329	0.6365	-0.066
Mof_H 	H 	0.998	0.0667	0.6435	0.029
Mof_N 	N 	0.0136	0.0121	0.58887	0.098
Mof_C 	C 	0.0182	0.9594	0.5946	0.278
Mof_H 	H 	0.0252	0.9365	0.5693	-0.075
Mof_C 	C 	0.0104	0.9477	0.6459	0.226
Mof_H 	H 	0.0113	0.9159	0.66	0.06
Mof_C 	C 	0.012	0.0392	0.5444	-0.077
Mof_C 	C 	0.0185	0.0905	0.5449	-0.06
Mof_H 	H 	0.0249	0.1073	0.5746	0.036
Mof_N 	N 	0.10733	0.7111	0.80434	-0.201
Mof_O 	O 	0.02501	0.9309	0.75958	-0.405
Mof_O 	O 	0.01859	0.92942	0.84351	-0.381
Mof_O 	O 	0.98525	0.56556	0.94819	-0.357
Mof_O 	O 	0.06113	0.5284	0.94875	-0.385
Mof_O 	O 	0.0137	0.0131	0.9283	-0.131
Mof_C 	C 	0.02859	0.90977	0.80163	0.37
Mof_C 	C 	0.047	0.85694	0.80218	-0.159
Mof_C 	C 	0.05274	0.83164	0.84688	0.109
Mof_H 	H 	0.0439	0.847	0.8768	0.019
Mof_C 	C 	0.07186	0.78288	0.84717	-0.214
Mof_H 	H 	0.0755	0.7659	0.8773	0.116
Mof_C 	C 	0.08515	0.7601	0.80367	0.186
Mof_C 	C 	0.07936	0.78491	0.75888	-0.217
Mof_H 	H 	0.0885	0.7693	0.7291	0.107
Mof_C 	C 	0.06006	0.83287	0.758	0.112
Mof_H 	H 	0.0558	0.8492	0.7276	0
Mof_C 	C 	0.08808	0.67397	0.83571	0.147
Mof_C 	C 	0.03736	0.6705	0.84577	-0.14
Mof_H 	H 	0.0157	0.6937	0.8313	0.079
Mof_C 	C 	0.01801	0.63431	0.87613	-0.007
Mof_H 	H 	0.9836	0.6326	0.8815	0.075
Mof_C 	C 	0.05013	0.59955	0.89927	-0.095
Mof_C 	C 	0.10058	0.6021	0.8883	0.062
Mof_H 	H 	0.1221	0.5783	0.9019	0.028
Mof_C 	C 	0.12006	0.63901	0.85775	-0.168
Mof_H 	H 	0.1544	0.6406	0.8519	0.096
Mof_C 	C 	0.03028	0.56136	0.93468	0.313
Mof_C 	C 	0.15176	0.70315	0.77657	0.236
Mof_C 	C 	0.18905	0.74018	0.77534	-0.288
Mof_H 	H 	0.184	0.7703	0.792	0.14
Mof_N 	N 	0.9991	0.0068	0.6718	-0.108
Mof_C 	C 	0.9971	0.9671	0.6365	-0.037
Mof_H 	H 	0.002	0.9333	0.6435	-0.214
Mof_N 	N 	0.9864	0.9879	0.58887	-0.243
Mof_C 	C 	0.9818	0.0406	0.5946	-0.057
Mof_H 	H 	0.9748	0.0635	0.5693	0.091
Mof_C 	C 	0.9896	0.0523	0.6459	0.057
Mof_H 	H 	0.9887	0.0841	0.66	0.006
Mof_C 	C 	0.988	0.9608	0.5444	0.059
Mof_C 	C 	0.9815	0.9095	0.5449	-0.092
Mof_H 	H 	0.9751	0.8927	0.5746	0.066
Mof_N 	N 	0.2111	0.60733	0.69566	-0.209
Mof_O 	O 	0.4309	0.52501	0.74042	-0.406
Mof_O 	O 	0.42942	0.51859	0.65649	-0.385
Mof_O 	O 	0.06556	0.48525	0.55181	-0.419
Mof_O 	O 	0.0284	0.56113	0.55125	-0.424
Mof_O 	O 	0.5131	0.5137	0.5717	-0.056
Mof_C 	C 	0.40977	0.52859	0.69837	0.37
Mof_C 	C 	0.35694	0.547	0.69782	-0.158
Mof_C 	C 	0.33164	0.55274	0.65312	0.109
Mof_H 	H 	0.347	0.5439	0.6232	0.018
Mof_C 	C 	0.28288	0.57186	0.65283	-0.215
Mof_H 	H 	0.2659	0.5755	0.6227	0.113
Mof_C 	C 	0.2601	0.58515	0.69633	0.187
Mof_C 	C 	0.28491	0.57936	0.74112	-0.216
Mof_H 	H 	0.2693	0.5885	0.7709	0.11
Mof_C 	C 	0.33287	0.56006	0.742	0.112
Mof_H 	H 	0.3492	0.5558	0.7724	0.005
Mof_C 	C 	0.17397	0.58808	0.66429	0.191
Mof_C 	C 	0.1705	0.53736	0.65423	-0.222
Mof_H 	H 	0.1937	0.5157	0.6687	0.112
Mof_C 	C 	0.13431	0.51801	0.62387	0.121
Mof_H 	H 	0.1326	0.4836	0.6185	0.002
Mof_C 	C 	0.09955	0.55013	0.60073	-0.171
Mof_C 	C 	0.1021	0.60058	0.6117	0.119
Mof_H 	H 	0.0783	0.6221	0.5981	0.002
Mof_C 	C 	0.13901	0.62006	0.64225	-0.219
Mof_H 	H 	0.1406	0.6544	0.6481	0.109
Mof_C 	C 	0.06136	0.53028	0.56532	0.381
Mof_C 	C 	0.20315	0.65176	0.72343	0.236
Mof_C 	C 	0.24018	0.68905	0.72466	-0.288
Mof_H 	H 	0.2703	0.684	0.708	0.138
Mof_N 	N 	0.5068	0.4991	0.8282	-0.039
Mof_C 	C 	0.4671	0.4971	0.8635	-0.065
Mof_H 	H 	0.4333	0.502	0.8565	-0.086
Mof_N 	N 	0.4879	0.4864	0.91113	-0.077
Mof_C 	C 	0.5406	0.4818	0.9054	0.11
Mof_H 	H 	0.5635	0.4748	0.9307	0.005
Mof_C 	C 	0.5523	0.4896	0.8541	0.142
Mof_H 	H 	0.5841	0.4887	0.84	0.031
Mof_C 	C 	0.4608	0.488	0.9556	0.001
Mof_C 	C 	0.4095	0.4815	0.9551	-0.018
Mof_H 	H 	0.3927	0.4751	0.9254	0.037
Mof_N 	N 	0.7889	0.39267	0.69566	-0.208
Mof_O 	O 	0.5691	0.47499	0.74042	-0.406
Mof_O 	O 	0.57058	0.48141	0.65649	-0.385
Mof_O 	O 	0.93444	0.51475	0.55181	-0.402
Mof_O 	O 	0.9716	0.43887	0.55125	-0.395
Mof_O 	O 	0.4869	0.4863	0.5717	-0.056
Mof_C 	C 	0.59023	0.47141	0.69837	0.37
Mof_C 	C 	0.64306	0.453	0.69782	-0.158
Mof_C 	C 	0.66836	0.44726	0.65312	0.109
Mof_H 	H 	0.653	0.4561	0.6232	0.018
Mof_C 	C 	0.71712	0.42814	0.65283	-0.215
Mof_H 	H 	0.7341	0.4245	0.6227	0.113
Mof_C 	C 	0.7399	0.41485	0.69633	0.188
Mof_C 	C 	0.71509	0.42064	0.74112	-0.215
Mof_H 	H 	0.7307	0.4115	0.7709	0.11
Mof_C 	C 	0.66713	0.43994	0.742	0.112
Mof_H 	H 	0.6508	0.4442	0.7724	0.005
Mof_C 	C 	0.82603	0.41192	0.66429	0.188
Mof_C 	C 	0.8295	0.46264	0.65423	-0.215
Mof_H 	H 	0.8063	0.4843	0.6687	0.113
Mof_C 	C 	0.86569	0.48199	0.62387	0.116
Mof_H 	H 	0.8674	0.5164	0.6185	0.009
Mof_C 	C 	0.90045	0.44987	0.60073	-0.159
Mof_C 	C 	0.8979	0.39942	0.6117	0.114
Mof_H 	H 	0.9217	0.3779	0.5981	0.011
Mof_C 	C 	0.86099	0.37994	0.64225	-0.212
Mof_H 	H 	0.8594	0.3456	0.6481	0.109
Mof_C 	C 	0.93864	0.46972	0.56532	0.377
Mof_C 	C 	0.79685	0.34824	0.72343	0.239
Mof_C 	C 	0.75982	0.31095	0.72466	-0.292
Mof_H 	H 	0.7297	0.316	0.708	0.138
Mof_N 	N 	0.4932	0.5009	0.8282	-0.039
Mof_C 	C 	0.5329	0.5029	0.8635	-0.065
Mof_H 	H 	0.5667	0.498	0.8565	-0.086
Mof_N 	N 	0.5121	0.5136	0.91113	-0.077
Mof_C 	C 	0.4594	0.5182	0.9054	0.11
Mof_H 	H 	0.4365	0.5252	0.9307	0.005
Mof_C 	C 	0.4477	0.5104	0.8541	0.142
Mof_H 	H 	0.4159	0.5113	0.84	0.03
Mof_C 	C 	0.5392	0.512	0.9556	0.001
Mof_C 	C 	0.5905	0.5185	0.9551	-0.018
Mof_H 	H 	0.6073	0.5249	0.9254	0.037
Mof_N 	N 	0.60733	0.7889	0.69566	-0.208
Mof_O 	O 	0.52501	0.5691	0.74042	-0.406
Mof_O 	O 	0.51859	0.57058	0.65649	-0.385
Mof_O 	O 	0.48525	0.93444	0.55181	-0.402
Mof_O 	O 	0.56113	0.9716	0.55125	-0.395
Mof_O 	O 	0.5137	0.4869	0.5717	-0.056
Mof_C 	C 	0.52859	0.59023	0.69837	0.37
Mof_C 	C 	0.547	0.64306	0.69782	-0.157
Mof_C 	C 	0.55274	0.66836	0.65312	0.109
Mof_H 	H 	0.5439	0.653	0.6232	0.018
Mof_C 	C 	0.57186	0.71712	0.65283	-0.215
Mof_H 	H 	0.5755	0.7341	0.6227	0.114
Mof_C 	C 	0.58515	0.7399	0.69633	0.188
Mof_C 	C 	0.57936	0.71509	0.74112	-0.215
Mof_H 	H 	0.5885	0.7307	0.7709	0.111
Mof_C 	C 	0.56006	0.66713	0.742	0.113
Mof_H 	H 	0.5558	0.6508	0.7724	0.005
Mof_C 	C 	0.58808	0.82603	0.66429	0.189
Mof_C 	C 	0.53736	0.8295	0.65423	-0.216
Mof_H 	H 	0.5157	0.8063	0.6687	0.113
Mof_C 	C 	0.51801	0.86569	0.62387	0.117
Mof_H 	H 	0.4836	0.8674	0.6185	0.009
Mof_C 	C 	0.55013	0.90045	0.60073	-0.159
Mof_C 	C 	0.60058	0.8979	0.6117	0.114
Mof_H 	H 	0.6221	0.9217	0.5981	0.011
Mof_C 	C 	0.62006	0.86099	0.64225	-0.212
Mof_H 	H 	0.6544	0.8594	0.6481	0.11
Mof_C 	C 	0.53028	0.93864	0.56532	0.377
Mof_C 	C 	0.65176	0.79685	0.72343	0.24
Mof_C 	C 	0.68905	0.75982	0.72466	-0.291
Mof_H 	H 	0.684	0.7297	0.708	0.139
Mof_N 	N 	0.4991	0.4932	0.8282	-0.04
Mof_C 	C 	0.4971	0.5329	0.8635	-0.065
Mof_H 	H 	0.502	0.5667	0.8565	-0.086
Mof_N 	N 	0.4864	0.5121	0.91113	-0.077
Mof_C 	C 	0.4818	0.4594	0.9054	0.11
Mof_H 	H 	0.4748	0.4365	0.9307	0.005
Mof_C 	C 	0.4896	0.4477	0.8541	0.142
Mof_H 	H 	0.4887	0.4159	0.84	0.03
Mof_C 	C 	0.488	0.5392	0.9556	0.001
Mof_C 	C 	0.4815	0.5905	0.9551	-0.018
Mof_H 	H 	0.4751	0.6073	0.9254	0.038
Mof_N 	N 	0.39267	0.2111	0.69566	-0.209
Mof_O 	O 	0.47499	0.4309	0.74042	-0.407
Mof_O 	O 	0.48141	0.42942	0.65649	-0.385
Mof_O 	O 	0.51475	0.06556	0.55181	-0.419
Mof_O 	O 	0.43887	0.0284	0.55125	-0.424
Mof_O 	O 	0.4863	0.5131	0.5717	-0.056
Mof_C 	C 	0.47141	0.40977	0.69837	0.37
Mof_C 	C 	0.453	0.35694	0.69782	-0.158
Mof_C 	C 	0.44726	0.33164	0.65312	0.108
Mof_H 	H 	0.4561	0.347	0.6232	0.018
Mof_C 	C 	0.42814	0.28288	0.65283	-0.215
Mof_H 	H 	0.4245	0.2659	0.6227	0.113
Mof_C 	C 	0.41485	0.2601	0.69633	0.187
Mof_C 	C 	0.42064	0.28491	0.74112	-0.216
Mof_H 	H 	0.4115	0.2693	0.7709	0.11
Mof_C 	C 	0.43994	0.33287	0.742	0.112
Mof_H 	H 	0.4442	0.3492	0.7724	0.005
Mof_C 	C 	0.41192	0.17397	0.66429	0.19
Mof_C 	C 	0.46264	0.1705	0.65423	-0.222
Mof_H 	H 	0.4843	0.1937	0.6687	0.112
Mof_C 	C 	0.48199	0.13431	0.62387	0.12
Mof_H 	H 	0.5164	0.1326	0.6185	0.002
Mof_C 	C 	0.44987	0.09955	0.60073	-0.171
Mof_C 	C 	0.39942	0.1021	0.6117	0.118
Mof_H 	H 	0.3779	0.0783	0.5981	0.001
Mof_C 	C 	0.37994	0.13901	0.64225	-0.219
Mof_H 	H 	0.3456	0.1406	0.6481	0.108
Mof_C 	C 	0.46972	0.06136	0.56532	0.381
Mof_C 	C 	0.34824	0.20315	0.72343	0.235
Mof_C 	C 	0.31095	0.24018	0.72466	-0.289
Mof_H 	H 	0.316	0.2703	0.708	0.136
Mof_N 	N 	0.5009	0.5068	0.8282	-0.039
Mof_C 	C 	0.5029	0.4671	0.8635	-0.065
Mof_H 	H 	0.498	0.4333	0.8565	-0.086
Mof_N 	N 	0.5136	0.4879	0.91113	-0.077
Mof_C 	C 	0.5182	0.5406	0.9054	0.109
Mof_H 	H 	0.5252	0.5635	0.9307	0.005
Mof_C 	C 	0.5104	0.5523	0.8541	0.142
Mof_H 	H 	0.5113	0.5841	0.84	0.031
Mof_C 	C 	0.512	0.4608	0.9556	0.001
Mof_C 	C 	0.5185	0.4095	0.9551	-0.018
Mof_H 	H 	0.5249	0.3927	0.9254	0.037
Mof_Cu	Cu	5.62156e-34	0	0.14982	0.905
Mof_Cu	Cu	9.36439e-34	0	0.24957	0.882
Mof_Cu	Cu	0.5	0.5	0.35018	0.934
Mof_Cu	Cu	0.5	0.5	0.25043	0.91
Mof_Cu	Cu	3.19005e-33	0	0.85018	0.906
Mof_Cu	Cu	2.81577e-33	5.30092e-33	0.75043	0.882
Mof_Cu	Cu	0.5	0.5	0.64982	0.934
Mof_Cu	Cu	0.5	0.5	0.74957	0.91
Mof_Cu	Cu	0.52201	0.04414	-0	0.882
Mof_Cu	Cu	0.47799	0.95586	-0	0.891
Mof_Cu	Cu	0.95586	0.52201	-0	0.891
Mof_Cu	Cu	0.04414	0.47799	-0	0.882
Mof_Cu	Cu	0.97799	0.54414	0.5	0.915
Mof_Cu	Cu	0.02201	0.45586	0.5	0.886
Mof_Cu	Cu	0.54414	0.02201	0.5	0.886
Mof_Cu	Cu	0.45586	0.97799	0.5	0.915
Mof_C 	C 	0.65983	0.84017	0.25	-0.309
Mof_H 	H 	0.6352	0.8648	0.25	0.146
Mof_C 	C 	0.73237	0.76763	0.25	0.214
Mof_H 	H 	0.757	0.743	0.25	-0.043
Mof_C 	C 	0.34017	0.15983	0.25	-0.303
Mof_H 	H 	0.3648	0.1352	0.25	0.141
Mof_C 	C 	0.26763	0.23237	0.25	0.208
Mof_H 	H 	0.243	0.257	0.25	-0.046
Mof_C 	C 	0.15983	0.65983	0.25	-0.304
Mof_H 	H 	0.1352	0.6352	0.25	0.141
Mof_C 	C 	0.23237	0.73237	0.25	0.21
Mof_H 	H 	0.257	0.757	0.25	-0.042
Mof_C 	C 	0.84017	0.34017	0.25	-0.308
Mof_H 	H 	0.8648	0.3648	0.25	0.146
Mof_C 	C 	0.76763	0.26763	0.25	0.213
Mof_H 	H 	0.743	0.243	0.25	-0.047
Mof_C 	C 	0.34017	0.15983	0.75	-0.303
Mof_H 	H 	0.3648	0.1352	0.75	0.142
Mof_C 	C 	0.26763	0.23237	0.75	0.21
Mof_H 	H 	0.243	0.257	0.75	-0.045
Mof_C 	C 	0.65983	0.84017	0.75	-0.309
Mof_H 	H 	0.6352	0.8648	0.75	0.147
Mof_C 	C 	0.73237	0.76763	0.75	0.216
Mof_H 	H 	0.757	0.743	0.75	-0.041
Mof_C 	C 	0.84017	0.34017	0.75	-0.309
Mof_H 	H 	0.8648	0.3648	0.75	0.147
Mof_C 	C 	0.76763	0.26763	0.75	0.215
Mof_H 	H 	0.743	0.243	0.75	-0.046
Mof_C 	C 	0.15983	0.65983	0.75	-0.304
Mof_H 	H 	0.1352	0.6352	0.75	0.142
Mof_C 	C 	0.23237	0.73237	0.75	0.212
Mof_H 	H 	0.257	0.757	0.75	-0.04
Mof_C 	C 	0.9866	0.007	0.5	0.144
Mof_H 	H 	0.0249	0.0083	0.5	-0.133
Mof_C 	C 	0.8836	0.0151	0.5	-0.047
Mof_H 	H 	0.8491	0.007	0.5	0.035
Mof_C 	C 	0.0134	0.993	0.5	0.051
Mof_H 	H 	0.9751	0.9917	0.5	-0.042
Mof_C 	C 	0.1164	0.9849	0.5	0.057
Mof_H 	H 	0.1509	0.993	0.5	0.017
Mof_C 	C 	0.993	0.9866	0.5	0.045
Mof_H 	H 	0.9917	0.0249	0.5	-0.087
Mof_C 	C 	0.9849	0.8836	0.5	0.025
Mof_H 	H 	0.993	0.8491	0.5	0.029
Mof_C 	C 	0.007	0.0134	0.5	0.156
Mof_H 	H 	0.0083	0.9751	0.5	-0.078
Mof_C 	C 	0.0151	0.1164	0.5	-0.034
Mof_H 	H 	0.007	0.1509	0.5	0.028
Mof_C 	C 	0.5134	0.507	-0	0.094
Mof_H 	H 	0.4751	0.5083	-0	-0.086
Mof_C 	C 	0.6164	0.5151	-0	-0.067
Mof_H 	H 	0.6509	0.507	-0	0.041
Mof_C 	C 	0.4866	0.493	-0	0.094
Mof_H 	H 	0.5249	0.4917	-0	-0.086
Mof_C 	C 	0.3836	0.4849	-0	-0.068
Mof_H 	H 	0.3491	0.493	-0	0.04
Mof_C 	C 	0.507	0.4866	-0	0.094
Mof_H 	H 	0.5083	0.5249	-0	-0.086
Mof_C 	C 	0.5151	0.3836	-0	-0.068
Mof_H 	H 	0.507	0.3491	-0	0.04
Mof_C 	C 	0.493	0.5134	-0	0.094
Mof_H 	H 	0.4917	0.4751	-0	-0.086
Mof_C 	C 	0.4849	0.6164	-0	-0.067
Mof_H 	H 	0.493	0.6509	-0	0.041
_end
