data_functionalizedCrystal
_audit_creation_method	'EQeq! by Chris Wilmer'
_symmetry_space_group_name_H-M	'P1'
_symmetry_Int_Tables_number	1
_symmetry_cell_setting	triclinic
loop_
_symmetry_equiv_pos_as_xyz
  x,y,z
_cell_length_a	7.9137
_cell_length_b	12.7304
_cell_length_c	27.357
_cell_angle_alpha	90
_cell_angle_beta	90
_cell_angle_gamma	90
loop_
_atom_site_label
_atom_site_type_symbol
_atom_site_fract_x
_atom_site_fract_y
_atom_site_fract_z
_atom_site_charge
Mof_Mn	Mn	0.34445	0.25753	0.02287	0.86
Mof_Mn	Mn	0.15555	0.74247	0.52287	0.861
Mof_Mn	Mn	0.65555	0.75753	0.47713	0.861
Mof_Mn	Mn	0.84445	0.24247	0.97713	0.86
Mof_P 	P 	0.5936	0.44848	0.96763	0.477
Mof_P 	P 	0.5173	0.62809	0.56103	0.45
Mof_P 	P 	0.9064	0.55152	0.46763	0.477
Mof_P 	P 	0.9827	0.37191	0.06103	0.45
Mof_P 	P 	0.4064	0.94848	0.53237	0.478
Mof_P 	P 	0.4827	0.12809	0.93897	0.45
Mof_P 	P 	0.0936	0.05152	0.03237	0.473
Mof_P 	P 	0.0173	0.87191	0.43897	0.451
Mof_H 	H 	0.1306	0.9031	0.912	0.225
Mof_H 	H 	0.0419	0.012	0.8981	0.204
Mof_H 	H 	0.965	0.9037	0.8785	0.2
Mof_H 	H 	0.8803	0.8374	0.7531	0.197
Mof_H 	H 	0.7026	0.8229	0.7802	0.184
Mof_H 	H 	0.8736	0.7883	0.807	0.195
Mof_H 	H 	0.509	0.686	0.8314	0.045
Mof_H 	H 	0.774	0.7	0.712	0.002
Mof_H 	H 	0.008	0.462	0.883	0.154
Mof_H 	H 	0.469	0.921	0.694	0.052
Mof_H 	H 	0.274	0.537	0.7176	0.065
Mof_H 	H 	0.708	0.636	0.776	-0.017
Mof_H 	H 	0.661	0.61	0.894	0.06
Mof_H 	H 	0.364	0.5	0.64	0.02
Mof_H 	H 	0.823	0.51	0.813	0.03
Mof_H 	H 	0.53	0.807	0.625	0.04
Mof_H 	H 	0.122	0.973	0.811	-0.034
Mof_H 	H 	0.285	0.971	0.854	-0.027
Mof_H 	H 	0.256	0.435	0.93	0.072
Mof_H 	H 	0.397	0.963	0.766	0.096
Mof_H 	H 	0.467	0.47	0.551	0.254
Mof_H 	H 	0.739	0.53	0.013	0.367
Mof_H 	H 	0.3694	0.0969	0.412	0.228
Mof_H 	H 	0.4581	0.988	0.3981	0.208
Mof_H 	H 	0.535	0.0963	0.3785	0.204
Mof_H 	H 	0.6197	0.1626	0.2531	0.197
Mof_H 	H 	0.7974	0.1771	0.2802	0.184
Mof_H 	H 	0.6264	0.2117	0.307	0.195
Mof_H 	H 	0.991	0.314	0.3314	0.046
Mof_H 	H 	0.726	0.3	0.212	0.002
Mof_H 	H 	0.492	0.538	0.383	0.154
Mof_H 	H 	0.031	0.079	0.194	0.051
Mof_H 	H 	0.226	0.463	0.2176	0.065
Mof_H 	H 	0.792	0.364	0.276	-0.016
Mof_H 	H 	0.839	0.39	0.394	0.059
Mof_H 	H 	0.136	0.5	0.14	0.021
Mof_H 	H 	0.677	0.49	0.313	0.029
Mof_H 	H 	0.97	0.193	0.125	0.04
Mof_H 	H 	0.378	0.027	0.311	-0.036
Mof_H 	H 	0.215	0.029	0.354	-0.029
Mof_H 	H 	0.244	0.565	0.43	0.072
Mof_H 	H 	0.103	0.037	0.266	0.096
Mof_H 	H 	0.033	0.53	0.051	0.255
Mof_H 	H 	0.761	0.47	0.513	0.367
Mof_H 	H 	0.8694	0.4031	0.588	0.226
Mof_H 	H 	0.9581	0.512	0.6019	0.205
Mof_H 	H 	0.035	0.4037	0.6215	0.202
Mof_H 	H 	0.1197	0.3374	0.7469	0.198
Mof_H 	H 	0.2974	0.3229	0.7198	0.184
Mof_H 	H 	0.1264	0.2883	0.693	0.195
Mof_H 	H 	0.491	0.186	0.6686	0.046
Mof_H 	H 	0.226	0.2	0.788	0.002
Mof_H 	H 	0.992	0.962	0.617	0.146
Mof_H 	H 	0.531	0.421	0.806	0.052
Mof_H 	H 	0.726	0.037	0.7824	0.065
Mof_H 	H 	0.292	0.136	0.724	-0.017
Mof_H 	H 	0.339	0.11	0.606	0.059
Mof_H 	H 	0.636	0	0.86	0.021
Mof_H 	H 	0.177	0.01	0.687	0.031
Mof_H 	H 	0.47	0.307	0.875	0.04
Mof_H 	H 	0.878	0.473	0.689	-0.034
Mof_H 	H 	0.715	0.471	0.646	-0.028
Mof_H 	H 	0.744	0.935	0.57	0.07
Mof_H 	H 	0.603	0.463	0.734	0.096
Mof_H 	H 	0.533	0.97	0.949	0.253
Mof_H 	H 	0.261	0.03	0.487	0.367
Mof_H 	H 	0.6306	0.5969	0.088	0.227
Mof_H 	H 	0.5419	0.488	0.1019	0.205
Mof_H 	H 	0.465	0.5963	0.1215	0.202
Mof_H 	H 	0.3803	0.6626	0.2469	0.198
Mof_H 	H 	0.2026	0.6771	0.2198	0.184
Mof_H 	H 	0.3736	0.7117	0.193	0.196
Mof_H 	H 	0.009	0.814	0.1686	0.047
Mof_H 	H 	0.274	0.8	0.288	0.003
Mof_H 	H 	0.508	0.038	0.117	0.146
Mof_H 	H 	0.969	0.579	0.306	0.052
Mof_H 	H 	0.774	0.963	0.2824	0.066
Mof_H 	H 	0.208	0.864	0.224	-0.016
Mof_H 	H 	0.161	0.89	0.106	0.059
Mof_H 	H 	0.864	0	0.36	0.02
Mof_H 	H 	0.323	0.99	0.187	0.032
Mof_H 	H 	0.03	0.693	0.375	0.041
Mof_H 	H 	0.622	0.527	0.189	-0.035
Mof_H 	H 	0.785	0.529	0.146	-0.028
Mof_H 	H 	0.756	0.065	0.07	0.071
Mof_H 	H 	0.897	0.537	0.234	0.096
Mof_H 	H 	0.967	0.03	0.449	0.254
Mof_H 	H 	0.239	0.97	0.987	0.364
Mof_C 	C 	0.5499	0.5884	0.8889	-0.039
Mof_C 	C 	0.4792	0.7488	0.6432	-0.021
Mof_C 	C 	0.2038	0.639	0.8	0.011
Mof_C 	C 	0.364	0.9021	0.7539	-0.166
Mof_C 	C 	0.9579	0.5361	0.8253	0.018
Mof_C 	C 	0.4212	0.7733	0.6902	-0.015
Mof_C 	C 	0.4623	0.6303	0.8513	-0.032
Mof_C 	C 	0.3286	0.5902	0.6991	-0.099
Mof_C 	C 	0.2137	0.5297	0.8738	0.103
Mof_C 	C 	0.0401	0.6036	0.7919	0.082
Mof_C 	C 	0.3091	0.4861	0.9125	-0.108
Mof_C 	C 	0.4314	0.8743	0.709	-0.035
Mof_C 	C 	0.2814	0.719	0.7669	-0.07
Mof_C 	C 	0.2883	0.8212	0.7824	0.177
Mof_C 	C 	0.3429	0.6932	0.719	0.05
Mof_C 	C 	0.4755	0.5112	0.92	-0.019
Mof_C 	C 	0.3829	0.5693	0.6524	0.008
Mof_C 	C 	0.044	0.5023	0.8654	-0.241
Mof_C 	C 	0.7986	0.6837	0.7537	0.191
Mof_C 	C 	0.1805	0.9492	0.8406	0.25
Mof_C 	C 	0.0695	0.9413	0.8865	-0.584
Mof_C 	C 	0.2936	0.6008	0.8408	-0.025
Mof_C 	C 	0.4599	0.6503	0.6235	-0.087
Mof_C 	C 	0.8152	0.7927	0.7754	-0.549
Mof_C 	C 	0.9501	0.4116	0.3889	-0.038
Mof_C 	C 	0.0208	0.2512	0.1432	-0.022
Mof_C 	C 	0.2962	0.361	0.3	0.011
Mof_C 	C 	0.136	0.0979	0.2539	-0.167
Mof_C 	C 	0.5421	0.4639	0.3253	0.019
Mof_C 	C 	0.0788	0.2267	0.1902	-0.016
Mof_C 	C 	0.0377	0.3697	0.3513	-0.032
Mof_C 	C 	0.1714	0.4098	0.1991	-0.099
Mof_C 	C 	0.2863	0.4703	0.3738	0.104
Mof_C 	C 	0.4599	0.3964	0.2919	0.081
Mof_C 	C 	0.1909	0.5139	0.4125	-0.109
Mof_C 	C 	0.0686	0.1257	0.209	-0.034
Mof_C 	C 	0.2186	0.281	0.2669	-0.071
Mof_C 	C 	0.2117	0.1788	0.2824	0.178
Mof_C 	C 	0.1571	0.3068	0.219	0.05
Mof_C 	C 	0.0245	0.4888	0.42	-0.019
Mof_C 	C 	0.1171	0.4307	0.1524	0.008
Mof_C 	C 	0.456	0.4977	0.3654	-0.243
Mof_C 	C 	0.7014	0.3163	0.2537	0.191
Mof_C 	C 	0.3195	0.0508	0.3406	0.256
Mof_C 	C 	0.4305	0.0587	0.3865	-0.595
Mof_C 	C 	0.2064	0.3992	0.3408	-0.025
Mof_C 	C 	0.0401	0.3497	0.1235	-0.087
Mof_C 	C 	0.6848	0.2073	0.2754	-0.549
Mof_C 	C 	0.4501	0.0884	0.6111	-0.037
Mof_C 	C 	0.5208	0.2488	0.8568	-0.022
Mof_C 	C 	0.7962	0.139	0.7	0.008
Mof_C 	C 	0.636	0.4021	0.7461	-0.165
Mof_C 	C 	0.0421	0.0361	0.6747	0.011
Mof_C 	C 	0.5788	0.2733	0.8098	-0.014
Mof_C 	C 	0.5377	0.1303	0.6487	-0.034
Mof_C 	C 	0.6714	0.0902	0.8009	-0.098
Mof_C 	C 	0.7863	0.0297	0.6262	0.097
Mof_C 	C 	0.9599	0.1036	0.7081	0.086
Mof_C 	C 	0.6909	0.9861	0.5875	-0.105
Mof_C 	C 	0.5686	0.3743	0.791	-0.036
Mof_C 	C 	0.7186	0.219	0.7331	-0.069
Mof_C 	C 	0.7117	0.3212	0.7176	0.177
Mof_C 	C 	0.6571	0.1932	0.781	0.049
Mof_C 	C 	0.5245	0.0112	0.58	-0.02
Mof_C 	C 	0.6171	0.0693	0.8476	0.008
Mof_C 	C 	0.956	0.0023	0.6346	-0.227
Mof_C 	C 	0.2014	0.1837	0.7463	0.192
Mof_C 	C 	0.8195	0.4492	0.6594	0.252
Mof_C 	C 	0.9305	0.4413	0.6135	-0.588
Mof_C 	C 	0.7064	0.1008	0.6592	-0.022
Mof_C 	C 	0.5401	0.1503	0.8765	-0.087
Mof_C 	C 	0.1848	0.2927	0.7246	-0.55
Mof_C 	C 	0.0499	0.9116	0.1111	-0.034
Mof_C 	C 	0.9792	0.7512	0.3568	-0.022
Mof_C 	C 	0.7038	0.861	0.2	0.009
Mof_C 	C 	0.864	0.5979	0.2461	-0.166
Mof_C 	C 	0.4579	0.9639	0.1747	0.013
Mof_C 	C 	0.9212	0.7267	0.3098	-0.015
Mof_C 	C 	0.9623	0.8697	0.1487	-0.036
Mof_C 	C 	0.8286	0.9098	0.3009	-0.099
Mof_C 	C 	0.7137	0.9703	0.1262	0.099
Mof_C 	C 	0.5401	0.8964	0.2081	0.084
Mof_C 	C 	0.8091	0.0139	0.0875	-0.109
Mof_C 	C 	0.9314	0.6257	0.291	-0.035
Mof_C 	C 	0.7814	0.781	0.2331	-0.07
Mof_C 	C 	0.7883	0.6788	0.2176	0.177
Mof_C 	C 	0.8429	0.8068	0.281	0.05
Mof_C 	C 	0.9755	0.9888	0.08	-0.018
Mof_C 	C 	0.8829	0.9307	0.3476	0.009
Mof_C 	C 	0.544	0.9977	0.1346	-0.229
Mof_C 	C 	0.2986	0.8163	0.2463	0.192
Mof_C 	C 	0.6805	0.5508	0.1594	0.253
Mof_C 	C 	0.5695	0.5587	0.1135	-0.589
Mof_C 	C 	0.7936	0.8992	0.1592	-0.022
Mof_C 	C 	0.9599	0.8497	0.3765	-0.088
Mof_C 	C 	0.3152	0.7073	0.2246	-0.55
Mof_O 	O 	0.9614	0.6341	0.74876	-0.234
Mof_O 	O 	0.4683	0.3982	0.00218	-0.366
Mof_O 	O 	0.6794	0.5462	0.99294	-0.542
Mof_O 	O 	0.2184	0.841	0.82701	-0.263
Mof_O 	O 	0.3764	0.6557	0.52703	-0.395
Mof_O 	O 	0.6773	0.6868	0.54942	-0.35
Mof_O 	O 	0.7262	0.3773	0.94656	-0.37
Mof_O 	O 	0.5526	0.5068	0.55592	-0.454
Mof_O 	O 	0.5386	0.3659	0.24876	-0.233
Mof_O 	O 	0.0317	0.6018	0.50218	-0.366
Mof_O 	O 	0.8206	0.4538	0.49294	-0.542
Mof_O 	O 	0.2816	0.159	0.32701	-0.264
Mof_O 	O 	0.1236	0.3443	0.02703	-0.395
Mof_O 	O 	0.8227	0.3132	0.04942	-0.35
Mof_O 	O 	0.7738	0.6227	0.44656	-0.37
Mof_O 	O 	0.9474	0.4932	0.05592	-0.455
Mof_O 	O 	0.0386	0.1341	0.75124	-0.235
Mof_O 	O 	0.5317	0.8982	0.49782	-0.366
Mof_O 	O 	0.3206	0.0462	0.50706	-0.542
Mof_O 	O 	0.7816	0.341	0.67299	-0.263
Mof_O 	O 	0.6236	0.1557	0.97297	-0.395
Mof_O 	O 	0.3227	0.1868	0.95058	-0.349
Mof_O 	O 	0.2738	0.8773	0.55344	-0.37
Mof_O 	O 	0.4474	0.0068	0.94408	-0.453
Mof_O 	O 	0.4614	0.8659	0.25124	-0.234
Mof_O 	O 	0.9683	0.1018	0.99782	-0.364
Mof_O 	O 	0.1794	0.9538	0.00706	-0.537
Mof_O 	O 	0.7184	0.659	0.17299	-0.263
Mof_O 	O 	0.8764	0.8443	0.47297	-0.396
Mof_O 	O 	0.1773	0.8132	0.45058	-0.35
Mof_O 	O 	0.2262	0.1227	0.05344	-0.37
Mof_O 	O 	0.0526	0.9932	0.44408	-0.453
_end
