data_functionalizedCrystal
_audit_creation_method	'EQeq! by Chris Wilmer'
_symmetry_space_group_name_H-M	'P1'
_symmetry_Int_Tables_number	1
_symmetry_cell_setting	triclinic
loop_
_symmetry_equiv_pos_as_xyz
  x,y,z
_cell_length_a	24.5711
_cell_length_b	13.2963
_cell_length_c	14.7313
_cell_angle_alpha	90
_cell_angle_beta	96.735
_cell_angle_gamma	90
loop_
_atom_site_label
_atom_site_type_symbol
_atom_site_fract_x
_atom_site_fract_y
_atom_site_fract_z
_atom_site_charge
Mof_Eu	Eu	0.32877	0.7925	0.0302	2.057
Mof_O 	O 	0.3045	0.7343	0.8794	-0.527
Mof_O 	O 	0.22569	0.6493	0.8539	-0.558
Mof_O 	O 	0.2016	0.4396	0.5624	-0.498
Mof_O 	O 	0.2749	0.353	0.5424	-0.62
Mof_O 	O 	0.6006	0.666	0.5007	-0.461
Mof_O 	O 	0.5869	0.8197	0.5438	-0.462
Mof_C 	C 	0.2731	0.6724	0.8365	0.498
Mof_C 	C 	0.2951	0.6214	0.7562	-0.195
Mof_C 	C 	0.2642	0.5519	0.7024	0.119
Mof_H 	H 	0.2284	0.5384	0.7133	-0.005
Mof_C 	C 	0.2862	0.5024	0.6327	-0.2
Mof_C 	C 	0.252	0.4264	0.5768	0.467
Mof_C 	C 	0.3392	0.524	0.6151	0.062
Mof_H 	H 	0.3545	0.4878	0.5704	0.006
Mof_C 	C 	0.37	0.5991	0.6634	-0.1
Mof_C 	C 	0.347	0.6449	0.7364	0.068
Mof_H 	H 	0.3675	0.6922	0.7723	0.019
Mof_C 	C 	0.424	0.6311	0.6387	0.119
Mof_C 	C 	0.4599	0.5635	0.6059	-0.169
Mof_H 	H 	0.4507	0.4957	0.6023	0.088
Mof_C 	C 	0.5089	0.5944	0.5784	0.075
Mof_H 	H 	0.5326	0.547	0.5584	0.012
Mof_C 	C 	0.5232	0.6957	0.58	-0.145
Mof_C 	C 	0.5737	0.7281	0.539	0.354
Mof_C 	C 	0.4885	0.762	0.6153	0.081
Mof_H 	H 	0.498	0.8297	0.6194	0.002
Mof_C 	C 	0.4402	0.7314	0.6447	-0.171
Mof_H 	H 	0.4179	0.7784	0.6691	0.084
Mof_Eu	Eu	0.82877	0.2925	0.0302	2.054
Mof_O 	O 	0.8045	0.2343	0.8794	-0.525
Mof_O 	O 	0.72569	0.1493	0.8539	-0.558
Mof_O 	O 	0.7016	0.9396	0.5624	-0.498
Mof_O 	O 	0.7749	0.853	0.5424	-0.62
Mof_O 	O 	0.1006	0.166	0.5007	-0.461
Mof_O 	O 	0.0869	0.3197	0.5438	-0.462
Mof_C 	C 	0.7731	0.1724	0.8365	0.498
Mof_C 	C 	0.7951	0.1214	0.7562	-0.195
Mof_C 	C 	0.7642	0.0519	0.7024	0.119
Mof_H 	H 	0.7284	0.0384	0.7133	-0.006
Mof_C 	C 	0.7862	0.0024	0.6327	-0.201
Mof_C 	C 	0.752	0.9264	0.5768	0.467
Mof_C 	C 	0.8392	0.024	0.6151	0.062
Mof_H 	H 	0.8545	0.9878	0.5704	0.006
Mof_C 	C 	0.87	0.0991	0.6634	-0.1
Mof_C 	C 	0.847	0.1449	0.7364	0.068
Mof_H 	H 	0.8675	0.1922	0.7723	0.019
Mof_C 	C 	0.924	0.1311	0.6387	0.119
Mof_C 	C 	0.9599	0.0635	0.6059	-0.169
Mof_H 	H 	0.9507	0.9957	0.6023	0.088
Mof_C 	C 	0.0089	0.0944	0.5784	0.074
Mof_H 	H 	0.0326	0.047	0.5584	0.012
Mof_C 	C 	0.0232	0.1957	0.58	-0.146
Mof_C 	C 	0.0737	0.2281	0.539	0.354
Mof_C 	C 	0.9885	0.262	0.6153	0.082
Mof_H 	H 	0.998	0.3297	0.6194	0.002
Mof_C 	C 	0.9402	0.2314	0.6447	-0.171
Mof_H 	H 	0.9179	0.2784	0.6691	0.084
Mof_Eu	Eu	0.67123	0.7925	0.4698	2.056
Mof_O 	O 	0.6955	0.7343	0.6206	-0.526
Mof_O 	O 	0.77431	0.6493	0.6461	-0.558
Mof_O 	O 	0.7984	0.4396	0.9376	-0.497
Mof_O 	O 	0.7251	0.353	0.9576	-0.619
Mof_O 	O 	0.3994	0.666	0.9993	-0.461
Mof_O 	O 	0.4131	0.8197	0.9562	-0.462
Mof_C 	C 	0.7269	0.6724	0.6635	0.498
Mof_C 	C 	0.7049	0.6214	0.7438	-0.195
Mof_C 	C 	0.7358	0.5519	0.7976	0.119
Mof_H 	H 	0.7716	0.5384	0.7867	-0.005
Mof_C 	C 	0.7138	0.5024	0.8673	-0.2
Mof_C 	C 	0.748	0.4264	0.9232	0.467
Mof_C 	C 	0.6608	0.524	0.8849	0.062
Mof_H 	H 	0.6455	0.4878	0.9296	0.006
Mof_C 	C 	0.63	0.5991	0.8366	-0.1
Mof_C 	C 	0.653	0.6449	0.7636	0.068
Mof_H 	H 	0.6325	0.6922	0.7277	0.019
Mof_C 	C 	0.576	0.6311	0.8613	0.119
Mof_C 	C 	0.5401	0.5635	0.8941	-0.169
Mof_H 	H 	0.5493	0.4957	0.8977	0.088
Mof_C 	C 	0.4911	0.5944	0.9216	0.075
Mof_H 	H 	0.4674	0.547	0.9416	0.012
Mof_C 	C 	0.4768	0.6957	0.92	-0.145
Mof_C 	C 	0.4263	0.7281	0.961	0.354
Mof_C 	C 	0.5115	0.762	0.8847	0.081
Mof_H 	H 	0.502	0.8297	0.8806	0.002
Mof_C 	C 	0.5598	0.7314	0.8553	-0.17
Mof_H 	H 	0.5821	0.7784	0.8309	0.084
Mof_Eu	Eu	0.17123	0.2925	0.4698	2.057
Mof_O 	O 	0.1955	0.2343	0.6206	-0.526
Mof_O 	O 	0.27431	0.1493	0.6461	-0.558
Mof_O 	O 	0.2984	0.9396	0.9376	-0.498
Mof_O 	O 	0.2251	0.853	0.9576	-0.62
Mof_O 	O 	0.8994	0.166	0.9993	-0.46
Mof_O 	O 	0.9131	0.3197	0.9562	-0.461
Mof_C 	C 	0.2269	0.1724	0.6635	0.498
Mof_C 	C 	0.2049	0.1214	0.7438	-0.195
Mof_C 	C 	0.2358	0.0519	0.7976	0.119
Mof_H 	H 	0.2716	0.0384	0.7867	-0.006
Mof_C 	C 	0.2138	0.0024	0.8673	-0.201
Mof_C 	C 	0.248	0.9264	0.9232	0.468
Mof_C 	C 	0.1608	0.024	0.8849	0.061
Mof_H 	H 	0.1455	0.9878	0.9296	0.006
Mof_C 	C 	0.13	0.0991	0.8366	-0.1
Mof_C 	C 	0.153	0.1449	0.7636	0.068
Mof_H 	H 	0.1325	0.1922	0.7277	0.019
Mof_C 	C 	0.076	0.1311	0.8613	0.12
Mof_C 	C 	0.0401	0.0635	0.8941	-0.173
Mof_H 	H 	0.0493	0.9957	0.8977	0.089
Mof_C 	C 	0.9911	0.0944	0.9216	0.078
Mof_H 	H 	0.9674	0.047	0.9416	0.011
Mof_C 	C 	0.9768	0.1957	0.92	-0.144
Mof_C 	C 	0.9263	0.2281	0.961	0.354
Mof_C 	C 	0.0115	0.262	0.8847	0.079
Mof_H 	H 	0.002	0.3297	0.8806	0.002
Mof_C 	C 	0.0598	0.2314	0.8553	-0.171
Mof_H 	H 	0.0821	0.2784	0.8309	0.084
Mof_Eu	Eu	0.67123	0.2075	0.9698	2.058
Mof_O 	O 	0.6955	0.2657	0.1206	-0.526
Mof_O 	O 	0.77431	0.3507	0.1461	-0.558
Mof_O 	O 	0.7984	0.5604	0.4376	-0.498
Mof_O 	O 	0.7251	0.647	0.4576	-0.62
Mof_O 	O 	0.3994	0.334	0.4993	-0.461
Mof_O 	O 	0.4131	0.1803	0.4562	-0.462
Mof_C 	C 	0.7269	0.3276	0.1635	0.498
Mof_C 	C 	0.7049	0.3786	0.2438	-0.195
Mof_C 	C 	0.7358	0.4481	0.2976	0.119
Mof_H 	H 	0.7716	0.4616	0.2867	-0.005
Mof_C 	C 	0.7138	0.4976	0.3673	-0.2
Mof_C 	C 	0.748	0.5736	0.4232	0.467
Mof_C 	C 	0.6608	0.476	0.3849	0.062
Mof_H 	H 	0.6455	0.5122	0.4296	0.006
Mof_C 	C 	0.63	0.4009	0.3366	-0.1
Mof_C 	C 	0.653	0.3551	0.2636	0.068
Mof_H 	H 	0.6325	0.3078	0.2277	0.019
Mof_C 	C 	0.576	0.3689	0.3613	0.119
Mof_C 	C 	0.5401	0.4365	0.3941	-0.169
Mof_H 	H 	0.5493	0.5043	0.3977	0.088
Mof_C 	C 	0.4911	0.4056	0.4216	0.075
Mof_H 	H 	0.4674	0.453	0.4416	0.012
Mof_C 	C 	0.4768	0.3043	0.42	-0.145
Mof_C 	C 	0.4263	0.2719	0.461	0.354
Mof_C 	C 	0.5115	0.238	0.3847	0.081
Mof_H 	H 	0.502	0.1703	0.3806	0.002
Mof_C 	C 	0.5598	0.2686	0.3553	-0.171
Mof_H 	H 	0.5821	0.2216	0.3309	0.084
Mof_Eu	Eu	0.17123	0.7075	0.9698	2.054
Mof_O 	O 	0.1955	0.7657	0.1206	-0.525
Mof_O 	O 	0.27431	0.8507	0.1461	-0.558
Mof_O 	O 	0.2984	0.0604	0.4376	-0.498
Mof_O 	O 	0.2251	0.147	0.4576	-0.62
Mof_O 	O 	0.8994	0.834	0.4993	-0.461
Mof_O 	O 	0.9131	0.6803	0.4562	-0.462
Mof_C 	C 	0.2269	0.8276	0.1635	0.498
Mof_C 	C 	0.2049	0.8786	0.2438	-0.195
Mof_C 	C 	0.2358	0.9481	0.2976	0.119
Mof_H 	H 	0.2716	0.9616	0.2867	-0.006
Mof_C 	C 	0.2138	0.9976	0.3673	-0.201
Mof_C 	C 	0.248	0.0736	0.4232	0.467
Mof_C 	C 	0.1608	0.976	0.3849	0.062
Mof_H 	H 	0.1455	0.0122	0.4296	0.006
Mof_C 	C 	0.13	0.9009	0.3366	-0.1
Mof_C 	C 	0.153	0.8551	0.2636	0.068
Mof_H 	H 	0.1325	0.8078	0.2277	0.019
Mof_C 	C 	0.076	0.8689	0.3613	0.119
Mof_C 	C 	0.0401	0.9365	0.3941	-0.169
Mof_H 	H 	0.0493	0.0043	0.3977	0.088
Mof_C 	C 	0.9911	0.9056	0.4216	0.074
Mof_H 	H 	0.9674	0.953	0.4416	0.012
Mof_C 	C 	0.9768	0.8043	0.42	-0.146
Mof_C 	C 	0.9263	0.7719	0.461	0.354
Mof_C 	C 	0.0115	0.738	0.3847	0.082
Mof_H 	H 	0.002	0.6703	0.3806	0.002
Mof_C 	C 	0.0598	0.7686	0.3553	-0.171
Mof_H 	H 	0.0821	0.7216	0.3309	0.084
Mof_Eu	Eu	0.32877	0.2075	0.5302	2.056
Mof_O 	O 	0.3045	0.2657	0.3794	-0.526
Mof_O 	O 	0.22569	0.3507	0.3539	-0.558
Mof_O 	O 	0.2016	0.5604	0.0624	-0.497
Mof_O 	O 	0.2749	0.647	0.0424	-0.619
Mof_O 	O 	0.6006	0.334	0.0007	-0.461
Mof_O 	O 	0.5869	0.1803	0.0438	-0.462
Mof_C 	C 	0.2731	0.3276	0.3365	0.498
Mof_C 	C 	0.2951	0.3786	0.2562	-0.195
Mof_C 	C 	0.2642	0.4481	0.2024	0.119
Mof_H 	H 	0.2284	0.4616	0.2133	-0.005
Mof_C 	C 	0.2862	0.4976	0.1327	-0.2
Mof_C 	C 	0.252	0.5736	0.0768	0.467
Mof_C 	C 	0.3392	0.476	0.1151	0.062
Mof_H 	H 	0.3545	0.5122	0.0704	0.006
Mof_C 	C 	0.37	0.4009	0.1634	-0.1
Mof_C 	C 	0.347	0.3551	0.2364	0.068
Mof_H 	H 	0.3675	0.3078	0.2723	0.019
Mof_C 	C 	0.424	0.3689	0.1387	0.119
Mof_C 	C 	0.4599	0.4365	0.1059	-0.169
Mof_H 	H 	0.4507	0.5043	0.1023	0.088
Mof_C 	C 	0.5089	0.4056	0.0784	0.075
Mof_H 	H 	0.5326	0.453	0.0584	0.012
Mof_C 	C 	0.5232	0.3043	0.08	-0.145
Mof_C 	C 	0.5737	0.2719	0.039	0.354
Mof_C 	C 	0.4885	0.238	0.1153	0.081
Mof_H 	H 	0.498	0.1703	0.1194	0.002
Mof_C 	C 	0.4402	0.2686	0.1447	-0.17
Mof_H 	H 	0.4179	0.2216	0.1691	0.084
Mof_Eu	Eu	0.82877	0.7075	0.5302	2.057
Mof_O 	O 	0.8045	0.7657	0.3794	-0.526
Mof_O 	O 	0.72569	0.8507	0.3539	-0.558
Mof_O 	O 	0.7016	0.0604	0.0624	-0.498
Mof_O 	O 	0.7749	0.147	0.0424	-0.62
Mof_O 	O 	0.1006	0.834	0.0007	-0.46
Mof_O 	O 	0.0869	0.6803	0.0438	-0.461
Mof_C 	C 	0.7731	0.8276	0.3365	0.498
Mof_C 	C 	0.7951	0.8786	0.2562	-0.195
Mof_C 	C 	0.7642	0.9481	0.2024	0.119
Mof_H 	H 	0.7284	0.9616	0.2133	-0.006
Mof_C 	C 	0.7862	0.9976	0.1327	-0.201
Mof_C 	C 	0.752	0.0736	0.0768	0.468
Mof_C 	C 	0.8392	0.976	0.1151	0.061
Mof_H 	H 	0.8545	0.0122	0.0704	0.006
Mof_C 	C 	0.87	0.9009	0.1634	-0.1
Mof_C 	C 	0.847	0.8551	0.2364	0.068
Mof_H 	H 	0.8675	0.8078	0.2723	0.019
Mof_C 	C 	0.924	0.8689	0.1387	0.12
Mof_C 	C 	0.9599	0.9365	0.1059	-0.173
Mof_H 	H 	0.9507	0.0043	0.1023	0.089
Mof_C 	C 	0.0089	0.9056	0.0784	0.078
Mof_H 	H 	0.0326	0.953	0.0584	0.011
Mof_C 	C 	0.0232	0.8043	0.08	-0.144
Mof_C 	C 	0.0737	0.7719	0.039	0.354
Mof_C 	C 	0.9885	0.738	0.1153	0.079
Mof_H 	H 	0.998	0.6703	0.1194	0.002
Mof_C 	C 	0.9402	0.7686	0.1447	-0.171
Mof_H 	H 	0.9179	0.7216	0.1691	0.084
_end
