data_functionalizedCrystal
_audit_creation_method	'EQeq! by Chris Wilmer'
_symmetry_space_group_name_H-M	'P1'
_symmetry_Int_Tables_number	1
_symmetry_cell_setting	triclinic
loop_
_symmetry_equiv_pos_as_xyz
  x,y,z
_cell_length_a	10.7738
_cell_length_b	11.1482
_cell_length_c	11.1482
_cell_angle_alpha	99.9866
_cell_angle_beta	102.488
_cell_angle_gamma	77.5125
loop_
_atom_site_label
_atom_site_type_symbol
_atom_site_fract_x
_atom_site_fract_y
_atom_site_fract_z
_atom_site_charge
Mof_Co	Co	0.05241	0.93389	0.12107	1.169
Mof_Co	Co	0.44759	0.12107	0.93389	1.172
Mof_Co	Co	0.94759	0.06611	0.87893	1.169
Mof_Co	Co	0.55241	0.87893	0.06611	1.172
Mof_Co	Co	0.25	0.09148	0.09148	1.189
Mof_Co	Co	0.75	0.90852	0.90852	1.189
Mof_H 	H 	0.019	0.166	0.098	0.32
Mof_H 	H 	0.361	0.5478	0.0402	0.066
Mof_H 	H 	0.061	0.473	0.137	0.065
Mof_H 	H 	0.979	0.686	0.174	0.022
Mof_H 	H 	0.481	0.098	0.166	0.32
Mof_H 	H 	0.139	0.0402	0.5478	0.068
Mof_H 	H 	0.439	0.137	0.473	0.067
Mof_H 	H 	0.521	0.174	0.686	0.014
Mof_H 	H 	0.981	0.834	0.902	0.32
Mof_H 	H 	0.639	0.4522	0.9598	0.066
Mof_H 	H 	0.939	0.527	0.863	0.065
Mof_H 	H 	0.021	0.314	0.826	0.022
Mof_H 	H 	0.519	0.902	0.834	0.32
Mof_H 	H 	0.861	0.9598	0.4522	0.068
Mof_H 	H 	0.561	0.863	0.527	0.067
Mof_H 	H 	0.479	0.826	0.314	0.014
Mof_C 	C 	0.2367	0.69671	0.08807	-0.057
Mof_C 	C 	0.2894	0.57178	0.06586	-0.02
Mof_C 	C 	0.2212	0.48568	0.08276	-0.05
Mof_C 	C 	0.1052	0.52817	0.12463	-0.059
Mof_C 	C 	0.0583	0.65461	0.14259	0.032
Mof_C 	C 	0.303	0.79661	0.07117	0.376
Mof_C 	C 	0.2698	0.34709	0.05763	0.341
Mof_C 	C 	0.2633	0.08807	0.69671	-0.054
Mof_C 	C 	0.2106	0.06586	0.57178	-0.021
Mof_C 	C 	0.2788	0.08276	0.48568	-0.048
Mof_C 	C 	0.3948	0.12463	0.52817	-0.065
Mof_C 	C 	0.4417	0.14259	0.65461	0.044
Mof_C 	C 	0.197	0.07117	0.79661	0.375
Mof_C 	C 	0.2302	0.05763	0.34709	0.347
Mof_C 	C 	0.7633	0.30329	0.91193	-0.057
Mof_C 	C 	0.7106	0.42822	0.93414	-0.02
Mof_C 	C 	0.7788	0.51432	0.91724	-0.05
Mof_C 	C 	0.8948	0.47183	0.87537	-0.059
Mof_C 	C 	0.9417	0.34539	0.85741	0.032
Mof_C 	C 	0.697	0.20339	0.92883	0.376
Mof_C 	C 	0.7302	0.65291	0.94237	0.341
Mof_C 	C 	0.7367	0.91193	0.30329	-0.054
Mof_C 	C 	0.7894	0.93414	0.42822	-0.021
Mof_C 	C 	0.7212	0.91724	0.51432	-0.048
Mof_C 	C 	0.6052	0.87537	0.47183	-0.065
Mof_C 	C 	0.5583	0.85741	0.34539	0.044
Mof_C 	C 	0.803	0.92883	0.20339	0.375
Mof_C 	C 	0.7698	0.94237	0.65291	0.347
Mof_N 	N 	0.1215	0.73805	0.12337	-0.194
Mof_N 	N 	0.3785	0.12337	0.73805	-0.195
Mof_N 	N 	0.8785	0.26195	0.87663	-0.194
Mof_N 	N 	0.6215	0.87663	0.26195	-0.195
Mof_O 	O 	0.23473	0.90379	0.07225	-0.56
Mof_O 	O 	0.41813	0.76902	0.0598	-0.428
Mof_O 	O 	0.34556	0.30997	0.98177	-0.386
Mof_O 	O 	0.2277	0.28154	0.1141	-0.424
Mof_O 	O 	0.05017	0.10137	0.05985	-0.814
Mof_O 	O 	0.26527	0.07225	0.90379	-0.556
Mof_O 	O 	0.08187	0.0598	0.76902	-0.423
Mof_O 	O 	0.15444	0.98177	0.30997	-0.393
Mof_O 	O 	0.2723	0.1141	0.28154	-0.425
Mof_O 	O 	0.44983	0.05985	0.10137	-0.815
Mof_O 	O 	0.76527	0.09621	0.92775	-0.56
Mof_O 	O 	0.58187	0.23098	0.9402	-0.428
Mof_O 	O 	0.65444	0.69003	0.01823	-0.386
Mof_O 	O 	0.7723	0.71846	0.8859	-0.424
Mof_O 	O 	0.94983	0.89863	0.94015	-0.814
Mof_O 	O 	0.73473	0.92775	0.09621	-0.556
Mof_O 	O 	0.91813	0.9402	0.23098	-0.423
Mof_O 	O 	0.84556	0.01823	0.69003	-0.393
Mof_O 	O 	0.7277	0.8859	0.71846	-0.425
Mof_O 	O 	0.55017	0.94015	0.89863	-0.815
_end
