data_functionalizedCrystal
_audit_creation_method	'EQeq! by Chris Wilmer'
_symmetry_space_group_name_H-M	'P1'
_symmetry_Int_Tables_number	1
_symmetry_cell_setting	triclinic
loop_
_symmetry_equiv_pos_as_xyz
  x,y,z
_cell_length_a	10.4237
_cell_length_b	14.7281
_cell_length_c	25.599
_cell_angle_alpha	81.665
_cell_angle_beta	82.26
_cell_angle_gamma	71.667
loop_
_atom_site_label
_atom_site_type_symbol
_atom_site_fract_x
_atom_site_fract_y
_atom_site_fract_z
_atom_site_charge
Mof_U 	U 	0.03588	0.57406	0.32523	0.005
Mof_U 	U 	0.52521	0.09864	0.82611	0.007
Mof_Si	Si	0.7219	0.11017	0.47236	0.835
Mof_Si	Si	0.1572	0.637	0.96918	0.888
Mof_O 	O 	0.478	0.9471	0.8292	-0.173
Mof_O 	O 	0.5516	0.0397	0.7395	-0.176
Mof_O 	O 	0.61	0.1716	0.7389	-0.162
Mof_O 	O 	0.4851	0.1764	0.908	-0.185
Mof_O 	O 	0.5414	0.2573	0.8341	-0.168
Mof_O 	O 	0.469	0.9965	0.906	-0.174
Mof_O 	O 	0.8484	0.7207	0.337	-0.17
Mof_O 	O 	0.9427	0.6423	0.4091	-0.173
Mof_O 	O 	0.1349	0.4704	0.4053	-0.179
Mof_O 	O 	0.2322	0.4272	0.3267	-0.173
Mof_O 	O 	0.1365	0.5243	0.2385	-0.172
Mof_O 	O 	0.9571	0.6533	0.238	-0.162
Mof_C 	C 	0.7445	0.1621	0.5746	0.137
Mof_H 	H 	0.7964	0.2014	0.556	-0.019
Mof_C 	C 	0.704	0.1043	0.5468	-0.309
Mof_C 	C 	0.7118	0.1646	0.629	-0.139
Mof_H 	H 	0.7365	0.2078	0.6469	0.107
Mof_C 	C 	0.6425	0.1031	0.6567	0.042
Mof_C 	C 	0.7484	0.9881	0.4514	-0.304
Mof_C 	C 	0.8344	0.9061	0.4767	0.122
Mof_H 	H 	0.8683	0.9105	0.5086	-0.021
Mof_C 	C 	0.8717	0.8182	0.4567	-0.138
Mof_H 	H 	0.9319	0.763	0.4741	0.092
Mof_C 	C 	0.8192	0.8116	0.4098	0.04
Mof_C 	C 	0.8706	0.7205	0.384	0.228
Mof_C 	C 	0.598	0.1044	0.7144	0.231
Mof_C 	C 	0.0537	0.5953	0.2127	0.225
Mof_C 	C 	0.5655	0.1993	0.4476	-0.301
Mof_C 	C 	0.4448	0.2373	0.4777	0.126
Mof_H 	H 	0.4359	0.2146	0.5143	-0.012
Mof_C 	C 	0.3355	0.3083	0.4558	-0.13
Mof_H 	H 	0.2548	0.334	0.4778	0.096
Mof_C 	C 	0.3435	0.3416	0.4021	0.031
Mof_C 	C 	0.4621	0.3012	0.3699	-0.12
Mof_H 	H 	0.4675	0.3196	0.3327	0.093
Mof_C 	C 	0.5715	0.2341	0.3929	0.108
Mof_H 	H 	0.6536	0.2105	0.3712	-0.01
Mof_C 	C 	0.6932	0.9784	0.4059	0.117
Mof_H 	H 	0.6307	0.0328	0.3889	-0.018
Mof_C 	C 	0.7298	0.8896	0.3856	-0.134
Mof_H 	H 	0.6921	0.8837	0.3549	0.102
Mof_C 	C 	0.869	0.2471	0.4404	0.162
Mof_H 	H 	0.7977	0.289	0.4606	-0.025
Mof_C 	C 	0.866	0.152	0.439	-0.333
Mof_C 	C 	0.9733	0.0945	0.4077	0.16
Mof_H 	H 	0.9769	0.0298	0.4058	-0.027
Mof_C 	C 	0.604	0.0416	0.63	-0.138
Mof_H 	H 	0.558	0.9988	0.6491	0.091
Mof_C 	C 	0.633	0.043	0.5753	0.118
Mof_H 	H 	0.6045	0.0021	0.557	-0.023
Mof_C 	C 	0.4887	0.2541	0.8828	0.231
Mof_C 	C 	0.4228	0.3484	0.9064	0.047
Mof_C 	C 	0.3594	0.3458	0.9572	-0.15
Mof_H 	H 	0.3658	0.2862	0.9782	0.094
Mof_C 	C 	0.2303	0.4165	0.378	0.228
Mof_C 	C 	0.0768	0.6072	0.1546	0.044
Mof_C 	C 	0.2062	0.5831	0.129	-0.146
Mof_H 	H 	0.2816	0.5594	0.1496	0.097
Mof_C 	C 	0.9669	0.6438	0.1226	-0.135
Mof_H 	H 	0.8768	0.6638	0.1391	0.102
Mof_C 	C 	0.9711	0.2809	0.4136	-0.2
Mof_H 	H 	0.9704	0.345	0.4157	0.123
Mof_C 	C 	0.0748	0.2211	0.3835	0.121
Mof_H 	H 	0.1467	0.2436	0.3656	0.006
Mof_C 	C 	0.074	0.1293	0.3796	-0.199
Mof_H 	H 	0.143	0.0896	0.3575	0.109
Mof_C 	C 	0.988	0.651	0.0683	0.133
Mof_H 	H 	0.9128	0.6734	0.0476	-0.019
Mof_C 	C 	0.229	0.5922	0.0753	0.143
Mof_H 	H 	0.3198	0.5758	0.0593	-0.027
Mof_C 	C 	0.4132	0.4357	0.8748	-0.153
Mof_H 	H 	0.4557	0.4371	0.8396	0.104
Mof_C 	C 	0.3406	0.5195	0.8963	0.145
Mof_H 	H 	0.3354	0.5789	0.8752	-0.026
Mof_C 	C 	0.2848	0.4333	0.9772	0.137
Mof_H 	H 	0.2405	0.4319	0.0121	-0.026
Mof_C 	C 	0.2347	0.7345	0.9458	-0.348
Mof_C 	C 	0.3111	0.7665	0.976	0.163
Mof_H 	H 	0.315	0.7424	0.0124	-0.024
Mof_C 	C 	0.3807	0.8311	0.9556	-0.17
Mof_H 	H 	0.4271	0.8528	0.9784	0.11
Mof_C 	C 	0.1221	0.6251	0.0431	-0.324
Mof_C 	C 	0.2739	0.5216	0.9474	-0.335
Mof_C 	C 	0.0006	0.6718	0.9343	-0.367
Mof_C 	C 	0.9674	0.6135	0.9041	0.199
Mof_H 	H 	0.0268	0.5499	0.9023	-0.041
Mof_C 	C 	0.8539	0.6411	0.8765	-0.23
Mof_H 	H 	0.8364	0.5975	0.8565	0.122
Mof_C 	C 	0.3225	0.8288	0.8715	-0.162
Mof_H 	H 	0.3339	0.844	0.8342	0.107
Mof_C 	C 	0.3837	0.8639	0.9036	0.067
Mof_C 	C 	0.908	0.7612	0.9375	0.175
Mof_H 	H 	0.9245	0.804	0.9583	-0.028
Mof_C 	C 	0.7669	0.7324	0.8784	0.143
Mof_H 	H 	0.6929	0.7539	0.8571	-0.001
Mof_C 	C 	0.2409	0.769	0.8939	0.162
Mof_H 	H 	0.1883	0.7525	0.8713	-0.026
Mof_C 	C 	0.784	0.793	0.9102	-0.207
Mof_H 	H 	0.7188	0.8537	0.9145	0.124
Mof_C 	C 	0.4504	0.9366	0.879	0.217
Mof_U 	U 	0.96412	0.42594	0.67477	0.004
Mof_U 	U 	0.47479	0.90136	0.17389	0.006
Mof_Si	Si	0.2781	0.88983	0.52764	0.834
Mof_Si	Si	0.8428	0.363	0.03082	0.887
Mof_O 	O 	0.522	0.0529	0.1708	-0.174
Mof_O 	O 	0.4484	0.9603	0.2605	-0.177
Mof_O 	O 	0.39	0.8284	0.2611	-0.163
Mof_O 	O 	0.5149	0.8236	0.092	-0.186
Mof_O 	O 	0.4586	0.7427	0.1659	-0.168
Mof_O 	O 	0.531	0.0035	0.094	-0.174
Mof_O 	O 	0.1516	0.2793	0.663	-0.17
Mof_O 	O 	0.0573	0.3577	0.5909	-0.173
Mof_O 	O 	0.8651	0.5296	0.5947	-0.179
Mof_O 	O 	0.7678	0.5728	0.6733	-0.173
Mof_O 	O 	0.8635	0.4757	0.7615	-0.172
Mof_O 	O 	0.0429	0.3467	0.762	-0.162
Mof_C 	C 	0.2555	0.8379	0.4254	0.137
Mof_H 	H 	0.2036	0.7986	0.444	-0.019
Mof_C 	C 	0.296	0.8957	0.4532	-0.309
Mof_C 	C 	0.2882	0.8354	0.371	-0.139
Mof_H 	H 	0.2635	0.7922	0.3531	0.107
Mof_C 	C 	0.3575	0.8969	0.3433	0.042
Mof_C 	C 	0.2516	0.0119	0.5486	-0.304
Mof_C 	C 	0.1656	0.0939	0.5233	0.122
Mof_H 	H 	0.1317	0.0895	0.4914	-0.021
Mof_C 	C 	0.1283	0.1818	0.5433	-0.138
Mof_H 	H 	0.0681	0.237	0.5259	0.092
Mof_C 	C 	0.1808	0.1884	0.5902	0.04
Mof_C 	C 	0.1294	0.2795	0.616	0.228
Mof_C 	C 	0.402	0.8956	0.2856	0.231
Mof_C 	C 	0.9463	0.4047	0.7873	0.225
Mof_C 	C 	0.4345	0.8007	0.5524	-0.301
Mof_C 	C 	0.5552	0.7627	0.5223	0.126
Mof_H 	H 	0.5641	0.7854	0.4857	-0.012
Mof_C 	C 	0.6645	0.6917	0.5442	-0.13
Mof_H 	H 	0.7452	0.666	0.5222	0.096
Mof_C 	C 	0.6565	0.6584	0.5979	0.031
Mof_C 	C 	0.5379	0.6988	0.6301	-0.12
Mof_H 	H 	0.5325	0.6804	0.6673	0.093
Mof_C 	C 	0.4285	0.7659	0.6071	0.108
Mof_H 	H 	0.3464	0.7895	0.6288	-0.01
Mof_C 	C 	0.3068	0.0216	0.5941	0.117
Mof_H 	H 	0.3693	0.9672	0.6111	-0.018
Mof_C 	C 	0.2702	0.1104	0.6144	-0.134
Mof_H 	H 	0.3079	0.1163	0.6451	0.102
Mof_C 	C 	0.131	0.7529	0.5596	0.162
Mof_H 	H 	0.2023	0.711	0.5394	-0.025
Mof_C 	C 	0.134	0.848	0.561	-0.333
Mof_C 	C 	0.0267	0.9055	0.5923	0.16
Mof_H 	H 	0.0231	0.9702	0.5942	-0.027
Mof_C 	C 	0.396	0.9584	0.37	-0.138
Mof_H 	H 	0.442	0.0012	0.3509	0.091
Mof_C 	C 	0.367	0.957	0.4247	0.118
Mof_H 	H 	0.3955	0.9979	0.443	-0.023
Mof_C 	C 	0.5113	0.7459	0.1172	0.231
Mof_C 	C 	0.5772	0.6516	0.0936	0.047
Mof_C 	C 	0.6406	0.6542	0.0428	-0.15
Mof_H 	H 	0.6342	0.7138	0.0218	0.094
Mof_C 	C 	0.7697	0.5835	0.622	0.228
Mof_C 	C 	0.9232	0.3928	0.8454	0.044
Mof_C 	C 	0.7938	0.4169	0.871	-0.146
Mof_H 	H 	0.7184	0.4406	0.8504	0.097
Mof_C 	C 	0.0331	0.3562	0.8774	-0.135
Mof_H 	H 	0.1232	0.3362	0.8609	0.102
Mof_C 	C 	0.0289	0.7191	0.5864	-0.2
Mof_H 	H 	0.0296	0.655	0.5843	0.123
Mof_C 	C 	0.9252	0.7789	0.6165	0.121
Mof_H 	H 	0.8533	0.7564	0.6344	0.006
Mof_C 	C 	0.926	0.8707	0.6204	-0.199
Mof_H 	H 	0.857	0.9104	0.6425	0.109
Mof_C 	C 	0.012	0.349	0.9317	0.133
Mof_H 	H 	0.0872	0.3266	0.9524	-0.019
Mof_C 	C 	0.771	0.4078	0.9247	0.143
Mof_H 	H 	0.6802	0.4242	0.9407	-0.027
Mof_C 	C 	0.5868	0.5643	0.1252	-0.153
Mof_H 	H 	0.5443	0.5629	0.1604	0.104
Mof_C 	C 	0.6594	0.4805	0.1037	0.145
Mof_H 	H 	0.6646	0.4211	0.1248	-0.026
Mof_C 	C 	0.7152	0.5667	0.0228	0.137
Mof_H 	H 	0.7595	0.5681	0.9879	-0.026
Mof_C 	C 	0.7653	0.2655	0.0542	-0.348
Mof_C 	C 	0.6889	0.2335	0.024	0.163
Mof_H 	H 	0.685	0.2576	0.9876	-0.024
Mof_C 	C 	0.6193	0.1689	0.0444	-0.17
Mof_H 	H 	0.5729	0.1472	0.0216	0.11
Mof_C 	C 	0.8779	0.3749	0.9569	-0.324
Mof_C 	C 	0.7261	0.4784	0.0526	-0.335
Mof_C 	C 	0.9994	0.3282	0.0657	-0.367
Mof_C 	C 	0.0326	0.3865	0.0959	0.199
Mof_H 	H 	0.9732	0.4501	0.0977	-0.041
Mof_C 	C 	0.1461	0.3589	0.1235	-0.23
Mof_H 	H 	0.1636	0.4025	0.1435	0.122
Mof_C 	C 	0.6775	0.1712	0.1285	-0.162
Mof_H 	H 	0.6661	0.156	0.1658	0.107
Mof_C 	C 	0.6163	0.1361	0.0964	0.067
Mof_C 	C 	0.092	0.2388	0.0625	0.175
Mof_H 	H 	0.0755	0.196	0.0417	-0.028
Mof_C 	C 	0.2331	0.2676	0.1216	0.143
Mof_H 	H 	0.3071	0.2461	0.1429	-0.001
Mof_C 	C 	0.7591	0.231	0.1061	0.162
Mof_H 	H 	0.8117	0.2475	0.1287	-0.026
Mof_C 	C 	0.216	0.207	0.0898	-0.207
Mof_H 	H 	0.2812	0.1463	0.0855	0.124
Mof_C 	C 	0.5496	0.0634	0.121	0.217
_end
