data_functionalizedCrystal
_audit_creation_method	'EQeq! by Chris Wilmer'
_symmetry_space_group_name_H-M	'P1'
_symmetry_Int_Tables_number	1
_symmetry_cell_setting	triclinic
loop_
_symmetry_equiv_pos_as_xyz
  x,y,z
_cell_length_a	27.2448
_cell_length_b	27.2448
_cell_length_c	19.2254
_cell_angle_alpha	90
_cell_angle_beta	90
_cell_angle_gamma	90
loop_
_atom_site_label
_atom_site_type_symbol
_atom_site_fract_x
_atom_site_fract_y
_atom_site_fract_z
_atom_site_charge
Mof_C 	C 	0.1927	0.1574	0.2508	-0.009
Mof_H 	H 	0.203	0.1395	0.2893	-0.004
Mof_C 	C 	0.3255	0.1446	0.0345	0.035
Mof_H 	H 	0.3495	0.1586	0.0625	-0.013
Mof_H 	H 	0.1956	0.0894	0.9586	0.161
Mof_C 	C 	0.3608	0.1017	0.2383	-0.006
Mof_H 	H 	0.3628	0.0677	0.2393	-0.002
Mof_C 	C 	0.3704	0.1112	0.2171	-0.004
Mof_H 	H 	0.3861	0.0915	0.1846	0.001
Mof_C 	C 	0.2164	0.0278	0.2275	-0.014
Mof_H 	H 	0.199	0.0487	0.2568	0
Mof_C 	C 	0.2009	0.0244	0.191	-0.011
Mof_H 	H 	0.1742	0.0443	0.2009	0
Mof_N 	N 	0.32316	0.13076	0.21521	-0.289
Mof_N 	N 	0.24833	0.04064	0.1735	-0.301
Mof_N 	N 	0.21044	0.15277	0.185	-0.292
Mof_N 	N 	0.28516	0.1209	0.0579	-0.326
Mof_Zn	Zn	0.26649	0.11025	0.15652	1.171
Mof_C 	C 	0.6927	0.6574	0.7508	-0.01
Mof_H 	H 	0.703	0.6395	0.7893	-0.005
Mof_C 	C 	0.8255	0.6446	0.5345	-0.011
Mof_H 	H 	0.8495	0.6586	0.5625	-0.002
Mof_H 	H 	0.6956	0.5894	0.4586	0.198
Mof_C 	C 	0.8608	0.6017	0.7383	-0.007
Mof_H 	H 	0.8628	0.5677	0.7393	-0.004
Mof_C 	C 	0.8704	0.6112	0.7171	-0.005
Mof_H 	H 	0.8861	0.5915	0.6846	-0.001
Mof_C 	C 	0.7164	0.5278	0.7275	-0.012
Mof_H 	H 	0.699	0.5487	0.7568	-0.003
Mof_C 	C 	0.7009	0.5244	0.691	-0.014
Mof_H 	H 	0.6742	0.5443	0.7009	-0.002
Mof_N 	N 	0.82316	0.63076	0.71521	-0.291
Mof_N 	N 	0.74833	0.54064	0.6735	-0.303
Mof_N 	N 	0.71044	0.65277	0.685	-0.293
Mof_N 	N 	0.78516	0.6209	0.5579	-0.323
Mof_Zn	Zn	0.76649	0.61025	0.65652	1.17
Mof_C 	C 	0.8073	0.8426	0.2508	-0.01
Mof_H 	H 	0.797	0.8605	0.2893	-0.004
Mof_C 	C 	0.6745	0.8554	0.0345	0.034
Mof_H 	H 	0.6505	0.8414	0.0625	-0.014
Mof_H 	H 	0.8044	0.9106	0.9586	0.162
Mof_C 	C 	0.6392	0.8983	0.2383	-0.008
Mof_H 	H 	0.6372	0.9323	0.2393	-0.002
Mof_C 	C 	0.6296	0.8888	0.2171	-0.005
Mof_H 	H 	0.6139	0.9085	0.1846	0
Mof_C 	C 	0.7836	0.9722	0.2275	-0.011
Mof_H 	H 	0.801	0.9513	0.2568	-0.001
Mof_C 	C 	0.7991	0.9756	0.191	-0.011
Mof_H 	H 	0.8258	0.9557	0.2009	-0
Mof_N 	N 	0.67684	0.86924	0.21521	-0.29
Mof_N 	N 	0.75167	0.95936	0.1735	-0.301
Mof_N 	N 	0.78956	0.84723	0.185	-0.292
Mof_N 	N 	0.71484	0.8791	0.0579	-0.327
Mof_Zn	Zn	0.73351	0.88975	0.15652	1.171
Mof_C 	C 	0.3073	0.3426	0.7508	-0.011
Mof_H 	H 	0.297	0.3605	0.7893	-0.006
Mof_C 	C 	0.1745	0.3554	0.5345	-0.012
Mof_H 	H 	0.1505	0.3414	0.5625	-0.002
Mof_H 	H 	0.3044	0.4106	0.4586	0.198
Mof_C 	C 	0.1392	0.3983	0.7383	-0.008
Mof_H 	H 	0.1372	0.4323	0.7393	-0.004
Mof_C 	C 	0.1296	0.3888	0.7171	-0.005
Mof_H 	H 	0.1139	0.4085	0.6846	-0.002
Mof_C 	C 	0.2836	0.4722	0.7275	-0.012
Mof_H 	H 	0.301	0.4513	0.7568	-0.003
Mof_C 	C 	0.2991	0.4756	0.691	-0.014
Mof_H 	H 	0.3258	0.4557	0.7009	-0.002
Mof_N 	N 	0.17684	0.36924	0.71521	-0.291
Mof_N 	N 	0.25167	0.45936	0.6735	-0.303
Mof_N 	N 	0.28956	0.34723	0.685	-0.293
Mof_N 	N 	0.21484	0.3791	0.5579	-0.323
Mof_Zn	Zn	0.23351	0.38975	0.65652	1.17
Mof_C 	C 	0.8426	0.1927	0.2508	-0.01
Mof_H 	H 	0.8605	0.203	0.2893	-0.004
Mof_C 	C 	0.8554	0.3255	0.0345	0.034
Mof_H 	H 	0.8414	0.3495	0.0625	-0.014
Mof_H 	H 	0.9106	0.1956	0.9586	0.162
Mof_C 	C 	0.8983	0.3608	0.2383	-0.008
Mof_H 	H 	0.9323	0.3628	0.2393	-0.002
Mof_C 	C 	0.8888	0.3704	0.2171	-0.005
Mof_H 	H 	0.9085	0.3861	0.1846	0
Mof_C 	C 	0.9722	0.2164	0.2275	-0.011
Mof_H 	H 	0.9513	0.199	0.2568	-0.001
Mof_C 	C 	0.9756	0.2009	0.191	-0.011
Mof_H 	H 	0.9557	0.1742	0.2009	-0.001
Mof_N 	N 	0.86924	0.32316	0.21521	-0.29
Mof_N 	N 	0.95936	0.24833	0.1735	-0.301
Mof_N 	N 	0.84723	0.21044	0.185	-0.292
Mof_N 	N 	0.8791	0.28516	0.0579	-0.327
Mof_Zn	Zn	0.88975	0.26649	0.15652	1.171
Mof_C 	C 	0.3426	0.6927	0.7508	-0.011
Mof_H 	H 	0.3605	0.703	0.7893	-0.006
Mof_C 	C 	0.3554	0.8255	0.5345	-0.012
Mof_H 	H 	0.3414	0.8495	0.5625	-0.002
Mof_H 	H 	0.4106	0.6956	0.4586	0.198
Mof_C 	C 	0.3983	0.8608	0.7383	-0.007
Mof_H 	H 	0.4323	0.8628	0.7393	-0.004
Mof_C 	C 	0.3888	0.8704	0.7171	-0.005
Mof_H 	H 	0.4085	0.8861	0.6846	-0.001
Mof_C 	C 	0.4722	0.7164	0.7275	-0.012
Mof_H 	H 	0.4513	0.699	0.7568	-0.003
Mof_C 	C 	0.4756	0.7009	0.691	-0.014
Mof_H 	H 	0.4557	0.6742	0.7009	-0.002
Mof_N 	N 	0.36924	0.82316	0.71521	-0.291
Mof_N 	N 	0.45936	0.74833	0.6735	-0.303
Mof_N 	N 	0.34723	0.71044	0.685	-0.293
Mof_N 	N 	0.3791	0.78516	0.5579	-0.323
Mof_Zn	Zn	0.38975	0.76649	0.65652	1.17
Mof_C 	C 	0.1574	0.8073	0.2508	-0.01
Mof_H 	H 	0.1395	0.797	0.2893	-0.004
Mof_C 	C 	0.1446	0.6745	0.0345	0.034
Mof_H 	H 	0.1586	0.6505	0.0625	-0.014
Mof_H 	H 	0.0894	0.8044	0.9586	0.161
Mof_C 	C 	0.1017	0.6392	0.2383	-0.007
Mof_H 	H 	0.0677	0.6372	0.2393	-0.003
Mof_C 	C 	0.1112	0.6296	0.2171	-0.005
Mof_H 	H 	0.0915	0.6139	0.1846	-0
Mof_C 	C 	0.0278	0.7836	0.2275	-0.015
Mof_H 	H 	0.0487	0.801	0.2568	-0.001
Mof_C 	C 	0.0244	0.7991	0.191	-0.012
Mof_H 	H 	0.0443	0.8258	0.2009	-0.001
Mof_N 	N 	0.13076	0.67684	0.21521	-0.29
Mof_N 	N 	0.04064	0.75167	0.1735	-0.302
Mof_N 	N 	0.15277	0.78956	0.185	-0.293
Mof_N 	N 	0.1209	0.71484	0.0579	-0.327
Mof_Zn	Zn	0.11025	0.73351	0.15652	1.17
Mof_C 	C 	0.6574	0.3073	0.7508	-0.011
Mof_H 	H 	0.6395	0.297	0.7893	-0.006
Mof_C 	C 	0.6446	0.1745	0.5345	-0.012
Mof_H 	H 	0.6586	0.1505	0.5625	-0.002
Mof_H 	H 	0.5894	0.3044	0.4586	0.198
Mof_C 	C 	0.6017	0.1392	0.7383	-0.008
Mof_H 	H 	0.5677	0.1372	0.7393	-0.004
Mof_C 	C 	0.6112	0.1296	0.7171	-0.005
Mof_H 	H 	0.5915	0.1139	0.6846	-0.002
Mof_C 	C 	0.5278	0.2836	0.7275	-0.012
Mof_H 	H 	0.5487	0.301	0.7568	-0.003
Mof_C 	C 	0.5244	0.2991	0.691	-0.014
Mof_H 	H 	0.5443	0.3258	0.7009	-0.002
Mof_N 	N 	0.63076	0.17684	0.71521	-0.291
Mof_N 	N 	0.54064	0.25167	0.6735	-0.303
Mof_N 	N 	0.65277	0.28956	0.685	-0.293
Mof_N 	N 	0.6209	0.21484	0.5579	-0.323
Mof_Zn	Zn	0.61025	0.23351	0.65652	1.17
Mof_C 	C 	0.8073	0.1574	0.7492	-0.01
Mof_H 	H 	0.797	0.1395	0.7107	-0.005
Mof_C 	C 	0.6745	0.1446	0.9655	-0.059
Mof_H 	H 	0.6505	0.1586	0.9375	0.009
Mof_H 	H 	0.8044	0.0894	0.0414	0.178
Mof_C 	C 	0.6392	0.1017	0.7617	-0.009
Mof_H 	H 	0.6372	0.0677	0.7607	-0.003
Mof_C 	C 	0.6296	0.1112	0.7829	-0.003
Mof_H 	H 	0.6139	0.0915	0.8154	-0.004
Mof_C 	C 	0.7836	0.0278	0.7725	-0.009
Mof_H 	H 	0.801	0.0487	0.7432	-0.003
Mof_C 	C 	0.7991	0.0244	0.809	-0.019
Mof_H 	H 	0.8258	0.0443	0.7991	-0.001
Mof_N 	N 	0.67684	0.13076	0.78479	-0.291
Mof_N 	N 	0.75167	0.04064	0.8265	-0.304
Mof_N 	N 	0.78956	0.15277	0.815	-0.294
Mof_N 	N 	0.71484	0.1209	0.9421	-0.324
Mof_Zn	Zn	0.73351	0.11025	0.84348	1.169
Mof_C 	C 	0.3073	0.6574	0.2492	-0.01
Mof_H 	H 	0.297	0.6395	0.2107	-0.003
Mof_C 	C 	0.1745	0.6446	0.4655	-0.012
Mof_H 	H 	0.1505	0.6586	0.4375	-0.002
Mof_H 	H 	0.3044	0.5894	0.5414	0.198
Mof_C 	C 	0.1392	0.6017	0.2617	-0.009
Mof_H 	H 	0.1372	0.5677	0.2607	-0.002
Mof_C 	C 	0.1296	0.6112	0.2829	-0.003
Mof_H 	H 	0.1139	0.5915	0.3154	-0.002
Mof_C 	C 	0.2836	0.5278	0.2725	-0.007
Mof_H 	H 	0.301	0.5487	0.2432	-0.002
Mof_C 	C 	0.2991	0.5244	0.309	-0.018
Mof_H 	H 	0.3258	0.5443	0.2991	0
Mof_N 	N 	0.17684	0.63076	0.28479	-0.29
Mof_N 	N 	0.25167	0.54064	0.3265	-0.303
Mof_N 	N 	0.28956	0.65277	0.315	-0.293
Mof_N 	N 	0.21484	0.6209	0.4421	-0.323
Mof_Zn	Zn	0.23351	0.61025	0.34348	1.17
Mof_C 	C 	0.1927	0.8426	0.7492	-0.01
Mof_H 	H 	0.203	0.8605	0.7107	-0.004
Mof_C 	C 	0.3255	0.8554	0.9655	-0.059
Mof_H 	H 	0.3495	0.8414	0.9375	0.01
Mof_H 	H 	0.1956	0.9106	0.0414	0.179
Mof_C 	C 	0.3608	0.8983	0.7617	-0.009
Mof_H 	H 	0.3628	0.9323	0.7607	-0.003
Mof_C 	C 	0.3704	0.8888	0.7829	-0.003
Mof_H 	H 	0.3861	0.9085	0.8154	-0.004
Mof_C 	C 	0.2164	0.9722	0.7725	-0.004
Mof_H 	H 	0.199	0.9513	0.7432	-0.004
Mof_C 	C 	0.2009	0.9756	0.809	-0.019
Mof_H 	H 	0.1742	0.9557	0.7991	-0.001
Mof_N 	N 	0.32316	0.86924	0.78479	-0.291
Mof_N 	N 	0.24833	0.95936	0.8265	-0.303
Mof_N 	N 	0.21044	0.84723	0.815	-0.294
Mof_N 	N 	0.28516	0.8791	0.9421	-0.324
Mof_Zn	Zn	0.26649	0.88975	0.84348	1.169
Mof_C 	C 	0.6927	0.3426	0.2492	-0.01
Mof_H 	H 	0.703	0.3605	0.2107	-0.003
Mof_C 	C 	0.8255	0.3554	0.4655	-0.012
Mof_H 	H 	0.8495	0.3414	0.4375	-0.002
Mof_H 	H 	0.6956	0.4106	0.5414	0.198
Mof_C 	C 	0.8608	0.3983	0.2617	-0.009
Mof_H 	H 	0.8628	0.4323	0.2607	-0.001
Mof_C 	C 	0.8704	0.3888	0.2829	-0.003
Mof_H 	H 	0.8861	0.4085	0.3154	-0.002
Mof_C 	C 	0.7164	0.4722	0.2725	-0.007
Mof_H 	H 	0.699	0.4513	0.2432	-0.002
Mof_C 	C 	0.7009	0.4756	0.309	-0.018
Mof_H 	H 	0.6742	0.4557	0.2991	0
Mof_N 	N 	0.82316	0.36924	0.28479	-0.29
Mof_N 	N 	0.74833	0.45936	0.3265	-0.303
Mof_N 	N 	0.71044	0.34723	0.315	-0.293
Mof_N 	N 	0.78516	0.3791	0.4421	-0.323
Mof_Zn	Zn	0.76649	0.38975	0.34348	1.17
Mof_C 	C 	0.1574	0.1927	0.7492	-0.01
Mof_H 	H 	0.1395	0.203	0.7107	-0.005
Mof_C 	C 	0.1446	0.3255	0.9655	-0.059
Mof_H 	H 	0.1586	0.3495	0.9375	0.009
Mof_H 	H 	0.0894	0.1956	0.0414	0.178
Mof_C 	C 	0.1017	0.3608	0.7617	-0.009
Mof_H 	H 	0.0677	0.3628	0.7607	-0.003
Mof_C 	C 	0.1112	0.3704	0.7829	-0.003
Mof_H 	H 	0.0915	0.3861	0.8154	-0.004
Mof_C 	C 	0.0278	0.2164	0.7725	-0.009
Mof_H 	H 	0.0487	0.199	0.7432	-0.003
Mof_C 	C 	0.0244	0.2009	0.809	-0.02
Mof_H 	H 	0.0443	0.1742	0.7991	-0.001
Mof_N 	N 	0.13076	0.32316	0.78479	-0.291
Mof_N 	N 	0.04064	0.24833	0.8265	-0.304
Mof_N 	N 	0.15277	0.21044	0.815	-0.294
Mof_N 	N 	0.1209	0.28516	0.9421	-0.324
Mof_Zn	Zn	0.11025	0.26649	0.84348	1.169
Mof_C 	C 	0.6574	0.6927	0.2492	-0.01
Mof_H 	H 	0.6395	0.703	0.2107	-0.003
Mof_C 	C 	0.6446	0.8255	0.4655	-0.012
Mof_H 	H 	0.6586	0.8495	0.4375	-0.002
Mof_H 	H 	0.5894	0.6956	0.5414	0.198
Mof_C 	C 	0.6017	0.8608	0.2617	-0.009
Mof_H 	H 	0.5677	0.8628	0.2607	-0.002
Mof_C 	C 	0.6112	0.8704	0.2829	-0.003
Mof_H 	H 	0.5915	0.8861	0.3154	-0.002
Mof_C 	C 	0.5278	0.7164	0.2725	-0.007
Mof_H 	H 	0.5487	0.699	0.2432	-0.002
Mof_C 	C 	0.5244	0.7009	0.309	-0.018
Mof_H 	H 	0.5443	0.6742	0.2991	0
Mof_N 	N 	0.63076	0.82316	0.28479	-0.29
Mof_N 	N 	0.54064	0.74833	0.3265	-0.303
Mof_N 	N 	0.65277	0.71044	0.315	-0.293
Mof_N 	N 	0.6209	0.78516	0.4421	-0.323
Mof_Zn	Zn	0.61025	0.76649	0.34348	1.17
Mof_C 	C 	0.8426	0.8073	0.7492	-0.01
Mof_H 	H 	0.8605	0.797	0.7107	-0.004
Mof_C 	C 	0.8554	0.6745	0.9655	-0.059
Mof_H 	H 	0.8414	0.6505	0.9375	0.01
Mof_H 	H 	0.9106	0.8044	0.0414	0.179
Mof_C 	C 	0.8983	0.6392	0.7617	-0.009
Mof_H 	H 	0.9323	0.6372	0.7607	-0.003
Mof_C 	C 	0.8888	0.6296	0.7829	-0.003
Mof_H 	H 	0.9085	0.6139	0.8154	-0.004
Mof_C 	C 	0.9722	0.7836	0.7725	-0.005
Mof_H 	H 	0.9513	0.801	0.7432	-0.004
Mof_C 	C 	0.9756	0.7991	0.809	-0.018
Mof_H 	H 	0.9557	0.8258	0.7991	-0
Mof_N 	N 	0.86924	0.67684	0.78479	-0.291
Mof_N 	N 	0.95936	0.75167	0.8265	-0.303
Mof_N 	N 	0.84723	0.78956	0.815	-0.294
Mof_N 	N 	0.8791	0.71484	0.9421	-0.324
Mof_Zn	Zn	0.88975	0.73351	0.84348	1.169
Mof_C 	C 	0.3426	0.3073	0.2492	-0.01
Mof_H 	H 	0.3605	0.297	0.2107	-0.003
Mof_C 	C 	0.3554	0.1745	0.4655	-0.012
Mof_H 	H 	0.3414	0.1505	0.4375	-0.002
Mof_H 	H 	0.4106	0.3044	0.5414	0.198
Mof_C 	C 	0.3983	0.1392	0.2617	-0.009
Mof_H 	H 	0.4323	0.1372	0.2607	-0.002
Mof_C 	C 	0.3888	0.1296	0.2829	-0.003
Mof_H 	H 	0.4085	0.1139	0.3154	-0.002
Mof_C 	C 	0.4722	0.2836	0.2725	-0.007
Mof_H 	H 	0.4513	0.301	0.2432	-0.002
Mof_C 	C 	0.4756	0.2991	0.309	-0.018
Mof_H 	H 	0.4557	0.3258	0.2991	0
Mof_N 	N 	0.36924	0.17684	0.28479	-0.29
Mof_N 	N 	0.45936	0.25167	0.3265	-0.303
Mof_N 	N 	0.34723	0.28956	0.315	-0.293
Mof_N 	N 	0.3791	0.21484	0.4421	-0.323
Mof_Zn	Zn	0.38975	0.23351	0.34348	1.17
Mof_C 	C 	0.8073	0.8426	0.7492	-0.01
Mof_H 	H 	0.797	0.8605	0.7107	-0.004
Mof_C 	C 	0.6745	0.8554	0.9655	-0.059
Mof_H 	H 	0.6505	0.8414	0.9375	0.01
Mof_H 	H 	0.8044	0.9106	0.0414	0.179
Mof_C 	C 	0.6392	0.8983	0.7617	-0.009
Mof_H 	H 	0.6372	0.9323	0.7607	-0.003
Mof_C 	C 	0.6296	0.8888	0.7829	-0.003
Mof_H 	H 	0.6139	0.9085	0.8154	-0.004
Mof_C 	C 	0.7836	0.9722	0.7725	-0.005
Mof_H 	H 	0.801	0.9513	0.7432	-0.004
Mof_C 	C 	0.7991	0.9756	0.809	-0.018
Mof_H 	H 	0.8258	0.9557	0.7991	-0
Mof_N 	N 	0.67684	0.86924	0.78479	-0.291
Mof_N 	N 	0.75167	0.95936	0.8265	-0.303
Mof_N 	N 	0.78956	0.84723	0.815	-0.294
Mof_N 	N 	0.71484	0.8791	0.9421	-0.324
Mof_Zn	Zn	0.73351	0.88975	0.84348	1.169
Mof_C 	C 	0.3073	0.3426	0.2492	-0.01
Mof_H 	H 	0.297	0.3605	0.2107	-0.003
Mof_C 	C 	0.1745	0.3554	0.4655	-0.012
Mof_H 	H 	0.1505	0.3414	0.4375	-0.002
Mof_H 	H 	0.3044	0.4106	0.5414	0.198
Mof_C 	C 	0.1392	0.3983	0.2617	-0.009
Mof_H 	H 	0.1372	0.4323	0.2607	-0.002
Mof_C 	C 	0.1296	0.3888	0.2829	-0.003
Mof_H 	H 	0.1139	0.4085	0.3154	-0.002
Mof_C 	C 	0.2836	0.4722	0.2725	-0.007
Mof_H 	H 	0.301	0.4513	0.2432	-0.002
Mof_C 	C 	0.2991	0.4756	0.309	-0.018
Mof_H 	H 	0.3258	0.4557	0.2991	0
Mof_N 	N 	0.17684	0.36924	0.28479	-0.29
Mof_N 	N 	0.25167	0.45936	0.3265	-0.303
Mof_N 	N 	0.28956	0.34723	0.315	-0.293
Mof_N 	N 	0.21484	0.3791	0.4421	-0.323
Mof_Zn	Zn	0.23351	0.38975	0.34348	1.17
Mof_C 	C 	0.1927	0.1574	0.7492	-0.01
Mof_H 	H 	0.203	0.1395	0.7107	-0.005
Mof_C 	C 	0.3255	0.1446	0.9655	-0.059
Mof_H 	H 	0.3495	0.1586	0.9375	0.009
Mof_H 	H 	0.1956	0.0894	0.0414	0.178
Mof_C 	C 	0.3608	0.1017	0.7617	-0.009
Mof_H 	H 	0.3628	0.0677	0.7607	-0.003
Mof_C 	C 	0.3704	0.1112	0.7829	-0.003
Mof_H 	H 	0.3861	0.0915	0.8154	-0.004
Mof_C 	C 	0.2164	0.0278	0.7725	-0.009
Mof_H 	H 	0.199	0.0487	0.7432	-0.003
Mof_C 	C 	0.2009	0.0244	0.809	-0.02
Mof_H 	H 	0.1742	0.0443	0.7991	-0.001
Mof_N 	N 	0.32316	0.13076	0.78479	-0.291
Mof_N 	N 	0.24833	0.04064	0.8265	-0.304
Mof_N 	N 	0.21044	0.15277	0.815	-0.294
Mof_N 	N 	0.28516	0.1209	0.9421	-0.324
Mof_Zn	Zn	0.26649	0.11025	0.84348	1.169
Mof_C 	C 	0.6927	0.6574	0.2492	-0.01
Mof_H 	H 	0.703	0.6395	0.2107	-0.003
Mof_C 	C 	0.8255	0.6446	0.4655	-0.012
Mof_H 	H 	0.8495	0.6586	0.4375	-0.002
Mof_H 	H 	0.6956	0.5894	0.5414	0.198
Mof_C 	C 	0.8608	0.6017	0.2617	-0.009
Mof_H 	H 	0.8628	0.5677	0.2607	-0.002
Mof_C 	C 	0.8704	0.6112	0.2829	-0.003
Mof_H 	H 	0.8861	0.5915	0.3154	-0.002
Mof_C 	C 	0.7164	0.5278	0.2725	-0.007
Mof_H 	H 	0.699	0.5487	0.2432	-0.002
Mof_C 	C 	0.7009	0.5244	0.309	-0.018
Mof_H 	H 	0.6742	0.5443	0.2991	0
Mof_N 	N 	0.82316	0.63076	0.28479	-0.29
Mof_N 	N 	0.74833	0.54064	0.3265	-0.303
Mof_N 	N 	0.71044	0.65277	0.315	-0.293
Mof_N 	N 	0.78516	0.6209	0.4421	-0.323
Mof_Zn	Zn	0.76649	0.61025	0.34348	1.17
Mof_C 	C 	0.1574	0.8073	0.7492	-0.01
Mof_H 	H 	0.1395	0.797	0.7107	-0.005
Mof_C 	C 	0.1446	0.6745	0.9655	-0.059
Mof_H 	H 	0.1586	0.6505	0.9375	0.009
Mof_H 	H 	0.0894	0.8044	0.0414	0.178
Mof_C 	C 	0.1017	0.6392	0.7617	-0.009
Mof_H 	H 	0.0677	0.6372	0.7607	-0.003
Mof_C 	C 	0.1112	0.6296	0.7829	-0.003
Mof_H 	H 	0.0915	0.6139	0.8154	-0.004
Mof_C 	C 	0.0278	0.7836	0.7725	-0.009
Mof_H 	H 	0.0487	0.801	0.7432	-0.003
Mof_C 	C 	0.0244	0.7991	0.809	-0.019
Mof_H 	H 	0.0443	0.8258	0.7991	-0.001
Mof_N 	N 	0.13076	0.67684	0.78479	-0.291
Mof_N 	N 	0.04064	0.75167	0.8265	-0.304
Mof_N 	N 	0.15277	0.78956	0.815	-0.294
Mof_N 	N 	0.1209	0.71484	0.9421	-0.324
Mof_Zn	Zn	0.11025	0.73351	0.84348	1.169
Mof_C 	C 	0.6574	0.3073	0.2492	-0.01
Mof_H 	H 	0.6395	0.297	0.2107	-0.003
Mof_C 	C 	0.6446	0.1745	0.4655	-0.012
Mof_H 	H 	0.6586	0.1505	0.4375	-0.002
Mof_H 	H 	0.5894	0.3044	0.5414	0.198
Mof_C 	C 	0.6017	0.1392	0.2617	-0.009
Mof_H 	H 	0.5677	0.1372	0.2607	-0.002
Mof_C 	C 	0.6112	0.1296	0.2829	-0.003
Mof_H 	H 	0.5915	0.1139	0.3154	-0.002
Mof_C 	C 	0.5278	0.2836	0.2725	-0.007
Mof_H 	H 	0.5487	0.301	0.2432	-0.002
Mof_C 	C 	0.5244	0.2991	0.309	-0.018
Mof_H 	H 	0.5443	0.3258	0.2991	0
Mof_N 	N 	0.63076	0.17684	0.28479	-0.29
Mof_N 	N 	0.54064	0.25167	0.3265	-0.303
Mof_N 	N 	0.65277	0.28956	0.315	-0.293
Mof_N 	N 	0.6209	0.21484	0.4421	-0.323
Mof_Zn	Zn	0.61025	0.23351	0.34348	1.17
Mof_C 	C 	0.8426	0.1927	0.7492	-0.01
Mof_H 	H 	0.8605	0.203	0.7107	-0.004
Mof_C 	C 	0.8554	0.3255	0.9655	-0.059
Mof_H 	H 	0.8414	0.3495	0.9375	0.01
Mof_H 	H 	0.9106	0.1956	0.0414	0.179
Mof_C 	C 	0.8983	0.3608	0.7617	-0.009
Mof_H 	H 	0.9323	0.3628	0.7607	-0.003
Mof_C 	C 	0.8888	0.3704	0.7829	-0.003
Mof_H 	H 	0.9085	0.3861	0.8154	-0.004
Mof_C 	C 	0.9722	0.2164	0.7725	-0.004
Mof_H 	H 	0.9513	0.199	0.7432	-0.004
Mof_C 	C 	0.9756	0.2009	0.809	-0.019
Mof_H 	H 	0.9557	0.1742	0.7991	-0.001
Mof_N 	N 	0.86924	0.32316	0.78479	-0.291
Mof_N 	N 	0.95936	0.24833	0.8265	-0.303
Mof_N 	N 	0.84723	0.21044	0.815	-0.294
Mof_N 	N 	0.8791	0.28516	0.9421	-0.324
Mof_Zn	Zn	0.88975	0.26649	0.84348	1.169
Mof_C 	C 	0.3426	0.6927	0.2492	-0.01
Mof_H 	H 	0.3605	0.703	0.2107	-0.003
Mof_C 	C 	0.3554	0.8255	0.4655	-0.012
Mof_H 	H 	0.3414	0.8495	0.4375	-0.002
Mof_H 	H 	0.4106	0.6956	0.5414	0.198
Mof_C 	C 	0.3983	0.8608	0.2617	-0.009
Mof_H 	H 	0.4323	0.8628	0.2607	-0.001
Mof_C 	C 	0.3888	0.8704	0.2829	-0.003
Mof_H 	H 	0.4085	0.8861	0.3154	-0.002
Mof_C 	C 	0.4722	0.7164	0.2725	-0.007
Mof_H 	H 	0.4513	0.699	0.2432	-0.002
Mof_C 	C 	0.4756	0.7009	0.309	-0.018
Mof_H 	H 	0.4557	0.6742	0.2991	0
Mof_N 	N 	0.36924	0.82316	0.28479	-0.29
Mof_N 	N 	0.45936	0.74833	0.3265	-0.303
Mof_N 	N 	0.34723	0.71044	0.315	-0.293
Mof_N 	N 	0.3791	0.78516	0.4421	-0.323
Mof_Zn	Zn	0.38975	0.76649	0.34348	1.17
Mof_C 	C 	0.1927	0.8426	0.2508	-0.01
Mof_H 	H 	0.203	0.8605	0.2893	-0.004
Mof_C 	C 	0.3255	0.8554	0.0345	0.034
Mof_H 	H 	0.3495	0.8414	0.0625	-0.014
Mof_H 	H 	0.1956	0.9106	0.9586	0.162
Mof_C 	C 	0.3608	0.8983	0.2383	-0.008
Mof_H 	H 	0.3628	0.9323	0.2393	-0.002
Mof_C 	C 	0.3704	0.8888	0.2171	-0.005
Mof_H 	H 	0.3861	0.9085	0.1846	0
Mof_C 	C 	0.2164	0.9722	0.2275	-0.011
Mof_H 	H 	0.199	0.9513	0.2568	-0.001
Mof_C 	C 	0.2009	0.9756	0.191	-0.011
Mof_H 	H 	0.1742	0.9557	0.2009	-0.001
Mof_N 	N 	0.32316	0.86924	0.21521	-0.29
Mof_N 	N 	0.24833	0.95936	0.1735	-0.301
Mof_N 	N 	0.21044	0.84723	0.185	-0.292
Mof_N 	N 	0.28516	0.8791	0.0579	-0.327
Mof_Zn	Zn	0.26649	0.88975	0.15652	1.171
Mof_C 	C 	0.6927	0.3426	0.7508	-0.011
Mof_H 	H 	0.703	0.3605	0.7893	-0.006
Mof_C 	C 	0.8255	0.3554	0.5345	-0.012
Mof_H 	H 	0.8495	0.3414	0.5625	-0.002
Mof_H 	H 	0.6956	0.4106	0.4586	0.198
Mof_C 	C 	0.8608	0.3983	0.7383	-0.007
Mof_H 	H 	0.8628	0.4323	0.7393	-0.004
Mof_C 	C 	0.8704	0.3888	0.7171	-0.005
Mof_H 	H 	0.8861	0.4085	0.6846	-0.001
Mof_C 	C 	0.7164	0.4722	0.7275	-0.012
Mof_H 	H 	0.699	0.4513	0.7568	-0.003
Mof_C 	C 	0.7009	0.4756	0.691	-0.014
Mof_H 	H 	0.6742	0.4557	0.7009	-0.002
Mof_N 	N 	0.82316	0.36924	0.71521	-0.291
Mof_N 	N 	0.74833	0.45936	0.6735	-0.303
Mof_N 	N 	0.71044	0.34723	0.685	-0.293
Mof_N 	N 	0.78516	0.3791	0.5579	-0.323
Mof_Zn	Zn	0.76649	0.38975	0.65652	1.17
Mof_C 	C 	0.8073	0.1574	0.2508	-0.01
Mof_H 	H 	0.797	0.1395	0.2893	-0.004
Mof_C 	C 	0.6745	0.1446	0.0345	0.034
Mof_H 	H 	0.6505	0.1586	0.0625	-0.014
Mof_H 	H 	0.8044	0.0894	0.9586	0.161
Mof_C 	C 	0.6392	0.1017	0.2383	-0.007
Mof_H 	H 	0.6372	0.0677	0.2393	-0.003
Mof_C 	C 	0.6296	0.1112	0.2171	-0.005
Mof_H 	H 	0.6139	0.0915	0.1846	-0
Mof_C 	C 	0.7836	0.0278	0.2275	-0.015
Mof_H 	H 	0.801	0.0487	0.2568	-0.001
Mof_C 	C 	0.7991	0.0244	0.191	-0.012
Mof_H 	H 	0.8258	0.0443	0.2009	-0.001
Mof_N 	N 	0.67684	0.13076	0.21521	-0.29
Mof_N 	N 	0.75167	0.04064	0.1735	-0.302
Mof_N 	N 	0.78956	0.15277	0.185	-0.293
Mof_N 	N 	0.71484	0.1209	0.0579	-0.327
Mof_Zn	Zn	0.73351	0.11025	0.15652	1.17
Mof_C 	C 	0.3073	0.6574	0.7508	-0.011
Mof_H 	H 	0.297	0.6395	0.7893	-0.006
Mof_C 	C 	0.1745	0.6446	0.5345	-0.012
Mof_H 	H 	0.1505	0.6586	0.5625	-0.002
Mof_H 	H 	0.3044	0.5894	0.4586	0.198
Mof_C 	C 	0.1392	0.6017	0.7383	-0.008
Mof_H 	H 	0.1372	0.5677	0.7393	-0.004
Mof_C 	C 	0.1296	0.6112	0.7171	-0.005
Mof_H 	H 	0.1139	0.5915	0.6846	-0.002
Mof_C 	C 	0.2836	0.5278	0.7275	-0.012
Mof_H 	H 	0.301	0.5487	0.7568	-0.003
Mof_C 	C 	0.2991	0.5244	0.691	-0.014
Mof_H 	H 	0.3258	0.5443	0.7009	-0.002
Mof_N 	N 	0.17684	0.63076	0.71521	-0.291
Mof_N 	N 	0.25167	0.54064	0.6735	-0.303
Mof_N 	N 	0.28956	0.65277	0.685	-0.293
Mof_N 	N 	0.21484	0.6209	0.5579	-0.323
Mof_Zn	Zn	0.23351	0.61025	0.65652	1.17
Mof_C 	C 	0.8426	0.8073	0.2508	-0.01
Mof_H 	H 	0.8605	0.797	0.2893	-0.004
Mof_C 	C 	0.8554	0.6745	0.0345	0.034
Mof_H 	H 	0.8414	0.6505	0.0625	-0.014
Mof_H 	H 	0.9106	0.8044	0.9586	0.162
Mof_C 	C 	0.8983	0.6392	0.2383	-0.008
Mof_H 	H 	0.9323	0.6372	0.2393	-0.002
Mof_C 	C 	0.8888	0.6296	0.2171	-0.005
Mof_H 	H 	0.9085	0.6139	0.1846	0
Mof_C 	C 	0.9722	0.7836	0.2275	-0.011
Mof_H 	H 	0.9513	0.801	0.2568	-0.001
Mof_C 	C 	0.9756	0.7991	0.191	-0.011
Mof_H 	H 	0.9557	0.8258	0.2009	-0
Mof_N 	N 	0.86924	0.67684	0.21521	-0.29
Mof_N 	N 	0.95936	0.75167	0.1735	-0.301
Mof_N 	N 	0.84723	0.78956	0.185	-0.292
Mof_N 	N 	0.8791	0.71484	0.0579	-0.327
Mof_Zn	Zn	0.88975	0.73351	0.15652	1.171
Mof_C 	C 	0.3426	0.3073	0.7508	-0.011
Mof_H 	H 	0.3605	0.297	0.7893	-0.006
Mof_C 	C 	0.3554	0.1745	0.5345	-0.012
Mof_H 	H 	0.3414	0.1505	0.5625	-0.002
Mof_H 	H 	0.4106	0.3044	0.4586	0.198
Mof_C 	C 	0.3983	0.1392	0.7383	-0.008
Mof_H 	H 	0.4323	0.1372	0.7393	-0.004
Mof_C 	C 	0.3888	0.1296	0.7171	-0.005
Mof_H 	H 	0.4085	0.1139	0.6846	-0.002
Mof_C 	C 	0.4722	0.2836	0.7275	-0.012
Mof_H 	H 	0.4513	0.301	0.7568	-0.003
Mof_C 	C 	0.4756	0.2991	0.691	-0.014
Mof_H 	H 	0.4557	0.3258	0.7009	-0.002
Mof_N 	N 	0.36924	0.17684	0.71521	-0.291
Mof_N 	N 	0.45936	0.25167	0.6735	-0.303
Mof_N 	N 	0.34723	0.28956	0.685	-0.293
Mof_N 	N 	0.3791	0.21484	0.5579	-0.323
Mof_Zn	Zn	0.38975	0.23351	0.65652	1.17
Mof_C 	C 	0.1574	0.1927	0.2508	-0.01
Mof_H 	H 	0.1395	0.203	0.2893	-0.005
Mof_C 	C 	0.1446	0.3255	0.0345	0.034
Mof_H 	H 	0.1586	0.3495	0.0625	-0.014
Mof_H 	H 	0.0894	0.1956	0.9586	0.16
Mof_C 	C 	0.1017	0.3608	0.2383	-0.007
Mof_H 	H 	0.0677	0.3628	0.2393	-0.003
Mof_C 	C 	0.1112	0.3704	0.2171	-0.005
Mof_H 	H 	0.0915	0.3861	0.1846	-0
Mof_C 	C 	0.0278	0.2164	0.2275	-0.015
Mof_H 	H 	0.0487	0.199	0.2568	-0.001
Mof_C 	C 	0.0244	0.2009	0.191	-0.012
Mof_H 	H 	0.0443	0.1742	0.2009	-0.001
Mof_N 	N 	0.13076	0.32316	0.21521	-0.29
Mof_N 	N 	0.04064	0.24833	0.1735	-0.302
Mof_N 	N 	0.15277	0.21044	0.185	-0.293
Mof_N 	N 	0.1209	0.28516	0.0579	-0.327
Mof_Zn	Zn	0.11025	0.26649	0.15652	1.17
Mof_C 	C 	0.6574	0.6927	0.7508	-0.011
Mof_H 	H 	0.6395	0.703	0.7893	-0.006
Mof_C 	C 	0.6446	0.8255	0.5345	-0.012
Mof_H 	H 	0.6586	0.8495	0.5625	-0.002
Mof_H 	H 	0.5894	0.6956	0.4586	0.198
Mof_C 	C 	0.6017	0.8608	0.7383	-0.007
Mof_H 	H 	0.5677	0.8628	0.7393	-0.004
Mof_C 	C 	0.6112	0.8704	0.7171	-0.005
Mof_H 	H 	0.5915	0.8861	0.6846	-0.001
Mof_C 	C 	0.5278	0.7164	0.7275	-0.012
Mof_H 	H 	0.5487	0.699	0.7568	-0.003
Mof_C 	C 	0.5244	0.7009	0.691	-0.014
Mof_H 	H 	0.5443	0.6742	0.7009	-0.002
Mof_N 	N 	0.63076	0.82316	0.71521	-0.291
Mof_N 	N 	0.54064	0.74833	0.6735	-0.303
Mof_N 	N 	0.65277	0.71044	0.685	-0.293
Mof_N 	N 	0.6209	0.78516	0.5579	-0.323
Mof_Zn	Zn	0.61025	0.76649	0.65652	1.17
Mof_C 	C 	0.32762	0.17238	0.25	0.097
Mof_H 	H 	0.3035	0.1965	0.25	-0.059
Mof_C 	C 	0.67238	0.82762	0.25	0.097
Mof_H 	H 	0.6965	0.8035	0.25	-0.059
Mof_C 	C 	0.82762	0.32762	0.25	0.097
Mof_H 	H 	0.8035	0.3035	0.25	-0.059
Mof_C 	C 	0.17238	0.67238	0.25	0.097
Mof_H 	H 	0.1965	0.6965	0.25	-0.059
Mof_C 	C 	0.67238	0.17238	0.75	0.096
Mof_H 	H 	0.6965	0.1965	0.75	-0.06
Mof_C 	C 	0.32762	0.82762	0.75	0.096
Mof_H 	H 	0.3035	0.8035	0.75	-0.06
Mof_C 	C 	0.17238	0.32762	0.75	0.096
Mof_H 	H 	0.1965	0.3035	0.75	-0.06
Mof_C 	C 	0.82762	0.67238	0.75	0.096
Mof_H 	H 	0.8035	0.6965	0.75	-0.06
Mof_C 	C 	0.67238	0.82762	0.75	0.096
Mof_H 	H 	0.6965	0.8035	0.75	-0.06
Mof_C 	C 	0.17238	0.32762	0.25	0.097
Mof_H 	H 	0.1965	0.3035	0.25	-0.059
Mof_C 	C 	0.32762	0.17238	0.75	0.096
Mof_H 	H 	0.3035	0.1965	0.75	-0.06
Mof_C 	C 	0.17238	0.67238	0.75	0.096
Mof_H 	H 	0.1965	0.6965	0.75	-0.06
Mof_C 	C 	0.82762	0.32762	0.75	0.096
Mof_H 	H 	0.8035	0.3035	0.75	-0.06
Mof_C 	C 	0.32762	0.82762	0.25	0.097
Mof_H 	H 	0.3035	0.8035	0.25	-0.059
Mof_C 	C 	0.67238	0.17238	0.25	0.097
Mof_H 	H 	0.6965	0.1965	0.25	-0.059
Mof_C 	C 	0.82762	0.67238	0.25	0.097
Mof_H 	H 	0.8035	0.6965	0.25	-0.059
Mof_C 	C 	0.268	8.84459e-34	0.1536	0.133
Mof_H 	H 	0.2958	8.84459e-34	0.1255	-0.079
Mof_C 	C 	0.768	0.5	0.6536	0.135
Mof_H 	H 	0.7958	0.5	0.6255	-0.081
Mof_C 	C 	0.732	8.84459e-34	0.1536	0.133
Mof_H 	H 	0.7042	8.84459e-34	0.1255	-0.079
Mof_C 	C 	0.232	0.5	0.6536	0.135
Mof_H 	H 	0.2042	0.5	0.6255	-0.081
Mof_C 	C 	-1.36253e-33	0.268	0.1536	0.133
Mof_H 	H 	4.75434e-33	0.2958	0.1255	-0.079
Mof_C 	C 	0.5	0.768	0.6536	0.135
Mof_H 	H 	0.5	0.7958	0.6255	-0.081
Mof_C 	C 	-1.36253e-33	0.732	0.1536	0.133
Mof_H 	H 	4.75434e-33	0.7042	0.1255	-0.079
Mof_C 	C 	0.5	0.232	0.6536	0.135
Mof_H 	H 	0.5	0.2042	0.6255	-0.081
Mof_C 	C 	0.732	7.07567e-33	0.8464	0.132
Mof_H 	H 	0.7042	0	0.8745	-0.084
Mof_C 	C 	0.232	0.5	0.3464	0.136
Mof_H 	H 	0.2042	0.5	0.3745	-0.081
Mof_C 	C 	0.268	7.07567e-33	0.8464	0.132
Mof_H 	H 	0.2958	0	0.8745	-0.084
Mof_C 	C 	0.768	0.5	0.3464	0.136
Mof_H 	H 	0.7958	0.5	0.3745	-0.081
Mof_C 	C 	9.31506e-33	0.268	0.8464	0.132
Mof_H 	H 	2.31373e-33	0.2958	0.8745	-0.084
Mof_C 	C 	0.5	0.768	0.3464	0.136
Mof_H 	H 	0.5	0.7958	0.3745	-0.081
Mof_C 	C 	9.31506e-33	0.732	0.8464	0.132
Mof_H 	H 	2.31373e-33	0.7042	0.8745	-0.084
Mof_C 	C 	0.5	0.232	0.3464	0.136
Mof_H 	H 	0.5	0.2042	0.3745	-0.081
Mof_C 	C 	0.18685	0.18685	0.149	0.094
Mof_H 	H 	0.1936	0.1936	0.1026	-0.061
Mof_C 	C 	0.68685	0.68685	0.649	0.094
Mof_H 	H 	0.6936	0.6936	0.6026	-0.064
Mof_C 	C 	0.81315	0.81315	0.149	0.095
Mof_H 	H 	0.8064	0.8064	0.1026	-0.061
Mof_C 	C 	0.31315	0.31315	0.649	0.094
Mof_H 	H 	0.3064	0.3064	0.6026	-0.064
Mof_C 	C 	0.81315	0.18685	0.149	0.095
Mof_H 	H 	0.8064	0.1936	0.1026	-0.061
Mof_C 	C 	0.31315	0.68685	0.649	0.094
Mof_H 	H 	0.3064	0.6936	0.6026	-0.064
Mof_C 	C 	0.18685	0.81315	0.149	0.095
Mof_H 	H 	0.1936	0.8064	0.1026	-0.061
Mof_C 	C 	0.68685	0.31315	0.649	0.094
Mof_H 	H 	0.6936	0.3064	0.6026	-0.064
Mof_C 	C 	0.81315	0.18685	0.851	0.094
Mof_H 	H 	0.8064	0.1936	0.8974	-0.068
Mof_C 	C 	0.31315	0.68685	0.351	0.094
Mof_H 	H 	0.3064	0.6936	0.3974	-0.064
Mof_C 	C 	0.18685	0.81315	0.851	0.094
Mof_H 	H 	0.1936	0.8064	0.8974	-0.068
Mof_C 	C 	0.68685	0.31315	0.351	0.094
Mof_H 	H 	0.6936	0.3064	0.3974	-0.064
Mof_C 	C 	0.18685	0.18685	0.851	0.094
Mof_H 	H 	0.1936	0.1936	0.8974	-0.068
Mof_C 	C 	0.68685	0.68685	0.351	0.094
Mof_H 	H 	0.6936	0.6936	0.3974	-0.064
Mof_C 	C 	0.81315	0.81315	0.851	0.094
Mof_H 	H 	0.8064	0.8064	0.8974	-0.068
Mof_C 	C 	0.31315	0.31315	0.351	0.094
Mof_H 	H 	0.3064	0.3064	0.3974	-0.064
Mof_C 	C 	0.2619	0.107	-0	0.247
Mof_C 	C 	0.2134	0.081	-0	-0.662
Mof_H 	H 	0.2188	0.0462	-0	0.188
Mof_C 	C 	0.7619	0.607	0.5	0.247
Mof_C 	C 	0.7134	0.581	0.5	-0.743
Mof_H 	H 	0.7188	0.5462	0.5	0.206
Mof_C 	C 	0.7381	0.893	-0	0.249
Mof_C 	C 	0.7866	0.919	-0	-0.665
Mof_H 	H 	0.7812	0.9538	-0	0.19
Mof_C 	C 	0.2381	0.393	0.5	0.247
Mof_C 	C 	0.2866	0.419	0.5	-0.743
Mof_H 	H 	0.2812	0.4538	0.5	0.206
Mof_C 	C 	0.893	0.2619	-0	0.249
Mof_C 	C 	0.919	0.2134	-0	-0.665
Mof_H 	H 	0.9538	0.2188	-0	0.19
Mof_C 	C 	0.393	0.7619	0.5	0.247
Mof_C 	C 	0.419	0.7134	0.5	-0.743
Mof_H 	H 	0.4538	0.7188	0.5	0.206
Mof_C 	C 	0.107	0.7381	-0	0.247
Mof_C 	C 	0.081	0.7866	-0	-0.662
Mof_H 	H 	0.0462	0.7812	-0	0.188
Mof_C 	C 	0.607	0.2381	0.5	0.247
Mof_C 	C 	0.581	0.2866	0.5	-0.743
Mof_H 	H 	0.5462	0.2812	0.5	0.206
Mof_C 	C 	0.7381	0.107	-0	0.247
Mof_C 	C 	0.7866	0.081	-0	-0.662
Mof_H 	H 	0.7812	0.0462	-0	0.188
Mof_C 	C 	0.2381	0.607	0.5	0.247
Mof_C 	C 	0.2866	0.581	0.5	-0.743
Mof_H 	H 	0.2812	0.5462	0.5	0.206
Mof_C 	C 	0.2619	0.893	-0	0.249
Mof_C 	C 	0.2134	0.919	-0	-0.665
Mof_H 	H 	0.2188	0.9538	-0	0.19
Mof_C 	C 	0.7619	0.393	0.5	0.247
Mof_C 	C 	0.7134	0.419	0.5	-0.743
Mof_H 	H 	0.7188	0.4538	0.5	0.206
Mof_C 	C 	0.107	0.2619	-0	0.247
Mof_C 	C 	0.081	0.2134	-0	-0.662
Mof_H 	H 	0.0462	0.2188	-0	0.188
Mof_C 	C 	0.607	0.7619	0.5	0.247
Mof_C 	C 	0.581	0.7134	0.5	-0.743
Mof_H 	H 	0.5462	0.7188	0.5	0.206
Mof_C 	C 	0.893	0.7381	-0	0.249
Mof_C 	C 	0.919	0.7866	-0	-0.665
Mof_H 	H 	0.9538	0.7812	-0	0.19
Mof_C 	C 	0.393	0.2381	0.5	0.247
Mof_C 	C 	0.419	0.2866	0.5	-0.743
Mof_H 	H 	0.4538	0.2812	0.5	0.206
_end
