data_functionalizedCrystal
_audit_creation_method	'EQeq! by Chris Wilmer'
_symmetry_space_group_name_H-M	'P1'
_symmetry_Int_Tables_number	1
_symmetry_cell_setting	triclinic
loop_
_symmetry_equiv_pos_as_xyz
  x,y,z
_cell_length_a	15.9919
_cell_length_b	16.3613
_cell_length_c	16.3613
_cell_angle_alpha	76.1819
_cell_angle_beta	60.744
_cell_angle_gamma	60.744
loop_
_atom_site_label
_atom_site_type_symbol
_atom_site_fract_x
_atom_site_fract_y
_atom_site_fract_z
_atom_site_charge
Mof_Dy	Dy	0.58236	0.62015	0.03358	1.739
Mof_Dy	Dy	0.1248	0.88703	0.02495	1.821
Mof_Dy	Dy	0.73609	0.87985	0.46642	1.744
Mof_Dy	Dy	0.53678	0.61297	0.47505	1.891
Mof_Dy	Dy	0.61594	0.96642	0.12015	1.728
Mof_Dy	Dy	0.14975	0.97505	0.38703	1.856
Mof_Dy	Dy	0.20251	0.53358	0.37985	1.743
Mof_Dy	Dy	0.01183	0.52495	0.11297	1.85
Mof_Dy	Dy	0.41764	0.37985	0.96642	1.74
Mof_Dy	Dy	0.8752	0.11297	0.97505	1.822
Mof_Dy	Dy	0.26391	0.12015	0.53358	1.745
Mof_Dy	Dy	0.46322	0.38703	0.52495	1.892
Mof_Dy	Dy	0.38406	0.03358	0.87985	1.728
Mof_Dy	Dy	0.85025	0.02495	0.61297	1.856
Mof_Dy	Dy	0.79749	0.46642	0.62015	1.743
Mof_Dy	Dy	0.98817	0.47505	0.88703	1.85
Mof_H 	H 	0.0527	0.7526	0.2536	-0.058
Mof_H 	H 	0.4806	0.5981	0.2835	-0.064
Mof_H 	H 	0.5589	0.7474	0.2464	-0.053
Mof_H 	H 	0.8622	0.9019	0.2165	-0.062
Mof_H 	H 	0.3063	0.7464	0.2526	-0.052
Mof_H 	H 	0.7641	0.7165	0.0981	-0.062
Mof_H 	H 	0.8053	0.7536	0.2474	-0.052
Mof_H 	H 	0.0787	0.7835	0.4019	-0.067
Mof_H 	H 	0.9473	0.2474	0.7464	-0.058
Mof_H 	H 	0.5194	0.4019	0.7165	-0.064
Mof_H 	H 	0.4411	0.2526	0.7536	-0.053
Mof_H 	H 	0.1378	0.0981	0.7835	-0.062
Mof_H 	H 	0.6937	0.2536	0.7474	-0.052
Mof_H 	H 	0.2359	0.2835	0.9019	-0.062
Mof_H 	H 	0.1947	0.2464	0.7526	-0.052
Mof_H 	H 	0.9213	0.2165	0.5981	-0.067
Mof_C 	C 	0.1263	0.7258	0.2178	0.153
Mof_C 	C 	0.292	0.6325	0.1717	-0.094
Mof_C 	C 	0.2808	0.7034	0.1064	-0.063
Mof_C 	C 	0.3537	0.7245	0.0159	0.373
Mof_C 	C 	0.3842	0.5526	0.18	0.4
Mof_C 	C 	0.5521	0.5843	0.2599	0.157
Mof_C 	C 	0.7141	0.5566	0.1632	-0.052
Mof_C 	C 	0.702	0.5479	0.2541	-0.078
Mof_C 	C 	0.7739	0.5317	0.2941	0.411
Mof_C 	C 	0.802	0.5457	0.0681	0.365
Mof_C 	C 	0.5699	0.7742	0.2822	0.153
Mof_C 	C 	0.5962	0.8675	0.3283	-0.089
Mof_C 	C 	0.5906	0.7966	0.3936	-0.072
Mof_C 	C 	0.5941	0.7755	0.4841	0.4
Mof_C 	C 	0.6168	0.9474	0.32	0.394
Mof_C 	C 	0.8963	0.9157	0.2401	0.16
Mof_C 	C 	0.9339	0.9434	0.3368	-0.021
Mof_C 	C 	0.004	0.9521	0.2459	-0.122
Mof_C 	C 	0.0997	0.9683	0.2059	0.423
Mof_C 	C 	0.9158	0.9543	0.4319	0.357
Mof_C 	C 	0.3441	0.7822	0.2258	0.153
Mof_C 	C 	0.4637	0.8283	0.1325	-0.093
Mof_C 	C 	0.3872	0.8936	0.2034	-0.064
Mof_C 	C 	0.3696	0.9841	0.2245	0.37
Mof_C 	C 	0.5642	0.82	0.0526	0.394
Mof_C 	C 	0.812	0.7401	0.0843	0.157
Mof_C 	C 	0.8773	0.8368	0.0566	-0.056
Mof_C 	C 	0.9561	0.7459	0.0479	-0.055
Mof_C 	C 	0.068	0.7059	0.0317	0.386
Mof_C 	C 	0.8701	0.9319	0.0457	0.368
Mof_C 	C 	0.8521	0.7178	0.2742	0.154
Mof_C 	C 	0.9245	0.6717	0.3675	-0.094
Mof_C 	C 	0.9842	0.6064	0.2966	-0.059
Mof_C 	C 	0.0782	0.5159	0.2755	0.389
Mof_C 	C 	0.9368	0.68	0.4474	0.408
Mof_C 	C 	0.1364	0.7599	0.4157	0.157
Mof_C 	C 	0.2707	0.6632	0.4434	-0.054
Mof_C 	C 	0.2499	0.7541	0.4521	-0.079
Mof_C 	C 	0.3056	0.7941	0.4683	0.413
Mof_C 	C 	0.3477	0.5681	0.4543	0.367
Mof_C 	C 	0.8737	0.2742	0.7822	0.153
Mof_C 	C 	0.708	0.3675	0.8283	-0.094
Mof_C 	C 	0.7192	0.2966	0.8936	-0.063
Mof_C 	C 	0.6463	0.2755	0.9841	0.373
Mof_C 	C 	0.6158	0.4474	0.82	0.4
Mof_C 	C 	0.4479	0.4157	0.7401	0.157
Mof_C 	C 	0.2859	0.4434	0.8368	-0.052
Mof_C 	C 	0.298	0.4521	0.7459	-0.078
Mof_C 	C 	0.2261	0.4683	0.7059	0.411
Mof_C 	C 	0.198	0.4543	0.9319	0.365
Mof_C 	C 	0.4301	0.2258	0.7178	0.153
Mof_C 	C 	0.4038	0.1325	0.6717	-0.089
Mof_C 	C 	0.4094	0.2034	0.6064	-0.072
Mof_C 	C 	0.4059	0.2245	0.5159	0.4
Mof_C 	C 	0.3832	0.0526	0.68	0.394
Mof_C 	C 	0.1037	0.0843	0.7599	0.16
Mof_C 	C 	0.0661	0.0566	0.6632	-0.021
Mof_C 	C 	0.996	0.0479	0.7541	-0.122
Mof_C 	C 	0.9003	0.0317	0.7941	0.423
Mof_C 	C 	0.0842	0.0457	0.5681	0.357
Mof_C 	C 	0.6559	0.2178	0.7742	0.153
Mof_C 	C 	0.5363	0.1717	0.8675	-0.093
Mof_C 	C 	0.6128	0.1064	0.7966	-0.064
Mof_C 	C 	0.6304	0.0159	0.7755	0.37
Mof_C 	C 	0.4358	0.18	0.9474	0.394
Mof_C 	C 	0.188	0.2599	0.9157	0.157
Mof_C 	C 	0.1227	0.1632	0.9434	-0.056
Mof_C 	C 	0.0439	0.2541	0.9521	-0.055
Mof_C 	C 	0.932	0.2941	0.9683	0.386
Mof_C 	C 	0.1299	0.0681	0.9543	0.368
Mof_C 	C 	0.1479	0.2822	0.7258	0.154
Mof_C 	C 	0.0755	0.3283	0.6325	-0.094
Mof_C 	C 	0.0158	0.3936	0.7034	-0.059
Mof_C 	C 	0.9218	0.4841	0.7245	0.389
Mof_C 	C 	0.0632	0.32	0.5526	0.408
Mof_C 	C 	0.8636	0.2401	0.5843	0.157
Mof_C 	C 	0.7293	0.3368	0.5566	-0.054
Mof_C 	C 	0.7501	0.2459	0.5479	-0.079
Mof_C 	C 	0.6944	0.2059	0.5317	0.413
Mof_C 	C 	0.6523	0.4319	0.5457	0.367
Mof_N 	N 	0.1739	0.7629	0.1371	-0.235
Mof_N 	N 	0.1926	0.6466	0.2434	-0.228
Mof_N 	N 	0.6158	0.5809	0.1681	-0.263
Mof_N 	N 	0.5985	0.5667	0.3151	-0.257
Mof_N 	N 	0.5739	0.7371	0.3629	-0.235
Mof_N 	N 	0.5826	0.8534	0.2566	-0.228
Mof_N 	N 	0.8648	0.9191	0.3319	-0.267
Mof_N 	N 	0.9803	0.9333	0.1849	-0.233
Mof_N 	N 	0.311	0.8629	0.2629	-0.235
Mof_N 	N 	0.436	0.7566	0.1466	-0.228
Mof_N 	N 	0.7839	0.8319	0.0809	-0.261
Mof_N 	N 	0.9136	0.6849	0.0667	-0.253
Mof_N 	N 	0.9368	0.6371	0.2371	-0.231
Mof_N 	N 	0.8392	0.7434	0.3534	-0.227
Mof_N 	N 	0.1967	0.6681	0.4191	-0.264
Mof_N 	N 	0.1652	0.8151	0.4333	-0.256
Mof_N 	N 	0.8261	0.2371	0.8629	-0.235
Mof_N 	N 	0.8074	0.3534	0.7566	-0.228
Mof_N 	N 	0.3842	0.4191	0.8319	-0.263
Mof_N 	N 	0.4015	0.4333	0.6849	-0.257
Mof_N 	N 	0.4261	0.2629	0.6371	-0.235
Mof_N 	N 	0.4174	0.1466	0.7434	-0.228
Mof_N 	N 	0.1352	0.0809	0.6681	-0.267
Mof_N 	N 	0.0197	0.0667	0.8151	-0.233
Mof_N 	N 	0.689	0.1371	0.7371	-0.235
Mof_N 	N 	0.564	0.2434	0.8534	-0.228
Mof_N 	N 	0.2161	0.1681	0.9191	-0.261
Mof_N 	N 	0.0864	0.3151	0.9333	-0.253
Mof_N 	N 	0.0632	0.3629	0.7629	-0.231
Mof_N 	N 	0.1608	0.2566	0.6466	-0.227
Mof_N 	N 	0.8033	0.3319	0.5809	-0.264
Mof_N 	N 	0.8348	0.1849	0.5667	-0.256
Mof_O 	O 	0.30967	0.79396	0.9711	-0.467
Mof_O 	O 	0.45336	0.67912	0.98276	-0.504
Mof_O 	O 	0.4768	0.5446	0.1286	-0.511
Mof_O 	O 	0.3652	0.4921	0.2425	-0.487
Mof_O 	O 	0.72903	0.5434	0.38194	-0.474
Mof_O 	O 	0.87172	0.50588	0.24348	-0.513
Mof_O 	O 	0.89886	0.51329	0.05419	-0.585
Mof_O 	O 	0.77851	0.56806	0.00052	-0.51
Mof_O 	O 	0.57473	0.70604	0.5289	-0.494
Mof_O 	O 	0.61524	0.82088	0.51724	-0.518
Mof_O 	O 	0.65	0.9554	0.3714	-0.511
Mof_O 	O 	0.5998	0.0079	0.2575	-0.482
Mof_O 	O 	0.15437	0.9566	0.11806	-0.481
Mof_O 	O 	0.12108	0.99412	0.25652	-0.528
Mof_O 	O 	0.96634	0.98671	0.44581	-0.58
Mof_O 	O 	0.84709	0.93194	0.49948	-0.511
Mof_O 	O 	0.28077	0.0289	0.29396	-0.473
Mof_O 	O 	0.43612	0.01724	0.17912	-0.499
Mof_O 	O 	0.6054	0.8714	0.0446	-0.51
Mof_O 	O 	0.6077	0.7575	0.9921	-0.481
Mof_O 	O 	0.11097	0.61806	0.0434	-0.47
Mof_O 	O 	0.1152	0.75652	0.00588	-0.516
Mof_O 	O 	0.95305	0.94581	0.01329	-0.576
Mof_O 	O 	0.77903	0.99948	0.06806	-0.511
Mof_O 	O 	0.10363	0.4711	0.20604	-0.49
Mof_O 	O 	0.13248	0.48276	0.32088	-0.516
Mof_O 	O 	0.0214	0.6286	0.4554	-0.518
Mof_O 	O 	0.8573	0.7425	0.5079	-0.489
Mof_O 	O 	0.27243	0.88194	0.4566	-0.475
Mof_O 	O 	0.3776	0.74348	0.49412	-0.522
Mof_O 	O 	0.41215	0.55419	0.48671	-0.599
Mof_O 	O 	0.34657	0.50052	0.43194	-0.519
Mof_O 	O 	0.69033	0.20604	0.0289	-0.467
Mof_O 	O 	0.54664	0.32088	0.01724	-0.504
Mof_O 	O 	0.5232	0.4554	0.8714	-0.511
Mof_O 	O 	0.6348	0.5079	0.7575	-0.487
Mof_O 	O 	0.27097	0.4566	0.61806	-0.474
Mof_O 	O 	0.12828	0.49412	0.75652	-0.513
Mof_O 	O 	0.10114	0.48671	0.94581	-0.585
Mof_O 	O 	0.22149	0.43194	0.99948	-0.51
Mof_O 	O 	0.42527	0.29396	0.4711	-0.494
Mof_O 	O 	0.38476	0.17912	0.48276	-0.518
Mof_O 	O 	0.35	0.0446	0.6286	-0.511
Mof_O 	O 	0.4002	0.9921	0.7425	-0.482
Mof_O 	O 	0.84563	0.0434	0.88194	-0.481
Mof_O 	O 	0.87892	0.00588	0.74348	-0.528
Mof_O 	O 	0.03366	0.01329	0.55419	-0.58
Mof_O 	O 	0.15291	0.06806	0.50052	-0.511
Mof_O 	O 	0.71923	0.9711	0.70604	-0.473
Mof_O 	O 	0.56388	0.98276	0.82088	-0.499
Mof_O 	O 	0.3946	0.1286	0.9554	-0.51
Mof_O 	O 	0.3923	0.2425	0.0079	-0.481
Mof_O 	O 	0.88903	0.38194	0.9566	-0.47
Mof_O 	O 	0.8848	0.24348	0.99412	-0.516
Mof_O 	O 	0.04695	0.05419	0.98671	-0.576
Mof_O 	O 	0.22097	0.00052	0.93194	-0.511
Mof_O 	O 	0.89637	0.5289	0.79396	-0.49
Mof_O 	O 	0.86752	0.51724	0.67912	-0.516
Mof_O 	O 	0.9786	0.3714	0.5446	-0.518
Mof_O 	O 	0.1427	0.2575	0.4921	-0.489
Mof_O 	O 	0.72757	0.11806	0.5434	-0.475
Mof_O 	O 	0.6224	0.25652	0.50588	-0.522
Mof_O 	O 	0.58785	0.44581	0.51329	-0.599
Mof_O 	O 	0.65343	0.49948	0.56806	-0.519
_end
