data_functionalizedCrystal
_audit_creation_method	'EQeq! by Chris Wilmer'
_symmetry_space_group_name_H-M	'P1'
_symmetry_Int_Tables_number	1
_symmetry_cell_setting	triclinic
loop_
_symmetry_equiv_pos_as_xyz
  x,y,z
_cell_length_a	9.398
_cell_length_b	9.911
_cell_length_c	11.422
_cell_angle_alpha	93.965
_cell_angle_beta	98.131
_cell_angle_gamma	110.782
loop_
_atom_site_label
_atom_site_type_symbol
_atom_site_fract_x
_atom_site_fract_y
_atom_site_fract_z
_atom_site_charge
Mof_Pr	Pr	0.28428	0.5456	0.48512	2.413
Mof_Pr	Pr	0.71572	0.4544	0.51488	2.413
Mof_H 	H 	0.9402	0.3978	0.074	-0.024
Mof_H 	H 	0.8498	0.2737	0.8825	0.144
Mof_H 	H 	0.1701	0.0957	0.9314	0.143
Mof_H 	H 	0.2633	0.2219	0.1173	-0.04
Mof_H 	H 	0.9197	0.8661	0.6637	0.044
Mof_H 	H 	0.3194	0.9951	0.5382	-0.001
Mof_H 	H 	0.1986	0.2864	0.7191	0.012
Mof_H 	H 	0.0598	0.6022	0.926	-0.024
Mof_H 	H 	0.1502	0.7263	0.1175	0.144
Mof_H 	H 	0.8299	0.9043	0.0686	0.143
Mof_H 	H 	0.7367	0.7781	0.8827	-0.04
Mof_H 	H 	0.0803	0.1339	0.3363	0.044
Mof_H 	H 	0.6806	0.0049	0.4618	-0.001
Mof_H 	H 	0.8014	0.7136	0.2809	0.012
Mof_C 	C 	0.1766	0.4105	0.2365	0.394
Mof_C 	C 	0.1165	0.3265	0.1166	-0.226
Mof_C 	C 	0.9887	0.339	0.0446	0.151
Mof_C 	C 	0.9341	0.2644	0.9298	-0.28
Mof_C 	C 	0.0045	0.1778	0.887	0.292
Mof_C 	C 	0.1259	0.1592	0.9592	-0.318
Mof_C 	C 	0.1802	0.2338	0.0706	0.199
Mof_C 	C 	0.0488	0.0786	0.7062	0.099
Mof_C 	C 	0.0114	0.9387	0.6549	-0.017
Mof_C 	C 	0.1115	0.9064	0.5898	-0.19
Mof_C 	C 	0.0754	0.7554	0.5329	0.563
Mof_C 	C 	0.2486	0.0168	0.5776	0.093
Mof_C 	C 	0.2784	0.1575	0.6241	-0.161
Mof_C 	C 	0.1787	0.1908	0.6885	-0.027
Mof_C 	C 	0.4203	0.2746	0.6024	0.428
Mof_C 	C 	0.8234	0.5895	0.7635	0.394
Mof_C 	C 	0.8835	0.6735	0.8834	-0.226
Mof_C 	C 	0.0113	0.661	0.9554	0.151
Mof_C 	C 	0.0659	0.7356	0.0702	-0.28
Mof_C 	C 	0.9955	0.8222	0.113	0.292
Mof_C 	C 	0.8741	0.8408	0.0408	-0.318
Mof_C 	C 	0.8198	0.7662	0.9294	0.199
Mof_C 	C 	0.9512	0.9214	0.2938	0.099
Mof_C 	C 	0.9886	0.0613	0.3451	-0.017
Mof_C 	C 	0.8885	0.0936	0.4102	-0.19
Mof_C 	C 	0.9246	0.2446	0.4671	0.563
Mof_C 	C 	0.7514	0.9832	0.4224	0.093
Mof_C 	C 	0.7216	0.8425	0.3759	-0.161
Mof_C 	C 	0.8213	0.8092	0.3115	-0.027
Mof_C 	C 	0.5797	0.7254	0.3976	0.428
Mof_O 	O 	0.2849	0.3894	0.3023	-0.503
Mof_O 	O 	0.1224	0.5003	0.2737	-0.464
Mof_O 	O 	0.9448	0.6622	0.5316	-0.649
Mof_O 	O 	0.1787	0.7302	0.488	-0.629
Mof_O 	O 	0.4147	0.3941	0.5744	-0.679
Mof_O 	O 	0.5462	0.2518	0.6113	-0.503
Mof_O 	O 	0.9444	0.1062	0.7729	-0.264
Mof_O 	O 	0.7151	0.6106	0.6977	-0.503
Mof_O 	O 	0.8776	0.4997	0.7263	-0.464
Mof_O 	O 	0.0552	0.3378	0.4684	-0.649
Mof_O 	O 	0.8213	0.2698	0.512	-0.629
Mof_O 	O 	0.5853	0.6059	0.4256	-0.679
Mof_O 	O 	0.4538	0.7482	0.3887	-0.503
Mof_O 	O 	0.0556	0.8938	0.2271	-0.264
_end
