data_functionalizedCrystal
_audit_creation_method	'EQeq! by Chris Wilmer'
_symmetry_space_group_name_H-M	'P1'
_symmetry_Int_Tables_number	1
_symmetry_cell_setting	triclinic
loop_
_symmetry_equiv_pos_as_xyz
  x,y,z
_cell_length_a	10.998
_cell_length_b	32.8978
_cell_length_c	32.8978
_cell_angle_alpha	88.3989
_cell_angle_beta	80.3776
_cell_angle_gamma	80.3777
loop_
_atom_site_label
_atom_site_type_symbol
_atom_site_fract_x
_atom_site_fract_y
_atom_site_fract_z
_atom_site_charge
Mof_Dy	Dy	0.81075	0.97344	0.17146	1.749
Mof_Dy	Dy	0.30854	0.97556	0.17536	1.793
Mof_Dy	Dy	0.45565	0.52656	0.32854	1.749
Mof_Dy	Dy	0.95946	0.52444	0.32464	1.79
Mof_Dy	Dy	0.98221	0.82854	0.47344	1.745
Mof_Dy	Dy	0.4839	0.82464	0.47556	1.793
Mof_Dy	Dy	0.78419	0.67146	0.02656	1.749
Mof_Dy	Dy	0.2841	0.67536	0.02444	1.793
Mof_Dy	Dy	0.18925	0.02656	0.82854	1.75
Mof_Dy	Dy	0.69146	0.02444	0.82464	1.794
Mof_Dy	Dy	0.54435	0.47344	0.67146	1.75
Mof_Dy	Dy	0.04054	0.47556	0.67536	1.791
Mof_Dy	Dy	0.01779	0.17146	0.52656	1.746
Mof_Dy	Dy	0.5161	0.17536	0.52444	1.794
Mof_Dy	Dy	0.21581	0.32854	0.97344	1.75
Mof_Dy	Dy	0.7159	0.32464	0.97556	1.794
Mof_Co	Co	0.28951	0.12854	0.03618	1.118
Mof_Co	Co	0.95423	0.37146	0.46382	1.118
Mof_Co	Co	0.32569	0.96382	0.62854	1.118
Mof_Co	Co	0.41805	0.53618	0.87146	1.118
Mof_Co	Co	0.71049	0.87146	0.96382	1.118
Mof_Co	Co	0.04577	0.62854	0.53618	1.118
Mof_Co	Co	0.67431	0.03618	0.37146	1.118
Mof_Co	Co	0.58195	0.46382	0.12854	1.118
Mof_H 	H 	0.663	0.1268	0.2208	0.037
Mof_H 	H 	0.8255	0.1295	0.2579	0.086
Mof_H 	H 	0.8445	0.0878	0.3134	0.002
Mof_H 	H 	0.4188	0.001	0.3958	-0.014
Mof_H 	H 	0.3105	0.9626	0.362	0.085
Mof_H 	H 	0.3638	0.9563	0.2895	0.001
Mof_H 	H 	0.5378	0.8453	0.1341	0.027
Mof_H 	H 	0.649	0.7883	0.0943	0.096
Mof_H 	H 	0.7508	0.8001	0.0277	-0.018
Mof_H 	H 	0.6406	0.9686	0.9412	-0.011
Mof_H 	H 	0.6612	0.0287	0.9721	0.09
Mof_H 	H 	0.7019	0.0269	0.0389	0.01
Mof_H 	H 	0.9427	0.0177	0.0609	-0.002
Mof_H 	H 	0.9315	0.0617	0.0057	0.089
Mof_H 	H 	0.0551	0.1121	0.9963	-0.01
Mof_H 	H 	0.4173	0.1395	0.1135	0.001
Mof_H 	H 	0.3471	0.1492	0.1812	0.091
Mof_H 	H 	0.1588	0.1296	0.2106	0.03
Mof_H 	H 	0.1128	0.8526	0.1386	0.036
Mof_H 	H 	0.2708	0.7892	0.1348	0.082
Mof_H 	H 	0.2798	0.7625	0.2023	0.03
Mof_H 	H 	0.9639	0.8706	0.3672	-0.012
Mof_H 	H 	0.0117	0.9311	0.3735	0.125
Mof_H 	H 	0.0991	0.9583	0.3127	-0.008
Mof_H 	H 	0.5106	0.3732	0.2792	0.037
Mof_H 	H 	0.7129	0.3705	0.2421	0.086
Mof_H 	H 	0.7457	0.4122	0.1866	0.002
Mof_H 	H 	0.3156	0.499	0.1042	-0.014
Mof_H 	H 	0.1351	0.5374	0.138	0.085
Mof_H 	H 	0.1096	0.5437	0.2105	0.002
Mof_H 	H 	0.0172	0.6547	0.3659	0.028
Mof_H 	H 	0.0316	0.7117	0.4057	0.097
Mof_H 	H 	0.0786	0.6999	0.4723	-0.018
Mof_H 	H 	0.0504	0.5314	0.5588	-0.011
Mof_H 	H 	0.162	0.4713	0.5279	0.089
Mof_H 	H 	0.2677	0.4731	0.4611	0.01
Mof_H 	H 	0.5213	0.4823	0.4391	-0.002
Mof_H 	H 	0.4989	0.4383	0.4943	0.089
Mof_H 	H 	0.6635	0.3879	0.5037	-0.011
Mof_H 	H 	0.1703	0.3605	0.3865	0.001
Mof_H 	H 	0.1775	0.3508	0.3188	0.091
Mof_H 	H 	0.999	0.3704	0.2894	0.03
Mof_H 	H 	0.604	0.6474	0.3614	0.036
Mof_H 	H 	0.6948	0.7108	0.3652	0.082
Mof_H 	H 	0.7446	0.7375	0.2977	0.03
Mof_H 	H 	0.7017	0.6294	0.1328	-0.009
Mof_H 	H 	0.8163	0.5689	0.1265	0.123
Mof_H 	H 	0.8701	0.5417	0.1873	-0.007
Mof_H 	H 	0.8838	0.7792	0.6268	0.037
Mof_H 	H 	0.0834	0.7421	0.6295	0.085
Mof_H 	H 	0.1579	0.6866	0.5878	0.002
Mof_H 	H 	0.8146	0.6042	0.501	-0.014
Mof_H 	H 	0.6725	0.638	0.4626	0.085
Mof_H 	H 	0.6533	0.7105	0.4563	0.001
Mof_H 	H 	0.6719	0.8659	0.3453	0.027
Mof_H 	H 	0.7433	0.9057	0.2883	0.096
Mof_H 	H 	0.7785	0.9723	0.3001	-0.019
Mof_H 	H 	0.5818	0.0588	0.4686	-0.011
Mof_H 	H 	0.6333	0.0279	0.5287	0.089
Mof_H 	H 	0.7408	0.9611	0.5269	0.01
Mof_H 	H 	0.0036	0.9391	0.5177	-0.002
Mof_H 	H 	0.9372	0.9943	0.5617	0.089
Mof_H 	H 	0.0514	0.0037	0.6121	-0.012
Mof_H 	H 	0.5308	0.8865	0.6395	0.001
Mof_H 	H 	0.5283	0.8188	0.6492	0.091
Mof_H 	H 	0.3694	0.7894	0.6296	0.03
Mof_H 	H 	0.2514	0.8614	0.3526	0.036
Mof_H 	H 	0.4056	0.8652	0.2892	0.083
Mof_H 	H 	0.4821	0.7977	0.2625	0.03
Mof_H 	H 	0.3311	0.6328	0.3706	-0.009
Mof_H 	H 	0.3852	0.6265	0.4311	0.123
Mof_H 	H 	0.4118	0.6873	0.4583	-0.007
Mof_H 	H 	0.7898	0.7208	0.8732	0.037
Mof_H 	H 	0.955	0.7579	0.8705	0.086
Mof_H 	H 	0.9323	0.8134	0.9122	0.002
Mof_H 	H 	0.4198	0.8958	0.999	-0.014
Mof_H 	H 	0.2731	0.862	0.0374	0.085
Mof_H 	H 	0.3201	0.7895	0.0437	0.001
Mof_H 	H 	0.3831	0.6341	0.1547	0.028
Mof_H 	H 	0.4373	0.5943	0.2117	0.096
Mof_H 	H 	0.5509	0.5277	0.1999	-0.018
Mof_H 	H 	0.6092	0.4412	0.0314	-0.011
Mof_H 	H 	0.6899	0.4721	0.9713	0.09
Mof_H 	H 	0.7288	0.5389	0.9731	0.01
Mof_H 	H 	0.9604	0.5609	0.9823	-0.003
Mof_H 	H 	0.9932	0.5057	0.9383	0.09
Mof_H 	H 	0.1672	0.4963	0.8879	-0.011
Mof_H 	H 	0.5568	0.6135	0.8605	0.001
Mof_H 	H 	0.4963	0.6812	0.8508	0.091
Mof_H 	H 	0.2884	0.7106	0.8704	0.031
Mof_H 	H 	0.9654	0.6386	0.1474	0.036
Mof_H 	H 	0.06	0.6348	0.2108	0.082
Mof_H 	H 	0.0423	0.7023	0.2375	0.03
Mof_H 	H 	0.8345	0.8672	0.1294	-0.009
Mof_H 	H 	0.9428	0.8735	0.0689	0.124
Mof_H 	H 	0.0574	0.8127	0.0417	-0.008
Mof_H 	H 	0.337	0.8732	0.7792	0.037
Mof_H 	H 	0.1745	0.8705	0.7421	0.086
Mof_H 	H 	0.1555	0.9122	0.6866	0.002
Mof_H 	H 	0.5812	0.999	0.6042	-0.014
Mof_H 	H 	0.6895	0.0374	0.638	0.085
Mof_H 	H 	0.6362	0.0437	0.7105	0.001
Mof_H 	H 	0.4622	0.1547	0.8659	0.027
Mof_H 	H 	0.351	0.2117	0.9057	0.096
Mof_H 	H 	0.2492	0.1999	0.9723	-0.018
Mof_H 	H 	0.3594	0.0314	0.0588	-0.011
Mof_H 	H 	0.3388	0.9713	0.0279	0.09
Mof_H 	H 	0.2981	0.9731	0.9611	0.01
Mof_H 	H 	0.0573	0.9823	0.9391	-0.002
Mof_H 	H 	0.0685	0.9383	0.9943	0.089
Mof_H 	H 	0.9449	0.8879	0.0037	-0.01
Mof_H 	H 	0.5827	0.8605	0.8865	0.001
Mof_H 	H 	0.6529	0.8508	0.8188	0.091
Mof_H 	H 	0.8412	0.8704	0.7894	0.03
Mof_H 	H 	0.8872	0.1474	0.8614	0.036
Mof_H 	H 	0.7292	0.2108	0.8652	0.082
Mof_H 	H 	0.7202	0.2375	0.7977	0.03
Mof_H 	H 	0.0361	0.1294	0.6328	-0.012
Mof_H 	H 	0.9883	0.0689	0.6265	0.125
Mof_H 	H 	0.9009	0.0417	0.6873	-0.008
Mof_H 	H 	0.4894	0.6268	0.7208	0.037
Mof_H 	H 	0.2871	0.6295	0.7579	0.086
Mof_H 	H 	0.2543	0.5878	0.8134	0.002
Mof_H 	H 	0.6844	0.501	0.8958	-0.014
Mof_H 	H 	0.8649	0.4626	0.862	0.085
Mof_H 	H 	0.8904	0.4563	0.7895	0.002
Mof_H 	H 	0.9828	0.3453	0.6341	0.028
Mof_H 	H 	0.9684	0.2883	0.5943	0.097
Mof_H 	H 	0.9214	0.3001	0.5277	-0.018
Mof_H 	H 	0.9496	0.4686	0.4412	-0.011
Mof_H 	H 	0.838	0.5287	0.4721	0.089
Mof_H 	H 	0.7323	0.5269	0.5389	0.01
Mof_H 	H 	0.4787	0.5177	0.5609	-0.002
Mof_H 	H 	0.5011	0.5617	0.5057	0.089
Mof_H 	H 	0.3365	0.6121	0.4963	-0.011
Mof_H 	H 	0.8297	0.6395	0.6135	0.001
Mof_H 	H 	0.8225	0.6492	0.6812	0.091
Mof_H 	H 	0.001	0.6296	0.7106	0.03
Mof_H 	H 	0.396	0.3526	0.6386	0.036
Mof_H 	H 	0.3052	0.2892	0.6348	0.082
Mof_H 	H 	0.2554	0.2625	0.7023	0.03
Mof_H 	H 	0.2983	0.3706	0.8672	-0.009
Mof_H 	H 	0.1837	0.4311	0.8735	0.123
Mof_H 	H 	0.1299	0.4583	0.8127	-0.007
Mof_H 	H 	0.1162	0.2208	0.3732	0.037
Mof_H 	H 	0.9166	0.2579	0.3705	0.085
Mof_H 	H 	0.8421	0.3134	0.4122	0.002
Mof_H 	H 	0.1854	0.3958	0.499	-0.014
Mof_H 	H 	0.3275	0.362	0.5374	0.085
Mof_H 	H 	0.3467	0.2895	0.5437	0.001
Mof_H 	H 	0.3281	0.1341	0.6547	0.027
Mof_H 	H 	0.2567	0.0943	0.7117	0.096
Mof_H 	H 	0.2215	0.0277	0.6999	-0.019
Mof_H 	H 	0.4182	0.9412	0.5314	-0.011
Mof_H 	H 	0.3667	0.9721	0.4713	0.089
Mof_H 	H 	0.2592	0.0389	0.4731	0.01
Mof_H 	H 	0.9964	0.0609	0.4823	-0.002
Mof_H 	H 	0.0628	0.0057	0.4383	0.089
Mof_H 	H 	0.9486	0.9963	0.3879	-0.012
Mof_H 	H 	0.4692	0.1135	0.3605	0.001
Mof_H 	H 	0.4717	0.1812	0.3508	0.091
Mof_H 	H 	0.6306	0.2106	0.3704	0.03
Mof_H 	H 	0.7486	0.1386	0.6474	0.036
Mof_H 	H 	0.5944	0.1348	0.7108	0.083
Mof_H 	H 	0.5179	0.2023	0.7375	0.03
Mof_H 	H 	0.6689	0.3672	0.6294	-0.009
Mof_H 	H 	0.6148	0.3735	0.5689	0.123
Mof_H 	H 	0.5882	0.3127	0.5417	-0.007
Mof_H 	H 	0.2102	0.2792	0.1268	0.037
Mof_H 	H 	0.045	0.2421	0.1295	0.086
Mof_H 	H 	0.0677	0.1866	0.0878	0.002
Mof_H 	H 	0.5802	0.1042	0.001	-0.014
Mof_H 	H 	0.7269	0.138	0.9626	0.085
Mof_H 	H 	0.6799	0.2105	0.9563	0.001
Mof_H 	H 	0.6169	0.3659	0.8453	0.028
Mof_H 	H 	0.5627	0.4057	0.7883	0.096
Mof_H 	H 	0.4491	0.4723	0.8001	-0.018
Mof_H 	H 	0.3908	0.5588	0.9686	-0.011
Mof_H 	H 	0.3101	0.5279	0.0287	0.09
Mof_H 	H 	0.2712	0.4611	0.0269	0.01
Mof_H 	H 	0.0396	0.4391	0.0177	-0.003
Mof_H 	H 	0.0068	0.4943	0.0617	0.09
Mof_H 	H 	0.8328	0.5037	0.1121	-0.011
Mof_H 	H 	0.4432	0.3865	0.1395	0.001
Mof_H 	H 	0.5037	0.3188	0.1492	0.091
Mof_H 	H 	0.7116	0.2894	0.1296	0.031
Mof_H 	H 	0.0346	0.3614	0.8526	0.036
Mof_H 	H 	0.94	0.3652	0.7892	0.082
Mof_H 	H 	0.9577	0.2977	0.7625	0.03
Mof_H 	H 	0.1655	0.1328	0.8706	-0.009
Mof_H 	H 	0.0572	0.1265	0.9311	0.124
Mof_H 	H 	0.9426	0.1873	0.9583	-0.008
Mof_C 	C 	0.4886	0.0789	0.2305	0.298
Mof_C 	C 	0.5954	0.0799	0.2547	-0.091
Mof_C 	C 	0.6744	0.1092	0.2428	0.03
Mof_C 	C 	0.77	0.111	0.2654	-0.112
Mof_C 	C 	0.7815	0.0856	0.2984	0.073
Mof_C 	C 	0.6148	0.0546	0.2882	0.043
Mof_C 	C 	0.5308	0.0246	0.3058	0.096
Mof_C 	C 	0.4326	0.0009	0.3671	0.092
Mof_C 	C 	0.3705	0.9766	0.3472	-0.157
Mof_C 	C 	0.4002	0.9736	0.3038	0.094
Mof_C 	C 	0.4853	0.9974	0.2828	-0.186
Mof_C 	C 	0.5312	0.9888	0.2374	0.504
Mof_C 	C 	0.4883	0.9237	0.1129	0.344
Mof_C 	C 	0.5799	0.8883	0.0903	-0.112
Mof_C 	C 	0.5801	0.8489	0.1077	0.05
Mof_C 	C 	0.6462	0.815	0.084	-0.137
Mof_C 	C 	0.7088	0.8226	0.0436	0.105
Mof_C 	C 	0.6508	0.8926	0.0516	0.05
Mof_C 	C 	0.6625	0.9319	0.0307	0.058
Mof_C 	C 	0.6497	0.9685	0.9687	0.086
Mof_C 	C 	0.6655	0.0041	0.9869	-0.136
Mof_C 	C 	0.6875	0.0032	0.027	0.056
Mof_C 	C 	0.688	0.9675	0.0493	-0.101
Mof_C 	C 	0.7313	0.9644	0.0918	0.32
Mof_C 	C 	0.0665	0.0176	0.1238	0.523
Mof_C 	C 	0.0533	0.0481	0.0907	-0.205
Mof_C 	C 	0.9846	0.0402	0.0586	0.104
Mof_C 	C 	0.9808	0.0656	0.0252	-0.161
Mof_C 	C 	0.0504	0.097	0.0206	0.085
Mof_C 	C 	0.1083	0.0831	0.0855	0.1
Mof_C 	C 	0.1717	0.1008	0.1168	0.041
Mof_C 	C 	0.3423	0.1309	0.1247	0.075
Mof_C 	C 	0.3011	0.137	0.1652	-0.128
Mof_C 	C 	0.19	0.1249	0.1827	0.046
Mof_C 	C 	0.1266	0.106	0.1588	-0.102
Mof_C 	C 	0.0075	0.0913	0.1781	0.294
Mof_C 	C 	0.9747	0.9022	0.1962	0.366
Mof_C 	C 	0.0795	0.8624	0.2004	-0.102
Mof_C 	C 	0.1359	0.8409	0.1629	0.027
Mof_C 	C 	0.2275	0.8021	0.1589	-0.106
Mof_C 	C 	0.2347	0.7888	0.1996	0.063
Mof_C 	C 	0.1193	0.8484	0.235	0.081
Mof_C 	C 	0.0778	0.8728	0.273	0.097
Mof_C 	C 	0.0003	0.8817	0.3427	0.144
Mof_C 	C 	0.0271	0.9174	0.3484	-0.222
Mof_C 	C 	0.081	0.9316	0.3126	0.118
Mof_C 	C 	0.1132	0.9104	0.2744	-0.161
Mof_C 	C 	0.1847	0.9299	0.2395	0.375
Mof_C 	C 	0.298	0.4211	0.2695	0.298
Mof_C 	C 	0.43	0.4201	0.2453	-0.091
Mof_C 	C 	0.5264	0.3908	0.2572	0.03
Mof_C 	C 	0.6464	0.389	0.2346	-0.112
Mof_C 	C 	0.6655	0.4144	0.2016	0.073
Mof_C 	C 	0.4576	0.4454	0.2118	0.043
Mof_C 	C 	0.3612	0.4754	0.1942	0.096
Mof_C 	C 	0.3006	0.4991	0.1329	0.092
Mof_C 	C 	0.1943	0.5234	0.1528	-0.157
Mof_C 	C 	0.1776	0.5264	0.1962	0.093
Mof_C 	C 	0.2655	0.5026	0.2172	-0.186
Mof_C 	C 	0.2574	0.5112	0.2626	0.503
Mof_C 	C 	0.0249	0.5763	0.3871	0.346
Mof_C 	C 	0.0585	0.6117	0.4097	-0.112
Mof_C 	C 	0.0367	0.6511	0.3923	0.051
Mof_C 	C 	0.0452	0.685	0.416	-0.137
Mof_C 	C 	0.075	0.6774	0.4564	0.105
Mof_C 	C 	0.095	0.6074	0.4484	0.05
Mof_C 	C 	0.1251	0.5681	0.4693	0.057
Mof_C 	C 	0.0869	0.5315	0.5313	0.086
Mof_C 	C 	0.1565	0.4959	0.5131	-0.136
Mof_C 	C 	0.2177	0.4968	0.473	0.055
Mof_C 	C 	0.2048	0.5325	0.4507	-0.101
Mof_C 	C 	0.2875	0.5356	0.4082	0.32
Mof_C 	C 	0.7079	0.4824	0.3762	0.522
Mof_C 	C 	0.6921	0.4519	0.4093	-0.205
Mof_C 	C 	0.5834	0.4598	0.4414	0.104
Mof_C 	C 	0.5716	0.4344	0.4748	-0.163
Mof_C 	C 	0.668	0.403	0.4794	0.087
Mof_C 	C 	0.7769	0.4169	0.4145	0.1
Mof_C 	C 	0.8893	0.3992	0.3832	0.041
Mof_C 	C 	0.0979	0.3691	0.3753	0.074
Mof_C 	C 	0.1033	0.363	0.3348	-0.128
Mof_C 	C 	0.9976	0.3751	0.3173	0.046
Mof_C 	C 	0.8914	0.394	0.3412	-0.102
Mof_C 	C 	0.7769	0.4087	0.3219	0.294
Mof_C 	C 	0.5731	0.5978	0.3038	0.367
Mof_C 	C 	0.6423	0.6376	0.2996	-0.103
Mof_C 	C 	0.6397	0.6591	0.3371	0.028
Mof_C 	C 	0.6885	0.6979	0.3411	-0.106
Mof_C 	C 	0.7231	0.7112	0.3004	0.063
Mof_C 	C 	0.7027	0.6516	0.265	0.081
Mof_C 	C 	0.7236	0.6272	0.227	0.096
Mof_C 	C 	0.7247	0.6183	0.1573	0.139
Mof_C 	C 	0.7929	0.5826	0.1516	-0.218
Mof_C 	C 	0.8252	0.5684	0.1874	0.116
Mof_C 	C 	0.798	0.5896	0.2256	-0.16
Mof_C 	C 	0.8541	0.5701	0.2605	0.375
Mof_C 	C 	0.7191	0.7695	0.5789	0.298
Mof_C 	C 	0.8501	0.7453	0.5799	-0.089
Mof_C 	C 	0.9172	0.7572	0.6092	0.027
Mof_C 	C 	0.0354	0.7346	0.611	-0.109
Mof_C 	C 	0.0799	0.7016	0.5856	0.071
Mof_C 	C 	0.903	0.7118	0.5546	0.042
Mof_C 	C 	0.8366	0.6942	0.5246	0.097
Mof_C 	C 	0.7997	0.6329	0.5009	0.092
Mof_C 	C 	0.7177	0.6528	0.4766	-0.157
Mof_C 	C 	0.704	0.6962	0.4736	0.093
Mof_C 	C 	0.7681	0.7172	0.4974	-0.186
Mof_C 	C 	0.7686	0.7626	0.4888	0.504
Mof_C 	C 	0.6012	0.8871	0.4237	0.344
Mof_C 	C 	0.6702	0.9097	0.3883	-0.112
Mof_C 	C 	0.6878	0.8923	0.3489	0.05
Mof_C 	C 	0.7302	0.916	0.315	-0.137
Mof_C 	C 	0.7524	0.9564	0.3226	0.104
Mof_C 	C 	0.7024	0.9484	0.3926	0.05
Mof_C 	C 	0.6932	0.9693	0.4319	0.057
Mof_C 	C 	0.6184	0.0313	0.4685	0.085
Mof_C 	C 	0.6524	0.0131	0.5041	-0.136
Mof_C 	C 	0.7145	0.973	0.5032	0.055
Mof_C 	C 	0.7373	0.9507	0.4675	-0.101
Mof_C 	C 	0.8231	0.9082	0.4644	0.32
Mof_C 	C 	0.1903	0.8762	0.5176	0.522
Mof_C 	C 	0.144	0.9093	0.5481	-0.205
Mof_C 	C 	0.0432	0.9414	0.5402	0.105
Mof_C 	C 	0.006	0.9748	0.5656	-0.163
Mof_C 	C 	0.071	0.9794	0.597	0.088
Mof_C 	C 	0.1938	0.9145	0.5831	0.1
Mof_C 	C 	0.2885	0.8832	0.6008	0.041
Mof_C 	C 	0.467	0.8753	0.6309	0.075
Mof_C 	C 	0.4663	0.8348	0.637	-0.128
Mof_C 	C 	0.3727	0.8173	0.6249	0.046
Mof_C 	C 	0.2854	0.8412	0.606	-0.103
Mof_C 	C 	0.1856	0.8219	0.5913	0.294
Mof_C 	C 	0.1709	0.8038	0.4022	0.367
Mof_C 	C 	0.2799	0.7996	0.3624	-0.103
Mof_C 	C 	0.2988	0.8371	0.3409	0.028
Mof_C 	C 	0.3864	0.8411	0.3021	-0.106
Mof_C 	C 	0.4343	0.8004	0.2888	0.063
Mof_C 	C 	0.3543	0.765	0.3484	0.081
Mof_C 	C 	0.3508	0.727	0.3728	0.096
Mof_C 	C 	0.343	0.6573	0.3817	0.139
Mof_C 	C 	0.3755	0.6516	0.4174	-0.218
Mof_C 	C 	0.3936	0.6874	0.4316	0.116
Mof_C 	C 	0.3876	0.7256	0.4104	-0.16
Mof_C 	C 	0.4242	0.7605	0.4299	0.375
Mof_C 	C 	0.5675	0.7305	0.9211	0.298
Mof_C 	C 	0.6753	0.7547	0.9201	-0.091
Mof_C 	C 	0.7836	0.7428	0.8908	0.03
Mof_C 	C 	0.881	0.7654	0.889	-0.112
Mof_C 	C 	0.8671	0.7984	0.9144	0.073
Mof_C 	C 	0.6694	0.7882	0.9454	0.043
Mof_C 	C 	0.5554	0.8058	0.9754	0.096
Mof_C 	C 	0.4335	0.8671	0.9991	0.092
Mof_C 	C 	0.3471	0.8472	0.0234	-0.157
Mof_C 	C 	0.3738	0.8038	0.0264	0.094
Mof_C 	C 	0.4827	0.7828	0.0026	-0.186
Mof_C 	C 	0.52	0.7374	0.0112	0.504
Mof_C 	C 	0.412	0.6129	0.0763	0.344
Mof_C 	C 	0.4682	0.5903	0.1117	-0.112
Mof_C 	C 	0.429	0.6077	0.1511	0.05
Mof_C 	C 	0.4612	0.584	0.185	-0.137
Mof_C 	C 	0.5314	0.5436	0.1774	0.105
Mof_C 	C 	0.5434	0.5516	0.1074	0.05
Mof_C 	C 	0.5944	0.5307	0.0681	0.057
Mof_C 	C 	0.6182	0.4687	0.0315	0.086
Mof_C 	C 	0.6696	0.4869	0.9959	-0.136
Mof_C 	C 	0.6907	0.527	0.9968	0.055
Mof_C 	C 	0.6555	0.5493	0.0325	-0.101
Mof_C 	C 	0.6957	0.5918	0.0356	0.32
Mof_C 	C 	0.0841	0.6238	0.9824	0.524
Mof_C 	C 	0.1014	0.5907	0.9519	-0.206
Mof_C 	C 	0.0248	0.5586	0.9598	0.107
Mof_C 	C 	0.0464	0.5252	0.9344	-0.165
Mof_C 	C 	0.1474	0.5206	0.903	0.088
Mof_C 	C 	0.1914	0.5855	0.9169	0.101
Mof_C 	C 	0.2725	0.6168	0.8992	0.041
Mof_C 	C 	0.4732	0.6247	0.8691	0.075
Mof_C 	C 	0.4381	0.6652	0.863	-0.128
Mof_C 	C 	0.3149	0.6827	0.8751	0.046
Mof_C 	C 	0.2326	0.6588	0.894	-0.102
Mof_C 	C 	0.0988	0.6781	0.9087	0.294
Mof_C 	C 	0.8769	0.6962	0.0978	0.367
Mof_C 	C 	0.9419	0.7004	0.1376	-0.103
Mof_C 	C 	0.9768	0.6629	0.1591	0.025
Mof_C 	C 	0.0296	0.6589	0.1979	-0.104
Mof_C 	C 	0.0235	0.6996	0.2112	0.065
Mof_C 	C 	0.9677	0.735	0.1516	0.081
Mof_C 	C 	0.9506	0.773	0.1272	0.094
Mof_C 	C 	0.882	0.8427	0.1183	0.14
Mof_C 	C 	0.9445	0.8484	0.0826	-0.221
Mof_C 	C 	0.0126	0.8126	0.0684	0.118
Mof_C 	C 	0.0236	0.7744	0.0896	-0.158
Mof_C 	C 	0.1146	0.7395	0.0701	0.375
Mof_C 	C 	0.5114	0.9211	0.7695	0.298
Mof_C 	C 	0.4046	0.9201	0.7453	-0.091
Mof_C 	C 	0.3256	0.8908	0.7572	0.03
Mof_C 	C 	0.23	0.889	0.7346	-0.112
Mof_C 	C 	0.2185	0.9144	0.7016	0.073
Mof_C 	C 	0.3852	0.9454	0.7118	0.043
Mof_C 	C 	0.4692	0.9754	0.6942	0.096
Mof_C 	C 	0.5674	0.9991	0.6329	0.092
Mof_C 	C 	0.6295	0.0234	0.6528	-0.157
Mof_C 	C 	0.5998	0.0264	0.6962	0.094
Mof_C 	C 	0.5147	0.0026	0.7172	-0.186
Mof_C 	C 	0.4688	0.0112	0.7626	0.504
Mof_C 	C 	0.5117	0.0763	0.8871	0.344
Mof_C 	C 	0.4201	0.1117	0.9097	-0.112
Mof_C 	C 	0.4199	0.1511	0.8923	0.05
Mof_C 	C 	0.3538	0.185	0.916	-0.137
Mof_C 	C 	0.2912	0.1774	0.9564	0.105
Mof_C 	C 	0.3492	0.1074	0.9484	0.05
Mof_C 	C 	0.3375	0.0681	0.9693	0.058
Mof_C 	C 	0.3503	0.0315	0.0313	0.086
Mof_C 	C 	0.3345	0.9959	0.0131	-0.136
Mof_C 	C 	0.3125	0.9968	0.973	0.056
Mof_C 	C 	0.312	0.0325	0.9507	-0.101
Mof_C 	C 	0.2687	0.0356	0.9082	0.32
Mof_C 	C 	0.9335	0.9824	0.8762	0.523
Mof_C 	C 	0.9467	0.9519	0.9093	-0.205
Mof_C 	C 	0.0154	0.9598	0.9414	0.104
Mof_C 	C 	0.0192	0.9344	0.9748	-0.161
Mof_C 	C 	0.9496	0.903	0.9794	0.085
Mof_C 	C 	0.8917	0.9169	0.9145	0.1
Mof_C 	C 	0.8283	0.8992	0.8832	0.041
Mof_C 	C 	0.6577	0.8691	0.8753	0.075
Mof_C 	C 	0.6989	0.863	0.8348	-0.128
Mof_C 	C 	0.81	0.8751	0.8173	0.046
Mof_C 	C 	0.8734	0.894	0.8412	-0.102
Mof_C 	C 	0.9925	0.9087	0.8219	0.294
Mof_C 	C 	0.0253	0.0978	0.8038	0.366
Mof_C 	C 	0.9205	0.1376	0.7996	-0.102
Mof_C 	C 	0.8641	0.1591	0.8371	0.027
Mof_C 	C 	0.7725	0.1979	0.8411	-0.106
Mof_C 	C 	0.7653	0.2112	0.8004	0.063
Mof_C 	C 	0.8807	0.1516	0.765	0.081
Mof_C 	C 	0.9222	0.1272	0.727	0.097
Mof_C 	C 	0.9997	0.1183	0.6573	0.144
Mof_C 	C 	0.9729	0.0826	0.6516	-0.222
Mof_C 	C 	0.919	0.0684	0.6874	0.118
Mof_C 	C 	0.8868	0.0896	0.7256	-0.161
Mof_C 	C 	0.8153	0.0701	0.7605	0.375
Mof_C 	C 	0.702	0.5789	0.7305	0.298
Mof_C 	C 	0.57	0.5799	0.7547	-0.091
Mof_C 	C 	0.4736	0.6092	0.7428	0.03
Mof_C 	C 	0.3536	0.611	0.7654	-0.112
Mof_C 	C 	0.3345	0.5856	0.7984	0.073
Mof_C 	C 	0.5424	0.5546	0.7882	0.043
Mof_C 	C 	0.6388	0.5246	0.8058	0.096
Mof_C 	C 	0.6994	0.5009	0.8671	0.092
Mof_C 	C 	0.8057	0.4766	0.8472	-0.157
Mof_C 	C 	0.8224	0.4736	0.8038	0.093
Mof_C 	C 	0.7345	0.4974	0.7828	-0.186
Mof_C 	C 	0.7426	0.4888	0.7374	0.503
Mof_C 	C 	0.9751	0.4237	0.6129	0.346
Mof_C 	C 	0.9415	0.3883	0.5903	-0.112
Mof_C 	C 	0.9633	0.3489	0.6077	0.051
Mof_C 	C 	0.9548	0.315	0.584	-0.137
Mof_C 	C 	0.925	0.3226	0.5436	0.105
Mof_C 	C 	0.905	0.3926	0.5516	0.05
Mof_C 	C 	0.8749	0.4319	0.5307	0.057
Mof_C 	C 	0.9131	0.4685	0.4687	0.086
Mof_C 	C 	0.8435	0.5041	0.4869	-0.136
Mof_C 	C 	0.7823	0.5032	0.527	0.055
Mof_C 	C 	0.7952	0.4675	0.5493	-0.101
Mof_C 	C 	0.7125	0.4644	0.5918	0.32
Mof_C 	C 	0.2921	0.5176	0.6238	0.522
Mof_C 	C 	0.3079	0.5481	0.5907	-0.205
Mof_C 	C 	0.4166	0.5402	0.5586	0.104
Mof_C 	C 	0.4284	0.5656	0.5252	-0.163
Mof_C 	C 	0.332	0.597	0.5206	0.087
Mof_C 	C 	0.2231	0.5831	0.5855	0.1
Mof_C 	C 	0.1107	0.6008	0.6168	0.041
Mof_C 	C 	0.9021	0.6309	0.6247	0.074
Mof_C 	C 	0.8967	0.637	0.6652	-0.128
Mof_C 	C 	0.0024	0.6249	0.6827	0.046
Mof_C 	C 	0.1086	0.606	0.6588	-0.102
Mof_C 	C 	0.2231	0.5913	0.6781	0.294
Mof_C 	C 	0.4269	0.4022	0.6962	0.367
Mof_C 	C 	0.3577	0.3624	0.7004	-0.103
Mof_C 	C 	0.3603	0.3409	0.6629	0.028
Mof_C 	C 	0.3115	0.3021	0.6589	-0.106
Mof_C 	C 	0.2769	0.2888	0.6996	0.063
Mof_C 	C 	0.2973	0.3484	0.735	0.081
Mof_C 	C 	0.2764	0.3728	0.773	0.096
Mof_C 	C 	0.2753	0.3817	0.8427	0.139
Mof_C 	C 	0.2071	0.4174	0.8484	-0.218
Mof_C 	C 	0.1748	0.4316	0.8126	0.116
Mof_C 	C 	0.202	0.4104	0.7744	-0.16
Mof_C 	C 	0.1459	0.4299	0.7395	0.375
Mof_C 	C 	0.2809	0.2305	0.4211	0.298
Mof_C 	C 	0.1499	0.2547	0.4201	-0.089
Mof_C 	C 	0.0828	0.2428	0.3908	0.027
Mof_C 	C 	0.9646	0.2654	0.389	-0.109
Mof_C 	C 	0.9201	0.2984	0.4144	0.071
Mof_C 	C 	0.097	0.2882	0.4454	0.042
Mof_C 	C 	0.1634	0.3058	0.4754	0.097
Mof_C 	C 	0.2003	0.3671	0.4991	0.092
Mof_C 	C 	0.2823	0.3472	0.5234	-0.157
Mof_C 	C 	0.296	0.3038	0.5264	0.093
Mof_C 	C 	0.2319	0.2828	0.5026	-0.186
Mof_C 	C 	0.2314	0.2374	0.5112	0.504
Mof_C 	C 	0.3988	0.1129	0.5763	0.344
Mof_C 	C 	0.3298	0.0903	0.6117	-0.112
Mof_C 	C 	0.3122	0.1077	0.6511	0.05
Mof_C 	C 	0.2698	0.084	0.685	-0.137
Mof_C 	C 	0.2476	0.0436	0.6774	0.104
Mof_C 	C 	0.2976	0.0516	0.6074	0.05
Mof_C 	C 	0.3068	0.0307	0.5681	0.057
Mof_C 	C 	0.3816	0.9687	0.5315	0.085
Mof_C 	C 	0.3476	0.9869	0.4959	-0.136
Mof_C 	C 	0.2855	0.027	0.4968	0.055
Mof_C 	C 	0.2627	0.0493	0.5325	-0.101
Mof_C 	C 	0.1769	0.0918	0.5356	0.32
Mof_C 	C 	0.8097	0.1238	0.4824	0.522
Mof_C 	C 	0.856	0.0907	0.4519	-0.205
Mof_C 	C 	0.9568	0.0586	0.4598	0.105
Mof_C 	C 	0.994	0.0252	0.4344	-0.163
Mof_C 	C 	0.929	0.0206	0.403	0.088
Mof_C 	C 	0.8062	0.0855	0.4169	0.1
Mof_C 	C 	0.7115	0.1168	0.3992	0.041
Mof_C 	C 	0.533	0.1247	0.3691	0.075
Mof_C 	C 	0.5337	0.1652	0.363	-0.128
Mof_C 	C 	0.6273	0.1827	0.3751	0.046
Mof_C 	C 	0.7146	0.1588	0.394	-0.103
Mof_C 	C 	0.8144	0.1781	0.4087	0.294
Mof_C 	C 	0.8291	0.1962	0.5978	0.367
Mof_C 	C 	0.7201	0.2004	0.6376	-0.103
Mof_C 	C 	0.7012	0.1629	0.6591	0.028
Mof_C 	C 	0.6136	0.1589	0.6979	-0.106
Mof_C 	C 	0.5657	0.1996	0.7112	0.063
Mof_C 	C 	0.6457	0.235	0.6516	0.081
Mof_C 	C 	0.6492	0.273	0.6272	0.096
Mof_C 	C 	0.657	0.3427	0.6183	0.139
Mof_C 	C 	0.6245	0.3484	0.5826	-0.218
Mof_C 	C 	0.6064	0.3126	0.5684	0.116
Mof_C 	C 	0.6124	0.2744	0.5896	-0.16
Mof_C 	C 	0.5758	0.2395	0.5701	0.375
Mof_C 	C 	0.4325	0.2695	0.0789	0.298
Mof_C 	C 	0.3247	0.2453	0.0799	-0.091
Mof_C 	C 	0.2164	0.2572	0.1092	0.03
Mof_C 	C 	0.119	0.2346	0.111	-0.112
Mof_C 	C 	0.1329	0.2016	0.0856	0.073
Mof_C 	C 	0.3306	0.2118	0.0546	0.043
Mof_C 	C 	0.4446	0.1942	0.0246	0.096
Mof_C 	C 	0.5665	0.1329	0.0009	0.092
Mof_C 	C 	0.6529	0.1528	0.9766	-0.157
Mof_C 	C 	0.6262	0.1962	0.9736	0.094
Mof_C 	C 	0.5173	0.2172	0.9974	-0.186
Mof_C 	C 	0.48	0.2626	0.9888	0.504
Mof_C 	C 	0.588	0.3871	0.9237	0.344
Mof_C 	C 	0.5318	0.4097	0.8883	-0.112
Mof_C 	C 	0.571	0.3923	0.8489	0.05
Mof_C 	C 	0.5388	0.416	0.815	-0.137
Mof_C 	C 	0.4686	0.4564	0.8226	0.105
Mof_C 	C 	0.4566	0.4484	0.8926	0.05
Mof_C 	C 	0.4056	0.4693	0.9319	0.057
Mof_C 	C 	0.3818	0.5313	0.9685	0.086
Mof_C 	C 	0.3304	0.5131	0.0041	-0.136
Mof_C 	C 	0.3093	0.473	0.0032	0.055
Mof_C 	C 	0.3445	0.4507	0.9675	-0.101
Mof_C 	C 	0.3043	0.4082	0.9644	0.32
Mof_C 	C 	0.9159	0.3762	0.0176	0.524
Mof_C 	C 	0.8986	0.4093	0.0481	-0.206
Mof_C 	C 	0.9752	0.4414	0.0402	0.107
Mof_C 	C 	0.9536	0.4748	0.0656	-0.165
Mof_C 	C 	0.8526	0.4794	0.097	0.088
Mof_C 	C 	0.8086	0.4145	0.0831	0.101
Mof_C 	C 	0.7275	0.3832	0.1008	0.041
Mof_C 	C 	0.5268	0.3753	0.1309	0.075
Mof_C 	C 	0.5619	0.3348	0.137	-0.128
Mof_C 	C 	0.6851	0.3173	0.1249	0.046
Mof_C 	C 	0.7674	0.3412	0.106	-0.102
Mof_C 	C 	0.9012	0.3219	0.0913	0.294
Mof_C 	C 	0.1231	0.3038	0.9022	0.367
Mof_C 	C 	0.0581	0.2996	0.8624	-0.103
Mof_C 	C 	0.0232	0.3371	0.8409	0.025
Mof_C 	C 	0.9704	0.3411	0.8021	-0.104
Mof_C 	C 	0.9765	0.3004	0.7888	0.065
Mof_C 	C 	0.0323	0.265	0.8484	0.081
Mof_C 	C 	0.0494	0.227	0.8728	0.094
Mof_C 	C 	0.118	0.1573	0.8817	0.14
Mof_C 	C 	0.0555	0.1516	0.9174	-0.221
Mof_C 	C 	0.9874	0.1874	0.9316	0.118
Mof_C 	C 	0.9764	0.2256	0.9104	-0.158
Mof_C 	C 	0.8854	0.2605	0.9299	0.375
Mof_N 	N 	0.7107	0.8584	0.0282	-0.243
Mof_N 	N 	0.6474	0.9333	0.9911	-0.23
Mof_N 	N 	0.1136	0.1067	0.0509	-0.242
Mof_N 	N 	0.2819	0.1132	0.0988	-0.243
Mof_N 	N 	0.7075	0.0575	0.3103	-0.24
Mof_N 	N 	0.5122	0.0244	0.3472	-0.243
Mof_N 	N 	0.0114	0.8554	0.3094	-0.129
Mof_N 	N 	0.1842	0.8093	0.2357	-0.113
Mof_N 	N 	0.0973	0.6416	0.4718	-0.243
Mof_N 	N 	0.0718	0.5667	0.5089	-0.23
Mof_N 	N 	0.7712	0.3933	0.4491	-0.242
Mof_N 	N 	0.9939	0.3868	0.4012	-0.243
Mof_N 	N 	0.5753	0.4425	0.1897	-0.24
Mof_N 	N 	0.3838	0.4756	0.1528	-0.243
Mof_N 	N 	0.6762	0.6446	0.1906	-0.129
Mof_N 	N 	0.7292	0.6907	0.2643	-0.114
Mof_N 	N 	0.7389	0.9718	0.3584	-0.243
Mof_N 	N 	0.6385	0.0089	0.4333	-0.23
Mof_N 	N 	0.1645	0.9491	0.6067	-0.242
Mof_N 	N 	0.3807	0.9012	0.6132	-0.243
Mof_N 	N 	0.0178	0.6897	0.5575	-0.239
Mof_N 	N 	0.8594	0.6528	0.5244	-0.244
Mof_N 	N 	0.3208	0.6906	0.3554	-0.129
Mof_N 	N 	0.4199	0.7643	0.3093	-0.114
Mof_N 	N 	0.5691	0.5282	0.1416	-0.243
Mof_N 	N 	0.5807	0.4911	0.0667	-0.23
Mof_N 	N 	0.2203	0.5509	0.8933	-0.242
Mof_N 	N 	0.3951	0.5988	0.8868	-0.243
Mof_N 	N 	0.765	0.8103	0.9425	-0.24
Mof_N 	N 	0.5366	0.8472	0.9756	-0.243
Mof_N 	N 	0.8668	0.8094	0.1446	-0.129
Mof_N 	N 	0.9935	0.7357	0.1907	-0.115
Mof_N 	N 	0.2893	0.1416	0.9718	-0.243
Mof_N 	N 	0.3526	0.0667	0.0089	-0.23
Mof_N 	N 	0.8864	0.8933	0.9491	-0.242
Mof_N 	N 	0.7181	0.8868	0.9012	-0.243
Mof_N 	N 	0.2925	0.9425	0.6897	-0.24
Mof_N 	N 	0.4878	0.9756	0.6528	-0.243
Mof_N 	N 	0.9886	0.1446	0.6906	-0.129
Mof_N 	N 	0.8158	0.1907	0.7643	-0.113
Mof_N 	N 	0.9027	0.3584	0.5282	-0.243
Mof_N 	N 	0.9282	0.4333	0.4911	-0.23
Mof_N 	N 	0.2288	0.6067	0.5509	-0.242
Mof_N 	N 	0.0061	0.6132	0.5988	-0.243
Mof_N 	N 	0.4247	0.5575	0.8103	-0.24
Mof_N 	N 	0.6162	0.5244	0.8472	-0.243
Mof_N 	N 	0.3238	0.3554	0.8094	-0.129
Mof_N 	N 	0.2708	0.3093	0.7357	-0.114
Mof_N 	N 	0.2611	0.0282	0.6416	-0.243
Mof_N 	N 	0.3615	0.9911	0.5667	-0.23
Mof_N 	N 	0.8355	0.0509	0.3933	-0.242
Mof_N 	N 	0.6193	0.0988	0.3868	-0.243
Mof_N 	N 	0.9822	0.3103	0.4425	-0.239
Mof_N 	N 	0.1406	0.3472	0.4756	-0.244
Mof_N 	N 	0.6792	0.3094	0.6446	-0.129
Mof_N 	N 	0.5801	0.2357	0.6907	-0.114
Mof_N 	N 	0.4309	0.4718	0.8584	-0.243
Mof_N 	N 	0.4193	0.5089	0.9333	-0.23
Mof_N 	N 	0.7797	0.4491	0.1067	-0.242
Mof_N 	N 	0.6049	0.4012	0.1132	-0.243
Mof_N 	N 	0.235	0.1897	0.0575	-0.24
Mof_N 	N 	0.4634	0.1528	0.0244	-0.243
Mof_N 	N 	0.1332	0.1906	0.8554	-0.129
Mof_N 	N 	0.0065	0.2643	0.8093	-0.115
Mof_O 	O 	0.51784	0.07664	0.19208	-0.272
Mof_O 	O 	0.38092	0.07865	0.25091	-0.252
Mof_O 	O 	0.64383	0.99208	0.22446	-0.531
Mof_O 	O 	0.45773	0.97674	0.2168	-0.526
Mof_O 	O 	0.47649	0.92236	0.15166	-0.442
Mof_O 	O 	0.4306	0.9497	0.0931	-0.362
Mof_O 	O 	0.83519	0.94347	0.09435	-0.357
Mof_O 	O 	0.66303	0.98556	0.12078	-0.427
Mof_O 	O 	0.91106	0.09994	0.16014	-0.246
Mof_O 	O 	0.0089	0.0717	0.2111	-0.269
Mof_O 	O 	0.98447	0.996	0.13306	-0.529
Mof_O 	O 	0.16621	0.01473	0.13965	-0.539
Mof_O 	O 	0.1315	0.9624	0.226	-0.458
Mof_O 	O 	0.2938	0.9154	0.2256	-0.394
Mof_O 	O 	0.9809	0.9178	0.1634	-0.467
Mof_O 	O 	0.8908	0.9117	0.2267	-0.367
Mof_O 	O 	0.28656	0.42336	0.30792	-0.272
Mof_O 	O 	0.21048	0.42135	0.24909	-0.252
Mof_O 	O 	0.36037	0.50792	0.27554	-0.531
Mof_O 	O 	0.15127	0.52326	0.2832	-0.525
Mof_O 	O 	0.05051	0.57764	0.34834	-0.442
Mof_O 	O 	0.9734	0.5503	0.4069	-0.363
Mof_O 	O 	0.37301	0.55653	0.40565	-0.356
Mof_O 	O 	0.26937	0.51444	0.37922	-0.427
Mof_O 	O 	0.67114	0.40006	0.33986	-0.247
Mof_O 	O 	0.7917	0.4283	0.2889	-0.268
Mof_O 	O 	0.61353	0.504	0.36694	-0.528
Mof_O 	O 	0.82059	0.48527	0.36035	-0.539
Mof_O 	O 	0.8199	0.5376	0.274	-0.458
Mof_O 	O 	0.9348	0.5846	0.2744	-0.395
Mof_O 	O 	0.5621	0.5822	0.3366	-0.467
Mof_O 	O 	0.5292	0.5883	0.2733	-0.366
Mof_O 	O 	0.70992	0.80792	0.57664	-0.272
Mof_O 	O 	0.63183	0.74909	0.57865	-0.252
Mof_O 	O 	0.86829	0.77554	0.49208	-0.531
Mof_O 	O 	0.67453	0.7832	0.47674	-0.526
Mof_O 	O 	0.62815	0.84834	0.42236	-0.442
Mof_O 	O 	0.5237	0.9069	0.4497	-0.362
Mof_O 	O 	0.92954	0.90565	0.44347	-0.357
Mof_O 	O 	0.78381	0.87922	0.48556	-0.427
Mof_O 	O 	0.0712	0.83986	0.59994	-0.246
Mof_O 	O 	0.22	0.7889	0.5717	-0.268
Mof_O 	O 	0.11753	0.86694	0.496	-0.527
Mof_O 	O 	0.30586	0.86035	0.51473	-0.539
Mof_O 	O 	0.3575	0.774	0.4624	-0.458
Mof_O 	O 	0.5194	0.7744	0.4154	-0.394
Mof_O 	O 	0.1443	0.8366	0.4178	-0.466
Mof_O 	O 	0.1175	0.7733	0.4117	-0.365
Mof_O 	O 	0.59448	0.69208	0.92336	-0.272
Mof_O 	O 	0.45957	0.75091	0.92135	-0.252
Mof_O 	O 	0.63591	0.72446	0.00792	-0.531
Mof_O 	O 	0.43447	0.7168	0.02326	-0.526
Mof_O 	O 	0.39885	0.65166	0.07764	-0.442
Mof_O 	O 	0.3803	0.5931	0.0503	-0.362
Mof_O 	O 	0.77866	0.59435	0.05653	-0.356
Mof_O 	O 	0.64859	0.62078	0.01444	-0.427
Mof_O 	O 	0.011	0.66014	0.90006	-0.246
Mof_O 	O 	0.0806	0.7111	0.9283	-0.268
Mof_O 	O 	0.98047	0.63306	0.004	-0.529
Mof_O 	O 	0.18094	0.63965	0.98527	-0.539
Mof_O 	O 	0.0939	0.726	0.0376	-0.458
Mof_O 	O 	0.2092	0.7256	0.0846	-0.394
Mof_O 	O 	0.8987	0.6634	0.0822	-0.467
Mof_O 	O 	0.8025	0.7267	0.0883	-0.366
Mof_O 	O 	0.48216	0.92336	0.80792	-0.272
Mof_O 	O 	0.61908	0.92135	0.74909	-0.252
Mof_O 	O 	0.35617	0.00792	0.77554	-0.531
Mof_O 	O 	0.54227	0.02326	0.7832	-0.526
Mof_O 	O 	0.52351	0.07764	0.84834	-0.442
Mof_O 	O 	0.5694	0.0503	0.9069	-0.362
Mof_O 	O 	0.16481	0.05653	0.90565	-0.357
Mof_O 	O 	0.33697	0.01444	0.87922	-0.427
Mof_O 	O 	0.08894	0.90006	0.83986	-0.246
Mof_O 	O 	0.9911	0.9283	0.7889	-0.269
Mof_O 	O 	0.01553	0.004	0.86694	-0.529
Mof_O 	O 	0.83379	0.98527	0.86035	-0.539
Mof_O 	O 	0.8685	0.0376	0.774	-0.458
Mof_O 	O 	0.7062	0.0846	0.7744	-0.394
Mof_O 	O 	0.0191	0.0822	0.8366	-0.467
Mof_O 	O 	0.1092	0.0883	0.7733	-0.367
Mof_O 	O 	0.71344	0.57664	0.69208	-0.272
Mof_O 	O 	0.78952	0.57865	0.75091	-0.252
Mof_O 	O 	0.63963	0.49208	0.72446	-0.531
Mof_O 	O 	0.84873	0.47674	0.7168	-0.525
Mof_O 	O 	0.94949	0.42236	0.65166	-0.442
Mof_O 	O 	0.0266	0.4497	0.5931	-0.363
Mof_O 	O 	0.62699	0.44347	0.59435	-0.356
Mof_O 	O 	0.73063	0.48556	0.62078	-0.427
Mof_O 	O 	0.32886	0.59994	0.66014	-0.247
Mof_O 	O 	0.2083	0.5717	0.7111	-0.268
Mof_O 	O 	0.38647	0.496	0.63306	-0.528
Mof_O 	O 	0.17941	0.51473	0.63965	-0.539
Mof_O 	O 	0.1801	0.4624	0.726	-0.458
Mof_O 	O 	0.0652	0.4154	0.7256	-0.395
Mof_O 	O 	0.4379	0.4178	0.6634	-0.467
Mof_O 	O 	0.4708	0.4117	0.7267	-0.366
Mof_O 	O 	0.29008	0.19208	0.42336	-0.272
Mof_O 	O 	0.36817	0.25091	0.42135	-0.252
Mof_O 	O 	0.13171	0.22446	0.50792	-0.531
Mof_O 	O 	0.32547	0.2168	0.52326	-0.526
Mof_O 	O 	0.37185	0.15166	0.57764	-0.442
Mof_O 	O 	0.4763	0.0931	0.5503	-0.362
Mof_O 	O 	0.07046	0.09435	0.55653	-0.357
Mof_O 	O 	0.21619	0.12078	0.51444	-0.427
Mof_O 	O 	0.9288	0.16014	0.40006	-0.246
Mof_O 	O 	0.78	0.2111	0.4283	-0.268
Mof_O 	O 	0.88247	0.13306	0.504	-0.527
Mof_O 	O 	0.69414	0.13965	0.48527	-0.539
Mof_O 	O 	0.6425	0.226	0.5376	-0.458
Mof_O 	O 	0.4806	0.2256	0.5846	-0.394
Mof_O 	O 	0.8557	0.1634	0.5822	-0.466
Mof_O 	O 	0.8825	0.2267	0.5883	-0.365
Mof_O 	O 	0.40552	0.30792	0.07664	-0.272
Mof_O 	O 	0.54043	0.24909	0.07865	-0.252
Mof_O 	O 	0.36409	0.27554	0.99208	-0.531
Mof_O 	O 	0.56553	0.2832	0.97674	-0.526
Mof_O 	O 	0.60115	0.34834	0.92236	-0.442
Mof_O 	O 	0.6197	0.4069	0.9497	-0.362
Mof_O 	O 	0.22134	0.40565	0.94347	-0.356
Mof_O 	O 	0.35141	0.37922	0.98556	-0.427
Mof_O 	O 	0.989	0.33986	0.09994	-0.246
Mof_O 	O 	0.9194	0.2889	0.0717	-0.268
Mof_O 	O 	0.01953	0.36694	0.996	-0.529
Mof_O 	O 	0.81906	0.36035	0.01473	-0.539
Mof_O 	O 	0.9061	0.274	0.9624	-0.458
Mof_O 	O 	0.7908	0.2744	0.9154	-0.394
Mof_O 	O 	0.1013	0.3366	0.9178	-0.467
Mof_O 	O 	0.1975	0.2733	0.9117	-0.366
_end
