data_functionalizedCrystal
_audit_creation_method	'EQeq! by Chris Wilmer'
_symmetry_space_group_name_H-M	'P1'
_symmetry_Int_Tables_number	1
_symmetry_cell_setting	triclinic
loop_
_symmetry_equiv_pos_as_xyz
  x,y,z
_cell_length_a	30.238
_cell_length_b	30.238
_cell_length_c	30.238
_cell_angle_alpha	60
_cell_angle_beta	60
_cell_angle_gamma	60
loop_
_atom_site_label
_atom_site_type_symbol
_atom_site_fract_x
_atom_site_fract_y
_atom_site_fract_z
_atom_site_charge
Mof_Ni	Ni	0.8911	0.15535	0.39421	1.004
Mof_Ni	Ni	0.15535	0.8911	0.55934	1.004
Mof_Ni	Ni	0.39421	0.55934	0.8911	1.004
Mof_Ni	Ni	0.55934	0.39421	0.15535	1.004
Mof_Ni	Ni	0.8911	0.39421	0.55934	1.004
Mof_Ni	Ni	0.15535	0.55934	0.39421	1.004
Mof_Ni	Ni	0.39421	0.8911	0.15535	1.004
Mof_Ni	Ni	0.55934	0.15535	0.8911	1.004
Mof_Ni	Ni	0.8911	0.55934	0.15535	1.004
Mof_Ni	Ni	0.15535	0.39421	0.8911	1.004
Mof_Ni	Ni	0.39421	0.15535	0.55934	1.004
Mof_Ni	Ni	0.55934	0.8911	0.39421	1.004
Mof_Ni	Ni	0.3911	0.65535	0.05934	1.004
Mof_Ni	Ni	0.65535	0.3911	0.89421	1.004
Mof_Ni	Ni	0.89421	0.05934	0.65535	1.004
Mof_Ni	Ni	0.05934	0.89421	0.3911	1.004
Mof_Ni	Ni	0.3911	0.89421	0.65535	1.004
Mof_Ni	Ni	0.65535	0.05934	0.3911	1.004
Mof_Ni	Ni	0.89421	0.3911	0.05934	1.004
Mof_Ni	Ni	0.05934	0.65535	0.89421	1.004
Mof_Ni	Ni	0.3911	0.05934	0.89421	1.004
Mof_Ni	Ni	0.65535	0.89421	0.05934	1.004
Mof_Ni	Ni	0.89421	0.65535	0.3911	1.004
Mof_Ni	Ni	0.05934	0.3911	0.65535	1.004
Mof_H 	H 	0.8832	0.9606	0.5252	0.008
Mof_H 	H 	0.0103	0.0901	0.3695	0.005
Mof_H 	H 	0.0919	0.0887	0.2977	0.087
Mof_H 	H 	0.0151	0.2309	0.2113	0.088
Mof_H 	H 	0.9357	0.2243	0.2787	-0.053
Mof_H 	H 	0.7826	0.1616	0.4108	-0.052
Mof_H 	H 	0.6977	0.1637	0.4757	0.077
Mof_H 	H 	0.7497	0.1579	0.5765	0.08
Mof_H 	H 	0.8317	0.1537	0.5113	-0.019
Mof_H 	H 	0.9606	0.8832	0.631	0.008
Mof_H 	H 	0.0901	0.0103	0.5301	0.005
Mof_H 	H 	0.0887	0.0919	0.5217	0.087
Mof_H 	H 	0.2309	0.0151	0.5427	0.088
Mof_H 	H 	0.2243	0.9357	0.5613	-0.053
Mof_H 	H 	0.1616	0.7826	0.645	-0.052
Mof_H 	H 	0.1637	0.6977	0.6629	0.077
Mof_H 	H 	0.1579	0.7497	0.5159	0.08
Mof_H 	H 	0.1537	0.8317	0.5033	-0.019
Mof_H 	H 	0.5252	0.631	0.8832	0.008
Mof_H 	H 	0.3695	0.5301	0.0103	0.005
Mof_H 	H 	0.2977	0.5217	0.0919	0.087
Mof_H 	H 	0.2113	0.5427	0.0151	0.088
Mof_H 	H 	0.2787	0.5613	0.9357	-0.053
Mof_H 	H 	0.4108	0.645	0.7826	-0.052
Mof_H 	H 	0.4757	0.6629	0.6977	0.077
Mof_H 	H 	0.5765	0.5159	0.7497	0.08
Mof_H 	H 	0.5113	0.5033	0.8317	-0.019
Mof_H 	H 	0.631	0.5252	0.9606	0.008
Mof_H 	H 	0.5301	0.3695	0.0901	0.005
Mof_H 	H 	0.5217	0.2977	0.0887	0.087
Mof_H 	H 	0.5427	0.2113	0.2309	0.088
Mof_H 	H 	0.5613	0.2787	0.2243	-0.053
Mof_H 	H 	0.645	0.4108	0.1616	-0.052
Mof_H 	H 	0.6629	0.4757	0.1637	0.077
Mof_H 	H 	0.5159	0.5765	0.1579	0.08
Mof_H 	H 	0.5033	0.5113	0.1537	-0.019
Mof_H 	H 	0.8832	0.5252	0.631	0.008
Mof_H 	H 	0.0103	0.3695	0.5301	0.005
Mof_H 	H 	0.0919	0.2977	0.5217	0.087
Mof_H 	H 	0.0151	0.2113	0.5427	0.088
Mof_H 	H 	0.9357	0.2787	0.5613	-0.053
Mof_H 	H 	0.7826	0.4108	0.645	-0.052
Mof_H 	H 	0.6977	0.4757	0.6629	0.077
Mof_H 	H 	0.7497	0.5765	0.5159	0.08
Mof_H 	H 	0.8317	0.5113	0.5033	-0.019
Mof_H 	H 	0.9606	0.631	0.5252	0.008
Mof_H 	H 	0.0901	0.5301	0.3695	0.005
Mof_H 	H 	0.0887	0.5217	0.2977	0.087
Mof_H 	H 	0.2309	0.5427	0.2113	0.088
Mof_H 	H 	0.2243	0.5613	0.2787	-0.053
Mof_H 	H 	0.1616	0.645	0.4108	-0.052
Mof_H 	H 	0.1637	0.6629	0.4757	0.077
Mof_H 	H 	0.1579	0.5159	0.5765	0.08
Mof_H 	H 	0.1537	0.5033	0.5113	-0.019
Mof_H 	H 	0.5252	0.8832	0.9606	0.008
Mof_H 	H 	0.3695	0.0103	0.0901	0.005
Mof_H 	H 	0.2977	0.0919	0.0887	0.087
Mof_H 	H 	0.2113	0.0151	0.2309	0.088
Mof_H 	H 	0.2787	0.9357	0.2243	-0.053
Mof_H 	H 	0.4108	0.7826	0.1616	-0.052
Mof_H 	H 	0.4757	0.6977	0.1637	0.077
Mof_H 	H 	0.5765	0.7497	0.1579	0.08
Mof_H 	H 	0.5113	0.8317	0.1537	-0.019
Mof_H 	H 	0.631	0.9606	0.8832	0.008
Mof_H 	H 	0.5301	0.0901	0.0103	0.005
Mof_H 	H 	0.5217	0.0887	0.0919	0.087
Mof_H 	H 	0.5427	0.2309	0.0151	0.088
Mof_H 	H 	0.5613	0.2243	0.9357	-0.053
Mof_H 	H 	0.645	0.1616	0.7826	-0.052
Mof_H 	H 	0.6629	0.1637	0.6977	0.077
Mof_H 	H 	0.5159	0.1579	0.7497	0.08
Mof_H 	H 	0.5033	0.1537	0.8317	-0.019
Mof_H 	H 	0.8832	0.631	0.9606	0.008
Mof_H 	H 	0.0103	0.5301	0.0901	0.005
Mof_H 	H 	0.0919	0.5217	0.0887	0.087
Mof_H 	H 	0.0151	0.5427	0.2309	0.088
Mof_H 	H 	0.9357	0.5613	0.2243	-0.053
Mof_H 	H 	0.7826	0.645	0.1616	-0.052
Mof_H 	H 	0.6977	0.6629	0.1637	0.077
Mof_H 	H 	0.7497	0.5159	0.1579	0.08
Mof_H 	H 	0.8317	0.5033	0.1537	-0.019
Mof_H 	H 	0.9606	0.5252	0.8832	0.008
Mof_H 	H 	0.0901	0.3695	0.0103	0.005
Mof_H 	H 	0.0887	0.2977	0.0919	0.087
Mof_H 	H 	0.2309	0.2113	0.0151	0.088
Mof_H 	H 	0.2243	0.2787	0.9357	-0.053
Mof_H 	H 	0.1616	0.4108	0.7826	-0.052
Mof_H 	H 	0.1637	0.4757	0.6977	0.077
Mof_H 	H 	0.1579	0.5765	0.7497	0.08
Mof_H 	H 	0.1537	0.5113	0.8317	-0.019
Mof_H 	H 	0.5252	0.9606	0.631	0.008
Mof_H 	H 	0.3695	0.0901	0.5301	0.005
Mof_H 	H 	0.2977	0.0887	0.5217	0.087
Mof_H 	H 	0.2113	0.2309	0.5427	0.088
Mof_H 	H 	0.2787	0.2243	0.5613	-0.053
Mof_H 	H 	0.4108	0.1616	0.645	-0.052
Mof_H 	H 	0.4757	0.1637	0.6629	0.077
Mof_H 	H 	0.5765	0.1579	0.5159	0.08
Mof_H 	H 	0.5113	0.1537	0.5033	-0.019
Mof_H 	H 	0.631	0.8832	0.5252	0.008
Mof_H 	H 	0.5301	0.0103	0.3695	0.005
Mof_H 	H 	0.5217	0.0919	0.2977	0.087
Mof_H 	H 	0.5427	0.0151	0.2113	0.088
Mof_H 	H 	0.5613	0.9357	0.2787	-0.053
Mof_H 	H 	0.645	0.7826	0.4108	-0.052
Mof_H 	H 	0.6629	0.6977	0.4757	0.077
Mof_H 	H 	0.5159	0.7497	0.5765	0.08
Mof_H 	H 	0.5033	0.8317	0.5113	-0.019
Mof_H 	H 	0.3832	0.4606	0.131	0.008
Mof_H 	H 	0.5103	0.5901	0.0301	0.005
Mof_H 	H 	0.5919	0.5887	0.0217	0.087
Mof_H 	H 	0.5151	0.7309	0.0427	0.088
Mof_H 	H 	0.4357	0.7243	0.0613	-0.053
Mof_H 	H 	0.2826	0.6616	0.145	-0.052
Mof_H 	H 	0.1977	0.6637	0.1629	0.077
Mof_H 	H 	0.2497	0.6579	0.0159	0.08
Mof_H 	H 	0.3317	0.6537	0.0033	-0.019
Mof_H 	H 	0.4606	0.3832	0.0252	0.008
Mof_H 	H 	0.5901	0.5103	0.8695	0.005
Mof_H 	H 	0.5887	0.5919	0.7977	0.087
Mof_H 	H 	0.7309	0.5151	0.7113	0.088
Mof_H 	H 	0.7243	0.4357	0.7787	-0.053
Mof_H 	H 	0.6616	0.2826	0.9108	-0.052
Mof_H 	H 	0.6637	0.1977	0.9757	0.077
Mof_H 	H 	0.6579	0.2497	0.0765	0.08
Mof_H 	H 	0.6537	0.3317	0.0113	-0.019
Mof_H 	H 	0.0252	0.131	0.4606	0.008
Mof_H 	H 	0.8695	0.0301	0.5901	0.005
Mof_H 	H 	0.7977	0.0217	0.5887	0.087
Mof_H 	H 	0.7113	0.0427	0.7309	0.088
Mof_H 	H 	0.7787	0.0613	0.7243	-0.053
Mof_H 	H 	0.9108	0.145	0.6616	-0.052
Mof_H 	H 	0.9757	0.1629	0.6637	0.077
Mof_H 	H 	0.0765	0.0159	0.6579	0.08
Mof_H 	H 	0.0113	0.0033	0.6537	-0.019
Mof_H 	H 	0.131	0.0252	0.3832	0.008
Mof_H 	H 	0.0301	0.8695	0.5103	0.005
Mof_H 	H 	0.0217	0.7977	0.5919	0.087
Mof_H 	H 	0.0427	0.7113	0.5151	0.088
Mof_H 	H 	0.0613	0.7787	0.4357	-0.053
Mof_H 	H 	0.145	0.9108	0.2826	-0.052
Mof_H 	H 	0.1629	0.9757	0.1977	0.077
Mof_H 	H 	0.0159	0.0765	0.2497	0.081
Mof_H 	H 	0.0033	0.0113	0.3317	-0.019
Mof_H 	H 	0.3832	0.0252	0.4606	0.008
Mof_H 	H 	0.5103	0.8695	0.5901	0.005
Mof_H 	H 	0.5919	0.7977	0.5887	0.087
Mof_H 	H 	0.5151	0.7113	0.7309	0.088
Mof_H 	H 	0.4357	0.7787	0.7243	-0.053
Mof_H 	H 	0.2826	0.9108	0.6616	-0.052
Mof_H 	H 	0.1977	0.9757	0.6637	0.077
Mof_H 	H 	0.2497	0.0765	0.6579	0.08
Mof_H 	H 	0.3317	0.0113	0.6537	-0.019
Mof_H 	H 	0.4606	0.131	0.3832	0.008
Mof_H 	H 	0.5901	0.0301	0.5103	0.005
Mof_H 	H 	0.5887	0.0217	0.5919	0.087
Mof_H 	H 	0.7309	0.0427	0.5151	0.088
Mof_H 	H 	0.7243	0.0613	0.4357	-0.053
Mof_H 	H 	0.6616	0.145	0.2826	-0.052
Mof_H 	H 	0.6637	0.1629	0.1977	0.077
Mof_H 	H 	0.6579	0.0159	0.2497	0.08
Mof_H 	H 	0.6537	0.0033	0.3317	-0.019
Mof_H 	H 	0.0252	0.3832	0.131	0.008
Mof_H 	H 	0.8695	0.5103	0.0301	0.005
Mof_H 	H 	0.7977	0.5919	0.0217	0.087
Mof_H 	H 	0.7113	0.5151	0.0427	0.088
Mof_H 	H 	0.7787	0.4357	0.0613	-0.053
Mof_H 	H 	0.9108	0.2826	0.145	-0.052
Mof_H 	H 	0.9757	0.1977	0.1629	0.077
Mof_H 	H 	0.0765	0.2497	0.0159	0.081
Mof_H 	H 	0.0113	0.3317	0.0033	-0.019
Mof_H 	H 	0.131	0.4606	0.0252	0.008
Mof_H 	H 	0.0301	0.5901	0.8695	0.005
Mof_H 	H 	0.0217	0.5887	0.7977	0.087
Mof_H 	H 	0.0427	0.7309	0.7113	0.088
Mof_H 	H 	0.0613	0.7243	0.7787	-0.053
Mof_H 	H 	0.145	0.6616	0.9108	-0.052
Mof_H 	H 	0.1629	0.6637	0.9757	0.077
Mof_H 	H 	0.0159	0.6579	0.0765	0.08
Mof_H 	H 	0.0033	0.6537	0.0113	-0.019
Mof_H 	H 	0.3832	0.131	0.0252	0.008
Mof_H 	H 	0.5103	0.0301	0.8695	0.005
Mof_H 	H 	0.5919	0.0217	0.7977	0.087
Mof_H 	H 	0.5151	0.0427	0.7113	0.088
Mof_H 	H 	0.4357	0.0613	0.7787	-0.053
Mof_H 	H 	0.2826	0.145	0.9108	-0.052
Mof_H 	H 	0.1977	0.1629	0.9757	0.077
Mof_H 	H 	0.2497	0.0159	0.0765	0.081
Mof_H 	H 	0.3317	0.0033	0.0113	-0.019
Mof_H 	H 	0.4606	0.0252	0.131	0.008
Mof_H 	H 	0.5901	0.8695	0.0301	0.005
Mof_H 	H 	0.5887	0.7977	0.0217	0.087
Mof_H 	H 	0.7309	0.7113	0.0427	0.088
Mof_H 	H 	0.7243	0.7787	0.0613	-0.053
Mof_H 	H 	0.6616	0.9108	0.145	-0.052
Mof_H 	H 	0.6637	0.9757	0.1629	0.077
Mof_H 	H 	0.6579	0.0765	0.0159	0.08
Mof_H 	H 	0.6537	0.0113	0.0033	-0.019
Mof_H 	H 	0.0252	0.4606	0.3832	0.008
Mof_H 	H 	0.8695	0.5901	0.5103	0.005
Mof_H 	H 	0.7977	0.5887	0.5919	0.087
Mof_H 	H 	0.7113	0.7309	0.5151	0.088
Mof_H 	H 	0.7787	0.7243	0.4357	-0.053
Mof_H 	H 	0.9108	0.6616	0.2826	-0.052
Mof_H 	H 	0.9757	0.6637	0.1977	0.077
Mof_H 	H 	0.0765	0.6579	0.2497	0.08
Mof_H 	H 	0.0113	0.6537	0.3317	-0.019
Mof_H 	H 	0.131	0.3832	0.4606	0.008
Mof_H 	H 	0.0301	0.5103	0.5901	0.005
Mof_H 	H 	0.0217	0.5919	0.5887	0.087
Mof_H 	H 	0.0427	0.5151	0.7309	0.088
Mof_H 	H 	0.0613	0.4357	0.7243	-0.053
Mof_H 	H 	0.145	0.2826	0.6616	-0.052
Mof_H 	H 	0.1629	0.1977	0.6637	0.077
Mof_H 	H 	0.0159	0.2497	0.6579	0.08
Mof_H 	H 	0.0033	0.3317	0.6537	-0.019
Mof_H 	H 	0.8958	0.8958	0.6042	0.073
Mof_H 	H 	0.6042	0.6042	0.8958	0.073
Mof_H 	H 	0.8958	0.6042	0.6042	0.073
Mof_H 	H 	0.6042	0.8958	0.8958	0.073
Mof_H 	H 	0.8958	0.6042	0.8958	0.073
Mof_H 	H 	0.6042	0.8958	0.6042	0.073
Mof_H 	H 	0.3958	0.3958	0.1042	0.073
Mof_H 	H 	0.1042	0.1042	0.3958	0.073
Mof_H 	H 	0.3958	0.1042	0.3958	0.073
Mof_H 	H 	0.1042	0.3958	0.1042	0.073
Mof_H 	H 	0.3958	0.1042	0.1042	0.073
Mof_H 	H 	0.1042	0.3958	0.3958	0.073
Mof_C 	C 	0.92897	0.03421	0.45335	0.361
Mof_C 	C 	0.94169	0.99019	0.50245	-0.135
Mof_C 	C 	0.9098	0.95634	0.53554	0.057
Mof_C 	C 	0.01079	0.11835	0.33655	0.07
Mof_C 	C 	0.06061	0.11781	0.29329	-0.141
Mof_C 	C 	0.06315	0.15837	0.24657	0.073
Mof_C 	C 	0.01503	0.20059	0.24237	-0.155
Mof_C 	C 	0.9677	0.1974	0.28392	0.082
Mof_C 	C 	0.11313	0.15899	0.19943	0.094
Mof_C 	C 	0.77593	0.16007	0.44503	0.073
Mof_C 	C 	0.72426	0.16258	0.48372	-0.148
Mof_C 	C 	0.71273	0.16331	0.53311	0.067
Mof_C 	C 	0.755	0.15886	0.54298	-0.151
Mof_C 	C 	0.80419	0.15585	0.50385	0.086
Mof_C 	C 	0.65818	0.16628	0.574	0.091
Mof_C 	C 	0.03421	0.92897	0.58347	0.361
Mof_C 	C 	0.99019	0.94169	0.56567	-0.135
Mof_C 	C 	0.95634	0.9098	0.59832	0.057
Mof_C 	C 	0.11835	0.01079	0.53431	0.07
Mof_C 	C 	0.11781	0.06061	0.52829	-0.141
Mof_C 	C 	0.15837	0.06315	0.53191	0.073
Mof_C 	C 	0.20059	0.01503	0.54201	-0.156
Mof_C 	C 	0.1974	0.9677	0.55098	0.082
Mof_C 	C 	0.15899	0.11313	0.52845	0.094
Mof_C 	C 	0.16007	0.77593	0.61897	0.073
Mof_C 	C 	0.16258	0.72426	0.62944	-0.148
Mof_C 	C 	0.16331	0.71273	0.59085	0.067
Mof_C 	C 	0.15886	0.755	0.54316	-0.151
Mof_C 	C 	0.15585	0.80419	0.53611	0.086
Mof_C 	C 	0.16628	0.65818	0.60154	0.091
Mof_C 	C 	0.45335	0.58347	0.92897	0.361
Mof_C 	C 	0.50245	0.56567	0.94169	-0.134
Mof_C 	C 	0.53554	0.59832	0.9098	0.057
Mof_C 	C 	0.33655	0.53431	0.01079	0.07
Mof_C 	C 	0.29329	0.52829	0.06061	-0.141
Mof_C 	C 	0.24657	0.53191	0.06315	0.073
Mof_C 	C 	0.24237	0.54201	0.01503	-0.156
Mof_C 	C 	0.28392	0.55098	0.9677	0.082
Mof_C 	C 	0.19943	0.52845	0.11313	0.094
Mof_C 	C 	0.44503	0.61897	0.77593	0.073
Mof_C 	C 	0.48372	0.62944	0.72426	-0.148
Mof_C 	C 	0.53311	0.59085	0.71273	0.067
Mof_C 	C 	0.54298	0.54316	0.755	-0.151
Mof_C 	C 	0.50385	0.53611	0.80419	0.086
Mof_C 	C 	0.574	0.60154	0.65818	0.091
Mof_C 	C 	0.58347	0.45335	0.03421	0.362
Mof_C 	C 	0.56567	0.50245	0.99019	-0.135
Mof_C 	C 	0.59832	0.53554	0.95634	0.057
Mof_C 	C 	0.53431	0.33655	0.11835	0.07
Mof_C 	C 	0.52829	0.29329	0.11781	-0.141
Mof_C 	C 	0.53191	0.24657	0.15837	0.073
Mof_C 	C 	0.54201	0.24237	0.20059	-0.156
Mof_C 	C 	0.55098	0.28392	0.1974	0.083
Mof_C 	C 	0.52845	0.19943	0.15899	0.094
Mof_C 	C 	0.61897	0.44503	0.16007	0.073
Mof_C 	C 	0.62944	0.48372	0.16258	-0.148
Mof_C 	C 	0.59085	0.53311	0.16331	0.067
Mof_C 	C 	0.54316	0.54298	0.15886	-0.151
Mof_C 	C 	0.53611	0.50385	0.15585	0.086
Mof_C 	C 	0.60154	0.574	0.16628	0.091
Mof_C 	C 	0.92897	0.45335	0.58347	0.361
Mof_C 	C 	0.94169	0.50245	0.56567	-0.134
Mof_C 	C 	0.9098	0.53554	0.59832	0.057
Mof_C 	C 	0.01079	0.33655	0.53431	0.07
Mof_C 	C 	0.06061	0.29329	0.52829	-0.141
Mof_C 	C 	0.06315	0.24657	0.53191	0.073
Mof_C 	C 	0.01503	0.24237	0.54201	-0.156
Mof_C 	C 	0.9677	0.28392	0.55098	0.082
Mof_C 	C 	0.11313	0.19943	0.52845	0.094
Mof_C 	C 	0.77593	0.44503	0.61897	0.073
Mof_C 	C 	0.72426	0.48372	0.62944	-0.148
Mof_C 	C 	0.71273	0.53311	0.59085	0.067
Mof_C 	C 	0.755	0.54298	0.54316	-0.151
Mof_C 	C 	0.80419	0.50385	0.53611	0.086
Mof_C 	C 	0.65818	0.574	0.60154	0.091
Mof_C 	C 	0.03421	0.58347	0.45335	0.362
Mof_C 	C 	0.99019	0.56567	0.50245	-0.135
Mof_C 	C 	0.95634	0.59832	0.53554	0.057
Mof_C 	C 	0.11835	0.53431	0.33655	0.07
Mof_C 	C 	0.11781	0.52829	0.29329	-0.141
Mof_C 	C 	0.15837	0.53191	0.24657	0.073
Mof_C 	C 	0.20059	0.54201	0.24237	-0.156
Mof_C 	C 	0.1974	0.55098	0.28392	0.083
Mof_C 	C 	0.15899	0.52845	0.19943	0.094
Mof_C 	C 	0.16007	0.61897	0.44503	0.073
Mof_C 	C 	0.16258	0.62944	0.48372	-0.148
Mof_C 	C 	0.16331	0.59085	0.53311	0.067
Mof_C 	C 	0.15886	0.54316	0.54298	-0.151
Mof_C 	C 	0.15585	0.53611	0.50385	0.086
Mof_C 	C 	0.16628	0.60154	0.574	0.091
Mof_C 	C 	0.45335	0.92897	0.03421	0.361
Mof_C 	C 	0.50245	0.94169	0.99019	-0.135
Mof_C 	C 	0.53554	0.9098	0.95634	0.057
Mof_C 	C 	0.33655	0.01079	0.11835	0.07
Mof_C 	C 	0.29329	0.06061	0.11781	-0.141
Mof_C 	C 	0.24657	0.06315	0.15837	0.073
Mof_C 	C 	0.24237	0.01503	0.20059	-0.155
Mof_C 	C 	0.28392	0.9677	0.1974	0.082
Mof_C 	C 	0.19943	0.11313	0.15899	0.094
Mof_C 	C 	0.44503	0.77593	0.16007	0.073
Mof_C 	C 	0.48372	0.72426	0.16258	-0.148
Mof_C 	C 	0.53311	0.71273	0.16331	0.067
Mof_C 	C 	0.54298	0.755	0.15886	-0.151
Mof_C 	C 	0.50385	0.80419	0.15585	0.086
Mof_C 	C 	0.574	0.65818	0.16628	0.091
Mof_C 	C 	0.58347	0.03421	0.92897	0.361
Mof_C 	C 	0.56567	0.99019	0.94169	-0.135
Mof_C 	C 	0.59832	0.95634	0.9098	0.057
Mof_C 	C 	0.53431	0.11835	0.01079	0.07
Mof_C 	C 	0.52829	0.11781	0.06061	-0.141
Mof_C 	C 	0.53191	0.15837	0.06315	0.073
Mof_C 	C 	0.54201	0.20059	0.01503	-0.156
Mof_C 	C 	0.55098	0.1974	0.9677	0.082
Mof_C 	C 	0.52845	0.15899	0.11313	0.094
Mof_C 	C 	0.61897	0.16007	0.77593	0.073
Mof_C 	C 	0.62944	0.16258	0.72426	-0.148
Mof_C 	C 	0.59085	0.16331	0.71273	0.067
Mof_C 	C 	0.54316	0.15886	0.755	-0.151
Mof_C 	C 	0.53611	0.15585	0.80419	0.086
Mof_C 	C 	0.60154	0.16628	0.65818	0.091
Mof_C 	C 	0.92897	0.58347	0.03421	0.361
Mof_C 	C 	0.94169	0.56567	0.99019	-0.135
Mof_C 	C 	0.9098	0.59832	0.95634	0.057
Mof_C 	C 	0.01079	0.53431	0.11835	0.07
Mof_C 	C 	0.06061	0.52829	0.11781	-0.141
Mof_C 	C 	0.06315	0.53191	0.15837	0.073
Mof_C 	C 	0.01503	0.54201	0.20059	-0.156
Mof_C 	C 	0.9677	0.55098	0.1974	0.082
Mof_C 	C 	0.11313	0.52845	0.15899	0.094
Mof_C 	C 	0.77593	0.61897	0.16007	0.073
Mof_C 	C 	0.72426	0.62944	0.16258	-0.148
Mof_C 	C 	0.71273	0.59085	0.16331	0.067
Mof_C 	C 	0.755	0.54316	0.15886	-0.151
Mof_C 	C 	0.80419	0.53611	0.15585	0.086
Mof_C 	C 	0.65818	0.60154	0.16628	0.091
Mof_C 	C 	0.03421	0.45335	0.92897	0.361
Mof_C 	C 	0.99019	0.50245	0.94169	-0.135
Mof_C 	C 	0.95634	0.53554	0.9098	0.057
Mof_C 	C 	0.11835	0.33655	0.01079	0.07
Mof_C 	C 	0.11781	0.29329	0.06061	-0.141
Mof_C 	C 	0.15837	0.24657	0.06315	0.073
Mof_C 	C 	0.20059	0.24237	0.01503	-0.155
Mof_C 	C 	0.1974	0.28392	0.9677	0.082
Mof_C 	C 	0.15899	0.19943	0.11313	0.094
Mof_C 	C 	0.16007	0.44503	0.77593	0.073
Mof_C 	C 	0.16258	0.48372	0.72426	-0.148
Mof_C 	C 	0.16331	0.53311	0.71273	0.067
Mof_C 	C 	0.15886	0.54298	0.755	-0.151
Mof_C 	C 	0.15585	0.50385	0.80419	0.086
Mof_C 	C 	0.16628	0.574	0.65818	0.091
Mof_C 	C 	0.45335	0.03421	0.58347	0.362
Mof_C 	C 	0.50245	0.99019	0.56567	-0.135
Mof_C 	C 	0.53554	0.95634	0.59832	0.057
Mof_C 	C 	0.33655	0.11835	0.53431	0.07
Mof_C 	C 	0.29329	0.11781	0.52829	-0.141
Mof_C 	C 	0.24657	0.15837	0.53191	0.073
Mof_C 	C 	0.24237	0.20059	0.54201	-0.156
Mof_C 	C 	0.28392	0.1974	0.55098	0.083
Mof_C 	C 	0.19943	0.15899	0.52845	0.094
Mof_C 	C 	0.44503	0.16007	0.61897	0.073
Mof_C 	C 	0.48372	0.16258	0.62944	-0.148
Mof_C 	C 	0.53311	0.16331	0.59085	0.067
Mof_C 	C 	0.54298	0.15886	0.54316	-0.151
Mof_C 	C 	0.50385	0.15585	0.53611	0.086
Mof_C 	C 	0.574	0.16628	0.60154	0.091
Mof_C 	C 	0.58347	0.92897	0.45335	0.361
Mof_C 	C 	0.56567	0.94169	0.50245	-0.134
Mof_C 	C 	0.59832	0.9098	0.53554	0.057
Mof_C 	C 	0.53431	0.01079	0.33655	0.07
Mof_C 	C 	0.52829	0.06061	0.29329	-0.141
Mof_C 	C 	0.53191	0.06315	0.24657	0.073
Mof_C 	C 	0.54201	0.01503	0.24237	-0.156
Mof_C 	C 	0.55098	0.9677	0.28392	0.082
Mof_C 	C 	0.52845	0.11313	0.19943	0.094
Mof_C 	C 	0.61897	0.77593	0.44503	0.073
Mof_C 	C 	0.62944	0.72426	0.48372	-0.148
Mof_C 	C 	0.59085	0.71273	0.53311	0.067
Mof_C 	C 	0.54316	0.755	0.54298	-0.151
Mof_C 	C 	0.53611	0.80419	0.50385	0.086
Mof_C 	C 	0.60154	0.65818	0.574	0.091
Mof_C 	C 	0.42897	0.53421	0.08347	0.361
Mof_C 	C 	0.44169	0.49019	0.06567	-0.134
Mof_C 	C 	0.4098	0.45634	0.09832	0.057
Mof_C 	C 	0.51079	0.61835	0.03431	0.07
Mof_C 	C 	0.56061	0.61781	0.02829	-0.141
Mof_C 	C 	0.56315	0.65837	0.03191	0.073
Mof_C 	C 	0.51503	0.70059	0.04201	-0.156
Mof_C 	C 	0.4677	0.6974	0.05098	0.083
Mof_C 	C 	0.61313	0.65899	0.02845	0.093
Mof_C 	C 	0.27593	0.66007	0.11897	0.073
Mof_C 	C 	0.22426	0.66258	0.12944	-0.148
Mof_C 	C 	0.21273	0.66331	0.09085	0.066
Mof_C 	C 	0.255	0.65886	0.04316	-0.151
Mof_C 	C 	0.30419	0.65585	0.03611	0.086
Mof_C 	C 	0.15818	0.66628	0.10154	0.091
Mof_C 	C 	0.53421	0.42897	0.95335	0.361
Mof_C 	C 	0.49019	0.44169	0.00245	-0.134
Mof_C 	C 	0.45634	0.4098	0.03554	0.057
Mof_C 	C 	0.61835	0.51079	0.83655	0.07
Mof_C 	C 	0.61781	0.56061	0.79329	-0.141
Mof_C 	C 	0.65837	0.56315	0.74657	0.073
Mof_C 	C 	0.70059	0.51503	0.74237	-0.156
Mof_C 	C 	0.6974	0.4677	0.78392	0.083
Mof_C 	C 	0.65899	0.61313	0.69943	0.094
Mof_C 	C 	0.66007	0.27593	0.94503	0.073
Mof_C 	C 	0.66258	0.22426	0.98372	-0.149
Mof_C 	C 	0.66331	0.21273	0.03311	0.067
Mof_C 	C 	0.65886	0.255	0.04298	-0.151
Mof_C 	C 	0.65585	0.30419	0.00385	0.086
Mof_C 	C 	0.66628	0.15818	0.074	0.091
Mof_C 	C 	0.95335	0.08347	0.53421	0.361
Mof_C 	C 	0.00245	0.06567	0.49019	-0.134
Mof_C 	C 	0.03554	0.09832	0.45634	0.057
Mof_C 	C 	0.83655	0.03431	0.61835	0.07
Mof_C 	C 	0.79329	0.02829	0.61781	-0.141
Mof_C 	C 	0.74657	0.03191	0.65837	0.073
Mof_C 	C 	0.74237	0.04201	0.70059	-0.156
Mof_C 	C 	0.78392	0.05098	0.6974	0.083
Mof_C 	C 	0.69943	0.02845	0.65899	0.093
Mof_C 	C 	0.94503	0.11897	0.66007	0.073
Mof_C 	C 	0.98372	0.12944	0.66258	-0.149
Mof_C 	C 	0.03311	0.09085	0.66331	0.067
Mof_C 	C 	0.04298	0.04316	0.65886	-0.152
Mof_C 	C 	0.00385	0.03611	0.65585	0.086
Mof_C 	C 	0.074	0.10154	0.66628	0.091
Mof_C 	C 	0.08347	0.95335	0.42897	0.361
Mof_C 	C 	0.06567	0.00245	0.44169	-0.134
Mof_C 	C 	0.09832	0.03554	0.4098	0.057
Mof_C 	C 	0.03431	0.83655	0.51079	0.07
Mof_C 	C 	0.02829	0.79329	0.56061	-0.141
Mof_C 	C 	0.03191	0.74657	0.56315	0.073
Mof_C 	C 	0.04201	0.74237	0.51503	-0.156
Mof_C 	C 	0.05098	0.78392	0.4677	0.083
Mof_C 	C 	0.02845	0.69943	0.61313	0.093
Mof_C 	C 	0.11897	0.94503	0.27593	0.073
Mof_C 	C 	0.12944	0.98372	0.22426	-0.149
Mof_C 	C 	0.09085	0.03311	0.21273	0.067
Mof_C 	C 	0.04316	0.04298	0.255	-0.152
Mof_C 	C 	0.03611	0.00385	0.30419	0.086
Mof_C 	C 	0.10154	0.074	0.15818	0.091
Mof_C 	C 	0.42897	0.95335	0.53421	0.361
Mof_C 	C 	0.44169	0.00245	0.49019	-0.134
Mof_C 	C 	0.4098	0.03554	0.45634	0.057
Mof_C 	C 	0.51079	0.83655	0.61835	0.07
Mof_C 	C 	0.56061	0.79329	0.61781	-0.141
Mof_C 	C 	0.56315	0.74657	0.65837	0.073
Mof_C 	C 	0.51503	0.74237	0.70059	-0.156
Mof_C 	C 	0.4677	0.78392	0.6974	0.083
Mof_C 	C 	0.61313	0.69943	0.65899	0.094
Mof_C 	C 	0.27593	0.94503	0.66007	0.073
Mof_C 	C 	0.22426	0.98372	0.66258	-0.149
Mof_C 	C 	0.21273	0.03311	0.66331	0.067
Mof_C 	C 	0.255	0.04298	0.65886	-0.151
Mof_C 	C 	0.30419	0.00385	0.65585	0.086
Mof_C 	C 	0.15818	0.074	0.66628	0.091
Mof_C 	C 	0.53421	0.08347	0.42897	0.361
Mof_C 	C 	0.49019	0.06567	0.44169	-0.134
Mof_C 	C 	0.45634	0.09832	0.4098	0.057
Mof_C 	C 	0.61835	0.03431	0.51079	0.07
Mof_C 	C 	0.61781	0.02829	0.56061	-0.141
Mof_C 	C 	0.65837	0.03191	0.56315	0.073
Mof_C 	C 	0.70059	0.04201	0.51503	-0.156
Mof_C 	C 	0.6974	0.05098	0.4677	0.083
Mof_C 	C 	0.65899	0.02845	0.61313	0.093
Mof_C 	C 	0.66007	0.11897	0.27593	0.073
Mof_C 	C 	0.66258	0.12944	0.22426	-0.148
Mof_C 	C 	0.66331	0.09085	0.21273	0.066
Mof_C 	C 	0.65886	0.04316	0.255	-0.151
Mof_C 	C 	0.65585	0.03611	0.30419	0.086
Mof_C 	C 	0.66628	0.10154	0.15818	0.091
Mof_C 	C 	0.95335	0.42897	0.08347	0.361
Mof_C 	C 	0.00245	0.44169	0.06567	-0.134
Mof_C 	C 	0.03554	0.4098	0.09832	0.057
Mof_C 	C 	0.83655	0.51079	0.03431	0.07
Mof_C 	C 	0.79329	0.56061	0.02829	-0.141
Mof_C 	C 	0.74657	0.56315	0.03191	0.073
Mof_C 	C 	0.74237	0.51503	0.04201	-0.156
Mof_C 	C 	0.78392	0.4677	0.05098	0.083
Mof_C 	C 	0.69943	0.61313	0.02845	0.093
Mof_C 	C 	0.94503	0.27593	0.11897	0.073
Mof_C 	C 	0.98372	0.22426	0.12944	-0.149
Mof_C 	C 	0.03311	0.21273	0.09085	0.067
Mof_C 	C 	0.04298	0.255	0.04316	-0.152
Mof_C 	C 	0.00385	0.30419	0.03611	0.086
Mof_C 	C 	0.074	0.15818	0.10154	0.091
Mof_C 	C 	0.08347	0.53421	0.95335	0.361
Mof_C 	C 	0.06567	0.49019	0.00245	-0.134
Mof_C 	C 	0.09832	0.45634	0.03554	0.057
Mof_C 	C 	0.03431	0.61835	0.83655	0.07
Mof_C 	C 	0.02829	0.61781	0.79329	-0.141
Mof_C 	C 	0.03191	0.65837	0.74657	0.073
Mof_C 	C 	0.04201	0.70059	0.74237	-0.156
Mof_C 	C 	0.05098	0.6974	0.78392	0.083
Mof_C 	C 	0.02845	0.65899	0.69943	0.093
Mof_C 	C 	0.11897	0.66007	0.94503	0.073
Mof_C 	C 	0.12944	0.66258	0.98372	-0.149
Mof_C 	C 	0.09085	0.66331	0.03311	0.067
Mof_C 	C 	0.04316	0.65886	0.04298	-0.152
Mof_C 	C 	0.03611	0.65585	0.00385	0.086
Mof_C 	C 	0.10154	0.66628	0.074	0.091
Mof_C 	C 	0.42897	0.08347	0.95335	0.361
Mof_C 	C 	0.44169	0.06567	0.00245	-0.134
Mof_C 	C 	0.4098	0.09832	0.03554	0.057
Mof_C 	C 	0.51079	0.03431	0.83655	0.07
Mof_C 	C 	0.56061	0.02829	0.79329	-0.141
Mof_C 	C 	0.56315	0.03191	0.74657	0.073
Mof_C 	C 	0.51503	0.04201	0.74237	-0.156
Mof_C 	C 	0.4677	0.05098	0.78392	0.083
Mof_C 	C 	0.61313	0.02845	0.69943	0.093
Mof_C 	C 	0.27593	0.11897	0.94503	0.073
Mof_C 	C 	0.22426	0.12944	0.98372	-0.149
Mof_C 	C 	0.21273	0.09085	0.03311	0.067
Mof_C 	C 	0.255	0.04316	0.04298	-0.152
Mof_C 	C 	0.30419	0.03611	0.00385	0.086
Mof_C 	C 	0.15818	0.10154	0.074	0.091
Mof_C 	C 	0.53421	0.95335	0.08347	0.361
Mof_C 	C 	0.49019	0.00245	0.06567	-0.134
Mof_C 	C 	0.45634	0.03554	0.09832	0.057
Mof_C 	C 	0.61835	0.83655	0.03431	0.07
Mof_C 	C 	0.61781	0.79329	0.02829	-0.141
Mof_C 	C 	0.65837	0.74657	0.03191	0.073
Mof_C 	C 	0.70059	0.74237	0.04201	-0.156
Mof_C 	C 	0.6974	0.78392	0.05098	0.083
Mof_C 	C 	0.65899	0.69943	0.02845	0.093
Mof_C 	C 	0.66007	0.94503	0.11897	0.073
Mof_C 	C 	0.66258	0.98372	0.12944	-0.149
Mof_C 	C 	0.66331	0.03311	0.09085	0.067
Mof_C 	C 	0.65886	0.04298	0.04316	-0.152
Mof_C 	C 	0.65585	0.00385	0.03611	0.086
Mof_C 	C 	0.66628	0.074	0.10154	0.091
Mof_C 	C 	0.95335	0.53421	0.42897	0.361
Mof_C 	C 	0.00245	0.49019	0.44169	-0.134
Mof_C 	C 	0.03554	0.45634	0.4098	0.057
Mof_C 	C 	0.83655	0.61835	0.51079	0.07
Mof_C 	C 	0.79329	0.61781	0.56061	-0.141
Mof_C 	C 	0.74657	0.65837	0.56315	0.073
Mof_C 	C 	0.74237	0.70059	0.51503	-0.156
Mof_C 	C 	0.78392	0.6974	0.4677	0.083
Mof_C 	C 	0.69943	0.65899	0.61313	0.094
Mof_C 	C 	0.94503	0.66007	0.27593	0.073
Mof_C 	C 	0.98372	0.66258	0.22426	-0.149
Mof_C 	C 	0.03311	0.66331	0.21273	0.067
Mof_C 	C 	0.04298	0.65886	0.255	-0.151
Mof_C 	C 	0.00385	0.65585	0.30419	0.086
Mof_C 	C 	0.074	0.66628	0.15818	0.091
Mof_C 	C 	0.08347	0.42897	0.53421	0.361
Mof_C 	C 	0.06567	0.44169	0.49019	-0.134
Mof_C 	C 	0.09832	0.4098	0.45634	0.057
Mof_C 	C 	0.03431	0.51079	0.61835	0.07
Mof_C 	C 	0.02829	0.56061	0.61781	-0.141
Mof_C 	C 	0.03191	0.56315	0.65837	0.073
Mof_C 	C 	0.04201	0.51503	0.70059	-0.156
Mof_C 	C 	0.05098	0.4677	0.6974	0.083
Mof_C 	C 	0.02845	0.61313	0.65899	0.093
Mof_C 	C 	0.11897	0.27593	0.66007	0.073
Mof_C 	C 	0.12944	0.22426	0.66258	-0.148
Mof_C 	C 	0.09085	0.21273	0.66331	0.066
Mof_C 	C 	0.04316	0.255	0.65886	-0.151
Mof_C 	C 	0.03611	0.30419	0.65585	0.086
Mof_C 	C 	0.10154	0.15818	0.66628	0.091
Mof_C 	C 	0.98249	0.98249	0.51751	0.087
Mof_C 	C 	0.91752	0.91752	0.58248	-0.137
Mof_C 	C 	0.51751	0.51751	0.98249	0.087
Mof_C 	C 	0.58248	0.58248	0.91752	-0.137
Mof_C 	C 	0.98249	0.51751	0.51751	0.087
Mof_C 	C 	0.91752	0.58248	0.58248	-0.137
Mof_C 	C 	0.51751	0.98249	0.98249	0.087
Mof_C 	C 	0.58248	0.91752	0.91752	-0.137
Mof_C 	C 	0.98249	0.51751	0.98249	0.087
Mof_C 	C 	0.91752	0.58248	0.91752	-0.137
Mof_C 	C 	0.51751	0.98249	0.51751	0.087
Mof_C 	C 	0.58248	0.91752	0.58248	-0.137
Mof_C 	C 	0.48249	0.48249	0.01751	0.087
Mof_C 	C 	0.41752	0.41752	0.08248	-0.137
Mof_C 	C 	0.01751	0.01751	0.48249	0.087
Mof_C 	C 	0.08248	0.08248	0.41752	-0.137
Mof_C 	C 	0.48249	0.01751	0.48249	0.087
Mof_C 	C 	0.41752	0.08248	0.41752	-0.137
Mof_C 	C 	0.01751	0.48249	0.01751	0.087
Mof_C 	C 	0.08248	0.41752	0.08248	-0.137
Mof_C 	C 	0.48249	0.01751	0.01751	0.087
Mof_C 	C 	0.41752	0.08248	0.08248	-0.137
Mof_C 	C 	0.01751	0.48249	0.48249	0.087
Mof_C 	C 	0.08248	0.41752	0.41752	-0.137
Mof_N 	N 	0.96489	0.15795	0.33141	-0.27
Mof_N 	N 	0.11255	0.20315	0.15609	-0.138
Mof_N 	N 	0.81543	0.15573	0.45591	-0.266
Mof_N 	N 	0.62233	0.16533	0.56183	-0.141
Mof_N 	N 	0.15795	0.96489	0.54575	-0.27
Mof_N 	N 	0.20315	0.11255	0.52821	-0.138
Mof_N 	N 	0.15573	0.81543	0.57293	-0.266
Mof_N 	N 	0.16533	0.62233	0.65051	-0.141
Mof_N 	N 	0.33141	0.54575	0.96489	-0.27
Mof_N 	N 	0.15609	0.52821	0.11255	-0.138
Mof_N 	N 	0.45591	0.57293	0.81543	-0.266
Mof_N 	N 	0.56183	0.65051	0.62233	-0.141
Mof_N 	N 	0.54575	0.33141	0.15795	-0.27
Mof_N 	N 	0.52821	0.15609	0.20315	-0.138
Mof_N 	N 	0.57293	0.45591	0.15573	-0.266
Mof_N 	N 	0.65051	0.56183	0.16533	-0.141
Mof_N 	N 	0.96489	0.33141	0.54575	-0.27
Mof_N 	N 	0.11255	0.15609	0.52821	-0.138
Mof_N 	N 	0.81543	0.45591	0.57293	-0.266
Mof_N 	N 	0.62233	0.56183	0.65051	-0.141
Mof_N 	N 	0.15795	0.54575	0.33141	-0.27
Mof_N 	N 	0.20315	0.52821	0.15609	-0.138
Mof_N 	N 	0.15573	0.57293	0.45591	-0.266
Mof_N 	N 	0.16533	0.65051	0.56183	-0.141
Mof_N 	N 	0.33141	0.96489	0.15795	-0.27
Mof_N 	N 	0.15609	0.11255	0.20315	-0.138
Mof_N 	N 	0.45591	0.81543	0.15573	-0.266
Mof_N 	N 	0.56183	0.62233	0.16533	-0.141
Mof_N 	N 	0.54575	0.15795	0.96489	-0.27
Mof_N 	N 	0.52821	0.20315	0.11255	-0.138
Mof_N 	N 	0.57293	0.15573	0.81543	-0.266
Mof_N 	N 	0.65051	0.16533	0.62233	-0.141
Mof_N 	N 	0.96489	0.54575	0.15795	-0.27
Mof_N 	N 	0.11255	0.52821	0.20315	-0.138
Mof_N 	N 	0.81543	0.57293	0.15573	-0.266
Mof_N 	N 	0.62233	0.65051	0.16533	-0.141
Mof_N 	N 	0.15795	0.33141	0.96489	-0.27
Mof_N 	N 	0.20315	0.15609	0.11255	-0.138
Mof_N 	N 	0.15573	0.45591	0.81543	-0.266
Mof_N 	N 	0.16533	0.56183	0.62233	-0.141
Mof_N 	N 	0.33141	0.15795	0.54575	-0.27
Mof_N 	N 	0.15609	0.20315	0.52821	-0.138
Mof_N 	N 	0.45591	0.15573	0.57293	-0.266
Mof_N 	N 	0.56183	0.16533	0.65051	-0.141
Mof_N 	N 	0.54575	0.96489	0.33141	-0.27
Mof_N 	N 	0.52821	0.11255	0.15609	-0.138
Mof_N 	N 	0.57293	0.81543	0.45591	-0.266
Mof_N 	N 	0.65051	0.62233	0.56183	-0.141
Mof_N 	N 	0.46489	0.65795	0.04575	-0.27
Mof_N 	N 	0.61255	0.70315	0.02821	-0.138
Mof_N 	N 	0.31543	0.65573	0.07293	-0.266
Mof_N 	N 	0.12233	0.66533	0.15051	-0.141
Mof_N 	N 	0.65795	0.46489	0.83141	-0.27
Mof_N 	N 	0.70315	0.61255	0.65609	-0.138
Mof_N 	N 	0.65573	0.31543	0.95591	-0.266
Mof_N 	N 	0.66533	0.12233	0.06183	-0.141
Mof_N 	N 	0.83141	0.04575	0.65795	-0.27
Mof_N 	N 	0.65609	0.02821	0.70315	-0.138
Mof_N 	N 	0.95591	0.07293	0.65573	-0.266
Mof_N 	N 	0.06183	0.15051	0.66533	-0.141
Mof_N 	N 	0.04575	0.83141	0.46489	-0.27
Mof_N 	N 	0.02821	0.65609	0.61255	-0.138
Mof_N 	N 	0.07293	0.95591	0.31543	-0.266
Mof_N 	N 	0.15051	0.06183	0.12233	-0.141
Mof_N 	N 	0.46489	0.83141	0.65795	-0.27
Mof_N 	N 	0.61255	0.65609	0.70315	-0.138
Mof_N 	N 	0.31543	0.95591	0.65573	-0.266
Mof_N 	N 	0.12233	0.06183	0.66533	-0.141
Mof_N 	N 	0.65795	0.04575	0.46489	-0.27
Mof_N 	N 	0.70315	0.02821	0.61255	-0.138
Mof_N 	N 	0.65573	0.07293	0.31543	-0.266
Mof_N 	N 	0.66533	0.15051	0.12233	-0.141
Mof_N 	N 	0.83141	0.46489	0.04575	-0.27
Mof_N 	N 	0.65609	0.61255	0.02821	-0.138
Mof_N 	N 	0.95591	0.31543	0.07293	-0.266
Mof_N 	N 	0.06183	0.12233	0.15051	-0.141
Mof_N 	N 	0.04575	0.65795	0.83141	-0.27
Mof_N 	N 	0.02821	0.70315	0.65609	-0.138
Mof_N 	N 	0.07293	0.65573	0.95591	-0.266
Mof_N 	N 	0.15051	0.66533	0.06183	-0.141
Mof_N 	N 	0.46489	0.04575	0.83141	-0.27
Mof_N 	N 	0.61255	0.02821	0.65609	-0.138
Mof_N 	N 	0.31543	0.07293	0.95591	-0.266
Mof_N 	N 	0.12233	0.15051	0.06183	-0.141
Mof_N 	N 	0.65795	0.83141	0.04575	-0.27
Mof_N 	N 	0.70315	0.65609	0.02821	-0.138
Mof_N 	N 	0.65573	0.95591	0.07293	-0.266
Mof_N 	N 	0.66533	0.06183	0.15051	-0.141
Mof_N 	N 	0.83141	0.65795	0.46489	-0.27
Mof_N 	N 	0.65609	0.70315	0.61255	-0.138
Mof_N 	N 	0.95591	0.65573	0.31543	-0.266
Mof_N 	N 	0.06183	0.66533	0.12233	-0.141
Mof_N 	N 	0.04575	0.46489	0.65795	-0.27
Mof_N 	N 	0.02821	0.61255	0.70315	-0.138
Mof_N 	N 	0.07293	0.31543	0.65573	-0.266
Mof_N 	N 	0.15051	0.12233	0.66533	-0.141
Mof_O 	O 	0.92486	0.08108	0.4449	-0.426
Mof_O 	O 	0.92199	0.02323	0.42279	-0.319
Mof_O 	O 	0.08108	0.92486	0.54916	-0.426
Mof_O 	O 	0.02323	0.92199	0.63199	-0.319
Mof_O 	O 	0.4449	0.54916	0.92486	-0.426
Mof_O 	O 	0.42279	0.63199	0.92199	-0.319
Mof_O 	O 	0.54916	0.4449	0.08108	-0.426
Mof_O 	O 	0.63199	0.42279	0.02323	-0.319
Mof_O 	O 	0.92486	0.4449	0.54916	-0.426
Mof_O 	O 	0.92199	0.42279	0.63199	-0.319
Mof_O 	O 	0.08108	0.54916	0.4449	-0.426
Mof_O 	O 	0.02323	0.63199	0.42279	-0.319
Mof_O 	O 	0.4449	0.92486	0.08108	-0.426
Mof_O 	O 	0.42279	0.92199	0.02323	-0.319
Mof_O 	O 	0.54916	0.08108	0.92486	-0.426
Mof_O 	O 	0.63199	0.02323	0.92199	-0.319
Mof_O 	O 	0.92486	0.54916	0.08108	-0.426
Mof_O 	O 	0.92199	0.63199	0.02323	-0.319
Mof_O 	O 	0.08108	0.4449	0.92486	-0.426
Mof_O 	O 	0.02323	0.42279	0.92199	-0.319
Mof_O 	O 	0.4449	0.08108	0.54916	-0.426
Mof_O 	O 	0.42279	0.02323	0.63199	-0.319
Mof_O 	O 	0.54916	0.92486	0.4449	-0.426
Mof_O 	O 	0.63199	0.92199	0.42279	-0.319
Mof_O 	O 	0.42486	0.58108	0.04916	-0.426
Mof_O 	O 	0.42199	0.52323	0.13199	-0.319
Mof_O 	O 	0.58108	0.42486	0.9449	-0.426
Mof_O 	O 	0.52323	0.42199	0.92279	-0.319
Mof_O 	O 	0.9449	0.04916	0.58108	-0.426
Mof_O 	O 	0.92279	0.13199	0.52323	-0.319
Mof_O 	O 	0.04916	0.9449	0.42486	-0.426
Mof_O 	O 	0.13199	0.92279	0.42199	-0.319
Mof_O 	O 	0.42486	0.9449	0.58108	-0.426
Mof_O 	O 	0.42199	0.92279	0.52323	-0.319
Mof_O 	O 	0.58108	0.04916	0.42486	-0.426
Mof_O 	O 	0.52323	0.13199	0.42199	-0.319
Mof_O 	O 	0.9449	0.42486	0.04916	-0.426
Mof_O 	O 	0.92279	0.42199	0.13199	-0.319
Mof_O 	O 	0.04916	0.58108	0.9449	-0.426
Mof_O 	O 	0.13199	0.52323	0.92279	-0.319
Mof_O 	O 	0.42486	0.04916	0.9449	-0.426
Mof_O 	O 	0.42199	0.13199	0.92279	-0.319
Mof_O 	O 	0.58108	0.9449	0.04916	-0.426
Mof_O 	O 	0.52323	0.92279	0.13199	-0.319
Mof_O 	O 	0.9449	0.58108	0.42486	-0.426
Mof_O 	O 	0.92279	0.52323	0.42199	-0.319
Mof_O 	O 	0.04916	0.42486	0.58108	-0.426
Mof_O 	O 	0.13199	0.42199	0.52323	-0.319
_end
