data_functionalizedCrystal
_audit_creation_method	'EQeq! by Chris Wilmer'
_symmetry_space_group_name_H-M	'P1'
_symmetry_Int_Tables_number	1
_symmetry_cell_setting	triclinic
loop_
_symmetry_equiv_pos_as_xyz
  x,y,z
_cell_length_a	20.276
_cell_length_b	7.5323
_cell_length_c	6.76
_cell_angle_alpha	90
_cell_angle_beta	100.72
_cell_angle_gamma	90
loop_
_atom_site_label
_atom_site_type_symbol
_atom_site_fract_x
_atom_site_fract_y
_atom_site_fract_z
_atom_site_charge
Mof_Al	Al	0.99872	0.0002	0.9987	2.318
Mof_O 	O 	0.9998	0.8899	0.7445	-1.337
Mof_O 	O 	0.21503	0.22064	0.19301	0.147
Mof_O 	O 	0.28083	0.26844	0.25201	-0.112
Mof_C 	C 	0.0792	0.12171	0.06219	-0.021
Mof_C 	C 	0.41735	0.36737	0.36533	-1.285
Mof_C 	C 	0.18884	0.19673	0.99238	-0.251
Mof_C 	C 	0.22846	0.22064	0.85075	0.186
Mof_C 	C 	0.29427	0.26844	0.90974	-0.325
Mof_C 	C 	0.32045	0.29235	0.11037	0.3
Mof_C 	C 	0.11679	0.14439	0.9278	-0.012
Mof_C 	C 	0.09195	0.12171	0.73742	-0.269
Mof_C 	C 	0.3925	0.34469	0.17496	0.826
Mof_C 	C 	0.4301	0.36737	0.04056	-0.745
Mof_Al	Al	0.49872	0.5002	0.9987	2.905
Mof_O 	O 	0.4998	0.3899	0.7445	-1.551
Mof_O 	O 	0.71503	0.72064	0.19301	0.135
Mof_O 	O 	0.78083	0.76844	0.25201	-0.17
Mof_C 	C 	0.5792	0.62171	0.06219	-0.392
Mof_C 	C 	0.91735	0.86737	0.36533	-0.943
Mof_C 	C 	0.68884	0.69673	0.99238	-0.356
Mof_C 	C 	0.72846	0.72064	0.85075	0.188
Mof_C 	C 	0.79427	0.76844	0.90974	-0.392
Mof_C 	C 	0.82045	0.79235	0.11037	0.345
Mof_C 	C 	0.61679	0.64439	0.9278	0.232
Mof_C 	C 	0.59195	0.62171	0.73742	-0.687
Mof_C 	C 	0.8925	0.84469	0.17496	0.575
Mof_C 	C 	0.9301	0.86737	0.04056	-0.631
Mof_Al	Al	0.99872	0.9998	0.4987	3.845
Mof_O 	O 	0.9998	0.1101	0.2445	-1.109
Mof_O 	O 	0.21503	0.77936	0.69301	-0.133
Mof_O 	O 	0.28083	0.73156	0.75201	-0.093
Mof_C 	C 	0.0792	0.87829	0.56219	-0.99
Mof_C 	C 	0.41735	0.63263	0.86533	-1.137
Mof_C 	C 	0.18884	0.80327	0.49238	-0.009
Mof_C 	C 	0.22846	0.77936	0.35075	0.039
Mof_C 	C 	0.29427	0.73156	0.40974	0.203
Mof_C 	C 	0.32045	0.70765	0.61037	-0.282
Mof_C 	C 	0.11679	0.85561	0.4278	0.477
Mof_C 	C 	0.09195	0.87829	0.23742	-0.347
Mof_C 	C 	0.3925	0.65531	0.67496	1.245
Mof_C 	C 	0.4301	0.63263	0.54056	-1.958
Mof_Al	Al	0.49872	0.4998	0.4987	5.802
Mof_O 	O 	0.4998	0.6101	0.2445	-1.458
Mof_O 	O 	0.71503	0.27936	0.69301	-0.074
Mof_O 	O 	0.78083	0.23156	0.75201	-0.105
Mof_C 	C 	0.5792	0.37829	0.56219	-1.597
Mof_C 	C 	0.91735	0.13263	0.86533	-0.869
Mof_C 	C 	0.68884	0.30327	0.49238	-0.09
Mof_C 	C 	0.72846	0.27936	0.35075	0.124
Mof_C 	C 	0.79427	0.23156	0.40974	0.161
Mof_C 	C 	0.82045	0.20765	0.61037	-0.146
Mof_C 	C 	0.61679	0.35561	0.4278	0.772
Mof_C 	C 	0.59195	0.37829	0.23742	-0.545
Mof_C 	C 	0.8925	0.15531	0.67496	0.871
Mof_C 	C 	0.9301	0.13263	0.54056	-1.275
_end
