data_functionalizedCrystal
_audit_creation_method	'EQeq! by Chris Wilmer'
_symmetry_space_group_name_H-M	'P1'
_symmetry_Int_Tables_number	1
_symmetry_cell_setting	triclinic
loop_
_symmetry_equiv_pos_as_xyz
  x,y,z
_cell_length_a	12.157
_cell_length_b	14.202
_cell_length_c	13.065
_cell_angle_alpha	90
_cell_angle_beta	91.848
_cell_angle_gamma	90
loop_
_atom_site_label
_atom_site_type_symbol
_atom_site_fract_x
_atom_site_fract_y
_atom_site_fract_z
_atom_site_charge
Mof_Ga	Ga	0.11264	0.77351	0.3853	4.313
Mof_Ga	Ga	0.85502	0.87895	0.76319	4.246
Mof_Ga	Ga	0.96265	0.73407	0.15808	4.542
Mof_Ga	Ga	0.36466	0.86522	0.20668	4.278
Mof_P 	P 	0.10976	0.5791	0.2715	1.073
Mof_P 	P 	0.12192	0.90733	0.1936	1.067
Mof_P 	P 	0.37279	0.78009	0.42586	1.092
Mof_P 	P 	0.01615	0.79097	0.6116	1.05
Mof_F 	F 	0.9731	0.7632	0.306	-1.449
Mof_F 	F 	0.7863	0.7593	0.723	-1.526
Mof_O 	O 	0.1369	0.8811	0.3083	-1.253
Mof_O 	O 	0.2338	0.902	0.1426	-1.174
Mof_O 	O 	0.9441	0.8693	0.6513	-1.146
Mof_O 	O 	0.0313	0.6211	0.1887	-1.222
Mof_O 	O 	0.8184	0.7609	0.1689	-1.426
Mof_H 	H 	0.7843	0.7122	0.1794	0.471
Mof_O 	O 	0.065	0.4845	0.3061	-1.061
Mof_O 	O 	0.1255	0.6445	0.3644	-1.257
Mof_O 	O 	0.2537	0.7808	0.4544	-1.153
Mof_O 	O 	0.2223	0.5633	0.2235	-1.191
Mof_O 	O 	0.0414	0.8435	0.1348	-1.175
Mof_O 	O 	0.3968	0.8577	0.3461	-1.157
Mof_O 	O 	0.4488	0.8009	0.5181	-1.097
Mof_O 	O 	0.0341	0.8074	0.4987	-1.123
Mof_O 	O 	0.4061	0.6823	0.382	-1.159
Mof_O 	O 	0.0773	0.008	0.184	-1.02
Mof_O 	O 	0.9685	0.6934	0.627	-1.196
Mof_O 	O 	0.1254	0.8019	0.6765	-0.654
Mof_H 	H 	0.1699	0.7624	0.6585	0.304
Mof_Ga	Ga	0.38736	0.27351	0.1147	4.307
Mof_Ga	Ga	0.64498	0.37895	0.73681	4.246
Mof_Ga	Ga	0.53735	0.23407	0.34192	4.576
Mof_Ga	Ga	0.13534	0.36522	0.29332	4.28
Mof_P 	P 	0.39024	0.0791	0.2285	1.073
Mof_P 	P 	0.37808	0.40733	0.3064	1.068
Mof_P 	P 	0.12721	0.28009	0.07414	1.098
Mof_P 	P 	0.48385	0.29097	0.8884	1.053
Mof_F 	F 	0.5269	0.2632	0.194	-1.45
Mof_F 	F 	0.7137	0.2593	0.777	-1.525
Mof_O 	O 	0.3631	0.3811	0.1917	-1.253
Mof_O 	O 	0.2662	0.402	0.3574	-1.175
Mof_O 	O 	0.5559	0.3693	0.8487	-1.148
Mof_O 	O 	0.4687	0.1211	0.3113	-1.234
Mof_O 	O 	0.6816	0.2609	0.3311	-1.432
Mof_H 	H 	0.7157	0.2122	0.3206	0.472
Mof_O 	O 	0.435	0.9845	0.1939	-1.063
Mof_O 	O 	0.3745	0.1445	0.1356	-1.257
Mof_O 	O 	0.2463	0.2808	0.0456	-1.151
Mof_O 	O 	0.2777	0.0633	0.2765	-1.192
Mof_O 	O 	0.4586	0.3435	0.3652	-1.186
Mof_O 	O 	0.1032	0.3577	0.1539	-1.156
Mof_O 	O 	0.0512	0.3009	0.9819	-1.101
Mof_O 	O 	0.4659	0.3074	0.0013	-1.123
Mof_O 	O 	0.0939	0.1823	0.118	-1.157
Mof_O 	O 	0.4227	0.508	0.316	-1.021
Mof_O 	O 	0.5315	0.1934	0.873	-1.198
Mof_O 	O 	0.3746	0.3019	0.8235	-0.653
Mof_H 	H 	0.3301	0.2624	0.8415	0.303
Mof_Ga	Ga	0.88736	0.22649	0.6147	4.314
Mof_Ga	Ga	0.14498	0.12105	0.23681	4.247
Mof_Ga	Ga	0.03735	0.26593	0.84192	4.543
Mof_Ga	Ga	0.63534	0.13478	0.79332	4.279
Mof_P 	P 	0.89024	0.4209	0.7285	1.073
Mof_P 	P 	0.87808	0.09267	0.8064	1.067
Mof_P 	P 	0.62721	0.21991	0.57414	1.092
Mof_P 	P 	0.98385	0.20903	0.3884	1.05
Mof_F 	F 	0.0269	0.2368	0.694	-1.449
Mof_F 	F 	0.2137	0.2407	0.277	-1.526
Mof_O 	O 	0.8631	0.1189	0.6917	-1.253
Mof_O 	O 	0.7662	0.098	0.8574	-1.174
Mof_O 	O 	0.0559	0.1307	0.3487	-1.146
Mof_O 	O 	0.9687	0.3789	0.8113	-1.222
Mof_O 	O 	0.1816	0.2391	0.8311	-1.426
Mof_H 	H 	0.2157	0.2878	0.8206	0.471
Mof_O 	O 	0.935	0.5155	0.6939	-1.061
Mof_O 	O 	0.8745	0.3555	0.6356	-1.257
Mof_O 	O 	0.7463	0.2192	0.5456	-1.153
Mof_O 	O 	0.7777	0.4367	0.7765	-1.191
Mof_O 	O 	0.9586	0.1565	0.8652	-1.175
Mof_O 	O 	0.6032	0.1423	0.6539	-1.157
Mof_O 	O 	0.5512	0.1991	0.4819	-1.097
Mof_O 	O 	0.9659	0.1926	0.5013	-1.123
Mof_O 	O 	0.5939	0.3177	0.618	-1.159
Mof_O 	O 	0.9227	0.992	0.816	-1.02
Mof_O 	O 	0.0315	0.3066	0.373	-1.196
Mof_O 	O 	0.8746	0.1981	0.3235	-0.654
Mof_H 	H 	0.8301	0.2376	0.3415	0.304
Mof_Ga	Ga	0.61264	0.72649	0.8853	4.307
Mof_Ga	Ga	0.35502	0.62105	0.26319	4.246
Mof_Ga	Ga	0.46265	0.76593	0.65808	4.576
Mof_Ga	Ga	0.86466	0.63478	0.70668	4.28
Mof_P 	P 	0.60976	0.9209	0.7715	1.073
Mof_P 	P 	0.62192	0.59267	0.6936	1.068
Mof_P 	P 	0.87279	0.71991	0.92586	1.098
Mof_P 	P 	0.51615	0.70903	0.1116	1.053
Mof_F 	F 	0.4731	0.7368	0.806	-1.45
Mof_F 	F 	0.2863	0.7407	0.223	-1.525
Mof_O 	O 	0.6369	0.6189	0.8083	-1.253
Mof_O 	O 	0.7338	0.598	0.6426	-1.175
Mof_O 	O 	0.4441	0.6307	0.1513	-1.148
Mof_O 	O 	0.5313	0.8789	0.6887	-1.234
Mof_O 	O 	0.3184	0.7391	0.6689	-1.432
Mof_H 	H 	0.2843	0.7878	0.6794	0.472
Mof_O 	O 	0.565	0.0155	0.8061	-1.063
Mof_O 	O 	0.6255	0.8555	0.8644	-1.257
Mof_O 	O 	0.7537	0.7192	0.9544	-1.151
Mof_O 	O 	0.7223	0.9367	0.7235	-1.192
Mof_O 	O 	0.5414	0.6565	0.6348	-1.186
Mof_O 	O 	0.8968	0.6423	0.8461	-1.156
Mof_O 	O 	0.9488	0.6991	0.0181	-1.101
Mof_O 	O 	0.5341	0.6926	0.9987	-1.123
Mof_O 	O 	0.9061	0.8177	0.882	-1.157
Mof_O 	O 	0.5773	0.492	0.684	-1.021
Mof_O 	O 	0.4685	0.8066	0.127	-1.198
Mof_O 	O 	0.6254	0.6981	0.1765	-0.653
Mof_H 	H 	0.6699	0.7376	0.1585	0.303
_end
