data_functionalizedCrystal
_audit_creation_method	'EQeq! by Chris Wilmer'
_symmetry_space_group_name_H-M	'P1'
_symmetry_Int_Tables_number	1
_symmetry_cell_setting	triclinic
loop_
_symmetry_equiv_pos_as_xyz
  x,y,z
_cell_length_a	15.1834
_cell_length_b	15.1834
_cell_length_c	26.5282
_cell_angle_alpha	90
_cell_angle_beta	90
_cell_angle_gamma	120
loop_
_atom_site_label
_atom_site_type_symbol
_atom_site_fract_x
_atom_site_fract_y
_atom_site_fract_z
_atom_site_charge
Mof_O 	O 	0.5715	0.4389	0.0231	-0.444
Mof_C 	C 	0.483	0.3641	0.009	0.477
Mof_C 	C 	0.2287	0.8	0.8352	-0.169
Mof_O 	O 	0.4587	0.098	0.856	-0.286
Mof_O 	O 	0.4148	0.3574	0.0311	-0.51
Mof_O 	O 	0.1149	0.6673	0.7806	-0.535
Mof_C 	C 	0.3812	0.0003	0.8516	0.116
Mof_C 	C 	0.2588	0.8358	0.8828	0.086
Mof_H 	H 	0.2279	0.7925	0.91	0.009
Mof_C 	C 	0.3743	0.1467	0.9184	-0.355
Mof_H 	H 	0.3105	0.0939	0.9091	0.147
Mof_C 	C 	0.4595	0.1588	0.8948	0.338
Mof_C 	C 	0.4759	0.2945	0.9691	-0.282
Mof_C 	C 	0.3832	0.2131	0.956	0.231
Mof_H 	H 	0.3252	0.2027	0.973	-0.041
Mof_C 	C 	0.5602	0.3077	0.9444	0.215
Mof_H 	H 	0.6236	0.362	0.953	-0.019
Mof_O 	O 	0.1062	0.635	0.8628	-0.598
Mof_C 	C 	0.1432	0.6932	0.825	0.508
Mof_C 	C 	0.335	0.9362	0.8917	-0.134
Mof_H 	H 	0.3543	0.9594	0.9245	0.098
Mof_C 	C 	0.2799	0.8639	0.7955	0.037
Mof_H 	H 	0.2633	0.8393	0.7627	0.048
Mof_C 	C 	0.5528	0.2401	0.9059	-0.321
Mof_H 	H 	0.6104	0.2508	0.8884	0.159
Mof_C 	C 	0.3544	0.9626	0.8031	-0.022
Mof_H 	H 	0.3871	0.0045	0.7756	0.031
Mof_O 	O 	0.5611	0.1326	0.35643	-0.445
Mof_C 	C 	0.6359	0.1189	0.34233	0.491
Mof_C 	C 	0.2	0.4287	0.16853	-0.496
Mof_O 	O 	0.902	0.3607	0.18933	-0.42
Mof_O 	O 	0.6426	0.0574	0.36443	-0.515
Mof_O 	O 	0.3327	0.4476	0.11393	-0.575
Mof_C 	C 	0.9997	0.3809	0.18493	0.669
Mof_C 	C 	0.1642	0.423	0.21613	0.47
Mof_H 	H 	0.2075	0.4354	0.24333	-0.125
Mof_C 	C 	0.8533	0.2276	0.25173	-0.428
Mof_H 	H 	0.9061	0.2166	0.24243	0.191
Mof_C 	C 	0.8412	0.3007	0.22813	0.431
Mof_C 	C 	0.7055	0.1814	0.30243	-0.324
Mof_C 	C 	0.7869	0.1701	0.28933	0.293
Mof_H 	H 	0.7973	0.1225	0.30633	-0.056
Mof_C 	C 	0.6923	0.2525	0.27773	0.265
Mof_H 	H 	0.638	0.2616	0.28633	-0.037
Mof_O 	O 	0.365	0.4712	0.19613	-0.641
Mof_C 	C 	0.3068	0.45	0.15833	0.633
Mof_C 	C 	0.0638	0.3988	0.22503	-0.646
Mof_H 	H 	0.0406	0.3949	0.25783	0.243
Mof_C 	C 	0.1361	0.416	0.12883	0.515
Mof_H 	H 	0.1607	0.424	0.09603	-0.129
Mof_C 	C 	0.7599	0.3127	0.23923	-0.382
Mof_H 	H 	0.7492	0.3596	0.22173	0.184
Mof_C 	C 	0.0374	0.3918	0.13643	-0.727
Mof_H 	H 	0.9955	0.3826	0.10893	0.333
Mof_O 	O 	0.8674	0.4285	0.68977	-0.416
Mof_C 	C 	0.8811	0.517	0.67567	0.47
Mof_C 	C 	0.5713	0.7713	0.50187	-0.318
Mof_O 	O 	0.6393	0.5413	0.52267	-0.349
Mof_O 	O 	0.9426	0.5852	0.69777	-0.469
Mof_O 	O 	0.5524	0.8851	0.44727	-0.519
Mof_C 	C 	0.6191	0.6188	0.51827	0.393
Mof_C 	C 	0.577	0.7412	0.54947	0.275
Mof_H 	H 	0.5646	0.7721	0.57667	-0.052
Mof_C 	C 	0.7724	0.6257	0.58507	-0.379
Mof_H 	H 	0.7834	0.6895	0.57577	0.177
Mof_C 	C 	0.6993	0.5405	0.56147	0.38
Mof_C 	C 	0.8186	0.5241	0.63577	-0.288
Mof_C 	C 	0.8299	0.6168	0.62267	0.25
Mof_H 	H 	0.8775	0.6748	0.63967	-0.028
Mof_C 	C 	0.7475	0.4398	0.61107	0.23
Mof_H 	H 	0.7384	0.3764	0.61967	-0.024
Mof_O 	O 	0.5288	0.8938	0.52947	-0.586
Mof_C 	C 	0.55	0.8568	0.49167	0.562
Mof_C 	C 	0.6012	0.665	0.55837	-0.383
Mof_H 	H 	0.6051	0.6457	0.59117	0.171
Mof_C 	C 	0.584	0.7201	0.46217	0.273
Mof_H 	H 	0.576	0.7367	0.42937	-0.034
Mof_C 	C 	0.6873	0.4472	0.57257	-0.343
Mof_H 	H 	0.6404	0.3896	0.55507	0.17
Mof_C 	C 	0.6082	0.6456	0.46977	-0.368
Mof_H 	H 	0.6174	0.6129	0.44227	0.183
Mof_O 	O 	0.4285	0.5611	0.0231	-0.447
Mof_C 	C 	0.517	0.6359	0.009	0.49
Mof_C 	C 	0.7713	0.2	0.8352	-0.481
Mof_O 	O 	0.5413	0.902	0.856	-0.418
Mof_O 	O 	0.5852	0.6426	0.0311	-0.51
Mof_O 	O 	0.8851	0.3327	0.7806	-0.535
Mof_C 	C 	0.6188	0.9997	0.8516	0.67
Mof_C 	C 	0.7412	0.1642	0.8828	0.465
Mof_H 	H 	0.7721	0.2075	0.91	-0.119
Mof_C 	C 	0.6257	0.8533	0.9184	-0.423
Mof_H 	H 	0.6895	0.9061	0.9091	0.198
Mof_C 	C 	0.5405	0.8412	0.8948	0.43
Mof_C 	C 	0.5241	0.7055	0.9691	-0.319
Mof_C 	C 	0.6168	0.7869	0.956	0.289
Mof_H 	H 	0.6748	0.7973	0.973	-0.044
Mof_C 	C 	0.4398	0.6923	0.9444	0.262
Mof_H 	H 	0.3764	0.638	0.953	-0.036
Mof_O 	O 	0.8938	0.365	0.8628	-0.598
Mof_C 	C 	0.8568	0.3068	0.825	0.617
Mof_C 	C 	0.665	0.0638	0.8917	-0.64
Mof_H 	H 	0.6457	0.0406	0.9245	0.243
Mof_C 	C 	0.7201	0.1361	0.7955	0.511
Mof_H 	H 	0.7367	0.1607	0.7627	-0.124
Mof_C 	C 	0.4472	0.7599	0.9059	-0.38
Mof_H 	H 	0.3896	0.7492	0.8884	0.185
Mof_C 	C 	0.6456	0.0374	0.8031	-0.724
Mof_H 	H 	0.6129	0.9955	0.7756	0.335
Mof_O 	O 	0.4389	0.8674	0.35643	-0.415
Mof_C 	C 	0.3641	0.8811	0.34233	0.464
Mof_C 	C 	0.8	0.5713	0.16853	-0.176
Mof_O 	O 	0.098	0.6393	0.18933	-0.286
Mof_O 	O 	0.3574	0.9426	0.36443	-0.47
Mof_O 	O 	0.6673	0.5524	0.11393	-0.541
Mof_C 	C 	0.0003	0.6191	0.18493	0.128
Mof_C 	C 	0.8358	0.577	0.21613	0.1
Mof_H 	H 	0.7925	0.5646	0.24333	0.008
Mof_C 	C 	0.1467	0.7724	0.25173	-0.347
Mof_H 	H 	0.0939	0.7834	0.24243	0.153
Mof_C 	C 	0.1588	0.6993	0.22813	0.336
Mof_C 	C 	0.2945	0.8186	0.30243	-0.271
Mof_C 	C 	0.2131	0.8299	0.28933	0.222
Mof_H 	H 	0.2027	0.8775	0.30633	-0.027
Mof_C 	C 	0.3077	0.7475	0.27773	0.208
Mof_H 	H 	0.362	0.7384	0.28633	-0.017
Mof_O 	O 	0.635	0.5288	0.19613	-0.612
Mof_C 	C 	0.6932	0.55	0.15833	0.525
Mof_C 	C 	0.9362	0.6012	0.22503	-0.143
Mof_H 	H 	0.9594	0.6051	0.25783	0.103
Mof_C 	C 	0.8639	0.584	0.12883	0.051
Mof_H 	H 	0.8393	0.576	0.09603	0.046
Mof_C 	C 	0.2401	0.6873	0.23923	-0.315
Mof_H 	H 	0.2508	0.6404	0.22173	0.157
Mof_C 	C 	0.9626	0.6082	0.13643	-0.034
Mof_H 	H 	0.0045	0.6174	0.10893	0.038
Mof_O 	O 	0.1326	0.5715	0.68977	-0.442
Mof_C 	C 	0.1189	0.483	0.67567	0.485
Mof_C 	C 	0.4287	0.2287	0.50187	-0.333
Mof_O 	O 	0.3607	0.4587	0.52267	-0.353
Mof_O 	O 	0.0574	0.4148	0.69777	-0.515
Mof_O 	O 	0.4476	0.1149	0.44727	-0.552
Mof_C 	C 	0.3809	0.3812	0.51827	0.394
Mof_C 	C 	0.423	0.2588	0.54947	0.277
Mof_H 	H 	0.4354	0.2279	0.57667	-0.058
Mof_C 	C 	0.2276	0.3743	0.58507	-0.394
Mof_H 	H 	0.2166	0.3105	0.57577	0.166
Mof_C 	C 	0.3007	0.4595	0.56147	0.385
Mof_C 	C 	0.1814	0.4759	0.63577	-0.306
Mof_C 	C 	0.1701	0.3832	0.62267	0.265
Mof_H 	H 	0.1225	0.3252	0.63967	-0.055
Mof_C 	C 	0.2525	0.5602	0.61107	0.242
Mof_H 	H 	0.2616	0.6236	0.61967	-0.029
Mof_O 	O 	0.4712	0.1062	0.52947	-0.614
Mof_C 	C 	0.45	0.1432	0.49167	0.564
Mof_C 	C 	0.3988	0.335	0.55837	-0.393
Mof_H 	H 	0.3949	0.3543	0.59117	0.171
Mof_C 	C 	0.416	0.2799	0.46217	0.276
Mof_H 	H 	0.424	0.2633	0.42937	-0.043
Mof_C 	C 	0.3127	0.5528	0.57257	-0.353
Mof_H 	H 	0.3596	0.6104	0.55507	0.172
Mof_C 	C 	0.3918	0.3544	0.46977	-0.379
Mof_H 	H 	0.3826	0.3871	0.44227	0.183
Mof_O 	O 	0.4389	0.5715	0.31023	-0.443
Mof_C 	C 	0.3641	0.483	0.32433	0.479
Mof_C 	C 	0.8	0.2287	0.49813	-0.165
Mof_O 	O 	0.098	0.4587	0.47733	-0.283
Mof_O 	O 	0.3574	0.4148	0.30223	-0.509
Mof_O 	O 	0.6673	0.1149	0.55273	-0.534
Mof_C 	C 	0.0003	0.3812	0.48173	0.111
Mof_C 	C 	0.8358	0.2588	0.45053	0.083
Mof_H 	H 	0.7925	0.2279	0.42333	0.012
Mof_C 	C 	0.1467	0.3743	0.41493	-0.354
Mof_H 	H 	0.0939	0.3105	0.42423	0.147
Mof_C 	C 	0.1588	0.4595	0.43853	0.338
Mof_C 	C 	0.2945	0.4759	0.36423	-0.283
Mof_C 	C 	0.2131	0.3832	0.37733	0.231
Mof_H 	H 	0.2027	0.3252	0.36033	-0.041
Mof_C 	C 	0.3077	0.5602	0.38893	0.215
Mof_H 	H 	0.362	0.6236	0.38033	-0.019
Mof_O 	O 	0.635	0.1062	0.47053	-0.598
Mof_C 	C 	0.6932	0.1432	0.50833	0.507
Mof_C 	C 	0.9362	0.335	0.44163	-0.129
Mof_H 	H 	0.9594	0.3543	0.40883	0.097
Mof_C 	C 	0.8639	0.2799	0.53783	0.032
Mof_H 	H 	0.8393	0.2633	0.57063	0.05
Mof_C 	C 	0.2401	0.5528	0.42743	-0.32
Mof_H 	H 	0.2508	0.6104	0.44493	0.159
Mof_C 	C 	0.9626	0.3544	0.53023	-0.014
Mof_H 	H 	0.0045	0.3871	0.55773	0.027
Mof_O 	O 	0.1326	0.5611	0.9769	-0.444
Mof_C 	C 	0.1189	0.6359	0.991	0.488
Mof_C 	C 	0.4287	0.2	0.1648	-0.505
Mof_O 	O 	0.3607	0.902	0.144	-0.423
Mof_O 	O 	0.0574	0.6426	0.9689	-0.515
Mof_O 	O 	0.4476	0.3327	0.2194	-0.576
Mof_C 	C 	0.3809	0.9997	0.1484	0.684
Mof_C 	C 	0.423	0.1642	0.1172	0.48
Mof_H 	H 	0.4354	0.2075	0.09	-0.128
Mof_C 	C 	0.2276	0.8533	0.0816	-0.428
Mof_H 	H 	0.2166	0.9061	0.0909	0.191
Mof_C 	C 	0.3007	0.8412	0.1052	0.431
Mof_C 	C 	0.1814	0.7055	0.0309	-0.32
Mof_C 	C 	0.1701	0.7869	0.044	0.292
Mof_H 	H 	0.1225	0.7973	0.027	-0.055
Mof_C 	C 	0.2525	0.6923	0.0556	0.263
Mof_H 	H 	0.2616	0.638	0.047	-0.036
Mof_O 	O 	0.4712	0.365	0.1372	-0.642
Mof_C 	C 	0.45	0.3068	0.175	0.636
Mof_C 	C 	0.3988	0.0638	0.1083	-0.659
Mof_H 	H 	0.3949	0.0406	0.0755	0.247
Mof_C 	C 	0.416	0.1361	0.2045	0.528
Mof_H 	H 	0.424	0.1607	0.2373	-0.134
Mof_C 	C 	0.3127	0.7599	0.0941	-0.381
Mof_H 	H 	0.3596	0.7492	0.1116	0.184
Mof_C 	C 	0.3918	0.0374	0.1969	-0.746
Mof_H 	H 	0.3826	0.9955	0.2244	0.342
Mof_O 	O 	0.4285	0.8674	0.64357	-0.418
Mof_C 	C 	0.517	0.8811	0.65767	0.47
Mof_C 	C 	0.7713	0.5713	0.83147	-0.317
Mof_O 	O 	0.5413	0.6393	0.81067	-0.349
Mof_O 	O 	0.5852	0.9426	0.63557	-0.471
Mof_O 	O 	0.8851	0.5524	0.88607	-0.517
Mof_C 	C 	0.6188	0.6191	0.81507	0.392
Mof_C 	C 	0.7412	0.577	0.78387	0.275
Mof_H 	H 	0.7721	0.5646	0.75667	-0.051
Mof_C 	C 	0.6257	0.7724	0.74827	-0.38
Mof_H 	H 	0.6895	0.7834	0.75757	0.177
Mof_C 	C 	0.5405	0.6993	0.77187	0.38
Mof_C 	C 	0.5241	0.8186	0.69757	-0.288
Mof_C 	C 	0.6168	0.8299	0.71067	0.25
Mof_H 	H 	0.6748	0.8775	0.69367	-0.028
Mof_C 	C 	0.4398	0.7475	0.72227	0.231
Mof_H 	H 	0.3764	0.7384	0.71367	-0.025
Mof_O 	O 	0.8938	0.5288	0.80387	-0.584
Mof_C 	C 	0.8568	0.55	0.84167	0.561
Mof_C 	C 	0.665	0.6012	0.77497	-0.383
Mof_H 	H 	0.6457	0.6051	0.74217	0.171
Mof_C 	C 	0.7201	0.584	0.87117	0.273
Mof_H 	H 	0.7367	0.576	0.90397	-0.034
Mof_C 	C 	0.4472	0.6873	0.76077	-0.344
Mof_H 	H 	0.3896	0.6404	0.77827	0.17
Mof_C 	C 	0.6456	0.6082	0.86357	-0.368
Mof_H 	H 	0.6129	0.6174	0.89107	0.183
Mof_O 	O 	0.5611	0.4285	0.31023	-0.447
Mof_C 	C 	0.6359	0.517	0.32433	0.491
Mof_C 	C 	0.2	0.7713	0.49813	-0.486
Mof_O 	O 	0.902	0.5413	0.47733	-0.42
Mof_O 	O 	0.6426	0.5852	0.30223	-0.51
Mof_O 	O 	0.3327	0.8851	0.55273	-0.537
Mof_C 	C 	0.9997	0.6188	0.48173	0.676
Mof_C 	C 	0.1642	0.7412	0.45053	0.47
Mof_H 	H 	0.2075	0.7721	0.42333	-0.121
Mof_C 	C 	0.8533	0.6257	0.41493	-0.424
Mof_H 	H 	0.9061	0.6895	0.42423	0.198
Mof_C 	C 	0.8412	0.5405	0.43853	0.431
Mof_C 	C 	0.7055	0.5241	0.36423	-0.319
Mof_C 	C 	0.7869	0.6168	0.37733	0.29
Mof_H 	H 	0.7973	0.6748	0.36033	-0.045
Mof_C 	C 	0.6923	0.4398	0.38893	0.263
Mof_H 	H 	0.638	0.3764	0.38033	-0.036
Mof_O 	O 	0.365	0.8938	0.47053	-0.601
Mof_C 	C 	0.3068	0.8568	0.50833	0.619
Mof_C 	C 	0.0638	0.665	0.44163	-0.646
Mof_H 	H 	0.0406	0.6457	0.40883	0.245
Mof_C 	C 	0.1361	0.7201	0.53783	0.517
Mof_H 	H 	0.1607	0.7367	0.57063	-0.126
Mof_C 	C 	0.7599	0.4472	0.42743	-0.38
Mof_H 	H 	0.7492	0.3896	0.44493	0.185
Mof_C 	C 	0.0374	0.6456	0.53023	-0.733
Mof_H 	H 	0.9955	0.6129	0.55773	0.339
Mof_O 	O 	0.8674	0.4389	0.9769	-0.414
Mof_C 	C 	0.8811	0.3641	0.991	0.468
Mof_C 	C 	0.5713	0.8	0.1648	-0.168
Mof_O 	O 	0.6393	0.098	0.144	-0.283
Mof_O 	O 	0.9426	0.3574	0.9689	-0.469
Mof_O 	O 	0.5524	0.6673	0.2194	-0.54
Mof_C 	C 	0.6191	0.0003	0.1484	0.114
Mof_C 	C 	0.577	0.8358	0.1172	0.089
Mof_H 	H 	0.5646	0.7925	0.09	0.011
Mof_C 	C 	0.7724	0.1467	0.0816	-0.348
Mof_H 	H 	0.7834	0.0939	0.0909	0.152
Mof_C 	C 	0.6993	0.1588	0.1052	0.336
Mof_C 	C 	0.8186	0.2945	0.0309	-0.276
Mof_C 	C 	0.8299	0.2131	0.044	0.225
Mof_H 	H 	0.8775	0.2027	0.027	-0.029
Mof_C 	C 	0.7475	0.3077	0.0556	0.21
Mof_H 	H 	0.7384	0.362	0.047	-0.018
Mof_O 	O 	0.5288	0.635	0.1372	-0.611
Mof_C 	C 	0.55	0.6932	0.175	0.522
Mof_C 	C 	0.6012	0.9362	0.1083	-0.13
Mof_H 	H 	0.6051	0.9594	0.0755	0.099
Mof_C 	C 	0.584	0.8639	0.2045	0.038
Mof_H 	H 	0.576	0.8393	0.2373	0.051
Mof_C 	C 	0.6873	0.2401	0.0941	-0.316
Mof_H 	H 	0.6404	0.2508	0.1116	0.158
Mof_C 	C 	0.6082	0.9626	0.1969	-0.015
Mof_H 	H 	0.6174	0.0045	0.2244	0.029
Mof_O 	O 	0.5715	0.1326	0.64357	-0.442
Mof_C 	C 	0.483	0.1189	0.65767	0.485
Mof_C 	C 	0.2287	0.4287	0.83147	-0.333
Mof_O 	O 	0.4587	0.3607	0.81067	-0.353
Mof_O 	O 	0.4148	0.0574	0.63557	-0.515
Mof_O 	O 	0.1149	0.4476	0.88607	-0.552
Mof_C 	C 	0.3812	0.3809	0.81507	0.394
Mof_C 	C 	0.2588	0.423	0.78387	0.277
Mof_H 	H 	0.2279	0.4354	0.75667	-0.058
Mof_C 	C 	0.3743	0.2276	0.74827	-0.394
Mof_H 	H 	0.3105	0.2166	0.75757	0.166
Mof_C 	C 	0.4595	0.3007	0.77187	0.385
Mof_C 	C 	0.4759	0.1814	0.69757	-0.306
Mof_C 	C 	0.3832	0.1701	0.71067	0.265
Mof_H 	H 	0.3252	0.1225	0.69367	-0.055
Mof_C 	C 	0.5602	0.2525	0.72227	0.242
Mof_H 	H 	0.6236	0.2616	0.71367	-0.029
Mof_O 	O 	0.1062	0.4712	0.80387	-0.613
Mof_C 	C 	0.1432	0.45	0.84167	0.564
Mof_C 	C 	0.335	0.3988	0.77497	-0.392
Mof_H 	H 	0.3543	0.3949	0.74217	0.171
Mof_C 	C 	0.2799	0.416	0.87117	0.276
Mof_H 	H 	0.2633	0.424	0.90397	-0.043
Mof_C 	C 	0.5528	0.3127	0.76077	-0.353
Mof_H 	H 	0.6104	0.3596	0.77827	0.172
Mof_C 	C 	0.3544	0.3918	0.86357	-0.379
Mof_H 	H 	0.3871	0.3826	0.89107	0.183
Mof_Tb	Tb	0.5	0.5	0.08869	2.4
Mof_Tb	Tb	0.5	-1.90649e-32	0.42202	2.262
Mof_Tb	Tb	-3.28323e-17	0.5	0.75536	2.257
Mof_Tb	Tb	0.5	0.5	0.24464	2.4
Mof_Tb	Tb	-2.32704e-17	0.5	0.91131	2.254
Mof_Tb	Tb	0.5	0	0.57798	2.263
_end
