data_functionalizedCrystal
_audit_creation_method	'EQeq! by Chris Wilmer'
_symmetry_space_group_name_H-M	'P1'
_symmetry_Int_Tables_number	1
_symmetry_cell_setting	triclinic
loop_
_symmetry_equiv_pos_as_xyz
  x,y,z
_cell_length_a	12.2042
_cell_length_b	14.3786
_cell_length_c	20.3859
_cell_angle_alpha	90
_cell_angle_beta	90
_cell_angle_gamma	90
loop_
_atom_site_label
_atom_site_type_symbol
_atom_site_fract_x
_atom_site_fract_y
_atom_site_fract_z
_atom_site_charge
Mof_C 	C 	0.4758	0.29821	0.452	-0.337
Mof_N 	N 	0.4964	0.2406	0.7276	-0.089
Mof_C 	C 	0.4811	0.23138	0.78225	-0.348
Mof_N 	N 	0.4599	0.44342	0.64168	-0.098
Mof_N 	N 	0.4883	0.31022	0.50682	-0.083
Mof_C 	C 	0.7665	0.2868	0.62429	-0.231
Mof_C 	C 	0.4438	0.52188	0.64317	-0.246
Mof_Cd	Cd	0.48755	0.28933	0.62091	0.3
Mof_Cu	Cu	0.41459	0.24326	0.8688	0.788
Mof_Cu	Cu	0.41458	0.65265	0.63826	0.786
Mof_N 	N 	0.6755	0.3027	0.61808	-0.104
Mof_C 	C 	0.2221	0.21634	0.62593	-0.241
Mof_N 	N 	0.30357	0.25314	0.61668	-0.1
Mof_C 	C 	0.0242	0.70179	0.952	-0.335
Mof_N 	N 	0.0036	0.7594	0.2276	-0.088
Mof_C 	C 	0.0189	0.76862	0.28225	-0.348
Mof_N 	N 	0.0401	0.55658	0.14168	-0.098
Mof_N 	N 	0.0117	0.68978	0.00682	-0.083
Mof_C 	C 	0.7335	0.7132	0.12429	-0.231
Mof_C 	C 	0.0562	0.47812	0.14317	-0.246
Mof_Cd	Cd	0.01245	0.71067	0.12091	0.3
Mof_Cu	Cu	0.08541	0.75674	0.3688	0.788
Mof_Cu	Cu	0.08542	0.34735	0.13826	0.786
Mof_N 	N 	0.8245	0.6973	0.11808	-0.104
Mof_C 	C 	0.2779	0.78366	0.12593	-0.24
Mof_N 	N 	0.19643	0.74686	0.11668	-0.1
Mof_C 	C 	0.5242	0.79821	0.048	-0.336
Mof_N 	N 	0.5036	0.7406	0.7724	-0.088
Mof_C 	C 	0.5189	0.73138	0.71775	-0.348
Mof_N 	N 	0.5401	0.94342	0.85832	-0.098
Mof_N 	N 	0.5117	0.81022	0.99318	-0.083
Mof_C 	C 	0.2335	0.7868	0.87571	-0.231
Mof_C 	C 	0.5562	0.02188	0.85683	-0.246
Mof_Cd	Cd	0.51245	0.78933	0.87909	0.3
Mof_Cu	Cu	0.58541	0.74326	0.6312	0.788
Mof_Cu	Cu	0.58542	0.15265	0.86174	0.786
Mof_N 	N 	0.3245	0.8027	0.88192	-0.104
Mof_C 	C 	0.7779	0.71634	0.87407	-0.241
Mof_N 	N 	0.69643	0.75314	0.88332	-0.1
Mof_C 	C 	0.9758	0.20179	0.548	-0.335
Mof_N 	N 	0.9964	0.2594	0.2724	-0.087
Mof_C 	C 	0.9811	0.26862	0.21775	-0.348
Mof_N 	N 	0.9599	0.05658	0.35832	-0.096
Mof_N 	N 	0.9883	0.18978	0.49318	-0.083
Mof_C 	C 	0.2665	0.2132	0.37571	-0.231
Mof_C 	C 	0.9438	0.97812	0.35683	-0.248
Mof_Cd	Cd	0.98755	0.21067	0.37909	0.3
Mof_Cu	Cu	0.91459	0.25674	0.1312	0.788
Mof_Cu	Cu	0.91458	0.84735	0.36174	0.786
Mof_N 	N 	0.1755	0.1973	0.38192	-0.104
Mof_C 	C 	0.7221	0.28366	0.37407	-0.24
Mof_N 	N 	0.80357	0.24686	0.38332	-0.1
Mof_C 	C 	0.5242	0.70179	0.548	-0.336
Mof_N 	N 	0.5036	0.7594	0.2724	-0.088
Mof_C 	C 	0.5189	0.76862	0.21775	-0.348
Mof_N 	N 	0.5401	0.55658	0.35832	-0.098
Mof_N 	N 	0.5117	0.68978	0.49318	-0.083
Mof_C 	C 	0.2335	0.7132	0.37571	-0.231
Mof_C 	C 	0.5562	0.47812	0.35683	-0.246
Mof_Cd	Cd	0.51245	0.71067	0.37909	0.3
Mof_Cu	Cu	0.58541	0.75674	0.1312	0.788
Mof_Cu	Cu	0.58542	0.34735	0.36174	0.786
Mof_N 	N 	0.3245	0.6973	0.38192	-0.104
Mof_C 	C 	0.7779	0.78366	0.37407	-0.241
Mof_N 	N 	0.69643	0.74686	0.38332	-0.1
Mof_C 	C 	0.9758	0.29821	0.048	-0.335
Mof_N 	N 	0.9964	0.2406	0.7724	-0.088
Mof_C 	C 	0.9811	0.23138	0.71775	-0.348
Mof_N 	N 	0.9599	0.44342	0.85832	-0.098
Mof_N 	N 	0.9883	0.31022	0.99318	-0.083
Mof_C 	C 	0.2665	0.2868	0.87571	-0.231
Mof_C 	C 	0.9438	0.52188	0.85683	-0.246
Mof_Cd	Cd	0.98755	0.28933	0.87909	0.3
Mof_Cu	Cu	0.91459	0.24326	0.6312	0.788
Mof_Cu	Cu	0.91458	0.65265	0.86174	0.786
Mof_N 	N 	0.1755	0.3027	0.88192	-0.104
Mof_C 	C 	0.7221	0.21634	0.87407	-0.24
Mof_N 	N 	0.80357	0.25314	0.88332	-0.1
Mof_C 	C 	0.4758	0.20179	0.952	-0.336
Mof_N 	N 	0.4964	0.2594	0.2276	-0.088
Mof_C 	C 	0.4811	0.26862	0.28225	-0.348
Mof_N 	N 	0.4599	0.05658	0.14168	-0.098
Mof_N 	N 	0.4883	0.18978	0.00682	-0.083
Mof_C 	C 	0.7665	0.2132	0.12429	-0.231
Mof_C 	C 	0.4438	0.97812	0.14317	-0.246
Mof_Cd	Cd	0.48755	0.21067	0.12091	0.3
Mof_Cu	Cu	0.41459	0.25674	0.3688	0.788
Mof_Cu	Cu	0.41458	0.84735	0.13826	0.786
Mof_N 	N 	0.6755	0.1973	0.11808	-0.104
Mof_C 	C 	0.2221	0.28366	0.12593	-0.241
Mof_N 	N 	0.30357	0.24686	0.11668	-0.1
Mof_C 	C 	0.0242	0.79821	0.452	-0.335
Mof_N 	N 	0.0036	0.7406	0.7276	-0.087
Mof_C 	C 	0.0189	0.73138	0.78225	-0.348
Mof_N 	N 	0.0401	0.94342	0.64168	-0.096
Mof_N 	N 	0.0117	0.81022	0.50682	-0.083
Mof_C 	C 	0.7335	0.7868	0.62429	-0.231
Mof_C 	C 	0.0562	0.02188	0.64317	-0.248
Mof_Cd	Cd	0.01245	0.78933	0.62091	0.3
Mof_Cu	Cu	0.08541	0.74326	0.8688	0.788
Mof_Cu	Cu	0.08542	0.15265	0.63826	0.786
Mof_N 	N 	0.8245	0.8027	0.61808	-0.104
Mof_C 	C 	0.2779	0.71634	0.62593	-0.24
Mof_N 	N 	0.19643	0.75314	0.61668	-0.1
_end
