data_functionalizedCrystal
_audit_creation_method	'EQeq! by Chris Wilmer'
_symmetry_space_group_name_H-M	'P1'
_symmetry_Int_Tables_number	1
_symmetry_cell_setting	triclinic
loop_
_symmetry_equiv_pos_as_xyz
  x,y,z
_cell_length_a	20.01
_cell_length_b	13.193
_cell_length_c	9.895
_cell_angle_alpha	90
_cell_angle_beta	113.142
_cell_angle_gamma	90
loop_
_atom_site_label
_atom_site_type_symbol
_atom_site_fract_x
_atom_site_fract_y
_atom_site_fract_z
_atom_site_charge
Mof_O 	O 	0.41754	0.4159	0.3529	-0.612
Mof_O 	O 	0.41092	0.5067	0.5357	-0.608
Mof_O 	O 	0.54069	0.6157	0.2042	-0.305
Mof_C 	C 	0.3852	0.4471	0.4304	0.595
Mof_C 	C 	0.3082	0.4099	0.3915	-0.214
Mof_C 	C 	0.2683	0.3726	0.2527	0.081
Mof_H 	H 	0.2888	0.3695	0.1831	0.005
Mof_C 	C 	0.1964	0.3392	0.2168	-0.096
Mof_C 	C 	0.1677	0.3413	0.3223	0.031
Mof_H 	H 	0.1204	0.319	0.2993	0.033
Mof_C 	C 	0.2086	0.3761	0.4619	-0.137
Mof_H 	H 	0.1891	0.3753	0.5332	0.077
Mof_C 	C 	0.279	0.4125	0.4972	0.102
Mof_H 	H 	0.306	0.4381	0.5905	-0.003
Mof_C 	C 	0.1538	0.3053	0.0647	0.149
Mof_C 	C 	0.1549	0.3372	0.9337	-0.205
Mof_H 	H 	0.1852	0.3861	0.9202	0.1
Mof_C 	C 	0.1019	0.282	0.8259	0.111
Mof_H 	H 	0.0904	0.2892	0.7257	-0.034
Mof_N 	N 	0.0691	0.2169	0.8838	-0.211
Mof_N 	N 	0.1019	0.2334	0.0302	-0.183
Mof_H 	H 	0.0909	0.2014	0.0943	0.136
Mof_O 	O 	0.91754	0.9159	0.3529	-0.485
Mof_O 	O 	0.91092	0.0067	0.5357	-0.486
Mof_O 	O 	0.04069	0.1157	0.2042	-0.297
Mof_C 	C 	0.8852	0.9471	0.4304	0.526
Mof_C 	C 	0.8082	0.9099	0.3915	-0.168
Mof_C 	C 	0.7683	0.8726	0.2527	0.053
Mof_H 	H 	0.7888	0.8695	0.1831	0.018
Mof_C 	C 	0.6964	0.8392	0.2168	-0.076
Mof_C 	C 	0.6677	0.8413	0.3223	0.013
Mof_H 	H 	0.6204	0.819	0.2993	0.049
Mof_C 	C 	0.7086	0.8761	0.4619	-0.11
Mof_H 	H 	0.6891	0.8753	0.5332	0.074
Mof_C 	C 	0.779	0.9125	0.4972	0.071
Mof_H 	H 	0.806	0.9381	0.5905	0.013
Mof_C 	C 	0.6538	0.8053	0.0647	0.149
Mof_C 	C 	0.6549	0.8372	0.9337	-0.199
Mof_H 	H 	0.6852	0.8861	0.9202	0.102
Mof_C 	C 	0.6019	0.782	0.8259	0.125
Mof_H 	H 	0.5904	0.7892	0.7257	-0.021
Mof_N 	N 	0.5691	0.7169	0.8838	-0.212
Mof_N 	N 	0.6019	0.7334	0.0302	-0.18
Mof_H 	H 	0.5909	0.7014	0.0943	0.14
Mof_O 	O 	0.58246	0.4159	0.1471	-0.613
Mof_O 	O 	0.58908	0.5067	0.9643	-0.612
Mof_O 	O 	0.45931	0.6157	0.2958	-0.306
Mof_C 	C 	0.6148	0.4471	0.0696	0.599
Mof_C 	C 	0.6918	0.4099	0.1085	-0.208
Mof_C 	C 	0.7317	0.3726	0.2473	0.073
Mof_H 	H 	0.7112	0.3695	0.3169	0.007
Mof_C 	C 	0.8036	0.3392	0.2832	-0.075
Mof_C 	C 	0.8323	0.3413	0.1777	0.014
Mof_H 	H 	0.8796	0.319	0.2007	0.082
Mof_C 	C 	0.7914	0.3761	0.0381	-0.104
Mof_H 	H 	0.8109	0.3753	0.9668	0.08
Mof_C 	C 	0.721	0.4125	0.0028	0.099
Mof_H 	H 	0.694	0.4381	0.9095	-0.004
Mof_C 	C 	0.8462	0.3053	0.4353	0.155
Mof_C 	C 	0.8451	0.3372	0.5663	-0.178
Mof_H 	H 	0.8148	0.3861	0.5798	0.104
Mof_C 	C 	0.8981	0.282	0.6741	0.127
Mof_H 	H 	0.9096	0.2892	0.7743	0.016
Mof_N 	N 	0.9309	0.2169	0.6162	-0.146
Mof_N 	N 	0.8981	0.2334	0.4698	-0.178
Mof_H 	H 	0.9091	0.2014	0.4057	0.164
Mof_O 	O 	0.08246	0.9159	0.1471	-0.572
Mof_O 	O 	0.08908	0.0067	0.9643	-0.564
Mof_O 	O 	0.95931	0.1157	0.2958	-0.152
Mof_C 	C 	0.1148	0.9471	0.0696	0.548
Mof_C 	C 	0.1918	0.9099	0.1085	-0.186
Mof_C 	C 	0.2317	0.8726	0.2473	0.059
Mof_H 	H 	0.2112	0.8695	0.3169	0.015
Mof_C 	C 	0.3036	0.8392	0.2832	-0.078
Mof_C 	C 	0.3323	0.8413	0.1777	0.015
Mof_H 	H 	0.3796	0.819	0.2007	0.049
Mof_C 	C 	0.2914	0.8761	0.0381	-0.11
Mof_H 	H 	0.3109	0.8753	0.9668	0.073
Mof_C 	C 	0.221	0.9125	0.0028	0.083
Mof_H 	H 	0.194	0.9381	0.9095	0.006
Mof_C 	C 	0.3462	0.8053	0.4353	0.144
Mof_C 	C 	0.3451	0.8372	0.5663	-0.191
Mof_H 	H 	0.3148	0.8861	0.5798	0.102
Mof_C 	C 	0.3981	0.782	0.6741	0.122
Mof_H 	H 	0.4096	0.7892	0.7743	-0.02
Mof_N 	N 	0.4309	0.7169	0.6162	-0.21
Mof_N 	N 	0.3981	0.7334	0.4698	-0.181
Mof_H 	H 	0.4091	0.7014	0.4057	0.139
Mof_O 	O 	0.58246	0.5841	0.6471	-0.612
Mof_O 	O 	0.58908	0.4933	0.4643	-0.607
Mof_O 	O 	0.45931	0.3843	0.7958	-0.307
Mof_C 	C 	0.6148	0.5529	0.5696	0.592
Mof_C 	C 	0.6918	0.5901	0.6085	-0.204
Mof_C 	C 	0.7317	0.6274	0.7473	0.07
Mof_H 	H 	0.7112	0.6305	0.8169	0.007
Mof_C 	C 	0.8036	0.6608	0.7832	-0.073
Mof_C 	C 	0.8323	0.6587	0.6777	0.017
Mof_H 	H 	0.8796	0.681	0.7007	0.079
Mof_C 	C 	0.7914	0.6239	0.5381	-0.115
Mof_H 	H 	0.8109	0.6247	0.4668	0.088
Mof_C 	C 	0.721	0.5875	0.5028	0.092
Mof_H 	H 	0.694	0.5619	0.4095	0.001
Mof_C 	C 	0.8462	0.6947	0.9353	0.145
Mof_C 	C 	0.8451	0.6628	0.0663	-0.165
Mof_H 	H 	0.8148	0.6139	0.0798	0.101
Mof_C 	C 	0.8981	0.718	0.1741	0.123
Mof_H 	H 	0.9096	0.7108	0.2743	0.019
Mof_N 	N 	0.9309	0.7831	0.1162	-0.142
Mof_N 	N 	0.8981	0.7666	0.9698	-0.18
Mof_H 	H 	0.9091	0.7986	0.9057	0.162
Mof_O 	O 	0.08246	0.0841	0.6471	-0.571
Mof_O 	O 	0.08908	0.9933	0.4643	-0.56
Mof_O 	O 	0.95931	0.8843	0.7958	-0.156
Mof_C 	C 	0.1148	0.0529	0.5696	0.543
Mof_C 	C 	0.1918	0.0901	0.6085	-0.182
Mof_C 	C 	0.2317	0.1274	0.7473	0.056
Mof_H 	H 	0.2112	0.1305	0.8169	0.016
Mof_C 	C 	0.3036	0.1608	0.7832	-0.075
Mof_C 	C 	0.3323	0.1587	0.6777	0.014
Mof_H 	H 	0.3796	0.181	0.7007	0.049
Mof_C 	C 	0.2914	0.1239	0.5381	-0.113
Mof_H 	H 	0.3109	0.1247	0.4668	0.076
Mof_C 	C 	0.221	0.0875	0.5028	0.076
Mof_H 	H 	0.194	0.0619	0.4095	0.011
Mof_C 	C 	0.3462	0.1947	0.9353	0.137
Mof_C 	C 	0.3451	0.1628	0.0663	-0.181
Mof_H 	H 	0.3148	0.1139	0.0798	0.1
Mof_C 	C 	0.3981	0.218	0.1741	0.119
Mof_H 	H 	0.4096	0.2108	0.2743	-0.018
Mof_N 	N 	0.4309	0.2831	0.1162	-0.208
Mof_N 	N 	0.3981	0.2666	0.9698	-0.181
Mof_H 	H 	0.4091	0.2986	0.9057	0.138
Mof_O 	O 	0.41754	0.5841	0.8529	-0.612
Mof_O 	O 	0.41092	0.4933	0.0357	-0.603
Mof_O 	O 	0.54069	0.3843	0.7042	-0.306
Mof_C 	C 	0.3852	0.5529	0.9304	0.588
Mof_C 	C 	0.3082	0.5901	0.8915	-0.21
Mof_C 	C 	0.2683	0.6274	0.7527	0.078
Mof_H 	H 	0.2888	0.6305	0.6831	0.005
Mof_C 	C 	0.1964	0.6608	0.7168	-0.094
Mof_C 	C 	0.1677	0.6587	0.8223	0.03
Mof_H 	H 	0.1204	0.681	0.7993	0.033
Mof_C 	C 	0.2086	0.6239	0.9619	-0.141
Mof_H 	H 	0.1891	0.6247	0.0332	0.081
Mof_C 	C 	0.279	0.5875	0.9972	0.095
Mof_H 	H 	0.306	0.5619	0.0905	0.001
Mof_C 	C 	0.1538	0.6947	0.5647	0.141
Mof_C 	C 	0.1549	0.6628	0.4337	-0.195
Mof_H 	H 	0.1852	0.6139	0.4202	0.098
Mof_C 	C 	0.1019	0.718	0.3259	0.107
Mof_H 	H 	0.0904	0.7108	0.2257	-0.032
Mof_N 	N 	0.0691	0.7831	0.3838	-0.209
Mof_N 	N 	0.1019	0.7666	0.5302	-0.185
Mof_H 	H 	0.0909	0.7986	0.5943	0.134
Mof_O 	O 	0.91754	0.0841	0.8529	-0.484
Mof_O 	O 	0.91092	0.9933	0.0357	-0.481
Mof_O 	O 	0.04069	0.8843	0.7042	-0.3
Mof_C 	C 	0.8852	0.0529	0.9304	0.516
Mof_C 	C 	0.8082	0.0901	0.8915	-0.16
Mof_C 	C 	0.7683	0.1274	0.7527	0.048
Mof_H 	H 	0.7888	0.1305	0.6831	0.019
Mof_C 	C 	0.6964	0.1608	0.7168	-0.072
Mof_C 	C 	0.6677	0.1587	0.8223	0.013
Mof_H 	H 	0.6204	0.181	0.7993	0.048
Mof_C 	C 	0.7086	0.1239	0.9619	-0.114
Mof_H 	H 	0.6891	0.1247	0.0332	0.08
Mof_C 	C 	0.779	0.0875	0.9972	0.055
Mof_H 	H 	0.806	0.0619	0.0905	0.023
Mof_C 	C 	0.6538	0.1947	0.5647	0.142
Mof_C 	C 	0.6549	0.1628	0.4337	-0.189
Mof_H 	H 	0.6852	0.1139	0.4202	0.101
Mof_C 	C 	0.6019	0.218	0.3259	0.122
Mof_H 	H 	0.5904	0.2108	0.2257	-0.019
Mof_N 	N 	0.5691	0.2831	0.3838	-0.21
Mof_N 	N 	0.6019	0.2666	0.5302	-0.18
Mof_H 	H 	0.5909	0.2986	0.5943	0.139
Mof_Tb	Tb	0.5	0.44129	0.25	2.321
Mof_O 	O 	0.5	0.7582	0.25	-0.144
Mof_N 	N 	0.5	0.667	0.25	0.068
Mof_Tb	Tb	5.91624e-18	0.94129	0.25	1.876
Mof_O 	O 	6.45691e-34	0.2582	0.25	-0.204
Mof_N 	N 	6.45691e-34	0.167	0.25	-0.006
Mof_Tb	Tb	0.5	0.55871	0.75	2.319
Mof_O 	O 	0.5	0.2418	0.75	-0.145
Mof_N 	N 	0.5	0.333	0.75	0.067
Mof_Tb	Tb	1.93707e-33	0.05871	0.75	1.878
Mof_O 	O 	1.93707e-33	0.7418	0.75	-0.205
Mof_N 	N 	2.3665e-17	0.833	0.75	-0.005
_end
