data_functionalizedCrystal
_audit_creation_method	'EQeq! by Chris Wilmer'
_symmetry_space_group_name_H-M	'P1'
_symmetry_Int_Tables_number	1
_symmetry_cell_setting	triclinic
loop_
_symmetry_equiv_pos_as_xyz
  x,y,z
_cell_length_a	24.1428
_cell_length_b	24.1428
_cell_length_c	4.9878
_cell_angle_alpha	90
_cell_angle_beta	90
_cell_angle_gamma	90
loop_
_atom_site_label
_atom_site_type_symbol
_atom_site_fract_x
_atom_site_fract_y
_atom_site_fract_z
_atom_site_charge
Mof_O 	O 	0.4771	0.0681	0.1773	-0.412
Mof_N 	N 	0.36087	0.16142	0.1984	-0.048
Mof_C 	C 	0.43182	0.08974	0.0985	0.348
Mof_N 	N 	0.29323	0.20381	0.0006	-0.22
Mof_N 	N 	0.31486	0.14627	0.3363	-0.083
Mof_C 	C 	0.41454	0.13907	0.2704	-0.263
Mof_H 	H 	0.4137	0.1277	0.4569	0.145
Mof_H 	H 	0.4422	0.168	0.253	0.115
Mof_O 	O 	0.40427	0.07448	0.9076	-0.267
Mof_C 	C 	0.27544	0.17266	0.2103	0.088
Mof_H 	H 	0.2384	0.1703	0.2599	0.012
Mof_C 	C 	0.34744	0.1953	0.001	0.049
Mof_H 	H 	0.3723	0.2109	0.8803	0.042
Mof_O 	O 	0.9771	0.5681	0.6773	-0.379
Mof_N 	N 	0.86087	0.66142	0.6984	-0.049
Mof_C 	C 	0.93182	0.58974	0.5985	0.39
Mof_N 	N 	0.79323	0.70381	0.5006	-0.22
Mof_N 	N 	0.81486	0.64627	0.8363	-0.077
Mof_C 	C 	0.91454	0.63907	0.7704	-0.277
Mof_H 	H 	0.9137	0.6277	0.9569	0.159
Mof_H 	H 	0.9422	0.668	0.753	0.133
Mof_O 	O 	0.90427	0.57448	0.4076	-0.291
Mof_C 	C 	0.77544	0.67266	0.7103	0.092
Mof_H 	H 	0.7384	0.6703	0.7599	0.02
Mof_C 	C 	0.84744	0.6953	0.501	0.099
Mof_H 	H 	0.8723	0.7109	0.3803	0.009
Mof_O 	O 	0.0229	0.9319	0.6773	-0.41
Mof_N 	N 	0.13913	0.83858	0.6984	-0.051
Mof_C 	C 	0.06818	0.91026	0.5985	0.386
Mof_N 	N 	0.20677	0.79619	0.5006	-0.22
Mof_N 	N 	0.18514	0.85373	0.8363	-0.074
Mof_C 	C 	0.08546	0.86093	0.7704	-0.268
Mof_H 	H 	0.0863	0.8723	0.9569	0.15
Mof_H 	H 	0.0578	0.832	0.753	0.112
Mof_O 	O 	0.09573	0.92552	0.4076	-0.29
Mof_C 	C 	0.22456	0.82734	0.7103	0.094
Mof_H 	H 	0.2616	0.8297	0.7599	0.022
Mof_C 	C 	0.15256	0.8047	0.501	0.1
Mof_H 	H 	0.1277	0.7891	0.3803	0.003
Mof_O 	O 	0.5229	0.4319	0.1773	-0.406
Mof_N 	N 	0.63913	0.33858	0.1984	-0.047
Mof_C 	C 	0.56818	0.41026	0.0985	0.35
Mof_N 	N 	0.70677	0.29619	0.0006	-0.219
Mof_N 	N 	0.68514	0.35373	0.3363	-0.081
Mof_C 	C 	0.58546	0.36093	0.2704	-0.261
Mof_H 	H 	0.5863	0.3723	0.4569	0.146
Mof_H 	H 	0.5578	0.332	0.253	0.114
Mof_O 	O 	0.59573	0.42552	0.9076	-0.261
Mof_C 	C 	0.72456	0.32734	0.2103	0.09
Mof_H 	H 	0.7616	0.3297	0.2599	0.013
Mof_C 	C 	0.65256	0.3047	0.001	0.051
Mof_H 	H 	0.6277	0.2891	0.8803	0.041
Mof_O 	O 	0.6819	0.7271	0.4273	-0.412
Mof_N 	N 	0.58858	0.61087	0.4484	-0.051
Mof_C 	C 	0.66026	0.68182	0.3485	0.391
Mof_N 	N 	0.54619	0.54323	0.2506	-0.223
Mof_N 	N 	0.60373	0.56486	0.5863	-0.078
Mof_C 	C 	0.61093	0.66454	0.5204	-0.277
Mof_H 	H 	0.6223	0.6637	0.7069	0.155
Mof_H 	H 	0.582	0.6922	0.503	0.123
Mof_O 	O 	0.67552	0.65427	0.1576	-0.305
Mof_C 	C 	0.57734	0.52544	0.4603	0.091
Mof_H 	H 	0.5797	0.4884	0.5099	0.017
Mof_C 	C 	0.5547	0.59744	0.251	0.097
Mof_H 	H 	0.5391	0.6223	0.1303	0.001
Mof_O 	O 	0.1819	0.2271	0.9273	-0.406
Mof_N 	N 	0.08858	0.11087	0.9484	-0.038
Mof_C 	C 	0.16026	0.18182	0.8485	0.408
Mof_N 	N 	0.04619	0.04323	0.7506	-0.226
Mof_N 	N 	0.10373	0.06486	0.0863	-0.097
Mof_C 	C 	0.11093	0.16454	0.0204	-0.309
Mof_H 	H 	0.1223	0.1637	0.2069	0.153
Mof_H 	H 	0.082	0.1922	0.003	0.119
Mof_O 	O 	0.17552	0.15427	0.6576	-0.3
Mof_C 	C 	0.07734	0.02544	0.9603	0.062
Mof_H 	H 	0.0797	0.9884	0.0099	0.035
Mof_C 	C 	0.0547	0.09744	0.751	0.092
Mof_H 	H 	0.0391	0.1223	0.6303	-0
Mof_O 	O 	0.8181	0.2729	0.9273	-0.404
Mof_N 	N 	0.91142	0.38913	0.9484	-0.034
Mof_C 	C 	0.83974	0.31818	0.8485	0.41
Mof_N 	N 	0.95381	0.45677	0.7506	-0.213
Mof_N 	N 	0.89627	0.43514	0.0863	-0.099
Mof_C 	C 	0.88907	0.33546	0.0204	-0.309
Mof_H 	H 	0.8777	0.3363	0.2069	0.158
Mof_H 	H 	0.918	0.3078	0.003	0.133
Mof_O 	O 	0.82448	0.34573	0.6576	-0.296
Mof_C 	C 	0.92266	0.47456	0.9603	0.142
Mof_H 	H 	0.9203	0.5116	0.0099	-0.008
Mof_C 	C 	0.9453	0.40256	0.751	0.103
Mof_H 	H 	0.9609	0.3777	0.6303	0.022
Mof_O 	O 	0.3181	0.7729	0.4273	-0.411
Mof_N 	N 	0.41142	0.88913	0.4484	-0.05
Mof_C 	C 	0.33974	0.81818	0.3485	0.391
Mof_N 	N 	0.45381	0.95677	0.2506	-0.224
Mof_N 	N 	0.39627	0.93514	0.5863	-0.085
Mof_C 	C 	0.38907	0.83546	0.5204	-0.275
Mof_H 	H 	0.3777	0.8363	0.7069	0.156
Mof_H 	H 	0.418	0.8078	0.503	0.122
Mof_O 	O 	0.32448	0.84573	0.1576	-0.302
Mof_C 	C 	0.42266	0.97456	0.4603	0.169
Mof_H 	H 	0.4203	0.0116	0.5099	-0.034
Mof_C 	C 	0.4453	0.90256	0.251	0.096
Mof_H 	H 	0.4609	0.8777	0.1303	0.002
Mof_O 	O 	0.5229	0.9319	0.8227	-0.394
Mof_N 	N 	0.63913	0.83858	0.8016	-0.057
Mof_C 	C 	0.56818	0.91026	0.9015	0.425
Mof_N 	N 	0.70677	0.79619	0.9994	-0.219
Mof_N 	N 	0.68514	0.85373	0.6637	-0.08
Mof_C 	C 	0.58546	0.86093	0.7296	-0.277
Mof_H 	H 	0.5863	0.8723	0.5431	0.147
Mof_H 	H 	0.5578	0.832	0.747	0.126
Mof_O 	O 	0.59573	0.92552	0.0924	-0.315
Mof_C 	C 	0.72456	0.82734	0.7897	0.094
Mof_H 	H 	0.7616	0.8297	0.7401	0.02
Mof_C 	C 	0.65256	0.8047	0.999	0.152
Mof_H 	H 	0.6277	0.7891	0.1197	-0.027
Mof_O 	O 	0.0229	0.4319	0.3227	-0.429
Mof_N 	N 	0.13913	0.33858	0.3016	-0.054
Mof_C 	C 	0.06818	0.41026	0.4015	0.383
Mof_N 	N 	0.20677	0.29619	0.4994	-0.219
Mof_N 	N 	0.18514	0.35373	0.1637	-0.086
Mof_C 	C 	0.08546	0.36093	0.2296	-0.263
Mof_H 	H 	0.0863	0.3723	0.0431	0.135
Mof_H 	H 	0.0578	0.332	0.247	0.107
Mof_O 	O 	0.09573	0.42552	0.5924	-0.292
Mof_C 	C 	0.22456	0.32734	0.2897	0.09
Mof_H 	H 	0.2616	0.3297	0.2401	0.011
Mof_C 	C 	0.15256	0.3047	0.499	0.098
Mof_H 	H 	0.1277	0.2891	0.6197	0.008
Mof_O 	O 	0.9771	0.0681	0.3227	-0.391
Mof_N 	N 	0.86087	0.16142	0.3016	-0.052
Mof_C 	C 	0.93182	0.08974	0.4015	0.386
Mof_N 	N 	0.79323	0.20381	0.4994	-0.219
Mof_N 	N 	0.81486	0.14627	0.1637	-0.089
Mof_C 	C 	0.91454	0.13907	0.2296	-0.272
Mof_H 	H 	0.9137	0.1277	0.0431	0.144
Mof_H 	H 	0.9422	0.168	0.247	0.128
Mof_O 	O 	0.90427	0.07448	0.5924	-0.291
Mof_C 	C 	0.77544	0.17266	0.2897	0.089
Mof_H 	H 	0.7384	0.1703	0.2401	0.01
Mof_C 	C 	0.84744	0.1953	0.499	0.098
Mof_H 	H 	0.8723	0.2109	0.6197	0.014
Mof_O 	O 	0.4771	0.5681	0.8227	-0.406
Mof_N 	N 	0.36087	0.66142	0.8016	-0.057
Mof_C 	C 	0.43182	0.58974	0.9015	0.426
Mof_N 	N 	0.29323	0.70381	0.9994	-0.219
Mof_N 	N 	0.31486	0.64627	0.6637	-0.082
Mof_C 	C 	0.41454	0.63907	0.7296	-0.279
Mof_H 	H 	0.4137	0.6277	0.5431	0.147
Mof_H 	H 	0.4422	0.668	0.747	0.127
Mof_O 	O 	0.40427	0.57448	0.0924	-0.324
Mof_C 	C 	0.27544	0.67266	0.7897	0.093
Mof_H 	H 	0.2384	0.6703	0.7401	0.019
Mof_C 	C 	0.34744	0.6953	0.999	0.151
Mof_H 	H 	0.3723	0.7109	0.1197	-0.026
Mof_O 	O 	0.3181	0.2729	0.5727	-0.405
Mof_N 	N 	0.41142	0.38913	0.5516	-0.053
Mof_C 	C 	0.33974	0.31818	0.6515	0.385
Mof_N 	N 	0.45381	0.45677	0.7494	-0.212
Mof_N 	N 	0.39627	0.43514	0.4137	-0.085
Mof_C 	C 	0.38907	0.33546	0.4796	-0.264
Mof_H 	H 	0.3777	0.3363	0.2931	0.139
Mof_H 	H 	0.418	0.3078	0.497	0.118
Mof_O 	O 	0.32448	0.34573	0.8424	-0.281
Mof_C 	C 	0.42266	0.47456	0.5397	0.092
Mof_H 	H 	0.4203	0.5116	0.4901	0.015
Mof_C 	C 	0.4453	0.40256	0.749	0.1
Mof_H 	H 	0.4609	0.3777	0.8697	0.018
Mof_O 	O 	0.8181	0.7729	0.0727	-0.412
Mof_N 	N 	0.91142	0.88913	0.0516	-0.069
Mof_C 	C 	0.83974	0.81818	0.1515	0.362
Mof_N 	N 	0.95381	0.95677	0.2494	-0.202
Mof_N 	N 	0.89627	0.93514	0.9137	-0.063
Mof_C 	C 	0.88907	0.83546	0.9796	-0.224
Mof_H 	H 	0.8777	0.8363	0.7931	0.139
Mof_H 	H 	0.918	0.8078	0.997	0.12
Mof_O 	O 	0.82448	0.84573	0.3424	-0.284
Mof_C 	C 	0.92266	0.97456	0.0397	0.115
Mof_H 	H 	0.9203	0.0116	0.9901	0.003
Mof_C 	C 	0.9453	0.90256	0.249	0.106
Mof_H 	H 	0.9609	0.8777	0.3697	0.018
Mof_O 	O 	0.1819	0.7271	0.0727	-0.413
Mof_N 	N 	0.08858	0.61087	0.0516	-0.073
Mof_C 	C 	0.16026	0.68182	0.1515	0.36
Mof_N 	N 	0.04619	0.54323	0.2494	-0.22
Mof_N 	N 	0.10373	0.56486	0.9137	-0.061
Mof_C 	C 	0.11093	0.66454	0.9796	-0.223
Mof_H 	H 	0.1223	0.6637	0.7931	0.133
Mof_H 	H 	0.082	0.6922	0.997	0.106
Mof_O 	O 	0.17552	0.65427	0.3424	-0.288
Mof_C 	C 	0.07734	0.52544	0.0397	0.037
Mof_H 	H 	0.0797	0.4884	0.9901	0.042
Mof_C 	C 	0.0547	0.59744	0.249	0.094
Mof_H 	H 	0.0391	0.6223	0.3697	-0.005
Mof_O 	O 	0.6819	0.2271	0.5727	-0.406
Mof_N 	N 	0.58858	0.11087	0.5516	-0.053
Mof_C 	C 	0.66026	0.18182	0.6515	0.385
Mof_N 	N 	0.54619	0.04323	0.7494	-0.206
Mof_N 	N 	0.60373	0.06486	0.4137	-0.077
Mof_C 	C 	0.61093	0.16454	0.4796	-0.266
Mof_H 	H 	0.6223	0.1637	0.2931	0.138
Mof_H 	H 	0.582	0.1922	0.497	0.119
Mof_O 	O 	0.67552	0.15427	0.8424	-0.284
Mof_C 	C 	0.57734	0.02544	0.5397	0.016
Mof_H 	H 	0.5797	0.9884	0.4901	0.068
Mof_C 	C 	0.5547	0.09744	0.749	0.101
Mof_H 	H 	0.5391	0.1223	0.8697	0.017
Mof_Cu	Cu	0.5	0	-0	0.882
Mof_Cu	Cu	-3.95416e-33	0.5	0.5	0.892
Mof_Cu	Cu	3.87305e-34	0	0.5	0.875
Mof_Cu	Cu	0.5	0.5	-0	0.9
Mof_Cu	Cu	0.75	0.75	0.25	0.906
Mof_Cu	Cu	0.75	0.25	0.75	0.916
Mof_Cu	Cu	0.25	0.25	0.75	0.916
Mof_Cu	Cu	0.25	0.75	0.25	0.906
_end
