data_functionalizedCrystal
_audit_creation_method	'EQeq! by Chris Wilmer'
_symmetry_space_group_name_H-M	'P1'
_symmetry_Int_Tables_number	1
_symmetry_cell_setting	triclinic
loop_
_symmetry_equiv_pos_as_xyz
  x,y,z
_cell_length_a	6.429
_cell_length_b	25.18
_cell_length_c	7.874
_cell_angle_alpha	90
_cell_angle_beta	90.101
_cell_angle_gamma	90
loop_
_atom_site_label
_atom_site_type_symbol
_atom_site_fract_x
_atom_site_fract_y
_atom_site_fract_z
_atom_site_charge
Mof_Ni	Ni	0.1191	0.7353	0.184	1.115
Mof_Ni	Ni	0.6192	0.8055	0.6881	1.122
Mof_O 	O 	0.3189	0.7753	0.3551	-0.428
Mof_C 	C 	0.358	0.8241	0.373	0.421
Mof_O 	O 	0.455	0.8436	0.4947	-0.424
Mof_C 	C 	0.2935	0.8641	0.2316	-0.334
Mof_H 	H 	0.2142	0.8933	0.2854	0.126
Mof_H 	H 	0.4219	0.8797	0.1838	0.132
Mof_C 	C 	0.1674	0.8429	0.0888	-0.027
Mof_H 	H 	0.1069	0.8734	0.0239	0.043
Mof_N 	N 	0.9958	0.8089	0.1507	-0.32
Mof_H 	H 	0.8894	0.8078	0.0725	0.136
Mof_H 	H 	0.9444	0.8217	0.2516	0.13
Mof_C 	C 	0.307	0.8099	0.9682	0.352
Mof_O 	O 	0.3016	0.7618	0.9932	-0.422
Mof_O 	O 	0.4185	0.8349	0.8673	-0.407
Mof_O 	O 	0.9172	0.7079	0.3595	-0.416
Mof_C 	C 	0.824	0.7282	0.4823	0.388
Mof_O 	O 	0.819	0.7786	0.5005	-0.415
Mof_C 	C 	0.781	0.6803	0.6042	-0.317
Mof_H 	H 	0.699	0.6532	0.5428	0.131
Mof_H 	H 	0.9159	0.664	0.6365	0.129
Mof_C 	C 	0.6643	0.6964	0.7663	-0.041
Mof_H 	H 	0.6023	0.6646	0.823	0.05
Mof_N 	N 	0.493	0.7298	0.676	-0.315
Mof_H 	H 	0.3684	0.7279	0.7323	0.126
Mof_H 	H 	0.4746	0.7191	0.565	0.12
Mof_C 	C 	0.839	0.7208	0.8773	0.333
Mof_O 	O 	0.9354	0.6964	0.9866	-0.375
Mof_O 	O 	0.807	0.7704	0.8747	-0.401
Mof_N 	N 	0.2965	0.6655	0.2145	-0.224
Mof_C 	C 	0.2201	0.6238	0.299	0.077
Mof_H 	H 	0.0777	0.624	0.3309	0.001
Mof_C 	C 	0.3415	0.5803	0.3415	-0.157
Mof_H 	H 	0.2887	0.5542	0.4171	0.079
Mof_C 	C 	0.5426	0.5746	0.2734	0.1
Mof_C 	C 	0.6153	0.6179	0.1798	-0.157
Mof_H 	H 	0.7476	0.6165	0.1265	0.094
Mof_C 	C 	0.4938	0.6627	0.1655	0.089
Mof_H 	H 	0.5549	0.6936	0.1174	0.008
Mof_C 	C 	0.656	0.525	0.285	-0.079
Mof_H 	H 	0.5965	0.4985	0.3561	0.055
Mof_N 	N 	0.2043	0.3732	0.2686	-0.229
Mof_C 	C 	0.0134	0.3758	0.3349	0.12
Mof_H 	H 	0.9624	0.3462	0.3971	-0.012
Mof_C 	C 	0.8869	0.42	0.3164	-0.182
Mof_H 	H 	0.7497	0.4195	0.3608	0.102
Mof_C 	C 	0.9602	0.4656	0.2323	0.119
Mof_C 	C 	0.1628	0.4623	0.1693	-0.171
Mof_H 	H 	0.2259	0.4924	0.1179	0.086
Mof_C 	C 	0.2704	0.4152	0.1822	0.096
Mof_H 	H 	0.4004	0.4126	0.1256	0.005
Mof_C 	C 	0.831	0.5122	0.209	-0.093
Mof_H 	H 	0.8798	0.537	0.1274	0.061
Mof_Ni	Ni	0.8809	0.2353	0.816	1.114
Mof_Ni	Ni	0.3808	0.3055	0.3119	1.121
Mof_O 	O 	0.6811	0.2753	0.6449	-0.428
Mof_C 	C 	0.642	0.3241	0.627	0.422
Mof_O 	O 	0.545	0.3436	0.5053	-0.424
Mof_C 	C 	0.7065	0.3641	0.7684	-0.334
Mof_H 	H 	0.7858	0.3933	0.7146	0.127
Mof_H 	H 	0.5781	0.3797	0.8162	0.132
Mof_C 	C 	0.8326	0.3429	0.9112	-0.027
Mof_H 	H 	0.8931	0.3734	0.9761	0.043
Mof_N 	N 	0.0042	0.3089	0.8493	-0.32
Mof_H 	H 	0.1106	0.3078	0.9275	0.136
Mof_H 	H 	0.0556	0.3217	0.7484	0.13
Mof_C 	C 	0.693	0.3099	0.0318	0.352
Mof_O 	O 	0.6984	0.2618	0.0068	-0.422
Mof_O 	O 	0.5815	0.3349	0.1327	-0.407
Mof_O 	O 	0.0828	0.2079	0.6405	-0.416
Mof_C 	C 	0.176	0.2282	0.5177	0.388
Mof_O 	O 	0.181	0.2786	0.4995	-0.415
Mof_C 	C 	0.219	0.1803	0.3958	-0.317
Mof_H 	H 	0.301	0.1532	0.4572	0.131
Mof_H 	H 	0.0841	0.164	0.3635	0.129
Mof_C 	C 	0.3357	0.1964	0.2337	-0.041
Mof_H 	H 	0.3977	0.1646	0.177	0.05
Mof_N 	N 	0.507	0.2298	0.324	-0.315
Mof_H 	H 	0.6316	0.2279	0.2677	0.126
Mof_H 	H 	0.5254	0.2191	0.435	0.12
Mof_C 	C 	0.161	0.2208	0.1227	0.333
Mof_O 	O 	0.0646	0.1964	0.0134	-0.374
Mof_O 	O 	0.193	0.2704	0.1253	-0.401
Mof_N 	N 	0.7035	0.1655	0.7855	-0.224
Mof_C 	C 	0.7799	0.1238	0.701	0.077
Mof_H 	H 	0.9223	0.124	0.6691	0.002
Mof_C 	C 	0.6585	0.0803	0.6585	-0.155
Mof_H 	H 	0.7113	0.0542	0.5829	0.08
Mof_C 	C 	0.4574	0.0746	0.7266	0.098
Mof_C 	C 	0.3847	0.1179	0.8202	-0.156
Mof_H 	H 	0.2524	0.1165	0.8735	0.094
Mof_C 	C 	0.5062	0.1627	0.8345	0.088
Mof_H 	H 	0.4451	0.1936	0.8826	0.008
Mof_C 	C 	0.344	0.025	0.715	-0.071
Mof_H 	H 	0.4035	0.9985	0.6439	0.049
Mof_N 	N 	0.7957	0.8732	0.7314	-0.229
Mof_C 	C 	0.9866	0.8758	0.6651	0.118
Mof_H 	H 	0.0376	0.8462	0.6029	-0.012
Mof_C 	C 	0.1131	0.92	0.6836	-0.178
Mof_H 	H 	0.2503	0.9195	0.6392	0.1
Mof_C 	C 	0.0398	0.9656	0.7677	0.11
Mof_C 	C 	0.8372	0.9623	0.8307	-0.167
Mof_H 	H 	0.7741	0.9924	0.8821	0.082
Mof_C 	C 	0.7296	0.9152	0.8178	0.094
Mof_H 	H 	0.5996	0.9126	0.8744	0.005
Mof_C 	C 	0.169	0.0122	0.791	-0.087
Mof_H 	H 	0.1202	0.037	0.8726	0.061
_end
