data_functionalizedCrystal
_audit_creation_method	'EQeq! by Chris Wilmer'
_symmetry_space_group_name_H-M	'P1'
_symmetry_Int_Tables_number	1
_symmetry_cell_setting	triclinic
loop_
_symmetry_equiv_pos_as_xyz
  x,y,z
_cell_length_a	6.7017
_cell_length_b	19.0658
_cell_length_c	65.5397
_cell_angle_alpha	89.4853
_cell_angle_beta	87.0699
_cell_angle_gamma	79.8775
loop_
_atom_site_label
_atom_site_type_symbol
_atom_site_fract_x
_atom_site_fract_y
_atom_site_fract_z
_atom_site_charge
Mof_Cd	Cd	0.84839	0.60254	0.83128	0.405
Mof_Cd	Cd	0.33695	0.65014	0.85936	0.444
Mof_Cd	Cd	0.28221	0.39746	0.16872	0.404
Mof_Cd	Cd	0.84645	0.34986	0.14064	0.447
Mof_Cd	Cd	0.42967	0.10254	0.66872	0.404
Mof_Cd	Cd	0.94631	0.15014	0.64064	0.445
Mof_Cd	Cd	0.20093	0.89746	0.33128	0.395
Mof_Cd	Cd	0.73709	0.84986	0.35936	0.448
Mof_Cd	Cd	0.0143	0	-0	0.435
Mof_Cd	Cd	0.7643	0.5	0.5	0.442
Mof_H 	H 	0.0362	0.0276	0.6784	-0.008
Mof_H 	H 	0.8547	0.9858	0.7028	0.11
Mof_H 	H 	0.2293	0.0372	0.7426	0.1
Mof_H 	H 	0.3888	0.094	0.7174	0.013
Mof_H 	H 	0.9908	0.9608	0.7548	0.08
Mof_H 	H 	0.7172	0.9354	0.7276	0.038
Mof_H 	H 	0.4499	0.874	0.7374	0.055
Mof_H 	H 	0.2986	0.8044	0.7602	0.049
Mof_H 	H 	0.725	0.8148	0.7998	0.053
Mof_H 	H 	0.8715	0.8892	0.7778	0.057
Mof_H 	H 	0.4496	0.7562	0.8106	0.034
Mof_H 	H 	0.1896	0.7298	0.782	0.128
Mof_H 	H 	0.0091	0.06	0.9554	0.008
Mof_H 	H 	0.8075	0.1374	0.9344	0.093
Mof_H 	H 	0.3353	0.1422	0.9752	0.113
Mof_H 	H 	0.5436	0.0596	0.9934	-0
Mof_H 	H 	0.4797	0.2158	0.9272	0.072
Mof_H 	H 	0.1765	0.2182	0.9556	0.045
Mof_H 	H 	0.3049	0.2926	0.907	0.054
Mof_H 	H 	0.0954	0.3808	0.8898	0.042
Mof_H 	H 	0.6517	0.3814	0.9324	0.044
Mof_H 	H 	0.8637	0.2982	0.9516	0.061
Mof_H 	H 	0.6216	0.4758	0.9084	0.031
Mof_H 	H 	0.8742	0.4602	0.8742	0.111
Mof_H 	H 	0.819	0.1214	0.7564	-0
Mof_H 	H 	0.6412	0.0452	0.7738	0.1
Mof_H 	H 	0.1984	0.204	0.7856	0.113
Mof_H 	H 	0.3523	0.275	0.7666	-0.011
Mof_H 	H 	0.3868	0.0132	0.793	0.091
Mof_H 	H 	0.0527	0.1092	0.8016	0.028
Mof_H 	H 	0.2618	0.9248	0.8134	0.048
Mof_H 	H 	0.0794	0.8502	0.8294	0.061
Mof_H 	H 	0.5811	0.0052	0.8338	0.044
Mof_H 	H 	0.7837	0.0828	0.8196	0.051
Mof_H 	H 	0.5564	0.8892	0.8478	0.033
Mof_H 	H 	0.8621	0.7774	0.839	0.124
Mof_H 	H 	0.0172	0.6004	0.8902	-0.007
Mof_H 	H 	0.7092	0.6382	0.9072	0.108
Mof_H 	H 	0.7927	0.8366	0.8958	0.099
Mof_H 	H 	0.087	0.794	0.8774	0.016
Mof_H 	H 	0.5047	0.824	0.9186	0.072
Mof_H 	H 	0.4073	0.6926	0.9206	0.053
Mof_H 	H 	0.0947	0.689	0.9414	0.066
Mof_H 	H 	0.7956	0.7426	0.9596	0.039
Mof_H 	H 	0.9109	0.9324	0.94	0.041
Mof_H 	H 	0.211	0.8786	0.9248	0.065
Mof_H 	H 	0.6009	0.9364	0.9572	0.028
Mof_H 	H 	0.4908	0.8122	0.9704	0.127
Mof_H 	H 	0.7422	0.9724	0.3216	0.01
Mof_H 	H 	0.5433	0.0142	0.2972	0.077
Mof_H 	H 	0.0091	0.9628	0.2574	0.061
Mof_H 	H 	0.2002	0.906	0.2826	0.037
Mof_H 	H 	0.7064	0.0392	0.2452	0.058
Mof_H 	H 	0.3802	0.0646	0.2724	0.056
Mof_H 	H 	0.0613	0.126	0.2626	0.075
Mof_H 	H 	0.8632	0.1956	0.2398	0.023
Mof_H 	H 	0.3396	0.1852	0.2002	0.034
Mof_H 	H 	0.5385	0.1108	0.2222	0.076
Mof_H 	H 	0.0164	0.2438	0.1894	0.011
Mof_H 	H 	0.7014	0.2702	0.218	0.141
Mof_H 	H 	0.0245	0.94	0.0446	0.01
Mof_H 	H 	0.8793	0.8626	0.0656	0.094
Mof_H 	H 	0.4527	0.8578	0.0248	0.113
Mof_H 	H 	0.5966	0.9404	0.0066	0.002
Mof_H 	H 	0.6227	0.7842	0.0728	0.072
Mof_H 	H 	0.3503	0.7818	0.0444	0.046
Mof_H 	H 	0.5045	0.7074	0.093	0.056
Mof_H 	H 	0.366	0.6192	0.1102	0.041
Mof_H 	H 	0.9655	0.6186	0.0676	0.047
Mof_H 	H 	0.1135	0.7018	0.0484	0.06
Mof_H 	H 	0.0058	0.5242	0.0916	0.031
Mof_H 	H 	0.2086	0.5398	0.1258	0.111
Mof_H 	H 	0.6968	0.8786	0.2436	-0.001
Mof_H 	H 	0.4602	0.9548	0.2262	0.106
Mof_H 	H 	0.188	0.796	0.2144	0.117
Mof_H 	H 	0.3939	0.725	0.2334	-0.014
Mof_H 	H 	0.193	0.9868	0.207	0.105
Mof_H 	H 	0.9635	0.8908	0.1984	0.016
Mof_H 	H 	-2.17276e-17	0.0752	0.1866	0.033
Mof_H 	H 	0.759	0.1498	0.1706	0.072
Mof_H 	H 	0.4201	0.9948	0.1662	0.066
Mof_H 	H 	0.6861	0.9172	0.1804	0.038
Mof_H 	H 	0.2934	0.1108	0.1522	0.036
Mof_H 	H 	0.4785	0.2226	0.161	0.12
Mof_H 	H 	0.5078	0.3996	0.1098	-0.004
Mof_H 	H 	0.2546	0.3618	0.0928	0.107
Mof_H 	H 	0.5251	0.1634	0.1042	0.099
Mof_H 	H 	0.7584	0.206	0.1226	0.016
Mof_H 	H 	0.2473	0.176	0.0814	0.072
Mof_H 	H 	0.0205	0.3074	0.0794	0.052
Mof_H 	H 	0.7251	0.311	0.0586	0.063
Mof_H 	H 	0.4978	0.2574	0.0404	0.042
Mof_H 	H 	0.7833	0.0676	0.06	0.044
Mof_H 	H 	0.0144	0.1214	0.0752	0.057
Mof_H 	H 	0.4945	0.0636	0.0428	0.028
Mof_H 	H 	0.2734	0.1878	0.0296	0.126
Mof_H 	H 	0.4646	0.5276	0.8216	-0.004
Mof_H 	H 	0.3075	0.4858	0.7972	0.103
Mof_H 	H 	0.7219	0.5372	0.7574	0.098
Mof_H 	H 	0.8562	0.594	0.7826	0.015
Mof_H 	H 	0.4956	0.4608	0.7452	0.077
Mof_H 	H 	0.1948	0.4354	0.7724	0.039
Mof_H 	H 	0.9373	0.374	0.7626	0.055
Mof_H 	H 	0.8088	0.3044	0.7398	0.05
Mof_H 	H 	0.2748	0.3148	0.7002	0.053
Mof_H 	H 	0.3993	0.3892	0.7222	0.056
Mof_H 	H 	0.0102	0.2562	0.6894	0.034
Mof_H 	H 	0.7216	0.2298	0.718	0.128
Mof_H 	H 	0.7145	0.56	0.5446	0.013
Mof_H 	H 	0.4919	0.6374	0.5656	0.093
Mof_H 	H 	0.0605	0.6422	0.5248	0.111
Mof_H 	H 	0.287	0.5596	0.5066	-0.003
Mof_H 	H 	0.1569	0.7158	0.5728	0.077
Mof_H 	H 	0.8821	0.7182	0.5444	0.042
Mof_H 	H 	0.9619	0.7926	0.593	0.056
Mof_H 	H 	0.7352	0.8808	0.6102	0.042
Mof_H 	H 	0.3341	0.8814	0.5676	0.043
Mof_H 	H 	0.5653	0.7982	0.5484	0.061
Mof_H 	H 	0.28	0.9758	0.5916	0.031
Mof_H 	H 	0.4984	0.9602	0.6258	0.111
Mof_H 	H 	0.3254	0.6214	0.7436	-0
Mof_H 	H 	0.165	0.5452	0.7262	0.101
Mof_H 	H 	0.734	0.704	0.7144	0.113
Mof_H 	H 	0.8689	0.775	0.7334	-0.012
Mof_H 	H 	0.9298	0.5132	0.707	0.092
Mof_H 	H 	0.6043	0.6092	0.6984	0.028
Mof_H 	H 	0.8252	0.4248	0.6866	0.049
Mof_H 	H 	0.6588	0.3502	0.6706	0.061
Mof_H 	H 	0.1649	0.5052	0.6662	0.05
Mof_H 	H 	0.3533	0.5828	0.6804	0.049
Mof_H 	H 	0.1542	0.3892	0.6522	0.032
Mof_H 	H 	0.4511	0.2774	0.661	0.123
Mof_H 	H 	0.6574	0.1004	0.6098	-0.003
Mof_H 	H 	0.3664	0.1382	0.5928	0.106
Mof_H 	H 	0.4385	0.3366	0.6042	0.098
Mof_H 	H 	0.7144	0.294	0.6226	0.016
Mof_H 	H 	0.1733	0.324	0.5814	0.068
Mof_H 	H 	0.0779	0.1926	0.5794	0.056
Mof_H 	H 	0.7861	0.189	0.5586	0.067
Mof_H 	H 	0.5052	0.2426	0.5404	0.04
Mof_H 	H 	0.6009	0.4324	0.56	0.041
Mof_H 	H 	0.8858	0.3786	0.5752	0.067
Mof_H 	H 	0.3081	0.4364	0.5428	0.03
Mof_H 	H 	0.2112	0.3122	0.5296	0.119
Mof_H 	H 	0.8138	0.4724	0.1784	-0.001
Mof_H 	H 	0.5905	0.5142	0.2028	0.096
Mof_H 	H 	0.0165	0.4628	0.2426	0.077
Mof_H 	H 	0.2328	0.406	0.2174	0.024
Mof_H 	H 	0.7016	0.5392	0.2548	0.067
Mof_H 	H 	0.4026	0.5646	0.2276	0.052
Mof_H 	H 	0.0739	0.626	0.2374	0.079
Mof_H 	H 	0.853	0.6956	0.2602	0.019
Mof_H 	H 	0.2898	0.6852	0.2998	0.031
Mof_H 	H 	0.5107	0.6108	0.2778	0.077
Mof_H 	H 	0.9558	0.7438	0.3106	0.02
Mof_H 	H 	0.6694	0.7702	0.282	0.141
Mof_H 	H 	0.8191	0.44	0.4554	0.015
Mof_H 	H 	0.6949	0.3626	0.4344	0.093
Mof_H 	H 	0.2275	0.3578	0.4752	0.109
Mof_H 	H 	0.3532	0.4404	0.4934	-0.001
Mof_H 	H 	0.4455	0.2842	0.4272	0.072
Mof_H 	H 	0.1447	0.2818	0.4556	0.042
Mof_H 	H 	0.3475	0.2074	0.407	0.06
Mof_H 	H 	0.2262	0.1192	0.3898	0.03
Mof_H 	H 	0.7831	0.1186	0.4324	0.032
Mof_H 	H 	0.9119	0.2018	0.4516	0.065
Mof_H 	H 	0.8474	0.0242	0.4084	0.022
Mof_H 	H 	0.0844	0.0398	0.3742	0.098
Mof_H 	H 	0.6904	0.3786	0.2564	-0.002
Mof_H 	H 	0.4364	0.4548	0.2738	0.106
Mof_H 	H 	0.1524	0.296	0.2856	0.116
Mof_H 	H 	0.3773	0.225	0.2666	-0.015
Mof_H 	H 	0.15	0.4868	0.293	0.105
Mof_H 	H 	0.9119	0.3908	0.3016	0.015
Mof_H 	H 	0.9366	0.5752	0.3134	0.046
Mof_H 	H 	0.6796	0.6498	0.3294	0.067
Mof_H 	H 	0.3363	0.4948	0.3338	0.053
Mof_H 	H 	0.6165	0.4172	0.3196	0.044
Mof_H 	H 	0.1956	0.6108	0.3478	0.032
Mof_H 	H 	0.3895	0.7226	0.339	0.12
Mof_H 	H 	0.3676	0.8996	0.3902	-0.007
Mof_H 	H 	0.0974	0.8618	0.4072	0.108
Mof_H 	H 	0.3793	0.6634	0.3958	0.103
Mof_H 	H 	0.631	0.706	0.3774	0.013
Mof_H 	H 	0.0787	0.676	0.4186	0.085
Mof_H 	H 	0.8499	0.8074	0.4206	0.04
Mof_H 	H 	0.5337	0.811	0.4414	0.059
Mof_H 	H 	0.2882	0.7574	0.4596	0.041
Mof_H 	H 	0.5933	0.5676	0.44	0.044
Mof_H 	H 	0.8396	0.6214	0.4248	0.061
Mof_H 	H 	0.2873	0.5636	0.4572	0.023
Mof_H 	H 	0.053	0.6878	0.4704	0.13
Mof_C 	C 	0.07309	0.032	0.69182	0.137
Mof_C 	C 	0.97024	0.0034	0.70612	-0.232
Mof_C 	C 	0.02854	0.9992	0.72572	0.17
Mof_C 	C 	0.18734	0.036	0.72932	-0.198
Mof_C 	C 	0.28495	0.0698	0.7143	0.099
Mof_C 	C 	0.93478	0.9624	0.74204	-0.147
Mof_C 	C 	0.77461	0.9306	0.74018	-0.026
Mof_C 	C 	0.67676	0.889	0.75548	0.032
Mof_C 	C 	0.50335	0.8632	0.7501	-0.073
Mof_C 	C 	0.41438	0.8216	0.76364	-0.04
Mof_C 	C 	0.49237	0.805	0.78226	-0
Mof_C 	C 	0.66811	0.8284	0.78738	-0.041
Mof_C 	C 	0.75701	0.8718	0.77418	-0.072
Mof_C 	C 	0.39559	0.761	0.79782	0.044
Mof_C 	C 	0.24196	0.7292	0.79488	-0.233
Mof_C 	C 	0.1493	0.691	0.8124	0.388
Mof_C 	C 	0.87375	0.0772	0.9593	0.098
Mof_C 	C 	0.75266	0.1238	0.94688	-0.181
Mof_C 	C 	0.55036	0.151	0.95228	0.138
Mof_C 	C 	0.46936	0.1266	0.97068	-0.189
Mof_C 	C 	0.59882	0.0786	0.98176	0.128
Mof_C 	C 	0.41987	0.2028	0.93946	-0.123
Mof_C 	C 	0.23544	0.2318	0.94332	-0.032
Mof_C 	C 	0.09799	0.2854	0.93062	0.037
Mof_C 	C 	0.17437	0.311	0.91226	-0.073
Mof_C 	C 	0.04959	0.3646	0.90222	-0.039
Mof_C 	C 	0.86198	0.394	0.91004	-0.003
Mof_C 	C 	0.78629	0.3656	0.92782	-0.038
Mof_C 	C 	0.9088	0.3134	0.939	-0.077
Mof_C 	C 	0.73303	0.4534	0.90054	0.036
Mof_C 	C 	0.75745	0.4792	0.8819	-0.227
Mof_C 	C 	0.61288	0.5358	0.87244	0.35
Mof_C 	C 	0.6874	0.1376	0.7616	0.108
Mof_C 	C 	0.5804	0.0926	0.7726	-0.203
Mof_C 	C 	0.3885	0.113	0.782	0.178
Mof_C 	C 	0.3212	0.1844	0.7792	-0.236
Mof_C 	C 	0.4142	0.2276	0.768	0.143
Mof_C 	C 	0.3056	0.058	0.7928	-0.178
Mof_C 	C 	0.1319	0.064	0.8022	0.006
Mof_C 	C 	0.0398	0.013	0.8134	0.006
Mof_C 	C 	0.1266	0.9414	0.8174	-0.046
Mof_C 	C 	0.01811	0.8968	0.82698	-0.057
Mof_C 	C 	0.8102	0.9202	0.8334	0.007
Mof_C 	C 	0.7173	0.9894	0.83	-0.047
Mof_C 	C 	0.8402	0.0348	0.8208	-0.059
Mof_C 	C 	0.68423	0.8692	0.84234	0.033
Mof_C 	C 	0.73153	0.7996	0.84334	-0.227
Mof_C 	C 	0.58099	0.7548	0.85122	0.372
Mof_C 	C 	0.96621	0.649	0.89058	0.119
Mof_C 	C 	0.78367	0.6712	0.90146	-0.19
Mof_C 	C 	0.71536	0.7436	0.90368	0.148
Mof_C 	C 	0.83298	0.7876	0.89444	-0.181
Mof_C 	C 	0.01028	0.7622	0.88324	0.102
Mof_C 	C 	0.52441	0.7754	0.91578	-0.11
Mof_C 	C 	0.38595	0.7416	0.9225	-0.044
Mof_C 	C 	0.19288	0.777	0.93324	0.06
Mof_C 	C 	0.06179	0.7384	0.94202	-0.092
Mof_C 	C 	0.87608	0.7696	0.95224	-0.017
Mof_C 	C 	0.81882	0.848	0.95036	-0.018
Mof_C 	C 	0.946	0.8832	0.9408	-0.015
Mof_C 	C 	0.1286	0.851	0.9318	-0.089
Mof_C 	C 	0.62476	0.8874	0.95908	0.055
Mof_C 	C 	0.48281	0.8612	0.96918	-0.242
Mof_C 	C 	0.30802	0.9092	0.97876	0.36
Mof_C 	C 	0.79691	0.968	0.30818	0.092
Mof_C 	C 	0.67976	0.9966	0.29388	-0.152
Mof_C 	C 	0.75346	0.0008	0.27428	0.088
Mof_C 	C 	0.95266	0.964	0.27068	-0.098
Mof_C 	C 	0.06905	0.9302	0.2857	0.027
Mof_C 	C 	0.63922	0.0376	0.25796	-0.084
Mof_C 	C 	0.44539	0.0694	0.25982	-0.083
Mof_C 	C 	0.32124	0.111	0.24452	0.087
Mof_C 	C 	0.11665	0.1368	0.2499	-0.143
Mof_C 	C 	0.99962	0.1784	0.23636	0.039
Mof_C 	C 	0.07963	0.195	0.21774	-0.068
Mof_C 	C 	0.28389	0.1716	0.21262	0.016
Mof_C 	C 	0.40299	0.1282	0.22582	-0.127
Mof_C 	C 	0.95441	0.239	0.20218	0.101
Mof_C 	C 	0.76604	0.2708	0.20512	-0.267
Mof_C 	C 	0.6527	0.309	0.1876	0.402
Mof_C 	C 	0.91025	0.9228	0.0407	0.1
Mof_C 	C 	0.82334	0.8762	0.05312	-0.18
Mof_C 	C 	0.65364	0.849	0.04772	0.138
Mof_C 	C 	0.56664	0.8734	0.02932	-0.188
Mof_C 	C 	0.65918	0.9214	0.01824	0.128
Mof_C 	C 	0.56213	0.7972	0.06054	-0.122
Mof_C 	C 	0.41056	0.7682	0.05668	-0.033
Mof_C 	C 	0.31401	0.7146	0.06938	0.04
Mof_C 	C 	0.39763	0.689	0.08774	-0.076
Mof_C 	C 	0.31641	0.6354	0.09778	-0.035
Mof_C 	C 	0.16602	0.606	0.08996	-0.005
Mof_C 	C 	0.07971	0.6344	0.07218	-0.041
Mof_C 	C 	0.1612	0.6866	0.061	-0.08
Mof_C 	C 	0.08697	0.5466	0.09946	0.036
Mof_C 	C 	0.11855	0.5208	0.1181	-0.227
Mof_C 	C 	0.02112	0.4642	0.12756	0.347
Mof_C 	C 	0.5866	0.8624	0.2384	0.114
Mof_C 	C 	0.4456	0.9074	0.2274	-0.214
Mof_C 	C 	0.2835	0.887	0.218	0.198
Mof_C 	C 	0.2848	0.8156	0.2208	-0.251
Mof_C 	C 	0.4098	0.7724	0.232	0.151
Mof_C 	C 	0.1564	0.942	0.2072	-0.215
Mof_C 	C 	0.9981	0.936	0.1978	0.048
Mof_C 	C 	0.8662	0.987	0.1866	-0.022
Mof_C 	C 	0.8854	0.0586	0.1826	-0.017
Mof_C 	C 	0.74189	0.1032	0.17302	-0.083
Mof_C 	C 	0.5638	0.0798	0.1666	0.032
Mof_C 	C 	0.5367	0.0106	0.17	-0.096
Mof_C 	C 	0.6958	0.9652	0.1792	-0.019
Mof_C 	C 	0.39577	0.1308	0.15766	0.018
Mof_C 	C 	0.37447	0.2004	0.15666	-0.217
Mof_C 	C 	0.18701	0.2452	0.14878	0.369
Mof_C 	C 	0.50579	0.351	0.10942	0.114
Mof_C 	C 	0.35633	0.3288	0.09854	-0.188
Mof_C 	C 	0.36264	0.2564	0.09632	0.148
Mof_C 	C 	0.51502	0.2124	0.10556	-0.184
Mof_C 	C 	0.65572	0.2378	0.11676	0.105
Mof_C 	C 	0.21559	0.2246	0.08422	-0.111
Mof_C 	C 	0.05005	0.2584	0.0775	-0.043
Mof_C 	C 	0.90312	0.223	0.06676	0.054
Mof_C 	C 	0.74221	0.2616	0.05798	-0.083
Mof_C 	C 	0.59792	0.2304	0.04776	-0.026
Mof_C 	C 	0.61718	0.152	0.04964	-0.011
Mof_C 	C 	0.77	0.1168	0.0592	-0.029
Mof_C 	C 	0.9114	0.149	0.0682	-0.073
Mof_C 	C 	0.47124	0.1126	0.04092	0.051
Mof_C 	C 	0.31319	0.1388	0.03082	-0.241
Mof_C 	C 	0.19598	0.0908	0.02124	0.36
Mof_C 	C 	0.51491	0.532	0.80818	0.129
Mof_C 	C 	0.42636	0.5034	0.79388	-0.217
Mof_C 	C 	0.50426	0.4992	0.77428	0.157
Mof_C 	C 	0.66666	0.536	0.77068	-0.189
Mof_C 	C 	0.74925	0.5698	0.7857	0.094
Mof_C 	C 	0.42682	0.4624	0.75796	-0.141
Mof_C 	C 	0.26479	0.4306	0.75982	-0.03
Mof_C 	C 	0.18224	0.389	0.74452	0.033
Mof_C 	C 	0.00345	0.3632	0.7499	-0.073
Mof_C 	C 	0.92802	0.3216	0.73636	-0.041
Mof_C 	C 	0.02463	0.305	0.71774	0.001
Mof_C 	C 	0.20549	0.3284	0.71262	-0.041
Mof_C 	C 	0.28119	0.3718	0.72582	-0.072
Mof_C 	C 	0.94341	0.261	0.70218	0.043
Mof_C 	C 	0.78684	0.2292	0.70512	-0.233
Mof_C 	C 	0.7117	0.191	0.6876	0.389
Mof_C 	C 	0.58305	0.5772	0.5407	0.095
Mof_C 	C 	0.44954	0.6238	0.55312	-0.182
Mof_C 	C 	0.25264	0.651	0.54772	0.144
Mof_C 	C 	0.19004	0.6266	0.52932	-0.193
Mof_C 	C 	0.33058	0.5786	0.51824	0.129
Mof_C 	C 	0.10933	0.7028	0.56054	-0.142
Mof_C 	C 	0.92876	0.7318	0.55668	-0.013
Mof_C 	C 	0.77861	0.7854	0.56938	0.035
Mof_C 	C 	0.83663	0.811	0.58774	-0.072
Mof_C 	C 	0.70181	0.8646	0.59778	-0.036
Mof_C 	C 	0.52202	0.894	0.58996	-0.006
Mof_C 	C 	0.46411	0.8656	0.57218	-0.036
Mof_C 	C 	0.5978	0.8134	0.561	-0.079
Mof_C 	C 	0.38357	0.9534	0.59946	0.036
Mof_C 	C 	0.38935	0.9792	0.6181	-0.226
Mof_C 	C 	0.23532	0.0358	0.62756	0.349
Mof_C 	C 	0.199	0.6376	0.7384	0.108
Mof_C 	C 	0.103	0.5926	0.7274	-0.203
Mof_C 	C 	0.9205	0.613	0.718	0.178
Mof_C 	C 	0.8504	0.6844	0.7208	-0.236
Mof_C 	C 	0.9322	0.7276	0.732	0.143
Mof_C 	C 	0.8484	0.558	0.7072	-0.178
Mof_C 	C 	0.6841	0.564	0.6978	0.006
Mof_C 	C 	0.6032	0.513	0.6866	0.008
Mof_C 	C 	0.694	0.4414	0.6826	-0.049
Mof_C 	C 	0.59509	0.3968	0.67302	-0.056
Mof_C 	C 	0.3936	0.4202	0.6666	0.009
Mof_C 	C 	0.2973	0.4894	0.67	-0.059
Mof_C 	C 	0.411	0.5348	0.6792	-0.053
Mof_C 	C 	0.27657	0.3692	0.65766	0.032
Mof_C 	C 	0.32487	0.2996	0.65666	-0.226
Mof_C 	C 	0.18221	0.2548	0.64878	0.372
Mof_C 	C 	0.60679	0.149	0.60942	0.112
Mof_C 	C 	0.43513	0.1712	0.59854	-0.185
Mof_C 	C 	0.36904	0.2436	0.59632	0.143
Mof_C 	C 	0.47742	0.2876	0.60556	-0.181
Mof_C 	C 	0.64352	0.2622	0.61676	0.104
Mof_C 	C 	0.19019	0.2754	0.58422	-0.102
Mof_C 	C 	0.05845	0.2416	0.5775	-0.057
Mof_C 	C 	0.87612	0.277	0.56676	0.067
Mof_C 	C 	0.75381	0.2384	0.55798	-0.091
Mof_C 	C 	0.57832	0.2696	0.54776	-0.021
Mof_C 	C 	0.51918	0.348	0.54964	-0.012
Mof_C 	C 	0.6368	0.3832	0.5592	-0.021
Mof_C 	C 	0.8104	0.351	0.5682	-0.086
Mof_C 	C 	0.33384	0.3874	0.54092	0.043
Mof_C 	C 	0.20199	0.3612	0.53082	-0.226
Mof_C 	C 	0.03678	0.4092	0.52124	0.328
Mof_C 	C 	0.85509	0.468	0.19182	0.121
Mof_C 	C 	0.72364	0.4966	0.20612	-0.197
Mof_C 	C 	0.77774	0.5008	0.22572	0.128
Mof_C 	C 	0.97334	0.464	0.22932	-0.144
Mof_C 	C 	0.10475	0.4302	0.2143	0.065
Mof_C 	C 	0.64718	0.5376	0.24204	-0.107
Mof_C 	C 	0.45521	0.5694	0.24018	-0.069
Mof_C 	C 	0.31576	0.611	0.25548	0.086
Mof_C 	C 	0.11655	0.6368	0.2501	-0.149
Mof_C 	C 	0.98598	0.6784	0.26364	0.05
Mof_C 	C 	0.04737	0.695	0.28226	-0.078
Mof_C 	C 	0.24651	0.6716	0.28738	0.02
Mof_C 	C 	0.37881	0.6282	0.27418	-0.129
Mof_C 	C 	0.90659	0.739	0.29782	0.099
Mof_C 	C 	0.72116	0.7708	0.29488	-0.265
Mof_C 	C 	0.5903	0.809	0.3124	0.402
Mof_C 	C 	0.70095	0.4228	0.4593	0.093
Mof_C 	C 	0.62646	0.3762	0.44688	-0.177
Mof_C 	C 	0.45136	0.349	0.45228	0.135
Mof_C 	C 	0.34596	0.3734	0.47068	-0.187
Mof_C 	C 	0.42742	0.4214	0.48176	0.126
Mof_C 	C 	0.37267	0.2972	0.43946	-0.123
Mof_C 	C 	0.21724	0.2682	0.44332	-0.033
Mof_C 	C 	0.13339	0.2146	0.43062	0.034
Mof_C 	C 	0.23537	0.189	0.41226	-0.09
Mof_C 	C 	0.16419	0.1354	0.40222	-0.009
Mof_C 	C 	0.00598	0.106	0.41004	-0.056
Mof_C 	C 	0.90189	0.1344	0.42782	0.002
Mof_C 	C 	0.9722	0.1866	0.439	-0.081
Mof_C 	C 	0.93643	0.0466	0.40054	0.068
Mof_C 	C 	0.98665	0.0208	0.3819	-0.219
Mof_C 	C 	0.89868	0.9642	0.37244	0.352
Mof_C 	C 	0.575	0.3624	0.2616	0.115
Mof_C 	C 	0.423	0.4074	0.2726	-0.217
Mof_C 	C 	0.2515	0.387	0.282	0.201
Mof_C 	C 	0.2556	0.3156	0.2792	-0.254
Mof_C 	C 	0.3918	0.2724	0.268	0.153
Mof_C 	C 	0.1136	0.442	0.2928	-0.225
Mof_C 	C 	0.9459	0.436	0.3022	0.054
Mof_C 	C 	0.8028	0.487	0.3134	-0.016
Mof_C 	C 	0.818	0.5586	0.3174	-0.031
Mof_C 	C 	0.66491	0.6032	0.32698	-0.069
Mof_C 	C 	0.4804	0.5798	0.3334	0.019
Mof_C 	C 	0.4567	0.5106	0.33	-0.071
Mof_C 	C 	0.625	0.4652	0.3208	-0.037
Mof_C 	C 	0.30343	0.6308	0.34234	0.022
Mof_C 	C 	0.28113	0.7004	0.34334	-0.215
Mof_C 	C 	0.08579	0.7452	0.35122	0.35
Mof_C 	C 	0.36521	0.851	0.39058	0.119
Mof_C 	C 	0.20487	0.8288	0.40146	-0.202
Mof_C 	C 	0.20896	0.7564	0.40368	0.167
Mof_C 	C 	0.37058	0.7124	0.39444	-0.197
Mof_C 	C 	0.52248	0.7378	0.38324	0.112
Mof_C 	C 	0.04981	0.7246	0.41578	-0.16
Mof_C 	C 	0.87755	0.7584	0.4225	0.007
Mof_C 	C 	0.71988	0.723	0.43324	0.035
Mof_C 	C 	0.55019	0.7616	0.44202	-0.071
Mof_C 	C 	0.39568	0.7304	0.45224	-0.03
Mof_C 	C 	0.41682	0.652	0.45036	-0.013
Mof_C 	C 	0.5792	0.6168	0.4408	-0.03
Mof_C 	C 	0.7296	0.649	0.4318	-0.068
Mof_C 	C 	0.26216	0.6126	0.45908	0.062
Mof_C 	C 	0.09401	0.6388	0.46918	-0.264
Mof_C 	C 	0.96722	0.5908	0.47876	0.378
Mof_N 	N 	0.22886	0.0678	0.69448	-0.163
Mof_N 	N 	0.79054	0.0574	0.97752	-0.166
Mof_N 	N 	0.5959	0.2056	0.7586	-0.151
Mof_N 	N 	0.07266	0.692	0.88068	-0.169
Mof_N 	N 	0.99114	0.9322	0.30552	-0.135
Mof_N 	N 	0.82546	0.9426	0.02248	-0.164
Mof_N 	N 	0.5601	0.7944	0.2414	-0.153
Mof_N 	N 	0.64534	0.308	0.11932	-0.168
Mof_N 	N 	0.67334	0.5678	0.80552	-0.16
Mof_N 	N 	0.51806	0.5574	0.52248	-0.166
Mof_N 	N 	0.1045	0.7056	0.7414	-0.151
Mof_N 	N 	0.70334	0.192	0.61932	-0.167
Mof_N 	N 	0.04666	0.4322	0.19448	-0.157
Mof_N 	N 	0.59794	0.4426	0.47752	-0.165
Mof_N 	N 	0.5515	0.2944	0.2586	-0.153
Mof_N 	N 	0.51466	0.808	0.38068	-0.17
Mof_O 	O 	0.21986	0.687	0.82928	-0.331
Mof_O 	O 	0.99857	0.6646	0.80826	-0.319
Mof_O 	O 	0.47417	0.5712	0.88446	-0.291
Mof_O 	O 	0.6335	0.688	0.849	-0.318
Mof_O 	O 	0.41805	0.7802	0.8597	-0.287
Mof_O 	O 	0.26797	0.9732	0.97486	-0.296
Mof_O 	O 	0.19451	0.883	0.99198	-0.283
Mof_O 	O 	0.62438	0.5474	0.85384	-0.319
Mof_O 	O 	0.73614	0.313	0.17072	-0.333
Mof_O 	O 	0.47143	0.3354	0.19174	-0.323
Mof_O 	O 	0.92983	0.4288	0.11554	-0.288
Mof_O 	O 	0.1705	0.312	0.151	-0.318
Mof_O 	O 	0.05795	0.2198	0.1403	-0.288
Mof_O 	O 	0.21603	0.0268	0.02514	-0.301
Mof_O 	O 	0.06949	0.117	0.00802	-0.284
Mof_O 	O 	0.02562	0.4526	0.14616	-0.32
Mof_O 	O 	0.79914	0.187	0.67072	-0.331
Mof_O 	O 	0.55683	0.1646	0.69174	-0.32
Mof_O 	O 	0.10863	0.0712	0.61554	-0.292
Mof_O 	O 	0.2325	0.188	0.651	-0.318
Mof_O 	O 	0.02775	0.2802	0.6403	-0.288
Mof_O 	O 	0.99283	0.4732	0.52514	-0.282
Mof_O 	O 	0.93649	0.383	0.50802	-0.267
Mof_O 	O 	0.22822	0.0474	0.64616	-0.319
Mof_O 	O 	0.65686	0.813	0.32928	-0.333
Mof_O 	O 	0.41317	0.8354	0.30826	-0.324
Mof_O 	O 	0.79537	0.9288	0.38446	-0.288
Mof_O 	O 	0.0715	0.812	0.349	-0.319
Mof_O 	O 	0.94825	0.7198	0.3597	-0.269
Mof_O 	O 	0.99117	0.5268	0.47486	-0.298
Mof_O 	O 	0.82751	0.617	0.49198	-0.284
Mof_O 	O 	0.92178	0.9526	0.35384	-0.313
_end
