data_functionalizedCrystal
_audit_creation_method	'EQeq! by Chris Wilmer'
_symmetry_space_group_name_H-M	'P1'
_symmetry_Int_Tables_number	1
_symmetry_cell_setting	triclinic
loop_
_symmetry_equiv_pos_as_xyz
  x,y,z
_cell_length_a	12.88
_cell_length_b	16.87
_cell_length_c	17.407
_cell_angle_alpha	90
_cell_angle_beta	90
_cell_angle_gamma	90
loop_
_atom_site_label
_atom_site_type_symbol
_atom_site_fract_x
_atom_site_fract_y
_atom_site_fract_z
_atom_site_charge
Mof_Ca	Ca	0.3743	0.53199	0.45845	1.346
Mof_Ca	Ca	0.26145	0.64185	0.63571	1.061
Mof_Ca	Ca	0.1257	0.03199	0.04155	1.324
Mof_Ca	Ca	0.23855	0.14185	0.86429	1.066
Mof_Ca	Ca	0.6257	0.96801	0.45845	1.348
Mof_Ca	Ca	0.73855	0.85815	0.63571	1.06
Mof_Ca	Ca	0.8743	0.46801	0.04155	1.344
Mof_Ca	Ca	0.76145	0.35815	0.86429	1.064
Mof_Ca	Ca	0.6257	0.46801	0.54155	1.347
Mof_Ca	Ca	0.73855	0.35815	0.36429	1.062
Mof_Ca	Ca	0.8743	0.96801	0.95845	1.324
Mof_Ca	Ca	0.76145	0.85815	0.13571	1.066
Mof_Ca	Ca	0.3743	0.03199	0.54155	1.348
Mof_Ca	Ca	0.26145	0.14185	0.36429	1.06
Mof_Ca	Ca	0.1257	0.53199	0.95845	1.344
Mof_Ca	Ca	0.23855	0.64185	0.13571	1.064
Mof_H 	H 	0.2964	0.316	0.6944	-0.062
Mof_H 	H 	0.4035	0.2778	0.4423	0.14
Mof_H 	H 	0.2036	0.816	0.8056	-0.058
Mof_H 	H 	0.0965	0.7778	0.0577	0.13
Mof_H 	H 	0.7036	0.184	0.6944	-0.061
Mof_H 	H 	0.5965	0.2222	0.4423	0.14
Mof_H 	H 	0.7964	0.684	0.8056	-0.059
Mof_H 	H 	0.9035	0.7222	0.0577	0.133
Mof_H 	H 	0.7036	0.684	0.3056	-0.062
Mof_H 	H 	0.5965	0.7222	0.5577	0.14
Mof_H 	H 	0.7964	0.184	0.1944	-0.058
Mof_H 	H 	0.9035	0.2222	0.9423	0.13
Mof_H 	H 	0.2964	0.816	0.3056	-0.061
Mof_H 	H 	0.4035	0.7778	0.5577	0.14
Mof_H 	H 	0.2036	0.316	0.1944	-0.059
Mof_H 	H 	0.0965	0.2778	0.9423	0.133
Mof_C 	C 	0.3727	0.36682	0.60606	-0.367
Mof_C 	C 	0.3187	0.30787	0.64416	0.257
Mof_C 	C 	0.2977	0.2364	0.60736	-0.353
Mof_C 	C 	0.32989	0.22303	0.52981	0.394
Mof_C 	C 	0.38335	0.28498	0.4931	-0.46
Mof_C 	C 	0.40784	0.35647	0.52875	0.382
Mof_C 	C 	0.1273	0.86682	0.89394	-0.354
Mof_C 	C 	0.1813	0.80787	0.85584	0.245
Mof_C 	C 	0.2023	0.7364	0.89264	-0.343
Mof_C 	C 	0.17011	0.72303	0.97019	0.373
Mof_C 	C 	0.11665	0.78498	0.0069	-0.428
Mof_C 	C 	0.09216	0.85647	0.97125	0.354
Mof_C 	C 	0.6273	0.13318	0.60606	-0.367
Mof_C 	C 	0.6813	0.19213	0.64416	0.258
Mof_C 	C 	0.7023	0.2636	0.60736	-0.353
Mof_C 	C 	0.67011	0.27697	0.52981	0.394
Mof_C 	C 	0.61665	0.21502	0.4931	-0.461
Mof_C 	C 	0.59216	0.14353	0.52875	0.382
Mof_C 	C 	0.8727	0.63318	0.89394	-0.36
Mof_C 	C 	0.8187	0.69213	0.85584	0.249
Mof_C 	C 	0.7977	0.7636	0.89264	-0.345
Mof_C 	C 	0.82989	0.77697	0.97019	0.373
Mof_C 	C 	0.88335	0.71502	0.0069	-0.437
Mof_C 	C 	0.90784	0.64353	0.97125	0.367
Mof_C 	C 	0.6273	0.63318	0.39394	-0.367
Mof_C 	C 	0.6813	0.69213	0.35584	0.257
Mof_C 	C 	0.7023	0.7636	0.39264	-0.353
Mof_C 	C 	0.67011	0.77697	0.47019	0.394
Mof_C 	C 	0.61665	0.71502	0.5069	-0.46
Mof_C 	C 	0.59216	0.64353	0.47125	0.382
Mof_C 	C 	0.8727	0.13318	0.10606	-0.354
Mof_C 	C 	0.8187	0.19213	0.14416	0.245
Mof_C 	C 	0.7977	0.2636	0.10736	-0.343
Mof_C 	C 	0.82989	0.27697	0.02981	0.373
Mof_C 	C 	0.88335	0.21502	0.9931	-0.428
Mof_C 	C 	0.90784	0.14353	0.02875	0.354
Mof_C 	C 	0.3727	0.86682	0.39394	-0.367
Mof_C 	C 	0.3187	0.80787	0.35584	0.258
Mof_C 	C 	0.2977	0.7364	0.39264	-0.353
Mof_C 	C 	0.32989	0.72303	0.47019	0.394
Mof_C 	C 	0.38335	0.78498	0.5069	-0.461
Mof_C 	C 	0.40784	0.85647	0.47125	0.382
Mof_C 	C 	0.1273	0.36682	0.10606	-0.36
Mof_C 	C 	0.1813	0.30787	0.14416	0.249
Mof_C 	C 	0.2023	0.2364	0.10736	-0.345
Mof_C 	C 	0.17011	0.22303	0.02981	0.373
Mof_C 	C 	0.11665	0.28498	0.9931	-0.437
Mof_C 	C 	0.09216	0.35647	0.02875	0.367
Mof_S 	S 	0.39521	0.45834	0.64932	0.645
Mof_S 	S 	0.2225	0.16419	0.65259	0.645
Mof_S 	S 	0.10479	0.95834	0.85068	0.632
Mof_S 	S 	0.2775	0.66419	0.84741	0.641
Mof_S 	S 	0.60479	0.04166	0.64932	0.648
Mof_S 	S 	0.7775	0.33581	0.65259	0.645
Mof_S 	S 	0.89521	0.54166	0.85068	0.642
Mof_S 	S 	0.7225	0.83581	0.84741	0.641
Mof_S 	S 	0.60479	0.54166	0.35068	0.645
Mof_S 	S 	0.7775	0.83581	0.34741	0.645
Mof_S 	S 	0.89521	0.04166	0.14932	0.632
Mof_S 	S 	0.7225	0.33581	0.15259	0.641
Mof_S 	S 	0.39521	0.95834	0.35068	0.648
Mof_S 	S 	0.2225	0.66419	0.34741	0.645
Mof_S 	S 	0.10479	0.45834	0.14932	0.642
Mof_S 	S 	0.2775	0.16419	0.15259	0.641
Mof_O 	O 	0.34082	0.51707	0.60066	-0.544
Mof_O 	O 	0.50725	0.47252	0.64931	-0.447
Mof_O 	O 	0.35182	0.45619	0.72645	-0.34
Mof_O 	O 	0.20997	0.18839	0.73266	-0.438
Mof_O 	O 	0.12258	0.16135	0.61272	-0.326
Mof_O 	O 	0.2772	0.08852	0.64644	-0.449
Mof_O 	O 	0.46067	0.4131	0.49289	-0.536
Mof_O 	O 	0.31	0.15588	0.49484	-0.548
Mof_O 	O 	0.15918	0.01707	0.89934	-0.534
Mof_O 	O 	0.99275	0.97252	0.85069	-0.447
Mof_O 	O 	0.14818	0.95619	0.77355	-0.339
Mof_O 	O 	0.29003	0.68839	0.76734	-0.438
Mof_O 	O 	0.37742	0.66135	0.88728	-0.325
Mof_O 	O 	0.2228	0.58852	0.85356	-0.449
Mof_O 	O 	0.03933	0.9131	0.00711	-0.517
Mof_O 	O 	0.19	0.65588	0.00516	-0.54
Mof_O 	O 	0.65918	0.98293	0.60066	-0.546
Mof_O 	O 	0.49275	0.02748	0.64931	-0.447
Mof_O 	O 	0.64818	0.04381	0.72645	-0.338
Mof_O 	O 	0.79003	0.31161	0.73266	-0.438
Mof_O 	O 	0.87742	0.33865	0.61272	-0.326
Mof_O 	O 	0.7228	0.41148	0.64644	-0.45
Mof_O 	O 	0.53933	0.0869	0.49289	-0.536
Mof_O 	O 	0.69	0.34412	0.49484	-0.548
Mof_O 	O 	0.84082	0.48293	0.89934	-0.543
Mof_O 	O 	0.00725	0.52748	0.85069	-0.447
Mof_O 	O 	0.85182	0.54381	0.77355	-0.34
Mof_O 	O 	0.70997	0.81161	0.76734	-0.438
Mof_O 	O 	0.62258	0.83865	0.88728	-0.327
Mof_O 	O 	0.7772	0.91148	0.85356	-0.449
Mof_O 	O 	0.96067	0.5869	0.00711	-0.53
Mof_O 	O 	0.81	0.84412	0.00516	-0.536
Mof_O 	O 	0.65918	0.48293	0.39934	-0.544
Mof_O 	O 	0.49275	0.52748	0.35069	-0.447
Mof_O 	O 	0.64818	0.54381	0.27355	-0.34
Mof_O 	O 	0.79003	0.81161	0.26734	-0.438
Mof_O 	O 	0.87742	0.83865	0.38728	-0.326
Mof_O 	O 	0.7228	0.91148	0.35356	-0.449
Mof_O 	O 	0.53933	0.5869	0.50711	-0.536
Mof_O 	O 	0.69	0.84412	0.50516	-0.548
Mof_O 	O 	0.84082	0.98293	0.10066	-0.534
Mof_O 	O 	0.00725	0.02748	0.14931	-0.447
Mof_O 	O 	0.85182	0.04381	0.22645	-0.339
Mof_O 	O 	0.70997	0.31161	0.23266	-0.438
Mof_O 	O 	0.62258	0.33865	0.11272	-0.325
Mof_O 	O 	0.7772	0.41148	0.14644	-0.449
Mof_O 	O 	0.96067	0.0869	0.99289	-0.517
Mof_O 	O 	0.81	0.34412	0.99484	-0.54
Mof_O 	O 	0.34082	0.01707	0.39934	-0.546
Mof_O 	O 	0.50725	0.97252	0.35069	-0.447
Mof_O 	O 	0.35182	0.95619	0.27355	-0.338
Mof_O 	O 	0.20997	0.68839	0.26734	-0.438
Mof_O 	O 	0.12258	0.66135	0.38728	-0.326
Mof_O 	O 	0.2772	0.58852	0.35356	-0.45
Mof_O 	O 	0.46067	0.9131	0.50711	-0.536
Mof_O 	O 	0.31	0.65588	0.50516	-0.548
Mof_O 	O 	0.15918	0.51707	0.10066	-0.543
Mof_O 	O 	0.99275	0.47252	0.14931	-0.447
Mof_O 	O 	0.14818	0.45619	0.22645	-0.34
Mof_O 	O 	0.29003	0.18839	0.23266	-0.438
Mof_O 	O 	0.37742	0.16135	0.11272	-0.327
Mof_O 	O 	0.2228	0.08852	0.14644	-0.449
Mof_O 	O 	0.03933	0.4131	0.99289	-0.53
Mof_O 	O 	0.19	0.15588	0.99484	-0.536
_end
