data_functionalizedCrystal
_audit_creation_method	'EQeq! by Chris Wilmer'
_symmetry_space_group_name_H-M	'P1'
_symmetry_Int_Tables_number	1
_symmetry_cell_setting	triclinic
loop_
_symmetry_equiv_pos_as_xyz
  x,y,z
_cell_length_a	12.1647
_cell_length_b	12.1647
_cell_length_c	27.1971
_cell_angle_alpha	90
_cell_angle_beta	90
_cell_angle_gamma	120
loop_
_atom_site_label
_atom_site_type_symbol
_atom_site_fract_x
_atom_site_fract_y
_atom_site_fract_z
_atom_site_charge
Mof_O 	O 	0.8818	0.4323	0.1982	-0.695
Mof_O 	O 	0.8471	0.5877	0.1989	-0.625
Mof_C 	C 	0.8746	0.5163	0.1788	0.658
Mof_C 	C 	0.9094	0.5379	0.1265	-0.207
Mof_C 	C 	0.8235	0.4534	0.0882	0.045
Mof_C 	C 	0.8544	0.4946	0.0374	-0.022
Mof_C 	C 	0.9798	0.584	0.0259	0.014
Mof_C 	C 	0.0498	0.6716	0.0588	-0.029
Mof_C 	C 	0.9981	0.661	0.1073	0.065
Mof_O 	O 	0.5677	0.4495	0.1982	-0.695
Mof_O 	O 	0.4123	0.2594	0.1989	-0.625
Mof_C 	C 	0.4837	0.3583	0.1788	0.658
Mof_C 	C 	0.4621	0.3715	0.1265	-0.207
Mof_C 	C 	0.5466	0.3701	0.0882	0.045
Mof_C 	C 	0.5054	0.3598	0.0374	-0.022
Mof_C 	C 	0.416	0.3958	0.0259	0.015
Mof_C 	C 	0.3284	0.3782	0.0588	-0.029
Mof_C 	C 	0.339	0.3371	0.1073	0.066
Mof_O 	O 	0.5505	0.1182	0.1982	-0.695
Mof_O 	O 	0.7406	0.1529	0.1989	-0.625
Mof_C 	C 	0.6417	0.1254	0.1788	0.658
Mof_C 	C 	0.6285	0.0906	0.1265	-0.207
Mof_C 	C 	0.6299	0.1765	0.0882	0.045
Mof_C 	C 	0.6402	0.1456	0.0374	-0.022
Mof_C 	C 	0.6042	0.0202	0.0259	0.014
Mof_C 	C 	0.6218	0.9502	0.0588	-0.029
Mof_C 	C 	0.6629	0.0019	0.1073	0.065
Mof_O 	O 	0.8818	0.4323	0.3018	-0.695
Mof_O 	O 	0.8471	0.5877	0.3011	-0.625
Mof_C 	C 	0.8746	0.5163	0.3212	0.658
Mof_C 	C 	0.9094	0.5379	0.3735	-0.207
Mof_C 	C 	0.8235	0.4534	0.4118	0.045
Mof_C 	C 	0.8544	0.4946	0.4626	-0.022
Mof_C 	C 	0.9798	0.584	0.4741	0.014
Mof_C 	C 	0.0498	0.6716	0.4412	-0.029
Mof_C 	C 	0.9981	0.661	0.3927	0.065
Mof_O 	O 	0.5677	0.4495	0.3018	-0.695
Mof_O 	O 	0.4123	0.2594	0.3011	-0.625
Mof_C 	C 	0.4837	0.3583	0.3212	0.658
Mof_C 	C 	0.4621	0.3715	0.3735	-0.207
Mof_C 	C 	0.5466	0.3701	0.4118	0.045
Mof_C 	C 	0.5054	0.3598	0.4626	-0.022
Mof_C 	C 	0.416	0.3958	0.4741	0.015
Mof_C 	C 	0.3284	0.3782	0.4412	-0.029
Mof_C 	C 	0.339	0.3371	0.3927	0.066
Mof_O 	O 	0.5505	0.1182	0.3018	-0.695
Mof_O 	O 	0.7406	0.1529	0.3011	-0.625
Mof_C 	C 	0.6417	0.1254	0.3212	0.658
Mof_C 	C 	0.6285	0.0906	0.3735	-0.207
Mof_C 	C 	0.6299	0.1765	0.4118	0.045
Mof_C 	C 	0.6402	0.1456	0.4626	-0.022
Mof_C 	C 	0.6042	0.0202	0.4741	0.015
Mof_C 	C 	0.6218	0.9502	0.4412	-0.029
Mof_C 	C 	0.6629	0.0019	0.3927	0.065
Mof_O 	O 	0.4323	0.8818	0.8018	-0.695
Mof_O 	O 	0.5877	0.8471	0.8011	-0.625
Mof_C 	C 	0.5163	0.8746	0.8212	0.658
Mof_C 	C 	0.5379	0.9094	0.8735	-0.207
Mof_C 	C 	0.4534	0.8235	0.9118	0.045
Mof_C 	C 	0.4946	0.8544	0.9626	-0.022
Mof_C 	C 	0.584	0.9798	0.9741	0.014
Mof_C 	C 	0.6716	0.0498	0.9412	-0.029
Mof_C 	C 	0.661	0.9981	0.8927	0.065
Mof_O 	O 	0.4495	0.5677	0.8018	-0.695
Mof_O 	O 	0.2594	0.4123	0.8011	-0.625
Mof_C 	C 	0.3583	0.4837	0.8212	0.658
Mof_C 	C 	0.3715	0.4621	0.8735	-0.207
Mof_C 	C 	0.3701	0.5466	0.9118	0.045
Mof_C 	C 	0.3598	0.5054	0.9626	-0.022
Mof_C 	C 	0.3958	0.416	0.9741	0.015
Mof_C 	C 	0.3782	0.3284	0.9412	-0.029
Mof_C 	C 	0.3371	0.339	0.8927	0.066
Mof_O 	O 	0.1182	0.5505	0.8018	-0.695
Mof_O 	O 	0.1529	0.7406	0.8011	-0.625
Mof_C 	C 	0.1254	0.6417	0.8212	0.658
Mof_C 	C 	0.0906	0.6285	0.8735	-0.207
Mof_C 	C 	0.1765	0.6299	0.9118	0.045
Mof_C 	C 	0.1456	0.6402	0.9626	-0.022
Mof_C 	C 	0.0202	0.6042	0.9741	0.014
Mof_C 	C 	0.9502	0.6218	0.9412	-0.029
Mof_C 	C 	0.0019	0.6629	0.8927	0.065
Mof_O 	O 	0.4323	0.8818	0.6982	-0.695
Mof_O 	O 	0.5877	0.8471	0.6989	-0.625
Mof_C 	C 	0.5163	0.8746	0.6788	0.658
Mof_C 	C 	0.5379	0.9094	0.6265	-0.207
Mof_C 	C 	0.4534	0.8235	0.5882	0.045
Mof_C 	C 	0.4946	0.8544	0.5374	-0.022
Mof_C 	C 	0.584	0.9798	0.5259	0.014
Mof_C 	C 	0.6716	0.0498	0.5588	-0.029
Mof_C 	C 	0.661	0.9981	0.6073	0.065
Mof_O 	O 	0.4495	0.5677	0.6982	-0.695
Mof_O 	O 	0.2594	0.4123	0.6989	-0.625
Mof_C 	C 	0.3583	0.4837	0.6788	0.658
Mof_C 	C 	0.3715	0.4621	0.6265	-0.207
Mof_C 	C 	0.3701	0.5466	0.5882	0.045
Mof_C 	C 	0.3598	0.5054	0.5374	-0.022
Mof_C 	C 	0.3958	0.416	0.5259	0.015
Mof_C 	C 	0.3782	0.3284	0.5588	-0.029
Mof_C 	C 	0.3371	0.339	0.6073	0.066
Mof_O 	O 	0.1182	0.5505	0.6982	-0.695
Mof_O 	O 	0.1529	0.7406	0.6989	-0.625
Mof_C 	C 	0.1254	0.6417	0.6788	0.658
Mof_C 	C 	0.0906	0.6285	0.6265	-0.207
Mof_C 	C 	0.1765	0.6299	0.5882	0.045
Mof_C 	C 	0.1456	0.6402	0.5374	-0.022
Mof_C 	C 	0.0202	0.6042	0.5259	0.015
Mof_C 	C 	0.9502	0.6218	0.5588	-0.029
Mof_C 	C 	0.0019	0.6629	0.6073	0.065
Mof_Cr	Cr	0.8131	0.3004	0.25	1.896
Mof_Cr	Cr	0.6996	0.5127	0.25	1.896
Mof_Cr	Cr	0.4873	0.1869	0.25	1.896
Mof_Cr	Cr	0.3004	0.8131	0.75	1.896
Mof_Cr	Cr	0.5127	0.6996	0.75	1.896
Mof_Cr	Cr	0.1869	0.4873	0.75	1.896
Mof_O 	O 	0.66667	0.33333	0.25	-0.917
Mof_O 	O 	0.33333	0.66667	0.75	-0.917
_end
