data_functionalizedCrystal
_audit_creation_method	'EQeq! by Chris Wilmer'
_symmetry_space_group_name_H-M	'P1'
_symmetry_Int_Tables_number	1
_symmetry_cell_setting	triclinic
loop_
_symmetry_equiv_pos_as_xyz
  x,y,z
_cell_length_a	19.485
_cell_length_b	7.084
_cell_length_c	12.134
_cell_angle_alpha	90
_cell_angle_beta	103.33
_cell_angle_gamma	90
loop_
_atom_site_label
_atom_site_type_symbol
_atom_site_fract_x
_atom_site_fract_y
_atom_site_fract_z
_atom_site_charge
Mof_Co	Co	0.71617	0.85665	0.86277	1.098
Mof_O 	O 	0.68779	0.8352	0.01764	-0.445
Mof_O 	O 	0.73958	0.0853	0.1149	-0.404
Mof_N 	N 	0.72012	0.8548	0.51617	-0.144
Mof_N 	N 	0.74073	0.8785	0.7031	-0.255
Mof_N 	N 	0.50036	0.7102	0.2513	-0.146
Mof_N 	N 	0.38464	0.7392	0.2039	-0.239
Mof_C 	C 	0.68087	0.8417	0.4012	0.126
Mof_C 	C 	0.61187	0.7729	0.3809	-0.189
Mof_H 	H 	0.5924	0.732	0.4417	0.094
Mof_C 	C 	0.57241	0.7657	0.2702	0.128
Mof_C 	C 	0.60151	0.816	0.18	-0.126
Mof_H 	H 	0.5746	0.805	0.1043	0.071
Mof_C 	C 	0.67069	0.8827	0.2019	-0.033
Mof_C 	C 	0.71007	0.8991	0.313	-0.127
Mof_H 	H 	0.7565	0.9492	0.3281	0.05
Mof_C 	C 	0.69135	0.8826	0.6071	0.075
Mof_H 	H 	0.6425	0.9023	0.6025	-0.027
Mof_C 	C 	0.80373	0.8512	0.6715	-0.001
Mof_H 	H 	0.8487	0.8438	0.7225	0.003
Mof_C 	C 	0.79232	0.8364	0.5573	-0.001
Mof_H 	H 	0.8268	0.8174	0.5143	0.018
Mof_C 	C 	0.44492	0.8104	0.1928	0.09
Mof_H 	H 	0.449	0.9191	0.1489	-0.032
Mof_C 	C 	0.40247	0.5826	0.2728	0.003
Mof_H 	H 	0.3697	0.5001	0.2953	0.016
Mof_C 	C 	0.47343	0.5643	0.3033	-0.003
Mof_H 	H 	0.4994	0.4699	0.3509	0.032
Mof_C 	C 	0.70204	0.9418	0.105	0.267
Mof_Co	Co	0.21617	0.35665	0.86277	1.107
Mof_O 	O 	0.18779	0.3352	0.01764	-0.45
Mof_O 	O 	0.23958	0.5853	0.1149	-0.469
Mof_N 	N 	0.22012	0.3548	0.51617	-0.14
Mof_N 	N 	0.24073	0.3785	0.7031	-0.248
Mof_N 	N 	0.00036	0.2102	0.2513	-0.165
Mof_N 	N 	0.88464	0.2392	0.2039	-0.227
Mof_C 	C 	0.18087	0.3417	0.4012	0.141
Mof_C 	C 	0.11187	0.2729	0.3809	-0.186
Mof_H 	H 	0.0924	0.232	0.4417	0.104
Mof_C 	C 	0.07241	0.2657	0.2702	0.142
Mof_C 	C 	0.10151	0.316	0.18	-0.116
Mof_H 	H 	0.0746	0.305	0.1043	0.073
Mof_C 	C 	0.17069	0.3827	0.2019	-0.039
Mof_C 	C 	0.21007	0.3991	0.313	-0.112
Mof_H 	H 	0.2565	0.4492	0.3281	0.069
Mof_C 	C 	0.19135	0.3826	0.6071	0.088
Mof_H 	H 	0.1425	0.4023	0.6025	-0.023
Mof_C 	C 	0.30373	0.3512	0.6715	0.012
Mof_H 	H 	0.3487	0.3438	0.7225	0.023
Mof_C 	C 	0.29232	0.3364	0.5573	0.016
Mof_H 	H 	0.3268	0.3174	0.5143	0.034
Mof_C 	C 	0.94492	0.3104	0.1928	0.094
Mof_H 	H 	0.949	0.4191	0.1489	-0.028
Mof_C 	C 	0.90247	0.0826	0.2728	-0.057
Mof_H 	H 	0.8697	0.0001	0.2953	0.052
Mof_C 	C 	0.97343	0.0643	0.3033	0.125
Mof_H 	H 	0.9994	0.9699	0.3509	-0.061
Mof_C 	C 	0.20204	0.4418	0.105	0.343
Mof_Co	Co	0.28383	0.85665	0.13723	1.097
Mof_O 	O 	0.31221	0.8352	0.98236	-0.446
Mof_O 	O 	0.26042	0.0853	0.8851	-0.404
Mof_N 	N 	0.27988	0.8548	0.48383	-0.144
Mof_N 	N 	0.25927	0.8785	0.2969	-0.255
Mof_N 	N 	0.49964	0.7102	0.7487	-0.146
Mof_N 	N 	0.61536	0.7392	0.7961	-0.239
Mof_C 	C 	0.31913	0.8417	0.5988	0.126
Mof_C 	C 	0.38813	0.7729	0.6191	-0.189
Mof_H 	H 	0.4076	0.732	0.5583	0.094
Mof_C 	C 	0.42759	0.7657	0.7298	0.128
Mof_C 	C 	0.39849	0.816	0.82	-0.126
Mof_H 	H 	0.4254	0.805	0.8957	0.071
Mof_C 	C 	0.32931	0.8827	0.7981	-0.033
Mof_C 	C 	0.28993	0.8991	0.687	-0.127
Mof_H 	H 	0.2435	0.9492	0.6719	0.05
Mof_C 	C 	0.30865	0.8826	0.3929	0.075
Mof_H 	H 	0.3575	0.9023	0.3975	-0.027
Mof_C 	C 	0.19627	0.8512	0.3285	-0.001
Mof_H 	H 	0.1513	0.8438	0.2775	0.003
Mof_C 	C 	0.20768	0.8364	0.4427	-0.001
Mof_H 	H 	0.1732	0.8174	0.4857	0.018
Mof_C 	C 	0.55508	0.8104	0.8072	0.09
Mof_H 	H 	0.551	0.9191	0.8511	-0.032
Mof_C 	C 	0.59753	0.5826	0.7272	0.003
Mof_H 	H 	0.6303	0.5001	0.7047	0.016
Mof_C 	C 	0.52657	0.5643	0.6967	-0.003
Mof_H 	H 	0.5006	0.4699	0.6491	0.032
Mof_C 	C 	0.29796	0.9418	0.895	0.267
Mof_Co	Co	0.78383	0.35665	0.13723	1.107
Mof_O 	O 	0.81221	0.3352	0.98236	-0.45
Mof_O 	O 	0.76042	0.5853	0.8851	-0.469
Mof_N 	N 	0.77988	0.3548	0.48383	-0.14
Mof_N 	N 	0.75927	0.3785	0.2969	-0.248
Mof_N 	N 	0.99964	0.2102	0.7487	-0.165
Mof_N 	N 	0.11536	0.2392	0.7961	-0.227
Mof_C 	C 	0.81913	0.3417	0.5988	0.141
Mof_C 	C 	0.88813	0.2729	0.6191	-0.186
Mof_H 	H 	0.9076	0.232	0.5583	0.104
Mof_C 	C 	0.92759	0.2657	0.7298	0.142
Mof_C 	C 	0.89849	0.316	0.82	-0.116
Mof_H 	H 	0.9254	0.305	0.8957	0.073
Mof_C 	C 	0.82931	0.3827	0.7981	-0.039
Mof_C 	C 	0.78993	0.3991	0.687	-0.112
Mof_H 	H 	0.7435	0.4492	0.6719	0.069
Mof_C 	C 	0.80865	0.3826	0.3929	0.088
Mof_H 	H 	0.8575	0.4023	0.3975	-0.023
Mof_C 	C 	0.69627	0.3512	0.3285	0.012
Mof_H 	H 	0.6513	0.3438	0.2775	0.023
Mof_C 	C 	0.70768	0.3364	0.4427	0.016
Mof_H 	H 	0.6732	0.3174	0.4857	0.034
Mof_C 	C 	0.05508	0.3104	0.8072	0.094
Mof_H 	H 	0.051	0.4191	0.8511	-0.028
Mof_C 	C 	0.09753	0.0826	0.7272	-0.057
Mof_H 	H 	0.1303	0.0001	0.7047	0.052
Mof_C 	C 	0.02657	0.0643	0.6967	0.125
Mof_H 	H 	0.0006	0.9699	0.6491	-0.061
Mof_C 	C 	0.79796	0.4418	0.895	0.343
_end
