data_functionalizedCrystal
_audit_creation_method	'EQeq! by Chris Wilmer'
_symmetry_space_group_name_H-M	'P1'
_symmetry_Int_Tables_number	1
_symmetry_cell_setting	triclinic
loop_
_symmetry_equiv_pos_as_xyz
  x,y,z
_cell_length_a	16.7963
_cell_length_b	16.7963
_cell_length_c	16.7963
_cell_angle_alpha	90
_cell_angle_beta	90
_cell_angle_gamma	90
loop_
_atom_site_label
_atom_site_type_symbol
_atom_site_fract_x
_atom_site_fract_y
_atom_site_fract_z
_atom_site_charge
Mof_O 	O 	0.9096	0.48	0.1941	-0.524
Mof_O 	O 	0.4096	0.98	0.6941	-0.506
Mof_O 	O 	0.0904	0.52	0.1941	-0.792
Mof_O 	O 	0.5904	0.02	0.6941	-0.88
Mof_O 	O 	0.0904	0.48	0.8059	-0.775
Mof_O 	O 	0.5904	0.98	0.3059	-0.488
Mof_O 	O 	0.9096	0.52	0.8059	-0.509
Mof_O 	O 	0.4096	0.02	0.3059	-0.897
Mof_O 	O 	0.1941	0.9096	0.48	-0.523
Mof_O 	O 	0.6941	0.4096	0.98	-0.505
Mof_O 	O 	0.1941	0.0904	0.52	-0.791
Mof_O 	O 	0.6941	0.5904	0.02	-0.88
Mof_O 	O 	0.8059	0.0904	0.48	-0.775
Mof_O 	O 	0.3059	0.5904	0.98	-0.488
Mof_O 	O 	0.8059	0.9096	0.52	-0.509
Mof_O 	O 	0.3059	0.4096	0.02	-0.897
Mof_O 	O 	0.48	0.1941	0.9096	-0.523
Mof_O 	O 	0.98	0.6941	0.4096	-0.505
Mof_O 	O 	0.52	0.1941	0.0904	-0.791
Mof_O 	O 	0.02	0.6941	0.5904	-0.88
Mof_O 	O 	0.48	0.8059	0.0904	-0.775
Mof_O 	O 	0.98	0.3059	0.5904	-0.488
Mof_O 	O 	0.52	0.8059	0.9096	-0.509
Mof_O 	O 	0.02	0.3059	0.4096	-0.897
Mof_O 	O 	0.48	0.9096	0.1941	-0.523
Mof_O 	O 	0.98	0.4096	0.6941	-0.505
Mof_O 	O 	0.52	0.0904	0.1941	-0.791
Mof_O 	O 	0.02	0.5904	0.6941	-0.88
Mof_O 	O 	0.48	0.0904	0.8059	-0.775
Mof_O 	O 	0.98	0.5904	0.3059	-0.488
Mof_O 	O 	0.52	0.9096	0.8059	-0.509
Mof_O 	O 	0.02	0.4096	0.3059	-0.897
Mof_O 	O 	0.9096	0.1941	0.48	-0.523
Mof_O 	O 	0.4096	0.6941	0.98	-0.505
Mof_O 	O 	0.0904	0.1941	0.52	-0.791
Mof_O 	O 	0.5904	0.6941	0.02	-0.88
Mof_O 	O 	0.0904	0.8059	0.48	-0.775
Mof_O 	O 	0.5904	0.3059	0.98	-0.488
Mof_O 	O 	0.9096	0.8059	0.52	-0.509
Mof_O 	O 	0.4096	0.3059	0.02	-0.897
Mof_O 	O 	0.1941	0.48	0.9096	-0.523
Mof_O 	O 	0.6941	0.98	0.4096	-0.505
Mof_O 	O 	0.1941	0.52	0.0904	-0.791
Mof_O 	O 	0.6941	0.02	0.5904	-0.88
Mof_O 	O 	0.8059	0.48	0.0904	-0.775
Mof_O 	O 	0.3059	0.98	0.5904	-0.488
Mof_O 	O 	0.8059	0.52	0.9096	-0.509
Mof_O 	O 	0.3059	0.02	0.4096	-0.897
Mof_Al	Al	-0	0.5	-0	0.362
Mof_Al	Al	0.5	0	0.5	3.163
Mof_Al	Al	1.8747e-33	0	0.5	0.362
Mof_Al	Al	0.5	0.5	-0	3.163
Mof_Al	Al	0.5	0	-0	0.362
Mof_Al	Al	1.8747e-33	0.5	0.5	3.163
Mof_P 	P 	0.8778	0.4336	0.1222	0.677
Mof_O 	O 	0.859	0.3471	0.141	-0.266
Mof_O 	O 	0.9425	0.4374	0.0575	-0.333
Mof_P 	P 	0.3778	0.9336	0.6222	0.808
Mof_O 	O 	0.359	0.8471	0.641	-0.216
Mof_O 	O 	0.4425	0.9374	0.5575	-0.843
Mof_P 	P 	0.1222	0.5664	0.1222	0.674
Mof_O 	O 	0.141	0.6529	0.141	-0.381
Mof_O 	O 	0.0575	0.5626	0.0575	-0.661
Mof_P 	P 	0.6222	0.0664	0.6222	0.833
Mof_O 	O 	0.641	0.1529	0.641	-0.268
Mof_O 	O 	0.5575	0.0626	0.5575	-1.155
Mof_P 	P 	0.1222	0.4336	0.8778	0.677
Mof_O 	O 	0.141	0.3471	0.859	-0.266
Mof_O 	O 	0.0575	0.4374	0.9425	-0.333
Mof_P 	P 	0.6222	0.9336	0.3778	0.808
Mof_O 	O 	0.641	0.8471	0.359	-0.216
Mof_O 	O 	0.5575	0.9374	0.4425	-0.843
Mof_P 	P 	0.8778	0.5664	0.8778	0.679
Mof_O 	O 	0.859	0.6529	0.859	-0.034
Mof_O 	O 	0.9425	0.5626	0.9425	0.037
Mof_P 	P 	0.3778	0.0664	0.3778	0.816
Mof_O 	O 	0.359	0.1529	0.359	-0.326
Mof_O 	O 	0.4425	0.0626	0.4425	-1.15
Mof_P 	P 	0.1222	0.8778	0.4336	0.677
Mof_O 	O 	0.141	0.859	0.3471	-0.266
Mof_O 	O 	0.0575	0.9425	0.4374	-0.333
Mof_P 	P 	0.6222	0.3778	0.9336	0.808
Mof_O 	O 	0.641	0.359	0.8471	-0.216
Mof_O 	O 	0.5575	0.4425	0.9374	-0.843
Mof_P 	P 	0.1222	0.1222	0.5664	0.674
Mof_O 	O 	0.141	0.141	0.6529	-0.381
Mof_O 	O 	0.0575	0.0575	0.5626	-0.661
Mof_P 	P 	0.6222	0.6222	0.0664	0.833
Mof_O 	O 	0.641	0.641	0.1529	-0.268
Mof_O 	O 	0.5575	0.5575	0.0626	-1.155
Mof_P 	P 	0.8778	0.1222	0.4336	0.677
Mof_O 	O 	0.859	0.141	0.3471	-0.266
Mof_O 	O 	0.9425	0.0575	0.4374	-0.333
Mof_P 	P 	0.3778	0.6222	0.9336	0.808
Mof_O 	O 	0.359	0.641	0.8471	-0.216
Mof_O 	O 	0.4425	0.5575	0.9374	-0.843
Mof_P 	P 	0.8778	0.8778	0.5664	0.679
Mof_O 	O 	0.859	0.859	0.6529	-0.034
Mof_O 	O 	0.9425	0.9425	0.5626	0.037
Mof_P 	P 	0.3778	0.3778	0.0664	0.816
Mof_O 	O 	0.359	0.359	0.1529	-0.326
Mof_O 	O 	0.4425	0.4425	0.0626	-1.15
Mof_P 	P 	0.4336	0.1222	0.8778	0.677
Mof_O 	O 	0.3471	0.141	0.859	-0.266
Mof_O 	O 	0.4374	0.0575	0.9425	-0.333
Mof_P 	P 	0.9336	0.6222	0.3778	0.808
Mof_O 	O 	0.8471	0.641	0.359	-0.216
Mof_O 	O 	0.9374	0.5575	0.4425	-0.843
Mof_P 	P 	0.5664	0.1222	0.1222	0.674
Mof_O 	O 	0.6529	0.141	0.141	-0.381
Mof_O 	O 	0.5626	0.0575	0.0575	-0.661
Mof_P 	P 	0.0664	0.6222	0.6222	0.833
Mof_O 	O 	0.1529	0.641	0.641	-0.268
Mof_O 	O 	0.0626	0.5575	0.5575	-1.155
Mof_P 	P 	0.4336	0.8778	0.1222	0.677
Mof_O 	O 	0.3471	0.859	0.141	-0.266
Mof_O 	O 	0.4374	0.9425	0.0575	-0.333
Mof_P 	P 	0.9336	0.3778	0.6222	0.808
Mof_O 	O 	0.8471	0.359	0.641	-0.216
Mof_O 	O 	0.9374	0.4425	0.5575	-0.843
Mof_P 	P 	0.5664	0.8778	0.8778	0.679
Mof_O 	O 	0.6529	0.859	0.859	-0.034
Mof_O 	O 	0.5626	0.9425	0.9425	0.037
Mof_P 	P 	0.0664	0.3778	0.3778	0.816
Mof_O 	O 	0.1529	0.359	0.359	-0.326
Mof_O 	O 	0.0626	0.4425	0.4425	-1.15
Mof_Al	Al	9.3735e-34	0.5	0.25	2.059
Mof_Al	Al	-2.51528e-33	0.5	0.75	2.188
Mof_Al	Al	0.5	0	0.25	2.059
Mof_Al	Al	0.25	0	0.5	2.059
Mof_Al	Al	0.75	0	0.5	2.188
Mof_Al	Al	0.25	0.5	-0	2.059
Mof_Al	Al	0.5	0.25	-0	2.059
Mof_Al	Al	0.5	0.75	-0	2.188
Mof_Al	Al	1.8747e-33	0.25	0.5	2.059
Mof_Al	Al	0.5	5.32733e-33	0.75	2.188
Mof_Al	Al	-3.45263e-33	0.75	0.5	2.188
Mof_Al	Al	0.75	0.5	-0	2.188
_end
