data_functionalizedCrystal
_audit_creation_method	'EQeq! by Chris Wilmer'
_symmetry_space_group_name_H-M	'P1'
_symmetry_Int_Tables_number	1
_symmetry_cell_setting	triclinic
loop_
_symmetry_equiv_pos_as_xyz
  x,y,z
_cell_length_a	20.5195
_cell_length_b	20.5195
_cell_length_c	20.5195
_cell_angle_alpha	92.2063
_cell_angle_beta	92.2063
_cell_angle_gamma	92.2063
loop_
_atom_site_label
_atom_site_type_symbol
_atom_site_fract_x
_atom_site_fract_y
_atom_site_fract_z
_atom_site_charge
Mof_Zn	Zn	0.66954	0.96819	0.53961	1.221
Mof_Zn	Zn	0.53961	0.66954	0.96819	1.221
Mof_Zn	Zn	0.03181	0.33046	0.46039	1.218
Mof_Zn	Zn	0.66385	0.69067	0.85747	1.236
Mof_Zn	Zn	0.33615	0.14253	0.30933	1.236
Mof_Zn	Zn	0.85747	0.66385	0.69067	1.236
Mof_Zn	Zn	0.30933	0.33615	0.14253	1.237
Mof_Zn	Zn	0.96819	0.53961	0.66954	1.222
Mof_Zn	Zn	0.14253	0.30933	0.33615	1.237
Mof_Zn	Zn	0.33046	0.46039	0.03181	1.219
Mof_Zn	Zn	0.46039	0.03181	0.33046	1.219
Mof_Zn	Zn	0.69067	0.85747	0.66385	1.237
Mof_H 	H 	0.877	0.4349	0.0553	0.066
Mof_H 	H 	0.5404	0.9406	0.7398	0.094
Mof_H 	H 	0.581	0.1116	0.0539	0.082
Mof_H 	H 	0.0553	0.877	0.4349	0.066
Mof_H 	H 	0.0811	0.1507	0.545	0.004
Mof_H 	H 	0.4596	0.2602	0.0594	0.092
Mof_H 	H 	0.6686	0.6086	0.109	0.015
Mof_H 	H 	0.0777	0.8871	0.6503	0.073
Mof_H 	H 	0.1116	0.0539	0.581	0.082
Mof_H 	H 	0.9223	0.3497	0.1129	0.07
Mof_H 	H 	0.0039	0.5438	0.3083	0.068
Mof_H 	H 	0.3914	0.3314	0.891	0.019
Mof_H 	H 	0.7314	0.393	0.1738	0.067
Mof_H 	H 	0.4961	0.3969	0.945	0.078
Mof_H 	H 	0.0022	0.812	0.6833	0.023
Mof_H 	H 	0.812	0.6833	0.0022	0.023
Mof_H 	H 	0.6559	0.3699	0.8422	0.075
Mof_H 	H 	0.188	0.9978	0.3167	0.028
Mof_H 	H 	0.1129	0.9223	0.3497	0.07
Mof_H 	H 	0.1823	0.7441	0.5705	0.073
Mof_H 	H 	0.5032	0.5063	0.9251	0.022
Mof_H 	H 	0.9447	0.5651	0.123	0.066
Mof_H 	H 	0.8422	0.6559	0.3699	0.075
Mof_H 	H 	0.1507	0.545	0.0811	0.004
Mof_H 	H 	0.5213	0.3368	0.1719	0.026
Mof_H 	H 	0.8884	0.419	0.9461	0.086
Mof_H 	H 	0.3314	0.891	0.3914	0.019
Mof_H 	H 	0.6301	0.3441	0.1578	0.073
Mof_H 	H 	0.3083	0.0039	0.5438	0.068
Mof_H 	H 	0.8281	0.6632	0.4787	0.025
Mof_H 	H 	0.6833	0.0022	0.812	0.023
Mof_H 	H 	0.3699	0.8422	0.6559	0.075
Mof_H 	H 	0.0749	0.4937	0.4968	0.022
Mof_H 	H 	0.419	0.9461	0.8884	0.086
Mof_H 	H 	0.7398	0.5404	0.9406	0.094
Mof_H 	H 	0.0594	0.4596	0.2602	0.092
Mof_H 	H 	0.2228	0.1531	0.4174	0.009
Mof_H 	H 	0.6632	0.4787	0.8281	0.025
Mof_H 	H 	0.9189	0.455	0.8493	0.004
Mof_H 	H 	0.9251	0.5032	0.5063	0.022
Mof_H 	H 	0.3969	0.945	0.4961	0.078
Mof_H 	H 	0.6917	0.4562	0.9961	0.077
Mof_H 	H 	0.2559	0.8177	0.4295	0.071
Mof_H 	H 	0.1578	0.6301	0.3441	0.073
Mof_H 	H 	0.8871	0.6503	0.0777	0.073
Mof_H 	H 	0.4787	0.8281	0.6632	0.025
Mof_H 	H 	0.3368	0.1719	0.5213	0.026
Mof_H 	H 	0.5063	0.9251	0.5032	0.022
Mof_H 	H 	0.9406	0.7398	0.5404	0.094
Mof_H 	H 	0.9461	0.8884	0.419	0.086
Mof_H 	H 	0.4968	0.0749	0.4937	0.022
Mof_H 	H 	0.4295	0.2559	0.8177	0.071
Mof_H 	H 	0.2602	0.0594	0.4596	0.092
Mof_H 	H 	0.055	0.6031	0.5039	0.076
Mof_H 	H 	0.4937	0.4968	0.0749	0.022
Mof_H 	H 	0.4349	0.0553	0.877	0.066
Mof_H 	H 	0.1719	0.5213	0.3368	0.026
Mof_H 	H 	0.7441	0.5705	0.1823	0.073
Mof_H 	H 	0.123	0.9447	0.5651	0.066
Mof_H 	H 	0.945	0.4961	0.3969	0.078
Mof_H 	H 	0.8262	0.607	0.2686	0.065
Mof_H 	H 	0.1531	0.4174	0.2228	0.009
Mof_H 	H 	0.63275	3.29718e-18	0.36725	-0.051
Mof_H 	H 	0.4174	0.2228	0.1531	0.009
Mof_H 	H 	0.5438	0.3083	0.0039	0.068
Mof_H 	H 	0.109	0.6686	0.6086	0.015
Mof_H 	H 	0.455	0.8493	0.9189	0.004
Mof_H 	H 	0.8177	0.4295	0.2559	0.071
Mof_H 	H 	0.5039	0.055	0.6031	0.076
Mof_H 	H 	0.8469	0.7772	0.5826	0.008
Mof_H 	H 	0.4562	0.9961	0.6917	0.077
Mof_H 	H 	0.6031	0.5039	0.055	0.076
Mof_H 	H 	0.9978	0.3167	0.188	0.028
Mof_H 	H 	0.7772	0.5826	0.8469	0.008
Mof_H 	H 	0.5705	0.1823	0.7441	0.073
Mof_H 	H 	0.545	0.0811	0.1507	0.004
Mof_H 	H 	0.0539	0.581	0.1116	0.082
Mof_H 	H 	0.5826	0.8469	0.7772	0.008
Mof_H 	H 	0.6086	0.109	0.6686	0.015
Mof_H 	H 	0.8493	0.9189	0.455	0.004
Mof_H 	H 	0.607	0.2686	0.8262	0.065
Mof_H 	H 	0.2686	0.8262	0.607	0.065
Mof_H 	H 	0.3167	0.188	0.9978	0.028
Mof_H 	H 	0.3497	0.1129	0.9223	0.07
Mof_H 	H 	0.9961	0.6917	0.4562	0.077
Mof_H 	H 	0.6503	0.0777	0.8871	0.073
Mof_H 	H 	-3.9154e-18	0.36725	0.63275	-0.051
Mof_H 	H 	0.891	0.3914	0.3314	0.019
Mof_H 	H 	0.1738	0.7314	0.393	0.067
Mof_H 	H 	0.36725	0.63275	-0	-0.051
Mof_H 	H 	0.5651	0.123	0.9447	0.066
Mof_H 	H 	0.3441	0.1578	0.6301	0.073
Mof_H 	H 	0.393	0.1738	0.7314	0.067
Mof_C 	C 	0.33992	0.20142	0.96212	0.053
Mof_C 	C 	0.89738	0.57698	0.36988	0.052
Mof_C 	C 	0.45066	0.92486	0.86526	-0.165
Mof_C 	C 	0.88374	0.47355	0.86912	0.1
Mof_C 	C 	0.8982	0.3856	0.2871	0.053
Mof_C 	C 	0.3405	0.3158	0.0061	0.382
Mof_C 	C 	0.54742	0.21363	0.98041	0.039
Mof_C 	C 	0.41674	0.12484	0.49574	-0.133
Mof_C 	C 	-2.26681e-18	0.39868	0.60133	0.241
Mof_C 	C 	0.54934	0.13474	0.07514	-0.162
Mof_C 	C 	0.79858	0.66008	0.03788	0.062
Mof_C 	C 	0.46177	0.85137	0.62887	0.057
Mof_C 	C 	0.96212	0.33992	0.20142	0.053
Mof_C 	C 	0.85137	0.62887	0.46177	0.057
Mof_C 	C 	0.13839	0.82679	0.60909	0.053
Mof_C 	C 	0.64406	0.04526	0.73246	-0.151
Mof_C 	C 	0.18658	0.87569	0.5903	0.035
Mof_C 	C 	0.85315	0.40615	0.24245	-0.114
Mof_C 	C 	0.95474	0.35594	0.26754	-0.136
Mof_C 	C 	0.0647	0.8331	0.4328	-0.106
Mof_C 	C 	0.59385	0.14685	0.75755	-0.121
Mof_C 	C 	0.80742	0.47716	0.9514	0.087
Mof_C 	C 	0.47716	0.9514	0.80742	0.087
Mof_C 	C 	0.04526	0.73246	0.64406	-0.151
Mof_C 	C 	0.36988	0.89738	0.57698	0.052
Mof_C 	C 	0.07754	0.47604	0.22304	-0.165
Mof_C 	C 	0.86526	0.45066	0.92486	-0.165
Mof_C 	C 	0.03788	0.79858	0.66008	0.062
Mof_C 	C 	0.54893	0.86627	0.79891	0.103
Mof_C 	C 	0.45107	0.20109	0.13373	0.099
Mof_C 	C 	0.3158	0.0061	0.3405	0.382
Mof_C 	C 	0.12242	0.2224	0.44671	0.416
Mof_C 	C 	0.50426	0.87516	0.58326	-0.135
Mof_C 	C 	0.01959	0.78637	0.45258	0.039
Mof_C 	C 	0.52645	0.11626	0.13088	0.096
Mof_C 	C 	0.92115	0.53025	0.41315	-0.122
Mof_C 	C 	0.47604	0.22304	0.07754	-0.165
Mof_C 	C 	0.3856	0.2871	0.8982	0.053
Mof_C 	C 	0.47548	0.14714	0.16183	-0.171
Mof_C 	C 	0.42085	0.41275	0.13445	0.403
Mof_C 	C 	0.66008	0.03788	0.79858	0.062
Mof_C 	C 	0.74605	0.4087	0.13475	-0.108
Mof_C 	C 	0.87569	0.5903	0.18658	0.035
Mof_C 	C 	0.20142	0.96212	0.33992	0.053
Mof_C 	C 	0.08388	0.84308	0.64098	-0.125
Mof_C 	C 	0.22304	0.07754	0.47604	-0.165
Mof_C 	C 	0.5903	0.18658	0.87569	0.035
Mof_C 	C 	0.9705	0.55232	0.27828	-0.102
Mof_C 	C 	0.6144	0.1018	0.7129	0.063
Mof_C 	C 	0.20109	0.13373	0.45107	0.099
Mof_C 	C 	0.91003	0.57013	0.29943	0.037
Mof_C 	C 	0.63012	0.42302	0.10262	0.047
Mof_C 	C 	0.45258	0.01959	0.78637	0.039
Mof_C 	C 	0.4087	0.13475	0.74605	-0.108
Mof_C 	C 	0.62887	0.46177	0.85137	0.057
Mof_C 	C 	0.12484	0.49574	0.41674	-0.133
Mof_C 	C 	0.62541	0.39671	0.86061	-0.127
Mof_C 	C 	0.90918	0.53458	0.47908	0.053
Mof_C 	C 	0.39671	0.86061	0.62541	-0.127
Mof_C 	C 	0.4328	0.0647	0.8331	-0.106
Mof_C 	C 	0.55329	0.7776	0.87758	0.417
Mof_C 	C 	0.35902	0.15692	0.91612	-0.117
Mof_C 	C 	0.86061	0.62541	0.39671	-0.127
Mof_C 	C 	0.86912	0.88374	0.47355	0.1
Mof_C 	C 	0.35594	0.26754	0.95474	-0.136
Mof_C 	C 	0.10262	0.63012	0.42302	0.047
Mof_C 	C 	0.86555	0.58725	0.57915	0.404
Mof_C 	C 	0.82679	0.60909	0.13839	0.053
Mof_C 	C 	0.52284	0.19258	0.0486	0.08
Mof_C 	C 	0.60329	0.37459	0.13939	-0.124
Mof_C 	C 	0.47908	0.90918	0.53458	0.053
Mof_C 	C 	0.92486	0.86526	0.45066	-0.165
Mof_C 	C 	0.29943	0.91003	0.57013	0.037
Mof_C 	C 	0.41275	0.13445	0.42085	0.403
Mof_C 	C 	0.11626	0.13088	0.52645	0.096
Mof_C 	C 	0.8331	0.4328	0.0647	-0.106
Mof_C 	C 	0.0295	0.72172	0.44768	-0.116
Mof_C 	C 	0.39868	0.60133	-0	0.241
Mof_C 	C 	0.87758	0.55329	0.7776	0.417
Mof_C 	C 	0.60133	0	0.39868	0.241
Mof_C 	C 	0.40615	0.24245	0.85315	-0.114
Mof_C 	C 	0.41315	0.92115	0.53025	-0.122
Mof_C 	C 	0.60909	0.13839	0.82679	0.053
Mof_C 	C 	0.75755	0.59385	0.14685	-0.121
Mof_C 	C 	0.9514	0.80742	0.47716	0.087
Mof_C 	C 	0.37459	0.13939	0.60329	-0.124
Mof_C 	C 	0.53823	0.37113	0.14863	0.055
Mof_C 	C 	0.98041	0.54742	0.21363	0.039
Mof_C 	C 	0.4097	0.12431	0.81342	0.039
Mof_C 	C 	0.12431	0.81342	0.4097	0.039
Mof_C 	C 	0.14685	0.75755	0.59385	-0.121
Mof_C 	C 	0.6595	0.9939	0.6842	0.399
Mof_C 	C 	0.46542	0.09082	0.52092	0.05
Mof_C 	C 	0.86525	0.5913	0.25395	-0.103
Mof_C 	C 	0.19258	0.0486	0.52284	0.08
Mof_C 	C 	0.58725	0.57915	0.86555	0.404
Mof_C 	C 	0.52396	0.92246	0.77696	-0.169
Mof_C 	C 	0.16183	0.47548	0.14714	-0.171
Mof_C 	C 	0.13939	0.60329	0.37459	-0.124
Mof_C 	C 	0.52092	0.46542	0.09082	0.05
Mof_C 	C 	0.6842	0.6595	0.9939	0.399
Mof_C 	C 	0.57915	0.86555	0.58725	0.404
Mof_C 	C 	0.25395	0.86525	0.5913	-0.103
Mof_C 	C 	0.09082	0.52092	0.46542	0.05
Mof_C 	C 	0.13475	0.74605	0.4087	-0.108
Mof_C 	C 	0.53458	0.47908	0.90918	0.053
Mof_C 	C 	0.2224	0.44671	0.12242	0.416
Mof_C 	C 	0.13474	0.07514	0.54934	-0.162
Mof_C 	C 	0.46975	0.07885	0.58685	-0.12
Mof_C 	C 	0.07885	0.58685	0.46975	-0.12
Mof_C 	C 	0.77696	0.52396	0.92246	-0.169
Mof_C 	C 	0.13088	0.52645	0.11626	0.096
Mof_C 	C 	0.44671	0.12242	0.2224	0.416
Mof_C 	C 	0.13445	0.42085	0.41275	0.403
Mof_C 	C 	0.13373	0.45107	0.20109	0.099
Mof_C 	C 	0.1018	0.7129	0.6144	0.063
Mof_C 	C 	0.17321	0.86161	0.39091	0.046
Mof_C 	C 	0.49574	0.41674	0.12484	-0.133
Mof_C 	C 	0.81342	0.4097	0.12431	0.039
Mof_C 	C 	0.2871	0.8982	0.3856	0.053
Mof_C 	C 	0.64098	0.08388	0.84308	-0.125
Mof_C 	C 	0.5913	0.25395	0.86525	-0.103
Mof_C 	C 	0.79891	0.54893	0.86627	0.103
Mof_C 	C 	0.26754	0.95474	0.35594	-0.136
Mof_C 	C 	0.55232	0.27828	0.9705	-0.102
Mof_C 	C 	0.92246	0.77696	0.52396	-0.169
Mof_C 	C 	0.7129	0.6144	0.1018	0.063
Mof_C 	C 	0.78637	0.45258	0.01959	0.039
Mof_C 	C 	0.0486	0.52284	0.19258	0.08
Mof_C 	C 	0.27828	0.9705	0.55232	-0.102
Mof_C 	C 	0.70057	0.42987	0.08997	0.044
Mof_C 	C 	0.42302	0.10262	0.63012	0.047
Mof_C 	C 	0.53025	0.41315	0.92115	-0.122
Mof_C 	C 	0.91612	0.35902	0.15692	-0.117
Mof_C 	C 	0.07514	0.54934	0.13474	-0.162
Mof_C 	C 	0.58685	0.46975	0.07885	-0.12
Mof_C 	C 	0.57698	0.36988	0.89738	0.052
Mof_C 	C 	0.52452	0.83817	0.85286	-0.172
Mof_C 	C 	0.1669	0.9353	0.5672	-0.103
Mof_C 	C 	0.0061	0.3405	0.3158	0.382
Mof_C 	C 	0.7776	0.87758	0.55329	0.417
Mof_C 	C 	0.86161	0.39091	0.17321	0.046
Mof_C 	C 	0.87516	0.58326	0.50426	-0.135
Mof_C 	C 	0.14714	0.16183	0.47548	-0.171
Mof_C 	C 	0.37113	0.14863	0.53823	0.055
Mof_C 	C 	0.5672	0.1669	0.9353	-0.103
Mof_C 	C 	0.73246	0.64406	0.04526	-0.151
Mof_C 	C 	0.85286	0.52452	0.83817	-0.172
Mof_C 	C 	0.58326	0.50426	0.87516	-0.135
Mof_C 	C 	0.47355	0.86912	0.88374	0.1
Mof_C 	C 	0.83817	0.85286	0.52452	-0.172
Mof_C 	C 	0.15692	0.91612	0.35902	-0.117
Mof_C 	C 	0.9353	0.5672	0.1669	-0.103
Mof_C 	C 	0.08997	0.70057	0.42987	0.044
Mof_C 	C 	0.72172	0.44768	0.0295	-0.116
Mof_C 	C 	0.86627	0.79891	0.54893	0.103
Mof_C 	C 	0.57013	0.29943	0.91003	0.037
Mof_C 	C 	0.21363	0.98041	0.54742	0.039
Mof_C 	C 	0.39091	0.17321	0.86161	0.046
Mof_C 	C 	0.24245	0.85315	0.40615	-0.114
Mof_C 	C 	0.84308	0.64098	0.08388	-0.125
Mof_C 	C 	0.14863	0.53823	0.37113	0.055
Mof_C 	C 	0.42987	0.08997	0.70057	0.044
Mof_C 	C 	0.44768	0.0295	0.72172	-0.116
Mof_C 	C 	0.9939	0.6842	0.6595	0.399
Mof_S 	S 	0.25915	0.25915	0.25915	0.624
Mof_S 	S 	0.74085	0.74085	0.74085	0.624
Mof_O 	O 	0.7046	0.69173	0.94622	-0.475
Mof_O 	O 	0.30827	0.2954	0.05378	-0.474
Mof_O 	O 	0.26705	0.19667	0.28544	-0.509
Mof_O 	O 	0.35879	0.37426	0.99856	-0.494
Mof_O 	O 	0.7509	0.92586	0.52574	-0.504
Mof_O 	O 	0.47426	0.07414	0.2491	-0.506
Mof_O 	O 	0.80333	0.73295	0.71456	-0.507
Mof_O 	O 	0.2954	0.05378	0.30827	-0.474
Mof_O 	O 	0.05378	0.30827	0.2954	-0.474
Mof_O 	O 	0.75719	0.84855	0.60213	-0.509
Mof_O 	O 	0.2491	0.47426	0.07414	-0.506
Mof_O 	O 	0.99856	0.35879	0.37426	-0.494
Mof_O 	O 	0.35975	0.15745	0.40183	-0.485
Mof_O 	O 	0.0086	0.467	0.6253	-0.412
Mof_O 	O 	0.64025	0.59817	0.84255	-0.484
Mof_O 	O 	0.15745	0.40183	0.35975	-0.485
Mof_O 	O 	0.59817	0.84255	0.64025	-0.484
Mof_O 	O 	0.28544	0.26705	0.19667	-0.509
Mof_O 	O 	0.07414	0.2491	0.47426	-0.506
Mof_O 	O 	0.69173	0.94622	0.7046	-0.475
Mof_O 	O 	0.60213	0.75719	0.84855	-0.509
Mof_O 	O 	0.40183	0.35975	0.15745	-0.485
Mof_O 	O 	0.71456	0.80333	0.73295	-0.507
Mof_O 	O 	0.54394	0.6128	0.88559	-0.496
Mof_O 	O 	0.73295	0.71456	0.80333	-0.507
Mof_O 	O 	0.11441	0.3872	0.45606	-0.497
Mof_O 	O 	0.84255	0.64025	0.59817	-0.484
Mof_O 	O 	0.94622	0.7046	0.69173	-0.475
Mof_O 	O 	0.3747	0.533	0.9914	-0.407
Mof_O 	O 	0.64121	0.00144	0.62574	-0.504
Mof_O 	O 	0.00144	0.62574	0.64121	-0.504
Mof_O 	O 	0.6253	0.0086	0.467	-0.412
Mof_O 	O 	0.6128	0.88559	0.54394	-0.496
Mof_O 	O 	0.19667	0.28544	0.26705	-0.509
Mof_O 	O 	0.92586	0.52574	0.7509	-0.504
Mof_O 	O 	0.467	0.6253	0.0086	-0.412
Mof_O 	O 	0.24281	0.39787	0.15145	-0.509
Mof_O 	O 	0.15145	0.24281	0.39787	-0.509
Mof_O 	O 	0.39787	0.15145	0.24281	-0.509
Mof_O 	O 	0.3872	0.45606	0.11441	-0.497
Mof_O 	O 	0.533	0.9914	0.3747	-0.407
Mof_O 	O 	0.37426	0.99856	0.35879	-0.494
Mof_O 	O 	0.62574	0.64121	0.00144	-0.504
Mof_O 	O 	0.9914	0.3747	0.533	-0.407
Mof_O 	O 	0.45606	0.11441	0.3872	-0.497
Mof_O 	O 	0.52574	0.7509	0.92586	-0.504
Mof_O 	O 	0.88559	0.54394	0.6128	-0.496
Mof_O 	O 	0.84855	0.60213	0.75719	-0.509
_end
