data_functionalizedCrystal
_audit_creation_method	'EQeq! by Chris Wilmer'
_symmetry_space_group_name_H-M	'P1'
_symmetry_Int_Tables_number	1
_symmetry_cell_setting	triclinic
loop_
_symmetry_equiv_pos_as_xyz
  x,y,z
_cell_length_a	22.52
_cell_length_b	11.7787
_cell_length_c	11.6128
_cell_angle_alpha	90
_cell_angle_beta	95.56
_cell_angle_gamma	90
loop_
_atom_site_label
_atom_site_type_symbol
_atom_site_fract_x
_atom_site_fract_y
_atom_site_fract_z
_atom_site_charge
Mof_N 	N 	0.2235	0.4267	0.5064	-0.107
Mof_N 	N 	0.2729	0.2623	0.7602	-0.128
Mof_O 	O 	0.4471	0.4263	0.5733	-0.684
Mof_O 	O 	0.4297	0.4424	0.3833	-0.639
Mof_O 	O 	0.0527	0.3218	0.729	-0.376
Mof_O 	O 	0.0622	0.1624	0.8341	-0.496
Mof_C 	C 	0.4133	0.4343	0.4828	0.601
Mof_C 	C 	0.2618	0.3757	0.5879	0.013
Mof_C 	C 	0.3236	0.3787	0.583	0.04
Mof_H 	H 	0.349	0.3453	0.6413	-0.007
Mof_C 	C 	0.3467	0.4319	0.4907	-0.199
Mof_C 	C 	0.3072	0.4828	0.4059	0.046
Mof_H 	H 	0.3211	0.5178	0.3419	0.003
Mof_C 	C 	0.2466	0.4798	0.4196	-0.02
Mof_H 	H 	0.2206	0.5172	0.3651	0.046
Mof_C 	C 	0.0837	0.2412	0.7811	0.36
Mof_C 	C 	0.2343	0.3136	0.6787	0.064
Mof_C 	C 	0.1726	0.3088	0.6851	-0.057
Mof_H 	H 	0.1472	0.3476	0.6307	0.062
Mof_C 	C 	0.1493	0.2482	0.7697	-0.06
Mof_C 	C 	0.1891	0.1942	0.8546	-0.05
Mof_H 	H 	0.1749	0.1525	0.9142	0.048
Mof_C 	C 	0.25	0.2056	0.846	0.026
Mof_H 	H 	0.2763	0.1721	0.9027	0.029
Mof_H 	H 	0.0173	0.3127	0.7378	0.014
Mof_N 	N 	0.7235	0.9267	0.5064	-0.109
Mof_N 	N 	0.7729	0.7623	0.7602	-0.118
Mof_O 	O 	0.9471	0.9263	0.5733	-0.532
Mof_O 	O 	0.9297	0.9424	0.3833	-0.509
Mof_O 	O 	0.5527	0.8218	0.729	-0.458
Mof_O 	O 	0.5622	0.6624	0.8341	-0.524
Mof_C 	C 	0.9133	0.9343	0.4828	0.528
Mof_C 	C 	0.7618	0.8757	0.5879	0.032
Mof_C 	C 	0.8236	0.8787	0.583	0.005
Mof_H 	H 	0.849	0.8453	0.6413	0.024
Mof_C 	C 	0.8467	0.9319	0.4907	-0.145
Mof_C 	C 	0.8072	0.9828	0.4059	0.014
Mof_H 	H 	0.8211	0.0178	0.3419	0.023
Mof_C 	C 	0.7466	0.9798	0.4196	0
Mof_H 	H 	0.7206	0.0172	0.3651	0.044
Mof_C 	C 	0.5837	0.7412	0.7811	0.42
Mof_C 	C 	0.7343	0.8136	0.6787	0.056
Mof_C 	C 	0.6726	0.8088	0.6851	-0.041
Mof_H 	H 	0.6472	0.8476	0.6307	0.067
Mof_C 	C 	0.6493	0.7482	0.7697	-0.08
Mof_C 	C 	0.6891	0.6942	0.8546	-0.036
Mof_H 	H 	0.6749	0.6525	0.9142	0.041
Mof_C 	C 	0.75	0.7056	0.846	0.019
Mof_H 	H 	0.7763	0.6721	0.9027	0.037
Mof_H 	H 	0.5173	0.8127	0.7378	0.198
Mof_N 	N 	0.7765	0.4267	0.9936	-0.097
Mof_N 	N 	0.7271	0.2623	0.7398	-0.127
Mof_O 	O 	0.5529	0.4263	0.9267	-0.684
Mof_O 	O 	0.5703	0.4424	0.1167	-0.638
Mof_O 	O 	0.9473	0.3218	0.771	-0.513
Mof_O 	O 	0.9378	0.1624	0.6659	-0.43
Mof_C 	C 	0.5867	0.4343	0.0172	0.6
Mof_C 	C 	0.7382	0.3757	0.9121	0.015
Mof_C 	C 	0.6764	0.3787	0.917	0.039
Mof_H 	H 	0.651	0.3453	0.8587	-0.007
Mof_C 	C 	0.6533	0.4319	0.0093	-0.2
Mof_C 	C 	0.6928	0.4828	0.0941	0.047
Mof_H 	H 	0.6789	0.5178	0.1581	0.003
Mof_C 	C 	0.7534	0.4798	0.0804	-0.018
Mof_H 	H 	0.7794	0.5172	0.1349	0.057
Mof_C 	C 	0.9163	0.2412	0.7189	0.443
Mof_C 	C 	0.7657	0.3136	0.8213	0.067
Mof_C 	C 	0.8274	0.3088	0.8149	-0.05
Mof_H 	H 	0.8528	0.3476	0.8693	0.087
Mof_C 	C 	0.8507	0.2482	0.7303	-0.066
Mof_C 	C 	0.8109	0.1942	0.6454	-0.042
Mof_H 	H 	0.8251	0.1525	0.5858	0.051
Mof_C 	C 	0.75	0.2056	0.654	0.025
Mof_H 	H 	0.7237	0.1721	0.5973	0.029
Mof_H 	H 	0.9827	0.3127	0.7622	0.384
Mof_N 	N 	0.2765	0.9267	0.9936	-0.109
Mof_N 	N 	0.2271	0.7623	0.7398	-0.127
Mof_O 	O 	0.0529	0.9263	0.9267	-0.647
Mof_O 	O 	0.0703	0.9424	0.1167	-0.594
Mof_O 	O 	0.4473	0.8218	0.771	-0.458
Mof_O 	O 	0.4378	0.6624	0.6659	-0.524
Mof_C 	C 	0.0867	0.9343	0.0172	0.552
Mof_C 	C 	0.2382	0.8757	0.9121	0.023
Mof_C 	C 	0.1764	0.8787	0.917	0.017
Mof_H 	H 	0.151	0.8453	0.8587	0.002
Mof_C 	C 	0.1533	0.9319	0.0093	-0.169
Mof_C 	C 	0.1928	0.9828	0.0941	0.028
Mof_H 	H 	0.1789	0.0178	0.1581	0.011
Mof_C 	C 	0.2534	0.9798	0.0804	-0.001
Mof_H 	H 	0.2794	0.0172	0.1349	0.043
Mof_C 	C 	0.4163	0.7412	0.7189	0.42
Mof_C 	C 	0.2657	0.8136	0.8213	0.058
Mof_C 	C 	0.3274	0.8088	0.8149	-0.043
Mof_H 	H 	0.3528	0.8476	0.8693	0.067
Mof_C 	C 	0.3507	0.7482	0.7303	-0.078
Mof_C 	C 	0.3109	0.6942	0.6454	-0.038
Mof_H 	H 	0.3251	0.6525	0.5858	0.042
Mof_C 	C 	0.25	0.7056	0.654	0.02
Mof_H 	H 	0.2237	0.6721	0.5973	0.027
Mof_H 	H 	0.4827	0.8127	0.7622	0.197
Mof_N 	N 	0.7765	0.5733	0.4936	-0.096
Mof_N 	N 	0.7271	0.7377	0.2398	-0.127
Mof_O 	O 	0.5529	0.5737	0.4267	-0.684
Mof_O 	O 	0.5703	0.5576	0.6167	-0.638
Mof_O 	O 	0.9473	0.6782	0.271	-0.514
Mof_O 	O 	0.9378	0.8376	0.1659	-0.429
Mof_C 	C 	0.5867	0.5657	0.5172	0.601
Mof_C 	C 	0.7382	0.6243	0.4121	0.014
Mof_C 	C 	0.6764	0.6213	0.417	0.04
Mof_H 	H 	0.651	0.6547	0.3587	-0.008
Mof_C 	C 	0.6533	0.5681	0.5093	-0.2
Mof_C 	C 	0.6928	0.5172	0.5941	0.048
Mof_H 	H 	0.6789	0.4822	0.6581	0.003
Mof_C 	C 	0.7534	0.5202	0.5804	-0.02
Mof_H 	H 	0.7794	0.4828	0.6349	0.057
Mof_C 	C 	0.9163	0.7588	0.2189	0.444
Mof_C 	C 	0.7657	0.6864	0.3213	0.067
Mof_C 	C 	0.8274	0.6912	0.3149	-0.05
Mof_H 	H 	0.8528	0.6524	0.3693	0.087
Mof_C 	C 	0.8507	0.7518	0.2303	-0.065
Mof_C 	C 	0.8109	0.8058	0.1454	-0.042
Mof_H 	H 	0.8251	0.8475	0.0858	0.052
Mof_C 	C 	0.75	0.7944	0.154	0.025
Mof_H 	H 	0.7237	0.8279	0.0973	0.03
Mof_H 	H 	0.9827	0.6873	0.2622	0.386
Mof_N 	N 	0.2765	0.0733	0.4936	-0.105
Mof_N 	N 	0.2271	0.2377	0.2398	-0.127
Mof_O 	O 	0.0529	0.0737	0.4267	-0.644
Mof_O 	O 	0.0703	0.0576	0.6167	-0.594
Mof_O 	O 	0.4473	0.1782	0.271	-0.457
Mof_O 	O 	0.4378	0.3376	0.1659	-0.524
Mof_C 	C 	0.0867	0.0657	0.5172	0.55
Mof_C 	C 	0.2382	0.1243	0.4121	0.022
Mof_C 	C 	0.1764	0.1213	0.417	0.023
Mof_H 	H 	0.151	0.1547	0.3587	0
Mof_C 	C 	0.1533	0.0681	0.5093	-0.174
Mof_C 	C 	0.1928	0.0172	0.5941	0.031
Mof_H 	H 	0.1789	0.9822	0.6581	0.012
Mof_C 	C 	0.2534	0.0202	0.5804	-0.009
Mof_H 	H 	0.2794	0.9828	0.6349	0.046
Mof_C 	C 	0.4163	0.2588	0.2189	0.419
Mof_C 	C 	0.2657	0.1864	0.3213	0.059
Mof_C 	C 	0.3274	0.1912	0.3149	-0.044
Mof_H 	H 	0.3528	0.1524	0.3693	0.068
Mof_C 	C 	0.3507	0.2518	0.2303	-0.078
Mof_C 	C 	0.3109	0.3058	0.1454	-0.038
Mof_H 	H 	0.3251	0.3475	0.0858	0.042
Mof_C 	C 	0.25	0.2944	0.154	0.02
Mof_H 	H 	0.2237	0.3279	0.0973	0.026
Mof_H 	H 	0.4827	0.1873	0.2622	0.197
Mof_N 	N 	0.2235	0.5733	0.0064	-0.105
Mof_N 	N 	0.2729	0.7377	0.2602	-0.127
Mof_O 	O 	0.4471	0.5737	0.0733	-0.683
Mof_O 	O 	0.4297	0.5576	0.8833	-0.638
Mof_O 	O 	0.0527	0.6782	0.229	-0.374
Mof_O 	O 	0.0622	0.8376	0.3341	-0.497
Mof_C 	C 	0.4133	0.5657	0.9828	0.6
Mof_C 	C 	0.2618	0.6243	0.0879	0.013
Mof_C 	C 	0.3236	0.6213	0.083	0.041
Mof_H 	H 	0.349	0.6547	0.1413	-0.008
Mof_C 	C 	0.3467	0.5681	0.9907	-0.201
Mof_C 	C 	0.3072	0.5172	0.9059	0.047
Mof_H 	H 	0.3211	0.4822	0.8419	0.003
Mof_C 	C 	0.2466	0.5202	0.9196	-0.021
Mof_H 	H 	0.2206	0.4828	0.8651	0.046
Mof_C 	C 	0.0837	0.7588	0.2811	0.36
Mof_C 	C 	0.2343	0.6864	0.1787	0.065
Mof_C 	C 	0.1726	0.6912	0.1851	-0.057
Mof_H 	H 	0.1472	0.6524	0.1307	0.062
Mof_C 	C 	0.1493	0.7518	0.2697	-0.06
Mof_C 	C 	0.1891	0.8058	0.3546	-0.05
Mof_H 	H 	0.1749	0.8475	0.4142	0.048
Mof_C 	C 	0.25	0.7944	0.346	0.026
Mof_H 	H 	0.2763	0.8279	0.4027	0.028
Mof_H 	H 	0.0173	0.6873	0.2378	0.012
Mof_N 	N 	0.7235	0.0733	0.0064	-0.111
Mof_N 	N 	0.7729	0.2377	0.2602	-0.118
Mof_O 	O 	0.9471	0.0737	0.0733	-0.533
Mof_O 	O 	0.9297	0.0576	0.8833	-0.509
Mof_O 	O 	0.5527	0.1782	0.229	-0.458
Mof_O 	O 	0.5622	0.3376	0.3341	-0.524
Mof_C 	C 	0.9133	0.0657	0.9828	0.528
Mof_C 	C 	0.7618	0.1243	0.0879	0.032
Mof_C 	C 	0.8236	0.1213	0.083	0.003
Mof_H 	H 	0.849	0.1547	0.1413	0.025
Mof_C 	C 	0.8467	0.0681	0.9907	-0.145
Mof_C 	C 	0.8072	0.0172	0.9059	0.014
Mof_H 	H 	0.8211	0.9822	0.8419	0.022
Mof_C 	C 	0.7466	0.0202	0.9196	0.005
Mof_H 	H 	0.7206	0.9828	0.8651	0.04
Mof_C 	C 	0.5837	0.2588	0.2811	0.42
Mof_C 	C 	0.7343	0.1864	0.1787	0.056
Mof_C 	C 	0.6726	0.1912	0.1851	-0.041
Mof_H 	H 	0.6472	0.1524	0.1307	0.067
Mof_C 	C 	0.6493	0.2518	0.2697	-0.08
Mof_C 	C 	0.6891	0.3058	0.3546	-0.035
Mof_H 	H 	0.6749	0.3475	0.4142	0.041
Mof_C 	C 	0.75	0.2944	0.346	0.019
Mof_H 	H 	0.7763	0.3279	0.4027	0.038
Mof_H 	H 	0.5173	0.1873	0.2378	0.198
Mof_Ce	Ce	0.5	0.49408	0.75	2.652
Mof_Ce	Ce	1.59057e-33	0.99408	0.75	2.166
Mof_Ce	Ce	0.5	0.50592	0.25	2.652
Mof_Ce	Ce	5.30191e-34	0.00592	0.25	2.165
_end
