data_functionalizedCrystal
_audit_creation_method	'EQeq! by Chris Wilmer'
_symmetry_space_group_name_H-M	'P1'
_symmetry_Int_Tables_number	1
_symmetry_cell_setting	triclinic
loop_
_symmetry_equiv_pos_as_xyz
  x,y,z
_cell_length_a	9.697
_cell_length_b	17.5578
_cell_length_c	17.9345
_cell_angle_alpha	90
_cell_angle_beta	90.327
_cell_angle_gamma	90
loop_
_atom_site_label
_atom_site_type_symbol
_atom_site_fract_x
_atom_site_fract_y
_atom_site_fract_z
_atom_site_charge
Mof_U 	U 	0.39866	0.27548	0.21925	-0.006
Mof_U 	U 	0.90375	0.2102	0.43887	-0.024
Mof_Zn	Zn	0.23369	0.0075	0.44257	1.202
Mof_P 	P 	0.2727	0.17122	0.38441	0.364
Mof_P 	P 	0.7738	0.23446	0.24135	0.4
Mof_P 	P 	0.2071	0.15085	0.54754	0.367
Mof_P 	P 	0.7017	0.3355	0.11015	0.382
Mof_O 	O 	0.3641	0.217	0.3332	-0.164
Mof_O 	O 	0.5621	0.2974	0.124	-0.202
Mof_O 	O 	0.623	0.2313	0.2609	-0.171
Mof_O 	O 	0.2672	0.1661	0.6244	-0.178
Mof_O 	O 	0.1206	0.1935	0.3784	-0.199
Mof_O 	O 	0.782	0.294	0.05	-0.193
Mof_O 	O 	0.0655	0.1893	0.5373	-0.199
Mof_O 	O 	0.8691	0.231	0.309	-0.183
Mof_O 	O 	0.8091	0.1726	0.1826	-0.396
Mof_H 	H 	0.8924	0.1726	0.1751	0.273
Mof_O 	O 	0.2967	0.0862	0.3723	-0.399
Mof_O 	O 	0.9503	0.3307	0.1746	-0.342
Mof_H 	H 	0.9674	0.3731	0.1581	0.219
Mof_O 	O 	0.4582	0.1634	0.4919	-0.402
Mof_H 	H 	0.4928	0.1823	0.5294	0.288
Mof_O 	O 	0.1997	0.0667	0.5316	-0.45
Mof_O 	O 	0.6814	0.4194	0.0935	-0.456
Mof_C 	C 	0.3225	0.1958	0.4797	0.159
Mof_C 	C 	0.3227	0.2831	0.4881	-0.71
Mof_H 	H 	0.3541	0.2965	0.5372	0.271
Mof_H 	H 	0.2309	0.3022	0.4805	0.269
Mof_H 	H 	0.3832	0.305	0.4518	0.274
Mof_C 	C 	0.8055	0.327	0.1962	0.134
Mof_C 	C 	0.7802	0.3911	0.2539	-0.64
Mof_H 	H 	0.8489	0.3883	0.2926	0.248
Mof_H 	H 	0.6904	0.385	0.2753	0.246
Mof_H 	H 	0.7858	0.4397	0.2296	0.217
Mof_U 	U 	0.60134	0.77548	0.28075	-0.007
Mof_U 	U 	0.09625	0.7102	0.06113	-0.024
Mof_Zn	Zn	0.76631	0.5075	0.05743	1.201
Mof_P 	P 	0.7273	0.67122	0.11559	0.363
Mof_P 	P 	0.2262	0.73446	0.25865	0.4
Mof_P 	P 	0.7929	0.65085	0.95246	0.368
Mof_P 	P 	0.2983	0.8355	0.38985	0.381
Mof_O 	O 	0.6359	0.717	0.1668	-0.164
Mof_O 	O 	0.4379	0.7974	0.376	-0.202
Mof_O 	O 	0.377	0.7313	0.2391	-0.17
Mof_O 	O 	0.7328	0.6661	0.8756	-0.178
Mof_O 	O 	0.8794	0.6935	0.1216	-0.2
Mof_O 	O 	0.218	0.794	0.45	-0.192
Mof_O 	O 	0.9345	0.6893	0.9627	-0.198
Mof_O 	O 	0.1309	0.731	0.191	-0.182
Mof_O 	O 	0.1909	0.6726	0.3174	-0.396
Mof_H 	H 	0.1076	0.6726	0.3249	0.273
Mof_O 	O 	0.7033	0.5862	0.1277	-0.399
Mof_O 	O 	0.0497	0.8307	0.3254	-0.342
Mof_H 	H 	0.0326	0.8731	0.3419	0.22
Mof_O 	O 	0.5418	0.6634	0.0081	-0.402
Mof_H 	H 	0.5072	0.6823	0.9706	0.288
Mof_O 	O 	0.8003	0.5667	0.9684	-0.45
Mof_O 	O 	0.3186	0.9194	0.4065	-0.455
Mof_C 	C 	0.6775	0.6958	0.0203	0.158
Mof_C 	C 	0.6773	0.7831	0.0119	-0.708
Mof_H 	H 	0.6459	0.7965	0.9628	0.271
Mof_H 	H 	0.7691	0.8022	0.0195	0.268
Mof_H 	H 	0.6168	0.805	0.0482	0.273
Mof_C 	C 	0.1945	0.827	0.3038	0.135
Mof_C 	C 	0.2198	0.8911	0.2461	-0.642
Mof_H 	H 	0.1511	0.8883	0.2074	0.249
Mof_H 	H 	0.3096	0.885	0.2247	0.247
Mof_H 	H 	0.2142	0.9397	0.2704	0.219
Mof_U 	U 	0.60134	0.72452	0.78075	-0.007
Mof_U 	U 	0.09625	0.7898	0.56113	-0.025
Mof_Zn	Zn	0.76631	0.9925	0.55743	1.201
Mof_P 	P 	0.7273	0.82878	0.61559	0.363
Mof_P 	P 	0.2262	0.76554	0.75865	0.4
Mof_P 	P 	0.7929	0.84915	0.45246	0.367
Mof_P 	P 	0.2983	0.6645	0.88985	0.382
Mof_O 	O 	0.6359	0.783	0.6668	-0.164
Mof_O 	O 	0.4379	0.7026	0.876	-0.202
Mof_O 	O 	0.377	0.7687	0.7391	-0.171
Mof_O 	O 	0.7328	0.8339	0.3756	-0.178
Mof_O 	O 	0.8794	0.8065	0.6216	-0.199
Mof_O 	O 	0.218	0.706	0.95	-0.193
Mof_O 	O 	0.9345	0.8107	0.4627	-0.199
Mof_O 	O 	0.1309	0.769	0.691	-0.183
Mof_O 	O 	0.1909	0.8274	0.8174	-0.396
Mof_H 	H 	0.1076	0.8274	0.8249	0.273
Mof_O 	O 	0.7033	0.9138	0.6277	-0.399
Mof_O 	O 	0.0497	0.6693	0.8254	-0.342
Mof_H 	H 	0.0326	0.6269	0.8419	0.219
Mof_O 	O 	0.5418	0.8366	0.5081	-0.402
Mof_H 	H 	0.5072	0.8177	0.4706	0.288
Mof_O 	O 	0.8003	0.9333	0.4684	-0.45
Mof_O 	O 	0.3186	0.5806	0.9065	-0.456
Mof_C 	C 	0.6775	0.8042	0.5203	0.159
Mof_C 	C 	0.6773	0.7169	0.5119	-0.71
Mof_H 	H 	0.6459	0.7035	0.4628	0.271
Mof_H 	H 	0.7691	0.6978	0.5195	0.269
Mof_H 	H 	0.6168	0.695	0.5482	0.274
Mof_C 	C 	0.1945	0.673	0.8038	0.134
Mof_C 	C 	0.2198	0.6089	0.7461	-0.64
Mof_H 	H 	0.1511	0.6117	0.7074	0.248
Mof_H 	H 	0.3096	0.615	0.7247	0.246
Mof_H 	H 	0.2142	0.5603	0.7704	0.217
Mof_U 	U 	0.39866	0.22452	0.71925	-0.007
Mof_U 	U 	0.90375	0.2898	0.93887	-0.024
Mof_Zn	Zn	0.23369	0.4925	0.94257	1.201
Mof_P 	P 	0.2727	0.32878	0.88441	0.363
Mof_P 	P 	0.7738	0.26554	0.74135	0.4
Mof_P 	P 	0.2071	0.34915	0.04754	0.368
Mof_P 	P 	0.7017	0.1645	0.61015	0.381
Mof_O 	O 	0.3641	0.283	0.8332	-0.164
Mof_O 	O 	0.5621	0.2026	0.624	-0.202
Mof_O 	O 	0.623	0.2687	0.7609	-0.17
Mof_O 	O 	0.2672	0.3339	0.1244	-0.178
Mof_O 	O 	0.1206	0.3065	0.8784	-0.2
Mof_O 	O 	0.782	0.206	0.55	-0.192
Mof_O 	O 	0.0655	0.3107	0.0373	-0.198
Mof_O 	O 	0.8691	0.269	0.809	-0.182
Mof_O 	O 	0.8091	0.3274	0.6826	-0.396
Mof_H 	H 	0.8924	0.3274	0.6751	0.273
Mof_O 	O 	0.2967	0.4138	0.8723	-0.399
Mof_O 	O 	0.9503	0.1693	0.6746	-0.342
Mof_H 	H 	0.9674	0.1269	0.6581	0.22
Mof_O 	O 	0.4582	0.3366	0.9919	-0.402
Mof_H 	H 	0.4928	0.3177	0.0294	0.288
Mof_O 	O 	0.1997	0.4333	0.0316	-0.45
Mof_O 	O 	0.6814	0.0806	0.5935	-0.455
Mof_C 	C 	0.3225	0.3042	0.9797	0.158
Mof_C 	C 	0.3227	0.2169	0.9881	-0.708
Mof_H 	H 	0.3541	0.2035	0.0372	0.271
Mof_H 	H 	0.2309	0.1978	0.9805	0.268
Mof_H 	H 	0.3832	0.195	0.9518	0.273
Mof_C 	C 	0.8055	0.173	0.6962	0.135
Mof_C 	C 	0.7802	0.1089	0.7539	-0.642
Mof_H 	H 	0.8489	0.1117	0.7926	0.249
Mof_H 	H 	0.6904	0.115	0.7753	0.247
Mof_H 	H 	0.7858	0.0603	0.7296	0.219
_end
