data_functionalizedCrystal
_audit_creation_method	'EQeq! by Chris Wilmer'
_symmetry_space_group_name_H-M	'P1'
_symmetry_Int_Tables_number	1
_symmetry_cell_setting	triclinic
loop_
_symmetry_equiv_pos_as_xyz
  x,y,z
_cell_length_a	23.215
_cell_length_b	17.112
_cell_length_c	10.343
_cell_angle_alpha	90
_cell_angle_beta	94.529
_cell_angle_gamma	90
loop_
_atom_site_label
_atom_site_type_symbol
_atom_site_fract_x
_atom_site_fract_y
_atom_site_fract_z
_atom_site_charge
Mof_Zn	Zn	0.56617	0.33345	0.22032	1.231
Mof_Zn	Zn	0.95466	0.32323	0.13582	1.232
Mof_Zn	Zn	0.52405	0.66789	0.11824	1.227
Mof_Zn	Zn	0.95281	0.6686	0.15446	1.232
Mof_P 	P 	0.60042	0.26788	0.96952	0.458
Mof_P 	P 	0.92052	0.25443	0.87482	0.472
Mof_P 	P 	0.91127	0.50172	0.027	0.532
Mof_P 	P 	0.59382	0.50852	0.11488	0.497
Mof_P 	P 	0.56229	0.7868	0.34694	0.472
Mof_P 	P 	0.91447	0.77466	0.37084	0.458
Mof_O 	O 	0.59882	0.25484	0.1154	-0.455
Mof_O 	O 	0.58256	0.19205	0.9011	-0.451
Mof_O 	O 	0.56057	0.33599	0.9235	-0.495
Mof_O 	O 	0.92809	0.2394	0.0209	-0.451
Mof_O 	O 	0.96618	0.3096	0.8291	-0.508
Mof_O 	O 	0.92206	0.1758	0.803	-0.43
Mof_O 	O 	0.92302	0.4182	0.0592	-0.457
Mof_O 	O 	0.9443	0.5568	0.1241	-0.436
Mof_O 	O 	0.9267	0.5182	0.8842	-0.441
Mof_H 	H 	0.9169	0.5038	0.8069	0.246
Mof_O 	O 	0.59878	0.43768	0.2029	-0.451
Mof_O 	O 	0.59783	0.4834	0.9711	-0.448
Mof_H 	H 	0.5858	0.4373	0.961	0.261
Mof_O 	O 	0.53932	0.55498	0.1311	-0.431
Mof_O 	O 	0.547	0.70568	0.2909	-0.461
Mof_O 	O 	0.51665	0.84781	0.3002	-0.469
Mof_O 	O 	0.56883	0.78214	0.4941	-0.463
Mof_O 	O 	0.92583	0.6916	0.3236	-0.445
Mof_O 	O 	0.96092	0.8331	0.3305	-0.456
Mof_O 	O 	0.91002	0.7747	0.5156	-0.457
Mof_C 	C 	0.673	0.2908	0.9373	-0.327
Mof_H 	H 	0.6749	0.2965	0.8425	0.124
Mof_H 	H 	0.6837	0.3417	0.9779	0.117
Mof_C 	C 	0.7168	0.2295	0.9874	0.087
Mof_H 	H 	0.71	0.1809	0.9366	0.001
Mof_H 	H 	0.7105	0.2175	0.0789	-0
Mof_C 	C 	0.7796	0.2548	0.9796	-0.146
Mof_H 	H 	0.7852	0.307	0.0199	0.054
Mof_H 	H 	0.8053	0.2175	0.0294	0.06
Mof_C 	C 	0.7964	0.2583	0.8398	0.06
Mof_H 	H 	0.7651	0.2843	0.7853	-0.01
Mof_H 	H 	0.8003	0.2044	0.807	0.002
Mof_C 	C 	0.8531	0.3022	0.8262	-0.443
Mof_H 	H 	0.8516	0.3512	0.8767	0.106
Mof_H 	H 	0.8541	0.3172	0.7339	0.07
Mof_C 	C 	0.8352	0.521	0.0307	-0.401
Mof_H 	H 	0.8247	0.569	0.981	0.061
Mof_H 	H 	0.8125	0.477	0.9906	0.102
Mof_C 	C 	0.821	0.5313	0.1742	0.092
Mof_H 	H 	0.8212	0.4794	0.2166	0.013
Mof_H 	H 	0.8515	0.5634	0.2205	0.002
Mof_C 	C 	0.7617	0.5705	0.1862	-0.192
Mof_H 	H 	0.7565	0.5791	0.2792	0.078
Mof_H 	H 	0.7618	0.6223	0.1437	0.048
Mof_C 	C 	0.7108	0.5239	0.127	0.025
Mof_H 	H 	0.7099	0.4715	0.1677	0.092
Mof_H 	H 	0.7139	0.517	0.0327	0.02
Mof_C 	C 	0.6549	0.57	0.1513	-0.335
Mof_H 	H 	0.6519	0.6171	0.0956	-0.038
Mof_H 	H 	0.6562	0.587	0.243	0.071
Mof_C 	C 	0.629	0.8197	0.2889	-0.332
Mof_H 	H 	0.6259	0.8155	0.1932	0.125
Mof_H 	H 	0.634	0.8757	0.3111	0.141
Mof_C 	C 	0.6836	0.7754	0.3421	0.093
Mof_H 	H 	0.688	0.7807	0.4377	0.001
Mof_H 	H 	0.6791	0.7192	0.3212	-0.005
Mof_C 	C 	0.7374	0.8062	0.2856	-0.252
Mof_H 	H 	0.739	0.8635	0.2976	0.094
Mof_H 	H 	0.7343	0.7956	0.1912	0.094
Mof_C 	C 	0.7933	0.7709	0.3452	0.083
Mof_H 	H 	0.7931	0.714	0.3278	0.002
Mof_H 	H 	0.7954	0.7783	0.4404	0.002
Mof_C 	C 	0.8469	0.8075	0.292	-0.318
Mof_H 	H 	0.8446	0.865	0.3009	0.121
Mof_H 	H 	0.8464	0.7954	0.1983	0.118
Mof_H 	H 	0.6978	0.1777	0.989	0.004
Mof_H 	H 	0.7317	0.2427	0.0771	0.001
Mof_C 	C 	0.7674	0.2262	0.899	-0.134
Mof_H 	H 	0.7923	0.1806	0.923	0.066
Mof_H 	H 	0.7521	0.22	0.8076	0.045
Mof_C 	C 	0.8031	0.301	0.914	0.085
Mof_H 	H 	0.7777	0.3469	0.8932	-0.019
Mof_H 	H 	0.8188	0.3067	0.0057	-0.023
Mof_H 	H 	0.862	0.3576	0.809	0.077
Mof_H 	H 	0.8384	0.279	0.7423	0.105
Mof_H 	H 	0.8288	0.5782	0.033	0.085
Mof_H 	H 	0.8145	0.5005	0.9504	0.049
Mof_C 	C 	0.8098	0.483	0.1499	0.073
Mof_H 	H 	0.8227	0.4279	0.1545	0.001
Mof_H 	H 	0.8272	0.5095	0.2286	-0.043
Mof_C 	C 	0.7444	0.4838	0.156	-0.303
Mof_H 	H 	0.7274	0.4401	0.1031	0.074
Mof_H 	H 	0.7354	0.4749	0.2469	0.087
Mof_C 	C 	0.7162	0.5599	0.108	0.127
Mof_H 	H 	0.7145	0.5612	0.012	-0.024
Mof_H 	H 	0.7404	0.6044	0.141	0.019
Mof_H 	H 	0.6424	0.6228	0.1213	0.143
Mof_H 	H 	0.6596	0.5729	0.2472	0.035
Mof_Zn	Zn	0.43383	0.83345	0.27968	1.23
Mof_Zn	Zn	0.04534	0.82323	0.36418	1.231
Mof_Zn	Zn	0.47595	0.16789	0.38176	1.227
Mof_Zn	Zn	0.04719	0.1686	0.34554	1.231
Mof_P 	P 	0.39958	0.76788	0.53048	0.457
Mof_P 	P 	0.07948	0.75443	0.62518	0.471
Mof_P 	P 	0.08873	0.00172	0.473	0.532
Mof_P 	P 	0.40618	0.00852	0.38512	0.497
Mof_P 	P 	0.43771	0.2868	0.15306	0.472
Mof_P 	P 	0.08553	0.27466	0.12916	0.459
Mof_O 	O 	0.40118	0.75484	0.3846	-0.455
Mof_O 	O 	0.41744	0.69205	0.5989	-0.451
Mof_O 	O 	0.43943	0.83599	0.5765	-0.495
Mof_O 	O 	0.07191	0.7394	0.4791	-0.451
Mof_O 	O 	0.03382	0.8096	0.6709	-0.508
Mof_O 	O 	0.07794	0.6758	0.697	-0.43
Mof_O 	O 	0.07698	0.9182	0.4408	-0.456
Mof_O 	O 	0.0557	0.0568	0.3759	-0.436
Mof_O 	O 	0.0733	0.0182	0.6158	-0.441
Mof_H 	H 	0.0831	0.0038	0.6931	0.246
Mof_O 	O 	0.40122	0.93768	0.2971	-0.451
Mof_O 	O 	0.40217	0.9834	0.5289	-0.448
Mof_H 	H 	0.4142	0.9373	0.539	0.261
Mof_O 	O 	0.46068	0.05498	0.3689	-0.431
Mof_O 	O 	0.453	0.20568	0.2091	-0.461
Mof_O 	O 	0.48335	0.34781	0.1998	-0.469
Mof_O 	O 	0.43117	0.28214	0.0059	-0.463
Mof_O 	O 	0.07417	0.1916	0.1764	-0.445
Mof_O 	O 	0.03908	0.3331	0.1695	-0.456
Mof_O 	O 	0.08998	0.2747	0.9844	-0.458
Mof_C 	C 	0.327	0.7908	0.5627	-0.328
Mof_H 	H 	0.3251	0.7965	0.6575	0.124
Mof_H 	H 	0.3163	0.8417	0.5221	0.117
Mof_C 	C 	0.2832	0.7295	0.5126	0.088
Mof_H 	H 	0.29	0.6809	0.5634	0.001
Mof_H 	H 	0.2895	0.7175	0.4211	-0
Mof_C 	C 	0.2204	0.7548	0.5204	-0.147
Mof_H 	H 	0.2148	0.807	0.4801	0.054
Mof_H 	H 	0.1947	0.7175	0.4706	0.06
Mof_C 	C 	0.2036	0.7583	0.6602	0.06
Mof_H 	H 	0.2349	0.7843	0.7147	-0.01
Mof_H 	H 	0.1997	0.7044	0.693	0.002
Mof_C 	C 	0.1469	0.8022	0.6738	-0.443
Mof_H 	H 	0.1484	0.8512	0.6233	0.106
Mof_H 	H 	0.1459	0.8172	0.7661	0.07
Mof_C 	C 	0.1648	0.021	0.4693	-0.4
Mof_H 	H 	0.1753	0.069	0.519	0.059
Mof_H 	H 	0.1875	0.977	0.5094	0.102
Mof_C 	C 	0.179	0.0313	0.3258	0.092
Mof_H 	H 	0.1788	0.9794	0.2834	0.013
Mof_H 	H 	0.1485	0.0634	0.2795	0.002
Mof_C 	C 	0.2383	0.0705	0.3138	-0.192
Mof_H 	H 	0.2435	0.0791	0.2208	0.078
Mof_H 	H 	0.2382	0.1223	0.3563	0.048
Mof_C 	C 	0.2892	0.0239	0.373	0.025
Mof_H 	H 	0.2901	0.9715	0.3323	0.091
Mof_H 	H 	0.2861	0.017	0.4673	0.02
Mof_C 	C 	0.3451	0.07	0.3487	-0.335
Mof_H 	H 	0.3481	0.1171	0.4044	-0.039
Mof_H 	H 	0.3438	0.087	0.257	0.071
Mof_C 	C 	0.371	0.3197	0.2111	-0.332
Mof_H 	H 	0.3741	0.3155	0.3068	0.126
Mof_H 	H 	0.366	0.3757	0.1889	0.141
Mof_C 	C 	0.3164	0.2754	0.1579	0.093
Mof_H 	H 	0.312	0.2807	0.0623	0.001
Mof_H 	H 	0.3209	0.2192	0.1788	-0.005
Mof_C 	C 	0.2626	0.3062	0.2144	-0.253
Mof_H 	H 	0.261	0.3635	0.2024	0.095
Mof_H 	H 	0.2657	0.2956	0.3088	0.095
Mof_C 	C 	0.2067	0.2709	0.1548	0.084
Mof_H 	H 	0.2069	0.214	0.1722	0.002
Mof_H 	H 	0.2046	0.2783	0.0596	0.002
Mof_C 	C 	0.1531	0.3075	0.208	-0.318
Mof_H 	H 	0.1554	0.365	0.1991	0.122
Mof_H 	H 	0.1536	0.2954	0.3017	0.118
Mof_H 	H 	0.3022	0.6777	0.511	0.005
Mof_H 	H 	0.2683	0.7427	0.4229	0.001
Mof_C 	C 	0.2326	0.7262	0.601	-0.134
Mof_H 	H 	0.2077	0.6806	0.577	0.066
Mof_H 	H 	0.2479	0.72	0.6924	0.045
Mof_C 	C 	0.1969	0.801	0.586	0.085
Mof_H 	H 	0.2223	0.8469	0.6068	-0.019
Mof_H 	H 	0.1812	0.8067	0.4943	-0.023
Mof_H 	H 	0.138	0.8576	0.691	0.077
Mof_H 	H 	0.1616	0.779	0.7577	0.105
Mof_H 	H 	0.1712	0.0782	0.467	0.086
Mof_H 	H 	0.1855	0.0005	0.5496	0.048
Mof_C 	C 	0.1902	0.983	0.3501	0.073
Mof_H 	H 	0.1773	0.9279	0.3455	0.001
Mof_H 	H 	0.1728	0.0095	0.2714	-0.043
Mof_C 	C 	0.2556	0.9838	0.344	-0.302
Mof_H 	H 	0.2726	0.9401	0.3969	0.073
Mof_H 	H 	0.2646	0.9749	0.2531	0.087
Mof_C 	C 	0.2838	0.0599	0.392	0.126
Mof_H 	H 	0.2855	0.0612	0.488	-0.024
Mof_H 	H 	0.2596	0.1044	0.359	0.02
Mof_H 	H 	0.3576	0.1228	0.3787	0.143
Mof_H 	H 	0.3404	0.0729	0.2528	0.035
Mof_Zn	Zn	0.43383	0.66655	0.77968	1.23
Mof_Zn	Zn	0.04534	0.67677	0.86418	1.231
Mof_Zn	Zn	0.47595	0.33211	0.88176	1.226
Mof_Zn	Zn	0.04719	0.3314	0.84554	1.231
Mof_P 	P 	0.39958	0.73212	0.03048	0.457
Mof_P 	P 	0.07948	0.74557	0.12518	0.471
Mof_P 	P 	0.08873	0.49828	0.973	0.532
Mof_P 	P 	0.40618	0.49148	0.88512	0.497
Mof_P 	P 	0.43771	0.2132	0.65306	0.472
Mof_P 	P 	0.08553	0.22534	0.62916	0.458
Mof_O 	O 	0.40118	0.74516	0.8846	-0.455
Mof_O 	O 	0.41744	0.80795	0.0989	-0.451
Mof_O 	O 	0.43943	0.66401	0.0765	-0.495
Mof_O 	O 	0.07191	0.7606	0.9791	-0.451
Mof_O 	O 	0.03382	0.6904	0.1709	-0.508
Mof_O 	O 	0.07794	0.8242	0.197	-0.43
Mof_O 	O 	0.07698	0.5818	0.9408	-0.457
Mof_O 	O 	0.0557	0.4432	0.8759	-0.436
Mof_O 	O 	0.0733	0.4818	0.1158	-0.441
Mof_H 	H 	0.0831	0.4962	0.1931	0.246
Mof_O 	O 	0.40122	0.56232	0.7971	-0.451
Mof_O 	O 	0.40217	0.5166	0.0289	-0.448
Mof_H 	H 	0.4142	0.5627	0.039	0.261
Mof_O 	O 	0.46068	0.44502	0.8689	-0.431
Mof_O 	O 	0.453	0.29432	0.7091	-0.461
Mof_O 	O 	0.48335	0.15219	0.6998	-0.469
Mof_O 	O 	0.43117	0.21786	0.5059	-0.463
Mof_O 	O 	0.07417	0.3084	0.6764	-0.445
Mof_O 	O 	0.03908	0.1669	0.6695	-0.456
Mof_O 	O 	0.08998	0.2253	0.4844	-0.457
Mof_C 	C 	0.327	0.7092	0.0627	-0.327
Mof_H 	H 	0.3251	0.7035	0.1575	0.124
Mof_H 	H 	0.3163	0.6583	0.0221	0.117
Mof_C 	C 	0.2832	0.7705	0.0126	0.087
Mof_H 	H 	0.29	0.8191	0.0634	0.001
Mof_H 	H 	0.2895	0.7825	0.9211	-0
Mof_C 	C 	0.2204	0.7452	0.0204	-0.146
Mof_H 	H 	0.2148	0.693	0.9801	0.054
Mof_H 	H 	0.1947	0.7825	0.9706	0.06
Mof_C 	C 	0.2036	0.7417	0.1602	0.06
Mof_H 	H 	0.2349	0.7157	0.2147	-0.01
Mof_H 	H 	0.1997	0.7956	0.193	0.002
Mof_C 	C 	0.1469	0.6978	0.1738	-0.443
Mof_H 	H 	0.1484	0.6488	0.1233	0.106
Mof_H 	H 	0.1459	0.6828	0.2661	0.07
Mof_C 	C 	0.1648	0.479	0.9693	-0.401
Mof_H 	H 	0.1753	0.431	0.019	0.061
Mof_H 	H 	0.1875	0.523	0.0094	0.102
Mof_C 	C 	0.179	0.4687	0.8258	0.092
Mof_H 	H 	0.1788	0.5206	0.7834	0.013
Mof_H 	H 	0.1485	0.4366	0.7795	0.002
Mof_C 	C 	0.2383	0.4295	0.8138	-0.192
Mof_H 	H 	0.2435	0.4209	0.7208	0.078
Mof_H 	H 	0.2382	0.3777	0.8563	0.048
Mof_C 	C 	0.2892	0.4761	0.873	0.025
Mof_H 	H 	0.2901	0.5285	0.8323	0.092
Mof_H 	H 	0.2861	0.483	0.9673	0.02
Mof_C 	C 	0.3451	0.43	0.8487	-0.335
Mof_H 	H 	0.3481	0.3829	0.9044	-0.038
Mof_H 	H 	0.3438	0.413	0.757	0.071
Mof_C 	C 	0.371	0.1803	0.7111	-0.332
Mof_H 	H 	0.3741	0.1845	0.8068	0.125
Mof_H 	H 	0.366	0.1243	0.6889	0.141
Mof_C 	C 	0.3164	0.2246	0.6579	0.093
Mof_H 	H 	0.312	0.2193	0.5623	0.001
Mof_H 	H 	0.3209	0.2808	0.6788	-0.005
Mof_C 	C 	0.2626	0.1938	0.7144	-0.252
Mof_H 	H 	0.261	0.1365	0.7024	0.094
Mof_H 	H 	0.2657	0.2044	0.8088	0.094
Mof_C 	C 	0.2067	0.2291	0.6548	0.083
Mof_H 	H 	0.2069	0.286	0.6722	0.002
Mof_H 	H 	0.2046	0.2217	0.5596	0.002
Mof_C 	C 	0.1531	0.1925	0.708	-0.318
Mof_H 	H 	0.1554	0.135	0.6991	0.121
Mof_H 	H 	0.1536	0.2046	0.8017	0.118
Mof_H 	H 	0.3022	0.8223	0.011	0.004
Mof_H 	H 	0.2683	0.7573	0.9229	0.001
Mof_C 	C 	0.2326	0.7738	0.101	-0.134
Mof_H 	H 	0.2077	0.8194	0.077	0.066
Mof_H 	H 	0.2479	0.78	0.1924	0.045
Mof_C 	C 	0.1969	0.699	0.086	0.085
Mof_H 	H 	0.2223	0.6531	0.1068	-0.019
Mof_H 	H 	0.1812	0.6933	0.9943	-0.023
Mof_H 	H 	0.138	0.6424	0.191	0.077
Mof_H 	H 	0.1616	0.721	0.2577	0.105
Mof_H 	H 	0.1712	0.4218	0.967	0.085
Mof_H 	H 	0.1855	0.4995	0.0496	0.049
Mof_C 	C 	0.1902	0.517	0.8501	0.073
Mof_H 	H 	0.1773	0.5721	0.8455	0.001
Mof_H 	H 	0.1728	0.4905	0.7714	-0.043
Mof_C 	C 	0.2556	0.5162	0.844	-0.303
Mof_H 	H 	0.2726	0.5599	0.8969	0.074
Mof_H 	H 	0.2646	0.5251	0.7531	0.087
Mof_C 	C 	0.2838	0.4401	0.892	0.127
Mof_H 	H 	0.2855	0.4388	0.988	-0.024
Mof_H 	H 	0.2596	0.3956	0.859	0.019
Mof_H 	H 	0.3576	0.3772	0.8787	0.143
Mof_H 	H 	0.3404	0.4271	0.7528	0.035
Mof_Zn	Zn	0.56617	0.16655	0.72032	1.23
Mof_Zn	Zn	0.95466	0.17677	0.63582	1.231
Mof_Zn	Zn	0.52405	0.83211	0.61824	1.227
Mof_Zn	Zn	0.95281	0.8314	0.65446	1.231
Mof_P 	P 	0.60042	0.23212	0.46952	0.457
Mof_P 	P 	0.92052	0.24557	0.37482	0.471
Mof_P 	P 	0.91127	0.99828	0.527	0.532
Mof_P 	P 	0.59382	0.99148	0.61488	0.497
Mof_P 	P 	0.56229	0.7132	0.84694	0.472
Mof_P 	P 	0.91447	0.72534	0.87084	0.459
Mof_O 	O 	0.59882	0.24516	0.6154	-0.455
Mof_O 	O 	0.58256	0.30795	0.4011	-0.451
Mof_O 	O 	0.56057	0.16401	0.4235	-0.495
Mof_O 	O 	0.92809	0.2606	0.5209	-0.451
Mof_O 	O 	0.96618	0.1904	0.3291	-0.508
Mof_O 	O 	0.92206	0.3242	0.303	-0.43
Mof_O 	O 	0.92302	0.0818	0.5592	-0.456
Mof_O 	O 	0.9443	0.9432	0.6241	-0.436
Mof_O 	O 	0.9267	0.9818	0.3842	-0.441
Mof_H 	H 	0.9169	0.9962	0.3069	0.246
Mof_O 	O 	0.59878	0.06232	0.7029	-0.451
Mof_O 	O 	0.59783	0.0166	0.4711	-0.448
Mof_H 	H 	0.5858	0.0627	0.461	0.261
Mof_O 	O 	0.53932	0.94502	0.6311	-0.431
Mof_O 	O 	0.547	0.79432	0.7909	-0.461
Mof_O 	O 	0.51665	0.65219	0.8002	-0.469
Mof_O 	O 	0.56883	0.71786	0.9941	-0.463
Mof_O 	O 	0.92583	0.8084	0.8236	-0.445
Mof_O 	O 	0.96092	0.6669	0.8305	-0.456
Mof_O 	O 	0.91002	0.7253	0.0156	-0.458
Mof_C 	C 	0.673	0.2092	0.4373	-0.328
Mof_H 	H 	0.6749	0.2035	0.3425	0.124
Mof_H 	H 	0.6837	0.1583	0.4779	0.117
Mof_C 	C 	0.7168	0.2705	0.4874	0.088
Mof_H 	H 	0.71	0.3191	0.4366	0.001
Mof_H 	H 	0.7105	0.2825	0.5789	-0
Mof_C 	C 	0.7796	0.2452	0.4796	-0.147
Mof_H 	H 	0.7852	0.193	0.5199	0.054
Mof_H 	H 	0.8053	0.2825	0.5294	0.06
Mof_C 	C 	0.7964	0.2417	0.3398	0.06
Mof_H 	H 	0.7651	0.2157	0.2853	-0.01
Mof_H 	H 	0.8003	0.2956	0.307	0.002
Mof_C 	C 	0.8531	0.1978	0.3262	-0.443
Mof_H 	H 	0.8516	0.1488	0.3767	0.106
Mof_H 	H 	0.8541	0.1828	0.2339	0.07
Mof_C 	C 	0.8352	0.979	0.5307	-0.4
Mof_H 	H 	0.8247	0.931	0.481	0.059
Mof_H 	H 	0.8125	0.023	0.4906	0.102
Mof_C 	C 	0.821	0.9687	0.6742	0.092
Mof_H 	H 	0.8212	0.0206	0.7166	0.013
Mof_H 	H 	0.8515	0.9366	0.7205	0.002
Mof_C 	C 	0.7617	0.9295	0.6862	-0.192
Mof_H 	H 	0.7565	0.9209	0.7792	0.078
Mof_H 	H 	0.7618	0.8777	0.6437	0.048
Mof_C 	C 	0.7108	0.9761	0.627	0.025
Mof_H 	H 	0.7099	0.0285	0.6677	0.091
Mof_H 	H 	0.7139	0.983	0.5327	0.02
Mof_C 	C 	0.6549	0.93	0.6513	-0.335
Mof_H 	H 	0.6519	0.8829	0.5956	-0.039
Mof_H 	H 	0.6562	0.913	0.743	0.071
Mof_C 	C 	0.629	0.6803	0.7889	-0.332
Mof_H 	H 	0.6259	0.6845	0.6932	0.126
Mof_H 	H 	0.634	0.6243	0.8111	0.141
Mof_C 	C 	0.6836	0.7246	0.8421	0.093
Mof_H 	H 	0.688	0.7193	0.9377	0.001
Mof_H 	H 	0.6791	0.7808	0.8212	-0.005
Mof_C 	C 	0.7374	0.6938	0.7856	-0.253
Mof_H 	H 	0.739	0.6365	0.7976	0.095
Mof_H 	H 	0.7343	0.7044	0.6912	0.095
Mof_C 	C 	0.7933	0.7291	0.8452	0.084
Mof_H 	H 	0.7931	0.786	0.8278	0.002
Mof_H 	H 	0.7954	0.7217	0.9404	0.002
Mof_C 	C 	0.8469	0.6925	0.792	-0.318
Mof_H 	H 	0.8446	0.635	0.8009	0.122
Mof_H 	H 	0.8464	0.7046	0.6983	0.118
Mof_H 	H 	0.6978	0.3223	0.489	0.005
Mof_H 	H 	0.7317	0.2573	0.5771	0.001
Mof_C 	C 	0.7674	0.2738	0.399	-0.134
Mof_H 	H 	0.7923	0.3194	0.423	0.066
Mof_H 	H 	0.7521	0.28	0.3076	0.045
Mof_C 	C 	0.8031	0.199	0.414	0.085
Mof_H 	H 	0.7777	0.1531	0.3932	-0.019
Mof_H 	H 	0.8188	0.1933	0.5057	-0.023
Mof_H 	H 	0.862	0.1424	0.309	0.077
Mof_H 	H 	0.8384	0.221	0.2423	0.105
Mof_H 	H 	0.8288	0.9218	0.533	0.086
Mof_H 	H 	0.8145	0.9995	0.4504	0.048
Mof_C 	C 	0.8098	0.017	0.6499	0.073
Mof_H 	H 	0.8227	0.0721	0.6545	0.001
Mof_H 	H 	0.8272	0.9905	0.7286	-0.043
Mof_C 	C 	0.7444	0.0162	0.656	-0.302
Mof_H 	H 	0.7274	0.0599	0.6031	0.073
Mof_H 	H 	0.7354	0.0251	0.7469	0.087
Mof_C 	C 	0.7162	0.9401	0.608	0.126
Mof_H 	H 	0.7145	0.9388	0.512	-0.024
Mof_H 	H 	0.7404	0.8956	0.641	0.02
Mof_H 	H 	0.6424	0.8772	0.6213	0.143
Mof_H 	H 	0.6596	0.9271	0.7472	0.035
_end
