data_functionalizedCrystal
_audit_creation_method	'EQeq! by Chris Wilmer'
_symmetry_space_group_name_H-M	'P1'
_symmetry_Int_Tables_number	1
_symmetry_cell_setting	triclinic
loop_
_symmetry_equiv_pos_as_xyz
  x,y,z
_cell_length_a	56.792
_cell_length_b	14.331
_cell_length_c	32.17
_cell_angle_alpha	90
_cell_angle_beta	90
_cell_angle_gamma	90
loop_
_atom_site_label
_atom_site_type_symbol
_atom_site_fract_x
_atom_site_fract_y
_atom_site_fract_z
_atom_site_charge
Mof_Cu	Cu	0.40614	0.8821	0.48232	0.856
Mof_O 	O 	0.32916	0.6073	0.6061	-0.272
Mof_O 	O 	0.26777	0.4122	0.6757	-0.184
Mof_O 	O 	0.30319	0.1535	0.5246	-0.218
Mof_N 	N 	0.38277	0.7889	0.5051	-0.23
Mof_N 	N 	0.18439	0.2801	0.71239	-0.269
Mof_N 	N 	0.38476	0.9842	0.4985	-0.236
Mof_N 	N 	0.33815	0.5681	0.541	-0.243
Mof_H 	H 	0.3356	0.5218	0.5236	0.126
Mof_N 	N 	0.24391	0.3184	0.6286	-0.23
Mof_H 	H 	0.2431	0.2834	0.6062	0.129
Mof_N 	N 	0.34089	0.2049	0.5401	-0.234
Mof_H 	H 	0.3489	0.2505	0.5518	0.126
Mof_C 	C 	0.37283	0.7859	0.545	0.071
Mof_H 	H 	0.3763	0.8341	0.5643	-0.004
Mof_C 	C 	0.35779	0.7126	0.5568	-0.153
Mof_H 	H 	0.3515	0.7076	0.5841	0.113
Mof_C 	C 	0.35254	0.6452	0.5245	0.135
Mof_C 	C 	0.36114	0.6412	0.4791	-0.14
Mof_H 	H 	0.3571	0.5975	0.4581	0.076
Mof_C 	C 	0.37726	0.7222	0.4761	0.053
Mof_H 	H 	0.385	0.729	0.4501	-0.021
Mof_C 	C 	0.32843	0.5585	0.5788	0.267
Mof_C 	C 	0.18794	0.2488	0.678	0.137
Mof_H 	H 	0.1748	0.213	0.6691	-0.027
Mof_C 	C 	0.20719	0.2494	0.6444	-0.187
Mof_H 	H 	0.2073	0.2151	0.6192	0.102
Mof_C 	C 	0.22499	0.3126	0.6591	0.193
Mof_C 	C 	0.22248	0.3599	0.695	-0.211
Mof_H 	H 	0.2341	0.4048	0.7023	0.136
Mof_C 	C 	0.20456	0.3464	0.7207	0.096
Mof_H 	H 	0.2044	0.3806	0.746	-0.008
Mof_C 	C 	0.2624	0.375	0.6335	0.152
Mof_C 	C 	0.39234	0.0575	0.5269	0.06
Mof_H 	H 	0.4081	0.0547	0.5368	-0.004
Mof_C 	C 	0.3787	0.1298	0.5404	-0.156
Mof_H 	H 	0.3842	0.1774	0.5584	0.085
Mof_C 	C 	0.3544	0.1261	0.5238	0.149
Mof_C 	C 	0.34517	0.0563	0.496	-0.165
Mof_H 	H 	0.3295	0.0578	0.4859	0.108
Mof_C 	C 	0.36077	0.988	0.4855	0.072
Mof_H 	H 	0.3552	0.939	0.4681	-0.011
Mof_C 	C 	0.31751	0.2136	0.5388	0.208
Mof_C 	C 	0.31441	0.4626	0.5791	-0.049
Mof_C 	C 	0.296	0.4619	0.6074	-0.025
Mof_H 	H 	0.2926	0.512	0.6258	0.065
Mof_C 	C 	0.28302	0.379	0.6059	-0.022
Mof_C 	C 	0.28994	0.2971	0.588	-0.027
Mof_H 	H 	0.2824	0.2399	0.5948	0.051
Mof_C 	C 	0.30882	0.2999	0.559	-0.044
Mof_C 	C 	0.32192	0.3851	0.5544	-0.025
Mof_H 	H 	0.3349	0.3898	0.5359	0.03
Mof_O 	O 	0.07793	0.4578	0.6183	-0.223
Mof_O 	O 	0.00294	0.6216	0.5932	-0.227
Mof_O 	O 	0.01226	0.1458	0.5368	-0.253
Mof_N 	N 	0.13618	0.2668	0.70681	-0.252
Mof_N 	N 	0.93002	0.7799	0.5234	-0.258
Mof_N 	N 	0.93086	0.9778	0.5336	-0.246
Mof_N 	N 	0.07633	0.3053	0.6295	-0.261
Mof_H 	H 	0.0685	0.2537	0.6241	0.124
Mof_N 	N 	0.97714	0.5569	0.5463	-0.247
Mof_H 	H 	0.9747	0.5087	0.5299	0.129
Mof_N 	N 	0.97747	0.2	0.5608	-0.246
Mof_H 	H 	0.971	0.2484	0.5731	0.127
Mof_C 	C 	0.13318	0.3417	0.6832	0.14
Mof_H 	H 	0.1446	0.3896	0.686	-0.02
Mof_C 	C 	0.11578	0.3579	0.6555	-0.224
Mof_H 	H 	0.1159	0.4119	0.6384	0.133
Mof_C 	C 	0.09745	0.2925	0.6528	0.211
Mof_C 	C 	0.09988	0.2143	0.6757	-0.211
Mof_H 	H 	0.0883	0.1669	0.6723	0.098
Mof_C 	C 	0.11754	0.1977	0.7034	0.088
Mof_H 	H 	0.1177	0.1428	0.7199	-0.016
Mof_C 	C 	0.06709	0.3785	0.6155	0.229
Mof_C 	C 	0.93214	0.7094	0.5	0.155
Mof_H 	H 	0.9233	0.7076	0.475	-0.032
Mof_C 	C 	0.94654	0.636	0.509	-0.224
Mof_H 	H 	0.9464	0.5834	0.4909	0.112
Mof_C 	C 	0.96145	0.6347	0.5436	0.196
Mof_C 	C 	0.96007	0.7117	0.571	-0.183
Mof_H 	H 	0.9696	0.7166	0.5952	0.115
Mof_C 	C 	0.94328	0.7818	0.5594	0.086
Mof_H 	H 	0.9411	0.833	0.5778	-0.017
Mof_C 	C 	0.99552	0.5539	0.5729	0.222
Mof_C 	C 	0.92493	0.0463	0.5585	0.118
Mof_H 	H 	0.9094	0.0458	0.5695	-0.033
Mof_C 	C 	0.93931	0.1185	0.5697	-0.201
Mof_H 	H 	0.9347	0.1631	0.59	0.096
Mof_C 	C 	0.96162	0.1232	0.5493	0.178
Mof_C 	C 	0.969	0.0545	0.5229	-0.173
Mof_H 	H 	0.9845	0.0538	0.5117	0.119
Mof_C 	C 	0.95126	0.9803	0.5128	0.079
Mof_H 	H 	0.9545	0.9355	0.4918	0.006
Mof_C 	C 	0.00092	0.2036	0.5543	0.252
Mof_C 	C 	0.04291	0.3791	0.5974	-0.073
Mof_C 	C 	0.03049	0.4616	0.5948	0.005
Mof_H 	H 	0.0368	0.5169	0.6068	0.058
Mof_C 	C 	0.00873	0.4645	0.5744	-0.071
Mof_C 	C 	0.99825	0.3793	0.5642	0.007
Mof_H 	H 	0.9822	0.3784	0.5562	0.021
Mof_C 	C 	0.01084	0.2948	0.5654	-0.081
Mof_C 	C 	0.0318	0.2917	0.5852	0.008
Mof_H 	H 	0.0392	0.2337	0.5909	0.026
Mof_Cu	Cu	0.40614	0.6179	0.01768	0.855
Mof_O 	O 	0.32916	0.8927	0.8939	-0.273
Mof_O 	O 	0.26777	0.0878	0.8243	-0.185
Mof_O 	O 	0.30319	0.3465	0.9754	-0.219
Mof_N 	N 	0.38277	0.7111	0.9949	-0.229
Mof_N 	N 	0.18439	0.2199	0.78761	-0.269
Mof_N 	N 	0.38476	0.5158	0.0015	-0.237
Mof_N 	N 	0.33815	0.9319	0.959	-0.243
Mof_H 	H 	0.3356	0.9782	0.9764	0.126
Mof_N 	N 	0.24391	0.1816	0.8714	-0.23
Mof_H 	H 	0.2431	0.2166	0.8938	0.129
Mof_N 	N 	0.34089	0.2951	0.9599	-0.235
Mof_H 	H 	0.3489	0.2495	0.9482	0.126
Mof_C 	C 	0.37283	0.7141	0.955	0.071
Mof_H 	H 	0.3763	0.6659	0.9357	-0.004
Mof_C 	C 	0.35779	0.7874	0.9432	-0.153
Mof_H 	H 	0.3515	0.7924	0.9159	0.113
Mof_C 	C 	0.35254	0.8548	0.9755	0.137
Mof_C 	C 	0.36114	0.8588	0.0209	-0.142
Mof_H 	H 	0.3571	0.9025	0.0419	0.076
Mof_C 	C 	0.37726	0.7778	0.0239	0.051
Mof_H 	H 	0.385	0.771	0.0499	-0.02
Mof_C 	C 	0.32843	0.9415	0.9212	0.267
Mof_C 	C 	0.18794	0.2512	0.822	0.137
Mof_H 	H 	0.1748	0.287	0.8309	-0.027
Mof_C 	C 	0.20719	0.2506	0.8556	-0.187
Mof_H 	H 	0.2073	0.2849	0.8808	0.102
Mof_C 	C 	0.22499	0.1874	0.8409	0.193
Mof_C 	C 	0.22248	0.1401	0.805	-0.211
Mof_H 	H 	0.2341	0.0952	0.7977	0.136
Mof_C 	C 	0.20456	0.1536	0.7793	0.096
Mof_H 	H 	0.2044	0.1194	0.754	-0.008
Mof_C 	C 	0.2624	0.125	0.8665	0.152
Mof_C 	C 	0.39234	0.4425	0.9731	0.062
Mof_H 	H 	0.4081	0.4453	0.9632	-0.004
Mof_C 	C 	0.3787	0.3702	0.9596	-0.158
Mof_H 	H 	0.3842	0.3226	0.9416	0.086
Mof_C 	C 	0.3544	0.3739	0.9762	0.152
Mof_C 	C 	0.34517	0.4437	0.004	-0.169
Mof_H 	H 	0.3295	0.4422	0.0141	0.108
Mof_C 	C 	0.36077	0.512	0.0145	0.073
Mof_H 	H 	0.3552	0.561	0.0319	-0.011
Mof_C 	C 	0.31751	0.2864	0.9612	0.208
Mof_C 	C 	0.31441	0.0374	0.9209	-0.049
Mof_C 	C 	0.296	0.0381	0.8926	-0.025
Mof_H 	H 	0.2926	0.988	0.8742	0.065
Mof_C 	C 	0.28302	0.121	0.8941	-0.022
Mof_C 	C 	0.28994	0.2029	0.912	-0.027
Mof_H 	H 	0.2824	0.2601	0.9052	0.051
Mof_C 	C 	0.30882	0.2001	0.941	-0.044
Mof_C 	C 	0.32192	0.1149	0.9456	-0.025
Mof_H 	H 	0.3349	0.1102	0.9641	0.03
Mof_O 	O 	0.07793	0.0422	0.8817	-0.223
Mof_O 	O 	0.00294	0.8784	0.9068	-0.227
Mof_O 	O 	0.01226	0.3542	0.9632	-0.253
Mof_N 	N 	0.13618	0.2332	0.79319	-0.252
Mof_N 	N 	0.93002	0.7201	0.9766	-0.255
Mof_N 	N 	0.93086	0.5222	0.9664	-0.246
Mof_N 	N 	0.07633	0.1947	0.8705	-0.261
Mof_H 	H 	0.0685	0.2463	0.8759	0.124
Mof_N 	N 	0.97714	0.9431	0.9537	-0.246
Mof_H 	H 	0.9747	0.9913	0.9701	0.129
Mof_N 	N 	0.97747	0.3	0.9392	-0.246
Mof_H 	H 	0.971	0.2516	0.9269	0.127
Mof_C 	C 	0.13318	0.1583	0.8168	0.14
Mof_H 	H 	0.1446	0.1104	0.814	-0.02
Mof_C 	C 	0.11578	0.1421	0.8445	-0.224
Mof_H 	H 	0.1159	0.0881	0.8616	0.133
Mof_C 	C 	0.09745	0.2075	0.8472	0.211
Mof_C 	C 	0.09988	0.2857	0.8243	-0.211
Mof_H 	H 	0.0883	0.3331	0.8277	0.098
Mof_C 	C 	0.11754	0.3023	0.7966	0.088
Mof_H 	H 	0.1177	0.3572	0.7801	-0.016
Mof_C 	C 	0.06709	0.1215	0.8845	0.229
Mof_C 	C 	0.93214	0.7906	-0	0.147
Mof_H 	H 	0.9233	0.7924	0.025	-0.03
Mof_C 	C 	0.94654	0.864	0.991	-0.214
Mof_H 	H 	0.9464	0.9166	0.0091	0.107
Mof_C 	C 	0.96145	0.8653	0.9564	0.193
Mof_C 	C 	0.96007	0.7883	0.929	-0.18
Mof_H 	H 	0.9696	0.7834	0.9048	0.114
Mof_C 	C 	0.94328	0.7182	0.9406	0.085
Mof_H 	H 	0.9411	0.667	0.9222	-0.017
Mof_C 	C 	0.99552	0.9461	0.9271	0.222
Mof_C 	C 	0.92493	0.4537	0.9415	0.118
Mof_H 	H 	0.9094	0.4542	0.9305	-0.033
Mof_C 	C 	0.93931	0.3815	0.9303	-0.202
Mof_H 	H 	0.9347	0.3369	0.91	0.096
Mof_C 	C 	0.96162	0.3768	0.9507	0.179
Mof_C 	C 	0.969	0.4455	0.9771	-0.174
Mof_H 	H 	0.9845	0.4462	0.9883	0.12
Mof_C 	C 	0.95126	0.5197	0.9872	0.083
Mof_H 	H 	0.9545	0.5645	0.0082	0.004
Mof_C 	C 	0.00092	0.2964	0.9457	0.252
Mof_C 	C 	0.04291	0.1209	0.9026	-0.073
Mof_C 	C 	0.03049	0.0384	0.9052	0.005
Mof_H 	H 	0.0368	0.9831	0.8932	0.058
Mof_C 	C 	0.00873	0.0355	0.9256	-0.07
Mof_C 	C 	0.99825	0.1207	0.9358	0.007
Mof_H 	H 	0.9822	0.1216	0.9438	0.021
Mof_C 	C 	0.01084	0.2052	0.9346	-0.08
Mof_C 	C 	0.0318	0.2083	0.9148	0.008
Mof_H 	H 	0.0392	0.2663	0.9091	0.026
Mof_Cu	Cu	0.90614	0.8821	0.51768	0.855
Mof_O 	O 	0.82916	0.6073	0.3939	-0.273
Mof_O 	O 	0.76777	0.4122	0.3243	-0.185
Mof_O 	O 	0.80319	0.1535	0.4754	-0.219
Mof_N 	N 	0.88277	0.7889	0.4949	-0.23
Mof_N 	N 	0.68439	0.2801	0.28761	-0.269
Mof_N 	N 	0.88476	0.9842	0.5015	-0.236
Mof_N 	N 	0.83815	0.5681	0.459	-0.243
Mof_H 	H 	0.8356	0.5218	0.4764	0.126
Mof_N 	N 	0.74391	0.3184	0.3714	-0.23
Mof_H 	H 	0.7431	0.2834	0.3938	0.129
Mof_N 	N 	0.84089	0.2049	0.4599	-0.234
Mof_H 	H 	0.8489	0.2505	0.4482	0.126
Mof_C 	C 	0.87283	0.7859	0.455	0.071
Mof_H 	H 	0.8763	0.8341	0.4357	-0.004
Mof_C 	C 	0.85779	0.7126	0.4432	-0.153
Mof_H 	H 	0.8515	0.7076	0.4159	0.113
Mof_C 	C 	0.85254	0.6452	0.4755	0.135
Mof_C 	C 	0.86114	0.6412	0.5209	-0.14
Mof_H 	H 	0.8571	0.5975	0.5419	0.076
Mof_C 	C 	0.87726	0.7222	0.5239	0.053
Mof_H 	H 	0.885	0.729	0.5499	-0.021
Mof_C 	C 	0.82843	0.5585	0.4212	0.267
Mof_C 	C 	0.68794	0.2488	0.322	0.137
Mof_H 	H 	0.6748	0.213	0.3309	-0.027
Mof_C 	C 	0.70719	0.2494	0.3556	-0.187
Mof_H 	H 	0.7073	0.2151	0.3808	0.102
Mof_C 	C 	0.72499	0.3126	0.3409	0.193
Mof_C 	C 	0.72248	0.3599	0.305	-0.211
Mof_H 	H 	0.7341	0.4048	0.2977	0.136
Mof_C 	C 	0.70456	0.3464	0.2793	0.096
Mof_H 	H 	0.7044	0.3806	0.254	-0.008
Mof_C 	C 	0.7624	0.375	0.3665	0.152
Mof_C 	C 	0.89234	0.0575	0.4731	0.06
Mof_H 	H 	0.9081	0.0547	0.4632	-0.004
Mof_C 	C 	0.8787	0.1298	0.4596	-0.156
Mof_H 	H 	0.8842	0.1774	0.4416	0.085
Mof_C 	C 	0.8544	0.1261	0.4762	0.149
Mof_C 	C 	0.84517	0.0563	0.504	-0.165
Mof_H 	H 	0.8295	0.0578	0.5141	0.108
Mof_C 	C 	0.86077	0.988	0.5145	0.072
Mof_H 	H 	0.8552	0.939	0.5319	-0.011
Mof_C 	C 	0.81751	0.2136	0.4612	0.208
Mof_C 	C 	0.81441	0.4626	0.4209	-0.049
Mof_C 	C 	0.796	0.4619	0.3926	-0.025
Mof_H 	H 	0.7926	0.512	0.3742	0.065
Mof_C 	C 	0.78302	0.379	0.3941	-0.022
Mof_C 	C 	0.78994	0.2971	0.412	-0.027
Mof_H 	H 	0.7824	0.2399	0.4052	0.051
Mof_C 	C 	0.80882	0.2999	0.441	-0.044
Mof_C 	C 	0.82192	0.3851	0.4456	-0.025
Mof_H 	H 	0.8349	0.3898	0.4641	0.03
Mof_O 	O 	0.57793	0.4578	0.3817	-0.223
Mof_O 	O 	0.50294	0.6216	0.4068	-0.227
Mof_O 	O 	0.51226	0.1458	0.4632	-0.253
Mof_N 	N 	0.63618	0.2668	0.29319	-0.252
Mof_N 	N 	0.43002	0.7799	0.4766	-0.258
Mof_N 	N 	0.43086	0.9778	0.4664	-0.246
Mof_N 	N 	0.57633	0.3053	0.3705	-0.261
Mof_H 	H 	0.5685	0.2537	0.3759	0.124
Mof_N 	N 	0.47714	0.5569	0.4537	-0.247
Mof_H 	H 	0.4747	0.5087	0.4701	0.129
Mof_N 	N 	0.47747	0.2	0.4392	-0.246
Mof_H 	H 	0.471	0.2484	0.4269	0.127
Mof_C 	C 	0.63318	0.3417	0.3168	0.14
Mof_H 	H 	0.6446	0.3896	0.314	-0.02
Mof_C 	C 	0.61578	0.3579	0.3445	-0.224
Mof_H 	H 	0.6159	0.4119	0.3616	0.133
Mof_C 	C 	0.59745	0.2925	0.3472	0.211
Mof_C 	C 	0.59988	0.2143	0.3243	-0.211
Mof_H 	H 	0.5883	0.1669	0.3277	0.098
Mof_C 	C 	0.61754	0.1977	0.2966	0.088
Mof_H 	H 	0.6177	0.1428	0.2801	-0.016
Mof_C 	C 	0.56709	0.3785	0.3845	0.229
Mof_C 	C 	0.43214	0.7094	0.5	0.155
Mof_H 	H 	0.4233	0.7076	0.525	-0.032
Mof_C 	C 	0.44654	0.636	0.491	-0.224
Mof_H 	H 	0.4464	0.5834	0.5091	0.112
Mof_C 	C 	0.46145	0.6347	0.4564	0.196
Mof_C 	C 	0.46007	0.7117	0.429	-0.183
Mof_H 	H 	0.4696	0.7166	0.4048	0.115
Mof_C 	C 	0.44328	0.7818	0.4406	0.086
Mof_H 	H 	0.4411	0.833	0.4222	-0.017
Mof_C 	C 	0.49552	0.5539	0.4271	0.222
Mof_C 	C 	0.42493	0.0463	0.4415	0.118
Mof_H 	H 	0.4094	0.0458	0.4305	-0.033
Mof_C 	C 	0.43931	0.1185	0.4303	-0.201
Mof_H 	H 	0.4347	0.1631	0.41	0.096
Mof_C 	C 	0.46162	0.1232	0.4507	0.178
Mof_C 	C 	0.469	0.0545	0.4771	-0.173
Mof_H 	H 	0.4845	0.0538	0.4883	0.119
Mof_C 	C 	0.45126	0.9803	0.4872	0.079
Mof_H 	H 	0.4545	0.9355	0.5082	0.006
Mof_C 	C 	0.50092	0.2036	0.4457	0.252
Mof_C 	C 	0.54291	0.3791	0.4026	-0.073
Mof_C 	C 	0.53049	0.4616	0.4052	0.005
Mof_H 	H 	0.5368	0.5169	0.3932	0.058
Mof_C 	C 	0.50873	0.4645	0.4256	-0.071
Mof_C 	C 	0.49825	0.3793	0.4358	0.007
Mof_H 	H 	0.4822	0.3784	0.4438	0.021
Mof_C 	C 	0.51084	0.2948	0.4346	-0.081
Mof_C 	C 	0.5318	0.2917	0.4148	0.008
Mof_H 	H 	0.5392	0.2337	0.4091	0.026
Mof_Cu	Cu	0.90614	0.6179	0.98232	0.856
Mof_O 	O 	0.82916	0.8927	0.1061	-0.273
Mof_O 	O 	0.76777	0.0878	0.1757	-0.185
Mof_O 	O 	0.80319	0.3465	0.0246	-0.22
Mof_N 	N 	0.88277	0.7111	0.0051	-0.231
Mof_N 	N 	0.68439	0.2199	0.21239	-0.269
Mof_N 	N 	0.88476	0.5158	0.9985	-0.234
Mof_N 	N 	0.83815	0.9319	0.041	-0.242
Mof_H 	H 	0.8356	0.9782	0.0236	0.126
Mof_N 	N 	0.74391	0.1816	0.1286	-0.23
Mof_H 	H 	0.7431	0.2166	0.1062	0.128
Mof_N 	N 	0.84089	0.2951	0.0401	-0.234
Mof_H 	H 	0.8489	0.2495	0.0518	0.126
Mof_C 	C 	0.87283	0.7141	0.045	0.07
Mof_H 	H 	0.8763	0.6659	0.0643	-0.004
Mof_C 	C 	0.85779	0.7874	0.0568	-0.152
Mof_H 	H 	0.8515	0.7924	0.0841	0.112
Mof_C 	C 	0.85254	0.8548	0.0245	0.133
Mof_C 	C 	0.86114	0.8588	0.9791	-0.139
Mof_H 	H 	0.8571	0.9025	0.9581	0.076
Mof_C 	C 	0.87726	0.7778	0.9761	0.055
Mof_H 	H 	0.885	0.771	0.9501	-0.021
Mof_C 	C 	0.82843	0.9415	0.0788	0.267
Mof_C 	C 	0.68794	0.2512	0.178	0.137
Mof_H 	H 	0.6748	0.287	0.1691	-0.027
Mof_C 	C 	0.70719	0.2506	0.1444	-0.187
Mof_H 	H 	0.7073	0.2849	0.1192	0.102
Mof_C 	C 	0.72499	0.1874	0.1591	0.193
Mof_C 	C 	0.72248	0.1401	0.195	-0.21
Mof_H 	H 	0.7341	0.0952	0.2023	0.136
Mof_C 	C 	0.70456	0.1536	0.2207	0.096
Mof_H 	H 	0.7044	0.1194	0.246	-0.008
Mof_C 	C 	0.7624	0.125	0.1335	0.152
Mof_C 	C 	0.89234	0.4425	0.0269	0.057
Mof_H 	H 	0.9081	0.4453	0.0368	-0.004
Mof_C 	C 	0.8787	0.3702	0.0404	-0.155
Mof_H 	H 	0.8842	0.3226	0.0584	0.084
Mof_C 	C 	0.8544	0.3739	0.0238	0.147
Mof_C 	C 	0.84517	0.4437	0.996	-0.162
Mof_H 	H 	0.8295	0.4422	0.9859	0.107
Mof_C 	C 	0.86077	0.512	0.9855	0.071
Mof_H 	H 	0.8552	0.561	0.9681	-0.01
Mof_C 	C 	0.81751	0.2864	0.0388	0.208
Mof_C 	C 	0.81441	0.0374	0.0791	-0.049
Mof_C 	C 	0.796	0.0381	0.1074	-0.025
Mof_H 	H 	0.7926	0.988	0.1258	0.065
Mof_C 	C 	0.78302	0.121	0.1059	-0.022
Mof_C 	C 	0.78994	0.2029	0.088	-0.027
Mof_H 	H 	0.7824	0.2601	0.0948	0.051
Mof_C 	C 	0.80882	0.2001	0.059	-0.044
Mof_C 	C 	0.82192	0.1149	0.0544	-0.025
Mof_H 	H 	0.8349	0.1102	0.0359	0.03
Mof_O 	O 	0.57793	0.0422	0.1183	-0.223
Mof_O 	O 	0.50294	0.8784	0.0932	-0.227
Mof_O 	O 	0.51226	0.3542	0.0368	-0.254
Mof_N 	N 	0.63618	0.2332	0.20681	-0.252
Mof_N 	N 	0.43002	0.7201	0.0234	-0.258
Mof_N 	N 	0.43086	0.5222	0.0336	-0.245
Mof_N 	N 	0.57633	0.1947	0.1295	-0.261
Mof_H 	H 	0.5685	0.2463	0.1241	0.124
Mof_N 	N 	0.47714	0.9431	0.0463	-0.247
Mof_H 	H 	0.4747	0.9913	0.0299	0.129
Mof_N 	N 	0.47747	0.3	0.0608	-0.246
Mof_H 	H 	0.471	0.2516	0.0731	0.127
Mof_C 	C 	0.63318	0.1583	0.1832	0.14
Mof_H 	H 	0.6446	0.1104	0.186	-0.02
Mof_C 	C 	0.61578	0.1421	0.1555	-0.224
Mof_H 	H 	0.6159	0.0881	0.1384	0.133
Mof_C 	C 	0.59745	0.2075	0.1528	0.21
Mof_C 	C 	0.59988	0.2857	0.1757	-0.211
Mof_H 	H 	0.5883	0.3331	0.1723	0.098
Mof_C 	C 	0.61754	0.3023	0.2034	0.088
Mof_H 	H 	0.6177	0.3572	0.2199	-0.016
Mof_C 	C 	0.56709	0.1215	0.1155	0.229
Mof_C 	C 	0.43214	0.7906	-0	0.153
Mof_H 	H 	0.4233	0.7924	0.975	-0.03
Mof_C 	C 	0.44654	0.864	0.009	-0.226
Mof_H 	H 	0.4464	0.9166	0.9909	0.114
Mof_C 	C 	0.46145	0.8653	0.0436	0.196
Mof_C 	C 	0.46007	0.7883	0.071	-0.183
Mof_H 	H 	0.4696	0.7834	0.0952	0.115
Mof_C 	C 	0.44328	0.7182	0.0594	0.086
Mof_H 	H 	0.4411	0.667	0.0778	-0.017
Mof_C 	C 	0.49552	0.9461	0.0729	0.222
Mof_C 	C 	0.42493	0.4537	0.0585	0.117
Mof_H 	H 	0.4094	0.4542	0.0695	-0.033
Mof_C 	C 	0.43931	0.3815	0.0697	-0.201
Mof_H 	H 	0.4347	0.3369	0.09	0.096
Mof_C 	C 	0.46162	0.3768	0.0493	0.177
Mof_C 	C 	0.469	0.4455	0.0229	-0.171
Mof_H 	H 	0.4845	0.4462	0.0117	0.118
Mof_C 	C 	0.45126	0.5197	0.0128	0.075
Mof_H 	H 	0.4545	0.5645	0.9918	0.009
Mof_C 	C 	0.50092	0.2964	0.0543	0.252
Mof_C 	C 	0.54291	0.1209	0.0974	-0.073
Mof_C 	C 	0.53049	0.0384	0.0948	0.005
Mof_H 	H 	0.5368	0.9831	0.1068	0.058
Mof_C 	C 	0.50873	0.0355	0.0744	-0.071
Mof_C 	C 	0.49825	0.1207	0.0642	0.007
Mof_H 	H 	0.4822	0.1216	0.0562	0.021
Mof_C 	C 	0.51084	0.2052	0.0654	-0.081
Mof_C 	C 	0.5318	0.2083	0.0852	0.008
Mof_H 	H 	0.5392	0.2663	0.0909	0.026
Mof_Cu	Cu	0.16032	0.25	0.75	0.873
Mof_Cu	Cu	0.66032	0.25	0.25	0.873
Mof_Cu	Cu	0.09386	0.1179	0.48232	0.855
Mof_O 	O 	0.17084	0.3927	0.6061	-0.273
Mof_O 	O 	0.23223	0.5878	0.6757	-0.185
Mof_O 	O 	0.19681	0.8465	0.5246	-0.219
Mof_N 	N 	0.11723	0.2111	0.5051	-0.23
Mof_N 	N 	0.31561	0.7199	0.71239	-0.269
Mof_N 	N 	0.11524	0.0158	0.4985	-0.236
Mof_N 	N 	0.16185	0.4319	0.541	-0.243
Mof_H 	H 	0.1644	0.4782	0.5236	0.126
Mof_N 	N 	0.25609	0.6816	0.6286	-0.23
Mof_H 	H 	0.2569	0.7166	0.6062	0.129
Mof_N 	N 	0.15911	0.7951	0.5401	-0.234
Mof_H 	H 	0.1511	0.7495	0.5518	0.126
Mof_C 	C 	0.12717	0.2141	0.545	0.071
Mof_H 	H 	0.1237	0.1659	0.5643	-0.004
Mof_C 	C 	0.14221	0.2874	0.5568	-0.153
Mof_H 	H 	0.1485	0.2924	0.5841	0.113
Mof_C 	C 	0.14746	0.3548	0.5245	0.135
Mof_C 	C 	0.13886	0.3588	0.4791	-0.14
Mof_H 	H 	0.1429	0.4025	0.4581	0.076
Mof_C 	C 	0.12274	0.2778	0.4761	0.053
Mof_H 	H 	0.115	0.271	0.4501	-0.021
Mof_C 	C 	0.17157	0.4415	0.5788	0.267
Mof_C 	C 	0.31206	0.7512	0.678	0.137
Mof_H 	H 	0.3252	0.787	0.6691	-0.027
Mof_C 	C 	0.29281	0.7506	0.6444	-0.187
Mof_H 	H 	0.2927	0.7849	0.6192	0.102
Mof_C 	C 	0.27501	0.6874	0.6591	0.193
Mof_C 	C 	0.27752	0.6401	0.695	-0.211
Mof_H 	H 	0.2659	0.5952	0.7023	0.136
Mof_C 	C 	0.29544	0.6536	0.7207	0.096
Mof_H 	H 	0.2956	0.6194	0.746	-0.008
Mof_C 	C 	0.2376	0.625	0.6335	0.152
Mof_C 	C 	0.10766	0.9425	0.5269	0.06
Mof_H 	H 	0.0919	0.9453	0.5368	-0.004
Mof_C 	C 	0.1213	0.8702	0.5404	-0.156
Mof_H 	H 	0.1158	0.8226	0.5584	0.085
Mof_C 	C 	0.1456	0.8739	0.5238	0.149
Mof_C 	C 	0.15483	0.9437	0.496	-0.165
Mof_H 	H 	0.1705	0.9422	0.4859	0.108
Mof_C 	C 	0.13923	0.012	0.4855	0.072
Mof_H 	H 	0.1448	0.061	0.4681	-0.011
Mof_C 	C 	0.18249	0.7864	0.5388	0.208
Mof_C 	C 	0.18559	0.5374	0.5791	-0.049
Mof_C 	C 	0.204	0.5381	0.6074	-0.025
Mof_H 	H 	0.2074	0.488	0.6258	0.065
Mof_C 	C 	0.21698	0.621	0.6059	-0.022
Mof_C 	C 	0.21006	0.7029	0.588	-0.027
Mof_H 	H 	0.2176	0.7601	0.5948	0.051
Mof_C 	C 	0.19118	0.7001	0.559	-0.044
Mof_C 	C 	0.17808	0.6149	0.5544	-0.025
Mof_H 	H 	0.1651	0.6102	0.5359	0.03
Mof_O 	O 	0.42207	0.5422	0.6183	-0.223
Mof_O 	O 	0.49706	0.3784	0.5932	-0.227
Mof_O 	O 	0.48774	0.8542	0.5368	-0.253
Mof_N 	N 	0.36382	0.7332	0.70681	-0.252
Mof_N 	N 	0.56998	0.2201	0.5234	-0.258
Mof_N 	N 	0.56914	0.0222	0.5336	-0.246
Mof_N 	N 	0.42367	0.6947	0.6295	-0.261
Mof_H 	H 	0.4315	0.7463	0.6241	0.124
Mof_N 	N 	0.52286	0.4431	0.5463	-0.247
Mof_H 	H 	0.5253	0.4913	0.5299	0.129
Mof_N 	N 	0.52253	0.8	0.5608	-0.246
Mof_H 	H 	0.529	0.7516	0.5731	0.127
Mof_C 	C 	0.36682	0.6583	0.6832	0.14
Mof_H 	H 	0.3554	0.6104	0.686	-0.02
Mof_C 	C 	0.38422	0.6421	0.6555	-0.224
Mof_H 	H 	0.3841	0.5881	0.6384	0.133
Mof_C 	C 	0.40255	0.7075	0.6528	0.211
Mof_C 	C 	0.40012	0.7857	0.6757	-0.211
Mof_H 	H 	0.4117	0.8331	0.6723	0.098
Mof_C 	C 	0.38246	0.8023	0.7034	0.088
Mof_H 	H 	0.3823	0.8572	0.7199	-0.016
Mof_C 	C 	0.43291	0.6215	0.6155	0.229
Mof_C 	C 	0.56786	0.2906	0.5	0.155
Mof_H 	H 	0.5767	0.2924	0.475	-0.032
Mof_C 	C 	0.55346	0.364	0.509	-0.224
Mof_H 	H 	0.5536	0.4166	0.4909	0.112
Mof_C 	C 	0.53855	0.3653	0.5436	0.196
Mof_C 	C 	0.53993	0.2883	0.571	-0.183
Mof_H 	H 	0.5304	0.2834	0.5952	0.115
Mof_C 	C 	0.55672	0.2182	0.5594	0.086
Mof_H 	H 	0.5589	0.167	0.5778	-0.017
Mof_C 	C 	0.50448	0.4461	0.5729	0.222
Mof_C 	C 	0.57507	0.9537	0.5585	0.118
Mof_H 	H 	0.5906	0.9542	0.5695	-0.033
Mof_C 	C 	0.56069	0.8815	0.5697	-0.201
Mof_H 	H 	0.5653	0.8369	0.59	0.096
Mof_C 	C 	0.53838	0.8768	0.5493	0.178
Mof_C 	C 	0.531	0.9455	0.5229	-0.173
Mof_H 	H 	0.5155	0.9462	0.5117	0.119
Mof_C 	C 	0.54874	0.0197	0.5128	0.079
Mof_H 	H 	0.5455	0.0645	0.4918	0.006
Mof_C 	C 	0.49908	0.7964	0.5543	0.252
Mof_C 	C 	0.45709	0.6209	0.5974	-0.073
Mof_C 	C 	0.46951	0.5384	0.5948	0.005
Mof_H 	H 	0.4632	0.4831	0.6068	0.058
Mof_C 	C 	0.49127	0.5355	0.5744	-0.071
Mof_C 	C 	0.50175	0.6207	0.5642	0.007
Mof_H 	H 	0.5178	0.6216	0.5562	0.021
Mof_C 	C 	0.48916	0.7052	0.5654	-0.081
Mof_C 	C 	0.4682	0.7083	0.5852	0.008
Mof_H 	H 	0.4608	0.7663	0.5909	0.026
Mof_Cu	Cu	0.09386	0.3821	0.01768	0.855
Mof_O 	O 	0.17084	0.1073	0.8939	-0.273
Mof_O 	O 	0.23223	0.9122	0.8243	-0.185
Mof_O 	O 	0.19681	0.6535	0.9754	-0.219
Mof_N 	N 	0.11723	0.2889	0.9949	-0.229
Mof_N 	N 	0.31561	0.7801	0.78761	-0.269
Mof_N 	N 	0.11524	0.4842	0.0015	-0.237
Mof_N 	N 	0.16185	0.0681	0.959	-0.243
Mof_H 	H 	0.1644	0.0218	0.9764	0.126
Mof_N 	N 	0.25609	0.8184	0.8714	-0.23
Mof_H 	H 	0.2569	0.7834	0.8938	0.129
Mof_N 	N 	0.15911	0.7049	0.9599	-0.235
Mof_H 	H 	0.1511	0.7505	0.9482	0.126
Mof_C 	C 	0.12717	0.2859	0.955	0.071
Mof_H 	H 	0.1237	0.3341	0.9357	-0.004
Mof_C 	C 	0.14221	0.2126	0.9432	-0.153
Mof_H 	H 	0.1485	0.2076	0.9159	0.113
Mof_C 	C 	0.14746	0.1452	0.9755	0.137
Mof_C 	C 	0.13886	0.1412	0.0209	-0.142
Mof_H 	H 	0.1429	0.0975	0.0419	0.076
Mof_C 	C 	0.12274	0.2222	0.0239	0.051
Mof_H 	H 	0.115	0.229	0.0499	-0.02
Mof_C 	C 	0.17157	0.0585	0.9212	0.267
Mof_C 	C 	0.31206	0.7488	0.822	0.137
Mof_H 	H 	0.3252	0.713	0.8309	-0.027
Mof_C 	C 	0.29281	0.7494	0.8556	-0.187
Mof_H 	H 	0.2927	0.7151	0.8808	0.102
Mof_C 	C 	0.27501	0.8126	0.8409	0.193
Mof_C 	C 	0.27752	0.8599	0.805	-0.211
Mof_H 	H 	0.2659	0.9048	0.7977	0.136
Mof_C 	C 	0.29544	0.8464	0.7793	0.096
Mof_H 	H 	0.2956	0.8806	0.754	-0.008
Mof_C 	C 	0.2376	0.875	0.8665	0.152
Mof_C 	C 	0.10766	0.5575	0.9731	0.062
Mof_H 	H 	0.0919	0.5547	0.9632	-0.004
Mof_C 	C 	0.1213	0.6298	0.9596	-0.158
Mof_H 	H 	0.1158	0.6774	0.9416	0.086
Mof_C 	C 	0.1456	0.6261	0.9762	0.152
Mof_C 	C 	0.15483	0.5563	0.004	-0.169
Mof_H 	H 	0.1705	0.5578	0.0141	0.108
Mof_C 	C 	0.13923	0.488	0.0145	0.073
Mof_H 	H 	0.1448	0.439	0.0319	-0.011
Mof_C 	C 	0.18249	0.7136	0.9612	0.208
Mof_C 	C 	0.18559	0.9626	0.9209	-0.049
Mof_C 	C 	0.204	0.9619	0.8926	-0.025
Mof_H 	H 	0.2074	0.012	0.8742	0.065
Mof_C 	C 	0.21698	0.879	0.8941	-0.022
Mof_C 	C 	0.21006	0.7971	0.912	-0.027
Mof_H 	H 	0.2176	0.7399	0.9052	0.051
Mof_C 	C 	0.19118	0.7999	0.941	-0.044
Mof_C 	C 	0.17808	0.8851	0.9456	-0.025
Mof_H 	H 	0.1651	0.8898	0.9641	0.03
Mof_O 	O 	0.42207	0.9578	0.8817	-0.223
Mof_O 	O 	0.49706	0.1216	0.9068	-0.227
Mof_O 	O 	0.48774	0.6458	0.9632	-0.253
Mof_N 	N 	0.36382	0.7668	0.79319	-0.252
Mof_N 	N 	0.56998	0.2799	0.9766	-0.255
Mof_N 	N 	0.56914	0.4778	0.9664	-0.246
Mof_N 	N 	0.42367	0.8053	0.8705	-0.261
Mof_H 	H 	0.4315	0.7537	0.8759	0.124
Mof_N 	N 	0.52286	0.0569	0.9537	-0.246
Mof_H 	H 	0.5253	0.0087	0.9701	0.129
Mof_N 	N 	0.52253	0.7	0.9392	-0.246
Mof_H 	H 	0.529	0.7484	0.9269	0.127
Mof_C 	C 	0.36682	0.8417	0.8168	0.14
Mof_H 	H 	0.3554	0.8896	0.814	-0.02
Mof_C 	C 	0.38422	0.8579	0.8445	-0.224
Mof_H 	H 	0.3841	0.9119	0.8616	0.133
Mof_C 	C 	0.40255	0.7925	0.8472	0.211
Mof_C 	C 	0.40012	0.7143	0.8243	-0.211
Mof_H 	H 	0.4117	0.6669	0.8277	0.098
Mof_C 	C 	0.38246	0.6977	0.7966	0.088
Mof_H 	H 	0.3823	0.6428	0.7801	-0.016
Mof_C 	C 	0.43291	0.8785	0.8845	0.229
Mof_C 	C 	0.56786	0.2094	-0	0.147
Mof_H 	H 	0.5767	0.2076	0.025	-0.03
Mof_C 	C 	0.55346	0.136	0.991	-0.214
Mof_H 	H 	0.5536	0.0834	0.0091	0.107
Mof_C 	C 	0.53855	0.1347	0.9564	0.193
Mof_C 	C 	0.53993	0.2117	0.929	-0.18
Mof_H 	H 	0.5304	0.2166	0.9048	0.114
Mof_C 	C 	0.55672	0.2818	0.9406	0.085
Mof_H 	H 	0.5589	0.333	0.9222	-0.017
Mof_C 	C 	0.50448	0.0539	0.9271	0.222
Mof_C 	C 	0.57507	0.5463	0.9415	0.118
Mof_H 	H 	0.5906	0.5458	0.9305	-0.033
Mof_C 	C 	0.56069	0.6185	0.9303	-0.202
Mof_H 	H 	0.5653	0.6631	0.91	0.096
Mof_C 	C 	0.53838	0.6232	0.9507	0.179
Mof_C 	C 	0.531	0.5545	0.9771	-0.174
Mof_H 	H 	0.5155	0.5538	0.9883	0.12
Mof_C 	C 	0.54874	0.4803	0.9872	0.083
Mof_H 	H 	0.5455	0.4355	0.0082	0.004
Mof_C 	C 	0.49908	0.7036	0.9457	0.252
Mof_C 	C 	0.45709	0.8791	0.9026	-0.073
Mof_C 	C 	0.46951	0.9616	0.9052	0.005
Mof_H 	H 	0.4632	0.0169	0.8932	0.058
Mof_C 	C 	0.49127	0.9645	0.9256	-0.07
Mof_C 	C 	0.50175	0.8793	0.9358	0.007
Mof_H 	H 	0.5178	0.8784	0.9438	0.021
Mof_C 	C 	0.48916	0.7948	0.9346	-0.08
Mof_C 	C 	0.4682	0.7917	0.9148	0.008
Mof_H 	H 	0.4608	0.7337	0.9091	0.026
Mof_Cu	Cu	0.59386	0.1179	0.51768	0.855
Mof_O 	O 	0.67084	0.3927	0.3939	-0.273
Mof_O 	O 	0.73223	0.5878	0.3243	-0.185
Mof_O 	O 	0.69681	0.8465	0.4754	-0.219
Mof_N 	N 	0.61723	0.2111	0.4949	-0.23
Mof_N 	N 	0.81561	0.7199	0.28761	-0.269
Mof_N 	N 	0.61524	0.0158	0.5015	-0.236
Mof_N 	N 	0.66185	0.4319	0.459	-0.243
Mof_H 	H 	0.6644	0.4782	0.4764	0.126
Mof_N 	N 	0.75609	0.6816	0.3714	-0.23
Mof_H 	H 	0.7569	0.7166	0.3938	0.129
Mof_N 	N 	0.65911	0.7951	0.4599	-0.234
Mof_H 	H 	0.6511	0.7495	0.4482	0.126
Mof_C 	C 	0.62717	0.2141	0.455	0.071
Mof_H 	H 	0.6237	0.1659	0.4357	-0.004
Mof_C 	C 	0.64221	0.2874	0.4432	-0.153
Mof_H 	H 	0.6485	0.2924	0.4159	0.113
Mof_C 	C 	0.64746	0.3548	0.4755	0.135
Mof_C 	C 	0.63886	0.3588	0.5209	-0.14
Mof_H 	H 	0.6429	0.4025	0.5419	0.076
Mof_C 	C 	0.62274	0.2778	0.5239	0.053
Mof_H 	H 	0.615	0.271	0.5499	-0.021
Mof_C 	C 	0.67157	0.4415	0.4212	0.267
Mof_C 	C 	0.81206	0.7512	0.322	0.137
Mof_H 	H 	0.8252	0.787	0.3309	-0.027
Mof_C 	C 	0.79281	0.7506	0.3556	-0.187
Mof_H 	H 	0.7927	0.7849	0.3808	0.102
Mof_C 	C 	0.77501	0.6874	0.3409	0.193
Mof_C 	C 	0.77752	0.6401	0.305	-0.211
Mof_H 	H 	0.7659	0.5952	0.2977	0.136
Mof_C 	C 	0.79544	0.6536	0.2793	0.096
Mof_H 	H 	0.7956	0.6194	0.254	-0.008
Mof_C 	C 	0.7376	0.625	0.3665	0.152
Mof_C 	C 	0.60766	0.9425	0.4731	0.06
Mof_H 	H 	0.5919	0.9453	0.4632	-0.004
Mof_C 	C 	0.6213	0.8702	0.4596	-0.156
Mof_H 	H 	0.6158	0.8226	0.4416	0.085
Mof_C 	C 	0.6456	0.8739	0.4762	0.149
Mof_C 	C 	0.65483	0.9437	0.504	-0.165
Mof_H 	H 	0.6705	0.9422	0.5141	0.108
Mof_C 	C 	0.63923	0.012	0.5145	0.072
Mof_H 	H 	0.6448	0.061	0.5319	-0.011
Mof_C 	C 	0.68249	0.7864	0.4612	0.208
Mof_C 	C 	0.68559	0.5374	0.4209	-0.049
Mof_C 	C 	0.704	0.5381	0.3926	-0.025
Mof_H 	H 	0.7074	0.488	0.3742	0.065
Mof_C 	C 	0.71698	0.621	0.3941	-0.022
Mof_C 	C 	0.71006	0.7029	0.412	-0.027
Mof_H 	H 	0.7176	0.7601	0.4052	0.051
Mof_C 	C 	0.69118	0.7001	0.441	-0.044
Mof_C 	C 	0.67808	0.6149	0.4456	-0.025
Mof_H 	H 	0.6651	0.6102	0.4641	0.03
Mof_O 	O 	0.92207	0.5422	0.3817	-0.223
Mof_O 	O 	0.99706	0.3784	0.4068	-0.227
Mof_O 	O 	0.98774	0.8542	0.4632	-0.253
Mof_N 	N 	0.86382	0.7332	0.29319	-0.252
Mof_N 	N 	0.06998	0.2201	0.4766	-0.258
Mof_N 	N 	0.06914	0.0222	0.4664	-0.246
Mof_N 	N 	0.92367	0.6947	0.3705	-0.261
Mof_H 	H 	0.9315	0.7463	0.3759	0.124
Mof_N 	N 	0.02286	0.4431	0.4537	-0.247
Mof_H 	H 	0.0253	0.4913	0.4701	0.129
Mof_N 	N 	0.02253	0.8	0.4392	-0.246
Mof_H 	H 	0.029	0.7516	0.4269	0.127
Mof_C 	C 	0.86682	0.6583	0.3168	0.14
Mof_H 	H 	0.8554	0.6104	0.314	-0.02
Mof_C 	C 	0.88422	0.6421	0.3445	-0.224
Mof_H 	H 	0.8841	0.5881	0.3616	0.133
Mof_C 	C 	0.90255	0.7075	0.3472	0.211
Mof_C 	C 	0.90012	0.7857	0.3243	-0.211
Mof_H 	H 	0.9117	0.8331	0.3277	0.098
Mof_C 	C 	0.88246	0.8023	0.2966	0.088
Mof_H 	H 	0.8823	0.8572	0.2801	-0.016
Mof_C 	C 	0.93291	0.6215	0.3845	0.229
Mof_C 	C 	0.06786	0.2906	0.5	0.155
Mof_H 	H 	0.0767	0.2924	0.525	-0.032
Mof_C 	C 	0.05346	0.364	0.491	-0.224
Mof_H 	H 	0.0536	0.4166	0.5091	0.112
Mof_C 	C 	0.03855	0.3653	0.4564	0.196
Mof_C 	C 	0.03993	0.2883	0.429	-0.183
Mof_H 	H 	0.0304	0.2834	0.4048	0.115
Mof_C 	C 	0.05672	0.2182	0.4406	0.086
Mof_H 	H 	0.0589	0.167	0.4222	-0.017
Mof_C 	C 	0.00448	0.4461	0.4271	0.222
Mof_C 	C 	0.07507	0.9537	0.4415	0.118
Mof_H 	H 	0.0906	0.9542	0.4305	-0.033
Mof_C 	C 	0.06069	0.8815	0.4303	-0.201
Mof_H 	H 	0.0653	0.8369	0.41	0.096
Mof_C 	C 	0.03838	0.8768	0.4507	0.178
Mof_C 	C 	0.031	0.9455	0.4771	-0.173
Mof_H 	H 	0.0155	0.9462	0.4883	0.119
Mof_C 	C 	0.04874	0.0197	0.4872	0.079
Mof_H 	H 	0.0455	0.0645	0.5082	0.006
Mof_C 	C 	0.99908	0.7964	0.4457	0.252
Mof_C 	C 	0.95709	0.6209	0.4026	-0.073
Mof_C 	C 	0.96951	0.5384	0.4052	0.005
Mof_H 	H 	0.9632	0.4831	0.3932	0.058
Mof_C 	C 	0.99127	0.5355	0.4256	-0.071
Mof_C 	C 	0.00175	0.6207	0.4358	0.007
Mof_H 	H 	0.0178	0.6216	0.4438	0.021
Mof_C 	C 	0.98916	0.7052	0.4346	-0.081
Mof_C 	C 	0.9682	0.7083	0.4148	0.008
Mof_H 	H 	0.9608	0.7663	0.4091	0.026
Mof_Cu	Cu	0.59386	0.3821	0.98232	0.856
Mof_O 	O 	0.67084	0.1073	0.1061	-0.273
Mof_O 	O 	0.73223	0.9122	0.1757	-0.185
Mof_O 	O 	0.69681	0.6535	0.0246	-0.22
Mof_N 	N 	0.61723	0.2889	0.0051	-0.231
Mof_N 	N 	0.81561	0.7801	0.21239	-0.269
Mof_N 	N 	0.61524	0.4842	0.9985	-0.234
Mof_N 	N 	0.66185	0.0681	0.041	-0.242
Mof_H 	H 	0.6644	0.0218	0.0236	0.126
Mof_N 	N 	0.75609	0.8184	0.1286	-0.23
Mof_H 	H 	0.7569	0.7834	0.1062	0.128
Mof_N 	N 	0.65911	0.7049	0.0401	-0.234
Mof_H 	H 	0.6511	0.7505	0.0518	0.126
Mof_C 	C 	0.62717	0.2859	0.045	0.07
Mof_H 	H 	0.6237	0.3341	0.0643	-0.004
Mof_C 	C 	0.64221	0.2126	0.0568	-0.152
Mof_H 	H 	0.6485	0.2076	0.0841	0.112
Mof_C 	C 	0.64746	0.1452	0.0245	0.133
Mof_C 	C 	0.63886	0.1412	0.9791	-0.139
Mof_H 	H 	0.6429	0.0975	0.9581	0.076
Mof_C 	C 	0.62274	0.2222	0.9761	0.055
Mof_H 	H 	0.615	0.229	0.9501	-0.021
Mof_C 	C 	0.67157	0.0585	0.0788	0.267
Mof_C 	C 	0.81206	0.7488	0.178	0.137
Mof_H 	H 	0.8252	0.713	0.1691	-0.027
Mof_C 	C 	0.79281	0.7494	0.1444	-0.187
Mof_H 	H 	0.7927	0.7151	0.1192	0.102
Mof_C 	C 	0.77501	0.8126	0.1591	0.193
Mof_C 	C 	0.77752	0.8599	0.195	-0.21
Mof_H 	H 	0.7659	0.9048	0.2023	0.136
Mof_C 	C 	0.79544	0.8464	0.2207	0.096
Mof_H 	H 	0.7956	0.8806	0.246	-0.008
Mof_C 	C 	0.7376	0.875	0.1335	0.152
Mof_C 	C 	0.60766	0.5575	0.0269	0.057
Mof_H 	H 	0.5919	0.5547	0.0368	-0.004
Mof_C 	C 	0.6213	0.6298	0.0404	-0.155
Mof_H 	H 	0.6158	0.6774	0.0584	0.084
Mof_C 	C 	0.6456	0.6261	0.0238	0.147
Mof_C 	C 	0.65483	0.5563	0.996	-0.162
Mof_H 	H 	0.6705	0.5578	0.9859	0.107
Mof_C 	C 	0.63923	0.488	0.9855	0.071
Mof_H 	H 	0.6448	0.439	0.9681	-0.01
Mof_C 	C 	0.68249	0.7136	0.0388	0.208
Mof_C 	C 	0.68559	0.9626	0.0791	-0.049
Mof_C 	C 	0.704	0.9619	0.1074	-0.025
Mof_H 	H 	0.7074	0.012	0.1258	0.065
Mof_C 	C 	0.71698	0.879	0.1059	-0.022
Mof_C 	C 	0.71006	0.7971	0.088	-0.027
Mof_H 	H 	0.7176	0.7399	0.0948	0.051
Mof_C 	C 	0.69118	0.7999	0.059	-0.044
Mof_C 	C 	0.67808	0.8851	0.0544	-0.025
Mof_H 	H 	0.6651	0.8898	0.0359	0.03
Mof_O 	O 	0.92207	0.9578	0.1183	-0.223
Mof_O 	O 	0.99706	0.1216	0.0932	-0.227
Mof_O 	O 	0.98774	0.6458	0.0368	-0.254
Mof_N 	N 	0.86382	0.7668	0.20681	-0.252
Mof_N 	N 	0.06998	0.2799	0.0234	-0.258
Mof_N 	N 	0.06914	0.4778	0.0336	-0.245
Mof_N 	N 	0.92367	0.8053	0.1295	-0.261
Mof_H 	H 	0.9315	0.7537	0.1241	0.124
Mof_N 	N 	0.02286	0.0569	0.0463	-0.247
Mof_H 	H 	0.0253	0.0087	0.0299	0.129
Mof_N 	N 	0.02253	0.7	0.0608	-0.246
Mof_H 	H 	0.029	0.7484	0.0731	0.127
Mof_C 	C 	0.86682	0.8417	0.1832	0.14
Mof_H 	H 	0.8554	0.8896	0.186	-0.02
Mof_C 	C 	0.88422	0.8579	0.1555	-0.224
Mof_H 	H 	0.8841	0.9119	0.1384	0.133
Mof_C 	C 	0.90255	0.7925	0.1528	0.21
Mof_C 	C 	0.90012	0.7143	0.1757	-0.211
Mof_H 	H 	0.9117	0.6669	0.1723	0.098
Mof_C 	C 	0.88246	0.6977	0.2034	0.088
Mof_H 	H 	0.8823	0.6428	0.2199	-0.016
Mof_C 	C 	0.93291	0.8785	0.1155	0.229
Mof_C 	C 	0.06786	0.2094	-0	0.153
Mof_H 	H 	0.0767	0.2076	0.975	-0.03
Mof_C 	C 	0.05346	0.136	0.009	-0.226
Mof_H 	H 	0.0536	0.0834	0.9909	0.114
Mof_C 	C 	0.03855	0.1347	0.0436	0.196
Mof_C 	C 	0.03993	0.2117	0.071	-0.183
Mof_H 	H 	0.0304	0.2166	0.0952	0.115
Mof_C 	C 	0.05672	0.2818	0.0594	0.086
Mof_H 	H 	0.0589	0.333	0.0778	-0.017
Mof_C 	C 	0.00448	0.0539	0.0729	0.222
Mof_C 	C 	0.07507	0.5463	0.0585	0.117
Mof_H 	H 	0.0906	0.5458	0.0695	-0.033
Mof_C 	C 	0.06069	0.6185	0.0697	-0.201
Mof_H 	H 	0.0653	0.6631	0.09	0.096
Mof_C 	C 	0.03838	0.6232	0.0493	0.177
Mof_C 	C 	0.031	0.5545	0.0229	-0.171
Mof_H 	H 	0.0155	0.5538	0.0117	0.118
Mof_C 	C 	0.04874	0.4803	0.0128	0.075
Mof_H 	H 	0.0455	0.4355	0.9918	0.009
Mof_C 	C 	0.99908	0.7036	0.0543	0.252
Mof_C 	C 	0.95709	0.8791	0.0974	-0.073
Mof_C 	C 	0.96951	0.9616	0.0948	0.005
Mof_H 	H 	0.9632	0.0169	0.1068	0.058
Mof_C 	C 	0.99127	0.9645	0.0744	-0.071
Mof_C 	C 	0.00175	0.8793	0.0642	0.007
Mof_H 	H 	0.0178	0.8784	0.0562	0.021
Mof_C 	C 	0.98916	0.7948	0.0654	-0.081
Mof_C 	C 	0.9682	0.7917	0.0852	0.008
Mof_H 	H 	0.9608	0.7337	0.0909	0.026
Mof_Cu	Cu	0.33968	0.75	0.75	0.873
Mof_Cu	Cu	0.83968	0.75	0.25	0.873
_end
