data_functionalizedCrystal
_audit_creation_method	'EQeq! by Chris Wilmer'
_symmetry_space_group_name_H-M	'P1'
_symmetry_Int_Tables_number	1
_symmetry_cell_setting	triclinic
loop_
_symmetry_equiv_pos_as_xyz
  x,y,z
_cell_length_a	49.62
_cell_length_b	50.589
_cell_length_c	6.059
_cell_angle_alpha	90
_cell_angle_beta	90
_cell_angle_gamma	90
loop_
_atom_site_label
_atom_site_type_symbol
_atom_site_fract_x
_atom_site_fract_y
_atom_site_fract_z
_atom_site_charge
Mof_Zn	Zn	0.87469	0.13747	0.14012	1.213
Mof_Cl	Cl	0.86018	0.10593	0.3647	-0.519
Mof_Cl	Cl	0.88733	0.17672	0.277	-0.498
Mof_Cl	Cl	0.71049	0.24256	0.2205	-0.514
Mof_C 	C 	0.84712	0.15829	0.738	0.08
Mof_H 	H 	0.8635	0.1676	0.7169	0.017
Mof_C 	C 	0.8263	0.16249	0.5861	-0.117
Mof_H 	H 	0.8284	0.1741	0.4639	0.09
Mof_C 	C 	0.8023	0.14876	0.6233	0.061
Mof_C 	C 	0.80019	0.1316	0.7903	-0.094
Mof_H 	H 	0.784	0.1218	0.8115	0.084
Mof_C 	C 	0.82212	0.12812	0.9342	0.05
Mof_H 	H 	0.8207	0.1157	0.0514	0.033
Mof_C 	C 	0.77797	0.15456	0.4765	0.107
Mof_C 	C 	0.75664	0.17305	0.19	0.11
Mof_C 	C 	0.73272	0.15062	0.441	0.11
Mof_C 	C 	0.75685	0.18899	0.9918	0.021
Mof_C 	C 	0.78021	0.20074	0.9054	-0.107
Mof_H 	H 	0.7972	0.1977	0.9725	0.089
Mof_C 	C 	0.77814	0.21648	0.7246	0.075
Mof_H 	H 	0.794	0.225	0.6724	0.019
Mof_C 	C 	0.73255	0.2086	0.6936	0.061
Mof_H 	H 	0.7161	0.2112	0.6161	0.021
Mof_C 	C 	0.73233	0.19358	0.8705	-0.094
Mof_H 	H 	0.716	0.1857	0.9185	0.086
Mof_C 	C 	0.70642	0.14087	0.5427	0.057
Mof_C 	C 	0.68224	0.1466	0.4308	-0.107
Mof_H 	H 	0.6818	0.1559	0.2946	0.092
Mof_C 	C 	0.65828	0.13728	0.539	0.075
Mof_H 	H 	0.6414	0.1405	0.4703	0.02
Mof_C 	C 	0.68232	0.11964	0.8281	0.06
Mof_H 	H 	0.6824	0.1102	0.9635	0.007
Mof_C 	C 	0.7067	0.128	0.738	-0.108
Mof_H 	H 	0.7232	0.1247	0.8127	0.085
Mof_N 	N 	0.75476	0.14377	0.559	-0.136
Mof_N 	N 	0.78016	0.16889	0.2993	-0.14
Mof_N 	N 	0.73233	0.16394	0.258	-0.137
Mof_N 	N 	0.75514	0.22069	0.6159	-0.247
Mof_N 	N 	0.84535	0.1421	0.9095	-0.254
Mof_N 	N 	0.65833	0.12472	0.7264	-0.257
Mof_Zn	Zn	0.87469	0.63747	0.64012	1.211
Mof_Cl	Cl	0.86018	0.60593	0.8647	-0.526
Mof_Cl	Cl	0.88733	0.67672	0.777	-0.505
Mof_Cl	Cl	0.71049	0.74256	0.7205	-0.527
Mof_C 	C 	0.84712	0.65829	0.238	0.074
Mof_H 	H 	0.8635	0.6676	0.2169	0.02
Mof_C 	C 	0.8263	0.66249	0.0861	-0.104
Mof_H 	H 	0.8284	0.6741	0.9639	0.079
Mof_C 	C 	0.8023	0.64876	0.1233	0.069
Mof_C 	C 	0.80019	0.6316	0.2903	-0.101
Mof_H 	H 	0.784	0.6218	0.3115	0.089
Mof_C 	C 	0.82212	0.62812	0.4342	0.063
Mof_H 	H 	0.8207	0.6157	0.5514	0.024
Mof_C 	C 	0.77797	0.65456	0.9765	0.092
Mof_C 	C 	0.75664	0.67305	0.69	0.092
Mof_C 	C 	0.73272	0.65062	0.941	0.089
Mof_C 	C 	0.75685	0.68899	0.4918	0.041
Mof_C 	C 	0.78021	0.70074	0.4054	-0.115
Mof_H 	H 	0.7972	0.6977	0.4725	0.095
Mof_C 	C 	0.77814	0.71648	0.2246	0.082
Mof_H 	H 	0.794	0.725	0.1724	0.02
Mof_C 	C 	0.73255	0.7086	0.1936	0.069
Mof_H 	H 	0.7161	0.7112	0.1161	0.022
Mof_C 	C 	0.73233	0.69358	0.3705	-0.102
Mof_H 	H 	0.716	0.6857	0.4185	0.093
Mof_C 	C 	0.70642	0.64087	0.0427	0.085
Mof_C 	C 	0.68224	0.6466	0.9308	-0.14
Mof_H 	H 	0.6818	0.6559	0.7946	0.099
Mof_C 	C 	0.65828	0.63728	0.039	0.102
Mof_H 	H 	0.6414	0.6405	0.9703	0.008
Mof_C 	C 	0.68232	0.61964	0.3281	0.071
Mof_H 	H 	0.6824	0.6102	0.4635	0.009
Mof_C 	C 	0.7067	0.628	0.238	-0.124
Mof_H 	H 	0.7232	0.6247	0.3127	0.093
Mof_N 	N 	0.75476	0.64377	0.059	-0.124
Mof_N 	N 	0.78016	0.66889	0.7993	-0.138
Mof_N 	N 	0.73233	0.66394	0.758	-0.135
Mof_N 	N 	0.75514	0.72069	0.1159	-0.246
Mof_N 	N 	0.84535	0.6421	0.4095	-0.254
Mof_N 	N 	0.65833	0.62472	0.2264	-0.261
Mof_Zn	Zn	0.37469	0.13747	0.64012	1.211
Mof_Cl	Cl	0.36018	0.10593	0.8647	-0.526
Mof_Cl	Cl	0.38733	0.17672	0.777	-0.505
Mof_Cl	Cl	0.21049	0.24256	0.7205	-0.527
Mof_C 	C 	0.34712	0.15829	0.238	0.074
Mof_H 	H 	0.3635	0.1676	0.2169	0.02
Mof_C 	C 	0.3263	0.16249	0.0861	-0.104
Mof_H 	H 	0.3284	0.1741	0.9639	0.079
Mof_C 	C 	0.3023	0.14876	0.1233	0.069
Mof_C 	C 	0.30019	0.1316	0.2903	-0.101
Mof_H 	H 	0.284	0.1218	0.3115	0.089
Mof_C 	C 	0.32212	0.12812	0.4342	0.063
Mof_H 	H 	0.3207	0.1157	0.5514	0.024
Mof_C 	C 	0.27797	0.15456	0.9765	0.092
Mof_C 	C 	0.25664	0.17305	0.69	0.092
Mof_C 	C 	0.23272	0.15062	0.941	0.089
Mof_C 	C 	0.25685	0.18899	0.4918	0.041
Mof_C 	C 	0.28021	0.20074	0.4054	-0.115
Mof_H 	H 	0.2972	0.1977	0.4725	0.095
Mof_C 	C 	0.27814	0.21648	0.2246	0.082
Mof_H 	H 	0.294	0.225	0.1724	0.02
Mof_C 	C 	0.23255	0.2086	0.1936	0.069
Mof_H 	H 	0.2161	0.2112	0.1161	0.022
Mof_C 	C 	0.23233	0.19358	0.3705	-0.102
Mof_H 	H 	0.216	0.1857	0.4185	0.093
Mof_C 	C 	0.20642	0.14087	0.0427	0.085
Mof_C 	C 	0.18224	0.1466	0.9308	-0.14
Mof_H 	H 	0.1818	0.1559	0.7946	0.099
Mof_C 	C 	0.15828	0.13728	0.039	0.102
Mof_H 	H 	0.1414	0.1405	0.9703	0.008
Mof_C 	C 	0.18232	0.11964	0.3281	0.071
Mof_H 	H 	0.1824	0.1102	0.4635	0.009
Mof_C 	C 	0.2067	0.128	0.238	-0.124
Mof_H 	H 	0.2232	0.1247	0.3127	0.093
Mof_N 	N 	0.25476	0.14377	0.059	-0.124
Mof_N 	N 	0.28016	0.16889	0.7993	-0.138
Mof_N 	N 	0.23233	0.16394	0.758	-0.135
Mof_N 	N 	0.25514	0.22069	0.1159	-0.246
Mof_N 	N 	0.34535	0.1421	0.4095	-0.254
Mof_N 	N 	0.15833	0.12472	0.2264	-0.261
Mof_Zn	Zn	0.37469	0.63747	0.14012	1.212
Mof_Cl	Cl	0.36018	0.60593	0.3647	-0.52
Mof_Cl	Cl	0.38733	0.67672	0.277	-0.499
Mof_Cl	Cl	0.21049	0.74256	0.2205	-0.515
Mof_C 	C 	0.34712	0.65829	0.738	0.079
Mof_H 	H 	0.3635	0.6676	0.7169	0.016
Mof_C 	C 	0.3263	0.66249	0.5861	-0.118
Mof_H 	H 	0.3284	0.6741	0.4639	0.09
Mof_C 	C 	0.3023	0.64876	0.6233	0.061
Mof_C 	C 	0.30019	0.6316	0.7903	-0.094
Mof_H 	H 	0.284	0.6218	0.8115	0.084
Mof_C 	C 	0.32212	0.62812	0.9342	0.05
Mof_H 	H 	0.3207	0.6157	0.0514	0.033
Mof_C 	C 	0.27797	0.65456	0.4765	0.107
Mof_C 	C 	0.25664	0.67305	0.19	0.11
Mof_C 	C 	0.23272	0.65062	0.441	0.11
Mof_C 	C 	0.25685	0.68899	0.9918	0.021
Mof_C 	C 	0.28021	0.70074	0.9054	-0.107
Mof_H 	H 	0.2972	0.6977	0.9725	0.089
Mof_C 	C 	0.27814	0.71648	0.7246	0.075
Mof_H 	H 	0.294	0.725	0.6724	0.019
Mof_C 	C 	0.23255	0.7086	0.6936	0.061
Mof_H 	H 	0.2161	0.7112	0.6161	0.021
Mof_C 	C 	0.23233	0.69358	0.8705	-0.094
Mof_H 	H 	0.216	0.6857	0.9185	0.086
Mof_C 	C 	0.20642	0.64087	0.5427	0.057
Mof_C 	C 	0.18224	0.6466	0.4308	-0.107
Mof_H 	H 	0.1818	0.6559	0.2946	0.092
Mof_C 	C 	0.15828	0.63728	0.539	0.075
Mof_H 	H 	0.1414	0.6405	0.4703	0.019
Mof_C 	C 	0.18232	0.61964	0.8281	0.06
Mof_H 	H 	0.1824	0.6102	0.9635	0.007
Mof_C 	C 	0.2067	0.628	0.738	-0.108
Mof_H 	H 	0.2232	0.6247	0.8127	0.085
Mof_N 	N 	0.25476	0.64377	0.559	-0.136
Mof_N 	N 	0.28016	0.66889	0.2993	-0.14
Mof_N 	N 	0.23233	0.66394	0.258	-0.137
Mof_N 	N 	0.25514	0.72069	0.6159	-0.247
Mof_N 	N 	0.34535	0.6421	0.9095	-0.254
Mof_N 	N 	0.15833	0.62472	0.7264	-0.257
Mof_Zn	Zn	0.12531	0.86253	0.14012	1.212
Mof_Cl	Cl	0.13982	0.89407	0.3647	-0.519
Mof_Cl	Cl	0.11267	0.82328	0.277	-0.499
Mof_Cl	Cl	0.28951	0.75744	0.2205	-0.515
Mof_C 	C 	0.15288	0.84171	0.738	0.079
Mof_H 	H 	0.1365	0.8324	0.7169	0.016
Mof_C 	C 	0.1737	0.83751	0.5861	-0.118
Mof_H 	H 	0.1716	0.8259	0.4639	0.09
Mof_C 	C 	0.1977	0.85124	0.6233	0.061
Mof_C 	C 	0.19981	0.8684	0.7903	-0.094
Mof_H 	H 	0.216	0.8782	0.8115	0.084
Mof_C 	C 	0.17788	0.87188	0.9342	0.05
Mof_H 	H 	0.1793	0.8843	0.0514	0.033
Mof_C 	C 	0.22203	0.84544	0.4765	0.107
Mof_C 	C 	0.24336	0.82695	0.19	0.11
Mof_C 	C 	0.26728	0.84938	0.441	0.11
Mof_C 	C 	0.24315	0.81101	0.9918	0.021
Mof_C 	C 	0.21979	0.79926	0.9054	-0.107
Mof_H 	H 	0.2028	0.8023	0.9725	0.089
Mof_C 	C 	0.22186	0.78352	0.7246	0.075
Mof_H 	H 	0.206	0.775	0.6724	0.019
Mof_C 	C 	0.26745	0.7914	0.6936	0.061
Mof_H 	H 	0.2839	0.7888	0.6161	0.021
Mof_C 	C 	0.26767	0.80642	0.8705	-0.094
Mof_H 	H 	0.284	0.8143	0.9185	0.086
Mof_C 	C 	0.29358	0.85913	0.5427	0.057
Mof_C 	C 	0.31776	0.8534	0.4308	-0.107
Mof_H 	H 	0.3182	0.8441	0.2946	0.092
Mof_C 	C 	0.34172	0.86272	0.539	0.075
Mof_H 	H 	0.3586	0.8595	0.4703	0.019
Mof_C 	C 	0.31768	0.88036	0.8281	0.06
Mof_H 	H 	0.3176	0.8898	0.9635	0.007
Mof_C 	C 	0.2933	0.872	0.738	-0.108
Mof_H 	H 	0.2768	0.8753	0.8127	0.085
Mof_N 	N 	0.24524	0.85623	0.559	-0.136
Mof_N 	N 	0.21984	0.83111	0.2993	-0.14
Mof_N 	N 	0.26767	0.83606	0.258	-0.137
Mof_N 	N 	0.24486	0.77931	0.6159	-0.247
Mof_N 	N 	0.15465	0.8579	0.9095	-0.254
Mof_N 	N 	0.34167	0.87528	0.7264	-0.257
Mof_Zn	Zn	0.12531	0.36253	0.64012	1.211
Mof_Cl	Cl	0.13982	0.39407	0.8647	-0.526
Mof_Cl	Cl	0.11267	0.32328	0.777	-0.505
Mof_Cl	Cl	0.28951	0.25744	0.7205	-0.527
Mof_C 	C 	0.15288	0.34171	0.238	0.074
Mof_H 	H 	0.1365	0.3324	0.2169	0.02
Mof_C 	C 	0.1737	0.33751	0.0861	-0.104
Mof_H 	H 	0.1716	0.3259	0.9639	0.079
Mof_C 	C 	0.1977	0.35124	0.1233	0.069
Mof_C 	C 	0.19981	0.3684	0.2903	-0.101
Mof_H 	H 	0.216	0.3782	0.3115	0.089
Mof_C 	C 	0.17788	0.37188	0.4342	0.063
Mof_H 	H 	0.1793	0.3843	0.5514	0.024
Mof_C 	C 	0.22203	0.34544	0.9765	0.092
Mof_C 	C 	0.24336	0.32695	0.69	0.092
Mof_C 	C 	0.26728	0.34938	0.941	0.089
Mof_C 	C 	0.24315	0.31101	0.4918	0.041
Mof_C 	C 	0.21979	0.29926	0.4054	-0.115
Mof_H 	H 	0.2028	0.3023	0.4725	0.095
Mof_C 	C 	0.22186	0.28352	0.2246	0.082
Mof_H 	H 	0.206	0.275	0.1724	0.02
Mof_C 	C 	0.26745	0.2914	0.1936	0.069
Mof_H 	H 	0.2839	0.2888	0.1161	0.022
Mof_C 	C 	0.26767	0.30642	0.3705	-0.102
Mof_H 	H 	0.284	0.3143	0.4185	0.093
Mof_C 	C 	0.29358	0.35913	0.0427	0.085
Mof_C 	C 	0.31776	0.3534	0.9308	-0.14
Mof_H 	H 	0.3182	0.3441	0.7946	0.099
Mof_C 	C 	0.34172	0.36272	0.039	0.102
Mof_H 	H 	0.3586	0.3595	0.9703	0.008
Mof_C 	C 	0.31768	0.38036	0.3281	0.071
Mof_H 	H 	0.3176	0.3898	0.4635	0.009
Mof_C 	C 	0.2933	0.372	0.238	-0.124
Mof_H 	H 	0.2768	0.3753	0.3127	0.093
Mof_N 	N 	0.24524	0.35623	0.059	-0.124
Mof_N 	N 	0.21984	0.33111	0.7993	-0.138
Mof_N 	N 	0.26767	0.33606	0.758	-0.135
Mof_N 	N 	0.24486	0.27931	0.1159	-0.246
Mof_N 	N 	0.15465	0.3579	0.4095	-0.254
Mof_N 	N 	0.34167	0.37528	0.2264	-0.261
Mof_Zn	Zn	0.62531	0.86253	0.64012	1.211
Mof_Cl	Cl	0.63982	0.89407	0.8647	-0.526
Mof_Cl	Cl	0.61267	0.82328	0.777	-0.505
Mof_Cl	Cl	0.78951	0.75744	0.7205	-0.527
Mof_C 	C 	0.65288	0.84171	0.238	0.074
Mof_H 	H 	0.6365	0.8324	0.2169	0.02
Mof_C 	C 	0.6737	0.83751	0.0861	-0.104
Mof_H 	H 	0.6716	0.8259	0.9639	0.079
Mof_C 	C 	0.6977	0.85124	0.1233	0.069
Mof_C 	C 	0.69981	0.8684	0.2903	-0.101
Mof_H 	H 	0.716	0.8782	0.3115	0.089
Mof_C 	C 	0.67788	0.87188	0.4342	0.063
Mof_H 	H 	0.6793	0.8843	0.5514	0.024
Mof_C 	C 	0.72203	0.84544	0.9765	0.092
Mof_C 	C 	0.74336	0.82695	0.69	0.092
Mof_C 	C 	0.76728	0.84938	0.941	0.089
Mof_C 	C 	0.74315	0.81101	0.4918	0.041
Mof_C 	C 	0.71979	0.79926	0.4054	-0.115
Mof_H 	H 	0.7028	0.8023	0.4725	0.095
Mof_C 	C 	0.72186	0.78352	0.2246	0.082
Mof_H 	H 	0.706	0.775	0.1724	0.02
Mof_C 	C 	0.76745	0.7914	0.1936	0.069
Mof_H 	H 	0.7839	0.7888	0.1161	0.022
Mof_C 	C 	0.76767	0.80642	0.3705	-0.102
Mof_H 	H 	0.784	0.8143	0.4185	0.093
Mof_C 	C 	0.79358	0.85913	0.0427	0.085
Mof_C 	C 	0.81776	0.8534	0.9308	-0.14
Mof_H 	H 	0.8182	0.8441	0.7946	0.099
Mof_C 	C 	0.84172	0.86272	0.039	0.102
Mof_H 	H 	0.8586	0.8595	0.9703	0.008
Mof_C 	C 	0.81768	0.88036	0.3281	0.071
Mof_H 	H 	0.8176	0.8898	0.4635	0.009
Mof_C 	C 	0.7933	0.872	0.238	-0.124
Mof_H 	H 	0.7768	0.8753	0.3127	0.093
Mof_N 	N 	0.74524	0.85623	0.059	-0.124
Mof_N 	N 	0.71984	0.83111	0.7993	-0.138
Mof_N 	N 	0.76767	0.83606	0.758	-0.135
Mof_N 	N 	0.74486	0.77931	0.1159	-0.246
Mof_N 	N 	0.65465	0.8579	0.4095	-0.254
Mof_N 	N 	0.84167	0.87528	0.2264	-0.261
Mof_Zn	Zn	0.62531	0.36253	0.14012	1.212
Mof_Cl	Cl	0.63982	0.39407	0.3647	-0.52
Mof_Cl	Cl	0.61267	0.32328	0.277	-0.499
Mof_Cl	Cl	0.78951	0.25744	0.2205	-0.515
Mof_C 	C 	0.65288	0.34171	0.738	0.079
Mof_H 	H 	0.6365	0.3324	0.7169	0.016
Mof_C 	C 	0.6737	0.33751	0.5861	-0.118
Mof_H 	H 	0.6716	0.3259	0.4639	0.09
Mof_C 	C 	0.6977	0.35124	0.6233	0.061
Mof_C 	C 	0.69981	0.3684	0.7903	-0.094
Mof_H 	H 	0.716	0.3782	0.8115	0.084
Mof_C 	C 	0.67788	0.37188	0.9342	0.05
Mof_H 	H 	0.6793	0.3843	0.0514	0.033
Mof_C 	C 	0.72203	0.34544	0.4765	0.107
Mof_C 	C 	0.74336	0.32695	0.19	0.11
Mof_C 	C 	0.76728	0.34938	0.441	0.11
Mof_C 	C 	0.74315	0.31101	0.9918	0.021
Mof_C 	C 	0.71979	0.29926	0.9054	-0.107
Mof_H 	H 	0.7028	0.3023	0.9725	0.089
Mof_C 	C 	0.72186	0.28352	0.7246	0.075
Mof_H 	H 	0.706	0.275	0.6724	0.019
Mof_C 	C 	0.76745	0.2914	0.6936	0.061
Mof_H 	H 	0.7839	0.2888	0.6161	0.021
Mof_C 	C 	0.76767	0.30642	0.8705	-0.094
Mof_H 	H 	0.784	0.3143	0.9185	0.086
Mof_C 	C 	0.79358	0.35913	0.5427	0.057
Mof_C 	C 	0.81776	0.3534	0.4308	-0.107
Mof_H 	H 	0.8182	0.3441	0.2946	0.092
Mof_C 	C 	0.84172	0.36272	0.539	0.075
Mof_H 	H 	0.8586	0.3595	0.4703	0.02
Mof_C 	C 	0.81768	0.38036	0.8281	0.06
Mof_H 	H 	0.8176	0.3898	0.9635	0.007
Mof_C 	C 	0.7933	0.372	0.738	-0.108
Mof_H 	H 	0.7768	0.3753	0.8127	0.085
Mof_N 	N 	0.74524	0.35623	0.559	-0.136
Mof_N 	N 	0.71984	0.33111	0.2993	-0.14
Mof_N 	N 	0.76767	0.33606	0.258	-0.137
Mof_N 	N 	0.74486	0.27931	0.6159	-0.247
Mof_N 	N 	0.65465	0.3579	0.9095	-0.254
Mof_N 	N 	0.84167	0.37528	0.7264	-0.257
Mof_Zn	Zn	0.12469	0.11253	0.39012	1.211
Mof_Cl	Cl	0.11018	0.14407	0.6147	-0.52
Mof_Cl	Cl	0.13733	0.07328	0.527	-0.501
Mof_Cl	Cl	0.96049	0.00744	0.4705	-0.523
Mof_C 	C 	0.09712	0.09171	0.988	0.078
Mof_H 	H 	0.1135	0.0824	0.9669	0.016
Mof_C 	C 	0.0763	0.08751	0.8361	-0.119
Mof_H 	H 	0.0784	0.0759	0.7139	0.09
Mof_C 	C 	0.0523	0.10124	0.8733	0.062
Mof_C 	C 	0.05019	0.1184	0.0403	-0.098
Mof_H 	H 	0.034	0.1282	0.0615	0.088
Mof_C 	C 	0.07212	0.12188	0.1842	0.062
Mof_H 	H 	0.0707	0.1343	0.3014	0.025
Mof_C 	C 	0.02797	0.09544	0.7265	0.106
Mof_C 	C 	0.00664	0.07695	0.44	0.092
Mof_C 	C 	0.98272	0.09938	0.691	0.11
Mof_C 	C 	0.00685	0.06101	0.2418	0.043
Mof_C 	C 	0.03021	0.04926	0.1554	-0.119
Mof_H 	H 	0.0472	0.0523	0.2225	0.096
Mof_C 	C 	0.02814	0.03352	0.9746	0.085
Mof_H 	H 	0.044	0.025	0.9224	0.017
Mof_C 	C 	0.98255	0.0414	0.9436	0.073
Mof_H 	H 	0.9661	0.0388	0.8661	0.018
Mof_C 	C 	0.98233	0.05642	0.1205	-0.107
Mof_H 	H 	0.966	0.0643	0.1685	0.094
Mof_C 	C 	0.95642	0.10913	0.7927	0.055
Mof_C 	C 	0.93224	0.1034	0.6808	-0.106
Mof_H 	H 	0.9318	0.0941	0.5446	0.089
Mof_C 	C 	0.90828	0.11272	0.789	0.074
Mof_H 	H 	0.8914	0.1095	0.7203	0.02
Mof_C 	C 	0.93232	0.13036	0.0781	0.06
Mof_H 	H 	0.9324	0.1398	0.2135	0.014
Mof_C 	C 	0.9567	0.122	0.988	-0.104
Mof_H 	H 	0.9732	0.1253	0.0627	0.086
Mof_N 	N 	0.00476	0.10623	0.809	-0.136
Mof_N 	N 	0.03016	0.08111	0.5493	-0.139
Mof_N 	N 	0.98233	0.08606	0.508	-0.137
Mof_N 	N 	0.00514	0.02931	0.8659	-0.251
Mof_N 	N 	0.09535	0.1079	0.1595	-0.254
Mof_N 	N 	0.90833	0.12528	0.9764	-0.254
Mof_Zn	Zn	0.12469	0.61253	0.89012	1.206
Mof_Cl	Cl	0.11018	0.64407	0.1147	-0.509
Mof_Cl	Cl	0.13733	0.57328	0.027	-0.489
Mof_Cl	Cl	0.96049	0.50744	0.9705	-0.53
Mof_C 	C 	0.09712	0.59171	0.488	0.081
Mof_H 	H 	0.1135	0.5824	0.4669	0.015
Mof_C 	C 	0.0763	0.58751	0.3361	-0.121
Mof_H 	H 	0.0784	0.5759	0.2139	0.092
Mof_C 	C 	0.0523	0.60124	0.3733	0.065
Mof_C 	C 	0.05019	0.6184	0.5403	-0.101
Mof_H 	H 	0.034	0.6282	0.5615	0.088
Mof_C 	C 	0.07212	0.62188	0.6842	0.062
Mof_H 	H 	0.0707	0.6343	0.8014	0.02
Mof_C 	C 	0.02797	0.59544	0.2265	0.106
Mof_C 	C 	0.00664	0.57695	0.94	0.076
Mof_C 	C 	0.98272	0.59938	0.191	0.11
Mof_C 	C 	0.00685	0.56101	0.7418	0.045
Mof_C 	C 	0.03021	0.54926	0.6554	-0.118
Mof_H 	H 	0.0472	0.5523	0.7225	0.094
Mof_C 	C 	0.02814	0.53352	0.4746	0.083
Mof_H 	H 	0.044	0.525	0.4224	0.019
Mof_C 	C 	0.98255	0.5414	0.4436	0.07
Mof_H 	H 	0.9661	0.5388	0.3661	0.02
Mof_C 	C 	0.98233	0.55642	0.6205	-0.105
Mof_H 	H 	0.966	0.5643	0.6685	0.093
Mof_C 	C 	0.95642	0.60913	0.2927	0.056
Mof_C 	C 	0.93224	0.6034	0.1808	-0.106
Mof_H 	H 	0.9318	0.5941	0.0446	0.091
Mof_C 	C 	0.90828	0.61272	0.289	0.075
Mof_H 	H 	0.8914	0.6095	0.2203	0.022
Mof_C 	C 	0.93232	0.63036	0.5781	0.061
Mof_H 	H 	0.9324	0.6398	0.7135	0.011
Mof_C 	C 	0.9567	0.622	0.488	-0.106
Mof_H 	H 	0.9732	0.6253	0.5627	0.086
Mof_N 	N 	0.00476	0.60623	0.309	-0.135
Mof_N 	N 	0.03016	0.58111	0.0493	-0.131
Mof_N 	N 	0.98233	0.58606	0.008	-0.13
Mof_N 	N 	0.00514	0.52931	0.3659	-0.249
Mof_N 	N 	0.09535	0.6079	0.6595	-0.258
Mof_N 	N 	0.90833	0.62528	0.4764	-0.254
Mof_Zn	Zn	0.62469	0.11253	0.89012	1.206
Mof_Cl	Cl	0.61018	0.14407	0.1147	-0.509
Mof_Cl	Cl	0.63733	0.07328	0.027	-0.489
Mof_Cl	Cl	0.46049	0.00744	0.9705	-0.531
Mof_C 	C 	0.59712	0.09171	0.488	0.081
Mof_H 	H 	0.6135	0.0824	0.4669	0.015
Mof_C 	C 	0.5763	0.08751	0.3361	-0.121
Mof_H 	H 	0.5784	0.0759	0.2139	0.092
Mof_C 	C 	0.5523	0.10124	0.3733	0.065
Mof_C 	C 	0.55019	0.1184	0.5403	-0.101
Mof_H 	H 	0.534	0.1282	0.5615	0.088
Mof_C 	C 	0.57212	0.12188	0.6842	0.062
Mof_H 	H 	0.5707	0.1343	0.8014	0.02
Mof_C 	C 	0.52797	0.09544	0.2265	0.106
Mof_C 	C 	0.50664	0.07695	0.94	0.077
Mof_C 	C 	0.48272	0.09938	0.191	0.11
Mof_C 	C 	0.50685	0.06101	0.7418	0.045
Mof_C 	C 	0.53021	0.04926	0.6554	-0.119
Mof_H 	H 	0.5472	0.0523	0.7225	0.094
Mof_C 	C 	0.52814	0.03352	0.4746	0.083
Mof_H 	H 	0.544	0.025	0.4224	0.018
Mof_C 	C 	0.48255	0.0414	0.4436	0.07
Mof_H 	H 	0.4661	0.0388	0.3661	0.02
Mof_C 	C 	0.48233	0.05642	0.6205	-0.106
Mof_H 	H 	0.466	0.0643	0.6685	0.093
Mof_C 	C 	0.45642	0.10913	0.2927	0.056
Mof_C 	C 	0.43224	0.1034	0.1808	-0.106
Mof_H 	H 	0.4318	0.0941	0.0446	0.091
Mof_C 	C 	0.40828	0.11272	0.289	0.075
Mof_H 	H 	0.3914	0.1095	0.2203	0.022
Mof_C 	C 	0.43232	0.13036	0.5781	0.061
Mof_H 	H 	0.4324	0.1398	0.7135	0.011
Mof_C 	C 	0.4567	0.122	0.488	-0.106
Mof_H 	H 	0.4732	0.1253	0.5627	0.086
Mof_N 	N 	0.50476	0.10623	0.309	-0.134
Mof_N 	N 	0.53016	0.08111	0.0493	-0.131
Mof_N 	N 	0.48233	0.08606	0.008	-0.13
Mof_N 	N 	0.50514	0.02931	0.3659	-0.249
Mof_N 	N 	0.59535	0.1079	0.6595	-0.258
Mof_N 	N 	0.40833	0.12528	0.4764	-0.254
Mof_Zn	Zn	0.62469	0.61253	0.39012	1.211
Mof_Cl	Cl	0.61018	0.64407	0.6147	-0.52
Mof_Cl	Cl	0.63733	0.57328	0.527	-0.501
Mof_Cl	Cl	0.46049	0.50744	0.4705	-0.523
Mof_C 	C 	0.59712	0.59171	0.988	0.078
Mof_H 	H 	0.6135	0.5824	0.9669	0.016
Mof_C 	C 	0.5763	0.58751	0.8361	-0.119
Mof_H 	H 	0.5784	0.5759	0.7139	0.09
Mof_C 	C 	0.5523	0.60124	0.8733	0.062
Mof_C 	C 	0.55019	0.6184	0.0403	-0.098
Mof_H 	H 	0.534	0.6282	0.0615	0.088
Mof_C 	C 	0.57212	0.62188	0.1842	0.062
Mof_H 	H 	0.5707	0.6343	0.3014	0.025
Mof_C 	C 	0.52797	0.59544	0.7265	0.106
Mof_C 	C 	0.50664	0.57695	0.44	0.093
Mof_C 	C 	0.48272	0.59938	0.691	0.109
Mof_C 	C 	0.50685	0.56101	0.2418	0.044
Mof_C 	C 	0.53021	0.54926	0.1554	-0.119
Mof_H 	H 	0.5472	0.5523	0.2225	0.097
Mof_C 	C 	0.52814	0.53352	0.9746	0.085
Mof_H 	H 	0.544	0.525	0.9224	0.017
Mof_C 	C 	0.48255	0.5414	0.9436	0.073
Mof_H 	H 	0.4661	0.5388	0.8661	0.019
Mof_C 	C 	0.48233	0.55642	0.1205	-0.108
Mof_H 	H 	0.466	0.5643	0.1685	0.095
Mof_C 	C 	0.45642	0.60913	0.7927	0.055
Mof_C 	C 	0.43224	0.6034	0.6808	-0.106
Mof_H 	H 	0.4318	0.5941	0.5446	0.089
Mof_C 	C 	0.40828	0.61272	0.789	0.074
Mof_H 	H 	0.3914	0.6095	0.7203	0.02
Mof_C 	C 	0.43232	0.63036	0.0781	0.06
Mof_H 	H 	0.4324	0.6398	0.2135	0.013
Mof_C 	C 	0.4567	0.622	0.988	-0.104
Mof_H 	H 	0.4732	0.6253	0.0627	0.086
Mof_N 	N 	0.50476	0.60623	0.809	-0.135
Mof_N 	N 	0.53016	0.58111	0.5493	-0.139
Mof_N 	N 	0.48233	0.58606	0.508	-0.138
Mof_N 	N 	0.50514	0.52931	0.8659	-0.25
Mof_N 	N 	0.59535	0.6079	0.1595	-0.254
Mof_N 	N 	0.40833	0.62528	0.9764	-0.254
Mof_Zn	Zn	0.37531	0.38747	0.39012	1.211
Mof_Cl	Cl	0.38982	0.35593	0.6147	-0.52
Mof_Cl	Cl	0.36267	0.42672	0.527	-0.501
Mof_Cl	Cl	0.53951	0.49256	0.4705	-0.523
Mof_C 	C 	0.40288	0.40829	0.988	0.078
Mof_H 	H 	0.3865	0.4176	0.9669	0.016
Mof_C 	C 	0.4237	0.41249	0.8361	-0.119
Mof_H 	H 	0.4216	0.4241	0.7139	0.09
Mof_C 	C 	0.4477	0.39876	0.8733	0.062
Mof_C 	C 	0.44981	0.3816	0.0403	-0.098
Mof_H 	H 	0.466	0.3718	0.0615	0.088
Mof_C 	C 	0.42788	0.37812	0.1842	0.062
Mof_H 	H 	0.4293	0.3657	0.3014	0.025
Mof_C 	C 	0.47203	0.40456	0.7265	0.106
Mof_C 	C 	0.49336	0.42305	0.44	0.093
Mof_C 	C 	0.51728	0.40062	0.691	0.109
Mof_C 	C 	0.49315	0.43899	0.2418	0.044
Mof_C 	C 	0.46979	0.45074	0.1554	-0.119
Mof_H 	H 	0.4528	0.4477	0.2225	0.097
Mof_C 	C 	0.47186	0.46648	0.9746	0.085
Mof_H 	H 	0.456	0.475	0.9224	0.017
Mof_C 	C 	0.51745	0.4586	0.9436	0.073
Mof_H 	H 	0.5339	0.4612	0.8661	0.019
Mof_C 	C 	0.51767	0.44358	0.1205	-0.108
Mof_H 	H 	0.534	0.4357	0.1685	0.095
Mof_C 	C 	0.54358	0.39087	0.7927	0.055
Mof_C 	C 	0.56776	0.3966	0.6808	-0.106
Mof_H 	H 	0.5682	0.4059	0.5446	0.089
Mof_C 	C 	0.59172	0.38728	0.789	0.074
Mof_H 	H 	0.6086	0.3905	0.7203	0.02
Mof_C 	C 	0.56768	0.36964	0.0781	0.06
Mof_H 	H 	0.5676	0.3602	0.2135	0.013
Mof_C 	C 	0.5433	0.378	0.988	-0.104
Mof_H 	H 	0.5268	0.3747	0.0627	0.086
Mof_N 	N 	0.49524	0.39377	0.809	-0.135
Mof_N 	N 	0.46984	0.41889	0.5493	-0.139
Mof_N 	N 	0.51767	0.41394	0.508	-0.138
Mof_N 	N 	0.49486	0.47069	0.8659	-0.25
Mof_N 	N 	0.40465	0.3921	0.1595	-0.254
Mof_N 	N 	0.59167	0.37472	0.9764	-0.254
Mof_Zn	Zn	0.37531	0.88747	0.89012	1.206
Mof_Cl	Cl	0.38982	0.85593	0.1147	-0.509
Mof_Cl	Cl	0.36267	0.92672	0.027	-0.489
Mof_Cl	Cl	0.53951	0.99256	0.9705	-0.53
Mof_C 	C 	0.40288	0.90829	0.488	0.081
Mof_H 	H 	0.3865	0.9176	0.4669	0.015
Mof_C 	C 	0.4237	0.91249	0.3361	-0.121
Mof_H 	H 	0.4216	0.9241	0.2139	0.092
Mof_C 	C 	0.4477	0.89876	0.3733	0.065
Mof_C 	C 	0.44981	0.8816	0.5403	-0.101
Mof_H 	H 	0.466	0.8718	0.5615	0.088
Mof_C 	C 	0.42788	0.87812	0.6842	0.062
Mof_H 	H 	0.4293	0.8657	0.8014	0.02
Mof_C 	C 	0.47203	0.90456	0.2265	0.106
Mof_C 	C 	0.49336	0.92305	0.94	0.077
Mof_C 	C 	0.51728	0.90062	0.191	0.11
Mof_C 	C 	0.49315	0.93899	0.7418	0.045
Mof_C 	C 	0.46979	0.95074	0.6554	-0.119
Mof_H 	H 	0.4528	0.9477	0.7225	0.094
Mof_C 	C 	0.47186	0.96648	0.4746	0.083
Mof_H 	H 	0.456	0.975	0.4224	0.019
Mof_C 	C 	0.51745	0.9586	0.4436	0.07
Mof_H 	H 	0.5339	0.9612	0.3661	0.021
Mof_C 	C 	0.51767	0.94358	0.6205	-0.106
Mof_H 	H 	0.534	0.9357	0.6685	0.093
Mof_C 	C 	0.54358	0.89087	0.2927	0.056
Mof_C 	C 	0.56776	0.8966	0.1808	-0.106
Mof_H 	H 	0.5682	0.9059	0.0446	0.091
Mof_C 	C 	0.59172	0.88728	0.289	0.075
Mof_H 	H 	0.6086	0.8905	0.2203	0.022
Mof_C 	C 	0.56768	0.86964	0.5781	0.061
Mof_H 	H 	0.5676	0.8602	0.7135	0.011
Mof_C 	C 	0.5433	0.878	0.488	-0.106
Mof_H 	H 	0.5268	0.8747	0.5627	0.086
Mof_N 	N 	0.49524	0.89377	0.309	-0.134
Mof_N 	N 	0.46984	0.91889	0.0493	-0.131
Mof_N 	N 	0.51767	0.91394	0.008	-0.13
Mof_N 	N 	0.49486	0.97069	0.3659	-0.248
Mof_N 	N 	0.40465	0.8921	0.6595	-0.258
Mof_N 	N 	0.59167	0.87472	0.4764	-0.254
Mof_Zn	Zn	0.87531	0.38747	0.89012	1.206
Mof_Cl	Cl	0.88982	0.35593	0.1147	-0.509
Mof_Cl	Cl	0.86267	0.42672	0.027	-0.489
Mof_Cl	Cl	0.03951	0.49256	0.9705	-0.53
Mof_C 	C 	0.90288	0.40829	0.488	0.081
Mof_H 	H 	0.8865	0.4176	0.4669	0.015
Mof_C 	C 	0.9237	0.41249	0.3361	-0.121
Mof_H 	H 	0.9216	0.4241	0.2139	0.092
Mof_C 	C 	0.9477	0.39876	0.3733	0.065
Mof_C 	C 	0.94981	0.3816	0.5403	-0.101
Mof_H 	H 	0.966	0.3718	0.5615	0.088
Mof_C 	C 	0.92788	0.37812	0.6842	0.062
Mof_H 	H 	0.9293	0.3657	0.8014	0.02
Mof_C 	C 	0.97203	0.40456	0.2265	0.106
Mof_C 	C 	0.99336	0.42305	0.94	0.077
Mof_C 	C 	0.01728	0.40062	0.191	0.109
Mof_C 	C 	0.99315	0.43899	0.7418	0.046
Mof_C 	C 	0.96979	0.45074	0.6554	-0.119
Mof_H 	H 	0.9528	0.4477	0.7225	0.094
Mof_C 	C 	0.97186	0.46648	0.4746	0.083
Mof_H 	H 	0.956	0.475	0.4224	0.018
Mof_C 	C 	0.01745	0.4586	0.4436	0.069
Mof_H 	H 	0.0339	0.4612	0.3661	0.021
Mof_C 	C 	0.01767	0.44358	0.6205	-0.106
Mof_H 	H 	0.034	0.4357	0.6685	0.093
Mof_C 	C 	0.04358	0.39087	0.2927	0.056
Mof_C 	C 	0.06776	0.3966	0.1808	-0.106
Mof_H 	H 	0.0682	0.4059	0.0446	0.091
Mof_C 	C 	0.09172	0.38728	0.289	0.075
Mof_H 	H 	0.1086	0.3905	0.2203	0.022
Mof_C 	C 	0.06768	0.36964	0.5781	0.061
Mof_H 	H 	0.0676	0.3602	0.7135	0.011
Mof_C 	C 	0.0433	0.378	0.488	-0.106
Mof_H 	H 	0.0268	0.3747	0.5627	0.086
Mof_N 	N 	0.99524	0.39377	0.309	-0.134
Mof_N 	N 	0.96984	0.41889	0.0493	-0.131
Mof_N 	N 	0.01767	0.41394	0.008	-0.13
Mof_N 	N 	0.99486	0.47069	0.3659	-0.248
Mof_N 	N 	0.90465	0.3921	0.6595	-0.258
Mof_N 	N 	0.09167	0.37472	0.4764	-0.254
Mof_Zn	Zn	0.87531	0.88747	0.39012	1.211
Mof_Cl	Cl	0.88982	0.85593	0.6147	-0.52
Mof_Cl	Cl	0.86267	0.92672	0.527	-0.501
Mof_Cl	Cl	0.03951	0.99256	0.4705	-0.522
Mof_C 	C 	0.90288	0.90829	0.988	0.078
Mof_H 	H 	0.8865	0.9176	0.9669	0.016
Mof_C 	C 	0.9237	0.91249	0.8361	-0.119
Mof_H 	H 	0.9216	0.9241	0.7139	0.09
Mof_C 	C 	0.9477	0.89876	0.8733	0.062
Mof_C 	C 	0.94981	0.8816	0.0403	-0.098
Mof_H 	H 	0.966	0.8718	0.0615	0.088
Mof_C 	C 	0.92788	0.87812	0.1842	0.062
Mof_H 	H 	0.9293	0.8657	0.3014	0.025
Mof_C 	C 	0.97203	0.90456	0.7265	0.106
Mof_C 	C 	0.99336	0.92305	0.44	0.093
Mof_C 	C 	0.01728	0.90062	0.691	0.109
Mof_C 	C 	0.99315	0.93899	0.2418	0.044
Mof_C 	C 	0.96979	0.95074	0.1554	-0.12
Mof_H 	H 	0.9528	0.9477	0.2225	0.097
Mof_C 	C 	0.97186	0.96648	0.9746	0.086
Mof_H 	H 	0.956	0.975	0.9224	0.017
Mof_C 	C 	0.01745	0.9586	0.9436	0.072
Mof_H 	H 	0.0339	0.9612	0.8661	0.019
Mof_C 	C 	0.01767	0.94358	0.1205	-0.108
Mof_H 	H 	0.034	0.9357	0.1685	0.095
Mof_C 	C 	0.04358	0.89087	0.7927	0.055
Mof_C 	C 	0.06776	0.8966	0.6808	-0.106
Mof_H 	H 	0.0682	0.9059	0.5446	0.089
Mof_C 	C 	0.09172	0.88728	0.789	0.074
Mof_H 	H 	0.1086	0.8905	0.7203	0.02
Mof_C 	C 	0.06768	0.86964	0.0781	0.06
Mof_H 	H 	0.0676	0.8602	0.2135	0.013
Mof_C 	C 	0.0433	0.878	0.988	-0.104
Mof_H 	H 	0.0268	0.8747	0.0627	0.086
Mof_N 	N 	0.99524	0.89377	0.809	-0.135
Mof_N 	N 	0.96984	0.91889	0.5493	-0.139
Mof_N 	N 	0.01767	0.91394	0.508	-0.138
Mof_N 	N 	0.99486	0.97069	0.8659	-0.25
Mof_N 	N 	0.90465	0.8921	0.1595	-0.254
Mof_N 	N 	0.09167	0.87472	0.9764	-0.254
Mof_Zn	Zn	0.75	0.25	0.3789	1.21
Mof_Zn	Zn	0.75	0.75	0.8789	1.207
Mof_Zn	Zn	0.25	0.75	0.3789	1.21
Mof_Zn	Zn	0.25	0.25	0.8789	1.207
Mof_Zn	Zn	2.8793e-34	0	0.6289	1.209
Mof_Zn	Zn	5.24566e-33	0.5	0.1289	1.212
Mof_Zn	Zn	0.5	0.5	0.6289	1.21
Mof_Zn	Zn	0.5	2.07466e-34	0.1289	1.212
_end
