data_functionalizedCrystal
_audit_creation_method	'EQeq! by Chris Wilmer'
_symmetry_space_group_name_H-M	'P1'
_symmetry_Int_Tables_number	1
_symmetry_cell_setting	triclinic
loop_
_symmetry_equiv_pos_as_xyz
  x,y,z
_cell_length_a	7.7008
_cell_length_b	9.9155
_cell_length_c	14.9899
_cell_angle_alpha	90
_cell_angle_beta	98.466
_cell_angle_gamma	90
loop_
_atom_site_label
_atom_site_type_symbol
_atom_site_fract_x
_atom_site_fract_y
_atom_site_fract_z
_atom_site_charge
Mof_Nd	Nd	0.85508	0.54385	0.64001	2.477
Mof_Nd	Nd	0.64492	0.04385	0.85999	2.449
Mof_Nd	Nd	0.14492	0.45615	0.35999	2.478
Mof_Nd	Nd	0.35508	0.95615	0.14001	2.45
Mof_H 	H 	0.8261	0.1109	0.6339	-0.082
Mof_H 	H 	0.796	0.109	0.3647	-0.061
Mof_H 	H 	0.6173	0.8014	0.4844	-0.032
Mof_H 	H 	0.6739	0.6109	0.8661	-0.086
Mof_H 	H 	0.704	0.609	0.1353	-0.064
Mof_H 	H 	0.8827	0.3014	0.0156	-0.034
Mof_H 	H 	0.1739	0.8891	0.3661	-0.082
Mof_H 	H 	0.204	0.891	0.6353	-0.061
Mof_H 	H 	0.3827	0.1986	0.5156	-0.032
Mof_H 	H 	0.3261	0.3891	0.1339	-0.086
Mof_H 	H 	0.296	0.391	0.8647	-0.064
Mof_H 	H 	0.1173	0.6986	0.9844	-0.034
Mof_C 	C 	0.6916	0.863	0.65488	0.565
Mof_C 	C 	0.7203	0.9415	0.57306	-0.311
Mof_C 	C 	0.7958	0.0687	0.57844	0.238
Mof_C 	C 	0.8254	0.132	0.49911	-0.319
Mof_C 	C 	0.9112	0.2679	0.50097	0.631
Mof_C 	C 	0.7737	0.0672	0.41737	0.182
Mof_C 	C 	0.67	0.886	0.48792	0.178
Mof_C 	C 	0.4573	0.4682	0.53867	0.276
Mof_C 	C 	0.8084	0.363	0.84512	0.571
Mof_C 	C 	0.7797	0.4415	0.92694	-0.328
Mof_C 	C 	0.7042	0.5687	0.92156	0.256
Mof_C 	C 	0.6746	0.632	0.00089	-0.333
Mof_C 	C 	0.5888	0.7679	0.99903	0.641
Mof_C 	C 	0.7263	0.5672	0.08263	0.189
Mof_C 	C 	0.83	0.386	0.01208	0.187
Mof_C 	C 	0.0427	0.9682	0.96133	0.274
Mof_C 	C 	0.3084	0.137	0.34512	0.565
Mof_C 	C 	0.2797	0.0585	0.42694	-0.311
Mof_C 	C 	0.2042	0.9313	0.42156	0.238
Mof_C 	C 	0.1746	0.868	0.50089	-0.319
Mof_C 	C 	0.0888	0.7321	0.49903	0.631
Mof_C 	C 	0.2263	0.9328	0.58263	0.182
Mof_C 	C 	0.33	0.114	0.51208	0.178
Mof_C 	C 	0.5427	0.5318	0.46133	0.276
Mof_C 	C 	0.1916	0.637	0.15488	0.571
Mof_C 	C 	0.2203	0.5585	0.07306	-0.328
Mof_C 	C 	0.2958	0.4313	0.07844	0.256
Mof_C 	C 	0.3254	0.368	0.99911	-0.333
Mof_C 	C 	0.4112	0.2321	0.00097	0.641
Mof_C 	C 	0.2737	0.4328	0.91737	0.189
Mof_C 	C 	0.17	0.614	0.98792	0.187
Mof_C 	C 	0.9573	0.0318	0.03867	0.274
Mof_N 	N 	0.6926	0.9465	0.41098	-0.207
Mof_N 	N 	0.8074	0.4465	0.08902	-0.211
Mof_N 	N 	0.3074	0.0535	0.58902	-0.207
Mof_N 	N 	0.1926	0.5535	0.91098	-0.211
Mof_O 	O 	0.6643	0.73741	0.64542	-0.601
Mof_O 	O 	0.6961	0.9237	0.72829	-0.64
Mof_O 	O 	0.9141	0.3368	0.57129	-0.659
Mof_O 	O 	0.9745	0.3038	0.43276	-0.673
Mof_O 	O 	0.5524	0.4493	0.61227	-0.478
Mof_O 	O 	0.2968	0.4393	0.52049	-0.475
Mof_O 	O 	0.8357	0.23741	0.85458	-0.605
Mof_O 	O 	0.8039	0.4237	0.77171	-0.649
Mof_O 	O 	0.5859	0.8368	0.92871	-0.654
Mof_O 	O 	0.5255	0.8038	0.06724	-0.676
Mof_O 	O 	0.9476	0.9493	0.88773	-0.469
Mof_O 	O 	0.2032	0.9393	0.97951	-0.468
Mof_O 	O 	0.3357	0.26259	0.35458	-0.601
Mof_O 	O 	0.3039	0.0763	0.27171	-0.64
Mof_O 	O 	0.0859	0.6632	0.42871	-0.659
Mof_O 	O 	0.0255	0.6962	0.56724	-0.673
Mof_O 	O 	0.4476	0.5507	0.38773	-0.478
Mof_O 	O 	0.7032	0.5607	0.47951	-0.475
Mof_O 	O 	0.1643	0.76259	0.14542	-0.605
Mof_O 	O 	0.1961	0.5763	0.22829	-0.649
Mof_O 	O 	0.4141	0.1632	0.07129	-0.654
Mof_O 	O 	0.4745	0.1962	0.93276	-0.676
Mof_O 	O 	0.0524	0.0507	0.11227	-0.469
Mof_O 	O 	0.7968	0.0607	0.02049	-0.468
_end
