data_functionalizedCrystal
_audit_creation_method	'EQeq! by Chris Wilmer'
_symmetry_space_group_name_H-M	'P1'
_symmetry_Int_Tables_number	1
_symmetry_cell_setting	triclinic
loop_
_symmetry_equiv_pos_as_xyz
  x,y,z
_cell_length_a	7.185
_cell_length_b	9.1854
_cell_length_c	21.544
_cell_angle_alpha	90
_cell_angle_beta	90
_cell_angle_gamma	90
loop_
_atom_site_label
_atom_site_type_symbol
_atom_site_fract_x
_atom_site_fract_y
_atom_site_fract_z
_atom_site_charge
Mof_C 	C 	0.9106	0.2104	0.0951	0.56
Mof_C 	C 	0.9136	0.257	0.1532	-0.311
Mof_H 	H 	0.0275	0.2797	0.1712	0.141
Mof_N 	N 	0.6494	0.4008	0.338	-0.154
Mof_N 	N 	0.5929	0.3515	0.2855	-0.079
Mof_O 	O 	0.6059	0.1179	0.971	-0.497
Mof_F 	F 	0.095	0.21	0.0705	-0.445
Mof_C 	C 	0.4106	0.7104	0.5951	0.641
Mof_C 	C 	0.4136	0.757	0.6532	-0.518
Mof_H 	H 	0.5275	0.7797	0.6712	0.283
Mof_N 	N 	0.1494	0.9008	0.838	-0.129
Mof_N 	N 	0.0929	0.8515	0.7855	-0.063
Mof_O 	O 	0.1059	0.6179	0.471	-0.497
Mof_F 	F 	0.595	0.71	0.5705	-0.403
Mof_C 	C 	0.0894	0.7896	0.0951	0.601
Mof_C 	C 	0.0864	0.743	0.1532	-0.601
Mof_H 	H 	0.9725	0.7203	0.1712	0.348
Mof_N 	N 	0.3506	0.5992	0.338	-0.15
Mof_N 	N 	0.4071	0.6485	0.2855	-0.054
Mof_O 	O 	0.3941	0.8821	0.971	-0.416
Mof_F 	F 	0.905	0.79	0.0705	-0.347
Mof_C 	C 	0.5894	0.2896	0.5951	0.573
Mof_C 	C 	0.5864	0.243	0.6532	-0.445
Mof_H 	H 	0.4725	0.2203	0.6712	0.222
Mof_N 	N 	0.8506	0.0992	0.838	-0.153
Mof_N 	N 	0.9071	0.1485	0.7855	-0.067
Mof_O 	O 	0.8941	0.3821	0.471	-0.444
Mof_F 	F 	0.405	0.29	0.5705	-0.428
Mof_C 	C 	0.4106	0.7896	0.0951	0.615
Mof_C 	C 	0.4136	0.743	0.1532	-0.489
Mof_H 	H 	0.5275	0.7203	0.1712	0.269
Mof_N 	N 	0.1494	0.5992	0.338	-0.159
Mof_N 	N 	0.0929	0.6485	0.2855	-0.075
Mof_O 	O 	0.1059	0.8821	0.971	-0.441
Mof_F 	F 	0.595	0.79	0.0705	-0.378
Mof_C 	C 	0.9106	0.2896	0.5951	0.587
Mof_C 	C 	0.9136	0.243	0.6532	-0.328
Mof_H 	H 	0.0275	0.2203	0.6712	0.138
Mof_N 	N 	0.6494	0.0992	0.838	-0.169
Mof_N 	N 	0.5929	0.1485	0.7855	-0.09
Mof_O 	O 	0.6059	0.3821	0.471	-0.479
Mof_F 	F 	0.095	0.29	0.5705	-0.46
Mof_C 	C 	0.5894	0.2104	0.0951	0.547
Mof_C 	C 	0.5864	0.257	0.1532	-0.426
Mof_H 	H 	0.4725	0.2797	0.1712	0.223
Mof_N 	N 	0.8506	0.4008	0.338	-0.138
Mof_N 	N 	0.9071	0.3515	0.2855	-0.057
Mof_O 	O 	0.8941	0.1179	0.971	-0.46
Mof_F 	F 	0.405	0.21	0.0705	-0.413
Mof_C 	C 	0.0894	0.7104	0.5951	0.626
Mof_C 	C 	0.0864	0.757	0.6532	-0.63
Mof_H 	H 	0.9725	0.7797	0.6712	0.363
Mof_N 	N 	0.3506	0.9008	0.838	-0.12
Mof_N 	N 	0.4071	0.8515	0.7855	-0.042
Mof_O 	O 	0.3941	0.6179	0.471	-0.471
Mof_F 	F 	0.905	0.71	0.5705	-0.371
Mof_C 	C 	0.75	0.1824	0.0604	-0.404
Mof_C 	C 	0.75	0.314	0.2516	0.025
Mof_C 	C 	0.75	0.1388	0.9956	0.637
Mof_C 	C 	0.75	0.2733	0.1887	0.241
Mof_C 	C 	0.25	0.6824	0.5604	-0.513
Mof_C 	C 	0.25	0.814	0.7516	-0.023
Mof_C 	C 	0.25	0.6388	0.4956	0.744
Mof_C 	C 	0.25	0.7733	0.6887	0.398
Mof_C 	C 	0.25	0.8176	0.0604	-0.412
Mof_C 	C 	0.25	0.686	0.2516	-0.016
Mof_C 	C 	0.25	0.8612	0.9956	0.637
Mof_C 	C 	0.25	0.7267	0.1887	0.375
Mof_C 	C 	0.75	0.3176	0.5604	-0.474
Mof_C 	C 	0.75	0.186	0.7516	0.019
Mof_C 	C 	0.75	0.3612	0.4956	0.715
Mof_C 	C 	0.75	0.2267	0.6887	0.25
Mof_Cu	Cu	0.5	0.5	0.4036	0.908
Mof_Cu	Cu	-2.53496e-32	-1.77541e-32	0.9036	0.822
Mof_Cu	Cu	-4.33961e-33	0.5	0.4036	0.879
Mof_Cu	Cu	0.5	-1.77541e-32	0.9036	0.852
_end
