data_functionalizedCrystal
_audit_creation_method	'EQeq! by Chris Wilmer'
_symmetry_space_group_name_H-M	'P1'
_symmetry_Int_Tables_number	1
_symmetry_cell_setting	triclinic
loop_
_symmetry_equiv_pos_as_xyz
  x,y,z
_cell_length_a	9.3611
_cell_length_b	9.921
_cell_length_c	10.015
_cell_angle_alpha	85.03
_cell_angle_beta	85.81
_cell_angle_gamma	65.09
loop_
_atom_site_label
_atom_site_type_symbol
_atom_site_fract_x
_atom_site_fract_y
_atom_site_fract_z
_atom_site_charge
Mof_O 	O 	0.8688	0.3286	0.2541	-0.514
Mof_O 	O 	0.4557	0.1338	0.6238	-0.44
Mof_Cd	Cd	0.56027	0.03946	0.82362	0.44
Mof_Ru	Ru	0.58025	0.48262	0.58452	0.989
Mof_Ru	Ru	0.94724	0.45534	0.08826	1.169
Mof_O 	O 	0.5744	0.2833	0.6345	-0.492
Mof_O 	O 	0.4145	0.317	0.4656	-0.611
Mof_O 	O 	0.7681	0.3938	0.458	-0.69
Mof_O 	O 	0.6093	0.4242	0.2887	-0.72
Mof_O 	O 	0.7435	0.4106	0.7589	-0.562
Mof_O 	O 	0.1234	0.2518	0.0633	-0.838
Mof_O 	O 	0.2296	0.3404	0.8882	-0.614
Mof_O 	O 	0.8153	0.4151	0.9612	-0.602
Mof_O 	O 	0.9208	0.5015	0.7827	-0.563
Mof_O 	O 	0.3475	0.1041	0.9688	-0.407
Mof_O 	O 	0.6464	0.1954	0.9125	-0.405
Mof_H 	H 	0.6106	0.2791	0.8682	0.018
Mof_H 	H 	0.6133	0.2072	0.9938	0.096
Mof_C 	C 	0.4817	0.2444	0.5753	0.534
Mof_C 	C 	0.75	0.3817	0.3333	0.62
Mof_C 	C 	0.2355	0.2326	0.9723	0.785
Mof_C 	C 	0.8265	0.4436	0.8337	0.573
Mof_O 	O 	0.1312	0.6714	0.7459	-0.549
Mof_O 	O 	0.5443	0.8662	0.3762	-0.376
Mof_Cd	Cd	0.43973	0.96054	0.17638	0.351
Mof_Ru	Ru	0.41975	0.51738	0.41548	0.94
Mof_Ru	Ru	0.05276	0.54466	0.91174	0.803
Mof_O 	O 	0.4256	0.7167	0.3655	-0.503
Mof_O 	O 	0.5855	0.683	0.5344	-0.555
Mof_O 	O 	0.2319	0.6062	0.542	-0.757
Mof_O 	O 	0.3907	0.5758	0.7113	-0.659
Mof_O 	O 	0.2565	0.5894	0.2411	-0.651
Mof_O 	O 	0.8766	0.7482	0.9367	-0.114
Mof_O 	O 	0.7704	0.6596	0.1118	-0.546
Mof_O 	O 	0.1847	0.5849	0.0388	-0.904
Mof_O 	O 	0.0792	0.4985	0.2173	-0.871
Mof_O 	O 	0.6525	0.8959	0.0312	-0.398
Mof_O 	O 	0.3536	0.8046	0.0875	-0.426
Mof_H 	H 	0.3894	0.7209	0.1318	-0.028
Mof_H 	H 	0.3867	0.7928	0.0062	-0.05
Mof_C 	C 	0.5183	0.7556	0.4247	0.526
Mof_C 	C 	0.25	0.6183	0.6667	0.622
Mof_C 	C 	0.7645	0.7674	0.0277	0.244
Mof_C 	C 	0.1735	0.5564	0.1663	0.594
Mof_K 	K 	0.5	0.5	-0	2.977
Mof_K 	K 	-0	0.5	0.5	2.564
_end
