data_functionalizedCrystal
_audit_creation_method	'EQeq! by Chris Wilmer'
_symmetry_space_group_name_H-M	'P1'
_symmetry_Int_Tables_number	1
_symmetry_cell_setting	triclinic
loop_
_symmetry_equiv_pos_as_xyz
  x,y,z
_cell_length_a	9.4692
_cell_length_b	9.1622
_cell_length_c	9.7063
_cell_angle_alpha	90
_cell_angle_beta	117.562
_cell_angle_gamma	90
loop_
_atom_site_label
_atom_site_type_symbol
_atom_site_fract_x
_atom_site_fract_y
_atom_site_fract_z
_atom_site_charge
Mof_P 	P 	0.14504	0.65606	0.47293	0.979
Mof_P 	P 	0.66957	0.8978	0.43683	0.418
Mof_O 	O 	0.2485	0.7299	0.4125	-0.6
Mof_O 	O 	0.9974	0.5865	0.3466	-0.65
Mof_O 	O 	0.0888	0.7741	0.5564	-0.92
Mof_H 	H 	0.1571	0.8376	0.5944	2.463
Mof_O 	O 	0.2523	0.5485	0.5952	-0.49
Mof_O 	O 	0.5014	0.8473	0.3864	-0.53
Mof_O 	O 	0.6558	0.0343	0.3334	1.502
Mof_O 	O 	0.7553	0.9399	0.6084	-0.481
Mof_O 	O 	0.7706	0.7793	0.4125	-0.878
Mof_H 	H 	0.8612	0.8102	0.4409	0.518
Mof_P 	P 	0.35496	0.65606	0.02707	0.971
Mof_P 	P 	0.83043	0.8978	0.06317	0.408
Mof_O 	O 	0.2515	0.7299	0.0875	-0.603
Mof_O 	O 	0.5026	0.5865	0.1534	-0.649
Mof_O 	O 	0.4112	0.7741	0.9436	-0.908
Mof_H 	H 	0.3429	0.8376	0.9056	2.465
Mof_O 	O 	0.2477	0.5485	0.9048	-0.483
Mof_O 	O 	0.9986	0.8473	0.1136	-0.526
Mof_O 	O 	0.8442	0.0343	0.1666	1.51
Mof_O 	O 	0.7447	0.9399	0.8916	-0.473
Mof_O 	O 	0.7294	0.7793	0.0875	-0.874
Mof_H 	H 	0.6388	0.8102	0.0591	0.513
Mof_P 	P 	0.85496	0.34394	0.52707	0.98
Mof_P 	P 	0.33043	0.1022	0.56317	0.419
Mof_O 	O 	0.7515	0.2701	0.5875	-0.599
Mof_O 	O 	0.0026	0.4135	0.6534	-0.649
Mof_O 	O 	0.9112	0.2259	0.4436	-0.919
Mof_H 	H 	0.8429	0.1624	0.4056	2.464
Mof_O 	O 	0.7477	0.4515	0.4048	-0.49
Mof_O 	O 	0.4986	0.1527	0.6136	-0.53
Mof_O 	O 	0.3442	0.9657	0.6666	1.502
Mof_O 	O 	0.2447	0.0601	0.3916	-0.481
Mof_O 	O 	0.2294	0.2207	0.5875	-0.878
Mof_H 	H 	0.1388	0.1898	0.5591	0.518
Mof_P 	P 	0.64504	0.34394	0.97293	0.971
Mof_P 	P 	0.16957	0.1022	0.93683	0.408
Mof_O 	O 	0.7485	0.2701	0.9125	-0.603
Mof_O 	O 	0.4974	0.4135	0.8466	-0.649
Mof_O 	O 	0.5888	0.2259	0.0564	-0.908
Mof_H 	H 	0.6571	0.1624	0.0944	2.465
Mof_O 	O 	0.7523	0.4515	0.0952	-0.483
Mof_O 	O 	0.0014	0.1527	0.8864	-0.526
Mof_O 	O 	0.1558	0.9657	0.8334	1.51
Mof_O 	O 	0.2553	0.0601	0.1084	-0.473
Mof_O 	O 	0.2706	0.2207	0.9125	-0.874
Mof_H 	H 	0.3612	0.1898	0.9409	0.513
Mof_In	In	0.25	0.88223	0.25	2.511
Mof_In	In	0.75	0.11777	0.75	2.511
Mof_In	In	0.75	0.60944	0.25	3.234
Mof_In	In	0.25	0.39056	0.75	3.234
Mof_Li	Li	0.25	0.8712	0.75	-8.43
Mof_Li	Li	0.75	0.1288	0.25	-8.43
_end
