data_functionalizedCrystal
_audit_creation_method	'EQeq! by Chris Wilmer'
_symmetry_space_group_name_H-M	'P1'
_symmetry_Int_Tables_number	1
_symmetry_cell_setting	triclinic
loop_
_symmetry_equiv_pos_as_xyz
  x,y,z
_cell_length_a	26.7176
_cell_length_b	26.7176
_cell_length_c	7.1942
_cell_angle_alpha	90
_cell_angle_beta	90
_cell_angle_gamma	90
loop_
_atom_site_label
_atom_site_type_symbol
_atom_site_fract_x
_atom_site_fract_y
_atom_site_fract_z
_atom_site_charge
Mof_I 	I 	0.69666	0.74214	0.6263	-0.456
Mof_Cu	Cu	0.75493	0.69946	0.3655	0.844
Mof_Cu	Cu	0.74986	0.79527	0.8663	0.846
Mof_I 	I 	0.80722	0.75361	0.127	-0.462
Mof_N 	N 	0.7072	0.6593	0.214	-0.252
Mof_N 	N 	0.8073	0.6622	0.5166	-0.242
Mof_N 	N 	0.7956	0.8406	0.72	-0.247
Mof_N 	N 	0.6995	0.8324	0.01	-0.242
Mof_C 	C 	0.7161	0.6478	0.04	0.085
Mof_C 	C 	0.6637	0.6434	0.278	0.073
Mof_C 	C 	0.7997	0.6153	0.559	0.021
Mof_C 	C 	0.8495	0.6797	0.582	0.044
Mof_C 	C 	0.8405	0.856	0.774	0.087
Mof_C 	C 	0.788	0.846	0.541	0.072
Mof_H 	H 	0.7471	0.6581	0.9909	-0.026
Mof_C 	C 	0.6841	0.6219	0.919	-0.16
Mof_C 	C 	0.6284	0.6122	0.173	-0.156
Mof_H 	H 	0.6547	0.6528	0.3999	-0.005
Mof_H 	H 	0.77	0.6	0.5189	-0.005
Mof_C 	C 	0.8335	0.5871	0.661	-0.08
Mof_C 	C 	0.8769	0.6594	0.739	-0.11
Mof_H 	H 	0.8632	0.7078	0.5224	0.004
Mof_H 	H 	0.8522	0.8452	0.8907	-0.01
Mof_C 	C 	0.8711	0.887	0.671	-0.162
Mof_C 	C 	0.8195	0.8738	0.411	-0.151
Mof_H 	H 	0.7594	0.8305	0.4918	-0.024
Mof_H 	H 	0.6921	0.6172	0.793	0.082
Mof_C 	C 	0.6396	0.6034	0.995	0.103
Mof_H 	H 	0.5994	0.599	0.2286	0.083
Mof_C 	C 	0.8717	0.6097	0.757	0.093
Mof_H 	H 	0.8302	0.5521	0.6644	0.052
Mof_H 	H 	0.8964	0.6791	0.819	0.064
Mof_H 	H 	0.8988	0.9023	0.7278	0.084
Mof_C 	C 	0.8615	0.8959	0.483	0.103
Mof_H 	H 	0.8114	0.8763	0.284	0.079
Mof_C 	C 	0.6064	0.5745	0.872	-0.044
Mof_C 	C 	0.9031	0.5823	0.886	-0.05
Mof_C 	C 	0.8943	0.9241	0.374	-0.052
Mof_C 	C 	0.6241	0.5434	0.729	-0.005
Mof_C 	C 	0.5552	0.5801	0.893	-0.011
Mof_C 	C 	0.9093	0.5299	0.879	-0.007
Mof_C 	C 	0.9281	0.6073	0.028	-0.008
Mof_C 	C 	0.9466	0.9191	0.396	-0.006
Mof_C 	C 	0.8769	0.9539	0.228	-0.003
Mof_H 	H 	0.6587	0.5384	0.7146	0.028
Mof_C 	C 	0.5908	0.5199	0.606	-0.113
Mof_C 	C 	0.522	0.5551	0.7702	-0.101
Mof_H 	H 	0.5424	0.6006	0.9878	0.035
Mof_H 	H 	0.8931	0.511	0.7868	0.03
Mof_C 	C 	0.9399	0.5064	0.011	-0.104
Mof_C 	C 	0.9599	0.5836	0.156	-0.109
Mof_H 	H 	0.9233	0.6421	0.0385	0.026
Mof_H 	H 	0.9596	0.8986	0.4905	0.033
Mof_C 	C 	0.9791	0.9449	0.277	-0.105
Mof_C 	C 	0.9091	0.9814	0.116	-0.108
Mof_H 	H 	0.8423	0.9554	0.2047	0.027
Mof_H 	H 	0.6037	0.5	0.5096	0.07
Mof_C 	C 	0.5403	0.5251	0.622	0.071
Mof_H 	H 	0.4873	0.5585	0.7872	0.067
Mof_H 	H 	0.9423	0.4713	0.0081	0.066
Mof_C 	C 	0.9666	0.532	0.145	0.062
Mof_H 	H 	0.9765	0.6023	0.2473	0.066
Mof_H 	H 	0.0137	0.9435	0.2986	0.07
Mof_C 	C 	0.9614	0.9726	0.126	0.061
Mof_H 	H 	0.8963	0.0057	0.0334	0.069
Mof_C 	C 	0.9701	0.4629	0.386	0.044
Mof_C 	C 	0.9181	0.455	0.359	-0.038
Mof_C 	C 	0.9932	0.4435	0.539	-0.046
Mof_C 	C 	0.8933	0.4193	0.477	-0.01
Mof_H 	H 	0.9004	0.4726	0.2673	0.033
Mof_C 	C 	0.9687	0.412	0.665	-0.016
Mof_H 	H 	0.027	0.4516	0.5612	0.042
Mof_C 	C 	0.9169	0.4027	0.638	-0.026
Mof_H 	H 	0.8614	0.4072	0.4454	0.02
Mof_H 	H 	0.986	0.3974	0.7652	0.027
Mof_C 	C 	0.8892	0.3674	0.765	0.07
Mof_C 	C 	0.8443	0.3494	0.71	-0.066
Mof_C 	C 	0.9038	0.3569	0.949	-0.042
Mof_C 	C 	0.8145	0.3172	0.831	0.029
Mof_H 	H 	0.8321	0.3577	0.591	0.046
Mof_C 	C 	0.8731	0.3233	0.048	-0.005
Mof_H 	H 	0.9324	0.3714	0.0028	0.038
Mof_H 	H 	0.7819	0.3084	0.7952	-0.023
Mof_H 	H 	0.8829	0.3164	0.1708	0.01
Mof_C 	C 	0.5644	0.8909	0.48	-0.028
Mof_H 	H 	0.5644	0.8557	0.4843	0.025
Mof_C 	C 	0.5314	0.9193	0.592	-0.042
Mof_H 	H 	0.5049	0.903	0.6524	0.032
Mof_C 	C 	0.569	0.9962	0.494	-0.033
Mof_H 	H 	0.5712	0.0313	0.4991	0.025
Mof_C 	C 	0.599	0.9693	0.365	-0.013
Mof_H 	H 	0.6198	0.9866	0.2815	0.012
Mof_C 	C 	0.628	0.8389	0.228	-0.056
Mof_H 	H 	0.6097	0.8199	0.3144	0.044
Mof_C 	C 	0.6555	0.8175	0.068	0.027
Mof_H 	H 	0.6401	0.7911	0.0028	0.012
Mof_C 	C 	0.7063	0.8818	0.034	0.084
Mof_H 	H 	0.7321	0.8978	0.9679	-0.024
Mof_C 	C 	0.6757	0.9106	0.154	-0.126
Mof_H 	H 	0.6841	0.944	0.1796	0.068
Mof_C 	C 	0.3447	0.8542	0.188	-0.043
Mof_H 	H 	0.3313	0.8599	0.0688	0.041
Mof_C 	C 	0.3187	0.8258	0.332	0.021
Mof_H 	H 	0.2843	0.8203	0.3133	-0.022
Mof_C 	C 	0.3794	0.8281	0.539	0.047
Mof_H 	H 	0.3929	0.8197	0.6557	-0.008
Mof_C 	C 	0.4038	0.863	0.427	-0.083
Mof_H 	H 	0.4308	0.8806	0.4779	0.053
Mof_I 	I 	0.30334	0.25786	0.6263	-0.457
Mof_Cu	Cu	0.24507	0.30054	0.3655	0.844
Mof_Cu	Cu	0.25014	0.20473	0.8663	0.846
Mof_I 	I 	0.19278	0.24639	0.127	-0.462
Mof_N 	N 	0.2928	0.3407	0.214	-0.252
Mof_N 	N 	0.1927	0.3378	0.5166	-0.242
Mof_N 	N 	0.2044	0.1594	0.72	-0.247
Mof_N 	N 	0.3005	0.1676	0.01	-0.241
Mof_C 	C 	0.2839	0.3522	0.04	0.085
Mof_C 	C 	0.3363	0.3566	0.278	0.073
Mof_C 	C 	0.2003	0.3847	0.559	0.02
Mof_C 	C 	0.1505	0.3203	0.582	0.045
Mof_C 	C 	0.1595	0.144	0.774	0.086
Mof_C 	C 	0.212	0.154	0.541	0.071
Mof_H 	H 	0.2529	0.3419	0.9909	-0.026
Mof_C 	C 	0.3159	0.3781	0.919	-0.16
Mof_C 	C 	0.3716	0.3878	0.173	-0.156
Mof_H 	H 	0.3453	0.3472	0.3999	-0.005
Mof_H 	H 	0.23	0.4	0.5189	-0.005
Mof_C 	C 	0.1665	0.4129	0.661	-0.079
Mof_C 	C 	0.1231	0.3406	0.739	-0.111
Mof_H 	H 	0.1368	0.2922	0.5224	0.004
Mof_H 	H 	0.1478	0.1548	0.8907	-0.009
Mof_C 	C 	0.1289	0.113	0.671	-0.159
Mof_C 	C 	0.1805	0.1262	0.411	-0.149
Mof_H 	H 	0.2406	0.1695	0.4918	-0.023
Mof_H 	H 	0.3079	0.3828	0.793	0.082
Mof_C 	C 	0.3604	0.3966	0.995	0.103
Mof_H 	H 	0.4006	0.401	0.2286	0.083
Mof_C 	C 	0.1283	0.3903	0.757	0.094
Mof_H 	H 	0.1698	0.4479	0.6644	0.052
Mof_H 	H 	0.1036	0.3209	0.819	0.065
Mof_H 	H 	0.1012	0.0977	0.7278	0.084
Mof_C 	C 	0.1385	0.1041	0.483	0.1
Mof_H 	H 	0.1886	0.1237	0.284	0.079
Mof_C 	C 	0.3936	0.4255	0.872	-0.044
Mof_C 	C 	0.0969	0.4177	0.886	-0.05
Mof_C 	C 	0.1057	0.0759	0.374	-0.045
Mof_C 	C 	0.3759	0.4566	0.729	-0.005
Mof_C 	C 	0.4448	0.4199	0.893	-0.011
Mof_C 	C 	0.0907	0.4701	0.879	-0.006
Mof_C 	C 	0.0719	0.3927	0.028	-0.006
Mof_C 	C 	0.0534	0.0809	0.396	-0.015
Mof_C 	C 	0.1231	0.0461	0.228	-0.011
Mof_H 	H 	0.3413	0.4616	0.7146	0.028
Mof_C 	C 	0.4092	0.4801	0.606	-0.113
Mof_C 	C 	0.478	0.4449	0.7702	-0.101
Mof_H 	H 	0.4576	0.3994	0.9878	0.035
Mof_H 	H 	0.1069	0.489	0.7868	0.03
Mof_C 	C 	0.0601	0.4936	0.011	-0.105
Mof_C 	C 	0.0401	0.4164	0.156	-0.11
Mof_H 	H 	0.0767	0.3579	0.0385	0.026
Mof_H 	H 	0.0404	0.1014	0.4905	0.037
Mof_C 	C 	0.0209	0.0551	0.277	-0.092
Mof_C 	C 	0.0909	0.0186	0.116	-0.096
Mof_H 	H 	0.1577	0.0446	0.2047	0.031
Mof_H 	H 	0.3963	0.5	0.5096	0.07
Mof_C 	C 	0.4597	0.4749	0.622	0.071
Mof_H 	H 	0.5127	0.4415	0.7872	0.067
Mof_H 	H 	0.0577	0.5287	0.0081	0.067
Mof_C 	C 	0.0334	0.468	0.145	0.065
Mof_H 	H 	0.0235	0.3977	0.2473	0.068
Mof_H 	H 	0.9863	0.0565	0.2986	0.064
Mof_C 	C 	0.0386	0.0274	0.126	0.057
Mof_H 	H 	0.1037	0.9943	0.0334	0.062
Mof_C 	C 	0.0299	0.5371	0.386	0.044
Mof_C 	C 	0.0819	0.545	0.359	-0.038
Mof_C 	C 	0.0068	0.5565	0.539	-0.042
Mof_C 	C 	0.1067	0.5807	0.477	-0.011
Mof_H 	H 	0.0996	0.5274	0.2673	0.033
Mof_C 	C 	0.0313	0.588	0.665	-0.017
Mof_H 	H 	0.973	0.5484	0.5612	0.039
Mof_C 	C 	0.0831	0.5973	0.638	-0.025
Mof_H 	H 	0.1386	0.5928	0.4454	0.02
Mof_H 	H 	0.014	0.6026	0.7652	0.028
Mof_C 	C 	0.1108	0.6326	0.765	0.07
Mof_C 	C 	0.1557	0.6506	0.71	-0.067
Mof_C 	C 	0.0962	0.6431	0.949	-0.04
Mof_C 	C 	0.1855	0.6828	0.831	0.029
Mof_H 	H 	0.1679	0.6423	0.591	0.047
Mof_C 	C 	0.1269	0.6767	0.048	-0.007
Mof_H 	H 	0.0676	0.6286	0.0028	0.038
Mof_H 	H 	0.2181	0.6916	0.7952	-0.023
Mof_H 	H 	0.1171	0.6836	0.1708	0.011
Mof_C 	C 	0.4356	0.1091	0.48	-0.028
Mof_H 	H 	0.4356	0.1443	0.4843	0.025
Mof_C 	C 	0.4686	0.0807	0.592	-0.041
Mof_H 	H 	0.4951	0.097	0.6524	0.032
Mof_C 	C 	0.431	0.0038	0.494	-0.03
Mof_H 	H 	0.4288	0.9687	0.4991	0.022
Mof_C 	C 	0.401	0.0307	0.365	-0.014
Mof_H 	H 	0.3802	0.0134	0.2815	0.014
Mof_C 	C 	0.372	0.1611	0.228	-0.056
Mof_H 	H 	0.3903	0.1801	0.3144	0.044
Mof_C 	C 	0.3445	0.1825	0.068	0.027
Mof_H 	H 	0.3599	0.2089	0.0028	0.012
Mof_C 	C 	0.2937	0.1182	0.034	0.083
Mof_H 	H 	0.2679	0.1022	0.9679	-0.023
Mof_C 	C 	0.3243	0.0894	0.154	-0.125
Mof_H 	H 	0.3159	0.056	0.1796	0.068
Mof_C 	C 	0.6553	0.1458	0.188	-0.043
Mof_H 	H 	0.6687	0.1401	0.0688	0.041
Mof_C 	C 	0.6813	0.1742	0.332	0.02
Mof_H 	H 	0.7157	0.1797	0.3133	-0.021
Mof_C 	C 	0.6206	0.1719	0.539	0.048
Mof_H 	H 	0.6071	0.1803	0.6557	-0.008
Mof_C 	C 	0.5962	0.137	0.427	-0.084
Mof_H 	H 	0.5692	0.1194	0.4779	0.053
Mof_I 	I 	0.74214	0.30334	0.3737	-0.457
Mof_Cu	Cu	0.69946	0.24507	0.6345	0.844
Mof_Cu	Cu	0.79527	0.25014	0.1337	0.846
Mof_I 	I 	0.75361	0.19278	0.873	-0.461
Mof_N 	N 	0.6593	0.2928	0.786	-0.252
Mof_N 	N 	0.6622	0.1927	0.4834	-0.242
Mof_N 	N 	0.8406	0.2044	0.28	-0.247
Mof_N 	N 	0.8324	0.3005	0.99	-0.241
Mof_C 	C 	0.6478	0.2839	0.96	0.089
Mof_C 	C 	0.6434	0.3363	0.722	0.072
Mof_C 	C 	0.6153	0.2003	0.441	0.02
Mof_C 	C 	0.6797	0.1505	0.418	0.045
Mof_C 	C 	0.856	0.1595	0.226	0.086
Mof_C 	C 	0.846	0.212	0.459	0.072
Mof_H 	H 	0.6581	0.2529	0.0091	-0.028
Mof_C 	C 	0.6219	0.3159	0.081	-0.162
Mof_C 	C 	0.6122	0.3716	0.827	-0.155
Mof_H 	H 	0.6528	0.3453	0.6001	-0.005
Mof_H 	H 	0.6	0.23	0.4811	-0.005
Mof_C 	C 	0.5871	0.1665	0.339	-0.079
Mof_C 	C 	0.6594	0.1231	0.261	-0.11
Mof_H 	H 	0.7078	0.1368	0.4776	0.004
Mof_H 	H 	0.8452	0.1478	0.1093	-0.01
Mof_C 	C 	0.887	0.1289	0.329	-0.161
Mof_C 	C 	0.8738	0.1805	0.589	-0.15
Mof_H 	H 	0.8305	0.2406	0.5082	-0.024
Mof_H 	H 	0.6172	0.3079	0.207	0.083
Mof_C 	C 	0.6034	0.3604	0.005	0.102
Mof_H 	H 	0.599	0.4006	0.7714	0.083
Mof_C 	C 	0.6097	0.1283	0.243	0.094
Mof_H 	H 	0.5521	0.1698	0.3356	0.052
Mof_H 	H 	0.6791	0.1036	0.181	0.065
Mof_H 	H 	0.9023	0.1012	0.2722	0.084
Mof_C 	C 	0.8959	0.1385	0.517	0.102
Mof_H 	H 	0.8763	0.1886	0.716	0.079
Mof_C 	C 	0.5745	0.3936	0.128	-0.045
Mof_C 	C 	0.5823	0.0969	0.114	-0.051
Mof_C 	C 	0.9241	0.1057	0.626	-0.049
Mof_C 	C 	0.5434	0.3759	0.271	-0.005
Mof_C 	C 	0.5801	0.4448	0.107	-0.011
Mof_C 	C 	0.5299	0.0907	0.121	-0.007
Mof_C 	C 	0.6073	0.0719	0.972	-0.005
Mof_C 	C 	0.9191	0.0534	0.604	-0.012
Mof_C 	C 	0.9539	0.1231	0.772	-0.005
Mof_H 	H 	0.5384	0.3413	0.2854	0.028
Mof_C 	C 	0.5199	0.4092	0.394	-0.113
Mof_C 	C 	0.5551	0.478	0.2298	-0.101
Mof_H 	H 	0.6006	0.4576	0.0122	0.035
Mof_H 	H 	0.511	0.1069	0.2132	0.03
Mof_C 	C 	0.5064	0.0601	0.989	-0.104
Mof_C 	C 	0.5836	0.0401	0.844	-0.11
Mof_H 	H 	0.6421	0.0767	0.9615	0.026
Mof_H 	H 	0.8986	0.0404	0.5095	0.036
Mof_C 	C 	0.9449	0.0209	0.723	-0.095
Mof_C 	C 	0.9814	0.0909	0.884	-0.106
Mof_H 	H 	0.9554	0.1577	0.7953	0.028
Mof_H 	H 	0.5	0.3963	0.4904	0.07
Mof_C 	C 	0.5251	0.4597	0.378	0.07
Mof_H 	H 	0.5585	0.5127	0.2128	0.067
Mof_H 	H 	0.4713	0.0577	0.9919	0.067
Mof_C 	C 	0.532	0.0334	0.855	0.065
Mof_H 	H 	0.6023	0.0235	0.7527	0.068
Mof_H 	H 	0.9435	0.9863	0.7014	0.064
Mof_C 	C 	0.9726	0.0386	0.874	0.059
Mof_H 	H 	0.0057	0.1037	0.9666	0.069
Mof_C 	C 	0.4629	0.0299	0.614	0.044
Mof_C 	C 	0.455	0.0819	0.641	-0.038
Mof_C 	C 	0.4435	0.0068	0.461	-0.042
Mof_C 	C 	0.4193	0.1067	0.523	-0.011
Mof_H 	H 	0.4726	0.0996	0.7327	0.033
Mof_C 	C 	0.412	0.0313	0.335	-0.017
Mof_H 	H 	0.4516	0.973	0.4388	0.039
Mof_C 	C 	0.4027	0.0831	0.362	-0.026
Mof_H 	H 	0.4072	0.1386	0.5546	0.02
Mof_H 	H 	0.3974	0.014	0.2348	0.027
Mof_C 	C 	0.3674	0.1108	0.235	0.071
Mof_C 	C 	0.3494	0.1557	0.29	-0.075
Mof_C 	C 	0.3569	0.0962	0.051	-0.024
Mof_C 	C 	0.3172	0.1855	0.169	0.03
Mof_H 	H 	0.3577	0.1679	0.409	0.05
Mof_C 	C 	0.3233	0.1269	0.952	-0.029
Mof_H 	H 	0.3714	0.0676	0.9972	0.033
Mof_H 	H 	0.3084	0.2181	0.2048	-0.024
Mof_H 	H 	0.3164	0.1171	0.8292	0.018
Mof_C 	C 	0.8909	0.4356	0.52	-0.029
Mof_H 	H 	0.8557	0.4356	0.5157	0.025
Mof_C 	C 	0.9193	0.4686	0.408	-0.042
Mof_H 	H 	0.903	0.4951	0.3476	0.032
Mof_C 	C 	0.9962	0.431	0.506	-0.033
Mof_H 	H 	0.0313	0.4288	0.5009	0.025
Mof_C 	C 	0.9693	0.401	0.635	-0.013
Mof_H 	H 	0.9866	0.3802	0.7185	0.012
Mof_C 	C 	0.8389	0.372	0.772	-0.065
Mof_H 	H 	0.8199	0.3903	0.6856	0.047
Mof_C 	C 	0.8175	0.3445	0.932	0.026
Mof_H 	H 	0.7911	0.3599	0.9972	0.012
Mof_C 	C 	0.8818	0.2937	0.966	0.057
Mof_H 	H 	0.8978	0.2679	0.0321	-0.016
Mof_C 	C 	0.9106	0.3243	0.846	-0.105
Mof_H 	H 	0.944	0.3159	0.8204	0.061
Mof_C 	C 	0.8542	0.6553	0.812	-0.043
Mof_H 	H 	0.8599	0.6687	0.9312	0.041
Mof_C 	C 	0.8258	0.6813	0.668	0.021
Mof_H 	H 	0.8203	0.7157	0.6867	-0.021
Mof_C 	C 	0.8281	0.6206	0.461	0.047
Mof_H 	H 	0.8197	0.6071	0.3443	-0.008
Mof_C 	C 	0.863	0.5962	0.573	-0.083
Mof_H 	H 	0.8806	0.5692	0.5221	0.053
Mof_I 	I 	0.25786	0.69666	0.3737	-0.457
Mof_Cu	Cu	0.30054	0.75493	0.6345	0.844
Mof_Cu	Cu	0.20473	0.74986	0.1337	0.846
Mof_I 	I 	0.24639	0.80722	0.873	-0.461
Mof_N 	N 	0.3407	0.7072	0.786	-0.252
Mof_N 	N 	0.3378	0.8073	0.4834	-0.242
Mof_N 	N 	0.1594	0.7956	0.28	-0.247
Mof_N 	N 	0.1676	0.6995	0.99	-0.241
Mof_C 	C 	0.3522	0.7161	0.96	0.088
Mof_C 	C 	0.3566	0.6637	0.722	0.072
Mof_C 	C 	0.3847	0.7997	0.441	0.021
Mof_C 	C 	0.3203	0.8495	0.418	0.044
Mof_C 	C 	0.144	0.8405	0.226	0.086
Mof_C 	C 	0.154	0.788	0.459	0.072
Mof_H 	H 	0.3419	0.7471	0.0091	-0.028
Mof_C 	C 	0.3781	0.6841	0.081	-0.162
Mof_C 	C 	0.3878	0.6284	0.827	-0.155
Mof_H 	H 	0.3472	0.6547	0.6001	-0.005
Mof_H 	H 	0.4	0.77	0.4811	-0.005
Mof_C 	C 	0.4129	0.8335	0.339	-0.08
Mof_C 	C 	0.3406	0.8769	0.261	-0.11
Mof_H 	H 	0.2922	0.8632	0.4776	0.004
Mof_H 	H 	0.1548	0.8522	0.1093	-0.01
Mof_C 	C 	0.113	0.8711	0.329	-0.161
Mof_C 	C 	0.1262	0.8195	0.589	-0.15
Mof_H 	H 	0.1695	0.7594	0.5082	-0.023
Mof_H 	H 	0.3828	0.6921	0.207	0.083
Mof_C 	C 	0.3966	0.6396	0.005	0.102
Mof_H 	H 	0.401	0.5994	0.7714	0.083
Mof_C 	C 	0.3903	0.8717	0.243	0.093
Mof_H 	H 	0.4479	0.8302	0.3356	0.052
Mof_H 	H 	0.3209	0.8964	0.181	0.064
Mof_H 	H 	0.0977	0.8988	0.2722	0.084
Mof_C 	C 	0.1041	0.8615	0.517	0.102
Mof_H 	H 	0.1237	0.8114	0.716	0.079
Mof_C 	C 	0.4255	0.6064	0.128	-0.045
Mof_C 	C 	0.4177	0.9031	0.114	-0.05
Mof_C 	C 	0.0759	0.8943	0.626	-0.048
Mof_C 	C 	0.4566	0.6241	0.271	-0.005
Mof_C 	C 	0.4199	0.5552	0.107	-0.011
Mof_C 	C 	0.4701	0.9093	0.121	-0.009
Mof_C 	C 	0.3927	0.9281	0.972	-0.007
Mof_C 	C 	0.0809	0.9466	0.604	-0.008
Mof_C 	C 	0.0461	0.8769	0.772	-0.008
Mof_H 	H 	0.4616	0.6587	0.2854	0.028
Mof_C 	C 	0.4801	0.5908	0.394	-0.113
Mof_C 	C 	0.4449	0.522	0.2298	-0.101
Mof_H 	H 	0.3994	0.5424	0.0122	0.035
Mof_H 	H 	0.489	0.8931	0.2132	0.03
Mof_C 	C 	0.4936	0.9399	0.989	-0.102
Mof_C 	C 	0.4164	0.9599	0.844	-0.109
Mof_H 	H 	0.3579	0.9233	0.9615	0.026
Mof_H 	H 	0.1014	0.9596	0.5095	0.034
Mof_C 	C 	0.0551	0.9791	0.723	-0.103
Mof_C 	C 	0.0186	0.9091	0.884	-0.098
Mof_H 	H 	0.0446	0.8423	0.7953	0.03
Mof_H 	H 	0.5	0.6037	0.4904	0.07
Mof_C 	C 	0.4749	0.5403	0.378	0.07
Mof_H 	H 	0.4415	0.4873	0.2128	0.067
Mof_H 	H 	0.5287	0.9423	0.9919	0.066
Mof_C 	C 	0.468	0.9666	0.855	0.062
Mof_H 	H 	0.3977	0.9765	0.7527	0.066
Mof_H 	H 	0.0565	0.0137	0.7014	0.07
Mof_C 	C 	0.0274	0.9614	0.874	0.059
Mof_H 	H 	0.9943	0.8963	0.9666	0.063
Mof_C 	C 	0.5371	0.9701	0.614	0.044
Mof_C 	C 	0.545	0.9181	0.641	-0.038
Mof_C 	C 	0.5565	0.9932	0.461	-0.046
Mof_C 	C 	0.5807	0.8933	0.523	-0.011
Mof_H 	H 	0.5274	0.9004	0.7327	0.033
Mof_C 	C 	0.588	0.9687	0.335	-0.016
Mof_H 	H 	0.5484	0.027	0.4388	0.042
Mof_C 	C 	0.5973	0.9169	0.362	-0.027
Mof_H 	H 	0.5928	0.8614	0.5546	0.02
Mof_H 	H 	0.6026	0.986	0.2348	0.026
Mof_C 	C 	0.6326	0.8892	0.235	0.071
Mof_C 	C 	0.6506	0.8443	0.29	-0.076
Mof_C 	C 	0.6431	0.9038	0.051	-0.023
Mof_C 	C 	0.6828	0.8145	0.169	0.03
Mof_H 	H 	0.6423	0.8321	0.409	0.05
Mof_C 	C 	0.6767	0.8731	0.952	-0.03
Mof_H 	H 	0.6286	0.9324	0.9972	0.032
Mof_H 	H 	0.6916	0.7819	0.2048	-0.023
Mof_H 	H 	0.6836	0.8829	0.8292	0.018
Mof_C 	C 	0.1091	0.5644	0.52	-0.029
Mof_H 	H 	0.1443	0.5644	0.5157	0.025
Mof_C 	C 	0.0807	0.5314	0.408	-0.041
Mof_H 	H 	0.097	0.5049	0.3476	0.032
Mof_C 	C 	0.0038	0.569	0.506	-0.03
Mof_H 	H 	0.9687	0.5712	0.5009	0.022
Mof_C 	C 	0.0307	0.599	0.635	-0.014
Mof_H 	H 	0.0134	0.6198	0.7185	0.014
Mof_C 	C 	0.1611	0.628	0.772	-0.064
Mof_H 	H 	0.1801	0.6097	0.6856	0.046
Mof_C 	C 	0.1825	0.6555	0.932	0.026
Mof_H 	H 	0.2089	0.6401	0.9972	0.012
Mof_C 	C 	0.1182	0.7063	0.966	0.06
Mof_H 	H 	0.1022	0.7321	0.0321	-0.016
Mof_C 	C 	0.0894	0.6757	0.846	-0.107
Mof_H 	H 	0.056	0.6841	0.8204	0.062
Mof_C 	C 	0.1458	0.3447	0.812	-0.043
Mof_H 	H 	0.1401	0.3313	0.9312	0.041
Mof_C 	C 	0.1742	0.3187	0.668	0.02
Mof_H 	H 	0.1797	0.2843	0.6867	-0.021
Mof_C 	C 	0.1719	0.3794	0.461	0.047
Mof_H 	H 	0.1803	0.3929	0.3443	-0.008
Mof_C 	C 	0.137	0.4038	0.573	-0.084
Mof_H 	H 	0.1194	0.4308	0.5221	0.053
Mof_C 	C 	0.5	0.5	0.5	-0.096
Mof_C 	C 	6.42613e-33	0.5	0.279	-0.08
Mof_C 	C 	0.5	2.45778e-33	0.721	-0.08
Mof_C 	C 	-0	0	-0	-0.078
_end
