data_functionalizedCrystal
_audit_creation_method	'EQeq! by Chris Wilmer'
_symmetry_space_group_name_H-M	'P1'
_symmetry_Int_Tables_number	1
_symmetry_cell_setting	triclinic
loop_
_symmetry_equiv_pos_as_xyz
  x,y,z
_cell_length_a	13.307
_cell_length_b	23.947
_cell_length_c	30.217
_cell_angle_alpha	90
_cell_angle_beta	90
_cell_angle_gamma	98.155
loop_
_atom_site_label
_atom_site_type_symbol
_atom_site_fract_x
_atom_site_fract_y
_atom_site_fract_z
_atom_site_charge
Mof_Gd	Gd	0.85481	0.72965	0.77127	1.645
Mof_Gd	Gd	0.15186	0.7902	0.74855	1.645
Mof_Gd	Gd	0.64519	0.77035	0.27127	1.645
Mof_Gd	Gd	0.34814	0.7098	0.24855	1.645
Mof_Gd	Gd	0.14519	0.27035	0.22873	1.645
Mof_Gd	Gd	0.84814	0.2098	0.25145	1.645
Mof_Gd	Gd	0.35481	0.22965	0.72873	1.645
Mof_Gd	Gd	0.65186	0.2902	0.75145	1.645
Mof_H 	H 	0.18	0.6533	0.7226	0.075
Mof_H 	H 	0.9906	0.5493	0.7975	0.102
Mof_H 	H 	0.5012	0.4616	0.7937	0.097
Mof_H 	H 	0.3221	0.3657	0.7068	0.072
Mof_H 	H 	0.8346	0.6817	0.3902	0.12
Mof_H 	H 	0.7871	0.8398	0.4121	0.119
Mof_H 	H 	0.8031	0.707	0.6265	0.086
Mof_H 	H 	0.0766	0.7891	0.6004	0.095
Mof_H 	H 	0.9274	0.7248	0.9174	0.091
Mof_H 	H 	0.2097	0.7986	0.8943	0.082
Mof_H 	H 	0.2063	0.6445	0.1022	0.121
Mof_H 	H 	0.167	0.8018	0.1329	0.124
Mof_H 	H 	0.32	0.8467	0.2226	0.074
Mof_H 	H 	0.5094	0.9507	0.2975	0.101
Mof_H 	H 	0.9988	0.0384	0.2937	0.097
Mof_H 	H 	0.1779	0.1343	0.2068	0.072
Mof_H 	H 	0.6654	0.8183	0.8902	0.12
Mof_H 	H 	0.7129	0.6602	0.9121	0.119
Mof_H 	H 	0.6969	0.793	0.1265	0.086
Mof_H 	H 	0.4234	0.7109	0.1004	0.095
Mof_H 	H 	0.5726	0.7752	0.4174	0.091
Mof_H 	H 	0.2903	0.7014	0.3943	0.082
Mof_H 	H 	0.2937	0.8555	0.6022	0.121
Mof_H 	H 	0.333	0.6982	0.6329	0.124
Mof_H 	H 	0.82	0.3467	0.2774	0.074
Mof_H 	H 	0.0094	0.4507	0.2025	0.101
Mof_H 	H 	0.4988	0.5384	0.2063	0.097
Mof_H 	H 	0.6779	0.6343	0.2932	0.072
Mof_H 	H 	0.1654	0.3183	0.6098	0.12
Mof_H 	H 	0.2129	0.1602	0.5879	0.119
Mof_H 	H 	0.1969	0.293	0.3735	0.086
Mof_H 	H 	0.9234	0.2109	0.3996	0.095
Mof_H 	H 	0.0726	0.2752	0.0826	0.091
Mof_H 	H 	0.7903	0.2014	0.1057	0.082
Mof_H 	H 	0.7937	0.3555	0.8978	0.121
Mof_H 	H 	0.833	0.1982	0.8671	0.124
Mof_H 	H 	0.68	0.1533	0.7774	0.074
Mof_H 	H 	0.4906	0.0493	0.7025	0.101
Mof_H 	H 	0.0012	0.9616	0.7063	0.097
Mof_H 	H 	0.8221	0.8657	0.7932	0.072
Mof_H 	H 	0.3346	0.1817	0.1098	0.12
Mof_H 	H 	0.2871	0.3398	0.0879	0.119
Mof_H 	H 	0.3031	0.207	0.8735	0.086
Mof_H 	H 	0.5766	0.2891	0.8996	0.095
Mof_H 	H 	0.4274	0.2248	0.5826	0.091
Mof_H 	H 	0.7097	0.2986	0.6057	0.082
Mof_H 	H 	0.7063	0.1445	0.3978	0.121
Mof_H 	H 	0.667	0.3018	0.3671	0.124
Mof_C 	C 	0.0068	0.6526	0.7658	0.38
Mof_C 	C 	0.0753	0.6089	0.7612	-0.047
Mof_C 	C 	0.163	0.6191	0.7373	-0.054
Mof_C 	C 	0.2281	0.5771	0.735	0.087
Mof_C 	C 	0.2047	0.5259	0.7563	-0.003
Mof_C 	C 	0.1177	0.5184	0.7799	0.101
Mof_C 	C 	0.0513	0.5575	0.782	-0.063
Mof_C 	C 	0.2782	0.482	0.7545	0.007
Mof_C 	C 	0.3706	0.4897	0.7783	0.091
Mof_C 	C 	0.4418	0.4541	0.7772	-0.055
Mof_C 	C 	0.423	0.4058	0.7504	-0.059
Mof_C 	C 	0.3351	0.397	0.7252	-0.051
Mof_C 	C 	0.2663	0.4359	0.7278	0.084
Mof_C 	C 	0.4954	0.3654	0.7493	0.377
Mof_C 	C 	0.7626	0.7665	0.3475	0.288
Mof_C 	C 	0.8023	0.7617	0.3928	0.021
Mof_C 	C 	0.8348	0.7127	0.4087	-0.095
Mof_C 	C 	0.868	0.7103	0.453	0.118
Mof_C 	C 	0.867	0.7529	0.4826	-0.012
Mof_C 	C 	0.8371	0.8021	0.4657	0.122
Mof_C 	C 	0.806	0.806	0.422	-0.098
Mof_C 	C 	0.897	0.7492	0.5312	0.006
Mof_C 	C 	0.8264	0.7259	0.5627	0.097
Mof_C 	C 	0.8509	0.7242	0.6066	-0.057
Mof_C 	C 	0.9444	0.7473	0.6215	-0.042
Mof_C 	C 	0.0128	0.7721	0.5912	-0.057
Mof_C 	C 	0.9872	0.7719	0.5472	0.101
Mof_C 	C 	0.9721	0.7511	0.6704	0.417
Mof_C 	C 	0.0418	0.7674	0.8492	0.426
Mof_C 	C 	0.0647	0.7639	0.898	-0.054
Mof_C 	C 	0.9925	0.7383	0.9273	-0.049
Mof_C 	C 	0.0167	0.7331	0.9704	0.092
Mof_C 	C 	0.1114	0.7507	0.9893	0.016
Mof_C 	C 	0.1809	0.7753	0.9581	0.09
Mof_C 	C 	0.1594	0.7819	0.9134	-0.045
Mof_C 	C 	0.1367	0.7409	0.0367	-0.018
Mof_C 	C 	0.1617	0.6902	0.0509	0.126
Mof_C 	C 	0.1901	0.6797	0.0943	-0.101
Mof_C 	C 	0.1935	0.7221	0.1247	0.025
Mof_C 	C 	0.1656	0.7728	0.1123	-0.109
Mof_C 	C 	0.1356	0.7808	0.0699	0.127
Mof_C 	C 	0.2306	0.7141	0.1704	0.295
Mof_C 	C 	0.4932	0.8474	0.2658	0.38
Mof_C 	C 	0.4247	0.8911	0.2612	-0.047
Mof_C 	C 	0.337	0.8809	0.2373	-0.054
Mof_C 	C 	0.2719	0.9229	0.235	0.087
Mof_C 	C 	0.2953	0.9741	0.2563	-0.003
Mof_C 	C 	0.3823	0.9816	0.2799	0.101
Mof_C 	C 	0.4487	0.9425	0.282	-0.063
Mof_C 	C 	0.2218	0.018	0.2545	0.007
Mof_C 	C 	0.1294	0.0103	0.2783	0.091
Mof_C 	C 	0.0582	0.0459	0.2772	-0.056
Mof_C 	C 	0.077	0.0942	0.2504	-0.059
Mof_C 	C 	0.1649	0.103	0.2252	-0.052
Mof_C 	C 	0.2337	0.0641	0.2278	0.084
Mof_C 	C 	0.0046	0.1346	0.2493	0.376
Mof_C 	C 	0.7374	0.7335	0.8475	0.288
Mof_C 	C 	0.6977	0.7383	0.8928	0.021
Mof_C 	C 	0.6652	0.7873	0.9087	-0.095
Mof_C 	C 	0.632	0.7897	0.953	0.118
Mof_C 	C 	0.633	0.7471	0.9826	-0.012
Mof_C 	C 	0.6629	0.6979	0.9657	0.122
Mof_C 	C 	0.694	0.694	0.922	-0.098
Mof_C 	C 	0.603	0.7508	0.0312	0.005
Mof_C 	C 	0.6736	0.7741	0.0627	0.097
Mof_C 	C 	0.6491	0.7758	0.1066	-0.057
Mof_C 	C 	0.5556	0.7527	0.1215	-0.041
Mof_C 	C 	0.4872	0.7279	0.0912	-0.058
Mof_C 	C 	0.5128	0.7281	0.0472	0.101
Mof_C 	C 	0.5279	0.7489	0.1704	0.417
Mof_C 	C 	0.4582	0.7326	0.3492	0.426
Mof_C 	C 	0.4353	0.7361	0.398	-0.054
Mof_C 	C 	0.5075	0.7617	0.4273	-0.048
Mof_C 	C 	0.4833	0.7669	0.4704	0.092
Mof_C 	C 	0.3886	0.7493	0.4893	0.017
Mof_C 	C 	0.3191	0.7247	0.4581	0.09
Mof_C 	C 	0.3406	0.7181	0.4134	-0.045
Mof_C 	C 	0.3633	0.7591	0.5367	-0.018
Mof_C 	C 	0.3383	0.8098	0.5509	0.126
Mof_C 	C 	0.3099	0.8203	0.5943	-0.101
Mof_C 	C 	0.3065	0.7779	0.6247	0.025
Mof_C 	C 	0.3344	0.7272	0.6123	-0.109
Mof_C 	C 	0.3644	0.7192	0.5699	0.127
Mof_C 	C 	0.2694	0.7859	0.6704	0.295
Mof_C 	C 	0.9932	0.3474	0.2342	0.38
Mof_C 	C 	0.9247	0.3911	0.2388	-0.047
Mof_C 	C 	0.837	0.3809	0.2627	-0.054
Mof_C 	C 	0.7719	0.4229	0.265	0.087
Mof_C 	C 	0.7953	0.4741	0.2437	-0.003
Mof_C 	C 	0.8823	0.4816	0.2201	0.101
Mof_C 	C 	0.9487	0.4425	0.218	-0.063
Mof_C 	C 	0.7218	0.518	0.2455	0.007
Mof_C 	C 	0.6294	0.5103	0.2217	0.091
Mof_C 	C 	0.5582	0.5459	0.2228	-0.055
Mof_C 	C 	0.577	0.5942	0.2496	-0.059
Mof_C 	C 	0.6649	0.603	0.2748	-0.051
Mof_C 	C 	0.7337	0.5641	0.2722	0.084
Mof_C 	C 	0.5046	0.6346	0.2507	0.377
Mof_C 	C 	0.2374	0.2335	0.6525	0.288
Mof_C 	C 	0.1977	0.2383	0.6072	0.021
Mof_C 	C 	0.1652	0.2873	0.5913	-0.095
Mof_C 	C 	0.132	0.2897	0.547	0.118
Mof_C 	C 	0.133	0.2471	0.5174	-0.012
Mof_C 	C 	0.1629	0.1979	0.5343	0.122
Mof_C 	C 	0.194	0.194	0.578	-0.098
Mof_C 	C 	0.103	0.2508	0.4688	0.006
Mof_C 	C 	0.1736	0.2741	0.4373	0.097
Mof_C 	C 	0.1491	0.2758	0.3934	-0.057
Mof_C 	C 	0.0556	0.2527	0.3785	-0.042
Mof_C 	C 	0.9872	0.2279	0.4088	-0.057
Mof_C 	C 	0.0128	0.2281	0.4528	0.101
Mof_C 	C 	0.0279	0.2489	0.3296	0.417
Mof_C 	C 	0.9582	0.2326	0.1508	0.426
Mof_C 	C 	0.9353	0.2361	0.102	-0.054
Mof_C 	C 	0.0075	0.2617	0.0727	-0.049
Mof_C 	C 	0.9833	0.2669	0.0296	0.092
Mof_C 	C 	0.8886	0.2493	0.0107	0.016
Mof_C 	C 	0.8191	0.2247	0.0419	0.09
Mof_C 	C 	0.8406	0.2181	0.0866	-0.045
Mof_C 	C 	0.8633	0.2591	0.9633	-0.018
Mof_C 	C 	0.8383	0.3098	0.9491	0.126
Mof_C 	C 	0.8099	0.3203	0.9057	-0.101
Mof_C 	C 	0.8065	0.2779	0.8753	0.025
Mof_C 	C 	0.8344	0.2272	0.8877	-0.109
Mof_C 	C 	0.8644	0.2192	0.9301	0.127
Mof_C 	C 	0.7694	0.2859	0.8296	0.295
Mof_C 	C 	0.5068	0.1526	0.7342	0.38
Mof_C 	C 	0.5753	0.1089	0.7388	-0.047
Mof_C 	C 	0.663	0.1191	0.7627	-0.054
Mof_C 	C 	0.7281	0.0771	0.765	0.087
Mof_C 	C 	0.7047	0.0259	0.7437	-0.003
Mof_C 	C 	0.6177	0.0184	0.7201	0.101
Mof_C 	C 	0.5513	0.0575	0.718	-0.063
Mof_C 	C 	0.7782	0.982	0.7455	0.007
Mof_C 	C 	0.8706	0.9897	0.7217	0.091
Mof_C 	C 	0.9418	0.9541	0.7228	-0.056
Mof_C 	C 	0.923	0.9058	0.7496	-0.059
Mof_C 	C 	0.8351	0.897	0.7748	-0.052
Mof_C 	C 	0.7663	0.9359	0.7722	0.084
Mof_C 	C 	0.9954	0.8654	0.7507	0.376
Mof_C 	C 	0.2626	0.2665	0.1525	0.288
Mof_C 	C 	0.3023	0.2617	0.1072	0.021
Mof_C 	C 	0.3348	0.2127	0.0913	-0.095
Mof_C 	C 	0.368	0.2103	0.047	0.118
Mof_C 	C 	0.367	0.2529	0.0174	-0.012
Mof_C 	C 	0.3371	0.3021	0.0343	0.122
Mof_C 	C 	0.306	0.306	0.078	-0.098
Mof_C 	C 	0.397	0.2492	0.9688	0.005
Mof_C 	C 	0.3264	0.2259	0.9373	0.097
Mof_C 	C 	0.3509	0.2242	0.8934	-0.057
Mof_C 	C 	0.4444	0.2473	0.8785	-0.041
Mof_C 	C 	0.5128	0.2721	0.9088	-0.058
Mof_C 	C 	0.4872	0.2719	0.9528	0.101
Mof_C 	C 	0.4721	0.2511	0.8296	0.417
Mof_C 	C 	0.5418	0.2674	0.6508	0.426
Mof_C 	C 	0.5647	0.2639	0.602	-0.054
Mof_C 	C 	0.4925	0.2383	0.5727	-0.048
Mof_C 	C 	0.5167	0.2331	0.5296	0.092
Mof_C 	C 	0.6114	0.2507	0.5107	0.017
Mof_C 	C 	0.6809	0.2753	0.5419	0.09
Mof_C 	C 	0.6594	0.2819	0.5866	-0.045
Mof_C 	C 	0.6367	0.2409	0.4633	-0.018
Mof_C 	C 	0.6617	0.1902	0.4491	0.126
Mof_C 	C 	0.6901	0.1797	0.4057	-0.101
Mof_C 	C 	0.6935	0.2221	0.3753	0.025
Mof_C 	C 	0.6656	0.2728	0.3877	-0.109
Mof_C 	C 	0.6356	0.2808	0.4301	0.127
Mof_C 	C 	0.7306	0.2141	0.3296	0.295
Mof_N 	N 	0.3226	0.5886	0.7088	-0
Mof_N 	N 	0.0895	0.4656	0.8044	-0.004
Mof_N 	N 	0.3962	0.5406	0.8081	0.002
Mof_N 	N 	0.1763	0.4238	0.6998	0.002
Mof_N 	N 	0.9028	0.6558	0.4657	-0.005
Mof_N 	N 	0.8407	0.8516	0.4933	-0.006
Mof_N 	N 	0.722	0.7012	0.5509	-0.002
Mof_N 	N 	0.0651	0.8038	0.5181	-0.006
Mof_N 	N 	0.9382	0.7021	0.0006	-0.004
Mof_N 	N 	0.2859	0.7968	0.9732	-0.004
Mof_N 	N 	0.1587	0.6418	0.0207	-0.007
Mof_N 	N 	0.1024	0.8357	0.0591	-0.007
Mof_N 	N 	0.1774	0.9114	0.2088	-0
Mof_N 	N 	0.4105	0.0344	0.3044	-0.004
Mof_N 	N 	0.1038	0.9594	0.3081	0.002
Mof_N 	N 	0.3237	0.0762	0.1998	0.002
Mof_N 	N 	0.5972	0.8442	0.9657	-0.005
Mof_N 	N 	0.6593	0.6484	0.9933	-0.006
Mof_N 	N 	0.778	0.7988	0.0509	-0.002
Mof_N 	N 	0.4349	0.6962	0.0181	-0.006
Mof_N 	N 	0.5618	0.7979	0.5006	-0.004
Mof_N 	N 	0.2141	0.7032	0.4732	-0.004
Mof_N 	N 	0.3413	0.8582	0.5207	-0.007
Mof_N 	N 	0.3976	0.6643	0.5591	-0.008
Mof_N 	N 	0.6774	0.4114	0.2912	-0
Mof_N 	N 	0.9105	0.5344	0.1956	-0.004
Mof_N 	N 	0.6038	0.4594	0.1919	0.002
Mof_N 	N 	0.8237	0.5762	0.3002	0.002
Mof_N 	N 	0.0972	0.3442	0.5343	-0.005
Mof_N 	N 	0.1593	0.1484	0.5067	-0.006
Mof_N 	N 	0.278	0.2988	0.4491	-0.002
Mof_N 	N 	0.9349	0.1962	0.4819	-0.006
Mof_N 	N 	0.0618	0.2979	0.9994	-0.004
Mof_N 	N 	0.7141	0.2032	0.0268	-0.004
Mof_N 	N 	0.8413	0.3582	0.9793	-0.007
Mof_N 	N 	0.8976	0.1643	0.9409	-0.007
Mof_N 	N 	0.8226	0.0886	0.7912	-0
Mof_N 	N 	0.5895	0.9656	0.6956	-0.004
Mof_N 	N 	0.8962	0.0406	0.6919	0.002
Mof_N 	N 	0.6763	0.9238	0.8002	0.002
Mof_N 	N 	0.4028	0.1558	0.0343	-0.005
Mof_N 	N 	0.3407	0.3516	0.0067	-0.006
Mof_N 	N 	0.222	0.2012	0.9491	-0.002
Mof_N 	N 	0.5651	0.3038	0.9819	-0.006
Mof_N 	N 	0.4382	0.2021	0.4994	-0.004
Mof_N 	N 	0.7859	0.2968	0.5268	-0.004
Mof_N 	N 	0.6587	0.1418	0.4793	-0.007
Mof_N 	N 	0.6024	0.3357	0.4409	-0.008
Mof_O 	O 	0.917	0.6383	0.7752	-0.399
Mof_O 	O 	0.046	0.7039	0.758	-0.498
Mof_O 	O 	0.5876	0.3813	0.7589	-0.383
Mof_O 	O 	0.4648	0.3149	0.738	-0.508
Mof_O 	O 	0.3586	0.6351	0.7035	-0.101
Mof_O 	O 	0.3538	0.5523	0.6889	-0.081
Mof_O 	O 	0.0003	0.4513	0.8123	-0.089
Mof_O 	O 	0.151	0.438	0.8174	-0.084
Mof_O 	O 	0.3308	0.5595	0.8253	-0.086
Mof_O 	O 	0.4827	0.5582	0.8116	-0.093
Mof_O 	O 	0.0993	0.4351	0.7117	-0.091
Mof_O 	O 	0.1754	0.3992	0.668	-0.091
Mof_O 	O 	0.7381	0.7216	0.3261	-0.371
Mof_O 	O 	0.7482	0.8138	0.3339	-0.356
Mof_O 	O 	0.8986	0.7264	0.6957	-0.448
Mof_O 	O 	0.0522	0.7763	0.6812	-0.428
Mof_O 	O 	0.9038	0.62	0.4381	-0.069
Mof_O 	O 	0.9354	0.6518	0.502	-0.07
Mof_O 	O 	0.8366	0.8491	0.5322	-0.07
Mof_O 	O 	0.8516	0.8954	0.4773	-0.064
Mof_O 	O 	0.7007	0.6969	0.5135	-0.076
Mof_O 	O 	0.6584	0.6919	0.5784	-0.078
Mof_O 	O 	0.0623	0.7952	0.4785	-0.069
Mof_O 	O 	0.1275	0.8406	0.5345	-0.075
Mof_O 	O 	0.9563	0.7426	0.8368	-0.418
Mof_O 	O 	0.11	0.7915	0.825	-0.462
Mof_O 	O 	0.2533	0.7578	0.1943	-0.373
Mof_O 	O 	0.248	0.6676	0.1836	-0.35
Mof_O 	O 	0.8768	0.6622	0.9797	-0.076
Mof_O 	O 	0.9394	0.7025	0.0373	-0.07
Mof_O 	O 	0.3494	0.8137	0.9435	-0.079
Mof_O 	O 	0.3104	0.7933	0.0113	-0.075
Mof_O 	O 	0.1691	0.6504	0.9814	-0.07
Mof_O 	O 	0.15	0.5952	0.0357	-0.064
Mof_O 	O 	0.0845	0.8479	0.0226	-0.07
Mof_O 	O 	0.0784	0.8624	0.0903	-0.069
Mof_O 	O 	0.583	0.8617	0.2752	-0.399
Mof_O 	O 	0.454	0.7961	0.258	-0.498
Mof_O 	O 	0.9124	0.1187	0.2589	-0.383
Mof_O 	O 	0.0352	0.1851	0.238	-0.508
Mof_O 	O 	0.1414	0.8649	0.2035	-0.101
Mof_O 	O 	0.1462	0.9477	0.1889	-0.081
Mof_O 	O 	0.4997	0.0487	0.3123	-0.089
Mof_O 	O 	0.349	0.062	0.3174	-0.084
Mof_O 	O 	0.1692	0.9405	0.3253	-0.086
Mof_O 	O 	0.0173	0.9418	0.3116	-0.093
Mof_O 	O 	0.4007	0.0649	0.2117	-0.091
Mof_O 	O 	0.3246	0.1008	0.168	-0.091
Mof_O 	O 	0.7619	0.7784	0.8261	-0.371
Mof_O 	O 	0.7518	0.6862	0.8339	-0.356
Mof_O 	O 	0.6014	0.7736	0.1957	-0.448
Mof_O 	O 	0.4478	0.7237	0.1812	-0.428
Mof_O 	O 	0.5962	0.88	0.9381	-0.07
Mof_O 	O 	0.5646	0.8482	0.002	-0.07
Mof_O 	O 	0.6634	0.6509	0.0322	-0.07
Mof_O 	O 	0.6484	0.6046	0.9773	-0.064
Mof_O 	O 	0.7993	0.8031	0.0135	-0.077
Mof_O 	O 	0.8416	0.8081	0.0784	-0.078
Mof_O 	O 	0.4377	0.7048	0.9785	-0.069
Mof_O 	O 	0.3725	0.6594	0.0345	-0.075
Mof_O 	O 	0.5437	0.7574	0.3368	-0.418
Mof_O 	O 	0.39	0.7085	0.325	-0.462
Mof_O 	O 	0.2467	0.7422	0.6943	-0.373
Mof_O 	O 	0.252	0.8324	0.6836	-0.35
Mof_O 	O 	0.6232	0.8378	0.4797	-0.076
Mof_O 	O 	0.5606	0.7975	0.5373	-0.07
Mof_O 	O 	0.1506	0.6863	0.4435	-0.079
Mof_O 	O 	0.1896	0.7067	0.5113	-0.075
Mof_O 	O 	0.3309	0.8496	0.4814	-0.07
Mof_O 	O 	0.35	0.9048	0.5357	-0.064
Mof_O 	O 	0.4155	0.6521	0.5226	-0.07
Mof_O 	O 	0.4216	0.6376	0.5903	-0.069
Mof_O 	O 	0.083	0.3617	0.2248	-0.399
Mof_O 	O 	0.954	0.2961	0.242	-0.498
Mof_O 	O 	0.4124	0.6187	0.2411	-0.383
Mof_O 	O 	0.5352	0.6851	0.262	-0.508
Mof_O 	O 	0.6414	0.3649	0.2965	-0.101
Mof_O 	O 	0.6462	0.4477	0.3111	-0.081
Mof_O 	O 	0.9997	0.5487	0.1877	-0.089
Mof_O 	O 	0.849	0.562	0.1826	-0.084
Mof_O 	O 	0.6692	0.4405	0.1747	-0.086
Mof_O 	O 	0.5173	0.4418	0.1884	-0.093
Mof_O 	O 	0.9007	0.5649	0.2883	-0.091
Mof_O 	O 	0.8246	0.6008	0.332	-0.091
Mof_O 	O 	0.2619	0.2784	0.6739	-0.371
Mof_O 	O 	0.2518	0.1862	0.6661	-0.356
Mof_O 	O 	0.1014	0.2736	0.3043	-0.448
Mof_O 	O 	0.9478	0.2237	0.3188	-0.428
Mof_O 	O 	0.0962	0.38	0.5619	-0.069
Mof_O 	O 	0.0646	0.3482	0.498	-0.07
Mof_O 	O 	0.1634	0.1509	0.4678	-0.07
Mof_O 	O 	0.1484	0.1046	0.5227	-0.064
Mof_O 	O 	0.2993	0.3031	0.4865	-0.076
Mof_O 	O 	0.3416	0.3081	0.4216	-0.078
Mof_O 	O 	0.9377	0.2048	0.5215	-0.069
Mof_O 	O 	0.8725	0.1594	0.4655	-0.075
Mof_O 	O 	0.0437	0.2574	0.1632	-0.418
Mof_O 	O 	0.89	0.2085	0.175	-0.462
Mof_O 	O 	0.7467	0.2422	0.8057	-0.373
Mof_O 	O 	0.752	0.3324	0.8164	-0.35
Mof_O 	O 	0.1232	0.3378	0.0203	-0.076
Mof_O 	O 	0.0606	0.2975	0.9627	-0.07
Mof_O 	O 	0.6506	0.1863	0.0565	-0.079
Mof_O 	O 	0.6896	0.2067	0.9887	-0.075
Mof_O 	O 	0.8309	0.3496	0.0186	-0.07
Mof_O 	O 	0.85	0.4048	0.9643	-0.064
Mof_O 	O 	0.9155	0.1521	0.9774	-0.07
Mof_O 	O 	0.9216	0.1376	0.9097	-0.069
Mof_O 	O 	0.417	0.1383	0.7248	-0.399
Mof_O 	O 	0.546	0.2039	0.742	-0.498
Mof_O 	O 	0.0876	0.8813	0.7411	-0.383
Mof_O 	O 	0.9648	0.8149	0.762	-0.508
Mof_O 	O 	0.8586	0.1351	0.7965	-0.101
Mof_O 	O 	0.8538	0.0523	0.8111	-0.081
Mof_O 	O 	0.5003	0.9513	0.6877	-0.089
Mof_O 	O 	0.651	0.938	0.6826	-0.084
Mof_O 	O 	0.8308	0.0595	0.6747	-0.086
Mof_O 	O 	0.9827	0.0582	0.6884	-0.093
Mof_O 	O 	0.5993	0.9351	0.7883	-0.091
Mof_O 	O 	0.6754	0.8992	0.832	-0.091
Mof_O 	O 	0.2381	0.2216	0.1739	-0.371
Mof_O 	O 	0.2482	0.3138	0.1661	-0.356
Mof_O 	O 	0.3986	0.2264	0.8043	-0.448
Mof_O 	O 	0.5522	0.2763	0.8188	-0.428
Mof_O 	O 	0.4038	0.12	0.0619	-0.07
Mof_O 	O 	0.4354	0.1518	0.998	-0.07
Mof_O 	O 	0.3366	0.3491	0.9678	-0.07
Mof_O 	O 	0.3516	0.3954	0.0227	-0.064
Mof_O 	O 	0.2007	0.1969	0.9865	-0.077
Mof_O 	O 	0.1584	0.1919	0.9216	-0.078
Mof_O 	O 	0.5623	0.2952	0.0215	-0.069
Mof_O 	O 	0.6275	0.3406	0.9655	-0.075
Mof_O 	O 	0.4563	0.2426	0.6632	-0.418
Mof_O 	O 	0.61	0.2915	0.675	-0.462
Mof_O 	O 	0.7533	0.2578	0.3057	-0.373
Mof_O 	O 	0.748	0.1676	0.3164	-0.35
Mof_O 	O 	0.3768	0.1622	0.5203	-0.076
Mof_O 	O 	0.4394	0.2025	0.4627	-0.07
Mof_O 	O 	0.8494	0.3137	0.5565	-0.079
Mof_O 	O 	0.8104	0.2933	0.4887	-0.075
Mof_O 	O 	0.6691	0.1504	0.5186	-0.07
Mof_O 	O 	0.65	0.0952	0.4643	-0.064
Mof_O 	O 	0.5845	0.3479	0.4774	-0.07
Mof_O 	O 	0.5784	0.3624	0.4097	-0.069
_end
