data_functionalizedCrystal
_audit_creation_method	'EQeq! by Chris Wilmer'
_symmetry_space_group_name_H-M	'P1'
_symmetry_Int_Tables_number	1
_symmetry_cell_setting	triclinic
loop_
_symmetry_equiv_pos_as_xyz
  x,y,z
_cell_length_a	19.1595
_cell_length_b	15.1428
_cell_length_c	6.618
_cell_angle_alpha	90
_cell_angle_beta	90
_cell_angle_gamma	90
loop_
_atom_site_label
_atom_site_type_symbol
_atom_site_fract_x
_atom_site_fract_y
_atom_site_fract_z
_atom_site_charge
Mof_P 	P 	0.0599	0.3875	0.9217	1.02
Mof_O 	O 	0.3194	0.5179	0.8108	-0.559
Mof_O 	O 	0.1073	0.6046	0.6843	-0.615
Mof_O 	O 	0.2751	0.7704	0.8132	-0.563
Mof_O 	O 	0.066	0.3837	0.6809	-0.356
Mof_H 	H 	0.041	0.423	0.5831	0.169
Mof_P 	P 	0.9401	0.6125	0.9217	1.021
Mof_O 	O 	0.6806	0.4821	0.8108	-0.558
Mof_O 	O 	0.8927	0.3954	0.6843	-0.614
Mof_O 	O 	0.7249	0.2296	0.8132	-0.562
Mof_O 	O 	0.934	0.6163	0.6809	-0.355
Mof_H 	H 	0.959	0.577	0.5831	0.17
Mof_P 	P 	0.4401	0.8875	0.5783	0.436
Mof_O 	O 	0.1806	0.0179	0.6892	-0.598
Mof_O 	O 	0.3927	0.1046	0.8157	-0.564
Mof_O 	O 	0.2249	0.2704	0.6868	-0.607
Mof_O 	O 	0.434	0.8837	0.8191	-0.26
Mof_H 	H 	0.459	0.923	0.9169	0.221
Mof_P 	P 	0.5599	0.1125	0.5783	0.436
Mof_O 	O 	0.8194	0.9821	0.6892	-0.598
Mof_O 	O 	0.6073	0.8954	0.8157	-0.564
Mof_O 	O 	0.7751	0.7296	0.6868	-0.607
Mof_O 	O 	0.566	0.1163	0.8191	-0.26
Mof_H 	H 	0.541	0.077	0.9169	0.221
Mof_P 	P 	0.9401	0.6125	0.0783	0.005
Mof_O 	O 	0.6806	0.4821	0.1892	-0.693
Mof_O 	O 	0.8927	0.3954	0.3157	-0.67
Mof_O 	O 	0.7249	0.2296	0.1868	-0.696
Mof_O 	O 	0.934	0.6163	0.3191	-0.181
Mof_H 	H 	0.959	0.577	0.4169	0.116
Mof_P 	P 	0.0599	0.3875	0.0783	0.005
Mof_O 	O 	0.3194	0.5179	0.1892	-0.693
Mof_O 	O 	0.1073	0.6046	0.3157	-0.67
Mof_O 	O 	0.2751	0.7704	0.1868	-0.696
Mof_O 	O 	0.066	0.3837	0.3191	-0.181
Mof_H 	H 	0.041	0.423	0.4169	0.116
Mof_P 	P 	0.5599	0.1125	0.4217	0.392
Mof_O 	O 	0.8194	0.9821	0.3108	-0.677
Mof_O 	O 	0.6073	0.8954	0.1843	-0.692
Mof_O 	O 	0.7751	0.7296	0.3132	-0.679
Mof_O 	O 	0.566	0.1163	0.1809	-0.301
Mof_H 	H 	0.541	0.077	0.0831	0.057
Mof_P 	P 	0.4401	0.8875	0.4217	0.392
Mof_O 	O 	0.1806	0.0179	0.3108	-0.677
Mof_O 	O 	0.3927	0.1046	0.1843	-0.692
Mof_O 	O 	0.2249	0.2704	0.3132	-0.679
Mof_O 	O 	0.434	0.8837	0.1809	-0.301
Mof_H 	H 	0.459	0.923	0.0831	0.057
Mof_Zr	Zr	0.1132	0.60463	-0	3.217
Mof_Zr	Zr	0.22056	0.27578	-0	3.205
Mof_P 	P 	0.2773	0.4992	-0	0.711
Mof_P 	P 	0.2267	0.7836	-0	0.616
Mof_O 	O 	0.2093	0.5516	-0	-0.828
Mof_O 	O 	0.0777	0.4794	-0	-0.882
Mof_O 	O 	0.1584	0.718	-0	-0.813
Mof_O 	O 	0.2617	0.4018	-0	-0.824
Mof_O 	O 	0.1148	0.3252	-0	-0.742
Mof_O 	O 	0.9878	0.3515	-0	-0.78
Mof_O 	O 	0.2037	0.8809	-0	-0.798
Mof_Zr	Zr	0.8868	0.39537	-0	3.217
Mof_Zr	Zr	0.77944	0.72422	-0	3.205
Mof_P 	P 	0.7227	0.5008	-0	0.711
Mof_P 	P 	0.7733	0.2164	-0	0.616
Mof_O 	O 	0.7907	0.4484	-0	-0.828
Mof_O 	O 	0.9223	0.5206	-0	-0.882
Mof_O 	O 	0.8416	0.282	-0	-0.813
Mof_O 	O 	0.7383	0.5982	-0	-0.824
Mof_O 	O 	0.8852	0.6748	-0	-0.742
Mof_O 	O 	0.0122	0.6485	-0	-0.78
Mof_O 	O 	0.7963	0.1191	-0	-0.798
Mof_Zr	Zr	0.3868	0.10463	0.5	3.224
Mof_Zr	Zr	0.27944	0.77578	0.5	3.214
Mof_P 	P 	0.2227	0.9992	0.5	0.83
Mof_P 	P 	0.2733	0.2836	0.5	0.729
Mof_O 	O 	0.2907	0.0516	0.5	-0.776
Mof_O 	O 	0.4223	0.9794	0.5	-0.776
Mof_O 	O 	0.3416	0.218	0.5	-0.763
Mof_O 	O 	0.2383	0.9018	0.5	-0.764
Mof_O 	O 	0.3852	0.8252	0.5	-0.638
Mof_O 	O 	0.5122	0.8515	0.5	-0.682
Mof_O 	O 	0.2963	0.3809	0.5	-0.744
Mof_Zr	Zr	0.6132	0.89537	0.5	3.224
Mof_Zr	Zr	0.72056	0.22422	0.5	3.214
Mof_P 	P 	0.7773	0.0008	0.5	0.83
Mof_P 	P 	0.7267	0.7164	0.5	0.729
Mof_O 	O 	0.7093	0.9484	0.5	-0.776
Mof_O 	O 	0.5777	0.0206	0.5	-0.776
Mof_O 	O 	0.6584	0.782	0.5	-0.763
Mof_O 	O 	0.7617	0.0982	0.5	-0.764
Mof_O 	O 	0.6148	0.1748	0.5	-0.638
Mof_O 	O 	0.4878	0.1485	0.5	-0.682
Mof_O 	O 	0.7037	0.6191	0.5	-0.744
Mof_Zr	Zr	0.31685	0.51094	0.5	3.228
Mof_P 	P 	0.1532	0.6142	0.5	0.788
Mof_F 	F 	0.3309	0.6502	0.5	-0.984
Mof_O 	O 	0.1883	0.7073	0.5	-0.74
Mof_O 	O 	0.2107	0.5484	0.5	-0.738
Mof_F 	F 	0.4184	0.5105	0.5	-0.707
Mof_Zr	Zr	0.68315	0.48906	0.5	3.228
Mof_P 	P 	0.8468	0.3858	0.5	0.788
Mof_F 	F 	0.6691	0.3498	0.5	-0.984
Mof_O 	O 	0.8117	0.2927	0.5	-0.74
Mof_O 	O 	0.7893	0.4516	0.5	-0.738
Mof_F 	F 	0.5816	0.4895	0.5	-0.707
Mof_Zr	Zr	0.18315	0.01094	-0	3.219
Mof_P 	P 	0.3468	0.1142	-0	0.67
Mof_F 	F 	0.1691	0.1502	-0	-1.026
Mof_O 	O 	0.3117	0.2073	-0	-0.808
Mof_O 	O 	0.2893	0.0484	-0	-0.798
Mof_F 	F 	0.0816	0.0105	-0	-0.748
Mof_Zr	Zr	0.81685	0.98906	-0	3.219
Mof_P 	P 	0.6532	0.8858	-0	0.67
Mof_F 	F 	0.8309	0.8498	-0	-1.026
Mof_O 	O 	0.6883	0.7927	-0	-0.808
Mof_O 	O 	0.7107	0.9516	-0	-0.798
Mof_F 	F 	0.9184	0.9895	-0	-0.748
_end
