data_functionalizedCrystal
_audit_creation_method	'EQeq! by Chris Wilmer'
_symmetry_space_group_name_H-M	'P1'
_symmetry_Int_Tables_number	1
_symmetry_cell_setting	triclinic
loop_
_symmetry_equiv_pos_as_xyz
  x,y,z
_cell_length_a	17.8263
_cell_length_b	17.8263
_cell_length_c	17.8263
_cell_angle_alpha	60
_cell_angle_beta	60
_cell_angle_gamma	60
loop_
_atom_site_label
_atom_site_type_symbol
_atom_site_fract_x
_atom_site_fract_y
_atom_site_fract_z
_atom_site_charge
Mof_Ni	Ni	0.13551	0.75	0.86449	1.006
Mof_Ni	Ni	0.25	0.63551	0.25	1.006
Mof_Ni	Ni	0.36449	0.25	0.63551	1.006
Mof_Ni	Ni	0.75	0.86449	0.75	1.006
Mof_Ni	Ni	0.13551	0.86449	0.25	1.006
Mof_Ni	Ni	0.25	0.25	0.86449	1.006
Mof_Ni	Ni	0.36449	0.63551	0.75	1.006
Mof_Ni	Ni	0.75	0.75	0.63551	1.006
Mof_Ni	Ni	0.13551	0.25	0.75	1.006
Mof_Ni	Ni	0.25	0.86449	0.63551	1.006
Mof_Ni	Ni	0.36449	0.75	0.25	1.006
Mof_Ni	Ni	0.75	0.63551	0.86449	1.006
Mof_Ni	Ni	0.86449	0.25	0.13551	1.006
Mof_Ni	Ni	0.75	0.36449	0.75	1.006
Mof_Ni	Ni	0.63551	0.75	0.36449	1.006
Mof_Ni	Ni	0.25	0.13551	0.25	1.006
Mof_Ni	Ni	0.86449	0.13551	0.75	1.006
Mof_Ni	Ni	0.75	0.75	0.13551	1.006
Mof_Ni	Ni	0.63551	0.36449	0.25	1.006
Mof_Ni	Ni	0.25	0.25	0.36449	1.006
Mof_Ni	Ni	0.86449	0.75	0.25	1.006
Mof_Ni	Ni	0.75	0.13551	0.36449	1.006
Mof_Ni	Ni	0.63551	0.25	0.75	1.006
Mof_Ni	Ni	0.25	0.36449	0.13551	1.006
Mof_H 	H 	0.1218	0.5688	0.0504	-0.064
Mof_H 	H 	0.0688	0.6218	0.259	-0.064
Mof_H 	H 	0.5504	0.259	0.6218	-0.064
Mof_H 	H 	0.759	0.0504	0.5688	-0.064
Mof_H 	H 	0.1218	0.0504	0.259	-0.064
Mof_H 	H 	0.0688	0.259	0.0504	-0.063
Mof_H 	H 	0.5504	0.6218	0.5688	-0.064
Mof_H 	H 	0.759	0.5688	0.6218	-0.064
Mof_H 	H 	0.1218	0.259	0.5688	-0.064
Mof_H 	H 	0.0688	0.0504	0.6218	-0.064
Mof_H 	H 	0.5504	0.5688	0.259	-0.064
Mof_H 	H 	0.759	0.6218	0.0504	-0.064
Mof_H 	H 	0.4312	0.8782	0.4496	-0.064
Mof_H 	H 	0.3782	0.9312	0.241	-0.064
Mof_H 	H 	0.741	0.4496	0.8782	-0.065
Mof_H 	H 	0.9496	0.241	0.9312	-0.065
Mof_H 	H 	0.9496	0.8782	0.241	-0.065
Mof_H 	H 	0.741	0.9312	0.4496	-0.065
Mof_H 	H 	0.3782	0.4496	0.9312	-0.065
Mof_H 	H 	0.4312	0.241	0.8782	-0.065
Mof_H 	H 	0.741	0.8782	0.9312	-0.065
Mof_H 	H 	0.9496	0.9312	0.8782	-0.065
Mof_H 	H 	0.4312	0.4496	0.241	-0.065
Mof_H 	H 	0.3782	0.241	0.4496	-0.065
Mof_H 	H 	0.8782	0.4312	0.9496	-0.065
Mof_H 	H 	0.9312	0.3782	0.741	-0.065
Mof_H 	H 	0.4496	0.741	0.3782	-0.065
Mof_H 	H 	0.241	0.9496	0.4312	-0.065
Mof_H 	H 	0.8782	0.9496	0.741	-0.065
Mof_H 	H 	0.9312	0.741	0.9496	-0.064
Mof_H 	H 	0.4496	0.3782	0.4312	-0.065
Mof_H 	H 	0.241	0.4312	0.3782	-0.065
Mof_H 	H 	0.8782	0.741	0.4312	-0.065
Mof_H 	H 	0.9312	0.9496	0.3782	-0.065
Mof_H 	H 	0.4496	0.4312	0.741	-0.065
Mof_H 	H 	0.241	0.3782	0.9496	-0.065
Mof_H 	H 	0.5688	0.1218	0.5504	-0.065
Mof_H 	H 	0.6218	0.0688	0.759	-0.065
Mof_H 	H 	0.259	0.5504	0.1218	-0.065
Mof_H 	H 	0.0504	0.759	0.0688	-0.065
Mof_H 	H 	0.0504	0.1218	0.759	-0.065
Mof_H 	H 	0.259	0.0688	0.5504	-0.065
Mof_H 	H 	0.6218	0.5504	0.0688	-0.065
Mof_H 	H 	0.5688	0.759	0.1218	-0.065
Mof_H 	H 	0.259	0.1218	0.0688	-0.065
Mof_H 	H 	0.0504	0.0688	0.1218	-0.065
Mof_H 	H 	0.5688	0.5504	0.759	-0.065
Mof_H 	H 	0.6218	0.759	0.5504	-0.065
Mof_C 	C 	0.18058	0.5575	0.0073	0.078
Mof_C 	C 	0.0575	0.68058	0.25462	0.078
Mof_C 	C 	0.5073	0.25462	0.68058	0.078
Mof_C 	C 	0.75462	0.0073	0.5575	0.078
Mof_C 	C 	0.18058	0.0073	0.25462	0.077
Mof_C 	C 	0.0575	0.25462	0.0073	0.076
Mof_C 	C 	0.5073	0.68058	0.5575	0.078
Mof_C 	C 	0.75462	0.5575	0.68058	0.078
Mof_C 	C 	0.18058	0.25462	0.5575	0.078
Mof_C 	C 	0.0575	0.0073	0.68058	0.077
Mof_C 	C 	0.5073	0.5575	0.25462	0.078
Mof_C 	C 	0.75462	0.68058	0.0073	0.079
Mof_C 	C 	0.4425	0.81942	0.4927	0.078
Mof_C 	C 	0.31942	0.9425	0.24538	0.079
Mof_C 	C 	0.74538	0.4927	0.81942	0.078
Mof_C 	C 	0.9927	0.24538	0.9425	0.078
Mof_C 	C 	0.9927	0.81942	0.24538	0.078
Mof_C 	C 	0.74538	0.9425	0.4927	0.078
Mof_C 	C 	0.31942	0.4927	0.9425	0.079
Mof_C 	C 	0.4425	0.24538	0.81942	0.078
Mof_C 	C 	0.74538	0.81942	0.9425	0.078
Mof_C 	C 	0.9927	0.9425	0.81942	0.076
Mof_C 	C 	0.4425	0.4927	0.24538	0.078
Mof_C 	C 	0.31942	0.24538	0.4927	0.078
Mof_C 	C 	0.81942	0.4425	0.9927	0.078
Mof_C 	C 	0.9425	0.31942	0.74538	0.078
Mof_C 	C 	0.4927	0.74538	0.31942	0.078
Mof_C 	C 	0.24538	0.9927	0.4425	0.078
Mof_C 	C 	0.81942	0.9927	0.74538	0.077
Mof_C 	C 	0.9425	0.74538	0.9927	0.076
Mof_C 	C 	0.4927	0.31942	0.4425	0.078
Mof_C 	C 	0.24538	0.4425	0.31942	0.078
Mof_C 	C 	0.81942	0.74538	0.4425	0.078
Mof_C 	C 	0.9425	0.9927	0.31942	0.077
Mof_C 	C 	0.4927	0.4425	0.74538	0.078
Mof_C 	C 	0.24538	0.31942	0.9927	0.079
Mof_C 	C 	0.5575	0.18058	0.5073	0.078
Mof_C 	C 	0.68058	0.0575	0.75462	0.079
Mof_C 	C 	0.25462	0.5073	0.18058	0.078
Mof_C 	C 	0.0073	0.75462	0.0575	0.078
Mof_C 	C 	0.0073	0.18058	0.75462	0.078
Mof_C 	C 	0.25462	0.0575	0.5073	0.078
Mof_C 	C 	0.68058	0.5073	0.0575	0.079
Mof_C 	C 	0.5575	0.75462	0.18058	0.078
Mof_C 	C 	0.25462	0.18058	0.0575	0.078
Mof_C 	C 	0.0073	0.0575	0.18058	0.076
Mof_C 	C 	0.5575	0.5073	0.75462	0.078
Mof_C 	C 	0.68058	0.75462	0.5073	0.078
Mof_N 	N 	0.20539	0.61759	0.92479	-0.256
Mof_N 	N 	0.11759	0.70539	0.25223	-0.256
Mof_N 	N 	0.42479	0.25223	0.70539	-0.256
Mof_N 	N 	0.75223	0.92479	0.61759	-0.256
Mof_N 	N 	0.20539	0.92479	0.25223	-0.255
Mof_N 	N 	0.11759	0.25223	0.92479	-0.255
Mof_N 	N 	0.42479	0.70539	0.61759	-0.256
Mof_N 	N 	0.75223	0.61759	0.70539	-0.256
Mof_N 	N 	0.20539	0.25223	0.61759	-0.256
Mof_N 	N 	0.11759	0.92479	0.70539	-0.255
Mof_N 	N 	0.42479	0.61759	0.25223	-0.256
Mof_N 	N 	0.75223	0.70539	0.92479	-0.256
Mof_N 	N 	0.38241	0.79461	0.57521	-0.256
Mof_N 	N 	0.29461	0.88241	0.24777	-0.256
Mof_N 	N 	0.74777	0.57521	0.79461	-0.256
Mof_N 	N 	0.07521	0.24777	0.88241	-0.256
Mof_N 	N 	0.07521	0.79461	0.24777	-0.256
Mof_N 	N 	0.74777	0.88241	0.57521	-0.256
Mof_N 	N 	0.29461	0.57521	0.88241	-0.256
Mof_N 	N 	0.38241	0.24777	0.79461	-0.256
Mof_N 	N 	0.74777	0.79461	0.88241	-0.256
Mof_N 	N 	0.07521	0.88241	0.79461	-0.255
Mof_N 	N 	0.38241	0.57521	0.24777	-0.256
Mof_N 	N 	0.29461	0.24777	0.57521	-0.256
Mof_N 	N 	0.79461	0.38241	0.07521	-0.256
Mof_N 	N 	0.88241	0.29461	0.74777	-0.256
Mof_N 	N 	0.57521	0.74777	0.29461	-0.256
Mof_N 	N 	0.24777	0.07521	0.38241	-0.256
Mof_N 	N 	0.79461	0.07521	0.74777	-0.255
Mof_N 	N 	0.88241	0.74777	0.07521	-0.255
Mof_N 	N 	0.57521	0.29461	0.38241	-0.256
Mof_N 	N 	0.24777	0.38241	0.29461	-0.256
Mof_N 	N 	0.79461	0.74777	0.38241	-0.256
Mof_N 	N 	0.88241	0.07521	0.29461	-0.255
Mof_N 	N 	0.57521	0.38241	0.74777	-0.256
Mof_N 	N 	0.24777	0.29461	0.07521	-0.256
Mof_N 	N 	0.61759	0.20539	0.42479	-0.256
Mof_N 	N 	0.70539	0.11759	0.75223	-0.256
Mof_N 	N 	0.25223	0.42479	0.20539	-0.256
Mof_N 	N 	0.92479	0.75223	0.11759	-0.256
Mof_N 	N 	0.92479	0.20539	0.75223	-0.256
Mof_N 	N 	0.25223	0.11759	0.42479	-0.256
Mof_N 	N 	0.70539	0.42479	0.11759	-0.256
Mof_N 	N 	0.61759	0.75223	0.20539	-0.256
Mof_N 	N 	0.25223	0.20539	0.11759	-0.256
Mof_N 	N 	0.92479	0.11759	0.20539	-0.255
Mof_N 	N 	0.61759	0.42479	0.75223	-0.256
Mof_N 	N 	0.70539	0.75223	0.42479	-0.256
Mof_N 	N 	0.25	0.47858	0.02142	-0.287
Mof_N 	N 	0.97858	0.75	0.25	-0.287
Mof_N 	N 	0.52142	0.25	0.75	-0.287
Mof_N 	N 	0.75	0.02142	0.47858	-0.287
Mof_N 	N 	0.25	0.02142	0.25	-0.287
Mof_N 	N 	0.97858	0.25	0.02142	-0.286
Mof_N 	N 	0.52142	0.75	0.47858	-0.287
Mof_N 	N 	0.75	0.47858	0.75	-0.287
Mof_N 	N 	0.25	0.25	0.47858	-0.287
Mof_N 	N 	0.97858	0.02142	0.75	-0.286
Mof_N 	N 	0.52142	0.47858	0.25	-0.287
Mof_N 	N 	0.75	0.75	0.02142	-0.286
Mof_N 	N 	0.75	0.52142	0.97858	-0.287
Mof_N 	N 	0.02142	0.25	0.75	-0.287
Mof_N 	N 	0.47858	0.75	0.25	-0.287
Mof_N 	N 	0.25	0.97858	0.52142	-0.287
Mof_N 	N 	0.75	0.97858	0.75	-0.287
Mof_N 	N 	0.02142	0.75	0.97858	-0.286
Mof_N 	N 	0.47858	0.25	0.52142	-0.287
Mof_N 	N 	0.25	0.52142	0.25	-0.287
Mof_N 	N 	0.75	0.75	0.52142	-0.287
Mof_N 	N 	0.02142	0.97858	0.25	-0.286
Mof_N 	N 	0.47858	0.52142	0.75	-0.287
Mof_N 	N 	0.25	0.25	0.97858	-0.286
Mof_O 	O 	0.25	0.75	0.75	-0.702
Mof_O 	O 	0.25	0.75	0.25	-0.702
Mof_O 	O 	0.25	0.25	0.75	-0.702
Mof_O 	O 	0.75	0.75	0.75	-0.702
Mof_O 	O 	0.75	0.25	0.25	-0.702
Mof_O 	O 	0.75	0.25	0.75	-0.702
Mof_O 	O 	0.75	0.75	0.25	-0.702
Mof_O 	O 	0.25	0.25	0.25	-0.702
_end
