data_functionalizedCrystal
_audit_creation_method	'EQeq! by Chris Wilmer'
_symmetry_space_group_name_H-M	'P1'
_symmetry_Int_Tables_number	1
_symmetry_cell_setting	triclinic
loop_
_symmetry_equiv_pos_as_xyz
  x,y,z
_cell_length_a	20.7425
_cell_length_b	20.7425
_cell_length_c	20.7425
_cell_angle_alpha	90
_cell_angle_beta	90
_cell_angle_gamma	90
loop_
_atom_site_label
_atom_site_type_symbol
_atom_site_fract_x
_atom_site_fract_y
_atom_site_fract_z
_atom_site_charge
Mof_Zr	Zr	0.11958	0	-0	3.273
Mof_Zr	Zr	0.11958	0.5	0.5	3.322
Mof_Zr	Zr	0.61958	-5.65714e-33	0.5	3.244
Mof_Zr	Zr	0.61958	0.5	-0	3.244
Mof_Zr	Zr	0.88042	0	-0	3.162
Mof_Zr	Zr	0.88042	0.5	0.5	3.205
Mof_Zr	Zr	0.38042	-5.65714e-33	0.5	3.25
Mof_Zr	Zr	0.38042	0.5	-0	3.25
Mof_Zr	Zr	-1.41429e-33	0.11958	-0	3.273
Mof_Zr	Zr	7.53184e-33	0.61958	0.5	3.244
Mof_Zr	Zr	0.5	0.11958	0.5	3.322
Mof_Zr	Zr	0.5	0.61958	-0	3.244
Mof_Zr	Zr	-0	0.88042	-0	3.162
Mof_Zr	Zr	-9.43959e-33	0.38042	0.5	3.25
Mof_Zr	Zr	0.5	0.88042	0.5	3.205
Mof_Zr	Zr	0.5	0.38042	-0	3.25
Mof_Zr	Zr	-9.65932e-34	-1.41429e-33	0.11958	3.273
Mof_Zr	Zr	7.9802e-33	0.5	0.61958	3.244
Mof_Zr	Zr	0.5	0	0.61958	3.244
Mof_Zr	Zr	0.5	0.5	0.11958	3.323
Mof_Zr	Zr	3.30105e-33	0	0.88042	3.163
Mof_Zr	Zr	-7.05937e-33	0.5	0.38042	3.251
Mof_Zr	Zr	0.5	0	0.38042	3.251
Mof_Zr	Zr	0.5	0.5	0.88042	3.206
Mof_O 	O 	0.1714	0.0938	-0	0.191
Mof_C 	C 	0.2668	0.1859	-0	-0.988
Mof_H 	H 	0.2787	0.1417	-0	0.352
Mof_O 	O 	0.1954	0.0739	-0	-0.751
Mof_O 	O 	0.1714	0.5938	0.5	-0.135
Mof_C 	C 	0.2668	0.6859	0.5	-0.395
Mof_H 	H 	0.2787	0.6417	0.5	0.201
Mof_O 	O 	0.1954	0.5739	0.5	-0.351
Mof_O 	O 	0.6714	0.0938	0.5	0.396
Mof_C 	C 	0.7668	0.1859	0.5	-0.391
Mof_H 	H 	0.7787	0.1417	0.5	0.189
Mof_O 	O 	0.6954	0.0739	0.5	-1.022
Mof_O 	O 	0.6714	0.5938	-0	-2.658
Mof_C 	C 	0.7668	0.6859	-0	0.412
Mof_H 	H 	0.7787	0.6417	-0	-0.181
Mof_O 	O 	0.6954	0.5739	-0	1.57
Mof_O 	O 	0.8286	0.9062	-0	-1.755
Mof_C 	C 	0.7332	0.8141	-0	-0.122
Mof_H 	H 	0.7213	0.8583	-0	0.039
Mof_O 	O 	0.8046	0.9261	-0	0.934
Mof_O 	O 	0.8286	0.4062	0.5	-1.371
Mof_C 	C 	0.7332	0.3141	0.5	0.394
Mof_H 	H 	0.7213	0.3583	0.5	-0.113
Mof_O 	O 	0.8046	0.4261	0.5	0.569
Mof_O 	O 	0.3286	0.9062	0.5	-1.135
Mof_C 	C 	0.2332	0.8141	0.5	0.394
Mof_H 	H 	0.2213	0.8583	0.5	-0.098
Mof_O 	O 	0.3046	0.9261	0.5	0.371
Mof_O 	O 	0.3286	0.4062	-0	-3.543
Mof_C 	C 	0.2332	0.3141	-0	1.158
Mof_H 	H 	0.2213	0.3583	-0	-0.485
Mof_O 	O 	0.3046	0.4261	-0	2.247
Mof_O 	O 	0.8286	0.0938	-0	-0.561
Mof_C 	C 	0.7332	0.1859	-0	-0.577
Mof_H 	H 	0.7213	0.1417	-0	0.176
Mof_O 	O 	0.8046	0.0739	-0	-0.228
Mof_O 	O 	0.8286	0.5938	0.5	-0.853
Mof_C 	C 	0.7332	0.6859	0.5	0.022
Mof_H 	H 	0.7213	0.6417	0.5	0.024
Mof_O 	O 	0.8046	0.5739	0.5	0.144
Mof_O 	O 	0.3286	0.0938	0.5	0.048
Mof_C 	C 	0.2332	0.1859	0.5	-0.034
Mof_H 	H 	0.2213	0.1417	0.5	0.029
Mof_O 	O 	0.3046	0.0739	0.5	-0.787
Mof_O 	O 	0.3286	0.5938	-0	-3.103
Mof_C 	C 	0.2332	0.6859	-0	0.804
Mof_H 	H 	0.2213	0.6417	-0	-0.356
Mof_O 	O 	0.3046	0.5739	-0	1.884
Mof_O 	O 	0.1714	0.9062	-0	-0.989
Mof_C 	C 	0.2668	0.8141	-0	-0.57
Mof_H 	H 	0.2787	0.8583	-0	0.229
Mof_O 	O 	0.1954	0.9261	-0	0.404
Mof_O 	O 	0.1714	0.4062	0.5	-0.609
Mof_C 	C 	0.2668	0.3141	0.5	-0.027
Mof_H 	H 	0.2787	0.3583	0.5	0.067
Mof_O 	O 	0.1954	0.4261	0.5	0.039
Mof_O 	O 	0.6714	0.9062	0.5	-0.738
Mof_C 	C 	0.7668	0.8141	0.5	0.032
Mof_H 	H 	0.7787	0.8583	0.5	0.063
Mof_O 	O 	0.6954	0.9261	0.5	0.091
Mof_O 	O 	0.6714	0.4062	-0	-3.229
Mof_C 	C 	0.7668	0.3141	-0	0.815
Mof_H 	H 	0.7787	0.3583	-0	-0.33
Mof_O 	O 	0.6954	0.4261	-0	2.039
Mof_O 	O 	-1.06259e-33	0.1714	0.0938	0.191
Mof_C 	C 	-2.13156e-33	0.2668	0.1859	-0.988
Mof_H 	H 	5.3129e-34	0.2787	0.1417	0.352
Mof_O 	O 	-4.30062e-34	0.1954	0.0739	-0.751
Mof_O 	O 	-3.43075e-33	0.6714	0.5938	-2.658
Mof_C 	C 	8.22886e-33	0.7668	0.6859	0.412
Mof_H 	H 	-8.9083e-33	0.7787	0.6417	-0.181
Mof_O 	O 	-9.1625e-33	0.6954	0.5739	1.57
Mof_O 	O 	0.5	0.1714	0.5938	-0.135
Mof_C 	C 	0.5	0.2668	0.6859	-0.395
Mof_H 	H 	0.5	0.2787	0.6417	0.201
Mof_O 	O 	0.5	0.1954	0.5739	-0.351
Mof_O 	O 	0.5	0.6714	0.0938	0.396
Mof_C 	C 	0.5	0.7668	0.1859	-0.391
Mof_H 	H 	0.5	0.7787	0.1417	0.189
Mof_O 	O 	0.5	0.6954	0.0739	-1.022
Mof_O 	O 	-7.91658e-33	0.8286	0.9062	-1.755
Mof_C 	C 	1.43667e-32	0.7332	0.8141	-0.122
Mof_H 	H 	-8.09618e-33	0.7213	0.8583	0.039
Mof_O 	O 	3.47232e-33	0.8046	0.9261	0.934
Mof_O 	O 	-4.13414e-33	0.3286	0.4062	-3.543
Mof_C 	C 	1.17769e-33	0.2332	0.3141	1.158
Mof_H 	H 	-7.1423e-33	0.2213	0.3583	-0.485
Mof_O 	O 	-4.05952e-33	0.3046	0.4261	2.247
Mof_O 	O 	0.5	0.8286	0.4062	-1.371
Mof_C 	C 	0.5	0.7332	0.3141	0.394
Mof_H 	H 	0.5	0.7213	0.3583	-0.113
Mof_O 	O 	0.5	0.8046	0.4261	0.569
Mof_O 	O 	0.5	0.3286	0.9062	-1.135
Mof_C 	C 	0.5	0.2332	0.8141	0.394
Mof_H 	H 	0.5	0.2213	0.8583	-0.098
Mof_O 	O 	0.5	0.3046	0.9261	0.371
Mof_O 	O 	-1.06259e-33	0.8286	0.0938	-0.561
Mof_C 	C 	9.18273e-33	0.7332	0.1859	-0.577
Mof_H 	H 	-2.29728e-33	0.7213	0.1417	0.176
Mof_O 	O 	-1.84435e-33	0.8046	0.0739	-0.228
Mof_O 	O 	-3.43075e-33	0.3286	0.5938	-3.103
Mof_C 	C 	2.57171e-33	0.2332	0.6859	0.804
Mof_H 	H 	8.06313e-33	0.2213	0.6417	-0.356
Mof_O 	O 	-3.50536e-33	0.3046	0.5739	1.884
Mof_O 	O 	0.5	0.8286	0.5938	-0.853
Mof_C 	C 	0.5	0.7332	0.6859	0.022
Mof_H 	H 	0.5	0.7213	0.6417	0.024
Mof_O 	O 	0.5	0.8046	0.5739	0.144
Mof_O 	O 	0.5	0.3286	0.0938	0.048
Mof_C 	C 	0.5	0.2332	0.1859	-0.034
Mof_H 	H 	0.5	0.2213	0.1417	0.029
Mof_O 	O 	0.5	0.3046	0.0739	-0.787
Mof_O 	O 	3.39771e-33	0.1714	0.9062	-0.989
Mof_C 	C 	-2.60476e-33	0.2668	0.8141	-0.57
Mof_H 	H 	-8.09618e-33	0.2787	0.8583	0.229
Mof_O 	O 	-7.84197e-33	0.1954	0.9261	0.404
Mof_O 	O 	1.52301e-33	0.6714	0.4062	-3.229
Mof_C 	C 	-4.47946e-33	0.7668	0.3141	0.815
Mof_H 	H 	-4.31373e-33	0.7787	0.3583	-0.33
Mof_O 	O 	-4.05952e-33	0.6954	0.4261	2.039
Mof_O 	O 	0.5	0.1714	0.4062	-0.609
Mof_C 	C 	0.5	0.2668	0.3141	-0.027
Mof_H 	H 	0.5	0.2787	0.3583	0.067
Mof_O 	O 	0.5	0.1954	0.4261	0.039
Mof_O 	O 	0.5	0.6714	0.9062	-0.738
Mof_C 	C 	0.5	0.7668	0.8141	0.032
Mof_H 	H 	0.5	0.7787	0.8583	0.063
Mof_O 	O 	0.5	0.6954	0.9261	0.091
Mof_O 	O 	0.0938	0	0.1714	0.191
Mof_C 	C 	0.1859	-2.82857e-33	0.2668	-0.988
Mof_H 	H 	0.1417	-2.82857e-33	0.2787	0.352
Mof_O 	O 	0.0739	-1.41429e-33	0.1954	-0.751
Mof_O 	O 	0.0938	0.5	0.6714	0.396
Mof_C 	C 	0.1859	0.5	0.7668	-0.391
Mof_H 	H 	0.1417	0.5	0.7787	0.189
Mof_O 	O 	0.0739	0.5	0.6954	-1.022
Mof_O 	O 	0.5938	-5.65714e-33	0.6714	-2.658
Mof_C 	C 	0.6859	-5.65714e-33	0.7668	0.412
Mof_H 	H 	0.6417	-5.65714e-33	0.7787	-0.181
Mof_O 	O 	0.5739	0	0.6954	1.57
Mof_O 	O 	0.5938	0.5	0.1714	-0.135
Mof_C 	C 	0.6859	0.5	0.2668	-0.395
Mof_H 	H 	0.6417	0.5	0.2787	0.201
Mof_O 	O 	0.5739	0.5	0.1954	-0.351
Mof_O 	O 	0.9062	-5.65714e-33	0.8286	-1.755
Mof_C 	C 	0.8141	0	0.7332	-0.122
Mof_H 	H 	0.8583	-5.65714e-33	0.7213	0.039
Mof_O 	O 	0.9261	0	0.8046	0.934
Mof_O 	O 	0.9062	0.5	0.3286	-1.135
Mof_C 	C 	0.8141	0.5	0.2332	0.394
Mof_H 	H 	0.8583	0.5	0.2213	-0.098
Mof_O 	O 	0.9261	0.5	0.3046	0.371
Mof_O 	O 	0.4062	-2.82857e-33	0.3286	-3.543
Mof_C 	C 	0.3141	0	0.2332	1.158
Mof_H 	H 	0.3583	0	0.2213	-0.485
Mof_O 	O 	0.4261	0	0.3046	2.247
Mof_O 	O 	0.4062	0.5	0.8286	-1.371
Mof_C 	C 	0.3141	0.5	0.7332	0.394
Mof_H 	H 	0.3583	0.5	0.7213	-0.113
Mof_O 	O 	0.4261	0.5	0.8046	0.569
Mof_O 	O 	0.0938	-5.65714e-33	0.8286	-0.561
Mof_C 	C 	0.1859	0	0.7332	-0.577
Mof_H 	H 	0.1417	-5.65714e-33	0.7213	0.176
Mof_O 	O 	0.0739	0	0.8046	-0.228
Mof_O 	O 	0.0938	0.5	0.3286	0.048
Mof_C 	C 	0.1859	0.5	0.2332	-0.034
Mof_H 	H 	0.1417	0.5	0.2213	0.029
Mof_O 	O 	0.0739	0.5	0.3046	-0.787
Mof_O 	O 	0.5938	-2.82857e-33	0.3286	-3.103
Mof_C 	C 	0.6859	0	0.2332	0.804
Mof_H 	H 	0.6417	0	0.2213	-0.356
Mof_O 	O 	0.5739	0	0.3046	1.884
Mof_O 	O 	0.5938	0.5	0.8286	-0.853
Mof_C 	C 	0.6859	0.5	0.7332	0.022
Mof_H 	H 	0.6417	0.5	0.7213	0.024
Mof_O 	O 	0.5739	0.5	0.8046	0.144
Mof_O 	O 	0.9062	0	0.1714	-0.989
Mof_C 	C 	0.8141	-2.82857e-33	0.2668	-0.57
Mof_H 	H 	0.8583	-2.82857e-33	0.2787	0.229
Mof_O 	O 	0.9261	-1.41429e-33	0.1954	0.404
Mof_O 	O 	0.9062	0.5	0.6714	-0.738
Mof_C 	C 	0.8141	0.5	0.7668	0.032
Mof_H 	H 	0.8583	0.5	0.7787	0.063
Mof_O 	O 	0.9261	0.5	0.6954	0.091
Mof_O 	O 	0.4062	-5.65714e-33	0.6714	-3.229
Mof_C 	C 	0.3141	-5.65714e-33	0.7668	0.815
Mof_H 	H 	0.3583	-5.65714e-33	0.7787	-0.33
Mof_O 	O 	0.4261	0	0.6954	2.039
Mof_O 	O 	0.4062	0.5	0.1714	-0.609
Mof_C 	C 	0.3141	0.5	0.2668	-0.027
Mof_H 	H 	0.3583	0.5	0.2787	0.067
Mof_O 	O 	0.4261	0.5	0.1954	0.039
Mof_O 	O 	0.0938	0.1714	-0	0.191
Mof_C 	C 	0.1859	0.2668	-0	-0.988
Mof_H 	H 	0.1417	0.2787	-0	0.352
Mof_O 	O 	0.0739	0.1954	-0	-0.751
Mof_O 	O 	0.0938	0.6714	0.5	0.396
Mof_C 	C 	0.1859	0.7668	0.5	-0.391
Mof_H 	H 	0.1417	0.7787	0.5	0.189
Mof_O 	O 	0.0739	0.6954	0.5	-1.022
Mof_O 	O 	0.5938	0.1714	0.5	-0.135
Mof_C 	C 	0.6859	0.2668	0.5	-0.395
Mof_H 	H 	0.6417	0.2787	0.5	0.201
Mof_O 	O 	0.5739	0.1954	0.5	-0.351
Mof_O 	O 	0.5938	0.6714	-0	-2.658
Mof_C 	C 	0.6859	0.7668	-0	0.412
Mof_H 	H 	0.6417	0.7787	-0	-0.181
Mof_O 	O 	0.5739	0.6954	-0	1.57
Mof_O 	O 	0.9062	0.8286	-0	-1.755
Mof_C 	C 	0.8141	0.7332	-0	-0.122
Mof_H 	H 	0.8583	0.7213	-0	0.039
Mof_O 	O 	0.9261	0.8046	-0	0.934
Mof_O 	O 	0.9062	0.3286	0.5	-1.135
Mof_C 	C 	0.8141	0.2332	0.5	0.394
Mof_H 	H 	0.8583	0.2213	0.5	-0.098
Mof_O 	O 	0.9261	0.3046	0.5	0.371
Mof_O 	O 	0.4062	0.8286	0.5	-1.371
Mof_C 	C 	0.3141	0.7332	0.5	0.394
Mof_H 	H 	0.3583	0.7213	0.5	-0.113
Mof_O 	O 	0.4261	0.8046	0.5	0.569
Mof_O 	O 	0.4062	0.3286	-0	-3.543
Mof_C 	C 	0.3141	0.2332	-0	1.158
Mof_H 	H 	0.3583	0.2213	-0	-0.485
Mof_O 	O 	0.4261	0.3046	-0	2.247
Mof_O 	O 	0.0938	0.8286	-0	-0.561
Mof_C 	C 	0.1859	0.7332	-0	-0.577
Mof_H 	H 	0.1417	0.7213	-0	0.176
Mof_O 	O 	0.0739	0.8046	-0	-0.228
Mof_O 	O 	0.0938	0.3286	0.5	0.048
Mof_C 	C 	0.1859	0.2332	0.5	-0.034
Mof_H 	H 	0.1417	0.2213	0.5	0.029
Mof_O 	O 	0.0739	0.3046	0.5	-0.787
Mof_O 	O 	0.5938	0.8286	0.5	-0.853
Mof_C 	C 	0.6859	0.7332	0.5	0.022
Mof_H 	H 	0.6417	0.7213	0.5	0.024
Mof_O 	O 	0.5739	0.8046	0.5	0.144
Mof_O 	O 	0.5938	0.3286	-0	-3.103
Mof_C 	C 	0.6859	0.2332	-0	0.804
Mof_H 	H 	0.6417	0.2213	-0	-0.356
Mof_O 	O 	0.5739	0.3046	-0	1.884
Mof_O 	O 	0.9062	0.1714	-0	-0.989
Mof_C 	C 	0.8141	0.2668	-0	-0.57
Mof_H 	H 	0.8583	0.2787	-0	0.229
Mof_O 	O 	0.9261	0.1954	-0	0.404
Mof_O 	O 	0.9062	0.6714	0.5	-0.738
Mof_C 	C 	0.8141	0.7668	0.5	0.032
Mof_H 	H 	0.8583	0.7787	0.5	0.063
Mof_O 	O 	0.9261	0.6954	0.5	0.091
Mof_O 	O 	0.4062	0.1714	0.5	-0.609
Mof_C 	C 	0.3141	0.2668	0.5	-0.027
Mof_H 	H 	0.3583	0.2787	0.5	0.067
Mof_O 	O 	0.4261	0.1954	0.5	0.039
Mof_O 	O 	0.4062	0.6714	-0	-3.229
Mof_C 	C 	0.3141	0.7668	-0	0.815
Mof_H 	H 	0.3583	0.7787	-0	-0.33
Mof_O 	O 	0.4261	0.6954	-0	2.039
Mof_O 	O 	0.1714	-1.13143e-32	0.9062	-0.989
Mof_C 	C 	0.2668	0	0.8141	-0.57
Mof_H 	H 	0.2787	-1.13143e-32	0.8583	0.229
Mof_O 	O 	0.1954	0	0.9261	0.404
Mof_O 	O 	0.1714	0.5	0.4062	-0.609
Mof_C 	C 	0.2668	0.5	0.3141	-0.027
Mof_H 	H 	0.2787	0.5	0.3583	0.067
Mof_O 	O 	0.1954	0.5	0.4261	0.039
Mof_O 	O 	0.6714	0	0.4062	-3.229
Mof_C 	C 	0.7668	0	0.3141	0.815
Mof_H 	H 	0.7787	-2.82857e-33	0.3583	-0.33
Mof_O 	O 	0.6954	0	0.4261	2.039
Mof_O 	O 	0.6714	0.5	0.9062	-0.738
Mof_C 	C 	0.7668	0.5	0.8141	0.032
Mof_H 	H 	0.7787	0.5	0.8583	0.063
Mof_O 	O 	0.6954	0.5	0.9261	0.091
Mof_O 	O 	0.8286	-1.41429e-33	0.0938	-0.561
Mof_C 	C 	0.7332	-1.41429e-33	0.1859	-0.577
Mof_H 	H 	0.7213	-1.41429e-33	0.1417	0.176
Mof_O 	O 	0.8046	0	0.0739	-0.228
Mof_O 	O 	0.8286	0.5	0.5938	-0.853
Mof_C 	C 	0.7332	0.5	0.6859	0.022
Mof_H 	H 	0.7213	0.5	0.6417	0.024
Mof_O 	O 	0.8046	0.5	0.5739	0.144
Mof_O 	O 	0.3286	-5.65714e-33	0.5938	-3.103
Mof_C 	C 	0.2332	0	0.6859	0.804
Mof_H 	H 	0.2213	0	0.6417	-0.356
Mof_O 	O 	0.3046	-5.65714e-33	0.5739	1.884
Mof_O 	O 	0.3286	0.5	0.0938	0.048
Mof_C 	C 	0.2332	0.5	0.1859	-0.034
Mof_H 	H 	0.2213	0.5	0.1417	0.029
Mof_O 	O 	0.3046	0.5	0.0739	-0.787
Mof_O 	O 	0.8286	-1.13143e-32	0.9062	-1.755
Mof_C 	C 	0.7332	0	0.8141	-0.122
Mof_H 	H 	0.7213	-1.13143e-32	0.8583	0.039
Mof_O 	O 	0.8046	0	0.9261	0.934
Mof_O 	O 	0.8286	0.5	0.4062	-1.371
Mof_C 	C 	0.7332	0.5	0.3141	0.394
Mof_H 	H 	0.7213	0.5	0.3583	-0.113
Mof_O 	O 	0.8046	0.5	0.4261	0.569
Mof_O 	O 	0.3286	0	0.4062	-3.543
Mof_C 	C 	0.2332	0	0.3141	1.158
Mof_H 	H 	0.2213	-2.82857e-33	0.3583	-0.485
Mof_O 	O 	0.3046	0	0.4261	2.247
Mof_O 	O 	0.3286	0.5	0.9062	-1.135
Mof_C 	C 	0.2332	0.5	0.8141	0.394
Mof_H 	H 	0.2213	0.5	0.8583	-0.098
Mof_O 	O 	0.3046	0.5	0.9261	0.371
Mof_O 	O 	0.1714	-1.41429e-33	0.0938	0.191
Mof_C 	C 	0.2668	-1.41429e-33	0.1859	-0.988
Mof_H 	H 	0.2787	-1.41429e-33	0.1417	0.352
Mof_O 	O 	0.1954	0	0.0739	-0.751
Mof_O 	O 	0.1714	0.5	0.5938	-0.135
Mof_C 	C 	0.2668	0.5	0.6859	-0.395
Mof_H 	H 	0.2787	0.5	0.6417	0.201
Mof_O 	O 	0.1954	0.5	0.5739	-0.351
Mof_O 	O 	0.6714	-5.65714e-33	0.5938	-2.658
Mof_C 	C 	0.7668	0	0.6859	0.412
Mof_H 	H 	0.7787	0	0.6417	-0.181
Mof_O 	O 	0.6954	-5.65714e-33	0.5739	1.57
Mof_O 	O 	0.6714	0.5	0.0938	0.396
Mof_C 	C 	0.7668	0.5	0.1859	-0.391
Mof_H 	H 	0.7787	0.5	0.1417	0.189
Mof_O 	O 	0.6954	0.5	0.0739	-1.022
Mof_O 	O 	-2.55039e-33	0.0938	0.8286	-0.561
Mof_C 	C 	8.4062e-33	0.1859	0.7332	-0.577
Mof_H 	H 	-2.9527e-33	0.1417	0.7213	0.176
Mof_O 	O 	-2.64038e-33	0.0739	0.8046	-0.228
Mof_O 	O 	-1.59652e-33	0.5938	0.3286	-3.103
Mof_C 	C 	8.7436e-34	0.6859	0.2332	0.804
Mof_H 	H 	6.48688e-33	0.6417	0.2213	-0.356
Mof_O 	O 	-4.51508e-33	0.5739	0.3046	1.884
Mof_O 	O 	0.5	0.0938	0.3286	0.048
Mof_C 	C 	0.5	0.1859	0.2332	-0.034
Mof_H 	H 	0.5	0.1417	0.2213	0.029
Mof_O 	O 	0.5	0.0739	0.3046	-0.787
Mof_O 	O 	0.5	0.5938	0.8286	-0.853
Mof_C 	C 	0.5	0.6859	0.7332	0.022
Mof_H 	H 	0.5	0.6417	0.7213	0.024
Mof_O 	O 	0.5	0.5739	0.8046	0.144
Mof_O 	O 	6.42647e-34	0.9062	0.1714	-0.989
Mof_C 	C 	-4.6568e-33	0.8141	0.2668	-0.57
Mof_H 	H 	-1.78361e-33	0.8583	0.2787	0.229
Mof_O 	O 	-6.3388e-33	0.9261	0.1954	0.404
Mof_O 	O 	2.51735e-33	0.4062	0.6714	-3.229
Mof_C 	C 	-2.7821e-33	0.3141	0.7668	0.815
Mof_H 	H 	-2.73749e-33	0.3583	0.7787	-0.33
Mof_O 	O 	-3.04981e-33	0.4261	0.6954	2.039
Mof_O 	O 	0.5	0.9062	0.6714	-0.738
Mof_C 	C 	0.5	0.8141	0.7668	0.032
Mof_H 	H 	0.5	0.8583	0.7787	0.063
Mof_O 	O 	0.5	0.9261	0.6954	0.091
Mof_O 	O 	0.5	0.4062	0.1714	-0.609
Mof_C 	C 	0.5	0.3141	0.2668	-0.027
Mof_H 	H 	0.5	0.3583	0.2787	0.067
Mof_O 	O 	0.5	0.4261	0.1954	0.039
Mof_O 	O 	-2.18592e-33	0.0938	0.1714	0.191
Mof_C 	C 	-4.6568e-33	0.1859	0.2668	-0.988
Mof_H 	H 	-1.78361e-33	0.1417	0.2787	0.352
Mof_O 	O 	-6.81653e-34	0.0739	0.1954	-0.751
Mof_O 	O 	-3.1398e-33	0.5938	0.6714	-2.658
Mof_C 	C 	2.87504e-33	0.6859	0.7668	0.412
Mof_H 	H 	-1.40518e-32	0.6417	0.7787	-0.181
Mof_O 	O 	-8.70695e-33	0.5739	0.6954	1.57
Mof_O 	O 	0.5	0.0938	0.6714	0.396
Mof_C 	C 	0.5	0.1859	0.7668	-0.391
Mof_H 	H 	0.5	0.1417	0.7787	0.189
Mof_O 	O 	0.5	0.0739	0.6954	-1.022
Mof_O 	O 	0.5	0.5938	0.1714	-0.135
Mof_C 	C 	0.5	0.6859	0.2668	-0.395
Mof_H 	H 	0.5	0.6417	0.2787	0.201
Mof_O 	O 	0.5	0.5739	0.1954	-0.351
Mof_O 	O 	-1.38647e-32	0.9062	0.8286	-1.755
Mof_C 	C 	1.97205e-32	0.8141	0.7332	-0.122
Mof_H 	H 	-8.60984e-33	0.8583	0.7213	0.039
Mof_O 	O 	-2.64038e-33	0.9261	0.8046	0.934
Mof_O 	O 	-1.59652e-33	0.4062	0.3286	-3.543
Mof_C 	C 	8.7436e-34	0.3141	0.2332	1.158
Mof_H 	H 	-4.8274e-33	0.3583	0.2213	-0.485
Mof_O 	O 	-4.51508e-33	0.4261	0.3046	2.247
Mof_O 	O 	0.5	0.9062	0.3286	-1.135
Mof_C 	C 	0.5	0.8141	0.2332	0.394
Mof_H 	H 	0.5	0.8583	0.2213	-0.098
Mof_O 	O 	0.5	0.9261	0.3046	0.371
Mof_O 	O 	0.5	0.4062	0.8286	-1.371
Mof_C 	C 	0.5	0.3141	0.7332	0.394
Mof_H 	H 	0.5	0.3583	0.7213	-0.113
Mof_O 	O 	0.5	0.4261	0.8046	0.569
Mof_C 	C 	0.1518	0.1518	-0	-0.397
Mof_C 	C 	0.2029	0.2029	-0	0.789
Mof_C 	C 	0.1518	0.6518	0.5	-0.18
Mof_C 	C 	0.2029	0.7029	0.5	0.366
Mof_C 	C 	0.6518	0.1518	0.5	-0.18
Mof_C 	C 	0.7029	0.2029	0.5	0.366
Mof_C 	C 	0.6518	0.6518	-0	2.071
Mof_C 	C 	0.7029	0.7029	-0	-0.887
Mof_C 	C 	0.8482	0.8482	-0	1.279
Mof_C 	C 	0.7971	0.7971	-0	-0.293
Mof_C 	C 	0.8482	0.3482	0.5	1.045
Mof_C 	C 	0.7971	0.2971	0.5	-0.533
Mof_C 	C 	0.3482	0.8482	0.5	1.045
Mof_C 	C 	0.2971	0.7971	0.5	-0.533
Mof_C 	C 	0.3482	0.3482	-0	2.904
Mof_C 	C 	0.2971	0.2971	-0	-1.646
Mof_C 	C 	0.8482	0.1518	-0	0.433
Mof_C 	C 	0.7971	0.2029	-0	0.263
Mof_C 	C 	0.8482	0.6518	0.5	0.617
Mof_C 	C 	0.7971	0.7029	0.5	-0.156
Mof_C 	C 	0.3482	0.1518	0.5	0.21
Mof_C 	C 	0.2971	0.2029	0.5	0.002
Mof_C 	C 	0.3482	0.6518	-0	2.543
Mof_C 	C 	0.2971	0.7029	-0	-1.299
Mof_C 	C 	0.1518	0.8482	-0	0.433
Mof_C 	C 	0.2029	0.7971	-0	0.263
Mof_C 	C 	0.1518	0.3482	0.5	0.21
Mof_C 	C 	0.2029	0.2971	0.5	0.002
Mof_C 	C 	0.6518	0.8482	0.5	0.617
Mof_C 	C 	0.7029	0.7971	0.5	-0.156
Mof_C 	C 	0.6518	0.3482	-0	2.543
Mof_C 	C 	0.7029	0.2971	-0	-1.299
Mof_C 	C 	-2.25941e-33	0.1518	0.1518	-0.397
Mof_C 	C 	-4.89639e-33	0.2029	0.2029	0.789
Mof_C 	C 	-8.87043e-33	0.6518	0.6518	2.071
Mof_C 	C 	-1.4336e-32	0.7029	0.7029	-0.887
Mof_C 	C 	0.5	0.1518	0.6518	-0.18
Mof_C 	C 	0.5	0.2029	0.7029	0.366
Mof_C 	C 	0.5	0.6518	0.1518	-0.18
Mof_C 	C 	0.5	0.7029	0.2029	0.366
Mof_C 	C 	-1.94483e-32	0.8482	0.8482	1.279
Mof_C 	C 	-1.96399e-32	0.7971	0.7971	-0.293
Mof_C 	C 	1.30554e-33	0.3482	0.3482	2.904
Mof_C 	C 	-4.5432e-33	0.2971	0.2971	-1.646
Mof_C 	C 	0.5	0.8482	0.3482	1.045
Mof_C 	C 	0.5	0.7971	0.2971	-0.533
Mof_C 	C 	0.5	0.3482	0.8482	1.045
Mof_C 	C 	0.5	0.2971	0.7971	-0.533
Mof_C 	C 	-1.4988e-32	0.8482	0.1518	0.433
Mof_C 	C 	-1.47964e-32	0.7971	0.2029	0.263
Mof_C 	C 	-8.87043e-33	0.3482	0.6518	2.543
Mof_C 	C 	-1.99931e-32	0.2971	0.7029	-1.299
Mof_C 	C 	0.5	0.8482	0.6518	0.617
Mof_C 	C 	0.5	0.7971	0.7029	-0.156
Mof_C 	C 	0.5	0.3482	0.1518	0.21
Mof_C 	C 	0.5	0.2971	0.2029	0.002
Mof_C 	C 	-1.94483e-32	0.1518	0.8482	0.433
Mof_C 	C 	-1.39828e-32	0.2029	0.7971	0.263
Mof_C 	C 	-7.18017e-33	0.6518	0.3482	2.543
Mof_C 	C 	-1.58575e-32	0.7029	0.2971	-1.299
Mof_C 	C 	0.5	0.1518	0.3482	0.21
Mof_C 	C 	0.5	0.2029	0.2971	0.002
Mof_C 	C 	0.5	0.6518	0.8482	0.617
Mof_C 	C 	0.5	0.7029	0.7971	-0.156
Mof_C 	C 	0.1518	-1.41429e-33	0.1518	-0.397
Mof_C 	C 	0.2029	-2.82857e-33	0.2029	0.789
Mof_C 	C 	0.1518	0.5	0.6518	-0.18
Mof_C 	C 	0.2029	0.5	0.7029	0.366
Mof_C 	C 	0.6518	0	0.6518	2.071
Mof_C 	C 	0.7029	-1.13143e-32	0.7029	-0.887
Mof_C 	C 	0.6518	0.5	0.1518	-0.18
Mof_C 	C 	0.7029	0.5	0.2029	0.366
Mof_C 	C 	0.8482	0	0.8482	1.279
Mof_C 	C 	0.7971	-5.65714e-33	0.7971	-0.293
Mof_C 	C 	0.8482	0.5	0.3482	1.045
Mof_C 	C 	0.7971	0.5	0.2971	-0.533
Mof_C 	C 	0.3482	0	0.3482	2.904
Mof_C 	C 	0.2971	-2.82857e-33	0.2971	-1.646
Mof_C 	C 	0.3482	0.5	0.8482	1.045
Mof_C 	C 	0.2971	0.5	0.7971	-0.533
Mof_C 	C 	0.1518	0	0.8482	0.433
Mof_C 	C 	0.2029	-5.65714e-33	0.7971	0.263
Mof_C 	C 	0.1518	0.5	0.3482	0.21
Mof_C 	C 	0.2029	0.5	0.2971	0.002
Mof_C 	C 	0.6518	0	0.3482	2.543
Mof_C 	C 	0.7029	-2.82857e-33	0.2971	-1.299
Mof_C 	C 	0.6518	0.5	0.8482	0.617
Mof_C 	C 	0.7029	0.5	0.7971	-0.156
Mof_C 	C 	0.8482	-1.41429e-33	0.1518	0.433
Mof_C 	C 	0.7971	-2.82857e-33	0.2029	0.263
Mof_C 	C 	0.8482	0.5	0.6518	0.617
Mof_C 	C 	0.7971	0.5	0.7029	-0.156
Mof_C 	C 	0.3482	0	0.6518	2.543
Mof_C 	C 	0.2971	-1.13143e-32	0.7029	-1.299
Mof_C 	C 	0.3482	0.5	0.1518	0.21
Mof_C 	C 	0.2971	0.5	0.2029	0.002
Mof_O 	O 	0.0677	0.0677	0.0677	11.41
Mof_O 	O 	0.0506	0.0506	0.0506	-10.811
Mof_H 	H 	0.095	0.095	0.095	-3.443
Mof_O 	O 	0.0677	0.5677	0.5677	5.291
Mof_O 	O 	0.0506	0.5506	0.5506	-5.43
Mof_H 	H 	0.095	0.595	0.595	-1.603
Mof_O 	O 	0.5677	0.0677	0.5677	5.291
Mof_O 	O 	0.5506	0.0506	0.5506	-5.43
Mof_H 	H 	0.595	0.095	0.595	-1.603
Mof_O 	O 	0.5677	0.5677	0.0677	5.291
Mof_O 	O 	0.5506	0.5506	0.0506	-5.43
Mof_H 	H 	0.595	0.595	0.095	-1.603
Mof_O 	O 	0.9323	0.9323	0.0677	-0.886
Mof_O 	O 	0.9494	0.9494	0.0506	0.035
Mof_H 	H 	0.905	0.905	0.095	0.343
Mof_O 	O 	0.9323	0.4323	0.5677	-0.938
Mof_O 	O 	0.9494	0.4494	0.5506	0.081
Mof_H 	H 	0.905	0.405	0.595	0.321
Mof_O 	O 	0.4323	0.9323	0.5677	-0.938
Mof_O 	O 	0.4494	0.9494	0.5506	0.081
Mof_H 	H 	0.405	0.905	0.595	0.321
Mof_O 	O 	0.4323	0.4323	0.0677	5.76
Mof_O 	O 	0.4494	0.4494	0.0506	-5.8
Mof_H 	H 	0.405	0.405	0.095	-1.728
Mof_O 	O 	0.9323	0.0677	0.9323	-0.886
Mof_O 	O 	0.9494	0.0506	0.9494	0.035
Mof_H 	H 	0.905	0.095	0.905	0.343
Mof_O 	O 	0.9323	0.5677	0.4323	-0.938
Mof_O 	O 	0.9494	0.5506	0.4494	0.081
Mof_H 	H 	0.905	0.595	0.405	0.321
Mof_O 	O 	0.4323	0.0677	0.4323	5.76
Mof_O 	O 	0.4494	0.0506	0.4494	-5.8
Mof_H 	H 	0.405	0.095	0.405	-1.728
Mof_O 	O 	0.4323	0.5677	0.9323	-0.938
Mof_O 	O 	0.4494	0.5506	0.9494	0.081
Mof_H 	H 	0.405	0.595	0.905	0.321
Mof_O 	O 	0.0677	0.9323	0.9323	-0.886
Mof_O 	O 	0.0506	0.9494	0.9494	0.035
Mof_H 	H 	0.095	0.905	0.905	0.343
Mof_O 	O 	0.0677	0.4323	0.4323	5.76
Mof_O 	O 	0.0506	0.4494	0.4494	-5.8
Mof_H 	H 	0.095	0.405	0.405	-1.728
Mof_O 	O 	0.5677	0.9323	0.4323	-0.938
Mof_O 	O 	0.5506	0.9494	0.4494	0.081
Mof_H 	H 	0.595	0.905	0.405	0.321
Mof_O 	O 	0.5677	0.4323	0.9323	-0.938
Mof_O 	O 	0.5506	0.4494	0.9494	0.081
Mof_H 	H 	0.595	0.405	0.905	0.321
Mof_O 	O 	0.0677	0.0677	0.9323	5.322
Mof_O 	O 	0.0506	0.0506	0.9494	-5.438
Mof_H 	H 	0.095	0.095	0.905	-1.566
Mof_O 	O 	0.0677	0.5677	0.4323	5.521
Mof_O 	O 	0.0506	0.5506	0.4494	-5.61
Mof_H 	H 	0.095	0.595	0.405	-1.664
Mof_O 	O 	0.5677	0.0677	0.4323	5.521
Mof_O 	O 	0.5506	0.0506	0.4494	-5.61
Mof_H 	H 	0.595	0.095	0.405	-1.664
Mof_O 	O 	0.5677	0.5677	0.9323	-1.171
Mof_O 	O 	0.5506	0.5506	0.9494	0.261
Mof_H 	H 	0.595	0.595	0.905	0.381
Mof_O 	O 	0.9323	0.9323	0.9323	-7.215
Mof_O 	O 	0.9494	0.9494	0.9494	5.607
Mof_H 	H 	0.905	0.905	0.905	2.284
Mof_O 	O 	0.9323	0.4323	0.4323	-0.695
Mof_O 	O 	0.9494	0.4494	0.4494	-0.11
Mof_H 	H 	0.905	0.405	0.405	0.257
Mof_O 	O 	0.4323	0.9323	0.4323	-0.695
Mof_O 	O 	0.4494	0.9494	0.4494	-0.11
Mof_H 	H 	0.405	0.905	0.405	0.257
Mof_O 	O 	0.4323	0.4323	0.9323	-0.695
Mof_O 	O 	0.4494	0.4494	0.9494	-0.11
Mof_H 	H 	0.405	0.405	0.905	0.257
Mof_O 	O 	0.0677	0.9323	0.0677	5.322
Mof_O 	O 	0.0506	0.9494	0.0506	-5.438
Mof_H 	H 	0.095	0.905	0.095	-1.566
Mof_O 	O 	0.0677	0.4323	0.5677	5.521
Mof_O 	O 	0.0506	0.4494	0.5506	-5.61
Mof_H 	H 	0.095	0.405	0.595	-1.664
Mof_O 	O 	0.5677	0.9323	0.5677	-1.171
Mof_O 	O 	0.5506	0.9494	0.5506	0.261
Mof_H 	H 	0.595	0.905	0.595	0.381
Mof_O 	O 	0.5677	0.4323	0.0677	5.521
Mof_O 	O 	0.5506	0.4494	0.0506	-5.61
Mof_H 	H 	0.595	0.405	0.095	-1.664
Mof_O 	O 	0.9323	0.0677	0.0677	5.322
Mof_O 	O 	0.9494	0.0506	0.0506	-5.438
Mof_H 	H 	0.905	0.095	0.095	-1.566
Mof_O 	O 	0.9323	0.5677	0.5677	-1.171
Mof_O 	O 	0.9494	0.5506	0.5506	0.261
Mof_H 	H 	0.905	0.595	0.595	0.381
Mof_O 	O 	0.4323	0.0677	0.5677	5.521
Mof_O 	O 	0.4494	0.0506	0.5506	-5.61
Mof_H 	H 	0.405	0.095	0.595	-1.664
Mof_O 	O 	0.4323	0.5677	0.0677	5.521
Mof_O 	O 	0.4494	0.5506	0.0506	-5.61
Mof_H 	H 	0.405	0.595	0.095	-1.664
_end
