data_functionalizedCrystal
_audit_creation_method	'EQeq! by Chris Wilmer'
_symmetry_space_group_name_H-M	'P1'
_symmetry_Int_Tables_number	1
_symmetry_cell_setting	triclinic
loop_
_symmetry_equiv_pos_as_xyz
  x,y,z
_cell_length_a	5.1594
_cell_length_b	11.0274
_cell_length_c	15.274
_cell_angle_alpha	83.31
_cell_angle_beta	87.657
_cell_angle_gamma	83.128
loop_
_atom_site_label
_atom_site_type_symbol
_atom_site_fract_x
_atom_site_fract_y
_atom_site_fract_z
_atom_site_charge
Mof_C 	C 	0.9795	0.6254	0.49055	-0.073
Mof_H 	H 	0.9646	0.7108	0.4842	0.071
Mof_C 	C 	0.0772	0.56208	0.56894	0.009
Mof_C 	C 	0.0966	0.43266	0.57848	-0.053
Mof_C 	C 	0.185	0.356	0.66135	0.128
Mof_C 	C 	0.4092	0.2719	0.6604	-0.192
Mof_H 	H 	0.4994	0.2605	0.6075	0.091
Mof_C 	C 	0.498	0.205	0.73822	0.104
Mof_H 	H 	0.6516	0.1516	0.7373	-0.009
Mof_C 	C 	0.3611	0.217	0.817	-0.188
Mof_C 	C 	0.1324	0.297	0.81692	0.131
Mof_H 	H 	0.0349	0.304	0.869	0.007
Mof_C 	C 	0.0486	0.3661	0.74008	-0.231
Mof_H 	H 	0.8969	0.4207	0.7414	0.136
Mof_C 	C 	0.4645	0.1502	0.90198	0.404
Mof_C 	C 	0.1573	0.63353	0.63892	-0.003
Mof_C 	C 	0.3858	0.5962	0.68448	-0.068
Mof_H 	H 	0.4973	0.529	0.6689	0.063
Mof_C 	C 	0.4487	0.6582	0.75268	0.009
Mof_H 	H 	0.6021	0.6321	0.7828	0.063
Mof_C 	C 	0.2855	0.75895	0.77679	-0.071
Mof_C 	C 	0.0614	0.7989	0.7295	-0.062
Mof_H 	H 	0.9524	0.8676	0.7439	0.106
Mof_C 	C 	0.9998	0.737	0.66113	0
Mof_H 	H 	0.8502	0.7651	0.6294	0.048
Mof_C 	C 	0.3387	0.8206	0.85421	0.437
Mof_O 	O 	0.3048	0.14197	0.96794	-0.37
Mof_O 	O 	0.6983	0.10958	0.90423	-0.39
Mof_O 	O 	0.1818	0.89816	0.88325	-0.354
Mof_O 	O 	0.5686	0.78465	0.88719	-0.5
Mof_H 	H 	0.5869	0.8218	0.9296	0.358
Mof_C 	C 	0.0205	0.3746	0.50945	-0.045
Mof_H 	H 	0.0354	0.2892	0.5158	0.028
Mof_C 	C 	0.9228	0.43792	0.43106	-0.055
Mof_C 	C 	0.9034	0.56734	0.42152	0.021
Mof_C 	C 	0.815	0.644	0.33865	0.039
Mof_C 	C 	0.5908	0.7281	0.3396	-0.107
Mof_H 	H 	0.5006	0.7395	0.3925	0.077
Mof_C 	C 	0.502	0.795	0.26178	0.048
Mof_H 	H 	0.3484	0.8484	0.2627	0.045
Mof_C 	C 	0.6389	0.783	0.183	-0.118
Mof_C 	C 	0.8676	0.703	0.18308	0.033
Mof_H 	H 	0.9651	0.696	0.131	0.032
Mof_C 	C 	0.9514	0.6339	0.25992	-0.062
Mof_H 	H 	0.1031	0.5793	0.2586	0.039
Mof_C 	C 	0.5355	0.8498	0.09802	0.401
Mof_C 	C 	0.8427	0.36647	0.36108	0.211
Mof_C 	C 	0.6142	0.4038	0.31552	-0.266
Mof_H 	H 	0.5027	0.471	0.3311	0.125
Mof_C 	C 	0.5513	0.3418	0.24732	0.195
Mof_H 	H 	0.3979	0.3679	0.2172	-0.021
Mof_C 	C 	0.7145	0.24105	0.22321	-0.291
Mof_C 	C 	0.9386	0.2011	0.2705	0.296
Mof_H 	H 	0.0476	0.1324	0.2561	-0.093
Mof_C 	C 	0.0002	0.263	0.33887	-0.356
Mof_H 	H 	0.1498	0.2349	0.3706	0.141
Mof_C 	C 	0.6613	0.1794	0.14579	0.5
Mof_O 	O 	0.6952	0.85803	0.03206	-0.42
Mof_O 	O 	0.3017	0.89042	0.09577	-0.385
Mof_O 	O 	0.8182	0.10184	0.11675	-0.477
Mof_O 	O 	0.4314	0.21535	0.11281	-0.542
Mof_H 	H 	0.4131	0.1782	0.0704	0.277
Mof_Ca	Ca	-0	0	-0	1.129
_end
