data_functionalizedCrystal
_audit_creation_method	'EQeq! by Chris Wilmer'
_symmetry_space_group_name_H-M	'P1'
_symmetry_Int_Tables_number	1
_symmetry_cell_setting	triclinic
loop_
_symmetry_equiv_pos_as_xyz
  x,y,z
_cell_length_a	15.9325
_cell_length_b	15.9325
_cell_length_c	25.3047
_cell_angle_alpha	90
_cell_angle_beta	90
_cell_angle_gamma	90
loop_
_atom_site_label
_atom_site_type_symbol
_atom_site_fract_x
_atom_site_fract_y
_atom_site_fract_z
_atom_site_charge
Mof_H 	H 	0.7516	0.1104	0.0253	0.109
Mof_N 	N 	0.01455	0.1396	0.05063	-0.196
Mof_C 	C 	0.82689	0.02068	0.00055	-0.013
Mof_H 	H 	0.8265	0.9845	0.9697	0.008
Mof_H 	H 	0.8258	0.9851	0.0317	0.019
Mof_C 	C 	0.94293	0.09527	0.04803	0.012
Mof_H 	H 	0.9167	0.0798	0.0794	-0.002
Mof_C 	C 	0.90655	0.07163	0.0007	-0.016
Mof_C 	C 	0.94628	0.09388	0.95438	-0.028
Mof_H 	H 	0.9234	0.0787	0.922	0.023
Mof_C 	C 	0.02031	0.13889	0.95646	-0.118
Mof_H 	H 	0.0482	0.1541	0.9256	0.056
Mof_C 	C 	0.05179	0.16073	0.00513	0.069
Mof_H 	H 	0.1013	0.1916	0.0065	-0.018
Mof_H 	H 	0.2516	0.6104	0.5253	0.107
Mof_N 	N 	0.51455	0.6396	0.55063	-0.191
Mof_C 	C 	0.32689	0.52068	0.50055	-0.07
Mof_H 	H 	0.3265	0.4845	0.4697	0.037
Mof_H 	H 	0.3258	0.4851	0.5317	0.041
Mof_C 	C 	0.44293	0.59527	0.54803	0.003
Mof_H 	H 	0.4167	0.5798	0.5794	0
Mof_C 	C 	0.40655	0.57163	0.5007	-0.006
Mof_C 	C 	0.44628	0.59388	0.45438	-0.034
Mof_H 	H 	0.4234	0.5787	0.422	0.025
Mof_C 	C 	0.52031	0.63889	0.45646	-0.094
Mof_H 	H 	0.5482	0.6541	0.4256	0.05
Mof_C 	C 	0.55179	0.66073	0.50513	0.049
Mof_H 	H 	0.6013	0.6916	0.5065	-0.013
Mof_H 	H 	0.7484	0.8896	0.5253	0.104
Mof_N 	N 	0.48545	0.8604	0.55063	-0.189
Mof_C 	C 	0.67311	0.97932	0.50055	-0.114
Mof_H 	H 	0.6735	0.0155	0.4697	0.056
Mof_H 	H 	0.6742	0.0149	0.5317	0.06
Mof_C 	C 	0.55707	0.90473	0.54803	-0.007
Mof_H 	H 	0.5833	0.9202	0.5794	0.002
Mof_C 	C 	0.59345	0.92837	0.5007	0.009
Mof_C 	C 	0.55372	0.90612	0.45438	-0.047
Mof_H 	H 	0.5766	0.9213	0.422	0.028
Mof_C 	C 	0.47969	0.86111	0.45646	-0.087
Mof_H 	H 	0.4518	0.8459	0.4256	0.046
Mof_C 	C 	0.44821	0.83927	0.50513	0.044
Mof_H 	H 	0.3987	0.8084	0.5065	-0.011
Mof_H 	H 	0.2484	0.3896	0.0253	0.107
Mof_N 	N 	0.98545	0.3604	0.05063	-0.193
Mof_C 	C 	0.17311	0.47932	0.00055	-0.055
Mof_H 	H 	0.1735	0.5155	0.9697	0.027
Mof_H 	H 	0.1742	0.5149	0.0317	0.038
Mof_C 	C 	0.05707	0.40473	0.04803	0.003
Mof_H 	H 	0.0833	0.4202	0.0794	0
Mof_C 	C 	0.09345	0.42837	0.0007	0.001
Mof_C 	C 	0.05372	0.40612	0.95438	-0.04
Mof_H 	H 	0.0766	0.4213	0.922	0.026
Mof_C 	C 	0.97969	0.36111	0.95646	-0.109
Mof_H 	H 	0.9518	0.3459	0.9256	0.053
Mof_C 	C 	0.94821	0.33927	0.00513	0.065
Mof_H 	H 	0.8987	0.3084	0.0065	-0.016
Mof_H 	H 	0.1396	0.5016	0.2753	0.107
Mof_N 	N 	0.1104	0.76455	0.30063	-0.191
Mof_C 	C 	0.22932	0.57689	0.25055	-0.07
Mof_H 	H 	0.2655	0.5765	0.2197	0.037
Mof_H 	H 	0.2649	0.5758	0.2817	0.041
Mof_C 	C 	0.15473	0.69293	0.29803	0.003
Mof_H 	H 	0.1702	0.6667	0.3294	0
Mof_C 	C 	0.17837	0.65655	0.2507	-0.006
Mof_C 	C 	0.15612	0.69628	0.20438	-0.034
Mof_H 	H 	0.1713	0.6734	0.172	0.026
Mof_C 	C 	0.11111	0.77031	0.20646	-0.094
Mof_H 	H 	0.0959	0.7982	0.1756	0.049
Mof_C 	C 	0.08927	0.80179	0.25513	0.049
Mof_H 	H 	0.0584	0.8513	0.2565	-0.014
Mof_H 	H 	0.6396	0.0016	0.7753	0.108
Mof_N 	N 	0.6104	0.26455	0.80063	-0.19
Mof_C 	C 	0.72932	0.07689	0.75055	-0.073
Mof_H 	H 	0.7655	0.0765	0.7197	0.04
Mof_H 	H 	0.7649	0.0758	0.7817	0.043
Mof_C 	C 	0.65473	0.19293	0.79803	0.002
Mof_H 	H 	0.6702	0.1667	0.8294	0.001
Mof_C 	C 	0.67837	0.15655	0.7507	-0.003
Mof_C 	C 	0.65612	0.19628	0.70438	-0.036
Mof_H 	H 	0.6713	0.1734	0.672	0.026
Mof_C 	C 	0.61111	0.27031	0.70646	-0.093
Mof_H 	H 	0.5959	0.2982	0.6756	0.049
Mof_C 	C 	0.58927	0.30179	0.75513	0.048
Mof_H 	H 	0.5584	0.3513	0.7565	-0.013
Mof_H 	H 	0.3604	0.4984	0.7753	0.107
Mof_N 	N 	0.3896	0.23545	0.80063	-0.191
Mof_C 	C 	0.27068	0.42311	0.75055	-0.07
Mof_H 	H 	0.2345	0.4235	0.7197	0.037
Mof_H 	H 	0.2351	0.4242	0.7817	0.041
Mof_C 	C 	0.34527	0.30707	0.79803	0.003
Mof_H 	H 	0.3298	0.3333	0.8294	0
Mof_C 	C 	0.32163	0.34345	0.7507	-0.006
Mof_C 	C 	0.34388	0.30372	0.70438	-0.034
Mof_H 	H 	0.3287	0.3266	0.672	0.025
Mof_C 	C 	0.38889	0.22969	0.70646	-0.094
Mof_H 	H 	0.4041	0.2018	0.6756	0.05
Mof_C 	C 	0.41073	0.19821	0.75513	0.049
Mof_H 	H 	0.4416	0.1487	0.7565	-0.012
Mof_H 	H 	0.8604	0.9984	0.2753	0.097
Mof_N 	N 	0.8896	0.73545	0.30063	-0.19
Mof_C 	C 	0.77068	0.92311	0.25055	-0.079
Mof_H 	H 	0.7345	0.9235	0.2197	0.038
Mof_H 	H 	0.7351	0.9242	0.2817	0.042
Mof_C 	C 	0.84527	0.80707	0.29803	0.001
Mof_H 	H 	0.8298	0.8333	0.3294	0
Mof_C 	C 	0.82163	0.84345	0.2507	-0.003
Mof_C 	C 	0.84388	0.80372	0.20438	-0.037
Mof_H 	H 	0.8287	0.8266	0.172	0.026
Mof_C 	C 	0.88889	0.72969	0.20646	-0.093
Mof_H 	H 	0.9041	0.7018	0.1756	0.049
Mof_C 	C 	0.91073	0.69821	0.25513	0.048
Mof_H 	H 	0.9416	0.6487	0.2565	-0.013
Mof_H 	H 	0.7484	0.1104	0.9747	0.101
Mof_N 	N 	0.48545	0.1396	0.94937	-0.19
Mof_C 	C 	0.67311	0.02068	0.99945	-0.054
Mof_H 	H 	0.6735	0.9845	0.0303	0.032
Mof_H 	H 	0.6742	0.9851	0.9683	0.029
Mof_C 	C 	0.55707	0.09527	0.95197	0.009
Mof_H 	H 	0.5833	0.0798	0.9206	-0
Mof_C 	C 	0.59345	0.07163	0.9993	-0.022
Mof_C 	C 	0.55372	0.09388	0.04562	-0.02
Mof_H 	H 	0.5766	0.0787	0.078	0.023
Mof_C 	C 	0.47969	0.13889	0.04354	-0.083
Mof_H 	H 	0.4518	0.1541	0.0744	0.048
Mof_C 	C 	0.44821	0.16073	0.99487	0.035
Mof_H 	H 	0.3987	0.1916	0.9935	-0.012
Mof_H 	H 	0.2484	0.6104	0.4747	0.107
Mof_N 	N 	0.98545	0.6396	0.44937	-0.191
Mof_C 	C 	0.17311	0.52068	0.49945	-0.07
Mof_H 	H 	0.1735	0.4845	0.5303	0.037
Mof_H 	H 	0.1742	0.4851	0.4683	0.041
Mof_C 	C 	0.05707	0.59527	0.45197	0.003
Mof_H 	H 	0.0833	0.5798	0.4206	0
Mof_C 	C 	0.09345	0.57163	0.4993	-0.006
Mof_C 	C 	0.05372	0.59388	0.54562	-0.034
Mof_H 	H 	0.0766	0.5787	0.578	0.025
Mof_C 	C 	0.97969	0.63889	0.54354	-0.094
Mof_H 	H 	0.9518	0.6541	0.5744	0.05
Mof_C 	C 	0.94821	0.66073	0.49487	0.049
Mof_H 	H 	0.8987	0.6916	0.4935	-0.013
Mof_H 	H 	0.7516	0.8896	0.4747	0.104
Mof_N 	N 	0.01455	0.8604	0.44937	-0.189
Mof_C 	C 	0.82689	0.97932	0.49945	-0.114
Mof_H 	H 	0.8265	0.0155	0.5303	0.056
Mof_H 	H 	0.8258	0.0149	0.4683	0.06
Mof_C 	C 	0.94293	0.90473	0.45197	-0.007
Mof_H 	H 	0.9167	0.9202	0.4206	0.002
Mof_C 	C 	0.90655	0.92837	0.4993	0.009
Mof_C 	C 	0.94628	0.90612	0.54562	-0.047
Mof_H 	H 	0.9234	0.9213	0.578	0.028
Mof_C 	C 	0.02031	0.86111	0.54354	-0.087
Mof_H 	H 	0.0482	0.8459	0.5744	0.046
Mof_C 	C 	0.05179	0.83927	0.49487	0.044
Mof_H 	H 	0.1013	0.8084	0.4935	-0.011
Mof_H 	H 	0.2516	0.3896	0.9747	0.098
Mof_N 	N 	0.51455	0.3604	0.94937	-0.188
Mof_C 	C 	0.32689	0.47932	0.99945	-0.099
Mof_H 	H 	0.3265	0.5155	0.0303	0.051
Mof_H 	H 	0.3258	0.5149	0.9683	0.047
Mof_C 	C 	0.44293	0.40473	0.95197	-0.001
Mof_H 	H 	0.4167	0.4202	0.9206	0.001
Mof_C 	C 	0.40655	0.42837	0.9993	-0.007
Mof_C 	C 	0.44628	0.40612	0.04562	-0.033
Mof_H 	H 	0.4234	0.4213	0.078	0.026
Mof_C 	C 	0.52031	0.36111	0.04354	-0.076
Mof_H 	H 	0.5482	0.3459	0.0744	0.045
Mof_C 	C 	0.55179	0.33927	0.99487	0.03
Mof_H 	H 	0.6013	0.3084	0.9935	-0.01
Mof_H 	H 	0.3604	0.5016	0.7247	0.107
Mof_N 	N 	0.3896	0.76455	0.69937	-0.191
Mof_C 	C 	0.27068	0.57689	0.74945	-0.07
Mof_H 	H 	0.2345	0.5765	0.7803	0.037
Mof_H 	H 	0.2351	0.5758	0.7183	0.041
Mof_C 	C 	0.34527	0.69293	0.70197	0.003
Mof_H 	H 	0.3298	0.6667	0.6706	0
Mof_C 	C 	0.32163	0.65655	0.7493	-0.006
Mof_C 	C 	0.34388	0.69628	0.79562	-0.034
Mof_H 	H 	0.3287	0.6734	0.828	0.025
Mof_C 	C 	0.38889	0.77031	0.79354	-0.095
Mof_H 	H 	0.4041	0.7982	0.8244	0.049
Mof_C 	C 	0.41073	0.80179	0.74487	0.049
Mof_H 	H 	0.4416	0.8513	0.7435	-0.014
Mof_H 	H 	0.8604	0.0016	0.2247	0.108
Mof_N 	N 	0.8896	0.26455	0.19937	-0.191
Mof_C 	C 	0.77068	0.07689	0.24945	-0.073
Mof_H 	H 	0.7345	0.0765	0.2803	0.04
Mof_H 	H 	0.7351	0.0758	0.2183	0.043
Mof_C 	C 	0.84527	0.19293	0.20197	0.002
Mof_H 	H 	0.8298	0.1667	0.1706	0.001
Mof_C 	C 	0.82163	0.15655	0.2493	-0.003
Mof_C 	C 	0.84388	0.19628	0.29562	-0.036
Mof_H 	H 	0.8287	0.1734	0.328	0.026
Mof_C 	C 	0.88889	0.27031	0.29354	-0.093
Mof_H 	H 	0.9041	0.2982	0.3244	0.049
Mof_C 	C 	0.91073	0.30179	0.24487	0.048
Mof_H 	H 	0.9416	0.3513	0.2435	-0.013
Mof_H 	H 	0.1396	0.4984	0.2247	0.107
Mof_N 	N 	0.1104	0.23545	0.19937	-0.191
Mof_C 	C 	0.22932	0.42311	0.24945	-0.07
Mof_H 	H 	0.2655	0.4235	0.2803	0.037
Mof_H 	H 	0.2649	0.4242	0.2183	0.041
Mof_C 	C 	0.15473	0.30707	0.20197	0.003
Mof_H 	H 	0.1702	0.3333	0.1706	0
Mof_C 	C 	0.17837	0.34345	0.2493	-0.006
Mof_C 	C 	0.15612	0.30372	0.29562	-0.034
Mof_H 	H 	0.1713	0.3266	0.328	0.025
Mof_C 	C 	0.11111	0.22969	0.29354	-0.094
Mof_H 	H 	0.0959	0.2018	0.3244	0.05
Mof_C 	C 	0.08927	0.19821	0.24487	0.049
Mof_H 	H 	0.0584	0.1487	0.2435	-0.012
Mof_H 	H 	0.6396	0.9984	0.7247	0.097
Mof_N 	N 	0.6104	0.73545	0.69937	-0.19
Mof_C 	C 	0.72932	0.92311	0.74945	-0.079
Mof_H 	H 	0.7655	0.9235	0.7803	0.038
Mof_H 	H 	0.7649	0.9242	0.7183	0.042
Mof_C 	C 	0.65473	0.80707	0.70197	0.001
Mof_H 	H 	0.6702	0.8333	0.6706	0
Mof_C 	C 	0.67837	0.84345	0.7493	-0.003
Mof_C 	C 	0.65612	0.80372	0.79562	-0.037
Mof_H 	H 	0.6713	0.8266	0.828	0.025
Mof_C 	C 	0.61111	0.72969	0.79354	-0.093
Mof_H 	H 	0.5959	0.7018	0.8244	0.049
Mof_C 	C 	0.58927	0.69821	0.74487	0.048
Mof_H 	H 	0.5584	0.6487	0.7435	-0.013
Mof_Ag	Ag	0.06808	0.18192	0.125	0.435
Mof_Ag	Ag	0.56808	0.68192	0.625	0.432
Mof_Ag	Ag	0.43192	0.81808	0.625	0.429
Mof_Ag	Ag	0.93192	0.31808	0.125	0.432
Mof_Ag	Ag	0.06808	0.81808	0.375	0.429
Mof_Ag	Ag	0.56808	0.31808	0.875	0.43
Mof_Ag	Ag	0.43192	0.18192	0.875	0.433
Mof_Ag	Ag	0.93192	0.68192	0.375	0.432
Mof_N 	N 	0.75	0.07426	-0	-0.236
Mof_N 	N 	0.25	0.57426	0.5	-0.237
Mof_N 	N 	0.75	0.92574	0.5	-0.225
Mof_N 	N 	0.25	0.42574	-0	-0.224
Mof_N 	N 	0.17574	0.5	0.25	-0.237
Mof_N 	N 	0.67574	0	0.75	-0.226
Mof_N 	N 	0.32426	0.5	0.75	-0.237
Mof_N 	N 	0.82426	0	0.25	-0.226
Mof_H 	H 	0.2484	0.8896	0.9747	0.095
Mof_N 	N 	0.98545	0.8604	0.94937	-0.186
Mof_C 	C 	0.17311	0.97932	0.99945	-0.142
Mof_H 	H 	0.1735	0.0155	0.0303	0.069
Mof_H 	H 	0.1742	0.0149	0.9683	0.066
Mof_C 	C 	0.05707	0.90473	0.95197	-0.01
Mof_H 	H 	0.0833	0.9202	0.9206	0.003
Mof_C 	C 	0.09345	0.92837	0.9993	0.008
Mof_C 	C 	0.05372	0.90612	0.04562	-0.046
Mof_H 	H 	0.0766	0.9213	0.078	0.028
Mof_C 	C 	0.97969	0.86111	0.04354	-0.069
Mof_H 	H 	0.9518	0.8459	0.0744	0.042
Mof_C 	C 	0.94821	0.83927	0.99487	0.026
Mof_H 	H 	0.8987	0.8084	0.9935	-0.008
Mof_H 	H 	0.7484	0.3896	0.4747	0.107
Mof_N 	N 	0.48545	0.3604	0.44937	-0.191
Mof_C 	C 	0.67311	0.47932	0.49945	-0.07
Mof_H 	H 	0.6735	0.5155	0.5303	0.037
Mof_H 	H 	0.6742	0.5149	0.4683	0.041
Mof_C 	C 	0.55707	0.40473	0.45197	0.003
Mof_H 	H 	0.5833	0.4202	0.4206	0
Mof_C 	C 	0.59345	0.42837	0.4993	-0.006
Mof_C 	C 	0.55372	0.40612	0.54562	-0.034
Mof_H 	H 	0.5766	0.4213	0.578	0.025
Mof_C 	C 	0.47969	0.36111	0.54354	-0.094
Mof_H 	H 	0.4518	0.3459	0.5744	0.05
Mof_C 	C 	0.44821	0.33927	0.49487	0.049
Mof_H 	H 	0.3987	0.3084	0.4935	-0.013
Mof_H 	H 	0.2516	0.1104	0.4747	0.11
Mof_N 	N 	0.51455	0.1396	0.44937	-0.193
Mof_C 	C 	0.32689	0.02068	0.49945	-0.026
Mof_H 	H 	0.3265	0.9845	0.5303	0.018
Mof_H 	H 	0.3258	0.9851	0.4683	0.022
Mof_C 	C 	0.44293	0.09527	0.45197	0.012
Mof_H 	H 	0.4167	0.0798	0.4206	-0.001
Mof_C 	C 	0.40655	0.07163	0.4993	-0.021
Mof_C 	C 	0.44628	0.09388	0.54562	-0.022
Mof_H 	H 	0.4234	0.0787	0.578	0.023
Mof_C 	C 	0.52031	0.13889	0.54354	-0.102
Mof_H 	H 	0.5482	0.1541	0.5744	0.053
Mof_C 	C 	0.55179	0.16073	0.49487	0.053
Mof_H 	H 	0.6013	0.1916	0.4935	-0.015
Mof_H 	H 	0.7516	0.6104	0.9747	0.098
Mof_N 	N 	0.01455	0.6396	0.94937	-0.188
Mof_C 	C 	0.82689	0.52068	0.99945	-0.099
Mof_H 	H 	0.8265	0.4845	0.0303	0.051
Mof_H 	H 	0.8258	0.4851	0.9683	0.047
Mof_C 	C 	0.94293	0.59527	0.95197	-0.001
Mof_H 	H 	0.9167	0.5798	0.9206	0.001
Mof_C 	C 	0.90655	0.57163	0.9993	-0.007
Mof_C 	C 	0.94628	0.59388	0.04562	-0.033
Mof_H 	H 	0.9234	0.5787	0.078	0.026
Mof_C 	C 	0.02031	0.63889	0.04354	-0.076
Mof_H 	H 	0.0482	0.6541	0.0744	0.045
Mof_C 	C 	0.05179	0.66073	0.99487	0.031
Mof_H 	H 	0.1013	0.6916	0.9935	-0.01
Mof_H 	H 	0.8604	0.4984	0.7247	0.107
Mof_N 	N 	0.8896	0.23545	0.69937	-0.191
Mof_C 	C 	0.77068	0.42311	0.74945	-0.07
Mof_H 	H 	0.7345	0.4235	0.7803	0.037
Mof_H 	H 	0.7351	0.4242	0.7183	0.041
Mof_C 	C 	0.84527	0.30707	0.70197	0.003
Mof_H 	H 	0.8298	0.3333	0.6706	0
Mof_C 	C 	0.82163	0.34345	0.7493	-0.006
Mof_C 	C 	0.84388	0.30372	0.79562	-0.034
Mof_H 	H 	0.8287	0.3266	0.828	0.025
Mof_C 	C 	0.88889	0.22969	0.79354	-0.094
Mof_H 	H 	0.9041	0.2018	0.8244	0.05
Mof_C 	C 	0.91073	0.19821	0.74487	0.049
Mof_H 	H 	0.9416	0.1487	0.7435	-0.012
Mof_H 	H 	0.3604	0.9984	0.2247	0.097
Mof_N 	N 	0.3896	0.73545	0.19937	-0.19
Mof_C 	C 	0.27068	0.92311	0.24945	-0.079
Mof_H 	H 	0.2345	0.9235	0.2803	0.038
Mof_H 	H 	0.2351	0.9242	0.2183	0.042
Mof_C 	C 	0.34527	0.80707	0.20197	0.001
Mof_H 	H 	0.3298	0.8333	0.1706	0
Mof_C 	C 	0.32163	0.84345	0.2493	-0.003
Mof_C 	C 	0.34388	0.80372	0.29562	-0.037
Mof_H 	H 	0.3287	0.8266	0.328	0.026
Mof_C 	C 	0.38889	0.72969	0.29354	-0.093
Mof_H 	H 	0.4041	0.7018	0.3244	0.049
Mof_C 	C 	0.41073	0.69821	0.24487	0.048
Mof_H 	H 	0.4416	0.6487	0.2435	-0.013
Mof_H 	H 	0.6396	0.5016	0.2247	0.107
Mof_N 	N 	0.6104	0.76455	0.19937	-0.191
Mof_C 	C 	0.72932	0.57689	0.24945	-0.07
Mof_H 	H 	0.7655	0.5765	0.2803	0.037
Mof_H 	H 	0.7649	0.5758	0.2183	0.041
Mof_C 	C 	0.65473	0.69293	0.20197	0.003
Mof_H 	H 	0.6702	0.6667	0.1706	0
Mof_C 	C 	0.67837	0.65655	0.2493	-0.006
Mof_C 	C 	0.65612	0.69628	0.29562	-0.034
Mof_H 	H 	0.6713	0.6734	0.328	0.025
Mof_C 	C 	0.61111	0.77031	0.29354	-0.094
Mof_H 	H 	0.5959	0.7982	0.3244	0.049
Mof_C 	C 	0.58927	0.80179	0.24487	0.049
Mof_H 	H 	0.5584	0.8513	0.2435	-0.014
Mof_H 	H 	0.1396	0.0016	0.7247	0.108
Mof_N 	N 	0.1104	0.26455	0.69937	-0.19
Mof_C 	C 	0.22932	0.07689	0.74945	-0.073
Mof_H 	H 	0.2655	0.0765	0.7803	0.04
Mof_H 	H 	0.2649	0.0758	0.7183	0.043
Mof_C 	C 	0.15473	0.19293	0.70197	0.002
Mof_H 	H 	0.1702	0.1667	0.6706	0.001
Mof_C 	C 	0.17837	0.15655	0.7493	-0.003
Mof_C 	C 	0.15612	0.19628	0.79562	-0.035
Mof_H 	H 	0.1713	0.1734	0.828	0.026
Mof_C 	C 	0.11111	0.27031	0.79354	-0.093
Mof_H 	H 	0.0959	0.2982	0.8244	0.049
Mof_C 	C 	0.08927	0.30179	0.74487	0.048
Mof_H 	H 	0.0584	0.3513	0.7435	-0.013
Mof_H 	H 	0.2516	0.8896	0.0253	0.104
Mof_N 	N 	0.51455	0.8604	0.05063	-0.191
Mof_C 	C 	0.32689	0.97932	0.00055	-0.1
Mof_H 	H 	0.3265	0.0155	0.9697	0.046
Mof_H 	H 	0.3258	0.0149	0.0317	0.057
Mof_C 	C 	0.44293	0.90473	0.04803	-0.007
Mof_H 	H 	0.4167	0.9202	0.0794	0.002
Mof_C 	C 	0.40655	0.92837	0.0007	0.016
Mof_C 	C 	0.44628	0.90612	0.95438	-0.052
Mof_H 	H 	0.4234	0.9213	0.922	0.029
Mof_C 	C 	0.52031	0.86111	0.95646	-0.102
Mof_H 	H 	0.5482	0.8459	0.9256	0.05
Mof_C 	C 	0.55179	0.83927	0.00513	0.06
Mof_H 	H 	0.6013	0.8084	0.0065	-0.014
Mof_H 	H 	0.7516	0.3896	0.5253	0.107
Mof_N 	N 	0.01455	0.3604	0.55063	-0.191
Mof_C 	C 	0.82689	0.47932	0.50055	-0.07
Mof_H 	H 	0.8265	0.5155	0.4697	0.037
Mof_H 	H 	0.8258	0.5149	0.5317	0.041
Mof_C 	C 	0.94293	0.40473	0.54803	0.003
Mof_H 	H 	0.9167	0.4202	0.5794	0
Mof_C 	C 	0.90655	0.42837	0.5007	-0.006
Mof_C 	C 	0.94628	0.40612	0.45438	-0.034
Mof_H 	H 	0.9234	0.4213	0.422	0.025
Mof_C 	C 	0.02031	0.36111	0.45646	-0.094
Mof_H 	H 	0.0482	0.3459	0.4256	0.05
Mof_C 	C 	0.05179	0.33927	0.50513	0.049
Mof_H 	H 	0.1013	0.3084	0.5065	-0.013
Mof_H 	H 	0.2484	0.1104	0.5253	0.11
Mof_N 	N 	0.98545	0.1396	0.55063	-0.193
Mof_C 	C 	0.17311	0.02068	0.50055	-0.026
Mof_H 	H 	0.1735	0.9845	0.4697	0.018
Mof_H 	H 	0.1742	0.9851	0.5317	0.022
Mof_C 	C 	0.05707	0.09527	0.54803	0.012
Mof_H 	H 	0.0833	0.0798	0.5794	-0.001
Mof_C 	C 	0.09345	0.07163	0.5007	-0.021
Mof_C 	C 	0.05372	0.09388	0.45438	-0.022
Mof_H 	H 	0.0766	0.0787	0.422	0.023
Mof_C 	C 	0.97969	0.13889	0.45646	-0.102
Mof_H 	H 	0.9518	0.1541	0.4256	0.053
Mof_C 	C 	0.94821	0.16073	0.50513	0.053
Mof_H 	H 	0.8987	0.1916	0.5065	-0.015
Mof_H 	H 	0.7484	0.6104	0.0253	0.107
Mof_N 	N 	0.48545	0.6396	0.05063	-0.193
Mof_C 	C 	0.67311	0.52068	0.00055	-0.055
Mof_H 	H 	0.6735	0.4845	0.9697	0.027
Mof_H 	H 	0.6742	0.4851	0.0317	0.038
Mof_C 	C 	0.55707	0.59527	0.04803	0.003
Mof_H 	H 	0.5833	0.5798	0.0794	0
Mof_C 	C 	0.59345	0.57163	0.0007	0.001
Mof_C 	C 	0.55372	0.59388	0.95438	-0.04
Mof_H 	H 	0.5766	0.5787	0.922	0.026
Mof_C 	C 	0.47969	0.63889	0.95646	-0.109
Mof_H 	H 	0.4518	0.6541	0.9256	0.053
Mof_C 	C 	0.44821	0.66073	0.00513	0.065
Mof_H 	H 	0.3987	0.6916	0.0065	-0.016
Mof_H 	H 	0.6396	0.4984	0.2753	0.107
Mof_N 	N 	0.6104	0.23545	0.30063	-0.191
Mof_C 	C 	0.72932	0.42311	0.25055	-0.07
Mof_H 	H 	0.7655	0.4235	0.2197	0.037
Mof_H 	H 	0.7649	0.4242	0.2817	0.041
Mof_C 	C 	0.65473	0.30707	0.29803	0.003
Mof_H 	H 	0.6702	0.3333	0.3294	0
Mof_C 	C 	0.67837	0.34345	0.2507	-0.006
Mof_C 	C 	0.65612	0.30372	0.20438	-0.035
Mof_H 	H 	0.6713	0.3266	0.172	0.026
Mof_C 	C 	0.61111	0.22969	0.20646	-0.094
Mof_H 	H 	0.5959	0.2018	0.1756	0.05
Mof_C 	C 	0.58927	0.19821	0.25513	0.049
Mof_H 	H 	0.5584	0.1487	0.2565	-0.012
Mof_H 	H 	0.1396	0.9984	0.7753	0.097
Mof_N 	N 	0.1104	0.73545	0.80063	-0.19
Mof_C 	C 	0.22932	0.92311	0.75055	-0.079
Mof_H 	H 	0.2655	0.9235	0.7197	0.038
Mof_H 	H 	0.2649	0.9242	0.7817	0.042
Mof_C 	C 	0.15473	0.80707	0.79803	0.001
Mof_H 	H 	0.1702	0.8333	0.8294	0
Mof_C 	C 	0.17837	0.84345	0.7507	-0.003
Mof_C 	C 	0.15612	0.80372	0.70438	-0.037
Mof_H 	H 	0.1713	0.8266	0.672	0.026
Mof_C 	C 	0.11111	0.72969	0.70646	-0.093
Mof_H 	H 	0.0959	0.7018	0.6756	0.049
Mof_C 	C 	0.08927	0.69821	0.75513	0.048
Mof_H 	H 	0.0584	0.6487	0.7565	-0.013
Mof_H 	H 	0.8604	0.5016	0.7753	0.107
Mof_N 	N 	0.8896	0.76455	0.80063	-0.191
Mof_C 	C 	0.77068	0.57689	0.75055	-0.07
Mof_H 	H 	0.7345	0.5765	0.7197	0.037
Mof_H 	H 	0.7351	0.5758	0.7817	0.041
Mof_C 	C 	0.84527	0.69293	0.79803	0.003
Mof_H 	H 	0.8298	0.6667	0.8294	0
Mof_C 	C 	0.82163	0.65655	0.7507	-0.006
Mof_C 	C 	0.84388	0.69628	0.70438	-0.034
Mof_H 	H 	0.8287	0.6734	0.672	0.025
Mof_C 	C 	0.88889	0.77031	0.70646	-0.094
Mof_H 	H 	0.9041	0.7982	0.6756	0.049
Mof_C 	C 	0.91073	0.80179	0.75513	0.049
Mof_H 	H 	0.9416	0.8513	0.7565	-0.014
Mof_H 	H 	0.3604	0.0016	0.2753	0.108
Mof_N 	N 	0.3896	0.26455	0.30063	-0.19
Mof_C 	C 	0.27068	0.07689	0.25055	-0.073
Mof_H 	H 	0.2345	0.0765	0.2197	0.04
Mof_H 	H 	0.2351	0.0758	0.2817	0.043
Mof_C 	C 	0.34527	0.19293	0.29803	0.002
Mof_H 	H 	0.3298	0.1667	0.3294	0.001
Mof_C 	C 	0.32163	0.15655	0.2507	-0.003
Mof_C 	C 	0.34388	0.19628	0.20438	-0.036
Mof_H 	H 	0.3287	0.1734	0.172	0.027
Mof_C 	C 	0.38889	0.27031	0.20646	-0.093
Mof_H 	H 	0.4041	0.2982	0.1756	0.05
Mof_C 	C 	0.41073	0.30179	0.25513	0.048
Mof_H 	H 	0.4416	0.3513	0.2565	-0.013
Mof_Ag	Ag	0.93192	0.81808	0.875	0.428
Mof_Ag	Ag	0.43192	0.31808	0.375	0.431
Mof_Ag	Ag	0.56808	0.18192	0.375	0.434
Mof_Ag	Ag	0.06808	0.68192	0.875	0.431
Mof_Ag	Ag	0.93192	0.18192	0.625	0.434
Mof_Ag	Ag	0.43192	0.68192	0.125	0.433
Mof_Ag	Ag	0.56808	0.81808	0.125	0.43
Mof_Ag	Ag	0.06808	0.31808	0.625	0.431
Mof_N 	N 	0.25	0.92574	-0	-0.213
Mof_N 	N 	0.75	0.42574	0.5	-0.237
Mof_N 	N 	0.25	0.07426	0.5	-0.249
Mof_N 	N 	0.75	0.57426	-0	-0.224
Mof_N 	N 	0.82426	0.5	0.75	-0.237
Mof_N 	N 	0.32426	0	0.25	-0.226
Mof_N 	N 	0.67574	0.5	0.25	-0.237
Mof_N 	N 	0.17574	0	0.75	-0.226
_end
