data_functionalizedCrystal
_audit_creation_method	'EQeq! by Chris Wilmer'
_symmetry_space_group_name_H-M	'P1'
_symmetry_Int_Tables_number	1
_symmetry_cell_setting	triclinic
loop_
_symmetry_equiv_pos_as_xyz
  x,y,z
_cell_length_a	18.7059
_cell_length_b	18.7059
_cell_length_c	18.7059
_cell_angle_alpha	90
_cell_angle_beta	90
_cell_angle_gamma	90
loop_
_atom_site_label
_atom_site_type_symbol
_atom_site_fract_x
_atom_site_fract_y
_atom_site_fract_z
_atom_site_charge
Mof_N 	N 	0.07344	0.37229	0.57635	-0.231
Mof_C 	C 	0.12803	0.32884	0.58845	-0.003
Mof_H 	H 	0.1403	0.2881	0.5607	-0.011
Mof_N 	N 	0.41155	0.12803	0.67116	-0.134
Mof_N 	N 	0.92656	0.62771	0.57635	-0.182
Mof_C 	C 	0.87197	0.67116	0.58845	0.009
Mof_H 	H 	0.8597	0.7119	0.5607	0.017
Mof_N 	N 	0.58845	0.87197	0.67116	-0.13
Mof_N 	N 	0.92656	0.37229	0.42365	-0.187
Mof_C 	C 	0.87197	0.32884	0.41155	0.004
Mof_H 	H 	0.8597	0.2881	0.4393	0.006
Mof_N 	N 	0.58845	0.12803	0.32884	-0.134
Mof_N 	N 	0.07344	0.62771	0.42365	-0.23
Mof_C 	C 	0.12803	0.67116	0.41155	-0.003
Mof_H 	H 	0.1403	0.7119	0.4393	-0.004
Mof_N 	N 	0.41155	0.87197	0.32884	-0.131
Mof_N 	N 	0.57635	0.07344	0.37229	-0.202
Mof_H 	H 	0.5607	0.1403	0.2881	0.046
Mof_N 	N 	0.67116	0.41155	0.12803	-0.142
Mof_N 	N 	0.57635	0.92656	0.62771	-0.151
Mof_H 	H 	0.5607	0.8597	0.7119	0.079
Mof_N 	N 	0.67116	0.58845	0.87197	-0.139
Mof_N 	N 	0.42365	0.92656	0.37229	-0.156
Mof_H 	H 	0.4393	0.8597	0.2881	0.066
Mof_N 	N 	0.32884	0.58845	0.12803	-0.142
Mof_N 	N 	0.42365	0.07344	0.62771	-0.2
Mof_H 	H 	0.4393	0.1403	0.7119	0.055
Mof_N 	N 	0.32884	0.41155	0.87197	-0.14
Mof_N 	N 	0.37229	0.57635	0.07344	-0.201
Mof_H 	H 	0.2881	0.5607	0.1403	0.048
Mof_N 	N 	0.62771	0.57635	0.92656	-0.149
Mof_H 	H 	0.7119	0.5607	0.8597	0.08
Mof_N 	N 	0.37229	0.42365	0.92656	-0.154
Mof_H 	H 	0.2881	0.4393	0.8597	0.068
Mof_N 	N 	0.62771	0.42365	0.07344	-0.199
Mof_H 	H 	0.7119	0.4393	0.1403	0.056
Mof_N 	N 	0.37229	0.07344	0.42365	-0.233
Mof_C 	C 	0.32884	0.12803	0.41155	-0.006
Mof_H 	H 	0.2881	0.1403	0.4393	-0.013
Mof_N 	N 	0.12803	0.41155	0.32884	-0.135
Mof_N 	N 	0.62771	0.92656	0.42365	-0.184
Mof_C 	C 	0.67116	0.87197	0.41155	0.007
Mof_H 	H 	0.7119	0.8597	0.4393	0.016
Mof_N 	N 	0.87197	0.58845	0.32884	-0.13
Mof_N 	N 	0.37229	0.92656	0.57635	-0.185
Mof_C 	C 	0.32884	0.87197	0.58845	0.006
Mof_H 	H 	0.2881	0.8597	0.5607	0.008
Mof_N 	N 	0.12803	0.58845	0.67116	-0.133
Mof_N 	N 	0.62771	0.07344	0.57635	-0.229
Mof_C 	C 	0.67116	0.12803	0.58845	-0.001
Mof_H 	H 	0.7119	0.1403	0.5607	-0.002
Mof_N 	N 	0.87197	0.41155	0.67116	-0.13
Mof_N 	N 	0.07344	0.57635	0.62771	-0.199
Mof_H 	H 	0.1403	0.5607	0.7119	0.057
Mof_N 	N 	0.41155	0.67116	0.87197	-0.139
Mof_N 	N 	0.92656	0.57635	0.37229	-0.155
Mof_H 	H 	0.8597	0.5607	0.2881	0.068
Mof_N 	N 	0.58845	0.67116	0.12803	-0.142
Mof_N 	N 	0.92656	0.42365	0.62771	-0.153
Mof_H 	H 	0.8597	0.4393	0.7119	0.077
Mof_N 	N 	0.58845	0.32884	0.87197	-0.139
Mof_N 	N 	0.07344	0.42365	0.37229	-0.204
Mof_H 	H 	0.1403	0.4393	0.2881	0.045
Mof_N 	N 	0.41155	0.32884	0.12803	-0.143
Mof_N 	N 	0.57635	0.37229	0.92656	-0.153
Mof_H 	H 	0.5607	0.2881	0.8597	0.07
Mof_N 	N 	0.57635	0.62771	0.07344	-0.197
Mof_H 	H 	0.5607	0.7119	0.1403	0.058
Mof_N 	N 	0.42365	0.37229	0.07344	-0.202
Mof_H 	H 	0.4393	0.2881	0.1403	0.046
Mof_N 	N 	0.42365	0.62771	0.92656	-0.151
Mof_H 	H 	0.4393	0.7119	0.8597	0.078
Mof_N 	N 	0.92656	0.62771	0.42365	-0.184
Mof_C 	C 	0.87197	0.67116	0.41155	0.007
Mof_H 	H 	0.8597	0.7119	0.4393	0.016
Mof_N 	N 	0.58845	0.87197	0.32884	-0.13
Mof_N 	N 	0.07344	0.37229	0.42365	-0.233
Mof_C 	C 	0.12803	0.32884	0.41155	-0.006
Mof_H 	H 	0.1403	0.2881	0.4393	-0.013
Mof_N 	N 	0.41155	0.12803	0.32884	-0.135
Mof_N 	N 	0.07344	0.62771	0.57635	-0.229
Mof_C 	C 	0.12803	0.67116	0.58845	-0.001
Mof_H 	H 	0.1403	0.7119	0.5607	-0.002
Mof_N 	N 	0.41155	0.87197	0.67116	-0.13
Mof_N 	N 	0.92656	0.37229	0.57635	-0.185
Mof_C 	C 	0.87197	0.32884	0.58845	0.006
Mof_H 	H 	0.8597	0.2881	0.5607	0.008
Mof_N 	N 	0.58845	0.12803	0.67116	-0.133
Mof_N 	N 	0.42365	0.92656	0.62771	-0.153
Mof_H 	H 	0.4393	0.8597	0.7119	0.077
Mof_N 	N 	0.32884	0.58845	0.87197	-0.139
Mof_N 	N 	0.42365	0.07344	0.37229	-0.204
Mof_H 	H 	0.4393	0.1403	0.2881	0.045
Mof_N 	N 	0.32884	0.41155	0.12803	-0.143
Mof_N 	N 	0.57635	0.07344	0.62771	-0.199
Mof_H 	H 	0.5607	0.1403	0.7119	0.057
Mof_N 	N 	0.67116	0.41155	0.87197	-0.139
Mof_N 	N 	0.57635	0.92656	0.37229	-0.155
Mof_H 	H 	0.5607	0.8597	0.2881	0.068
Mof_N 	N 	0.67116	0.58845	0.12803	-0.142
Mof_N 	N 	0.62771	0.42365	0.92656	-0.151
Mof_H 	H 	0.7119	0.4393	0.8597	0.078
Mof_N 	N 	0.37229	0.42365	0.07344	-0.202
Mof_H 	H 	0.2881	0.4393	0.1403	0.046
Mof_N 	N 	0.62771	0.57635	0.07344	-0.197
Mof_H 	H 	0.7119	0.5607	0.1403	0.058
Mof_N 	N 	0.37229	0.57635	0.92656	-0.153
Mof_H 	H 	0.2881	0.5607	0.8597	0.07
Mof_N 	N 	0.62771	0.92656	0.57635	-0.182
Mof_C 	C 	0.67116	0.87197	0.58845	0.009
Mof_H 	H 	0.7119	0.8597	0.5607	0.017
Mof_N 	N 	0.87197	0.58845	0.67116	-0.13
Mof_N 	N 	0.37229	0.07344	0.57635	-0.232
Mof_C 	C 	0.32884	0.12803	0.58845	-0.004
Mof_H 	H 	0.2881	0.1403	0.5607	-0.012
Mof_N 	N 	0.12803	0.41155	0.67116	-0.134
Mof_N 	N 	0.62771	0.07344	0.42365	-0.23
Mof_C 	C 	0.67116	0.12803	0.41155	-0.003
Mof_H 	H 	0.7119	0.1403	0.4393	-0.004
Mof_N 	N 	0.87197	0.41155	0.32884	-0.131
Mof_N 	N 	0.37229	0.92656	0.42365	-0.187
Mof_C 	C 	0.32884	0.87197	0.41155	0.004
Mof_H 	H 	0.2881	0.8597	0.4393	0.006
Mof_N 	N 	0.12803	0.58845	0.32884	-0.134
Mof_N 	N 	0.92656	0.42365	0.37229	-0.156
Mof_H 	H 	0.8597	0.4393	0.2881	0.066
Mof_N 	N 	0.58845	0.32884	0.12803	-0.142
Mof_N 	N 	0.07344	0.42365	0.62771	-0.2
Mof_H 	H 	0.1403	0.4393	0.7119	0.055
Mof_N 	N 	0.41155	0.32884	0.87197	-0.14
Mof_N 	N 	0.07344	0.57635	0.37229	-0.202
Mof_H 	H 	0.1403	0.5607	0.2881	0.046
Mof_N 	N 	0.41155	0.67116	0.12803	-0.142
Mof_N 	N 	0.92656	0.57635	0.62771	-0.151
Mof_H 	H 	0.8597	0.5607	0.7119	0.079
Mof_N 	N 	0.58845	0.67116	0.87197	-0.139
Mof_N 	N 	0.42365	0.62771	0.07344	-0.199
Mof_H 	H 	0.4393	0.7119	0.1403	0.056
Mof_N 	N 	0.42365	0.37229	0.92656	-0.154
Mof_H 	H 	0.4393	0.2881	0.8597	0.068
Mof_N 	N 	0.57635	0.62771	0.92656	-0.149
Mof_H 	H 	0.5607	0.7119	0.8597	0.08
Mof_N 	N 	0.57635	0.37229	0.07344	-0.201
Mof_H 	H 	0.5607	0.2881	0.1403	0.048
Mof_Co	Co	5.73139e-33	0.36896	0.5	1.079
Mof_Co	Co	-1.98199e-33	0.63104	0.5	1.082
Mof_Co	Co	0.5	3.85669e-33	0.36896	1.079
Mof_Co	Co	0.5	0	0.63104	1.083
Mof_Co	Co	0.36896	0.5	-0	1.079
Mof_Co	Co	0.63104	0.5	-0	1.083
Mof_Co	Co	0.36896	3.85669e-33	0.5	1.079
Mof_Co	Co	0.63104	3.85669e-33	0.5	1.082
Mof_Co	Co	-5.34736e-33	0.5	0.63104	1.083
Mof_Co	Co	5.24007e-33	0.5	0.36896	1.079
Mof_Co	Co	0.5	0.36896	-0	1.079
Mof_Co	Co	0.5	0.63104	-0	1.083
Mof_Cl	Cl	9.58808e-33	0.5	0.5	-0.937
Mof_Cl	Cl	0.5	3.85669e-33	0.5	-0.937
Mof_Cl	Cl	0.5	0.5	-0	-0.938
Mof_C 	C 	0.2288	0.32054	0.67946	0.024
Mof_C 	C 	0.1638	0.3524	0.6476	0.029
Mof_C 	C 	0.7712	0.67946	0.67946	0.036
Mof_C 	C 	0.8362	0.6476	0.6476	0.05
Mof_C 	C 	0.7712	0.32054	0.32054	0.027
Mof_C 	C 	0.8362	0.3524	0.3524	0.039
Mof_C 	C 	0.2288	0.67946	0.32054	0.024
Mof_C 	C 	0.1638	0.6476	0.3524	0.028
Mof_C 	C 	0.67946	0.2288	0.32054	0.024
Mof_C 	C 	0.6476	0.1638	0.3524	0.028
Mof_C 	C 	0.67946	0.7712	0.67946	0.036
Mof_C 	C 	0.6476	0.8362	0.6476	0.05
Mof_C 	C 	0.32054	0.7712	0.32054	0.027
Mof_C 	C 	0.3524	0.8362	0.3524	0.039
Mof_C 	C 	0.32054	0.2288	0.67946	0.024
Mof_C 	C 	0.3524	0.1638	0.6476	0.029
Mof_C 	C 	0.32054	0.67946	0.2288	0.002
Mof_C 	C 	0.3524	0.6476	0.1638	0.094
Mof_C 	C 	0.67946	0.67946	0.7712	0.013
Mof_C 	C 	0.6476	0.6476	0.8362	0.12
Mof_C 	C 	0.32054	0.32054	0.7712	0.003
Mof_C 	C 	0.3524	0.3524	0.8362	0.107
Mof_C 	C 	0.67946	0.32054	0.2288	0.002
Mof_C 	C 	0.6476	0.3524	0.1638	0.094
Mof_C 	C 	0.32054	0.2288	0.32054	0.019
Mof_C 	C 	0.3524	0.1638	0.3524	0.023
Mof_C 	C 	0.67946	0.7712	0.32054	0.032
Mof_C 	C 	0.6476	0.8362	0.3524	0.044
Mof_C 	C 	0.32054	0.7712	0.67946	0.031
Mof_C 	C 	0.3524	0.8362	0.6476	0.045
Mof_C 	C 	0.67946	0.2288	0.67946	0.028
Mof_C 	C 	0.6476	0.1638	0.6476	0.034
Mof_C 	C 	0.2288	0.67946	0.67946	0.028
Mof_C 	C 	0.1638	0.6476	0.6476	0.034
Mof_C 	C 	0.7712	0.67946	0.32054	0.032
Mof_C 	C 	0.8362	0.6476	0.3524	0.044
Mof_C 	C 	0.7712	0.32054	0.67946	0.031
Mof_C 	C 	0.8362	0.3524	0.6476	0.045
Mof_C 	C 	0.2288	0.32054	0.32054	0.019
Mof_C 	C 	0.1638	0.3524	0.3524	0.023
Mof_C 	C 	0.67946	0.32054	0.7712	0.008
Mof_C 	C 	0.6476	0.3524	0.8362	0.114
Mof_C 	C 	0.67946	0.67946	0.2288	0.007
Mof_C 	C 	0.6476	0.6476	0.1638	0.101
Mof_C 	C 	0.32054	0.32054	0.2288	-0.002
Mof_C 	C 	0.3524	0.3524	0.1638	0.088
Mof_C 	C 	0.32054	0.67946	0.7712	0.008
Mof_C 	C 	0.3524	0.6476	0.8362	0.114
Mof_C 	C 	0.2597	0.2597	0.6503	-0.095
Mof_H 	H 	0.2386	0.2386	0.6092	0.046
Mof_C 	C 	0.7403	0.7403	0.6503	-0.087
Mof_H 	H 	0.7614	0.7614	0.6092	0.063
Mof_C 	C 	0.7403	0.2597	0.3497	-0.095
Mof_H 	H 	0.7614	0.2386	0.3908	0.053
Mof_C 	C 	0.2597	0.7403	0.3497	-0.095
Mof_H 	H 	0.2386	0.7614	0.3908	0.053
Mof_C 	C 	0.6503	0.2597	0.2597	-0.081
Mof_H 	H 	0.6092	0.2386	0.2386	0.042
Mof_C 	C 	0.6503	0.7403	0.7403	-0.072
Mof_H 	H 	0.6092	0.7614	0.7614	0.058
Mof_C 	C 	0.3497	0.7403	0.2597	-0.08
Mof_H 	H 	0.3908	0.7614	0.2386	0.049
Mof_C 	C 	0.3497	0.2597	0.7403	-0.079
Mof_H 	H 	0.3908	0.2386	0.7614	0.049
Mof_C 	C 	0.2597	0.6503	0.2597	-0.081
Mof_H 	H 	0.2386	0.6092	0.2386	0.042
Mof_C 	C 	0.7403	0.6503	0.7403	-0.072
Mof_H 	H 	0.7614	0.6092	0.7614	0.058
Mof_C 	C 	0.2597	0.3497	0.7403	-0.079
Mof_H 	H 	0.2386	0.3908	0.7614	0.049
Mof_C 	C 	0.7403	0.3497	0.2597	-0.08
Mof_H 	H 	0.7614	0.3908	0.2386	0.049
Mof_C 	C 	0.2597	0.2597	0.3497	-0.099
Mof_H 	H 	0.2386	0.2386	0.3908	0.045
Mof_C 	C 	0.7403	0.7403	0.3497	-0.09
Mof_H 	H 	0.7614	0.7614	0.3908	0.061
Mof_C 	C 	0.2597	0.7403	0.6503	-0.091
Mof_H 	H 	0.2386	0.7614	0.6092	0.055
Mof_C 	C 	0.7403	0.2597	0.6503	-0.091
Mof_H 	H 	0.7614	0.2386	0.6092	0.055
Mof_C 	C 	0.2597	0.6503	0.7403	-0.076
Mof_H 	H 	0.2386	0.6092	0.7614	0.05
Mof_C 	C 	0.7403	0.6503	0.2597	-0.077
Mof_H 	H 	0.7614	0.6092	0.2386	0.051
Mof_C 	C 	0.7403	0.3497	0.7403	-0.075
Mof_H 	H 	0.7614	0.3908	0.7614	0.057
Mof_C 	C 	0.2597	0.3497	0.2597	-0.085
Mof_H 	H 	0.2386	0.3908	0.2386	0.041
Mof_C 	C 	0.6503	0.2597	0.7403	-0.076
Mof_H 	H 	0.6092	0.2386	0.7614	0.05
Mof_C 	C 	0.6503	0.7403	0.2597	-0.077
Mof_H 	H 	0.6092	0.7614	0.2386	0.051
Mof_C 	C 	0.3497	0.2597	0.2597	-0.085
Mof_H 	H 	0.3908	0.2386	0.2386	0.041
Mof_C 	C 	0.3497	0.7403	0.7403	-0.075
Mof_H 	H 	0.3908	0.7614	0.7614	0.057
_end
