data_functionalizedCrystal
_audit_creation_method	'EQeq! by Chris Wilmer'
_symmetry_space_group_name_H-M	'P1'
_symmetry_Int_Tables_number	1
_symmetry_cell_setting	triclinic
loop_
_symmetry_equiv_pos_as_xyz
  x,y,z
_cell_length_a	10.0546
_cell_length_b	17.7412
_cell_length_c	19.8116
_cell_angle_alpha	90
_cell_angle_beta	90
_cell_angle_gamma	90
loop_
_atom_site_label
_atom_site_type_symbol
_atom_site_fract_x
_atom_site_fract_y
_atom_site_fract_z
_atom_site_charge
Mof_Eu	Eu	0.53159	0.75	0.75	2.286
Mof_Eu	Eu	0.96841	0.25	0.25	2.279
Mof_Eu	Eu	0.46841	0.25	0.25	2.287
Mof_Eu	Eu	0.03159	0.75	0.75	2.28
Mof_H 	H 	0.6716	0.8857	0.0721	0.105
Mof_H 	H 	0.6252	0.8635	0.9589	-0.031
Mof_H 	H 	0.9733	0.7555	0.9411	-0.03
Mof_H 	H 	0.012	0.7725	0.0549	0.109
Mof_H 	H 	0.8643	0.8408	0.1192	-0.026
Mof_H 	H 	0.4487	0.9386	0.6849	-0.011
Mof_H 	H 	0.7618	0.8708	0.5825	0.008
Mof_H 	H 	0.6951	0.9388	0.4908	0.068
Mof_H 	H 	0.3751	0.0053	0.5932	0.068
Mof_H 	H 	0.6716	0.6143	0.4279	0.102
Mof_H 	H 	0.6252	0.6365	0.5411	-0.029
Mof_H 	H 	0.9733	0.7445	0.5589	-0.027
Mof_H 	H 	0.012	0.7275	0.4451	0.104
Mof_H 	H 	0.8643	0.6592	0.3808	-0.023
Mof_H 	H 	0.4487	0.5614	0.8151	-0.01
Mof_H 	H 	0.7618	0.6292	0.9175	0.009
Mof_H 	H 	0.6951	0.5612	0.0092	0.067
Mof_H 	H 	0.3751	0.4947	0.9068	0.066
Mof_H 	H 	0.8284	0.1143	0.5721	0.104
Mof_H 	H 	0.8748	0.1365	0.4589	-0.031
Mof_H 	H 	0.5267	0.2445	0.4411	-0.03
Mof_H 	H 	0.488	0.2275	0.5549	0.108
Mof_H 	H 	0.6357	0.1592	0.6192	-0.025
Mof_H 	H 	0.0513	0.0614	0.1849	-0.008
Mof_H 	H 	0.7382	0.1292	0.0825	0.008
Mof_H 	H 	0.8049	0.0612	0.9908	0.068
Mof_H 	H 	0.1249	0.9947	0.0932	0.06
Mof_H 	H 	0.8284	0.3857	0.9279	0.103
Mof_H 	H 	0.8748	0.3635	0.0411	-0.029
Mof_H 	H 	0.5267	0.2555	0.0589	-0.029
Mof_H 	H 	0.488	0.2725	0.9451	0.107
Mof_H 	H 	0.6357	0.3408	0.8808	-0.024
Mof_H 	H 	0.0513	0.4386	0.3151	-0.01
Mof_H 	H 	0.7382	0.3708	0.4175	0.008
Mof_H 	H 	0.8049	0.4388	0.5092	0.068
Mof_H 	H 	0.1249	0.5053	0.4068	0.067
Mof_H 	H 	0.3284	0.1143	0.9279	0.105
Mof_H 	H 	0.3748	0.1365	0.0411	-0.031
Mof_H 	H 	0.0267	0.2445	0.0589	-0.03
Mof_H 	H 	0.988	0.2275	0.9451	0.109
Mof_H 	H 	0.1357	0.1592	0.8808	-0.026
Mof_H 	H 	0.5513	0.0614	0.3151	-0.011
Mof_H 	H 	0.2382	0.1292	0.4175	0.008
Mof_H 	H 	0.3049	0.0612	0.5092	0.068
Mof_H 	H 	0.6249	0.9947	0.4068	0.068
Mof_H 	H 	0.3284	0.3857	0.5721	0.102
Mof_H 	H 	0.3748	0.3635	0.4589	-0.029
Mof_H 	H 	0.0267	0.2555	0.4411	-0.027
Mof_H 	H 	0.988	0.2725	0.5549	0.104
Mof_H 	H 	0.1357	0.3408	0.6192	-0.023
Mof_H 	H 	0.5513	0.4386	0.1849	-0.01
Mof_H 	H 	0.2382	0.3708	0.0825	0.009
Mof_H 	H 	0.3049	0.4388	0.9908	0.067
Mof_H 	H 	0.6249	0.5053	0.0932	0.066
Mof_H 	H 	0.1716	0.8857	0.4279	0.104
Mof_H 	H 	0.1252	0.8635	0.5411	-0.031
Mof_H 	H 	0.4733	0.7555	0.5589	-0.03
Mof_H 	H 	0.512	0.7725	0.4451	0.108
Mof_H 	H 	0.3643	0.8408	0.3808	-0.025
Mof_H 	H 	0.9487	0.9386	0.8151	-0.008
Mof_H 	H 	0.2618	0.8708	0.9175	0.008
Mof_H 	H 	0.1951	0.9388	0.0092	0.068
Mof_H 	H 	0.8751	0.0053	0.9068	0.06
Mof_H 	H 	0.1716	0.6143	0.0721	0.103
Mof_H 	H 	0.1252	0.6365	0.9589	-0.029
Mof_H 	H 	0.4733	0.7445	0.9411	-0.029
Mof_H 	H 	0.512	0.7275	0.0549	0.107
Mof_H 	H 	0.3643	0.6592	0.1192	-0.024
Mof_H 	H 	0.9487	0.5614	0.6849	-0.01
Mof_H 	H 	0.2618	0.6292	0.5825	0.008
Mof_H 	H 	0.1951	0.5612	0.4908	0.068
Mof_H 	H 	0.8751	0.4947	0.5932	0.067
Mof_C 	C 	0.772	0.79573	0.8641	0.594
Mof_C 	C 	0.7936	0.8077	0.9382	-0.276
Mof_C 	C 	0.7317	0.8588	0.0457	-0.231
Mof_C 	C 	0.7042	0.846	0.97759	0.172
Mof_C 	C 	0.9112	0.7809	0.96745	0.176
Mof_C 	C 	0.9354	0.7921	0.0353	-0.233
Mof_C 	C 	0.8464	0.832	0.0738	0.148
Mof_C 	C 	0.5239	0.97897	0.5298	0.051
Mof_C 	C 	0.4971	0.9376	0.64488	0.062
Mof_C 	C 	0.6826	0.8979	0.58429	0.06
Mof_C 	C 	0.6423	0.9384	0.52931	-0.124
Mof_C 	C 	0.4538	0.9779	0.58992	-0.124
Mof_C 	C 	0.772	0.70427	0.6359	0.592
Mof_C 	C 	0.7936	0.6923	0.5618	-0.271
Mof_C 	C 	0.7317	0.6412	0.4543	-0.223
Mof_C 	C 	0.7042	0.654	0.52241	0.165
Mof_C 	C 	0.9112	0.7191	0.53255	0.168
Mof_C 	C 	0.9354	0.7079	0.4647	-0.222
Mof_C 	C 	0.8464	0.668	0.4262	0.139
Mof_C 	C 	0.5239	0.52103	0.9702	0.05
Mof_C 	C 	0.4971	0.5624	0.85512	0.061
Mof_C 	C 	0.6826	0.6021	0.91571	0.058
Mof_C 	C 	0.6423	0.5616	0.97069	-0.122
Mof_C 	C 	0.4538	0.5221	0.91008	-0.122
Mof_C 	C 	0.728	0.20427	0.3641	0.594
Mof_C 	C 	0.7064	0.1923	0.4382	-0.276
Mof_C 	C 	0.7683	0.1412	0.5457	-0.229
Mof_C 	C 	0.7958	0.154	0.47759	0.17
Mof_C 	C 	0.5888	0.2191	0.46745	0.174
Mof_C 	C 	0.5646	0.2079	0.5353	-0.231
Mof_C 	C 	0.6536	0.168	0.5738	0.145
Mof_C 	C 	0.9761	0.02103	0.0298	0.044
Mof_C 	C 	0.0029	0.0624	0.14488	0.061
Mof_C 	C 	0.8174	0.1021	0.08429	0.058
Mof_C 	C 	0.8577	0.0616	0.02931	-0.123
Mof_C 	C 	0.0462	0.0221	0.08992	-0.109
Mof_C 	C 	0.728	0.29573	0.1359	0.594
Mof_C 	C 	0.7064	0.3077	0.0618	-0.273
Mof_C 	C 	0.7683	0.3588	0.9543	-0.225
Mof_C 	C 	0.7958	0.346	0.02241	0.166
Mof_C 	C 	0.5888	0.2809	0.03255	0.171
Mof_C 	C 	0.5646	0.2921	0.9647	-0.228
Mof_C 	C 	0.6536	0.332	0.9262	0.142
Mof_C 	C 	0.9761	0.47897	0.4702	0.05
Mof_C 	C 	0.0029	0.4376	0.35512	0.063
Mof_C 	C 	0.8174	0.3979	0.41571	0.059
Mof_C 	C 	0.8577	0.4384	0.47069	-0.124
Mof_C 	C 	0.0462	0.4779	0.41008	-0.123
Mof_C 	C 	0.228	0.20427	0.1359	0.594
Mof_C 	C 	0.2064	0.1923	0.0618	-0.276
Mof_C 	C 	0.2683	0.1412	0.9543	-0.231
Mof_C 	C 	0.2958	0.154	0.02241	0.172
Mof_C 	C 	0.0888	0.2191	0.03255	0.176
Mof_C 	C 	0.0646	0.2079	0.9647	-0.233
Mof_C 	C 	0.1536	0.168	0.9262	0.148
Mof_C 	C 	0.4761	0.02103	0.4702	0.051
Mof_C 	C 	0.5029	0.0624	0.35512	0.062
Mof_C 	C 	0.3174	0.1021	0.41571	0.06
Mof_C 	C 	0.3577	0.0616	0.47069	-0.124
Mof_C 	C 	0.5462	0.0221	0.41008	-0.124
Mof_C 	C 	0.228	0.29573	0.3641	0.592
Mof_C 	C 	0.2064	0.3077	0.4382	-0.271
Mof_C 	C 	0.2683	0.3588	0.5457	-0.223
Mof_C 	C 	0.2958	0.346	0.47759	0.165
Mof_C 	C 	0.0888	0.2809	0.46745	0.168
Mof_C 	C 	0.0646	0.2921	0.5353	-0.222
Mof_C 	C 	0.1536	0.332	0.5738	0.139
Mof_C 	C 	0.4761	0.47897	0.0298	0.05
Mof_C 	C 	0.5029	0.4376	0.14488	0.061
Mof_C 	C 	0.3174	0.3979	0.08429	0.058
Mof_C 	C 	0.3577	0.4384	0.02931	-0.122
Mof_C 	C 	0.5462	0.4779	0.08992	-0.122
Mof_C 	C 	0.272	0.79573	0.6359	0.594
Mof_C 	C 	0.2936	0.8077	0.5618	-0.276
Mof_C 	C 	0.2317	0.8588	0.4543	-0.229
Mof_C 	C 	0.2042	0.846	0.52241	0.17
Mof_C 	C 	0.4112	0.7809	0.53255	0.174
Mof_C 	C 	0.4354	0.7921	0.4647	-0.231
Mof_C 	C 	0.3464	0.832	0.4262	0.145
Mof_C 	C 	0.0239	0.97897	0.9702	0.044
Mof_C 	C 	0.9971	0.9376	0.85512	0.061
Mof_C 	C 	0.1826	0.8979	0.91571	0.058
Mof_C 	C 	0.1423	0.9384	0.97069	-0.123
Mof_C 	C 	0.9538	0.9779	0.91008	-0.109
Mof_C 	C 	0.272	0.70427	0.8641	0.594
Mof_C 	C 	0.2936	0.6923	0.9382	-0.273
Mof_C 	C 	0.2317	0.6412	0.0457	-0.225
Mof_C 	C 	0.2042	0.654	0.97759	0.166
Mof_C 	C 	0.4112	0.7191	0.96745	0.171
Mof_C 	C 	0.4354	0.7079	0.0353	-0.228
Mof_C 	C 	0.3464	0.668	0.0738	0.142
Mof_C 	C 	0.0239	0.52103	0.5298	0.05
Mof_C 	C 	0.9971	0.5624	0.64488	0.063
Mof_C 	C 	0.1826	0.6021	0.58429	0.059
Mof_C 	C 	0.1423	0.5616	0.52931	-0.124
Mof_C 	C 	0.9538	0.5221	0.58992	-0.123
Mof_N 	N 	0.6093	0.89658	0.64085	-0.073
Mof_N 	N 	0.6093	0.60342	0.85915	-0.073
Mof_N 	N 	0.8907	0.10342	0.14085	-0.075
Mof_N 	N 	0.8907	0.39658	0.35915	-0.074
Mof_N 	N 	0.3907	0.10342	0.35915	-0.073
Mof_N 	N 	0.3907	0.39658	0.14085	-0.073
Mof_N 	N 	0.1093	0.89658	0.85915	-0.075
Mof_N 	N 	0.1093	0.60342	0.64085	-0.074
Mof_O 	O 	0.6571	0.80246	0.84042	-0.597
Mof_O 	O 	0.6492	0.85614	0.69403	-0.36
Mof_O 	O 	0.8719	0.7803	0.82973	-0.643
Mof_O 	O 	0.6571	0.69754	0.65958	-0.597
Mof_O 	O 	0.6492	0.64386	0.80597	-0.36
Mof_O 	O 	0.8719	0.7197	0.67027	-0.642
Mof_O 	O 	0.8429	0.19754	0.34042	-0.597
Mof_O 	O 	0.8508	0.14386	0.19403	-0.361
Mof_O 	O 	0.6281	0.2197	0.32973	-0.645
Mof_O 	O 	0.8429	0.30246	0.15958	-0.597
Mof_O 	O 	0.8508	0.35614	0.30597	-0.36
Mof_O 	O 	0.6281	0.2803	0.17027	-0.644
Mof_O 	O 	0.3429	0.19754	0.15958	-0.597
Mof_O 	O 	0.3508	0.14386	0.30597	-0.36
Mof_O 	O 	0.1281	0.2197	0.17027	-0.643
Mof_O 	O 	0.3429	0.30246	0.34042	-0.597
Mof_O 	O 	0.3508	0.35614	0.19403	-0.36
Mof_O 	O 	0.1281	0.2803	0.32973	-0.642
Mof_O 	O 	0.1571	0.80246	0.65958	-0.597
Mof_O 	O 	0.1492	0.85614	0.80597	-0.361
Mof_O 	O 	0.3719	0.7803	0.67027	-0.645
Mof_O 	O 	0.1571	0.69754	0.84042	-0.597
Mof_O 	O 	0.1492	0.64386	0.69403	-0.36
Mof_O 	O 	0.3719	0.7197	0.82973	-0.644
_end
