data_functionalizedCrystal
_audit_creation_method	'EQeq! by Chris Wilmer'
_symmetry_space_group_name_H-M	'P1'
_symmetry_Int_Tables_number	1
_symmetry_cell_setting	triclinic
loop_
_symmetry_equiv_pos_as_xyz
  x,y,z
_cell_length_a	9.819
_cell_length_b	11.0731
_cell_length_c	12.6499
_cell_angle_alpha	90
_cell_angle_beta	90
_cell_angle_gamma	99.852
loop_
_atom_site_label
_atom_site_type_symbol
_atom_site_fract_x
_atom_site_fract_y
_atom_site_fract_z
_atom_site_charge
Mof_Co	Co	0.8728	0.75077	0.56632	1.186
Mof_Co	Co	0.3764	0.74812	0.56436	1.187
Mof_Co	Co	0.1272	0.24923	0.06632	1.176
Mof_Co	Co	0.6236	0.25188	0.06436	1.175
Mof_H 	H 	0.1034	0.3674	0.4586	0.052
Mof_H 	H 	0.8515	0.0159	0.5155	0.011
Mof_H 	H 	0.4544	0.0078	0.735	0.076
Mof_H 	H 	0.1029	0.2413	0.3127	0.021
Mof_H 	H 	0.6029	0.5126	0.8394	0.071
Mof_H 	H 	0.1055	0.6469	0.2588	0.048
Mof_H 	H 	0.4454	0.1314	0.8848	0.02
Mof_H 	H 	0.8411	0.1482	0.377	0.056
Mof_H 	H 	0.1209	0.5192	0.1233	0.011
Mof_H 	H 	0.1947	0.6272	0.7458	0.017
Mof_H 	H 	0.5879	0.6418	0.6982	0.018
Mof_H 	H 	0.8528	0.0078	0.8001	0.073
Mof_H 	H 	0.8716	0.8688	0.1819	0.043
Mof_H 	H 	0.8718	0.7456	0.3232	0.023
Mof_H 	H 	0.1923	0.4942	0.8809	0.079
Mof_H 	H 	0.8365	0.1353	0.9398	0.02
Mof_H 	H 	0.8966	0.6326	0.9586	0.06
Mof_H 	H 	0.1485	0.9841	0.0155	-0.04
Mof_H 	H 	0.5456	0.9922	0.235	0.069
Mof_H 	H 	0.8971	0.7587	0.8127	0.025
Mof_H 	H 	0.3971	0.4874	0.3394	0.07
Mof_H 	H 	0.8945	0.3531	0.7588	0.046
Mof_H 	H 	0.5546	0.8686	0.3848	0.019
Mof_H 	H 	0.1589	0.8518	0.877	0.078
Mof_H 	H 	0.8791	0.4808	0.6233	0.024
Mof_H 	H 	0.8053	0.3728	0.2458	0.015
Mof_H 	H 	0.4121	0.3582	0.1982	0.014
Mof_H 	H 	0.1472	0.9922	0.3001	0.067
Mof_H 	H 	0.1284	0.1312	0.6819	0.058
Mof_H 	H 	0.1282	0.2544	0.8232	0.02
Mof_H 	H 	0.8077	0.5058	0.3809	0.076
Mof_H 	H 	0.1635	0.8647	0.4398	0.015
Mof_C 	C 	0.6521	0.8978	0.6648	0.356
Mof_C 	C 	0.6521	0.9892	0.7541	-0.028
Mof_C 	C 	0.1046	0.3997	0.3907	-0.049
Mof_C 	C 	0.8531	0.9857	0.447	0.055
Mof_C 	C 	0.5323	0.03	0.777	-0.074
Mof_C 	C 	0.1072	0.3249	0.3016	0.032
Mof_C 	C 	0.4074	0.3982	0.9669	0.453
Mof_C 	C 	0.0929	0.6048	0.4665	0.373
Mof_C 	C 	0.3975	0.4869	0.875	-0.057
Mof_C 	C 	0.1039	0.5239	0.3741	-0.071
Mof_C 	C 	0.5185	0.5333	0.8202	-0.052
Mof_C 	C 	0.1079	0.5648	0.2724	-0.049
Mof_C 	C 	0.5284	0.1071	0.8664	0.053
Mof_C 	C 	0.8474	0.0667	0.364	-0.059
Mof_C 	C 	0.1154	0.4869	0.1913	0.034
Mof_C 	C 	0.2772	0.6017	0.7637	0.06
Mof_C 	C 	0.5083	0.6113	0.7363	0.043
Mof_C 	C 	0.7686	0.0315	0.8157	-0.075
Mof_C 	C 	0.8641	0.9013	0.249	-0.033
Mof_C 	C 	0.8663	0.8277	0.3339	0.017
Mof_C 	C 	0.2743	0.5232	0.8454	-0.064
Mof_C 	C 	0.8466	0.109	0.1676	0.393
Mof_C 	C 	0.758	0.1083	0.8994	0.059
Mof_C 	C 	0.8513	0.0226	0.2583	-0.074
Mof_C 	C 	0.3479	0.1022	0.1648	0.365
Mof_C 	C 	0.3479	0.0108	0.2541	-0.06
Mof_C 	C 	0.8954	0.6003	0.8907	-0.04
Mof_C 	C 	0.1469	0.0143	0.947	0.136
Mof_C 	C 	0.4677	0.97	0.277	-0.051
Mof_C 	C 	0.8928	0.6751	0.8016	0.029
Mof_C 	C 	0.5926	0.6018	0.4669	0.398
Mof_C 	C 	0.9071	0.3952	0.9665	0.412
Mof_C 	C 	0.6025	0.5131	0.375	-0.047
Mof_C 	C 	0.8961	0.4761	0.8741	-0.081
Mof_C 	C 	0.4815	0.4667	0.3202	-0.062
Mof_C 	C 	0.8921	0.4352	0.7724	-0.037
Mof_C 	C 	0.4716	0.8929	0.3664	0.039
Mof_C 	C 	0.1526	0.9333	0.864	-0.098
Mof_C 	C 	0.8846	0.5131	0.6913	0.029
Mof_C 	C 	0.7228	0.3983	0.2637	0.062
Mof_C 	C 	0.4917	0.3887	0.2363	0.042
Mof_C 	C 	0.2314	0.9685	0.3157	-0.053
Mof_C 	C 	0.1359	0.0987	0.749	-0.067
Mof_C 	C 	0.1337	0.1723	0.8339	0.038
Mof_C 	C 	0.7257	0.4768	0.3454	-0.077
Mof_C 	C 	0.1534	0.891	0.6676	0.382
Mof_C 	C 	0.242	0.8917	0.3994	0.045
Mof_C 	C 	0.1487	0.9774	0.7583	-0.039
Mof_N 	N 	0.1154	0.3652	0.202	-0.204
Mof_N 	N 	0.3879	0.6454	0.707	-0.205
Mof_N 	N 	0.8607	0.8697	0.435	-0.208
Mof_N 	N 	0.6418	0.1457	0.9251	-0.203
Mof_N 	N 	0.8846	0.6348	0.702	-0.2
Mof_N 	N 	0.6121	0.3546	0.207	-0.209
Mof_N 	N 	0.1393	0.1303	0.935	-0.213
Mof_N 	N 	0.3582	0.8543	0.4251	-0.209
Mof_O 	O 	0.5552	0.8752	0.6055	-0.421
Mof_O 	O 	0.299	0.3709	0.0208	-0.481
Mof_O 	O 	0.9848	0.6456	0.4744	-0.424
Mof_O 	O 	0.5182	0.3647	0.9808	-0.432
Mof_O 	O 	0.1938	0.6257	0.5323	-0.406
Mof_O 	O 	0.734	0.1472	0.1596	-0.424
Mof_O 	O 	0.9475	0.1263	0.1089	-0.439
Mof_O 	O 	0.7677	0.8516	0.6645	-0.401
Mof_O 	O 	0.4448	0.1248	0.1055	-0.439
Mof_O 	O 	0.701	0.6291	0.5208	-0.432
Mof_O 	O 	0.0152	0.3544	0.9744	-0.409
Mof_O 	O 	0.4818	0.6353	0.4808	-0.439
Mof_O 	O 	0.8062	0.3743	0.0323	-0.445
Mof_O 	O 	0.266	0.8528	0.6596	-0.413
Mof_O 	O 	0.0525	0.8737	0.6089	-0.422
Mof_O 	O 	0.2323	0.1484	0.1645	-0.409
_end
