data_functionalizedCrystal
_audit_creation_method	'EQeq! by Chris Wilmer'
_symmetry_space_group_name_H-M	'P1'
_symmetry_Int_Tables_number	1
_symmetry_cell_setting	triclinic
loop_
_symmetry_equiv_pos_as_xyz
  x,y,z
_cell_length_a	12.5451
_cell_length_b	15.8535
_cell_length_c	10.8885
_cell_angle_alpha	90
_cell_angle_beta	90
_cell_angle_gamma	90
loop_
_atom_site_label
_atom_site_type_symbol
_atom_site_fract_x
_atom_site_fract_y
_atom_site_fract_z
_atom_site_charge
Mof_C 	C 	0.3478	0.1082	0.2682	0.388
Mof_C 	C 	0.3038	0.14	0.3891	-0.134
Mof_C 	C 	0.2299	0.2044	0.389	0.045
Mof_H 	H 	0.206	0.2266	0.315	0.037
Mof_O 	O 	0.1073	0.3655	0.3883	-0.316
Mof_O 	O 	0.413	0.0474	0.2705	-0.424
Mof_C 	C 	0.6522	0.8918	0.2682	0.382
Mof_C 	C 	0.6962	0.86	0.3891	-0.096
Mof_C 	C 	0.7701	0.7956	0.389	0.067
Mof_H 	H 	0.794	0.7734	0.315	0.049
Mof_O 	O 	0.8927	0.6345	0.3883	-0.313
Mof_O 	O 	0.587	0.9526	0.2705	-0.33
Mof_C 	C 	0.843	0.747	0.065	0.059
Mof_C 	C 	0.915	0.68	0.049	-0.059
Mof_C 	C 	0.894	0.6204	0.958	0.016
Mof_C 	C 	0.795	0.6198	0.901	0.001
Mof_C 	C 	0.726	0.6886	0.912	0.065
Mof_O 	O 	0.6826	0.8528	0.8242	-0.391
Mof_C 	C 	0.157	0.253	0.065	0.026
Mof_C 	C 	0.085	0.32	0.049	-0.097
Mof_C 	C 	0.106	0.3796	0.958	0.001
Mof_C 	C 	0.205	0.3802	0.901	-0.003
Mof_C 	C 	0.274	0.3114	0.912	0.067
Mof_O 	O 	0.3174	0.1472	0.8242	-0.42
Mof_C 	C 	0.6522	0.8918	0.7318	0.381
Mof_C 	C 	0.6962	0.86	0.6109	-0.095
Mof_C 	C 	0.7701	0.7956	0.611	0.067
Mof_H 	H 	0.794	0.7734	0.685	0.048
Mof_O 	O 	0.8927	0.6345	0.6117	-0.313
Mof_O 	O 	0.587	0.9526	0.7295	-0.326
Mof_C 	C 	0.3478	0.1082	0.7318	0.386
Mof_C 	C 	0.3038	0.14	0.6109	-0.134
Mof_C 	C 	0.2299	0.2044	0.611	0.045
Mof_H 	H 	0.206	0.2266	0.685	0.035
Mof_O 	O 	0.1073	0.3655	0.6117	-0.317
Mof_O 	O 	0.413	0.0474	0.7295	-0.42
Mof_C 	C 	0.157	0.253	0.935	0.026
Mof_C 	C 	0.085	0.32	0.951	0.024
Mof_C 	C 	0.106	0.3796	0.042	0.03
Mof_C 	C 	0.205	0.3802	0.099	-0.013
Mof_C 	C 	0.274	0.3114	0.088	0.043
Mof_O 	O 	0.3174	0.1472	0.1758	-0.431
Mof_C 	C 	0.843	0.747	0.935	0.059
Mof_C 	C 	0.915	0.68	0.951	0.063
Mof_C 	C 	0.894	0.6204	0.042	0.046
Mof_C 	C 	0.795	0.6198	0.099	-0.009
Mof_C 	C 	0.726	0.6886	0.088	0.041
Mof_O 	O 	0.6826	0.8528	0.1758	-0.402
Mof_S 	S 	0.0933	0.3174	0.5	0.385
Mof_C 	C 	0.191	0.2365	0.5	-0.092
Mof_C 	C 	0.3406	0.1066	0.5	0.06
Mof_H 	H 	0.3894	0.0625	0.5	0.02
Mof_O 	O 	0.9917	0.2738	0.5	-0.252
Mof_S 	S 	0.9067	0.6826	0.5	0.619
Mof_C 	C 	0.809	0.7635	0.5	-0.105
Mof_C 	C 	0.6594	0.8934	0.5	0.053
Mof_H 	H 	0.6106	0.9375	0.5	0.073
Mof_O 	O 	0.0083	0.7262	0.5	-0.418
Mof_N 	N 	0.7515	0.7504	-0	-0.225
Mof_Cu	Cu	0.66112	0.85388	-0	0.933
Mof_O 	O 	0.5919	0.9641	-0	-0.446
Mof_N 	N 	0.2485	0.2496	-0	-0.22
Mof_Cu	Cu	0.33888	0.14612	-0	0.923
Mof_O 	O 	0.4081	0.0359	-0	-0.548
Mof_Cu	Cu	0.5	1.45711e-33	0.13916	0.894
Mof_Cu	Cu	0.5	5.82845e-33	0.86084	0.902
Mof_C 	C 	0.657	0.247	0.435	0.034
Mof_C 	C 	0.585	0.18	0.451	-0.007
Mof_C 	C 	0.606	0.1204	0.542	0.006
Mof_C 	C 	0.705	0.1198	0.599	-0.025
Mof_C 	C 	0.774	0.1886	0.588	0.054
Mof_O 	O 	0.8174	0.3528	0.6758	-0.406
Mof_C 	C 	0.343	0.753	0.435	0.038
Mof_C 	C 	0.415	0.82	0.451	-0.021
Mof_C 	C 	0.394	0.8796	0.542	0.036
Mof_C 	C 	0.295	0.8802	0.599	0.02
Mof_C 	C 	0.226	0.8114	0.588	0.041
Mof_O 	O 	0.1826	0.6472	0.6758	-0.421
Mof_C 	C 	0.1522	0.6082	0.2318	0.385
Mof_C 	C 	0.1962	0.64	0.1109	-0.124
Mof_C 	C 	0.2701	0.7044	0.111	0.059
Mof_H 	H 	0.294	0.7266	0.185	0.04
Mof_O 	O 	0.3927	0.8655	0.1117	-0.29
Mof_O 	O 	0.087	0.5474	0.2295	-0.412
Mof_C 	C 	0.8478	0.3918	0.2318	0.379
Mof_C 	C 	0.8038	0.36	0.1109	-0.095
Mof_C 	C 	0.7299	0.2956	0.111	0.051
Mof_H 	H 	0.706	0.2734	0.185	0.044
Mof_O 	O 	0.6073	0.1345	0.1117	-0.332
Mof_O 	O 	0.913	0.4526	0.2295	-0.343
Mof_C 	C 	0.343	0.753	0.565	0.04
Mof_C 	C 	0.415	0.82	0.549	-0.022
Mof_C 	C 	0.394	0.8796	0.458	0.034
Mof_C 	C 	0.295	0.8802	0.401	0.018
Mof_C 	C 	0.226	0.8114	0.412	0.04
Mof_O 	O 	0.1826	0.6472	0.3242	-0.422
Mof_C 	C 	0.657	0.247	0.565	0.036
Mof_C 	C 	0.585	0.18	0.549	-0.008
Mof_C 	C 	0.606	0.1204	0.458	0.005
Mof_C 	C 	0.705	0.1198	0.401	-0.026
Mof_C 	C 	0.774	0.1886	0.412	0.052
Mof_O 	O 	0.8174	0.3528	0.3242	-0.407
Mof_C 	C 	0.8478	0.3918	0.7682	0.377
Mof_C 	C 	0.8038	0.36	0.8891	-0.078
Mof_C 	C 	0.7299	0.2956	0.889	0.075
Mof_H 	H 	0.706	0.2734	0.815	0.039
Mof_O 	O 	0.6073	0.1345	0.8883	-0.313
Mof_O 	O 	0.913	0.4526	0.7705	-0.338
Mof_C 	C 	0.1522	0.6082	0.7682	0.382
Mof_C 	C 	0.1962	0.64	0.8891	-0.107
Mof_C 	C 	0.2701	0.7044	0.889	0.083
Mof_H 	H 	0.294	0.7266	0.815	0.036
Mof_O 	O 	0.3927	0.8655	0.8883	-0.271
Mof_O 	O 	0.087	0.5474	0.7705	-0.407
Mof_N 	N 	0.7485	0.2504	0.5	-0.207
Mof_Cu	Cu	0.83888	0.35388	0.5	0.937
Mof_O 	O 	0.9081	0.4641	0.5	-0.456
Mof_N 	N 	0.2515	0.7496	0.5	-0.206
Mof_Cu	Cu	0.16112	0.64612	0.5	0.931
Mof_O 	O 	0.0919	0.5359	0.5	-0.518
Mof_S 	S 	0.4067	0.8174	-0	0.473
Mof_C 	C 	0.309	0.7365	-0	-0.122
Mof_C 	C 	0.1594	0.6066	-0	0.027
Mof_H 	H 	0.1106	0.5625	-0	0.031
Mof_O 	O 	0.5083	0.7738	-0	-0.338
Mof_S 	S 	0.5933	0.1826	-0	0.481
Mof_C 	C 	0.691	0.2635	-0	-0.117
Mof_C 	C 	0.8406	0.3934	-0	0.018
Mof_H 	H 	0.8894	0.4375	-0	0.069
Mof_O 	O 	0.4917	0.2262	-0	-0.34
Mof_Cu	Cu	-7.5684e-33	0.5	0.36084	0.899
Mof_Cu	Cu	-9.57689e-33	0.5	0.63916	0.899
_end
