data_functionalizedCrystal
_audit_creation_method	'EQeq! by Chris Wilmer'
_symmetry_space_group_name_H-M	'P1'
_symmetry_Int_Tables_number	1
_symmetry_cell_setting	triclinic
loop_
_symmetry_equiv_pos_as_xyz
  x,y,z
_cell_length_a	8.926
_cell_length_b	12.767
_cell_length_c	9.196
_cell_angle_alpha	90
_cell_angle_beta	90
_cell_angle_gamma	90
loop_
_atom_site_label
_atom_site_type_symbol
_atom_site_fract_x
_atom_site_fract_y
_atom_site_fract_z
_atom_site_charge
Mof_O 	O 	0.48275	0.6633	0.41954	-0.39
Mof_O 	O 	0.2985	0.45825	0.37482	-0.385
Mof_O 	O 	0.13485	0.45849	0.19299	-0.393
Mof_C 	C 	0.25485	0.48251	0.25112	0.497
Mof_H 	H 	0.3198	0.5234	0.196	-0.122
Mof_O 	O 	0.01725	0.3367	0.91954	-0.405
Mof_O 	O 	0.2015	0.54175	0.87482	-0.317
Mof_O 	O 	0.36515	0.54151	0.69299	-0.362
Mof_C 	C 	0.24515	0.51749	0.75112	0.481
Mof_H 	H 	0.1802	0.4766	0.696	-0.109
Mof_O 	O 	0.51725	0.1633	0.58046	-0.38
Mof_O 	O 	0.7015	0.95825	0.62518	-0.333
Mof_O 	O 	0.86515	0.95849	0.80701	-0.251
Mof_C 	C 	0.74515	0.98251	0.74888	0.589
Mof_H 	H 	0.6802	0.0234	0.804	-0.147
Mof_O 	O 	0.98275	0.8367	0.08046	-0.219
Mof_O 	O 	0.7985	0.04175	0.12518	-0.286
Mof_O 	O 	0.63485	0.04151	0.30701	-0.332
Mof_C 	C 	0.75485	0.01749	0.24888	0.31
Mof_H 	H 	0.8198	0.9766	0.304	0.035
Mof_O 	O 	0.51725	0.3367	0.58046	-0.378
Mof_O 	O 	0.7015	0.54175	0.62518	-0.338
Mof_O 	O 	0.86515	0.54151	0.80701	-0.256
Mof_C 	C 	0.74515	0.51749	0.74888	0.461
Mof_H 	H 	0.6802	0.4766	0.804	-0.061
Mof_O 	O 	0.98275	0.6633	0.08046	-0.247
Mof_O 	O 	0.7985	0.45825	0.12518	-0.32
Mof_O 	O 	0.63485	0.45849	0.30701	-0.364
Mof_C 	C 	0.75485	0.48251	0.24888	0.477
Mof_H 	H 	0.8198	0.5234	0.304	-0.073
Mof_O 	O 	0.48275	0.8367	0.41954	-0.36
Mof_O 	O 	0.2985	0.04175	0.37482	-0.35
Mof_O 	O 	0.13485	0.04151	0.19299	-0.36
Mof_C 	C 	0.25485	0.01749	0.25112	0.326
Mof_H 	H 	0.3198	0.9766	0.196	-0.012
Mof_O 	O 	0.01725	0.1633	0.91954	-0.407
Mof_O 	O 	0.2015	0.95825	0.87482	-0.314
Mof_O 	O 	0.36515	0.95849	0.69299	-0.355
Mof_C 	C 	0.24515	0.98251	0.75112	0.611
Mof_H 	H 	0.1802	0.0234	0.696	-0.195
Mof_Mn	Mn	0.5	0.5	0.5	1.048
Mof_Mn	Mn	6.02207e-33	0.5	-0	0.749
Mof_Mn	Mn	0.5	0	0.5	0.95
Mof_Mn	Mn	-0	0	-0	0.654
Mof_C 	C 	0.4883	0.75	0.4754	0.525
Mof_H 	H 	0.4983	0.75	0.5761	-0.107
Mof_C 	C 	0.0117	0.25	0.9754	0.724
Mof_H 	H 	0.0017	0.25	0.0761	-0.256
Mof_C 	C 	0.5117	0.25	0.5246	0.543
Mof_H 	H 	0.5017	0.25	0.4239	-0.123
Mof_C 	C 	0.9883	0.75	0.0246	0.255
Mof_H 	H 	0.9983	0.75	0.9239	0.072
_end
