data_functionalizedCrystal
_audit_creation_method	'EQeq! by Chris Wilmer'
_symmetry_space_group_name_H-M	'P1'
_symmetry_Int_Tables_number	1
_symmetry_cell_setting	triclinic
loop_
_symmetry_equiv_pos_as_xyz
  x,y,z
_cell_length_a	19.703
_cell_length_b	9.5197
_cell_length_c	20.127
_cell_angle_alpha	90
_cell_angle_beta	106.26
_cell_angle_gamma	90
loop_
_atom_site_label
_atom_site_type_symbol
_atom_site_fract_x
_atom_site_fract_y
_atom_site_fract_z
_atom_site_charge
Mof_U 	U 	0.10488	0.63492	0.11128	0.004
Mof_O 	O 	0.0932	0.62	0.2192	-0.158
Mof_C 	C 	0.1179	0.5382	0.2761	0.211
Mof_C 	C 	0.1802	0.4646	0.2902	-0.147
Mof_H 	H 	0.2063	0.4658	0.2583	0.129
Mof_C 	C 	0.2054	0.3877	0.3516	0.021
Mof_C 	C 	0.1653	0.3833	0.3984	-0.043
Mof_H 	H 	0.1809	0.3312	0.4389	0.069
Mof_C 	C 	0.1014	0.4573	0.3845	-0.017
Mof_C 	C 	0.0777	0.5304	0.3239	-0.127
Mof_H 	H 	0.0342	0.5758	0.314	0.124
Mof_C 	C 	0.2699	0.301	0.3634	0.261
Mof_C 	C 	0.0565	0.4477	0.4336	0.365
Mof_O 	O 	0.2968	0.2705	0.3152	-0.179
Mof_O 	O 	0.3001	0.2578	0.4242	-0.206
Mof_O 	O 	0.082	0.3914	0.4912	-0.404
Mof_H 	H 	0.123	0.354	0.5	0.27
Mof_O 	O 	0.9955	0.4945	0.4149	-0.191
Mof_U 	U 	0.60488	0.13492	0.11128	0.004
Mof_O 	O 	0.5932	0.12	0.2192	-0.158
Mof_C 	C 	0.6179	0.0382	0.2761	0.211
Mof_C 	C 	0.6802	0.9646	0.2902	-0.144
Mof_H 	H 	0.7063	0.9658	0.2583	0.13
Mof_C 	C 	0.7054	0.8877	0.3516	0.021
Mof_C 	C 	0.6653	0.8833	0.3984	-0.044
Mof_H 	H 	0.6809	0.8312	0.4389	0.069
Mof_C 	C 	0.6014	0.9573	0.3845	-0.014
Mof_C 	C 	0.5777	0.0304	0.3239	-0.129
Mof_H 	H 	0.5342	0.0758	0.314	0.124
Mof_C 	C 	0.7699	0.801	0.3634	0.261
Mof_C 	C 	0.5565	0.9477	0.4336	0.361
Mof_O 	O 	0.7968	0.7705	0.3152	-0.179
Mof_O 	O 	0.8001	0.7578	0.4242	-0.206
Mof_O 	O 	0.582	0.8914	0.4912	-0.402
Mof_H 	H 	0.623	0.854	0.5	0.27
Mof_O 	O 	0.4955	0.9945	0.4149	-0.188
Mof_U 	U 	0.89512	0.63492	0.38872	0.013
Mof_O 	O 	0.9068	0.62	0.2808	-0.157
Mof_C 	C 	0.8821	0.5382	0.2239	0.21
Mof_C 	C 	0.8198	0.4646	0.2098	-0.144
Mof_H 	H 	0.7937	0.4658	0.2417	0.13
Mof_C 	C 	0.7946	0.3877	0.1484	0.016
Mof_C 	C 	0.8347	0.3833	0.1016	-0.041
Mof_H 	H 	0.8191	0.3312	0.0611	0.062
Mof_C 	C 	0.8986	0.4573	0.1155	-0.022
Mof_C 	C 	0.9223	0.5304	0.1761	-0.126
Mof_H 	H 	0.9658	0.5758	0.186	0.122
Mof_C 	C 	0.7301	0.301	0.1366	0.262
Mof_C 	C 	0.9435	0.4477	0.0664	0.359
Mof_O 	O 	0.7032	0.2705	0.1848	-0.18
Mof_O 	O 	0.6999	0.2578	0.0758	-0.214
Mof_O 	O 	0.918	0.3914	0.0088	-0.416
Mof_H 	H 	0.877	0.354	-0	0.262
Mof_O 	O 	0.0045	0.4945	0.0851	-0.196
Mof_U 	U 	0.39512	0.13492	0.38872	0.012
Mof_O 	O 	0.4068	0.12	0.2808	-0.157
Mof_C 	C 	0.3821	0.0382	0.2239	0.209
Mof_C 	C 	0.3198	0.9646	0.2098	-0.142
Mof_H 	H 	0.2937	0.9658	0.2417	0.13
Mof_C 	C 	0.2946	0.8877	0.1484	0.016
Mof_C 	C 	0.3347	0.8833	0.1016	-0.041
Mof_H 	H 	0.3191	0.8312	0.0611	0.062
Mof_C 	C 	0.3986	0.9573	0.1155	-0.02
Mof_C 	C 	0.4223	0.0304	0.1761	-0.128
Mof_H 	H 	0.4658	0.0758	0.186	0.123
Mof_C 	C 	0.2301	0.801	0.1366	0.262
Mof_C 	C 	0.4435	0.9477	0.0664	0.362
Mof_O 	O 	0.2032	0.7705	0.1848	-0.179
Mof_O 	O 	0.1999	0.7578	0.0758	-0.213
Mof_O 	O 	0.418	0.8914	0.0088	-0.416
Mof_H 	H 	0.377	0.854	-0	0.263
Mof_O 	O 	0.5045	0.9945	0.0851	-0.197
Mof_U 	U 	0.89512	0.36508	0.88872	0.022
Mof_O 	O 	0.9068	0.38	0.7808	-0.156
Mof_C 	C 	0.8821	0.4618	0.7239	0.214
Mof_C 	C 	0.8198	0.5354	0.7098	-0.147
Mof_H 	H 	0.7937	0.5342	0.7417	0.133
Mof_C 	C 	0.7946	0.6123	0.6484	0.023
Mof_C 	C 	0.8347	0.6167	0.6016	-0.045
Mof_H 	H 	0.8191	0.6688	0.5611	0.07
Mof_C 	C 	0.8986	0.5427	0.6155	-0.015
Mof_C 	C 	0.9223	0.4696	0.6761	-0.128
Mof_H 	H 	0.9658	0.4242	0.686	0.124
Mof_C 	C 	0.7301	0.699	0.6366	0.261
Mof_C 	C 	0.9435	0.5523	0.5664	0.359
Mof_O 	O 	0.7032	0.7295	0.6848	-0.176
Mof_O 	O 	0.6999	0.7422	0.5758	-0.205
Mof_O 	O 	0.918	0.6086	0.5088	-0.402
Mof_H 	H 	0.877	0.646	0.5	0.27
Mof_O 	O 	0.0045	0.5055	0.5851	-0.186
Mof_U 	U 	0.39512	0.86508	0.88872	0.022
Mof_O 	O 	0.4068	0.88	0.7808	-0.156
Mof_C 	C 	0.3821	0.9618	0.7239	0.214
Mof_C 	C 	0.3198	0.0354	0.7098	-0.148
Mof_H 	H 	0.2937	0.0342	0.7417	0.133
Mof_C 	C 	0.2946	0.1123	0.6484	0.023
Mof_C 	C 	0.3347	0.1167	0.6016	-0.044
Mof_H 	H 	0.3191	0.1688	0.5611	0.069
Mof_C 	C 	0.3986	0.0427	0.6155	-0.017
Mof_C 	C 	0.4223	0.9696	0.6761	-0.126
Mof_H 	H 	0.4658	0.9242	0.686	0.124
Mof_C 	C 	0.2301	0.199	0.6366	0.261
Mof_C 	C 	0.4435	0.0523	0.5664	0.362
Mof_O 	O 	0.2032	0.2295	0.6848	-0.176
Mof_O 	O 	0.1999	0.2422	0.5758	-0.205
Mof_O 	O 	0.418	0.1086	0.5088	-0.404
Mof_H 	H 	0.377	0.146	0.5	0.27
Mof_O 	O 	0.5045	0.0055	0.5851	-0.189
Mof_U 	U 	0.10488	0.36508	0.61128	0.013
Mof_O 	O 	0.0932	0.38	0.7192	-0.158
Mof_C 	C 	0.1179	0.4618	0.7761	0.222
Mof_C 	C 	0.1802	0.5354	0.7902	-0.154
Mof_H 	H 	0.2063	0.5342	0.7583	0.135
Mof_C 	C 	0.2054	0.6123	0.8516	0.035
Mof_C 	C 	0.1653	0.6167	0.8984	-0.057
Mof_H 	H 	0.1809	0.6688	0.9389	0.086
Mof_C 	C 	0.1014	0.5427	0.8845	0.006
Mof_C 	C 	0.0777	0.4696	0.8239	-0.139
Mof_H 	H 	0.0342	0.4242	0.814	0.13
Mof_C 	C 	0.2699	0.699	0.8634	0.256
Mof_C 	C 	0.0565	0.5523	0.9336	0.341
Mof_O 	O 	0.2968	0.7295	0.8152	-0.174
Mof_O 	O 	0.3001	0.7422	0.9242	-0.19
Mof_O 	O 	0.082	0.6086	0.9912	-0.34
Mof_H 	H 	0.123	0.646	-0	0.222
Mof_O 	O 	0.9955	0.5055	0.9149	-0.176
Mof_U 	U 	0.60488	0.86508	0.61128	0.014
Mof_O 	O 	0.5932	0.88	0.7192	-0.158
Mof_C 	C 	0.6179	0.9618	0.7761	0.223
Mof_C 	C 	0.6802	0.0354	0.7902	-0.156
Mof_H 	H 	0.7063	0.0342	0.7583	0.135
Mof_C 	C 	0.7054	0.1123	0.8516	0.035
Mof_C 	C 	0.6653	0.1167	0.8984	-0.057
Mof_H 	H 	0.6809	0.1688	0.9389	0.086
Mof_C 	C 	0.6014	0.0427	0.8845	0.006
Mof_C 	C 	0.5777	0.9696	0.8239	-0.138
Mof_H 	H 	0.5342	0.9242	0.814	0.13
Mof_C 	C 	0.7699	0.199	0.8634	0.256
Mof_C 	C 	0.5565	0.0523	0.9336	0.338
Mof_O 	O 	0.7968	0.2295	0.8152	-0.174
Mof_O 	O 	0.8001	0.2422	0.9242	-0.19
Mof_O 	O 	0.582	0.1086	0.9912	-0.338
Mof_H 	H 	0.623	0.146	-0	0.22
Mof_O 	O 	0.4955	0.0055	0.9149	-0.174
_end
