data_functionalizedCrystal
_audit_creation_method	'EQeq! by Chris Wilmer'
_symmetry_space_group_name_H-M	'P1'
_symmetry_Int_Tables_number	1
_symmetry_cell_setting	triclinic
loop_
_symmetry_equiv_pos_as_xyz
  x,y,z
_cell_length_a	12.29
_cell_length_b	13.7
_cell_length_c	13.798
_cell_angle_alpha	108.736
_cell_angle_beta	92.793
_cell_angle_gamma	114.369
loop_
_atom_site_label
_atom_site_type_symbol
_atom_site_fract_x
_atom_site_fract_y
_atom_site_fract_z
_atom_site_charge
Mof_Ag	Ag	0.01746	0.51784	0.77869	0.443
Mof_N 	N 	0.2118	0.3392	0.4792	-0.13
Mof_C 	C 	0.217	0.771	0.836	-0.024
Mof_H 	H 	0.2463	0.7525	0.7754	0.012
Mof_Ag	Ag	0.08116	0.41329	0.50536	0.429
Mof_N 	N 	0.1215	0.6957	0.8659	-0.209
Mof_N 	N 	0.9207	0.3378	0.7006	-0.218
Mof_Ag	Ag	0.43042	0.59916	0.56476	0.49
Mof_N 	N 	0.1682	0.234	0.4012	-0.138
Mof_N 	N 	0.1765	0.6057	0.5398	-0.138
Mof_N 	N 	0.3293	0.3974	0.4905	-0.13
Mof_C 	C 	0.5414	0.0136	0.3303	0.056
Mof_H 	H 	0.5993	0.0037	0.2927	-0.012
Mof_N 	N 	0.8805	0.3313	0.4578	-0.139
Mof_N 	N 	0.7985	0.2202	0.4344	-0.156
Mof_N 	N 	0.7741	0.1602	0.6525	-0.155
Mof_C 	C 	0.3714	0.0398	0.446	-0.172
Mof_H 	H 	0.3148	0.0473	0.4864	0.079
Mof_N 	N 	0.2057	0.8644	0.9936	-0.161
Mof_C 	C 	0.1448	0.035	0.2287	0.071
Mof_H 	H 	0.0796	0.0296	0.2617	-0.008
Mof_N 	N 	0.3669	0.3308	0.4182	-0.176
Mof_C 	C 	0.1253	0.7526	0.9618	0.103
Mof_H 	H 	0.0778	0.7198	0.0039	-0.036
Mof_C 	C 	0.9707	0.2633	0.6704	-0.003
Mof_H 	H 	0.0526	0.284	0.6691	-0.014
Mof_C 	C 	0.804	0.272	0.6889	0.112
Mof_H 	H 	0.7478	0.3007	0.7047	-0.037
Mof_C 	C 	0.1295	0.9456	0.1376	-0.198
Mof_H 	H 	0.0542	0.8805	0.1085	0.088
Mof_C 	C 	0.6884	0.2196	0.4253	0.127
Mof_C 	C 	0.26	0.8777	0.9124	0.004
Mof_H 	H 	0.3162	0.947	0.9096	0.013
Mof_C 	C 	0.882	0.1556	0.643	-0.027
Mof_H 	H 	0.8921	0.0888	0.6211	0.037
Mof_C 	C 	0.4831	0.1326	0.4641	0.059
Mof_H 	H 	0.5012	0.2039	0.5152	-0.015
Mof_N 	N 	0.2973	0.6735	0.5599	-0.172
Mof_C 	C 	0.4266	0.9214	0.3106	-0.179
Mof_H 	H 	0.4066	0.8501	0.2585	0.082
Mof_C 	C 	0.5692	0.12	0.4062	-0.107
Mof_C 	C 	0.2261	0.9548	0.0914	0.167
Mof_C 	C 	0.337	0.0478	0.1333	-0.204
Mof_H 	H 	0.4021	0.0504	0.1008	0.094
Mof_C 	C 	0.2587	0.1342	0.2719	-0.115
Mof_C 	C 	0.3548	0.1384	0.2231	0.082
Mof_H 	H 	0.4312	0.2023	0.2507	-0.033
Mof_C 	C 	0.2693	0.2343	0.3634	0.131
Mof_C 	C 	0.6561	0.0643	0.6324	0.153
Mof_Ag	Ag	0.0573	0.8753	0.5945	0.258
Mof_O 	O 	0.015	0.041	0.469	-0.214
Mof_Ag	Ag	0.8811	0.1025	0.4245	0.232
Mof_Ag	Ag	0.98254	0.48216	0.22131	0.442
Mof_N 	N 	0.7882	0.6608	0.5208	-0.131
Mof_C 	C 	0.783	0.229	0.164	-0.025
Mof_H 	H 	0.7537	0.2475	0.2246	0.011
Mof_Ag	Ag	0.91884	0.58671	0.49464	0.429
Mof_N 	N 	0.8785	0.3043	0.1341	-0.209
Mof_N 	N 	0.0793	0.6622	0.2994	-0.218
Mof_Ag	Ag	0.56958	0.40084	0.43524	0.49
Mof_N 	N 	0.8318	0.766	0.5988	-0.138
Mof_N 	N 	0.8235	0.3943	0.4602	-0.138
Mof_N 	N 	0.6707	0.6026	0.5095	-0.13
Mof_C 	C 	0.4586	0.9864	0.6697	0.056
Mof_H 	H 	0.4007	0.9963	0.7073	-0.012
Mof_N 	N 	0.1195	0.6687	0.5422	-0.139
Mof_N 	N 	0.2015	0.7798	0.5656	-0.156
Mof_N 	N 	0.2259	0.8398	0.3475	-0.155
Mof_C 	C 	0.6286	0.9602	0.554	-0.172
Mof_H 	H 	0.6852	0.9527	0.5136	0.079
Mof_N 	N 	0.7943	0.1356	0.0064	-0.161
Mof_C 	C 	0.8552	0.965	0.7713	0.071
Mof_H 	H 	0.9204	0.9704	0.7383	-0.008
Mof_N 	N 	0.6331	0.6692	0.5818	-0.176
Mof_C 	C 	0.8747	0.2474	0.0382	0.103
Mof_H 	H 	0.9222	0.2802	0.9961	-0.036
Mof_C 	C 	0.0293	0.7367	0.3296	-0.003
Mof_H 	H 	0.9474	0.716	0.3309	-0.014
Mof_C 	C 	0.196	0.728	0.3111	0.112
Mof_H 	H 	0.2522	0.6993	0.2953	-0.037
Mof_C 	C 	0.8705	0.0544	0.8624	-0.198
Mof_H 	H 	0.9458	0.1195	0.8915	0.088
Mof_C 	C 	0.3116	0.7804	0.5747	0.127
Mof_C 	C 	0.74	0.1223	0.0876	0.004
Mof_H 	H 	0.6838	0.053	0.0904	0.013
Mof_C 	C 	0.118	0.8444	0.357	-0.027
Mof_H 	H 	0.1079	0.9112	0.3789	0.037
Mof_C 	C 	0.5169	0.8674	0.5359	0.059
Mof_H 	H 	0.4988	0.7961	0.4848	-0.015
Mof_N 	N 	0.7027	0.3265	0.4401	-0.172
Mof_C 	C 	0.5734	0.0786	0.6894	-0.179
Mof_H 	H 	0.5934	0.1499	0.7415	0.082
Mof_C 	C 	0.4308	0.88	0.5938	-0.107
Mof_C 	C 	0.7739	0.0452	0.9086	0.167
Mof_C 	C 	0.663	0.9522	0.8667	-0.204
Mof_H 	H 	0.5979	0.9496	0.8992	0.094
Mof_C 	C 	0.7413	0.8658	0.7281	-0.115
Mof_C 	C 	0.6452	0.8616	0.7769	0.082
Mof_H 	H 	0.5688	0.7977	0.7493	-0.033
Mof_C 	C 	0.7307	0.7657	0.6366	0.131
Mof_C 	C 	0.3439	0.9357	0.3676	0.153
Mof_Ag	Ag	0.9427	0.1247	0.4055	0.258
Mof_O 	O 	0.985	0.959	0.531	-0.214
Mof_Ag	Ag	0.1189	0.8975	0.5755	0.232
_end
