data_functionalizedCrystal
_audit_creation_method	'EQeq! by Chris Wilmer'
_symmetry_space_group_name_H-M	'P1'
_symmetry_Int_Tables_number	1
_symmetry_cell_setting	triclinic
loop_
_symmetry_equiv_pos_as_xyz
  x,y,z
_cell_length_a	8.3898
_cell_length_b	10.6559
_cell_length_c	14.3877
_cell_angle_alpha	101.964
_cell_angle_beta	102.864
_cell_angle_gamma	102.681
loop_
_atom_site_label
_atom_site_type_symbol
_atom_site_fract_x
_atom_site_fract_y
_atom_site_fract_z
_atom_site_charge
Mof_Sm	Sm	0.3425	0.33938	0.32908	2.255
Mof_O 	O 	0.33948	0.555	0.40484	-0.602
Mof_O 	O 	0.53618	0.71927	0.52487	-0.58
Mof_O 	O 	0.2713	0.99305	0.10739	-0.25
Mof_O 	O 	0.42426	0.16695	0.23588	-0.505
Mof_O 	O 	0.08809	0.35191	0.20852	-0.42
Mof_O 	O 	0.33346	0.42642	0.17883	-0.441
Mof_O 	O 	0.12455	0.13114	0.3041	-0.418
Mof_O 	O 	0.10955	0.30249	0.41526	-0.407
Mof_C 	C 	0.4112	0.76999	0.37746	-0.161
Mof_C 	C 	0.2823	0.73057	0.28861	0.04
Mof_H 	H 	0.2064	0.6457	0.269	0.018
Mof_C 	C 	0.2662	0.81707	0.22894	-0.06
Mof_H 	H 	0.1839	0.788	0.168	0.072
Mof_C 	C 	0.3737	0.94798	0.26042	-0.055
Mof_C 	C 	0.5008	0.98815	0.34971	-0.04
Mof_H 	H 	0.5722	0.0749	0.3714	0.043
Mof_C 	C 	0.5216	0.89899	0.40694	0.024
Mof_H 	H 	0.6098	0.9256	0.4653	0.03
Mof_C 	C 	0.4316	0.67448	0.44056	0.494
Mof_C 	C 	0.3517	0.04135	0.19519	0.37
Mof_C 	C 	0.0839	0.45597	0.07663	-0.048
Mof_C 	C 	0.9094	0.4415	0.0574	-0.027
Mof_H 	H 	0.8489	0.4023	0.0958	0.059
Mof_C 	C 	0.1742	0.5149	0.0187	-0.026
Mof_H 	H 	0.2905	0.5248	0.0312	0.058
Mof_C 	C 	0.1734	0.4081	0.15877	0.304
Mof_C 	C 	0.036	0.08549	0.4418	-0.044
Mof_C 	C 	0.0687	0.9611	0.42287	-0.031
Mof_H 	H 	0.1144	0.9352	0.3711	0.057
Mof_C 	C 	0.967	0.124	0.5186	-0.033
Mof_H 	H 	0.9448	0.2067	0.5309	0.048
Mof_C 	C 	0.0886	0.17848	0.3826	0.275
Mof_Sm	Sm	0.6575	0.66062	0.67092	2.256
Mof_O 	O 	0.66052	0.445	0.59516	-0.601
Mof_O 	O 	0.46382	0.28073	0.47513	-0.58
Mof_O 	O 	0.7287	0.00695	0.89261	-0.25
Mof_O 	O 	0.57574	0.83305	0.76412	-0.505
Mof_O 	O 	0.91191	0.64809	0.79148	-0.42
Mof_O 	O 	0.66654	0.57358	0.82117	-0.441
Mof_O 	O 	0.87545	0.86886	0.6959	-0.418
Mof_O 	O 	0.89045	0.69751	0.58474	-0.407
Mof_C 	C 	0.5888	0.23001	0.62254	-0.161
Mof_C 	C 	0.7177	0.26943	0.71139	0.04
Mof_H 	H 	0.7936	0.3543	0.731	0.018
Mof_C 	C 	0.7338	0.18293	0.77106	-0.06
Mof_H 	H 	0.8161	0.212	0.832	0.072
Mof_C 	C 	0.6263	0.05202	0.73958	-0.055
Mof_C 	C 	0.4992	0.01185	0.65029	-0.04
Mof_H 	H 	0.4278	0.9251	0.6286	0.043
Mof_C 	C 	0.4784	0.10101	0.59306	0.024
Mof_H 	H 	0.3902	0.0744	0.5347	0.03
Mof_C 	C 	0.5684	0.32552	0.55944	0.494
Mof_C 	C 	0.6483	0.95865	0.80481	0.37
Mof_C 	C 	0.9161	0.54403	0.92337	-0.048
Mof_C 	C 	0.0906	0.5585	0.9426	-0.027
Mof_H 	H 	0.1511	0.5977	0.9042	0.059
Mof_C 	C 	0.8258	0.4851	0.9813	-0.026
Mof_H 	H 	0.7095	0.4752	0.9688	0.058
Mof_C 	C 	0.8266	0.5919	0.84123	0.304
Mof_C 	C 	0.964	0.91451	0.5582	-0.044
Mof_C 	C 	0.9313	0.0389	0.57713	-0.031
Mof_H 	H 	0.8856	0.0648	0.6289	0.057
Mof_C 	C 	0.033	0.876	0.4814	-0.033
Mof_H 	H 	0.0552	0.7933	0.4691	0.048
Mof_C 	C 	0.9114	0.82152	0.6174	0.275
_end
