data_functionalizedCrystal
_audit_creation_method	'EQeq! by Chris Wilmer'
_symmetry_space_group_name_H-M	'P1'
_symmetry_Int_Tables_number	1
_symmetry_cell_setting	triclinic
loop_
_symmetry_equiv_pos_as_xyz
  x,y,z
_cell_length_a	24.58
_cell_length_b	10.4454
_cell_length_c	22.4777
_cell_angle_alpha	90
_cell_angle_beta	98.322
_cell_angle_gamma	90
loop_
_atom_site_label
_atom_site_type_symbol
_atom_site_fract_x
_atom_site_fract_y
_atom_site_fract_z
_atom_site_charge
Mof_W 	W 	0.36112	0.6869	0.17895	1.007
Mof_W 	W 	0.5448	0.66486	0.10821	1.363
Mof_W 	W 	0.45818	0.43756	0.1431	1.219
Mof_W 	W 	0.44853	0.91431	0.14627	1.261
Mof_Co	Co	0.4104	0.44076	0.29176	1.157
Mof_Co	Co	0.40607	0.91184	0.28033	1.15
Mof_O 	O 	0.3817	0.8206	0.1262	-0.442
Mof_O 	O 	0.3468	0.8184	0.2338	-0.484
Mof_O 	O 	0.5876	0.7824	0.1574	-0.49
Mof_O 	O 	0.4164	0.0039	0.2068	-0.826
Mof_O 	O 	0.3699	0.5704	0.2453	-0.508
Mof_O 	O 	0.5955	0.5339	0.1355	-0.458
Mof_O 	O 	0.4734	0.3512	0.3351	-0.825
Mof_O 	O 	0.4846	0.7826	0.1084	-0.496
Mof_O 	O 	0.518	0.5893	0.1961	-0.798
Mof_O 	O 	0.4377	0.3912	0.2182	-0.86
Mof_O 	O 	0.4921	0.5322	0.0834	-0.454
Mof_O 	O 	0.5186	0.9613	0.1854	-0.823
Mof_O 	O 	0.4481	0.769	0.2224	-0.822
Mof_O 	O 	0.405	0.5709	0.1403	-0.472
Mof_O 	O 	0.4383	0.028	0.0893	-0.564
Mof_O 	O 	0.5632	0.7041	0.039	-0.517
Mof_O 	O 	0.4226	0.3261	0.0965	-0.534
Mof_Cu	Cu	0.43555	0.17184	0.02987	0.91
Mof_N 	N 	0.3578	0.1398	0.0036	-0.209
Mof_C 	C 	0.3255	0.0615	0.0333	0.084
Mof_H 	H 	0.3362	0.0223	0.0703	-0.001
Mof_N 	N 	0.2748	0.0513	0.9985	-0.142
Mof_C 	C 	0.2756	0.1234	0.9474	0.003
Mof_H 	H 	0.2467	0.1333	0.9162	0.01
Mof_C 	C 	0.3269	0.1781	0.9505	-0.012
Mof_H 	H 	0.3387	0.2315	0.9218	0.032
Mof_C 	C 	0.2311	0.9771	0.0136	0.093
Mof_C 	C 	0.1779	0.0098	0.9889	-0.096
Mof_H 	H 	0.1713	0.0816	0.9645	0.07
Mof_C 	C 	0.2399	0.8722	0.0521	-0.096
Mof_H 	H 	0.2755	0.8525	0.0698	0.059
Mof_N 	N 	0.0159	0.6759	0.0426	-0.289
Mof_C 	C 	0.0467	0.7801	0.0346	0.099
Mof_H 	H 	0.0334	0.8608	0.0226	-0.028
Mof_N 	N 	0.1003	0.7461	0.047	-0.142
Mof_C 	C 	0.1025	0.621	0.0628	-0.031
Mof_H 	H 	0.1344	0.5732	0.0736	0.014
Mof_C 	C 	0.0504	0.5776	0.06	-0.011
Mof_H 	H 	0.04	0.4947	0.0686	-0.05
Mof_C 	C 	0.1447	0.8281	0.0382	0.072
Mof_C 	C 	0.1355	0.9342	0.0011	-0.053
Mof_H 	H 	0.0998	0.9544	0.9842	0.073
Mof_C 	C 	0.1979	0.799	0.064	-0.062
Mof_H 	H 	0.2045	0.7289	0.0895	0.027
Mof_W 	W 	0.5896	0.44076	0.20824	0.918
Mof_W 	W 	0.59393	0.91184	0.21967	0.883
Mof_W 	W 	0.86112	0.1869	0.17895	1.003
Mof_W 	W 	0.0448	0.16486	0.10821	1.158
Mof_W 	W 	0.95818	0.93756	0.1431	1.363
Mof_W 	W 	0.94853	0.41431	0.14627	1.376
Mof_Co	Co	0.9104	0.94076	0.29176	1.163
Mof_Co	Co	0.90607	0.41184	0.28033	1.159
Mof_O 	O 	0.8817	0.3206	0.1262	-0.458
Mof_O 	O 	0.8468	0.3184	0.2338	-0.486
Mof_O 	O 	0.0876	0.2824	0.1574	-0.472
Mof_O 	O 	0.9164	0.5039	0.2068	-0.753
Mof_O 	O 	0.8699	0.0704	0.2453	-0.502
Mof_O 	O 	0.0955	0.0339	0.1355	-0.441
Mof_O 	O 	0.9734	0.8512	0.3351	-0.667
Mof_O 	O 	0.9846	0.2826	0.1084	-0.399
Mof_O 	O 	0.018	0.0893	0.1961	-0.755
Mof_O 	O 	0.9377	0.8912	0.2182	-0.767
Mof_O 	O 	0.9921	0.0322	0.0834	-0.353
Mof_O 	O 	0.0186	0.4613	0.1854	-0.845
Mof_O 	O 	0.9481	0.269	0.2224	-0.661
Mof_O 	O 	0.905	0.0709	0.1403	-0.476
Mof_O 	O 	0.9383	0.528	0.0893	-0.531
Mof_O 	O 	0.0632	0.2041	0.039	-0.522
Mof_O 	O 	0.9226	0.8261	0.0965	-0.521
Mof_Cu	Cu	0.93555	0.67184	0.02987	0.942
Mof_N 	N 	0.8578	0.6398	0.0036	-0.21
Mof_C 	C 	0.8255	0.5615	0.0333	0.08
Mof_H 	H 	0.8362	0.5223	0.0703	0
Mof_N 	N 	0.7748	0.5513	0.9985	-0.139
Mof_C 	C 	0.7756	0.6234	0.9474	0.001
Mof_H 	H 	0.7467	0.6333	0.9162	0.009
Mof_C 	C 	0.8269	0.6781	0.9505	-0.004
Mof_H 	H 	0.8387	0.7315	0.9218	0.028
Mof_C 	C 	0.7311	0.4771	0.0136	0.091
Mof_C 	C 	0.6779	0.5098	0.9889	-0.094
Mof_H 	H 	0.6713	0.5816	0.9645	0.068
Mof_C 	C 	0.7399	0.3722	0.0521	-0.094
Mof_H 	H 	0.7755	0.3525	0.0698	0.059
Mof_N 	N 	0.5159	0.1759	0.0426	-0.243
Mof_C 	C 	0.5467	0.2801	0.0346	0.105
Mof_H 	H 	0.5334	0.3608	0.0226	0.01
Mof_N 	N 	0.6003	0.2461	0.047	-0.143
Mof_C 	C 	0.6025	0.121	0.0628	-0.033
Mof_H 	H 	0.6344	0.0732	0.0736	0.013
Mof_C 	C 	0.5504	0.0776	0.06	0
Mof_H 	H 	0.54	0.9947	0.0686	-0.024
Mof_C 	C 	0.6447	0.3281	0.0382	0.072
Mof_C 	C 	0.6355	0.4342	0.0011	-0.051
Mof_H 	H 	0.5998	0.4544	0.9842	0.072
Mof_C 	C 	0.6979	0.299	0.064	-0.064
Mof_H 	H 	0.7045	0.2289	0.0895	0.026
Mof_W 	W 	0.0896	0.94076	0.20824	0.915
Mof_W 	W 	0.09393	0.41184	0.21967	0.892
Mof_W 	W 	0.63888	0.6869	0.32105	1.032
Mof_W 	W 	0.4552	0.66486	0.39179	1.331
Mof_W 	W 	0.54182	0.43756	0.3569	1.215
Mof_W 	W 	0.55147	0.91431	0.35373	1.268
Mof_O 	O 	0.6183	0.8206	0.3738	-0.443
Mof_O 	O 	0.6532	0.8184	0.2662	-0.446
Mof_O 	O 	0.4124	0.7824	0.3426	-0.532
Mof_O 	O 	0.5836	0.0039	0.2932	-0.782
Mof_O 	O 	0.6301	0.5704	0.2547	-0.47
Mof_O 	O 	0.4045	0.5339	0.3645	-0.492
Mof_O 	O 	0.5266	0.3512	0.1649	-0.785
Mof_O 	O 	0.5154	0.7826	0.3916	-0.496
Mof_O 	O 	0.482	0.5893	0.3039	-0.827
Mof_O 	O 	0.5623	0.3912	0.2818	-0.821
Mof_O 	O 	0.5079	0.5322	0.4166	-0.452
Mof_O 	O 	0.4814	0.9613	0.3146	-0.865
Mof_O 	O 	0.5519	0.769	0.2776	-0.792
Mof_O 	O 	0.595	0.5709	0.3597	-0.472
Mof_O 	O 	0.5617	0.028	0.4107	-0.567
Mof_O 	O 	0.4368	0.7041	0.461	-0.51
Mof_O 	O 	0.5774	0.3261	0.4035	-0.533
Mof_Cu	Cu	0.56445	0.17184	0.47013	0.909
Mof_N 	N 	0.6422	0.1398	0.4964	-0.211
Mof_C 	C 	0.6745	0.0615	0.4667	0.077
Mof_H 	H 	0.6638	0.0223	0.4297	0.001
Mof_N 	N 	0.7252	0.0513	0.5015	-0.136
Mof_C 	C 	0.7244	0.1234	0.5526	-0
Mof_H 	H 	0.7533	0.1333	0.5838	0.01
Mof_C 	C 	0.6731	0.1781	0.5495	-0.009
Mof_H 	H 	0.6613	0.2315	0.5782	0.029
Mof_C 	C 	0.7689	0.9771	0.4864	0.082
Mof_C 	C 	0.8221	0.0098	0.5111	-0.082
Mof_H 	H 	0.8287	0.0816	0.5355	0.064
Mof_C 	C 	0.7601	0.8722	0.4479	-0.088
Mof_H 	H 	0.7245	0.8525	0.4302	0.055
Mof_N 	N 	0.9841	0.6759	0.4574	-0.181
Mof_C 	C 	0.9533	0.7801	0.4654	0.104
Mof_H 	H 	0.9666	0.8608	0.4774	0.05
Mof_N 	N 	0.8997	0.7461	0.453	-0.143
Mof_C 	C 	0.8975	0.621	0.4372	-0.027
Mof_H 	H 	0.8656	0.5732	0.4264	0.007
Mof_C 	C 	0.9496	0.5776	0.44	-0.008
Mof_H 	H 	0.96	0.4947	0.4314	0.02
Mof_C 	C 	0.8553	0.8281	0.4618	0.076
Mof_C 	C 	0.8645	0.9342	0.4989	-0.063
Mof_H 	H 	0.9002	0.9544	0.5158	0.08
Mof_C 	C 	0.8021	0.799	0.436	-0.072
Mof_H 	H 	0.7955	0.7289	0.4105	0.025
Mof_W 	W 	0.13888	0.1869	0.32105	1.016
Mof_W 	W 	0.9552	0.16486	0.39179	1.51
Mof_W 	W 	0.04182	0.93756	0.3569	1.069
Mof_W 	W 	0.05147	0.41431	0.35373	1.164
Mof_O 	O 	0.1183	0.3206	0.3738	-0.427
Mof_O 	O 	0.1532	0.3184	0.2662	-0.442
Mof_O 	O 	0.9124	0.2824	0.3426	-0.537
Mof_O 	O 	0.0836	0.5039	0.2932	-0.726
Mof_O 	O 	0.1301	0.0704	0.2547	-0.459
Mof_O 	O 	0.9045	0.0339	0.3645	-0.505
Mof_O 	O 	0.0266	0.8512	0.1649	-0.806
Mof_O 	O 	0.0154	0.2826	0.3916	-0.583
Mof_O 	O 	0.982	0.0893	0.3039	-0.62
Mof_O 	O 	0.0623	0.8912	0.2818	-0.764
Mof_O 	O 	0.0079	0.0322	0.4166	-0.55
Mof_O 	O 	0.9814	0.4613	0.3146	-0.688
Mof_O 	O 	0.0519	0.269	0.2776	-0.705
Mof_O 	O 	0.095	0.0709	0.3597	-0.453
Mof_O 	O 	0.0617	0.528	0.4107	-0.577
Mof_O 	O 	0.9368	0.2041	0.461	-0.495
Mof_O 	O 	0.0774	0.8261	0.4035	-0.517
Mof_Cu	Cu	0.06445	0.67184	0.47013	0.882
Mof_N 	N 	0.1422	0.6398	0.4964	-0.209
Mof_C 	C 	0.1745	0.5615	0.4667	0.077
Mof_H 	H 	0.1638	0.5223	0.4297	0.005
Mof_N 	N 	0.2252	0.5513	0.5015	-0.137
Mof_C 	C 	0.2244	0.6234	0.5526	0.003
Mof_H 	H 	0.2533	0.6333	0.5838	0.009
Mof_C 	C 	0.1731	0.6781	0.5495	-0.012
Mof_H 	H 	0.1613	0.7315	0.5782	0.032
Mof_C 	C 	0.2689	0.4771	0.4864	0.086
Mof_C 	C 	0.3221	0.5098	0.5111	-0.085
Mof_H 	H 	0.3287	0.5816	0.5355	0.066
Mof_C 	C 	0.2601	0.3722	0.4479	-0.091
Mof_H 	H 	0.2245	0.3525	0.4302	0.057
Mof_N 	N 	0.4841	0.1759	0.4574	-0.24
Mof_C 	C 	0.4533	0.2801	0.4654	0.097
Mof_H 	H 	0.4666	0.3608	0.4774	0.012
Mof_N 	N 	0.3997	0.2461	0.453	-0.144
Mof_C 	C 	0.3975	0.121	0.4372	-0.037
Mof_H 	H 	0.3656	0.0732	0.4264	0.008
Mof_C 	C 	0.4496	0.0776	0.44	-0.014
Mof_H 	H 	0.46	0.9947	0.4314	-0.022
Mof_C 	C 	0.3553	0.3281	0.4618	0.071
Mof_C 	C 	0.3645	0.4342	0.4989	-0.059
Mof_H 	H 	0.4002	0.4544	0.5158	0.076
Mof_C 	C 	0.3021	0.299	0.436	-0.068
Mof_H 	H 	0.2955	0.2289	0.4105	0.023
Mof_W 	W 	0.63888	0.3131	0.82105	1.005
Mof_W 	W 	0.4552	0.33514	0.89179	1.362
Mof_W 	W 	0.54182	0.56244	0.8569	1.219
Mof_W 	W 	0.55147	0.08569	0.85373	1.261
Mof_Co	Co	0.5896	0.55924	0.70824	1.156
Mof_Co	Co	0.59393	0.08816	0.71967	1.149
Mof_O 	O 	0.6183	0.1794	0.8738	-0.442
Mof_O 	O 	0.6532	0.1816	0.7662	-0.485
Mof_O 	O 	0.4124	0.2176	0.8426	-0.49
Mof_O 	O 	0.5836	0.9961	0.7932	-0.827
Mof_O 	O 	0.6301	0.4296	0.7547	-0.508
Mof_O 	O 	0.4045	0.4661	0.8645	-0.458
Mof_O 	O 	0.5266	0.6488	0.6649	-0.825
Mof_O 	O 	0.5154	0.2174	0.8916	-0.497
Mof_O 	O 	0.482	0.4107	0.8039	-0.798
Mof_O 	O 	0.5623	0.6088	0.7818	-0.86
Mof_O 	O 	0.5079	0.4678	0.9166	-0.454
Mof_O 	O 	0.4814	0.0387	0.8146	-0.822
Mof_O 	O 	0.5519	0.231	0.7776	-0.822
Mof_O 	O 	0.595	0.4291	0.8597	-0.473
Mof_O 	O 	0.5617	0.972	0.9107	-0.565
Mof_O 	O 	0.4368	0.2959	0.961	-0.519
Mof_O 	O 	0.5774	0.6739	0.9035	-0.535
Mof_Cu	Cu	0.56445	0.82816	0.97013	0.909
Mof_N 	N 	0.6422	0.8602	0.9964	-0.211
Mof_C 	C 	0.6745	0.9385	0.9667	0.079
Mof_H 	H 	0.6638	0.9777	0.9297	0
Mof_N 	N 	0.7252	0.9487	0.0015	-0.137
Mof_C 	C 	0.7244	0.8766	0.0526	0
Mof_H 	H 	0.7533	0.8667	0.0838	0.01
Mof_C 	C 	0.6731	0.8219	0.0495	-0.008
Mof_H 	H 	0.6613	0.7685	0.0782	0.03
Mof_C 	C 	0.7689	0.0229	0.9864	0.073
Mof_C 	C 	0.8221	0.9902	0.0111	-0.069
Mof_H 	H 	0.8287	0.9184	0.0355	0.059
Mof_C 	C 	0.7601	0.1278	0.9479	-0.079
Mof_H 	H 	0.7245	0.1475	0.9302	0.052
Mof_N 	N 	0.9841	0.3241	0.9574	-0.184
Mof_C 	C 	0.9533	0.2199	0.9654	0.111
Mof_H 	H 	0.9666	0.1392	0.9774	0.045
Mof_N 	N 	0.8997	0.2539	0.953	-0.145
Mof_C 	C 	0.8975	0.379	0.9372	-0.019
Mof_H 	H 	0.8656	0.4268	0.9264	0.01
Mof_C 	C 	0.9496	0.4224	0.94	-0.001
Mof_H 	H 	0.96	0.5053	0.9314	0.021
Mof_C 	C 	0.8553	0.1719	0.9618	0.09
Mof_C 	C 	0.8645	0.0658	0.9989	-0.084
Mof_H 	H 	0.9002	0.0456	0.0158	0.09
Mof_C 	C 	0.8021	0.201	0.936	-0.081
Mof_H 	H 	0.7955	0.2711	0.9105	0.033
Mof_W 	W 	0.4104	0.55924	0.79176	0.918
Mof_W 	W 	0.40607	0.08816	0.78033	0.885
Mof_W 	W 	0.13888	0.8131	0.82105	0.99
Mof_W 	W 	0.9552	0.83514	0.89179	1.542
Mof_W 	W 	0.04182	0.06244	0.8569	1.069
Mof_W 	W 	0.05147	0.58569	0.85373	1.16
Mof_Co	Co	0.0896	0.05924	0.70824	1.159
Mof_Co	Co	0.09393	0.58816	0.71967	1.154
Mof_O 	O 	0.1183	0.6794	0.8738	-0.426
Mof_O 	O 	0.1532	0.6816	0.7662	-0.48
Mof_O 	O 	0.9124	0.7176	0.8426	-0.499
Mof_O 	O 	0.0836	0.4961	0.7932	-0.77
Mof_O 	O 	0.1301	0.9296	0.7547	-0.498
Mof_O 	O 	0.9045	0.9661	0.8645	-0.473
Mof_O 	O 	0.0266	0.1488	0.6649	-0.848
Mof_O 	O 	0.0154	0.7174	0.8916	-0.583
Mof_O 	O 	0.982	0.9107	0.8039	-0.593
Mof_O 	O 	0.0623	0.1088	0.7818	-0.803
Mof_O 	O 	0.0079	0.9678	0.9166	-0.55
Mof_O 	O 	0.9814	0.5387	0.8146	-0.648
Mof_O 	O 	0.0519	0.731	0.7776	-0.736
Mof_O 	O 	0.095	0.9291	0.8597	-0.452
Mof_O 	O 	0.0617	0.472	0.9107	-0.576
Mof_O 	O 	0.9368	0.7959	0.961	-0.503
Mof_O 	O 	0.0774	0.1739	0.9035	-0.519
Mof_Cu	Cu	0.06445	0.32816	0.97013	0.882
Mof_N 	N 	0.1422	0.3602	0.9964	-0.212
Mof_C 	C 	0.1745	0.4385	0.9667	0.073
Mof_H 	H 	0.1638	0.4777	0.9297	0.005
Mof_N 	N 	0.2252	0.4487	0.0015	-0.133
Mof_C 	C 	0.2244	0.3766	0.0526	0.002
Mof_H 	H 	0.2533	0.3667	0.0838	0.01
Mof_C 	C 	0.1731	0.3219	0.0495	-0.004
Mof_H 	H 	0.1613	0.2685	0.0782	0.033
Mof_C 	C 	0.2689	0.5229	0.9864	0.074
Mof_C 	C 	0.3221	0.4902	0.0111	-0.068
Mof_H 	H 	0.3287	0.4184	0.0355	0.06
Mof_C 	C 	0.2601	0.6278	0.9479	-0.08
Mof_H 	H 	0.2245	0.6475	0.9302	0.055
Mof_N 	N 	0.4841	0.8241	0.9574	-0.243
Mof_C 	C 	0.4533	0.7199	0.9654	0.105
Mof_H 	H 	0.4666	0.6392	0.9774	0.008
Mof_N 	N 	0.3997	0.7539	0.953	-0.146
Mof_C 	C 	0.3975	0.879	0.9372	-0.032
Mof_H 	H 	0.3656	0.9268	0.9264	0.013
Mof_C 	C 	0.4496	0.9224	0.94	-0.002
Mof_H 	H 	0.46	0.0053	0.9314	-0.024
Mof_C 	C 	0.3553	0.6719	0.9618	0.085
Mof_C 	C 	0.3645	0.5658	0.9989	-0.075
Mof_H 	H 	0.4002	0.5456	0.0158	0.082
Mof_C 	C 	0.3021	0.701	0.936	-0.077
Mof_H 	H 	0.2955	0.7711	0.9105	0.031
Mof_W 	W 	0.9104	0.05924	0.79176	0.936
Mof_W 	W 	0.90607	0.58816	0.78033	0.916
Mof_W 	W 	0.36112	0.3131	0.67895	1.032
Mof_W 	W 	0.5448	0.33514	0.60821	1.331
Mof_W 	W 	0.45818	0.56244	0.6431	1.215
Mof_W 	W 	0.44853	0.08569	0.64627	1.268
Mof_O 	O 	0.3817	0.1794	0.6262	-0.443
Mof_O 	O 	0.3468	0.1816	0.7338	-0.445
Mof_O 	O 	0.5876	0.2176	0.6574	-0.533
Mof_O 	O 	0.4164	0.9961	0.7068	-0.782
Mof_O 	O 	0.3699	0.4296	0.7453	-0.47
Mof_O 	O 	0.5955	0.4661	0.6355	-0.493
Mof_O 	O 	0.4734	0.6488	0.8351	-0.784
Mof_O 	O 	0.4846	0.2174	0.6084	-0.496
Mof_O 	O 	0.518	0.4107	0.6961	-0.827
Mof_O 	O 	0.4377	0.6088	0.7182	-0.821
Mof_O 	O 	0.4921	0.4678	0.5834	-0.452
Mof_O 	O 	0.5186	0.0387	0.6854	-0.865
Mof_O 	O 	0.4481	0.231	0.7224	-0.792
Mof_O 	O 	0.405	0.4291	0.6403	-0.472
Mof_O 	O 	0.4383	0.972	0.5893	-0.567
Mof_O 	O 	0.5632	0.2959	0.539	-0.51
Mof_O 	O 	0.4226	0.6739	0.5965	-0.532
Mof_Cu	Cu	0.43555	0.82816	0.52987	0.909
Mof_N 	N 	0.3578	0.8602	0.5036	-0.211
Mof_C 	C 	0.3255	0.9385	0.5333	0.078
Mof_H 	H 	0.3362	0.9777	0.5703	0.001
Mof_N 	N 	0.2748	0.9487	0.4985	-0.137
Mof_C 	C 	0.2756	0.8766	0.4474	0
Mof_H 	H 	0.2467	0.8667	0.4162	0.011
Mof_C 	C 	0.3269	0.8219	0.4505	-0.008
Mof_H 	H 	0.3387	0.7685	0.4218	0.029
Mof_C 	C 	0.2311	0.0229	0.5136	0.087
Mof_C 	C 	0.1779	0.9902	0.4889	-0.086
Mof_H 	H 	0.1713	0.9184	0.4645	0.068
Mof_C 	C 	0.2399	0.1278	0.5521	-0.092
Mof_H 	H 	0.2755	0.1475	0.5698	0.057
Mof_N 	N 	0.0159	0.3241	0.5426	-0.288
Mof_C 	C 	0.0467	0.2199	0.5346	0.092
Mof_H 	H 	0.0334	0.1392	0.5226	-0.025
Mof_N 	N 	0.1003	0.2539	0.547	-0.142
Mof_C 	C 	0.1025	0.379	0.5628	-0.038
Mof_H 	H 	0.1344	0.4268	0.5736	0.01
Mof_C 	C 	0.0504	0.4224	0.56	-0.018
Mof_H 	H 	0.04	0.5053	0.5686	-0.053
Mof_C 	C 	0.1447	0.1719	0.5382	0.069
Mof_C 	C 	0.1355	0.0658	0.5011	-0.057
Mof_H 	H 	0.0998	0.0456	0.4842	0.074
Mof_C 	C 	0.1979	0.201	0.564	-0.066
Mof_H 	H 	0.2045	0.2711	0.5895	0.023
Mof_W 	W 	0.86112	0.8131	0.67895	1.03
Mof_W 	W 	0.0448	0.83514	0.60821	1.124
Mof_W 	W 	0.95818	0.06244	0.6431	1.367
Mof_W 	W 	0.94853	0.58569	0.64627	1.382
Mof_O 	O 	0.8817	0.6794	0.6262	-0.46
Mof_O 	O 	0.8468	0.6816	0.7338	-0.452
Mof_O 	O 	0.0876	0.7176	0.6574	-0.514
Mof_O 	O 	0.9164	0.4961	0.7068	-0.71
Mof_O 	O 	0.8699	0.9296	0.7453	-0.467
Mof_O 	O 	0.0955	0.9661	0.6355	-0.477
Mof_O 	O 	0.9734	0.1488	0.8351	-0.628
Mof_O 	O 	0.9846	0.7174	0.6084	-0.398
Mof_O 	O 	0.018	0.9107	0.6961	-0.785
Mof_O 	O 	0.9377	0.1088	0.7182	-0.73
Mof_O 	O 	0.9921	0.9678	0.5834	-0.352
Mof_O 	O 	0.0186	0.5387	0.6854	-0.888
Mof_O 	O 	0.9481	0.731	0.7224	-0.632
Mof_O 	O 	0.905	0.9291	0.6403	-0.478
Mof_O 	O 	0.9383	0.472	0.5893	-0.531
Mof_O 	O 	0.0632	0.7959	0.539	-0.517
Mof_O 	O 	0.9226	0.1739	0.5965	-0.518
Mof_Cu	Cu	0.93555	0.32816	0.52987	0.943
Mof_N 	N 	0.8578	0.3602	0.5036	-0.209
Mof_C 	C 	0.8255	0.4385	0.5333	0.079
Mof_H 	H 	0.8362	0.4777	0.5703	0.001
Mof_N 	N 	0.7748	0.4487	0.4985	-0.137
Mof_C 	C 	0.7756	0.3766	0.4474	-0
Mof_H 	H 	0.7467	0.3667	0.4162	0.01
Mof_C 	C 	0.8269	0.3219	0.4505	-0.006
Mof_H 	H 	0.8387	0.2685	0.4218	0.026
Mof_C 	C 	0.7311	0.5229	0.5136	0.086
Mof_C 	C 	0.6779	0.4902	0.4889	-0.085
Mof_H 	H 	0.6713	0.4184	0.4645	0.066
Mof_C 	C 	0.7399	0.6278	0.5521	-0.091
Mof_H 	H 	0.7755	0.6475	0.5698	0.057
Mof_N 	N 	0.5159	0.8241	0.5426	-0.24
Mof_C 	C 	0.5467	0.7199	0.5346	0.097
Mof_H 	H 	0.5334	0.6392	0.5226	0.012
Mof_N 	N 	0.6003	0.7539	0.547	-0.144
Mof_C 	C 	0.6025	0.879	0.5628	-0.037
Mof_H 	H 	0.6344	0.9268	0.5736	0.007
Mof_C 	C 	0.5504	0.9224	0.56	-0.015
Mof_H 	H 	0.54	0.0053	0.5686	-0.021
Mof_C 	C 	0.6447	0.6719	0.5382	0.07
Mof_C 	C 	0.6355	0.5658	0.5011	-0.059
Mof_H 	H 	0.5998	0.5456	0.4842	0.076
Mof_C 	C 	0.6979	0.701	0.564	-0.068
Mof_H 	H 	0.7045	0.7711	0.5895	0.022
Mof_Si	Si	0.5	0.6791	0.25	2.083
Mof_K 	K 	0.5	0.1762	0.25	3.95
Mof_Si	Si	4.97724e-18	0.1791	0.25	1.565
Mof_K 	K 	9.81244e-34	0.6762	0.25	3.186
Mof_Si	Si	0.5	0.3209	0.75	2.083
Mof_K 	K 	0.5	0.8238	0.75	3.949
Mof_Si	Si	1.9909e-17	0.8209	0.75	1.565
Mof_K 	K 	1.9909e-17	0.3238	0.75	3.177
_end
