data_functionalizedCrystal
_audit_creation_method	'EQeq! by Chris Wilmer'
_symmetry_space_group_name_H-M	'P1'
_symmetry_Int_Tables_number	1
_symmetry_cell_setting	triclinic
loop_
_symmetry_equiv_pos_as_xyz
  x,y,z
_cell_length_a	14.104
_cell_length_b	26.654
_cell_length_c	7.645
_cell_angle_alpha	90
_cell_angle_beta	90
_cell_angle_gamma	90
loop_
_atom_site_label
_atom_site_type_symbol
_atom_site_fract_x
_atom_site_fract_y
_atom_site_fract_z
_atom_site_charge
Mof_Cd	Cd	0.21989	0.11415	0.1362	0.329
Mof_N 	N 	0.2481	0.1716	0.914	-0.057
Mof_N 	N 	0.2371	0.1694	0.357	-0.082
Mof_N 	N 	0.1706	0.0494	0.339	-0.069
Mof_N 	N 	0.1253	0.9176	0.631	-0.073
Mof_N 	N 	0.1832	0.0568	0.905	-0.102
Mof_N 	N 	0.0557	0.1253	0.082	-0.167
Mof_C 	C 	0.2472	0.2008	0.805	-0.228
Mof_C 	C 	0.2401	0.2007	0.462	-0.246
Mof_C 	C 	0.1047	0.0304	0.404	-0.277
Mof_C 	C 	0.0768	0.9485	0.584	-0.211
Mof_C 	C 	0.08	0.0577	0.878	-0.037
Mof_C 	C 	0.027	0.094	0.94	0.013
Mof_C 	C 	0.923	0.096	0.895	0.049
Mof_Cd	Cd	0.28011	0.88585	0.6362	0.381
Mof_N 	N 	0.2519	0.8284	0.414	-0.075
Mof_N 	N 	0.2629	0.8306	0.857	-0.079
Mof_N 	N 	0.3294	0.9506	0.839	-0.063
Mof_N 	N 	0.3747	0.0824	0.131	-0.073
Mof_N 	N 	0.3168	0.9432	0.405	-0.107
Mof_N 	N 	0.4443	0.8747	0.582	-0.123
Mof_C 	C 	0.2528	0.7992	0.305	-0.257
Mof_C 	C 	0.2599	0.7993	0.962	-0.2
Mof_C 	C 	0.3953	0.9696	0.904	-0.157
Mof_C 	C 	0.4232	0.0515	0.084	-0.258
Mof_C 	C 	0.42	0.9423	0.378	-0.013
Mof_C 	C 	0.473	0.906	0.44	0.038
Mof_C 	C 	0.577	0.904	0.395	-0.029
Mof_Cd	Cd	0.78011	0.61415	0.8638	0.418
Mof_N 	N 	0.7519	0.6716	0.086	-0.094
Mof_N 	N 	0.7629	0.6694	0.643	-0.072
Mof_N 	N 	0.8294	0.5494	0.661	-0.067
Mof_N 	N 	0.8747	0.4176	0.369	-0.075
Mof_N 	N 	0.8168	0.5568	0.095	-0.128
Mof_N 	N 	0.9443	0.6253	0.918	-0.082
Mof_C 	C 	0.7528	0.7008	0.195	-0.236
Mof_C 	C 	0.7599	0.7007	0.538	-0.226
Mof_C 	C 	0.8953	0.5304	0.596	-0.182
Mof_C 	C 	0.9232	0.4485	0.416	-0.169
Mof_C 	C 	0.92	0.5577	0.122	-0.021
Mof_C 	C 	0.973	0.594	0.06	0.076
Mof_C 	C 	0.077	0.596	0.105	-0.125
Mof_Cd	Cd	0.71989	0.38585	0.3638	0.375
Mof_N 	N 	0.7481	0.3284	0.586	-0.072
Mof_N 	N 	0.7371	0.3306	0.143	-0.075
Mof_N 	N 	0.6706	0.4506	0.161	-0.067
Mof_N 	N 	0.6253	0.5824	0.869	-0.07
Mof_N 	N 	0.6832	0.4432	0.595	-0.107
Mof_N 	N 	0.5557	0.3747	0.418	-0.126
Mof_C 	C 	0.7472	0.2992	0.695	-0.208
Mof_C 	C 	0.7401	0.2993	0.038	-0.263
Mof_C 	C 	0.6047	0.4696	0.096	-0.251
Mof_C 	C 	0.5768	0.5515	0.916	-0.176
Mof_C 	C 	0.58	0.4423	0.622	-0.011
Mof_C 	C 	0.527	0.406	0.56	0.043
Mof_C 	C 	0.423	0.404	0.605	-0.021
Mof_Cd	Cd	0.78011	0.88585	0.8638	0.423
Mof_N 	N 	0.7519	0.8284	0.086	-0.094
Mof_N 	N 	0.7629	0.8306	0.643	-0.072
Mof_N 	N 	0.8294	0.9506	0.661	-0.066
Mof_N 	N 	0.8747	0.0824	0.369	-0.075
Mof_N 	N 	0.8168	0.9432	0.095	-0.121
Mof_N 	N 	0.9443	0.8747	0.918	-0.081
Mof_C 	C 	0.7528	0.7992	0.195	-0.235
Mof_C 	C 	0.7599	0.7993	0.538	-0.226
Mof_C 	C 	0.8953	0.9696	0.596	-0.149
Mof_C 	C 	0.9232	0.0515	0.416	-0.187
Mof_C 	C 	0.92	0.9423	0.122	-0.003
Mof_C 	C 	0.973	0.906	0.06	0.071
Mof_C 	C 	0.077	0.904	0.105	-0.112
Mof_Cd	Cd	0.71989	0.11415	0.3638	0.37
Mof_N 	N 	0.7481	0.1716	0.586	-0.072
Mof_N 	N 	0.7371	0.1694	0.143	-0.075
Mof_N 	N 	0.6706	0.0494	0.161	-0.071
Mof_N 	N 	0.6253	0.9176	0.869	-0.074
Mof_N 	N 	0.6832	0.0568	0.595	-0.115
Mof_N 	N 	0.5557	0.1253	0.418	-0.127
Mof_C 	C 	0.7472	0.2008	0.695	-0.208
Mof_C 	C 	0.7401	0.2007	0.038	-0.264
Mof_C 	C 	0.6047	0.0304	0.096	-0.272
Mof_C 	C 	0.5768	0.9485	0.916	-0.146
Mof_C 	C 	0.58	0.0577	0.622	-0.029
Mof_C 	C 	0.527	0.094	0.56	0.047
Mof_C 	C 	0.423	0.096	0.605	-0.032
Mof_Cd	Cd	0.21989	0.38585	0.1362	0.334
Mof_N 	N 	0.2481	0.3284	0.914	-0.056
Mof_N 	N 	0.2371	0.3306	0.357	-0.081
Mof_N 	N 	0.1706	0.4506	0.339	-0.066
Mof_N 	N 	0.1253	0.5824	0.631	-0.07
Mof_N 	N 	0.1832	0.4432	0.905	-0.094
Mof_N 	N 	0.0557	0.3747	0.082	-0.166
Mof_C 	C 	0.2472	0.2992	0.805	-0.227
Mof_C 	C 	0.2401	0.2993	0.462	-0.246
Mof_C 	C 	0.1047	0.4696	0.404	-0.256
Mof_C 	C 	0.0768	0.5515	0.584	-0.242
Mof_C 	C 	0.08	0.4423	0.878	-0.02
Mof_C 	C 	0.027	0.406	0.94	0.009
Mof_C 	C 	0.923	0.404	0.895	0.059
Mof_Cd	Cd	0.28011	0.61415	0.6362	0.375
Mof_N 	N 	0.2519	0.6716	0.414	-0.075
Mof_N 	N 	0.2629	0.6694	0.857	-0.08
Mof_N 	N 	0.3294	0.5494	0.839	-0.064
Mof_N 	N 	0.3747	0.4176	0.131	-0.074
Mof_N 	N 	0.3168	0.5568	0.405	-0.115
Mof_N 	N 	0.4443	0.6253	0.582	-0.124
Mof_C 	C 	0.2528	0.7008	0.305	-0.257
Mof_C 	C 	0.2599	0.7007	0.962	-0.201
Mof_C 	C 	0.3953	0.5304	0.904	-0.191
Mof_C 	C 	0.4232	0.4485	0.084	-0.24
Mof_C 	C 	0.42	0.5577	0.378	-0.032
Mof_C 	C 	0.473	0.594	0.44	0.042
Mof_C 	C 	0.577	0.596	0.395	-0.041
Mof_Ni	Ni	0.2438	0.25	0.6316	1.064
Mof_Ni	Ni	0.2562	0.75	0.1316	1.037
Mof_Ni	Ni	0.7562	0.75	0.3684	1.065
Mof_Ni	Ni	0.7438	0.25	0.8684	1.088
Mof_Ni	Ni	1.01617e-33	0	0.5	1.016
Mof_Ni	Ni	0.5	0	-0	1.025
Mof_Ni	Ni	-1.21591e-32	0.5	0.5	1.038
Mof_Ni	Ni	0.5	0.5	-0	1.046
_end
