data_functionalizedCrystal
_audit_creation_method	'EQeq! by Chris Wilmer'
_symmetry_space_group_name_H-M	'P1'
_symmetry_Int_Tables_number	1
_symmetry_cell_setting	triclinic
loop_
_symmetry_equiv_pos_as_xyz
  x,y,z
_cell_length_a	11.5084
_cell_length_b	12.7158
_cell_length_c	14.5387
_cell_angle_alpha	94.241
_cell_angle_beta	109.066
_cell_angle_gamma	115.603
loop_
_atom_site_label
_atom_site_type_symbol
_atom_site_fract_x
_atom_site_fract_y
_atom_site_fract_z
_atom_site_charge
Mof_Ce	Ce	0.3822	0.4522	0.83177	2.748
Mof_Ce	Ce	0.23327	0.52404	0.44113	1.601
Mof_Mo	Mo	0.34935	0.75832	0.88641	1.484
Mof_Mo	Mo	0.37236	0.92513	0.72719	0.874
Mof_Mo	Mo	0.3773	0.12519	0.88323	1.399
Mof_Mo	Mo	0.64688	0.04335	0.96194	1.311
Mof_N 	N 	0.6087	0.6516	0.8399	-0.208
Mof_N 	N 	0.1763	0.5698	0.264	-0.194
Mof_O 	O 	0.371	0.5392	0.6779	-0.637
Mof_O 	O 	0.4655	0.6514	0.5864	-0.534
Mof_O 	O 	0.616	0.5479	0.9886	-0.655
Mof_O 	O 	0.8088	0.7073	0.0967	-0.486
Mof_O 	O 	0.0049	0.523	0.3554	-0.624
Mof_O 	O 	0.8572	0.5593	0.2387	-0.623
Mof_O 	O 	0.4086	0.5616	0.3649	-0.552
Mof_O 	O 	0.4868	0.6032	0.2444	-0.639
Mof_O 	O 	0.3961	0.9524	0.9027	-0.719
Mof_O 	O 	0.3893	0.7921	0.7723	-0.639
Mof_O 	O 	0.3819	0.6397	0.898	-0.73
Mof_O 	O 	0.415	0.0877	0.7712	-0.634
Mof_O 	O 	0.6058	0.0159	0.8329	-0.536
Mof_O 	O 	0.6137	0.1807	0.9732	-0.695
Mof_O 	O 	0.4071	0.1198	0.0253	-0.68
Mof_O 	O 	0.4214	0.2737	0.8905	-0.691
Mof_C 	C 	0.4708	0.6248	0.6681	0.41
Mof_C 	C 	0.6071	0.6988	0.7599	-0.078
Mof_C 	C 	0.7178	0.8019	0.7602	-0.012
Mof_H 	H 	0.7116	0.8317	0.7033	-0.016
Mof_C 	C 	0.8373	0.8593	0.847	-0.104
Mof_H 	H 	0.914	0.9293	0.8499	-0.006
Mof_C 	C 	0.8431	0.8126	0.9296	-0.03
Mof_H 	H 	0.9244	0.85	0.9884	-0.009
Mof_C 	C 	0.7275	0.7099	0.9249	-0.064
Mof_C 	C 	0.7202	0.6546	0.0095	0.352
Mof_C 	C 	0.9653	0.5509	0.2736	0.444
Mof_C 	C 	0.0618	0.5768	0.2185	-0.15
Mof_C 	C 	0.0338	0.6094	0.1271	0.021
Mof_H 	H 	0.9539	0.6169	0.0974	0.002
Mof_C 	C 	0.1268	0.63	0.0826	-0.105
Mof_H 	H 	0.1094	0.6503	0.0213	0.01
Mof_C 	C 	0.2485	0.6205	0.1294	0.038
Mof_H 	H 	0.3126	0.6333	0.1001	0.011
Mof_C 	C 	0.2683	0.5914	0.2211	-0.139
Mof_C 	C 	0.3987	0.5844	0.281	0.483
Mof_Ce	Ce	0.6178	0.5478	0.16823	2.749
Mof_Ce	Ce	0.76673	0.47596	0.55887	1.602
Mof_Mo	Mo	0.65065	0.24168	0.11359	1.484
Mof_Mo	Mo	0.62764	0.07487	0.27281	0.874
Mof_Mo	Mo	0.6227	0.87481	0.11677	1.399
Mof_Mo	Mo	0.35312	0.95665	0.03806	1.311
Mof_N 	N 	0.3913	0.3484	0.1601	-0.208
Mof_N 	N 	0.8237	0.4302	0.736	-0.194
Mof_O 	O 	0.629	0.4608	0.3221	-0.637
Mof_O 	O 	0.5345	0.3486	0.4136	-0.534
Mof_O 	O 	0.384	0.4521	0.0114	-0.655
Mof_O 	O 	0.1912	0.2927	0.9033	-0.486
Mof_O 	O 	0.9951	0.477	0.6446	-0.624
Mof_O 	O 	0.1428	0.4407	0.7613	-0.623
Mof_O 	O 	0.5914	0.4384	0.6351	-0.552
Mof_O 	O 	0.5132	0.3968	0.7556	-0.639
Mof_O 	O 	0.6039	0.0476	0.0973	-0.719
Mof_O 	O 	0.6107	0.2079	0.2277	-0.639
Mof_O 	O 	0.6181	0.3603	0.102	-0.73
Mof_O 	O 	0.585	0.9123	0.2288	-0.634
Mof_O 	O 	0.3942	0.9841	0.1671	-0.536
Mof_O 	O 	0.3863	0.8193	0.0268	-0.695
Mof_O 	O 	0.5929	0.8802	0.9747	-0.68
Mof_O 	O 	0.5786	0.7263	0.1095	-0.691
Mof_C 	C 	0.5292	0.3752	0.3319	0.41
Mof_C 	C 	0.3929	0.3012	0.2401	-0.078
Mof_C 	C 	0.2822	0.1981	0.2398	-0.012
Mof_H 	H 	0.2884	0.1683	0.2967	-0.016
Mof_C 	C 	0.1627	0.1407	0.153	-0.104
Mof_H 	H 	0.086	0.0707	0.1501	-0.006
Mof_C 	C 	0.1569	0.1874	0.0704	-0.03
Mof_H 	H 	0.0756	0.15	0.0116	-0.009
Mof_C 	C 	0.2725	0.2901	0.0751	-0.064
Mof_C 	C 	0.2798	0.3454	0.9905	0.352
Mof_C 	C 	0.0347	0.4491	0.7264	0.444
Mof_C 	C 	0.9382	0.4232	0.7815	-0.15
Mof_C 	C 	0.9662	0.3906	0.8729	0.021
Mof_H 	H 	0.0461	0.3831	0.9026	0.002
Mof_C 	C 	0.8732	0.37	0.9174	-0.105
Mof_H 	H 	0.8906	0.3497	0.9787	0.01
Mof_C 	C 	0.7515	0.3795	0.8706	0.038
Mof_H 	H 	0.6874	0.3667	0.8999	0.011
Mof_C 	C 	0.7317	0.4086	0.7789	-0.139
Mof_C 	C 	0.6013	0.4156	0.719	0.483
_end
