data_functionalizedCrystal
_audit_creation_method	'EQeq! by Chris Wilmer'
_symmetry_space_group_name_H-M	'P1'
_symmetry_Int_Tables_number	1
_symmetry_cell_setting	triclinic
loop_
_symmetry_equiv_pos_as_xyz
  x,y,z
_cell_length_a	7.528
_cell_length_b	17.853
_cell_length_c	23.757
_cell_angle_alpha	92.534
_cell_angle_beta	90
_cell_angle_gamma	90
loop_
_atom_site_label
_atom_site_type_symbol
_atom_site_fract_x
_atom_site_fract_y
_atom_site_fract_z
_atom_site_charge
Mof_Zn	Zn	0.97374	0.42169	0.96843	1.195
Mof_Zn	Zn	0.29499	0.49059	0.9127	1.229
Mof_Zn	Zn	0.97374	0.07831	0.53157	1.196
Mof_Zn	Zn	0.29499	0.00941	0.5873	1.229
Mof_Zn	Zn	0.02626	0.57831	0.03157	1.194
Mof_Zn	Zn	0.70501	0.50941	0.0873	1.228
Mof_Zn	Zn	0.02626	0.92169	0.46843	1.195
Mof_Zn	Zn	0.70501	0.99059	0.4127	1.228
Mof_H 	H 	0.0668	0.5047	0.7581	0.069
Mof_H 	H 	0.9346	0.5094	0.6697	0.263
Mof_H 	H 	0.4948	0.4108	0.7308	0.169
Mof_H 	H 	0.6243	0.41	0.8195	-0.005
Mof_H 	H 	0.1648	0.2984	0.5709	0.028
Mof_H 	H 	0.2758	0.4182	0.592	0.261
Mof_H 	H 	0.7409	0.3266	0.6405	0.168
Mof_H 	H 	0.6304	0.2074	0.6177	-0.011
Mof_H 	H 	0.556	0.6092	0.7857	0.075
Mof_H 	H 	0.7456	0.6758	0.7289	0.233
Mof_H 	H 	0.0783	0.7134	0.8607	0.229
Mof_H 	H 	0.8886	0.6476	0.9174	-0.05
Mof_H 	H 	0.0668	0.9953	0.7419	0.069
Mof_H 	H 	0.9346	0.9906	0.8303	0.267
Mof_H 	H 	0.4948	0.0892	0.7692	0.17
Mof_H 	H 	0.6243	0.09	0.6805	-0.006
Mof_H 	H 	0.1648	0.2016	0.9291	0.029
Mof_H 	H 	0.2758	0.0818	0.908	0.261
Mof_H 	H 	0.7409	0.1734	0.8595	0.168
Mof_H 	H 	0.6304	0.2926	0.8823	-0.011
Mof_H 	H 	0.556	0.8908	0.7143	0.075
Mof_H 	H 	0.7456	0.8242	0.7711	0.233
Mof_H 	H 	0.0783	0.7866	0.6393	0.226
Mof_H 	H 	0.8886	0.8524	0.5826	-0.049
Mof_H 	H 	0.9332	0.4953	0.2419	0.069
Mof_H 	H 	0.0654	0.4906	0.3303	0.263
Mof_H 	H 	0.5052	0.5892	0.2692	0.169
Mof_H 	H 	0.3757	0.59	0.1805	-0.005
Mof_H 	H 	0.8352	0.7016	0.4291	0.028
Mof_H 	H 	0.7242	0.5818	0.408	0.261
Mof_H 	H 	0.2591	0.6734	0.3595	0.168
Mof_H 	H 	0.3696	0.7926	0.3823	-0.011
Mof_H 	H 	0.444	0.3908	0.2143	0.075
Mof_H 	H 	0.2544	0.3242	0.2711	0.233
Mof_H 	H 	0.9217	0.2866	0.1393	0.229
Mof_H 	H 	0.1114	0.3524	0.0826	-0.05
Mof_H 	H 	0.9332	0.0047	0.2581	0.069
Mof_H 	H 	0.0654	0.0094	0.1697	0.267
Mof_H 	H 	0.5052	0.9108	0.2308	0.17
Mof_H 	H 	0.3757	0.91	0.3195	-0.006
Mof_H 	H 	0.8352	0.7984	0.0709	0.029
Mof_H 	H 	0.7242	0.9182	0.092	0.261
Mof_H 	H 	0.2591	0.8266	0.1405	0.168
Mof_H 	H 	0.3696	0.7074	0.1177	-0.011
Mof_H 	H 	0.444	0.1092	0.2857	0.075
Mof_H 	H 	0.2544	0.1758	0.2289	0.233
Mof_H 	H 	0.9217	0.2134	0.3607	0.226
Mof_H 	H 	0.1114	0.1476	0.4174	-0.049
Mof_C 	C 	0.9459	0.45715	0.85415	0.424
Mof_C 	C 	0.8587	0.45722	0.79725	-0.205
Mof_C 	C 	0.9495	0.4861	0.75258	0.176
Mof_C 	C 	0.8718	0.48836	0.69984	-0.274
Mof_C 	C 	0.7014	0.45976	0.69114	0.363
Mof_C 	C 	0.6111	0.43043	0.73631	-0.285
Mof_C 	C 	0.6881	0.42955	0.7889	0.181
Mof_C 	C 	0.6032	0.46163	0.63394	-0.504
Mof_C 	C 	0.7285	0.47997	0.58484	0.965
Mof_C 	C 	0.4644	0.52507	0.64025	0.969
Mof_C 	C 	0.3089	0.1639	0.58039	0.438
Mof_C 	C 	0.3847	0.24113	0.59326	-0.209
Mof_C 	C 	0.282	0.30414	0.5852	0.211
Mof_C 	C 	0.3477	0.37551	0.59777	-0.278
Mof_C 	C 	0.5198	0.38436	0.61884	0.381
Mof_C 	C 	0.6235	0.32105	0.62628	-0.289
Mof_C 	C 	0.5575	0.2501	0.61314	0.193
Mof_C 	C 	0.5752	0.58321	0.89498	0.386
Mof_C 	C 	0.7005	0.6237	0.85777	-0.19
Mof_C 	C 	0.6609	0.63132	0.80126	0.207
Mof_C 	C 	0.7737	0.67103	0.76755	-0.283
Mof_C 	C 	0.9277	0.70411	0.78951	0.392
Mof_C 	C 	0.9707	0.69343	0.84554	-0.302
Mof_C 	C 	0.8581	0.6541	0.87912	0.222
Mof_C 	C 	0.1648	0.80717	0.78234	0.976
Mof_C 	C 	0.9459	0.04285	0.64585	0.423
Mof_C 	C 	0.8587	0.04278	0.70275	-0.207
Mof_C 	C 	0.9495	0.0139	0.74742	0.177
Mof_C 	C 	0.8718	0.01164	0.80016	-0.281
Mof_C 	C 	0.7014	0.04024	0.80886	0.366
Mof_C 	C 	0.6111	0.06957	0.76369	-0.287
Mof_C 	C 	0.6881	0.07045	0.7111	0.182
Mof_C 	C 	0.6032	0.03837	0.86606	-0.506
Mof_C 	C 	0.7285	0.02003	0.91516	0.964
Mof_C 	C 	0.4644	0.97493	0.85975	0.97
Mof_C 	C 	0.3089	0.3361	0.91961	0.438
Mof_C 	C 	0.3847	0.25887	0.90674	-0.209
Mof_C 	C 	0.282	0.19586	0.9148	0.212
Mof_C 	C 	0.3477	0.12449	0.90223	-0.279
Mof_C 	C 	0.5198	0.11564	0.88116	0.382
Mof_C 	C 	0.6235	0.17895	0.87372	-0.29
Mof_C 	C 	0.5575	0.2499	0.88686	0.193
Mof_C 	C 	0.5752	0.91679	0.60502	0.386
Mof_C 	C 	0.7005	0.8763	0.64223	-0.188
Mof_C 	C 	0.6609	0.86868	0.69874	0.206
Mof_C 	C 	0.7737	0.82897	0.73245	-0.282
Mof_C 	C 	0.9277	0.79589	0.71049	0.391
Mof_C 	C 	0.9707	0.80657	0.65446	-0.298
Mof_C 	C 	0.8581	0.8459	0.62088	0.22
Mof_C 	C 	0.1648	0.69283	0.71766	0.976
Mof_C 	C 	0.0541	0.54285	0.14585	0.424
Mof_C 	C 	0.1413	0.54278	0.20275	-0.205
Mof_C 	C 	0.0505	0.5139	0.24742	0.176
Mof_C 	C 	0.1282	0.51164	0.30016	-0.274
Mof_C 	C 	0.2986	0.54024	0.30886	0.363
Mof_C 	C 	0.3889	0.56957	0.26369	-0.285
Mof_C 	C 	0.3119	0.57045	0.2111	0.181
Mof_C 	C 	0.3968	0.53837	0.36606	-0.504
Mof_C 	C 	0.2715	0.52003	0.41516	0.965
Mof_C 	C 	0.5356	0.47493	0.35975	0.969
Mof_C 	C 	0.6911	0.8361	0.41961	0.438
Mof_C 	C 	0.6153	0.75887	0.40674	-0.209
Mof_C 	C 	0.718	0.69586	0.4148	0.211
Mof_C 	C 	0.6523	0.62449	0.40223	-0.278
Mof_C 	C 	0.4802	0.61564	0.38116	0.381
Mof_C 	C 	0.3765	0.67895	0.37372	-0.289
Mof_C 	C 	0.4425	0.7499	0.38686	0.193
Mof_C 	C 	0.4248	0.41679	0.10502	0.386
Mof_C 	C 	0.2995	0.3763	0.14223	-0.19
Mof_C 	C 	0.3391	0.36868	0.19874	0.207
Mof_C 	C 	0.2263	0.32897	0.23245	-0.283
Mof_C 	C 	0.0723	0.29589	0.21049	0.392
Mof_C 	C 	0.0293	0.30657	0.15446	-0.302
Mof_C 	C 	0.1419	0.3459	0.12088	0.222
Mof_C 	C 	0.8352	0.19283	0.21766	0.976
Mof_C 	C 	0.0541	0.95715	0.35415	0.423
Mof_C 	C 	0.1413	0.95722	0.29725	-0.207
Mof_C 	C 	0.0505	0.9861	0.25258	0.177
Mof_C 	C 	0.1282	0.98836	0.19984	-0.281
Mof_C 	C 	0.2986	0.95976	0.19114	0.366
Mof_C 	C 	0.3889	0.93043	0.23631	-0.287
Mof_C 	C 	0.3119	0.92955	0.2889	0.182
Mof_C 	C 	0.3968	0.96163	0.13394	-0.506
Mof_C 	C 	0.2715	0.97997	0.08484	0.964
Mof_C 	C 	0.5356	0.02507	0.14025	0.97
Mof_C 	C 	0.6911	0.6639	0.08039	0.438
Mof_C 	C 	0.6153	0.74113	0.09326	-0.209
Mof_C 	C 	0.718	0.80414	0.0852	0.212
Mof_C 	C 	0.6523	0.87551	0.09777	-0.279
Mof_C 	C 	0.4802	0.88436	0.11884	0.382
Mof_C 	C 	0.3765	0.82105	0.12628	-0.29
Mof_C 	C 	0.4425	0.7501	0.11314	0.193
Mof_C 	C 	0.4248	0.08321	0.39498	0.386
Mof_C 	C 	0.2995	0.1237	0.35777	-0.188
Mof_C 	C 	0.3391	0.13132	0.30126	0.206
Mof_C 	C 	0.2263	0.17103	0.26755	-0.282
Mof_C 	C 	0.0723	0.20411	0.28951	0.391
Mof_C 	C 	0.0293	0.19343	0.34554	-0.298
Mof_C 	C 	0.1419	0.1541	0.37912	0.22
Mof_C 	C 	0.8352	0.30717	0.28234	0.976
Mof_C 	C 	0.0445	0.75	0.75	-0.515
Mof_C 	C 	0.9555	0.25	0.25	-0.515
Mof_O 	O 	0.1015	0.4822	0.85704	-0.482
Mof_O 	O 	0.8592	0.43274	0.89474	-0.488
Mof_O 	O 	0.4075	0.10886	0.5903	-0.471
Mof_O 	O 	0.1539	0.16016	0.56192	-0.474
Mof_O 	O 	0.4314	0.56045	0.87173	-0.424
Mof_O 	O 	0.611	0.57532	0.94525	-0.328
Mof_O 	O 	0.1747	0.49712	0.98621	-0.666
Mof_O 	O 	0.1015	0.0178	0.64296	-0.481
Mof_O 	O 	0.8592	0.06726	0.60526	-0.488
Mof_O 	O 	0.4075	0.39114	0.9097	-0.471
Mof_O 	O 	0.1539	0.33984	0.93808	-0.474
Mof_O 	O 	0.4314	0.93955	0.62827	-0.424
Mof_O 	O 	0.611	0.92468	0.55475	-0.328
Mof_O 	O 	0.1747	0.00288	0.51379	-0.666
Mof_O 	O 	0.8985	0.5178	0.14296	-0.482
Mof_O 	O 	0.1408	0.56726	0.10526	-0.488
Mof_O 	O 	0.5925	0.89114	0.4097	-0.471
Mof_O 	O 	0.8461	0.83984	0.43808	-0.474
Mof_O 	O 	0.5686	0.43955	0.12827	-0.424
Mof_O 	O 	0.389	0.42468	0.05475	-0.328
Mof_O 	O 	0.8253	0.50288	0.01379	-0.666
Mof_O 	O 	0.8985	0.9822	0.35704	-0.481
Mof_O 	O 	0.1408	0.93274	0.39474	-0.488
Mof_O 	O 	0.5925	0.60886	0.0903	-0.471
Mof_O 	O 	0.8461	0.66016	0.06192	-0.474
Mof_O 	O 	0.5686	0.06045	0.37173	-0.424
Mof_O 	O 	0.389	0.07532	0.44525	-0.328
Mof_O 	O 	0.8253	0.99712	0.48621	-0.666
Mof_F 	F 	0.8702	0.43529	0.58247	-0.479
Mof_F 	F 	0.7884	0.55098	0.5878	-0.411
Mof_F 	F 	0.6462	0.47084	0.53501	-0.386
Mof_F 	F 	0.3885	0.54195	0.5909	-0.389
Mof_F 	F 	0.5357	0.58856	0.66133	-0.432
Mof_F 	F 	0.3316	0.50725	0.67451	-0.48
Mof_F 	F 	0.2392	0.8549	0.74836	-0.463
Mof_F 	F 	0.2976	0.7748	0.81043	-0.437
Mof_F 	F 	0.0708	0.84803	0.82081	-0.449
Mof_F 	F 	0.8702	0.06471	0.91753	-0.48
Mof_F 	F 	0.7884	0.94902	0.9122	-0.41
Mof_F 	F 	0.6462	0.02916	0.96499	-0.387
Mof_F 	F 	0.3885	0.95805	0.9091	-0.388
Mof_F 	F 	0.5357	0.91144	0.83867	-0.432
Mof_F 	F 	0.3316	0.99275	0.82549	-0.479
Mof_F 	F 	0.2392	0.6451	0.75164	-0.463
Mof_F 	F 	0.2976	0.7252	0.68957	-0.437
Mof_F 	F 	0.0708	0.65197	0.67919	-0.45
Mof_F 	F 	0.1298	0.56471	0.41753	-0.479
Mof_F 	F 	0.2116	0.44902	0.4122	-0.411
Mof_F 	F 	0.3538	0.52916	0.46499	-0.386
Mof_F 	F 	0.6115	0.45805	0.4091	-0.389
Mof_F 	F 	0.4643	0.41144	0.33867	-0.432
Mof_F 	F 	0.6684	0.49275	0.32549	-0.48
Mof_F 	F 	0.7608	0.1451	0.25164	-0.463
Mof_F 	F 	0.7024	0.2252	0.18957	-0.437
Mof_F 	F 	0.9292	0.15197	0.17919	-0.449
Mof_F 	F 	0.1298	0.93529	0.08247	-0.48
Mof_F 	F 	0.2116	0.05098	0.0878	-0.41
Mof_F 	F 	0.3538	0.97084	0.03501	-0.387
Mof_F 	F 	0.6115	0.04195	0.0909	-0.388
Mof_F 	F 	0.4643	0.08856	0.16133	-0.432
Mof_F 	F 	0.6684	0.00725	0.17451	-0.479
Mof_F 	F 	0.7608	0.3549	0.24836	-0.463
Mof_F 	F 	0.7024	0.2748	0.31043	-0.437
Mof_F 	F 	0.9292	0.34803	0.32081	-0.45
_end
