data_functionalizedCrystal
_audit_creation_method	'EQeq! by Chris Wilmer'
_symmetry_space_group_name_H-M	'P1'
_symmetry_Int_Tables_number	1
_symmetry_cell_setting	triclinic
loop_
_symmetry_equiv_pos_as_xyz
  x,y,z
_cell_length_a	28.654
_cell_length_b	15.0332
_cell_length_c	16.5899
_cell_angle_alpha	90
_cell_angle_beta	119.904
_cell_angle_gamma	90
loop_
_atom_site_label
_atom_site_type_symbol
_atom_site_fract_x
_atom_site_fract_y
_atom_site_fract_z
_atom_site_charge
Mof_Zn	Zn	0.36124	0.19766	0.68724	1.209
Mof_N 	N 	0.29134	0.1279	0.6242	-0.264
Mof_N 	N 	0.4125	0.1278	0.8008	-0.279
Mof_N 	N 	0.05958	0.8714	0.3381	-0.274
Mof_O 	O 	0.4817	0.272	0.3843	-0.355
Mof_O 	O 	0.4472	0.2001	0.2553	-0.447
Mof_O 	O 	0.1513	0.1788	0.2996	-0.484
Mof_O 	O 	0.1871	0.2149	0.2138	-0.331
Mof_O 	O 	0.28033	0.097	0.3877	-0.29
Mof_O 	O 	0.3802	0.2079	0.588	-0.456
Mof_O 	O 	0.3845	0.0616	0.5781	-0.311
Mof_C 	C 	0.4469	0.2198	0.3271	0.373
Mof_C 	C 	0.4033	0.1855	0.3432	-0.197
Mof_C 	C 	0.3555	0.1591	0.2695	0.16
Mof_H 	H 	0.3509	0.1605	0.2099	-0.01
Mof_C 	C 	0.3135	0.1302	0.2822	-0.283
Mof_H 	H 	0.2804	0.1155	0.2312	0.141
Mof_C 	C 	0.3213	0.1235	0.3707	0.285
Mof_C 	C 	0.3692	0.1487	0.4466	-0.219
Mof_C 	C 	0.409	0.1834	0.4308	0.139
Mof_H 	H 	0.4403	0.2057	0.4807	0.002
Mof_C 	C 	0.379	0.1366	0.5445	0.384
Mof_C 	C 	0.2432	0.0353	0.324	0.275
Mof_C 	C 	0.2583	0.947	0.3282	-0.27
Mof_H 	H 	0.293	0.9298	0.3724	0.139
Mof_C 	C 	0.2239	0.8861	0.2699	0.143
Mof_H 	H 	0.2351	0.8278	0.2708	-0.005
Mof_C 	C 	0.1691	0.9129	0.2053	-0.194
Mof_H 	H 	0.144	0.8708	0.1669	0.106
Mof_C 	C 	0.1541	0.0006	0.2009	0.133
Mof_H 	H 	0.1191	0.0181	0.1585	-0.012
Mof_C 	C 	0.1915	0.0634	0.2601	-0.224
Mof_C 	C 	0.176	0.1592	0.2568	0.4
Mof_C 	C 	0.2927	0.0382	0.6185	0.083
Mof_H 	H 	0.3257	0.0094	0.6518	-0.004
Mof_C 	C 	0.2475	0.9881	0.5654	-0.131
Mof_H 	H 	0.2502	0.9266	0.5636	0.081
Mof_C 	C 	0.1979	0.029	0.5146	0.063
Mof_C 	C 	0.196	0.1216	0.5206	-0.135
Mof_H 	H 	0.1633	0.1515	0.4877	0.093
Mof_C 	C 	0.2427	0.1681	0.5755	0.082
Mof_H 	H 	0.2408	0.2296	0.5794	0
Mof_C 	C 	0.1492	0.9756	0.4538	0.07
Mof_C 	C 	0.1391	0.8933	0.4847	-0.147
Mof_H 	H 	0.1625	0.8724	0.5444	0.093
Mof_C 	C 	0.0938	0.8448	0.4241	0.093
Mof_H 	H 	0.0871	0.7914	0.4446	-0.013
Mof_C 	C 	0.0678	0.9488	0.3099	0.091
Mof_H 	H 	0.0433	0.9677	0.25	-0.028
Mof_C 	C 	0.1123	0.0045	0.3662	-0.152
Mof_H 	H 	0.1164	0.0593	0.3443	0.102
Mof_C 	C 	0.45	0.0734	0.802	0.083
Mof_H 	H 	0.4526	0.0696	0.7484	-0.004
Mof_C 	C 	0.4847	0.0228	0.8776	-0.133
Mof_H 	H 	0.5098	0.9863	0.8742	0.09
Mof_C 	C 	0.4821	0.0266	0.9587	0.063
Mof_C 	C 	0.4431	0.0828	0.9569	-0.132
Mof_H 	H 	0.4393	0.0876	0.0092	0.087
Mof_C 	C 	0.4095	0.1323	0.8772	0.082
Mof_H 	H 	0.384	0.1698	0.8784	-0.009
Mof_Zn	Zn	0.86124	0.69766	0.68724	1.21
Mof_N 	N 	0.79134	0.6279	0.6242	-0.263
Mof_N 	N 	0.9125	0.6278	0.8008	-0.269
Mof_N 	N 	0.55958	0.3714	0.3381	-0.267
Mof_O 	O 	0.9817	0.772	0.3843	-0.335
Mof_O 	O 	0.9472	0.7001	0.2553	-0.432
Mof_O 	O 	0.6513	0.6788	0.2996	-0.482
Mof_O 	O 	0.6871	0.7149	0.2138	-0.33
Mof_O 	O 	0.78033	0.597	0.3877	-0.29
Mof_O 	O 	0.8802	0.7079	0.588	-0.453
Mof_O 	O 	0.8845	0.5616	0.5781	-0.308
Mof_C 	C 	0.9469	0.7198	0.3271	0.369
Mof_C 	C 	0.9033	0.6855	0.3432	-0.189
Mof_C 	C 	0.8555	0.6591	0.2695	0.155
Mof_H 	H 	0.8509	0.6605	0.2099	-0.008
Mof_C 	C 	0.8135	0.6302	0.2822	-0.278
Mof_H 	H 	0.7804	0.6155	0.2312	0.14
Mof_C 	C 	0.8213	0.6235	0.3707	0.282
Mof_C 	C 	0.8692	0.6487	0.4466	-0.214
Mof_C 	C 	0.909	0.6834	0.4308	0.134
Mof_H 	H 	0.9403	0.7057	0.4807	0.012
Mof_C 	C 	0.879	0.6366	0.5445	0.384
Mof_C 	C 	0.7432	0.5353	0.324	0.274
Mof_C 	C 	0.7583	0.447	0.3282	-0.27
Mof_H 	H 	0.793	0.4298	0.3724	0.139
Mof_C 	C 	0.7239	0.3861	0.2699	0.143
Mof_H 	H 	0.7351	0.3278	0.2708	-0.005
Mof_C 	C 	0.6691	0.4129	0.2053	-0.193
Mof_H 	H 	0.644	0.3708	0.1669	0.107
Mof_C 	C 	0.6541	0.5006	0.2009	0.133
Mof_H 	H 	0.6191	0.5181	0.1585	-0.009
Mof_C 	C 	0.6915	0.5634	0.2601	-0.223
Mof_C 	C 	0.676	0.6592	0.2568	0.4
Mof_C 	C 	0.7927	0.5382	0.6185	0.082
Mof_H 	H 	0.8257	0.5094	0.6518	-0.004
Mof_C 	C 	0.7475	0.4881	0.5654	-0.131
Mof_H 	H 	0.7502	0.4266	0.5636	0.081
Mof_C 	C 	0.6979	0.529	0.5146	0.064
Mof_C 	C 	0.696	0.6216	0.5206	-0.135
Mof_H 	H 	0.6633	0.6515	0.4877	0.094
Mof_C 	C 	0.7427	0.6681	0.5755	0.083
Mof_H 	H 	0.7408	0.7296	0.5794	-0
Mof_C 	C 	0.6492	0.4756	0.4538	0.069
Mof_C 	C 	0.6391	0.3933	0.4847	-0.144
Mof_H 	H 	0.6625	0.3724	0.5444	0.093
Mof_C 	C 	0.5938	0.3448	0.4241	0.095
Mof_H 	H 	0.5871	0.2914	0.4446	-0.008
Mof_C 	C 	0.5678	0.4488	0.3099	0.092
Mof_H 	H 	0.5433	0.4677	0.25	-0.019
Mof_C 	C 	0.6123	0.5045	0.3662	-0.149
Mof_H 	H 	0.6164	0.5593	0.3443	0.103
Mof_C 	C 	0.95	0.5734	0.802	0.044
Mof_H 	H 	0.9526	0.5696	0.7484	0.018
Mof_C 	C 	0.9847	0.5228	0.8776	-0.043
Mof_H 	H 	0.0098	0.4863	0.8742	0.035
Mof_C 	C 	0.9821	0.5266	0.9587	0.054
Mof_C 	C 	0.9431	0.5828	0.9569	-0.122
Mof_H 	H 	0.9393	0.5876	0.0092	0.09
Mof_C 	C 	0.9095	0.6323	0.8772	0.078
Mof_H 	H 	0.884	0.6698	0.8784	-0.007
Mof_Zn	Zn	0.63876	0.19766	0.81276	1.21
Mof_N 	N 	0.70866	0.1279	0.8758	-0.264
Mof_N 	N 	0.5875	0.1278	0.6992	-0.278
Mof_N 	N 	0.94042	0.8714	0.1619	-0.258
Mof_O 	O 	0.5183	0.272	0.1157	-0.353
Mof_O 	O 	0.5528	0.2001	0.2447	-0.446
Mof_O 	O 	0.8487	0.1788	0.2004	-0.479
Mof_O 	O 	0.8129	0.2149	0.2862	-0.329
Mof_O 	O 	0.71967	0.097	0.1123	-0.289
Mof_O 	O 	0.6198	0.2079	0.912	-0.456
Mof_O 	O 	0.6155	0.0616	0.9219	-0.311
Mof_C 	C 	0.5531	0.2198	0.1729	0.373
Mof_C 	C 	0.5967	0.1855	0.1568	-0.196
Mof_C 	C 	0.6445	0.1591	0.2305	0.159
Mof_H 	H 	0.6491	0.1605	0.2901	-0.01
Mof_C 	C 	0.6865	0.1302	0.2178	-0.282
Mof_H 	H 	0.7196	0.1155	0.2688	0.141
Mof_C 	C 	0.6787	0.1235	0.1293	0.284
Mof_C 	C 	0.6308	0.1487	0.0534	-0.218
Mof_C 	C 	0.591	0.1834	0.0692	0.137
Mof_H 	H 	0.5597	0.2057	0.0193	0.003
Mof_C 	C 	0.621	0.1366	0.9555	0.382
Mof_C 	C 	0.7568	0.0353	0.176	0.272
Mof_C 	C 	0.7417	0.947	0.1718	-0.267
Mof_H 	H 	0.707	0.9298	0.1276	0.138
Mof_C 	C 	0.7761	0.8861	0.2301	0.141
Mof_H 	H 	0.7649	0.8278	0.2292	-0.004
Mof_C 	C 	0.8309	0.9129	0.2947	-0.189
Mof_H 	H 	0.856	0.8708	0.3331	0.107
Mof_C 	C 	0.8459	0.0006	0.2991	0.129
Mof_H 	H 	0.8809	0.0181	0.3415	-0.004
Mof_C 	C 	0.8085	0.0634	0.2399	-0.22
Mof_C 	C 	0.824	0.1592	0.2432	0.399
Mof_C 	C 	0.7073	0.0382	0.8815	0.085
Mof_H 	H 	0.6743	0.0094	0.8482	-0.005
Mof_C 	C 	0.7525	0.9881	0.9346	-0.135
Mof_H 	H 	0.7498	0.9266	0.9364	0.081
Mof_C 	C 	0.8021	0.029	0.9854	0.067
Mof_C 	C 	0.804	0.1216	0.9794	-0.141
Mof_H 	H 	0.8367	0.1515	0.0123	0.099
Mof_C 	C 	0.7573	0.1681	0.9245	0.086
Mof_H 	H 	0.7592	0.2296	0.9206	-0.002
Mof_C 	C 	0.8508	0.9756	0.0462	0.069
Mof_C 	C 	0.8609	0.8933	0.0153	-0.135
Mof_H 	H 	0.8375	0.8724	0.9556	0.088
Mof_C 	C 	0.9062	0.8448	0.0759	0.093
Mof_H 	H 	0.9129	0.7914	0.0554	-0.001
Mof_C 	C 	0.9322	0.9488	0.1901	0.095
Mof_H 	H 	0.9567	0.9677	0.25	-0.01
Mof_C 	C 	0.8877	0.0045	0.1338	-0.147
Mof_H 	H 	0.8836	0.0593	0.1557	0.105
Mof_C 	C 	0.55	0.0734	0.698	0.083
Mof_H 	H 	0.5474	0.0696	0.7516	-0.004
Mof_C 	C 	0.5153	0.0228	0.6224	-0.133
Mof_H 	H 	0.4902	0.9863	0.6258	0.09
Mof_C 	C 	0.5179	0.0266	0.5413	0.063
Mof_C 	C 	0.5569	0.0828	0.5431	-0.13
Mof_H 	H 	0.5607	0.0876	0.4908	0.086
Mof_C 	C 	0.5905	0.1323	0.6228	0.081
Mof_H 	H 	0.616	0.1698	0.6216	-0.009
Mof_Zn	Zn	0.13876	0.69766	0.81276	1.209
Mof_N 	N 	0.20866	0.6279	0.8758	-0.264
Mof_N 	N 	0.0875	0.6278	0.6992	-0.289
Mof_N 	N 	0.44042	0.3714	0.1619	-0.267
Mof_O 	O 	0.0183	0.772	0.1157	-0.369
Mof_O 	O 	0.0528	0.7001	0.2447	-0.455
Mof_O 	O 	0.3487	0.6788	0.2004	-0.482
Mof_O 	O 	0.3129	0.7149	0.2862	-0.33
Mof_O 	O 	0.21967	0.597	0.1123	-0.29
Mof_O 	O 	0.1198	0.7079	0.912	-0.46
Mof_O 	O 	0.1155	0.5616	0.9219	-0.313
Mof_C 	C 	0.0531	0.7198	0.1729	0.376
Mof_C 	C 	0.0967	0.6855	0.1568	-0.202
Mof_C 	C 	0.1445	0.6591	0.2305	0.163
Mof_H 	H 	0.1491	0.6605	0.2901	-0.012
Mof_C 	C 	0.1865	0.6302	0.2178	-0.285
Mof_H 	H 	0.2196	0.6155	0.2688	0.142
Mof_C 	C 	0.1787	0.6235	0.1293	0.286
Mof_C 	C 	0.1308	0.6487	0.0534	-0.22
Mof_C 	C 	0.091	0.6834	0.0692	0.141
Mof_H 	H 	0.0597	0.7057	0.0193	-0.004
Mof_C 	C 	0.121	0.6366	0.9555	0.38
Mof_C 	C 	0.2568	0.5353	0.176	0.275
Mof_C 	C 	0.2417	0.447	0.1718	-0.27
Mof_H 	H 	0.207	0.4298	0.1276	0.139
Mof_C 	C 	0.2761	0.3861	0.2301	0.144
Mof_H 	H 	0.2649	0.3278	0.2292	-0.005
Mof_C 	C 	0.3309	0.4129	0.2947	-0.193
Mof_H 	H 	0.356	0.3708	0.3331	0.107
Mof_C 	C 	0.3459	0.5006	0.2991	0.133
Mof_H 	H 	0.3809	0.5181	0.3415	-0.009
Mof_C 	C 	0.3085	0.5634	0.2399	-0.223
Mof_C 	C 	0.324	0.6592	0.2432	0.4
Mof_C 	C 	0.2073	0.5382	0.8815	0.083
Mof_H 	H 	0.1743	0.5094	0.8482	-0.005
Mof_C 	C 	0.2525	0.4881	0.9346	-0.132
Mof_H 	H 	0.2498	0.4266	0.9364	0.081
Mof_C 	C 	0.3021	0.529	0.9854	0.065
Mof_C 	C 	0.304	0.6216	0.9794	-0.141
Mof_H 	H 	0.3367	0.6515	0.0123	0.098
Mof_C 	C 	0.2573	0.6681	0.9245	0.085
Mof_H 	H 	0.2592	0.7296	0.9206	-0.001
Mof_C 	C 	0.3508	0.4756	0.0462	0.069
Mof_C 	C 	0.3609	0.3933	0.0153	-0.141
Mof_H 	H 	0.3375	0.3724	0.9556	0.09
Mof_C 	C 	0.4062	0.3448	0.0759	0.093
Mof_H 	H 	0.4129	0.2914	0.0554	-0.007
Mof_C 	C 	0.4322	0.4488	0.1901	0.092
Mof_H 	H 	0.4567	0.4677	0.25	-0.019
Mof_C 	C 	0.3877	0.5045	0.1338	-0.148
Mof_H 	H 	0.3836	0.5593	0.1557	0.103
Mof_C 	C 	0.05	0.5734	0.698	0.123
Mof_H 	H 	0.0474	0.5696	0.7516	-0.026
Mof_C 	C 	0.0153	0.5228	0.6224	-0.225
Mof_H 	H 	0.9902	0.4863	0.6258	0.147
Mof_C 	C 	0.0179	0.5266	0.5413	0.072
Mof_C 	C 	0.0569	0.5828	0.5431	-0.145
Mof_H 	H 	0.0607	0.5876	0.4908	0.086
Mof_C 	C 	0.0905	0.6323	0.6228	0.087
Mof_H 	H 	0.116	0.6698	0.6216	-0.012
Mof_Zn	Zn	0.63876	0.80234	0.31276	1.21
Mof_N 	N 	0.70866	0.8721	0.3758	-0.263
Mof_N 	N 	0.5875	0.8722	0.1992	-0.278
Mof_N 	N 	0.94042	0.1286	0.6619	-0.258
Mof_O 	O 	0.5183	0.728	0.6157	-0.354
Mof_O 	O 	0.5528	0.7999	0.7447	-0.446
Mof_O 	O 	0.8487	0.8212	0.7004	-0.48
Mof_O 	O 	0.8129	0.7851	0.7862	-0.33
Mof_O 	O 	0.71967	0.903	0.6123	-0.29
Mof_O 	O 	0.6198	0.7921	0.412	-0.456
Mof_O 	O 	0.6155	0.9384	0.4219	-0.311
Mof_C 	C 	0.5531	0.7802	0.6729	0.373
Mof_C 	C 	0.5967	0.8145	0.6568	-0.197
Mof_C 	C 	0.6445	0.8409	0.7305	0.16
Mof_H 	H 	0.6491	0.8395	0.7901	-0.011
Mof_C 	C 	0.6865	0.8698	0.7178	-0.283
Mof_H 	H 	0.7196	0.8845	0.7688	0.141
Mof_C 	C 	0.6787	0.8765	0.6293	0.285
Mof_C 	C 	0.6308	0.8513	0.5534	-0.219
Mof_C 	C 	0.591	0.8166	0.5692	0.139
Mof_H 	H 	0.5597	0.7943	0.5193	0.002
Mof_C 	C 	0.621	0.8634	0.4555	0.384
Mof_C 	C 	0.7568	0.9647	0.676	0.273
Mof_C 	C 	0.7417	0.053	0.6718	-0.267
Mof_H 	H 	0.707	0.0702	0.6276	0.138
Mof_C 	C 	0.7761	0.1139	0.7301	0.141
Mof_H 	H 	0.7649	0.1722	0.7292	-0.004
Mof_C 	C 	0.8309	0.0871	0.7947	-0.19
Mof_H 	H 	0.856	0.1292	0.8331	0.106
Mof_C 	C 	0.8459	0.9994	0.7991	0.129
Mof_H 	H 	0.8809	0.9819	0.8415	-0.005
Mof_C 	C 	0.8085	0.9366	0.7399	-0.221
Mof_C 	C 	0.824	0.8408	0.7432	0.399
Mof_C 	C 	0.7073	0.9618	0.3815	0.083
Mof_H 	H 	0.6743	0.9906	0.3482	-0.004
Mof_C 	C 	0.7525	0.0119	0.4346	-0.132
Mof_H 	H 	0.7498	0.0734	0.4364	0.081
Mof_C 	C 	0.8021	0.971	0.4854	0.065
Mof_C 	C 	0.804	0.8784	0.4794	-0.136
Mof_H 	H 	0.8367	0.8485	0.5123	0.096
Mof_C 	C 	0.7573	0.8319	0.4245	0.083
Mof_H 	H 	0.7592	0.7704	0.4206	-0
Mof_C 	C 	0.8508	0.0244	0.5462	0.069
Mof_C 	C 	0.8609	0.1067	0.5153	-0.142
Mof_H 	H 	0.8375	0.1276	0.4556	0.092
Mof_C 	C 	0.9062	0.1552	0.5759	0.096
Mof_H 	H 	0.9129	0.2086	0.5554	-0.002
Mof_C 	C 	0.9322	0.0512	0.6901	0.094
Mof_H 	H 	0.9567	0.0323	0.75	-0.01
Mof_C 	C 	0.8877	0.9955	0.6338	-0.146
Mof_H 	H 	0.8836	0.9407	0.6557	0.104
Mof_C 	C 	0.55	0.9266	0.198	0.082
Mof_H 	H 	0.5474	0.9304	0.2516	-0.003
Mof_C 	C 	0.5153	0.9772	0.1224	-0.131
Mof_H 	H 	0.4902	0.0137	0.1258	0.089
Mof_C 	C 	0.5179	0.9734	0.0413	0.062
Mof_C 	C 	0.5569	0.9172	0.0431	-0.124
Mof_H 	H 	0.5607	0.9124	0.9908	0.082
Mof_C 	C 	0.5905	0.8677	0.1228	0.079
Mof_H 	H 	0.616	0.8302	0.1216	-0.007
Mof_Zn	Zn	0.13876	0.30234	0.31276	1.209
Mof_N 	N 	0.20866	0.3721	0.3758	-0.263
Mof_N 	N 	0.0875	0.3722	0.1992	-0.288
Mof_N 	N 	0.44042	0.6286	0.6619	-0.267
Mof_O 	O 	0.0183	0.228	0.6157	-0.37
Mof_O 	O 	0.0528	0.2999	0.7447	-0.455
Mof_O 	O 	0.3487	0.3212	0.7004	-0.482
Mof_O 	O 	0.3129	0.2851	0.7862	-0.33
Mof_O 	O 	0.21967	0.403	0.6123	-0.291
Mof_O 	O 	0.1198	0.2921	0.412	-0.46
Mof_O 	O 	0.1155	0.4384	0.4219	-0.313
Mof_C 	C 	0.0531	0.2802	0.6729	0.376
Mof_C 	C 	0.0967	0.3145	0.6568	-0.204
Mof_C 	C 	0.1445	0.3409	0.7305	0.165
Mof_H 	H 	0.1491	0.3395	0.7901	-0.012
Mof_C 	C 	0.1865	0.3698	0.7178	-0.287
Mof_H 	H 	0.2196	0.3845	0.7688	0.142
Mof_C 	C 	0.1787	0.3765	0.6293	0.288
Mof_C 	C 	0.1308	0.3513	0.5534	-0.224
Mof_C 	C 	0.091	0.3166	0.5692	0.143
Mof_H 	H 	0.0597	0.2943	0.5193	-0.007
Mof_C 	C 	0.121	0.3634	0.4555	0.384
Mof_C 	C 	0.2568	0.4647	0.676	0.275
Mof_C 	C 	0.2417	0.553	0.6718	-0.27
Mof_H 	H 	0.207	0.5702	0.6276	0.139
Mof_C 	C 	0.2761	0.6139	0.7301	0.144
Mof_H 	H 	0.2649	0.6722	0.7292	-0.005
Mof_C 	C 	0.3309	0.5871	0.7947	-0.194
Mof_H 	H 	0.356	0.6292	0.8331	0.106
Mof_C 	C 	0.3459	0.4994	0.7991	0.133
Mof_H 	H 	0.3809	0.4819	0.8415	-0.009
Mof_C 	C 	0.3085	0.4366	0.7399	-0.224
Mof_C 	C 	0.324	0.3408	0.7432	0.4
Mof_C 	C 	0.2073	0.4618	0.3815	0.083
Mof_H 	H 	0.1743	0.4906	0.3482	-0.005
Mof_C 	C 	0.2525	0.5119	0.4346	-0.131
Mof_H 	H 	0.2498	0.5734	0.4364	0.081
Mof_C 	C 	0.3021	0.471	0.4854	0.064
Mof_C 	C 	0.304	0.3784	0.4794	-0.135
Mof_H 	H 	0.3367	0.3485	0.5123	0.094
Mof_C 	C 	0.2573	0.3319	0.4245	0.083
Mof_H 	H 	0.2592	0.2704	0.4206	0
Mof_C 	C 	0.3508	0.5244	0.5462	0.069
Mof_C 	C 	0.3609	0.6067	0.5153	-0.144
Mof_H 	H 	0.3375	0.6276	0.4556	0.093
Mof_C 	C 	0.4062	0.6552	0.5759	0.095
Mof_H 	H 	0.4129	0.7086	0.5554	-0.008
Mof_C 	C 	0.4322	0.5512	0.6901	0.092
Mof_H 	H 	0.4567	0.5323	0.75	-0.019
Mof_C 	C 	0.3877	0.4955	0.6338	-0.149
Mof_H 	H 	0.3836	0.4407	0.6557	0.103
Mof_C 	C 	0.05	0.4266	0.198	0.122
Mof_H 	H 	0.0474	0.4304	0.2516	-0.026
Mof_C 	C 	0.0153	0.4772	0.1224	-0.224
Mof_H 	H 	0.9902	0.5137	0.1258	0.147
Mof_C 	C 	0.0179	0.4734	0.0413	0.073
Mof_C 	C 	0.0569	0.4172	0.0431	-0.139
Mof_H 	H 	0.0607	0.4124	0.9908	0.082
Mof_C 	C 	0.0905	0.3677	0.1228	0.085
Mof_H 	H 	0.116	0.3302	0.1216	-0.011
Mof_Zn	Zn	0.36124	0.80234	0.18724	1.21
Mof_N 	N 	0.29134	0.8721	0.1242	-0.263
Mof_N 	N 	0.4125	0.8722	0.3008	-0.278
Mof_N 	N 	0.05958	0.1286	0.8381	-0.274
Mof_O 	O 	0.4817	0.728	0.8843	-0.354
Mof_O 	O 	0.4472	0.7999	0.7553	-0.446
Mof_O 	O 	0.1513	0.8212	0.7996	-0.484
Mof_O 	O 	0.1871	0.7851	0.7138	-0.331
Mof_O 	O 	0.28033	0.903	0.8877	-0.291
Mof_O 	O 	0.3802	0.7921	0.088	-0.457
Mof_O 	O 	0.3845	0.9384	0.0781	-0.311
Mof_C 	C 	0.4469	0.7802	0.8271	0.374
Mof_C 	C 	0.4033	0.8145	0.8432	-0.199
Mof_C 	C 	0.3555	0.8409	0.7695	0.161
Mof_H 	H 	0.3509	0.8395	0.7099	-0.011
Mof_C 	C 	0.3135	0.8698	0.7822	-0.284
Mof_H 	H 	0.2804	0.8845	0.7312	0.142
Mof_C 	C 	0.3213	0.8765	0.8707	0.286
Mof_C 	C 	0.3692	0.8513	0.9466	-0.223
Mof_C 	C 	0.409	0.8166	0.9308	0.14
Mof_H 	H 	0.4403	0.7943	0.9807	0.001
Mof_C 	C 	0.379	0.8634	0.0445	0.387
Mof_C 	C 	0.2432	0.9647	0.824	0.274
Mof_C 	C 	0.2583	0.053	0.8282	-0.269
Mof_H 	H 	0.293	0.0702	0.8724	0.139
Mof_C 	C 	0.2239	0.1139	0.7699	0.143
Mof_H 	H 	0.2351	0.1722	0.7708	-0.005
Mof_C 	C 	0.1691	0.0871	0.7053	-0.193
Mof_H 	H 	0.144	0.1292	0.6669	0.105
Mof_C 	C 	0.1541	0.9994	0.7009	0.133
Mof_H 	H 	0.1191	0.9819	0.6585	-0.013
Mof_C 	C 	0.1915	0.9366	0.7601	-0.224
Mof_C 	C 	0.176	0.8408	0.7568	0.4
Mof_C 	C 	0.2927	0.9618	0.1185	0.083
Mof_H 	H 	0.3257	0.9906	0.1518	-0.004
Mof_C 	C 	0.2475	0.0119	0.0654	-0.132
Mof_H 	H 	0.2502	0.0734	0.0636	0.081
Mof_C 	C 	0.1979	0.971	0.0146	0.064
Mof_C 	C 	0.196	0.8784	0.0206	-0.128
Mof_H 	H 	0.1633	0.8485	0.9877	0.088
Mof_C 	C 	0.2427	0.8319	0.0755	0.08
Mof_H 	H 	0.2408	0.7704	0.0794	0.002
Mof_C 	C 	0.1492	0.0244	0.9538	0.071
Mof_C 	C 	0.1391	0.1067	0.9847	-0.152
Mof_H 	H 	0.1625	0.1276	0.0444	0.095
Mof_C 	C 	0.0938	0.1552	0.9241	0.096
Mof_H 	H 	0.0871	0.2086	0.9446	-0.014
Mof_C 	C 	0.0678	0.0512	0.8099	0.093
Mof_H 	H 	0.0433	0.0323	0.75	-0.028
Mof_C 	C 	0.1123	0.9955	0.8662	-0.155
Mof_H 	H 	0.1164	0.9407	0.8443	0.102
Mof_C 	C 	0.45	0.9266	0.302	0.083
Mof_H 	H 	0.4526	0.9304	0.2484	-0.004
Mof_C 	C 	0.4847	0.9772	0.3776	-0.133
Mof_H 	H 	0.5098	0.0137	0.3742	0.09
Mof_C 	C 	0.4821	0.9734	0.4587	0.063
Mof_C 	C 	0.4431	0.9172	0.4569	-0.13
Mof_H 	H 	0.4393	0.9124	0.5092	0.086
Mof_C 	C 	0.4095	0.8677	0.3772	0.081
Mof_H 	H 	0.384	0.8302	0.3784	-0.009
Mof_Zn	Zn	0.86124	0.30234	0.18724	1.21
Mof_N 	N 	0.79134	0.3721	0.1242	-0.263
Mof_N 	N 	0.9125	0.3722	0.3008	-0.268
Mof_N 	N 	0.55958	0.6286	0.8381	-0.268
Mof_O 	O 	0.9817	0.228	0.8843	-0.336
Mof_O 	O 	0.9472	0.2999	0.7553	-0.433
Mof_O 	O 	0.6513	0.3212	0.7996	-0.482
Mof_O 	O 	0.6871	0.2851	0.7138	-0.33
Mof_O 	O 	0.78033	0.403	0.8877	-0.291
Mof_O 	O 	0.8802	0.2921	0.088	-0.453
Mof_O 	O 	0.8845	0.4384	0.0781	-0.309
Mof_C 	C 	0.9469	0.2802	0.8271	0.37
Mof_C 	C 	0.9033	0.3145	0.8432	-0.191
Mof_C 	C 	0.8555	0.3409	0.7695	0.156
Mof_H 	H 	0.8509	0.3395	0.7099	-0.009
Mof_C 	C 	0.8135	0.3698	0.7822	-0.28
Mof_H 	H 	0.7804	0.3845	0.7312	0.14
Mof_C 	C 	0.8213	0.3765	0.8707	0.284
Mof_C 	C 	0.8692	0.3513	0.9466	-0.218
Mof_C 	C 	0.909	0.3166	0.9308	0.136
Mof_H 	H 	0.9403	0.2943	0.9807	0.01
Mof_C 	C 	0.879	0.3634	0.0445	0.387
Mof_C 	C 	0.7432	0.4647	0.824	0.274
Mof_C 	C 	0.7583	0.553	0.8282	-0.27
Mof_H 	H 	0.793	0.5702	0.8724	0.139
Mof_C 	C 	0.7239	0.6139	0.7699	0.143
Mof_H 	H 	0.7351	0.6722	0.7708	-0.005
Mof_C 	C 	0.6691	0.5871	0.7053	-0.193
Mof_H 	H 	0.644	0.6292	0.6669	0.107
Mof_C 	C 	0.6541	0.4994	0.7009	0.133
Mof_H 	H 	0.6191	0.4819	0.6585	-0.009
Mof_C 	C 	0.6915	0.4366	0.7601	-0.223
Mof_C 	C 	0.676	0.3408	0.7568	0.4
Mof_C 	C 	0.7927	0.4618	0.1185	0.082
Mof_H 	H 	0.8257	0.4906	0.1518	-0.004
Mof_C 	C 	0.7475	0.5119	0.0654	-0.13
Mof_H 	H 	0.7502	0.5734	0.0636	0.081
Mof_C 	C 	0.6979	0.471	0.0146	0.064
Mof_C 	C 	0.696	0.3784	0.0206	-0.131
Mof_H 	H 	0.6633	0.3485	0.9877	0.092
Mof_C 	C 	0.7427	0.3319	0.0755	0.081
Mof_H 	H 	0.7408	0.2704	0.0794	0.001
Mof_C 	C 	0.6492	0.5244	0.9538	0.07
Mof_C 	C 	0.6391	0.6067	0.9847	-0.15
Mof_H 	H 	0.6625	0.6276	0.0444	0.096
Mof_C 	C 	0.5938	0.6552	0.9241	0.097
Mof_H 	H 	0.5871	0.7086	0.9446	-0.009
Mof_C 	C 	0.5678	0.5512	0.8099	0.093
Mof_H 	H 	0.5433	0.5323	0.75	-0.019
Mof_C 	C 	0.6123	0.4955	0.8662	-0.149
Mof_H 	H 	0.6164	0.4407	0.8443	0.103
Mof_C 	C 	0.95	0.4266	0.302	0.044
Mof_H 	H 	0.9526	0.4304	0.2484	0.018
Mof_C 	C 	0.9847	0.4772	0.3776	-0.042
Mof_H 	H 	0.0098	0.5137	0.3742	0.035
Mof_C 	C 	0.9821	0.4734	0.4587	0.054
Mof_C 	C 	0.9431	0.4172	0.4569	-0.115
Mof_H 	H 	0.9393	0.4124	0.5092	0.085
Mof_C 	C 	0.9095	0.3677	0.3772	0.076
Mof_H 	H 	0.884	0.3302	0.3784	-0.005
Mof_Zn	Zn	0.5	0.28606	0.25	1.209
Mof_Zn	Zn	9.17592e-18	0.78606	0.25	1.198
Mof_Zn	Zn	0.5	0.71394	0.75	1.209
Mof_Zn	Zn	2.43979e-33	0.21394	0.75	1.198
_end
