data_functionalizedCrystal
_audit_creation_method	'EQeq! by Chris Wilmer'
_symmetry_space_group_name_H-M	'P1'
_symmetry_Int_Tables_number	1
_symmetry_cell_setting	triclinic
loop_
_symmetry_equiv_pos_as_xyz
  x,y,z
_cell_length_a	15.8831
_cell_length_b	15.8831
_cell_length_c	21.3791
_cell_angle_alpha	90
_cell_angle_beta	90
_cell_angle_gamma	120
loop_
_atom_site_label
_atom_site_type_symbol
_atom_site_fract_x
_atom_site_fract_y
_atom_site_fract_z
_atom_site_charge
Mof_Co	Co	0.70475	0.55636	0.96303	1.17
Mof_Co	Co	0.51764	0.48969	0.85842	1.173
Mof_Co	Co	0.85161	0.29525	0.6297	1.171
Mof_Co	Co	0.97205	0.48236	0.52508	1.173
Mof_Co	Co	0.44364	0.14839	0.29637	1.171
Mof_Co	Co	0.51031	0.02795	0.19175	1.173
Mof_Co	Co	0.29525	0.44364	0.46303	1.171
Mof_Co	Co	0.48236	0.51031	0.35842	1.173
Mof_Co	Co	0.14839	0.70475	0.1297	1.171
Mof_Co	Co	0.02795	0.51764	0.02508	1.175
Mof_Co	Co	0.55636	0.85161	0.79637	1.17
Mof_Co	Co	0.48969	0.97205	0.69175	1.172
Mof_H 	H 	0.6662	0.4699	0.4967	0.044
Mof_H 	H 	0.4623	0.4503	0.6166	0.056
Mof_H 	H 	0.6732	0.4048	0.6774	0.061
Mof_H 	H 	0.4582	0.394	0.7234	0.067
Mof_H 	H 	0.5409	0.3754	0.7468	0.078
Mof_H 	H 	0.7099	0.5983	0.7322	0.155
Mof_H 	H 	0.6943	0.5068	0.7697	0.14
Mof_H 	H 	0.4855	0.5475	0.7102	0.137
Mof_H 	H 	0.5965	0.6209	0.7	0.158
Mof_H 	H 	0.6552	0.7106	0.9672	-0.019
Mof_H 	H 	0.7188	0.8743	0.975	0.089
Mof_H 	H 	0.9809	0.9018	0.9984	0.109
Mof_H 	H 	0.9095	0.7359	0.9902	-0.002
Mof_H 	H 	0.9686	0.0497	0.0029	0.074
Mof_H 	H 	0.7923	0.0274	0.9741	0.057
Mof_H 	H 	0.7754	0.1703	0.9769	0.095
Mof_H 	H 	0.8404	0.3344	0.9889	-0.008
Mof_H 	H 	0.0975	0.3707	0.009	-0.005
Mof_H 	H 	0.0408	0.2087	0.9982	0.099
Mof_H 	H 	0.8037	0.3338	0.16337	0.045
Mof_H 	H 	0.988	0.5377	0.28327	0.056
Mof_H 	H 	0.7316	0.3268	0.34407	0.061
Mof_H 	H 	0.9358	0.5418	0.39007	0.067
Mof_H 	H 	0.8345	0.4591	0.41347	0.078
Mof_H 	H 	0.8884	0.2901	0.39887	0.155
Mof_H 	H 	0.8125	0.3057	0.43637	0.14
Mof_H 	H 	0.062	0.5145	0.37687	0.137
Mof_H 	H 	0.0244	0.4035	0.36667	0.158
Mof_H 	H 	0.0554	0.3448	0.63387	-0.017
Mof_H 	H 	0.1555	0.2812	0.64167	0.089
Mof_H 	H 	0.9209	0.0191	0.66507	0.11
Mof_H 	H 	0.8264	0.0905	0.65687	-0.001
Mof_H 	H 	0.0811	0.0314	0.66957	0.063
Mof_H 	H 	0.2351	0.2077	0.64077	0.06
Mof_H 	H 	0.3949	0.2246	0.64357	0.096
Mof_H 	H 	0.494	0.1596	0.65557	-0.009
Mof_H 	H 	0.2732	0.9025	0.67567	-0.002
Mof_H 	H 	0.1679	0.9592	0.66487	0.096
Mof_H 	H 	0.5301	0.1963	0.83003	0.045
Mof_H 	H 	0.5497	0.012	0.94993	0.055
Mof_H 	H 	0.5952	0.2684	0.01073	0.072
Mof_H 	H 	0.606	0.0642	0.05673	0.068
Mof_H 	H 	0.6246	0.1655	0.08013	0.078
Mof_H 	H 	0.4017	0.1116	0.06553	0.157
Mof_H 	H 	0.4932	0.1875	0.10303	0.141
Mof_H 	H 	0.4525	0.938	0.04353	0.139
Mof_H 	H 	0.3791	0.9756	0.03333	0.161
Mof_H 	H 	0.2894	0.9446	0.30053	-0.017
Mof_H 	H 	0.1257	0.8445	0.30833	0.089
Mof_H 	H 	0.0982	0.0791	0.33173	0.11
Mof_H 	H 	0.2641	0.1736	0.32353	-0.001
Mof_H 	H 	0.9503	0.9189	0.33623	0.062
Mof_H 	H 	0.9726	0.7649	0.30743	0.06
Mof_H 	H 	0.8297	0.6051	0.31023	0.097
Mof_H 	H 	0.6656	0.506	0.32223	-0.009
Mof_H 	H 	0.6293	0.7268	0.34233	-0.003
Mof_H 	H 	0.7913	0.8321	0.33153	0.099
Mof_H 	H 	0.3338	0.5301	0.9967	0.033
Mof_H 	H 	0.5377	0.5497	0.1166	0.058
Mof_H 	H 	0.3268	0.5952	0.1774	0.061
Mof_H 	H 	0.5418	0.606	0.2234	0.068
Mof_H 	H 	0.4591	0.6246	0.2468	0.078
Mof_H 	H 	0.2901	0.4017	0.2322	0.155
Mof_H 	H 	0.3057	0.4932	0.2697	0.14
Mof_H 	H 	0.5145	0.4525	0.2102	0.137
Mof_H 	H 	0.4035	0.3791	0.2	0.159
Mof_H 	H 	0.3448	0.2894	0.4672	-0.017
Mof_H 	H 	0.2812	0.1257	0.475	0.089
Mof_H 	H 	0.0191	0.0982	0.4984	0.11
Mof_H 	H 	0.0905	0.2641	0.4902	-0.001
Mof_H 	H 	0.0314	0.9503	0.5029	0.062
Mof_H 	H 	0.2077	0.9726	0.4741	0.06
Mof_H 	H 	0.2246	0.8297	0.4769	0.097
Mof_H 	H 	0.1596	0.6656	0.4889	-0.009
Mof_H 	H 	0.9025	0.6293	0.509	-0.003
Mof_H 	H 	0.9592	0.7913	0.4982	0.099
Mof_H 	H 	0.1963	0.6662	0.66337	0.044
Mof_H 	H 	0.012	0.4623	0.78327	0.056
Mof_H 	H 	0.2684	0.6732	0.84407	0.06
Mof_H 	H 	0.0642	0.4582	0.89007	0.066
Mof_H 	H 	0.1655	0.5409	0.91347	0.076
Mof_H 	H 	0.1116	0.7099	0.89887	0.153
Mof_H 	H 	0.1875	0.6943	0.93637	0.137
Mof_H 	H 	0.938	0.4855	0.87687	0.137
Mof_H 	H 	0.9756	0.5965	0.86667	0.158
Mof_H 	H 	0.9446	0.6552	0.13387	-0.016
Mof_H 	H 	0.8445	0.7188	0.14167	0.09
Mof_H 	H 	0.0791	0.9809	0.16507	0.111
Mof_H 	H 	0.1736	0.9095	0.15687	-0.001
Mof_H 	H 	0.9189	0.9686	0.16957	0.063
Mof_H 	H 	0.7649	0.7923	0.14077	0.06
Mof_H 	H 	0.6051	0.7754	0.14357	0.097
Mof_H 	H 	0.506	0.8404	0.15557	-0.009
Mof_H 	H 	0.7268	0.0975	0.17567	-0.001
Mof_H 	H 	0.8321	0.0408	0.16487	0.097
Mof_H 	H 	0.4699	0.8037	0.33003	0.044
Mof_H 	H 	0.4503	0.988	0.44993	0.056
Mof_H 	H 	0.4048	0.7316	0.51073	0.061
Mof_H 	H 	0.394	0.9358	0.55673	0.067
Mof_H 	H 	0.3754	0.8345	0.58013	0.078
Mof_H 	H 	0.5983	0.8884	0.56553	0.155
Mof_H 	H 	0.5068	0.8125	0.60303	0.14
Mof_H 	H 	0.5475	0.062	0.54353	0.137
Mof_H 	H 	0.6209	0.0244	0.53333	0.158
Mof_H 	H 	0.7106	0.0554	0.80053	-0.017
Mof_H 	H 	0.8743	0.1555	0.80833	0.09
Mof_H 	H 	0.9018	0.9209	0.83173	0.111
Mof_H 	H 	0.7359	0.8264	0.82353	-0.002
Mof_H 	H 	0.0497	0.0811	0.83623	0.063
Mof_H 	H 	0.0274	0.2351	0.80743	0.06
Mof_H 	H 	0.1703	0.3949	0.81023	0.097
Mof_H 	H 	0.3344	0.494	0.82223	-0.009
Mof_H 	H 	0.3707	0.2732	0.84233	-0.003
Mof_H 	H 	0.2087	0.1679	0.83153	0.098
Mof_C 	C 	0.6846	0.4358	0.58528	-0.079
Mof_C 	C 	0.6398	0.4578	0.53669	0.014
Mof_C 	C 	0.555	0.4615	0.54848	-0.079
Mof_C 	C 	0.5186	0.4478	0.60901	-0.062
Mof_C 	C 	0.5648	0.4305	0.65835	0.062
Mof_C 	C 	0.6448	0.4213	0.64515	-0.061
Mof_C 	C 	0.5282	0.4212	0.72464	-0.166
Mof_C 	C 	0.6778	0.5579	0.76836	-0.36
Mof_C 	C 	0.7164	0.6195	0.8273	0.42
Mof_C 	C 	0.5477	0.5832	0.73126	-0.361
Mof_C 	C 	0.5429	0.6519	0.77884	0.429
Mof_C 	C 	0.7706	0.4207	0.57729	0.378
Mof_C 	C 	0.4989	0.4762	0.4964	0.383
Mof_C 	C 	0.7216	0.7497	0.97405	0.111
Mof_C 	C 	0.7594	0.848	0.9784	-0.186
Mof_C 	C 	0.8588	0.9086	0.98787	0.138
Mof_C 	C 	0.9141	0.8643	0.9923	-0.191
Mof_C 	C 	0.8707	0.7643	0.9875	0.117
Mof_C 	C 	0.9028	0.0143	0.9929	-0.106
Mof_C 	C 	0.8579	0.0634	0.9845	-0.085
Mof_C 	C 	0.8989	0.1682	0.9895	0.134
Mof_C 	C 	0.8416	0.2093	0.9848	-0.191
Mof_C 	C 	0.8815	0.3086	0.9916	0.101
Mof_C 	C 	0.0311	0.3297	0.0034	0.118
Mof_C 	C 	0.9976	0.2321	0.9972	-0.198
Mof_C 	C 	0.7512	0.3154	0.25195	-0.078
Mof_C 	C 	0.818	0.3602	0.20336	0.014
Mof_C 	C 	0.9065	0.445	0.21515	-0.078
Mof_C 	C 	0.9292	0.4814	0.27568	-0.062
Mof_C 	C 	0.8657	0.4352	0.32502	0.063
Mof_C 	C 	0.7765	0.3552	0.31182	-0.061
Mof_C 	C 	0.893	0.4718	0.39131	-0.167
Mof_C 	C 	0.8801	0.3222	0.43503	-0.36
Mof_C 	C 	0.9031	0.2836	0.49397	0.419
Mof_C 	C 	0.0355	0.4523	0.39793	-0.361
Mof_C 	C 	0.109	0.4571	0.44551	0.429
Mof_C 	C 	0.6501	0.2294	0.24396	0.378
Mof_C 	C 	0.9773	0.5011	0.16307	0.383
Mof_C 	C 	0.0281	0.2784	0.64072	0.11
Mof_C 	C 	0.0886	0.2406	0.64507	-0.183
Mof_C 	C 	0.0498	0.1412	0.65454	0.135
Mof_C 	C 	0.9502	0.0859	0.65897	-0.186
Mof_C 	C 	0.8936	0.1293	0.65417	0.117
Mof_C 	C 	0.1115	0.0972	0.65957	-0.091
Mof_C 	C 	0.2055	0.1421	0.65117	-0.091
Mof_C 	C 	0.2693	0.1011	0.65617	0.134
Mof_C 	C 	0.3677	0.1584	0.65147	-0.192
Mof_C 	C 	0.4271	0.1185	0.65827	0.11
Mof_C 	C 	0.2986	0.9689	0.67007	0.101
Mof_C 	C 	0.2345	0.0024	0.66387	-0.182
Mof_C 	C 	0.5642	0.2488	0.91861	-0.074
Mof_C 	C 	0.5422	0.182	0.87002	0.012
Mof_C 	C 	0.5385	0.0935	0.88181	-0.079
Mof_C 	C 	0.5522	0.0708	0.94234	-0.062
Mof_C 	C 	0.5695	0.1343	0.99168	0.06
Mof_C 	C 	0.5787	0.2235	0.97848	-0.076
Mof_C 	C 	0.5788	0.107	0.05797	-0.161
Mof_C 	C 	0.4421	0.1199	0.10169	-0.361
Mof_C 	C 	0.3805	0.0969	0.16063	0.42
Mof_C 	C 	0.4168	0.9645	0.06459	-0.361
Mof_C 	C 	0.3481	0.891	0.11217	0.43
Mof_C 	C 	0.5793	0.3499	0.91062	0.376
Mof_C 	C 	0.5238	0.0227	0.82973	0.384
Mof_C 	C 	0.2503	0.9719	0.30738	0.111
Mof_C 	C 	0.152	0.9114	0.31173	-0.183
Mof_C 	C 	0.0914	0.9502	0.3212	0.135
Mof_C 	C 	0.1357	0.0498	0.32563	-0.187
Mof_C 	C 	0.2357	0.1064	0.32083	0.117
Mof_C 	C 	0.9857	0.8885	0.32623	-0.09
Mof_C 	C 	0.9366	0.7945	0.31783	-0.093
Mof_C 	C 	0.8318	0.7307	0.32283	0.137
Mof_C 	C 	0.7907	0.6323	0.31813	-0.194
Mof_C 	C 	0.6914	0.5729	0.32493	0.111
Mof_C 	C 	0.6703	0.7014	0.33673	0.106
Mof_C 	C 	0.7679	0.7655	0.33053	-0.187
Mof_C 	C 	0.3154	0.5642	0.08528	-0.083
Mof_C 	C 	0.3602	0.5422	0.03669	0.029
Mof_C 	C 	0.445	0.5385	0.04848	-0.072
Mof_C 	C 	0.4814	0.5522	0.10901	-0.064
Mof_C 	C 	0.4352	0.5695	0.15835	0.063
Mof_C 	C 	0.3552	0.5787	0.14515	-0.059
Mof_C 	C 	0.4718	0.5788	0.22464	-0.167
Mof_C 	C 	0.3222	0.4421	0.26836	-0.36
Mof_C 	C 	0.2836	0.3805	0.3273	0.42
Mof_C 	C 	0.4523	0.4168	0.23126	-0.361
Mof_C 	C 	0.4571	0.3481	0.27884	0.429
Mof_C 	C 	0.2294	0.5793	0.07729	0.381
Mof_C 	C 	0.5011	0.5238	0.9964	0.365
Mof_C 	C 	0.2784	0.2503	0.47405	0.111
Mof_C 	C 	0.2406	0.152	0.4784	-0.183
Mof_C 	C 	0.1412	0.0914	0.48787	0.135
Mof_C 	C 	0.0859	0.1357	0.4923	-0.186
Mof_C 	C 	0.1293	0.2357	0.4875	0.117
Mof_C 	C 	0.0972	0.9857	0.4929	-0.09
Mof_C 	C 	0.1421	0.9366	0.4845	-0.093
Mof_C 	C 	0.1011	0.8318	0.4895	0.138
Mof_C 	C 	0.1584	0.7907	0.4848	-0.195
Mof_C 	C 	0.1185	0.6914	0.4916	0.111
Mof_C 	C 	0.9689	0.6703	0.5034	0.107
Mof_C 	C 	0.0024	0.7679	0.4972	-0.188
Mof_C 	C 	0.2488	0.6846	0.75195	-0.079
Mof_C 	C 	0.182	0.6398	0.70336	0.015
Mof_C 	C 	0.0935	0.555	0.71515	-0.079
Mof_C 	C 	0.0708	0.5186	0.77568	-0.061
Mof_C 	C 	0.1343	0.5648	0.82502	0.061
Mof_C 	C 	0.2235	0.6448	0.81182	-0.06
Mof_C 	C 	0.107	0.5282	0.89131	-0.165
Mof_C 	C 	0.1199	0.6778	0.93503	-0.356
Mof_C 	C 	0.0969	0.7164	0.99397	0.408
Mof_C 	C 	0.9645	0.5477	0.89793	-0.361
Mof_C 	C 	0.891	0.5429	0.94551	0.43
Mof_C 	C 	0.3499	0.7706	0.74396	0.378
Mof_C 	C 	0.0227	0.4989	0.66307	0.383
Mof_C 	C 	0.9719	0.7216	0.14072	0.112
Mof_C 	C 	0.9114	0.7594	0.14507	-0.183
Mof_C 	C 	0.9502	0.8588	0.15454	0.137
Mof_C 	C 	0.0498	0.9141	0.15897	-0.187
Mof_C 	C 	0.1064	0.8707	0.15417	0.119
Mof_C 	C 	0.8885	0.9028	0.15957	-0.091
Mof_C 	C 	0.7945	0.8579	0.15117	-0.09
Mof_C 	C 	0.7307	0.8989	0.15617	0.135
Mof_C 	C 	0.6323	0.8416	0.15147	-0.192
Mof_C 	C 	0.5729	0.8815	0.15827	0.111
Mof_C 	C 	0.7014	0.0311	0.17007	0.102
Mof_C 	C 	0.7655	0.9976	0.16387	-0.181
Mof_C 	C 	0.4358	0.7512	0.41861	-0.079
Mof_C 	C 	0.4578	0.818	0.37002	0.014
Mof_C 	C 	0.4615	0.9065	0.38181	-0.079
Mof_C 	C 	0.4478	0.9292	0.44234	-0.062
Mof_C 	C 	0.4305	0.8657	0.49168	0.062
Mof_C 	C 	0.4213	0.7765	0.47848	-0.061
Mof_C 	C 	0.4212	0.893	0.55797	-0.166
Mof_C 	C 	0.5579	0.8801	0.60169	-0.36
Mof_C 	C 	0.6195	0.9031	0.66063	0.419
Mof_C 	C 	0.5832	0.0355	0.56459	-0.36
Mof_C 	C 	0.6519	0.109	0.61217	0.429
Mof_C 	C 	0.4207	0.6501	0.41062	0.378
Mof_C 	C 	0.4762	0.9773	0.32973	0.383
Mof_C 	C 	0.7497	0.0281	0.80738	0.114
Mof_C 	C 	0.848	0.0886	0.81173	-0.185
Mof_C 	C 	0.9086	0.0498	0.8212	0.139
Mof_C 	C 	0.8643	0.9502	0.82563	-0.19
Mof_C 	C 	0.7643	0.8936	0.82083	0.119
Mof_C 	C 	0.0143	0.1115	0.82623	-0.093
Mof_C 	C 	0.0634	0.2055	0.81783	-0.091
Mof_C 	C 	0.1682	0.2693	0.82283	0.136
Mof_C 	C 	0.2093	0.3677	0.81813	-0.194
Mof_C 	C 	0.3086	0.4271	0.82493	0.11
Mof_C 	C 	0.3297	0.2986	0.83673	0.105
Mof_C 	C 	0.2321	0.2345	0.83053	-0.187
Mof_N 	N 	0.57182	0.51353	0.76066	-0.086
Mof_N 	N 	0.7757	0.70735	0.97925	-0.248
Mof_N 	N 	0.9748	0.36892	0.00171	-0.239
Mof_N 	N 	0.94171	0.42818	0.42733	-0.086
Mof_N 	N 	0.93165	0.2243	0.64592	-0.246
Mof_N 	N 	0.39412	0.0252	0.66838	-0.242
Mof_N 	N 	0.48647	0.05829	0.09399	-0.087
Mof_N 	N 	0.29265	0.06835	0.31258	-0.246
Mof_N 	N 	0.63108	0.60588	0.33504	-0.243
Mof_N 	N 	0.42818	0.48647	0.26066	-0.086
Mof_N 	N 	0.2243	0.29265	0.47925	-0.246
Mof_N 	N 	0.0252	0.63108	0.50171	-0.244
Mof_N 	N 	0.05829	0.57182	0.92733	-0.089
Mof_N 	N 	0.06835	0.7757	0.14592	-0.246
Mof_N 	N 	0.60588	0.9748	0.16838	-0.242
Mof_N 	N 	0.51353	0.94171	0.59399	-0.087
Mof_N 	N 	0.70735	0.93165	0.81258	-0.248
Mof_N 	N 	0.36892	0.39412	0.83504	-0.243
Mof_O 	O 	0.66219	0.57972	0.87611	-0.549
Mof_O 	O 	0.79169	0.69659	0.82642	-0.299
Mof_O 	O 	0.51433	0.61956	0.83309	-0.425
Mof_O 	O 	0.56413	0.73363	0.75906	-0.431
Mof_O 	O 	0.77533	0.36502	0.61632	-0.445
Mof_O 	O 	0.83027	0.465	0.53422	-0.428
Mof_O 	O 	0.53757	0.50066	0.44385	-0.429
Mof_O 	O 	0.41571	0.45985	0.51082	-0.449
Mof_O 	O 	0.91753	0.33781	0.54278	-0.548
Mof_O 	O 	0.9049	0.20831	0.49309	-0.298
Mof_O 	O 	0.10523	0.48567	0.49976	-0.425
Mof_O 	O 	0.1695	0.43587	0.42573	-0.431
Mof_O 	O 	0.58969	0.22467	0.28299	-0.445
Mof_O 	O 	0.63473	0.16973	0.20089	-0.427
Mof_O 	O 	0.96309	0.46243	0.11052	-0.428
Mof_O 	O 	0.04414	0.58429	0.17749	-0.449
Mof_O 	O 	0.42028	0.08247	0.20944	-0.548
Mof_O 	O 	0.30341	0.0951	0.15975	-0.298
Mof_O 	O 	0.38044	0.89477	0.16642	-0.425
Mof_O 	O 	0.26637	0.8305	0.09239	-0.43
Mof_O 	O 	0.63498	0.41031	0.94965	-0.447
Mof_O 	O 	0.535	0.36527	0.86755	-0.427
Mof_O 	O 	0.49934	0.03691	0.77718	-0.429
Mof_O 	O 	0.54015	0.95586	0.84415	-0.451
Mof_O 	O 	0.33781	0.42028	0.37611	-0.548
Mof_O 	O 	0.20831	0.30341	0.32642	-0.298
Mof_O 	O 	0.48567	0.38044	0.33309	-0.425
Mof_O 	O 	0.43587	0.26637	0.25906	-0.431
Mof_O 	O 	0.22467	0.63498	0.11632	-0.445
Mof_O 	O 	0.16973	0.535	0.03422	-0.425
Mof_O 	O 	0.46243	0.49934	0.94385	-0.426
Mof_O 	O 	0.58429	0.54015	0.01082	-0.436
Mof_O 	O 	0.08247	0.66219	0.04278	-0.54
Mof_O 	O 	0.0951	0.79169	0.99309	-0.299
Mof_O 	O 	0.89477	0.51433	0.99976	-0.43
Mof_O 	O 	0.8305	0.56413	0.92573	-0.432
Mof_O 	O 	0.41031	0.77533	0.78299	-0.445
Mof_O 	O 	0.36527	0.83027	0.70089	-0.428
Mof_O 	O 	0.03691	0.53757	0.61052	-0.429
Mof_O 	O 	0.95586	0.41571	0.67749	-0.449
Mof_O 	O 	0.57972	0.91753	0.70944	-0.548
Mof_O 	O 	0.69659	0.9049	0.65975	-0.299
Mof_O 	O 	0.61956	0.10523	0.66642	-0.425
Mof_O 	O 	0.73363	0.1695	0.59239	-0.431
Mof_O 	O 	0.36502	0.58969	0.44965	-0.445
Mof_O 	O 	0.465	0.63473	0.36755	-0.428
Mof_O 	O 	0.50066	0.96309	0.27718	-0.429
Mof_O 	O 	0.45985	0.04414	0.34415	-0.449
_end
