data_functionalizedCrystal
_audit_creation_method	'EQeq! by Chris Wilmer'
_symmetry_space_group_name_H-M	'P1'
_symmetry_Int_Tables_number	1
_symmetry_cell_setting	triclinic
loop_
_symmetry_equiv_pos_as_xyz
  x,y,z
_cell_length_a	26.4422
_cell_length_b	26.4422
_cell_length_c	18.9703
_cell_angle_alpha	90
_cell_angle_beta	90
_cell_angle_gamma	120
loop_
_atom_site_label
_atom_site_type_symbol
_atom_site_fract_x
_atom_site_fract_y
_atom_site_fract_z
_atom_site_charge
Mof_Zn	Zn	0.10599	0.43877	0.40927	1.186
Mof_N 	N 	0.0395	0.3767	0.4648	-0.272
Mof_C 	C 	0.0128	0.3129	0.4655	0.037
Mof_H 	H 	0.0126	0.2878	0.431	-0.005
Mof_C 	C 	0.0391	0.33	0.4911	-0.055
Mof_H 	H 	0.0682	0.3206	0.4979	0.019
Mof_N 	N 	0.1747	0.4348	0.4438	-0.296
Mof_C 	C 	0.1794	0.4103	0.5083	0.09
Mof_H 	H 	0.152	0.3966	0.5445	-0.212
Mof_C 	C 	0.1929	0.4369	0.5137	0.01
Mof_H 	H 	0.1731	0.438	0.5536	-0.169
Mof_C 	C 	0.1481	0.4146	0.568	0.429
Mof_N 	N 	0.1178	0.427	0.6189	-0.178
Mof_N 	N 	0.1161	0.5151	0.4398	-0.276
Mof_C 	C 	0.1678	0.556	0.4678	0.001
Mof_H 	H 	0.1976	0.55	0.484	0.02
Mof_C 	C 	0.1121	0.5304	0.5118	-0.011
Mof_H 	H 	0.1099	0.5087	0.5515	0.037
Mof_O 	O 	0.0136	0.5487	0.3682	-0.165
Mof_N 	N 	0.0835	0.415	0.3089	-0.278
Mof_C 	C 	0.0339	0.37	0.287	0.011
Mof_H 	H 	0.0041	0.343	0.3157	0.015
Mof_O 	O 	0.18606	0.51473	0.3072	-0.17
Mof_Zn	Zn	0.56123	0.66722	0.40927	1.187
Mof_N 	N 	0.6233	0.6628	0.4648	-0.273
Mof_C 	C 	0.6871	0.6999	0.4655	0.021
Mof_H 	H 	0.7122	0.7248	0.431	0.002
Mof_C 	C 	0.67	0.7091	0.4911	-0.037
Mof_H 	H 	0.6794	0.7476	0.4979	0.015
Mof_N 	N 	0.5652	0.7399	0.4438	-0.296
Mof_C 	C 	0.5897	0.7691	0.5083	0.088
Mof_H 	H 	0.6034	0.7554	0.5445	-0.211
Mof_C 	C 	0.5631	0.756	0.5137	0.011
Mof_H 	H 	0.562	0.7351	0.5536	-0.169
Mof_C 	C 	0.5854	0.7335	0.568	0.428
Mof_N 	N 	0.573	0.6908	0.6189	-0.177
Mof_N 	N 	0.4849	0.601	0.4398	-0.276
Mof_C 	C 	0.444	0.6118	0.4678	0
Mof_H 	H 	0.45	0.6476	0.484	0.02
Mof_C 	C 	0.4696	0.5817	0.5118	-0.011
Mof_H 	H 	0.4913	0.6012	0.5515	0.037
Mof_O 	O 	0.4513	0.4649	0.3682	-0.163
Mof_N 	N 	0.585	0.6685	0.3089	-0.278
Mof_C 	C 	0.63	0.6639	0.287	0.011
Mof_H 	H 	0.657	0.6611	0.3157	0.017
Mof_O 	O 	0.48527	0.67133	0.3072	-0.17
Mof_Zn	Zn	0.33278	0.89401	0.40927	1.187
Mof_N 	N 	0.3372	0.9605	0.4648	-0.272
Mof_C 	C 	0.3001	0.9872	0.4655	0.003
Mof_H 	H 	0.2752	0.9874	0.431	0.009
Mof_C 	C 	0.2909	0.9609	0.4911	-0.017
Mof_H 	H 	0.2524	0.9318	0.4979	0.008
Mof_N 	N 	0.2601	0.8253	0.4438	-0.296
Mof_C 	C 	0.2309	0.8206	0.5083	0.089
Mof_H 	H 	0.2446	0.848	0.5445	-0.211
Mof_C 	C 	0.244	0.8071	0.5137	0.01
Mof_H 	H 	0.2649	0.8269	0.5536	-0.169
Mof_C 	C 	0.2665	0.8519	0.568	0.428
Mof_N 	N 	0.3092	0.8822	0.6189	-0.176
Mof_N 	N 	0.399	0.8839	0.4398	-0.276
Mof_C 	C 	0.3882	0.8322	0.4678	0
Mof_H 	H 	0.3524	0.8024	0.484	0.021
Mof_C 	C 	0.4183	0.8879	0.5118	-0.01
Mof_H 	H 	0.3988	0.8901	0.5515	0.038
Mof_O 	O 	0.5351	0.9864	0.3682	-0.161
Mof_N 	N 	0.3315	0.9165	0.3089	-0.278
Mof_C 	C 	0.3361	0.9661	0.287	0.011
Mof_H 	H 	0.3389	0.9959	0.3157	0.018
Mof_O 	O 	0.32867	0.81394	0.3072	-0.17
Mof_Zn	Zn	0.89401	0.56123	0.90927	1.187
Mof_N 	N 	0.9605	0.6233	0.9648	-0.269
Mof_C 	C 	0.9872	0.6871	0.9655	-0.006
Mof_H 	H 	0.9874	0.7122	0.931	0.013
Mof_C 	C 	0.9609	0.67	0.9911	-0.005
Mof_H 	H 	0.9318	0.6794	0.9979	0.006
Mof_N 	N 	0.8253	0.5652	0.9438	-0.294
Mof_C 	C 	0.8206	0.5897	0.0083	0.086
Mof_H 	H 	0.848	0.6034	0.0445	-0.214
Mof_C 	C 	0.8071	0.5631	0.0137	0.011
Mof_H 	H 	0.8269	0.562	0.0536	-0.173
Mof_C 	C 	0.8519	0.5854	0.068	0.434
Mof_N 	N 	0.8822	0.573	0.1189	-0.178
Mof_N 	N 	0.8839	0.4849	0.9398	-0.274
Mof_C 	C 	0.8322	0.444	0.9678	0.003
Mof_H 	H 	0.8024	0.45	0.984	0.021
Mof_C 	C 	0.8879	0.4696	0.0118	-0.015
Mof_H 	H 	0.8901	0.4913	0.0515	0.038
Mof_O 	O 	0.9864	0.4513	0.8682	-0.16
Mof_N 	N 	0.9165	0.585	0.8089	-0.277
Mof_C 	C 	0.9661	0.63	0.787	0.012
Mof_H 	H 	0.9959	0.657	0.8157	0.018
Mof_O 	O 	0.81394	0.48527	0.8072	-0.17
Mof_Zn	Zn	0.43877	0.33278	0.90927	1.187
Mof_N 	N 	0.3767	0.3372	0.9648	-0.271
Mof_C 	C 	0.3129	0.3001	0.9655	0.01
Mof_H 	H 	0.2878	0.2752	0.931	0.006
Mof_C 	C 	0.33	0.2909	0.9911	-0.022
Mof_H 	H 	0.3206	0.2524	0.9979	0.011
Mof_N 	N 	0.4348	0.2601	0.9438	-0.294
Mof_C 	C 	0.4103	0.2309	0.0083	0.088
Mof_H 	H 	0.3966	0.2446	0.0445	-0.216
Mof_C 	C 	0.4369	0.244	0.0137	0.009
Mof_H 	H 	0.438	0.2649	0.0536	-0.173
Mof_C 	C 	0.4146	0.2665	0.068	0.435
Mof_N 	N 	0.427	0.3092	0.1189	-0.18
Mof_N 	N 	0.5151	0.399	0.9398	-0.274
Mof_C 	C 	0.556	0.3882	0.9678	0.003
Mof_H 	H 	0.55	0.3524	0.984	0.021
Mof_C 	C 	0.5304	0.4183	0.0118	-0.016
Mof_H 	H 	0.5087	0.3988	0.0515	0.038
Mof_O 	O 	0.5487	0.5351	0.8682	-0.162
Mof_N 	N 	0.415	0.3315	0.8089	-0.278
Mof_C 	C 	0.37	0.3361	0.787	0.011
Mof_H 	H 	0.343	0.3389	0.8157	0.017
Mof_O 	O 	0.51473	0.32867	0.8072	-0.17
Mof_Zn	Zn	0.66722	0.10599	0.90927	1.187
Mof_N 	N 	0.6628	0.0395	0.9648	-0.269
Mof_C 	C 	0.6999	0.0128	0.9655	0.028
Mof_H 	H 	0.7248	0.0126	0.931	-0.001
Mof_C 	C 	0.7091	0.0391	0.9911	-0.042
Mof_H 	H 	0.7476	0.0682	0.9979	0.017
Mof_N 	N 	0.7399	0.1747	0.9438	-0.293
Mof_C 	C 	0.7691	0.1794	0.0083	0.087
Mof_H 	H 	0.7554	0.152	0.0445	-0.215
Mof_C 	C 	0.756	0.1929	0.0137	0.01
Mof_H 	H 	0.7351	0.1731	0.0536	-0.173
Mof_C 	C 	0.7335	0.1481	0.068	0.435
Mof_N 	N 	0.6908	0.1178	0.1189	-0.18
Mof_N 	N 	0.601	0.1161	0.9398	-0.274
Mof_C 	C 	0.6118	0.1678	0.9678	0.004
Mof_H 	H 	0.6476	0.1976	0.984	0.021
Mof_C 	C 	0.5817	0.1121	0.0118	-0.016
Mof_H 	H 	0.6012	0.1099	0.0515	0.037
Mof_O 	O 	0.4649	0.0136	0.8682	-0.164
Mof_N 	N 	0.6685	0.0835	0.8089	-0.278
Mof_C 	C 	0.6639	0.0339	0.787	0.011
Mof_H 	H 	0.6611	0.0041	0.8157	0.016
Mof_O 	O 	0.67133	0.18606	0.8072	-0.17
Mof_Zn	Zn	0.43877	0.10599	0.59073	1.187
Mof_N 	N 	0.3767	0.0395	0.5352	-0.271
Mof_C 	C 	0.3129	0.0128	0.5345	0.04
Mof_H 	H 	0.2878	0.0126	0.569	-0.006
Mof_C 	C 	0.33	0.0391	0.5089	-0.057
Mof_H 	H 	0.3206	0.0682	0.5021	0.02
Mof_N 	N 	0.4348	0.1747	0.5562	-0.296
Mof_C 	C 	0.4103	0.1794	0.4917	0.09
Mof_H 	H 	0.3966	0.152	0.4555	-0.212
Mof_C 	C 	0.4369	0.1929	0.4863	0.01
Mof_H 	H 	0.438	0.1731	0.4464	-0.17
Mof_C 	C 	0.4146	0.1481	0.432	0.429
Mof_N 	N 	0.427	0.1178	0.3811	-0.179
Mof_N 	N 	0.5151	0.1161	0.5602	-0.276
Mof_C 	C 	0.556	0.1678	0.5322	0.001
Mof_H 	H 	0.55	0.1976	0.516	0.02
Mof_C 	C 	0.5304	0.1121	0.4882	-0.011
Mof_H 	H 	0.5087	0.1099	0.4485	0.037
Mof_O 	O 	0.5487	0.0136	0.6318	-0.165
Mof_N 	N 	0.415	0.0835	0.6911	-0.278
Mof_C 	C 	0.37	0.0339	0.713	0.011
Mof_H 	H 	0.343	0.0041	0.6843	0.015
Mof_O 	O 	0.51473	0.18606	0.6928	-0.17
Mof_Zn	Zn	0.66722	0.56123	0.59073	1.187
Mof_N 	N 	0.6628	0.6233	0.5352	-0.273
Mof_C 	C 	0.6999	0.6871	0.5345	0.021
Mof_H 	H 	0.7248	0.7122	0.569	0.002
Mof_C 	C 	0.7091	0.67	0.5089	-0.038
Mof_H 	H 	0.7476	0.6794	0.5021	0.015
Mof_N 	N 	0.7399	0.5652	0.5562	-0.296
Mof_C 	C 	0.7691	0.5897	0.4917	0.088
Mof_H 	H 	0.7554	0.6034	0.4555	-0.211
Mof_C 	C 	0.756	0.5631	0.4863	0.011
Mof_H 	H 	0.7351	0.562	0.4464	-0.17
Mof_C 	C 	0.7335	0.5854	0.432	0.428
Mof_N 	N 	0.6908	0.573	0.3811	-0.177
Mof_N 	N 	0.601	0.4849	0.5602	-0.276
Mof_C 	C 	0.6118	0.444	0.5322	0
Mof_H 	H 	0.6476	0.45	0.516	0.02
Mof_C 	C 	0.5817	0.4696	0.4882	-0.011
Mof_H 	H 	0.6012	0.4913	0.4485	0.037
Mof_O 	O 	0.4649	0.4513	0.6318	-0.163
Mof_N 	N 	0.6685	0.585	0.6911	-0.278
Mof_C 	C 	0.6639	0.63	0.713	0.012
Mof_H 	H 	0.6611	0.657	0.6843	0.017
Mof_O 	O 	0.67133	0.48527	0.6928	-0.17
Mof_Zn	Zn	0.89401	0.33278	0.59073	1.187
Mof_N 	N 	0.9605	0.3372	0.5352	-0.272
Mof_C 	C 	0.9872	0.3001	0.5345	0.005
Mof_H 	H 	0.9874	0.2752	0.569	0.008
Mof_C 	C 	0.9609	0.2909	0.5089	-0.02
Mof_H 	H 	0.9318	0.2524	0.5021	0.009
Mof_N 	N 	0.8253	0.2601	0.5562	-0.296
Mof_C 	C 	0.8206	0.2309	0.4917	0.089
Mof_H 	H 	0.848	0.2446	0.4555	-0.211
Mof_C 	C 	0.8071	0.244	0.4863	0.011
Mof_H 	H 	0.8269	0.2649	0.4464	-0.17
Mof_C 	C 	0.8519	0.2665	0.432	0.428
Mof_N 	N 	0.8822	0.3092	0.3811	-0.177
Mof_N 	N 	0.8839	0.399	0.5602	-0.276
Mof_C 	C 	0.8322	0.3882	0.5322	0
Mof_H 	H 	0.8024	0.3524	0.516	0.02
Mof_C 	C 	0.8879	0.4183	0.4882	-0.01
Mof_H 	H 	0.8901	0.3988	0.4485	0.038
Mof_O 	O 	0.9864	0.5351	0.6318	-0.161
Mof_N 	N 	0.9165	0.3315	0.6911	-0.278
Mof_C 	C 	0.9661	0.3361	0.713	0.012
Mof_H 	H 	0.9959	0.3389	0.6843	0.018
Mof_O 	O 	0.81394	0.32867	0.6928	-0.17
Mof_Zn	Zn	0.56123	0.89401	0.09073	1.187
Mof_N 	N 	0.6233	0.9605	0.0352	-0.27
Mof_C 	C 	0.6871	0.9872	0.0345	0.014
Mof_H 	H 	0.7122	0.9874	0.069	0.005
Mof_C 	C 	0.67	0.9609	0.0089	-0.031
Mof_H 	H 	0.6794	0.9318	0.0021	0.012
Mof_N 	N 	0.5652	0.8253	0.0562	-0.298
Mof_C 	C 	0.5897	0.8206	0.9917	0.09
Mof_H 	H 	0.6034	0.848	0.9555	-0.207
Mof_C 	C 	0.5631	0.8071	0.9863	0.011
Mof_H 	H 	0.562	0.8269	0.9464	-0.166
Mof_C 	C 	0.5854	0.8519	0.932	0.421
Mof_N 	N 	0.573	0.8822	0.8811	-0.174
Mof_N 	N 	0.4849	0.8839	0.0602	-0.277
Mof_C 	C 	0.444	0.8322	0.0322	-0.003
Mof_H 	H 	0.45	0.8024	0.016	0.02
Mof_C 	C 	0.4696	0.8879	0.9882	-0.004
Mof_H 	H 	0.4913	0.8901	0.9485	0.037
Mof_O 	O 	0.4513	0.9864	0.1318	-0.161
Mof_N 	N 	0.585	0.9165	0.1911	-0.278
Mof_C 	C 	0.63	0.9661	0.213	0.012
Mof_H 	H 	0.657	0.9959	0.1843	0.017
Mof_O 	O 	0.48527	0.81394	0.1928	-0.17
Mof_Zn	Zn	0.33278	0.43877	0.09073	1.186
Mof_N 	N 	0.3372	0.3767	0.0352	-0.272
Mof_C 	C 	0.3001	0.3129	0.0345	0.033
Mof_H 	H 	0.2752	0.2878	0.069	-0.004
Mof_C 	C 	0.2909	0.33	0.0089	-0.052
Mof_H 	H 	0.2524	0.3206	0.0021	0.017
Mof_N 	N 	0.2601	0.4348	0.0562	-0.298
Mof_C 	C 	0.2309	0.4103	0.9917	0.092
Mof_H 	H 	0.2446	0.3966	0.9555	-0.208
Mof_C 	C 	0.244	0.4369	0.9863	0.01
Mof_H 	H 	0.2649	0.438	0.9464	-0.166
Mof_C 	C 	0.2665	0.4146	0.932	0.422
Mof_N 	N 	0.3092	0.427	0.8811	-0.175
Mof_N 	N 	0.399	0.5151	0.0602	-0.277
Mof_C 	C 	0.3882	0.556	0.0322	-0.003
Mof_H 	H 	0.3524	0.55	0.016	0.02
Mof_C 	C 	0.4183	0.5304	0.9882	-0.005
Mof_H 	H 	0.3988	0.5087	0.9485	0.037
Mof_O 	O 	0.5351	0.5487	0.1318	-0.164
Mof_N 	N 	0.3315	0.415	0.1911	-0.278
Mof_C 	C 	0.3361	0.37	0.213	0.011
Mof_H 	H 	0.3389	0.343	0.1843	0.016
Mof_O 	O 	0.32867	0.51473	0.1928	-0.17
Mof_Zn	Zn	0.10599	0.66722	0.09073	1.186
Mof_N 	N 	0.0395	0.6628	0.0352	-0.27
Mof_C 	C 	0.0128	0.6999	0.0345	0.048
Mof_H 	H 	0.0126	0.7248	0.069	-0.009
Mof_C 	C 	0.0391	0.7091	0.0089	-0.069
Mof_H 	H 	0.0682	0.7476	0.0021	0.023
Mof_N 	N 	0.1747	0.7399	0.0562	-0.298
Mof_C 	C 	0.1794	0.7691	0.9917	0.091
Mof_H 	H 	0.152	0.7554	0.9555	-0.208
Mof_C 	C 	0.1929	0.756	0.9863	0.011
Mof_H 	H 	0.1731	0.7351	0.9464	-0.166
Mof_C 	C 	0.1481	0.7335	0.932	0.422
Mof_N 	N 	0.1178	0.6908	0.8811	-0.176
Mof_N 	N 	0.1161	0.601	0.0602	-0.277
Mof_C 	C 	0.1678	0.6118	0.0322	-0.002
Mof_H 	H 	0.1976	0.6476	0.016	0.02
Mof_C 	C 	0.1121	0.5817	0.9882	-0.005
Mof_H 	H 	0.1099	0.6012	0.9485	0.036
Mof_O 	O 	0.0136	0.4649	0.1318	-0.165
Mof_N 	N 	0.0835	0.6685	0.1911	-0.278
Mof_C 	C 	0.0339	0.6639	0.213	0.011
Mof_H 	H 	0.0041	0.6611	0.1843	0.015
Mof_O 	O 	0.18606	0.67133	0.1928	-0.17
Mof_Zn	Zn	0.89401	0.56123	0.59073	1.187
Mof_N 	N 	0.9605	0.6233	0.5352	-0.272
Mof_C 	C 	0.9872	0.6871	0.5345	0.005
Mof_H 	H 	0.9874	0.7122	0.569	0.009
Mof_C 	C 	0.9609	0.67	0.5089	-0.019
Mof_H 	H 	0.9318	0.6794	0.5021	0.009
Mof_N 	N 	0.8253	0.5652	0.5562	-0.296
Mof_C 	C 	0.8206	0.5897	0.4917	0.088
Mof_H 	H 	0.848	0.6034	0.4555	-0.21
Mof_C 	C 	0.8071	0.5631	0.4863	0.011
Mof_H 	H 	0.8269	0.562	0.4464	-0.17
Mof_C 	C 	0.8519	0.5854	0.432	0.428
Mof_N 	N 	0.8822	0.573	0.3811	-0.177
Mof_N 	N 	0.8839	0.4849	0.5602	-0.276
Mof_C 	C 	0.8322	0.444	0.5322	0
Mof_H 	H 	0.8024	0.45	0.516	0.02
Mof_C 	C 	0.8879	0.4696	0.4882	-0.01
Mof_H 	H 	0.8901	0.4913	0.4485	0.038
Mof_O 	O 	0.9864	0.4513	0.6318	-0.161
Mof_N 	N 	0.9165	0.585	0.6911	-0.277
Mof_C 	C 	0.9661	0.63	0.713	0.012
Mof_H 	H 	0.9959	0.657	0.6843	0.018
Mof_O 	O 	0.81394	0.48527	0.6928	-0.17
Mof_Zn	Zn	0.43877	0.33278	0.59073	1.187
Mof_N 	N 	0.3767	0.3372	0.5352	-0.273
Mof_C 	C 	0.3129	0.3001	0.5345	0.022
Mof_H 	H 	0.2878	0.2752	0.569	0.001
Mof_C 	C 	0.33	0.2909	0.5089	-0.038
Mof_H 	H 	0.3206	0.2524	0.5021	0.014
Mof_N 	N 	0.4348	0.2601	0.5562	-0.296
Mof_C 	C 	0.4103	0.2309	0.4917	0.09
Mof_H 	H 	0.3966	0.2446	0.4555	-0.212
Mof_C 	C 	0.4369	0.244	0.4863	0.01
Mof_H 	H 	0.438	0.2649	0.4464	-0.17
Mof_C 	C 	0.4146	0.2665	0.432	0.429
Mof_N 	N 	0.427	0.3092	0.3811	-0.178
Mof_N 	N 	0.5151	0.399	0.5602	-0.276
Mof_C 	C 	0.556	0.3882	0.5322	0
Mof_H 	H 	0.55	0.3524	0.516	0.02
Mof_C 	C 	0.5304	0.4183	0.4882	-0.011
Mof_H 	H 	0.5087	0.3988	0.4485	0.037
Mof_O 	O 	0.5487	0.5351	0.6318	-0.163
Mof_N 	N 	0.415	0.3315	0.6911	-0.278
Mof_C 	C 	0.37	0.3361	0.713	0.011
Mof_H 	H 	0.343	0.3389	0.6843	0.016
Mof_O 	O 	0.51473	0.32867	0.6928	-0.17
Mof_Zn	Zn	0.66722	0.10599	0.59073	1.187
Mof_N 	N 	0.6628	0.0395	0.5352	-0.271
Mof_C 	C 	0.6999	0.0128	0.5345	0.04
Mof_H 	H 	0.7248	0.0126	0.569	-0.006
Mof_C 	C 	0.7091	0.0391	0.5089	-0.058
Mof_H 	H 	0.7476	0.0682	0.5021	0.02
Mof_N 	N 	0.7399	0.1747	0.5562	-0.296
Mof_C 	C 	0.7691	0.1794	0.4917	0.089
Mof_H 	H 	0.7554	0.152	0.4555	-0.212
Mof_C 	C 	0.756	0.1929	0.4863	0.011
Mof_H 	H 	0.7351	0.1731	0.4464	-0.17
Mof_C 	C 	0.7335	0.1481	0.432	0.429
Mof_N 	N 	0.6908	0.1178	0.3811	-0.178
Mof_N 	N 	0.601	0.1161	0.5602	-0.276
Mof_C 	C 	0.6118	0.1678	0.5322	0.001
Mof_H 	H 	0.6476	0.1976	0.516	0.02
Mof_C 	C 	0.5817	0.1121	0.4882	-0.011
Mof_H 	H 	0.6012	0.1099	0.4485	0.037
Mof_O 	O 	0.4649	0.0136	0.6318	-0.165
Mof_N 	N 	0.6685	0.0835	0.6911	-0.278
Mof_C 	C 	0.6639	0.0339	0.713	0.011
Mof_H 	H 	0.6611	0.0041	0.6843	0.015
Mof_O 	O 	0.67133	0.18606	0.6928	-0.17
Mof_Zn	Zn	0.10599	0.43877	0.09073	1.186
Mof_N 	N 	0.0395	0.3767	0.0352	-0.27
Mof_C 	C 	0.0128	0.3129	0.0345	0.049
Mof_H 	H 	0.0126	0.2878	0.069	-0.01
Mof_C 	C 	0.0391	0.33	0.0089	-0.069
Mof_H 	H 	0.0682	0.3206	0.0021	0.022
Mof_N 	N 	0.1747	0.4348	0.0562	-0.298
Mof_C 	C 	0.1794	0.4103	0.9917	0.092
Mof_H 	H 	0.152	0.3966	0.9555	-0.208
Mof_C 	C 	0.1929	0.4369	0.9863	0.01
Mof_H 	H 	0.1731	0.438	0.9464	-0.166
Mof_C 	C 	0.1481	0.4146	0.932	0.422
Mof_N 	N 	0.1178	0.427	0.8811	-0.176
Mof_N 	N 	0.1161	0.5151	0.0602	-0.277
Mof_C 	C 	0.1678	0.556	0.0322	-0.003
Mof_H 	H 	0.1976	0.55	0.016	0.02
Mof_C 	C 	0.1121	0.5304	0.9882	-0.005
Mof_H 	H 	0.1099	0.5087	0.9485	0.036
Mof_O 	O 	0.0136	0.5487	0.1318	-0.165
Mof_N 	N 	0.0835	0.415	0.1911	-0.278
Mof_C 	C 	0.0339	0.37	0.213	0.011
Mof_H 	H 	0.0041	0.343	0.1843	0.015
Mof_O 	O 	0.18606	0.51473	0.1928	-0.17
Mof_Zn	Zn	0.56123	0.66722	0.09073	1.186
Mof_N 	N 	0.6233	0.6628	0.0352	-0.272
Mof_C 	C 	0.6871	0.6999	0.0345	0.033
Mof_H 	H 	0.7122	0.7248	0.069	-0.003
Mof_C 	C 	0.67	0.7091	0.0089	-0.052
Mof_H 	H 	0.6794	0.7476	0.0021	0.018
Mof_N 	N 	0.5652	0.7399	0.0562	-0.298
Mof_C 	C 	0.5897	0.7691	0.9917	0.09
Mof_H 	H 	0.6034	0.7554	0.9555	-0.207
Mof_C 	C 	0.5631	0.756	0.9863	0.012
Mof_H 	H 	0.562	0.7351	0.9464	-0.166
Mof_C 	C 	0.5854	0.7335	0.932	0.421
Mof_N 	N 	0.573	0.6908	0.8811	-0.175
Mof_N 	N 	0.4849	0.601	0.0602	-0.277
Mof_C 	C 	0.444	0.6118	0.0322	-0.003
Mof_H 	H 	0.45	0.6476	0.016	0.02
Mof_C 	C 	0.4696	0.5817	0.9882	-0.005
Mof_H 	H 	0.4913	0.6012	0.9485	0.037
Mof_O 	O 	0.4513	0.4649	0.1318	-0.164
Mof_N 	N 	0.585	0.6685	0.1911	-0.278
Mof_C 	C 	0.63	0.6639	0.213	0.012
Mof_H 	H 	0.657	0.6611	0.1843	0.016
Mof_O 	O 	0.48527	0.67133	0.1928	-0.17
Mof_Zn	Zn	0.33278	0.89401	0.09073	1.187
Mof_N 	N 	0.3372	0.9605	0.0352	-0.27
Mof_C 	C 	0.3001	0.9872	0.0345	0.014
Mof_H 	H 	0.2752	0.9874	0.069	0.004
Mof_C 	C 	0.2909	0.9609	0.0089	-0.032
Mof_H 	H 	0.2524	0.9318	0.0021	0.011
Mof_N 	N 	0.2601	0.8253	0.0562	-0.298
Mof_C 	C 	0.2309	0.8206	0.9917	0.091
Mof_H 	H 	0.2446	0.848	0.9555	-0.208
Mof_C 	C 	0.244	0.8071	0.9863	0.011
Mof_H 	H 	0.2649	0.8269	0.9464	-0.166
Mof_C 	C 	0.2665	0.8519	0.932	0.422
Mof_N 	N 	0.3092	0.8822	0.8811	-0.174
Mof_N 	N 	0.399	0.8839	0.0602	-0.277
Mof_C 	C 	0.3882	0.8322	0.0322	-0.003
Mof_H 	H 	0.3524	0.8024	0.016	0.02
Mof_C 	C 	0.4183	0.8879	0.9882	-0.004
Mof_H 	H 	0.3988	0.8901	0.9485	0.037
Mof_O 	O 	0.5351	0.9864	0.1318	-0.161
Mof_N 	N 	0.3315	0.9165	0.1911	-0.278
Mof_C 	C 	0.3361	0.9661	0.213	0.012
Mof_H 	H 	0.3389	0.9959	0.1843	0.017
Mof_O 	O 	0.32867	0.81394	0.1928	-0.17
Mof_Zn	Zn	0.56123	0.89401	0.40927	1.187
Mof_N 	N 	0.6233	0.9605	0.4648	-0.271
Mof_C 	C 	0.6871	0.9872	0.4655	0.003
Mof_H 	H 	0.7122	0.9874	0.431	0.01
Mof_C 	C 	0.67	0.9609	0.4911	-0.017
Mof_H 	H 	0.6794	0.9318	0.4979	0.009
Mof_N 	N 	0.5652	0.8253	0.4438	-0.296
Mof_C 	C 	0.5897	0.8206	0.5083	0.088
Mof_H 	H 	0.6034	0.848	0.5445	-0.21
Mof_C 	C 	0.5631	0.8071	0.5137	0.011
Mof_H 	H 	0.562	0.8269	0.5536	-0.169
Mof_C 	C 	0.5854	0.8519	0.568	0.427
Mof_N 	N 	0.573	0.8822	0.6189	-0.176
Mof_N 	N 	0.4849	0.8839	0.4398	-0.276
Mof_C 	C 	0.444	0.8322	0.4678	0
Mof_H 	H 	0.45	0.8024	0.484	0.02
Mof_C 	C 	0.4696	0.8879	0.5118	-0.01
Mof_H 	H 	0.4913	0.8901	0.5515	0.038
Mof_O 	O 	0.4513	0.9864	0.3682	-0.161
Mof_N 	N 	0.585	0.9165	0.3089	-0.277
Mof_C 	C 	0.63	0.9661	0.287	0.012
Mof_H 	H 	0.657	0.9959	0.3157	0.018
Mof_O 	O 	0.48527	0.81394	0.3072	-0.17
Mof_Zn	Zn	0.33278	0.43877	0.40927	1.187
Mof_N 	N 	0.3372	0.3767	0.4648	-0.273
Mof_C 	C 	0.3001	0.3129	0.4655	0.021
Mof_H 	H 	0.2752	0.2878	0.431	0.001
Mof_C 	C 	0.2909	0.33	0.4911	-0.038
Mof_H 	H 	0.2524	0.3206	0.4979	0.014
Mof_N 	N 	0.2601	0.4348	0.4438	-0.296
Mof_C 	C 	0.2309	0.4103	0.5083	0.09
Mof_H 	H 	0.2446	0.3966	0.5445	-0.212
Mof_C 	C 	0.244	0.4369	0.5137	0.01
Mof_H 	H 	0.2649	0.438	0.5536	-0.169
Mof_C 	C 	0.2665	0.4146	0.568	0.429
Mof_N 	N 	0.3092	0.427	0.6189	-0.178
Mof_N 	N 	0.399	0.5151	0.4398	-0.276
Mof_C 	C 	0.3882	0.556	0.4678	0
Mof_H 	H 	0.3524	0.55	0.484	0.02
Mof_C 	C 	0.4183	0.5304	0.5118	-0.01
Mof_H 	H 	0.3988	0.5087	0.5515	0.037
Mof_O 	O 	0.5351	0.5487	0.3682	-0.163
Mof_N 	N 	0.3315	0.415	0.3089	-0.278
Mof_C 	C 	0.3361	0.37	0.287	0.011
Mof_H 	H 	0.3389	0.343	0.3157	0.016
Mof_O 	O 	0.32867	0.51473	0.3072	-0.17
Mof_Zn	Zn	0.10599	0.66722	0.40927	1.187
Mof_N 	N 	0.0395	0.6628	0.4648	-0.272
Mof_C 	C 	0.0128	0.6999	0.4655	0.038
Mof_H 	H 	0.0126	0.7248	0.431	-0.005
Mof_C 	C 	0.0391	0.7091	0.4911	-0.055
Mof_H 	H 	0.0682	0.7476	0.4979	0.02
Mof_N 	N 	0.1747	0.7399	0.4438	-0.296
Mof_C 	C 	0.1794	0.7691	0.5083	0.089
Mof_H 	H 	0.152	0.7554	0.5445	-0.211
Mof_C 	C 	0.1929	0.756	0.5137	0.01
Mof_H 	H 	0.1731	0.7351	0.5536	-0.169
Mof_C 	C 	0.1481	0.7335	0.568	0.428
Mof_N 	N 	0.1178	0.6908	0.6189	-0.178
Mof_N 	N 	0.1161	0.601	0.4398	-0.276
Mof_C 	C 	0.1678	0.6118	0.4678	0.001
Mof_H 	H 	0.1976	0.6476	0.484	0.02
Mof_C 	C 	0.1121	0.5817	0.5118	-0.011
Mof_H 	H 	0.1099	0.6012	0.5515	0.037
Mof_O 	O 	0.0136	0.4649	0.3682	-0.165
Mof_N 	N 	0.0835	0.6685	0.3089	-0.278
Mof_C 	C 	0.0339	0.6639	0.287	0.011
Mof_H 	H 	0.0041	0.6611	0.3157	0.015
Mof_O 	O 	0.18606	0.67133	0.3072	-0.17
Mof_Zn	Zn	0.43877	0.10599	0.90927	1.187
Mof_N 	N 	0.3767	0.0395	0.9648	-0.269
Mof_C 	C 	0.3129	0.0128	0.9655	0.028
Mof_H 	H 	0.2878	0.0126	0.931	-0.001
Mof_C 	C 	0.33	0.0391	0.9911	-0.042
Mof_H 	H 	0.3206	0.0682	0.9979	0.017
Mof_N 	N 	0.4348	0.1747	0.9438	-0.294
Mof_C 	C 	0.4103	0.1794	0.0083	0.088
Mof_H 	H 	0.3966	0.152	0.0445	-0.216
Mof_C 	C 	0.4369	0.1929	0.0137	0.009
Mof_H 	H 	0.438	0.1731	0.0536	-0.173
Mof_C 	C 	0.4146	0.1481	0.068	0.436
Mof_N 	N 	0.427	0.1178	0.1189	-0.181
Mof_N 	N 	0.5151	0.1161	0.9398	-0.274
Mof_C 	C 	0.556	0.1678	0.9678	0.004
Mof_H 	H 	0.55	0.1976	0.984	0.021
Mof_C 	C 	0.5304	0.1121	0.0118	-0.016
Mof_H 	H 	0.5087	0.1099	0.0515	0.037
Mof_O 	O 	0.5487	0.0136	0.8682	-0.164
Mof_N 	N 	0.415	0.0835	0.8089	-0.278
Mof_C 	C 	0.37	0.0339	0.787	0.011
Mof_H 	H 	0.343	0.0041	0.8157	0.016
Mof_O 	O 	0.51473	0.18606	0.8072	-0.17
Mof_Zn	Zn	0.66722	0.56123	0.90927	1.187
Mof_N 	N 	0.6628	0.6233	0.9648	-0.271
Mof_C 	C 	0.6999	0.6871	0.9655	0.01
Mof_H 	H 	0.7248	0.7122	0.931	0.007
Mof_C 	C 	0.7091	0.67	0.9911	-0.023
Mof_H 	H 	0.7476	0.6794	0.9979	0.012
Mof_N 	N 	0.7399	0.5652	0.9438	-0.294
Mof_C 	C 	0.7691	0.5897	0.0083	0.086
Mof_H 	H 	0.7554	0.6034	0.0445	-0.214
Mof_C 	C 	0.756	0.5631	0.0137	0.011
Mof_H 	H 	0.7351	0.562	0.0536	-0.173
Mof_C 	C 	0.7335	0.5854	0.068	0.434
Mof_N 	N 	0.6908	0.573	0.1189	-0.179
Mof_N 	N 	0.601	0.4849	0.9398	-0.274
Mof_C 	C 	0.6118	0.444	0.9678	0.003
Mof_H 	H 	0.6476	0.45	0.984	0.021
Mof_C 	C 	0.5817	0.4696	0.0118	-0.016
Mof_H 	H 	0.6012	0.4913	0.0515	0.038
Mof_O 	O 	0.4649	0.4513	0.8682	-0.162
Mof_N 	N 	0.6685	0.585	0.8089	-0.277
Mof_C 	C 	0.6639	0.63	0.787	0.011
Mof_H 	H 	0.6611	0.657	0.8157	0.017
Mof_O 	O 	0.67133	0.48527	0.8072	-0.17
Mof_Zn	Zn	0.89401	0.33278	0.90927	1.187
Mof_N 	N 	0.9605	0.3372	0.9648	-0.269
Mof_C 	C 	0.9872	0.3001	0.9655	-0.006
Mof_H 	H 	0.9874	0.2752	0.931	0.013
Mof_C 	C 	0.9609	0.2909	0.9911	-0.005
Mof_H 	H 	0.9318	0.2524	0.9979	0.006
Mof_N 	N 	0.8253	0.2601	0.9438	-0.294
Mof_C 	C 	0.8206	0.2309	0.0083	0.087
Mof_H 	H 	0.848	0.2446	0.0445	-0.215
Mof_C 	C 	0.8071	0.244	0.0137	0.01
Mof_H 	H 	0.8269	0.2649	0.0536	-0.173
Mof_C 	C 	0.8519	0.2665	0.068	0.435
Mof_N 	N 	0.8822	0.3092	0.1189	-0.179
Mof_N 	N 	0.8839	0.399	0.9398	-0.274
Mof_C 	C 	0.8322	0.3882	0.9678	0.003
Mof_H 	H 	0.8024	0.3524	0.984	0.021
Mof_C 	C 	0.8879	0.4183	0.0118	-0.015
Mof_H 	H 	0.8901	0.3988	0.0515	0.038
Mof_O 	O 	0.9864	0.5351	0.8682	-0.16
Mof_N 	N 	0.9165	0.3315	0.8089	-0.277
Mof_C 	C 	0.9661	0.3361	0.787	0.011
Mof_H 	H 	0.9959	0.3389	0.8157	0.018
Mof_O 	O 	0.81394	0.32867	0.8072	-0.17
Mof_C 	C 	-4.34102e-18	0.383	0.5	0.11
Mof_H 	H 	3.52476e-17	0.4182	0.5	-0.024
Mof_C 	C 	0.617	0.617	0.5	0.116
Mof_H 	H 	0.5818	0.5818	0.5	-0.025
Mof_C 	C 	0.383	0	0.5	0.11
Mof_H 	H 	0.4182	0	0.5	-0.024
Mof_C 	C 	-3.95886e-17	0.617	-0	0.104
Mof_H 	H 	-3.95886e-17	0.5818	-0	-0.024
Mof_C 	C 	0.383	0.383	-0	0.109
Mof_H 	H 	0.4182	0.4182	-0	-0.024
Mof_C 	C 	0.617	0	-0	0.103
Mof_H 	H 	0.5818	0	-0	-0.024
Mof_C 	C 	-4.39296e-17	0.617	0.5	0.11
Mof_H 	H 	-4.34102e-18	0.5818	0.5	-0.024
Mof_C 	C 	0.383	0.383	0.5	0.116
Mof_H 	H 	0.4182	0.4182	0.5	-0.025
Mof_C 	C 	0.617	0	0.5	0.11
Mof_H 	H 	0.5818	0	0.5	-0.024
Mof_C 	C 	-3.95886e-17	0.383	-0	0.104
Mof_H 	H 	-0	0.4182	-0	-0.024
Mof_C 	C 	0.617	0.617	-0	0.11
Mof_H 	H 	0.5818	0.5818	-0	-0.024
Mof_C 	C 	0.383	0	-0	0.103
Mof_H 	H 	0.4182	0	-0	-0.024
Mof_C 	C 	0.21935	0.4387	0.4075	0.105
Mof_H 	H 	0.2219	0.4438	0.3588	-0.028
Mof_C 	C 	0.5613	0.78065	0.4075	0.105
Mof_H 	H 	0.5562	0.7781	0.3588	-0.027
Mof_C 	C 	0.21935	0.78065	0.4075	0.105
Mof_H 	H 	0.2219	0.7781	0.3588	-0.027
Mof_C 	C 	0.78065	0.5613	0.9075	0.106
Mof_H 	H 	0.7781	0.5562	0.8588	-0.028
Mof_C 	C 	0.4387	0.21935	0.9075	0.106
Mof_H 	H 	0.4438	0.2219	0.8588	-0.028
Mof_C 	C 	0.78065	0.21935	0.9075	0.106
Mof_H 	H 	0.7781	0.2219	0.8588	-0.028
Mof_C 	C 	0.4387	0.21935	0.5925	0.105
Mof_H 	H 	0.4438	0.2219	0.6412	-0.027
Mof_C 	C 	0.78065	0.5613	0.5925	0.105
Mof_H 	H 	0.7781	0.5562	0.6412	-0.027
Mof_C 	C 	0.78065	0.21935	0.5925	0.105
Mof_H 	H 	0.7781	0.2219	0.6412	-0.027
Mof_C 	C 	0.5613	0.78065	0.0925	0.104
Mof_H 	H 	0.5562	0.7781	0.1412	-0.027
Mof_C 	C 	0.21935	0.4387	0.0925	0.104
Mof_H 	H 	0.2219	0.4438	0.1412	-0.027
Mof_C 	C 	0.21935	0.78065	0.0925	0.104
Mof_H 	H 	0.2219	0.7781	0.1412	-0.027
Mof_C 	C 	0.1017	0.55085	0.4113	0.169
Mof_N 	N 	0.0387	0.51935	0.3747	-0.021
Mof_C 	C 	0.44915	0.55085	0.4113	0.169
Mof_N 	N 	0.48065	0.51935	0.3747	-0.021
Mof_C 	C 	0.44915	0.8983	0.4113	0.169
Mof_N 	N 	0.48065	0.9613	0.3747	-0.021
Mof_C 	C 	0.8983	0.44915	0.9113	0.17
Mof_N 	N 	0.9613	0.48065	0.8747	-0.021
Mof_C 	C 	0.55085	0.44915	0.9113	0.17
Mof_N 	N 	0.51935	0.48065	0.8747	-0.021
Mof_C 	C 	0.55085	0.1017	0.9113	0.17
Mof_N 	N 	0.51935	0.0387	0.8747	-0.021
Mof_C 	C 	0.55085	0.1017	0.5887	0.169
Mof_N 	N 	0.51935	0.0387	0.6253	-0.021
Mof_C 	C 	0.55085	0.44915	0.5887	0.169
Mof_N 	N 	0.51935	0.48065	0.6253	-0.021
Mof_C 	C 	0.8983	0.44915	0.5887	0.169
Mof_N 	N 	0.9613	0.48065	0.6253	-0.021
Mof_C 	C 	0.44915	0.8983	0.0887	0.169
Mof_N 	N 	0.48065	0.9613	0.1253	-0.021
Mof_C 	C 	0.44915	0.55085	0.0887	0.168
Mof_N 	N 	0.48065	0.51935	0.1253	-0.021
Mof_C 	C 	0.1017	0.55085	0.0887	0.168
Mof_N 	N 	0.0387	0.51935	0.1253	-0.021
Mof_C 	C 	0.1103	0.4406	0.25	0.159
Mof_N 	N 	0.1646	0.4935	0.25	-0.026
Mof_C 	C 	0.5594	0.6697	0.25	0.159
Mof_N 	N 	0.5065	0.6711	0.25	-0.026
Mof_C 	C 	0.3303	0.8897	0.25	0.159
Mof_N 	N 	0.3289	0.8354	0.25	-0.026
Mof_C 	C 	0.8897	0.5594	0.75	0.159
Mof_N 	N 	0.8354	0.5065	0.75	-0.026
Mof_C 	C 	0.4406	0.3303	0.75	0.159
Mof_N 	N 	0.4935	0.3289	0.75	-0.026
Mof_C 	C 	0.6697	0.1103	0.75	0.159
Mof_N 	N 	0.6711	0.1646	0.75	-0.026
Mof_C 	C 	0.4406	0.1103	0.75	0.159
Mof_N 	N 	0.4935	0.1646	0.75	-0.026
Mof_C 	C 	0.6697	0.5594	0.75	0.159
Mof_N 	N 	0.6711	0.5065	0.75	-0.026
Mof_C 	C 	0.8897	0.3303	0.75	0.159
Mof_N 	N 	0.8354	0.3289	0.75	-0.026
Mof_C 	C 	0.5594	0.8897	0.25	0.159
Mof_N 	N 	0.5065	0.8354	0.25	-0.026
Mof_C 	C 	0.3303	0.4406	0.25	0.159
Mof_N 	N 	0.3289	0.4935	0.25	-0.026
Mof_C 	C 	0.1103	0.6697	0.25	0.159
Mof_N 	N 	0.1646	0.6711	0.25	-0.026
_end
