data_functionalizedCrystal
_audit_creation_method	'EQeq! by Chris Wilmer'
_symmetry_space_group_name_H-M	'P1'
_symmetry_Int_Tables_number	1
_symmetry_cell_setting	triclinic
loop_
_symmetry_equiv_pos_as_xyz
  x,y,z
_cell_length_a	7.948
_cell_length_b	13.41
_cell_length_c	19.5
_cell_angle_alpha	110.111
_cell_angle_beta	99.3452
_cell_angle_gamma	90
loop_
_atom_site_label
_atom_site_type_symbol
_atom_site_fract_x
_atom_site_fract_y
_atom_site_fract_z
_atom_site_charge
Mof_Ni	Ni	-0	0	-0	1.027
Mof_Ni	Ni	0.5	0	-0	1.038
Mof_H 	H 	0.0485	0.1098	0.7544	-0.045
Mof_H 	H 	0.8986	0.0932	0.6392	0.142
Mof_H 	H 	0.51	0.9418	0.677	0.102
Mof_H 	H 	0.6604	0.958	0.7924	-0.004
Mof_H 	H 	0.6444	0.2105	0.6572	0.105
Mof_H 	H 	0.6556	0.8136	0.5728	0.113
Mof_H 	H 	0.7572	0.6568	0.5696	0.124
Mof_H 	H 	0.5775	0.6597	0.5934	0.121
Mof_H 	H 	0.6553	0.5503	0.5576	0.138
Mof_H 	H 	0.3561	0.6138	0.2582	0.089
Mof_H 	H 	0.2557	0.5178	0.2648	0.091
Mof_H 	H 	0.1968	0.6336	0.2982	0.093
Mof_H 	H 	0.4515	0.3554	0.2456	0.002
Mof_H 	H 	0.6014	0.454	0.3608	0.12
Mof_H 	H 	0.99	0.2648	0.323	0.097
Mof_H 	H 	0.8396	0.1656	0.2076	0.001
Mof_H 	H 	0.8556	0.5533	0.3428	0.101
Mof_H 	H 	0.8444	0.2408	0.4272	0.091
Mof_H 	H 	0.7428	0.0872	0.4304	0.178
Mof_H 	H 	0.9225	0.0663	0.4066	0.179
Mof_H 	H 	0.8447	0.9927	0.4424	0.251
Mof_H 	H 	0.1439	0.3556	0.7418	0.101
Mof_H 	H 	0.2443	0.253	0.7352	0.107
Mof_H 	H 	0.3032	0.3354	0.7018	0.111
Mof_H 	H 	0.9515	0.8902	0.2456	0.076
Mof_H 	H 	0.1014	0.9068	0.3608	0.081
Mof_H 	H 	0.49	0.0582	0.323	0.067
Mof_H 	H 	0.3396	0.042	0.2076	0.044
Mof_H 	H 	0.3556	0.7895	0.3428	0.071
Mof_H 	H 	0.3444	0.1864	0.4272	0.053
Mof_H 	H 	0.2428	0.3432	0.4304	0.104
Mof_H 	H 	0.4225	0.3403	0.4066	0.111
Mof_H 	H 	0.3447	0.4497	0.4424	0.127
Mof_H 	H 	0.6439	0.3862	0.7418	0.111
Mof_H 	H 	0.7443	0.4822	0.7352	0.121
Mof_H 	H 	0.8032	0.3664	0.7018	0.121
Mof_H 	H 	0.5485	0.6446	0.7544	0.027
Mof_H 	H 	0.3986	0.546	0.6392	0.104
Mof_H 	H 	0.01	0.7352	0.677	0.073
Mof_H 	H 	0.1604	0.8344	0.7924	0.036
Mof_H 	H 	0.1444	0.4467	0.6572	0.075
Mof_H 	H 	0.1556	0.7592	0.5728	0.076
Mof_H 	H 	0.2572	0.9128	0.5696	0.05
Mof_H 	H 	0.0775	0.9337	0.5934	0.052
Mof_H 	H 	0.1553	0.0073	0.5576	0.013
Mof_H 	H 	0.8561	0.6444	0.2582	0.099
Mof_H 	H 	0.7557	0.747	0.2648	0.107
Mof_H 	H 	0.6968	0.6646	0.2982	0.105
Mof_C 	C 	0.9692	0.04939	0.86098	0.414
Mof_C 	C 	0.8701	0.03689	0.78598	-0.265
Mof_C 	C 	0.9396	0.07617	0.73914	0.201
Mof_C 	C 	0.8494	0.06618	0.66976	-0.257
Mof_C 	C 	0.6867	0.01635	0.6455	0.126
Mof_C 	C 	0.6185	0.9761	0.6924	-0.166
Mof_C 	C 	0.7086	0.98579	0.76198	0.195
Mof_C 	C 	0.5891	0.20448	0.60996	-0.185
Mof_C 	C 	0.5442	0.10098	0.55596	0.116
Mof_C 	C 	0.5906	0.00785	0.5707	-0.185
Mof_C 	C 	0.547	0.9073	0.5154	0.152
Mof_C 	C 	0.5898	0.80995	0.5279	-0.193
Mof_C 	C 	0.6455	0.62163	0.55746	-0.267
Mof_C 	C 	0.5378	0.71354	0.47668	0.133
Mof_C 	C 	0.4459	0.7064	0.405	0.079
Mof_C 	C 	0.2938	0.59139	0.28918	-0.206
Mof_C 	C 	0.5308	0.18841	0.13902	0.359
Mof_C 	C 	0.6299	0.25091	0.21402	-0.166
Mof_C 	C 	0.5604	0.33703	0.26086	0.1
Mof_C 	C 	0.6506	0.39642	0.33024	-0.203
Mof_C 	C 	0.8133	0.37085	0.3545	0.142
Mof_C 	C 	0.8815	0.2837	0.3076	-0.19
Mof_C 	C 	0.7914	0.22381	0.23802	0.094
Mof_C 	C 	0.9109	0.59452	0.39004	-0.174
Mof_C 	C 	0.9558	0.54502	0.44404	0.106
Mof_C 	C 	0.9094	0.43715	0.4293	-0.112
Mof_C 	C 	0.953	0.3919	0.4846	0.095
Mof_C 	C 	0.9102	0.28205	0.4721	-0.164
Mof_C 	C 	0.8545	0.06417	0.44254	-0.508
Mof_C 	C 	0.9622	0.23686	0.52332	0.13
Mof_C 	C 	0.0541	0.3014	0.595	0.064
Mof_C 	C 	0.2062	0.30221	0.71082	-0.232
Mof_C 	C 	0.0308	0.95061	0.13902	0.276
Mof_C 	C 	0.1299	0.96311	0.21402	-0.002
Mof_C 	C 	0.0604	0.92383	0.26086	-0.048
Mof_C 	C 	0.1506	0.93382	0.33024	-0.096
Mof_C 	C 	0.3133	0.98365	0.3545	0.106
Mof_C 	C 	0.3815	0.0239	0.3076	-0.16
Mof_C 	C 	0.2914	0.01421	0.23802	-0.065
Mof_C 	C 	0.4109	0.79552	0.39004	-0.093
Mof_C 	C 	0.4558	0.89902	0.44404	-0.02
Mof_C 	C 	0.4094	0.99215	0.4293	0.035
Mof_C 	C 	0.453	0.0927	0.4846	-0.078
Mof_C 	C 	0.4102	0.19005	0.4721	-0.079
Mof_C 	C 	0.3545	0.37837	0.44254	-0.25
Mof_C 	C 	0.4622	0.28646	0.52332	0.07
Mof_C 	C 	0.5541	0.2936	0.595	0.133
Mof_C 	C 	0.7062	0.40861	0.71082	-0.248
Mof_C 	C 	0.4692	0.81159	0.86098	0.335
Mof_C 	C 	0.3701	0.74909	0.78598	-0.114
Mof_C 	C 	0.4396	0.66297	0.73914	0.057
Mof_C 	C 	0.3494	0.60358	0.66976	-0.153
Mof_C 	C 	0.1867	0.62915	0.6455	0.089
Mof_C 	C 	0.1185	0.7163	0.6924	-0.137
Mof_C 	C 	0.2086	0.77619	0.76198	0.049
Mof_C 	C 	0.0891	0.40548	0.60996	-0.103
Mof_C 	C 	0.0442	0.45498	0.55596	-0.01
Mof_C 	C 	0.0906	0.56285	0.5707	-0.04
Mof_C 	C 	0.047	0.6081	0.5154	-0.018
Mof_C 	C 	0.0898	0.71795	0.5279	-0.11
Mof_C 	C 	0.1455	0.93583	0.55746	-0.007
Mof_C 	C 	0.0378	0.76314	0.47668	0.075
Mof_C 	C 	0.9459	0.6986	0.405	0.147
Mof_C 	C 	0.7938	0.69779	0.28918	-0.223
Mof_O 	O 	0.566	0.61854	0.48566	-0.154
Mof_O 	O 	0.4018	0.60448	0.35778	-0.161
Mof_O 	O 	0.8929	0.02125	0.90464	-0.417
Mof_O 	O 	0.1193	0.08548	0.87724	-0.297
Mof_O 	O 	0.934	0.13288	0.51434	-0.109
Mof_O 	O 	0.0982	0.2467	0.64222	-0.162
Mof_O 	O 	0.6071	0.11661	0.09536	-0.448
Mof_O 	O 	0.3807	0.20824	0.12276	-0.3
Mof_O 	O 	0.434	0.38146	0.51434	-0.143
Mof_O 	O 	0.5982	0.39552	0.64222	-0.161
Mof_O 	O 	0.1071	0.97875	0.09536	-0.381
Mof_O 	O 	0.8807	0.91452	0.12276	-0.237
Mof_O 	O 	0.066	0.86712	0.48566	-0.188
Mof_O 	O 	0.9018	0.7533	0.35778	-0.159
Mof_O 	O 	0.3929	0.88339	0.90464	-0.363
Mof_O 	O 	0.6193	0.79176	0.87724	-0.242
Mof_O 	O 	0.25	0.06255	-0	-0.437
Mof_O 	O 	0.75	0.93745	-0	-0.369
_end
