data_functionalizedCrystal
_audit_creation_method	'EQeq! by Chris Wilmer'
_symmetry_space_group_name_H-M	'P1'
_symmetry_Int_Tables_number	1
_symmetry_cell_setting	triclinic
loop_
_symmetry_equiv_pos_as_xyz
  x,y,z
_cell_length_a	12.547
_cell_length_b	12.502
_cell_length_c	8.201
_cell_angle_alpha	75.93
_cell_angle_beta	82.21
_cell_angle_gamma	76.05
loop_
_atom_site_label
_atom_site_type_symbol
_atom_site_fract_x
_atom_site_fract_y
_atom_site_fract_z
_atom_site_charge
Mof_Cu	Cu	0.37121	0.49041	0.167	0.81
Mof_Cu	Cu	0.21895	0.3383	0.2718	0.822
Mof_Cu	Cu	0.3909	0.19992	0.151	0.751
Mof_Cu	Cu	0.5113	0.6644	0.9977	0.55
Mof_Cu	Cu	0.5303	0.6709	0.1012	0.495
Mof_Cu	Cu	0.44037	0.15385	0.5084	0.808
Mof_Cu	Cu	0.50579	0.91292	0.1633	0.794
Mof_Cu	Cu	0.31959	0.26841	0.7628	0.74
Mof_Cu	Cu	0.41683	0.41641	0.5822	0.806
Mof_Cu	Cu	0.1102	0.4312	0.5724	0.874
Mof_Cl	Cl	0.5454	0.083	0.2897	-0.778
Mof_Cl	Cl	0.3474	0.6847	0.0718	-0.709
Mof_Cl	Cl	0.3528	0.0508	0.0456	-0.746
Mof_Cl	Cl	0.5335	0.4464	0.2985	-0.873
Mof_Cl	Cl	0.1421	0.2985	0.8186	-0.629
Mof_Cl	Cl	0.2646	0.1661	0.4501	-0.733
Mof_Cl	Cl	0.0353	0.3986	0.3481	-0.642
Mof_Cl	Cl	0.2539	0.5205	0.4704	-0.761
Mof_O 	O 	0.1127	0.6101	0.0431	-0.139
Mof_O 	O 	0.7459	0.1951	0.6248	-0.159
Mof_C 	C 	0.337	0.3629	0.0669	-0.842
Mof_C 	C 	0.2581	0.4473	0.0509	-0.025
Mof_C 	C 	0.1736	0.5353	0.956	-0.105
Mof_C 	C 	0.4697	0.249	0.673	-0.8
Mof_C 	C 	0.5565	0.1876	0.6237	-0.059
Mof_C 	C 	0.6762	0.1682	0.5499	-0.073
Mof_H 	H 	0.214	0.581	0.852	0.091
Mof_H 	H 	0.124	0.501	0.908	0.09
Mof_H 	H 	0.699	0.087	0.542	0.096
Mof_H 	H 	0.674	0.215	0.427	0.095
Mof_H 	H 	0.687	0.23	0.705	0.148
Mof_H 	H 	0.098	0.61	0.192	0.102
Mof_Cu	Cu	0.62879	0.50959	0.833	0.811
Mof_Cu	Cu	0.78105	0.6617	0.7282	0.823
Mof_Cu	Cu	0.6091	0.80008	0.849	0.751
Mof_Cu	Cu	0.4887	0.3356	0.0023	0.55
Mof_Cu	Cu	0.4697	0.3291	0.8988	0.495
Mof_Cu	Cu	0.55963	0.84615	0.4916	0.808
Mof_Cu	Cu	0.49421	0.08708	0.8367	0.794
Mof_Cu	Cu	0.68041	0.73159	0.2372	0.74
Mof_Cu	Cu	0.58317	0.58359	0.4178	0.806
Mof_Cu	Cu	0.8898	0.5688	0.4276	0.874
Mof_Cl	Cl	0.4546	0.917	0.7103	-0.778
Mof_Cl	Cl	0.6526	0.3153	0.9282	-0.709
Mof_Cl	Cl	0.6472	0.9492	0.9544	-0.746
Mof_Cl	Cl	0.4665	0.5536	0.7015	-0.873
Mof_Cl	Cl	0.8579	0.7015	0.1814	-0.629
Mof_Cl	Cl	0.7354	0.8339	0.5499	-0.733
Mof_Cl	Cl	0.9647	0.6014	0.6519	-0.642
Mof_Cl	Cl	0.7461	0.4795	0.5296	-0.761
Mof_O 	O 	0.8873	0.3899	0.9569	-0.139
Mof_O 	O 	0.2541	0.8049	0.3752	-0.159
Mof_C 	C 	0.663	0.6371	0.9331	-0.842
Mof_C 	C 	0.7419	0.5527	0.9491	-0.025
Mof_C 	C 	0.8264	0.4647	0.044	-0.105
Mof_C 	C 	0.5303	0.751	0.327	-0.8
Mof_C 	C 	0.4435	0.8124	0.3763	-0.059
Mof_C 	C 	0.3238	0.8318	0.4501	-0.073
Mof_H 	H 	0.786	0.419	0.148	0.091
Mof_H 	H 	0.876	0.499	0.092	0.09
Mof_H 	H 	0.301	0.913	0.458	0.096
Mof_H 	H 	0.326	0.785	0.573	0.095
Mof_H 	H 	0.313	0.77	0.295	0.148
Mof_H 	H 	0.902	0.39	0.808	0.102
_end
