data_functionalizedCrystal
_audit_creation_method	'EQeq! by Chris Wilmer'
_symmetry_space_group_name_H-M	'P1'
_symmetry_Int_Tables_number	1
_symmetry_cell_setting	triclinic
loop_
_symmetry_equiv_pos_as_xyz
  x,y,z
_cell_length_a	13.4567
_cell_length_b	13.4567
_cell_length_c	14.6982
_cell_angle_alpha	90
_cell_angle_beta	90
_cell_angle_gamma	120
loop_
_atom_site_label
_atom_site_type_symbol
_atom_site_fract_x
_atom_site_fract_y
_atom_site_fract_z
_atom_site_charge
Mof_Nd	Nd	0.33333	0.66666	0.66822	2.691
Mof_Nd	Nd	0.66667	0.33334	0.83178	2.693
Mof_Nd	Nd	0.66667	0.33334	0.33178	2.683
Mof_Nd	Nd	0.33333	0.66666	0.16822	2.683
Mof_Cu	Cu	0.5	0.5	0.5	0.927
Mof_Cu	Cu	3.17619e-17	0.5	0.5	0.897
Mof_Cu	Cu	0.5	0	0.5	0.898
Mof_Cu	Cu	-0	0.5	-0	0.869
Mof_Cu	Cu	0.5	0.5	-0	0.9
Mof_Cu	Cu	0.5	0	-0	0.871
Mof_H 	H 	0.6728	0.6479	0.4228	0.096
Mof_H 	H 	0.6803	0.8179	0.4782	0.14
Mof_H 	H 	0.7061	0.7458	0.5485	0.135
Mof_H 	H 	0.6025	0.6838	0.3091	0.145
Mof_H 	H 	0.5418	0.7314	0.3721	0.155
Mof_H 	H 	0.9751	0.3272	0.4228	0.153
Mof_H 	H 	0.1376	0.3197	0.4782	0.102
Mof_H 	H 	0.0397	0.2939	0.5485	0.084
Mof_H 	H 	0.0813	0.3975	0.3091	0.112
Mof_H 	H 	0.1896	0.4582	0.3721	0.144
Mof_H 	H 	0.3521	0.0249	0.4228	0.034
Mof_H 	H 	0.1821	0.8624	0.4782	0.121
Mof_H 	H 	0.2542	0.9603	0.5485	0.142
Mof_H 	H 	0.3162	0.9187	0.3091	0.155
Mof_H 	H 	0.2686	0.8104	0.3721	0.149
Mof_H 	H 	0.0249	0.3521	0.0772	0.029
Mof_H 	H 	0.8624	0.1821	0.0218	0.023
Mof_H 	H 	0.9603	0.2542	0.9515	0.097
Mof_H 	H 	0.9187	0.3162	0.1909	0.153
Mof_H 	H 	0.8104	0.2686	0.1279	0.137
Mof_H 	H 	0.6479	0.6728	0.0772	0.095
Mof_H 	H 	0.8179	0.6803	0.0218	0.041
Mof_H 	H 	0.7458	0.7061	0.9515	0.088
Mof_H 	H 	0.6838	0.6025	0.1909	0.142
Mof_H 	H 	0.7314	0.5418	0.1279	0.143
Mof_H 	H 	0.3272	0.9751	0.0772	0.149
Mof_H 	H 	0.3197	0.1376	0.0218	-0.002
Mof_H 	H 	0.2939	0.0397	0.9515	0.037
Mof_H 	H 	0.3975	0.0813	0.1909	0.109
Mof_H 	H 	0.4582	0.1896	0.1279	0.131
Mof_H 	H 	0.3272	0.3521	0.5772	0.09
Mof_H 	H 	0.3197	0.1821	0.5218	0.104
Mof_H 	H 	0.2939	0.2542	0.4515	0.106
Mof_H 	H 	0.3975	0.3162	0.6909	0.132
Mof_H 	H 	0.4582	0.2686	0.6279	0.145
Mof_H 	H 	0.0249	0.6728	0.5772	0.035
Mof_H 	H 	0.8624	0.6803	0.5218	0.14
Mof_H 	H 	0.9603	0.7061	0.4515	0.157
Mof_H 	H 	0.9187	0.6025	0.6909	0.164
Mof_H 	H 	0.8104	0.5418	0.6279	0.155
Mof_H 	H 	0.6479	0.9751	0.5772	0.153
Mof_H 	H 	0.8179	0.1376	0.5218	0.122
Mof_H 	H 	0.7458	0.0397	0.4515	0.099
Mof_H 	H 	0.6838	0.0813	0.6909	0.121
Mof_H 	H 	0.7314	0.1896	0.6279	0.15
Mof_H 	H 	0.9751	0.6479	0.9228	0.156
Mof_H 	H 	0.1376	0.8179	0.9782	0.22
Mof_H 	H 	0.0397	0.7458	0.0485	0.144
Mof_H 	H 	0.0813	0.6838	0.8091	0.122
Mof_H 	H 	0.1896	0.7314	0.8721	0.161
Mof_H 	H 	0.3521	0.3272	0.9228	0.092
Mof_H 	H 	0.1821	0.3197	0.9782	0.207
Mof_H 	H 	0.2542	0.2939	0.0485	0.155
Mof_H 	H 	0.3162	0.3975	0.8091	0.134
Mof_H 	H 	0.2686	0.4582	0.8721	0.157
Mof_H 	H 	0.6728	0.0249	0.9228	0.042
Mof_H 	H 	0.6803	0.8624	0.9782	0.236
Mof_H 	H 	0.7061	0.9603	0.0485	0.201
Mof_H 	H 	0.6025	0.9187	0.8091	0.164
Mof_H 	H 	0.5418	0.8104	0.8721	0.166
Mof_C 	C 	0.5462	0.7283	0.5675	0.399
Mof_C 	C 	0.6474	0.7448	0.5096	-0.306
Mof_C 	C 	0.5529	0.6664	0.3617	-0.386
Mof_C 	C 	0.4383	0.5615	0.3415	0.52
Mof_C 	C 	0.1821	0.4538	0.5675	0.381
Mof_C 	C 	0.0974	0.3526	0.5096	-0.27
Mof_C 	C 	0.1135	0.4471	0.3617	-0.368
Mof_C 	C 	0.1232	0.5617	0.3415	0.509
Mof_C 	C 	0.2717	0.8179	0.5675	0.402
Mof_C 	C 	0.2552	0.9026	0.5096	-0.302
Mof_C 	C 	0.3336	0.8865	0.3617	-0.386
Mof_C 	C 	0.4385	0.8768	0.3415	0.524
Mof_C 	C 	0.8179	0.2717	0.9325	0.356
Mof_C 	C 	0.9026	0.2552	0.9904	-0.105
Mof_C 	C 	0.8865	0.3336	0.1383	-0.377
Mof_C 	C 	0.8768	0.4385	0.1585	0.517
Mof_C 	C 	0.7283	0.5462	0.9325	0.353
Mof_C 	C 	0.7448	0.6474	0.9904	-0.108
Mof_C 	C 	0.6664	0.5529	0.1383	-0.377
Mof_C 	C 	0.5615	0.4383	0.1585	0.513
Mof_C 	C 	0.4538	0.1821	0.9325	0.332
Mof_C 	C 	0.3526	0.0974	0.9904	-0.063
Mof_C 	C 	0.4471	0.1135	0.1383	-0.359
Mof_C 	C 	0.5617	0.1232	0.1585	0.502
Mof_C 	C 	0.4538	0.2717	0.4325	0.389
Mof_C 	C 	0.3526	0.2552	0.4904	-0.282
Mof_C 	C 	0.4471	0.3336	0.6383	-0.379
Mof_C 	C 	0.5617	0.4385	0.6585	0.517
Mof_C 	C 	0.8179	0.5462	0.4325	0.407
Mof_C 	C 	0.9026	0.6474	0.4904	-0.314
Mof_C 	C 	0.8865	0.5529	0.6383	-0.391
Mof_C 	C 	0.8768	0.4383	0.6585	0.527
Mof_C 	C 	0.7283	0.1821	0.4325	0.386
Mof_C 	C 	0.7448	0.0974	0.4904	-0.283
Mof_C 	C 	0.6664	0.1135	0.6383	-0.375
Mof_C 	C 	0.5615	0.1232	0.6585	0.512
Mof_C 	C 	0.1821	0.7283	0.0675	0.432
Mof_C 	C 	0.0974	0.7448	0.0096	-0.479
Mof_C 	C 	0.1135	0.6664	0.8617	-0.379
Mof_C 	C 	0.1232	0.5615	0.8415	0.518
Mof_C 	C 	0.2717	0.4538	0.0675	0.438
Mof_C 	C 	0.2552	0.3526	0.0096	-0.486
Mof_C 	C 	0.3336	0.4471	0.8617	-0.384
Mof_C 	C 	0.4385	0.5617	0.8415	0.523
Mof_C 	C 	0.5462	0.8179	0.0675	0.452
Mof_C 	C 	0.6474	0.9026	0.0096	-0.505
Mof_C 	C 	0.5529	0.8865	0.8617	-0.396
Mof_C 	C 	0.4383	0.8768	0.8415	0.532
Mof_N 	N 	0.6101	0.651	0.4419	-0.155
Mof_N 	N 	0.0409	0.3899	0.4419	-0.214
Mof_N 	N 	0.349	0.9591	0.4419	-0.101
Mof_N 	N 	0.9591	0.349	0.0581	-0.144
Mof_N 	N 	0.651	0.6101	0.0581	-0.202
Mof_N 	N 	0.3899	0.0409	0.0581	-0.261
Mof_N 	N 	0.3899	0.349	0.5581	-0.16
Mof_N 	N 	0.9591	0.6101	0.5581	-0.095
Mof_N 	N 	0.651	0.0409	0.5581	-0.208
Mof_N 	N 	0.0409	0.651	0.9419	-0.157
Mof_N 	N 	0.349	0.3899	0.9419	-0.105
Mof_N 	N 	0.6101	0.9591	0.9419	-0.048
Mof_O 	O 	0.4511	0.6366	0.5565	-0.573
Mof_O 	O 	0.5591	0.8018	0.625	-0.435
Mof_O 	O 	0.4025	0.4756	0.3936	-0.447
Mof_O 	O 	0.3853	0.5649	0.2738	-0.602
Mof_O 	O 	0.1855	0.5489	0.5565	-0.575
Mof_O 	O 	0.2427	0.4409	0.625	-0.447
Mof_O 	O 	0.0731	0.5975	0.3936	-0.465
Mof_O 	O 	0.1796	0.6147	0.2738	-0.606
Mof_O 	O 	0.3634	0.8145	0.5565	-0.564
Mof_O 	O 	0.1982	0.7573	0.625	-0.448
Mof_O 	O 	0.5244	0.9269	0.3936	-0.412
Mof_O 	O 	0.4351	0.8204	0.2738	-0.592
Mof_O 	O 	0.8145	0.3634	0.9435	-0.531
Mof_O 	O 	0.7573	0.1982	0.875	-0.427
Mof_O 	O 	0.9269	0.5244	0.1064	-0.419
Mof_O 	O 	0.8204	0.4351	0.2262	-0.592
Mof_O 	O 	0.6366	0.4511	0.9435	-0.54
Mof_O 	O 	0.8018	0.5591	0.875	-0.414
Mof_O 	O 	0.4756	0.4025	0.1064	-0.455
Mof_O 	O 	0.5649	0.3853	0.2262	-0.603
Mof_O 	O 	0.5489	0.1855	0.9435	-0.54
Mof_O 	O 	0.4409	0.2427	0.875	-0.425
Mof_O 	O 	0.5975	0.0731	0.1064	-0.472
Mof_O 	O 	0.6147	0.1796	0.2262	-0.606
Mof_O 	O 	0.5489	0.3634	0.4435	-0.571
Mof_O 	O 	0.4409	0.1982	0.375	-0.452
Mof_O 	O 	0.5975	0.5244	0.6064	-0.442
Mof_O 	O 	0.6147	0.4351	0.7262	-0.601
Mof_O 	O 	0.8145	0.4511	0.4435	-0.563
Mof_O 	O 	0.7573	0.5591	0.375	-0.441
Mof_O 	O 	0.9269	0.4025	0.6064	-0.413
Mof_O 	O 	0.8204	0.3853	0.7262	-0.596
Mof_O 	O 	0.6366	0.1855	0.4435	-0.574
Mof_O 	O 	0.8018	0.2427	0.375	-0.438
Mof_O 	O 	0.4756	0.0731	0.6064	-0.466
Mof_O 	O 	0.5649	0.1796	0.7262	-0.61
Mof_O 	O 	0.1855	0.6366	0.0565	-0.602
Mof_O 	O 	0.2427	0.8018	0.125	-0.459
Mof_O 	O 	0.0731	0.4756	0.8936	-0.448
Mof_O 	O 	0.1796	0.5649	0.7738	-0.609
Mof_O 	O 	0.3634	0.5489	0.0565	-0.599
Mof_O 	O 	0.1982	0.4409	0.125	-0.473
Mof_O 	O 	0.5244	0.5975	0.8936	-0.423
Mof_O 	O 	0.4351	0.6147	0.7738	-0.6
Mof_O 	O 	0.4511	0.8145	0.0565	-0.59
Mof_O 	O 	0.5591	0.7573	0.125	-0.46
Mof_O 	O 	0.4025	0.9269	0.8936	-0.397
Mof_O 	O 	0.3853	0.8204	0.7738	-0.595
_end
