data_functionalizedCrystal
_audit_creation_method	'EQeq! by Chris Wilmer'
_symmetry_space_group_name_H-M	'P1'
_symmetry_Int_Tables_number	1
_symmetry_cell_setting	triclinic
loop_
_symmetry_equiv_pos_as_xyz
  x,y,z
_cell_length_a	15.8664
_cell_length_b	15.8664
_cell_length_c	21.7986
_cell_angle_alpha	90
_cell_angle_beta	90
_cell_angle_gamma	90
loop_
_atom_site_label
_atom_site_type_symbol
_atom_site_fract_x
_atom_site_fract_y
_atom_site_fract_z
_atom_site_charge
Mof_C 	C 	0.756	0.9629	0.7862	0.077
Mof_H 	H 	0.7603	0.9941	0.8222	0.01
Mof_C 	C 	0.6913	0.9045	0.7816	-0.135
Mof_H 	H 	0.6543	0.8969	0.8142	0.077
Mof_C 	C 	0.6815	0.8568	0.7281	0.066
Mof_C 	C 	0.7383	0.8753	0.6802	-0.132
Mof_H 	H 	0.7334	0.848	0.6427	0.074
Mof_C 	C 	0.8014	0.9341	0.6893	0.076
Mof_H 	H 	0.8383	0.9447	0.6571	0.013
Mof_C 	C 	0.6164	0.7904	0.7226	0.021
Mof_C 	C 	0.5472	0.7854	0.762	-0.083
Mof_H 	H 	0.5404	0.8259	0.7925	0.058
Mof_C 	C 	0.489	0.7215	0.7566	0.008
Mof_H 	H 	0.4427	0.7203	0.7828	0.023
Mof_C 	C 	0.4983	0.6593	0.7128	-0.087
Mof_H 	H 	0.458	0.6171	0.709	0.064
Mof_C 	C 	0.5688	0.66	0.6742	0.024
Mof_C 	C 	0.6269	0.7258	0.6789	-0.087
Mof_H 	H 	0.6733	0.727	0.6528	0.064
Mof_C 	C 	0.5768	0.5917	0.62934	0.092
Mof_C 	C 	0.6285	0.4972	0.56697	0.087
Mof_C 	C 	0.6911	0.4412	0.53705	0.024
Mof_C 	C 	0.7217	0.4573	0.4779	-0.088
Mof_H 	H 	0.7031	0.5039	0.4559	0.067
Mof_C 	C 	0.7807	0.4019	0.4526	0.009
Mof_H 	H 	0.8003	0.4109	0.413	0.026
Mof_C 	C 	0.8103	0.3337	0.4861	-0.091
Mof_H 	H 	0.8494	0.2974	0.4686	0.067
Mof_C 	C 	0.782	0.319	0.5457	0.024
Mof_C 	C 	0.7207	0.3741	0.5697	-0.091
Mof_H 	H 	0.6999	0.3644	0.609	0.062
Mof_C 	C 	0.8123	0.2468	0.5828	0.066
Mof_C 	C 	0.7693	0.2211	0.6354	-0.139
Mof_H 	H 	0.718	0.2458	0.6455	0.075
Mof_C 	C 	0.8027	0.1594	0.6724	0.073
Mof_H 	H 	0.7724	0.1434	0.707	0.006
Mof_C 	C 	0.915	0.1398	0.6089	0.074
Mof_H 	H 	0.9636	0.1103	0.5984	0.014
Mof_C 	C 	0.8858	0.2021	0.5688	-0.135
Mof_H 	H 	0.9152	0.2138	0.5329	0.08
Mof_N 	N 	0.8126	0.9768	0.74193	-0.15
Mof_N 	N 	0.5129	0.5523	0.60443	-0.102
Mof_N 	N 	0.5458	0.4922	0.56505	-0.115
Mof_N 	N 	0.6501	0.5588	0.60694	-0.112
Mof_N 	N 	0.7327	0.5816	0.6248	-0.215
Mof_N 	N 	0.8768	0.1205	0.6615	-0.152
Mof_H 	H 	0.7612	0.5334	0.6208	0.12
Mof_H 	H 	0.7419	0.615	0.591	0.112
Mof_C 	C 	0.244	0.0371	0.2862	0.075
Mof_H 	H 	0.2397	0.0059	0.3222	0.008
Mof_C 	C 	0.3087	0.0955	0.2816	-0.136
Mof_H 	H 	0.3457	0.1031	0.3142	0.076
Mof_C 	C 	0.3185	0.1432	0.2281	0.065
Mof_C 	C 	0.2617	0.1247	0.1802	-0.133
Mof_H 	H 	0.2666	0.152	0.1427	0.073
Mof_C 	C 	0.1986	0.0659	0.1893	0.075
Mof_H 	H 	0.1617	0.0553	0.1571	0.012
Mof_C 	C 	0.3836	0.2096	0.2226	0.02
Mof_C 	C 	0.4528	0.2146	0.262	-0.084
Mof_H 	H 	0.4596	0.1741	0.2925	0.058
Mof_C 	C 	0.511	0.2785	0.2566	0.007
Mof_H 	H 	0.5573	0.2797	0.2828	0.023
Mof_C 	C 	0.5017	0.3407	0.2128	-0.087
Mof_H 	H 	0.542	0.3829	0.209	0.064
Mof_C 	C 	0.4312	0.34	0.1742	0.024
Mof_C 	C 	0.3731	0.2742	0.1789	-0.087
Mof_H 	H 	0.3267	0.273	0.1528	0.063
Mof_C 	C 	0.4232	0.4083	0.12934	0.091
Mof_C 	C 	0.3715	0.5028	0.06697	0.092
Mof_C 	C 	0.3089	0.5588	0.03705	0.003
Mof_C 	C 	0.2783	0.5427	0.9779	-0.063
Mof_H 	H 	0.2969	0.4961	0.9559	0.06
Mof_C 	C 	0.2193	0.5981	0.9526	-0.013
Mof_H 	H 	0.1997	0.5891	0.913	0.034
Mof_C 	C 	0.1897	0.6663	0.9861	-0.064
Mof_H 	H 	0.1506	0.7026	0.9686	0.059
Mof_C 	C 	0.218	0.681	0.0457	0.002
Mof_C 	C 	0.2793	0.6259	0.0697	-0.074
Mof_H 	H 	0.3001	0.6356	0.109	0.056
Mof_C 	C 	0.1877	0.7532	0.0828	0.074
Mof_C 	C 	0.2307	0.7789	0.1354	-0.144
Mof_H 	H 	0.282	0.7542	0.1455	0.078
Mof_C 	C 	0.1973	0.8406	0.1724	0.076
Mof_H 	H 	0.2276	0.8566	0.207	0.005
Mof_C 	C 	0.085	0.8602	0.1089	0.076
Mof_H 	H 	0.0364	0.8897	0.0984	0.012
Mof_C 	C 	0.1142	0.7979	0.0688	-0.14
Mof_H 	H 	0.0848	0.7862	0.0329	0.08
Mof_N 	N 	0.1874	0.0232	0.24193	-0.15
Mof_N 	N 	0.4871	0.4477	0.10443	-0.102
Mof_N 	N 	0.4542	0.5078	0.06505	-0.116
Mof_N 	N 	0.3499	0.4412	0.10694	-0.113
Mof_N 	N 	0.2673	0.4184	0.1248	-0.215
Mof_N 	N 	0.1232	0.8795	0.1615	-0.153
Mof_H 	H 	0.2388	0.4666	0.1208	0.119
Mof_H 	H 	0.2581	0.385	0.091	0.111
Mof_C 	C 	0.5371	0.256	0.5362	0.075
Mof_H 	H 	0.5059	0.2603	0.5722	0.008
Mof_C 	C 	0.5955	0.1913	0.5316	-0.136
Mof_H 	H 	0.6031	0.1543	0.5642	0.076
Mof_C 	C 	0.6432	0.1815	0.4781	0.065
Mof_C 	C 	0.6247	0.2383	0.4302	-0.133
Mof_H 	H 	0.652	0.2334	0.3927	0.073
Mof_C 	C 	0.5659	0.3014	0.4393	0.075
Mof_H 	H 	0.5553	0.3383	0.4071	0.012
Mof_C 	C 	0.7096	0.1164	0.4726	0.02
Mof_C 	C 	0.7146	0.0472	0.512	-0.085
Mof_H 	H 	0.6741	0.0404	0.5425	0.058
Mof_C 	C 	0.7785	0.989	0.5066	0.008
Mof_H 	H 	0.7797	0.9427	0.5328	0.023
Mof_C 	C 	0.8407	0.9983	0.4628	-0.086
Mof_H 	H 	0.8829	0.958	0.459	0.064
Mof_C 	C 	0.84	0.0688	0.4242	0.023
Mof_C 	C 	0.7742	0.1269	0.4289	-0.087
Mof_H 	H 	0.773	0.1733	0.4028	0.064
Mof_C 	C 	0.9083	0.0768	0.37934	0.092
Mof_C 	C 	0.0028	0.1285	0.31697	0.088
Mof_C 	C 	0.0588	0.1911	0.28705	0.023
Mof_C 	C 	0.0427	0.2217	0.2279	-0.087
Mof_H 	H 	0.9961	0.2031	0.2059	0.066
Mof_C 	C 	0.0981	0.2807	0.2026	0.008
Mof_H 	H 	0.0891	0.3003	0.163	0.026
Mof_C 	C 	0.1663	0.3103	0.2361	-0.09
Mof_H 	H 	0.2026	0.3494	0.2186	0.067
Mof_C 	C 	0.181	0.282	0.2957	0.023
Mof_C 	C 	0.1259	0.2207	0.3197	-0.09
Mof_H 	H 	0.1356	0.1999	0.359	0.062
Mof_C 	C 	0.2532	0.3123	0.3328	0.067
Mof_C 	C 	0.2789	0.2693	0.3854	-0.139
Mof_H 	H 	0.2542	0.218	0.3955	0.076
Mof_C 	C 	0.3406	0.3027	0.4224	0.073
Mof_H 	H 	0.3566	0.2724	0.457	0.006
Mof_C 	C 	0.3602	0.415	0.3589	0.074
Mof_H 	H 	0.3897	0.4636	0.3484	0.014
Mof_C 	C 	0.2979	0.3858	0.3188	-0.135
Mof_H 	H 	0.2862	0.4152	0.2829	0.08
Mof_N 	N 	0.5232	0.3126	0.49193	-0.15
Mof_N 	N 	0.9477	0.0129	0.35443	-0.102
Mof_N 	N 	0.0078	0.0458	0.31505	-0.114
Mof_N 	N 	0.9412	0.1501	0.35694	-0.113
Mof_N 	N 	0.9184	0.2327	0.3748	-0.215
Mof_N 	N 	0.3795	0.3768	0.4115	-0.152
Mof_H 	H 	0.9666	0.2612	0.3708	0.119
Mof_H 	H 	0.885	0.2419	0.341	0.112
Mof_C 	C 	0.4629	0.744	0.0362	0.071
Mof_H 	H 	0.4941	0.7397	0.0722	0.009
Mof_C 	C 	0.4045	0.8087	0.0316	-0.144
Mof_H 	H 	0.3969	0.8457	0.0642	0.078
Mof_C 	C 	0.3568	0.8185	0.9781	0.073
Mof_C 	C 	0.3753	0.7617	0.9302	-0.135
Mof_H 	H 	0.348	0.7666	0.8927	0.074
Mof_C 	C 	0.4341	0.6986	0.9393	0.077
Mof_H 	H 	0.4447	0.6617	0.9071	0.012
Mof_C 	C 	0.2904	0.8836	0.9726	0.025
Mof_C 	C 	0.2854	0.9528	0.012	-0.091
Mof_H 	H 	0.3259	0.9596	0.0425	0.059
Mof_C 	C 	0.2215	0.011	0.0066	0
Mof_H 	H 	0.2203	0.0573	0.0328	0.024
Mof_C 	C 	0.1593	0.0017	0.9628	-0.076
Mof_H 	H 	0.1171	0.042	0.959	0.062
Mof_C 	C 	0.16	0.9312	0.9242	0.022
Mof_C 	C 	0.2258	0.8731	0.9289	-0.086
Mof_H 	H 	0.227	0.8267	0.9028	0.063
Mof_C 	C 	0.0917	0.9232	0.87934	0.093
Mof_C 	C 	0.9972	0.8715	0.81697	0.088
Mof_C 	C 	0.9412	0.8089	0.78705	0.023
Mof_C 	C 	0.9573	0.7783	0.7279	-0.087
Mof_H 	H 	0.0039	0.7969	0.7059	0.066
Mof_C 	C 	0.9019	0.7193	0.7026	0.008
Mof_H 	H 	0.9109	0.6997	0.663	0.027
Mof_C 	C 	0.8337	0.6897	0.7361	-0.09
Mof_H 	H 	0.7974	0.6506	0.7186	0.067
Mof_C 	C 	0.819	0.718	0.7957	0.023
Mof_C 	C 	0.8741	0.7793	0.8197	-0.09
Mof_H 	H 	0.8644	0.8001	0.859	0.062
Mof_C 	C 	0.7468	0.6877	0.8328	0.067
Mof_C 	C 	0.7211	0.7307	0.8854	-0.138
Mof_H 	H 	0.7458	0.782	0.8955	0.076
Mof_C 	C 	0.6594	0.6973	0.9224	0.074
Mof_H 	H 	0.6434	0.7276	0.957	0.008
Mof_C 	C 	0.6398	0.585	0.8589	0.074
Mof_H 	H 	0.6103	0.5364	0.8484	0.014
Mof_C 	C 	0.7021	0.6142	0.8188	-0.134
Mof_H 	H 	0.7138	0.5848	0.7829	0.08
Mof_N 	N 	0.4768	0.6874	0.99193	-0.145
Mof_N 	N 	0.0523	0.9871	0.85443	-0.102
Mof_N 	N 	0.9922	0.9542	0.81505	-0.114
Mof_N 	N 	0.0588	0.8499	0.85694	-0.112
Mof_N 	N 	0.0816	0.7673	0.8748	-0.214
Mof_N 	N 	0.6205	0.6232	0.9115	-0.15
Mof_H 	H 	0.0334	0.7388	0.8708	0.12
Mof_H 	H 	0.115	0.7581	0.841	0.112
Mof_C 	C 	0.744	0.4629	0.9638	0.079
Mof_H 	H 	0.7397	0.4941	0.9278	0.008
Mof_C 	C 	0.8087	0.4045	0.9684	-0.127
Mof_H 	H 	0.8457	0.3969	0.9358	0.074
Mof_C 	C 	0.8185	0.3568	0.0219	0.057
Mof_C 	C 	0.7617	0.3753	0.0698	-0.13
Mof_H 	H 	0.7666	0.348	0.1073	0.072
Mof_C 	C 	0.6986	0.4341	0.0607	0.072
Mof_H 	H 	0.6617	0.4447	0.0929	0.013
Mof_C 	C 	0.8836	0.2904	0.0274	0.018
Mof_C 	C 	0.9528	0.2854	0.988	-0.084
Mof_H 	H 	0.9596	0.3259	0.9575	0.059
Mof_C 	C 	0.011	0.2215	0.9934	0.022
Mof_H 	H 	0.0573	0.2203	0.9672	0.02
Mof_C 	C 	0.0017	0.1593	0.0372	-0.1
Mof_H 	H 	0.042	0.1171	0.041	0.067
Mof_C 	C 	0.9312	0.16	0.0758	0.028
Mof_C 	C 	0.8731	0.2258	0.0711	-0.09
Mof_H 	H 	0.8267	0.227	0.0972	0.065
Mof_C 	C 	0.9232	0.0917	0.12066	0.09
Mof_C 	C 	0.8715	0.9972	0.18303	0.088
Mof_C 	C 	0.8089	0.9412	0.21295	0.023
Mof_C 	C 	0.7783	0.9573	0.2721	-0.086
Mof_H 	H 	0.7969	0.0039	0.2941	0.066
Mof_C 	C 	0.7193	0.9019	0.2974	0.008
Mof_H 	H 	0.6997	0.9109	0.337	0.027
Mof_C 	C 	0.6897	0.8337	0.2639	-0.09
Mof_H 	H 	0.6506	0.7974	0.2814	0.066
Mof_C 	C 	0.718	0.819	0.2043	0.023
Mof_C 	C 	0.7793	0.8741	0.1803	-0.09
Mof_H 	H 	0.8001	0.8644	0.141	0.061
Mof_C 	C 	0.6877	0.7468	0.1672	0.067
Mof_C 	C 	0.7307	0.7211	0.1146	-0.139
Mof_H 	H 	0.782	0.7458	0.1045	0.075
Mof_C 	C 	0.6973	0.6594	0.0776	0.073
Mof_H 	H 	0.7276	0.6434	0.043	0.004
Mof_C 	C 	0.585	0.6398	0.1411	0.074
Mof_H 	H 	0.5364	0.6103	0.1516	0.014
Mof_C 	C 	0.6142	0.7021	0.1812	-0.135
Mof_H 	H 	0.5848	0.7138	0.2171	0.08
Mof_N 	N 	0.6874	0.4768	0.00807	-0.153
Mof_N 	N 	0.9871	0.0523	0.14557	-0.102
Mof_N 	N 	0.9542	0.9922	0.18495	-0.114
Mof_N 	N 	0.8499	0.0588	0.14306	-0.112
Mof_N 	N 	0.7673	0.0816	0.1252	-0.216
Mof_N 	N 	0.6232	0.6205	0.0885	-0.152
Mof_H 	H 	0.7388	0.0334	0.1292	0.119
Mof_H 	H 	0.7581	0.115	0.159	0.112
Mof_C 	C 	0.256	0.5371	0.4638	0.075
Mof_H 	H 	0.2603	0.5059	0.4278	0.008
Mof_C 	C 	0.1913	0.5955	0.4684	-0.136
Mof_H 	H 	0.1543	0.6031	0.4358	0.076
Mof_C 	C 	0.1815	0.6432	0.5219	0.065
Mof_C 	C 	0.2383	0.6247	0.5698	-0.133
Mof_H 	H 	0.2334	0.652	0.6073	0.073
Mof_C 	C 	0.3014	0.5659	0.5607	0.075
Mof_H 	H 	0.3383	0.5553	0.5929	0.012
Mof_C 	C 	0.1164	0.7096	0.5274	0.02
Mof_C 	C 	0.0472	0.7146	0.488	-0.084
Mof_H 	H 	0.0404	0.6741	0.4575	0.058
Mof_C 	C 	0.989	0.7785	0.4934	0.008
Mof_H 	H 	0.9427	0.7797	0.4672	0.023
Mof_C 	C 	0.9983	0.8407	0.5372	-0.086
Mof_H 	H 	0.958	0.8829	0.541	0.064
Mof_C 	C 	0.0688	0.84	0.5758	0.023
Mof_C 	C 	0.1269	0.7742	0.5711	-0.087
Mof_H 	H 	0.1733	0.773	0.5972	0.064
Mof_C 	C 	0.0768	0.9083	0.62066	0.092
Mof_C 	C 	0.1285	0.0028	0.68303	0.088
Mof_C 	C 	0.1911	0.0588	0.71295	0.023
Mof_C 	C 	0.2217	0.0427	0.7721	-0.087
Mof_H 	H 	0.2031	0.9961	0.7941	0.066
Mof_C 	C 	0.2807	0.0981	0.7974	0.008
Mof_H 	H 	0.3003	0.0891	0.837	0.027
Mof_C 	C 	0.3103	0.1663	0.7639	-0.09
Mof_H 	H 	0.3494	0.2026	0.7814	0.067
Mof_C 	C 	0.282	0.181	0.7043	0.023
Mof_C 	C 	0.2207	0.1259	0.6803	-0.09
Mof_H 	H 	0.1999	0.1356	0.641	0.062
Mof_C 	C 	0.3123	0.2532	0.6672	0.067
Mof_C 	C 	0.2693	0.2789	0.6146	-0.139
Mof_H 	H 	0.218	0.2542	0.6045	0.076
Mof_C 	C 	0.3027	0.3406	0.5776	0.073
Mof_H 	H 	0.2724	0.3566	0.543	0.006
Mof_C 	C 	0.415	0.3602	0.6411	0.074
Mof_H 	H 	0.4636	0.3897	0.6516	0.014
Mof_C 	C 	0.3858	0.2979	0.6812	-0.135
Mof_H 	H 	0.4152	0.2862	0.7171	0.08
Mof_N 	N 	0.3126	0.5232	0.50807	-0.15
Mof_N 	N 	0.0129	0.9477	0.64557	-0.102
Mof_N 	N 	0.0458	0.0078	0.68495	-0.114
Mof_N 	N 	0.1501	0.9412	0.64306	-0.112
Mof_N 	N 	0.2327	0.9184	0.6252	-0.215
Mof_N 	N 	0.3768	0.3795	0.5885	-0.152
Mof_H 	H 	0.2612	0.9666	0.6292	0.119
Mof_H 	H 	0.2419	0.885	0.659	0.112
Mof_C 	C 	0.9629	0.756	0.2138	0.075
Mof_H 	H 	0.9941	0.7603	0.1778	0.008
Mof_C 	C 	0.9045	0.6913	0.2184	-0.136
Mof_H 	H 	0.8969	0.6543	0.1858	0.076
Mof_C 	C 	0.8568	0.6815	0.2719	0.065
Mof_C 	C 	0.8753	0.7383	0.3198	-0.133
Mof_H 	H 	0.848	0.7334	0.3573	0.073
Mof_C 	C 	0.9341	0.8014	0.3107	0.075
Mof_H 	H 	0.9447	0.8383	0.3429	0.012
Mof_C 	C 	0.7904	0.6164	0.2774	0.02
Mof_C 	C 	0.7854	0.5472	0.238	-0.083
Mof_H 	H 	0.8259	0.5404	0.2075	0.058
Mof_C 	C 	0.7215	0.489	0.2434	0.007
Mof_H 	H 	0.7203	0.4427	0.2172	0.023
Mof_C 	C 	0.6593	0.4983	0.2872	-0.087
Mof_H 	H 	0.6171	0.458	0.291	0.064
Mof_C 	C 	0.66	0.5688	0.3258	0.024
Mof_C 	C 	0.7258	0.6269	0.3211	-0.087
Mof_H 	H 	0.727	0.6733	0.3472	0.064
Mof_C 	C 	0.5917	0.5768	0.37066	0.092
Mof_C 	C 	0.4972	0.6285	0.43303	0.087
Mof_C 	C 	0.4412	0.6911	0.46295	0.024
Mof_C 	C 	0.4573	0.7217	0.5221	-0.088
Mof_H 	H 	0.5039	0.7031	0.5441	0.067
Mof_C 	C 	0.4019	0.7807	0.5474	0.009
Mof_H 	H 	0.4109	0.8003	0.587	0.026
Mof_C 	C 	0.3337	0.8103	0.5139	-0.091
Mof_H 	H 	0.2974	0.8494	0.5314	0.067
Mof_C 	C 	0.319	0.782	0.4543	0.024
Mof_C 	C 	0.3741	0.7207	0.4303	-0.091
Mof_H 	H 	0.3644	0.6999	0.391	0.062
Mof_C 	C 	0.2468	0.8123	0.4172	0.066
Mof_C 	C 	0.2211	0.7693	0.3646	-0.139
Mof_H 	H 	0.2458	0.718	0.3545	0.075
Mof_C 	C 	0.1594	0.8027	0.3276	0.073
Mof_H 	H 	0.1434	0.7724	0.293	0.006
Mof_C 	C 	0.1398	0.915	0.3911	0.074
Mof_H 	H 	0.1103	0.9636	0.4016	0.014
Mof_C 	C 	0.2021	0.8858	0.4312	-0.135
Mof_H 	H 	0.2138	0.9152	0.4671	0.08
Mof_N 	N 	0.9768	0.8126	0.25807	-0.15
Mof_N 	N 	0.5523	0.5129	0.39557	-0.102
Mof_N 	N 	0.4922	0.5458	0.43495	-0.115
Mof_N 	N 	0.5588	0.6501	0.39306	-0.112
Mof_N 	N 	0.5816	0.7327	0.3752	-0.215
Mof_N 	N 	0.1205	0.8768	0.3385	-0.152
Mof_H 	H 	0.5334	0.7612	0.3792	0.12
Mof_H 	H 	0.615	0.7419	0.409	0.112
Mof_C 	C 	0.0371	0.244	0.7138	0.076
Mof_H 	H 	0.0059	0.2397	0.6778	0.008
Mof_C 	C 	0.0955	0.3087	0.7184	-0.136
Mof_H 	H 	0.1031	0.3457	0.6858	0.076
Mof_C 	C 	0.1432	0.3185	0.7719	0.065
Mof_C 	C 	0.1247	0.2617	0.8198	-0.133
Mof_H 	H 	0.152	0.2666	0.8573	0.074
Mof_C 	C 	0.0659	0.1986	0.8107	0.075
Mof_H 	H 	0.0553	0.1617	0.8429	0.013
Mof_C 	C 	0.2096	0.3836	0.7774	0.02
Mof_C 	C 	0.2146	0.4528	0.738	-0.084
Mof_H 	H 	0.1741	0.4596	0.7075	0.058
Mof_C 	C 	0.2785	0.511	0.7434	0.008
Mof_H 	H 	0.2797	0.5573	0.7172	0.023
Mof_C 	C 	0.3407	0.5017	0.7872	-0.087
Mof_H 	H 	0.3829	0.542	0.791	0.064
Mof_C 	C 	0.34	0.4312	0.8258	0.024
Mof_C 	C 	0.2742	0.3731	0.8211	-0.087
Mof_H 	H 	0.273	0.3267	0.8472	0.064
Mof_C 	C 	0.4083	0.4232	0.87066	0.092
Mof_C 	C 	0.5028	0.3715	0.93303	0.083
Mof_C 	C 	0.5588	0.3089	0.96295	0.043
Mof_C 	C 	0.5427	0.2783	0.0221	-0.112
Mof_H 	H 	0.4961	0.2969	0.0441	0.074
Mof_C 	C 	0.5981	0.2193	0.0474	0.029
Mof_H 	H 	0.5891	0.1997	0.087	0.019
Mof_C 	C 	0.6663	0.1897	0.0139	-0.115
Mof_H 	H 	0.7026	0.1506	0.0314	0.074
Mof_C 	C 	0.681	0.218	0.9543	0.043
Mof_C 	C 	0.6259	0.2793	0.9303	-0.106
Mof_H 	H 	0.6356	0.3001	0.891	0.067
Mof_C 	C 	0.7532	0.1877	0.9172	0.059
Mof_C 	C 	0.7789	0.2307	0.8646	-0.133
Mof_H 	H 	0.7542	0.282	0.8545	0.073
Mof_C 	C 	0.8406	0.1973	0.8276	0.071
Mof_H 	H 	0.8566	0.2276	0.793	0.007
Mof_C 	C 	0.8602	0.085	0.8911	0.072
Mof_H 	H 	0.8897	0.0364	0.9016	0.015
Mof_C 	C 	0.7979	0.1142	0.9312	-0.129
Mof_H 	H 	0.7862	0.0848	0.9671	0.08
Mof_N 	N 	0.0232	0.1874	0.75807	-0.15
Mof_N 	N 	0.4477	0.4871	0.89557	-0.101
Mof_N 	N 	0.5078	0.4542	0.93495	-0.112
Mof_N 	N 	0.4412	0.3499	0.89306	-0.111
Mof_N 	N 	0.4184	0.2673	0.8752	-0.216
Mof_N 	N 	0.8795	0.1232	0.8385	-0.151
Mof_H 	H 	0.4666	0.2388	0.8792	0.12
Mof_H 	H 	0.385	0.2581	0.909	0.113
Mof_Cd	Cd	0.44092	0.44092	0.5	0.382
Mof_Cd	Cd	0.55908	0.55908	-0	0.375
Mof_Cd	Cd	0.05908	0.94092	0.25	0.38
Mof_Cd	Cd	0.94092	0.05908	0.75	0.38
_end
