data_functionalizedCrystal
_audit_creation_method	'EQeq! by Chris Wilmer'
_symmetry_space_group_name_H-M	'P1'
_symmetry_Int_Tables_number	1
_symmetry_cell_setting	triclinic
loop_
_symmetry_equiv_pos_as_xyz
  x,y,z
_cell_length_a	14.7488
_cell_length_b	10.7434
_cell_length_c	28.8774
_cell_angle_alpha	90
_cell_angle_beta	90
_cell_angle_gamma	90
loop_
_atom_site_label
_atom_site_type_symbol
_atom_site_fract_x
_atom_site_fract_y
_atom_site_fract_z
_atom_site_charge
Mof_O 	O 	0.6559	0.2518	0.31899	-0.464
Mof_O 	O 	0.6547	0.3938	0.26314	-0.48
Mof_C 	C 	0.5606	0.4262	0.32743	-0.102
Mof_C 	C 	0.6295	0.3515	0.30069	0.394
Mof_C 	C 	0.5594	0.4244	0.37539	-0.041
Mof_H 	H 	0.5987	0.3719	0.3913	0.05
Mof_C 	C 	0.4488	0.4148	0.47561	0.081
Mof_C 	C 	0.4013	0.3048	0.4487	-0.528
Mof_H 	H 	0.3373	0.3206	0.4467	0.171
Mof_H 	H 	0.4114	0.2281	0.4649	0.167
Mof_H 	H 	0.4262	0.2989	0.4181	0.185
Mof_O 	O 	0.1559	0.7518	0.81899	-0.464
Mof_O 	O 	0.1547	0.8938	0.76314	-0.479
Mof_C 	C 	0.0606	0.9262	0.82743	-0.102
Mof_C 	C 	0.1295	0.8515	0.80069	0.394
Mof_C 	C 	0.0594	0.9244	0.87539	-0.041
Mof_H 	H 	0.0987	0.8719	0.8913	0.05
Mof_C 	C 	0.9488	0.9148	0.97561	0.08
Mof_C 	C 	0.9013	0.8048	0.9487	-0.527
Mof_H 	H 	0.8373	0.8206	0.9467	0.17
Mof_H 	H 	0.9114	0.7281	0.9649	0.167
Mof_H 	H 	0.9262	0.7989	0.9181	0.184
Mof_O 	O 	0.8441	0.2518	0.68101	-0.464
Mof_O 	O 	0.8453	0.3938	0.73686	-0.48
Mof_C 	C 	0.9394	0.4262	0.67257	-0.102
Mof_C 	C 	0.8705	0.3515	0.69931	0.394
Mof_C 	C 	0.9406	0.4244	0.62461	-0.042
Mof_H 	H 	0.9013	0.3719	0.6087	0.051
Mof_C 	C 	0.0512	0.4148	0.52439	0.081
Mof_C 	C 	0.0987	0.3048	0.5513	-0.528
Mof_H 	H 	0.1627	0.3206	0.5533	0.171
Mof_H 	H 	0.0886	0.2281	0.5351	0.167
Mof_H 	H 	0.0738	0.2989	0.5819	0.185
Mof_O 	O 	0.3441	0.7518	0.18101	-0.464
Mof_O 	O 	0.3453	0.8938	0.23686	-0.48
Mof_C 	C 	0.4394	0.9262	0.17257	-0.102
Mof_C 	C 	0.3705	0.8515	0.19931	0.394
Mof_C 	C 	0.4406	0.9244	0.12461	-0.042
Mof_H 	H 	0.4013	0.8719	0.1087	0.051
Mof_C 	C 	0.5512	0.9148	0.02439	0.08
Mof_C 	C 	0.5987	0.8048	0.0513	-0.528
Mof_H 	H 	0.6627	0.8206	0.0533	0.17
Mof_H 	H 	0.5886	0.7281	0.0351	0.167
Mof_H 	H 	0.5738	0.7989	0.0819	0.184
Mof_O 	O 	0.1559	0.7482	0.68101	-0.464
Mof_O 	O 	0.1547	0.6062	0.73686	-0.48
Mof_C 	C 	0.0606	0.5738	0.67257	-0.102
Mof_C 	C 	0.1295	0.6485	0.69931	0.394
Mof_C 	C 	0.0594	0.5756	0.62461	-0.041
Mof_H 	H 	0.0987	0.6281	0.6087	0.051
Mof_C 	C 	0.9488	0.5852	0.52439	0.08
Mof_C 	C 	0.9013	0.6952	0.5513	-0.528
Mof_H 	H 	0.8373	0.6794	0.5533	0.17
Mof_H 	H 	0.9114	0.7719	0.5351	0.167
Mof_H 	H 	0.9262	0.7011	0.5819	0.184
Mof_O 	O 	0.6559	0.2482	0.18101	-0.464
Mof_O 	O 	0.6547	0.1062	0.23686	-0.479
Mof_C 	C 	0.5606	0.0738	0.17257	-0.102
Mof_C 	C 	0.6295	0.1485	0.19931	0.394
Mof_C 	C 	0.5594	0.0756	0.12461	-0.041
Mof_H 	H 	0.5987	0.1281	0.1087	0.051
Mof_C 	C 	0.4488	0.0852	0.02439	0.081
Mof_C 	C 	0.4013	0.1952	0.0513	-0.528
Mof_H 	H 	0.3373	0.1794	0.0533	0.171
Mof_H 	H 	0.4114	0.2719	0.0351	0.167
Mof_H 	H 	0.4262	0.2011	0.0819	0.185
Mof_O 	O 	0.3441	0.7482	0.31899	-0.464
Mof_O 	O 	0.3453	0.6062	0.26314	-0.48
Mof_C 	C 	0.4394	0.5738	0.32743	-0.102
Mof_C 	C 	0.3705	0.6485	0.30069	0.394
Mof_C 	C 	0.4406	0.5756	0.37539	-0.041
Mof_H 	H 	0.4013	0.6281	0.3913	0.05
Mof_C 	C 	0.5512	0.5852	0.47561	0.081
Mof_C 	C 	0.5987	0.6952	0.4487	-0.528
Mof_H 	H 	0.6627	0.6794	0.4467	0.171
Mof_H 	H 	0.5886	0.7719	0.4649	0.167
Mof_H 	H 	0.5738	0.7011	0.4181	0.185
Mof_O 	O 	0.8441	0.2482	0.81899	-0.464
Mof_O 	O 	0.8453	0.1062	0.76314	-0.479
Mof_C 	C 	0.9394	0.0738	0.82743	-0.102
Mof_C 	C 	0.8705	0.1485	0.80069	0.394
Mof_C 	C 	0.9406	0.0756	0.87539	-0.041
Mof_H 	H 	0.9013	0.1281	0.8913	0.05
Mof_C 	C 	0.0512	0.0852	0.97561	0.081
Mof_C 	C 	0.0987	0.1952	0.9487	-0.528
Mof_H 	H 	0.1627	0.1794	0.9467	0.17
Mof_H 	H 	0.0886	0.2719	0.9649	0.167
Mof_H 	H 	0.0738	0.2011	0.9181	0.185
Mof_O 	O 	0.3441	0.7482	0.68101	-0.464
Mof_O 	O 	0.3453	0.6062	0.73686	-0.48
Mof_C 	C 	0.4394	0.5738	0.67257	-0.102
Mof_C 	C 	0.3705	0.6485	0.69931	0.394
Mof_C 	C 	0.4406	0.5756	0.62461	-0.041
Mof_H 	H 	0.4013	0.6281	0.6087	0.05
Mof_C 	C 	0.5512	0.5852	0.52439	0.081
Mof_C 	C 	0.5987	0.6952	0.5513	-0.528
Mof_H 	H 	0.6627	0.6794	0.5533	0.171
Mof_H 	H 	0.5886	0.7719	0.5351	0.167
Mof_H 	H 	0.5738	0.7011	0.5819	0.185
Mof_O 	O 	0.8441	0.2482	0.18101	-0.464
Mof_O 	O 	0.8453	0.1062	0.23686	-0.479
Mof_C 	C 	0.9394	0.0738	0.17257	-0.102
Mof_C 	C 	0.8705	0.1485	0.19931	0.394
Mof_C 	C 	0.9406	0.0756	0.12461	-0.041
Mof_H 	H 	0.9013	0.1281	0.1087	0.05
Mof_C 	C 	0.0512	0.0852	0.02439	0.081
Mof_C 	C 	0.0987	0.1952	0.0513	-0.528
Mof_H 	H 	0.1627	0.1794	0.0533	0.17
Mof_H 	H 	0.0886	0.2719	0.0351	0.167
Mof_H 	H 	0.0738	0.2011	0.0819	0.185
Mof_O 	O 	0.1559	0.7482	0.31899	-0.464
Mof_O 	O 	0.1547	0.6062	0.26314	-0.48
Mof_C 	C 	0.0606	0.5738	0.32743	-0.102
Mof_C 	C 	0.1295	0.6485	0.30069	0.394
Mof_C 	C 	0.0594	0.5756	0.37539	-0.041
Mof_H 	H 	0.0987	0.6281	0.3913	0.051
Mof_C 	C 	0.9488	0.5852	0.47561	0.08
Mof_C 	C 	0.9013	0.6952	0.4487	-0.528
Mof_H 	H 	0.8373	0.6794	0.4467	0.17
Mof_H 	H 	0.9114	0.7719	0.4649	0.167
Mof_H 	H 	0.9262	0.7011	0.4181	0.184
Mof_O 	O 	0.6559	0.2482	0.81899	-0.464
Mof_O 	O 	0.6547	0.1062	0.76314	-0.479
Mof_C 	C 	0.5606	0.0738	0.82743	-0.102
Mof_C 	C 	0.6295	0.1485	0.80069	0.394
Mof_C 	C 	0.5594	0.0756	0.87539	-0.041
Mof_H 	H 	0.5987	0.1281	0.8913	0.051
Mof_C 	C 	0.4488	0.0852	0.97561	0.081
Mof_C 	C 	0.4013	0.1952	0.9487	-0.528
Mof_H 	H 	0.3373	0.1794	0.9467	0.171
Mof_H 	H 	0.4114	0.2719	0.9649	0.167
Mof_H 	H 	0.4262	0.2011	0.9181	0.185
Mof_O 	O 	0.8441	0.2518	0.31899	-0.464
Mof_O 	O 	0.8453	0.3938	0.26314	-0.48
Mof_C 	C 	0.9394	0.4262	0.32743	-0.102
Mof_C 	C 	0.8705	0.3515	0.30069	0.394
Mof_C 	C 	0.9406	0.4244	0.37539	-0.042
Mof_H 	H 	0.9013	0.3719	0.3913	0.051
Mof_C 	C 	0.0512	0.4148	0.47561	0.081
Mof_C 	C 	0.0987	0.3048	0.4487	-0.528
Mof_H 	H 	0.1627	0.3206	0.4467	0.171
Mof_H 	H 	0.0886	0.2281	0.4649	0.167
Mof_H 	H 	0.0738	0.2989	0.4181	0.185
Mof_O 	O 	0.3441	0.7518	0.81899	-0.464
Mof_O 	O 	0.3453	0.8938	0.76314	-0.48
Mof_C 	C 	0.4394	0.9262	0.82743	-0.102
Mof_C 	C 	0.3705	0.8515	0.80069	0.394
Mof_C 	C 	0.4406	0.9244	0.87539	-0.042
Mof_H 	H 	0.4013	0.8719	0.8913	0.051
Mof_C 	C 	0.5512	0.9148	0.97561	0.08
Mof_C 	C 	0.5987	0.8048	0.9487	-0.528
Mof_H 	H 	0.6627	0.8206	0.9467	0.17
Mof_H 	H 	0.5886	0.7281	0.9649	0.167
Mof_H 	H 	0.5738	0.7989	0.9181	0.184
Mof_O 	O 	0.6559	0.2518	0.68101	-0.464
Mof_O 	O 	0.6547	0.3938	0.73686	-0.48
Mof_C 	C 	0.5606	0.4262	0.67257	-0.102
Mof_C 	C 	0.6295	0.3515	0.69931	0.394
Mof_C 	C 	0.5594	0.4244	0.62461	-0.041
Mof_H 	H 	0.5987	0.3719	0.6087	0.05
Mof_C 	C 	0.4488	0.4148	0.52439	0.081
Mof_C 	C 	0.4013	0.3048	0.5513	-0.528
Mof_H 	H 	0.3373	0.3206	0.5533	0.171
Mof_H 	H 	0.4114	0.2281	0.5351	0.167
Mof_H 	H 	0.4262	0.2989	0.5819	0.185
Mof_O 	O 	0.1559	0.7518	0.18101	-0.464
Mof_O 	O 	0.1547	0.8938	0.23686	-0.479
Mof_C 	C 	0.0606	0.9262	0.17257	-0.102
Mof_C 	C 	0.1295	0.8515	0.19931	0.394
Mof_C 	C 	0.0594	0.9244	0.12461	-0.041
Mof_H 	H 	0.0987	0.8719	0.1087	0.05
Mof_C 	C 	0.9488	0.9148	0.02439	0.08
Mof_C 	C 	0.9013	0.8048	0.0513	-0.527
Mof_H 	H 	0.8373	0.8206	0.0533	0.17
Mof_H 	H 	0.9114	0.7281	0.0351	0.167
Mof_H 	H 	0.9262	0.7989	0.0819	0.184
Mof_Co	Co	0.75	0.15388	0.28526	1.137
Mof_Co	Co	0.25	0.65388	0.78526	1.137
Mof_Co	Co	0.75	0.15388	0.71474	1.137
Mof_Co	Co	0.25	0.65388	0.21474	1.137
Mof_Co	Co	0.25	0.84612	0.71474	1.137
Mof_Co	Co	0.75	0.34612	0.21474	1.137
Mof_Co	Co	0.25	0.84612	0.28526	1.137
Mof_Co	Co	0.75	0.34612	0.78526	1.137
Mof_C 	C 	0.5	0.5	0.3037	0.033
Mof_H 	H 	0.5	0.5	0.2715	0.033
Mof_C 	C 	0.5	0.5	0.4	0.027
Mof_C 	C 	0.5	0.5	0.4519	-0.094
Mof_C 	C 	5.90007e-33	2.20675e-32	0.8037	0.032
Mof_H 	H 	-1.64039e-32	0	0.7715	0.033
Mof_C 	C 	6.60702e-33	2.20675e-32	0.9	0.025
Mof_C 	C 	6.98802e-33	0	0.9519	-0.093
Mof_C 	C 	5.11163e-33	0.5	0.6963	0.033
Mof_H 	H 	2.74156e-32	0.5	0.7285	0.032
Mof_C 	C 	-6.62909e-33	0.5	0.6	0.027
Mof_C 	C 	4.02368e-33	0.5	0.5481	-0.094
Mof_C 	C 	0.5	0	0.1963	0.033
Mof_H 	H 	0.5	0	0.2285	0.032
Mof_C 	C 	0.5	0	0.1	0.027
Mof_C 	C 	0.5	1.37922e-33	0.0481	-0.094
Mof_C 	C 	0.5	0.5	0.6963	0.033
Mof_H 	H 	0.5	0.5	0.7285	0.033
Mof_C 	C 	0.5	0.5	0.6	0.027
Mof_C 	C 	0.5	0.5	0.5481	-0.094
Mof_C 	C 	-1.31738e-33	0	0.1963	0.032
Mof_H 	H 	1.67745e-33	0	0.2285	0.033
Mof_C 	C 	-6.45108e-34	0	0.1	0.025
Mof_C 	C 	3.53109e-34	1.37922e-33	0.0481	-0.093
Mof_C 	C 	-3.28738e-33	0.5	0.3037	0.033
Mof_H 	H 	7.51e-33	0.5	0.2715	0.032
Mof_C 	C 	2.93645e-33	0.5	0.4	0.027
Mof_C 	C 	3.31746e-33	0.5	0.4519	-0.094
Mof_C 	C 	0.5	2.20675e-32	0.8037	0.033
Mof_H 	H 	0.5	0	0.7715	0.032
Mof_C 	C 	0.5	2.20675e-32	0.9	0.027
Mof_C 	C 	0.5	0	0.9519	-0.094
_end
