data_functionalizedCrystal
_audit_creation_method	'EQeq! by Chris Wilmer'
_symmetry_space_group_name_H-M	'P1'
_symmetry_Int_Tables_number	1
_symmetry_cell_setting	triclinic
loop_
_symmetry_equiv_pos_as_xyz
  x,y,z
_cell_length_a	8.2846
_cell_length_b	18.1175
_cell_length_c	20.7615
_cell_angle_alpha	90
_cell_angle_beta	97.678
_cell_angle_gamma	90
loop_
_atom_site_label
_atom_site_type_symbol
_atom_site_fract_x
_atom_site_fract_y
_atom_site_fract_z
_atom_site_charge
Mof_Np	Np	0.5685	0.80435	0.38162	-0.056
Mof_O 	O 	0.4975	0.8231	0.4566	-0.392
Mof_O 	O 	0.4481	0.6789	0.3882	-0.635
Mof_O 	O 	0.7086	0.6917	0.4222	-0.637
Mof_O 	O 	0.2104	0.4232	0.3869	-0.335
Mof_O 	O 	0.3614	0.3291	0.4234	-0.59
Mof_O 	O 	0.2748	0.8006	0.3291	-0.678
Mof_O 	O 	0.411	0.9044	0.3283	-0.339
Mof_C 	C 	0.5846	0.6519	0.4112	0.553
Mof_C 	C 	0.6028	0.5707	0.4244	-0.488
Mof_C 	C 	0.4716	0.5241	0.4119	0.362
Mof_H 	H 	0.3679	0.5431	0.3948	-0.23
Mof_C 	C 	0.4908	0.4485	0.4244	-0.417
Mof_C 	C 	0.6438	0.4206	0.4492	0.313
Mof_H 	H 	0.6575	0.3692	0.4573	-0.283
Mof_C 	C 	0.7756	0.468	0.4618	-0.407
Mof_H 	H 	0.88	0.4494	0.4785	0.051
Mof_C 	C 	0.7534	0.5433	0.4499	0.329
Mof_H 	H 	0.8429	0.5761	0.4593	-0.255
Mof_C 	C 	0.349	0.3972	0.4109	0.46
Mof_C 	C 	0.2816	0.8683	0.3135	0.48
Mof_C 	C 	0.135	0.9059	0.279	-0.425
Mof_C 	C 	0.1352	0.9831	0.2784	0.28
Mof_H 	H 	0.2288	0.0093	0.2975	-0.183
Mof_Cs	Cs	0.05635	0.69496	0.38883	3.751
Mof_Np	Np	0.0685	0.30435	0.38162	-0.045
Mof_O 	O 	0.9975	0.3231	0.4566	-0.396
Mof_O 	O 	0.9481	0.1789	0.3882	-0.642
Mof_O 	O 	0.2086	0.1917	0.4222	-0.629
Mof_O 	O 	0.7104	0.9232	0.3869	-0.34
Mof_O 	O 	0.8614	0.8291	0.4234	-0.601
Mof_O 	O 	0.7748	0.3006	0.3291	-0.676
Mof_O 	O 	0.911	0.4044	0.3283	-0.344
Mof_C 	C 	0.0846	0.1519	0.4112	0.56
Mof_C 	C 	0.1028	0.0707	0.4244	-0.474
Mof_C 	C 	0.9716	0.0241	0.4119	0.346
Mof_H 	H 	0.8679	0.0431	0.3948	-0.226
Mof_C 	C 	0.9908	0.9485	0.4244	-0.428
Mof_C 	C 	0.1438	0.9206	0.4492	0.328
Mof_H 	H 	0.1575	0.8692	0.4573	-0.288
Mof_C 	C 	0.2756	0.968	0.4618	-0.409
Mof_H 	H 	0.38	0.9494	0.4785	0.053
Mof_C 	C 	0.2534	0.0433	0.4499	0.325
Mof_H 	H 	0.3429	0.0761	0.4593	-0.249
Mof_C 	C 	0.849	0.8972	0.4109	0.464
Mof_C 	C 	0.7816	0.3683	0.3135	0.476
Mof_C 	C 	0.635	0.4059	0.279	-0.418
Mof_C 	C 	0.6352	0.4831	0.2784	0.27
Mof_H 	H 	0.7288	0.5093	0.2975	-0.18
Mof_Cs	Cs	0.55635	0.19496	0.38883	3.693
Mof_Np	Np	0.4315	0.80435	0.11838	-0.053
Mof_O 	O 	0.5025	0.8231	0.0434	-0.388
Mof_O 	O 	0.5519	0.6789	0.1118	-0.625
Mof_O 	O 	0.2914	0.6917	0.0778	-0.618
Mof_O 	O 	0.7896	0.4232	0.1131	-0.342
Mof_O 	O 	0.6386	0.3291	0.0766	-0.593
Mof_O 	O 	0.7252	0.8006	0.1709	-0.672
Mof_O 	O 	0.589	0.9044	0.1717	-0.338
Mof_C 	C 	0.4154	0.6519	0.0888	0.545
Mof_C 	C 	0.3972	0.5707	0.0756	-0.478
Mof_C 	C 	0.5284	0.5241	0.0881	0.356
Mof_H 	H 	0.6321	0.5431	0.1052	-0.226
Mof_C 	C 	0.5092	0.4485	0.0756	-0.414
Mof_C 	C 	0.3562	0.4206	0.0508	0.31
Mof_H 	H 	0.3425	0.3692	0.0427	-0.283
Mof_C 	C 	0.2244	0.468	0.0382	-0.4
Mof_H 	H 	0.12	0.4494	0.0215	0.054
Mof_C 	C 	0.2466	0.5433	0.0501	0.322
Mof_H 	H 	0.1571	0.5761	0.0407	-0.241
Mof_C 	C 	0.651	0.3972	0.0891	0.46
Mof_C 	C 	0.7184	0.8683	0.1865	0.478
Mof_C 	C 	0.865	0.9059	0.221	-0.434
Mof_C 	C 	0.8648	0.9831	0.2216	0.268
Mof_H 	H 	0.7712	0.0093	0.2025	-0.181
Mof_Cs	Cs	0.94365	0.69496	0.11117	3.627
Mof_Np	Np	0.9315	0.30435	0.11838	-0.064
Mof_O 	O 	0.0025	0.3231	0.0434	-0.383
Mof_O 	O 	0.0519	0.1789	0.1118	-0.615
Mof_O 	O 	0.7914	0.1917	0.0778	-0.625
Mof_O 	O 	0.2896	0.9232	0.1131	-0.335
Mof_O 	O 	0.1386	0.8291	0.0766	-0.578
Mof_O 	O 	0.2252	0.3006	0.1709	-0.67
Mof_O 	O 	0.089	0.4044	0.1717	-0.33
Mof_C 	C 	0.9154	0.1519	0.0888	0.53
Mof_C 	C 	0.8972	0.0707	0.0756	-0.486
Mof_C 	C 	0.0284	0.0241	0.0881	0.359
Mof_H 	H 	0.1321	0.0431	0.1052	-0.227
Mof_C 	C 	0.0092	0.9485	0.0756	-0.386
Mof_C 	C 	0.8562	0.9206	0.0508	0.278
Mof_H 	H 	0.8425	0.8692	0.0427	-0.273
Mof_C 	C 	0.7244	0.968	0.0382	-0.381
Mof_H 	H 	0.62	0.9494	0.0215	0.045
Mof_C 	C 	0.7466	0.0433	0.0501	0.308
Mof_H 	H 	0.6571	0.0761	0.0407	-0.244
Mof_C 	C 	0.151	0.8972	0.0891	0.452
Mof_C 	C 	0.2184	0.3683	0.1865	0.474
Mof_C 	C 	0.365	0.4059	0.221	-0.415
Mof_C 	C 	0.3648	0.4831	0.2216	0.268
Mof_H 	H 	0.2712	0.5093	0.2025	-0.175
Mof_Cs	Cs	0.44365	0.19496	0.11117	3.682
Mof_Np	Np	0.4315	0.19565	0.61838	-0.053
Mof_O 	O 	0.5025	0.1769	0.5434	-0.39
Mof_O 	O 	0.5519	0.3211	0.6118	-0.627
Mof_O 	O 	0.2914	0.3083	0.5778	-0.622
Mof_O 	O 	0.7896	0.5768	0.6131	-0.341
Mof_O 	O 	0.6386	0.6709	0.5766	-0.592
Mof_O 	O 	0.7252	0.1994	0.6709	-0.673
Mof_O 	O 	0.589	0.0956	0.6717	-0.339
Mof_C 	C 	0.4154	0.3481	0.5888	0.546
Mof_C 	C 	0.3972	0.4293	0.5756	-0.48
Mof_C 	C 	0.5284	0.4759	0.5881	0.357
Mof_H 	H 	0.6321	0.4569	0.6052	-0.226
Mof_C 	C 	0.5092	0.5515	0.5756	-0.415
Mof_C 	C 	0.3562	0.5794	0.5508	0.31
Mof_H 	H 	0.3425	0.6308	0.5427	-0.284
Mof_C 	C 	0.2244	0.532	0.5382	-0.402
Mof_H 	H 	0.12	0.5506	0.5215	0.052
Mof_C 	C 	0.2466	0.4567	0.5501	0.323
Mof_H 	H 	0.1571	0.4239	0.5407	-0.243
Mof_C 	C 	0.651	0.6028	0.5891	0.46
Mof_C 	C 	0.7184	0.1317	0.6865	0.478
Mof_C 	C 	0.865	0.0941	0.721	-0.43
Mof_C 	C 	0.8648	0.0169	0.7216	0.271
Mof_H 	H 	0.7712	0.9907	0.7025	-0.181
Mof_Cs	Cs	0.94365	0.30504	0.61117	3.652
Mof_Np	Np	0.9315	0.69565	0.61838	-0.06
Mof_O 	O 	0.0025	0.6769	0.5434	-0.387
Mof_O 	O 	0.0519	0.8211	0.6118	-0.621
Mof_O 	O 	0.7914	0.8083	0.5778	-0.626
Mof_O 	O 	0.2896	0.0768	0.6131	-0.337
Mof_O 	O 	0.1386	0.1709	0.5766	-0.583
Mof_O 	O 	0.2252	0.6994	0.6709	-0.672
Mof_O 	O 	0.089	0.5956	0.6717	-0.333
Mof_C 	C 	0.9154	0.8481	0.5888	0.538
Mof_C 	C 	0.8972	0.9293	0.5756	-0.489
Mof_C 	C 	0.0284	0.9759	0.5881	0.364
Mof_H 	H 	0.1321	0.9569	0.6052	-0.229
Mof_C 	C 	0.0092	0.0515	0.5756	-0.4
Mof_C 	C 	0.8562	0.0794	0.5508	0.293
Mof_H 	H 	0.8425	0.1308	0.5427	-0.278
Mof_C 	C 	0.7244	0.032	0.5382	-0.397
Mof_H 	H 	0.62	0.0506	0.5215	0.049
Mof_C 	C 	0.7466	0.9567	0.5501	0.322
Mof_H 	H 	0.6571	0.9239	0.5407	-0.248
Mof_C 	C 	0.151	0.1028	0.5891	0.456
Mof_C 	C 	0.2184	0.6317	0.6865	0.474
Mof_C 	C 	0.365	0.5941	0.721	-0.415
Mof_C 	C 	0.3648	0.5169	0.7216	0.269
Mof_H 	H 	0.2712	0.4907	0.7025	-0.176
Mof_Cs	Cs	0.44365	0.80504	0.61117	3.688
Mof_Np	Np	0.5685	0.19565	0.88162	-0.054
Mof_O 	O 	0.4975	0.1769	0.9566	-0.39
Mof_O 	O 	0.4481	0.3211	0.8882	-0.632
Mof_O 	O 	0.7086	0.3083	0.9222	-0.632
Mof_O 	O 	0.2104	0.5768	0.8869	-0.337
Mof_O 	O 	0.3614	0.6709	0.9234	-0.591
Mof_O 	O 	0.2748	0.1994	0.8291	-0.676
Mof_O 	O 	0.411	0.0956	0.8283	-0.339
Mof_C 	C 	0.5846	0.3481	0.9112	0.551
Mof_C 	C 	0.6028	0.4293	0.9244	-0.486
Mof_C 	C 	0.4716	0.4759	0.9119	0.361
Mof_H 	H 	0.3679	0.4569	0.8948	-0.229
Mof_C 	C 	0.4908	0.5515	0.9244	-0.416
Mof_C 	C 	0.6438	0.5794	0.9492	0.312
Mof_H 	H 	0.6575	0.6308	0.9573	-0.282
Mof_C 	C 	0.7756	0.532	0.9618	-0.405
Mof_H 	H 	0.88	0.5506	0.9785	0.052
Mof_C 	C 	0.7534	0.4567	0.9499	0.328
Mof_H 	H 	0.8429	0.4239	0.9593	-0.253
Mof_C 	C 	0.349	0.6028	0.9109	0.46
Mof_C 	C 	0.2816	0.1317	0.8135	0.479
Mof_C 	C 	0.135	0.0941	0.779	-0.425
Mof_C 	C 	0.1352	0.0169	0.7784	0.282
Mof_H 	H 	0.2288	0.9907	0.7975	-0.184
Mof_Cs	Cs	0.05635	0.30504	0.88883	3.726
Mof_Np	Np	0.0685	0.69565	0.88162	-0.049
Mof_O 	O 	0.9975	0.6769	0.9566	-0.392
Mof_O 	O 	0.9481	0.8211	0.8882	-0.636
Mof_O 	O 	0.2086	0.8083	0.9222	-0.628
Mof_O 	O 	0.7104	0.0768	0.8869	-0.338
Mof_O 	O 	0.8614	0.1709	0.9234	-0.596
Mof_O 	O 	0.7748	0.6994	0.8291	-0.675
Mof_O 	O 	0.911	0.5956	0.8283	-0.342
Mof_C 	C 	0.0846	0.8481	0.9112	0.553
Mof_C 	C 	0.1028	0.9293	0.9244	-0.473
Mof_C 	C 	0.9716	0.9759	0.9119	0.343
Mof_H 	H 	0.8679	0.9569	0.8948	-0.224
Mof_C 	C 	0.9908	0.0515	0.9244	-0.415
Mof_C 	C 	0.1438	0.0794	0.9492	0.314
Mof_H 	H 	0.1575	0.1308	0.9573	-0.284
Mof_C 	C 	0.2756	0.032	0.9618	-0.397
Mof_H 	H 	0.38	0.0506	0.9785	0.05
Mof_C 	C 	0.2534	0.9567	0.9499	0.314
Mof_H 	H 	0.3429	0.9239	0.9593	-0.246
Mof_C 	C 	0.849	0.1028	0.9109	0.46
Mof_C 	C 	0.7816	0.6317	0.8135	0.475
Mof_C 	C 	0.635	0.5941	0.779	-0.417
Mof_C 	C 	0.6352	0.5169	0.7784	0.27
Mof_H 	H 	0.7288	0.4907	0.7975	-0.179
Mof_Cs	Cs	0.55635	0.80504	0.88883	3.687
Mof_C 	C 	1.84061e-17	0.8666	0.25	0.332
Mof_H 	H 	2.66288e-33	0.8141	0.25	-0.35
Mof_C 	C 	2.66288e-33	0.0213	0.25	-0.367
Mof_H 	H 	2.66288e-33	0.0738	0.25	0.029
Mof_C 	C 	0.5	0.3666	0.25	0.309
Mof_H 	H 	0.5	0.3141	0.25	-0.347
Mof_C 	C 	0.5	0.5213	0.25	-0.371
Mof_H 	H 	0.5	0.5738	0.25	0.025
Mof_C 	C 	-3.68123e-17	0.1334	0.75	0.327
Mof_H 	H 	-7.36246e-17	0.1859	0.75	-0.35
Mof_C 	C 	-7.36246e-17	0.9787	0.75	-0.373
Mof_H 	H 	-3.68123e-17	0.9262	0.75	0.029
Mof_C 	C 	0.5	0.6334	0.75	0.309
Mof_H 	H 	0.5	0.6859	0.75	-0.347
Mof_C 	C 	0.5	0.4787	0.75	-0.371
Mof_H 	H 	0.5	0.4262	0.75	0.026
_end
