data_functionalizedCrystal
_audit_creation_method	'EQeq! by Chris Wilmer'
_symmetry_space_group_name_H-M	'P1'
_symmetry_Int_Tables_number	1
_symmetry_cell_setting	triclinic
loop_
_symmetry_equiv_pos_as_xyz
  x,y,z
_cell_length_a	22.92
_cell_length_b	22.92
_cell_length_c	22.27
_cell_angle_alpha	90
_cell_angle_beta	90
_cell_angle_gamma	120
loop_
_atom_site_label
_atom_site_type_symbol
_atom_site_fract_x
_atom_site_fract_y
_atom_site_fract_z
_atom_site_charge
Mof_I 	I 	0.84675	0.60946	0.83789	-0.684
Mof_I 	I 	0.8105	0.44476	0.70891	-0.59
Mof_Cu	Cu	0.84154	0.57577	0.72245	0.726
Mof_Cu	Cu	0.76475	0.48131	0.80428	0.722
Mof_N 	N 	0.938	0.6266	0.6886	-0.181
Mof_N 	N 	0.7652	0.4206	0.8733	-0.174
Mof_C 	C 	0.9417	0.6015	0.6299	-0.051
Mof_H 	H 	0.9142	0.6099	0.602	0.031
Mof_H 	H 	0.9231	0.5531	0.6323	0.034
Mof_C 	C 	0.9861	0.62	0.7282	-0.069
Mof_H 	H 	0.9729	0.5728	0.7317	0.04
Mof_H 	H 	0.9846	0.6365	0.7679	0.04
Mof_C 	C 	0.9639	0.7009	0.6836	-0.054
Mof_H 	H 	0.9687	0.7201	0.7234	0.024
Mof_H 	H 	0.932	0.7085	0.6612	-0.005
Mof_C 	C 	0.7326	0.4302	0.927	-0.077
Mof_H 	H 	0.6876	0.4211	0.9172	0.039
Mof_H 	H 	0.7586	0.4762	0.9414	0.038
Mof_C 	C 	0.8322	0.4364	0.889	-0.056
Mof_H 	H 	0.8592	0.4842	0.8976	0.032
Mof_H 	H 	0.8526	0.4265	0.8553	0.036
Mof_C 	C 	0.7295	0.351	0.8558	-0.054
Mof_H 	H 	0.7486	0.3456	0.8188	0.033
Mof_H 	H 	0.6827	0.3375	0.8482	0.036
Mof_I 	I 	0.39054	0.23729	0.50456	-0.685
Mof_I 	I 	0.55524	0.36574	0.37558	-0.591
Mof_Cu	Cu	0.42423	0.26577	0.38912	0.725
Mof_Cu	Cu	0.51869	0.28344	0.47095	0.721
Mof_N 	N 	0.3734	0.3114	0.35527	-0.182
Mof_N 	N 	0.5794	0.3446	0.53997	-0.175
Mof_C 	C 	0.3985	0.3402	0.29657	-0.053
Mof_H 	H 	0.3901	0.3043	0.26867	0.03
Mof_H 	H 	0.4469	0.37	0.29897	0.034
Mof_C 	C 	0.38	0.3661	0.39487	-0.069
Mof_H 	H 	0.4272	0.4001	0.39837	0.04
Mof_H 	H 	0.3635	0.3481	0.43457	0.04
Mof_C 	C 	0.2991	0.263	0.35027	-0.055
Mof_H 	H 	0.2799	0.2486	0.39007	0.024
Mof_H 	H 	0.2915	0.2235	0.32787	-0.005
Mof_C 	C 	0.5698	0.3024	0.59367	-0.077
Mof_H 	H 	0.5789	0.2665	0.58387	0.039
Mof_H 	H 	0.5238	0.2824	0.60807	0.038
Mof_C 	C 	0.5636	0.3958	0.55567	-0.056
Mof_H 	H 	0.5158	0.375	0.56427	0.032
Mof_H 	H 	0.5735	0.4261	0.52197	0.036
Mof_C 	C 	0.649	0.3785	0.52247	-0.054
Mof_H 	H 	0.6544	0.403	0.48547	0.033
Mof_H 	H 	0.6625	0.3452	0.51487	0.036
Mof_I 	I 	0.76271	0.15325	0.17122	-0.685
Mof_I 	I 	0.63426	0.1895	0.04224	-0.591
Mof_Cu	Cu	0.73423	0.15846	0.05578	0.725
Mof_Cu	Cu	0.71656	0.23525	0.13761	0.721
Mof_N 	N 	0.6886	0.062	0.02193	-0.182
Mof_N 	N 	0.6554	0.2348	0.20663	-0.175
Mof_C 	C 	0.6598	0.0583	0.96323	-0.052
Mof_H 	H 	0.6957	0.0858	0.93533	0.03
Mof_H 	H 	0.63	0.0769	0.96563	0.034
Mof_C 	C 	0.6339	0.0139	0.06153	-0.07
Mof_H 	H 	0.5999	0.0271	0.06503	0.04
Mof_H 	H 	0.6519	0.0154	0.10123	0.04
Mof_C 	C 	0.737	0.0361	0.01693	-0.056
Mof_H 	H 	0.7514	0.0313	0.05673	0.024
Mof_H 	H 	0.7765	0.068	0.99453	-0.004
Mof_C 	C 	0.6976	0.2674	0.26033	-0.077
Mof_H 	H 	0.7335	0.3124	0.25053	0.039
Mof_H 	H 	0.7176	0.2414	0.27473	0.038
Mof_C 	C 	0.6042	0.1678	0.22233	-0.056
Mof_H 	H 	0.625	0.1408	0.23093	0.031
Mof_H 	H 	0.5739	0.1474	0.18863	0.036
Mof_C 	C 	0.6215	0.2705	0.18913	-0.054
Mof_H 	H 	0.597	0.2514	0.15213	0.033
Mof_H 	H 	0.6548	0.3173	0.18153	0.036
Mof_I 	I 	0.15325	0.39054	0.33789	-0.685
Mof_I 	I 	0.1895	0.55524	0.20891	-0.591
Mof_Cu	Cu	0.15846	0.42423	0.22245	0.725
Mof_Cu	Cu	0.23525	0.51869	0.30428	0.721
Mof_N 	N 	0.062	0.3734	0.1886	-0.182
Mof_N 	N 	0.2348	0.5794	0.3733	-0.175
Mof_C 	C 	0.0583	0.3985	0.1299	-0.052
Mof_H 	H 	0.0858	0.3901	0.102	0.03
Mof_H 	H 	0.0769	0.4469	0.1323	0.034
Mof_C 	C 	0.0139	0.38	0.2282	-0.069
Mof_H 	H 	0.0271	0.4272	0.2317	0.039
Mof_H 	H 	0.0154	0.3635	0.2679	0.04
Mof_C 	C 	0.0361	0.2991	0.1836	-0.054
Mof_H 	H 	0.0313	0.2799	0.2234	0.024
Mof_H 	H 	0.068	0.2915	0.1612	-0.005
Mof_C 	C 	0.2674	0.5698	0.427	-0.077
Mof_H 	H 	0.3124	0.5789	0.4172	0.039
Mof_H 	H 	0.2414	0.5238	0.4414	0.038
Mof_C 	C 	0.1678	0.5636	0.389	-0.056
Mof_H 	H 	0.1408	0.5158	0.3976	0.032
Mof_H 	H 	0.1474	0.5735	0.3553	0.036
Mof_C 	C 	0.2705	0.649	0.3558	-0.054
Mof_H 	H 	0.2514	0.6544	0.3188	0.033
Mof_H 	H 	0.3173	0.6625	0.3482	0.036
Mof_I 	I 	0.60946	0.76271	0.00456	-0.685
Mof_I 	I 	0.44476	0.63426	0.87558	-0.591
Mof_Cu	Cu	0.57577	0.73423	0.88912	0.725
Mof_Cu	Cu	0.48131	0.71656	0.97095	0.721
Mof_N 	N 	0.6266	0.6886	0.85527	-0.182
Mof_N 	N 	0.4206	0.6554	0.03997	-0.175
Mof_C 	C 	0.6015	0.6598	0.79657	-0.053
Mof_H 	H 	0.6099	0.6957	0.76867	0.03
Mof_H 	H 	0.5531	0.63	0.79897	0.034
Mof_C 	C 	0.62	0.6339	0.89487	-0.069
Mof_H 	H 	0.5728	0.5999	0.89837	0.04
Mof_H 	H 	0.6365	0.6519	0.93457	0.04
Mof_C 	C 	0.7009	0.737	0.85027	-0.055
Mof_H 	H 	0.7201	0.7514	0.89007	0.024
Mof_H 	H 	0.7085	0.7765	0.82787	-0.005
Mof_C 	C 	0.4302	0.6976	0.09367	-0.077
Mof_H 	H 	0.4211	0.7335	0.08387	0.039
Mof_H 	H 	0.4762	0.7176	0.10807	0.038
Mof_C 	C 	0.4364	0.6042	0.05567	-0.056
Mof_H 	H 	0.4842	0.625	0.06427	0.032
Mof_H 	H 	0.4265	0.5739	0.02197	0.036
Mof_C 	C 	0.351	0.6215	0.02247	-0.053
Mof_H 	H 	0.3456	0.597	0.98547	0.033
Mof_H 	H 	0.3375	0.6548	0.01487	0.035
Mof_I 	I 	0.23729	0.84675	0.67122	-0.685
Mof_I 	I 	0.36574	0.8105	0.54224	-0.591
Mof_Cu	Cu	0.26577	0.84154	0.55578	0.725
Mof_Cu	Cu	0.28344	0.76475	0.63761	0.721
Mof_N 	N 	0.3114	0.938	0.52193	-0.182
Mof_N 	N 	0.3446	0.7652	0.70663	-0.175
Mof_C 	C 	0.3402	0.9417	0.46323	-0.053
Mof_H 	H 	0.3043	0.9142	0.43533	0.03
Mof_H 	H 	0.37	0.9231	0.46563	0.034
Mof_C 	C 	0.3661	0.9861	0.56153	-0.069
Mof_H 	H 	0.4001	0.9729	0.56503	0.04
Mof_H 	H 	0.3481	0.9846	0.60123	0.04
Mof_C 	C 	0.263	0.9639	0.51693	-0.055
Mof_H 	H 	0.2486	0.9687	0.55673	0.024
Mof_H 	H 	0.2235	0.932	0.49453	-0.005
Mof_C 	C 	0.3024	0.7326	0.76033	-0.077
Mof_H 	H 	0.2665	0.6876	0.75053	0.039
Mof_H 	H 	0.2824	0.7586	0.77473	0.038
Mof_C 	C 	0.3958	0.8322	0.72233	-0.056
Mof_H 	H 	0.375	0.8592	0.73093	0.031
Mof_H 	H 	0.4261	0.8526	0.68863	0.036
Mof_C 	C 	0.3785	0.7295	0.68913	-0.054
Mof_H 	H 	0.403	0.7486	0.65213	0.033
Mof_H 	H 	0.3452	0.6827	0.68153	0.036
Mof_I 	I 	0.60946	0.84675	0.82878	-0.685
Mof_I 	I 	0.44476	0.8105	0.95776	-0.591
Mof_Cu	Cu	0.57577	0.84154	0.94422	0.725
Mof_Cu	Cu	0.48131	0.76475	0.86239	0.721
Mof_N 	N 	0.6266	0.938	0.97807	-0.182
Mof_N 	N 	0.4206	0.7652	0.79337	-0.175
Mof_C 	C 	0.6015	0.9417	0.03677	-0.052
Mof_H 	H 	0.6099	0.9142	0.06467	0.03
Mof_H 	H 	0.5531	0.9231	0.03437	0.034
Mof_C 	C 	0.62	0.9861	0.93847	-0.07
Mof_H 	H 	0.5728	0.9729	0.93497	0.04
Mof_H 	H 	0.6365	0.9846	0.89877	0.04
Mof_C 	C 	0.7009	0.9639	0.98307	-0.055
Mof_H 	H 	0.7201	0.9687	0.94327	0.024
Mof_H 	H 	0.7085	0.932	0.00547	-0.004
Mof_C 	C 	0.4302	0.7326	0.73967	-0.077
Mof_H 	H 	0.4211	0.6876	0.74947	0.039
Mof_H 	H 	0.4762	0.7586	0.72527	0.038
Mof_C 	C 	0.4364	0.8322	0.77767	-0.056
Mof_H 	H 	0.4842	0.8592	0.76907	0.031
Mof_H 	H 	0.4265	0.8526	0.81137	0.036
Mof_C 	C 	0.351	0.7295	0.81087	-0.054
Mof_H 	H 	0.3456	0.7486	0.84787	0.033
Mof_H 	H 	0.3375	0.6827	0.81847	0.036
Mof_I 	I 	0.23729	0.39054	0.16211	-0.685
Mof_I 	I 	0.36574	0.55524	0.29109	-0.591
Mof_Cu	Cu	0.26577	0.42423	0.27755	0.725
Mof_Cu	Cu	0.28344	0.51869	0.19572	0.721
Mof_N 	N 	0.3114	0.3734	0.3114	-0.182
Mof_N 	N 	0.3446	0.5794	0.1267	-0.175
Mof_C 	C 	0.3402	0.3985	0.3701	-0.053
Mof_H 	H 	0.3043	0.3901	0.398	0.03
Mof_H 	H 	0.37	0.4469	0.3677	0.034
Mof_C 	C 	0.3661	0.38	0.2718	-0.069
Mof_H 	H 	0.4001	0.4272	0.2683	0.04
Mof_H 	H 	0.3481	0.3635	0.2321	0.04
Mof_C 	C 	0.263	0.2991	0.3164	-0.055
Mof_H 	H 	0.2486	0.2799	0.2766	0.024
Mof_H 	H 	0.2235	0.2915	0.3388	-0.005
Mof_C 	C 	0.3024	0.5698	0.073	-0.077
Mof_H 	H 	0.2665	0.5789	0.0828	0.04
Mof_H 	H 	0.2824	0.5238	0.0586	0.038
Mof_C 	C 	0.3958	0.5636	0.111	-0.056
Mof_H 	H 	0.375	0.5158	0.1024	0.032
Mof_H 	H 	0.4261	0.5735	0.1447	0.036
Mof_C 	C 	0.3785	0.649	0.1442	-0.054
Mof_H 	H 	0.403	0.6544	0.1812	0.033
Mof_H 	H 	0.3452	0.6625	0.1518	0.036
Mof_I 	I 	0.15325	0.76271	0.49544	-0.685
Mof_I 	I 	0.1895	0.63426	0.62442	-0.591
Mof_Cu	Cu	0.15846	0.73423	0.61088	0.725
Mof_Cu	Cu	0.23525	0.71656	0.52905	0.721
Mof_N 	N 	0.062	0.6886	0.64473	-0.182
Mof_N 	N 	0.2348	0.6554	0.46003	-0.175
Mof_C 	C 	0.0583	0.6598	0.70343	-0.053
Mof_H 	H 	0.0858	0.6957	0.73133	0.03
Mof_H 	H 	0.0769	0.63	0.70103	0.034
Mof_C 	C 	0.0139	0.6339	0.60513	-0.07
Mof_H 	H 	0.0271	0.5999	0.60163	0.04
Mof_H 	H 	0.0154	0.6519	0.56543	0.04
Mof_C 	C 	0.0361	0.737	0.64973	-0.055
Mof_H 	H 	0.0313	0.7514	0.60993	0.024
Mof_H 	H 	0.068	0.7765	0.67213	-0.005
Mof_C 	C 	0.2674	0.6976	0.40633	-0.077
Mof_H 	H 	0.3124	0.7335	0.41613	0.039
Mof_H 	H 	0.2414	0.7176	0.39193	0.038
Mof_C 	C 	0.1678	0.6042	0.44433	-0.056
Mof_H 	H 	0.1408	0.625	0.43573	0.031
Mof_H 	H 	0.1474	0.5739	0.47803	0.036
Mof_C 	C 	0.2705	0.6215	0.47753	-0.054
Mof_H 	H 	0.2514	0.597	0.51453	0.033
Mof_H 	H 	0.3173	0.6548	0.48513	0.036
Mof_I 	I 	0.39054	0.15325	0.32878	-0.685
Mof_I 	I 	0.55524	0.1895	0.45776	-0.591
Mof_Cu	Cu	0.42423	0.15846	0.44422	0.725
Mof_Cu	Cu	0.51869	0.23525	0.36239	0.721
Mof_N 	N 	0.3734	0.062	0.47807	-0.182
Mof_N 	N 	0.5794	0.2348	0.29337	-0.175
Mof_C 	C 	0.3985	0.0583	0.53677	-0.052
Mof_H 	H 	0.3901	0.0858	0.56467	0.03
Mof_H 	H 	0.4469	0.0769	0.53437	0.034
Mof_C 	C 	0.38	0.0139	0.43847	-0.069
Mof_H 	H 	0.4272	0.0271	0.43497	0.04
Mof_H 	H 	0.3635	0.0154	0.39877	0.04
Mof_C 	C 	0.2991	0.0361	0.48307	-0.055
Mof_H 	H 	0.2799	0.0313	0.44327	0.024
Mof_H 	H 	0.2915	0.068	0.50547	-0.005
Mof_C 	C 	0.5698	0.2674	0.23967	-0.077
Mof_H 	H 	0.5789	0.3124	0.24947	0.039
Mof_H 	H 	0.5238	0.2414	0.22527	0.038
Mof_C 	C 	0.5636	0.1678	0.27767	-0.056
Mof_H 	H 	0.5158	0.1408	0.26907	0.031
Mof_H 	H 	0.5735	0.1474	0.31137	0.036
Mof_C 	C 	0.649	0.2705	0.31087	-0.054
Mof_H 	H 	0.6544	0.2514	0.34787	0.033
Mof_H 	H 	0.6625	0.3173	0.31847	0.036
Mof_I 	I 	0.76271	0.60946	0.66211	-0.685
Mof_I 	I 	0.63426	0.44476	0.79109	-0.591
Mof_Cu	Cu	0.73423	0.57577	0.77755	0.725
Mof_Cu	Cu	0.71656	0.48131	0.69572	0.721
Mof_N 	N 	0.6886	0.6266	0.8114	-0.182
Mof_N 	N 	0.6554	0.4206	0.6267	-0.175
Mof_C 	C 	0.6598	0.6015	0.8701	-0.053
Mof_H 	H 	0.6957	0.6099	0.898	0.03
Mof_H 	H 	0.63	0.5531	0.8677	0.034
Mof_C 	C 	0.6339	0.62	0.7718	-0.069
Mof_H 	H 	0.5999	0.5728	0.7683	0.04
Mof_H 	H 	0.6519	0.6365	0.7321	0.04
Mof_C 	C 	0.737	0.7009	0.8164	-0.055
Mof_H 	H 	0.7514	0.7201	0.7766	0.024
Mof_H 	H 	0.7765	0.7085	0.8388	-0.005
Mof_C 	C 	0.6976	0.4302	0.573	-0.077
Mof_H 	H 	0.7335	0.4211	0.5828	0.039
Mof_H 	H 	0.7176	0.4762	0.5586	0.038
Mof_C 	C 	0.6042	0.4364	0.611	-0.056
Mof_H 	H 	0.625	0.4842	0.6024	0.032
Mof_H 	H 	0.5739	0.4265	0.6447	0.036
Mof_C 	C 	0.6215	0.351	0.6442	-0.054
Mof_H 	H 	0.597	0.3456	0.6812	0.033
Mof_H 	H 	0.6548	0.3375	0.6518	0.036
Mof_I 	I 	0.84675	0.23729	0.99544	-0.684
Mof_I 	I 	0.8105	0.36574	0.12442	-0.591
Mof_Cu	Cu	0.84154	0.26577	0.11088	0.725
Mof_Cu	Cu	0.76475	0.28344	0.02905	0.721
Mof_N 	N 	0.938	0.3114	0.14473	-0.182
Mof_N 	N 	0.7652	0.3446	0.96003	-0.175
Mof_C 	C 	0.9417	0.3402	0.20343	-0.053
Mof_H 	H 	0.9142	0.3043	0.23133	0.03
Mof_H 	H 	0.9231	0.37	0.20103	0.034
Mof_C 	C 	0.9861	0.3661	0.10513	-0.07
Mof_H 	H 	0.9729	0.4001	0.10163	0.04
Mof_H 	H 	0.9846	0.3481	0.06543	0.04
Mof_C 	C 	0.9639	0.263	0.14973	-0.055
Mof_H 	H 	0.9687	0.2486	0.10993	0.024
Mof_H 	H 	0.932	0.2235	0.17213	-0.005
Mof_C 	C 	0.7326	0.3024	0.90633	-0.077
Mof_H 	H 	0.6876	0.2665	0.91613	0.039
Mof_H 	H 	0.7586	0.2824	0.89193	0.038
Mof_C 	C 	0.8322	0.3958	0.94433	-0.056
Mof_H 	H 	0.8592	0.375	0.93573	0.032
Mof_H 	H 	0.8526	0.4261	0.97803	0.036
Mof_C 	C 	0.7295	0.3785	0.97753	-0.053
Mof_H 	H 	0.7486	0.403	0.01453	0.033
Mof_H 	H 	0.6827	0.3452	0.98513	0.035
Mof_Cu	Cu	0.08317	0.21976	0.39233	0.824
Mof_N 	N 	0.1469	0.2253	0.4502	-0.273
Mof_N 	N 	0.2034	0.1935	0.5103	-0.272
Mof_C 	C 	0.1218	0.1063	0.4404	-0.157
Mof_C 	C 	0.0505	0.0705	0.4369	0.039
Mof_H 	H 	0.0266	0.0914	0.4493	-0.033
Mof_C 	C 	0.1576	0.176	0.4657	0.103
Mof_C 	C 	0.2229	0.2577	0.5227	0.046
Mof_C 	C 	0.1884	0.2787	0.4853	0.049
Mof_C 	C 	0.2012	0.3446	0.4883	-0.123
Mof_H 	H 	0.1782	0.3587	0.4633	0.058
Mof_C 	C 	0.2485	0.3896	0.5288	-0.017
Mof_H 	H 	0.2571	0.4337	0.5308	0.031
Mof_C 	C 	0.283	0.3686	0.5662	-0.029
Mof_H 	H 	0.3147	0.3986	0.5933	0.036
Mof_C 	C 	0.2702	0.3026	0.5632	-0.107
Mof_H 	H 	0.2933	0.2885	0.5882	0.044
Mof_Cu	Cu	0.78024	0.86341	0.059	0.824
Mof_N 	N 	0.7747	0.9216	0.11687	-0.274
Mof_N 	N 	0.8065	0.0099	0.17697	-0.273
Mof_C 	C 	0.8937	0.0155	0.10707	-0.166
Mof_C 	C 	0.9295	0.98	0.10357	0.052
Mof_H 	H 	0.9086	0.9352	0.11597	-0.038
Mof_C 	C 	0.824	0.9816	0.13237	0.106
Mof_C 	C 	0.7423	0.9652	0.18937	0.045
Mof_C 	C 	0.7213	0.9097	0.15197	0.049
Mof_C 	C 	0.6554	0.8566	0.15497	-0.123
Mof_H 	H 	0.6413	0.8195	0.12997	0.058
Mof_C 	C 	0.6104	0.8589	0.19547	-0.017
Mof_H 	H 	0.5663	0.8234	0.19747	0.031
Mof_C 	C 	0.6314	0.9144	0.23287	-0.029
Mof_H 	H 	0.6014	0.9161	0.25997	0.036
Mof_C 	C 	0.6974	0.9676	0.22987	-0.107
Mof_H 	H 	0.7115	0.0048	0.25487	0.044
Mof_Cu	Cu	0.13659	0.91683	0.72566	0.824
Mof_N 	N 	0.0784	0.8531	0.78353	-0.273
Mof_N 	N 	0.9901	0.7966	0.84363	-0.272
Mof_C 	C 	0.9845	0.8782	0.77373	-0.153
Mof_C 	C 	0.02	0.9495	0.77023	0.033
Mof_H 	H 	0.0648	0.9734	0.78263	-0.031
Mof_C 	C 	0.0184	0.8424	0.79903	0.101
Mof_C 	C 	0.0348	0.7771	0.85603	0.046
Mof_C 	C 	0.0903	0.8116	0.81863	0.049
Mof_C 	C 	0.1434	0.7988	0.82163	-0.122
Mof_H 	H 	0.1805	0.8218	0.79663	0.058
Mof_C 	C 	0.1411	0.7515	0.86213	-0.018
Mof_H 	H 	0.1766	0.7429	0.86413	0.031
Mof_C 	C 	0.0856	0.717	0.89953	-0.028
Mof_H 	H 	0.0839	0.6853	0.92663	0.035
Mof_C 	C 	0.0324	0.7298	0.89653	-0.109
Mof_H 	H 	0.9952	0.7067	0.92153	0.045
Mof_Cu	Cu	0.91683	0.78024	0.89233	0.824
Mof_N 	N 	0.8531	0.7747	0.9502	-0.274
Mof_N 	N 	0.7966	0.8065	0.0103	-0.272
Mof_C 	C 	0.8782	0.8937	0.9404	-0.159
Mof_C 	C 	0.9495	0.9295	0.9369	0.041
Mof_H 	H 	0.9734	0.9086	0.9493	-0.034
Mof_C 	C 	0.8424	0.824	0.9657	0.104
Mof_C 	C 	0.7771	0.7423	0.0227	0.045
Mof_C 	C 	0.8116	0.7213	0.9853	0.049
Mof_C 	C 	0.7988	0.6554	0.9883	-0.123
Mof_H 	H 	0.8218	0.6413	0.9633	0.058
Mof_C 	C 	0.7515	0.6104	0.0288	-0.017
Mof_H 	H 	0.7429	0.5663	0.0308	0.031
Mof_C 	C 	0.717	0.6314	0.0662	-0.028
Mof_H 	H 	0.6853	0.6014	0.0933	0.036
Mof_C 	C 	0.7298	0.6974	0.0632	-0.107
Mof_H 	H 	0.7067	0.7115	0.0882	0.044
Mof_Cu	Cu	0.21976	0.13659	0.559	0.824
Mof_N 	N 	0.2253	0.0784	0.61687	-0.274
Mof_N 	N 	0.1935	0.9901	0.67697	-0.273
Mof_C 	C 	0.1063	0.9845	0.60707	-0.163
Mof_C 	C 	0.0705	0.02	0.60357	0.047
Mof_H 	H 	0.0914	0.0648	0.61597	-0.036
Mof_C 	C 	0.176	0.0184	0.63237	0.105
Mof_C 	C 	0.2577	0.0348	0.68937	0.045
Mof_C 	C 	0.2787	0.0903	0.65197	0.049
Mof_C 	C 	0.3446	0.1434	0.65497	-0.123
Mof_H 	H 	0.3587	0.1805	0.62997	0.058
Mof_C 	C 	0.3896	0.1411	0.69547	-0.017
Mof_H 	H 	0.4337	0.1766	0.69747	0.03
Mof_C 	C 	0.3686	0.0856	0.73287	-0.029
Mof_H 	H 	0.3986	0.0839	0.75997	0.036
Mof_C 	C 	0.3026	0.0324	0.72987	-0.106
Mof_H 	H 	0.2885	0.9952	0.75487	0.044
Mof_Cu	Cu	0.86341	0.08317	0.22566	0.824
Mof_N 	N 	0.9216	0.1469	0.28353	-0.273
Mof_N 	N 	0.0099	0.2034	0.34363	-0.272
Mof_C 	C 	0.0155	0.1218	0.27373	-0.155
Mof_C 	C 	0.98	0.0505	0.27023	0.036
Mof_H 	H 	0.9352	0.0266	0.28263	-0.032
Mof_C 	C 	0.9816	0.1576	0.29903	0.102
Mof_C 	C 	0.9652	0.2229	0.35603	0.045
Mof_C 	C 	0.9097	0.1884	0.31863	0.049
Mof_C 	C 	0.8566	0.2012	0.32163	-0.123
Mof_H 	H 	0.8195	0.1782	0.29663	0.058
Mof_C 	C 	0.8589	0.2485	0.36213	-0.017
Mof_H 	H 	0.8234	0.2571	0.36413	0.031
Mof_C 	C 	0.9144	0.283	0.39953	-0.028
Mof_H 	H 	0.9161	0.3147	0.42663	0.036
Mof_C 	C 	0.9676	0.2702	0.39653	-0.107
Mof_H 	H 	0.0048	0.2933	0.42153	0.044
Mof_Cu	Cu	0.21976	0.08317	0.27434	0.824
Mof_N 	N 	0.2253	0.1469	0.21647	-0.273
Mof_N 	N 	0.1935	0.2034	0.15637	-0.272
Mof_C 	C 	0.1063	0.1218	0.22627	-0.155
Mof_C 	C 	0.0705	0.0505	0.22977	0.036
Mof_H 	H 	0.0914	0.0266	0.21737	-0.032
Mof_C 	C 	0.176	0.1576	0.20097	0.103
Mof_C 	C 	0.2577	0.2229	0.14397	0.046
Mof_C 	C 	0.2787	0.1884	0.18137	0.049
Mof_C 	C 	0.3446	0.2012	0.17837	-0.123
Mof_H 	H 	0.3587	0.1782	0.20337	0.058
Mof_C 	C 	0.3896	0.2485	0.13787	-0.017
Mof_H 	H 	0.4337	0.2571	0.13587	0.031
Mof_C 	C 	0.3686	0.283	0.10047	-0.028
Mof_H 	H 	0.3986	0.3147	0.07337	0.036
Mof_C 	C 	0.3026	0.2702	0.10347	-0.107
Mof_H 	H 	0.2885	0.2933	0.07847	0.044
Mof_Cu	Cu	0.86341	0.78024	0.60767	0.824
Mof_N 	N 	0.9216	0.7747	0.5498	-0.274
Mof_N 	N 	0.0099	0.8065	0.4897	-0.273
Mof_C 	C 	0.0155	0.8937	0.5596	-0.163
Mof_C 	C 	0.98	0.9295	0.5631	0.047
Mof_H 	H 	0.9352	0.9086	0.5507	-0.036
Mof_C 	C 	0.9816	0.824	0.5343	0.105
Mof_C 	C 	0.9652	0.7423	0.4773	0.046
Mof_C 	C 	0.9097	0.7213	0.5147	0.049
Mof_C 	C 	0.8566	0.6554	0.5117	-0.123
Mof_H 	H 	0.8195	0.6413	0.5367	0.058
Mof_C 	C 	0.8589	0.6104	0.4712	-0.017
Mof_H 	H 	0.8234	0.5663	0.4692	0.031
Mof_C 	C 	0.9144	0.6314	0.4338	-0.029
Mof_H 	H 	0.9161	0.6014	0.4067	0.036
Mof_C 	C 	0.9676	0.6974	0.4368	-0.107
Mof_H 	H 	0.0048	0.7115	0.4118	0.044
Mof_Cu	Cu	0.91683	0.13659	0.941	0.824
Mof_N 	N 	0.8531	0.0784	0.88313	-0.274
Mof_N 	N 	0.7966	0.9901	0.82303	-0.273
Mof_C 	C 	0.8782	0.9845	0.89293	-0.159
Mof_C 	C 	0.9495	0.02	0.89643	0.042
Mof_H 	H 	0.9734	0.0648	0.88403	-0.034
Mof_C 	C 	0.8424	0.0184	0.86763	0.104
Mof_C 	C 	0.7771	0.0348	0.81063	0.045
Mof_C 	C 	0.8116	0.0903	0.84803	0.049
Mof_C 	C 	0.7988	0.1434	0.84503	-0.123
Mof_H 	H 	0.8218	0.1805	0.87003	0.058
Mof_C 	C 	0.7515	0.1411	0.80453	-0.017
Mof_H 	H 	0.7429	0.1766	0.80253	0.03
Mof_C 	C 	0.717	0.0856	0.76713	-0.029
Mof_H 	H 	0.6853	0.0839	0.74003	0.036
Mof_C 	C 	0.7298	0.0324	0.77013	-0.107
Mof_H 	H 	0.7067	0.9952	0.74513	0.044
Mof_Cu	Cu	0.78024	0.91683	0.77434	0.824
Mof_N 	N 	0.7747	0.8531	0.71647	-0.273
Mof_N 	N 	0.8065	0.7966	0.65637	-0.272
Mof_C 	C 	0.8937	0.8782	0.72627	-0.154
Mof_C 	C 	0.9295	0.9495	0.72977	0.035
Mof_H 	H 	0.9086	0.9734	0.71737	-0.032
Mof_C 	C 	0.824	0.8424	0.70097	0.102
Mof_C 	C 	0.7423	0.7771	0.64397	0.046
Mof_C 	C 	0.7213	0.8116	0.68137	0.049
Mof_C 	C 	0.6554	0.7988	0.67837	-0.123
Mof_H 	H 	0.6413	0.8218	0.70337	0.058
Mof_C 	C 	0.6104	0.7515	0.63787	-0.017
Mof_H 	H 	0.5663	0.7429	0.63587	0.031
Mof_C 	C 	0.6314	0.717	0.60047	-0.029
Mof_H 	H 	0.6014	0.6853	0.57337	0.036
Mof_C 	C 	0.6974	0.7298	0.60347	-0.107
Mof_H 	H 	0.7115	0.7067	0.57847	0.044
Mof_Cu	Cu	0.13659	0.21976	0.10767	0.824
Mof_N 	N 	0.0784	0.2253	0.0498	-0.274
Mof_N 	N 	0.9901	0.1935	0.9897	-0.273
Mof_C 	C 	0.9845	0.1063	0.0596	-0.167
Mof_C 	C 	0.02	0.0705	0.0631	0.053
Mof_H 	H 	0.0648	0.0914	0.0507	-0.038
Mof_C 	C 	0.0184	0.176	0.0343	0.107
Mof_C 	C 	0.0348	0.2577	0.9773	0.045
Mof_C 	C 	0.0903	0.2787	0.0147	0.049
Mof_C 	C 	0.1434	0.3446	0.0117	-0.122
Mof_H 	H 	0.1805	0.3587	0.0367	0.058
Mof_C 	C 	0.1411	0.3896	0.9712	-0.018
Mof_H 	H 	0.1766	0.4337	0.9692	0.031
Mof_C 	C 	0.0856	0.3686	0.9338	-0.028
Mof_H 	H 	0.0839	0.3986	0.9067	0.035
Mof_C 	C 	0.0324	0.3026	0.9368	-0.108
Mof_H 	H 	0.9952	0.2885	0.9118	0.045
Mof_Cu	Cu	0.08317	0.86341	0.441	0.824
Mof_N 	N 	0.1469	0.9216	0.38313	-0.273
Mof_N 	N 	0.2034	0.0099	0.32303	-0.272
Mof_C 	C 	0.1218	0.0155	0.39293	-0.157
Mof_C 	C 	0.0505	0.98	0.39643	0.038
Mof_H 	H 	0.0266	0.9352	0.38403	-0.033
Mof_C 	C 	0.1576	0.9816	0.36763	0.103
Mof_C 	C 	0.2229	0.9652	0.31063	0.045
Mof_C 	C 	0.1884	0.9097	0.34803	0.049
Mof_C 	C 	0.2012	0.8566	0.34503	-0.123
Mof_H 	H 	0.1782	0.8195	0.37003	0.058
Mof_C 	C 	0.2485	0.8589	0.30453	-0.017
Mof_H 	H 	0.2571	0.8234	0.30253	0.031
Mof_C 	C 	0.283	0.9144	0.26713	-0.029
Mof_H 	H 	0.3147	0.9161	0.24003	0.036
Mof_C 	C 	0.2702	0.9676	0.27013	-0.107
Mof_H 	H 	0.2933	0.0048	0.24513	0.044
Mof_C 	C 	0.1526	0.0763	0.41667	0.034
Mof_H 	H 	0.1994	0.0997	0.41667	-0.037
Mof_C 	C 	0.0178	0.0089	0.41667	-0.148
Mof_H 	H 	0.9709	0.98545	0.41667	0.063
Mof_C 	C 	0.9237	0.0763	0.08333	0.044
Mof_H 	H 	0.9003	0.0997	0.08333	-0.04
Mof_C 	C 	0.9911	0.0089	0.08333	-0.166
Mof_H 	H 	0.01455	0.98545	0.08333	0.07
Mof_C 	C 	0.9237	0.8474	0.75	0.031
Mof_H 	H 	0.9003	0.8006	0.75	-0.036
Mof_C 	C 	0.9911	0.9822	0.75	-0.143
Mof_H 	H 	0.01455	0.0291	0.75	0.061
Mof_C 	C 	0.8474	0.9237	0.91667	0.037
Mof_H 	H 	0.8006	0.9003	0.91667	-0.038
Mof_C 	C 	0.9822	0.9911	0.91667	-0.152
Mof_H 	H 	0.0291	0.01455	0.91667	0.064
Mof_C 	C 	0.0763	0.9237	0.58333	0.041
Mof_H 	H 	0.0997	0.9003	0.58333	-0.039
Mof_C 	C 	0.0089	0.9911	0.58333	-0.16
Mof_H 	H 	0.98545	0.01455	0.58333	0.067
Mof_C 	C 	0.0763	0.1526	0.25	0.033
Mof_H 	H 	0.0997	0.1994	0.25	-0.036
Mof_C 	C 	0.0089	0.0178	0.25	-0.146
Mof_H 	H 	0.98545	0.9709	0.25	0.062
_end
