data_functionalizedCrystal
_audit_creation_method	'EQeq! by Chris Wilmer'
_symmetry_space_group_name_H-M	'P1'
_symmetry_Int_Tables_number	1
_symmetry_cell_setting	triclinic
loop_
_symmetry_equiv_pos_as_xyz
  x,y,z
_cell_length_a	22.636
_cell_length_b	22.636
_cell_length_c	35.393
_cell_angle_alpha	90
_cell_angle_beta	90
_cell_angle_gamma	90
loop_
_atom_site_label
_atom_site_type_symbol
_atom_site_fract_x
_atom_site_fract_y
_atom_site_fract_z
_atom_site_charge
Mof_N 	N 	0.23512	0.09194	0.64049	-0.201
Mof_C 	C 	0.21733	0.12485	0.66954	0.108
Mof_H 	H 	0.2455	0.1473	0.6822	-0.022
Mof_C 	C 	0.16035	0.12773	0.68193	-0.184
Mof_H 	H 	0.1505	0.1517	0.7023	0.095
Mof_C 	C 	0.1173	0.09469	0.66391	0.115
Mof_C 	C 	0.13478	0.06016	0.6338	-0.179
Mof_H 	H 	0.1074	0.0374	0.6208	0.093
Mof_C 	C 	0.19411	0.05989	0.62317	0.102
Mof_H 	H 	0.2055	0.0361	0.603	-0.015
Mof_C 	C 	0.05478	0.09583	0.67599	-0.038
Mof_C 	C 	0.03144	0.10007	0.71144	-0.031
Mof_C 	C 	0.06519	0.09951	0.74734	0.122
Mof_C 	C 	0.08324	0.04764	0.76305	-0.189
Mof_H 	H 	0.0766	0.0121	0.7506	0.096
Mof_C 	C 	0.11162	0.04834	0.79782	0.113
Mof_H 	H 	0.1228	0.0123	0.8082	-0.023
Mof_N 	N 	0.1238	0.09621	0.81705	-0.22
Mof_C 	C 	0.10759	0.14606	0.8013	0.116
Mof_H 	H 	0.1165	0.1812	0.8137	-0.033
Mof_C 	C 	0.07782	0.14906	0.76719	-0.197
Mof_H 	H 	0.0663	0.1857	0.7578	0.09
Mof_N 	N 	0.73512	0.59194	0.14049	-0.202
Mof_C 	C 	0.71733	0.62485	0.16954	0.107
Mof_H 	H 	0.7455	0.6473	0.1822	-0.023
Mof_C 	C 	0.66035	0.62773	0.18193	-0.185
Mof_H 	H 	0.6505	0.6517	0.2023	0.094
Mof_C 	C 	0.6173	0.59469	0.16391	0.114
Mof_C 	C 	0.63478	0.56016	0.1338	-0.179
Mof_H 	H 	0.6074	0.5374	0.1208	0.092
Mof_C 	C 	0.69411	0.55989	0.12317	0.101
Mof_H 	H 	0.7055	0.5361	0.103	-0.016
Mof_C 	C 	0.55478	0.59583	0.17599	-0.039
Mof_C 	C 	0.53144	0.60007	0.21144	-0.032
Mof_C 	C 	0.56519	0.59951	0.24734	0.122
Mof_C 	C 	0.58324	0.54764	0.26305	-0.19
Mof_H 	H 	0.5766	0.5121	0.2506	0.095
Mof_C 	C 	0.61162	0.54834	0.29782	0.112
Mof_H 	H 	0.6228	0.5123	0.3082	-0.024
Mof_N 	N 	0.6238	0.59621	0.31705	-0.221
Mof_C 	C 	0.60759	0.64606	0.3013	0.115
Mof_H 	H 	0.6165	0.6812	0.3137	-0.034
Mof_C 	C 	0.57782	0.64906	0.26719	-0.197
Mof_H 	H 	0.5663	0.6857	0.2578	0.09
Mof_N 	N 	0.26488	0.90806	0.14049	-0.202
Mof_C 	C 	0.28267	0.87515	0.16954	0.107
Mof_H 	H 	0.2545	0.8527	0.1822	-0.023
Mof_C 	C 	0.33965	0.87227	0.18193	-0.185
Mof_H 	H 	0.3495	0.8483	0.2023	0.094
Mof_C 	C 	0.3827	0.90531	0.16391	0.114
Mof_C 	C 	0.36522	0.93984	0.1338	-0.179
Mof_H 	H 	0.3926	0.9626	0.1208	0.092
Mof_C 	C 	0.30589	0.94011	0.12317	0.101
Mof_H 	H 	0.2945	0.9639	0.103	-0.016
Mof_C 	C 	0.44522	0.90417	0.17599	-0.039
Mof_C 	C 	0.46856	0.89993	0.21144	-0.032
Mof_C 	C 	0.43481	0.90049	0.24734	0.122
Mof_C 	C 	0.41676	0.95236	0.26305	-0.19
Mof_H 	H 	0.4234	0.9879	0.2506	0.095
Mof_C 	C 	0.38838	0.95166	0.29782	0.112
Mof_H 	H 	0.3772	0.9877	0.3082	-0.024
Mof_N 	N 	0.3762	0.90379	0.31705	-0.221
Mof_C 	C 	0.39241	0.85394	0.3013	0.115
Mof_H 	H 	0.3835	0.8188	0.3137	-0.034
Mof_C 	C 	0.42218	0.85094	0.26719	-0.197
Mof_H 	H 	0.4337	0.8143	0.2578	0.09
Mof_N 	N 	0.76488	0.40806	0.64049	-0.202
Mof_C 	C 	0.78267	0.37515	0.66954	0.107
Mof_H 	H 	0.7545	0.3527	0.6822	-0.023
Mof_C 	C 	0.83965	0.37227	0.68193	-0.185
Mof_H 	H 	0.8495	0.3483	0.7023	0.094
Mof_C 	C 	0.8827	0.40531	0.66391	0.114
Mof_C 	C 	0.86522	0.43984	0.6338	-0.179
Mof_H 	H 	0.8926	0.4626	0.6208	0.092
Mof_C 	C 	0.80589	0.44011	0.62317	0.101
Mof_H 	H 	0.7945	0.4639	0.603	-0.016
Mof_C 	C 	0.94522	0.40417	0.67599	-0.039
Mof_C 	C 	0.96856	0.39993	0.71144	-0.033
Mof_C 	C 	0.93481	0.40049	0.74734	0.122
Mof_C 	C 	0.91676	0.45236	0.76305	-0.191
Mof_H 	H 	0.9234	0.4879	0.7506	0.095
Mof_C 	C 	0.88838	0.45166	0.79782	0.112
Mof_H 	H 	0.8772	0.4877	0.8082	-0.025
Mof_N 	N 	0.8762	0.40379	0.81705	-0.221
Mof_C 	C 	0.89241	0.35394	0.8013	0.115
Mof_H 	H 	0.8835	0.3188	0.8137	-0.034
Mof_C 	C 	0.92218	0.35094	0.76719	-0.197
Mof_H 	H 	0.9337	0.3143	0.7578	0.09
Mof_N 	N 	0.15806	0.98512	0.89049	-0.202
Mof_C 	C 	0.12515	0.96733	0.91954	0.107
Mof_H 	H 	0.1027	0.9955	0.9322	-0.023
Mof_C 	C 	0.12227	0.91035	0.93193	-0.185
Mof_H 	H 	0.0983	0.9005	0.9523	0.094
Mof_C 	C 	0.15531	0.8673	0.91391	0.114
Mof_C 	C 	0.18984	0.88478	0.8838	-0.179
Mof_H 	H 	0.2126	0.8574	0.8708	0.092
Mof_C 	C 	0.19011	0.94411	0.87317	0.101
Mof_H 	H 	0.2139	0.9555	0.853	-0.016
Mof_C 	C 	0.15417	0.80478	0.92599	-0.039
Mof_C 	C 	0.14993	0.78144	0.96144	-0.032
Mof_C 	C 	0.15049	0.81519	0.99734	0.122
Mof_C 	C 	0.20236	0.83324	0.01305	-0.191
Mof_H 	H 	0.2379	0.8266	0.0006	0.095
Mof_C 	C 	0.20166	0.86162	0.04782	0.112
Mof_H 	H 	0.2377	0.8728	0.0582	-0.025
Mof_N 	N 	0.15379	0.8738	0.06705	-0.221
Mof_C 	C 	0.10394	0.85759	0.0513	0.115
Mof_H 	H 	0.0688	0.8665	0.0637	-0.034
Mof_C 	C 	0.10094	0.82782	0.01719	-0.197
Mof_H 	H 	0.0643	0.8163	0.0078	0.09
Mof_N 	N 	0.65806	0.48512	0.39049	-0.202
Mof_C 	C 	0.62515	0.46733	0.41954	0.107
Mof_H 	H 	0.6027	0.4955	0.4322	-0.023
Mof_C 	C 	0.62227	0.41035	0.43193	-0.185
Mof_H 	H 	0.5983	0.4005	0.4523	0.094
Mof_C 	C 	0.65531	0.3673	0.41391	0.114
Mof_C 	C 	0.68984	0.38478	0.3838	-0.179
Mof_H 	H 	0.7126	0.3574	0.3708	0.092
Mof_C 	C 	0.69011	0.44411	0.37317	0.101
Mof_H 	H 	0.7139	0.4555	0.353	-0.016
Mof_C 	C 	0.65417	0.30478	0.42599	-0.039
Mof_C 	C 	0.64993	0.28144	0.46144	-0.032
Mof_C 	C 	0.65049	0.31519	0.49734	0.122
Mof_C 	C 	0.70236	0.33324	0.51305	-0.19
Mof_H 	H 	0.7379	0.3266	0.5006	0.095
Mof_C 	C 	0.70166	0.36162	0.54782	0.112
Mof_H 	H 	0.7377	0.3728	0.5582	-0.025
Mof_N 	N 	0.65379	0.3738	0.56705	-0.221
Mof_C 	C 	0.60394	0.35759	0.5513	0.115
Mof_H 	H 	0.5688	0.3665	0.5637	-0.034
Mof_C 	C 	0.60094	0.32782	0.51719	-0.197
Mof_H 	H 	0.5643	0.3163	0.5078	0.09
Mof_N 	N 	0.34194	0.01488	0.39049	-0.202
Mof_C 	C 	0.37485	0.03267	0.41954	0.107
Mof_H 	H 	0.3973	0.0045	0.4322	-0.023
Mof_C 	C 	0.37773	0.08965	0.43193	-0.185
Mof_H 	H 	0.4017	0.0995	0.4523	0.094
Mof_C 	C 	0.34469	0.1327	0.41391	0.114
Mof_C 	C 	0.31016	0.11522	0.3838	-0.179
Mof_H 	H 	0.2874	0.1426	0.3708	0.092
Mof_C 	C 	0.30989	0.05589	0.37317	0.101
Mof_H 	H 	0.2861	0.0445	0.353	-0.016
Mof_C 	C 	0.34583	0.19522	0.42599	-0.039
Mof_C 	C 	0.35007	0.21856	0.46144	-0.032
Mof_C 	C 	0.34951	0.18481	0.49734	0.122
Mof_C 	C 	0.29764	0.16676	0.51305	-0.19
Mof_H 	H 	0.2621	0.1734	0.5006	0.095
Mof_C 	C 	0.29834	0.13838	0.54782	0.112
Mof_H 	H 	0.2623	0.1272	0.5582	-0.024
Mof_N 	N 	0.34621	0.1262	0.56705	-0.221
Mof_C 	C 	0.39606	0.14241	0.5513	0.115
Mof_H 	H 	0.4312	0.1335	0.5637	-0.034
Mof_C 	C 	0.39906	0.17218	0.51719	-0.197
Mof_H 	H 	0.4357	0.1837	0.5078	0.09
Mof_N 	N 	0.84194	0.51488	0.89049	-0.202
Mof_C 	C 	0.87485	0.53267	0.91954	0.107
Mof_H 	H 	0.8973	0.5045	0.9322	-0.023
Mof_C 	C 	0.87773	0.58965	0.93193	-0.185
Mof_H 	H 	0.9017	0.5995	0.9523	0.094
Mof_C 	C 	0.84469	0.6327	0.91391	0.114
Mof_C 	C 	0.81016	0.61522	0.8838	-0.179
Mof_H 	H 	0.7874	0.6426	0.8708	0.092
Mof_C 	C 	0.80989	0.55589	0.87317	0.101
Mof_H 	H 	0.7861	0.5445	0.853	-0.016
Mof_C 	C 	0.84583	0.69522	0.92599	-0.039
Mof_C 	C 	0.85007	0.71856	0.96144	-0.032
Mof_C 	C 	0.84951	0.68481	0.99734	0.122
Mof_C 	C 	0.79764	0.66676	0.01305	-0.191
Mof_H 	H 	0.7621	0.6734	0.0006	0.095
Mof_C 	C 	0.79834	0.63838	0.04782	0.112
Mof_H 	H 	0.7623	0.6272	0.0582	-0.024
Mof_N 	N 	0.84621	0.6262	0.06705	-0.221
Mof_C 	C 	0.89606	0.64241	0.0513	0.115
Mof_H 	H 	0.9312	0.6335	0.0637	-0.034
Mof_C 	C 	0.89906	0.67218	0.01719	-0.197
Mof_H 	H 	0.9357	0.6837	0.0078	0.09
Mof_N 	N 	0.26488	0.09194	0.85951	-0.202
Mof_C 	C 	0.28267	0.12485	0.83046	0.107
Mof_H 	H 	0.2545	0.1473	0.8178	-0.023
Mof_C 	C 	0.33965	0.12773	0.81807	-0.185
Mof_H 	H 	0.3495	0.1517	0.7977	0.094
Mof_C 	C 	0.3827	0.09469	0.83609	0.114
Mof_C 	C 	0.36522	0.06016	0.8662	-0.179
Mof_H 	H 	0.3926	0.0374	0.8792	0.092
Mof_C 	C 	0.30589	0.05989	0.87683	0.101
Mof_H 	H 	0.2945	0.0361	0.897	-0.016
Mof_C 	C 	0.44522	0.09583	0.82401	-0.039
Mof_C 	C 	0.46856	0.10007	0.78856	-0.032
Mof_C 	C 	0.43481	0.09951	0.75266	0.122
Mof_C 	C 	0.41676	0.04764	0.73695	-0.19
Mof_H 	H 	0.4234	0.0121	0.7494	0.095
Mof_C 	C 	0.38838	0.04834	0.70218	0.112
Mof_H 	H 	0.3772	0.0123	0.6918	-0.024
Mof_N 	N 	0.3762	0.09621	0.68295	-0.221
Mof_C 	C 	0.39241	0.14606	0.6987	0.115
Mof_H 	H 	0.3835	0.1812	0.6863	-0.034
Mof_C 	C 	0.42218	0.14906	0.73281	-0.197
Mof_H 	H 	0.4337	0.1857	0.7422	0.09
Mof_N 	N 	0.76488	0.59194	0.35951	-0.202
Mof_C 	C 	0.78267	0.62485	0.33046	0.107
Mof_H 	H 	0.7545	0.6473	0.3178	-0.023
Mof_C 	C 	0.83965	0.62773	0.31807	-0.185
Mof_H 	H 	0.8495	0.6517	0.2977	0.094
Mof_C 	C 	0.8827	0.59469	0.33609	0.114
Mof_C 	C 	0.86522	0.56016	0.3662	-0.179
Mof_H 	H 	0.8926	0.5374	0.3792	0.092
Mof_C 	C 	0.80589	0.55989	0.37683	0.101
Mof_H 	H 	0.7945	0.5361	0.397	-0.016
Mof_C 	C 	0.94522	0.59583	0.32401	-0.039
Mof_C 	C 	0.96856	0.60007	0.28856	-0.033
Mof_C 	C 	0.93481	0.59951	0.25266	0.122
Mof_C 	C 	0.91676	0.54764	0.23695	-0.191
Mof_H 	H 	0.9234	0.5121	0.2494	0.095
Mof_C 	C 	0.88838	0.54834	0.20218	0.112
Mof_H 	H 	0.8772	0.5123	0.1918	-0.025
Mof_N 	N 	0.8762	0.59621	0.18295	-0.221
Mof_C 	C 	0.89241	0.64606	0.1987	0.115
Mof_H 	H 	0.8835	0.6812	0.1863	-0.034
Mof_C 	C 	0.92218	0.64906	0.23281	-0.197
Mof_H 	H 	0.9337	0.6857	0.2422	0.09
Mof_N 	N 	0.23512	0.90806	0.35951	-0.202
Mof_C 	C 	0.21733	0.87515	0.33046	0.107
Mof_H 	H 	0.2455	0.8527	0.3178	-0.023
Mof_C 	C 	0.16035	0.87227	0.31807	-0.185
Mof_H 	H 	0.1505	0.8483	0.2977	0.094
Mof_C 	C 	0.1173	0.90531	0.33609	0.114
Mof_C 	C 	0.13478	0.93984	0.3662	-0.18
Mof_H 	H 	0.1074	0.9626	0.3792	0.092
Mof_C 	C 	0.19411	0.94011	0.37683	0.101
Mof_H 	H 	0.2055	0.9639	0.397	-0.016
Mof_C 	C 	0.05478	0.90417	0.32401	-0.039
Mof_C 	C 	0.03144	0.89993	0.28856	-0.032
Mof_C 	C 	0.06519	0.90049	0.25266	0.121
Mof_C 	C 	0.08324	0.95236	0.23695	-0.19
Mof_H 	H 	0.0766	0.9879	0.2494	0.095
Mof_C 	C 	0.11162	0.95166	0.20218	0.112
Mof_H 	H 	0.1228	0.9877	0.1918	-0.024
Mof_N 	N 	0.1238	0.90379	0.18295	-0.221
Mof_C 	C 	0.10759	0.85394	0.1987	0.115
Mof_H 	H 	0.1165	0.8188	0.1863	-0.034
Mof_C 	C 	0.07782	0.85094	0.23281	-0.197
Mof_H 	H 	0.0663	0.8143	0.2422	0.09
Mof_N 	N 	0.73512	0.40806	0.85951	-0.202
Mof_C 	C 	0.71733	0.37515	0.83046	0.107
Mof_H 	H 	0.7455	0.3527	0.8178	-0.023
Mof_C 	C 	0.66035	0.37227	0.81807	-0.185
Mof_H 	H 	0.6505	0.3483	0.7977	0.094
Mof_C 	C 	0.6173	0.40531	0.83609	0.114
Mof_C 	C 	0.63478	0.43984	0.8662	-0.179
Mof_H 	H 	0.6074	0.4626	0.8792	0.092
Mof_C 	C 	0.69411	0.44011	0.87683	0.101
Mof_H 	H 	0.7055	0.4639	0.897	-0.016
Mof_C 	C 	0.55478	0.40417	0.82401	-0.039
Mof_C 	C 	0.53144	0.39993	0.78856	-0.032
Mof_C 	C 	0.56519	0.40049	0.75266	0.122
Mof_C 	C 	0.58324	0.45236	0.73695	-0.19
Mof_H 	H 	0.5766	0.4879	0.7494	0.095
Mof_C 	C 	0.61162	0.45166	0.70218	0.112
Mof_H 	H 	0.6228	0.4877	0.6918	-0.024
Mof_N 	N 	0.6238	0.40379	0.68295	-0.221
Mof_C 	C 	0.60759	0.35394	0.6987	0.115
Mof_H 	H 	0.6165	0.3188	0.6863	-0.034
Mof_C 	C 	0.57782	0.35094	0.73281	-0.197
Mof_H 	H 	0.5663	0.3143	0.7422	0.09
Mof_N 	N 	0.34194	0.98512	0.60951	-0.202
Mof_C 	C 	0.37485	0.96733	0.58046	0.107
Mof_H 	H 	0.3973	0.9955	0.5678	-0.023
Mof_C 	C 	0.37773	0.91035	0.56807	-0.185
Mof_H 	H 	0.4017	0.9005	0.5477	0.094
Mof_C 	C 	0.34469	0.8673	0.58609	0.114
Mof_C 	C 	0.31016	0.88478	0.6162	-0.179
Mof_H 	H 	0.2874	0.8574	0.6292	0.092
Mof_C 	C 	0.30989	0.94411	0.62683	0.101
Mof_H 	H 	0.2861	0.9555	0.647	-0.016
Mof_C 	C 	0.34583	0.80478	0.57401	-0.039
Mof_C 	C 	0.35007	0.78144	0.53856	-0.032
Mof_C 	C 	0.34951	0.81519	0.50266	0.122
Mof_C 	C 	0.29764	0.83324	0.48695	-0.19
Mof_H 	H 	0.2621	0.8266	0.4994	0.095
Mof_C 	C 	0.29834	0.86162	0.45218	0.112
Mof_H 	H 	0.2623	0.8728	0.4418	-0.024
Mof_N 	N 	0.34621	0.8738	0.43295	-0.221
Mof_C 	C 	0.39606	0.85759	0.4487	0.115
Mof_H 	H 	0.4312	0.8665	0.4363	-0.034
Mof_C 	C 	0.39906	0.82782	0.48281	-0.197
Mof_H 	H 	0.4357	0.8163	0.4922	0.09
Mof_N 	N 	0.84194	0.48512	0.10951	-0.202
Mof_C 	C 	0.87485	0.46733	0.08046	0.107
Mof_H 	H 	0.8973	0.4955	0.0678	-0.023
Mof_C 	C 	0.87773	0.41035	0.06807	-0.185
Mof_H 	H 	0.9017	0.4005	0.0477	0.094
Mof_C 	C 	0.84469	0.3673	0.08609	0.114
Mof_C 	C 	0.81016	0.38478	0.1162	-0.179
Mof_H 	H 	0.7874	0.3574	0.1292	0.092
Mof_C 	C 	0.80989	0.44411	0.12683	0.101
Mof_H 	H 	0.7861	0.4555	0.147	-0.016
Mof_C 	C 	0.84583	0.30478	0.07401	-0.039
Mof_C 	C 	0.85007	0.28144	0.03856	-0.032
Mof_C 	C 	0.84951	0.31519	0.00266	0.122
Mof_C 	C 	0.79764	0.33324	0.98695	-0.191
Mof_H 	H 	0.7621	0.3266	0.9994	0.095
Mof_C 	C 	0.79834	0.36162	0.95218	0.112
Mof_H 	H 	0.7623	0.3728	0.9418	-0.024
Mof_N 	N 	0.84621	0.3738	0.93295	-0.221
Mof_C 	C 	0.89606	0.35759	0.9487	0.115
Mof_H 	H 	0.9312	0.3665	0.9363	-0.034
Mof_C 	C 	0.89906	0.32782	0.98281	-0.197
Mof_H 	H 	0.9357	0.3163	0.9922	0.09
Mof_N 	N 	0.15806	0.01488	0.10951	-0.202
Mof_C 	C 	0.12515	0.03267	0.08046	0.107
Mof_H 	H 	0.1027	0.0045	0.0678	-0.023
Mof_C 	C 	0.12227	0.08965	0.06807	-0.185
Mof_H 	H 	0.0983	0.0995	0.0477	0.094
Mof_C 	C 	0.15531	0.1327	0.08609	0.114
Mof_C 	C 	0.18984	0.11522	0.1162	-0.179
Mof_H 	H 	0.2126	0.1426	0.1292	0.092
Mof_C 	C 	0.19011	0.05589	0.12683	0.101
Mof_H 	H 	0.2139	0.0445	0.147	-0.016
Mof_C 	C 	0.15417	0.19522	0.07401	-0.039
Mof_C 	C 	0.14993	0.21856	0.03856	-0.032
Mof_C 	C 	0.15049	0.18481	0.00266	0.122
Mof_C 	C 	0.20236	0.16676	0.98695	-0.191
Mof_H 	H 	0.2379	0.1734	0.9994	0.095
Mof_C 	C 	0.20166	0.13838	0.95218	0.112
Mof_H 	H 	0.2377	0.1272	0.9418	-0.025
Mof_N 	N 	0.15379	0.1262	0.93295	-0.221
Mof_C 	C 	0.10394	0.14241	0.9487	0.115
Mof_H 	H 	0.0688	0.1335	0.9363	-0.034
Mof_C 	C 	0.10094	0.17218	0.98281	-0.197
Mof_H 	H 	0.0643	0.1837	0.9922	0.09
Mof_N 	N 	0.65806	0.51488	0.60951	-0.202
Mof_C 	C 	0.62515	0.53267	0.58046	0.107
Mof_H 	H 	0.6027	0.5045	0.5678	-0.023
Mof_C 	C 	0.62227	0.58965	0.56807	-0.185
Mof_H 	H 	0.5983	0.5995	0.5477	0.094
Mof_C 	C 	0.65531	0.6327	0.58609	0.114
Mof_C 	C 	0.68984	0.61522	0.6162	-0.179
Mof_H 	H 	0.7126	0.6426	0.6292	0.092
Mof_C 	C 	0.69011	0.55589	0.62683	0.101
Mof_H 	H 	0.7139	0.5445	0.647	-0.016
Mof_C 	C 	0.65417	0.69522	0.57401	-0.039
Mof_C 	C 	0.64993	0.71856	0.53856	-0.032
Mof_C 	C 	0.65049	0.68481	0.50266	0.122
Mof_C 	C 	0.70236	0.66676	0.48695	-0.19
Mof_H 	H 	0.7379	0.6734	0.4994	0.095
Mof_C 	C 	0.70166	0.63838	0.45218	0.112
Mof_H 	H 	0.7377	0.6272	0.4418	-0.025
Mof_N 	N 	0.65379	0.6262	0.43295	-0.221
Mof_C 	C 	0.60394	0.64241	0.4487	0.115
Mof_H 	H 	0.5688	0.6335	0.4363	-0.034
Mof_C 	C 	0.60094	0.67218	0.48281	-0.197
Mof_H 	H 	0.5643	0.6837	0.4922	0.09
Mof_N 	N 	0.76488	0.90806	0.35951	-0.202
Mof_C 	C 	0.78267	0.87515	0.33046	0.107
Mof_H 	H 	0.7545	0.8527	0.3178	-0.023
Mof_C 	C 	0.83965	0.87227	0.31807	-0.185
Mof_H 	H 	0.8495	0.8483	0.2977	0.094
Mof_C 	C 	0.8827	0.90531	0.33609	0.114
Mof_C 	C 	0.86522	0.93984	0.3662	-0.179
Mof_H 	H 	0.8926	0.9626	0.3792	0.092
Mof_C 	C 	0.80589	0.94011	0.37683	0.101
Mof_H 	H 	0.7945	0.9639	0.397	-0.016
Mof_C 	C 	0.94522	0.90417	0.32401	-0.039
Mof_C 	C 	0.96856	0.89993	0.28856	-0.033
Mof_C 	C 	0.93481	0.90049	0.25266	0.122
Mof_C 	C 	0.91676	0.95236	0.23695	-0.191
Mof_H 	H 	0.9234	0.9879	0.2494	0.095
Mof_C 	C 	0.88838	0.95166	0.20218	0.112
Mof_H 	H 	0.8772	0.9877	0.1918	-0.025
Mof_N 	N 	0.8762	0.90379	0.18295	-0.221
Mof_C 	C 	0.89241	0.85394	0.1987	0.115
Mof_H 	H 	0.8835	0.8188	0.1863	-0.034
Mof_C 	C 	0.92218	0.85094	0.23281	-0.197
Mof_H 	H 	0.9337	0.8143	0.2422	0.09
Mof_N 	N 	0.26488	0.40806	0.85951	-0.202
Mof_C 	C 	0.28267	0.37515	0.83046	0.107
Mof_H 	H 	0.2545	0.3527	0.8178	-0.023
Mof_C 	C 	0.33965	0.37227	0.81807	-0.185
Mof_H 	H 	0.3495	0.3483	0.7977	0.094
Mof_C 	C 	0.3827	0.40531	0.83609	0.114
Mof_C 	C 	0.36522	0.43984	0.8662	-0.179
Mof_H 	H 	0.3926	0.4626	0.8792	0.092
Mof_C 	C 	0.30589	0.44011	0.87683	0.101
Mof_H 	H 	0.2945	0.4639	0.897	-0.016
Mof_C 	C 	0.44522	0.40417	0.82401	-0.039
Mof_C 	C 	0.46856	0.39993	0.78856	-0.032
Mof_C 	C 	0.43481	0.40049	0.75266	0.122
Mof_C 	C 	0.41676	0.45236	0.73695	-0.19
Mof_H 	H 	0.4234	0.4879	0.7494	0.095
Mof_C 	C 	0.38838	0.45166	0.70218	0.112
Mof_H 	H 	0.3772	0.4877	0.6918	-0.024
Mof_N 	N 	0.3762	0.40379	0.68295	-0.221
Mof_C 	C 	0.39241	0.35394	0.6987	0.115
Mof_H 	H 	0.3835	0.3188	0.6863	-0.034
Mof_C 	C 	0.42218	0.35094	0.73281	-0.197
Mof_H 	H 	0.4337	0.3143	0.7422	0.09
Mof_N 	N 	0.73512	0.09194	0.85951	-0.202
Mof_C 	C 	0.71733	0.12485	0.83046	0.107
Mof_H 	H 	0.7455	0.1473	0.8178	-0.023
Mof_C 	C 	0.66035	0.12773	0.81807	-0.185
Mof_H 	H 	0.6505	0.1517	0.7977	0.094
Mof_C 	C 	0.6173	0.09469	0.83609	0.114
Mof_C 	C 	0.63478	0.06016	0.8662	-0.179
Mof_H 	H 	0.6074	0.0374	0.8792	0.092
Mof_C 	C 	0.69411	0.05989	0.87683	0.101
Mof_H 	H 	0.7055	0.0361	0.897	-0.016
Mof_C 	C 	0.55478	0.09583	0.82401	-0.039
Mof_C 	C 	0.53144	0.10007	0.78856	-0.032
Mof_C 	C 	0.56519	0.09951	0.75266	0.122
Mof_C 	C 	0.58324	0.04764	0.73695	-0.19
Mof_H 	H 	0.5766	0.0121	0.7494	0.095
Mof_C 	C 	0.61162	0.04834	0.70218	0.112
Mof_H 	H 	0.6228	0.0123	0.6918	-0.025
Mof_N 	N 	0.6238	0.09621	0.68295	-0.221
Mof_C 	C 	0.60759	0.14606	0.6987	0.115
Mof_H 	H 	0.6165	0.1812	0.6863	-0.034
Mof_C 	C 	0.57782	0.14906	0.73281	-0.197
Mof_H 	H 	0.5663	0.1857	0.7422	0.09
Mof_N 	N 	0.23512	0.59194	0.35951	-0.202
Mof_C 	C 	0.21733	0.62485	0.33046	0.107
Mof_H 	H 	0.2455	0.6473	0.3178	-0.023
Mof_C 	C 	0.16035	0.62773	0.31807	-0.185
Mof_H 	H 	0.1505	0.6517	0.2977	0.094
Mof_C 	C 	0.1173	0.59469	0.33609	0.114
Mof_C 	C 	0.13478	0.56016	0.3662	-0.18
Mof_H 	H 	0.1074	0.5374	0.3792	0.092
Mof_C 	C 	0.19411	0.55989	0.37683	0.101
Mof_H 	H 	0.2055	0.5361	0.397	-0.016
Mof_C 	C 	0.05478	0.59583	0.32401	-0.039
Mof_C 	C 	0.03144	0.60007	0.28856	-0.032
Mof_C 	C 	0.06519	0.59951	0.25266	0.121
Mof_C 	C 	0.08324	0.54764	0.23695	-0.19
Mof_H 	H 	0.0766	0.5121	0.2494	0.095
Mof_C 	C 	0.11162	0.54834	0.20218	0.112
Mof_H 	H 	0.1228	0.5123	0.1918	-0.024
Mof_N 	N 	0.1238	0.59621	0.18295	-0.221
Mof_C 	C 	0.10759	0.64606	0.1987	0.115
Mof_H 	H 	0.1165	0.6812	0.1863	-0.034
Mof_C 	C 	0.07782	0.64906	0.23281	-0.197
Mof_H 	H 	0.0663	0.6857	0.2422	0.09
Mof_N 	N 	0.84194	0.01488	0.10951	-0.202
Mof_C 	C 	0.87485	0.03267	0.08046	0.107
Mof_H 	H 	0.8973	0.0045	0.0678	-0.023
Mof_C 	C 	0.87773	0.08965	0.06807	-0.185
Mof_H 	H 	0.9017	0.0995	0.0477	0.094
Mof_C 	C 	0.84469	0.1327	0.08609	0.114
Mof_C 	C 	0.81016	0.11522	0.1162	-0.179
Mof_H 	H 	0.7874	0.1426	0.1292	0.092
Mof_C 	C 	0.80989	0.05589	0.12683	0.101
Mof_H 	H 	0.7861	0.0445	0.147	-0.016
Mof_C 	C 	0.84583	0.19522	0.07401	-0.039
Mof_C 	C 	0.85007	0.21856	0.03856	-0.032
Mof_C 	C 	0.84951	0.18481	0.00266	0.122
Mof_C 	C 	0.79764	0.16676	0.98695	-0.191
Mof_H 	H 	0.7621	0.1734	0.9994	0.095
Mof_C 	C 	0.79834	0.13838	0.95218	0.112
Mof_H 	H 	0.7623	0.1272	0.9418	-0.025
Mof_N 	N 	0.84621	0.1262	0.93295	-0.221
Mof_C 	C 	0.89606	0.14241	0.9487	0.115
Mof_H 	H 	0.9312	0.1335	0.9363	-0.034
Mof_C 	C 	0.89906	0.17218	0.98281	-0.197
Mof_H 	H 	0.9357	0.1837	0.9922	0.09
Mof_N 	N 	0.34194	0.51488	0.60951	-0.202
Mof_C 	C 	0.37485	0.53267	0.58046	0.107
Mof_H 	H 	0.3973	0.5045	0.5678	-0.023
Mof_C 	C 	0.37773	0.58965	0.56807	-0.185
Mof_H 	H 	0.4017	0.5995	0.5477	0.094
Mof_C 	C 	0.34469	0.6327	0.58609	0.114
Mof_C 	C 	0.31016	0.61522	0.6162	-0.179
Mof_H 	H 	0.2874	0.6426	0.6292	0.092
Mof_C 	C 	0.30989	0.55589	0.62683	0.101
Mof_H 	H 	0.2861	0.5445	0.647	-0.016
Mof_C 	C 	0.34583	0.69522	0.57401	-0.039
Mof_C 	C 	0.35007	0.71856	0.53856	-0.032
Mof_C 	C 	0.34951	0.68481	0.50266	0.122
Mof_C 	C 	0.29764	0.66676	0.48695	-0.19
Mof_H 	H 	0.2621	0.6734	0.4994	0.095
Mof_C 	C 	0.29834	0.63838	0.45218	0.112
Mof_H 	H 	0.2623	0.6272	0.4418	-0.024
Mof_N 	N 	0.34621	0.6262	0.43295	-0.221
Mof_C 	C 	0.39606	0.64241	0.4487	0.115
Mof_H 	H 	0.4312	0.6335	0.4363	-0.034
Mof_C 	C 	0.39906	0.67218	0.48281	-0.197
Mof_H 	H 	0.4357	0.6837	0.4922	0.09
Mof_N 	N 	0.65806	0.98512	0.60951	-0.202
Mof_C 	C 	0.62515	0.96733	0.58046	0.107
Mof_H 	H 	0.6027	0.9955	0.5678	-0.023
Mof_C 	C 	0.62227	0.91035	0.56807	-0.185
Mof_H 	H 	0.5983	0.9005	0.5477	0.094
Mof_C 	C 	0.65531	0.8673	0.58609	0.114
Mof_C 	C 	0.68984	0.88478	0.6162	-0.179
Mof_H 	H 	0.7126	0.8574	0.6292	0.092
Mof_C 	C 	0.69011	0.94411	0.62683	0.101
Mof_H 	H 	0.7139	0.9555	0.647	-0.016
Mof_C 	C 	0.65417	0.80478	0.57401	-0.039
Mof_C 	C 	0.64993	0.78144	0.53856	-0.032
Mof_C 	C 	0.65049	0.81519	0.50266	0.122
Mof_C 	C 	0.70236	0.83324	0.48695	-0.19
Mof_H 	H 	0.7379	0.8266	0.4994	0.095
Mof_C 	C 	0.70166	0.86162	0.45218	0.112
Mof_H 	H 	0.7377	0.8728	0.4418	-0.025
Mof_N 	N 	0.65379	0.8738	0.43295	-0.221
Mof_C 	C 	0.60394	0.85759	0.4487	0.115
Mof_H 	H 	0.5688	0.8665	0.4363	-0.034
Mof_C 	C 	0.60094	0.82782	0.48281	-0.197
Mof_H 	H 	0.5643	0.8163	0.4922	0.09
Mof_N 	N 	0.15806	0.48512	0.10951	-0.202
Mof_C 	C 	0.12515	0.46733	0.08046	0.107
Mof_H 	H 	0.1027	0.4955	0.0678	-0.023
Mof_C 	C 	0.12227	0.41035	0.06807	-0.185
Mof_H 	H 	0.0983	0.4005	0.0477	0.094
Mof_C 	C 	0.15531	0.3673	0.08609	0.114
Mof_C 	C 	0.18984	0.38478	0.1162	-0.179
Mof_H 	H 	0.2126	0.3574	0.1292	0.092
Mof_C 	C 	0.19011	0.44411	0.12683	0.101
Mof_H 	H 	0.2139	0.4555	0.147	-0.016
Mof_C 	C 	0.15417	0.30478	0.07401	-0.039
Mof_C 	C 	0.14993	0.28144	0.03856	-0.032
Mof_C 	C 	0.15049	0.31519	0.00266	0.122
Mof_C 	C 	0.20236	0.33324	0.98695	-0.191
Mof_H 	H 	0.2379	0.3266	0.9994	0.095
Mof_C 	C 	0.20166	0.36162	0.95218	0.112
Mof_H 	H 	0.2377	0.3728	0.9418	-0.025
Mof_N 	N 	0.15379	0.3738	0.93295	-0.221
Mof_C 	C 	0.10394	0.35759	0.9487	0.115
Mof_H 	H 	0.0688	0.3665	0.9363	-0.034
Mof_C 	C 	0.10094	0.32782	0.98281	-0.197
Mof_H 	H 	0.0643	0.3163	0.9922	0.09
Mof_N 	N 	0.73512	0.90806	0.14049	-0.202
Mof_C 	C 	0.71733	0.87515	0.16954	0.107
Mof_H 	H 	0.7455	0.8527	0.1822	-0.023
Mof_C 	C 	0.66035	0.87227	0.18193	-0.185
Mof_H 	H 	0.6505	0.8483	0.2023	0.094
Mof_C 	C 	0.6173	0.90531	0.16391	0.114
Mof_C 	C 	0.63478	0.93984	0.1338	-0.179
Mof_H 	H 	0.6074	0.9626	0.1208	0.092
Mof_C 	C 	0.69411	0.94011	0.12317	0.101
Mof_H 	H 	0.7055	0.9639	0.103	-0.016
Mof_C 	C 	0.55478	0.90417	0.17599	-0.039
Mof_C 	C 	0.53144	0.89993	0.21144	-0.032
Mof_C 	C 	0.56519	0.90049	0.24734	0.122
Mof_C 	C 	0.58324	0.95236	0.26305	-0.19
Mof_H 	H 	0.5766	0.9879	0.2506	0.095
Mof_C 	C 	0.61162	0.95166	0.29782	0.112
Mof_H 	H 	0.6228	0.9877	0.3082	-0.025
Mof_N 	N 	0.6238	0.90379	0.31705	-0.221
Mof_C 	C 	0.60759	0.85394	0.3013	0.115
Mof_H 	H 	0.6165	0.8188	0.3137	-0.034
Mof_C 	C 	0.57782	0.85094	0.26719	-0.197
Mof_H 	H 	0.5663	0.8143	0.2578	0.09
Mof_N 	N 	0.23512	0.40806	0.64049	-0.202
Mof_C 	C 	0.21733	0.37515	0.66954	0.107
Mof_H 	H 	0.2455	0.3527	0.6822	-0.023
Mof_C 	C 	0.16035	0.37227	0.68193	-0.185
Mof_H 	H 	0.1505	0.3483	0.7023	0.094
Mof_C 	C 	0.1173	0.40531	0.66391	0.114
Mof_C 	C 	0.13478	0.43984	0.6338	-0.18
Mof_H 	H 	0.1074	0.4626	0.6208	0.092
Mof_C 	C 	0.19411	0.44011	0.62317	0.101
Mof_H 	H 	0.2055	0.4639	0.603	-0.016
Mof_C 	C 	0.05478	0.40417	0.67599	-0.039
Mof_C 	C 	0.03144	0.39993	0.71144	-0.032
Mof_C 	C 	0.06519	0.40049	0.74734	0.121
Mof_C 	C 	0.08324	0.45236	0.76305	-0.19
Mof_H 	H 	0.0766	0.4879	0.7506	0.095
Mof_C 	C 	0.11162	0.45166	0.79782	0.112
Mof_H 	H 	0.1228	0.4877	0.8082	-0.024
Mof_N 	N 	0.1238	0.40379	0.81705	-0.221
Mof_C 	C 	0.10759	0.35394	0.8013	0.115
Mof_H 	H 	0.1165	0.3188	0.8137	-0.034
Mof_C 	C 	0.07782	0.35094	0.76719	-0.197
Mof_H 	H 	0.0663	0.3143	0.7578	0.09
Mof_N 	N 	0.76488	0.09194	0.64049	-0.202
Mof_C 	C 	0.78267	0.12485	0.66954	0.107
Mof_H 	H 	0.7545	0.1473	0.6822	-0.023
Mof_C 	C 	0.83965	0.12773	0.68193	-0.185
Mof_H 	H 	0.8495	0.1517	0.7023	0.094
Mof_C 	C 	0.8827	0.09469	0.66391	0.114
Mof_C 	C 	0.86522	0.06016	0.6338	-0.179
Mof_H 	H 	0.8926	0.0374	0.6208	0.092
Mof_C 	C 	0.80589	0.05989	0.62317	0.101
Mof_H 	H 	0.7945	0.0361	0.603	-0.016
Mof_C 	C 	0.94522	0.09583	0.67599	-0.039
Mof_C 	C 	0.96856	0.10007	0.71144	-0.033
Mof_C 	C 	0.93481	0.09951	0.74734	0.122
Mof_C 	C 	0.91676	0.04764	0.76305	-0.191
Mof_H 	H 	0.9234	0.0121	0.7506	0.095
Mof_C 	C 	0.88838	0.04834	0.79782	0.112
Mof_H 	H 	0.8772	0.0123	0.8082	-0.025
Mof_N 	N 	0.8762	0.09621	0.81705	-0.221
Mof_C 	C 	0.89241	0.14606	0.8013	0.115
Mof_H 	H 	0.8835	0.1812	0.8137	-0.034
Mof_C 	C 	0.92218	0.14906	0.76719	-0.197
Mof_H 	H 	0.9337	0.1857	0.7578	0.09
Mof_N 	N 	0.26488	0.59194	0.14049	-0.202
Mof_C 	C 	0.28267	0.62485	0.16954	0.107
Mof_H 	H 	0.2545	0.6473	0.1822	-0.023
Mof_C 	C 	0.33965	0.62773	0.18193	-0.185
Mof_H 	H 	0.3495	0.6517	0.2023	0.094
Mof_C 	C 	0.3827	0.59469	0.16391	0.114
Mof_C 	C 	0.36522	0.56016	0.1338	-0.179
Mof_H 	H 	0.3926	0.5374	0.1208	0.092
Mof_C 	C 	0.30589	0.55989	0.12317	0.101
Mof_H 	H 	0.2945	0.5361	0.103	-0.016
Mof_C 	C 	0.44522	0.59583	0.17599	-0.039
Mof_C 	C 	0.46856	0.60007	0.21144	-0.032
Mof_C 	C 	0.43481	0.59951	0.24734	0.122
Mof_C 	C 	0.41676	0.54764	0.26305	-0.19
Mof_H 	H 	0.4234	0.5121	0.2506	0.095
Mof_C 	C 	0.38838	0.54834	0.29782	0.112
Mof_H 	H 	0.3772	0.5123	0.3082	-0.024
Mof_N 	N 	0.3762	0.59621	0.31705	-0.221
Mof_C 	C 	0.39241	0.64606	0.3013	0.115
Mof_H 	H 	0.3835	0.6812	0.3137	-0.034
Mof_C 	C 	0.42218	0.64906	0.26719	-0.197
Mof_H 	H 	0.4337	0.6857	0.2578	0.09
Mof_N 	N 	0.65806	0.01488	0.39049	-0.202
Mof_C 	C 	0.62515	0.03267	0.41954	0.107
Mof_H 	H 	0.6027	0.0045	0.4322	-0.023
Mof_C 	C 	0.62227	0.08965	0.43193	-0.185
Mof_H 	H 	0.5983	0.0995	0.4523	0.094
Mof_C 	C 	0.65531	0.1327	0.41391	0.114
Mof_C 	C 	0.68984	0.11522	0.3838	-0.179
Mof_H 	H 	0.7126	0.1426	0.3708	0.092
Mof_C 	C 	0.69011	0.05589	0.37317	0.101
Mof_H 	H 	0.7139	0.0445	0.353	-0.016
Mof_C 	C 	0.65417	0.19522	0.42599	-0.039
Mof_C 	C 	0.64993	0.21856	0.46144	-0.032
Mof_C 	C 	0.65049	0.18481	0.49734	0.122
Mof_C 	C 	0.70236	0.16676	0.51305	-0.19
Mof_H 	H 	0.7379	0.1734	0.5006	0.095
Mof_C 	C 	0.70166	0.13838	0.54782	0.112
Mof_H 	H 	0.7377	0.1272	0.5582	-0.025
Mof_N 	N 	0.65379	0.1262	0.56705	-0.221
Mof_C 	C 	0.60394	0.14241	0.5513	0.115
Mof_H 	H 	0.5688	0.1335	0.5637	-0.034
Mof_C 	C 	0.60094	0.17218	0.51719	-0.197
Mof_H 	H 	0.5643	0.1837	0.5078	0.09
Mof_N 	N 	0.15806	0.51488	0.89049	-0.202
Mof_C 	C 	0.12515	0.53267	0.91954	0.107
Mof_H 	H 	0.1027	0.5045	0.9322	-0.023
Mof_C 	C 	0.12227	0.58965	0.93193	-0.185
Mof_H 	H 	0.0983	0.5995	0.9523	0.094
Mof_C 	C 	0.15531	0.6327	0.91391	0.114
Mof_C 	C 	0.18984	0.61522	0.8838	-0.179
Mof_H 	H 	0.2126	0.6426	0.8708	0.092
Mof_C 	C 	0.19011	0.55589	0.87317	0.101
Mof_H 	H 	0.2139	0.5445	0.853	-0.016
Mof_C 	C 	0.15417	0.69522	0.92599	-0.039
Mof_C 	C 	0.14993	0.71856	0.96144	-0.032
Mof_C 	C 	0.15049	0.68481	0.99734	0.122
Mof_C 	C 	0.20236	0.66676	0.01305	-0.191
Mof_H 	H 	0.2379	0.6734	0.0006	0.095
Mof_C 	C 	0.20166	0.63838	0.04782	0.112
Mof_H 	H 	0.2377	0.6272	0.0582	-0.025
Mof_N 	N 	0.15379	0.6262	0.06705	-0.221
Mof_C 	C 	0.10394	0.64241	0.0513	0.115
Mof_H 	H 	0.0688	0.6335	0.0637	-0.034
Mof_C 	C 	0.10094	0.67218	0.01719	-0.197
Mof_H 	H 	0.0643	0.6837	0.0078	0.09
Mof_N 	N 	0.84194	0.98512	0.89049	-0.202
Mof_C 	C 	0.87485	0.96733	0.91954	0.107
Mof_H 	H 	0.8973	0.9955	0.9322	-0.023
Mof_C 	C 	0.87773	0.91035	0.93193	-0.185
Mof_H 	H 	0.9017	0.9005	0.9523	0.094
Mof_C 	C 	0.84469	0.8673	0.91391	0.114
Mof_C 	C 	0.81016	0.88478	0.8838	-0.179
Mof_H 	H 	0.7874	0.8574	0.8708	0.092
Mof_C 	C 	0.80989	0.94411	0.87317	0.101
Mof_H 	H 	0.7861	0.9555	0.853	-0.016
Mof_C 	C 	0.84583	0.80478	0.92599	-0.039
Mof_C 	C 	0.85007	0.78144	0.96144	-0.032
Mof_C 	C 	0.84951	0.81519	0.99734	0.122
Mof_C 	C 	0.79764	0.83324	0.01305	-0.191
Mof_H 	H 	0.7621	0.8266	0.0006	0.095
Mof_C 	C 	0.79834	0.86162	0.04782	0.112
Mof_H 	H 	0.7623	0.8728	0.0582	-0.025
Mof_N 	N 	0.84621	0.8738	0.06705	-0.221
Mof_C 	C 	0.89606	0.85759	0.0513	0.115
Mof_H 	H 	0.9312	0.8665	0.0637	-0.034
Mof_C 	C 	0.89906	0.82782	0.01719	-0.197
Mof_H 	H 	0.9357	0.8163	0.0078	0.09
Mof_N 	N 	0.34194	0.48512	0.39049	-0.202
Mof_C 	C 	0.37485	0.46733	0.41954	0.107
Mof_H 	H 	0.3973	0.4955	0.4322	-0.023
Mof_C 	C 	0.37773	0.41035	0.43193	-0.185
Mof_H 	H 	0.4017	0.4005	0.4523	0.094
Mof_C 	C 	0.34469	0.3673	0.41391	0.114
Mof_C 	C 	0.31016	0.38478	0.3838	-0.179
Mof_H 	H 	0.2874	0.3574	0.3708	0.092
Mof_C 	C 	0.30989	0.44411	0.37317	0.101
Mof_H 	H 	0.2861	0.4555	0.353	-0.016
Mof_C 	C 	0.34583	0.30478	0.42599	-0.039
Mof_C 	C 	0.35007	0.28144	0.46144	-0.032
Mof_C 	C 	0.34951	0.31519	0.49734	0.122
Mof_C 	C 	0.29764	0.33324	0.51305	-0.19
Mof_H 	H 	0.2621	0.3266	0.5006	0.095
Mof_C 	C 	0.29834	0.36162	0.54782	0.112
Mof_H 	H 	0.2623	0.3728	0.5582	-0.024
Mof_N 	N 	0.34621	0.3738	0.56705	-0.221
Mof_C 	C 	0.39606	0.35759	0.5513	0.115
Mof_H 	H 	0.4312	0.3665	0.5637	-0.034
Mof_C 	C 	0.39906	0.32782	0.51719	-0.197
Mof_H 	H 	0.4357	0.3163	0.5078	0.09
Mof_Ag	Ag	0.33671	0.08671	0.625	0.611
Mof_Ag	Ag	0.83671	0.58671	0.125	0.611
Mof_Ag	Ag	0.16329	0.91329	0.125	0.611
Mof_Ag	Ag	0.66329	0.41329	0.625	0.611
Mof_Ag	Ag	0.16329	0.08671	0.875	0.611
Mof_Ag	Ag	0.66329	0.58671	0.375	0.611
Mof_Ag	Ag	0.33671	0.91329	0.375	0.611
Mof_Ag	Ag	0.83671	0.41329	0.875	0.611
Mof_Ag	Ag	0.66329	0.91329	0.375	0.611
Mof_Ag	Ag	0.16329	0.41329	0.875	0.611
Mof_Ag	Ag	0.83671	0.08671	0.875	0.611
Mof_Ag	Ag	0.33671	0.58671	0.375	0.611
Mof_Ag	Ag	0.83671	0.91329	0.125	0.611
Mof_Ag	Ag	0.33671	0.41329	0.625	0.611
Mof_Ag	Ag	0.66329	0.08671	0.625	0.611
Mof_Ag	Ag	0.16329	0.58671	0.125	0.611
Mof_S 	S 	3.76405e-33	0.09223	0.64206	-0.009
Mof_S 	S 	0.5	0.59223	0.14206	-0.01
Mof_S 	S 	0.5	0.90777	0.14206	-0.01
Mof_S 	S 	3.76405e-33	0.40777	0.64206	-0.009
Mof_S 	S 	0.15777	0.75	0.89206	-0.01
Mof_S 	S 	0.34223	0.25	0.39206	-0.01
Mof_S 	S 	0.5	0.09223	0.85794	-0.01
Mof_S 	S 	-3.46952e-33	0.59223	0.35794	-0.009
Mof_S 	S 	7.66634e-33	0.90777	0.35794	-0.009
Mof_S 	S 	0.5	0.40777	0.85794	-0.01
Mof_S 	S 	0.34223	0.75	0.60794	-0.01
Mof_S 	S 	0.15777	0.25	0.10794	-0.01
Mof_S 	S 	0.84223	0.25	0.10794	-0.01
Mof_S 	S 	0.65777	0.75	0.60794	-0.01
Mof_S 	S 	0.65777	0.25	0.39206	-0.01
Mof_S 	S 	0.84223	0.75	0.89206	-0.01
_end
