data_functionalizedCrystal
_audit_creation_method	'EQeq! by Chris Wilmer'
_symmetry_space_group_name_H-M	'P1'
_symmetry_Int_Tables_number	1
_symmetry_cell_setting	triclinic
loop_
_symmetry_equiv_pos_as_xyz
  x,y,z
_cell_length_a	21.858
_cell_length_b	21.858
_cell_length_c	25.131
_cell_angle_alpha	90
_cell_angle_beta	90
_cell_angle_gamma	90
loop_
_atom_site_label
_atom_site_type_symbol
_atom_site_fract_x
_atom_site_fract_y
_atom_site_fract_z
_atom_site_charge
Mof_Cu	Cu	0.02536	0.94152	0.47572	0.84
Mof_Br	Br	0.91961	0.95232	0.51232	-0.529
Mof_Se	Se	0.99633	0.80312	0.47466	-0.03
Mof_Se	Se	0.13698	0.94871	0.40152	-0.021
Mof_N 	N 	0.0672	0.8856	0.5283	-0.236
Mof_C 	C 	0.0531	0.826	0.5297	0.06
Mof_C 	C 	0.0768	0.7861	0.5675	-0.123
Mof_H 	H 	0.0661	0.744	0.5671	0.074
Mof_C 	C 	0.1162	0.8091	0.6057	0.045
Mof_H 	H 	0.1334	0.7829	0.6319	0.021
Mof_C 	C 	0.1301	0.8712	0.6049	-0.125
Mof_H 	H 	0.157	0.8882	0.6307	0.089
Mof_C 	C 	0.1049	0.907	0.5671	0.062
Mof_H 	H 	0.114	0.9495	0.5676	0.001
Mof_N 	N 	0.0117	0.9357	0.3954	-0.234
Mof_C 	C 	0.0611	0.939	0.3646	0.059
Mof_C 	C 	0.0542	0.9354	0.3107	-0.129
Mof_H 	H 	0.0889	0.938	0.2881	0.071
Mof_C 	C 	0.9966	0.9281	0.2891	0.059
Mof_H 	H 	0.9919	0.9258	0.2516	0.016
Mof_C 	C 	0.9475	0.9241	0.3203	-0.136
Mof_H 	H 	0.9078	0.9188	0.3057	0.088
Mof_C 	C 	0.9563	0.9282	0.3748	0.069
Mof_H 	H 	0.9219	0.9255	0.3978	0.002
Mof_Cu	Cu	0.52536	0.44152	0.97572	0.841
Mof_Br	Br	0.41961	0.45232	0.01232	-0.528
Mof_Se	Se	0.49633	0.30312	0.97466	-0.029
Mof_Se	Se	0.63698	0.44871	0.90152	-0.02
Mof_N 	N 	0.5672	0.3856	0.0283	-0.235
Mof_C 	C 	0.5531	0.326	0.0297	0.061
Mof_C 	C 	0.5768	0.2861	0.0675	-0.122
Mof_H 	H 	0.5661	0.244	0.0671	0.075
Mof_C 	C 	0.6162	0.3091	0.1057	0.045
Mof_H 	H 	0.6334	0.2829	0.1319	0.021
Mof_C 	C 	0.6301	0.3712	0.1049	-0.125
Mof_H 	H 	0.657	0.3882	0.1307	0.089
Mof_C 	C 	0.6049	0.407	0.0671	0.062
Mof_H 	H 	0.614	0.4495	0.0676	0.001
Mof_N 	N 	0.5117	0.4357	0.8954	-0.234
Mof_C 	C 	0.5611	0.439	0.8646	0.059
Mof_C 	C 	0.5542	0.4354	0.8107	-0.129
Mof_H 	H 	0.5889	0.438	0.7881	0.071
Mof_C 	C 	0.4966	0.4281	0.7891	0.058
Mof_H 	H 	0.4919	0.4258	0.7516	0.016
Mof_C 	C 	0.4475	0.4241	0.8203	-0.136
Mof_H 	H 	0.4078	0.4188	0.8057	0.088
Mof_C 	C 	0.4563	0.4282	0.8748	0.069
Mof_H 	H 	0.4219	0.4255	0.8978	0.002
Mof_Cu	Cu	0.47464	0.05848	0.97572	0.841
Mof_Br	Br	0.58039	0.04768	0.01232	-0.528
Mof_Se	Se	0.50367	0.19688	0.97466	-0.029
Mof_Se	Se	0.36302	0.05129	0.90152	-0.02
Mof_N 	N 	0.4328	0.1144	0.0283	-0.235
Mof_C 	C 	0.4469	0.174	0.0297	0.061
Mof_C 	C 	0.4232	0.2139	0.0675	-0.122
Mof_H 	H 	0.4339	0.256	0.0671	0.075
Mof_C 	C 	0.3838	0.1909	0.1057	0.045
Mof_H 	H 	0.3666	0.2171	0.1319	0.021
Mof_C 	C 	0.3699	0.1288	0.1049	-0.125
Mof_H 	H 	0.343	0.1118	0.1307	0.089
Mof_C 	C 	0.3951	0.093	0.0671	0.062
Mof_H 	H 	0.386	0.0505	0.0676	0.001
Mof_N 	N 	0.4883	0.0643	0.8954	-0.234
Mof_C 	C 	0.4389	0.061	0.8646	0.059
Mof_C 	C 	0.4458	0.0646	0.8107	-0.129
Mof_H 	H 	0.4111	0.062	0.7881	0.071
Mof_C 	C 	0.5034	0.0719	0.7891	0.058
Mof_H 	H 	0.5081	0.0742	0.7516	0.016
Mof_C 	C 	0.5525	0.0759	0.8203	-0.136
Mof_H 	H 	0.5922	0.0812	0.8057	0.088
Mof_C 	C 	0.5437	0.0718	0.8748	0.069
Mof_H 	H 	0.5781	0.0745	0.8978	0.002
Mof_Cu	Cu	0.97464	0.55848	0.47572	0.841
Mof_Br	Br	0.08039	0.54768	0.51232	-0.528
Mof_Se	Se	0.00367	0.69688	0.47466	-0.029
Mof_Se	Se	0.86302	0.55129	0.40152	-0.02
Mof_N 	N 	0.9328	0.6144	0.5283	-0.235
Mof_C 	C 	0.9469	0.674	0.5297	0.061
Mof_C 	C 	0.9232	0.7139	0.5675	-0.122
Mof_H 	H 	0.9339	0.756	0.5671	0.075
Mof_C 	C 	0.8838	0.6909	0.6057	0.045
Mof_H 	H 	0.8666	0.7171	0.6319	0.021
Mof_C 	C 	0.8699	0.6288	0.6049	-0.125
Mof_H 	H 	0.843	0.6118	0.6307	0.089
Mof_C 	C 	0.8951	0.593	0.5671	0.062
Mof_H 	H 	0.886	0.5505	0.5676	0.001
Mof_N 	N 	0.9883	0.5643	0.3954	-0.234
Mof_C 	C 	0.9389	0.561	0.3646	0.059
Mof_C 	C 	0.9458	0.5646	0.3107	-0.129
Mof_H 	H 	0.9111	0.562	0.2881	0.071
Mof_C 	C 	0.0034	0.5719	0.2891	0.059
Mof_H 	H 	0.0081	0.5742	0.2516	0.016
Mof_C 	C 	0.0525	0.5759	0.3203	-0.136
Mof_H 	H 	0.0922	0.5812	0.3057	0.088
Mof_C 	C 	0.0437	0.5718	0.3748	0.069
Mof_H 	H 	0.0781	0.5745	0.3978	0.002
Mof_Cu	Cu	0.19152	0.77536	0.27428	0.841
Mof_Br	Br	0.20232	0.66961	0.23768	-0.528
Mof_Se	Se	0.05312	0.74633	0.27534	-0.029
Mof_Se	Se	0.19871	0.88698	0.34848	-0.02
Mof_N 	N 	0.1356	0.8172	0.2217	-0.235
Mof_C 	C 	0.076	0.8031	0.2203	0.061
Mof_C 	C 	0.0361	0.8268	0.1825	-0.122
Mof_H 	H 	0.994	0.8161	0.1829	0.075
Mof_C 	C 	0.0591	0.8662	0.1443	0.045
Mof_H 	H 	0.0329	0.8834	0.1181	0.021
Mof_C 	C 	0.1212	0.8801	0.1451	-0.125
Mof_H 	H 	0.1382	0.907	0.1193	0.089
Mof_C 	C 	0.157	0.8549	0.1829	0.062
Mof_H 	H 	0.1995	0.864	0.1824	0.001
Mof_N 	N 	0.1857	0.7617	0.3546	-0.234
Mof_C 	C 	0.189	0.8111	0.3854	0.059
Mof_C 	C 	0.1854	0.8042	0.4393	-0.129
Mof_H 	H 	0.188	0.8389	0.4619	0.071
Mof_C 	C 	0.1781	0.7466	0.4609	0.058
Mof_H 	H 	0.1758	0.7419	0.4984	0.016
Mof_C 	C 	0.1741	0.6975	0.4297	-0.136
Mof_H 	H 	0.1688	0.6578	0.4443	0.088
Mof_C 	C 	0.1782	0.7063	0.3752	0.069
Mof_H 	H 	0.1755	0.6719	0.3522	0.002
Mof_Cu	Cu	0.69152	0.27536	0.77428	0.841
Mof_Br	Br	0.70232	0.16961	0.73768	-0.528
Mof_Se	Se	0.55312	0.24633	0.77534	-0.029
Mof_Se	Se	0.69871	0.38698	0.84848	-0.02
Mof_N 	N 	0.6356	0.3172	0.7217	-0.235
Mof_C 	C 	0.576	0.3031	0.7203	0.061
Mof_C 	C 	0.5361	0.3268	0.6825	-0.122
Mof_H 	H 	0.494	0.3161	0.6829	0.075
Mof_C 	C 	0.5591	0.3662	0.6443	0.045
Mof_H 	H 	0.5329	0.3834	0.6181	0.021
Mof_C 	C 	0.6212	0.3801	0.6451	-0.125
Mof_H 	H 	0.6382	0.407	0.6193	0.089
Mof_C 	C 	0.657	0.3549	0.6829	0.062
Mof_H 	H 	0.6995	0.364	0.6824	0.001
Mof_N 	N 	0.6857	0.2617	0.8546	-0.234
Mof_C 	C 	0.689	0.3111	0.8854	0.059
Mof_C 	C 	0.6854	0.3042	0.9393	-0.129
Mof_H 	H 	0.688	0.3389	0.9619	0.071
Mof_C 	C 	0.6781	0.2466	0.9609	0.058
Mof_H 	H 	0.6758	0.2419	0.9984	0.016
Mof_C 	C 	0.6741	0.1975	0.9297	-0.136
Mof_H 	H 	0.6688	0.1578	0.9443	0.088
Mof_C 	C 	0.6782	0.2063	0.8752	0.069
Mof_H 	H 	0.6755	0.1719	0.8522	0.002
Mof_Cu	Cu	0.30848	0.22464	0.77428	0.841
Mof_Br	Br	0.29768	0.33039	0.73768	-0.528
Mof_Se	Se	0.44688	0.25367	0.77534	-0.029
Mof_Se	Se	0.30129	0.11302	0.84848	-0.02
Mof_N 	N 	0.3644	0.1828	0.7217	-0.235
Mof_C 	C 	0.424	0.1969	0.7203	0.061
Mof_C 	C 	0.4639	0.1732	0.6825	-0.122
Mof_H 	H 	0.506	0.1839	0.6829	0.075
Mof_C 	C 	0.4409	0.1338	0.6443	0.045
Mof_H 	H 	0.4671	0.1166	0.6181	0.021
Mof_C 	C 	0.3788	0.1199	0.6451	-0.125
Mof_H 	H 	0.3618	0.093	0.6193	0.089
Mof_C 	C 	0.343	0.1451	0.6829	0.062
Mof_H 	H 	0.3005	0.136	0.6824	0.001
Mof_N 	N 	0.3143	0.2383	0.8546	-0.234
Mof_C 	C 	0.311	0.1889	0.8854	0.059
Mof_C 	C 	0.3146	0.1958	0.9393	-0.129
Mof_H 	H 	0.312	0.1611	0.9619	0.071
Mof_C 	C 	0.3219	0.2534	0.9609	0.058
Mof_H 	H 	0.3242	0.2581	0.9984	0.016
Mof_C 	C 	0.3259	0.3025	0.9297	-0.136
Mof_H 	H 	0.3312	0.3422	0.9443	0.088
Mof_C 	C 	0.3218	0.2937	0.8752	0.069
Mof_H 	H 	0.3245	0.3281	0.8522	0.002
Mof_Cu	Cu	0.80848	0.72464	0.27428	0.841
Mof_Br	Br	0.79768	0.83039	0.23768	-0.528
Mof_Se	Se	0.94688	0.75367	0.27534	-0.029
Mof_Se	Se	0.80129	0.61302	0.34848	-0.02
Mof_N 	N 	0.8644	0.6828	0.2217	-0.235
Mof_C 	C 	0.924	0.6969	0.2203	0.061
Mof_C 	C 	0.9639	0.6732	0.1825	-0.122
Mof_H 	H 	0.006	0.6839	0.1829	0.075
Mof_C 	C 	0.9409	0.6338	0.1443	0.045
Mof_H 	H 	0.9671	0.6166	0.1181	0.021
Mof_C 	C 	0.8788	0.6199	0.1451	-0.125
Mof_H 	H 	0.8618	0.593	0.1193	0.089
Mof_C 	C 	0.843	0.6451	0.1829	0.062
Mof_H 	H 	0.8005	0.636	0.1824	0.001
Mof_N 	N 	0.8143	0.7383	0.3546	-0.234
Mof_C 	C 	0.811	0.6889	0.3854	0.059
Mof_C 	C 	0.8146	0.6958	0.4393	-0.129
Mof_H 	H 	0.812	0.6611	0.4619	0.071
Mof_C 	C 	0.8219	0.7534	0.4609	0.058
Mof_H 	H 	0.8242	0.7581	0.4984	0.016
Mof_C 	C 	0.8259	0.8025	0.4297	-0.136
Mof_H 	H 	0.8312	0.8422	0.4443	0.088
Mof_C 	C 	0.8218	0.7937	0.3752	0.069
Mof_H 	H 	0.8245	0.8281	0.3522	0.002
Mof_Cu	Cu	0.97464	0.05848	0.52428	0.841
Mof_Br	Br	0.08039	0.04768	0.48768	-0.528
Mof_Se	Se	0.00367	0.19688	0.52534	-0.029
Mof_Se	Se	0.86302	0.05129	0.59848	-0.02
Mof_N 	N 	0.9328	0.1144	0.4717	-0.235
Mof_C 	C 	0.9469	0.174	0.4703	0.061
Mof_C 	C 	0.9232	0.2139	0.4325	-0.122
Mof_H 	H 	0.9339	0.256	0.4329	0.075
Mof_C 	C 	0.8838	0.1909	0.3943	0.045
Mof_H 	H 	0.8666	0.2171	0.3681	0.021
Mof_C 	C 	0.8699	0.1288	0.3951	-0.125
Mof_H 	H 	0.843	0.1118	0.3693	0.089
Mof_C 	C 	0.8951	0.093	0.4329	0.062
Mof_H 	H 	0.886	0.0505	0.4324	0.001
Mof_N 	N 	0.9883	0.0643	0.6046	-0.234
Mof_C 	C 	0.9389	0.061	0.6354	0.059
Mof_C 	C 	0.9458	0.0646	0.6893	-0.129
Mof_H 	H 	0.9111	0.062	0.7119	0.071
Mof_C 	C 	0.0034	0.0719	0.7109	0.059
Mof_H 	H 	0.0081	0.0742	0.7484	0.016
Mof_C 	C 	0.0525	0.0759	0.6797	-0.136
Mof_H 	H 	0.0922	0.0812	0.6943	0.088
Mof_C 	C 	0.0437	0.0718	0.6252	0.069
Mof_H 	H 	0.0781	0.0745	0.6022	0.002
Mof_Cu	Cu	0.47464	0.55848	0.02428	0.841
Mof_Br	Br	0.58039	0.54768	0.98768	-0.528
Mof_Se	Se	0.50367	0.69688	0.02534	-0.029
Mof_Se	Se	0.36302	0.55129	0.09848	-0.02
Mof_N 	N 	0.4328	0.6144	0.9717	-0.235
Mof_C 	C 	0.4469	0.674	0.9703	0.061
Mof_C 	C 	0.4232	0.7139	0.9325	-0.122
Mof_H 	H 	0.4339	0.756	0.9329	0.075
Mof_C 	C 	0.3838	0.6909	0.8943	0.045
Mof_H 	H 	0.3666	0.7171	0.8681	0.021
Mof_C 	C 	0.3699	0.6288	0.8951	-0.125
Mof_H 	H 	0.343	0.6118	0.8693	0.089
Mof_C 	C 	0.3951	0.593	0.9329	0.062
Mof_H 	H 	0.386	0.5505	0.9324	0.001
Mof_N 	N 	0.4883	0.5643	0.1046	-0.234
Mof_C 	C 	0.4389	0.561	0.1354	0.059
Mof_C 	C 	0.4458	0.5646	0.1893	-0.129
Mof_H 	H 	0.4111	0.562	0.2119	0.071
Mof_C 	C 	0.5034	0.5719	0.2109	0.058
Mof_H 	H 	0.5081	0.5742	0.2484	0.016
Mof_C 	C 	0.5525	0.5759	0.1797	-0.136
Mof_H 	H 	0.5922	0.5812	0.1943	0.088
Mof_C 	C 	0.5437	0.5718	0.1252	0.069
Mof_H 	H 	0.5781	0.5745	0.1022	0.002
Mof_Cu	Cu	0.52536	0.94152	0.02428	0.841
Mof_Br	Br	0.41961	0.95232	0.98768	-0.528
Mof_Se	Se	0.49633	0.80312	0.02534	-0.029
Mof_Se	Se	0.63698	0.94871	0.09848	-0.02
Mof_N 	N 	0.5672	0.8856	0.9717	-0.235
Mof_C 	C 	0.5531	0.826	0.9703	0.061
Mof_C 	C 	0.5768	0.7861	0.9325	-0.122
Mof_H 	H 	0.5661	0.744	0.9329	0.075
Mof_C 	C 	0.6162	0.8091	0.8943	0.045
Mof_H 	H 	0.6334	0.7829	0.8681	0.021
Mof_C 	C 	0.6301	0.8712	0.8951	-0.125
Mof_H 	H 	0.657	0.8882	0.8693	0.089
Mof_C 	C 	0.6049	0.907	0.9329	0.062
Mof_H 	H 	0.614	0.9495	0.9324	0.001
Mof_N 	N 	0.5117	0.9357	0.1046	-0.234
Mof_C 	C 	0.5611	0.939	0.1354	0.059
Mof_C 	C 	0.5542	0.9354	0.1893	-0.129
Mof_H 	H 	0.5889	0.938	0.2119	0.071
Mof_C 	C 	0.4966	0.9281	0.2109	0.058
Mof_H 	H 	0.4919	0.9258	0.2484	0.016
Mof_C 	C 	0.4475	0.9241	0.1797	-0.136
Mof_H 	H 	0.4078	0.9188	0.1943	0.088
Mof_C 	C 	0.4563	0.9282	0.1252	0.069
Mof_H 	H 	0.4219	0.9255	0.1022	0.002
Mof_Cu	Cu	0.02536	0.44152	0.52428	0.841
Mof_Br	Br	0.91961	0.45232	0.48768	-0.528
Mof_Se	Se	0.99633	0.30312	0.52534	-0.029
Mof_Se	Se	0.13698	0.44871	0.59848	-0.02
Mof_N 	N 	0.0672	0.3856	0.4717	-0.235
Mof_C 	C 	0.0531	0.326	0.4703	0.061
Mof_C 	C 	0.0768	0.2861	0.4325	-0.122
Mof_H 	H 	0.0661	0.244	0.4329	0.075
Mof_C 	C 	0.1162	0.3091	0.3943	0.045
Mof_H 	H 	0.1334	0.2829	0.3681	0.021
Mof_C 	C 	0.1301	0.3712	0.3951	-0.125
Mof_H 	H 	0.157	0.3882	0.3693	0.089
Mof_C 	C 	0.1049	0.407	0.4329	0.062
Mof_H 	H 	0.114	0.4495	0.4324	0.001
Mof_N 	N 	0.0117	0.4357	0.6046	-0.234
Mof_C 	C 	0.0611	0.439	0.6354	0.059
Mof_C 	C 	0.0542	0.4354	0.6893	-0.129
Mof_H 	H 	0.0889	0.438	0.7119	0.071
Mof_C 	C 	0.9966	0.4281	0.7109	0.059
Mof_H 	H 	0.9919	0.4258	0.7484	0.016
Mof_C 	C 	0.9475	0.4241	0.6797	-0.136
Mof_H 	H 	0.9078	0.4188	0.6943	0.088
Mof_C 	C 	0.9563	0.4282	0.6252	0.069
Mof_H 	H 	0.9219	0.4255	0.6022	0.002
Mof_Cu	Cu	0.80848	0.22464	0.72572	0.841
Mof_Br	Br	0.79768	0.33039	0.76232	-0.528
Mof_Se	Se	0.94688	0.25367	0.72466	-0.029
Mof_Se	Se	0.80129	0.11302	0.65152	-0.02
Mof_N 	N 	0.8644	0.1828	0.7783	-0.235
Mof_C 	C 	0.924	0.1969	0.7797	0.061
Mof_C 	C 	0.9639	0.1732	0.8175	-0.122
Mof_H 	H 	0.006	0.1839	0.8171	0.075
Mof_C 	C 	0.9409	0.1338	0.8557	0.045
Mof_H 	H 	0.9671	0.1166	0.8819	0.021
Mof_C 	C 	0.8788	0.1199	0.8549	-0.125
Mof_H 	H 	0.8618	0.093	0.8807	0.089
Mof_C 	C 	0.843	0.1451	0.8171	0.062
Mof_H 	H 	0.8005	0.136	0.8176	0.001
Mof_N 	N 	0.8143	0.2383	0.6454	-0.234
Mof_C 	C 	0.811	0.1889	0.6146	0.059
Mof_C 	C 	0.8146	0.1958	0.5607	-0.129
Mof_H 	H 	0.812	0.1611	0.5381	0.071
Mof_C 	C 	0.8219	0.2534	0.5391	0.058
Mof_H 	H 	0.8242	0.2581	0.5016	0.016
Mof_C 	C 	0.8259	0.3025	0.5703	-0.136
Mof_H 	H 	0.8312	0.3422	0.5557	0.088
Mof_C 	C 	0.8218	0.2937	0.6248	0.069
Mof_H 	H 	0.8245	0.3281	0.6478	0.002
Mof_Cu	Cu	0.30848	0.72464	0.22572	0.841
Mof_Br	Br	0.29768	0.83039	0.26232	-0.528
Mof_Se	Se	0.44688	0.75367	0.22466	-0.029
Mof_Se	Se	0.30129	0.61302	0.15152	-0.02
Mof_N 	N 	0.3644	0.6828	0.2783	-0.235
Mof_C 	C 	0.424	0.6969	0.2797	0.061
Mof_C 	C 	0.4639	0.6732	0.3175	-0.122
Mof_H 	H 	0.506	0.6839	0.3171	0.075
Mof_C 	C 	0.4409	0.6338	0.3557	0.045
Mof_H 	H 	0.4671	0.6166	0.3819	0.021
Mof_C 	C 	0.3788	0.6199	0.3549	-0.125
Mof_H 	H 	0.3618	0.593	0.3807	0.089
Mof_C 	C 	0.343	0.6451	0.3171	0.062
Mof_H 	H 	0.3005	0.636	0.3176	0.001
Mof_N 	N 	0.3143	0.7383	0.1454	-0.234
Mof_C 	C 	0.311	0.6889	0.1146	0.059
Mof_C 	C 	0.3146	0.6958	0.0607	-0.129
Mof_H 	H 	0.312	0.6611	0.0381	0.071
Mof_C 	C 	0.3219	0.7534	0.0391	0.058
Mof_H 	H 	0.3242	0.7581	0.0016	0.016
Mof_C 	C 	0.3259	0.8025	0.0703	-0.136
Mof_H 	H 	0.3312	0.8422	0.0557	0.088
Mof_C 	C 	0.3218	0.7937	0.1248	0.069
Mof_H 	H 	0.3245	0.8281	0.1478	0.002
Mof_Cu	Cu	0.69152	0.77536	0.22572	0.841
Mof_Br	Br	0.70232	0.66961	0.26232	-0.528
Mof_Se	Se	0.55312	0.74633	0.22466	-0.029
Mof_Se	Se	0.69871	0.88698	0.15152	-0.02
Mof_N 	N 	0.6356	0.8172	0.2783	-0.235
Mof_C 	C 	0.576	0.8031	0.2797	0.061
Mof_C 	C 	0.5361	0.8268	0.3175	-0.122
Mof_H 	H 	0.494	0.8161	0.3171	0.075
Mof_C 	C 	0.5591	0.8662	0.3557	0.045
Mof_H 	H 	0.5329	0.8834	0.3819	0.021
Mof_C 	C 	0.6212	0.8801	0.3549	-0.125
Mof_H 	H 	0.6382	0.907	0.3807	0.089
Mof_C 	C 	0.657	0.8549	0.3171	0.062
Mof_H 	H 	0.6995	0.864	0.3176	0.001
Mof_N 	N 	0.6857	0.7617	0.1454	-0.234
Mof_C 	C 	0.689	0.8111	0.1146	0.059
Mof_C 	C 	0.6854	0.8042	0.0607	-0.129
Mof_H 	H 	0.688	0.8389	0.0381	0.071
Mof_C 	C 	0.6781	0.7466	0.0391	0.058
Mof_H 	H 	0.6758	0.7419	0.0016	0.016
Mof_C 	C 	0.6741	0.6975	0.0703	-0.136
Mof_H 	H 	0.6688	0.6578	0.0557	0.088
Mof_C 	C 	0.6782	0.7063	0.1248	0.069
Mof_H 	H 	0.6755	0.6719	0.1478	0.002
Mof_Cu	Cu	0.19152	0.27536	0.72572	0.841
Mof_Br	Br	0.20232	0.16961	0.76232	-0.528
Mof_Se	Se	0.05312	0.24633	0.72466	-0.029
Mof_Se	Se	0.19871	0.38698	0.65152	-0.02
Mof_N 	N 	0.1356	0.3172	0.7783	-0.235
Mof_C 	C 	0.076	0.3031	0.7797	0.061
Mof_C 	C 	0.0361	0.3268	0.8175	-0.122
Mof_H 	H 	0.994	0.3161	0.8171	0.075
Mof_C 	C 	0.0591	0.3662	0.8557	0.045
Mof_H 	H 	0.0329	0.3834	0.8819	0.021
Mof_C 	C 	0.1212	0.3801	0.8549	-0.125
Mof_H 	H 	0.1382	0.407	0.8807	0.089
Mof_C 	C 	0.157	0.3549	0.8171	0.062
Mof_H 	H 	0.1995	0.364	0.8176	0.001
Mof_N 	N 	0.1857	0.2617	0.6454	-0.234
Mof_C 	C 	0.189	0.3111	0.6146	0.059
Mof_C 	C 	0.1854	0.3042	0.5607	-0.129
Mof_H 	H 	0.188	0.3389	0.5381	0.071
Mof_C 	C 	0.1781	0.2466	0.5391	0.058
Mof_H 	H 	0.1758	0.2419	0.5016	0.016
Mof_C 	C 	0.1741	0.1975	0.5703	-0.136
Mof_H 	H 	0.1688	0.1578	0.5557	0.088
Mof_C 	C 	0.1782	0.2063	0.6248	0.069
Mof_H 	H 	0.1755	0.1719	0.6478	0.002
Mof_Cu	Cu	0.30848	0.77536	0.72572	0.841
Mof_Br	Br	0.29768	0.66961	0.76232	-0.528
Mof_Se	Se	0.44688	0.74633	0.72466	-0.029
Mof_Se	Se	0.30129	0.88698	0.65152	-0.02
Mof_N 	N 	0.3644	0.8172	0.7783	-0.235
Mof_C 	C 	0.424	0.8031	0.7797	0.061
Mof_C 	C 	0.4639	0.8268	0.8175	-0.122
Mof_H 	H 	0.506	0.8161	0.8171	0.075
Mof_C 	C 	0.4409	0.8662	0.8557	0.045
Mof_H 	H 	0.4671	0.8834	0.8819	0.021
Mof_C 	C 	0.3788	0.8801	0.8549	-0.125
Mof_H 	H 	0.3618	0.907	0.8807	0.089
Mof_C 	C 	0.343	0.8549	0.8171	0.062
Mof_H 	H 	0.3005	0.864	0.8176	0.001
Mof_N 	N 	0.3143	0.7617	0.6454	-0.234
Mof_C 	C 	0.311	0.8111	0.6146	0.059
Mof_C 	C 	0.3146	0.8042	0.5607	-0.129
Mof_H 	H 	0.312	0.8389	0.5381	0.071
Mof_C 	C 	0.3219	0.7466	0.5391	0.058
Mof_H 	H 	0.3242	0.7419	0.5016	0.016
Mof_C 	C 	0.3259	0.6975	0.5703	-0.136
Mof_H 	H 	0.3312	0.6578	0.5557	0.088
Mof_C 	C 	0.3218	0.7063	0.6248	0.069
Mof_H 	H 	0.3245	0.6719	0.6478	0.002
Mof_Cu	Cu	0.80848	0.27536	0.22572	0.841
Mof_Br	Br	0.79768	0.16961	0.26232	-0.528
Mof_Se	Se	0.94688	0.24633	0.22466	-0.029
Mof_Se	Se	0.80129	0.38698	0.15152	-0.02
Mof_N 	N 	0.8644	0.3172	0.2783	-0.235
Mof_C 	C 	0.924	0.3031	0.2797	0.061
Mof_C 	C 	0.9639	0.3268	0.3175	-0.122
Mof_H 	H 	0.006	0.3161	0.3171	0.075
Mof_C 	C 	0.9409	0.3662	0.3557	0.045
Mof_H 	H 	0.9671	0.3834	0.3819	0.021
Mof_C 	C 	0.8788	0.3801	0.3549	-0.125
Mof_H 	H 	0.8618	0.407	0.3807	0.089
Mof_C 	C 	0.843	0.3549	0.3171	0.062
Mof_H 	H 	0.8005	0.364	0.3176	0.001
Mof_N 	N 	0.8143	0.2617	0.1454	-0.234
Mof_C 	C 	0.811	0.3111	0.1146	0.059
Mof_C 	C 	0.8146	0.3042	0.0607	-0.129
Mof_H 	H 	0.812	0.3389	0.0381	0.071
Mof_C 	C 	0.8219	0.2466	0.0391	0.058
Mof_H 	H 	0.8242	0.2419	0.0016	0.016
Mof_C 	C 	0.8259	0.1975	0.0703	-0.136
Mof_H 	H 	0.8312	0.1578	0.0557	0.088
Mof_C 	C 	0.8218	0.2063	0.1248	0.069
Mof_H 	H 	0.8245	0.1719	0.1478	0.002
Mof_Cu	Cu	0.19152	0.22464	0.22572	0.841
Mof_Br	Br	0.20232	0.33039	0.26232	-0.528
Mof_Se	Se	0.05312	0.25367	0.22466	-0.029
Mof_Se	Se	0.19871	0.11302	0.15152	-0.02
Mof_N 	N 	0.1356	0.1828	0.2783	-0.235
Mof_C 	C 	0.076	0.1969	0.2797	0.061
Mof_C 	C 	0.0361	0.1732	0.3175	-0.122
Mof_H 	H 	0.994	0.1839	0.3171	0.075
Mof_C 	C 	0.0591	0.1338	0.3557	0.045
Mof_H 	H 	0.0329	0.1166	0.3819	0.021
Mof_C 	C 	0.1212	0.1199	0.3549	-0.125
Mof_H 	H 	0.1382	0.093	0.3807	0.089
Mof_C 	C 	0.157	0.1451	0.3171	0.062
Mof_H 	H 	0.1995	0.136	0.3176	0.001
Mof_N 	N 	0.1857	0.2383	0.1454	-0.234
Mof_C 	C 	0.189	0.1889	0.1146	0.059
Mof_C 	C 	0.1854	0.1958	0.0607	-0.129
Mof_H 	H 	0.188	0.1611	0.0381	0.071
Mof_C 	C 	0.1781	0.2534	0.0391	0.058
Mof_H 	H 	0.1758	0.2581	0.0016	0.016
Mof_C 	C 	0.1741	0.3025	0.0703	-0.136
Mof_H 	H 	0.1688	0.3422	0.0557	0.088
Mof_C 	C 	0.1782	0.2937	0.1248	0.069
Mof_H 	H 	0.1755	0.3281	0.1478	0.002
Mof_Cu	Cu	0.69152	0.72464	0.72572	0.841
Mof_Br	Br	0.70232	0.83039	0.76232	-0.528
Mof_Se	Se	0.55312	0.75367	0.72466	-0.029
Mof_Se	Se	0.69871	0.61302	0.65152	-0.02
Mof_N 	N 	0.6356	0.6828	0.7783	-0.235
Mof_C 	C 	0.576	0.6969	0.7797	0.061
Mof_C 	C 	0.5361	0.6732	0.8175	-0.122
Mof_H 	H 	0.494	0.6839	0.8171	0.075
Mof_C 	C 	0.5591	0.6338	0.8557	0.045
Mof_H 	H 	0.5329	0.6166	0.8819	0.021
Mof_C 	C 	0.6212	0.6199	0.8549	-0.125
Mof_H 	H 	0.6382	0.593	0.8807	0.089
Mof_C 	C 	0.657	0.6451	0.8171	0.062
Mof_H 	H 	0.6995	0.636	0.8176	0.001
Mof_N 	N 	0.6857	0.7383	0.6454	-0.234
Mof_C 	C 	0.689	0.6889	0.6146	0.059
Mof_C 	C 	0.6854	0.6958	0.5607	-0.129
Mof_H 	H 	0.688	0.6611	0.5381	0.071
Mof_C 	C 	0.6781	0.7534	0.5391	0.058
Mof_H 	H 	0.6758	0.7581	0.5016	0.016
Mof_C 	C 	0.6741	0.8025	0.5703	-0.136
Mof_H 	H 	0.6688	0.8422	0.5557	0.088
Mof_C 	C 	0.6782	0.7937	0.6248	0.069
Mof_H 	H 	0.6755	0.8281	0.6478	0.002
Mof_Cu	Cu	0.47464	0.94152	0.52428	0.841
Mof_Br	Br	0.58039	0.95232	0.48768	-0.528
Mof_Se	Se	0.50367	0.80312	0.52534	-0.029
Mof_Se	Se	0.36302	0.94871	0.59848	-0.02
Mof_N 	N 	0.4328	0.8856	0.4717	-0.235
Mof_C 	C 	0.4469	0.826	0.4703	0.061
Mof_C 	C 	0.4232	0.7861	0.4325	-0.122
Mof_H 	H 	0.4339	0.744	0.4329	0.075
Mof_C 	C 	0.3838	0.8091	0.3943	0.045
Mof_H 	H 	0.3666	0.7829	0.3681	0.021
Mof_C 	C 	0.3699	0.8712	0.3951	-0.125
Mof_H 	H 	0.343	0.8882	0.3693	0.089
Mof_C 	C 	0.3951	0.907	0.4329	0.062
Mof_H 	H 	0.386	0.9495	0.4324	0.001
Mof_N 	N 	0.4883	0.9357	0.6046	-0.234
Mof_C 	C 	0.4389	0.939	0.6354	0.059
Mof_C 	C 	0.4458	0.9354	0.6893	-0.129
Mof_H 	H 	0.4111	0.938	0.7119	0.071
Mof_C 	C 	0.5034	0.9281	0.7109	0.058
Mof_H 	H 	0.5081	0.9258	0.7484	0.016
Mof_C 	C 	0.5525	0.9241	0.6797	-0.136
Mof_H 	H 	0.5922	0.9188	0.6943	0.088
Mof_C 	C 	0.5437	0.9282	0.6252	0.069
Mof_H 	H 	0.5781	0.9255	0.6022	0.002
Mof_Cu	Cu	0.97464	0.44152	0.02428	0.841
Mof_Br	Br	0.08039	0.45232	0.98768	-0.528
Mof_Se	Se	0.00367	0.30312	0.02534	-0.029
Mof_Se	Se	0.86302	0.44871	0.09848	-0.02
Mof_N 	N 	0.9328	0.3856	0.9717	-0.235
Mof_C 	C 	0.9469	0.326	0.9703	0.061
Mof_C 	C 	0.9232	0.2861	0.9325	-0.122
Mof_H 	H 	0.9339	0.244	0.9329	0.075
Mof_C 	C 	0.8838	0.3091	0.8943	0.045
Mof_H 	H 	0.8666	0.2829	0.8681	0.021
Mof_C 	C 	0.8699	0.3712	0.8951	-0.125
Mof_H 	H 	0.843	0.3882	0.8693	0.089
Mof_C 	C 	0.8951	0.407	0.9329	0.062
Mof_H 	H 	0.886	0.4495	0.9324	0.001
Mof_N 	N 	0.9883	0.4357	0.1046	-0.234
Mof_C 	C 	0.9389	0.439	0.1354	0.059
Mof_C 	C 	0.9458	0.4354	0.1893	-0.129
Mof_H 	H 	0.9111	0.438	0.2119	0.071
Mof_C 	C 	0.0034	0.4281	0.2109	0.059
Mof_H 	H 	0.0081	0.4258	0.2484	0.016
Mof_C 	C 	0.0525	0.4241	0.1797	-0.136
Mof_H 	H 	0.0922	0.4188	0.1943	0.088
Mof_C 	C 	0.0437	0.4282	0.1252	0.069
Mof_H 	H 	0.0781	0.4255	0.1022	0.002
Mof_Cu	Cu	0.02536	0.05848	0.02428	0.841
Mof_Br	Br	0.91961	0.04768	0.98768	-0.528
Mof_Se	Se	0.99633	0.19688	0.02534	-0.029
Mof_Se	Se	0.13698	0.05129	0.09848	-0.02
Mof_N 	N 	0.0672	0.1144	0.9717	-0.235
Mof_C 	C 	0.0531	0.174	0.9703	0.061
Mof_C 	C 	0.0768	0.2139	0.9325	-0.122
Mof_H 	H 	0.0661	0.256	0.9329	0.075
Mof_C 	C 	0.1162	0.1909	0.8943	0.045
Mof_H 	H 	0.1334	0.2171	0.8681	0.021
Mof_C 	C 	0.1301	0.1288	0.8951	-0.125
Mof_H 	H 	0.157	0.1118	0.8693	0.089
Mof_C 	C 	0.1049	0.093	0.9329	0.062
Mof_H 	H 	0.114	0.0505	0.9324	0.001
Mof_N 	N 	0.0117	0.0643	0.1046	-0.234
Mof_C 	C 	0.0611	0.061	0.1354	0.059
Mof_C 	C 	0.0542	0.0646	0.1893	-0.129
Mof_H 	H 	0.0889	0.062	0.2119	0.071
Mof_C 	C 	0.9966	0.0719	0.2109	0.059
Mof_H 	H 	0.9919	0.0742	0.2484	0.016
Mof_C 	C 	0.9475	0.0759	0.1797	-0.136
Mof_H 	H 	0.9078	0.0812	0.1943	0.088
Mof_C 	C 	0.9563	0.0718	0.1252	0.069
Mof_H 	H 	0.9219	0.0745	0.1022	0.002
Mof_Cu	Cu	0.52536	0.55848	0.52428	0.841
Mof_Br	Br	0.41961	0.54768	0.48768	-0.528
Mof_Se	Se	0.49633	0.69688	0.52534	-0.029
Mof_Se	Se	0.63698	0.55129	0.59848	-0.02
Mof_N 	N 	0.5672	0.6144	0.4717	-0.235
Mof_C 	C 	0.5531	0.674	0.4703	0.061
Mof_C 	C 	0.5768	0.7139	0.4325	-0.122
Mof_H 	H 	0.5661	0.756	0.4329	0.075
Mof_C 	C 	0.6162	0.6909	0.3943	0.045
Mof_H 	H 	0.6334	0.7171	0.3681	0.021
Mof_C 	C 	0.6301	0.6288	0.3951	-0.125
Mof_H 	H 	0.657	0.6118	0.3693	0.089
Mof_C 	C 	0.6049	0.593	0.4329	0.062
Mof_H 	H 	0.614	0.5505	0.4324	0.001
Mof_N 	N 	0.5117	0.5643	0.6046	-0.234
Mof_C 	C 	0.5611	0.561	0.6354	0.059
Mof_C 	C 	0.5542	0.5646	0.6893	-0.129
Mof_H 	H 	0.5889	0.562	0.7119	0.071
Mof_C 	C 	0.4966	0.5719	0.7109	0.058
Mof_H 	H 	0.4919	0.5742	0.7484	0.016
Mof_C 	C 	0.4475	0.5759	0.6797	-0.136
Mof_H 	H 	0.4078	0.5812	0.6943	0.088
Mof_C 	C 	0.4563	0.5718	0.6252	0.069
Mof_H 	H 	0.4219	0.5745	0.6022	0.002
Mof_Cu	Cu	0.69152	0.22464	0.27428	0.841
Mof_Br	Br	0.70232	0.33039	0.23768	-0.528
Mof_Se	Se	0.55312	0.25367	0.27534	-0.029
Mof_Se	Se	0.69871	0.11302	0.34848	-0.02
Mof_N 	N 	0.6356	0.1828	0.2217	-0.235
Mof_C 	C 	0.576	0.1969	0.2203	0.061
Mof_C 	C 	0.5361	0.1732	0.1825	-0.122
Mof_H 	H 	0.494	0.1839	0.1829	0.075
Mof_C 	C 	0.5591	0.1338	0.1443	0.045
Mof_H 	H 	0.5329	0.1166	0.1181	0.021
Mof_C 	C 	0.6212	0.1199	0.1451	-0.125
Mof_H 	H 	0.6382	0.093	0.1193	0.089
Mof_C 	C 	0.657	0.1451	0.1829	0.062
Mof_H 	H 	0.6995	0.136	0.1824	0.001
Mof_N 	N 	0.6857	0.2383	0.3546	-0.234
Mof_C 	C 	0.689	0.1889	0.3854	0.059
Mof_C 	C 	0.6854	0.1958	0.4393	-0.129
Mof_H 	H 	0.688	0.1611	0.4619	0.071
Mof_C 	C 	0.6781	0.2534	0.4609	0.058
Mof_H 	H 	0.6758	0.2581	0.4984	0.016
Mof_C 	C 	0.6741	0.3025	0.4297	-0.136
Mof_H 	H 	0.6688	0.3422	0.4443	0.088
Mof_C 	C 	0.6782	0.2937	0.3752	0.069
Mof_H 	H 	0.6755	0.3281	0.3522	0.002
Mof_Cu	Cu	0.19152	0.72464	0.77428	0.841
Mof_Br	Br	0.20232	0.83039	0.73768	-0.528
Mof_Se	Se	0.05312	0.75367	0.77534	-0.029
Mof_Se	Se	0.19871	0.61302	0.84848	-0.02
Mof_N 	N 	0.1356	0.6828	0.7217	-0.235
Mof_C 	C 	0.076	0.6969	0.7203	0.061
Mof_C 	C 	0.0361	0.6732	0.6825	-0.122
Mof_H 	H 	0.994	0.6839	0.6829	0.075
Mof_C 	C 	0.0591	0.6338	0.6443	0.045
Mof_H 	H 	0.0329	0.6166	0.6181	0.021
Mof_C 	C 	0.1212	0.6199	0.6451	-0.125
Mof_H 	H 	0.1382	0.593	0.6193	0.089
Mof_C 	C 	0.157	0.6451	0.6829	0.062
Mof_H 	H 	0.1995	0.636	0.6824	0.001
Mof_N 	N 	0.1857	0.7383	0.8546	-0.234
Mof_C 	C 	0.189	0.6889	0.8854	0.059
Mof_C 	C 	0.1854	0.6958	0.9393	-0.129
Mof_H 	H 	0.188	0.6611	0.9619	0.071
Mof_C 	C 	0.1781	0.7534	0.9609	0.058
Mof_H 	H 	0.1758	0.7581	0.9984	0.016
Mof_C 	C 	0.1741	0.8025	0.9297	-0.136
Mof_H 	H 	0.1688	0.8422	0.9443	0.088
Mof_C 	C 	0.1782	0.7937	0.8752	0.069
Mof_H 	H 	0.1755	0.8281	0.8522	0.002
Mof_Cu	Cu	0.80848	0.77536	0.77428	0.841
Mof_Br	Br	0.79768	0.66961	0.73768	-0.528
Mof_Se	Se	0.94688	0.74633	0.77534	-0.029
Mof_Se	Se	0.80129	0.88698	0.84848	-0.02
Mof_N 	N 	0.8644	0.8172	0.7217	-0.235
Mof_C 	C 	0.924	0.8031	0.7203	0.061
Mof_C 	C 	0.9639	0.8268	0.6825	-0.122
Mof_H 	H 	0.006	0.8161	0.6829	0.075
Mof_C 	C 	0.9409	0.8662	0.6443	0.045
Mof_H 	H 	0.9671	0.8834	0.6181	0.021
Mof_C 	C 	0.8788	0.8801	0.6451	-0.125
Mof_H 	H 	0.8618	0.907	0.6193	0.089
Mof_C 	C 	0.843	0.8549	0.6829	0.062
Mof_H 	H 	0.8005	0.864	0.6824	0.001
Mof_N 	N 	0.8143	0.7617	0.8546	-0.234
Mof_C 	C 	0.811	0.8111	0.8854	0.059
Mof_C 	C 	0.8146	0.8042	0.9393	-0.129
Mof_H 	H 	0.812	0.8389	0.9619	0.071
Mof_C 	C 	0.8219	0.7466	0.9609	0.058
Mof_H 	H 	0.8242	0.7419	0.9984	0.016
Mof_C 	C 	0.8259	0.6975	0.9297	-0.136
Mof_H 	H 	0.8312	0.6578	0.9443	0.088
Mof_C 	C 	0.8218	0.7063	0.8752	0.069
Mof_H 	H 	0.8245	0.6719	0.8522	0.002
Mof_Cu	Cu	0.30848	0.27536	0.27428	0.841
Mof_Br	Br	0.29768	0.16961	0.23768	-0.528
Mof_Se	Se	0.44688	0.24633	0.27534	-0.029
Mof_Se	Se	0.30129	0.38698	0.34848	-0.02
Mof_N 	N 	0.3644	0.3172	0.2217	-0.235
Mof_C 	C 	0.424	0.3031	0.2203	0.061
Mof_C 	C 	0.4639	0.3268	0.1825	-0.122
Mof_H 	H 	0.506	0.3161	0.1829	0.075
Mof_C 	C 	0.4409	0.3662	0.1443	0.045
Mof_H 	H 	0.4671	0.3834	0.1181	0.021
Mof_C 	C 	0.3788	0.3801	0.1451	-0.125
Mof_H 	H 	0.3618	0.407	0.1193	0.089
Mof_C 	C 	0.343	0.3549	0.1829	0.062
Mof_H 	H 	0.3005	0.364	0.1824	0.001
Mof_N 	N 	0.3143	0.2617	0.3546	-0.234
Mof_C 	C 	0.311	0.3111	0.3854	0.059
Mof_C 	C 	0.3146	0.3042	0.4393	-0.129
Mof_H 	H 	0.312	0.3389	0.4619	0.071
Mof_C 	C 	0.3219	0.2466	0.4609	0.058
Mof_H 	H 	0.3242	0.2419	0.4984	0.016
Mof_C 	C 	0.3259	0.1975	0.4297	-0.136
Mof_H 	H 	0.3312	0.1578	0.4443	0.088
Mof_C 	C 	0.3218	0.2063	0.3752	0.069
Mof_H 	H 	0.3245	0.1719	0.3522	0.002
Mof_Cu	Cu	0.52536	0.05848	0.47572	0.841
Mof_Br	Br	0.41961	0.04768	0.51232	-0.528
Mof_Se	Se	0.49633	0.19688	0.47466	-0.029
Mof_Se	Se	0.63698	0.05129	0.40152	-0.02
Mof_N 	N 	0.5672	0.1144	0.5283	-0.235
Mof_C 	C 	0.5531	0.174	0.5297	0.061
Mof_C 	C 	0.5768	0.2139	0.5675	-0.122
Mof_H 	H 	0.5661	0.256	0.5671	0.075
Mof_C 	C 	0.6162	0.1909	0.6057	0.045
Mof_H 	H 	0.6334	0.2171	0.6319	0.021
Mof_C 	C 	0.6301	0.1288	0.6049	-0.125
Mof_H 	H 	0.657	0.1118	0.6307	0.089
Mof_C 	C 	0.6049	0.093	0.5671	0.062
Mof_H 	H 	0.614	0.0505	0.5676	0.001
Mof_N 	N 	0.5117	0.0643	0.3954	-0.234
Mof_C 	C 	0.5611	0.061	0.3646	0.059
Mof_C 	C 	0.5542	0.0646	0.3107	-0.129
Mof_H 	H 	0.5889	0.062	0.2881	0.071
Mof_C 	C 	0.4966	0.0719	0.2891	0.058
Mof_H 	H 	0.4919	0.0742	0.2516	0.016
Mof_C 	C 	0.4475	0.0759	0.3203	-0.136
Mof_H 	H 	0.4078	0.0812	0.3057	0.088
Mof_C 	C 	0.4563	0.0718	0.3748	0.069
Mof_H 	H 	0.4219	0.0745	0.3978	0.002
Mof_Cu	Cu	0.02536	0.55848	0.97572	0.841
Mof_Br	Br	0.91961	0.54768	0.01232	-0.528
Mof_Se	Se	0.99633	0.69688	0.97466	-0.029
Mof_Se	Se	0.13698	0.55129	0.90152	-0.02
Mof_N 	N 	0.0672	0.6144	0.0283	-0.235
Mof_C 	C 	0.0531	0.674	0.0297	0.061
Mof_C 	C 	0.0768	0.7139	0.0675	-0.122
Mof_H 	H 	0.0661	0.756	0.0671	0.075
Mof_C 	C 	0.1162	0.6909	0.1057	0.045
Mof_H 	H 	0.1334	0.7171	0.1319	0.021
Mof_C 	C 	0.1301	0.6288	0.1049	-0.125
Mof_H 	H 	0.157	0.6118	0.1307	0.089
Mof_C 	C 	0.1049	0.593	0.0671	0.062
Mof_H 	H 	0.114	0.5505	0.0676	0.001
Mof_N 	N 	0.0117	0.5643	0.8954	-0.234
Mof_C 	C 	0.0611	0.561	0.8646	0.059
Mof_C 	C 	0.0542	0.5646	0.8107	-0.129
Mof_H 	H 	0.0889	0.562	0.7881	0.071
Mof_C 	C 	0.9966	0.5719	0.7891	0.059
Mof_H 	H 	0.9919	0.5742	0.7516	0.016
Mof_C 	C 	0.9475	0.5759	0.8203	-0.136
Mof_H 	H 	0.9078	0.5812	0.8057	0.088
Mof_C 	C 	0.9563	0.5718	0.8748	0.069
Mof_H 	H 	0.9219	0.5745	0.8978	0.002
Mof_Cu	Cu	0.97464	0.94152	0.97572	0.841
Mof_Br	Br	0.08039	0.95232	0.01232	-0.528
Mof_Se	Se	0.00367	0.80312	0.97466	-0.029
Mof_Se	Se	0.86302	0.94871	0.90152	-0.02
Mof_N 	N 	0.9328	0.8856	0.0283	-0.235
Mof_C 	C 	0.9469	0.826	0.0297	0.061
Mof_C 	C 	0.9232	0.7861	0.0675	-0.122
Mof_H 	H 	0.9339	0.744	0.0671	0.075
Mof_C 	C 	0.8838	0.8091	0.1057	0.045
Mof_H 	H 	0.8666	0.7829	0.1319	0.021
Mof_C 	C 	0.8699	0.8712	0.1049	-0.125
Mof_H 	H 	0.843	0.8882	0.1307	0.089
Mof_C 	C 	0.8951	0.907	0.0671	0.062
Mof_H 	H 	0.886	0.9495	0.0676	0.001
Mof_N 	N 	0.9883	0.9357	0.8954	-0.234
Mof_C 	C 	0.9389	0.939	0.8646	0.059
Mof_C 	C 	0.9458	0.9354	0.8107	-0.129
Mof_H 	H 	0.9111	0.938	0.7881	0.071
Mof_C 	C 	0.0034	0.9281	0.7891	0.059
Mof_H 	H 	0.0081	0.9258	0.7516	0.016
Mof_C 	C 	0.0525	0.9241	0.8203	-0.136
Mof_H 	H 	0.0922	0.9188	0.8057	0.088
Mof_C 	C 	0.0437	0.9282	0.8748	0.069
Mof_H 	H 	0.0781	0.9255	0.8978	0.002
Mof_Cu	Cu	0.47464	0.44152	0.47572	0.841
Mof_Br	Br	0.58039	0.45232	0.51232	-0.528
Mof_Se	Se	0.50367	0.30312	0.47466	-0.029
Mof_Se	Se	0.36302	0.44871	0.40152	-0.02
Mof_N 	N 	0.4328	0.3856	0.5283	-0.235
Mof_C 	C 	0.4469	0.326	0.5297	0.061
Mof_C 	C 	0.4232	0.2861	0.5675	-0.122
Mof_H 	H 	0.4339	0.244	0.5671	0.075
Mof_C 	C 	0.3838	0.3091	0.6057	0.045
Mof_H 	H 	0.3666	0.2829	0.6319	0.021
Mof_C 	C 	0.3699	0.3712	0.6049	-0.125
Mof_H 	H 	0.343	0.3882	0.6307	0.089
Mof_C 	C 	0.3951	0.407	0.5671	0.062
Mof_H 	H 	0.386	0.4495	0.5676	0.001
Mof_N 	N 	0.4883	0.4357	0.3954	-0.234
Mof_C 	C 	0.4389	0.439	0.3646	0.059
Mof_C 	C 	0.4458	0.4354	0.3107	-0.129
Mof_H 	H 	0.4111	0.438	0.2881	0.071
Mof_C 	C 	0.5034	0.4281	0.2891	0.058
Mof_H 	H 	0.5081	0.4258	0.2516	0.016
Mof_C 	C 	0.5525	0.4241	0.3203	-0.136
Mof_H 	H 	0.5922	0.4188	0.3057	0.088
Mof_C 	C 	0.5437	0.4282	0.3748	0.069
Mof_H 	H 	0.5781	0.4255	0.3978	0.002
_end
