data_functionalizedCrystal
_audit_creation_method	'EQeq! by Chris Wilmer'
_symmetry_space_group_name_H-M	'P1'
_symmetry_Int_Tables_number	1
_symmetry_cell_setting	triclinic
loop_
_symmetry_equiv_pos_as_xyz
  x,y,z
_cell_length_a	13.4664
_cell_length_b	14.4449
_cell_length_c	14.4449
_cell_angle_alpha	69.1974
_cell_angle_beta	71.8954
_cell_angle_gamma	108.105
loop_
_atom_site_label
_atom_site_type_symbol
_atom_site_fract_x
_atom_site_fract_y
_atom_site_fract_z
_atom_site_charge
Mof_Ga	Ga	0.1464	0.1739	0.3732	3.797
Mof_Ga	Ga	0.1925	0.8642	0.5432	3.046
Mof_Ga	Ga	0.5196	0.3732	0.4529	3.793
Mof_Ga	Ga	0.7357	0.5432	0.5926	3.05
Mof_Ga	Ga	0.9725	0.4529	0.1739	3.737
Mof_Ga	Ga	0.3283	0.5926	0.8642	3.037
Mof_Ga	Ga	0.8536	0.8261	0.6268	3.798
Mof_Ga	Ga	0.8075	0.1358	0.4568	3.047
Mof_Ga	Ga	0.4804	0.6268	0.5471	3.793
Mof_Ga	Ga	0.2643	0.4568	0.4074	3.05
Mof_Ga	Ga	0.0275	0.5471	0.8261	3.737
Mof_Ga	Ga	0.6717	0.4074	0.1358	3.037
Mof_P 	P 	0.0639	0.9466	0.3991	0.771
Mof_P 	P 	0.0616	0.3523	0.3335	0.953
Mof_P 	P 	0.463	0.3991	0.6543	0.774
Mof_P 	P 	0.3951	0.3335	0.3142	0.949
Mof_P 	P 	0.1173	0.6543	0.9466	0.757
Mof_P 	P 	0.7093	0.3142	0.3523	0.947
Mof_P 	P 	0.9361	0.0534	0.6009	0.771
Mof_P 	P 	0.9384	0.6477	0.6665	0.953
Mof_P 	P 	0.537	0.6009	0.3457	0.774
Mof_P 	P 	0.6049	0.6665	0.6858	0.949
Mof_P 	P 	0.8827	0.3457	0.0534	0.757
Mof_P 	P 	0.2907	0.6858	0.6477	0.947
Mof_H 	H 	0.3251	0.8474	0.3911	0.181
Mof_H 	H 	0.2557	0.8874	0.3498	0.132
Mof_H 	H 	0.3079	0.0823	0.4586	0.082
Mof_H 	H 	0.1119	0.8172	0.75	0.141
Mof_H 	H 	0.0496	0.8694	0.7014	0.103
Mof_H 	H 	0.4633	0.016	0.2672	0.02
Mof_H 	H 	0.3697	0.0675	0.2914	-0.008
Mof_H 	H 	0.3795	0.0935	0.5754	0.008
Mof_H 	H 	0.3536	0.9687	0.6255	0.012
Mof_H 	H 	0.4984	0.1135	0.3683	0.047
Mof_H 	H 	0.4571	0.9774	0.45	0.017
Mof_H 	H 	0.1957	0.9709	0.742	0.05
Mof_H 	H 	0.17	0.0353	0.6417	0.026
Mof_H 	H 	0.7162	0.3911	0.7615	0.181
Mof_H 	H 	0.6055	0.3498	0.7628	0.132
Mof_H 	H 	0.7665	0.4586	0.4591	0.082
Mof_H 	H 	0.8619	0.75	0.4328	0.144
Mof_H 	H 	0.751	0.7014	0.4292	0.108
Mof_H 	H 	0.7305	0.2672	0.7168	0.022
Mof_H 	H 	0.6611	0.2914	0.6411	-0.008
Mof_H 	H 	0.9549	0.5754	0.3311	0.012
Mof_H 	H 	0.9791	0.6255	0.4058	0.018
Mof_H 	H 	0.8667	0.3683	0.5182	0.048
Mof_H 	H 	0.9071	0.45	0.5726	0.018
Mof_H 	H 	0.9377	0.742	0.2871	0.046
Mof_H 	H 	0.8117	0.6417	0.323	0.019
Mof_H 	H 	0.4777	0.7615	0.8474	0.181
Mof_H 	H 	0.3683	0.7628	0.8874	0.13
Mof_H 	H 	0.2256	0.4591	0.0823	0.085
Mof_H 	H 	0.2947	0.4328	0.8172	0.142
Mof_H 	H 	0.1802	0.4292	0.8694	0.103
Mof_H 	H 	0.4473	0.7168	0.016	0.021
Mof_H 	H 	0.3022	0.6411	0.0675	-0.006
Mof_H 	H 	0.286	0.3311	0.0935	0.001
Mof_H 	H 	0.3849	0.4058	0.9687	0.002
Mof_H 	H 	0.3849	0.5182	0.1135	0.046
Mof_H 	H 	0.4797	0.5726	0.9774	0.014
Mof_H 	H 	0.2248	0.2871	0.9709	0.062
Mof_H 	H 	0.1347	0.323	0.0353	0.044
Mof_H 	H 	0.6749	0.1526	0.6089	0.181
Mof_H 	H 	0.7443	0.1126	0.6502	0.132
Mof_H 	H 	0.6921	0.9177	0.5414	0.082
Mof_H 	H 	0.8881	0.1828	0.25	0.141
Mof_H 	H 	0.9504	0.1306	0.2986	0.103
Mof_H 	H 	0.5367	0.984	0.7328	0.02
Mof_H 	H 	0.6303	0.9325	0.7086	-0.008
Mof_H 	H 	0.6205	0.9065	0.4246	0.008
Mof_H 	H 	0.6464	0.0313	0.3745	0.012
Mof_H 	H 	0.5016	0.8865	0.6317	0.047
Mof_H 	H 	0.5429	0.0226	0.55	0.017
Mof_H 	H 	0.8043	0.0291	0.258	0.05
Mof_H 	H 	0.83	0.9647	0.3583	0.026
Mof_H 	H 	0.2838	0.6089	0.2385	0.181
Mof_H 	H 	0.3945	0.6502	0.2372	0.132
Mof_H 	H 	0.2335	0.5414	0.5409	0.082
Mof_H 	H 	0.1381	0.25	0.5672	0.144
Mof_H 	H 	0.249	0.2986	0.5708	0.108
Mof_H 	H 	0.2695	0.7328	0.2832	0.022
Mof_H 	H 	0.3389	0.7086	0.3589	-0.008
Mof_H 	H 	0.0451	0.4246	0.6689	0.012
Mof_H 	H 	0.0209	0.3745	0.5942	0.018
Mof_H 	H 	0.1333	0.6317	0.4818	0.048
Mof_H 	H 	0.0929	0.55	0.4274	0.018
Mof_H 	H 	0.0623	0.258	0.7129	0.046
Mof_H 	H 	0.1883	0.3583	0.677	0.019
Mof_H 	H 	0.5223	0.2385	0.1526	0.181
Mof_H 	H 	0.6317	0.2372	0.1126	0.13
Mof_H 	H 	0.7744	0.5409	0.9177	0.085
Mof_H 	H 	0.7053	0.5672	0.1828	0.142
Mof_H 	H 	0.8198	0.5708	0.1306	0.103
Mof_H 	H 	0.5527	0.2832	0.984	0.021
Mof_H 	H 	0.6978	0.3589	0.9325	-0.006
Mof_H 	H 	0.714	0.6689	0.9065	0.001
Mof_H 	H 	0.6151	0.5942	0.0313	0.002
Mof_H 	H 	0.6151	0.4818	0.8865	0.046
Mof_H 	H 	0.5203	0.4274	0.0226	0.014
Mof_H 	H 	0.7752	0.7129	0.0291	0.062
Mof_H 	H 	0.8653	0.677	0.9647	0.044
Mof_C 	C 	0.3985	0.0101	0.3234	-0.042
Mof_C 	C 	0.4325	0.0395	0.4032	-0.088
Mof_C 	C 	0.3251	0.0199	0.593	-0.058
Mof_C 	C 	0.1996	0.9804	0.6735	-0.072
Mof_C 	C 	0.7219	0.3234	0.6665	-0.043
Mof_C 	C 	0.8357	0.4032	0.5573	-0.088
Mof_C 	C 	0.9181	0.593	0.3871	-0.076
Mof_C 	C 	0.8731	0.6735	0.3461	-0.054
Mof_C 	C 	0.3884	0.6665	0.0101	-0.04
Mof_C 	C 	0.393	0.5573	0.0395	-0.084
Mof_C 	C 	0.3052	0.3871	0.0199	-0.032
Mof_C 	C 	0.2192	0.3461	0.9804	-0.107
Mof_C 	C 	0.6015	0.9899	0.6766	-0.042
Mof_C 	C 	0.5675	0.9605	0.5968	-0.088
Mof_C 	C 	0.6749	0.9801	0.407	-0.058
Mof_C 	C 	0.8004	0.0196	0.3265	-0.072
Mof_C 	C 	0.2781	0.6766	0.3335	-0.043
Mof_C 	C 	0.1643	0.5968	0.4427	-0.088
Mof_C 	C 	0.0819	0.407	0.6129	-0.076
Mof_C 	C 	0.1269	0.3265	0.6539	-0.054
Mof_C 	C 	0.6116	0.3335	0.9899	-0.04
Mof_C 	C 	0.607	0.4427	0.9605	-0.084
Mof_C 	C 	0.6948	0.6129	0.9801	-0.032
Mof_C 	C 	0.7808	0.6539	0.0196	-0.107
Mof_N 	N 	0.2997	0.8937	0.387	-0.589
Mof_N 	N 	0.3251	0.0191	0.492	-0.433
Mof_N 	N 	0.1218	0.8727	0.687	-0.569
Mof_N 	N 	0.6867	0.387	0.7193	-0.589
Mof_N 	N 	0.8171	0.492	0.4889	-0.432
Mof_N 	N 	0.8088	0.687	0.4403	-0.573
Mof_N 	N 	0.406	0.7193	0.8937	-0.589
Mof_N 	N 	0.306	0.4889	0.0191	-0.435
Mof_N 	N 	0.2491	0.4403	0.8727	-0.565
Mof_N 	N 	0.7003	0.1063	0.613	-0.589
Mof_N 	N 	0.6749	0.9809	0.508	-0.433
Mof_N 	N 	0.8782	0.1273	0.313	-0.569
Mof_N 	N 	0.3133	0.613	0.2807	-0.589
Mof_N 	N 	0.1829	0.508	0.5111	-0.432
Mof_N 	N 	0.1912	0.313	0.5597	-0.573
Mof_N 	N 	0.594	0.2807	0.1063	-0.589
Mof_N 	N 	0.694	0.5111	0.9809	-0.435
Mof_N 	N 	0.7509	0.5597	0.1273	-0.565
Mof_O 	O 	0.1195	0.9466	0.4768	-1.014
Mof_O 	O 	0.0906	0.0712	0.332	-1.049
Mof_O 	O 	0.9261	0.8736	0.4761	-1.085
Mof_O 	O 	0.1067	0.9055	0.322	-0.34
Mof_O 	O 	0.1181	0.2855	0.2949	-1.123
Mof_O 	O 	0.0815	0.4481	0.2244	-1.061
Mof_O 	O 	0.1182	0.4015	0.3914	-0.85
Mof_O 	O 	0.9284	0.2785	0.4103	-0.983
Mof_O 	O 	0.5963	0.4768	0.5766	-1.013
Mof_O 	O 	0.4226	0.332	0.5968	-1.054
Mof_O 	O 	0.4022	0.4761	0.6503	-1.086
Mof_O 	O 	0.4287	0.322	0.7725	-0.343
Mof_O 	O 	0.413	0.2949	0.4196	-1.125
Mof_O 	O 	0.3059	0.2244	0.3275	-1.078
Mof_O 	O 	0.5096	0.3914	0.2071	-0.849
Mof_O 	O 	0.3387	0.4103	0.3112	-0.981
Mof_O 	O 	0.1729	0.5766	0.9466	-1.011
Mof_O 	O 	0.0194	0.5968	0.0712	-1.023
Mof_O 	O 	0.0525	0.6503	0.8736	-1.079
Mof_O 	O 	0.2012	0.7725	0.9055	-0.345
Mof_O 	O 	0.8326	0.4196	0.2855	-1.116
Mof_O 	O 	0.6334	0.3275	0.4481	-1.077
Mof_O 	O 	0.7167	0.2071	0.4015	-0.849
Mof_O 	O 	0.6499	0.3112	0.2785	-0.978
Mof_O 	O 	0.8805	0.0534	0.5232	-1.014
Mof_O 	O 	0.9094	0.9288	0.668	-1.049
Mof_O 	O 	0.0739	0.1264	0.5239	-1.085
Mof_O 	O 	0.8933	0.0945	0.678	-0.34
Mof_O 	O 	0.8819	0.7145	0.7051	-1.123
Mof_O 	O 	0.9185	0.5519	0.7756	-1.061
Mof_O 	O 	0.8818	0.5985	0.6086	-0.85
Mof_O 	O 	0.0716	0.7215	0.5897	-0.983
Mof_O 	O 	0.4037	0.5232	0.4234	-1.013
Mof_O 	O 	0.5774	0.668	0.4032	-1.054
Mof_O 	O 	0.5978	0.5239	0.3497	-1.086
Mof_O 	O 	0.5713	0.678	0.2275	-0.343
Mof_O 	O 	0.587	0.7051	0.5804	-1.125
Mof_O 	O 	0.6941	0.7756	0.6725	-1.078
Mof_O 	O 	0.4904	0.6086	0.7929	-0.849
Mof_O 	O 	0.6613	0.5897	0.6888	-0.981
Mof_O 	O 	0.8271	0.4234	0.0534	-1.011
Mof_O 	O 	0.9806	0.4032	0.9288	-1.023
Mof_O 	O 	0.9475	0.3497	0.1264	-1.079
Mof_O 	O 	0.7988	0.2275	0.0945	-0.345
Mof_O 	O 	0.1674	0.5804	0.7145	-1.116
Mof_O 	O 	0.3666	0.6725	0.5519	-1.077
Mof_O 	O 	0.2833	0.7929	0.5985	-0.849
Mof_O 	O 	0.3501	0.6888	0.7215	-0.978
_end
