data_functionalizedCrystal
_audit_creation_method	'EQeq! by Chris Wilmer'
_symmetry_space_group_name_H-M	'P1'
_symmetry_Int_Tables_number	1
_symmetry_cell_setting	triclinic
loop_
_symmetry_equiv_pos_as_xyz
  x,y,z
_cell_length_a	46.403
_cell_length_b	11.125
_cell_length_c	24.144
_cell_angle_alpha	90
_cell_angle_beta	98.48
_cell_angle_gamma	90
loop_
_atom_site_label
_atom_site_type_symbol
_atom_site_fract_x
_atom_site_fract_y
_atom_site_fract_z
_atom_site_charge
Mof_Cd	Cd	0.98699	0.66034	0.43905	0.434
Mof_Cd	Cd	0.28189	0.86594	0.42035	0.474
Mof_O 	O 	0.12927	0.5278	0.2658	-0.345
Mof_O 	O 	0.89923	0.2076	0.1107	-0.251
Mof_O 	O 	0.00358	0.456	0.3353	-0.264
Mof_C 	C 	0.07761	0.7649	0.5751	0.088
Mof_O 	O 	0.87033	0.9296	0.0995	-0.271
Mof_O 	O 	0.01787	0.8302	0.463	-0.27
Mof_O 	O 	0.84644	0.1092	0.2339	-0.264
Mof_O 	O 	0.02673	0.6648	0.5121	-0.269
Mof_O 	O 	0.91433	0.0078	0.2583	-0.253
Mof_C 	C 	0.06177	0.8256	0.5298	-0.127
Mof_O 	O 	0.23715	0.8547	0.3615	-0.277
Mof_C 	C 	0.154	0.5845	0.2958	0.37
Mof_N 	N 	0.95895	0.782	0.3762	-0.184
Mof_C 	C 	0.20362	0.693	0.3487	-0.25
Mof_C 	C 	0.90917	0.3162	0.0318	-0.296
Mof_H 	H 	0.8897	0.3389	0.0245	0.151
Mof_C 	C 	0.1951	0.5844	0.3645	0.23
Mof_H 	H 	0.2067	0.545	0.3937	-0.023
Mof_C 	C 	0.10384	0.5283	0.2904	0.362
Mof_C 	C 	0.05162	0.5228	0.3303	-0.222
Mof_C 	C 	0.10143	0.5887	0.3379	-0.368
Mof_H 	H 	0.1172	0.6301	0.3571	0.168
Mof_C 	C 	0.05542	0.4614	0.2823	0.215
Mof_H 	H 	0.0401	0.4167	0.2635	-0.016
Mof_N 	N 	0.80274	0.2833	0.3465	-0.184
Mof_C 	C 	0.93983	0.7382	0.3339	0.163
Mof_H 	H 	0.9372	0.6554	0.3323	-0.019
Mof_C 	C 	0.06948	0.9376	0.5122	0.091
Mof_N 	N 	0.95653	0.3225	0.0062	-0.185
Mof_O 	O 	0.24676	0.6965	0.4158	-0.284
Mof_C 	C 	0.07508	0.5876	0.3571	0.219
Mof_H 	H 	0.0729	0.6315	0.389	-0.025
Mof_C 	C 	0.86898	0.165	0.2092	0.033
Mof_H 	H 	0.8834	0.1992	0.238	0.04
Mof_H 	H 	0.861	0.2291	0.1843	0.036
Mof_C 	C 	0.94711	0.9783	0.3388	-0.285
Mof_H 	H 	0.9499	0.0609	0.3419	0.149
Mof_C 	C 	0.85146	0.8713	0.0625	0.341
Mof_O 	O 	0.02108	0.6078	0.3888	-0.291
Mof_C 	C 	0.92818	0.9302	0.2956	0.307
Mof_C 	C 	0.1617	0.6928	0.2769	-0.36
Mof_H 	H 	0.1508	0.73	0.2463	0.166
Mof_C 	C 	0.92399	0.8056	0.2931	-0.291
Mof_H 	H 	0.911	0.7703	0.2648	0.139
Mof_C 	C 	0.90927	0.1183	0.1521	0.014
Mof_H 	H 	0.9229	0.1541	0.1818	0.045
Mof_H 	H 	0.9192	0.0543	0.1352	0.046
Mof_C 	C 	0.91892	0.2455	0.0787	0.303
Mof_C 	C 	0.88307	0.0675	0.176	0.008
Mof_C 	C 	0.94817	0.218	0.0893	-0.288
Mof_H 	H 	0.9558	0.1726	0.1203	0.144
Mof_C 	C 	0.1696	0.5283	0.3391	-0.37
Mof_H 	H 	0.1637	0.4547	0.3518	0.174
Mof_C 	C 	0.08114	0.465	0.262	-0.346
Mof_H 	H 	0.0833	0.4249	0.229	0.166
Mof_C 	C 	0.86151	0.7787	0.0344	-0.329
Mof_H 	H 	0.881	0.7569	0.0418	0.161
Mof_C 	C 	0.83274	0.1696	0.2692	0.337
Mof_C 	C 	0.85893	0.0239	0.1295	0.028
Mof_H 	H 	0.8423	0.9952	0.1458	0.041
Mof_H 	H 	0.8525	0.0897	0.1043	0.043
Mof_C 	C 	0.8218	0.3402	0.322	0.181
Mof_H 	H 	0.8255	0.4202	0.3317	-0.005
Mof_C 	C 	0.96585	0.26	0.0523	0.168
Mof_H 	H 	0.9857	0.2435	0.0602	-0.006
Mof_C 	C 	0.1867	0.7457	0.3054	0.228
Mof_H 	H 	0.1919	0.8215	0.2941	-0.028
Mof_C 	C 	0.96194	0.9004	0.3777	0.161
Mof_H 	H 	0.9749	0.9334	0.4068	-0.002
Mof_C 	C 	0.89397	0.9632	0.2129	0.022
Mof_H 	H 	0.8778	0.9243	0.227	0.045
Mof_H 	H 	0.9033	0.9046	0.1916	0.041
Mof_C 	C 	0.03319	0.7709	0.4991	0.32
Mof_N 	N 	0.81447	0.74	0.9838	-0.189
Mof_C 	C 	0.84298	0.7171	0.9951	0.187
Mof_H 	H 	0.8506	0.6562	0.9752	-0.011
Mof_C 	C 	0.92757	0.3515	0.9975	0.171
Mof_H 	H 	0.9204	0.3977	0.9664	-0.024
Mof_C 	C 	0.02284	0.5274	0.3532	0.375
Mof_C 	C 	0.8122	0.1092	0.2939	-0.296
Mof_H 	H 	0.8081	0.0289	0.2855	0.161
Mof_C 	C 	0.83716	0.29	0.2818	-0.309
Mof_H 	H 	0.8499	0.3361	0.2642	0.157
Mof_C 	C 	0.82212	0.8981	0.0511	-0.323
Mof_H 	H 	0.8142	0.9603	0.0697	0.155
Mof_C 	C 	0.7978	0.1697	0.3312	0.181
Mof_H 	H 	0.7837	0.128	0.3469	-0.015
Mof_C 	C 	0.80503	0.831	0.0118	0.18
Mof_H 	H 	0.7854	0.8505	0.0041	-0.014
Mof_C 	C 	0.23061	0.7509	0.3773	0.355
Mof_C 	C 	0.0909	0.003	0.5471	-0.087
Mof_H 	H 	0.0949	0.0832	0.5398	0.051
Mof_C 	C 	0.1054	0.944	0.592	0.116
Mof_C 	C 	0.0988	0.8324	0.6089	-0.085
Mof_H 	H 	0.1082	0.801	0.6424	0.075
Mof_C 	C 	0.1929	0.3762	0.5583	0.025
Mof_C 	C 	0.1756	0.2799	0.5742	-0.244
Mof_C 	C 	0.158	0.3006	0.6148	0.208
Mof_H 	H 	0.1572	0.3765	0.6307	-0.047
Mof_C 	C 	0.1414	0.2073	0.6314	-0.297
Mof_H 	H 	0.1292	0.2203	0.6581	0.131
Mof_C 	C 	0.1432	0.0953	0.6081	0.154
Mof_C 	C 	0.1602	0.0743	0.567	0.063
Mof_H 	H 	0.1609	0.9984	0.551	0.047
Mof_C 	C 	0.1764	0.1685	0.5497	0.009
Mof_H 	H 	0.1878	0.1563	0.5216	0.038
Mof_O 	O 	0.128	0.9998	0.6274	-0.178
Mof_O 	O 	0.1944	0.4779	0.5886	-0.309
Mof_O 	O 	0.2077	0.3661	0.5132	-0.133
Mof_C 	C 	0.0991	0.972	0.5351	-0.091
Mof_H 	H 	0.1072	0.0397	0.5206	0.067
Mof_C 	C 	0.115	0.909	0.577	0.094
Mof_C 	C 	0.1061	0.802	0.5928	-0.099
Mof_H 	H 	0.119	0.752	0.6154	0.069
Mof_C 	C 	0.1865	0.4002	0.5902	0.445
Mof_C 	C 	0.1754	0.2836	0.5942	0.012
Mof_C 	C 	0.1476	0.2686	0.6064	-0.088
Mof_H 	H 	0.1365	0.3351	0.6135	0.042
Mof_C 	C 	0.1361	0.1546	0.608	0.108
Mof_H 	H 	0.1172	0.1439	0.6157	0.019
Mof_C 	C 	0.1528	0.0562	0.598	-0.067
Mof_C 	C 	0.1805	0.0704	0.584	-0.192
Mof_H 	H 	0.191	0.0039	0.5749	0.104
Mof_C 	C 	0.1922	0.1836	0.5838	0.118
Mof_H 	H 	0.2112	0.1939	0.5768	0.013
Mof_O 	O 	0.1423	0.9405	0.6039	-0.126
Mof_O 	O 	0.2154	0.424	0.5956	-0.141
Mof_O 	O 	0.1697	0.4994	0.5782	-0.157
Mof_Cd	Cd	0.48699	0.16034	0.43905	0.433
Mof_Cd	Cd	0.78189	0.36594	0.42035	0.473
Mof_O 	O 	0.62927	0.0278	0.2658	-0.346
Mof_O 	O 	0.39923	0.7076	0.1107	-0.253
Mof_O 	O 	0.50358	0.956	0.3353	-0.265
Mof_C 	C 	0.57761	0.2649	0.5751	0.087
Mof_O 	O 	0.37033	0.4296	0.0995	-0.272
Mof_O 	O 	0.51787	0.3302	0.463	-0.271
Mof_O 	O 	0.34644	0.6092	0.2339	-0.265
Mof_O 	O 	0.52673	0.1648	0.5121	-0.27
Mof_O 	O 	0.41433	0.5078	0.2583	-0.254
Mof_C 	C 	0.56177	0.3256	0.5298	-0.128
Mof_O 	O 	0.73715	0.3547	0.3615	-0.278
Mof_C 	C 	0.654	0.0845	0.2958	0.369
Mof_N 	N 	0.45895	0.282	0.3762	-0.185
Mof_C 	C 	0.70362	0.193	0.3487	-0.251
Mof_C 	C 	0.40917	0.8162	0.0318	-0.298
Mof_H 	H 	0.3897	0.8389	0.0245	0.151
Mof_C 	C 	0.6951	0.0844	0.3645	0.23
Mof_H 	H 	0.7067	0.045	0.3937	-0.023
Mof_C 	C 	0.60384	0.0283	0.2904	0.363
Mof_C 	C 	0.55162	0.0228	0.3303	-0.222
Mof_C 	C 	0.60143	0.0887	0.3379	-0.368
Mof_H 	H 	0.6172	0.1301	0.3571	0.168
Mof_C 	C 	0.55542	0.9614	0.2823	0.215
Mof_H 	H 	0.5401	0.9167	0.2635	-0.016
Mof_N 	N 	0.30274	0.7833	0.3465	-0.184
Mof_C 	C 	0.43983	0.2382	0.3339	0.163
Mof_H 	H 	0.4372	0.1554	0.3323	-0.019
Mof_C 	C 	0.56948	0.4376	0.5122	0.092
Mof_N 	N 	0.45653	0.8225	0.0062	-0.186
Mof_O 	O 	0.74676	0.1965	0.4158	-0.284
Mof_C 	C 	0.57508	0.0876	0.3571	0.219
Mof_H 	H 	0.5729	0.1315	0.389	-0.025
Mof_C 	C 	0.36898	0.665	0.2092	0.033
Mof_H 	H 	0.3834	0.6992	0.238	0.04
Mof_H 	H 	0.361	0.7291	0.1843	0.036
Mof_C 	C 	0.44711	0.4783	0.3388	-0.284
Mof_H 	H 	0.4499	0.5609	0.3419	0.149
Mof_C 	C 	0.35146	0.3713	0.0625	0.34
Mof_O 	O 	0.52108	0.1078	0.3888	-0.291
Mof_C 	C 	0.42818	0.4302	0.2956	0.307
Mof_C 	C 	0.6617	0.1928	0.2769	-0.36
Mof_H 	H 	0.6508	0.23	0.2463	0.166
Mof_C 	C 	0.42399	0.3056	0.2931	-0.292
Mof_H 	H 	0.411	0.2703	0.2648	0.139
Mof_C 	C 	0.40927	0.6183	0.1521	0.015
Mof_H 	H 	0.4229	0.6541	0.1818	0.045
Mof_H 	H 	0.4192	0.5543	0.1352	0.046
Mof_C 	C 	0.41892	0.7455	0.0787	0.304
Mof_C 	C 	0.38307	0.5675	0.176	0.007
Mof_C 	C 	0.44817	0.718	0.0893	-0.288
Mof_H 	H 	0.4558	0.6726	0.1203	0.144
Mof_C 	C 	0.6696	0.0283	0.3391	-0.369
Mof_H 	H 	0.6637	0.9547	0.3518	0.174
Mof_C 	C 	0.58114	0.965	0.262	-0.347
Mof_H 	H 	0.5833	0.9249	0.229	0.166
Mof_C 	C 	0.36151	0.2787	0.0344	-0.328
Mof_H 	H 	0.381	0.2569	0.0418	0.161
Mof_C 	C 	0.33274	0.6696	0.2692	0.337
Mof_C 	C 	0.35893	0.5239	0.1295	0.027
Mof_H 	H 	0.3423	0.4952	0.1458	0.042
Mof_H 	H 	0.3525	0.5897	0.1043	0.044
Mof_C 	C 	0.3218	0.8402	0.322	0.181
Mof_H 	H 	0.3255	0.9202	0.3317	-0.005
Mof_C 	C 	0.46585	0.76	0.0523	0.168
Mof_H 	H 	0.4857	0.7435	0.0602	-0.006
Mof_C 	C 	0.6867	0.2457	0.3054	0.228
Mof_H 	H 	0.6919	0.3215	0.2941	-0.028
Mof_C 	C 	0.46194	0.4004	0.3777	0.16
Mof_H 	H 	0.4749	0.4334	0.4068	-0.002
Mof_C 	C 	0.39397	0.4632	0.2129	0.023
Mof_H 	H 	0.3778	0.4243	0.227	0.045
Mof_H 	H 	0.4033	0.4046	0.1916	0.041
Mof_C 	C 	0.53319	0.2709	0.4991	0.32
Mof_N 	N 	0.31447	0.24	0.9838	-0.189
Mof_C 	C 	0.34298	0.2171	0.9951	0.186
Mof_H 	H 	0.3506	0.1562	0.9752	-0.011
Mof_C 	C 	0.42757	0.8515	0.9975	0.173
Mof_H 	H 	0.4204	0.8977	0.9664	-0.025
Mof_C 	C 	0.52284	0.0274	0.3532	0.376
Mof_C 	C 	0.3122	0.6092	0.2939	-0.296
Mof_H 	H 	0.3081	0.5289	0.2855	0.161
Mof_C 	C 	0.33716	0.79	0.2818	-0.309
Mof_H 	H 	0.3499	0.8361	0.2642	0.157
Mof_C 	C 	0.32212	0.3981	0.0511	-0.322
Mof_H 	H 	0.3142	0.4603	0.0697	0.155
Mof_C 	C 	0.2978	0.6697	0.3312	0.181
Mof_H 	H 	0.2837	0.628	0.3469	-0.015
Mof_C 	C 	0.30503	0.331	0.0118	0.181
Mof_H 	H 	0.2854	0.3505	0.0041	-0.014
Mof_C 	C 	0.73061	0.2509	0.3773	0.355
Mof_C 	C 	0.5909	0.503	0.5471	-0.088
Mof_H 	H 	0.5949	0.5832	0.5398	0.051
Mof_C 	C 	0.6054	0.444	0.592	0.116
Mof_C 	C 	0.5988	0.3324	0.6089	-0.084
Mof_H 	H 	0.6082	0.301	0.6424	0.075
Mof_C 	C 	0.6929	0.8762	0.5583	0.025
Mof_C 	C 	0.6756	0.7799	0.5742	-0.244
Mof_C 	C 	0.658	0.8006	0.6148	0.209
Mof_H 	H 	0.6572	0.8765	0.6307	-0.047
Mof_C 	C 	0.6414	0.7073	0.6314	-0.298
Mof_H 	H 	0.6292	0.7203	0.6581	0.131
Mof_C 	C 	0.6432	0.5953	0.6081	0.154
Mof_C 	C 	0.6602	0.5743	0.567	0.063
Mof_H 	H 	0.6609	0.4984	0.551	0.047
Mof_C 	C 	0.6764	0.6685	0.5497	0.009
Mof_H 	H 	0.6878	0.6563	0.5216	0.038
Mof_O 	O 	0.628	0.4998	0.6274	-0.178
Mof_O 	O 	0.6944	0.9779	0.5886	-0.309
Mof_O 	O 	0.7077	0.8661	0.5132	-0.133
Mof_C 	C 	0.5991	0.472	0.5351	-0.091
Mof_H 	H 	0.6072	0.5397	0.5206	0.067
Mof_C 	C 	0.615	0.409	0.577	0.094
Mof_C 	C 	0.6061	0.302	0.5928	-0.099
Mof_H 	H 	0.619	0.252	0.6154	0.069
Mof_C 	C 	0.6865	0.9002	0.5902	0.445
Mof_C 	C 	0.6754	0.7836	0.5942	0.012
Mof_C 	C 	0.6476	0.7686	0.6064	-0.088
Mof_H 	H 	0.6365	0.8351	0.6135	0.042
Mof_C 	C 	0.6361	0.6546	0.608	0.108
Mof_H 	H 	0.6172	0.6439	0.6157	0.019
Mof_C 	C 	0.6528	0.5562	0.598	-0.067
Mof_C 	C 	0.6805	0.5704	0.584	-0.192
Mof_H 	H 	0.691	0.5039	0.5749	0.104
Mof_C 	C 	0.6922	0.6836	0.5838	0.118
Mof_H 	H 	0.7112	0.6939	0.5768	0.013
Mof_O 	O 	0.6423	0.4405	0.6039	-0.126
Mof_O 	O 	0.7154	0.924	0.5956	-0.141
Mof_O 	O 	0.6697	0.9994	0.5782	-0.157
Mof_Cd	Cd	0.01301	0.66034	0.06095	0.433
Mof_Cd	Cd	0.71811	0.86594	0.07965	0.473
Mof_O 	O 	0.87073	0.5278	0.2342	-0.346
Mof_O 	O 	0.10077	0.2076	0.3893	-0.252
Mof_O 	O 	0.99642	0.456	0.1647	-0.265
Mof_C 	C 	0.92239	0.7649	0.9249	0.087
Mof_O 	O 	0.12967	0.9296	0.4005	-0.272
Mof_O 	O 	0.98213	0.8302	0.037	-0.271
Mof_O 	O 	0.15356	0.1092	0.2661	-0.265
Mof_O 	O 	0.97327	0.6648	0.9879	-0.27
Mof_O 	O 	0.08567	0.0078	0.2417	-0.254
Mof_C 	C 	0.93823	0.8256	0.9702	-0.127
Mof_O 	O 	0.76285	0.8547	0.1385	-0.278
Mof_C 	C 	0.846	0.5845	0.2042	0.369
Mof_N 	N 	0.04105	0.782	0.1238	-0.186
Mof_C 	C 	0.79638	0.693	0.1513	-0.251
Mof_C 	C 	0.09083	0.3162	0.4682	-0.297
Mof_H 	H 	0.1103	0.3389	0.4755	0.151
Mof_C 	C 	0.8049	0.5844	0.1355	0.23
Mof_H 	H 	0.7933	0.545	0.1063	-0.023
Mof_C 	C 	0.89616	0.5283	0.2096	0.362
Mof_C 	C 	0.94838	0.5228	0.1697	-0.222
Mof_C 	C 	0.89857	0.5887	0.1621	-0.368
Mof_H 	H 	0.8828	0.6301	0.1429	0.168
Mof_C 	C 	0.94458	0.4614	0.2177	0.215
Mof_H 	H 	0.9599	0.4167	0.2365	-0.016
Mof_N 	N 	0.19726	0.2833	0.1535	-0.184
Mof_C 	C 	0.06017	0.7382	0.1661	0.163
Mof_H 	H 	0.0628	0.6554	0.1677	-0.019
Mof_C 	C 	0.93052	0.9376	0.9878	0.092
Mof_N 	N 	0.04347	0.3225	0.4938	-0.185
Mof_O 	O 	0.75324	0.6965	0.0842	-0.284
Mof_C 	C 	0.92492	0.5876	0.1429	0.219
Mof_H 	H 	0.9271	0.6315	0.111	-0.025
Mof_C 	C 	0.13102	0.165	0.2908	0.033
Mof_H 	H 	0.1166	0.1992	0.262	0.04
Mof_H 	H 	0.139	0.2291	0.3157	0.036
Mof_C 	C 	0.05289	0.9783	0.1612	-0.285
Mof_H 	H 	0.0501	0.0609	0.1581	0.149
Mof_C 	C 	0.14854	0.8713	0.4375	0.34
Mof_O 	O 	0.97892	0.6078	0.1112	-0.291
Mof_C 	C 	0.07182	0.9302	0.2044	0.307
Mof_C 	C 	0.8383	0.6928	0.2231	-0.36
Mof_H 	H 	0.8492	0.73	0.2537	0.166
Mof_C 	C 	0.07601	0.8056	0.2069	-0.292
Mof_H 	H 	0.089	0.7703	0.2352	0.139
Mof_C 	C 	0.09073	0.1183	0.3479	0.014
Mof_H 	H 	0.0771	0.1541	0.3182	0.045
Mof_H 	H 	0.0808	0.0543	0.3648	0.046
Mof_C 	C 	0.08108	0.2455	0.4213	0.303
Mof_C 	C 	0.11693	0.0675	0.324	0.008
Mof_C 	C 	0.05183	0.218	0.4107	-0.288
Mof_H 	H 	0.0442	0.1726	0.3797	0.144
Mof_C 	C 	0.8304	0.5283	0.1609	-0.37
Mof_H 	H 	0.8363	0.4547	0.1482	0.174
Mof_C 	C 	0.91886	0.465	0.238	-0.346
Mof_H 	H 	0.9167	0.4249	0.271	0.166
Mof_C 	C 	0.13849	0.7787	0.4656	-0.328
Mof_H 	H 	0.119	0.7569	0.4582	0.161
Mof_C 	C 	0.16726	0.1696	0.2308	0.337
Mof_C 	C 	0.14107	0.0239	0.3705	0.027
Mof_H 	H 	0.1577	0.9952	0.3542	0.041
Mof_H 	H 	0.1475	0.0897	0.3957	0.044
Mof_C 	C 	0.1782	0.3402	0.178	0.181
Mof_H 	H 	0.1745	0.4202	0.1683	-0.005
Mof_C 	C 	0.03415	0.26	0.4477	0.168
Mof_H 	H 	0.0143	0.2435	0.4398	-0.006
Mof_C 	C 	0.8133	0.7457	0.1946	0.228
Mof_H 	H 	0.8081	0.8215	0.2059	-0.028
Mof_C 	C 	0.03806	0.9004	0.1223	0.161
Mof_H 	H 	0.0251	0.9334	0.0932	-0.003
Mof_C 	C 	0.10603	0.9632	0.2871	0.022
Mof_H 	H 	0.1222	0.9243	0.273	0.045
Mof_H 	H 	0.0967	0.9046	0.3084	0.041
Mof_C 	C 	0.96681	0.7709	0.0009	0.32
Mof_N 	N 	0.18553	0.74	0.5162	-0.189
Mof_C 	C 	0.15702	0.7171	0.5049	0.186
Mof_H 	H 	0.1494	0.6562	0.5248	-0.011
Mof_C 	C 	0.07243	0.3515	0.5025	0.172
Mof_H 	H 	0.0796	0.3977	0.5336	-0.024
Mof_C 	C 	0.97716	0.5274	0.1468	0.375
Mof_C 	C 	0.1878	0.1092	0.2061	-0.296
Mof_H 	H 	0.1919	0.0289	0.2145	0.161
Mof_C 	C 	0.16284	0.29	0.2182	-0.309
Mof_H 	H 	0.1501	0.3361	0.2358	0.157
Mof_C 	C 	0.17788	0.8981	0.4489	-0.322
Mof_H 	H 	0.1858	0.9603	0.4303	0.155
Mof_C 	C 	0.2022	0.1697	0.1688	0.181
Mof_H 	H 	0.2163	0.128	0.1531	-0.015
Mof_C 	C 	0.19497	0.831	0.4882	0.18
Mof_H 	H 	0.2146	0.8505	0.4959	-0.014
Mof_C 	C 	0.76939	0.7509	0.1227	0.355
Mof_C 	C 	0.9091	0.003	0.9529	-0.086
Mof_H 	H 	0.9051	0.0832	0.9602	0.051
Mof_C 	C 	0.8946	0.944	0.908	0.115
Mof_C 	C 	0.9012	0.8324	0.8911	-0.086
Mof_H 	H 	0.8918	0.801	0.8576	0.075
Mof_C 	C 	0.8071	0.3762	0.9417	0.025
Mof_C 	C 	0.8244	0.2799	0.9258	-0.244
Mof_C 	C 	0.842	0.3006	0.8852	0.208
Mof_H 	H 	0.8428	0.3765	0.8693	-0.046
Mof_C 	C 	0.8586	0.2073	0.8686	-0.297
Mof_H 	H 	0.8708	0.2203	0.8419	0.131
Mof_C 	C 	0.8568	0.0953	0.8919	0.153
Mof_C 	C 	0.8398	0.0743	0.933	0.064
Mof_H 	H 	0.8391	0.9984	0.949	0.047
Mof_C 	C 	0.8236	0.1685	0.9503	0.008
Mof_H 	H 	0.8122	0.1563	0.9784	0.038
Mof_O 	O 	0.872	0.9998	0.8726	-0.178
Mof_O 	O 	0.8056	0.4779	0.9114	-0.309
Mof_O 	O 	0.7923	0.3661	0.9868	-0.133
Mof_C 	C 	0.9009	0.972	0.9649	-0.092
Mof_H 	H 	0.8928	0.0397	0.9794	0.067
Mof_C 	C 	0.885	0.909	0.923	0.096
Mof_C 	C 	0.8939	0.802	0.9072	-0.098
Mof_H 	H 	0.881	0.752	0.8846	0.069
Mof_C 	C 	0.8135	0.4002	0.9098	0.445
Mof_C 	C 	0.8246	0.2836	0.9058	0.012
Mof_C 	C 	0.8524	0.2686	0.8936	-0.088
Mof_H 	H 	0.8635	0.3351	0.8865	0.042
Mof_C 	C 	0.8639	0.1546	0.892	0.108
Mof_H 	H 	0.8828	0.1439	0.8843	0.019
Mof_C 	C 	0.8472	0.0562	0.902	-0.066
Mof_C 	C 	0.8195	0.0704	0.916	-0.193
Mof_H 	H 	0.809	0.0039	0.9251	0.104
Mof_C 	C 	0.8078	0.1836	0.9162	0.119
Mof_H 	H 	0.7888	0.1939	0.9232	0.013
Mof_O 	O 	0.8577	0.9405	0.8961	-0.126
Mof_O 	O 	0.7846	0.424	0.9044	-0.141
Mof_O 	O 	0.8303	0.4994	0.9218	-0.157
Mof_Cd	Cd	0.51301	0.16034	0.06095	0.433
Mof_Cd	Cd	0.21811	0.36594	0.07965	0.473
Mof_O 	O 	0.37073	0.0278	0.2342	-0.346
Mof_O 	O 	0.60077	0.7076	0.3893	-0.252
Mof_O 	O 	0.49642	0.956	0.1647	-0.265
Mof_C 	C 	0.42239	0.2649	0.9249	0.087
Mof_O 	O 	0.62967	0.4296	0.4005	-0.272
Mof_O 	O 	0.48213	0.3302	0.037	-0.271
Mof_O 	O 	0.65356	0.6092	0.2661	-0.265
Mof_O 	O 	0.47327	0.1648	0.9879	-0.27
Mof_O 	O 	0.58567	0.5078	0.2417	-0.254
Mof_C 	C 	0.43823	0.3256	0.9702	-0.128
Mof_O 	O 	0.26285	0.3547	0.1385	-0.278
Mof_C 	C 	0.346	0.0845	0.2042	0.368
Mof_N 	N 	0.54105	0.282	0.1238	-0.185
Mof_C 	C 	0.29638	0.193	0.1513	-0.25
Mof_C 	C 	0.59083	0.8162	0.4682	-0.297
Mof_H 	H 	0.6103	0.8389	0.4755	0.151
Mof_C 	C 	0.3049	0.0844	0.1355	0.23
Mof_H 	H 	0.2933	0.045	0.1063	-0.023
Mof_C 	C 	0.39616	0.0283	0.2096	0.363
Mof_C 	C 	0.44838	0.0228	0.1697	-0.222
Mof_C 	C 	0.39857	0.0887	0.1621	-0.368
Mof_H 	H 	0.3828	0.1301	0.1429	0.168
Mof_C 	C 	0.44458	0.9614	0.2177	0.215
Mof_H 	H 	0.4599	0.9167	0.2365	-0.016
Mof_N 	N 	0.69726	0.7833	0.1535	-0.184
Mof_C 	C 	0.56017	0.2382	0.1661	0.163
Mof_H 	H 	0.5628	0.1554	0.1677	-0.019
Mof_C 	C 	0.43052	0.4376	0.9878	0.092
Mof_N 	N 	0.54347	0.8225	0.4938	-0.185
Mof_O 	O 	0.25324	0.1965	0.0842	-0.284
Mof_C 	C 	0.42492	0.0876	0.1429	0.219
Mof_H 	H 	0.4271	0.1315	0.111	-0.025
Mof_C 	C 	0.63102	0.665	0.2908	0.033
Mof_H 	H 	0.6166	0.6992	0.262	0.04
Mof_H 	H 	0.639	0.7291	0.3157	0.036
Mof_C 	C 	0.55289	0.4783	0.1612	-0.284
Mof_H 	H 	0.5501	0.5609	0.1581	0.149
Mof_C 	C 	0.64854	0.3713	0.4375	0.34
Mof_O 	O 	0.47892	0.1078	0.1112	-0.291
Mof_C 	C 	0.57182	0.4302	0.2044	0.307
Mof_C 	C 	0.3383	0.1928	0.2231	-0.36
Mof_H 	H 	0.3492	0.23	0.2537	0.166
Mof_C 	C 	0.57601	0.3056	0.2069	-0.292
Mof_H 	H 	0.589	0.2703	0.2352	0.139
Mof_C 	C 	0.59073	0.6183	0.3479	0.015
Mof_H 	H 	0.5771	0.6541	0.3182	0.045
Mof_H 	H 	0.5808	0.5543	0.3648	0.046
Mof_C 	C 	0.58108	0.7455	0.4213	0.303
Mof_C 	C 	0.61693	0.5675	0.324	0.007
Mof_C 	C 	0.55183	0.718	0.4107	-0.288
Mof_H 	H 	0.5442	0.6726	0.3797	0.144
Mof_C 	C 	0.3304	0.0283	0.1609	-0.369
Mof_H 	H 	0.3363	0.9547	0.1482	0.174
Mof_C 	C 	0.41886	0.965	0.238	-0.347
Mof_H 	H 	0.4167	0.9249	0.271	0.166
Mof_C 	C 	0.63849	0.2787	0.4656	-0.328
Mof_H 	H 	0.619	0.2569	0.4582	0.161
Mof_C 	C 	0.66726	0.6696	0.2308	0.337
Mof_C 	C 	0.64107	0.5239	0.3705	0.027
Mof_H 	H 	0.6577	0.4952	0.3542	0.042
Mof_H 	H 	0.6475	0.5897	0.3957	0.044
Mof_C 	C 	0.6782	0.8402	0.178	0.181
Mof_H 	H 	0.6745	0.9202	0.1683	-0.005
Mof_C 	C 	0.53415	0.76	0.4477	0.168
Mof_H 	H 	0.5143	0.7435	0.4398	-0.006
Mof_C 	C 	0.3133	0.2457	0.1946	0.228
Mof_H 	H 	0.3081	0.3215	0.2059	-0.028
Mof_C 	C 	0.53806	0.4004	0.1223	0.16
Mof_H 	H 	0.5251	0.4334	0.0932	-0.002
Mof_C 	C 	0.60603	0.4632	0.2871	0.023
Mof_H 	H 	0.6222	0.4243	0.273	0.045
Mof_H 	H 	0.5967	0.4046	0.3084	0.041
Mof_C 	C 	0.46681	0.2709	0.0009	0.321
Mof_N 	N 	0.68553	0.24	0.5162	-0.189
Mof_C 	C 	0.65702	0.2171	0.5049	0.186
Mof_H 	H 	0.6494	0.1562	0.5248	-0.011
Mof_C 	C 	0.57243	0.8515	0.5025	0.172
Mof_H 	H 	0.5796	0.8977	0.5336	-0.024
Mof_C 	C 	0.47716	0.0274	0.1468	0.376
Mof_C 	C 	0.6878	0.6092	0.2061	-0.296
Mof_H 	H 	0.6919	0.5289	0.2145	0.161
Mof_C 	C 	0.66284	0.79	0.2182	-0.309
Mof_H 	H 	0.6501	0.8361	0.2358	0.157
Mof_C 	C 	0.67788	0.3981	0.4489	-0.322
Mof_H 	H 	0.6858	0.4603	0.4303	0.155
Mof_C 	C 	0.7022	0.6697	0.1688	0.181
Mof_H 	H 	0.7163	0.628	0.1531	-0.015
Mof_C 	C 	0.69497	0.331	0.4882	0.18
Mof_H 	H 	0.7146	0.3505	0.4959	-0.014
Mof_C 	C 	0.26939	0.2509	0.1227	0.354
Mof_C 	C 	0.4091	0.503	0.9529	-0.088
Mof_H 	H 	0.4051	0.5832	0.9602	0.051
Mof_C 	C 	0.3946	0.444	0.908	0.116
Mof_C 	C 	0.4012	0.3324	0.8911	-0.084
Mof_H 	H 	0.3918	0.301	0.8576	0.075
Mof_C 	C 	0.3071	0.8762	0.9417	0.025
Mof_C 	C 	0.3244	0.7799	0.9258	-0.244
Mof_C 	C 	0.342	0.8006	0.8852	0.209
Mof_H 	H 	0.3428	0.8765	0.8693	-0.047
Mof_C 	C 	0.3586	0.7073	0.8686	-0.298
Mof_H 	H 	0.3708	0.7203	0.8419	0.131
Mof_C 	C 	0.3568	0.5953	0.8919	0.154
Mof_C 	C 	0.3398	0.5743	0.933	0.063
Mof_H 	H 	0.3391	0.4984	0.949	0.047
Mof_C 	C 	0.3236	0.6685	0.9503	0.009
Mof_H 	H 	0.3122	0.6563	0.9784	0.038
Mof_O 	O 	0.372	0.4998	0.8726	-0.178
Mof_O 	O 	0.3056	0.9779	0.9114	-0.309
Mof_O 	O 	0.2923	0.8661	0.9868	-0.133
Mof_C 	C 	0.4009	0.472	0.9649	-0.091
Mof_H 	H 	0.3928	0.5397	0.9794	0.067
Mof_C 	C 	0.385	0.409	0.923	0.094
Mof_C 	C 	0.3939	0.302	0.9072	-0.099
Mof_H 	H 	0.381	0.252	0.8846	0.069
Mof_C 	C 	0.3135	0.9002	0.9098	0.445
Mof_C 	C 	0.3246	0.7836	0.9058	0.012
Mof_C 	C 	0.3524	0.7686	0.8936	-0.088
Mof_H 	H 	0.3635	0.8351	0.8865	0.042
Mof_C 	C 	0.3639	0.6546	0.892	0.108
Mof_H 	H 	0.3828	0.6439	0.8843	0.019
Mof_C 	C 	0.3472	0.5562	0.902	-0.067
Mof_C 	C 	0.3195	0.5704	0.916	-0.192
Mof_H 	H 	0.309	0.5039	0.9251	0.104
Mof_C 	C 	0.3078	0.6836	0.9162	0.118
Mof_H 	H 	0.2888	0.6939	0.9232	0.013
Mof_O 	O 	0.3577	0.4405	0.8961	-0.126
Mof_O 	O 	0.2846	0.924	0.9044	-0.141
Mof_O 	O 	0.3303	0.9994	0.9218	-0.157
Mof_Cd	Cd	0.01301	0.33966	0.56095	0.433
Mof_Cd	Cd	0.71811	0.13406	0.57965	0.473
Mof_O 	O 	0.87073	0.4722	0.7342	-0.346
Mof_O 	O 	0.10077	0.7924	0.8893	-0.252
Mof_O 	O 	0.99642	0.544	0.6647	-0.265
Mof_C 	C 	0.92239	0.2351	0.4249	0.087
Mof_O 	O 	0.12967	0.0704	0.9005	-0.272
Mof_O 	O 	0.98213	0.1698	0.537	-0.271
Mof_O 	O 	0.15356	0.8908	0.7661	-0.265
Mof_O 	O 	0.97327	0.3352	0.4879	-0.27
Mof_O 	O 	0.08567	0.9922	0.7417	-0.254
Mof_C 	C 	0.93823	0.1744	0.4702	-0.128
Mof_O 	O 	0.76285	0.1453	0.6385	-0.278
Mof_C 	C 	0.846	0.4155	0.7042	0.369
Mof_N 	N 	0.04105	0.218	0.6238	-0.185
Mof_C 	C 	0.79638	0.307	0.6513	-0.251
Mof_C 	C 	0.09083	0.6838	0.9682	-0.296
Mof_H 	H 	0.1103	0.6611	0.9755	0.151
Mof_C 	C 	0.8049	0.4156	0.6355	0.23
Mof_H 	H 	0.7933	0.455	0.6063	-0.023
Mof_C 	C 	0.89616	0.4717	0.7096	0.362
Mof_C 	C 	0.94838	0.4772	0.6697	-0.222
Mof_C 	C 	0.89857	0.4113	0.6621	-0.368
Mof_H 	H 	0.8828	0.3699	0.6429	0.168
Mof_C 	C 	0.94458	0.5386	0.7177	0.215
Mof_H 	H 	0.9599	0.5833	0.7365	-0.016
Mof_N 	N 	0.19726	0.7167	0.6535	-0.184
Mof_C 	C 	0.06017	0.2618	0.6661	0.163
Mof_H 	H 	0.0628	0.3446	0.6677	-0.019
Mof_C 	C 	0.93052	0.0624	0.4878	0.091
Mof_N 	N 	0.04347	0.6775	0.9938	-0.185
Mof_O 	O 	0.75324	0.3035	0.5842	-0.284
Mof_C 	C 	0.92492	0.4124	0.6429	0.219
Mof_H 	H 	0.9271	0.3685	0.611	-0.025
Mof_C 	C 	0.13102	0.835	0.7908	0.033
Mof_H 	H 	0.1166	0.8008	0.762	0.04
Mof_H 	H 	0.139	0.7709	0.8157	0.036
Mof_C 	C 	0.05289	0.0217	0.6612	-0.285
Mof_H 	H 	0.0501	0.9391	0.6581	0.149
Mof_C 	C 	0.14854	0.1287	0.9375	0.341
Mof_O 	O 	0.97892	0.3922	0.6112	-0.291
Mof_C 	C 	0.07182	0.0698	0.7044	0.307
Mof_C 	C 	0.8383	0.3072	0.7231	-0.36
Mof_H 	H 	0.8492	0.27	0.7537	0.166
Mof_C 	C 	0.07601	0.1944	0.7069	-0.291
Mof_H 	H 	0.089	0.2297	0.7352	0.139
Mof_C 	C 	0.09073	0.8817	0.8479	0.014
Mof_H 	H 	0.0771	0.8459	0.8182	0.045
Mof_H 	H 	0.0808	0.9457	0.8648	0.046
Mof_C 	C 	0.08108	0.7545	0.9213	0.303
Mof_C 	C 	0.11693	0.9325	0.824	0.008
Mof_C 	C 	0.05183	0.782	0.9107	-0.288
Mof_H 	H 	0.0442	0.8274	0.8797	0.144
Mof_C 	C 	0.8304	0.4717	0.6609	-0.37
Mof_H 	H 	0.8363	0.5453	0.6482	0.174
Mof_C 	C 	0.91886	0.535	0.738	-0.346
Mof_H 	H 	0.9167	0.5751	0.771	0.166
Mof_C 	C 	0.13849	0.2213	0.9656	-0.329
Mof_H 	H 	0.119	0.2431	0.9582	0.161
Mof_C 	C 	0.16726	0.8304	0.7308	0.337
Mof_C 	C 	0.14107	0.9761	0.8705	0.028
Mof_H 	H 	0.1577	0.0048	0.8542	0.041
Mof_H 	H 	0.1475	0.9103	0.8957	0.043
Mof_C 	C 	0.1782	0.6598	0.678	0.181
Mof_H 	H 	0.1745	0.5798	0.6683	-0.005
Mof_C 	C 	0.03415	0.74	0.9477	0.168
Mof_H 	H 	0.0143	0.7565	0.9398	-0.006
Mof_C 	C 	0.8133	0.2543	0.6946	0.228
Mof_H 	H 	0.8081	0.1785	0.7059	-0.028
Mof_C 	C 	0.03806	0.0996	0.6223	0.161
Mof_H 	H 	0.0251	0.0666	0.5932	-0.002
Mof_C 	C 	0.10603	0.0368	0.7871	0.022
Mof_H 	H 	0.1222	0.0757	0.773	0.045
Mof_H 	H 	0.0967	0.0954	0.8084	0.041
Mof_C 	C 	0.96681	0.2291	0.5009	0.32
Mof_N 	N 	0.18553	0.26	0.0162	-0.189
Mof_C 	C 	0.15702	0.2829	0.0049	0.187
Mof_H 	H 	0.1494	0.3438	0.0248	-0.011
Mof_C 	C 	0.07243	0.6485	0.0025	0.171
Mof_H 	H 	0.0796	0.6023	0.0336	-0.024
Mof_C 	C 	0.97716	0.4726	0.6468	0.375
Mof_C 	C 	0.1878	0.8908	0.7061	-0.296
Mof_H 	H 	0.1919	0.9711	0.7145	0.161
Mof_C 	C 	0.16284	0.71	0.7182	-0.309
Mof_H 	H 	0.1501	0.6639	0.7358	0.157
Mof_C 	C 	0.17788	0.1019	0.9489	-0.323
Mof_H 	H 	0.1858	0.0397	0.9303	0.155
Mof_C 	C 	0.2022	0.8303	0.6688	0.181
Mof_H 	H 	0.2163	0.872	0.6531	-0.015
Mof_C 	C 	0.19497	0.169	0.9882	0.18
Mof_H 	H 	0.2146	0.1495	0.9959	-0.014
Mof_C 	C 	0.76939	0.2491	0.6227	0.355
Mof_C 	C 	0.9091	0.997	0.4529	-0.087
Mof_H 	H 	0.9051	0.9168	0.4602	0.051
Mof_C 	C 	0.8946	0.056	0.408	0.116
Mof_C 	C 	0.9012	0.1676	0.3911	-0.085
Mof_H 	H 	0.8918	0.199	0.3576	0.075
Mof_C 	C 	0.8071	0.6238	0.4417	0.025
Mof_C 	C 	0.8244	0.7201	0.4258	-0.244
Mof_C 	C 	0.842	0.6994	0.3852	0.208
Mof_H 	H 	0.8428	0.6235	0.3693	-0.047
Mof_C 	C 	0.8586	0.7927	0.3686	-0.297
Mof_H 	H 	0.8708	0.7797	0.3419	0.131
Mof_C 	C 	0.8568	0.9047	0.3919	0.154
Mof_C 	C 	0.8398	0.9257	0.433	0.063
Mof_H 	H 	0.8391	0.0016	0.449	0.047
Mof_C 	C 	0.8236	0.8315	0.4503	0.009
Mof_H 	H 	0.8122	0.8437	0.4784	0.038
Mof_O 	O 	0.872	0.0002	0.3726	-0.178
Mof_O 	O 	0.8056	0.5221	0.4114	-0.309
Mof_O 	O 	0.7923	0.6339	0.4868	-0.133
Mof_C 	C 	0.9009	0.028	0.4649	-0.091
Mof_H 	H 	0.8928	0.9603	0.4794	0.067
Mof_C 	C 	0.885	0.091	0.423	0.094
Mof_C 	C 	0.8939	0.198	0.4072	-0.099
Mof_H 	H 	0.881	0.248	0.3846	0.069
Mof_C 	C 	0.8135	0.5998	0.4098	0.445
Mof_C 	C 	0.8246	0.7164	0.4058	0.012
Mof_C 	C 	0.8524	0.7314	0.3936	-0.088
Mof_H 	H 	0.8635	0.6649	0.3865	0.042
Mof_C 	C 	0.8639	0.8454	0.392	0.108
Mof_H 	H 	0.8828	0.8561	0.3843	0.019
Mof_C 	C 	0.8472	0.9438	0.402	-0.067
Mof_C 	C 	0.8195	0.9296	0.416	-0.192
Mof_H 	H 	0.809	0.9961	0.4251	0.104
Mof_C 	C 	0.8078	0.8164	0.4162	0.118
Mof_H 	H 	0.7888	0.8061	0.4232	0.013
Mof_O 	O 	0.8577	0.0595	0.3961	-0.126
Mof_O 	O 	0.7846	0.576	0.4044	-0.141
Mof_O 	O 	0.8303	0.5006	0.4218	-0.157
Mof_Cd	Cd	0.51301	0.83966	0.56095	0.433
Mof_Cd	Cd	0.21811	0.63406	0.57965	0.473
Mof_O 	O 	0.37073	0.9722	0.7342	-0.346
Mof_O 	O 	0.60077	0.2924	0.8893	-0.253
Mof_O 	O 	0.49642	0.044	0.6647	-0.265
Mof_C 	C 	0.42239	0.7351	0.4249	0.087
Mof_O 	O 	0.62967	0.5704	0.9005	-0.272
Mof_O 	O 	0.48213	0.6698	0.537	-0.271
Mof_O 	O 	0.65356	0.3908	0.7661	-0.265
Mof_O 	O 	0.47327	0.8352	0.4879	-0.27
Mof_O 	O 	0.58567	0.4922	0.7417	-0.254
Mof_C 	C 	0.43823	0.6744	0.4702	-0.128
Mof_O 	O 	0.26285	0.6453	0.6385	-0.278
Mof_C 	C 	0.346	0.9155	0.7042	0.369
Mof_N 	N 	0.54105	0.718	0.6238	-0.185
Mof_C 	C 	0.29638	0.807	0.6513	-0.251
Mof_C 	C 	0.59083	0.1838	0.9682	-0.298
Mof_H 	H 	0.6103	0.1611	0.9755	0.151
Mof_C 	C 	0.3049	0.9156	0.6355	0.23
Mof_H 	H 	0.2933	0.955	0.6063	-0.023
Mof_C 	C 	0.39616	0.9717	0.7096	0.363
Mof_C 	C 	0.44838	0.9772	0.6697	-0.222
Mof_C 	C 	0.39857	0.9113	0.6621	-0.368
Mof_H 	H 	0.3828	0.8699	0.6429	0.168
Mof_C 	C 	0.44458	0.0386	0.7177	0.215
Mof_H 	H 	0.4599	0.0833	0.7365	-0.016
Mof_N 	N 	0.69726	0.2167	0.6535	-0.184
Mof_C 	C 	0.56017	0.7618	0.6661	0.163
Mof_H 	H 	0.5628	0.8446	0.6677	-0.019
Mof_C 	C 	0.43052	0.5624	0.4878	0.092
Mof_N 	N 	0.54347	0.1775	0.9938	-0.186
Mof_O 	O 	0.25324	0.8035	0.5842	-0.284
Mof_C 	C 	0.42492	0.9124	0.6429	0.219
Mof_H 	H 	0.4271	0.8685	0.611	-0.025
Mof_C 	C 	0.63102	0.335	0.7908	0.033
Mof_H 	H 	0.6166	0.3008	0.762	0.04
Mof_H 	H 	0.639	0.2709	0.8157	0.036
Mof_C 	C 	0.55289	0.5217	0.6612	-0.284
Mof_H 	H 	0.5501	0.4391	0.6581	0.149
Mof_C 	C 	0.64854	0.6287	0.9375	0.34
Mof_O 	O 	0.47892	0.8922	0.6112	-0.291
Mof_C 	C 	0.57182	0.5698	0.7044	0.307
Mof_C 	C 	0.3383	0.8072	0.7231	-0.36
Mof_H 	H 	0.3492	0.77	0.7537	0.166
Mof_C 	C 	0.57601	0.6944	0.7069	-0.292
Mof_H 	H 	0.589	0.7297	0.7352	0.139
Mof_C 	C 	0.59073	0.3817	0.8479	0.015
Mof_H 	H 	0.5771	0.3459	0.8182	0.045
Mof_H 	H 	0.5808	0.4457	0.8648	0.046
Mof_C 	C 	0.58108	0.2545	0.9213	0.304
Mof_C 	C 	0.61693	0.4325	0.824	0.007
Mof_C 	C 	0.55183	0.282	0.9107	-0.288
Mof_H 	H 	0.5442	0.3274	0.8797	0.144
Mof_C 	C 	0.3304	0.9717	0.6609	-0.369
Mof_H 	H 	0.3363	0.0453	0.6482	0.174
Mof_C 	C 	0.41886	0.035	0.738	-0.347
Mof_H 	H 	0.4167	0.0751	0.771	0.166
Mof_C 	C 	0.63849	0.7213	0.9656	-0.328
Mof_H 	H 	0.619	0.7431	0.9582	0.161
Mof_C 	C 	0.66726	0.3304	0.7308	0.337
Mof_C 	C 	0.64107	0.4761	0.8705	0.027
Mof_H 	H 	0.6577	0.5048	0.8542	0.042
Mof_H 	H 	0.6475	0.4103	0.8957	0.044
Mof_C 	C 	0.6782	0.1598	0.678	0.181
Mof_H 	H 	0.6745	0.0798	0.6683	-0.005
Mof_C 	C 	0.53415	0.24	0.9477	0.168
Mof_H 	H 	0.5143	0.2565	0.9398	-0.006
Mof_C 	C 	0.3133	0.7543	0.6946	0.228
Mof_H 	H 	0.3081	0.6785	0.7059	-0.028
Mof_C 	C 	0.53806	0.5996	0.6223	0.16
Mof_H 	H 	0.5251	0.5666	0.5932	-0.002
Mof_C 	C 	0.60603	0.5368	0.7871	0.023
Mof_H 	H 	0.6222	0.5757	0.773	0.045
Mof_H 	H 	0.5967	0.5954	0.8084	0.041
Mof_C 	C 	0.46681	0.7291	0.5009	0.32
Mof_N 	N 	0.68553	0.76	0.0162	-0.189
Mof_C 	C 	0.65702	0.7829	0.0049	0.186
Mof_H 	H 	0.6494	0.8438	0.0248	-0.011
Mof_C 	C 	0.57243	0.1485	0.0025	0.173
Mof_H 	H 	0.5796	0.1023	0.0336	-0.025
Mof_C 	C 	0.47716	0.9726	0.6468	0.376
Mof_C 	C 	0.6878	0.3908	0.7061	-0.296
Mof_H 	H 	0.6919	0.4711	0.7145	0.161
Mof_C 	C 	0.66284	0.21	0.7182	-0.309
Mof_H 	H 	0.6501	0.1639	0.7358	0.157
Mof_C 	C 	0.67788	0.6019	0.9489	-0.322
Mof_H 	H 	0.6858	0.5397	0.9303	0.155
Mof_C 	C 	0.7022	0.3303	0.6688	0.181
Mof_H 	H 	0.7163	0.372	0.6531	-0.015
Mof_C 	C 	0.69497	0.669	0.9882	0.181
Mof_H 	H 	0.7146	0.6495	0.9959	-0.014
Mof_C 	C 	0.26939	0.7491	0.6227	0.355
Mof_C 	C 	0.4091	0.497	0.4529	-0.088
Mof_H 	H 	0.4051	0.4168	0.4602	0.051
Mof_C 	C 	0.3946	0.556	0.408	0.116
Mof_C 	C 	0.4012	0.6676	0.3911	-0.084
Mof_H 	H 	0.3918	0.699	0.3576	0.075
Mof_C 	C 	0.3071	0.1238	0.4417	0.025
Mof_C 	C 	0.3244	0.2201	0.4258	-0.244
Mof_C 	C 	0.342	0.1994	0.3852	0.209
Mof_H 	H 	0.3428	0.1235	0.3693	-0.047
Mof_C 	C 	0.3586	0.2927	0.3686	-0.298
Mof_H 	H 	0.3708	0.2797	0.3419	0.131
Mof_C 	C 	0.3568	0.4047	0.3919	0.154
Mof_C 	C 	0.3398	0.4257	0.433	0.063
Mof_H 	H 	0.3391	0.5016	0.449	0.047
Mof_C 	C 	0.3236	0.3315	0.4503	0.009
Mof_H 	H 	0.3122	0.3437	0.4784	0.038
Mof_O 	O 	0.372	0.5002	0.3726	-0.178
Mof_O 	O 	0.3056	0.0221	0.4114	-0.309
Mof_O 	O 	0.2923	0.1339	0.4868	-0.133
Mof_C 	C 	0.4009	0.528	0.4649	-0.091
Mof_H 	H 	0.3928	0.4603	0.4794	0.067
Mof_C 	C 	0.385	0.591	0.423	0.094
Mof_C 	C 	0.3939	0.698	0.4072	-0.099
Mof_H 	H 	0.381	0.748	0.3846	0.069
Mof_C 	C 	0.3135	0.0998	0.4098	0.445
Mof_C 	C 	0.3246	0.2164	0.4058	0.012
Mof_C 	C 	0.3524	0.2314	0.3936	-0.088
Mof_H 	H 	0.3635	0.1649	0.3865	0.042
Mof_C 	C 	0.3639	0.3454	0.392	0.108
Mof_H 	H 	0.3828	0.3561	0.3843	0.019
Mof_C 	C 	0.3472	0.4438	0.402	-0.067
Mof_C 	C 	0.3195	0.4296	0.416	-0.192
Mof_H 	H 	0.309	0.4961	0.4251	0.104
Mof_C 	C 	0.3078	0.3164	0.4162	0.118
Mof_H 	H 	0.2888	0.3061	0.4232	0.013
Mof_O 	O 	0.3577	0.5595	0.3961	-0.126
Mof_O 	O 	0.2846	0.076	0.4044	-0.141
Mof_O 	O 	0.3303	0.0006	0.4218	-0.157
Mof_Cd	Cd	0.98699	0.33966	0.93905	0.433
Mof_Cd	Cd	0.28189	0.13406	0.92035	0.473
Mof_O 	O 	0.12927	0.4722	0.7658	-0.346
Mof_O 	O 	0.89923	0.7924	0.6107	-0.252
Mof_O 	O 	0.00358	0.544	0.8353	-0.265
Mof_C 	C 	0.07761	0.2351	0.0751	0.087
Mof_O 	O 	0.87033	0.0704	0.5995	-0.272
Mof_O 	O 	0.01787	0.1698	0.963	-0.271
Mof_O 	O 	0.84644	0.8908	0.7339	-0.265
Mof_O 	O 	0.02673	0.3352	0.0121	-0.27
Mof_O 	O 	0.91433	0.9922	0.7583	-0.254
Mof_C 	C 	0.06177	0.1744	0.0298	-0.127
Mof_O 	O 	0.23715	0.1453	0.8615	-0.278
Mof_C 	C 	0.154	0.4155	0.7958	0.369
Mof_N 	N 	0.95895	0.218	0.8762	-0.186
Mof_C 	C 	0.20362	0.307	0.8487	-0.251
Mof_C 	C 	0.90917	0.6838	0.5318	-0.297
Mof_H 	H 	0.8897	0.6611	0.5245	0.151
Mof_C 	C 	0.1951	0.4156	0.8645	0.23
Mof_H 	H 	0.2067	0.455	0.8937	-0.023
Mof_C 	C 	0.10384	0.4717	0.7904	0.362
Mof_C 	C 	0.05162	0.4772	0.8303	-0.222
Mof_C 	C 	0.10143	0.4113	0.8379	-0.368
Mof_H 	H 	0.1172	0.3699	0.8571	0.168
Mof_C 	C 	0.05542	0.5386	0.7823	0.215
Mof_H 	H 	0.0401	0.5833	0.7635	-0.016
Mof_N 	N 	0.80274	0.7167	0.8465	-0.184
Mof_C 	C 	0.93983	0.2618	0.8339	0.163
Mof_H 	H 	0.9372	0.3446	0.8323	-0.019
Mof_C 	C 	0.06948	0.0624	0.0122	0.092
Mof_N 	N 	0.95653	0.6775	0.5062	-0.185
Mof_O 	O 	0.24676	0.3035	0.9158	-0.284
Mof_C 	C 	0.07508	0.4124	0.8571	0.219
Mof_H 	H 	0.0729	0.3685	0.889	-0.025
Mof_C 	C 	0.86898	0.835	0.7092	0.033
Mof_H 	H 	0.8834	0.8008	0.738	0.04
Mof_H 	H 	0.861	0.7709	0.6843	0.036
Mof_C 	C 	0.94711	0.0217	0.8388	-0.285
Mof_H 	H 	0.9499	0.9391	0.8419	0.149
Mof_C 	C 	0.85146	0.1287	0.5625	0.34
Mof_O 	O 	0.02108	0.3922	0.8888	-0.291
Mof_C 	C 	0.92818	0.0698	0.7956	0.307
Mof_C 	C 	0.1617	0.3072	0.7769	-0.36
Mof_H 	H 	0.1508	0.27	0.7463	0.166
Mof_C 	C 	0.92399	0.1944	0.7931	-0.292
Mof_H 	H 	0.911	0.2297	0.7648	0.139
Mof_C 	C 	0.90927	0.8817	0.6521	0.014
Mof_H 	H 	0.9229	0.8459	0.6818	0.045
Mof_H 	H 	0.9192	0.9457	0.6352	0.046
Mof_C 	C 	0.91892	0.7545	0.5787	0.303
Mof_C 	C 	0.88307	0.9325	0.676	0.008
Mof_C 	C 	0.94817	0.782	0.5893	-0.288
Mof_H 	H 	0.9558	0.8274	0.6203	0.144
Mof_C 	C 	0.1696	0.4717	0.8391	-0.37
Mof_H 	H 	0.1637	0.5453	0.8518	0.174
Mof_C 	C 	0.08114	0.535	0.762	-0.346
Mof_H 	H 	0.0833	0.5751	0.729	0.166
Mof_C 	C 	0.86151	0.2213	0.5344	-0.328
Mof_H 	H 	0.881	0.2431	0.5418	0.161
Mof_C 	C 	0.83274	0.8304	0.7692	0.337
Mof_C 	C 	0.85893	0.9761	0.6295	0.027
Mof_H 	H 	0.8423	0.0048	0.6458	0.041
Mof_H 	H 	0.8525	0.9103	0.6043	0.044
Mof_C 	C 	0.8218	0.6598	0.822	0.181
Mof_H 	H 	0.8255	0.5798	0.8317	-0.005
Mof_C 	C 	0.96585	0.74	0.5523	0.168
Mof_H 	H 	0.9857	0.7565	0.5602	-0.006
Mof_C 	C 	0.1867	0.2543	0.8054	0.228
Mof_H 	H 	0.1919	0.1785	0.7941	-0.028
Mof_C 	C 	0.96194	0.0996	0.8777	0.161
Mof_H 	H 	0.9749	0.0666	0.9068	-0.003
Mof_C 	C 	0.89397	0.0368	0.7129	0.022
Mof_H 	H 	0.8778	0.0757	0.727	0.045
Mof_H 	H 	0.9033	0.0954	0.6916	0.041
Mof_C 	C 	0.03319	0.2291	0.9991	0.32
Mof_N 	N 	0.81447	0.26	0.4838	-0.189
Mof_C 	C 	0.84298	0.2829	0.4951	0.186
Mof_H 	H 	0.8506	0.3438	0.4752	-0.011
Mof_C 	C 	0.92757	0.6485	0.4975	0.172
Mof_H 	H 	0.9204	0.6023	0.4664	-0.024
Mof_C 	C 	0.02284	0.4726	0.8532	0.375
Mof_C 	C 	0.8122	0.8908	0.7939	-0.296
Mof_H 	H 	0.8081	0.9711	0.7855	0.161
Mof_C 	C 	0.83716	0.71	0.7818	-0.309
Mof_H 	H 	0.8499	0.6639	0.7642	0.157
Mof_C 	C 	0.82212	0.1019	0.5511	-0.322
Mof_H 	H 	0.8142	0.0397	0.5697	0.155
Mof_C 	C 	0.7978	0.8303	0.8312	0.181
Mof_H 	H 	0.7837	0.872	0.8469	-0.015
Mof_C 	C 	0.80503	0.169	0.5118	0.18
Mof_H 	H 	0.7854	0.1495	0.5041	-0.014
Mof_C 	C 	0.23061	0.2491	0.8773	0.355
Mof_C 	C 	0.0909	0.997	0.0471	-0.086
Mof_H 	H 	0.0949	0.9168	0.0398	0.051
Mof_C 	C 	0.1054	0.056	0.092	0.115
Mof_C 	C 	0.0988	0.1676	0.1089	-0.086
Mof_H 	H 	0.1082	0.199	0.1424	0.075
Mof_C 	C 	0.1929	0.6238	0.0583	0.025
Mof_C 	C 	0.1756	0.7201	0.0742	-0.244
Mof_C 	C 	0.158	0.6994	0.1148	0.208
Mof_H 	H 	0.1572	0.6235	0.1307	-0.046
Mof_C 	C 	0.1414	0.7927	0.1314	-0.297
Mof_H 	H 	0.1292	0.7797	0.1581	0.131
Mof_C 	C 	0.1432	0.9047	0.1081	0.153
Mof_C 	C 	0.1602	0.9257	0.067	0.064
Mof_H 	H 	0.1609	0.0016	0.051	0.047
Mof_C 	C 	0.1764	0.8315	0.0497	0.008
Mof_H 	H 	0.1878	0.8437	0.0216	0.038
Mof_O 	O 	0.128	0.0002	0.1274	-0.178
Mof_O 	O 	0.1944	0.5221	0.0886	-0.309
Mof_O 	O 	0.2077	0.6339	0.0132	-0.133
Mof_C 	C 	0.0991	0.028	0.0351	-0.092
Mof_H 	H 	0.1072	0.9603	0.0206	0.067
Mof_C 	C 	0.115	0.091	0.077	0.096
Mof_C 	C 	0.1061	0.198	0.0928	-0.098
Mof_H 	H 	0.119	0.248	0.1154	0.069
Mof_C 	C 	0.1865	0.5998	0.0902	0.445
Mof_C 	C 	0.1754	0.7164	0.0942	0.012
Mof_C 	C 	0.1476	0.7314	0.1064	-0.088
Mof_H 	H 	0.1365	0.6649	0.1135	0.042
Mof_C 	C 	0.1361	0.8454	0.108	0.108
Mof_H 	H 	0.1172	0.8561	0.1157	0.019
Mof_C 	C 	0.1528	0.9438	0.098	-0.066
Mof_C 	C 	0.1805	0.9296	0.084	-0.193
Mof_H 	H 	0.191	0.9961	0.0749	0.104
Mof_C 	C 	0.1922	0.8164	0.0838	0.119
Mof_H 	H 	0.2112	0.8061	0.0768	0.013
Mof_O 	O 	0.1423	0.0595	0.1039	-0.126
Mof_O 	O 	0.2154	0.576	0.0956	-0.141
Mof_O 	O 	0.1697	0.5006	0.0782	-0.157
Mof_Cd	Cd	0.48699	0.83966	0.93905	0.433
Mof_Cd	Cd	0.78189	0.63406	0.92035	0.473
Mof_O 	O 	0.62927	0.9722	0.7658	-0.346
Mof_O 	O 	0.39923	0.2924	0.6107	-0.252
Mof_O 	O 	0.50358	0.044	0.8353	-0.265
Mof_C 	C 	0.57761	0.7351	0.0751	0.087
Mof_O 	O 	0.37033	0.5704	0.5995	-0.272
Mof_O 	O 	0.51787	0.6698	0.963	-0.271
Mof_O 	O 	0.34644	0.3908	0.7339	-0.265
Mof_O 	O 	0.52673	0.8352	0.0121	-0.27
Mof_O 	O 	0.41433	0.4922	0.7583	-0.254
Mof_C 	C 	0.56177	0.6744	0.0298	-0.128
Mof_O 	O 	0.73715	0.6453	0.8615	-0.278
Mof_C 	C 	0.654	0.9155	0.7958	0.368
Mof_N 	N 	0.45895	0.718	0.8762	-0.185
Mof_C 	C 	0.70362	0.807	0.8487	-0.25
Mof_C 	C 	0.40917	0.1838	0.5318	-0.297
Mof_H 	H 	0.3897	0.1611	0.5245	0.151
Mof_C 	C 	0.6951	0.9156	0.8645	0.23
Mof_H 	H 	0.7067	0.955	0.8937	-0.023
Mof_C 	C 	0.60384	0.9717	0.7904	0.363
Mof_C 	C 	0.55162	0.9772	0.8303	-0.222
Mof_C 	C 	0.60143	0.9113	0.8379	-0.368
Mof_H 	H 	0.6172	0.8699	0.8571	0.168
Mof_C 	C 	0.55542	0.0386	0.7823	0.215
Mof_H 	H 	0.5401	0.0833	0.7635	-0.016
Mof_N 	N 	0.30274	0.2167	0.8465	-0.184
Mof_C 	C 	0.43983	0.7618	0.8339	0.163
Mof_H 	H 	0.4372	0.8446	0.8323	-0.019
Mof_C 	C 	0.56948	0.5624	0.0122	0.092
Mof_N 	N 	0.45653	0.1775	0.5062	-0.185
Mof_O 	O 	0.74676	0.8035	0.9158	-0.284
Mof_C 	C 	0.57508	0.9124	0.8571	0.219
Mof_H 	H 	0.5729	0.8685	0.889	-0.025
Mof_C 	C 	0.36898	0.335	0.7092	0.033
Mof_H 	H 	0.3834	0.3008	0.738	0.04
Mof_H 	H 	0.361	0.2709	0.6843	0.036
Mof_C 	C 	0.44711	0.5217	0.8388	-0.284
Mof_H 	H 	0.4499	0.4391	0.8419	0.149
Mof_C 	C 	0.35146	0.6287	0.5625	0.34
Mof_O 	O 	0.52108	0.8922	0.8888	-0.291
Mof_C 	C 	0.42818	0.5698	0.7956	0.307
Mof_C 	C 	0.6617	0.8072	0.7769	-0.36
Mof_H 	H 	0.6508	0.77	0.7463	0.166
Mof_C 	C 	0.42399	0.6944	0.7931	-0.292
Mof_H 	H 	0.411	0.7297	0.7648	0.139
Mof_C 	C 	0.40927	0.3817	0.6521	0.015
Mof_H 	H 	0.4229	0.3459	0.6818	0.045
Mof_H 	H 	0.4192	0.4457	0.6352	0.046
Mof_C 	C 	0.41892	0.2545	0.5787	0.303
Mof_C 	C 	0.38307	0.4325	0.676	0.007
Mof_C 	C 	0.44817	0.282	0.5893	-0.288
Mof_H 	H 	0.4558	0.3274	0.6203	0.144
Mof_C 	C 	0.6696	0.9717	0.8391	-0.369
Mof_H 	H 	0.6637	0.0453	0.8518	0.174
Mof_C 	C 	0.58114	0.035	0.762	-0.347
Mof_H 	H 	0.5833	0.0751	0.729	0.166
Mof_C 	C 	0.36151	0.7213	0.5344	-0.328
Mof_H 	H 	0.381	0.7431	0.5418	0.161
Mof_C 	C 	0.33274	0.3304	0.7692	0.337
Mof_C 	C 	0.35893	0.4761	0.6295	0.027
Mof_H 	H 	0.3423	0.5048	0.6458	0.042
Mof_H 	H 	0.3525	0.4103	0.6043	0.044
Mof_C 	C 	0.3218	0.1598	0.822	0.181
Mof_H 	H 	0.3255	0.0798	0.8317	-0.005
Mof_C 	C 	0.46585	0.24	0.5523	0.168
Mof_H 	H 	0.4857	0.2565	0.5602	-0.006
Mof_C 	C 	0.6867	0.7543	0.8054	0.228
Mof_H 	H 	0.6919	0.6785	0.7941	-0.028
Mof_C 	C 	0.46194	0.5996	0.8777	0.16
Mof_H 	H 	0.4749	0.5666	0.9068	-0.002
Mof_C 	C 	0.39397	0.5368	0.7129	0.023
Mof_H 	H 	0.3778	0.5757	0.727	0.045
Mof_H 	H 	0.4033	0.5954	0.6916	0.041
Mof_C 	C 	0.53319	0.7291	0.9991	0.321
Mof_N 	N 	0.31447	0.76	0.4838	-0.189
Mof_C 	C 	0.34298	0.7829	0.4951	0.186
Mof_H 	H 	0.3506	0.8438	0.4752	-0.011
Mof_C 	C 	0.42757	0.1485	0.4975	0.172
Mof_H 	H 	0.4204	0.1023	0.4664	-0.024
Mof_C 	C 	0.52284	0.9726	0.8532	0.376
Mof_C 	C 	0.3122	0.3908	0.7939	-0.296
Mof_H 	H 	0.3081	0.4711	0.7855	0.161
Mof_C 	C 	0.33716	0.21	0.7818	-0.309
Mof_H 	H 	0.3499	0.1639	0.7642	0.157
Mof_C 	C 	0.32212	0.6019	0.5511	-0.322
Mof_H 	H 	0.3142	0.5397	0.5697	0.155
Mof_C 	C 	0.2978	0.3303	0.8312	0.181
Mof_H 	H 	0.2837	0.372	0.8469	-0.015
Mof_C 	C 	0.30503	0.669	0.5118	0.18
Mof_H 	H 	0.2854	0.6495	0.5041	-0.014
Mof_C 	C 	0.73061	0.7491	0.8773	0.354
Mof_C 	C 	0.5909	0.497	0.0471	-0.088
Mof_H 	H 	0.5949	0.4168	0.0398	0.051
Mof_C 	C 	0.6054	0.556	0.092	0.116
Mof_C 	C 	0.5988	0.6676	0.1089	-0.084
Mof_H 	H 	0.6082	0.699	0.1424	0.075
Mof_C 	C 	0.6929	0.1238	0.0583	0.025
Mof_C 	C 	0.6756	0.2201	0.0742	-0.244
Mof_C 	C 	0.658	0.1994	0.1148	0.209
Mof_H 	H 	0.6572	0.1235	0.1307	-0.047
Mof_C 	C 	0.6414	0.2927	0.1314	-0.298
Mof_H 	H 	0.6292	0.2797	0.1581	0.131
Mof_C 	C 	0.6432	0.4047	0.1081	0.154
Mof_C 	C 	0.6602	0.4257	0.067	0.063
Mof_H 	H 	0.6609	0.5016	0.051	0.047
Mof_C 	C 	0.6764	0.3315	0.0497	0.009
Mof_H 	H 	0.6878	0.3437	0.0216	0.038
Mof_O 	O 	0.628	0.5002	0.1274	-0.178
Mof_O 	O 	0.6944	0.0221	0.0886	-0.309
Mof_O 	O 	0.7077	0.1339	0.0132	-0.133
Mof_C 	C 	0.5991	0.528	0.0351	-0.091
Mof_H 	H 	0.6072	0.4603	0.0206	0.067
Mof_C 	C 	0.615	0.591	0.077	0.094
Mof_C 	C 	0.6061	0.698	0.0928	-0.099
Mof_H 	H 	0.619	0.748	0.1154	0.069
Mof_C 	C 	0.6865	0.0998	0.0902	0.445
Mof_C 	C 	0.6754	0.2164	0.0942	0.012
Mof_C 	C 	0.6476	0.2314	0.1064	-0.088
Mof_H 	H 	0.6365	0.1649	0.1135	0.042
Mof_C 	C 	0.6361	0.3454	0.108	0.108
Mof_H 	H 	0.6172	0.3561	0.1157	0.019
Mof_C 	C 	0.6528	0.4438	0.098	-0.067
Mof_C 	C 	0.6805	0.4296	0.084	-0.192
Mof_H 	H 	0.691	0.4961	0.0749	0.104
Mof_C 	C 	0.6922	0.3164	0.0838	0.118
Mof_H 	H 	0.7112	0.3061	0.0768	0.013
Mof_O 	O 	0.6423	0.5595	0.1039	-0.126
Mof_O 	O 	0.7154	0.076	0.0956	-0.141
Mof_O 	O 	0.6697	0.0006	0.0782	-0.157
_end
