data_functionalizedCrystal
_audit_creation_method	'EQeq! by Chris Wilmer'
_symmetry_space_group_name_H-M	'P1'
_symmetry_Int_Tables_number	1
_symmetry_cell_setting	triclinic
loop_
_symmetry_equiv_pos_as_xyz
  x,y,z
_cell_length_a	8.5538
_cell_length_b	9.0457
_cell_length_c	12.0096
_cell_angle_alpha	90
_cell_angle_beta	90
_cell_angle_gamma	90
loop_
_atom_site_label
_atom_site_type_symbol
_atom_site_fract_x
_atom_site_fract_y
_atom_site_fract_z
_atom_site_charge
Mof_Mn	Mn	0.74906	0.75	0.25	1.062
Mof_Mn	Mn	0.75094	0.75	0.75	1.071
Mof_Mn	Mn	0.25094	0.25	0.75	1.071
Mof_Mn	Mn	0.24906	0.25	0.25	1.061
Mof_H 	H 	0.42	0.9353	0.7314	-0.117
Mof_H 	H 	0.75	0.7938	-0	-0.094
Mof_H 	H 	0.08	0.9353	0.2686	-0.115
Mof_H 	H 	0.58	0.0647	0.2686	-0.122
Mof_H 	H 	0.08	0.5647	0.2314	-0.125
Mof_H 	H 	0.25	0.2062	-0	-0.093
Mof_H 	H 	0.58	0.4353	0.2314	-0.125
Mof_H 	H 	0.75	0.7062	0.5	-0.111
Mof_H 	H 	0.25	0.2938	0.5	-0.111
Mof_H 	H 	0.42	0.5647	0.7686	-0.115
Mof_H 	H 	0.92	0.0647	0.7314	-0.11
Mof_H 	H 	0.92	0.4353	0.7686	-0.114
Mof_C 	C 	0.51698	0.4844	0.28254	0.525
Mof_C 	C 	0.01698	0.5156	0.28254	0.522
Mof_C 	C 	0.25	0.191	0.5	0.51
Mof_C 	C 	0.98302	0.4844	0.71746	0.52
Mof_C 	C 	0.51698	0.0156	0.21746	0.524
Mof_C 	C 	0.48302	0.5156	0.71746	0.525
Mof_C 	C 	0.48302	0.9844	0.78254	0.521
Mof_C 	C 	0.98302	0.0156	0.78254	0.496
Mof_C 	C 	0.01698	0.9844	0.21746	0.501
Mof_C 	C 	0.75	0.691	-0	0.399
Mof_C 	C 	0.25	0.309	-0	0.393
Mof_C 	C 	0.75	0.809	0.5	0.51
Mof_O 	O 	0.74612	0.86964	0.59196	-0.378
Mof_O 	O 	0.75388	0.63036	0.09196	-0.361
Mof_O 	O 	0.25388	0.36964	0.09196	-0.36
Mof_O 	O 	0.4445	0.38875	0.69194	-0.371
Mof_O 	O 	0.0555	0.38875	0.30806	-0.373
Mof_O 	O 	0.40223	0.08362	0.1813	-0.397
Mof_O 	O 	0.0555	0.11125	0.19194	-0.369
Mof_O 	O 	0.09777	0.41638	0.6813	-0.386
Mof_O 	O 	0.25388	0.13036	0.40804	-0.377
Mof_O 	O 	0.5555	0.88875	0.19194	-0.379
Mof_O 	O 	0.74612	0.63036	0.90804	-0.308
Mof_O 	O 	0.75388	0.86964	0.40804	-0.377
Mof_O 	O 	0.59777	0.58362	0.6813	-0.388
Mof_O 	O 	0.9445	0.61125	0.69194	-0.369
Mof_O 	O 	0.09777	0.08362	0.8187	-0.362
Mof_O 	O 	0.90223	0.91638	0.1813	-0.386
Mof_O 	O 	0.9445	0.88875	0.80806	-0.349
Mof_O 	O 	0.24612	0.36964	0.90804	-0.305
Mof_O 	O 	0.59777	0.91638	0.8187	-0.374
Mof_O 	O 	0.40223	0.41638	0.3187	-0.391
Mof_O 	O 	0.24612	0.13036	0.59196	-0.377
Mof_O 	O 	0.90223	0.58362	0.3187	-0.389
Mof_O 	O 	0.5555	0.61125	0.30806	-0.374
Mof_O 	O 	0.4445	0.11125	0.80806	-0.359
_end
