data_functionalizedCrystal
_audit_creation_method	'EQeq! by Chris Wilmer'
_symmetry_space_group_name_H-M	'P1'
_symmetry_Int_Tables_number	1
_symmetry_cell_setting	triclinic
loop_
_symmetry_equiv_pos_as_xyz
  x,y,z
_cell_length_a	8.096
_cell_length_b	21.507
_cell_length_c	13.935
_cell_angle_alpha	90
_cell_angle_beta	111.81
_cell_angle_gamma	90
loop_
_atom_site_label
_atom_site_type_symbol
_atom_site_fract_x
_atom_site_fract_y
_atom_site_fract_z
_atom_site_charge
Mof_N 	N 	0.7604	0.54506	0.39994	-0.225
Mof_N 	N 	0.5732	0.61258	0.29665	-0.138
Mof_N 	N 	0.946	0.52862	0.63624	-0.187
Mof_N 	N 	0.9356	0.53108	0.7928	-0.107
Mof_N 	N 	0.1486	0.9156	0.01008	-0.259
Mof_N 	N 	0.3062	0.83074	0.07222	-0.153
Mof_C 	C 	0.7411	0.60195	0.3635	0.095
Mof_H 	H 	0.8317	0.6314	0.3814	-0.001
Mof_C 	C 	0.594	0.5178	0.3547	-0.004
Mof_H 	H 	0.566	0.4773	0.3667	0.025
Mof_C 	C 	0.4788	0.55866	0.2906	0.001
Mof_H 	H 	0.3596	0.5517	0.2505	0.028
Mof_C 	C 	0.5062	0.66929	0.242	0.085
Mof_C 	C 	0.3348	0.68828	0.2265	-0.084
Mof_H 	H 	0.2645	0.6649	0.2527	0.051
Mof_C 	C 	0.6134	0.70385	0.2045	-0.082
Mof_H 	H 	0.728	0.6905	0.2148	0.064
Mof_C 	C 	0.5481	0.7585	0.1516	-0.075
Mof_H 	H 	0.6199	0.7829	0.1278	0.054
Mof_C 	C 	0.0116	0.50526	0.73051	-0.002
Mof_H 	H 	0.0993	0.4748	0.7516	0.016
Mof_C 	C 	0.8224	0.57231	0.6389	0.005
Mof_H 	H 	0.7538	0.5966	0.5831	0.023
Mof_C 	C 	0.8156	0.57469	0.7341	0.005
Mof_H 	H 	0.7443	0.6006	0.7558	0.034
Mof_C 	C 	0.969	0.51518	0.89857	0.126
Mof_C 	C 	0.0253	0.45564	0.9344	-0.087
Mof_H 	H 	0.0419	0.4261	0.8901	0.056
Mof_C 	C 	0.9431	0.55964	0.9637	-0.048
Mof_H 	H 	0.9049	0.5994	0.9392	0.068
Mof_C 	C 	0.1849	0.87145	0.0806	0.082
Mof_H 	H 	0.1334	0.8686	0.13	-0.019
Mof_C 	C 	0.2533	0.90206	0.9538	0.023
Mof_H 	H 	0.2565	0.9254	0.8983	0.016
Mof_C 	C 	0.3503	0.85023	0.9904	0.023
Mof_H 	H 	0.4302	0.8315	0.9657	0.035
Mof_C 	C 	0.3757	0.77666	0.1342	0.076
Mof_C 	C 	0.2687	0.74233	0.1715	-0.077
Mof_H 	H 	0.1533	0.7553	0.1599	0.043
Mof_N 	N 	0.2396	0.04506	0.10006	-0.241
Mof_N 	N 	0.4268	0.11258	0.20335	-0.141
Mof_N 	N 	0.054	0.02862	0.86376	-0.255
Mof_N 	N 	0.0644	0.03108	0.7072	-0.135
Mof_N 	N 	0.8514	0.4156	0.48992	-0.222
Mof_N 	N 	0.6938	0.33074	0.42778	-0.137
Mof_C 	C 	0.2589	0.10195	0.1365	0.089
Mof_H 	H 	0.1683	0.1314	0.1186	-0.03
Mof_C 	C 	0.406	0.0178	0.1453	-0.065
Mof_H 	H 	0.434	0.9773	0.1333	0.055
Mof_C 	C 	0.5212	0.05866	0.2094	0.024
Mof_H 	H 	0.6404	0.0517	0.2495	0.024
Mof_C 	C 	0.4938	0.16929	0.258	0.079
Mof_C 	C 	0.6652	0.18828	0.2735	-0.07
Mof_H 	H 	0.7355	0.1649	0.2473	0.061
Mof_C 	C 	0.3866	0.20385	0.2955	-0.073
Mof_H 	H 	0.272	0.1905	0.2852	0.047
Mof_C 	C 	0.4519	0.2585	0.3484	-0.084
Mof_H 	H 	0.3801	0.2829	0.3722	0.055
Mof_C 	C 	0.9884	0.00526	0.76949	0.135
Mof_H 	H 	0.9007	0.9748	0.7484	0.003
Mof_C 	C 	0.1776	0.07231	0.8611	-0.006
Mof_H 	H 	0.2462	0.0966	0.9169	0.028
Mof_C 	C 	0.1844	0.07469	0.7659	-0.014
Mof_H 	H 	0.2557	0.1006	0.7442	0.036
Mof_C 	C 	0.031	0.01518	0.60143	-0.101
Mof_C 	C 	0.9747	0.95564	0.5656	0.154
Mof_H 	H 	0.9581	0.9261	0.6099	-0.005
Mof_C 	C 	0.0569	0.05964	0.5363	0.091
Mof_H 	H 	0.0951	0.0994	0.5608	-0.004
Mof_C 	C 	0.8151	0.37145	0.4194	0.098
Mof_H 	H 	0.8666	0.3686	0.37	0
Mof_C 	C 	0.7467	0.40206	0.5462	-0.001
Mof_H 	H 	0.7435	0.4254	0.6017	0.028
Mof_C 	C 	0.6497	0.35023	0.5096	0.003
Mof_H 	H 	0.5698	0.3315	0.5343	0.032
Mof_C 	C 	0.6243	0.27666	0.3658	0.092
Mof_C 	C 	0.7313	0.24233	0.3285	-0.081
Mof_H 	H 	0.8467	0.2553	0.3401	0.07
Mof_N 	N 	0.2396	0.45494	0.60006	-0.239
Mof_N 	N 	0.4268	0.38742	0.70335	-0.136
Mof_N 	N 	0.054	0.47138	0.36376	-0.269
Mof_N 	N 	0.0644	0.46892	0.2072	-0.166
Mof_N 	N 	0.8514	0.0844	0.98992	-0.198
Mof_N 	N 	0.6938	0.16926	0.92778	-0.119
Mof_C 	C 	0.2589	0.39805	0.6365	0.093
Mof_H 	H 	0.1683	0.3686	0.6186	-0.022
Mof_C 	C 	0.406	0.4822	0.6453	-0.002
Mof_H 	H 	0.434	0.5227	0.6333	0.025
Mof_C 	C 	0.5212	0.44134	0.7094	0
Mof_H 	H 	0.6404	0.4483	0.7495	0.043
Mof_C 	C 	0.4938	0.33071	0.758	0.083
Mof_C 	C 	0.6652	0.31172	0.7735	-0.066
Mof_H 	H 	0.7355	0.3351	0.7473	0.064
Mof_C 	C 	0.3866	0.29615	0.7955	-0.069
Mof_H 	H 	0.272	0.3095	0.7852	0.052
Mof_C 	C 	0.4519	0.2415	0.8484	-0.08
Mof_H 	H 	0.3801	0.2171	0.8722	0.063
Mof_C 	C 	0.9884	0.49474	0.26949	0.189
Mof_H 	H 	0.9007	0.5252	0.2484	-0.034
Mof_C 	C 	0.1776	0.42769	0.3611	-0.01
Mof_H 	H 	0.2462	0.4034	0.4169	0.018
Mof_C 	C 	0.1844	0.42531	0.2659	-0.009
Mof_H 	H 	0.2557	0.3994	0.2442	0.029
Mof_C 	C 	0.031	0.48482	0.10143	0.04
Mof_C 	C 	0.9747	0.54436	0.0656	-0.056
Mof_H 	H 	0.9581	0.5739	0.1099	0.057
Mof_C 	C 	0.0569	0.44036	0.0363	-0.106
Mof_H 	H 	0.0951	0.4006	0.0608	0.054
Mof_C 	C 	0.8151	0.12855	0.9194	0.104
Mof_H 	H 	0.8666	0.1314	0.87	0.002
Mof_C 	C 	0.7467	0.09794	0.0462	-0.031
Mof_H 	H 	0.7435	0.0746	0.1017	0.028
Mof_C 	C 	0.6497	0.14977	0.0096	-0.028
Mof_H 	H 	0.5698	0.1685	0.0343	0.031
Mof_C 	C 	0.6243	0.22334	0.8658	0.097
Mof_C 	C 	0.7313	0.25767	0.8285	-0.079
Mof_H 	H 	0.8467	0.2447	0.8401	0.075
Mof_N 	N 	0.7604	0.95494	0.89994	-0.219
Mof_N 	N 	0.5732	0.88742	0.79665	-0.133
Mof_N 	N 	0.946	0.97138	0.13624	-0.193
Mof_N 	N 	0.9356	0.96892	0.2928	-0.137
Mof_N 	N 	0.1486	0.5844	0.51008	-0.243
Mof_N 	N 	0.3062	0.66926	0.57222	-0.137
Mof_C 	C 	0.7411	0.89805	0.8635	0.099
Mof_H 	H 	0.8317	0.8686	0.8814	0.007
Mof_C 	C 	0.594	0.9822	0.8547	0.05
Mof_H 	H 	0.566	0.0227	0.8667	0.001
Mof_C 	C 	0.4788	0.94134	0.7906	-0.019
Mof_H 	H 	0.3596	0.9483	0.7505	0.045
Mof_C 	C 	0.5062	0.83071	0.742	0.089
Mof_C 	C 	0.3348	0.81172	0.7265	-0.08
Mof_H 	H 	0.2645	0.8351	0.7527	0.054
Mof_C 	C 	0.6134	0.79615	0.7045	-0.078
Mof_H 	H 	0.728	0.8095	0.7148	0.068
Mof_C 	C 	0.5481	0.7415	0.6516	-0.072
Mof_H 	H 	0.6199	0.7171	0.6278	0.061
Mof_C 	C 	0.0116	0.99474	0.23051	0.052
Mof_H 	H 	0.0993	0.0252	0.2516	-0.022
Mof_C 	C 	0.8224	0.92769	0.1389	0.002
Mof_H 	H 	0.7538	0.9034	0.0831	0.015
Mof_C 	C 	0.8156	0.92531	0.2341	0.012
Mof_H 	H 	0.7443	0.8994	0.2558	0.028
Mof_C 	C 	0.969	0.98482	0.39857	0.271
Mof_C 	C 	0.0253	0.04436	0.4344	-0.305
Mof_H 	H 	0.0419	0.0739	0.3901	0.121
Mof_C 	C 	0.9431	0.94036	0.4637	-0.24
Mof_H 	H 	0.9049	0.9006	0.4392	0.125
Mof_C 	C 	0.1849	0.62855	0.5806	0.088
Mof_H 	H 	0.1334	0.6314	0.63	-0.018
Mof_C 	C 	0.2533	0.59794	0.4538	-0.006
Mof_H 	H 	0.2565	0.5746	0.3983	0.015
Mof_C 	C 	0.3503	0.64977	0.4904	-0.006
Mof_H 	H 	0.4302	0.6685	0.4657	0.035
Mof_C 	C 	0.3757	0.72334	0.6342	0.081
Mof_C 	C 	0.2687	0.75767	0.6715	-0.075
Mof_H 	H 	0.1533	0.7447	0.6599	0.048
Mof_Co	Co	-5.04671e-17	0.5	0.5	1.095
Mof_Co	Co	-0	0	-0	1.068
_end
