data_functionalizedCrystal
_audit_creation_method	'EQeq! by Chris Wilmer'
_symmetry_space_group_name_H-M	'P1'
_symmetry_Int_Tables_number	1
_symmetry_cell_setting	triclinic
loop_
_symmetry_equiv_pos_as_xyz
  x,y,z
_cell_length_a	13.35
_cell_length_b	13.35
_cell_length_c	17.843
_cell_angle_alpha	90
_cell_angle_beta	90
_cell_angle_gamma	120
loop_
_atom_site_label
_atom_site_type_symbol
_atom_site_fract_x
_atom_site_fract_y
_atom_site_fract_z
_atom_site_charge
Mof_Ga	Ga	0.85886	0.29249	0.03983	3.535
Mof_P 	P 	0.63163	0.12718	0.94623	0.7
Mof_H 	H 	0.688	0.18	0.8843	-0.107
Mof_P 	P 	0.97445	0.16139	0.12923	0.954
Mof_H 	H 	0.054	0.258	0.16	-0.257
Mof_O 	O 	0.5714	0.9995	0.9269	-0.782
Mof_O 	O 	0.028	0.1352	0.0608	-0.897
Mof_O 	O 	0.719	0.1523	0.0082	-1.014
Mof_O 	O 	0.8819	0.1905	0.1076	-0.895
Mof_O 	O 	0.9256	0.0668	0.1881	-0.618
Mof_O 	O 	0.5484	0.1703	0.9638	-0.859
Mof_O 	O 	0.7746	0.3246	0.1173	-0.835
Mof_Ga	Ga	0.70751	0.56637	0.03983	3.441
Mof_P 	P 	0.87282	0.50445	0.94623	0.975
Mof_H 	H 	0.82	0.508	0.8843	-0.105
Mof_P 	P 	0.83861	0.81306	0.12923	0.651
Mof_H 	H 	0.742	0.796	0.16	-0.084
Mof_O 	O 	0.0005	0.5719	0.9269	-1.071
Mof_O 	O 	0.8648	0.8928	0.0608	-0.543
Mof_O 	O 	0.8477	0.5667	0.0082	-0.96
Mof_O 	O 	0.8095	0.6914	0.1076	-0.822
Mof_O 	O 	0.9332	0.8588	0.1881	-0.417
Mof_O 	O 	0.8297	0.3781	0.9638	-0.881
Mof_O 	O 	0.6754	0.45	0.1173	-0.822
Mof_Ga	Ga	0.43363	0.14114	0.03983	3.258
Mof_P 	P 	0.49555	0.36837	0.94623	0.824
Mof_H 	H 	0.492	0.312	0.8843	-0.118
Mof_P 	P 	0.18694	0.02555	0.12923	0.323
Mof_H 	H 	0.204	0.946	0.16	0.038
Mof_O 	O 	0.4281	0.4286	0.9269	-0.916
Mof_O 	O 	0.1072	0.972	0.0608	-0.513
Mof_O 	O 	0.4333	0.281	0.0082	-0.962
Mof_O 	O 	0.3086	0.1181	0.1076	-0.815
Mof_O 	O 	0.1412	0.0744	0.1881	-0.634
Mof_O 	O 	0.6219	0.4516	0.9638	-0.88
Mof_O 	O 	0.55	0.2254	0.1173	-0.819
Mof_Ga	Ga	0.29249	0.85886	0.46017	3.662
Mof_P 	P 	0.12718	0.63163	0.55377	0.65
Mof_H 	H 	0.18	0.688	0.6157	-0.108
Mof_P 	P 	0.16139	0.97445	0.37077	0.977
Mof_H 	H 	0.258	0.054	0.34	-0.261
Mof_O 	O 	0.9995	0.5714	0.5731	-0.765
Mof_O 	O 	0.1352	0.028	0.4392	-0.922
Mof_O 	O 	0.1523	0.719	0.4918	-0.983
Mof_O 	O 	0.1905	0.8819	0.3924	-0.911
Mof_O 	O 	0.0668	0.9256	0.3119	-0.617
Mof_O 	O 	0.1703	0.5484	0.5362	-0.907
Mof_O 	O 	0.3246	0.7746	0.3827	-0.85
Mof_Ga	Ga	0.56637	0.70751	0.46017	3.556
Mof_P 	P 	0.50445	0.87282	0.55377	0.935
Mof_H 	H 	0.508	0.82	0.6157	-0.105
Mof_P 	P 	0.81306	0.83861	0.37077	0.664
Mof_H 	H 	0.796	0.742	0.34	-0.085
Mof_O 	O 	0.5719	0.0005	0.5731	-1.06
Mof_O 	O 	0.8928	0.8648	0.4392	-0.567
Mof_O 	O 	0.5667	0.8477	0.4918	-0.933
Mof_O 	O 	0.6914	0.8095	0.3924	-0.837
Mof_O 	O 	0.8588	0.9332	0.3119	-0.419
Mof_O 	O 	0.3781	0.8297	0.5362	-0.93
Mof_O 	O 	0.45	0.6754	0.3827	-0.836
Mof_Ga	Ga	0.14114	0.43363	0.46017	3.38
Mof_P 	P 	0.36837	0.49555	0.55377	0.787
Mof_H 	H 	0.312	0.492	0.6157	-0.118
Mof_P 	P 	0.02555	0.18694	0.37077	0.347
Mof_H 	H 	0.946	0.204	0.34	0.032
Mof_O 	O 	0.4286	0.4281	0.5731	-0.908
Mof_O 	O 	0.972	0.1072	0.4392	-0.547
Mof_O 	O 	0.281	0.4333	0.4918	-0.936
Mof_O 	O 	0.1181	0.3086	0.3924	-0.831
Mof_O 	O 	0.0744	0.1412	0.3119	-0.638
Mof_O 	O 	0.4516	0.6219	0.5362	-0.923
Mof_O 	O 	0.2254	0.55	0.3827	-0.833
Mof_Ga	Ga	0.14114	0.70751	0.96017	3.511
Mof_P 	P 	0.36837	0.87282	0.05377	0.911
Mof_H 	H 	0.312	0.82	0.1157	-0.112
Mof_P 	P 	0.02555	0.83861	0.87077	0.371
Mof_H 	H 	0.946	0.742	0.84	0.043
Mof_O 	O 	0.4286	0.0005	0.0731	-1.055
Mof_O 	O 	0.972	0.8648	0.9392	-0.395
Mof_O 	O 	0.281	0.8477	0.9918	-0.895
Mof_O 	O 	0.1181	0.8095	0.8924	-0.818
Mof_O 	O 	0.0744	0.9332	0.8119	-0.488
Mof_O 	O 	0.4516	0.8297	0.0362	-0.966
Mof_O 	O 	0.2254	0.6754	0.8827	-0.842
Mof_Ga	Ga	0.29249	0.43363	0.96017	3.62
Mof_P 	P 	0.12718	0.49555	0.05377	0.614
Mof_H 	H 	0.18	0.492	0.1157	-0.115
Mof_P 	P 	0.16139	0.18694	0.87077	0.654
Mof_H 	H 	0.258	0.204	0.84	-0.121
Mof_O 	O 	0.9995	0.4281	0.0731	-0.753
Mof_O 	O 	0.1352	0.1072	0.9392	-0.731
Mof_O 	O 	0.1523	0.4333	0.9918	-0.943
Mof_O 	O 	0.1905	0.3086	0.8924	-0.892
Mof_O 	O 	0.0668	0.1412	0.8119	-0.707
Mof_O 	O 	0.1703	0.6219	0.0362	-0.945
Mof_O 	O 	0.3246	0.55	0.8827	-0.857
Mof_Ga	Ga	0.56637	0.85886	0.96017	3.767
Mof_P 	P 	0.50445	0.63163	0.05377	0.763
Mof_H 	H 	0.508	0.688	0.1157	-0.102
Mof_P 	P 	0.81306	0.97445	0.87077	0.923
Mof_H 	H 	0.796	0.054	0.84	-0.213
Mof_O 	O 	0.5719	0.5714	0.0731	-0.906
Mof_O 	O 	0.8928	0.028	0.9392	-0.701
Mof_O 	O 	0.5667	0.719	0.9918	-0.935
Mof_O 	O 	0.6914	0.8819	0.8924	-0.891
Mof_O 	O 	0.8588	0.9256	0.8119	-0.484
Mof_O 	O 	0.3781	0.5484	0.0362	-0.956
Mof_O 	O 	0.45	0.7746	0.8827	-0.856
Mof_Ga	Ga	0.70751	0.14114	0.53983	3.415
Mof_P 	P 	0.87282	0.36837	0.44623	0.935
Mof_H 	H 	0.82	0.312	0.3843	-0.113
Mof_P 	P 	0.83861	0.02555	0.62923	0.387
Mof_H 	H 	0.742	0.946	0.66	0.034
Mof_O 	O 	0.0005	0.4286	0.4269	-1.06
Mof_O 	O 	0.8648	0.972	0.5608	-0.46
Mof_O 	O 	0.8477	0.281	0.5082	-0.916
Mof_O 	O 	0.8095	0.1181	0.6076	-0.809
Mof_O 	O 	0.9332	0.0744	0.6881	-0.485
Mof_O 	O 	0.8297	0.4516	0.4638	-0.932
Mof_O 	O 	0.6754	0.2254	0.6173	-0.83
Mof_Ga	Ga	0.43363	0.29249	0.53983	3.508
Mof_P 	P 	0.49555	0.12718	0.44623	0.643
Mof_H 	H 	0.492	0.18	0.3843	-0.116
Mof_P 	P 	0.18694	0.16139	0.62923	0.658
Mof_H 	H 	0.204	0.258	0.66	-0.126
Mof_O 	O 	0.4281	0.9995	0.4269	-0.76
Mof_O 	O 	0.1072	0.1352	0.5608	-0.8
Mof_O 	O 	0.4333	0.1523	0.5082	-0.97
Mof_O 	O 	0.3086	0.1905	0.6076	-0.883
Mof_O 	O 	0.1412	0.0668	0.6881	-0.71
Mof_O 	O 	0.6219	0.1703	0.4638	-0.912
Mof_O 	O 	0.55	0.3246	0.6173	-0.843
Mof_Ga	Ga	0.85886	0.56637	0.53983	3.675
Mof_P 	P 	0.63163	0.50445	0.44623	0.796
Mof_H 	H 	0.688	0.508	0.3843	-0.103
Mof_P 	P 	0.97445	0.81306	0.62923	0.947
Mof_H 	H 	0.054	0.796	0.66	-0.227
Mof_O 	O 	0.5714	0.5719	0.4269	-0.915
Mof_O 	O 	0.028	0.8928	0.5608	-0.782
Mof_O 	O 	0.719	0.5667	0.5082	-0.964
Mof_O 	O 	0.8819	0.6914	0.6076	-0.885
Mof_O 	O 	0.9256	0.8588	0.6881	-0.489
Mof_O 	O 	0.5484	0.3781	0.4638	-0.916
Mof_O 	O 	0.7746	0.45	0.6173	-0.844
Mof_Ga	Ga	2.29155e-33	-4.5831e-33	0.25	1.983
Mof_Ga	Ga	2.74986e-32	1.83324e-32	0.75	2.013
Mof_Ga	Ga	-0	0	-0	2.02
Mof_Ga	Ga	4.5831e-33	-9.1662e-33	0.5	2.274
Mof_P 	P 	0.66667	0.33333	0.1377	0.761
Mof_H 	H 	0.66667	0.33333	0.211	-0.067
Mof_P 	P 	0.33333	0.66667	0.3623	0.778
Mof_H 	H 	0.33333	0.66667	0.289	-0.07
Mof_P 	P 	0.33333	0.66667	0.8623	0.793
Mof_H 	H 	0.33333	0.66667	0.789	-0.073
Mof_P 	P 	0.66667	0.33333	0.6377	0.778
Mof_H 	H 	0.66667	0.33333	0.711	-0.069
_end
