data_functionalizedCrystal
_audit_creation_method	'EQeq! by Chris Wilmer'
_symmetry_space_group_name_H-M	'P1'
_symmetry_Int_Tables_number	1
_symmetry_cell_setting	triclinic
loop_
_symmetry_equiv_pos_as_xyz
  x,y,z
_cell_length_a	15.1606
_cell_length_b	15.1606
_cell_length_c	12.0474
_cell_angle_alpha	90
_cell_angle_beta	90
_cell_angle_gamma	90
loop_
_atom_site_label
_atom_site_type_symbol
_atom_site_fract_x
_atom_site_fract_y
_atom_site_fract_z
_atom_site_charge
Mof_O 	O 	0.619	0.3813	0.6078	-0.523
Mof_O 	O 	0.5968	0.2883	0.747	-0.509
Mof_C 	C 	0.5882	0.3632	0.7024	0.441
Mof_C 	C 	0.54092	0.43124	0.7625	-0.126
Mof_C 	C 	0.54092	0.43124	0.8788	-0.01
Mof_H 	H 	0.5713	0.3802	0.9219	0.062
Mof_O 	O 	0.119	0.8813	0.1078	-0.546
Mof_O 	O 	0.0968	0.7883	0.247	-0.519
Mof_C 	C 	0.0882	0.8632	0.2024	0.45
Mof_C 	C 	0.04092	0.93124	0.2625	-0.143
Mof_C 	C 	0.04092	0.93124	0.3788	0.056
Mof_H 	H 	0.0713	0.8802	0.4219	0.022
Mof_O 	O 	0.881	0.1187	0.1078	-0.55
Mof_O 	O 	0.9032	0.2117	0.247	-0.519
Mof_C 	C 	0.9118	0.1368	0.2024	0.451
Mof_C 	C 	0.95908	0.06876	0.2625	-0.153
Mof_C 	C 	0.95908	0.06876	0.3788	0.046
Mof_H 	H 	0.9287	0.1198	0.4219	0.023
Mof_O 	O 	0.381	0.6187	0.6078	-0.523
Mof_O 	O 	0.4032	0.7117	0.747	-0.505
Mof_C 	C 	0.4118	0.6368	0.7024	0.442
Mof_C 	C 	0.45908	0.56876	0.7625	-0.125
Mof_C 	C 	0.45908	0.56876	0.8788	-0.009
Mof_H 	H 	0.4287	0.6198	0.9219	0.064
Mof_O 	O 	0.6187	0.119	0.8578	-0.556
Mof_O 	O 	0.7117	0.0968	0.997	-0.507
Mof_C 	C 	0.6368	0.0882	0.9524	0.607
Mof_C 	C 	0.56876	0.04092	0.0125	-0.445
Mof_C 	C 	0.56876	0.04092	0.1288	0.171
Mof_H 	H 	0.6198	0.0713	0.1719	-0.025
Mof_O 	O 	0.1187	0.619	0.3578	-0.532
Mof_O 	O 	0.2117	0.5968	0.497	-0.518
Mof_C 	C 	0.1368	0.5882	0.4524	0.454
Mof_C 	C 	0.06876	0.54092	0.5125	-0.165
Mof_C 	C 	0.06876	0.54092	0.6288	0.055
Mof_H 	H 	0.1198	0.5713	0.6719	0.021
Mof_O 	O 	0.8813	0.381	0.3578	-0.529
Mof_O 	O 	0.7883	0.4032	0.497	-0.516
Mof_C 	C 	0.8632	0.4118	0.4524	0.453
Mof_C 	C 	0.93124	0.45908	0.5125	-0.157
Mof_C 	C 	0.93124	0.45908	0.6288	0.064
Mof_H 	H 	0.8802	0.4287	0.6719	0.021
Mof_O 	O 	0.3813	0.881	0.8578	-0.549
Mof_O 	O 	0.2883	0.9032	0.997	-0.502
Mof_C 	C 	0.3632	0.9118	0.9524	0.608
Mof_C 	C 	0.43124	0.95908	0.0125	-0.43
Mof_C 	C 	0.43124	0.95908	0.1288	0.19
Mof_H 	H 	0.3802	0.9287	0.1719	-0.026
Mof_O 	O 	0.881	0.3813	0.1422	-0.492
Mof_O 	O 	0.9032	0.2883	0.003	-0.514
Mof_C 	C 	0.9118	0.3632	0.0476	0.285
Mof_C 	C 	0.95908	0.43124	0.9875	0.155
Mof_C 	C 	0.95908	0.43124	0.8712	-0.1
Mof_H 	H 	0.9287	0.3802	0.8281	0.076
Mof_O 	O 	0.381	0.8813	0.6422	-0.514
Mof_O 	O 	0.4032	0.7883	0.503	-0.512
Mof_C 	C 	0.4118	0.8632	0.5476	0.441
Mof_C 	C 	0.45908	0.93124	0.4875	-0.12
Mof_C 	C 	0.45908	0.93124	0.3712	0.029
Mof_H 	H 	0.4287	0.8802	0.3281	0.029
Mof_O 	O 	0.619	0.1187	0.6422	-0.522
Mof_O 	O 	0.5968	0.2117	0.503	-0.515
Mof_C 	C 	0.5882	0.1368	0.5476	0.443
Mof_C 	C 	0.54092	0.06876	0.4875	-0.139
Mof_C 	C 	0.54092	0.06876	0.3712	0.01
Mof_H 	H 	0.5713	0.1198	0.3281	0.03
Mof_O 	O 	0.119	0.6187	0.1422	-0.496
Mof_O 	O 	0.0968	0.7117	0.003	-0.515
Mof_C 	C 	0.0882	0.6368	0.0476	0.286
Mof_C 	C 	0.04092	0.56876	0.9875	0.146
Mof_C 	C 	0.04092	0.56876	0.8712	-0.108
Mof_H 	H 	0.0713	0.6198	0.8281	0.077
Mof_O 	O 	0.8813	0.119	0.8922	-0.487
Mof_O 	O 	0.7883	0.0968	0.753	-0.51
Mof_C 	C 	0.8632	0.0882	0.7976	0.437
Mof_C 	C 	0.93124	0.04092	0.7375	-0.127
Mof_C 	C 	0.93124	0.04092	0.6212	0.035
Mof_H 	H 	0.8802	0.0713	0.5781	0.026
Mof_O 	O 	0.3813	0.619	0.3922	-0.53
Mof_O 	O 	0.2883	0.5968	0.253	-0.526
Mof_C 	C 	0.3632	0.5882	0.2976	0.46
Mof_C 	C 	0.43124	0.54092	0.2375	-0.185
Mof_C 	C 	0.43124	0.54092	0.1212	0.075
Mof_H 	H 	0.3802	0.5713	0.0781	-0.011
Mof_O 	O 	0.6187	0.381	0.3922	-0.53
Mof_O 	O 	0.7117	0.4032	0.253	-0.525
Mof_C 	C 	0.6368	0.4118	0.2976	0.46
Mof_C 	C 	0.56876	0.45908	0.2375	-0.185
Mof_C 	C 	0.56876	0.45908	0.1212	0.075
Mof_H 	H 	0.6198	0.4287	0.0781	-0.01
Mof_O 	O 	0.1187	0.881	0.8922	-0.483
Mof_O 	O 	0.2117	0.9032	0.753	-0.505
Mof_C 	C 	0.1368	0.9118	0.7976	0.436
Mof_C 	C 	0.06876	0.95908	0.7375	-0.115
Mof_C 	C 	0.06876	0.95908	0.6212	0.046
Mof_H 	H 	0.1198	0.9287	0.5781	0.026
Mof_V 	V 	0.68671	0.31329	0.5	1.789
Mof_V 	V 	0.18671	0.81329	-0	1.758
Mof_V 	V 	0.81329	0.18671	-0	1.758
Mof_V 	V 	0.31329	0.68671	0.5	1.789
Mof_V 	V 	0.68671	0.18671	0.75	1.79
Mof_V 	V 	0.18671	0.68671	0.25	1.788
Mof_V 	V 	0.81329	0.31329	0.25	1.788
Mof_V 	V 	0.31329	0.81329	0.75	1.791
Mof_O 	O 	0.7514	0.25	0.625	-0.676
Mof_H 	H 	0.8226	0.25	0.625	0.149
Mof_O 	O 	0.2514	0.75	0.125	-0.687
Mof_H 	H 	0.3226	0.75	0.125	0.135
Mof_O 	O 	0.7486	0.25	0.125	-0.687
Mof_H 	H 	0.6774	0.25	0.125	0.134
Mof_O 	O 	0.2486	0.75	0.625	-0.675
Mof_H 	H 	0.1774	0.75	0.625	0.149
Mof_O 	O 	0.75	0.2514	0.875	-0.654
Mof_H 	H 	0.75	0.3226	0.875	0.162
Mof_O 	O 	0.25	0.7514	0.375	-0.676
Mof_H 	H 	0.25	0.8226	0.375	0.149
Mof_O 	O 	0.75	0.2486	0.375	-0.676
Mof_H 	H 	0.75	0.1774	0.375	0.147
Mof_O 	O 	0.25	0.7486	0.875	-0.654
Mof_H 	H 	0.25	0.6774	0.875	0.162
Mof_C 	C 	0.5	0.5	0.7044	0.077
Mof_C 	C 	0.5	0.5	0.9369	0.098
Mof_H 	H 	0.5	0.5	0.6181	0.047
Mof_C 	C 	6.09003e-34	2.2791e-33	0.2044	0.061
Mof_C 	C 	1.30173e-33	4.55821e-33	0.4369	-0.054
Mof_H 	H 	3.51875e-34	1.13955e-33	0.1181	0.023
Mof_C 	C 	0.5	9.11642e-33	0.9544	0.409
Mof_C 	C 	0.5	1.13955e-33	0.1869	-0.151
Mof_H 	H 	0.5	9.11642e-33	0.8681	-0.042
Mof_C 	C 	1.35387e-33	0.5	0.4544	0.094
Mof_C 	C 	-7.06982e-33	0.5	0.6869	-0.069
Mof_H 	H 	-1.18236e-33	0.5	0.3681	0.033
Mof_C 	C 	-7.18801e-34	0.5	0.0456	-0.26
Mof_C 	C 	-2.1356e-33	0.5	0.8131	0.084
Mof_H 	H 	2.6721e-33	0.5	0.1319	0.124
Mof_C 	C 	0.5	4.55821e-33	0.5456	0.057
Mof_C 	C 	0.5	4.55821e-33	0.3131	-0.001
Mof_H 	H 	0.5	9.11642e-33	0.6319	0.049
Mof_C 	C 	-2.18775e-33	4.55821e-33	0.7956	0.047
Mof_C 	C 	6.23595e-33	4.55821e-33	0.5631	-0.043
Mof_H 	H 	2.62759e-33	9.11642e-33	0.8819	0.062
Mof_C 	C 	0.5	0.5	0.2956	0.117
Mof_C 	C 	0.5	0.5	0.0631	-0.14
Mof_H 	H 	0.5	0.5	0.3819	0.034
_end
