data_functionalizedCrystal
_audit_creation_method	'EQeq! by Chris Wilmer'
_symmetry_space_group_name_H-M	'P1'
_symmetry_Int_Tables_number	1
_symmetry_cell_setting	triclinic
loop_
_symmetry_equiv_pos_as_xyz
  x,y,z
_cell_length_a	8.902
_cell_length_b	11.887
_cell_length_c	14.757
_cell_angle_alpha	90
_cell_angle_beta	90
_cell_angle_gamma	90
loop_
_atom_site_label
_atom_site_type_symbol
_atom_site_fract_x
_atom_site_fract_y
_atom_site_fract_z
_atom_site_charge
Mof_Zn	Zn	0.20358	0.60087	0.61256	1.186
Mof_Zn	Zn	0.29642	0.39913	0.11256	1.185
Mof_Zn	Zn	0.70358	0.89913	0.38744	1.185
Mof_Zn	Zn	0.79642	0.10087	0.88744	1.185
Mof_H 	H 	0.0242	0.015	0.1544	0.301
Mof_H 	H 	0.5242	0.485	0.8456	0.299
Mof_H 	H 	0.573	0.2603	0.2301	0.062
Mof_H 	H 	0.927	0.7397	0.7301	0.062
Mof_H 	H 	0.6321	0.8841	0.1811	0.025
Mof_H 	H 	0.3964	0.6378	0.1513	0.018
Mof_H 	H 	0.5981	0.9992	0.0601	0.055
Mof_H 	H 	0.9019	0.0008	0.5601	0.056
Mof_H 	H 	0.3679	0.3841	0.3189	0.024
Mof_H 	H 	0.4019	0.4992	0.4399	0.057
Mof_H 	H 	0.8679	0.1159	0.6811	0.025
Mof_H 	H 	0.1321	0.6159	0.8189	0.024
Mof_H 	H 	0.9758	0.515	0.3456	0.299
Mof_H 	H 	0.4758	0.985	0.6544	0.297
Mof_H 	H 	0.8964	0.8622	0.8487	0.019
Mof_H 	H 	0.427	0.7603	0.2699	0.062
Mof_H 	H 	0.6036	0.1378	0.3487	0.018
Mof_H 	H 	0.1036	0.3622	0.6513	0.019
Mof_H 	H 	0.073	0.2397	0.7699	0.062
Mof_H 	H 	0.0981	0.5008	0.9399	0.057
Mof_C 	C 	0.9579	0.0199	0.04303	0.367
Mof_C 	C 	0.6202	0.9607	0.1913	0.054
Mof_C 	C 	0.8959	0.8905	0.7899	0.047
Mof_C 	C 	0.6041	0.1095	0.2899	0.047
Mof_C 	C 	0.8773	0.6966	0.42687	-0.041
Mof_C 	C 	0.4131	0.6453	0.36916	0.004
Mof_C 	C 	0.3773	0.8034	0.57313	-0.041
Mof_C 	C 	0.5869	0.1453	0.13084	0.002
Mof_C 	C 	0.6227	0.3034	0.92687	-0.04
Mof_C 	C 	0.0869	0.3547	0.86916	0.004
Mof_C 	C 	0.0421	0.5199	0.45697	0.37
Mof_C 	C 	0.1013	0.4706	0.8818	-0.086
Mof_C 	C 	0.6013	0.0294	0.1182	-0.08
Mof_C 	C 	0.1202	0.5393	0.8087	0.058
Mof_C 	C 	0.5859	0.1839	0.2186	-0.08
Mof_C 	C 	0.0859	0.3161	0.7814	-0.081
Mof_C 	C 	0.3959	0.6095	0.2101	0.047
Mof_C 	C 	0.5421	0.9801	0.54303	0.367
Mof_C 	C 	0.4728	0.871	0.52307	-0.078
Mof_C 	C 	0.9728	0.629	0.47693	-0.078
Mof_C 	C 	0.9131	0.8547	0.63084	0.003
Mof_C 	C 	0.4579	0.4801	0.95697	0.371
Mof_C 	C 	0.8798	0.0393	0.6913	0.057
Mof_C 	C 	0.423	0.7237	0.44655	0.113
Mof_C 	C 	0.5272	0.371	0.97693	-0.079
Mof_C 	C 	0.1227	0.1966	0.07313	-0.041
Mof_C 	C 	0.077	0.2763	0.94655	0.113
Mof_C 	C 	0.9141	0.8161	0.7186	-0.08
Mof_C 	C 	0.8151	0.6835	0.33402	0.302
Mof_C 	C 	0.577	0.2237	0.05345	0.114
Mof_C 	C 	0.923	0.7763	0.55345	0.114
Mof_C 	C 	0.4141	0.6839	0.2814	-0.081
Mof_C 	C 	0.1849	0.1835	0.16598	0.302
Mof_C 	C 	0.1041	0.3905	0.7101	0.047
Mof_C 	C 	0.6849	0.3165	0.83402	0.302
Mof_C 	C 	0.3798	0.4607	0.3087	0.058
Mof_C 	C 	0.8987	0.9706	0.6182	-0.084
Mof_C 	C 	0.0272	0.129	0.02307	-0.074
Mof_C 	C 	0.3151	0.8165	0.66598	0.302
Mof_C 	C 	0.3987	0.5294	0.3818	-0.086
Mof_N 	N 	0.8435	0.791	0.47625	-0.226
Mof_N 	N 	0.0005	0.6798	0.55729	-0.216
Mof_N 	N 	0.5005	0.8202	0.44271	-0.215
Mof_N 	N 	0.9995	0.1798	0.94271	-0.216
Mof_N 	N 	0.3774	0.4979	0.22209	-0.241
Mof_N 	N 	0.3435	0.709	0.52375	-0.226
Mof_N 	N 	0.1226	0.5021	0.72209	-0.241
Mof_N 	N 	0.8774	0.0021	0.77791	-0.241
Mof_N 	N 	0.6565	0.209	0.97625	-0.226
Mof_N 	N 	0.6226	0.9979	0.27791	-0.241
Mof_N 	N 	0.1565	0.291	0.02375	-0.226
Mof_N 	N 	0.4995	0.3202	0.05729	-0.215
Mof_O 	O 	0.4922	0.53092	0.88229	-0.471
Mof_O 	O 	0.2465	0.73624	0.69934	-0.416
Mof_O 	O 	0.3383	0.9095	0.70582	-0.265
Mof_O 	O 	0.5078	0.03092	0.61771	-0.467
Mof_O 	O 	0.6617	0.4095	0.79418	-0.264
Mof_O 	O 	0.6336	0.01949	0.48807	-0.42
Mof_O 	O 	0.1336	0.48051	0.51193	-0.422
Mof_O 	O 	0.0078	0.46908	0.38229	-0.471
Mof_O 	O 	0.7535	0.23624	0.80066	-0.416
Mof_O 	O 	0.7465	0.76376	0.30066	-0.416
Mof_O 	O 	0.1617	0.0905	0.20582	-0.264
Mof_O 	O 	0.8383	0.5905	0.29418	-0.265
Mof_O 	O 	0.2535	0.26376	0.19934	-0.416
Mof_O 	O 	0.9922	0.96908	0.11771	-0.472
Mof_O 	O 	0.8664	0.98051	0.98807	-0.42
Mof_O 	O 	0.3664	0.51949	0.01193	-0.422
_end
