data_functionalizedCrystal
_audit_creation_method	'EQeq! by Chris Wilmer'
_symmetry_space_group_name_H-M	'P1'
_symmetry_Int_Tables_number	1
_symmetry_cell_setting	triclinic
loop_
_symmetry_equiv_pos_as_xyz
  x,y,z
_cell_length_a	19.46
_cell_length_b	24.2
_cell_length_c	13.81
_cell_angle_alpha	90
_cell_angle_beta	121.17
_cell_angle_gamma	90
loop_
_atom_site_label
_atom_site_type_symbol
_atom_site_fract_x
_atom_site_fract_y
_atom_site_fract_z
_atom_site_charge
Mof_Cd	Cd	0.83253	0.89061	0.54518	0.366
Mof_C 	C 	0.7627	0.7733	0.9289	0.106
Mof_N 	N 	0.8063	0.7914	0.0349	-0.087
Mof_N 	N 	0.7075	0.7335	0.8889	-0.084
Mof_N 	N 	0.8087	0.8475	0.6853	-0.148
Mof_C 	C 	0.8399	0.8701	0.7862	0.068
Mof_H 	H 	0.8715	0.9026	0.8034	0.03
Mof_C 	C 	0.8266	0.8462	0.8711	-0.107
Mof_H 	H 	0.8502	0.8622	0.9443	0.079
Mof_C 	C 	0.7783	0.799	0.8436	0.058
Mof_C 	C 	0.7448	0.7784	0.7349	-0.119
Mof_H 	H 	0.71	0.7473	0.7115	0.084
Mof_C 	C 	0.7626	0.8036	0.6613	0.078
Mof_H 	H 	0.7399	0.7882	0.5877	0.002
Mof_N 	N 	0.048	0.5877	0.5318	-0.086
Mof_N 	N 	0.0035	0.6304	0.526	-0.084
Mof_C 	C 	0.0304	0.6812	0.5187	0.09
Mof_N 	N 	0.0923	0.6905	0.5069	-0.079
Mof_N 	N 	0.136	0.6474	0.5118	-0.08
Mof_C 	C 	0.114	0.5981	0.528	0.092
Mof_N 	N 	0.9006	0.8184	0.5319	-0.157
Mof_C 	C 	0.9375	0.8199	0.4737	0.089
Mof_H 	H 	0.9345	0.8534	0.4359	0.006
Mof_C 	C 	0.9791	0.7775	0.4636	-0.136
Mof_H 	H 	0.0041	0.7813	0.4204	0.096
Mof_C 	C 	0.9837	0.728	0.5196	0.066
Mof_C 	C 	0.9472	0.7258	0.5824	-0.129
Mof_H 	H 	0.9506	0.6933	0.623	0.081
Mof_C 	C 	0.9059	0.7709	0.586	0.079
Mof_H 	H 	0.8801	0.7685	0.6283	0.011
Mof_N 	N 	0.7563	0.9625	0.5425	-0.156
Mof_C 	C 	0.7802	0.0139	0.5455	0.082
Mof_H 	H 	0.8287	0.02	0.5463	0.017
Mof_C 	C 	0.7381	0.0591	0.5476	-0.125
Mof_H 	H 	0.7596	0.0953	0.5565	0.091
Mof_C 	C 	0.1637	0.551	0.5366	0.062
Mof_C 	C 	0.1371	0.4969	0.532	-0.118
Mof_H 	H 	0.0878	0.4897	0.5283	0.09
Mof_C 	C 	0.6849	0.9537	0.5332	0.072
Mof_H 	H 	0.6664	0.9168	0.5272	0.014
Mof_O 	O 	0.9336	0.9464	0.692	-0.087
Mof_O 	O 	0.9516	0.9452	0.6542	-0.089
Mof_Cd	Cd	0.33253	0.39061	0.54518	0.365
Mof_C 	C 	0.2627	0.2733	0.9289	0.104
Mof_N 	N 	0.3063	0.2914	0.0349	-0.086
Mof_N 	N 	0.2075	0.2335	0.8889	-0.083
Mof_N 	N 	0.3087	0.3475	0.6853	-0.148
Mof_C 	C 	0.3399	0.3701	0.7862	0.068
Mof_H 	H 	0.3715	0.4026	0.8034	0.03
Mof_C 	C 	0.3266	0.3462	0.8711	-0.107
Mof_H 	H 	0.3502	0.3622	0.9443	0.079
Mof_C 	C 	0.2783	0.299	0.8436	0.059
Mof_C 	C 	0.2448	0.2784	0.7349	-0.119
Mof_H 	H 	0.21	0.2473	0.7115	0.084
Mof_C 	C 	0.2626	0.3036	0.6613	0.078
Mof_H 	H 	0.2399	0.2882	0.5877	0.002
Mof_N 	N 	0.548	0.0877	0.5318	-0.086
Mof_N 	N 	0.5035	0.1304	0.526	-0.085
Mof_C 	C 	0.5304	0.1812	0.5187	0.088
Mof_N 	N 	0.5923	0.1905	0.5069	-0.079
Mof_N 	N 	0.636	0.1474	0.5118	-0.08
Mof_C 	C 	0.614	0.0981	0.528	0.091
Mof_N 	N 	0.4006	0.3184	0.5319	-0.157
Mof_C 	C 	0.4375	0.3199	0.4737	0.086
Mof_H 	H 	0.4345	0.3534	0.4359	0.008
Mof_C 	C 	0.4791	0.2775	0.4636	-0.13
Mof_H 	H 	0.5041	0.2813	0.4204	0.092
Mof_C 	C 	0.4837	0.228	0.5196	0.067
Mof_C 	C 	0.4472	0.2258	0.5824	-0.129
Mof_H 	H 	0.4506	0.1933	0.623	0.082
Mof_C 	C 	0.4059	0.2709	0.586	0.079
Mof_H 	H 	0.3801	0.2685	0.6283	0.011
Mof_N 	N 	0.2563	0.4625	0.5425	-0.156
Mof_C 	C 	0.2802	0.5139	0.5455	0.082
Mof_H 	H 	0.3287	0.52	0.5463	0.017
Mof_C 	C 	0.2381	0.5591	0.5476	-0.125
Mof_H 	H 	0.2596	0.5953	0.5565	0.091
Mof_C 	C 	0.6637	0.051	0.5366	0.061
Mof_C 	C 	0.6371	0.9969	0.532	-0.118
Mof_H 	H 	0.5878	0.9897	0.5283	0.09
Mof_C 	C 	0.1849	0.4537	0.5332	0.072
Mof_H 	H 	0.1664	0.4168	0.5272	0.014
Mof_O 	O 	0.4336	0.4464	0.692	-0.086
Mof_O 	O 	0.4516	0.4452	0.6542	-0.088
Mof_Cd	Cd	0.16747	0.89061	0.95482	0.365
Mof_C 	C 	0.2373	0.7733	0.5711	0.104
Mof_N 	N 	0.1937	0.7914	0.4651	-0.086
Mof_N 	N 	0.2925	0.7335	0.6111	-0.083
Mof_N 	N 	0.1913	0.8475	0.8147	-0.148
Mof_C 	C 	0.1601	0.8701	0.7138	0.068
Mof_H 	H 	0.1285	0.9026	0.6966	0.031
Mof_C 	C 	0.1734	0.8462	0.6289	-0.106
Mof_H 	H 	0.1498	0.8622	0.5557	0.079
Mof_C 	C 	0.2217	0.799	0.6564	0.059
Mof_C 	C 	0.2552	0.7784	0.7651	-0.119
Mof_H 	H 	0.29	0.7473	0.7885	0.084
Mof_C 	C 	0.2374	0.8036	0.8387	0.078
Mof_H 	H 	0.2601	0.7882	0.9123	0.002
Mof_N 	N 	0.952	0.5877	0.9682	-0.087
Mof_N 	N 	0.9965	0.6304	0.974	-0.086
Mof_C 	C 	0.9696	0.6812	0.9813	0.086
Mof_N 	N 	0.9077	0.6905	0.9931	-0.079
Mof_N 	N 	0.864	0.6474	0.9882	-0.08
Mof_C 	C 	0.886	0.5981	0.972	0.091
Mof_N 	N 	0.0994	0.8184	0.9681	-0.156
Mof_C 	C 	0.0625	0.8199	0.0263	0.083
Mof_H 	H 	0.0655	0.8534	0.0641	0.01
Mof_C 	C 	0.0209	0.7775	0.0364	-0.122
Mof_H 	H 	0.9959	0.7813	0.0796	0.087
Mof_C 	C 	0.0163	0.728	0.9804	0.066
Mof_C 	C 	0.0528	0.7258	0.9176	-0.128
Mof_H 	H 	0.0494	0.6933	0.877	0.082
Mof_C 	C 	0.0941	0.7709	0.914	0.079
Mof_H 	H 	0.1199	0.7685	0.8717	0.011
Mof_N 	N 	0.2437	0.9625	0.9575	-0.155
Mof_C 	C 	0.2198	0.0139	0.9545	0.082
Mof_H 	H 	0.1713	0.02	0.9537	0.017
Mof_C 	C 	0.2619	0.0591	0.9524	-0.125
Mof_H 	H 	0.2404	0.0953	0.9435	0.091
Mof_C 	C 	0.8363	0.551	0.9634	0.061
Mof_C 	C 	0.8629	0.4969	0.968	-0.118
Mof_H 	H 	0.9122	0.4897	0.9717	0.089
Mof_C 	C 	0.3151	0.9537	0.9668	0.072
Mof_H 	H 	0.3336	0.9168	0.9728	0.014
Mof_O 	O 	0.0664	0.9464	0.808	-0.086
Mof_O 	O 	0.0484	0.9452	0.8458	-0.087
Mof_Cd	Cd	0.66747	0.39061	0.95482	0.365
Mof_C 	C 	0.7373	0.2733	0.5711	0.104
Mof_N 	N 	0.6937	0.2914	0.4651	-0.086
Mof_N 	N 	0.7925	0.2335	0.6111	-0.084
Mof_N 	N 	0.6913	0.3475	0.8147	-0.148
Mof_C 	C 	0.6601	0.3701	0.7138	0.068
Mof_H 	H 	0.6285	0.4026	0.6966	0.03
Mof_C 	C 	0.6734	0.3462	0.6289	-0.107
Mof_H 	H 	0.6498	0.3622	0.5557	0.079
Mof_C 	C 	0.7217	0.299	0.6564	0.058
Mof_C 	C 	0.7552	0.2784	0.7651	-0.119
Mof_H 	H 	0.79	0.2473	0.7885	0.084
Mof_C 	C 	0.7374	0.3036	0.8387	0.078
Mof_H 	H 	0.7601	0.2882	0.9123	0.002
Mof_N 	N 	0.452	0.0877	0.9682	-0.086
Mof_N 	N 	0.4965	0.1304	0.974	-0.085
Mof_C 	C 	0.4696	0.1812	0.9813	0.088
Mof_N 	N 	0.4077	0.1905	0.9931	-0.079
Mof_N 	N 	0.364	0.1474	0.9882	-0.08
Mof_C 	C 	0.386	0.0981	0.972	0.092
Mof_N 	N 	0.5994	0.3184	0.9681	-0.156
Mof_C 	C 	0.5625	0.3199	0.0263	0.086
Mof_H 	H 	0.5655	0.3534	0.0641	0.008
Mof_C 	C 	0.5209	0.2775	0.0364	-0.13
Mof_H 	H 	0.4959	0.2813	0.0796	0.092
Mof_C 	C 	0.5163	0.228	0.9804	0.067
Mof_C 	C 	0.5528	0.2258	0.9176	-0.129
Mof_H 	H 	0.5494	0.1933	0.877	0.082
Mof_C 	C 	0.5941	0.2709	0.914	0.079
Mof_H 	H 	0.6199	0.2685	0.8717	0.011
Mof_N 	N 	0.7437	0.4625	0.9575	-0.156
Mof_C 	C 	0.7198	0.5139	0.9545	0.082
Mof_H 	H 	0.6713	0.52	0.9537	0.017
Mof_C 	C 	0.7619	0.5591	0.9524	-0.125
Mof_H 	H 	0.7404	0.5953	0.9435	0.091
Mof_C 	C 	0.3363	0.051	0.9634	0.061
Mof_C 	C 	0.3629	0.9969	0.968	-0.117
Mof_H 	H 	0.4122	0.9897	0.9717	0.09
Mof_C 	C 	0.8151	0.4537	0.9668	0.072
Mof_H 	H 	0.8336	0.4168	0.9728	0.013
Mof_O 	O 	0.5664	0.4464	0.808	-0.086
Mof_O 	O 	0.5484	0.4452	0.8458	-0.088
Mof_Cd	Cd	0.16747	0.10939	0.45482	0.365
Mof_C 	C 	0.2373	0.2267	0.0711	0.104
Mof_N 	N 	0.1937	0.2086	0.9651	-0.086
Mof_N 	N 	0.2925	0.2665	0.1111	-0.084
Mof_N 	N 	0.1913	0.1525	0.3147	-0.148
Mof_C 	C 	0.1601	0.1299	0.2138	0.068
Mof_H 	H 	0.1285	0.0974	0.1966	0.031
Mof_C 	C 	0.1734	0.1538	0.1289	-0.106
Mof_H 	H 	0.1498	0.1378	0.0557	0.079
Mof_C 	C 	0.2217	0.201	0.1564	0.059
Mof_C 	C 	0.2552	0.2216	0.2651	-0.119
Mof_H 	H 	0.29	0.2527	0.2885	0.084
Mof_C 	C 	0.2374	0.1964	0.3387	0.078
Mof_H 	H 	0.2601	0.2118	0.4123	0.002
Mof_N 	N 	0.952	0.4123	0.4682	-0.087
Mof_N 	N 	0.9965	0.3696	0.474	-0.086
Mof_C 	C 	0.9696	0.3188	0.4813	0.085
Mof_N 	N 	0.9077	0.3095	0.4931	-0.079
Mof_N 	N 	0.864	0.3526	0.4882	-0.08
Mof_C 	C 	0.886	0.4019	0.472	0.091
Mof_N 	N 	0.0994	0.1816	0.4681	-0.156
Mof_C 	C 	0.0625	0.1801	0.5263	0.084
Mof_H 	H 	0.0655	0.1466	0.5641	0.009
Mof_C 	C 	0.0209	0.2225	0.5364	-0.125
Mof_H 	H 	0.9959	0.2187	0.5796	0.088
Mof_C 	C 	0.0163	0.272	0.4804	0.068
Mof_C 	C 	0.0528	0.2742	0.4176	-0.129
Mof_H 	H 	0.0494	0.3067	0.377	0.083
Mof_C 	C 	0.0941	0.2291	0.414	0.079
Mof_H 	H 	0.1199	0.2315	0.3717	0.011
Mof_N 	N 	0.2437	0.0375	0.4575	-0.156
Mof_C 	C 	0.2198	0.9861	0.4545	0.082
Mof_H 	H 	0.1713	0.98	0.4537	0.017
Mof_C 	C 	0.2619	0.9409	0.4524	-0.125
Mof_H 	H 	0.2404	0.9047	0.4435	0.091
Mof_C 	C 	0.8363	0.449	0.4634	0.061
Mof_C 	C 	0.8629	0.5031	0.468	-0.118
Mof_H 	H 	0.9122	0.5103	0.4717	0.089
Mof_C 	C 	0.3151	0.0463	0.4668	0.072
Mof_H 	H 	0.3336	0.0832	0.4728	0.014
Mof_O 	O 	0.0664	0.0536	0.308	-0.086
Mof_O 	O 	0.0484	0.0548	0.3458	-0.087
Mof_Cd	Cd	0.66747	0.60939	0.45482	0.365
Mof_C 	C 	0.7373	0.7267	0.0711	0.103
Mof_N 	N 	0.6937	0.7086	0.9651	-0.086
Mof_N 	N 	0.7925	0.7665	0.1111	-0.084
Mof_N 	N 	0.6913	0.6525	0.3147	-0.148
Mof_C 	C 	0.6601	0.6299	0.2138	0.068
Mof_H 	H 	0.6285	0.5974	0.1966	0.03
Mof_C 	C 	0.6734	0.6538	0.1289	-0.107
Mof_H 	H 	0.6498	0.6378	0.0557	0.078
Mof_C 	C 	0.7217	0.701	0.1564	0.058
Mof_C 	C 	0.7552	0.7216	0.2651	-0.119
Mof_H 	H 	0.79	0.7527	0.2885	0.084
Mof_C 	C 	0.7374	0.6964	0.3387	0.078
Mof_H 	H 	0.7601	0.7118	0.4123	0.002
Mof_N 	N 	0.452	0.9123	0.4682	-0.087
Mof_N 	N 	0.4965	0.8696	0.474	-0.085
Mof_C 	C 	0.4696	0.8188	0.4813	0.088
Mof_N 	N 	0.4077	0.8095	0.4931	-0.079
Mof_N 	N 	0.364	0.8526	0.4882	-0.08
Mof_C 	C 	0.386	0.9019	0.472	0.091
Mof_N 	N 	0.5994	0.6816	0.4681	-0.157
Mof_C 	C 	0.5625	0.6801	0.5263	0.086
Mof_H 	H 	0.5655	0.6466	0.5641	0.008
Mof_C 	C 	0.5209	0.7225	0.5364	-0.13
Mof_H 	H 	0.4959	0.7187	0.5796	0.092
Mof_C 	C 	0.5163	0.772	0.4804	0.067
Mof_C 	C 	0.5528	0.7742	0.4176	-0.129
Mof_H 	H 	0.5494	0.8067	0.377	0.082
Mof_C 	C 	0.5941	0.7291	0.414	0.079
Mof_H 	H 	0.6199	0.7315	0.3717	0.011
Mof_N 	N 	0.7437	0.5375	0.4575	-0.156
Mof_C 	C 	0.7198	0.4861	0.4545	0.082
Mof_H 	H 	0.6713	0.48	0.4537	0.017
Mof_C 	C 	0.7619	0.4409	0.4524	-0.125
Mof_H 	H 	0.7404	0.4047	0.4435	0.091
Mof_C 	C 	0.3363	0.949	0.4634	0.061
Mof_C 	C 	0.3629	0.0031	0.468	-0.118
Mof_H 	H 	0.4122	0.0103	0.4717	0.09
Mof_C 	C 	0.8151	0.5463	0.4668	0.072
Mof_H 	H 	0.8336	0.5832	0.4728	0.013
Mof_O 	O 	0.5664	0.5536	0.308	-0.086
Mof_O 	O 	0.5484	0.5548	0.3458	-0.088
Mof_Cd	Cd	0.83253	0.10939	0.04518	0.364
Mof_C 	C 	0.7627	0.2267	0.4289	0.104
Mof_N 	N 	0.8063	0.2086	0.5349	-0.086
Mof_N 	N 	0.7075	0.2665	0.3889	-0.084
Mof_N 	N 	0.8087	0.1525	0.1853	-0.148
Mof_C 	C 	0.8399	0.1299	0.2862	0.068
Mof_H 	H 	0.8715	0.0974	0.3034	0.03
Mof_C 	C 	0.8266	0.1538	0.3711	-0.107
Mof_H 	H 	0.8502	0.1378	0.4443	0.078
Mof_C 	C 	0.7783	0.201	0.3436	0.058
Mof_C 	C 	0.7448	0.2216	0.2349	-0.119
Mof_H 	H 	0.71	0.2527	0.2115	0.084
Mof_C 	C 	0.7626	0.1964	0.1613	0.078
Mof_H 	H 	0.7399	0.2118	0.0877	0.002
Mof_N 	N 	0.048	0.4123	0.0318	-0.086
Mof_N 	N 	0.0035	0.3696	0.026	-0.085
Mof_C 	C 	0.0304	0.3188	0.0187	0.091
Mof_N 	N 	0.0923	0.3095	0.0069	-0.079
Mof_N 	N 	0.136	0.3526	0.0118	-0.08
Mof_C 	C 	0.114	0.4019	0.028	0.091
Mof_N 	N 	0.9006	0.1816	0.0319	-0.157
Mof_C 	C 	0.9375	0.1801	0.9737	0.088
Mof_H 	H 	0.9345	0.1466	0.9359	0.007
Mof_C 	C 	0.9791	0.2225	0.9636	-0.133
Mof_H 	H 	0.0041	0.2187	0.9204	0.095
Mof_C 	C 	0.9837	0.272	0.0196	0.063
Mof_C 	C 	0.9472	0.2742	0.0824	-0.127
Mof_H 	H 	0.9506	0.3067	0.123	0.08
Mof_C 	C 	0.9059	0.2291	0.086	0.078
Mof_H 	H 	0.8801	0.2315	0.1283	0.011
Mof_N 	N 	0.7563	0.0375	0.0425	-0.156
Mof_C 	C 	0.7802	0.9861	0.0455	0.082
Mof_H 	H 	0.8287	0.98	0.0463	0.016
Mof_C 	C 	0.7381	0.9409	0.0476	-0.125
Mof_H 	H 	0.7596	0.9047	0.0565	0.091
Mof_C 	C 	0.1637	0.449	0.0366	0.062
Mof_C 	C 	0.1371	0.5031	0.032	-0.118
Mof_H 	H 	0.0878	0.5103	0.0283	0.09
Mof_C 	C 	0.6849	0.0463	0.0332	0.072
Mof_H 	H 	0.6664	0.0832	0.0272	0.014
Mof_O 	O 	0.9336	0.0536	0.192	-0.087
Mof_O 	O 	0.9516	0.0548	0.1542	-0.09
Mof_Cd	Cd	0.33253	0.60939	0.04518	0.365
Mof_C 	C 	0.2627	0.7267	0.4289	0.104
Mof_N 	N 	0.3063	0.7086	0.5349	-0.086
Mof_N 	N 	0.2075	0.7665	0.3889	-0.083
Mof_N 	N 	0.3087	0.6525	0.1853	-0.148
Mof_C 	C 	0.3399	0.6299	0.2862	0.068
Mof_H 	H 	0.3715	0.5974	0.3034	0.03
Mof_C 	C 	0.3266	0.6538	0.3711	-0.107
Mof_H 	H 	0.3502	0.6378	0.4443	0.079
Mof_C 	C 	0.2783	0.701	0.3436	0.059
Mof_C 	C 	0.2448	0.7216	0.2349	-0.119
Mof_H 	H 	0.21	0.7527	0.2115	0.084
Mof_C 	C 	0.2626	0.6964	0.1613	0.078
Mof_H 	H 	0.2399	0.7118	0.0877	0.002
Mof_N 	N 	0.548	0.9123	0.0318	-0.087
Mof_N 	N 	0.5035	0.8696	0.026	-0.085
Mof_C 	C 	0.5304	0.8188	0.0187	0.088
Mof_N 	N 	0.5923	0.8095	0.0069	-0.079
Mof_N 	N 	0.636	0.8526	0.0118	-0.08
Mof_C 	C 	0.614	0.9019	0.028	0.091
Mof_N 	N 	0.4006	0.6816	0.0319	-0.157
Mof_C 	C 	0.4375	0.6801	0.9737	0.086
Mof_H 	H 	0.4345	0.6466	0.9359	0.008
Mof_C 	C 	0.4791	0.7225	0.9636	-0.129
Mof_H 	H 	0.5041	0.7187	0.9204	0.092
Mof_C 	C 	0.4837	0.772	0.0196	0.066
Mof_C 	C 	0.4472	0.7742	0.0824	-0.128
Mof_H 	H 	0.4506	0.8067	0.123	0.082
Mof_C 	C 	0.4059	0.7291	0.086	0.079
Mof_H 	H 	0.3801	0.7315	0.1283	0.011
Mof_N 	N 	0.2563	0.5375	0.0425	-0.156
Mof_C 	C 	0.2802	0.4861	0.0455	0.082
Mof_H 	H 	0.3287	0.48	0.0463	0.017
Mof_C 	C 	0.2381	0.4409	0.0476	-0.125
Mof_H 	H 	0.2596	0.4047	0.0565	0.091
Mof_C 	C 	0.6637	0.949	0.0366	0.061
Mof_C 	C 	0.6371	0.0031	0.032	-0.117
Mof_H 	H 	0.5878	0.0103	0.0283	0.09
Mof_C 	C 	0.1849	0.5463	0.0332	0.072
Mof_H 	H 	0.1664	0.5832	0.0272	0.014
Mof_O 	O 	0.4336	0.5536	0.192	-0.086
Mof_O 	O 	0.4516	0.5548	0.1542	-0.088
Mof_N 	N 	3.02848e-33	0.9237	0.75	0.065
Mof_O 	O 	-4.08601e-17	0.8728	0.75	-0.137
Mof_N 	N 	0.5	0.4237	0.75	0.064
Mof_O 	O 	0.5	0.3728	0.75	-0.138
Mof_N 	N 	1.0215e-17	0.0763	0.25	0.066
Mof_O 	O 	1.0215e-17	0.1272	0.25	-0.137
Mof_N 	N 	0.5	0.5763	0.25	0.064
Mof_O 	O 	0.5	0.6272	0.25	-0.139
_end
