data_functionalizedCrystal
_audit_creation_method	'EQeq! by Chris Wilmer'
_symmetry_space_group_name_H-M	'P1'
_symmetry_Int_Tables_number	1
_symmetry_cell_setting	triclinic
loop_
_symmetry_equiv_pos_as_xyz
  x,y,z
_cell_length_a	14.2213
_cell_length_b	20.283
_cell_length_c	19.839
_cell_angle_alpha	110.326
_cell_angle_beta	90
_cell_angle_gamma	90
loop_
_atom_site_label
_atom_site_type_symbol
_atom_site_fract_x
_atom_site_fract_y
_atom_site_fract_z
_atom_site_charge
Mof_Ca	Ca	0.5436	0.43975	0.20367	1.297
Mof_Ca	Ca	0.19711	0.06133	0.30959	1.296
Mof_Ca	Ca	0.80289	0.93867	0.69041	1.295
Mof_Ca	Ca	0.69711	0.93867	0.19041	1.294
Mof_Ca	Ca	0.30289	0.06133	0.80959	1.294
Mof_Ca	Ca	0.0436	0.56025	0.29633	1.295
Mof_Ca	Ca	0.4564	0.56025	0.79633	1.296
Mof_Ca	Ca	0.9564	0.43975	0.70367	1.295
Mof_Cd	Cd	0.05767	0.97432	0.75831	0.467
Mof_Cd	Cd	0.30084	0.5312	0.25677	0.46
Mof_Cd	Cd	0.94233	0.02568	0.24169	0.467
Mof_Cd	Cd	0.19916	0.5312	0.75677	0.46
Mof_Cd	Cd	0.44233	0.97432	0.25831	0.465
Mof_Cd	Cd	0.69916	0.4688	0.74323	0.46
Mof_Cd	Cd	0.55767	0.02568	0.74169	0.465
Mof_Cd	Cd	0.80084	0.4688	0.24323	0.46
Mof_H 	H 	0.0677	0.4686	0.3874	0.016
Mof_H 	H 	0.5153	0.7807	0.7095	0.034
Mof_H 	H 	0.3501	0.0283	0.6278	0.044
Mof_H 	H 	0.3474	0.5389	0.4983	0.05
Mof_H 	H 	0.6499	0.9717	0.3722	0.044
Mof_H 	H 	0.7939	0.2201	0.2192	0.063
Mof_H 	H 	0.7061	0.2201	0.7192	0.063
Mof_H 	H 	0.7678	0.7151	0.2739	0.031
Mof_H 	H 	0.2983	0.1822	0.7296	0.012
Mof_H 	H 	0.8396	0.5205	0.5138	0.044
Mof_H 	H 	0.9858	0.6229	0.7389	0.045
Mof_H 	H 	0.3124	0.9631	0.9131	0.019
Mof_H 	H 	0.5514	0.2738	0.7625	0.062
Mof_H 	H 	0.2282	0.8815	0.2751	0.047
Mof_H 	H 	0.7282	0.1185	0.2249	0.047
Mof_H 	H 	0.0748	0.0274	0.024	0.063
Mof_H 	H 	0.5142	0.6229	0.2389	0.047
Mof_H 	H 	0.1876	0.9631	0.4131	0.019
Mof_H 	H 	0.0504	0.6784	0.2155	0.015
Mof_H 	H 	0.4858	0.3771	0.7611	0.047
Mof_H 	H 	0.6876	0.0369	0.0869	0.019
Mof_H 	H 	0.386	0.9597	0.0153	0.034
Mof_H 	H 	0.1526	0.5389	0.9983	0.049
Mof_H 	H 	0.5677	0.5314	0.1126	0.016
Mof_H 	H 	0.6526	0.4611	0.5017	0.05
Mof_H 	H 	0.4496	0.6784	0.7155	0.016
Mof_H 	H 	0.7983	0.8178	0.7704	0.013
Mof_H 	H 	0.9486	0.2738	0.2625	0.065
Mof_H 	H 	0.7017	0.8178	0.2704	0.012
Mof_H 	H 	0.5748	0.9726	0.476	0.062
Mof_H 	H 	0.4486	0.7262	0.2375	0.062
Mof_H 	H 	0.2678	0.2849	0.2261	0.03
Mof_H 	H 	0.4091	0.5316	0.6031	0.052
Mof_H 	H 	0.4252	0.0274	0.524	0.062
Mof_H 	H 	0.2017	0.1822	0.2296	0.013
Mof_H 	H 	0.6604	0.5205	0.0138	0.044
Mof_H 	H 	0.0142	0.3771	0.2611	0.045
Mof_H 	H 	0.2939	0.7799	0.2808	0.063
Mof_H 	H 	0.4847	0.2193	0.2905	0.034
Mof_H 	H 	0.9252	0.9726	0.976	0.063
Mof_H 	H 	0.5504	0.3216	0.2845	0.016
Mof_H 	H 	0.7322	0.7151	0.7739	0.03
Mof_H 	H 	0.2718	0.8815	0.7751	0.047
Mof_H 	H 	0.114	0.9597	0.5153	0.034
Mof_H 	H 	0.9091	0.4684	0.8969	0.053
Mof_H 	H 	0.8501	0.9717	0.8722	0.043
Mof_H 	H 	0.4323	0.4686	0.8874	0.016
Mof_H 	H 	0.9847	0.7807	0.2095	0.035
Mof_H 	H 	0.2322	0.2849	0.7261	0.031
Mof_H 	H 	0.1604	0.4795	0.4862	0.044
Mof_H 	H 	0.3396	0.4795	0.9862	0.044
Mof_H 	H 	0.7718	0.1185	0.7249	0.047
Mof_H 	H 	0.8474	0.4611	0.0017	0.049
Mof_H 	H 	0.2061	0.7799	0.7808	0.063
Mof_H 	H 	0.886	0.0403	0.4847	0.034
Mof_H 	H 	0.0153	0.2193	0.7905	0.035
Mof_H 	H 	0.9323	0.5314	0.6126	0.016
Mof_H 	H 	0.0909	0.5316	0.1031	0.053
Mof_H 	H 	0.0514	0.7262	0.7375	0.065
Mof_H 	H 	0.614	0.0403	0.9847	0.034
Mof_H 	H 	0.1499	0.0283	0.1278	0.043
Mof_H 	H 	0.8124	0.0369	0.5869	0.019
Mof_H 	H 	0.9496	0.3216	0.7845	0.015
Mof_H 	H 	0.5909	0.4684	0.3969	0.052
Mof_C 	C 	0.9477	0.6618	0.7448	-0.001
Mof_C 	C 	0.0245	0.15215	0.2523	0.341
Mof_C 	C 	0.692	0.1591	0.2362	-0.005
Mof_C 	C 	0.9039	0.5122	0.5082	-0.032
Mof_C 	C 	0.164	0.2215	0.2363	-0.024
Mof_C 	C 	0.6488	0.65764	0.2548	-0.104
Mof_C 	C 	0.1162	0.512	0.6232	0.327
Mof_C 	C 	0.9869	0.7237	0.7438	-0.032
Mof_C 	C 	0.5861	0.2807	0.2718	-0.021
Mof_C 	C 	0.6376	0.9859	0.4778	-0.029
Mof_C 	C 	0.5764	0.4914	0.6329	0.386
Mof_C 	C 	0.4139	0.7193	0.7282	-0.021
Mof_C 	C 	0.7211	0.34616	0.243	0.341
Mof_C 	C 	0.308	0.8409	0.7638	-0.005
Mof_C 	C 	0.463	0.5042	0.4364	-0.09
Mof_C 	C 	0.8512	0.65764	0.7548	-0.107
Mof_C 	C 	0.5523	0.6618	0.2448	-0.006
Mof_C 	C 	0.808	0.1591	0.7362	-0.005
Mof_C 	C 	0.4236	0.5086	0.3671	0.386
Mof_C 	C 	0.836	0.7785	0.7637	-0.024
Mof_C 	C 	0.3838	0.512	0.1232	0.327
Mof_C 	C 	0.4447	0.9095	0.7442	0.381
Mof_C 	C 	0.2687	0.78	0.7672	-0.025
Mof_C 	C 	0.692	0.58965	0.2518	0.379
Mof_C 	C 	0.9755	0.84785	0.7477	0.341
Mof_C 	C 	0.0542	0.5189	0.0617	-0.021
Mof_C 	C 	0.8838	0.488	0.3768	0.327
Mof_C 	C 	0.1376	0.0141	0.0222	-0.033
Mof_C 	C 	0.4477	0.3382	0.7552	-0.006
Mof_C 	C 	0.6776	0.0089	0.8511	0.379
Mof_C 	C 	0.2313	0.78	0.2672	-0.025
Mof_C 	C 	0.808	0.58965	0.7518	0.38
Mof_C 	C 	0.5557	0.4935	0.9403	-0.102
Mof_C 	C 	0.2963	0.2832	0.7346	-0.018
Mof_C 	C 	0.9443	0.4935	0.4403	-0.102
Mof_C 	C 	0.308	0.41035	0.7482	0.379
Mof_C 	C 	0.7687	0.22	0.7328	-0.025
Mof_C 	C 	0.4596	0.4813	0.9327	-0.028
Mof_C 	C 	0.6858	0.0052	0.5421	-0.093
Mof_C 	C 	0.537	0.4958	0.5636	-0.09
Mof_C 	C 	0.192	0.41035	0.2482	0.38
Mof_C 	C 	0.3142	0.9948	0.4579	-0.093
Mof_C 	C 	0.1367	0.9941	0.89074	0.334
Mof_C 	C 	0.2037	0.2832	0.2346	-0.015
Mof_C 	C 	0.4755	0.15215	0.7523	0.346
Mof_C 	C 	0.5542	0.4811	0.4383	-0.015
Mof_C 	C 	0.6367	0.0059	0.60926	0.335
Mof_C 	C 	0.336	0.2215	0.7363	-0.021
Mof_C 	C 	0.3224	0.9911	0.1489	0.379
Mof_C 	C 	0.7963	0.7168	0.7654	-0.015
Mof_C 	C 	0.2748	0.9924	0.0821	-0.103
Mof_C 	C 	0.4011	0.8421	0.7437	-0.102
Mof_C 	C 	0.037	0.5042	0.9364	-0.088
Mof_C 	C 	0.9314	0.78201	0.7519	-0.09
Mof_C 	C 	0.8224	0.0089	0.3511	0.381
Mof_C 	C 	0.4869	0.2763	0.7562	-0.025
Mof_C 	C 	0.4534	0.7808	0.7247	-0.017
Mof_C 	C 	0.9534	0.2192	0.7753	-0.019
Mof_C 	C 	0.1858	0.9948	0.9579	-0.09
Mof_C 	C 	0.7313	0.22	0.2328	-0.025
Mof_C 	C 	0.0686	0.21799	0.2481	-0.09
Mof_C 	C 	0.963	0.4958	0.0636	-0.088
Mof_C 	C 	0.8216	0.28136	0.7496	-0.094
Mof_C 	C 	0.0131	0.2763	0.2562	-0.032
Mof_C 	C 	0.2789	0.65384	0.757	0.341
Mof_C 	C 	0.2211	0.65384	0.257	0.341
Mof_C 	C 	0.5553	0.0905	0.2558	0.381
Mof_C 	C 	0.8624	0.9859	0.9778	-0.033
Mof_C 	C 	0.3176	0.0139	0.5844	-0.003
Mof_C 	C 	0.5131	0.7237	0.2438	-0.025
Mof_C 	C 	0.7791	0.0248	0.5439	-0.027
Mof_C 	C 	0.0764	0.5086	0.8671	0.385
Mof_C 	C 	0.8633	0.0059	0.10926	0.334
Mof_C 	C 	0.6824	0.9861	0.4156	-0.003
Mof_C 	C 	0.6784	0.28136	0.2496	-0.093
Mof_C 	C 	0.0557	0.5065	0.5597	-0.102
Mof_C 	C 	0.2209	0.9752	0.4561	-0.027
Mof_C 	C 	0.0523	0.3382	0.2552	-0.001
Mof_C 	C 	0.5404	0.5187	0.0673	-0.028
Mof_C 	C 	0.4458	0.5189	0.5617	-0.015
Mof_C 	C 	0.1766	0.9735	0.5173	-0.017
Mof_C 	C 	0.2252	0.9924	0.5821	-0.102
Mof_C 	C 	0.1824	0.0139	0.0844	0
Mof_C 	C 	0.3234	0.9735	0.0173	-0.02
Mof_C 	C 	0.8142	0.0052	0.0421	-0.09
Mof_C 	C 	0.5245	0.84785	0.2477	0.346
Mof_C 	C 	0.0961	0.4878	0.4918	-0.032
Mof_C 	C 	0.8176	0.9861	0.9156	0
Mof_C 	C 	0.5961	0.5122	0.0082	-0.032
Mof_C 	C 	0.4039	0.4878	0.9918	-0.032
Mof_C 	C 	0.0404	0.4813	0.4327	-0.029
Mof_C 	C 	0.2791	0.9752	0.9561	-0.025
Mof_C 	C 	0.9447	0.0905	0.7558	0.381
Mof_C 	C 	0.0466	0.7808	0.2247	-0.019
Mof_C 	C 	0.3512	0.34236	0.7452	-0.104
Mof_C 	C 	0.9087	0.4768	0.0011	-0.012
Mof_C 	C 	0.9139	0.2807	0.7718	-0.02
Mof_C 	C 	0.9011	0.1579	0.7563	-0.102
Mof_C 	C 	0.1784	0.71864	0.2504	-0.094
Mof_C 	C 	0.6162	0.488	0.8768	0.327
Mof_C 	C 	0.5989	0.1579	0.2563	-0.102
Mof_C 	C 	0.3633	0.9941	0.39074	0.335
Mof_C 	C 	0.7209	0.0248	0.0439	-0.025
Mof_C 	C 	0.5466	0.2192	0.2753	-0.017
Mof_C 	C 	0.0553	0.9095	0.2442	0.381
Mof_C 	C 	0.5686	0.78201	0.2519	-0.094
Mof_C 	C 	0.9236	0.4914	0.1329	0.385
Mof_C 	C 	0.0989	0.8421	0.2437	-0.102
Mof_C 	C 	0.4314	0.21799	0.7481	-0.094
Mof_C 	C 	0.9596	0.5187	0.5673	-0.029
Mof_C 	C 	0.7252	0.0076	0.9179	-0.103
Mof_C 	C 	0.7748	0.0076	0.4179	-0.102
Mof_C 	C 	0.0913	0.5232	0.9989	-0.012
Mof_C 	C 	0.4087	0.5232	0.4989	-0.016
Mof_C 	C 	0.9458	0.4811	0.9383	-0.021
Mof_C 	C 	0.664	0.7785	0.2637	-0.021
Mof_C 	C 	0.3216	0.71864	0.7504	-0.093
Mof_C 	C 	0.192	0.8409	0.2638	-0.005
Mof_C 	C 	0.5913	0.4768	0.5011	-0.016
Mof_C 	C 	0.4443	0.5065	0.0597	-0.102
Mof_C 	C 	0.1776	0.9911	0.6489	0.381
Mof_C 	C 	0.3624	0.0141	0.5222	-0.029
Mof_C 	C 	0.1488	0.34236	0.2452	-0.107
Mof_C 	C 	0.6766	0.0265	0.9827	-0.02
Mof_C 	C 	0.7037	0.7168	0.2654	-0.018
Mof_C 	C 	0.0861	0.7193	0.2282	-0.02
Mof_C 	C 	0.7789	0.34616	0.743	0.341
Mof_C 	C 	0.8234	0.0265	0.4827	-0.017
Mof_O 	O 	0.1447	0.46534	0.26962	-0.44
Mof_O 	O 	0.54967	0.00732	0.6132	-0.285
Mof_O 	O 	0.3067	0.65201	0.27012	-0.291
Mof_O 	O 	0.9669	0.5222	0.18906	-0.44
Mof_O 	O 	0.95033	0.00732	0.1132	-0.283
Mof_O 	O 	0.92613	0.49018	0.32018	-0.425
Mof_O 	O 	0.0988	0.96587	0.27368	-0.441
Mof_O 	O 	0.45033	0.99268	0.3868	-0.285
Mof_O 	O 	0.7769	0.58835	0.26958	-0.326
Mof_O 	O 	0.5988	0.03413	0.22632	-0.44
Mof_O 	O 	0.2769	0.41165	0.23042	-0.327
Mof_O 	O 	0.3316	0.60093	0.74743	-0.439
Mof_O 	O 	0.4012	0.96587	0.77368	-0.44
Mof_O 	O 	0.3485	0.54224	0.36961	-0.319
Mof_O 	O 	0.7023	0.48226	0.87876	-0.278
Mof_O 	O 	0.8316	0.39907	0.75257	-0.44
Mof_O 	O 	0.68777	0.00711	0.66236	-0.431
Mof_O 	O 	0.56286	0.14584	0.75113	-0.289
Mof_O 	O 	0.0776	0.1033	0.25571	-0.443
Mof_O 	O 	0.0242	0.09138	0.78278	-0.325
Mof_O 	O 	0.215	0.0252	0.70794	-0.442
Mof_O 	O 	0.9758	0.90862	0.21722	-0.325
Mof_O 	O 	0.4224	0.1033	0.75571	-0.443
Mof_O 	O 	0.5331	0.5222	0.68906	-0.441
Mof_O 	O 	0.8067	0.34799	0.22988	-0.29
Mof_O 	O 	0.57387	0.49018	0.82018	-0.426
Mof_O 	O 	0.2977	0.51774	0.12124	-0.278
Mof_O 	O 	0.42613	0.50982	0.17982	-0.426
Mof_O 	O 	0.04967	0.99268	0.8868	-0.283
Mof_O 	O 	0.4669	0.4778	0.31094	-0.441
Mof_O 	O 	0.715	0.9748	0.79206	-0.441
Mof_O 	O 	0.0331	0.4778	0.81094	-0.44
Mof_O 	O 	0.785	0.9748	0.29206	-0.442
Mof_O 	O 	0.31223	0.99289	0.33764	-0.431
Mof_O 	O 	0.06286	0.85416	0.74887	-0.287
Mof_O 	O 	0.1684	0.60093	0.24743	-0.44
Mof_O 	O 	0.1029	0.95664	0.64369	-0.323
Mof_O 	O 	0.8553	0.53466	0.73038	-0.44
Mof_O 	O 	0.9012	0.03413	0.72632	-0.441
Mof_O 	O 	0.9224	0.8967	0.74429	-0.443
Mof_O 	O 	0.43714	0.85416	0.24887	-0.289
Mof_O 	O 	0.2023	0.51774	0.62124	-0.278
Mof_O 	O 	0.7231	0.58835	0.76958	-0.327
Mof_O 	O 	0.5242	0.90862	0.71722	-0.324
Mof_O 	O 	0.4758	0.09138	0.28278	-0.324
Mof_O 	O 	0.6029	0.04336	0.85631	-0.324
Mof_O 	O 	0.5776	0.8967	0.24429	-0.443
Mof_O 	O 	0.1933	0.65201	0.77012	-0.29
Mof_O 	O 	0.8485	0.45776	0.13039	-0.319
Mof_O 	O 	0.2231	0.41165	0.73042	-0.326
Mof_O 	O 	0.6684	0.39907	0.25257	-0.439
Mof_O 	O 	0.8971	0.04336	0.35631	-0.323
Mof_O 	O 	0.3553	0.46534	0.76962	-0.44
Mof_O 	O 	0.7977	0.48226	0.37876	-0.278
Mof_O 	O 	0.18777	0.99289	0.83764	-0.43
Mof_O 	O 	0.6447	0.53466	0.23038	-0.44
Mof_O 	O 	0.1515	0.54224	0.86961	-0.319
Mof_O 	O 	0.07387	0.50982	0.67982	-0.425
Mof_O 	O 	0.6933	0.34799	0.72988	-0.291
Mof_O 	O 	0.3971	0.95664	0.14369	-0.324
Mof_O 	O 	0.285	0.0252	0.20794	-0.441
Mof_O 	O 	0.6515	0.45776	0.63039	-0.319
Mof_O 	O 	0.81223	0.00711	0.16236	-0.43
Mof_O 	O 	0.93714	0.14584	0.25113	-0.287
_end
