data_functionalizedCrystal
_audit_creation_method	'EQeq! by Chris Wilmer'
_symmetry_space_group_name_H-M	'P1'
_symmetry_Int_Tables_number	1
_symmetry_cell_setting	triclinic
loop_
_symmetry_equiv_pos_as_xyz
  x,y,z
_cell_length_a	19.6084
_cell_length_b	11.9016
_cell_length_c	21.9364
_cell_angle_alpha	90
_cell_angle_beta	97.186
_cell_angle_gamma	90
loop_
_atom_site_label
_atom_site_type_symbol
_atom_site_fract_x
_atom_site_fract_y
_atom_site_fract_z
_atom_site_charge
Mof_Tb	Tb	0.83076	0.33084	0.47426	2.198
Mof_O 	O 	0.80021	0.15739	0.51471	-0.628
Mof_O 	O 	0.67796	0.13537	0.41949	-0.509
Mof_O 	O 	0.74268	0.00212	0.52434	-0.474
Mof_O 	O 	0.76697	0.23539	0.39205	-0.51
Mof_C 	C 	0.66408	0.1744	0.21109	-0.038
Mof_H 	H 	0.6505	0.2299	0.1808	0.058
Mof_O 	O 	0.05228	0.71996	0.47769	-0.418
Mof_O 	O 	0.086	0.78222	0.57034	-0.418
Mof_C 	C 	0.71848	0.16747	0.38192	0.482
Mof_O 	O 	0.5954	0.09071	0.09798	-0.289
Mof_C 	C 	0.68855	0.81718	0.34566	-0.125
Mof_H 	H 	0.6493	0.8038	0.3166	0.078
Mof_C 	C 	0.92061	0.824	0.47762	-0.084
Mof_H 	H 	0.9225	0.7636	0.4496	0.09
Mof_O 	O 	0.65282	0.9296	0.11425	-0.494
Mof_C 	C 	0.80073	0.8636	0.42918	0.08
Mof_C 	C 	0.7008	0.0109	0.30168	0.034
Mof_C 	C 	0.7032	0.1253	0.31697	-0.122
Mof_C 	C 	0.97711	0.8465	0.52218	-0.011
Mof_N 	N 	0.77696	0.9451	0.38954	-0.132
Mof_C 	C 	0.86133	0.9824	0.5147	-0.139
Mof_C 	C 	0.72289	0.9221	0.34791	0.083
Mof_C 	C 	0.04178	0.7779	0.52357	0.291
Mof_C 	C 	0.91787	0.0045	0.55822	0.039
Mof_H 	H 	0.9171	0.0671	0.585	0.021
Mof_C 	C 	0.97525	0.9353	0.56244	-0.072
Mof_H 	H 	0.0131	0.949	0.593	0.075
Mof_C 	C 	0.63489	0.0242	0.13103	0.38
Mof_C 	C 	0.68047	0.9808	0.24021	-0.041
Mof_H 	H 	0.6803	0.9037	0.229	0.061
Mof_C 	C 	0.79766	0.0515	0.51725	0.444
Mof_C 	C 	0.86182	0.8908	0.47482	0.053
Mof_C 	C 	0.68729	0.2061	0.27073	0.019
Mof_H 	H 	0.6925	0.2836	0.2806	0.033
Mof_C 	C 	0.66058	0.0605	0.19545	-0.063
Mof_C 	C 	0.77108	0.7564	0.42885	-0.122
Mof_H 	H 	0.7898	0.7	0.4567	0.091
Mof_C 	C 	0.71372	0.7349	0.38688	0.051
Mof_H 	H 	0.6917	0.6637	0.3865	0.024
Mof_Tb	Tb	0.33076	0.83084	0.47426	2.199
Mof_O 	O 	0.30021	0.65739	0.51471	-0.627
Mof_O 	O 	0.17796	0.63537	0.41949	-0.509
Mof_O 	O 	0.24268	0.50212	0.52434	-0.474
Mof_O 	O 	0.26697	0.73539	0.39205	-0.51
Mof_C 	C 	0.16408	0.6744	0.21109	-0.038
Mof_H 	H 	0.1505	0.7299	0.1808	0.058
Mof_O 	O 	0.55228	0.21996	0.47769	-0.418
Mof_O 	O 	0.586	0.28222	0.57034	-0.418
Mof_C 	C 	0.21848	0.66747	0.38192	0.482
Mof_O 	O 	0.0954	0.59071	0.09798	-0.29
Mof_C 	C 	0.18855	0.31718	0.34566	-0.125
Mof_H 	H 	0.1493	0.3038	0.3166	0.078
Mof_C 	C 	0.42061	0.324	0.47762	-0.084
Mof_H 	H 	0.4225	0.2636	0.4496	0.09
Mof_O 	O 	0.15282	0.4296	0.11425	-0.493
Mof_C 	C 	0.30073	0.3636	0.42918	0.081
Mof_C 	C 	0.2008	0.5109	0.30168	0.034
Mof_C 	C 	0.2032	0.6253	0.31697	-0.121
Mof_C 	C 	0.47711	0.3465	0.52218	-0.012
Mof_N 	N 	0.27696	0.4451	0.38954	-0.132
Mof_C 	C 	0.36133	0.4824	0.5147	-0.139
Mof_C 	C 	0.22289	0.4221	0.34791	0.084
Mof_C 	C 	0.54178	0.2779	0.52357	0.291
Mof_C 	C 	0.41787	0.5045	0.55822	0.039
Mof_H 	H 	0.4171	0.5671	0.585	0.022
Mof_C 	C 	0.47525	0.4353	0.56244	-0.071
Mof_H 	H 	0.5131	0.449	0.593	0.074
Mof_C 	C 	0.13489	0.5242	0.13103	0.379
Mof_C 	C 	0.18047	0.4808	0.24021	-0.04
Mof_H 	H 	0.1803	0.4037	0.229	0.06
Mof_C 	C 	0.29766	0.5515	0.51725	0.444
Mof_C 	C 	0.36182	0.3908	0.47482	0.053
Mof_C 	C 	0.18729	0.7061	0.27073	0.019
Mof_H 	H 	0.1925	0.7836	0.2806	0.033
Mof_C 	C 	0.16058	0.5605	0.19545	-0.063
Mof_C 	C 	0.27108	0.2564	0.42885	-0.122
Mof_H 	H 	0.2898	0.2	0.4567	0.091
Mof_C 	C 	0.21372	0.2349	0.38688	0.051
Mof_H 	H 	0.1917	0.1637	0.3865	0.024
Mof_Tb	Tb	0.16924	0.33084	0.02574	2.196
Mof_O 	O 	0.19979	0.15739	0.98529	-0.625
Mof_O 	O 	0.32204	0.13537	0.08051	-0.509
Mof_O 	O 	0.25732	0.00212	0.97566	-0.473
Mof_O 	O 	0.23303	0.23539	0.10795	-0.51
Mof_C 	C 	0.33592	0.1744	0.28891	-0.038
Mof_H 	H 	0.3495	0.2299	0.3192	0.058
Mof_O 	O 	0.94772	0.71996	0.02231	-0.414
Mof_O 	O 	0.914	0.78222	0.92966	-0.417
Mof_C 	C 	0.28152	0.16747	0.11808	0.482
Mof_O 	O 	0.4046	0.09071	0.40202	-0.29
Mof_C 	C 	0.31145	0.81718	0.15434	-0.125
Mof_H 	H 	0.3507	0.8038	0.1834	0.078
Mof_C 	C 	0.07939	0.824	0.02238	-0.088
Mof_H 	H 	0.0775	0.7636	0.0504	0.09
Mof_O 	O 	0.34718	0.9296	0.38575	-0.494
Mof_C 	C 	0.19927	0.8636	0.07082	0.081
Mof_C 	C 	0.2992	0.0109	0.19832	0.034
Mof_C 	C 	0.2968	0.1253	0.18303	-0.122
Mof_C 	C 	0.02289	0.8465	0.97782	-0.007
Mof_N 	N 	0.22304	0.9451	0.11046	-0.132
Mof_C 	C 	0.13867	0.9824	0.9853	-0.133
Mof_C 	C 	0.27711	0.9221	0.15209	0.083
Mof_C 	C 	0.95822	0.7779	0.97643	0.286
Mof_C 	C 	0.08213	0.0045	0.94178	0.034
Mof_H 	H 	0.0829	0.0671	0.915	0.024
Mof_C 	C 	0.02475	0.9353	0.93756	-0.067
Mof_H 	H 	0.9869	0.949	0.907	0.071
Mof_C 	C 	0.36511	0.0242	0.36897	0.379
Mof_C 	C 	0.31953	0.9808	0.25979	-0.041
Mof_H 	H 	0.3197	0.9037	0.271	0.061
Mof_C 	C 	0.20234	0.0515	0.98275	0.442
Mof_C 	C 	0.13818	0.8908	0.02518	0.05
Mof_C 	C 	0.31271	0.2061	0.22927	0.019
Mof_H 	H 	0.3075	0.2836	0.2194	0.033
Mof_C 	C 	0.33942	0.0605	0.30455	-0.063
Mof_C 	C 	0.22892	0.7564	0.07115	-0.122
Mof_H 	H 	0.2102	0.7	0.0433	0.091
Mof_C 	C 	0.28628	0.7349	0.11312	0.051
Mof_H 	H 	0.3083	0.6637	0.1135	0.024
Mof_Tb	Tb	0.66924	0.83084	0.02574	2.201
Mof_O 	O 	0.69979	0.65739	0.98529	-0.627
Mof_O 	O 	0.82204	0.63537	0.08051	-0.508
Mof_O 	O 	0.75732	0.50212	0.97566	-0.474
Mof_O 	O 	0.73303	0.73539	0.10795	-0.51
Mof_C 	C 	0.83592	0.6744	0.28891	-0.038
Mof_H 	H 	0.8495	0.7299	0.3192	0.058
Mof_O 	O 	0.44772	0.21996	0.02231	-0.418
Mof_O 	O 	0.414	0.28222	0.92966	-0.418
Mof_C 	C 	0.78152	0.66747	0.11808	0.481
Mof_O 	O 	0.9046	0.59071	0.40202	-0.29
Mof_C 	C 	0.81145	0.31718	0.15434	-0.125
Mof_H 	H 	0.8507	0.3038	0.1834	0.079
Mof_C 	C 	0.57939	0.324	0.02238	-0.084
Mof_H 	H 	0.5775	0.2636	0.0504	0.09
Mof_O 	O 	0.84718	0.4296	0.38575	-0.493
Mof_C 	C 	0.69927	0.3636	0.07082	0.081
Mof_C 	C 	0.7992	0.5109	0.19832	0.034
Mof_C 	C 	0.7968	0.6253	0.18303	-0.121
Mof_C 	C 	0.52289	0.3465	0.97782	-0.012
Mof_N 	N 	0.72304	0.4451	0.11046	-0.131
Mof_C 	C 	0.63867	0.4824	0.9853	-0.14
Mof_C 	C 	0.77711	0.4221	0.15209	0.084
Mof_C 	C 	0.45822	0.2779	0.97643	0.292
Mof_C 	C 	0.58213	0.5045	0.94178	0.039
Mof_H 	H 	0.5829	0.5671	0.915	0.022
Mof_C 	C 	0.52475	0.4353	0.93756	-0.071
Mof_H 	H 	0.4869	0.449	0.907	0.074
Mof_C 	C 	0.86511	0.5242	0.36897	0.38
Mof_C 	C 	0.81953	0.4808	0.25979	-0.04
Mof_H 	H 	0.8197	0.4037	0.271	0.06
Mof_C 	C 	0.70234	0.5515	0.98275	0.444
Mof_C 	C 	0.63818	0.3908	0.02518	0.054
Mof_C 	C 	0.81271	0.7061	0.22927	0.019
Mof_H 	H 	0.8075	0.7836	0.2194	0.033
Mof_C 	C 	0.83942	0.5605	0.30455	-0.063
Mof_C 	C 	0.72892	0.2564	0.07115	-0.122
Mof_H 	H 	0.7102	0.2	0.0433	0.091
Mof_C 	C 	0.78628	0.2349	0.11312	0.051
Mof_H 	H 	0.8083	0.1637	0.1135	0.024
Mof_Tb	Tb	0.16924	0.66916	0.52574	2.199
Mof_O 	O 	0.19979	0.84261	0.48529	-0.627
Mof_O 	O 	0.32204	0.86463	0.58051	-0.509
Mof_O 	O 	0.25732	0.99788	0.47566	-0.474
Mof_O 	O 	0.23303	0.76461	0.60795	-0.51
Mof_C 	C 	0.33592	0.8256	0.78891	-0.038
Mof_H 	H 	0.3495	0.7701	0.8192	0.058
Mof_O 	O 	0.94772	0.28004	0.52231	-0.418
Mof_O 	O 	0.914	0.21778	0.42966	-0.418
Mof_C 	C 	0.28152	0.83253	0.61808	0.482
Mof_O 	O 	0.4046	0.90929	0.90202	-0.289
Mof_C 	C 	0.31145	0.18282	0.65434	-0.125
Mof_H 	H 	0.3507	0.1962	0.6834	0.078
Mof_C 	C 	0.07939	0.176	0.52238	-0.084
Mof_H 	H 	0.0775	0.2364	0.5504	0.09
Mof_O 	O 	0.34718	0.0704	0.88575	-0.494
Mof_C 	C 	0.19927	0.1364	0.57082	0.08
Mof_C 	C 	0.2992	0.9891	0.69832	0.034
Mof_C 	C 	0.2968	0.8747	0.68303	-0.122
Mof_C 	C 	0.02289	0.1535	0.47782	-0.011
Mof_N 	N 	0.22304	0.0549	0.61046	-0.132
Mof_C 	C 	0.13867	0.0176	0.4853	-0.139
Mof_C 	C 	0.27711	0.0779	0.65209	0.083
Mof_C 	C 	0.95822	0.2221	0.47643	0.291
Mof_C 	C 	0.08213	0.9955	0.44178	0.039
Mof_H 	H 	0.0829	0.9329	0.415	0.021
Mof_C 	C 	0.02475	0.0647	0.43756	-0.072
Mof_H 	H 	0.9869	0.051	0.407	0.075
Mof_C 	C 	0.36511	0.9758	0.86897	0.38
Mof_C 	C 	0.31953	0.0192	0.75979	-0.041
Mof_H 	H 	0.3197	0.0963	0.771	0.061
Mof_C 	C 	0.20234	0.9485	0.48275	0.444
Mof_C 	C 	0.13818	0.1092	0.52518	0.053
Mof_C 	C 	0.31271	0.7939	0.72927	0.019
Mof_H 	H 	0.3075	0.7164	0.7194	0.033
Mof_C 	C 	0.33942	0.9395	0.80455	-0.063
Mof_C 	C 	0.22892	0.2436	0.57115	-0.122
Mof_H 	H 	0.2102	0.3	0.5433	0.091
Mof_C 	C 	0.28628	0.2651	0.61312	0.051
Mof_H 	H 	0.3083	0.3363	0.6135	0.024
Mof_Tb	Tb	0.66924	0.16916	0.52574	2.199
Mof_O 	O 	0.69979	0.34261	0.48529	-0.627
Mof_O 	O 	0.82204	0.36463	0.58051	-0.509
Mof_O 	O 	0.75732	0.49788	0.47566	-0.474
Mof_O 	O 	0.73303	0.26461	0.60795	-0.51
Mof_C 	C 	0.83592	0.3256	0.78891	-0.038
Mof_H 	H 	0.8495	0.2701	0.8192	0.058
Mof_O 	O 	0.44772	0.78004	0.52231	-0.418
Mof_O 	O 	0.414	0.71778	0.42966	-0.418
Mof_C 	C 	0.78152	0.33253	0.61808	0.482
Mof_O 	O 	0.9046	0.40929	0.90202	-0.29
Mof_C 	C 	0.81145	0.68282	0.65434	-0.125
Mof_H 	H 	0.8507	0.6962	0.6834	0.078
Mof_C 	C 	0.57939	0.676	0.52238	-0.084
Mof_H 	H 	0.5775	0.7364	0.5504	0.09
Mof_O 	O 	0.84718	0.5704	0.88575	-0.493
Mof_C 	C 	0.69927	0.6364	0.57082	0.081
Mof_C 	C 	0.7992	0.4891	0.69832	0.034
Mof_C 	C 	0.7968	0.3747	0.68303	-0.121
Mof_C 	C 	0.52289	0.6535	0.47782	-0.012
Mof_N 	N 	0.72304	0.5549	0.61046	-0.132
Mof_C 	C 	0.63867	0.5176	0.4853	-0.139
Mof_C 	C 	0.77711	0.5779	0.65209	0.084
Mof_C 	C 	0.45822	0.7221	0.47643	0.291
Mof_C 	C 	0.58213	0.4955	0.44178	0.039
Mof_H 	H 	0.5829	0.4329	0.415	0.022
Mof_C 	C 	0.52475	0.5647	0.43756	-0.071
Mof_H 	H 	0.4869	0.551	0.407	0.074
Mof_C 	C 	0.86511	0.4758	0.86897	0.379
Mof_C 	C 	0.81953	0.5192	0.75979	-0.04
Mof_H 	H 	0.8197	0.5963	0.771	0.06
Mof_C 	C 	0.70234	0.4485	0.48275	0.444
Mof_C 	C 	0.63818	0.6092	0.52518	0.053
Mof_C 	C 	0.81271	0.2939	0.72927	0.019
Mof_H 	H 	0.8075	0.2164	0.7194	0.033
Mof_C 	C 	0.83942	0.4395	0.80455	-0.063
Mof_C 	C 	0.72892	0.7436	0.57115	-0.122
Mof_H 	H 	0.7102	0.8	0.5433	0.091
Mof_C 	C 	0.78628	0.7651	0.61312	0.051
Mof_H 	H 	0.8083	0.8363	0.6135	0.024
Mof_Tb	Tb	0.83076	0.66916	0.97426	2.196
Mof_O 	O 	0.80021	0.84261	0.01471	-0.625
Mof_O 	O 	0.67796	0.86463	0.91949	-0.509
Mof_O 	O 	0.74268	0.99788	0.02434	-0.473
Mof_O 	O 	0.76697	0.76461	0.89205	-0.51
Mof_C 	C 	0.66408	0.8256	0.71109	-0.038
Mof_H 	H 	0.6505	0.7701	0.6808	0.058
Mof_O 	O 	0.05228	0.28004	0.97769	-0.414
Mof_O 	O 	0.086	0.21778	0.07034	-0.417
Mof_C 	C 	0.71848	0.83253	0.88192	0.482
Mof_O 	O 	0.5954	0.90929	0.59798	-0.29
Mof_C 	C 	0.68855	0.18282	0.84566	-0.125
Mof_H 	H 	0.6493	0.1962	0.8166	0.078
Mof_C 	C 	0.92061	0.176	0.97762	-0.088
Mof_H 	H 	0.9225	0.2364	0.9496	0.09
Mof_O 	O 	0.65282	0.0704	0.61425	-0.494
Mof_C 	C 	0.80073	0.1364	0.92918	0.081
Mof_C 	C 	0.7008	0.9891	0.80168	0.034
Mof_C 	C 	0.7032	0.8747	0.81697	-0.122
Mof_C 	C 	0.97711	0.1535	0.02218	-0.007
Mof_N 	N 	0.77696	0.0549	0.88954	-0.132
Mof_C 	C 	0.86133	0.0176	0.0147	-0.133
Mof_C 	C 	0.72289	0.0779	0.84791	0.083
Mof_C 	C 	0.04178	0.2221	0.02357	0.286
Mof_C 	C 	0.91787	0.9955	0.05822	0.034
Mof_H 	H 	0.9171	0.9329	0.085	0.024
Mof_C 	C 	0.97525	0.0647	0.06244	-0.067
Mof_H 	H 	0.0131	0.051	0.093	0.071
Mof_C 	C 	0.63489	0.9758	0.63103	0.379
Mof_C 	C 	0.68047	0.0192	0.74021	-0.041
Mof_H 	H 	0.6803	0.0963	0.729	0.061
Mof_C 	C 	0.79766	0.9485	0.01725	0.442
Mof_C 	C 	0.86182	0.1092	0.97482	0.05
Mof_C 	C 	0.68729	0.7939	0.77073	0.019
Mof_H 	H 	0.6925	0.7164	0.7806	0.033
Mof_C 	C 	0.66058	0.9395	0.69545	-0.063
Mof_C 	C 	0.77108	0.2436	0.92885	-0.122
Mof_H 	H 	0.7898	0.3	0.9567	0.091
Mof_C 	C 	0.71372	0.2651	0.88688	0.051
Mof_H 	H 	0.6917	0.3363	0.8865	0.024
Mof_Tb	Tb	0.33076	0.16916	0.97426	2.201
Mof_O 	O 	0.30021	0.34261	0.01471	-0.627
Mof_O 	O 	0.17796	0.36463	0.91949	-0.508
Mof_O 	O 	0.24268	0.49788	0.02434	-0.474
Mof_O 	O 	0.26697	0.26461	0.89205	-0.51
Mof_C 	C 	0.16408	0.3256	0.71109	-0.038
Mof_H 	H 	0.1505	0.2701	0.6808	0.058
Mof_O 	O 	0.55228	0.78004	0.97769	-0.418
Mof_O 	O 	0.586	0.71778	0.07034	-0.418
Mof_C 	C 	0.21848	0.33253	0.88192	0.481
Mof_O 	O 	0.0954	0.40929	0.59798	-0.29
Mof_C 	C 	0.18855	0.68282	0.84566	-0.125
Mof_H 	H 	0.1493	0.6962	0.8166	0.079
Mof_C 	C 	0.42061	0.676	0.97762	-0.084
Mof_H 	H 	0.4225	0.7364	0.9496	0.09
Mof_O 	O 	0.15282	0.5704	0.61425	-0.493
Mof_C 	C 	0.30073	0.6364	0.92918	0.081
Mof_C 	C 	0.2008	0.4891	0.80168	0.034
Mof_C 	C 	0.2032	0.3747	0.81697	-0.121
Mof_C 	C 	0.47711	0.6535	0.02218	-0.012
Mof_N 	N 	0.27696	0.5549	0.88954	-0.131
Mof_C 	C 	0.36133	0.5176	0.0147	-0.14
Mof_C 	C 	0.22289	0.5779	0.84791	0.084
Mof_C 	C 	0.54178	0.7221	0.02357	0.292
Mof_C 	C 	0.41787	0.4955	0.05822	0.039
Mof_H 	H 	0.4171	0.4329	0.085	0.022
Mof_C 	C 	0.47525	0.5647	0.06244	-0.071
Mof_H 	H 	0.5131	0.551	0.093	0.074
Mof_C 	C 	0.13489	0.4758	0.63103	0.38
Mof_C 	C 	0.18047	0.5192	0.74021	-0.04
Mof_H 	H 	0.1803	0.5963	0.729	0.06
Mof_C 	C 	0.29766	0.4485	0.01725	0.444
Mof_C 	C 	0.36182	0.6092	0.97482	0.054
Mof_C 	C 	0.18729	0.2939	0.77073	0.019
Mof_H 	H 	0.1925	0.2164	0.7806	0.033
Mof_C 	C 	0.16058	0.4395	0.69545	-0.063
Mof_C 	C 	0.27108	0.7436	0.92885	-0.122
Mof_H 	H 	0.2898	0.8	0.9567	0.091
Mof_C 	C 	0.21372	0.7651	0.88688	0.051
Mof_H 	H 	0.1917	0.8363	0.8865	0.024
_end
