data_functionalizedCrystal
_audit_creation_method	'EQeq! by Chris Wilmer'
_symmetry_space_group_name_H-M	'P1'
_symmetry_Int_Tables_number	1
_symmetry_cell_setting	triclinic
loop_
_symmetry_equiv_pos_as_xyz
  x,y,z
_cell_length_a	13.8353
_cell_length_b	27.5504
_cell_length_c	44.5398
_cell_angle_alpha	90
_cell_angle_beta	90
_cell_angle_gamma	90
loop_
_atom_site_label
_atom_site_type_symbol
_atom_site_fract_x
_atom_site_fract_y
_atom_site_fract_z
_atom_site_charge
Mof_Zn	Zn	0.12455	0.47772	0.58477	1.174
Mof_Zn	Zn	0.15556	0.95398	0.58434	1.175
Mof_Zn	Zn	0.84444	0.54602	0.08434	1.176
Mof_Zn	Zn	0.65556	0.04602	0.91566	1.175
Mof_Zn	Zn	0.67407	0.23991	0.17879	1.172
Mof_Zn	Zn	0.17407	0.76009	0.32121	1.172
Mof_Zn	Zn	0.37545	0.97772	0.41523	1.175
Mof_Zn	Zn	0.34444	0.45398	0.41566	1.176
Mof_Zn	Zn	0.82593	0.73991	0.82121	1.171
Mof_Zn	Zn	0.32593	0.26009	0.67879	1.171
Mof_Zn	Zn	0.87545	0.02228	0.08477	1.173
Mof_Zn	Zn	0.62455	0.52228	0.91523	1.174
Mof_H 	H 	0.4362	0.1982	0.723	0.002
Mof_H 	H 	0.0802	0.6578	0.5942	0.081
Mof_H 	H 	0.4745	0.5818	0.8845	-0.004
Mof_H 	H 	0.6266	0.0853	0.0242	0.082
Mof_H 	H 	0.319	0.6108	0.8921	0.103
Mof_H 	H 	0.181	0.1108	0.1079	0.103
Mof_H 	H 	0.7043	0.0641	0.9812	-0.001
Mof_H 	H 	0.5343	0.1498	0.8327	0.08
Mof_H 	H 	0.6176	0.1608	0.2218	-0.004
Mof_H 	H 	0.8968	0.9164	0.0702	-0.006
Mof_H 	H 	0.6299	0.1536	0.9314	-0.012
Mof_H 	H 	0.3782	0.3656	0.59	0.081
Mof_H 	H 	0.097	0.775	0.5916	0.08
Mof_H 	H 	0.4305	0.0141	0.3532	-0.003
Mof_H 	H 	0.554	0.1517	0.269	0.077
Mof_H 	H 	0.0255	0.0818	0.1155	-0.003
Mof_H 	H 	0.7957	0.5641	0.0188	-0.001
Mof_H 	H 	0.4657	0.3502	0.3327	0.08
Mof_H 	H 	0.054	0.8483	0.231	0.077
Mof_H 	H 	0.946	0.6517	0.731	0.077
Mof_H 	H 	0.2062	0.8314	0.3709	0.009
Mof_H 	H 	0.5416	0.4672	0.4413	-0.008
Mof_H 	H 	0.4584	0.0328	0.9413	-0.008
Mof_H 	H 	0.819	0.3892	0.6079	0.103
Mof_H 	H 	0.9657	0.6498	0.1673	0.08
Mof_H 	H 	0.4349	0.4204	0.3584	-0.004
Mof_H 	H 	0.3735	0.181	0.1261	0.083
Mof_H 	H 	0.6218	0.1344	0.09	0.081
Mof_H 	H 	0.1032	0.5836	0.5702	-0.006
Mof_H 	H 	0.8735	0.819	0.3739	0.083
Mof_H 	H 	0.0651	0.9204	0.6416	-0.004
Mof_H 	H 	0.9584	0.9672	0.5587	-0.009
Mof_H 	H 	0.372	0.055	0.9837	0.093
Mof_H 	H 	0.4976	0.2037	0.7714	0.08
Mof_H 	H 	0.5255	0.9182	0.3845	-0.003
Mof_H 	H 	0.4613	0.0853	0.3288	0.08
Mof_H 	H 	0.9613	0.9147	0.1712	0.08
Mof_H 	H 	0.5638	0.3018	0.223	0.002
Mof_H 	H 	0.0185	0.0292	0.0334	-0.007
Mof_H 	H 	0.5695	0.4859	0.8532	-0.003
Mof_H 	H 	0.9976	0.7963	0.7286	0.081
Mof_H 	H 	0.2043	0.9359	0.5188	-0.002
Mof_H 	H 	0.7062	0.1686	0.1291	0.009
Mof_H 	H 	0.8701	0.6536	0.0686	-0.012
Mof_H 	H 	0.1218	0.8656	0.41	0.081
Mof_H 	H 	0.9305	0.9859	0.1468	-0.003
Mof_H 	H 	0.9815	0.4708	0.5334	-0.007
Mof_H 	H 	0.465	0.2208	0.1638	-0.009
Mof_H 	H 	0.628	0.445	0.4837	0.092
Mof_H 	H 	0.446	0.3483	0.769	0.077
Mof_H 	H 	0.965	0.7792	0.3362	-0.009
Mof_H 	H 	0.4815	0.5292	0.9666	-0.007
Mof_H 	H 	0.2957	0.4359	0.4812	-0.001
Mof_H 	H 	0.1176	0.8392	0.2782	-0.004
Mof_H 	H 	0.0695	0.5141	0.6468	-0.003
Mof_H 	H 	0.8262	0.4459	0.5246	0.099
Mof_H 	H 	0.5185	0.9708	0.4666	-0.007
Mof_H 	H 	0.8734	0.5853	0.9758	0.082
Mof_H 	H 	0.1265	0.681	0.8739	0.083
Mof_H 	H 	0.6032	0.4164	0.9298	-0.006
Mof_H 	H 	0.3824	0.3392	0.7218	-0.004
Mof_H 	H 	0.403	0.275	0.4084	0.08
Mof_H 	H 	0.6265	0.319	0.6261	0.083
Mof_H 	H 	0.0387	0.5853	0.6712	0.08
Mof_H 	H 	0.9198	0.8422	0.0942	0.081
Mof_H 	H 	0.1299	0.8464	0.5686	-0.012
Mof_H 	H 	0.128	0.555	0.0163	0.092
Mof_H 	H 	0.1266	0.9147	0.4758	0.082
Mof_H 	H 	0.3701	0.3464	0.4314	-0.012
Mof_H 	H 	0.597	0.225	0.9084	0.08
Mof_H 	H 	0.6738	0.9459	0.4754	0.099
Mof_H 	H 	0.5024	0.2963	0.2714	0.08
Mof_H 	H 	0.3734	0.4147	0.5242	0.082
Mof_H 	H 	0.3968	0.0836	0.4298	-0.006
Mof_H 	H 	0.4198	0.1578	0.4058	0.081
Mof_H 	H 	0.1738	0.0541	0.0246	0.099
Mof_H 	H 	0.903	0.725	0.0916	0.08
Mof_H 	H 	0.0343	0.8502	0.6673	0.08
Mof_H 	H 	0.9349	0.5796	0.1416	-0.004
Mof_H 	H 	0.3262	0.5541	0.9754	0.099
Mof_H 	H 	0.0024	0.7037	0.2286	0.08
Mof_H 	H 	0.8782	0.6344	0.91	0.081
Mof_H 	H 	0.872	0.945	0.5163	0.093
Mof_H 	H 	0.5802	0.3422	0.9058	0.081
Mof_H 	H 	0.0638	0.6982	0.277	0.002
Mof_H 	H 	0.9362	0.8018	0.777	0.002
Mof_H 	H 	0.681	0.8892	0.3921	0.103
Mof_H 	H 	0.7938	0.6686	0.8709	0.009
Mof_H 	H 	0.0416	0.5328	0.0587	-0.008
Mof_H 	H 	0.9745	0.4182	0.6155	-0.003
Mof_H 	H 	0.2938	0.3314	0.6291	0.009
Mof_H 	H 	0.5387	0.4147	0.8288	0.08
Mof_H 	H 	0.535	0.2792	0.6638	-0.009
Mof_H 	H 	0.5651	0.0796	0.8584	-0.004
Mof_H 	H 	0.8824	0.6608	0.7782	-0.004
Mof_H 	H 	0.035	0.7208	0.8362	-0.009
Mof_C 	C 	0.5627	0.1961	0.86726	0.051
Mof_C 	C 	0.3893	0.3468	0.41089	0.071
Mof_C 	C 	0.5469	0.2415	0.85078	0.1
Mof_C 	C 	0.9373	0.6961	0.13274	0.051
Mof_C 	C 	0.056	0.0765	0.0967	0.076
Mof_C 	C 	0.0594	0.6298	0.63555	0.056
Mof_C 	C 	0.9547	0.8232	0.15119	0.104
Mof_C 	C 	0.0453	0.6768	0.65119	0.104
Mof_C 	C 	0.4458	0.0859	0.34957	-0.115
Mof_C 	C 	0.4226	0.1285	0.39453	-0.113
Mof_C 	C 	0.0917	0.5839	0.59123	0.074
Mof_C 	C 	0.946	0.6514	0.14686	-0.114
Mof_C 	C 	0.9914	0.7801	0.19214	0.106
Mof_C 	C 	0.6357	0.0631	0.98151	0.075
Mof_C 	C 	0.1107	0.8468	0.58911	0.071
Mof_C 	C 	0.6381	0.1728	0.1281	0.054
Mof_C 	C 	0.5917	0.4161	0.90877	0.074
Mof_C 	C 	0.437	0.229	0.73272	0.065
Mof_C 	C 	0.4083	0.0839	0.40877	0.074
Mof_C 	C 	0.5453	0.3232	0.84881	0.104
Mof_C 	C 	0.5774	0.3715	0.89453	-0.113
Mof_C 	C 	0.6936	0.9151	0.43457	0.065
Mof_C 	C 	0.0643	0.6288	0.91999	0.105
Mof_C 	C 	0.9372	0.9109	0.46433	0.097
Mof_C 	C 	0.5901	0.0753	0.0072	-0.119
Mof_C 	C 	0.4923	0.045	0.95825	0.066
Mof_C 	C 	0.0595	0.5574	0.01646	-0.119
Mof_C 	C 	0.8619	0.6728	0.8719	0.054
Mof_C 	C 	0.558	0.321	0.6261	-0.116
Mof_C 	C 	0.944	0.4235	0.5967	0.076
Mof_C 	C 	0.4357	0.1288	0.08001	0.105
Mof_C 	C 	0.3619	0.3272	0.6281	0.054
Mof_C 	C 	0.4373	0.3039	0.36726	0.051
Mof_C 	C 	0.5936	0.1885	0.23212	0.054
Mof_C 	C 	0.0469	0.7585	0.64922	0.1
Mof_C 	C 	0.937	0.771	0.76728	0.066
Mof_C 	C 	0.5914	0.1955	0.89753	-0.12
Mof_C 	C 	0.9086	0.6955	0.10247	-0.12
Mof_C 	C 	0.0627	0.8039	0.63274	0.051
Mof_C 	C 	0.2974	0.0972	0.06141	0.085
Mof_C 	C 	0.929	0.9563	0.1357	0.066
Mof_C 	C 	0.5106	0.3466	0.60444	0.063
Mof_C 	C 	0.4427	0.317	0.76017	-0.106
Mof_C 	C 	0.8513	0.4065	0.59244	-0.135
Mof_C 	C 	0.071	0.5437	0.6357	0.066
Mof_C 	C 	0.4914	0.2199	0.30786	0.106
Mof_C 	C 	0.5737	0.1097	0.86841	0.063
Mof_C 	C 	0.9263	0.6097	0.13159	0.063
Mof_C 	C 	0.0241	0.7759	0.22374	0.045
Mof_C 	C 	0.444	0.5765	0.9033	0.076
Mof_C 	C 	0.6107	0.1532	0.91089	0.071
Mof_C 	C 	0.4086	0.3045	0.39753	-0.12
Mof_C 	C 	0.2026	0.5972	0.93859	0.085
Mof_C 	C 	0.3513	0.5935	0.90756	-0.135
Mof_C 	C 	0.7974	0.9028	0.43859	0.085
Mof_C 	C 	0.0106	0.6534	0.89556	0.061
Mof_C 	C 	0.9406	0.8702	0.13555	0.056
Mof_C 	C 	0.5542	0.4141	0.84957	-0.115
Mof_C 	C 	0.563	0.271	0.23272	0.065
Mof_C 	C 	0.3643	0.4369	0.48151	0.075
Mof_C 	C 	0.0024	0.7027	0.85131	0.071
Mof_C 	C 	0.4121	0.3488	0.6053	-0.106
Mof_C 	C 	0.4759	0.2759	0.77626	0.045
Mof_C 	C 	0.9064	0.6885	0.76788	0.054
Mof_C 	C 	0.9976	0.7973	0.35131	0.072
Mof_C 	C 	0.4738	0.232	0.76169	-0.109
Mof_C 	C 	0.9531	0.7415	0.14922	0.1
Mof_C 	C 	0.446	0.3486	0.35314	-0.114
Mof_C 	C 	0.5643	0.3712	0.58001	0.105
Mof_C 	C 	0.0774	0.6285	0.60547	-0.113
Mof_C 	C 	0.4475	0.5456	0.951	0.089
Mof_C 	C 	0.0525	0.0456	0.049	0.089
Mof_C 	C 	0.4896	0.0735	0.00886	0.054
Mof_C 	C 	0.556	0.9235	0.4033	0.076
Mof_C 	C 	0.9475	0.4544	0.549	0.089
Mof_C 	C 	0.4531	0.2585	0.35078	0.1
Mof_C 	C 	0.554	0.1514	0.85314	-0.114
Mof_C 	C 	0.942	0.821	0.3739	-0.117
Mof_C 	C 	0.9226	0.8715	0.10547	-0.113
Mof_C 	C 	0.9357	0.8712	0.41999	0.105
Mof_C 	C 	0.1442	0.0605	0.0434	-0.145
Mof_C 	C 	0.0628	0.5891	0.96433	0.098
Mof_C 	C 	0.9121	0.6512	0.8947	-0.105
Mof_C 	C 	0.1936	0.0849	0.06543	0.065
Mof_C 	C 	0.4976	0.2027	0.14869	0.072
Mof_C 	C 	0.054	0.8486	0.64686	-0.114
Mof_C 	C 	0.7026	0.4028	0.56141	0.085
Mof_C 	C 	0.6487	0.9065	0.40756	-0.135
Mof_C 	C 	0.5595	0.4426	0.48354	-0.119
Mof_C 	C 	0.4263	0.3903	0.36841	0.063
Mof_C 	C 	0.0936	0.8115	0.26788	0.054
Mof_C 	C 	0.4099	0.4247	0.5072	-0.119
Mof_C 	C 	0.9405	0.9426	0.51646	-0.12
Mof_C 	C 	0.0573	0.817	0.23983	-0.106
Mof_C 	C 	0.0879	0.8488	0.3947	-0.107
Mof_C 	C 	0.8558	0.4395	0.5434	-0.145
Mof_C 	C 	0.5024	0.2973	0.64869	0.072
Mof_C 	C 	0.0542	0.5859	0.65043	-0.115
Mof_C 	C 	0.1357	0.9369	0.51849	0.076
Mof_C 	C 	0.8643	0.5631	0.01849	0.075
Mof_C 	C 	0.5628	0.4109	0.53567	0.098
Mof_C 	C 	0.0737	0.8903	0.63159	0.063
Mof_C 	C 	0.4372	0.0891	0.03567	0.098
Mof_C 	C 	0.9896	0.9265	0.49114	0.055
Mof_C 	C 	0.4064	0.3115	0.73212	0.054
Mof_C 	C 	0.0086	0.7199	0.69214	0.105
Mof_C 	C 	0.0914	0.8045	0.60247	-0.12
Mof_C 	C 	0.1487	0.0935	0.09244	-0.135
Mof_C 	C 	0.4547	0.1768	0.34881	0.104
Mof_C 	C 	0.5241	0.2241	0.27626	0.045
Mof_C 	C 	0.442	0.179	0.1261	-0.116
Mof_C 	C 	0.5104	0.4265	0.50886	0.054
Mof_C 	C 	0.5077	0.455	0.45825	0.066
Mof_C 	C 	0.3558	0.5605	0.9566	-0.145
Mof_C 	C 	0.8893	0.6532	0.08911	0.071
Mof_C 	C 	0.9458	0.9141	0.15043	-0.115
Mof_C 	C 	0.063	0.729	0.26728	0.065
Mof_C 	C 	0.429	0.0437	0.3643	0.066
Mof_C 	C 	0.5525	0.9544	0.451	0.089
Mof_C 	C 	0.9759	0.7241	0.72374	0.046
Mof_C 	C 	0.9923	0.955	0.54175	0.067
Mof_C 	C 	0.0262	0.732	0.23831	-0.109
Mof_C 	C 	0.4406	0.1298	0.36445	0.056
Mof_C 	C 	0.8064	0.4151	0.56543	0.065
Mof_C 	C 	0.0104	0.5735	0.99114	0.054
Mof_C 	C 	0.4894	0.1534	0.10444	0.063
Mof_C 	C 	0.9099	0.5753	0.9928	-0.118
Mof_C 	C 	0.5086	0.2801	0.80786	0.106
Mof_C 	C 	0.1381	0.8272	0.3719	0.055
Mof_C 	C 	0.058	0.679	0.8739	-0.116
Mof_C 	C 	0.9894	0.8466	0.39556	0.063
Mof_C 	C 	0.0077	0.545	0.04175	0.066
Mof_C 	C 	0.5573	0.183	0.26017	-0.106
Mof_C 	C 	0.9427	0.683	0.73983	-0.107
Mof_C 	C 	0.571	0.4563	0.8643	0.066
Mof_C 	C 	0.6442	0.9395	0.4566	-0.145
Mof_C 	C 	0.9738	0.768	0.73831	-0.11
Mof_C 	C 	0.9083	0.9161	0.09123	0.074
Mof_C 	C 	0.5879	0.1512	0.1053	-0.106
Mof_C 	C 	0.3064	0.5849	0.93457	0.065
Mof_C 	C 	0.4405	0.0574	0.98354	-0.119
Mof_C 	C 	0.5594	0.3702	0.86445	0.056
Mof_C 	C 	0.5262	0.268	0.26169	-0.109
Mof_C 	C 	0.0901	0.9247	0.4928	-0.12
Mof_I 	I 	0.7999	0.07231	0.12246	-0.395
Mof_I 	I 	0.1759	0.67487	0.33574	-0.394
Mof_I 	I 	0.33015	0.80226	0.31549	-0.384
Mof_I 	I 	0.83015	0.19774	0.18451	-0.385
Mof_I 	I 	0.58091	0.9838	0.88706	-0.393
Mof_I 	I 	0.91909	0.4838	0.11294	-0.394
Mof_I 	I 	0.66985	0.69774	0.81549	-0.384
Mof_I 	I 	0.8241	0.82513	0.83574	-0.393
Mof_I 	I 	0.82864	0.05983	0.92218	-0.403
Mof_I 	I 	0.2996	0.9976	0.46291	-0.418
Mof_I 	I 	0.7001	0.57231	0.87754	-0.395
Mof_I 	I 	0.7996	0.0024	0.03709	-0.419
Mof_I 	I 	0.3241	0.17487	0.66426	-0.394
Mof_I 	I 	0.41909	0.5162	0.38706	-0.393
Mof_I 	I 	0.16985	0.30226	0.68451	-0.384
Mof_I 	I 	0.7004	0.5024	0.96291	-0.418
Mof_I 	I 	0.17136	0.44017	0.42218	-0.402
Mof_I 	I 	0.32864	0.94017	0.57782	-0.402
Mof_I 	I 	0.6759	0.32513	0.16426	-0.394
Mof_I 	I 	0.2999	0.92769	0.37754	-0.395
Mof_I 	I 	0.67136	0.55983	0.07782	-0.402
Mof_I 	I 	0.2004	0.4976	0.53709	-0.418
Mof_I 	I 	0.2001	0.42769	0.62246	-0.395
Mof_I 	I 	0.08091	0.0162	0.61294	-0.393
Mof_N 	N 	0.4406	0.2163	0.36541	-0.139
Mof_N 	N 	0.0074	0.0528	0.07519	-0.273
Mof_N 	N 	0.4071	0.2995	0.64941	-0.27
Mof_N 	N 	0.8399	0.8764	0.4167	-0.129
Mof_N 	N 	0.0968	0.7671	0.28192	-0.266
Mof_N 	N 	0.1574	0.5795	0.96259	-0.142
Mof_N 	N 	0.1046	0.8907	0.60317	-0.268
Mof_N 	N 	0.9071	0.7005	0.85059	-0.27
Mof_N 	N 	0.6046	0.1093	0.89683	-0.268
Mof_N 	N 	0.9032	0.7329	0.78192	-0.266
Mof_N 	N 	0.5202	0.2375	0.82179	-0.139
Mof_N 	N 	0.5201	0.3236	0.81991	-0.141
Mof_N 	N 	0.9799	0.8236	0.18009	-0.141
Mof_N 	N 	0.6601	0.3764	0.5833	-0.129
Mof_N 	N 	0.6574	0.4205	0.53741	-0.142
Mof_N 	N 	0.0929	0.7995	0.35059	-0.271
Mof_N 	N 	0.3954	0.3907	0.39683	-0.268
Mof_N 	N 	0.59	0.4581	0.89428	-0.267
Mof_N 	N 	0.5929	0.2005	0.14941	-0.27
Mof_N 	N 	0.9926	0.4472	0.57519	-0.273
Mof_N 	N 	0.9798	0.7375	0.17821	-0.139
Mof_N 	N 	0.5594	0.2837	0.86541	-0.139
Mof_N 	N 	0.41	0.0419	0.39428	-0.267
Mof_N 	N 	0.4032	0.2671	0.71808	-0.266
Mof_N 	N 	0.0124	0.6124	0.94343	-0.138
Mof_N 	N 	0.4101	0.4505	0.45663	-0.272
Mof_N 	N 	0.8426	0.9205	0.46259	-0.142
Mof_N 	N 	0.1601	0.6236	0.9167	-0.13
Mof_N 	N 	0.4926	0.5528	0.92481	-0.273
Mof_N 	N 	0.0899	0.9505	0.54337	-0.273
Mof_N 	N 	0.5968	0.2329	0.21808	-0.266
Mof_N 	N 	0.0201	0.6764	0.68009	-0.141
Mof_N 	N 	0.9406	0.7837	0.13459	-0.139
Mof_N 	N 	0.9101	0.5495	0.04337	-0.272
Mof_N 	N 	0.4799	0.1764	0.31991	-0.141
Mof_N 	N 	0.3399	0.1236	0.0833	-0.129
Mof_N 	N 	0.4876	0.1124	0.05657	-0.138
Mof_N 	N 	0.9876	0.8876	0.44343	-0.137
Mof_N 	N 	0.5124	0.3876	0.55657	-0.138
Mof_N 	N 	0.3426	0.0795	0.03741	-0.142
Mof_N 	N 	0.0202	0.7625	0.67821	-0.139
Mof_N 	N 	0.5899	0.0495	0.95663	-0.272
Mof_N 	N 	0.91	0.9581	0.10572	-0.267
Mof_N 	N 	0.5074	0.9472	0.42481	-0.273
Mof_N 	N 	0.0594	0.7163	0.63459	-0.139
Mof_N 	N 	0.8954	0.6093	0.10317	-0.268
Mof_N 	N 	0.09	0.5419	0.60572	-0.267
Mof_N 	N 	0.4798	0.2625	0.32179	-0.139
Mof_Zn	Zn	0.67407	0.73991	0.32121	1.171
Mof_Zn	Zn	0.12455	0.97772	0.91523	1.173
Mof_Zn	Zn	0.15556	0.45398	0.91566	1.175
Mof_Zn	Zn	0.65556	0.54602	0.58434	1.175
Mof_Zn	Zn	0.87545	0.52228	0.41523	1.173
Mof_Zn	Zn	0.34444	0.95398	0.08434	1.174
Mof_Zn	Zn	0.17407	0.26009	0.17879	1.171
Mof_Zn	Zn	0.82593	0.23991	0.67879	1.171
Mof_Zn	Zn	0.32593	0.76009	0.82121	1.171
Mof_Zn	Zn	0.62455	0.02228	0.58477	1.174
Mof_Zn	Zn	0.84444	0.04602	0.41566	1.174
Mof_Zn	Zn	0.37545	0.47772	0.08477	1.174
Mof_H 	H 	0.0387	0.0853	0.8288	0.08
Mof_H 	H 	0.7938	0.1686	0.6291	0.009
Mof_H 	H 	0.0185	0.5292	0.4666	-0.007
Mof_H 	H 	0.0343	0.3502	0.8327	0.08
Mof_H 	H 	0.2938	0.8314	0.8709	0.009
Mof_H 	H 	0.1266	0.4147	0.0242	0.082
Mof_H 	H 	0.3782	0.8656	0.91	0.081
Mof_H 	H 	0.554	0.6517	0.231	0.077
Mof_H 	H 	0.1218	0.3656	0.09	0.081
Mof_H 	H 	0.7062	0.6686	0.3709	0.009
Mof_H 	H 	0.9745	0.9182	0.8845	-0.003
Mof_H 	H 	0.0651	0.4204	0.8584	-0.004
Mof_H 	H 	0.872	0.445	0.9837	0.092
Mof_H 	H 	0.0695	0.0141	0.8532	-0.003
Mof_H 	H 	0.5024	0.7963	0.2286	0.08
Mof_H 	H 	0.9613	0.4147	0.3288	0.08
Mof_H 	H 	0.6032	0.9164	0.5702	-0.006
Mof_H 	H 	0.597	0.725	0.5916	0.08
Mof_H 	H 	0.7957	0.0641	0.4812	-0.002
Mof_H 	H 	0.4657	0.8502	0.1673	0.08
Mof_H 	H 	0.0024	0.2037	0.2714	0.081
Mof_H 	H 	0.2957	0.9359	0.0188	-0.001
Mof_H 	H 	0.8782	0.1344	0.59	0.081
Mof_H 	H 	0.403	0.775	0.0916	0.08
Mof_H 	H 	0.4613	0.5853	0.1712	0.08
Mof_H 	H 	0.3824	0.8392	0.7782	-0.004
Mof_H 	H 	0.1032	0.0836	0.9298	-0.006
Mof_H 	H 	0.5695	0.9859	0.6468	-0.003
Mof_H 	H 	0.9815	0.9708	0.9666	-0.007
Mof_H 	H 	0.097	0.275	0.9084	0.08
Mof_H 	H 	0.8735	0.319	0.1261	0.083
Mof_H 	H 	0.9362	0.3018	0.723	0.002
Mof_H 	H 	0.3735	0.681	0.3739	0.083
Mof_H 	H 	0.5638	0.8018	0.277	0.002
Mof_H 	H 	0.965	0.2792	0.1638	-0.009
Mof_H 	H 	0.3968	0.5836	0.0702	-0.006
Mof_H 	H 	0.1299	0.3464	0.9314	-0.012
Mof_H 	H 	0.319	0.1108	0.6079	0.103
Mof_H 	H 	0.4745	0.0818	0.6155	-0.003
Mof_H 	H 	0.946	0.1517	0.769	0.077
Mof_H 	H 	0.0802	0.1578	0.9058	0.081
Mof_H 	H 	0.681	0.3892	0.1079	0.103
Mof_H 	H 	0.3701	0.8464	0.0686	-0.012
Mof_H 	H 	0.035	0.2208	0.6638	-0.009
Mof_H 	H 	0.5416	0.9672	0.0587	-0.008
Mof_H 	H 	0.446	0.8483	0.731	0.077
Mof_H 	H 	0.628	0.945	0.0163	0.093
Mof_H 	H 	0.1265	0.181	0.6261	0.083
Mof_H 	H 	0.054	0.3483	0.269	0.077
Mof_H 	H 	0.0638	0.1982	0.223	0.002
Mof_H 	H 	0.5255	0.4182	0.1155	-0.004
Mof_H 	H 	0.6265	0.819	0.8739	0.083
Mof_H 	H 	0.6218	0.6344	0.41	0.081
Mof_H 	H 	0.5343	0.6498	0.6673	0.08
Mof_H 	H 	0.6176	0.6608	0.2782	-0.004
Mof_H 	H 	0.372	0.555	0.5163	0.092
Mof_H 	H 	0.9305	0.4859	0.3532	-0.003
Mof_H 	H 	0.4815	0.0292	0.5334	-0.007
Mof_H 	H 	0.535	0.7792	0.8362	-0.009
Mof_H 	H 	0.8824	0.1608	0.7218	-0.004
Mof_H 	H 	0.4305	0.5141	0.1468	-0.003
Mof_H 	H 	0.5802	0.8422	0.5942	0.081
Mof_H 	H 	0.5185	0.4708	0.0334	-0.007
Mof_H 	H 	0.2062	0.3314	0.1291	0.009
Mof_H 	H 	0.6266	0.5853	0.4758	0.082
Mof_H 	H 	0.9198	0.3422	0.4058	0.081
Mof_H 	H 	0.8701	0.1536	0.4314	-0.012
Mof_H 	H 	0.3734	0.9147	0.9758	0.082
Mof_H 	H 	0.8262	0.9459	0.9754	0.099
Mof_H 	H 	0.6738	0.4459	0.0246	0.099
Mof_H 	H 	0.4349	0.9204	0.1416	-0.004
Mof_H 	H 	0.0255	0.5818	0.3845	-0.003
Mof_H 	H 	0.0416	0.0328	0.4413	-0.009
Mof_H 	H 	0.4976	0.7037	0.7286	0.08
Mof_H 	H 	0.4584	0.5328	0.5587	-0.008
Mof_H 	H 	0.128	0.055	0.4837	0.093
Mof_H 	H 	0.8968	0.4164	0.4298	-0.006
Mof_H 	H 	0.181	0.6108	0.3921	0.103
Mof_H 	H 	0.1738	0.5541	0.4754	0.099
Mof_H 	H 	0.8734	0.0853	0.5242	0.082
Mof_H 	H 	0.903	0.225	0.4084	0.08
Mof_H 	H 	0.2043	0.4359	0.9812	-0.001
Mof_H 	H 	0.5651	0.5796	0.6416	-0.004
Mof_H 	H 	0.3262	0.0541	0.5246	0.099
Mof_H 	H 	0.6299	0.6536	0.5686	-0.012
Mof_H 	H 	0.5387	0.9147	0.6712	0.08
Mof_H 	H 	0.9584	0.4672	0.9413	-0.008
Mof_H 	H 	0.9349	0.0796	0.3584	-0.004
Mof_H 	H 	0.9976	0.2963	0.7714	0.08
Mof_H 	H 	0.1176	0.3392	0.2218	-0.004
Mof_H 	H 	0.4198	0.6578	0.0942	0.081
Mof_H 	H 	0.7043	0.5641	0.5188	-0.001
Mof_H 	H 	0.819	0.8892	0.8921	0.103
Mof_H 	H 	0.9657	0.1498	0.3327	0.08
Mof_H 	H 	0.4362	0.6982	0.777	0.002
Mof_H 	H 	0.465	0.7208	0.3362	-0.009
Mof_C 	C 	0.058	0.179	0.6261	-0.117
Mof_C 	C 	0.4531	0.7585	0.14922	0.1
Mof_C 	C 	0.942	0.321	0.1261	-0.116
Mof_C 	C 	0.0774	0.1285	0.89453	-0.113
Mof_C 	C 	0.0595	0.0574	0.48354	-0.12
Mof_C 	C 	0.4121	0.8488	0.8947	-0.106
Mof_C 	C 	0.2026	0.0972	0.56141	0.085
Mof_C 	C 	0.5914	0.6955	0.60247	-0.12
Mof_C 	C 	0.0104	0.0735	0.50886	0.055
Mof_C 	C 	0.0628	0.0891	0.53567	0.097
Mof_C 	C 	0.563	0.771	0.26728	0.065
Mof_C 	C 	0.3643	0.9369	0.01849	0.075
Mof_C 	C 	0.0024	0.2027	0.64869	0.072
Mof_C 	C 	0.4914	0.7199	0.19214	0.106
Mof_C 	C 	0.9547	0.3232	0.34881	0.104
Mof_C 	C 	0.054	0.3486	0.85314	-0.114
Mof_C 	C 	0.9373	0.1961	0.36726	0.051
Mof_C 	C 	0.3513	0.0935	0.59244	-0.135
Mof_C 	C 	0.9405	0.4426	0.98354	-0.119
Mof_C 	C 	0.4064	0.8115	0.76788	0.054
Mof_C 	C 	0.4372	0.5891	0.46433	0.098
Mof_C 	C 	0.946	0.1514	0.35314	-0.114
Mof_C 	C 	0.5879	0.6512	0.3947	-0.106
Mof_C 	C 	0.8893	0.1532	0.41089	0.071
Mof_C 	C 	0.4458	0.5859	0.15043	-0.115
Mof_C 	C 	0.4547	0.6768	0.15119	0.104
Mof_C 	C 	0.4923	0.545	0.54175	0.066
Mof_C 	C 	0.5774	0.8715	0.60547	-0.113
Mof_C 	C 	0.0106	0.1534	0.60444	0.063
Mof_C 	C 	0.1107	0.3468	0.91089	0.071
Mof_C 	C 	0.556	0.4235	0.0967	0.076
Mof_C 	C 	0.9406	0.3702	0.36445	0.056
Mof_C 	C 	0.929	0.4563	0.3643	0.066
Mof_C 	C 	0.9226	0.3715	0.39453	-0.113
Mof_C 	C 	0.0453	0.1768	0.84881	0.104
Mof_C 	C 	0.0241	0.2759	0.27626	0.046
Mof_C 	C 	0.937	0.271	0.73272	0.065
Mof_C 	C 	0.0594	0.1298	0.86445	0.056
Mof_C 	C 	0.4738	0.732	0.73831	-0.109
Mof_C 	C 	0.4475	0.0456	0.549	0.089
Mof_C 	C 	0.442	0.679	0.3739	-0.116
Mof_C 	C 	0.3064	0.0849	0.56543	0.065
Mof_C 	C 	0.4896	0.5735	0.49114	0.054
Mof_C 	C 	0.6357	0.5631	0.51849	0.075
Mof_C 	C 	0.9083	0.4161	0.40877	0.074
Mof_C 	C 	0.9894	0.3466	0.10444	0.061
Mof_C 	C 	0.5594	0.8702	0.63555	0.056
Mof_C 	C 	0.9976	0.2973	0.14869	0.071
Mof_C 	C 	0.0077	0.045	0.45825	0.067
Mof_C 	C 	0.6442	0.4395	0.0434	-0.145
Mof_C 	C 	0.4759	0.7759	0.72374	0.045
Mof_C 	C 	0.5469	0.7415	0.64922	0.1
Mof_C 	C 	0.6936	0.4151	0.06543	0.065
Mof_C 	C 	0.9475	0.9544	0.951	0.089
Mof_C 	C 	0.5542	0.9141	0.65043	-0.115
Mof_C 	C 	0.9064	0.1885	0.73212	0.054
Mof_C 	C 	0.0573	0.317	0.26017	-0.107
Mof_C 	C 	0.9357	0.3712	0.08001	0.105
Mof_C 	C 	0.0879	0.3488	0.1053	-0.105
Mof_C 	C 	0.429	0.5437	0.1357	0.066
Mof_C 	C 	0.9263	0.1097	0.36841	0.063
Mof_C 	C 	0.5453	0.8232	0.65119	0.104
Mof_C 	C 	0.444	0.0765	0.5967	0.076
Mof_C 	C 	0.4405	0.5574	0.51646	-0.119
Mof_C 	C 	0.9896	0.4265	0.00886	0.054
Mof_C 	C 	0.554	0.6514	0.64686	-0.114
Mof_C 	C 	0.944	0.9235	0.9033	0.076
Mof_C 	C 	0.4427	0.817	0.73983	-0.106
Mof_C 	C 	0.9923	0.455	0.95825	0.066
Mof_C 	C 	0.3558	0.0605	0.5434	-0.145
Mof_C 	C 	0.5643	0.8712	0.91999	0.105
Mof_C 	C 	0.7026	0.9028	0.93859	0.085
Mof_C 	C 	0.4406	0.6298	0.13555	0.056
Mof_C 	C 	0.9099	0.0753	0.5072	-0.12
Mof_C 	C 	0.5086	0.7801	0.69214	0.106
Mof_C 	C 	0.9086	0.1955	0.39753	-0.12
Mof_C 	C 	0.1442	0.5605	0.4566	-0.145
Mof_C 	C 	0.5595	0.9426	0.01646	-0.119
Mof_C 	C 	0.0643	0.1288	0.58001	0.105
Mof_C 	C 	0.4894	0.6534	0.39556	0.063
Mof_C 	C 	0.4373	0.8039	0.13274	0.051
Mof_C 	C 	0.5104	0.9265	0.99114	0.054
Mof_C 	C 	0.6381	0.6728	0.3719	0.054
Mof_C 	C 	0.8619	0.1728	0.6281	0.055
Mof_C 	C 	0.5106	0.8466	0.89556	0.063
Mof_C 	C 	0.8643	0.0631	0.48151	0.076
Mof_C 	C 	0.0917	0.0839	0.90877	0.074
Mof_C 	C 	0.3619	0.8272	0.8719	0.054
Mof_C 	C 	0.5627	0.6961	0.63274	0.051
Mof_C 	C 	0.437	0.729	0.76728	0.065
Mof_C 	C 	0.5024	0.7973	0.85131	0.072
Mof_C 	C 	0.5525	0.4544	0.049	0.089
Mof_C 	C 	0.4226	0.6285	0.10547	-0.113
Mof_C 	C 	0.5241	0.7241	0.22374	0.045
Mof_C 	C 	0.5737	0.6097	0.63159	0.063
Mof_C 	C 	0.9738	0.268	0.76169	-0.109
Mof_C 	C 	0.0525	0.5456	0.451	0.089
Mof_C 	C 	0.6487	0.4065	0.09244	-0.135
Mof_C 	C 	0.4099	0.9247	0.9928	-0.119
Mof_C 	C 	0.4263	0.8903	0.13159	0.063
Mof_C 	C 	0.8513	0.9065	0.90756	-0.135
Mof_C 	C 	0.571	0.9563	0.6357	0.066
Mof_C 	C 	0.5573	0.683	0.23983	-0.106
Mof_C 	C 	0.9914	0.2801	0.30786	0.105
Mof_C 	C 	0.0542	0.0859	0.84957	-0.115
Mof_C 	C 	0.056	0.5765	0.4033	0.076
Mof_C 	C 	0.0086	0.2199	0.80786	0.106
Mof_C 	C 	0.5077	0.955	0.04175	0.066
Mof_C 	C 	0.0469	0.2585	0.85078	0.1
Mof_C 	C 	0.5936	0.6885	0.26788	0.054
Mof_C 	C 	0.1357	0.4369	0.98151	0.075
Mof_C 	C 	0.0914	0.3045	0.89753	-0.12
Mof_C 	C 	0.5901	0.5753	0.4928	-0.119
Mof_C 	C 	0.9372	0.4109	0.03567	0.098
Mof_C 	C 	0.9759	0.2241	0.77626	0.045
Mof_C 	C 	0.6107	0.6532	0.58911	0.071
Mof_C 	C 	0.8558	0.9395	0.9566	-0.145
Mof_C 	C 	0.0901	0.4247	0.0072	-0.118
Mof_C 	C 	0.0936	0.3115	0.23212	0.054
Mof_C 	C 	0.4976	0.7027	0.35131	0.072
Mof_C 	C 	0.5262	0.768	0.23831	-0.109
Mof_C 	C 	0.0737	0.3903	0.86841	0.063
Mof_C 	C 	0.4086	0.8045	0.10247	-0.12
Mof_C 	C 	0.9531	0.2415	0.35078	0.1
Mof_C 	C 	0.0262	0.232	0.26169	-0.11
Mof_C 	C 	0.1381	0.3272	0.1281	0.054
Mof_C 	C 	0.7974	0.4028	0.06141	0.085
Mof_C 	C 	0.063	0.229	0.23272	0.066
Mof_C 	C 	0.4083	0.5839	0.09123	0.074
Mof_C 	C 	0.9121	0.1512	0.6053	-0.107
Mof_C 	C 	0.9458	0.4141	0.34957	-0.115
Mof_C 	C 	0.3893	0.8468	0.08911	0.071
Mof_C 	C 	0.2974	0.5972	0.43859	0.085
Mof_C 	C 	0.0627	0.3039	0.86726	0.051
Mof_C 	C 	0.5917	0.9161	0.59123	0.074
Mof_C 	C 	0.9427	0.183	0.76017	-0.106
Mof_C 	C 	0.1936	0.5849	0.43457	0.065
Mof_C 	C 	0.558	0.821	0.8739	-0.116
Mof_C 	C 	0.1487	0.5935	0.40756	-0.135
Mof_C 	C 	0.071	0.0437	0.8643	0.066
Mof_C 	C 	0.446	0.8486	0.14686	-0.114
Mof_C 	C 	0.8064	0.9151	0.93457	0.065
Mof_C 	C 	0.5628	0.9109	0.96433	0.098
Mof_C 	C 	0.4357	0.6288	0.41999	0.105
Mof_I 	I 	0.8241	0.32513	0.66426	-0.394
Mof_I 	I 	0.3241	0.67487	0.83574	-0.394
Mof_I 	I 	0.7999	0.57231	0.37754	-0.395
Mof_I 	I 	0.83015	0.69774	0.31549	-0.384
Mof_I 	I 	0.17136	0.94017	0.07782	-0.403
Mof_I 	I 	0.33015	0.30226	0.18451	-0.384
Mof_I 	I 	0.66985	0.19774	0.68451	-0.384
Mof_I 	I 	0.7004	0.0024	0.53709	-0.418
Mof_I 	I 	0.6759	0.82513	0.33574	-0.394
Mof_I 	I 	0.2999	0.42769	0.12246	-0.395
Mof_I 	I 	0.7001	0.07231	0.62246	-0.395
Mof_I 	I 	0.08091	0.5162	0.88706	-0.394
Mof_I 	I 	0.2001	0.92769	0.87754	-0.395
Mof_I 	I 	0.7996	0.5024	0.46291	-0.418
Mof_I 	I 	0.67136	0.05983	0.42218	-0.402
Mof_I 	I 	0.2996	0.4976	0.03709	-0.418
Mof_I 	I 	0.91909	0.9838	0.38706	-0.393
Mof_I 	I 	0.16985	0.80226	0.81549	-0.385
Mof_I 	I 	0.2004	0.9976	0.96291	-0.419
Mof_I 	I 	0.82864	0.55983	0.57782	-0.402
Mof_I 	I 	0.58091	0.4838	0.61294	-0.393
Mof_I 	I 	0.32864	0.44017	0.92218	-0.402
Mof_I 	I 	0.1759	0.17487	0.16426	-0.393
Mof_I 	I 	0.41909	0.0162	0.11294	-0.393
Mof_N 	N 	0.0202	0.2625	0.82179	-0.139
Mof_N 	N 	0.9406	0.2837	0.36541	-0.139
Mof_N 	N 	0.6046	0.6093	0.60317	-0.268
Mof_N 	N 	0.9799	0.3236	0.31991	-0.141
Mof_N 	N 	0.9071	0.2005	0.64941	-0.271
Mof_N 	N 	0.5124	0.8876	0.94343	-0.138
Mof_N 	N 	0.5968	0.7329	0.28192	-0.266
Mof_N 	N 	0.5899	0.5495	0.54337	-0.272
Mof_N 	N 	0.6574	0.9205	0.96259	-0.142
Mof_N 	N 	0.59	0.9581	0.60572	-0.267
Mof_N 	N 	0.91	0.4581	0.39428	-0.267
Mof_N 	N 	0.8954	0.1093	0.39683	-0.268
Mof_N 	N 	0.6601	0.8764	0.9167	-0.129
Mof_N 	N 	0.09	0.0419	0.89428	-0.267
Mof_N 	N 	0.9798	0.2375	0.32179	-0.139
Mof_N 	N 	0.9032	0.2329	0.71808	-0.266
Mof_N 	N 	0.0929	0.2995	0.14941	-0.27
Mof_N 	N 	0.5929	0.7005	0.35059	-0.27
Mof_N 	N 	0.9926	0.9472	0.92481	-0.273
Mof_N 	N 	0.9101	0.0495	0.45663	-0.273
Mof_N 	N 	0.0201	0.1764	0.81991	-0.141
Mof_N 	N 	0.0594	0.2163	0.86541	-0.139
Mof_N 	N 	0.5201	0.8236	0.68009	-0.141
Mof_N 	N 	0.4926	0.0528	0.57519	-0.273
Mof_N 	N 	0.8399	0.3764	0.0833	-0.13
Mof_N 	N 	0.0074	0.5528	0.42481	-0.273
Mof_N 	N 	0.0124	0.1124	0.55657	-0.137
Mof_N 	N 	0.4406	0.7163	0.13459	-0.139
Mof_N 	N 	0.9876	0.3876	0.05657	-0.138
Mof_N 	N 	0.1574	0.0795	0.53741	-0.142
Mof_N 	N 	0.0899	0.4505	0.95663	-0.272
Mof_N 	N 	0.41	0.5419	0.10572	-0.267
Mof_N 	N 	0.4032	0.7671	0.78192	-0.266
Mof_N 	N 	0.5594	0.7837	0.63459	-0.139
Mof_N 	N 	0.4799	0.6764	0.18009	-0.141
Mof_N 	N 	0.4798	0.7625	0.17821	-0.139
Mof_N 	N 	0.5074	0.4472	0.07519	-0.273
Mof_N 	N 	0.8426	0.4205	0.03741	-0.142
Mof_N 	N 	0.4071	0.7995	0.85059	-0.27
Mof_N 	N 	0.3426	0.5795	0.46259	-0.142
Mof_N 	N 	0.4876	0.6124	0.44343	-0.138
Mof_N 	N 	0.4101	0.9505	0.04337	-0.272
Mof_N 	N 	0.5202	0.7375	0.67821	-0.139
Mof_N 	N 	0.3399	0.6236	0.4167	-0.129
Mof_N 	N 	0.1601	0.1236	0.5833	-0.129
Mof_N 	N 	0.1046	0.3907	0.89683	-0.268
Mof_N 	N 	0.0968	0.2671	0.21808	-0.266
Mof_N 	N 	0.3954	0.8907	0.10317	-0.268
_end
