data_functionalizedCrystal
_audit_creation_method	'EQeq! by Chris Wilmer'
_symmetry_space_group_name_H-M	'P1'
_symmetry_Int_Tables_number	1
_symmetry_cell_setting	triclinic
loop_
_symmetry_equiv_pos_as_xyz
  x,y,z
_cell_length_a	20.0843
_cell_length_b	20.0843
_cell_length_c	20.2408
_cell_angle_alpha	90
_cell_angle_beta	90
_cell_angle_gamma	120
loop_
_atom_site_label
_atom_site_type_symbol
_atom_site_fract_x
_atom_site_fract_y
_atom_site_fract_z
_atom_site_charge
Mof_N 	N 	0.1221	0.2255	0.1081	-0.161
Mof_N 	N 	0.0566	0.1118	0.0668	-0.122
Mof_N 	N 	0.1889	0.3458	0.0582	-0.164
Mof_C 	C 	0.1013	0.1822	0.0522	0.117
Mof_H 	H 	0.1172	0.2011	0.0097	0.006
Mof_N 	N 	0.0487	0.1077	0.1349	-0.115
Mof_C 	C 	0.1773	0.3076	0.1149	0.188
Mof_C 	C 	0.2113	0.3384	0.1741	-0.222
Mof_H 	H 	0.201	0.3077	0.2114	0.116
Mof_C 	C 	0.2397	0.4209	0.0627	0.192
Mof_C 	C 	0.0887	0.1772	0.1586	0.114
Mof_H 	H 	0.0931	0.1908	0.203	-0.001
Mof_C 	C 	0.278	0.4592	0.118	-0.228
Mof_H 	H 	0.3138	0.5115	0.1168	0.111
Mof_C 	C 	0.2617	0.4173	0.1768	0.133
Mof_H 	H 	0.284	0.4415	0.2165	-0.014
Mof_N 	N 	0.2503	0.4609	0.0022	-0.168
Mof_C 	C 	0.277	0.5364	0.9925	0.121
Mof_H 	H 	0.2908	0.5722	0.0263	-0.016
Mof_C 	C 	0.2355	0.4302	0.9395	0.102
Mof_H 	H 	0.2147	0.3783	0.9298	0.016
Mof_N 	N 	0.2812	0.5532	0.9301	-0.126
Mof_N 	N 	0.2552	0.4848	0.8953	-0.093
Mof_N 	N 	0.78877	0.55883	0.44143	-0.161
Mof_N 	N 	0.72327	0.44513	0.40013	-0.119
Mof_N 	N 	0.85557	0.67913	0.39153	-0.164
Mof_C 	C 	0.76797	0.51553	0.38553	0.12
Mof_H 	H 	0.78387	0.53443	0.34303	0.009
Mof_N 	N 	0.71537	0.44103	0.46823	-0.113
Mof_C 	C 	0.84397	0.64093	0.44823	0.19
Mof_C 	C 	0.87797	0.67173	0.50743	-0.223
Mof_H 	H 	0.86767	0.64103	0.54473	0.118
Mof_C 	C 	0.90637	0.75423	0.39603	0.195
Mof_C 	C 	0.75537	0.51053	0.49193	0.116
Mof_H 	H 	0.75977	0.52413	0.53633	0.001
Mof_C 	C 	0.94467	0.79253	0.45133	-0.228
Mof_H 	H 	0.98047	0.84483	0.45013	0.117
Mof_C 	C 	0.92837	0.75063	0.51013	0.137
Mof_H 	H 	0.95067	0.77483	0.54983	-0.011
Mof_N 	N 	0.91697	0.79423	0.33553	-0.162
Mof_C 	C 	0.94367	0.86973	0.32583	0.111
Mof_H 	H 	0.95747	0.90553	0.35963	-0.002
Mof_C 	C 	0.90217	0.76353	0.27283	0.101
Mof_H 	H 	0.88137	0.71163	0.26313	0.019
Mof_N 	N 	0.94787	0.88653	0.26343	-0.115
Mof_N 	N 	0.92187	0.81813	0.22863	-0.089
Mof_N 	N 	0.45543	0.89217	0.77477	-0.168
Mof_N 	N 	0.38993	0.77847	0.73347	-0.12
Mof_N 	N 	0.52223	0.01247	0.72487	-0.183
Mof_C 	C 	0.43463	0.84887	0.71887	0.123
Mof_H 	H 	0.45053	0.86777	0.67637	0.009
Mof_N 	N 	0.38203	0.77437	0.80157	-0.113
Mof_C 	C 	0.51063	0.97427	0.78157	0.241
Mof_C 	C 	0.54463	0.00507	0.84077	-0.309
Mof_H 	H 	0.53433	0.97437	0.87807	0.156
Mof_C 	C 	0.57303	0.08757	0.72937	0.204
Mof_C 	C 	0.42203	0.84387	0.82527	0.119
Mof_H 	H 	0.42643	0.85747	0.86967	0
Mof_C 	C 	0.61133	0.12587	0.78467	-0.26
Mof_H 	H 	0.64713	0.17817	0.78347	0.122
Mof_C 	C 	0.59503	0.08397	0.84347	0.184
Mof_H 	H 	0.61733	0.10817	0.88317	-0.033
Mof_N 	N 	0.58363	0.12757	0.66887	-0.165
Mof_C 	C 	0.61033	0.20307	0.65917	0.109
Mof_H 	H 	0.62413	0.23887	0.69297	-0.01
Mof_C 	C 	0.56883	0.09687	0.60617	0.099
Mof_H 	H 	0.54803	0.04497	0.59647	0.013
Mof_N 	N 	0.61453	0.21987	0.59677	-0.124
Mof_N 	N 	0.58853	0.15147	0.56197	-0.094
Mof_N 	N 	0.7745	0.8966	0.1081	-0.161
Mof_N 	N 	0.8882	0.9448	0.0668	-0.111
Mof_N 	N 	0.6542	0.8431	0.0582	-0.164
Mof_C 	C 	0.8178	0.9191	0.0522	0.12
Mof_H 	H 	0.7989	0.9161	0.0097	0.01
Mof_N 	N 	0.8923	0.941	0.1349	-0.104
Mof_C 	C 	0.6924	0.8697	0.1149	0.191
Mof_C 	C 	0.6616	0.8729	0.1741	-0.224
Mof_H 	H 	0.6923	0.8933	0.2114	0.12
Mof_C 	C 	0.5791	0.8188	0.0627	0.194
Mof_C 	C 	0.8228	0.9115	0.1586	0.118
Mof_H 	H 	0.8092	0.9023	0.203	0.004
Mof_C 	C 	0.5408	0.8188	0.118	-0.229
Mof_H 	H 	0.4885	0.8023	0.1168	0.112
Mof_C 	C 	0.5827	0.8444	0.1768	0.136
Mof_H 	H 	0.5585	0.8425	0.2165	-0.013
Mof_N 	N 	0.5391	0.7894	0.0022	-0.167
Mof_C 	C 	0.4636	0.7406	0.9925	0.12
Mof_H 	H 	0.4278	0.7186	0.0263	-0.015
Mof_C 	C 	0.5698	0.8053	0.9395	0.103
Mof_H 	H 	0.6217	0.8364	0.9298	0.019
Mof_N 	N 	0.4468	0.728	0.9301	-0.125
Mof_N 	N 	0.5152	0.7704	0.8953	-0.092
Mof_N 	N 	0.44117	0.22993	0.44143	-0.161
Mof_N 	N 	0.55487	0.27813	0.40013	-0.12
Mof_N 	N 	0.32087	0.17643	0.39153	-0.164
Mof_C 	C 	0.48447	0.25243	0.38553	0.118
Mof_H 	H 	0.46557	0.24943	0.34303	0.008
Mof_N 	N 	0.55897	0.27433	0.46823	-0.113
Mof_C 	C 	0.35907	0.20303	0.44823	0.187
Mof_C 	C 	0.32827	0.20623	0.50743	-0.223
Mof_H 	H 	0.35897	0.22663	0.54473	0.116
Mof_C 	C 	0.24577	0.15213	0.39603	0.189
Mof_C 	C 	0.48947	0.24483	0.49193	0.115
Mof_H 	H 	0.47587	0.23563	0.53633	0
Mof_C 	C 	0.20747	0.15213	0.45133	-0.228
Mof_H 	H 	0.15517	0.13563	0.45013	0.108
Mof_C 	C 	0.24937	0.17773	0.51013	0.131
Mof_H 	H 	0.22517	0.17583	0.54983	-0.015
Mof_N 	N 	0.20577	0.12273	0.33553	-0.163
Mof_C 	C 	0.13027	0.07393	0.32583	0.106
Mof_H 	H 	0.09447	0.05193	0.35963	-0.016
Mof_C 	C 	0.23647	0.13863	0.27283	0.097
Mof_H 	H 	0.28837	0.16973	0.26313	0.017
Mof_N 	N 	0.11347	0.06133	0.26343	-0.127
Mof_N 	N 	0.18187	0.10373	0.22863	-0.094
Mof_N 	N 	0.10783	0.56327	0.77477	-0.153
Mof_N 	N 	0.22153	0.61147	0.73347	-0.119
Mof_N 	N 	0.98753	0.50977	0.72487	-0.142
Mof_C 	C 	0.15113	0.58577	0.71887	0.115
Mof_H 	H 	0.13223	0.58277	0.67637	0.007
Mof_N 	N 	0.22563	0.60767	0.80157	-0.112
Mof_C 	C 	0.02573	0.53637	0.78157	0.13
Mof_C 	C 	0.99493	0.53957	0.84077	-0.126
Mof_H 	H 	0.02563	0.55997	0.87807	0.073
Mof_C 	C 	0.91243	0.48547	0.72937	0.179
Mof_C 	C 	0.15613	0.57817	0.82527	0.112
Mof_H 	H 	0.14253	0.56897	0.86967	0.002
Mof_C 	C 	0.87413	0.48547	0.78467	-0.192
Mof_H 	H 	0.82183	0.46897	0.78347	0.099
Mof_C 	C 	0.91603	0.51107	0.84347	0.078
Mof_H 	H 	0.89183	0.50917	0.88317	0.009
Mof_N 	N 	0.87243	0.45607	0.66887	-0.16
Mof_C 	C 	0.79693	0.40727	0.65917	0.109
Mof_H 	H 	0.76113	0.38527	0.69297	-0.009
Mof_C 	C 	0.90313	0.47197	0.60617	0.099
Mof_H 	H 	0.95503	0.50307	0.59647	0.022
Mof_N 	N 	0.78013	0.39467	0.59677	-0.123
Mof_N 	N 	0.84853	0.43707	0.56197	-0.091
Mof_N 	N 	0.1034	0.8779	0.1081	-0.161
Mof_N 	N 	0.0552	0.9434	0.0668	-0.115
Mof_N 	N 	0.1569	0.8111	0.0582	-0.164
Mof_C 	C 	0.0809	0.8987	0.0522	0.118
Mof_H 	H 	0.0839	0.8828	0.0097	0.008
Mof_N 	N 	0.059	0.9513	0.1349	-0.108
Mof_C 	C 	0.1303	0.8227	0.1149	0.188
Mof_C 	C 	0.1271	0.7887	0.1741	-0.223
Mof_H 	H 	0.1067	0.799	0.2114	0.115
Mof_C 	C 	0.1812	0.7603	0.0627	0.192
Mof_C 	C 	0.0885	0.9113	0.1586	0.116
Mof_H 	H 	0.0977	0.9069	0.203	0.002
Mof_C 	C 	0.1812	0.722	0.118	-0.229
Mof_H 	H 	0.1977	0.6862	0.1168	0.111
Mof_C 	C 	0.1556	0.7383	0.1768	0.133
Mof_H 	H 	0.1575	0.716	0.2165	-0.014
Mof_N 	N 	0.2106	0.7497	0.0022	-0.167
Mof_C 	C 	0.2594	0.723	0.9925	0.118
Mof_H 	H 	0.2814	0.7092	0.0263	-0.015
Mof_C 	C 	0.1947	0.7645	0.9395	0.102
Mof_H 	H 	0.1636	0.7853	0.9298	0.017
Mof_N 	N 	0.272	0.7188	0.9301	-0.125
Mof_N 	N 	0.2296	0.7448	0.8953	-0.092
Mof_N 	N 	0.77007	0.21123	0.44143	-0.161
Mof_N 	N 	0.72187	0.27673	0.40013	-0.12
Mof_N 	N 	0.82357	0.14443	0.39153	-0.163
Mof_C 	C 	0.74757	0.23203	0.38553	0.119
Mof_H 	H 	0.75057	0.21613	0.34303	0.008
Mof_N 	N 	0.72567	0.28463	0.46823	-0.113
Mof_C 	C 	0.79697	0.15603	0.44823	0.189
Mof_C 	C 	0.79377	0.12203	0.50743	-0.223
Mof_H 	H 	0.77337	0.13233	0.54473	0.116
Mof_C 	C 	0.84787	0.09363	0.39603	0.192
Mof_C 	C 	0.75517	0.24463	0.49193	0.116
Mof_H 	H 	0.76437	0.24023	0.53633	0.001
Mof_C 	C 	0.84787	0.05533	0.45133	-0.227
Mof_H 	H 	0.86437	0.01953	0.45013	0.109
Mof_C 	C 	0.82227	0.07163	0.51013	0.134
Mof_H 	H 	0.82417	0.04933	0.54983	-0.015
Mof_N 	N 	0.87727	0.08303	0.33553	-0.162
Mof_C 	C 	0.92607	0.05633	0.32583	0.109
Mof_H 	H 	0.94807	0.04253	0.35963	-0.008
Mof_C 	C 	0.86137	0.09783	0.27283	0.098
Mof_H 	H 	0.83027	0.11863	0.26313	0.017
Mof_N 	N 	0.93867	0.05213	0.26343	-0.12
Mof_N 	N 	0.89627	0.07813	0.22863	-0.092
Mof_N 	N 	0.43673	0.54457	0.77477	-0.161
Mof_N 	N 	0.38853	0.61007	0.73347	-0.12
Mof_N 	N 	0.49023	0.47777	0.72487	-0.164
Mof_C 	C 	0.41423	0.56537	0.71887	0.119
Mof_H 	H 	0.41723	0.54947	0.67637	0.008
Mof_N 	N 	0.39233	0.61797	0.80157	-0.113
Mof_C 	C 	0.46363	0.48937	0.78157	0.188
Mof_C 	C 	0.46043	0.45537	0.84077	-0.223
Mof_H 	H 	0.44003	0.46567	0.87807	0.117
Mof_C 	C 	0.51453	0.42697	0.72937	0.192
Mof_C 	C 	0.42183	0.57797	0.82527	0.116
Mof_H 	H 	0.43103	0.57357	0.86967	0.001
Mof_C 	C 	0.51453	0.38867	0.78467	-0.228
Mof_H 	H 	0.53103	0.35287	0.78347	0.111
Mof_C 	C 	0.48893	0.40497	0.84347	0.134
Mof_H 	H 	0.49083	0.38267	0.88317	-0.013
Mof_N 	N 	0.54393	0.41637	0.66887	-0.163
Mof_C 	C 	0.59273	0.38967	0.65917	0.109
Mof_H 	H 	0.61473	0.37587	0.69297	-0.009
Mof_C 	C 	0.52803	0.43117	0.60617	0.099
Mof_H 	H 	0.49693	0.45197	0.59647	0.017
Mof_N 	N 	0.60533	0.38547	0.59677	-0.124
Mof_N 	N 	0.56293	0.41147	0.56197	-0.092
Mof_N 	N 	0.8779	0.7745	0.8919	-0.16
Mof_N 	N 	0.9434	0.8882	0.9332	-0.109
Mof_N 	N 	0.8111	0.6542	0.9418	-0.162
Mof_C 	C 	0.8987	0.8178	0.9478	0.121
Mof_H 	H 	0.8828	0.7989	0.9903	0.012
Mof_N 	N 	0.9513	0.8923	0.8651	-0.103
Mof_C 	C 	0.8227	0.6924	0.8851	0.19
Mof_C 	C 	0.7887	0.6616	0.8259	-0.223
Mof_H 	H 	0.799	0.6923	0.7886	0.117
Mof_C 	C 	0.7603	0.5791	0.9373	0.193
Mof_C 	C 	0.9113	0.8228	0.8414	0.118
Mof_H 	H 	0.9069	0.8092	0.797	0.004
Mof_C 	C 	0.722	0.5408	0.882	-0.227
Mof_H 	H 	0.6862	0.4885	0.8832	0.112
Mof_C 	C 	0.7383	0.5827	0.8232	0.135
Mof_H 	H 	0.716	0.5585	0.7835	-0.014
Mof_N 	N 	0.7497	0.5391	0.9978	-0.155
Mof_C 	C 	0.723	0.4636	0.0075	0.093
Mof_H 	H 	0.7092	0.4278	0.9737	-0.001
Mof_C 	C 	0.7645	0.5698	0.0605	0.094
Mof_H 	H 	0.7853	0.6217	0.0702	0.019
Mof_N 	N 	0.7188	0.4468	0.0699	-0.121
Mof_N 	N 	0.7448	0.5152	0.1047	-0.091
Mof_N 	N 	0.54457	0.10783	0.22523	-0.153
Mof_N 	N 	0.61007	0.22153	0.26653	-0.119
Mof_N 	N 	0.47777	0.98753	0.27513	-0.141
Mof_C 	C 	0.56537	0.15113	0.28113	0.115
Mof_H 	H 	0.54947	0.13223	0.32363	0.007
Mof_N 	N 	0.61797	0.22563	0.19843	-0.112
Mof_C 	C 	0.48937	0.02573	0.21843	0.126
Mof_C 	C 	0.45537	0.99493	0.15923	-0.121
Mof_H 	H 	0.46567	0.02563	0.12193	0.069
Mof_C 	C 	0.42697	0.91243	0.27063	0.178
Mof_C 	C 	0.57797	0.15613	0.17473	0.112
Mof_H 	H 	0.57357	0.14253	0.13033	0.001
Mof_C 	C 	0.38867	0.87413	0.21533	-0.19
Mof_H 	H 	0.35287	0.82183	0.21653	0.098
Mof_C 	C 	0.40497	0.91603	0.15653	0.075
Mof_H 	H 	0.38267	0.89183	0.11683	0.01
Mof_N 	N 	0.41637	0.87243	0.33113	-0.159
Mof_C 	C 	0.38967	0.79693	0.34083	0.109
Mof_H 	H 	0.37587	0.76113	0.30703	-0.009
Mof_C 	C 	0.43117	0.90313	0.39383	0.099
Mof_H 	H 	0.45197	0.95503	0.40353	0.022
Mof_N 	N 	0.38547	0.78013	0.40323	-0.123
Mof_N 	N 	0.41147	0.84853	0.43803	-0.091
Mof_N 	N 	0.21123	0.44117	0.55857	-0.161
Mof_N 	N 	0.27673	0.55487	0.59987	-0.12
Mof_N 	N 	0.14443	0.32087	0.60847	-0.164
Mof_C 	C 	0.23203	0.48447	0.61447	0.118
Mof_H 	H 	0.21613	0.46557	0.65697	0.007
Mof_N 	N 	0.28463	0.55897	0.53177	-0.113
Mof_C 	C 	0.15603	0.35907	0.55177	0.187
Mof_C 	C 	0.12203	0.32827	0.49257	-0.223
Mof_H 	H 	0.13233	0.35897	0.45527	0.115
Mof_C 	C 	0.09363	0.24577	0.60397	0.189
Mof_C 	C 	0.24463	0.48947	0.50807	0.115
Mof_H 	H 	0.24023	0.47587	0.46367	0.001
Mof_C 	C 	0.05533	0.20747	0.54867	-0.227
Mof_H 	H 	0.01953	0.15517	0.54987	0.105
Mof_C 	C 	0.07163	0.24937	0.48987	0.131
Mof_H 	H 	0.04933	0.22517	0.45017	-0.017
Mof_N 	N 	0.08303	0.20577	0.66447	-0.163
Mof_C 	C 	0.05633	0.13027	0.67417	0.106
Mof_H 	H 	0.04253	0.09447	0.64037	-0.015
Mof_C 	C 	0.09783	0.23647	0.72717	0.096
Mof_H 	H 	0.11863	0.28837	0.73687	0.016
Mof_N 	N 	0.05213	0.11347	0.73657	-0.126
Mof_N 	N 	0.07813	0.18187	0.77137	-0.094
Mof_N 	N 	0.2255	0.1034	0.8919	-0.161
Mof_N 	N 	0.1118	0.0552	0.9332	-0.12
Mof_N 	N 	0.3458	0.1569	0.9418	-0.163
Mof_C 	C 	0.1822	0.0809	0.9478	0.117
Mof_H 	H 	0.2011	0.0839	0.9903	0.008
Mof_N 	N 	0.1077	0.059	0.8651	-0.115
Mof_C 	C 	0.3076	0.1303	0.8851	0.186
Mof_C 	C 	0.3384	0.1271	0.8259	-0.223
Mof_H 	H 	0.3077	0.1067	0.7886	0.114
Mof_C 	C 	0.4209	0.1812	0.9373	0.191
Mof_C 	C 	0.1772	0.0885	0.8414	0.114
Mof_H 	H 	0.1908	0.0977	0.797	-0.001
Mof_C 	C 	0.4592	0.1812	0.882	-0.227
Mof_H 	H 	0.5115	0.1977	0.8832	0.111
Mof_C 	C 	0.4173	0.1556	0.8232	0.132
Mof_H 	H 	0.4415	0.1575	0.7835	-0.014
Mof_N 	N 	0.4609	0.2106	0.9978	-0.155
Mof_C 	C 	0.5364	0.2594	0.0075	0.092
Mof_H 	H 	0.5722	0.2814	0.9737	-0
Mof_C 	C 	0.4302	0.1947	0.0605	0.093
Mof_H 	H 	0.3783	0.1636	0.0702	0.016
Mof_N 	N 	0.5532	0.272	0.0699	-0.121
Mof_N 	N 	0.4848	0.2296	0.1047	-0.092
Mof_N 	N 	0.89217	0.43673	0.22523	-0.168
Mof_N 	N 	0.77847	0.38853	0.26653	-0.12
Mof_N 	N 	0.01247	0.49023	0.27513	-0.184
Mof_C 	C 	0.84887	0.41423	0.28113	0.123
Mof_H 	H 	0.86777	0.41723	0.32363	0.009
Mof_N 	N 	0.77437	0.39233	0.19843	-0.113
Mof_C 	C 	0.97427	0.46363	0.21843	0.242
Mof_C 	C 	0.00507	0.46043	0.15923	-0.311
Mof_H 	H 	0.97437	0.44003	0.12193	0.156
Mof_C 	C 	0.08757	0.51453	0.27063	0.204
Mof_C 	C 	0.84387	0.42183	0.17473	0.119
Mof_H 	H 	0.85747	0.43103	0.13033	-0
Mof_C 	C 	0.12587	0.51453	0.21533	-0.261
Mof_H 	H 	0.17817	0.53103	0.21653	0.122
Mof_C 	C 	0.08397	0.48893	0.15653	0.185
Mof_H 	H 	0.10817	0.49083	0.11683	-0.035
Mof_N 	N 	0.12757	0.54393	0.33113	-0.165
Mof_C 	C 	0.20307	0.59273	0.34083	0.109
Mof_H 	H 	0.23887	0.61473	0.30703	-0.01
Mof_C 	C 	0.09687	0.52803	0.39383	0.099
Mof_H 	H 	0.04497	0.49693	0.40353	0.013
Mof_N 	N 	0.21987	0.60533	0.40323	-0.124
Mof_N 	N 	0.15147	0.56293	0.43803	-0.094
Mof_N 	N 	0.55883	0.77007	0.55857	-0.161
Mof_N 	N 	0.44513	0.72187	0.59987	-0.119
Mof_N 	N 	0.67913	0.82357	0.60847	-0.163
Mof_C 	C 	0.51553	0.74757	0.61447	0.12
Mof_H 	H 	0.53443	0.75057	0.65697	0.008
Mof_N 	N 	0.44103	0.72567	0.53177	-0.112
Mof_C 	C 	0.64093	0.79697	0.55177	0.19
Mof_C 	C 	0.67173	0.79377	0.49257	-0.223
Mof_H 	H 	0.64103	0.77337	0.45527	0.118
Mof_C 	C 	0.75423	0.84787	0.60397	0.195
Mof_C 	C 	0.51053	0.75517	0.50807	0.117
Mof_H 	H 	0.52413	0.76437	0.46367	0.002
Mof_C 	C 	0.79253	0.84787	0.54867	-0.228
Mof_H 	H 	0.84483	0.86437	0.54987	0.114
Mof_C 	C 	0.75063	0.82227	0.48987	0.137
Mof_H 	H 	0.77483	0.82417	0.45017	-0.013
Mof_N 	N 	0.79423	0.87727	0.66447	-0.162
Mof_C 	C 	0.86973	0.92607	0.67417	0.111
Mof_H 	H 	0.90553	0.94807	0.64037	-0.002
Mof_C 	C 	0.76353	0.86137	0.72717	0.101
Mof_H 	H 	0.71163	0.83027	0.73687	0.018
Mof_N 	N 	0.88653	0.93867	0.73657	-0.115
Mof_N 	N 	0.81813	0.89627	0.77137	-0.089
Mof_N 	N 	0.8966	0.1221	0.8919	-0.161
Mof_N 	N 	0.9448	0.0566	0.9332	-0.114
Mof_N 	N 	0.8431	0.1889	0.9418	-0.163
Mof_C 	C 	0.9191	0.1013	0.9478	0.12
Mof_H 	H 	0.9161	0.1172	0.9903	0.012
Mof_N 	N 	0.941	0.0487	0.8651	-0.109
Mof_C 	C 	0.8697	0.1773	0.8851	0.19
Mof_C 	C 	0.8729	0.2113	0.8259	-0.223
Mof_H 	H 	0.8933	0.201	0.7886	0.119
Mof_C 	C 	0.8188	0.2397	0.9373	0.193
Mof_C 	C 	0.9115	0.0887	0.8414	0.117
Mof_H 	H 	0.9023	0.0931	0.797	0.002
Mof_C 	C 	0.8188	0.278	0.882	-0.227
Mof_H 	H 	0.8023	0.3138	0.8832	0.112
Mof_C 	C 	0.8444	0.2617	0.8232	0.135
Mof_H 	H 	0.8425	0.284	0.7835	-0.013
Mof_N 	N 	0.7894	0.2503	0.9978	-0.154
Mof_C 	C 	0.7406	0.277	0.0075	0.091
Mof_H 	H 	0.7186	0.2908	0.9737	0.001
Mof_C 	C 	0.8053	0.2355	0.0605	0.092
Mof_H 	H 	0.8364	0.2147	0.0702	0.019
Mof_N 	N 	0.728	0.2812	0.0699	-0.121
Mof_N 	N 	0.7704	0.2552	0.1047	-0.092
Mof_N 	N 	0.56327	0.45543	0.22523	-0.161
Mof_N 	N 	0.61147	0.38993	0.26653	-0.12
Mof_N 	N 	0.50977	0.52223	0.27513	-0.164
Mof_C 	C 	0.58577	0.43463	0.28113	0.119
Mof_H 	H 	0.58277	0.45053	0.32363	0.008
Mof_N 	N 	0.60767	0.38203	0.19843	-0.113
Mof_C 	C 	0.53637	0.51063	0.21843	0.188
Mof_C 	C 	0.53957	0.54463	0.15923	-0.223
Mof_H 	H 	0.55997	0.53433	0.12193	0.116
Mof_C 	C 	0.48547	0.57303	0.27063	0.192
Mof_C 	C 	0.57817	0.42203	0.17473	0.116
Mof_H 	H 	0.56897	0.42643	0.13033	0
Mof_C 	C 	0.48547	0.61133	0.21533	-0.228
Mof_H 	H 	0.46897	0.64713	0.21653	0.111
Mof_C 	C 	0.51107	0.59503	0.15653	0.134
Mof_H 	H 	0.50917	0.61733	0.11683	-0.014
Mof_N 	N 	0.45607	0.58363	0.33113	-0.163
Mof_C 	C 	0.40727	0.61033	0.34083	0.109
Mof_H 	H 	0.38527	0.62413	0.30703	-0.009
Mof_C 	C 	0.47197	0.56883	0.39383	0.099
Mof_H 	H 	0.50307	0.54803	0.40353	0.017
Mof_N 	N 	0.39467	0.61453	0.40323	-0.124
Mof_N 	N 	0.43707	0.58853	0.43803	-0.092
Mof_N 	N 	0.22993	0.78877	0.55857	-0.161
Mof_N 	N 	0.27813	0.72327	0.59987	-0.12
Mof_N 	N 	0.17643	0.85557	0.60847	-0.164
Mof_C 	C 	0.25243	0.76797	0.61447	0.119
Mof_H 	H 	0.24943	0.78387	0.65697	0.008
Mof_N 	N 	0.27433	0.71537	0.53177	-0.113
Mof_C 	C 	0.20303	0.84397	0.55177	0.188
Mof_C 	C 	0.20623	0.87797	0.49257	-0.223
Mof_H 	H 	0.22663	0.86767	0.45527	0.117
Mof_C 	C 	0.15213	0.90637	0.60397	0.193
Mof_C 	C 	0.24483	0.75537	0.50807	0.116
Mof_H 	H 	0.23563	0.75977	0.46367	0
Mof_C 	C 	0.15213	0.94467	0.54867	-0.228
Mof_H 	H 	0.13563	0.98047	0.54987	0.114
Mof_C 	C 	0.17773	0.92837	0.48987	0.134
Mof_H 	H 	0.17583	0.95067	0.45017	-0.011
Mof_N 	N 	0.12273	0.91697	0.66447	-0.162
Mof_C 	C 	0.07393	0.94367	0.67417	0.109
Mof_H 	H 	0.05193	0.95747	0.64037	-0.009
Mof_C 	C 	0.13863	0.90217	0.72717	0.099
Mof_H 	H 	0.16973	0.88137	0.73687	0.018
Mof_N 	N 	0.06133	0.94787	0.73657	-0.12
Mof_N 	N 	0.10373	0.92187	0.77137	-0.091
Mof_Cd	Cd	-0	0	-0	0.358
Mof_Cd	Cd	0.66667	0.33333	0.33333	0.392
Mof_Cd	Cd	0.33333	0.66667	0.66667	0.392
Mof_Cd	Cd	3.57009e-33	3.57009e-33	0.20472	0.368
Mof_Cd	Cd	0.66667	0.33333	0.53805	0.398
Mof_Cd	Cd	0.33333	0.66667	0.87139	0.399
Mof_Cd	Cd	-1.42803e-32	0	0.79528	0.369
Mof_Cd	Cd	0.66667	0.33333	0.12861	0.397
Mof_Cd	Cd	0.33333	0.66667	0.46195	0.398
_end
