data_functionalizedCrystal
_audit_creation_method	'EQeq! by Chris Wilmer'
_symmetry_space_group_name_H-M	'P1'
_symmetry_Int_Tables_number	1
_symmetry_cell_setting	triclinic
loop_
_symmetry_equiv_pos_as_xyz
  x,y,z
_cell_length_a	15.123
_cell_length_b	12.305
_cell_length_c	19.264
_cell_angle_alpha	90
_cell_angle_beta	98.62
_cell_angle_gamma	90
loop_
_atom_site_label
_atom_site_type_symbol
_atom_site_fract_x
_atom_site_fract_y
_atom_site_fract_z
_atom_site_charge
Mof_Mo	Mo	0.0164	0.1464	0.8239	1.062
Mof_Mo	Mo	0.1193	0.2462	0.9246	1.146
Mof_Mo	Mo	0.2466	0.091	0.059	1.019
Mof_Mo	Mo	0.2365	0.8805	0.0576	1.125
Mof_Mo	Mo	0.0967	0.7456	0.9201	1.116
Mof_Mo	Mo	0.0044	0.8591	0.8206	1.105
Mof_P 	P 	0.1977	0.9896	0.8924	0.6
Mof_P 	P 	0.0342	0.0034	0.6774	0.496
Mof_P 	P 	0.3387	0.2684	0.9601	0.586
Mof_P 	P 	0.3136	0.698	0.9557	0.568
Mof_O 	O 	0.129	0.2218	0.8267	-0.491
Mof_O 	O 	0.0222	0.139	0.9265	-0.545
Mof_O 	O 	0.024	0.1046	0.7203	-0.39
Mof_O 	O 	0.9347	0.0088	0.8197	-0.441
Mof_O 	O 	0.1084	0.9954	0.842	-0.382
Mof_O 	O 	0.1511	0.2172	0.0331	-0.485
Mof_O 	O 	0.2465	0.3121	0.9332	-0.387
Mof_O 	O 	0.2029	0.091	0.9403	-0.411
Mof_O 	O 	0.1428	0.9924	0.0574	-0.512
Mof_O 	O 	0.3277	0.9798	0.0365	-0.472
Mof_O 	O 	0.3357	0.2008	0.0266	-0.405
Mof_O 	O 	0.1933	0.8892	0.9401	-0.402
Mof_O 	O 	0.3168	0.7577	0.0257	-0.408
Mof_O 	O 	0.1323	0.7682	0.0304	-0.488
Mof_O 	O 	0.1087	0.7686	0.8213	-0.485
Mof_O 	O 	0.2176	0.6663	0.9264	-0.389
Mof_O 	O 	0.009	0.8624	0.9235	-0.536
Mof_O 	O 	0.0234	0.9008	0.7207	-0.364
Mof_O 	O 	0.2796	0.9808	0.8565	-0.176
Mof_O 	O 	0.9708	0.0069	0.6101	-0.236
Mof_O 	O 	0.1348	0.0008	0.6622	-0.176
Mof_O 	O 	0.3637	0.188	0.9022	-0.179
Mof_O 	O 	0.4121	0.3491	0.9704	-0.24
Mof_O 	O 	0.3734	0.601	0.9603	-0.234
Mof_O 	O 	0.3488	0.7779	0.9	-0.16
Mof_Mo	Mo	0.4836	0.6464	0.6761	1.138
Mof_Mo	Mo	0.3807	0.7462	0.5754	1.133
Mof_Mo	Mo	0.2534	0.591	0.441	1.11
Mof_Mo	Mo	0.2635	0.3805	0.4424	1.11
Mof_Mo	Mo	0.4033	0.2456	0.5799	1.094
Mof_Mo	Mo	0.4956	0.3591	0.6794	1.129
Mof_P 	P 	0.3023	0.4896	0.6076	0.582
Mof_P 	P 	0.4658	0.5034	0.8226	0.556
Mof_P 	P 	0.1613	0.7684	0.5399	0.565
Mof_P 	P 	0.1864	0.198	0.5443	0.549
Mof_O 	O 	0.371	0.7218	0.6733	-0.49
Mof_O 	O 	0.4778	0.639	0.5735	-0.549
Mof_O 	O 	0.476	0.6046	0.7797	-0.386
Mof_O 	O 	0.5653	0.5088	0.6803	-0.47
Mof_O 	O 	0.3916	0.4954	0.658	-0.405
Mof_O 	O 	0.3489	0.7172	0.4669	-0.465
Mof_O 	O 	0.2535	0.8121	0.5668	-0.381
Mof_O 	O 	0.2971	0.591	0.5597	-0.41
Mof_O 	O 	0.3572	0.4924	0.4426	-0.542
Mof_O 	O 	0.1723	0.4798	0.4635	-0.499
Mof_O 	O 	0.1643	0.7008	0.4734	-0.39
Mof_O 	O 	0.3067	0.3892	0.5599	-0.413
Mof_O 	O 	0.1832	0.2577	0.4743	-0.396
Mof_O 	O 	0.3677	0.2682	0.4696	-0.471
Mof_O 	O 	0.3913	0.2686	0.6787	-0.487
Mof_O 	O 	0.2824	0.1663	0.5736	-0.394
Mof_O 	O 	0.491	0.3624	0.5765	-0.549
Mof_O 	O 	0.4766	0.4008	0.7793	-0.387
Mof_O 	O 	0.2204	0.4808	0.6435	-0.192
Mof_O 	O 	0.5292	0.5069	0.8899	-0.265
Mof_O 	O 	0.3652	0.5008	0.8378	-0.166
Mof_O 	O 	0.1363	0.688	0.5978	-0.177
Mof_O 	O 	0.0879	0.8491	0.5296	-0.241
Mof_O 	O 	0.1266	0.101	0.5397	-0.255
Mof_O 	O 	0.1512	0.2779	0.6	-0.172
Mof_Mo	Mo	0.9836	0.8536	0.1761	1.177
Mof_Mo	Mo	0.8807	0.7538	0.0754	1.1
Mof_Mo	Mo	0.7534	0.909	0.941	1.173
Mof_Mo	Mo	0.7635	0.1195	0.9424	1.13
Mof_Mo	Mo	0.9033	0.2544	0.0799	1.082
Mof_Mo	Mo	0.9956	0.1409	0.1794	1.148
Mof_P 	P 	0.8023	0.0104	0.1076	0.565
Mof_P 	P 	0.9658	0.9966	0.3226	0.592
Mof_P 	P 	0.6613	0.7316	0.0399	0.546
Mof_P 	P 	0.6864	0.302	0.0443	0.525
Mof_O 	O 	0.871	0.7782	0.1733	-0.488
Mof_O 	O 	0.9778	0.861	0.0735	-0.529
Mof_O 	O 	0.976	0.8954	0.2797	-0.386
Mof_O 	O 	0.0653	0.9912	0.1803	-0.48
Mof_O 	O 	0.8916	0.0046	0.158	-0.418
Mof_O 	O 	0.8489	0.7828	0.9669	-0.441
Mof_O 	O 	0.7535	0.6879	0.0668	-0.387
Mof_O 	O 	0.7971	0.909	0.0597	-0.405
Mof_O 	O 	0.8572	0.0076	0.9426	-0.532
Mof_O 	O 	0.6723	0.0202	0.9635	-0.505
Mof_O 	O 	0.6643	0.7992	0.9734	-0.367
Mof_O 	O 	0.8067	0.1108	0.0599	-0.427
Mof_O 	O 	0.6832	0.2423	0.9743	-0.364
Mof_O 	O 	0.8677	0.2318	0.9696	-0.434
Mof_O 	O 	0.8913	0.2314	0.1787	-0.483
Mof_O 	O 	0.7824	0.3337	0.0736	-0.388
Mof_O 	O 	0.991	0.1376	0.0765	-0.536
Mof_O 	O 	0.9766	0.0992	0.2793	-0.4
Mof_O 	O 	0.7204	0.0192	0.1435	-0.204
Mof_O 	O 	0.0292	0.9931	0.3899	-0.281
Mof_O 	O 	0.8652	0.9992	0.3378	-0.155
Mof_O 	O 	0.6363	0.812	0.0978	-0.169
Mof_O 	O 	0.5879	0.6509	0.0296	-0.256
Mof_O 	O 	0.6266	0.399	0.0397	-0.249
Mof_O 	O 	0.6512	0.2221	0.1	-0.172
Mof_Mo	Mo	0.5164	0.3536	0.3239	1.124
Mof_Mo	Mo	0.6193	0.2538	0.4246	1.114
Mof_Mo	Mo	0.7466	0.409	0.559	1.122
Mof_Mo	Mo	0.7365	0.6195	0.5576	1.13
Mof_Mo	Mo	0.5967	0.7544	0.4201	1.112
Mof_Mo	Mo	0.5044	0.6409	0.3206	1.129
Mof_P 	P 	0.6977	0.5104	0.3924	0.582
Mof_P 	P 	0.5342	0.4966	0.1774	0.557
Mof_P 	P 	0.8387	0.2316	0.4601	0.564
Mof_P 	P 	0.8136	0.802	0.4557	0.549
Mof_O 	O 	0.629	0.2782	0.3267	-0.492
Mof_O 	O 	0.5222	0.361	0.4265	-0.547
Mof_O 	O 	0.524	0.3954	0.2203	-0.391
Mof_O 	O 	0.4347	0.4912	0.3197	-0.473
Mof_O 	O 	0.6084	0.5046	0.342	-0.403
Mof_O 	O 	0.6511	0.2828	0.5331	-0.468
Mof_O 	O 	0.7465	0.1879	0.4332	-0.391
Mof_O 	O 	0.7029	0.409	0.4403	-0.409
Mof_O 	O 	0.6428	0.5076	0.5574	-0.545
Mof_O 	O 	0.8277	0.5202	0.5365	-0.489
Mof_O 	O 	0.8357	0.2992	0.5266	-0.38
Mof_O 	O 	0.6933	0.6108	0.4401	-0.416
Mof_O 	O 	0.8168	0.7423	0.5257	-0.38
Mof_O 	O 	0.6323	0.7318	0.5304	-0.466
Mof_O 	O 	0.6087	0.7314	0.3213	-0.483
Mof_O 	O 	0.7176	0.8337	0.4264	-0.384
Mof_O 	O 	0.509	0.6376	0.4235	-0.55
Mof_O 	O 	0.5234	0.5992	0.2207	-0.388
Mof_O 	O 	0.7796	0.5192	0.3565	-0.186
Mof_O 	O 	0.4708	0.4931	0.1101	-0.283
Mof_O 	O 	0.6348	0.4992	0.1622	-0.165
Mof_O 	O 	0.8637	0.312	0.4022	-0.169
Mof_O 	O 	0.9121	0.1509	0.4704	-0.238
Mof_O 	O 	0.8734	0.899	0.4603	-0.221
Mof_O 	O 	0.8488	0.7221	0.4	-0.159
Mof_Cd	Cd	-0	0	-0	0.482
Mof_Cd	Cd	0.5	0.5	0.5	0.586
Mof_Cd	Cd	2.74595e-33	7.12226e-33	0.5	0.478
Mof_Cd	Cd	0.5	0.5	-0	0.522
_end
