data_functionalizedCrystal
_audit_creation_method	'EQeq! by Chris Wilmer'
_symmetry_space_group_name_H-M	'P1'
_symmetry_Int_Tables_number	1
_symmetry_cell_setting	triclinic
loop_
_symmetry_equiv_pos_as_xyz
  x,y,z
_cell_length_a	15.1675
_cell_length_b	15.1675
_cell_length_c	11.9197
_cell_angle_alpha	90
_cell_angle_beta	90
_cell_angle_gamma	90
loop_
_atom_site_label
_atom_site_type_symbol
_atom_site_fract_x
_atom_site_fract_y
_atom_site_fract_z
_atom_site_charge
Mof_O 	O 	0.0999	0.2867	0.9985	-0.745
Mof_O 	O 	0.1252	0.1199	0.1068	-0.96
Mof_C 	C 	0.0921	0.36	0.0488	0.316
Mof_C 	C 	0.0408	0.431	0.9901	0.318
Mof_C 	C 	0.039	0.431	0.8715	-0.275
Mof_H 	H 	0.0642	0.3844	0.8322	0.103
Mof_O 	O 	0.5999	0.7867	0.4985	-1.048
Mof_O 	O 	0.6252	0.6199	0.6068	-1.008
Mof_C 	C 	0.5921	0.86	0.5488	0.773
Mof_C 	C 	0.5408	0.931	0.4901	-0.246
Mof_C 	C 	0.539	0.931	0.3715	0.071
Mof_H 	H 	0.5642	0.8844	0.3322	-0.02
Mof_O 	O 	0.4001	0.2133	0.4985	-1.051
Mof_O 	O 	0.3748	0.3801	0.6068	-1.007
Mof_C 	C 	0.4079	0.14	0.5488	0.774
Mof_C 	C 	0.4592	0.069	0.4901	-0.269
Mof_C 	C 	0.461	0.069	0.3715	0.043
Mof_H 	H 	0.4358	0.1156	0.3322	-0.016
Mof_O 	O 	0.9001	0.7133	0.9985	-0.735
Mof_O 	O 	0.8748	0.8801	0.1068	-0.95
Mof_C 	C 	0.9079	0.64	0.0488	0.308
Mof_C 	C 	0.9592	0.569	0.9901	0.321
Mof_C 	C 	0.961	0.569	0.8715	-0.279
Mof_H 	H 	0.9358	0.6156	0.8322	0.105
Mof_O 	O 	0.7133	0.5999	0.2485	-1.06
Mof_O 	O 	0.8801	0.6252	0.3568	-1.016
Mof_C 	C 	0.64	0.5921	0.2988	0.811
Mof_C 	C 	0.569	0.5408	0.2401	-0.393
Mof_C 	C 	0.569	0.539	0.1215	0.244
Mof_H 	H 	0.6156	0.5642	0.0822	-0.122
Mof_O 	O 	0.2133	0.0999	0.7485	-1.033
Mof_O 	O 	0.3801	0.1252	0.8568	-1.09
Mof_C 	C 	0.14	0.0921	0.7988	0.749
Mof_C 	C 	0.069	0.0408	0.7401	-0.277
Mof_C 	C 	0.069	0.039	0.6215	0.104
Mof_H 	H 	0.1156	0.0642	0.5822	-0.038
Mof_O 	O 	0.7867	0.9001	0.7485	-1.027
Mof_O 	O 	0.6199	0.8748	0.8568	-1.083
Mof_C 	C 	0.86	0.9079	0.7988	0.747
Mof_C 	C 	0.931	0.9592	0.7401	-0.254
Mof_C 	C 	0.931	0.961	0.6215	0.129
Mof_H 	H 	0.8844	0.9358	0.5822	-0.04
Mof_O 	O 	0.2867	0.4001	0.2485	-1.058
Mof_O 	O 	0.1199	0.3748	0.3568	-1.015
Mof_C 	C 	0.36	0.4079	0.2988	0.811
Mof_C 	C 	0.431	0.4592	0.2401	-0.393
Mof_C 	C 	0.431	0.461	0.1215	0.244
Mof_H 	H 	0.3844	0.4358	0.0822	-0.121
Mof_O 	O 	0.4001	0.2867	0.7515	-1.04
Mof_O 	O 	0.3748	0.1199	0.6432	-1.009
Mof_C 	C 	0.4079	0.36	0.7012	0.77
Mof_C 	C 	0.4592	0.431	0.7599	-0.243
Mof_C 	C 	0.461	0.431	0.8785	0.003
Mof_H 	H 	0.4358	0.3844	0.9178	0.04
Mof_O 	O 	0.9001	0.7867	0.2515	-1.032
Mof_O 	O 	0.8748	0.6199	0.1432	-0.899
Mof_C 	C 	0.9079	0.86	0.2012	0.751
Mof_C 	C 	0.9592	0.931	0.2599	-0.298
Mof_C 	C 	0.961	0.931	0.3785	0.151
Mof_H 	H 	0.9358	0.8844	0.4178	-0.05
Mof_O 	O 	0.0999	0.2133	0.2515	-1.034
Mof_O 	O 	0.1252	0.3801	0.1432	-0.899
Mof_C 	C 	0.0921	0.14	0.2012	0.753
Mof_C 	C 	0.0408	0.069	0.2599	-0.316
Mof_C 	C 	0.039	0.069	0.3785	0.126
Mof_H 	H 	0.0642	0.1156	0.4178	-0.046
Mof_O 	O 	0.5999	0.7133	0.7515	-1.038
Mof_O 	O 	0.6252	0.8801	0.6432	-0.999
Mof_C 	C 	0.5921	0.64	0.7012	0.771
Mof_C 	C 	0.5408	0.569	0.7599	-0.243
Mof_C 	C 	0.539	0.569	0.8785	0.003
Mof_H 	H 	0.5642	0.6156	0.9178	0.042
Mof_O 	O 	0.7867	0.5999	0.5015	-1.057
Mof_O 	O 	0.6199	0.6252	0.3932	-1.021
Mof_C 	C 	0.86	0.5921	0.4512	0.805
Mof_C 	C 	0.931	0.5408	0.5099	-0.371
Mof_C 	C 	0.931	0.539	0.6285	0.211
Mof_H 	H 	0.8844	0.5642	0.6678	-0.074
Mof_O 	O 	0.2867	0.0999	0.0015	-1.16
Mof_O 	O 	0.1199	0.1252	0.8932	-0.875
Mof_C 	C 	0.36	0.0921	0.9512	1.184
Mof_C 	C 	0.431	0.0408	0.0099	-0.904
Mof_C 	C 	0.431	0.039	0.1285	0.487
Mof_H 	H 	0.3844	0.0642	0.1678	-0.176
Mof_O 	O 	0.7133	0.9001	0.0015	-1.158
Mof_O 	O 	0.8801	0.8748	0.8932	-0.863
Mof_C 	C 	0.64	0.9079	0.9512	1.194
Mof_C 	C 	0.569	0.9592	0.0099	-0.888
Mof_C 	C 	0.569	0.961	0.1285	0.517
Mof_H 	H 	0.6156	0.9358	0.1678	-0.179
Mof_O 	O 	0.2133	0.4001	0.5015	-1.055
Mof_O 	O 	0.3801	0.3748	0.3932	-1.022
Mof_C 	C 	0.14	0.4079	0.4512	0.804
Mof_C 	C 	0.069	0.4592	0.5099	-0.368
Mof_C 	C 	0.069	0.461	0.6285	0.214
Mof_H 	H 	0.1156	0.4358	0.6678	-0.074
Mof_Ga	Ga	0.1943	0.1943	-0	3.77
Mof_Ga	Ga	0.6943	0.6943	0.5	4.345
Mof_Ga	Ga	0.3057	0.3057	0.5	4.342
Mof_Ga	Ga	0.8057	0.6943	0.25	4.251
Mof_Ga	Ga	0.6943	0.8057	0.75	4.382
Mof_Ga	Ga	0.3057	0.1943	0.75	4.378
Mof_Ga	Ga	0.1943	0.3057	0.25	4.25
Mof_Ga	Ga	0.8057	0.8057	-0	3.754
Mof_O 	O 	0.2527	0.25	0.125	-1.985
Mof_H 	H 	0.3083	0.25	0.125	0.628
Mof_O 	O 	0.7527	0.75	0.625	-2.116
Mof_H 	H 	0.8083	0.75	0.625	0.68
Mof_O 	O 	0.2473	0.25	0.625	-2.114
Mof_H 	H 	0.1917	0.25	0.625	0.679
Mof_O 	O 	0.7473	0.75	0.125	-1.983
Mof_H 	H 	0.6917	0.75	0.125	0.628
Mof_O 	O 	0.75	0.7527	0.375	-2.089
Mof_H 	H 	0.75	0.8083	0.375	0.675
Mof_O 	O 	0.25	0.2527	0.875	-1.962
Mof_H 	H 	0.25	0.3083	0.875	0.657
Mof_O 	O 	0.75	0.7473	0.875	-1.958
Mof_H 	H 	0.75	0.6917	0.875	0.656
Mof_O 	O 	0.25	0.2473	0.375	-2.088
Mof_H 	H 	0.25	0.1917	0.375	0.672
Mof_C 	C 	-6.76285e-33	0.5	0.048	-0.534
Mof_H 	H 	-6.53301e-33	0.5	0.126	0.222
Mof_C 	C 	6.99898e-33	0.5	0.8132	0.232
Mof_C 	C 	0.5	0	0.548	0.159
Mof_H 	H 	0.5	9.20571e-33	0.626	0.004
Mof_C 	C 	0.5	0	0.3132	0.012
Mof_C 	C 	0.5	0.5	0.298	0.305
Mof_H 	H 	0.5	0.5	0.376	-0.049
Mof_C 	C 	0.5	0.5	0.0632	-0.332
Mof_C 	C 	-2.25151e-33	0	0.798	0.171
Mof_H 	H 	1.17869e-32	9.20571e-33	0.876	0.017
Mof_C 	C 	6.26235e-33	4.60285e-33	0.5632	-0.098
Mof_C 	C 	0.5	0.5	0.702	0.183
Mof_H 	H 	0.5	0.5	0.624	-0.004
Mof_C 	C 	0.5	0.5	0.9368	0.154
Mof_C 	C 	5.95202e-34	0	0.202	0.205
Mof_H 	H 	1.51608e-33	1.15071e-33	0.124	-0.048
Mof_C 	C 	5.8899e-33	0	0.4368	-0.121
Mof_C 	C 	1.33184e-33	0.5	0.452	0.295
Mof_H 	H 	-5.80227e-33	0.5	0.374	-0.054
Mof_C 	C 	-7.18202e-33	0.5	0.6868	-0.23
Mof_C 	C 	0.5	0	0.952	0.944
Mof_H 	H 	0.5	0	0.874	-0.255
Mof_C 	C 	0.5	0	0.1868	-0.407
_end
