data_functionalizedCrystal
_audit_creation_method	'EQeq! by Chris Wilmer'
_symmetry_space_group_name_H-M	'P1'
_symmetry_Int_Tables_number	1
_symmetry_cell_setting	triclinic
loop_
_symmetry_equiv_pos_as_xyz
  x,y,z
_cell_length_a	10.2909
_cell_length_b	10.655
_cell_length_c	11.4221
_cell_angle_alpha	79.594
_cell_angle_beta	75.334
_cell_angle_gamma	61.906
loop_
_atom_site_label
_atom_site_type_symbol
_atom_site_fract_x
_atom_site_fract_y
_atom_site_fract_z
_atom_site_charge
Mof_Mn	Mn	0.55889	0.35795	0.19134	0.861
Mof_N 	N 	0.3533	0.3329	0.2749	-0.178
Mof_N 	N 	0.9895	0.1359	0.4987	-0.122
Mof_O 	O 	0.5174	0.3489	0.0169	-0.377
Mof_O 	O 	0.5469	0.4188	0.8215	-0.392
Mof_O 	O 	0.1926	0.7303	0.8652	-0.327
Mof_O 	O 	0.2887	0.8787	0.7864	-0.328
Mof_O 	O 	0.846	0.3624	0.4328	-0.224
Mof_C 	C 	0.4971	0.1008	0.9057	-0.05
Mof_H 	H 	0.4945	0.1687	0.8413	0.055
Mof_C 	C 	0.6223	0.0326	0.9609	0.002
Mof_C 	C 	0.6218	0.931	0.055	-0.05
Mof_H 	H 	0.7045	0.883	0.0926	0.054
Mof_C 	C 	0.5881	0.3331	0.9103	0.397
Mof_C 	C 	0.1769	0.8548	0.8326	0.282
Mof_C 	C 	0.7373	0.2036	0.8857	-0.135
Mof_C 	C 	0.7537	0.0651	0.9159	0.06
Mof_C 	C 	0.8987	0.9533	0.8984	-0.083
Mof_H 	H 	0.9117	0.8603	0.9196	0.07
Mof_C 	C 	0.0234	0.9768	0.8503	-0.019
Mof_C 	C 	0.0053	0.1152	0.8174	-0.072
Mof_H 	H 	0.0882	0.1325	0.7843	0.067
Mof_C 	C 	0.8621	0.2268	0.8345	0.035
Mof_H 	H 	0.8492	0.3196	0.8111	0.024
Mof_C 	C 	0.264	0.393	0.38	0.082
Mof_H 	H 	0.2846	0.4541	0.4127	0.002
Mof_C 	C 	0.146	0.367	0.4391	0.005
Mof_H 	H 	0.0909	0.4042	0.5136	0.029
Mof_C 	C 	0.1066	0.281	0.3829	0.008
Mof_C 	C 	0.2029	0.218	0.2839	0.007
Mof_H 	H 	0.1879	0.1541	0.2496	0.03
Mof_C 	C 	0.3229	0.246	0.232	0.021
Mof_H 	H 	0.3863	0.2	0.1628	0.025
Mof_C 	C 	0.9712	0.2607	0.4406	0.17
Mof_C 	C 	0.8617	0.107	0.5581	-0.053
Mof_H 	H 	0.7686	0.1929	0.5531	0.06
Mof_H 	H 	0.8657	0.0774	0.643	0.06
Mof_C 	C 	0.1333	0.0071	0.5026	-0.055
Mof_H 	H 	0.1437	0.975	0.5862	0.061
Mof_H 	H 	0.2159	0.029	0.4621	0.049
Mof_C 	C 	0.301	0.332	0.39	-0.046
Mof_H 	H 	0.3427	0.3562	0.44	0.02
Mof_C 	C 	0.182	0.297	0.442	-0.094
Mof_H 	H 	0.1587	0.2843	0.5265	0.057
Mof_C 	C 	0.139	0.308	0.2505	-0.107
Mof_H 	H 	0.0776	0.3117	0.2017	0.074
Mof_C 	C 	0.264	0.328	0.2025	0.013
Mof_H 	H 	0.2916	0.3397	0.1186	0.033
Mof_Mn	Mn	0.44111	0.64205	0.80866	0.86
Mof_N 	N 	0.6467	0.6671	0.7251	-0.179
Mof_N 	N 	0.0105	0.8641	0.5013	-0.122
Mof_O 	O 	0.4826	0.6511	0.9831	-0.377
Mof_O 	O 	0.4531	0.5812	0.1785	-0.392
Mof_O 	O 	0.8074	0.2697	0.1348	-0.327
Mof_O 	O 	0.7113	0.1213	0.2136	-0.328
Mof_O 	O 	0.154	0.6376	0.5672	-0.224
Mof_C 	C 	0.5029	0.8992	0.0943	-0.05
Mof_H 	H 	0.5055	0.8313	0.1587	0.055
Mof_C 	C 	0.3777	0.9674	0.0391	0.002
Mof_C 	C 	0.3782	0.069	0.945	-0.05
Mof_H 	H 	0.2955	0.117	0.9074	0.054
Mof_C 	C 	0.4119	0.6669	0.0897	0.397
Mof_C 	C 	0.8231	0.1452	0.1674	0.282
Mof_C 	C 	0.2627	0.7964	0.1143	-0.135
Mof_C 	C 	0.2463	0.9349	0.0841	0.06
Mof_C 	C 	0.1013	0.0467	0.1016	-0.083
Mof_H 	H 	0.0883	0.1397	0.0804	0.07
Mof_C 	C 	0.9766	0.0232	0.1497	-0.019
Mof_C 	C 	0.9947	0.8848	0.1826	-0.072
Mof_H 	H 	0.9118	0.8675	0.2157	0.067
Mof_C 	C 	0.1379	0.7732	0.1655	0.035
Mof_H 	H 	0.1508	0.6804	0.1889	0.024
Mof_C 	C 	0.736	0.607	0.62	0.082
Mof_H 	H 	0.7154	0.5459	0.5873	0.002
Mof_C 	C 	0.854	0.633	0.5609	0.005
Mof_H 	H 	0.9091	0.5958	0.4864	0.029
Mof_C 	C 	0.8934	0.719	0.6171	0.008
Mof_C 	C 	0.7971	0.782	0.7161	0.007
Mof_H 	H 	0.8121	0.8459	0.7504	0.03
Mof_C 	C 	0.6771	0.754	0.768	0.021
Mof_H 	H 	0.6137	0.8	0.8372	0.025
Mof_C 	C 	0.0288	0.7393	0.5594	0.17
Mof_C 	C 	0.1383	0.893	0.4419	-0.053
Mof_H 	H 	0.2314	0.8071	0.4469	0.06
Mof_H 	H 	0.1343	0.9226	0.357	0.06
Mof_C 	C 	0.8667	0.9929	0.4974	-0.055
Mof_H 	H 	0.8563	0.025	0.4138	0.061
Mof_H 	H 	0.7841	0.971	0.5379	0.049
Mof_C 	C 	0.699	0.668	0.61	-0.046
Mof_H 	H 	0.6573	0.6438	0.56	0.02
Mof_C 	C 	0.818	0.703	0.558	-0.094
Mof_H 	H 	0.8413	0.7157	0.4735	0.057
Mof_C 	C 	0.861	0.692	0.7495	-0.107
Mof_H 	H 	0.9224	0.6883	0.7983	0.074
Mof_C 	C 	0.736	0.672	0.7975	0.013
Mof_H 	H 	0.7084	0.6603	0.8814	0.033
_end
