data_functionalizedCrystal
_audit_creation_method	'EQeq! by Chris Wilmer'
_symmetry_space_group_name_H-M	'P1'
_symmetry_Int_Tables_number	1
_symmetry_cell_setting	triclinic
loop_
_symmetry_equiv_pos_as_xyz
  x,y,z
_cell_length_a	9.6205
_cell_length_b	11.564
_cell_length_c	12.229
_cell_angle_alpha	90
_cell_angle_beta	99.04
_cell_angle_gamma	90
loop_
_atom_site_label
_atom_site_type_symbol
_atom_site_fract_x
_atom_site_fract_y
_atom_site_fract_z
_atom_site_charge
Mof_Ho	Ho	0.78498	0.51238	0.16715	1.95
Mof_Ho	Ho	0.71502	0.01238	0.33285	1.951
Mof_Ho	Ho	0.21502	0.48762	0.83285	1.95
Mof_Ho	Ho	0.28498	0.98762	0.66715	1.951
Mof_C 	C 	0.701	0.7429	0.283	0.276
Mof_C 	C 	0.5042	0.4338	0.9986	0.278
Mof_C 	C 	0.8033	0.786	0.2077	0.257
Mof_C 	C 	0.0627	0.4999	0.0477	0.286
Mof_C 	C 	0.799	0.2429	0.217	0.275
Mof_C 	C 	0.9958	0.9338	0.5014	0.28
Mof_C 	C 	0.6967	0.286	0.2923	0.257
Mof_C 	C 	0.4373	0.9999	0.4523	0.287
Mof_C 	C 	0.299	0.2571	0.717	0.275
Mof_C 	C 	0.4958	0.5662	0.0014	0.277
Mof_C 	C 	0.1967	0.214	0.7923	0.257
Mof_C 	C 	0.9373	0.5001	0.9523	0.286
Mof_C 	C 	0.201	0.7571	0.783	0.275
Mof_C 	C 	0.0042	0.0662	0.4986	0.28
Mof_C 	C 	0.3033	0.714	0.7077	0.257
Mof_C 	C 	0.5627	0.0001	0.5477	0.287
Mof_O 	O 	0.6887	0.6354	0.2925	-0.39
Mof_O 	O 	0.6356	0.8179	0.3293	-0.391
Mof_O 	O 	0.603	0.3878	0.0627	-0.368
Mof_O 	O 	0.4122	0.3821	0.9329	-0.38
Mof_O 	O 	0.8213	0.8934	0.2045	-0.371
Mof_O 	O 	0.8618	0.7108	0.1563	-0.375
Mof_O 	O 	0.1821	0.4887	0.0221	-0.389
Mof_O 	O 	0.0326	0.5093	0.1435	-0.379
Mof_O 	O 	0.8113	0.1354	0.2075	-0.393
Mof_O 	O 	0.8644	0.3179	0.1707	-0.394
Mof_O 	O 	0.897	0.8878	0.4373	-0.367
Mof_O 	O 	0.0878	0.8821	0.5671	-0.383
Mof_O 	O 	0.6787	0.3934	0.2955	-0.373
Mof_O 	O 	0.6382	0.2108	0.3437	-0.375
Mof_O 	O 	0.3179	0.9887	0.4779	-0.389
Mof_O 	O 	0.4674	0.0093	0.3565	-0.379
Mof_O 	O 	0.3113	0.3646	0.7075	-0.39
Mof_O 	O 	0.3644	0.1821	0.6707	-0.391
Mof_O 	O 	0.397	0.6122	0.9373	-0.368
Mof_O 	O 	0.5878	0.6179	0.0671	-0.38
Mof_O 	O 	0.1787	0.1066	0.7955	-0.371
Mof_O 	O 	0.1382	0.2892	0.8437	-0.375
Mof_O 	O 	0.8179	0.5113	0.9779	-0.389
Mof_O 	O 	0.9674	0.4907	0.8565	-0.379
Mof_O 	O 	0.1887	0.8646	0.7925	-0.393
Mof_O 	O 	0.1356	0.6821	0.8293	-0.394
Mof_O 	O 	0.103	0.1122	0.5627	-0.367
Mof_O 	O 	0.9122	0.1179	0.4329	-0.383
Mof_O 	O 	0.3213	0.6066	0.7045	-0.373
Mof_O 	O 	0.3618	0.7892	0.6563	-0.375
Mof_O 	O 	0.6821	0.0113	0.5221	-0.389
Mof_O 	O 	0.5326	0.9907	0.6435	-0.379
_end
