data_functionalizedCrystal
_audit_creation_method	'EQeq! by Chris Wilmer'
_symmetry_space_group_name_H-M	'P1'
_symmetry_Int_Tables_number	1
_symmetry_cell_setting	triclinic
loop_
_symmetry_equiv_pos_as_xyz
  x,y,z
_cell_length_a	12.952
_cell_length_b	13.849
_cell_length_c	14.679
_cell_angle_alpha	112.46
_cell_angle_beta	99.574
_cell_angle_gamma	108.472
loop_
_atom_site_label
_atom_site_type_symbol
_atom_site_fract_x
_atom_site_fract_y
_atom_site_fract_z
_atom_site_charge
Mof_Mo	Mo	0.23058	0.88965	0.66989	1.957
Mof_Mo	Mo	0.76942	0.11035	0.33011	1.957
Mof_H 	H 	0.2389	0.1126	0.6552	0.135
Mof_H 	H 	0.1005	0.8224	0.4543	0.129
Mof_H 	H 	0.1828	0.6765	0.7072	0.145
Mof_H 	H 	0.9618	0.7174	0.5708	0.147
Mof_H 	H 	0.4571	0.7867	0.8026	0.131
Mof_H 	H 	0.486	0.0524	0.8173	0.152
Mof_H 	H 	0.2855	0.0437	0.4836	0.13
Mof_H 	H 	0.3013	0.796	0.4761	0.157
Mof_H 	H 	0.3388	0.2963	0.5685	0.07
Mof_H 	H 	0.3665	0.2765	0.6676	0.068
Mof_H 	H 	0.2325	0.3969	0.6434	0.099
Mof_H 	H 	0.2695	0.3826	0.7443	0.086
Mof_H 	H 	0.3638	0.458	0.7138	0.082
Mof_H 	H 	0.1452	0.8077	0.2619	0.066
Mof_H 	H 	0.0633	0.7089	0.2795	0.075
Mof_H 	H 	0.9039	0.6915	0.1594	0.091
Mof_H 	H 	0.9886	0.7867	0.1395	0.103
Mof_H 	H 	0.9959	0.6666	0.1063	0.083
Mof_H 	H 	0.1865	0.6392	0.8439	0.084
Mof_H 	H 	0.1356	0.5063	0.812	0.074
Mof_H 	H 	0.0156	0.6466	0.8596	0.087
Mof_H 	H 	0.9556	0.5116	0.816	0.092
Mof_H 	H 	0.0529	0.5894	0.9266	0.079
Mof_H 	H 	0.791	0.707	0.5975	0.078
Mof_H 	H 	0.7894	0.6508	0.673	0.07
Mof_H 	H 	0.6258	0.4871	0.542	0.098
Mof_H 	H 	0.6037	0.5999	0.5849	0.082
Mof_H 	H 	0.6245	0.5545	0.4759	0.088
Mof_H 	H 	0.7099	0.7937	0.8848	0.059
Mof_H 	H 	0.584	0.7064	0.8065	0.046
Mof_H 	H 	0.6517	0.7432	0.0117	0.11
Mof_H 	H 	0.5406	0.6412	0.9189	0.095
Mof_H 	H 	0.6644	0.6457	0.9192	0.095
Mof_H 	H 	0.6538	0.1932	0.8291	0.095
Mof_H 	H 	0.761	0.2526	0.9318	0.088
Mof_H 	H 	0.5709	0.3097	0.9125	0.073
Mof_H 	H 	0.6679	0.3621	0.0208	0.069
Mof_H 	H 	0.699	0.3897	0.9311	0.068
Mof_H 	H 	0.3365	0.1709	0.3513	0.069
Mof_H 	H 	0.2241	0.0846	0.354	0.083
Mof_H 	H 	0.3192	0.027	0.1914	0.1
Mof_H 	H 	0.2064	0.9409	0.194	0.097
Mof_H 	H 	0.2068	0.0504	0.1829	0.096
Mof_H 	H 	0.2493	0.6437	0.2421	0.07
Mof_H 	H 	0.2514	0.6233	0.3412	0.083
Mof_H 	H 	0.4118	0.6075	0.2336	0.093
Mof_H 	H 	0.419	0.592	0.3356	0.088
Mof_H 	H 	0.3147	0.5019	0.2314	0.082
Mof_H 	H 	0.7611	0.8874	0.3448	0.135
Mof_H 	H 	0.8995	0.1776	0.5457	0.129
Mof_H 	H 	0.8172	0.3235	0.2928	0.145
Mof_H 	H 	0.0382	0.2826	0.4292	0.147
Mof_H 	H 	0.5429	0.2133	0.1974	0.131
Mof_H 	H 	0.514	0.9476	0.1827	0.152
Mof_H 	H 	0.7145	0.9563	0.5164	0.13
Mof_H 	H 	0.6987	0.204	0.5239	0.157
Mof_H 	H 	0.6612	0.7037	0.4315	0.07
Mof_H 	H 	0.6335	0.7235	0.3324	0.068
Mof_H 	H 	0.7675	0.6031	0.3566	0.099
Mof_H 	H 	0.7305	0.6174	0.2557	0.086
Mof_H 	H 	0.6362	0.542	0.2862	0.082
Mof_H 	H 	0.8548	0.1923	0.7381	0.066
Mof_H 	H 	0.9367	0.2911	0.7205	0.075
Mof_H 	H 	0.0961	0.3085	0.8406	0.091
Mof_H 	H 	0.0114	0.2133	0.8605	0.103
Mof_H 	H 	0.0041	0.3334	0.8937	0.083
Mof_H 	H 	0.8135	0.3608	0.1561	0.084
Mof_H 	H 	0.8644	0.4937	0.188	0.074
Mof_H 	H 	0.9844	0.3534	0.1404	0.087
Mof_H 	H 	0.0444	0.4884	0.184	0.092
Mof_H 	H 	0.9471	0.4106	0.0734	0.079
Mof_H 	H 	0.209	0.293	0.4025	0.078
Mof_H 	H 	0.2106	0.3492	0.327	0.07
Mof_H 	H 	0.3742	0.5129	0.458	0.098
Mof_H 	H 	0.3963	0.4001	0.4151	0.082
Mof_H 	H 	0.3755	0.4455	0.5241	0.088
Mof_H 	H 	0.2901	0.2063	0.1152	0.059
Mof_H 	H 	0.416	0.2936	0.1935	0.046
Mof_H 	H 	0.3483	0.2568	0.9883	0.11
Mof_H 	H 	0.4594	0.3588	0.0811	0.095
Mof_H 	H 	0.3356	0.3543	0.0808	0.095
Mof_H 	H 	0.3462	0.8068	0.1709	0.095
Mof_H 	H 	0.239	0.7474	0.0682	0.088
Mof_H 	H 	0.4291	0.6903	0.0875	0.073
Mof_H 	H 	0.3321	0.6379	0.9792	0.069
Mof_H 	H 	0.301	0.6103	0.0689	0.068
Mof_H 	H 	0.6635	0.8291	0.6487	0.069
Mof_H 	H 	0.7759	0.9154	0.646	0.083
Mof_H 	H 	0.6808	0.973	0.8086	0.1
Mof_H 	H 	0.7936	0.0591	0.806	0.097
Mof_H 	H 	0.7932	0.9496	0.8171	0.096
Mof_H 	H 	0.7507	0.3563	0.7579	0.07
Mof_H 	H 	0.7486	0.3767	0.6588	0.083
Mof_H 	H 	0.5882	0.3925	0.7664	0.093
Mof_H 	H 	0.581	0.408	0.6644	0.088
Mof_H 	H 	0.6853	0.4981	0.7686	0.082
Mof_Rh	Rh	0.03464	0.96822	0.55978	0.87
Mof_Rh	Rh	0.06787	0.59336	0.51925	0.895
Mof_Rh	Rh	0.4203	0.95128	0.92025	0.916
Mof_Rh	Rh	0.44345	0.0001	0.55763	0.901
Mof_Rh	Rh	0.96536	0.03178	0.44022	0.87
Mof_Rh	Rh	0.93213	0.40664	0.48075	0.895
Mof_Rh	Rh	0.5797	0.04872	0.07975	0.916
Mof_Rh	Rh	0.55655	0.9999	0.44237	0.901
Mof_C 	C 	0.1979	0.1784	0.5725	0.257
Mof_C 	C 	0.3092	0.2856	0.6228	-0.173
Mof_C 	C 	0.2923	0.39	0.6867	-0.25
Mof_C 	C 	0.0488	0.8609	0.3509	0.256
Mof_C 	C 	0.0675	0.7726	0.264	-0.174
Mof_C 	C 	0.9813	0.7251	0.1578	-0.247
Mof_C 	C 	0.0774	0.5389	0.6933	0.269
Mof_C 	C 	0.1165	0.5673	0.8064	-0.187
Mof_C 	C 	0.0274	0.5798	0.8565	-0.233
Mof_C 	C 	0.851	0.5829	0.5568	0.262
Mof_C 	C 	0.7722	0.6337	0.5995	-0.173
Mof_C 	C 	0.6454	0.5625	0.5459	-0.247
Mof_C 	C 	0.587	0.852	0.9214	0.238
Mof_C 	C 	0.6293	0.7583	0.8802	-0.128
Mof_C 	C 	0.6208	0.6915	0.9373	-0.292
Mof_C 	C 	0.6168	0.141	0.9377	0.289
Mof_C 	C 	0.6777	0.2285	0.9054	-0.218
Mof_C 	C 	0.6516	0.3315	0.946	-0.191
Mof_C 	C 	0.3648	0.0519	0.3896	0.261
Mof_C 	C 	0.2921	0.0899	0.3317	-0.175
Mof_C 	C 	0.2526	0.0209	0.2146	-0.25
Mof_C 	C 	0.3758	0.7796	0.3755	0.263
Mof_C 	C 	0.3001	0.6528	0.3051	-0.179
Mof_C 	C 	0.3673	0.5823	0.2737	-0.241
Mof_C 	C 	0.8021	0.8216	0.4275	0.257
Mof_C 	C 	0.6908	0.7144	0.3772	-0.173
Mof_C 	C 	0.7077	0.61	0.3133	-0.25
Mof_C 	C 	0.9512	0.1391	0.6491	0.256
Mof_C 	C 	0.9325	0.2274	0.736	-0.174
Mof_C 	C 	0.0187	0.2749	0.8422	-0.247
Mof_C 	C 	0.9226	0.4611	0.3067	0.269
Mof_C 	C 	0.8835	0.4327	0.1936	-0.187
Mof_C 	C 	0.9726	0.4202	0.1435	-0.233
Mof_C 	C 	0.149	0.4171	0.4432	0.262
Mof_C 	C 	0.2278	0.3663	0.4005	-0.173
Mof_C 	C 	0.3546	0.4375	0.4541	-0.247
Mof_C 	C 	0.413	0.148	0.0786	0.238
Mof_C 	C 	0.3707	0.2417	0.1198	-0.128
Mof_C 	C 	0.3792	0.3085	0.0627	-0.292
Mof_C 	C 	0.3832	0.859	0.0623	0.289
Mof_C 	C 	0.3223	0.7715	0.0946	-0.218
Mof_C 	C 	0.3484	0.6685	0.054	-0.191
Mof_C 	C 	0.6352	0.9481	0.6104	0.261
Mof_C 	C 	0.7079	0.9101	0.6683	-0.175
Mof_C 	C 	0.7474	0.9791	0.7854	-0.25
Mof_C 	C 	0.6242	0.2204	0.6245	0.263
Mof_C 	C 	0.6999	0.3472	0.6949	-0.179
Mof_C 	C 	0.6327	0.4177	0.7263	-0.241
Mof_N 	N 	0.1812	0.1028	0.6075	-0.366
Mof_N 	N 	0.0697	0.866	0.4433	-0.368
Mof_N 	N 	0.1234	0.6133	0.6621	-0.373
Mof_N 	N 	0.9483	0.6463	0.555	-0.37
Mof_N 	N 	0.4913	0.8427	0.8659	-0.355
Mof_N 	N 	0.5144	0.0595	0.8787	-0.374
Mof_N 	N 	0.3459	0.037	0.4686	-0.363
Mof_N 	N 	0.3567	0.8352	0.4609	-0.377
Mof_N 	N 	0.8188	0.8972	0.3925	-0.366
Mof_N 	N 	0.9303	0.134	0.5567	-0.368
Mof_N 	N 	0.8766	0.3867	0.3379	-0.373
Mof_N 	N 	0.0517	0.3537	0.445	-0.37
Mof_N 	N 	0.5087	0.1573	0.1341	-0.355
Mof_N 	N 	0.4856	0.9405	0.1213	-0.374
Mof_N 	N 	0.6541	0.963	0.5314	-0.363
Mof_N 	N 	0.6433	0.1648	0.5391	-0.377
Mof_O 	O 	0.1225	0.1655	0.4951	-0.388
Mof_O 	O 	0.0141	0.93	0.3308	-0.38
Mof_O 	O 	0.995	0.4398	0.6308	-0.389
Mof_O 	O 	0.8186	0.4734	0.5247	-0.383
Mof_O 	O 	0.6447	0.9344	0.0139	-0.383
Mof_O 	O 	0.6674	0.1535	0.0264	-0.401
Mof_O 	O 	0.4499	0.0394	0.3593	-0.401
Mof_O 	O 	0.4566	0.8292	0.3471	-0.387
Mof_O 	O 	0.1072	0.9177	0.6743	-0.651
Mof_O 	O 	0.192	0.7645	0.5514	-0.674
Mof_O 	O 	0.273	0.8639	0.7748	-0.673
Mof_O 	O 	0.3432	0.0043	0.6716	-0.66
Mof_O 	O 	0.8775	0.8345	0.5049	-0.388
Mof_O 	O 	0.9859	0.07	0.6692	-0.38
Mof_O 	O 	0.005	0.5602	0.3692	-0.389
Mof_O 	O 	0.1814	0.5266	0.4753	-0.383
Mof_O 	O 	0.3553	0.0656	0.9861	-0.383
Mof_O 	O 	0.3326	0.8465	0.9736	-0.401
Mof_O 	O 	0.5501	0.9606	0.6407	-0.401
Mof_O 	O 	0.5434	0.1708	0.6529	-0.387
Mof_O 	O 	0.8928	0.0823	0.3257	-0.651
Mof_O 	O 	0.808	0.2355	0.4486	-0.674
Mof_O 	O 	0.727	0.1361	0.2252	-0.673
Mof_O 	O 	0.6568	0.9957	0.3284	-0.66
_end
