data_functionalizedCrystal
_audit_creation_method	'EQeq! by Chris Wilmer'
_symmetry_space_group_name_H-M	'P1'
_symmetry_Int_Tables_number	1
_symmetry_cell_setting	triclinic
loop_
_symmetry_equiv_pos_as_xyz
  x,y,z
_cell_length_a	9.039
_cell_length_b	15.641
_cell_length_c	19.37
_cell_angle_alpha	90
_cell_angle_beta	90
_cell_angle_gamma	90
loop_
_atom_site_label
_atom_site_type_symbol
_atom_site_fract_x
_atom_site_fract_y
_atom_site_fract_z
_atom_site_charge
Mof_Ga	Ga	0.3875	0.88715	0.58871	4.387
Mof_Ga	Ga	0.9342	0.86703	0.50253	4.356
Mof_Ga	Ga	0.1125	0.38715	0.41129	4.365
Mof_Ga	Ga	0.5658	0.36703	0.49747	4.376
Mof_Ga	Ga	0.6125	0.11285	0.08871	4.34
Mof_Ga	Ga	0.0658	0.13297	0.00253	4.142
Mof_Ga	Ga	0.8875	0.61285	0.91129	4.299
Mof_Ga	Ga	0.4342	0.63297	0.99747	4.324
Mof_Ga	Ga	0.6125	0.11285	0.41129	4.388
Mof_Ga	Ga	0.0658	0.13297	0.49747	4.357
Mof_Ga	Ga	0.8875	0.61285	0.58871	4.365
Mof_Ga	Ga	0.4342	0.63297	0.50253	4.376
Mof_Ga	Ga	0.3875	0.88715	0.91129	4.34
Mof_Ga	Ga	0.9342	0.86703	0.99747	4.142
Mof_Ga	Ga	0.1125	0.38715	0.08871	4.299
Mof_Ga	Ga	0.5658	0.36703	0.00253	4.324
Mof_Ga	Ga	0.1476	0.0711	0.75	2.199
Mof_Ga	Ga	0.3524	0.5711	0.25	2.186
Mof_Ga	Ga	0.8524	0.9289	0.25	2.199
Mof_Ga	Ga	0.6476	0.4289	0.75	2.186
Mof_P 	P 	0.1589	0.7292	0.5414	1.105
Mof_P 	P 	0.0731	0.9854	0.6048	1.033
Mof_P 	P 	0.3411	0.2292	0.4586	1.105
Mof_P 	P 	0.4269	0.4854	0.3952	1.019
Mof_P 	P 	0.8411	0.2708	0.0414	1.087
Mof_P 	P 	0.9269	0.0146	0.1048	1.008
Mof_P 	P 	0.6589	0.7708	0.9586	1.062
Mof_P 	P 	0.5731	0.5146	0.8952	1.013
Mof_P 	P 	0.8411	0.2708	0.4586	1.105
Mof_P 	P 	0.9269	0.0146	0.3952	1.033
Mof_P 	P 	0.6589	0.7708	0.5414	1.105
Mof_P 	P 	0.5731	0.5146	0.6048	1.019
Mof_P 	P 	0.1589	0.7292	0.9586	1.087
Mof_P 	P 	0.0731	0.9854	0.8952	1.008
Mof_P 	P 	0.3411	0.2292	0.0414	1.062
Mof_P 	P 	0.4269	0.4854	0.1048	1.013
Mof_P 	P 	0.4113	0.9416	0.75	0.97
Mof_P 	P 	0.0887	0.4416	0.25	0.968
Mof_P 	P 	0.5887	0.0584	0.25	0.97
Mof_P 	P 	0.9113	0.5584	0.75	0.968
Mof_C 	C 	0.4668	0.9731	0.4693	0.363
Mof_C 	C 	0.0332	0.4731	0.5307	0.357
Mof_C 	C 	0.5332	0.0269	0.9693	0.388
Mof_C 	C 	0.9668	0.5269	0.0307	0.357
Mof_C 	C 	0.5332	0.0269	0.5307	0.363
Mof_C 	C 	0.9668	0.5269	0.4693	0.357
Mof_C 	C 	0.4668	0.9731	0.0307	0.388
Mof_C 	C 	0.0332	0.4731	0.9693	0.357
Mof_O 	O 	0.4099	0.9042	0.4843	-0.92
Mof_O 	O 	0.4869	0.0052	0.4101	-0.902
Mof_O 	O 	0.3752	0.8882	0.687	-1.035
Mof_O 	O 	0.2222	0.9658	0.5764	-1.187
Mof_O 	O 	0.265	0.7868	0.5815	-1.154
Mof_O 	O 	0.2425	0.6656	0.4947	-1.283
Mof_O 	O 	0.0611	0.6823	0.5931	-1.095
Mof_O 	O 	0.0629	0.7793	0.4895	-1.279
Mof_O 	O 	0.964	0.9106	0.5877	-1.248
Mof_O 	O 	0.0128	0.0678	0.569	-1.356
Mof_O 	O 	0.0677	0.9956	0.6823	-0.762
Mof_O 	O 	0.0901	0.4042	0.5157	-0.919
Mof_O 	O 	0.0131	0.5052	0.5899	-0.89
Mof_O 	O 	0.1248	0.3882	0.313	-1.034
Mof_O 	O 	0.2778	0.4658	0.4236	-1.183
Mof_O 	O 	0.235	0.2868	0.4185	-1.154
Mof_O 	O 	0.2575	0.1656	0.5053	-1.281
Mof_O 	O 	0.4389	0.1823	0.4069	-1.104
Mof_O 	O 	0.4371	0.2793	0.5105	-1.287
Mof_O 	O 	0.536	0.4106	0.4123	-1.238
Mof_O 	O 	0.4872	0.5678	0.431	-1.353
Mof_O 	O 	0.4323	0.4956	0.3177	-0.759
Mof_O 	O 	0.5901	0.0958	0.9843	-0.905
Mof_O 	O 	0.5131	0.9948	0.9101	-0.919
Mof_O 	O 	0.6248	0.1118	0.187	-1.027
Mof_O 	O 	0.7778	0.0342	0.0764	-1.176
Mof_O 	O 	0.735	0.2132	0.0815	-1.142
Mof_O 	O 	0.7575	0.3344	0.9947	-1.267
Mof_O 	O 	0.9389	0.3177	0.0931	-1.076
Mof_O 	O 	0.9371	0.2207	0.9895	-1.227
Mof_O 	O 	0.036	0.0894	0.0877	-1.213
Mof_O 	O 	0.9872	0.9322	0.069	-1.28
Mof_O 	O 	0.9323	0.0044	0.1823	-0.76
Mof_O 	O 	0.9099	0.5958	0.0157	-0.898
Mof_O 	O 	0.9869	0.4948	0.0899	-0.877
Mof_O 	O 	0.8752	0.6118	0.813	-1.025
Mof_O 	O 	0.7222	0.5342	0.9236	-1.174
Mof_O 	O 	0.765	0.7132	0.9185	-1.137
Mof_O 	O 	0.7425	0.8344	0.0053	-1.206
Mof_O 	O 	0.5611	0.8177	0.9069	-1.093
Mof_O 	O 	0.5629	0.7207	0.0105	-1.257
Mof_O 	O 	0.464	0.5894	0.9123	-1.226
Mof_O 	O 	0.5128	0.4322	0.931	-1.339
Mof_O 	O 	0.5677	0.5044	0.8177	-0.758
Mof_O 	O 	0.5901	0.0958	0.5157	-0.92
Mof_O 	O 	0.5131	0.9948	0.5899	-0.902
Mof_O 	O 	0.6248	0.1118	0.313	-1.035
Mof_O 	O 	0.7778	0.0342	0.4236	-1.187
Mof_O 	O 	0.735	0.2132	0.4185	-1.154
Mof_O 	O 	0.7575	0.3344	0.5053	-1.283
Mof_O 	O 	0.9389	0.3177	0.4069	-1.095
Mof_O 	O 	0.9371	0.2207	0.5105	-1.279
Mof_O 	O 	0.036	0.0894	0.4123	-1.248
Mof_O 	O 	0.9872	0.9322	0.431	-1.356
Mof_O 	O 	0.9323	0.0044	0.3177	-0.762
Mof_O 	O 	0.9099	0.5958	0.4843	-0.919
Mof_O 	O 	0.9869	0.4948	0.4101	-0.89
Mof_O 	O 	0.8752	0.6118	0.687	-1.034
Mof_O 	O 	0.7222	0.5342	0.5764	-1.183
Mof_O 	O 	0.765	0.7132	0.5815	-1.154
Mof_O 	O 	0.7425	0.8344	0.4947	-1.281
Mof_O 	O 	0.5611	0.8177	0.5931	-1.104
Mof_O 	O 	0.5629	0.7207	0.4895	-1.287
Mof_O 	O 	0.464	0.5894	0.5877	-1.238
Mof_O 	O 	0.5128	0.4322	0.569	-1.353
Mof_O 	O 	0.5677	0.5044	0.6823	-0.759
Mof_O 	O 	0.4099	0.9042	0.0157	-0.905
Mof_O 	O 	0.4869	0.0052	0.0899	-0.919
Mof_O 	O 	0.3752	0.8882	0.813	-1.027
Mof_O 	O 	0.2222	0.9658	0.9236	-1.176
Mof_O 	O 	0.265	0.7868	0.9185	-1.142
Mof_O 	O 	0.2425	0.6656	0.0053	-1.267
Mof_O 	O 	0.0611	0.6823	0.9069	-1.076
Mof_O 	O 	0.0629	0.7793	0.0105	-1.227
Mof_O 	O 	0.964	0.9106	0.9123	-1.213
Mof_O 	O 	0.0128	0.0678	0.931	-1.28
Mof_O 	O 	0.0677	0.9956	0.8177	-0.76
Mof_O 	O 	0.0901	0.4042	0.9843	-0.898
Mof_O 	O 	0.0131	0.5052	0.9101	-0.877
Mof_O 	O 	0.1248	0.3882	0.187	-1.025
Mof_O 	O 	0.2778	0.4658	0.0764	-1.174
Mof_O 	O 	0.235	0.2868	0.0815	-1.137
Mof_O 	O 	0.2575	0.1656	0.9947	-1.206
Mof_O 	O 	0.4389	0.1823	0.0931	-1.093
Mof_O 	O 	0.4371	0.2793	0.9895	-1.257
Mof_O 	O 	0.536	0.4106	0.0877	-1.226
Mof_O 	O 	0.4872	0.5678	0.069	-1.339
Mof_O 	O 	0.4323	0.4956	0.1823	-0.758
Mof_O 	O 	0.337	0.0262	0.75	-0.871
Mof_O 	O 	0.583	0.9607	0.75	-0.334
Mof_O 	O 	0.163	0.5262	0.25	-0.88
Mof_O 	O 	0.917	0.4607	0.25	-0.32
Mof_O 	O 	0.663	0.9738	0.25	-0.871
Mof_O 	O 	0.417	0.0393	0.25	-0.334
Mof_O 	O 	0.837	0.4738	0.75	-0.88
Mof_O 	O 	0.083	0.5393	0.75	-0.32
_end
