data_functionalizedCrystal
_audit_creation_method	'EQeq! by Chris Wilmer'
_symmetry_space_group_name_H-M	'P1'
_symmetry_Int_Tables_number	1
_symmetry_cell_setting	triclinic
loop_
_symmetry_equiv_pos_as_xyz
  x,y,z
_cell_length_a	11.63
_cell_length_b	11.63
_cell_length_c	15.731
_cell_angle_alpha	90
_cell_angle_beta	90
_cell_angle_gamma	120
loop_
_atom_site_label
_atom_site_type_symbol
_atom_site_fract_x
_atom_site_fract_y
_atom_site_fract_z
_atom_site_charge
Mof_Cd	Cd	0.33333	0.66666	0.2742	0.429
Mof_Cd	Cd	0.66667	0.33334	0.7742	0.429
Mof_Cd	Cd	1.36995e-32	1.36995e-32	0.5276	0.384
Mof_Cd	Cd	4.28109e-34	8.56217e-34	0.0276	0.385
Mof_P 	P 	0.33333	0.66666	0.1161	0.019
Mof_P 	P 	0.66667	0.33334	0.6161	0.018
Mof_P 	P 	-0	0	0.3662	0.023
Mof_P 	P 	-1.36995e-32	0	0.8662	0.023
Mof_H 	H 	0.8463	0.9378	0.2559	0.063
Mof_H 	H 	0.8008	0.8196	0.32	0.049
Mof_H 	H 	0.7756	0.0427	0.3453	0.1
Mof_H 	H 	0.7404	0.9336	0.4151	0.132
Mof_H 	H 	0.2817	0.7615	0.0102	0.01
Mof_H 	H 	0.1619	0.6873	0.071	0.022
Mof_H 	H 	0.3505	0.9367	0.0692	0.17
Mof_H 	H 	0.2778	0.8735	0.1541	0.171
Mof_H 	H 	0.0915	0.1537	0.2559	0.045
Mof_H 	H 	0.0188	0.1992	0.32	0.039
Mof_H 	H 	0.2671	0.2244	0.3453	0.122
Mof_H 	H 	0.1932	0.2596	0.4151	0.132
Mof_H 	H 	0.4798	0.7183	0.0102	0.023
Mof_H 	H 	0.5254	0.8381	0.071	0.04
Mof_H 	H 	0.5862	0.6495	0.0692	0.144
Mof_H 	H 	0.5957	0.7222	0.1541	0.149
Mof_H 	H 	0.0622	0.9085	0.2559	0.039
Mof_H 	H 	0.1804	0.9812	0.32	0.045
Mof_H 	H 	0.9573	0.7329	0.3453	0.167
Mof_H 	H 	0.0664	0.8068	0.4151	0.158
Mof_H 	H 	0.2385	0.5202	0.0102	0.027
Mof_H 	H 	0.3127	0.4746	0.071	0.042
Mof_H 	H 	0.0633	0.4138	0.0692	0.127
Mof_H 	H 	0.1265	0.4043	0.1541	0.135
Mof_H 	H 	0.1537	0.0622	0.7559	0.035
Mof_H 	H 	0.1992	0.1804	0.82	0.039
Mof_H 	H 	0.2244	0.9573	0.8453	0.16
Mof_H 	H 	0.2596	0.0664	0.9151	0.148
Mof_H 	H 	0.7183	0.2385	0.5102	0.028
Mof_H 	H 	0.8381	0.3127	0.571	0.046
Mof_H 	H 	0.6495	0.0633	0.5692	0.125
Mof_H 	H 	0.7222	0.1265	0.6541	0.134
Mof_H 	H 	0.9085	0.8463	0.7559	0.053
Mof_H 	H 	0.9812	0.8008	0.82	0.049
Mof_H 	H 	0.7329	0.7756	0.8453	0.135
Mof_H 	H 	0.8068	0.7404	0.9151	0.146
Mof_H 	H 	0.5202	0.2817	0.5102	0.015
Mof_H 	H 	0.4746	0.1619	0.571	0.028
Mof_H 	H 	0.4138	0.3505	0.5692	0.149
Mof_H 	H 	0.4043	0.2778	0.6541	0.155
Mof_H 	H 	0.9378	0.0915	0.7559	0.061
Mof_H 	H 	0.8196	0.0188	0.82	0.044
Mof_H 	H 	0.0427	0.2671	0.8453	0.088
Mof_H 	H 	0.9336	0.1932	0.9151	0.121
Mof_H 	H 	0.7615	0.4798	0.5102	0.013
Mof_H 	H 	0.6873	0.5254	0.571	0.027
Mof_H 	H 	0.9367	0.5862	0.5692	0.165
Mof_H 	H 	0.8735	0.5957	0.6541	0.167
Mof_C 	C 	0.8367	0.9147	0.3157	-0.039
Mof_C 	C 	0.7439	0.9489	0.3543	-0.267
Mof_C 	C 	0.607	0.8689	0.3177	0.316
Mof_C 	C 	0.2564	0.7509	0.0697	0.064
Mof_C 	C 	0.2673	0.8677	0.0928	-0.456
Mof_C 	C 	0.1671	0.905	0.0727	0.444
Mof_C 	C 	0.078	0.1633	0.3157	-0.054
Mof_C 	C 	0.205	0.2561	0.3543	-0.313
Mof_C 	C 	0.2619	0.393	0.3177	0.326
Mof_C 	C 	0.4945	0.7436	0.0697	0.021
Mof_C 	C 	0.6004	0.7327	0.0928	-0.391
Mof_C 	C 	0.7379	0.8329	0.0727	0.385
Mof_C 	C 	0.0853	0.922	0.3157	-0.002
Mof_C 	C 	0.0511	0.795	0.3543	-0.397
Mof_C 	C 	0.1311	0.7381	0.3177	0.349
Mof_C 	C 	0.2491	0.5055	0.0697	0.003
Mof_C 	C 	0.1323	0.3996	0.0928	-0.357
Mof_C 	C 	0.095	0.2621	0.0727	0.344
Mof_C 	C 	0.1633	0.0853	0.8157	-0.025
Mof_C 	C 	0.2561	0.0511	0.8543	-0.386
Mof_C 	C 	0.393	0.1311	0.8177	0.344
Mof_C 	C 	0.7436	0.2491	0.5697	-0.001
Mof_C 	C 	0.7327	0.1323	0.5928	-0.352
Mof_C 	C 	0.8329	0.095	0.5727	0.343
Mof_C 	C 	0.922	0.8367	0.8157	-0.014
Mof_C 	C 	0.795	0.7439	0.8543	-0.335
Mof_C 	C 	0.7381	0.607	0.8177	0.333
Mof_C 	C 	0.5055	0.2564	0.5697	0.039
Mof_C 	C 	0.3996	0.2673	0.5928	-0.413
Mof_C 	C 	0.2621	0.1671	0.5727	0.397
Mof_C 	C 	0.9147	0.078	0.8157	-0.063
Mof_C 	C 	0.9489	0.205	0.8543	-0.248
Mof_C 	C 	0.8689	0.2619	0.8177	0.31
Mof_C 	C 	0.7509	0.4945	0.5697	0.055
Mof_C 	C 	0.8677	0.6004	0.5928	-0.442
Mof_C 	C 	0.905	0.7379	0.5727	0.432
Mof_O 	O 	0.5215	0.7605	0.3471	-0.282
Mof_O 	O 	0.5674	0.9207	0.254	-0.259
Mof_O 	O 	0.168	0.0034	0.1053	-0.369
Mof_O 	O 	0.0775	0.8309	0.0194	-0.304
Mof_O 	O 	0.239	0.4785	0.3471	-0.29
Mof_O 	O 	0.3533	0.4326	0.254	-0.272
Mof_O 	O 	0.8354	0.832	0.1053	-0.313
Mof_O 	O 	0.7534	0.9225	0.0194	-0.271
Mof_O 	O 	0.2395	0.761	0.3471	-0.292
Mof_O 	O 	0.0793	0.6467	0.254	-0.288
Mof_O 	O 	0.9966	0.1646	0.1053	-0.296
Mof_O 	O 	0.1691	0.2466	0.0194	-0.282
Mof_O 	O 	0.4785	0.2395	0.8471	-0.295
Mof_O 	O 	0.4326	0.0793	0.754	-0.288
Mof_O 	O 	0.832	0.9966	0.6053	-0.287
Mof_O 	O 	0.9225	0.1691	0.5194	-0.268
Mof_O 	O 	0.761	0.5215	0.8471	-0.287
Mof_O 	O 	0.6467	0.5674	0.754	-0.274
Mof_O 	O 	0.1646	0.168	0.6053	-0.34
Mof_O 	O 	0.2466	0.0775	0.5194	-0.303
Mof_O 	O 	0.7605	0.239	0.8471	-0.285
Mof_O 	O 	0.9207	0.3533	0.754	-0.257
Mof_O 	O 	0.0034	0.8354	0.6053	-0.352
Mof_O 	O 	0.8309	0.7534	0.5194	-0.29
Mof_H 	H 	0.281	0.9116	0.7048	0.151
Mof_H 	H 	0.1445	0.8393	0.651	0.16
Mof_H 	H 	0.1848	0.7618	0.7127	0.127
Mof_H 	H 	0.2587	0.8137	0.6307	0.14
Mof_N 	N 	0.2173	0.8311	0.6748	-0.387
Mof_H 	H 	0.6306	0.719	0.7048	0.143
Mof_H 	H 	0.6948	0.8555	0.651	0.162
Mof_H 	H 	0.577	0.8152	0.7127	0.136
Mof_H 	H 	0.555	0.7413	0.6307	0.14
Mof_N 	N 	0.6138	0.7827	0.6748	-0.387
Mof_H 	H 	0.0884	0.3694	0.7048	0.131
Mof_H 	H 	0.1607	0.3052	0.651	0.153
Mof_H 	H 	0.2382	0.423	0.7127	0.129
Mof_H 	H 	0.1863	0.445	0.6307	0.132
Mof_N 	N 	0.1689	0.3862	0.6748	-0.381
Mof_H 	H 	0.719	0.0884	0.2048	0.133
Mof_H 	H 	0.8555	0.1607	0.151	0.158
Mof_H 	H 	0.8152	0.2382	0.2127	0.135
Mof_H 	H 	0.7413	0.1863	0.1307	0.135
Mof_N 	N 	0.7827	0.1689	0.1748	-0.384
Mof_H 	H 	0.3694	0.281	0.2048	0.141
Mof_H 	H 	0.3052	0.1445	0.151	0.155
Mof_H 	H 	0.423	0.1848	0.2127	0.126
Mof_H 	H 	0.445	0.2587	0.1307	0.135
Mof_N 	N 	0.3862	0.2173	0.1748	-0.383
Mof_H 	H 	0.9116	0.6306	0.2048	0.152
Mof_H 	H 	0.8393	0.6948	0.151	0.164
Mof_H 	H 	0.7618	0.577	0.2127	0.133
Mof_H 	H 	0.8137	0.555	0.1307	0.143
Mof_N 	N 	0.8311	0.6138	0.1748	-0.39
_end
