data_functionalizedCrystal
_audit_creation_method	'EQeq! by Chris Wilmer'
_symmetry_space_group_name_H-M	'P1'
_symmetry_Int_Tables_number	1
_symmetry_cell_setting	triclinic
loop_
_symmetry_equiv_pos_as_xyz
  x,y,z
_cell_length_a	8.9846
_cell_length_b	12.3259
_cell_length_c	24.0229
_cell_angle_alpha	90
_cell_angle_beta	90
_cell_angle_gamma	111.374
loop_
_atom_site_label
_atom_site_type_symbol
_atom_site_fract_x
_atom_site_fract_y
_atom_site_fract_z
_atom_site_charge
Mof_Fe	Fe	0.5	0.5	0.5	0.658
Mof_Fe	Fe	-4.58896e-17	0.5	-0	0.63
Mof_H 	H 	0.8435	0.5982	0.5512	-0.019
Mof_H 	H 	0.0003	0.7304	0.6134	0.125
Mof_H 	H 	0.6117	0.7924	0.662	0.134
Mof_H 	H 	0.4688	0.6576	0.598	-0.029
Mof_H 	H 	0.8215	0.972	0.6907	0.036
Mof_H 	H 	0.7739	0.875	0.7371	0.034
Mof_H 	H 	0.1565	0.4018	0.5512	-0.038
Mof_H 	H 	0.9997	0.2696	0.6134	0.166
Mof_H 	H 	0.3883	0.2076	0.662	0.142
Mof_H 	H 	0.5312	0.3424	0.598	-0.032
Mof_H 	H 	0.1785	0.028	0.6907	0.035
Mof_H 	H 	0.2261	0.125	0.7371	0.034
Mof_H 	H 	0.7547	0.5982	0.9488	-0.026
Mof_H 	H 	0.7301	0.7304	0.8866	0.151
Mof_H 	H 	0.1807	0.7924	0.838	0.143
Mof_H 	H 	0.1888	0.6576	0.902	-0.026
Mof_H 	H 	0.1505	0.972	0.8093	0.039
Mof_H 	H 	0.1011	0.875	0.7629	0.036
Mof_H 	H 	0.2453	0.4018	0.9488	-0.023
Mof_H 	H 	0.2699	0.2696	0.8866	0.146
Mof_H 	H 	0.8193	0.2076	0.838	0.135
Mof_H 	H 	0.8112	0.3424	0.902	-0.028
Mof_H 	H 	0.8495	0.028	0.8093	0.034
Mof_H 	H 	0.8989	0.125	0.7629	0.033
Mof_H 	H 	0.1565	0.4018	0.4488	-0.038
Mof_H 	H 	0.9997	0.2696	0.3866	0.167
Mof_H 	H 	0.3883	0.2076	0.338	0.142
Mof_H 	H 	0.5312	0.3424	0.402	-0.032
Mof_H 	H 	0.1785	0.028	0.3093	0.035
Mof_H 	H 	0.2261	0.125	0.2629	0.034
Mof_H 	H 	0.8435	0.5982	0.4488	-0.02
Mof_H 	H 	0.0003	0.7304	0.3866	0.124
Mof_H 	H 	0.6117	0.7924	0.338	0.134
Mof_H 	H 	0.4688	0.6576	0.402	-0.029
Mof_H 	H 	0.8215	0.972	0.3093	0.036
Mof_H 	H 	0.7739	0.875	0.2629	0.033
Mof_H 	H 	0.2453	0.4018	0.0512	-0.029
Mof_H 	H 	0.2699	0.2696	0.1134	0.145
Mof_H 	H 	0.8193	0.2076	0.162	0.134
Mof_H 	H 	0.8112	0.3424	0.098	-0.03
Mof_H 	H 	0.8495	0.028	0.1907	0.032
Mof_H 	H 	0.8989	0.125	0.2371	0.032
Mof_H 	H 	0.7547	0.5982	0.0512	-0.031
Mof_H 	H 	0.7301	0.7304	0.1134	0.15
Mof_H 	H 	0.1807	0.7924	0.162	0.142
Mof_H 	H 	0.1888	0.6576	0.098	-0.029
Mof_H 	H 	0.1505	0.972	0.1907	0.038
Mof_H 	H 	0.1011	0.875	0.2371	0.036
Mof_C 	C 	0.79648	0.63856	0.5734	0.155
Mof_C 	C 	0.89172	0.71724	0.61084	-0.256
Mof_C 	C 	0.82322	0.77684	0.64485	0.293
Mof_C 	C 	0.66199	0.75418	0.63975	-0.29
Mof_C 	C 	0.57799	0.67358	0.60086	0.167
Mof_C 	C 	0.8608	0.924	0.71395	0.037
Mof_C 	C 	0.20352	0.36144	0.5734	0.19
Mof_C 	C 	0.10828	0.28276	0.61084	-0.328
Mof_C 	C 	0.17678	0.22316	0.64485	0.324
Mof_C 	C 	0.33801	0.24582	0.63975	-0.312
Mof_C 	C 	0.42201	0.32642	0.60086	0.179
Mof_C 	C 	0.1392	0.076	0.71395	0.033
Mof_C 	C 	0.84208	0.63856	0.9266	0.18
Mof_C 	C 	0.82552	0.71724	0.88916	-0.3
Mof_C 	C 	0.95362	0.77684	0.85515	0.327
Mof_C 	C 	0.09219	0.75418	0.86025	-0.319
Mof_C 	C 	0.09559	0.67358	0.89914	0.166
Mof_C 	C 	0.0632	0.924	0.78605	0.013
Mof_C 	C 	0.15792	0.36144	0.9266	0.169
Mof_C 	C 	0.17448	0.28276	0.88916	-0.287
Mof_C 	C 	0.04638	0.22316	0.85515	0.294
Mof_C 	C 	0.90781	0.24582	0.86025	-0.285
Mof_C 	C 	0.90441	0.32642	0.89914	0.181
Mof_C 	C 	0.9368	0.076	0.78605	0.049
Mof_C 	C 	0.20352	0.36144	0.4266	0.19
Mof_C 	C 	0.10828	0.28276	0.38916	-0.329
Mof_C 	C 	0.17678	0.22316	0.35515	0.324
Mof_C 	C 	0.33801	0.24582	0.36025	-0.312
Mof_C 	C 	0.42201	0.32642	0.39914	0.179
Mof_C 	C 	0.1392	0.076	0.28605	0.034
Mof_C 	C 	0.79648	0.63856	0.4266	0.155
Mof_C 	C 	0.89172	0.71724	0.38916	-0.255
Mof_C 	C 	0.82322	0.77684	0.35515	0.293
Mof_C 	C 	0.66199	0.75418	0.36025	-0.29
Mof_C 	C 	0.57799	0.67358	0.39914	0.167
Mof_C 	C 	0.8608	0.924	0.28605	0.038
Mof_C 	C 	0.15792	0.36144	0.0734	0.167
Mof_C 	C 	0.17448	0.28276	0.11084	-0.289
Mof_C 	C 	0.04638	0.22316	0.14485	0.293
Mof_C 	C 	0.90781	0.24582	0.13975	-0.285
Mof_C 	C 	0.90441	0.32642	0.10086	0.18
Mof_C 	C 	0.9368	0.076	0.21395	0.052
Mof_C 	C 	0.84208	0.63856	0.0734	0.179
Mof_C 	C 	0.82552	0.71724	0.11084	-0.302
Mof_C 	C 	0.95362	0.77684	0.14485	0.328
Mof_C 	C 	0.09219	0.75418	0.13975	-0.321
Mof_C 	C 	0.09559	0.67358	0.10086	0.165
Mof_C 	C 	0.0632	0.924	0.21395	0.014
Mof_C 	C 	0.71947	0.34154	0.5	0.094
Mof_C 	C 	0.28053	0.65846	0.5	0.093
Mof_C 	C 	0.62207	0.34154	-0	0.091
Mof_C 	C 	0.37793	0.65846	-0	0.089
Mof_C 	C 	1.01895e-32	0	0.75	-0.006
Mof_C 	C 	5.09477e-33	0	0.25	-0.008
Mof_S 	S 	0.80153	0.2431	0.5	-0.048
Mof_S 	S 	0.19847	0.7569	0.5	-0.061
Mof_S 	S 	0.44157	0.2431	-0	-0.06
Mof_S 	S 	0.55843	0.7569	-0	-0.059
Mof_N 	N 	0.64144	0.61628	0.56677	-0.215
Mof_N 	N 	0.35856	0.38372	0.56677	-0.224
Mof_N 	N 	0.97484	0.61628	0.93323	-0.207
Mof_N 	N 	0.02516	0.38372	0.93323	-0.22
Mof_N 	N 	0.35856	0.38372	0.43323	-0.224
Mof_N 	N 	0.64144	0.61628	0.43323	-0.215
Mof_N 	N 	0.02516	0.38372	0.06677	-0.225
Mof_N 	N 	0.97484	0.61628	0.06677	-0.21
Mof_N 	N 	0.66066	0.40992	0.5	-0.194
Mof_N 	N 	0.33934	0.59008	0.5	-0.195
Mof_N 	N 	0.74926	0.40992	-0	-0.192
Mof_N 	N 	0.25074	0.59008	-0	-0.196
Mof_O 	O 	0.92329	0.85438	0.68039	-0.246
Mof_O 	O 	0.07671	0.14562	0.68039	-0.262
Mof_O 	O 	0.93109	0.85438	0.81961	-0.247
Mof_O 	O 	0.06891	0.14562	0.81961	-0.258
Mof_O 	O 	0.07671	0.14562	0.31961	-0.263
Mof_O 	O 	0.92329	0.85438	0.31961	-0.246
Mof_O 	O 	0.06891	0.14562	0.18039	-0.259
Mof_O 	O 	0.93109	0.85438	0.18039	-0.248
_end
