data_functionalizedCrystal
_audit_creation_method	'EQeq! by Chris Wilmer'
_symmetry_space_group_name_H-M	'P1'
_symmetry_Int_Tables_number	1
_symmetry_cell_setting	triclinic
loop_
_symmetry_equiv_pos_as_xyz
  x,y,z
_cell_length_a	14.6607
_cell_length_b	17.0094
_cell_length_c	9.2069
_cell_angle_alpha	90
_cell_angle_beta	100.892
_cell_angle_gamma	90
loop_
_atom_site_label
_atom_site_type_symbol
_atom_site_fract_x
_atom_site_fract_y
_atom_site_fract_z
_atom_site_charge
Mof_Zn	Zn	0.5881	0.507	0.66211	0.573
Mof_O 	O 	0.3406	0.5896	0.2448	-0.512
Mof_O 	O 	0.4172	0.5901	0.0606	-0.517
Mof_C 	C 	0.357	0.6164	0.1256	0.474
Mof_C 	C 	0.3022	0.6857	0.062	-0.308
Mof_C 	C 	0.3172	0.7206	0.9351	0.232
Mof_H 	H 	0.3649	0.7023	0.8904	-0.028
Mof_C 	C 	0.2362	0.7183	0.1274	0.19
Mof_H 	H 	0.227	0.6984	0.2176	-0.03
Mof_Zn	Zn	0.0881	0.007	0.66211	0.598
Mof_O 	O 	0.8406	0.0896	0.2448	-0.5
Mof_O 	O 	0.9172	0.0901	0.0606	-0.486
Mof_C 	C 	0.857	0.1164	0.1256	0.467
Mof_C 	C 	0.8022	0.1857	0.062	-0.288
Mof_C 	C 	0.8172	0.2206	0.9351	0.22
Mof_H 	H 	0.8649	0.2023	0.8904	-0.013
Mof_C 	C 	0.7362	0.2183	0.1274	0.183
Mof_H 	H 	0.727	0.1984	0.2176	-0.02
Mof_Zn	Zn	0.4119	0.507	0.33789	0.573
Mof_O 	O 	0.6594	0.5896	0.7552	-0.468
Mof_O 	O 	0.5828	0.5901	0.9394	-0.436
Mof_C 	C 	0.643	0.6164	0.8744	0.34
Mof_C 	C 	0.6978	0.6857	0.938	0.09
Mof_C 	C 	0.6828	0.7206	0.0649	-0.232
Mof_H 	H 	0.6351	0.7023	0.1096	0.111
Mof_C 	C 	0.7638	0.7183	0.8726	-0.189
Mof_H 	H 	0.773	0.6984	0.7824	0.115
Mof_Zn	Zn	0.9119	0.007	0.33789	0.597
Mof_O 	O 	0.1594	0.0896	0.7552	-0.48
Mof_O 	O 	0.0828	0.0901	0.9394	-0.456
Mof_C 	C 	0.143	0.1164	0.8744	0.332
Mof_C 	C 	0.1978	0.1857	0.938	0.105
Mof_C 	C 	0.1828	0.2206	0.0649	-0.263
Mof_H 	H 	0.1351	0.2023	0.1096	0.108
Mof_C 	C 	0.2638	0.2183	0.8726	-0.218
Mof_H 	H 	0.273	0.1984	0.7824	0.117
Mof_Zn	Zn	0.4119	0.493	0.33789	0.573
Mof_O 	O 	0.6594	0.4104	0.7552	-0.467
Mof_O 	O 	0.5828	0.4099	0.9394	-0.435
Mof_C 	C 	0.643	0.3836	0.8744	0.336
Mof_C 	C 	0.6978	0.3143	0.938	0.098
Mof_C 	C 	0.6828	0.2794	0.0649	-0.243
Mof_H 	H 	0.6351	0.2977	0.1096	0.114
Mof_C 	C 	0.7638	0.2817	0.8726	-0.198
Mof_H 	H 	0.773	0.3016	0.7824	0.118
Mof_Zn	Zn	0.9119	0.993	0.33789	0.56
Mof_O 	O 	0.1594	0.9104	0.7552	-0.472
Mof_O 	O 	0.0828	0.9099	0.9394	-0.451
Mof_C 	C 	0.143	0.8836	0.8744	0.333
Mof_C 	C 	0.1978	0.8143	0.938	0.1
Mof_C 	C 	0.1828	0.7794	0.0649	-0.255
Mof_H 	H 	0.1351	0.7977	0.1096	0.108
Mof_C 	C 	0.2638	0.7817	0.8726	-0.212
Mof_H 	H 	0.273	0.8016	0.7824	0.116
Mof_Zn	Zn	0.5881	0.493	0.66211	0.573
Mof_O 	O 	0.3406	0.4104	0.2448	-0.513
Mof_O 	O 	0.4172	0.4099	0.0606	-0.519
Mof_C 	C 	0.357	0.3836	0.1256	0.476
Mof_C 	C 	0.3022	0.3143	0.062	-0.314
Mof_C 	C 	0.3172	0.2794	0.9351	0.239
Mof_H 	H 	0.3649	0.2977	0.8904	-0.03
Mof_C 	C 	0.2362	0.2817	0.1274	0.196
Mof_H 	H 	0.227	0.3016	0.2176	-0.033
Mof_Zn	Zn	0.0881	0.993	0.66211	0.538
Mof_O 	O 	0.8406	0.9104	0.2448	-0.494
Mof_O 	O 	0.9172	0.9099	0.0606	-0.481
Mof_C 	C 	0.857	0.8836	0.1256	0.463
Mof_C 	C 	0.8022	0.8143	0.062	-0.277
Mof_C 	C 	0.8172	0.7794	0.9351	0.209
Mof_H 	H 	0.8649	0.7977	0.8904	-0.009
Mof_C 	C 	0.7362	0.7817	0.1274	0.174
Mof_H 	H 	0.727	0.8016	0.2176	-0.016
Mof_Zn	Zn	0.5	0.5	-0	1.21
Mof_Zn	Zn	-0	0	-0	1.185
Mof_N 	N 	0.4516	0.5	0.668	-0.21
Mof_N 	N 	0.4153	0.5	0.7868	-0.19
Mof_N 	N 	0.3892	0.5	0.545	-0.245
Mof_C 	C 	0.3225	0.5	0.7395	0.076
Mof_C 	C 	0.3047	0.5	0.5856	0.066
Mof_C 	C 	0.2466	0.5	0.8165	-0.102
Mof_H 	H 	0.2559	0.5	0.9192	0.08
Mof_C 	C 	0.1634	0.5	0.735	-0.018
Mof_H 	H 	0.113	0.5	0.7825	0.03
Mof_C 	C 	0.2178	0.5	0.502	-0.118
Mof_H 	H 	0.2081	0.5	0.3992	0.059
Mof_C 	C 	0.1448	0.5	0.577	-0.019
Mof_H 	H 	0.0839	0.5	0.5247	0.014
Mof_N 	N 	0.9516	0	0.668	-0.188
Mof_N 	N 	0.9153	5.59833e-33	0.7868	-0.176
Mof_N 	N 	0.8892	2.79916e-33	0.545	-0.237
Mof_C 	C 	0.8225	0	0.7395	0.077
Mof_C 	C 	0.8047	-2.79916e-33	0.5856	0.069
Mof_C 	C 	0.7466	0	0.8165	-0.098
Mof_H 	H 	0.7559	0	0.9192	0.08
Mof_C 	C 	0.6634	5.59833e-33	0.735	-0.014
Mof_H 	H 	0.613	5.59833e-33	0.7825	0.042
Mof_C 	C 	0.7178	0	0.502	-0.113
Mof_H 	H 	0.7081	0	0.3992	0.064
Mof_C 	C 	0.6448	0	0.577	-0.016
Mof_H 	H 	0.5839	-2.79916e-33	0.5247	0.033
Mof_N 	N 	0.5484	0.5	0.332	-0.211
Mof_N 	N 	0.5847	0.5	0.2132	-0.204
Mof_N 	N 	0.6108	0.5	0.455	-0.247
Mof_C 	C 	0.6775	0.5	0.2605	0.058
Mof_C 	C 	0.6953	0.5	0.4144	0.072
Mof_C 	C 	0.7534	0.5	0.1835	-0.093
Mof_H 	H 	0.7441	0.5	0.0808	0.05
Mof_C 	C 	0.8366	0.5	0.265	-0.022
Mof_H 	H 	0.887	0.5	0.2175	0.046
Mof_C 	C 	0.7822	0.5	0.498	-0.118
Mof_H 	H 	0.7919	0.5	0.6008	0.074
Mof_C 	C 	0.8552	0.5	0.423	-0.008
Mof_H 	H 	0.9161	0.5	0.4753	0.05
Mof_N 	N 	0.0484	0	0.332	-0.236
Mof_N 	N 	0.0847	0	0.2132	-0.216
Mof_N 	N 	0.1108	0	0.455	-0.257
Mof_C 	C 	0.1775	0	0.2605	0.053
Mof_C 	C 	0.1953	0	0.4144	0.068
Mof_C 	C 	0.2534	-1.39958e-33	0.1835	-0.097
Mof_H 	H 	0.2441	0	0.0808	0.045
Mof_C 	C 	0.3366	0	0.265	-0.027
Mof_H 	H 	0.387	-1.39958e-33	0.2175	0.031
Mof_C 	C 	0.2822	-2.79916e-33	0.498	-0.125
Mof_H 	H 	0.2919	0	0.6008	0.068
Mof_C 	C 	0.3552	0	0.423	-0.012
Mof_H 	H 	0.4161	-2.79916e-33	0.4753	0.031
_end
