data_functionalizedCrystal
_audit_creation_method	'EQeq! by Chris Wilmer'
_symmetry_space_group_name_H-M	'P1'
_symmetry_Int_Tables_number	1
_symmetry_cell_setting	triclinic
loop_
_symmetry_equiv_pos_as_xyz
  x,y,z
_cell_length_a	12.622
_cell_length_b	8.1157
_cell_length_c	23.634
_cell_angle_alpha	90
_cell_angle_beta	105.34
_cell_angle_gamma	90
loop_
_atom_site_label
_atom_site_type_symbol
_atom_site_fract_x
_atom_site_fract_y
_atom_site_fract_z
_atom_site_charge
Mof_Bi	Bi	0.40646	0.17291	0.13163	0.848
Mof_Sm	Sm	0.09413	0.99898	0.88543	2.033
Mof_O 	O 	0.3305	0.0924	0.02658	-0.393
Mof_O 	O 	0.2108	0.9048	0.97881	-0.504
Mof_O 	O 	0.5936	0.1009	0.16033	-0.387
Mof_O 	O 	0.7234	0.9875	0.12525	-0.534
Mof_O 	O 	0.4892	0.2991	0.22986	-0.389
Mof_O 	O 	0.5487	0.2592	0.32678	-0.537
Mof_O 	O 	0.2212	0.0704	0.1206	-0.402
Mof_O 	O 	0.0956	0.0457	0.17155	-0.52
Mof_N 	N 	0.44	0.8805	0.10891	-0.067
Mof_N 	N 	0.3873	0.9993	0.2146	-0.065
Mof_C 	C 	0.3465	0.8149	0.0624	-0.291
Mof_H 	H 	0.2916	0.7667	0.0807	0.105
Mof_H 	H 	0.3732	0.726	0.041	0.115
Mof_C 	C 	0.2922	0.9475	0.01937	0.442
Mof_C 	C 	0.5411	0.8887	0.08854	-0.327
Mof_H 	H 	0.5227	0.9313	0.0479	0.12
Mof_H 	H 	0.5716	0.7763	0.0883	0.122
Mof_C 	C 	0.6272	0.9989	0.12751	0.486
Mof_C 	C 	0.4606	0.7784	0.16322	-0.07
Mof_H 	H 	0.5367	0.7968	0.1873	0.046
Mof_H 	H 	0.4528	0.6603	0.1524	0.033
Mof_C 	C 	0.3804	0.822	0.19889	-0.064
Mof_H 	H 	0.3047	0.7956	0.1759	0.033
Mof_H 	H 	0.397	0.7548	0.2351	0.039
Mof_C 	C 	0.478	0.0289	0.26754	-0.339
Mof_H 	H 	0.5435	0.966	0.2645	0.146
Mof_H 	H 	0.4564	0.9886	0.3024	0.14
Mof_C 	C 	0.5069	0.2104	0.27532	0.477
Mof_C 	C 	0.2824	0.0539	0.22539	-0.303
Mof_H 	H 	0.2915	0.1656	0.2429	0.097
Mof_H 	H 	0.2616	0.978	0.2534	0.105
Mof_C 	C 	0.192	0.0564	0.1679	0.435
Mof_N 	N 	0.5671	0.8411	0.4234	0.997
Mof_O 	O 	0.6129	0.815	0.3834	-0.03
Mof_O 	O 	0.5086	0.728	0.4346	-1.459
Mof_O 	O 	0.5759	0.9732	0.4488	-4.455
Mof_O 	O 	0.1378	0.701	0.8829	-0.163
Mof_O 	O 	0.988	0.8282	0.945	0.282
Mof_O 	O 	0.5484	0.001	0.4611	3.85
Mof_Bi	Bi	0.09354	0.67291	0.36837	0.838
Mof_Sm	Sm	0.40587	0.49898	0.61457	2.012
Mof_O 	O 	0.1695	0.5924	0.47342	-0.398
Mof_O 	O 	0.2892	0.4048	0.52119	-0.508
Mof_O 	O 	0.9064	0.6009	0.33967	-0.372
Mof_O 	O 	0.7766	0.4875	0.37475	-0.528
Mof_O 	O 	0.0108	0.7991	0.27014	-0.391
Mof_O 	O 	0.9513	0.7592	0.17322	-0.535
Mof_O 	O 	0.2788	0.5704	0.3794	-0.435
Mof_O 	O 	0.4044	0.5457	0.32845	-0.532
Mof_N 	N 	0.06	0.3805	0.39109	-0.068
Mof_N 	N 	0.1127	0.4993	0.2854	-0.072
Mof_C 	C 	0.1535	0.3149	0.4376	-0.284
Mof_H 	H 	0.2084	0.2667	0.4193	0.088
Mof_H 	H 	0.1268	0.226	0.459	0.12
Mof_C 	C 	0.2078	0.4475	0.48063	0.433
Mof_C 	C 	0.9589	0.3887	0.41146	-0.327
Mof_H 	H 	0.9773	0.4313	0.4521	0.122
Mof_H 	H 	0.9284	0.2763	0.4117	0.125
Mof_C 	C 	0.8728	0.4989	0.37249	0.478
Mof_C 	C 	0.0394	0.2784	0.33678	-0.064
Mof_H 	H 	0.9633	0.2968	0.3127	0.041
Mof_H 	H 	0.0472	0.1603	0.3476	0.032
Mof_C 	C 	0.1196	0.322	0.30111	-0.062
Mof_H 	H 	0.1953	0.2956	0.3241	0.025
Mof_H 	H 	0.103	0.2548	0.2649	0.037
Mof_C 	C 	0.022	0.5289	0.23246	-0.312
Mof_H 	H 	0.9565	0.466	0.2355	0.127
Mof_H 	H 	0.0436	0.4886	0.1976	0.13
Mof_C 	C 	0.9931	0.7104	0.22468	0.476
Mof_C 	C 	0.2176	0.5539	0.27461	-0.297
Mof_H 	H 	0.2085	0.6656	0.2571	0.098
Mof_H 	H 	0.2384	0.478	0.2466	0.106
Mof_C 	C 	0.308	0.5564	0.3321	0.432
Mof_N 	N 	0.9329	0.3411	0.0766	0.462
Mof_O 	O 	0.8871	0.315	0.1166	-0.13
Mof_O 	O 	0.9914	0.228	0.0654	-0.729
Mof_O 	O 	0.9241	0.4732	0.0512	-2.074
Mof_O 	O 	0.3622	0.201	0.6171	-0.268
Mof_O 	O 	0.512	0.3282	0.555	0.825
Mof_O 	O 	0.9516	0.501	0.0389	1.725
Mof_Bi	Bi	0.59354	0.82709	0.86837	0.849
Mof_Sm	Sm	0.90587	0.00102	0.11457	2.034
Mof_O 	O 	0.6695	0.9076	0.97342	-0.392
Mof_O 	O 	0.7892	0.0952	0.02119	-0.503
Mof_O 	O 	0.4064	0.8991	0.83967	-0.387
Mof_O 	O 	0.2766	0.0125	0.87475	-0.534
Mof_O 	O 	0.5108	0.7009	0.77014	-0.389
Mof_O 	O 	0.4513	0.7408	0.67322	-0.537
Mof_O 	O 	0.7788	0.9296	0.8794	-0.402
Mof_O 	O 	0.9044	0.9543	0.82845	-0.52
Mof_N 	N 	0.56	0.1195	0.89109	-0.067
Mof_N 	N 	0.6127	0.0007	0.7854	-0.065
Mof_C 	C 	0.6535	0.1851	0.9376	-0.291
Mof_H 	H 	0.7084	0.2333	0.9193	0.105
Mof_H 	H 	0.6268	0.274	0.959	0.115
Mof_C 	C 	0.7078	0.0525	0.98063	0.442
Mof_C 	C 	0.4589	0.1113	0.91146	-0.327
Mof_H 	H 	0.4773	0.0687	0.9521	0.12
Mof_H 	H 	0.4284	0.2237	0.9117	0.122
Mof_C 	C 	0.3728	0.0011	0.87249	0.486
Mof_C 	C 	0.5394	0.2216	0.83678	-0.07
Mof_H 	H 	0.4633	0.2032	0.8127	0.046
Mof_H 	H 	0.5472	0.3397	0.8476	0.033
Mof_C 	C 	0.6196	0.178	0.80111	-0.064
Mof_H 	H 	0.6953	0.2044	0.8241	0.033
Mof_H 	H 	0.603	0.2452	0.7649	0.039
Mof_C 	C 	0.522	0.9711	0.73246	-0.339
Mof_H 	H 	0.4565	0.034	0.7355	0.146
Mof_H 	H 	0.5436	0.0114	0.6976	0.14
Mof_C 	C 	0.4931	0.7896	0.72468	0.477
Mof_C 	C 	0.7176	0.9461	0.77461	-0.303
Mof_H 	H 	0.7085	0.8344	0.7571	0.097
Mof_H 	H 	0.7384	0.022	0.7466	0.105
Mof_C 	C 	0.808	0.9436	0.8321	0.435
Mof_N 	N 	0.4329	0.1589	0.5766	0.997
Mof_O 	O 	0.3871	0.185	0.6166	-0.03
Mof_O 	O 	0.4914	0.272	0.5654	-1.459
Mof_O 	O 	0.4241	0.0268	0.5512	-4.455
Mof_O 	O 	0.8622	0.299	0.1171	-0.163
Mof_O 	O 	0.012	0.1718	0.055	0.282
Mof_O 	O 	0.4516	0.999	0.5389	3.85
Mof_Bi	Bi	0.90646	0.32709	0.63163	0.838
Mof_Sm	Sm	0.59413	0.50102	0.38543	2.012
Mof_O 	O 	0.8305	0.4076	0.52658	-0.398
Mof_O 	O 	0.7108	0.5952	0.47881	-0.508
Mof_O 	O 	0.0936	0.3991	0.66033	-0.372
Mof_O 	O 	0.2234	0.5125	0.62525	-0.528
Mof_O 	O 	0.9892	0.2009	0.72986	-0.391
Mof_O 	O 	0.0487	0.2408	0.82678	-0.535
Mof_O 	O 	0.7212	0.4296	0.6206	-0.435
Mof_O 	O 	0.5956	0.4543	0.67155	-0.532
Mof_N 	N 	0.94	0.6195	0.60891	-0.068
Mof_N 	N 	0.8873	0.5007	0.7146	-0.072
Mof_C 	C 	0.8465	0.6851	0.5624	-0.284
Mof_H 	H 	0.7916	0.7333	0.5807	0.088
Mof_H 	H 	0.8732	0.774	0.541	0.12
Mof_C 	C 	0.7922	0.5525	0.51937	0.433
Mof_C 	C 	0.0411	0.6113	0.58854	-0.327
Mof_H 	H 	0.0227	0.5687	0.5479	0.122
Mof_H 	H 	0.0716	0.7237	0.5883	0.125
Mof_C 	C 	0.1272	0.5011	0.62751	0.478
Mof_C 	C 	0.9606	0.7216	0.66322	-0.064
Mof_H 	H 	0.0367	0.7032	0.6873	0.041
Mof_H 	H 	0.9528	0.8397	0.6524	0.032
Mof_C 	C 	0.8804	0.678	0.69889	-0.062
Mof_H 	H 	0.8047	0.7044	0.6759	0.025
Mof_H 	H 	0.897	0.7452	0.7351	0.037
Mof_C 	C 	0.978	0.4711	0.76754	-0.312
Mof_H 	H 	0.0435	0.534	0.7645	0.127
Mof_H 	H 	0.9564	0.5114	0.8024	0.13
Mof_C 	C 	0.0069	0.2896	0.77532	0.476
Mof_C 	C 	0.7824	0.4461	0.72539	-0.297
Mof_H 	H 	0.7915	0.3344	0.7429	0.098
Mof_H 	H 	0.7616	0.522	0.7534	0.106
Mof_C 	C 	0.692	0.4436	0.6679	0.432
Mof_N 	N 	0.0671	0.6589	0.9234	0.462
Mof_O 	O 	0.1129	0.685	0.8834	-0.13
Mof_O 	O 	0.0086	0.772	0.9346	-0.729
Mof_O 	O 	0.0759	0.5268	0.9488	-2.074
Mof_O 	O 	0.6378	0.799	0.3829	-0.268
Mof_O 	O 	0.488	0.6718	0.445	0.825
Mof_O 	O 	0.0484	0.499	0.9611	1.725
_end
