data_functionalizedCrystal
_audit_creation_method	'EQeq! by Chris Wilmer'
_symmetry_space_group_name_H-M	'P1'
_symmetry_Int_Tables_number	1
_symmetry_cell_setting	triclinic
loop_
_symmetry_equiv_pos_as_xyz
  x,y,z
_cell_length_a	9.6191
_cell_length_b	11.6023
_cell_length_c	14.3044
_cell_angle_alpha	90
_cell_angle_beta	122.456
_cell_angle_gamma	90
loop_
_atom_site_label
_atom_site_type_symbol
_atom_site_fract_x
_atom_site_fract_y
_atom_site_fract_z
_atom_site_charge
Mof_Dy	Dy	0.38234	0.51298	0.6676	2.058
Mof_O 	O 	0.6032	0.637	0.7932	-0.413
Mof_O 	O 	0.384	0.8937	0.7035	-0.388
Mof_O 	O 	0.2952	0.7117	0.6566	-0.392
Mof_O 	O 	0.48	0.6177	0.567	-0.394
Mof_O 	O 	0.6933	0.818	0.8286	-0.408
Mof_O 	O 	0.5383	0.6113	0.4361	-0.383
Mof_O 	O 	0.1111	0.5105	0.6435	-0.394
Mof_O 	O 	0.8392	0.4886	0.5217	-0.403
Mof_C 	C 	0.5834	0.7429	0.7834	0.293
Mof_C 	C 	0.5056	0.5658	0.5009	0.281
Mof_C 	C 	0.4034	0.7868	0.7069	0.267
Mof_C 	C 	0.9845	0.4998	0.5472	0.284
Mof_Dy	Dy	0.61766	0.01298	0.8324	2.044
Mof_O 	O 	0.3968	0.137	0.7068	-0.413
Mof_O 	O 	0.616	0.3937	0.7965	-0.393
Mof_O 	O 	0.7048	0.2117	0.8434	-0.393
Mof_O 	O 	0.52	0.1177	0.933	-0.393
Mof_O 	O 	0.3067	0.318	0.6714	-0.412
Mof_O 	O 	0.4617	0.1113	0.0639	-0.373
Mof_O 	O 	0.8889	0.0105	0.8565	-0.399
Mof_O 	O 	0.1608	0.9886	0.9783	-0.398
Mof_C 	C 	0.4166	0.2429	0.7166	0.293
Mof_C 	C 	0.4944	0.0658	0.9991	0.271
Mof_C 	C 	0.5966	0.2868	0.7931	0.268
Mof_C 	C 	0.0155	0.9998	0.9528	0.291
Mof_Dy	Dy	0.61766	0.48702	0.3324	2.057
Mof_O 	O 	0.3968	0.363	0.2068	-0.414
Mof_O 	O 	0.616	0.1063	0.2965	-0.388
Mof_O 	O 	0.7048	0.2883	0.3434	-0.392
Mof_O 	O 	0.52	0.3823	0.433	-0.394
Mof_O 	O 	0.3067	0.182	0.1714	-0.408
Mof_O 	O 	0.4617	0.3887	0.5639	-0.383
Mof_O 	O 	0.8889	0.4895	0.3565	-0.394
Mof_O 	O 	0.1608	0.5114	0.4783	-0.403
Mof_C 	C 	0.4166	0.2571	0.2166	0.293
Mof_C 	C 	0.4944	0.4342	0.4991	0.281
Mof_C 	C 	0.5966	0.2132	0.2931	0.267
Mof_C 	C 	0.0155	0.5002	0.4528	0.284
Mof_Dy	Dy	0.38234	0.98702	0.1676	2.044
Mof_O 	O 	0.6032	0.863	0.2932	-0.413
Mof_O 	O 	0.384	0.6063	0.2035	-0.393
Mof_O 	O 	0.2952	0.7883	0.1566	-0.393
Mof_O 	O 	0.48	0.8823	0.067	-0.393
Mof_O 	O 	0.6933	0.682	0.3286	-0.412
Mof_O 	O 	0.5383	0.8887	0.9361	-0.373
Mof_O 	O 	0.1111	0.9895	0.1435	-0.399
Mof_O 	O 	0.8392	0.0114	0.0217	-0.398
Mof_C 	C 	0.5834	0.7571	0.2834	0.293
Mof_C 	C 	0.5056	0.9342	0.0009	0.271
Mof_C 	C 	0.4034	0.7132	0.2069	0.268
Mof_C 	C 	0.9845	0.0002	0.0472	0.291
_end
