data_functionalizedCrystal
_audit_creation_method	'EQeq! by Chris Wilmer'
_symmetry_space_group_name_H-M	'P1'
_symmetry_Int_Tables_number	1
_symmetry_cell_setting	triclinic
loop_
_symmetry_equiv_pos_as_xyz
  x,y,z
_cell_length_a	27.0964
_cell_length_b	30.4901
_cell_length_c	30.4901
_cell_angle_alpha	78.6124
_cell_angle_beta	63.6184
_cell_angle_gamma	63.6184
loop_
_atom_site_label
_atom_site_type_symbol
_atom_site_fract_x
_atom_site_fract_y
_atom_site_fract_z
_atom_site_charge
Mof_Cu	Cu	0.97506	0.0339	0.0339	0.906
Mof_Cu	Cu	0.54286	0.4661	0.46609	0.907
Mof_Cu	Cu	0.45714	0.5339	0.53391	0.906
Mof_Cu	Cu	0.02494	0.9661	0.9661	0.905
Mof_Cu	Cu	0.46061	0.75	0.75	0.91
Mof_Cu	Cu	0.55786	0.75	0.75	0.902
Mof_Cu	Cu	0.53939	0.25	0.25	0.91
Mof_Cu	Cu	0.44214	0.25	0.25	0.902
Mof_H 	H 	0.1237	0.0354	0.8496	0.035
Mof_H 	H 	0.1267	0.2176	0.823	0.096
Mof_H 	H 	0.084	0.1177	0.9581	0.029
Mof_H 	H 	0.2723	0.0587	0.7991	0.057
Mof_H 	H 	0.1737	0.0814	0.793	0.067
Mof_H 	H 	0.1375	0.161	0.9016	0.065
Mof_H 	H 	0.3743	0.1512	0.693	0.062
Mof_H 	H 	0.4619	0.9932	0.7346	0.069
Mof_H 	H 	0.3078	0.9875	0.7589	0.068
Mof_H 	H 	0.4221	0.0681	0.6929	0.047
Mof_H 	H 	0.3524	0.9034	0.758	0.031
Mof_H 	H 	0.5073	0.9087	0.7379	0.025
Mof_H 	H 	0.1156	0.2956	0.838	-0.111
Mof_H 	H 	0.0822	0.3006	0.8044	-0.097
Mof_H 	H 	0.1384	0.3631	0.7913	0.283
Mof_H 	H 	0.0703	0.3767	0.8285	0.265
Mof_H 	H 	0.0895	0.3713	0.7719	0.268
Mof_H 	H 	0.5087	0.4646	0.6504	0.035
Mof_H 	H 	0.6673	0.2824	0.677	0.096
Mof_H 	H 	0.6598	0.3823	0.5419	0.029
Mof_H 	H 	0.6301	0.4413	0.7009	0.057
Mof_H 	H 	0.5481	0.4186	0.707	0.067
Mof_H 	H 	0.7001	0.339	0.5984	0.065
Mof_H 	H 	0.7185	0.3488	0.807	0.063
Mof_H 	H 	0.6897	0.5068	0.7654	0.07
Mof_H 	H 	0.5542	0.5125	0.7411	0.069
Mof_H 	H 	0.6831	0.4319	0.8071	0.046
Mof_H 	H 	0.5138	0.5966	0.742	0.031
Mof_H 	H 	0.6539	0.5913	0.7621	0.025
Mof_H 	H 	0.7492	0.2044	0.662	-0.111
Mof_H 	H 	0.6872	0.1994	0.6956	-0.097
Mof_H 	H 	0.7928	0.1369	0.7087	0.283
Mof_H 	H 	0.7755	0.1233	0.6715	0.265
Mof_H 	H 	0.7327	0.1287	0.7281	0.268
Mof_H 	H 	0.4913	0.3496	0.5354	0.035
Mof_H 	H 	0.3327	0.323	0.7176	0.096
Mof_H 	H 	0.3402	0.4581	0.6177	0.029
Mof_H 	H 	0.3699	0.2991	0.5587	0.057
Mof_H 	H 	0.4519	0.293	0.5814	0.067
Mof_H 	H 	0.2999	0.4016	0.661	0.065
Mof_H 	H 	0.2815	0.193	0.6512	0.063
Mof_H 	H 	0.3103	0.2346	0.4932	0.07
Mof_H 	H 	0.4458	0.2589	0.4875	0.069
Mof_H 	H 	0.3169	0.1929	0.5681	0.046
Mof_H 	H 	0.4862	0.258	0.4034	0.031
Mof_H 	H 	0.3461	0.2379	0.4087	0.025
Mof_H 	H 	0.2508	0.338	0.7956	-0.111
Mof_H 	H 	0.3128	0.3044	0.8006	-0.097
Mof_H 	H 	0.2072	0.2913	0.8631	0.283
Mof_H 	H 	0.2245	0.3285	0.8767	0.265
Mof_H 	H 	0.2673	0.2719	0.8713	0.268
Mof_H 	H 	0.8763	0.1504	0.9646	0.035
Mof_H 	H 	0.8733	0.177	0.7824	0.096
Mof_H 	H 	0.916	0.0419	0.8823	0.029
Mof_H 	H 	0.7277	0.2009	0.9413	0.057
Mof_H 	H 	0.8263	0.207	0.9186	0.067
Mof_H 	H 	0.8625	0.0984	0.839	0.065
Mof_H 	H 	0.6257	0.307	0.8488	0.062
Mof_H 	H 	0.5381	0.2654	0.0068	0.069
Mof_H 	H 	0.6922	0.2411	0.0125	0.068
Mof_H 	H 	0.5779	0.3071	0.9319	0.047
Mof_H 	H 	0.6476	0.242	0.0966	0.031
Mof_H 	H 	0.4927	0.2621	0.0913	0.025
Mof_H 	H 	0.8844	0.162	0.7044	-0.111
Mof_H 	H 	0.9178	0.1956	0.6994	-0.097
Mof_H 	H 	0.8616	0.2087	0.6369	0.283
Mof_H 	H 	0.9297	0.1715	0.6233	0.265
Mof_H 	H 	0.9105	0.2281	0.6287	0.268
Mof_H 	H 	0.8763	0.9646	0.1504	0.035
Mof_H 	H 	0.8733	0.7824	0.177	0.096
Mof_H 	H 	0.916	0.8823	0.0419	0.029
Mof_H 	H 	0.7277	0.9413	0.2009	0.057
Mof_H 	H 	0.8263	0.9186	0.207	0.067
Mof_H 	H 	0.8625	0.839	0.0984	0.065
Mof_H 	H 	0.6257	0.8488	0.307	0.062
Mof_H 	H 	0.5381	0.0068	0.2654	0.069
Mof_H 	H 	0.6922	0.0125	0.2411	0.068
Mof_H 	H 	0.5779	0.9319	0.3071	0.047
Mof_H 	H 	0.6476	0.0966	0.242	0.031
Mof_H 	H 	0.4927	0.0913	0.2621	0.025
Mof_H 	H 	0.8844	0.7044	0.162	-0.111
Mof_H 	H 	0.9178	0.6994	0.1956	-0.097
Mof_H 	H 	0.8616	0.6369	0.2087	0.283
Mof_H 	H 	0.9297	0.6233	0.1715	0.265
Mof_H 	H 	0.9105	0.6287	0.2281	0.268
Mof_H 	H 	0.4913	0.5354	0.3496	0.035
Mof_H 	H 	0.3327	0.7176	0.323	0.096
Mof_H 	H 	0.3402	0.6177	0.4581	0.029
Mof_H 	H 	0.3699	0.5587	0.2991	0.057
Mof_H 	H 	0.4519	0.5814	0.293	0.067
Mof_H 	H 	0.2999	0.661	0.4016	0.065
Mof_H 	H 	0.2815	0.6512	0.193	0.063
Mof_H 	H 	0.3103	0.4932	0.2346	0.07
Mof_H 	H 	0.4458	0.4875	0.2589	0.069
Mof_H 	H 	0.3169	0.5681	0.1929	0.046
Mof_H 	H 	0.4862	0.4034	0.258	0.031
Mof_H 	H 	0.3461	0.4087	0.2379	0.025
Mof_H 	H 	0.2508	0.7956	0.338	-0.111
Mof_H 	H 	0.3128	0.8006	0.3044	-0.097
Mof_H 	H 	0.2072	0.8631	0.2913	0.283
Mof_H 	H 	0.2245	0.8767	0.3285	0.265
Mof_H 	H 	0.2673	0.8713	0.2719	0.268
Mof_H 	H 	0.5087	0.6504	0.4646	0.035
Mof_H 	H 	0.6673	0.677	0.2824	0.096
Mof_H 	H 	0.6598	0.5419	0.3823	0.029
Mof_H 	H 	0.6301	0.7009	0.4413	0.057
Mof_H 	H 	0.5481	0.707	0.4186	0.067
Mof_H 	H 	0.7001	0.5984	0.339	0.065
Mof_H 	H 	0.7185	0.807	0.3488	0.063
Mof_H 	H 	0.6897	0.7654	0.5068	0.07
Mof_H 	H 	0.5542	0.7411	0.5125	0.069
Mof_H 	H 	0.6831	0.8071	0.4319	0.046
Mof_H 	H 	0.5138	0.742	0.5966	0.031
Mof_H 	H 	0.6539	0.7621	0.5913	0.025
Mof_H 	H 	0.7492	0.662	0.2044	-0.111
Mof_H 	H 	0.6872	0.6956	0.1994	-0.097
Mof_H 	H 	0.7928	0.7087	0.1369	0.283
Mof_H 	H 	0.7755	0.6715	0.1233	0.265
Mof_H 	H 	0.7327	0.7281	0.1287	0.268
Mof_H 	H 	0.1237	0.8496	0.0354	0.035
Mof_H 	H 	0.1267	0.823	0.2176	0.096
Mof_H 	H 	0.084	0.9581	0.1177	0.029
Mof_H 	H 	0.2723	0.7991	0.0587	0.057
Mof_H 	H 	0.1737	0.793	0.0814	0.067
Mof_H 	H 	0.1375	0.9016	0.161	0.065
Mof_H 	H 	0.3743	0.693	0.1512	0.062
Mof_H 	H 	0.4619	0.7346	0.9932	0.069
Mof_H 	H 	0.3078	0.7589	0.9875	0.068
Mof_H 	H 	0.4221	0.6929	0.0681	0.047
Mof_H 	H 	0.3524	0.758	0.9034	0.031
Mof_H 	H 	0.5073	0.7379	0.9087	0.025
Mof_H 	H 	0.1156	0.838	0.2956	-0.111
Mof_H 	H 	0.0822	0.8044	0.3006	-0.097
Mof_H 	H 	0.1384	0.7913	0.3631	0.283
Mof_H 	H 	0.0703	0.8285	0.3767	0.265
Mof_H 	H 	0.0895	0.7719	0.3713	0.268
Mof_C 	C 	0.06637	0.0426	0.94616	0.361
Mof_C 	C 	0.10029	0.07154	0.90976	-0.106
Mof_C 	C 	0.29078	0.15762	0.7426	0.036
Mof_C 	C 	0.1265	0.06078	0.86032	0.035
Mof_C 	C 	0.16807	0.20222	0.80318	-0.174
Mof_C 	C 	0.19884	0.23097	0.77109	0.203
Mof_C 	C 	0.25932	0.12887	0.77519	-0.01
Mof_C 	C 	0.10343	0.10932	0.92476	0.036
Mof_C 	C 	0.29223	0.0774	0.77636	-0.071
Mof_C 	C 	0.16316	0.12426	0.8417	0.047
Mof_C 	C 	0.25877	0.20951	0.74133	-0.05
Mof_C 	C 	0.19725	0.15263	0.80591	0.028
Mof_C 	C 	0.157	0.08797	0.82661	-0.108
Mof_C 	C 	0.13519	0.13539	0.89083	-0.111
Mof_C 	C 	0.35127	0.0539	0.7461	-0.001
Mof_C 	C 	0.35236	0.13291	0.71353	-0.067
Mof_C 	C 	0.46321	0.84172	0.74946	0.369
Mof_C 	C 	0.4392	0.97504	0.7403	-0.122
Mof_C 	C 	0.34856	0.97137	0.75403	-0.118
Mof_C 	C 	0.43495	0.89658	0.74934	-0.117
Mof_C 	C 	0.38088	0.99924	0.74664	0.063
Mof_C 	C 	0.38123	0.08329	0.71417	-0.04
Mof_C 	C 	0.37467	0.92134	0.75436	0.046
Mof_C 	C 	0.46682	0.92424	0.7419	0.048
Mof_C 	C 	0.11415	0.3064	0.8059	0.452
Mof_C 	C 	0.10206	0.35888	0.7988	-0.846
Mof_C 	C 	0.55513	0.4574	0.55384	0.361
Mof_C 	C 	0.58159	0.42846	0.59024	-0.106
Mof_C 	C 	0.691	0.34238	0.7574	0.036
Mof_C 	C 	0.5476	0.43922	0.63968	0.035
Mof_C 	C 	0.67347	0.29778	0.69682	-0.174
Mof_C 	C 	0.7009	0.26903	0.72891	0.203
Mof_C 	C 	0.66338	0.37113	0.72481	-0.011
Mof_C 	C 	0.63751	0.39068	0.57524	0.036
Mof_C 	C 	0.64599	0.4226	0.72364	-0.07
Mof_C 	C 	0.62912	0.37574	0.6583	0.047
Mof_C 	C 	0.70961	0.29049	0.75867	-0.05
Mof_C 	C 	0.65579	0.34737	0.69409	0.028
Mof_C 	C 	0.57158	0.41203	0.67339	-0.108
Mof_C 	C 	0.66141	0.36461	0.60917	-0.111
Mof_C 	C 	0.65127	0.4461	0.7539	-0.002
Mof_C 	C 	0.6988	0.36709	0.78647	-0.067
Mof_C 	C 	0.55439	0.65828	0.75054	0.369
Mof_C 	C 	0.65454	0.52496	0.7597	-0.122
Mof_C 	C 	0.57396	0.52863	0.74597	-0.118
Mof_C 	C 	0.58087	0.60342	0.75066	-0.117
Mof_C 	C 	0.62676	0.50076	0.75336	0.064
Mof_C 	C 	0.67869	0.41671	0.78583	-0.039
Mof_C 	C 	0.55037	0.57866	0.74564	0.047
Mof_C 	C 	0.63296	0.57576	0.7581	0.048
Mof_C 	C 	0.72645	0.1936	0.6941	0.452
Mof_C 	C 	0.75974	0.14112	0.7012	-0.846
Mof_C 	C 	0.44487	0.44616	0.5426	0.361
Mof_C 	C 	0.41841	0.40976	0.57154	-0.106
Mof_C 	C 	0.309	0.2426	0.65762	0.036
Mof_C 	C 	0.4524	0.36032	0.56078	0.035
Mof_C 	C 	0.32653	0.30318	0.70222	-0.174
Mof_C 	C 	0.2991	0.27109	0.73097	0.203
Mof_C 	C 	0.33662	0.27519	0.62887	-0.011
Mof_C 	C 	0.36249	0.42476	0.60932	0.036
Mof_C 	C 	0.35401	0.27636	0.5774	-0.07
Mof_C 	C 	0.37088	0.3417	0.62426	0.047
Mof_C 	C 	0.29039	0.24133	0.70951	-0.05
Mof_C 	C 	0.34421	0.30591	0.65263	0.028
Mof_C 	C 	0.42842	0.32661	0.58797	-0.108
Mof_C 	C 	0.33859	0.39083	0.63539	-0.111
Mof_C 	C 	0.34873	0.2461	0.5539	-0.002
Mof_C 	C 	0.3012	0.21353	0.63291	-0.067
Mof_C 	C 	0.44561	0.24946	0.34172	0.369
Mof_C 	C 	0.34546	0.2403	0.47504	-0.122
Mof_C 	C 	0.42604	0.25403	0.47137	-0.118
Mof_C 	C 	0.41913	0.24934	0.39658	-0.117
Mof_C 	C 	0.37324	0.24664	0.49924	0.064
Mof_C 	C 	0.32131	0.21417	0.58329	-0.039
Mof_C 	C 	0.44963	0.25436	0.42134	0.047
Mof_C 	C 	0.36704	0.2419	0.42424	0.048
Mof_C 	C 	0.27355	0.3059	0.8064	0.452
Mof_C 	C 	0.24026	0.2988	0.85888	-0.846
Mof_C 	C 	0.93363	0.05384	0.9574	0.361
Mof_C 	C 	0.89971	0.09024	0.92846	-0.106
Mof_C 	C 	0.70922	0.2574	0.84238	0.036
Mof_C 	C 	0.8735	0.13968	0.93922	0.035
Mof_C 	C 	0.83193	0.19682	0.79778	-0.174
Mof_C 	C 	0.80116	0.22891	0.76903	0.203
Mof_C 	C 	0.74068	0.22481	0.87113	-0.01
Mof_C 	C 	0.89657	0.07524	0.89068	0.036
Mof_C 	C 	0.70777	0.22364	0.9226	-0.071
Mof_C 	C 	0.83684	0.1583	0.87574	0.047
Mof_C 	C 	0.74123	0.25867	0.79049	-0.05
Mof_C 	C 	0.80275	0.19409	0.84737	0.028
Mof_C 	C 	0.843	0.17339	0.91203	-0.108
Mof_C 	C 	0.86481	0.10917	0.86461	-0.111
Mof_C 	C 	0.64873	0.2539	0.9461	-0.001
Mof_C 	C 	0.64764	0.28647	0.86709	-0.067
Mof_C 	C 	0.53679	0.25054	0.15828	0.369
Mof_C 	C 	0.5608	0.2597	0.02496	-0.122
Mof_C 	C 	0.65144	0.24597	0.02863	-0.118
Mof_C 	C 	0.56505	0.25066	0.10342	-0.117
Mof_C 	C 	0.61912	0.25336	0.00076	0.063
Mof_C 	C 	0.61877	0.28583	0.91671	-0.04
Mof_C 	C 	0.62533	0.24564	0.07866	0.046
Mof_C 	C 	0.53318	0.2581	0.07576	0.048
Mof_C 	C 	0.88585	0.1941	0.6936	0.452
Mof_C 	C 	0.89794	0.2012	0.64112	-0.846
Mof_C 	C 	0.93363	0.9574	0.05384	0.361
Mof_C 	C 	0.89971	0.92846	0.09024	-0.106
Mof_C 	C 	0.70922	0.84238	0.2574	0.036
Mof_C 	C 	0.8735	0.93922	0.13968	0.035
Mof_C 	C 	0.83193	0.79778	0.19682	-0.174
Mof_C 	C 	0.80116	0.76903	0.22891	0.203
Mof_C 	C 	0.74068	0.87113	0.22481	-0.01
Mof_C 	C 	0.89657	0.89068	0.07524	0.036
Mof_C 	C 	0.70777	0.9226	0.22364	-0.071
Mof_C 	C 	0.83684	0.87574	0.1583	0.047
Mof_C 	C 	0.74123	0.79049	0.25867	-0.05
Mof_C 	C 	0.80275	0.84737	0.19409	0.028
Mof_C 	C 	0.843	0.91203	0.17339	-0.108
Mof_C 	C 	0.86481	0.86461	0.10917	-0.111
Mof_C 	C 	0.64873	0.9461	0.2539	-0.001
Mof_C 	C 	0.64764	0.86709	0.28647	-0.067
Mof_C 	C 	0.53679	0.15828	0.25054	0.369
Mof_C 	C 	0.5608	0.02496	0.2597	-0.122
Mof_C 	C 	0.65144	0.02863	0.24597	-0.118
Mof_C 	C 	0.56505	0.10342	0.25066	-0.117
Mof_C 	C 	0.61912	0.00076	0.25336	0.063
Mof_C 	C 	0.61877	0.91671	0.28583	-0.04
Mof_C 	C 	0.62533	0.07866	0.24564	0.046
Mof_C 	C 	0.53318	0.07576	0.2581	0.048
Mof_C 	C 	0.88585	0.6936	0.1941	0.452
Mof_C 	C 	0.89794	0.64112	0.2012	-0.846
Mof_C 	C 	0.44487	0.5426	0.44616	0.361
Mof_C 	C 	0.41841	0.57154	0.40976	-0.106
Mof_C 	C 	0.309	0.65762	0.2426	0.036
Mof_C 	C 	0.4524	0.56078	0.36032	0.035
Mof_C 	C 	0.32653	0.70222	0.30318	-0.174
Mof_C 	C 	0.2991	0.73097	0.27109	0.203
Mof_C 	C 	0.33662	0.62887	0.27519	-0.011
Mof_C 	C 	0.36249	0.60932	0.42476	0.036
Mof_C 	C 	0.35401	0.5774	0.27636	-0.07
Mof_C 	C 	0.37088	0.62426	0.3417	0.047
Mof_C 	C 	0.29039	0.70951	0.24133	-0.05
Mof_C 	C 	0.34421	0.65263	0.30591	0.028
Mof_C 	C 	0.42842	0.58797	0.32661	-0.108
Mof_C 	C 	0.33859	0.63539	0.39083	-0.111
Mof_C 	C 	0.34873	0.5539	0.2461	-0.002
Mof_C 	C 	0.3012	0.63291	0.21353	-0.067
Mof_C 	C 	0.44561	0.34172	0.24946	0.369
Mof_C 	C 	0.34546	0.47504	0.2403	-0.122
Mof_C 	C 	0.42604	0.47137	0.25403	-0.118
Mof_C 	C 	0.41913	0.39658	0.24934	-0.117
Mof_C 	C 	0.37324	0.49924	0.24664	0.064
Mof_C 	C 	0.32131	0.58329	0.21417	-0.039
Mof_C 	C 	0.44963	0.42134	0.25436	0.047
Mof_C 	C 	0.36704	0.42424	0.2419	0.048
Mof_C 	C 	0.27355	0.8064	0.3059	0.452
Mof_C 	C 	0.24026	0.85888	0.2988	-0.846
Mof_C 	C 	0.55513	0.55384	0.4574	0.361
Mof_C 	C 	0.58159	0.59024	0.42846	-0.106
Mof_C 	C 	0.691	0.7574	0.34238	0.036
Mof_C 	C 	0.5476	0.63968	0.43922	0.035
Mof_C 	C 	0.67347	0.69682	0.29778	-0.174
Mof_C 	C 	0.7009	0.72891	0.26903	0.203
Mof_C 	C 	0.66338	0.72481	0.37113	-0.011
Mof_C 	C 	0.63751	0.57524	0.39068	0.036
Mof_C 	C 	0.64599	0.72364	0.4226	-0.07
Mof_C 	C 	0.62912	0.6583	0.37574	0.047
Mof_C 	C 	0.70961	0.75867	0.29049	-0.05
Mof_C 	C 	0.65579	0.69409	0.34737	0.028
Mof_C 	C 	0.57158	0.67339	0.41203	-0.108
Mof_C 	C 	0.66141	0.60917	0.36461	-0.111
Mof_C 	C 	0.65127	0.7539	0.4461	-0.002
Mof_C 	C 	0.6988	0.78647	0.36709	-0.067
Mof_C 	C 	0.55439	0.75054	0.65828	0.369
Mof_C 	C 	0.65454	0.7597	0.52496	-0.122
Mof_C 	C 	0.57396	0.74597	0.52863	-0.118
Mof_C 	C 	0.58087	0.75066	0.60342	-0.117
Mof_C 	C 	0.62676	0.75336	0.50076	0.064
Mof_C 	C 	0.67869	0.78583	0.41671	-0.039
Mof_C 	C 	0.55037	0.74564	0.57866	0.047
Mof_C 	C 	0.63296	0.7581	0.57576	0.048
Mof_C 	C 	0.72645	0.6941	0.1936	0.452
Mof_C 	C 	0.75974	0.7012	0.14112	-0.846
Mof_C 	C 	0.06637	0.94616	0.0426	0.361
Mof_C 	C 	0.10029	0.90976	0.07154	-0.106
Mof_C 	C 	0.29078	0.7426	0.15762	0.036
Mof_C 	C 	0.1265	0.86032	0.06078	0.035
Mof_C 	C 	0.16807	0.80318	0.20222	-0.174
Mof_C 	C 	0.19884	0.77109	0.23097	0.203
Mof_C 	C 	0.25932	0.77519	0.12887	-0.01
Mof_C 	C 	0.10343	0.92476	0.10932	0.036
Mof_C 	C 	0.29223	0.77636	0.0774	-0.071
Mof_C 	C 	0.16316	0.8417	0.12426	0.047
Mof_C 	C 	0.25877	0.74133	0.20951	-0.05
Mof_C 	C 	0.19725	0.80591	0.15263	0.028
Mof_C 	C 	0.157	0.82661	0.08797	-0.108
Mof_C 	C 	0.13519	0.89083	0.13539	-0.111
Mof_C 	C 	0.35127	0.7461	0.0539	-0.001
Mof_C 	C 	0.35236	0.71353	0.13291	-0.067
Mof_C 	C 	0.46321	0.74946	0.84172	0.369
Mof_C 	C 	0.4392	0.7403	0.97504	-0.122
Mof_C 	C 	0.34856	0.75403	0.97137	-0.118
Mof_C 	C 	0.43495	0.74934	0.89658	-0.117
Mof_C 	C 	0.38088	0.74664	0.99924	0.063
Mof_C 	C 	0.38123	0.71417	0.08329	-0.04
Mof_C 	C 	0.37467	0.75436	0.92134	0.046
Mof_C 	C 	0.46682	0.7419	0.92424	0.048
Mof_C 	C 	0.11415	0.8059	0.3064	0.452
Mof_C 	C 	0.10206	0.7988	0.35888	-0.846
Mof_O 	O 	0.03327	0.06008	0.98796	-0.411
Mof_O 	O 	0.43294	0.82019	0.74997	-0.418
Mof_O 	O 	0.07403	0.00361	0.93005	-0.406
Mof_O 	O 	0.51502	0.82152	0.7499	-0.41
Mof_O 	O 	0.17119	0.28005	0.76755	-0.304
Mof_O 	O 	0.58131	0.43992	0.51204	-0.411
Mof_O 	O 	0.5031	0.67981	0.75003	-0.418
Mof_O 	O 	0.50769	0.49639	0.56995	-0.407
Mof_O 	O 	0.58644	0.67848	0.7501	-0.41
Mof_O 	O 	0.71879	0.21995	0.73245	-0.304
Mof_O 	O 	0.41869	0.48796	0.56008	-0.411
Mof_O 	O 	0.4969	0.24997	0.32019	-0.418
Mof_O 	O 	0.49231	0.43005	0.50361	-0.407
Mof_O 	O 	0.41356	0.2499	0.32152	-0.41
Mof_O 	O 	0.28121	0.26755	0.78005	-0.304
Mof_O 	O 	0.96673	0.01204	0.93992	-0.411
Mof_O 	O 	0.56706	0.25003	0.17981	-0.418
Mof_O 	O 	0.92597	0.06995	0.99639	-0.406
Mof_O 	O 	0.48498	0.2501	0.17848	-0.41
Mof_O 	O 	0.82881	0.23245	0.71995	-0.304
Mof_O 	O 	0.96673	0.93992	0.01204	-0.411
Mof_O 	O 	0.56706	0.17981	0.25003	-0.418
Mof_O 	O 	0.92597	0.99639	0.06995	-0.406
Mof_O 	O 	0.48498	0.17848	0.2501	-0.41
Mof_O 	O 	0.82881	0.71995	0.23245	-0.304
Mof_O 	O 	0.41869	0.56008	0.48796	-0.411
Mof_O 	O 	0.4969	0.32019	0.24997	-0.418
Mof_O 	O 	0.49231	0.50361	0.43005	-0.407
Mof_O 	O 	0.41356	0.32152	0.2499	-0.41
Mof_O 	O 	0.28121	0.78005	0.26755	-0.304
Mof_O 	O 	0.58131	0.51204	0.43992	-0.411
Mof_O 	O 	0.5031	0.75003	0.67981	-0.418
Mof_O 	O 	0.50769	0.56995	0.49639	-0.407
Mof_O 	O 	0.58644	0.7501	0.67848	-0.41
Mof_O 	O 	0.71879	0.73245	0.21995	-0.304
Mof_O 	O 	0.03327	0.98796	0.06008	-0.411
Mof_O 	O 	0.43294	0.74997	0.82019	-0.418
Mof_O 	O 	0.07403	0.93005	0.00361	-0.406
Mof_O 	O 	0.51502	0.7499	0.82152	-0.41
Mof_O 	O 	0.17119	0.76755	0.28005	-0.304
Mof_Cu	Cu	0.50895	0.9661	0.53391	0.906
Mof_Cu	Cu	0.50896	0.5339	0.9661	0.906
Mof_Cu	Cu	0.49105	0.0339	0.46609	0.906
Mof_Cu	Cu	0.49104	0.4661	0.0339	0.906
Mof_Cu	Cu	0.71061	0.25	0.25	0.91
Mof_Cu	Cu	0.80786	0.25	0.25	0.902
Mof_Cu	Cu	0.28939	0.75	0.75	0.91
Mof_Cu	Cu	0.19214	0.75	0.75	0.902
Mof_H 	H 	0.4733	0.1504	0.5354	0.035
Mof_H 	H 	0.4497	0.177	0.7176	0.096
Mof_H 	H 	0.5421	0.0419	0.6177	0.029
Mof_H 	H 	0.5714	0.2009	0.5587	0.057
Mof_H 	H 	0.4667	0.207	0.5814	0.067
Mof_H 	H 	0.5391	0.0984	0.661	0.065
Mof_H 	H 	0.5673	0.307	0.6512	0.063
Mof_H 	H 	0.6965	0.2654	0.4932	0.07
Mof_H 	H 	0.5667	0.2411	0.4875	0.069
Mof_H 	H 	0.615	0.3071	0.5681	0.046
Mof_H 	H 	0.6104	0.242	0.4034	0.031
Mof_H 	H 	0.7452	0.2621	0.4087	0.025
Mof_H 	H 	0.4536	0.162	0.7956	-0.111
Mof_H 	H 	0.3866	0.1956	0.8006	-0.097
Mof_H 	H 	0.4297	0.2087	0.8631	0.283
Mof_H 	H 	0.3988	0.1715	0.8767	0.265
Mof_H 	H 	0.3614	0.2281	0.8713	0.268
Mof_H 	H 	0.6591	0.3496	0.9646	0.035
Mof_H 	H 	0.8443	0.323	0.7824	0.096
Mof_H 	H 	0.7017	0.4581	0.8823	0.029
Mof_H 	H 	0.831	0.2991	0.9413	0.057
Mof_H 	H 	0.7551	0.293	0.9186	0.067
Mof_H 	H 	0.7985	0.4016	0.839	0.065
Mof_H 	H 	0.0255	0.193	0.8488	0.062
Mof_H 	H 	0.9551	0.2346	0.0068	0.069
Mof_H 	H 	0.7953	0.2589	0.0125	0.068
Mof_H 	H 	0.9902	0.1929	0.9319	0.047
Mof_H 	H 	0.7558	0.258	0.0966	0.031
Mof_H 	H 	0.916	0.2379	0.0913	0.025
Mof_H 	H 	0.9112	0.338	0.7044	-0.111
Mof_H 	H 	0.8828	0.3044	0.6994	-0.098
Mof_H 	H 	0.0015	0.2913	0.6369	0.284
Mof_H 	H 	0.947	0.3285	0.6233	0.265
Mof_H 	H 	0.9608	0.2719	0.6287	0.268
Mof_H 	H 	0.3409	0.0354	0.6504	0.035
Mof_H 	H 	0.1557	0.2176	0.677	0.096
Mof_H 	H 	0.2983	0.1177	0.5419	0.029
Mof_H 	H 	0.169	0.0587	0.7009	0.057
Mof_H 	H 	0.2449	0.0814	0.707	0.067
Mof_H 	H 	0.2015	0.161	0.5984	0.065
Mof_H 	H 	0.9745	0.1512	0.807	0.062
Mof_H 	H 	0.0449	0.9932	0.7654	0.069
Mof_H 	H 	0.2047	0.9875	0.7411	0.068
Mof_H 	H 	0.0098	0.0681	0.8071	0.047
Mof_H 	H 	0.2442	0.9034	0.742	0.031
Mof_H 	H 	0.084	0.9087	0.7621	0.025
Mof_H 	H 	0.0888	0.2956	0.662	-0.111
Mof_H 	H 	0.1172	0.3006	0.6956	-0.098
Mof_H 	H 	0.9985	0.3631	0.7087	0.284
Mof_H 	H 	0.053	0.3767	0.6715	0.265
Mof_H 	H 	0.0392	0.3713	0.7281	0.268
Mof_H 	H 	0.5267	0.4646	0.8496	0.035
Mof_H 	H 	0.5503	0.2824	0.823	0.096
Mof_H 	H 	0.4579	0.3823	0.9581	0.029
Mof_H 	H 	0.4286	0.4413	0.7991	0.057
Mof_H 	H 	0.5333	0.4186	0.793	0.067
Mof_H 	H 	0.4609	0.339	0.9016	0.065
Mof_H 	H 	0.4327	0.3488	0.693	0.063
Mof_H 	H 	0.3035	0.5068	0.7346	0.07
Mof_H 	H 	0.4333	0.5125	0.7589	0.069
Mof_H 	H 	0.385	0.4319	0.6929	0.046
Mof_H 	H 	0.3896	0.5966	0.758	0.031
Mof_H 	H 	0.2548	0.5913	0.7379	0.025
Mof_H 	H 	0.5464	0.2044	0.838	-0.111
Mof_H 	H 	0.6134	0.1994	0.8044	-0.097
Mof_H 	H 	0.5703	0.1369	0.7913	0.283
Mof_H 	H 	0.6012	0.1233	0.8285	0.265
Mof_H 	H 	0.6386	0.1287	0.7719	0.268
Mof_H 	H 	0.5267	0.8496	0.4646	0.035
Mof_H 	H 	0.5503	0.823	0.2824	0.096
Mof_H 	H 	0.4579	0.9581	0.3823	0.029
Mof_H 	H 	0.4286	0.7991	0.4413	0.057
Mof_H 	H 	0.5333	0.793	0.4186	0.067
Mof_H 	H 	0.4609	0.9016	0.339	0.065
Mof_H 	H 	0.4327	0.693	0.3488	0.063
Mof_H 	H 	0.3035	0.7346	0.5068	0.07
Mof_H 	H 	0.4333	0.7589	0.5125	0.069
Mof_H 	H 	0.385	0.6929	0.4319	0.046
Mof_H 	H 	0.3896	0.758	0.5966	0.031
Mof_H 	H 	0.2548	0.7379	0.5913	0.025
Mof_H 	H 	0.5464	0.838	0.2044	-0.111
Mof_H 	H 	0.6134	0.8044	0.1994	-0.097
Mof_H 	H 	0.5703	0.7913	0.1369	0.283
Mof_H 	H 	0.6012	0.8285	0.1233	0.265
Mof_H 	H 	0.6386	0.7719	0.1287	0.268
Mof_H 	H 	0.3409	0.6504	0.0354	0.035
Mof_H 	H 	0.1557	0.677	0.2176	0.096
Mof_H 	H 	0.2983	0.5419	0.1177	0.029
Mof_H 	H 	0.169	0.7009	0.0587	0.057
Mof_H 	H 	0.2449	0.707	0.0814	0.067
Mof_H 	H 	0.2015	0.5984	0.161	0.065
Mof_H 	H 	0.9745	0.807	0.1512	0.062
Mof_H 	H 	0.0449	0.7654	0.9932	0.069
Mof_H 	H 	0.2047	0.7411	0.9875	0.068
Mof_H 	H 	0.0098	0.8071	0.0681	0.047
Mof_H 	H 	0.2442	0.742	0.9034	0.031
Mof_H 	H 	0.084	0.7621	0.9087	0.025
Mof_H 	H 	0.0888	0.662	0.2956	-0.111
Mof_H 	H 	0.1172	0.6956	0.3006	-0.098
Mof_H 	H 	0.9985	0.7087	0.3631	0.284
Mof_H 	H 	0.053	0.6715	0.3767	0.265
Mof_H 	H 	0.0392	0.7281	0.3713	0.268
Mof_H 	H 	0.6591	0.9646	0.3496	0.035
Mof_H 	H 	0.8443	0.7824	0.323	0.096
Mof_H 	H 	0.7017	0.8823	0.4581	0.029
Mof_H 	H 	0.831	0.9413	0.2991	0.057
Mof_H 	H 	0.7551	0.9186	0.293	0.067
Mof_H 	H 	0.7985	0.839	0.4016	0.065
Mof_H 	H 	0.0255	0.8488	0.193	0.062
Mof_H 	H 	0.9551	0.0068	0.2346	0.069
Mof_H 	H 	0.7953	0.0125	0.2589	0.068
Mof_H 	H 	0.9902	0.9319	0.1929	0.047
Mof_H 	H 	0.7558	0.0966	0.258	0.031
Mof_H 	H 	0.916	0.0913	0.2379	0.025
Mof_H 	H 	0.9112	0.7044	0.338	-0.111
Mof_H 	H 	0.8828	0.6994	0.3044	-0.098
Mof_H 	H 	0.0015	0.6369	0.2913	0.284
Mof_H 	H 	0.947	0.6233	0.3285	0.265
Mof_H 	H 	0.9608	0.6287	0.2719	0.268
Mof_H 	H 	0.4733	0.5354	0.1504	0.035
Mof_H 	H 	0.4497	0.7176	0.177	0.096
Mof_H 	H 	0.5421	0.6177	0.0419	0.029
Mof_H 	H 	0.5714	0.5587	0.2009	0.057
Mof_H 	H 	0.4667	0.5814	0.207	0.067
Mof_H 	H 	0.5391	0.661	0.0984	0.065
Mof_H 	H 	0.5673	0.6512	0.307	0.063
Mof_H 	H 	0.6965	0.4932	0.2654	0.07
Mof_H 	H 	0.5667	0.4875	0.2411	0.069
Mof_H 	H 	0.615	0.5681	0.3071	0.046
Mof_H 	H 	0.6104	0.4034	0.242	0.031
Mof_H 	H 	0.7452	0.4087	0.2621	0.025
Mof_H 	H 	0.4536	0.7956	0.162	-0.111
Mof_H 	H 	0.3866	0.8006	0.1956	-0.097
Mof_H 	H 	0.4297	0.8631	0.2087	0.283
Mof_H 	H 	0.3988	0.8767	0.1715	0.265
Mof_H 	H 	0.3614	0.8713	0.2281	0.268
Mof_C 	C 	0.51253	0.05384	0.5426	0.361
Mof_C 	C 	0.51005	0.09024	0.57154	-0.107
Mof_C 	C 	0.53338	0.2574	0.65762	0.036
Mof_C 	C 	0.48682	0.13968	0.56078	0.035
Mof_C 	C 	0.47125	0.19682	0.70222	-0.174
Mof_C 	C 	0.46993	0.22891	0.73097	0.203
Mof_C 	C 	0.53451	0.22481	0.62887	-0.011
Mof_C 	C 	0.52819	0.07524	0.60932	0.036
Mof_C 	C 	0.56859	0.22364	0.5774	-0.07
Mof_C 	C 	0.50486	0.1583	0.62426	0.047
Mof_C 	C 	0.5001	0.25867	0.70951	-0.05
Mof_C 	C 	0.50316	0.19409	0.65263	0.028
Mof_C 	C 	0.48361	0.17339	0.58797	-0.108
Mof_C 	C 	0.52602	0.10917	0.63539	-0.111
Mof_C 	C 	0.59737	0.2539	0.5539	-0.002
Mof_C 	C 	0.56589	0.28647	0.63291	-0.067
Mof_C 	C 	0.71267	0.25054	0.34172	0.369
Mof_C 	C 	0.6795	0.2597	0.47504	-0.122
Mof_C 	C 	0.60259	0.24597	0.47137	-0.118
Mof_C 	C 	0.68429	0.25066	0.39658	-0.117
Mof_C 	C 	0.62752	0.25336	0.49924	0.064
Mof_C 	C 	0.5954	0.28583	0.58329	-0.039
Mof_C 	C 	0.62903	0.24564	0.42134	0.047
Mof_C 	C 	0.70872	0.2581	0.42424	0.048
Mof_C 	C 	0.42005	0.1941	0.8064	0.452
Mof_C 	C 	0.40086	0.2012	0.85888	-0.846
Mof_C 	C 	0.60897	0.44616	0.9574	0.361
Mof_C 	C 	0.67183	0.40976	0.92846	-0.107
Mof_C 	C 	0.9484	0.2426	0.84238	0.036
Mof_C 	C 	0.68728	0.36032	0.93922	0.035
Mof_C 	C 	0.87029	0.30318	0.79778	-0.174
Mof_C 	C 	0.92981	0.27109	0.76903	0.203
Mof_C 	C 	0.88819	0.27519	0.87113	-0.01
Mof_C 	C 	0.71275	0.42476	0.89068	0.036
Mof_C 	C 	0.86963	0.27636	0.9226	-0.071
Mof_C 	C 	0.78742	0.3417	0.87574	0.047
Mof_C 	C 	0.96828	0.24133	0.79049	-0.05
Mof_C 	C 	0.84988	0.30591	0.84737	0.028
Mof_C 	C 	0.74497	0.32661	0.91203	-0.108
Mof_C 	C 	0.77058	0.39083	0.86461	-0.111
Mof_C 	C 	0.90517	0.2461	0.9461	-0
Mof_C 	C 	0.98527	0.21353	0.86709	-0.066
Mof_C 	C 	0.80493	0.24946	0.15828	0.369
Mof_C 	C 	0.91424	0.2403	0.02496	-0.121
Mof_C 	C 	0.81993	0.25403	0.02863	-0.117
Mof_C 	C 	0.83153	0.24934	0.10342	-0.117
Mof_C 	C 	0.88012	0.24664	0.00076	0.062
Mof_C 	C 	0.96452	0.21417	0.91671	-0.04
Mof_C 	C 	0.79601	0.25436	0.07866	0.046
Mof_C 	C 	0.89106	0.2419	0.07576	0.047
Mof_C 	C 	0.92055	0.3059	0.6936	0.452
Mof_C 	C 	0.96094	0.2988	0.64112	-0.847
Mof_C 	C 	0.39103	0.0426	0.55384	0.361
Mof_C 	C 	0.32817	0.07154	0.59024	-0.107
Mof_C 	C 	0.0516	0.15762	0.7574	0.036
Mof_C 	C 	0.31272	0.06078	0.63968	0.035
Mof_C 	C 	0.12971	0.20222	0.69682	-0.174
Mof_C 	C 	0.07019	0.23097	0.72891	0.203
Mof_C 	C 	0.11181	0.12887	0.72481	-0.01
Mof_C 	C 	0.28725	0.10932	0.57524	0.036
Mof_C 	C 	0.13037	0.0774	0.72364	-0.071
Mof_C 	C 	0.21258	0.12426	0.6583	0.047
Mof_C 	C 	0.03172	0.20951	0.75867	-0.05
Mof_C 	C 	0.15012	0.15263	0.69409	0.028
Mof_C 	C 	0.25503	0.08797	0.67339	-0.108
Mof_C 	C 	0.22942	0.13539	0.60917	-0.111
Mof_C 	C 	0.09483	0.0539	0.7539	-0
Mof_C 	C 	0.01473	0.13291	0.78647	-0.066
Mof_C 	C 	0.19507	0.84172	0.75054	0.369
Mof_C 	C 	0.08576	0.97504	0.7597	-0.121
Mof_C 	C 	0.18007	0.97137	0.74597	-0.117
Mof_C 	C 	0.16847	0.89658	0.75066	-0.117
Mof_C 	C 	0.11988	0.99924	0.75336	0.062
Mof_C 	C 	0.03548	0.08329	0.78583	-0.04
Mof_C 	C 	0.20399	0.92134	0.74564	0.046
Mof_C 	C 	0.10894	0.92424	0.7581	0.047
Mof_C 	C 	0.07945	0.3064	0.6941	0.452
Mof_C 	C 	0.03906	0.35888	0.7012	-0.847
Mof_C 	C 	0.48747	0.4574	0.94616	0.361
Mof_C 	C 	0.48995	0.42846	0.90976	-0.107
Mof_C 	C 	0.46662	0.34238	0.7426	0.036
Mof_C 	C 	0.51318	0.43922	0.86032	0.035
Mof_C 	C 	0.52875	0.29778	0.80318	-0.174
Mof_C 	C 	0.53007	0.26903	0.77109	0.203
Mof_C 	C 	0.46549	0.37113	0.77519	-0.011
Mof_C 	C 	0.47181	0.39068	0.92476	0.036
Mof_C 	C 	0.43141	0.4226	0.77636	-0.07
Mof_C 	C 	0.49514	0.37574	0.8417	0.047
Mof_C 	C 	0.4999	0.29049	0.74133	-0.05
Mof_C 	C 	0.49684	0.34737	0.80591	0.028
Mof_C 	C 	0.51639	0.41203	0.82661	-0.108
Mof_C 	C 	0.47398	0.36461	0.89083	-0.111
Mof_C 	C 	0.40263	0.4461	0.7461	-0.002
Mof_C 	C 	0.43411	0.36709	0.71353	-0.067
Mof_C 	C 	0.28733	0.65828	0.74946	0.369
Mof_C 	C 	0.3205	0.52496	0.7403	-0.122
Mof_C 	C 	0.39741	0.52863	0.75403	-0.118
Mof_C 	C 	0.31571	0.60342	0.74934	-0.117
Mof_C 	C 	0.37248	0.50076	0.74664	0.064
Mof_C 	C 	0.4046	0.41671	0.71417	-0.039
Mof_C 	C 	0.37097	0.57866	0.75436	0.047
Mof_C 	C 	0.29128	0.57576	0.7419	0.048
Mof_C 	C 	0.57995	0.1936	0.8059	0.452
Mof_C 	C 	0.59914	0.14112	0.7988	-0.846
Mof_C 	C 	0.48747	0.94616	0.4574	0.361
Mof_C 	C 	0.48995	0.90976	0.42846	-0.107
Mof_C 	C 	0.46662	0.7426	0.34238	0.036
Mof_C 	C 	0.51318	0.86032	0.43922	0.035
Mof_C 	C 	0.52875	0.80318	0.29778	-0.174
Mof_C 	C 	0.53007	0.77109	0.26903	0.203
Mof_C 	C 	0.46549	0.77519	0.37113	-0.011
Mof_C 	C 	0.47181	0.92476	0.39068	0.036
Mof_C 	C 	0.43141	0.77636	0.4226	-0.07
Mof_C 	C 	0.49514	0.8417	0.37574	0.047
Mof_C 	C 	0.4999	0.74133	0.29049	-0.05
Mof_C 	C 	0.49684	0.80591	0.34737	0.028
Mof_C 	C 	0.51639	0.82661	0.41203	-0.108
Mof_C 	C 	0.47398	0.89083	0.36461	-0.111
Mof_C 	C 	0.40263	0.7461	0.4461	-0.002
Mof_C 	C 	0.43411	0.71353	0.36709	-0.067
Mof_C 	C 	0.28733	0.74946	0.65828	0.369
Mof_C 	C 	0.3205	0.7403	0.52496	-0.122
Mof_C 	C 	0.39741	0.75403	0.52863	-0.118
Mof_C 	C 	0.31571	0.74934	0.60342	-0.117
Mof_C 	C 	0.37248	0.74664	0.50076	0.064
Mof_C 	C 	0.4046	0.71417	0.41671	-0.039
Mof_C 	C 	0.37097	0.75436	0.57866	0.047
Mof_C 	C 	0.29128	0.7419	0.57576	0.048
Mof_C 	C 	0.57995	0.8059	0.1936	0.452
Mof_C 	C 	0.59914	0.7988	0.14112	-0.846
Mof_C 	C 	0.39103	0.55384	0.0426	0.361
Mof_C 	C 	0.32817	0.59024	0.07154	-0.107
Mof_C 	C 	0.0516	0.7574	0.15762	0.036
Mof_C 	C 	0.31272	0.63968	0.06078	0.035
Mof_C 	C 	0.12971	0.69682	0.20222	-0.174
Mof_C 	C 	0.07019	0.72891	0.23097	0.203
Mof_C 	C 	0.11181	0.72481	0.12887	-0.01
Mof_C 	C 	0.28725	0.57524	0.10932	0.036
Mof_C 	C 	0.13037	0.72364	0.0774	-0.071
Mof_C 	C 	0.21258	0.6583	0.12426	0.047
Mof_C 	C 	0.03172	0.75867	0.20951	-0.05
Mof_C 	C 	0.15012	0.69409	0.15263	0.028
Mof_C 	C 	0.25503	0.67339	0.08797	-0.108
Mof_C 	C 	0.22942	0.60917	0.13539	-0.111
Mof_C 	C 	0.09483	0.7539	0.0539	-0
Mof_C 	C 	0.01473	0.78647	0.13291	-0.066
Mof_C 	C 	0.19507	0.75054	0.84172	0.369
Mof_C 	C 	0.08576	0.7597	0.97504	-0.121
Mof_C 	C 	0.18007	0.74597	0.97137	-0.117
Mof_C 	C 	0.16847	0.75066	0.89658	-0.117
Mof_C 	C 	0.11988	0.75336	0.99924	0.062
Mof_C 	C 	0.03548	0.78583	0.08329	-0.04
Mof_C 	C 	0.20399	0.74564	0.92134	0.046
Mof_C 	C 	0.10894	0.7581	0.92424	0.047
Mof_C 	C 	0.07945	0.6941	0.3064	0.452
Mof_C 	C 	0.03906	0.7012	0.35888	-0.847
Mof_C 	C 	0.60897	0.9574	0.44616	0.361
Mof_C 	C 	0.67183	0.92846	0.40976	-0.107
Mof_C 	C 	0.9484	0.84238	0.2426	0.036
Mof_C 	C 	0.68728	0.93922	0.36032	0.035
Mof_C 	C 	0.87029	0.79778	0.30318	-0.174
Mof_C 	C 	0.92981	0.76903	0.27109	0.203
Mof_C 	C 	0.88819	0.87113	0.27519	-0.01
Mof_C 	C 	0.71275	0.89068	0.42476	0.036
Mof_C 	C 	0.86963	0.9226	0.27636	-0.071
Mof_C 	C 	0.78742	0.87574	0.3417	0.047
Mof_C 	C 	0.96828	0.79049	0.24133	-0.05
Mof_C 	C 	0.84988	0.84737	0.30591	0.028
Mof_C 	C 	0.74497	0.91203	0.32661	-0.108
Mof_C 	C 	0.77058	0.86461	0.39083	-0.111
Mof_C 	C 	0.90517	0.9461	0.2461	-0
Mof_C 	C 	0.98527	0.86709	0.21353	-0.066
Mof_C 	C 	0.80493	0.15828	0.24946	0.369
Mof_C 	C 	0.91424	0.02496	0.2403	-0.121
Mof_C 	C 	0.81993	0.02863	0.25403	-0.117
Mof_C 	C 	0.83153	0.10342	0.24934	-0.117
Mof_C 	C 	0.88012	0.00076	0.24664	0.062
Mof_C 	C 	0.96452	0.91671	0.21417	-0.04
Mof_C 	C 	0.79601	0.07866	0.25436	0.046
Mof_C 	C 	0.89106	0.07576	0.2419	0.047
Mof_C 	C 	0.92055	0.6936	0.3059	0.452
Mof_C 	C 	0.96094	0.64112	0.2988	-0.847
Mof_C 	C 	0.51253	0.5426	0.05384	0.361
Mof_C 	C 	0.51005	0.57154	0.09024	-0.107
Mof_C 	C 	0.53338	0.65762	0.2574	0.036
Mof_C 	C 	0.48682	0.56078	0.13968	0.035
Mof_C 	C 	0.47125	0.70222	0.19682	-0.174
Mof_C 	C 	0.46993	0.73097	0.22891	0.203
Mof_C 	C 	0.53451	0.62887	0.22481	-0.011
Mof_C 	C 	0.52819	0.60932	0.07524	0.036
Mof_C 	C 	0.56859	0.5774	0.22364	-0.07
Mof_C 	C 	0.50486	0.62426	0.1583	0.047
Mof_C 	C 	0.5001	0.70951	0.25867	-0.05
Mof_C 	C 	0.50316	0.65263	0.19409	0.028
Mof_C 	C 	0.48361	0.58797	0.17339	-0.108
Mof_C 	C 	0.52602	0.63539	0.10917	-0.111
Mof_C 	C 	0.59737	0.5539	0.2539	-0.002
Mof_C 	C 	0.56589	0.63291	0.28647	-0.067
Mof_C 	C 	0.71267	0.34172	0.25054	0.369
Mof_C 	C 	0.6795	0.47504	0.2597	-0.122
Mof_C 	C 	0.60259	0.47137	0.24597	-0.118
Mof_C 	C 	0.68429	0.39658	0.25066	-0.117
Mof_C 	C 	0.62752	0.49924	0.25336	0.064
Mof_C 	C 	0.5954	0.58329	0.28583	-0.039
Mof_C 	C 	0.62903	0.42134	0.24564	0.047
Mof_C 	C 	0.70872	0.42424	0.2581	0.048
Mof_C 	C 	0.42005	0.8064	0.1941	0.452
Mof_C 	C 	0.40086	0.85888	0.2012	-0.846
Mof_O 	O 	0.52123	0.01204	0.56008	-0.411
Mof_O 	O 	0.68291	0.25003	0.32019	-0.418
Mof_O 	O 	0.50408	0.06995	0.50361	-0.407
Mof_O 	O 	0.76492	0.2501	0.32152	-0.41
Mof_O 	O 	0.43874	0.23245	0.78005	-0.304
Mof_O 	O 	0.59335	0.48796	0.93992	-0.411
Mof_O 	O 	0.75313	0.24997	0.17981	-0.418
Mof_O 	O 	0.57764	0.43005	0.99639	-0.407
Mof_O 	O 	0.83654	0.2499	0.17848	-0.41
Mof_O 	O 	0.95124	0.26755	0.71995	-0.304
Mof_O 	O 	0.40665	0.06008	0.51204	-0.411
Mof_O 	O 	0.24687	0.82019	0.75003	-0.418
Mof_O 	O 	0.42236	0.00361	0.56995	-0.407
Mof_O 	O 	0.16346	0.82152	0.7501	-0.41
Mof_O 	O 	0.04876	0.28005	0.73245	-0.304
Mof_O 	O 	0.47877	0.43992	0.98796	-0.411
Mof_O 	O 	0.31709	0.67981	0.74997	-0.418
Mof_O 	O 	0.49592	0.49639	0.93005	-0.407
Mof_O 	O 	0.23508	0.67848	0.7499	-0.41
Mof_O 	O 	0.56126	0.21995	0.76755	-0.304
Mof_O 	O 	0.47877	0.98796	0.43992	-0.411
Mof_O 	O 	0.31709	0.74997	0.67981	-0.418
Mof_O 	O 	0.49592	0.93005	0.49639	-0.407
Mof_O 	O 	0.23508	0.7499	0.67848	-0.41
Mof_O 	O 	0.56126	0.76755	0.21995	-0.304
Mof_O 	O 	0.40665	0.51204	0.06008	-0.411
Mof_O 	O 	0.24687	0.75003	0.82019	-0.418
Mof_O 	O 	0.42236	0.56995	0.00361	-0.407
Mof_O 	O 	0.16346	0.7501	0.82152	-0.41
Mof_O 	O 	0.04876	0.73245	0.28005	-0.304
Mof_O 	O 	0.59335	0.93992	0.48796	-0.411
Mof_O 	O 	0.75313	0.17981	0.24997	-0.418
Mof_O 	O 	0.57764	0.99639	0.43005	-0.407
Mof_O 	O 	0.83654	0.17848	0.2499	-0.41
Mof_O 	O 	0.95124	0.71995	0.26755	-0.304
Mof_O 	O 	0.52123	0.56008	0.01204	-0.411
Mof_O 	O 	0.68291	0.32019	0.25003	-0.418
Mof_O 	O 	0.50408	0.50361	0.06995	-0.407
Mof_O 	O 	0.76492	0.32152	0.2501	-0.41
Mof_O 	O 	0.43874	0.78005	0.23245	-0.304
_end
