data_functionalizedCrystal
_audit_creation_method	'EQeq! by Chris Wilmer'
_symmetry_space_group_name_H-M	'P1'
_symmetry_Int_Tables_number	1
_symmetry_cell_setting	triclinic
loop_
_symmetry_equiv_pos_as_xyz
  x,y,z
_cell_length_a	13.9429
_cell_length_b	13.9429
_cell_length_c	13.9429
_cell_angle_alpha	90
_cell_angle_beta	90
_cell_angle_gamma	90
loop_
_atom_site_label
_atom_site_type_symbol
_atom_site_fract_x
_atom_site_fract_y
_atom_site_fract_z
_atom_site_charge
Mof_Zn	Zn	0.125	0.125	0.625	1.193
Mof_Zn	Zn	0.625	0.125	0.125	1.193
Mof_Zn	Zn	0.125	0.625	0.125	1.193
Mof_Zn	Zn	0.625	0.625	0.625	1.193
Mof_Zn	Zn	0.875	0.375	0.875	1.193
Mof_Zn	Zn	0.875	0.875	0.375	1.193
Mof_Zn	Zn	0.375	0.375	0.375	1.193
Mof_Zn	Zn	0.375	0.875	0.875	1.193
Mof_N 	N 	0.188	0.01	0.688	0.046
Mof_C 	C 	0.256	0.021	0.756	0.083
Mof_N 	N 	0.188	0.51	0.188	0.046
Mof_C 	C 	0.256	0.521	0.256	0.083
Mof_N 	N 	0.688	0.51	0.688	0.046
Mof_C 	C 	0.756	0.521	0.756	0.083
Mof_N 	N 	0.562	0.24	0.188	0.046
Mof_C 	C 	0.494	0.229	0.256	0.083
Mof_N 	N 	0.062	0.24	0.688	0.046
Mof_C 	C 	0.994	0.229	0.756	0.083
Mof_N 	N 	0.062	0.51	0.062	0.045
Mof_C 	C 	0.994	0.521	0.994	0.079
Mof_N 	N 	0.062	0.01	0.562	0.046
Mof_C 	C 	0.994	0.021	0.494	0.084
Mof_N 	N 	0.562	0.51	0.562	0.046
Mof_C 	C 	0.494	0.521	0.494	0.083
Mof_N 	N 	0.562	0.01	0.062	0.047
Mof_C 	C 	0.494	0.021	0.994	0.085
Mof_N 	N 	0.688	0.74	0.562	0.047
Mof_C 	C 	0.756	0.729	0.494	0.084
Mof_N 	N 	0.688	0.24	0.062	0.047
Mof_C 	C 	0.756	0.229	0.994	0.084
Mof_N 	N 	0.688	0.188	0.01	0.047
Mof_C 	C 	0.756	0.256	0.021	0.084
Mof_N 	N 	0.688	0.688	0.51	0.047
Mof_C 	C 	0.756	0.756	0.521	0.084
Mof_N 	N 	0.188	0.562	0.24	0.047
Mof_C 	C 	0.256	0.494	0.229	0.084
Mof_N 	N 	0.188	0.062	0.74	0.047
Mof_C 	C 	0.256	0.994	0.729	0.084
Mof_N 	N 	0.062	0.062	0.51	0.046
Mof_C 	C 	0.994	0.994	0.521	0.08
Mof_N 	N 	0.062	0.562	0.01	0.047
Mof_C 	C 	0.994	0.494	0.021	0.085
Mof_N 	N 	0.562	0.062	0.01	0.047
Mof_C 	C 	0.494	0.994	0.021	0.085
Mof_N 	N 	0.562	0.562	0.51	0.047
Mof_C 	C 	0.494	0.494	0.521	0.084
Mof_N 	N 	0.562	0.688	0.74	0.047
Mof_C 	C 	0.494	0.756	0.729	0.084
Mof_N 	N 	0.062	0.688	0.24	0.047
Mof_C 	C 	0.994	0.756	0.229	0.084
Mof_N 	N 	0.01	0.688	0.188	0.047
Mof_C 	C 	0.021	0.756	0.256	0.084
Mof_N 	N 	0.51	0.688	0.688	0.047
Mof_C 	C 	0.521	0.756	0.756	0.084
Mof_N 	N 	0.24	0.188	0.562	0.047
Mof_C 	C 	0.229	0.256	0.494	0.084
Mof_N 	N 	0.24	0.688	0.062	0.047
Mof_C 	C 	0.229	0.756	0.994	0.084
Mof_N 	N 	0.51	0.062	0.062	0.046
Mof_C 	C 	0.521	0.994	0.994	0.08
Mof_N 	N 	0.51	0.562	0.562	0.047
Mof_C 	C 	0.521	0.494	0.494	0.084
Mof_N 	N 	0.01	0.062	0.562	0.047
Mof_C 	C 	0.021	0.994	0.494	0.085
Mof_N 	N 	0.01	0.562	0.062	0.047
Mof_C 	C 	0.021	0.494	0.994	0.085
Mof_N 	N 	0.74	0.562	0.688	0.047
Mof_C 	C 	0.729	0.494	0.756	0.084
Mof_N 	N 	0.74	0.062	0.188	0.047
Mof_C 	C 	0.729	0.994	0.256	0.084
Mof_N 	N 	0.76	0.438	0.812	0.047
Mof_C 	C 	0.771	0.506	0.744	0.084
Mof_N 	N 	0.76	0.938	0.312	0.047
Mof_C 	C 	0.771	0.006	0.244	0.084
Mof_N 	N 	0.99	0.812	0.312	0.047
Mof_C 	C 	0.979	0.744	0.244	0.084
Mof_N 	N 	0.49	0.812	0.812	0.047
Mof_C 	C 	0.479	0.744	0.744	0.084
Mof_N 	N 	0.26	0.312	0.438	0.047
Mof_C 	C 	0.271	0.244	0.506	0.084
Mof_N 	N 	0.26	0.812	0.938	0.047
Mof_C 	C 	0.271	0.744	0.006	0.084
Mof_N 	N 	0.49	0.938	0.938	0.046
Mof_C 	C 	0.479	0.006	0.006	0.08
Mof_N 	N 	0.49	0.438	0.438	0.047
Mof_C 	C 	0.479	0.506	0.506	0.084
Mof_N 	N 	0.99	0.938	0.438	0.047
Mof_C 	C 	0.979	0.006	0.506	0.085
Mof_N 	N 	0.99	0.438	0.938	0.047
Mof_C 	C 	0.979	0.506	0.006	0.085
Mof_N 	N 	0.938	0.938	0.49	0.046
Mof_C 	C 	0.006	0.006	0.479	0.08
Mof_N 	N 	0.938	0.438	0.99	0.047
Mof_C 	C 	0.006	0.506	0.979	0.085
Mof_N 	N 	0.438	0.938	0.99	0.047
Mof_C 	C 	0.506	0.006	0.979	0.085
Mof_N 	N 	0.438	0.438	0.49	0.047
Mof_C 	C 	0.506	0.506	0.479	0.084
Mof_N 	N 	0.312	0.438	0.26	0.047
Mof_C 	C 	0.244	0.506	0.271	0.084
Mof_N 	N 	0.312	0.938	0.76	0.047
Mof_C 	C 	0.244	0.006	0.771	0.084
Mof_N 	N 	0.812	0.312	0.99	0.047
Mof_C 	C 	0.744	0.244	0.979	0.084
Mof_N 	N 	0.812	0.812	0.49	0.047
Mof_C 	C 	0.744	0.744	0.479	0.084
Mof_N 	N 	0.438	0.812	0.76	0.047
Mof_C 	C 	0.506	0.744	0.771	0.084
Mof_N 	N 	0.938	0.812	0.26	0.047
Mof_C 	C 	0.006	0.744	0.271	0.084
Mof_N 	N 	0.438	0.26	0.312	0.047
Mof_C 	C 	0.506	0.271	0.244	0.084
Mof_N 	N 	0.938	0.26	0.812	0.047
Mof_C 	C 	0.006	0.271	0.744	0.084
Mof_N 	N 	0.938	0.49	0.938	0.046
Mof_C 	C 	0.006	0.479	0.006	0.08
Mof_N 	N 	0.938	0.99	0.438	0.047
Mof_C 	C 	0.006	0.979	0.506	0.085
Mof_N 	N 	0.438	0.49	0.438	0.047
Mof_C 	C 	0.506	0.479	0.506	0.084
Mof_N 	N 	0.438	0.99	0.938	0.047
Mof_C 	C 	0.506	0.979	0.006	0.085
Mof_N 	N 	0.812	0.76	0.438	0.047
Mof_C 	C 	0.744	0.771	0.506	0.084
Mof_N 	N 	0.812	0.26	0.938	0.047
Mof_C 	C 	0.744	0.271	0.006	0.084
Mof_N 	N 	0.312	0.99	0.812	0.047
Mof_C 	C 	0.244	0.979	0.744	0.084
Mof_N 	N 	0.312	0.49	0.312	0.047
Mof_C 	C 	0.244	0.479	0.244	0.084
Mof_N 	N 	0.812	0.49	0.812	0.047
Mof_C 	C 	0.744	0.479	0.744	0.084
Mof_N 	N 	0.812	0.99	0.312	0.047
Mof_C 	C 	0.744	0.979	0.244	0.084
Mof_N 	N 	0.438	0.76	0.812	0.047
Mof_C 	C 	0.506	0.771	0.744	0.084
Mof_N 	N 	0.938	0.76	0.312	0.047
Mof_C 	C 	0.006	0.771	0.244	0.084
Mof_N 	N 	0.312	0.26	0.438	0.047
Mof_C 	C 	0.244	0.271	0.506	0.084
Mof_N 	N 	0.312	0.76	0.938	0.047
Mof_C 	C 	0.244	0.771	0.006	0.084
Mof_N 	N 	0.312	0.812	0.99	0.047
Mof_C 	C 	0.244	0.744	0.979	0.084
Mof_N 	N 	0.312	0.312	0.49	0.047
Mof_C 	C 	0.244	0.244	0.479	0.084
Mof_N 	N 	0.812	0.438	0.76	0.047
Mof_C 	C 	0.744	0.506	0.771	0.084
Mof_N 	N 	0.812	0.938	0.26	0.047
Mof_C 	C 	0.744	0.006	0.271	0.084
Mof_N 	N 	0.438	0.312	0.26	0.047
Mof_C 	C 	0.506	0.244	0.271	0.084
Mof_N 	N 	0.938	0.312	0.76	0.047
Mof_C 	C 	0.006	0.244	0.771	0.084
Mof_N 	N 	0.99	0.312	0.812	0.047
Mof_C 	C 	0.979	0.244	0.744	0.084
Mof_N 	N 	0.49	0.312	0.312	0.047
Mof_C 	C 	0.479	0.244	0.244	0.084
Mof_N 	N 	0.76	0.812	0.438	0.047
Mof_C 	C 	0.771	0.744	0.506	0.084
Mof_N 	N 	0.76	0.312	0.938	0.047
Mof_C 	C 	0.771	0.244	0.006	0.084
Mof_N 	N 	0.26	0.438	0.312	0.047
Mof_C 	C 	0.271	0.506	0.244	0.084
Mof_N 	N 	0.26	0.938	0.812	0.047
Mof_C 	C 	0.271	0.006	0.744	0.084
Mof_N 	N 	0.24	0.562	0.188	0.047
Mof_C 	C 	0.229	0.494	0.256	0.084
Mof_N 	N 	0.24	0.062	0.688	0.047
Mof_C 	C 	0.229	0.994	0.756	0.084
Mof_N 	N 	0.01	0.188	0.688	0.047
Mof_C 	C 	0.021	0.256	0.756	0.084
Mof_N 	N 	0.51	0.188	0.188	0.047
Mof_C 	C 	0.521	0.256	0.256	0.084
Mof_N 	N 	0.74	0.688	0.562	0.047
Mof_C 	C 	0.729	0.756	0.494	0.084
Mof_N 	N 	0.74	0.188	0.062	0.047
Mof_C 	C 	0.729	0.256	0.994	0.084
Mof_N 	N 	0.688	0.562	0.74	0.047
Mof_C 	C 	0.756	0.494	0.729	0.084
Mof_N 	N 	0.688	0.062	0.24	0.047
Mof_C 	C 	0.756	0.994	0.229	0.084
Mof_N 	N 	0.188	0.688	0.01	0.047
Mof_C 	C 	0.256	0.756	0.021	0.084
Mof_N 	N 	0.188	0.188	0.51	0.047
Mof_C 	C 	0.256	0.256	0.521	0.084
Mof_N 	N 	0.562	0.188	0.24	0.047
Mof_C 	C 	0.494	0.256	0.229	0.084
Mof_N 	N 	0.062	0.188	0.74	0.047
Mof_C 	C 	0.994	0.256	0.729	0.084
Mof_N 	N 	0.562	0.74	0.688	0.047
Mof_C 	C 	0.494	0.729	0.756	0.084
Mof_N 	N 	0.062	0.74	0.188	0.047
Mof_C 	C 	0.994	0.729	0.256	0.084
Mof_N 	N 	0.188	0.24	0.562	0.047
Mof_C 	C 	0.256	0.229	0.494	0.084
Mof_N 	N 	0.188	0.74	0.062	0.047
Mof_C 	C 	0.256	0.729	0.994	0.084
Mof_N 	N 	0.688	0.01	0.188	0.047
Mof_C 	C 	0.756	0.021	0.256	0.084
Mof_N 	N 	0.034	0.216	0.683	-0.183
Mof_N 	N 	0.981	0.269	0.619	0.06
Mof_N 	N 	0.959	0.291	0.642	-0.392
Mof_H 	H 	0.9826	0.2674	0.5868	0.08
Mof_N 	N 	0.034	0.716	0.183	-0.183
Mof_N 	N 	0.981	0.769	0.119	0.06
Mof_N 	N 	0.959	0.791	0.142	-0.392
Mof_H 	H 	0.9826	0.7674	0.0868	0.08
Mof_N 	N 	0.534	0.216	0.183	-0.184
Mof_N 	N 	0.481	0.269	0.119	0.06
Mof_N 	N 	0.459	0.291	0.142	-0.393
Mof_H 	H 	0.4826	0.2674	0.0868	0.08
Mof_N 	N 	0.716	0.034	0.183	-0.183
Mof_N 	N 	0.769	0.981	0.119	0.06
Mof_N 	N 	0.791	0.959	0.142	-0.392
Mof_H 	H 	0.7674	0.9826	0.0868	0.08
Mof_N 	N 	0.716	0.534	0.683	-0.184
Mof_N 	N 	0.769	0.481	0.619	0.06
Mof_N 	N 	0.791	0.459	0.642	-0.393
Mof_H 	H 	0.7674	0.4826	0.5868	0.08
Mof_N 	N 	0.216	0.716	0.067	-0.183
Mof_N 	N 	0.269	0.769	0.131	0.06
Mof_N 	N 	0.291	0.791	0.108	-0.393
Mof_H 	H 	0.2674	0.7674	0.1632	0.08
Mof_N 	N 	0.216	0.216	0.567	-0.184
Mof_N 	N 	0.269	0.269	0.631	0.06
Mof_N 	N 	0.291	0.291	0.608	-0.393
Mof_H 	H 	0.2674	0.2674	0.6632	0.08
Mof_N 	N 	0.716	0.716	0.567	-0.184
Mof_N 	N 	0.769	0.769	0.631	0.06
Mof_N 	N 	0.791	0.791	0.608	-0.393
Mof_H 	H 	0.7674	0.7674	0.6632	0.08
Mof_N 	N 	0.534	0.534	0.567	-0.184
Mof_N 	N 	0.481	0.481	0.631	0.06
Mof_N 	N 	0.459	0.459	0.608	-0.393
Mof_H 	H 	0.4826	0.4826	0.6632	0.08
Mof_N 	N 	0.534	0.034	0.067	-0.183
Mof_N 	N 	0.481	0.981	0.131	0.06
Mof_N 	N 	0.459	0.959	0.108	-0.393
Mof_H 	H 	0.4826	0.9826	0.1632	0.08
Mof_N 	N 	0.034	0.534	0.067	-0.183
Mof_N 	N 	0.981	0.481	0.131	0.06
Mof_N 	N 	0.959	0.459	0.108	-0.393
Mof_H 	H 	0.9826	0.4826	0.1632	0.08
Mof_N 	N 	0.034	0.034	0.567	-0.184
Mof_N 	N 	0.981	0.981	0.631	0.061
Mof_N 	N 	0.959	0.959	0.608	-0.392
Mof_H 	H 	0.9826	0.9826	0.6632	0.08
Mof_N 	N 	0.683	0.034	0.216	-0.183
Mof_N 	N 	0.619	0.981	0.269	0.06
Mof_N 	N 	0.642	0.959	0.291	-0.392
Mof_H 	H 	0.5868	0.9826	0.2674	0.08
Mof_N 	N 	0.683	0.534	0.716	-0.184
Mof_N 	N 	0.619	0.481	0.769	0.06
Mof_N 	N 	0.642	0.459	0.791	-0.393
Mof_H 	H 	0.5868	0.4826	0.7674	0.08
Mof_N 	N 	0.183	0.034	0.716	-0.183
Mof_N 	N 	0.119	0.981	0.769	0.06
Mof_N 	N 	0.142	0.959	0.791	-0.392
Mof_H 	H 	0.0868	0.9826	0.7674	0.08
Mof_N 	N 	0.183	0.716	0.034	-0.183
Mof_N 	N 	0.119	0.769	0.981	0.06
Mof_N 	N 	0.142	0.791	0.959	-0.392
Mof_H 	H 	0.0868	0.7674	0.9826	0.08
Mof_N 	N 	0.183	0.216	0.534	-0.184
Mof_N 	N 	0.119	0.269	0.481	0.06
Mof_N 	N 	0.142	0.291	0.459	-0.393
Mof_H 	H 	0.0868	0.2674	0.4826	0.08
Mof_N 	N 	0.067	0.216	0.716	-0.183
Mof_N 	N 	0.131	0.269	0.769	0.06
Mof_N 	N 	0.108	0.291	0.791	-0.393
Mof_H 	H 	0.1632	0.2674	0.7674	0.08
Mof_N 	N 	0.567	0.216	0.216	-0.184
Mof_N 	N 	0.631	0.269	0.269	0.06
Mof_N 	N 	0.608	0.291	0.291	-0.393
Mof_H 	H 	0.6632	0.2674	0.2674	0.08
Mof_N 	N 	0.567	0.716	0.716	-0.184
Mof_N 	N 	0.631	0.769	0.769	0.06
Mof_N 	N 	0.608	0.791	0.791	-0.393
Mof_H 	H 	0.6632	0.7674	0.7674	0.08
Mof_N 	N 	0.567	0.534	0.534	-0.184
Mof_N 	N 	0.631	0.481	0.481	0.06
Mof_N 	N 	0.608	0.459	0.459	-0.393
Mof_H 	H 	0.6632	0.4826	0.4826	0.08
Mof_N 	N 	0.567	0.034	0.034	-0.184
Mof_N 	N 	0.631	0.981	0.981	0.061
Mof_N 	N 	0.608	0.959	0.959	-0.392
Mof_H 	H 	0.6632	0.9826	0.9826	0.08
Mof_N 	N 	0.067	0.534	0.034	-0.183
Mof_N 	N 	0.131	0.481	0.981	0.06
Mof_N 	N 	0.108	0.459	0.959	-0.393
Mof_H 	H 	0.1632	0.4826	0.9826	0.08
Mof_N 	N 	0.067	0.034	0.534	-0.183
Mof_N 	N 	0.131	0.981	0.481	0.06
Mof_N 	N 	0.108	0.959	0.459	-0.393
Mof_H 	H 	0.1632	0.9826	0.4826	0.08
Mof_N 	N 	0.216	0.683	0.034	-0.183
Mof_N 	N 	0.269	0.619	0.981	0.06
Mof_N 	N 	0.291	0.642	0.959	-0.392
Mof_H 	H 	0.2674	0.5868	0.9826	0.08
Mof_N 	N 	0.216	0.183	0.534	-0.184
Mof_N 	N 	0.269	0.119	0.481	0.06
Mof_N 	N 	0.291	0.142	0.459	-0.393
Mof_H 	H 	0.2674	0.0868	0.4826	0.08
Mof_N 	N 	0.716	0.183	0.034	-0.183
Mof_N 	N 	0.769	0.119	0.981	0.06
Mof_N 	N 	0.791	0.142	0.959	-0.392
Mof_H 	H 	0.7674	0.0868	0.9826	0.08
Mof_N 	N 	0.034	0.183	0.716	-0.183
Mof_N 	N 	0.981	0.119	0.769	0.06
Mof_N 	N 	0.959	0.142	0.791	-0.392
Mof_H 	H 	0.9826	0.0868	0.7674	0.08
Mof_N 	N 	0.534	0.183	0.216	-0.184
Mof_N 	N 	0.481	0.119	0.269	0.06
Mof_N 	N 	0.459	0.142	0.291	-0.393
Mof_H 	H 	0.4826	0.0868	0.2674	0.08
Mof_N 	N 	0.716	0.067	0.216	-0.183
Mof_N 	N 	0.769	0.131	0.269	0.06
Mof_N 	N 	0.791	0.108	0.291	-0.393
Mof_H 	H 	0.7674	0.1632	0.2674	0.08
Mof_N 	N 	0.716	0.567	0.716	-0.184
Mof_N 	N 	0.769	0.631	0.769	0.06
Mof_N 	N 	0.791	0.608	0.791	-0.393
Mof_H 	H 	0.7674	0.6632	0.7674	0.08
Mof_N 	N 	0.534	0.567	0.534	-0.184
Mof_N 	N 	0.481	0.631	0.481	0.06
Mof_N 	N 	0.459	0.608	0.459	-0.393
Mof_H 	H 	0.4826	0.6632	0.4826	0.08
Mof_N 	N 	0.534	0.067	0.034	-0.183
Mof_N 	N 	0.481	0.131	0.981	0.06
Mof_N 	N 	0.459	0.108	0.959	-0.393
Mof_H 	H 	0.4826	0.1632	0.9826	0.08
Mof_N 	N 	0.034	0.567	0.034	-0.184
Mof_N 	N 	0.981	0.631	0.981	0.061
Mof_N 	N 	0.959	0.608	0.959	-0.392
Mof_H 	H 	0.9826	0.6632	0.9826	0.08
Mof_N 	N 	0.034	0.067	0.534	-0.183
Mof_N 	N 	0.981	0.131	0.481	0.06
Mof_N 	N 	0.959	0.108	0.459	-0.393
Mof_H 	H 	0.9826	0.1632	0.4826	0.08
Mof_N 	N 	0.966	0.284	0.817	-0.183
Mof_N 	N 	0.019	0.231	0.881	0.06
Mof_N 	N 	0.041	0.209	0.858	-0.392
Mof_H 	H 	0.0174	0.2326	0.9132	0.08
Mof_N 	N 	0.466	0.284	0.317	-0.184
Mof_N 	N 	0.519	0.231	0.381	0.06
Mof_N 	N 	0.541	0.209	0.358	-0.393
Mof_H 	H 	0.5174	0.2326	0.4132	0.08
Mof_N 	N 	0.784	0.966	0.317	-0.183
Mof_N 	N 	0.731	0.019	0.381	0.06
Mof_N 	N 	0.709	0.041	0.358	-0.392
Mof_H 	H 	0.7326	0.0174	0.4132	0.08
Mof_N 	N 	0.784	0.466	0.817	-0.184
Mof_N 	N 	0.731	0.519	0.881	0.06
Mof_N 	N 	0.709	0.541	0.858	-0.393
Mof_H 	H 	0.7326	0.5174	0.9132	0.08
Mof_N 	N 	0.466	0.466	0.433	-0.184
Mof_N 	N 	0.519	0.519	0.369	0.06
Mof_N 	N 	0.541	0.541	0.392	-0.393
Mof_H 	H 	0.5174	0.5174	0.3368	0.08
Mof_N 	N 	0.466	0.966	0.933	-0.183
Mof_N 	N 	0.519	0.019	0.869	0.06
Mof_N 	N 	0.541	0.041	0.892	-0.393
Mof_H 	H 	0.5174	0.0174	0.8368	0.08
Mof_N 	N 	0.966	0.466	0.933	-0.183
Mof_N 	N 	0.019	0.519	0.869	0.06
Mof_N 	N 	0.041	0.541	0.892	-0.393
Mof_H 	H 	0.0174	0.5174	0.8368	0.08
Mof_N 	N 	0.966	0.966	0.433	-0.184
Mof_N 	N 	0.019	0.019	0.369	0.061
Mof_N 	N 	0.041	0.041	0.392	-0.392
Mof_H 	H 	0.0174	0.0174	0.3368	0.08
Mof_N 	N 	0.284	0.784	0.933	-0.183
Mof_N 	N 	0.231	0.731	0.869	0.06
Mof_N 	N 	0.209	0.709	0.892	-0.393
Mof_H 	H 	0.2326	0.7326	0.8368	0.08
Mof_N 	N 	0.284	0.284	0.433	-0.184
Mof_N 	N 	0.231	0.231	0.369	0.06
Mof_N 	N 	0.209	0.209	0.392	-0.393
Mof_H 	H 	0.2326	0.2326	0.3368	0.08
Mof_N 	N 	0.784	0.784	0.433	-0.184
Mof_N 	N 	0.731	0.731	0.369	0.06
Mof_N 	N 	0.709	0.709	0.392	-0.393
Mof_H 	H 	0.7326	0.7326	0.3368	0.08
Mof_N 	N 	0.784	0.933	0.284	-0.183
Mof_N 	N 	0.731	0.869	0.231	0.06
Mof_N 	N 	0.709	0.892	0.209	-0.393
Mof_H 	H 	0.7326	0.8368	0.2326	0.08
Mof_N 	N 	0.784	0.433	0.784	-0.184
Mof_N 	N 	0.731	0.369	0.731	0.06
Mof_N 	N 	0.709	0.392	0.709	-0.393
Mof_H 	H 	0.7326	0.3368	0.7326	0.08
Mof_N 	N 	0.466	0.433	0.466	-0.184
Mof_N 	N 	0.519	0.369	0.519	0.06
Mof_N 	N 	0.541	0.392	0.541	-0.393
Mof_H 	H 	0.5174	0.3368	0.5174	0.08
Mof_N 	N 	0.466	0.933	0.966	-0.183
Mof_N 	N 	0.519	0.869	0.019	0.06
Mof_N 	N 	0.541	0.892	0.041	-0.393
Mof_H 	H 	0.5174	0.8368	0.0174	0.08
Mof_N 	N 	0.966	0.433	0.966	-0.184
Mof_N 	N 	0.019	0.369	0.019	0.061
Mof_N 	N 	0.041	0.392	0.041	-0.392
Mof_H 	H 	0.0174	0.3368	0.0174	0.08
Mof_N 	N 	0.966	0.933	0.466	-0.183
Mof_N 	N 	0.019	0.869	0.519	0.06
Mof_N 	N 	0.041	0.892	0.541	-0.393
Mof_H 	H 	0.0174	0.8368	0.5174	0.08
Mof_N 	N 	0.966	0.317	0.784	-0.183
Mof_N 	N 	0.019	0.381	0.731	0.06
Mof_N 	N 	0.041	0.358	0.709	-0.392
Mof_H 	H 	0.0174	0.4132	0.7326	0.08
Mof_N 	N 	0.466	0.317	0.284	-0.184
Mof_N 	N 	0.519	0.381	0.231	0.06
Mof_N 	N 	0.541	0.358	0.209	-0.393
Mof_H 	H 	0.5174	0.4132	0.2326	0.08
Mof_N 	N 	0.284	0.817	0.966	-0.183
Mof_N 	N 	0.231	0.881	0.019	0.06
Mof_N 	N 	0.209	0.858	0.041	-0.392
Mof_H 	H 	0.2326	0.9132	0.0174	0.08
Mof_N 	N 	0.284	0.317	0.466	-0.184
Mof_N 	N 	0.231	0.381	0.519	0.06
Mof_N 	N 	0.209	0.358	0.541	-0.393
Mof_H 	H 	0.2326	0.4132	0.5174	0.08
Mof_N 	N 	0.433	0.466	0.466	-0.184
Mof_N 	N 	0.369	0.519	0.519	0.06
Mof_N 	N 	0.392	0.541	0.541	-0.393
Mof_H 	H 	0.3368	0.5174	0.5174	0.08
Mof_N 	N 	0.433	0.966	0.966	-0.184
Mof_N 	N 	0.369	0.019	0.019	0.061
Mof_N 	N 	0.392	0.041	0.041	-0.392
Mof_H 	H 	0.3368	0.0174	0.0174	0.08
Mof_N 	N 	0.933	0.466	0.966	-0.183
Mof_N 	N 	0.869	0.519	0.019	0.06
Mof_N 	N 	0.892	0.541	0.041	-0.393
Mof_H 	H 	0.8368	0.5174	0.0174	0.08
Mof_N 	N 	0.933	0.966	0.466	-0.183
Mof_N 	N 	0.869	0.019	0.519	0.06
Mof_N 	N 	0.892	0.041	0.541	-0.393
Mof_H 	H 	0.8368	0.0174	0.5174	0.08
Mof_N 	N 	0.933	0.284	0.784	-0.183
Mof_N 	N 	0.869	0.231	0.731	0.06
Mof_N 	N 	0.892	0.209	0.709	-0.393
Mof_H 	H 	0.8368	0.2326	0.7326	0.08
Mof_N 	N 	0.433	0.284	0.284	-0.184
Mof_N 	N 	0.369	0.231	0.231	0.06
Mof_N 	N 	0.392	0.209	0.209	-0.393
Mof_H 	H 	0.3368	0.2326	0.2326	0.08
Mof_N 	N 	0.433	0.784	0.784	-0.184
Mof_N 	N 	0.369	0.731	0.731	0.06
Mof_N 	N 	0.392	0.709	0.709	-0.393
Mof_H 	H 	0.3368	0.7326	0.7326	0.08
Mof_N 	N 	0.817	0.966	0.284	-0.183
Mof_N 	N 	0.881	0.019	0.231	0.06
Mof_N 	N 	0.858	0.041	0.209	-0.392
Mof_H 	H 	0.9132	0.0174	0.2326	0.08
Mof_N 	N 	0.817	0.466	0.784	-0.184
Mof_N 	N 	0.881	0.519	0.731	0.06
Mof_N 	N 	0.858	0.541	0.709	-0.393
Mof_H 	H 	0.9132	0.5174	0.7326	0.08
Mof_N 	N 	0.317	0.784	0.966	-0.183
Mof_N 	N 	0.381	0.731	0.019	0.06
Mof_N 	N 	0.358	0.709	0.041	-0.392
Mof_H 	H 	0.4132	0.7326	0.0174	0.08
Mof_N 	N 	0.317	0.284	0.466	-0.184
Mof_N 	N 	0.381	0.231	0.519	0.06
Mof_N 	N 	0.358	0.209	0.541	-0.393
Mof_H 	H 	0.4132	0.2326	0.5174	0.08
Mof_N 	N 	0.966	0.784	0.317	-0.183
Mof_N 	N 	0.019	0.731	0.381	0.06
Mof_N 	N 	0.041	0.709	0.358	-0.392
Mof_H 	H 	0.0174	0.7326	0.4132	0.08
Mof_N 	N 	0.466	0.784	0.817	-0.184
Mof_N 	N 	0.519	0.731	0.881	0.06
Mof_N 	N 	0.541	0.709	0.858	-0.393
Mof_H 	H 	0.5174	0.7326	0.9132	0.08
Mof_N 	N 	0.284	0.966	0.817	-0.183
Mof_N 	N 	0.231	0.019	0.881	0.06
Mof_N 	N 	0.209	0.041	0.858	-0.392
Mof_H 	H 	0.2326	0.0174	0.9132	0.08
Mof_N 	N 	0.284	0.466	0.317	-0.184
Mof_N 	N 	0.231	0.519	0.381	0.06
Mof_N 	N 	0.209	0.541	0.358	-0.393
Mof_H 	H 	0.2326	0.5174	0.4132	0.08
Mof_N 	N 	0.784	0.284	0.933	-0.183
Mof_N 	N 	0.731	0.231	0.869	0.06
Mof_N 	N 	0.709	0.209	0.892	-0.393
Mof_H 	H 	0.7326	0.2326	0.8368	0.08
Mof_N 	N 	0.317	0.966	0.784	-0.183
Mof_N 	N 	0.381	0.019	0.731	0.06
Mof_N 	N 	0.358	0.041	0.709	-0.392
Mof_H 	H 	0.4132	0.0174	0.7326	0.08
Mof_N 	N 	0.317	0.466	0.284	-0.184
Mof_N 	N 	0.381	0.519	0.231	0.06
Mof_N 	N 	0.358	0.541	0.209	-0.393
Mof_H 	H 	0.4132	0.5174	0.2326	0.08
Mof_N 	N 	0.817	0.284	0.966	-0.183
Mof_N 	N 	0.881	0.231	0.019	0.06
Mof_N 	N 	0.858	0.209	0.041	-0.392
Mof_H 	H 	0.9132	0.2326	0.0174	0.08
Mof_N 	N 	0.817	0.784	0.466	-0.184
Mof_N 	N 	0.881	0.731	0.519	0.06
Mof_N 	N 	0.858	0.709	0.541	-0.393
Mof_H 	H 	0.9132	0.7326	0.5174	0.08
Mof_N 	N 	0.933	0.784	0.284	-0.183
Mof_N 	N 	0.869	0.731	0.231	0.06
Mof_N 	N 	0.892	0.709	0.209	-0.393
Mof_H 	H 	0.8368	0.7326	0.2326	0.08
Mof_N 	N 	0.784	0.317	0.966	-0.183
Mof_N 	N 	0.731	0.381	0.019	0.06
Mof_N 	N 	0.709	0.358	0.041	-0.392
Mof_H 	H 	0.7326	0.4132	0.0174	0.08
Mof_N 	N 	0.784	0.817	0.466	-0.184
Mof_N 	N 	0.731	0.881	0.519	0.06
Mof_N 	N 	0.709	0.858	0.541	-0.393
Mof_H 	H 	0.7326	0.9132	0.5174	0.08
Mof_N 	N 	0.966	0.817	0.284	-0.183
Mof_N 	N 	0.019	0.881	0.231	0.06
Mof_N 	N 	0.041	0.858	0.209	-0.392
Mof_H 	H 	0.0174	0.9132	0.2326	0.08
Mof_N 	N 	0.466	0.817	0.784	-0.184
Mof_N 	N 	0.519	0.881	0.731	0.06
Mof_N 	N 	0.541	0.858	0.709	-0.393
Mof_H 	H 	0.5174	0.9132	0.7326	0.08
Mof_N 	N 	0.284	0.933	0.784	-0.183
Mof_N 	N 	0.231	0.869	0.731	0.06
Mof_N 	N 	0.209	0.892	0.709	-0.393
Mof_H 	H 	0.2326	0.8368	0.7326	0.08
Mof_N 	N 	0.284	0.433	0.284	-0.184
Mof_N 	N 	0.231	0.369	0.231	0.06
Mof_N 	N 	0.209	0.392	0.209	-0.393
Mof_H 	H 	0.2326	0.3368	0.2326	0.08
Mof_N 	N 	0.534	0.716	0.683	-0.184
Mof_N 	N 	0.481	0.769	0.619	0.06
Mof_N 	N 	0.459	0.791	0.642	-0.393
Mof_H 	H 	0.4826	0.7674	0.5868	0.08
Mof_N 	N 	0.216	0.034	0.683	-0.183
Mof_N 	N 	0.269	0.981	0.619	0.06
Mof_N 	N 	0.291	0.959	0.642	-0.392
Mof_H 	H 	0.2674	0.9826	0.5868	0.08
Mof_N 	N 	0.216	0.534	0.183	-0.184
Mof_N 	N 	0.269	0.481	0.119	0.06
Mof_N 	N 	0.291	0.459	0.142	-0.393
Mof_H 	H 	0.2674	0.4826	0.0868	0.08
Mof_N 	N 	0.716	0.216	0.067	-0.183
Mof_N 	N 	0.769	0.269	0.131	0.06
Mof_N 	N 	0.791	0.291	0.108	-0.393
Mof_H 	H 	0.7674	0.2674	0.1632	0.08
Mof_N 	N 	0.216	0.067	0.716	-0.183
Mof_N 	N 	0.269	0.131	0.769	0.06
Mof_N 	N 	0.291	0.108	0.791	-0.393
Mof_H 	H 	0.2674	0.1632	0.7674	0.08
Mof_N 	N 	0.216	0.567	0.216	-0.184
Mof_N 	N 	0.269	0.631	0.269	0.06
Mof_N 	N 	0.291	0.608	0.291	-0.393
Mof_H 	H 	0.2674	0.6632	0.2674	0.08
Mof_N 	N 	0.034	0.683	0.216	-0.183
Mof_N 	N 	0.981	0.619	0.269	0.06
Mof_N 	N 	0.959	0.642	0.291	-0.392
Mof_H 	H 	0.9826	0.5868	0.2674	0.08
Mof_N 	N 	0.534	0.683	0.716	-0.184
Mof_N 	N 	0.481	0.619	0.769	0.06
Mof_N 	N 	0.459	0.642	0.791	-0.393
Mof_H 	H 	0.4826	0.5868	0.7674	0.08
Mof_N 	N 	0.716	0.683	0.534	-0.184
Mof_N 	N 	0.769	0.619	0.481	0.06
Mof_N 	N 	0.791	0.642	0.459	-0.393
Mof_H 	H 	0.7674	0.5868	0.4826	0.08
Mof_N 	N 	0.067	0.716	0.216	-0.183
Mof_N 	N 	0.131	0.769	0.269	0.06
Mof_N 	N 	0.108	0.791	0.291	-0.393
Mof_H 	H 	0.1632	0.7674	0.2674	0.08
Mof_N 	N 	0.183	0.534	0.216	-0.184
Mof_N 	N 	0.119	0.481	0.269	0.06
Mof_N 	N 	0.142	0.459	0.291	-0.393
Mof_H 	H 	0.0868	0.4826	0.2674	0.08
Mof_N 	N 	0.683	0.216	0.034	-0.183
Mof_N 	N 	0.619	0.269	0.981	0.06
Mof_N 	N 	0.642	0.291	0.959	-0.392
Mof_H 	H 	0.5868	0.2674	0.9826	0.08
Mof_N 	N 	0.683	0.716	0.534	-0.184
Mof_N 	N 	0.619	0.769	0.481	0.06
Mof_N 	N 	0.642	0.791	0.459	-0.393
Mof_H 	H 	0.5868	0.7674	0.4826	0.08
Mof_C 	C 	0.076	0.332	0.674	0.132
Mof_H 	H 	0.0862	0.3581	0.6638	0.206
Mof_C 	C 	0.576	0.332	0.174	0.132
Mof_H 	H 	0.5862	0.3581	0.1638	0.206
Mof_C 	C 	0.576	0.832	0.674	0.132
Mof_H 	H 	0.5862	0.8581	0.6638	0.206
Mof_C 	C 	0.674	0.918	0.174	0.132
Mof_H 	H 	0.6638	0.8919	0.1638	0.206
Mof_C 	C 	0.674	0.418	0.674	0.132
Mof_H 	H 	0.6638	0.3919	0.6638	0.206
Mof_C 	C 	0.174	0.418	0.174	0.132
Mof_H 	H 	0.1638	0.3919	0.1638	0.206
Mof_C 	C 	0.174	0.832	0.076	0.132
Mof_H 	H 	0.1638	0.8581	0.0862	0.206
Mof_C 	C 	0.174	0.332	0.576	0.132
Mof_H 	H 	0.1638	0.3581	0.5862	0.206
Mof_C 	C 	0.674	0.832	0.576	0.132
Mof_H 	H 	0.6638	0.8581	0.5862	0.206
Mof_C 	C 	0.576	0.418	0.576	0.132
Mof_H 	H 	0.5862	0.3919	0.5862	0.206
Mof_C 	C 	0.576	0.918	0.076	0.132
Mof_H 	H 	0.5862	0.8919	0.0862	0.206
Mof_C 	C 	0.076	0.418	0.076	0.132
Mof_H 	H 	0.0862	0.3919	0.0862	0.207
Mof_C 	C 	0.076	0.918	0.576	0.132
Mof_H 	H 	0.0862	0.8919	0.5862	0.206
Mof_C 	C 	0.674	0.076	0.332	0.132
Mof_H 	H 	0.6638	0.0862	0.3581	0.206
Mof_C 	C 	0.674	0.576	0.832	0.132
Mof_H 	H 	0.6638	0.5862	0.8581	0.206
Mof_C 	C 	0.174	0.674	0.918	0.132
Mof_H 	H 	0.1638	0.6638	0.8919	0.206
Mof_C 	C 	0.174	0.174	0.418	0.132
Mof_H 	H 	0.1638	0.1638	0.3919	0.206
Mof_C 	C 	0.076	0.174	0.832	0.132
Mof_H 	H 	0.0862	0.1638	0.8581	0.206
Mof_C 	C 	0.576	0.174	0.332	0.132
Mof_H 	H 	0.5862	0.1638	0.3581	0.206
Mof_C 	C 	0.576	0.674	0.832	0.132
Mof_H 	H 	0.5862	0.6638	0.8581	0.206
Mof_C 	C 	0.576	0.576	0.418	0.132
Mof_H 	H 	0.5862	0.5862	0.3919	0.206
Mof_C 	C 	0.576	0.076	0.918	0.132
Mof_H 	H 	0.5862	0.0862	0.8919	0.206
Mof_C 	C 	0.076	0.576	0.918	0.132
Mof_H 	H 	0.0862	0.5862	0.8919	0.206
Mof_C 	C 	0.076	0.076	0.418	0.132
Mof_H 	H 	0.0862	0.0862	0.3919	0.207
Mof_C 	C 	0.332	0.674	0.076	0.132
Mof_H 	H 	0.3581	0.6638	0.0862	0.206
Mof_C 	C 	0.332	0.174	0.576	0.132
Mof_H 	H 	0.3581	0.1638	0.5862	0.206
Mof_C 	C 	0.832	0.674	0.576	0.132
Mof_H 	H 	0.8581	0.6638	0.5862	0.206
Mof_C 	C 	0.918	0.174	0.674	0.132
Mof_H 	H 	0.8919	0.1638	0.6638	0.206
Mof_C 	C 	0.418	0.174	0.174	0.132
Mof_H 	H 	0.3919	0.1638	0.1638	0.206
Mof_C 	C 	0.832	0.076	0.174	0.132
Mof_H 	H 	0.8581	0.0862	0.1638	0.206
Mof_C 	C 	0.832	0.576	0.674	0.132
Mof_H 	H 	0.8581	0.5862	0.6638	0.206
Mof_C 	C 	0.418	0.576	0.576	0.132
Mof_H 	H 	0.3919	0.5862	0.5862	0.206
Mof_C 	C 	0.418	0.076	0.076	0.132
Mof_H 	H 	0.3919	0.0862	0.0862	0.207
Mof_C 	C 	0.918	0.576	0.076	0.132
Mof_H 	H 	0.8919	0.5862	0.0862	0.206
Mof_C 	C 	0.918	0.076	0.576	0.132
Mof_H 	H 	0.8919	0.0862	0.5862	0.206
Mof_C 	C 	0.082	0.326	0.826	0.132
Mof_H 	H 	0.1081	0.3362	0.8362	0.206
Mof_C 	C 	0.582	0.326	0.326	0.132
Mof_H 	H 	0.6081	0.3362	0.3362	0.206
Mof_C 	C 	0.668	0.924	0.326	0.132
Mof_H 	H 	0.6419	0.9138	0.3362	0.206
Mof_C 	C 	0.668	0.424	0.826	0.132
Mof_H 	H 	0.6419	0.4138	0.8362	0.206
Mof_C 	C 	0.582	0.424	0.424	0.132
Mof_H 	H 	0.6081	0.4138	0.4138	0.206
Mof_C 	C 	0.582	0.924	0.924	0.132
Mof_H 	H 	0.6081	0.9138	0.9138	0.207
Mof_C 	C 	0.082	0.424	0.924	0.132
Mof_H 	H 	0.1081	0.4138	0.9138	0.206
Mof_C 	C 	0.082	0.924	0.424	0.132
Mof_H 	H 	0.1081	0.9138	0.4138	0.206
Mof_C 	C 	0.168	0.826	0.924	0.132
Mof_H 	H 	0.1419	0.8362	0.9138	0.206
Mof_C 	C 	0.168	0.326	0.424	0.132
Mof_H 	H 	0.1419	0.3362	0.4138	0.206
Mof_C 	C 	0.826	0.924	0.168	0.132
Mof_H 	H 	0.8362	0.9138	0.1419	0.206
Mof_C 	C 	0.826	0.424	0.668	0.132
Mof_H 	H 	0.8362	0.4138	0.6419	0.206
Mof_C 	C 	0.424	0.424	0.582	0.132
Mof_H 	H 	0.4138	0.4138	0.6081	0.206
Mof_C 	C 	0.424	0.924	0.082	0.132
Mof_H 	H 	0.4138	0.9138	0.1081	0.206
Mof_C 	C 	0.924	0.424	0.082	0.132
Mof_H 	H 	0.9138	0.4138	0.1081	0.206
Mof_C 	C 	0.924	0.924	0.582	0.132
Mof_H 	H 	0.9138	0.9138	0.6081	0.207
Mof_C 	C 	0.924	0.326	0.668	0.132
Mof_H 	H 	0.9138	0.3362	0.6419	0.206
Mof_C 	C 	0.424	0.326	0.168	0.132
Mof_H 	H 	0.4138	0.3362	0.1419	0.206
Mof_C 	C 	0.326	0.826	0.082	0.132
Mof_H 	H 	0.3362	0.8362	0.1081	0.206
Mof_C 	C 	0.326	0.326	0.582	0.132
Mof_H 	H 	0.3362	0.3362	0.6081	0.206
Mof_C 	C 	0.424	0.582	0.424	0.132
Mof_H 	H 	0.4138	0.6081	0.4138	0.206
Mof_C 	C 	0.424	0.082	0.924	0.132
Mof_H 	H 	0.4138	0.1081	0.9138	0.206
Mof_C 	C 	0.924	0.582	0.924	0.132
Mof_H 	H 	0.9138	0.6081	0.9138	0.207
Mof_C 	C 	0.924	0.082	0.424	0.132
Mof_H 	H 	0.9138	0.1081	0.4138	0.206
Mof_C 	C 	0.924	0.168	0.826	0.132
Mof_H 	H 	0.9138	0.1419	0.8362	0.206
Mof_C 	C 	0.424	0.168	0.326	0.132
Mof_H 	H 	0.4138	0.1419	0.3362	0.206
Mof_C 	C 	0.826	0.082	0.326	0.132
Mof_H 	H 	0.8362	0.1081	0.3362	0.206
Mof_C 	C 	0.826	0.582	0.826	0.132
Mof_H 	H 	0.8362	0.6081	0.8362	0.206
Mof_C 	C 	0.326	0.582	0.326	0.132
Mof_H 	H 	0.3362	0.6081	0.3362	0.206
Mof_C 	C 	0.326	0.668	0.924	0.132
Mof_H 	H 	0.3362	0.6419	0.9138	0.206
Mof_C 	C 	0.326	0.168	0.424	0.132
Mof_H 	H 	0.3362	0.1419	0.4138	0.206
Mof_C 	C 	0.924	0.668	0.326	0.132
Mof_H 	H 	0.9138	0.6419	0.3362	0.206
Mof_C 	C 	0.424	0.668	0.826	0.132
Mof_H 	H 	0.4138	0.6419	0.8362	0.206
Mof_C 	C 	0.326	0.082	0.826	0.132
Mof_H 	H 	0.3362	0.1081	0.8362	0.206
Mof_C 	C 	0.826	0.168	0.924	0.132
Mof_H 	H 	0.8362	0.1419	0.9138	0.206
Mof_C 	C 	0.826	0.668	0.424	0.132
Mof_H 	H 	0.8362	0.6419	0.4138	0.206
Mof_C 	C 	0.326	0.924	0.668	0.132
Mof_H 	H 	0.3362	0.9138	0.6419	0.206
Mof_C 	C 	0.326	0.424	0.168	0.132
Mof_H 	H 	0.3362	0.4138	0.1419	0.206
Mof_C 	C 	0.826	0.326	0.082	0.132
Mof_H 	H 	0.8362	0.3362	0.1081	0.206
Mof_C 	C 	0.826	0.826	0.582	0.132
Mof_H 	H 	0.8362	0.8362	0.6081	0.206
Mof_C 	C 	0.924	0.826	0.168	0.132
Mof_H 	H 	0.9138	0.8362	0.1419	0.206
Mof_C 	C 	0.424	0.826	0.668	0.132
Mof_H 	H 	0.4138	0.8362	0.6419	0.206
Mof_C 	C 	0.668	0.326	0.924	0.132
Mof_H 	H 	0.6419	0.3362	0.9138	0.206
Mof_C 	C 	0.668	0.826	0.424	0.132
Mof_H 	H 	0.6419	0.8362	0.4138	0.206
Mof_C 	C 	0.082	0.826	0.326	0.132
Mof_H 	H 	0.1081	0.8362	0.3362	0.206
Mof_C 	C 	0.582	0.826	0.826	0.132
Mof_H 	H 	0.6081	0.8362	0.8362	0.206
Mof_C 	C 	0.168	0.924	0.826	0.132
Mof_H 	H 	0.1419	0.9138	0.8362	0.206
Mof_C 	C 	0.168	0.424	0.326	0.132
Mof_H 	H 	0.1419	0.4138	0.3362	0.206
Mof_C 	C 	0.918	0.674	0.174	0.132
Mof_H 	H 	0.8919	0.6638	0.1638	0.206
Mof_C 	C 	0.418	0.674	0.674	0.132
Mof_H 	H 	0.3919	0.6638	0.6638	0.206
Mof_C 	C 	0.332	0.076	0.674	0.132
Mof_H 	H 	0.3581	0.0862	0.6638	0.206
Mof_C 	C 	0.332	0.576	0.174	0.132
Mof_H 	H 	0.3581	0.5862	0.1638	0.206
Mof_C 	C 	0.832	0.174	0.076	0.132
Mof_H 	H 	0.8581	0.1638	0.0862	0.206
Mof_C 	C 	0.174	0.076	0.832	0.132
Mof_H 	H 	0.1638	0.0862	0.8581	0.206
Mof_C 	C 	0.174	0.576	0.332	0.132
Mof_H 	H 	0.1638	0.5862	0.3581	0.206
Mof_C 	C 	0.076	0.674	0.332	0.132
Mof_H 	H 	0.0862	0.6638	0.3581	0.206
Mof_C 	C 	0.674	0.174	0.918	0.132
Mof_H 	H 	0.6638	0.1638	0.8919	0.206
Mof_C 	C 	0.674	0.674	0.418	0.132
Mof_H 	H 	0.6638	0.6638	0.3919	0.206
Mof_C 	C 	0.076	0.832	0.174	0.132
Mof_H 	H 	0.0862	0.8581	0.1638	0.206
Mof_C 	C 	0.174	0.918	0.674	0.132
Mof_H 	H 	0.1638	0.8919	0.6638	0.206
Mof_C 	C 	0.674	0.332	0.076	0.132
Mof_H 	H 	0.6638	0.3581	0.0862	0.206
Mof_H 	H 	0.125	0.36	0.625	-0.264
Mof_H 	H 	0.625	0.86	0.625	-0.264
Mof_H 	H 	0.625	0.89	0.125	-0.264
Mof_H 	H 	0.125	0.39	0.125	-0.264
Mof_H 	H 	0.125	0.86	0.125	-0.264
Mof_H 	H 	0.625	0.39	0.625	-0.264
Mof_H 	H 	0.625	0.125	0.36	-0.264
Mof_H 	H 	0.625	0.625	0.86	-0.264
Mof_H 	H 	0.125	0.625	0.89	-0.264
Mof_H 	H 	0.125	0.125	0.39	-0.264
Mof_H 	H 	0.125	0.125	0.86	-0.264
Mof_H 	H 	0.625	0.625	0.39	-0.264
Mof_H 	H 	0.36	0.625	0.125	-0.264
Mof_H 	H 	0.86	0.625	0.625	-0.264
Mof_H 	H 	0.89	0.125	0.625	-0.264
Mof_H 	H 	0.86	0.125	0.125	-0.264
Mof_H 	H 	0.39	0.625	0.625	-0.264
Mof_H 	H 	0.39	0.125	0.125	-0.264
Mof_H 	H 	0.11	0.375	0.875	-0.264
Mof_H 	H 	0.64	0.875	0.375	-0.264
Mof_H 	H 	0.61	0.375	0.375	-0.264
Mof_H 	H 	0.61	0.875	0.875	-0.264
Mof_H 	H 	0.14	0.875	0.875	-0.264
Mof_H 	H 	0.14	0.375	0.375	-0.264
Mof_H 	H 	0.875	0.875	0.14	-0.264
Mof_H 	H 	0.375	0.375	0.61	-0.264
Mof_H 	H 	0.875	0.375	0.64	-0.264
Mof_H 	H 	0.375	0.875	0.11	-0.264
Mof_H 	H 	0.375	0.61	0.375	-0.264
Mof_H 	H 	0.875	0.14	0.875	-0.264
Mof_H 	H 	0.875	0.11	0.375	-0.264
Mof_H 	H 	0.875	0.61	0.875	-0.264
Mof_H 	H 	0.375	0.64	0.875	-0.264
Mof_H 	H 	0.375	0.14	0.375	-0.264
Mof_H 	H 	0.875	0.64	0.375	-0.264
Mof_H 	H 	0.375	0.11	0.875	-0.264
Mof_H 	H 	0.375	0.875	0.64	-0.264
Mof_H 	H 	0.375	0.375	0.14	-0.264
Mof_H 	H 	0.875	0.375	0.11	-0.264
Mof_H 	H 	0.875	0.875	0.61	-0.264
Mof_H 	H 	0.64	0.375	0.875	-0.264
Mof_H 	H 	0.11	0.875	0.375	-0.264
Mof_H 	H 	0.89	0.625	0.125	-0.264
Mof_H 	H 	0.36	0.125	0.625	-0.264
Mof_H 	H 	0.125	0.625	0.36	-0.264
Mof_H 	H 	0.625	0.125	0.89	-0.264
Mof_H 	H 	0.125	0.89	0.625	-0.264
Mof_H 	H 	0.625	0.36	0.125	-0.264
_end
