data_functionalizedCrystal
_audit_creation_method	'EQeq! by Chris Wilmer'
_symmetry_space_group_name_H-M	'P1'
_symmetry_Int_Tables_number	1
_symmetry_cell_setting	triclinic
loop_
_symmetry_equiv_pos_as_xyz
  x,y,z
_cell_length_a	24.3687
_cell_length_b	24.3687
_cell_length_c	47.322
_cell_angle_alpha	90
_cell_angle_beta	90
_cell_angle_gamma	90
loop_
_atom_site_label
_atom_site_type_symbol
_atom_site_fract_x
_atom_site_fract_y
_atom_site_fract_z
_atom_site_charge
Mof_La	La	0.08148	0.37847	0.63724	1.729
Mof_Ag	Ag	0.1297	0.70674	0.44115	0.45
Mof_Ag	Ag	0.14749	0.60745	0.49987	0.412
Mof_Ag	Ag	0.18913	0.50353	0.46287	0.429
Mof_Ag	Ag	0.20192	0.59285	0.40645	0.412
Mof_Ag	Ag	0.26758	0.73702	0.46055	0.415
Mof_Ag	Ag	0.27796	0.65584	0.51866	0.431
Mof_Ag	Ag	0.32518	0.55688	0.47745	0.396
Mof_Ag	Ag	0.3397	0.6397	0.41268	0.458
Mof_Ni	Ni	0.04422	0.56512	0.43659	1.043
Mof_Ni	Ni	0.42624	0.68774	0.48227	1.045
Mof_Ni	Ni	0.23553	0.74759	0.3771	1.046
Mof_Ni	Ni	0.24293	0.49593	0.54525	1.05
Mof_Ni	Ni	0.16095	0.77355	0.52076	1.049
Mof_Ni	Ni	0.31556	0.47307	0.40471	1.054
Mof_S 	S 	0.0761	0.62913	0.46366	-0.609
Mof_S 	S 	0.12423	0.5334	0.42521	-0.619
Mof_S 	S 	0.34549	0.71651	0.49471	-0.606
Mof_S 	S 	0.39535	0.62083	0.45655	-0.624
Mof_S 	S 	0.29624	0.73224	0.40944	-0.617
Mof_S 	S 	0.17599	0.69066	0.39416	-0.604
Mof_S 	S 	0.29866	0.55738	0.5294	-0.603
Mof_S 	S 	0.17753	0.51334	0.5154	-0.622
Mof_S 	S 	0.18271	0.68855	0.52777	-0.607
Mof_S 	S 	0.17549	0.77081	0.47583	-0.596
Mof_S 	S 	0.28565	0.48045	0.44756	-0.623
Mof_S 	S 	0.2941	0.55595	0.39264	-0.634
Mof_O 	O 	0.8831	0.6148	0.473	-0.257
Mof_O 	O 	0.893	0.6996	0.4748	-0.306
Mof_O 	O 	0.0442	0.3681	0.39161	-0.337
Mof_O 	O 	0.9786	0.4278	0.38042	-0.482
Mof_O 	O 	0.487	0.824	0.54194	-0.28
Mof_O 	O 	0.4188	0.8125	0.5727	-0.515
Mof_O 	O 	0.5891	0.6094	0.4615	-0.228
Mof_O 	O 	0.5714	0.6005	0.413	-0.263
Mof_O 	O 	0.4289	0.8416	0.3597	-0.321
Mof_O 	O 	0.3506	0.8865	0.35441	-0.292
Mof_O 	O 	0.1154	0.755	0.3042	-0.246
Mof_O 	O 	0.0411	0.7508	0.3277	-0.316
Mof_O 	O 	0.3886	0.4498	0.5996	-0.269
Mof_O 	O 	0.4106	0.5349	0.6125	-0.276
Mof_O 	O 	0.1185	0.3915	0.58878	-0.507
Mof_O 	O 	0.069	0.3675	0.55245	-0.377
Mof_O 	O 	0.2032	0.7233	0.62615	-0.291
Mof_O 	O 	0.1256	0.767	0.61482	-0.296
Mof_O 	O 	0.1291	0.9539	0.5067	-0.227
Mof_O 	O 	0.0892	0.9444	0.4638	-0.244
Mof_O 	O 	0.3629	0.2986	0.43429	-0.286
Mof_O 	O 	0.2843	0.2866	0.45622	-0.287
Mof_O 	O 	0.3405	0.4485	0.31093	-0.253
Mof_O 	O 	0.3788	0.5308	0.30239	-0.267
Mof_O 	O 	0.0871	0.4333	0.68706	-0.42
Mof_N 	N 	0.9714	0.5934	0.44434	-0.192
Mof_N 	N 	0.0124	0.5055	0.41503	-0.214
Mof_N 	N 	0.4565	0.739	0.50947	-0.194
Mof_N 	N 	0.4992	0.6707	0.46856	-0.182
Mof_N 	N 	0.2873	0.7972	0.35988	-0.198
Mof_N 	N 	0.1831	0.7657	0.34837	-0.2
Mof_N 	N 	0.2958	0.4812	0.57435	-0.19
Mof_N 	N 	0.1993	0.4359	0.55904	-0.191
Mof_N 	N 	0.1576	0.7833	0.56148	-0.187
Mof_N 	N 	0.1324	0.8462	0.51635	-0.193
Mof_N 	N 	0.3276	0.3966	0.41133	-0.172
Mof_N 	N 	0.3465	0.4629	0.36743	-0.174
Mof_C 	C 	0.9686	0.6475	0.4572	-0.33
Mof_H 	H 	0.9754	0.6757	0.4429	0.124
Mof_C 	C 	0.0112	0.6522	0.48084	0.527
Mof_C 	C 	0.0195	0.7114	0.4915	-0.957
Mof_H 	H 	0.9865	0.724	0.5004	0.311
Mof_H 	H 	0.0281	0.7349	0.4758	0.283
Mof_H 	H 	0.0492	0.7122	0.5048	0.266
Mof_C 	C 	0.9984	0.6156	0.5055	-0.987
Mof_H 	H 	0.965	0.6276	0.5143	0.312
Mof_H 	H 	0.0279	0.6173	0.5189	0.272
Mof_H 	H 	0.9941	0.5785	0.499	0.288
Mof_C 	C 	0.9108	0.6559	0.4703	0.422
Mof_C 	C 	0.0489	0.4577	0.41188	-0.353
Mof_H 	H 	0.0543	0.4416	0.4307	0.108
Mof_C 	C 	0.1052	0.4766	0.40105	0.574
Mof_C 	C 	0.1015	0.4983	0.37104	-1.004
Mof_H 	H 	0.0916	0.4689	0.3585	0.301
Mof_H 	H 	0.1364	0.513	0.3655	0.277
Mof_H 	H 	0.0742	0.5266	0.3701	0.292
Mof_C 	C 	0.1494	0.4338	0.4029	-1.06
Mof_H 	H 	0.1405	0.4038	0.3906	0.342
Mof_H 	H 	0.152	0.4208	0.422	0.315
Mof_H 	H 	0.1838	0.4496	0.3973	0.302
Mof_C 	C 	0.0219	0.4135	0.3928	0.447
Mof_C 	C 	0.4181	0.7557	0.53062	-0.314
Mof_H 	H 	0.4102	0.7236	0.5424	0.091
Mof_C 	C 	0.3641	0.775	0.51792	0.523
Mof_C 	C 	0.3717	0.8258	0.49937	-0.985
Mof_H 	H 	0.3813	0.8566	0.511	0.316
Mof_H 	H 	0.3381	0.8335	0.4896	0.279
Mof_H 	H 	0.4004	0.8192	0.4859	0.295
Mof_C 	C 	0.3187	0.7815	0.53976	-0.941
Mof_H 	H 	0.3274	0.8116	0.5521	0.303
Mof_H 	H 	0.3156	0.7484	0.5506	0.27
Mof_H 	H 	0.2846	0.7887	0.5303	0.255
Mof_C 	C 	0.4436	0.802	0.5508	0.429
Mof_C 	C 	0.4996	0.6323	0.4437	-0.356
Mof_H 	H 	0.4882	0.653	0.427	0.13
Mof_C 	C 	0.4608	0.5859	0.44753	0.636
Mof_C 	C 	0.452	0.5518	0.42176	-1.134
Mof_H 	H 	0.4855	0.5332	0.417	0.367
Mof_H 	H 	0.4412	0.5749	0.4063	0.335
Mof_H 	H 	0.4238	0.5252	0.4253	0.316
Mof_C 	C 	0.4757	0.5507	0.4728	-1.104
Mof_H 	H 	0.5093	0.5316	0.4691	0.345
Mof_H 	H 	0.4469	0.5247	0.4763	0.305
Mof_H 	H 	0.4803	0.5737	0.4891	0.325
Mof_C 	C 	0.5603	0.6136	0.4392	0.345
Mof_C 	C 	0.3453	0.7941	0.36968	-0.335
Mof_H 	H 	0.3623	0.7618	0.3609	0.114
Mof_C 	C 	0.3468	0.7865	0.40141	0.546
Mof_C 	C 	0.4014	0.7679	0.4135	-0.989
Mof_H 	H 	0.4288	0.7952	0.4097	0.32
Mof_H 	H 	0.4119	0.7338	0.4049	0.291
Mof_H 	H 	0.3979	0.7628	0.4335	0.274
Mof_C 	C 	0.3298	0.8389	0.4164	-0.972
Mof_H 	H 	0.356	0.8674	0.4124	0.3
Mof_H 	H 	0.3286	0.8326	0.4364	0.271
Mof_H 	H 	0.2942	0.85	0.4099	0.286
Mof_C 	C 	0.3775	0.8454	0.3601	0.393
Mof_C 	C 	0.125	0.7486	0.3543	-0.316
Mof_H 	H 	0.1087	0.7732	0.3684	0.11
Mof_C 	C 	0.1239	0.6887	0.36544	0.526
Mof_C 	C 	0.0704	0.6707	0.3778	-0.99
Mof_H 	H 	0.0431	0.6693	0.3632	0.318
Mof_H 	H 	0.0592	0.6963	0.3921	0.29
Mof_H 	H 	0.0746	0.6349	0.3861	0.267
Mof_C 	C 	0.1457	0.6486	0.343	-0.945
Mof_H 	H 	0.1199	0.646	0.3277	0.301
Mof_H 	H 	0.1507	0.613	0.3513	0.257
Mof_H 	H 	0.1802	0.6617	0.3358	0.28
Mof_C 	C 	0.0909	0.7505	0.3265	0.398
Mof_C 	C 	0.3359	0.5253	0.58006	-0.303
Mof_H 	H 	0.3177	0.5548	0.5906	0.111
Mof_C 	C 	0.359	0.5486	0.55293	0.516
Mof_C 	C 	0.3858	0.6036	0.5575	-0.971
Mof_H 	H 	0.4171	0.5994	0.5696	0.317
Mof_H 	H 	0.36	0.6283	0.5661	0.285
Mof_H 	H 	0.3974	0.6183	0.5396	0.267
Mof_C 	C 	0.399	0.5087	0.53805	-0.923
Mof_H 	H 	0.4309	0.5035	0.5497	0.279
Mof_H 	H 	0.4098	0.5238	0.5202	0.25
Mof_H 	H 	0.3811	0.4741	0.5351	0.267
Mof_C 	C 	0.3835	0.4997	0.59916	0.364
Mof_C 	C 	0.1486	0.4214	0.54301	-0.348
Mof_H 	H 	0.1584	0.3974	0.5272	0.123
Mof_C 	C 	0.1201	0.4749	0.53109	0.6
Mof_C 	C 	0.0964	0.507	0.5552	-1.082
Mof_H 	H 	0.0665	0.4869	0.5634	0.334
Mof_H 	H 	0.0834	0.5418	0.5484	0.301
Mof_H 	H 	0.1243	0.5129	0.5692	0.323
Mof_C 	C 	0.0807	0.4612	0.50778	-1.079
Mof_H 	H 	0.0503	0.441	0.5154	0.34
Mof_H 	H 	0.0991	0.4393	0.4938	0.313
Mof_H 	H 	0.0677	0.4944	0.4992	0.299
Mof_C 	C 	0.1087	0.3894	0.5635	0.479
Mof_C 	C 	0.1832	0.7383	0.57789	-0.318
Mof_H 	H 	0.223	0.7414	0.5755	0.1
Mof_C 	C 	0.1658	0.682	0.56604	0.527
Mof_C 	C 	0.1033	0.6722	0.5693	-0.938
Mof_H 	H 	0.0944	0.6686	0.5889	0.286
Mof_H 	H 	0.0932	0.6392	0.5595	0.256
Mof_H 	H 	0.0836	0.7027	0.5614	0.274
Mof_C 	C 	0.1972	0.635	0.57814	-1.001
Mof_H 	H 	0.1888	0.6314	0.5979	0.325
Mof_H 	H 	0.2358	0.6415	0.5759	0.293
Mof_H 	H 	0.1873	0.6018	0.5684	0.277
Mof_C 	C 	0.1707	0.7453	0.6093	0.384
Mof_C 	C 	0.1203	0.8611	0.4865	-0.275
Mof_H 	H 	0.0859	0.8439	0.4805	0.104
Mof_C 	C 	0.1665	0.8436	0.4669	0.461
Mof_C 	C 	0.2233	0.8734	0.4739	-0.824
Mof_H 	H 	0.2205	0.9117	0.4694	0.267
Mof_H 	H 	0.2521	0.8571	0.4629	0.224
Mof_H 	H 	0.2314	0.8692	0.4937	0.237
Mof_C 	C 	0.1141	0.9265	0.4858	0.33
Mof_C 	C 	0.1547	0.8485	0.4359	-0.919
Mof_H 	H 	0.1502	0.8865	0.431	0.304
Mof_H 	H 	0.1217	0.8288	0.4315	0.274
Mof_H 	H 	0.1848	0.8334	0.4253	0.253
Mof_C 	C 	0.2993	0.3745	0.43707	-0.362
Mof_H 	H 	0.2599	0.373	0.433	0.132
Mof_C 	C 	0.3075	0.4129	0.46115	0.618
Mof_C 	C 	0.3678	0.4161	0.46898	-1.057
Mof_H 	H 	0.3798	0.3812	0.4761	0.315
Mof_H 	H 	0.3729	0.4437	0.4832	0.288
Mof_H 	H 	0.3889	0.4255	0.4525	0.31
Mof_C 	C 	0.2754	0.3986	0.48699	-1.119
Mof_H 	H 	0.2871	0.3635	0.4939	0.361
Mof_H 	H 	0.2371	0.3971	0.4824	0.335
Mof_H 	H 	0.2815	0.4259	0.5012	0.308
Mof_C 	C 	0.3194	0.3143	0.44295	0.397
Mof_C 	C 	0.3505	0.5128	0.34913	-0.361
Mof_H 	H 	0.3833	0.5332	0.3549	0.128
Mof_C 	C 	0.3009	0.5497	0.35402	0.634
Mof_C 	C 	0.2506	0.5241	0.3424	-1.151
Mof_H 	H 	0.254	0.5209	0.3222	0.355
Mof_H 	H 	0.2194	0.5465	0.3469	0.321
Mof_H 	H 	0.2459	0.4883	0.3504	0.345
Mof_C 	C 	0.3105	0.6073	0.3424	-1.091
Mof_H 	H 	0.3143	0.6055	0.3222	0.354
Mof_H 	H 	0.3434	0.6222	0.3504	0.321
Mof_H 	H 	0.2799	0.6303	0.3471	0.306
Mof_C 	C 	0.3582	0.4957	0.3189	0.371
Mof_O 	O 	0.1684	0.4137	0.6645	-0.374
Mof_C 	C 	0.1348	0.4377	0.6873	0.381
Mof_C 	C 	0.1662	0.4714	0.7136	-0.713
Mof_H 	H 	0.1493	0.462	0.7313	0.22
Mof_H 	H 	0.1631	0.5102	0.7105	0.238
Mof_H 	H 	0.2043	0.4613	0.7141	0.24
Mof_La	La	0.91852	0.62153	0.13724	1.728
Mof_Ag	Ag	0.8703	0.29326	0.94115	0.449
Mof_Ag	Ag	0.85251	0.39255	0.99987	0.411
Mof_Ag	Ag	0.81087	0.49647	0.96287	0.428
Mof_Ag	Ag	0.79808	0.40715	0.90645	0.411
Mof_Ag	Ag	0.73242	0.26298	0.96055	0.414
Mof_Ag	Ag	0.72204	0.34416	0.01866	0.43
Mof_Ag	Ag	0.67482	0.44312	0.97745	0.395
Mof_Ag	Ag	0.6603	0.3603	0.91268	0.457
Mof_Ni	Ni	0.95578	0.43488	0.93659	1.042
Mof_Ni	Ni	0.57376	0.31226	0.98227	1.044
Mof_Ni	Ni	0.76447	0.25241	0.8771	1.045
Mof_Ni	Ni	0.75707	0.50407	0.04525	1.049
Mof_Ni	Ni	0.83905	0.22645	0.02076	1.048
Mof_Ni	Ni	0.68444	0.52693	0.90471	1.053
Mof_S 	S 	0.9239	0.37087	0.96366	-0.61
Mof_S 	S 	0.87577	0.4666	0.92521	-0.62
Mof_S 	S 	0.65451	0.28349	0.99471	-0.607
Mof_S 	S 	0.60465	0.37917	0.95655	-0.625
Mof_S 	S 	0.70376	0.26776	0.90944	-0.618
Mof_S 	S 	0.82401	0.30934	0.89416	-0.605
Mof_S 	S 	0.70134	0.44262	0.0294	-0.604
Mof_S 	S 	0.82247	0.48666	0.0154	-0.623
Mof_S 	S 	0.81729	0.31145	0.02777	-0.608
Mof_S 	S 	0.82451	0.22919	0.97583	-0.597
Mof_S 	S 	0.71435	0.51955	0.94756	-0.624
Mof_S 	S 	0.7059	0.44405	0.89264	-0.635
Mof_O 	O 	0.1169	0.3852	0.973	-0.258
Mof_O 	O 	0.107	0.3004	0.9748	-0.307
Mof_O 	O 	0.9558	0.6319	0.89161	-0.338
Mof_O 	O 	0.0214	0.5722	0.88042	-0.483
Mof_O 	O 	0.513	0.176	0.04194	-0.281
Mof_O 	O 	0.5812	0.1875	0.0727	-0.516
Mof_O 	O 	0.4109	0.3906	0.9615	-0.229
Mof_O 	O 	0.4286	0.3995	0.913	-0.264
Mof_O 	O 	0.5711	0.1584	0.8597	-0.322
Mof_O 	O 	0.6494	0.1135	0.85441	-0.293
Mof_O 	O 	0.8846	0.245	0.8042	-0.247
Mof_O 	O 	0.9589	0.2492	0.8277	-0.317
Mof_O 	O 	0.6114	0.5502	0.0996	-0.27
Mof_O 	O 	0.5894	0.4651	0.1125	-0.277
Mof_O 	O 	0.8815	0.6085	0.08878	-0.508
Mof_O 	O 	0.931	0.6325	0.05245	-0.378
Mof_O 	O 	0.7968	0.2767	0.12615	-0.292
Mof_O 	O 	0.8744	0.233	0.11482	-0.296
Mof_O 	O 	0.8709	0.0461	0.0067	-0.227
Mof_O 	O 	0.9108	0.0556	0.9638	-0.244
Mof_O 	O 	0.6371	0.7014	0.93429	-0.286
Mof_O 	O 	0.7157	0.7134	0.95622	-0.287
Mof_O 	O 	0.6595	0.5515	0.81093	-0.253
Mof_O 	O 	0.6212	0.4692	0.80239	-0.267
Mof_O 	O 	0.9129	0.5667	0.18706	-0.42
Mof_N 	N 	0.0286	0.4066	0.94434	-0.192
Mof_N 	N 	0.9876	0.4945	0.91503	-0.214
Mof_N 	N 	0.5435	0.261	0.00947	-0.194
Mof_N 	N 	0.5008	0.3293	0.96856	-0.182
Mof_N 	N 	0.7127	0.2028	0.85988	-0.198
Mof_N 	N 	0.8169	0.2343	0.84837	-0.2
Mof_N 	N 	0.7042	0.5188	0.07435	-0.19
Mof_N 	N 	0.8007	0.5641	0.05904	-0.191
Mof_N 	N 	0.8424	0.2167	0.06148	-0.187
Mof_N 	N 	0.8676	0.1538	0.01635	-0.193
Mof_N 	N 	0.6724	0.6034	0.91133	-0.172
Mof_N 	N 	0.6535	0.5371	0.86743	-0.174
Mof_C 	C 	0.0314	0.3525	0.9572	-0.33
Mof_H 	H 	0.0246	0.3243	0.9429	0.124
Mof_C 	C 	0.9888	0.3478	0.98084	0.527
Mof_C 	C 	0.9805	0.2886	0.9915	-0.957
Mof_H 	H 	0.0135	0.276	0.0004	0.311
Mof_H 	H 	0.9719	0.2651	0.9758	0.283
Mof_H 	H 	0.9508	0.2878	0.0048	0.266
Mof_C 	C 	0.0016	0.3844	0.0055	-0.987
Mof_H 	H 	0.035	0.3724	0.0143	0.312
Mof_H 	H 	0.9721	0.3827	0.0189	0.272
Mof_H 	H 	0.0059	0.4215	0.999	0.288
Mof_C 	C 	0.0892	0.3441	0.9703	0.422
Mof_C 	C 	0.9511	0.5423	0.91188	-0.353
Mof_H 	H 	0.9457	0.5584	0.9307	0.108
Mof_C 	C 	0.8948	0.5234	0.90105	0.574
Mof_C 	C 	0.8985	0.5017	0.87104	-1.004
Mof_H 	H 	0.9084	0.5311	0.8585	0.301
Mof_H 	H 	0.8636	0.487	0.8655	0.277
Mof_H 	H 	0.9258	0.4734	0.8701	0.292
Mof_C 	C 	0.8506	0.5662	0.9029	-1.06
Mof_H 	H 	0.8595	0.5962	0.8906	0.342
Mof_H 	H 	0.848	0.5792	0.922	0.315
Mof_H 	H 	0.8162	0.5504	0.8973	0.302
Mof_C 	C 	0.9781	0.5865	0.8928	0.447
Mof_C 	C 	0.5819	0.2443	0.03062	-0.314
Mof_H 	H 	0.5898	0.2764	0.0424	0.091
Mof_C 	C 	0.6359	0.225	0.01792	0.523
Mof_C 	C 	0.6283	0.1742	0.99937	-0.985
Mof_H 	H 	0.6187	0.1434	0.011	0.316
Mof_H 	H 	0.6619	0.1665	0.9896	0.279
Mof_H 	H 	0.5996	0.1808	0.9859	0.294
Mof_C 	C 	0.6813	0.2185	0.03976	-0.941
Mof_H 	H 	0.6726	0.1884	0.0521	0.303
Mof_H 	H 	0.6844	0.2516	0.0506	0.27
Mof_H 	H 	0.7154	0.2113	0.0303	0.255
Mof_C 	C 	0.5564	0.198	0.0508	0.429
Mof_C 	C 	0.5004	0.3677	0.9437	-0.356
Mof_H 	H 	0.5118	0.347	0.927	0.13
Mof_C 	C 	0.5392	0.4141	0.94753	0.636
Mof_C 	C 	0.548	0.4482	0.92176	-1.134
Mof_H 	H 	0.5145	0.4668	0.917	0.367
Mof_H 	H 	0.5588	0.4251	0.9063	0.335
Mof_H 	H 	0.5762	0.4748	0.9253	0.316
Mof_C 	C 	0.5243	0.4493	0.9728	-1.104
Mof_H 	H 	0.4907	0.4684	0.9691	0.345
Mof_H 	H 	0.5531	0.4753	0.9763	0.305
Mof_H 	H 	0.5197	0.4263	0.9891	0.325
Mof_C 	C 	0.4397	0.3864	0.9392	0.345
Mof_C 	C 	0.6547	0.2059	0.86968	-0.335
Mof_H 	H 	0.6377	0.2382	0.8609	0.114
Mof_C 	C 	0.6532	0.2135	0.90141	0.546
Mof_C 	C 	0.5986	0.2321	0.9135	-0.989
Mof_H 	H 	0.5712	0.2048	0.9097	0.32
Mof_H 	H 	0.5881	0.2662	0.9049	0.291
Mof_H 	H 	0.6021	0.2372	0.9335	0.274
Mof_C 	C 	0.6702	0.1611	0.9164	-0.972
Mof_H 	H 	0.644	0.1326	0.9124	0.3
Mof_H 	H 	0.6714	0.1674	0.9364	0.271
Mof_H 	H 	0.7058	0.15	0.9099	0.286
Mof_C 	C 	0.6225	0.1546	0.8601	0.393
Mof_C 	C 	0.875	0.2514	0.8543	-0.316
Mof_H 	H 	0.8913	0.2268	0.8684	0.11
Mof_C 	C 	0.8761	0.3113	0.86544	0.526
Mof_C 	C 	0.9296	0.3293	0.8778	-0.99
Mof_H 	H 	0.9569	0.3307	0.8632	0.318
Mof_H 	H 	0.9408	0.3037	0.8921	0.29
Mof_H 	H 	0.9254	0.3651	0.8861	0.267
Mof_C 	C 	0.8543	0.3514	0.843	-0.945
Mof_H 	H 	0.8801	0.354	0.8277	0.301
Mof_H 	H 	0.8493	0.387	0.8513	0.257
Mof_H 	H 	0.8198	0.3383	0.8358	0.28
Mof_C 	C 	0.9091	0.2495	0.8265	0.398
Mof_C 	C 	0.6641	0.4747	0.08006	-0.303
Mof_H 	H 	0.6823	0.4452	0.0906	0.111
Mof_C 	C 	0.641	0.4514	0.05293	0.516
Mof_C 	C 	0.6142	0.3964	0.0575	-0.971
Mof_H 	H 	0.5829	0.4006	0.0696	0.317
Mof_H 	H 	0.64	0.3717	0.0661	0.285
Mof_H 	H 	0.6026	0.3817	0.0396	0.267
Mof_C 	C 	0.601	0.4913	0.03805	-0.923
Mof_H 	H 	0.5691	0.4965	0.0497	0.279
Mof_H 	H 	0.5902	0.4762	0.0202	0.25
Mof_H 	H 	0.6189	0.5259	0.0351	0.267
Mof_C 	C 	0.6165	0.5003	0.09916	0.364
Mof_C 	C 	0.8514	0.5786	0.04301	-0.348
Mof_H 	H 	0.8416	0.6026	0.0272	0.123
Mof_C 	C 	0.8799	0.5251	0.03109	0.6
Mof_C 	C 	0.9036	0.493	0.0552	-1.083
Mof_H 	H 	0.9335	0.5131	0.0634	0.334
Mof_H 	H 	0.9166	0.4582	0.0484	0.301
Mof_H 	H 	0.8757	0.4871	0.0692	0.323
Mof_C 	C 	0.9193	0.5388	0.00778	-1.079
Mof_H 	H 	0.9497	0.559	0.0154	0.34
Mof_H 	H 	0.9009	0.5607	0.9938	0.313
Mof_H 	H 	0.9323	0.5056	0.9992	0.299
Mof_C 	C 	0.8913	0.6106	0.0635	0.479
Mof_C 	C 	0.8168	0.2617	0.07789	-0.318
Mof_H 	H 	0.777	0.2586	0.0755	0.1
Mof_C 	C 	0.8342	0.318	0.06604	0.527
Mof_C 	C 	0.8967	0.3278	0.0693	-0.938
Mof_H 	H 	0.9056	0.3314	0.0889	0.286
Mof_H 	H 	0.9068	0.3608	0.0595	0.256
Mof_H 	H 	0.9164	0.2973	0.0614	0.274
Mof_C 	C 	0.8028	0.365	0.07814	-1.001
Mof_H 	H 	0.8112	0.3686	0.0979	0.325
Mof_H 	H 	0.7642	0.3585	0.0759	0.293
Mof_H 	H 	0.8127	0.3982	0.0684	0.277
Mof_C 	C 	0.8293	0.2547	0.1093	0.384
Mof_C 	C 	0.8797	0.1389	0.9865	-0.275
Mof_H 	H 	0.9141	0.1561	0.9805	0.104
Mof_C 	C 	0.8335	0.1564	0.9669	0.461
Mof_C 	C 	0.7767	0.1266	0.9739	-0.824
Mof_H 	H 	0.7795	0.0883	0.9694	0.267
Mof_H 	H 	0.7479	0.1429	0.9629	0.224
Mof_H 	H 	0.7686	0.1308	0.9937	0.237
Mof_C 	C 	0.8859	0.0735	0.9858	0.33
Mof_C 	C 	0.8453	0.1515	0.9359	-0.919
Mof_H 	H 	0.8498	0.1135	0.931	0.304
Mof_H 	H 	0.8783	0.1712	0.9315	0.274
Mof_H 	H 	0.8152	0.1666	0.9253	0.253
Mof_C 	C 	0.7007	0.6255	0.93707	-0.362
Mof_H 	H 	0.7401	0.627	0.933	0.132
Mof_C 	C 	0.6925	0.5871	0.96115	0.618
Mof_C 	C 	0.6322	0.5839	0.96898	-1.057
Mof_H 	H 	0.6202	0.6188	0.9761	0.315
Mof_H 	H 	0.6271	0.5563	0.9832	0.288
Mof_H 	H 	0.6111	0.5745	0.9525	0.31
Mof_C 	C 	0.7246	0.6014	0.98699	-1.119
Mof_H 	H 	0.7129	0.6365	0.9939	0.361
Mof_H 	H 	0.7629	0.6029	0.9824	0.335
Mof_H 	H 	0.7185	0.5741	0.0012	0.308
Mof_C 	C 	0.6806	0.6857	0.94295	0.397
Mof_C 	C 	0.6495	0.4872	0.84913	-0.361
Mof_H 	H 	0.6167	0.4668	0.8549	0.128
Mof_C 	C 	0.6991	0.4503	0.85402	0.634
Mof_C 	C 	0.7494	0.4759	0.8424	-1.151
Mof_H 	H 	0.746	0.4791	0.8222	0.355
Mof_H 	H 	0.7806	0.4535	0.8469	0.321
Mof_H 	H 	0.7541	0.5117	0.8504	0.345
Mof_C 	C 	0.6895	0.3927	0.8424	-1.091
Mof_H 	H 	0.6857	0.3945	0.8222	0.354
Mof_H 	H 	0.6566	0.3778	0.8504	0.321
Mof_H 	H 	0.7201	0.3697	0.8471	0.306
Mof_C 	C 	0.6418	0.5043	0.8189	0.371
Mof_O 	O 	0.8316	0.5863	0.1645	-0.374
Mof_C 	C 	0.8652	0.5623	0.1873	0.381
Mof_C 	C 	0.8338	0.5286	0.2136	-0.713
Mof_H 	H 	0.8507	0.538	0.2313	0.22
Mof_H 	H 	0.8369	0.4898	0.2105	0.238
Mof_H 	H 	0.7957	0.5387	0.2141	0.24
Mof_La	La	0.12153	0.58148	0.88724	1.728
Mof_Ag	Ag	0.79326	0.6297	0.69115	0.45
Mof_Ag	Ag	0.89255	0.64749	0.74987	0.411
Mof_Ag	Ag	0.99647	0.68913	0.71287	0.43
Mof_Ag	Ag	0.90715	0.70192	0.65645	0.411
Mof_Ag	Ag	0.76298	0.76758	0.71055	0.413
Mof_Ag	Ag	0.84416	0.77796	0.76866	0.43
Mof_Ag	Ag	0.94312	0.82518	0.72745	0.397
Mof_Ag	Ag	0.8603	0.8397	0.66268	0.457
Mof_Ni	Ni	0.93488	0.54422	0.68659	1.042
Mof_Ni	Ni	0.81226	0.92624	0.73227	1.044
Mof_Ni	Ni	0.75241	0.73553	0.6271	1.045
Mof_Ni	Ni	0.00407	0.74293	0.79525	1.048
Mof_Ni	Ni	0.72645	0.66095	0.77076	1.048
Mof_Ni	Ni	0.02693	0.81556	0.65471	1.052
Mof_S 	S 	0.87087	0.5761	0.71366	-0.61
Mof_S 	S 	0.9666	0.62423	0.67521	-0.62
Mof_S 	S 	0.78349	0.84549	0.74471	-0.607
Mof_S 	S 	0.87917	0.89535	0.70655	-0.625
Mof_S 	S 	0.76776	0.79624	0.65944	-0.618
Mof_S 	S 	0.80934	0.67599	0.64416	-0.605
Mof_S 	S 	0.94262	0.79866	0.7794	-0.603
Mof_S 	S 	0.98666	0.67753	0.7654	-0.622
Mof_S 	S 	0.81145	0.68271	0.77777	-0.608
Mof_S 	S 	0.72919	0.67549	0.72583	-0.597
Mof_S 	S 	0.01955	0.78565	0.69756	-0.626
Mof_S 	S 	0.94405	0.7941	0.64264	-0.632
Mof_O 	O 	0.8852	0.3831	0.723	-0.258
Mof_O 	O 	0.8004	0.393	0.7248	-0.307
Mof_O 	O 	0.1319	0.5442	0.64161	-0.338
Mof_O 	O 	0.0722	0.4786	0.63042	-0.482
Mof_O 	O 	0.676	0.987	0.79194	-0.281
Mof_O 	O 	0.6875	0.9188	0.8227	-0.516
Mof_O 	O 	0.8906	0.0891	0.7115	-0.229
Mof_O 	O 	0.8995	0.0714	0.663	-0.264
Mof_O 	O 	0.6584	0.9289	0.6097	-0.322
Mof_O 	O 	0.6135	0.8506	0.60441	-0.293
Mof_O 	O 	0.745	0.6154	0.5542	-0.247
Mof_O 	O 	0.7492	0.5411	0.5777	-0.317
Mof_O 	O 	0.0502	0.8886	0.8496	-0.269
Mof_O 	O 	0.9651	0.9106	0.8625	-0.274
Mof_O 	O 	0.1085	0.6185	0.83878	-0.508
Mof_O 	O 	0.1325	0.569	0.80245	-0.378
Mof_O 	O 	0.7767	0.7032	0.87615	-0.291
Mof_O 	O 	0.733	0.6256	0.86482	-0.296
Mof_O 	O 	0.5461	0.6291	0.7567	-0.226
Mof_O 	O 	0.5556	0.5892	0.7138	-0.243
Mof_O 	O 	0.2014	0.8629	0.68429	-0.286
Mof_O 	O 	0.2134	0.7843	0.70622	-0.287
Mof_O 	O 	0.0515	0.8405	0.56093	-0.252
Mof_O 	O 	0.9692	0.8788	0.55239	-0.264
Mof_O 	O 	0.0667	0.5871	0.93706	-0.421
Mof_N 	N 	0.9066	0.4714	0.69434	-0.192
Mof_N 	N 	0.9945	0.5124	0.66503	-0.214
Mof_N 	N 	0.761	0.9565	0.75947	-0.194
Mof_N 	N 	0.8293	0.9992	0.71856	-0.182
Mof_N 	N 	0.7028	0.7873	0.60988	-0.198
Mof_N 	N 	0.7343	0.6831	0.59837	-0.2
Mof_N 	N 	0.0188	0.7958	0.82435	-0.191
Mof_N 	N 	0.0641	0.6993	0.80904	-0.191
Mof_N 	N 	0.7167	0.6576	0.81148	-0.186
Mof_N 	N 	0.6538	0.6324	0.76635	-0.193
Mof_N 	N 	0.1034	0.8276	0.66133	-0.172
Mof_N 	N 	0.0371	0.8465	0.61743	-0.175
Mof_C 	C 	0.8525	0.4686	0.7072	-0.331
Mof_H 	H 	0.8243	0.4754	0.6929	0.124
Mof_C 	C 	0.8478	0.5112	0.73084	0.529
Mof_C 	C 	0.7886	0.5195	0.7415	-0.955
Mof_H 	H 	0.776	0.4865	0.7504	0.309
Mof_H 	H 	0.7651	0.5281	0.7258	0.282
Mof_H 	H 	0.7878	0.5492	0.7548	0.265
Mof_C 	C 	0.8844	0.4984	0.7555	-0.994
Mof_H 	H 	0.8724	0.465	0.7643	0.313
Mof_H 	H 	0.8827	0.5279	0.7689	0.275
Mof_H 	H 	0.9215	0.4941	0.749	0.29
Mof_C 	C 	0.8441	0.4108	0.7203	0.423
Mof_C 	C 	0.0423	0.5489	0.66188	-0.355
Mof_H 	H 	0.0584	0.5543	0.6807	0.108
Mof_C 	C 	0.0234	0.6052	0.65105	0.577
Mof_C 	C 	0.0017	0.6015	0.62104	-1.014
Mof_H 	H 	0.0311	0.5916	0.6085	0.304
Mof_H 	H 	0.987	0.6364	0.6155	0.28
Mof_H 	H 	0.9734	0.5742	0.6201	0.295
Mof_C 	C 	0.0662	0.6494	0.6529	-1.063
Mof_H 	H 	0.0962	0.6405	0.6406	0.343
Mof_H 	H 	0.0792	0.652	0.672	0.316
Mof_H 	H 	0.0504	0.6838	0.6473	0.303
Mof_C 	C 	0.0865	0.5219	0.6428	0.447
Mof_C 	C 	0.7443	0.9181	0.78062	-0.314
Mof_H 	H 	0.7764	0.9102	0.7924	0.091
Mof_C 	C 	0.725	0.8641	0.76792	0.523
Mof_C 	C 	0.6742	0.8717	0.74937	-0.985
Mof_H 	H 	0.6434	0.8813	0.761	0.316
Mof_H 	H 	0.6665	0.8381	0.7396	0.279
Mof_H 	H 	0.6808	0.9004	0.7359	0.295
Mof_C 	C 	0.7185	0.8187	0.78976	-0.941
Mof_H 	H 	0.6884	0.8274	0.8021	0.303
Mof_H 	H 	0.7516	0.8156	0.8006	0.271
Mof_H 	H 	0.7113	0.7846	0.7803	0.255
Mof_C 	C 	0.698	0.9436	0.8008	0.429
Mof_C 	C 	0.8677	0.9996	0.6937	-0.353
Mof_H 	H 	0.847	0.9882	0.677	0.129
Mof_C 	C 	0.9141	0.9608	0.69753	0.633
Mof_C 	C 	0.9482	0.952	0.67176	-1.132
Mof_H 	H 	0.9668	0.9855	0.667	0.367
Mof_H 	H 	0.9251	0.9412	0.6563	0.335
Mof_H 	H 	0.9748	0.9238	0.6753	0.316
Mof_C 	C 	0.9493	0.9757	0.7228	-1.095
Mof_H 	H 	0.9684	0.0093	0.7191	0.34
Mof_H 	H 	0.9753	0.9469	0.7263	0.303
Mof_H 	H 	0.9263	0.9803	0.7391	0.323
Mof_C 	C 	0.8864	0.0603	0.6892	0.344
Mof_C 	C 	0.7059	0.8453	0.61968	-0.335
Mof_H 	H 	0.7382	0.8623	0.6109	0.114
Mof_C 	C 	0.7135	0.8468	0.65141	0.546
Mof_C 	C 	0.7321	0.9014	0.6635	-0.99
Mof_H 	H 	0.7048	0.9288	0.6597	0.321
Mof_H 	H 	0.7662	0.9119	0.6549	0.291
Mof_H 	H 	0.7372	0.8979	0.6835	0.275
Mof_C 	C 	0.6611	0.8298	0.6664	-0.973
Mof_H 	H 	0.6326	0.856	0.6624	0.3
Mof_H 	H 	0.6674	0.8286	0.6864	0.272
Mof_H 	H 	0.65	0.7942	0.6599	0.286
Mof_C 	C 	0.6546	0.8775	0.6101	0.393
Mof_C 	C 	0.7514	0.625	0.6043	-0.316
Mof_H 	H 	0.7268	0.6087	0.6184	0.11
Mof_C 	C 	0.8113	0.6239	0.61544	0.527
Mof_C 	C 	0.8293	0.5704	0.6278	-0.991
Mof_H 	H 	0.8307	0.5431	0.6132	0.318
Mof_H 	H 	0.8037	0.5592	0.6421	0.291
Mof_H 	H 	0.8651	0.5746	0.6361	0.267
Mof_C 	C 	0.8514	0.6457	0.593	-0.946
Mof_H 	H 	0.854	0.6199	0.5777	0.301
Mof_H 	H 	0.887	0.6507	0.6013	0.258
Mof_H 	H 	0.8383	0.6802	0.5858	0.28
Mof_C 	C 	0.7495	0.5909	0.5765	0.398
Mof_C 	C 	0.9747	0.8359	0.83006	-0.298
Mof_H 	H 	0.9452	0.8177	0.8406	0.109
Mof_C 	C 	0.9514	0.859	0.80293	0.512
Mof_C 	C 	0.8964	0.8858	0.8075	-0.966
Mof_H 	H 	0.9006	0.9171	0.8196	0.316
Mof_H 	H 	0.8717	0.86	0.8161	0.283
Mof_H 	H 	0.8817	0.8974	0.7896	0.266
Mof_C 	C 	0.9913	0.899	0.78805	-0.912
Mof_H 	H 	0.9965	0.9309	0.7997	0.277
Mof_H 	H 	0.9762	0.9098	0.7702	0.247
Mof_H 	H 	0.0259	0.8811	0.7851	0.262
Mof_C 	C 	0.0003	0.8835	0.84916	0.358
Mof_C 	C 	0.0786	0.6486	0.79301	-0.347
Mof_H 	H 	0.1026	0.6584	0.7772	0.123
Mof_C 	C 	0.0251	0.6201	0.78109	0.595
Mof_C 	C 	0.993	0.5964	0.8052	-1.074
Mof_H 	H 	0.0131	0.5665	0.8134	0.331
Mof_H 	H 	0.9582	0.5834	0.7984	0.299
Mof_H 	H 	0.9871	0.6243	0.8192	0.321
Mof_C 	C 	0.0388	0.5807	0.75778	-1.073
Mof_H 	H 	0.059	0.5503	0.7654	0.338
Mof_H 	H 	0.0607	0.5991	0.7438	0.311
Mof_H 	H 	0.0056	0.5677	0.7492	0.297
Mof_C 	C 	0.1106	0.6087	0.8135	0.479
Mof_C 	C 	0.7617	0.6832	0.82789	-0.318
Mof_H 	H 	0.7586	0.723	0.8255	0.1
Mof_C 	C 	0.818	0.6658	0.81604	0.527
Mof_C 	C 	0.8278	0.6033	0.8193	-0.939
Mof_H 	H 	0.8314	0.5944	0.8389	0.287
Mof_H 	H 	0.8608	0.5932	0.8095	0.256
Mof_H 	H 	0.7973	0.5836	0.8114	0.274
Mof_C 	C 	0.865	0.6972	0.82814	-1.002
Mof_H 	H 	0.8686	0.6888	0.8479	0.326
Mof_H 	H 	0.8585	0.7358	0.8259	0.294
Mof_H 	H 	0.8982	0.6873	0.8184	0.277
Mof_C 	C 	0.7547	0.6707	0.8593	0.384
Mof_C 	C 	0.6389	0.6203	0.7365	-0.275
Mof_H 	H 	0.6561	0.5859	0.7305	0.105
Mof_C 	C 	0.6564	0.6665	0.7169	0.461
Mof_C 	C 	0.6266	0.7233	0.7239	-0.824
Mof_H 	H 	0.5883	0.7205	0.7194	0.268
Mof_H 	H 	0.6429	0.7521	0.7129	0.225
Mof_H 	H 	0.6308	0.7314	0.7437	0.237
Mof_C 	C 	0.5735	0.6141	0.7358	0.33
Mof_C 	C 	0.6515	0.6547	0.6859	-0.919
Mof_H 	H 	0.6135	0.6502	0.681	0.305
Mof_H 	H 	0.6712	0.6217	0.6815	0.274
Mof_H 	H 	0.6666	0.6848	0.6753	0.253
Mof_C 	C 	0.1255	0.7993	0.68707	-0.362
Mof_H 	H 	0.127	0.7599	0.683	0.132
Mof_C 	C 	0.0871	0.8075	0.71115	0.618
Mof_C 	C 	0.0839	0.8678	0.71898	-1.056
Mof_H 	H 	0.1188	0.8798	0.7261	0.315
Mof_H 	H 	0.0563	0.8729	0.7332	0.288
Mof_H 	H 	0.0745	0.8889	0.7025	0.31
Mof_C 	C 	0.1014	0.7754	0.73699	-1.118
Mof_H 	H 	0.1365	0.7871	0.7439	0.36
Mof_H 	H 	0.1029	0.7371	0.7324	0.334
Mof_H 	H 	0.0741	0.7815	0.7512	0.307
Mof_C 	C 	0.1857	0.8194	0.69295	0.397
Mof_C 	C 	0.9872	0.8505	0.59913	-0.355
Mof_H 	H 	0.9668	0.8833	0.6049	0.126
Mof_C 	C 	0.9503	0.8009	0.60402	0.628
Mof_C 	C 	0.9759	0.7506	0.5924	-1.138
Mof_H 	H 	0.9791	0.754	0.5722	0.352
Mof_H 	H 	0.9535	0.7194	0.5969	0.317
Mof_H 	H 	0.0117	0.7459	0.6004	0.34
Mof_C 	C 	0.8927	0.8105	0.5924	-1.085
Mof_H 	H 	0.8945	0.8143	0.5722	0.353
Mof_H 	H 	0.8778	0.8434	0.6004	0.32
Mof_H 	H 	0.8697	0.7799	0.5971	0.304
Mof_C 	C 	0.0043	0.8582	0.5689	0.365
Mof_O 	O 	0.0863	0.6684	0.9145	-0.374
Mof_C 	C 	0.0623	0.6348	0.9373	0.381
Mof_C 	C 	0.0286	0.6662	0.9636	-0.716
Mof_H 	H 	0.038	0.6493	0.9813	0.22
Mof_H 	H 	0.9898	0.6631	0.9605	0.239
Mof_H 	H 	0.0387	0.7043	0.9641	0.24
Mof_La	La	0.87847	0.41852	0.38724	1.728
Mof_Ag	Ag	0.20674	0.3703	0.19115	0.45
Mof_Ag	Ag	0.10745	0.35251	0.24987	0.411
Mof_Ag	Ag	0.00353	0.31087	0.21287	0.43
Mof_Ag	Ag	0.09285	0.29808	0.15645	0.411
Mof_Ag	Ag	0.23702	0.23242	0.21055	0.413
Mof_Ag	Ag	0.15584	0.22204	0.26866	0.43
Mof_Ag	Ag	0.05688	0.17482	0.22745	0.397
Mof_Ag	Ag	0.1397	0.1603	0.16268	0.457
Mof_Ni	Ni	0.06512	0.45578	0.18659	1.042
Mof_Ni	Ni	0.18774	0.07376	0.23227	1.044
Mof_Ni	Ni	0.24759	0.26447	0.1271	1.045
Mof_Ni	Ni	0.99593	0.25707	0.29525	1.048
Mof_Ni	Ni	0.27355	0.33905	0.27076	1.048
Mof_Ni	Ni	0.97307	0.18444	0.15471	1.052
Mof_S 	S 	0.12913	0.4239	0.21366	-0.61
Mof_S 	S 	0.0334	0.37577	0.17521	-0.62
Mof_S 	S 	0.21651	0.15451	0.24471	-0.607
Mof_S 	S 	0.12083	0.10465	0.20655	-0.625
Mof_S 	S 	0.23224	0.20376	0.15944	-0.618
Mof_S 	S 	0.19066	0.32401	0.14416	-0.605
Mof_S 	S 	0.05738	0.20134	0.2794	-0.603
Mof_S 	S 	0.01334	0.32247	0.2654	-0.622
Mof_S 	S 	0.18855	0.31729	0.27777	-0.608
Mof_S 	S 	0.27081	0.32451	0.22583	-0.597
Mof_S 	S 	0.98045	0.21435	0.19756	-0.626
Mof_S 	S 	0.05595	0.2059	0.14264	-0.632
Mof_O 	O 	0.1148	0.6169	0.223	-0.258
Mof_O 	O 	0.1996	0.607	0.2248	-0.307
Mof_O 	O 	0.8681	0.4558	0.14161	-0.338
Mof_O 	O 	0.9278	0.5214	0.13042	-0.482
Mof_O 	O 	0.324	0.013	0.29194	-0.281
Mof_O 	O 	0.3125	0.0812	0.3227	-0.516
Mof_O 	O 	0.1094	0.9109	0.2115	-0.229
Mof_O 	O 	0.1005	0.9286	0.163	-0.264
Mof_O 	O 	0.3416	0.0711	0.1097	-0.322
Mof_O 	O 	0.3865	0.1494	0.10441	-0.293
Mof_O 	O 	0.255	0.3846	0.0542	-0.247
Mof_O 	O 	0.2508	0.4589	0.0777	-0.317
Mof_O 	O 	0.9498	0.1114	0.3496	-0.269
Mof_O 	O 	0.0349	0.0894	0.3625	-0.274
Mof_O 	O 	0.8915	0.3815	0.33878	-0.508
Mof_O 	O 	0.8675	0.431	0.30245	-0.378
Mof_O 	O 	0.2233	0.2968	0.37615	-0.291
Mof_O 	O 	0.267	0.3744	0.36482	-0.296
Mof_O 	O 	0.4539	0.3709	0.2567	-0.226
Mof_O 	O 	0.4444	0.4108	0.2138	-0.243
Mof_O 	O 	0.7986	0.1371	0.18429	-0.286
Mof_O 	O 	0.7866	0.2157	0.20622	-0.287
Mof_O 	O 	0.9485	0.1595	0.06093	-0.252
Mof_O 	O 	0.0308	0.1212	0.05239	-0.264
Mof_O 	O 	0.9333	0.4129	0.43706	-0.421
Mof_N 	N 	0.0934	0.5286	0.19434	-0.192
Mof_N 	N 	0.0055	0.4876	0.16503	-0.214
Mof_N 	N 	0.239	0.0435	0.25947	-0.194
Mof_N 	N 	0.1707	0.0008	0.21856	-0.182
Mof_N 	N 	0.2972	0.2127	0.10988	-0.198
Mof_N 	N 	0.2657	0.3169	0.09837	-0.2
Mof_N 	N 	0.9812	0.2042	0.32435	-0.191
Mof_N 	N 	0.9359	0.3007	0.30904	-0.191
Mof_N 	N 	0.2833	0.3424	0.31148	-0.186
Mof_N 	N 	0.3462	0.3676	0.26635	-0.193
Mof_N 	N 	0.8966	0.1724	0.16133	-0.172
Mof_N 	N 	0.9629	0.1535	0.11743	-0.175
Mof_C 	C 	0.1475	0.5314	0.2072	-0.331
Mof_H 	H 	0.1757	0.5246	0.1929	0.124
Mof_C 	C 	0.1522	0.4888	0.23084	0.529
Mof_C 	C 	0.2114	0.4805	0.2415	-0.955
Mof_H 	H 	0.224	0.5135	0.2504	0.309
Mof_H 	H 	0.2349	0.4719	0.2258	0.282
Mof_H 	H 	0.2122	0.4508	0.2548	0.265
Mof_C 	C 	0.1156	0.5016	0.2555	-0.994
Mof_H 	H 	0.1276	0.535	0.2643	0.313
Mof_H 	H 	0.1173	0.4721	0.2689	0.275
Mof_H 	H 	0.0785	0.5059	0.249	0.29
Mof_C 	C 	0.1559	0.5892	0.2203	0.423
Mof_C 	C 	0.9577	0.4511	0.16188	-0.355
Mof_H 	H 	0.9416	0.4457	0.1807	0.108
Mof_C 	C 	0.9766	0.3948	0.15105	0.577
Mof_C 	C 	0.9983	0.3985	0.12104	-1.014
Mof_H 	H 	0.9689	0.4084	0.1085	0.304
Mof_H 	H 	0.013	0.3636	0.1155	0.28
Mof_H 	H 	0.0266	0.4258	0.1201	0.295
Mof_C 	C 	0.9338	0.3506	0.1529	-1.063
Mof_H 	H 	0.9038	0.3595	0.1406	0.343
Mof_H 	H 	0.9208	0.348	0.172	0.316
Mof_H 	H 	0.9496	0.3162	0.1473	0.303
Mof_C 	C 	0.9135	0.4781	0.1428	0.447
Mof_C 	C 	0.2557	0.0819	0.28062	-0.314
Mof_H 	H 	0.2236	0.0898	0.2924	0.091
Mof_C 	C 	0.275	0.1359	0.26792	0.523
Mof_C 	C 	0.3258	0.1283	0.24937	-0.985
Mof_H 	H 	0.3566	0.1187	0.261	0.316
Mof_H 	H 	0.3335	0.1619	0.2396	0.279
Mof_H 	H 	0.3192	0.0996	0.2359	0.295
Mof_C 	C 	0.2815	0.1813	0.28976	-0.941
Mof_H 	H 	0.3116	0.1726	0.3021	0.303
Mof_H 	H 	0.2484	0.1844	0.3006	0.271
Mof_H 	H 	0.2887	0.2154	0.2803	0.255
Mof_C 	C 	0.302	0.0564	0.3008	0.429
Mof_C 	C 	0.1323	0.0004	0.1937	-0.353
Mof_H 	H 	0.153	0.0118	0.177	0.129
Mof_C 	C 	0.0859	0.0392	0.19753	0.633
Mof_C 	C 	0.0518	0.048	0.17176	-1.132
Mof_H 	H 	0.0332	0.0145	0.167	0.367
Mof_H 	H 	0.0749	0.0588	0.1563	0.335
Mof_H 	H 	0.0252	0.0762	0.1753	0.316
Mof_C 	C 	0.0507	0.0243	0.2228	-1.095
Mof_H 	H 	0.0316	0.9907	0.2191	0.34
Mof_H 	H 	0.0247	0.0531	0.2263	0.303
Mof_H 	H 	0.0737	0.0197	0.2391	0.323
Mof_C 	C 	0.1136	0.9397	0.1892	0.344
Mof_C 	C 	0.2941	0.1547	0.11968	-0.335
Mof_H 	H 	0.2618	0.1377	0.1109	0.114
Mof_C 	C 	0.2865	0.1532	0.15141	0.546
Mof_C 	C 	0.2679	0.0986	0.1635	-0.99
Mof_H 	H 	0.2952	0.0712	0.1597	0.321
Mof_H 	H 	0.2338	0.0881	0.1549	0.291
Mof_H 	H 	0.2628	0.1021	0.1835	0.275
Mof_C 	C 	0.3389	0.1702	0.1664	-0.973
Mof_H 	H 	0.3674	0.144	0.1624	0.3
Mof_H 	H 	0.3326	0.1714	0.1864	0.272
Mof_H 	H 	0.35	0.2058	0.1599	0.286
Mof_C 	C 	0.3454	0.1225	0.1101	0.393
Mof_C 	C 	0.2486	0.375	0.1043	-0.316
Mof_H 	H 	0.2732	0.3913	0.1184	0.11
Mof_C 	C 	0.1887	0.3761	0.11544	0.527
Mof_C 	C 	0.1707	0.4296	0.1278	-0.991
Mof_H 	H 	0.1693	0.4569	0.1132	0.318
Mof_H 	H 	0.1963	0.4408	0.1421	0.291
Mof_H 	H 	0.1349	0.4254	0.1361	0.267
Mof_C 	C 	0.1486	0.3543	0.093	-0.946
Mof_H 	H 	0.146	0.3801	0.0777	0.301
Mof_H 	H 	0.113	0.3493	0.1013	0.258
Mof_H 	H 	0.1617	0.3198	0.0858	0.28
Mof_C 	C 	0.2505	0.4091	0.0765	0.398
Mof_C 	C 	0.0253	0.1641	0.33006	-0.298
Mof_H 	H 	0.0548	0.1823	0.3406	0.109
Mof_C 	C 	0.0486	0.141	0.30293	0.512
Mof_C 	C 	0.1036	0.1142	0.3075	-0.966
Mof_H 	H 	0.0994	0.0829	0.3196	0.316
Mof_H 	H 	0.1283	0.14	0.3161	0.283
Mof_H 	H 	0.1183	0.1026	0.2896	0.266
Mof_C 	C 	0.0087	0.101	0.28805	-0.912
Mof_H 	H 	0.0035	0.0691	0.2997	0.277
Mof_H 	H 	0.0238	0.0902	0.2702	0.247
Mof_H 	H 	0.9741	0.1189	0.2851	0.262
Mof_C 	C 	0.9997	0.1165	0.34916	0.358
Mof_C 	C 	0.9214	0.3514	0.29301	-0.347
Mof_H 	H 	0.8974	0.3416	0.2772	0.123
Mof_C 	C 	0.9749	0.3799	0.28109	0.595
Mof_C 	C 	0.007	0.4036	0.3052	-1.075
Mof_H 	H 	0.9869	0.4335	0.3134	0.331
Mof_H 	H 	0.0418	0.4166	0.2984	0.299
Mof_H 	H 	0.0129	0.3757	0.3192	0.321
Mof_C 	C 	0.9612	0.4193	0.25778	-1.073
Mof_H 	H 	0.941	0.4497	0.2654	0.338
Mof_H 	H 	0.9393	0.4009	0.2438	0.311
Mof_H 	H 	0.9944	0.4323	0.2492	0.297
Mof_C 	C 	0.8894	0.3913	0.3135	0.479
Mof_C 	C 	0.2383	0.3168	0.32789	-0.318
Mof_H 	H 	0.2414	0.277	0.3255	0.1
Mof_C 	C 	0.182	0.3342	0.31604	0.527
Mof_C 	C 	0.1722	0.3967	0.3193	-0.939
Mof_H 	H 	0.1686	0.4056	0.3389	0.287
Mof_H 	H 	0.1392	0.4068	0.3095	0.256
Mof_H 	H 	0.2027	0.4164	0.3114	0.274
Mof_C 	C 	0.135	0.3028	0.32814	-1.002
Mof_H 	H 	0.1314	0.3112	0.3479	0.326
Mof_H 	H 	0.1415	0.2642	0.3259	0.294
Mof_H 	H 	0.1018	0.3127	0.3184	0.277
Mof_C 	C 	0.2453	0.3293	0.3593	0.384
Mof_C 	C 	0.3611	0.3797	0.2365	-0.275
Mof_H 	H 	0.3439	0.4141	0.2305	0.105
Mof_C 	C 	0.3436	0.3335	0.2169	0.461
Mof_C 	C 	0.3734	0.2767	0.2239	-0.824
Mof_H 	H 	0.4117	0.2795	0.2194	0.268
Mof_H 	H 	0.3571	0.2479	0.2129	0.225
Mof_H 	H 	0.3692	0.2686	0.2437	0.237
Mof_C 	C 	0.4265	0.3859	0.2358	0.33
Mof_C 	C 	0.3485	0.3453	0.1859	-0.919
Mof_H 	H 	0.3865	0.3498	0.181	0.305
Mof_H 	H 	0.3288	0.3783	0.1815	0.274
Mof_H 	H 	0.3334	0.3152	0.1753	0.253
Mof_C 	C 	0.8745	0.2007	0.18707	-0.362
Mof_H 	H 	0.873	0.2401	0.183	0.132
Mof_C 	C 	0.9129	0.1925	0.21115	0.618
Mof_C 	C 	0.9161	0.1322	0.21898	-1.056
Mof_H 	H 	0.8812	0.1202	0.2261	0.315
Mof_H 	H 	0.9437	0.1271	0.2332	0.288
Mof_H 	H 	0.9255	0.1111	0.2025	0.31
Mof_C 	C 	0.8986	0.2246	0.23699	-1.118
Mof_H 	H 	0.8635	0.2129	0.2439	0.36
Mof_H 	H 	0.8971	0.2629	0.2324	0.334
Mof_H 	H 	0.9259	0.2185	0.2512	0.307
Mof_C 	C 	0.8143	0.1806	0.19295	0.397
Mof_C 	C 	0.0128	0.1495	0.09913	-0.355
Mof_H 	H 	0.0332	0.1167	0.1049	0.126
Mof_C 	C 	0.0497	0.1991	0.10402	0.628
Mof_C 	C 	0.0241	0.2494	0.0924	-1.138
Mof_H 	H 	0.0209	0.246	0.0722	0.352
Mof_H 	H 	0.0465	0.2806	0.0969	0.317
Mof_H 	H 	0.9883	0.2541	0.1004	0.34
Mof_C 	C 	0.1073	0.1895	0.0924	-1.085
Mof_H 	H 	0.1055	0.1857	0.0722	0.353
Mof_H 	H 	0.1222	0.1566	0.1004	0.32
Mof_H 	H 	0.1303	0.2201	0.0971	0.304
Mof_C 	C 	0.9957	0.1418	0.0689	0.365
Mof_O 	O 	0.9137	0.3316	0.4145	-0.374
Mof_C 	C 	0.9377	0.3652	0.4373	0.381
Mof_C 	C 	0.9714	0.3338	0.4636	-0.715
Mof_H 	H 	0.962	0.3507	0.4813	0.22
Mof_H 	H 	0.0102	0.3369	0.4605	0.239
Mof_H 	H 	0.9613	0.2957	0.4641	0.24
Mof_La	La	0.41852	0.87847	0.61276	1.728
Mof_Ag	Ag	0.3703	0.20674	0.80885	0.45
Mof_Ag	Ag	0.35251	0.10745	0.75013	0.411
Mof_Ag	Ag	0.31087	0.00353	0.78713	0.43
Mof_Ag	Ag	0.29808	0.09285	0.84355	0.411
Mof_Ag	Ag	0.23242	0.23702	0.78945	0.413
Mof_Ag	Ag	0.22204	0.15584	0.73134	0.43
Mof_Ag	Ag	0.17482	0.05688	0.77255	0.397
Mof_Ag	Ag	0.1603	0.1397	0.83732	0.457
Mof_Ni	Ni	0.45578	0.06512	0.81341	1.042
Mof_Ni	Ni	0.07376	0.18774	0.76773	1.044
Mof_Ni	Ni	0.26447	0.24759	0.8729	1.045
Mof_Ni	Ni	0.25707	0.99593	0.70475	1.048
Mof_Ni	Ni	0.33905	0.27355	0.72924	1.048
Mof_Ni	Ni	0.18444	0.97307	0.84529	1.052
Mof_S 	S 	0.4239	0.12913	0.78634	-0.61
Mof_S 	S 	0.37577	0.0334	0.82479	-0.62
Mof_S 	S 	0.15451	0.21651	0.75529	-0.607
Mof_S 	S 	0.10465	0.12083	0.79345	-0.625
Mof_S 	S 	0.20376	0.23224	0.84056	-0.618
Mof_S 	S 	0.32401	0.19066	0.85584	-0.605
Mof_S 	S 	0.20134	0.05738	0.7206	-0.603
Mof_S 	S 	0.32247	0.01334	0.7346	-0.622
Mof_S 	S 	0.31729	0.18855	0.72223	-0.608
Mof_S 	S 	0.32451	0.27081	0.77417	-0.597
Mof_S 	S 	0.21435	0.98045	0.80244	-0.626
Mof_S 	S 	0.2059	0.05595	0.85736	-0.632
Mof_O 	O 	0.6169	0.1148	0.777	-0.258
Mof_O 	O 	0.607	0.1996	0.7752	-0.307
Mof_O 	O 	0.4558	0.8681	0.85839	-0.338
Mof_O 	O 	0.5214	0.9278	0.86958	-0.482
Mof_O 	O 	0.013	0.324	0.70806	-0.281
Mof_O 	O 	0.0812	0.3125	0.6773	-0.516
Mof_O 	O 	0.9109	0.1094	0.7885	-0.229
Mof_O 	O 	0.9286	0.1005	0.837	-0.264
Mof_O 	O 	0.0711	0.3416	0.8903	-0.322
Mof_O 	O 	0.1494	0.3865	0.89559	-0.293
Mof_O 	O 	0.3846	0.255	0.9458	-0.247
Mof_O 	O 	0.4589	0.2508	0.9223	-0.317
Mof_O 	O 	0.1114	0.9498	0.6504	-0.269
Mof_O 	O 	0.0894	0.0349	0.6375	-0.274
Mof_O 	O 	0.3815	0.8915	0.66122	-0.508
Mof_O 	O 	0.431	0.8675	0.69755	-0.378
Mof_O 	O 	0.2968	0.2233	0.62385	-0.291
Mof_O 	O 	0.3744	0.267	0.63518	-0.296
Mof_O 	O 	0.3709	0.4539	0.7433	-0.226
Mof_O 	O 	0.4108	0.4444	0.7862	-0.243
Mof_O 	O 	0.1371	0.7986	0.81571	-0.286
Mof_O 	O 	0.2157	0.7866	0.79378	-0.287
Mof_O 	O 	0.1595	0.9485	0.93907	-0.252
Mof_O 	O 	0.1212	0.0308	0.94761	-0.264
Mof_O 	O 	0.4129	0.9333	0.56294	-0.421
Mof_N 	N 	0.5286	0.0934	0.80566	-0.192
Mof_N 	N 	0.4876	0.0055	0.83497	-0.214
Mof_N 	N 	0.0435	0.239	0.74053	-0.194
Mof_N 	N 	0.0008	0.1707	0.78144	-0.182
Mof_N 	N 	0.2127	0.2972	0.89012	-0.198
Mof_N 	N 	0.3169	0.2657	0.90163	-0.2
Mof_N 	N 	0.2042	0.9812	0.67565	-0.191
Mof_N 	N 	0.3007	0.9359	0.69096	-0.191
Mof_N 	N 	0.3424	0.2833	0.68852	-0.186
Mof_N 	N 	0.3676	0.3462	0.73365	-0.193
Mof_N 	N 	0.1724	0.8966	0.83867	-0.172
Mof_N 	N 	0.1535	0.9629	0.88257	-0.175
Mof_C 	C 	0.5314	0.1475	0.7928	-0.331
Mof_H 	H 	0.5246	0.1757	0.8071	0.124
Mof_C 	C 	0.4888	0.1522	0.76916	0.529
Mof_C 	C 	0.4805	0.2114	0.7585	-0.955
Mof_H 	H 	0.5135	0.224	0.7496	0.309
Mof_H 	H 	0.4719	0.2349	0.7742	0.282
Mof_H 	H 	0.4508	0.2122	0.7452	0.265
Mof_C 	C 	0.5016	0.1156	0.7445	-0.994
Mof_H 	H 	0.535	0.1276	0.7357	0.313
Mof_H 	H 	0.4721	0.1173	0.7311	0.275
Mof_H 	H 	0.5059	0.0785	0.751	0.29
Mof_C 	C 	0.5892	0.1559	0.7797	0.423
Mof_C 	C 	0.4511	0.9577	0.83812	-0.355
Mof_H 	H 	0.4457	0.9416	0.8193	0.108
Mof_C 	C 	0.3948	0.9766	0.84895	0.577
Mof_C 	C 	0.3985	0.9983	0.87896	-1.014
Mof_H 	H 	0.4084	0.9689	0.8915	0.304
Mof_H 	H 	0.3636	0.013	0.8845	0.28
Mof_H 	H 	0.4258	0.0266	0.8799	0.295
Mof_C 	C 	0.3506	0.9338	0.8471	-1.063
Mof_H 	H 	0.3595	0.9038	0.8594	0.343
Mof_H 	H 	0.348	0.9208	0.828	0.316
Mof_H 	H 	0.3162	0.9496	0.8527	0.303
Mof_C 	C 	0.4781	0.9135	0.8572	0.447
Mof_C 	C 	0.0819	0.2557	0.71938	-0.314
Mof_H 	H 	0.0898	0.2236	0.7076	0.091
Mof_C 	C 	0.1359	0.275	0.73208	0.523
Mof_C 	C 	0.1283	0.3258	0.75063	-0.985
Mof_H 	H 	0.1187	0.3566	0.739	0.316
Mof_H 	H 	0.1619	0.3335	0.7604	0.279
Mof_H 	H 	0.0996	0.3192	0.7641	0.295
Mof_C 	C 	0.1813	0.2815	0.71024	-0.941
Mof_H 	H 	0.1726	0.3116	0.6979	0.303
Mof_H 	H 	0.1844	0.2484	0.6994	0.271
Mof_H 	H 	0.2154	0.2887	0.7197	0.255
Mof_C 	C 	0.0564	0.302	0.6992	0.429
Mof_C 	C 	0.0004	0.1323	0.8063	-0.353
Mof_H 	H 	0.0118	0.153	0.823	0.129
Mof_C 	C 	0.0392	0.0859	0.80247	0.633
Mof_C 	C 	0.048	0.0518	0.82824	-1.132
Mof_H 	H 	0.0145	0.0332	0.833	0.367
Mof_H 	H 	0.0588	0.0749	0.8437	0.335
Mof_H 	H 	0.0762	0.0252	0.8247	0.316
Mof_C 	C 	0.0243	0.0507	0.7772	-1.095
Mof_H 	H 	0.9907	0.0316	0.7809	0.34
Mof_H 	H 	0.0531	0.0247	0.7737	0.303
Mof_H 	H 	0.0197	0.0737	0.7609	0.323
Mof_C 	C 	0.9397	0.1136	0.8108	0.344
Mof_C 	C 	0.1547	0.2941	0.88032	-0.335
Mof_H 	H 	0.1377	0.2618	0.8891	0.114
Mof_C 	C 	0.1532	0.2865	0.84859	0.546
Mof_C 	C 	0.0986	0.2679	0.8365	-0.99
Mof_H 	H 	0.0712	0.2952	0.8403	0.321
Mof_H 	H 	0.0881	0.2338	0.8451	0.291
Mof_H 	H 	0.1021	0.2628	0.8165	0.275
Mof_C 	C 	0.1702	0.3389	0.8336	-0.973
Mof_H 	H 	0.144	0.3674	0.8376	0.3
Mof_H 	H 	0.1714	0.3326	0.8136	0.272
Mof_H 	H 	0.2058	0.35	0.8401	0.286
Mof_C 	C 	0.1225	0.3454	0.8899	0.393
Mof_C 	C 	0.375	0.2486	0.8957	-0.316
Mof_H 	H 	0.3913	0.2732	0.8816	0.11
Mof_C 	C 	0.3761	0.1887	0.88456	0.527
Mof_C 	C 	0.4296	0.1707	0.8722	-0.991
Mof_H 	H 	0.4569	0.1693	0.8868	0.318
Mof_H 	H 	0.4408	0.1963	0.8579	0.291
Mof_H 	H 	0.4254	0.1349	0.8639	0.267
Mof_C 	C 	0.3543	0.1486	0.907	-0.946
Mof_H 	H 	0.3801	0.146	0.9223	0.301
Mof_H 	H 	0.3493	0.113	0.8987	0.258
Mof_H 	H 	0.3198	0.1617	0.9142	0.28
Mof_C 	C 	0.4091	0.2505	0.9235	0.398
Mof_C 	C 	0.1641	0.0253	0.66994	-0.298
Mof_H 	H 	0.1823	0.0548	0.6594	0.109
Mof_C 	C 	0.141	0.0486	0.69707	0.512
Mof_C 	C 	0.1142	0.1036	0.6925	-0.966
Mof_H 	H 	0.0829	0.0994	0.6804	0.316
Mof_H 	H 	0.14	0.1283	0.6839	0.283
Mof_H 	H 	0.1026	0.1183	0.7104	0.266
Mof_C 	C 	0.101	0.0087	0.71195	-0.912
Mof_H 	H 	0.0691	0.0035	0.7003	0.277
Mof_H 	H 	0.0902	0.0238	0.7298	0.247
Mof_H 	H 	0.1189	0.9741	0.7149	0.262
Mof_C 	C 	0.1165	0.9997	0.65084	0.358
Mof_C 	C 	0.3514	0.9214	0.70699	-0.347
Mof_H 	H 	0.3416	0.8974	0.7228	0.123
Mof_C 	C 	0.3799	0.9749	0.71891	0.595
Mof_C 	C 	0.4036	0.007	0.6948	-1.075
Mof_H 	H 	0.4335	0.9869	0.6866	0.331
Mof_H 	H 	0.4166	0.0418	0.7016	0.299
Mof_H 	H 	0.3757	0.0129	0.6808	0.321
Mof_C 	C 	0.4193	0.9612	0.74222	-1.073
Mof_H 	H 	0.4497	0.941	0.7346	0.338
Mof_H 	H 	0.4009	0.9393	0.7562	0.311
Mof_H 	H 	0.4323	0.9944	0.7508	0.297
Mof_C 	C 	0.3913	0.8894	0.6865	0.479
Mof_C 	C 	0.3168	0.2383	0.67211	-0.318
Mof_H 	H 	0.277	0.2414	0.6745	0.1
Mof_C 	C 	0.3342	0.182	0.68396	0.527
Mof_C 	C 	0.3967	0.1722	0.6807	-0.939
Mof_H 	H 	0.4056	0.1686	0.6611	0.287
Mof_H 	H 	0.4068	0.1392	0.6905	0.256
Mof_H 	H 	0.4164	0.2027	0.6886	0.274
Mof_C 	C 	0.3028	0.135	0.67186	-1.002
Mof_H 	H 	0.3112	0.1314	0.6521	0.326
Mof_H 	H 	0.2642	0.1415	0.6741	0.294
Mof_H 	H 	0.3127	0.1018	0.6816	0.277
Mof_C 	C 	0.3293	0.2453	0.6407	0.384
Mof_C 	C 	0.3797	0.3611	0.7635	-0.275
Mof_H 	H 	0.4141	0.3439	0.7695	0.105
Mof_C 	C 	0.3335	0.3436	0.7831	0.461
Mof_C 	C 	0.2767	0.3734	0.7761	-0.824
Mof_H 	H 	0.2795	0.4117	0.7806	0.268
Mof_H 	H 	0.2479	0.3571	0.7871	0.225
Mof_H 	H 	0.2686	0.3692	0.7563	0.237
Mof_C 	C 	0.3859	0.4265	0.7642	0.33
Mof_C 	C 	0.3453	0.3485	0.8141	-0.919
Mof_H 	H 	0.3498	0.3865	0.819	0.305
Mof_H 	H 	0.3783	0.3288	0.8185	0.274
Mof_H 	H 	0.3152	0.3334	0.8247	0.253
Mof_C 	C 	0.2007	0.8745	0.81293	-0.362
Mof_H 	H 	0.2401	0.873	0.817	0.132
Mof_C 	C 	0.1925	0.9129	0.78885	0.618
Mof_C 	C 	0.1322	0.9161	0.78102	-1.056
Mof_H 	H 	0.1202	0.8812	0.7739	0.315
Mof_H 	H 	0.1271	0.9437	0.7668	0.288
Mof_H 	H 	0.1111	0.9255	0.7975	0.31
Mof_C 	C 	0.2246	0.8986	0.76301	-1.118
Mof_H 	H 	0.2129	0.8635	0.7561	0.36
Mof_H 	H 	0.2629	0.8971	0.7676	0.334
Mof_H 	H 	0.2185	0.9259	0.7488	0.307
Mof_C 	C 	0.1806	0.8143	0.80705	0.397
Mof_C 	C 	0.1495	0.0128	0.90087	-0.355
Mof_H 	H 	0.1167	0.0332	0.8951	0.126
Mof_C 	C 	0.1991	0.0497	0.89598	0.628
Mof_C 	C 	0.2494	0.0241	0.9076	-1.138
Mof_H 	H 	0.246	0.0209	0.9278	0.352
Mof_H 	H 	0.2806	0.0465	0.9031	0.317
Mof_H 	H 	0.2541	0.9883	0.8996	0.34
Mof_C 	C 	0.1895	0.1073	0.9076	-1.085
Mof_H 	H 	0.1857	0.1055	0.9278	0.353
Mof_H 	H 	0.1566	0.1222	0.8996	0.32
Mof_H 	H 	0.2201	0.1303	0.9029	0.304
Mof_C 	C 	0.1418	0.9957	0.9311	0.365
Mof_O 	O 	0.3316	0.9137	0.5855	-0.374
Mof_C 	C 	0.3652	0.9377	0.5627	0.381
Mof_C 	C 	0.3338	0.9714	0.5364	-0.715
Mof_H 	H 	0.3507	0.962	0.5187	0.22
Mof_H 	H 	0.3369	0.0102	0.5395	0.239
Mof_H 	H 	0.2957	0.9613	0.5359	0.24
Mof_La	La	0.58148	0.12153	0.11276	1.728
Mof_Ag	Ag	0.6297	0.79326	0.30885	0.45
Mof_Ag	Ag	0.64749	0.89255	0.25013	0.411
Mof_Ag	Ag	0.68913	0.99647	0.28713	0.43
Mof_Ag	Ag	0.70192	0.90715	0.34355	0.411
Mof_Ag	Ag	0.76758	0.76298	0.28945	0.413
Mof_Ag	Ag	0.77796	0.84416	0.23134	0.43
Mof_Ag	Ag	0.82518	0.94312	0.27255	0.397
Mof_Ag	Ag	0.8397	0.8603	0.33732	0.457
Mof_Ni	Ni	0.54422	0.93488	0.31341	1.042
Mof_Ni	Ni	0.92624	0.81226	0.26773	1.044
Mof_Ni	Ni	0.73553	0.75241	0.3729	1.045
Mof_Ni	Ni	0.74293	0.00407	0.20475	1.048
Mof_Ni	Ni	0.66095	0.72645	0.22924	1.048
Mof_Ni	Ni	0.81556	0.02693	0.34529	1.052
Mof_S 	S 	0.5761	0.87087	0.28634	-0.61
Mof_S 	S 	0.62423	0.9666	0.32479	-0.62
Mof_S 	S 	0.84549	0.78349	0.25529	-0.607
Mof_S 	S 	0.89535	0.87917	0.29345	-0.625
Mof_S 	S 	0.79624	0.76776	0.34056	-0.618
Mof_S 	S 	0.67599	0.80934	0.35584	-0.605
Mof_S 	S 	0.79866	0.94262	0.2206	-0.603
Mof_S 	S 	0.67753	0.98666	0.2346	-0.622
Mof_S 	S 	0.68271	0.81145	0.22223	-0.608
Mof_S 	S 	0.67549	0.72919	0.27417	-0.597
Mof_S 	S 	0.78565	0.01955	0.30244	-0.626
Mof_S 	S 	0.7941	0.94405	0.35736	-0.632
Mof_O 	O 	0.3831	0.8852	0.277	-0.258
Mof_O 	O 	0.393	0.8004	0.2752	-0.307
Mof_O 	O 	0.5442	0.1319	0.35839	-0.338
Mof_O 	O 	0.4786	0.0722	0.36958	-0.482
Mof_O 	O 	0.987	0.676	0.20806	-0.281
Mof_O 	O 	0.9188	0.6875	0.1773	-0.516
Mof_O 	O 	0.0891	0.8906	0.2885	-0.229
Mof_O 	O 	0.0714	0.8995	0.337	-0.264
Mof_O 	O 	0.9289	0.6584	0.3903	-0.322
Mof_O 	O 	0.8506	0.6135	0.39559	-0.293
Mof_O 	O 	0.6154	0.745	0.4458	-0.247
Mof_O 	O 	0.5411	0.7492	0.4223	-0.317
Mof_O 	O 	0.8886	0.0502	0.1504	-0.269
Mof_O 	O 	0.9106	0.9651	0.1375	-0.274
Mof_O 	O 	0.6185	0.1085	0.16122	-0.508
Mof_O 	O 	0.569	0.1325	0.19755	-0.378
Mof_O 	O 	0.7032	0.7767	0.12385	-0.291
Mof_O 	O 	0.6256	0.733	0.13518	-0.296
Mof_O 	O 	0.6291	0.5461	0.2433	-0.226
Mof_O 	O 	0.5892	0.5556	0.2862	-0.243
Mof_O 	O 	0.8629	0.2014	0.31571	-0.286
Mof_O 	O 	0.7843	0.2134	0.29378	-0.287
Mof_O 	O 	0.8405	0.0515	0.43907	-0.252
Mof_O 	O 	0.8788	0.9692	0.44761	-0.264
Mof_O 	O 	0.5871	0.0667	0.06294	-0.421
Mof_N 	N 	0.4714	0.9066	0.30566	-0.192
Mof_N 	N 	0.5124	0.9945	0.33497	-0.214
Mof_N 	N 	0.9565	0.761	0.24053	-0.194
Mof_N 	N 	0.9992	0.8293	0.28144	-0.182
Mof_N 	N 	0.7873	0.7028	0.39012	-0.198
Mof_N 	N 	0.6831	0.7343	0.40163	-0.2
Mof_N 	N 	0.7958	0.0188	0.17565	-0.191
Mof_N 	N 	0.6993	0.0641	0.19096	-0.191
Mof_N 	N 	0.6576	0.7167	0.18852	-0.186
Mof_N 	N 	0.6324	0.6538	0.23365	-0.193
Mof_N 	N 	0.8276	0.1034	0.33867	-0.172
Mof_N 	N 	0.8465	0.0371	0.38257	-0.175
Mof_C 	C 	0.4686	0.8525	0.2928	-0.331
Mof_H 	H 	0.4754	0.8243	0.3071	0.124
Mof_C 	C 	0.5112	0.8478	0.26916	0.529
Mof_C 	C 	0.5195	0.7886	0.2585	-0.955
Mof_H 	H 	0.4865	0.776	0.2496	0.309
Mof_H 	H 	0.5281	0.7651	0.2742	0.282
Mof_H 	H 	0.5492	0.7878	0.2452	0.265
Mof_C 	C 	0.4984	0.8844	0.2445	-0.994
Mof_H 	H 	0.465	0.8724	0.2357	0.313
Mof_H 	H 	0.5279	0.8827	0.2311	0.275
Mof_H 	H 	0.4941	0.9215	0.251	0.29
Mof_C 	C 	0.4108	0.8441	0.2797	0.423
Mof_C 	C 	0.5489	0.0423	0.33812	-0.355
Mof_H 	H 	0.5543	0.0584	0.3193	0.108
Mof_C 	C 	0.6052	0.0234	0.34895	0.577
Mof_C 	C 	0.6015	0.0017	0.37896	-1.014
Mof_H 	H 	0.5916	0.0311	0.3915	0.304
Mof_H 	H 	0.6364	0.987	0.3845	0.28
Mof_H 	H 	0.5742	0.9734	0.3799	0.295
Mof_C 	C 	0.6494	0.0662	0.3471	-1.063
Mof_H 	H 	0.6405	0.0962	0.3594	0.343
Mof_H 	H 	0.652	0.0792	0.328	0.316
Mof_H 	H 	0.6838	0.0504	0.3527	0.303
Mof_C 	C 	0.5219	0.0865	0.3572	0.447
Mof_C 	C 	0.9181	0.7443	0.21938	-0.314
Mof_H 	H 	0.9102	0.7764	0.2076	0.091
Mof_C 	C 	0.8641	0.725	0.23208	0.523
Mof_C 	C 	0.8717	0.6742	0.25063	-0.985
Mof_H 	H 	0.8813	0.6434	0.239	0.316
Mof_H 	H 	0.8381	0.6665	0.2604	0.279
Mof_H 	H 	0.9004	0.6808	0.2641	0.295
Mof_C 	C 	0.8187	0.7185	0.21024	-0.941
Mof_H 	H 	0.8274	0.6884	0.1979	0.303
Mof_H 	H 	0.8156	0.7516	0.1994	0.271
Mof_H 	H 	0.7846	0.7113	0.2197	0.255
Mof_C 	C 	0.9436	0.698	0.1992	0.429
Mof_C 	C 	0.9996	0.8677	0.3063	-0.353
Mof_H 	H 	0.9882	0.847	0.323	0.129
Mof_C 	C 	0.9608	0.9141	0.30247	0.633
Mof_C 	C 	0.952	0.9482	0.32824	-1.132
Mof_H 	H 	0.9855	0.9668	0.333	0.367
Mof_H 	H 	0.9412	0.9251	0.3437	0.335
Mof_H 	H 	0.9238	0.9748	0.3247	0.316
Mof_C 	C 	0.9757	0.9493	0.2772	-1.095
Mof_H 	H 	0.0093	0.9684	0.2809	0.34
Mof_H 	H 	0.9469	0.9753	0.2737	0.303
Mof_H 	H 	0.9803	0.9263	0.2609	0.323
Mof_C 	C 	0.0603	0.8864	0.3108	0.344
Mof_C 	C 	0.8453	0.7059	0.38032	-0.335
Mof_H 	H 	0.8623	0.7382	0.3891	0.114
Mof_C 	C 	0.8468	0.7135	0.34859	0.546
Mof_C 	C 	0.9014	0.7321	0.3365	-0.99
Mof_H 	H 	0.9288	0.7048	0.3403	0.321
Mof_H 	H 	0.9119	0.7662	0.3451	0.291
Mof_H 	H 	0.8979	0.7372	0.3165	0.275
Mof_C 	C 	0.8298	0.6611	0.3336	-0.973
Mof_H 	H 	0.856	0.6326	0.3376	0.3
Mof_H 	H 	0.8286	0.6674	0.3136	0.272
Mof_H 	H 	0.7942	0.65	0.3401	0.286
Mof_C 	C 	0.8775	0.6546	0.3899	0.393
Mof_C 	C 	0.625	0.7514	0.3957	-0.316
Mof_H 	H 	0.6087	0.7268	0.3816	0.11
Mof_C 	C 	0.6239	0.8113	0.38456	0.527
Mof_C 	C 	0.5704	0.8293	0.3722	-0.991
Mof_H 	H 	0.5431	0.8307	0.3868	0.318
Mof_H 	H 	0.5592	0.8037	0.3579	0.291
Mof_H 	H 	0.5746	0.8651	0.3639	0.267
Mof_C 	C 	0.6457	0.8514	0.407	-0.946
Mof_H 	H 	0.6199	0.854	0.4223	0.301
Mof_H 	H 	0.6507	0.887	0.3987	0.258
Mof_H 	H 	0.6802	0.8383	0.4142	0.28
Mof_C 	C 	0.5909	0.7495	0.4235	0.398
Mof_C 	C 	0.8359	0.9747	0.16994	-0.298
Mof_H 	H 	0.8177	0.9452	0.1594	0.109
Mof_C 	C 	0.859	0.9514	0.19707	0.512
Mof_C 	C 	0.8858	0.8964	0.1925	-0.966
Mof_H 	H 	0.9171	0.9006	0.1804	0.316
Mof_H 	H 	0.86	0.8717	0.1839	0.283
Mof_H 	H 	0.8974	0.8817	0.2104	0.266
Mof_C 	C 	0.899	0.9913	0.21195	-0.912
Mof_H 	H 	0.9309	0.9965	0.2003	0.277
Mof_H 	H 	0.9098	0.9762	0.2298	0.247
Mof_H 	H 	0.8811	0.0259	0.2149	0.262
Mof_C 	C 	0.8835	0.0003	0.15084	0.358
Mof_C 	C 	0.6486	0.0786	0.20699	-0.347
Mof_H 	H 	0.6584	0.1026	0.2228	0.123
Mof_C 	C 	0.6201	0.0251	0.21891	0.595
Mof_C 	C 	0.5964	0.993	0.1948	-1.074
Mof_H 	H 	0.5665	0.0131	0.1866	0.331
Mof_H 	H 	0.5834	0.9582	0.2016	0.299
Mof_H 	H 	0.6243	0.9871	0.1808	0.321
Mof_C 	C 	0.5807	0.0388	0.24222	-1.073
Mof_H 	H 	0.5503	0.059	0.2346	0.338
Mof_H 	H 	0.5991	0.0607	0.2562	0.311
Mof_H 	H 	0.5677	0.0056	0.2508	0.297
Mof_C 	C 	0.6087	0.1106	0.1865	0.479
Mof_C 	C 	0.6832	0.7617	0.17211	-0.318
Mof_H 	H 	0.723	0.7586	0.1745	0.1
Mof_C 	C 	0.6658	0.818	0.18396	0.527
Mof_C 	C 	0.6033	0.8278	0.1807	-0.939
Mof_H 	H 	0.5944	0.8314	0.1611	0.287
Mof_H 	H 	0.5932	0.8608	0.1905	0.256
Mof_H 	H 	0.5836	0.7973	0.1886	0.274
Mof_C 	C 	0.6972	0.865	0.17186	-1.002
Mof_H 	H 	0.6888	0.8686	0.1521	0.326
Mof_H 	H 	0.7358	0.8585	0.1741	0.294
Mof_H 	H 	0.6873	0.8982	0.1816	0.277
Mof_C 	C 	0.6707	0.7547	0.1407	0.384
Mof_C 	C 	0.6203	0.6389	0.2635	-0.275
Mof_H 	H 	0.5859	0.6561	0.2695	0.105
Mof_C 	C 	0.6665	0.6564	0.2831	0.461
Mof_C 	C 	0.7233	0.6266	0.2761	-0.824
Mof_H 	H 	0.7205	0.5883	0.2806	0.268
Mof_H 	H 	0.7521	0.6429	0.2871	0.225
Mof_H 	H 	0.7314	0.6308	0.2563	0.237
Mof_C 	C 	0.6141	0.5735	0.2642	0.33
Mof_C 	C 	0.6547	0.6515	0.3141	-0.919
Mof_H 	H 	0.6502	0.6135	0.319	0.305
Mof_H 	H 	0.6217	0.6712	0.3185	0.274
Mof_H 	H 	0.6848	0.6666	0.3247	0.253
Mof_C 	C 	0.7993	0.1255	0.31293	-0.362
Mof_H 	H 	0.7599	0.127	0.317	0.132
Mof_C 	C 	0.8075	0.0871	0.28885	0.618
Mof_C 	C 	0.8678	0.0839	0.28102	-1.056
Mof_H 	H 	0.8798	0.1188	0.2739	0.315
Mof_H 	H 	0.8729	0.0563	0.2668	0.288
Mof_H 	H 	0.8889	0.0745	0.2975	0.31
Mof_C 	C 	0.7754	0.1014	0.26301	-1.118
Mof_H 	H 	0.7871	0.1365	0.2561	0.36
Mof_H 	H 	0.7371	0.1029	0.2676	0.334
Mof_H 	H 	0.7815	0.0741	0.2488	0.307
Mof_C 	C 	0.8194	0.1857	0.30705	0.397
Mof_C 	C 	0.8505	0.9872	0.40087	-0.355
Mof_H 	H 	0.8833	0.9668	0.3951	0.126
Mof_C 	C 	0.8009	0.9503	0.39598	0.628
Mof_C 	C 	0.7506	0.9759	0.4076	-1.138
Mof_H 	H 	0.754	0.9791	0.4278	0.352
Mof_H 	H 	0.7194	0.9535	0.4031	0.317
Mof_H 	H 	0.7459	0.0117	0.3996	0.34
Mof_C 	C 	0.8105	0.8927	0.4076	-1.085
Mof_H 	H 	0.8143	0.8945	0.4278	0.353
Mof_H 	H 	0.8434	0.8778	0.3996	0.32
Mof_H 	H 	0.7799	0.8697	0.4029	0.304
Mof_C 	C 	0.8582	0.0043	0.4311	0.365
Mof_O 	O 	0.6684	0.0863	0.0855	-0.374
Mof_C 	C 	0.6348	0.0623	0.0627	0.381
Mof_C 	C 	0.6662	0.0286	0.0364	-0.716
Mof_H 	H 	0.6493	0.038	0.0187	0.22
Mof_H 	H 	0.6631	0.9898	0.0395	0.239
Mof_H 	H 	0.7043	0.0387	0.0359	0.24
Mof_La	La	0.37847	0.08148	0.36276	1.728
Mof_Ag	Ag	0.70674	0.1297	0.55885	0.449
Mof_Ag	Ag	0.60745	0.14749	0.50013	0.411
Mof_Ag	Ag	0.50353	0.18913	0.53713	0.428
Mof_Ag	Ag	0.59285	0.20192	0.59355	0.411
Mof_Ag	Ag	0.73702	0.26758	0.53945	0.414
Mof_Ag	Ag	0.65584	0.27796	0.48134	0.43
Mof_Ag	Ag	0.55688	0.32518	0.52255	0.395
Mof_Ag	Ag	0.6397	0.3397	0.58732	0.457
Mof_Ni	Ni	0.56512	0.04422	0.56341	1.042
Mof_Ni	Ni	0.68774	0.42624	0.51773	1.044
Mof_Ni	Ni	0.74759	0.23553	0.6229	1.045
Mof_Ni	Ni	0.49593	0.24293	0.45475	1.049
Mof_Ni	Ni	0.77355	0.16095	0.47924	1.048
Mof_Ni	Ni	0.47307	0.31556	0.59529	1.053
Mof_S 	S 	0.62913	0.0761	0.53634	-0.61
Mof_S 	S 	0.5334	0.12423	0.57479	-0.62
Mof_S 	S 	0.71651	0.34549	0.50529	-0.607
Mof_S 	S 	0.62083	0.39535	0.54345	-0.625
Mof_S 	S 	0.73224	0.29624	0.59056	-0.618
Mof_S 	S 	0.69066	0.17599	0.60584	-0.605
Mof_S 	S 	0.55738	0.29866	0.4706	-0.604
Mof_S 	S 	0.51334	0.17753	0.4846	-0.623
Mof_S 	S 	0.68855	0.18271	0.47223	-0.608
Mof_S 	S 	0.77081	0.17549	0.52417	-0.597
Mof_S 	S 	0.48045	0.28565	0.55244	-0.624
Mof_S 	S 	0.55595	0.2941	0.60736	-0.635
Mof_O 	O 	0.6148	0.8831	0.527	-0.258
Mof_O 	O 	0.6996	0.893	0.5252	-0.307
Mof_O 	O 	0.3681	0.0442	0.60839	-0.338
Mof_O 	O 	0.4278	0.9786	0.61958	-0.483
Mof_O 	O 	0.824	0.487	0.45806	-0.281
Mof_O 	O 	0.8125	0.4188	0.4273	-0.516
Mof_O 	O 	0.6094	0.5891	0.5385	-0.229
Mof_O 	O 	0.6005	0.5714	0.587	-0.264
Mof_O 	O 	0.8416	0.4289	0.6403	-0.322
Mof_O 	O 	0.8865	0.3506	0.64559	-0.293
Mof_O 	O 	0.755	0.1154	0.6958	-0.247
Mof_O 	O 	0.7508	0.0411	0.6723	-0.317
Mof_O 	O 	0.4498	0.3886	0.4004	-0.27
Mof_O 	O 	0.5349	0.4106	0.3875	-0.277
Mof_O 	O 	0.3915	0.1185	0.41122	-0.508
Mof_O 	O 	0.3675	0.069	0.44755	-0.378
Mof_O 	O 	0.7233	0.2032	0.37385	-0.292
Mof_O 	O 	0.767	0.1256	0.38518	-0.296
Mof_O 	O 	0.9539	0.1291	0.4933	-0.227
Mof_O 	O 	0.9444	0.0892	0.5362	-0.244
Mof_O 	O 	0.2986	0.3629	0.56571	-0.286
Mof_O 	O 	0.2866	0.2843	0.54378	-0.287
Mof_O 	O 	0.4485	0.3405	0.68907	-0.253
Mof_O 	O 	0.5308	0.3788	0.69761	-0.267
Mof_O 	O 	0.4333	0.0871	0.31294	-0.42
Mof_N 	N 	0.5934	0.9714	0.55566	-0.192
Mof_N 	N 	0.5055	0.0124	0.58497	-0.214
Mof_N 	N 	0.739	0.4565	0.49053	-0.194
Mof_N 	N 	0.6707	0.4992	0.53144	-0.182
Mof_N 	N 	0.7972	0.2873	0.64012	-0.198
Mof_N 	N 	0.7657	0.1831	0.65163	-0.2
Mof_N 	N 	0.4812	0.2958	0.42565	-0.19
Mof_N 	N 	0.4359	0.1993	0.44096	-0.191
Mof_N 	N 	0.7833	0.1576	0.43852	-0.187
Mof_N 	N 	0.8462	0.1324	0.48365	-0.193
Mof_N 	N 	0.3966	0.3276	0.58867	-0.172
Mof_N 	N 	0.4629	0.3465	0.63257	-0.174
Mof_C 	C 	0.6475	0.9686	0.5428	-0.33
Mof_H 	H 	0.6757	0.9754	0.5571	0.124
Mof_C 	C 	0.6522	0.0112	0.51916	0.527
Mof_C 	C 	0.7114	0.0195	0.5085	-0.957
Mof_H 	H 	0.724	0.9865	0.4996	0.311
Mof_H 	H 	0.7349	0.0281	0.5242	0.283
Mof_H 	H 	0.7122	0.0492	0.4952	0.266
Mof_C 	C 	0.6156	0.9984	0.4945	-0.987
Mof_H 	H 	0.6276	0.965	0.4857	0.312
Mof_H 	H 	0.6173	0.0279	0.4811	0.272
Mof_H 	H 	0.5785	0.9941	0.501	0.288
Mof_C 	C 	0.6559	0.9108	0.5297	0.422
Mof_C 	C 	0.4577	0.0489	0.58812	-0.353
Mof_H 	H 	0.4416	0.0543	0.5693	0.108
Mof_C 	C 	0.4766	0.1052	0.59895	0.574
Mof_C 	C 	0.4983	0.1015	0.62896	-1.004
Mof_H 	H 	0.4689	0.0916	0.6415	0.301
Mof_H 	H 	0.513	0.1364	0.6345	0.277
Mof_H 	H 	0.5266	0.0742	0.6299	0.292
Mof_C 	C 	0.4338	0.1494	0.5971	-1.06
Mof_H 	H 	0.4038	0.1405	0.6094	0.342
Mof_H 	H 	0.4208	0.152	0.578	0.315
Mof_H 	H 	0.4496	0.1838	0.6027	0.302
Mof_C 	C 	0.4135	0.0219	0.6072	0.447
Mof_C 	C 	0.7557	0.4181	0.46938	-0.314
Mof_H 	H 	0.7236	0.4102	0.4576	0.091
Mof_C 	C 	0.775	0.3641	0.48208	0.523
Mof_C 	C 	0.8258	0.3717	0.50063	-0.985
Mof_H 	H 	0.8566	0.3813	0.489	0.316
Mof_H 	H 	0.8335	0.3381	0.5104	0.279
Mof_H 	H 	0.8192	0.4004	0.5141	0.295
Mof_C 	C 	0.7815	0.3187	0.46024	-0.941
Mof_H 	H 	0.8116	0.3274	0.4479	0.303
Mof_H 	H 	0.7484	0.3156	0.4494	0.27
Mof_H 	H 	0.7887	0.2846	0.4697	0.255
Mof_C 	C 	0.802	0.4436	0.4492	0.429
Mof_C 	C 	0.6323	0.4996	0.5563	-0.356
Mof_H 	H 	0.653	0.4882	0.573	0.13
Mof_C 	C 	0.5859	0.4608	0.55247	0.636
Mof_C 	C 	0.5518	0.452	0.57824	-1.134
Mof_H 	H 	0.5332	0.4855	0.583	0.367
Mof_H 	H 	0.5749	0.4412	0.5937	0.335
Mof_H 	H 	0.5252	0.4238	0.5747	0.316
Mof_C 	C 	0.5507	0.4757	0.5272	-1.104
Mof_H 	H 	0.5316	0.5093	0.5309	0.345
Mof_H 	H 	0.5247	0.4469	0.5237	0.305
Mof_H 	H 	0.5737	0.4803	0.5109	0.325
Mof_C 	C 	0.6136	0.5603	0.5608	0.345
Mof_C 	C 	0.7941	0.3453	0.63032	-0.335
Mof_H 	H 	0.7618	0.3623	0.6391	0.114
Mof_C 	C 	0.7865	0.3468	0.59859	0.546
Mof_C 	C 	0.7679	0.4014	0.5865	-0.989
Mof_H 	H 	0.7952	0.4288	0.5903	0.32
Mof_H 	H 	0.7338	0.4119	0.5951	0.291
Mof_H 	H 	0.7628	0.3979	0.5665	0.274
Mof_C 	C 	0.8389	0.3298	0.5836	-0.972
Mof_H 	H 	0.8674	0.356	0.5876	0.3
Mof_H 	H 	0.8326	0.3286	0.5636	0.271
Mof_H 	H 	0.85	0.2942	0.5901	0.286
Mof_C 	C 	0.8454	0.3775	0.6399	0.393
Mof_C 	C 	0.7486	0.125	0.6457	-0.316
Mof_H 	H 	0.7732	0.1087	0.6316	0.11
Mof_C 	C 	0.6887	0.1239	0.63456	0.526
Mof_C 	C 	0.6707	0.0704	0.6222	-0.99
Mof_H 	H 	0.6693	0.0431	0.6368	0.318
Mof_H 	H 	0.6963	0.0592	0.6079	0.29
Mof_H 	H 	0.6349	0.0746	0.6139	0.267
Mof_C 	C 	0.6486	0.1457	0.657	-0.945
Mof_H 	H 	0.646	0.1199	0.6723	0.301
Mof_H 	H 	0.613	0.1507	0.6487	0.257
Mof_H 	H 	0.6617	0.1802	0.6642	0.28
Mof_C 	C 	0.7505	0.0909	0.6735	0.398
Mof_C 	C 	0.5253	0.3359	0.41994	-0.303
Mof_H 	H 	0.5548	0.3177	0.4094	0.111
Mof_C 	C 	0.5486	0.359	0.44707	0.516
Mof_C 	C 	0.6036	0.3858	0.4425	-0.971
Mof_H 	H 	0.5994	0.4171	0.4304	0.317
Mof_H 	H 	0.6283	0.36	0.4339	0.285
Mof_H 	H 	0.6183	0.3974	0.4604	0.267
Mof_C 	C 	0.5087	0.399	0.46195	-0.923
Mof_H 	H 	0.5035	0.4309	0.4503	0.279
Mof_H 	H 	0.5238	0.4098	0.4798	0.25
Mof_H 	H 	0.4741	0.3811	0.4649	0.267
Mof_C 	C 	0.4997	0.3835	0.40084	0.364
Mof_C 	C 	0.4214	0.1486	0.45699	-0.348
Mof_H 	H 	0.3974	0.1584	0.4728	0.123
Mof_C 	C 	0.4749	0.1201	0.46891	0.6
Mof_C 	C 	0.507	0.0964	0.4448	-1.082
Mof_H 	H 	0.4869	0.0665	0.4366	0.334
Mof_H 	H 	0.5418	0.0834	0.4516	0.301
Mof_H 	H 	0.5129	0.1243	0.4308	0.323
Mof_C 	C 	0.4612	0.0807	0.49222	-1.079
Mof_H 	H 	0.441	0.0503	0.4846	0.34
Mof_H 	H 	0.4393	0.0991	0.5062	0.313
Mof_H 	H 	0.4944	0.0677	0.5008	0.299
Mof_C 	C 	0.3894	0.1087	0.4365	0.479
Mof_C 	C 	0.7383	0.1832	0.42211	-0.318
Mof_H 	H 	0.7414	0.223	0.4245	0.1
Mof_C 	C 	0.682	0.1658	0.43396	0.527
Mof_C 	C 	0.6722	0.1033	0.4307	-0.938
Mof_H 	H 	0.6686	0.0944	0.4111	0.286
Mof_H 	H 	0.6392	0.0932	0.4405	0.256
Mof_H 	H 	0.7027	0.0836	0.4386	0.274
Mof_C 	C 	0.635	0.1972	0.42186	-1.001
Mof_H 	H 	0.6314	0.1888	0.4021	0.325
Mof_H 	H 	0.6415	0.2358	0.4241	0.293
Mof_H 	H 	0.6018	0.1873	0.4316	0.277
Mof_C 	C 	0.7453	0.1707	0.3907	0.384
Mof_C 	C 	0.8611	0.1203	0.5135	-0.275
Mof_H 	H 	0.8439	0.0859	0.5195	0.104
Mof_C 	C 	0.8436	0.1665	0.5331	0.461
Mof_C 	C 	0.8734	0.2233	0.5261	-0.824
Mof_H 	H 	0.9117	0.2205	0.5306	0.267
Mof_H 	H 	0.8571	0.2521	0.5371	0.224
Mof_H 	H 	0.8692	0.2314	0.5063	0.237
Mof_C 	C 	0.9265	0.1141	0.5142	0.33
Mof_C 	C 	0.8485	0.1547	0.5641	-0.919
Mof_H 	H 	0.8865	0.1502	0.569	0.304
Mof_H 	H 	0.8288	0.1217	0.5685	0.274
Mof_H 	H 	0.8334	0.1848	0.5747	0.253
Mof_C 	C 	0.3745	0.2993	0.56293	-0.362
Mof_H 	H 	0.373	0.2599	0.567	0.132
Mof_C 	C 	0.4129	0.3075	0.53885	0.618
Mof_C 	C 	0.4161	0.3678	0.53102	-1.057
Mof_H 	H 	0.3812	0.3798	0.5239	0.315
Mof_H 	H 	0.4437	0.3729	0.5168	0.288
Mof_H 	H 	0.4255	0.3889	0.5475	0.31
Mof_C 	C 	0.3986	0.2754	0.51301	-1.119
Mof_H 	H 	0.3635	0.2871	0.5061	0.361
Mof_H 	H 	0.3971	0.2371	0.5176	0.335
Mof_H 	H 	0.4259	0.2815	0.4988	0.308
Mof_C 	C 	0.3143	0.3194	0.55705	0.397
Mof_C 	C 	0.5128	0.3505	0.65087	-0.361
Mof_H 	H 	0.5332	0.3833	0.6451	0.128
Mof_C 	C 	0.5497	0.3009	0.64598	0.634
Mof_C 	C 	0.5241	0.2506	0.6576	-1.151
Mof_H 	H 	0.5209	0.254	0.6778	0.355
Mof_H 	H 	0.5465	0.2194	0.6531	0.321
Mof_H 	H 	0.4883	0.2459	0.6496	0.345
Mof_C 	C 	0.6073	0.3105	0.6576	-1.091
Mof_H 	H 	0.6055	0.3143	0.6778	0.354
Mof_H 	H 	0.6222	0.3434	0.6496	0.321
Mof_H 	H 	0.6303	0.2799	0.6529	0.306
Mof_C 	C 	0.4957	0.3582	0.6811	0.371
Mof_O 	O 	0.4137	0.1684	0.3355	-0.374
Mof_C 	C 	0.4377	0.1348	0.3127	0.381
Mof_C 	C 	0.4714	0.1662	0.2864	-0.713
Mof_H 	H 	0.462	0.1493	0.2687	0.22
Mof_H 	H 	0.5102	0.1631	0.2895	0.238
Mof_H 	H 	0.4613	0.2043	0.2859	0.24
Mof_La	La	0.62153	0.91852	0.86276	1.728
Mof_Ag	Ag	0.29326	0.8703	0.05885	0.449
Mof_Ag	Ag	0.39255	0.85251	0.00013	0.411
Mof_Ag	Ag	0.49647	0.81087	0.03713	0.428
Mof_Ag	Ag	0.40715	0.79808	0.09355	0.411
Mof_Ag	Ag	0.26298	0.73242	0.03945	0.414
Mof_Ag	Ag	0.34416	0.72204	0.98134	0.43
Mof_Ag	Ag	0.44312	0.67482	0.02255	0.395
Mof_Ag	Ag	0.3603	0.6603	0.08732	0.457
Mof_Ni	Ni	0.43488	0.95578	0.06341	1.042
Mof_Ni	Ni	0.31226	0.57376	0.01773	1.044
Mof_Ni	Ni	0.25241	0.76447	0.1229	1.045
Mof_Ni	Ni	0.50407	0.75707	0.95475	1.049
Mof_Ni	Ni	0.22645	0.83905	0.97924	1.048
Mof_Ni	Ni	0.52693	0.68444	0.09529	1.053
Mof_S 	S 	0.37087	0.9239	0.03634	-0.61
Mof_S 	S 	0.4666	0.87577	0.07479	-0.62
Mof_S 	S 	0.28349	0.65451	0.00529	-0.607
Mof_S 	S 	0.37917	0.60465	0.04345	-0.625
Mof_S 	S 	0.26776	0.70376	0.09056	-0.618
Mof_S 	S 	0.30934	0.82401	0.10584	-0.605
Mof_S 	S 	0.44262	0.70134	0.9706	-0.604
Mof_S 	S 	0.48666	0.82247	0.9846	-0.623
Mof_S 	S 	0.31145	0.81729	0.97223	-0.608
Mof_S 	S 	0.22919	0.82451	0.02417	-0.597
Mof_S 	S 	0.51955	0.71435	0.05244	-0.624
Mof_S 	S 	0.44405	0.7059	0.10736	-0.635
Mof_O 	O 	0.3852	0.1169	0.027	-0.258
Mof_O 	O 	0.3004	0.107	0.0252	-0.307
Mof_O 	O 	0.6319	0.9558	0.10839	-0.338
Mof_O 	O 	0.5722	0.0214	0.11958	-0.483
Mof_O 	O 	0.176	0.513	0.95806	-0.281
Mof_O 	O 	0.1875	0.5812	0.9273	-0.516
Mof_O 	O 	0.3906	0.4109	0.0385	-0.229
Mof_O 	O 	0.3995	0.4286	0.087	-0.264
Mof_O 	O 	0.1584	0.5711	0.1403	-0.322
Mof_O 	O 	0.1135	0.6494	0.14559	-0.293
Mof_O 	O 	0.245	0.8846	0.1958	-0.247
Mof_O 	O 	0.2492	0.9589	0.1723	-0.317
Mof_O 	O 	0.5502	0.6114	0.9004	-0.27
Mof_O 	O 	0.4651	0.5894	0.8875	-0.277
Mof_O 	O 	0.6085	0.8815	0.91122	-0.508
Mof_O 	O 	0.6325	0.931	0.94755	-0.378
Mof_O 	O 	0.2767	0.7968	0.87385	-0.292
Mof_O 	O 	0.233	0.8744	0.88518	-0.296
Mof_O 	O 	0.0461	0.8709	0.9933	-0.227
Mof_O 	O 	0.0556	0.9108	0.0362	-0.244
Mof_O 	O 	0.7014	0.6371	0.06571	-0.286
Mof_O 	O 	0.7134	0.7157	0.04378	-0.287
Mof_O 	O 	0.5515	0.6595	0.18907	-0.253
Mof_O 	O 	0.4692	0.6212	0.19761	-0.267
Mof_O 	O 	0.5667	0.9129	0.81294	-0.42
Mof_N 	N 	0.4066	0.0286	0.05566	-0.192
Mof_N 	N 	0.4945	0.9876	0.08497	-0.214
Mof_N 	N 	0.261	0.5435	0.99053	-0.194
Mof_N 	N 	0.3293	0.5008	0.03144	-0.182
Mof_N 	N 	0.2028	0.7127	0.14012	-0.198
Mof_N 	N 	0.2343	0.8169	0.15163	-0.2
Mof_N 	N 	0.5188	0.7042	0.92565	-0.19
Mof_N 	N 	0.5641	0.8007	0.94096	-0.191
Mof_N 	N 	0.2167	0.8424	0.93852	-0.187
Mof_N 	N 	0.1538	0.8676	0.98365	-0.193
Mof_N 	N 	0.6034	0.6724	0.08867	-0.172
Mof_N 	N 	0.5371	0.6535	0.13257	-0.174
Mof_C 	C 	0.3525	0.0314	0.0428	-0.33
Mof_H 	H 	0.3243	0.0246	0.0571	0.124
Mof_C 	C 	0.3478	0.9888	0.01916	0.527
Mof_C 	C 	0.2886	0.9805	0.0085	-0.957
Mof_H 	H 	0.276	0.0135	0.9996	0.311
Mof_H 	H 	0.2651	0.9719	0.0242	0.283
Mof_H 	H 	0.2878	0.9508	0.9952	0.266
Mof_C 	C 	0.3844	0.0016	0.9945	-0.987
Mof_H 	H 	0.3724	0.035	0.9857	0.312
Mof_H 	H 	0.3827	0.9721	0.9811	0.272
Mof_H 	H 	0.4215	0.0059	0.001	0.288
Mof_C 	C 	0.3441	0.0892	0.0297	0.422
Mof_C 	C 	0.5423	0.9511	0.08812	-0.353
Mof_H 	H 	0.5584	0.9457	0.0693	0.108
Mof_C 	C 	0.5234	0.8948	0.09895	0.574
Mof_C 	C 	0.5017	0.8985	0.12896	-1.004
Mof_H 	H 	0.5311	0.9084	0.1415	0.301
Mof_H 	H 	0.487	0.8636	0.1345	0.277
Mof_H 	H 	0.4734	0.9258	0.1299	0.292
Mof_C 	C 	0.5662	0.8506	0.0971	-1.06
Mof_H 	H 	0.5962	0.8595	0.1094	0.342
Mof_H 	H 	0.5792	0.848	0.078	0.315
Mof_H 	H 	0.5504	0.8162	0.1027	0.302
Mof_C 	C 	0.5865	0.9781	0.1072	0.447
Mof_C 	C 	0.2443	0.5819	0.96938	-0.314
Mof_H 	H 	0.2764	0.5898	0.9576	0.091
Mof_C 	C 	0.225	0.6359	0.98208	0.523
Mof_C 	C 	0.1742	0.6283	0.00063	-0.985
Mof_H 	H 	0.1434	0.6187	0.989	0.316
Mof_H 	H 	0.1665	0.6619	0.0104	0.279
Mof_H 	H 	0.1808	0.5996	0.0141	0.294
Mof_C 	C 	0.2185	0.6813	0.96024	-0.941
Mof_H 	H 	0.1884	0.6726	0.9479	0.303
Mof_H 	H 	0.2516	0.6844	0.9494	0.27
Mof_H 	H 	0.2113	0.7154	0.9697	0.255
Mof_C 	C 	0.198	0.5564	0.9492	0.429
Mof_C 	C 	0.3677	0.5004	0.0563	-0.356
Mof_H 	H 	0.347	0.5118	0.073	0.13
Mof_C 	C 	0.4141	0.5392	0.05247	0.636
Mof_C 	C 	0.4482	0.548	0.07824	-1.134
Mof_H 	H 	0.4668	0.5145	0.083	0.367
Mof_H 	H 	0.4251	0.5588	0.0937	0.335
Mof_H 	H 	0.4748	0.5762	0.0747	0.316
Mof_C 	C 	0.4493	0.5243	0.0272	-1.104
Mof_H 	H 	0.4684	0.4907	0.0309	0.345
Mof_H 	H 	0.4753	0.5531	0.0237	0.305
Mof_H 	H 	0.4263	0.5197	0.0109	0.325
Mof_C 	C 	0.3864	0.4397	0.0608	0.345
Mof_C 	C 	0.2059	0.6547	0.13032	-0.335
Mof_H 	H 	0.2382	0.6377	0.1391	0.114
Mof_C 	C 	0.2135	0.6532	0.09859	0.546
Mof_C 	C 	0.2321	0.5986	0.0865	-0.989
Mof_H 	H 	0.2048	0.5712	0.0903	0.32
Mof_H 	H 	0.2662	0.5881	0.0951	0.291
Mof_H 	H 	0.2372	0.6021	0.0665	0.274
Mof_C 	C 	0.1611	0.6702	0.0836	-0.972
Mof_H 	H 	0.1326	0.644	0.0876	0.3
Mof_H 	H 	0.1674	0.6714	0.0636	0.271
Mof_H 	H 	0.15	0.7058	0.0901	0.286
Mof_C 	C 	0.1546	0.6225	0.1399	0.393
Mof_C 	C 	0.2514	0.875	0.1457	-0.316
Mof_H 	H 	0.2268	0.8913	0.1316	0.11
Mof_C 	C 	0.3113	0.8761	0.13456	0.526
Mof_C 	C 	0.3293	0.9296	0.1222	-0.99
Mof_H 	H 	0.3307	0.9569	0.1368	0.318
Mof_H 	H 	0.3037	0.9408	0.1079	0.29
Mof_H 	H 	0.3651	0.9254	0.1139	0.267
Mof_C 	C 	0.3514	0.8543	0.157	-0.945
Mof_H 	H 	0.354	0.8801	0.1723	0.301
Mof_H 	H 	0.387	0.8493	0.1487	0.257
Mof_H 	H 	0.3383	0.8198	0.1642	0.28
Mof_C 	C 	0.2495	0.9091	0.1735	0.398
Mof_C 	C 	0.4747	0.6641	0.91994	-0.303
Mof_H 	H 	0.4452	0.6823	0.9094	0.111
Mof_C 	C 	0.4514	0.641	0.94707	0.516
Mof_C 	C 	0.3964	0.6142	0.9425	-0.971
Mof_H 	H 	0.4006	0.5829	0.9304	0.317
Mof_H 	H 	0.3717	0.64	0.9339	0.285
Mof_H 	H 	0.3817	0.6026	0.9604	0.267
Mof_C 	C 	0.4913	0.601	0.96195	-0.923
Mof_H 	H 	0.4965	0.5691	0.9503	0.279
Mof_H 	H 	0.4762	0.5902	0.9798	0.25
Mof_H 	H 	0.5259	0.6189	0.9649	0.267
Mof_C 	C 	0.5003	0.6165	0.90084	0.364
Mof_C 	C 	0.5786	0.8514	0.95699	-0.348
Mof_H 	H 	0.6026	0.8416	0.9728	0.123
Mof_C 	C 	0.5251	0.8799	0.96891	0.6
Mof_C 	C 	0.493	0.9036	0.9448	-1.083
Mof_H 	H 	0.5131	0.9335	0.9366	0.334
Mof_H 	H 	0.4582	0.9166	0.9516	0.301
Mof_H 	H 	0.4871	0.8757	0.9308	0.323
Mof_C 	C 	0.5388	0.9193	0.99222	-1.079
Mof_H 	H 	0.559	0.9497	0.9846	0.34
Mof_H 	H 	0.5607	0.9009	0.0062	0.313
Mof_H 	H 	0.5056	0.9323	0.0008	0.299
Mof_C 	C 	0.6106	0.8913	0.9365	0.479
Mof_C 	C 	0.2617	0.8168	0.92211	-0.318
Mof_H 	H 	0.2586	0.777	0.9245	0.1
Mof_C 	C 	0.318	0.8342	0.93396	0.527
Mof_C 	C 	0.3278	0.8967	0.9307	-0.938
Mof_H 	H 	0.3314	0.9056	0.9111	0.286
Mof_H 	H 	0.3608	0.9068	0.9405	0.256
Mof_H 	H 	0.2973	0.9164	0.9386	0.274
Mof_C 	C 	0.365	0.8028	0.92186	-1.001
Mof_H 	H 	0.3686	0.8112	0.9021	0.325
Mof_H 	H 	0.3585	0.7642	0.9241	0.293
Mof_H 	H 	0.3982	0.8127	0.9316	0.277
Mof_C 	C 	0.2547	0.8293	0.8907	0.384
Mof_C 	C 	0.1389	0.8797	0.0135	-0.275
Mof_H 	H 	0.1561	0.9141	0.0195	0.104
Mof_C 	C 	0.1564	0.8335	0.0331	0.461
Mof_C 	C 	0.1266	0.7767	0.0261	-0.824
Mof_H 	H 	0.0883	0.7795	0.0306	0.267
Mof_H 	H 	0.1429	0.7479	0.0371	0.224
Mof_H 	H 	0.1308	0.7686	0.0063	0.237
Mof_C 	C 	0.0735	0.8859	0.0142	0.33
Mof_C 	C 	0.1515	0.8453	0.0641	-0.919
Mof_H 	H 	0.1135	0.8498	0.069	0.304
Mof_H 	H 	0.1712	0.8783	0.0685	0.274
Mof_H 	H 	0.1666	0.8152	0.0747	0.253
Mof_C 	C 	0.6255	0.7007	0.06293	-0.362
Mof_H 	H 	0.627	0.7401	0.067	0.132
Mof_C 	C 	0.5871	0.6925	0.03885	0.618
Mof_C 	C 	0.5839	0.6322	0.03102	-1.057
Mof_H 	H 	0.6188	0.6202	0.0239	0.315
Mof_H 	H 	0.5563	0.6271	0.0168	0.288
Mof_H 	H 	0.5745	0.6111	0.0475	0.31
Mof_C 	C 	0.6014	0.7246	0.01301	-1.119
Mof_H 	H 	0.6365	0.7129	0.0061	0.361
Mof_H 	H 	0.6029	0.7629	0.0176	0.335
Mof_H 	H 	0.5741	0.7185	0.9988	0.308
Mof_C 	C 	0.6857	0.6806	0.05705	0.397
Mof_C 	C 	0.4872	0.6495	0.15087	-0.361
Mof_H 	H 	0.4668	0.6167	0.1451	0.128
Mof_C 	C 	0.4503	0.6991	0.14598	0.634
Mof_C 	C 	0.4759	0.7494	0.1576	-1.151
Mof_H 	H 	0.4791	0.746	0.1778	0.355
Mof_H 	H 	0.4535	0.7806	0.1531	0.321
Mof_H 	H 	0.5117	0.7541	0.1496	0.345
Mof_C 	C 	0.3927	0.6895	0.1576	-1.091
Mof_H 	H 	0.3945	0.6857	0.1778	0.354
Mof_H 	H 	0.3778	0.6566	0.1496	0.321
Mof_H 	H 	0.3697	0.7201	0.1529	0.306
Mof_C 	C 	0.5043	0.6418	0.1811	0.371
Mof_O 	O 	0.5863	0.8316	0.8355	-0.374
Mof_C 	C 	0.5623	0.8652	0.8127	0.381
Mof_C 	C 	0.5286	0.8338	0.7864	-0.713
Mof_H 	H 	0.538	0.8507	0.7687	0.22
Mof_H 	H 	0.4898	0.8369	0.7895	0.238
Mof_H 	H 	0.5387	0.7957	0.7859	0.24
_end
