data_functionalizedCrystal
_audit_creation_method	'EQeq! by Chris Wilmer'
_symmetry_space_group_name_H-M	'P1'
_symmetry_Int_Tables_number	1
_symmetry_cell_setting	triclinic
loop_
_symmetry_equiv_pos_as_xyz
  x,y,z
_cell_length_a	8.9294
_cell_length_b	12.4238
_cell_length_c	12.4238
_cell_angle_alpha	98.0156
_cell_angle_beta	106.855
_cell_angle_gamma	73.1454
loop_
_atom_site_label
_atom_site_type_symbol
_atom_site_fract_x
_atom_site_fract_y
_atom_site_fract_z
_atom_site_charge
Mof_La	La	0.75	0.52793	0.52793	2.448
Mof_La	La	0.25	0.47207	0.47207	2.448
Mof_H 	H 	0.555	0.433	0.319	0.361
Mof_H 	H 	0.7	0.425	0.293	0.391
Mof_H 	H 	0.9061	0.6176	0.8418	0.149
Mof_H 	H 	0.8183	0.5325	0.8681	0.134
Mof_H 	H 	0.9089	0.8064	0.9838	0.072
Mof_H 	H 	0.8787	0.8459	0.1795	0.055
Mof_H 	H 	0.7421	0.5637	0.0519	0.05
Mof_H 	H 	0.7553	0.7506	0.3022	0.131
Mof_H 	H 	0.6814	0.6479	0.2413	0.142
Mof_H 	H 	0.945	0.319	0.433	0.362
Mof_H 	H 	0.8	0.293	0.425	0.392
Mof_H 	H 	0.5939	0.8418	0.6176	0.15
Mof_H 	H 	0.6817	0.8681	0.5325	0.135
Mof_H 	H 	0.5911	0.9838	0.8064	0.072
Mof_H 	H 	0.6213	0.1795	0.8459	0.057
Mof_H 	H 	0.7579	0.0519	0.5637	0.051
Mof_H 	H 	0.7447	0.3022	0.7506	0.132
Mof_H 	H 	0.8186	0.2413	0.6479	0.142
Mof_H 	H 	0.445	0.567	0.681	0.362
Mof_H 	H 	0.3	0.575	0.707	0.392
Mof_H 	H 	0.0939	0.3824	0.1582	0.15
Mof_H 	H 	0.1817	0.4675	0.1319	0.135
Mof_H 	H 	0.0911	0.1936	0.0162	0.073
Mof_H 	H 	0.1213	0.1541	0.8205	0.056
Mof_H 	H 	0.2579	0.4363	0.9481	0.051
Mof_H 	H 	0.2447	0.2494	0.6978	0.132
Mof_H 	H 	0.3186	0.3521	0.7587	0.142
Mof_H 	H 	0.055	0.681	0.567	0.362
Mof_H 	H 	0.2	0.707	0.575	0.392
Mof_H 	H 	0.4061	0.1582	0.3824	0.15
Mof_H 	H 	0.3183	0.1319	0.4675	0.135
Mof_H 	H 	0.4089	0.0162	0.1936	0.072
Mof_H 	H 	0.3787	0.8205	0.1541	0.057
Mof_H 	H 	0.2421	0.9481	0.4363	0.051
Mof_H 	H 	0.2553	0.6978	0.2494	0.132
Mof_H 	H 	0.1814	0.7587	0.3521	0.142
Mof_C 	C 	0.6553	0.67	0.7836	0.45
Mof_C 	C 	0.8127	0.6131	0.8671	-0.282
Mof_C 	C 	0.8718	0.7629	0.0225	0.006
Mof_C 	C 	0.855	0.7846	0.129	0.008
Mof_C 	C 	0.7797	0.6292	0.0592	0.072
Mof_C 	C 	0.7763	0.6789	0.2561	-0.292
Mof_C 	C 	0.9268	0.5962	0.3212	0.5
Mof_C 	C 	0.8447	0.7836	0.67	0.45
Mof_C 	C 	0.6873	0.8671	0.6131	-0.282
Mof_C 	C 	0.6282	0.0225	0.7629	0.009
Mof_C 	C 	0.645	0.129	0.7846	0.007
Mof_C 	C 	0.7203	0.0592	0.6292	0.073
Mof_C 	C 	0.7237	0.2561	0.6789	-0.293
Mof_C 	C 	0.5732	0.3212	0.5962	0.501
Mof_C 	C 	0.3447	0.33	0.2164	0.45
Mof_C 	C 	0.1873	0.3869	0.1329	-0.282
Mof_C 	C 	0.1282	0.2371	0.9775	0.006
Mof_C 	C 	0.145	0.2154	0.871	0.008
Mof_C 	C 	0.2203	0.3708	0.9408	0.072
Mof_C 	C 	0.2237	0.3211	0.7439	-0.292
Mof_C 	C 	0.0732	0.4038	0.6788	0.5
Mof_C 	C 	0.1553	0.2164	0.33	0.45
Mof_C 	C 	0.3127	0.1329	0.3869	-0.282
Mof_C 	C 	0.3718	0.9775	0.2371	0.009
Mof_C 	C 	0.355	0.871	0.2154	0.007
Mof_C 	C 	0.2797	0.9408	0.3708	0.073
Mof_C 	C 	0.2763	0.7439	0.3211	-0.293
Mof_C 	C 	0.4268	0.6788	0.4038	0.501
Mof_N 	N 	0.8245	0.6657	0.9813	-0.066
Mof_N 	N 	0.7968	0.7005	0.1495	-0.069
Mof_N 	N 	0.6755	0.9813	0.6657	-0.067
Mof_N 	N 	0.7032	0.1495	0.7005	-0.068
Mof_N 	N 	0.1755	0.3343	0.0187	-0.066
Mof_N 	N 	0.2032	0.2995	0.8505	-0.069
Mof_N 	N 	0.3245	0.0187	0.3343	-0.067
Mof_N 	N 	0.2968	0.8505	0.2995	-0.068
Mof_O 	O 	0.6298	0.62119	0.68699	-0.52
Mof_O 	O 	0.5673	0.7598	0.813	-0.248
Mof_O 	O 	0.9126	0.55462	0.40382	-0.617
Mof_O 	O 	0.0557	0.57454	0.29446	-0.473
Mof_O 	O 	0.6231	0.4689	0.3167	-0.858
Mof_O 	O 	0.8702	0.68699	0.62119	-0.52
Mof_O 	O 	0.9327	0.813	0.7598	-0.248
Mof_O 	O 	0.5874	0.40382	0.55462	-0.617
Mof_O 	O 	0.4443	0.29446	0.57454	-0.474
Mof_O 	O 	0.8769	0.3167	0.4689	-0.858
Mof_O 	O 	0.3702	0.37881	0.31301	-0.52
Mof_O 	O 	0.4327	0.2402	0.187	-0.248
Mof_O 	O 	0.0874	0.44538	0.59618	-0.617
Mof_O 	O 	0.9443	0.42546	0.70554	-0.473
Mof_O 	O 	0.3769	0.5311	0.6833	-0.858
Mof_O 	O 	0.1298	0.31301	0.37881	-0.52
Mof_O 	O 	0.0673	0.187	0.2402	-0.248
Mof_O 	O 	0.4126	0.59618	0.44538	-0.617
Mof_O 	O 	0.5557	0.70554	0.42546	-0.474
Mof_O 	O 	0.1231	0.6833	0.5311	-0.858
Mof_Cl	Cl	0.8039	0.3701	0.1599	-0.327
Mof_Cl	Cl	0.6961	0.1599	0.3701	-0.327
Mof_Cl	Cl	0.1961	0.6299	0.8401	-0.327
Mof_Cl	Cl	0.3039	0.8401	0.6299	-0.327
_end
