data_functionalizedCrystal
_audit_creation_method	'EQeq! by Chris Wilmer'
_symmetry_space_group_name_H-M	'P1'
_symmetry_Int_Tables_number	1
_symmetry_cell_setting	triclinic
loop_
_symmetry_equiv_pos_as_xyz
  x,y,z
_cell_length_a	18.9011
_cell_length_b	14.8488
_cell_length_c	12.9302
_cell_angle_alpha	90
_cell_angle_beta	90
_cell_angle_gamma	90
loop_
_atom_site_label
_atom_site_type_symbol
_atom_site_fract_x
_atom_site_fract_y
_atom_site_fract_z
_atom_site_charge
Mof_N 	N 	0.5711	0.424	0.6461	-0.216
Mof_N 	N 	0.6807	0.3281	0.5531	-0.215
Mof_C 	C 	0.5999	0.4491	0.555	-0.006
Mof_H 	H 	0.5829	0.5003	0.5218	0.008
Mof_C 	C 	0.653	0.4016	0.5111	0.005
Mof_H 	H 	0.671	0.4215	0.4481	0.002
Mof_C 	C 	0.6514	0.3025	0.644	-0.009
Mof_H 	H 	0.6681	0.251	0.6769	0
Mof_C 	C 	0.5979	0.3503	0.6883	0.004
Mof_H 	H 	0.5794	0.3303	0.7509	-0.006
Mof_N 	N 	0.5711	0.924	0.1461	-0.213
Mof_N 	N 	0.6807	0.8281	0.0531	-0.209
Mof_C 	C 	0.5999	0.9491	0.055	0.064
Mof_H 	H 	0.5829	0.0003	0.0218	-0.042
Mof_C 	C 	0.653	0.9016	0.0111	0.045
Mof_H 	H 	0.671	0.9215	0.9481	-0.028
Mof_C 	C 	0.6514	0.8025	0.144	-0.004
Mof_H 	H 	0.6681	0.751	0.1769	0.011
Mof_C 	C 	0.5979	0.8503	0.1883	0.012
Mof_H 	H 	0.5794	0.8303	0.2509	0.006
Mof_N 	N 	0.0711	0.424	0.1461	-0.217
Mof_N 	N 	0.1807	0.3281	0.0531	-0.223
Mof_C 	C 	0.0999	0.4491	0.055	-0.054
Mof_H 	H 	0.0829	0.5003	0.0218	0.019
Mof_C 	C 	0.153	0.4016	0.0111	0.094
Mof_H 	H 	0.171	0.4215	0.9481	-0.06
Mof_C 	C 	0.1514	0.3025	0.144	-0.005
Mof_H 	H 	0.1681	0.251	0.1769	0
Mof_C 	C 	0.0979	0.3503	0.1883	-0.003
Mof_H 	H 	0.0794	0.3303	0.2509	-0.012
Mof_N 	N 	0.0711	0.924	0.6461	-0.234
Mof_N 	N 	0.1807	0.8281	0.5531	-0.204
Mof_C 	C 	0.0999	0.9491	0.555	0.108
Mof_H 	H 	0.0829	0.0003	0.5218	-0.082
Mof_C 	C 	0.153	0.9016	0.5111	-0.056
Mof_H 	H 	0.171	0.9215	0.4481	0.029
Mof_C 	C 	0.1514	0.8025	0.644	-0.02
Mof_H 	H 	0.1681	0.751	0.6769	0.004
Mof_C 	C 	0.0979	0.8503	0.6883	0.013
Mof_H 	H 	0.0794	0.8303	0.7509	-0.013
Mof_N 	N 	0.4289	0.576	0.6461	-0.217
Mof_N 	N 	0.3193	0.6719	0.5531	-0.216
Mof_C 	C 	0.4001	0.5509	0.555	-0.007
Mof_H 	H 	0.4171	0.4997	0.5218	0.005
Mof_C 	C 	0.347	0.5984	0.5111	0.004
Mof_H 	H 	0.329	0.5785	0.4481	0.001
Mof_C 	C 	0.3486	0.6975	0.644	-0.01
Mof_H 	H 	0.3319	0.749	0.6769	0.007
Mof_C 	C 	0.4021	0.6497	0.6883	0.007
Mof_H 	H 	0.4206	0.6697	0.7509	-0.003
Mof_N 	N 	0.4289	0.076	0.1461	-0.194
Mof_N 	N 	0.3193	0.1719	0.0531	-0.235
Mof_C 	C 	0.4001	0.0509	0.055	-0.165
Mof_H 	H 	0.4171	0.9997	0.0218	0.105
Mof_C 	C 	0.347	0.0984	0.0111	0.152
Mof_H 	H 	0.329	0.0785	0.9481	-0.088
Mof_C 	C 	0.3486	0.1975	0.144	0.005
Mof_H 	H 	0.3319	0.249	0.1769	0.003
Mof_C 	C 	0.4021	0.1497	0.1883	-0.01
Mof_H 	H 	0.4206	0.1697	0.2509	0.001
Mof_N 	N 	0.9289	0.576	0.1461	-0.189
Mof_N 	N 	0.8193	0.6719	0.0531	-0.221
Mof_C 	C 	0.9001	0.5509	0.055	-0.046
Mof_H 	H 	0.9171	0.4997	0.0218	0.044
Mof_C 	C 	0.847	0.5984	0.0111	0.104
Mof_H 	H 	0.829	0.5785	0.9481	-0.055
Mof_C 	C 	0.8486	0.6975	0.144	0.006
Mof_H 	H 	0.8319	0.749	0.1769	0.014
Mof_C 	C 	0.9021	0.6497	0.1883	0.005
Mof_H 	H 	0.9206	0.6697	0.2509	0.02
Mof_N 	N 	0.9289	0.076	0.6461	-0.187
Mof_N 	N 	0.8193	0.1719	0.5531	-0.228
Mof_C 	C 	0.9001	0.0509	0.555	-0.115
Mof_H 	H 	0.9171	0.9997	0.5218	0.093
Mof_C 	C 	0.847	0.0984	0.5111	0.063
Mof_H 	H 	0.829	0.0785	0.4481	-0.024
Mof_C 	C 	0.8486	0.1975	0.644	0.001
Mof_H 	H 	0.8319	0.249	0.6769	0.003
Mof_C 	C 	0.9021	0.1497	0.6883	-0.002
Mof_H 	H 	0.9206	0.1697	0.7509	0.01
Mof_N 	N 	0.8211	0.826	0.8961	-0.204
Mof_N 	N 	0.9307	0.9219	0.8031	-0.195
Mof_C 	C 	0.8499	0.8009	0.805	-0.007
Mof_H 	H 	0.8329	0.7497	0.7718	0.009
Mof_C 	C 	0.903	0.8484	0.7611	0.016
Mof_H 	H 	0.921	0.8285	0.6981	0.017
Mof_C 	C 	0.9014	0.9475	0.894	0.041
Mof_H 	H 	0.9181	0.999	0.9269	0.011
Mof_C 	C 	0.8479	0.8997	0.9383	-0.077
Mof_H 	H 	0.8294	0.9197	0.0009	0.068
Mof_N 	N 	0.8211	0.326	0.3961	-0.217
Mof_N 	N 	0.9307	0.4219	0.3031	-0.197
Mof_C 	C 	0.8499	0.3009	0.305	0
Mof_H 	H 	0.8329	0.2497	0.2718	0.007
Mof_C 	C 	0.903	0.3484	0.2611	0.007
Mof_H 	H 	0.921	0.3285	0.1981	0.018
Mof_C 	C 	0.9014	0.4475	0.394	-0.006
Mof_H 	H 	0.9181	0.499	0.4269	0.021
Mof_C 	C 	0.8479	0.3997	0.4383	0.012
Mof_H 	H 	0.8294	0.4197	0.5009	0.002
Mof_N 	N 	0.3211	0.826	0.3961	-0.216
Mof_N 	N 	0.4307	0.9219	0.3031	-0.203
Mof_C 	C 	0.3499	0.8009	0.305	-0.003
Mof_H 	H 	0.3329	0.7497	0.2718	0.008
Mof_C 	C 	0.403	0.8484	0.2611	0.008
Mof_H 	H 	0.421	0.8285	0.1981	0.009
Mof_C 	C 	0.4014	0.9475	0.394	-0.004
Mof_H 	H 	0.4181	0.999	0.4269	0.021
Mof_C 	C 	0.3479	0.8997	0.4383	0.01
Mof_H 	H 	0.3294	0.9197	0.5009	0.005
Mof_N 	N 	0.3211	0.326	0.8961	-0.207
Mof_N 	N 	0.4307	0.4219	0.8031	-0.226
Mof_C 	C 	0.3499	0.3009	0.805	-0.017
Mof_H 	H 	0.3329	0.2497	0.7718	0.001
Mof_C 	C 	0.403	0.3484	0.7611	0.008
Mof_H 	H 	0.421	0.3285	0.6981	-0.005
Mof_C 	C 	0.4014	0.4475	0.894	0.033
Mof_H 	H 	0.4181	0.499	0.9269	-0.018
Mof_C 	C 	0.3479	0.3997	0.9383	-0.088
Mof_H 	H 	0.3294	0.4197	0.0009	0.059
Mof_N 	N 	0.6789	0.674	0.8961	-0.205
Mof_N 	N 	0.5693	0.5781	0.8031	-0.225
Mof_C 	C 	0.6501	0.6991	0.805	-0.015
Mof_H 	H 	0.6671	0.7503	0.7718	0.01
Mof_C 	C 	0.597	0.6516	0.7611	0.012
Mof_H 	H 	0.579	0.6715	0.6981	0
Mof_C 	C 	0.5986	0.5525	0.894	0.035
Mof_H 	H 	0.5819	0.501	0.9269	-0.019
Mof_C 	C 	0.6521	0.6003	0.9383	-0.087
Mof_H 	H 	0.6706	0.5803	0.0009	0.06
Mof_N 	N 	0.6789	0.174	0.3961	-0.217
Mof_N 	N 	0.5693	0.0781	0.3031	-0.222
Mof_C 	C 	0.6501	0.1991	0.305	-0.008
Mof_H 	H 	0.6671	0.2503	0.2718	0.008
Mof_C 	C 	0.597	0.1516	0.2611	0.002
Mof_H 	H 	0.579	0.1715	0.1981	0.003
Mof_C 	C 	0.5986	0.0525	0.394	-0.013
Mof_H 	H 	0.5819	0.001	0.4269	-0.009
Mof_C 	C 	0.6521	0.1003	0.4383	0.003
Mof_H 	H 	0.6706	0.0803	0.5009	-0.007
Mof_N 	N 	0.1789	0.674	0.3961	-0.217
Mof_N 	N 	0.0693	0.5781	0.3031	-0.225
Mof_C 	C 	0.1501	0.6991	0.305	-0.011
Mof_H 	H 	0.1671	0.7503	0.2718	0.009
Mof_C 	C 	0.097	0.6516	0.2611	0.004
Mof_H 	H 	0.079	0.6715	0.1981	-0.006
Mof_C 	C 	0.0986	0.5525	0.394	-0.011
Mof_H 	H 	0.0819	0.501	0.4269	-0.008
Mof_C 	C 	0.1521	0.6003	0.4383	0.001
Mof_H 	H 	0.1706	0.5803	0.5009	-0.004
Mof_N 	N 	0.1789	0.174	0.8961	-0.208
Mof_N 	N 	0.0693	0.0781	0.8031	-0.242
Mof_C 	C 	0.1501	0.1991	0.805	-0.024
Mof_H 	H 	0.1671	0.2503	0.7718	0.001
Mof_C 	C 	0.097	0.1516	0.7611	0.003
Mof_H 	H 	0.079	0.1715	0.6981	-0.018
Mof_C 	C 	0.0986	0.0525	0.894	0.024
Mof_H 	H 	0.0819	0.001	0.9269	-0.044
Mof_C 	C 	0.1521	0.1003	0.9383	-0.094
Mof_H 	H 	0.1706	0.0803	0.0009	0.049
Mof_Cu	Cu	0.5	0.5	0.724	0.851
Mof_Cu	Cu	0.5	0	0.224	0.832
Mof_Cu	Cu	2.31358e-33	0.5	0.224	0.823
Mof_Cu	Cu	1.85703e-33	6.95611e-33	0.724	0.802
Mof_Cu	Cu	0.75	0.75	0.974	0.837
Mof_Cu	Cu	0.75	0.25	0.474	0.851
Mof_Cu	Cu	0.25	0.75	0.474	0.851
Mof_Cu	Cu	0.25	0.25	0.974	0.833
_end
