data_functionalizedCrystal
_audit_creation_method	'EQeq! by Chris Wilmer'
_symmetry_space_group_name_H-M	'P1'
_symmetry_Int_Tables_number	1
_symmetry_cell_setting	triclinic
loop_
_symmetry_equiv_pos_as_xyz
  x,y,z
_cell_length_a	13.484
_cell_length_b	16.674
_cell_length_c	30.094
_cell_angle_alpha	96.87
_cell_angle_beta	90
_cell_angle_gamma	90
loop_
_atom_site_label
_atom_site_type_symbol
_atom_site_fract_x
_atom_site_fract_y
_atom_site_fract_z
_atom_site_charge
Mof_Ni	Ni	0.30683	0.40326	0.48766	1.107
Mof_Ni	Ni	0.19317	0.40326	0.98766	1.111
Mof_Ni	Ni	0.5	0.5	0.5	1.114
Mof_Ni	Ni	0.51796	0.5989	0.42193	1.109
Mof_Ni	Ni	0.48204	0.4011	0.57807	1.109
Mof_Ni	Ni	0.98204	0.5989	0.92193	1.113
Mof_Ni	Ni	-7.51573e-33	0.5	-0	1.105
Mof_Ni	Ni	0.69317	0.59674	0.51234	1.107
Mof_Ni	Ni	0.01796	0.4011	0.07807	1.106
Mof_Ni	Ni	0.80683	0.59674	0.01234	1.104
Mof_H 	H 	0.3594	0.8884	0.4923	0.051
Mof_H 	H 	0.5321	0.9922	0.4061	0.055
Mof_H 	H 	0.555	0.154	0.1149	0.136
Mof_H 	H 	0.4059	0.3223	0.1874	0.098
Mof_H 	H 	0.0486	0.6742	0.4672	0.095
Mof_H 	H 	0.5946	0.3057	0.111	-0.003
Mof_H 	H 	0.5431	0.1485	0.0296	-0.037
Mof_H 	H 	0.0819	0.6464	0.6427	0.067
Mof_H 	H 	0.7758	0.5874	0.6088	0.005
Mof_H 	H 	0.9158	0.5701	0.8175	-0.007
Mof_H 	H 	0.3362	0.1233	0.0027	0.03
Mof_H 	H 	0.992	0.5956	0.2257	0.095
Mof_H 	H 	0.9034	0.2333	0.0529	-0.008
Mof_H 	H 	0.572	0.2319	0.0205	0.107
Mof_H 	H 	0.2525	0.3599	0.6673	-0.003
Mof_H 	H 	0.5582	0.5854	0.8062	0.101
Mof_H 	H 	0.508	0.5956	0.7257	0.094
Mof_H 	H 	0.0108	0.2696	0.5933	-0.024
Mof_H 	H 	0.8145	0.3819	0.1346	0.034
Mof_H 	H 	0.7242	0.5874	0.1088	0.005
Mof_H 	H 	0.9054	0.3057	0.611	-0.009
Mof_H 	H 	0.4547	0.3129	0.2729	0.094
Mof_H 	H 	0.4411	0.4256	0.9996	0.027
Mof_H 	H 	0.4679	0.0078	0.5939	0.055
Mof_H 	H 	0.1232	0.4508	0.6179	0.154
Mof_H 	H 	0.3545	0.1136	0.5834	0.033
Mof_H 	H 	0.9679	0.9922	0.9061	0.078
Mof_H 	H 	0.1505	0.3462	0.8336	-0.004
Mof_H 	H 	0.3262	0.442	0.2543	0.017
Mof_H 	H 	0.8008	0.385	0.4892	0.162
Mof_H 	H 	0.8667	0.0207	0.5731	0.203
Mof_H 	H 	0.6755	0.7405	0.4018	0.025
Mof_H 	H 	0.428	0.7681	0.9795	0.106
Mof_H 	H 	0.2035	0.3485	0.7487	0.016
Mof_H 	H 	0.6131	0.5253	0.2442	0.051
Mof_H 	H 	0.0832	0.994	0.4755	0.207
Mof_H 	H 	0.2285	0.0102	0.0074	0.049
Mof_H 	H 	0.0966	0.7667	0.9471	0.005
Mof_H 	H 	0.6295	0.3455	0.7822	0.054
Mof_H 	H 	0.1333	0.9992	0.5688	0.375
Mof_H 	H 	0.0098	0.6674	0.1399	0.123
Mof_H 	H 	0.8245	0.7405	0.9018	0.025
Mof_H 	H 	0.2715	0.0102	0.5074	0.067
Mof_H 	H 	0.6535	0.4162	0.0652	-0.007
Mof_H 	H 	0.055	0.846	0.3851	0.126
Mof_H 	H 	0.9168	0.006	0.5245	0.206
Mof_H 	H 	0.4514	0.6742	0.9672	0.106
Mof_H 	H 	0.7715	0.9898	0.9926	0.087
Mof_H 	H 	0.7746	0.26	0.5108	-0.042
Mof_H 	H 	0.6366	0.7302	0.9885	0.031
Mof_H 	H 	0.0362	0.5765	0.1473	0.126
Mof_H 	H 	0.4181	0.6464	0.1427	0.056
Mof_H 	H 	0.3395	0.4808	0.8319	0.056
Mof_H 	H 	0.9512	0.8863	0.0752	0.065
Mof_H 	H 	0.9892	0.7304	0.4067	0.012
Mof_H 	H 	0.3768	0.4508	0.1179	0.156
Mof_H 	H 	0.4569	0.8515	0.9704	-0.034
Mof_H 	H 	0.3245	0.2595	0.5982	0.024
Mof_H 	H 	0.2342	0.7052	0.4375	-0.065
Mof_H 	H 	0.6638	0.8767	0.9973	0.064
Mof_H 	H 	0.492	0.4044	0.2743	0.095
Mof_H 	H 	0.2734	0.4534	0.1794	-0.007
Mof_H 	H 	0.7266	0.5466	0.8206	-0.005
Mof_H 	H 	0.2266	0.4534	0.6794	-0.006
Mof_H 	H 	0.5098	0.3326	0.3601	0.149
Mof_H 	H 	0.3145	0.6181	0.3654	0.033
Mof_H 	H 	0.3705	0.6545	0.2178	0.052
Mof_H 	H 	0.4054	0.6943	0.889	-0.001
Mof_H 	H 	0.4442	0.5709	0.064	0.026
Mof_H 	H 	0.6406	0.1116	0.5077	0.054
Mof_H 	H 	0.008	0.4044	0.7743	0.093
Mof_H 	H 	0.9181	0.3536	0.3573	0.047
Mof_H 	H 	0.0488	0.1137	0.9248	0.045
Mof_H 	H 	0.3657	0.3551	0.1074	0.151
Mof_H 	H 	0.6669	0.1812	0.1063	0.12
Mof_H 	H 	0.0431	0.8515	0.4704	-0.037
Mof_H 	H 	0.8667	0.0008	0.4312	0.376
Mof_H 	H 	0.5453	0.6871	0.7271	0.093
Mof_H 	H 	0.9638	0.4235	0.8527	0.17
Mof_H 	H 	0.3008	0.615	0.0108	0.142
Mof_H 	H 	0.6346	0.5592	0.6683	-0.003
Mof_H 	H 	0.2965	0.3485	0.2487	0.016
Mof_H 	H 	0.3311	0.5768	0.9615	0.164
Mof_H 	H 	0.8081	0.3782	0.2168	0.022
Mof_H 	H 	0.4638	0.5765	0.6473	0.15
Mof_H 	H 	0.97	0.645	0.0008	0.28
Mof_H 	H 	0.8311	0.4232	0.5385	0.175
Mof_H 	H 	0.8465	0.4162	0.5652	-0.003
Mof_H 	H 	0.0842	0.4299	0.1825	0.004
Mof_H 	H 	0.4057	0.2302	0.4618	-0.021
Mof_H 	H 	0.5819	0.3536	0.8573	0.058
Mof_H 	H 	0.6343	0.6449	0.8926	0.151
Mof_H 	H 	0.8869	0.5253	0.7442	0.042
Mof_H 	H 	0.0946	0.6943	0.389	0.007
Mof_H 	H 	0.6608	0.1355	0.0325	-0.038
Mof_H 	H 	0.9059	0.6777	0.3126	0.099
Mof_H 	H 	0.5943	0.7698	0.5382	-0.021
Mof_H 	H 	0.4418	0.4146	0.1938	0.102
Mof_H 	H 	0.7208	0.3333	0.0719	0.085
Mof_H 	H 	0.1406	0.8884	0.9923	0.06
Mof_H 	H 	0.3654	0.4408	0.3317	-0.003
Mof_H 	H 	0.8657	0.6449	0.3926	0.153
Mof_H 	H 	0.8634	0.7302	0.4885	0.022
Mof_H 	H 	0.5941	0.6777	0.8126	0.097
Mof_H 	H 	0.4168	0.994	0.9755	0.211
Mof_H 	H 	0.8768	0.5492	0.3821	0.158
Mof_H 	H 	0.0582	0.4146	0.6938	0.099
Mof_H 	H 	0.4158	0.4299	0.6825	-0.001
Mof_H 	H 	0.1919	0.6218	0.7832	0.024
Mof_H 	H 	0.9057	0.7698	0.0382	-0.02
Mof_H 	H 	0.7475	0.6401	0.3327	-0.004
Mof_H 	H 	0.1295	0.6545	0.7178	0.044
Mof_H 	H 	0.1689	0.5768	0.4615	0.17
Mof_H 	H 	0.1131	0.4747	0.2558	0.061
Mof_H 	H 	0.6333	0.0207	0.0731	0.203
Mof_H 	H 	0.8362	0.8767	0.4973	0.054
Mof_H 	H 	0.5488	0.8863	0.5752	0.056
Mof_H 	H 	0.1738	0.442	0.7543	0.017
Mof_H 	H 	0.3667	0.9793	0.9269	0.205
Mof_H 	H 	0.0321	0.0078	0.0939	0.039
Mof_H 	H 	0.4034	0.7667	0.4471	-0.002
Mof_H 	H 	0.53	0.645	0.5008	0.293
Mof_H 	H 	0.6992	0.385	0.9892	0.176
Mof_H 	H 	0.2746	0.74	0.9892	-0.034
Mof_H 	H 	0.3392	0.8645	0.9675	-0.035
Mof_H 	H 	0.1855	0.6181	0.8654	0.032
Mof_H 	H 	0.8495	0.6538	0.1664	0.01
Mof_H 	H 	0.47	0.355	0.4992	0.293
Mof_H 	H 	0.1346	0.4408	0.8317	-0.009
Mof_H 	H 	0.6689	0.4232	0.0385	0.181
Mof_H 	H 	0.6738	0.558	0.7457	0.019
Mof_H 	H 	0.6855	0.3819	0.6346	0.033
Mof_H 	H 	0.8654	0.5592	0.1683	0.005
Mof_H 	H 	0.3495	0.3462	0.3336	0.001
Mof_H 	H 	0.7965	0.6515	0.2513	0.018
Mof_H 	H 	0.5558	0.4291	0.936	0.028
Mof_H 	H 	0.0943	0.2302	0.9618	-0.021
Mof_H 	H 	0.6505	0.6538	0.6664	0.003
Mof_H 	H 	0.0558	0.5709	0.564	0.011
Mof_H 	H 	0.5832	0.006	0.0245	0.202
Mof_H 	H 	0.1366	0.2698	0.5115	0.017
Mof_H 	H 	0.3869	0.4747	0.7558	0.051
Mof_H 	H 	0.072	0.7681	0.4795	0.097
Mof_H 	H 	0.8545	0.8864	0.9166	0.035
Mof_H 	H 	0.8392	0.1355	0.5325	-0.038
Mof_H 	H 	0.7285	0.9898	0.4926	0.067
Mof_H 	H 	0.2242	0.4126	0.3912	0.006
Mof_H 	H 	0.9902	0.3326	0.8601	0.17
Mof_H 	H 	0.0589	0.4256	0.4996	0.015
Mof_H 	H 	0.7035	0.6515	0.7513	0.018
Mof_H 	H 	0.5362	0.4235	0.3527	0.15
Mof_H 	H 	0.5486	0.3258	0.0328	0.105
Mof_H 	H 	0.1669	0.8188	0.3937	0.113
Mof_H 	H 	0.0453	0.3129	0.7729	0.094
Mof_H 	H 	0.4892	0.2696	0.0933	-0.009
Mof_H 	H 	0.9411	0.5744	0.5004	0.03
Mof_H 	H 	0.0941	0.3223	0.6874	0.096
Mof_H 	H 	0.4512	0.1137	0.4248	0.056
Mof_H 	H 	0.1605	0.4808	0.3319	0.047
Mof_H 	H 	0.9547	0.6871	0.2271	0.093
Mof_H 	H 	0.7658	0.2948	0.5625	-0.075
Mof_H 	H 	0.5842	0.5701	0.3175	-0.001
Mof_H 	H 	0.7342	0.2948	0.0625	-0.072
Mof_H 	H 	0.6605	0.5192	0.1681	0.056
Mof_H 	H 	0.3465	0.5838	0.9348	0.002
Mof_H 	H 	0.1333	0.9793	0.4269	0.205
Mof_H 	H 	0.7734	0.5466	0.3206	-0.006
Mof_H 	H 	0.2792	0.6667	0.9281	0.087
Mof_H 	H 	0.3667	0.9992	0.0688	0.375
Mof_H 	H 	0.9418	0.5854	0.3062	0.104
Mof_H 	H 	0.1343	0.3551	0.6074	0.15
Mof_H 	H 	0.3634	0.2698	0.0115	0.031
Mof_H 	H 	0.2658	0.7052	0.9375	-0.068
Mof_H 	H 	0.7254	0.26	0.0108	-0.042
Mof_H 	H 	0.8262	0.558	0.2457	0.019
Mof_H 	H 	0.5966	0.2333	0.5529	-0.002
Mof_H 	H 	0.8705	0.3455	0.2822	0.062
Mof_H 	H 	0.3331	0.8188	0.8937	0.118
Mof_H 	H 	0.6232	0.5492	0.8821	0.156
Mof_H 	H 	0.6333	0.0008	0.9312	0.377
Mof_H 	H 	0.445	0.846	0.8851	0.135
Mof_H 	H 	0.1455	0.1136	0.0834	0.032
Mof_H 	H 	0.7792	0.3333	0.5719	0.087
Mof_H 	H 	0.1992	0.615	0.5108	0.156
Mof_H 	H 	0.9514	0.3258	0.5328	0.115
Mof_H 	H 	0.9442	0.4291	0.436	0.043
Mof_H 	H 	0.5589	0.5744	0.0004	0.018
Mof_H 	H 	0.6455	0.8864	0.4166	0.034
Mof_H 	H 	0.7525	0.6401	0.8327	-0.002
Mof_H 	H 	0.1638	0.1233	0.5027	0.051
Mof_H 	H 	0.1608	0.8645	0.4675	-0.036
Mof_H 	H 	0.03	0.355	0.9992	0.305
Mof_H 	H 	0.1535	0.5838	0.4348	-0.003
Mof_H 	H 	0.6919	0.3782	0.7168	0.024
Mof_H 	H 	0.4902	0.6674	0.6399	0.149
Mof_H 	H 	0.945	0.154	0.6149	0.143
Mof_H 	H 	0.8395	0.5192	0.6681	0.065
Mof_H 	H 	0.1755	0.2595	0.0982	0.024
Mof_H 	H 	0.9569	0.1485	0.5296	-0.035
Mof_H 	H 	0.2758	0.4126	0.8912	0.006
Mof_H 	H 	0.2208	0.6667	0.4281	0.084
Mof_H 	H 	0.2254	0.74	0.4892	-0.034
Mof_H 	H 	0.8594	0.1116	0.0077	0.046
Mof_H 	H 	0.5108	0.7304	0.9067	-0.006
Mof_H 	H 	0.3081	0.6218	0.2832	0.022
Mof_H 	H 	0.2475	0.3599	0.1673	-0.005
Mof_H 	H 	0.928	0.2319	0.5205	0.114
Mof_H 	H 	0.8331	0.1812	0.6063	0.124
Mof_C 	C 	0.6014	0.5464	0.17837	-0.082
Mof_C 	C 	0.9886	0.4095	0.26189	0.108
Mof_C 	C 	0.4679	0.7781	0.43686	0.097
Mof_C 	C 	0.9578	0.378	0.33655	-0.044
Mof_C 	C 	0.6477	0.9274	0.53317	0.091
Mof_C 	C 	0.5213	0.0045	0.5731	-0.07
Mof_C 	C 	0.7849	0.3852	0.5213	-0.46
Mof_C 	C 	0.1747	0.0065	0.9868	-0.052
Mof_C 	C 	0.8986	0.5464	0.67837	-0.107
Mof_C 	C 	0.5496	0.072	0.55403	0.085
Mof_C 	C 	0.92	0.0392	0.554	-0.529
Mof_C 	C 	0.2095	0.1629	0.4952	-0.009
Mof_C 	C 	0.0696	0.0672	0.9377	-0.051
Mof_C 	C 	0.0894	0.7194	0.4588	-0.248
Mof_C 	C 	0.578	0.5763	0.03093	0.004
Mof_C 	C 	0.0175	0.3879	0.86126	-0.465
Mof_C 	C 	0.6803	0.4158	0.52939	0.462
Mof_C 	C 	0.6155	0.6214	0.8031	-0.25
Mof_C 	C 	0.08	0.9608	0.446	-0.55
Mof_C 	C 	0.1352	0.6106	0.80017	0.006
Mof_C 	C 	0.8299	0.5947	0.38133	-0.425
Mof_C 	C 	0.599	0.179	0.094	-0.298
Mof_C 	C 	0.5491	0.5837	0.59112	0.452
Mof_C 	C 	0.6591	0.7781	0.52716	0.105
Mof_C 	C 	0.401	0.821	0.906	-0.294
Mof_C 	C 	0.5705	0.3732	0.79207	-0.068
Mof_C 	C 	0.8848	0.7648	0.9128	0.011
Mof_C 	C 	0.3253	0.0065	0.4868	-0.086
Mof_C 	C 	0.0213	0.9955	0.9269	-0.108
Mof_C 	C 	0.8051	0.7571	0.5	0.015
Mof_C 	C 	0.0321	0.7781	0.93686	0.072
Mof_C 	C 	0.9266	0.5504	0.72375	-0.041
Mof_C 	C 	0.9304	0.9328	0.0623	-0.096
Mof_C 	C 	0.9856	0.5744	0.56541	0.018
Mof_C 	C 	0.3988	0.3876	0.32755	0.121
Mof_C 	C 	0.597	0.1293	0.048	0.212
Mof_C 	C 	0.3317	0.4167	0.91054	0.089
Mof_C 	C 	0.3986	0.4536	0.82163	-0.082
Mof_C 	C 	0.58	0.0392	0.054	-0.536
Mof_C 	C 	0.422	0.4237	0.96907	0.006
Mof_C 	C 	0.562	0.2656	0.0888	0.093
Mof_C 	C 	0.7151	0.3852	0.0213	-0.482
Mof_C 	C 	0.0995	0.1553	0.0796	0.001
Mof_C 	C 	0.8686	0.3912	0.15469	-0.004
Mof_C 	C 	0.9509	0.5837	0.09112	0.451
Mof_C 	C 	0.124	0.9336	0.9773	-0.087
Mof_C 	C 	0.062	0.7344	0.4112	0.05
Mof_C 	C 	0.0496	0.928	0.94597	0.094
Mof_C 	C 	0.0491	0.4163	0.90888	0.453
Mof_C 	C 	0.9572	0.582	0.64927	0.116
Mof_C 	C 	0.624	0.0664	0.5227	-0.069
Mof_C 	C 	0.1803	0.5842	0.97061	0.451
Mof_C 	C 	0.1155	0.3786	0.6969	-0.251
Mof_C 	C 	0.0422	0.622	0.66345	-0.118
Mof_C 	C 	0.8648	0.3894	0.19983	0.01
Mof_C 	C 	0.8523	0.9274	0.03317	0.107
Mof_C 	C 	0.3686	0.6088	0.34531	-0.004
Mof_C 	C 	0.9846	0.5825	0.81938	0.116
Mof_C 	C 	0.8845	0.6214	0.3031	-0.252
Mof_C 	C 	0.5734	0.5504	0.22375	-0.077
Mof_C 	C 	0.4509	0.4163	0.40888	0.453
Mof_C 	C 	0.8392	0.3568	0.5596	-0.079
Mof_C 	C 	0.4338	0.3701	0.27889	-0.238
Mof_C 	C 	0.5321	0.2219	0.56314	0.097
Mof_C 	C 	0.9106	0.2806	0.5412	-0.291
Mof_C 	C 	0.2905	0.1629	0.9952	0.038
Mof_C 	C 	0.301	0.4005	0.16684	0.138
Mof_C 	C 	0.1608	0.6432	0.4404	-0.077
Mof_C 	C 	0.9338	0.6299	0.22111	-0.225
Mof_C 	C 	0.0213	0.028	0.5758	0.685
Mof_C 	C 	0.1314	0.6088	0.84531	-0.003
Mof_C 	C 	0.8023	0.3001	0.5345	0.228
Mof_C 	C 	0.3409	0.2219	0.47284	0.104
Mof_C 	C 	0.0734	0.4496	0.27625	-0.112
Mof_C 	C 	0.6152	0.7648	0.4128	0.008
Mof_C 	C 	0.0144	0.4256	0.43459	-0.038
Mof_C 	C 	0.938	0.2656	0.5888	0.121
Mof_C 	C 	0.5428	0.582	0.14927	0.084
Mof_C 	C 	0.0662	0.3701	0.77889	-0.247
Mof_C 	C 	0.4106	0.7194	0.9588	-0.264
Mof_C 	C 	0.876	0.0664	0.0227	-0.05
Mof_C 	C 	0.6701	0.5947	0.88133	-0.422
Mof_C 	C 	0.5662	0.6299	0.72111	-0.236
Mof_C 	C 	0.3197	0.5842	0.47061	0.458
Mof_C 	C 	0.1482	0.3866	0.74584	0.046
Mof_C 	C 	0.078	0.4237	0.46907	0.017
Mof_C 	C 	0.6977	0.3001	0.0345	0.225
Mof_C 	C 	0.8518	0.6134	0.25416	0.039
Mof_C 	C 	0.9504	0.072	0.05403	0.076
Mof_C 	C 	0.097	0.8707	0.452	0.206
Mof_C 	C 	0.9825	0.6121	0.13874	-0.363
Mof_C 	C 	0.1949	0.2429	0.5	0.015
Mof_C 	C 	0.4578	0.622	0.16345	-0.081
Mof_C 	C 	0.4266	0.4496	0.77625	-0.076
Mof_C 	C 	0.6683	0.5833	0.08946	0.088
Mof_C 	C 	0.2553	0.4165	0.58695	0.47
Mof_C 	C 	0.7553	0.5835	0.91305	0.469
Mof_C 	C 	0.5995	0.8447	0.4204	0.004
Mof_C 	C 	0.8253	0.9935	0.0132	-0.117
Mof_C 	C 	0.1014	0.4536	0.32163	-0.056
Mof_C 	C 	0.42	0.9608	0.946	-0.537
Mof_C 	C 	0.9005	0.8447	0.9204	0.007
Mof_C 	C 	0.4856	0.4256	0.93459	-0.009
Mof_C 	C 	0.5422	0.378	0.83655	-0.081
Mof_C 	C 	0.2447	0.4165	0.08695	0.472
Mof_C 	C 	0.3523	0.0726	0.46683	0.092
Mof_C 	C 	0.4504	0.928	0.44597	0.083
Mof_C 	C 	0.4572	0.418	0.85073	0.085
Mof_C 	C 	0.4787	0.028	0.0758	0.693
Mof_C 	C 	0.8317	0.5833	0.58946	0.09
Mof_C 	C 	0.5154	0.5825	0.31938	0.093
Mof_C 	C 	0.4825	0.3879	0.36126	-0.419
Mof_C 	C 	0.3051	0.2429	-0	-0.027
Mof_C 	C 	0.1152	0.2352	0.0872	0.006
Mof_C 	C 	0.6314	0.3912	0.65469	-0.003
Mof_C 	C 	0.099	0.821	0.406	-0.279
Mof_C 	C 	0.6608	0.3568	0.0596	-0.072
Mof_C 	C 	0.4295	0.6268	0.20793	-0.068
Mof_C 	C 	0.0705	0.6268	0.70793	-0.043
Mof_C 	C 	0.903	0.1293	0.548	0.215
Mof_C 	C 	0.376	0.9336	0.4773	-0.067
Mof_C 	C 	0.199	0.4005	0.66684	0.134
Mof_C 	C 	0.8409	0.7781	0.02716	0.104
Mof_C 	C 	0.3392	0.6432	0.9404	-0.084
Mof_C 	C 	0.922	0.5763	0.53093	-0.007
Mof_C 	C 	0.7905	0.8371	0.5048	-0.008
Mof_C 	C 	0.403	0.8707	0.952	0.209
Mof_C 	C 	0.5696	0.9328	0.5623	-0.076
Mof_C 	C 	0.4005	0.1553	0.5796	0.004
Mof_C 	C 	0.3648	0.6106	0.30017	0.008
Mof_C 	C 	0.0114	0.5905	0.73811	0.05
Mof_C 	C 	0.1591	0.2219	0.97284	0.105
Mof_C 	C 	0.7095	0.8371	0.0048	-0.022
Mof_C 	C 	0.3299	0.4053	0.11867	-0.425
Mof_C 	C 	0.6482	0.6134	0.75416	0.041
Mof_C 	C 	0.2849	0.6148	0.9787	-0.422
Mof_C 	C 	0.3023	0.6999	0.9655	0.205
Mof_C 	C 	0.3848	0.2352	0.5872	0.008
Mof_C 	C 	0.438	0.7344	0.9112	0.085
Mof_C 	C 	0.9787	0.0045	0.0731	-0.041
Mof_C 	C 	0.9787	0.972	0.4242	0.707
Mof_C 	C 	0.8988	0.6124	0.17245	0.095
Mof_C 	C 	0.4304	0.0672	0.4377	-0.079
Mof_C 	C 	0.6949	0.7571	-0	0.001
Mof_C 	C 	0.1701	0.4053	0.61867	-0.422
Mof_C 	C 	0.8197	0.4158	0.02939	0.468
Mof_C 	C 	0.699	0.5995	0.83316	0.134
Mof_C 	C 	0.0428	0.418	0.35073	0.053
Mof_C 	C 	0.0154	0.4175	0.18062	0.07
Mof_C 	C 	0.6012	0.6124	0.67245	0.119
Mof_C 	C 	0.6747	0.9935	0.5132	-0.083
Mof_C 	C 	0.6352	0.3894	0.69983	0.008
Mof_C 	C 	0.4846	0.4175	0.68062	0.093
Mof_C 	C 	0.3845	0.3786	0.1969	-0.253
Mof_C 	C 	0.1977	0.6999	0.4655	0.2
Mof_C 	C 	0.4886	0.5905	0.23811	0.078
Mof_C 	C 	0.5114	0.4095	0.76189	0.078
Mof_C 	C 	0.5213	0.972	0.9242	0.695
Mof_C 	C 	0.1012	0.3876	0.82755	0.141
Mof_C 	C 	0.3518	0.3866	0.24584	0.044
Mof_C 	C 	0.2151	0.6148	0.4787	-0.445
Mof_C 	C 	0.901	0.179	0.594	-0.31
Mof_C 	C 	0.1477	0.0726	0.96683	0.075
Mof_C 	C 	0.4787	0.9955	0.4269	-0.067
Mof_C 	C 	0.5894	0.2806	0.0412	-0.279
Mof_C 	C 	0.5175	0.6121	0.63874	-0.418
Mof_C 	C 	0.5144	0.5744	0.06541	-0.012
Mof_C 	C 	0.7447	0.5835	0.41305	0.471
Mof_C 	C 	0.1683	0.4167	0.41054	0.086
Mof_C 	C 	0.9295	0.3732	0.29207	-0.094
Mof_C 	C 	0.9679	0.2219	0.06314	0.118
Mof_C 	C 	0.801	0.5995	0.33316	0.138
Mof_N 	N 	0.0324	0.277	0.07694	-0.233
Mof_N 	N 	0.6741	0.5815	0.04603	-0.221
Mof_N 	N 	0.5739	0.5786	0.10363	-0.136
Mof_N 	N 	0.3026	0.1487	0.47751	-0.136
Mof_N 	N 	0.6974	0.8513	0.52249	-0.135
Mof_N 	N 	0.4974	0.1463	0.56498	-0.136
Mof_N 	N 	0.3259	0.4185	0.95397	-0.218
Mof_N 	N 	0.0423	0.5935	0.78392	-0.141
Mof_N 	N 	0.1974	0.1487	0.97751	-0.138
Mof_N 	N 	0.4644	0.5911	0.35678	-0.216
Mof_N 	N 	0.4261	0.4214	0.89637	-0.136
Mof_N 	N 	0.5423	0.4065	0.71608	-0.137
Mof_N 	N 	0.4676	0.277	0.57694	-0.224
Mof_N 	N 	0.0026	0.1463	0.06498	-0.146
Mof_N 	N 	0.5324	0.723	0.42306	-0.224
Mof_N 	N 	0.9676	0.723	0.92306	-0.213
Mof_N 	N 	0.9577	0.4065	0.21608	-0.134
Mof_N 	N 	0.0739	0.4214	0.39637	-0.128
Mof_N 	N 	0.7216	0.72	0.51473	-0.224
Mof_N 	N 	0.5026	0.8537	0.43502	-0.136
Mof_N 	N 	0.9974	0.8537	0.93502	-0.124
Mof_N 	N 	0.2216	0.28	0.98527	-0.213
Mof_N 	N 	0.9644	0.4089	0.14322	-0.205
Mof_N 	N 	0.8259	0.5815	0.54603	-0.218
Mof_N 	N 	0.7784	0.72	0.01473	-0.224
Mof_N 	N 	0.9261	0.5786	0.60363	-0.144
Mof_N 	N 	0.0356	0.5911	0.85678	-0.227
Mof_N 	N 	0.4577	0.5935	0.28392	-0.137
Mof_N 	N 	0.5356	0.4089	0.64322	-0.216
Mof_N 	N 	0.2784	0.28	0.48527	-0.224
Mof_N 	N 	0.8026	0.8513	0.02249	-0.137
Mof_N 	N 	0.1741	0.4185	0.45397	-0.221
Mof_O 	O 	0.6	0.972	0.9432	-0.728
Mof_O 	O 	0.1588	0.4203	0.10252	-0.457
Mof_O 	O 	0.6293	0.3852	0.55822	-0.457
Mof_O 	O 	0.6493	0.47002	0.50623	-0.54
Mof_O 	O 	0.4995	0.0253	0.1118	-0.434
Mof_O 	O 	0.7696	0.579	0.45302	-0.454
Mof_O 	O 	0.995	0.46998	0.93106	-0.523
Mof_O 	O 	0.495	0.53002	0.56894	-0.534
Mof_O 	O 	0.8707	0.3852	0.05822	-0.455
Mof_O 	O 	0.005	0.53002	0.06894	-0.543
Mof_O 	O 	0.3753	0.385	0.4238	-0.45
Mof_O 	O 	0.557	0.60555	0.48637	-0.803
Mof_O 	O 	0.443	0.39445	0.51363	-0.803
Mof_O 	O 	0.0005	0.0253	0.6118	-0.436
Mof_O 	O 	0.2304	0.421	0.54698	-0.455
Mof_O 	O 	0.057	0.39445	0.01363	-0.821
Mof_O 	O 	0.505	0.46998	0.43106	-0.534
Mof_O 	O 	0.8753	0.615	0.0762	-0.448
Mof_O 	O 	0.5005	0.9747	0.8882	-0.433
Mof_O 	O 	0.2696	0.421	0.04698	-0.459
Mof_O 	O 	0.3707	0.6148	0.44178	-0.456
Mof_O 	O 	0.3507	0.52998	0.49377	-0.539
Mof_O 	O 	0.6588	0.5797	0.39748	-0.456
Mof_O 	O 	0.6247	0.615	0.5762	-0.449
Mof_O 	O 	0.4	0.028	0.0568	-0.731
Mof_O 	O 	0.7304	0.579	0.95302	-0.449
Mof_O 	O 	0.1	0.028	0.5568	-0.729
Mof_O 	O 	0.943	0.60555	0.98637	-0.781
Mof_O 	O 	0.3412	0.4203	0.60252	-0.456
Mof_O 	O 	0.8412	0.5797	0.89748	-0.454
Mof_O 	O 	0.9	0.972	0.4432	-0.731
Mof_O 	O 	0.1247	0.385	0.9238	-0.45
Mof_O 	O 	0.8507	0.47002	0.00623	-0.544
Mof_O 	O 	0.1493	0.52998	0.99377	-0.532
Mof_O 	O 	0.1293	0.6148	0.94178	-0.457
Mof_O 	O 	0.9995	0.9747	0.3882	-0.43
_end
