data_functionalizedCrystal
_audit_creation_method	'EQeq! by Chris Wilmer'
_symmetry_space_group_name_H-M	'P1'
_symmetry_Int_Tables_number	1
_symmetry_cell_setting	triclinic
loop_
_symmetry_equiv_pos_as_xyz
  x,y,z
_cell_length_a	12.58
_cell_length_b	26.713
_cell_length_c	33.455
_cell_angle_alpha	90
_cell_angle_beta	90
_cell_angle_gamma	90
loop_
_atom_site_label
_atom_site_type_symbol
_atom_site_fract_x
_atom_site_fract_y
_atom_site_fract_z
_atom_site_charge
Mof_Co	Co	0.51462	0.93124	0.38532	1.174
Mof_Co	Co	0.98538	0.43124	0.61468	1.173
Mof_Co	Co	0.01462	0.43124	0.11468	1.173
Mof_Co	Co	0.48538	0.93124	0.88532	1.174
Mof_Ag	Ag	0.74111	0.28008	0.36232	0.557
Mof_Ag	Ag	0.75889	0.78008	0.63768	0.557
Mof_Ag	Ag	0.24111	0.78008	0.13768	0.557
Mof_Ag	Ag	0.25889	0.28008	0.86232	0.557
Mof_H 	H 	0.2838	0.9583	0.3563	0.012
Mof_H 	H 	0.2225	0.0435	0.3368	0.034
Mof_H 	H 	0.3786	0.1015	0.3442	0.057
Mof_H 	H 	0.7742	0.0738	0.4012	0.062
Mof_H 	H 	0.8705	0.9983	0.4266	0.036
Mof_H 	H 	0.7461	0.9251	0.4196	0.014
Mof_H 	H 	0.689	0.0963	0.3201	0.092
Mof_H 	H 	0.7381	0.1796	0.3132	-0.023
Mof_H 	H 	0.5531	0.2198	0.401	-0.032
Mof_H 	H 	0.4953	0.1384	0.4102	0.098
Mof_H 	H 	0.6945	0.9698	0.3286	0.015
Mof_H 	H 	0.7061	0.9505	0.2547	0.033
Mof_H 	H 	0.5516	0.8969	0.2381	0.071
Mof_H 	H 	0.2417	0.8129	0.3285	0.063
Mof_H 	H 	0.1934	0.8221	0.4005	0.04
Mof_H 	H 	0.3288	0.88	0.431	0.011
Mof_H 	H 	0.5051	0.8028	0.2558	0.096
Mof_H 	H 	0.4387	0.7681	0.1978	-0.032
Mof_H 	H 	0.1738	0.8448	0.2098	-0.03
Mof_H 	H 	0.2335	0.8808	0.2684	0.094
Mof_H 	H 	0.6476	0.8469	0.344	0.012
Mof_H 	H 	0.7511	0.7812	0.3803	0.041
Mof_H 	H 	0.7265	0.7962	0.4537	0.064
Mof_H 	H 	0.4624	0.9204	0.5347	0.066
Mof_H 	H 	0.3353	0.9872	0.5113	0.043
Mof_H 	H 	0.3612	0.996	0.4372	0.01
Mof_H 	H 	0.555	0.7831	0.5038	0.091
Mof_H 	H 	0.6225	0.7516	0.5623	-0.028
Mof_H 	H 	0.765	0.8789	0.5868	-0.024
Mof_H 	H 	0.6975	0.9154	0.5292	0.091
Mof_H 	H 	0.2162	0.4583	0.6437	0.012
Mof_H 	H 	0.2775	0.5435	0.6632	0.034
Mof_H 	H 	0.1214	0.6015	0.6558	0.058
Mof_H 	H 	0.7258	0.5738	0.5988	0.062
Mof_H 	H 	0.6295	0.4983	0.5734	0.036
Mof_H 	H 	0.7539	0.4251	0.5804	0.014
Mof_H 	H 	0.811	0.5963	0.6799	0.092
Mof_H 	H 	0.7619	0.6796	0.6868	-0.024
Mof_H 	H 	0.9469	0.7198	0.599	-0.033
Mof_H 	H 	0.0047	0.6384	0.5898	0.1
Mof_H 	H 	0.8055	0.4698	0.6714	0.014
Mof_H 	H 	0.7939	0.4505	0.7453	0.033
Mof_H 	H 	0.9484	0.3969	0.7619	0.07
Mof_H 	H 	0.2583	0.3129	0.6715	0.063
Mof_H 	H 	0.3066	0.3221	0.5995	0.04
Mof_H 	H 	0.1712	0.38	0.569	0.011
Mof_H 	H 	0.9949	0.3028	0.7442	0.092
Mof_H 	H 	0.0613	0.2681	0.8022	-0.031
Mof_H 	H 	0.3262	0.3448	0.7902	-0.029
Mof_H 	H 	0.2665	0.3808	0.7316	0.093
Mof_H 	H 	0.8524	0.3469	0.656	0.012
Mof_H 	H 	0.7489	0.2812	0.6197	0.041
Mof_H 	H 	0.7735	0.2962	0.5463	0.064
Mof_H 	H 	0.0376	0.4204	0.4653	0.066
Mof_H 	H 	0.1647	0.4872	0.4887	0.043
Mof_H 	H 	0.1388	0.496	0.5628	0.01
Mof_H 	H 	0.945	0.2831	0.4962	0.091
Mof_H 	H 	0.8775	0.2516	0.4377	-0.028
Mof_H 	H 	0.735	0.3789	0.4132	-0.024
Mof_H 	H 	0.8025	0.4154	0.4708	0.091
Mof_H 	H 	0.7838	0.4583	0.1437	0.012
Mof_H 	H 	0.7225	0.5435	0.1632	0.034
Mof_H 	H 	0.8786	0.6015	0.1558	0.058
Mof_H 	H 	0.2742	0.5738	0.0988	0.062
Mof_H 	H 	0.3705	0.4983	0.0734	0.036
Mof_H 	H 	0.2461	0.4251	0.0804	0.014
Mof_H 	H 	0.189	0.5963	0.1799	0.092
Mof_H 	H 	0.2381	0.6796	0.1868	-0.024
Mof_H 	H 	0.0531	0.7198	0.099	-0.033
Mof_H 	H 	0.9953	0.6384	0.0898	0.1
Mof_H 	H 	0.1945	0.4698	0.1714	0.014
Mof_H 	H 	0.2061	0.4505	0.2453	0.033
Mof_H 	H 	0.0516	0.3969	0.2619	0.07
Mof_H 	H 	0.7417	0.3129	0.1715	0.063
Mof_H 	H 	0.6934	0.3221	0.0995	0.04
Mof_H 	H 	0.8288	0.38	0.069	0.011
Mof_H 	H 	0.0051	0.3028	0.2442	0.092
Mof_H 	H 	0.9387	0.2681	0.3022	-0.031
Mof_H 	H 	0.6738	0.3448	0.2902	-0.029
Mof_H 	H 	0.7335	0.3808	0.2316	0.093
Mof_H 	H 	0.1476	0.3469	0.156	0.012
Mof_H 	H 	0.2511	0.2812	0.1197	0.041
Mof_H 	H 	0.2265	0.2962	0.0463	0.064
Mof_H 	H 	0.9624	0.4204	0.9653	0.066
Mof_H 	H 	0.8353	0.4872	0.9887	0.042
Mof_H 	H 	0.8612	0.496	0.0628	0.011
Mof_H 	H 	0.055	0.2831	0.9962	0.092
Mof_H 	H 	0.1225	0.2516	0.9377	-0.028
Mof_H 	H 	0.265	0.3789	0.9132	-0.024
Mof_H 	H 	0.1975	0.4154	0.9708	0.091
Mof_H 	H 	0.7162	0.9583	0.8563	0.012
Mof_H 	H 	0.7775	0.0435	0.8368	0.034
Mof_H 	H 	0.6214	0.1015	0.8442	0.057
Mof_H 	H 	0.2258	0.0738	0.9012	0.062
Mof_H 	H 	0.1295	0.9983	0.9266	0.036
Mof_H 	H 	0.2539	0.9251	0.9196	0.014
Mof_H 	H 	0.311	0.0963	0.8201	0.092
Mof_H 	H 	0.2619	0.1796	0.8132	-0.023
Mof_H 	H 	0.4469	0.2198	0.901	-0.032
Mof_H 	H 	0.5047	0.1384	0.9102	0.098
Mof_H 	H 	0.3055	0.9698	0.8286	0.015
Mof_H 	H 	0.2939	0.9505	0.7547	0.033
Mof_H 	H 	0.4484	0.8969	0.7381	0.071
Mof_H 	H 	0.7583	0.8129	0.8285	0.063
Mof_H 	H 	0.8066	0.8221	0.9005	0.039
Mof_H 	H 	0.6712	0.88	0.931	0.011
Mof_H 	H 	0.4949	0.8028	0.7558	0.096
Mof_H 	H 	0.5613	0.7681	0.6978	-0.032
Mof_H 	H 	0.8262	0.8448	0.7098	-0.03
Mof_H 	H 	0.7665	0.8808	0.7684	0.094
Mof_H 	H 	0.3524	0.8469	0.844	0.012
Mof_H 	H 	0.2489	0.7812	0.8803	0.041
Mof_H 	H 	0.2735	0.7962	0.9537	0.064
Mof_H 	H 	0.5376	0.9204	0.0347	0.066
Mof_H 	H 	0.6647	0.9872	0.0113	0.043
Mof_H 	H 	0.6388	0.996	0.9372	0.01
Mof_H 	H 	0.445	0.7831	0.0038	0.091
Mof_H 	H 	0.3775	0.7516	0.0623	-0.028
Mof_H 	H 	0.235	0.8789	0.0868	-0.024
Mof_H 	H 	0.3025	0.9154	0.0292	0.091
Mof_C 	C 	0.3268	0.98753	0.35696	0.027
Mof_C 	C 	0.2918	0.03486	0.34568	-0.043
Mof_C 	C 	0.3773	0.0667	0.34997	-0.103
Mof_C 	C 	0.4628	0.0375	0.3647	0.116
Mof_C 	C 	0.5646	0.05399	0.37476	-0.163
Mof_C 	C 	0.6439	0.02453	0.3911	0.117
Mof_C 	C 	0.7472	0.04066	0.40271	-0.108
Mof_C 	C 	0.8	0.9994	0.41641	-0.041
Mof_C 	C 	0.7294	0.95863	0.41246	0.024
Mof_C 	C 	0.5905	0.10748	0.36786	0.153
Mof_C 	C 	0.661	0.12088	0.33768	-0.197
Mof_C 	C 	0.6896	0.17085	0.33379	0.1
Mof_C 	C 	0.5822	0.19426	0.38459	0.106
Mof_C 	C 	0.5478	0.14549	0.3906	-0.206
Mof_C 	C 	0.6458	0.94948	0.31416	0.021
Mof_C 	C 	0.6529	0.93904	0.27269	-0.03
Mof_C 	C 	0.5689	0.90951	0.2638	-0.113
Mof_C 	C 	0.511	0.90065	0.29964	0.121
Mof_C 	C 	0.4206	0.87169	0.30444	-0.164
Mof_C 	C 	0.3665	0.86431	0.34032	0.116
Mof_C 	C 	0.2771	0.83323	0.34766	-0.105
Mof_C 	C 	0.2509	0.8378	0.38703	-0.043
Mof_C 	C 	0.3269	0.87059	0.4036	0.031
Mof_C 	C 	0.3782	0.84634	0.26794	0.159
Mof_C 	C 	0.4366	0.81232	0.24656	-0.208
Mof_C 	C 	0.397	0.79187	0.21189	0.118
Mof_C 	C 	0.2429	0.8367	0.21921	0.103
Mof_C 	C 	0.2776	0.8582	0.25406	-0.199
Mof_C 	C 	0.6499	0.84317	0.37218	0.027
Mof_C 	C 	0.7089	0.8066	0.39225	-0.042
Mof_C 	C 	0.6943	0.8143	0.43248	-0.104
Mof_C 	C 	0.6216	0.85483	0.43624	0.113
Mof_C 	C 	0.581	0.87533	0.47132	-0.158
Mof_C 	C 	0.508	0.91449	0.47375	0.114
Mof_C 	C 	0.4531	0.9318	0.50804	-0.103
Mof_C 	C 	0.3834	0.96856	0.49522	-0.04
Mof_C 	C 	0.3982	0.97282	0.45365	0.027
Mof_C 	C 	0.6198	0.85286	0.50935	0.144
Mof_C 	C 	0.598	0.80364	0.52037	-0.196
Mof_C 	C 	0.6388	0.78515	0.55517	0.101
Mof_C 	C 	0.7214	0.85933	0.56967	0.097
Mof_C 	C 	0.6821	0.88142	0.53513	-0.191
Mof_C 	C 	0.1732	0.48753	0.64304	0.027
Mof_C 	C 	0.2082	0.53486	0.65432	-0.043
Mof_C 	C 	0.1227	0.5667	0.65003	-0.104
Mof_C 	C 	0.0372	0.5375	0.6353	0.118
Mof_C 	C 	0.9354	0.55399	0.62524	-0.166
Mof_C 	C 	0.8561	0.52453	0.6089	0.118
Mof_C 	C 	0.7528	0.54066	0.59729	-0.108
Mof_C 	C 	0.7	0.4994	0.58359	-0.04
Mof_C 	C 	0.7706	0.45863	0.58754	0.024
Mof_C 	C 	0.9095	0.60748	0.63214	0.155
Mof_C 	C 	0.839	0.62088	0.66232	-0.198
Mof_C 	C 	0.8104	0.67085	0.66621	0.1
Mof_C 	C 	0.9178	0.69426	0.61541	0.107
Mof_C 	C 	0.9522	0.64549	0.6094	-0.208
Mof_C 	C 	0.8542	0.44948	0.68584	0.021
Mof_C 	C 	0.8471	0.43904	0.72731	-0.031
Mof_C 	C 	0.9311	0.40951	0.7362	-0.111
Mof_C 	C 	0.989	0.40065	0.70036	0.119
Mof_C 	C 	0.0794	0.37169	0.69556	-0.161
Mof_C 	C 	0.1335	0.36431	0.65968	0.115
Mof_C 	C 	0.2229	0.33323	0.65234	-0.104
Mof_C 	C 	0.2491	0.3378	0.61297	-0.044
Mof_C 	C 	0.1731	0.37059	0.5964	0.031
Mof_C 	C 	0.1218	0.34634	0.73206	0.156
Mof_C 	C 	0.0634	0.31232	0.75344	-0.202
Mof_C 	C 	0.103	0.29187	0.78811	0.115
Mof_C 	C 	0.2571	0.3367	0.78079	0.102
Mof_C 	C 	0.2224	0.3582	0.74594	-0.197
Mof_C 	C 	0.8501	0.34317	0.62782	0.027
Mof_C 	C 	0.7911	0.3066	0.60775	-0.042
Mof_C 	C 	0.8057	0.3143	0.56752	-0.104
Mof_C 	C 	0.8784	0.35483	0.56376	0.113
Mof_C 	C 	0.919	0.37533	0.52868	-0.158
Mof_C 	C 	0.992	0.41449	0.52625	0.113
Mof_C 	C 	0.0469	0.4318	0.49196	-0.102
Mof_C 	C 	0.1166	0.46856	0.50478	-0.04
Mof_C 	C 	0.1018	0.47282	0.54635	0.028
Mof_C 	C 	0.8802	0.35286	0.49065	0.144
Mof_C 	C 	0.902	0.30364	0.47963	-0.196
Mof_C 	C 	0.8612	0.28515	0.44483	0.101
Mof_C 	C 	0.7786	0.35933	0.43033	0.097
Mof_C 	C 	0.8179	0.38142	0.46487	-0.191
Mof_C 	C 	0.8268	0.48753	0.14304	0.027
Mof_C 	C 	0.7918	0.53486	0.15432	-0.043
Mof_C 	C 	0.8773	0.5667	0.15003	-0.104
Mof_C 	C 	0.9628	0.5375	0.1353	0.118
Mof_C 	C 	0.0646	0.55399	0.12524	-0.166
Mof_C 	C 	0.1439	0.52453	0.1089	0.118
Mof_C 	C 	0.2472	0.54066	0.09729	-0.108
Mof_C 	C 	0.3	0.4994	0.08359	-0.04
Mof_C 	C 	0.2294	0.45863	0.08754	0.024
Mof_C 	C 	0.0905	0.60748	0.13214	0.155
Mof_C 	C 	0.161	0.62088	0.16232	-0.198
Mof_C 	C 	0.1896	0.67085	0.16621	0.1
Mof_C 	C 	0.0822	0.69426	0.11541	0.108
Mof_C 	C 	0.0478	0.64549	0.1094	-0.209
Mof_C 	C 	0.1458	0.44948	0.18584	0.021
Mof_C 	C 	0.1529	0.43904	0.22731	-0.031
Mof_C 	C 	0.0689	0.40951	0.2362	-0.111
Mof_C 	C 	0.011	0.40065	0.20036	0.118
Mof_C 	C 	0.9206	0.37169	0.19556	-0.161
Mof_C 	C 	0.8665	0.36431	0.15968	0.115
Mof_C 	C 	0.7771	0.33323	0.15234	-0.104
Mof_C 	C 	0.7509	0.3378	0.11297	-0.044
Mof_C 	C 	0.8269	0.37059	0.0964	0.031
Mof_C 	C 	0.8782	0.34634	0.23206	0.156
Mof_C 	C 	0.9366	0.31232	0.25344	-0.202
Mof_C 	C 	0.897	0.29187	0.28811	0.115
Mof_C 	C 	0.7429	0.3367	0.28079	0.102
Mof_C 	C 	0.7776	0.3582	0.24594	-0.197
Mof_C 	C 	0.1499	0.34317	0.12782	0.027
Mof_C 	C 	0.2089	0.3066	0.10775	-0.042
Mof_C 	C 	0.1943	0.3143	0.06752	-0.104
Mof_C 	C 	0.1216	0.35483	0.06376	0.113
Mof_C 	C 	0.081	0.37533	0.02868	-0.158
Mof_C 	C 	0.008	0.41449	0.02625	0.113
Mof_C 	C 	0.9531	0.4318	0.99196	-0.103
Mof_C 	C 	0.8834	0.46856	0.00478	-0.039
Mof_C 	C 	0.8982	0.47282	0.04635	0.027
Mof_C 	C 	0.1198	0.35286	0.99065	0.145
Mof_C 	C 	0.098	0.30364	0.97963	-0.196
Mof_C 	C 	0.1388	0.28515	0.94483	0.101
Mof_C 	C 	0.2214	0.35933	0.93033	0.097
Mof_C 	C 	0.1821	0.38142	0.96487	-0.191
Mof_C 	C 	0.6732	0.98753	0.85696	0.027
Mof_C 	C 	0.7082	0.03486	0.84568	-0.044
Mof_C 	C 	0.6227	0.0667	0.84997	-0.103
Mof_C 	C 	0.5372	0.0375	0.8647	0.116
Mof_C 	C 	0.4354	0.05399	0.87476	-0.163
Mof_C 	C 	0.3561	0.02453	0.8911	0.117
Mof_C 	C 	0.2528	0.04066	0.90271	-0.108
Mof_C 	C 	0.2	0.9994	0.91641	-0.04
Mof_C 	C 	0.2706	0.95863	0.91246	0.024
Mof_C 	C 	0.4095	0.10748	0.86786	0.153
Mof_C 	C 	0.339	0.12088	0.83768	-0.197
Mof_C 	C 	0.3104	0.17085	0.83379	0.1
Mof_C 	C 	0.4178	0.19426	0.88459	0.106
Mof_C 	C 	0.4522	0.14549	0.8906	-0.206
Mof_C 	C 	0.3542	0.94948	0.81416	0.021
Mof_C 	C 	0.3471	0.93904	0.77269	-0.03
Mof_C 	C 	0.4311	0.90951	0.7638	-0.113
Mof_C 	C 	0.489	0.90065	0.79964	0.121
Mof_C 	C 	0.5794	0.87169	0.80444	-0.164
Mof_C 	C 	0.6335	0.86431	0.84032	0.116
Mof_C 	C 	0.7229	0.83323	0.84766	-0.105
Mof_C 	C 	0.7491	0.8378	0.88703	-0.043
Mof_C 	C 	0.6731	0.87059	0.9036	0.031
Mof_C 	C 	0.6218	0.84634	0.76794	0.159
Mof_C 	C 	0.5634	0.81232	0.74656	-0.208
Mof_C 	C 	0.603	0.79187	0.71189	0.118
Mof_C 	C 	0.7571	0.8367	0.71921	0.103
Mof_C 	C 	0.7224	0.8582	0.75406	-0.199
Mof_C 	C 	0.3501	0.84317	0.87218	0.027
Mof_C 	C 	0.2911	0.8066	0.89225	-0.042
Mof_C 	C 	0.3057	0.8143	0.93248	-0.104
Mof_C 	C 	0.3784	0.85483	0.93624	0.113
Mof_C 	C 	0.419	0.87533	0.97132	-0.158
Mof_C 	C 	0.492	0.91449	0.97375	0.114
Mof_C 	C 	0.5469	0.9318	0.00804	-0.102
Mof_C 	C 	0.6166	0.96856	0.99522	-0.04
Mof_C 	C 	0.6018	0.97282	0.95365	0.027
Mof_C 	C 	0.3802	0.85286	0.00935	0.144
Mof_C 	C 	0.402	0.80364	0.02037	-0.196
Mof_C 	C 	0.3612	0.78515	0.05517	0.1
Mof_C 	C 	0.2786	0.85933	0.06967	0.097
Mof_C 	C 	0.3179	0.88142	0.03513	-0.19
Mof_N 	N 	0.4287	0.98806	0.36884	-0.256
Mof_N 	N 	0.6359	0.97318	0.39734	-0.257
Mof_N 	N 	0.653	0.20718	0.35732	-0.216
Mof_N 	N 	0.5609	0.92669	0.33032	-0.257
Mof_N 	N 	0.3951	0.88666	0.37646	-0.257
Mof_N 	N 	0.3025	0.80439	0.19759	-0.215
Mof_N 	N 	0.597	0.87219	0.39806	-0.256
Mof_N 	N 	0.4707	0.94032	0.4401	-0.257
Mof_N 	N 	0.7012	0.8121	0.58002	-0.214
Mof_N 	N 	0.0713	0.48806	0.63116	-0.255
Mof_N 	N 	0.8641	0.47318	0.60266	-0.257
Mof_N 	N 	0.847	0.70718	0.64268	-0.217
Mof_N 	N 	0.9391	0.42669	0.66968	-0.256
Mof_N 	N 	0.1049	0.38666	0.62354	-0.257
Mof_N 	N 	0.1975	0.30439	0.80241	-0.214
Mof_N 	N 	0.903	0.37219	0.60194	-0.257
Mof_N 	N 	0.0293	0.44032	0.5599	-0.257
Mof_N 	N 	0.7988	0.3121	0.41998	-0.214
Mof_N 	N 	0.9287	0.48806	0.13116	-0.255
Mof_N 	N 	0.1359	0.47318	0.10266	-0.257
Mof_N 	N 	0.153	0.70718	0.14268	-0.217
Mof_N 	N 	0.0609	0.42669	0.16968	-0.256
Mof_N 	N 	0.8951	0.38666	0.12354	-0.257
Mof_N 	N 	0.8025	0.30439	0.30241	-0.214
Mof_N 	N 	0.097	0.37219	0.10194	-0.257
Mof_N 	N 	0.9707	0.44032	0.0599	-0.257
Mof_N 	N 	0.2012	0.3121	0.91998	-0.214
Mof_N 	N 	0.5713	0.98806	0.86884	-0.256
Mof_N 	N 	0.3641	0.97318	0.89734	-0.257
Mof_N 	N 	0.347	0.20718	0.85732	-0.216
Mof_N 	N 	0.4391	0.92669	0.83032	-0.257
Mof_N 	N 	0.6049	0.88666	0.87646	-0.257
Mof_N 	N 	0.6975	0.80439	0.69759	-0.215
Mof_N 	N 	0.403	0.87219	0.89806	-0.256
Mof_N 	N 	0.5293	0.94032	0.9401	-0.257
Mof_N 	N 	0.2988	0.8121	0.08002	-0.214
Mof_Co	Co	0.98538	0.56876	0.88532	1.172
Mof_Co	Co	0.51462	0.06876	0.11468	1.173
Mof_Co	Co	0.48538	0.06876	0.61468	1.173
Mof_Co	Co	0.01462	0.56876	0.38532	1.172
Mof_Ag	Ag	0.75889	0.21992	0.86232	0.557
Mof_Ag	Ag	0.74111	0.71992	0.13768	0.557
Mof_Ag	Ag	0.25889	0.71992	0.63768	0.557
Mof_Ag	Ag	0.24111	0.21992	0.36232	0.557
Mof_H 	H 	0.2162	0.5417	0.8563	0.012
Mof_H 	H 	0.2775	0.4565	0.8368	0.034
Mof_H 	H 	0.1214	0.3985	0.8442	0.058
Mof_H 	H 	0.7258	0.4262	0.9012	0.062
Mof_H 	H 	0.6295	0.5017	0.9266	0.036
Mof_H 	H 	0.7539	0.5749	0.9196	0.014
Mof_H 	H 	0.811	0.4037	0.8201	0.092
Mof_H 	H 	0.7619	0.3204	0.8132	-0.024
Mof_H 	H 	0.9469	0.2802	0.901	-0.033
Mof_H 	H 	0.0047	0.3616	0.9102	0.1
Mof_H 	H 	0.8055	0.5302	0.8286	0.014
Mof_H 	H 	0.7939	0.5495	0.7547	0.033
Mof_H 	H 	0.9484	0.6031	0.7381	0.07
Mof_H 	H 	0.2583	0.6871	0.8285	0.063
Mof_H 	H 	0.3066	0.6779	0.9005	0.04
Mof_H 	H 	0.1712	0.62	0.931	0.011
Mof_H 	H 	0.9949	0.6972	0.7558	0.092
Mof_H 	H 	0.0613	0.7319	0.6978	-0.031
Mof_H 	H 	0.3262	0.6552	0.7098	-0.029
Mof_H 	H 	0.2665	0.6192	0.7684	0.093
Mof_H 	H 	0.8524	0.6531	0.844	0.012
Mof_H 	H 	0.7489	0.7188	0.8803	0.041
Mof_H 	H 	0.7735	0.7038	0.9537	0.064
Mof_H 	H 	0.0376	0.5796	0.0347	0.066
Mof_H 	H 	0.1647	0.5128	0.0113	0.042
Mof_H 	H 	0.1388	0.504	0.9372	0.011
Mof_H 	H 	0.945	0.7169	0.0038	0.092
Mof_H 	H 	0.8775	0.7484	0.0623	-0.028
Mof_H 	H 	0.735	0.6211	0.0868	-0.024
Mof_H 	H 	0.8025	0.5846	0.0292	0.091
Mof_H 	H 	0.2838	0.0417	0.1437	0.012
Mof_H 	H 	0.2225	0.9565	0.1632	0.034
Mof_H 	H 	0.3786	0.8985	0.1558	0.057
Mof_H 	H 	0.7742	0.9262	0.0988	0.062
Mof_H 	H 	0.8705	0.0017	0.0734	0.036
Mof_H 	H 	0.7461	0.0749	0.0804	0.014
Mof_H 	H 	0.689	0.9037	0.1799	0.092
Mof_H 	H 	0.7381	0.8204	0.1868	-0.023
Mof_H 	H 	0.5531	0.7802	0.099	-0.032
Mof_H 	H 	0.4953	0.8616	0.0898	0.098
Mof_H 	H 	0.6945	0.0302	0.1714	0.015
Mof_H 	H 	0.7061	0.0495	0.2453	0.033
Mof_H 	H 	0.5516	0.1031	0.2619	0.071
Mof_H 	H 	0.2417	0.1871	0.1715	0.063
Mof_H 	H 	0.1934	0.1779	0.0995	0.039
Mof_H 	H 	0.3288	0.12	0.069	0.011
Mof_H 	H 	0.5051	0.1972	0.2442	0.096
Mof_H 	H 	0.4387	0.2319	0.3022	-0.032
Mof_H 	H 	0.1738	0.1552	0.2902	-0.03
Mof_H 	H 	0.2335	0.1192	0.2316	0.094
Mof_H 	H 	0.6476	0.1531	0.156	0.012
Mof_H 	H 	0.7511	0.2188	0.1197	0.041
Mof_H 	H 	0.7265	0.2038	0.0463	0.064
Mof_H 	H 	0.4624	0.0796	0.9653	0.066
Mof_H 	H 	0.3353	0.0128	0.9887	0.043
Mof_H 	H 	0.3612	0.004	0.0628	0.01
Mof_H 	H 	0.555	0.2169	0.9962	0.091
Mof_H 	H 	0.6225	0.2484	0.9377	-0.028
Mof_H 	H 	0.765	0.1211	0.9132	-0.024
Mof_H 	H 	0.6975	0.0846	0.9708	0.091
Mof_H 	H 	0.7162	0.0417	0.6437	0.012
Mof_H 	H 	0.7775	0.9565	0.6632	0.034
Mof_H 	H 	0.6214	0.8985	0.6558	0.057
Mof_H 	H 	0.2258	0.9262	0.5988	0.062
Mof_H 	H 	0.1295	0.0017	0.5734	0.036
Mof_H 	H 	0.2539	0.0749	0.5804	0.014
Mof_H 	H 	0.311	0.9037	0.6799	0.092
Mof_H 	H 	0.2619	0.8204	0.6868	-0.023
Mof_H 	H 	0.4469	0.7802	0.599	-0.032
Mof_H 	H 	0.5047	0.8616	0.5898	0.098
Mof_H 	H 	0.3055	0.0302	0.6714	0.015
Mof_H 	H 	0.2939	0.0495	0.7453	0.033
Mof_H 	H 	0.4484	0.1031	0.7619	0.071
Mof_H 	H 	0.7583	0.1871	0.6715	0.063
Mof_H 	H 	0.8066	0.1779	0.5995	0.04
Mof_H 	H 	0.6712	0.12	0.569	0.011
Mof_H 	H 	0.4949	0.1972	0.7442	0.096
Mof_H 	H 	0.5613	0.2319	0.8022	-0.032
Mof_H 	H 	0.8262	0.1552	0.7902	-0.03
Mof_H 	H 	0.7665	0.1192	0.7316	0.094
Mof_H 	H 	0.3524	0.1531	0.656	0.012
Mof_H 	H 	0.2489	0.2188	0.6197	0.041
Mof_H 	H 	0.2735	0.2038	0.5463	0.064
Mof_H 	H 	0.5376	0.0796	0.4653	0.066
Mof_H 	H 	0.6647	0.0128	0.4887	0.043
Mof_H 	H 	0.6388	0.004	0.5628	0.01
Mof_H 	H 	0.445	0.2169	0.4962	0.091
Mof_H 	H 	0.3775	0.2484	0.4377	-0.028
Mof_H 	H 	0.235	0.1211	0.4132	-0.024
Mof_H 	H 	0.3025	0.0846	0.4708	0.091
Mof_H 	H 	0.7838	0.5417	0.3563	0.012
Mof_H 	H 	0.7225	0.4565	0.3368	0.034
Mof_H 	H 	0.8786	0.3985	0.3442	0.058
Mof_H 	H 	0.2742	0.4262	0.4012	0.062
Mof_H 	H 	0.3705	0.5017	0.4266	0.036
Mof_H 	H 	0.2461	0.5749	0.4196	0.014
Mof_H 	H 	0.189	0.4037	0.3201	0.092
Mof_H 	H 	0.2381	0.3204	0.3132	-0.024
Mof_H 	H 	0.0531	0.2802	0.401	-0.033
Mof_H 	H 	0.9953	0.3616	0.4102	0.1
Mof_H 	H 	0.1945	0.5302	0.3286	0.014
Mof_H 	H 	0.2061	0.5495	0.2547	0.033
Mof_H 	H 	0.0516	0.6031	0.2381	0.07
Mof_H 	H 	0.7417	0.6871	0.3285	0.063
Mof_H 	H 	0.6934	0.6779	0.4005	0.04
Mof_H 	H 	0.8288	0.62	0.431	0.011
Mof_H 	H 	0.0051	0.6972	0.2558	0.092
Mof_H 	H 	0.9387	0.7319	0.1978	-0.031
Mof_H 	H 	0.6738	0.6552	0.2098	-0.029
Mof_H 	H 	0.7335	0.6192	0.2684	0.093
Mof_H 	H 	0.1476	0.6531	0.344	0.012
Mof_H 	H 	0.2511	0.7188	0.3803	0.041
Mof_H 	H 	0.2265	0.7038	0.4537	0.064
Mof_H 	H 	0.9624	0.5796	0.5347	0.066
Mof_H 	H 	0.8353	0.5128	0.5113	0.043
Mof_H 	H 	0.8612	0.504	0.4372	0.01
Mof_H 	H 	0.055	0.7169	0.5038	0.091
Mof_H 	H 	0.1225	0.7484	0.5623	-0.028
Mof_H 	H 	0.265	0.6211	0.5868	-0.024
Mof_H 	H 	0.1975	0.5846	0.5292	0.091
Mof_C 	C 	0.1732	0.51247	0.85696	0.027
Mof_C 	C 	0.2082	0.46514	0.84568	-0.043
Mof_C 	C 	0.1227	0.4333	0.84997	-0.104
Mof_C 	C 	0.0372	0.4625	0.8647	0.118
Mof_C 	C 	0.9354	0.44601	0.87476	-0.166
Mof_C 	C 	0.8561	0.47547	0.8911	0.118
Mof_C 	C 	0.7528	0.45934	0.90271	-0.108
Mof_C 	C 	0.7	0.5006	0.91641	-0.04
Mof_C 	C 	0.7706	0.54137	0.91246	0.024
Mof_C 	C 	0.9095	0.39252	0.86786	0.155
Mof_C 	C 	0.839	0.37912	0.83768	-0.198
Mof_C 	C 	0.8104	0.32915	0.83379	0.1
Mof_C 	C 	0.9178	0.30574	0.88459	0.108
Mof_C 	C 	0.9522	0.35451	0.8906	-0.209
Mof_C 	C 	0.8542	0.55052	0.81416	0.021
Mof_C 	C 	0.8471	0.56096	0.77269	-0.031
Mof_C 	C 	0.9311	0.59049	0.7638	-0.111
Mof_C 	C 	0.989	0.59935	0.79964	0.118
Mof_C 	C 	0.0794	0.62831	0.80444	-0.161
Mof_C 	C 	0.1335	0.63569	0.84032	0.115
Mof_C 	C 	0.2229	0.66677	0.84766	-0.104
Mof_C 	C 	0.2491	0.6622	0.88703	-0.044
Mof_C 	C 	0.1731	0.62941	0.9036	0.031
Mof_C 	C 	0.1218	0.65366	0.76794	0.156
Mof_C 	C 	0.0634	0.68768	0.74656	-0.202
Mof_C 	C 	0.103	0.70813	0.71189	0.115
Mof_C 	C 	0.2571	0.6633	0.71921	0.102
Mof_C 	C 	0.2224	0.6418	0.75406	-0.197
Mof_C 	C 	0.8501	0.65683	0.87218	0.027
Mof_C 	C 	0.7911	0.6934	0.89225	-0.042
Mof_C 	C 	0.8057	0.6857	0.93248	-0.104
Mof_C 	C 	0.8784	0.64517	0.93624	0.113
Mof_C 	C 	0.919	0.62467	0.97132	-0.158
Mof_C 	C 	0.992	0.58551	0.97375	0.113
Mof_C 	C 	0.0469	0.5682	0.00804	-0.103
Mof_C 	C 	0.1166	0.53144	0.99522	-0.039
Mof_C 	C 	0.1018	0.52718	0.95365	0.027
Mof_C 	C 	0.8802	0.64714	0.00935	0.145
Mof_C 	C 	0.902	0.69636	0.02037	-0.196
Mof_C 	C 	0.8612	0.71485	0.05517	0.101
Mof_C 	C 	0.7786	0.64067	0.06967	0.097
Mof_C 	C 	0.8179	0.61858	0.03513	-0.191
Mof_C 	C 	0.3268	0.01247	0.14304	0.027
Mof_C 	C 	0.2918	0.96514	0.15432	-0.044
Mof_C 	C 	0.3773	0.9333	0.15003	-0.103
Mof_C 	C 	0.4628	0.9625	0.1353	0.116
Mof_C 	C 	0.5646	0.94601	0.12524	-0.163
Mof_C 	C 	0.6439	0.97547	0.1089	0.117
Mof_C 	C 	0.7472	0.95934	0.09729	-0.108
Mof_C 	C 	0.8	0.0006	0.08359	-0.04
Mof_C 	C 	0.7294	0.04137	0.08754	0.024
Mof_C 	C 	0.5905	0.89252	0.13214	0.153
Mof_C 	C 	0.661	0.87912	0.16232	-0.197
Mof_C 	C 	0.6896	0.82915	0.16621	0.1
Mof_C 	C 	0.5822	0.80574	0.11541	0.106
Mof_C 	C 	0.5478	0.85451	0.1094	-0.206
Mof_C 	C 	0.6458	0.05052	0.18584	0.021
Mof_C 	C 	0.6529	0.06096	0.22731	-0.03
Mof_C 	C 	0.5689	0.09049	0.2362	-0.113
Mof_C 	C 	0.511	0.09935	0.20036	0.121
Mof_C 	C 	0.4206	0.12831	0.19556	-0.164
Mof_C 	C 	0.3665	0.13569	0.15968	0.116
Mof_C 	C 	0.2771	0.16677	0.15234	-0.105
Mof_C 	C 	0.2509	0.1622	0.11297	-0.043
Mof_C 	C 	0.3269	0.12941	0.0964	0.031
Mof_C 	C 	0.3782	0.15366	0.23206	0.159
Mof_C 	C 	0.4366	0.18768	0.25344	-0.208
Mof_C 	C 	0.397	0.20813	0.28811	0.118
Mof_C 	C 	0.2429	0.1633	0.28079	0.103
Mof_C 	C 	0.2776	0.1418	0.24594	-0.199
Mof_C 	C 	0.6499	0.15683	0.12782	0.027
Mof_C 	C 	0.7089	0.1934	0.10775	-0.042
Mof_C 	C 	0.6943	0.1857	0.06752	-0.104
Mof_C 	C 	0.6216	0.14517	0.06376	0.113
Mof_C 	C 	0.581	0.12467	0.02868	-0.158
Mof_C 	C 	0.508	0.08551	0.02625	0.114
Mof_C 	C 	0.4531	0.0682	0.99196	-0.102
Mof_C 	C 	0.3834	0.03144	0.00478	-0.04
Mof_C 	C 	0.3982	0.02718	0.04635	0.027
Mof_C 	C 	0.6198	0.14714	0.99065	0.144
Mof_C 	C 	0.598	0.19636	0.97963	-0.196
Mof_C 	C 	0.6388	0.21485	0.94483	0.1
Mof_C 	C 	0.7214	0.14067	0.93033	0.097
Mof_C 	C 	0.6821	0.11858	0.96487	-0.19
Mof_C 	C 	0.6732	0.01247	0.64304	0.027
Mof_C 	C 	0.7082	0.96514	0.65432	-0.043
Mof_C 	C 	0.6227	0.9333	0.65003	-0.103
Mof_C 	C 	0.5372	0.9625	0.6353	0.116
Mof_C 	C 	0.4354	0.94601	0.62524	-0.163
Mof_C 	C 	0.3561	0.97547	0.6089	0.117
Mof_C 	C 	0.2528	0.95934	0.59729	-0.108
Mof_C 	C 	0.2	0.0006	0.58359	-0.041
Mof_C 	C 	0.2706	0.04137	0.58754	0.024
Mof_C 	C 	0.4095	0.89252	0.63214	0.153
Mof_C 	C 	0.339	0.87912	0.66232	-0.197
Mof_C 	C 	0.3104	0.82915	0.66621	0.1
Mof_C 	C 	0.4178	0.80574	0.61541	0.106
Mof_C 	C 	0.4522	0.85451	0.6094	-0.206
Mof_C 	C 	0.3542	0.05052	0.68584	0.021
Mof_C 	C 	0.3471	0.06096	0.72731	-0.03
Mof_C 	C 	0.4311	0.09049	0.7362	-0.113
Mof_C 	C 	0.489	0.09935	0.70036	0.121
Mof_C 	C 	0.5794	0.12831	0.69556	-0.164
Mof_C 	C 	0.6335	0.13569	0.65968	0.116
Mof_C 	C 	0.7229	0.16677	0.65234	-0.105
Mof_C 	C 	0.7491	0.1622	0.61297	-0.043
Mof_C 	C 	0.6731	0.12941	0.5964	0.031
Mof_C 	C 	0.6218	0.15366	0.73206	0.159
Mof_C 	C 	0.5634	0.18768	0.75344	-0.208
Mof_C 	C 	0.603	0.20813	0.78811	0.118
Mof_C 	C 	0.7571	0.1633	0.78079	0.103
Mof_C 	C 	0.7224	0.1418	0.74594	-0.199
Mof_C 	C 	0.3501	0.15683	0.62782	0.027
Mof_C 	C 	0.2911	0.1934	0.60775	-0.042
Mof_C 	C 	0.3057	0.1857	0.56752	-0.104
Mof_C 	C 	0.3784	0.14517	0.56376	0.113
Mof_C 	C 	0.419	0.12467	0.52868	-0.158
Mof_C 	C 	0.492	0.08551	0.52625	0.114
Mof_C 	C 	0.5469	0.0682	0.49196	-0.103
Mof_C 	C 	0.6166	0.03144	0.50478	-0.04
Mof_C 	C 	0.6018	0.02718	0.54635	0.027
Mof_C 	C 	0.3802	0.14714	0.49065	0.144
Mof_C 	C 	0.402	0.19636	0.47963	-0.196
Mof_C 	C 	0.3612	0.21485	0.44483	0.101
Mof_C 	C 	0.2786	0.14067	0.43033	0.097
Mof_C 	C 	0.3179	0.11858	0.46487	-0.191
Mof_C 	C 	0.8268	0.51247	0.35696	0.027
Mof_C 	C 	0.7918	0.46514	0.34568	-0.043
Mof_C 	C 	0.8773	0.4333	0.34997	-0.104
Mof_C 	C 	0.9628	0.4625	0.3647	0.118
Mof_C 	C 	0.0646	0.44601	0.37476	-0.166
Mof_C 	C 	0.1439	0.47547	0.3911	0.118
Mof_C 	C 	0.2472	0.45934	0.40271	-0.108
Mof_C 	C 	0.3	0.5006	0.41641	-0.04
Mof_C 	C 	0.2294	0.54137	0.41246	0.024
Mof_C 	C 	0.0905	0.39252	0.36786	0.155
Mof_C 	C 	0.161	0.37912	0.33768	-0.198
Mof_C 	C 	0.1896	0.32915	0.33379	0.1
Mof_C 	C 	0.0822	0.30574	0.38459	0.107
Mof_C 	C 	0.0478	0.35451	0.3906	-0.208
Mof_C 	C 	0.1458	0.55052	0.31416	0.021
Mof_C 	C 	0.1529	0.56096	0.27269	-0.031
Mof_C 	C 	0.0689	0.59049	0.2638	-0.111
Mof_C 	C 	0.011	0.59935	0.29964	0.119
Mof_C 	C 	0.9206	0.62831	0.30444	-0.161
Mof_C 	C 	0.8665	0.63569	0.34032	0.115
Mof_C 	C 	0.7771	0.66677	0.34766	-0.104
Mof_C 	C 	0.7509	0.6622	0.38703	-0.044
Mof_C 	C 	0.8269	0.62941	0.4036	0.031
Mof_C 	C 	0.8782	0.65366	0.26794	0.156
Mof_C 	C 	0.9366	0.68768	0.24656	-0.202
Mof_C 	C 	0.897	0.70813	0.21189	0.115
Mof_C 	C 	0.7429	0.6633	0.21921	0.102
Mof_C 	C 	0.7776	0.6418	0.25406	-0.197
Mof_C 	C 	0.1499	0.65683	0.37218	0.027
Mof_C 	C 	0.2089	0.6934	0.39225	-0.042
Mof_C 	C 	0.1943	0.6857	0.43248	-0.104
Mof_C 	C 	0.1216	0.64517	0.43624	0.113
Mof_C 	C 	0.081	0.62467	0.47132	-0.158
Mof_C 	C 	0.008	0.58551	0.47375	0.113
Mof_C 	C 	0.9531	0.5682	0.50804	-0.102
Mof_C 	C 	0.8834	0.53144	0.49522	-0.04
Mof_C 	C 	0.8982	0.52718	0.45365	0.028
Mof_C 	C 	0.1198	0.64714	0.50935	0.144
Mof_C 	C 	0.098	0.69636	0.52037	-0.196
Mof_C 	C 	0.1388	0.71485	0.55517	0.101
Mof_C 	C 	0.2214	0.64067	0.56967	0.097
Mof_C 	C 	0.1821	0.61858	0.53513	-0.191
Mof_N 	N 	0.0713	0.51194	0.86884	-0.255
Mof_N 	N 	0.8641	0.52682	0.89734	-0.257
Mof_N 	N 	0.847	0.29282	0.85732	-0.217
Mof_N 	N 	0.9391	0.57331	0.83032	-0.256
Mof_N 	N 	0.1049	0.61334	0.87646	-0.257
Mof_N 	N 	0.1975	0.69561	0.69759	-0.214
Mof_N 	N 	0.903	0.62781	0.89806	-0.257
Mof_N 	N 	0.0293	0.55968	0.9401	-0.257
Mof_N 	N 	0.7988	0.6879	0.08002	-0.214
Mof_N 	N 	0.4287	0.01194	0.13116	-0.256
Mof_N 	N 	0.6359	0.02682	0.10266	-0.257
Mof_N 	N 	0.653	0.79282	0.14268	-0.216
Mof_N 	N 	0.5609	0.07331	0.16968	-0.257
Mof_N 	N 	0.3951	0.11334	0.12354	-0.257
Mof_N 	N 	0.3025	0.19561	0.30241	-0.215
Mof_N 	N 	0.597	0.12781	0.10194	-0.256
Mof_N 	N 	0.4707	0.05968	0.0599	-0.257
Mof_N 	N 	0.7012	0.1879	0.91998	-0.214
Mof_N 	N 	0.5713	0.01194	0.63116	-0.256
Mof_N 	N 	0.3641	0.02682	0.60266	-0.257
Mof_N 	N 	0.347	0.79282	0.64268	-0.216
Mof_N 	N 	0.4391	0.07331	0.66968	-0.257
Mof_N 	N 	0.6049	0.11334	0.62354	-0.257
Mof_N 	N 	0.6975	0.19561	0.80241	-0.215
Mof_N 	N 	0.403	0.12781	0.60194	-0.256
Mof_N 	N 	0.5293	0.05968	0.5599	-0.257
Mof_N 	N 	0.2988	0.1879	0.41998	-0.214
Mof_N 	N 	0.9287	0.51194	0.36884	-0.255
Mof_N 	N 	0.1359	0.52682	0.39734	-0.257
Mof_N 	N 	0.153	0.29282	0.35732	-0.217
Mof_N 	N 	0.0609	0.57331	0.33032	-0.256
Mof_N 	N 	0.8951	0.61334	0.37646	-0.257
Mof_N 	N 	0.8025	0.69561	0.19759	-0.214
Mof_N 	N 	0.097	0.62781	0.39806	-0.257
Mof_N 	N 	0.9707	0.55968	0.4401	-0.257
Mof_N 	N 	0.2012	0.6879	0.58002	-0.214
_end
