data_functionalizedCrystal
_audit_creation_method	'EQeq! by Chris Wilmer'
_symmetry_space_group_name_H-M	'P1'
_symmetry_Int_Tables_number	1
_symmetry_cell_setting	triclinic
loop_
_symmetry_equiv_pos_as_xyz
  x,y,z
_cell_length_a	6.6973
_cell_length_b	8.2497
_cell_length_c	20.3822
_cell_angle_alpha	90
_cell_angle_beta	90
_cell_angle_gamma	90
loop_
_atom_site_label
_atom_site_type_symbol
_atom_site_fract_x
_atom_site_fract_y
_atom_site_fract_z
_atom_site_charge
Mof_Er	Er	0.49861	0.43402	0.61915	2.251
Mof_O 	O 	0.5208	0.5626	0.7234	-0.542
Mof_O 	O 	0.4857	0.7205	0.81096	-0.576
Mof_O 	O 	0.3362	0.2316	0.55895	-0.561
Mof_O 	O 	0.1896	0.1078	0.4749	-0.563
Mof_O 	O 	0.1692	0.4635	0.6529	-0.542
Mof_O 	O 	0.8407	0.4474	0.6512	-0.523
Mof_O 	O 	0.5411	0.7108	0.5952	-0.437
Mof_O 	O 	0.3235	0.6009	0.529	-0.377
Mof_C 	C 	0.4318	0.6572	0.7586	0.752
Mof_H 	H 	0.3051	0.6864	0.7442	-0.199
Mof_C 	C 	0.2535	0.2266	0.5054	0.715
Mof_H 	H 	0.2362	0.3261	0.4847	-0.211
Mof_C 	C 	0.0038	0.4689	0.6246	0.686
Mof_H 	H 	0.0039	0.4911	0.5799	-0.193
Mof_C 	C 	0.4202	0.7197	0.5476	0.384
Mof_H 	H 	0.4039	0.8182	0.5261	-0.049
Mof_Er	Er	0.00139	0.56598	0.11915	2.217
Mof_O 	O 	0.9792	0.4374	0.2234	-0.534
Mof_O 	O 	0.0143	0.2795	0.31096	-0.567
Mof_O 	O 	0.1638	0.7684	0.05895	-0.563
Mof_O 	O 	0.3104	0.8922	0.9749	-0.57
Mof_O 	O 	0.3308	0.5365	0.1529	-0.537
Mof_O 	O 	0.6593	0.5526	0.1512	-0.51
Mof_O 	O 	0.9589	0.2892	0.0952	-0.42
Mof_O 	O 	0.1765	0.3991	0.029	-0.374
Mof_C 	C 	0.0682	0.3428	0.2586	0.74
Mof_H 	H 	0.1949	0.3136	0.2442	-0.196
Mof_C 	C 	0.2465	0.7734	0.0054	0.712
Mof_H 	H 	0.2638	0.6739	0.9847	-0.212
Mof_C 	C 	0.4962	0.5311	0.1246	0.67
Mof_H 	H 	0.4961	0.5089	0.0799	-0.19
Mof_C 	C 	0.0798	0.2803	0.0476	0.365
Mof_H 	H 	0.0961	0.1818	0.0261	-0.046
Mof_Er	Er	0.50139	0.93402	0.88085	2.237
Mof_O 	O 	0.4792	0.0626	0.7766	-0.538
Mof_O 	O 	0.5143	0.2205	0.68904	-0.576
Mof_O 	O 	0.6638	0.7316	0.94105	-0.558
Mof_O 	O 	0.8104	0.6078	0.0251	-0.557
Mof_O 	O 	0.8308	0.9635	0.8471	-0.543
Mof_O 	O 	0.1593	0.9474	0.8488	-0.523
Mof_O 	O 	0.4589	0.2108	0.9048	-0.433
Mof_O 	O 	0.6765	0.1009	0.971	-0.374
Mof_C 	C 	0.5682	0.1572	0.7414	0.75
Mof_H 	H 	0.6949	0.1864	0.7558	-0.198
Mof_C 	C 	0.7465	0.7266	0.9946	0.704
Mof_H 	H 	0.7638	0.8261	0.0153	-0.206
Mof_C 	C 	0.9962	0.9689	0.8754	0.684
Mof_H 	H 	0.9961	0.9911	0.9201	-0.194
Mof_C 	C 	0.5798	0.2197	0.9524	0.383
Mof_H 	H 	0.5961	0.3182	0.9739	-0.048
Mof_Er	Er	0.99861	0.06598	0.38085	2.223
Mof_O 	O 	0.0208	0.9374	0.2766	-0.54
Mof_O 	O 	0.9857	0.7795	0.18904	-0.567
Mof_O 	O 	0.8362	0.2684	0.44105	-0.563
Mof_O 	O 	0.6896	0.3922	0.5251	-0.571
Mof_O 	O 	0.6692	0.0365	0.3471	-0.538
Mof_O 	O 	0.3407	0.0526	0.3488	-0.512
Mof_O 	O 	0.0411	0.7892	0.4048	-0.425
Mof_O 	O 	0.8235	0.8991	0.471	-0.374
Mof_C 	C 	0.9318	0.8428	0.2414	0.75
Mof_H 	H 	0.8051	0.8136	0.2558	-0.198
Mof_C 	C 	0.7535	0.2734	0.4946	0.716
Mof_H 	H 	0.7362	0.1739	0.5153	-0.215
Mof_C 	C 	0.5038	0.0311	0.3754	0.671
Mof_H 	H 	0.5039	0.0089	0.4201	-0.191
Mof_C 	C 	0.9202	0.7803	0.4524	0.372
Mof_H 	H 	0.9039	0.6818	0.4739	-0.048
_end
