data_functionalizedCrystal
_audit_creation_method	'EQeq! by Chris Wilmer'
_symmetry_space_group_name_H-M	'P1'
_symmetry_Int_Tables_number	1
_symmetry_cell_setting	triclinic
loop_
_symmetry_equiv_pos_as_xyz
  x,y,z
_cell_length_a	9.987
_cell_length_b	11.664
_cell_length_c	22.771
_cell_angle_alpha	90
_cell_angle_beta	90
_cell_angle_gamma	100.588
loop_
_atom_site_label
_atom_site_type_symbol
_atom_site_fract_x
_atom_site_fract_y
_atom_site_fract_z
_atom_site_charge
Mof_Mn	Mn	0.58444	0.88356	0.94987	0.884
Mof_Mn	Mn	0.41556	0.61644	0.44987	0.885
Mof_Mn	Mn	0.41556	0.11644	0.05013	0.884
Mof_Mn	Mn	0.58444	0.38356	0.55013	0.885
Mof_H 	H 	0.8545	0.0139	0.0046	-0.014
Mof_H 	H 	0.0106	0.182	0.0067	0.114
Mof_H 	H 	0.7967	0.3073	0.8815	0.097
Mof_H 	H 	0.646	0.1348	0.8838	-0.01
Mof_H 	H 	0.0003	0.4345	0.9172	0.047
Mof_H 	H 	0.1504	0.3488	0.0013	0.085
Mof_H 	H 	0.3411	0.4875	0.0405	0.107
Mof_H 	H 	0.4968	0.6586	0.0332	-0.017
Mof_H 	H 	0.3146	0.7511	0.8973	-0.015
Mof_H 	H 	0.1529	0.5859	0.9014	0.096
Mof_H 	H 	0.0109	0.8103	0.8811	0.012
Mof_H 	H 	0.1525	0.7463	0.8143	0.091
Mof_H 	H 	0.6929	0.6293	0.7976	0.033
Mof_H 	H 	0.1095	0.4972	0.8085	0.352
Mof_H 	H 	0.2596	0.4766	0.8021	0.348
Mof_H 	H 	0.1394	0.3885	0.7739	0.355
Mof_H 	H 	0.3285	0.4572	0.6907	0.16
Mof_H 	H 	0.2059	0.6902	0.5879	0.107
Mof_H 	H 	0.0603	0.7278	0.6594	-0.024
Mof_H 	H 	0.1455	0.4861	0.5046	-0.013
Mof_H 	H 	0.9894	0.318	0.5067	0.117
Mof_H 	H 	0.2033	0.1927	0.3815	0.097
Mof_H 	H 	0.354	0.3652	0.3838	-0.01
Mof_H 	H 	0.9997	0.0655	0.4172	0.048
Mof_H 	H 	0.8496	0.1512	0.5013	0.086
Mof_H 	H 	0.6589	0.0125	0.5405	0.108
Mof_H 	H 	0.5032	0.8414	0.5332	-0.017
Mof_H 	H 	0.6854	0.7489	0.3973	-0.015
Mof_H 	H 	0.8471	0.9141	0.4014	0.096
Mof_H 	H 	0.9891	0.6897	0.3811	0.009
Mof_H 	H 	0.8475	0.7537	0.3143	0.093
Mof_H 	H 	0.3071	0.8707	0.2976	0.033
Mof_H 	H 	0.8905	0.0028	0.3085	0.352
Mof_H 	H 	0.7404	0.0234	0.3021	0.348
Mof_H 	H 	0.8606	0.1115	0.2739	0.355
Mof_H 	H 	0.6715	0.0428	0.1907	0.159
Mof_H 	H 	0.7941	0.8098	0.0879	0.107
Mof_H 	H 	0.9397	0.7722	0.1594	-0.024
Mof_H 	H 	0.1455	0.9861	0.9954	-0.013
Mof_H 	H 	0.9894	0.818	0.9933	0.115
Mof_H 	H 	0.2033	0.6927	0.1185	0.097
Mof_H 	H 	0.354	0.8652	0.1162	-0.01
Mof_H 	H 	0.9997	0.5655	0.0828	0.047
Mof_H 	H 	0.8496	0.6512	0.9987	0.085
Mof_H 	H 	0.6589	0.5125	0.9595	0.107
Mof_H 	H 	0.5032	0.3414	0.9668	-0.017
Mof_H 	H 	0.6854	0.2489	0.1027	-0.015
Mof_H 	H 	0.8471	0.4141	0.0986	0.096
Mof_H 	H 	0.9891	0.1897	0.1189	0.012
Mof_H 	H 	0.8475	0.2537	0.1857	0.091
Mof_H 	H 	0.3071	0.3707	0.2024	0.033
Mof_H 	H 	0.8905	0.5028	0.1915	0.352
Mof_H 	H 	0.7404	0.5234	0.1979	0.348
Mof_H 	H 	0.8606	0.6115	0.2261	0.355
Mof_H 	H 	0.6715	0.5428	0.3093	0.16
Mof_H 	H 	0.7941	0.3098	0.4121	0.107
Mof_H 	H 	0.9397	0.2722	0.3406	-0.024
Mof_H 	H 	0.8545	0.5139	0.4954	-0.013
Mof_H 	H 	0.0106	0.682	0.4933	0.117
Mof_H 	H 	0.7967	0.8073	0.6185	0.097
Mof_H 	H 	0.646	0.6348	0.6162	-0.01
Mof_H 	H 	0.0003	0.9345	0.5828	0.048
Mof_H 	H 	0.1504	0.8488	0.4987	0.086
Mof_H 	H 	0.3411	0.9875	0.4595	0.108
Mof_H 	H 	0.4968	0.1586	0.4668	-0.017
Mof_H 	H 	0.3146	0.2511	0.6027	-0.015
Mof_H 	H 	0.1529	0.0859	0.5986	0.096
Mof_H 	H 	0.0109	0.3103	0.6189	0.009
Mof_H 	H 	0.1525	0.2463	0.6857	0.093
Mof_H 	H 	0.6929	0.1293	0.7024	0.033
Mof_H 	H 	0.1095	0.9972	0.6915	0.352
Mof_H 	H 	0.2596	0.9766	0.6979	0.348
Mof_H 	H 	0.1394	0.8885	0.7261	0.355
Mof_H 	H 	0.3285	0.9572	0.8093	0.159
Mof_H 	H 	0.2059	0.1902	0.9121	0.107
Mof_H 	H 	0.0603	0.2278	0.8406	-0.024
Mof_C 	C 	0.8427	0.0739	0.9794	0.13
Mof_C 	C 	0.9367	0.1749	0.9812	-0.205
Mof_C 	C 	0.921	0.2661	0.9449	0.137
Mof_C 	C 	0.8104	0.2489	0.9074	-0.198
Mof_C 	C 	0.7209	0.1443	0.9088	0.124
Mof_C 	C 	0.0193	0.3778	0.943	-0.074
Mof_C 	C 	0.1316	0.4042	0.9746	-0.128
Mof_C 	C 	0.2283	0.5142	0.9706	0.166
Mof_C 	C 	0.3331	0.5396	0.0104	-0.222
Mof_C 	C 	0.4272	0.6429	0.0056	0.138
Mof_C 	C 	0.3205	0.6967	0.9266	0.136
Mof_C 	C 	0.2232	0.5971	0.9287	-0.224
Mof_C 	C 	0.7431	0.7787	0.8851	0.326
Mof_C 	C 	0.8375	0.7306	0.8448	-0.124
Mof_C 	C 	0.9741	0.7622	0.8504	0.073
Mof_C 	C 	0.0588	0.7227	0.8102	-0.198
Mof_C 	C 	0.0104	0.6501	0.7645	0.125
Mof_C 	C 	0.7865	0.6544	0.8007	0.017
Mof_C 	C 	0.8724	0.6139	0.7604	-0.066
Mof_C 	C 	0.1048	0.618	0.7195	-0.264
Mof_C 	C 	0.1878	0.5365	0.7293	0.457
Mof_C 	C 	0.1728	0.469	0.783	-1.084
Mof_C 	C 	0.2745	0.5132	0.6845	-0.349
Mof_C 	C 	0.2825	0.5695	0.6322	0.096
Mof_C 	C 	0.3773	0.5442	0.585	0.313
Mof_C 	C 	0.2018	0.6502	0.6234	-0.193
Mof_C 	C 	0.1148	0.6727	0.6666	0.14
Mof_C 	C 	0.1573	0.4261	0.4794	0.13
Mof_C 	C 	0.0633	0.3251	0.4812	-0.209
Mof_C 	C 	0.079	0.2339	0.4449	0.137
Mof_C 	C 	0.1896	0.2511	0.4074	-0.198
Mof_C 	C 	0.2791	0.3557	0.4088	0.124
Mof_C 	C 	0.9807	0.1222	0.443	-0.074
Mof_C 	C 	0.8684	0.0958	0.4746	-0.128
Mof_C 	C 	0.7717	0.9858	0.4706	0.165
Mof_C 	C 	0.6669	0.9604	0.5104	-0.222
Mof_C 	C 	0.5728	0.8571	0.5056	0.138
Mof_C 	C 	0.6795	0.8033	0.4266	0.135
Mof_C 	C 	0.7768	0.9029	0.4287	-0.223
Mof_C 	C 	0.2569	0.7213	0.3851	0.328
Mof_C 	C 	0.1625	0.7694	0.3448	-0.127
Mof_C 	C 	0.0259	0.7378	0.3504	0.081
Mof_C 	C 	0.9412	0.7773	0.3102	-0.203
Mof_C 	C 	0.9896	0.8499	0.2645	0.126
Mof_C 	C 	0.2135	0.8456	0.3007	0.019
Mof_C 	C 	0.1276	0.8861	0.2604	-0.065
Mof_C 	C 	0.8952	0.882	0.2195	-0.264
Mof_C 	C 	0.8122	0.9635	0.2293	0.457
Mof_C 	C 	0.8272	0.031	0.283	-1.083
Mof_C 	C 	0.7255	0.9868	0.1845	-0.349
Mof_C 	C 	0.7175	0.9305	0.1322	0.095
Mof_C 	C 	0.6227	0.9558	0.085	0.314
Mof_C 	C 	0.7982	0.8498	0.1234	-0.193
Mof_C 	C 	0.8852	0.8273	0.1666	0.14
Mof_C 	C 	0.1573	0.9261	0.0206	0.13
Mof_C 	C 	0.0633	0.8251	0.0188	-0.205
Mof_C 	C 	0.079	0.7339	0.0551	0.137
Mof_C 	C 	0.1896	0.7511	0.0926	-0.198
Mof_C 	C 	0.2791	0.8557	0.0912	0.124
Mof_C 	C 	0.9807	0.6222	0.057	-0.074
Mof_C 	C 	0.8684	0.5958	0.0254	-0.128
Mof_C 	C 	0.7717	0.4858	0.0294	0.166
Mof_C 	C 	0.6669	0.4604	0.9896	-0.222
Mof_C 	C 	0.5728	0.3571	0.9944	0.138
Mof_C 	C 	0.6795	0.3033	0.0734	0.136
Mof_C 	C 	0.7768	0.4029	0.0713	-0.224
Mof_C 	C 	0.2569	0.2213	0.1149	0.326
Mof_C 	C 	0.1625	0.2694	0.1552	-0.124
Mof_C 	C 	0.0259	0.2378	0.1496	0.073
Mof_C 	C 	0.9412	0.2773	0.1898	-0.198
Mof_C 	C 	0.9896	0.3499	0.2355	0.125
Mof_C 	C 	0.2135	0.3456	0.1993	0.017
Mof_C 	C 	0.1276	0.3861	0.2396	-0.066
Mof_C 	C 	0.8952	0.382	0.2805	-0.264
Mof_C 	C 	0.8122	0.4635	0.2707	0.457
Mof_C 	C 	0.8272	0.531	0.217	-1.084
Mof_C 	C 	0.7255	0.4868	0.3155	-0.349
Mof_C 	C 	0.7175	0.4305	0.3678	0.096
Mof_C 	C 	0.6227	0.4558	0.415	0.313
Mof_C 	C 	0.7982	0.3498	0.3766	-0.193
Mof_C 	C 	0.8852	0.3273	0.3334	0.14
Mof_C 	C 	0.8427	0.5739	0.5206	0.13
Mof_C 	C 	0.9367	0.6749	0.5188	-0.209
Mof_C 	C 	0.921	0.7661	0.5551	0.137
Mof_C 	C 	0.8104	0.7489	0.5926	-0.198
Mof_C 	C 	0.7209	0.6443	0.5912	0.124
Mof_C 	C 	0.0193	0.8778	0.557	-0.074
Mof_C 	C 	0.1316	0.9042	0.5254	-0.128
Mof_C 	C 	0.2283	0.0142	0.5294	0.165
Mof_C 	C 	0.3331	0.0396	0.4896	-0.222
Mof_C 	C 	0.4272	0.1429	0.4944	0.138
Mof_C 	C 	0.3205	0.1967	0.5734	0.135
Mof_C 	C 	0.2232	0.0971	0.5713	-0.223
Mof_C 	C 	0.7431	0.2787	0.6149	0.328
Mof_C 	C 	0.8375	0.2306	0.6552	-0.127
Mof_C 	C 	0.9741	0.2622	0.6496	0.081
Mof_C 	C 	0.0588	0.2227	0.6898	-0.203
Mof_C 	C 	0.0104	0.1501	0.7355	0.126
Mof_C 	C 	0.7865	0.1544	0.6993	0.019
Mof_C 	C 	0.8724	0.1139	0.7396	-0.065
Mof_C 	C 	0.1048	0.118	0.7805	-0.264
Mof_C 	C 	0.1878	0.0365	0.7707	0.457
Mof_C 	C 	0.1728	0.969	0.717	-1.083
Mof_C 	C 	0.2745	0.0132	0.8155	-0.349
Mof_C 	C 	0.2825	0.0695	0.8678	0.095
Mof_C 	C 	0.3773	0.0442	0.915	0.314
Mof_C 	C 	0.2018	0.1502	0.8766	-0.193
Mof_C 	C 	0.1148	0.1727	0.8334	0.14
Mof_N 	N 	0.4217	0.7183	0.96425	-0.209
Mof_N 	N 	0.7349	0.0558	0.94371	-0.207
Mof_N 	N 	0.5783	0.7817	0.46425	-0.209
Mof_N 	N 	0.2651	0.4442	0.44371	-0.207
Mof_N 	N 	0.5783	0.2817	0.03575	-0.209
Mof_N 	N 	0.2651	0.9442	0.05629	-0.207
Mof_N 	N 	0.4217	0.2183	0.53575	-0.209
Mof_N 	N 	0.7349	0.5558	0.55629	-0.207
Mof_O 	O 	0.6331	0.8011	0.86457	-0.334
Mof_O 	O 	0.7738	0.7991	0.93683	-0.349
Mof_O 	O 	0.4349	0.4583	0.59237	-0.377
Mof_O 	O 	0.3927	0.61	0.5408	-0.385
Mof_O 	O 	0.3669	0.6989	0.36457	-0.334
Mof_O 	O 	0.2262	0.7009	0.43683	-0.349
Mof_O 	O 	0.5651	0.0417	0.09237	-0.378
Mof_O 	O 	0.6073	0.89	0.0408	-0.385
Mof_O 	O 	0.3669	0.1989	0.13543	-0.334
Mof_O 	O 	0.2262	0.2009	0.06317	-0.349
Mof_O 	O 	0.5651	0.5417	0.40763	-0.377
Mof_O 	O 	0.6073	0.39	0.4592	-0.385
Mof_O 	O 	0.6331	0.3011	0.63543	-0.334
Mof_O 	O 	0.7738	0.2991	0.56317	-0.349
Mof_O 	O 	0.4349	0.9583	0.90763	-0.378
Mof_O 	O 	0.3927	0.11	0.9592	-0.385
_end
