data_functionalizedCrystal
_audit_creation_method	'EQeq! by Chris Wilmer'
_symmetry_space_group_name_H-M	'P1'
_symmetry_Int_Tables_number	1
_symmetry_cell_setting	triclinic
loop_
_symmetry_equiv_pos_as_xyz
  x,y,z
_cell_length_a	14.8952
_cell_length_b	9.7133
_cell_length_c	13.6878
_cell_angle_alpha	90
_cell_angle_beta	90
_cell_angle_gamma	90
loop_
_atom_site_label
_atom_site_type_symbol
_atom_site_fract_x
_atom_site_fract_y
_atom_site_fract_z
_atom_site_charge
Mof_O 	O 	0.08541	0.30404	0.36939	-0.431
Mof_O 	O 	0.10816	0.14201	0.65694	-0.455
Mof_O 	O 	0.58541	0.80404	0.36939	-0.424
Mof_O 	O 	0.60816	0.64201	0.65694	-0.435
Mof_O 	O 	0.91459	0.69596	0.86939	-0.307
Mof_O 	O 	0.89184	0.85799	0.15694	-0.36
Mof_O 	O 	0.41459	0.19596	0.86939	-0.43
Mof_O 	O 	0.39184	0.35799	0.15694	-0.44
Mof_O 	O 	0.91459	0.30404	0.13061	-0.307
Mof_O 	O 	0.89184	0.14201	0.84306	-0.36
Mof_O 	O 	0.41459	0.80404	0.13061	-0.43
Mof_O 	O 	0.39184	0.64201	0.84306	-0.44
Mof_O 	O 	0.08541	0.69596	0.63061	-0.432
Mof_O 	O 	0.10816	0.85799	0.34306	-0.456
Mof_O 	O 	0.58541	0.19596	0.63061	-0.425
Mof_O 	O 	0.60816	0.35799	0.34306	-0.436
Mof_O 	O 	0.91459	0.69596	0.63061	-0.306
Mof_O 	O 	0.89184	0.85799	0.34306	-0.358
Mof_O 	O 	0.41459	0.19596	0.63061	-0.429
Mof_O 	O 	0.39184	0.35799	0.34306	-0.44
Mof_O 	O 	0.08541	0.30404	0.13061	-0.432
Mof_O 	O 	0.10816	0.14201	0.84306	-0.457
Mof_O 	O 	0.58541	0.80404	0.13061	-0.426
Mof_O 	O 	0.60816	0.64201	0.84306	-0.436
Mof_O 	O 	0.08541	0.69596	0.86939	-0.432
Mof_O 	O 	0.10816	0.85799	0.15694	-0.457
Mof_O 	O 	0.58541	0.19596	0.86939	-0.426
Mof_O 	O 	0.60816	0.35799	0.15694	-0.436
Mof_O 	O 	0.91459	0.30404	0.36939	-0.306
Mof_O 	O 	0.89184	0.14201	0.65694	-0.358
Mof_O 	O 	0.41459	0.80404	0.36939	-0.429
Mof_O 	O 	0.39184	0.64201	0.65694	-0.44
Mof_Co	Co	-1.06366e-32	0.0494	0.61247	1.073
Mof_P 	P 	-1.71357e-33	0.27469	0.42756	0.383
Mof_O 	O 	-1.58271e-33	0.1257	0.46554	-0.597
Mof_O 	O 	-4.58782e-33	0.3713	0.51825	-0.21
Mof_Co	Co	0.5	0.5494	0.61247	1.117
Mof_P 	P 	0.5	0.77469	0.42756	0.495
Mof_O 	O 	0.5	0.6257	0.46554	-0.568
Mof_O 	O 	0.5	0.8713	0.51825	-0.169
Mof_Co	Co	1.18419e-33	0.9506	0.11247	1.072
Mof_P 	P 	3.19588e-33	0.72531	0.92756	0.385
Mof_O 	O 	3.32674e-33	0.8743	0.96554	-0.595
Mof_O 	O 	-2.52633e-33	0.6287	0.01825	-0.212
Mof_Co	Co	0.5	0.4506	0.11247	1.117
Mof_P 	P 	0.5	0.22531	0.92756	0.491
Mof_O 	O 	0.5	0.3743	0.96554	-0.569
Mof_O 	O 	0.5	0.1287	0.01825	-0.166
Mof_Co	Co	-3.31547e-33	0.0494	0.88753	1.072
Mof_P 	P 	2.4959e-34	0.27469	0.07244	0.385
Mof_O 	O 	5.17071e-34	0.1257	0.03446	-0.595
Mof_O 	O 	3.38259e-33	0.3713	0.98175	-0.212
Mof_Co	Co	0.5	0.5494	0.88753	1.117
Mof_P 	P 	0.5	0.77469	0.07244	0.491
Mof_O 	O 	0.5	0.6257	0.03446	-0.569
Mof_O 	O 	0.5	0.8713	0.98175	-0.166
Mof_Co	Co	-5.03821e-33	0.9506	0.38753	1.073
Mof_P 	P 	-1.07745e-32	0.72531	0.57244	0.383
Mof_O 	O 	1.84147e-33	0.8743	0.53446	-0.597
Mof_O 	O 	-4.71358e-33	0.6287	0.48175	-0.21
Mof_Co	Co	0.5	0.4506	0.38753	1.117
Mof_P 	P 	0.5	0.22531	0.57244	0.495
Mof_O 	O 	0.5	0.3743	0.53446	-0.568
Mof_O 	O 	0.5	0.1287	0.48175	-0.169
Mof_Co	Co	0.12905	0.21451	0.25	1.125
Mof_Co	Co	0.62905	0.71451	0.25	1.136
Mof_Co	Co	0.87095	0.78549	0.75	1.156
Mof_Co	Co	0.37095	0.28549	0.75	1.135
Mof_Co	Co	0.87095	0.21451	0.25	1.156
Mof_Co	Co	0.37095	0.71451	0.25	1.135
Mof_Co	Co	0.12905	0.78549	0.75	1.125
Mof_Co	Co	0.62905	0.28549	0.75	1.136
Mof_P 	P 	0.16276	0.11257	0.75	0.515
Mof_O 	O 	0.19329	0.9609	0.75	-0.446
Mof_O 	O 	0.24514	0.2039	0.75	-0.343
Mof_P 	P 	0.66276	0.61257	0.75	0.522
Mof_O 	O 	0.69329	0.4609	0.75	-0.436
Mof_O 	O 	0.74514	0.7039	0.75	-0.333
Mof_P 	P 	0.83724	0.88743	0.25	0.518
Mof_O 	O 	0.80671	0.0391	0.25	-0.424
Mof_O 	O 	0.75486	0.7961	0.25	-0.331
Mof_P 	P 	0.33724	0.38743	0.25	0.521
Mof_O 	O 	0.30671	0.5391	0.25	-0.45
Mof_O 	O 	0.25486	0.2961	0.25	-0.344
Mof_P 	P 	0.83724	0.11257	0.75	0.518
Mof_O 	O 	0.80671	0.9609	0.75	-0.424
Mof_O 	O 	0.75486	0.2039	0.75	-0.331
Mof_P 	P 	0.33724	0.61257	0.75	0.521
Mof_O 	O 	0.30671	0.4609	0.75	-0.45
Mof_O 	O 	0.25486	0.7039	0.75	-0.344
Mof_P 	P 	0.16276	0.88743	0.25	0.515
Mof_O 	O 	0.19329	0.0391	0.25	-0.446
Mof_O 	O 	0.24514	0.7961	0.25	-0.343
Mof_P 	P 	0.66276	0.38743	0.25	0.522
Mof_O 	O 	0.69329	0.5391	0.25	-0.436
Mof_O 	O 	0.74514	0.2961	0.25	-0.333
_end
