data_functionalizedCrystal
_audit_creation_method	'EQeq! by Chris Wilmer'
_symmetry_space_group_name_H-M	'P1'
_symmetry_Int_Tables_number	1
_symmetry_cell_setting	triclinic
loop_
_symmetry_equiv_pos_as_xyz
  x,y,z
_cell_length_a	9.7012
_cell_length_b	12.442
_cell_length_c	17.218
_cell_angle_alpha	89.83
_cell_angle_beta	75.01
_cell_angle_gamma	73.33
loop_
_atom_site_label
_atom_site_type_symbol
_atom_site_fract_x
_atom_site_fract_y
_atom_site_fract_z
_atom_site_charge
Mof_Zn	Zn	0.35164	0.19291	0.1837	1.188
Mof_Zn	Zn	0.96083	0.88684	0.19338	1.218
Mof_Na	Na	0.23335	0.44451	0.27429	2.678
Mof_O 	O 	0.086	0.8229	0.00636	-0.52
Mof_O 	O 	0.0379	0.7458	0.123	-0.542
Mof_O 	O 	0.4198	0.2352	0.03099	-0.415
Mof_O 	O 	0.2942	0.3452	0.14291	-0.809
Mof_O 	O 	0.39	0.4595	0.75137	-0.258
Mof_O 	O 	0.4842	0.6149	0.77003	-0.523
Mof_O 	O 	0.6286	0.4241	0.78301	-0.554
Mof_O 	O 	0.2064	0.044	0.6347	-0.359
Mof_O 	O 	0.0125	0.1732	0.70833	-0.56
Mof_O 	O 	0.2472	0.2544	0.29619	-0.84
Mof_O 	O 	0.3362	0.0827	0.3345	-0.369
Mof_O 	O 	0.7778	0.5272	0.45998	-0.326
Mof_O 	O 	0.7188	0.5172	0.60332	-0.661
Mof_O 	O 	0.6479	0.3975	0.521	-0.27
Mof_S 	S 	0.48099	0.50247	0.79233	0.495
Mof_S 	S 	0.75516	0.45716	0.52622	0.703
Mof_C 	C 	0.6661	0.0882	0.0909	0.095
Mof_H 	H 	0.6468	0.1254	0.0449	-0.024
Mof_C 	C 	0.6389	0.0329	0.2076	0.065
Mof_H 	H 	0.5962	0.0225	0.2622	-0
Mof_C 	C 	0.1701	0.0284	0.1977	0.041
Mof_H 	H 	0.18	0.0104	0.25	-0.02
Mof_C 	C 	0.1884	0.0991	0.0864	0.092
Mof_H 	H 	0.2147	0.1425	0.0426	-0.039
Mof_C 	C 	0.3845	0.5165	0.8954	-0.223
Mof_C 	C 	0.2852	0.6198	0.9298	0.209
Mof_H 	H 	0.2711	0.683	0.8984	-0.025
Mof_C 	C 	0.2069	0.6297	0.0104	-0.314
Mof_C 	C 	0.2291	0.5362	0.0555	0.246
Mof_H 	H 	0.1766	0.5431	0.1109	-0.124
Mof_C 	C 	0.3285	0.4318	0.0198	-0.342
Mof_C 	C 	0.4073	0.4221	0.9395	0.226
Mof_H 	H 	0.4758	0.3522	0.9149	-0.019
Mof_C 	C 	0.1018	0.7425	0.0489	0.47
Mof_C 	C 	0.3507	0.33	0.0665	0.504
Mof_C 	C 	0.9254	0.3474	0.5155	-0.27
Mof_C 	C 	0.9497	0.2891	0.5813	0.255
Mof_H 	H 	0.882	0.3129	0.6331	-0.107
Mof_C 	C 	0.0746	0.1945	0.5713	-0.298
Mof_C 	C 	0.1731	0.1597	0.4955	0.194
Mof_H 	H 	0.2562	0.0941	0.4884	-0.011
Mof_C 	C 	0.1501	0.2207	0.4302	-0.294
Mof_C 	C 	0.0253	0.3161	0.4408	0.181
Mof_H 	H 	0.01	0.3589	0.3964	-0.136
Mof_C 	C 	0.1024	0.1297	0.6423	0.432
Mof_C 	C 	0.2533	0.1817	0.3483	0.505
Mof_N 	N 	0.5639	0.1007	0.16155	-0.285
Mof_N 	N 	0.7973	0.0183	0.09174	-0.244
Mof_N 	N 	0.7789	0.9826	0.16763	-0.207
Mof_N 	N 	0.2305	0.1009	0.15449	-0.283
Mof_N 	N 	0.0948	0.9845	0.15898	-0.207
Mof_N 	N 	0.1067	0.0308	0.08649	-0.269
Mof_Zn	Zn	0.64836	0.80709	0.8163	1.192
Mof_Zn	Zn	0.03917	0.11316	0.80662	1.187
Mof_Na	Na	0.76665	0.55549	0.72571	2.744
Mof_O 	O 	0.914	0.1771	0.99364	-0.449
Mof_O 	O 	0.9621	0.2542	0.877	-0.487
Mof_O 	O 	0.5802	0.7648	0.96901	-0.36
Mof_O 	O 	0.7058	0.6548	0.85709	-0.793
Mof_O 	O 	0.61	0.5405	0.24863	-0.236
Mof_O 	O 	0.5158	0.3851	0.22997	-0.507
Mof_O 	O 	0.3714	0.5759	0.21699	-0.541
Mof_O 	O 	0.7936	0.956	0.3653	-0.297
Mof_O 	O 	0.9875	0.8268	0.29167	-0.49
Mof_O 	O 	0.7528	0.7456	0.70381	-0.841
Mof_O 	O 	0.6638	0.9173	0.6655	-0.344
Mof_O 	O 	0.2222	0.4728	0.54002	-0.354
Mof_O 	O 	0.2812	0.4828	0.39668	-0.657
Mof_O 	O 	0.3521	0.6025	0.479	-0.27
Mof_S 	S 	0.51901	0.49753	0.20767	0.453
Mof_S 	S 	0.24484	0.54284	0.47378	0.711
Mof_C 	C 	0.3339	0.9118	0.9091	0.115
Mof_H 	H 	0.3532	0.8746	0.9551	0.003
Mof_C 	C 	0.3611	0.9671	0.7924	0.163
Mof_H 	H 	0.4038	0.9775	0.7378	-0.008
Mof_C 	C 	0.8299	0.9716	0.8023	0.149
Mof_H 	H 	0.82	0.9896	0.75	-0.014
Mof_C 	C 	0.8116	0.9009	0.9136	0.121
Mof_H 	H 	0.7853	0.8575	0.9574	-0.003
Mof_C 	C 	0.6155	0.4835	0.1046	-0.1
Mof_C 	C 	0.7148	0.3802	0.0702	0.011
Mof_H 	H 	0.7289	0.317	0.1016	0.033
Mof_C 	C 	0.7931	0.3703	0.9896	-0.121
Mof_C 	C 	0.7709	0.4638	0.9445	0.118
Mof_H 	H 	0.8234	0.4569	0.8891	-0.071
Mof_C 	C 	0.6715	0.5682	0.9802	-0.156
Mof_C 	C 	0.5927	0.5779	0.0605	0.027
Mof_H 	H 	0.5242	0.6478	0.0851	0.037
Mof_C 	C 	0.8982	0.2575	0.9511	0.412
Mof_C 	C 	0.6493	0.67	0.9335	0.452
Mof_C 	C 	0.0746	0.6526	0.4845	-0.338
Mof_C 	C 	0.0503	0.7109	0.4187	0.15
Mof_H 	H 	0.118	0.6871	0.3669	-0.085
Mof_C 	C 	0.9254	0.8055	0.4287	-0.174
Mof_C 	C 	0.8269	0.8403	0.5045	0.17
Mof_H 	H 	0.7438	0.9059	0.5116	0.018
Mof_C 	C 	0.8499	0.7793	0.5698	-0.291
Mof_C 	C 	0.9747	0.6839	0.5592	0.289
Mof_H 	H 	0.99	0.6411	0.6036	-0.146
Mof_C 	C 	0.8976	0.8703	0.3577	0.399
Mof_C 	C 	0.7467	0.8183	0.6517	0.513
Mof_N 	N 	0.4361	0.8993	0.83845	-0.294
Mof_N 	N 	0.2027	0.9817	0.90826	-0.195
Mof_N 	N 	0.2211	0.0174	0.83237	-0.302
Mof_N 	N 	0.7695	0.8991	0.84551	-0.288
Mof_N 	N 	0.9052	0.0155	0.84102	-0.267
Mof_N 	N 	0.8933	0.9692	0.91351	-0.19
Mof_Zn	Zn	-0	0	-0	1.152
_end
