data_functionalizedCrystal
_audit_creation_method	'EQeq! by Chris Wilmer'
_symmetry_space_group_name_H-M	'P1'
_symmetry_Int_Tables_number	1
_symmetry_cell_setting	triclinic
loop_
_symmetry_equiv_pos_as_xyz
  x,y,z
_cell_length_a	17.443
_cell_length_b	25.094
_cell_length_c	21.991
_cell_angle_alpha	90
_cell_angle_beta	90
_cell_angle_gamma	90
loop_
_atom_site_label
_atom_site_type_symbol
_atom_site_fract_x
_atom_site_fract_y
_atom_site_fract_z
_atom_site_charge
Mof_O 	O 	0.8811	0.6798	0.5653	-0.428
Mof_O 	O 	0.9307	0.6092	0.529	-0.35
Mof_O 	O 	0.5014	0.36248	0.15526	-0.425
Mof_O 	O 	0.436	0.30931	0.21956	-0.426
Mof_C 	C 	0.4345	0.3893	0.3074	0.056
Mof_H 	H 	0.4004	0.3611	0.3122	0.024
Mof_C 	C 	0.5301	0.4334	0.25	0.053
Mof_H 	H 	0.5608	0.4361	0.2155	0.03
Mof_C 	C 	0.5359	0.4711	0.2958	-0.12
Mof_H 	H 	0.5716	0.4984	0.2917	0.074
Mof_C 	C 	0.4396	0.4275	0.3518	-0.125
Mof_H 	H 	0.4082	0.425	0.3859	0.076
Mof_C 	C 	0.4713	0.3513	0.2057	0.385
Mof_C 	C 	0.4791	0.392	0.2555	-0.126
Mof_Co	Co	0.99852	0.67884	0.5761	1.166
Mof_C 	C 	0.431	0.5311	0.4215	-0.104
Mof_H 	H 	0.3833	0.5183	0.4095	0.068
Mof_C 	C 	0.232	0.639	0.5436	-0.145
Mof_C 	C 	0.5735	0.5686	0.4582	0.041
Mof_C 	C 	0.4958	0.5109	0.3948	0.039
Mof_C 	C 	0.1622	0.6654	0.5713	0.404
Mof_C 	C 	0.3641	0.5935	0.4942	0.065
Mof_C 	C 	0.4349	0.5703	0.4658	0.033
Mof_C 	C 	0.3639	0.6144	0.5513	-0.141
Mof_H 	H 	0.4086	0.6132	0.5744	0.082
Mof_C 	C 	0.567	0.5303	0.4134	-0.107
Mof_H 	H 	0.6112	0.517	0.3952	0.069
Mof_C 	C 	0.7834	0.5672	0.498	0.046
Mof_H 	H 	0.8238	0.5431	0.4965	0.033
Mof_C 	C 	0.2997	0.6372	0.5756	0.072
Mof_H 	H 	0.3017	0.6516	0.6145	0.018
Mof_C 	C 	0.5077	0.5891	0.4833	-0.103
Mof_H 	H 	0.5112	0.6159	0.5124	0.065
Mof_C 	C 	0.7962	0.6179	0.5179	-0.112
Mof_C 	C 	0.6506	0.5863	0.4791	0.047
Mof_C 	C 	0.2962	0.5954	0.4616	-0.135
Mof_H 	H 	0.2948	0.5823	0.422	0.078
Mof_C 	C 	0.7358	0.6524	0.5185	0.04
Mof_H 	H 	0.7433	0.6869	0.5327	0.032
Mof_C 	C 	0.2304	0.6167	0.487	0.069
Mof_H 	H 	0.1847	0.6157	0.4653	0.021
Mof_C 	C 	0.7119	0.5513	0.4804	-0.118
Mof_H 	H 	0.7042	0.516	0.4689	0.075
Mof_C 	C 	0.4906	0.4696	0.3471	0.052
Mof_C 	C 	0.6642	0.6376	0.4987	-0.115
Mof_H 	H 	0.6246	0.6624	0.4985	0.069
Mof_C 	C 	0.8746	0.639	0.5388	0.357
Mof_O 	O 	0.1706	0.69256	0.61706	-0.469
Mof_O 	O 	0.0989	0.65743	0.5432	-0.467
Mof_O 	O 	0.6189	0.3202	0.0653	-0.429
Mof_O 	O 	0.5693	0.3908	0.029	-0.351
Mof_O 	O 	0.9986	0.63752	0.65526	-0.425
Mof_O 	O 	0.064	0.69069	0.71956	-0.426
Mof_C 	C 	0.0655	0.6107	0.8074	0.056
Mof_H 	H 	0.0996	0.6389	0.8122	0.024
Mof_C 	C 	0.9699	0.5666	0.75	0.053
Mof_H 	H 	0.9392	0.5639	0.7155	0.03
Mof_C 	C 	0.9641	0.5289	0.7958	-0.12
Mof_H 	H 	0.9284	0.5016	0.7917	0.074
Mof_C 	C 	0.0604	0.5725	0.8518	-0.126
Mof_H 	H 	0.0918	0.575	0.8859	0.076
Mof_C 	C 	0.0287	0.6487	0.7057	0.386
Mof_C 	C 	0.0209	0.608	0.7555	-0.126
Mof_Co	Co	0.50148	0.32116	0.0761	1.166
Mof_C 	C 	0.069	0.4689	0.9215	-0.102
Mof_H 	H 	0.1167	0.4817	0.9095	0.067
Mof_C 	C 	0.268	0.361	0.0436	-0.144
Mof_C 	C 	0.9265	0.4314	0.9582	0.038
Mof_C 	C 	0.0042	0.4891	0.8948	0.037
Mof_C 	C 	0.3378	0.3346	0.0713	0.403
Mof_C 	C 	0.1359	0.4065	0.9942	0.065
Mof_C 	C 	0.0651	0.4297	0.9658	0.031
Mof_C 	C 	0.1361	0.3856	0.0513	-0.139
Mof_H 	H 	0.0914	0.3868	0.0744	0.081
Mof_C 	C 	0.933	0.4697	0.9134	-0.104
Mof_H 	H 	0.8888	0.483	0.8952	0.068
Mof_C 	C 	0.7166	0.4328	0.998	0.048
Mof_H 	H 	0.6762	0.4569	0.9965	0.033
Mof_C 	C 	0.2003	0.3628	0.0756	0.072
Mof_H 	H 	0.1983	0.3484	0.1145	0.019
Mof_C 	C 	0.9923	0.4109	0.9833	-0.099
Mof_H 	H 	0.9888	0.3841	0.0124	0.063
Mof_C 	C 	0.7038	0.3821	0.0179	-0.113
Mof_C 	C 	0.8494	0.4137	0.9791	0.048
Mof_C 	C 	0.2038	0.4046	0.9616	-0.135
Mof_H 	H 	0.2052	0.4177	0.922	0.078
Mof_C 	C 	0.7642	0.3476	0.0185	0.04
Mof_H 	H 	0.7567	0.3131	0.0327	0.031
Mof_C 	C 	0.2696	0.3833	0.987	0.067
Mof_H 	H 	0.3153	0.3843	0.9653	0.021
Mof_C 	C 	0.7881	0.4487	0.9804	-0.119
Mof_H 	H 	0.7958	0.484	0.9689	0.076
Mof_C 	C 	0.0094	0.5304	0.8471	0.053
Mof_C 	C 	0.8358	0.3624	0.9987	-0.116
Mof_H 	H 	0.8754	0.3376	0.9985	0.07
Mof_C 	C 	0.6254	0.361	0.0388	0.358
Mof_O 	O 	0.3294	0.30744	0.11706	-0.469
Mof_O 	O 	0.4011	0.34257	0.0432	-0.467
Mof_O 	O 	0.8811	0.8202	0.5653	-0.429
Mof_O 	O 	0.9307	0.8908	0.529	-0.351
Mof_O 	O 	0.5014	0.13752	0.15526	-0.425
Mof_O 	O 	0.436	0.19069	0.21956	-0.426
Mof_C 	C 	0.4345	0.1107	0.3074	0.056
Mof_H 	H 	0.4004	0.1389	0.3122	0.024
Mof_C 	C 	0.5301	0.0666	0.25	0.053
Mof_H 	H 	0.5608	0.0639	0.2155	0.03
Mof_C 	C 	0.5359	0.0289	0.2958	-0.12
Mof_H 	H 	0.5716	0.0016	0.2917	0.074
Mof_C 	C 	0.4396	0.0725	0.3518	-0.126
Mof_H 	H 	0.4082	0.075	0.3859	0.076
Mof_C 	C 	0.4713	0.1487	0.2057	0.385
Mof_C 	C 	0.4791	0.108	0.2555	-0.126
Mof_Co	Co	0.99852	0.82116	0.5761	1.166
Mof_C 	C 	0.431	0.9689	0.4215	-0.104
Mof_H 	H 	0.3833	0.9817	0.4095	0.068
Mof_C 	C 	0.232	0.861	0.5436	-0.145
Mof_C 	C 	0.5735	0.9314	0.4582	0.041
Mof_C 	C 	0.4958	0.9891	0.3948	0.039
Mof_C 	C 	0.1622	0.8346	0.5713	0.404
Mof_C 	C 	0.3641	0.9065	0.4942	0.065
Mof_C 	C 	0.4349	0.9297	0.4658	0.033
Mof_C 	C 	0.3639	0.8856	0.5513	-0.14
Mof_H 	H 	0.4086	0.8868	0.5744	0.082
Mof_C 	C 	0.567	0.9697	0.4134	-0.107
Mof_H 	H 	0.6112	0.983	0.3952	0.069
Mof_C 	C 	0.7834	0.9328	0.498	0.046
Mof_H 	H 	0.8238	0.9569	0.4965	0.033
Mof_C 	C 	0.2997	0.8628	0.5756	0.072
Mof_H 	H 	0.3017	0.8484	0.6145	0.018
Mof_C 	C 	0.5077	0.9109	0.4833	-0.103
Mof_H 	H 	0.5112	0.8841	0.5124	0.065
Mof_C 	C 	0.7962	0.8821	0.5179	-0.112
Mof_C 	C 	0.6506	0.9137	0.4791	0.047
Mof_C 	C 	0.2962	0.9046	0.4616	-0.135
Mof_H 	H 	0.2948	0.9177	0.422	0.078
Mof_C 	C 	0.7358	0.8476	0.5185	0.04
Mof_H 	H 	0.7433	0.8131	0.5327	0.032
Mof_C 	C 	0.2304	0.8833	0.487	0.069
Mof_H 	H 	0.1847	0.8843	0.4653	0.021
Mof_C 	C 	0.7119	0.9487	0.4804	-0.118
Mof_H 	H 	0.7042	0.984	0.4689	0.075
Mof_C 	C 	0.4906	0.0304	0.3471	0.052
Mof_C 	C 	0.6642	0.8624	0.4987	-0.115
Mof_H 	H 	0.6246	0.8376	0.4985	0.069
Mof_C 	C 	0.8746	0.861	0.5388	0.357
Mof_O 	O 	0.1706	0.80744	0.61706	-0.469
Mof_O 	O 	0.0989	0.84257	0.5432	-0.467
Mof_O 	O 	0.6189	0.1798	0.0653	-0.429
Mof_O 	O 	0.5693	0.1092	0.029	-0.351
Mof_O 	O 	0.9986	0.86248	0.65526	-0.426
Mof_O 	O 	0.064	0.80931	0.71956	-0.426
Mof_C 	C 	0.0655	0.8893	0.8074	0.059
Mof_H 	H 	0.0996	0.8611	0.8122	0.023
Mof_C 	C 	0.9699	0.9334	0.75	0.055
Mof_H 	H 	0.9392	0.9361	0.7155	0.029
Mof_C 	C 	0.9641	0.9711	0.7958	-0.125
Mof_H 	H 	0.9284	0.9984	0.7917	0.075
Mof_C 	C 	0.0604	0.9275	0.8518	-0.13
Mof_H 	H 	0.0918	0.925	0.8859	0.078
Mof_C 	C 	0.0287	0.8513	0.7057	0.387
Mof_C 	C 	0.0209	0.892	0.7555	-0.128
Mof_Co	Co	0.50148	0.17884	0.0761	1.166
Mof_C 	C 	0.069	0.0311	0.9215	-0.097
Mof_H 	H 	0.1167	0.0183	0.9095	0.065
Mof_C 	C 	0.268	0.139	0.0436	-0.145
Mof_C 	C 	0.9265	0.0686	0.9582	0.035
Mof_C 	C 	0.0042	0.0109	0.8948	0.03
Mof_C 	C 	0.3378	0.1654	0.0713	0.404
Mof_C 	C 	0.1359	0.0935	0.9942	0.066
Mof_C 	C 	0.0651	0.0703	0.9658	0.027
Mof_C 	C 	0.1361	0.1144	0.0513	-0.14
Mof_H 	H 	0.0914	0.1132	0.0744	0.082
Mof_C 	C 	0.933	0.0303	0.9134	-0.098
Mof_H 	H 	0.8888	0.017	0.8952	0.066
Mof_C 	C 	0.7166	0.0672	0.998	0.049
Mof_H 	H 	0.6762	0.0431	0.9965	0.032
Mof_C 	C 	0.2003	0.1372	0.0756	0.072
Mof_H 	H 	0.1983	0.1516	0.1145	0.018
Mof_C 	C 	0.9923	0.0891	0.9833	-0.095
Mof_H 	H 	0.9888	0.1159	0.0124	0.062
Mof_C 	C 	0.7038	0.1179	0.0179	-0.113
Mof_C 	C 	0.8494	0.0863	0.9791	0.051
Mof_C 	C 	0.2038	0.0954	0.9616	-0.136
Mof_H 	H 	0.2052	0.0823	0.922	0.078
Mof_C 	C 	0.7642	0.1524	0.0185	0.042
Mof_H 	H 	0.7567	0.1869	0.0327	0.031
Mof_C 	C 	0.2696	0.1167	0.987	0.068
Mof_H 	H 	0.3153	0.1157	0.9653	0.021
Mof_C 	C 	0.7881	0.0513	0.9804	-0.12
Mof_H 	H 	0.7958	0.016	0.9689	0.076
Mof_C 	C 	0.0094	0.9696	0.8471	0.059
Mof_C 	C 	0.8358	0.1376	0.9987	-0.118
Mof_H 	H 	0.8754	0.1624	0.9985	0.071
Mof_C 	C 	0.6254	0.139	0.0388	0.358
Mof_O 	O 	0.3294	0.19256	0.11706	-0.469
Mof_O 	O 	0.4011	0.15743	0.0432	-0.467
Mof_Co	Co	0.11287	0.75	0.66593	1.167
Mof_O 	O 	0.0096	0.75	0.6156	-0.61
Mof_Co	Co	0.38713	0.25	0.16593	1.167
Mof_O 	O 	0.4904	0.25	0.1156	-0.611
Mof_O 	O 	0.1189	0.1798	0.4347	-0.429
Mof_O 	O 	0.0693	0.1092	0.471	-0.351
Mof_O 	O 	0.4986	0.86248	0.84474	-0.425
Mof_O 	O 	0.564	0.80931	0.78044	-0.426
Mof_C 	C 	0.5655	0.8893	0.6926	0.056
Mof_H 	H 	0.5996	0.8611	0.6878	0.024
Mof_C 	C 	0.4699	0.9334	0.75	0.053
Mof_H 	H 	0.4392	0.9361	0.7845	0.03
Mof_C 	C 	0.4641	0.9711	0.7042	-0.12
Mof_H 	H 	0.4284	0.9984	0.7083	0.074
Mof_C 	C 	0.5604	0.9275	0.6482	-0.126
Mof_H 	H 	0.5918	0.925	0.6141	0.076
Mof_C 	C 	0.5287	0.8513	0.7943	0.385
Mof_C 	C 	0.5209	0.892	0.7445	-0.126
Mof_Co	Co	0.00148	0.17884	0.4239	1.166
Mof_C 	C 	0.569	0.0311	0.5785	-0.104
Mof_H 	H 	0.6167	0.0183	0.5905	0.068
Mof_C 	C 	0.768	0.139	0.4564	-0.145
Mof_C 	C 	0.4265	0.0686	0.5418	0.041
Mof_C 	C 	0.5042	0.0109	0.6052	0.039
Mof_C 	C 	0.8378	0.1654	0.4287	0.404
Mof_C 	C 	0.6359	0.0935	0.5058	0.065
Mof_C 	C 	0.5651	0.0703	0.5342	0.033
Mof_C 	C 	0.6361	0.1144	0.4487	-0.14
Mof_H 	H 	0.5914	0.1132	0.4256	0.082
Mof_C 	C 	0.433	0.0303	0.5866	-0.107
Mof_H 	H 	0.3888	0.017	0.6048	0.069
Mof_C 	C 	0.2166	0.0672	0.502	0.046
Mof_H 	H 	0.1762	0.0431	0.5035	0.033
Mof_C 	C 	0.7003	0.1372	0.4244	0.072
Mof_H 	H 	0.6983	0.1516	0.3855	0.018
Mof_C 	C 	0.4923	0.0891	0.5167	-0.103
Mof_H 	H 	0.4888	0.1159	0.4876	0.065
Mof_C 	C 	0.2038	0.1179	0.4821	-0.112
Mof_C 	C 	0.3494	0.0863	0.5209	0.047
Mof_C 	C 	0.7038	0.0954	0.5384	-0.135
Mof_H 	H 	0.7052	0.0823	0.578	0.078
Mof_C 	C 	0.2642	0.1524	0.4815	0.04
Mof_H 	H 	0.2567	0.1869	0.4673	0.032
Mof_C 	C 	0.7696	0.1167	0.513	0.069
Mof_H 	H 	0.8153	0.1157	0.5347	0.021
Mof_C 	C 	0.2881	0.0513	0.5196	-0.118
Mof_H 	H 	0.2958	0.016	0.5311	0.075
Mof_C 	C 	0.5094	0.9696	0.6529	0.052
Mof_C 	C 	0.3358	0.1376	0.5013	-0.115
Mof_H 	H 	0.3754	0.1624	0.5015	0.069
Mof_C 	C 	0.1254	0.139	0.4612	0.357
Mof_O 	O 	0.8294	0.19256	0.38294	-0.469
Mof_O 	O 	0.9011	0.15743	0.4568	-0.467
Mof_O 	O 	0.3811	0.8202	0.9347	-0.429
Mof_O 	O 	0.4307	0.8908	0.971	-0.351
Mof_O 	O 	0.0014	0.13752	0.34474	-0.426
Mof_O 	O 	0.936	0.19069	0.28044	-0.426
Mof_C 	C 	0.9345	0.1107	0.1926	0.059
Mof_H 	H 	0.9004	0.1389	0.1878	0.023
Mof_C 	C 	0.0301	0.0666	0.25	0.055
Mof_H 	H 	0.0608	0.0639	0.2845	0.029
Mof_C 	C 	0.0359	0.0289	0.2042	-0.125
Mof_H 	H 	0.0716	0.0016	0.2083	0.075
Mof_C 	C 	0.9396	0.0725	0.1482	-0.13
Mof_H 	H 	0.9082	0.075	0.1141	0.078
Mof_C 	C 	0.9713	0.1487	0.2943	0.387
Mof_C 	C 	0.9791	0.108	0.2445	-0.128
Mof_Co	Co	0.49852	0.82116	0.9239	1.166
Mof_C 	C 	0.931	0.9689	0.0785	-0.097
Mof_H 	H 	0.8833	0.9817	0.0905	0.065
Mof_C 	C 	0.732	0.861	0.9564	-0.145
Mof_C 	C 	0.0735	0.9314	0.0418	0.035
Mof_C 	C 	0.9958	0.9891	0.1052	0.03
Mof_C 	C 	0.6622	0.8346	0.9287	0.404
Mof_C 	C 	0.8641	0.9065	0.0058	0.066
Mof_C 	C 	0.9349	0.9297	0.0342	0.027
Mof_C 	C 	0.8639	0.8856	0.9487	-0.14
Mof_H 	H 	0.9086	0.8868	0.9256	0.082
Mof_C 	C 	0.067	0.9697	0.0866	-0.098
Mof_H 	H 	0.1112	0.983	0.1048	0.066
Mof_C 	C 	0.2834	0.9328	0.002	0.049
Mof_H 	H 	0.3238	0.9569	0.0035	0.032
Mof_C 	C 	0.7997	0.8628	0.9244	0.072
Mof_H 	H 	0.8017	0.8484	0.8855	0.018
Mof_C 	C 	0.0077	0.9109	0.0167	-0.095
Mof_H 	H 	0.0112	0.8841	0.9876	0.062
Mof_C 	C 	0.2962	0.8821	0.9821	-0.113
Mof_C 	C 	0.1506	0.9137	0.0209	0.051
Mof_C 	C 	0.7962	0.9046	0.0384	-0.136
Mof_H 	H 	0.7948	0.9177	0.078	0.078
Mof_C 	C 	0.2358	0.8476	0.9815	0.042
Mof_H 	H 	0.2433	0.8131	0.9673	0.031
Mof_C 	C 	0.7304	0.8833	0.013	0.068
Mof_H 	H 	0.6847	0.8843	0.0347	0.021
Mof_C 	C 	0.2119	0.9487	0.0196	-0.12
Mof_H 	H 	0.2042	0.984	0.0311	0.076
Mof_C 	C 	0.9906	0.0304	0.1529	0.059
Mof_C 	C 	0.1642	0.8624	0.0013	-0.118
Mof_H 	H 	0.1246	0.8376	0.0015	0.071
Mof_C 	C 	0.3746	0.861	0.9612	0.358
Mof_O 	O 	0.6706	0.80744	0.88294	-0.469
Mof_O 	O 	0.5989	0.84257	0.9568	-0.467
Mof_O 	O 	0.1189	0.3202	0.4347	-0.429
Mof_O 	O 	0.0693	0.3908	0.471	-0.351
Mof_O 	O 	0.4986	0.63752	0.84474	-0.425
Mof_O 	O 	0.564	0.69069	0.78044	-0.426
Mof_C 	C 	0.5655	0.6107	0.6926	0.056
Mof_H 	H 	0.5996	0.6389	0.6878	0.024
Mof_C 	C 	0.4699	0.5666	0.75	0.053
Mof_H 	H 	0.4392	0.5639	0.7845	0.03
Mof_C 	C 	0.4641	0.5289	0.7042	-0.12
Mof_H 	H 	0.4284	0.5016	0.7083	0.074
Mof_C 	C 	0.5604	0.5725	0.6482	-0.125
Mof_H 	H 	0.5918	0.575	0.6141	0.076
Mof_C 	C 	0.5287	0.6487	0.7943	0.385
Mof_C 	C 	0.5209	0.608	0.7445	-0.126
Mof_Co	Co	0.00148	0.32116	0.4239	1.166
Mof_C 	C 	0.569	0.4689	0.5785	-0.104
Mof_H 	H 	0.6167	0.4817	0.5905	0.068
Mof_C 	C 	0.768	0.361	0.4564	-0.145
Mof_C 	C 	0.4265	0.4314	0.5418	0.041
Mof_C 	C 	0.5042	0.4891	0.6052	0.039
Mof_C 	C 	0.8378	0.3346	0.4287	0.404
Mof_C 	C 	0.6359	0.4065	0.5058	0.065
Mof_C 	C 	0.5651	0.4297	0.5342	0.033
Mof_C 	C 	0.6361	0.3856	0.4487	-0.141
Mof_H 	H 	0.5914	0.3868	0.4256	0.082
Mof_C 	C 	0.433	0.4697	0.5866	-0.107
Mof_H 	H 	0.3888	0.483	0.6048	0.069
Mof_C 	C 	0.2166	0.4328	0.502	0.046
Mof_H 	H 	0.1762	0.4569	0.5035	0.033
Mof_C 	C 	0.7003	0.3628	0.4244	0.072
Mof_H 	H 	0.6983	0.3484	0.3855	0.018
Mof_C 	C 	0.4923	0.4109	0.5167	-0.103
Mof_H 	H 	0.4888	0.3841	0.4876	0.065
Mof_C 	C 	0.2038	0.3821	0.4821	-0.112
Mof_C 	C 	0.3494	0.4137	0.5209	0.047
Mof_C 	C 	0.7038	0.4046	0.5384	-0.135
Mof_H 	H 	0.7052	0.4177	0.578	0.078
Mof_C 	C 	0.2642	0.3476	0.4815	0.04
Mof_H 	H 	0.2567	0.3131	0.4673	0.032
Mof_C 	C 	0.7696	0.3833	0.513	0.069
Mof_H 	H 	0.8153	0.3843	0.5347	0.021
Mof_C 	C 	0.2881	0.4487	0.5196	-0.118
Mof_H 	H 	0.2958	0.484	0.5311	0.075
Mof_C 	C 	0.5094	0.5304	0.6529	0.052
Mof_C 	C 	0.3358	0.3624	0.5013	-0.115
Mof_H 	H 	0.3754	0.3376	0.5015	0.069
Mof_C 	C 	0.1254	0.361	0.4612	0.357
Mof_O 	O 	0.8294	0.30744	0.38294	-0.469
Mof_O 	O 	0.9011	0.34257	0.4568	-0.467
Mof_O 	O 	0.3811	0.6798	0.9347	-0.429
Mof_O 	O 	0.4307	0.6092	0.971	-0.351
Mof_O 	O 	0.0014	0.36248	0.34474	-0.425
Mof_O 	O 	0.936	0.30931	0.28044	-0.426
Mof_C 	C 	0.9345	0.3893	0.1926	0.056
Mof_H 	H 	0.9004	0.3611	0.1878	0.024
Mof_C 	C 	0.0301	0.4334	0.25	0.053
Mof_H 	H 	0.0608	0.4361	0.2845	0.03
Mof_C 	C 	0.0359	0.4711	0.2042	-0.12
Mof_H 	H 	0.0716	0.4984	0.2083	0.074
Mof_C 	C 	0.9396	0.4275	0.1482	-0.126
Mof_H 	H 	0.9082	0.425	0.1141	0.076
Mof_C 	C 	0.9713	0.3513	0.2943	0.386
Mof_C 	C 	0.9791	0.392	0.2445	-0.126
Mof_Co	Co	0.49852	0.67884	0.9239	1.166
Mof_C 	C 	0.931	0.5311	0.0785	-0.102
Mof_H 	H 	0.8833	0.5183	0.0905	0.067
Mof_C 	C 	0.732	0.639	0.9564	-0.144
Mof_C 	C 	0.0735	0.5686	0.0418	0.038
Mof_C 	C 	0.9958	0.5109	0.1052	0.037
Mof_C 	C 	0.6622	0.6654	0.9287	0.403
Mof_C 	C 	0.8641	0.5935	0.0058	0.065
Mof_C 	C 	0.9349	0.5703	0.0342	0.031
Mof_C 	C 	0.8639	0.6144	0.9487	-0.139
Mof_H 	H 	0.9086	0.6132	0.9256	0.081
Mof_C 	C 	0.067	0.5303	0.0866	-0.104
Mof_H 	H 	0.1112	0.517	0.1048	0.068
Mof_C 	C 	0.2834	0.5672	0.002	0.048
Mof_H 	H 	0.3238	0.5431	0.0035	0.033
Mof_C 	C 	0.7997	0.6372	0.9244	0.072
Mof_H 	H 	0.8017	0.6516	0.8855	0.019
Mof_C 	C 	0.0077	0.5891	0.0167	-0.099
Mof_H 	H 	0.0112	0.6159	0.9876	0.063
Mof_C 	C 	0.2962	0.6179	0.9821	-0.113
Mof_C 	C 	0.1506	0.5863	0.0209	0.048
Mof_C 	C 	0.7962	0.5954	0.0384	-0.135
Mof_H 	H 	0.7948	0.5823	0.078	0.078
Mof_C 	C 	0.2358	0.6524	0.9815	0.04
Mof_H 	H 	0.2433	0.6869	0.9673	0.031
Mof_C 	C 	0.7304	0.6167	0.013	0.067
Mof_H 	H 	0.6847	0.6157	0.0347	0.021
Mof_C 	C 	0.2119	0.5513	0.0196	-0.119
Mof_H 	H 	0.2042	0.516	0.0311	0.076
Mof_C 	C 	0.9906	0.4696	0.1529	0.053
Mof_C 	C 	0.1642	0.6376	0.0013	-0.116
Mof_H 	H 	0.1246	0.6624	0.0015	0.07
Mof_C 	C 	0.3746	0.639	0.9612	0.358
Mof_O 	O 	0.6706	0.69256	0.88294	-0.469
Mof_O 	O 	0.5989	0.65743	0.9568	-0.467
Mof_Co	Co	0.88713	0.25	0.33407	1.167
Mof_O 	O 	0.9904	0.25	0.3844	-0.61
Mof_Co	Co	0.61287	0.75	0.83407	1.167
Mof_O 	O 	0.5096	0.75	0.8844	-0.611
_end
