data_functionalizedCrystal
_audit_creation_method	'EQeq! by Chris Wilmer'
_symmetry_space_group_name_H-M	'P1'
_symmetry_Int_Tables_number	1
_symmetry_cell_setting	triclinic
loop_
_symmetry_equiv_pos_as_xyz
  x,y,z
_cell_length_a	20.757
_cell_length_b	20.757
_cell_length_c	20.757
_cell_angle_alpha	90
_cell_angle_beta	90
_cell_angle_gamma	90
loop_
_atom_site_label
_atom_site_type_symbol
_atom_site_fract_x
_atom_site_fract_y
_atom_site_fract_z
_atom_site_charge
Mof_Zr	Zr	0.1194	0	-0	3.088
Mof_Zr	Zr	0.1194	0.5	0.5	3.191
Mof_Zr	Zr	0.6194	-5.6453e-33	0.5	3.233
Mof_Zr	Zr	0.6194	0.5	-0	3.233
Mof_Zr	Zr	0.8806	0	-0	3.279
Mof_Zr	Zr	0.8806	0.5	0.5	3.388
Mof_Zr	Zr	0.3806	-5.6453e-33	0.5	3.232
Mof_Zr	Zr	0.3806	0.5	-0	3.232
Mof_Zr	Zr	-0	0.1194	-0	3.088
Mof_Zr	Zr	-3.7706e-33	0.6194	0.5	3.233
Mof_Zr	Zr	0.5	0.1194	0.5	3.191
Mof_Zr	Zr	0.5	0.6194	-0	3.233
Mof_Zr	Zr	-1.12906e-32	0.8806	-0	3.279
Mof_Zr	Zr	1.8747e-33	0.3806	0.5	3.232
Mof_Zr	Zr	0.5	0.8806	0.5	3.387
Mof_Zr	Zr	0.5	0.3806	-0	3.231
Mof_Zr	Zr	4.47678e-34	0	0.1194	3.087
Mof_Zr	Zr	-3.32292e-33	0.5	0.6194	3.232
Mof_Zr	Zr	0.5	-5.6453e-33	0.6194	3.232
Mof_Zr	Zr	0.5	0.5	0.1194	3.19
Mof_Zr	Zr	-7.98887e-33	-1.12906e-32	0.8806	3.278
Mof_Zr	Zr	1.42702e-33	0.5	0.3806	3.231
Mof_Zr	Zr	0.5	-2.82265e-33	0.3806	3.231
Mof_Zr	Zr	0.5	0.5	0.8806	3.387
Mof_O 	O 	0.1713	0.0934	-0	-0.077
Mof_C 	C 	0.2666	0.1861	-0	-0.143
Mof_H 	H 	0.2786	0.142	-0	0.007
Mof_O 	O 	0.1971	0.0744	-0	-0.663
Mof_O 	O 	0.1713	0.5934	0.5	-0.827
Mof_C 	C 	0.2666	0.6861	0.5	-0.301
Mof_H 	H 	0.2786	0.642	0.5	0.128
Mof_O 	O 	0.1971	0.5744	0.5	0.142
Mof_O 	O 	0.6713	0.0934	0.5	-0.883
Mof_C 	C 	0.7666	0.1861	0.5	-0.28
Mof_H 	H 	0.7786	0.142	0.5	0.158
Mof_O 	O 	0.6971	0.0744	0.5	0.231
Mof_O 	O 	0.6713	0.5934	-0	0.07
Mof_C 	C 	0.7666	0.6861	-0	-0.691
Mof_H 	H 	0.7786	0.642	-0	0.265
Mof_O 	O 	0.6971	0.5744	-0	-0.764
Mof_O 	O 	0.8287	0.9066	-0	-2.543
Mof_C 	C 	0.7334	0.8139	-0	0.799
Mof_H 	H 	0.7214	0.858	-0	-0.261
Mof_O 	O 	0.8029	0.9256	-0	1.573
Mof_O 	O 	0.8287	0.4066	0.5	-1.928
Mof_C 	C 	0.7334	0.3139	0.5	0.51
Mof_H 	H 	0.7214	0.358	0.5	-0.184
Mof_O 	O 	0.8029	0.4256	0.5	0.94
Mof_O 	O 	0.3287	0.9066	0.5	-2.6
Mof_C 	C 	0.2334	0.8139	0.5	0.523
Mof_H 	H 	0.2214	0.858	0.5	-0.098
Mof_O 	O 	0.3029	0.9256	0.5	1.916
Mof_O 	O 	0.3287	0.4066	-0	-0.195
Mof_C 	C 	0.2334	0.3139	-0	-0.068
Mof_H 	H 	0.2214	0.358	-0	-0.018
Mof_O 	O 	0.3029	0.4256	-0	-0.591
Mof_O 	O 	0.8287	0.0934	-0	-0.986
Mof_C 	C 	0.7334	0.1861	-0	0.325
Mof_H 	H 	0.7214	0.142	-0	-0.181
Mof_O 	O 	0.8029	0.0744	-0	-0.014
Mof_O 	O 	0.8287	0.5934	0.5	-1.746
Mof_C 	C 	0.7334	0.6861	0.5	0.176
Mof_H 	H 	0.7214	0.642	0.5	-0.063
Mof_O 	O 	0.8029	0.5744	0.5	0.796
Mof_O 	O 	0.3287	0.0934	0.5	-0.996
Mof_C 	C 	0.2334	0.1861	0.5	0.031
Mof_H 	H 	0.2214	0.142	0.5	-0.013
Mof_O 	O 	0.3029	0.0744	0.5	0.285
Mof_O 	O 	0.3287	0.5934	-0	-0.027
Mof_C 	C 	0.2334	0.6861	-0	-0.394
Mof_H 	H 	0.2214	0.642	-0	0.099
Mof_O 	O 	0.3029	0.5744	-0	-0.724
Mof_O 	O 	0.1713	0.9066	-0	-1.655
Mof_C 	C 	0.2666	0.8139	-0	0.339
Mof_H 	H 	0.2786	0.858	-0	-0.076
Mof_O 	O 	0.1971	0.9256	-0	0.944
Mof_O 	O 	0.1713	0.4066	0.5	-1.004
Mof_C 	C 	0.2666	0.3139	0.5	0.032
Mof_H 	H 	0.2786	0.358	0.5	0.008
Mof_O 	O 	0.1971	0.4256	0.5	0.282
Mof_O 	O 	0.6713	0.9066	0.5	-2.478
Mof_C 	C 	0.7666	0.8139	0.5	0.211
Mof_H 	H 	0.7786	0.858	0.5	0.073
Mof_O 	O 	0.6971	0.9256	0.5	1.853
Mof_O 	O 	0.6713	0.4066	-0	-0.093
Mof_C 	C 	0.7666	0.3139	-0	-0.371
Mof_H 	H 	0.7786	0.358	-0	0.15
Mof_O 	O 	0.6971	0.4256	-0	-0.635
Mof_O 	O 	3.50194e-34	0.1713	0.0934	-0.077
Mof_C 	C 	-2.12488e-33	0.2666	0.1861	-0.143
Mof_H 	H 	6.17771e-33	0.2786	0.142	0.007
Mof_O 	O 	2.78955e-34	0.1971	0.0744	-0.663
Mof_O 	O 	2.22489e-33	0.6713	0.5934	0.07
Mof_C 	C 	1.38631e-32	0.7666	0.6861	-0.691
Mof_H 	H 	-3.23818e-33	0.7786	0.642	0.265
Mof_O 	O 	2.15366e-33	0.6971	0.5744	-0.764
Mof_O 	O 	0.5	0.1713	0.5934	-0.827
Mof_C 	C 	0.5	0.2666	0.6861	-0.301
Mof_H 	H 	0.5	0.2786	0.642	0.128
Mof_O 	O 	0.5	0.1971	0.5744	0.142
Mof_O 	O 	0.5	0.6713	0.0934	-0.883
Mof_C 	C 	0.5	0.7666	0.1861	-0.28
Mof_H 	H 	0.5	0.7786	0.142	0.158
Mof_O 	O 	0.5	0.6971	0.0744	0.231
Mof_O 	O 	3.39921e-33	0.8287	0.9066	-2.543
Mof_C 	C 	-1.95295e-32	0.7334	0.8139	0.799
Mof_H 	H 	-1.93642e-32	0.7214	0.858	-0.261
Mof_O 	O 	3.47044e-33	0.8029	0.9256	1.573
Mof_O 	O 	-4.12079e-33	0.3287	0.4066	-0.195
Mof_C 	C 	1.17694e-33	0.2334	0.3139	-0.068
Mof_H 	H 	-7.12566e-33	0.2214	0.358	-0.018
Mof_O 	O 	-4.04955e-33	0.3029	0.4256	-0.591
Mof_O 	O 	0.5	0.8287	0.4066	-1.928
Mof_C 	C 	0.5	0.7334	0.3139	0.51
Mof_H 	H 	0.5	0.7214	0.358	-0.184
Mof_O 	O 	0.5	0.8029	0.4256	0.94
Mof_O 	O 	0.5	0.3287	0.9066	-2.6
Mof_C 	C 	0.5	0.2334	0.8139	0.523
Mof_H 	H 	0.5	0.2214	0.858	-0.098
Mof_O 	O 	0.5	0.3029	0.9256	1.916
Mof_O 	O 	-1.06113e-33	0.8287	0.0934	-0.986
Mof_C 	C 	-2.12488e-33	0.7334	0.1861	0.325
Mof_H 	H 	-2.29023e-33	0.7214	0.142	-0.181
Mof_O 	O 	3.1016e-33	0.8029	0.0744	-0.014
Mof_O 	O 	-3.4204e-33	0.3287	0.5934	-0.027
Mof_C 	C 	2.57246e-33	0.2334	0.6861	-0.394
Mof_H 	H 	-3.23818e-33	0.2214	0.642	0.099
Mof_O 	O 	2.15366e-33	0.3029	0.5744	-0.724
Mof_O 	O 	0.5	0.8287	0.5934	-1.746
Mof_C 	C 	0.5	0.7334	0.6861	0.176
Mof_H 	H 	0.5	0.7214	0.642	-0.063
Mof_O 	O 	0.5	0.8029	0.5744	0.796
Mof_O 	O 	0.5	0.3287	0.0934	-0.996
Mof_C 	C 	0.5	0.2334	0.1861	0.031
Mof_H 	H 	0.5	0.2214	0.142	-0.013
Mof_O 	O 	0.5	0.3029	0.0744	0.285
Mof_O 	O 	-7.89138e-33	0.1713	0.9066	-1.655
Mof_C 	C 	-2.59366e-33	0.2666	0.8139	0.339
Mof_H 	H 	3.21698e-33	0.2786	0.858	-0.076
Mof_O 	O 	3.47044e-33	0.1971	0.9256	0.944
Mof_O 	O 	-6.94344e-33	0.6713	0.4066	-0.093
Mof_C 	C 	-1.64571e-33	0.7666	0.3139	-0.371
Mof_H 	H 	-7.12566e-33	0.7786	0.358	0.15
Mof_O 	O 	-4.04955e-33	0.6971	0.4256	-0.635
Mof_O 	O 	0.5	0.1713	0.4066	-1.004
Mof_C 	C 	0.5	0.2666	0.3139	0.032
Mof_H 	H 	0.5	0.2786	0.358	0.008
Mof_O 	O 	0.5	0.1971	0.4256	0.282
Mof_O 	O 	0.5	0.6713	0.9066	-2.478
Mof_C 	C 	0.5	0.7666	0.8139	0.211
Mof_H 	H 	0.5	0.7786	0.858	0.073
Mof_O 	O 	0.5	0.6971	0.9256	1.853
Mof_O 	O 	0.0934	-1.41132e-33	0.1713	-0.077
Mof_C 	C 	0.1861	0	0.2666	-0.143
Mof_H 	H 	0.142	0	0.2786	0.007
Mof_O 	O 	0.0744	-1.41132e-33	0.1971	-0.663
Mof_O 	O 	0.0934	0.5	0.6713	-0.883
Mof_C 	C 	0.1861	0.5	0.7666	-0.28
Mof_H 	H 	0.142	0.5	0.7786	0.158
Mof_O 	O 	0.0744	0.5	0.6971	0.231
Mof_O 	O 	0.5934	0	0.6713	0.07
Mof_C 	C 	0.6861	-5.6453e-33	0.7666	-0.691
Mof_H 	H 	0.642	0	0.7786	0.265
Mof_O 	O 	0.5744	-5.6453e-33	0.6971	-0.764
Mof_O 	O 	0.5934	0.5	0.1713	-0.827
Mof_C 	C 	0.6861	0.5	0.2666	-0.301
Mof_H 	H 	0.642	0.5	0.2786	0.128
Mof_O 	O 	0.5744	0.5	0.1971	0.142
Mof_O 	O 	0.9066	0	0.8287	-2.543
Mof_C 	C 	0.8139	0	0.7334	0.799
Mof_H 	H 	0.858	5.6453e-33	0.7214	-0.261
Mof_O 	O 	0.9256	0	0.8029	1.573
Mof_O 	O 	0.9066	0.5	0.3287	-2.6
Mof_C 	C 	0.8139	0.5	0.2334	0.523
Mof_H 	H 	0.858	0.5	0.2214	-0.098
Mof_O 	O 	0.9256	0.5	0.3029	1.916
Mof_O 	O 	0.4066	-2.82265e-33	0.3287	-0.195
Mof_C 	C 	0.3139	0	0.2334	-0.068
Mof_H 	H 	0.358	0	0.2214	-0.018
Mof_O 	O 	0.4256	0	0.3029	-0.591
Mof_O 	O 	0.4066	0.5	0.8287	-1.928
Mof_C 	C 	0.3139	0.5	0.7334	0.51
Mof_H 	H 	0.358	0.5	0.7214	-0.184
Mof_O 	O 	0.4256	0.5	0.8029	0.94
Mof_O 	O 	0.0934	0	0.8287	-0.986
Mof_C 	C 	0.1861	0	0.7334	0.325
Mof_H 	H 	0.142	5.6453e-33	0.7214	-0.181
Mof_O 	O 	0.0744	0	0.8029	-0.014
Mof_O 	O 	0.0934	0.5	0.3287	-0.996
Mof_C 	C 	0.1861	0.5	0.2334	0.031
Mof_H 	H 	0.142	0.5	0.2214	-0.013
Mof_O 	O 	0.0744	0.5	0.3029	0.285
Mof_O 	O 	0.5934	-2.82265e-33	0.3287	-0.027
Mof_C 	C 	0.6861	0	0.2334	-0.394
Mof_H 	H 	0.642	0	0.2214	0.099
Mof_O 	O 	0.5744	0	0.3029	-0.724
Mof_O 	O 	0.5934	0.5	0.8287	-1.746
Mof_C 	C 	0.6861	0.5	0.7334	0.176
Mof_H 	H 	0.642	0.5	0.7214	-0.063
Mof_O 	O 	0.5744	0.5	0.8029	0.796
Mof_O 	O 	0.9066	-1.41132e-33	0.1713	-1.655
Mof_C 	C 	0.8139	0	0.2666	0.339
Mof_H 	H 	0.858	0	0.2786	-0.076
Mof_O 	O 	0.9256	-1.41132e-33	0.1971	0.944
Mof_O 	O 	0.9066	0.5	0.6713	-2.478
Mof_C 	C 	0.8139	0.5	0.7666	0.211
Mof_H 	H 	0.858	0.5	0.7786	0.073
Mof_O 	O 	0.9256	0.5	0.6971	1.853
Mof_O 	O 	0.4066	0	0.6713	-0.093
Mof_C 	C 	0.3139	-5.6453e-33	0.7666	-0.371
Mof_H 	H 	0.358	0	0.7786	0.15
Mof_O 	O 	0.4256	-5.6453e-33	0.6971	-0.635
Mof_O 	O 	0.4066	0.5	0.1713	-1.004
Mof_C 	C 	0.3139	0.5	0.2666	0.032
Mof_H 	H 	0.358	0.5	0.2786	0.008
Mof_O 	O 	0.4256	0.5	0.1971	0.282
Mof_O 	O 	0.0934	0.1713	-0	-0.077
Mof_C 	C 	0.1861	0.2666	-0	-0.143
Mof_H 	H 	0.142	0.2786	-0	0.007
Mof_O 	O 	0.0744	0.1971	-0	-0.663
Mof_O 	O 	0.0934	0.6713	0.5	-0.883
Mof_C 	C 	0.1861	0.7666	0.5	-0.28
Mof_H 	H 	0.142	0.7786	0.5	0.158
Mof_O 	O 	0.0744	0.6971	0.5	0.231
Mof_O 	O 	0.5934	0.1713	0.5	-0.827
Mof_C 	C 	0.6861	0.2666	0.5	-0.301
Mof_H 	H 	0.642	0.2786	0.5	0.128
Mof_O 	O 	0.5744	0.1971	0.5	0.142
Mof_O 	O 	0.5934	0.6713	-0	0.07
Mof_C 	C 	0.6861	0.7666	-0	-0.691
Mof_H 	H 	0.642	0.7786	-0	0.265
Mof_O 	O 	0.5744	0.6971	-0	-0.764
Mof_O 	O 	0.9066	0.8287	-0	-2.543
Mof_C 	C 	0.8139	0.7334	-0	0.799
Mof_H 	H 	0.858	0.7214	-0	-0.261
Mof_O 	O 	0.9256	0.8029	-0	1.573
Mof_O 	O 	0.9066	0.3287	0.5	-2.6
Mof_C 	C 	0.8139	0.2334	0.5	0.523
Mof_H 	H 	0.858	0.2214	0.5	-0.098
Mof_O 	O 	0.9256	0.3029	0.5	1.916
Mof_O 	O 	0.4066	0.8287	0.5	-1.928
Mof_C 	C 	0.3139	0.7334	0.5	0.51
Mof_H 	H 	0.358	0.7214	0.5	-0.184
Mof_O 	O 	0.4256	0.8029	0.5	0.94
Mof_O 	O 	0.4066	0.3287	-0	-0.195
Mof_C 	C 	0.3139	0.2334	-0	-0.068
Mof_H 	H 	0.358	0.2214	-0	-0.018
Mof_O 	O 	0.4256	0.3029	-0	-0.591
Mof_O 	O 	0.0934	0.8287	-0	-0.986
Mof_C 	C 	0.1861	0.7334	-0	0.325
Mof_H 	H 	0.142	0.7214	-0	-0.181
Mof_O 	O 	0.0744	0.8029	-0	-0.014
Mof_O 	O 	0.0934	0.3287	0.5	-0.996
Mof_C 	C 	0.1861	0.2334	0.5	0.031
Mof_H 	H 	0.142	0.2214	0.5	-0.013
Mof_O 	O 	0.0744	0.3029	0.5	0.285
Mof_O 	O 	0.5934	0.8287	0.5	-1.746
Mof_C 	C 	0.6861	0.7334	0.5	0.176
Mof_H 	H 	0.642	0.7214	0.5	-0.063
Mof_O 	O 	0.5744	0.8029	0.5	0.796
Mof_O 	O 	0.5934	0.3287	-0	-0.027
Mof_C 	C 	0.6861	0.2334	-0	-0.394
Mof_H 	H 	0.642	0.2214	-0	0.099
Mof_O 	O 	0.5744	0.3029	-0	-0.724
Mof_O 	O 	0.9066	0.1713	-0	-1.655
Mof_C 	C 	0.8139	0.2666	-0	0.339
Mof_H 	H 	0.858	0.2786	-0	-0.076
Mof_O 	O 	0.9256	0.1971	-0	0.944
Mof_O 	O 	0.9066	0.6713	0.5	-2.478
Mof_C 	C 	0.8139	0.7666	0.5	0.211
Mof_H 	H 	0.858	0.7786	0.5	0.073
Mof_O 	O 	0.9256	0.6971	0.5	1.853
Mof_O 	O 	0.4066	0.1713	0.5	-1.004
Mof_C 	C 	0.3139	0.2666	0.5	0.032
Mof_H 	H 	0.358	0.2786	0.5	0.008
Mof_O 	O 	0.4256	0.1971	0.5	0.282
Mof_O 	O 	0.4066	0.6713	-0	-0.093
Mof_C 	C 	0.3139	0.7666	-0	-0.371
Mof_H 	H 	0.358	0.7786	-0	0.15
Mof_O 	O 	0.4256	0.6971	-0	-0.635
Mof_O 	O 	0.1713	0	0.9066	-1.655
Mof_C 	C 	0.2666	-5.6453e-33	0.8139	0.339
Mof_H 	H 	0.2786	-1.12906e-32	0.858	-0.076
Mof_O 	O 	0.1971	0	0.9256	0.944
Mof_O 	O 	0.1713	0.5	0.4066	-1.004
Mof_C 	C 	0.2666	0.5	0.3139	0.032
Mof_H 	H 	0.2786	0.5	0.358	0.008
Mof_O 	O 	0.1971	0.5	0.4256	0.282
Mof_O 	O 	0.6713	-5.6453e-33	0.4066	-0.093
Mof_C 	C 	0.7666	-2.82265e-33	0.3139	-0.371
Mof_H 	H 	0.7786	0	0.358	0.15
Mof_O 	O 	0.6971	-5.6453e-33	0.4256	-0.635
Mof_O 	O 	0.6713	0.5	0.9066	-2.478
Mof_C 	C 	0.7666	0.5	0.8139	0.211
Mof_H 	H 	0.7786	0.5	0.858	0.073
Mof_O 	O 	0.6971	0.5	0.9256	1.853
Mof_O 	O 	0.8287	-7.05662e-34	0.0934	-0.986
Mof_C 	C 	0.7334	0	0.1861	0.325
Mof_H 	H 	0.7214	0	0.142	-0.181
Mof_O 	O 	0.8029	0	0.0744	-0.014
Mof_O 	O 	0.8287	0.5	0.5934	-1.746
Mof_C 	C 	0.7334	0.5	0.6861	0.176
Mof_H 	H 	0.7214	0.5	0.642	-0.063
Mof_O 	O 	0.8029	0.5	0.5744	0.796
Mof_O 	O 	0.3287	0	0.5934	-0.027
Mof_C 	C 	0.2334	0	0.6861	-0.394
Mof_H 	H 	0.2214	-5.6453e-33	0.642	0.099
Mof_O 	O 	0.3029	-5.6453e-33	0.5744	-0.724
Mof_O 	O 	0.3287	0.5	0.0934	-0.996
Mof_C 	C 	0.2334	0.5	0.1861	0.031
Mof_H 	H 	0.2214	0.5	0.142	-0.013
Mof_O 	O 	0.3029	0.5	0.0744	0.285
Mof_O 	O 	0.8287	0	0.9066	-2.543
Mof_C 	C 	0.7334	-5.6453e-33	0.8139	0.799
Mof_H 	H 	0.7214	-1.12906e-32	0.858	-0.261
Mof_O 	O 	0.8029	0	0.9256	1.573
Mof_O 	O 	0.8287	0.5	0.4066	-1.928
Mof_C 	C 	0.7334	0.5	0.3139	0.51
Mof_H 	H 	0.7214	0.5	0.358	-0.184
Mof_O 	O 	0.8029	0.5	0.4256	0.94
Mof_O 	O 	0.3287	-5.6453e-33	0.4066	-0.195
Mof_C 	C 	0.2334	-2.82265e-33	0.3139	-0.068
Mof_H 	H 	0.2214	0	0.358	-0.018
Mof_O 	O 	0.3029	-5.6453e-33	0.4256	-0.591
Mof_O 	O 	0.3287	0.5	0.9066	-2.6
Mof_C 	C 	0.2334	0.5	0.8139	0.523
Mof_H 	H 	0.2214	0.5	0.858	-0.098
Mof_O 	O 	0.3029	0.5	0.9256	1.916
Mof_O 	O 	0.1713	-7.05662e-34	0.0934	-0.077
Mof_C 	C 	0.2666	0	0.1861	-0.143
Mof_H 	H 	0.2786	0	0.142	0.007
Mof_O 	O 	0.1971	0	0.0744	-0.663
Mof_O 	O 	0.1713	0.5	0.5934	-0.827
Mof_C 	C 	0.2666	0.5	0.6861	-0.301
Mof_H 	H 	0.2786	0.5	0.642	0.128
Mof_O 	O 	0.1971	0.5	0.5744	0.142
Mof_O 	O 	0.6713	0	0.5934	0.07
Mof_C 	C 	0.7666	0	0.6861	-0.691
Mof_H 	H 	0.7786	-5.6453e-33	0.642	0.265
Mof_O 	O 	0.6971	-5.6453e-33	0.5744	-0.764
Mof_O 	O 	0.6713	0.5	0.0934	-0.883
Mof_C 	C 	0.7666	0.5	0.1861	-0.28
Mof_H 	H 	0.7786	0.5	0.142	0.158
Mof_O 	O 	0.6971	0.5	0.0744	0.231
Mof_O 	O 	-2.53817e-33	0.0934	0.8287	-0.986
Mof_C 	C 	-2.89549e-33	0.1861	0.7334	0.325
Mof_H 	H 	-2.94048e-33	0.142	0.7214	-0.181
Mof_O 	O 	3.01039e-33	0.0744	0.8029	-0.014
Mof_O 	O 	-7.23552e-33	0.5934	0.3287	-0.027
Mof_C 	C 	3.69776e-33	0.6861	0.2334	-0.394
Mof_H 	H 	-1.99253e-33	0.642	0.2214	0.099
Mof_O 	O 	1.13569e-33	0.5744	0.3029	-0.724
Mof_O 	O 	0.5	0.0934	0.3287	-0.996
Mof_C 	C 	0.5	0.1861	0.2334	0.031
Mof_H 	H 	0.5	0.142	0.2214	-0.013
Mof_O 	O 	0.5	0.0744	0.3029	0.285
Mof_O 	O 	0.5	0.5934	0.8287	-1.746
Mof_C 	C 	0.5	0.6861	0.7334	0.176
Mof_H 	H 	0.5	0.642	0.7214	-0.063
Mof_O 	O 	0.5	0.5744	0.8029	0.796
Mof_O 	O 	-7.69052e-34	0.9066	0.1713	-1.655
Mof_C 	C 	-4.64571e-33	0.8139	0.2666	0.339
Mof_H 	H 	-1.77806e-33	0.858	0.2786	-0.076
Mof_O 	O 	-2.08364e-33	0.9256	0.1971	0.944
Mof_O 	O 	-3.12832e-33	0.4066	0.6713	-0.093
Mof_C 	C 	-2.77101e-33	0.3139	0.7666	-0.371
Mof_H 	H 	-8.37131e-33	0.358	0.7786	0.15
Mof_O 	O 	-3.03159e-33	0.4256	0.6971	-0.635
Mof_O 	O 	0.5	0.9066	0.6713	-2.478
Mof_C 	C 	0.5	0.8139	0.7666	0.211
Mof_H 	H 	0.5	0.858	0.7786	0.073
Mof_O 	O 	0.5	0.9256	0.6971	1.853
Mof_O 	O 	0.5	0.4066	0.1713	-1.004
Mof_C 	C 	0.5	0.3139	0.2666	0.032
Mof_H 	H 	0.5	0.358	0.2786	0.008
Mof_O 	O 	0.5	0.4256	0.1971	0.282
Mof_O 	O 	-7.69052e-34	0.0934	0.1713	-0.077
Mof_C 	C 	-4.64571e-33	0.1861	0.2666	-0.143
Mof_H 	H 	3.86723e-33	0.142	0.2786	0.007
Mof_O 	O 	7.39007e-34	0.0744	0.1971	-0.663
Mof_O 	O 	2.51697e-33	0.5934	0.6713	0.07
Mof_C 	C 	8.51958e-33	0.6861	0.7666	-0.691
Mof_H 	H 	-8.37131e-33	0.642	0.7786	0.265
Mof_O 	O 	2.61371e-33	0.5744	0.6971	-0.764
Mof_O 	O 	0.5	0.0934	0.6713	-0.883
Mof_C 	C 	0.5	0.1861	0.7666	-0.28
Mof_H 	H 	0.5	0.142	0.7786	0.158
Mof_O 	O 	0.5	0.0744	0.6971	0.231
Mof_O 	O 	0.5	0.5934	0.1713	-0.827
Mof_C 	C 	0.5	0.6861	0.2666	-0.301
Mof_H 	H 	0.5	0.642	0.2786	0.128
Mof_O 	O 	0.5	0.5744	0.1971	0.142
Mof_O 	O 	3.10713e-33	0.9066	0.8287	-2.543
Mof_C 	C 	-1.41861e-32	0.8139	0.7334	0.799
Mof_H 	H 	-8.58577e-33	0.858	0.7214	-0.261
Mof_O 	O 	8.65569e-33	0.9256	0.8029	1.573
Mof_O 	O 	-4.41287e-33	0.4066	0.3287	-0.195
Mof_C 	C 	8.7511e-34	0.3139	0.2334	-0.068
Mof_H 	H 	-4.81518e-33	0.358	0.2214	-0.018
Mof_O 	O 	1.13569e-33	0.4256	0.3029	-0.591
Mof_O 	O 	0.5	0.9066	0.3287	-2.6
Mof_C 	C 	0.5	0.8139	0.2334	0.523
Mof_H 	H 	0.5	0.858	0.2214	-0.098
Mof_O 	O 	0.5	0.9256	0.3029	1.916
Mof_O 	O 	0.5	0.4066	0.8287	-1.928
Mof_C 	C 	0.5	0.3139	0.7334	0.51
Mof_H 	H 	0.5	0.358	0.7214	-0.184
Mof_O 	O 	0.5	0.4256	0.8029	0.94
Mof_C 	C 	0.1517	0.1517	-0	-0.162
Mof_C 	C 	0.2026	0.2026	-0	0.05
Mof_C 	C 	0.1517	0.6517	0.5	0.57
Mof_C 	C 	0.2026	0.7026	0.5	0.069
Mof_C 	C 	0.6517	0.1517	0.5	0.57
Mof_C 	C 	0.7026	0.2026	0.5	0.069
Mof_C 	C 	0.6517	0.6517	-0	-0.335
Mof_C 	C 	0.7026	0.7026	-0	0.547
Mof_C 	C 	0.8483	0.8483	-0	2.118
Mof_C 	C 	0.7974	0.7974	-0	-1.096
Mof_C 	C 	0.8483	0.3483	0.5	1.909
Mof_C 	C 	0.7974	0.2974	0.5	-0.815
Mof_C 	C 	0.3483	0.8483	0.5	1.909
Mof_C 	C 	0.2974	0.7974	0.5	-0.815
Mof_C 	C 	0.3483	0.3483	-0	-0.017
Mof_C 	C 	0.2974	0.2974	-0	-0.021
Mof_C 	C 	0.8483	0.1517	-0	0.987
Mof_C 	C 	0.7974	0.2026	-0	-0.528
Mof_C 	C 	0.8483	0.6517	0.5	1.734
Mof_C 	C 	0.7974	0.7026	0.5	-0.518
Mof_C 	C 	0.3483	0.1517	0.5	0.74
Mof_C 	C 	0.2974	0.2026	0.5	-0.226
Mof_C 	C 	0.3483	0.6517	-0	-0.179
Mof_C 	C 	0.2974	0.7026	-0	0.266
Mof_C 	C 	0.1517	0.8483	-0	0.987
Mof_C 	C 	0.2026	0.7974	-0	-0.528
Mof_C 	C 	0.1517	0.3483	0.5	0.74
Mof_C 	C 	0.2026	0.2974	0.5	-0.226
Mof_C 	C 	0.6517	0.8483	0.5	1.734
Mof_C 	C 	0.7026	0.7974	0.5	-0.518
Mof_C 	C 	0.6517	0.3483	-0	-0.179
Mof_C 	C 	0.7026	0.2974	-0	0.266
Mof_C 	C 	5.68784e-34	0.1517	0.1517	-0.162
Mof_C 	C 	7.59628e-34	0.2026	0.2026	0.05
Mof_C 	C 	-8.84711e-33	0.6517	0.6517	-0.335
Mof_C 	C 	-1.43016e-32	0.7026	0.7026	0.547
Mof_C 	C 	0.5	0.1517	0.6517	0.57
Mof_C 	C 	0.5	0.2026	0.7026	0.069
Mof_C 	C 	0.5	0.6517	0.1517	0.57
Mof_C 	C 	0.5	0.7026	0.2026	0.069
Mof_C 	C 	3.18062e-33	0.8483	0.8483	2.118
Mof_C 	C 	-8.30082e-33	0.7974	0.7974	-1.096
Mof_C 	C 	1.30592e-33	0.3483	0.3483	-0.017
Mof_C 	C 	1.11507e-33	0.2974	0.2974	-0.021
Mof_C 	C 	0.5	0.8483	0.3483	1.909
Mof_C 	C 	0.5	0.7974	0.2974	-0.815
Mof_C 	C 	0.5	0.3483	0.8483	1.909
Mof_C 	C 	0.5	0.2974	0.7974	-0.815
Mof_C 	C 	1.98011e-33	0.8483	0.1517	0.987
Mof_C 	C 	-6.29699e-33	0.7974	0.2026	-0.528
Mof_C 	C 	-1.44924e-32	0.3483	0.6517	-0.179
Mof_C 	C 	-1.43016e-32	0.2974	0.7026	0.266
Mof_C 	C 	0.5	0.8483	0.6517	1.734
Mof_C 	C 	0.5	0.7974	0.7026	-0.518
Mof_C 	C 	0.5	0.3483	0.1517	0.74
Mof_C 	C 	0.5	0.2974	0.2026	-0.226
Mof_C 	C 	3.18062e-33	0.1517	0.8483	0.987
Mof_C 	C 	-8.30082e-33	0.2026	0.7974	-0.528
Mof_C 	C 	-1.28073e-32	0.6517	0.3483	-0.179
Mof_C 	C 	-1.58208e-32	0.7026	0.2974	0.266
Mof_C 	C 	0.5	0.1517	0.3483	0.74
Mof_C 	C 	0.5	0.2026	0.2974	-0.226
Mof_C 	C 	0.5	0.6517	0.8483	1.734
Mof_C 	C 	0.5	0.7026	0.7974	-0.518
Mof_C 	C 	0.1517	0	0.1517	-0.162
Mof_C 	C 	0.2026	-1.41132e-33	0.2026	0.05
Mof_C 	C 	0.1517	0.5	0.6517	0.57
Mof_C 	C 	0.2026	0.5	0.7026	0.069
Mof_C 	C 	0.6517	-5.6453e-33	0.6517	-0.335
Mof_C 	C 	0.7026	0	0.7026	0.547
Mof_C 	C 	0.6517	0.5	0.1517	0.57
Mof_C 	C 	0.7026	0.5	0.2026	0.069
Mof_C 	C 	0.8483	0	0.8483	2.118
Mof_C 	C 	0.7974	-5.6453e-33	0.7974	-1.096
Mof_C 	C 	0.8483	0.5	0.3483	1.909
Mof_C 	C 	0.7974	0.5	0.2974	-0.815
Mof_C 	C 	0.3483	0	0.3483	-0.017
Mof_C 	C 	0.2974	0	0.2974	-0.021
Mof_C 	C 	0.3483	0.5	0.8483	1.909
Mof_C 	C 	0.2974	0.5	0.7974	-0.815
Mof_C 	C 	0.1517	0	0.8483	0.987
Mof_C 	C 	0.2026	-5.6453e-33	0.7974	-0.528
Mof_C 	C 	0.1517	0.5	0.3483	0.74
Mof_C 	C 	0.2026	0.5	0.2974	-0.226
Mof_C 	C 	0.6517	0	0.3483	-0.179
Mof_C 	C 	0.7026	0	0.2974	0.266
Mof_C 	C 	0.6517	0.5	0.8483	1.734
Mof_C 	C 	0.7026	0.5	0.7974	-0.518
Mof_C 	C 	0.8483	0	0.1517	0.987
Mof_C 	C 	0.7974	-1.41132e-33	0.2026	-0.528
Mof_C 	C 	0.8483	0.5	0.6517	1.734
Mof_C 	C 	0.7974	0.5	0.7026	-0.518
Mof_C 	C 	0.3483	-5.6453e-33	0.6517	-0.179
Mof_C 	C 	0.2974	0	0.7026	0.266
Mof_C 	C 	0.3483	0.5	0.1517	0.74
Mof_C 	C 	0.2974	0.5	0.2026	-0.226
Mof_O 	O 	0.0507	0.0507	0.0507	9.592
Mof_O 	O 	0.0675	0.0675	0.0675	-12.602
Mof_H 	H 	0.0948	0.0948	0.0948	3.616
Mof_O 	O 	0.0507	0.5507	0.5507	0.936
Mof_O 	O 	0.0675	0.5675	0.5675	-2.16
Mof_H 	H 	0.0948	0.5948	0.5948	0.592
Mof_O 	O 	0.5507	0.0507	0.5507	0.936
Mof_O 	O 	0.5675	0.0675	0.5675	-2.16
Mof_H 	H 	0.5948	0.0948	0.5948	0.592
Mof_O 	O 	0.5507	0.5507	0.0507	0.936
Mof_O 	O 	0.5675	0.5675	0.0675	-2.16
Mof_H 	H 	0.5948	0.5948	0.0948	0.592
Mof_O 	O 	0.9493	0.9493	0.0507	-7.367
Mof_O 	O 	0.9325	0.9325	0.0675	8.091
Mof_H 	H 	0.9052	0.9052	0.0948	-2.151
Mof_O 	O 	0.9493	0.4493	0.5507	-7.71
Mof_O 	O 	0.9325	0.4325	0.5675	8.398
Mof_H 	H 	0.9052	0.4052	0.5948	-2.354
Mof_O 	O 	0.4493	0.9493	0.5507	-7.71
Mof_O 	O 	0.4325	0.9325	0.5675	8.398
Mof_H 	H 	0.4052	0.9052	0.5948	-2.354
Mof_O 	O 	0.4493	0.4493	0.0507	1.156
Mof_O 	O 	0.4325	0.4325	0.0675	-2.406
Mof_H 	H 	0.4052	0.4052	0.0948	0.657
Mof_O 	O 	0.9493	0.0507	0.9493	-7.367
Mof_O 	O 	0.9325	0.0675	0.9325	8.091
Mof_H 	H 	0.9052	0.0948	0.9052	-2.151
Mof_O 	O 	0.9493	0.5507	0.4493	-7.71
Mof_O 	O 	0.9325	0.5675	0.4325	8.398
Mof_H 	H 	0.9052	0.5948	0.4052	-2.354
Mof_O 	O 	0.4493	0.0507	0.4493	1.156
Mof_O 	O 	0.4325	0.0675	0.4325	-2.406
Mof_H 	H 	0.4052	0.0948	0.4052	0.657
Mof_O 	O 	0.4493	0.5507	0.9493	-7.71
Mof_O 	O 	0.4325	0.5675	0.9325	8.398
Mof_H 	H 	0.4052	0.5948	0.9052	-2.354
Mof_O 	O 	0.0507	0.9493	0.9493	-7.367
Mof_O 	O 	0.0675	0.9325	0.9325	8.091
Mof_H 	H 	0.0948	0.9052	0.9052	-2.151
Mof_O 	O 	0.0507	0.4493	0.4493	1.156
Mof_O 	O 	0.0675	0.4325	0.4325	-2.406
Mof_H 	H 	0.0948	0.4052	0.4052	0.657
Mof_O 	O 	0.5507	0.9493	0.4493	-7.71
Mof_O 	O 	0.5675	0.9325	0.4325	8.398
Mof_H 	H 	0.5948	0.9052	0.4052	-2.354
Mof_O 	O 	0.5507	0.4493	0.9493	-7.71
Mof_O 	O 	0.5675	0.4325	0.9325	8.398
Mof_H 	H 	0.5948	0.4052	0.9052	-2.354
Mof_O 	O 	0.0507	0.0507	0.9493	1.094
Mof_O 	O 	0.0675	0.0675	0.9325	-2.232
Mof_H 	H 	0.0948	0.0948	0.9052	0.727
Mof_O 	O 	0.0507	0.5507	0.4493	1.046
Mof_O 	O 	0.0675	0.5675	0.4325	-2.283
Mof_H 	H 	0.0948	0.5948	0.4052	0.625
Mof_O 	O 	0.5507	0.0507	0.4493	1.046
Mof_O 	O 	0.5675	0.0675	0.4325	-2.283
Mof_H 	H 	0.5948	0.0948	0.4052	0.625
Mof_O 	O 	0.5507	0.5507	0.9493	-7.818
Mof_O 	O 	0.5675	0.5675	0.9325	8.518
Mof_H 	H 	0.5948	0.5948	0.9052	-2.387
Mof_O 	O 	0.9493	0.9493	0.9493	-15.793
Mof_O 	O 	0.9325	0.9325	0.9325	18.366
Mof_H 	H 	0.9052	0.9052	0.9052	-5.017
Mof_O 	O 	0.9493	0.4493	0.4493	-7.601
Mof_O 	O 	0.9325	0.4325	0.4325	8.277
Mof_H 	H 	0.9052	0.4052	0.4052	-2.322
Mof_O 	O 	0.4493	0.9493	0.4493	-7.601
Mof_O 	O 	0.4325	0.9325	0.4325	8.277
Mof_H 	H 	0.4052	0.9052	0.4052	-2.322
Mof_O 	O 	0.4493	0.4493	0.9493	-7.601
Mof_O 	O 	0.4325	0.4325	0.9325	8.277
Mof_H 	H 	0.4052	0.4052	0.9052	-2.322
Mof_O 	O 	0.0507	0.9493	0.0507	1.094
Mof_O 	O 	0.0675	0.9325	0.0675	-2.232
Mof_H 	H 	0.0948	0.9052	0.0948	0.727
Mof_O 	O 	0.0507	0.4493	0.5507	1.046
Mof_O 	O 	0.0675	0.4325	0.5675	-2.283
Mof_H 	H 	0.0948	0.4052	0.5948	0.625
Mof_O 	O 	0.5507	0.9493	0.5507	-7.818
Mof_O 	O 	0.5675	0.9325	0.5675	8.518
Mof_H 	H 	0.5948	0.9052	0.5948	-2.387
Mof_O 	O 	0.5507	0.4493	0.0507	1.046
Mof_O 	O 	0.5675	0.4325	0.0675	-2.283
Mof_H 	H 	0.5948	0.4052	0.0948	0.625
Mof_O 	O 	0.9493	0.0507	0.0507	1.094
Mof_O 	O 	0.9325	0.0675	0.0675	-2.232
Mof_H 	H 	0.9052	0.0948	0.0948	0.727
Mof_O 	O 	0.9493	0.5507	0.5507	-7.818
Mof_O 	O 	0.9325	0.5675	0.5675	8.518
Mof_H 	H 	0.9052	0.5948	0.5948	-2.387
Mof_O 	O 	0.4493	0.0507	0.5507	1.046
Mof_O 	O 	0.4325	0.0675	0.5675	-2.283
Mof_H 	H 	0.4052	0.0948	0.5948	0.625
Mof_O 	O 	0.4493	0.5507	0.0507	1.046
Mof_O 	O 	0.4325	0.5675	0.0675	-2.283
Mof_H 	H 	0.4052	0.5948	0.0948	0.625
_end
