data_functionalizedCrystal
_audit_creation_method	'EQeq! by Chris Wilmer'
_symmetry_space_group_name_H-M	'P1'
_symmetry_Int_Tables_number	1
_symmetry_cell_setting	triclinic
loop_
_symmetry_equiv_pos_as_xyz
  x,y,z
_cell_length_a	19.0903
_cell_length_b	19.0903
_cell_length_c	27.4295
_cell_angle_alpha	110.364
_cell_angle_beta	110.364
_cell_angle_gamma	90.0001
loop_
_atom_site_label
_atom_site_type_symbol
_atom_site_fract_x
_atom_site_fract_y
_atom_site_fract_z
_atom_site_charge
Mof_Zn	Zn	0.50576	0.43093	0.51151	1.218
Mof_Zn	Zn	0.43093	0.50576	0.01151	1.217
Mof_Zn	Zn	0.50576	0.08058	0.51152	1.219
Mof_Zn	Zn	0.91942	0.49424	0.98848	1.217
Mof_Zn	Zn	0.08058	0.50576	0.01152	1.217
Mof_Zn	Zn	0.56907	0.49424	0.98849	1.218
Mof_Zn	Zn	0.49424	0.56907	0.48849	1.219
Mof_Zn	Zn	0.49424	0.91942	0.48848	1.219
Mof_H 	H 	0.7664	0.5209	0.9168	0.056
Mof_H 	H 	0.7422	0.8209	0.1894	0.256
Mof_H 	H 	0.5853	0.3122	0.3812	-0.019
Mof_H 	H 	0.2578	0.6315	0.8106	0.256
Mof_H 	H 	0.6504	0.5209	0.9168	0.056
Mof_H 	H 	0.1614	0.3463	0.2022	0.194
Mof_H 	H 	0.3832	0.7955	0.475	0.065
Mof_H 	H 	0.3205	0.4082	0.025	0.064
Mof_H 	H 	0.5209	0.7664	0.4168	0.056
Mof_H 	H 	0.7422	0.3685	0.1894	0.256
Mof_H 	H 	0.6795	0.3832	0.975	0.064
Mof_H 	H 	0.4082	0.2045	0.525	0.065
Mof_H 	H 	0.7401	0.1451	0.633	-0.017
Mof_H 	H 	0.2599	0.5121	0.367	-0.018
Mof_H 	H 	0.1791	0.2578	0.3106	0.256
Mof_H 	H 	0.5408	0.8559	0.2022	0.194
Mof_H 	H 	0.4147	0.931	0.6188	-0.019
Mof_H 	H 	0.6168	0.3205	0.525	0.065
Mof_H 	H 	0.6504	0.3959	0.9168	0.056
Mof_H 	H 	0.8549	0.2599	0.867	-0.018
Mof_H 	H 	0.2045	0.6168	0.025	0.063
Mof_H 	H 	0.7238	0.4889	0.0616	0.065
Mof_H 	H 	0.4879	0.3929	0.133	-0.018
Mof_H 	H 	0.4889	0.8378	0.5616	0.065
Mof_H 	H 	0.4879	0.7401	0.133	-0.018
Mof_H 	H 	0.3685	0.7422	0.6894	0.256
Mof_H 	H 	0.8559	0.5408	0.7022	0.194
Mof_H 	H 	0.8209	0.9472	0.6894	0.255
Mof_H 	H 	0.3463	0.5408	0.7022	0.194
Mof_H 	H 	0.6795	0.5918	0.975	0.064
Mof_H 	H 	0.4082	0.3205	0.525	0.065
Mof_H 	H 	0.8378	0.4889	0.0616	0.065
Mof_H 	H 	0.1451	0.3929	0.133	-0.018
Mof_H 	H 	0.8386	0.1441	0.7978	0.192
Mof_H 	H 	0.931	0.4147	0.1188	-0.019
Mof_H 	H 	0.8549	0.6071	0.867	-0.018
Mof_H 	H 	0.5918	0.7955	0.475	0.065
Mof_H 	H 	0.3122	0.2959	0.8812	-0.019
Mof_H 	H 	0.0528	0.6315	0.8106	0.256
Mof_H 	H 	0.7041	0.931	0.6188	-0.018
Mof_H 	H 	0.6041	0.2336	0.5832	0.056
Mof_H 	H 	0.1441	0.8386	0.2978	0.192
Mof_H 	H 	0.2762	0.5111	0.9384	0.065
Mof_H 	H 	0.5209	0.6504	0.4168	0.056
Mof_H 	H 	0.4791	0.3496	0.5832	0.056
Mof_H 	H 	0.6071	0.8549	0.367	-0.018
Mof_H 	H 	0.931	0.7041	0.1188	-0.019
Mof_H 	H 	0.3832	0.6795	0.475	0.065
Mof_H 	H 	0.7955	0.5918	0.975	0.064
Mof_H 	H 	0.4592	0.1441	0.7978	0.194
Mof_H 	H 	0.1622	0.4273	0.9384	0.065
Mof_H 	H 	0.8386	0.6537	0.7978	0.194
Mof_H 	H 	0.4592	0.6537	0.7978	0.194
Mof_H 	H 	0.8209	0.7422	0.6894	0.256
Mof_H 	H 	0.8378	0.5727	0.0616	0.065
Mof_H 	H 	0.9472	0.8209	0.1894	0.254
Mof_H 	H 	0.6537	0.8386	0.2978	0.194
Mof_H 	H 	0.8559	0.1614	0.7022	0.192
Mof_H 	H 	0.1441	0.4592	0.2978	0.194
Mof_H 	H 	0.5111	0.1622	0.4384	0.065
Mof_H 	H 	0.4273	0.1622	0.4384	0.065
Mof_H 	H 	0.2599	0.8549	0.367	-0.017
Mof_H 	H 	0.069	0.5853	0.8812	-0.019
Mof_H 	H 	0.7041	0.6878	0.6188	-0.019
Mof_H 	H 	0.2959	0.3122	0.3812	-0.019
Mof_H 	H 	0.3496	0.6041	0.0832	0.056
Mof_H 	H 	0.1791	0.0528	0.3106	0.255
Mof_H 	H 	0.4889	0.7238	0.5616	0.065
Mof_H 	H 	0.0528	0.1791	0.8106	0.254
Mof_H 	H 	0.2959	0.069	0.3812	-0.018
Mof_H 	H 	0.5918	0.6795	0.475	0.065
Mof_H 	H 	0.6878	0.7041	0.1188	-0.019
Mof_H 	H 	0.3685	0.9472	0.6894	0.256
Mof_H 	H 	0.1614	0.8559	0.2022	0.192
Mof_H 	H 	0.5408	0.3463	0.2022	0.194
Mof_H 	H 	0.6315	0.2578	0.3106	0.256
Mof_H 	H 	0.2578	0.1791	0.8106	0.256
Mof_H 	H 	0.3929	0.4879	0.633	-0.018
Mof_H 	H 	0.1451	0.7401	0.133	-0.018
Mof_H 	H 	0.069	0.2959	0.8812	-0.019
Mof_H 	H 	0.6041	0.3496	0.5832	0.056
Mof_H 	H 	0.7955	0.3832	0.975	0.063
Mof_H 	H 	0.9472	0.3685	0.1894	0.256
Mof_H 	H 	0.5121	0.6071	0.867	-0.018
Mof_H 	H 	0.5111	0.2762	0.4384	0.065
Mof_H 	H 	0.2045	0.4082	0.025	0.064
Mof_H 	H 	0.6071	0.5121	0.367	-0.018
Mof_H 	H 	0.7238	0.5727	0.0616	0.065
Mof_H 	H 	0.4273	0.2762	0.4384	0.065
Mof_H 	H 	0.3122	0.5853	0.8812	-0.019
Mof_H 	H 	0.5853	0.069	0.3812	-0.019
Mof_H 	H 	0.2336	0.4791	0.0832	0.056
Mof_H 	H 	0.1622	0.5111	0.9384	0.065
Mof_H 	H 	0.6315	0.0528	0.3106	0.256
Mof_H 	H 	0.4791	0.2336	0.5832	0.056
Mof_H 	H 	0.3959	0.7664	0.4168	0.056
Mof_H 	H 	0.7664	0.3959	0.9168	0.055
Mof_H 	H 	0.6537	0.4592	0.2978	0.194
Mof_H 	H 	0.6878	0.4147	0.1188	-0.019
Mof_H 	H 	0.5727	0.8378	0.5616	0.065
Mof_H 	H 	0.2762	0.4273	0.9384	0.065
Mof_H 	H 	0.7401	0.4879	0.633	-0.018
Mof_H 	H 	0.6168	0.2045	0.525	0.065
Mof_H 	H 	0.2336	0.6041	0.0832	0.055
Mof_H 	H 	0.3959	0.6504	0.4168	0.056
Mof_H 	H 	0.3496	0.4791	0.0832	0.056
Mof_H 	H 	0.3929	0.1451	0.633	-0.018
Mof_H 	H 	0.5727	0.7238	0.5616	0.065
Mof_H 	H 	0.5121	0.2599	0.867	-0.018
Mof_H 	H 	0.3463	0.1614	0.7022	0.194
Mof_H 	H 	0.4147	0.6878	0.6188	-0.019
Mof_H 	H 	0.3205	0.6168	0.025	0.064
Mof_C 	C 	0.05592	0.35512	0.20468	0.44
Mof_C 	C 	0.65837	0.23667	0.22214	0.93
Mof_C 	C 	0.97897	0.7345	0.1366	0.278
Mof_C 	C 	0.2655	0.34237	0.3634	0.274
Mof_C 	C 	0.75602	0.54026	0.64498	0.256
Mof_C 	C 	0.58362	0.23124	0.54404	-0.06
Mof_C 	C 	0.23667	0.06377	0.72214	0.931
Mof_C 	C 	0.06377	0.98547	0.22214	0.921
Mof_C 	C 	0.19554	0.01154	0.32128	-0.347
Mof_C 	C 	0.34163	0.76333	0.77786	0.93
Mof_C 	C 	0.23124	0.58362	0.04404	-0.06
Mof_C 	C 	0.58838	0.41556	0.37966	-0.259
Mof_C 	C 	0.01453	0.93623	0.27786	0.921
Mof_C 	C 	0.01154	0.62574	0.82128	-0.351
Mof_C 	C 	0.98547	0.06377	0.72214	0.921
Mof_C 	C 	0.64488	0.35124	0.29532	0.443
Mof_C 	C 	0.0359	0.41162	0.12034	-0.262
Mof_C 	C 	0.23124	0.46042	0.04404	-0.06
Mof_C 	C 	0.35124	0.15044	0.79532	0.444
Mof_C 	C 	0.5979	0.34237	0.3634	0.274
Mof_C 	C 	0.82441	0.11425	0.68592	-0.339
Mof_C 	C 	0.54026	0.38896	0.14498	0.257
Mof_C 	C 	0.58444	0.70872	0.12034	-0.259
Mof_C 	C 	0.36833	0.4501	0.42446	0.471
Mof_C 	C 	0.3128	0.46042	0.04404	-0.06
Mof_C 	C 	0.70872	0.58444	0.62034	-0.258
Mof_C 	C 	0.46042	0.23124	0.54404	-0.06
Mof_C 	C 	0.02564	0.63167	0.07554	0.464
Mof_C 	C 	0.76333	0.34163	0.27786	0.93
Mof_C 	C 	0.02564	0.44387	0.07554	0.465
Mof_C 	C 	0.18941	0.47931	0.95862	-0.062
Mof_C 	C 	0.0359	0.70872	0.12034	-0.262
Mof_C 	C 	0.46042	0.3128	0.54404	-0.06
Mof_C 	C 	0.35124	0.64488	0.79532	0.443
Mof_C 	C 	0.94408	0.64488	0.79532	0.44
Mof_C 	C 	0.41638	0.76876	0.45596	-0.06
Mof_C 	C 	0.19554	0.30974	0.32128	-0.353
Mof_C 	C 	0.98846	0.80446	0.17872	-0.345
Mof_C 	C 	0.4501	0.36833	0.92446	0.471
Mof_C 	C 	0.26921	0.47931	0.95862	-0.065
Mof_C 	C 	0.01154	0.19554	0.82128	-0.345
Mof_C 	C 	0.6872	0.53958	0.95596	-0.06
Mof_C 	C 	0.36833	0.97436	0.42446	0.47
Mof_C 	C 	0.62574	0.30974	0.32128	-0.354
Mof_C 	C 	0.45974	0.61104	0.85502	0.257
Mof_C 	C 	0.57167	0.82441	0.18592	-0.343
Mof_C 	C 	0.11425	0.82441	0.18592	-0.339
Mof_C 	C 	0.63167	0.5499	0.57554	0.471
Mof_C 	C 	0.63849	0.42833	0.31408	-0.343
Mof_C 	C 	0.45974	0.24398	0.85502	0.257
Mof_C 	C 	0.76333	0.93623	0.27786	0.931
Mof_C 	C 	0.24398	0.45974	0.35502	0.256
Mof_C 	C 	0.30974	0.19554	0.82128	-0.354
Mof_C 	C 	0.38896	0.10472	0.64498	0.257
Mof_C 	C 	0.58838	0.9641	0.37966	-0.259
Mof_C 	C 	0.65763	0.7345	0.1366	0.275
Mof_C 	C 	0.10472	0.38896	0.14498	0.257
Mof_C 	C 	0.4501	0.55613	0.92446	0.471
Mof_C 	C 	0.30974	0.62574	0.82128	-0.354
Mof_C 	C 	0.64488	0.94408	0.29532	0.444
Mof_C 	C 	0.34237	0.5979	0.8634	0.274
Mof_C 	C 	0.98846	0.37426	0.17872	-0.351
Mof_C 	C 	0.61104	0.45974	0.35502	0.257
Mof_C 	C 	0.7345	0.97897	0.6366	0.273
Mof_C 	C 	0.61104	0.89528	0.35502	0.257
Mof_C 	C 	0.80446	0.69026	0.67872	-0.353
Mof_C 	C 	0.0723	0.3223	0.25	-0.557
Mof_C 	C 	0.44387	0.02564	0.57554	0.472
Mof_C 	C 	0.4021	0.65763	0.6366	0.274
Mof_C 	C 	0.35512	0.05592	0.70468	0.444
Mof_C 	C 	0.41556	0.58838	0.87966	-0.258
Mof_C 	C 	0.5979	0.02103	0.3634	0.274
Mof_C 	C 	0.93623	0.76333	0.77786	0.929
Mof_C 	C 	0.76876	0.41638	0.95596	-0.06
Mof_C 	C 	0.65763	0.4021	0.1366	0.274
Mof_C 	C 	0.37426	0.98846	0.67872	-0.355
Mof_C 	C 	0.11425	0.36151	0.18592	-0.342
Mof_C 	C 	0.6872	0.41638	0.95596	-0.06
Mof_C 	C 	0.82441	0.57167	0.68592	-0.342
Mof_C 	C 	0.97436	0.36833	0.92446	0.464
Mof_C 	C 	0.41162	0.0359	0.62034	-0.259
Mof_C 	C 	0.80446	0.98846	0.67872	-0.347
Mof_C 	C 	0.9277	0.0723	0.75	-0.551
Mof_C 	C 	0.42833	0.17559	0.81408	-0.343
Mof_C 	C 	0.38896	0.54026	0.64498	0.257
Mof_C 	C 	0.41162	0.58444	0.62034	-0.259
Mof_C 	C 	0.84956	0.05592	0.70468	0.437
Mof_C 	C 	0.63849	0.88575	0.31408	-0.343
Mof_C 	C 	0.64876	0.35512	0.20468	0.443
Mof_C 	C 	0.76876	0.53958	0.95596	-0.06
Mof_C 	C 	0.55613	0.97436	0.42446	0.472
Mof_C 	C 	0.98547	0.65837	0.72214	0.928
Mof_C 	C 	0.9641	0.58838	0.87966	-0.262
Mof_C 	C 	0.53958	0.76876	0.45596	-0.06
Mof_C 	C 	0.9641	0.29128	0.87966	-0.262
Mof_C 	C 	0.75602	0.10472	0.64498	0.254
Mof_C 	C 	0.5499	0.44387	0.07554	0.471
Mof_C 	C 	0.5499	0.63167	0.07554	0.471
Mof_C 	C 	0.94408	0.15044	0.79532	0.433
Mof_C 	C 	0.93623	0.01453	0.77786	0.921
Mof_C 	C 	0.97436	0.55613	0.92446	0.465
Mof_C 	C 	0.23667	0.65837	0.72214	0.93
Mof_C 	C 	0.58362	0.3128	0.54404	-0.06
Mof_C 	C 	0.3223	0.0723	0.75	-0.559
Mof_C 	C 	0.44387	0.5499	0.57554	0.472
Mof_C 	C 	0.02103	0.5979	0.8634	0.278
Mof_C 	C 	0.2655	0.02103	0.3634	0.273
Mof_C 	C 	0.29128	0.41556	0.37966	-0.258
Mof_C 	C 	0.06377	0.23667	0.22214	0.929
Mof_C 	C 	0.64876	0.84956	0.20468	0.444
Mof_C 	C 	0.69026	0.37426	0.17872	-0.354
Mof_C 	C 	0.62574	0.01154	0.32128	-0.355
Mof_C 	C 	0.10472	0.75602	0.14498	0.254
Mof_C 	C 	0.35512	0.64876	0.70468	0.443
Mof_C 	C 	0.55613	0.4501	0.42446	0.472
Mof_C 	C 	0.52069	0.73079	0.54138	-0.066
Mof_C 	C 	0.3223	0.6777	0.75	-0.558
Mof_C 	C 	0.57167	0.36151	0.18592	-0.343
Mof_C 	C 	0.36151	0.57167	0.68592	-0.343
Mof_C 	C 	0.70872	0.0359	0.62034	-0.259
Mof_C 	C 	0.52069	0.81059	0.54138	-0.066
Mof_C 	C 	0.47931	0.26921	0.45862	-0.066
Mof_C 	C 	0.05592	0.84956	0.20468	0.433
Mof_C 	C 	0.41556	0.29128	0.87966	-0.259
Mof_C 	C 	0.89528	0.61104	0.85502	0.257
Mof_C 	C 	0.47931	0.18941	0.45862	-0.066
Mof_C 	C 	0.65837	0.98547	0.22214	0.931
Mof_C 	C 	0.36151	0.11425	0.68592	-0.343
Mof_C 	C 	0.58444	0.41162	0.12034	-0.258
Mof_C 	C 	0.88575	0.63849	0.81408	-0.342
Mof_C 	C 	0.88575	0.17559	0.81408	-0.339
Mof_C 	C 	0.6777	0.9277	0.25	-0.559
Mof_C 	C 	0.53958	0.6872	0.45596	-0.06
Mof_C 	C 	0.17559	0.42833	0.31408	-0.342
Mof_C 	C 	0.01453	0.34163	0.27786	0.928
Mof_C 	C 	0.41638	0.6872	0.45596	-0.06
Mof_C 	C 	0.89528	0.24398	0.85502	0.254
Mof_C 	C 	0.73079	0.52069	0.04138	-0.065
Mof_C 	C 	0.37426	0.69026	0.67872	-0.354
Mof_C 	C 	0.42833	0.63849	0.81408	-0.343
Mof_C 	C 	0.54026	0.75602	0.14498	0.257
Mof_C 	C 	0.34237	0.2655	0.8634	0.275
Mof_C 	C 	0.24398	0.89528	0.35502	0.254
Mof_C 	C 	0.0723	0.9277	0.25	-0.551
Mof_C 	C 	0.02103	0.2655	0.8634	0.278
Mof_C 	C 	0.34163	0.01453	0.77786	0.931
Mof_C 	C 	0.15044	0.35124	0.29532	0.443
Mof_C 	C 	0.97897	0.4021	0.1366	0.278
Mof_C 	C 	0.29128	0.9641	0.37966	-0.259
Mof_C 	C 	0.9277	0.6777	0.75	-0.557
Mof_C 	C 	0.6777	0.3223	0.25	-0.558
Mof_C 	C 	0.81059	0.52069	0.04138	-0.062
Mof_C 	C 	0.7345	0.65763	0.6366	0.274
Mof_C 	C 	0.15044	0.94408	0.29532	0.437
Mof_C 	C 	0.63167	0.02564	0.57554	0.47
Mof_C 	C 	0.4021	0.97897	0.6366	0.274
Mof_C 	C 	0.17559	0.88575	0.31408	-0.339
Mof_C 	C 	0.3128	0.58362	0.04404	-0.06
Mof_C 	C 	0.84956	0.64876	0.70468	0.443
Mof_C 	C 	0.69026	0.80446	0.17872	-0.354
Mof_N 	N 	0.50786	0.1896	0.51572	-0.188
Mof_N 	N 	0.8104	0.49214	0.98428	-0.19
Mof_N 	N 	0.49214	0.8104	0.48428	-0.188
Mof_N 	N 	0.32612	0.50786	0.01572	-0.189
Mof_N 	N 	0.1896	0.50786	0.01572	-0.19
Mof_N 	N 	0.50786	0.32612	0.51572	-0.188
Mof_N 	N 	0.49214	0.67388	0.48428	-0.188
Mof_N 	N 	0.67388	0.49214	0.98428	-0.189
Mof_O 	O 	0.40243	0.03999	0.45028	-0.481
Mof_O 	O 	0.58971	0.45215	0.04972	-0.482
Mof_O 	O 	0.40243	0.41029	0.45028	-0.482
Mof_O 	O 	0.08328	0.45904	0.06792	-0.476
Mof_O 	O 	0.91672	0.39112	0.93208	-0.475
Mof_O 	O 	0.60888	0.08328	0.56792	-0.476
Mof_O 	O 	0.54096	0.51536	0.43208	-0.476
Mof_O 	O 	0.51536	0.39112	0.93208	-0.476
Mof_O 	O 	0.96001	0.59757	0.04972	-0.475
Mof_O 	O 	0.54785	0.03999	0.45028	-0.483
Mof_O 	O 	0.45215	0.96001	0.54972	-0.483
Mof_O 	O 	0.59757	0.96001	0.54972	-0.481
Mof_O 	O 	0.51536	0.54096	0.93208	-0.476
Mof_O 	O 	0.03999	0.54785	0.95028	-0.476
Mof_O 	O 	0.45904	0.48464	0.56792	-0.476
Mof_O 	O 	0.58971	0.59757	0.04972	-0.482
Mof_O 	O 	0.03999	0.40243	0.95028	-0.475
Mof_O 	O 	0.60888	0.48464	0.56792	-0.476
Mof_O 	O 	0.39112	0.51536	0.43208	-0.476
Mof_O 	O 	0.59757	0.58971	0.54972	-0.482
Mof_O 	O 	0.54096	0.91672	0.43208	-0.476
Mof_O 	O 	0.48464	0.45904	0.06792	-0.476
Mof_O 	O 	0.41029	0.40243	0.95028	-0.482
Mof_O 	O 	0.48464	0.60888	0.06792	-0.476
Mof_O 	O 	0.96001	0.45215	0.04972	-0.476
Mof_O 	O 	0.41029	0.54785	0.95028	-0.482
Mof_O 	O 	0.39112	0.91672	0.43208	-0.476
Mof_O 	O 	0.08328	0.60888	0.06792	-0.475
Mof_O 	O 	0.45904	0.08328	0.56792	-0.476
Mof_O 	O 	0.91672	0.54096	0.93208	-0.476
Mof_O 	O 	0.54785	0.41029	0.45028	-0.482
Mof_O 	O 	0.45215	0.58971	0.54972	-0.482
Mof_F 	F 	0.69535	0.05557	0.25412	-0.378
Mof_F 	F 	0.32213	0.0356	0.8243	-0.379
Mof_F 	F 	0.0356	0.32213	0.3243	-0.379
Mof_F 	F 	0.00988	0.88147	0.29848	-0.448
Mof_F 	F 	0.99012	0.11853	0.70152	-0.448
Mof_F 	F 	0.94123	0.94443	0.74588	-0.375
Mof_F 	F 	0.99783	0.9644	0.1757	-0.374
Mof_F 	F 	0.32213	0.7887	0.8243	-0.378
Mof_F 	F 	0.99783	0.2113	0.1757	-0.377
Mof_F 	F 	0.9644	0.99783	0.6757	-0.376
Mof_F 	F 	0.30465	0.94443	0.74588	-0.378
Mof_F 	F 	0.94443	0.30465	0.24588	-0.376
Mof_F 	F 	0.05877	0.19855	0.25412	-0.378
Mof_F 	F 	0.05557	0.69535	0.75412	-0.376
Mof_F 	F 	0.11853	0.99012	0.20152	-0.448
Mof_F 	F 	0.80145	0.94123	0.24588	-0.377
Mof_F 	F 	0.2113	0.99783	0.6757	-0.38
Mof_F 	F 	0.67787	0.9644	0.1757	-0.379
Mof_F 	F 	0.00217	0.0356	0.8243	-0.374
Mof_F 	F 	0.94123	0.80145	0.74588	-0.378
Mof_F 	F 	0.7886	0.88147	0.29848	-0.447
Mof_F 	F 	0.00217	0.7887	0.8243	-0.377
Mof_F 	F 	0.58299	0.99012	0.20152	-0.448
Mof_F 	F 	0.99012	0.58299	0.70152	-0.448
Mof_F 	F 	0.69535	0.19855	0.25412	-0.378
Mof_F 	F 	0.05557	0.05877	0.75412	-0.373
Mof_F 	F 	0.94443	0.94123	0.24588	-0.373
Mof_F 	F 	0.30465	0.80145	0.74588	-0.378
Mof_F 	F 	0.19855	0.69535	0.75412	-0.377
Mof_F 	F 	0.80145	0.30465	0.24588	-0.377
Mof_F 	F 	0.7886	0.41701	0.29848	-0.447
Mof_F 	F 	0.19855	0.05877	0.75412	-0.377
Mof_F 	F 	0.05877	0.05557	0.25412	-0.375
Mof_F 	F 	0.9644	0.67787	0.6757	-0.379
Mof_F 	F 	0.7887	0.32213	0.3243	-0.379
Mof_F 	F 	0.2114	0.58299	0.70152	-0.447
Mof_F 	F 	0.11853	0.2114	0.20152	-0.447
Mof_F 	F 	0.41701	0.7886	0.79848	-0.447
Mof_F 	F 	0.0356	0.00217	0.3243	-0.376
Mof_F 	F 	0.67787	0.2113	0.1757	-0.378
Mof_F 	F 	0.2113	0.67787	0.6757	-0.379
Mof_F 	F 	0.41701	0.00988	0.79848	-0.448
Mof_F 	F 	0.88147	0.7886	0.79848	-0.447
Mof_F 	F 	0.58299	0.2114	0.20152	-0.447
Mof_F 	F 	0.88147	0.00988	0.79848	-0.448
Mof_F 	F 	0.2114	0.11853	0.70152	-0.447
Mof_F 	F 	0.00988	0.41701	0.29848	-0.448
Mof_F 	F 	0.7887	0.00217	0.3243	-0.38
_end
