data_functionalizedCrystal
_audit_creation_method	'EQeq! by Chris Wilmer'
_symmetry_space_group_name_H-M	'P1'
_symmetry_Int_Tables_number	1
_symmetry_cell_setting	triclinic
loop_
_symmetry_equiv_pos_as_xyz
  x,y,z
_cell_length_a	30.672
_cell_length_b	15.072
_cell_length_c	20.994
_cell_angle_alpha	90
_cell_angle_beta	129.553
_cell_angle_gamma	90
loop_
_atom_site_label
_atom_site_type_symbol
_atom_site_fract_x
_atom_site_fract_y
_atom_site_fract_z
_atom_site_charge
Mof_Cd	Cd	0.92684	0.54719	0.93213	0.428
Mof_Cd	Cd	0.76142	0.79494	0.59429	0.407
Mof_O 	O 	0.97992	0.2828	0.0458	-0.257
Mof_O 	O 	0.93514	0.4659	0.8377	-0.263
Mof_O 	O 	0.83356	0.5532	0.5811	-0.262
Mof_O 	O 	0.78614	0.6807	0.5456	-0.281
Mof_N 	N 	0.82245	0.7058	0.7023	-0.149
Mof_N 	N 	0.86852	0.444	0.9202	-0.144
Mof_C 	C 	0.8497	0.6976	0.7839	0.18
Mof_O 	O 	0.89912	0.4625	0.7066	-0.469
Mof_H 	H 	0.8815	0.4961	0.6668	0.309
Mof_N 	N 	0.88217	0.6247	0.8169	-0.148
Mof_O 	O 	0.8322	0.9208	0.9821	-1.047
Mof_C 	C 	0.8447	0.7596	0.8331	-0.218
Mof_C 	C 	0.8148	0.4354	0.8892	0.136
Mof_O 	O 	0.98181	0.4195	0.007	-0.274
Mof_C 	C 	0.77	0.5022	0.8367	-0.079
Mof_C 	C 	0.9052	0.4987	0.7678	0.357
Mof_C 	C 	0.8957	0.3673	0.9638	0
Mof_C 	C 	0.7349	0.5301	0.8539	0.054
Mof_H 	H 	0.7396	0.507	0.899	0.038
Mof_C 	C 	0.8185	0.6211	0.5988	0.28
Mof_C 	C 	0.8393	0.6341	0.683	-0.007
Mof_C 	C 	0.8754	0.583	0.753	-0.046
Mof_C 	C 	0.7622	0.5367	0.7687	0.057
Mof_H 	H 	0.7851	0.5175	0.7568	0.019
Mof_C 	C 	0.9566	0.3546	0.009	0.285
Mof_C 	C 	0.7851	0.8469	0.849	-0.466
Mof_H 	H 	0.7496	0.8676	0.8281	0.213
Mof_C 	C 	0.7915	0.7932	0.8012	0.244
Mof_H 	H 	0.76	0.7795	0.7473	-0.044
Mof_C 	C 	0.8915	0.782	0.9126	0.245
Mof_H 	H 	0.9266	0.759	0.9343	-0.035
Mof_O 	O 	0.6473	0.6919	0.684	-0.169
Mof_C 	C 	0.7202	0.6003	0.7181	-0.181
Mof_H 	H 	0.7154	0.624	0.6731	0.126
Mof_C 	C 	0.8338	0.8689	0.9299	0.634
Mof_C 	C 	0.6857	0.6276	0.7362	0.209
Mof_C 	C 	0.8873	0.8387	0.9616	-0.47
Mof_H 	H 	0.9194	0.8557	0.014	0.206
Mof_C 	C 	0.7787	0.9516	0.9538	0.568
Mof_H 	H 	0.7603	0.9836	0.903	-0.118
Mof_H 	H 	0.7838	0.9902	0.9945	-0.124
Mof_H 	H 	0.7557	0.9019	0.9447	-0.134
Mof_C 	C 	0.6927	0.5926	0.8029	-0.182
Mof_H 	H 	0.6692	0.6109	0.8139	0.101
Mof_C 	C 	0.6126	0.7273	0.7016	-0.253
Mof_H 	H 	0.5841	0.6848	0.6862	0.121
Mof_H 	H 	0.5949	0.781	0.6708	0.138
Mof_H 	H 	0.6356	0.7398	0.7596	0.118
Mof_N 	N 	0.80525	0.3566	0.9102	-0.134
Mof_O 	O 	0.90952	0.1848	0.0331	-0.466
Mof_H 	H 	0.9345	0.2213	0.0497	0.308
Mof_C 	C 	0.8565	0.3126	0.9572	-0.043
Mof_C 	C 	0.8612	0.2243	0.9898	0.36
Mof_O 	O 	0.81839	0.1894	0.9738	-0.28
Mof_O 	O 	0.8249	0.8836	0.6021	-0.508
Mof_H 	H 	0.799	0.8437	0.5767	0.203
Mof_H 	H 	0.8413	0.863	0.5839	0.277
Mof_H 	H 	0.85	0.921	0.025	0.635
Mof_Cd	Cd	0.42684	0.04719	0.93213	0.425
Mof_Cd	Cd	0.26142	0.29494	0.59429	0.405
Mof_O 	O 	0.47992	0.7828	0.0458	-0.257
Mof_O 	O 	0.43514	0.9659	0.8377	-0.263
Mof_O 	O 	0.33356	0.0532	0.5811	-0.262
Mof_O 	O 	0.28614	0.1807	0.5456	-0.281
Mof_N 	N 	0.32245	0.2058	0.7023	-0.149
Mof_N 	N 	0.36852	0.944	0.9202	-0.144
Mof_C 	C 	0.3497	0.1976	0.7839	0.182
Mof_O 	O 	0.39912	0.9625	0.7066	-0.469
Mof_H 	H 	0.3815	0.9961	0.6668	0.31
Mof_N 	N 	0.38217	0.1247	0.8169	-0.148
Mof_O 	O 	0.3322	0.4208	0.9821	-1.071
Mof_C 	C 	0.3447	0.2596	0.8331	-0.225
Mof_C 	C 	0.3148	0.9354	0.8892	0.139
Mof_O 	O 	0.48181	0.9195	0.007	-0.274
Mof_C 	C 	0.27	0.0022	0.8367	-0.083
Mof_C 	C 	0.4052	0.9987	0.7678	0.359
Mof_C 	C 	0.3957	0.8673	0.9638	0.003
Mof_C 	C 	0.2349	0.0301	0.8539	0.056
Mof_H 	H 	0.2396	0.007	0.899	0.036
Mof_C 	C 	0.3185	0.1211	0.5988	0.28
Mof_C 	C 	0.3393	0.1341	0.683	-0.006
Mof_C 	C 	0.3754	0.083	0.753	-0.048
Mof_C 	C 	0.2622	0.0367	0.7687	0.059
Mof_H 	H 	0.2851	0.0175	0.7568	0.018
Mof_C 	C 	0.4566	0.8546	0.009	0.282
Mof_C 	C 	0.2851	0.3469	0.849	-0.477
Mof_H 	H 	0.2496	0.3676	0.8281	0.217
Mof_C 	C 	0.2915	0.2932	0.8012	0.252
Mof_H 	H 	0.26	0.2795	0.7473	-0.047
Mof_C 	C 	0.3915	0.282	0.9126	0.256
Mof_H 	H 	0.4266	0.259	0.9343	-0.039
Mof_O 	O 	0.1473	0.1919	0.684	-0.17
Mof_C 	C 	0.2202	0.1003	0.7181	-0.183
Mof_H 	H 	0.2154	0.124	0.6731	0.127
Mof_C 	C 	0.3338	0.3689	0.9299	0.649
Mof_C 	C 	0.1857	0.1276	0.7362	0.21
Mof_C 	C 	0.3873	0.3387	0.9616	-0.488
Mof_H 	H 	0.4194	0.3557	0.014	0.214
Mof_C 	C 	0.2787	0.4516	0.9538	0.592
Mof_H 	H 	0.2603	0.4836	0.903	-0.126
Mof_H 	H 	0.2838	0.4902	0.9945	-0.133
Mof_H 	H 	0.2557	0.4019	0.9447	-0.142
Mof_C 	C 	0.1927	0.0926	0.8029	-0.184
Mof_H 	H 	0.1692	0.1109	0.8139	0.101
Mof_C 	C 	0.1126	0.2273	0.7016	-0.252
Mof_H 	H 	0.0841	0.1848	0.6862	0.121
Mof_H 	H 	0.0949	0.281	0.6708	0.138
Mof_H 	H 	0.1356	0.2398	0.7596	0.117
Mof_N 	N 	0.30525	0.8566	0.9102	-0.134
Mof_O 	O 	0.40952	0.6848	0.0331	-0.469
Mof_H 	H 	0.4345	0.7213	0.0497	0.309
Mof_C 	C 	0.3565	0.8126	0.9572	-0.044
Mof_C 	C 	0.3612	0.7243	0.9898	0.364
Mof_O 	O 	0.31839	0.6894	0.9738	-0.279
Mof_O 	O 	0.3249	0.3836	0.6021	-0.508
Mof_H 	H 	0.299	0.3437	0.5767	0.203
Mof_H 	H 	0.3413	0.363	0.5839	0.277
Mof_H 	H 	0.35	0.421	0.025	0.65
Mof_Cd	Cd	0.07316	0.54719	0.56787	0.427
Mof_Cd	Cd	0.23858	0.79494	0.90571	0.406
Mof_O 	O 	0.02008	0.2828	0.4542	-0.257
Mof_O 	O 	0.06486	0.4659	0.6623	-0.264
Mof_O 	O 	0.16644	0.5532	0.9189	-0.262
Mof_O 	O 	0.21386	0.6807	0.9544	-0.281
Mof_N 	N 	0.17755	0.7058	0.7977	-0.149
Mof_N 	N 	0.13148	0.444	0.5798	-0.144
Mof_C 	C 	0.1503	0.6976	0.7161	0.182
Mof_O 	O 	0.10088	0.4625	0.7934	-0.469
Mof_H 	H 	0.1185	0.4961	0.8332	0.309
Mof_N 	N 	0.11783	0.6247	0.6831	-0.148
Mof_O 	O 	0.1678	0.9208	0.5179	-1.066
Mof_C 	C 	0.1553	0.7596	0.6669	-0.223
Mof_C 	C 	0.1852	0.4354	0.6108	0.136
Mof_O 	O 	0.01819	0.4195	0.493	-0.274
Mof_C 	C 	0.23	0.5022	0.6633	-0.079
Mof_C 	C 	0.0948	0.4987	0.7322	0.357
Mof_C 	C 	0.1043	0.3673	0.5362	0.001
Mof_C 	C 	0.2651	0.5301	0.6461	0.054
Mof_H 	H 	0.2604	0.507	0.601	0.038
Mof_C 	C 	0.1815	0.6211	0.9012	0.28
Mof_C 	C 	0.1607	0.6341	0.817	-0.007
Mof_C 	C 	0.1246	0.583	0.747	-0.046
Mof_C 	C 	0.2378	0.5367	0.7313	0.057
Mof_H 	H 	0.2149	0.5175	0.7432	0.019
Mof_C 	C 	0.0434	0.3546	0.491	0.285
Mof_C 	C 	0.2149	0.8469	0.651	-0.474
Mof_H 	H 	0.2504	0.8676	0.6719	0.216
Mof_C 	C 	0.2085	0.7932	0.6988	0.25
Mof_H 	H 	0.24	0.7795	0.7527	-0.046
Mof_C 	C 	0.1085	0.782	0.5874	0.253
Mof_H 	H 	0.0734	0.759	0.5657	-0.038
Mof_O 	O 	0.3527	0.6919	0.816	-0.169
Mof_C 	C 	0.2798	0.6003	0.7819	-0.181
Mof_H 	H 	0.2846	0.624	0.8269	0.126
Mof_C 	C 	0.1662	0.8689	0.5701	0.646
Mof_C 	C 	0.3143	0.6276	0.7638	0.208
Mof_C 	C 	0.1127	0.8387	0.5384	-0.484
Mof_H 	H 	0.0806	0.8557	0.486	0.212
Mof_C 	C 	0.2213	0.9516	0.5462	0.587
Mof_H 	H 	0.2397	0.9836	0.597	-0.124
Mof_H 	H 	0.2162	0.9902	0.5055	-0.131
Mof_H 	H 	0.2443	0.9019	0.5553	-0.14
Mof_C 	C 	0.3073	0.5926	0.6971	-0.182
Mof_H 	H 	0.3308	0.6109	0.6861	0.101
Mof_C 	C 	0.3874	0.7273	0.7984	-0.253
Mof_H 	H 	0.4159	0.6848	0.8138	0.121
Mof_H 	H 	0.4051	0.781	0.8292	0.139
Mof_H 	H 	0.3644	0.7398	0.7404	0.118
Mof_N 	N 	0.19475	0.3566	0.5898	-0.134
Mof_O 	O 	0.09048	0.1848	0.4669	-0.468
Mof_H 	H 	0.0655	0.2213	0.4503	0.309
Mof_C 	C 	0.1435	0.3126	0.5428	-0.043
Mof_C 	C 	0.1388	0.2243	0.5102	0.362
Mof_O 	O 	0.18161	0.1894	0.5262	-0.279
Mof_O 	O 	0.1751	0.8836	0.8979	-0.508
Mof_H 	H 	0.201	0.8437	0.9233	0.203
Mof_H 	H 	0.1587	0.863	0.9161	0.278
Mof_H 	H 	0.15	0.921	0.475	0.647
Mof_Cd	Cd	0.57316	0.04719	0.56787	0.427
Mof_Cd	Cd	0.73858	0.29494	0.90571	0.405
Mof_O 	O 	0.52008	0.7828	0.4542	-0.257
Mof_O 	O 	0.56486	0.9659	0.6623	-0.264
Mof_O 	O 	0.66644	0.0532	0.9189	-0.263
Mof_O 	O 	0.71386	0.1807	0.9544	-0.282
Mof_N 	N 	0.67755	0.2058	0.7977	-0.149
Mof_N 	N 	0.63148	0.944	0.5798	-0.144
Mof_C 	C 	0.6503	0.1976	0.7161	0.182
Mof_O 	O 	0.60088	0.9625	0.7934	-0.469
Mof_H 	H 	0.6185	0.9961	0.8332	0.31
Mof_N 	N 	0.61783	0.1247	0.6831	-0.148
Mof_O 	O 	0.6678	0.4208	0.5179	-1.067
Mof_C 	C 	0.6553	0.2596	0.6669	-0.224
Mof_C 	C 	0.6852	0.9354	0.6108	0.137
Mof_O 	O 	0.51819	0.9195	0.493	-0.274
Mof_C 	C 	0.73	0.0022	0.6633	-0.08
Mof_C 	C 	0.5948	0.9987	0.7322	0.359
Mof_C 	C 	0.6043	0.8673	0.5362	0.001
Mof_C 	C 	0.7651	0.0301	0.6461	0.054
Mof_H 	H 	0.7604	0.007	0.601	0.037
Mof_C 	C 	0.6815	0.1211	0.9012	0.279
Mof_C 	C 	0.6607	0.1341	0.817	-0.007
Mof_C 	C 	0.6246	0.083	0.747	-0.048
Mof_C 	C 	0.7378	0.0367	0.7313	0.057
Mof_H 	H 	0.7149	0.0175	0.7432	0.019
Mof_C 	C 	0.5434	0.8546	0.491	0.285
Mof_C 	C 	0.7149	0.3469	0.651	-0.474
Mof_H 	H 	0.7504	0.3676	0.6719	0.216
Mof_C 	C 	0.7085	0.2932	0.6988	0.25
Mof_H 	H 	0.74	0.2795	0.7527	-0.046
Mof_C 	C 	0.6085	0.282	0.5874	0.253
Mof_H 	H 	0.5734	0.259	0.5657	-0.038
Mof_O 	O 	0.8527	0.1919	0.816	-0.169
Mof_C 	C 	0.7798	0.1003	0.7819	-0.181
Mof_H 	H 	0.7846	0.124	0.8269	0.126
Mof_C 	C 	0.6662	0.3689	0.5701	0.646
Mof_C 	C 	0.8143	0.1276	0.7638	0.209
Mof_C 	C 	0.6127	0.3387	0.5384	-0.484
Mof_H 	H 	0.5806	0.3557	0.486	0.212
Mof_C 	C 	0.7213	0.4516	0.5462	0.588
Mof_H 	H 	0.7397	0.4836	0.597	-0.124
Mof_H 	H 	0.7162	0.4902	0.5055	-0.132
Mof_H 	H 	0.7443	0.4019	0.5553	-0.14
Mof_C 	C 	0.8073	0.0926	0.6971	-0.183
Mof_H 	H 	0.8308	0.1109	0.6861	0.101
Mof_C 	C 	0.8874	0.2273	0.7984	-0.252
Mof_H 	H 	0.9159	0.1848	0.8138	0.121
Mof_H 	H 	0.9051	0.281	0.8292	0.138
Mof_H 	H 	0.8644	0.2398	0.7404	0.117
Mof_N 	N 	0.69475	0.8566	0.5898	-0.134
Mof_O 	O 	0.59048	0.6848	0.4669	-0.468
Mof_H 	H 	0.5655	0.7213	0.4503	0.309
Mof_C 	C 	0.6435	0.8126	0.5428	-0.043
Mof_C 	C 	0.6388	0.7243	0.5102	0.362
Mof_O 	O 	0.68161	0.6894	0.5262	-0.279
Mof_O 	O 	0.6751	0.3836	0.8979	-0.508
Mof_H 	H 	0.701	0.3437	0.9233	0.203
Mof_H 	H 	0.6587	0.363	0.9161	0.277
Mof_H 	H 	0.65	0.421	0.475	0.647
Mof_Cd	Cd	0.07316	0.45281	0.06787	0.427
Mof_Cd	Cd	0.23858	0.20506	0.40571	0.406
Mof_O 	O 	0.02008	0.7172	0.9542	-0.257
Mof_O 	O 	0.06486	0.5341	0.1623	-0.263
Mof_O 	O 	0.16644	0.4468	0.4189	-0.262
Mof_O 	O 	0.21386	0.3193	0.4544	-0.281
Mof_N 	N 	0.17755	0.2942	0.2977	-0.149
Mof_N 	N 	0.13148	0.556	0.0798	-0.144
Mof_C 	C 	0.1503	0.3024	0.2161	0.18
Mof_O 	O 	0.10088	0.5375	0.2934	-0.469
Mof_H 	H 	0.1185	0.5039	0.3332	0.309
Mof_N 	N 	0.11783	0.3753	0.1831	-0.148
Mof_O 	O 	0.1678	0.0792	0.0179	-1.047
Mof_C 	C 	0.1553	0.2404	0.1669	-0.218
Mof_C 	C 	0.1852	0.5646	0.1108	0.136
Mof_O 	O 	0.01819	0.5805	0.993	-0.274
Mof_C 	C 	0.23	0.4978	0.1633	-0.079
Mof_C 	C 	0.0948	0.5013	0.2322	0.357
Mof_C 	C 	0.1043	0.6327	0.0362	0
Mof_C 	C 	0.2651	0.4699	0.1461	0.054
Mof_H 	H 	0.2604	0.493	0.101	0.038
Mof_C 	C 	0.1815	0.3789	0.4012	0.28
Mof_C 	C 	0.1607	0.3659	0.317	-0.007
Mof_C 	C 	0.1246	0.417	0.247	-0.046
Mof_C 	C 	0.2378	0.4633	0.2313	0.057
Mof_H 	H 	0.2149	0.4825	0.2432	0.019
Mof_C 	C 	0.0434	0.6454	0.991	0.285
Mof_C 	C 	0.2149	0.1531	0.151	-0.466
Mof_H 	H 	0.2504	0.1324	0.1719	0.213
Mof_C 	C 	0.2085	0.2068	0.1988	0.244
Mof_H 	H 	0.24	0.2205	0.2527	-0.044
Mof_C 	C 	0.1085	0.218	0.0874	0.245
Mof_H 	H 	0.0734	0.241	0.0657	-0.035
Mof_O 	O 	0.3527	0.3081	0.316	-0.169
Mof_C 	C 	0.2798	0.3997	0.2819	-0.181
Mof_H 	H 	0.2846	0.376	0.3269	0.126
Mof_C 	C 	0.1662	0.1311	0.0701	0.634
Mof_C 	C 	0.3143	0.3724	0.2638	0.209
Mof_C 	C 	0.1127	0.1613	0.0384	-0.47
Mof_H 	H 	0.0806	0.1443	0.986	0.206
Mof_C 	C 	0.2213	0.0484	0.0462	0.568
Mof_H 	H 	0.2397	0.0164	0.097	-0.118
Mof_H 	H 	0.2162	0.0098	0.0055	-0.124
Mof_H 	H 	0.2443	0.0981	0.0553	-0.134
Mof_C 	C 	0.3073	0.4074	0.1971	-0.182
Mof_H 	H 	0.3308	0.3891	0.1861	0.101
Mof_C 	C 	0.3874	0.2727	0.2984	-0.253
Mof_H 	H 	0.4159	0.3152	0.3138	0.121
Mof_H 	H 	0.4051	0.219	0.3292	0.138
Mof_H 	H 	0.3644	0.2602	0.2404	0.118
Mof_N 	N 	0.19475	0.6434	0.0898	-0.134
Mof_O 	O 	0.09048	0.8152	0.9669	-0.466
Mof_H 	H 	0.0655	0.7787	0.9503	0.308
Mof_C 	C 	0.1435	0.6874	0.0428	-0.043
Mof_C 	C 	0.1388	0.7757	0.0102	0.36
Mof_O 	O 	0.18161	0.8106	0.0262	-0.28
Mof_O 	O 	0.1751	0.1164	0.3979	-0.508
Mof_H 	H 	0.201	0.1563	0.4233	0.203
Mof_H 	H 	0.1587	0.137	0.4161	0.277
Mof_H 	H 	0.15	0.079	0.975	0.635
Mof_Cd	Cd	0.57316	0.95281	0.06787	0.425
Mof_Cd	Cd	0.73858	0.70506	0.40571	0.405
Mof_O 	O 	0.52008	0.2172	0.9542	-0.257
Mof_O 	O 	0.56486	0.0341	0.1623	-0.263
Mof_O 	O 	0.66644	0.9468	0.4189	-0.262
Mof_O 	O 	0.71386	0.8193	0.4544	-0.281
Mof_N 	N 	0.67755	0.7942	0.2977	-0.149
Mof_N 	N 	0.63148	0.056	0.0798	-0.144
Mof_C 	C 	0.6503	0.8024	0.2161	0.182
Mof_O 	O 	0.60088	0.0375	0.2934	-0.469
Mof_H 	H 	0.6185	0.0039	0.3332	0.31
Mof_N 	N 	0.61783	0.8753	0.1831	-0.148
Mof_O 	O 	0.6678	0.5792	0.0179	-1.071
Mof_C 	C 	0.6553	0.7404	0.1669	-0.225
Mof_C 	C 	0.6852	0.0646	0.1108	0.139
Mof_O 	O 	0.51819	0.0805	0.993	-0.274
Mof_C 	C 	0.73	0.9978	0.1633	-0.083
Mof_C 	C 	0.5948	0.0013	0.2322	0.359
Mof_C 	C 	0.6043	0.1327	0.0362	0.003
Mof_C 	C 	0.7651	0.9699	0.1461	0.056
Mof_H 	H 	0.7604	0.993	0.101	0.036
Mof_C 	C 	0.6815	0.8789	0.4012	0.28
Mof_C 	C 	0.6607	0.8659	0.317	-0.006
Mof_C 	C 	0.6246	0.917	0.247	-0.048
Mof_C 	C 	0.7378	0.9633	0.2313	0.059
Mof_H 	H 	0.7149	0.9825	0.2432	0.018
Mof_C 	C 	0.5434	0.1454	0.991	0.282
Mof_C 	C 	0.7149	0.6531	0.151	-0.477
Mof_H 	H 	0.7504	0.6324	0.1719	0.217
Mof_C 	C 	0.7085	0.7068	0.1988	0.252
Mof_H 	H 	0.74	0.7205	0.2527	-0.047
Mof_C 	C 	0.6085	0.718	0.0874	0.256
Mof_H 	H 	0.5734	0.741	0.0657	-0.039
Mof_O 	O 	0.8527	0.8081	0.316	-0.17
Mof_C 	C 	0.7798	0.8997	0.2819	-0.183
Mof_H 	H 	0.7846	0.876	0.3269	0.127
Mof_C 	C 	0.6662	0.6311	0.0701	0.649
Mof_C 	C 	0.8143	0.8724	0.2638	0.21
Mof_C 	C 	0.6127	0.6613	0.0384	-0.488
Mof_H 	H 	0.5806	0.6443	0.986	0.214
Mof_C 	C 	0.7213	0.5484	0.0462	0.592
Mof_H 	H 	0.7397	0.5164	0.097	-0.126
Mof_H 	H 	0.7162	0.5098	0.0055	-0.133
Mof_H 	H 	0.7443	0.5981	0.0553	-0.142
Mof_C 	C 	0.8073	0.9074	0.1971	-0.184
Mof_H 	H 	0.8308	0.8891	0.1861	0.101
Mof_C 	C 	0.8874	0.7727	0.2984	-0.252
Mof_H 	H 	0.9159	0.8152	0.3138	0.121
Mof_H 	H 	0.9051	0.719	0.3292	0.138
Mof_H 	H 	0.8644	0.7602	0.2404	0.117
Mof_N 	N 	0.69475	0.1434	0.0898	-0.134
Mof_O 	O 	0.59048	0.3152	0.9669	-0.469
Mof_H 	H 	0.5655	0.2787	0.9503	0.309
Mof_C 	C 	0.6435	0.1874	0.0428	-0.044
Mof_C 	C 	0.6388	0.2757	0.0102	0.364
Mof_O 	O 	0.68161	0.3106	0.0262	-0.279
Mof_O 	O 	0.6751	0.6164	0.3979	-0.508
Mof_H 	H 	0.701	0.6563	0.4233	0.203
Mof_H 	H 	0.6587	0.637	0.4161	0.277
Mof_H 	H 	0.65	0.579	0.975	0.65
Mof_Cd	Cd	0.92684	0.45281	0.43213	0.427
Mof_Cd	Cd	0.76142	0.20506	0.09429	0.406
Mof_O 	O 	0.97992	0.7172	0.5458	-0.257
Mof_O 	O 	0.93514	0.5341	0.3377	-0.264
Mof_O 	O 	0.83356	0.4468	0.0811	-0.262
Mof_O 	O 	0.78614	0.3193	0.0456	-0.281
Mof_N 	N 	0.82245	0.2942	0.2023	-0.149
Mof_N 	N 	0.86852	0.556	0.4202	-0.144
Mof_C 	C 	0.8497	0.3024	0.2839	0.182
Mof_O 	O 	0.89912	0.5375	0.2066	-0.469
Mof_H 	H 	0.8815	0.5039	0.1668	0.309
Mof_N 	N 	0.88217	0.3753	0.3169	-0.148
Mof_O 	O 	0.8322	0.0792	0.4821	-1.066
Mof_C 	C 	0.8447	0.2404	0.3331	-0.223
Mof_C 	C 	0.8148	0.5646	0.3892	0.136
Mof_O 	O 	0.98181	0.5805	0.507	-0.274
Mof_C 	C 	0.77	0.4978	0.3367	-0.079
Mof_C 	C 	0.9052	0.5013	0.2678	0.357
Mof_C 	C 	0.8957	0.6327	0.4638	0.001
Mof_C 	C 	0.7349	0.4699	0.3539	0.054
Mof_H 	H 	0.7396	0.493	0.399	0.038
Mof_C 	C 	0.8185	0.3789	0.0988	0.28
Mof_C 	C 	0.8393	0.3659	0.183	-0.007
Mof_C 	C 	0.8754	0.417	0.253	-0.046
Mof_C 	C 	0.7622	0.4633	0.2687	0.057
Mof_H 	H 	0.7851	0.4825	0.2568	0.019
Mof_C 	C 	0.9566	0.6454	0.509	0.285
Mof_C 	C 	0.7851	0.1531	0.349	-0.474
Mof_H 	H 	0.7496	0.1324	0.3281	0.216
Mof_C 	C 	0.7915	0.2068	0.3012	0.25
Mof_H 	H 	0.76	0.2205	0.2473	-0.046
Mof_C 	C 	0.8915	0.218	0.4126	0.253
Mof_H 	H 	0.9266	0.241	0.4343	-0.038
Mof_O 	O 	0.6473	0.3081	0.184	-0.169
Mof_C 	C 	0.7202	0.3997	0.2181	-0.181
Mof_H 	H 	0.7154	0.376	0.1731	0.126
Mof_C 	C 	0.8338	0.1311	0.4299	0.646
Mof_C 	C 	0.6857	0.3724	0.2362	0.208
Mof_C 	C 	0.8873	0.1613	0.4616	-0.484
Mof_H 	H 	0.9194	0.1443	0.514	0.212
Mof_C 	C 	0.7787	0.0484	0.4538	0.587
Mof_H 	H 	0.7603	0.0164	0.403	-0.124
Mof_H 	H 	0.7838	0.0098	0.4945	-0.131
Mof_H 	H 	0.7557	0.0981	0.4447	-0.14
Mof_C 	C 	0.6927	0.4074	0.3029	-0.182
Mof_H 	H 	0.6692	0.3891	0.3139	0.101
Mof_C 	C 	0.6126	0.2727	0.2016	-0.253
Mof_H 	H 	0.5841	0.3152	0.1862	0.121
Mof_H 	H 	0.5949	0.219	0.1708	0.139
Mof_H 	H 	0.6356	0.2602	0.2596	0.118
Mof_N 	N 	0.80525	0.6434	0.4102	-0.134
Mof_O 	O 	0.90952	0.8152	0.5331	-0.468
Mof_H 	H 	0.9345	0.7787	0.5497	0.309
Mof_C 	C 	0.8565	0.6874	0.4572	-0.043
Mof_C 	C 	0.8612	0.7757	0.4898	0.362
Mof_O 	O 	0.81839	0.8106	0.4738	-0.279
Mof_O 	O 	0.8249	0.1164	0.1021	-0.508
Mof_H 	H 	0.799	0.1563	0.0767	0.203
Mof_H 	H 	0.8413	0.137	0.0839	0.278
Mof_H 	H 	0.85	0.079	0.525	0.647
Mof_Cd	Cd	0.42684	0.95281	0.43213	0.427
Mof_Cd	Cd	0.26142	0.70506	0.09429	0.405
Mof_O 	O 	0.47992	0.2172	0.5458	-0.257
Mof_O 	O 	0.43514	0.0341	0.3377	-0.264
Mof_O 	O 	0.33356	0.9468	0.0811	-0.263
Mof_O 	O 	0.28614	0.8193	0.0456	-0.282
Mof_N 	N 	0.32245	0.7942	0.2023	-0.149
Mof_N 	N 	0.36852	0.056	0.4202	-0.144
Mof_C 	C 	0.3497	0.8024	0.2839	0.182
Mof_O 	O 	0.39912	0.0375	0.2066	-0.469
Mof_H 	H 	0.3815	0.0039	0.1668	0.31
Mof_N 	N 	0.38217	0.8753	0.3169	-0.148
Mof_O 	O 	0.3322	0.5792	0.4821	-1.067
Mof_C 	C 	0.3447	0.7404	0.3331	-0.224
Mof_C 	C 	0.3148	0.0646	0.3892	0.137
Mof_O 	O 	0.48181	0.0805	0.507	-0.274
Mof_C 	C 	0.27	0.9978	0.3367	-0.08
Mof_C 	C 	0.4052	0.0013	0.2678	0.359
Mof_C 	C 	0.3957	0.1327	0.4638	0.001
Mof_C 	C 	0.2349	0.9699	0.3539	0.054
Mof_H 	H 	0.2396	0.993	0.399	0.037
Mof_C 	C 	0.3185	0.8789	0.0988	0.279
Mof_C 	C 	0.3393	0.8659	0.183	-0.007
Mof_C 	C 	0.3754	0.917	0.253	-0.048
Mof_C 	C 	0.2622	0.9633	0.2687	0.057
Mof_H 	H 	0.2851	0.9825	0.2568	0.019
Mof_C 	C 	0.4566	0.1454	0.509	0.285
Mof_C 	C 	0.2851	0.6531	0.349	-0.474
Mof_H 	H 	0.2496	0.6324	0.3281	0.216
Mof_C 	C 	0.2915	0.7068	0.3012	0.25
Mof_H 	H 	0.26	0.7205	0.2473	-0.046
Mof_C 	C 	0.3915	0.718	0.4126	0.253
Mof_H 	H 	0.4266	0.741	0.4343	-0.038
Mof_O 	O 	0.1473	0.8081	0.184	-0.169
Mof_C 	C 	0.2202	0.8997	0.2181	-0.181
Mof_H 	H 	0.2154	0.876	0.1731	0.126
Mof_C 	C 	0.3338	0.6311	0.4299	0.646
Mof_C 	C 	0.1857	0.8724	0.2362	0.209
Mof_C 	C 	0.3873	0.6613	0.4616	-0.484
Mof_H 	H 	0.4194	0.6443	0.514	0.212
Mof_C 	C 	0.2787	0.5484	0.4538	0.588
Mof_H 	H 	0.2603	0.5164	0.403	-0.124
Mof_H 	H 	0.2838	0.5098	0.4945	-0.132
Mof_H 	H 	0.2557	0.5981	0.4447	-0.14
Mof_C 	C 	0.1927	0.9074	0.3029	-0.183
Mof_H 	H 	0.1692	0.8891	0.3139	0.101
Mof_C 	C 	0.1126	0.7727	0.2016	-0.252
Mof_H 	H 	0.0841	0.8152	0.1862	0.121
Mof_H 	H 	0.0949	0.719	0.1708	0.138
Mof_H 	H 	0.1356	0.7602	0.2596	0.117
Mof_N 	N 	0.30525	0.1434	0.4102	-0.134
Mof_O 	O 	0.40952	0.3152	0.5331	-0.468
Mof_H 	H 	0.4345	0.2787	0.5497	0.309
Mof_C 	C 	0.3565	0.1874	0.4572	-0.043
Mof_C 	C 	0.3612	0.2757	0.4898	0.362
Mof_O 	O 	0.31839	0.3106	0.4738	-0.279
Mof_O 	O 	0.3249	0.6164	0.1021	-0.508
Mof_H 	H 	0.299	0.6563	0.0767	0.203
Mof_H 	H 	0.3413	0.637	0.0839	0.277
Mof_H 	H 	0.35	0.579	0.525	0.647
_end
