data_functionalizedCrystal
_audit_creation_method	'EQeq! by Chris Wilmer'
_symmetry_space_group_name_H-M	'P1'
_symmetry_Int_Tables_number	1
_symmetry_cell_setting	triclinic
loop_
_symmetry_equiv_pos_as_xyz
  x,y,z
_cell_length_a	13.7327
_cell_length_b	16.4189
_cell_length_c	16.5975
_cell_angle_alpha	90
_cell_angle_beta	90
_cell_angle_gamma	90
loop_
_atom_site_label
_atom_site_type_symbol
_atom_site_fract_x
_atom_site_fract_y
_atom_site_fract_z
_atom_site_charge
Mof_Cu	Cu	0.62366	0.56111	0.67796	0.895
Mof_Cu	Cu	0.87634	0.43889	0.17796	0.895
Mof_Cu	Cu	0.37634	0.06111	0.82204	0.894
Mof_Cu	Cu	0.12366	0.93889	0.32204	0.894
Mof_H 	H 	0.4444	0.5807	0.581	0.02
Mof_H 	H 	0.3453	0.4999	0.4974	0.08
Mof_H 	H 	0.5088	0.3025	0.5466	0.085
Mof_H 	H 	0.6019	0.3809	0.6316	0.011
Mof_H 	H 	0.018	0.5085	0.2845	0.017
Mof_H 	H 	0.1459	0.4725	0.3668	0.091
Mof_H 	H 	0.1316	0.2457	0.2764	0.097
Mof_H 	H 	0.9908	0.284	0.2073	0.011
Mof_H 	H 	0.7491	0.5363	0.5311	0.018
Mof_H 	H 	0.8904	0.4623	0.4953	0.097
Mof_H 	H 	0.9051	0.3761	0.7212	0.092
Mof_H 	H 	0.7619	0.4539	0.7522	0.018
Mof_H 	H 	0.362	0.115	0.6403	0.017
Mof_H 	H 	0.2672	0.1992	0.5664	0.084
Mof_H 	H 	0.0967	0.2411	0.7585	0.084
Mof_H 	H 	0.1939	0.1577	0.8327	0.015
Mof_H 	H 	0.641	0.7045	0.6004	0.289
Mof_H 	H 	0.6078	0.6484	0.5353	0.314
Mof_H 	H 	0.0556	0.4193	0.081	0.021
Mof_H 	H 	0.1547	0.5001	0.9974	0.078
Mof_H 	H 	0.9912	0.6975	0.0466	0.083
Mof_H 	H 	0.8981	0.6191	0.1316	0.012
Mof_H 	H 	0.482	0.4915	0.7845	0.018
Mof_H 	H 	0.3541	0.5275	0.8668	0.09
Mof_H 	H 	0.3684	0.7543	0.7764	0.096
Mof_H 	H 	0.5092	0.716	0.7073	0.013
Mof_H 	H 	0.7509	0.4637	0.0311	0.018
Mof_H 	H 	0.6096	0.5377	0.9953	0.096
Mof_H 	H 	0.5949	0.6239	0.2212	0.092
Mof_H 	H 	0.7381	0.5461	0.2522	0.018
Mof_H 	H 	0.138	0.885	0.1403	0.017
Mof_H 	H 	0.2328	0.8008	0.0664	0.084
Mof_H 	H 	0.4033	0.7589	0.2585	0.084
Mof_H 	H 	0.3061	0.8423	0.3327	0.015
Mof_H 	H 	0.859	0.2955	0.1004	0.289
Mof_H 	H 	0.8922	0.3516	0.0353	0.314
Mof_H 	H 	0.5556	0.0807	0.919	0.023
Mof_H 	H 	0.6547	0.9999	0.0026	0.075
Mof_H 	H 	0.4912	0.8025	0.9534	0.084
Mof_H 	H 	0.3981	0.8809	0.8684	0.012
Mof_H 	H 	0.982	0.0085	0.2155	0.018
Mof_H 	H 	0.8541	0.9725	0.1332	0.09
Mof_H 	H 	0.8684	0.7457	0.2236	0.097
Mof_H 	H 	0.0092	0.784	0.2927	0.012
Mof_H 	H 	0.2509	0.0363	0.9689	0.019
Mof_H 	H 	0.1096	0.9623	0.0047	0.093
Mof_H 	H 	0.0949	0.8761	0.7788	0.091
Mof_H 	H 	0.2381	0.9539	0.7478	0.018
Mof_H 	H 	0.638	0.615	0.8597	0.017
Mof_H 	H 	0.7328	0.6992	0.9336	0.085
Mof_H 	H 	0.9033	0.7411	0.7415	0.085
Mof_H 	H 	0.8061	0.6577	0.6673	0.015
Mof_H 	H 	0.359	0.2045	0.8996	0.288
Mof_H 	H 	0.3922	0.1484	0.9647	0.313
Mof_H 	H 	0.9444	0.9193	0.419	0.02
Mof_H 	H 	0.8453	0.0001	0.5026	0.081
Mof_H 	H 	0.0088	0.1975	0.4534	0.086
Mof_H 	H 	0.1019	0.1191	0.3684	0.01
Mof_H 	H 	0.518	0.9915	0.7155	0.019
Mof_H 	H 	0.6459	0.0275	0.6332	0.09
Mof_H 	H 	0.6316	0.2543	0.7236	0.096
Mof_H 	H 	0.4908	0.216	0.7927	0.013
Mof_H 	H 	0.2491	0.9637	0.4689	0.019
Mof_H 	H 	0.3904	0.0377	0.5047	0.096
Mof_H 	H 	0.4051	0.1239	0.2788	0.092
Mof_H 	H 	0.2619	0.0461	0.2478	0.019
Mof_H 	H 	0.862	0.385	0.3597	0.017
Mof_H 	H 	0.7672	0.3008	0.4336	0.084
Mof_H 	H 	0.5967	0.2589	0.2415	0.085
Mof_H 	H 	0.6939	0.3423	0.1673	0.016
Mof_H 	H 	0.141	0.7955	0.3996	0.289
Mof_H 	H 	0.1078	0.8516	0.4647	0.313
Mof_C 	C 	0.4579	0.5245	0.5734	0.033
Mof_C 	C 	0.3984	0.4756	0.5251	-0.079
Mof_C 	C 	0.4145	0.3929	0.5166	0.024
Mof_C 	C 	0.4939	0.3585	0.5541	-0.101
Mof_C 	C 	0.5509	0.4062	0.6022	0.068
Mof_C 	C 	0.3497	0.3488	0.4647	0.164
Mof_C 	C 	0.2373	0.3297	0.3805	0.176
Mof_C 	C 	0.04	0.4536	0.2846	0.064
Mof_C 	C 	0.1167	0.4325	0.3332	-0.096
Mof_C 	C 	0.1512	0.3557	0.3338	0.04
Mof_C 	C 	0.1066	0.2994	0.2816	-0.11
Mof_C 	C 	0.0255	0.3235	0.2378	0.086
Mof_C 	C 	0.7808	0.5033	0.5701	0.08
Mof_C 	C 	0.8649	0.46	0.5485	-0.113
Mof_C 	C 	0.9079	0.4153	0.606	0.051
Mof_C 	C 	0.874	0.409	0.6817	-0.098
Mof_C 	C 	0.7881	0.4551	0.6993	0.064
Mof_C 	C 	0.9969	0.3663	0.5856	0.166
Mof_C 	C 	0.1131	0.2814	0.608	0.149
Mof_C 	C 	0.3086	0.1416	0.6654	0.06
Mof_C 	C 	0.2519	0.1907	0.6216	-0.102
Mof_C 	C 	0.1714	0.2296	0.6541	0.03
Mof_C 	C 	0.1515	0.2159	0.734	-0.095
Mof_C 	C 	0.2098	0.1666	0.7777	0.052
Mof_C 	C 	0.0421	0.4755	0.0734	0.032
Mof_C 	C 	0.1016	0.5244	0.0251	-0.075
Mof_C 	C 	0.0855	0.6071	0.0166	0.022
Mof_C 	C 	0.0061	0.6415	0.0541	-0.098
Mof_C 	C 	0.9491	0.5938	0.1022	0.066
Mof_C 	C 	0.1503	0.6512	0.9647	0.163
Mof_C 	C 	0.2627	0.6703	0.8805	0.177
Mof_C 	C 	0.46	0.5464	0.7846	0.062
Mof_C 	C 	0.3833	0.5675	0.8332	-0.095
Mof_C 	C 	0.3488	0.6443	0.8338	0.039
Mof_C 	C 	0.3934	0.7006	0.7816	-0.108
Mof_C 	C 	0.4745	0.6765	0.7378	0.083
Mof_C 	C 	0.7192	0.4967	0.0701	0.08
Mof_C 	C 	0.6351	0.54	0.0485	-0.112
Mof_C 	C 	0.5921	0.5847	0.106	0.051
Mof_C 	C 	0.626	0.591	0.1817	-0.098
Mof_C 	C 	0.7119	0.5449	0.1993	0.064
Mof_C 	C 	0.5031	0.6337	0.0856	0.165
Mof_C 	C 	0.3869	0.7186	0.108	0.149
Mof_C 	C 	0.1914	0.8584	0.1654	0.06
Mof_C 	C 	0.2481	0.8093	0.1216	-0.102
Mof_C 	C 	0.3286	0.7704	0.1541	0.03
Mof_C 	C 	0.3485	0.7841	0.234	-0.095
Mof_C 	C 	0.2902	0.8334	0.2777	0.052
Mof_C 	C 	0.5421	0.0245	0.9266	0.024
Mof_C 	C 	0.6016	0.9756	0.9749	-0.067
Mof_C 	C 	0.5855	0.8929	0.9834	0.021
Mof_C 	C 	0.5061	0.8585	0.9459	-0.099
Mof_C 	C 	0.4491	0.9062	0.8978	0.066
Mof_C 	C 	0.6503	0.8488	0.0353	0.163
Mof_C 	C 	0.7627	0.8297	0.1195	0.176
Mof_C 	C 	0.96	0.9536	0.2154	0.062
Mof_C 	C 	0.8833	0.9325	0.1668	-0.095
Mof_C 	C 	0.8488	0.8557	0.1662	0.039
Mof_C 	C 	0.8934	0.7994	0.2184	-0.109
Mof_C 	C 	0.9745	0.8235	0.2622	0.085
Mof_C 	C 	0.2192	0.0033	0.9299	0.075
Mof_C 	C 	0.1351	0.96	0.9515	-0.107
Mof_C 	C 	0.0921	0.9153	0.894	0.049
Mof_C 	C 	0.126	0.909	0.8183	-0.097
Mof_C 	C 	0.2119	0.9551	0.8007	0.063
Mof_C 	C 	0.0031	0.8663	0.9144	0.162
Mof_C 	C 	0.8869	0.7814	0.892	0.149
Mof_C 	C 	0.6914	0.6416	0.8346	0.061
Mof_C 	C 	0.7481	0.6907	0.8784	-0.102
Mof_C 	C 	0.8286	0.7296	0.8459	0.031
Mof_C 	C 	0.8485	0.7159	0.766	-0.095
Mof_C 	C 	0.7902	0.6666	0.7223	0.052
Mof_C 	C 	0.9579	0.9755	0.4266	0.034
Mof_C 	C 	0.8984	0.0244	0.4749	-0.081
Mof_C 	C 	0.9145	0.1071	0.4834	0.025
Mof_C 	C 	0.9939	0.1415	0.4459	-0.105
Mof_C 	C 	0.0509	0.0938	0.3978	0.071
Mof_C 	C 	0.8497	0.1512	0.5353	0.163
Mof_C 	C 	0.7373	0.1703	0.6195	0.177
Mof_C 	C 	0.54	0.0464	0.7154	0.06
Mof_C 	C 	0.6167	0.0675	0.6668	-0.094
Mof_C 	C 	0.6512	0.1443	0.6662	0.038
Mof_C 	C 	0.6066	0.2006	0.7184	-0.108
Mof_C 	C 	0.5255	0.1765	0.7622	0.082
Mof_C 	C 	0.2808	0.9967	0.4299	0.075
Mof_C 	C 	0.3649	0.04	0.4515	-0.109
Mof_C 	C 	0.4079	0.0847	0.394	0.049
Mof_C 	C 	0.374	0.091	0.3183	-0.097
Mof_C 	C 	0.2881	0.0449	0.3007	0.063
Mof_C 	C 	0.4969	0.1337	0.4144	0.166
Mof_C 	C 	0.6131	0.2186	0.392	0.149
Mof_C 	C 	0.8086	0.3584	0.3346	0.06
Mof_C 	C 	0.7519	0.3093	0.3784	-0.102
Mof_C 	C 	0.6714	0.2704	0.3459	0.031
Mof_C 	C 	0.6515	0.2841	0.266	-0.095
Mof_C 	C 	0.7098	0.3334	0.2223	0.052
Mof_N 	N 	0.5387	0.487	0.6103	-0.21
Mof_N 	N 	0.3504	0.2741	0.4427	-0.1
Mof_N 	N 	0.2737	0.2598	0.3885	-0.104
Mof_N 	N 	0.9956	0.3995	0.2375	-0.223
Mof_N 	N 	0.7447	0.499	0.6438	-0.22
Mof_N 	N 	0.0425	0.3592	0.5197	-0.101
Mof_N 	N 	0.119	0.3073	0.533	-0.091
Mof_N 	N 	0.2912	0.1285	0.7469	-0.21
Mof_N 	N 	0.9613	0.513	0.1103	-0.209
Mof_N 	N 	0.1496	0.7259	0.9427	-0.1
Mof_N 	N 	0.2263	0.7402	0.8885	-0.104
Mof_N 	N 	0.5044	0.6005	0.7375	-0.222
Mof_N 	N 	0.7553	0.501	0.1438	-0.22
Mof_N 	N 	0.4575	0.6408	0.0197	-0.1
Mof_N 	N 	0.381	0.6927	0.033	-0.091
Mof_N 	N 	0.2088	0.8715	0.2469	-0.21
Mof_N 	N 	0.4613	0.987	0.8897	-0.207
Mof_N 	N 	0.6496	0.7741	0.0573	-0.1
Mof_N 	N 	0.7263	0.7598	0.1115	-0.104
Mof_N 	N 	0.0044	0.8995	0.2625	-0.223
Mof_N 	N 	0.2553	0.999	0.8562	-0.218
Mof_N 	N 	0.9575	0.8592	0.9803	-0.098
Mof_N 	N 	0.881	0.8073	0.967	-0.091
Mof_N 	N 	0.7088	0.6285	0.7531	-0.21
Mof_N 	N 	0.0387	0.013	0.3897	-0.209
Mof_N 	N 	0.8504	0.2259	0.5573	-0.1
Mof_N 	N 	0.7737	0.2402	0.6115	-0.104
Mof_N 	N 	0.4956	0.1005	0.7625	-0.222
Mof_N 	N 	0.2447	0.001	0.3562	-0.218
Mof_N 	N 	0.5425	0.1408	0.4803	-0.1
Mof_N 	N 	0.619	0.1927	0.467	-0.091
Mof_N 	N 	0.7912	0.3715	0.2531	-0.21
Mof_O 	O 	0.2764	0.389	0.4257	-0.238
Mof_O 	O 	0.0346	0.3194	0.6451	-0.23
Mof_O 	O 	0.6269	0.6539	0.5845	-0.696
Mof_O 	O 	0.2236	0.611	0.9257	-0.238
Mof_O 	O 	0.4654	0.6806	0.1451	-0.23
Mof_O 	O 	0.8731	0.3461	0.0845	-0.696
Mof_O 	O 	0.7236	0.889	0.0743	-0.239
Mof_O 	O 	0.9654	0.8194	0.8549	-0.227
Mof_O 	O 	0.3731	0.1539	0.9155	-0.696
Mof_O 	O 	0.7764	0.111	0.5743	-0.238
Mof_O 	O 	0.5346	0.1806	0.3549	-0.23
Mof_O 	O 	0.1269	0.8461	0.4155	-0.696
Mof_Cl	Cl	0.6221	0.3758	0.8717	-0.213
Mof_O 	O 	0.555	0.3619	0.8079	-0.061
Mof_O 	O 	0.6488	0.4609	0.8709	-0.07
Mof_O 	O 	0.7067	0.3263	0.8606	-0.043
Mof_O 	O 	0.5744	0.3602	0.9472	-0.039
Mof_Cl	Cl	0.8779	0.6242	0.3717	-0.213
Mof_O 	O 	0.945	0.6381	0.3079	-0.061
Mof_O 	O 	0.8512	0.5391	0.3709	-0.07
Mof_O 	O 	0.7933	0.6737	0.3606	-0.043
Mof_O 	O 	0.9256	0.6398	0.4472	-0.039
Mof_Cl	Cl	0.3779	0.8758	0.6283	-0.213
Mof_O 	O 	0.445	0.8619	0.6921	-0.061
Mof_O 	O 	0.3512	0.9609	0.6291	-0.07
Mof_O 	O 	0.2933	0.8263	0.6394	-0.043
Mof_O 	O 	0.4256	0.8602	0.5528	-0.039
Mof_Cl	Cl	0.1221	0.1242	0.1283	-0.213
Mof_O 	O 	0.055	0.1381	0.1921	-0.06
Mof_O 	O 	0.1488	0.0391	0.1291	-0.068
Mof_O 	O 	0.2067	0.1737	0.1394	-0.042
Mof_O 	O 	0.0744	0.1398	0.0528	-0.037
_end
