data_functionalizedCrystal
_audit_creation_method	'EQeq! by Chris Wilmer'
_symmetry_space_group_name_H-M	'P1'
_symmetry_Int_Tables_number	1
_symmetry_cell_setting	triclinic
loop_
_symmetry_equiv_pos_as_xyz
  x,y,z
_cell_length_a	14.561
_cell_length_b	18.078
_cell_length_c	12.845
_cell_angle_alpha	90
_cell_angle_beta	116.602
_cell_angle_gamma	90
loop_
_atom_site_label
_atom_site_type_symbol
_atom_site_fract_x
_atom_site_fract_y
_atom_site_fract_z
_atom_site_charge
Mof_Cd	Cd	0.19277	0.47865	0.05232	0.414
Mof_N 	N 	0.1099	0.36604	0.03	-0.117
Mof_N 	N 	0.0822	0.35572	0.1159	-0.05
Mof_N 	N 	0.0602	0.28548	0.1169	-0.073
Mof_N 	N 	0.0719	0.24861	0.0326	-0.09
Mof_C 	C 	0.1026	0.29947	0.9805	0.109
Mof_C 	C 	0.1252	0.28556	0.8811	-0.022
Mof_C 	C 	0.1327	0.3436	0.8154	-0.02
Mof_H 	H 	0.1209	0.3917	0.8322	0.045
Mof_C 	C 	0.1577	0.33055	0.724	-0.061
Mof_C 	C 	0.1716	0.25858	0.6966	0.003
Mof_H 	H 	0.1876	0.2497	0.6353	0.059
Mof_C 	C 	0.1615	0.19962	0.7602	-0.057
Mof_C 	C 	0.1389	0.21324	0.8526	-0.021
Mof_H 	H 	0.1329	0.1739	0.8958	0.057
Mof_C 	C 	0.1681	0.39508	0.6566	0.29
Mof_C 	C 	0.1789	0.12139	0.7318	0.299
Mof_O 	O 	0.13597	0.45747	0.6674	-0.268
Mof_O 	O 	0.21194	0.38581	0.59195	-0.253
Mof_O 	O 	0.2014	0.11211	0.6498	-0.228
Mof_O 	O 	0.17023	0.06998	0.794	-0.264
Mof_Cd	Cd	0.69277	0.97865	0.05232	0.421
Mof_N 	N 	0.6099	0.86604	0.03	-0.115
Mof_N 	N 	0.5822	0.85572	0.1159	-0.046
Mof_N 	N 	0.5602	0.78548	0.1169	-0.07
Mof_N 	N 	0.5719	0.74861	0.0326	-0.088
Mof_C 	C 	0.6026	0.79947	0.9805	0.117
Mof_C 	C 	0.6252	0.78556	0.8811	-0.017
Mof_C 	C 	0.6327	0.8436	0.8154	-0.019
Mof_H 	H 	0.6209	0.8917	0.8322	0.05
Mof_C 	C 	0.6577	0.83055	0.724	-0.053
Mof_C 	C 	0.6716	0.75858	0.6966	0.003
Mof_H 	H 	0.6876	0.7497	0.6353	0.063
Mof_C 	C 	0.6615	0.69962	0.7602	-0.051
Mof_C 	C 	0.6389	0.71324	0.8526	-0.021
Mof_H 	H 	0.6329	0.6739	0.8958	0.061
Mof_C 	C 	0.6681	0.89508	0.6566	0.291
Mof_C 	C 	0.6789	0.62139	0.7318	0.299
Mof_O 	O 	0.63597	0.95747	0.6674	-0.261
Mof_O 	O 	0.71194	0.88581	0.59195	-0.246
Mof_O 	O 	0.7014	0.61211	0.6498	-0.221
Mof_O 	O 	0.67023	0.56998	0.794	-0.259
Mof_Cd	Cd	0.80723	0.47865	0.44768	0.424
Mof_N 	N 	0.8901	0.36604	0.47	-0.114
Mof_N 	N 	0.9178	0.35572	0.3841	-0.04
Mof_N 	N 	0.9398	0.28548	0.3831	-0.061
Mof_N 	N 	0.9281	0.24861	0.4674	-0.084
Mof_C 	C 	0.8974	0.29947	0.5195	0.124
Mof_C 	C 	0.8748	0.28556	0.6189	-0.013
Mof_C 	C 	0.8673	0.3436	0.6846	-0.018
Mof_H 	H 	0.8791	0.3917	0.6678	0.054
Mof_C 	C 	0.8423	0.33055	0.776	-0.049
Mof_C 	C 	0.8284	0.25858	0.8034	0.004
Mof_H 	H 	0.8124	0.2497	0.8647	0.064
Mof_C 	C 	0.8385	0.19962	0.7398	-0.046
Mof_C 	C 	0.8611	0.21324	0.6474	-0.02
Mof_H 	H 	0.8671	0.1739	0.6042	0.065
Mof_C 	C 	0.8319	0.39508	0.8434	0.291
Mof_C 	C 	0.8211	0.12139	0.7682	0.3
Mof_O 	O 	0.86403	0.45747	0.8326	-0.255
Mof_O 	O 	0.78806	0.38581	0.90805	-0.247
Mof_O 	O 	0.7986	0.11211	0.8502	-0.22
Mof_O 	O 	0.82977	0.06998	0.706	-0.253
Mof_Cd	Cd	0.30723	0.97865	0.44768	0.417
Mof_N 	N 	0.3901	0.86604	0.47	-0.116
Mof_N 	N 	0.4178	0.85572	0.3841	-0.046
Mof_N 	N 	0.4398	0.78548	0.3831	-0.07
Mof_N 	N 	0.4281	0.74861	0.4674	-0.089
Mof_C 	C 	0.3974	0.79947	0.5195	0.121
Mof_C 	C 	0.3748	0.78556	0.6189	-0.019
Mof_C 	C 	0.3673	0.8436	0.6846	-0.018
Mof_H 	H 	0.3791	0.8917	0.6678	0.049
Mof_C 	C 	0.3423	0.83055	0.776	-0.057
Mof_C 	C 	0.3284	0.75858	0.8034	0.005
Mof_H 	H 	0.3124	0.7497	0.8647	0.06
Mof_C 	C 	0.3385	0.69962	0.7398	-0.053
Mof_C 	C 	0.3611	0.71324	0.6474	-0.019
Mof_H 	H 	0.3671	0.6739	0.6042	0.061
Mof_C 	C 	0.3319	0.89508	0.8434	0.291
Mof_C 	C 	0.3211	0.62139	0.7682	0.3
Mof_O 	O 	0.36403	0.95747	0.8326	-0.261
Mof_O 	O 	0.28806	0.88581	0.90805	-0.252
Mof_O 	O 	0.2986	0.61211	0.8502	-0.226
Mof_O 	O 	0.32977	0.56998	0.706	-0.258
Mof_Cd	Cd	0.80723	0.52135	0.94768	0.423
Mof_N 	N 	0.8901	0.63396	0.97	-0.115
Mof_N 	N 	0.9178	0.64428	0.8841	-0.041
Mof_N 	N 	0.9398	0.71452	0.8831	-0.061
Mof_N 	N 	0.9281	0.75139	0.9674	-0.085
Mof_C 	C 	0.8974	0.70053	0.0195	0.127
Mof_C 	C 	0.8748	0.71444	0.1189	-0.013
Mof_C 	C 	0.8673	0.6564	0.1846	-0.018
Mof_H 	H 	0.8791	0.6083	0.1678	0.054
Mof_C 	C 	0.8423	0.66945	0.276	-0.049
Mof_C 	C 	0.8284	0.74142	0.3034	0.004
Mof_H 	H 	0.8124	0.7503	0.3647	0.065
Mof_C 	C 	0.8385	0.80038	0.2398	-0.046
Mof_C 	C 	0.8611	0.78676	0.1474	-0.019
Mof_H 	H 	0.8671	0.8261	0.1042	0.065
Mof_C 	C 	0.8319	0.60492	0.3434	0.291
Mof_C 	C 	0.8211	0.87861	0.2682	0.3
Mof_O 	O 	0.86403	0.54253	0.3326	-0.254
Mof_O 	O 	0.78806	0.61419	0.40805	-0.246
Mof_O 	O 	0.7986	0.88789	0.3502	-0.218
Mof_O 	O 	0.82977	0.93002	0.206	-0.252
Mof_Cd	Cd	0.30723	0.02135	0.94768	0.414
Mof_N 	N 	0.3901	0.13396	0.97	-0.12
Mof_N 	N 	0.4178	0.14428	0.8841	-0.047
Mof_N 	N 	0.4398	0.21452	0.8831	-0.071
Mof_N 	N 	0.4281	0.25139	0.9674	-0.093
Mof_C 	C 	0.3974	0.20053	0.0195	0.128
Mof_C 	C 	0.3748	0.21444	0.1189	-0.02
Mof_C 	C 	0.3673	0.1564	0.1846	-0.017
Mof_H 	H 	0.3791	0.1083	0.1678	0.049
Mof_C 	C 	0.3423	0.16945	0.276	-0.057
Mof_C 	C 	0.3284	0.24142	0.3034	0.005
Mof_H 	H 	0.3124	0.2503	0.3647	0.06
Mof_C 	C 	0.3385	0.30038	0.2398	-0.053
Mof_C 	C 	0.3611	0.28676	0.1474	-0.018
Mof_H 	H 	0.3671	0.3261	0.1042	0.061
Mof_C 	C 	0.3319	0.10492	0.3434	0.291
Mof_C 	C 	0.3211	0.37861	0.2682	0.3
Mof_O 	O 	0.36403	0.04253	0.3326	-0.261
Mof_O 	O 	0.28806	0.11419	0.40805	-0.252
Mof_O 	O 	0.2986	0.38789	0.3502	-0.225
Mof_O 	O 	0.32977	0.43002	0.206	-0.258
Mof_Cd	Cd	0.19277	0.52135	0.55232	0.413
Mof_N 	N 	0.1099	0.63396	0.53	-0.119
Mof_N 	N 	0.0822	0.64428	0.6159	-0.051
Mof_N 	N 	0.0602	0.71452	0.6169	-0.074
Mof_N 	N 	0.0719	0.75139	0.5326	-0.094
Mof_C 	C 	0.1026	0.70053	0.4805	0.117
Mof_C 	C 	0.1252	0.71444	0.3811	-0.024
Mof_C 	C 	0.1327	0.6564	0.3154	-0.019
Mof_H 	H 	0.1209	0.6083	0.3322	0.045
Mof_C 	C 	0.1577	0.66945	0.224	-0.061
Mof_C 	C 	0.1716	0.74142	0.1966	0.004
Mof_H 	H 	0.1876	0.7503	0.1353	0.059
Mof_C 	C 	0.1615	0.80038	0.2602	-0.057
Mof_C 	C 	0.1389	0.78676	0.3526	-0.02
Mof_H 	H 	0.1329	0.8261	0.3958	0.057
Mof_C 	C 	0.1681	0.60492	0.1566	0.29
Mof_C 	C 	0.1789	0.87861	0.2318	0.299
Mof_O 	O 	0.13597	0.54253	0.1674	-0.267
Mof_O 	O 	0.21194	0.61419	0.09195	-0.252
Mof_O 	O 	0.2014	0.88789	0.1498	-0.227
Mof_O 	O 	0.17023	0.93002	0.294	-0.263
Mof_Cd	Cd	0.69277	0.02135	0.55232	0.421
Mof_N 	N 	0.6099	0.13396	0.53	-0.117
Mof_N 	N 	0.5822	0.14428	0.6159	-0.047
Mof_N 	N 	0.5602	0.21452	0.6169	-0.071
Mof_N 	N 	0.5719	0.25139	0.5326	-0.09
Mof_C 	C 	0.6026	0.20053	0.4805	0.12
Mof_C 	C 	0.6252	0.21444	0.3811	-0.018
Mof_C 	C 	0.6327	0.1564	0.3154	-0.019
Mof_H 	H 	0.6209	0.1083	0.3322	0.05
Mof_C 	C 	0.6577	0.16945	0.224	-0.053
Mof_C 	C 	0.6716	0.24142	0.1966	0.003
Mof_H 	H 	0.6876	0.2503	0.1353	0.064
Mof_C 	C 	0.6615	0.30038	0.2602	-0.051
Mof_C 	C 	0.6389	0.28676	0.3526	-0.02
Mof_H 	H 	0.6329	0.3261	0.3958	0.061
Mof_C 	C 	0.6681	0.10492	0.1566	0.291
Mof_C 	C 	0.6789	0.37861	0.2318	0.299
Mof_O 	O 	0.63597	0.04253	0.1674	-0.259
Mof_O 	O 	0.71194	0.11419	0.09195	-0.245
Mof_O 	O 	0.7014	0.38789	0.1498	-0.22
Mof_O 	O 	0.67023	0.43002	0.294	-0.258
Mof_Cd	Cd	1.19715e-33	0.25333	0.25	0.328
Mof_Cd	Cd	0.5	0.75333	0.25	0.353
Mof_Cd	Cd	-3.76036e-17	0.74667	0.75	0.326
Mof_Cd	Cd	0.5	0.24667	0.75	0.352
_end
