data_functionalizedCrystal
_audit_creation_method	'EQeq! by Chris Wilmer'
_symmetry_space_group_name_H-M	'P1'
_symmetry_Int_Tables_number	1
_symmetry_cell_setting	triclinic
loop_
_symmetry_equiv_pos_as_xyz
  x,y,z
_cell_length_a	63.897
_cell_length_b	63.897
_cell_length_c	63.897
_cell_angle_alpha	90
_cell_angle_beta	90
_cell_angle_gamma	90
loop_
_atom_site_label
_atom_site_type_symbol
_atom_site_fract_x
_atom_site_fract_y
_atom_site_fract_z
_atom_site_charge
Mof_C 	C 	0.41105	0.21878	0.10084	0.042
Mof_H 	H 	0.3983	0.2154	0.094	0.012
Mof_C 	C 	0.42845	0.20684	0.09633	-0.05
Mof_C 	C 	0.44733	0.21194	0.106	0.01
Mof_H 	H 	0.4596	0.204	0.1034	0.038
Mof_C 	C 	0.4476	0.22884	0.11944	-0.098
Mof_H 	H 	0.4602	0.2329	0.1261	0.067
Mof_C 	C 	0.42924	0.23985	0.1231	0.06
Mof_H 	H 	0.4296	0.2515	0.1323	0.001
Mof_C 	C 	0.34302	0.14828	0.96879	0.097
Mof_C 	C 	0.35863	0.16482	0.01534	0.057
Mof_H 	H 	0.3477	0.1636	0.0053	0
Mof_C 	C 	0.35944	0.18264	0.02795	-0.097
Mof_H 	H 	0.3489	0.193	0.0269	0.066
Mof_C 	C 	0.37551	0.18501	0.04177	0.01
Mof_H 	H 	0.3765	0.1972	0.0502	0.038
Mof_C 	C 	0.39057	0.16906	0.04333	-0.049
Mof_C 	C 	0.38826	0.15169	0.03065	0.04
Mof_H 	H 	0.3983	0.1408	0.0318	0.015
Mof_C 	C 	0.40791	0.17038	0.05847	0.135
Mof_C 	C 	0.42619	0.18823	0.0827	0.139
Mof_C 	C 	0.43553	0.1557	0.07422	0.141
Mof_C 	C 	0.46242	0.13725	0.09565	0.045
Mof_H 	H 	0.4628	0.1493	0.1044	0.01
Mof_C 	C 	0.44878	0.13729	0.07836	-0.052
Mof_C 	C 	0.4479	0.11928	0.06601	0.009
Mof_H 	H 	0.4388	0.1185	0.0543	0.039
Mof_C 	C 	0.46063	0.10256	0.07141	-0.096
Mof_H 	H 	0.4603	0.09	0.0634	0.066
Mof_C 	C 	0.47377	0.10415	0.08842	0.058
Mof_H 	H 	0.4825	0.0926	0.0918	0.003
Mof_C 	C 	0.50126	0.07496	0.13009	0.105
Mof_C 	C 	0.5176	0.11136	0.16707	0.061
Mof_H 	H 	0.5073	0.1007	0.1659	0.001
Mof_C 	C 	0.52925	0.11214	0.18473	-0.099
Mof_H 	H 	0.5266	0.1027	0.1959	0.069
Mof_C 	C 	0.54519	0.12702	0.18645	0.009
Mof_H 	H 	0.5537	0.1278	0.1986	0.039
Mof_C 	C 	0.54822	0.14067	0.16989	-0.051
Mof_C 	C 	0.53496	0.13923	0.15259	0.044
Mof_H 	H 	0.5367	0.1489	0.1414	0.011
Mof_C 	C 	0.56433	0.15696	0.17061	0.135
Mof_N 	N 	0.41093	0.23473	0.11413	-0.225
Mof_N 	N 	0.35431	0.13623	0.97646	-0.257
Mof_N 	N 	0.37273	0.14933	0.01681	-0.225
Mof_N 	N 	0.4203	0.15364	0.06052	-0.152
Mof_N 	N 	0.4099	0.18807	0.06961	-0.15
Mof_N 	N 	0.4397	0.17285	0.08523	-0.154
Mof_N 	N 	0.47466	0.12139	0.1004	-0.229
Mof_N 	N 	0.49874	0.0925	0.12722	-0.261
Mof_N 	N 	0.52001	0.12494	0.15114	-0.226
Mof_N 	N 	0.56397	0.17137	0.1556	-0.15
Mof_S 	S 	0.32689	0.16525	0.95888	-0.06
Mof_S 	S 	0.50491	0.05016	0.1343	-0.061
Mof_C 	C 	0.41105	0.71878	0.60084	0.042
Mof_H 	H 	0.3983	0.7154	0.594	0.012
Mof_C 	C 	0.42845	0.70684	0.59633	-0.05
Mof_C 	C 	0.44733	0.71194	0.606	0.01
Mof_H 	H 	0.4596	0.704	0.6034	0.038
Mof_C 	C 	0.4476	0.72884	0.61944	-0.098
Mof_H 	H 	0.4602	0.7329	0.6261	0.067
Mof_C 	C 	0.42924	0.73985	0.6231	0.06
Mof_H 	H 	0.4296	0.7515	0.6323	0.001
Mof_C 	C 	0.34302	0.64828	0.46879	0.097
Mof_C 	C 	0.35863	0.66482	0.51534	0.057
Mof_H 	H 	0.3477	0.6636	0.5053	0
Mof_C 	C 	0.35944	0.68264	0.52795	-0.097
Mof_H 	H 	0.3489	0.693	0.5269	0.066
Mof_C 	C 	0.37551	0.68501	0.54177	0.01
Mof_H 	H 	0.3765	0.6972	0.5502	0.038
Mof_C 	C 	0.39057	0.66906	0.54333	-0.049
Mof_C 	C 	0.38826	0.65169	0.53065	0.04
Mof_H 	H 	0.3983	0.6408	0.5318	0.015
Mof_C 	C 	0.40791	0.67038	0.55847	0.135
Mof_C 	C 	0.42619	0.68823	0.5827	0.139
Mof_C 	C 	0.43553	0.6557	0.57422	0.141
Mof_C 	C 	0.46242	0.63725	0.59565	0.045
Mof_H 	H 	0.4628	0.6493	0.6044	0.01
Mof_C 	C 	0.44878	0.63729	0.57836	-0.052
Mof_C 	C 	0.4479	0.61928	0.56601	0.009
Mof_H 	H 	0.4388	0.6185	0.5543	0.039
Mof_C 	C 	0.46063	0.60256	0.57141	-0.096
Mof_H 	H 	0.4603	0.59	0.5634	0.066
Mof_C 	C 	0.47377	0.60415	0.58842	0.058
Mof_H 	H 	0.4825	0.5926	0.5918	0.003
Mof_C 	C 	0.50126	0.57496	0.63009	0.105
Mof_C 	C 	0.5176	0.61136	0.66707	0.061
Mof_H 	H 	0.5073	0.6007	0.6659	0.001
Mof_C 	C 	0.52925	0.61214	0.68473	-0.099
Mof_H 	H 	0.5266	0.6027	0.6959	0.069
Mof_C 	C 	0.54519	0.62702	0.68645	0.009
Mof_H 	H 	0.5537	0.6278	0.6986	0.039
Mof_C 	C 	0.54822	0.64067	0.66989	-0.051
Mof_C 	C 	0.53496	0.63923	0.65259	0.044
Mof_H 	H 	0.5367	0.6489	0.6414	0.011
Mof_C 	C 	0.56433	0.65696	0.67061	0.135
Mof_N 	N 	0.41093	0.73473	0.61413	-0.225
Mof_N 	N 	0.35431	0.63623	0.47646	-0.257
Mof_N 	N 	0.37273	0.64933	0.51681	-0.225
Mof_N 	N 	0.4203	0.65364	0.56052	-0.152
Mof_N 	N 	0.4099	0.68807	0.56961	-0.15
Mof_N 	N 	0.4397	0.67285	0.58523	-0.154
Mof_N 	N 	0.47466	0.62139	0.6004	-0.229
Mof_N 	N 	0.49874	0.5925	0.62722	-0.261
Mof_N 	N 	0.52001	0.62494	0.65114	-0.226
Mof_N 	N 	0.56397	0.67137	0.6556	-0.15
Mof_S 	S 	0.32689	0.66525	0.45888	-0.06
Mof_S 	S 	0.50491	0.55016	0.6343	-0.061
Mof_C 	C 	0.91105	0.21878	0.60084	0.042
Mof_H 	H 	0.8983	0.2154	0.594	0.012
Mof_C 	C 	0.92845	0.20684	0.59633	-0.05
Mof_C 	C 	0.94733	0.21194	0.606	0.01
Mof_H 	H 	0.9596	0.204	0.6034	0.038
Mof_C 	C 	0.9476	0.22884	0.61944	-0.098
Mof_H 	H 	0.9602	0.2329	0.6261	0.067
Mof_C 	C 	0.92924	0.23985	0.6231	0.06
Mof_H 	H 	0.9296	0.2515	0.6323	0.001
Mof_C 	C 	0.84302	0.14828	0.46879	0.097
Mof_C 	C 	0.85863	0.16482	0.51534	0.057
Mof_H 	H 	0.8477	0.1636	0.5053	0
Mof_C 	C 	0.85944	0.18264	0.52795	-0.097
Mof_H 	H 	0.8489	0.193	0.5269	0.066
Mof_C 	C 	0.87551	0.18501	0.54177	0.01
Mof_H 	H 	0.8765	0.1972	0.5502	0.038
Mof_C 	C 	0.89057	0.16906	0.54333	-0.049
Mof_C 	C 	0.88826	0.15169	0.53065	0.04
Mof_H 	H 	0.8983	0.1408	0.5318	0.015
Mof_C 	C 	0.90791	0.17038	0.55847	0.135
Mof_C 	C 	0.92619	0.18823	0.5827	0.139
Mof_C 	C 	0.93553	0.1557	0.57422	0.141
Mof_C 	C 	0.96242	0.13725	0.59565	0.045
Mof_H 	H 	0.9628	0.1493	0.6044	0.01
Mof_C 	C 	0.94878	0.13729	0.57836	-0.052
Mof_C 	C 	0.9479	0.11928	0.56601	0.009
Mof_H 	H 	0.9388	0.1185	0.5543	0.039
Mof_C 	C 	0.96063	0.10256	0.57141	-0.096
Mof_H 	H 	0.9603	0.09	0.5634	0.066
Mof_C 	C 	0.97377	0.10415	0.58842	0.058
Mof_H 	H 	0.9825	0.0926	0.5918	0.003
Mof_C 	C 	0.00126	0.07496	0.63009	0.105
Mof_C 	C 	0.0176	0.11136	0.66707	0.061
Mof_H 	H 	0.0073	0.1007	0.6659	0.001
Mof_C 	C 	0.02925	0.11214	0.68473	-0.099
Mof_H 	H 	0.0266	0.1027	0.6959	0.069
Mof_C 	C 	0.04519	0.12702	0.68645	0.009
Mof_H 	H 	0.0537	0.1278	0.6986	0.039
Mof_C 	C 	0.04822	0.14067	0.66989	-0.051
Mof_C 	C 	0.03496	0.13923	0.65259	0.044
Mof_H 	H 	0.0367	0.1489	0.6414	0.011
Mof_C 	C 	0.06433	0.15696	0.67061	0.135
Mof_N 	N 	0.91093	0.23473	0.61413	-0.225
Mof_N 	N 	0.85431	0.13623	0.47646	-0.257
Mof_N 	N 	0.87273	0.14933	0.51681	-0.225
Mof_N 	N 	0.9203	0.15364	0.56052	-0.152
Mof_N 	N 	0.9099	0.18807	0.56961	-0.15
Mof_N 	N 	0.9397	0.17285	0.58523	-0.154
Mof_N 	N 	0.97466	0.12139	0.6004	-0.229
Mof_N 	N 	0.99874	0.0925	0.62722	-0.261
Mof_N 	N 	0.02001	0.12494	0.65114	-0.226
Mof_N 	N 	0.06397	0.17137	0.6556	-0.15
Mof_S 	S 	0.82689	0.16525	0.45888	-0.06
Mof_S 	S 	0.00491	0.05016	0.6343	-0.061
Mof_C 	C 	0.91105	0.71878	0.10084	0.042
Mof_H 	H 	0.8983	0.7154	0.094	0.012
Mof_C 	C 	0.92845	0.70684	0.09633	-0.05
Mof_C 	C 	0.94733	0.71194	0.106	0.01
Mof_H 	H 	0.9596	0.704	0.1034	0.038
Mof_C 	C 	0.9476	0.72884	0.11944	-0.098
Mof_H 	H 	0.9602	0.7329	0.1261	0.067
Mof_C 	C 	0.92924	0.73985	0.1231	0.06
Mof_H 	H 	0.9296	0.7515	0.1323	0.001
Mof_C 	C 	0.84302	0.64828	0.96879	0.097
Mof_C 	C 	0.85863	0.66482	0.01534	0.057
Mof_H 	H 	0.8477	0.6636	0.0053	0
Mof_C 	C 	0.85944	0.68264	0.02795	-0.097
Mof_H 	H 	0.8489	0.693	0.0269	0.066
Mof_C 	C 	0.87551	0.68501	0.04177	0.01
Mof_H 	H 	0.8765	0.6972	0.0502	0.038
Mof_C 	C 	0.89057	0.66906	0.04333	-0.049
Mof_C 	C 	0.88826	0.65169	0.03065	0.04
Mof_H 	H 	0.8983	0.6408	0.0318	0.015
Mof_C 	C 	0.90791	0.67038	0.05847	0.135
Mof_C 	C 	0.92619	0.68823	0.0827	0.139
Mof_C 	C 	0.93553	0.6557	0.07422	0.141
Mof_C 	C 	0.96242	0.63725	0.09565	0.045
Mof_H 	H 	0.9628	0.6493	0.1044	0.01
Mof_C 	C 	0.94878	0.63729	0.07836	-0.052
Mof_C 	C 	0.9479	0.61928	0.06601	0.009
Mof_H 	H 	0.9388	0.6185	0.0543	0.039
Mof_C 	C 	0.96063	0.60256	0.07141	-0.096
Mof_H 	H 	0.9603	0.59	0.0634	0.066
Mof_C 	C 	0.97377	0.60415	0.08842	0.058
Mof_H 	H 	0.9825	0.5926	0.0918	0.003
Mof_C 	C 	0.00126	0.57496	0.13009	0.105
Mof_C 	C 	0.0176	0.61136	0.16707	0.061
Mof_H 	H 	0.0073	0.6007	0.1659	0.001
Mof_C 	C 	0.02925	0.61214	0.18473	-0.099
Mof_H 	H 	0.0266	0.6027	0.1959	0.069
Mof_C 	C 	0.04519	0.62702	0.18645	0.009
Mof_H 	H 	0.0537	0.6278	0.1986	0.039
Mof_C 	C 	0.04822	0.64067	0.16989	-0.051
Mof_C 	C 	0.03496	0.63923	0.15259	0.044
Mof_H 	H 	0.0367	0.6489	0.1414	0.011
Mof_C 	C 	0.06433	0.65696	0.17061	0.135
Mof_N 	N 	0.91093	0.73473	0.11413	-0.225
Mof_N 	N 	0.85431	0.63623	0.97646	-0.257
Mof_N 	N 	0.87273	0.64933	0.01681	-0.225
Mof_N 	N 	0.9203	0.65364	0.06052	-0.152
Mof_N 	N 	0.9099	0.68807	0.06961	-0.15
Mof_N 	N 	0.9397	0.67285	0.08523	-0.154
Mof_N 	N 	0.97466	0.62139	0.1004	-0.229
Mof_N 	N 	0.99874	0.5925	0.12722	-0.261
Mof_N 	N 	0.02001	0.62494	0.15114	-0.226
Mof_N 	N 	0.06397	0.67137	0.1556	-0.15
Mof_S 	S 	0.82689	0.66525	0.95888	-0.06
Mof_S 	S 	0.00491	0.55016	0.1343	-0.061
Mof_C 	C 	0.83895	0.53122	0.60084	0.042
Mof_H 	H 	0.8517	0.5346	0.594	0.012
Mof_C 	C 	0.82155	0.54316	0.59633	-0.05
Mof_C 	C 	0.80267	0.53806	0.606	0.01
Mof_H 	H 	0.7904	0.546	0.6034	0.038
Mof_C 	C 	0.8024	0.52116	0.61944	-0.098
Mof_H 	H 	0.7898	0.5171	0.6261	0.067
Mof_C 	C 	0.82076	0.51015	0.6231	0.06
Mof_H 	H 	0.8204	0.4985	0.6323	0.001
Mof_C 	C 	0.90698	0.60172	0.46879	0.097
Mof_C 	C 	0.89137	0.58518	0.51534	0.057
Mof_H 	H 	0.9023	0.5864	0.5053	0
Mof_C 	C 	0.89056	0.56736	0.52795	-0.097
Mof_H 	H 	0.9011	0.557	0.5269	0.066
Mof_C 	C 	0.87449	0.56499	0.54177	0.01
Mof_H 	H 	0.8735	0.5528	0.5502	0.038
Mof_C 	C 	0.85943	0.58094	0.54333	-0.049
Mof_C 	C 	0.86174	0.59831	0.53065	0.04
Mof_H 	H 	0.8517	0.6092	0.5318	0.015
Mof_C 	C 	0.84209	0.57962	0.55847	0.135
Mof_C 	C 	0.82381	0.56177	0.5827	0.139
Mof_C 	C 	0.81447	0.5943	0.57422	0.141
Mof_C 	C 	0.78758	0.61275	0.59565	0.045
Mof_H 	H 	0.7872	0.6007	0.6044	0.01
Mof_C 	C 	0.80122	0.61271	0.57836	-0.052
Mof_C 	C 	0.8021	0.63072	0.56601	0.009
Mof_H 	H 	0.8112	0.6315	0.5543	0.039
Mof_C 	C 	0.78937	0.64744	0.57141	-0.096
Mof_H 	H 	0.7897	0.66	0.5634	0.066
Mof_C 	C 	0.77623	0.64585	0.58842	0.058
Mof_H 	H 	0.7675	0.6574	0.5918	0.003
Mof_C 	C 	0.74874	0.67504	0.63009	0.105
Mof_C 	C 	0.7324	0.63864	0.66707	0.061
Mof_H 	H 	0.7427	0.6493	0.6659	0.001
Mof_C 	C 	0.72075	0.63786	0.68473	-0.099
Mof_H 	H 	0.7234	0.6473	0.6959	0.069
Mof_C 	C 	0.70481	0.62298	0.68645	0.009
Mof_H 	H 	0.6963	0.6222	0.6986	0.039
Mof_C 	C 	0.70178	0.60933	0.66989	-0.051
Mof_C 	C 	0.71504	0.61077	0.65259	0.044
Mof_H 	H 	0.7133	0.6011	0.6414	0.011
Mof_C 	C 	0.68567	0.59304	0.67061	0.135
Mof_N 	N 	0.83907	0.51527	0.61413	-0.225
Mof_N 	N 	0.89569	0.61377	0.47646	-0.257
Mof_N 	N 	0.87727	0.60067	0.51681	-0.225
Mof_N 	N 	0.8297	0.59636	0.56052	-0.152
Mof_N 	N 	0.8401	0.56193	0.56961	-0.15
Mof_N 	N 	0.8103	0.57715	0.58523	-0.154
Mof_N 	N 	0.77534	0.62861	0.6004	-0.229
Mof_N 	N 	0.75126	0.6575	0.62722	-0.261
Mof_N 	N 	0.72999	0.62506	0.65114	-0.226
Mof_N 	N 	0.68603	0.57863	0.6556	-0.15
Mof_S 	S 	0.92311	0.58475	0.45888	-0.06
Mof_S 	S 	0.74509	0.69984	0.6343	-0.061
Mof_C 	C 	0.83895	0.03122	0.10084	0.042
Mof_H 	H 	0.8517	0.0346	0.094	0.012
Mof_C 	C 	0.82155	0.04316	0.09633	-0.05
Mof_C 	C 	0.80267	0.03806	0.106	0.009
Mof_H 	H 	0.7904	0.046	0.1034	0.038
Mof_C 	C 	0.8024	0.02116	0.11944	-0.098
Mof_H 	H 	0.7898	0.0171	0.1261	0.067
Mof_C 	C 	0.82076	0.01015	0.1231	0.06
Mof_H 	H 	0.8204	0.9985	0.1323	0.001
Mof_C 	C 	0.90698	0.10172	0.96879	0.097
Mof_C 	C 	0.89137	0.08518	0.01534	0.057
Mof_H 	H 	0.9023	0.0864	0.0053	0
Mof_C 	C 	0.89056	0.06736	0.02795	-0.097
Mof_H 	H 	0.9011	0.057	0.0269	0.066
Mof_C 	C 	0.87449	0.06499	0.04177	0.01
Mof_H 	H 	0.8735	0.0528	0.0502	0.038
Mof_C 	C 	0.85943	0.08094	0.04333	-0.049
Mof_C 	C 	0.86174	0.09831	0.03065	0.04
Mof_H 	H 	0.8517	0.1092	0.0318	0.015
Mof_C 	C 	0.84209	0.07962	0.05847	0.135
Mof_C 	C 	0.82381	0.06177	0.0827	0.139
Mof_C 	C 	0.81447	0.0943	0.07422	0.141
Mof_C 	C 	0.78758	0.11275	0.09565	0.045
Mof_H 	H 	0.7872	0.1007	0.1044	0.01
Mof_C 	C 	0.80122	0.11271	0.07836	-0.052
Mof_C 	C 	0.8021	0.13072	0.06601	0.009
Mof_H 	H 	0.8112	0.1315	0.0543	0.039
Mof_C 	C 	0.78937	0.14744	0.07141	-0.096
Mof_H 	H 	0.7897	0.16	0.0634	0.066
Mof_C 	C 	0.77623	0.14585	0.08842	0.058
Mof_H 	H 	0.7675	0.1574	0.0918	0.003
Mof_C 	C 	0.74874	0.17504	0.13009	0.105
Mof_C 	C 	0.7324	0.13864	0.16707	0.061
Mof_H 	H 	0.7427	0.1493	0.1659	0.001
Mof_C 	C 	0.72075	0.13786	0.18473	-0.099
Mof_H 	H 	0.7234	0.1473	0.1959	0.069
Mof_C 	C 	0.70481	0.12298	0.18645	0.009
Mof_H 	H 	0.6963	0.1222	0.1986	0.039
Mof_C 	C 	0.70178	0.10933	0.16989	-0.051
Mof_C 	C 	0.71504	0.11077	0.15259	0.044
Mof_H 	H 	0.7133	0.1011	0.1414	0.011
Mof_C 	C 	0.68567	0.09304	0.17061	0.135
Mof_N 	N 	0.83907	0.01527	0.11413	-0.224
Mof_N 	N 	0.89569	0.11377	0.97646	-0.257
Mof_N 	N 	0.87727	0.10067	0.01681	-0.225
Mof_N 	N 	0.8297	0.09636	0.06052	-0.152
Mof_N 	N 	0.8401	0.06193	0.06961	-0.15
Mof_N 	N 	0.8103	0.07715	0.08523	-0.154
Mof_N 	N 	0.77534	0.12861	0.1004	-0.229
Mof_N 	N 	0.75126	0.1575	0.12722	-0.261
Mof_N 	N 	0.72999	0.12506	0.15114	-0.226
Mof_N 	N 	0.68603	0.07863	0.1556	-0.15
Mof_S 	S 	0.92311	0.08475	0.95888	-0.06
Mof_S 	S 	0.74509	0.19984	0.1343	-0.061
Mof_C 	C 	0.33895	0.53122	0.10084	0.042
Mof_H 	H 	0.3517	0.5346	0.094	0.012
Mof_C 	C 	0.32155	0.54316	0.09633	-0.05
Mof_C 	C 	0.30267	0.53806	0.106	0.01
Mof_H 	H 	0.2904	0.546	0.1034	0.038
Mof_C 	C 	0.3024	0.52116	0.11944	-0.098
Mof_H 	H 	0.2898	0.5171	0.1261	0.067
Mof_C 	C 	0.32076	0.51015	0.1231	0.06
Mof_H 	H 	0.3204	0.4985	0.1323	0.001
Mof_C 	C 	0.40698	0.60172	0.96879	0.097
Mof_C 	C 	0.39137	0.58518	0.01534	0.057
Mof_H 	H 	0.4023	0.5864	0.0053	0
Mof_C 	C 	0.39056	0.56736	0.02795	-0.097
Mof_H 	H 	0.4011	0.557	0.0269	0.066
Mof_C 	C 	0.37449	0.56499	0.04177	0.01
Mof_H 	H 	0.3735	0.5528	0.0502	0.038
Mof_C 	C 	0.35943	0.58094	0.04333	-0.049
Mof_C 	C 	0.36174	0.59831	0.03065	0.04
Mof_H 	H 	0.3517	0.6092	0.0318	0.015
Mof_C 	C 	0.34209	0.57962	0.05847	0.135
Mof_C 	C 	0.32381	0.56177	0.0827	0.139
Mof_C 	C 	0.31447	0.5943	0.07422	0.141
Mof_C 	C 	0.28758	0.61275	0.09565	0.045
Mof_H 	H 	0.2872	0.6007	0.1044	0.01
Mof_C 	C 	0.30122	0.61271	0.07836	-0.052
Mof_C 	C 	0.3021	0.63072	0.06601	0.009
Mof_H 	H 	0.3112	0.6315	0.0543	0.039
Mof_C 	C 	0.28937	0.64744	0.07141	-0.096
Mof_H 	H 	0.2897	0.66	0.0634	0.066
Mof_C 	C 	0.27623	0.64585	0.08842	0.058
Mof_H 	H 	0.2675	0.6574	0.0918	0.003
Mof_C 	C 	0.24874	0.67504	0.13009	0.105
Mof_C 	C 	0.2324	0.63864	0.16707	0.061
Mof_H 	H 	0.2427	0.6493	0.1659	0.001
Mof_C 	C 	0.22075	0.63786	0.18473	-0.099
Mof_H 	H 	0.2234	0.6473	0.1959	0.069
Mof_C 	C 	0.20481	0.62298	0.18645	0.009
Mof_H 	H 	0.1963	0.6222	0.1986	0.039
Mof_C 	C 	0.20178	0.60933	0.16989	-0.051
Mof_C 	C 	0.21504	0.61077	0.15259	0.044
Mof_H 	H 	0.2133	0.6011	0.1414	0.011
Mof_C 	C 	0.18567	0.59304	0.17061	0.135
Mof_N 	N 	0.33907	0.51527	0.11413	-0.225
Mof_N 	N 	0.39569	0.61377	0.97646	-0.257
Mof_N 	N 	0.37727	0.60067	0.01681	-0.225
Mof_N 	N 	0.3297	0.59636	0.06052	-0.152
Mof_N 	N 	0.3401	0.56193	0.06961	-0.15
Mof_N 	N 	0.3103	0.57715	0.08523	-0.154
Mof_N 	N 	0.27534	0.62861	0.1004	-0.229
Mof_N 	N 	0.25126	0.6575	0.12722	-0.261
Mof_N 	N 	0.22999	0.62506	0.15114	-0.226
Mof_N 	N 	0.18603	0.57863	0.1556	-0.15
Mof_S 	S 	0.42311	0.58475	0.95888	-0.06
Mof_S 	S 	0.24509	0.69984	0.1343	-0.061
Mof_C 	C 	0.33895	0.03122	0.60084	0.042
Mof_H 	H 	0.3517	0.0346	0.594	0.012
Mof_C 	C 	0.32155	0.04316	0.59633	-0.05
Mof_C 	C 	0.30267	0.03806	0.606	0.009
Mof_H 	H 	0.2904	0.046	0.6034	0.038
Mof_C 	C 	0.3024	0.02116	0.61944	-0.098
Mof_H 	H 	0.2898	0.0171	0.6261	0.067
Mof_C 	C 	0.32076	0.01015	0.6231	0.06
Mof_H 	H 	0.3204	0.9985	0.6323	0.001
Mof_C 	C 	0.40698	0.10172	0.46879	0.097
Mof_C 	C 	0.39137	0.08518	0.51534	0.057
Mof_H 	H 	0.4023	0.0864	0.5053	0
Mof_C 	C 	0.39056	0.06736	0.52795	-0.097
Mof_H 	H 	0.4011	0.057	0.5269	0.066
Mof_C 	C 	0.37449	0.06499	0.54177	0.01
Mof_H 	H 	0.3735	0.0528	0.5502	0.038
Mof_C 	C 	0.35943	0.08094	0.54333	-0.049
Mof_C 	C 	0.36174	0.09831	0.53065	0.04
Mof_H 	H 	0.3517	0.1092	0.5318	0.015
Mof_C 	C 	0.34209	0.07962	0.55847	0.135
Mof_C 	C 	0.32381	0.06177	0.5827	0.139
Mof_C 	C 	0.31447	0.0943	0.57422	0.141
Mof_C 	C 	0.28758	0.11275	0.59565	0.045
Mof_H 	H 	0.2872	0.1007	0.6044	0.01
Mof_C 	C 	0.30122	0.11271	0.57836	-0.052
Mof_C 	C 	0.3021	0.13072	0.56601	0.009
Mof_H 	H 	0.3112	0.1315	0.5543	0.039
Mof_C 	C 	0.28937	0.14744	0.57141	-0.096
Mof_H 	H 	0.2897	0.16	0.5634	0.066
Mof_C 	C 	0.27623	0.14585	0.58842	0.058
Mof_H 	H 	0.2675	0.1574	0.5918	0.003
Mof_C 	C 	0.24874	0.17504	0.63009	0.105
Mof_C 	C 	0.2324	0.13864	0.66707	0.061
Mof_H 	H 	0.2427	0.1493	0.6659	0.001
Mof_C 	C 	0.22075	0.13786	0.68473	-0.099
Mof_H 	H 	0.2234	0.1473	0.6959	0.069
Mof_C 	C 	0.20481	0.12298	0.68645	0.009
Mof_H 	H 	0.1963	0.1222	0.6986	0.039
Mof_C 	C 	0.20178	0.10933	0.66989	-0.051
Mof_C 	C 	0.21504	0.11077	0.65259	0.044
Mof_H 	H 	0.2133	0.1011	0.6414	0.011
Mof_C 	C 	0.18567	0.09304	0.67061	0.135
Mof_N 	N 	0.33907	0.01527	0.61413	-0.224
Mof_N 	N 	0.39569	0.11377	0.47646	-0.257
Mof_N 	N 	0.37727	0.10067	0.51681	-0.225
Mof_N 	N 	0.3297	0.09636	0.56052	-0.152
Mof_N 	N 	0.3401	0.06193	0.56961	-0.15
Mof_N 	N 	0.3103	0.07715	0.58523	-0.154
Mof_N 	N 	0.27534	0.12861	0.6004	-0.229
Mof_N 	N 	0.25126	0.1575	0.62722	-0.261
Mof_N 	N 	0.22999	0.12506	0.65114	-0.226
Mof_N 	N 	0.18603	0.07863	0.6556	-0.15
Mof_S 	S 	0.42311	0.08475	0.45888	-0.06
Mof_S 	S 	0.24509	0.19984	0.6343	-0.061
Mof_C 	C 	0.33895	0.71878	0.14916	0.042
Mof_H 	H 	0.3517	0.7154	0.156	0.012
Mof_C 	C 	0.32155	0.70684	0.15367	-0.05
Mof_C 	C 	0.30267	0.71194	0.144	0.01
Mof_H 	H 	0.2904	0.704	0.1466	0.038
Mof_C 	C 	0.3024	0.72884	0.13056	-0.098
Mof_H 	H 	0.2898	0.7329	0.1239	0.067
Mof_C 	C 	0.32076	0.73985	0.1269	0.06
Mof_H 	H 	0.3204	0.7515	0.1177	0.001
Mof_C 	C 	0.40698	0.64828	0.28121	0.097
Mof_C 	C 	0.39137	0.66482	0.23466	0.057
Mof_H 	H 	0.4023	0.6636	0.2447	0
Mof_C 	C 	0.39056	0.68264	0.22205	-0.097
Mof_H 	H 	0.4011	0.693	0.2231	0.066
Mof_C 	C 	0.37449	0.68501	0.20823	0.01
Mof_H 	H 	0.3735	0.6972	0.1998	0.038
Mof_C 	C 	0.35943	0.66906	0.20667	-0.049
Mof_C 	C 	0.36174	0.65169	0.21935	0.04
Mof_H 	H 	0.3517	0.6408	0.2182	0.015
Mof_C 	C 	0.34209	0.67038	0.19153	0.135
Mof_C 	C 	0.32381	0.68823	0.1673	0.139
Mof_C 	C 	0.31447	0.6557	0.17578	0.141
Mof_C 	C 	0.28758	0.63725	0.15435	0.045
Mof_H 	H 	0.2872	0.6493	0.1456	0.01
Mof_C 	C 	0.30122	0.63729	0.17164	-0.052
Mof_C 	C 	0.3021	0.61928	0.18399	0.009
Mof_H 	H 	0.3112	0.6185	0.1957	0.039
Mof_C 	C 	0.28937	0.60256	0.17859	-0.096
Mof_H 	H 	0.2897	0.59	0.1866	0.066
Mof_C 	C 	0.27623	0.60415	0.16158	0.058
Mof_H 	H 	0.2675	0.5926	0.1582	0.003
Mof_C 	C 	0.24874	0.57496	0.11991	0.105
Mof_C 	C 	0.2324	0.61136	0.08293	0.061
Mof_H 	H 	0.2427	0.6007	0.0841	0.001
Mof_C 	C 	0.22075	0.61214	0.06527	-0.099
Mof_H 	H 	0.2234	0.6027	0.0541	0.069
Mof_C 	C 	0.20481	0.62702	0.06355	0.009
Mof_H 	H 	0.1963	0.6278	0.0514	0.039
Mof_C 	C 	0.20178	0.64067	0.08011	-0.051
Mof_C 	C 	0.21504	0.63923	0.09741	0.044
Mof_H 	H 	0.2133	0.6489	0.1086	0.011
Mof_C 	C 	0.18567	0.65696	0.07939	0.135
Mof_N 	N 	0.33907	0.73473	0.13587	-0.225
Mof_N 	N 	0.39569	0.63623	0.27354	-0.257
Mof_N 	N 	0.37727	0.64933	0.23319	-0.225
Mof_N 	N 	0.3297	0.65364	0.18948	-0.152
Mof_N 	N 	0.3401	0.68807	0.18039	-0.15
Mof_N 	N 	0.3103	0.67285	0.16477	-0.154
Mof_N 	N 	0.27534	0.62139	0.1496	-0.229
Mof_N 	N 	0.25126	0.5925	0.12278	-0.261
Mof_N 	N 	0.22999	0.62494	0.09886	-0.226
Mof_N 	N 	0.18603	0.67137	0.0944	-0.15
Mof_S 	S 	0.42311	0.66525	0.29112	-0.06
Mof_S 	S 	0.24509	0.55016	0.1157	-0.061
Mof_C 	C 	0.33895	0.21878	0.64916	0.042
Mof_H 	H 	0.3517	0.2154	0.656	0.012
Mof_C 	C 	0.32155	0.20684	0.65367	-0.05
Mof_C 	C 	0.30267	0.21194	0.644	0.01
Mof_H 	H 	0.2904	0.204	0.6466	0.038
Mof_C 	C 	0.3024	0.22884	0.63056	-0.098
Mof_H 	H 	0.2898	0.2329	0.6239	0.067
Mof_C 	C 	0.32076	0.23985	0.6269	0.06
Mof_H 	H 	0.3204	0.2515	0.6177	0.001
Mof_C 	C 	0.40698	0.14828	0.78121	0.097
Mof_C 	C 	0.39137	0.16482	0.73466	0.057
Mof_H 	H 	0.4023	0.1636	0.7447	0
Mof_C 	C 	0.39056	0.18264	0.72205	-0.097
Mof_H 	H 	0.4011	0.193	0.7231	0.066
Mof_C 	C 	0.37449	0.18501	0.70823	0.01
Mof_H 	H 	0.3735	0.1972	0.6998	0.038
Mof_C 	C 	0.35943	0.16906	0.70667	-0.049
Mof_C 	C 	0.36174	0.15169	0.71935	0.04
Mof_H 	H 	0.3517	0.1408	0.7182	0.015
Mof_C 	C 	0.34209	0.17038	0.69153	0.135
Mof_C 	C 	0.32381	0.18823	0.6673	0.139
Mof_C 	C 	0.31447	0.1557	0.67578	0.141
Mof_C 	C 	0.28758	0.13725	0.65435	0.045
Mof_H 	H 	0.2872	0.1493	0.6456	0.01
Mof_C 	C 	0.30122	0.13729	0.67164	-0.052
Mof_C 	C 	0.3021	0.11928	0.68399	0.009
Mof_H 	H 	0.3112	0.1185	0.6957	0.039
Mof_C 	C 	0.28937	0.10256	0.67859	-0.096
Mof_H 	H 	0.2897	0.09	0.6866	0.066
Mof_C 	C 	0.27623	0.10415	0.66158	0.058
Mof_H 	H 	0.2675	0.0926	0.6582	0.003
Mof_C 	C 	0.24874	0.07496	0.61991	0.105
Mof_C 	C 	0.2324	0.11136	0.58293	0.061
Mof_H 	H 	0.2427	0.1007	0.5841	0.001
Mof_C 	C 	0.22075	0.11214	0.56527	-0.099
Mof_H 	H 	0.2234	0.1027	0.5541	0.069
Mof_C 	C 	0.20481	0.12702	0.56355	0.009
Mof_H 	H 	0.1963	0.1278	0.5514	0.039
Mof_C 	C 	0.20178	0.14067	0.58011	-0.051
Mof_C 	C 	0.21504	0.13923	0.59741	0.044
Mof_H 	H 	0.2133	0.1489	0.6086	0.011
Mof_C 	C 	0.18567	0.15696	0.57939	0.135
Mof_N 	N 	0.33907	0.23473	0.63587	-0.225
Mof_N 	N 	0.39569	0.13623	0.77354	-0.257
Mof_N 	N 	0.37727	0.14933	0.73319	-0.225
Mof_N 	N 	0.3297	0.15364	0.68948	-0.152
Mof_N 	N 	0.3401	0.18807	0.68039	-0.15
Mof_N 	N 	0.3103	0.17285	0.66477	-0.154
Mof_N 	N 	0.27534	0.12139	0.6496	-0.229
Mof_N 	N 	0.25126	0.0925	0.62278	-0.261
Mof_N 	N 	0.22999	0.12494	0.59886	-0.226
Mof_N 	N 	0.18603	0.17137	0.5944	-0.15
Mof_S 	S 	0.42311	0.16525	0.79112	-0.06
Mof_S 	S 	0.24509	0.05016	0.6157	-0.061
Mof_C 	C 	0.83895	0.71878	0.64916	0.042
Mof_H 	H 	0.8517	0.7154	0.656	0.012
Mof_C 	C 	0.82155	0.70684	0.65367	-0.05
Mof_C 	C 	0.80267	0.71194	0.644	0.01
Mof_H 	H 	0.7904	0.704	0.6466	0.038
Mof_C 	C 	0.8024	0.72884	0.63056	-0.098
Mof_H 	H 	0.7898	0.7329	0.6239	0.067
Mof_C 	C 	0.82076	0.73985	0.6269	0.06
Mof_H 	H 	0.8204	0.7515	0.6177	0.001
Mof_C 	C 	0.90698	0.64828	0.78121	0.097
Mof_C 	C 	0.89137	0.66482	0.73466	0.057
Mof_H 	H 	0.9023	0.6636	0.7447	0
Mof_C 	C 	0.89056	0.68264	0.72205	-0.097
Mof_H 	H 	0.9011	0.693	0.7231	0.066
Mof_C 	C 	0.87449	0.68501	0.70823	0.01
Mof_H 	H 	0.8735	0.6972	0.6998	0.038
Mof_C 	C 	0.85943	0.66906	0.70667	-0.049
Mof_C 	C 	0.86174	0.65169	0.71935	0.04
Mof_H 	H 	0.8517	0.6408	0.7182	0.015
Mof_C 	C 	0.84209	0.67038	0.69153	0.135
Mof_C 	C 	0.82381	0.68823	0.6673	0.139
Mof_C 	C 	0.81447	0.6557	0.67578	0.141
Mof_C 	C 	0.78758	0.63725	0.65435	0.045
Mof_H 	H 	0.7872	0.6493	0.6456	0.01
Mof_C 	C 	0.80122	0.63729	0.67164	-0.052
Mof_C 	C 	0.8021	0.61928	0.68399	0.009
Mof_H 	H 	0.8112	0.6185	0.6957	0.039
Mof_C 	C 	0.78937	0.60256	0.67859	-0.096
Mof_H 	H 	0.7897	0.59	0.6866	0.066
Mof_C 	C 	0.77623	0.60415	0.66158	0.058
Mof_H 	H 	0.7675	0.5926	0.6582	0.003
Mof_C 	C 	0.74874	0.57496	0.61991	0.105
Mof_C 	C 	0.7324	0.61136	0.58293	0.061
Mof_H 	H 	0.7427	0.6007	0.5841	0.001
Mof_C 	C 	0.72075	0.61214	0.56527	-0.099
Mof_H 	H 	0.7234	0.6027	0.5541	0.069
Mof_C 	C 	0.70481	0.62702	0.56355	0.009
Mof_H 	H 	0.6963	0.6278	0.5514	0.039
Mof_C 	C 	0.70178	0.64067	0.58011	-0.051
Mof_C 	C 	0.71504	0.63923	0.59741	0.044
Mof_H 	H 	0.7133	0.6489	0.6086	0.011
Mof_C 	C 	0.68567	0.65696	0.57939	0.135
Mof_N 	N 	0.83907	0.73473	0.63587	-0.225
Mof_N 	N 	0.89569	0.63623	0.77354	-0.257
Mof_N 	N 	0.87727	0.64933	0.73319	-0.225
Mof_N 	N 	0.8297	0.65364	0.68948	-0.152
Mof_N 	N 	0.8401	0.68807	0.68039	-0.15
Mof_N 	N 	0.8103	0.67285	0.66477	-0.154
Mof_N 	N 	0.77534	0.62139	0.6496	-0.229
Mof_N 	N 	0.75126	0.5925	0.62278	-0.261
Mof_N 	N 	0.72999	0.62494	0.59886	-0.226
Mof_N 	N 	0.68603	0.67137	0.5944	-0.15
Mof_S 	S 	0.92311	0.66525	0.79112	-0.06
Mof_S 	S 	0.74509	0.55016	0.6157	-0.061
Mof_C 	C 	0.83895	0.21878	0.14916	0.042
Mof_H 	H 	0.8517	0.2154	0.156	0.012
Mof_C 	C 	0.82155	0.20684	0.15367	-0.05
Mof_C 	C 	0.80267	0.21194	0.144	0.01
Mof_H 	H 	0.7904	0.204	0.1466	0.038
Mof_C 	C 	0.8024	0.22884	0.13056	-0.098
Mof_H 	H 	0.7898	0.2329	0.1239	0.067
Mof_C 	C 	0.82076	0.23985	0.1269	0.06
Mof_H 	H 	0.8204	0.2515	0.1177	0.001
Mof_C 	C 	0.90698	0.14828	0.28121	0.097
Mof_C 	C 	0.89137	0.16482	0.23466	0.057
Mof_H 	H 	0.9023	0.1636	0.2447	0
Mof_C 	C 	0.89056	0.18264	0.22205	-0.097
Mof_H 	H 	0.9011	0.193	0.2231	0.066
Mof_C 	C 	0.87449	0.18501	0.20823	0.01
Mof_H 	H 	0.8735	0.1972	0.1998	0.038
Mof_C 	C 	0.85943	0.16906	0.20667	-0.049
Mof_C 	C 	0.86174	0.15169	0.21935	0.04
Mof_H 	H 	0.8517	0.1408	0.2182	0.015
Mof_C 	C 	0.84209	0.17038	0.19153	0.135
Mof_C 	C 	0.82381	0.18823	0.1673	0.139
Mof_C 	C 	0.81447	0.1557	0.17578	0.141
Mof_C 	C 	0.78758	0.13725	0.15435	0.045
Mof_H 	H 	0.7872	0.1493	0.1456	0.01
Mof_C 	C 	0.80122	0.13729	0.17164	-0.052
Mof_C 	C 	0.8021	0.11928	0.18399	0.009
Mof_H 	H 	0.8112	0.1185	0.1957	0.039
Mof_C 	C 	0.78937	0.10256	0.17859	-0.096
Mof_H 	H 	0.7897	0.09	0.1866	0.066
Mof_C 	C 	0.77623	0.10415	0.16158	0.058
Mof_H 	H 	0.7675	0.0926	0.1582	0.003
Mof_C 	C 	0.74874	0.07496	0.11991	0.105
Mof_C 	C 	0.7324	0.11136	0.08293	0.061
Mof_H 	H 	0.7427	0.1007	0.0841	0.001
Mof_C 	C 	0.72075	0.11214	0.06527	-0.099
Mof_H 	H 	0.7234	0.1027	0.0541	0.069
Mof_C 	C 	0.70481	0.12702	0.06355	0.009
Mof_H 	H 	0.6963	0.1278	0.0514	0.039
Mof_C 	C 	0.70178	0.14067	0.08011	-0.051
Mof_C 	C 	0.71504	0.13923	0.09741	0.044
Mof_H 	H 	0.7133	0.1489	0.1086	0.011
Mof_C 	C 	0.68567	0.15696	0.07939	0.135
Mof_N 	N 	0.83907	0.23473	0.13587	-0.225
Mof_N 	N 	0.89569	0.13623	0.27354	-0.257
Mof_N 	N 	0.87727	0.14933	0.23319	-0.225
Mof_N 	N 	0.8297	0.15364	0.18948	-0.152
Mof_N 	N 	0.8401	0.18807	0.18039	-0.15
Mof_N 	N 	0.8103	0.17285	0.16477	-0.154
Mof_N 	N 	0.77534	0.12139	0.1496	-0.229
Mof_N 	N 	0.75126	0.0925	0.12278	-0.261
Mof_N 	N 	0.72999	0.12494	0.09886	-0.226
Mof_N 	N 	0.68603	0.17137	0.0944	-0.15
Mof_S 	S 	0.92311	0.16525	0.29112	-0.06
Mof_S 	S 	0.74509	0.05016	0.1157	-0.061
Mof_C 	C 	0.91105	0.03122	0.64916	0.042
Mof_H 	H 	0.8983	0.0346	0.656	0.012
Mof_C 	C 	0.92845	0.04316	0.65367	-0.05
Mof_C 	C 	0.94733	0.03806	0.644	0.009
Mof_H 	H 	0.9596	0.046	0.6466	0.038
Mof_C 	C 	0.9476	0.02116	0.63056	-0.098
Mof_H 	H 	0.9602	0.0171	0.6239	0.067
Mof_C 	C 	0.92924	0.01015	0.6269	0.06
Mof_H 	H 	0.9296	0.9985	0.6177	0.001
Mof_C 	C 	0.84302	0.10172	0.78121	0.097
Mof_C 	C 	0.85863	0.08518	0.73466	0.057
Mof_H 	H 	0.8477	0.0864	0.7447	0
Mof_C 	C 	0.85944	0.06736	0.72205	-0.097
Mof_H 	H 	0.8489	0.057	0.7231	0.066
Mof_C 	C 	0.87551	0.06499	0.70823	0.01
Mof_H 	H 	0.8765	0.0528	0.6998	0.038
Mof_C 	C 	0.89057	0.08094	0.70667	-0.049
Mof_C 	C 	0.88826	0.09831	0.71935	0.04
Mof_H 	H 	0.8983	0.1092	0.7182	0.015
Mof_C 	C 	0.90791	0.07962	0.69153	0.135
Mof_C 	C 	0.92619	0.06177	0.6673	0.139
Mof_C 	C 	0.93553	0.0943	0.67578	0.141
Mof_C 	C 	0.96242	0.11275	0.65435	0.045
Mof_H 	H 	0.9628	0.1007	0.6456	0.01
Mof_C 	C 	0.94878	0.11271	0.67164	-0.053
Mof_C 	C 	0.9479	0.13072	0.68399	0.008
Mof_H 	H 	0.9388	0.1315	0.6957	0.038
Mof_C 	C 	0.96063	0.14744	0.67859	-0.097
Mof_H 	H 	0.9603	0.16	0.6866	0.065
Mof_C 	C 	0.97377	0.14585	0.66158	0.057
Mof_H 	H 	0.9825	0.1574	0.6582	0.002
Mof_C 	C 	0.00126	0.17504	0.61991	0.104
Mof_C 	C 	0.0176	0.13864	0.58293	0.06
Mof_H 	H 	0.0073	0.1493	0.5841	0
Mof_C 	C 	0.02925	0.13786	0.56527	-0.1
Mof_H 	H 	0.0266	0.1473	0.5541	0.068
Mof_C 	C 	0.04519	0.12298	0.56355	0.008
Mof_H 	H 	0.0537	0.1222	0.5514	0.038
Mof_C 	C 	0.04822	0.10933	0.58011	-0.052
Mof_C 	C 	0.03496	0.11077	0.59741	0.043
Mof_H 	H 	0.0367	0.1011	0.6086	0.01
Mof_C 	C 	0.06433	0.09304	0.57939	0.134
Mof_N 	N 	0.91093	0.01527	0.63587	-0.225
Mof_N 	N 	0.85431	0.11377	0.77354	-0.258
Mof_N 	N 	0.87273	0.10067	0.73319	-0.226
Mof_N 	N 	0.9203	0.09636	0.68948	-0.153
Mof_N 	N 	0.9099	0.06193	0.68039	-0.151
Mof_N 	N 	0.9397	0.07715	0.66477	-0.155
Mof_N 	N 	0.97466	0.12861	0.6496	-0.23
Mof_N 	N 	0.99874	0.1575	0.62278	-0.262
Mof_N 	N 	0.02001	0.12506	0.59886	-0.227
Mof_N 	N 	0.06397	0.07863	0.5944	-0.151
Mof_S 	S 	0.82689	0.08475	0.79112	-0.061
Mof_S 	S 	0.00491	0.19984	0.6157	-0.062
Mof_C 	C 	0.91105	0.53122	0.14916	0.041
Mof_H 	H 	0.8983	0.5346	0.156	0.011
Mof_C 	C 	0.92845	0.54316	0.15367	-0.051
Mof_C 	C 	0.94733	0.53806	0.144	0.009
Mof_H 	H 	0.9596	0.546	0.1466	0.037
Mof_C 	C 	0.9476	0.52116	0.13056	-0.099
Mof_H 	H 	0.9602	0.5171	0.1239	0.066
Mof_C 	C 	0.92924	0.51015	0.1269	0.059
Mof_H 	H 	0.9296	0.4985	0.1177	0
Mof_C 	C 	0.84302	0.60172	0.28121	0.096
Mof_C 	C 	0.85863	0.58518	0.23466	0.056
Mof_H 	H 	0.8477	0.5864	0.2447	-0.001
Mof_C 	C 	0.85944	0.56736	0.22205	-0.098
Mof_H 	H 	0.8489	0.557	0.2231	0.065
Mof_C 	C 	0.87551	0.56499	0.20823	0.009
Mof_H 	H 	0.8765	0.5528	0.1998	0.037
Mof_C 	C 	0.89057	0.58094	0.20667	-0.05
Mof_C 	C 	0.88826	0.59831	0.21935	0.039
Mof_H 	H 	0.8983	0.6092	0.2182	0.014
Mof_C 	C 	0.90791	0.57962	0.19153	0.134
Mof_C 	C 	0.92619	0.56177	0.1673	0.138
Mof_C 	C 	0.93553	0.5943	0.17578	0.14
Mof_C 	C 	0.96242	0.61275	0.15435	0.044
Mof_H 	H 	0.9628	0.6007	0.1456	0.009
Mof_C 	C 	0.94878	0.61271	0.17164	-0.053
Mof_C 	C 	0.9479	0.63072	0.18399	0.008
Mof_H 	H 	0.9388	0.6315	0.1957	0.038
Mof_C 	C 	0.96063	0.64744	0.17859	-0.097
Mof_H 	H 	0.9603	0.66	0.1866	0.065
Mof_C 	C 	0.97377	0.64585	0.16158	0.057
Mof_H 	H 	0.9825	0.6574	0.1582	0.002
Mof_C 	C 	0.00126	0.67504	0.11991	0.104
Mof_C 	C 	0.0176	0.63864	0.08293	0.06
Mof_H 	H 	0.0073	0.6493	0.0841	0
Mof_C 	C 	0.02925	0.63786	0.06527	-0.1
Mof_H 	H 	0.0266	0.6473	0.0541	0.068
Mof_C 	C 	0.04519	0.62298	0.06355	0.008
Mof_H 	H 	0.0537	0.6222	0.0514	0.038
Mof_C 	C 	0.04822	0.60933	0.08011	-0.052
Mof_C 	C 	0.03496	0.61077	0.09741	0.043
Mof_H 	H 	0.0367	0.6011	0.1086	0.01
Mof_C 	C 	0.06433	0.59304	0.07939	0.134
Mof_N 	N 	0.91093	0.51527	0.13587	-0.226
Mof_N 	N 	0.85431	0.61377	0.27354	-0.258
Mof_N 	N 	0.87273	0.60067	0.23319	-0.226
Mof_N 	N 	0.9203	0.59636	0.18948	-0.153
Mof_N 	N 	0.9099	0.56193	0.18039	-0.151
Mof_N 	N 	0.9397	0.57715	0.16477	-0.155
Mof_N 	N 	0.97466	0.62861	0.1496	-0.23
Mof_N 	N 	0.99874	0.6575	0.12278	-0.262
Mof_N 	N 	0.02001	0.62506	0.09886	-0.227
Mof_N 	N 	0.06397	0.57863	0.0944	-0.151
Mof_S 	S 	0.82689	0.58475	0.29112	-0.061
Mof_S 	S 	0.00491	0.69984	0.1157	-0.062
Mof_C 	C 	0.41105	0.03122	0.14916	0.041
Mof_H 	H 	0.3983	0.0346	0.156	0.011
Mof_C 	C 	0.42845	0.04316	0.15367	-0.051
Mof_C 	C 	0.44733	0.03806	0.144	0.008
Mof_H 	H 	0.4596	0.046	0.1466	0.037
Mof_C 	C 	0.4476	0.02116	0.13056	-0.099
Mof_H 	H 	0.4602	0.0171	0.1239	0.066
Mof_C 	C 	0.42924	0.01015	0.1269	0.059
Mof_H 	H 	0.4296	0.9985	0.1177	0
Mof_C 	C 	0.34302	0.10172	0.28121	0.096
Mof_C 	C 	0.35863	0.08518	0.23466	0.056
Mof_H 	H 	0.3477	0.0864	0.2447	-0.001
Mof_C 	C 	0.35944	0.06736	0.22205	-0.098
Mof_H 	H 	0.3489	0.057	0.2231	0.065
Mof_C 	C 	0.37551	0.06499	0.20823	0.009
Mof_H 	H 	0.3765	0.0528	0.1998	0.037
Mof_C 	C 	0.39057	0.08094	0.20667	-0.05
Mof_C 	C 	0.38826	0.09831	0.21935	0.039
Mof_H 	H 	0.3983	0.1092	0.2182	0.014
Mof_C 	C 	0.40791	0.07962	0.19153	0.134
Mof_C 	C 	0.42619	0.06177	0.1673	0.138
Mof_C 	C 	0.43553	0.0943	0.17578	0.14
Mof_C 	C 	0.46242	0.11275	0.15435	0.044
Mof_H 	H 	0.4628	0.1007	0.1456	0.009
Mof_C 	C 	0.44878	0.11271	0.17164	-0.053
Mof_C 	C 	0.4479	0.13072	0.18399	0.008
Mof_H 	H 	0.4388	0.1315	0.1957	0.038
Mof_C 	C 	0.46063	0.14744	0.17859	-0.097
Mof_H 	H 	0.4603	0.16	0.1866	0.065
Mof_C 	C 	0.47377	0.14585	0.16158	0.057
Mof_H 	H 	0.4825	0.1574	0.1582	0.002
Mof_C 	C 	0.50126	0.17504	0.11991	0.104
Mof_C 	C 	0.5176	0.13864	0.08293	0.06
Mof_H 	H 	0.5073	0.1493	0.0841	0
Mof_C 	C 	0.52925	0.13786	0.06527	-0.1
Mof_H 	H 	0.5266	0.1473	0.0541	0.068
Mof_C 	C 	0.54519	0.12298	0.06355	0.008
Mof_H 	H 	0.5537	0.1222	0.0514	0.038
Mof_C 	C 	0.54822	0.10933	0.08011	-0.052
Mof_C 	C 	0.53496	0.11077	0.09741	0.043
Mof_H 	H 	0.5367	0.1011	0.1086	0.01
Mof_C 	C 	0.56433	0.09304	0.07939	0.134
Mof_N 	N 	0.41093	0.01527	0.13587	-0.225
Mof_N 	N 	0.35431	0.11377	0.27354	-0.258
Mof_N 	N 	0.37273	0.10067	0.23319	-0.226
Mof_N 	N 	0.4203	0.09636	0.18948	-0.153
Mof_N 	N 	0.4099	0.06193	0.18039	-0.151
Mof_N 	N 	0.4397	0.07715	0.16477	-0.155
Mof_N 	N 	0.47466	0.12861	0.1496	-0.23
Mof_N 	N 	0.49874	0.1575	0.12278	-0.262
Mof_N 	N 	0.52001	0.12506	0.09886	-0.227
Mof_N 	N 	0.56397	0.07863	0.0944	-0.151
Mof_S 	S 	0.32689	0.08475	0.29112	-0.061
Mof_S 	S 	0.50491	0.19984	0.1157	-0.062
Mof_C 	C 	0.41105	0.53122	0.64916	0.041
Mof_H 	H 	0.3983	0.5346	0.656	0.011
Mof_C 	C 	0.42845	0.54316	0.65367	-0.051
Mof_C 	C 	0.44733	0.53806	0.644	0.009
Mof_H 	H 	0.4596	0.546	0.6466	0.037
Mof_C 	C 	0.4476	0.52116	0.63056	-0.099
Mof_H 	H 	0.4602	0.5171	0.6239	0.066
Mof_C 	C 	0.42924	0.51015	0.6269	0.059
Mof_H 	H 	0.4296	0.4985	0.6177	0
Mof_C 	C 	0.34302	0.60172	0.78121	0.096
Mof_C 	C 	0.35863	0.58518	0.73466	0.056
Mof_H 	H 	0.3477	0.5864	0.7447	-0.001
Mof_C 	C 	0.35944	0.56736	0.72205	-0.098
Mof_H 	H 	0.3489	0.557	0.7231	0.065
Mof_C 	C 	0.37551	0.56499	0.70823	0.009
Mof_H 	H 	0.3765	0.5528	0.6998	0.037
Mof_C 	C 	0.39057	0.58094	0.70667	-0.05
Mof_C 	C 	0.38826	0.59831	0.71935	0.039
Mof_H 	H 	0.3983	0.6092	0.7182	0.014
Mof_C 	C 	0.40791	0.57962	0.69153	0.134
Mof_C 	C 	0.42619	0.56177	0.6673	0.138
Mof_C 	C 	0.43553	0.5943	0.67578	0.14
Mof_C 	C 	0.46242	0.61275	0.65435	0.044
Mof_H 	H 	0.4628	0.6007	0.6456	0.009
Mof_C 	C 	0.44878	0.61271	0.67164	-0.053
Mof_C 	C 	0.4479	0.63072	0.68399	0.008
Mof_H 	H 	0.4388	0.6315	0.6957	0.038
Mof_C 	C 	0.46063	0.64744	0.67859	-0.097
Mof_H 	H 	0.4603	0.66	0.6866	0.065
Mof_C 	C 	0.47377	0.64585	0.66158	0.057
Mof_H 	H 	0.4825	0.6574	0.6582	0.002
Mof_C 	C 	0.50126	0.67504	0.61991	0.104
Mof_C 	C 	0.5176	0.63864	0.58293	0.06
Mof_H 	H 	0.5073	0.6493	0.5841	0
Mof_C 	C 	0.52925	0.63786	0.56527	-0.1
Mof_H 	H 	0.5266	0.6473	0.5541	0.068
Mof_C 	C 	0.54519	0.62298	0.56355	0.008
Mof_H 	H 	0.5537	0.6222	0.5514	0.038
Mof_C 	C 	0.54822	0.60933	0.58011	-0.052
Mof_C 	C 	0.53496	0.61077	0.59741	0.043
Mof_H 	H 	0.5367	0.6011	0.6086	0.01
Mof_C 	C 	0.56433	0.59304	0.57939	0.134
Mof_N 	N 	0.41093	0.51527	0.63587	-0.226
Mof_N 	N 	0.35431	0.61377	0.77354	-0.258
Mof_N 	N 	0.37273	0.60067	0.73319	-0.226
Mof_N 	N 	0.4203	0.59636	0.68948	-0.153
Mof_N 	N 	0.4099	0.56193	0.68039	-0.151
Mof_N 	N 	0.4397	0.57715	0.66477	-0.155
Mof_N 	N 	0.47466	0.62861	0.6496	-0.23
Mof_N 	N 	0.49874	0.6575	0.62278	-0.262
Mof_N 	N 	0.52001	0.62506	0.59886	-0.227
Mof_N 	N 	0.56397	0.57863	0.5944	-0.151
Mof_S 	S 	0.32689	0.58475	0.79112	-0.061
Mof_S 	S 	0.50491	0.69984	0.6157	-0.062
Mof_C 	C 	0.10084	0.41105	0.21878	0.041
Mof_H 	H 	0.094	0.3983	0.2154	0.011
Mof_C 	C 	0.09633	0.42845	0.20684	-0.051
Mof_C 	C 	0.106	0.44733	0.21194	0.009
Mof_H 	H 	0.1034	0.4596	0.204	0.037
Mof_C 	C 	0.11944	0.4476	0.22884	-0.099
Mof_H 	H 	0.1261	0.4602	0.2329	0.066
Mof_C 	C 	0.1231	0.42924	0.23985	0.059
Mof_H 	H 	0.1323	0.4296	0.2515	0
Mof_C 	C 	0.96879	0.34302	0.14828	0.096
Mof_C 	C 	0.01534	0.35863	0.16482	0.056
Mof_H 	H 	0.0053	0.3477	0.1636	-0.001
Mof_C 	C 	0.02795	0.35944	0.18264	-0.098
Mof_H 	H 	0.0269	0.3489	0.193	0.065
Mof_C 	C 	0.04177	0.37551	0.18501	0.009
Mof_H 	H 	0.0502	0.3765	0.1972	0.037
Mof_C 	C 	0.04333	0.39057	0.16906	-0.05
Mof_C 	C 	0.03065	0.38826	0.15169	0.039
Mof_H 	H 	0.0318	0.3983	0.1408	0.014
Mof_C 	C 	0.05847	0.40791	0.17038	0.134
Mof_C 	C 	0.0827	0.42619	0.18823	0.138
Mof_C 	C 	0.07422	0.43553	0.1557	0.14
Mof_C 	C 	0.09565	0.46242	0.13725	0.044
Mof_H 	H 	0.1044	0.4628	0.1493	0.009
Mof_C 	C 	0.07836	0.44878	0.13729	-0.053
Mof_C 	C 	0.06601	0.4479	0.11928	0.008
Mof_H 	H 	0.0543	0.4388	0.1185	0.038
Mof_C 	C 	0.07141	0.46063	0.10256	-0.097
Mof_H 	H 	0.0634	0.4603	0.09	0.065
Mof_C 	C 	0.08842	0.47377	0.10415	0.057
Mof_H 	H 	0.0918	0.4825	0.0926	0.002
Mof_C 	C 	0.13009	0.50126	0.07496	0.104
Mof_C 	C 	0.16707	0.5176	0.11136	0.06
Mof_H 	H 	0.1659	0.5073	0.1007	0
Mof_C 	C 	0.18473	0.52925	0.11214	-0.1
Mof_H 	H 	0.1959	0.5266	0.1027	0.068
Mof_C 	C 	0.18645	0.54519	0.12702	0.008
Mof_H 	H 	0.1986	0.5537	0.1278	0.038
Mof_C 	C 	0.16989	0.54822	0.14067	-0.052
Mof_C 	C 	0.15259	0.53496	0.13923	0.043
Mof_H 	H 	0.1414	0.5367	0.1489	0.01
Mof_C 	C 	0.17061	0.56433	0.15696	0.134
Mof_N 	N 	0.11413	0.41093	0.23473	-0.226
Mof_N 	N 	0.97646	0.35431	0.13623	-0.258
Mof_N 	N 	0.01681	0.37273	0.14933	-0.226
Mof_N 	N 	0.06052	0.4203	0.15364	-0.153
Mof_N 	N 	0.06961	0.4099	0.18807	-0.151
Mof_N 	N 	0.08523	0.4397	0.17285	-0.155
Mof_N 	N 	0.1004	0.47466	0.12139	-0.23
Mof_N 	N 	0.12722	0.49874	0.0925	-0.262
Mof_N 	N 	0.15114	0.52001	0.12494	-0.227
Mof_N 	N 	0.1556	0.56397	0.17137	-0.151
Mof_S 	S 	0.95888	0.32689	0.16525	-0.061
Mof_S 	S 	0.1343	0.50491	0.05016	-0.062
Mof_C 	C 	0.10084	0.91105	0.71878	0.041
Mof_H 	H 	0.094	0.8983	0.7154	0.011
Mof_C 	C 	0.09633	0.92845	0.70684	-0.051
Mof_C 	C 	0.106	0.94733	0.71194	0.009
Mof_H 	H 	0.1034	0.9596	0.704	0.037
Mof_C 	C 	0.11944	0.9476	0.72884	-0.099
Mof_H 	H 	0.1261	0.9602	0.7329	0.066
Mof_C 	C 	0.1231	0.92924	0.73985	0.059
Mof_H 	H 	0.1323	0.9296	0.7515	0
Mof_C 	C 	0.96879	0.84302	0.64828	0.096
Mof_C 	C 	0.01534	0.85863	0.66482	0.056
Mof_H 	H 	0.0053	0.8477	0.6636	-0.001
Mof_C 	C 	0.02795	0.85944	0.68264	-0.098
Mof_H 	H 	0.0269	0.8489	0.693	0.065
Mof_C 	C 	0.04177	0.87551	0.68501	0.009
Mof_H 	H 	0.0502	0.8765	0.6972	0.037
Mof_C 	C 	0.04333	0.89057	0.66906	-0.05
Mof_C 	C 	0.03065	0.88826	0.65169	0.039
Mof_H 	H 	0.0318	0.8983	0.6408	0.014
Mof_C 	C 	0.05847	0.90791	0.67038	0.134
Mof_C 	C 	0.0827	0.92619	0.68823	0.138
Mof_C 	C 	0.07422	0.93553	0.6557	0.14
Mof_C 	C 	0.09565	0.96242	0.63725	0.044
Mof_H 	H 	0.1044	0.9628	0.6493	0.009
Mof_C 	C 	0.07836	0.94878	0.63729	-0.053
Mof_C 	C 	0.06601	0.9479	0.61928	0.008
Mof_H 	H 	0.0543	0.9388	0.6185	0.038
Mof_C 	C 	0.07141	0.96063	0.60256	-0.097
Mof_H 	H 	0.0634	0.9603	0.59	0.065
Mof_C 	C 	0.08842	0.97377	0.60415	0.057
Mof_H 	H 	0.0918	0.9825	0.5926	0.002
Mof_C 	C 	0.13009	0.00126	0.57496	0.104
Mof_C 	C 	0.16707	0.0176	0.61136	0.06
Mof_H 	H 	0.1659	0.0073	0.6007	0
Mof_C 	C 	0.18473	0.02925	0.61214	-0.1
Mof_H 	H 	0.1959	0.0266	0.6027	0.068
Mof_C 	C 	0.18645	0.04519	0.62702	0.008
Mof_H 	H 	0.1986	0.0537	0.6278	0.038
Mof_C 	C 	0.16989	0.04822	0.64067	-0.052
Mof_C 	C 	0.15259	0.03496	0.63923	0.043
Mof_H 	H 	0.1414	0.0367	0.6489	0.01
Mof_C 	C 	0.17061	0.06433	0.65696	0.134
Mof_N 	N 	0.11413	0.91093	0.73473	-0.226
Mof_N 	N 	0.97646	0.85431	0.63623	-0.258
Mof_N 	N 	0.01681	0.87273	0.64933	-0.226
Mof_N 	N 	0.06052	0.9203	0.65364	-0.153
Mof_N 	N 	0.06961	0.9099	0.68807	-0.151
Mof_N 	N 	0.08523	0.9397	0.67285	-0.155
Mof_N 	N 	0.1004	0.97466	0.62139	-0.23
Mof_N 	N 	0.12722	0.99874	0.5925	-0.262
Mof_N 	N 	0.15114	0.02001	0.62494	-0.227
Mof_N 	N 	0.1556	0.06397	0.67137	-0.151
Mof_S 	S 	0.95888	0.82689	0.66525	-0.061
Mof_S 	S 	0.1343	0.00491	0.55016	-0.062
Mof_C 	C 	0.60084	0.41105	0.71878	0.041
Mof_H 	H 	0.594	0.3983	0.7154	0.011
Mof_C 	C 	0.59633	0.42845	0.70684	-0.051
Mof_C 	C 	0.606	0.44733	0.71194	0.009
Mof_H 	H 	0.6034	0.4596	0.704	0.037
Mof_C 	C 	0.61944	0.4476	0.72884	-0.099
Mof_H 	H 	0.6261	0.4602	0.7329	0.066
Mof_C 	C 	0.6231	0.42924	0.73985	0.059
Mof_H 	H 	0.6323	0.4296	0.7515	0
Mof_C 	C 	0.46879	0.34302	0.64828	0.096
Mof_C 	C 	0.51534	0.35863	0.66482	0.056
Mof_H 	H 	0.5053	0.3477	0.6636	-0.001
Mof_C 	C 	0.52795	0.35944	0.68264	-0.098
Mof_H 	H 	0.5269	0.3489	0.693	0.065
Mof_C 	C 	0.54177	0.37551	0.68501	0.009
Mof_H 	H 	0.5502	0.3765	0.6972	0.037
Mof_C 	C 	0.54333	0.39057	0.66906	-0.05
Mof_C 	C 	0.53065	0.38826	0.65169	0.039
Mof_H 	H 	0.5318	0.3983	0.6408	0.014
Mof_C 	C 	0.55847	0.40791	0.67038	0.134
Mof_C 	C 	0.5827	0.42619	0.68823	0.138
Mof_C 	C 	0.57422	0.43553	0.6557	0.14
Mof_C 	C 	0.59565	0.46242	0.63725	0.044
Mof_H 	H 	0.6044	0.4628	0.6493	0.009
Mof_C 	C 	0.57836	0.44878	0.63729	-0.053
Mof_C 	C 	0.56601	0.4479	0.61928	0.008
Mof_H 	H 	0.5543	0.4388	0.6185	0.038
Mof_C 	C 	0.57141	0.46063	0.60256	-0.097
Mof_H 	H 	0.5634	0.4603	0.59	0.065
Mof_C 	C 	0.58842	0.47377	0.60415	0.057
Mof_H 	H 	0.5918	0.4825	0.5926	0.002
Mof_C 	C 	0.63009	0.50126	0.57496	0.104
Mof_C 	C 	0.66707	0.5176	0.61136	0.06
Mof_H 	H 	0.6659	0.5073	0.6007	0
Mof_C 	C 	0.68473	0.52925	0.61214	-0.1
Mof_H 	H 	0.6959	0.5266	0.6027	0.068
Mof_C 	C 	0.68645	0.54519	0.62702	0.008
Mof_H 	H 	0.6986	0.5537	0.6278	0.038
Mof_C 	C 	0.66989	0.54822	0.64067	-0.052
Mof_C 	C 	0.65259	0.53496	0.63923	0.043
Mof_H 	H 	0.6414	0.5367	0.6489	0.01
Mof_C 	C 	0.67061	0.56433	0.65696	0.134
Mof_N 	N 	0.61413	0.41093	0.73473	-0.226
Mof_N 	N 	0.47646	0.35431	0.63623	-0.258
Mof_N 	N 	0.51681	0.37273	0.64933	-0.226
Mof_N 	N 	0.56052	0.4203	0.65364	-0.153
Mof_N 	N 	0.56961	0.4099	0.68807	-0.151
Mof_N 	N 	0.58523	0.4397	0.67285	-0.155
Mof_N 	N 	0.6004	0.47466	0.62139	-0.23
Mof_N 	N 	0.62722	0.49874	0.5925	-0.262
Mof_N 	N 	0.65114	0.52001	0.62494	-0.227
Mof_N 	N 	0.6556	0.56397	0.67137	-0.151
Mof_S 	S 	0.45888	0.32689	0.66525	-0.061
Mof_S 	S 	0.6343	0.50491	0.55016	-0.062
Mof_C 	C 	0.60084	0.91105	0.21878	0.041
Mof_H 	H 	0.594	0.8983	0.2154	0.011
Mof_C 	C 	0.59633	0.92845	0.20684	-0.051
Mof_C 	C 	0.606	0.94733	0.21194	0.009
Mof_H 	H 	0.6034	0.9596	0.204	0.037
Mof_C 	C 	0.61944	0.9476	0.22884	-0.099
Mof_H 	H 	0.6261	0.9602	0.2329	0.066
Mof_C 	C 	0.6231	0.92924	0.23985	0.059
Mof_H 	H 	0.6323	0.9296	0.2515	0
Mof_C 	C 	0.46879	0.84302	0.14828	0.096
Mof_C 	C 	0.51534	0.85863	0.16482	0.056
Mof_H 	H 	0.5053	0.8477	0.1636	-0.001
Mof_C 	C 	0.52795	0.85944	0.18264	-0.098
Mof_H 	H 	0.5269	0.8489	0.193	0.065
Mof_C 	C 	0.54177	0.87551	0.18501	0.009
Mof_H 	H 	0.5502	0.8765	0.1972	0.037
Mof_C 	C 	0.54333	0.89057	0.16906	-0.05
Mof_C 	C 	0.53065	0.88826	0.15169	0.039
Mof_H 	H 	0.5318	0.8983	0.1408	0.014
Mof_C 	C 	0.55847	0.90791	0.17038	0.134
Mof_C 	C 	0.5827	0.92619	0.18823	0.138
Mof_C 	C 	0.57422	0.93553	0.1557	0.14
Mof_C 	C 	0.59565	0.96242	0.13725	0.044
Mof_H 	H 	0.6044	0.9628	0.1493	0.009
Mof_C 	C 	0.57836	0.94878	0.13729	-0.053
Mof_C 	C 	0.56601	0.9479	0.11928	0.008
Mof_H 	H 	0.5543	0.9388	0.1185	0.038
Mof_C 	C 	0.57141	0.96063	0.10256	-0.097
Mof_H 	H 	0.5634	0.9603	0.09	0.065
Mof_C 	C 	0.58842	0.97377	0.10415	0.057
Mof_H 	H 	0.5918	0.9825	0.0926	0.002
Mof_C 	C 	0.63009	0.00126	0.07496	0.104
Mof_C 	C 	0.66707	0.0176	0.11136	0.06
Mof_H 	H 	0.6659	0.0073	0.1007	0
Mof_C 	C 	0.68473	0.02925	0.11214	-0.1
Mof_H 	H 	0.6959	0.0266	0.1027	0.068
Mof_C 	C 	0.68645	0.04519	0.12702	0.008
Mof_H 	H 	0.6986	0.0537	0.1278	0.038
Mof_C 	C 	0.66989	0.04822	0.14067	-0.052
Mof_C 	C 	0.65259	0.03496	0.13923	0.043
Mof_H 	H 	0.6414	0.0367	0.1489	0.01
Mof_C 	C 	0.67061	0.06433	0.15696	0.134
Mof_N 	N 	0.61413	0.91093	0.23473	-0.226
Mof_N 	N 	0.47646	0.85431	0.13623	-0.258
Mof_N 	N 	0.51681	0.87273	0.14933	-0.226
Mof_N 	N 	0.56052	0.9203	0.15364	-0.153
Mof_N 	N 	0.56961	0.9099	0.18807	-0.151
Mof_N 	N 	0.58523	0.9397	0.17285	-0.155
Mof_N 	N 	0.6004	0.97466	0.12139	-0.23
Mof_N 	N 	0.62722	0.99874	0.0925	-0.262
Mof_N 	N 	0.65114	0.02001	0.12494	-0.227
Mof_N 	N 	0.6556	0.06397	0.17137	-0.151
Mof_S 	S 	0.45888	0.82689	0.16525	-0.061
Mof_S 	S 	0.6343	0.00491	0.05016	-0.062
Mof_C 	C 	0.60084	0.83895	0.53122	0.041
Mof_H 	H 	0.594	0.8517	0.5346	0.011
Mof_C 	C 	0.59633	0.82155	0.54316	-0.051
Mof_C 	C 	0.606	0.80267	0.53806	0.009
Mof_H 	H 	0.6034	0.7904	0.546	0.037
Mof_C 	C 	0.61944	0.8024	0.52116	-0.099
Mof_H 	H 	0.6261	0.7898	0.5171	0.066
Mof_C 	C 	0.6231	0.82076	0.51015	0.059
Mof_H 	H 	0.6323	0.8204	0.4985	0
Mof_C 	C 	0.46879	0.90698	0.60172	0.096
Mof_C 	C 	0.51534	0.89137	0.58518	0.056
Mof_H 	H 	0.5053	0.9023	0.5864	-0.001
Mof_C 	C 	0.52795	0.89056	0.56736	-0.098
Mof_H 	H 	0.5269	0.9011	0.557	0.065
Mof_C 	C 	0.54177	0.87449	0.56499	0.009
Mof_H 	H 	0.5502	0.8735	0.5528	0.037
Mof_C 	C 	0.54333	0.85943	0.58094	-0.05
Mof_C 	C 	0.53065	0.86174	0.59831	0.039
Mof_H 	H 	0.5318	0.8517	0.6092	0.014
Mof_C 	C 	0.55847	0.84209	0.57962	0.134
Mof_C 	C 	0.5827	0.82381	0.56177	0.138
Mof_C 	C 	0.57422	0.81447	0.5943	0.14
Mof_C 	C 	0.59565	0.78758	0.61275	0.044
Mof_H 	H 	0.6044	0.7872	0.6007	0.009
Mof_C 	C 	0.57836	0.80122	0.61271	-0.053
Mof_C 	C 	0.56601	0.8021	0.63072	0.008
Mof_H 	H 	0.5543	0.8112	0.6315	0.038
Mof_C 	C 	0.57141	0.78937	0.64744	-0.097
Mof_H 	H 	0.5634	0.7897	0.66	0.065
Mof_C 	C 	0.58842	0.77623	0.64585	0.057
Mof_H 	H 	0.5918	0.7675	0.6574	0.002
Mof_C 	C 	0.63009	0.74874	0.67504	0.104
Mof_C 	C 	0.66707	0.7324	0.63864	0.06
Mof_H 	H 	0.6659	0.7427	0.6493	0
Mof_C 	C 	0.68473	0.72075	0.63786	-0.1
Mof_H 	H 	0.6959	0.7234	0.6473	0.068
Mof_C 	C 	0.68645	0.70481	0.62298	0.008
Mof_H 	H 	0.6986	0.6963	0.6222	0.038
Mof_C 	C 	0.66989	0.70178	0.60933	-0.052
Mof_C 	C 	0.65259	0.71504	0.61077	0.043
Mof_H 	H 	0.6414	0.7133	0.6011	0.01
Mof_C 	C 	0.67061	0.68567	0.59304	0.134
Mof_N 	N 	0.61413	0.83907	0.51527	-0.226
Mof_N 	N 	0.47646	0.89569	0.61377	-0.258
Mof_N 	N 	0.51681	0.87727	0.60067	-0.226
Mof_N 	N 	0.56052	0.8297	0.59636	-0.153
Mof_N 	N 	0.56961	0.8401	0.56193	-0.151
Mof_N 	N 	0.58523	0.8103	0.57715	-0.155
Mof_N 	N 	0.6004	0.77534	0.62861	-0.23
Mof_N 	N 	0.62722	0.75126	0.6575	-0.262
Mof_N 	N 	0.65114	0.72999	0.62506	-0.227
Mof_N 	N 	0.6556	0.68603	0.57863	-0.151
Mof_S 	S 	0.45888	0.92311	0.58475	-0.061
Mof_S 	S 	0.6343	0.74509	0.69984	-0.062
Mof_C 	C 	0.60084	0.33895	0.03122	0.041
Mof_H 	H 	0.594	0.3517	0.0346	0.011
Mof_C 	C 	0.59633	0.32155	0.04316	-0.051
Mof_C 	C 	0.606	0.30267	0.03806	0.008
Mof_H 	H 	0.6034	0.2904	0.046	0.037
Mof_C 	C 	0.61944	0.3024	0.02116	-0.099
Mof_H 	H 	0.6261	0.2898	0.0171	0.066
Mof_C 	C 	0.6231	0.32076	0.01015	0.059
Mof_H 	H 	0.6323	0.3204	0.9985	0
Mof_C 	C 	0.46879	0.40698	0.10172	0.096
Mof_C 	C 	0.51534	0.39137	0.08518	0.056
Mof_H 	H 	0.5053	0.4023	0.0864	-0.001
Mof_C 	C 	0.52795	0.39056	0.06736	-0.098
Mof_H 	H 	0.5269	0.4011	0.057	0.065
Mof_C 	C 	0.54177	0.37449	0.06499	0.009
Mof_H 	H 	0.5502	0.3735	0.0528	0.037
Mof_C 	C 	0.54333	0.35943	0.08094	-0.05
Mof_C 	C 	0.53065	0.36174	0.09831	0.039
Mof_H 	H 	0.5318	0.3517	0.1092	0.014
Mof_C 	C 	0.55847	0.34209	0.07962	0.134
Mof_C 	C 	0.5827	0.32381	0.06177	0.138
Mof_C 	C 	0.57422	0.31447	0.0943	0.14
Mof_C 	C 	0.59565	0.28758	0.11275	0.044
Mof_H 	H 	0.6044	0.2872	0.1007	0.009
Mof_C 	C 	0.57836	0.30122	0.11271	-0.053
Mof_C 	C 	0.56601	0.3021	0.13072	0.008
Mof_H 	H 	0.5543	0.3112	0.1315	0.038
Mof_C 	C 	0.57141	0.28937	0.14744	-0.097
Mof_H 	H 	0.5634	0.2897	0.16	0.065
Mof_C 	C 	0.58842	0.27623	0.14585	0.057
Mof_H 	H 	0.5918	0.2675	0.1574	0.002
Mof_C 	C 	0.63009	0.24874	0.17504	0.104
Mof_C 	C 	0.66707	0.2324	0.13864	0.06
Mof_H 	H 	0.6659	0.2427	0.1493	0
Mof_C 	C 	0.68473	0.22075	0.13786	-0.1
Mof_H 	H 	0.6959	0.2234	0.1473	0.068
Mof_C 	C 	0.68645	0.20481	0.12298	0.008
Mof_H 	H 	0.6986	0.1963	0.1222	0.038
Mof_C 	C 	0.66989	0.20178	0.10933	-0.052
Mof_C 	C 	0.65259	0.21504	0.11077	0.043
Mof_H 	H 	0.6414	0.2133	0.1011	0.01
Mof_C 	C 	0.67061	0.18567	0.09304	0.134
Mof_N 	N 	0.61413	0.33907	0.01527	-0.225
Mof_N 	N 	0.47646	0.39569	0.11377	-0.258
Mof_N 	N 	0.51681	0.37727	0.10067	-0.226
Mof_N 	N 	0.56052	0.3297	0.09636	-0.153
Mof_N 	N 	0.56961	0.3401	0.06193	-0.151
Mof_N 	N 	0.58523	0.3103	0.07715	-0.155
Mof_N 	N 	0.6004	0.27534	0.12861	-0.23
Mof_N 	N 	0.62722	0.25126	0.1575	-0.262
Mof_N 	N 	0.65114	0.22999	0.12506	-0.227
Mof_N 	N 	0.6556	0.18603	0.07863	-0.151
Mof_S 	S 	0.45888	0.42311	0.08475	-0.061
Mof_S 	S 	0.6343	0.24509	0.19984	-0.062
Mof_C 	C 	0.10084	0.83895	0.03122	0.041
Mof_H 	H 	0.094	0.8517	0.0346	0.011
Mof_C 	C 	0.09633	0.82155	0.04316	-0.051
Mof_C 	C 	0.106	0.80267	0.03806	0.008
Mof_H 	H 	0.1034	0.7904	0.046	0.037
Mof_C 	C 	0.11944	0.8024	0.02116	-0.099
Mof_H 	H 	0.1261	0.7898	0.0171	0.066
Mof_C 	C 	0.1231	0.82076	0.01015	0.059
Mof_H 	H 	0.1323	0.8204	0.9985	0
Mof_C 	C 	0.96879	0.90698	0.10172	0.096
Mof_C 	C 	0.01534	0.89137	0.08518	0.056
Mof_H 	H 	0.0053	0.9023	0.0864	-0.001
Mof_C 	C 	0.02795	0.89056	0.06736	-0.098
Mof_H 	H 	0.0269	0.9011	0.057	0.065
Mof_C 	C 	0.04177	0.87449	0.06499	0.009
Mof_H 	H 	0.0502	0.8735	0.0528	0.037
Mof_C 	C 	0.04333	0.85943	0.08094	-0.05
Mof_C 	C 	0.03065	0.86174	0.09831	0.039
Mof_H 	H 	0.0318	0.8517	0.1092	0.014
Mof_C 	C 	0.05847	0.84209	0.07962	0.134
Mof_C 	C 	0.0827	0.82381	0.06177	0.138
Mof_C 	C 	0.07422	0.81447	0.0943	0.14
Mof_C 	C 	0.09565	0.78758	0.11275	0.044
Mof_H 	H 	0.1044	0.7872	0.1007	0.009
Mof_C 	C 	0.07836	0.80122	0.11271	-0.053
Mof_C 	C 	0.06601	0.8021	0.13072	0.008
Mof_H 	H 	0.0543	0.8112	0.1315	0.038
Mof_C 	C 	0.07141	0.78937	0.14744	-0.097
Mof_H 	H 	0.0634	0.7897	0.16	0.065
Mof_C 	C 	0.08842	0.77623	0.14585	0.057
Mof_H 	H 	0.0918	0.7675	0.1574	0.002
Mof_C 	C 	0.13009	0.74874	0.17504	0.104
Mof_C 	C 	0.16707	0.7324	0.13864	0.06
Mof_H 	H 	0.1659	0.7427	0.1493	0
Mof_C 	C 	0.18473	0.72075	0.13786	-0.1
Mof_H 	H 	0.1959	0.7234	0.1473	0.068
Mof_C 	C 	0.18645	0.70481	0.12298	0.008
Mof_H 	H 	0.1986	0.6963	0.1222	0.038
Mof_C 	C 	0.16989	0.70178	0.10933	-0.052
Mof_C 	C 	0.15259	0.71504	0.11077	0.043
Mof_H 	H 	0.1414	0.7133	0.1011	0.01
Mof_C 	C 	0.17061	0.68567	0.09304	0.134
Mof_N 	N 	0.11413	0.83907	0.01527	-0.225
Mof_N 	N 	0.97646	0.89569	0.11377	-0.258
Mof_N 	N 	0.01681	0.87727	0.10067	-0.226
Mof_N 	N 	0.06052	0.8297	0.09636	-0.153
Mof_N 	N 	0.06961	0.8401	0.06193	-0.151
Mof_N 	N 	0.08523	0.8103	0.07715	-0.155
Mof_N 	N 	0.1004	0.77534	0.12861	-0.23
Mof_N 	N 	0.12722	0.75126	0.1575	-0.262
Mof_N 	N 	0.15114	0.72999	0.12506	-0.227
Mof_N 	N 	0.1556	0.68603	0.07863	-0.151
Mof_S 	S 	0.95888	0.92311	0.08475	-0.061
Mof_S 	S 	0.1343	0.74509	0.19984	-0.062
Mof_C 	C 	0.10084	0.33895	0.53122	0.041
Mof_H 	H 	0.094	0.3517	0.5346	0.011
Mof_C 	C 	0.09633	0.32155	0.54316	-0.051
Mof_C 	C 	0.106	0.30267	0.53806	0.009
Mof_H 	H 	0.1034	0.2904	0.546	0.037
Mof_C 	C 	0.11944	0.3024	0.52116	-0.099
Mof_H 	H 	0.1261	0.2898	0.5171	0.066
Mof_C 	C 	0.1231	0.32076	0.51015	0.059
Mof_H 	H 	0.1323	0.3204	0.4985	0
Mof_C 	C 	0.96879	0.40698	0.60172	0.096
Mof_C 	C 	0.01534	0.39137	0.58518	0.056
Mof_H 	H 	0.0053	0.4023	0.5864	-0.001
Mof_C 	C 	0.02795	0.39056	0.56736	-0.098
Mof_H 	H 	0.0269	0.4011	0.557	0.065
Mof_C 	C 	0.04177	0.37449	0.56499	0.009
Mof_H 	H 	0.0502	0.3735	0.5528	0.037
Mof_C 	C 	0.04333	0.35943	0.58094	-0.05
Mof_C 	C 	0.03065	0.36174	0.59831	0.039
Mof_H 	H 	0.0318	0.3517	0.6092	0.014
Mof_C 	C 	0.05847	0.34209	0.57962	0.134
Mof_C 	C 	0.0827	0.32381	0.56177	0.138
Mof_C 	C 	0.07422	0.31447	0.5943	0.14
Mof_C 	C 	0.09565	0.28758	0.61275	0.044
Mof_H 	H 	0.1044	0.2872	0.6007	0.009
Mof_C 	C 	0.07836	0.30122	0.61271	-0.053
Mof_C 	C 	0.06601	0.3021	0.63072	0.008
Mof_H 	H 	0.0543	0.3112	0.6315	0.038
Mof_C 	C 	0.07141	0.28937	0.64744	-0.097
Mof_H 	H 	0.0634	0.2897	0.66	0.065
Mof_C 	C 	0.08842	0.27623	0.64585	0.057
Mof_H 	H 	0.0918	0.2675	0.6574	0.002
Mof_C 	C 	0.13009	0.24874	0.67504	0.104
Mof_C 	C 	0.16707	0.2324	0.63864	0.06
Mof_H 	H 	0.1659	0.2427	0.6493	0
Mof_C 	C 	0.18473	0.22075	0.63786	-0.1
Mof_H 	H 	0.1959	0.2234	0.6473	0.068
Mof_C 	C 	0.18645	0.20481	0.62298	0.008
Mof_H 	H 	0.1986	0.1963	0.6222	0.038
Mof_C 	C 	0.16989	0.20178	0.60933	-0.052
Mof_C 	C 	0.15259	0.21504	0.61077	0.043
Mof_H 	H 	0.1414	0.2133	0.6011	0.01
Mof_C 	C 	0.17061	0.18567	0.59304	0.134
Mof_N 	N 	0.11413	0.33907	0.51527	-0.226
Mof_N 	N 	0.97646	0.39569	0.61377	-0.258
Mof_N 	N 	0.01681	0.37727	0.60067	-0.226
Mof_N 	N 	0.06052	0.3297	0.59636	-0.153
Mof_N 	N 	0.06961	0.3401	0.56193	-0.151
Mof_N 	N 	0.08523	0.3103	0.57715	-0.155
Mof_N 	N 	0.1004	0.27534	0.62861	-0.23
Mof_N 	N 	0.12722	0.25126	0.6575	-0.262
Mof_N 	N 	0.15114	0.22999	0.62506	-0.227
Mof_N 	N 	0.1556	0.18603	0.57863	-0.151
Mof_S 	S 	0.95888	0.42311	0.58475	-0.061
Mof_S 	S 	0.1343	0.24509	0.69984	-0.062
Mof_C 	C 	0.14916	0.33895	0.71878	0.041
Mof_H 	H 	0.156	0.3517	0.7154	0.011
Mof_C 	C 	0.15367	0.32155	0.70684	-0.051
Mof_C 	C 	0.144	0.30267	0.71194	0.009
Mof_H 	H 	0.1466	0.2904	0.704	0.037
Mof_C 	C 	0.13056	0.3024	0.72884	-0.099
Mof_H 	H 	0.1239	0.2898	0.7329	0.066
Mof_C 	C 	0.1269	0.32076	0.73985	0.059
Mof_H 	H 	0.1177	0.3204	0.7515	0
Mof_C 	C 	0.28121	0.40698	0.64828	0.096
Mof_C 	C 	0.23466	0.39137	0.66482	0.056
Mof_H 	H 	0.2447	0.4023	0.6636	-0.001
Mof_C 	C 	0.22205	0.39056	0.68264	-0.098
Mof_H 	H 	0.2231	0.4011	0.693	0.065
Mof_C 	C 	0.20823	0.37449	0.68501	0.009
Mof_H 	H 	0.1998	0.3735	0.6972	0.037
Mof_C 	C 	0.20667	0.35943	0.66906	-0.05
Mof_C 	C 	0.21935	0.36174	0.65169	0.039
Mof_H 	H 	0.2182	0.3517	0.6408	0.014
Mof_C 	C 	0.19153	0.34209	0.67038	0.134
Mof_C 	C 	0.1673	0.32381	0.68823	0.138
Mof_C 	C 	0.17578	0.31447	0.6557	0.14
Mof_C 	C 	0.15435	0.28758	0.63725	0.044
Mof_H 	H 	0.1456	0.2872	0.6493	0.009
Mof_C 	C 	0.17164	0.30122	0.63729	-0.053
Mof_C 	C 	0.18399	0.3021	0.61928	0.008
Mof_H 	H 	0.1957	0.3112	0.6185	0.038
Mof_C 	C 	0.17859	0.28937	0.60256	-0.097
Mof_H 	H 	0.1866	0.2897	0.59	0.065
Mof_C 	C 	0.16158	0.27623	0.60415	0.057
Mof_H 	H 	0.1582	0.2675	0.5926	0.002
Mof_C 	C 	0.11991	0.24874	0.57496	0.104
Mof_C 	C 	0.08293	0.2324	0.61136	0.06
Mof_H 	H 	0.0841	0.2427	0.6007	0
Mof_C 	C 	0.06527	0.22075	0.61214	-0.1
Mof_H 	H 	0.0541	0.2234	0.6027	0.068
Mof_C 	C 	0.06355	0.20481	0.62702	0.008
Mof_H 	H 	0.0514	0.1963	0.6278	0.038
Mof_C 	C 	0.08011	0.20178	0.64067	-0.052
Mof_C 	C 	0.09741	0.21504	0.63923	0.043
Mof_H 	H 	0.1086	0.2133	0.6489	0.01
Mof_C 	C 	0.07939	0.18567	0.65696	0.134
Mof_N 	N 	0.13587	0.33907	0.73473	-0.226
Mof_N 	N 	0.27354	0.39569	0.63623	-0.258
Mof_N 	N 	0.23319	0.37727	0.64933	-0.226
Mof_N 	N 	0.18948	0.3297	0.65364	-0.153
Mof_N 	N 	0.18039	0.3401	0.68807	-0.151
Mof_N 	N 	0.16477	0.3103	0.67285	-0.155
Mof_N 	N 	0.1496	0.27534	0.62139	-0.23
Mof_N 	N 	0.12278	0.25126	0.5925	-0.262
Mof_N 	N 	0.09886	0.22999	0.62494	-0.227
Mof_N 	N 	0.0944	0.18603	0.67137	-0.151
Mof_S 	S 	0.29112	0.42311	0.66525	-0.061
Mof_S 	S 	0.1157	0.24509	0.55016	-0.062
Mof_C 	C 	0.14916	0.83895	0.21878	0.041
Mof_H 	H 	0.156	0.8517	0.2154	0.011
Mof_C 	C 	0.15367	0.82155	0.20684	-0.051
Mof_C 	C 	0.144	0.80267	0.21194	0.009
Mof_H 	H 	0.1466	0.7904	0.204	0.037
Mof_C 	C 	0.13056	0.8024	0.22884	-0.099
Mof_H 	H 	0.1239	0.7898	0.2329	0.066
Mof_C 	C 	0.1269	0.82076	0.23985	0.059
Mof_H 	H 	0.1177	0.8204	0.2515	0
Mof_C 	C 	0.28121	0.90698	0.14828	0.096
Mof_C 	C 	0.23466	0.89137	0.16482	0.056
Mof_H 	H 	0.2447	0.9023	0.1636	-0.001
Mof_C 	C 	0.22205	0.89056	0.18264	-0.098
Mof_H 	H 	0.2231	0.9011	0.193	0.065
Mof_C 	C 	0.20823	0.87449	0.18501	0.009
Mof_H 	H 	0.1998	0.8735	0.1972	0.037
Mof_C 	C 	0.20667	0.85943	0.16906	-0.05
Mof_C 	C 	0.21935	0.86174	0.15169	0.039
Mof_H 	H 	0.2182	0.8517	0.1408	0.014
Mof_C 	C 	0.19153	0.84209	0.17038	0.134
Mof_C 	C 	0.1673	0.82381	0.18823	0.138
Mof_C 	C 	0.17578	0.81447	0.1557	0.14
Mof_C 	C 	0.15435	0.78758	0.13725	0.044
Mof_H 	H 	0.1456	0.7872	0.1493	0.009
Mof_C 	C 	0.17164	0.80122	0.13729	-0.053
Mof_C 	C 	0.18399	0.8021	0.11928	0.008
Mof_H 	H 	0.1957	0.8112	0.1185	0.038
Mof_C 	C 	0.17859	0.78937	0.10256	-0.097
Mof_H 	H 	0.1866	0.7897	0.09	0.065
Mof_C 	C 	0.16158	0.77623	0.10415	0.057
Mof_H 	H 	0.1582	0.7675	0.0926	0.002
Mof_C 	C 	0.11991	0.74874	0.07496	0.104
Mof_C 	C 	0.08293	0.7324	0.11136	0.06
Mof_H 	H 	0.0841	0.7427	0.1007	0
Mof_C 	C 	0.06527	0.72075	0.11214	-0.1
Mof_H 	H 	0.0541	0.7234	0.1027	0.068
Mof_C 	C 	0.06355	0.70481	0.12702	0.008
Mof_H 	H 	0.0514	0.6963	0.1278	0.038
Mof_C 	C 	0.08011	0.70178	0.14067	-0.052
Mof_C 	C 	0.09741	0.71504	0.13923	0.043
Mof_H 	H 	0.1086	0.7133	0.1489	0.01
Mof_C 	C 	0.07939	0.68567	0.15696	0.134
Mof_N 	N 	0.13587	0.83907	0.23473	-0.226
Mof_N 	N 	0.27354	0.89569	0.13623	-0.258
Mof_N 	N 	0.23319	0.87727	0.14933	-0.226
Mof_N 	N 	0.18948	0.8297	0.15364	-0.153
Mof_N 	N 	0.18039	0.8401	0.18807	-0.151
Mof_N 	N 	0.16477	0.8103	0.17285	-0.155
Mof_N 	N 	0.1496	0.77534	0.12139	-0.23
Mof_N 	N 	0.12278	0.75126	0.0925	-0.262
Mof_N 	N 	0.09886	0.72999	0.12494	-0.227
Mof_N 	N 	0.0944	0.68603	0.17137	-0.151
Mof_S 	S 	0.29112	0.92311	0.16525	-0.061
Mof_S 	S 	0.1157	0.74509	0.05016	-0.062
Mof_C 	C 	0.64916	0.33895	0.21878	0.041
Mof_H 	H 	0.656	0.3517	0.2154	0.011
Mof_C 	C 	0.65367	0.32155	0.20684	-0.051
Mof_C 	C 	0.644	0.30267	0.21194	0.009
Mof_H 	H 	0.6466	0.2904	0.204	0.037
Mof_C 	C 	0.63056	0.3024	0.22884	-0.099
Mof_H 	H 	0.6239	0.2898	0.2329	0.066
Mof_C 	C 	0.6269	0.32076	0.23985	0.059
Mof_H 	H 	0.6177	0.3204	0.2515	0
Mof_C 	C 	0.78121	0.40698	0.14828	0.096
Mof_C 	C 	0.73466	0.39137	0.16482	0.056
Mof_H 	H 	0.7447	0.4023	0.1636	-0.001
Mof_C 	C 	0.72205	0.39056	0.18264	-0.098
Mof_H 	H 	0.7231	0.4011	0.193	0.065
Mof_C 	C 	0.70823	0.37449	0.18501	0.009
Mof_H 	H 	0.6998	0.3735	0.1972	0.037
Mof_C 	C 	0.70667	0.35943	0.16906	-0.05
Mof_C 	C 	0.71935	0.36174	0.15169	0.039
Mof_H 	H 	0.7182	0.3517	0.1408	0.014
Mof_C 	C 	0.69153	0.34209	0.17038	0.134
Mof_C 	C 	0.6673	0.32381	0.18823	0.138
Mof_C 	C 	0.67578	0.31447	0.1557	0.14
Mof_C 	C 	0.65435	0.28758	0.13725	0.044
Mof_H 	H 	0.6456	0.2872	0.1493	0.009
Mof_C 	C 	0.67164	0.30122	0.13729	-0.053
Mof_C 	C 	0.68399	0.3021	0.11928	0.008
Mof_H 	H 	0.6957	0.3112	0.1185	0.038
Mof_C 	C 	0.67859	0.28937	0.10256	-0.097
Mof_H 	H 	0.6866	0.2897	0.09	0.065
Mof_C 	C 	0.66158	0.27623	0.10415	0.057
Mof_H 	H 	0.6582	0.2675	0.0926	0.002
Mof_C 	C 	0.61991	0.24874	0.07496	0.104
Mof_C 	C 	0.58293	0.2324	0.11136	0.06
Mof_H 	H 	0.5841	0.2427	0.1007	0
Mof_C 	C 	0.56527	0.22075	0.11214	-0.1
Mof_H 	H 	0.5541	0.2234	0.1027	0.068
Mof_C 	C 	0.56355	0.20481	0.12702	0.008
Mof_H 	H 	0.5514	0.1963	0.1278	0.038
Mof_C 	C 	0.58011	0.20178	0.14067	-0.052
Mof_C 	C 	0.59741	0.21504	0.13923	0.043
Mof_H 	H 	0.6086	0.2133	0.1489	0.01
Mof_C 	C 	0.57939	0.18567	0.15696	0.134
Mof_N 	N 	0.63587	0.33907	0.23473	-0.226
Mof_N 	N 	0.77354	0.39569	0.13623	-0.258
Mof_N 	N 	0.73319	0.37727	0.14933	-0.226
Mof_N 	N 	0.68948	0.3297	0.15364	-0.153
Mof_N 	N 	0.68039	0.3401	0.18807	-0.151
Mof_N 	N 	0.66477	0.3103	0.17285	-0.155
Mof_N 	N 	0.6496	0.27534	0.12139	-0.23
Mof_N 	N 	0.62278	0.25126	0.0925	-0.262
Mof_N 	N 	0.59886	0.22999	0.12494	-0.227
Mof_N 	N 	0.5944	0.18603	0.17137	-0.151
Mof_S 	S 	0.79112	0.42311	0.16525	-0.061
Mof_S 	S 	0.6157	0.24509	0.05016	-0.062
Mof_C 	C 	0.64916	0.83895	0.71878	0.041
Mof_H 	H 	0.656	0.8517	0.7154	0.011
Mof_C 	C 	0.65367	0.82155	0.70684	-0.051
Mof_C 	C 	0.644	0.80267	0.71194	0.009
Mof_H 	H 	0.6466	0.7904	0.704	0.037
Mof_C 	C 	0.63056	0.8024	0.72884	-0.099
Mof_H 	H 	0.6239	0.7898	0.7329	0.066
Mof_C 	C 	0.6269	0.82076	0.73985	0.059
Mof_H 	H 	0.6177	0.8204	0.7515	0
Mof_C 	C 	0.78121	0.90698	0.64828	0.096
Mof_C 	C 	0.73466	0.89137	0.66482	0.056
Mof_H 	H 	0.7447	0.9023	0.6636	-0.001
Mof_C 	C 	0.72205	0.89056	0.68264	-0.098
Mof_H 	H 	0.7231	0.9011	0.693	0.065
Mof_C 	C 	0.70823	0.87449	0.68501	0.009
Mof_H 	H 	0.6998	0.8735	0.6972	0.037
Mof_C 	C 	0.70667	0.85943	0.66906	-0.05
Mof_C 	C 	0.71935	0.86174	0.65169	0.039
Mof_H 	H 	0.7182	0.8517	0.6408	0.014
Mof_C 	C 	0.69153	0.84209	0.67038	0.134
Mof_C 	C 	0.6673	0.82381	0.68823	0.138
Mof_C 	C 	0.67578	0.81447	0.6557	0.14
Mof_C 	C 	0.65435	0.78758	0.63725	0.044
Mof_H 	H 	0.6456	0.7872	0.6493	0.009
Mof_C 	C 	0.67164	0.80122	0.63729	-0.053
Mof_C 	C 	0.68399	0.8021	0.61928	0.008
Mof_H 	H 	0.6957	0.8112	0.6185	0.038
Mof_C 	C 	0.67859	0.78937	0.60256	-0.097
Mof_H 	H 	0.6866	0.7897	0.59	0.065
Mof_C 	C 	0.66158	0.77623	0.60415	0.057
Mof_H 	H 	0.6582	0.7675	0.5926	0.002
Mof_C 	C 	0.61991	0.74874	0.57496	0.104
Mof_C 	C 	0.58293	0.7324	0.61136	0.06
Mof_H 	H 	0.5841	0.7427	0.6007	0
Mof_C 	C 	0.56527	0.72075	0.61214	-0.1
Mof_H 	H 	0.5541	0.7234	0.6027	0.068
Mof_C 	C 	0.56355	0.70481	0.62702	0.008
Mof_H 	H 	0.5514	0.6963	0.6278	0.038
Mof_C 	C 	0.58011	0.70178	0.64067	-0.052
Mof_C 	C 	0.59741	0.71504	0.63923	0.043
Mof_H 	H 	0.6086	0.7133	0.6489	0.01
Mof_C 	C 	0.57939	0.68567	0.65696	0.134
Mof_N 	N 	0.63587	0.83907	0.73473	-0.226
Mof_N 	N 	0.77354	0.89569	0.63623	-0.258
Mof_N 	N 	0.73319	0.87727	0.64933	-0.226
Mof_N 	N 	0.68948	0.8297	0.65364	-0.153
Mof_N 	N 	0.68039	0.8401	0.68807	-0.151
Mof_N 	N 	0.66477	0.8103	0.67285	-0.155
Mof_N 	N 	0.6496	0.77534	0.62139	-0.23
Mof_N 	N 	0.62278	0.75126	0.5925	-0.262
Mof_N 	N 	0.59886	0.72999	0.62494	-0.227
Mof_N 	N 	0.5944	0.68603	0.67137	-0.151
Mof_S 	S 	0.79112	0.92311	0.66525	-0.061
Mof_S 	S 	0.6157	0.74509	0.55016	-0.062
Mof_C 	C 	0.64916	0.91105	0.03122	0.041
Mof_H 	H 	0.656	0.8983	0.0346	0.011
Mof_C 	C 	0.65367	0.92845	0.04316	-0.051
Mof_C 	C 	0.644	0.94733	0.03806	0.008
Mof_H 	H 	0.6466	0.9596	0.046	0.037
Mof_C 	C 	0.63056	0.9476	0.02116	-0.099
Mof_H 	H 	0.6239	0.9602	0.0171	0.066
Mof_C 	C 	0.6269	0.92924	0.01015	0.059
Mof_H 	H 	0.6177	0.9296	0.9985	0
Mof_C 	C 	0.78121	0.84302	0.10172	0.096
Mof_C 	C 	0.73466	0.85863	0.08518	0.056
Mof_H 	H 	0.7447	0.8477	0.0864	-0.001
Mof_C 	C 	0.72205	0.85944	0.06736	-0.098
Mof_H 	H 	0.7231	0.8489	0.057	0.065
Mof_C 	C 	0.70823	0.87551	0.06499	0.009
Mof_H 	H 	0.6998	0.8765	0.0528	0.037
Mof_C 	C 	0.70667	0.89057	0.08094	-0.05
Mof_C 	C 	0.71935	0.88826	0.09831	0.039
Mof_H 	H 	0.7182	0.8983	0.1092	0.014
Mof_C 	C 	0.69153	0.90791	0.07962	0.134
Mof_C 	C 	0.6673	0.92619	0.06177	0.138
Mof_C 	C 	0.67578	0.93553	0.0943	0.14
Mof_C 	C 	0.65435	0.96242	0.11275	0.044
Mof_H 	H 	0.6456	0.9628	0.1007	0.009
Mof_C 	C 	0.67164	0.94878	0.11271	-0.053
Mof_C 	C 	0.68399	0.9479	0.13072	0.008
Mof_H 	H 	0.6957	0.9388	0.1315	0.038
Mof_C 	C 	0.67859	0.96063	0.14744	-0.097
Mof_H 	H 	0.6866	0.9603	0.16	0.065
Mof_C 	C 	0.66158	0.97377	0.14585	0.057
Mof_H 	H 	0.6582	0.9825	0.1574	0.002
Mof_C 	C 	0.61991	0.00126	0.17504	0.104
Mof_C 	C 	0.58293	0.0176	0.13864	0.06
Mof_H 	H 	0.5841	0.0073	0.1493	0
Mof_C 	C 	0.56527	0.02925	0.13786	-0.1
Mof_H 	H 	0.5541	0.0266	0.1473	0.068
Mof_C 	C 	0.56355	0.04519	0.12298	0.008
Mof_H 	H 	0.5514	0.0537	0.1222	0.038
Mof_C 	C 	0.58011	0.04822	0.10933	-0.052
Mof_C 	C 	0.59741	0.03496	0.11077	0.043
Mof_H 	H 	0.6086	0.0367	0.1011	0.01
Mof_C 	C 	0.57939	0.06433	0.09304	0.134
Mof_N 	N 	0.63587	0.91093	0.01527	-0.225
Mof_N 	N 	0.77354	0.85431	0.11377	-0.258
Mof_N 	N 	0.73319	0.87273	0.10067	-0.226
Mof_N 	N 	0.68948	0.9203	0.09636	-0.153
Mof_N 	N 	0.68039	0.9099	0.06193	-0.151
Mof_N 	N 	0.66477	0.9397	0.07715	-0.155
Mof_N 	N 	0.6496	0.97466	0.12861	-0.23
Mof_N 	N 	0.62278	0.99874	0.1575	-0.262
Mof_N 	N 	0.59886	0.02001	0.12506	-0.227
Mof_N 	N 	0.5944	0.06397	0.07863	-0.151
Mof_S 	S 	0.79112	0.82689	0.08475	-0.061
Mof_S 	S 	0.6157	0.00491	0.19984	-0.062
Mof_C 	C 	0.64916	0.41105	0.53122	0.041
Mof_H 	H 	0.656	0.3983	0.5346	0.011
Mof_C 	C 	0.65367	0.42845	0.54316	-0.051
Mof_C 	C 	0.644	0.44733	0.53806	0.009
Mof_H 	H 	0.6466	0.4596	0.546	0.037
Mof_C 	C 	0.63056	0.4476	0.52116	-0.099
Mof_H 	H 	0.6239	0.4602	0.5171	0.066
Mof_C 	C 	0.6269	0.42924	0.51015	0.059
Mof_H 	H 	0.6177	0.4296	0.4985	0
Mof_C 	C 	0.78121	0.34302	0.60172	0.096
Mof_C 	C 	0.73466	0.35863	0.58518	0.056
Mof_H 	H 	0.7447	0.3477	0.5864	-0.001
Mof_C 	C 	0.72205	0.35944	0.56736	-0.098
Mof_H 	H 	0.7231	0.3489	0.557	0.065
Mof_C 	C 	0.70823	0.37551	0.56499	0.009
Mof_H 	H 	0.6998	0.3765	0.5528	0.037
Mof_C 	C 	0.70667	0.39057	0.58094	-0.05
Mof_C 	C 	0.71935	0.38826	0.59831	0.039
Mof_H 	H 	0.7182	0.3983	0.6092	0.014
Mof_C 	C 	0.69153	0.40791	0.57962	0.134
Mof_C 	C 	0.6673	0.42619	0.56177	0.138
Mof_C 	C 	0.67578	0.43553	0.5943	0.14
Mof_C 	C 	0.65435	0.46242	0.61275	0.044
Mof_H 	H 	0.6456	0.4628	0.6007	0.009
Mof_C 	C 	0.67164	0.44878	0.61271	-0.053
Mof_C 	C 	0.68399	0.4479	0.63072	0.008
Mof_H 	H 	0.6957	0.4388	0.6315	0.038
Mof_C 	C 	0.67859	0.46063	0.64744	-0.097
Mof_H 	H 	0.6866	0.4603	0.66	0.065
Mof_C 	C 	0.66158	0.47377	0.64585	0.057
Mof_H 	H 	0.6582	0.4825	0.6574	0.002
Mof_C 	C 	0.61991	0.50126	0.67504	0.104
Mof_C 	C 	0.58293	0.5176	0.63864	0.06
Mof_H 	H 	0.5841	0.5073	0.6493	0
Mof_C 	C 	0.56527	0.52925	0.63786	-0.1
Mof_H 	H 	0.5541	0.5266	0.6473	0.068
Mof_C 	C 	0.56355	0.54519	0.62298	0.008
Mof_H 	H 	0.5514	0.5537	0.6222	0.038
Mof_C 	C 	0.58011	0.54822	0.60933	-0.052
Mof_C 	C 	0.59741	0.53496	0.61077	0.043
Mof_H 	H 	0.6086	0.5367	0.6011	0.01
Mof_C 	C 	0.57939	0.56433	0.59304	0.134
Mof_N 	N 	0.63587	0.41093	0.51527	-0.226
Mof_N 	N 	0.77354	0.35431	0.61377	-0.258
Mof_N 	N 	0.73319	0.37273	0.60067	-0.226
Mof_N 	N 	0.68948	0.4203	0.59636	-0.153
Mof_N 	N 	0.68039	0.4099	0.56193	-0.151
Mof_N 	N 	0.66477	0.4397	0.57715	-0.155
Mof_N 	N 	0.6496	0.47466	0.62861	-0.23
Mof_N 	N 	0.62278	0.49874	0.6575	-0.262
Mof_N 	N 	0.59886	0.52001	0.62506	-0.227
Mof_N 	N 	0.5944	0.56397	0.57863	-0.151
Mof_S 	S 	0.79112	0.32689	0.58475	-0.061
Mof_S 	S 	0.6157	0.50491	0.69984	-0.062
Mof_C 	C 	0.14916	0.91105	0.53122	0.041
Mof_H 	H 	0.156	0.8983	0.5346	0.011
Mof_C 	C 	0.15367	0.92845	0.54316	-0.051
Mof_C 	C 	0.144	0.94733	0.53806	0.009
Mof_H 	H 	0.1466	0.9596	0.546	0.037
Mof_C 	C 	0.13056	0.9476	0.52116	-0.099
Mof_H 	H 	0.1239	0.9602	0.5171	0.066
Mof_C 	C 	0.1269	0.92924	0.51015	0.059
Mof_H 	H 	0.1177	0.9296	0.4985	0
Mof_C 	C 	0.28121	0.84302	0.60172	0.096
Mof_C 	C 	0.23466	0.85863	0.58518	0.056
Mof_H 	H 	0.2447	0.8477	0.5864	-0.001
Mof_C 	C 	0.22205	0.85944	0.56736	-0.098
Mof_H 	H 	0.2231	0.8489	0.557	0.065
Mof_C 	C 	0.20823	0.87551	0.56499	0.009
Mof_H 	H 	0.1998	0.8765	0.5528	0.037
Mof_C 	C 	0.20667	0.89057	0.58094	-0.05
Mof_C 	C 	0.21935	0.88826	0.59831	0.039
Mof_H 	H 	0.2182	0.8983	0.6092	0.014
Mof_C 	C 	0.19153	0.90791	0.57962	0.134
Mof_C 	C 	0.1673	0.92619	0.56177	0.138
Mof_C 	C 	0.17578	0.93553	0.5943	0.14
Mof_C 	C 	0.15435	0.96242	0.61275	0.044
Mof_H 	H 	0.1456	0.9628	0.6007	0.009
Mof_C 	C 	0.17164	0.94878	0.61271	-0.053
Mof_C 	C 	0.18399	0.9479	0.63072	0.008
Mof_H 	H 	0.1957	0.9388	0.6315	0.038
Mof_C 	C 	0.17859	0.96063	0.64744	-0.097
Mof_H 	H 	0.1866	0.9603	0.66	0.065
Mof_C 	C 	0.16158	0.97377	0.64585	0.057
Mof_H 	H 	0.1582	0.9825	0.6574	0.002
Mof_C 	C 	0.11991	0.00126	0.67504	0.104
Mof_C 	C 	0.08293	0.0176	0.63864	0.06
Mof_H 	H 	0.0841	0.0073	0.6493	0
Mof_C 	C 	0.06527	0.02925	0.63786	-0.1
Mof_H 	H 	0.0541	0.0266	0.6473	0.068
Mof_C 	C 	0.06355	0.04519	0.62298	0.008
Mof_H 	H 	0.0514	0.0537	0.6222	0.038
Mof_C 	C 	0.08011	0.04822	0.60933	-0.052
Mof_C 	C 	0.09741	0.03496	0.61077	0.043
Mof_H 	H 	0.1086	0.0367	0.6011	0.01
Mof_C 	C 	0.07939	0.06433	0.59304	0.134
Mof_N 	N 	0.13587	0.91093	0.51527	-0.226
Mof_N 	N 	0.27354	0.85431	0.61377	-0.258
Mof_N 	N 	0.23319	0.87273	0.60067	-0.226
Mof_N 	N 	0.18948	0.9203	0.59636	-0.153
Mof_N 	N 	0.18039	0.9099	0.56193	-0.151
Mof_N 	N 	0.16477	0.9397	0.57715	-0.155
Mof_N 	N 	0.1496	0.97466	0.62861	-0.23
Mof_N 	N 	0.12278	0.99874	0.6575	-0.262
Mof_N 	N 	0.09886	0.02001	0.62506	-0.227
Mof_N 	N 	0.0944	0.06397	0.57863	-0.151
Mof_S 	S 	0.29112	0.82689	0.58475	-0.061
Mof_S 	S 	0.1157	0.00491	0.69984	-0.062
Mof_C 	C 	0.14916	0.41105	0.03122	0.041
Mof_H 	H 	0.156	0.3983	0.0346	0.011
Mof_C 	C 	0.15367	0.42845	0.04316	-0.051
Mof_C 	C 	0.144	0.44733	0.03806	0.008
Mof_H 	H 	0.1466	0.4596	0.046	0.037
Mof_C 	C 	0.13056	0.4476	0.02116	-0.099
Mof_H 	H 	0.1239	0.4602	0.0171	0.066
Mof_C 	C 	0.1269	0.42924	0.01015	0.059
Mof_H 	H 	0.1177	0.4296	0.9985	0
Mof_C 	C 	0.28121	0.34302	0.10172	0.096
Mof_C 	C 	0.23466	0.35863	0.08518	0.056
Mof_H 	H 	0.2447	0.3477	0.0864	-0.001
Mof_C 	C 	0.22205	0.35944	0.06736	-0.098
Mof_H 	H 	0.2231	0.3489	0.057	0.065
Mof_C 	C 	0.20823	0.37551	0.06499	0.009
Mof_H 	H 	0.1998	0.3765	0.0528	0.037
Mof_C 	C 	0.20667	0.39057	0.08094	-0.05
Mof_C 	C 	0.21935	0.38826	0.09831	0.039
Mof_H 	H 	0.2182	0.3983	0.1092	0.014
Mof_C 	C 	0.19153	0.40791	0.07962	0.134
Mof_C 	C 	0.1673	0.42619	0.06177	0.138
Mof_C 	C 	0.17578	0.43553	0.0943	0.14
Mof_C 	C 	0.15435	0.46242	0.11275	0.044
Mof_H 	H 	0.1456	0.4628	0.1007	0.009
Mof_C 	C 	0.17164	0.44878	0.11271	-0.053
Mof_C 	C 	0.18399	0.4479	0.13072	0.008
Mof_H 	H 	0.1957	0.4388	0.1315	0.038
Mof_C 	C 	0.17859	0.46063	0.14744	-0.097
Mof_H 	H 	0.1866	0.4603	0.16	0.065
Mof_C 	C 	0.16158	0.47377	0.14585	0.057
Mof_H 	H 	0.1582	0.4825	0.1574	0.002
Mof_C 	C 	0.11991	0.50126	0.17504	0.104
Mof_C 	C 	0.08293	0.5176	0.13864	0.06
Mof_H 	H 	0.0841	0.5073	0.1493	0
Mof_C 	C 	0.06527	0.52925	0.13786	-0.1
Mof_H 	H 	0.0541	0.5266	0.1473	0.068
Mof_C 	C 	0.06355	0.54519	0.12298	0.008
Mof_H 	H 	0.0514	0.5537	0.1222	0.038
Mof_C 	C 	0.08011	0.54822	0.10933	-0.052
Mof_C 	C 	0.09741	0.53496	0.11077	0.043
Mof_H 	H 	0.1086	0.5367	0.1011	0.01
Mof_C 	C 	0.07939	0.56433	0.09304	0.134
Mof_N 	N 	0.13587	0.41093	0.01527	-0.225
Mof_N 	N 	0.27354	0.35431	0.11377	-0.258
Mof_N 	N 	0.23319	0.37273	0.10067	-0.226
Mof_N 	N 	0.18948	0.4203	0.09636	-0.153
Mof_N 	N 	0.18039	0.4099	0.06193	-0.151
Mof_N 	N 	0.16477	0.4397	0.07715	-0.155
Mof_N 	N 	0.1496	0.47466	0.12861	-0.23
Mof_N 	N 	0.12278	0.49874	0.1575	-0.262
Mof_N 	N 	0.09886	0.52001	0.12506	-0.227
Mof_N 	N 	0.0944	0.56397	0.07863	-0.151
Mof_S 	S 	0.29112	0.32689	0.08475	-0.061
Mof_S 	S 	0.1157	0.50491	0.19984	-0.062
Mof_C 	C 	0.21878	0.10084	0.41105	0.041
Mof_H 	H 	0.2154	0.094	0.3983	0.011
Mof_C 	C 	0.20684	0.09633	0.42845	-0.051
Mof_C 	C 	0.21194	0.106	0.44733	0.009
Mof_H 	H 	0.204	0.1034	0.4596	0.037
Mof_C 	C 	0.22884	0.11944	0.4476	-0.099
Mof_H 	H 	0.2329	0.1261	0.4602	0.066
Mof_C 	C 	0.23985	0.1231	0.42924	0.059
Mof_H 	H 	0.2515	0.1323	0.4296	0
Mof_C 	C 	0.14828	0.96879	0.34302	0.096
Mof_C 	C 	0.16482	0.01534	0.35863	0.056
Mof_H 	H 	0.1636	0.0053	0.3477	-0.001
Mof_C 	C 	0.18264	0.02795	0.35944	-0.098
Mof_H 	H 	0.193	0.0269	0.3489	0.065
Mof_C 	C 	0.18501	0.04177	0.37551	0.009
Mof_H 	H 	0.1972	0.0502	0.3765	0.037
Mof_C 	C 	0.16906	0.04333	0.39057	-0.05
Mof_C 	C 	0.15169	0.03065	0.38826	0.039
Mof_H 	H 	0.1408	0.0318	0.3983	0.014
Mof_C 	C 	0.17038	0.05847	0.40791	0.134
Mof_C 	C 	0.18823	0.0827	0.42619	0.138
Mof_C 	C 	0.1557	0.07422	0.43553	0.14
Mof_C 	C 	0.13725	0.09565	0.46242	0.044
Mof_H 	H 	0.1493	0.1044	0.4628	0.009
Mof_C 	C 	0.13729	0.07836	0.44878	-0.053
Mof_C 	C 	0.11928	0.06601	0.4479	0.008
Mof_H 	H 	0.1185	0.0543	0.4388	0.038
Mof_C 	C 	0.10256	0.07141	0.46063	-0.097
Mof_H 	H 	0.09	0.0634	0.4603	0.065
Mof_C 	C 	0.10415	0.08842	0.47377	0.057
Mof_H 	H 	0.0926	0.0918	0.4825	0.002
Mof_C 	C 	0.07496	0.13009	0.50126	0.104
Mof_C 	C 	0.11136	0.16707	0.5176	0.06
Mof_H 	H 	0.1007	0.1659	0.5073	0
Mof_C 	C 	0.11214	0.18473	0.52925	-0.1
Mof_H 	H 	0.1027	0.1959	0.5266	0.068
Mof_C 	C 	0.12702	0.18645	0.54519	0.008
Mof_H 	H 	0.1278	0.1986	0.5537	0.038
Mof_C 	C 	0.14067	0.16989	0.54822	-0.052
Mof_C 	C 	0.13923	0.15259	0.53496	0.043
Mof_H 	H 	0.1489	0.1414	0.5367	0.01
Mof_C 	C 	0.15696	0.17061	0.56433	0.134
Mof_N 	N 	0.23473	0.11413	0.41093	-0.226
Mof_N 	N 	0.13623	0.97646	0.35431	-0.258
Mof_N 	N 	0.14933	0.01681	0.37273	-0.226
Mof_N 	N 	0.15364	0.06052	0.4203	-0.153
Mof_N 	N 	0.18807	0.06961	0.4099	-0.151
Mof_N 	N 	0.17285	0.08523	0.4397	-0.155
Mof_N 	N 	0.12139	0.1004	0.47466	-0.23
Mof_N 	N 	0.0925	0.12722	0.49874	-0.262
Mof_N 	N 	0.12494	0.15114	0.52001	-0.227
Mof_N 	N 	0.17137	0.1556	0.56397	-0.151
Mof_S 	S 	0.16525	0.95888	0.32689	-0.061
Mof_S 	S 	0.05016	0.1343	0.50491	-0.062
Mof_C 	C 	0.21878	0.60084	0.91105	0.041
Mof_H 	H 	0.2154	0.594	0.8983	0.011
Mof_C 	C 	0.20684	0.59633	0.92845	-0.051
Mof_C 	C 	0.21194	0.606	0.94733	0.009
Mof_H 	H 	0.204	0.6034	0.9596	0.037
Mof_C 	C 	0.22884	0.61944	0.9476	-0.099
Mof_H 	H 	0.2329	0.6261	0.9602	0.066
Mof_C 	C 	0.23985	0.6231	0.92924	0.059
Mof_H 	H 	0.2515	0.6323	0.9296	0
Mof_C 	C 	0.14828	0.46879	0.84302	0.096
Mof_C 	C 	0.16482	0.51534	0.85863	0.056
Mof_H 	H 	0.1636	0.5053	0.8477	-0.001
Mof_C 	C 	0.18264	0.52795	0.85944	-0.098
Mof_H 	H 	0.193	0.5269	0.8489	0.065
Mof_C 	C 	0.18501	0.54177	0.87551	0.009
Mof_H 	H 	0.1972	0.5502	0.8765	0.037
Mof_C 	C 	0.16906	0.54333	0.89057	-0.05
Mof_C 	C 	0.15169	0.53065	0.88826	0.039
Mof_H 	H 	0.1408	0.5318	0.8983	0.014
Mof_C 	C 	0.17038	0.55847	0.90791	0.134
Mof_C 	C 	0.18823	0.5827	0.92619	0.138
Mof_C 	C 	0.1557	0.57422	0.93553	0.14
Mof_C 	C 	0.13725	0.59565	0.96242	0.044
Mof_H 	H 	0.1493	0.6044	0.9628	0.009
Mof_C 	C 	0.13729	0.57836	0.94878	-0.053
Mof_C 	C 	0.11928	0.56601	0.9479	0.008
Mof_H 	H 	0.1185	0.5543	0.9388	0.038
Mof_C 	C 	0.10256	0.57141	0.96063	-0.097
Mof_H 	H 	0.09	0.5634	0.9603	0.065
Mof_C 	C 	0.10415	0.58842	0.97377	0.057
Mof_H 	H 	0.0926	0.5918	0.9825	0.002
Mof_C 	C 	0.07496	0.63009	0.00126	0.104
Mof_C 	C 	0.11136	0.66707	0.0176	0.06
Mof_H 	H 	0.1007	0.6659	0.0073	0
Mof_C 	C 	0.11214	0.68473	0.02925	-0.1
Mof_H 	H 	0.1027	0.6959	0.0266	0.068
Mof_C 	C 	0.12702	0.68645	0.04519	0.008
Mof_H 	H 	0.1278	0.6986	0.0537	0.038
Mof_C 	C 	0.14067	0.66989	0.04822	-0.052
Mof_C 	C 	0.13923	0.65259	0.03496	0.043
Mof_H 	H 	0.1489	0.6414	0.0367	0.01
Mof_C 	C 	0.15696	0.67061	0.06433	0.134
Mof_N 	N 	0.23473	0.61413	0.91093	-0.226
Mof_N 	N 	0.13623	0.47646	0.85431	-0.258
Mof_N 	N 	0.14933	0.51681	0.87273	-0.226
Mof_N 	N 	0.15364	0.56052	0.9203	-0.153
Mof_N 	N 	0.18807	0.56961	0.9099	-0.151
Mof_N 	N 	0.17285	0.58523	0.9397	-0.155
Mof_N 	N 	0.12139	0.6004	0.97466	-0.23
Mof_N 	N 	0.0925	0.62722	0.99874	-0.262
Mof_N 	N 	0.12494	0.65114	0.02001	-0.227
Mof_N 	N 	0.17137	0.6556	0.06397	-0.151
Mof_S 	S 	0.16525	0.45888	0.82689	-0.061
Mof_S 	S 	0.05016	0.6343	0.00491	-0.062
Mof_C 	C 	0.71878	0.10084	0.91105	0.041
Mof_H 	H 	0.7154	0.094	0.8983	0.011
Mof_C 	C 	0.70684	0.09633	0.92845	-0.051
Mof_C 	C 	0.71194	0.106	0.94733	0.009
Mof_H 	H 	0.704	0.1034	0.9596	0.037
Mof_C 	C 	0.72884	0.11944	0.9476	-0.099
Mof_H 	H 	0.7329	0.1261	0.9602	0.066
Mof_C 	C 	0.73985	0.1231	0.92924	0.059
Mof_H 	H 	0.7515	0.1323	0.9296	0
Mof_C 	C 	0.64828	0.96879	0.84302	0.096
Mof_C 	C 	0.66482	0.01534	0.85863	0.056
Mof_H 	H 	0.6636	0.0053	0.8477	-0.001
Mof_C 	C 	0.68264	0.02795	0.85944	-0.098
Mof_H 	H 	0.693	0.0269	0.8489	0.065
Mof_C 	C 	0.68501	0.04177	0.87551	0.009
Mof_H 	H 	0.6972	0.0502	0.8765	0.037
Mof_C 	C 	0.66906	0.04333	0.89057	-0.05
Mof_C 	C 	0.65169	0.03065	0.88826	0.039
Mof_H 	H 	0.6408	0.0318	0.8983	0.014
Mof_C 	C 	0.67038	0.05847	0.90791	0.134
Mof_C 	C 	0.68823	0.0827	0.92619	0.138
Mof_C 	C 	0.6557	0.07422	0.93553	0.14
Mof_C 	C 	0.63725	0.09565	0.96242	0.044
Mof_H 	H 	0.6493	0.1044	0.9628	0.009
Mof_C 	C 	0.63729	0.07836	0.94878	-0.053
Mof_C 	C 	0.61928	0.06601	0.9479	0.008
Mof_H 	H 	0.6185	0.0543	0.9388	0.038
Mof_C 	C 	0.60256	0.07141	0.96063	-0.097
Mof_H 	H 	0.59	0.0634	0.9603	0.065
Mof_C 	C 	0.60415	0.08842	0.97377	0.057
Mof_H 	H 	0.5926	0.0918	0.9825	0.002
Mof_C 	C 	0.57496	0.13009	0.00126	0.104
Mof_C 	C 	0.61136	0.16707	0.0176	0.06
Mof_H 	H 	0.6007	0.1659	0.0073	0
Mof_C 	C 	0.61214	0.18473	0.02925	-0.1
Mof_H 	H 	0.6027	0.1959	0.0266	0.068
Mof_C 	C 	0.62702	0.18645	0.04519	0.008
Mof_H 	H 	0.6278	0.1986	0.0537	0.038
Mof_C 	C 	0.64067	0.16989	0.04822	-0.052
Mof_C 	C 	0.63923	0.15259	0.03496	0.043
Mof_H 	H 	0.6489	0.1414	0.0367	0.01
Mof_C 	C 	0.65696	0.17061	0.06433	0.134
Mof_N 	N 	0.73473	0.11413	0.91093	-0.226
Mof_N 	N 	0.63623	0.97646	0.85431	-0.258
Mof_N 	N 	0.64933	0.01681	0.87273	-0.226
Mof_N 	N 	0.65364	0.06052	0.9203	-0.153
Mof_N 	N 	0.68807	0.06961	0.9099	-0.151
Mof_N 	N 	0.67285	0.08523	0.9397	-0.155
Mof_N 	N 	0.62139	0.1004	0.97466	-0.23
Mof_N 	N 	0.5925	0.12722	0.99874	-0.262
Mof_N 	N 	0.62494	0.15114	0.02001	-0.227
Mof_N 	N 	0.67137	0.1556	0.06397	-0.151
Mof_S 	S 	0.66525	0.95888	0.82689	-0.061
Mof_S 	S 	0.55016	0.1343	0.00491	-0.062
Mof_C 	C 	0.71878	0.60084	0.41105	0.041
Mof_H 	H 	0.7154	0.594	0.3983	0.011
Mof_C 	C 	0.70684	0.59633	0.42845	-0.051
Mof_C 	C 	0.71194	0.606	0.44733	0.009
Mof_H 	H 	0.704	0.6034	0.4596	0.037
Mof_C 	C 	0.72884	0.61944	0.4476	-0.099
Mof_H 	H 	0.7329	0.6261	0.4602	0.066
Mof_C 	C 	0.73985	0.6231	0.42924	0.059
Mof_H 	H 	0.7515	0.6323	0.4296	0
Mof_C 	C 	0.64828	0.46879	0.34302	0.096
Mof_C 	C 	0.66482	0.51534	0.35863	0.056
Mof_H 	H 	0.6636	0.5053	0.3477	-0.001
Mof_C 	C 	0.68264	0.52795	0.35944	-0.098
Mof_H 	H 	0.693	0.5269	0.3489	0.065
Mof_C 	C 	0.68501	0.54177	0.37551	0.009
Mof_H 	H 	0.6972	0.5502	0.3765	0.037
Mof_C 	C 	0.66906	0.54333	0.39057	-0.05
Mof_C 	C 	0.65169	0.53065	0.38826	0.039
Mof_H 	H 	0.6408	0.5318	0.3983	0.014
Mof_C 	C 	0.67038	0.55847	0.40791	0.134
Mof_C 	C 	0.68823	0.5827	0.42619	0.138
Mof_C 	C 	0.6557	0.57422	0.43553	0.14
Mof_C 	C 	0.63725	0.59565	0.46242	0.044
Mof_H 	H 	0.6493	0.6044	0.4628	0.009
Mof_C 	C 	0.63729	0.57836	0.44878	-0.053
Mof_C 	C 	0.61928	0.56601	0.4479	0.008
Mof_H 	H 	0.6185	0.5543	0.4388	0.038
Mof_C 	C 	0.60256	0.57141	0.46063	-0.097
Mof_H 	H 	0.59	0.5634	0.4603	0.065
Mof_C 	C 	0.60415	0.58842	0.47377	0.057
Mof_H 	H 	0.5926	0.5918	0.4825	0.002
Mof_C 	C 	0.57496	0.63009	0.50126	0.104
Mof_C 	C 	0.61136	0.66707	0.5176	0.06
Mof_H 	H 	0.6007	0.6659	0.5073	0
Mof_C 	C 	0.61214	0.68473	0.52925	-0.1
Mof_H 	H 	0.6027	0.6959	0.5266	0.068
Mof_C 	C 	0.62702	0.68645	0.54519	0.008
Mof_H 	H 	0.6278	0.6986	0.5537	0.038
Mof_C 	C 	0.64067	0.66989	0.54822	-0.052
Mof_C 	C 	0.63923	0.65259	0.53496	0.043
Mof_H 	H 	0.6489	0.6414	0.5367	0.01
Mof_C 	C 	0.65696	0.67061	0.56433	0.134
Mof_N 	N 	0.73473	0.61413	0.41093	-0.226
Mof_N 	N 	0.63623	0.47646	0.35431	-0.258
Mof_N 	N 	0.64933	0.51681	0.37273	-0.226
Mof_N 	N 	0.65364	0.56052	0.4203	-0.153
Mof_N 	N 	0.68807	0.56961	0.4099	-0.151
Mof_N 	N 	0.67285	0.58523	0.4397	-0.155
Mof_N 	N 	0.62139	0.6004	0.47466	-0.23
Mof_N 	N 	0.5925	0.62722	0.49874	-0.262
Mof_N 	N 	0.62494	0.65114	0.52001	-0.227
Mof_N 	N 	0.67137	0.6556	0.56397	-0.151
Mof_S 	S 	0.66525	0.45888	0.32689	-0.061
Mof_S 	S 	0.55016	0.6343	0.50491	-0.062
Mof_C 	C 	0.53122	0.60084	0.83895	0.041
Mof_H 	H 	0.5346	0.594	0.8517	0.011
Mof_C 	C 	0.54316	0.59633	0.82155	-0.051
Mof_C 	C 	0.53806	0.606	0.80267	0.009
Mof_H 	H 	0.546	0.6034	0.7904	0.037
Mof_C 	C 	0.52116	0.61944	0.8024	-0.099
Mof_H 	H 	0.5171	0.6261	0.7898	0.066
Mof_C 	C 	0.51015	0.6231	0.82076	0.059
Mof_H 	H 	0.4985	0.6323	0.8204	0
Mof_C 	C 	0.60172	0.46879	0.90698	0.096
Mof_C 	C 	0.58518	0.51534	0.89137	0.056
Mof_H 	H 	0.5864	0.5053	0.9023	-0.001
Mof_C 	C 	0.56736	0.52795	0.89056	-0.098
Mof_H 	H 	0.557	0.5269	0.9011	0.065
Mof_C 	C 	0.56499	0.54177	0.87449	0.009
Mof_H 	H 	0.5528	0.5502	0.8735	0.037
Mof_C 	C 	0.58094	0.54333	0.85943	-0.05
Mof_C 	C 	0.59831	0.53065	0.86174	0.039
Mof_H 	H 	0.6092	0.5318	0.8517	0.014
Mof_C 	C 	0.57962	0.55847	0.84209	0.134
Mof_C 	C 	0.56177	0.5827	0.82381	0.138
Mof_C 	C 	0.5943	0.57422	0.81447	0.14
Mof_C 	C 	0.61275	0.59565	0.78758	0.044
Mof_H 	H 	0.6007	0.6044	0.7872	0.009
Mof_C 	C 	0.61271	0.57836	0.80122	-0.053
Mof_C 	C 	0.63072	0.56601	0.8021	0.008
Mof_H 	H 	0.6315	0.5543	0.8112	0.038
Mof_C 	C 	0.64744	0.57141	0.78937	-0.097
Mof_H 	H 	0.66	0.5634	0.7897	0.065
Mof_C 	C 	0.64585	0.58842	0.77623	0.057
Mof_H 	H 	0.6574	0.5918	0.7675	0.002
Mof_C 	C 	0.67504	0.63009	0.74874	0.104
Mof_C 	C 	0.63864	0.66707	0.7324	0.06
Mof_H 	H 	0.6493	0.6659	0.7427	0
Mof_C 	C 	0.63786	0.68473	0.72075	-0.1
Mof_H 	H 	0.6473	0.6959	0.7234	0.068
Mof_C 	C 	0.62298	0.68645	0.70481	0.008
Mof_H 	H 	0.6222	0.6986	0.6963	0.038
Mof_C 	C 	0.60933	0.66989	0.70178	-0.052
Mof_C 	C 	0.61077	0.65259	0.71504	0.043
Mof_H 	H 	0.6011	0.6414	0.7133	0.01
Mof_C 	C 	0.59304	0.67061	0.68567	0.134
Mof_N 	N 	0.51527	0.61413	0.83907	-0.226
Mof_N 	N 	0.61377	0.47646	0.89569	-0.258
Mof_N 	N 	0.60067	0.51681	0.87727	-0.226
Mof_N 	N 	0.59636	0.56052	0.8297	-0.153
Mof_N 	N 	0.56193	0.56961	0.8401	-0.151
Mof_N 	N 	0.57715	0.58523	0.8103	-0.155
Mof_N 	N 	0.62861	0.6004	0.77534	-0.23
Mof_N 	N 	0.6575	0.62722	0.75126	-0.262
Mof_N 	N 	0.62506	0.65114	0.72999	-0.227
Mof_N 	N 	0.57863	0.6556	0.68603	-0.151
Mof_S 	S 	0.58475	0.45888	0.92311	-0.061
Mof_S 	S 	0.69984	0.6343	0.74509	-0.062
Mof_C 	C 	0.53122	0.10084	0.33895	0.041
Mof_H 	H 	0.5346	0.094	0.3517	0.011
Mof_C 	C 	0.54316	0.09633	0.32155	-0.051
Mof_C 	C 	0.53806	0.106	0.30267	0.009
Mof_H 	H 	0.546	0.1034	0.2904	0.037
Mof_C 	C 	0.52116	0.11944	0.3024	-0.099
Mof_H 	H 	0.5171	0.1261	0.2898	0.066
Mof_C 	C 	0.51015	0.1231	0.32076	0.059
Mof_H 	H 	0.4985	0.1323	0.3204	0
Mof_C 	C 	0.60172	0.96879	0.40698	0.096
Mof_C 	C 	0.58518	0.01534	0.39137	0.056
Mof_H 	H 	0.5864	0.0053	0.4023	-0.001
Mof_C 	C 	0.56736	0.02795	0.39056	-0.098
Mof_H 	H 	0.557	0.0269	0.4011	0.065
Mof_C 	C 	0.56499	0.04177	0.37449	0.009
Mof_H 	H 	0.5528	0.0502	0.3735	0.037
Mof_C 	C 	0.58094	0.04333	0.35943	-0.05
Mof_C 	C 	0.59831	0.03065	0.36174	0.039
Mof_H 	H 	0.6092	0.0318	0.3517	0.014
Mof_C 	C 	0.57962	0.05847	0.34209	0.134
Mof_C 	C 	0.56177	0.0827	0.32381	0.138
Mof_C 	C 	0.5943	0.07422	0.31447	0.14
Mof_C 	C 	0.61275	0.09565	0.28758	0.044
Mof_H 	H 	0.6007	0.1044	0.2872	0.009
Mof_C 	C 	0.61271	0.07836	0.30122	-0.053
Mof_C 	C 	0.63072	0.06601	0.3021	0.008
Mof_H 	H 	0.6315	0.0543	0.3112	0.038
Mof_C 	C 	0.64744	0.07141	0.28937	-0.097
Mof_H 	H 	0.66	0.0634	0.2897	0.065
Mof_C 	C 	0.64585	0.08842	0.27623	0.057
Mof_H 	H 	0.6574	0.0918	0.2675	0.002
Mof_C 	C 	0.67504	0.13009	0.24874	0.104
Mof_C 	C 	0.63864	0.16707	0.2324	0.06
Mof_H 	H 	0.6493	0.1659	0.2427	0
Mof_C 	C 	0.63786	0.18473	0.22075	-0.1
Mof_H 	H 	0.6473	0.1959	0.2234	0.068
Mof_C 	C 	0.62298	0.18645	0.20481	0.008
Mof_H 	H 	0.6222	0.1986	0.1963	0.038
Mof_C 	C 	0.60933	0.16989	0.20178	-0.052
Mof_C 	C 	0.61077	0.15259	0.21504	0.043
Mof_H 	H 	0.6011	0.1414	0.2133	0.01
Mof_C 	C 	0.59304	0.17061	0.18567	0.134
Mof_N 	N 	0.51527	0.11413	0.33907	-0.226
Mof_N 	N 	0.61377	0.97646	0.39569	-0.258
Mof_N 	N 	0.60067	0.01681	0.37727	-0.226
Mof_N 	N 	0.59636	0.06052	0.3297	-0.153
Mof_N 	N 	0.56193	0.06961	0.3401	-0.151
Mof_N 	N 	0.57715	0.08523	0.3103	-0.155
Mof_N 	N 	0.62861	0.1004	0.27534	-0.23
Mof_N 	N 	0.6575	0.12722	0.25126	-0.262
Mof_N 	N 	0.62506	0.15114	0.22999	-0.227
Mof_N 	N 	0.57863	0.1556	0.18603	-0.151
Mof_S 	S 	0.58475	0.95888	0.42311	-0.061
Mof_S 	S 	0.69984	0.1343	0.24509	-0.062
Mof_C 	C 	0.03122	0.60084	0.33895	0.041
Mof_H 	H 	0.0346	0.594	0.3517	0.011
Mof_C 	C 	0.04316	0.59633	0.32155	-0.051
Mof_C 	C 	0.03806	0.606	0.30267	0.008
Mof_H 	H 	0.046	0.6034	0.2904	0.037
Mof_C 	C 	0.02116	0.61944	0.3024	-0.099
Mof_H 	H 	0.0171	0.6261	0.2898	0.066
Mof_C 	C 	0.01015	0.6231	0.32076	0.059
Mof_H 	H 	0.9985	0.6323	0.3204	0
Mof_C 	C 	0.10172	0.46879	0.40698	0.096
Mof_C 	C 	0.08518	0.51534	0.39137	0.056
Mof_H 	H 	0.0864	0.5053	0.4023	-0.001
Mof_C 	C 	0.06736	0.52795	0.39056	-0.098
Mof_H 	H 	0.057	0.5269	0.4011	0.065
Mof_C 	C 	0.06499	0.54177	0.37449	0.009
Mof_H 	H 	0.0528	0.5502	0.3735	0.037
Mof_C 	C 	0.08094	0.54333	0.35943	-0.05
Mof_C 	C 	0.09831	0.53065	0.36174	0.039
Mof_H 	H 	0.1092	0.5318	0.3517	0.014
Mof_C 	C 	0.07962	0.55847	0.34209	0.134
Mof_C 	C 	0.06177	0.5827	0.32381	0.138
Mof_C 	C 	0.0943	0.57422	0.31447	0.14
Mof_C 	C 	0.11275	0.59565	0.28758	0.044
Mof_H 	H 	0.1007	0.6044	0.2872	0.009
Mof_C 	C 	0.11271	0.57836	0.30122	-0.053
Mof_C 	C 	0.13072	0.56601	0.3021	0.008
Mof_H 	H 	0.1315	0.5543	0.3112	0.038
Mof_C 	C 	0.14744	0.57141	0.28937	-0.097
Mof_H 	H 	0.16	0.5634	0.2897	0.065
Mof_C 	C 	0.14585	0.58842	0.27623	0.057
Mof_H 	H 	0.1574	0.5918	0.2675	0.002
Mof_C 	C 	0.17504	0.63009	0.24874	0.104
Mof_C 	C 	0.13864	0.66707	0.2324	0.06
Mof_H 	H 	0.1493	0.6659	0.2427	0
Mof_C 	C 	0.13786	0.68473	0.22075	-0.1
Mof_H 	H 	0.1473	0.6959	0.2234	0.068
Mof_C 	C 	0.12298	0.68645	0.20481	0.008
Mof_H 	H 	0.1222	0.6986	0.1963	0.038
Mof_C 	C 	0.10933	0.66989	0.20178	-0.052
Mof_C 	C 	0.11077	0.65259	0.21504	0.043
Mof_H 	H 	0.1011	0.6414	0.2133	0.01
Mof_C 	C 	0.09304	0.67061	0.18567	0.134
Mof_N 	N 	0.01527	0.61413	0.33907	-0.225
Mof_N 	N 	0.11377	0.47646	0.39569	-0.258
Mof_N 	N 	0.10067	0.51681	0.37727	-0.226
Mof_N 	N 	0.09636	0.56052	0.3297	-0.153
Mof_N 	N 	0.06193	0.56961	0.3401	-0.151
Mof_N 	N 	0.07715	0.58523	0.3103	-0.155
Mof_N 	N 	0.12861	0.6004	0.27534	-0.23
Mof_N 	N 	0.1575	0.62722	0.25126	-0.262
Mof_N 	N 	0.12506	0.65114	0.22999	-0.227
Mof_N 	N 	0.07863	0.6556	0.18603	-0.151
Mof_S 	S 	0.08475	0.45888	0.42311	-0.061
Mof_S 	S 	0.19984	0.6343	0.24509	-0.062
Mof_C 	C 	0.03122	0.10084	0.83895	0.041
Mof_H 	H 	0.0346	0.094	0.8517	0.011
Mof_C 	C 	0.04316	0.09633	0.82155	-0.051
Mof_C 	C 	0.03806	0.106	0.80267	0.008
Mof_H 	H 	0.046	0.1034	0.7904	0.037
Mof_C 	C 	0.02116	0.11944	0.8024	-0.099
Mof_H 	H 	0.0171	0.1261	0.7898	0.066
Mof_C 	C 	0.01015	0.1231	0.82076	0.059
Mof_H 	H 	0.9985	0.1323	0.8204	0
Mof_C 	C 	0.10172	0.96879	0.90698	0.096
Mof_C 	C 	0.08518	0.01534	0.89137	0.056
Mof_H 	H 	0.0864	0.0053	0.9023	-0.001
Mof_C 	C 	0.06736	0.02795	0.89056	-0.098
Mof_H 	H 	0.057	0.0269	0.9011	0.065
Mof_C 	C 	0.06499	0.04177	0.87449	0.009
Mof_H 	H 	0.0528	0.0502	0.8735	0.037
Mof_C 	C 	0.08094	0.04333	0.85943	-0.05
Mof_C 	C 	0.09831	0.03065	0.86174	0.039
Mof_H 	H 	0.1092	0.0318	0.8517	0.014
Mof_C 	C 	0.07962	0.05847	0.84209	0.134
Mof_C 	C 	0.06177	0.0827	0.82381	0.138
Mof_C 	C 	0.0943	0.07422	0.81447	0.14
Mof_C 	C 	0.11275	0.09565	0.78758	0.044
Mof_H 	H 	0.1007	0.1044	0.7872	0.009
Mof_C 	C 	0.11271	0.07836	0.80122	-0.053
Mof_C 	C 	0.13072	0.06601	0.8021	0.008
Mof_H 	H 	0.1315	0.0543	0.8112	0.038
Mof_C 	C 	0.14744	0.07141	0.78937	-0.097
Mof_H 	H 	0.16	0.0634	0.7897	0.065
Mof_C 	C 	0.14585	0.08842	0.77623	0.057
Mof_H 	H 	0.1574	0.0918	0.7675	0.002
Mof_C 	C 	0.17504	0.13009	0.74874	0.104
Mof_C 	C 	0.13864	0.16707	0.7324	0.06
Mof_H 	H 	0.1493	0.1659	0.7427	0
Mof_C 	C 	0.13786	0.18473	0.72075	-0.1
Mof_H 	H 	0.1473	0.1959	0.7234	0.068
Mof_C 	C 	0.12298	0.18645	0.70481	0.008
Mof_H 	H 	0.1222	0.1986	0.6963	0.038
Mof_C 	C 	0.10933	0.16989	0.70178	-0.052
Mof_C 	C 	0.11077	0.15259	0.71504	0.043
Mof_H 	H 	0.1011	0.1414	0.7133	0.01
Mof_C 	C 	0.09304	0.17061	0.68567	0.134
Mof_N 	N 	0.01527	0.11413	0.83907	-0.225
Mof_N 	N 	0.11377	0.97646	0.89569	-0.258
Mof_N 	N 	0.10067	0.01681	0.87727	-0.226
Mof_N 	N 	0.09636	0.06052	0.8297	-0.153
Mof_N 	N 	0.06193	0.06961	0.8401	-0.151
Mof_N 	N 	0.07715	0.08523	0.8103	-0.155
Mof_N 	N 	0.12861	0.1004	0.77534	-0.23
Mof_N 	N 	0.1575	0.12722	0.75126	-0.262
Mof_N 	N 	0.12506	0.15114	0.72999	-0.227
Mof_N 	N 	0.07863	0.1556	0.68603	-0.151
Mof_S 	S 	0.08475	0.95888	0.92311	-0.061
Mof_S 	S 	0.19984	0.1343	0.74509	-0.062
Mof_C 	C 	0.71878	0.14916	0.33895	0.041
Mof_H 	H 	0.7154	0.156	0.3517	0.011
Mof_C 	C 	0.70684	0.15367	0.32155	-0.051
Mof_C 	C 	0.71194	0.144	0.30267	0.009
Mof_H 	H 	0.704	0.1466	0.2904	0.037
Mof_C 	C 	0.72884	0.13056	0.3024	-0.099
Mof_H 	H 	0.7329	0.1239	0.2898	0.066
Mof_C 	C 	0.73985	0.1269	0.32076	0.059
Mof_H 	H 	0.7515	0.1177	0.3204	0
Mof_C 	C 	0.64828	0.28121	0.40698	0.096
Mof_C 	C 	0.66482	0.23466	0.39137	0.056
Mof_H 	H 	0.6636	0.2447	0.4023	-0.001
Mof_C 	C 	0.68264	0.22205	0.39056	-0.098
Mof_H 	H 	0.693	0.2231	0.4011	0.065
Mof_C 	C 	0.68501	0.20823	0.37449	0.009
Mof_H 	H 	0.6972	0.1998	0.3735	0.037
Mof_C 	C 	0.66906	0.20667	0.35943	-0.05
Mof_C 	C 	0.65169	0.21935	0.36174	0.039
Mof_H 	H 	0.6408	0.2182	0.3517	0.014
Mof_C 	C 	0.67038	0.19153	0.34209	0.134
Mof_C 	C 	0.68823	0.1673	0.32381	0.138
Mof_C 	C 	0.6557	0.17578	0.31447	0.14
Mof_C 	C 	0.63725	0.15435	0.28758	0.044
Mof_H 	H 	0.6493	0.1456	0.2872	0.009
Mof_C 	C 	0.63729	0.17164	0.30122	-0.053
Mof_C 	C 	0.61928	0.18399	0.3021	0.008
Mof_H 	H 	0.6185	0.1957	0.3112	0.038
Mof_C 	C 	0.60256	0.17859	0.28937	-0.097
Mof_H 	H 	0.59	0.1866	0.2897	0.065
Mof_C 	C 	0.60415	0.16158	0.27623	0.057
Mof_H 	H 	0.5926	0.1582	0.2675	0.002
Mof_C 	C 	0.57496	0.11991	0.24874	0.104
Mof_C 	C 	0.61136	0.08293	0.2324	0.06
Mof_H 	H 	0.6007	0.0841	0.2427	0
Mof_C 	C 	0.61214	0.06527	0.22075	-0.1
Mof_H 	H 	0.6027	0.0541	0.2234	0.068
Mof_C 	C 	0.62702	0.06355	0.20481	0.008
Mof_H 	H 	0.6278	0.0514	0.1963	0.038
Mof_C 	C 	0.64067	0.08011	0.20178	-0.052
Mof_C 	C 	0.63923	0.09741	0.21504	0.043
Mof_H 	H 	0.6489	0.1086	0.2133	0.01
Mof_C 	C 	0.65696	0.07939	0.18567	0.134
Mof_N 	N 	0.73473	0.13587	0.33907	-0.226
Mof_N 	N 	0.63623	0.27354	0.39569	-0.258
Mof_N 	N 	0.64933	0.23319	0.37727	-0.226
Mof_N 	N 	0.65364	0.18948	0.3297	-0.153
Mof_N 	N 	0.68807	0.18039	0.3401	-0.151
Mof_N 	N 	0.67285	0.16477	0.3103	-0.155
Mof_N 	N 	0.62139	0.1496	0.27534	-0.23
Mof_N 	N 	0.5925	0.12278	0.25126	-0.262
Mof_N 	N 	0.62494	0.09886	0.22999	-0.227
Mof_N 	N 	0.67137	0.0944	0.18603	-0.151
Mof_S 	S 	0.66525	0.29112	0.42311	-0.061
Mof_S 	S 	0.55016	0.1157	0.24509	-0.062
Mof_C 	C 	0.71878	0.64916	0.83895	0.041
Mof_H 	H 	0.7154	0.656	0.8517	0.011
Mof_C 	C 	0.70684	0.65367	0.82155	-0.051
Mof_C 	C 	0.71194	0.644	0.80267	0.009
Mof_H 	H 	0.704	0.6466	0.7904	0.037
Mof_C 	C 	0.72884	0.63056	0.8024	-0.099
Mof_H 	H 	0.7329	0.6239	0.7898	0.066
Mof_C 	C 	0.73985	0.6269	0.82076	0.059
Mof_H 	H 	0.7515	0.6177	0.8204	0
Mof_C 	C 	0.64828	0.78121	0.90698	0.096
Mof_C 	C 	0.66482	0.73466	0.89137	0.056
Mof_H 	H 	0.6636	0.7447	0.9023	-0.001
Mof_C 	C 	0.68264	0.72205	0.89056	-0.098
Mof_H 	H 	0.693	0.7231	0.9011	0.065
Mof_C 	C 	0.68501	0.70823	0.87449	0.009
Mof_H 	H 	0.6972	0.6998	0.8735	0.037
Mof_C 	C 	0.66906	0.70667	0.85943	-0.05
Mof_C 	C 	0.65169	0.71935	0.86174	0.039
Mof_H 	H 	0.6408	0.7182	0.8517	0.014
Mof_C 	C 	0.67038	0.69153	0.84209	0.134
Mof_C 	C 	0.68823	0.6673	0.82381	0.138
Mof_C 	C 	0.6557	0.67578	0.81447	0.14
Mof_C 	C 	0.63725	0.65435	0.78758	0.044
Mof_H 	H 	0.6493	0.6456	0.7872	0.009
Mof_C 	C 	0.63729	0.67164	0.80122	-0.053
Mof_C 	C 	0.61928	0.68399	0.8021	0.008
Mof_H 	H 	0.6185	0.6957	0.8112	0.038
Mof_C 	C 	0.60256	0.67859	0.78937	-0.097
Mof_H 	H 	0.59	0.6866	0.7897	0.065
Mof_C 	C 	0.60415	0.66158	0.77623	0.057
Mof_H 	H 	0.5926	0.6582	0.7675	0.002
Mof_C 	C 	0.57496	0.61991	0.74874	0.104
Mof_C 	C 	0.61136	0.58293	0.7324	0.06
Mof_H 	H 	0.6007	0.5841	0.7427	0
Mof_C 	C 	0.61214	0.56527	0.72075	-0.1
Mof_H 	H 	0.6027	0.5541	0.7234	0.068
Mof_C 	C 	0.62702	0.56355	0.70481	0.008
Mof_H 	H 	0.6278	0.5514	0.6963	0.038
Mof_C 	C 	0.64067	0.58011	0.70178	-0.052
Mof_C 	C 	0.63923	0.59741	0.71504	0.043
Mof_H 	H 	0.6489	0.6086	0.7133	0.01
Mof_C 	C 	0.65696	0.57939	0.68567	0.134
Mof_N 	N 	0.73473	0.63587	0.83907	-0.226
Mof_N 	N 	0.63623	0.77354	0.89569	-0.258
Mof_N 	N 	0.64933	0.73319	0.87727	-0.226
Mof_N 	N 	0.65364	0.68948	0.8297	-0.153
Mof_N 	N 	0.68807	0.68039	0.8401	-0.151
Mof_N 	N 	0.67285	0.66477	0.8103	-0.155
Mof_N 	N 	0.62139	0.6496	0.77534	-0.23
Mof_N 	N 	0.5925	0.62278	0.75126	-0.262
Mof_N 	N 	0.62494	0.59886	0.72999	-0.227
Mof_N 	N 	0.67137	0.5944	0.68603	-0.151
Mof_S 	S 	0.66525	0.79112	0.92311	-0.061
Mof_S 	S 	0.55016	0.6157	0.74509	-0.062
Mof_C 	C 	0.21878	0.14916	0.83895	0.041
Mof_H 	H 	0.2154	0.156	0.8517	0.011
Mof_C 	C 	0.20684	0.15367	0.82155	-0.051
Mof_C 	C 	0.21194	0.144	0.80267	0.009
Mof_H 	H 	0.204	0.1466	0.7904	0.037
Mof_C 	C 	0.22884	0.13056	0.8024	-0.099
Mof_H 	H 	0.2329	0.1239	0.7898	0.066
Mof_C 	C 	0.23985	0.1269	0.82076	0.059
Mof_H 	H 	0.2515	0.1177	0.8204	0
Mof_C 	C 	0.14828	0.28121	0.90698	0.096
Mof_C 	C 	0.16482	0.23466	0.89137	0.056
Mof_H 	H 	0.1636	0.2447	0.9023	-0.001
Mof_C 	C 	0.18264	0.22205	0.89056	-0.098
Mof_H 	H 	0.193	0.2231	0.9011	0.065
Mof_C 	C 	0.18501	0.20823	0.87449	0.009
Mof_H 	H 	0.1972	0.1998	0.8735	0.037
Mof_C 	C 	0.16906	0.20667	0.85943	-0.05
Mof_C 	C 	0.15169	0.21935	0.86174	0.039
Mof_H 	H 	0.1408	0.2182	0.8517	0.014
Mof_C 	C 	0.17038	0.19153	0.84209	0.134
Mof_C 	C 	0.18823	0.1673	0.82381	0.138
Mof_C 	C 	0.1557	0.17578	0.81447	0.14
Mof_C 	C 	0.13725	0.15435	0.78758	0.044
Mof_H 	H 	0.1493	0.1456	0.7872	0.009
Mof_C 	C 	0.13729	0.17164	0.80122	-0.053
Mof_C 	C 	0.11928	0.18399	0.8021	0.008
Mof_H 	H 	0.1185	0.1957	0.8112	0.038
Mof_C 	C 	0.10256	0.17859	0.78937	-0.097
Mof_H 	H 	0.09	0.1866	0.7897	0.065
Mof_C 	C 	0.10415	0.16158	0.77623	0.057
Mof_H 	H 	0.0926	0.1582	0.7675	0.002
Mof_C 	C 	0.07496	0.11991	0.74874	0.104
Mof_C 	C 	0.11136	0.08293	0.7324	0.06
Mof_H 	H 	0.1007	0.0841	0.7427	0
Mof_C 	C 	0.11214	0.06527	0.72075	-0.1
Mof_H 	H 	0.1027	0.0541	0.7234	0.068
Mof_C 	C 	0.12702	0.06355	0.70481	0.008
Mof_H 	H 	0.1278	0.0514	0.6963	0.038
Mof_C 	C 	0.14067	0.08011	0.70178	-0.052
Mof_C 	C 	0.13923	0.09741	0.71504	0.043
Mof_H 	H 	0.1489	0.1086	0.7133	0.01
Mof_C 	C 	0.15696	0.07939	0.68567	0.134
Mof_N 	N 	0.23473	0.13587	0.83907	-0.226
Mof_N 	N 	0.13623	0.27354	0.89569	-0.258
Mof_N 	N 	0.14933	0.23319	0.87727	-0.226
Mof_N 	N 	0.15364	0.18948	0.8297	-0.153
Mof_N 	N 	0.18807	0.18039	0.8401	-0.151
Mof_N 	N 	0.17285	0.16477	0.8103	-0.155
Mof_N 	N 	0.12139	0.1496	0.77534	-0.23
Mof_N 	N 	0.0925	0.12278	0.75126	-0.262
Mof_N 	N 	0.12494	0.09886	0.72999	-0.227
Mof_N 	N 	0.17137	0.0944	0.68603	-0.151
Mof_S 	S 	0.16525	0.29112	0.92311	-0.061
Mof_S 	S 	0.05016	0.1157	0.74509	-0.062
Mof_C 	C 	0.21878	0.64916	0.33895	0.041
Mof_H 	H 	0.2154	0.656	0.3517	0.011
Mof_C 	C 	0.20684	0.65367	0.32155	-0.051
Mof_C 	C 	0.21194	0.644	0.30267	0.009
Mof_H 	H 	0.204	0.6466	0.2904	0.037
Mof_C 	C 	0.22884	0.63056	0.3024	-0.099
Mof_H 	H 	0.2329	0.6239	0.2898	0.066
Mof_C 	C 	0.23985	0.6269	0.32076	0.059
Mof_H 	H 	0.2515	0.6177	0.3204	0
Mof_C 	C 	0.14828	0.78121	0.40698	0.096
Mof_C 	C 	0.16482	0.73466	0.39137	0.056
Mof_H 	H 	0.1636	0.7447	0.4023	-0.001
Mof_C 	C 	0.18264	0.72205	0.39056	-0.098
Mof_H 	H 	0.193	0.7231	0.4011	0.065
Mof_C 	C 	0.18501	0.70823	0.37449	0.009
Mof_H 	H 	0.1972	0.6998	0.3735	0.037
Mof_C 	C 	0.16906	0.70667	0.35943	-0.05
Mof_C 	C 	0.15169	0.71935	0.36174	0.039
Mof_H 	H 	0.1408	0.7182	0.3517	0.014
Mof_C 	C 	0.17038	0.69153	0.34209	0.134
Mof_C 	C 	0.18823	0.6673	0.32381	0.138
Mof_C 	C 	0.1557	0.67578	0.31447	0.14
Mof_C 	C 	0.13725	0.65435	0.28758	0.044
Mof_H 	H 	0.1493	0.6456	0.2872	0.009
Mof_C 	C 	0.13729	0.67164	0.30122	-0.053
Mof_C 	C 	0.11928	0.68399	0.3021	0.008
Mof_H 	H 	0.1185	0.6957	0.3112	0.038
Mof_C 	C 	0.10256	0.67859	0.28937	-0.097
Mof_H 	H 	0.09	0.6866	0.2897	0.065
Mof_C 	C 	0.10415	0.66158	0.27623	0.057
Mof_H 	H 	0.0926	0.6582	0.2675	0.002
Mof_C 	C 	0.07496	0.61991	0.24874	0.104
Mof_C 	C 	0.11136	0.58293	0.2324	0.06
Mof_H 	H 	0.1007	0.5841	0.2427	0
Mof_C 	C 	0.11214	0.56527	0.22075	-0.1
Mof_H 	H 	0.1027	0.5541	0.2234	0.068
Mof_C 	C 	0.12702	0.56355	0.20481	0.008
Mof_H 	H 	0.1278	0.5514	0.1963	0.038
Mof_C 	C 	0.14067	0.58011	0.20178	-0.052
Mof_C 	C 	0.13923	0.59741	0.21504	0.043
Mof_H 	H 	0.1489	0.6086	0.2133	0.01
Mof_C 	C 	0.15696	0.57939	0.18567	0.134
Mof_N 	N 	0.23473	0.63587	0.33907	-0.226
Mof_N 	N 	0.13623	0.77354	0.39569	-0.258
Mof_N 	N 	0.14933	0.73319	0.37727	-0.226
Mof_N 	N 	0.15364	0.68948	0.3297	-0.153
Mof_N 	N 	0.18807	0.68039	0.3401	-0.151
Mof_N 	N 	0.17285	0.66477	0.3103	-0.155
Mof_N 	N 	0.12139	0.6496	0.27534	-0.23
Mof_N 	N 	0.0925	0.62278	0.25126	-0.262
Mof_N 	N 	0.12494	0.59886	0.22999	-0.227
Mof_N 	N 	0.17137	0.5944	0.18603	-0.151
Mof_S 	S 	0.16525	0.79112	0.42311	-0.061
Mof_S 	S 	0.05016	0.6157	0.24509	-0.062
Mof_C 	C 	0.03122	0.64916	0.91105	0.041
Mof_H 	H 	0.0346	0.656	0.8983	0.011
Mof_C 	C 	0.04316	0.65367	0.92845	-0.051
Mof_C 	C 	0.03806	0.644	0.94733	0.008
Mof_H 	H 	0.046	0.6466	0.9596	0.037
Mof_C 	C 	0.02116	0.63056	0.9476	-0.099
Mof_H 	H 	0.0171	0.6239	0.9602	0.066
Mof_C 	C 	0.01015	0.6269	0.92924	0.059
Mof_H 	H 	0.9985	0.6177	0.9296	0
Mof_C 	C 	0.10172	0.78121	0.84302	0.096
Mof_C 	C 	0.08518	0.73466	0.85863	0.056
Mof_H 	H 	0.0864	0.7447	0.8477	-0.001
Mof_C 	C 	0.06736	0.72205	0.85944	-0.098
Mof_H 	H 	0.057	0.7231	0.8489	0.065
Mof_C 	C 	0.06499	0.70823	0.87551	0.009
Mof_H 	H 	0.0528	0.6998	0.8765	0.037
Mof_C 	C 	0.08094	0.70667	0.89057	-0.05
Mof_C 	C 	0.09831	0.71935	0.88826	0.039
Mof_H 	H 	0.1092	0.7182	0.8983	0.014
Mof_C 	C 	0.07962	0.69153	0.90791	0.134
Mof_C 	C 	0.06177	0.6673	0.92619	0.138
Mof_C 	C 	0.0943	0.67578	0.93553	0.14
Mof_C 	C 	0.11275	0.65435	0.96242	0.044
Mof_H 	H 	0.1007	0.6456	0.9628	0.009
Mof_C 	C 	0.11271	0.67164	0.94878	-0.053
Mof_C 	C 	0.13072	0.68399	0.9479	0.008
Mof_H 	H 	0.1315	0.6957	0.9388	0.038
Mof_C 	C 	0.14744	0.67859	0.96063	-0.097
Mof_H 	H 	0.16	0.6866	0.9603	0.065
Mof_C 	C 	0.14585	0.66158	0.97377	0.057
Mof_H 	H 	0.1574	0.6582	0.9825	0.002
Mof_C 	C 	0.17504	0.61991	0.00126	0.104
Mof_C 	C 	0.13864	0.58293	0.0176	0.06
Mof_H 	H 	0.1493	0.5841	0.0073	0
Mof_C 	C 	0.13786	0.56527	0.02925	-0.1
Mof_H 	H 	0.1473	0.5541	0.0266	0.068
Mof_C 	C 	0.12298	0.56355	0.04519	0.008
Mof_H 	H 	0.1222	0.5514	0.0537	0.038
Mof_C 	C 	0.10933	0.58011	0.04822	-0.052
Mof_C 	C 	0.11077	0.59741	0.03496	0.043
Mof_H 	H 	0.1011	0.6086	0.0367	0.01
Mof_C 	C 	0.09304	0.57939	0.06433	0.134
Mof_N 	N 	0.01527	0.63587	0.91093	-0.225
Mof_N 	N 	0.11377	0.77354	0.85431	-0.258
Mof_N 	N 	0.10067	0.73319	0.87273	-0.226
Mof_N 	N 	0.09636	0.68948	0.9203	-0.153
Mof_N 	N 	0.06193	0.68039	0.9099	-0.151
Mof_N 	N 	0.07715	0.66477	0.9397	-0.155
Mof_N 	N 	0.12861	0.6496	0.97466	-0.23
Mof_N 	N 	0.1575	0.62278	0.99874	-0.262
Mof_N 	N 	0.12506	0.59886	0.02001	-0.227
Mof_N 	N 	0.07863	0.5944	0.06397	-0.151
Mof_S 	S 	0.08475	0.79112	0.82689	-0.061
Mof_S 	S 	0.19984	0.6157	0.00491	-0.062
Mof_C 	C 	0.03122	0.14916	0.41105	0.041
Mof_H 	H 	0.0346	0.156	0.3983	0.011
Mof_C 	C 	0.04316	0.15367	0.42845	-0.051
Mof_C 	C 	0.03806	0.144	0.44733	0.008
Mof_H 	H 	0.046	0.1466	0.4596	0.037
Mof_C 	C 	0.02116	0.13056	0.4476	-0.099
Mof_H 	H 	0.0171	0.1239	0.4602	0.066
Mof_C 	C 	0.01015	0.1269	0.42924	0.059
Mof_H 	H 	0.9985	0.1177	0.4296	0
Mof_C 	C 	0.10172	0.28121	0.34302	0.096
Mof_C 	C 	0.08518	0.23466	0.35863	0.056
Mof_H 	H 	0.0864	0.2447	0.3477	-0.001
Mof_C 	C 	0.06736	0.22205	0.35944	-0.098
Mof_H 	H 	0.057	0.2231	0.3489	0.065
Mof_C 	C 	0.06499	0.20823	0.37551	0.009
Mof_H 	H 	0.0528	0.1998	0.3765	0.037
Mof_C 	C 	0.08094	0.20667	0.39057	-0.05
Mof_C 	C 	0.09831	0.21935	0.38826	0.039
Mof_H 	H 	0.1092	0.2182	0.3983	0.014
Mof_C 	C 	0.07962	0.19153	0.40791	0.134
Mof_C 	C 	0.06177	0.1673	0.42619	0.138
Mof_C 	C 	0.0943	0.17578	0.43553	0.14
Mof_C 	C 	0.11275	0.15435	0.46242	0.044
Mof_H 	H 	0.1007	0.1456	0.4628	0.009
Mof_C 	C 	0.11271	0.17164	0.44878	-0.053
Mof_C 	C 	0.13072	0.18399	0.4479	0.008
Mof_H 	H 	0.1315	0.1957	0.4388	0.038
Mof_C 	C 	0.14744	0.17859	0.46063	-0.097
Mof_H 	H 	0.16	0.1866	0.4603	0.065
Mof_C 	C 	0.14585	0.16158	0.47377	0.057
Mof_H 	H 	0.1574	0.1582	0.4825	0.002
Mof_C 	C 	0.17504	0.11991	0.50126	0.104
Mof_C 	C 	0.13864	0.08293	0.5176	0.06
Mof_H 	H 	0.1493	0.0841	0.5073	0
Mof_C 	C 	0.13786	0.06527	0.52925	-0.1
Mof_H 	H 	0.1473	0.0541	0.5266	0.068
Mof_C 	C 	0.12298	0.06355	0.54519	0.008
Mof_H 	H 	0.1222	0.0514	0.5537	0.038
Mof_C 	C 	0.10933	0.08011	0.54822	-0.052
Mof_C 	C 	0.11077	0.09741	0.53496	0.043
Mof_H 	H 	0.1011	0.1086	0.5367	0.01
Mof_C 	C 	0.09304	0.07939	0.56433	0.134
Mof_N 	N 	0.01527	0.13587	0.41093	-0.225
Mof_N 	N 	0.11377	0.27354	0.35431	-0.258
Mof_N 	N 	0.10067	0.23319	0.37273	-0.226
Mof_N 	N 	0.09636	0.18948	0.4203	-0.153
Mof_N 	N 	0.06193	0.18039	0.4099	-0.151
Mof_N 	N 	0.07715	0.16477	0.4397	-0.155
Mof_N 	N 	0.12861	0.1496	0.47466	-0.23
Mof_N 	N 	0.1575	0.12278	0.49874	-0.262
Mof_N 	N 	0.12506	0.09886	0.52001	-0.227
Mof_N 	N 	0.07863	0.0944	0.56397	-0.151
Mof_S 	S 	0.08475	0.29112	0.32689	-0.061
Mof_S 	S 	0.19984	0.1157	0.50491	-0.062
Mof_C 	C 	0.53122	0.64916	0.41105	0.041
Mof_H 	H 	0.5346	0.656	0.3983	0.011
Mof_C 	C 	0.54316	0.65367	0.42845	-0.051
Mof_C 	C 	0.53806	0.644	0.44733	0.009
Mof_H 	H 	0.546	0.6466	0.4596	0.037
Mof_C 	C 	0.52116	0.63056	0.4476	-0.099
Mof_H 	H 	0.5171	0.6239	0.4602	0.066
Mof_C 	C 	0.51015	0.6269	0.42924	0.059
Mof_H 	H 	0.4985	0.6177	0.4296	0
Mof_C 	C 	0.60172	0.78121	0.34302	0.096
Mof_C 	C 	0.58518	0.73466	0.35863	0.056
Mof_H 	H 	0.5864	0.7447	0.3477	-0.001
Mof_C 	C 	0.56736	0.72205	0.35944	-0.098
Mof_H 	H 	0.557	0.7231	0.3489	0.065
Mof_C 	C 	0.56499	0.70823	0.37551	0.009
Mof_H 	H 	0.5528	0.6998	0.3765	0.037
Mof_C 	C 	0.58094	0.70667	0.39057	-0.05
Mof_C 	C 	0.59831	0.71935	0.38826	0.039
Mof_H 	H 	0.6092	0.7182	0.3983	0.014
Mof_C 	C 	0.57962	0.69153	0.40791	0.134
Mof_C 	C 	0.56177	0.6673	0.42619	0.138
Mof_C 	C 	0.5943	0.67578	0.43553	0.14
Mof_C 	C 	0.61275	0.65435	0.46242	0.044
Mof_H 	H 	0.6007	0.6456	0.4628	0.009
Mof_C 	C 	0.61271	0.67164	0.44878	-0.053
Mof_C 	C 	0.63072	0.68399	0.4479	0.008
Mof_H 	H 	0.6315	0.6957	0.4388	0.038
Mof_C 	C 	0.64744	0.67859	0.46063	-0.097
Mof_H 	H 	0.66	0.6866	0.4603	0.065
Mof_C 	C 	0.64585	0.66158	0.47377	0.057
Mof_H 	H 	0.6574	0.6582	0.4825	0.002
Mof_C 	C 	0.67504	0.61991	0.50126	0.104
Mof_C 	C 	0.63864	0.58293	0.5176	0.06
Mof_H 	H 	0.6493	0.5841	0.5073	0
Mof_C 	C 	0.63786	0.56527	0.52925	-0.1
Mof_H 	H 	0.6473	0.5541	0.5266	0.068
Mof_C 	C 	0.62298	0.56355	0.54519	0.008
Mof_H 	H 	0.6222	0.5514	0.5537	0.038
Mof_C 	C 	0.60933	0.58011	0.54822	-0.052
Mof_C 	C 	0.61077	0.59741	0.53496	0.043
Mof_H 	H 	0.6011	0.6086	0.5367	0.01
Mof_C 	C 	0.59304	0.57939	0.56433	0.134
Mof_N 	N 	0.51527	0.63587	0.41093	-0.226
Mof_N 	N 	0.61377	0.77354	0.35431	-0.258
Mof_N 	N 	0.60067	0.73319	0.37273	-0.226
Mof_N 	N 	0.59636	0.68948	0.4203	-0.153
Mof_N 	N 	0.56193	0.68039	0.4099	-0.151
Mof_N 	N 	0.57715	0.66477	0.4397	-0.155
Mof_N 	N 	0.62861	0.6496	0.47466	-0.23
Mof_N 	N 	0.6575	0.62278	0.49874	-0.262
Mof_N 	N 	0.62506	0.59886	0.52001	-0.227
Mof_N 	N 	0.57863	0.5944	0.56397	-0.151
Mof_S 	S 	0.58475	0.79112	0.32689	-0.061
Mof_S 	S 	0.69984	0.6157	0.50491	-0.062
Mof_C 	C 	0.53122	0.14916	0.91105	0.041
Mof_H 	H 	0.5346	0.156	0.8983	0.011
Mof_C 	C 	0.54316	0.15367	0.92845	-0.051
Mof_C 	C 	0.53806	0.144	0.94733	0.009
Mof_H 	H 	0.546	0.1466	0.9596	0.037
Mof_C 	C 	0.52116	0.13056	0.9476	-0.099
Mof_H 	H 	0.5171	0.1239	0.9602	0.066
Mof_C 	C 	0.51015	0.1269	0.92924	0.059
Mof_H 	H 	0.4985	0.1177	0.9296	0
Mof_C 	C 	0.60172	0.28121	0.84302	0.096
Mof_C 	C 	0.58518	0.23466	0.85863	0.056
Mof_H 	H 	0.5864	0.2447	0.8477	-0.001
Mof_C 	C 	0.56736	0.22205	0.85944	-0.098
Mof_H 	H 	0.557	0.2231	0.8489	0.065
Mof_C 	C 	0.56499	0.20823	0.87551	0.009
Mof_H 	H 	0.5528	0.1998	0.8765	0.037
Mof_C 	C 	0.58094	0.20667	0.89057	-0.05
Mof_C 	C 	0.59831	0.21935	0.88826	0.039
Mof_H 	H 	0.6092	0.2182	0.8983	0.014
Mof_C 	C 	0.57962	0.19153	0.90791	0.134
Mof_C 	C 	0.56177	0.1673	0.92619	0.138
Mof_C 	C 	0.5943	0.17578	0.93553	0.14
Mof_C 	C 	0.61275	0.15435	0.96242	0.044
Mof_H 	H 	0.6007	0.1456	0.9628	0.009
Mof_C 	C 	0.61271	0.17164	0.94878	-0.053
Mof_C 	C 	0.63072	0.18399	0.9479	0.008
Mof_H 	H 	0.6315	0.1957	0.9388	0.038
Mof_C 	C 	0.64744	0.17859	0.96063	-0.097
Mof_H 	H 	0.66	0.1866	0.9603	0.065
Mof_C 	C 	0.64585	0.16158	0.97377	0.057
Mof_H 	H 	0.6574	0.1582	0.9825	0.002
Mof_C 	C 	0.67504	0.11991	0.00126	0.104
Mof_C 	C 	0.63864	0.08293	0.0176	0.06
Mof_H 	H 	0.6493	0.0841	0.0073	0
Mof_C 	C 	0.63786	0.06527	0.02925	-0.1
Mof_H 	H 	0.6473	0.0541	0.0266	0.068
Mof_C 	C 	0.62298	0.06355	0.04519	0.008
Mof_H 	H 	0.6222	0.0514	0.0537	0.038
Mof_C 	C 	0.60933	0.08011	0.04822	-0.052
Mof_C 	C 	0.61077	0.09741	0.03496	0.043
Mof_H 	H 	0.6011	0.1086	0.0367	0.01
Mof_C 	C 	0.59304	0.07939	0.06433	0.134
Mof_N 	N 	0.51527	0.13587	0.91093	-0.226
Mof_N 	N 	0.61377	0.27354	0.85431	-0.258
Mof_N 	N 	0.60067	0.23319	0.87273	-0.226
Mof_N 	N 	0.59636	0.18948	0.9203	-0.153
Mof_N 	N 	0.56193	0.18039	0.9099	-0.151
Mof_N 	N 	0.57715	0.16477	0.9397	-0.155
Mof_N 	N 	0.62861	0.1496	0.97466	-0.23
Mof_N 	N 	0.6575	0.12278	0.99874	-0.262
Mof_N 	N 	0.62506	0.09886	0.02001	-0.227
Mof_N 	N 	0.57863	0.0944	0.06397	-0.151
Mof_S 	S 	0.58475	0.29112	0.82689	-0.061
Mof_S 	S 	0.69984	0.1157	0.00491	-0.062
Mof_C 	C 	0.96878	0.66105	0.89916	0.041
Mof_H 	H 	0.9654	0.6483	0.906	0.011
Mof_C 	C 	0.95684	0.67845	0.90367	-0.051
Mof_C 	C 	0.96194	0.69733	0.894	0.009
Mof_H 	H 	0.954	0.7096	0.8966	0.037
Mof_C 	C 	0.97884	0.6976	0.88056	-0.099
Mof_H 	H 	0.9829	0.7102	0.8739	0.066
Mof_C 	C 	0.98985	0.67924	0.8769	0.059
Mof_H 	H 	0.0015	0.6796	0.8677	0
Mof_C 	C 	0.89828	0.59302	0.03121	0.096
Mof_C 	C 	0.91482	0.60863	0.98466	0.056
Mof_H 	H 	0.9136	0.5977	0.9947	-0.001
Mof_C 	C 	0.93264	0.60944	0.97205	-0.098
Mof_H 	H 	0.943	0.5989	0.9731	0.065
Mof_C 	C 	0.93501	0.62551	0.95823	0.009
Mof_H 	H 	0.9472	0.6265	0.9498	0.037
Mof_C 	C 	0.91906	0.64057	0.95667	-0.05
Mof_C 	C 	0.90169	0.63826	0.96935	0.039
Mof_H 	H 	0.8908	0.6483	0.9682	0.014
Mof_C 	C 	0.92038	0.65791	0.94153	0.134
Mof_C 	C 	0.93823	0.67619	0.9173	0.138
Mof_C 	C 	0.9057	0.68553	0.92578	0.14
Mof_C 	C 	0.88725	0.71242	0.90435	0.044
Mof_H 	H 	0.8993	0.7128	0.8956	0.009
Mof_C 	C 	0.88729	0.69878	0.92164	-0.053
Mof_C 	C 	0.86928	0.6979	0.93399	0.008
Mof_H 	H 	0.8685	0.6888	0.9457	0.038
Mof_C 	C 	0.85256	0.71063	0.92859	-0.097
Mof_H 	H 	0.84	0.7103	0.9366	0.065
Mof_C 	C 	0.85415	0.72377	0.91158	0.057
Mof_H 	H 	0.8426	0.7325	0.9082	0.002
Mof_C 	C 	0.82496	0.75126	0.86991	0.104
Mof_C 	C 	0.86136	0.7676	0.83293	0.06
Mof_H 	H 	0.8507	0.7573	0.8341	0
Mof_C 	C 	0.86214	0.77925	0.81527	-0.1
Mof_H 	H 	0.8527	0.7766	0.8041	0.068
Mof_C 	C 	0.87702	0.79519	0.81355	0.008
Mof_H 	H 	0.8778	0.8037	0.8014	0.038
Mof_C 	C 	0.89067	0.79822	0.83011	-0.052
Mof_C 	C 	0.88923	0.78496	0.84741	0.043
Mof_H 	H 	0.8989	0.7867	0.8586	0.01
Mof_C 	C 	0.90696	0.81433	0.82939	0.134
Mof_N 	N 	0.98473	0.66093	0.88587	-0.226
Mof_N 	N 	0.88623	0.60431	0.02354	-0.258
Mof_N 	N 	0.89933	0.62273	0.98319	-0.226
Mof_N 	N 	0.90364	0.6703	0.93948	-0.153
Mof_N 	N 	0.93807	0.6599	0.93039	-0.151
Mof_N 	N 	0.92285	0.6897	0.91477	-0.155
Mof_N 	N 	0.87139	0.72466	0.8996	-0.23
Mof_N 	N 	0.8425	0.74874	0.87278	-0.262
Mof_N 	N 	0.87494	0.77001	0.84886	-0.227
Mof_N 	N 	0.92137	0.81397	0.8444	-0.151
Mof_S 	S 	0.91525	0.57689	0.04112	-0.061
Mof_S 	S 	0.80016	0.75491	0.8657	-0.062
Mof_C 	C 	0.96878	0.16105	0.39916	0.041
Mof_H 	H 	0.9654	0.1483	0.406	0.011
Mof_C 	C 	0.95684	0.17845	0.40367	-0.051
Mof_C 	C 	0.96194	0.19733	0.394	0.009
Mof_H 	H 	0.954	0.2096	0.3966	0.037
Mof_C 	C 	0.97884	0.1976	0.38056	-0.099
Mof_H 	H 	0.9829	0.2102	0.3739	0.066
Mof_C 	C 	0.98985	0.17924	0.3769	0.059
Mof_H 	H 	0.0015	0.1796	0.3677	0
Mof_C 	C 	0.89828	0.09302	0.53121	0.096
Mof_C 	C 	0.91482	0.10863	0.48466	0.056
Mof_H 	H 	0.9136	0.0977	0.4947	-0.001
Mof_C 	C 	0.93264	0.10944	0.47205	-0.098
Mof_H 	H 	0.943	0.0989	0.4731	0.065
Mof_C 	C 	0.93501	0.12551	0.45823	0.009
Mof_H 	H 	0.9472	0.1265	0.4498	0.037
Mof_C 	C 	0.91906	0.14057	0.45667	-0.05
Mof_C 	C 	0.90169	0.13826	0.46935	0.039
Mof_H 	H 	0.8908	0.1483	0.4682	0.014
Mof_C 	C 	0.92038	0.15791	0.44153	0.134
Mof_C 	C 	0.93823	0.17619	0.4173	0.138
Mof_C 	C 	0.9057	0.18553	0.42578	0.14
Mof_C 	C 	0.88725	0.21242	0.40435	0.044
Mof_H 	H 	0.8993	0.2128	0.3956	0.009
Mof_C 	C 	0.88729	0.19878	0.42164	-0.053
Mof_C 	C 	0.86928	0.1979	0.43399	0.008
Mof_H 	H 	0.8685	0.1888	0.4457	0.038
Mof_C 	C 	0.85256	0.21063	0.42859	-0.097
Mof_H 	H 	0.84	0.2103	0.4366	0.065
Mof_C 	C 	0.85415	0.22377	0.41158	0.057
Mof_H 	H 	0.8426	0.2325	0.4082	0.002
Mof_C 	C 	0.82496	0.25126	0.36991	0.104
Mof_C 	C 	0.86136	0.2676	0.33293	0.06
Mof_H 	H 	0.8507	0.2573	0.3341	0
Mof_C 	C 	0.86214	0.27925	0.31527	-0.1
Mof_H 	H 	0.8527	0.2766	0.3041	0.068
Mof_C 	C 	0.87702	0.29519	0.31355	0.008
Mof_H 	H 	0.8778	0.3037	0.3014	0.038
Mof_C 	C 	0.89067	0.29822	0.33011	-0.052
Mof_C 	C 	0.88923	0.28496	0.34741	0.043
Mof_H 	H 	0.8989	0.2867	0.3586	0.01
Mof_C 	C 	0.90696	0.31433	0.32939	0.134
Mof_N 	N 	0.98473	0.16093	0.38587	-0.226
Mof_N 	N 	0.88623	0.10431	0.52354	-0.258
Mof_N 	N 	0.89933	0.12273	0.48319	-0.226
Mof_N 	N 	0.90364	0.1703	0.43948	-0.153
Mof_N 	N 	0.93807	0.1599	0.43039	-0.151
Mof_N 	N 	0.92285	0.1897	0.41477	-0.155
Mof_N 	N 	0.87139	0.22466	0.3996	-0.23
Mof_N 	N 	0.8425	0.24874	0.37278	-0.262
Mof_N 	N 	0.87494	0.27001	0.34886	-0.227
Mof_N 	N 	0.92137	0.31397	0.3444	-0.151
Mof_S 	S 	0.91525	0.07689	0.54112	-0.061
Mof_S 	S 	0.80016	0.25491	0.3657	-0.062
Mof_C 	C 	0.46878	0.66105	0.39916	0.041
Mof_H 	H 	0.4654	0.6483	0.406	0.011
Mof_C 	C 	0.45684	0.67845	0.40367	-0.051
Mof_C 	C 	0.46194	0.69733	0.394	0.009
Mof_H 	H 	0.454	0.7096	0.3966	0.037
Mof_C 	C 	0.47884	0.6976	0.38056	-0.099
Mof_H 	H 	0.4829	0.7102	0.3739	0.066
Mof_C 	C 	0.48985	0.67924	0.3769	0.059
Mof_H 	H 	0.5015	0.6796	0.3677	0
Mof_C 	C 	0.39828	0.59302	0.53121	0.096
Mof_C 	C 	0.41482	0.60863	0.48466	0.056
Mof_H 	H 	0.4136	0.5977	0.4947	-0.001
Mof_C 	C 	0.43264	0.60944	0.47205	-0.098
Mof_H 	H 	0.443	0.5989	0.4731	0.065
Mof_C 	C 	0.43501	0.62551	0.45823	0.009
Mof_H 	H 	0.4472	0.6265	0.4498	0.037
Mof_C 	C 	0.41906	0.64057	0.45667	-0.05
Mof_C 	C 	0.40169	0.63826	0.46935	0.039
Mof_H 	H 	0.3908	0.6483	0.4682	0.014
Mof_C 	C 	0.42038	0.65791	0.44153	0.134
Mof_C 	C 	0.43823	0.67619	0.4173	0.138
Mof_C 	C 	0.4057	0.68553	0.42578	0.14
Mof_C 	C 	0.38725	0.71242	0.40435	0.044
Mof_H 	H 	0.3993	0.7128	0.3956	0.009
Mof_C 	C 	0.38729	0.69878	0.42164	-0.053
Mof_C 	C 	0.36928	0.6979	0.43399	0.008
Mof_H 	H 	0.3685	0.6888	0.4457	0.038
Mof_C 	C 	0.35256	0.71063	0.42859	-0.097
Mof_H 	H 	0.34	0.7103	0.4366	0.065
Mof_C 	C 	0.35415	0.72377	0.41158	0.057
Mof_H 	H 	0.3426	0.7325	0.4082	0.002
Mof_C 	C 	0.32496	0.75126	0.36991	0.104
Mof_C 	C 	0.36136	0.7676	0.33293	0.06
Mof_H 	H 	0.3507	0.7573	0.3341	0
Mof_C 	C 	0.36214	0.77925	0.31527	-0.1
Mof_H 	H 	0.3527	0.7766	0.3041	0.068
Mof_C 	C 	0.37702	0.79519	0.31355	0.008
Mof_H 	H 	0.3778	0.8037	0.3014	0.038
Mof_C 	C 	0.39067	0.79822	0.33011	-0.052
Mof_C 	C 	0.38923	0.78496	0.34741	0.043
Mof_H 	H 	0.3989	0.7867	0.3586	0.01
Mof_C 	C 	0.40696	0.81433	0.32939	0.134
Mof_N 	N 	0.48473	0.66093	0.38587	-0.226
Mof_N 	N 	0.38623	0.60431	0.52354	-0.258
Mof_N 	N 	0.39933	0.62273	0.48319	-0.226
Mof_N 	N 	0.40364	0.6703	0.43948	-0.153
Mof_N 	N 	0.43807	0.6599	0.43039	-0.151
Mof_N 	N 	0.42285	0.6897	0.41477	-0.155
Mof_N 	N 	0.37139	0.72466	0.3996	-0.23
Mof_N 	N 	0.3425	0.74874	0.37278	-0.262
Mof_N 	N 	0.37494	0.77001	0.34886	-0.227
Mof_N 	N 	0.42137	0.81397	0.3444	-0.151
Mof_S 	S 	0.41525	0.57689	0.54112	-0.061
Mof_S 	S 	0.30016	0.75491	0.3657	-0.062
Mof_C 	C 	0.46878	0.16105	0.89916	0.041
Mof_H 	H 	0.4654	0.1483	0.906	0.011
Mof_C 	C 	0.45684	0.17845	0.90367	-0.051
Mof_C 	C 	0.46194	0.19733	0.894	0.009
Mof_H 	H 	0.454	0.2096	0.8966	0.037
Mof_C 	C 	0.47884	0.1976	0.88056	-0.099
Mof_H 	H 	0.4829	0.2102	0.8739	0.066
Mof_C 	C 	0.48985	0.17924	0.8769	0.059
Mof_H 	H 	0.5015	0.1796	0.8677	0
Mof_C 	C 	0.39828	0.09302	0.03121	0.096
Mof_C 	C 	0.41482	0.10863	0.98466	0.056
Mof_H 	H 	0.4136	0.0977	0.9947	-0.001
Mof_C 	C 	0.43264	0.10944	0.97205	-0.098
Mof_H 	H 	0.443	0.0989	0.9731	0.065
Mof_C 	C 	0.43501	0.12551	0.95823	0.009
Mof_H 	H 	0.4472	0.1265	0.9498	0.037
Mof_C 	C 	0.41906	0.14057	0.95667	-0.05
Mof_C 	C 	0.40169	0.13826	0.96935	0.039
Mof_H 	H 	0.3908	0.1483	0.9682	0.014
Mof_C 	C 	0.42038	0.15791	0.94153	0.134
Mof_C 	C 	0.43823	0.17619	0.9173	0.138
Mof_C 	C 	0.4057	0.18553	0.92578	0.14
Mof_C 	C 	0.38725	0.21242	0.90435	0.044
Mof_H 	H 	0.3993	0.2128	0.8956	0.009
Mof_C 	C 	0.38729	0.19878	0.92164	-0.053
Mof_C 	C 	0.36928	0.1979	0.93399	0.008
Mof_H 	H 	0.3685	0.1888	0.9457	0.038
Mof_C 	C 	0.35256	0.21063	0.92859	-0.097
Mof_H 	H 	0.34	0.2103	0.9366	0.065
Mof_C 	C 	0.35415	0.22377	0.91158	0.057
Mof_H 	H 	0.3426	0.2325	0.9082	0.002
Mof_C 	C 	0.32496	0.25126	0.86991	0.104
Mof_C 	C 	0.36136	0.2676	0.83293	0.06
Mof_H 	H 	0.3507	0.2573	0.8341	0
Mof_C 	C 	0.36214	0.27925	0.81527	-0.1
Mof_H 	H 	0.3527	0.2766	0.8041	0.068
Mof_C 	C 	0.37702	0.29519	0.81355	0.008
Mof_H 	H 	0.3778	0.3037	0.8014	0.038
Mof_C 	C 	0.39067	0.29822	0.83011	-0.052
Mof_C 	C 	0.38923	0.28496	0.84741	0.043
Mof_H 	H 	0.3989	0.2867	0.8586	0.01
Mof_C 	C 	0.40696	0.31433	0.82939	0.134
Mof_N 	N 	0.48473	0.16093	0.88587	-0.226
Mof_N 	N 	0.38623	0.10431	0.02354	-0.258
Mof_N 	N 	0.39933	0.12273	0.98319	-0.226
Mof_N 	N 	0.40364	0.1703	0.93948	-0.153
Mof_N 	N 	0.43807	0.1599	0.93039	-0.151
Mof_N 	N 	0.42285	0.1897	0.91477	-0.155
Mof_N 	N 	0.37139	0.22466	0.8996	-0.23
Mof_N 	N 	0.3425	0.24874	0.87278	-0.262
Mof_N 	N 	0.37494	0.27001	0.84886	-0.227
Mof_N 	N 	0.42137	0.31397	0.8444	-0.151
Mof_S 	S 	0.41525	0.07689	0.04112	-0.061
Mof_S 	S 	0.30016	0.25491	0.8657	-0.062
Mof_C 	C 	0.28122	0.08895	0.39916	0.041
Mof_H 	H 	0.2846	0.1017	0.406	0.011
Mof_C 	C 	0.29316	0.07155	0.40367	-0.051
Mof_C 	C 	0.28806	0.05267	0.394	0.009
Mof_H 	H 	0.296	0.0404	0.3966	0.037
Mof_C 	C 	0.27116	0.0524	0.38056	-0.099
Mof_H 	H 	0.2671	0.0398	0.3739	0.066
Mof_C 	C 	0.26015	0.07076	0.3769	0.059
Mof_H 	H 	0.2485	0.0704	0.3677	0
Mof_C 	C 	0.35172	0.15698	0.53121	0.096
Mof_C 	C 	0.33518	0.14137	0.48466	0.056
Mof_H 	H 	0.3364	0.1523	0.4947	-0.001
Mof_C 	C 	0.31736	0.14056	0.47205	-0.098
Mof_H 	H 	0.307	0.1511	0.4731	0.065
Mof_C 	C 	0.31499	0.12449	0.45823	0.009
Mof_H 	H 	0.3028	0.1235	0.4498	0.037
Mof_C 	C 	0.33094	0.10943	0.45667	-0.05
Mof_C 	C 	0.34831	0.11174	0.46935	0.039
Mof_H 	H 	0.3592	0.1017	0.4682	0.014
Mof_C 	C 	0.32962	0.09209	0.44153	0.134
Mof_C 	C 	0.31177	0.07381	0.4173	0.138
Mof_C 	C 	0.3443	0.06447	0.42578	0.14
Mof_C 	C 	0.36275	0.03758	0.40435	0.044
Mof_H 	H 	0.3507	0.0372	0.3956	0.009
Mof_C 	C 	0.36271	0.05122	0.42164	-0.053
Mof_C 	C 	0.38072	0.0521	0.43399	0.008
Mof_H 	H 	0.3815	0.0612	0.4457	0.038
Mof_C 	C 	0.39744	0.03937	0.42859	-0.097
Mof_H 	H 	0.41	0.0397	0.4366	0.065
Mof_C 	C 	0.39585	0.02623	0.41158	0.057
Mof_H 	H 	0.4074	0.0175	0.4082	0.002
Mof_C 	C 	0.42504	0.99874	0.36991	0.104
Mof_C 	C 	0.38864	0.9824	0.33293	0.06
Mof_H 	H 	0.3993	0.9927	0.3341	0
Mof_C 	C 	0.38786	0.97075	0.31527	-0.1
Mof_H 	H 	0.3973	0.9734	0.3041	0.068
Mof_C 	C 	0.37298	0.95481	0.31355	0.008
Mof_H 	H 	0.3722	0.9463	0.3014	0.038
Mof_C 	C 	0.35933	0.95178	0.33011	-0.052
Mof_C 	C 	0.36077	0.96504	0.34741	0.043
Mof_H 	H 	0.3511	0.9633	0.3586	0.01
Mof_C 	C 	0.34304	0.93567	0.32939	0.134
Mof_N 	N 	0.26527	0.08907	0.38587	-0.226
Mof_N 	N 	0.36377	0.14569	0.52354	-0.258
Mof_N 	N 	0.35067	0.12727	0.48319	-0.226
Mof_N 	N 	0.34636	0.0797	0.43948	-0.153
Mof_N 	N 	0.31193	0.0901	0.43039	-0.151
Mof_N 	N 	0.32715	0.0603	0.41477	-0.155
Mof_N 	N 	0.37861	0.02534	0.3996	-0.23
Mof_N 	N 	0.4075	0.00126	0.37278	-0.262
Mof_N 	N 	0.37506	0.97999	0.34886	-0.227
Mof_N 	N 	0.32863	0.93603	0.3444	-0.151
Mof_S 	S 	0.33475	0.17311	0.54112	-0.061
Mof_S 	S 	0.44984	0.99509	0.3657	-0.062
Mof_C 	C 	0.28122	0.58895	0.89916	0.041
Mof_H 	H 	0.2846	0.6017	0.906	0.011
Mof_C 	C 	0.29316	0.57155	0.90367	-0.051
Mof_C 	C 	0.28806	0.55267	0.894	0.009
Mof_H 	H 	0.296	0.5404	0.8966	0.037
Mof_C 	C 	0.27116	0.5524	0.88056	-0.099
Mof_H 	H 	0.2671	0.5398	0.8739	0.066
Mof_C 	C 	0.26015	0.57076	0.8769	0.059
Mof_H 	H 	0.2485	0.5704	0.8677	0
Mof_C 	C 	0.35172	0.65698	0.03121	0.096
Mof_C 	C 	0.33518	0.64137	0.98466	0.056
Mof_H 	H 	0.3364	0.6523	0.9947	-0.001
Mof_C 	C 	0.31736	0.64056	0.97205	-0.098
Mof_H 	H 	0.307	0.6511	0.9731	0.065
Mof_C 	C 	0.31499	0.62449	0.95823	0.009
Mof_H 	H 	0.3028	0.6235	0.9498	0.037
Mof_C 	C 	0.33094	0.60943	0.95667	-0.05
Mof_C 	C 	0.34831	0.61174	0.96935	0.039
Mof_H 	H 	0.3592	0.6017	0.9682	0.014
Mof_C 	C 	0.32962	0.59209	0.94153	0.134
Mof_C 	C 	0.31177	0.57381	0.9173	0.138
Mof_C 	C 	0.3443	0.56447	0.92578	0.14
Mof_C 	C 	0.36275	0.53758	0.90435	0.044
Mof_H 	H 	0.3507	0.5372	0.8956	0.009
Mof_C 	C 	0.36271	0.55122	0.92164	-0.053
Mof_C 	C 	0.38072	0.5521	0.93399	0.008
Mof_H 	H 	0.3815	0.5612	0.9457	0.038
Mof_C 	C 	0.39744	0.53937	0.92859	-0.097
Mof_H 	H 	0.41	0.5397	0.9366	0.065
Mof_C 	C 	0.39585	0.52623	0.91158	0.057
Mof_H 	H 	0.4074	0.5175	0.9082	0.002
Mof_C 	C 	0.42504	0.49874	0.86991	0.104
Mof_C 	C 	0.38864	0.4824	0.83293	0.06
Mof_H 	H 	0.3993	0.4927	0.8341	0
Mof_C 	C 	0.38786	0.47075	0.81527	-0.1
Mof_H 	H 	0.3973	0.4734	0.8041	0.068
Mof_C 	C 	0.37298	0.45481	0.81355	0.008
Mof_H 	H 	0.3722	0.4463	0.8014	0.038
Mof_C 	C 	0.35933	0.45178	0.83011	-0.052
Mof_C 	C 	0.36077	0.46504	0.84741	0.043
Mof_H 	H 	0.3511	0.4633	0.8586	0.01
Mof_C 	C 	0.34304	0.43567	0.82939	0.134
Mof_N 	N 	0.26527	0.58907	0.88587	-0.226
Mof_N 	N 	0.36377	0.64569	0.02354	-0.258
Mof_N 	N 	0.35067	0.62727	0.98319	-0.226
Mof_N 	N 	0.34636	0.5797	0.93948	-0.153
Mof_N 	N 	0.31193	0.5901	0.93039	-0.151
Mof_N 	N 	0.32715	0.5603	0.91477	-0.155
Mof_N 	N 	0.37861	0.52534	0.8996	-0.23
Mof_N 	N 	0.4075	0.50126	0.87278	-0.262
Mof_N 	N 	0.37506	0.47999	0.84886	-0.227
Mof_N 	N 	0.32863	0.43603	0.8444	-0.151
Mof_S 	S 	0.33475	0.67311	0.04112	-0.061
Mof_S 	S 	0.44984	0.49509	0.8657	-0.062
Mof_C 	C 	0.78122	0.08895	0.89916	0.041
Mof_H 	H 	0.7846	0.1017	0.906	0.011
Mof_C 	C 	0.79316	0.07155	0.90367	-0.051
Mof_C 	C 	0.78806	0.05267	0.894	0.009
Mof_H 	H 	0.796	0.0404	0.8966	0.037
Mof_C 	C 	0.77116	0.0524	0.88056	-0.099
Mof_H 	H 	0.7671	0.0398	0.8739	0.066
Mof_C 	C 	0.76015	0.07076	0.8769	0.059
Mof_H 	H 	0.7485	0.0704	0.8677	0
Mof_C 	C 	0.85172	0.15698	0.03121	0.096
Mof_C 	C 	0.83518	0.14137	0.98466	0.056
Mof_H 	H 	0.8364	0.1523	0.9947	-0.001
Mof_C 	C 	0.81736	0.14056	0.97205	-0.098
Mof_H 	H 	0.807	0.1511	0.9731	0.065
Mof_C 	C 	0.81499	0.12449	0.95823	0.009
Mof_H 	H 	0.8028	0.1235	0.9498	0.037
Mof_C 	C 	0.83094	0.10943	0.95667	-0.05
Mof_C 	C 	0.84831	0.11174	0.96935	0.039
Mof_H 	H 	0.8592	0.1017	0.9682	0.014
Mof_C 	C 	0.82962	0.09209	0.94153	0.134
Mof_C 	C 	0.81177	0.07381	0.9173	0.138
Mof_C 	C 	0.8443	0.06447	0.92578	0.14
Mof_C 	C 	0.86275	0.03758	0.90435	0.044
Mof_H 	H 	0.8507	0.0372	0.8956	0.009
Mof_C 	C 	0.86271	0.05122	0.92164	-0.053
Mof_C 	C 	0.88072	0.0521	0.93399	0.008
Mof_H 	H 	0.8815	0.0612	0.9457	0.038
Mof_C 	C 	0.89744	0.03937	0.92859	-0.097
Mof_H 	H 	0.91	0.0397	0.9366	0.065
Mof_C 	C 	0.89585	0.02623	0.91158	0.057
Mof_H 	H 	0.9074	0.0175	0.9082	0.002
Mof_C 	C 	0.92504	0.99874	0.86991	0.104
Mof_C 	C 	0.88864	0.9824	0.83293	0.06
Mof_H 	H 	0.8993	0.9927	0.8341	0
Mof_C 	C 	0.88786	0.97075	0.81527	-0.1
Mof_H 	H 	0.8973	0.9734	0.8041	0.068
Mof_C 	C 	0.87298	0.95481	0.81355	0.008
Mof_H 	H 	0.8722	0.9463	0.8014	0.038
Mof_C 	C 	0.85933	0.95178	0.83011	-0.052
Mof_C 	C 	0.86077	0.96504	0.84741	0.043
Mof_H 	H 	0.8511	0.9633	0.8586	0.01
Mof_C 	C 	0.84304	0.93567	0.82939	0.134
Mof_N 	N 	0.76527	0.08907	0.88587	-0.226
Mof_N 	N 	0.86377	0.14569	0.02354	-0.258
Mof_N 	N 	0.85067	0.12727	0.98319	-0.226
Mof_N 	N 	0.84636	0.0797	0.93948	-0.153
Mof_N 	N 	0.81193	0.0901	0.93039	-0.151
Mof_N 	N 	0.82715	0.0603	0.91477	-0.155
Mof_N 	N 	0.87861	0.02534	0.8996	-0.23
Mof_N 	N 	0.9075	0.00126	0.87278	-0.262
Mof_N 	N 	0.87506	0.97999	0.84886	-0.227
Mof_N 	N 	0.82863	0.93603	0.8444	-0.151
Mof_S 	S 	0.83475	0.17311	0.04112	-0.061
Mof_S 	S 	0.94984	0.99509	0.8657	-0.062
Mof_C 	C 	0.78122	0.58895	0.39916	0.041
Mof_H 	H 	0.7846	0.6017	0.406	0.011
Mof_C 	C 	0.79316	0.57155	0.40367	-0.051
Mof_C 	C 	0.78806	0.55267	0.394	0.009
Mof_H 	H 	0.796	0.5404	0.3966	0.037
Mof_C 	C 	0.77116	0.5524	0.38056	-0.099
Mof_H 	H 	0.7671	0.5398	0.3739	0.066
Mof_C 	C 	0.76015	0.57076	0.3769	0.059
Mof_H 	H 	0.7485	0.5704	0.3677	0
Mof_C 	C 	0.85172	0.65698	0.53121	0.096
Mof_C 	C 	0.83518	0.64137	0.48466	0.056
Mof_H 	H 	0.8364	0.6523	0.4947	-0.001
Mof_C 	C 	0.81736	0.64056	0.47205	-0.098
Mof_H 	H 	0.807	0.6511	0.4731	0.065
Mof_C 	C 	0.81499	0.62449	0.45823	0.009
Mof_H 	H 	0.8028	0.6235	0.4498	0.037
Mof_C 	C 	0.83094	0.60943	0.45667	-0.05
Mof_C 	C 	0.84831	0.61174	0.46935	0.039
Mof_H 	H 	0.8592	0.6017	0.4682	0.014
Mof_C 	C 	0.82962	0.59209	0.44153	0.134
Mof_C 	C 	0.81177	0.57381	0.4173	0.138
Mof_C 	C 	0.8443	0.56447	0.42578	0.14
Mof_C 	C 	0.86275	0.53758	0.40435	0.044
Mof_H 	H 	0.8507	0.5372	0.3956	0.009
Mof_C 	C 	0.86271	0.55122	0.42164	-0.053
Mof_C 	C 	0.88072	0.5521	0.43399	0.008
Mof_H 	H 	0.8815	0.5612	0.4457	0.038
Mof_C 	C 	0.89744	0.53937	0.42859	-0.097
Mof_H 	H 	0.91	0.5397	0.4366	0.065
Mof_C 	C 	0.89585	0.52623	0.41158	0.057
Mof_H 	H 	0.9074	0.5175	0.4082	0.002
Mof_C 	C 	0.92504	0.49874	0.36991	0.104
Mof_C 	C 	0.88864	0.4824	0.33293	0.06
Mof_H 	H 	0.8993	0.4927	0.3341	0
Mof_C 	C 	0.88786	0.47075	0.31527	-0.1
Mof_H 	H 	0.8973	0.4734	0.3041	0.068
Mof_C 	C 	0.87298	0.45481	0.31355	0.008
Mof_H 	H 	0.8722	0.4463	0.3014	0.038
Mof_C 	C 	0.85933	0.45178	0.33011	-0.052
Mof_C 	C 	0.86077	0.46504	0.34741	0.043
Mof_H 	H 	0.8511	0.4633	0.3586	0.01
Mof_C 	C 	0.84304	0.43567	0.32939	0.134
Mof_N 	N 	0.76527	0.58907	0.38587	-0.226
Mof_N 	N 	0.86377	0.64569	0.52354	-0.258
Mof_N 	N 	0.85067	0.62727	0.48319	-0.226
Mof_N 	N 	0.84636	0.5797	0.43948	-0.153
Mof_N 	N 	0.81193	0.5901	0.43039	-0.151
Mof_N 	N 	0.82715	0.5603	0.41477	-0.155
Mof_N 	N 	0.87861	0.52534	0.3996	-0.23
Mof_N 	N 	0.9075	0.50126	0.37278	-0.262
Mof_N 	N 	0.87506	0.47999	0.34886	-0.227
Mof_N 	N 	0.82863	0.43603	0.3444	-0.151
Mof_S 	S 	0.83475	0.67311	0.54112	-0.061
Mof_S 	S 	0.94984	0.49509	0.3657	-0.062
Mof_C 	C 	0.46878	0.58895	0.85084	0.041
Mof_H 	H 	0.4654	0.6017	0.844	0.011
Mof_C 	C 	0.45684	0.57155	0.84633	-0.051
Mof_C 	C 	0.46194	0.55267	0.856	0.009
Mof_H 	H 	0.454	0.5404	0.8534	0.037
Mof_C 	C 	0.47884	0.5524	0.86944	-0.099
Mof_H 	H 	0.4829	0.5398	0.8761	0.066
Mof_C 	C 	0.48985	0.57076	0.8731	0.059
Mof_H 	H 	0.5015	0.5704	0.8823	0
Mof_C 	C 	0.39828	0.65698	0.71879	0.096
Mof_C 	C 	0.41482	0.64137	0.76534	0.056
Mof_H 	H 	0.4136	0.6523	0.7553	-0.001
Mof_C 	C 	0.43264	0.64056	0.77795	-0.098
Mof_H 	H 	0.443	0.6511	0.7769	0.065
Mof_C 	C 	0.43501	0.62449	0.79177	0.009
Mof_H 	H 	0.4472	0.6235	0.8002	0.037
Mof_C 	C 	0.41906	0.60943	0.79333	-0.05
Mof_C 	C 	0.40169	0.61174	0.78065	0.039
Mof_H 	H 	0.3908	0.6017	0.7818	0.014
Mof_C 	C 	0.42038	0.59209	0.80847	0.134
Mof_C 	C 	0.43823	0.57381	0.8327	0.138
Mof_C 	C 	0.4057	0.56447	0.82422	0.14
Mof_C 	C 	0.38725	0.53758	0.84565	0.044
Mof_H 	H 	0.3993	0.5372	0.8544	0.009
Mof_C 	C 	0.38729	0.55122	0.82836	-0.053
Mof_C 	C 	0.36928	0.5521	0.81601	0.008
Mof_H 	H 	0.3685	0.5612	0.8043	0.038
Mof_C 	C 	0.35256	0.53937	0.82141	-0.097
Mof_H 	H 	0.34	0.5397	0.8134	0.065
Mof_C 	C 	0.35415	0.52623	0.83842	0.057
Mof_H 	H 	0.3426	0.5175	0.8418	0.002
Mof_C 	C 	0.32496	0.49874	0.88009	0.104
Mof_C 	C 	0.36136	0.4824	0.91707	0.06
Mof_H 	H 	0.3507	0.4927	0.9159	0
Mof_C 	C 	0.36214	0.47075	0.93473	-0.1
Mof_H 	H 	0.3527	0.4734	0.9459	0.068
Mof_C 	C 	0.37702	0.45481	0.93645	0.008
Mof_H 	H 	0.3778	0.4463	0.9486	0.038
Mof_C 	C 	0.39067	0.45178	0.91989	-0.052
Mof_C 	C 	0.38923	0.46504	0.90259	0.043
Mof_H 	H 	0.3989	0.4633	0.8914	0.01
Mof_C 	C 	0.40696	0.43567	0.92061	0.134
Mof_N 	N 	0.48473	0.58907	0.86413	-0.226
Mof_N 	N 	0.38623	0.64569	0.72646	-0.258
Mof_N 	N 	0.39933	0.62727	0.76681	-0.226
Mof_N 	N 	0.40364	0.5797	0.81052	-0.153
Mof_N 	N 	0.43807	0.5901	0.81961	-0.151
Mof_N 	N 	0.42285	0.5603	0.83523	-0.155
Mof_N 	N 	0.37139	0.52534	0.8504	-0.23
Mof_N 	N 	0.3425	0.50126	0.87722	-0.262
Mof_N 	N 	0.37494	0.47999	0.90114	-0.227
Mof_N 	N 	0.42137	0.43603	0.9056	-0.151
Mof_S 	S 	0.41525	0.67311	0.70888	-0.061
Mof_S 	S 	0.30016	0.49509	0.8843	-0.062
Mof_C 	C 	0.46878	0.08895	0.35084	0.041
Mof_H 	H 	0.4654	0.1017	0.344	0.011
Mof_C 	C 	0.45684	0.07155	0.34633	-0.051
Mof_C 	C 	0.46194	0.05267	0.356	0.009
Mof_H 	H 	0.454	0.0404	0.3534	0.037
Mof_C 	C 	0.47884	0.0524	0.36944	-0.099
Mof_H 	H 	0.4829	0.0398	0.3761	0.066
Mof_C 	C 	0.48985	0.07076	0.3731	0.059
Mof_H 	H 	0.5015	0.0704	0.3823	0
Mof_C 	C 	0.39828	0.15698	0.21879	0.096
Mof_C 	C 	0.41482	0.14137	0.26534	0.056
Mof_H 	H 	0.4136	0.1523	0.2553	-0.001
Mof_C 	C 	0.43264	0.14056	0.27795	-0.098
Mof_H 	H 	0.443	0.1511	0.2769	0.065
Mof_C 	C 	0.43501	0.12449	0.29177	0.009
Mof_H 	H 	0.4472	0.1235	0.3002	0.037
Mof_C 	C 	0.41906	0.10943	0.29333	-0.05
Mof_C 	C 	0.40169	0.11174	0.28065	0.039
Mof_H 	H 	0.3908	0.1017	0.2818	0.014
Mof_C 	C 	0.42038	0.09209	0.30847	0.134
Mof_C 	C 	0.43823	0.07381	0.3327	0.138
Mof_C 	C 	0.4057	0.06447	0.32422	0.14
Mof_C 	C 	0.38725	0.03758	0.34565	0.044
Mof_H 	H 	0.3993	0.0372	0.3544	0.009
Mof_C 	C 	0.38729	0.05122	0.32836	-0.053
Mof_C 	C 	0.36928	0.0521	0.31601	0.008
Mof_H 	H 	0.3685	0.0612	0.3043	0.038
Mof_C 	C 	0.35256	0.03937	0.32141	-0.097
Mof_H 	H 	0.34	0.0397	0.3134	0.065
Mof_C 	C 	0.35415	0.02623	0.33842	0.057
Mof_H 	H 	0.3426	0.0175	0.3418	0.002
Mof_C 	C 	0.32496	0.99874	0.38009	0.104
Mof_C 	C 	0.36136	0.9824	0.41707	0.06
Mof_H 	H 	0.3507	0.9927	0.4159	0
Mof_C 	C 	0.36214	0.97075	0.43473	-0.1
Mof_H 	H 	0.3527	0.9734	0.4459	0.068
Mof_C 	C 	0.37702	0.95481	0.43645	0.008
Mof_H 	H 	0.3778	0.9463	0.4486	0.038
Mof_C 	C 	0.39067	0.95178	0.41989	-0.052
Mof_C 	C 	0.38923	0.96504	0.40259	0.043
Mof_H 	H 	0.3989	0.9633	0.3914	0.01
Mof_C 	C 	0.40696	0.93567	0.42061	0.134
Mof_N 	N 	0.48473	0.08907	0.36413	-0.226
Mof_N 	N 	0.38623	0.14569	0.22646	-0.258
Mof_N 	N 	0.39933	0.12727	0.26681	-0.226
Mof_N 	N 	0.40364	0.0797	0.31052	-0.153
Mof_N 	N 	0.43807	0.0901	0.31961	-0.151
Mof_N 	N 	0.42285	0.0603	0.33523	-0.155
Mof_N 	N 	0.37139	0.02534	0.3504	-0.23
Mof_N 	N 	0.3425	0.00126	0.37722	-0.262
Mof_N 	N 	0.37494	0.97999	0.40114	-0.227
Mof_N 	N 	0.42137	0.93603	0.4056	-0.151
Mof_S 	S 	0.41525	0.17311	0.20888	-0.061
Mof_S 	S 	0.30016	0.99509	0.3843	-0.062
Mof_C 	C 	0.96878	0.58895	0.35084	0.041
Mof_H 	H 	0.9654	0.6017	0.344	0.011
Mof_C 	C 	0.95684	0.57155	0.34633	-0.051
Mof_C 	C 	0.96194	0.55267	0.356	0.009
Mof_H 	H 	0.954	0.5404	0.3534	0.037
Mof_C 	C 	0.97884	0.5524	0.36944	-0.099
Mof_H 	H 	0.9829	0.5398	0.3761	0.066
Mof_C 	C 	0.98985	0.57076	0.3731	0.059
Mof_H 	H 	0.0015	0.5704	0.3823	0
Mof_C 	C 	0.89828	0.65698	0.21879	0.096
Mof_C 	C 	0.91482	0.64137	0.26534	0.056
Mof_H 	H 	0.9136	0.6523	0.2553	-0.001
Mof_C 	C 	0.93264	0.64056	0.27795	-0.098
Mof_H 	H 	0.943	0.6511	0.2769	0.065
Mof_C 	C 	0.93501	0.62449	0.29177	0.009
Mof_H 	H 	0.9472	0.6235	0.3002	0.037
Mof_C 	C 	0.91906	0.60943	0.29333	-0.05
Mof_C 	C 	0.90169	0.61174	0.28065	0.039
Mof_H 	H 	0.8908	0.6017	0.2818	0.014
Mof_C 	C 	0.92038	0.59209	0.30847	0.134
Mof_C 	C 	0.93823	0.57381	0.3327	0.138
Mof_C 	C 	0.9057	0.56447	0.32422	0.14
Mof_C 	C 	0.88725	0.53758	0.34565	0.044
Mof_H 	H 	0.8993	0.5372	0.3544	0.009
Mof_C 	C 	0.88729	0.55122	0.32836	-0.053
Mof_C 	C 	0.86928	0.5521	0.31601	0.008
Mof_H 	H 	0.8685	0.5612	0.3043	0.038
Mof_C 	C 	0.85256	0.53937	0.32141	-0.097
Mof_H 	H 	0.84	0.5397	0.3134	0.065
Mof_C 	C 	0.85415	0.52623	0.33842	0.057
Mof_H 	H 	0.8426	0.5175	0.3418	0.002
Mof_C 	C 	0.82496	0.49874	0.38009	0.104
Mof_C 	C 	0.86136	0.4824	0.41707	0.06
Mof_H 	H 	0.8507	0.4927	0.4159	0
Mof_C 	C 	0.86214	0.47075	0.43473	-0.1
Mof_H 	H 	0.8527	0.4734	0.4459	0.068
Mof_C 	C 	0.87702	0.45481	0.43645	0.008
Mof_H 	H 	0.8778	0.4463	0.4486	0.038
Mof_C 	C 	0.89067	0.45178	0.41989	-0.052
Mof_C 	C 	0.88923	0.46504	0.40259	0.043
Mof_H 	H 	0.8989	0.4633	0.3914	0.01
Mof_C 	C 	0.90696	0.43567	0.42061	0.134
Mof_N 	N 	0.98473	0.58907	0.36413	-0.226
Mof_N 	N 	0.88623	0.64569	0.22646	-0.258
Mof_N 	N 	0.89933	0.62727	0.26681	-0.226
Mof_N 	N 	0.90364	0.5797	0.31052	-0.153
Mof_N 	N 	0.93807	0.5901	0.31961	-0.151
Mof_N 	N 	0.92285	0.5603	0.33523	-0.155
Mof_N 	N 	0.87139	0.52534	0.3504	-0.23
Mof_N 	N 	0.8425	0.50126	0.37722	-0.262
Mof_N 	N 	0.87494	0.47999	0.40114	-0.227
Mof_N 	N 	0.92137	0.43603	0.4056	-0.151
Mof_S 	S 	0.91525	0.67311	0.20888	-0.061
Mof_S 	S 	0.80016	0.49509	0.3843	-0.062
Mof_C 	C 	0.96878	0.08895	0.85084	0.041
Mof_H 	H 	0.9654	0.1017	0.844	0.011
Mof_C 	C 	0.95684	0.07155	0.84633	-0.051
Mof_C 	C 	0.96194	0.05267	0.856	0.009
Mof_H 	H 	0.954	0.0404	0.8534	0.037
Mof_C 	C 	0.97884	0.0524	0.86944	-0.099
Mof_H 	H 	0.9829	0.0398	0.8761	0.066
Mof_C 	C 	0.98985	0.07076	0.8731	0.059
Mof_H 	H 	0.0015	0.0704	0.8823	0
Mof_C 	C 	0.89828	0.15698	0.71879	0.096
Mof_C 	C 	0.91482	0.14137	0.76534	0.056
Mof_H 	H 	0.9136	0.1523	0.7553	-0.001
Mof_C 	C 	0.93264	0.14056	0.77795	-0.098
Mof_H 	H 	0.943	0.1511	0.7769	0.065
Mof_C 	C 	0.93501	0.12449	0.79177	0.009
Mof_H 	H 	0.9472	0.1235	0.8002	0.037
Mof_C 	C 	0.91906	0.10943	0.79333	-0.05
Mof_C 	C 	0.90169	0.11174	0.78065	0.039
Mof_H 	H 	0.8908	0.1017	0.7818	0.014
Mof_C 	C 	0.92038	0.09209	0.80847	0.134
Mof_C 	C 	0.93823	0.07381	0.8327	0.138
Mof_C 	C 	0.9057	0.06447	0.82422	0.14
Mof_C 	C 	0.88725	0.03758	0.84565	0.044
Mof_H 	H 	0.8993	0.0372	0.8544	0.009
Mof_C 	C 	0.88729	0.05122	0.82836	-0.053
Mof_C 	C 	0.86928	0.0521	0.81601	0.008
Mof_H 	H 	0.8685	0.0612	0.8043	0.038
Mof_C 	C 	0.85256	0.03937	0.82141	-0.097
Mof_H 	H 	0.84	0.0397	0.8134	0.065
Mof_C 	C 	0.85415	0.02623	0.83842	0.057
Mof_H 	H 	0.8426	0.0175	0.8418	0.002
Mof_C 	C 	0.82496	0.99874	0.88009	0.104
Mof_C 	C 	0.86136	0.9824	0.91707	0.06
Mof_H 	H 	0.8507	0.9927	0.9159	0
Mof_C 	C 	0.86214	0.97075	0.93473	-0.1
Mof_H 	H 	0.8527	0.9734	0.9459	0.068
Mof_C 	C 	0.87702	0.95481	0.93645	0.008
Mof_H 	H 	0.8778	0.9463	0.9486	0.038
Mof_C 	C 	0.89067	0.95178	0.91989	-0.052
Mof_C 	C 	0.88923	0.96504	0.90259	0.043
Mof_H 	H 	0.8989	0.9633	0.8914	0.01
Mof_C 	C 	0.90696	0.93567	0.92061	0.134
Mof_N 	N 	0.98473	0.08907	0.86413	-0.226
Mof_N 	N 	0.88623	0.14569	0.72646	-0.258
Mof_N 	N 	0.89933	0.12727	0.76681	-0.226
Mof_N 	N 	0.90364	0.0797	0.81052	-0.153
Mof_N 	N 	0.93807	0.0901	0.81961	-0.151
Mof_N 	N 	0.92285	0.0603	0.83523	-0.155
Mof_N 	N 	0.87139	0.02534	0.8504	-0.23
Mof_N 	N 	0.8425	0.00126	0.87722	-0.262
Mof_N 	N 	0.87494	0.97999	0.90114	-0.227
Mof_N 	N 	0.92137	0.93603	0.9056	-0.151
Mof_S 	S 	0.91525	0.17311	0.70888	-0.061
Mof_S 	S 	0.80016	0.99509	0.8843	-0.062
Mof_C 	C 	0.78122	0.16105	0.35084	0.041
Mof_H 	H 	0.7846	0.1483	0.344	0.011
Mof_C 	C 	0.79316	0.17845	0.34633	-0.051
Mof_C 	C 	0.78806	0.19733	0.356	0.009
Mof_H 	H 	0.796	0.2096	0.3534	0.037
Mof_C 	C 	0.77116	0.1976	0.36944	-0.099
Mof_H 	H 	0.7671	0.2102	0.3761	0.066
Mof_C 	C 	0.76015	0.17924	0.3731	0.059
Mof_H 	H 	0.7485	0.1796	0.3823	0
Mof_C 	C 	0.85172	0.09302	0.21879	0.096
Mof_C 	C 	0.83518	0.10863	0.26534	0.056
Mof_H 	H 	0.8364	0.0977	0.2553	-0.001
Mof_C 	C 	0.81736	0.10944	0.27795	-0.098
Mof_H 	H 	0.807	0.0989	0.2769	0.065
Mof_C 	C 	0.81499	0.12551	0.29177	0.009
Mof_H 	H 	0.8028	0.1265	0.3002	0.037
Mof_C 	C 	0.83094	0.14057	0.29333	-0.05
Mof_C 	C 	0.84831	0.13826	0.28065	0.039
Mof_H 	H 	0.8592	0.1483	0.2818	0.014
Mof_C 	C 	0.82962	0.15791	0.30847	0.134
Mof_C 	C 	0.81177	0.17619	0.3327	0.138
Mof_C 	C 	0.8443	0.18553	0.32422	0.14
Mof_C 	C 	0.86275	0.21242	0.34565	0.044
Mof_H 	H 	0.8507	0.2128	0.3544	0.009
Mof_C 	C 	0.86271	0.19878	0.32836	-0.053
Mof_C 	C 	0.88072	0.1979	0.31601	0.008
Mof_H 	H 	0.8815	0.1888	0.3043	0.038
Mof_C 	C 	0.89744	0.21063	0.32141	-0.097
Mof_H 	H 	0.91	0.2103	0.3134	0.065
Mof_C 	C 	0.89585	0.22377	0.33842	0.057
Mof_H 	H 	0.9074	0.2325	0.3418	0.002
Mof_C 	C 	0.92504	0.25126	0.38009	0.104
Mof_C 	C 	0.88864	0.2676	0.41707	0.06
Mof_H 	H 	0.8993	0.2573	0.4159	0
Mof_C 	C 	0.88786	0.27925	0.43473	-0.1
Mof_H 	H 	0.8973	0.2766	0.4459	0.068
Mof_C 	C 	0.87298	0.29519	0.43645	0.008
Mof_H 	H 	0.8722	0.3037	0.4486	0.038
Mof_C 	C 	0.85933	0.29822	0.41989	-0.052
Mof_C 	C 	0.86077	0.28496	0.40259	0.043
Mof_H 	H 	0.8511	0.2867	0.3914	0.01
Mof_C 	C 	0.84304	0.31433	0.42061	0.134
Mof_N 	N 	0.76527	0.16093	0.36413	-0.226
Mof_N 	N 	0.86377	0.10431	0.22646	-0.258
Mof_N 	N 	0.85067	0.12273	0.26681	-0.226
Mof_N 	N 	0.84636	0.1703	0.31052	-0.153
Mof_N 	N 	0.81193	0.1599	0.31961	-0.151
Mof_N 	N 	0.82715	0.1897	0.33523	-0.155
Mof_N 	N 	0.87861	0.22466	0.3504	-0.23
Mof_N 	N 	0.9075	0.24874	0.37722	-0.262
Mof_N 	N 	0.87506	0.27001	0.40114	-0.227
Mof_N 	N 	0.82863	0.31397	0.4056	-0.151
Mof_S 	S 	0.83475	0.07689	0.20888	-0.061
Mof_S 	S 	0.94984	0.25491	0.3843	-0.062
Mof_C 	C 	0.78122	0.66105	0.85084	0.041
Mof_H 	H 	0.7846	0.6483	0.844	0.011
Mof_C 	C 	0.79316	0.67845	0.84633	-0.051
Mof_C 	C 	0.78806	0.69733	0.856	0.009
Mof_H 	H 	0.796	0.7096	0.8534	0.037
Mof_C 	C 	0.77116	0.6976	0.86944	-0.099
Mof_H 	H 	0.7671	0.7102	0.8761	0.066
Mof_C 	C 	0.76015	0.67924	0.8731	0.059
Mof_H 	H 	0.7485	0.6796	0.8823	0
Mof_C 	C 	0.85172	0.59302	0.71879	0.096
Mof_C 	C 	0.83518	0.60863	0.76534	0.056
Mof_H 	H 	0.8364	0.5977	0.7553	-0.001
Mof_C 	C 	0.81736	0.60944	0.77795	-0.098
Mof_H 	H 	0.807	0.5989	0.7769	0.065
Mof_C 	C 	0.81499	0.62551	0.79177	0.009
Mof_H 	H 	0.8028	0.6265	0.8002	0.037
Mof_C 	C 	0.83094	0.64057	0.79333	-0.05
Mof_C 	C 	0.84831	0.63826	0.78065	0.039
Mof_H 	H 	0.8592	0.6483	0.7818	0.014
Mof_C 	C 	0.82962	0.65791	0.80847	0.134
Mof_C 	C 	0.81177	0.67619	0.8327	0.138
Mof_C 	C 	0.8443	0.68553	0.82422	0.14
Mof_C 	C 	0.86275	0.71242	0.84565	0.044
Mof_H 	H 	0.8507	0.7128	0.8544	0.009
Mof_C 	C 	0.86271	0.69878	0.82836	-0.053
Mof_C 	C 	0.88072	0.6979	0.81601	0.008
Mof_H 	H 	0.8815	0.6888	0.8043	0.038
Mof_C 	C 	0.89744	0.71063	0.82141	-0.097
Mof_H 	H 	0.91	0.7103	0.8134	0.065
Mof_C 	C 	0.89585	0.72377	0.83842	0.057
Mof_H 	H 	0.9074	0.7325	0.8418	0.002
Mof_C 	C 	0.92504	0.75126	0.88009	0.104
Mof_C 	C 	0.88864	0.7676	0.91707	0.06
Mof_H 	H 	0.8993	0.7573	0.9159	0
Mof_C 	C 	0.88786	0.77925	0.93473	-0.1
Mof_H 	H 	0.8973	0.7766	0.9459	0.068
Mof_C 	C 	0.87298	0.79519	0.93645	0.008
Mof_H 	H 	0.8722	0.8037	0.9486	0.038
Mof_C 	C 	0.85933	0.79822	0.91989	-0.052
Mof_C 	C 	0.86077	0.78496	0.90259	0.043
Mof_H 	H 	0.8511	0.7867	0.8914	0.01
Mof_C 	C 	0.84304	0.81433	0.92061	0.134
Mof_N 	N 	0.76527	0.66093	0.86413	-0.226
Mof_N 	N 	0.86377	0.60431	0.72646	-0.258
Mof_N 	N 	0.85067	0.62273	0.76681	-0.226
Mof_N 	N 	0.84636	0.6703	0.81052	-0.153
Mof_N 	N 	0.81193	0.6599	0.81961	-0.151
Mof_N 	N 	0.82715	0.6897	0.83523	-0.155
Mof_N 	N 	0.87861	0.72466	0.8504	-0.23
Mof_N 	N 	0.9075	0.74874	0.87722	-0.262
Mof_N 	N 	0.87506	0.77001	0.90114	-0.227
Mof_N 	N 	0.82863	0.81397	0.9056	-0.151
Mof_S 	S 	0.83475	0.57689	0.70888	-0.061
Mof_S 	S 	0.94984	0.75491	0.8843	-0.062
Mof_C 	C 	0.28122	0.16105	0.85084	0.041
Mof_H 	H 	0.2846	0.1483	0.844	0.011
Mof_C 	C 	0.29316	0.17845	0.84633	-0.051
Mof_C 	C 	0.28806	0.19733	0.856	0.009
Mof_H 	H 	0.296	0.2096	0.8534	0.037
Mof_C 	C 	0.27116	0.1976	0.86944	-0.099
Mof_H 	H 	0.2671	0.2102	0.8761	0.066
Mof_C 	C 	0.26015	0.17924	0.8731	0.059
Mof_H 	H 	0.2485	0.1796	0.8823	0
Mof_C 	C 	0.35172	0.09302	0.71879	0.096
Mof_C 	C 	0.33518	0.10863	0.76534	0.056
Mof_H 	H 	0.3364	0.0977	0.7553	-0.001
Mof_C 	C 	0.31736	0.10944	0.77795	-0.098
Mof_H 	H 	0.307	0.0989	0.7769	0.065
Mof_C 	C 	0.31499	0.12551	0.79177	0.009
Mof_H 	H 	0.3028	0.1265	0.8002	0.037
Mof_C 	C 	0.33094	0.14057	0.79333	-0.05
Mof_C 	C 	0.34831	0.13826	0.78065	0.039
Mof_H 	H 	0.3592	0.1483	0.7818	0.014
Mof_C 	C 	0.32962	0.15791	0.80847	0.134
Mof_C 	C 	0.31177	0.17619	0.8327	0.138
Mof_C 	C 	0.3443	0.18553	0.82422	0.14
Mof_C 	C 	0.36275	0.21242	0.84565	0.044
Mof_H 	H 	0.3507	0.2128	0.8544	0.009
Mof_C 	C 	0.36271	0.19878	0.82836	-0.053
Mof_C 	C 	0.38072	0.1979	0.81601	0.008
Mof_H 	H 	0.3815	0.1888	0.8043	0.038
Mof_C 	C 	0.39744	0.21063	0.82141	-0.097
Mof_H 	H 	0.41	0.2103	0.8134	0.065
Mof_C 	C 	0.39585	0.22377	0.83842	0.057
Mof_H 	H 	0.4074	0.2325	0.8418	0.002
Mof_C 	C 	0.42504	0.25126	0.88009	0.104
Mof_C 	C 	0.38864	0.2676	0.91707	0.06
Mof_H 	H 	0.3993	0.2573	0.9159	0
Mof_C 	C 	0.38786	0.27925	0.93473	-0.1
Mof_H 	H 	0.3973	0.2766	0.9459	0.068
Mof_C 	C 	0.37298	0.29519	0.93645	0.008
Mof_H 	H 	0.3722	0.3037	0.9486	0.038
Mof_C 	C 	0.35933	0.29822	0.91989	-0.052
Mof_C 	C 	0.36077	0.28496	0.90259	0.043
Mof_H 	H 	0.3511	0.2867	0.8914	0.01
Mof_C 	C 	0.34304	0.31433	0.92061	0.134
Mof_N 	N 	0.26527	0.16093	0.86413	-0.226
Mof_N 	N 	0.36377	0.10431	0.72646	-0.258
Mof_N 	N 	0.35067	0.12273	0.76681	-0.226
Mof_N 	N 	0.34636	0.1703	0.81052	-0.153
Mof_N 	N 	0.31193	0.1599	0.81961	-0.151
Mof_N 	N 	0.32715	0.1897	0.83523	-0.155
Mof_N 	N 	0.37861	0.22466	0.8504	-0.23
Mof_N 	N 	0.4075	0.24874	0.87722	-0.262
Mof_N 	N 	0.37506	0.27001	0.90114	-0.227
Mof_N 	N 	0.32863	0.31397	0.9056	-0.151
Mof_S 	S 	0.33475	0.07689	0.70888	-0.061
Mof_S 	S 	0.44984	0.25491	0.8843	-0.062
Mof_C 	C 	0.28122	0.66105	0.35084	0.041
Mof_H 	H 	0.2846	0.6483	0.344	0.011
Mof_C 	C 	0.29316	0.67845	0.34633	-0.051
Mof_C 	C 	0.28806	0.69733	0.356	0.009
Mof_H 	H 	0.296	0.7096	0.3534	0.037
Mof_C 	C 	0.27116	0.6976	0.36944	-0.099
Mof_H 	H 	0.2671	0.7102	0.3761	0.066
Mof_C 	C 	0.26015	0.67924	0.3731	0.059
Mof_H 	H 	0.2485	0.6796	0.3823	0
Mof_C 	C 	0.35172	0.59302	0.21879	0.096
Mof_C 	C 	0.33518	0.60863	0.26534	0.056
Mof_H 	H 	0.3364	0.5977	0.2553	-0.001
Mof_C 	C 	0.31736	0.60944	0.27795	-0.098
Mof_H 	H 	0.307	0.5989	0.2769	0.065
Mof_C 	C 	0.31499	0.62551	0.29177	0.009
Mof_H 	H 	0.3028	0.6265	0.3002	0.037
Mof_C 	C 	0.33094	0.64057	0.29333	-0.05
Mof_C 	C 	0.34831	0.63826	0.28065	0.039
Mof_H 	H 	0.3592	0.6483	0.2818	0.014
Mof_C 	C 	0.32962	0.65791	0.30847	0.134
Mof_C 	C 	0.31177	0.67619	0.3327	0.138
Mof_C 	C 	0.3443	0.68553	0.32422	0.14
Mof_C 	C 	0.36275	0.71242	0.34565	0.044
Mof_H 	H 	0.3507	0.7128	0.3544	0.009
Mof_C 	C 	0.36271	0.69878	0.32836	-0.053
Mof_C 	C 	0.38072	0.6979	0.31601	0.008
Mof_H 	H 	0.3815	0.6888	0.3043	0.038
Mof_C 	C 	0.39744	0.71063	0.32141	-0.097
Mof_H 	H 	0.41	0.7103	0.3134	0.065
Mof_C 	C 	0.39585	0.72377	0.33842	0.057
Mof_H 	H 	0.4074	0.7325	0.3418	0.002
Mof_C 	C 	0.42504	0.75126	0.38009	0.104
Mof_C 	C 	0.38864	0.7676	0.41707	0.06
Mof_H 	H 	0.3993	0.7573	0.4159	0
Mof_C 	C 	0.38786	0.77925	0.43473	-0.1
Mof_H 	H 	0.3973	0.7766	0.4459	0.068
Mof_C 	C 	0.37298	0.79519	0.43645	0.008
Mof_H 	H 	0.3722	0.8037	0.4486	0.038
Mof_C 	C 	0.35933	0.79822	0.41989	-0.052
Mof_C 	C 	0.36077	0.78496	0.40259	0.043
Mof_H 	H 	0.3511	0.7867	0.3914	0.01
Mof_C 	C 	0.34304	0.81433	0.42061	0.134
Mof_N 	N 	0.26527	0.66093	0.36413	-0.226
Mof_N 	N 	0.36377	0.60431	0.22646	-0.258
Mof_N 	N 	0.35067	0.62273	0.26681	-0.226
Mof_N 	N 	0.34636	0.6703	0.31052	-0.153
Mof_N 	N 	0.31193	0.6599	0.31961	-0.151
Mof_N 	N 	0.32715	0.6897	0.33523	-0.155
Mof_N 	N 	0.37861	0.72466	0.3504	-0.23
Mof_N 	N 	0.4075	0.74874	0.37722	-0.262
Mof_N 	N 	0.37506	0.77001	0.40114	-0.227
Mof_N 	N 	0.32863	0.81397	0.4056	-0.151
Mof_S 	S 	0.33475	0.57689	0.20888	-0.061
Mof_S 	S 	0.44984	0.75491	0.3843	-0.062
Mof_C 	C 	0.16105	0.35084	0.78122	0.041
Mof_H 	H 	0.1483	0.344	0.7846	0.011
Mof_C 	C 	0.17845	0.34633	0.79316	-0.051
Mof_C 	C 	0.19733	0.356	0.78806	0.009
Mof_H 	H 	0.2096	0.3534	0.796	0.037
Mof_C 	C 	0.1976	0.36944	0.77116	-0.099
Mof_H 	H 	0.2102	0.3761	0.7671	0.066
Mof_C 	C 	0.17924	0.3731	0.76015	0.059
Mof_H 	H 	0.1796	0.3823	0.7485	0
Mof_C 	C 	0.09302	0.21879	0.85172	0.096
Mof_C 	C 	0.10863	0.26534	0.83518	0.056
Mof_H 	H 	0.0977	0.2553	0.8364	-0.001
Mof_C 	C 	0.10944	0.27795	0.81736	-0.098
Mof_H 	H 	0.0989	0.2769	0.807	0.065
Mof_C 	C 	0.12551	0.29177	0.81499	0.009
Mof_H 	H 	0.1265	0.3002	0.8028	0.037
Mof_C 	C 	0.14057	0.29333	0.83094	-0.05
Mof_C 	C 	0.13826	0.28065	0.84831	0.039
Mof_H 	H 	0.1483	0.2818	0.8592	0.014
Mof_C 	C 	0.15791	0.30847	0.82962	0.134
Mof_C 	C 	0.17619	0.3327	0.81177	0.138
Mof_C 	C 	0.18553	0.32422	0.8443	0.14
Mof_C 	C 	0.21242	0.34565	0.86275	0.044
Mof_H 	H 	0.2128	0.3544	0.8507	0.009
Mof_C 	C 	0.19878	0.32836	0.86271	-0.053
Mof_C 	C 	0.1979	0.31601	0.88072	0.008
Mof_H 	H 	0.1888	0.3043	0.8815	0.038
Mof_C 	C 	0.21063	0.32141	0.89744	-0.097
Mof_H 	H 	0.2103	0.3134	0.91	0.065
Mof_C 	C 	0.22377	0.33842	0.89585	0.057
Mof_H 	H 	0.2325	0.3418	0.9074	0.002
Mof_C 	C 	0.25126	0.38009	0.92504	0.104
Mof_C 	C 	0.2676	0.41707	0.88864	0.06
Mof_H 	H 	0.2573	0.4159	0.8993	0
Mof_C 	C 	0.27925	0.43473	0.88786	-0.1
Mof_H 	H 	0.2766	0.4459	0.8973	0.068
Mof_C 	C 	0.29519	0.43645	0.87298	0.008
Mof_H 	H 	0.3037	0.4486	0.8722	0.038
Mof_C 	C 	0.29822	0.41989	0.85933	-0.052
Mof_C 	C 	0.28496	0.40259	0.86077	0.043
Mof_H 	H 	0.2867	0.3914	0.8511	0.01
Mof_C 	C 	0.31433	0.42061	0.84304	0.134
Mof_N 	N 	0.16093	0.36413	0.76527	-0.226
Mof_N 	N 	0.10431	0.22646	0.86377	-0.258
Mof_N 	N 	0.12273	0.26681	0.85067	-0.226
Mof_N 	N 	0.1703	0.31052	0.84636	-0.153
Mof_N 	N 	0.1599	0.31961	0.81193	-0.151
Mof_N 	N 	0.1897	0.33523	0.82715	-0.155
Mof_N 	N 	0.22466	0.3504	0.87861	-0.23
Mof_N 	N 	0.24874	0.37722	0.9075	-0.262
Mof_N 	N 	0.27001	0.40114	0.87506	-0.227
Mof_N 	N 	0.31397	0.4056	0.82863	-0.151
Mof_S 	S 	0.07689	0.20888	0.83475	-0.061
Mof_S 	S 	0.25491	0.3843	0.94984	-0.062
Mof_C 	C 	0.16105	0.85084	0.28122	0.041
Mof_H 	H 	0.1483	0.844	0.2846	0.011
Mof_C 	C 	0.17845	0.84633	0.29316	-0.051
Mof_C 	C 	0.19733	0.856	0.28806	0.009
Mof_H 	H 	0.2096	0.8534	0.296	0.037
Mof_C 	C 	0.1976	0.86944	0.27116	-0.099
Mof_H 	H 	0.2102	0.8761	0.2671	0.066
Mof_C 	C 	0.17924	0.8731	0.26015	0.059
Mof_H 	H 	0.1796	0.8823	0.2485	0
Mof_C 	C 	0.09302	0.71879	0.35172	0.096
Mof_C 	C 	0.10863	0.76534	0.33518	0.056
Mof_H 	H 	0.0977	0.7553	0.3364	-0.001
Mof_C 	C 	0.10944	0.77795	0.31736	-0.098
Mof_H 	H 	0.0989	0.7769	0.307	0.065
Mof_C 	C 	0.12551	0.79177	0.31499	0.009
Mof_H 	H 	0.1265	0.8002	0.3028	0.037
Mof_C 	C 	0.14057	0.79333	0.33094	-0.05
Mof_C 	C 	0.13826	0.78065	0.34831	0.039
Mof_H 	H 	0.1483	0.7818	0.3592	0.014
Mof_C 	C 	0.15791	0.80847	0.32962	0.134
Mof_C 	C 	0.17619	0.8327	0.31177	0.138
Mof_C 	C 	0.18553	0.82422	0.3443	0.14
Mof_C 	C 	0.21242	0.84565	0.36275	0.044
Mof_H 	H 	0.2128	0.8544	0.3507	0.009
Mof_C 	C 	0.19878	0.82836	0.36271	-0.053
Mof_C 	C 	0.1979	0.81601	0.38072	0.008
Mof_H 	H 	0.1888	0.8043	0.3815	0.038
Mof_C 	C 	0.21063	0.82141	0.39744	-0.097
Mof_H 	H 	0.2103	0.8134	0.41	0.065
Mof_C 	C 	0.22377	0.83842	0.39585	0.057
Mof_H 	H 	0.2325	0.8418	0.4074	0.002
Mof_C 	C 	0.25126	0.88009	0.42504	0.104
Mof_C 	C 	0.2676	0.91707	0.38864	0.06
Mof_H 	H 	0.2573	0.9159	0.3993	0
Mof_C 	C 	0.27925	0.93473	0.38786	-0.1
Mof_H 	H 	0.2766	0.9459	0.3973	0.068
Mof_C 	C 	0.29519	0.93645	0.37298	0.008
Mof_H 	H 	0.3037	0.9486	0.3722	0.038
Mof_C 	C 	0.29822	0.91989	0.35933	-0.052
Mof_C 	C 	0.28496	0.90259	0.36077	0.043
Mof_H 	H 	0.2867	0.8914	0.3511	0.01
Mof_C 	C 	0.31433	0.92061	0.34304	0.134
Mof_N 	N 	0.16093	0.86413	0.26527	-0.226
Mof_N 	N 	0.10431	0.72646	0.36377	-0.258
Mof_N 	N 	0.12273	0.76681	0.35067	-0.226
Mof_N 	N 	0.1703	0.81052	0.34636	-0.153
Mof_N 	N 	0.1599	0.81961	0.31193	-0.151
Mof_N 	N 	0.1897	0.83523	0.32715	-0.155
Mof_N 	N 	0.22466	0.8504	0.37861	-0.23
Mof_N 	N 	0.24874	0.87722	0.4075	-0.262
Mof_N 	N 	0.27001	0.90114	0.37506	-0.227
Mof_N 	N 	0.31397	0.9056	0.32863	-0.151
Mof_S 	S 	0.07689	0.70888	0.33475	-0.061
Mof_S 	S 	0.25491	0.8843	0.44984	-0.062
Mof_C 	C 	0.66105	0.35084	0.28122	0.041
Mof_H 	H 	0.6483	0.344	0.2846	0.011
Mof_C 	C 	0.67845	0.34633	0.29316	-0.051
Mof_C 	C 	0.69733	0.356	0.28806	0.009
Mof_H 	H 	0.7096	0.3534	0.296	0.037
Mof_C 	C 	0.6976	0.36944	0.27116	-0.099
Mof_H 	H 	0.7102	0.3761	0.2671	0.066
Mof_C 	C 	0.67924	0.3731	0.26015	0.059
Mof_H 	H 	0.6796	0.3823	0.2485	0
Mof_C 	C 	0.59302	0.21879	0.35172	0.096
Mof_C 	C 	0.60863	0.26534	0.33518	0.056
Mof_H 	H 	0.5977	0.2553	0.3364	-0.001
Mof_C 	C 	0.60944	0.27795	0.31736	-0.098
Mof_H 	H 	0.5989	0.2769	0.307	0.065
Mof_C 	C 	0.62551	0.29177	0.31499	0.009
Mof_H 	H 	0.6265	0.3002	0.3028	0.037
Mof_C 	C 	0.64057	0.29333	0.33094	-0.05
Mof_C 	C 	0.63826	0.28065	0.34831	0.039
Mof_H 	H 	0.6483	0.2818	0.3592	0.014
Mof_C 	C 	0.65791	0.30847	0.32962	0.134
Mof_C 	C 	0.67619	0.3327	0.31177	0.138
Mof_C 	C 	0.68553	0.32422	0.3443	0.14
Mof_C 	C 	0.71242	0.34565	0.36275	0.044
Mof_H 	H 	0.7128	0.3544	0.3507	0.009
Mof_C 	C 	0.69878	0.32836	0.36271	-0.053
Mof_C 	C 	0.6979	0.31601	0.38072	0.008
Mof_H 	H 	0.6888	0.3043	0.3815	0.038
Mof_C 	C 	0.71063	0.32141	0.39744	-0.097
Mof_H 	H 	0.7103	0.3134	0.41	0.065
Mof_C 	C 	0.72377	0.33842	0.39585	0.057
Mof_H 	H 	0.7325	0.3418	0.4074	0.002
Mof_C 	C 	0.75126	0.38009	0.42504	0.104
Mof_C 	C 	0.7676	0.41707	0.38864	0.06
Mof_H 	H 	0.7573	0.4159	0.3993	0
Mof_C 	C 	0.77925	0.43473	0.38786	-0.1
Mof_H 	H 	0.7766	0.4459	0.3973	0.068
Mof_C 	C 	0.79519	0.43645	0.37298	0.008
Mof_H 	H 	0.8037	0.4486	0.3722	0.038
Mof_C 	C 	0.79822	0.41989	0.35933	-0.052
Mof_C 	C 	0.78496	0.40259	0.36077	0.043
Mof_H 	H 	0.7867	0.3914	0.3511	0.01
Mof_C 	C 	0.81433	0.42061	0.34304	0.134
Mof_N 	N 	0.66093	0.36413	0.26527	-0.226
Mof_N 	N 	0.60431	0.22646	0.36377	-0.258
Mof_N 	N 	0.62273	0.26681	0.35067	-0.226
Mof_N 	N 	0.6703	0.31052	0.34636	-0.153
Mof_N 	N 	0.6599	0.31961	0.31193	-0.151
Mof_N 	N 	0.6897	0.33523	0.32715	-0.155
Mof_N 	N 	0.72466	0.3504	0.37861	-0.23
Mof_N 	N 	0.74874	0.37722	0.4075	-0.262
Mof_N 	N 	0.77001	0.40114	0.37506	-0.227
Mof_N 	N 	0.81397	0.4056	0.32863	-0.151
Mof_S 	S 	0.57689	0.20888	0.33475	-0.061
Mof_S 	S 	0.75491	0.3843	0.44984	-0.062
Mof_C 	C 	0.66105	0.85084	0.78122	0.041
Mof_H 	H 	0.6483	0.844	0.7846	0.011
Mof_C 	C 	0.67845	0.84633	0.79316	-0.051
Mof_C 	C 	0.69733	0.856	0.78806	0.009
Mof_H 	H 	0.7096	0.8534	0.796	0.037
Mof_C 	C 	0.6976	0.86944	0.77116	-0.099
Mof_H 	H 	0.7102	0.8761	0.7671	0.066
Mof_C 	C 	0.67924	0.8731	0.76015	0.059
Mof_H 	H 	0.6796	0.8823	0.7485	0
Mof_C 	C 	0.59302	0.71879	0.85172	0.096
Mof_C 	C 	0.60863	0.76534	0.83518	0.056
Mof_H 	H 	0.5977	0.7553	0.8364	-0.001
Mof_C 	C 	0.60944	0.77795	0.81736	-0.098
Mof_H 	H 	0.5989	0.7769	0.807	0.065
Mof_C 	C 	0.62551	0.79177	0.81499	0.009
Mof_H 	H 	0.6265	0.8002	0.8028	0.037
Mof_C 	C 	0.64057	0.79333	0.83094	-0.05
Mof_C 	C 	0.63826	0.78065	0.84831	0.039
Mof_H 	H 	0.6483	0.7818	0.8592	0.014
Mof_C 	C 	0.65791	0.80847	0.82962	0.134
Mof_C 	C 	0.67619	0.8327	0.81177	0.138
Mof_C 	C 	0.68553	0.82422	0.8443	0.14
Mof_C 	C 	0.71242	0.84565	0.86275	0.044
Mof_H 	H 	0.7128	0.8544	0.8507	0.009
Mof_C 	C 	0.69878	0.82836	0.86271	-0.053
Mof_C 	C 	0.6979	0.81601	0.88072	0.008
Mof_H 	H 	0.6888	0.8043	0.8815	0.038
Mof_C 	C 	0.71063	0.82141	0.89744	-0.097
Mof_H 	H 	0.7103	0.8134	0.91	0.065
Mof_C 	C 	0.72377	0.83842	0.89585	0.057
Mof_H 	H 	0.7325	0.8418	0.9074	0.002
Mof_C 	C 	0.75126	0.88009	0.92504	0.104
Mof_C 	C 	0.7676	0.91707	0.88864	0.06
Mof_H 	H 	0.7573	0.9159	0.8993	0
Mof_C 	C 	0.77925	0.93473	0.88786	-0.1
Mof_H 	H 	0.7766	0.9459	0.8973	0.068
Mof_C 	C 	0.79519	0.93645	0.87298	0.008
Mof_H 	H 	0.8037	0.9486	0.8722	0.038
Mof_C 	C 	0.79822	0.91989	0.85933	-0.052
Mof_C 	C 	0.78496	0.90259	0.86077	0.043
Mof_H 	H 	0.7867	0.8914	0.8511	0.01
Mof_C 	C 	0.81433	0.92061	0.84304	0.134
Mof_N 	N 	0.66093	0.86413	0.76527	-0.226
Mof_N 	N 	0.60431	0.72646	0.86377	-0.258
Mof_N 	N 	0.62273	0.76681	0.85067	-0.226
Mof_N 	N 	0.6703	0.81052	0.84636	-0.153
Mof_N 	N 	0.6599	0.81961	0.81193	-0.151
Mof_N 	N 	0.6897	0.83523	0.82715	-0.155
Mof_N 	N 	0.72466	0.8504	0.87861	-0.23
Mof_N 	N 	0.74874	0.87722	0.9075	-0.262
Mof_N 	N 	0.77001	0.90114	0.87506	-0.227
Mof_N 	N 	0.81397	0.9056	0.82863	-0.151
Mof_S 	S 	0.57689	0.70888	0.83475	-0.061
Mof_S 	S 	0.75491	0.8843	0.94984	-0.062
Mof_C 	C 	0.58895	0.85084	0.46878	0.041
Mof_H 	H 	0.6017	0.844	0.4654	0.011
Mof_C 	C 	0.57155	0.84633	0.45684	-0.051
Mof_C 	C 	0.55267	0.856	0.46194	0.009
Mof_H 	H 	0.5404	0.8534	0.454	0.037
Mof_C 	C 	0.5524	0.86944	0.47884	-0.099
Mof_H 	H 	0.5398	0.8761	0.4829	0.066
Mof_C 	C 	0.57076	0.8731	0.48985	0.059
Mof_H 	H 	0.5704	0.8823	0.5015	0
Mof_C 	C 	0.65698	0.71879	0.39828	0.096
Mof_C 	C 	0.64137	0.76534	0.41482	0.056
Mof_H 	H 	0.6523	0.7553	0.4136	-0.001
Mof_C 	C 	0.64056	0.77795	0.43264	-0.098
Mof_H 	H 	0.6511	0.7769	0.443	0.065
Mof_C 	C 	0.62449	0.79177	0.43501	0.009
Mof_H 	H 	0.6235	0.8002	0.4472	0.037
Mof_C 	C 	0.60943	0.79333	0.41906	-0.05
Mof_C 	C 	0.61174	0.78065	0.40169	0.039
Mof_H 	H 	0.6017	0.7818	0.3908	0.014
Mof_C 	C 	0.59209	0.80847	0.42038	0.134
Mof_C 	C 	0.57381	0.8327	0.43823	0.138
Mof_C 	C 	0.56447	0.82422	0.4057	0.14
Mof_C 	C 	0.53758	0.84565	0.38725	0.044
Mof_H 	H 	0.5372	0.8544	0.3993	0.009
Mof_C 	C 	0.55122	0.82836	0.38729	-0.053
Mof_C 	C 	0.5521	0.81601	0.36928	0.008
Mof_H 	H 	0.5612	0.8043	0.3685	0.038
Mof_C 	C 	0.53937	0.82141	0.35256	-0.097
Mof_H 	H 	0.5397	0.8134	0.34	0.065
Mof_C 	C 	0.52623	0.83842	0.35415	0.057
Mof_H 	H 	0.5175	0.8418	0.3426	0.002
Mof_C 	C 	0.49874	0.88009	0.32496	0.104
Mof_C 	C 	0.4824	0.91707	0.36136	0.06
Mof_H 	H 	0.4927	0.9159	0.3507	0
Mof_C 	C 	0.47075	0.93473	0.36214	-0.1
Mof_H 	H 	0.4734	0.9459	0.3527	0.068
Mof_C 	C 	0.45481	0.93645	0.37702	0.008
Mof_H 	H 	0.4463	0.9486	0.3778	0.038
Mof_C 	C 	0.45178	0.91989	0.39067	-0.052
Mof_C 	C 	0.46504	0.90259	0.38923	0.043
Mof_H 	H 	0.4633	0.8914	0.3989	0.01
Mof_C 	C 	0.43567	0.92061	0.40696	0.134
Mof_N 	N 	0.58907	0.86413	0.48473	-0.226
Mof_N 	N 	0.64569	0.72646	0.38623	-0.258
Mof_N 	N 	0.62727	0.76681	0.39933	-0.226
Mof_N 	N 	0.5797	0.81052	0.40364	-0.153
Mof_N 	N 	0.5901	0.81961	0.43807	-0.151
Mof_N 	N 	0.5603	0.83523	0.42285	-0.155
Mof_N 	N 	0.52534	0.8504	0.37139	-0.23
Mof_N 	N 	0.50126	0.87722	0.3425	-0.262
Mof_N 	N 	0.47999	0.90114	0.37494	-0.227
Mof_N 	N 	0.43603	0.9056	0.42137	-0.151
Mof_S 	S 	0.67311	0.70888	0.41525	-0.061
Mof_S 	S 	0.49509	0.8843	0.30016	-0.062
Mof_C 	C 	0.58895	0.35084	0.96878	0.041
Mof_H 	H 	0.6017	0.344	0.9654	0.011
Mof_C 	C 	0.57155	0.34633	0.95684	-0.051
Mof_C 	C 	0.55267	0.356	0.96194	0.009
Mof_H 	H 	0.5404	0.3534	0.954	0.037
Mof_C 	C 	0.5524	0.36944	0.97884	-0.099
Mof_H 	H 	0.5398	0.3761	0.9829	0.066
Mof_C 	C 	0.57076	0.3731	0.98985	0.059
Mof_H 	H 	0.5704	0.3823	0.0015	0
Mof_C 	C 	0.65698	0.21879	0.89828	0.096
Mof_C 	C 	0.64137	0.26534	0.91482	0.056
Mof_H 	H 	0.6523	0.2553	0.9136	-0.001
Mof_C 	C 	0.64056	0.27795	0.93264	-0.098
Mof_H 	H 	0.6511	0.2769	0.943	0.065
Mof_C 	C 	0.62449	0.29177	0.93501	0.009
Mof_H 	H 	0.6235	0.3002	0.9472	0.037
Mof_C 	C 	0.60943	0.29333	0.91906	-0.05
Mof_C 	C 	0.61174	0.28065	0.90169	0.039
Mof_H 	H 	0.6017	0.2818	0.8908	0.014
Mof_C 	C 	0.59209	0.30847	0.92038	0.134
Mof_C 	C 	0.57381	0.3327	0.93823	0.138
Mof_C 	C 	0.56447	0.32422	0.9057	0.14
Mof_C 	C 	0.53758	0.34565	0.88725	0.044
Mof_H 	H 	0.5372	0.3544	0.8993	0.009
Mof_C 	C 	0.55122	0.32836	0.88729	-0.053
Mof_C 	C 	0.5521	0.31601	0.86928	0.008
Mof_H 	H 	0.5612	0.3043	0.8685	0.038
Mof_C 	C 	0.53937	0.32141	0.85256	-0.097
Mof_H 	H 	0.5397	0.3134	0.84	0.065
Mof_C 	C 	0.52623	0.33842	0.85415	0.057
Mof_H 	H 	0.5175	0.3418	0.8426	0.002
Mof_C 	C 	0.49874	0.38009	0.82496	0.104
Mof_C 	C 	0.4824	0.41707	0.86136	0.06
Mof_H 	H 	0.4927	0.4159	0.8507	0
Mof_C 	C 	0.47075	0.43473	0.86214	-0.1
Mof_H 	H 	0.4734	0.4459	0.8527	0.068
Mof_C 	C 	0.45481	0.43645	0.87702	0.008
Mof_H 	H 	0.4463	0.4486	0.8778	0.038
Mof_C 	C 	0.45178	0.41989	0.89067	-0.052
Mof_C 	C 	0.46504	0.40259	0.88923	0.043
Mof_H 	H 	0.4633	0.3914	0.8989	0.01
Mof_C 	C 	0.43567	0.42061	0.90696	0.134
Mof_N 	N 	0.58907	0.36413	0.98473	-0.226
Mof_N 	N 	0.64569	0.22646	0.88623	-0.258
Mof_N 	N 	0.62727	0.26681	0.89933	-0.226
Mof_N 	N 	0.5797	0.31052	0.90364	-0.153
Mof_N 	N 	0.5901	0.31961	0.93807	-0.151
Mof_N 	N 	0.5603	0.33523	0.92285	-0.155
Mof_N 	N 	0.52534	0.3504	0.87139	-0.23
Mof_N 	N 	0.50126	0.37722	0.8425	-0.262
Mof_N 	N 	0.47999	0.40114	0.87494	-0.227
Mof_N 	N 	0.43603	0.4056	0.92137	-0.151
Mof_S 	S 	0.67311	0.20888	0.91525	-0.061
Mof_S 	S 	0.49509	0.3843	0.80016	-0.062
Mof_C 	C 	0.08895	0.85084	0.96878	0.041
Mof_H 	H 	0.1017	0.844	0.9654	0.011
Mof_C 	C 	0.07155	0.84633	0.95684	-0.051
Mof_C 	C 	0.05267	0.856	0.96194	0.009
Mof_H 	H 	0.0404	0.8534	0.954	0.037
Mof_C 	C 	0.0524	0.86944	0.97884	-0.099
Mof_H 	H 	0.0398	0.8761	0.9829	0.066
Mof_C 	C 	0.07076	0.8731	0.98985	0.059
Mof_H 	H 	0.0704	0.8823	0.0015	0
Mof_C 	C 	0.15698	0.71879	0.89828	0.096
Mof_C 	C 	0.14137	0.76534	0.91482	0.056
Mof_H 	H 	0.1523	0.7553	0.9136	-0.001
Mof_C 	C 	0.14056	0.77795	0.93264	-0.098
Mof_H 	H 	0.1511	0.7769	0.943	0.065
Mof_C 	C 	0.12449	0.79177	0.93501	0.009
Mof_H 	H 	0.1235	0.8002	0.9472	0.037
Mof_C 	C 	0.10943	0.79333	0.91906	-0.05
Mof_C 	C 	0.11174	0.78065	0.90169	0.039
Mof_H 	H 	0.1017	0.7818	0.8908	0.014
Mof_C 	C 	0.09209	0.80847	0.92038	0.134
Mof_C 	C 	0.07381	0.8327	0.93823	0.138
Mof_C 	C 	0.06447	0.82422	0.9057	0.14
Mof_C 	C 	0.03758	0.84565	0.88725	0.044
Mof_H 	H 	0.0372	0.8544	0.8993	0.009
Mof_C 	C 	0.05122	0.82836	0.88729	-0.053
Mof_C 	C 	0.0521	0.81601	0.86928	0.008
Mof_H 	H 	0.0612	0.8043	0.8685	0.038
Mof_C 	C 	0.03937	0.82141	0.85256	-0.097
Mof_H 	H 	0.0397	0.8134	0.84	0.065
Mof_C 	C 	0.02623	0.83842	0.85415	0.057
Mof_H 	H 	0.0175	0.8418	0.8426	0.002
Mof_C 	C 	0.99874	0.88009	0.82496	0.104
Mof_C 	C 	0.9824	0.91707	0.86136	0.06
Mof_H 	H 	0.9927	0.9159	0.8507	0
Mof_C 	C 	0.97075	0.93473	0.86214	-0.1
Mof_H 	H 	0.9734	0.9459	0.8527	0.068
Mof_C 	C 	0.95481	0.93645	0.87702	0.008
Mof_H 	H 	0.9463	0.9486	0.8778	0.038
Mof_C 	C 	0.95178	0.91989	0.89067	-0.052
Mof_C 	C 	0.96504	0.90259	0.88923	0.043
Mof_H 	H 	0.9633	0.8914	0.8989	0.01
Mof_C 	C 	0.93567	0.92061	0.90696	0.134
Mof_N 	N 	0.08907	0.86413	0.98473	-0.226
Mof_N 	N 	0.14569	0.72646	0.88623	-0.258
Mof_N 	N 	0.12727	0.76681	0.89933	-0.226
Mof_N 	N 	0.0797	0.81052	0.90364	-0.153
Mof_N 	N 	0.0901	0.81961	0.93807	-0.151
Mof_N 	N 	0.0603	0.83523	0.92285	-0.155
Mof_N 	N 	0.02534	0.8504	0.87139	-0.23
Mof_N 	N 	0.00126	0.87722	0.8425	-0.262
Mof_N 	N 	0.97999	0.90114	0.87494	-0.227
Mof_N 	N 	0.93603	0.9056	0.92137	-0.151
Mof_S 	S 	0.17311	0.70888	0.91525	-0.061
Mof_S 	S 	0.99509	0.8843	0.80016	-0.062
Mof_C 	C 	0.08895	0.35084	0.46878	0.041
Mof_H 	H 	0.1017	0.344	0.4654	0.011
Mof_C 	C 	0.07155	0.34633	0.45684	-0.051
Mof_C 	C 	0.05267	0.356	0.46194	0.009
Mof_H 	H 	0.0404	0.3534	0.454	0.037
Mof_C 	C 	0.0524	0.36944	0.47884	-0.099
Mof_H 	H 	0.0398	0.3761	0.4829	0.066
Mof_C 	C 	0.07076	0.3731	0.48985	0.059
Mof_H 	H 	0.0704	0.3823	0.5015	0
Mof_C 	C 	0.15698	0.21879	0.39828	0.096
Mof_C 	C 	0.14137	0.26534	0.41482	0.056
Mof_H 	H 	0.1523	0.2553	0.4136	-0.001
Mof_C 	C 	0.14056	0.27795	0.43264	-0.098
Mof_H 	H 	0.1511	0.2769	0.443	0.065
Mof_C 	C 	0.12449	0.29177	0.43501	0.009
Mof_H 	H 	0.1235	0.3002	0.4472	0.037
Mof_C 	C 	0.10943	0.29333	0.41906	-0.05
Mof_C 	C 	0.11174	0.28065	0.40169	0.039
Mof_H 	H 	0.1017	0.2818	0.3908	0.014
Mof_C 	C 	0.09209	0.30847	0.42038	0.134
Mof_C 	C 	0.07381	0.3327	0.43823	0.138
Mof_C 	C 	0.06447	0.32422	0.4057	0.14
Mof_C 	C 	0.03758	0.34565	0.38725	0.044
Mof_H 	H 	0.0372	0.3544	0.3993	0.009
Mof_C 	C 	0.05122	0.32836	0.38729	-0.053
Mof_C 	C 	0.0521	0.31601	0.36928	0.008
Mof_H 	H 	0.0612	0.3043	0.3685	0.038
Mof_C 	C 	0.03937	0.32141	0.35256	-0.097
Mof_H 	H 	0.0397	0.3134	0.34	0.065
Mof_C 	C 	0.02623	0.33842	0.35415	0.057
Mof_H 	H 	0.0175	0.3418	0.3426	0.002
Mof_C 	C 	0.99874	0.38009	0.32496	0.104
Mof_C 	C 	0.9824	0.41707	0.36136	0.06
Mof_H 	H 	0.9927	0.4159	0.3507	0
Mof_C 	C 	0.97075	0.43473	0.36214	-0.1
Mof_H 	H 	0.9734	0.4459	0.3527	0.068
Mof_C 	C 	0.95481	0.43645	0.37702	0.008
Mof_H 	H 	0.9463	0.4486	0.3778	0.038
Mof_C 	C 	0.95178	0.41989	0.39067	-0.052
Mof_C 	C 	0.96504	0.40259	0.38923	0.043
Mof_H 	H 	0.9633	0.3914	0.3989	0.01
Mof_C 	C 	0.93567	0.42061	0.40696	0.134
Mof_N 	N 	0.08907	0.36413	0.48473	-0.226
Mof_N 	N 	0.14569	0.22646	0.38623	-0.258
Mof_N 	N 	0.12727	0.26681	0.39933	-0.226
Mof_N 	N 	0.0797	0.31052	0.40364	-0.153
Mof_N 	N 	0.0901	0.31961	0.43807	-0.151
Mof_N 	N 	0.0603	0.33523	0.42285	-0.155
Mof_N 	N 	0.02534	0.3504	0.37139	-0.23
Mof_N 	N 	0.00126	0.37722	0.3425	-0.262
Mof_N 	N 	0.97999	0.40114	0.37494	-0.227
Mof_N 	N 	0.93603	0.4056	0.42137	-0.151
Mof_S 	S 	0.17311	0.20888	0.41525	-0.061
Mof_S 	S 	0.99509	0.3843	0.30016	-0.062
Mof_C 	C 	0.08895	0.39916	0.28122	0.041
Mof_H 	H 	0.1017	0.406	0.2846	0.011
Mof_C 	C 	0.07155	0.40367	0.29316	-0.051
Mof_C 	C 	0.05267	0.394	0.28806	0.009
Mof_H 	H 	0.0404	0.3966	0.296	0.037
Mof_C 	C 	0.0524	0.38056	0.27116	-0.099
Mof_H 	H 	0.0398	0.3739	0.2671	0.066
Mof_C 	C 	0.07076	0.3769	0.26015	0.059
Mof_H 	H 	0.0704	0.3677	0.2485	0
Mof_C 	C 	0.15698	0.53121	0.35172	0.096
Mof_C 	C 	0.14137	0.48466	0.33518	0.056
Mof_H 	H 	0.1523	0.4947	0.3364	-0.001
Mof_C 	C 	0.14056	0.47205	0.31736	-0.098
Mof_H 	H 	0.1511	0.4731	0.307	0.065
Mof_C 	C 	0.12449	0.45823	0.31499	0.009
Mof_H 	H 	0.1235	0.4498	0.3028	0.037
Mof_C 	C 	0.10943	0.45667	0.33094	-0.05
Mof_C 	C 	0.11174	0.46935	0.34831	0.039
Mof_H 	H 	0.1017	0.4682	0.3592	0.014
Mof_C 	C 	0.09209	0.44153	0.32962	0.134
Mof_C 	C 	0.07381	0.4173	0.31177	0.138
Mof_C 	C 	0.06447	0.42578	0.3443	0.14
Mof_C 	C 	0.03758	0.40435	0.36275	0.044
Mof_H 	H 	0.0372	0.3956	0.3507	0.009
Mof_C 	C 	0.05122	0.42164	0.36271	-0.053
Mof_C 	C 	0.0521	0.43399	0.38072	0.008
Mof_H 	H 	0.0612	0.4457	0.3815	0.038
Mof_C 	C 	0.03937	0.42859	0.39744	-0.097
Mof_H 	H 	0.0397	0.4366	0.41	0.065
Mof_C 	C 	0.02623	0.41158	0.39585	0.057
Mof_H 	H 	0.0175	0.4082	0.4074	0.002
Mof_C 	C 	0.99874	0.36991	0.42504	0.104
Mof_C 	C 	0.9824	0.33293	0.38864	0.06
Mof_H 	H 	0.9927	0.3341	0.3993	0
Mof_C 	C 	0.97075	0.31527	0.38786	-0.1
Mof_H 	H 	0.9734	0.3041	0.3973	0.068
Mof_C 	C 	0.95481	0.31355	0.37298	0.008
Mof_H 	H 	0.9463	0.3014	0.3722	0.038
Mof_C 	C 	0.95178	0.33011	0.35933	-0.052
Mof_C 	C 	0.96504	0.34741	0.36077	0.043
Mof_H 	H 	0.9633	0.3586	0.3511	0.01
Mof_C 	C 	0.93567	0.32939	0.34304	0.134
Mof_N 	N 	0.08907	0.38587	0.26527	-0.226
Mof_N 	N 	0.14569	0.52354	0.36377	-0.258
Mof_N 	N 	0.12727	0.48319	0.35067	-0.226
Mof_N 	N 	0.0797	0.43948	0.34636	-0.153
Mof_N 	N 	0.0901	0.43039	0.31193	-0.151
Mof_N 	N 	0.0603	0.41477	0.32715	-0.155
Mof_N 	N 	0.02534	0.3996	0.37861	-0.23
Mof_N 	N 	0.00126	0.37278	0.4075	-0.262
Mof_N 	N 	0.97999	0.34886	0.37506	-0.227
Mof_N 	N 	0.93603	0.3444	0.32863	-0.151
Mof_S 	S 	0.17311	0.54112	0.33475	-0.061
Mof_S 	S 	0.99509	0.3657	0.44984	-0.062
Mof_C 	C 	0.08895	0.89916	0.78122	0.041
Mof_H 	H 	0.1017	0.906	0.7846	0.011
Mof_C 	C 	0.07155	0.90367	0.79316	-0.051
Mof_C 	C 	0.05267	0.894	0.78806	0.009
Mof_H 	H 	0.0404	0.8966	0.796	0.037
Mof_C 	C 	0.0524	0.88056	0.77116	-0.099
Mof_H 	H 	0.0398	0.8739	0.7671	0.066
Mof_C 	C 	0.07076	0.8769	0.76015	0.059
Mof_H 	H 	0.0704	0.8677	0.7485	0
Mof_C 	C 	0.15698	0.03121	0.85172	0.096
Mof_C 	C 	0.14137	0.98466	0.83518	0.056
Mof_H 	H 	0.1523	0.9947	0.8364	-0.001
Mof_C 	C 	0.14056	0.97205	0.81736	-0.098
Mof_H 	H 	0.1511	0.9731	0.807	0.065
Mof_C 	C 	0.12449	0.95823	0.81499	0.009
Mof_H 	H 	0.1235	0.9498	0.8028	0.037
Mof_C 	C 	0.10943	0.95667	0.83094	-0.05
Mof_C 	C 	0.11174	0.96935	0.84831	0.039
Mof_H 	H 	0.1017	0.9682	0.8592	0.014
Mof_C 	C 	0.09209	0.94153	0.82962	0.134
Mof_C 	C 	0.07381	0.9173	0.81177	0.138
Mof_C 	C 	0.06447	0.92578	0.8443	0.14
Mof_C 	C 	0.03758	0.90435	0.86275	0.044
Mof_H 	H 	0.0372	0.8956	0.8507	0.009
Mof_C 	C 	0.05122	0.92164	0.86271	-0.053
Mof_C 	C 	0.0521	0.93399	0.88072	0.008
Mof_H 	H 	0.0612	0.9457	0.8815	0.038
Mof_C 	C 	0.03937	0.92859	0.89744	-0.097
Mof_H 	H 	0.0397	0.9366	0.91	0.065
Mof_C 	C 	0.02623	0.91158	0.89585	0.057
Mof_H 	H 	0.0175	0.9082	0.9074	0.002
Mof_C 	C 	0.99874	0.86991	0.92504	0.104
Mof_C 	C 	0.9824	0.83293	0.88864	0.06
Mof_H 	H 	0.9927	0.8341	0.8993	0
Mof_C 	C 	0.97075	0.81527	0.88786	-0.1
Mof_H 	H 	0.9734	0.8041	0.8973	0.068
Mof_C 	C 	0.95481	0.81355	0.87298	0.008
Mof_H 	H 	0.9463	0.8014	0.8722	0.038
Mof_C 	C 	0.95178	0.83011	0.85933	-0.052
Mof_C 	C 	0.96504	0.84741	0.86077	0.043
Mof_H 	H 	0.9633	0.8586	0.8511	0.01
Mof_C 	C 	0.93567	0.82939	0.84304	0.134
Mof_N 	N 	0.08907	0.88587	0.76527	-0.226
Mof_N 	N 	0.14569	0.02354	0.86377	-0.258
Mof_N 	N 	0.12727	0.98319	0.85067	-0.226
Mof_N 	N 	0.0797	0.93948	0.84636	-0.153
Mof_N 	N 	0.0901	0.93039	0.81193	-0.151
Mof_N 	N 	0.0603	0.91477	0.82715	-0.155
Mof_N 	N 	0.02534	0.8996	0.87861	-0.23
Mof_N 	N 	0.00126	0.87278	0.9075	-0.262
Mof_N 	N 	0.97999	0.84886	0.87506	-0.227
Mof_N 	N 	0.93603	0.8444	0.82863	-0.151
Mof_S 	S 	0.17311	0.04112	0.83475	-0.061
Mof_S 	S 	0.99509	0.8657	0.94984	-0.062
Mof_C 	C 	0.58895	0.39916	0.78122	0.041
Mof_H 	H 	0.6017	0.406	0.7846	0.011
Mof_C 	C 	0.57155	0.40367	0.79316	-0.051
Mof_C 	C 	0.55267	0.394	0.78806	0.009
Mof_H 	H 	0.5404	0.3966	0.796	0.037
Mof_C 	C 	0.5524	0.38056	0.77116	-0.099
Mof_H 	H 	0.5398	0.3739	0.7671	0.066
Mof_C 	C 	0.57076	0.3769	0.76015	0.059
Mof_H 	H 	0.5704	0.3677	0.7485	0
Mof_C 	C 	0.65698	0.53121	0.85172	0.096
Mof_C 	C 	0.64137	0.48466	0.83518	0.056
Mof_H 	H 	0.6523	0.4947	0.8364	-0.001
Mof_C 	C 	0.64056	0.47205	0.81736	-0.098
Mof_H 	H 	0.6511	0.4731	0.807	0.065
Mof_C 	C 	0.62449	0.45823	0.81499	0.009
Mof_H 	H 	0.6235	0.4498	0.8028	0.037
Mof_C 	C 	0.60943	0.45667	0.83094	-0.05
Mof_C 	C 	0.61174	0.46935	0.84831	0.039
Mof_H 	H 	0.6017	0.4682	0.8592	0.014
Mof_C 	C 	0.59209	0.44153	0.82962	0.134
Mof_C 	C 	0.57381	0.4173	0.81177	0.138
Mof_C 	C 	0.56447	0.42578	0.8443	0.14
Mof_C 	C 	0.53758	0.40435	0.86275	0.044
Mof_H 	H 	0.5372	0.3956	0.8507	0.009
Mof_C 	C 	0.55122	0.42164	0.86271	-0.053
Mof_C 	C 	0.5521	0.43399	0.88072	0.008
Mof_H 	H 	0.5612	0.4457	0.8815	0.038
Mof_C 	C 	0.53937	0.42859	0.89744	-0.097
Mof_H 	H 	0.5397	0.4366	0.91	0.065
Mof_C 	C 	0.52623	0.41158	0.89585	0.057
Mof_H 	H 	0.5175	0.4082	0.9074	0.002
Mof_C 	C 	0.49874	0.36991	0.92504	0.104
Mof_C 	C 	0.4824	0.33293	0.88864	0.06
Mof_H 	H 	0.4927	0.3341	0.8993	0
Mof_C 	C 	0.47075	0.31527	0.88786	-0.1
Mof_H 	H 	0.4734	0.3041	0.8973	0.068
Mof_C 	C 	0.45481	0.31355	0.87298	0.008
Mof_H 	H 	0.4463	0.3014	0.8722	0.038
Mof_C 	C 	0.45178	0.33011	0.85933	-0.052
Mof_C 	C 	0.46504	0.34741	0.86077	0.043
Mof_H 	H 	0.4633	0.3586	0.8511	0.01
Mof_C 	C 	0.43567	0.32939	0.84304	0.134
Mof_N 	N 	0.58907	0.38587	0.76527	-0.226
Mof_N 	N 	0.64569	0.52354	0.86377	-0.258
Mof_N 	N 	0.62727	0.48319	0.85067	-0.226
Mof_N 	N 	0.5797	0.43948	0.84636	-0.153
Mof_N 	N 	0.5901	0.43039	0.81193	-0.151
Mof_N 	N 	0.5603	0.41477	0.82715	-0.155
Mof_N 	N 	0.52534	0.3996	0.87861	-0.23
Mof_N 	N 	0.50126	0.37278	0.9075	-0.262
Mof_N 	N 	0.47999	0.34886	0.87506	-0.227
Mof_N 	N 	0.43603	0.3444	0.82863	-0.151
Mof_S 	S 	0.67311	0.54112	0.83475	-0.061
Mof_S 	S 	0.49509	0.3657	0.94984	-0.062
Mof_C 	C 	0.58895	0.89916	0.28122	0.041
Mof_H 	H 	0.6017	0.906	0.2846	0.011
Mof_C 	C 	0.57155	0.90367	0.29316	-0.051
Mof_C 	C 	0.55267	0.894	0.28806	0.009
Mof_H 	H 	0.5404	0.8966	0.296	0.037
Mof_C 	C 	0.5524	0.88056	0.27116	-0.099
Mof_H 	H 	0.5398	0.8739	0.2671	0.066
Mof_C 	C 	0.57076	0.8769	0.26015	0.059
Mof_H 	H 	0.5704	0.8677	0.2485	0
Mof_C 	C 	0.65698	0.03121	0.35172	0.096
Mof_C 	C 	0.64137	0.98466	0.33518	0.056
Mof_H 	H 	0.6523	0.9947	0.3364	-0.001
Mof_C 	C 	0.64056	0.97205	0.31736	-0.098
Mof_H 	H 	0.6511	0.9731	0.307	0.065
Mof_C 	C 	0.62449	0.95823	0.31499	0.009
Mof_H 	H 	0.6235	0.9498	0.3028	0.037
Mof_C 	C 	0.60943	0.95667	0.33094	-0.05
Mof_C 	C 	0.61174	0.96935	0.34831	0.039
Mof_H 	H 	0.6017	0.9682	0.3592	0.014
Mof_C 	C 	0.59209	0.94153	0.32962	0.134
Mof_C 	C 	0.57381	0.9173	0.31177	0.138
Mof_C 	C 	0.56447	0.92578	0.3443	0.14
Mof_C 	C 	0.53758	0.90435	0.36275	0.044
Mof_H 	H 	0.5372	0.8956	0.3507	0.009
Mof_C 	C 	0.55122	0.92164	0.36271	-0.053
Mof_C 	C 	0.5521	0.93399	0.38072	0.008
Mof_H 	H 	0.5612	0.9457	0.3815	0.038
Mof_C 	C 	0.53937	0.92859	0.39744	-0.097
Mof_H 	H 	0.5397	0.9366	0.41	0.065
Mof_C 	C 	0.52623	0.91158	0.39585	0.057
Mof_H 	H 	0.5175	0.9082	0.4074	0.002
Mof_C 	C 	0.49874	0.86991	0.42504	0.104
Mof_C 	C 	0.4824	0.83293	0.38864	0.06
Mof_H 	H 	0.4927	0.8341	0.3993	0
Mof_C 	C 	0.47075	0.81527	0.38786	-0.1
Mof_H 	H 	0.4734	0.8041	0.3973	0.068
Mof_C 	C 	0.45481	0.81355	0.37298	0.008
Mof_H 	H 	0.4463	0.8014	0.3722	0.038
Mof_C 	C 	0.45178	0.83011	0.35933	-0.052
Mof_C 	C 	0.46504	0.84741	0.36077	0.043
Mof_H 	H 	0.4633	0.8586	0.3511	0.01
Mof_C 	C 	0.43567	0.82939	0.34304	0.134
Mof_N 	N 	0.58907	0.88587	0.26527	-0.226
Mof_N 	N 	0.64569	0.02354	0.36377	-0.258
Mof_N 	N 	0.62727	0.98319	0.35067	-0.226
Mof_N 	N 	0.5797	0.93948	0.34636	-0.153
Mof_N 	N 	0.5901	0.93039	0.31193	-0.151
Mof_N 	N 	0.5603	0.91477	0.32715	-0.155
Mof_N 	N 	0.52534	0.8996	0.37861	-0.23
Mof_N 	N 	0.50126	0.87278	0.4075	-0.262
Mof_N 	N 	0.47999	0.84886	0.37506	-0.227
Mof_N 	N 	0.43603	0.8444	0.32863	-0.151
Mof_S 	S 	0.67311	0.04112	0.33475	-0.061
Mof_S 	S 	0.49509	0.8657	0.44984	-0.062
Mof_C 	C 	0.66105	0.89916	0.96878	0.041
Mof_H 	H 	0.6483	0.906	0.9654	0.011
Mof_C 	C 	0.67845	0.90367	0.95684	-0.051
Mof_C 	C 	0.69733	0.894	0.96194	0.009
Mof_H 	H 	0.7096	0.8966	0.954	0.037
Mof_C 	C 	0.6976	0.88056	0.97884	-0.099
Mof_H 	H 	0.7102	0.8739	0.9829	0.066
Mof_C 	C 	0.67924	0.8769	0.98985	0.059
Mof_H 	H 	0.6796	0.8677	0.0015	0
Mof_C 	C 	0.59302	0.03121	0.89828	0.096
Mof_C 	C 	0.60863	0.98466	0.91482	0.056
Mof_H 	H 	0.5977	0.9947	0.9136	-0.001
Mof_C 	C 	0.60944	0.97205	0.93264	-0.098
Mof_H 	H 	0.5989	0.9731	0.943	0.065
Mof_C 	C 	0.62551	0.95823	0.93501	0.009
Mof_H 	H 	0.6265	0.9498	0.9472	0.037
Mof_C 	C 	0.64057	0.95667	0.91906	-0.05
Mof_C 	C 	0.63826	0.96935	0.90169	0.039
Mof_H 	H 	0.6483	0.9682	0.8908	0.014
Mof_C 	C 	0.65791	0.94153	0.92038	0.134
Mof_C 	C 	0.67619	0.9173	0.93823	0.138
Mof_C 	C 	0.68553	0.92578	0.9057	0.14
Mof_C 	C 	0.71242	0.90435	0.88725	0.044
Mof_H 	H 	0.7128	0.8956	0.8993	0.009
Mof_C 	C 	0.69878	0.92164	0.88729	-0.053
Mof_C 	C 	0.6979	0.93399	0.86928	0.008
Mof_H 	H 	0.6888	0.9457	0.8685	0.038
Mof_C 	C 	0.71063	0.92859	0.85256	-0.097
Mof_H 	H 	0.7103	0.9366	0.84	0.065
Mof_C 	C 	0.72377	0.91158	0.85415	0.057
Mof_H 	H 	0.7325	0.9082	0.8426	0.002
Mof_C 	C 	0.75126	0.86991	0.82496	0.104
Mof_C 	C 	0.7676	0.83293	0.86136	0.06
Mof_H 	H 	0.7573	0.8341	0.8507	0
Mof_C 	C 	0.77925	0.81527	0.86214	-0.1
Mof_H 	H 	0.7766	0.8041	0.8527	0.068
Mof_C 	C 	0.79519	0.81355	0.87702	0.008
Mof_H 	H 	0.8037	0.8014	0.8778	0.038
Mof_C 	C 	0.79822	0.83011	0.89067	-0.052
Mof_C 	C 	0.78496	0.84741	0.88923	0.043
Mof_H 	H 	0.7867	0.8586	0.8989	0.01
Mof_C 	C 	0.81433	0.82939	0.90696	0.134
Mof_N 	N 	0.66093	0.88587	0.98473	-0.226
Mof_N 	N 	0.60431	0.02354	0.88623	-0.258
Mof_N 	N 	0.62273	0.98319	0.89933	-0.226
Mof_N 	N 	0.6703	0.93948	0.90364	-0.153
Mof_N 	N 	0.6599	0.93039	0.93807	-0.151
Mof_N 	N 	0.6897	0.91477	0.92285	-0.155
Mof_N 	N 	0.72466	0.8996	0.87139	-0.23
Mof_N 	N 	0.74874	0.87278	0.8425	-0.262
Mof_N 	N 	0.77001	0.84886	0.87494	-0.227
Mof_N 	N 	0.81397	0.8444	0.92137	-0.151
Mof_S 	S 	0.57689	0.04112	0.91525	-0.061
Mof_S 	S 	0.75491	0.8657	0.80016	-0.062
Mof_C 	C 	0.66105	0.39916	0.46878	0.041
Mof_H 	H 	0.6483	0.406	0.4654	0.011
Mof_C 	C 	0.67845	0.40367	0.45684	-0.051
Mof_C 	C 	0.69733	0.394	0.46194	0.009
Mof_H 	H 	0.7096	0.3966	0.454	0.037
Mof_C 	C 	0.6976	0.38056	0.47884	-0.099
Mof_H 	H 	0.7102	0.3739	0.4829	0.066
Mof_C 	C 	0.67924	0.3769	0.48985	0.059
Mof_H 	H 	0.6796	0.3677	0.5015	0
Mof_C 	C 	0.59302	0.53121	0.39828	0.096
Mof_C 	C 	0.60863	0.48466	0.41482	0.056
Mof_H 	H 	0.5977	0.4947	0.4136	-0.001
Mof_C 	C 	0.60944	0.47205	0.43264	-0.098
Mof_H 	H 	0.5989	0.4731	0.443	0.065
Mof_C 	C 	0.62551	0.45823	0.43501	0.009
Mof_H 	H 	0.6265	0.4498	0.4472	0.037
Mof_C 	C 	0.64057	0.45667	0.41906	-0.05
Mof_C 	C 	0.63826	0.46935	0.40169	0.039
Mof_H 	H 	0.6483	0.4682	0.3908	0.014
Mof_C 	C 	0.65791	0.44153	0.42038	0.134
Mof_C 	C 	0.67619	0.4173	0.43823	0.138
Mof_C 	C 	0.68553	0.42578	0.4057	0.14
Mof_C 	C 	0.71242	0.40435	0.38725	0.044
Mof_H 	H 	0.7128	0.3956	0.3993	0.009
Mof_C 	C 	0.69878	0.42164	0.38729	-0.053
Mof_C 	C 	0.6979	0.43399	0.36928	0.008
Mof_H 	H 	0.6888	0.4457	0.3685	0.038
Mof_C 	C 	0.71063	0.42859	0.35256	-0.097
Mof_H 	H 	0.7103	0.4366	0.34	0.065
Mof_C 	C 	0.72377	0.41158	0.35415	0.057
Mof_H 	H 	0.7325	0.4082	0.3426	0.002
Mof_C 	C 	0.75126	0.36991	0.32496	0.104
Mof_C 	C 	0.7676	0.33293	0.36136	0.06
Mof_H 	H 	0.7573	0.3341	0.3507	0
Mof_C 	C 	0.77925	0.31527	0.36214	-0.1
Mof_H 	H 	0.7766	0.3041	0.3527	0.068
Mof_C 	C 	0.79519	0.31355	0.37702	0.008
Mof_H 	H 	0.8037	0.3014	0.3778	0.038
Mof_C 	C 	0.79822	0.33011	0.39067	-0.052
Mof_C 	C 	0.78496	0.34741	0.38923	0.043
Mof_H 	H 	0.7867	0.3586	0.3989	0.01
Mof_C 	C 	0.81433	0.32939	0.40696	0.134
Mof_N 	N 	0.66093	0.38587	0.48473	-0.226
Mof_N 	N 	0.60431	0.52354	0.38623	-0.258
Mof_N 	N 	0.62273	0.48319	0.39933	-0.226
Mof_N 	N 	0.6703	0.43948	0.40364	-0.153
Mof_N 	N 	0.6599	0.43039	0.43807	-0.151
Mof_N 	N 	0.6897	0.41477	0.42285	-0.155
Mof_N 	N 	0.72466	0.3996	0.37139	-0.23
Mof_N 	N 	0.74874	0.37278	0.3425	-0.262
Mof_N 	N 	0.77001	0.34886	0.37494	-0.227
Mof_N 	N 	0.81397	0.3444	0.42137	-0.151
Mof_S 	S 	0.57689	0.54112	0.41525	-0.061
Mof_S 	S 	0.75491	0.3657	0.30016	-0.062
Mof_C 	C 	0.16105	0.89916	0.46878	0.041
Mof_H 	H 	0.1483	0.906	0.4654	0.011
Mof_C 	C 	0.17845	0.90367	0.45684	-0.051
Mof_C 	C 	0.19733	0.894	0.46194	0.009
Mof_H 	H 	0.2096	0.8966	0.454	0.037
Mof_C 	C 	0.1976	0.88056	0.47884	-0.099
Mof_H 	H 	0.2102	0.8739	0.4829	0.066
Mof_C 	C 	0.17924	0.8769	0.48985	0.059
Mof_H 	H 	0.1796	0.8677	0.5015	0
Mof_C 	C 	0.09302	0.03121	0.39828	0.096
Mof_C 	C 	0.10863	0.98466	0.41482	0.056
Mof_H 	H 	0.0977	0.9947	0.4136	-0.001
Mof_C 	C 	0.10944	0.97205	0.43264	-0.098
Mof_H 	H 	0.0989	0.9731	0.443	0.065
Mof_C 	C 	0.12551	0.95823	0.43501	0.009
Mof_H 	H 	0.1265	0.9498	0.4472	0.037
Mof_C 	C 	0.14057	0.95667	0.41906	-0.05
Mof_C 	C 	0.13826	0.96935	0.40169	0.039
Mof_H 	H 	0.1483	0.9682	0.3908	0.014
Mof_C 	C 	0.15791	0.94153	0.42038	0.134
Mof_C 	C 	0.17619	0.9173	0.43823	0.138
Mof_C 	C 	0.18553	0.92578	0.4057	0.14
Mof_C 	C 	0.21242	0.90435	0.38725	0.044
Mof_H 	H 	0.2128	0.8956	0.3993	0.009
Mof_C 	C 	0.19878	0.92164	0.38729	-0.053
Mof_C 	C 	0.1979	0.93399	0.36928	0.008
Mof_H 	H 	0.1888	0.9457	0.3685	0.038
Mof_C 	C 	0.21063	0.92859	0.35256	-0.097
Mof_H 	H 	0.2103	0.9366	0.34	0.065
Mof_C 	C 	0.22377	0.91158	0.35415	0.057
Mof_H 	H 	0.2325	0.9082	0.3426	0.002
Mof_C 	C 	0.25126	0.86991	0.32496	0.104
Mof_C 	C 	0.2676	0.83293	0.36136	0.06
Mof_H 	H 	0.2573	0.8341	0.3507	0
Mof_C 	C 	0.27925	0.81527	0.36214	-0.1
Mof_H 	H 	0.2766	0.8041	0.3527	0.068
Mof_C 	C 	0.29519	0.81355	0.37702	0.008
Mof_H 	H 	0.3037	0.8014	0.3778	0.038
Mof_C 	C 	0.29822	0.83011	0.39067	-0.052
Mof_C 	C 	0.28496	0.84741	0.38923	0.043
Mof_H 	H 	0.2867	0.8586	0.3989	0.01
Mof_C 	C 	0.31433	0.82939	0.40696	0.134
Mof_N 	N 	0.16093	0.88587	0.48473	-0.226
Mof_N 	N 	0.10431	0.02354	0.38623	-0.258
Mof_N 	N 	0.12273	0.98319	0.39933	-0.226
Mof_N 	N 	0.1703	0.93948	0.40364	-0.153
Mof_N 	N 	0.1599	0.93039	0.43807	-0.151
Mof_N 	N 	0.1897	0.91477	0.42285	-0.155
Mof_N 	N 	0.22466	0.8996	0.37139	-0.23
Mof_N 	N 	0.24874	0.87278	0.3425	-0.262
Mof_N 	N 	0.27001	0.84886	0.37494	-0.227
Mof_N 	N 	0.31397	0.8444	0.42137	-0.151
Mof_S 	S 	0.07689	0.04112	0.41525	-0.061
Mof_S 	S 	0.25491	0.8657	0.30016	-0.062
Mof_C 	C 	0.16105	0.39916	0.96878	0.041
Mof_H 	H 	0.1483	0.406	0.9654	0.011
Mof_C 	C 	0.17845	0.40367	0.95684	-0.051
Mof_C 	C 	0.19733	0.394	0.96194	0.009
Mof_H 	H 	0.2096	0.3966	0.954	0.037
Mof_C 	C 	0.1976	0.38056	0.97884	-0.099
Mof_H 	H 	0.2102	0.3739	0.9829	0.066
Mof_C 	C 	0.17924	0.3769	0.98985	0.059
Mof_H 	H 	0.1796	0.3677	0.0015	0
Mof_C 	C 	0.09302	0.53121	0.89828	0.096
Mof_C 	C 	0.10863	0.48466	0.91482	0.056
Mof_H 	H 	0.0977	0.4947	0.9136	-0.001
Mof_C 	C 	0.10944	0.47205	0.93264	-0.098
Mof_H 	H 	0.0989	0.4731	0.943	0.065
Mof_C 	C 	0.12551	0.45823	0.93501	0.009
Mof_H 	H 	0.1265	0.4498	0.9472	0.037
Mof_C 	C 	0.14057	0.45667	0.91906	-0.05
Mof_C 	C 	0.13826	0.46935	0.90169	0.039
Mof_H 	H 	0.1483	0.4682	0.8908	0.014
Mof_C 	C 	0.15791	0.44153	0.92038	0.134
Mof_C 	C 	0.17619	0.4173	0.93823	0.138
Mof_C 	C 	0.18553	0.42578	0.9057	0.14
Mof_C 	C 	0.21242	0.40435	0.88725	0.044
Mof_H 	H 	0.2128	0.3956	0.8993	0.009
Mof_C 	C 	0.19878	0.42164	0.88729	-0.053
Mof_C 	C 	0.1979	0.43399	0.86928	0.008
Mof_H 	H 	0.1888	0.4457	0.8685	0.038
Mof_C 	C 	0.21063	0.42859	0.85256	-0.097
Mof_H 	H 	0.2103	0.4366	0.84	0.065
Mof_C 	C 	0.22377	0.41158	0.85415	0.057
Mof_H 	H 	0.2325	0.4082	0.8426	0.002
Mof_C 	C 	0.25126	0.36991	0.82496	0.104
Mof_C 	C 	0.2676	0.33293	0.86136	0.06
Mof_H 	H 	0.2573	0.3341	0.8507	0
Mof_C 	C 	0.27925	0.31527	0.86214	-0.1
Mof_H 	H 	0.2766	0.3041	0.8527	0.068
Mof_C 	C 	0.29519	0.31355	0.87702	0.008
Mof_H 	H 	0.3037	0.3014	0.8778	0.038
Mof_C 	C 	0.29822	0.33011	0.89067	-0.052
Mof_C 	C 	0.28496	0.34741	0.88923	0.043
Mof_H 	H 	0.2867	0.3586	0.8989	0.01
Mof_C 	C 	0.31433	0.32939	0.90696	0.134
Mof_N 	N 	0.16093	0.38587	0.98473	-0.226
Mof_N 	N 	0.10431	0.52354	0.88623	-0.258
Mof_N 	N 	0.12273	0.48319	0.89933	-0.226
Mof_N 	N 	0.1703	0.43948	0.90364	-0.153
Mof_N 	N 	0.1599	0.43039	0.93807	-0.151
Mof_N 	N 	0.1897	0.41477	0.92285	-0.155
Mof_N 	N 	0.22466	0.3996	0.87139	-0.23
Mof_N 	N 	0.24874	0.37278	0.8425	-0.262
Mof_N 	N 	0.27001	0.34886	0.87494	-0.227
Mof_N 	N 	0.31397	0.3444	0.92137	-0.151
Mof_S 	S 	0.07689	0.54112	0.91525	-0.061
Mof_S 	S 	0.25491	0.3657	0.80016	-0.062
Mof_C 	C 	0.85084	0.46878	0.58895	0.041
Mof_H 	H 	0.844	0.4654	0.6017	0.011
Mof_C 	C 	0.84633	0.45684	0.57155	-0.051
Mof_C 	C 	0.856	0.46194	0.55267	0.009
Mof_H 	H 	0.8534	0.454	0.5404	0.037
Mof_C 	C 	0.86944	0.47884	0.5524	-0.099
Mof_H 	H 	0.8761	0.4829	0.5398	0.066
Mof_C 	C 	0.8731	0.48985	0.57076	0.059
Mof_H 	H 	0.8823	0.5015	0.5704	0
Mof_C 	C 	0.71879	0.39828	0.65698	0.096
Mof_C 	C 	0.76534	0.41482	0.64137	0.056
Mof_H 	H 	0.7553	0.4136	0.6523	-0.001
Mof_C 	C 	0.77795	0.43264	0.64056	-0.098
Mof_H 	H 	0.7769	0.443	0.6511	0.065
Mof_C 	C 	0.79177	0.43501	0.62449	0.009
Mof_H 	H 	0.8002	0.4472	0.6235	0.037
Mof_C 	C 	0.79333	0.41906	0.60943	-0.05
Mof_C 	C 	0.78065	0.40169	0.61174	0.039
Mof_H 	H 	0.7818	0.3908	0.6017	0.014
Mof_C 	C 	0.80847	0.42038	0.59209	0.134
Mof_C 	C 	0.8327	0.43823	0.57381	0.138
Mof_C 	C 	0.82422	0.4057	0.56447	0.14
Mof_C 	C 	0.84565	0.38725	0.53758	0.044
Mof_H 	H 	0.8544	0.3993	0.5372	0.009
Mof_C 	C 	0.82836	0.38729	0.55122	-0.053
Mof_C 	C 	0.81601	0.36928	0.5521	0.008
Mof_H 	H 	0.8043	0.3685	0.5612	0.038
Mof_C 	C 	0.82141	0.35256	0.53937	-0.097
Mof_H 	H 	0.8134	0.34	0.5397	0.065
Mof_C 	C 	0.83842	0.35415	0.52623	0.057
Mof_H 	H 	0.8418	0.3426	0.5175	0.002
Mof_C 	C 	0.88009	0.32496	0.49874	0.104
Mof_C 	C 	0.91707	0.36136	0.4824	0.06
Mof_H 	H 	0.9159	0.3507	0.4927	0
Mof_C 	C 	0.93473	0.36214	0.47075	-0.1
Mof_H 	H 	0.9459	0.3527	0.4734	0.068
Mof_C 	C 	0.93645	0.37702	0.45481	0.008
Mof_H 	H 	0.9486	0.3778	0.4463	0.038
Mof_C 	C 	0.91989	0.39067	0.45178	-0.052
Mof_C 	C 	0.90259	0.38923	0.46504	0.043
Mof_H 	H 	0.8914	0.3989	0.4633	0.01
Mof_C 	C 	0.92061	0.40696	0.43567	0.134
Mof_N 	N 	0.86413	0.48473	0.58907	-0.226
Mof_N 	N 	0.72646	0.38623	0.64569	-0.258
Mof_N 	N 	0.76681	0.39933	0.62727	-0.226
Mof_N 	N 	0.81052	0.40364	0.5797	-0.153
Mof_N 	N 	0.81961	0.43807	0.5901	-0.151
Mof_N 	N 	0.83523	0.42285	0.5603	-0.155
Mof_N 	N 	0.8504	0.37139	0.52534	-0.23
Mof_N 	N 	0.87722	0.3425	0.50126	-0.262
Mof_N 	N 	0.90114	0.37494	0.47999	-0.227
Mof_N 	N 	0.9056	0.42137	0.43603	-0.151
Mof_S 	S 	0.70888	0.41525	0.67311	-0.061
Mof_S 	S 	0.8843	0.30016	0.49509	-0.062
Mof_C 	C 	0.85084	0.96878	0.08895	0.041
Mof_H 	H 	0.844	0.9654	0.1017	0.011
Mof_C 	C 	0.84633	0.95684	0.07155	-0.051
Mof_C 	C 	0.856	0.96194	0.05267	0.009
Mof_H 	H 	0.8534	0.954	0.0404	0.037
Mof_C 	C 	0.86944	0.97884	0.0524	-0.099
Mof_H 	H 	0.8761	0.9829	0.0398	0.066
Mof_C 	C 	0.8731	0.98985	0.07076	0.059
Mof_H 	H 	0.8823	0.0015	0.0704	0
Mof_C 	C 	0.71879	0.89828	0.15698	0.096
Mof_C 	C 	0.76534	0.91482	0.14137	0.056
Mof_H 	H 	0.7553	0.9136	0.1523	-0.001
Mof_C 	C 	0.77795	0.93264	0.14056	-0.098
Mof_H 	H 	0.7769	0.943	0.1511	0.065
Mof_C 	C 	0.79177	0.93501	0.12449	0.009
Mof_H 	H 	0.8002	0.9472	0.1235	0.037
Mof_C 	C 	0.79333	0.91906	0.10943	-0.05
Mof_C 	C 	0.78065	0.90169	0.11174	0.039
Mof_H 	H 	0.7818	0.8908	0.1017	0.014
Mof_C 	C 	0.80847	0.92038	0.09209	0.134
Mof_C 	C 	0.8327	0.93823	0.07381	0.138
Mof_C 	C 	0.82422	0.9057	0.06447	0.14
Mof_C 	C 	0.84565	0.88725	0.03758	0.044
Mof_H 	H 	0.8544	0.8993	0.0372	0.009
Mof_C 	C 	0.82836	0.88729	0.05122	-0.053
Mof_C 	C 	0.81601	0.86928	0.0521	0.008
Mof_H 	H 	0.8043	0.8685	0.0612	0.038
Mof_C 	C 	0.82141	0.85256	0.03937	-0.097
Mof_H 	H 	0.8134	0.84	0.0397	0.065
Mof_C 	C 	0.83842	0.85415	0.02623	0.057
Mof_H 	H 	0.8418	0.8426	0.0175	0.002
Mof_C 	C 	0.88009	0.82496	0.99874	0.104
Mof_C 	C 	0.91707	0.86136	0.9824	0.06
Mof_H 	H 	0.9159	0.8507	0.9927	0
Mof_C 	C 	0.93473	0.86214	0.97075	-0.1
Mof_H 	H 	0.9459	0.8527	0.9734	0.068
Mof_C 	C 	0.93645	0.87702	0.95481	0.008
Mof_H 	H 	0.9486	0.8778	0.9463	0.038
Mof_C 	C 	0.91989	0.89067	0.95178	-0.052
Mof_C 	C 	0.90259	0.88923	0.96504	0.043
Mof_H 	H 	0.8914	0.8989	0.9633	0.01
Mof_C 	C 	0.92061	0.90696	0.93567	0.134
Mof_N 	N 	0.86413	0.98473	0.08907	-0.226
Mof_N 	N 	0.72646	0.88623	0.14569	-0.258
Mof_N 	N 	0.76681	0.89933	0.12727	-0.226
Mof_N 	N 	0.81052	0.90364	0.0797	-0.153
Mof_N 	N 	0.81961	0.93807	0.0901	-0.151
Mof_N 	N 	0.83523	0.92285	0.0603	-0.155
Mof_N 	N 	0.8504	0.87139	0.02534	-0.23
Mof_N 	N 	0.87722	0.8425	0.00126	-0.262
Mof_N 	N 	0.90114	0.87494	0.97999	-0.227
Mof_N 	N 	0.9056	0.92137	0.93603	-0.151
Mof_S 	S 	0.70888	0.91525	0.17311	-0.061
Mof_S 	S 	0.8843	0.80016	0.99509	-0.062
Mof_C 	C 	0.35084	0.46878	0.08895	0.041
Mof_H 	H 	0.344	0.4654	0.1017	0.011
Mof_C 	C 	0.34633	0.45684	0.07155	-0.051
Mof_C 	C 	0.356	0.46194	0.05267	0.009
Mof_H 	H 	0.3534	0.454	0.0404	0.037
Mof_C 	C 	0.36944	0.47884	0.0524	-0.099
Mof_H 	H 	0.3761	0.4829	0.0398	0.066
Mof_C 	C 	0.3731	0.48985	0.07076	0.059
Mof_H 	H 	0.3823	0.5015	0.0704	0
Mof_C 	C 	0.21879	0.39828	0.15698	0.096
Mof_C 	C 	0.26534	0.41482	0.14137	0.056
Mof_H 	H 	0.2553	0.4136	0.1523	-0.001
Mof_C 	C 	0.27795	0.43264	0.14056	-0.098
Mof_H 	H 	0.2769	0.443	0.1511	0.065
Mof_C 	C 	0.29177	0.43501	0.12449	0.009
Mof_H 	H 	0.3002	0.4472	0.1235	0.037
Mof_C 	C 	0.29333	0.41906	0.10943	-0.05
Mof_C 	C 	0.28065	0.40169	0.11174	0.039
Mof_H 	H 	0.2818	0.3908	0.1017	0.014
Mof_C 	C 	0.30847	0.42038	0.09209	0.134
Mof_C 	C 	0.3327	0.43823	0.07381	0.138
Mof_C 	C 	0.32422	0.4057	0.06447	0.14
Mof_C 	C 	0.34565	0.38725	0.03758	0.044
Mof_H 	H 	0.3544	0.3993	0.0372	0.009
Mof_C 	C 	0.32836	0.38729	0.05122	-0.053
Mof_C 	C 	0.31601	0.36928	0.0521	0.008
Mof_H 	H 	0.3043	0.3685	0.0612	0.038
Mof_C 	C 	0.32141	0.35256	0.03937	-0.097
Mof_H 	H 	0.3134	0.34	0.0397	0.065
Mof_C 	C 	0.33842	0.35415	0.02623	0.057
Mof_H 	H 	0.3418	0.3426	0.0175	0.002
Mof_C 	C 	0.38009	0.32496	0.99874	0.104
Mof_C 	C 	0.41707	0.36136	0.9824	0.06
Mof_H 	H 	0.4159	0.3507	0.9927	0
Mof_C 	C 	0.43473	0.36214	0.97075	-0.1
Mof_H 	H 	0.4459	0.3527	0.9734	0.068
Mof_C 	C 	0.43645	0.37702	0.95481	0.008
Mof_H 	H 	0.4486	0.3778	0.9463	0.038
Mof_C 	C 	0.41989	0.39067	0.95178	-0.052
Mof_C 	C 	0.40259	0.38923	0.96504	0.043
Mof_H 	H 	0.3914	0.3989	0.9633	0.01
Mof_C 	C 	0.42061	0.40696	0.93567	0.134
Mof_N 	N 	0.36413	0.48473	0.08907	-0.226
Mof_N 	N 	0.22646	0.38623	0.14569	-0.258
Mof_N 	N 	0.26681	0.39933	0.12727	-0.226
Mof_N 	N 	0.31052	0.40364	0.0797	-0.153
Mof_N 	N 	0.31961	0.43807	0.0901	-0.151
Mof_N 	N 	0.33523	0.42285	0.0603	-0.155
Mof_N 	N 	0.3504	0.37139	0.02534	-0.23
Mof_N 	N 	0.37722	0.3425	0.00126	-0.262
Mof_N 	N 	0.40114	0.37494	0.97999	-0.227
Mof_N 	N 	0.4056	0.42137	0.93603	-0.151
Mof_S 	S 	0.20888	0.41525	0.17311	-0.061
Mof_S 	S 	0.3843	0.30016	0.99509	-0.062
Mof_C 	C 	0.35084	0.96878	0.58895	0.041
Mof_H 	H 	0.344	0.9654	0.6017	0.011
Mof_C 	C 	0.34633	0.95684	0.57155	-0.051
Mof_C 	C 	0.356	0.96194	0.55267	0.009
Mof_H 	H 	0.3534	0.954	0.5404	0.037
Mof_C 	C 	0.36944	0.97884	0.5524	-0.099
Mof_H 	H 	0.3761	0.9829	0.5398	0.066
Mof_C 	C 	0.3731	0.98985	0.57076	0.059
Mof_H 	H 	0.3823	0.0015	0.5704	0
Mof_C 	C 	0.21879	0.89828	0.65698	0.096
Mof_C 	C 	0.26534	0.91482	0.64137	0.056
Mof_H 	H 	0.2553	0.9136	0.6523	-0.001
Mof_C 	C 	0.27795	0.93264	0.64056	-0.098
Mof_H 	H 	0.2769	0.943	0.6511	0.065
Mof_C 	C 	0.29177	0.93501	0.62449	0.009
Mof_H 	H 	0.3002	0.9472	0.6235	0.037
Mof_C 	C 	0.29333	0.91906	0.60943	-0.05
Mof_C 	C 	0.28065	0.90169	0.61174	0.039
Mof_H 	H 	0.2818	0.8908	0.6017	0.014
Mof_C 	C 	0.30847	0.92038	0.59209	0.134
Mof_C 	C 	0.3327	0.93823	0.57381	0.138
Mof_C 	C 	0.32422	0.9057	0.56447	0.14
Mof_C 	C 	0.34565	0.88725	0.53758	0.044
Mof_H 	H 	0.3544	0.8993	0.5372	0.009
Mof_C 	C 	0.32836	0.88729	0.55122	-0.053
Mof_C 	C 	0.31601	0.86928	0.5521	0.008
Mof_H 	H 	0.3043	0.8685	0.5612	0.038
Mof_C 	C 	0.32141	0.85256	0.53937	-0.097
Mof_H 	H 	0.3134	0.84	0.5397	0.065
Mof_C 	C 	0.33842	0.85415	0.52623	0.057
Mof_H 	H 	0.3418	0.8426	0.5175	0.002
Mof_C 	C 	0.38009	0.82496	0.49874	0.104
Mof_C 	C 	0.41707	0.86136	0.4824	0.06
Mof_H 	H 	0.4159	0.8507	0.4927	0
Mof_C 	C 	0.43473	0.86214	0.47075	-0.1
Mof_H 	H 	0.4459	0.8527	0.4734	0.068
Mof_C 	C 	0.43645	0.87702	0.45481	0.008
Mof_H 	H 	0.4486	0.8778	0.4463	0.038
Mof_C 	C 	0.41989	0.89067	0.45178	-0.052
Mof_C 	C 	0.40259	0.88923	0.46504	0.043
Mof_H 	H 	0.3914	0.8989	0.4633	0.01
Mof_C 	C 	0.42061	0.90696	0.43567	0.134
Mof_N 	N 	0.36413	0.98473	0.58907	-0.226
Mof_N 	N 	0.22646	0.88623	0.64569	-0.258
Mof_N 	N 	0.26681	0.89933	0.62727	-0.226
Mof_N 	N 	0.31052	0.90364	0.5797	-0.153
Mof_N 	N 	0.31961	0.93807	0.5901	-0.151
Mof_N 	N 	0.33523	0.92285	0.5603	-0.155
Mof_N 	N 	0.3504	0.87139	0.52534	-0.23
Mof_N 	N 	0.37722	0.8425	0.50126	-0.262
Mof_N 	N 	0.40114	0.87494	0.47999	-0.227
Mof_N 	N 	0.4056	0.92137	0.43603	-0.151
Mof_S 	S 	0.20888	0.91525	0.67311	-0.061
Mof_S 	S 	0.3843	0.80016	0.49509	-0.062
Mof_C 	C 	0.35084	0.78122	0.16105	0.041
Mof_H 	H 	0.344	0.7846	0.1483	0.011
Mof_C 	C 	0.34633	0.79316	0.17845	-0.051
Mof_C 	C 	0.356	0.78806	0.19733	0.009
Mof_H 	H 	0.3534	0.796	0.2096	0.037
Mof_C 	C 	0.36944	0.77116	0.1976	-0.099
Mof_H 	H 	0.3761	0.7671	0.2102	0.066
Mof_C 	C 	0.3731	0.76015	0.17924	0.059
Mof_H 	H 	0.3823	0.7485	0.1796	0
Mof_C 	C 	0.21879	0.85172	0.09302	0.096
Mof_C 	C 	0.26534	0.83518	0.10863	0.056
Mof_H 	H 	0.2553	0.8364	0.0977	-0.001
Mof_C 	C 	0.27795	0.81736	0.10944	-0.098
Mof_H 	H 	0.2769	0.807	0.0989	0.065
Mof_C 	C 	0.29177	0.81499	0.12551	0.009
Mof_H 	H 	0.3002	0.8028	0.1265	0.037
Mof_C 	C 	0.29333	0.83094	0.14057	-0.05
Mof_C 	C 	0.28065	0.84831	0.13826	0.039
Mof_H 	H 	0.2818	0.8592	0.1483	0.014
Mof_C 	C 	0.30847	0.82962	0.15791	0.134
Mof_C 	C 	0.3327	0.81177	0.17619	0.138
Mof_C 	C 	0.32422	0.8443	0.18553	0.14
Mof_C 	C 	0.34565	0.86275	0.21242	0.044
Mof_H 	H 	0.3544	0.8507	0.2128	0.009
Mof_C 	C 	0.32836	0.86271	0.19878	-0.053
Mof_C 	C 	0.31601	0.88072	0.1979	0.008
Mof_H 	H 	0.3043	0.8815	0.1888	0.038
Mof_C 	C 	0.32141	0.89744	0.21063	-0.097
Mof_H 	H 	0.3134	0.91	0.2103	0.065
Mof_C 	C 	0.33842	0.89585	0.22377	0.057
Mof_H 	H 	0.3418	0.9074	0.2325	0.002
Mof_C 	C 	0.38009	0.92504	0.25126	0.104
Mof_C 	C 	0.41707	0.88864	0.2676	0.06
Mof_H 	H 	0.4159	0.8993	0.2573	0
Mof_C 	C 	0.43473	0.88786	0.27925	-0.1
Mof_H 	H 	0.4459	0.8973	0.2766	0.068
Mof_C 	C 	0.43645	0.87298	0.29519	0.008
Mof_H 	H 	0.4486	0.8722	0.3037	0.038
Mof_C 	C 	0.41989	0.85933	0.29822	-0.052
Mof_C 	C 	0.40259	0.86077	0.28496	0.043
Mof_H 	H 	0.3914	0.8511	0.2867	0.01
Mof_C 	C 	0.42061	0.84304	0.31433	0.134
Mof_N 	N 	0.36413	0.76527	0.16093	-0.226
Mof_N 	N 	0.22646	0.86377	0.10431	-0.258
Mof_N 	N 	0.26681	0.85067	0.12273	-0.226
Mof_N 	N 	0.31052	0.84636	0.1703	-0.153
Mof_N 	N 	0.31961	0.81193	0.1599	-0.151
Mof_N 	N 	0.33523	0.82715	0.1897	-0.155
Mof_N 	N 	0.3504	0.87861	0.22466	-0.23
Mof_N 	N 	0.37722	0.9075	0.24874	-0.262
Mof_N 	N 	0.40114	0.87506	0.27001	-0.227
Mof_N 	N 	0.4056	0.82863	0.31397	-0.151
Mof_S 	S 	0.20888	0.83475	0.07689	-0.061
Mof_S 	S 	0.3843	0.94984	0.25491	-0.062
Mof_C 	C 	0.35084	0.28122	0.66105	0.041
Mof_H 	H 	0.344	0.2846	0.6483	0.011
Mof_C 	C 	0.34633	0.29316	0.67845	-0.051
Mof_C 	C 	0.356	0.28806	0.69733	0.009
Mof_H 	H 	0.3534	0.296	0.7096	0.037
Mof_C 	C 	0.36944	0.27116	0.6976	-0.099
Mof_H 	H 	0.3761	0.2671	0.7102	0.066
Mof_C 	C 	0.3731	0.26015	0.67924	0.059
Mof_H 	H 	0.3823	0.2485	0.6796	0
Mof_C 	C 	0.21879	0.35172	0.59302	0.096
Mof_C 	C 	0.26534	0.33518	0.60863	0.056
Mof_H 	H 	0.2553	0.3364	0.5977	-0.001
Mof_C 	C 	0.27795	0.31736	0.60944	-0.098
Mof_H 	H 	0.2769	0.307	0.5989	0.065
Mof_C 	C 	0.29177	0.31499	0.62551	0.009
Mof_H 	H 	0.3002	0.3028	0.6265	0.037
Mof_C 	C 	0.29333	0.33094	0.64057	-0.05
Mof_C 	C 	0.28065	0.34831	0.63826	0.039
Mof_H 	H 	0.2818	0.3592	0.6483	0.014
Mof_C 	C 	0.30847	0.32962	0.65791	0.134
Mof_C 	C 	0.3327	0.31177	0.67619	0.138
Mof_C 	C 	0.32422	0.3443	0.68553	0.14
Mof_C 	C 	0.34565	0.36275	0.71242	0.044
Mof_H 	H 	0.3544	0.3507	0.7128	0.009
Mof_C 	C 	0.32836	0.36271	0.69878	-0.053
Mof_C 	C 	0.31601	0.38072	0.6979	0.008
Mof_H 	H 	0.3043	0.3815	0.6888	0.038
Mof_C 	C 	0.32141	0.39744	0.71063	-0.097
Mof_H 	H 	0.3134	0.41	0.7103	0.065
Mof_C 	C 	0.33842	0.39585	0.72377	0.057
Mof_H 	H 	0.3418	0.4074	0.7325	0.002
Mof_C 	C 	0.38009	0.42504	0.75126	0.104
Mof_C 	C 	0.41707	0.38864	0.7676	0.06
Mof_H 	H 	0.4159	0.3993	0.7573	0
Mof_C 	C 	0.43473	0.38786	0.77925	-0.1
Mof_H 	H 	0.4459	0.3973	0.7766	0.068
Mof_C 	C 	0.43645	0.37298	0.79519	0.008
Mof_H 	H 	0.4486	0.3722	0.8037	0.038
Mof_C 	C 	0.41989	0.35933	0.79822	-0.052
Mof_C 	C 	0.40259	0.36077	0.78496	0.043
Mof_H 	H 	0.3914	0.3511	0.7867	0.01
Mof_C 	C 	0.42061	0.34304	0.81433	0.134
Mof_N 	N 	0.36413	0.26527	0.66093	-0.226
Mof_N 	N 	0.22646	0.36377	0.60431	-0.258
Mof_N 	N 	0.26681	0.35067	0.62273	-0.226
Mof_N 	N 	0.31052	0.34636	0.6703	-0.153
Mof_N 	N 	0.31961	0.31193	0.6599	-0.151
Mof_N 	N 	0.33523	0.32715	0.6897	-0.155
Mof_N 	N 	0.3504	0.37861	0.72466	-0.23
Mof_N 	N 	0.37722	0.4075	0.74874	-0.262
Mof_N 	N 	0.40114	0.37506	0.77001	-0.227
Mof_N 	N 	0.4056	0.32863	0.81397	-0.151
Mof_S 	S 	0.20888	0.33475	0.57689	-0.061
Mof_S 	S 	0.3843	0.44984	0.75491	-0.062
Mof_C 	C 	0.85084	0.78122	0.66105	0.041
Mof_H 	H 	0.844	0.7846	0.6483	0.011
Mof_C 	C 	0.84633	0.79316	0.67845	-0.051
Mof_C 	C 	0.856	0.78806	0.69733	0.009
Mof_H 	H 	0.8534	0.796	0.7096	0.037
Mof_C 	C 	0.86944	0.77116	0.6976	-0.099
Mof_H 	H 	0.8761	0.7671	0.7102	0.066
Mof_C 	C 	0.8731	0.76015	0.67924	0.059
Mof_H 	H 	0.8823	0.7485	0.6796	0
Mof_C 	C 	0.71879	0.85172	0.59302	0.096
Mof_C 	C 	0.76534	0.83518	0.60863	0.056
Mof_H 	H 	0.7553	0.8364	0.5977	-0.001
Mof_C 	C 	0.77795	0.81736	0.60944	-0.098
Mof_H 	H 	0.7769	0.807	0.5989	0.065
Mof_C 	C 	0.79177	0.81499	0.62551	0.009
Mof_H 	H 	0.8002	0.8028	0.6265	0.037
Mof_C 	C 	0.79333	0.83094	0.64057	-0.05
Mof_C 	C 	0.78065	0.84831	0.63826	0.039
Mof_H 	H 	0.7818	0.8592	0.6483	0.014
Mof_C 	C 	0.80847	0.82962	0.65791	0.134
Mof_C 	C 	0.8327	0.81177	0.67619	0.138
Mof_C 	C 	0.82422	0.8443	0.68553	0.14
Mof_C 	C 	0.84565	0.86275	0.71242	0.044
Mof_H 	H 	0.8544	0.8507	0.7128	0.009
Mof_C 	C 	0.82836	0.86271	0.69878	-0.053
Mof_C 	C 	0.81601	0.88072	0.6979	0.008
Mof_H 	H 	0.8043	0.8815	0.6888	0.038
Mof_C 	C 	0.82141	0.89744	0.71063	-0.097
Mof_H 	H 	0.8134	0.91	0.7103	0.065
Mof_C 	C 	0.83842	0.89585	0.72377	0.057
Mof_H 	H 	0.8418	0.9074	0.7325	0.002
Mof_C 	C 	0.88009	0.92504	0.75126	0.104
Mof_C 	C 	0.91707	0.88864	0.7676	0.06
Mof_H 	H 	0.9159	0.8993	0.7573	0
Mof_C 	C 	0.93473	0.88786	0.77925	-0.1
Mof_H 	H 	0.9459	0.8973	0.7766	0.068
Mof_C 	C 	0.93645	0.87298	0.79519	0.008
Mof_H 	H 	0.9486	0.8722	0.8037	0.038
Mof_C 	C 	0.91989	0.85933	0.79822	-0.052
Mof_C 	C 	0.90259	0.86077	0.78496	0.043
Mof_H 	H 	0.8914	0.8511	0.7867	0.01
Mof_C 	C 	0.92061	0.84304	0.81433	0.134
Mof_N 	N 	0.86413	0.76527	0.66093	-0.226
Mof_N 	N 	0.72646	0.86377	0.60431	-0.258
Mof_N 	N 	0.76681	0.85067	0.62273	-0.226
Mof_N 	N 	0.81052	0.84636	0.6703	-0.153
Mof_N 	N 	0.81961	0.81193	0.6599	-0.151
Mof_N 	N 	0.83523	0.82715	0.6897	-0.155
Mof_N 	N 	0.8504	0.87861	0.72466	-0.23
Mof_N 	N 	0.87722	0.9075	0.74874	-0.262
Mof_N 	N 	0.90114	0.87506	0.77001	-0.227
Mof_N 	N 	0.9056	0.82863	0.81397	-0.151
Mof_S 	S 	0.70888	0.83475	0.57689	-0.061
Mof_S 	S 	0.8843	0.94984	0.75491	-0.062
Mof_C 	C 	0.85084	0.28122	0.16105	0.041
Mof_H 	H 	0.844	0.2846	0.1483	0.011
Mof_C 	C 	0.84633	0.29316	0.17845	-0.051
Mof_C 	C 	0.856	0.28806	0.19733	0.009
Mof_H 	H 	0.8534	0.296	0.2096	0.037
Mof_C 	C 	0.86944	0.27116	0.1976	-0.099
Mof_H 	H 	0.8761	0.2671	0.2102	0.066
Mof_C 	C 	0.8731	0.26015	0.17924	0.059
Mof_H 	H 	0.8823	0.2485	0.1796	0
Mof_C 	C 	0.71879	0.35172	0.09302	0.096
Mof_C 	C 	0.76534	0.33518	0.10863	0.056
Mof_H 	H 	0.7553	0.3364	0.0977	-0.001
Mof_C 	C 	0.77795	0.31736	0.10944	-0.098
Mof_H 	H 	0.7769	0.307	0.0989	0.065
Mof_C 	C 	0.79177	0.31499	0.12551	0.009
Mof_H 	H 	0.8002	0.3028	0.1265	0.037
Mof_C 	C 	0.79333	0.33094	0.14057	-0.05
Mof_C 	C 	0.78065	0.34831	0.13826	0.039
Mof_H 	H 	0.7818	0.3592	0.1483	0.014
Mof_C 	C 	0.80847	0.32962	0.15791	0.134
Mof_C 	C 	0.8327	0.31177	0.17619	0.138
Mof_C 	C 	0.82422	0.3443	0.18553	0.14
Mof_C 	C 	0.84565	0.36275	0.21242	0.044
Mof_H 	H 	0.8544	0.3507	0.2128	0.009
Mof_C 	C 	0.82836	0.36271	0.19878	-0.053
Mof_C 	C 	0.81601	0.38072	0.1979	0.008
Mof_H 	H 	0.8043	0.3815	0.1888	0.038
Mof_C 	C 	0.82141	0.39744	0.21063	-0.097
Mof_H 	H 	0.8134	0.41	0.2103	0.065
Mof_C 	C 	0.83842	0.39585	0.22377	0.057
Mof_H 	H 	0.8418	0.4074	0.2325	0.002
Mof_C 	C 	0.88009	0.42504	0.25126	0.104
Mof_C 	C 	0.91707	0.38864	0.2676	0.06
Mof_H 	H 	0.9159	0.3993	0.2573	0
Mof_C 	C 	0.93473	0.38786	0.27925	-0.1
Mof_H 	H 	0.9459	0.3973	0.2766	0.068
Mof_C 	C 	0.93645	0.37298	0.29519	0.008
Mof_H 	H 	0.9486	0.3722	0.3037	0.038
Mof_C 	C 	0.91989	0.35933	0.29822	-0.052
Mof_C 	C 	0.90259	0.36077	0.28496	0.043
Mof_H 	H 	0.8914	0.3511	0.2867	0.01
Mof_C 	C 	0.92061	0.34304	0.31433	0.134
Mof_N 	N 	0.86413	0.26527	0.16093	-0.226
Mof_N 	N 	0.72646	0.36377	0.10431	-0.258
Mof_N 	N 	0.76681	0.35067	0.12273	-0.226
Mof_N 	N 	0.81052	0.34636	0.1703	-0.153
Mof_N 	N 	0.81961	0.31193	0.1599	-0.151
Mof_N 	N 	0.83523	0.32715	0.1897	-0.155
Mof_N 	N 	0.8504	0.37861	0.22466	-0.23
Mof_N 	N 	0.87722	0.4075	0.24874	-0.262
Mof_N 	N 	0.90114	0.37506	0.27001	-0.227
Mof_N 	N 	0.9056	0.32863	0.31397	-0.151
Mof_S 	S 	0.70888	0.33475	0.07689	-0.061
Mof_S 	S 	0.8843	0.44984	0.25491	-0.062
Mof_C 	C 	0.89916	0.96878	0.66105	0.041
Mof_H 	H 	0.906	0.9654	0.6483	0.011
Mof_C 	C 	0.90367	0.95684	0.67845	-0.051
Mof_C 	C 	0.894	0.96194	0.69733	0.009
Mof_H 	H 	0.8966	0.954	0.7096	0.037
Mof_C 	C 	0.88056	0.97884	0.6976	-0.099
Mof_H 	H 	0.8739	0.9829	0.7102	0.066
Mof_C 	C 	0.8769	0.98985	0.67924	0.059
Mof_H 	H 	0.8677	0.0015	0.6796	0
Mof_C 	C 	0.03121	0.89828	0.59302	0.096
Mof_C 	C 	0.98466	0.91482	0.60863	0.056
Mof_H 	H 	0.9947	0.9136	0.5977	-0.001
Mof_C 	C 	0.97205	0.93264	0.60944	-0.098
Mof_H 	H 	0.9731	0.943	0.5989	0.065
Mof_C 	C 	0.95823	0.93501	0.62551	0.009
Mof_H 	H 	0.9498	0.9472	0.6265	0.037
Mof_C 	C 	0.95667	0.91906	0.64057	-0.05
Mof_C 	C 	0.96935	0.90169	0.63826	0.039
Mof_H 	H 	0.9682	0.8908	0.6483	0.014
Mof_C 	C 	0.94153	0.92038	0.65791	0.134
Mof_C 	C 	0.9173	0.93823	0.67619	0.138
Mof_C 	C 	0.92578	0.9057	0.68553	0.14
Mof_C 	C 	0.90435	0.88725	0.71242	0.044
Mof_H 	H 	0.8956	0.8993	0.7128	0.009
Mof_C 	C 	0.92164	0.88729	0.69878	-0.053
Mof_C 	C 	0.93399	0.86928	0.6979	0.008
Mof_H 	H 	0.9457	0.8685	0.6888	0.038
Mof_C 	C 	0.92859	0.85256	0.71063	-0.097
Mof_H 	H 	0.9366	0.84	0.7103	0.065
Mof_C 	C 	0.91158	0.85415	0.72377	0.057
Mof_H 	H 	0.9082	0.8426	0.7325	0.002
Mof_C 	C 	0.86991	0.82496	0.75126	0.104
Mof_C 	C 	0.83293	0.86136	0.7676	0.06
Mof_H 	H 	0.8341	0.8507	0.7573	0
Mof_C 	C 	0.81527	0.86214	0.77925	-0.1
Mof_H 	H 	0.8041	0.8527	0.7766	0.068
Mof_C 	C 	0.81355	0.87702	0.79519	0.008
Mof_H 	H 	0.8014	0.8778	0.8037	0.038
Mof_C 	C 	0.83011	0.89067	0.79822	-0.052
Mof_C 	C 	0.84741	0.88923	0.78496	0.043
Mof_H 	H 	0.8586	0.8989	0.7867	0.01
Mof_C 	C 	0.82939	0.90696	0.81433	0.134
Mof_N 	N 	0.88587	0.98473	0.66093	-0.226
Mof_N 	N 	0.02354	0.88623	0.60431	-0.258
Mof_N 	N 	0.98319	0.89933	0.62273	-0.226
Mof_N 	N 	0.93948	0.90364	0.6703	-0.153
Mof_N 	N 	0.93039	0.93807	0.6599	-0.151
Mof_N 	N 	0.91477	0.92285	0.6897	-0.155
Mof_N 	N 	0.8996	0.87139	0.72466	-0.23
Mof_N 	N 	0.87278	0.8425	0.74874	-0.262
Mof_N 	N 	0.84886	0.87494	0.77001	-0.227
Mof_N 	N 	0.8444	0.92137	0.81397	-0.151
Mof_S 	S 	0.04112	0.91525	0.57689	-0.061
Mof_S 	S 	0.8657	0.80016	0.75491	-0.062
Mof_C 	C 	0.89916	0.46878	0.16105	0.041
Mof_H 	H 	0.906	0.4654	0.1483	0.011
Mof_C 	C 	0.90367	0.45684	0.17845	-0.051
Mof_C 	C 	0.894	0.46194	0.19733	0.009
Mof_H 	H 	0.8966	0.454	0.2096	0.037
Mof_C 	C 	0.88056	0.47884	0.1976	-0.099
Mof_H 	H 	0.8739	0.4829	0.2102	0.066
Mof_C 	C 	0.8769	0.48985	0.17924	0.059
Mof_H 	H 	0.8677	0.5015	0.1796	0
Mof_C 	C 	0.03121	0.39828	0.09302	0.096
Mof_C 	C 	0.98466	0.41482	0.10863	0.056
Mof_H 	H 	0.9947	0.4136	0.0977	-0.001
Mof_C 	C 	0.97205	0.43264	0.10944	-0.098
Mof_H 	H 	0.9731	0.443	0.0989	0.065
Mof_C 	C 	0.95823	0.43501	0.12551	0.009
Mof_H 	H 	0.9498	0.4472	0.1265	0.037
Mof_C 	C 	0.95667	0.41906	0.14057	-0.05
Mof_C 	C 	0.96935	0.40169	0.13826	0.039
Mof_H 	H 	0.9682	0.3908	0.1483	0.014
Mof_C 	C 	0.94153	0.42038	0.15791	0.134
Mof_C 	C 	0.9173	0.43823	0.17619	0.138
Mof_C 	C 	0.92578	0.4057	0.18553	0.14
Mof_C 	C 	0.90435	0.38725	0.21242	0.044
Mof_H 	H 	0.8956	0.3993	0.2128	0.009
Mof_C 	C 	0.92164	0.38729	0.19878	-0.053
Mof_C 	C 	0.93399	0.36928	0.1979	0.008
Mof_H 	H 	0.9457	0.3685	0.1888	0.038
Mof_C 	C 	0.92859	0.35256	0.21063	-0.097
Mof_H 	H 	0.9366	0.34	0.2103	0.065
Mof_C 	C 	0.91158	0.35415	0.22377	0.057
Mof_H 	H 	0.9082	0.3426	0.2325	0.002
Mof_C 	C 	0.86991	0.32496	0.25126	0.104
Mof_C 	C 	0.83293	0.36136	0.2676	0.06
Mof_H 	H 	0.8341	0.3507	0.2573	0
Mof_C 	C 	0.81527	0.36214	0.27925	-0.1
Mof_H 	H 	0.8041	0.3527	0.2766	0.068
Mof_C 	C 	0.81355	0.37702	0.29519	0.008
Mof_H 	H 	0.8014	0.3778	0.3037	0.038
Mof_C 	C 	0.83011	0.39067	0.29822	-0.052
Mof_C 	C 	0.84741	0.38923	0.28496	0.043
Mof_H 	H 	0.8586	0.3989	0.2867	0.01
Mof_C 	C 	0.82939	0.40696	0.31433	0.134
Mof_N 	N 	0.88587	0.48473	0.16093	-0.226
Mof_N 	N 	0.02354	0.38623	0.10431	-0.258
Mof_N 	N 	0.98319	0.39933	0.12273	-0.226
Mof_N 	N 	0.93948	0.40364	0.1703	-0.153
Mof_N 	N 	0.93039	0.43807	0.1599	-0.151
Mof_N 	N 	0.91477	0.42285	0.1897	-0.155
Mof_N 	N 	0.8996	0.37139	0.22466	-0.23
Mof_N 	N 	0.87278	0.3425	0.24874	-0.262
Mof_N 	N 	0.84886	0.37494	0.27001	-0.227
Mof_N 	N 	0.8444	0.42137	0.31397	-0.151
Mof_S 	S 	0.04112	0.41525	0.07689	-0.061
Mof_S 	S 	0.8657	0.30016	0.25491	-0.062
Mof_C 	C 	0.39916	0.96878	0.16105	0.041
Mof_H 	H 	0.406	0.9654	0.1483	0.011
Mof_C 	C 	0.40367	0.95684	0.17845	-0.051
Mof_C 	C 	0.394	0.96194	0.19733	0.009
Mof_H 	H 	0.3966	0.954	0.2096	0.037
Mof_C 	C 	0.38056	0.97884	0.1976	-0.099
Mof_H 	H 	0.3739	0.9829	0.2102	0.066
Mof_C 	C 	0.3769	0.98985	0.17924	0.059
Mof_H 	H 	0.3677	0.0015	0.1796	0
Mof_C 	C 	0.53121	0.89828	0.09302	0.096
Mof_C 	C 	0.48466	0.91482	0.10863	0.056
Mof_H 	H 	0.4947	0.9136	0.0977	-0.001
Mof_C 	C 	0.47205	0.93264	0.10944	-0.098
Mof_H 	H 	0.4731	0.943	0.0989	0.065
Mof_C 	C 	0.45823	0.93501	0.12551	0.009
Mof_H 	H 	0.4498	0.9472	0.1265	0.037
Mof_C 	C 	0.45667	0.91906	0.14057	-0.05
Mof_C 	C 	0.46935	0.90169	0.13826	0.039
Mof_H 	H 	0.4682	0.8908	0.1483	0.014
Mof_C 	C 	0.44153	0.92038	0.15791	0.134
Mof_C 	C 	0.4173	0.93823	0.17619	0.138
Mof_C 	C 	0.42578	0.9057	0.18553	0.14
Mof_C 	C 	0.40435	0.88725	0.21242	0.044
Mof_H 	H 	0.3956	0.8993	0.2128	0.009
Mof_C 	C 	0.42164	0.88729	0.19878	-0.053
Mof_C 	C 	0.43399	0.86928	0.1979	0.008
Mof_H 	H 	0.4457	0.8685	0.1888	0.038
Mof_C 	C 	0.42859	0.85256	0.21063	-0.097
Mof_H 	H 	0.4366	0.84	0.2103	0.065
Mof_C 	C 	0.41158	0.85415	0.22377	0.057
Mof_H 	H 	0.4082	0.8426	0.2325	0.002
Mof_C 	C 	0.36991	0.82496	0.25126	0.104
Mof_C 	C 	0.33293	0.86136	0.2676	0.06
Mof_H 	H 	0.3341	0.8507	0.2573	0
Mof_C 	C 	0.31527	0.86214	0.27925	-0.1
Mof_H 	H 	0.3041	0.8527	0.2766	0.068
Mof_C 	C 	0.31355	0.87702	0.29519	0.008
Mof_H 	H 	0.3014	0.8778	0.3037	0.038
Mof_C 	C 	0.33011	0.89067	0.29822	-0.052
Mof_C 	C 	0.34741	0.88923	0.28496	0.043
Mof_H 	H 	0.3586	0.8989	0.2867	0.01
Mof_C 	C 	0.32939	0.90696	0.31433	0.134
Mof_N 	N 	0.38587	0.98473	0.16093	-0.226
Mof_N 	N 	0.52354	0.88623	0.10431	-0.258
Mof_N 	N 	0.48319	0.89933	0.12273	-0.226
Mof_N 	N 	0.43948	0.90364	0.1703	-0.153
Mof_N 	N 	0.43039	0.93807	0.1599	-0.151
Mof_N 	N 	0.41477	0.92285	0.1897	-0.155
Mof_N 	N 	0.3996	0.87139	0.22466	-0.23
Mof_N 	N 	0.37278	0.8425	0.24874	-0.262
Mof_N 	N 	0.34886	0.87494	0.27001	-0.227
Mof_N 	N 	0.3444	0.92137	0.31397	-0.151
Mof_S 	S 	0.54112	0.91525	0.07689	-0.061
Mof_S 	S 	0.3657	0.80016	0.25491	-0.062
Mof_C 	C 	0.39916	0.46878	0.66105	0.041
Mof_H 	H 	0.406	0.4654	0.6483	0.011
Mof_C 	C 	0.40367	0.45684	0.67845	-0.051
Mof_C 	C 	0.394	0.46194	0.69733	0.009
Mof_H 	H 	0.3966	0.454	0.7096	0.037
Mof_C 	C 	0.38056	0.47884	0.6976	-0.099
Mof_H 	H 	0.3739	0.4829	0.7102	0.066
Mof_C 	C 	0.3769	0.48985	0.67924	0.059
Mof_H 	H 	0.3677	0.5015	0.6796	0
Mof_C 	C 	0.53121	0.39828	0.59302	0.096
Mof_C 	C 	0.48466	0.41482	0.60863	0.056
Mof_H 	H 	0.4947	0.4136	0.5977	-0.001
Mof_C 	C 	0.47205	0.43264	0.60944	-0.098
Mof_H 	H 	0.4731	0.443	0.5989	0.065
Mof_C 	C 	0.45823	0.43501	0.62551	0.009
Mof_H 	H 	0.4498	0.4472	0.6265	0.037
Mof_C 	C 	0.45667	0.41906	0.64057	-0.05
Mof_C 	C 	0.46935	0.40169	0.63826	0.039
Mof_H 	H 	0.4682	0.3908	0.6483	0.014
Mof_C 	C 	0.44153	0.42038	0.65791	0.134
Mof_C 	C 	0.4173	0.43823	0.67619	0.138
Mof_C 	C 	0.42578	0.4057	0.68553	0.14
Mof_C 	C 	0.40435	0.38725	0.71242	0.044
Mof_H 	H 	0.3956	0.3993	0.7128	0.009
Mof_C 	C 	0.42164	0.38729	0.69878	-0.053
Mof_C 	C 	0.43399	0.36928	0.6979	0.008
Mof_H 	H 	0.4457	0.3685	0.6888	0.038
Mof_C 	C 	0.42859	0.35256	0.71063	-0.097
Mof_H 	H 	0.4366	0.34	0.7103	0.065
Mof_C 	C 	0.41158	0.35415	0.72377	0.057
Mof_H 	H 	0.4082	0.3426	0.7325	0.002
Mof_C 	C 	0.36991	0.32496	0.75126	0.104
Mof_C 	C 	0.33293	0.36136	0.7676	0.06
Mof_H 	H 	0.3341	0.3507	0.7573	0
Mof_C 	C 	0.31527	0.36214	0.77925	-0.1
Mof_H 	H 	0.3041	0.3527	0.7766	0.068
Mof_C 	C 	0.31355	0.37702	0.79519	0.008
Mof_H 	H 	0.3014	0.3778	0.8037	0.038
Mof_C 	C 	0.33011	0.39067	0.79822	-0.052
Mof_C 	C 	0.34741	0.38923	0.78496	0.043
Mof_H 	H 	0.3586	0.3989	0.7867	0.01
Mof_C 	C 	0.32939	0.40696	0.81433	0.134
Mof_N 	N 	0.38587	0.48473	0.66093	-0.226
Mof_N 	N 	0.52354	0.38623	0.60431	-0.258
Mof_N 	N 	0.48319	0.39933	0.62273	-0.226
Mof_N 	N 	0.43948	0.40364	0.6703	-0.153
Mof_N 	N 	0.43039	0.43807	0.6599	-0.151
Mof_N 	N 	0.41477	0.42285	0.6897	-0.155
Mof_N 	N 	0.3996	0.37139	0.72466	-0.23
Mof_N 	N 	0.37278	0.3425	0.74874	-0.262
Mof_N 	N 	0.34886	0.37494	0.77001	-0.227
Mof_N 	N 	0.3444	0.42137	0.81397	-0.151
Mof_S 	S 	0.54112	0.41525	0.57689	-0.061
Mof_S 	S 	0.3657	0.30016	0.75491	-0.062
Mof_C 	C 	0.39916	0.28122	0.08895	0.041
Mof_H 	H 	0.406	0.2846	0.1017	0.011
Mof_C 	C 	0.40367	0.29316	0.07155	-0.051
Mof_C 	C 	0.394	0.28806	0.05267	0.009
Mof_H 	H 	0.3966	0.296	0.0404	0.037
Mof_C 	C 	0.38056	0.27116	0.0524	-0.099
Mof_H 	H 	0.3739	0.2671	0.0398	0.066
Mof_C 	C 	0.3769	0.26015	0.07076	0.059
Mof_H 	H 	0.3677	0.2485	0.0704	0
Mof_C 	C 	0.53121	0.35172	0.15698	0.096
Mof_C 	C 	0.48466	0.33518	0.14137	0.056
Mof_H 	H 	0.4947	0.3364	0.1523	-0.001
Mof_C 	C 	0.47205	0.31736	0.14056	-0.098
Mof_H 	H 	0.4731	0.307	0.1511	0.065
Mof_C 	C 	0.45823	0.31499	0.12449	0.009
Mof_H 	H 	0.4498	0.3028	0.1235	0.037
Mof_C 	C 	0.45667	0.33094	0.10943	-0.05
Mof_C 	C 	0.46935	0.34831	0.11174	0.039
Mof_H 	H 	0.4682	0.3592	0.1017	0.014
Mof_C 	C 	0.44153	0.32962	0.09209	0.134
Mof_C 	C 	0.4173	0.31177	0.07381	0.138
Mof_C 	C 	0.42578	0.3443	0.06447	0.14
Mof_C 	C 	0.40435	0.36275	0.03758	0.044
Mof_H 	H 	0.3956	0.3507	0.0372	0.009
Mof_C 	C 	0.42164	0.36271	0.05122	-0.053
Mof_C 	C 	0.43399	0.38072	0.0521	0.008
Mof_H 	H 	0.4457	0.3815	0.0612	0.038
Mof_C 	C 	0.42859	0.39744	0.03937	-0.097
Mof_H 	H 	0.4366	0.41	0.0397	0.065
Mof_C 	C 	0.41158	0.39585	0.02623	0.057
Mof_H 	H 	0.4082	0.4074	0.0175	0.002
Mof_C 	C 	0.36991	0.42504	0.99874	0.104
Mof_C 	C 	0.33293	0.38864	0.9824	0.06
Mof_H 	H 	0.3341	0.3993	0.9927	0
Mof_C 	C 	0.31527	0.38786	0.97075	-0.1
Mof_H 	H 	0.3041	0.3973	0.9734	0.068
Mof_C 	C 	0.31355	0.37298	0.95481	0.008
Mof_H 	H 	0.3014	0.3722	0.9463	0.038
Mof_C 	C 	0.33011	0.35933	0.95178	-0.052
Mof_C 	C 	0.34741	0.36077	0.96504	0.043
Mof_H 	H 	0.3586	0.3511	0.9633	0.01
Mof_C 	C 	0.32939	0.34304	0.93567	0.134
Mof_N 	N 	0.38587	0.26527	0.08907	-0.226
Mof_N 	N 	0.52354	0.36377	0.14569	-0.258
Mof_N 	N 	0.48319	0.35067	0.12727	-0.226
Mof_N 	N 	0.43948	0.34636	0.0797	-0.153
Mof_N 	N 	0.43039	0.31193	0.0901	-0.151
Mof_N 	N 	0.41477	0.32715	0.0603	-0.155
Mof_N 	N 	0.3996	0.37861	0.02534	-0.23
Mof_N 	N 	0.37278	0.4075	0.00126	-0.262
Mof_N 	N 	0.34886	0.37506	0.97999	-0.227
Mof_N 	N 	0.3444	0.32863	0.93603	-0.151
Mof_S 	S 	0.54112	0.33475	0.17311	-0.061
Mof_S 	S 	0.3657	0.44984	0.99509	-0.062
Mof_C 	C 	0.39916	0.78122	0.58895	0.041
Mof_H 	H 	0.406	0.7846	0.6017	0.011
Mof_C 	C 	0.40367	0.79316	0.57155	-0.051
Mof_C 	C 	0.394	0.78806	0.55267	0.009
Mof_H 	H 	0.3966	0.796	0.5404	0.037
Mof_C 	C 	0.38056	0.77116	0.5524	-0.099
Mof_H 	H 	0.3739	0.7671	0.5398	0.066
Mof_C 	C 	0.3769	0.76015	0.57076	0.059
Mof_H 	H 	0.3677	0.7485	0.5704	0
Mof_C 	C 	0.53121	0.85172	0.65698	0.096
Mof_C 	C 	0.48466	0.83518	0.64137	0.056
Mof_H 	H 	0.4947	0.8364	0.6523	-0.001
Mof_C 	C 	0.47205	0.81736	0.64056	-0.098
Mof_H 	H 	0.4731	0.807	0.6511	0.065
Mof_C 	C 	0.45823	0.81499	0.62449	0.009
Mof_H 	H 	0.4498	0.8028	0.6235	0.037
Mof_C 	C 	0.45667	0.83094	0.60943	-0.05
Mof_C 	C 	0.46935	0.84831	0.61174	0.039
Mof_H 	H 	0.4682	0.8592	0.6017	0.014
Mof_C 	C 	0.44153	0.82962	0.59209	0.134
Mof_C 	C 	0.4173	0.81177	0.57381	0.138
Mof_C 	C 	0.42578	0.8443	0.56447	0.14
Mof_C 	C 	0.40435	0.86275	0.53758	0.044
Mof_H 	H 	0.3956	0.8507	0.5372	0.009
Mof_C 	C 	0.42164	0.86271	0.55122	-0.053
Mof_C 	C 	0.43399	0.88072	0.5521	0.008
Mof_H 	H 	0.4457	0.8815	0.5612	0.038
Mof_C 	C 	0.42859	0.89744	0.53937	-0.097
Mof_H 	H 	0.4366	0.91	0.5397	0.065
Mof_C 	C 	0.41158	0.89585	0.52623	0.057
Mof_H 	H 	0.4082	0.9074	0.5175	0.002
Mof_C 	C 	0.36991	0.92504	0.49874	0.104
Mof_C 	C 	0.33293	0.88864	0.4824	0.06
Mof_H 	H 	0.3341	0.8993	0.4927	0
Mof_C 	C 	0.31527	0.88786	0.47075	-0.1
Mof_H 	H 	0.3041	0.8973	0.4734	0.068
Mof_C 	C 	0.31355	0.87298	0.45481	0.008
Mof_H 	H 	0.3014	0.8722	0.4463	0.038
Mof_C 	C 	0.33011	0.85933	0.45178	-0.052
Mof_C 	C 	0.34741	0.86077	0.46504	0.043
Mof_H 	H 	0.3586	0.8511	0.4633	0.01
Mof_C 	C 	0.32939	0.84304	0.43567	0.134
Mof_N 	N 	0.38587	0.76527	0.58907	-0.226
Mof_N 	N 	0.52354	0.86377	0.64569	-0.258
Mof_N 	N 	0.48319	0.85067	0.62727	-0.226
Mof_N 	N 	0.43948	0.84636	0.5797	-0.153
Mof_N 	N 	0.43039	0.81193	0.5901	-0.151
Mof_N 	N 	0.41477	0.82715	0.5603	-0.155
Mof_N 	N 	0.3996	0.87861	0.52534	-0.23
Mof_N 	N 	0.37278	0.9075	0.50126	-0.262
Mof_N 	N 	0.34886	0.87506	0.47999	-0.227
Mof_N 	N 	0.3444	0.82863	0.43603	-0.151
Mof_S 	S 	0.54112	0.83475	0.67311	-0.061
Mof_S 	S 	0.3657	0.94984	0.49509	-0.062
Mof_C 	C 	0.89916	0.28122	0.58895	0.041
Mof_H 	H 	0.906	0.2846	0.6017	0.011
Mof_C 	C 	0.90367	0.29316	0.57155	-0.051
Mof_C 	C 	0.894	0.28806	0.55267	0.009
Mof_H 	H 	0.8966	0.296	0.5404	0.037
Mof_C 	C 	0.88056	0.27116	0.5524	-0.099
Mof_H 	H 	0.8739	0.2671	0.5398	0.066
Mof_C 	C 	0.8769	0.26015	0.57076	0.059
Mof_H 	H 	0.8677	0.2485	0.5704	0
Mof_C 	C 	0.03121	0.35172	0.65698	0.096
Mof_C 	C 	0.98466	0.33518	0.64137	0.056
Mof_H 	H 	0.9947	0.3364	0.6523	-0.001
Mof_C 	C 	0.97205	0.31736	0.64056	-0.098
Mof_H 	H 	0.9731	0.307	0.6511	0.065
Mof_C 	C 	0.95823	0.31499	0.62449	0.009
Mof_H 	H 	0.9498	0.3028	0.6235	0.037
Mof_C 	C 	0.95667	0.33094	0.60943	-0.05
Mof_C 	C 	0.96935	0.34831	0.61174	0.039
Mof_H 	H 	0.9682	0.3592	0.6017	0.014
Mof_C 	C 	0.94153	0.32962	0.59209	0.134
Mof_C 	C 	0.9173	0.31177	0.57381	0.138
Mof_C 	C 	0.92578	0.3443	0.56447	0.14
Mof_C 	C 	0.90435	0.36275	0.53758	0.044
Mof_H 	H 	0.8956	0.3507	0.5372	0.009
Mof_C 	C 	0.92164	0.36271	0.55122	-0.053
Mof_C 	C 	0.93399	0.38072	0.5521	0.008
Mof_H 	H 	0.9457	0.3815	0.5612	0.038
Mof_C 	C 	0.92859	0.39744	0.53937	-0.097
Mof_H 	H 	0.9366	0.41	0.5397	0.065
Mof_C 	C 	0.91158	0.39585	0.52623	0.057
Mof_H 	H 	0.9082	0.4074	0.5175	0.002
Mof_C 	C 	0.86991	0.42504	0.49874	0.104
Mof_C 	C 	0.83293	0.38864	0.4824	0.06
Mof_H 	H 	0.8341	0.3993	0.4927	0
Mof_C 	C 	0.81527	0.38786	0.47075	-0.1
Mof_H 	H 	0.8041	0.3973	0.4734	0.068
Mof_C 	C 	0.81355	0.37298	0.45481	0.008
Mof_H 	H 	0.8014	0.3722	0.4463	0.038
Mof_C 	C 	0.83011	0.35933	0.45178	-0.052
Mof_C 	C 	0.84741	0.36077	0.46504	0.043
Mof_H 	H 	0.8586	0.3511	0.4633	0.01
Mof_C 	C 	0.82939	0.34304	0.43567	0.134
Mof_N 	N 	0.88587	0.26527	0.58907	-0.226
Mof_N 	N 	0.02354	0.36377	0.64569	-0.258
Mof_N 	N 	0.98319	0.35067	0.62727	-0.226
Mof_N 	N 	0.93948	0.34636	0.5797	-0.153
Mof_N 	N 	0.93039	0.31193	0.5901	-0.151
Mof_N 	N 	0.91477	0.32715	0.5603	-0.155
Mof_N 	N 	0.8996	0.37861	0.52534	-0.23
Mof_N 	N 	0.87278	0.4075	0.50126	-0.262
Mof_N 	N 	0.84886	0.37506	0.47999	-0.227
Mof_N 	N 	0.8444	0.32863	0.43603	-0.151
Mof_S 	S 	0.04112	0.33475	0.67311	-0.061
Mof_S 	S 	0.8657	0.44984	0.49509	-0.062
Mof_C 	C 	0.89916	0.78122	0.08895	0.041
Mof_H 	H 	0.906	0.7846	0.1017	0.011
Mof_C 	C 	0.90367	0.79316	0.07155	-0.051
Mof_C 	C 	0.894	0.78806	0.05267	0.009
Mof_H 	H 	0.8966	0.796	0.0404	0.037
Mof_C 	C 	0.88056	0.77116	0.0524	-0.099
Mof_H 	H 	0.8739	0.7671	0.0398	0.066
Mof_C 	C 	0.8769	0.76015	0.07076	0.059
Mof_H 	H 	0.8677	0.7485	0.0704	0
Mof_C 	C 	0.03121	0.85172	0.15698	0.096
Mof_C 	C 	0.98466	0.83518	0.14137	0.056
Mof_H 	H 	0.9947	0.8364	0.1523	-0.001
Mof_C 	C 	0.97205	0.81736	0.14056	-0.098
Mof_H 	H 	0.9731	0.807	0.1511	0.065
Mof_C 	C 	0.95823	0.81499	0.12449	0.009
Mof_H 	H 	0.9498	0.8028	0.1235	0.037
Mof_C 	C 	0.95667	0.83094	0.10943	-0.05
Mof_C 	C 	0.96935	0.84831	0.11174	0.039
Mof_H 	H 	0.9682	0.8592	0.1017	0.014
Mof_C 	C 	0.94153	0.82962	0.09209	0.134
Mof_C 	C 	0.9173	0.81177	0.07381	0.138
Mof_C 	C 	0.92578	0.8443	0.06447	0.14
Mof_C 	C 	0.90435	0.86275	0.03758	0.044
Mof_H 	H 	0.8956	0.8507	0.0372	0.009
Mof_C 	C 	0.92164	0.86271	0.05122	-0.053
Mof_C 	C 	0.93399	0.88072	0.0521	0.008
Mof_H 	H 	0.9457	0.8815	0.0612	0.038
Mof_C 	C 	0.92859	0.89744	0.03937	-0.097
Mof_H 	H 	0.9366	0.91	0.0397	0.065
Mof_C 	C 	0.91158	0.89585	0.02623	0.057
Mof_H 	H 	0.9082	0.9074	0.0175	0.002
Mof_C 	C 	0.86991	0.92504	0.99874	0.104
Mof_C 	C 	0.83293	0.88864	0.9824	0.06
Mof_H 	H 	0.8341	0.8993	0.9927	0
Mof_C 	C 	0.81527	0.88786	0.97075	-0.1
Mof_H 	H 	0.8041	0.8973	0.9734	0.068
Mof_C 	C 	0.81355	0.87298	0.95481	0.008
Mof_H 	H 	0.8014	0.8722	0.9463	0.038
Mof_C 	C 	0.83011	0.85933	0.95178	-0.052
Mof_C 	C 	0.84741	0.86077	0.96504	0.043
Mof_H 	H 	0.8586	0.8511	0.9633	0.01
Mof_C 	C 	0.82939	0.84304	0.93567	0.134
Mof_N 	N 	0.88587	0.76527	0.08907	-0.226
Mof_N 	N 	0.02354	0.86377	0.14569	-0.258
Mof_N 	N 	0.98319	0.85067	0.12727	-0.226
Mof_N 	N 	0.93948	0.84636	0.0797	-0.153
Mof_N 	N 	0.93039	0.81193	0.0901	-0.151
Mof_N 	N 	0.91477	0.82715	0.0603	-0.155
Mof_N 	N 	0.8996	0.87861	0.02534	-0.23
Mof_N 	N 	0.87278	0.9075	0.00126	-0.262
Mof_N 	N 	0.84886	0.87506	0.97999	-0.227
Mof_N 	N 	0.8444	0.82863	0.93603	-0.151
Mof_S 	S 	0.04112	0.83475	0.17311	-0.061
Mof_S 	S 	0.8657	0.94984	0.99509	-0.062
Mof_C 	C 	0.58895	0.78122	0.89916	0.041
Mof_H 	H 	0.6017	0.7846	0.906	0.011
Mof_C 	C 	0.57155	0.79316	0.90367	-0.051
Mof_C 	C 	0.55267	0.78806	0.894	0.009
Mof_H 	H 	0.5404	0.796	0.8966	0.037
Mof_C 	C 	0.5524	0.77116	0.88056	-0.099
Mof_H 	H 	0.5398	0.7671	0.8739	0.066
Mof_C 	C 	0.57076	0.76015	0.8769	0.059
Mof_H 	H 	0.5704	0.7485	0.8677	0
Mof_C 	C 	0.65698	0.85172	0.03121	0.096
Mof_C 	C 	0.64137	0.83518	0.98466	0.056
Mof_H 	H 	0.6523	0.8364	0.9947	-0.001
Mof_C 	C 	0.64056	0.81736	0.97205	-0.098
Mof_H 	H 	0.6511	0.807	0.9731	0.065
Mof_C 	C 	0.62449	0.81499	0.95823	0.009
Mof_H 	H 	0.6235	0.8028	0.9498	0.037
Mof_C 	C 	0.60943	0.83094	0.95667	-0.05
Mof_C 	C 	0.61174	0.84831	0.96935	0.039
Mof_H 	H 	0.6017	0.8592	0.9682	0.014
Mof_C 	C 	0.59209	0.82962	0.94153	0.134
Mof_C 	C 	0.57381	0.81177	0.9173	0.138
Mof_C 	C 	0.56447	0.8443	0.92578	0.14
Mof_C 	C 	0.53758	0.86275	0.90435	0.044
Mof_H 	H 	0.5372	0.8507	0.8956	0.009
Mof_C 	C 	0.55122	0.86271	0.92164	-0.053
Mof_C 	C 	0.5521	0.88072	0.93399	0.008
Mof_H 	H 	0.5612	0.8815	0.9457	0.038
Mof_C 	C 	0.53937	0.89744	0.92859	-0.097
Mof_H 	H 	0.5397	0.91	0.9366	0.065
Mof_C 	C 	0.52623	0.89585	0.91158	0.057
Mof_H 	H 	0.5175	0.9074	0.9082	0.002
Mof_C 	C 	0.49874	0.92504	0.86991	0.104
Mof_C 	C 	0.4824	0.88864	0.83293	0.06
Mof_H 	H 	0.4927	0.8993	0.8341	0
Mof_C 	C 	0.47075	0.88786	0.81527	-0.1
Mof_H 	H 	0.4734	0.8973	0.8041	0.068
Mof_C 	C 	0.45481	0.87298	0.81355	0.008
Mof_H 	H 	0.4463	0.8722	0.8014	0.038
Mof_C 	C 	0.45178	0.85933	0.83011	-0.052
Mof_C 	C 	0.46504	0.86077	0.84741	0.043
Mof_H 	H 	0.4633	0.8511	0.8586	0.01
Mof_C 	C 	0.43567	0.84304	0.82939	0.134
Mof_N 	N 	0.58907	0.76527	0.88587	-0.226
Mof_N 	N 	0.64569	0.86377	0.02354	-0.258
Mof_N 	N 	0.62727	0.85067	0.98319	-0.226
Mof_N 	N 	0.5797	0.84636	0.93948	-0.153
Mof_N 	N 	0.5901	0.81193	0.93039	-0.151
Mof_N 	N 	0.5603	0.82715	0.91477	-0.155
Mof_N 	N 	0.52534	0.87861	0.8996	-0.23
Mof_N 	N 	0.50126	0.9075	0.87278	-0.262
Mof_N 	N 	0.47999	0.87506	0.84886	-0.227
Mof_N 	N 	0.43603	0.82863	0.8444	-0.151
Mof_S 	S 	0.67311	0.83475	0.04112	-0.061
Mof_S 	S 	0.49509	0.94984	0.8657	-0.062
Mof_C 	C 	0.58895	0.28122	0.39916	0.041
Mof_H 	H 	0.6017	0.2846	0.406	0.011
Mof_C 	C 	0.57155	0.29316	0.40367	-0.051
Mof_C 	C 	0.55267	0.28806	0.394	0.009
Mof_H 	H 	0.5404	0.296	0.3966	0.037
Mof_C 	C 	0.5524	0.27116	0.38056	-0.099
Mof_H 	H 	0.5398	0.2671	0.3739	0.066
Mof_C 	C 	0.57076	0.26015	0.3769	0.059
Mof_H 	H 	0.5704	0.2485	0.3677	0
Mof_C 	C 	0.65698	0.35172	0.53121	0.096
Mof_C 	C 	0.64137	0.33518	0.48466	0.056
Mof_H 	H 	0.6523	0.3364	0.4947	-0.001
Mof_C 	C 	0.64056	0.31736	0.47205	-0.098
Mof_H 	H 	0.6511	0.307	0.4731	0.065
Mof_C 	C 	0.62449	0.31499	0.45823	0.009
Mof_H 	H 	0.6235	0.3028	0.4498	0.037
Mof_C 	C 	0.60943	0.33094	0.45667	-0.05
Mof_C 	C 	0.61174	0.34831	0.46935	0.039
Mof_H 	H 	0.6017	0.3592	0.4682	0.014
Mof_C 	C 	0.59209	0.32962	0.44153	0.134
Mof_C 	C 	0.57381	0.31177	0.4173	0.138
Mof_C 	C 	0.56447	0.3443	0.42578	0.14
Mof_C 	C 	0.53758	0.36275	0.40435	0.044
Mof_H 	H 	0.5372	0.3507	0.3956	0.009
Mof_C 	C 	0.55122	0.36271	0.42164	-0.053
Mof_C 	C 	0.5521	0.38072	0.43399	0.008
Mof_H 	H 	0.5612	0.3815	0.4457	0.038
Mof_C 	C 	0.53937	0.39744	0.42859	-0.097
Mof_H 	H 	0.5397	0.41	0.4366	0.065
Mof_C 	C 	0.52623	0.39585	0.41158	0.057
Mof_H 	H 	0.5175	0.4074	0.4082	0.002
Mof_C 	C 	0.49874	0.42504	0.36991	0.104
Mof_C 	C 	0.4824	0.38864	0.33293	0.06
Mof_H 	H 	0.4927	0.3993	0.3341	0
Mof_C 	C 	0.47075	0.38786	0.31527	-0.1
Mof_H 	H 	0.4734	0.3973	0.3041	0.068
Mof_C 	C 	0.45481	0.37298	0.31355	0.008
Mof_H 	H 	0.4463	0.3722	0.3014	0.038
Mof_C 	C 	0.45178	0.35933	0.33011	-0.052
Mof_C 	C 	0.46504	0.36077	0.34741	0.043
Mof_H 	H 	0.4633	0.3511	0.3586	0.01
Mof_C 	C 	0.43567	0.34304	0.32939	0.134
Mof_N 	N 	0.58907	0.26527	0.38587	-0.226
Mof_N 	N 	0.64569	0.36377	0.52354	-0.258
Mof_N 	N 	0.62727	0.35067	0.48319	-0.226
Mof_N 	N 	0.5797	0.34636	0.43948	-0.153
Mof_N 	N 	0.5901	0.31193	0.43039	-0.151
Mof_N 	N 	0.5603	0.32715	0.41477	-0.155
Mof_N 	N 	0.52534	0.37861	0.3996	-0.23
Mof_N 	N 	0.50126	0.4075	0.37278	-0.262
Mof_N 	N 	0.47999	0.37506	0.34886	-0.227
Mof_N 	N 	0.43603	0.32863	0.3444	-0.151
Mof_S 	S 	0.67311	0.33475	0.54112	-0.061
Mof_S 	S 	0.49509	0.44984	0.3657	-0.062
Mof_C 	C 	0.08895	0.78122	0.39916	0.041
Mof_H 	H 	0.1017	0.7846	0.406	0.011
Mof_C 	C 	0.07155	0.79316	0.40367	-0.051
Mof_C 	C 	0.05267	0.78806	0.394	0.009
Mof_H 	H 	0.0404	0.796	0.3966	0.037
Mof_C 	C 	0.0524	0.77116	0.38056	-0.099
Mof_H 	H 	0.0398	0.7671	0.3739	0.066
Mof_C 	C 	0.07076	0.76015	0.3769	0.059
Mof_H 	H 	0.0704	0.7485	0.3677	0
Mof_C 	C 	0.15698	0.85172	0.53121	0.096
Mof_C 	C 	0.14137	0.83518	0.48466	0.056
Mof_H 	H 	0.1523	0.8364	0.4947	-0.001
Mof_C 	C 	0.14056	0.81736	0.47205	-0.098
Mof_H 	H 	0.1511	0.807	0.4731	0.065
Mof_C 	C 	0.12449	0.81499	0.45823	0.009
Mof_H 	H 	0.1235	0.8028	0.4498	0.037
Mof_C 	C 	0.10943	0.83094	0.45667	-0.05
Mof_C 	C 	0.11174	0.84831	0.46935	0.039
Mof_H 	H 	0.1017	0.8592	0.4682	0.014
Mof_C 	C 	0.09209	0.82962	0.44153	0.134
Mof_C 	C 	0.07381	0.81177	0.4173	0.138
Mof_C 	C 	0.06447	0.8443	0.42578	0.14
Mof_C 	C 	0.03758	0.86275	0.40435	0.044
Mof_H 	H 	0.0372	0.8507	0.3956	0.009
Mof_C 	C 	0.05122	0.86271	0.42164	-0.053
Mof_C 	C 	0.0521	0.88072	0.43399	0.008
Mof_H 	H 	0.0612	0.8815	0.4457	0.038
Mof_C 	C 	0.03937	0.89744	0.42859	-0.097
Mof_H 	H 	0.0397	0.91	0.4366	0.065
Mof_C 	C 	0.02623	0.89585	0.41158	0.057
Mof_H 	H 	0.0175	0.9074	0.4082	0.002
Mof_C 	C 	0.99874	0.92504	0.36991	0.104
Mof_C 	C 	0.9824	0.88864	0.33293	0.06
Mof_H 	H 	0.9927	0.8993	0.3341	0
Mof_C 	C 	0.97075	0.88786	0.31527	-0.1
Mof_H 	H 	0.9734	0.8973	0.3041	0.068
Mof_C 	C 	0.95481	0.87298	0.31355	0.008
Mof_H 	H 	0.9463	0.8722	0.3014	0.038
Mof_C 	C 	0.95178	0.85933	0.33011	-0.052
Mof_C 	C 	0.96504	0.86077	0.34741	0.043
Mof_H 	H 	0.9633	0.8511	0.3586	0.01
Mof_C 	C 	0.93567	0.84304	0.32939	0.134
Mof_N 	N 	0.08907	0.76527	0.38587	-0.226
Mof_N 	N 	0.14569	0.86377	0.52354	-0.258
Mof_N 	N 	0.12727	0.85067	0.48319	-0.226
Mof_N 	N 	0.0797	0.84636	0.43948	-0.153
Mof_N 	N 	0.0901	0.81193	0.43039	-0.151
Mof_N 	N 	0.0603	0.82715	0.41477	-0.155
Mof_N 	N 	0.02534	0.87861	0.3996	-0.23
Mof_N 	N 	0.00126	0.9075	0.37278	-0.262
Mof_N 	N 	0.97999	0.87506	0.34886	-0.227
Mof_N 	N 	0.93603	0.82863	0.3444	-0.151
Mof_S 	S 	0.17311	0.83475	0.54112	-0.061
Mof_S 	S 	0.99509	0.94984	0.3657	-0.062
Mof_C 	C 	0.08895	0.28122	0.89916	0.041
Mof_H 	H 	0.1017	0.2846	0.906	0.011
Mof_C 	C 	0.07155	0.29316	0.90367	-0.051
Mof_C 	C 	0.05267	0.28806	0.894	0.009
Mof_H 	H 	0.0404	0.296	0.8966	0.037
Mof_C 	C 	0.0524	0.27116	0.88056	-0.099
Mof_H 	H 	0.0398	0.2671	0.8739	0.066
Mof_C 	C 	0.07076	0.26015	0.8769	0.059
Mof_H 	H 	0.0704	0.2485	0.8677	0
Mof_C 	C 	0.15698	0.35172	0.03121	0.096
Mof_C 	C 	0.14137	0.33518	0.98466	0.056
Mof_H 	H 	0.1523	0.3364	0.9947	-0.001
Mof_C 	C 	0.14056	0.31736	0.97205	-0.098
Mof_H 	H 	0.1511	0.307	0.9731	0.065
Mof_C 	C 	0.12449	0.31499	0.95823	0.009
Mof_H 	H 	0.1235	0.3028	0.9498	0.037
Mof_C 	C 	0.10943	0.33094	0.95667	-0.05
Mof_C 	C 	0.11174	0.34831	0.96935	0.039
Mof_H 	H 	0.1017	0.3592	0.9682	0.014
Mof_C 	C 	0.09209	0.32962	0.94153	0.134
Mof_C 	C 	0.07381	0.31177	0.9173	0.138
Mof_C 	C 	0.06447	0.3443	0.92578	0.14
Mof_C 	C 	0.03758	0.36275	0.90435	0.044
Mof_H 	H 	0.0372	0.3507	0.8956	0.009
Mof_C 	C 	0.05122	0.36271	0.92164	-0.053
Mof_C 	C 	0.0521	0.38072	0.93399	0.008
Mof_H 	H 	0.0612	0.3815	0.9457	0.038
Mof_C 	C 	0.03937	0.39744	0.92859	-0.097
Mof_H 	H 	0.0397	0.41	0.9366	0.065
Mof_C 	C 	0.02623	0.39585	0.91158	0.057
Mof_H 	H 	0.0175	0.4074	0.9082	0.002
Mof_C 	C 	0.99874	0.42504	0.86991	0.104
Mof_C 	C 	0.9824	0.38864	0.83293	0.06
Mof_H 	H 	0.9927	0.3993	0.8341	0
Mof_C 	C 	0.97075	0.38786	0.81527	-0.1
Mof_H 	H 	0.9734	0.3973	0.8041	0.068
Mof_C 	C 	0.95481	0.37298	0.81355	0.008
Mof_H 	H 	0.9463	0.3722	0.8014	0.038
Mof_C 	C 	0.95178	0.35933	0.83011	-0.052
Mof_C 	C 	0.96504	0.36077	0.84741	0.043
Mof_H 	H 	0.9633	0.3511	0.8586	0.01
Mof_C 	C 	0.93567	0.34304	0.82939	0.134
Mof_N 	N 	0.08907	0.26527	0.88587	-0.226
Mof_N 	N 	0.14569	0.36377	0.02354	-0.258
Mof_N 	N 	0.12727	0.35067	0.98319	-0.226
Mof_N 	N 	0.0797	0.34636	0.93948	-0.153
Mof_N 	N 	0.0901	0.31193	0.93039	-0.151
Mof_N 	N 	0.0603	0.32715	0.91477	-0.155
Mof_N 	N 	0.02534	0.37861	0.8996	-0.23
Mof_N 	N 	0.00126	0.4075	0.87278	-0.262
Mof_N 	N 	0.97999	0.37506	0.84886	-0.227
Mof_N 	N 	0.93603	0.32863	0.8444	-0.151
Mof_S 	S 	0.17311	0.33475	0.04112	-0.061
Mof_S 	S 	0.99509	0.44984	0.8657	-0.062
Mof_C 	C 	0.16105	0.46878	0.39916	0.041
Mof_H 	H 	0.1483	0.4654	0.406	0.011
Mof_C 	C 	0.17845	0.45684	0.40367	-0.051
Mof_C 	C 	0.19733	0.46194	0.394	0.009
Mof_H 	H 	0.2096	0.454	0.3966	0.037
Mof_C 	C 	0.1976	0.47884	0.38056	-0.099
Mof_H 	H 	0.2102	0.4829	0.3739	0.066
Mof_C 	C 	0.17924	0.48985	0.3769	0.059
Mof_H 	H 	0.1796	0.5015	0.3677	0
Mof_C 	C 	0.09302	0.39828	0.53121	0.096
Mof_C 	C 	0.10863	0.41482	0.48466	0.056
Mof_H 	H 	0.0977	0.4136	0.4947	-0.001
Mof_C 	C 	0.10944	0.43264	0.47205	-0.098
Mof_H 	H 	0.0989	0.443	0.4731	0.065
Mof_C 	C 	0.12551	0.43501	0.45823	0.009
Mof_H 	H 	0.1265	0.4472	0.4498	0.037
Mof_C 	C 	0.14057	0.41906	0.45667	-0.05
Mof_C 	C 	0.13826	0.40169	0.46935	0.039
Mof_H 	H 	0.1483	0.3908	0.4682	0.014
Mof_C 	C 	0.15791	0.42038	0.44153	0.134
Mof_C 	C 	0.17619	0.43823	0.4173	0.138
Mof_C 	C 	0.18553	0.4057	0.42578	0.14
Mof_C 	C 	0.21242	0.38725	0.40435	0.044
Mof_H 	H 	0.2128	0.3993	0.3956	0.009
Mof_C 	C 	0.19878	0.38729	0.42164	-0.053
Mof_C 	C 	0.1979	0.36928	0.43399	0.008
Mof_H 	H 	0.1888	0.3685	0.4457	0.038
Mof_C 	C 	0.21063	0.35256	0.42859	-0.097
Mof_H 	H 	0.2103	0.34	0.4366	0.065
Mof_C 	C 	0.22377	0.35415	0.41158	0.057
Mof_H 	H 	0.2325	0.3426	0.4082	0.002
Mof_C 	C 	0.25126	0.32496	0.36991	0.104
Mof_C 	C 	0.2676	0.36136	0.33293	0.06
Mof_H 	H 	0.2573	0.3507	0.3341	0
Mof_C 	C 	0.27925	0.36214	0.31527	-0.1
Mof_H 	H 	0.2766	0.3527	0.3041	0.068
Mof_C 	C 	0.29519	0.37702	0.31355	0.008
Mof_H 	H 	0.3037	0.3778	0.3014	0.038
Mof_C 	C 	0.29822	0.39067	0.33011	-0.052
Mof_C 	C 	0.28496	0.38923	0.34741	0.043
Mof_H 	H 	0.2867	0.3989	0.3586	0.01
Mof_C 	C 	0.31433	0.40696	0.32939	0.134
Mof_N 	N 	0.16093	0.48473	0.38587	-0.226
Mof_N 	N 	0.10431	0.38623	0.52354	-0.258
Mof_N 	N 	0.12273	0.39933	0.48319	-0.226
Mof_N 	N 	0.1703	0.40364	0.43948	-0.153
Mof_N 	N 	0.1599	0.43807	0.43039	-0.151
Mof_N 	N 	0.1897	0.42285	0.41477	-0.155
Mof_N 	N 	0.22466	0.37139	0.3996	-0.23
Mof_N 	N 	0.24874	0.3425	0.37278	-0.262
Mof_N 	N 	0.27001	0.37494	0.34886	-0.227
Mof_N 	N 	0.31397	0.42137	0.3444	-0.151
Mof_S 	S 	0.07689	0.41525	0.54112	-0.061
Mof_S 	S 	0.25491	0.30016	0.3657	-0.062
Mof_C 	C 	0.16105	0.96878	0.89916	0.041
Mof_H 	H 	0.1483	0.9654	0.906	0.011
Mof_C 	C 	0.17845	0.95684	0.90367	-0.051
Mof_C 	C 	0.19733	0.96194	0.894	0.009
Mof_H 	H 	0.2096	0.954	0.8966	0.037
Mof_C 	C 	0.1976	0.97884	0.88056	-0.099
Mof_H 	H 	0.2102	0.9829	0.8739	0.066
Mof_C 	C 	0.17924	0.98985	0.8769	0.059
Mof_H 	H 	0.1796	0.0015	0.8677	0
Mof_C 	C 	0.09302	0.89828	0.03121	0.096
Mof_C 	C 	0.10863	0.91482	0.98466	0.056
Mof_H 	H 	0.0977	0.9136	0.9947	-0.001
Mof_C 	C 	0.10944	0.93264	0.97205	-0.098
Mof_H 	H 	0.0989	0.943	0.9731	0.065
Mof_C 	C 	0.12551	0.93501	0.95823	0.009
Mof_H 	H 	0.1265	0.9472	0.9498	0.037
Mof_C 	C 	0.14057	0.91906	0.95667	-0.05
Mof_C 	C 	0.13826	0.90169	0.96935	0.039
Mof_H 	H 	0.1483	0.8908	0.9682	0.014
Mof_C 	C 	0.15791	0.92038	0.94153	0.134
Mof_C 	C 	0.17619	0.93823	0.9173	0.138
Mof_C 	C 	0.18553	0.9057	0.92578	0.14
Mof_C 	C 	0.21242	0.88725	0.90435	0.044
Mof_H 	H 	0.2128	0.8993	0.8956	0.009
Mof_C 	C 	0.19878	0.88729	0.92164	-0.053
Mof_C 	C 	0.1979	0.86928	0.93399	0.008
Mof_H 	H 	0.1888	0.8685	0.9457	0.038
Mof_C 	C 	0.21063	0.85256	0.92859	-0.097
Mof_H 	H 	0.2103	0.84	0.9366	0.065
Mof_C 	C 	0.22377	0.85415	0.91158	0.057
Mof_H 	H 	0.2325	0.8426	0.9082	0.002
Mof_C 	C 	0.25126	0.82496	0.86991	0.104
Mof_C 	C 	0.2676	0.86136	0.83293	0.06
Mof_H 	H 	0.2573	0.8507	0.8341	0
Mof_C 	C 	0.27925	0.86214	0.81527	-0.1
Mof_H 	H 	0.2766	0.8527	0.8041	0.068
Mof_C 	C 	0.29519	0.87702	0.81355	0.008
Mof_H 	H 	0.3037	0.8778	0.8014	0.038
Mof_C 	C 	0.29822	0.89067	0.83011	-0.052
Mof_C 	C 	0.28496	0.88923	0.84741	0.043
Mof_H 	H 	0.2867	0.8989	0.8586	0.01
Mof_C 	C 	0.31433	0.90696	0.82939	0.134
Mof_N 	N 	0.16093	0.98473	0.88587	-0.226
Mof_N 	N 	0.10431	0.88623	0.02354	-0.258
Mof_N 	N 	0.12273	0.89933	0.98319	-0.226
Mof_N 	N 	0.1703	0.90364	0.93948	-0.153
Mof_N 	N 	0.1599	0.93807	0.93039	-0.151
Mof_N 	N 	0.1897	0.92285	0.91477	-0.155
Mof_N 	N 	0.22466	0.87139	0.8996	-0.23
Mof_N 	N 	0.24874	0.8425	0.87278	-0.262
Mof_N 	N 	0.27001	0.87494	0.84886	-0.227
Mof_N 	N 	0.31397	0.92137	0.8444	-0.151
Mof_S 	S 	0.07689	0.91525	0.04112	-0.061
Mof_S 	S 	0.25491	0.80016	0.8657	-0.062
Mof_C 	C 	0.66105	0.46878	0.89916	0.041
Mof_H 	H 	0.6483	0.4654	0.906	0.011
Mof_C 	C 	0.67845	0.45684	0.90367	-0.051
Mof_C 	C 	0.69733	0.46194	0.894	0.009
Mof_H 	H 	0.7096	0.454	0.8966	0.037
Mof_C 	C 	0.6976	0.47884	0.88056	-0.099
Mof_H 	H 	0.7102	0.4829	0.8739	0.066
Mof_C 	C 	0.67924	0.48985	0.8769	0.059
Mof_H 	H 	0.6796	0.5015	0.8677	0
Mof_C 	C 	0.59302	0.39828	0.03121	0.096
Mof_C 	C 	0.60863	0.41482	0.98466	0.056
Mof_H 	H 	0.5977	0.4136	0.9947	-0.001
Mof_C 	C 	0.60944	0.43264	0.97205	-0.098
Mof_H 	H 	0.5989	0.443	0.9731	0.065
Mof_C 	C 	0.62551	0.43501	0.95823	0.009
Mof_H 	H 	0.6265	0.4472	0.9498	0.037
Mof_C 	C 	0.64057	0.41906	0.95667	-0.05
Mof_C 	C 	0.63826	0.40169	0.96935	0.039
Mof_H 	H 	0.6483	0.3908	0.9682	0.014
Mof_C 	C 	0.65791	0.42038	0.94153	0.134
Mof_C 	C 	0.67619	0.43823	0.9173	0.138
Mof_C 	C 	0.68553	0.4057	0.92578	0.14
Mof_C 	C 	0.71242	0.38725	0.90435	0.044
Mof_H 	H 	0.7128	0.3993	0.8956	0.009
Mof_C 	C 	0.69878	0.38729	0.92164	-0.053
Mof_C 	C 	0.6979	0.36928	0.93399	0.008
Mof_H 	H 	0.6888	0.3685	0.9457	0.038
Mof_C 	C 	0.71063	0.35256	0.92859	-0.097
Mof_H 	H 	0.7103	0.34	0.9366	0.065
Mof_C 	C 	0.72377	0.35415	0.91158	0.057
Mof_H 	H 	0.7325	0.3426	0.9082	0.002
Mof_C 	C 	0.75126	0.32496	0.86991	0.104
Mof_C 	C 	0.7676	0.36136	0.83293	0.06
Mof_H 	H 	0.7573	0.3507	0.8341	0
Mof_C 	C 	0.77925	0.36214	0.81527	-0.1
Mof_H 	H 	0.7766	0.3527	0.8041	0.068
Mof_C 	C 	0.79519	0.37702	0.81355	0.008
Mof_H 	H 	0.8037	0.3778	0.8014	0.038
Mof_C 	C 	0.79822	0.39067	0.83011	-0.052
Mof_C 	C 	0.78496	0.38923	0.84741	0.043
Mof_H 	H 	0.7867	0.3989	0.8586	0.01
Mof_C 	C 	0.81433	0.40696	0.82939	0.134
Mof_N 	N 	0.66093	0.48473	0.88587	-0.226
Mof_N 	N 	0.60431	0.38623	0.02354	-0.258
Mof_N 	N 	0.62273	0.39933	0.98319	-0.226
Mof_N 	N 	0.6703	0.40364	0.93948	-0.153
Mof_N 	N 	0.6599	0.43807	0.93039	-0.151
Mof_N 	N 	0.6897	0.42285	0.91477	-0.155
Mof_N 	N 	0.72466	0.37139	0.8996	-0.23
Mof_N 	N 	0.74874	0.3425	0.87278	-0.262
Mof_N 	N 	0.77001	0.37494	0.84886	-0.227
Mof_N 	N 	0.81397	0.42137	0.8444	-0.151
Mof_S 	S 	0.57689	0.41525	0.04112	-0.061
Mof_S 	S 	0.75491	0.30016	0.8657	-0.062
Mof_C 	C 	0.66105	0.96878	0.39916	0.041
Mof_H 	H 	0.6483	0.9654	0.406	0.011
Mof_C 	C 	0.67845	0.95684	0.40367	-0.051
Mof_C 	C 	0.69733	0.96194	0.394	0.009
Mof_H 	H 	0.7096	0.954	0.3966	0.037
Mof_C 	C 	0.6976	0.97884	0.38056	-0.099
Mof_H 	H 	0.7102	0.9829	0.3739	0.066
Mof_C 	C 	0.67924	0.98985	0.3769	0.059
Mof_H 	H 	0.6796	0.0015	0.3677	0
Mof_C 	C 	0.59302	0.89828	0.53121	0.096
Mof_C 	C 	0.60863	0.91482	0.48466	0.056
Mof_H 	H 	0.5977	0.9136	0.4947	-0.001
Mof_C 	C 	0.60944	0.93264	0.47205	-0.098
Mof_H 	H 	0.5989	0.943	0.4731	0.065
Mof_C 	C 	0.62551	0.93501	0.45823	0.009
Mof_H 	H 	0.6265	0.9472	0.4498	0.037
Mof_C 	C 	0.64057	0.91906	0.45667	-0.05
Mof_C 	C 	0.63826	0.90169	0.46935	0.039
Mof_H 	H 	0.6483	0.8908	0.4682	0.014
Mof_C 	C 	0.65791	0.92038	0.44153	0.134
Mof_C 	C 	0.67619	0.93823	0.4173	0.138
Mof_C 	C 	0.68553	0.9057	0.42578	0.14
Mof_C 	C 	0.71242	0.88725	0.40435	0.044
Mof_H 	H 	0.7128	0.8993	0.3956	0.009
Mof_C 	C 	0.69878	0.88729	0.42164	-0.053
Mof_C 	C 	0.6979	0.86928	0.43399	0.008
Mof_H 	H 	0.6888	0.8685	0.4457	0.038
Mof_C 	C 	0.71063	0.85256	0.42859	-0.097
Mof_H 	H 	0.7103	0.84	0.4366	0.065
Mof_C 	C 	0.72377	0.85415	0.41158	0.057
Mof_H 	H 	0.7325	0.8426	0.4082	0.002
Mof_C 	C 	0.75126	0.82496	0.36991	0.104
Mof_C 	C 	0.7676	0.86136	0.33293	0.06
Mof_H 	H 	0.7573	0.8507	0.3341	0
Mof_C 	C 	0.77925	0.86214	0.31527	-0.1
Mof_H 	H 	0.7766	0.8527	0.3041	0.068
Mof_C 	C 	0.79519	0.87702	0.31355	0.008
Mof_H 	H 	0.8037	0.8778	0.3014	0.038
Mof_C 	C 	0.79822	0.89067	0.33011	-0.052
Mof_C 	C 	0.78496	0.88923	0.34741	0.043
Mof_H 	H 	0.7867	0.8989	0.3586	0.01
Mof_C 	C 	0.81433	0.90696	0.32939	0.134
Mof_N 	N 	0.66093	0.98473	0.38587	-0.226
Mof_N 	N 	0.60431	0.88623	0.52354	-0.258
Mof_N 	N 	0.62273	0.89933	0.48319	-0.226
Mof_N 	N 	0.6703	0.90364	0.43948	-0.153
Mof_N 	N 	0.6599	0.93807	0.43039	-0.151
Mof_N 	N 	0.6897	0.92285	0.41477	-0.155
Mof_N 	N 	0.72466	0.87139	0.3996	-0.23
Mof_N 	N 	0.74874	0.8425	0.37278	-0.262
Mof_N 	N 	0.77001	0.87494	0.34886	-0.227
Mof_N 	N 	0.81397	0.92137	0.3444	-0.151
Mof_S 	S 	0.57689	0.91525	0.54112	-0.061
Mof_S 	S 	0.75491	0.80016	0.3657	-0.062
Mof_C 	C 	0.66105	0.28122	0.85084	0.041
Mof_H 	H 	0.6483	0.2846	0.844	0.011
Mof_C 	C 	0.67845	0.29316	0.84633	-0.051
Mof_C 	C 	0.69733	0.28806	0.856	0.009
Mof_H 	H 	0.7096	0.296	0.8534	0.037
Mof_C 	C 	0.6976	0.27116	0.86944	-0.099
Mof_H 	H 	0.7102	0.2671	0.8761	0.066
Mof_C 	C 	0.67924	0.26015	0.8731	0.059
Mof_H 	H 	0.6796	0.2485	0.8823	0
Mof_C 	C 	0.59302	0.35172	0.71879	0.096
Mof_C 	C 	0.60863	0.33518	0.76534	0.056
Mof_H 	H 	0.5977	0.3364	0.7553	-0.001
Mof_C 	C 	0.60944	0.31736	0.77795	-0.098
Mof_H 	H 	0.5989	0.307	0.7769	0.065
Mof_C 	C 	0.62551	0.31499	0.79177	0.009
Mof_H 	H 	0.6265	0.3028	0.8002	0.037
Mof_C 	C 	0.64057	0.33094	0.79333	-0.05
Mof_C 	C 	0.63826	0.34831	0.78065	0.039
Mof_H 	H 	0.6483	0.3592	0.7818	0.014
Mof_C 	C 	0.65791	0.32962	0.80847	0.134
Mof_C 	C 	0.67619	0.31177	0.8327	0.138
Mof_C 	C 	0.68553	0.3443	0.82422	0.14
Mof_C 	C 	0.71242	0.36275	0.84565	0.044
Mof_H 	H 	0.7128	0.3507	0.8544	0.009
Mof_C 	C 	0.69878	0.36271	0.82836	-0.053
Mof_C 	C 	0.6979	0.38072	0.81601	0.008
Mof_H 	H 	0.6888	0.3815	0.8043	0.038
Mof_C 	C 	0.71063	0.39744	0.82141	-0.097
Mof_H 	H 	0.7103	0.41	0.8134	0.065
Mof_C 	C 	0.72377	0.39585	0.83842	0.057
Mof_H 	H 	0.7325	0.4074	0.8418	0.002
Mof_C 	C 	0.75126	0.42504	0.88009	0.104
Mof_C 	C 	0.7676	0.38864	0.91707	0.06
Mof_H 	H 	0.7573	0.3993	0.9159	0
Mof_C 	C 	0.77925	0.38786	0.93473	-0.1
Mof_H 	H 	0.7766	0.3973	0.9459	0.068
Mof_C 	C 	0.79519	0.37298	0.93645	0.008
Mof_H 	H 	0.8037	0.3722	0.9486	0.038
Mof_C 	C 	0.79822	0.35933	0.91989	-0.052
Mof_C 	C 	0.78496	0.36077	0.90259	0.043
Mof_H 	H 	0.7867	0.3511	0.8914	0.01
Mof_C 	C 	0.81433	0.34304	0.92061	0.134
Mof_N 	N 	0.66093	0.26527	0.86413	-0.226
Mof_N 	N 	0.60431	0.36377	0.72646	-0.258
Mof_N 	N 	0.62273	0.35067	0.76681	-0.226
Mof_N 	N 	0.6703	0.34636	0.81052	-0.153
Mof_N 	N 	0.6599	0.31193	0.81961	-0.151
Mof_N 	N 	0.6897	0.32715	0.83523	-0.155
Mof_N 	N 	0.72466	0.37861	0.8504	-0.23
Mof_N 	N 	0.74874	0.4075	0.87722	-0.262
Mof_N 	N 	0.77001	0.37506	0.90114	-0.227
Mof_N 	N 	0.81397	0.32863	0.9056	-0.151
Mof_S 	S 	0.57689	0.33475	0.70888	-0.061
Mof_S 	S 	0.75491	0.44984	0.8843	-0.062
Mof_C 	C 	0.66105	0.78122	0.35084	0.041
Mof_H 	H 	0.6483	0.7846	0.344	0.011
Mof_C 	C 	0.67845	0.79316	0.34633	-0.051
Mof_C 	C 	0.69733	0.78806	0.356	0.009
Mof_H 	H 	0.7096	0.796	0.3534	0.037
Mof_C 	C 	0.6976	0.77116	0.36944	-0.099
Mof_H 	H 	0.7102	0.7671	0.3761	0.066
Mof_C 	C 	0.67924	0.76015	0.3731	0.059
Mof_H 	H 	0.6796	0.7485	0.3823	0
Mof_C 	C 	0.59302	0.85172	0.21879	0.096
Mof_C 	C 	0.60863	0.83518	0.26534	0.056
Mof_H 	H 	0.5977	0.8364	0.2553	-0.001
Mof_C 	C 	0.60944	0.81736	0.27795	-0.098
Mof_H 	H 	0.5989	0.807	0.2769	0.065
Mof_C 	C 	0.62551	0.81499	0.29177	0.009
Mof_H 	H 	0.6265	0.8028	0.3002	0.037
Mof_C 	C 	0.64057	0.83094	0.29333	-0.05
Mof_C 	C 	0.63826	0.84831	0.28065	0.039
Mof_H 	H 	0.6483	0.8592	0.2818	0.014
Mof_C 	C 	0.65791	0.82962	0.30847	0.134
Mof_C 	C 	0.67619	0.81177	0.3327	0.138
Mof_C 	C 	0.68553	0.8443	0.32422	0.14
Mof_C 	C 	0.71242	0.86275	0.34565	0.044
Mof_H 	H 	0.7128	0.8507	0.3544	0.009
Mof_C 	C 	0.69878	0.86271	0.32836	-0.053
Mof_C 	C 	0.6979	0.88072	0.31601	0.008
Mof_H 	H 	0.6888	0.8815	0.3043	0.038
Mof_C 	C 	0.71063	0.89744	0.32141	-0.097
Mof_H 	H 	0.7103	0.91	0.3134	0.065
Mof_C 	C 	0.72377	0.89585	0.33842	0.057
Mof_H 	H 	0.7325	0.9074	0.3418	0.002
Mof_C 	C 	0.75126	0.92504	0.38009	0.104
Mof_C 	C 	0.7676	0.88864	0.41707	0.06
Mof_H 	H 	0.7573	0.8993	0.4159	0
Mof_C 	C 	0.77925	0.88786	0.43473	-0.1
Mof_H 	H 	0.7766	0.8973	0.4459	0.068
Mof_C 	C 	0.79519	0.87298	0.43645	0.008
Mof_H 	H 	0.8037	0.8722	0.4486	0.038
Mof_C 	C 	0.79822	0.85933	0.41989	-0.052
Mof_C 	C 	0.78496	0.86077	0.40259	0.043
Mof_H 	H 	0.7867	0.8511	0.3914	0.01
Mof_C 	C 	0.81433	0.84304	0.42061	0.134
Mof_N 	N 	0.66093	0.76527	0.36413	-0.226
Mof_N 	N 	0.60431	0.86377	0.22646	-0.258
Mof_N 	N 	0.62273	0.85067	0.26681	-0.226
Mof_N 	N 	0.6703	0.84636	0.31052	-0.153
Mof_N 	N 	0.6599	0.81193	0.31961	-0.151
Mof_N 	N 	0.6897	0.82715	0.33523	-0.155
Mof_N 	N 	0.72466	0.87861	0.3504	-0.23
Mof_N 	N 	0.74874	0.9075	0.37722	-0.262
Mof_N 	N 	0.77001	0.87506	0.40114	-0.227
Mof_N 	N 	0.81397	0.82863	0.4056	-0.151
Mof_S 	S 	0.57689	0.83475	0.20888	-0.061
Mof_S 	S 	0.75491	0.94984	0.3843	-0.062
Mof_C 	C 	0.16105	0.28122	0.35084	0.041
Mof_H 	H 	0.1483	0.2846	0.344	0.011
Mof_C 	C 	0.17845	0.29316	0.34633	-0.051
Mof_C 	C 	0.19733	0.28806	0.356	0.009
Mof_H 	H 	0.2096	0.296	0.3534	0.037
Mof_C 	C 	0.1976	0.27116	0.36944	-0.099
Mof_H 	H 	0.2102	0.2671	0.3761	0.066
Mof_C 	C 	0.17924	0.26015	0.3731	0.059
Mof_H 	H 	0.1796	0.2485	0.3823	0
Mof_C 	C 	0.09302	0.35172	0.21879	0.096
Mof_C 	C 	0.10863	0.33518	0.26534	0.056
Mof_H 	H 	0.0977	0.3364	0.2553	-0.001
Mof_C 	C 	0.10944	0.31736	0.27795	-0.098
Mof_H 	H 	0.0989	0.307	0.2769	0.065
Mof_C 	C 	0.12551	0.31499	0.29177	0.009
Mof_H 	H 	0.1265	0.3028	0.3002	0.037
Mof_C 	C 	0.14057	0.33094	0.29333	-0.05
Mof_C 	C 	0.13826	0.34831	0.28065	0.039
Mof_H 	H 	0.1483	0.3592	0.2818	0.014
Mof_C 	C 	0.15791	0.32962	0.30847	0.134
Mof_C 	C 	0.17619	0.31177	0.3327	0.138
Mof_C 	C 	0.18553	0.3443	0.32422	0.14
Mof_C 	C 	0.21242	0.36275	0.34565	0.044
Mof_H 	H 	0.2128	0.3507	0.3544	0.009
Mof_C 	C 	0.19878	0.36271	0.32836	-0.053
Mof_C 	C 	0.1979	0.38072	0.31601	0.008
Mof_H 	H 	0.1888	0.3815	0.3043	0.038
Mof_C 	C 	0.21063	0.39744	0.32141	-0.097
Mof_H 	H 	0.2103	0.41	0.3134	0.065
Mof_C 	C 	0.22377	0.39585	0.33842	0.057
Mof_H 	H 	0.2325	0.4074	0.3418	0.002
Mof_C 	C 	0.25126	0.42504	0.38009	0.104
Mof_C 	C 	0.2676	0.38864	0.41707	0.06
Mof_H 	H 	0.2573	0.3993	0.4159	0
Mof_C 	C 	0.27925	0.38786	0.43473	-0.1
Mof_H 	H 	0.2766	0.3973	0.4459	0.068
Mof_C 	C 	0.29519	0.37298	0.43645	0.008
Mof_H 	H 	0.3037	0.3722	0.4486	0.038
Mof_C 	C 	0.29822	0.35933	0.41989	-0.052
Mof_C 	C 	0.28496	0.36077	0.40259	0.043
Mof_H 	H 	0.2867	0.3511	0.3914	0.01
Mof_C 	C 	0.31433	0.34304	0.42061	0.134
Mof_N 	N 	0.16093	0.26527	0.36413	-0.226
Mof_N 	N 	0.10431	0.36377	0.22646	-0.258
Mof_N 	N 	0.12273	0.35067	0.26681	-0.226
Mof_N 	N 	0.1703	0.34636	0.31052	-0.153
Mof_N 	N 	0.1599	0.31193	0.31961	-0.151
Mof_N 	N 	0.1897	0.32715	0.33523	-0.155
Mof_N 	N 	0.22466	0.37861	0.3504	-0.23
Mof_N 	N 	0.24874	0.4075	0.37722	-0.262
Mof_N 	N 	0.27001	0.37506	0.40114	-0.227
Mof_N 	N 	0.31397	0.32863	0.4056	-0.151
Mof_S 	S 	0.07689	0.33475	0.20888	-0.061
Mof_S 	S 	0.25491	0.44984	0.3843	-0.062
Mof_C 	C 	0.16105	0.78122	0.85084	0.041
Mof_H 	H 	0.1483	0.7846	0.844	0.011
Mof_C 	C 	0.17845	0.79316	0.84633	-0.051
Mof_C 	C 	0.19733	0.78806	0.856	0.009
Mof_H 	H 	0.2096	0.796	0.8534	0.037
Mof_C 	C 	0.1976	0.77116	0.86944	-0.099
Mof_H 	H 	0.2102	0.7671	0.8761	0.066
Mof_C 	C 	0.17924	0.76015	0.8731	0.059
Mof_H 	H 	0.1796	0.7485	0.8823	0
Mof_C 	C 	0.09302	0.85172	0.71879	0.096
Mof_C 	C 	0.10863	0.83518	0.76534	0.056
Mof_H 	H 	0.0977	0.8364	0.7553	-0.001
Mof_C 	C 	0.10944	0.81736	0.77795	-0.098
Mof_H 	H 	0.0989	0.807	0.7769	0.065
Mof_C 	C 	0.12551	0.81499	0.79177	0.009
Mof_H 	H 	0.1265	0.8028	0.8002	0.037
Mof_C 	C 	0.14057	0.83094	0.79333	-0.05
Mof_C 	C 	0.13826	0.84831	0.78065	0.039
Mof_H 	H 	0.1483	0.8592	0.7818	0.014
Mof_C 	C 	0.15791	0.82962	0.80847	0.134
Mof_C 	C 	0.17619	0.81177	0.8327	0.138
Mof_C 	C 	0.18553	0.8443	0.82422	0.14
Mof_C 	C 	0.21242	0.86275	0.84565	0.044
Mof_H 	H 	0.2128	0.8507	0.8544	0.009
Mof_C 	C 	0.19878	0.86271	0.82836	-0.053
Mof_C 	C 	0.1979	0.88072	0.81601	0.008
Mof_H 	H 	0.1888	0.8815	0.8043	0.038
Mof_C 	C 	0.21063	0.89744	0.82141	-0.097
Mof_H 	H 	0.2103	0.91	0.8134	0.065
Mof_C 	C 	0.22377	0.89585	0.83842	0.057
Mof_H 	H 	0.2325	0.9074	0.8418	0.002
Mof_C 	C 	0.25126	0.92504	0.88009	0.104
Mof_C 	C 	0.2676	0.88864	0.91707	0.06
Mof_H 	H 	0.2573	0.8993	0.9159	0
Mof_C 	C 	0.27925	0.88786	0.93473	-0.1
Mof_H 	H 	0.2766	0.8973	0.9459	0.068
Mof_C 	C 	0.29519	0.87298	0.93645	0.008
Mof_H 	H 	0.3037	0.8722	0.9486	0.038
Mof_C 	C 	0.29822	0.85933	0.91989	-0.052
Mof_C 	C 	0.28496	0.86077	0.90259	0.043
Mof_H 	H 	0.2867	0.8511	0.8914	0.01
Mof_C 	C 	0.31433	0.84304	0.92061	0.134
Mof_N 	N 	0.16093	0.76527	0.86413	-0.226
Mof_N 	N 	0.10431	0.86377	0.72646	-0.258
Mof_N 	N 	0.12273	0.85067	0.76681	-0.226
Mof_N 	N 	0.1703	0.84636	0.81052	-0.153
Mof_N 	N 	0.1599	0.81193	0.81961	-0.151
Mof_N 	N 	0.1897	0.82715	0.83523	-0.155
Mof_N 	N 	0.22466	0.87861	0.8504	-0.23
Mof_N 	N 	0.24874	0.9075	0.87722	-0.262
Mof_N 	N 	0.27001	0.87506	0.90114	-0.227
Mof_N 	N 	0.31397	0.82863	0.9056	-0.151
Mof_S 	S 	0.07689	0.83475	0.70888	-0.061
Mof_S 	S 	0.25491	0.94984	0.8843	-0.062
Mof_C 	C 	0.08895	0.96878	0.35084	0.041
Mof_H 	H 	0.1017	0.9654	0.344	0.011
Mof_C 	C 	0.07155	0.95684	0.34633	-0.051
Mof_C 	C 	0.05267	0.96194	0.356	0.009
Mof_H 	H 	0.0404	0.954	0.3534	0.037
Mof_C 	C 	0.0524	0.97884	0.36944	-0.099
Mof_H 	H 	0.0398	0.9829	0.3761	0.066
Mof_C 	C 	0.07076	0.98985	0.3731	0.059
Mof_H 	H 	0.0704	0.0015	0.3823	0
Mof_C 	C 	0.15698	0.89828	0.21879	0.096
Mof_C 	C 	0.14137	0.91482	0.26534	0.056
Mof_H 	H 	0.1523	0.9136	0.2553	-0.001
Mof_C 	C 	0.14056	0.93264	0.27795	-0.098
Mof_H 	H 	0.1511	0.943	0.2769	0.065
Mof_C 	C 	0.12449	0.93501	0.29177	0.009
Mof_H 	H 	0.1235	0.9472	0.3002	0.037
Mof_C 	C 	0.10943	0.91906	0.29333	-0.05
Mof_C 	C 	0.11174	0.90169	0.28065	0.039
Mof_H 	H 	0.1017	0.8908	0.2818	0.014
Mof_C 	C 	0.09209	0.92038	0.30847	0.134
Mof_C 	C 	0.07381	0.93823	0.3327	0.138
Mof_C 	C 	0.06447	0.9057	0.32422	0.14
Mof_C 	C 	0.03758	0.88725	0.34565	0.044
Mof_H 	H 	0.0372	0.8993	0.3544	0.009
Mof_C 	C 	0.05122	0.88729	0.32836	-0.053
Mof_C 	C 	0.0521	0.86928	0.31601	0.008
Mof_H 	H 	0.0612	0.8685	0.3043	0.038
Mof_C 	C 	0.03937	0.85256	0.32141	-0.097
Mof_H 	H 	0.0397	0.84	0.3134	0.065
Mof_C 	C 	0.02623	0.85415	0.33842	0.057
Mof_H 	H 	0.0175	0.8426	0.3418	0.002
Mof_C 	C 	0.99874	0.82496	0.38009	0.104
Mof_C 	C 	0.9824	0.86136	0.41707	0.06
Mof_H 	H 	0.9927	0.8507	0.4159	0
Mof_C 	C 	0.97075	0.86214	0.43473	-0.1
Mof_H 	H 	0.9734	0.8527	0.4459	0.068
Mof_C 	C 	0.95481	0.87702	0.43645	0.008
Mof_H 	H 	0.9463	0.8778	0.4486	0.038
Mof_C 	C 	0.95178	0.89067	0.41989	-0.052
Mof_C 	C 	0.96504	0.88923	0.40259	0.043
Mof_H 	H 	0.9633	0.8989	0.3914	0.01
Mof_C 	C 	0.93567	0.90696	0.42061	0.134
Mof_N 	N 	0.08907	0.98473	0.36413	-0.226
Mof_N 	N 	0.14569	0.88623	0.22646	-0.258
Mof_N 	N 	0.12727	0.89933	0.26681	-0.226
Mof_N 	N 	0.0797	0.90364	0.31052	-0.153
Mof_N 	N 	0.0901	0.93807	0.31961	-0.151
Mof_N 	N 	0.0603	0.92285	0.33523	-0.155
Mof_N 	N 	0.02534	0.87139	0.3504	-0.23
Mof_N 	N 	0.00126	0.8425	0.37722	-0.262
Mof_N 	N 	0.97999	0.87494	0.40114	-0.227
Mof_N 	N 	0.93603	0.92137	0.4056	-0.151
Mof_S 	S 	0.17311	0.91525	0.20888	-0.061
Mof_S 	S 	0.99509	0.80016	0.3843	-0.062
Mof_C 	C 	0.08895	0.46878	0.85084	0.041
Mof_H 	H 	0.1017	0.4654	0.844	0.011
Mof_C 	C 	0.07155	0.45684	0.84633	-0.051
Mof_C 	C 	0.05267	0.46194	0.856	0.009
Mof_H 	H 	0.0404	0.454	0.8534	0.037
Mof_C 	C 	0.0524	0.47884	0.86944	-0.099
Mof_H 	H 	0.0398	0.4829	0.8761	0.066
Mof_C 	C 	0.07076	0.48985	0.8731	0.059
Mof_H 	H 	0.0704	0.5015	0.8823	0
Mof_C 	C 	0.15698	0.39828	0.71879	0.096
Mof_C 	C 	0.14137	0.41482	0.76534	0.056
Mof_H 	H 	0.1523	0.4136	0.7553	-0.001
Mof_C 	C 	0.14056	0.43264	0.77795	-0.098
Mof_H 	H 	0.1511	0.443	0.7769	0.065
Mof_C 	C 	0.12449	0.43501	0.79177	0.009
Mof_H 	H 	0.1235	0.4472	0.8002	0.037
Mof_C 	C 	0.10943	0.41906	0.79333	-0.05
Mof_C 	C 	0.11174	0.40169	0.78065	0.039
Mof_H 	H 	0.1017	0.3908	0.7818	0.014
Mof_C 	C 	0.09209	0.42038	0.80847	0.134
Mof_C 	C 	0.07381	0.43823	0.8327	0.138
Mof_C 	C 	0.06447	0.4057	0.82422	0.14
Mof_C 	C 	0.03758	0.38725	0.84565	0.044
Mof_H 	H 	0.0372	0.3993	0.8544	0.009
Mof_C 	C 	0.05122	0.38729	0.82836	-0.053
Mof_C 	C 	0.0521	0.36928	0.81601	0.008
Mof_H 	H 	0.0612	0.3685	0.8043	0.038
Mof_C 	C 	0.03937	0.35256	0.82141	-0.097
Mof_H 	H 	0.0397	0.34	0.8134	0.065
Mof_C 	C 	0.02623	0.35415	0.83842	0.057
Mof_H 	H 	0.0175	0.3426	0.8418	0.002
Mof_C 	C 	0.99874	0.32496	0.88009	0.104
Mof_C 	C 	0.9824	0.36136	0.91707	0.06
Mof_H 	H 	0.9927	0.3507	0.9159	0
Mof_C 	C 	0.97075	0.36214	0.93473	-0.1
Mof_H 	H 	0.9734	0.3527	0.9459	0.068
Mof_C 	C 	0.95481	0.37702	0.93645	0.008
Mof_H 	H 	0.9463	0.3778	0.9486	0.038
Mof_C 	C 	0.95178	0.39067	0.91989	-0.052
Mof_C 	C 	0.96504	0.38923	0.90259	0.043
Mof_H 	H 	0.9633	0.3989	0.8914	0.01
Mof_C 	C 	0.93567	0.40696	0.92061	0.134
Mof_N 	N 	0.08907	0.48473	0.86413	-0.226
Mof_N 	N 	0.14569	0.38623	0.72646	-0.258
Mof_N 	N 	0.12727	0.39933	0.76681	-0.226
Mof_N 	N 	0.0797	0.40364	0.81052	-0.153
Mof_N 	N 	0.0901	0.43807	0.81961	-0.151
Mof_N 	N 	0.0603	0.42285	0.83523	-0.155
Mof_N 	N 	0.02534	0.37139	0.8504	-0.23
Mof_N 	N 	0.00126	0.3425	0.87722	-0.262
Mof_N 	N 	0.97999	0.37494	0.90114	-0.227
Mof_N 	N 	0.93603	0.42137	0.9056	-0.151
Mof_S 	S 	0.17311	0.41525	0.70888	-0.061
Mof_S 	S 	0.99509	0.30016	0.8843	-0.062
Mof_C 	C 	0.58895	0.96878	0.85084	0.041
Mof_H 	H 	0.6017	0.9654	0.844	0.011
Mof_C 	C 	0.57155	0.95684	0.84633	-0.051
Mof_C 	C 	0.55267	0.96194	0.856	0.009
Mof_H 	H 	0.5404	0.954	0.8534	0.037
Mof_C 	C 	0.5524	0.97884	0.86944	-0.099
Mof_H 	H 	0.5398	0.9829	0.8761	0.066
Mof_C 	C 	0.57076	0.98985	0.8731	0.059
Mof_H 	H 	0.5704	0.0015	0.8823	0
Mof_C 	C 	0.65698	0.89828	0.71879	0.096
Mof_C 	C 	0.64137	0.91482	0.76534	0.056
Mof_H 	H 	0.6523	0.9136	0.7553	-0.001
Mof_C 	C 	0.64056	0.93264	0.77795	-0.098
Mof_H 	H 	0.6511	0.943	0.7769	0.065
Mof_C 	C 	0.62449	0.93501	0.79177	0.009
Mof_H 	H 	0.6235	0.9472	0.8002	0.037
Mof_C 	C 	0.60943	0.91906	0.79333	-0.05
Mof_C 	C 	0.61174	0.90169	0.78065	0.039
Mof_H 	H 	0.6017	0.8908	0.7818	0.014
Mof_C 	C 	0.59209	0.92038	0.80847	0.134
Mof_C 	C 	0.57381	0.93823	0.8327	0.138
Mof_C 	C 	0.56447	0.9057	0.82422	0.14
Mof_C 	C 	0.53758	0.88725	0.84565	0.044
Mof_H 	H 	0.5372	0.8993	0.8544	0.009
Mof_C 	C 	0.55122	0.88729	0.82836	-0.053
Mof_C 	C 	0.5521	0.86928	0.81601	0.008
Mof_H 	H 	0.5612	0.8685	0.8043	0.038
Mof_C 	C 	0.53937	0.85256	0.82141	-0.097
Mof_H 	H 	0.5397	0.84	0.8134	0.065
Mof_C 	C 	0.52623	0.85415	0.83842	0.057
Mof_H 	H 	0.5175	0.8426	0.8418	0.002
Mof_C 	C 	0.49874	0.82496	0.88009	0.104
Mof_C 	C 	0.4824	0.86136	0.91707	0.06
Mof_H 	H 	0.4927	0.8507	0.9159	0
Mof_C 	C 	0.47075	0.86214	0.93473	-0.1
Mof_H 	H 	0.4734	0.8527	0.9459	0.068
Mof_C 	C 	0.45481	0.87702	0.93645	0.008
Mof_H 	H 	0.4463	0.8778	0.9486	0.038
Mof_C 	C 	0.45178	0.89067	0.91989	-0.052
Mof_C 	C 	0.46504	0.88923	0.90259	0.043
Mof_H 	H 	0.4633	0.8989	0.8914	0.01
Mof_C 	C 	0.43567	0.90696	0.92061	0.134
Mof_N 	N 	0.58907	0.98473	0.86413	-0.226
Mof_N 	N 	0.64569	0.88623	0.72646	-0.258
Mof_N 	N 	0.62727	0.89933	0.76681	-0.226
Mof_N 	N 	0.5797	0.90364	0.81052	-0.153
Mof_N 	N 	0.5901	0.93807	0.81961	-0.151
Mof_N 	N 	0.5603	0.92285	0.83523	-0.155
Mof_N 	N 	0.52534	0.87139	0.8504	-0.23
Mof_N 	N 	0.50126	0.8425	0.87722	-0.262
Mof_N 	N 	0.47999	0.87494	0.90114	-0.227
Mof_N 	N 	0.43603	0.92137	0.9056	-0.151
Mof_S 	S 	0.67311	0.91525	0.70888	-0.061
Mof_S 	S 	0.49509	0.80016	0.8843	-0.062
Mof_C 	C 	0.58895	0.46878	0.35084	0.041
Mof_H 	H 	0.6017	0.4654	0.344	0.011
Mof_C 	C 	0.57155	0.45684	0.34633	-0.051
Mof_C 	C 	0.55267	0.46194	0.356	0.009
Mof_H 	H 	0.5404	0.454	0.3534	0.037
Mof_C 	C 	0.5524	0.47884	0.36944	-0.099
Mof_H 	H 	0.5398	0.4829	0.3761	0.066
Mof_C 	C 	0.57076	0.48985	0.3731	0.059
Mof_H 	H 	0.5704	0.5015	0.3823	0
Mof_C 	C 	0.65698	0.39828	0.21879	0.096
Mof_C 	C 	0.64137	0.41482	0.26534	0.056
Mof_H 	H 	0.6523	0.4136	0.2553	-0.001
Mof_C 	C 	0.64056	0.43264	0.27795	-0.098
Mof_H 	H 	0.6511	0.443	0.2769	0.065
Mof_C 	C 	0.62449	0.43501	0.29177	0.009
Mof_H 	H 	0.6235	0.4472	0.3002	0.037
Mof_C 	C 	0.60943	0.41906	0.29333	-0.05
Mof_C 	C 	0.61174	0.40169	0.28065	0.039
Mof_H 	H 	0.6017	0.3908	0.2818	0.014
Mof_C 	C 	0.59209	0.42038	0.30847	0.134
Mof_C 	C 	0.57381	0.43823	0.3327	0.138
Mof_C 	C 	0.56447	0.4057	0.32422	0.14
Mof_C 	C 	0.53758	0.38725	0.34565	0.044
Mof_H 	H 	0.5372	0.3993	0.3544	0.009
Mof_C 	C 	0.55122	0.38729	0.32836	-0.053
Mof_C 	C 	0.5521	0.36928	0.31601	0.008
Mof_H 	H 	0.5612	0.3685	0.3043	0.038
Mof_C 	C 	0.53937	0.35256	0.32141	-0.097
Mof_H 	H 	0.5397	0.34	0.3134	0.065
Mof_C 	C 	0.52623	0.35415	0.33842	0.057
Mof_H 	H 	0.5175	0.3426	0.3418	0.002
Mof_C 	C 	0.49874	0.32496	0.38009	0.104
Mof_C 	C 	0.4824	0.36136	0.41707	0.06
Mof_H 	H 	0.4927	0.3507	0.4159	0
Mof_C 	C 	0.47075	0.36214	0.43473	-0.1
Mof_H 	H 	0.4734	0.3527	0.4459	0.068
Mof_C 	C 	0.45481	0.37702	0.43645	0.008
Mof_H 	H 	0.4463	0.3778	0.4486	0.038
Mof_C 	C 	0.45178	0.39067	0.41989	-0.052
Mof_C 	C 	0.46504	0.38923	0.40259	0.043
Mof_H 	H 	0.4633	0.3989	0.3914	0.01
Mof_C 	C 	0.43567	0.40696	0.42061	0.134
Mof_N 	N 	0.58907	0.48473	0.36413	-0.226
Mof_N 	N 	0.64569	0.38623	0.22646	-0.258
Mof_N 	N 	0.62727	0.39933	0.26681	-0.226
Mof_N 	N 	0.5797	0.40364	0.31052	-0.153
Mof_N 	N 	0.5901	0.43807	0.31961	-0.151
Mof_N 	N 	0.5603	0.42285	0.33523	-0.155
Mof_N 	N 	0.52534	0.37139	0.3504	-0.23
Mof_N 	N 	0.50126	0.3425	0.37722	-0.262
Mof_N 	N 	0.47999	0.37494	0.40114	-0.227
Mof_N 	N 	0.43603	0.42137	0.4056	-0.151
Mof_S 	S 	0.67311	0.41525	0.20888	-0.061
Mof_S 	S 	0.49509	0.30016	0.3843	-0.062
Mof_C 	C 	0.89916	0.58895	0.78122	0.041
Mof_H 	H 	0.906	0.6017	0.7846	0.011
Mof_C 	C 	0.90367	0.57155	0.79316	-0.051
Mof_C 	C 	0.894	0.55267	0.78806	0.009
Mof_H 	H 	0.8966	0.5404	0.796	0.037
Mof_C 	C 	0.88056	0.5524	0.77116	-0.099
Mof_H 	H 	0.8739	0.5398	0.7671	0.066
Mof_C 	C 	0.8769	0.57076	0.76015	0.059
Mof_H 	H 	0.8677	0.5704	0.7485	0
Mof_C 	C 	0.03121	0.65698	0.85172	0.096
Mof_C 	C 	0.98466	0.64137	0.83518	0.056
Mof_H 	H 	0.9947	0.6523	0.8364	-0.001
Mof_C 	C 	0.97205	0.64056	0.81736	-0.098
Mof_H 	H 	0.9731	0.6511	0.807	0.065
Mof_C 	C 	0.95823	0.62449	0.81499	0.009
Mof_H 	H 	0.9498	0.6235	0.8028	0.037
Mof_C 	C 	0.95667	0.60943	0.83094	-0.05
Mof_C 	C 	0.96935	0.61174	0.84831	0.039
Mof_H 	H 	0.9682	0.6017	0.8592	0.014
Mof_C 	C 	0.94153	0.59209	0.82962	0.134
Mof_C 	C 	0.9173	0.57381	0.81177	0.138
Mof_C 	C 	0.92578	0.56447	0.8443	0.14
Mof_C 	C 	0.90435	0.53758	0.86275	0.044
Mof_H 	H 	0.8956	0.5372	0.8507	0.009
Mof_C 	C 	0.92164	0.55122	0.86271	-0.053
Mof_C 	C 	0.93399	0.5521	0.88072	0.008
Mof_H 	H 	0.9457	0.5612	0.8815	0.038
Mof_C 	C 	0.92859	0.53937	0.89744	-0.097
Mof_H 	H 	0.9366	0.5397	0.91	0.065
Mof_C 	C 	0.91158	0.52623	0.89585	0.057
Mof_H 	H 	0.9082	0.5175	0.9074	0.002
Mof_C 	C 	0.86991	0.49874	0.92504	0.104
Mof_C 	C 	0.83293	0.4824	0.88864	0.06
Mof_H 	H 	0.8341	0.4927	0.8993	0
Mof_C 	C 	0.81527	0.47075	0.88786	-0.1
Mof_H 	H 	0.8041	0.4734	0.8973	0.068
Mof_C 	C 	0.81355	0.45481	0.87298	0.008
Mof_H 	H 	0.8014	0.4463	0.8722	0.038
Mof_C 	C 	0.83011	0.45178	0.85933	-0.052
Mof_C 	C 	0.84741	0.46504	0.86077	0.043
Mof_H 	H 	0.8586	0.4633	0.8511	0.01
Mof_C 	C 	0.82939	0.43567	0.84304	0.134
Mof_N 	N 	0.88587	0.58907	0.76527	-0.226
Mof_N 	N 	0.02354	0.64569	0.86377	-0.258
Mof_N 	N 	0.98319	0.62727	0.85067	-0.226
Mof_N 	N 	0.93948	0.5797	0.84636	-0.153
Mof_N 	N 	0.93039	0.5901	0.81193	-0.151
Mof_N 	N 	0.91477	0.5603	0.82715	-0.155
Mof_N 	N 	0.8996	0.52534	0.87861	-0.23
Mof_N 	N 	0.87278	0.50126	0.9075	-0.262
Mof_N 	N 	0.84886	0.47999	0.87506	-0.227
Mof_N 	N 	0.8444	0.43603	0.82863	-0.151
Mof_S 	S 	0.04112	0.67311	0.83475	-0.061
Mof_S 	S 	0.8657	0.49509	0.94984	-0.062
Mof_C 	C 	0.89916	0.08895	0.28122	0.041
Mof_H 	H 	0.906	0.1017	0.2846	0.011
Mof_C 	C 	0.90367	0.07155	0.29316	-0.051
Mof_C 	C 	0.894	0.05267	0.28806	0.009
Mof_H 	H 	0.8966	0.0404	0.296	0.037
Mof_C 	C 	0.88056	0.0524	0.27116	-0.099
Mof_H 	H 	0.8739	0.0398	0.2671	0.066
Mof_C 	C 	0.8769	0.07076	0.26015	0.059
Mof_H 	H 	0.8677	0.0704	0.2485	0
Mof_C 	C 	0.03121	0.15698	0.35172	0.096
Mof_C 	C 	0.98466	0.14137	0.33518	0.056
Mof_H 	H 	0.9947	0.1523	0.3364	-0.001
Mof_C 	C 	0.97205	0.14056	0.31736	-0.098
Mof_H 	H 	0.9731	0.1511	0.307	0.065
Mof_C 	C 	0.95823	0.12449	0.31499	0.009
Mof_H 	H 	0.9498	0.1235	0.3028	0.037
Mof_C 	C 	0.95667	0.10943	0.33094	-0.05
Mof_C 	C 	0.96935	0.11174	0.34831	0.039
Mof_H 	H 	0.9682	0.1017	0.3592	0.014
Mof_C 	C 	0.94153	0.09209	0.32962	0.134
Mof_C 	C 	0.9173	0.07381	0.31177	0.138
Mof_C 	C 	0.92578	0.06447	0.3443	0.14
Mof_C 	C 	0.90435	0.03758	0.36275	0.044
Mof_H 	H 	0.8956	0.0372	0.3507	0.009
Mof_C 	C 	0.92164	0.05122	0.36271	-0.053
Mof_C 	C 	0.93399	0.0521	0.38072	0.008
Mof_H 	H 	0.9457	0.0612	0.3815	0.038
Mof_C 	C 	0.92859	0.03937	0.39744	-0.097
Mof_H 	H 	0.9366	0.0397	0.41	0.065
Mof_C 	C 	0.91158	0.02623	0.39585	0.057
Mof_H 	H 	0.9082	0.0175	0.4074	0.002
Mof_C 	C 	0.86991	0.99874	0.42504	0.104
Mof_C 	C 	0.83293	0.9824	0.38864	0.06
Mof_H 	H 	0.8341	0.9927	0.3993	0
Mof_C 	C 	0.81527	0.97075	0.38786	-0.1
Mof_H 	H 	0.8041	0.9734	0.3973	0.068
Mof_C 	C 	0.81355	0.95481	0.37298	0.008
Mof_H 	H 	0.8014	0.9463	0.3722	0.038
Mof_C 	C 	0.83011	0.95178	0.35933	-0.052
Mof_C 	C 	0.84741	0.96504	0.36077	0.043
Mof_H 	H 	0.8586	0.9633	0.3511	0.01
Mof_C 	C 	0.82939	0.93567	0.34304	0.134
Mof_N 	N 	0.88587	0.08907	0.26527	-0.226
Mof_N 	N 	0.02354	0.14569	0.36377	-0.258
Mof_N 	N 	0.98319	0.12727	0.35067	-0.226
Mof_N 	N 	0.93948	0.0797	0.34636	-0.153
Mof_N 	N 	0.93039	0.0901	0.31193	-0.151
Mof_N 	N 	0.91477	0.0603	0.32715	-0.155
Mof_N 	N 	0.8996	0.02534	0.37861	-0.23
Mof_N 	N 	0.87278	0.00126	0.4075	-0.262
Mof_N 	N 	0.84886	0.97999	0.37506	-0.227
Mof_N 	N 	0.8444	0.93603	0.32863	-0.151
Mof_S 	S 	0.04112	0.17311	0.33475	-0.061
Mof_S 	S 	0.8657	0.99509	0.44984	-0.062
Mof_C 	C 	0.39916	0.58895	0.28122	0.041
Mof_H 	H 	0.406	0.6017	0.2846	0.011
Mof_C 	C 	0.40367	0.57155	0.29316	-0.051
Mof_C 	C 	0.394	0.55267	0.28806	0.009
Mof_H 	H 	0.3966	0.5404	0.296	0.037
Mof_C 	C 	0.38056	0.5524	0.27116	-0.099
Mof_H 	H 	0.3739	0.5398	0.2671	0.066
Mof_C 	C 	0.3769	0.57076	0.26015	0.059
Mof_H 	H 	0.3677	0.5704	0.2485	0
Mof_C 	C 	0.53121	0.65698	0.35172	0.096
Mof_C 	C 	0.48466	0.64137	0.33518	0.056
Mof_H 	H 	0.4947	0.6523	0.3364	-0.001
Mof_C 	C 	0.47205	0.64056	0.31736	-0.098
Mof_H 	H 	0.4731	0.6511	0.307	0.065
Mof_C 	C 	0.45823	0.62449	0.31499	0.009
Mof_H 	H 	0.4498	0.6235	0.3028	0.037
Mof_C 	C 	0.45667	0.60943	0.33094	-0.05
Mof_C 	C 	0.46935	0.61174	0.34831	0.039
Mof_H 	H 	0.4682	0.6017	0.3592	0.014
Mof_C 	C 	0.44153	0.59209	0.32962	0.134
Mof_C 	C 	0.4173	0.57381	0.31177	0.138
Mof_C 	C 	0.42578	0.56447	0.3443	0.14
Mof_C 	C 	0.40435	0.53758	0.36275	0.044
Mof_H 	H 	0.3956	0.5372	0.3507	0.009
Mof_C 	C 	0.42164	0.55122	0.36271	-0.053
Mof_C 	C 	0.43399	0.5521	0.38072	0.008
Mof_H 	H 	0.4457	0.5612	0.3815	0.038
Mof_C 	C 	0.42859	0.53937	0.39744	-0.097
Mof_H 	H 	0.4366	0.5397	0.41	0.065
Mof_C 	C 	0.41158	0.52623	0.39585	0.057
Mof_H 	H 	0.4082	0.5175	0.4074	0.002
Mof_C 	C 	0.36991	0.49874	0.42504	0.104
Mof_C 	C 	0.33293	0.4824	0.38864	0.06
Mof_H 	H 	0.3341	0.4927	0.3993	0
Mof_C 	C 	0.31527	0.47075	0.38786	-0.1
Mof_H 	H 	0.3041	0.4734	0.3973	0.068
Mof_C 	C 	0.31355	0.45481	0.37298	0.008
Mof_H 	H 	0.3014	0.4463	0.3722	0.038
Mof_C 	C 	0.33011	0.45178	0.35933	-0.052
Mof_C 	C 	0.34741	0.46504	0.36077	0.043
Mof_H 	H 	0.3586	0.4633	0.3511	0.01
Mof_C 	C 	0.32939	0.43567	0.34304	0.134
Mof_N 	N 	0.38587	0.58907	0.26527	-0.226
Mof_N 	N 	0.52354	0.64569	0.36377	-0.258
Mof_N 	N 	0.48319	0.62727	0.35067	-0.226
Mof_N 	N 	0.43948	0.5797	0.34636	-0.153
Mof_N 	N 	0.43039	0.5901	0.31193	-0.151
Mof_N 	N 	0.41477	0.5603	0.32715	-0.155
Mof_N 	N 	0.3996	0.52534	0.37861	-0.23
Mof_N 	N 	0.37278	0.50126	0.4075	-0.262
Mof_N 	N 	0.34886	0.47999	0.37506	-0.227
Mof_N 	N 	0.3444	0.43603	0.32863	-0.151
Mof_S 	S 	0.54112	0.67311	0.33475	-0.061
Mof_S 	S 	0.3657	0.49509	0.44984	-0.062
Mof_C 	C 	0.39916	0.08895	0.78122	0.041
Mof_H 	H 	0.406	0.1017	0.7846	0.011
Mof_C 	C 	0.40367	0.07155	0.79316	-0.051
Mof_C 	C 	0.394	0.05267	0.78806	0.009
Mof_H 	H 	0.3966	0.0404	0.796	0.037
Mof_C 	C 	0.38056	0.0524	0.77116	-0.099
Mof_H 	H 	0.3739	0.0398	0.7671	0.066
Mof_C 	C 	0.3769	0.07076	0.76015	0.059
Mof_H 	H 	0.3677	0.0704	0.7485	0
Mof_C 	C 	0.53121	0.15698	0.85172	0.096
Mof_C 	C 	0.48466	0.14137	0.83518	0.056
Mof_H 	H 	0.4947	0.1523	0.8364	-0.001
Mof_C 	C 	0.47205	0.14056	0.81736	-0.098
Mof_H 	H 	0.4731	0.1511	0.807	0.065
Mof_C 	C 	0.45823	0.12449	0.81499	0.009
Mof_H 	H 	0.4498	0.1235	0.8028	0.037
Mof_C 	C 	0.45667	0.10943	0.83094	-0.05
Mof_C 	C 	0.46935	0.11174	0.84831	0.039
Mof_H 	H 	0.4682	0.1017	0.8592	0.014
Mof_C 	C 	0.44153	0.09209	0.82962	0.134
Mof_C 	C 	0.4173	0.07381	0.81177	0.138
Mof_C 	C 	0.42578	0.06447	0.8443	0.14
Mof_C 	C 	0.40435	0.03758	0.86275	0.044
Mof_H 	H 	0.3956	0.0372	0.8507	0.009
Mof_C 	C 	0.42164	0.05122	0.86271	-0.053
Mof_C 	C 	0.43399	0.0521	0.88072	0.008
Mof_H 	H 	0.4457	0.0612	0.8815	0.038
Mof_C 	C 	0.42859	0.03937	0.89744	-0.097
Mof_H 	H 	0.4366	0.0397	0.91	0.065
Mof_C 	C 	0.41158	0.02623	0.89585	0.057
Mof_H 	H 	0.4082	0.0175	0.9074	0.002
Mof_C 	C 	0.36991	0.99874	0.92504	0.104
Mof_C 	C 	0.33293	0.9824	0.88864	0.06
Mof_H 	H 	0.3341	0.9927	0.8993	0
Mof_C 	C 	0.31527	0.97075	0.88786	-0.1
Mof_H 	H 	0.3041	0.9734	0.8973	0.068
Mof_C 	C 	0.31355	0.95481	0.87298	0.008
Mof_H 	H 	0.3014	0.9463	0.8722	0.038
Mof_C 	C 	0.33011	0.95178	0.85933	-0.052
Mof_C 	C 	0.34741	0.96504	0.86077	0.043
Mof_H 	H 	0.3586	0.9633	0.8511	0.01
Mof_C 	C 	0.32939	0.93567	0.84304	0.134
Mof_N 	N 	0.38587	0.08907	0.76527	-0.226
Mof_N 	N 	0.52354	0.14569	0.86377	-0.258
Mof_N 	N 	0.48319	0.12727	0.85067	-0.226
Mof_N 	N 	0.43948	0.0797	0.84636	-0.153
Mof_N 	N 	0.43039	0.0901	0.81193	-0.151
Mof_N 	N 	0.41477	0.0603	0.82715	-0.155
Mof_N 	N 	0.3996	0.02534	0.87861	-0.23
Mof_N 	N 	0.37278	0.00126	0.9075	-0.262
Mof_N 	N 	0.34886	0.97999	0.87506	-0.227
Mof_N 	N 	0.3444	0.93603	0.82863	-0.151
Mof_S 	S 	0.54112	0.17311	0.83475	-0.061
Mof_S 	S 	0.3657	0.99509	0.94984	-0.062
Mof_C 	C 	0.39916	0.16105	0.46878	0.041
Mof_H 	H 	0.406	0.1483	0.4654	0.011
Mof_C 	C 	0.40367	0.17845	0.45684	-0.051
Mof_C 	C 	0.394	0.19733	0.46194	0.009
Mof_H 	H 	0.3966	0.2096	0.454	0.037
Mof_C 	C 	0.38056	0.1976	0.47884	-0.099
Mof_H 	H 	0.3739	0.2102	0.4829	0.066
Mof_C 	C 	0.3769	0.17924	0.48985	0.059
Mof_H 	H 	0.3677	0.1796	0.5015	0
Mof_C 	C 	0.53121	0.09302	0.39828	0.096
Mof_C 	C 	0.48466	0.10863	0.41482	0.056
Mof_H 	H 	0.4947	0.0977	0.4136	-0.001
Mof_C 	C 	0.47205	0.10944	0.43264	-0.098
Mof_H 	H 	0.4731	0.0989	0.443	0.065
Mof_C 	C 	0.45823	0.12551	0.43501	0.009
Mof_H 	H 	0.4498	0.1265	0.4472	0.037
Mof_C 	C 	0.45667	0.14057	0.41906	-0.05
Mof_C 	C 	0.46935	0.13826	0.40169	0.039
Mof_H 	H 	0.4682	0.1483	0.3908	0.014
Mof_C 	C 	0.44153	0.15791	0.42038	0.134
Mof_C 	C 	0.4173	0.17619	0.43823	0.138
Mof_C 	C 	0.42578	0.18553	0.4057	0.14
Mof_C 	C 	0.40435	0.21242	0.38725	0.044
Mof_H 	H 	0.3956	0.2128	0.3993	0.009
Mof_C 	C 	0.42164	0.19878	0.38729	-0.053
Mof_C 	C 	0.43399	0.1979	0.36928	0.008
Mof_H 	H 	0.4457	0.1888	0.3685	0.038
Mof_C 	C 	0.42859	0.21063	0.35256	-0.097
Mof_H 	H 	0.4366	0.2103	0.34	0.065
Mof_C 	C 	0.41158	0.22377	0.35415	0.057
Mof_H 	H 	0.4082	0.2325	0.3426	0.002
Mof_C 	C 	0.36991	0.25126	0.32496	0.104
Mof_C 	C 	0.33293	0.2676	0.36136	0.06
Mof_H 	H 	0.3341	0.2573	0.3507	0
Mof_C 	C 	0.31527	0.27925	0.36214	-0.1
Mof_H 	H 	0.3041	0.2766	0.3527	0.068
Mof_C 	C 	0.31355	0.29519	0.37702	0.008
Mof_H 	H 	0.3014	0.3037	0.3778	0.038
Mof_C 	C 	0.33011	0.29822	0.39067	-0.052
Mof_C 	C 	0.34741	0.28496	0.38923	0.043
Mof_H 	H 	0.3586	0.2867	0.3989	0.01
Mof_C 	C 	0.32939	0.31433	0.40696	0.134
Mof_N 	N 	0.38587	0.16093	0.48473	-0.226
Mof_N 	N 	0.52354	0.10431	0.38623	-0.258
Mof_N 	N 	0.48319	0.12273	0.39933	-0.226
Mof_N 	N 	0.43948	0.1703	0.40364	-0.153
Mof_N 	N 	0.43039	0.1599	0.43807	-0.151
Mof_N 	N 	0.41477	0.1897	0.42285	-0.155
Mof_N 	N 	0.3996	0.22466	0.37139	-0.23
Mof_N 	N 	0.37278	0.24874	0.3425	-0.262
Mof_N 	N 	0.34886	0.27001	0.37494	-0.227
Mof_N 	N 	0.3444	0.31397	0.42137	-0.151
Mof_S 	S 	0.54112	0.07689	0.41525	-0.061
Mof_S 	S 	0.3657	0.25491	0.30016	-0.062
Mof_C 	C 	0.39916	0.66105	0.96878	0.041
Mof_H 	H 	0.406	0.6483	0.9654	0.011
Mof_C 	C 	0.40367	0.67845	0.95684	-0.051
Mof_C 	C 	0.394	0.69733	0.96194	0.009
Mof_H 	H 	0.3966	0.7096	0.954	0.037
Mof_C 	C 	0.38056	0.6976	0.97884	-0.099
Mof_H 	H 	0.3739	0.7102	0.9829	0.066
Mof_C 	C 	0.3769	0.67924	0.98985	0.059
Mof_H 	H 	0.3677	0.6796	0.0015	0
Mof_C 	C 	0.53121	0.59302	0.89828	0.096
Mof_C 	C 	0.48466	0.60863	0.91482	0.056
Mof_H 	H 	0.4947	0.5977	0.9136	-0.001
Mof_C 	C 	0.47205	0.60944	0.93264	-0.098
Mof_H 	H 	0.4731	0.5989	0.943	0.065
Mof_C 	C 	0.45823	0.62551	0.93501	0.009
Mof_H 	H 	0.4498	0.6265	0.9472	0.037
Mof_C 	C 	0.45667	0.64057	0.91906	-0.05
Mof_C 	C 	0.46935	0.63826	0.90169	0.039
Mof_H 	H 	0.4682	0.6483	0.8908	0.014
Mof_C 	C 	0.44153	0.65791	0.92038	0.134
Mof_C 	C 	0.4173	0.67619	0.93823	0.138
Mof_C 	C 	0.42578	0.68553	0.9057	0.14
Mof_C 	C 	0.40435	0.71242	0.88725	0.044
Mof_H 	H 	0.3956	0.7128	0.8993	0.009
Mof_C 	C 	0.42164	0.69878	0.88729	-0.053
Mof_C 	C 	0.43399	0.6979	0.86928	0.008
Mof_H 	H 	0.4457	0.6888	0.8685	0.038
Mof_C 	C 	0.42859	0.71063	0.85256	-0.097
Mof_H 	H 	0.4366	0.7103	0.84	0.065
Mof_C 	C 	0.41158	0.72377	0.85415	0.057
Mof_H 	H 	0.4082	0.7325	0.8426	0.002
Mof_C 	C 	0.36991	0.75126	0.82496	0.104
Mof_C 	C 	0.33293	0.7676	0.86136	0.06
Mof_H 	H 	0.3341	0.7573	0.8507	0
Mof_C 	C 	0.31527	0.77925	0.86214	-0.1
Mof_H 	H 	0.3041	0.7766	0.8527	0.068
Mof_C 	C 	0.31355	0.79519	0.87702	0.008
Mof_H 	H 	0.3014	0.8037	0.8778	0.038
Mof_C 	C 	0.33011	0.79822	0.89067	-0.052
Mof_C 	C 	0.34741	0.78496	0.88923	0.043
Mof_H 	H 	0.3586	0.7867	0.8989	0.01
Mof_C 	C 	0.32939	0.81433	0.90696	0.134
Mof_N 	N 	0.38587	0.66093	0.98473	-0.226
Mof_N 	N 	0.52354	0.60431	0.88623	-0.258
Mof_N 	N 	0.48319	0.62273	0.89933	-0.226
Mof_N 	N 	0.43948	0.6703	0.90364	-0.153
Mof_N 	N 	0.43039	0.6599	0.93807	-0.151
Mof_N 	N 	0.41477	0.6897	0.92285	-0.155
Mof_N 	N 	0.3996	0.72466	0.87139	-0.23
Mof_N 	N 	0.37278	0.74874	0.8425	-0.262
Mof_N 	N 	0.34886	0.77001	0.87494	-0.227
Mof_N 	N 	0.3444	0.81397	0.92137	-0.151
Mof_S 	S 	0.54112	0.57689	0.91525	-0.061
Mof_S 	S 	0.3657	0.75491	0.80016	-0.062
Mof_C 	C 	0.89916	0.16105	0.96878	0.041
Mof_H 	H 	0.906	0.1483	0.9654	0.011
Mof_C 	C 	0.90367	0.17845	0.95684	-0.051
Mof_C 	C 	0.894	0.19733	0.96194	0.009
Mof_H 	H 	0.8966	0.2096	0.954	0.037
Mof_C 	C 	0.88056	0.1976	0.97884	-0.099
Mof_H 	H 	0.8739	0.2102	0.9829	0.066
Mof_C 	C 	0.8769	0.17924	0.98985	0.059
Mof_H 	H 	0.8677	0.1796	0.0015	0
Mof_C 	C 	0.03121	0.09302	0.89828	0.096
Mof_C 	C 	0.98466	0.10863	0.91482	0.056
Mof_H 	H 	0.9947	0.0977	0.9136	-0.001
Mof_C 	C 	0.97205	0.10944	0.93264	-0.098
Mof_H 	H 	0.9731	0.0989	0.943	0.065
Mof_C 	C 	0.95823	0.12551	0.93501	0.009
Mof_H 	H 	0.9498	0.1265	0.9472	0.037
Mof_C 	C 	0.95667	0.14057	0.91906	-0.05
Mof_C 	C 	0.96935	0.13826	0.90169	0.039
Mof_H 	H 	0.9682	0.1483	0.8908	0.014
Mof_C 	C 	0.94153	0.15791	0.92038	0.134
Mof_C 	C 	0.9173	0.17619	0.93823	0.138
Mof_C 	C 	0.92578	0.18553	0.9057	0.14
Mof_C 	C 	0.90435	0.21242	0.88725	0.044
Mof_H 	H 	0.8956	0.2128	0.8993	0.009
Mof_C 	C 	0.92164	0.19878	0.88729	-0.053
Mof_C 	C 	0.93399	0.1979	0.86928	0.008
Mof_H 	H 	0.9457	0.1888	0.8685	0.038
Mof_C 	C 	0.92859	0.21063	0.85256	-0.097
Mof_H 	H 	0.9366	0.2103	0.84	0.065
Mof_C 	C 	0.91158	0.22377	0.85415	0.057
Mof_H 	H 	0.9082	0.2325	0.8426	0.002
Mof_C 	C 	0.86991	0.25126	0.82496	0.104
Mof_C 	C 	0.83293	0.2676	0.86136	0.06
Mof_H 	H 	0.8341	0.2573	0.8507	0
Mof_C 	C 	0.81527	0.27925	0.86214	-0.1
Mof_H 	H 	0.8041	0.2766	0.8527	0.068
Mof_C 	C 	0.81355	0.29519	0.87702	0.008
Mof_H 	H 	0.8014	0.3037	0.8778	0.038
Mof_C 	C 	0.83011	0.29822	0.89067	-0.052
Mof_C 	C 	0.84741	0.28496	0.88923	0.043
Mof_H 	H 	0.8586	0.2867	0.8989	0.01
Mof_C 	C 	0.82939	0.31433	0.90696	0.134
Mof_N 	N 	0.88587	0.16093	0.98473	-0.226
Mof_N 	N 	0.02354	0.10431	0.88623	-0.258
Mof_N 	N 	0.98319	0.12273	0.89933	-0.226
Mof_N 	N 	0.93948	0.1703	0.90364	-0.153
Mof_N 	N 	0.93039	0.1599	0.93807	-0.151
Mof_N 	N 	0.91477	0.1897	0.92285	-0.155
Mof_N 	N 	0.8996	0.22466	0.87139	-0.23
Mof_N 	N 	0.87278	0.24874	0.8425	-0.262
Mof_N 	N 	0.84886	0.27001	0.87494	-0.227
Mof_N 	N 	0.8444	0.31397	0.92137	-0.151
Mof_S 	S 	0.04112	0.07689	0.91525	-0.061
Mof_S 	S 	0.8657	0.25491	0.80016	-0.062
Mof_C 	C 	0.89916	0.66105	0.46878	0.041
Mof_H 	H 	0.906	0.6483	0.4654	0.011
Mof_C 	C 	0.90367	0.67845	0.45684	-0.051
Mof_C 	C 	0.894	0.69733	0.46194	0.009
Mof_H 	H 	0.8966	0.7096	0.454	0.037
Mof_C 	C 	0.88056	0.6976	0.47884	-0.099
Mof_H 	H 	0.8739	0.7102	0.4829	0.066
Mof_C 	C 	0.8769	0.67924	0.48985	0.059
Mof_H 	H 	0.8677	0.6796	0.5015	0
Mof_C 	C 	0.03121	0.59302	0.39828	0.096
Mof_C 	C 	0.98466	0.60863	0.41482	0.056
Mof_H 	H 	0.9947	0.5977	0.4136	-0.001
Mof_C 	C 	0.97205	0.60944	0.43264	-0.098
Mof_H 	H 	0.9731	0.5989	0.443	0.065
Mof_C 	C 	0.95823	0.62551	0.43501	0.009
Mof_H 	H 	0.9498	0.6265	0.4472	0.037
Mof_C 	C 	0.95667	0.64057	0.41906	-0.05
Mof_C 	C 	0.96935	0.63826	0.40169	0.039
Mof_H 	H 	0.9682	0.6483	0.3908	0.014
Mof_C 	C 	0.94153	0.65791	0.42038	0.134
Mof_C 	C 	0.9173	0.67619	0.43823	0.138
Mof_C 	C 	0.92578	0.68553	0.4057	0.14
Mof_C 	C 	0.90435	0.71242	0.38725	0.044
Mof_H 	H 	0.8956	0.7128	0.3993	0.009
Mof_C 	C 	0.92164	0.69878	0.38729	-0.053
Mof_C 	C 	0.93399	0.6979	0.36928	0.008
Mof_H 	H 	0.9457	0.6888	0.3685	0.038
Mof_C 	C 	0.92859	0.71063	0.35256	-0.097
Mof_H 	H 	0.9366	0.7103	0.34	0.065
Mof_C 	C 	0.91158	0.72377	0.35415	0.057
Mof_H 	H 	0.9082	0.7325	0.3426	0.002
Mof_C 	C 	0.86991	0.75126	0.32496	0.104
Mof_C 	C 	0.83293	0.7676	0.36136	0.06
Mof_H 	H 	0.8341	0.7573	0.3507	0
Mof_C 	C 	0.81527	0.77925	0.36214	-0.1
Mof_H 	H 	0.8041	0.7766	0.3527	0.068
Mof_C 	C 	0.81355	0.79519	0.37702	0.008
Mof_H 	H 	0.8014	0.8037	0.3778	0.038
Mof_C 	C 	0.83011	0.79822	0.39067	-0.052
Mof_C 	C 	0.84741	0.78496	0.38923	0.043
Mof_H 	H 	0.8586	0.7867	0.3989	0.01
Mof_C 	C 	0.82939	0.81433	0.40696	0.134
Mof_N 	N 	0.88587	0.66093	0.48473	-0.226
Mof_N 	N 	0.02354	0.60431	0.38623	-0.258
Mof_N 	N 	0.98319	0.62273	0.39933	-0.226
Mof_N 	N 	0.93948	0.6703	0.40364	-0.153
Mof_N 	N 	0.93039	0.6599	0.43807	-0.151
Mof_N 	N 	0.91477	0.6897	0.42285	-0.155
Mof_N 	N 	0.8996	0.72466	0.37139	-0.23
Mof_N 	N 	0.87278	0.74874	0.3425	-0.262
Mof_N 	N 	0.84886	0.77001	0.37494	-0.227
Mof_N 	N 	0.8444	0.81397	0.42137	-0.151
Mof_S 	S 	0.04112	0.57689	0.41525	-0.061
Mof_S 	S 	0.8657	0.75491	0.30016	-0.062
Mof_C 	C 	0.85084	0.66105	0.28122	0.041
Mof_H 	H 	0.844	0.6483	0.2846	0.011
Mof_C 	C 	0.84633	0.67845	0.29316	-0.051
Mof_C 	C 	0.856	0.69733	0.28806	0.009
Mof_H 	H 	0.8534	0.7096	0.296	0.037
Mof_C 	C 	0.86944	0.6976	0.27116	-0.099
Mof_H 	H 	0.8761	0.7102	0.2671	0.066
Mof_C 	C 	0.8731	0.67924	0.26015	0.059
Mof_H 	H 	0.8823	0.6796	0.2485	0
Mof_C 	C 	0.71879	0.59302	0.35172	0.096
Mof_C 	C 	0.76534	0.60863	0.33518	0.056
Mof_H 	H 	0.7553	0.5977	0.3364	-0.001
Mof_C 	C 	0.77795	0.60944	0.31736	-0.098
Mof_H 	H 	0.7769	0.5989	0.307	0.065
Mof_C 	C 	0.79177	0.62551	0.31499	0.009
Mof_H 	H 	0.8002	0.6265	0.3028	0.037
Mof_C 	C 	0.79333	0.64057	0.33094	-0.05
Mof_C 	C 	0.78065	0.63826	0.34831	0.039
Mof_H 	H 	0.7818	0.6483	0.3592	0.014
Mof_C 	C 	0.80847	0.65791	0.32962	0.134
Mof_C 	C 	0.8327	0.67619	0.31177	0.138
Mof_C 	C 	0.82422	0.68553	0.3443	0.14
Mof_C 	C 	0.84565	0.71242	0.36275	0.044
Mof_H 	H 	0.8544	0.7128	0.3507	0.009
Mof_C 	C 	0.82836	0.69878	0.36271	-0.053
Mof_C 	C 	0.81601	0.6979	0.38072	0.008
Mof_H 	H 	0.8043	0.6888	0.3815	0.038
Mof_C 	C 	0.82141	0.71063	0.39744	-0.097
Mof_H 	H 	0.8134	0.7103	0.41	0.065
Mof_C 	C 	0.83842	0.72377	0.39585	0.057
Mof_H 	H 	0.8418	0.7325	0.4074	0.002
Mof_C 	C 	0.88009	0.75126	0.42504	0.104
Mof_C 	C 	0.91707	0.7676	0.38864	0.06
Mof_H 	H 	0.9159	0.7573	0.3993	0
Mof_C 	C 	0.93473	0.77925	0.38786	-0.1
Mof_H 	H 	0.9459	0.7766	0.3973	0.068
Mof_C 	C 	0.93645	0.79519	0.37298	0.008
Mof_H 	H 	0.9486	0.8037	0.3722	0.038
Mof_C 	C 	0.91989	0.79822	0.35933	-0.052
Mof_C 	C 	0.90259	0.78496	0.36077	0.043
Mof_H 	H 	0.8914	0.7867	0.3511	0.01
Mof_C 	C 	0.92061	0.81433	0.34304	0.134
Mof_N 	N 	0.86413	0.66093	0.26527	-0.226
Mof_N 	N 	0.72646	0.60431	0.36377	-0.258
Mof_N 	N 	0.76681	0.62273	0.35067	-0.226
Mof_N 	N 	0.81052	0.6703	0.34636	-0.153
Mof_N 	N 	0.81961	0.6599	0.31193	-0.151
Mof_N 	N 	0.83523	0.6897	0.32715	-0.155
Mof_N 	N 	0.8504	0.72466	0.37861	-0.23
Mof_N 	N 	0.87722	0.74874	0.4075	-0.262
Mof_N 	N 	0.90114	0.77001	0.37506	-0.227
Mof_N 	N 	0.9056	0.81397	0.32863	-0.151
Mof_S 	S 	0.70888	0.57689	0.33475	-0.061
Mof_S 	S 	0.8843	0.75491	0.44984	-0.062
Mof_C 	C 	0.85084	0.16105	0.78122	0.041
Mof_H 	H 	0.844	0.1483	0.7846	0.011
Mof_C 	C 	0.84633	0.17845	0.79316	-0.051
Mof_C 	C 	0.856	0.19733	0.78806	0.009
Mof_H 	H 	0.8534	0.2096	0.796	0.037
Mof_C 	C 	0.86944	0.1976	0.77116	-0.099
Mof_H 	H 	0.8761	0.2102	0.7671	0.066
Mof_C 	C 	0.8731	0.17924	0.76015	0.059
Mof_H 	H 	0.8823	0.1796	0.7485	0
Mof_C 	C 	0.71879	0.09302	0.85172	0.096
Mof_C 	C 	0.76534	0.10863	0.83518	0.056
Mof_H 	H 	0.7553	0.0977	0.8364	-0.001
Mof_C 	C 	0.77795	0.10944	0.81736	-0.098
Mof_H 	H 	0.7769	0.0989	0.807	0.065
Mof_C 	C 	0.79177	0.12551	0.81499	0.009
Mof_H 	H 	0.8002	0.1265	0.8028	0.037
Mof_C 	C 	0.79333	0.14057	0.83094	-0.05
Mof_C 	C 	0.78065	0.13826	0.84831	0.039
Mof_H 	H 	0.7818	0.1483	0.8592	0.014
Mof_C 	C 	0.80847	0.15791	0.82962	0.134
Mof_C 	C 	0.8327	0.17619	0.81177	0.138
Mof_C 	C 	0.82422	0.18553	0.8443	0.14
Mof_C 	C 	0.84565	0.21242	0.86275	0.044
Mof_H 	H 	0.8544	0.2128	0.8507	0.009
Mof_C 	C 	0.82836	0.19878	0.86271	-0.053
Mof_C 	C 	0.81601	0.1979	0.88072	0.008
Mof_H 	H 	0.8043	0.1888	0.8815	0.038
Mof_C 	C 	0.82141	0.21063	0.89744	-0.097
Mof_H 	H 	0.8134	0.2103	0.91	0.065
Mof_C 	C 	0.83842	0.22377	0.89585	0.057
Mof_H 	H 	0.8418	0.2325	0.9074	0.002
Mof_C 	C 	0.88009	0.25126	0.92504	0.104
Mof_C 	C 	0.91707	0.2676	0.88864	0.06
Mof_H 	H 	0.9159	0.2573	0.8993	0
Mof_C 	C 	0.93473	0.27925	0.88786	-0.1
Mof_H 	H 	0.9459	0.2766	0.8973	0.068
Mof_C 	C 	0.93645	0.29519	0.87298	0.008
Mof_H 	H 	0.9486	0.3037	0.8722	0.038
Mof_C 	C 	0.91989	0.29822	0.85933	-0.052
Mof_C 	C 	0.90259	0.28496	0.86077	0.043
Mof_H 	H 	0.8914	0.2867	0.8511	0.01
Mof_C 	C 	0.92061	0.31433	0.84304	0.134
Mof_N 	N 	0.86413	0.16093	0.76527	-0.226
Mof_N 	N 	0.72646	0.10431	0.86377	-0.258
Mof_N 	N 	0.76681	0.12273	0.85067	-0.226
Mof_N 	N 	0.81052	0.1703	0.84636	-0.153
Mof_N 	N 	0.81961	0.1599	0.81193	-0.151
Mof_N 	N 	0.83523	0.1897	0.82715	-0.155
Mof_N 	N 	0.8504	0.22466	0.87861	-0.23
Mof_N 	N 	0.87722	0.24874	0.9075	-0.262
Mof_N 	N 	0.90114	0.27001	0.87506	-0.227
Mof_N 	N 	0.9056	0.31397	0.82863	-0.151
Mof_S 	S 	0.70888	0.07689	0.83475	-0.061
Mof_S 	S 	0.8843	0.25491	0.94984	-0.062
Mof_C 	C 	0.35084	0.66105	0.78122	0.041
Mof_H 	H 	0.344	0.6483	0.7846	0.011
Mof_C 	C 	0.34633	0.67845	0.79316	-0.051
Mof_C 	C 	0.356	0.69733	0.78806	0.009
Mof_H 	H 	0.3534	0.7096	0.796	0.037
Mof_C 	C 	0.36944	0.6976	0.77116	-0.099
Mof_H 	H 	0.3761	0.7102	0.7671	0.066
Mof_C 	C 	0.3731	0.67924	0.76015	0.059
Mof_H 	H 	0.3823	0.6796	0.7485	0
Mof_C 	C 	0.21879	0.59302	0.85172	0.096
Mof_C 	C 	0.26534	0.60863	0.83518	0.056
Mof_H 	H 	0.2553	0.5977	0.8364	-0.001
Mof_C 	C 	0.27795	0.60944	0.81736	-0.098
Mof_H 	H 	0.2769	0.5989	0.807	0.065
Mof_C 	C 	0.29177	0.62551	0.81499	0.009
Mof_H 	H 	0.3002	0.6265	0.8028	0.037
Mof_C 	C 	0.29333	0.64057	0.83094	-0.05
Mof_C 	C 	0.28065	0.63826	0.84831	0.039
Mof_H 	H 	0.2818	0.6483	0.8592	0.014
Mof_C 	C 	0.30847	0.65791	0.82962	0.134
Mof_C 	C 	0.3327	0.67619	0.81177	0.138
Mof_C 	C 	0.32422	0.68553	0.8443	0.14
Mof_C 	C 	0.34565	0.71242	0.86275	0.044
Mof_H 	H 	0.3544	0.7128	0.8507	0.009
Mof_C 	C 	0.32836	0.69878	0.86271	-0.053
Mof_C 	C 	0.31601	0.6979	0.88072	0.008
Mof_H 	H 	0.3043	0.6888	0.8815	0.038
Mof_C 	C 	0.32141	0.71063	0.89744	-0.097
Mof_H 	H 	0.3134	0.7103	0.91	0.065
Mof_C 	C 	0.33842	0.72377	0.89585	0.057
Mof_H 	H 	0.3418	0.7325	0.9074	0.002
Mof_C 	C 	0.38009	0.75126	0.92504	0.104
Mof_C 	C 	0.41707	0.7676	0.88864	0.06
Mof_H 	H 	0.4159	0.7573	0.8993	0
Mof_C 	C 	0.43473	0.77925	0.88786	-0.1
Mof_H 	H 	0.4459	0.7766	0.8973	0.068
Mof_C 	C 	0.43645	0.79519	0.87298	0.008
Mof_H 	H 	0.4486	0.8037	0.8722	0.038
Mof_C 	C 	0.41989	0.79822	0.85933	-0.052
Mof_C 	C 	0.40259	0.78496	0.86077	0.043
Mof_H 	H 	0.3914	0.7867	0.8511	0.01
Mof_C 	C 	0.42061	0.81433	0.84304	0.134
Mof_N 	N 	0.36413	0.66093	0.76527	-0.226
Mof_N 	N 	0.22646	0.60431	0.86377	-0.258
Mof_N 	N 	0.26681	0.62273	0.85067	-0.226
Mof_N 	N 	0.31052	0.6703	0.84636	-0.153
Mof_N 	N 	0.31961	0.6599	0.81193	-0.151
Mof_N 	N 	0.33523	0.6897	0.82715	-0.155
Mof_N 	N 	0.3504	0.72466	0.87861	-0.23
Mof_N 	N 	0.37722	0.74874	0.9075	-0.262
Mof_N 	N 	0.40114	0.77001	0.87506	-0.227
Mof_N 	N 	0.4056	0.81397	0.82863	-0.151
Mof_S 	S 	0.20888	0.57689	0.83475	-0.061
Mof_S 	S 	0.3843	0.75491	0.94984	-0.062
Mof_C 	C 	0.35084	0.16105	0.28122	0.041
Mof_H 	H 	0.344	0.1483	0.2846	0.011
Mof_C 	C 	0.34633	0.17845	0.29316	-0.051
Mof_C 	C 	0.356	0.19733	0.28806	0.009
Mof_H 	H 	0.3534	0.2096	0.296	0.037
Mof_C 	C 	0.36944	0.1976	0.27116	-0.099
Mof_H 	H 	0.3761	0.2102	0.2671	0.066
Mof_C 	C 	0.3731	0.17924	0.26015	0.059
Mof_H 	H 	0.3823	0.1796	0.2485	0
Mof_C 	C 	0.21879	0.09302	0.35172	0.096
Mof_C 	C 	0.26534	0.10863	0.33518	0.056
Mof_H 	H 	0.2553	0.0977	0.3364	-0.001
Mof_C 	C 	0.27795	0.10944	0.31736	-0.098
Mof_H 	H 	0.2769	0.0989	0.307	0.065
Mof_C 	C 	0.29177	0.12551	0.31499	0.009
Mof_H 	H 	0.3002	0.1265	0.3028	0.037
Mof_C 	C 	0.29333	0.14057	0.33094	-0.05
Mof_C 	C 	0.28065	0.13826	0.34831	0.039
Mof_H 	H 	0.2818	0.1483	0.3592	0.014
Mof_C 	C 	0.30847	0.15791	0.32962	0.134
Mof_C 	C 	0.3327	0.17619	0.31177	0.138
Mof_C 	C 	0.32422	0.18553	0.3443	0.14
Mof_C 	C 	0.34565	0.21242	0.36275	0.044
Mof_H 	H 	0.3544	0.2128	0.3507	0.009
Mof_C 	C 	0.32836	0.19878	0.36271	-0.053
Mof_C 	C 	0.31601	0.1979	0.38072	0.008
Mof_H 	H 	0.3043	0.1888	0.3815	0.038
Mof_C 	C 	0.32141	0.21063	0.39744	-0.097
Mof_H 	H 	0.3134	0.2103	0.41	0.065
Mof_C 	C 	0.33842	0.22377	0.39585	0.057
Mof_H 	H 	0.3418	0.2325	0.4074	0.002
Mof_C 	C 	0.38009	0.25126	0.42504	0.104
Mof_C 	C 	0.41707	0.2676	0.38864	0.06
Mof_H 	H 	0.4159	0.2573	0.3993	0
Mof_C 	C 	0.43473	0.27925	0.38786	-0.1
Mof_H 	H 	0.4459	0.2766	0.3973	0.068
Mof_C 	C 	0.43645	0.29519	0.37298	0.008
Mof_H 	H 	0.4486	0.3037	0.3722	0.038
Mof_C 	C 	0.41989	0.29822	0.35933	-0.052
Mof_C 	C 	0.40259	0.28496	0.36077	0.043
Mof_H 	H 	0.3914	0.2867	0.3511	0.01
Mof_C 	C 	0.42061	0.31433	0.34304	0.134
Mof_N 	N 	0.36413	0.16093	0.26527	-0.226
Mof_N 	N 	0.22646	0.10431	0.36377	-0.258
Mof_N 	N 	0.26681	0.12273	0.35067	-0.226
Mof_N 	N 	0.31052	0.1703	0.34636	-0.153
Mof_N 	N 	0.31961	0.1599	0.31193	-0.151
Mof_N 	N 	0.33523	0.1897	0.32715	-0.155
Mof_N 	N 	0.3504	0.22466	0.37861	-0.23
Mof_N 	N 	0.37722	0.24874	0.4075	-0.262
Mof_N 	N 	0.40114	0.27001	0.37506	-0.227
Mof_N 	N 	0.4056	0.31397	0.32863	-0.151
Mof_S 	S 	0.20888	0.07689	0.33475	-0.061
Mof_S 	S 	0.3843	0.25491	0.44984	-0.062
Mof_C 	C 	0.35084	0.08895	0.96878	0.041
Mof_H 	H 	0.344	0.1017	0.9654	0.011
Mof_C 	C 	0.34633	0.07155	0.95684	-0.051
Mof_C 	C 	0.356	0.05267	0.96194	0.009
Mof_H 	H 	0.3534	0.0404	0.954	0.037
Mof_C 	C 	0.36944	0.0524	0.97884	-0.099
Mof_H 	H 	0.3761	0.0398	0.9829	0.066
Mof_C 	C 	0.3731	0.07076	0.98985	0.059
Mof_H 	H 	0.3823	0.0704	0.0015	0
Mof_C 	C 	0.21879	0.15698	0.89828	0.096
Mof_C 	C 	0.26534	0.14137	0.91482	0.056
Mof_H 	H 	0.2553	0.1523	0.9136	-0.001
Mof_C 	C 	0.27795	0.14056	0.93264	-0.098
Mof_H 	H 	0.2769	0.1511	0.943	0.065
Mof_C 	C 	0.29177	0.12449	0.93501	0.009
Mof_H 	H 	0.3002	0.1235	0.9472	0.037
Mof_C 	C 	0.29333	0.10943	0.91906	-0.05
Mof_C 	C 	0.28065	0.11174	0.90169	0.039
Mof_H 	H 	0.2818	0.1017	0.8908	0.014
Mof_C 	C 	0.30847	0.09209	0.92038	0.134
Mof_C 	C 	0.3327	0.07381	0.93823	0.138
Mof_C 	C 	0.32422	0.06447	0.9057	0.14
Mof_C 	C 	0.34565	0.03758	0.88725	0.044
Mof_H 	H 	0.3544	0.0372	0.8993	0.009
Mof_C 	C 	0.32836	0.05122	0.88729	-0.053
Mof_C 	C 	0.31601	0.0521	0.86928	0.008
Mof_H 	H 	0.3043	0.0612	0.8685	0.038
Mof_C 	C 	0.32141	0.03937	0.85256	-0.097
Mof_H 	H 	0.3134	0.0397	0.84	0.065
Mof_C 	C 	0.33842	0.02623	0.85415	0.057
Mof_H 	H 	0.3418	0.0175	0.8426	0.002
Mof_C 	C 	0.38009	0.99874	0.82496	0.104
Mof_C 	C 	0.41707	0.9824	0.86136	0.06
Mof_H 	H 	0.4159	0.9927	0.8507	0
Mof_C 	C 	0.43473	0.97075	0.86214	-0.1
Mof_H 	H 	0.4459	0.9734	0.8527	0.068
Mof_C 	C 	0.43645	0.95481	0.87702	0.008
Mof_H 	H 	0.4486	0.9463	0.8778	0.038
Mof_C 	C 	0.41989	0.95178	0.89067	-0.052
Mof_C 	C 	0.40259	0.96504	0.88923	0.043
Mof_H 	H 	0.3914	0.9633	0.8989	0.01
Mof_C 	C 	0.42061	0.93567	0.90696	0.134
Mof_N 	N 	0.36413	0.08907	0.98473	-0.226
Mof_N 	N 	0.22646	0.14569	0.88623	-0.258
Mof_N 	N 	0.26681	0.12727	0.89933	-0.226
Mof_N 	N 	0.31052	0.0797	0.90364	-0.153
Mof_N 	N 	0.31961	0.0901	0.93807	-0.151
Mof_N 	N 	0.33523	0.0603	0.92285	-0.155
Mof_N 	N 	0.3504	0.02534	0.87139	-0.23
Mof_N 	N 	0.37722	0.00126	0.8425	-0.262
Mof_N 	N 	0.40114	0.97999	0.87494	-0.227
Mof_N 	N 	0.4056	0.93603	0.92137	-0.151
Mof_S 	S 	0.20888	0.17311	0.91525	-0.061
Mof_S 	S 	0.3843	0.99509	0.80016	-0.062
Mof_C 	C 	0.35084	0.58895	0.46878	0.041
Mof_H 	H 	0.344	0.6017	0.4654	0.011
Mof_C 	C 	0.34633	0.57155	0.45684	-0.051
Mof_C 	C 	0.356	0.55267	0.46194	0.009
Mof_H 	H 	0.3534	0.5404	0.454	0.037
Mof_C 	C 	0.36944	0.5524	0.47884	-0.099
Mof_H 	H 	0.3761	0.5398	0.4829	0.066
Mof_C 	C 	0.3731	0.57076	0.48985	0.059
Mof_H 	H 	0.3823	0.5704	0.5015	0
Mof_C 	C 	0.21879	0.65698	0.39828	0.096
Mof_C 	C 	0.26534	0.64137	0.41482	0.056
Mof_H 	H 	0.2553	0.6523	0.4136	-0.001
Mof_C 	C 	0.27795	0.64056	0.43264	-0.098
Mof_H 	H 	0.2769	0.6511	0.443	0.065
Mof_C 	C 	0.29177	0.62449	0.43501	0.009
Mof_H 	H 	0.3002	0.6235	0.4472	0.037
Mof_C 	C 	0.29333	0.60943	0.41906	-0.05
Mof_C 	C 	0.28065	0.61174	0.40169	0.039
Mof_H 	H 	0.2818	0.6017	0.3908	0.014
Mof_C 	C 	0.30847	0.59209	0.42038	0.134
Mof_C 	C 	0.3327	0.57381	0.43823	0.138
Mof_C 	C 	0.32422	0.56447	0.4057	0.14
Mof_C 	C 	0.34565	0.53758	0.38725	0.044
Mof_H 	H 	0.3544	0.5372	0.3993	0.009
Mof_C 	C 	0.32836	0.55122	0.38729	-0.053
Mof_C 	C 	0.31601	0.5521	0.36928	0.008
Mof_H 	H 	0.3043	0.5612	0.3685	0.038
Mof_C 	C 	0.32141	0.53937	0.35256	-0.097
Mof_H 	H 	0.3134	0.5397	0.34	0.065
Mof_C 	C 	0.33842	0.52623	0.35415	0.057
Mof_H 	H 	0.3418	0.5175	0.3426	0.002
Mof_C 	C 	0.38009	0.49874	0.32496	0.104
Mof_C 	C 	0.41707	0.4824	0.36136	0.06
Mof_H 	H 	0.4159	0.4927	0.3507	0
Mof_C 	C 	0.43473	0.47075	0.36214	-0.1
Mof_H 	H 	0.4459	0.4734	0.3527	0.068
Mof_C 	C 	0.43645	0.45481	0.37702	0.008
Mof_H 	H 	0.4486	0.4463	0.3778	0.038
Mof_C 	C 	0.41989	0.45178	0.39067	-0.052
Mof_C 	C 	0.40259	0.46504	0.38923	0.043
Mof_H 	H 	0.3914	0.4633	0.3989	0.01
Mof_C 	C 	0.42061	0.43567	0.40696	0.134
Mof_N 	N 	0.36413	0.58907	0.48473	-0.226
Mof_N 	N 	0.22646	0.64569	0.38623	-0.258
Mof_N 	N 	0.26681	0.62727	0.39933	-0.226
Mof_N 	N 	0.31052	0.5797	0.40364	-0.153
Mof_N 	N 	0.31961	0.5901	0.43807	-0.151
Mof_N 	N 	0.33523	0.5603	0.42285	-0.155
Mof_N 	N 	0.3504	0.52534	0.37139	-0.23
Mof_N 	N 	0.37722	0.50126	0.3425	-0.262
Mof_N 	N 	0.40114	0.47999	0.37494	-0.227
Mof_N 	N 	0.4056	0.43603	0.42137	-0.151
Mof_S 	S 	0.20888	0.67311	0.41525	-0.061
Mof_S 	S 	0.3843	0.49509	0.30016	-0.062
Mof_C 	C 	0.85084	0.08895	0.46878	0.041
Mof_H 	H 	0.844	0.1017	0.4654	0.011
Mof_C 	C 	0.84633	0.07155	0.45684	-0.051
Mof_C 	C 	0.856	0.05267	0.46194	0.009
Mof_H 	H 	0.8534	0.0404	0.454	0.037
Mof_C 	C 	0.86944	0.0524	0.47884	-0.099
Mof_H 	H 	0.8761	0.0398	0.4829	0.066
Mof_C 	C 	0.8731	0.07076	0.48985	0.059
Mof_H 	H 	0.8823	0.0704	0.5015	0
Mof_C 	C 	0.71879	0.15698	0.39828	0.096
Mof_C 	C 	0.76534	0.14137	0.41482	0.056
Mof_H 	H 	0.7553	0.1523	0.4136	-0.001
Mof_C 	C 	0.77795	0.14056	0.43264	-0.098
Mof_H 	H 	0.7769	0.1511	0.443	0.065
Mof_C 	C 	0.79177	0.12449	0.43501	0.009
Mof_H 	H 	0.8002	0.1235	0.4472	0.037
Mof_C 	C 	0.79333	0.10943	0.41906	-0.05
Mof_C 	C 	0.78065	0.11174	0.40169	0.039
Mof_H 	H 	0.7818	0.1017	0.3908	0.014
Mof_C 	C 	0.80847	0.09209	0.42038	0.134
Mof_C 	C 	0.8327	0.07381	0.43823	0.138
Mof_C 	C 	0.82422	0.06447	0.4057	0.14
Mof_C 	C 	0.84565	0.03758	0.38725	0.044
Mof_H 	H 	0.8544	0.0372	0.3993	0.009
Mof_C 	C 	0.82836	0.05122	0.38729	-0.053
Mof_C 	C 	0.81601	0.0521	0.36928	0.008
Mof_H 	H 	0.8043	0.0612	0.3685	0.038
Mof_C 	C 	0.82141	0.03937	0.35256	-0.097
Mof_H 	H 	0.8134	0.0397	0.34	0.065
Mof_C 	C 	0.83842	0.02623	0.35415	0.057
Mof_H 	H 	0.8418	0.0175	0.3426	0.002
Mof_C 	C 	0.88009	0.99874	0.32496	0.104
Mof_C 	C 	0.91707	0.9824	0.36136	0.06
Mof_H 	H 	0.9159	0.9927	0.3507	0
Mof_C 	C 	0.93473	0.97075	0.36214	-0.1
Mof_H 	H 	0.9459	0.9734	0.3527	0.068
Mof_C 	C 	0.93645	0.95481	0.37702	0.008
Mof_H 	H 	0.9486	0.9463	0.3778	0.038
Mof_C 	C 	0.91989	0.95178	0.39067	-0.052
Mof_C 	C 	0.90259	0.96504	0.38923	0.043
Mof_H 	H 	0.8914	0.9633	0.3989	0.01
Mof_C 	C 	0.92061	0.93567	0.40696	0.134
Mof_N 	N 	0.86413	0.08907	0.48473	-0.226
Mof_N 	N 	0.72646	0.14569	0.38623	-0.258
Mof_N 	N 	0.76681	0.12727	0.39933	-0.226
Mof_N 	N 	0.81052	0.0797	0.40364	-0.153
Mof_N 	N 	0.81961	0.0901	0.43807	-0.151
Mof_N 	N 	0.83523	0.0603	0.42285	-0.155
Mof_N 	N 	0.8504	0.02534	0.37139	-0.23
Mof_N 	N 	0.87722	0.00126	0.3425	-0.262
Mof_N 	N 	0.90114	0.97999	0.37494	-0.227
Mof_N 	N 	0.9056	0.93603	0.42137	-0.151
Mof_S 	S 	0.70888	0.17311	0.41525	-0.061
Mof_S 	S 	0.8843	0.99509	0.30016	-0.062
Mof_C 	C 	0.85084	0.58895	0.96878	0.041
Mof_H 	H 	0.844	0.6017	0.9654	0.011
Mof_C 	C 	0.84633	0.57155	0.95684	-0.051
Mof_C 	C 	0.856	0.55267	0.96194	0.009
Mof_H 	H 	0.8534	0.5404	0.954	0.037
Mof_C 	C 	0.86944	0.5524	0.97884	-0.099
Mof_H 	H 	0.8761	0.5398	0.9829	0.066
Mof_C 	C 	0.8731	0.57076	0.98985	0.059
Mof_H 	H 	0.8823	0.5704	0.0015	0
Mof_C 	C 	0.71879	0.65698	0.89828	0.096
Mof_C 	C 	0.76534	0.64137	0.91482	0.056
Mof_H 	H 	0.7553	0.6523	0.9136	-0.001
Mof_C 	C 	0.77795	0.64056	0.93264	-0.098
Mof_H 	H 	0.7769	0.6511	0.943	0.065
Mof_C 	C 	0.79177	0.62449	0.93501	0.009
Mof_H 	H 	0.8002	0.6235	0.9472	0.037
Mof_C 	C 	0.79333	0.60943	0.91906	-0.05
Mof_C 	C 	0.78065	0.61174	0.90169	0.039
Mof_H 	H 	0.7818	0.6017	0.8908	0.014
Mof_C 	C 	0.80847	0.59209	0.92038	0.134
Mof_C 	C 	0.8327	0.57381	0.93823	0.138
Mof_C 	C 	0.82422	0.56447	0.9057	0.14
Mof_C 	C 	0.84565	0.53758	0.88725	0.044
Mof_H 	H 	0.8544	0.5372	0.8993	0.009
Mof_C 	C 	0.82836	0.55122	0.88729	-0.053
Mof_C 	C 	0.81601	0.5521	0.86928	0.008
Mof_H 	H 	0.8043	0.5612	0.8685	0.038
Mof_C 	C 	0.82141	0.53937	0.85256	-0.097
Mof_H 	H 	0.8134	0.5397	0.84	0.065
Mof_C 	C 	0.83842	0.52623	0.85415	0.057
Mof_H 	H 	0.8418	0.5175	0.8426	0.002
Mof_C 	C 	0.88009	0.49874	0.82496	0.104
Mof_C 	C 	0.91707	0.4824	0.86136	0.06
Mof_H 	H 	0.9159	0.4927	0.8507	0
Mof_C 	C 	0.93473	0.47075	0.86214	-0.1
Mof_H 	H 	0.9459	0.4734	0.8527	0.068
Mof_C 	C 	0.93645	0.45481	0.87702	0.008
Mof_H 	H 	0.9486	0.4463	0.8778	0.038
Mof_C 	C 	0.91989	0.45178	0.89067	-0.052
Mof_C 	C 	0.90259	0.46504	0.88923	0.043
Mof_H 	H 	0.8914	0.4633	0.8989	0.01
Mof_C 	C 	0.92061	0.43567	0.90696	0.134
Mof_N 	N 	0.86413	0.58907	0.98473	-0.226
Mof_N 	N 	0.72646	0.64569	0.88623	-0.258
Mof_N 	N 	0.76681	0.62727	0.89933	-0.226
Mof_N 	N 	0.81052	0.5797	0.90364	-0.153
Mof_N 	N 	0.81961	0.5901	0.93807	-0.151
Mof_N 	N 	0.83523	0.5603	0.92285	-0.155
Mof_N 	N 	0.8504	0.52534	0.87139	-0.23
Mof_N 	N 	0.87722	0.50126	0.8425	-0.262
Mof_N 	N 	0.90114	0.47999	0.87494	-0.227
Mof_N 	N 	0.9056	0.43603	0.92137	-0.151
Mof_S 	S 	0.70888	0.67311	0.91525	-0.061
Mof_S 	S 	0.8843	0.49509	0.80016	-0.062
Mof_C 	C 	0.78122	0.89916	0.58895	0.041
Mof_H 	H 	0.7846	0.906	0.6017	0.011
Mof_C 	C 	0.79316	0.90367	0.57155	-0.051
Mof_C 	C 	0.78806	0.894	0.55267	0.009
Mof_H 	H 	0.796	0.8966	0.5404	0.037
Mof_C 	C 	0.77116	0.88056	0.5524	-0.099
Mof_H 	H 	0.7671	0.8739	0.5398	0.066
Mof_C 	C 	0.76015	0.8769	0.57076	0.059
Mof_H 	H 	0.7485	0.8677	0.5704	0
Mof_C 	C 	0.85172	0.03121	0.65698	0.096
Mof_C 	C 	0.83518	0.98466	0.64137	0.056
Mof_H 	H 	0.8364	0.9947	0.6523	-0.001
Mof_C 	C 	0.81736	0.97205	0.64056	-0.098
Mof_H 	H 	0.807	0.9731	0.6511	0.065
Mof_C 	C 	0.81499	0.95823	0.62449	0.009
Mof_H 	H 	0.8028	0.9498	0.6235	0.037
Mof_C 	C 	0.83094	0.95667	0.60943	-0.05
Mof_C 	C 	0.84831	0.96935	0.61174	0.039
Mof_H 	H 	0.8592	0.9682	0.6017	0.014
Mof_C 	C 	0.82962	0.94153	0.59209	0.134
Mof_C 	C 	0.81177	0.9173	0.57381	0.138
Mof_C 	C 	0.8443	0.92578	0.56447	0.14
Mof_C 	C 	0.86275	0.90435	0.53758	0.044
Mof_H 	H 	0.8507	0.8956	0.5372	0.009
Mof_C 	C 	0.86271	0.92164	0.55122	-0.053
Mof_C 	C 	0.88072	0.93399	0.5521	0.008
Mof_H 	H 	0.8815	0.9457	0.5612	0.038
Mof_C 	C 	0.89744	0.92859	0.53937	-0.097
Mof_H 	H 	0.91	0.9366	0.5397	0.065
Mof_C 	C 	0.89585	0.91158	0.52623	0.057
Mof_H 	H 	0.9074	0.9082	0.5175	0.002
Mof_C 	C 	0.92504	0.86991	0.49874	0.104
Mof_C 	C 	0.88864	0.83293	0.4824	0.06
Mof_H 	H 	0.8993	0.8341	0.4927	0
Mof_C 	C 	0.88786	0.81527	0.47075	-0.1
Mof_H 	H 	0.8973	0.8041	0.4734	0.068
Mof_C 	C 	0.87298	0.81355	0.45481	0.008
Mof_H 	H 	0.8722	0.8014	0.4463	0.038
Mof_C 	C 	0.85933	0.83011	0.45178	-0.052
Mof_C 	C 	0.86077	0.84741	0.46504	0.043
Mof_H 	H 	0.8511	0.8586	0.4633	0.01
Mof_C 	C 	0.84304	0.82939	0.43567	0.134
Mof_N 	N 	0.76527	0.88587	0.58907	-0.226
Mof_N 	N 	0.86377	0.02354	0.64569	-0.258
Mof_N 	N 	0.85067	0.98319	0.62727	-0.226
Mof_N 	N 	0.84636	0.93948	0.5797	-0.153
Mof_N 	N 	0.81193	0.93039	0.5901	-0.151
Mof_N 	N 	0.82715	0.91477	0.5603	-0.155
Mof_N 	N 	0.87861	0.8996	0.52534	-0.23
Mof_N 	N 	0.9075	0.87278	0.50126	-0.262
Mof_N 	N 	0.87506	0.84886	0.47999	-0.227
Mof_N 	N 	0.82863	0.8444	0.43603	-0.151
Mof_S 	S 	0.83475	0.04112	0.67311	-0.061
Mof_S 	S 	0.94984	0.8657	0.49509	-0.062
Mof_C 	C 	0.78122	0.39916	0.08895	0.041
Mof_H 	H 	0.7846	0.406	0.1017	0.011
Mof_C 	C 	0.79316	0.40367	0.07155	-0.051
Mof_C 	C 	0.78806	0.394	0.05267	0.009
Mof_H 	H 	0.796	0.3966	0.0404	0.037
Mof_C 	C 	0.77116	0.38056	0.0524	-0.099
Mof_H 	H 	0.7671	0.3739	0.0398	0.066
Mof_C 	C 	0.76015	0.3769	0.07076	0.059
Mof_H 	H 	0.7485	0.3677	0.0704	0
Mof_C 	C 	0.85172	0.53121	0.15698	0.096
Mof_C 	C 	0.83518	0.48466	0.14137	0.056
Mof_H 	H 	0.8364	0.4947	0.1523	-0.001
Mof_C 	C 	0.81736	0.47205	0.14056	-0.098
Mof_H 	H 	0.807	0.4731	0.1511	0.065
Mof_C 	C 	0.81499	0.45823	0.12449	0.009
Mof_H 	H 	0.8028	0.4498	0.1235	0.037
Mof_C 	C 	0.83094	0.45667	0.10943	-0.05
Mof_C 	C 	0.84831	0.46935	0.11174	0.039
Mof_H 	H 	0.8592	0.4682	0.1017	0.014
Mof_C 	C 	0.82962	0.44153	0.09209	0.134
Mof_C 	C 	0.81177	0.4173	0.07381	0.138
Mof_C 	C 	0.8443	0.42578	0.06447	0.14
Mof_C 	C 	0.86275	0.40435	0.03758	0.044
Mof_H 	H 	0.8507	0.3956	0.0372	0.009
Mof_C 	C 	0.86271	0.42164	0.05122	-0.053
Mof_C 	C 	0.88072	0.43399	0.0521	0.008
Mof_H 	H 	0.8815	0.4457	0.0612	0.038
Mof_C 	C 	0.89744	0.42859	0.03937	-0.097
Mof_H 	H 	0.91	0.4366	0.0397	0.065
Mof_C 	C 	0.89585	0.41158	0.02623	0.057
Mof_H 	H 	0.9074	0.4082	0.0175	0.002
Mof_C 	C 	0.92504	0.36991	0.99874	0.104
Mof_C 	C 	0.88864	0.33293	0.9824	0.06
Mof_H 	H 	0.8993	0.3341	0.9927	0
Mof_C 	C 	0.88786	0.31527	0.97075	-0.1
Mof_H 	H 	0.8973	0.3041	0.9734	0.068
Mof_C 	C 	0.87298	0.31355	0.95481	0.008
Mof_H 	H 	0.8722	0.3014	0.9463	0.038
Mof_C 	C 	0.85933	0.33011	0.95178	-0.052
Mof_C 	C 	0.86077	0.34741	0.96504	0.043
Mof_H 	H 	0.8511	0.3586	0.9633	0.01
Mof_C 	C 	0.84304	0.32939	0.93567	0.134
Mof_N 	N 	0.76527	0.38587	0.08907	-0.226
Mof_N 	N 	0.86377	0.52354	0.14569	-0.258
Mof_N 	N 	0.85067	0.48319	0.12727	-0.226
Mof_N 	N 	0.84636	0.43948	0.0797	-0.153
Mof_N 	N 	0.81193	0.43039	0.0901	-0.151
Mof_N 	N 	0.82715	0.41477	0.0603	-0.155
Mof_N 	N 	0.87861	0.3996	0.02534	-0.23
Mof_N 	N 	0.9075	0.37278	0.00126	-0.262
Mof_N 	N 	0.87506	0.34886	0.97999	-0.227
Mof_N 	N 	0.82863	0.3444	0.93603	-0.151
Mof_S 	S 	0.83475	0.54112	0.17311	-0.061
Mof_S 	S 	0.94984	0.3657	0.99509	-0.062
Mof_C 	C 	0.28122	0.89916	0.08895	0.041
Mof_H 	H 	0.2846	0.906	0.1017	0.011
Mof_C 	C 	0.29316	0.90367	0.07155	-0.051
Mof_C 	C 	0.28806	0.894	0.05267	0.009
Mof_H 	H 	0.296	0.8966	0.0404	0.037
Mof_C 	C 	0.27116	0.88056	0.0524	-0.099
Mof_H 	H 	0.2671	0.8739	0.0398	0.066
Mof_C 	C 	0.26015	0.8769	0.07076	0.059
Mof_H 	H 	0.2485	0.8677	0.0704	0
Mof_C 	C 	0.35172	0.03121	0.15698	0.096
Mof_C 	C 	0.33518	0.98466	0.14137	0.056
Mof_H 	H 	0.3364	0.9947	0.1523	-0.001
Mof_C 	C 	0.31736	0.97205	0.14056	-0.098
Mof_H 	H 	0.307	0.9731	0.1511	0.065
Mof_C 	C 	0.31499	0.95823	0.12449	0.009
Mof_H 	H 	0.3028	0.9498	0.1235	0.037
Mof_C 	C 	0.33094	0.95667	0.10943	-0.05
Mof_C 	C 	0.34831	0.96935	0.11174	0.039
Mof_H 	H 	0.3592	0.9682	0.1017	0.014
Mof_C 	C 	0.32962	0.94153	0.09209	0.134
Mof_C 	C 	0.31177	0.9173	0.07381	0.138
Mof_C 	C 	0.3443	0.92578	0.06447	0.14
Mof_C 	C 	0.36275	0.90435	0.03758	0.044
Mof_H 	H 	0.3507	0.8956	0.0372	0.009
Mof_C 	C 	0.36271	0.92164	0.05122	-0.053
Mof_C 	C 	0.38072	0.93399	0.0521	0.008
Mof_H 	H 	0.3815	0.9457	0.0612	0.038
Mof_C 	C 	0.39744	0.92859	0.03937	-0.097
Mof_H 	H 	0.41	0.9366	0.0397	0.065
Mof_C 	C 	0.39585	0.91158	0.02623	0.057
Mof_H 	H 	0.4074	0.9082	0.0175	0.002
Mof_C 	C 	0.42504	0.86991	0.99874	0.104
Mof_C 	C 	0.38864	0.83293	0.9824	0.06
Mof_H 	H 	0.3993	0.8341	0.9927	0
Mof_C 	C 	0.38786	0.81527	0.97075	-0.1
Mof_H 	H 	0.3973	0.8041	0.9734	0.068
Mof_C 	C 	0.37298	0.81355	0.95481	0.008
Mof_H 	H 	0.3722	0.8014	0.9463	0.038
Mof_C 	C 	0.35933	0.83011	0.95178	-0.052
Mof_C 	C 	0.36077	0.84741	0.96504	0.043
Mof_H 	H 	0.3511	0.8586	0.9633	0.01
Mof_C 	C 	0.34304	0.82939	0.93567	0.134
Mof_N 	N 	0.26527	0.88587	0.08907	-0.226
Mof_N 	N 	0.36377	0.02354	0.14569	-0.258
Mof_N 	N 	0.35067	0.98319	0.12727	-0.226
Mof_N 	N 	0.34636	0.93948	0.0797	-0.153
Mof_N 	N 	0.31193	0.93039	0.0901	-0.151
Mof_N 	N 	0.32715	0.91477	0.0603	-0.155
Mof_N 	N 	0.37861	0.8996	0.02534	-0.23
Mof_N 	N 	0.4075	0.87278	0.00126	-0.262
Mof_N 	N 	0.37506	0.84886	0.97999	-0.227
Mof_N 	N 	0.32863	0.8444	0.93603	-0.151
Mof_S 	S 	0.33475	0.04112	0.17311	-0.061
Mof_S 	S 	0.44984	0.8657	0.99509	-0.062
Mof_C 	C 	0.28122	0.39916	0.58895	0.041
Mof_H 	H 	0.2846	0.406	0.6017	0.011
Mof_C 	C 	0.29316	0.40367	0.57155	-0.051
Mof_C 	C 	0.28806	0.394	0.55267	0.009
Mof_H 	H 	0.296	0.3966	0.5404	0.037
Mof_C 	C 	0.27116	0.38056	0.5524	-0.099
Mof_H 	H 	0.2671	0.3739	0.5398	0.066
Mof_C 	C 	0.26015	0.3769	0.57076	0.059
Mof_H 	H 	0.2485	0.3677	0.5704	0
Mof_C 	C 	0.35172	0.53121	0.65698	0.096
Mof_C 	C 	0.33518	0.48466	0.64137	0.056
Mof_H 	H 	0.3364	0.4947	0.6523	-0.001
Mof_C 	C 	0.31736	0.47205	0.64056	-0.098
Mof_H 	H 	0.307	0.4731	0.6511	0.065
Mof_C 	C 	0.31499	0.45823	0.62449	0.009
Mof_H 	H 	0.3028	0.4498	0.6235	0.037
Mof_C 	C 	0.33094	0.45667	0.60943	-0.05
Mof_C 	C 	0.34831	0.46935	0.61174	0.039
Mof_H 	H 	0.3592	0.4682	0.6017	0.014
Mof_C 	C 	0.32962	0.44153	0.59209	0.134
Mof_C 	C 	0.31177	0.4173	0.57381	0.138
Mof_C 	C 	0.3443	0.42578	0.56447	0.14
Mof_C 	C 	0.36275	0.40435	0.53758	0.044
Mof_H 	H 	0.3507	0.3956	0.5372	0.009
Mof_C 	C 	0.36271	0.42164	0.55122	-0.053
Mof_C 	C 	0.38072	0.43399	0.5521	0.008
Mof_H 	H 	0.3815	0.4457	0.5612	0.038
Mof_C 	C 	0.39744	0.42859	0.53937	-0.097
Mof_H 	H 	0.41	0.4366	0.5397	0.065
Mof_C 	C 	0.39585	0.41158	0.52623	0.057
Mof_H 	H 	0.4074	0.4082	0.5175	0.002
Mof_C 	C 	0.42504	0.36991	0.49874	0.104
Mof_C 	C 	0.38864	0.33293	0.4824	0.06
Mof_H 	H 	0.3993	0.3341	0.4927	0
Mof_C 	C 	0.38786	0.31527	0.47075	-0.1
Mof_H 	H 	0.3973	0.3041	0.4734	0.068
Mof_C 	C 	0.37298	0.31355	0.45481	0.008
Mof_H 	H 	0.3722	0.3014	0.4463	0.038
Mof_C 	C 	0.35933	0.33011	0.45178	-0.052
Mof_C 	C 	0.36077	0.34741	0.46504	0.043
Mof_H 	H 	0.3511	0.3586	0.4633	0.01
Mof_C 	C 	0.34304	0.32939	0.43567	0.134
Mof_N 	N 	0.26527	0.38587	0.58907	-0.226
Mof_N 	N 	0.36377	0.52354	0.64569	-0.258
Mof_N 	N 	0.35067	0.48319	0.62727	-0.226
Mof_N 	N 	0.34636	0.43948	0.5797	-0.153
Mof_N 	N 	0.31193	0.43039	0.5901	-0.151
Mof_N 	N 	0.32715	0.41477	0.5603	-0.155
Mof_N 	N 	0.37861	0.3996	0.52534	-0.23
Mof_N 	N 	0.4075	0.37278	0.50126	-0.262
Mof_N 	N 	0.37506	0.34886	0.47999	-0.227
Mof_N 	N 	0.32863	0.3444	0.43603	-0.151
Mof_S 	S 	0.33475	0.54112	0.67311	-0.061
Mof_S 	S 	0.44984	0.3657	0.49509	-0.062
Mof_C 	C 	0.46878	0.39916	0.16105	0.041
Mof_H 	H 	0.4654	0.406	0.1483	0.011
Mof_C 	C 	0.45684	0.40367	0.17845	-0.051
Mof_C 	C 	0.46194	0.394	0.19733	0.009
Mof_H 	H 	0.454	0.3966	0.2096	0.037
Mof_C 	C 	0.47884	0.38056	0.1976	-0.099
Mof_H 	H 	0.4829	0.3739	0.2102	0.066
Mof_C 	C 	0.48985	0.3769	0.17924	0.059
Mof_H 	H 	0.5015	0.3677	0.1796	0
Mof_C 	C 	0.39828	0.53121	0.09302	0.096
Mof_C 	C 	0.41482	0.48466	0.10863	0.056
Mof_H 	H 	0.4136	0.4947	0.0977	-0.001
Mof_C 	C 	0.43264	0.47205	0.10944	-0.098
Mof_H 	H 	0.443	0.4731	0.0989	0.065
Mof_C 	C 	0.43501	0.45823	0.12551	0.009
Mof_H 	H 	0.4472	0.4498	0.1265	0.037
Mof_C 	C 	0.41906	0.45667	0.14057	-0.05
Mof_C 	C 	0.40169	0.46935	0.13826	0.039
Mof_H 	H 	0.3908	0.4682	0.1483	0.014
Mof_C 	C 	0.42038	0.44153	0.15791	0.134
Mof_C 	C 	0.43823	0.4173	0.17619	0.138
Mof_C 	C 	0.4057	0.42578	0.18553	0.14
Mof_C 	C 	0.38725	0.40435	0.21242	0.044
Mof_H 	H 	0.3993	0.3956	0.2128	0.009
Mof_C 	C 	0.38729	0.42164	0.19878	-0.053
Mof_C 	C 	0.36928	0.43399	0.1979	0.008
Mof_H 	H 	0.3685	0.4457	0.1888	0.038
Mof_C 	C 	0.35256	0.42859	0.21063	-0.097
Mof_H 	H 	0.34	0.4366	0.2103	0.065
Mof_C 	C 	0.35415	0.41158	0.22377	0.057
Mof_H 	H 	0.3426	0.4082	0.2325	0.002
Mof_C 	C 	0.32496	0.36991	0.25126	0.104
Mof_C 	C 	0.36136	0.33293	0.2676	0.06
Mof_H 	H 	0.3507	0.3341	0.2573	0
Mof_C 	C 	0.36214	0.31527	0.27925	-0.1
Mof_H 	H 	0.3527	0.3041	0.2766	0.068
Mof_C 	C 	0.37702	0.31355	0.29519	0.008
Mof_H 	H 	0.3778	0.3014	0.3037	0.038
Mof_C 	C 	0.39067	0.33011	0.29822	-0.052
Mof_C 	C 	0.38923	0.34741	0.28496	0.043
Mof_H 	H 	0.3989	0.3586	0.2867	0.01
Mof_C 	C 	0.40696	0.32939	0.31433	0.134
Mof_N 	N 	0.48473	0.38587	0.16093	-0.226
Mof_N 	N 	0.38623	0.52354	0.10431	-0.258
Mof_N 	N 	0.39933	0.48319	0.12273	-0.226
Mof_N 	N 	0.40364	0.43948	0.1703	-0.153
Mof_N 	N 	0.43807	0.43039	0.1599	-0.151
Mof_N 	N 	0.42285	0.41477	0.1897	-0.155
Mof_N 	N 	0.37139	0.3996	0.22466	-0.23
Mof_N 	N 	0.3425	0.37278	0.24874	-0.262
Mof_N 	N 	0.37494	0.34886	0.27001	-0.227
Mof_N 	N 	0.42137	0.3444	0.31397	-0.151
Mof_S 	S 	0.41525	0.54112	0.07689	-0.061
Mof_S 	S 	0.30016	0.3657	0.25491	-0.062
Mof_C 	C 	0.46878	0.89916	0.66105	0.041
Mof_H 	H 	0.4654	0.906	0.6483	0.011
Mof_C 	C 	0.45684	0.90367	0.67845	-0.051
Mof_C 	C 	0.46194	0.894	0.69733	0.009
Mof_H 	H 	0.454	0.8966	0.7096	0.037
Mof_C 	C 	0.47884	0.88056	0.6976	-0.099
Mof_H 	H 	0.4829	0.8739	0.7102	0.066
Mof_C 	C 	0.48985	0.8769	0.67924	0.059
Mof_H 	H 	0.5015	0.8677	0.6796	0
Mof_C 	C 	0.39828	0.03121	0.59302	0.096
Mof_C 	C 	0.41482	0.98466	0.60863	0.056
Mof_H 	H 	0.4136	0.9947	0.5977	-0.001
Mof_C 	C 	0.43264	0.97205	0.60944	-0.098
Mof_H 	H 	0.443	0.9731	0.5989	0.065
Mof_C 	C 	0.43501	0.95823	0.62551	0.009
Mof_H 	H 	0.4472	0.9498	0.6265	0.037
Mof_C 	C 	0.41906	0.95667	0.64057	-0.05
Mof_C 	C 	0.40169	0.96935	0.63826	0.039
Mof_H 	H 	0.3908	0.9682	0.6483	0.014
Mof_C 	C 	0.42038	0.94153	0.65791	0.134
Mof_C 	C 	0.43823	0.9173	0.67619	0.138
Mof_C 	C 	0.4057	0.92578	0.68553	0.14
Mof_C 	C 	0.38725	0.90435	0.71242	0.044
Mof_H 	H 	0.3993	0.8956	0.7128	0.009
Mof_C 	C 	0.38729	0.92164	0.69878	-0.053
Mof_C 	C 	0.36928	0.93399	0.6979	0.008
Mof_H 	H 	0.3685	0.9457	0.6888	0.038
Mof_C 	C 	0.35256	0.92859	0.71063	-0.097
Mof_H 	H 	0.34	0.9366	0.7103	0.065
Mof_C 	C 	0.35415	0.91158	0.72377	0.057
Mof_H 	H 	0.3426	0.9082	0.7325	0.002
Mof_C 	C 	0.32496	0.86991	0.75126	0.104
Mof_C 	C 	0.36136	0.83293	0.7676	0.06
Mof_H 	H 	0.3507	0.8341	0.7573	0
Mof_C 	C 	0.36214	0.81527	0.77925	-0.1
Mof_H 	H 	0.3527	0.8041	0.7766	0.068
Mof_C 	C 	0.37702	0.81355	0.79519	0.008
Mof_H 	H 	0.3778	0.8014	0.8037	0.038
Mof_C 	C 	0.39067	0.83011	0.79822	-0.052
Mof_C 	C 	0.38923	0.84741	0.78496	0.043
Mof_H 	H 	0.3989	0.8586	0.7867	0.01
Mof_C 	C 	0.40696	0.82939	0.81433	0.134
Mof_N 	N 	0.48473	0.88587	0.66093	-0.226
Mof_N 	N 	0.38623	0.02354	0.60431	-0.258
Mof_N 	N 	0.39933	0.98319	0.62273	-0.226
Mof_N 	N 	0.40364	0.93948	0.6703	-0.153
Mof_N 	N 	0.43807	0.93039	0.6599	-0.151
Mof_N 	N 	0.42285	0.91477	0.6897	-0.155
Mof_N 	N 	0.37139	0.8996	0.72466	-0.23
Mof_N 	N 	0.3425	0.87278	0.74874	-0.262
Mof_N 	N 	0.37494	0.84886	0.77001	-0.227
Mof_N 	N 	0.42137	0.8444	0.81397	-0.151
Mof_S 	S 	0.41525	0.04112	0.57689	-0.061
Mof_S 	S 	0.30016	0.8657	0.75491	-0.062
Mof_C 	C 	0.96878	0.39916	0.66105	0.041
Mof_H 	H 	0.9654	0.406	0.6483	0.011
Mof_C 	C 	0.95684	0.40367	0.67845	-0.051
Mof_C 	C 	0.96194	0.394	0.69733	0.009
Mof_H 	H 	0.954	0.3966	0.7096	0.037
Mof_C 	C 	0.97884	0.38056	0.6976	-0.099
Mof_H 	H 	0.9829	0.3739	0.7102	0.066
Mof_C 	C 	0.98985	0.3769	0.67924	0.059
Mof_H 	H 	0.0015	0.3677	0.6796	0
Mof_C 	C 	0.89828	0.53121	0.59302	0.096
Mof_C 	C 	0.91482	0.48466	0.60863	0.056
Mof_H 	H 	0.9136	0.4947	0.5977	-0.001
Mof_C 	C 	0.93264	0.47205	0.60944	-0.098
Mof_H 	H 	0.943	0.4731	0.5989	0.065
Mof_C 	C 	0.93501	0.45823	0.62551	0.009
Mof_H 	H 	0.9472	0.4498	0.6265	0.037
Mof_C 	C 	0.91906	0.45667	0.64057	-0.05
Mof_C 	C 	0.90169	0.46935	0.63826	0.039
Mof_H 	H 	0.8908	0.4682	0.6483	0.014
Mof_C 	C 	0.92038	0.44153	0.65791	0.134
Mof_C 	C 	0.93823	0.4173	0.67619	0.138
Mof_C 	C 	0.9057	0.42578	0.68553	0.14
Mof_C 	C 	0.88725	0.40435	0.71242	0.044
Mof_H 	H 	0.8993	0.3956	0.7128	0.009
Mof_C 	C 	0.88729	0.42164	0.69878	-0.053
Mof_C 	C 	0.86928	0.43399	0.6979	0.008
Mof_H 	H 	0.8685	0.4457	0.6888	0.038
Mof_C 	C 	0.85256	0.42859	0.71063	-0.097
Mof_H 	H 	0.84	0.4366	0.7103	0.065
Mof_C 	C 	0.85415	0.41158	0.72377	0.057
Mof_H 	H 	0.8426	0.4082	0.7325	0.002
Mof_C 	C 	0.82496	0.36991	0.75126	0.104
Mof_C 	C 	0.86136	0.33293	0.7676	0.06
Mof_H 	H 	0.8507	0.3341	0.7573	0
Mof_C 	C 	0.86214	0.31527	0.77925	-0.1
Mof_H 	H 	0.8527	0.3041	0.7766	0.068
Mof_C 	C 	0.87702	0.31355	0.79519	0.008
Mof_H 	H 	0.8778	0.3014	0.8037	0.038
Mof_C 	C 	0.89067	0.33011	0.79822	-0.052
Mof_C 	C 	0.88923	0.34741	0.78496	0.043
Mof_H 	H 	0.8989	0.3586	0.7867	0.01
Mof_C 	C 	0.90696	0.32939	0.81433	0.134
Mof_N 	N 	0.98473	0.38587	0.66093	-0.226
Mof_N 	N 	0.88623	0.52354	0.60431	-0.258
Mof_N 	N 	0.89933	0.48319	0.62273	-0.226
Mof_N 	N 	0.90364	0.43948	0.6703	-0.153
Mof_N 	N 	0.93807	0.43039	0.6599	-0.151
Mof_N 	N 	0.92285	0.41477	0.6897	-0.155
Mof_N 	N 	0.87139	0.3996	0.72466	-0.23
Mof_N 	N 	0.8425	0.37278	0.74874	-0.262
Mof_N 	N 	0.87494	0.34886	0.77001	-0.227
Mof_N 	N 	0.92137	0.3444	0.81397	-0.151
Mof_S 	S 	0.91525	0.54112	0.57689	-0.061
Mof_S 	S 	0.80016	0.3657	0.75491	-0.062
Mof_C 	C 	0.96878	0.89916	0.16105	0.041
Mof_H 	H 	0.9654	0.906	0.1483	0.011
Mof_C 	C 	0.95684	0.90367	0.17845	-0.051
Mof_C 	C 	0.96194	0.894	0.19733	0.009
Mof_H 	H 	0.954	0.8966	0.2096	0.037
Mof_C 	C 	0.97884	0.88056	0.1976	-0.099
Mof_H 	H 	0.9829	0.8739	0.2102	0.066
Mof_C 	C 	0.98985	0.8769	0.17924	0.059
Mof_H 	H 	0.0015	0.8677	0.1796	0
Mof_C 	C 	0.89828	0.03121	0.09302	0.096
Mof_C 	C 	0.91482	0.98466	0.10863	0.056
Mof_H 	H 	0.9136	0.9947	0.0977	-0.001
Mof_C 	C 	0.93264	0.97205	0.10944	-0.098
Mof_H 	H 	0.943	0.9731	0.0989	0.065
Mof_C 	C 	0.93501	0.95823	0.12551	0.009
Mof_H 	H 	0.9472	0.9498	0.1265	0.037
Mof_C 	C 	0.91906	0.95667	0.14057	-0.05
Mof_C 	C 	0.90169	0.96935	0.13826	0.039
Mof_H 	H 	0.8908	0.9682	0.1483	0.014
Mof_C 	C 	0.92038	0.94153	0.15791	0.134
Mof_C 	C 	0.93823	0.9173	0.17619	0.138
Mof_C 	C 	0.9057	0.92578	0.18553	0.14
Mof_C 	C 	0.88725	0.90435	0.21242	0.044
Mof_H 	H 	0.8993	0.8956	0.2128	0.009
Mof_C 	C 	0.88729	0.92164	0.19878	-0.053
Mof_C 	C 	0.86928	0.93399	0.1979	0.008
Mof_H 	H 	0.8685	0.9457	0.1888	0.038
Mof_C 	C 	0.85256	0.92859	0.21063	-0.097
Mof_H 	H 	0.84	0.9366	0.2103	0.065
Mof_C 	C 	0.85415	0.91158	0.22377	0.057
Mof_H 	H 	0.8426	0.9082	0.2325	0.002
Mof_C 	C 	0.82496	0.86991	0.25126	0.104
Mof_C 	C 	0.86136	0.83293	0.2676	0.06
Mof_H 	H 	0.8507	0.8341	0.2573	0
Mof_C 	C 	0.86214	0.81527	0.27925	-0.1
Mof_H 	H 	0.8527	0.8041	0.2766	0.068
Mof_C 	C 	0.87702	0.81355	0.29519	0.008
Mof_H 	H 	0.8778	0.8014	0.3037	0.038
Mof_C 	C 	0.89067	0.83011	0.29822	-0.052
Mof_C 	C 	0.88923	0.84741	0.28496	0.043
Mof_H 	H 	0.8989	0.8586	0.2867	0.01
Mof_C 	C 	0.90696	0.82939	0.31433	0.134
Mof_N 	N 	0.98473	0.88587	0.16093	-0.226
Mof_N 	N 	0.88623	0.02354	0.10431	-0.258
Mof_N 	N 	0.89933	0.98319	0.12273	-0.226
Mof_N 	N 	0.90364	0.93948	0.1703	-0.153
Mof_N 	N 	0.93807	0.93039	0.1599	-0.151
Mof_N 	N 	0.92285	0.91477	0.1897	-0.155
Mof_N 	N 	0.87139	0.8996	0.22466	-0.23
Mof_N 	N 	0.8425	0.87278	0.24874	-0.262
Mof_N 	N 	0.87494	0.84886	0.27001	-0.227
Mof_N 	N 	0.92137	0.8444	0.31397	-0.151
Mof_S 	S 	0.91525	0.04112	0.07689	-0.061
Mof_S 	S 	0.80016	0.8657	0.25491	-0.062
Mof_C 	C 	0.28122	0.85084	0.66105	0.041
Mof_H 	H 	0.2846	0.844	0.6483	0.011
Mof_C 	C 	0.29316	0.84633	0.67845	-0.051
Mof_C 	C 	0.28806	0.856	0.69733	0.009
Mof_H 	H 	0.296	0.8534	0.7096	0.037
Mof_C 	C 	0.27116	0.86944	0.6976	-0.099
Mof_H 	H 	0.2671	0.8761	0.7102	0.066
Mof_C 	C 	0.26015	0.8731	0.67924	0.059
Mof_H 	H 	0.2485	0.8823	0.6796	0
Mof_C 	C 	0.35172	0.71879	0.59302	0.096
Mof_C 	C 	0.33518	0.76534	0.60863	0.056
Mof_H 	H 	0.3364	0.7553	0.5977	-0.001
Mof_C 	C 	0.31736	0.77795	0.60944	-0.098
Mof_H 	H 	0.307	0.7769	0.5989	0.065
Mof_C 	C 	0.31499	0.79177	0.62551	0.009
Mof_H 	H 	0.3028	0.8002	0.6265	0.037
Mof_C 	C 	0.33094	0.79333	0.64057	-0.05
Mof_C 	C 	0.34831	0.78065	0.63826	0.039
Mof_H 	H 	0.3592	0.7818	0.6483	0.014
Mof_C 	C 	0.32962	0.80847	0.65791	0.134
Mof_C 	C 	0.31177	0.8327	0.67619	0.138
Mof_C 	C 	0.3443	0.82422	0.68553	0.14
Mof_C 	C 	0.36275	0.84565	0.71242	0.044
Mof_H 	H 	0.3507	0.8544	0.7128	0.009
Mof_C 	C 	0.36271	0.82836	0.69878	-0.053
Mof_C 	C 	0.38072	0.81601	0.6979	0.008
Mof_H 	H 	0.3815	0.8043	0.6888	0.038
Mof_C 	C 	0.39744	0.82141	0.71063	-0.097
Mof_H 	H 	0.41	0.8134	0.7103	0.065
Mof_C 	C 	0.39585	0.83842	0.72377	0.057
Mof_H 	H 	0.4074	0.8418	0.7325	0.002
Mof_C 	C 	0.42504	0.88009	0.75126	0.104
Mof_C 	C 	0.38864	0.91707	0.7676	0.06
Mof_H 	H 	0.3993	0.9159	0.7573	0
Mof_C 	C 	0.38786	0.93473	0.77925	-0.1
Mof_H 	H 	0.3973	0.9459	0.7766	0.068
Mof_C 	C 	0.37298	0.93645	0.79519	0.008
Mof_H 	H 	0.3722	0.9486	0.8037	0.038
Mof_C 	C 	0.35933	0.91989	0.79822	-0.052
Mof_C 	C 	0.36077	0.90259	0.78496	0.043
Mof_H 	H 	0.3511	0.8914	0.7867	0.01
Mof_C 	C 	0.34304	0.92061	0.81433	0.134
Mof_N 	N 	0.26527	0.86413	0.66093	-0.226
Mof_N 	N 	0.36377	0.72646	0.60431	-0.258
Mof_N 	N 	0.35067	0.76681	0.62273	-0.226
Mof_N 	N 	0.34636	0.81052	0.6703	-0.153
Mof_N 	N 	0.31193	0.81961	0.6599	-0.151
Mof_N 	N 	0.32715	0.83523	0.6897	-0.155
Mof_N 	N 	0.37861	0.8504	0.72466	-0.23
Mof_N 	N 	0.4075	0.87722	0.74874	-0.262
Mof_N 	N 	0.37506	0.90114	0.77001	-0.227
Mof_N 	N 	0.32863	0.9056	0.81397	-0.151
Mof_S 	S 	0.33475	0.70888	0.57689	-0.061
Mof_S 	S 	0.44984	0.8843	0.75491	-0.062
Mof_C 	C 	0.28122	0.35084	0.16105	0.041
Mof_H 	H 	0.2846	0.344	0.1483	0.011
Mof_C 	C 	0.29316	0.34633	0.17845	-0.051
Mof_C 	C 	0.28806	0.356	0.19733	0.009
Mof_H 	H 	0.296	0.3534	0.2096	0.037
Mof_C 	C 	0.27116	0.36944	0.1976	-0.099
Mof_H 	H 	0.2671	0.3761	0.2102	0.066
Mof_C 	C 	0.26015	0.3731	0.17924	0.059
Mof_H 	H 	0.2485	0.3823	0.1796	0
Mof_C 	C 	0.35172	0.21879	0.09302	0.096
Mof_C 	C 	0.33518	0.26534	0.10863	0.056
Mof_H 	H 	0.3364	0.2553	0.0977	-0.001
Mof_C 	C 	0.31736	0.27795	0.10944	-0.098
Mof_H 	H 	0.307	0.2769	0.0989	0.065
Mof_C 	C 	0.31499	0.29177	0.12551	0.009
Mof_H 	H 	0.3028	0.3002	0.1265	0.037
Mof_C 	C 	0.33094	0.29333	0.14057	-0.05
Mof_C 	C 	0.34831	0.28065	0.13826	0.039
Mof_H 	H 	0.3592	0.2818	0.1483	0.014
Mof_C 	C 	0.32962	0.30847	0.15791	0.134
Mof_C 	C 	0.31177	0.3327	0.17619	0.138
Mof_C 	C 	0.3443	0.32422	0.18553	0.14
Mof_C 	C 	0.36275	0.34565	0.21242	0.044
Mof_H 	H 	0.3507	0.3544	0.2128	0.009
Mof_C 	C 	0.36271	0.32836	0.19878	-0.053
Mof_C 	C 	0.38072	0.31601	0.1979	0.008
Mof_H 	H 	0.3815	0.3043	0.1888	0.038
Mof_C 	C 	0.39744	0.32141	0.21063	-0.097
Mof_H 	H 	0.41	0.3134	0.2103	0.065
Mof_C 	C 	0.39585	0.33842	0.22377	0.057
Mof_H 	H 	0.4074	0.3418	0.2325	0.002
Mof_C 	C 	0.42504	0.38009	0.25126	0.104
Mof_C 	C 	0.38864	0.41707	0.2676	0.06
Mof_H 	H 	0.3993	0.4159	0.2573	0
Mof_C 	C 	0.38786	0.43473	0.27925	-0.1
Mof_H 	H 	0.3973	0.4459	0.2766	0.068
Mof_C 	C 	0.37298	0.43645	0.29519	0.008
Mof_H 	H 	0.3722	0.4486	0.3037	0.038
Mof_C 	C 	0.35933	0.41989	0.29822	-0.052
Mof_C 	C 	0.36077	0.40259	0.28496	0.043
Mof_H 	H 	0.3511	0.3914	0.2867	0.01
Mof_C 	C 	0.34304	0.42061	0.31433	0.134
Mof_N 	N 	0.26527	0.36413	0.16093	-0.226
Mof_N 	N 	0.36377	0.22646	0.10431	-0.258
Mof_N 	N 	0.35067	0.26681	0.12273	-0.226
Mof_N 	N 	0.34636	0.31052	0.1703	-0.153
Mof_N 	N 	0.31193	0.31961	0.1599	-0.151
Mof_N 	N 	0.32715	0.33523	0.1897	-0.155
Mof_N 	N 	0.37861	0.3504	0.22466	-0.23
Mof_N 	N 	0.4075	0.37722	0.24874	-0.262
Mof_N 	N 	0.37506	0.40114	0.27001	-0.227
Mof_N 	N 	0.32863	0.4056	0.31397	-0.151
Mof_S 	S 	0.33475	0.20888	0.07689	-0.061
Mof_S 	S 	0.44984	0.3843	0.25491	-0.062
Mof_C 	C 	0.78122	0.85084	0.16105	0.041
Mof_H 	H 	0.7846	0.844	0.1483	0.011
Mof_C 	C 	0.79316	0.84633	0.17845	-0.051
Mof_C 	C 	0.78806	0.856	0.19733	0.009
Mof_H 	H 	0.796	0.8534	0.2096	0.037
Mof_C 	C 	0.77116	0.86944	0.1976	-0.099
Mof_H 	H 	0.7671	0.8761	0.2102	0.066
Mof_C 	C 	0.76015	0.8731	0.17924	0.059
Mof_H 	H 	0.7485	0.8823	0.1796	0
Mof_C 	C 	0.85172	0.71879	0.09302	0.096
Mof_C 	C 	0.83518	0.76534	0.10863	0.056
Mof_H 	H 	0.8364	0.7553	0.0977	-0.001
Mof_C 	C 	0.81736	0.77795	0.10944	-0.098
Mof_H 	H 	0.807	0.7769	0.0989	0.065
Mof_C 	C 	0.81499	0.79177	0.12551	0.009
Mof_H 	H 	0.8028	0.8002	0.1265	0.037
Mof_C 	C 	0.83094	0.79333	0.14057	-0.05
Mof_C 	C 	0.84831	0.78065	0.13826	0.039
Mof_H 	H 	0.8592	0.7818	0.1483	0.014
Mof_C 	C 	0.82962	0.80847	0.15791	0.134
Mof_C 	C 	0.81177	0.8327	0.17619	0.138
Mof_C 	C 	0.8443	0.82422	0.18553	0.14
Mof_C 	C 	0.86275	0.84565	0.21242	0.044
Mof_H 	H 	0.8507	0.8544	0.2128	0.009
Mof_C 	C 	0.86271	0.82836	0.19878	-0.053
Mof_C 	C 	0.88072	0.81601	0.1979	0.008
Mof_H 	H 	0.8815	0.8043	0.1888	0.038
Mof_C 	C 	0.89744	0.82141	0.21063	-0.097
Mof_H 	H 	0.91	0.8134	0.2103	0.065
Mof_C 	C 	0.89585	0.83842	0.22377	0.057
Mof_H 	H 	0.9074	0.8418	0.2325	0.002
Mof_C 	C 	0.92504	0.88009	0.25126	0.104
Mof_C 	C 	0.88864	0.91707	0.2676	0.06
Mof_H 	H 	0.8993	0.9159	0.2573	0
Mof_C 	C 	0.88786	0.93473	0.27925	-0.1
Mof_H 	H 	0.8973	0.9459	0.2766	0.068
Mof_C 	C 	0.87298	0.93645	0.29519	0.008
Mof_H 	H 	0.8722	0.9486	0.3037	0.038
Mof_C 	C 	0.85933	0.91989	0.29822	-0.052
Mof_C 	C 	0.86077	0.90259	0.28496	0.043
Mof_H 	H 	0.8511	0.8914	0.2867	0.01
Mof_C 	C 	0.84304	0.92061	0.31433	0.134
Mof_N 	N 	0.76527	0.86413	0.16093	-0.226
Mof_N 	N 	0.86377	0.72646	0.10431	-0.258
Mof_N 	N 	0.85067	0.76681	0.12273	-0.226
Mof_N 	N 	0.84636	0.81052	0.1703	-0.153
Mof_N 	N 	0.81193	0.81961	0.1599	-0.151
Mof_N 	N 	0.82715	0.83523	0.1897	-0.155
Mof_N 	N 	0.87861	0.8504	0.22466	-0.23
Mof_N 	N 	0.9075	0.87722	0.24874	-0.262
Mof_N 	N 	0.87506	0.90114	0.27001	-0.227
Mof_N 	N 	0.82863	0.9056	0.31397	-0.151
Mof_S 	S 	0.83475	0.70888	0.07689	-0.061
Mof_S 	S 	0.94984	0.8843	0.25491	-0.062
Mof_C 	C 	0.78122	0.35084	0.66105	0.041
Mof_H 	H 	0.7846	0.344	0.6483	0.011
Mof_C 	C 	0.79316	0.34633	0.67845	-0.051
Mof_C 	C 	0.78806	0.356	0.69733	0.009
Mof_H 	H 	0.796	0.3534	0.7096	0.037
Mof_C 	C 	0.77116	0.36944	0.6976	-0.099
Mof_H 	H 	0.7671	0.3761	0.7102	0.066
Mof_C 	C 	0.76015	0.3731	0.67924	0.059
Mof_H 	H 	0.7485	0.3823	0.6796	0
Mof_C 	C 	0.85172	0.21879	0.59302	0.096
Mof_C 	C 	0.83518	0.26534	0.60863	0.056
Mof_H 	H 	0.8364	0.2553	0.5977	-0.001
Mof_C 	C 	0.81736	0.27795	0.60944	-0.098
Mof_H 	H 	0.807	0.2769	0.5989	0.065
Mof_C 	C 	0.81499	0.29177	0.62551	0.009
Mof_H 	H 	0.8028	0.3002	0.6265	0.037
Mof_C 	C 	0.83094	0.29333	0.64057	-0.05
Mof_C 	C 	0.84831	0.28065	0.63826	0.039
Mof_H 	H 	0.8592	0.2818	0.6483	0.014
Mof_C 	C 	0.82962	0.30847	0.65791	0.134
Mof_C 	C 	0.81177	0.3327	0.67619	0.138
Mof_C 	C 	0.8443	0.32422	0.68553	0.14
Mof_C 	C 	0.86275	0.34565	0.71242	0.044
Mof_H 	H 	0.8507	0.3544	0.7128	0.009
Mof_C 	C 	0.86271	0.32836	0.69878	-0.053
Mof_C 	C 	0.88072	0.31601	0.6979	0.008
Mof_H 	H 	0.8815	0.3043	0.6888	0.038
Mof_C 	C 	0.89744	0.32141	0.71063	-0.097
Mof_H 	H 	0.91	0.3134	0.7103	0.065
Mof_C 	C 	0.89585	0.33842	0.72377	0.057
Mof_H 	H 	0.9074	0.3418	0.7325	0.002
Mof_C 	C 	0.92504	0.38009	0.75126	0.104
Mof_C 	C 	0.88864	0.41707	0.7676	0.06
Mof_H 	H 	0.8993	0.4159	0.7573	0
Mof_C 	C 	0.88786	0.43473	0.77925	-0.1
Mof_H 	H 	0.8973	0.4459	0.7766	0.068
Mof_C 	C 	0.87298	0.43645	0.79519	0.008
Mof_H 	H 	0.8722	0.4486	0.8037	0.038
Mof_C 	C 	0.85933	0.41989	0.79822	-0.052
Mof_C 	C 	0.86077	0.40259	0.78496	0.043
Mof_H 	H 	0.8511	0.3914	0.7867	0.01
Mof_C 	C 	0.84304	0.42061	0.81433	0.134
Mof_N 	N 	0.76527	0.36413	0.66093	-0.226
Mof_N 	N 	0.86377	0.22646	0.60431	-0.258
Mof_N 	N 	0.85067	0.26681	0.62273	-0.226
Mof_N 	N 	0.84636	0.31052	0.6703	-0.153
Mof_N 	N 	0.81193	0.31961	0.6599	-0.151
Mof_N 	N 	0.82715	0.33523	0.6897	-0.155
Mof_N 	N 	0.87861	0.3504	0.72466	-0.23
Mof_N 	N 	0.9075	0.37722	0.74874	-0.262
Mof_N 	N 	0.87506	0.40114	0.77001	-0.227
Mof_N 	N 	0.82863	0.4056	0.81397	-0.151
Mof_S 	S 	0.83475	0.20888	0.57689	-0.061
Mof_S 	S 	0.94984	0.3843	0.75491	-0.062
Mof_C 	C 	0.96878	0.35084	0.08895	0.041
Mof_H 	H 	0.9654	0.344	0.1017	0.011
Mof_C 	C 	0.95684	0.34633	0.07155	-0.051
Mof_C 	C 	0.96194	0.356	0.05267	0.009
Mof_H 	H 	0.954	0.3534	0.0404	0.037
Mof_C 	C 	0.97884	0.36944	0.0524	-0.099
Mof_H 	H 	0.9829	0.3761	0.0398	0.066
Mof_C 	C 	0.98985	0.3731	0.07076	0.059
Mof_H 	H 	0.0015	0.3823	0.0704	0
Mof_C 	C 	0.89828	0.21879	0.15698	0.096
Mof_C 	C 	0.91482	0.26534	0.14137	0.056
Mof_H 	H 	0.9136	0.2553	0.1523	-0.001
Mof_C 	C 	0.93264	0.27795	0.14056	-0.098
Mof_H 	H 	0.943	0.2769	0.1511	0.065
Mof_C 	C 	0.93501	0.29177	0.12449	0.009
Mof_H 	H 	0.9472	0.3002	0.1235	0.037
Mof_C 	C 	0.91906	0.29333	0.10943	-0.05
Mof_C 	C 	0.90169	0.28065	0.11174	0.039
Mof_H 	H 	0.8908	0.2818	0.1017	0.014
Mof_C 	C 	0.92038	0.30847	0.09209	0.134
Mof_C 	C 	0.93823	0.3327	0.07381	0.138
Mof_C 	C 	0.9057	0.32422	0.06447	0.14
Mof_C 	C 	0.88725	0.34565	0.03758	0.044
Mof_H 	H 	0.8993	0.3544	0.0372	0.009
Mof_C 	C 	0.88729	0.32836	0.05122	-0.053
Mof_C 	C 	0.86928	0.31601	0.0521	0.008
Mof_H 	H 	0.8685	0.3043	0.0612	0.038
Mof_C 	C 	0.85256	0.32141	0.03937	-0.097
Mof_H 	H 	0.84	0.3134	0.0397	0.065
Mof_C 	C 	0.85415	0.33842	0.02623	0.057
Mof_H 	H 	0.8426	0.3418	0.0175	0.002
Mof_C 	C 	0.82496	0.38009	0.99874	0.104
Mof_C 	C 	0.86136	0.41707	0.9824	0.06
Mof_H 	H 	0.8507	0.4159	0.9927	0
Mof_C 	C 	0.86214	0.43473	0.97075	-0.1
Mof_H 	H 	0.8527	0.4459	0.9734	0.068
Mof_C 	C 	0.87702	0.43645	0.95481	0.008
Mof_H 	H 	0.8778	0.4486	0.9463	0.038
Mof_C 	C 	0.89067	0.41989	0.95178	-0.052
Mof_C 	C 	0.88923	0.40259	0.96504	0.043
Mof_H 	H 	0.8989	0.3914	0.9633	0.01
Mof_C 	C 	0.90696	0.42061	0.93567	0.134
Mof_N 	N 	0.98473	0.36413	0.08907	-0.226
Mof_N 	N 	0.88623	0.22646	0.14569	-0.258
Mof_N 	N 	0.89933	0.26681	0.12727	-0.226
Mof_N 	N 	0.90364	0.31052	0.0797	-0.153
Mof_N 	N 	0.93807	0.31961	0.0901	-0.151
Mof_N 	N 	0.92285	0.33523	0.0603	-0.155
Mof_N 	N 	0.87139	0.3504	0.02534	-0.23
Mof_N 	N 	0.8425	0.37722	0.00126	-0.262
Mof_N 	N 	0.87494	0.40114	0.97999	-0.227
Mof_N 	N 	0.92137	0.4056	0.93603	-0.151
Mof_S 	S 	0.91525	0.20888	0.17311	-0.061
Mof_S 	S 	0.80016	0.3843	0.99509	-0.062
Mof_C 	C 	0.96878	0.85084	0.58895	0.041
Mof_H 	H 	0.9654	0.844	0.6017	0.011
Mof_C 	C 	0.95684	0.84633	0.57155	-0.051
Mof_C 	C 	0.96194	0.856	0.55267	0.009
Mof_H 	H 	0.954	0.8534	0.5404	0.037
Mof_C 	C 	0.97884	0.86944	0.5524	-0.099
Mof_H 	H 	0.9829	0.8761	0.5398	0.066
Mof_C 	C 	0.98985	0.8731	0.57076	0.059
Mof_H 	H 	0.0015	0.8823	0.5704	0
Mof_C 	C 	0.89828	0.71879	0.65698	0.096
Mof_C 	C 	0.91482	0.76534	0.64137	0.056
Mof_H 	H 	0.9136	0.7553	0.6523	-0.001
Mof_C 	C 	0.93264	0.77795	0.64056	-0.098
Mof_H 	H 	0.943	0.7769	0.6511	0.065
Mof_C 	C 	0.93501	0.79177	0.62449	0.009
Mof_H 	H 	0.9472	0.8002	0.6235	0.037
Mof_C 	C 	0.91906	0.79333	0.60943	-0.05
Mof_C 	C 	0.90169	0.78065	0.61174	0.039
Mof_H 	H 	0.8908	0.7818	0.6017	0.014
Mof_C 	C 	0.92038	0.80847	0.59209	0.134
Mof_C 	C 	0.93823	0.8327	0.57381	0.138
Mof_C 	C 	0.9057	0.82422	0.56447	0.14
Mof_C 	C 	0.88725	0.84565	0.53758	0.044
Mof_H 	H 	0.8993	0.8544	0.5372	0.009
Mof_C 	C 	0.88729	0.82836	0.55122	-0.053
Mof_C 	C 	0.86928	0.81601	0.5521	0.008
Mof_H 	H 	0.8685	0.8043	0.5612	0.038
Mof_C 	C 	0.85256	0.82141	0.53937	-0.097
Mof_H 	H 	0.84	0.8134	0.5397	0.065
Mof_C 	C 	0.85415	0.83842	0.52623	0.057
Mof_H 	H 	0.8426	0.8418	0.5175	0.002
Mof_C 	C 	0.82496	0.88009	0.49874	0.104
Mof_C 	C 	0.86136	0.91707	0.4824	0.06
Mof_H 	H 	0.8507	0.9159	0.4927	0
Mof_C 	C 	0.86214	0.93473	0.47075	-0.1
Mof_H 	H 	0.8527	0.9459	0.4734	0.068
Mof_C 	C 	0.87702	0.93645	0.45481	0.008
Mof_H 	H 	0.8778	0.9486	0.4463	0.038
Mof_C 	C 	0.89067	0.91989	0.45178	-0.052
Mof_C 	C 	0.88923	0.90259	0.46504	0.043
Mof_H 	H 	0.8989	0.8914	0.4633	0.01
Mof_C 	C 	0.90696	0.92061	0.43567	0.134
Mof_N 	N 	0.98473	0.86413	0.58907	-0.226
Mof_N 	N 	0.88623	0.72646	0.64569	-0.258
Mof_N 	N 	0.89933	0.76681	0.62727	-0.226
Mof_N 	N 	0.90364	0.81052	0.5797	-0.153
Mof_N 	N 	0.93807	0.81961	0.5901	-0.151
Mof_N 	N 	0.92285	0.83523	0.5603	-0.155
Mof_N 	N 	0.87139	0.8504	0.52534	-0.23
Mof_N 	N 	0.8425	0.87722	0.50126	-0.262
Mof_N 	N 	0.87494	0.90114	0.47999	-0.227
Mof_N 	N 	0.92137	0.9056	0.43603	-0.151
Mof_S 	S 	0.91525	0.70888	0.67311	-0.061
Mof_S 	S 	0.80016	0.8843	0.49509	-0.062
Mof_C 	C 	0.46878	0.35084	0.58895	0.041
Mof_H 	H 	0.4654	0.344	0.6017	0.011
Mof_C 	C 	0.45684	0.34633	0.57155	-0.051
Mof_C 	C 	0.46194	0.356	0.55267	0.009
Mof_H 	H 	0.454	0.3534	0.5404	0.037
Mof_C 	C 	0.47884	0.36944	0.5524	-0.099
Mof_H 	H 	0.4829	0.3761	0.5398	0.066
Mof_C 	C 	0.48985	0.3731	0.57076	0.059
Mof_H 	H 	0.5015	0.3823	0.5704	0
Mof_C 	C 	0.39828	0.21879	0.65698	0.096
Mof_C 	C 	0.41482	0.26534	0.64137	0.056
Mof_H 	H 	0.4136	0.2553	0.6523	-0.001
Mof_C 	C 	0.43264	0.27795	0.64056	-0.098
Mof_H 	H 	0.443	0.2769	0.6511	0.065
Mof_C 	C 	0.43501	0.29177	0.62449	0.009
Mof_H 	H 	0.4472	0.3002	0.6235	0.037
Mof_C 	C 	0.41906	0.29333	0.60943	-0.05
Mof_C 	C 	0.40169	0.28065	0.61174	0.039
Mof_H 	H 	0.3908	0.2818	0.6017	0.014
Mof_C 	C 	0.42038	0.30847	0.59209	0.134
Mof_C 	C 	0.43823	0.3327	0.57381	0.138
Mof_C 	C 	0.4057	0.32422	0.56447	0.14
Mof_C 	C 	0.38725	0.34565	0.53758	0.044
Mof_H 	H 	0.3993	0.3544	0.5372	0.009
Mof_C 	C 	0.38729	0.32836	0.55122	-0.053
Mof_C 	C 	0.36928	0.31601	0.5521	0.008
Mof_H 	H 	0.3685	0.3043	0.5612	0.038
Mof_C 	C 	0.35256	0.32141	0.53937	-0.097
Mof_H 	H 	0.34	0.3134	0.5397	0.065
Mof_C 	C 	0.35415	0.33842	0.52623	0.057
Mof_H 	H 	0.3426	0.3418	0.5175	0.002
Mof_C 	C 	0.32496	0.38009	0.49874	0.104
Mof_C 	C 	0.36136	0.41707	0.4824	0.06
Mof_H 	H 	0.3507	0.4159	0.4927	0
Mof_C 	C 	0.36214	0.43473	0.47075	-0.1
Mof_H 	H 	0.3527	0.4459	0.4734	0.068
Mof_C 	C 	0.37702	0.43645	0.45481	0.008
Mof_H 	H 	0.3778	0.4486	0.4463	0.038
Mof_C 	C 	0.39067	0.41989	0.45178	-0.052
Mof_C 	C 	0.38923	0.40259	0.46504	0.043
Mof_H 	H 	0.3989	0.3914	0.4633	0.01
Mof_C 	C 	0.40696	0.42061	0.43567	0.134
Mof_N 	N 	0.48473	0.36413	0.58907	-0.226
Mof_N 	N 	0.38623	0.22646	0.64569	-0.258
Mof_N 	N 	0.39933	0.26681	0.62727	-0.226
Mof_N 	N 	0.40364	0.31052	0.5797	-0.153
Mof_N 	N 	0.43807	0.31961	0.5901	-0.151
Mof_N 	N 	0.42285	0.33523	0.5603	-0.155
Mof_N 	N 	0.37139	0.3504	0.52534	-0.23
Mof_N 	N 	0.3425	0.37722	0.50126	-0.262
Mof_N 	N 	0.37494	0.40114	0.47999	-0.227
Mof_N 	N 	0.42137	0.4056	0.43603	-0.151
Mof_S 	S 	0.41525	0.20888	0.67311	-0.061
Mof_S 	S 	0.30016	0.3843	0.49509	-0.062
Mof_C 	C 	0.46878	0.85084	0.08895	0.041
Mof_H 	H 	0.4654	0.844	0.1017	0.011
Mof_C 	C 	0.45684	0.84633	0.07155	-0.051
Mof_C 	C 	0.46194	0.856	0.05267	0.009
Mof_H 	H 	0.454	0.8534	0.0404	0.037
Mof_C 	C 	0.47884	0.86944	0.0524	-0.099
Mof_H 	H 	0.4829	0.8761	0.0398	0.066
Mof_C 	C 	0.48985	0.8731	0.07076	0.059
Mof_H 	H 	0.5015	0.8823	0.0704	0
Mof_C 	C 	0.39828	0.71879	0.15698	0.096
Mof_C 	C 	0.41482	0.76534	0.14137	0.056
Mof_H 	H 	0.4136	0.7553	0.1523	-0.001
Mof_C 	C 	0.43264	0.77795	0.14056	-0.098
Mof_H 	H 	0.443	0.7769	0.1511	0.065
Mof_C 	C 	0.43501	0.79177	0.12449	0.009
Mof_H 	H 	0.4472	0.8002	0.1235	0.037
Mof_C 	C 	0.41906	0.79333	0.10943	-0.05
Mof_C 	C 	0.40169	0.78065	0.11174	0.039
Mof_H 	H 	0.3908	0.7818	0.1017	0.014
Mof_C 	C 	0.42038	0.80847	0.09209	0.134
Mof_C 	C 	0.43823	0.8327	0.07381	0.138
Mof_C 	C 	0.4057	0.82422	0.06447	0.14
Mof_C 	C 	0.38725	0.84565	0.03758	0.044
Mof_H 	H 	0.3993	0.8544	0.0372	0.009
Mof_C 	C 	0.38729	0.82836	0.05122	-0.053
Mof_C 	C 	0.36928	0.81601	0.0521	0.008
Mof_H 	H 	0.3685	0.8043	0.0612	0.038
Mof_C 	C 	0.35256	0.82141	0.03937	-0.097
Mof_H 	H 	0.34	0.8134	0.0397	0.065
Mof_C 	C 	0.35415	0.83842	0.02623	0.057
Mof_H 	H 	0.3426	0.8418	0.0175	0.002
Mof_C 	C 	0.32496	0.88009	0.99874	0.104
Mof_C 	C 	0.36136	0.91707	0.9824	0.06
Mof_H 	H 	0.3507	0.9159	0.9927	0
Mof_C 	C 	0.36214	0.93473	0.97075	-0.1
Mof_H 	H 	0.3527	0.9459	0.9734	0.068
Mof_C 	C 	0.37702	0.93645	0.95481	0.008
Mof_H 	H 	0.3778	0.9486	0.9463	0.038
Mof_C 	C 	0.39067	0.91989	0.95178	-0.052
Mof_C 	C 	0.38923	0.90259	0.96504	0.043
Mof_H 	H 	0.3989	0.8914	0.9633	0.01
Mof_C 	C 	0.40696	0.92061	0.93567	0.134
Mof_N 	N 	0.48473	0.86413	0.08907	-0.226
Mof_N 	N 	0.38623	0.72646	0.14569	-0.258
Mof_N 	N 	0.39933	0.76681	0.12727	-0.226
Mof_N 	N 	0.40364	0.81052	0.0797	-0.153
Mof_N 	N 	0.43807	0.81961	0.0901	-0.151
Mof_N 	N 	0.42285	0.83523	0.0603	-0.155
Mof_N 	N 	0.37139	0.8504	0.02534	-0.23
Mof_N 	N 	0.3425	0.87722	0.00126	-0.262
Mof_N 	N 	0.37494	0.90114	0.97999	-0.227
Mof_N 	N 	0.42137	0.9056	0.93603	-0.151
Mof_S 	S 	0.41525	0.70888	0.17311	-0.061
Mof_S 	S 	0.30016	0.8843	0.99509	-0.062
Mof_C 	C 	0.03122	0.33895	0.10084	0.041
Mof_H 	H 	0.0346	0.3517	0.094	0.011
Mof_C 	C 	0.04316	0.32155	0.09633	-0.051
Mof_C 	C 	0.03806	0.30267	0.106	0.008
Mof_H 	H 	0.046	0.2904	0.1034	0.037
Mof_C 	C 	0.02116	0.3024	0.11944	-0.099
Mof_H 	H 	0.0171	0.2898	0.1261	0.066
Mof_C 	C 	0.01015	0.32076	0.1231	0.059
Mof_H 	H 	0.9985	0.3204	0.1323	0
Mof_C 	C 	0.10172	0.40698	0.96879	0.096
Mof_C 	C 	0.08518	0.39137	0.01534	0.056
Mof_H 	H 	0.0864	0.4023	0.0053	-0.001
Mof_C 	C 	0.06736	0.39056	0.02795	-0.098
Mof_H 	H 	0.057	0.4011	0.0269	0.065
Mof_C 	C 	0.06499	0.37449	0.04177	0.009
Mof_H 	H 	0.0528	0.3735	0.0502	0.037
Mof_C 	C 	0.08094	0.35943	0.04333	-0.05
Mof_C 	C 	0.09831	0.36174	0.03065	0.039
Mof_H 	H 	0.1092	0.3517	0.0318	0.014
Mof_C 	C 	0.07962	0.34209	0.05847	0.134
Mof_C 	C 	0.06177	0.32381	0.0827	0.138
Mof_C 	C 	0.0943	0.31447	0.07422	0.14
Mof_C 	C 	0.11275	0.28758	0.09565	0.044
Mof_H 	H 	0.1007	0.2872	0.1044	0.009
Mof_C 	C 	0.11271	0.30122	0.07836	-0.053
Mof_C 	C 	0.13072	0.3021	0.06601	0.008
Mof_H 	H 	0.1315	0.3112	0.0543	0.038
Mof_C 	C 	0.14744	0.28937	0.07141	-0.097
Mof_H 	H 	0.16	0.2897	0.0634	0.065
Mof_C 	C 	0.14585	0.27623	0.08842	0.057
Mof_H 	H 	0.1574	0.2675	0.0918	0.002
Mof_C 	C 	0.17504	0.24874	0.13009	0.104
Mof_C 	C 	0.13864	0.2324	0.16707	0.06
Mof_H 	H 	0.1493	0.2427	0.1659	0
Mof_C 	C 	0.13786	0.22075	0.18473	-0.1
Mof_H 	H 	0.1473	0.2234	0.1959	0.068
Mof_C 	C 	0.12298	0.20481	0.18645	0.008
Mof_H 	H 	0.1222	0.1963	0.1986	0.038
Mof_C 	C 	0.10933	0.20178	0.16989	-0.052
Mof_C 	C 	0.11077	0.21504	0.15259	0.043
Mof_H 	H 	0.1011	0.2133	0.1414	0.01
Mof_C 	C 	0.09304	0.18567	0.17061	0.134
Mof_N 	N 	0.01527	0.33907	0.11413	-0.225
Mof_N 	N 	0.11377	0.39569	0.97646	-0.258
Mof_N 	N 	0.10067	0.37727	0.01681	-0.226
Mof_N 	N 	0.09636	0.3297	0.06052	-0.153
Mof_N 	N 	0.06193	0.3401	0.06961	-0.151
Mof_N 	N 	0.07715	0.3103	0.08523	-0.155
Mof_N 	N 	0.12861	0.27534	0.1004	-0.23
Mof_N 	N 	0.1575	0.25126	0.12722	-0.262
Mof_N 	N 	0.12506	0.22999	0.15114	-0.227
Mof_N 	N 	0.07863	0.18603	0.1556	-0.151
Mof_S 	S 	0.08475	0.42311	0.95888	-0.061
Mof_S 	S 	0.19984	0.24509	0.1343	-0.062
Mof_C 	C 	0.03122	0.83895	0.60084	0.041
Mof_H 	H 	0.0346	0.8517	0.594	0.011
Mof_C 	C 	0.04316	0.82155	0.59633	-0.051
Mof_C 	C 	0.03806	0.80267	0.606	0.008
Mof_H 	H 	0.046	0.7904	0.6034	0.037
Mof_C 	C 	0.02116	0.8024	0.61944	-0.099
Mof_H 	H 	0.0171	0.7898	0.6261	0.066
Mof_C 	C 	0.01015	0.82076	0.6231	0.059
Mof_H 	H 	0.9985	0.8204	0.6323	0
Mof_C 	C 	0.10172	0.90698	0.46879	0.096
Mof_C 	C 	0.08518	0.89137	0.51534	0.056
Mof_H 	H 	0.0864	0.9023	0.5053	-0.001
Mof_C 	C 	0.06736	0.89056	0.52795	-0.098
Mof_H 	H 	0.057	0.9011	0.5269	0.065
Mof_C 	C 	0.06499	0.87449	0.54177	0.009
Mof_H 	H 	0.0528	0.8735	0.5502	0.037
Mof_C 	C 	0.08094	0.85943	0.54333	-0.05
Mof_C 	C 	0.09831	0.86174	0.53065	0.039
Mof_H 	H 	0.1092	0.8517	0.5318	0.014
Mof_C 	C 	0.07962	0.84209	0.55847	0.134
Mof_C 	C 	0.06177	0.82381	0.5827	0.138
Mof_C 	C 	0.0943	0.81447	0.57422	0.14
Mof_C 	C 	0.11275	0.78758	0.59565	0.044
Mof_H 	H 	0.1007	0.7872	0.6044	0.009
Mof_C 	C 	0.11271	0.80122	0.57836	-0.053
Mof_C 	C 	0.13072	0.8021	0.56601	0.008
Mof_H 	H 	0.1315	0.8112	0.5543	0.038
Mof_C 	C 	0.14744	0.78937	0.57141	-0.097
Mof_H 	H 	0.16	0.7897	0.5634	0.065
Mof_C 	C 	0.14585	0.77623	0.58842	0.057
Mof_H 	H 	0.1574	0.7675	0.5918	0.002
Mof_C 	C 	0.17504	0.74874	0.63009	0.104
Mof_C 	C 	0.13864	0.7324	0.66707	0.06
Mof_H 	H 	0.1493	0.7427	0.6659	0
Mof_C 	C 	0.13786	0.72075	0.68473	-0.1
Mof_H 	H 	0.1473	0.7234	0.6959	0.068
Mof_C 	C 	0.12298	0.70481	0.68645	0.008
Mof_H 	H 	0.1222	0.6963	0.6986	0.038
Mof_C 	C 	0.10933	0.70178	0.66989	-0.052
Mof_C 	C 	0.11077	0.71504	0.65259	0.043
Mof_H 	H 	0.1011	0.7133	0.6414	0.01
Mof_C 	C 	0.09304	0.68567	0.67061	0.134
Mof_N 	N 	0.01527	0.83907	0.61413	-0.225
Mof_N 	N 	0.11377	0.89569	0.47646	-0.258
Mof_N 	N 	0.10067	0.87727	0.51681	-0.226
Mof_N 	N 	0.09636	0.8297	0.56052	-0.153
Mof_N 	N 	0.06193	0.8401	0.56961	-0.151
Mof_N 	N 	0.07715	0.8103	0.58523	-0.155
Mof_N 	N 	0.12861	0.77534	0.6004	-0.23
Mof_N 	N 	0.1575	0.75126	0.62722	-0.262
Mof_N 	N 	0.12506	0.72999	0.65114	-0.227
Mof_N 	N 	0.07863	0.68603	0.6556	-0.151
Mof_S 	S 	0.08475	0.92311	0.45888	-0.061
Mof_S 	S 	0.19984	0.74509	0.6343	-0.062
Mof_C 	C 	0.53122	0.33895	0.60084	0.041
Mof_H 	H 	0.5346	0.3517	0.594	0.011
Mof_C 	C 	0.54316	0.32155	0.59633	-0.051
Mof_C 	C 	0.53806	0.30267	0.606	0.009
Mof_H 	H 	0.546	0.2904	0.6034	0.037
Mof_C 	C 	0.52116	0.3024	0.61944	-0.099
Mof_H 	H 	0.5171	0.2898	0.6261	0.066
Mof_C 	C 	0.51015	0.32076	0.6231	0.059
Mof_H 	H 	0.4985	0.3204	0.6323	0
Mof_C 	C 	0.60172	0.40698	0.46879	0.096
Mof_C 	C 	0.58518	0.39137	0.51534	0.056
Mof_H 	H 	0.5864	0.4023	0.5053	-0.001
Mof_C 	C 	0.56736	0.39056	0.52795	-0.098
Mof_H 	H 	0.557	0.4011	0.5269	0.065
Mof_C 	C 	0.56499	0.37449	0.54177	0.009
Mof_H 	H 	0.5528	0.3735	0.5502	0.037
Mof_C 	C 	0.58094	0.35943	0.54333	-0.05
Mof_C 	C 	0.59831	0.36174	0.53065	0.039
Mof_H 	H 	0.6092	0.3517	0.5318	0.014
Mof_C 	C 	0.57962	0.34209	0.55847	0.134
Mof_C 	C 	0.56177	0.32381	0.5827	0.138
Mof_C 	C 	0.5943	0.31447	0.57422	0.14
Mof_C 	C 	0.61275	0.28758	0.59565	0.044
Mof_H 	H 	0.6007	0.2872	0.6044	0.009
Mof_C 	C 	0.61271	0.30122	0.57836	-0.053
Mof_C 	C 	0.63072	0.3021	0.56601	0.008
Mof_H 	H 	0.6315	0.3112	0.5543	0.038
Mof_C 	C 	0.64744	0.28937	0.57141	-0.097
Mof_H 	H 	0.66	0.2897	0.5634	0.065
Mof_C 	C 	0.64585	0.27623	0.58842	0.057
Mof_H 	H 	0.6574	0.2675	0.5918	0.002
Mof_C 	C 	0.67504	0.24874	0.63009	0.104
Mof_C 	C 	0.63864	0.2324	0.66707	0.06
Mof_H 	H 	0.6493	0.2427	0.6659	0
Mof_C 	C 	0.63786	0.22075	0.68473	-0.1
Mof_H 	H 	0.6473	0.2234	0.6959	0.068
Mof_C 	C 	0.62298	0.20481	0.68645	0.008
Mof_H 	H 	0.6222	0.1963	0.6986	0.038
Mof_C 	C 	0.60933	0.20178	0.66989	-0.052
Mof_C 	C 	0.61077	0.21504	0.65259	0.043
Mof_H 	H 	0.6011	0.2133	0.6414	0.01
Mof_C 	C 	0.59304	0.18567	0.67061	0.134
Mof_N 	N 	0.51527	0.33907	0.61413	-0.226
Mof_N 	N 	0.61377	0.39569	0.47646	-0.258
Mof_N 	N 	0.60067	0.37727	0.51681	-0.226
Mof_N 	N 	0.59636	0.3297	0.56052	-0.153
Mof_N 	N 	0.56193	0.3401	0.56961	-0.151
Mof_N 	N 	0.57715	0.3103	0.58523	-0.155
Mof_N 	N 	0.62861	0.27534	0.6004	-0.23
Mof_N 	N 	0.6575	0.25126	0.62722	-0.262
Mof_N 	N 	0.62506	0.22999	0.65114	-0.227
Mof_N 	N 	0.57863	0.18603	0.6556	-0.151
Mof_S 	S 	0.58475	0.42311	0.45888	-0.061
Mof_S 	S 	0.69984	0.24509	0.6343	-0.062
Mof_C 	C 	0.53122	0.83895	0.10084	0.041
Mof_H 	H 	0.5346	0.8517	0.094	0.011
Mof_C 	C 	0.54316	0.82155	0.09633	-0.051
Mof_C 	C 	0.53806	0.80267	0.106	0.009
Mof_H 	H 	0.546	0.7904	0.1034	0.037
Mof_C 	C 	0.52116	0.8024	0.11944	-0.099
Mof_H 	H 	0.5171	0.7898	0.1261	0.066
Mof_C 	C 	0.51015	0.82076	0.1231	0.059
Mof_H 	H 	0.4985	0.8204	0.1323	0
Mof_C 	C 	0.60172	0.90698	0.96879	0.096
Mof_C 	C 	0.58518	0.89137	0.01534	0.056
Mof_H 	H 	0.5864	0.9023	0.0053	-0.001
Mof_C 	C 	0.56736	0.89056	0.02795	-0.098
Mof_H 	H 	0.557	0.9011	0.0269	0.065
Mof_C 	C 	0.56499	0.87449	0.04177	0.009
Mof_H 	H 	0.5528	0.8735	0.0502	0.037
Mof_C 	C 	0.58094	0.85943	0.04333	-0.05
Mof_C 	C 	0.59831	0.86174	0.03065	0.039
Mof_H 	H 	0.6092	0.8517	0.0318	0.014
Mof_C 	C 	0.57962	0.84209	0.05847	0.134
Mof_C 	C 	0.56177	0.82381	0.0827	0.138
Mof_C 	C 	0.5943	0.81447	0.07422	0.14
Mof_C 	C 	0.61275	0.78758	0.09565	0.044
Mof_H 	H 	0.6007	0.7872	0.1044	0.009
Mof_C 	C 	0.61271	0.80122	0.07836	-0.053
Mof_C 	C 	0.63072	0.8021	0.06601	0.008
Mof_H 	H 	0.6315	0.8112	0.0543	0.038
Mof_C 	C 	0.64744	0.78937	0.07141	-0.097
Mof_H 	H 	0.66	0.7897	0.0634	0.065
Mof_C 	C 	0.64585	0.77623	0.08842	0.057
Mof_H 	H 	0.6574	0.7675	0.0918	0.002
Mof_C 	C 	0.67504	0.74874	0.13009	0.104
Mof_C 	C 	0.63864	0.7324	0.16707	0.06
Mof_H 	H 	0.6493	0.7427	0.1659	0
Mof_C 	C 	0.63786	0.72075	0.18473	-0.1
Mof_H 	H 	0.6473	0.7234	0.1959	0.068
Mof_C 	C 	0.62298	0.70481	0.18645	0.008
Mof_H 	H 	0.6222	0.6963	0.1986	0.038
Mof_C 	C 	0.60933	0.70178	0.16989	-0.052
Mof_C 	C 	0.61077	0.71504	0.15259	0.043
Mof_H 	H 	0.6011	0.7133	0.1414	0.01
Mof_C 	C 	0.59304	0.68567	0.17061	0.134
Mof_N 	N 	0.51527	0.83907	0.11413	-0.226
Mof_N 	N 	0.61377	0.89569	0.97646	-0.258
Mof_N 	N 	0.60067	0.87727	0.01681	-0.226
Mof_N 	N 	0.59636	0.8297	0.06052	-0.153
Mof_N 	N 	0.56193	0.8401	0.06961	-0.151
Mof_N 	N 	0.57715	0.8103	0.08523	-0.155
Mof_N 	N 	0.62861	0.77534	0.1004	-0.23
Mof_N 	N 	0.6575	0.75126	0.12722	-0.262
Mof_N 	N 	0.62506	0.72999	0.15114	-0.227
Mof_N 	N 	0.57863	0.68603	0.1556	-0.151
Mof_S 	S 	0.58475	0.92311	0.95888	-0.061
Mof_S 	S 	0.69984	0.74509	0.1343	-0.062
Mof_C 	C 	0.71878	0.91105	0.60084	0.041
Mof_H 	H 	0.7154	0.8983	0.594	0.011
Mof_C 	C 	0.70684	0.92845	0.59633	-0.051
Mof_C 	C 	0.71194	0.94733	0.606	0.009
Mof_H 	H 	0.704	0.9596	0.6034	0.037
Mof_C 	C 	0.72884	0.9476	0.61944	-0.099
Mof_H 	H 	0.7329	0.9602	0.6261	0.066
Mof_C 	C 	0.73985	0.92924	0.6231	0.059
Mof_H 	H 	0.7515	0.9296	0.6323	0
Mof_C 	C 	0.64828	0.84302	0.46879	0.096
Mof_C 	C 	0.66482	0.85863	0.51534	0.056
Mof_H 	H 	0.6636	0.8477	0.5053	-0.001
Mof_C 	C 	0.68264	0.85944	0.52795	-0.098
Mof_H 	H 	0.693	0.8489	0.5269	0.065
Mof_C 	C 	0.68501	0.87551	0.54177	0.009
Mof_H 	H 	0.6972	0.8765	0.5502	0.037
Mof_C 	C 	0.66906	0.89057	0.54333	-0.05
Mof_C 	C 	0.65169	0.88826	0.53065	0.039
Mof_H 	H 	0.6408	0.8983	0.5318	0.014
Mof_C 	C 	0.67038	0.90791	0.55847	0.134
Mof_C 	C 	0.68823	0.92619	0.5827	0.138
Mof_C 	C 	0.6557	0.93553	0.57422	0.14
Mof_C 	C 	0.63725	0.96242	0.59565	0.044
Mof_H 	H 	0.6493	0.9628	0.6044	0.009
Mof_C 	C 	0.63729	0.94878	0.57836	-0.053
Mof_C 	C 	0.61928	0.9479	0.56601	0.008
Mof_H 	H 	0.6185	0.9388	0.5543	0.038
Mof_C 	C 	0.60256	0.96063	0.57141	-0.097
Mof_H 	H 	0.59	0.9603	0.5634	0.065
Mof_C 	C 	0.60415	0.97377	0.58842	0.057
Mof_H 	H 	0.5926	0.9825	0.5918	0.002
Mof_C 	C 	0.57496	0.00126	0.63009	0.104
Mof_C 	C 	0.61136	0.0176	0.66707	0.06
Mof_H 	H 	0.6007	0.0073	0.6659	0
Mof_C 	C 	0.61214	0.02925	0.68473	-0.1
Mof_H 	H 	0.6027	0.0266	0.6959	0.068
Mof_C 	C 	0.62702	0.04519	0.68645	0.008
Mof_H 	H 	0.6278	0.0537	0.6986	0.038
Mof_C 	C 	0.64067	0.04822	0.66989	-0.052
Mof_C 	C 	0.63923	0.03496	0.65259	0.043
Mof_H 	H 	0.6489	0.0367	0.6414	0.01
Mof_C 	C 	0.65696	0.06433	0.67061	0.134
Mof_N 	N 	0.73473	0.91093	0.61413	-0.226
Mof_N 	N 	0.63623	0.85431	0.47646	-0.258
Mof_N 	N 	0.64933	0.87273	0.51681	-0.226
Mof_N 	N 	0.65364	0.9203	0.56052	-0.153
Mof_N 	N 	0.68807	0.9099	0.56961	-0.151
Mof_N 	N 	0.67285	0.9397	0.58523	-0.155
Mof_N 	N 	0.62139	0.97466	0.6004	-0.23
Mof_N 	N 	0.5925	0.99874	0.62722	-0.262
Mof_N 	N 	0.62494	0.02001	0.65114	-0.227
Mof_N 	N 	0.67137	0.06397	0.6556	-0.151
Mof_S 	S 	0.66525	0.82689	0.45888	-0.061
Mof_S 	S 	0.55016	0.00491	0.6343	-0.062
Mof_C 	C 	0.71878	0.41105	0.10084	0.041
Mof_H 	H 	0.7154	0.3983	0.094	0.011
Mof_C 	C 	0.70684	0.42845	0.09633	-0.051
Mof_C 	C 	0.71194	0.44733	0.106	0.009
Mof_H 	H 	0.704	0.4596	0.1034	0.037
Mof_C 	C 	0.72884	0.4476	0.11944	-0.099
Mof_H 	H 	0.7329	0.4602	0.1261	0.066
Mof_C 	C 	0.73985	0.42924	0.1231	0.059
Mof_H 	H 	0.7515	0.4296	0.1323	0
Mof_C 	C 	0.64828	0.34302	0.96879	0.096
Mof_C 	C 	0.66482	0.35863	0.01534	0.056
Mof_H 	H 	0.6636	0.3477	0.0053	-0.001
Mof_C 	C 	0.68264	0.35944	0.02795	-0.098
Mof_H 	H 	0.693	0.3489	0.0269	0.065
Mof_C 	C 	0.68501	0.37551	0.04177	0.009
Mof_H 	H 	0.6972	0.3765	0.0502	0.037
Mof_C 	C 	0.66906	0.39057	0.04333	-0.05
Mof_C 	C 	0.65169	0.38826	0.03065	0.039
Mof_H 	H 	0.6408	0.3983	0.0318	0.014
Mof_C 	C 	0.67038	0.40791	0.05847	0.134
Mof_C 	C 	0.68823	0.42619	0.0827	0.138
Mof_C 	C 	0.6557	0.43553	0.07422	0.14
Mof_C 	C 	0.63725	0.46242	0.09565	0.044
Mof_H 	H 	0.6493	0.4628	0.1044	0.009
Mof_C 	C 	0.63729	0.44878	0.07836	-0.053
Mof_C 	C 	0.61928	0.4479	0.06601	0.008
Mof_H 	H 	0.6185	0.4388	0.0543	0.038
Mof_C 	C 	0.60256	0.46063	0.07141	-0.097
Mof_H 	H 	0.59	0.4603	0.0634	0.065
Mof_C 	C 	0.60415	0.47377	0.08842	0.057
Mof_H 	H 	0.5926	0.4825	0.0918	0.002
Mof_C 	C 	0.57496	0.50126	0.13009	0.104
Mof_C 	C 	0.61136	0.5176	0.16707	0.06
Mof_H 	H 	0.6007	0.5073	0.1659	0
Mof_C 	C 	0.61214	0.52925	0.18473	-0.1
Mof_H 	H 	0.6027	0.5266	0.1959	0.068
Mof_C 	C 	0.62702	0.54519	0.18645	0.008
Mof_H 	H 	0.6278	0.5537	0.1986	0.038
Mof_C 	C 	0.64067	0.54822	0.16989	-0.052
Mof_C 	C 	0.63923	0.53496	0.15259	0.043
Mof_H 	H 	0.6489	0.5367	0.1414	0.01
Mof_C 	C 	0.65696	0.56433	0.17061	0.134
Mof_N 	N 	0.73473	0.41093	0.11413	-0.226
Mof_N 	N 	0.63623	0.35431	0.97646	-0.258
Mof_N 	N 	0.64933	0.37273	0.01681	-0.226
Mof_N 	N 	0.65364	0.4203	0.06052	-0.153
Mof_N 	N 	0.68807	0.4099	0.06961	-0.151
Mof_N 	N 	0.67285	0.4397	0.08523	-0.155
Mof_N 	N 	0.62139	0.47466	0.1004	-0.23
Mof_N 	N 	0.5925	0.49874	0.12722	-0.262
Mof_N 	N 	0.62494	0.52001	0.15114	-0.227
Mof_N 	N 	0.67137	0.56397	0.1556	-0.151
Mof_S 	S 	0.66525	0.32689	0.95888	-0.061
Mof_S 	S 	0.55016	0.50491	0.1343	-0.062
Mof_C 	C 	0.21878	0.91105	0.10084	0.041
Mof_H 	H 	0.2154	0.8983	0.094	0.011
Mof_C 	C 	0.20684	0.92845	0.09633	-0.051
Mof_C 	C 	0.21194	0.94733	0.106	0.009
Mof_H 	H 	0.204	0.9596	0.1034	0.037
Mof_C 	C 	0.22884	0.9476	0.11944	-0.099
Mof_H 	H 	0.2329	0.9602	0.1261	0.066
Mof_C 	C 	0.23985	0.92924	0.1231	0.059
Mof_H 	H 	0.2515	0.9296	0.1323	0
Mof_C 	C 	0.14828	0.84302	0.96879	0.096
Mof_C 	C 	0.16482	0.85863	0.01534	0.056
Mof_H 	H 	0.1636	0.8477	0.0053	-0.001
Mof_C 	C 	0.18264	0.85944	0.02795	-0.098
Mof_H 	H 	0.193	0.8489	0.0269	0.065
Mof_C 	C 	0.18501	0.87551	0.04177	0.009
Mof_H 	H 	0.1972	0.8765	0.0502	0.037
Mof_C 	C 	0.16906	0.89057	0.04333	-0.05
Mof_C 	C 	0.15169	0.88826	0.03065	0.039
Mof_H 	H 	0.1408	0.8983	0.0318	0.014
Mof_C 	C 	0.17038	0.90791	0.05847	0.134
Mof_C 	C 	0.18823	0.92619	0.0827	0.138
Mof_C 	C 	0.1557	0.93553	0.07422	0.14
Mof_C 	C 	0.13725	0.96242	0.09565	0.044
Mof_H 	H 	0.1493	0.9628	0.1044	0.009
Mof_C 	C 	0.13729	0.94878	0.07836	-0.053
Mof_C 	C 	0.11928	0.9479	0.06601	0.008
Mof_H 	H 	0.1185	0.9388	0.0543	0.038
Mof_C 	C 	0.10256	0.96063	0.07141	-0.097
Mof_H 	H 	0.09	0.9603	0.0634	0.065
Mof_C 	C 	0.10415	0.97377	0.08842	0.057
Mof_H 	H 	0.0926	0.9825	0.0918	0.002
Mof_C 	C 	0.07496	0.00126	0.13009	0.104
Mof_C 	C 	0.11136	0.0176	0.16707	0.06
Mof_H 	H 	0.1007	0.0073	0.1659	0
Mof_C 	C 	0.11214	0.02925	0.18473	-0.1
Mof_H 	H 	0.1027	0.0266	0.1959	0.068
Mof_C 	C 	0.12702	0.04519	0.18645	0.008
Mof_H 	H 	0.1278	0.0537	0.1986	0.038
Mof_C 	C 	0.14067	0.04822	0.16989	-0.052
Mof_C 	C 	0.13923	0.03496	0.15259	0.043
Mof_H 	H 	0.1489	0.0367	0.1414	0.01
Mof_C 	C 	0.15696	0.06433	0.17061	0.134
Mof_N 	N 	0.23473	0.91093	0.11413	-0.226
Mof_N 	N 	0.13623	0.85431	0.97646	-0.258
Mof_N 	N 	0.14933	0.87273	0.01681	-0.226
Mof_N 	N 	0.15364	0.9203	0.06052	-0.153
Mof_N 	N 	0.18807	0.9099	0.06961	-0.151
Mof_N 	N 	0.17285	0.9397	0.08523	-0.155
Mof_N 	N 	0.12139	0.97466	0.1004	-0.23
Mof_N 	N 	0.0925	0.99874	0.12722	-0.262
Mof_N 	N 	0.12494	0.02001	0.15114	-0.227
Mof_N 	N 	0.17137	0.06397	0.1556	-0.151
Mof_S 	S 	0.16525	0.82689	0.95888	-0.061
Mof_S 	S 	0.05016	0.00491	0.1343	-0.062
Mof_C 	C 	0.21878	0.41105	0.60084	0.041
Mof_H 	H 	0.2154	0.3983	0.594	0.011
Mof_C 	C 	0.20684	0.42845	0.59633	-0.051
Mof_C 	C 	0.21194	0.44733	0.606	0.009
Mof_H 	H 	0.204	0.4596	0.6034	0.037
Mof_C 	C 	0.22884	0.4476	0.61944	-0.099
Mof_H 	H 	0.2329	0.4602	0.6261	0.066
Mof_C 	C 	0.23985	0.42924	0.6231	0.059
Mof_H 	H 	0.2515	0.4296	0.6323	0
Mof_C 	C 	0.14828	0.34302	0.46879	0.096
Mof_C 	C 	0.16482	0.35863	0.51534	0.056
Mof_H 	H 	0.1636	0.3477	0.5053	-0.001
Mof_C 	C 	0.18264	0.35944	0.52795	-0.098
Mof_H 	H 	0.193	0.3489	0.5269	0.065
Mof_C 	C 	0.18501	0.37551	0.54177	0.009
Mof_H 	H 	0.1972	0.3765	0.5502	0.037
Mof_C 	C 	0.16906	0.39057	0.54333	-0.05
Mof_C 	C 	0.15169	0.38826	0.53065	0.039
Mof_H 	H 	0.1408	0.3983	0.5318	0.014
Mof_C 	C 	0.17038	0.40791	0.55847	0.134
Mof_C 	C 	0.18823	0.42619	0.5827	0.138
Mof_C 	C 	0.1557	0.43553	0.57422	0.14
Mof_C 	C 	0.13725	0.46242	0.59565	0.044
Mof_H 	H 	0.1493	0.4628	0.6044	0.009
Mof_C 	C 	0.13729	0.44878	0.57836	-0.053
Mof_C 	C 	0.11928	0.4479	0.56601	0.008
Mof_H 	H 	0.1185	0.4388	0.5543	0.038
Mof_C 	C 	0.10256	0.46063	0.57141	-0.097
Mof_H 	H 	0.09	0.4603	0.5634	0.065
Mof_C 	C 	0.10415	0.47377	0.58842	0.057
Mof_H 	H 	0.0926	0.4825	0.5918	0.002
Mof_C 	C 	0.07496	0.50126	0.63009	0.104
Mof_C 	C 	0.11136	0.5176	0.66707	0.06
Mof_H 	H 	0.1007	0.5073	0.6659	0
Mof_C 	C 	0.11214	0.52925	0.68473	-0.1
Mof_H 	H 	0.1027	0.5266	0.6959	0.068
Mof_C 	C 	0.12702	0.54519	0.68645	0.008
Mof_H 	H 	0.1278	0.5537	0.6986	0.038
Mof_C 	C 	0.14067	0.54822	0.66989	-0.052
Mof_C 	C 	0.13923	0.53496	0.65259	0.043
Mof_H 	H 	0.1489	0.5367	0.6414	0.01
Mof_C 	C 	0.15696	0.56433	0.67061	0.134
Mof_N 	N 	0.23473	0.41093	0.61413	-0.226
Mof_N 	N 	0.13623	0.35431	0.47646	-0.258
Mof_N 	N 	0.14933	0.37273	0.51681	-0.226
Mof_N 	N 	0.15364	0.4203	0.56052	-0.153
Mof_N 	N 	0.18807	0.4099	0.56961	-0.151
Mof_N 	N 	0.17285	0.4397	0.58523	-0.155
Mof_N 	N 	0.12139	0.47466	0.6004	-0.23
Mof_N 	N 	0.0925	0.49874	0.62722	-0.262
Mof_N 	N 	0.12494	0.52001	0.65114	-0.227
Mof_N 	N 	0.17137	0.56397	0.6556	-0.151
Mof_S 	S 	0.16525	0.32689	0.45888	-0.061
Mof_S 	S 	0.05016	0.50491	0.6343	-0.062
Mof_C 	C 	0.53122	0.41105	0.14916	0.041
Mof_H 	H 	0.5346	0.3983	0.156	0.011
Mof_C 	C 	0.54316	0.42845	0.15367	-0.051
Mof_C 	C 	0.53806	0.44733	0.144	0.009
Mof_H 	H 	0.546	0.4596	0.1466	0.037
Mof_C 	C 	0.52116	0.4476	0.13056	-0.099
Mof_H 	H 	0.5171	0.4602	0.1239	0.066
Mof_C 	C 	0.51015	0.42924	0.1269	0.059
Mof_H 	H 	0.4985	0.4296	0.1177	0
Mof_C 	C 	0.60172	0.34302	0.28121	0.096
Mof_C 	C 	0.58518	0.35863	0.23466	0.056
Mof_H 	H 	0.5864	0.3477	0.2447	-0.001
Mof_C 	C 	0.56736	0.35944	0.22205	-0.098
Mof_H 	H 	0.557	0.3489	0.2231	0.065
Mof_C 	C 	0.56499	0.37551	0.20823	0.009
Mof_H 	H 	0.5528	0.3765	0.1998	0.037
Mof_C 	C 	0.58094	0.39057	0.20667	-0.05
Mof_C 	C 	0.59831	0.38826	0.21935	0.039
Mof_H 	H 	0.6092	0.3983	0.2182	0.014
Mof_C 	C 	0.57962	0.40791	0.19153	0.134
Mof_C 	C 	0.56177	0.42619	0.1673	0.138
Mof_C 	C 	0.5943	0.43553	0.17578	0.14
Mof_C 	C 	0.61275	0.46242	0.15435	0.044
Mof_H 	H 	0.6007	0.4628	0.1456	0.009
Mof_C 	C 	0.61271	0.44878	0.17164	-0.053
Mof_C 	C 	0.63072	0.4479	0.18399	0.008
Mof_H 	H 	0.6315	0.4388	0.1957	0.038
Mof_C 	C 	0.64744	0.46063	0.17859	-0.097
Mof_H 	H 	0.66	0.4603	0.1866	0.065
Mof_C 	C 	0.64585	0.47377	0.16158	0.057
Mof_H 	H 	0.6574	0.4825	0.1582	0.002
Mof_C 	C 	0.67504	0.50126	0.11991	0.104
Mof_C 	C 	0.63864	0.5176	0.08293	0.06
Mof_H 	H 	0.6493	0.5073	0.0841	0
Mof_C 	C 	0.63786	0.52925	0.06527	-0.1
Mof_H 	H 	0.6473	0.5266	0.0541	0.068
Mof_C 	C 	0.62298	0.54519	0.06355	0.008
Mof_H 	H 	0.6222	0.5537	0.0514	0.038
Mof_C 	C 	0.60933	0.54822	0.08011	-0.052
Mof_C 	C 	0.61077	0.53496	0.09741	0.043
Mof_H 	H 	0.6011	0.5367	0.1086	0.01
Mof_C 	C 	0.59304	0.56433	0.07939	0.134
Mof_N 	N 	0.51527	0.41093	0.13587	-0.226
Mof_N 	N 	0.61377	0.35431	0.27354	-0.258
Mof_N 	N 	0.60067	0.37273	0.23319	-0.226
Mof_N 	N 	0.59636	0.4203	0.18948	-0.153
Mof_N 	N 	0.56193	0.4099	0.18039	-0.151
Mof_N 	N 	0.57715	0.4397	0.16477	-0.155
Mof_N 	N 	0.62861	0.47466	0.1496	-0.23
Mof_N 	N 	0.6575	0.49874	0.12278	-0.262
Mof_N 	N 	0.62506	0.52001	0.09886	-0.227
Mof_N 	N 	0.57863	0.56397	0.0944	-0.151
Mof_S 	S 	0.58475	0.32689	0.29112	-0.061
Mof_S 	S 	0.69984	0.50491	0.1157	-0.062
Mof_C 	C 	0.53122	0.91105	0.64916	0.041
Mof_H 	H 	0.5346	0.8983	0.656	0.011
Mof_C 	C 	0.54316	0.92845	0.65367	-0.051
Mof_C 	C 	0.53806	0.94733	0.644	0.009
Mof_H 	H 	0.546	0.9596	0.6466	0.037
Mof_C 	C 	0.52116	0.9476	0.63056	-0.099
Mof_H 	H 	0.5171	0.9602	0.6239	0.066
Mof_C 	C 	0.51015	0.92924	0.6269	0.059
Mof_H 	H 	0.4985	0.9296	0.6177	0
Mof_C 	C 	0.60172	0.84302	0.78121	0.096
Mof_C 	C 	0.58518	0.85863	0.73466	0.056
Mof_H 	H 	0.5864	0.8477	0.7447	-0.001
Mof_C 	C 	0.56736	0.85944	0.72205	-0.098
Mof_H 	H 	0.557	0.8489	0.7231	0.065
Mof_C 	C 	0.56499	0.87551	0.70823	0.009
Mof_H 	H 	0.5528	0.8765	0.6998	0.037
Mof_C 	C 	0.58094	0.89057	0.70667	-0.05
Mof_C 	C 	0.59831	0.88826	0.71935	0.039
Mof_H 	H 	0.6092	0.8983	0.7182	0.014
Mof_C 	C 	0.57962	0.90791	0.69153	0.134
Mof_C 	C 	0.56177	0.92619	0.6673	0.138
Mof_C 	C 	0.5943	0.93553	0.67578	0.14
Mof_C 	C 	0.61275	0.96242	0.65435	0.044
Mof_H 	H 	0.6007	0.9628	0.6456	0.009
Mof_C 	C 	0.61271	0.94878	0.67164	-0.053
Mof_C 	C 	0.63072	0.9479	0.68399	0.008
Mof_H 	H 	0.6315	0.9388	0.6957	0.038
Mof_C 	C 	0.64744	0.96063	0.67859	-0.097
Mof_H 	H 	0.66	0.9603	0.6866	0.065
Mof_C 	C 	0.64585	0.97377	0.66158	0.057
Mof_H 	H 	0.6574	0.9825	0.6582	0.002
Mof_C 	C 	0.67504	0.00126	0.61991	0.104
Mof_C 	C 	0.63864	0.0176	0.58293	0.06
Mof_H 	H 	0.6493	0.0073	0.5841	0
Mof_C 	C 	0.63786	0.02925	0.56527	-0.1
Mof_H 	H 	0.6473	0.0266	0.5541	0.068
Mof_C 	C 	0.62298	0.04519	0.56355	0.008
Mof_H 	H 	0.6222	0.0537	0.5514	0.038
Mof_C 	C 	0.60933	0.04822	0.58011	-0.052
Mof_C 	C 	0.61077	0.03496	0.59741	0.043
Mof_H 	H 	0.6011	0.0367	0.6086	0.01
Mof_C 	C 	0.59304	0.06433	0.57939	0.134
Mof_N 	N 	0.51527	0.91093	0.63587	-0.226
Mof_N 	N 	0.61377	0.85431	0.77354	-0.258
Mof_N 	N 	0.60067	0.87273	0.73319	-0.226
Mof_N 	N 	0.59636	0.9203	0.68948	-0.153
Mof_N 	N 	0.56193	0.9099	0.68039	-0.151
Mof_N 	N 	0.57715	0.9397	0.66477	-0.155
Mof_N 	N 	0.62861	0.97466	0.6496	-0.23
Mof_N 	N 	0.6575	0.99874	0.62278	-0.262
Mof_N 	N 	0.62506	0.02001	0.59886	-0.227
Mof_N 	N 	0.57863	0.06397	0.5944	-0.151
Mof_S 	S 	0.58475	0.82689	0.79112	-0.061
Mof_S 	S 	0.69984	0.00491	0.6157	-0.062
Mof_C 	C 	0.03122	0.41105	0.64916	0.041
Mof_H 	H 	0.0346	0.3983	0.656	0.011
Mof_C 	C 	0.04316	0.42845	0.65367	-0.051
Mof_C 	C 	0.03806	0.44733	0.644	0.008
Mof_H 	H 	0.046	0.4596	0.6466	0.037
Mof_C 	C 	0.02116	0.4476	0.63056	-0.099
Mof_H 	H 	0.0171	0.4602	0.6239	0.066
Mof_C 	C 	0.01015	0.42924	0.6269	0.059
Mof_H 	H 	0.9985	0.4296	0.6177	0
Mof_C 	C 	0.10172	0.34302	0.78121	0.096
Mof_C 	C 	0.08518	0.35863	0.73466	0.056
Mof_H 	H 	0.0864	0.3477	0.7447	-0.001
Mof_C 	C 	0.06736	0.35944	0.72205	-0.098
Mof_H 	H 	0.057	0.3489	0.7231	0.065
Mof_C 	C 	0.06499	0.37551	0.70823	0.009
Mof_H 	H 	0.0528	0.3765	0.6998	0.037
Mof_C 	C 	0.08094	0.39057	0.70667	-0.05
Mof_C 	C 	0.09831	0.38826	0.71935	0.039
Mof_H 	H 	0.1092	0.3983	0.7182	0.014
Mof_C 	C 	0.07962	0.40791	0.69153	0.134
Mof_C 	C 	0.06177	0.42619	0.6673	0.138
Mof_C 	C 	0.0943	0.43553	0.67578	0.14
Mof_C 	C 	0.11275	0.46242	0.65435	0.044
Mof_H 	H 	0.1007	0.4628	0.6456	0.009
Mof_C 	C 	0.11271	0.44878	0.67164	-0.053
Mof_C 	C 	0.13072	0.4479	0.68399	0.008
Mof_H 	H 	0.1315	0.4388	0.6957	0.038
Mof_C 	C 	0.14744	0.46063	0.67859	-0.097
Mof_H 	H 	0.16	0.4603	0.6866	0.065
Mof_C 	C 	0.14585	0.47377	0.66158	0.057
Mof_H 	H 	0.1574	0.4825	0.6582	0.002
Mof_C 	C 	0.17504	0.50126	0.61991	0.104
Mof_C 	C 	0.13864	0.5176	0.58293	0.06
Mof_H 	H 	0.1493	0.5073	0.5841	0
Mof_C 	C 	0.13786	0.52925	0.56527	-0.1
Mof_H 	H 	0.1473	0.5266	0.5541	0.068
Mof_C 	C 	0.12298	0.54519	0.56355	0.008
Mof_H 	H 	0.1222	0.5537	0.5514	0.038
Mof_C 	C 	0.10933	0.54822	0.58011	-0.052
Mof_C 	C 	0.11077	0.53496	0.59741	0.043
Mof_H 	H 	0.1011	0.5367	0.6086	0.01
Mof_C 	C 	0.09304	0.56433	0.57939	0.134
Mof_N 	N 	0.01527	0.41093	0.63587	-0.225
Mof_N 	N 	0.11377	0.35431	0.77354	-0.258
Mof_N 	N 	0.10067	0.37273	0.73319	-0.226
Mof_N 	N 	0.09636	0.4203	0.68948	-0.153
Mof_N 	N 	0.06193	0.4099	0.68039	-0.151
Mof_N 	N 	0.07715	0.4397	0.66477	-0.155
Mof_N 	N 	0.12861	0.47466	0.6496	-0.23
Mof_N 	N 	0.1575	0.49874	0.62278	-0.262
Mof_N 	N 	0.12506	0.52001	0.59886	-0.227
Mof_N 	N 	0.07863	0.56397	0.5944	-0.151
Mof_S 	S 	0.08475	0.32689	0.79112	-0.061
Mof_S 	S 	0.19984	0.50491	0.6157	-0.062
Mof_C 	C 	0.03122	0.91105	0.14916	0.041
Mof_H 	H 	0.0346	0.8983	0.156	0.011
Mof_C 	C 	0.04316	0.92845	0.15367	-0.051
Mof_C 	C 	0.03806	0.94733	0.144	0.008
Mof_H 	H 	0.046	0.9596	0.1466	0.037
Mof_C 	C 	0.02116	0.9476	0.13056	-0.099
Mof_H 	H 	0.0171	0.9602	0.1239	0.066
Mof_C 	C 	0.01015	0.92924	0.1269	0.059
Mof_H 	H 	0.9985	0.9296	0.1177	0
Mof_C 	C 	0.10172	0.84302	0.28121	0.096
Mof_C 	C 	0.08518	0.85863	0.23466	0.056
Mof_H 	H 	0.0864	0.8477	0.2447	-0.001
Mof_C 	C 	0.06736	0.85944	0.22205	-0.098
Mof_H 	H 	0.057	0.8489	0.2231	0.065
Mof_C 	C 	0.06499	0.87551	0.20823	0.009
Mof_H 	H 	0.0528	0.8765	0.1998	0.037
Mof_C 	C 	0.08094	0.89057	0.20667	-0.05
Mof_C 	C 	0.09831	0.88826	0.21935	0.039
Mof_H 	H 	0.1092	0.8983	0.2182	0.014
Mof_C 	C 	0.07962	0.90791	0.19153	0.134
Mof_C 	C 	0.06177	0.92619	0.1673	0.138
Mof_C 	C 	0.0943	0.93553	0.17578	0.14
Mof_C 	C 	0.11275	0.96242	0.15435	0.044
Mof_H 	H 	0.1007	0.9628	0.1456	0.009
Mof_C 	C 	0.11271	0.94878	0.17164	-0.053
Mof_C 	C 	0.13072	0.9479	0.18399	0.008
Mof_H 	H 	0.1315	0.9388	0.1957	0.038
Mof_C 	C 	0.14744	0.96063	0.17859	-0.097
Mof_H 	H 	0.16	0.9603	0.1866	0.065
Mof_C 	C 	0.14585	0.97377	0.16158	0.057
Mof_H 	H 	0.1574	0.9825	0.1582	0.002
Mof_C 	C 	0.17504	0.00126	0.11991	0.104
Mof_C 	C 	0.13864	0.0176	0.08293	0.06
Mof_H 	H 	0.1493	0.0073	0.0841	0
Mof_C 	C 	0.13786	0.02925	0.06527	-0.1
Mof_H 	H 	0.1473	0.0266	0.0541	0.068
Mof_C 	C 	0.12298	0.04519	0.06355	0.008
Mof_H 	H 	0.1222	0.0537	0.0514	0.038
Mof_C 	C 	0.10933	0.04822	0.08011	-0.052
Mof_C 	C 	0.11077	0.03496	0.09741	0.043
Mof_H 	H 	0.1011	0.0367	0.1086	0.01
Mof_C 	C 	0.09304	0.06433	0.07939	0.134
Mof_N 	N 	0.01527	0.91093	0.13587	-0.225
Mof_N 	N 	0.11377	0.85431	0.27354	-0.258
Mof_N 	N 	0.10067	0.87273	0.23319	-0.226
Mof_N 	N 	0.09636	0.9203	0.18948	-0.153
Mof_N 	N 	0.06193	0.9099	0.18039	-0.151
Mof_N 	N 	0.07715	0.9397	0.16477	-0.155
Mof_N 	N 	0.12861	0.97466	0.1496	-0.23
Mof_N 	N 	0.1575	0.99874	0.12278	-0.262
Mof_N 	N 	0.12506	0.02001	0.09886	-0.227
Mof_N 	N 	0.07863	0.06397	0.0944	-0.151
Mof_S 	S 	0.08475	0.82689	0.29112	-0.061
Mof_S 	S 	0.19984	0.00491	0.1157	-0.062
Mof_C 	C 	0.21878	0.83895	0.64916	0.041
Mof_H 	H 	0.2154	0.8517	0.656	0.011
Mof_C 	C 	0.20684	0.82155	0.65367	-0.051
Mof_C 	C 	0.21194	0.80267	0.644	0.009
Mof_H 	H 	0.204	0.7904	0.6466	0.037
Mof_C 	C 	0.22884	0.8024	0.63056	-0.099
Mof_H 	H 	0.2329	0.7898	0.6239	0.066
Mof_C 	C 	0.23985	0.82076	0.6269	0.059
Mof_H 	H 	0.2515	0.8204	0.6177	0
Mof_C 	C 	0.14828	0.90698	0.78121	0.096
Mof_C 	C 	0.16482	0.89137	0.73466	0.056
Mof_H 	H 	0.1636	0.9023	0.7447	-0.001
Mof_C 	C 	0.18264	0.89056	0.72205	-0.098
Mof_H 	H 	0.193	0.9011	0.7231	0.065
Mof_C 	C 	0.18501	0.87449	0.70823	0.009
Mof_H 	H 	0.1972	0.8735	0.6998	0.037
Mof_C 	C 	0.16906	0.85943	0.70667	-0.05
Mof_C 	C 	0.15169	0.86174	0.71935	0.039
Mof_H 	H 	0.1408	0.8517	0.7182	0.014
Mof_C 	C 	0.17038	0.84209	0.69153	0.134
Mof_C 	C 	0.18823	0.82381	0.6673	0.138
Mof_C 	C 	0.1557	0.81447	0.67578	0.14
Mof_C 	C 	0.13725	0.78758	0.65435	0.044
Mof_H 	H 	0.1493	0.7872	0.6456	0.009
Mof_C 	C 	0.13729	0.80122	0.67164	-0.053
Mof_C 	C 	0.11928	0.8021	0.68399	0.008
Mof_H 	H 	0.1185	0.8112	0.6957	0.038
Mof_C 	C 	0.10256	0.78937	0.67859	-0.097
Mof_H 	H 	0.09	0.7897	0.6866	0.065
Mof_C 	C 	0.10415	0.77623	0.66158	0.057
Mof_H 	H 	0.0926	0.7675	0.6582	0.002
Mof_C 	C 	0.07496	0.74874	0.61991	0.104
Mof_C 	C 	0.11136	0.7324	0.58293	0.06
Mof_H 	H 	0.1007	0.7427	0.5841	0
Mof_C 	C 	0.11214	0.72075	0.56527	-0.1
Mof_H 	H 	0.1027	0.7234	0.5541	0.068
Mof_C 	C 	0.12702	0.70481	0.56355	0.008
Mof_H 	H 	0.1278	0.6963	0.5514	0.038
Mof_C 	C 	0.14067	0.70178	0.58011	-0.052
Mof_C 	C 	0.13923	0.71504	0.59741	0.043
Mof_H 	H 	0.1489	0.7133	0.6086	0.01
Mof_C 	C 	0.15696	0.68567	0.57939	0.134
Mof_N 	N 	0.23473	0.83907	0.63587	-0.226
Mof_N 	N 	0.13623	0.89569	0.77354	-0.258
Mof_N 	N 	0.14933	0.87727	0.73319	-0.226
Mof_N 	N 	0.15364	0.8297	0.68948	-0.153
Mof_N 	N 	0.18807	0.8401	0.68039	-0.151
Mof_N 	N 	0.17285	0.8103	0.66477	-0.155
Mof_N 	N 	0.12139	0.77534	0.6496	-0.23
Mof_N 	N 	0.0925	0.75126	0.62278	-0.262
Mof_N 	N 	0.12494	0.72999	0.59886	-0.227
Mof_N 	N 	0.17137	0.68603	0.5944	-0.151
Mof_S 	S 	0.16525	0.92311	0.79112	-0.061
Mof_S 	S 	0.05016	0.74509	0.6157	-0.062
Mof_C 	C 	0.21878	0.33895	0.14916	0.041
Mof_H 	H 	0.2154	0.3517	0.156	0.011
Mof_C 	C 	0.20684	0.32155	0.15367	-0.051
Mof_C 	C 	0.21194	0.30267	0.144	0.009
Mof_H 	H 	0.204	0.2904	0.1466	0.037
Mof_C 	C 	0.22884	0.3024	0.13056	-0.099
Mof_H 	H 	0.2329	0.2898	0.1239	0.066
Mof_C 	C 	0.23985	0.32076	0.1269	0.059
Mof_H 	H 	0.2515	0.3204	0.1177	0
Mof_C 	C 	0.14828	0.40698	0.28121	0.096
Mof_C 	C 	0.16482	0.39137	0.23466	0.056
Mof_H 	H 	0.1636	0.4023	0.2447	-0.001
Mof_C 	C 	0.18264	0.39056	0.22205	-0.098
Mof_H 	H 	0.193	0.4011	0.2231	0.065
Mof_C 	C 	0.18501	0.37449	0.20823	0.009
Mof_H 	H 	0.1972	0.3735	0.1998	0.037
Mof_C 	C 	0.16906	0.35943	0.20667	-0.05
Mof_C 	C 	0.15169	0.36174	0.21935	0.039
Mof_H 	H 	0.1408	0.3517	0.2182	0.014
Mof_C 	C 	0.17038	0.34209	0.19153	0.134
Mof_C 	C 	0.18823	0.32381	0.1673	0.138
Mof_C 	C 	0.1557	0.31447	0.17578	0.14
Mof_C 	C 	0.13725	0.28758	0.15435	0.044
Mof_H 	H 	0.1493	0.2872	0.1456	0.009
Mof_C 	C 	0.13729	0.30122	0.17164	-0.053
Mof_C 	C 	0.11928	0.3021	0.18399	0.008
Mof_H 	H 	0.1185	0.3112	0.1957	0.038
Mof_C 	C 	0.10256	0.28937	0.17859	-0.097
Mof_H 	H 	0.09	0.2897	0.1866	0.065
Mof_C 	C 	0.10415	0.27623	0.16158	0.057
Mof_H 	H 	0.0926	0.2675	0.1582	0.002
Mof_C 	C 	0.07496	0.24874	0.11991	0.104
Mof_C 	C 	0.11136	0.2324	0.08293	0.06
Mof_H 	H 	0.1007	0.2427	0.0841	0
Mof_C 	C 	0.11214	0.22075	0.06527	-0.1
Mof_H 	H 	0.1027	0.2234	0.0541	0.068
Mof_C 	C 	0.12702	0.20481	0.06355	0.008
Mof_H 	H 	0.1278	0.1963	0.0514	0.038
Mof_C 	C 	0.14067	0.20178	0.08011	-0.052
Mof_C 	C 	0.13923	0.21504	0.09741	0.043
Mof_H 	H 	0.1489	0.2133	0.1086	0.01
Mof_C 	C 	0.15696	0.18567	0.07939	0.134
Mof_N 	N 	0.23473	0.33907	0.13587	-0.226
Mof_N 	N 	0.13623	0.39569	0.27354	-0.258
Mof_N 	N 	0.14933	0.37727	0.23319	-0.226
Mof_N 	N 	0.15364	0.3297	0.18948	-0.153
Mof_N 	N 	0.18807	0.3401	0.18039	-0.151
Mof_N 	N 	0.17285	0.3103	0.16477	-0.155
Mof_N 	N 	0.12139	0.27534	0.1496	-0.23
Mof_N 	N 	0.0925	0.25126	0.12278	-0.262
Mof_N 	N 	0.12494	0.22999	0.09886	-0.227
Mof_N 	N 	0.17137	0.18603	0.0944	-0.151
Mof_S 	S 	0.16525	0.42311	0.29112	-0.061
Mof_S 	S 	0.05016	0.24509	0.1157	-0.062
Mof_C 	C 	0.71878	0.83895	0.14916	0.041
Mof_H 	H 	0.7154	0.8517	0.156	0.011
Mof_C 	C 	0.70684	0.82155	0.15367	-0.051
Mof_C 	C 	0.71194	0.80267	0.144	0.009
Mof_H 	H 	0.704	0.7904	0.1466	0.037
Mof_C 	C 	0.72884	0.8024	0.13056	-0.099
Mof_H 	H 	0.7329	0.7898	0.1239	0.066
Mof_C 	C 	0.73985	0.82076	0.1269	0.059
Mof_H 	H 	0.7515	0.8204	0.1177	0
Mof_C 	C 	0.64828	0.90698	0.28121	0.096
Mof_C 	C 	0.66482	0.89137	0.23466	0.056
Mof_H 	H 	0.6636	0.9023	0.2447	-0.001
Mof_C 	C 	0.68264	0.89056	0.22205	-0.098
Mof_H 	H 	0.693	0.9011	0.2231	0.065
Mof_C 	C 	0.68501	0.87449	0.20823	0.009
Mof_H 	H 	0.6972	0.8735	0.1998	0.037
Mof_C 	C 	0.66906	0.85943	0.20667	-0.05
Mof_C 	C 	0.65169	0.86174	0.21935	0.039
Mof_H 	H 	0.6408	0.8517	0.2182	0.014
Mof_C 	C 	0.67038	0.84209	0.19153	0.134
Mof_C 	C 	0.68823	0.82381	0.1673	0.138
Mof_C 	C 	0.6557	0.81447	0.17578	0.14
Mof_C 	C 	0.63725	0.78758	0.15435	0.044
Mof_H 	H 	0.6493	0.7872	0.1456	0.009
Mof_C 	C 	0.63729	0.80122	0.17164	-0.053
Mof_C 	C 	0.61928	0.8021	0.18399	0.008
Mof_H 	H 	0.6185	0.8112	0.1957	0.038
Mof_C 	C 	0.60256	0.78937	0.17859	-0.097
Mof_H 	H 	0.59	0.7897	0.1866	0.065
Mof_C 	C 	0.60415	0.77623	0.16158	0.057
Mof_H 	H 	0.5926	0.7675	0.1582	0.002
Mof_C 	C 	0.57496	0.74874	0.11991	0.104
Mof_C 	C 	0.61136	0.7324	0.08293	0.06
Mof_H 	H 	0.6007	0.7427	0.0841	0
Mof_C 	C 	0.61214	0.72075	0.06527	-0.1
Mof_H 	H 	0.6027	0.7234	0.0541	0.068
Mof_C 	C 	0.62702	0.70481	0.06355	0.008
Mof_H 	H 	0.6278	0.6963	0.0514	0.038
Mof_C 	C 	0.64067	0.70178	0.08011	-0.052
Mof_C 	C 	0.63923	0.71504	0.09741	0.043
Mof_H 	H 	0.6489	0.7133	0.1086	0.01
Mof_C 	C 	0.65696	0.68567	0.07939	0.134
Mof_N 	N 	0.73473	0.83907	0.13587	-0.226
Mof_N 	N 	0.63623	0.89569	0.27354	-0.258
Mof_N 	N 	0.64933	0.87727	0.23319	-0.226
Mof_N 	N 	0.65364	0.8297	0.18948	-0.153
Mof_N 	N 	0.68807	0.8401	0.18039	-0.151
Mof_N 	N 	0.67285	0.8103	0.16477	-0.155
Mof_N 	N 	0.62139	0.77534	0.1496	-0.23
Mof_N 	N 	0.5925	0.75126	0.12278	-0.262
Mof_N 	N 	0.62494	0.72999	0.09886	-0.227
Mof_N 	N 	0.67137	0.68603	0.0944	-0.151
Mof_S 	S 	0.66525	0.92311	0.29112	-0.061
Mof_S 	S 	0.55016	0.74509	0.1157	-0.062
Mof_C 	C 	0.71878	0.33895	0.64916	0.041
Mof_H 	H 	0.7154	0.3517	0.656	0.011
Mof_C 	C 	0.70684	0.32155	0.65367	-0.051
Mof_C 	C 	0.71194	0.30267	0.644	0.009
Mof_H 	H 	0.704	0.2904	0.6466	0.037
Mof_C 	C 	0.72884	0.3024	0.63056	-0.099
Mof_H 	H 	0.7329	0.2898	0.6239	0.066
Mof_C 	C 	0.73985	0.32076	0.6269	0.059
Mof_H 	H 	0.7515	0.3204	0.6177	0
Mof_C 	C 	0.64828	0.40698	0.78121	0.096
Mof_C 	C 	0.66482	0.39137	0.73466	0.056
Mof_H 	H 	0.6636	0.4023	0.7447	-0.001
Mof_C 	C 	0.68264	0.39056	0.72205	-0.098
Mof_H 	H 	0.693	0.4011	0.7231	0.065
Mof_C 	C 	0.68501	0.37449	0.70823	0.009
Mof_H 	H 	0.6972	0.3735	0.6998	0.037
Mof_C 	C 	0.66906	0.35943	0.70667	-0.05
Mof_C 	C 	0.65169	0.36174	0.71935	0.039
Mof_H 	H 	0.6408	0.3517	0.7182	0.014
Mof_C 	C 	0.67038	0.34209	0.69153	0.134
Mof_C 	C 	0.68823	0.32381	0.6673	0.138
Mof_C 	C 	0.6557	0.31447	0.67578	0.14
Mof_C 	C 	0.63725	0.28758	0.65435	0.044
Mof_H 	H 	0.6493	0.2872	0.6456	0.009
Mof_C 	C 	0.63729	0.30122	0.67164	-0.053
Mof_C 	C 	0.61928	0.3021	0.68399	0.008
Mof_H 	H 	0.6185	0.3112	0.6957	0.038
Mof_C 	C 	0.60256	0.28937	0.67859	-0.097
Mof_H 	H 	0.59	0.2897	0.6866	0.065
Mof_C 	C 	0.60415	0.27623	0.66158	0.057
Mof_H 	H 	0.5926	0.2675	0.6582	0.002
Mof_C 	C 	0.57496	0.24874	0.61991	0.104
Mof_C 	C 	0.61136	0.2324	0.58293	0.06
Mof_H 	H 	0.6007	0.2427	0.5841	0
Mof_C 	C 	0.61214	0.22075	0.56527	-0.1
Mof_H 	H 	0.6027	0.2234	0.5541	0.068
Mof_C 	C 	0.62702	0.20481	0.56355	0.008
Mof_H 	H 	0.6278	0.1963	0.5514	0.038
Mof_C 	C 	0.64067	0.20178	0.58011	-0.052
Mof_C 	C 	0.63923	0.21504	0.59741	0.043
Mof_H 	H 	0.6489	0.2133	0.6086	0.01
Mof_C 	C 	0.65696	0.18567	0.57939	0.134
Mof_N 	N 	0.73473	0.33907	0.63587	-0.226
Mof_N 	N 	0.63623	0.39569	0.77354	-0.258
Mof_N 	N 	0.64933	0.37727	0.73319	-0.226
Mof_N 	N 	0.65364	0.3297	0.68948	-0.153
Mof_N 	N 	0.68807	0.3401	0.68039	-0.151
Mof_N 	N 	0.67285	0.3103	0.66477	-0.155
Mof_N 	N 	0.62139	0.27534	0.6496	-0.23
Mof_N 	N 	0.5925	0.25126	0.62278	-0.262
Mof_N 	N 	0.62494	0.22999	0.59886	-0.227
Mof_N 	N 	0.67137	0.18603	0.5944	-0.151
Mof_S 	S 	0.66525	0.42311	0.79112	-0.061
Mof_S 	S 	0.55016	0.24509	0.6157	-0.062
Mof_C 	C 	0.83895	0.64916	0.21878	0.041
Mof_H 	H 	0.8517	0.656	0.2154	0.011
Mof_C 	C 	0.82155	0.65367	0.20684	-0.051
Mof_C 	C 	0.80267	0.644	0.21194	0.009
Mof_H 	H 	0.7904	0.6466	0.204	0.037
Mof_C 	C 	0.8024	0.63056	0.22884	-0.099
Mof_H 	H 	0.7898	0.6239	0.2329	0.066
Mof_C 	C 	0.82076	0.6269	0.23985	0.059
Mof_H 	H 	0.8204	0.6177	0.2515	0
Mof_C 	C 	0.90698	0.78121	0.14828	0.096
Mof_C 	C 	0.89137	0.73466	0.16482	0.056
Mof_H 	H 	0.9023	0.7447	0.1636	-0.001
Mof_C 	C 	0.89056	0.72205	0.18264	-0.098
Mof_H 	H 	0.9011	0.7231	0.193	0.065
Mof_C 	C 	0.87449	0.70823	0.18501	0.009
Mof_H 	H 	0.8735	0.6998	0.1972	0.037
Mof_C 	C 	0.85943	0.70667	0.16906	-0.05
Mof_C 	C 	0.86174	0.71935	0.15169	0.039
Mof_H 	H 	0.8517	0.7182	0.1408	0.014
Mof_C 	C 	0.84209	0.69153	0.17038	0.134
Mof_C 	C 	0.82381	0.6673	0.18823	0.138
Mof_C 	C 	0.81447	0.67578	0.1557	0.14
Mof_C 	C 	0.78758	0.65435	0.13725	0.044
Mof_H 	H 	0.7872	0.6456	0.1493	0.009
Mof_C 	C 	0.80122	0.67164	0.13729	-0.053
Mof_C 	C 	0.8021	0.68399	0.11928	0.008
Mof_H 	H 	0.8112	0.6957	0.1185	0.038
Mof_C 	C 	0.78937	0.67859	0.10256	-0.097
Mof_H 	H 	0.7897	0.6866	0.09	0.065
Mof_C 	C 	0.77623	0.66158	0.10415	0.057
Mof_H 	H 	0.7675	0.6582	0.0926	0.002
Mof_C 	C 	0.74874	0.61991	0.07496	0.104
Mof_C 	C 	0.7324	0.58293	0.11136	0.06
Mof_H 	H 	0.7427	0.5841	0.1007	0
Mof_C 	C 	0.72075	0.56527	0.11214	-0.1
Mof_H 	H 	0.7234	0.5541	0.1027	0.068
Mof_C 	C 	0.70481	0.56355	0.12702	0.008
Mof_H 	H 	0.6963	0.5514	0.1278	0.038
Mof_C 	C 	0.70178	0.58011	0.14067	-0.052
Mof_C 	C 	0.71504	0.59741	0.13923	0.043
Mof_H 	H 	0.7133	0.6086	0.1489	0.01
Mof_C 	C 	0.68567	0.57939	0.15696	0.134
Mof_N 	N 	0.83907	0.63587	0.23473	-0.226
Mof_N 	N 	0.89569	0.77354	0.13623	-0.258
Mof_N 	N 	0.87727	0.73319	0.14933	-0.226
Mof_N 	N 	0.8297	0.68948	0.15364	-0.153
Mof_N 	N 	0.8401	0.68039	0.18807	-0.151
Mof_N 	N 	0.8103	0.66477	0.17285	-0.155
Mof_N 	N 	0.77534	0.6496	0.12139	-0.23
Mof_N 	N 	0.75126	0.62278	0.0925	-0.262
Mof_N 	N 	0.72999	0.59886	0.12494	-0.227
Mof_N 	N 	0.68603	0.5944	0.17137	-0.151
Mof_S 	S 	0.92311	0.79112	0.16525	-0.061
Mof_S 	S 	0.74509	0.6157	0.05016	-0.062
Mof_C 	C 	0.83895	0.14916	0.71878	0.041
Mof_H 	H 	0.8517	0.156	0.7154	0.011
Mof_C 	C 	0.82155	0.15367	0.70684	-0.051
Mof_C 	C 	0.80267	0.144	0.71194	0.009
Mof_H 	H 	0.7904	0.1466	0.704	0.037
Mof_C 	C 	0.8024	0.13056	0.72884	-0.099
Mof_H 	H 	0.7898	0.1239	0.7329	0.066
Mof_C 	C 	0.82076	0.1269	0.73985	0.059
Mof_H 	H 	0.8204	0.1177	0.7515	0
Mof_C 	C 	0.90698	0.28121	0.64828	0.096
Mof_C 	C 	0.89137	0.23466	0.66482	0.056
Mof_H 	H 	0.9023	0.2447	0.6636	-0.001
Mof_C 	C 	0.89056	0.22205	0.68264	-0.098
Mof_H 	H 	0.9011	0.2231	0.693	0.065
Mof_C 	C 	0.87449	0.20823	0.68501	0.009
Mof_H 	H 	0.8735	0.1998	0.6972	0.037
Mof_C 	C 	0.85943	0.20667	0.66906	-0.05
Mof_C 	C 	0.86174	0.21935	0.65169	0.039
Mof_H 	H 	0.8517	0.2182	0.6408	0.014
Mof_C 	C 	0.84209	0.19153	0.67038	0.134
Mof_C 	C 	0.82381	0.1673	0.68823	0.138
Mof_C 	C 	0.81447	0.17578	0.6557	0.14
Mof_C 	C 	0.78758	0.15435	0.63725	0.044
Mof_H 	H 	0.7872	0.1456	0.6493	0.009
Mof_C 	C 	0.80122	0.17164	0.63729	-0.053
Mof_C 	C 	0.8021	0.18399	0.61928	0.008
Mof_H 	H 	0.8112	0.1957	0.6185	0.038
Mof_C 	C 	0.78937	0.17859	0.60256	-0.097
Mof_H 	H 	0.7897	0.1866	0.59	0.065
Mof_C 	C 	0.77623	0.16158	0.60415	0.057
Mof_H 	H 	0.7675	0.1582	0.5926	0.002
Mof_C 	C 	0.74874	0.11991	0.57496	0.104
Mof_C 	C 	0.7324	0.08293	0.61136	0.06
Mof_H 	H 	0.7427	0.0841	0.6007	0
Mof_C 	C 	0.72075	0.06527	0.61214	-0.1
Mof_H 	H 	0.7234	0.0541	0.6027	0.068
Mof_C 	C 	0.70481	0.06355	0.62702	0.008
Mof_H 	H 	0.6963	0.0514	0.6278	0.038
Mof_C 	C 	0.70178	0.08011	0.64067	-0.052
Mof_C 	C 	0.71504	0.09741	0.63923	0.043
Mof_H 	H 	0.7133	0.1086	0.6489	0.01
Mof_C 	C 	0.68567	0.07939	0.65696	0.134
Mof_N 	N 	0.83907	0.13587	0.73473	-0.226
Mof_N 	N 	0.89569	0.27354	0.63623	-0.258
Mof_N 	N 	0.87727	0.23319	0.64933	-0.226
Mof_N 	N 	0.8297	0.18948	0.65364	-0.153
Mof_N 	N 	0.8401	0.18039	0.68807	-0.151
Mof_N 	N 	0.8103	0.16477	0.67285	-0.155
Mof_N 	N 	0.77534	0.1496	0.62139	-0.23
Mof_N 	N 	0.75126	0.12278	0.5925	-0.262
Mof_N 	N 	0.72999	0.09886	0.62494	-0.227
Mof_N 	N 	0.68603	0.0944	0.67137	-0.151
Mof_S 	S 	0.92311	0.29112	0.66525	-0.061
Mof_S 	S 	0.74509	0.1157	0.55016	-0.062
Mof_C 	C 	0.33895	0.64916	0.71878	0.041
Mof_H 	H 	0.3517	0.656	0.7154	0.011
Mof_C 	C 	0.32155	0.65367	0.70684	-0.051
Mof_C 	C 	0.30267	0.644	0.71194	0.009
Mof_H 	H 	0.2904	0.6466	0.704	0.037
Mof_C 	C 	0.3024	0.63056	0.72884	-0.099
Mof_H 	H 	0.2898	0.6239	0.7329	0.066
Mof_C 	C 	0.32076	0.6269	0.73985	0.059
Mof_H 	H 	0.3204	0.6177	0.7515	0
Mof_C 	C 	0.40698	0.78121	0.64828	0.096
Mof_C 	C 	0.39137	0.73466	0.66482	0.056
Mof_H 	H 	0.4023	0.7447	0.6636	-0.001
Mof_C 	C 	0.39056	0.72205	0.68264	-0.098
Mof_H 	H 	0.4011	0.7231	0.693	0.065
Mof_C 	C 	0.37449	0.70823	0.68501	0.009
Mof_H 	H 	0.3735	0.6998	0.6972	0.037
Mof_C 	C 	0.35943	0.70667	0.66906	-0.05
Mof_C 	C 	0.36174	0.71935	0.65169	0.039
Mof_H 	H 	0.3517	0.7182	0.6408	0.014
Mof_C 	C 	0.34209	0.69153	0.67038	0.134
Mof_C 	C 	0.32381	0.6673	0.68823	0.138
Mof_C 	C 	0.31447	0.67578	0.6557	0.14
Mof_C 	C 	0.28758	0.65435	0.63725	0.044
Mof_H 	H 	0.2872	0.6456	0.6493	0.009
Mof_C 	C 	0.30122	0.67164	0.63729	-0.053
Mof_C 	C 	0.3021	0.68399	0.61928	0.008
Mof_H 	H 	0.3112	0.6957	0.6185	0.038
Mof_C 	C 	0.28937	0.67859	0.60256	-0.097
Mof_H 	H 	0.2897	0.6866	0.59	0.065
Mof_C 	C 	0.27623	0.66158	0.60415	0.057
Mof_H 	H 	0.2675	0.6582	0.5926	0.002
Mof_C 	C 	0.24874	0.61991	0.57496	0.104
Mof_C 	C 	0.2324	0.58293	0.61136	0.06
Mof_H 	H 	0.2427	0.5841	0.6007	0
Mof_C 	C 	0.22075	0.56527	0.61214	-0.1
Mof_H 	H 	0.2234	0.5541	0.6027	0.068
Mof_C 	C 	0.20481	0.56355	0.62702	0.008
Mof_H 	H 	0.1963	0.5514	0.6278	0.038
Mof_C 	C 	0.20178	0.58011	0.64067	-0.052
Mof_C 	C 	0.21504	0.59741	0.63923	0.043
Mof_H 	H 	0.2133	0.6086	0.6489	0.01
Mof_C 	C 	0.18567	0.57939	0.65696	0.134
Mof_N 	N 	0.33907	0.63587	0.73473	-0.226
Mof_N 	N 	0.39569	0.77354	0.63623	-0.258
Mof_N 	N 	0.37727	0.73319	0.64933	-0.226
Mof_N 	N 	0.3297	0.68948	0.65364	-0.153
Mof_N 	N 	0.3401	0.68039	0.68807	-0.151
Mof_N 	N 	0.3103	0.66477	0.67285	-0.155
Mof_N 	N 	0.27534	0.6496	0.62139	-0.23
Mof_N 	N 	0.25126	0.62278	0.5925	-0.262
Mof_N 	N 	0.22999	0.59886	0.62494	-0.227
Mof_N 	N 	0.18603	0.5944	0.67137	-0.151
Mof_S 	S 	0.42311	0.79112	0.66525	-0.061
Mof_S 	S 	0.24509	0.6157	0.55016	-0.062
Mof_C 	C 	0.33895	0.14916	0.21878	0.041
Mof_H 	H 	0.3517	0.156	0.2154	0.011
Mof_C 	C 	0.32155	0.15367	0.20684	-0.051
Mof_C 	C 	0.30267	0.144	0.21194	0.009
Mof_H 	H 	0.2904	0.1466	0.204	0.037
Mof_C 	C 	0.3024	0.13056	0.22884	-0.099
Mof_H 	H 	0.2898	0.1239	0.2329	0.066
Mof_C 	C 	0.32076	0.1269	0.23985	0.059
Mof_H 	H 	0.3204	0.1177	0.2515	0
Mof_C 	C 	0.40698	0.28121	0.14828	0.096
Mof_C 	C 	0.39137	0.23466	0.16482	0.056
Mof_H 	H 	0.4023	0.2447	0.1636	-0.001
Mof_C 	C 	0.39056	0.22205	0.18264	-0.098
Mof_H 	H 	0.4011	0.2231	0.193	0.065
Mof_C 	C 	0.37449	0.20823	0.18501	0.009
Mof_H 	H 	0.3735	0.1998	0.1972	0.037
Mof_C 	C 	0.35943	0.20667	0.16906	-0.05
Mof_C 	C 	0.36174	0.21935	0.15169	0.039
Mof_H 	H 	0.3517	0.2182	0.1408	0.014
Mof_C 	C 	0.34209	0.19153	0.17038	0.134
Mof_C 	C 	0.32381	0.1673	0.18823	0.138
Mof_C 	C 	0.31447	0.17578	0.1557	0.14
Mof_C 	C 	0.28758	0.15435	0.13725	0.044
Mof_H 	H 	0.2872	0.1456	0.1493	0.009
Mof_C 	C 	0.30122	0.17164	0.13729	-0.053
Mof_C 	C 	0.3021	0.18399	0.11928	0.008
Mof_H 	H 	0.3112	0.1957	0.1185	0.038
Mof_C 	C 	0.28937	0.17859	0.10256	-0.097
Mof_H 	H 	0.2897	0.1866	0.09	0.065
Mof_C 	C 	0.27623	0.16158	0.10415	0.057
Mof_H 	H 	0.2675	0.1582	0.0926	0.002
Mof_C 	C 	0.24874	0.11991	0.07496	0.104
Mof_C 	C 	0.2324	0.08293	0.11136	0.06
Mof_H 	H 	0.2427	0.0841	0.1007	0
Mof_C 	C 	0.22075	0.06527	0.11214	-0.1
Mof_H 	H 	0.2234	0.0541	0.1027	0.068
Mof_C 	C 	0.20481	0.06355	0.12702	0.008
Mof_H 	H 	0.1963	0.0514	0.1278	0.038
Mof_C 	C 	0.20178	0.08011	0.14067	-0.052
Mof_C 	C 	0.21504	0.09741	0.13923	0.043
Mof_H 	H 	0.2133	0.1086	0.1489	0.01
Mof_C 	C 	0.18567	0.07939	0.15696	0.134
Mof_N 	N 	0.33907	0.13587	0.23473	-0.226
Mof_N 	N 	0.39569	0.27354	0.13623	-0.258
Mof_N 	N 	0.37727	0.23319	0.14933	-0.226
Mof_N 	N 	0.3297	0.18948	0.15364	-0.153
Mof_N 	N 	0.3401	0.18039	0.18807	-0.151
Mof_N 	N 	0.3103	0.16477	0.17285	-0.155
Mof_N 	N 	0.27534	0.1496	0.12139	-0.23
Mof_N 	N 	0.25126	0.12278	0.0925	-0.262
Mof_N 	N 	0.22999	0.09886	0.12494	-0.227
Mof_N 	N 	0.18603	0.0944	0.17137	-0.151
Mof_S 	S 	0.42311	0.29112	0.16525	-0.061
Mof_S 	S 	0.24509	0.1157	0.05016	-0.062
Mof_C 	C 	0.41105	0.14916	0.53122	0.041
Mof_H 	H 	0.3983	0.156	0.5346	0.011
Mof_C 	C 	0.42845	0.15367	0.54316	-0.051
Mof_C 	C 	0.44733	0.144	0.53806	0.009
Mof_H 	H 	0.4596	0.1466	0.546	0.037
Mof_C 	C 	0.4476	0.13056	0.52116	-0.099
Mof_H 	H 	0.4602	0.1239	0.5171	0.066
Mof_C 	C 	0.42924	0.1269	0.51015	0.059
Mof_H 	H 	0.4296	0.1177	0.4985	0
Mof_C 	C 	0.34302	0.28121	0.60172	0.096
Mof_C 	C 	0.35863	0.23466	0.58518	0.056
Mof_H 	H 	0.3477	0.2447	0.5864	-0.001
Mof_C 	C 	0.35944	0.22205	0.56736	-0.098
Mof_H 	H 	0.3489	0.2231	0.557	0.065
Mof_C 	C 	0.37551	0.20823	0.56499	0.009
Mof_H 	H 	0.3765	0.1998	0.5528	0.037
Mof_C 	C 	0.39057	0.20667	0.58094	-0.05
Mof_C 	C 	0.38826	0.21935	0.59831	0.039
Mof_H 	H 	0.3983	0.2182	0.6092	0.014
Mof_C 	C 	0.40791	0.19153	0.57962	0.134
Mof_C 	C 	0.42619	0.1673	0.56177	0.138
Mof_C 	C 	0.43553	0.17578	0.5943	0.14
Mof_C 	C 	0.46242	0.15435	0.61275	0.044
Mof_H 	H 	0.4628	0.1456	0.6007	0.009
Mof_C 	C 	0.44878	0.17164	0.61271	-0.053
Mof_C 	C 	0.4479	0.18399	0.63072	0.008
Mof_H 	H 	0.4388	0.1957	0.6315	0.038
Mof_C 	C 	0.46063	0.17859	0.64744	-0.097
Mof_H 	H 	0.4603	0.1866	0.66	0.065
Mof_C 	C 	0.47377	0.16158	0.64585	0.057
Mof_H 	H 	0.4825	0.1582	0.6574	0.002
Mof_C 	C 	0.50126	0.11991	0.67504	0.104
Mof_C 	C 	0.5176	0.08293	0.63864	0.06
Mof_H 	H 	0.5073	0.0841	0.6493	0
Mof_C 	C 	0.52925	0.06527	0.63786	-0.1
Mof_H 	H 	0.5266	0.0541	0.6473	0.068
Mof_C 	C 	0.54519	0.06355	0.62298	0.008
Mof_H 	H 	0.5537	0.0514	0.6222	0.038
Mof_C 	C 	0.54822	0.08011	0.60933	-0.052
Mof_C 	C 	0.53496	0.09741	0.61077	0.043
Mof_H 	H 	0.5367	0.1086	0.6011	0.01
Mof_C 	C 	0.56433	0.07939	0.59304	0.134
Mof_N 	N 	0.41093	0.13587	0.51527	-0.226
Mof_N 	N 	0.35431	0.27354	0.61377	-0.258
Mof_N 	N 	0.37273	0.23319	0.60067	-0.226
Mof_N 	N 	0.4203	0.18948	0.59636	-0.153
Mof_N 	N 	0.4099	0.18039	0.56193	-0.151
Mof_N 	N 	0.4397	0.16477	0.57715	-0.155
Mof_N 	N 	0.47466	0.1496	0.62861	-0.23
Mof_N 	N 	0.49874	0.12278	0.6575	-0.262
Mof_N 	N 	0.52001	0.09886	0.62506	-0.227
Mof_N 	N 	0.56397	0.0944	0.57863	-0.151
Mof_S 	S 	0.32689	0.29112	0.58475	-0.061
Mof_S 	S 	0.50491	0.1157	0.69984	-0.062
Mof_C 	C 	0.41105	0.64916	0.03122	0.041
Mof_H 	H 	0.3983	0.656	0.0346	0.011
Mof_C 	C 	0.42845	0.65367	0.04316	-0.051
Mof_C 	C 	0.44733	0.644	0.03806	0.008
Mof_H 	H 	0.4596	0.6466	0.046	0.037
Mof_C 	C 	0.4476	0.63056	0.02116	-0.099
Mof_H 	H 	0.4602	0.6239	0.0171	0.066
Mof_C 	C 	0.42924	0.6269	0.01015	0.059
Mof_H 	H 	0.4296	0.6177	0.9985	0
Mof_C 	C 	0.34302	0.78121	0.10172	0.096
Mof_C 	C 	0.35863	0.73466	0.08518	0.056
Mof_H 	H 	0.3477	0.7447	0.0864	-0.001
Mof_C 	C 	0.35944	0.72205	0.06736	-0.098
Mof_H 	H 	0.3489	0.7231	0.057	0.065
Mof_C 	C 	0.37551	0.70823	0.06499	0.009
Mof_H 	H 	0.3765	0.6998	0.0528	0.037
Mof_C 	C 	0.39057	0.70667	0.08094	-0.05
Mof_C 	C 	0.38826	0.71935	0.09831	0.039
Mof_H 	H 	0.3983	0.7182	0.1092	0.014
Mof_C 	C 	0.40791	0.69153	0.07962	0.134
Mof_C 	C 	0.42619	0.6673	0.06177	0.138
Mof_C 	C 	0.43553	0.67578	0.0943	0.14
Mof_C 	C 	0.46242	0.65435	0.11275	0.044
Mof_H 	H 	0.4628	0.6456	0.1007	0.009
Mof_C 	C 	0.44878	0.67164	0.11271	-0.053
Mof_C 	C 	0.4479	0.68399	0.13072	0.008
Mof_H 	H 	0.4388	0.6957	0.1315	0.038
Mof_C 	C 	0.46063	0.67859	0.14744	-0.097
Mof_H 	H 	0.4603	0.6866	0.16	0.065
Mof_C 	C 	0.47377	0.66158	0.14585	0.057
Mof_H 	H 	0.4825	0.6582	0.1574	0.002
Mof_C 	C 	0.50126	0.61991	0.17504	0.104
Mof_C 	C 	0.5176	0.58293	0.13864	0.06
Mof_H 	H 	0.5073	0.5841	0.1493	0
Mof_C 	C 	0.52925	0.56527	0.13786	-0.1
Mof_H 	H 	0.5266	0.5541	0.1473	0.068
Mof_C 	C 	0.54519	0.56355	0.12298	0.008
Mof_H 	H 	0.5537	0.5514	0.1222	0.038
Mof_C 	C 	0.54822	0.58011	0.10933	-0.052
Mof_C 	C 	0.53496	0.59741	0.11077	0.043
Mof_H 	H 	0.5367	0.6086	0.1011	0.01
Mof_C 	C 	0.56433	0.57939	0.09304	0.134
Mof_N 	N 	0.41093	0.63587	0.01527	-0.225
Mof_N 	N 	0.35431	0.77354	0.11377	-0.258
Mof_N 	N 	0.37273	0.73319	0.10067	-0.226
Mof_N 	N 	0.4203	0.68948	0.09636	-0.153
Mof_N 	N 	0.4099	0.68039	0.06193	-0.151
Mof_N 	N 	0.4397	0.66477	0.07715	-0.155
Mof_N 	N 	0.47466	0.6496	0.12861	-0.23
Mof_N 	N 	0.49874	0.62278	0.1575	-0.262
Mof_N 	N 	0.52001	0.59886	0.12506	-0.227
Mof_N 	N 	0.56397	0.5944	0.07863	-0.151
Mof_S 	S 	0.32689	0.79112	0.08475	-0.061
Mof_S 	S 	0.50491	0.6157	0.19984	-0.062
Mof_C 	C 	0.91105	0.14916	0.03122	0.041
Mof_H 	H 	0.8983	0.156	0.0346	0.011
Mof_C 	C 	0.92845	0.15367	0.04316	-0.051
Mof_C 	C 	0.94733	0.144	0.03806	0.008
Mof_H 	H 	0.9596	0.1466	0.046	0.037
Mof_C 	C 	0.9476	0.13056	0.02116	-0.099
Mof_H 	H 	0.9602	0.1239	0.0171	0.066
Mof_C 	C 	0.92924	0.1269	0.01015	0.059
Mof_H 	H 	0.9296	0.1177	0.9985	0
Mof_C 	C 	0.84302	0.28121	0.10172	0.096
Mof_C 	C 	0.85863	0.23466	0.08518	0.056
Mof_H 	H 	0.8477	0.2447	0.0864	-0.001
Mof_C 	C 	0.85944	0.22205	0.06736	-0.098
Mof_H 	H 	0.8489	0.2231	0.057	0.065
Mof_C 	C 	0.87551	0.20823	0.06499	0.009
Mof_H 	H 	0.8765	0.1998	0.0528	0.037
Mof_C 	C 	0.89057	0.20667	0.08094	-0.05
Mof_C 	C 	0.88826	0.21935	0.09831	0.039
Mof_H 	H 	0.8983	0.2182	0.1092	0.014
Mof_C 	C 	0.90791	0.19153	0.07962	0.134
Mof_C 	C 	0.92619	0.1673	0.06177	0.138
Mof_C 	C 	0.93553	0.17578	0.0943	0.14
Mof_C 	C 	0.96242	0.15435	0.11275	0.044
Mof_H 	H 	0.9628	0.1456	0.1007	0.009
Mof_C 	C 	0.94878	0.17164	0.11271	-0.053
Mof_C 	C 	0.9479	0.18399	0.13072	0.008
Mof_H 	H 	0.9388	0.1957	0.1315	0.038
Mof_C 	C 	0.96063	0.17859	0.14744	-0.097
Mof_H 	H 	0.9603	0.1866	0.16	0.065
Mof_C 	C 	0.97377	0.16158	0.14585	0.057
Mof_H 	H 	0.9825	0.1582	0.1574	0.002
Mof_C 	C 	0.00126	0.11991	0.17504	0.104
Mof_C 	C 	0.0176	0.08293	0.13864	0.06
Mof_H 	H 	0.0073	0.0841	0.1493	0
Mof_C 	C 	0.02925	0.06527	0.13786	-0.1
Mof_H 	H 	0.0266	0.0541	0.1473	0.068
Mof_C 	C 	0.04519	0.06355	0.12298	0.008
Mof_H 	H 	0.0537	0.0514	0.1222	0.038
Mof_C 	C 	0.04822	0.08011	0.10933	-0.052
Mof_C 	C 	0.03496	0.09741	0.11077	0.043
Mof_H 	H 	0.0367	0.1086	0.1011	0.01
Mof_C 	C 	0.06433	0.07939	0.09304	0.134
Mof_N 	N 	0.91093	0.13587	0.01527	-0.225
Mof_N 	N 	0.85431	0.27354	0.11377	-0.258
Mof_N 	N 	0.87273	0.23319	0.10067	-0.226
Mof_N 	N 	0.9203	0.18948	0.09636	-0.153
Mof_N 	N 	0.9099	0.18039	0.06193	-0.151
Mof_N 	N 	0.9397	0.16477	0.07715	-0.155
Mof_N 	N 	0.97466	0.1496	0.12861	-0.23
Mof_N 	N 	0.99874	0.12278	0.1575	-0.262
Mof_N 	N 	0.02001	0.09886	0.12506	-0.227
Mof_N 	N 	0.06397	0.0944	0.07863	-0.151
Mof_S 	S 	0.82689	0.29112	0.08475	-0.061
Mof_S 	S 	0.00491	0.1157	0.19984	-0.062
Mof_C 	C 	0.91105	0.64916	0.53122	0.041
Mof_H 	H 	0.8983	0.656	0.5346	0.011
Mof_C 	C 	0.92845	0.65367	0.54316	-0.051
Mof_C 	C 	0.94733	0.644	0.53806	0.009
Mof_H 	H 	0.9596	0.6466	0.546	0.037
Mof_C 	C 	0.9476	0.63056	0.52116	-0.099
Mof_H 	H 	0.9602	0.6239	0.5171	0.066
Mof_C 	C 	0.92924	0.6269	0.51015	0.059
Mof_H 	H 	0.9296	0.6177	0.4985	0
Mof_C 	C 	0.84302	0.78121	0.60172	0.096
Mof_C 	C 	0.85863	0.73466	0.58518	0.056
Mof_H 	H 	0.8477	0.7447	0.5864	-0.001
Mof_C 	C 	0.85944	0.72205	0.56736	-0.098
Mof_H 	H 	0.8489	0.7231	0.557	0.065
Mof_C 	C 	0.87551	0.70823	0.56499	0.009
Mof_H 	H 	0.8765	0.6998	0.5528	0.037
Mof_C 	C 	0.89057	0.70667	0.58094	-0.05
Mof_C 	C 	0.88826	0.71935	0.59831	0.039
Mof_H 	H 	0.8983	0.7182	0.6092	0.014
Mof_C 	C 	0.90791	0.69153	0.57962	0.134
Mof_C 	C 	0.92619	0.6673	0.56177	0.138
Mof_C 	C 	0.93553	0.67578	0.5943	0.14
Mof_C 	C 	0.96242	0.65435	0.61275	0.044
Mof_H 	H 	0.9628	0.6456	0.6007	0.009
Mof_C 	C 	0.94878	0.67164	0.61271	-0.053
Mof_C 	C 	0.9479	0.68399	0.63072	0.008
Mof_H 	H 	0.9388	0.6957	0.6315	0.038
Mof_C 	C 	0.96063	0.67859	0.64744	-0.097
Mof_H 	H 	0.9603	0.6866	0.66	0.065
Mof_C 	C 	0.97377	0.66158	0.64585	0.057
Mof_H 	H 	0.9825	0.6582	0.6574	0.002
Mof_C 	C 	0.00126	0.61991	0.67504	0.104
Mof_C 	C 	0.0176	0.58293	0.63864	0.06
Mof_H 	H 	0.0073	0.5841	0.6493	0
Mof_C 	C 	0.02925	0.56527	0.63786	-0.1
Mof_H 	H 	0.0266	0.5541	0.6473	0.068
Mof_C 	C 	0.04519	0.56355	0.62298	0.008
Mof_H 	H 	0.0537	0.5514	0.6222	0.038
Mof_C 	C 	0.04822	0.58011	0.60933	-0.052
Mof_C 	C 	0.03496	0.59741	0.61077	0.043
Mof_H 	H 	0.0367	0.6086	0.6011	0.01
Mof_C 	C 	0.06433	0.57939	0.59304	0.134
Mof_N 	N 	0.91093	0.63587	0.51527	-0.226
Mof_N 	N 	0.85431	0.77354	0.61377	-0.258
Mof_N 	N 	0.87273	0.73319	0.60067	-0.226
Mof_N 	N 	0.9203	0.68948	0.59636	-0.153
Mof_N 	N 	0.9099	0.68039	0.56193	-0.151
Mof_N 	N 	0.9397	0.66477	0.57715	-0.155
Mof_N 	N 	0.97466	0.6496	0.62861	-0.23
Mof_N 	N 	0.99874	0.62278	0.6575	-0.262
Mof_N 	N 	0.02001	0.59886	0.62506	-0.227
Mof_N 	N 	0.06397	0.5944	0.57863	-0.151
Mof_S 	S 	0.82689	0.79112	0.58475	-0.061
Mof_S 	S 	0.00491	0.6157	0.69984	-0.062
Mof_C 	C 	0.91105	0.60084	0.71878	0.041
Mof_H 	H 	0.8983	0.594	0.7154	0.011
Mof_C 	C 	0.92845	0.59633	0.70684	-0.051
Mof_C 	C 	0.94733	0.606	0.71194	0.009
Mof_H 	H 	0.9596	0.6034	0.704	0.037
Mof_C 	C 	0.9476	0.61944	0.72884	-0.099
Mof_H 	H 	0.9602	0.6261	0.7329	0.066
Mof_C 	C 	0.92924	0.6231	0.73985	0.059
Mof_H 	H 	0.9296	0.6323	0.7515	0
Mof_C 	C 	0.84302	0.46879	0.64828	0.096
Mof_C 	C 	0.85863	0.51534	0.66482	0.056
Mof_H 	H 	0.8477	0.5053	0.6636	-0.001
Mof_C 	C 	0.85944	0.52795	0.68264	-0.098
Mof_H 	H 	0.8489	0.5269	0.693	0.065
Mof_C 	C 	0.87551	0.54177	0.68501	0.009
Mof_H 	H 	0.8765	0.5502	0.6972	0.037
Mof_C 	C 	0.89057	0.54333	0.66906	-0.05
Mof_C 	C 	0.88826	0.53065	0.65169	0.039
Mof_H 	H 	0.8983	0.5318	0.6408	0.014
Mof_C 	C 	0.90791	0.55847	0.67038	0.134
Mof_C 	C 	0.92619	0.5827	0.68823	0.138
Mof_C 	C 	0.93553	0.57422	0.6557	0.14
Mof_C 	C 	0.96242	0.59565	0.63725	0.044
Mof_H 	H 	0.9628	0.6044	0.6493	0.009
Mof_C 	C 	0.94878	0.57836	0.63729	-0.053
Mof_C 	C 	0.9479	0.56601	0.61928	0.008
Mof_H 	H 	0.9388	0.5543	0.6185	0.038
Mof_C 	C 	0.96063	0.57141	0.60256	-0.097
Mof_H 	H 	0.9603	0.5634	0.59	0.065
Mof_C 	C 	0.97377	0.58842	0.60415	0.057
Mof_H 	H 	0.9825	0.5918	0.5926	0.002
Mof_C 	C 	0.00126	0.63009	0.57496	0.104
Mof_C 	C 	0.0176	0.66707	0.61136	0.06
Mof_H 	H 	0.0073	0.6659	0.6007	0
Mof_C 	C 	0.02925	0.68473	0.61214	-0.1
Mof_H 	H 	0.0266	0.6959	0.6027	0.068
Mof_C 	C 	0.04519	0.68645	0.62702	0.008
Mof_H 	H 	0.0537	0.6986	0.6278	0.038
Mof_C 	C 	0.04822	0.66989	0.64067	-0.052
Mof_C 	C 	0.03496	0.65259	0.63923	0.043
Mof_H 	H 	0.0367	0.6414	0.6489	0.01
Mof_C 	C 	0.06433	0.67061	0.65696	0.134
Mof_N 	N 	0.91093	0.61413	0.73473	-0.226
Mof_N 	N 	0.85431	0.47646	0.63623	-0.258
Mof_N 	N 	0.87273	0.51681	0.64933	-0.226
Mof_N 	N 	0.9203	0.56052	0.65364	-0.153
Mof_N 	N 	0.9099	0.56961	0.68807	-0.151
Mof_N 	N 	0.9397	0.58523	0.67285	-0.155
Mof_N 	N 	0.97466	0.6004	0.62139	-0.23
Mof_N 	N 	0.99874	0.62722	0.5925	-0.262
Mof_N 	N 	0.02001	0.65114	0.62494	-0.227
Mof_N 	N 	0.06397	0.6556	0.67137	-0.151
Mof_S 	S 	0.82689	0.45888	0.66525	-0.061
Mof_S 	S 	0.00491	0.6343	0.55016	-0.062
Mof_C 	C 	0.91105	0.10084	0.21878	0.041
Mof_H 	H 	0.8983	0.094	0.2154	0.011
Mof_C 	C 	0.92845	0.09633	0.20684	-0.051
Mof_C 	C 	0.94733	0.106	0.21194	0.009
Mof_H 	H 	0.9596	0.1034	0.204	0.037
Mof_C 	C 	0.9476	0.11944	0.22884	-0.099
Mof_H 	H 	0.9602	0.1261	0.2329	0.066
Mof_C 	C 	0.92924	0.1231	0.23985	0.059
Mof_H 	H 	0.9296	0.1323	0.2515	0
Mof_C 	C 	0.84302	0.96879	0.14828	0.096
Mof_C 	C 	0.85863	0.01534	0.16482	0.056
Mof_H 	H 	0.8477	0.0053	0.1636	-0.001
Mof_C 	C 	0.85944	0.02795	0.18264	-0.098
Mof_H 	H 	0.8489	0.0269	0.193	0.065
Mof_C 	C 	0.87551	0.04177	0.18501	0.009
Mof_H 	H 	0.8765	0.0502	0.1972	0.037
Mof_C 	C 	0.89057	0.04333	0.16906	-0.05
Mof_C 	C 	0.88826	0.03065	0.15169	0.039
Mof_H 	H 	0.8983	0.0318	0.1408	0.014
Mof_C 	C 	0.90791	0.05847	0.17038	0.134
Mof_C 	C 	0.92619	0.0827	0.18823	0.138
Mof_C 	C 	0.93553	0.07422	0.1557	0.14
Mof_C 	C 	0.96242	0.09565	0.13725	0.044
Mof_H 	H 	0.9628	0.1044	0.1493	0.009
Mof_C 	C 	0.94878	0.07836	0.13729	-0.053
Mof_C 	C 	0.9479	0.06601	0.11928	0.008
Mof_H 	H 	0.9388	0.0543	0.1185	0.038
Mof_C 	C 	0.96063	0.07141	0.10256	-0.097
Mof_H 	H 	0.9603	0.0634	0.09	0.065
Mof_C 	C 	0.97377	0.08842	0.10415	0.057
Mof_H 	H 	0.9825	0.0918	0.0926	0.002
Mof_C 	C 	0.00126	0.13009	0.07496	0.104
Mof_C 	C 	0.0176	0.16707	0.11136	0.06
Mof_H 	H 	0.0073	0.1659	0.1007	0
Mof_C 	C 	0.02925	0.18473	0.11214	-0.1
Mof_H 	H 	0.0266	0.1959	0.1027	0.068
Mof_C 	C 	0.04519	0.18645	0.12702	0.008
Mof_H 	H 	0.0537	0.1986	0.1278	0.038
Mof_C 	C 	0.04822	0.16989	0.14067	-0.052
Mof_C 	C 	0.03496	0.15259	0.13923	0.043
Mof_H 	H 	0.0367	0.1414	0.1489	0.01
Mof_C 	C 	0.06433	0.17061	0.15696	0.134
Mof_N 	N 	0.91093	0.11413	0.23473	-0.226
Mof_N 	N 	0.85431	0.97646	0.13623	-0.258
Mof_N 	N 	0.87273	0.01681	0.14933	-0.226
Mof_N 	N 	0.9203	0.06052	0.15364	-0.153
Mof_N 	N 	0.9099	0.06961	0.18807	-0.151
Mof_N 	N 	0.9397	0.08523	0.17285	-0.155
Mof_N 	N 	0.97466	0.1004	0.12139	-0.23
Mof_N 	N 	0.99874	0.12722	0.0925	-0.262
Mof_N 	N 	0.02001	0.15114	0.12494	-0.227
Mof_N 	N 	0.06397	0.1556	0.17137	-0.151
Mof_S 	S 	0.82689	0.95888	0.16525	-0.061
Mof_S 	S 	0.00491	0.1343	0.05016	-0.062
Mof_C 	C 	0.41105	0.60084	0.21878	0.041
Mof_H 	H 	0.3983	0.594	0.2154	0.011
Mof_C 	C 	0.42845	0.59633	0.20684	-0.051
Mof_C 	C 	0.44733	0.606	0.21194	0.009
Mof_H 	H 	0.4596	0.6034	0.204	0.037
Mof_C 	C 	0.4476	0.61944	0.22884	-0.099
Mof_H 	H 	0.4602	0.6261	0.2329	0.066
Mof_C 	C 	0.42924	0.6231	0.23985	0.059
Mof_H 	H 	0.4296	0.6323	0.2515	0
Mof_C 	C 	0.34302	0.46879	0.14828	0.096
Mof_C 	C 	0.35863	0.51534	0.16482	0.056
Mof_H 	H 	0.3477	0.5053	0.1636	-0.001
Mof_C 	C 	0.35944	0.52795	0.18264	-0.098
Mof_H 	H 	0.3489	0.5269	0.193	0.065
Mof_C 	C 	0.37551	0.54177	0.18501	0.009
Mof_H 	H 	0.3765	0.5502	0.1972	0.037
Mof_C 	C 	0.39057	0.54333	0.16906	-0.05
Mof_C 	C 	0.38826	0.53065	0.15169	0.039
Mof_H 	H 	0.3983	0.5318	0.1408	0.014
Mof_C 	C 	0.40791	0.55847	0.17038	0.134
Mof_C 	C 	0.42619	0.5827	0.18823	0.138
Mof_C 	C 	0.43553	0.57422	0.1557	0.14
Mof_C 	C 	0.46242	0.59565	0.13725	0.044
Mof_H 	H 	0.4628	0.6044	0.1493	0.009
Mof_C 	C 	0.44878	0.57836	0.13729	-0.053
Mof_C 	C 	0.4479	0.56601	0.11928	0.008
Mof_H 	H 	0.4388	0.5543	0.1185	0.038
Mof_C 	C 	0.46063	0.57141	0.10256	-0.097
Mof_H 	H 	0.4603	0.5634	0.09	0.065
Mof_C 	C 	0.47377	0.58842	0.10415	0.057
Mof_H 	H 	0.4825	0.5918	0.0926	0.002
Mof_C 	C 	0.50126	0.63009	0.07496	0.104
Mof_C 	C 	0.5176	0.66707	0.11136	0.06
Mof_H 	H 	0.5073	0.6659	0.1007	0
Mof_C 	C 	0.52925	0.68473	0.11214	-0.1
Mof_H 	H 	0.5266	0.6959	0.1027	0.068
Mof_C 	C 	0.54519	0.68645	0.12702	0.008
Mof_H 	H 	0.5537	0.6986	0.1278	0.038
Mof_C 	C 	0.54822	0.66989	0.14067	-0.052
Mof_C 	C 	0.53496	0.65259	0.13923	0.043
Mof_H 	H 	0.5367	0.6414	0.1489	0.01
Mof_C 	C 	0.56433	0.67061	0.15696	0.134
Mof_N 	N 	0.41093	0.61413	0.23473	-0.226
Mof_N 	N 	0.35431	0.47646	0.13623	-0.258
Mof_N 	N 	0.37273	0.51681	0.14933	-0.226
Mof_N 	N 	0.4203	0.56052	0.15364	-0.153
Mof_N 	N 	0.4099	0.56961	0.18807	-0.151
Mof_N 	N 	0.4397	0.58523	0.17285	-0.155
Mof_N 	N 	0.47466	0.6004	0.12139	-0.23
Mof_N 	N 	0.49874	0.62722	0.0925	-0.262
Mof_N 	N 	0.52001	0.65114	0.12494	-0.227
Mof_N 	N 	0.56397	0.6556	0.17137	-0.151
Mof_S 	S 	0.32689	0.45888	0.16525	-0.061
Mof_S 	S 	0.50491	0.6343	0.05016	-0.062
Mof_C 	C 	0.41105	0.10084	0.71878	0.041
Mof_H 	H 	0.3983	0.094	0.7154	0.011
Mof_C 	C 	0.42845	0.09633	0.70684	-0.051
Mof_C 	C 	0.44733	0.106	0.71194	0.009
Mof_H 	H 	0.4596	0.1034	0.704	0.037
Mof_C 	C 	0.4476	0.11944	0.72884	-0.099
Mof_H 	H 	0.4602	0.1261	0.7329	0.066
Mof_C 	C 	0.42924	0.1231	0.73985	0.059
Mof_H 	H 	0.4296	0.1323	0.7515	0
Mof_C 	C 	0.34302	0.96879	0.64828	0.096
Mof_C 	C 	0.35863	0.01534	0.66482	0.056
Mof_H 	H 	0.3477	0.0053	0.6636	-0.001
Mof_C 	C 	0.35944	0.02795	0.68264	-0.098
Mof_H 	H 	0.3489	0.0269	0.693	0.065
Mof_C 	C 	0.37551	0.04177	0.68501	0.009
Mof_H 	H 	0.3765	0.0502	0.6972	0.037
Mof_C 	C 	0.39057	0.04333	0.66906	-0.05
Mof_C 	C 	0.38826	0.03065	0.65169	0.039
Mof_H 	H 	0.3983	0.0318	0.6408	0.014
Mof_C 	C 	0.40791	0.05847	0.67038	0.134
Mof_C 	C 	0.42619	0.0827	0.68823	0.138
Mof_C 	C 	0.43553	0.07422	0.6557	0.14
Mof_C 	C 	0.46242	0.09565	0.63725	0.044
Mof_H 	H 	0.4628	0.1044	0.6493	0.009
Mof_C 	C 	0.44878	0.07836	0.63729	-0.053
Mof_C 	C 	0.4479	0.06601	0.61928	0.008
Mof_H 	H 	0.4388	0.0543	0.6185	0.038
Mof_C 	C 	0.46063	0.07141	0.60256	-0.097
Mof_H 	H 	0.4603	0.0634	0.59	0.065
Mof_C 	C 	0.47377	0.08842	0.60415	0.057
Mof_H 	H 	0.4825	0.0918	0.5926	0.002
Mof_C 	C 	0.50126	0.13009	0.57496	0.104
Mof_C 	C 	0.5176	0.16707	0.61136	0.06
Mof_H 	H 	0.5073	0.1659	0.6007	0
Mof_C 	C 	0.52925	0.18473	0.61214	-0.1
Mof_H 	H 	0.5266	0.1959	0.6027	0.068
Mof_C 	C 	0.54519	0.18645	0.62702	0.008
Mof_H 	H 	0.5537	0.1986	0.6278	0.038
Mof_C 	C 	0.54822	0.16989	0.64067	-0.052
Mof_C 	C 	0.53496	0.15259	0.63923	0.043
Mof_H 	H 	0.5367	0.1414	0.6489	0.01
Mof_C 	C 	0.56433	0.17061	0.65696	0.134
Mof_N 	N 	0.41093	0.11413	0.73473	-0.226
Mof_N 	N 	0.35431	0.97646	0.63623	-0.258
Mof_N 	N 	0.37273	0.01681	0.64933	-0.226
Mof_N 	N 	0.4203	0.06052	0.65364	-0.153
Mof_N 	N 	0.4099	0.06961	0.68807	-0.151
Mof_N 	N 	0.4397	0.08523	0.67285	-0.155
Mof_N 	N 	0.47466	0.1004	0.62139	-0.23
Mof_N 	N 	0.49874	0.12722	0.5925	-0.262
Mof_N 	N 	0.52001	0.15114	0.62494	-0.227
Mof_N 	N 	0.56397	0.1556	0.67137	-0.151
Mof_S 	S 	0.32689	0.95888	0.66525	-0.061
Mof_S 	S 	0.50491	0.1343	0.55016	-0.062
Mof_C 	C 	0.33895	0.10084	0.03122	0.041
Mof_H 	H 	0.3517	0.094	0.0346	0.011
Mof_C 	C 	0.32155	0.09633	0.04316	-0.051
Mof_C 	C 	0.30267	0.106	0.03806	0.008
Mof_H 	H 	0.2904	0.1034	0.046	0.037
Mof_C 	C 	0.3024	0.11944	0.02116	-0.099
Mof_H 	H 	0.2898	0.1261	0.0171	0.066
Mof_C 	C 	0.32076	0.1231	0.01015	0.059
Mof_H 	H 	0.3204	0.1323	0.9985	0
Mof_C 	C 	0.40698	0.96879	0.10172	0.096
Mof_C 	C 	0.39137	0.01534	0.08518	0.056
Mof_H 	H 	0.4023	0.0053	0.0864	-0.001
Mof_C 	C 	0.39056	0.02795	0.06736	-0.098
Mof_H 	H 	0.4011	0.0269	0.057	0.065
Mof_C 	C 	0.37449	0.04177	0.06499	0.009
Mof_H 	H 	0.3735	0.0502	0.0528	0.037
Mof_C 	C 	0.35943	0.04333	0.08094	-0.05
Mof_C 	C 	0.36174	0.03065	0.09831	0.039
Mof_H 	H 	0.3517	0.0318	0.1092	0.014
Mof_C 	C 	0.34209	0.05847	0.07962	0.134
Mof_C 	C 	0.32381	0.0827	0.06177	0.138
Mof_C 	C 	0.31447	0.07422	0.0943	0.14
Mof_C 	C 	0.28758	0.09565	0.11275	0.044
Mof_H 	H 	0.2872	0.1044	0.1007	0.009
Mof_C 	C 	0.30122	0.07836	0.11271	-0.053
Mof_C 	C 	0.3021	0.06601	0.13072	0.008
Mof_H 	H 	0.3112	0.0543	0.1315	0.038
Mof_C 	C 	0.28937	0.07141	0.14744	-0.097
Mof_H 	H 	0.2897	0.0634	0.16	0.065
Mof_C 	C 	0.27623	0.08842	0.14585	0.057
Mof_H 	H 	0.2675	0.0918	0.1574	0.002
Mof_C 	C 	0.24874	0.13009	0.17504	0.104
Mof_C 	C 	0.2324	0.16707	0.13864	0.06
Mof_H 	H 	0.2427	0.1659	0.1493	0
Mof_C 	C 	0.22075	0.18473	0.13786	-0.1
Mof_H 	H 	0.2234	0.1959	0.1473	0.068
Mof_C 	C 	0.20481	0.18645	0.12298	0.008
Mof_H 	H 	0.1963	0.1986	0.1222	0.038
Mof_C 	C 	0.20178	0.16989	0.10933	-0.052
Mof_C 	C 	0.21504	0.15259	0.11077	0.043
Mof_H 	H 	0.2133	0.1414	0.1011	0.01
Mof_C 	C 	0.18567	0.17061	0.09304	0.134
Mof_N 	N 	0.33907	0.11413	0.01527	-0.225
Mof_N 	N 	0.39569	0.97646	0.11377	-0.258
Mof_N 	N 	0.37727	0.01681	0.10067	-0.226
Mof_N 	N 	0.3297	0.06052	0.09636	-0.153
Mof_N 	N 	0.3401	0.06961	0.06193	-0.151
Mof_N 	N 	0.3103	0.08523	0.07715	-0.155
Mof_N 	N 	0.27534	0.1004	0.12861	-0.23
Mof_N 	N 	0.25126	0.12722	0.1575	-0.262
Mof_N 	N 	0.22999	0.15114	0.12506	-0.227
Mof_N 	N 	0.18603	0.1556	0.07863	-0.151
Mof_S 	S 	0.42311	0.95888	0.08475	-0.061
Mof_S 	S 	0.24509	0.1343	0.19984	-0.062
Mof_C 	C 	0.33895	0.60084	0.53122	0.041
Mof_H 	H 	0.3517	0.594	0.5346	0.011
Mof_C 	C 	0.32155	0.59633	0.54316	-0.051
Mof_C 	C 	0.30267	0.606	0.53806	0.009
Mof_H 	H 	0.2904	0.6034	0.546	0.037
Mof_C 	C 	0.3024	0.61944	0.52116	-0.099
Mof_H 	H 	0.2898	0.6261	0.5171	0.066
Mof_C 	C 	0.32076	0.6231	0.51015	0.059
Mof_H 	H 	0.3204	0.6323	0.4985	0
Mof_C 	C 	0.40698	0.46879	0.60172	0.096
Mof_C 	C 	0.39137	0.51534	0.58518	0.056
Mof_H 	H 	0.4023	0.5053	0.5864	-0.001
Mof_C 	C 	0.39056	0.52795	0.56736	-0.098
Mof_H 	H 	0.4011	0.5269	0.557	0.065
Mof_C 	C 	0.37449	0.54177	0.56499	0.009
Mof_H 	H 	0.3735	0.5502	0.5528	0.037
Mof_C 	C 	0.35943	0.54333	0.58094	-0.05
Mof_C 	C 	0.36174	0.53065	0.59831	0.039
Mof_H 	H 	0.3517	0.5318	0.6092	0.014
Mof_C 	C 	0.34209	0.55847	0.57962	0.134
Mof_C 	C 	0.32381	0.5827	0.56177	0.138
Mof_C 	C 	0.31447	0.57422	0.5943	0.14
Mof_C 	C 	0.28758	0.59565	0.61275	0.044
Mof_H 	H 	0.2872	0.6044	0.6007	0.009
Mof_C 	C 	0.30122	0.57836	0.61271	-0.053
Mof_C 	C 	0.3021	0.56601	0.63072	0.008
Mof_H 	H 	0.3112	0.5543	0.6315	0.038
Mof_C 	C 	0.28937	0.57141	0.64744	-0.097
Mof_H 	H 	0.2897	0.5634	0.66	0.065
Mof_C 	C 	0.27623	0.58842	0.64585	0.057
Mof_H 	H 	0.2675	0.5918	0.6574	0.002
Mof_C 	C 	0.24874	0.63009	0.67504	0.104
Mof_C 	C 	0.2324	0.66707	0.63864	0.06
Mof_H 	H 	0.2427	0.6659	0.6493	0
Mof_C 	C 	0.22075	0.68473	0.63786	-0.1
Mof_H 	H 	0.2234	0.6959	0.6473	0.068
Mof_C 	C 	0.20481	0.68645	0.62298	0.008
Mof_H 	H 	0.1963	0.6986	0.6222	0.038
Mof_C 	C 	0.20178	0.66989	0.60933	-0.052
Mof_C 	C 	0.21504	0.65259	0.61077	0.043
Mof_H 	H 	0.2133	0.6414	0.6011	0.01
Mof_C 	C 	0.18567	0.67061	0.59304	0.134
Mof_N 	N 	0.33907	0.61413	0.51527	-0.226
Mof_N 	N 	0.39569	0.47646	0.61377	-0.258
Mof_N 	N 	0.37727	0.51681	0.60067	-0.226
Mof_N 	N 	0.3297	0.56052	0.59636	-0.153
Mof_N 	N 	0.3401	0.56961	0.56193	-0.151
Mof_N 	N 	0.3103	0.58523	0.57715	-0.155
Mof_N 	N 	0.27534	0.6004	0.62861	-0.23
Mof_N 	N 	0.25126	0.62722	0.6575	-0.262
Mof_N 	N 	0.22999	0.65114	0.62506	-0.227
Mof_N 	N 	0.18603	0.6556	0.57863	-0.151
Mof_S 	S 	0.42311	0.45888	0.58475	-0.061
Mof_S 	S 	0.24509	0.6343	0.69984	-0.062
Mof_C 	C 	0.83895	0.10084	0.53122	0.041
Mof_H 	H 	0.8517	0.094	0.5346	0.011
Mof_C 	C 	0.82155	0.09633	0.54316	-0.051
Mof_C 	C 	0.80267	0.106	0.53806	0.009
Mof_H 	H 	0.7904	0.1034	0.546	0.037
Mof_C 	C 	0.8024	0.11944	0.52116	-0.099
Mof_H 	H 	0.7898	0.1261	0.5171	0.066
Mof_C 	C 	0.82076	0.1231	0.51015	0.059
Mof_H 	H 	0.8204	0.1323	0.4985	0
Mof_C 	C 	0.90698	0.96879	0.60172	0.096
Mof_C 	C 	0.89137	0.01534	0.58518	0.056
Mof_H 	H 	0.9023	0.0053	0.5864	-0.001
Mof_C 	C 	0.89056	0.02795	0.56736	-0.098
Mof_H 	H 	0.9011	0.0269	0.557	0.065
Mof_C 	C 	0.87449	0.04177	0.56499	0.009
Mof_H 	H 	0.8735	0.0502	0.5528	0.037
Mof_C 	C 	0.85943	0.04333	0.58094	-0.05
Mof_C 	C 	0.86174	0.03065	0.59831	0.039
Mof_H 	H 	0.8517	0.0318	0.6092	0.014
Mof_C 	C 	0.84209	0.05847	0.57962	0.134
Mof_C 	C 	0.82381	0.0827	0.56177	0.138
Mof_C 	C 	0.81447	0.07422	0.5943	0.14
Mof_C 	C 	0.78758	0.09565	0.61275	0.044
Mof_H 	H 	0.7872	0.1044	0.6007	0.009
Mof_C 	C 	0.80122	0.07836	0.61271	-0.053
Mof_C 	C 	0.8021	0.06601	0.63072	0.008
Mof_H 	H 	0.8112	0.0543	0.6315	0.038
Mof_C 	C 	0.78937	0.07141	0.64744	-0.097
Mof_H 	H 	0.7897	0.0634	0.66	0.065
Mof_C 	C 	0.77623	0.08842	0.64585	0.057
Mof_H 	H 	0.7675	0.0918	0.6574	0.002
Mof_C 	C 	0.74874	0.13009	0.67504	0.104
Mof_C 	C 	0.7324	0.16707	0.63864	0.06
Mof_H 	H 	0.7427	0.1659	0.6493	0
Mof_C 	C 	0.72075	0.18473	0.63786	-0.1
Mof_H 	H 	0.7234	0.1959	0.6473	0.068
Mof_C 	C 	0.70481	0.18645	0.62298	0.008
Mof_H 	H 	0.6963	0.1986	0.6222	0.038
Mof_C 	C 	0.70178	0.16989	0.60933	-0.052
Mof_C 	C 	0.71504	0.15259	0.61077	0.043
Mof_H 	H 	0.7133	0.1414	0.6011	0.01
Mof_C 	C 	0.68567	0.17061	0.59304	0.134
Mof_N 	N 	0.83907	0.11413	0.51527	-0.226
Mof_N 	N 	0.89569	0.97646	0.61377	-0.258
Mof_N 	N 	0.87727	0.01681	0.60067	-0.226
Mof_N 	N 	0.8297	0.06052	0.59636	-0.153
Mof_N 	N 	0.8401	0.06961	0.56193	-0.151
Mof_N 	N 	0.8103	0.08523	0.57715	-0.155
Mof_N 	N 	0.77534	0.1004	0.62861	-0.23
Mof_N 	N 	0.75126	0.12722	0.6575	-0.262
Mof_N 	N 	0.72999	0.15114	0.62506	-0.227
Mof_N 	N 	0.68603	0.1556	0.57863	-0.151
Mof_S 	S 	0.92311	0.95888	0.58475	-0.061
Mof_S 	S 	0.74509	0.1343	0.69984	-0.062
Mof_C 	C 	0.83895	0.60084	0.03122	0.041
Mof_H 	H 	0.8517	0.594	0.0346	0.011
Mof_C 	C 	0.82155	0.59633	0.04316	-0.051
Mof_C 	C 	0.80267	0.606	0.03806	0.008
Mof_H 	H 	0.7904	0.6034	0.046	0.037
Mof_C 	C 	0.8024	0.61944	0.02116	-0.099
Mof_H 	H 	0.7898	0.6261	0.0171	0.066
Mof_C 	C 	0.82076	0.6231	0.01015	0.059
Mof_H 	H 	0.8204	0.6323	0.9985	0
Mof_C 	C 	0.90698	0.46879	0.10172	0.096
Mof_C 	C 	0.89137	0.51534	0.08518	0.056
Mof_H 	H 	0.9023	0.5053	0.0864	-0.001
Mof_C 	C 	0.89056	0.52795	0.06736	-0.098
Mof_H 	H 	0.9011	0.5269	0.057	0.065
Mof_C 	C 	0.87449	0.54177	0.06499	0.009
Mof_H 	H 	0.8735	0.5502	0.0528	0.037
Mof_C 	C 	0.85943	0.54333	0.08094	-0.05
Mof_C 	C 	0.86174	0.53065	0.09831	0.039
Mof_H 	H 	0.8517	0.5318	0.1092	0.014
Mof_C 	C 	0.84209	0.55847	0.07962	0.134
Mof_C 	C 	0.82381	0.5827	0.06177	0.138
Mof_C 	C 	0.81447	0.57422	0.0943	0.14
Mof_C 	C 	0.78758	0.59565	0.11275	0.044
Mof_H 	H 	0.7872	0.6044	0.1007	0.009
Mof_C 	C 	0.80122	0.57836	0.11271	-0.053
Mof_C 	C 	0.8021	0.56601	0.13072	0.008
Mof_H 	H 	0.8112	0.5543	0.1315	0.038
Mof_C 	C 	0.78937	0.57141	0.14744	-0.097
Mof_H 	H 	0.7897	0.5634	0.16	0.065
Mof_C 	C 	0.77623	0.58842	0.14585	0.057
Mof_H 	H 	0.7675	0.5918	0.1574	0.002
Mof_C 	C 	0.74874	0.63009	0.17504	0.104
Mof_C 	C 	0.7324	0.66707	0.13864	0.06
Mof_H 	H 	0.7427	0.6659	0.1493	0
Mof_C 	C 	0.72075	0.68473	0.13786	-0.1
Mof_H 	H 	0.7234	0.6959	0.1473	0.068
Mof_C 	C 	0.70481	0.68645	0.12298	0.008
Mof_H 	H 	0.6963	0.6986	0.1222	0.038
Mof_C 	C 	0.70178	0.66989	0.10933	-0.052
Mof_C 	C 	0.71504	0.65259	0.11077	0.043
Mof_H 	H 	0.7133	0.6414	0.1011	0.01
Mof_C 	C 	0.68567	0.67061	0.09304	0.134
Mof_N 	N 	0.83907	0.61413	0.01527	-0.225
Mof_N 	N 	0.89569	0.47646	0.11377	-0.258
Mof_N 	N 	0.87727	0.51681	0.10067	-0.226
Mof_N 	N 	0.8297	0.56052	0.09636	-0.153
Mof_N 	N 	0.8401	0.56961	0.06193	-0.151
Mof_N 	N 	0.8103	0.58523	0.07715	-0.155
Mof_N 	N 	0.77534	0.6004	0.12861	-0.23
Mof_N 	N 	0.75126	0.62722	0.1575	-0.262
Mof_N 	N 	0.72999	0.65114	0.12506	-0.227
Mof_N 	N 	0.68603	0.6556	0.07863	-0.151
Mof_S 	S 	0.92311	0.45888	0.08475	-0.061
Mof_S 	S 	0.74509	0.6343	0.19984	-0.062
Mof_C 	C 	0.14916	0.53122	0.41105	0.041
Mof_H 	H 	0.156	0.5346	0.3983	0.011
Mof_C 	C 	0.15367	0.54316	0.42845	-0.051
Mof_C 	C 	0.144	0.53806	0.44733	0.009
Mof_H 	H 	0.1466	0.546	0.4596	0.037
Mof_C 	C 	0.13056	0.52116	0.4476	-0.099
Mof_H 	H 	0.1239	0.5171	0.4602	0.066
Mof_C 	C 	0.1269	0.51015	0.42924	0.059
Mof_H 	H 	0.1177	0.4985	0.4296	0
Mof_C 	C 	0.28121	0.60172	0.34302	0.096
Mof_C 	C 	0.23466	0.58518	0.35863	0.056
Mof_H 	H 	0.2447	0.5864	0.3477	-0.001
Mof_C 	C 	0.22205	0.56736	0.35944	-0.098
Mof_H 	H 	0.2231	0.557	0.3489	0.065
Mof_C 	C 	0.20823	0.56499	0.37551	0.009
Mof_H 	H 	0.1998	0.5528	0.3765	0.037
Mof_C 	C 	0.20667	0.58094	0.39057	-0.05
Mof_C 	C 	0.21935	0.59831	0.38826	0.039
Mof_H 	H 	0.2182	0.6092	0.3983	0.014
Mof_C 	C 	0.19153	0.57962	0.40791	0.134
Mof_C 	C 	0.1673	0.56177	0.42619	0.138
Mof_C 	C 	0.17578	0.5943	0.43553	0.14
Mof_C 	C 	0.15435	0.61275	0.46242	0.044
Mof_H 	H 	0.1456	0.6007	0.4628	0.009
Mof_C 	C 	0.17164	0.61271	0.44878	-0.053
Mof_C 	C 	0.18399	0.63072	0.4479	0.008
Mof_H 	H 	0.1957	0.6315	0.4388	0.038
Mof_C 	C 	0.17859	0.64744	0.46063	-0.097
Mof_H 	H 	0.1866	0.66	0.4603	0.065
Mof_C 	C 	0.16158	0.64585	0.47377	0.057
Mof_H 	H 	0.1582	0.6574	0.4825	0.002
Mof_C 	C 	0.11991	0.67504	0.50126	0.104
Mof_C 	C 	0.08293	0.63864	0.5176	0.06
Mof_H 	H 	0.0841	0.6493	0.5073	0
Mof_C 	C 	0.06527	0.63786	0.52925	-0.1
Mof_H 	H 	0.0541	0.6473	0.5266	0.068
Mof_C 	C 	0.06355	0.62298	0.54519	0.008
Mof_H 	H 	0.0514	0.6222	0.5537	0.038
Mof_C 	C 	0.08011	0.60933	0.54822	-0.052
Mof_C 	C 	0.09741	0.61077	0.53496	0.043
Mof_H 	H 	0.1086	0.6011	0.5367	0.01
Mof_C 	C 	0.07939	0.59304	0.56433	0.134
Mof_N 	N 	0.13587	0.51527	0.41093	-0.226
Mof_N 	N 	0.27354	0.61377	0.35431	-0.258
Mof_N 	N 	0.23319	0.60067	0.37273	-0.226
Mof_N 	N 	0.18948	0.59636	0.4203	-0.153
Mof_N 	N 	0.18039	0.56193	0.4099	-0.151
Mof_N 	N 	0.16477	0.57715	0.4397	-0.155
Mof_N 	N 	0.1496	0.62861	0.47466	-0.23
Mof_N 	N 	0.12278	0.6575	0.49874	-0.262
Mof_N 	N 	0.09886	0.62506	0.52001	-0.227
Mof_N 	N 	0.0944	0.57863	0.56397	-0.151
Mof_S 	S 	0.29112	0.58475	0.32689	-0.061
Mof_S 	S 	0.1157	0.69984	0.50491	-0.062
Mof_C 	C 	0.14916	0.03122	0.91105	0.041
Mof_H 	H 	0.156	0.0346	0.8983	0.011
Mof_C 	C 	0.15367	0.04316	0.92845	-0.051
Mof_C 	C 	0.144	0.03806	0.94733	0.008
Mof_H 	H 	0.1466	0.046	0.9596	0.037
Mof_C 	C 	0.13056	0.02116	0.9476	-0.099
Mof_H 	H 	0.1239	0.0171	0.9602	0.066
Mof_C 	C 	0.1269	0.01015	0.92924	0.059
Mof_H 	H 	0.1177	0.9985	0.9296	0
Mof_C 	C 	0.28121	0.10172	0.84302	0.096
Mof_C 	C 	0.23466	0.08518	0.85863	0.056
Mof_H 	H 	0.2447	0.0864	0.8477	-0.001
Mof_C 	C 	0.22205	0.06736	0.85944	-0.098
Mof_H 	H 	0.2231	0.057	0.8489	0.065
Mof_C 	C 	0.20823	0.06499	0.87551	0.009
Mof_H 	H 	0.1998	0.0528	0.8765	0.037
Mof_C 	C 	0.20667	0.08094	0.89057	-0.05
Mof_C 	C 	0.21935	0.09831	0.88826	0.039
Mof_H 	H 	0.2182	0.1092	0.8983	0.014
Mof_C 	C 	0.19153	0.07962	0.90791	0.134
Mof_C 	C 	0.1673	0.06177	0.92619	0.138
Mof_C 	C 	0.17578	0.0943	0.93553	0.14
Mof_C 	C 	0.15435	0.11275	0.96242	0.044
Mof_H 	H 	0.1456	0.1007	0.9628	0.009
Mof_C 	C 	0.17164	0.11271	0.94878	-0.053
Mof_C 	C 	0.18399	0.13072	0.9479	0.008
Mof_H 	H 	0.1957	0.1315	0.9388	0.038
Mof_C 	C 	0.17859	0.14744	0.96063	-0.097
Mof_H 	H 	0.1866	0.16	0.9603	0.065
Mof_C 	C 	0.16158	0.14585	0.97377	0.057
Mof_H 	H 	0.1582	0.1574	0.9825	0.002
Mof_C 	C 	0.11991	0.17504	0.00126	0.104
Mof_C 	C 	0.08293	0.13864	0.0176	0.06
Mof_H 	H 	0.0841	0.1493	0.0073	0
Mof_C 	C 	0.06527	0.13786	0.02925	-0.1
Mof_H 	H 	0.0541	0.1473	0.0266	0.068
Mof_C 	C 	0.06355	0.12298	0.04519	0.008
Mof_H 	H 	0.0514	0.1222	0.0537	0.038
Mof_C 	C 	0.08011	0.10933	0.04822	-0.052
Mof_C 	C 	0.09741	0.11077	0.03496	0.043
Mof_H 	H 	0.1086	0.1011	0.0367	0.01
Mof_C 	C 	0.07939	0.09304	0.06433	0.134
Mof_N 	N 	0.13587	0.01527	0.91093	-0.225
Mof_N 	N 	0.27354	0.11377	0.85431	-0.258
Mof_N 	N 	0.23319	0.10067	0.87273	-0.226
Mof_N 	N 	0.18948	0.09636	0.9203	-0.153
Mof_N 	N 	0.18039	0.06193	0.9099	-0.151
Mof_N 	N 	0.16477	0.07715	0.9397	-0.155
Mof_N 	N 	0.1496	0.12861	0.97466	-0.23
Mof_N 	N 	0.12278	0.1575	0.99874	-0.262
Mof_N 	N 	0.09886	0.12506	0.02001	-0.227
Mof_N 	N 	0.0944	0.07863	0.06397	-0.151
Mof_S 	S 	0.29112	0.08475	0.82689	-0.061
Mof_S 	S 	0.1157	0.19984	0.00491	-0.062
Mof_C 	C 	0.64916	0.53122	0.91105	0.041
Mof_H 	H 	0.656	0.5346	0.8983	0.011
Mof_C 	C 	0.65367	0.54316	0.92845	-0.051
Mof_C 	C 	0.644	0.53806	0.94733	0.009
Mof_H 	H 	0.6466	0.546	0.9596	0.037
Mof_C 	C 	0.63056	0.52116	0.9476	-0.099
Mof_H 	H 	0.6239	0.5171	0.9602	0.066
Mof_C 	C 	0.6269	0.51015	0.92924	0.059
Mof_H 	H 	0.6177	0.4985	0.9296	0
Mof_C 	C 	0.78121	0.60172	0.84302	0.096
Mof_C 	C 	0.73466	0.58518	0.85863	0.056
Mof_H 	H 	0.7447	0.5864	0.8477	-0.001
Mof_C 	C 	0.72205	0.56736	0.85944	-0.098
Mof_H 	H 	0.7231	0.557	0.8489	0.065
Mof_C 	C 	0.70823	0.56499	0.87551	0.009
Mof_H 	H 	0.6998	0.5528	0.8765	0.037
Mof_C 	C 	0.70667	0.58094	0.89057	-0.05
Mof_C 	C 	0.71935	0.59831	0.88826	0.039
Mof_H 	H 	0.7182	0.6092	0.8983	0.014
Mof_C 	C 	0.69153	0.57962	0.90791	0.134
Mof_C 	C 	0.6673	0.56177	0.92619	0.138
Mof_C 	C 	0.67578	0.5943	0.93553	0.14
Mof_C 	C 	0.65435	0.61275	0.96242	0.044
Mof_H 	H 	0.6456	0.6007	0.9628	0.009
Mof_C 	C 	0.67164	0.61271	0.94878	-0.053
Mof_C 	C 	0.68399	0.63072	0.9479	0.008
Mof_H 	H 	0.6957	0.6315	0.9388	0.038
Mof_C 	C 	0.67859	0.64744	0.96063	-0.097
Mof_H 	H 	0.6866	0.66	0.9603	0.065
Mof_C 	C 	0.66158	0.64585	0.97377	0.057
Mof_H 	H 	0.6582	0.6574	0.9825	0.002
Mof_C 	C 	0.61991	0.67504	0.00126	0.104
Mof_C 	C 	0.58293	0.63864	0.0176	0.06
Mof_H 	H 	0.5841	0.6493	0.0073	0
Mof_C 	C 	0.56527	0.63786	0.02925	-0.1
Mof_H 	H 	0.5541	0.6473	0.0266	0.068
Mof_C 	C 	0.56355	0.62298	0.04519	0.008
Mof_H 	H 	0.5514	0.6222	0.0537	0.038
Mof_C 	C 	0.58011	0.60933	0.04822	-0.052
Mof_C 	C 	0.59741	0.61077	0.03496	0.043
Mof_H 	H 	0.6086	0.6011	0.0367	0.01
Mof_C 	C 	0.57939	0.59304	0.06433	0.134
Mof_N 	N 	0.63587	0.51527	0.91093	-0.226
Mof_N 	N 	0.77354	0.61377	0.85431	-0.258
Mof_N 	N 	0.73319	0.60067	0.87273	-0.226
Mof_N 	N 	0.68948	0.59636	0.9203	-0.153
Mof_N 	N 	0.68039	0.56193	0.9099	-0.151
Mof_N 	N 	0.66477	0.57715	0.9397	-0.155
Mof_N 	N 	0.6496	0.62861	0.97466	-0.23
Mof_N 	N 	0.62278	0.6575	0.99874	-0.262
Mof_N 	N 	0.59886	0.62506	0.02001	-0.227
Mof_N 	N 	0.5944	0.57863	0.06397	-0.151
Mof_S 	S 	0.79112	0.58475	0.82689	-0.061
Mof_S 	S 	0.6157	0.69984	0.00491	-0.062
Mof_C 	C 	0.64916	0.03122	0.41105	0.041
Mof_H 	H 	0.656	0.0346	0.3983	0.011
Mof_C 	C 	0.65367	0.04316	0.42845	-0.051
Mof_C 	C 	0.644	0.03806	0.44733	0.008
Mof_H 	H 	0.6466	0.046	0.4596	0.037
Mof_C 	C 	0.63056	0.02116	0.4476	-0.099
Mof_H 	H 	0.6239	0.0171	0.4602	0.066
Mof_C 	C 	0.6269	0.01015	0.42924	0.059
Mof_H 	H 	0.6177	0.9985	0.4296	0
Mof_C 	C 	0.78121	0.10172	0.34302	0.096
Mof_C 	C 	0.73466	0.08518	0.35863	0.056
Mof_H 	H 	0.7447	0.0864	0.3477	-0.001
Mof_C 	C 	0.72205	0.06736	0.35944	-0.098
Mof_H 	H 	0.7231	0.057	0.3489	0.065
Mof_C 	C 	0.70823	0.06499	0.37551	0.009
Mof_H 	H 	0.6998	0.0528	0.3765	0.037
Mof_C 	C 	0.70667	0.08094	0.39057	-0.05
Mof_C 	C 	0.71935	0.09831	0.38826	0.039
Mof_H 	H 	0.7182	0.1092	0.3983	0.014
Mof_C 	C 	0.69153	0.07962	0.40791	0.134
Mof_C 	C 	0.6673	0.06177	0.42619	0.138
Mof_C 	C 	0.67578	0.0943	0.43553	0.14
Mof_C 	C 	0.65435	0.11275	0.46242	0.044
Mof_H 	H 	0.6456	0.1007	0.4628	0.009
Mof_C 	C 	0.67164	0.11271	0.44878	-0.053
Mof_C 	C 	0.68399	0.13072	0.4479	0.008
Mof_H 	H 	0.6957	0.1315	0.4388	0.038
Mof_C 	C 	0.67859	0.14744	0.46063	-0.097
Mof_H 	H 	0.6866	0.16	0.4603	0.065
Mof_C 	C 	0.66158	0.14585	0.47377	0.057
Mof_H 	H 	0.6582	0.1574	0.4825	0.002
Mof_C 	C 	0.61991	0.17504	0.50126	0.104
Mof_C 	C 	0.58293	0.13864	0.5176	0.06
Mof_H 	H 	0.5841	0.1493	0.5073	0
Mof_C 	C 	0.56527	0.13786	0.52925	-0.1
Mof_H 	H 	0.5541	0.1473	0.5266	0.068
Mof_C 	C 	0.56355	0.12298	0.54519	0.008
Mof_H 	H 	0.5514	0.1222	0.5537	0.038
Mof_C 	C 	0.58011	0.10933	0.54822	-0.052
Mof_C 	C 	0.59741	0.11077	0.53496	0.043
Mof_H 	H 	0.6086	0.1011	0.5367	0.01
Mof_C 	C 	0.57939	0.09304	0.56433	0.134
Mof_N 	N 	0.63587	0.01527	0.41093	-0.225
Mof_N 	N 	0.77354	0.11377	0.35431	-0.258
Mof_N 	N 	0.73319	0.10067	0.37273	-0.226
Mof_N 	N 	0.68948	0.09636	0.4203	-0.153
Mof_N 	N 	0.68039	0.06193	0.4099	-0.151
Mof_N 	N 	0.66477	0.07715	0.4397	-0.155
Mof_N 	N 	0.6496	0.12861	0.47466	-0.23
Mof_N 	N 	0.62278	0.1575	0.49874	-0.262
Mof_N 	N 	0.59886	0.12506	0.52001	-0.227
Mof_N 	N 	0.5944	0.07863	0.56397	-0.151
Mof_S 	S 	0.79112	0.08475	0.32689	-0.061
Mof_S 	S 	0.6157	0.19984	0.50491	-0.062
Mof_C 	C 	0.64916	0.21878	0.83895	0.041
Mof_H 	H 	0.656	0.2154	0.8517	0.011
Mof_C 	C 	0.65367	0.20684	0.82155	-0.051
Mof_C 	C 	0.644	0.21194	0.80267	0.009
Mof_H 	H 	0.6466	0.204	0.7904	0.037
Mof_C 	C 	0.63056	0.22884	0.8024	-0.099
Mof_H 	H 	0.6239	0.2329	0.7898	0.066
Mof_C 	C 	0.6269	0.23985	0.82076	0.059
Mof_H 	H 	0.6177	0.2515	0.8204	0
Mof_C 	C 	0.78121	0.14828	0.90698	0.096
Mof_C 	C 	0.73466	0.16482	0.89137	0.056
Mof_H 	H 	0.7447	0.1636	0.9023	-0.001
Mof_C 	C 	0.72205	0.18264	0.89056	-0.098
Mof_H 	H 	0.7231	0.193	0.9011	0.065
Mof_C 	C 	0.70823	0.18501	0.87449	0.009
Mof_H 	H 	0.6998	0.1972	0.8735	0.037
Mof_C 	C 	0.70667	0.16906	0.85943	-0.05
Mof_C 	C 	0.71935	0.15169	0.86174	0.039
Mof_H 	H 	0.7182	0.1408	0.8517	0.014
Mof_C 	C 	0.69153	0.17038	0.84209	0.134
Mof_C 	C 	0.6673	0.18823	0.82381	0.138
Mof_C 	C 	0.67578	0.1557	0.81447	0.14
Mof_C 	C 	0.65435	0.13725	0.78758	0.044
Mof_H 	H 	0.6456	0.1493	0.7872	0.009
Mof_C 	C 	0.67164	0.13729	0.80122	-0.053
Mof_C 	C 	0.68399	0.11928	0.8021	0.008
Mof_H 	H 	0.6957	0.1185	0.8112	0.038
Mof_C 	C 	0.67859	0.10256	0.78937	-0.097
Mof_H 	H 	0.6866	0.09	0.7897	0.065
Mof_C 	C 	0.66158	0.10415	0.77623	0.057
Mof_H 	H 	0.6582	0.0926	0.7675	0.002
Mof_C 	C 	0.61991	0.07496	0.74874	0.104
Mof_C 	C 	0.58293	0.11136	0.7324	0.06
Mof_H 	H 	0.5841	0.1007	0.7427	0
Mof_C 	C 	0.56527	0.11214	0.72075	-0.1
Mof_H 	H 	0.5541	0.1027	0.7234	0.068
Mof_C 	C 	0.56355	0.12702	0.70481	0.008
Mof_H 	H 	0.5514	0.1278	0.6963	0.038
Mof_C 	C 	0.58011	0.14067	0.70178	-0.052
Mof_C 	C 	0.59741	0.13923	0.71504	0.043
Mof_H 	H 	0.6086	0.1489	0.7133	0.01
Mof_C 	C 	0.57939	0.15696	0.68567	0.134
Mof_N 	N 	0.63587	0.23473	0.83907	-0.226
Mof_N 	N 	0.77354	0.13623	0.89569	-0.258
Mof_N 	N 	0.73319	0.14933	0.87727	-0.226
Mof_N 	N 	0.68948	0.15364	0.8297	-0.153
Mof_N 	N 	0.68039	0.18807	0.8401	-0.151
Mof_N 	N 	0.66477	0.17285	0.8103	-0.155
Mof_N 	N 	0.6496	0.12139	0.77534	-0.23
Mof_N 	N 	0.62278	0.0925	0.75126	-0.262
Mof_N 	N 	0.59886	0.12494	0.72999	-0.227
Mof_N 	N 	0.5944	0.17137	0.68603	-0.151
Mof_S 	S 	0.79112	0.16525	0.92311	-0.061
Mof_S 	S 	0.6157	0.05016	0.74509	-0.062
Mof_C 	C 	0.64916	0.71878	0.33895	0.041
Mof_H 	H 	0.656	0.7154	0.3517	0.011
Mof_C 	C 	0.65367	0.70684	0.32155	-0.051
Mof_C 	C 	0.644	0.71194	0.30267	0.009
Mof_H 	H 	0.6466	0.704	0.2904	0.037
Mof_C 	C 	0.63056	0.72884	0.3024	-0.099
Mof_H 	H 	0.6239	0.7329	0.2898	0.066
Mof_C 	C 	0.6269	0.73985	0.32076	0.059
Mof_H 	H 	0.6177	0.7515	0.3204	0
Mof_C 	C 	0.78121	0.64828	0.40698	0.096
Mof_C 	C 	0.73466	0.66482	0.39137	0.056
Mof_H 	H 	0.7447	0.6636	0.4023	-0.001
Mof_C 	C 	0.72205	0.68264	0.39056	-0.098
Mof_H 	H 	0.7231	0.693	0.4011	0.065
Mof_C 	C 	0.70823	0.68501	0.37449	0.009
Mof_H 	H 	0.6998	0.6972	0.3735	0.037
Mof_C 	C 	0.70667	0.66906	0.35943	-0.05
Mof_C 	C 	0.71935	0.65169	0.36174	0.039
Mof_H 	H 	0.7182	0.6408	0.3517	0.014
Mof_C 	C 	0.69153	0.67038	0.34209	0.134
Mof_C 	C 	0.6673	0.68823	0.32381	0.138
Mof_C 	C 	0.67578	0.6557	0.31447	0.14
Mof_C 	C 	0.65435	0.63725	0.28758	0.044
Mof_H 	H 	0.6456	0.6493	0.2872	0.009
Mof_C 	C 	0.67164	0.63729	0.30122	-0.053
Mof_C 	C 	0.68399	0.61928	0.3021	0.008
Mof_H 	H 	0.6957	0.6185	0.3112	0.038
Mof_C 	C 	0.67859	0.60256	0.28937	-0.097
Mof_H 	H 	0.6866	0.59	0.2897	0.065
Mof_C 	C 	0.66158	0.60415	0.27623	0.057
Mof_H 	H 	0.6582	0.5926	0.2675	0.002
Mof_C 	C 	0.61991	0.57496	0.24874	0.104
Mof_C 	C 	0.58293	0.61136	0.2324	0.06
Mof_H 	H 	0.5841	0.6007	0.2427	0
Mof_C 	C 	0.56527	0.61214	0.22075	-0.1
Mof_H 	H 	0.5541	0.6027	0.2234	0.068
Mof_C 	C 	0.56355	0.62702	0.20481	0.008
Mof_H 	H 	0.5514	0.6278	0.1963	0.038
Mof_C 	C 	0.58011	0.64067	0.20178	-0.052
Mof_C 	C 	0.59741	0.63923	0.21504	0.043
Mof_H 	H 	0.6086	0.6489	0.2133	0.01
Mof_C 	C 	0.57939	0.65696	0.18567	0.134
Mof_N 	N 	0.63587	0.73473	0.33907	-0.226
Mof_N 	N 	0.77354	0.63623	0.39569	-0.258
Mof_N 	N 	0.73319	0.64933	0.37727	-0.226
Mof_N 	N 	0.68948	0.65364	0.3297	-0.153
Mof_N 	N 	0.68039	0.68807	0.3401	-0.151
Mof_N 	N 	0.66477	0.67285	0.3103	-0.155
Mof_N 	N 	0.6496	0.62139	0.27534	-0.23
Mof_N 	N 	0.62278	0.5925	0.25126	-0.262
Mof_N 	N 	0.59886	0.62494	0.22999	-0.227
Mof_N 	N 	0.5944	0.67137	0.18603	-0.151
Mof_S 	S 	0.79112	0.66525	0.42311	-0.061
Mof_S 	S 	0.6157	0.55016	0.24509	-0.062
Mof_C 	C 	0.14916	0.21878	0.33895	0.041
Mof_H 	H 	0.156	0.2154	0.3517	0.011
Mof_C 	C 	0.15367	0.20684	0.32155	-0.051
Mof_C 	C 	0.144	0.21194	0.30267	0.009
Mof_H 	H 	0.1466	0.204	0.2904	0.037
Mof_C 	C 	0.13056	0.22884	0.3024	-0.099
Mof_H 	H 	0.1239	0.2329	0.2898	0.066
Mof_C 	C 	0.1269	0.23985	0.32076	0.059
Mof_H 	H 	0.1177	0.2515	0.3204	0
Mof_C 	C 	0.28121	0.14828	0.40698	0.096
Mof_C 	C 	0.23466	0.16482	0.39137	0.056
Mof_H 	H 	0.2447	0.1636	0.4023	-0.001
Mof_C 	C 	0.22205	0.18264	0.39056	-0.098
Mof_H 	H 	0.2231	0.193	0.4011	0.065
Mof_C 	C 	0.20823	0.18501	0.37449	0.009
Mof_H 	H 	0.1998	0.1972	0.3735	0.037
Mof_C 	C 	0.20667	0.16906	0.35943	-0.05
Mof_C 	C 	0.21935	0.15169	0.36174	0.039
Mof_H 	H 	0.2182	0.1408	0.3517	0.014
Mof_C 	C 	0.19153	0.17038	0.34209	0.134
Mof_C 	C 	0.1673	0.18823	0.32381	0.138
Mof_C 	C 	0.17578	0.1557	0.31447	0.14
Mof_C 	C 	0.15435	0.13725	0.28758	0.044
Mof_H 	H 	0.1456	0.1493	0.2872	0.009
Mof_C 	C 	0.17164	0.13729	0.30122	-0.053
Mof_C 	C 	0.18399	0.11928	0.3021	0.008
Mof_H 	H 	0.1957	0.1185	0.3112	0.038
Mof_C 	C 	0.17859	0.10256	0.28937	-0.097
Mof_H 	H 	0.1866	0.09	0.2897	0.065
Mof_C 	C 	0.16158	0.10415	0.27623	0.057
Mof_H 	H 	0.1582	0.0926	0.2675	0.002
Mof_C 	C 	0.11991	0.07496	0.24874	0.104
Mof_C 	C 	0.08293	0.11136	0.2324	0.06
Mof_H 	H 	0.0841	0.1007	0.2427	0
Mof_C 	C 	0.06527	0.11214	0.22075	-0.1
Mof_H 	H 	0.0541	0.1027	0.2234	0.068
Mof_C 	C 	0.06355	0.12702	0.20481	0.008
Mof_H 	H 	0.0514	0.1278	0.1963	0.038
Mof_C 	C 	0.08011	0.14067	0.20178	-0.052
Mof_C 	C 	0.09741	0.13923	0.21504	0.043
Mof_H 	H 	0.1086	0.1489	0.2133	0.01
Mof_C 	C 	0.07939	0.15696	0.18567	0.134
Mof_N 	N 	0.13587	0.23473	0.33907	-0.226
Mof_N 	N 	0.27354	0.13623	0.39569	-0.258
Mof_N 	N 	0.23319	0.14933	0.37727	-0.226
Mof_N 	N 	0.18948	0.15364	0.3297	-0.153
Mof_N 	N 	0.18039	0.18807	0.3401	-0.151
Mof_N 	N 	0.16477	0.17285	0.3103	-0.155
Mof_N 	N 	0.1496	0.12139	0.27534	-0.23
Mof_N 	N 	0.12278	0.0925	0.25126	-0.262
Mof_N 	N 	0.09886	0.12494	0.22999	-0.227
Mof_N 	N 	0.0944	0.17137	0.18603	-0.151
Mof_S 	S 	0.29112	0.16525	0.42311	-0.061
Mof_S 	S 	0.1157	0.05016	0.24509	-0.062
Mof_C 	C 	0.14916	0.71878	0.83895	0.041
Mof_H 	H 	0.156	0.7154	0.8517	0.011
Mof_C 	C 	0.15367	0.70684	0.82155	-0.051
Mof_C 	C 	0.144	0.71194	0.80267	0.009
Mof_H 	H 	0.1466	0.704	0.7904	0.037
Mof_C 	C 	0.13056	0.72884	0.8024	-0.099
Mof_H 	H 	0.1239	0.7329	0.7898	0.066
Mof_C 	C 	0.1269	0.73985	0.82076	0.059
Mof_H 	H 	0.1177	0.7515	0.8204	0
Mof_C 	C 	0.28121	0.64828	0.90698	0.096
Mof_C 	C 	0.23466	0.66482	0.89137	0.056
Mof_H 	H 	0.2447	0.6636	0.9023	-0.001
Mof_C 	C 	0.22205	0.68264	0.89056	-0.098
Mof_H 	H 	0.2231	0.693	0.9011	0.065
Mof_C 	C 	0.20823	0.68501	0.87449	0.009
Mof_H 	H 	0.1998	0.6972	0.8735	0.037
Mof_C 	C 	0.20667	0.66906	0.85943	-0.05
Mof_C 	C 	0.21935	0.65169	0.86174	0.039
Mof_H 	H 	0.2182	0.6408	0.8517	0.014
Mof_C 	C 	0.19153	0.67038	0.84209	0.134
Mof_C 	C 	0.1673	0.68823	0.82381	0.138
Mof_C 	C 	0.17578	0.6557	0.81447	0.14
Mof_C 	C 	0.15435	0.63725	0.78758	0.044
Mof_H 	H 	0.1456	0.6493	0.7872	0.009
Mof_C 	C 	0.17164	0.63729	0.80122	-0.053
Mof_C 	C 	0.18399	0.61928	0.8021	0.008
Mof_H 	H 	0.1957	0.6185	0.8112	0.038
Mof_C 	C 	0.17859	0.60256	0.78937	-0.097
Mof_H 	H 	0.1866	0.59	0.7897	0.065
Mof_C 	C 	0.16158	0.60415	0.77623	0.057
Mof_H 	H 	0.1582	0.5926	0.7675	0.002
Mof_C 	C 	0.11991	0.57496	0.74874	0.104
Mof_C 	C 	0.08293	0.61136	0.7324	0.06
Mof_H 	H 	0.0841	0.6007	0.7427	0
Mof_C 	C 	0.06527	0.61214	0.72075	-0.1
Mof_H 	H 	0.0541	0.6027	0.7234	0.068
Mof_C 	C 	0.06355	0.62702	0.70481	0.008
Mof_H 	H 	0.0514	0.6278	0.6963	0.038
Mof_C 	C 	0.08011	0.64067	0.70178	-0.052
Mof_C 	C 	0.09741	0.63923	0.71504	0.043
Mof_H 	H 	0.1086	0.6489	0.7133	0.01
Mof_C 	C 	0.07939	0.65696	0.68567	0.134
Mof_N 	N 	0.13587	0.73473	0.83907	-0.226
Mof_N 	N 	0.27354	0.63623	0.89569	-0.258
Mof_N 	N 	0.23319	0.64933	0.87727	-0.226
Mof_N 	N 	0.18948	0.65364	0.8297	-0.153
Mof_N 	N 	0.18039	0.68807	0.8401	-0.151
Mof_N 	N 	0.16477	0.67285	0.8103	-0.155
Mof_N 	N 	0.1496	0.62139	0.77534	-0.23
Mof_N 	N 	0.12278	0.5925	0.75126	-0.262
Mof_N 	N 	0.09886	0.62494	0.72999	-0.227
Mof_N 	N 	0.0944	0.67137	0.68603	-0.151
Mof_S 	S 	0.29112	0.66525	0.92311	-0.061
Mof_S 	S 	0.1157	0.55016	0.74509	-0.062
Mof_C 	C 	0.10084	0.03122	0.33895	0.041
Mof_H 	H 	0.094	0.0346	0.3517	0.011
Mof_C 	C 	0.09633	0.04316	0.32155	-0.051
Mof_C 	C 	0.106	0.03806	0.30267	0.008
Mof_H 	H 	0.1034	0.046	0.2904	0.037
Mof_C 	C 	0.11944	0.02116	0.3024	-0.099
Mof_H 	H 	0.1261	0.0171	0.2898	0.066
Mof_C 	C 	0.1231	0.01015	0.32076	0.059
Mof_H 	H 	0.1323	0.9985	0.3204	0
Mof_C 	C 	0.96879	0.10172	0.40698	0.096
Mof_C 	C 	0.01534	0.08518	0.39137	0.056
Mof_H 	H 	0.0053	0.0864	0.4023	-0.001
Mof_C 	C 	0.02795	0.06736	0.39056	-0.098
Mof_H 	H 	0.0269	0.057	0.4011	0.065
Mof_C 	C 	0.04177	0.06499	0.37449	0.009
Mof_H 	H 	0.0502	0.0528	0.3735	0.037
Mof_C 	C 	0.04333	0.08094	0.35943	-0.05
Mof_C 	C 	0.03065	0.09831	0.36174	0.039
Mof_H 	H 	0.0318	0.1092	0.3517	0.014
Mof_C 	C 	0.05847	0.07962	0.34209	0.134
Mof_C 	C 	0.0827	0.06177	0.32381	0.138
Mof_C 	C 	0.07422	0.0943	0.31447	0.14
Mof_C 	C 	0.09565	0.11275	0.28758	0.044
Mof_H 	H 	0.1044	0.1007	0.2872	0.009
Mof_C 	C 	0.07836	0.11271	0.30122	-0.053
Mof_C 	C 	0.06601	0.13072	0.3021	0.008
Mof_H 	H 	0.0543	0.1315	0.3112	0.038
Mof_C 	C 	0.07141	0.14744	0.28937	-0.097
Mof_H 	H 	0.0634	0.16	0.2897	0.065
Mof_C 	C 	0.08842	0.14585	0.27623	0.057
Mof_H 	H 	0.0918	0.1574	0.2675	0.002
Mof_C 	C 	0.13009	0.17504	0.24874	0.104
Mof_C 	C 	0.16707	0.13864	0.2324	0.06
Mof_H 	H 	0.1659	0.1493	0.2427	0
Mof_C 	C 	0.18473	0.13786	0.22075	-0.1
Mof_H 	H 	0.1959	0.1473	0.2234	0.068
Mof_C 	C 	0.18645	0.12298	0.20481	0.008
Mof_H 	H 	0.1986	0.1222	0.1963	0.038
Mof_C 	C 	0.16989	0.10933	0.20178	-0.052
Mof_C 	C 	0.15259	0.11077	0.21504	0.043
Mof_H 	H 	0.1414	0.1011	0.2133	0.01
Mof_C 	C 	0.17061	0.09304	0.18567	0.134
Mof_N 	N 	0.11413	0.01527	0.33907	-0.225
Mof_N 	N 	0.97646	0.11377	0.39569	-0.258
Mof_N 	N 	0.01681	0.10067	0.37727	-0.226
Mof_N 	N 	0.06052	0.09636	0.3297	-0.153
Mof_N 	N 	0.06961	0.06193	0.3401	-0.151
Mof_N 	N 	0.08523	0.07715	0.3103	-0.155
Mof_N 	N 	0.1004	0.12861	0.27534	-0.23
Mof_N 	N 	0.12722	0.1575	0.25126	-0.262
Mof_N 	N 	0.15114	0.12506	0.22999	-0.227
Mof_N 	N 	0.1556	0.07863	0.18603	-0.151
Mof_S 	S 	0.95888	0.08475	0.42311	-0.061
Mof_S 	S 	0.1343	0.19984	0.24509	-0.062
Mof_C 	C 	0.10084	0.53122	0.83895	0.041
Mof_H 	H 	0.094	0.5346	0.8517	0.011
Mof_C 	C 	0.09633	0.54316	0.82155	-0.051
Mof_C 	C 	0.106	0.53806	0.80267	0.009
Mof_H 	H 	0.1034	0.546	0.7904	0.037
Mof_C 	C 	0.11944	0.52116	0.8024	-0.099
Mof_H 	H 	0.1261	0.5171	0.7898	0.066
Mof_C 	C 	0.1231	0.51015	0.82076	0.059
Mof_H 	H 	0.1323	0.4985	0.8204	0
Mof_C 	C 	0.96879	0.60172	0.90698	0.096
Mof_C 	C 	0.01534	0.58518	0.89137	0.056
Mof_H 	H 	0.0053	0.5864	0.9023	-0.001
Mof_C 	C 	0.02795	0.56736	0.89056	-0.098
Mof_H 	H 	0.0269	0.557	0.9011	0.065
Mof_C 	C 	0.04177	0.56499	0.87449	0.009
Mof_H 	H 	0.0502	0.5528	0.8735	0.037
Mof_C 	C 	0.04333	0.58094	0.85943	-0.05
Mof_C 	C 	0.03065	0.59831	0.86174	0.039
Mof_H 	H 	0.0318	0.6092	0.8517	0.014
Mof_C 	C 	0.05847	0.57962	0.84209	0.134
Mof_C 	C 	0.0827	0.56177	0.82381	0.138
Mof_C 	C 	0.07422	0.5943	0.81447	0.14
Mof_C 	C 	0.09565	0.61275	0.78758	0.044
Mof_H 	H 	0.1044	0.6007	0.7872	0.009
Mof_C 	C 	0.07836	0.61271	0.80122	-0.053
Mof_C 	C 	0.06601	0.63072	0.8021	0.008
Mof_H 	H 	0.0543	0.6315	0.8112	0.038
Mof_C 	C 	0.07141	0.64744	0.78937	-0.097
Mof_H 	H 	0.0634	0.66	0.7897	0.065
Mof_C 	C 	0.08842	0.64585	0.77623	0.057
Mof_H 	H 	0.0918	0.6574	0.7675	0.002
Mof_C 	C 	0.13009	0.67504	0.74874	0.104
Mof_C 	C 	0.16707	0.63864	0.7324	0.06
Mof_H 	H 	0.1659	0.6493	0.7427	0
Mof_C 	C 	0.18473	0.63786	0.72075	-0.1
Mof_H 	H 	0.1959	0.6473	0.7234	0.068
Mof_C 	C 	0.18645	0.62298	0.70481	0.008
Mof_H 	H 	0.1986	0.6222	0.6963	0.038
Mof_C 	C 	0.16989	0.60933	0.70178	-0.052
Mof_C 	C 	0.15259	0.61077	0.71504	0.043
Mof_H 	H 	0.1414	0.6011	0.7133	0.01
Mof_C 	C 	0.17061	0.59304	0.68567	0.134
Mof_N 	N 	0.11413	0.51527	0.83907	-0.226
Mof_N 	N 	0.97646	0.61377	0.89569	-0.258
Mof_N 	N 	0.01681	0.60067	0.87727	-0.226
Mof_N 	N 	0.06052	0.59636	0.8297	-0.153
Mof_N 	N 	0.06961	0.56193	0.8401	-0.151
Mof_N 	N 	0.08523	0.57715	0.8103	-0.155
Mof_N 	N 	0.1004	0.62861	0.77534	-0.23
Mof_N 	N 	0.12722	0.6575	0.75126	-0.262
Mof_N 	N 	0.15114	0.62506	0.72999	-0.227
Mof_N 	N 	0.1556	0.57863	0.68603	-0.151
Mof_S 	S 	0.95888	0.58475	0.92311	-0.061
Mof_S 	S 	0.1343	0.69984	0.74509	-0.062
Mof_C 	C 	0.60084	0.03122	0.83895	0.041
Mof_H 	H 	0.594	0.0346	0.8517	0.011
Mof_C 	C 	0.59633	0.04316	0.82155	-0.051
Mof_C 	C 	0.606	0.03806	0.80267	0.008
Mof_H 	H 	0.6034	0.046	0.7904	0.037
Mof_C 	C 	0.61944	0.02116	0.8024	-0.099
Mof_H 	H 	0.6261	0.0171	0.7898	0.066
Mof_C 	C 	0.6231	0.01015	0.82076	0.059
Mof_H 	H 	0.6323	0.9985	0.8204	0
Mof_C 	C 	0.46879	0.10172	0.90698	0.096
Mof_C 	C 	0.51534	0.08518	0.89137	0.056
Mof_H 	H 	0.5053	0.0864	0.9023	-0.001
Mof_C 	C 	0.52795	0.06736	0.89056	-0.098
Mof_H 	H 	0.5269	0.057	0.9011	0.065
Mof_C 	C 	0.54177	0.06499	0.87449	0.009
Mof_H 	H 	0.5502	0.0528	0.8735	0.037
Mof_C 	C 	0.54333	0.08094	0.85943	-0.05
Mof_C 	C 	0.53065	0.09831	0.86174	0.039
Mof_H 	H 	0.5318	0.1092	0.8517	0.014
Mof_C 	C 	0.55847	0.07962	0.84209	0.134
Mof_C 	C 	0.5827	0.06177	0.82381	0.138
Mof_C 	C 	0.57422	0.0943	0.81447	0.14
Mof_C 	C 	0.59565	0.11275	0.78758	0.044
Mof_H 	H 	0.6044	0.1007	0.7872	0.009
Mof_C 	C 	0.57836	0.11271	0.80122	-0.053
Mof_C 	C 	0.56601	0.13072	0.8021	0.008
Mof_H 	H 	0.5543	0.1315	0.8112	0.038
Mof_C 	C 	0.57141	0.14744	0.78937	-0.097
Mof_H 	H 	0.5634	0.16	0.7897	0.065
Mof_C 	C 	0.58842	0.14585	0.77623	0.057
Mof_H 	H 	0.5918	0.1574	0.7675	0.002
Mof_C 	C 	0.63009	0.17504	0.74874	0.104
Mof_C 	C 	0.66707	0.13864	0.7324	0.06
Mof_H 	H 	0.6659	0.1493	0.7427	0
Mof_C 	C 	0.68473	0.13786	0.72075	-0.1
Mof_H 	H 	0.6959	0.1473	0.7234	0.068
Mof_C 	C 	0.68645	0.12298	0.70481	0.008
Mof_H 	H 	0.6986	0.1222	0.6963	0.038
Mof_C 	C 	0.66989	0.10933	0.70178	-0.052
Mof_C 	C 	0.65259	0.11077	0.71504	0.043
Mof_H 	H 	0.6414	0.1011	0.7133	0.01
Mof_C 	C 	0.67061	0.09304	0.68567	0.134
Mof_N 	N 	0.61413	0.01527	0.83907	-0.225
Mof_N 	N 	0.47646	0.11377	0.89569	-0.258
Mof_N 	N 	0.51681	0.10067	0.87727	-0.226
Mof_N 	N 	0.56052	0.09636	0.8297	-0.153
Mof_N 	N 	0.56961	0.06193	0.8401	-0.151
Mof_N 	N 	0.58523	0.07715	0.8103	-0.155
Mof_N 	N 	0.6004	0.12861	0.77534	-0.23
Mof_N 	N 	0.62722	0.1575	0.75126	-0.262
Mof_N 	N 	0.65114	0.12506	0.72999	-0.227
Mof_N 	N 	0.6556	0.07863	0.68603	-0.151
Mof_S 	S 	0.45888	0.08475	0.92311	-0.061
Mof_S 	S 	0.6343	0.19984	0.74509	-0.062
Mof_C 	C 	0.60084	0.53122	0.33895	0.041
Mof_H 	H 	0.594	0.5346	0.3517	0.011
Mof_C 	C 	0.59633	0.54316	0.32155	-0.051
Mof_C 	C 	0.606	0.53806	0.30267	0.009
Mof_H 	H 	0.6034	0.546	0.2904	0.037
Mof_C 	C 	0.61944	0.52116	0.3024	-0.099
Mof_H 	H 	0.6261	0.5171	0.2898	0.066
Mof_C 	C 	0.6231	0.51015	0.32076	0.059
Mof_H 	H 	0.6323	0.4985	0.3204	0
Mof_C 	C 	0.46879	0.60172	0.40698	0.096
Mof_C 	C 	0.51534	0.58518	0.39137	0.056
Mof_H 	H 	0.5053	0.5864	0.4023	-0.001
Mof_C 	C 	0.52795	0.56736	0.39056	-0.098
Mof_H 	H 	0.5269	0.557	0.4011	0.065
Mof_C 	C 	0.54177	0.56499	0.37449	0.009
Mof_H 	H 	0.5502	0.5528	0.3735	0.037
Mof_C 	C 	0.54333	0.58094	0.35943	-0.05
Mof_C 	C 	0.53065	0.59831	0.36174	0.039
Mof_H 	H 	0.5318	0.6092	0.3517	0.014
Mof_C 	C 	0.55847	0.57962	0.34209	0.134
Mof_C 	C 	0.5827	0.56177	0.32381	0.138
Mof_C 	C 	0.57422	0.5943	0.31447	0.14
Mof_C 	C 	0.59565	0.61275	0.28758	0.044
Mof_H 	H 	0.6044	0.6007	0.2872	0.009
Mof_C 	C 	0.57836	0.61271	0.30122	-0.053
Mof_C 	C 	0.56601	0.63072	0.3021	0.008
Mof_H 	H 	0.5543	0.6315	0.3112	0.038
Mof_C 	C 	0.57141	0.64744	0.28937	-0.097
Mof_H 	H 	0.5634	0.66	0.2897	0.065
Mof_C 	C 	0.58842	0.64585	0.27623	0.057
Mof_H 	H 	0.5918	0.6574	0.2675	0.002
Mof_C 	C 	0.63009	0.67504	0.24874	0.104
Mof_C 	C 	0.66707	0.63864	0.2324	0.06
Mof_H 	H 	0.6659	0.6493	0.2427	0
Mof_C 	C 	0.68473	0.63786	0.22075	-0.1
Mof_H 	H 	0.6959	0.6473	0.2234	0.068
Mof_C 	C 	0.68645	0.62298	0.20481	0.008
Mof_H 	H 	0.6986	0.6222	0.1963	0.038
Mof_C 	C 	0.66989	0.60933	0.20178	-0.052
Mof_C 	C 	0.65259	0.61077	0.21504	0.043
Mof_H 	H 	0.6414	0.6011	0.2133	0.01
Mof_C 	C 	0.67061	0.59304	0.18567	0.134
Mof_N 	N 	0.61413	0.51527	0.33907	-0.226
Mof_N 	N 	0.47646	0.61377	0.39569	-0.258
Mof_N 	N 	0.51681	0.60067	0.37727	-0.226
Mof_N 	N 	0.56052	0.59636	0.3297	-0.153
Mof_N 	N 	0.56961	0.56193	0.3401	-0.151
Mof_N 	N 	0.58523	0.57715	0.3103	-0.155
Mof_N 	N 	0.6004	0.62861	0.27534	-0.23
Mof_N 	N 	0.62722	0.6575	0.25126	-0.262
Mof_N 	N 	0.65114	0.62506	0.22999	-0.227
Mof_N 	N 	0.6556	0.57863	0.18603	-0.151
Mof_S 	S 	0.45888	0.58475	0.42311	-0.061
Mof_S 	S 	0.6343	0.69984	0.24509	-0.062
Mof_C 	C 	0.60084	0.71878	0.91105	0.041
Mof_H 	H 	0.594	0.7154	0.8983	0.011
Mof_C 	C 	0.59633	0.70684	0.92845	-0.051
Mof_C 	C 	0.606	0.71194	0.94733	0.009
Mof_H 	H 	0.6034	0.704	0.9596	0.037
Mof_C 	C 	0.61944	0.72884	0.9476	-0.099
Mof_H 	H 	0.6261	0.7329	0.9602	0.066
Mof_C 	C 	0.6231	0.73985	0.92924	0.059
Mof_H 	H 	0.6323	0.7515	0.9296	0
Mof_C 	C 	0.46879	0.64828	0.84302	0.096
Mof_C 	C 	0.51534	0.66482	0.85863	0.056
Mof_H 	H 	0.5053	0.6636	0.8477	-0.001
Mof_C 	C 	0.52795	0.68264	0.85944	-0.098
Mof_H 	H 	0.5269	0.693	0.8489	0.065
Mof_C 	C 	0.54177	0.68501	0.87551	0.009
Mof_H 	H 	0.5502	0.6972	0.8765	0.037
Mof_C 	C 	0.54333	0.66906	0.89057	-0.05
Mof_C 	C 	0.53065	0.65169	0.88826	0.039
Mof_H 	H 	0.5318	0.6408	0.8983	0.014
Mof_C 	C 	0.55847	0.67038	0.90791	0.134
Mof_C 	C 	0.5827	0.68823	0.92619	0.138
Mof_C 	C 	0.57422	0.6557	0.93553	0.14
Mof_C 	C 	0.59565	0.63725	0.96242	0.044
Mof_H 	H 	0.6044	0.6493	0.9628	0.009
Mof_C 	C 	0.57836	0.63729	0.94878	-0.053
Mof_C 	C 	0.56601	0.61928	0.9479	0.008
Mof_H 	H 	0.5543	0.6185	0.9388	0.038
Mof_C 	C 	0.57141	0.60256	0.96063	-0.097
Mof_H 	H 	0.5634	0.59	0.9603	0.065
Mof_C 	C 	0.58842	0.60415	0.97377	0.057
Mof_H 	H 	0.5918	0.5926	0.9825	0.002
Mof_C 	C 	0.63009	0.57496	0.00126	0.104
Mof_C 	C 	0.66707	0.61136	0.0176	0.06
Mof_H 	H 	0.6659	0.6007	0.0073	0
Mof_C 	C 	0.68473	0.61214	0.02925	-0.1
Mof_H 	H 	0.6959	0.6027	0.0266	0.068
Mof_C 	C 	0.68645	0.62702	0.04519	0.008
Mof_H 	H 	0.6986	0.6278	0.0537	0.038
Mof_C 	C 	0.66989	0.64067	0.04822	-0.052
Mof_C 	C 	0.65259	0.63923	0.03496	0.043
Mof_H 	H 	0.6414	0.6489	0.0367	0.01
Mof_C 	C 	0.67061	0.65696	0.06433	0.134
Mof_N 	N 	0.61413	0.73473	0.91093	-0.226
Mof_N 	N 	0.47646	0.63623	0.85431	-0.258
Mof_N 	N 	0.51681	0.64933	0.87273	-0.226
Mof_N 	N 	0.56052	0.65364	0.9203	-0.153
Mof_N 	N 	0.56961	0.68807	0.9099	-0.151
Mof_N 	N 	0.58523	0.67285	0.9397	-0.155
Mof_N 	N 	0.6004	0.62139	0.97466	-0.23
Mof_N 	N 	0.62722	0.5925	0.99874	-0.262
Mof_N 	N 	0.65114	0.62494	0.02001	-0.227
Mof_N 	N 	0.6556	0.67137	0.06397	-0.151
Mof_S 	S 	0.45888	0.66525	0.82689	-0.061
Mof_S 	S 	0.6343	0.55016	0.00491	-0.062
Mof_C 	C 	0.60084	0.21878	0.41105	0.041
Mof_H 	H 	0.594	0.2154	0.3983	0.011
Mof_C 	C 	0.59633	0.20684	0.42845	-0.051
Mof_C 	C 	0.606	0.21194	0.44733	0.009
Mof_H 	H 	0.6034	0.204	0.4596	0.037
Mof_C 	C 	0.61944	0.22884	0.4476	-0.099
Mof_H 	H 	0.6261	0.2329	0.4602	0.066
Mof_C 	C 	0.6231	0.23985	0.42924	0.059
Mof_H 	H 	0.6323	0.2515	0.4296	0
Mof_C 	C 	0.46879	0.14828	0.34302	0.096
Mof_C 	C 	0.51534	0.16482	0.35863	0.056
Mof_H 	H 	0.5053	0.1636	0.3477	-0.001
Mof_C 	C 	0.52795	0.18264	0.35944	-0.098
Mof_H 	H 	0.5269	0.193	0.3489	0.065
Mof_C 	C 	0.54177	0.18501	0.37551	0.009
Mof_H 	H 	0.5502	0.1972	0.3765	0.037
Mof_C 	C 	0.54333	0.16906	0.39057	-0.05
Mof_C 	C 	0.53065	0.15169	0.38826	0.039
Mof_H 	H 	0.5318	0.1408	0.3983	0.014
Mof_C 	C 	0.55847	0.17038	0.40791	0.134
Mof_C 	C 	0.5827	0.18823	0.42619	0.138
Mof_C 	C 	0.57422	0.1557	0.43553	0.14
Mof_C 	C 	0.59565	0.13725	0.46242	0.044
Mof_H 	H 	0.6044	0.1493	0.4628	0.009
Mof_C 	C 	0.57836	0.13729	0.44878	-0.053
Mof_C 	C 	0.56601	0.11928	0.4479	0.008
Mof_H 	H 	0.5543	0.1185	0.4388	0.038
Mof_C 	C 	0.57141	0.10256	0.46063	-0.097
Mof_H 	H 	0.5634	0.09	0.4603	0.065
Mof_C 	C 	0.58842	0.10415	0.47377	0.057
Mof_H 	H 	0.5918	0.0926	0.4825	0.002
Mof_C 	C 	0.63009	0.07496	0.50126	0.104
Mof_C 	C 	0.66707	0.11136	0.5176	0.06
Mof_H 	H 	0.6659	0.1007	0.5073	0
Mof_C 	C 	0.68473	0.11214	0.52925	-0.1
Mof_H 	H 	0.6959	0.1027	0.5266	0.068
Mof_C 	C 	0.68645	0.12702	0.54519	0.008
Mof_H 	H 	0.6986	0.1278	0.5537	0.038
Mof_C 	C 	0.66989	0.14067	0.54822	-0.052
Mof_C 	C 	0.65259	0.13923	0.53496	0.043
Mof_H 	H 	0.6414	0.1489	0.5367	0.01
Mof_C 	C 	0.67061	0.15696	0.56433	0.134
Mof_N 	N 	0.61413	0.23473	0.41093	-0.226
Mof_N 	N 	0.47646	0.13623	0.35431	-0.258
Mof_N 	N 	0.51681	0.14933	0.37273	-0.226
Mof_N 	N 	0.56052	0.15364	0.4203	-0.153
Mof_N 	N 	0.56961	0.18807	0.4099	-0.151
Mof_N 	N 	0.58523	0.17285	0.4397	-0.155
Mof_N 	N 	0.6004	0.12139	0.47466	-0.23
Mof_N 	N 	0.62722	0.0925	0.49874	-0.262
Mof_N 	N 	0.65114	0.12494	0.52001	-0.227
Mof_N 	N 	0.6556	0.17137	0.56397	-0.151
Mof_S 	S 	0.45888	0.16525	0.32689	-0.061
Mof_S 	S 	0.6343	0.05016	0.50491	-0.062
Mof_C 	C 	0.10084	0.71878	0.41105	0.041
Mof_H 	H 	0.094	0.7154	0.3983	0.011
Mof_C 	C 	0.09633	0.70684	0.42845	-0.051
Mof_C 	C 	0.106	0.71194	0.44733	0.009
Mof_H 	H 	0.1034	0.704	0.4596	0.037
Mof_C 	C 	0.11944	0.72884	0.4476	-0.099
Mof_H 	H 	0.1261	0.7329	0.4602	0.066
Mof_C 	C 	0.1231	0.73985	0.42924	0.059
Mof_H 	H 	0.1323	0.7515	0.4296	0
Mof_C 	C 	0.96879	0.64828	0.34302	0.096
Mof_C 	C 	0.01534	0.66482	0.35863	0.056
Mof_H 	H 	0.0053	0.6636	0.3477	-0.001
Mof_C 	C 	0.02795	0.68264	0.35944	-0.098
Mof_H 	H 	0.0269	0.693	0.3489	0.065
Mof_C 	C 	0.04177	0.68501	0.37551	0.009
Mof_H 	H 	0.0502	0.6972	0.3765	0.037
Mof_C 	C 	0.04333	0.66906	0.39057	-0.05
Mof_C 	C 	0.03065	0.65169	0.38826	0.039
Mof_H 	H 	0.0318	0.6408	0.3983	0.014
Mof_C 	C 	0.05847	0.67038	0.40791	0.134
Mof_C 	C 	0.0827	0.68823	0.42619	0.138
Mof_C 	C 	0.07422	0.6557	0.43553	0.14
Mof_C 	C 	0.09565	0.63725	0.46242	0.044
Mof_H 	H 	0.1044	0.6493	0.4628	0.009
Mof_C 	C 	0.07836	0.63729	0.44878	-0.053
Mof_C 	C 	0.06601	0.61928	0.4479	0.008
Mof_H 	H 	0.0543	0.6185	0.4388	0.038
Mof_C 	C 	0.07141	0.60256	0.46063	-0.097
Mof_H 	H 	0.0634	0.59	0.4603	0.065
Mof_C 	C 	0.08842	0.60415	0.47377	0.057
Mof_H 	H 	0.0918	0.5926	0.4825	0.002
Mof_C 	C 	0.13009	0.57496	0.50126	0.104
Mof_C 	C 	0.16707	0.61136	0.5176	0.06
Mof_H 	H 	0.1659	0.6007	0.5073	0
Mof_C 	C 	0.18473	0.61214	0.52925	-0.1
Mof_H 	H 	0.1959	0.6027	0.5266	0.068
Mof_C 	C 	0.18645	0.62702	0.54519	0.008
Mof_H 	H 	0.1986	0.6278	0.5537	0.038
Mof_C 	C 	0.16989	0.64067	0.54822	-0.052
Mof_C 	C 	0.15259	0.63923	0.53496	0.043
Mof_H 	H 	0.1414	0.6489	0.5367	0.01
Mof_C 	C 	0.17061	0.65696	0.56433	0.134
Mof_N 	N 	0.11413	0.73473	0.41093	-0.226
Mof_N 	N 	0.97646	0.63623	0.35431	-0.258
Mof_N 	N 	0.01681	0.64933	0.37273	-0.226
Mof_N 	N 	0.06052	0.65364	0.4203	-0.153
Mof_N 	N 	0.06961	0.68807	0.4099	-0.151
Mof_N 	N 	0.08523	0.67285	0.4397	-0.155
Mof_N 	N 	0.1004	0.62139	0.47466	-0.23
Mof_N 	N 	0.12722	0.5925	0.49874	-0.262
Mof_N 	N 	0.15114	0.62494	0.52001	-0.227
Mof_N 	N 	0.1556	0.67137	0.56397	-0.151
Mof_S 	S 	0.95888	0.66525	0.32689	-0.061
Mof_S 	S 	0.1343	0.55016	0.50491	-0.062
Mof_C 	C 	0.10084	0.21878	0.91105	0.041
Mof_H 	H 	0.094	0.2154	0.8983	0.011
Mof_C 	C 	0.09633	0.20684	0.92845	-0.051
Mof_C 	C 	0.106	0.21194	0.94733	0.009
Mof_H 	H 	0.1034	0.204	0.9596	0.037
Mof_C 	C 	0.11944	0.22884	0.9476	-0.099
Mof_H 	H 	0.1261	0.2329	0.9602	0.066
Mof_C 	C 	0.1231	0.23985	0.92924	0.059
Mof_H 	H 	0.1323	0.2515	0.9296	0
Mof_C 	C 	0.96879	0.14828	0.84302	0.096
Mof_C 	C 	0.01534	0.16482	0.85863	0.056
Mof_H 	H 	0.0053	0.1636	0.8477	-0.001
Mof_C 	C 	0.02795	0.18264	0.85944	-0.098
Mof_H 	H 	0.0269	0.193	0.8489	0.065
Mof_C 	C 	0.04177	0.18501	0.87551	0.009
Mof_H 	H 	0.0502	0.1972	0.8765	0.037
Mof_C 	C 	0.04333	0.16906	0.89057	-0.05
Mof_C 	C 	0.03065	0.15169	0.88826	0.039
Mof_H 	H 	0.0318	0.1408	0.8983	0.014
Mof_C 	C 	0.05847	0.17038	0.90791	0.134
Mof_C 	C 	0.0827	0.18823	0.92619	0.138
Mof_C 	C 	0.07422	0.1557	0.93553	0.14
Mof_C 	C 	0.09565	0.13725	0.96242	0.044
Mof_H 	H 	0.1044	0.1493	0.9628	0.009
Mof_C 	C 	0.07836	0.13729	0.94878	-0.053
Mof_C 	C 	0.06601	0.11928	0.9479	0.008
Mof_H 	H 	0.0543	0.1185	0.9388	0.038
Mof_C 	C 	0.07141	0.10256	0.96063	-0.097
Mof_H 	H 	0.0634	0.09	0.9603	0.065
Mof_C 	C 	0.08842	0.10415	0.97377	0.057
Mof_H 	H 	0.0918	0.0926	0.9825	0.002
Mof_C 	C 	0.13009	0.07496	0.00126	0.104
Mof_C 	C 	0.16707	0.11136	0.0176	0.06
Mof_H 	H 	0.1659	0.1007	0.0073	0
Mof_C 	C 	0.18473	0.11214	0.02925	-0.1
Mof_H 	H 	0.1959	0.1027	0.0266	0.068
Mof_C 	C 	0.18645	0.12702	0.04519	0.008
Mof_H 	H 	0.1986	0.1278	0.0537	0.038
Mof_C 	C 	0.16989	0.14067	0.04822	-0.052
Mof_C 	C 	0.15259	0.13923	0.03496	0.043
Mof_H 	H 	0.1414	0.1489	0.0367	0.01
Mof_C 	C 	0.17061	0.15696	0.06433	0.134
Mof_N 	N 	0.11413	0.23473	0.91093	-0.226
Mof_N 	N 	0.97646	0.13623	0.85431	-0.258
Mof_N 	N 	0.01681	0.14933	0.87273	-0.226
Mof_N 	N 	0.06052	0.15364	0.9203	-0.153
Mof_N 	N 	0.06961	0.18807	0.9099	-0.151
Mof_N 	N 	0.08523	0.17285	0.9397	-0.155
Mof_N 	N 	0.1004	0.12139	0.97466	-0.23
Mof_N 	N 	0.12722	0.0925	0.99874	-0.262
Mof_N 	N 	0.15114	0.12494	0.02001	-0.227
Mof_N 	N 	0.1556	0.17137	0.06397	-0.151
Mof_S 	S 	0.95888	0.16525	0.82689	-0.061
Mof_S 	S 	0.1343	0.05016	0.00491	-0.062
Mof_Co	Co	0.36952	0.11952	-0	1.119
Mof_Co	Co	0.36952	0.61952	0.5	1.119
Mof_Co	Co	0.86952	0.61952	-0	1.119
Mof_Co	Co	0.88048	0.63048	0.5	1.119
Mof_Co	Co	0.88048	0.13048	-0	1.119
Mof_Co	Co	0.38048	0.63048	-0	1.119
Mof_Co	Co	0.38048	0.61952	0.25	1.119
Mof_Co	Co	0.38048	0.11952	0.75	1.119
Mof_Co	Co	0.86952	0.13048	0.75	1.119
Mof_Co	Co	0.86952	0.63048	0.25	1.119
Mof_Co	Co	5.09275e-33	0.36952	0.11952	1.119
Mof_Co	Co	-3.87e-33	0.86952	0.61952	1.119
Mof_Co	Co	0.5	0.36952	0.61952	1.119
Mof_Co	Co	0.5	0.88048	0.63048	1.119
Mof_Co	Co	4.89222e-34	0.88048	0.13048	1.119
Mof_Co	Co	-3.82891e-33	0.38048	0.63048	1.119
Mof_Co	Co	0.25	0.38048	0.61952	1.119
Mof_Co	Co	0.75	0.38048	0.11952	1.119
Mof_Co	Co	0.75	0.86952	0.13048	1.119
Mof_Co	Co	0.25	0.86952	0.63048	1.119
Mof_Co	Co	0.11952	0	0.36952	1.119
Mof_Co	Co	0.11952	0.5	0.86952	1.119
Mof_Co	Co	0.61952	0	0.86952	1.119
Mof_Co	Co	0.63048	0.5	0.88048	1.119
Mof_Co	Co	0.63048	-3.09641e-33	0.38048	1.119
Mof_Co	Co	0.61952	0.25	0.38048	1.119
Mof_Co	Co	0.61952	0.75	0.88048	1.119
Mof_Co	Co	0.11952	0.75	0.38048	1.119
Mof_Co	Co	0.13048	0.75	0.86952	1.119
Mof_Co	Co	0.13048	0.25	0.36952	1.119
Mof_Co	Co	0.86952	0.11952	0.5	1.119
Mof_Co	Co	0.38048	0.13048	0.5	1.119
Mof_Co	Co	0.36952	0.63048	0.75	1.119
Mof_Co	Co	0.36952	0.13048	0.25	1.119
Mof_Co	Co	0.88048	0.11952	0.25	1.119
Mof_Co	Co	0.88048	0.61952	0.75	1.119
Mof_Co	Co	0.11952	0.25	0.88048	1.119
Mof_Co	Co	0.63048	0.75	0.36952	1.119
Mof_Co	Co	0.63048	0.25	0.86952	1.119
Mof_Co	Co	0.13048	0.5	0.38048	1.119
Mof_Co	Co	0.13048	-6.19283e-33	0.88048	1.119
Mof_Co	Co	0.61952	0.5	0.36952	1.119
Mof_Co	Co	0.75	0.36952	0.63048	1.119
Mof_Co	Co	0.25	0.36952	0.13048	1.119
Mof_Co	Co	0.25	0.88048	0.11952	1.119
Mof_Co	Co	0.75	0.88048	0.61952	1.119
Mof_Co	Co	0.5	0.86952	0.11952	1.119
Mof_Co	Co	0.5	0.38048	0.13048	1.119
Mof_Co	Co	0.63048	0.88048	-0	1.119
Mof_Co	Co	0.63048	0.38048	0.5	1.119
Mof_Co	Co	0.13048	0.38048	-0	1.119
Mof_Co	Co	0.11952	0.36952	0.5	1.119
Mof_Co	Co	0.11952	0.86952	-0	1.119
Mof_Co	Co	0.61952	0.38048	0.75	1.119
Mof_Co	Co	0.61952	0.88048	0.25	1.119
Mof_Co	Co	0.13048	0.86952	0.25	1.119
Mof_Co	Co	0.13048	0.36952	0.75	1.119
Mof_Co	Co	0.63048	0.86952	0.75	1.119
Mof_Co	Co	-2.89156e-33	0.63048	0.88048	1.119
Mof_Co	Co	-1.66984e-33	0.13048	0.38048	1.119
Mof_Co	Co	0.5	0.63048	0.38048	1.119
Mof_Co	Co	0.5	0.11952	0.36952	1.119
Mof_Co	Co	-9.12548e-33	0.11952	0.86952	1.119
Mof_Co	Co	0.75	0.61952	0.38048	1.119
Mof_Co	Co	0.25	0.61952	0.88048	1.119
Mof_Co	Co	0.25	0.13048	0.86952	1.119
Mof_Co	Co	0.75	0.13048	0.36952	1.119
Mof_Co	Co	0.75	0.63048	0.86952	1.119
Mof_Co	Co	0.88048	6.19283e-33	0.63048	1.119
Mof_Co	Co	0.88048	0.5	0.13048	1.119
Mof_Co	Co	0.38048	0	0.13048	1.119
Mof_Co	Co	0.36952	0.5	0.11952	1.119
Mof_Co	Co	0.36952	-6.19283e-33	0.61952	1.119
Mof_Co	Co	0.86952	0	0.11952	1.119
Mof_Co	Co	0.38048	0.75	0.61952	1.119
Mof_Co	Co	0.38048	0.25	0.11952	1.119
Mof_Co	Co	0.86952	0.25	0.13048	1.119
Mof_Co	Co	0.86952	0.75	0.63048	1.119
Mof_Co	Co	0.13048	0.88048	0.5	1.119
Mof_Co	Co	0.61952	0.86952	0.5	1.119
Mof_Co	Co	0.61952	0.36952	-0	1.119
Mof_Co	Co	0.63048	0.36952	0.25	1.119
Mof_Co	Co	0.11952	0.88048	0.75	1.119
Mof_Co	Co	0.11952	0.38048	0.25	1.119
Mof_Co	Co	0.88048	0.75	0.11952	1.119
Mof_Co	Co	0.88048	0.25	0.61952	1.119
Mof_Co	Co	0.36952	0.25	0.63048	1.119
Mof_Co	Co	0.36952	0.75	0.13048	1.119
Mof_Co	Co	0.86952	0.5	0.61952	1.119
Mof_Co	Co	0.38048	0.5	0.63048	1.119
Mof_Co	Co	0.25	0.63048	0.36952	1.119
Mof_Co	Co	0.75	0.11952	0.88048	1.119
Mof_Co	Co	0.25	0.11952	0.38048	1.119
Mof_Co	Co	0.5	0.13048	0.88048	1.119
Mof_Co	Co	0.5	0.61952	0.86952	1.119
Mof_Co	Co	-1.71094e-33	0.61952	0.36952	1.119
Mof_Co	Co	0.49781	0.125	0.125	1.122
Mof_Co	Co	0.49781	0.625	0.625	1.122
Mof_Co	Co	0.99781	0.125	0.625	1.122
Mof_Co	Co	0.75219	0.625	0.625	1.122
Mof_Co	Co	0.75219	0.125	0.125	1.122
Mof_Co	Co	0.25219	0.125	0.625	1.122
Mof_Co	Co	0.25219	0.625	0.125	1.122
Mof_Co	Co	0.99781	0.625	0.125	1.122
Mof_Co	Co	0.125	0.49781	0.125	1.122
Mof_Co	Co	0.125	0.99781	0.625	1.122
Mof_Co	Co	0.625	0.99781	0.125	1.122
Mof_Co	Co	0.625	0.75219	0.625	1.122
Mof_Co	Co	0.625	0.25219	0.125	1.122
Mof_Co	Co	0.125	0.25219	0.625	1.122
Mof_Co	Co	0.125	0.75219	0.125	1.122
Mof_Co	Co	0.625	0.49781	0.625	1.122
Mof_Co	Co	0.125	0.125	0.49781	1.122
Mof_Co	Co	0.125	0.625	0.99781	1.122
Mof_Co	Co	0.625	0.125	0.99781	1.122
Mof_Co	Co	0.625	0.625	0.75219	1.122
Mof_Co	Co	0.125	0.625	0.25219	1.122
Mof_Co	Co	0.625	0.125	0.25219	1.122
Mof_Co	Co	0.125	0.125	0.75219	1.122
Mof_Co	Co	0.625	0.625	0.49781	1.122
Mof_Co	Co	0.875	0.74781	0.875	1.122
Mof_Co	Co	0.375	0.74781	0.375	1.122
Mof_Co	Co	0.375	0.00219	0.375	1.122
Mof_Co	Co	0.875	0.00219	0.875	1.122
Mof_Co	Co	0.375	0.50219	0.875	1.122
Mof_Co	Co	0.875	0.50219	0.375	1.122
Mof_Co	Co	0.875	0.24781	0.375	1.122
Mof_Co	Co	0.375	0.24781	0.875	1.122
Mof_Co	Co	0.24781	0.375	0.875	1.122
Mof_Co	Co	0.24781	0.875	0.375	1.122
Mof_Co	Co	0.50219	0.875	0.375	1.122
Mof_Co	Co	0.50219	0.375	0.875	1.122
Mof_Co	Co	0.00219	0.875	0.875	1.122
Mof_Co	Co	0.00219	0.375	0.375	1.122
Mof_Co	Co	0.74781	0.875	0.875	1.122
Mof_Co	Co	0.74781	0.375	0.375	1.122
Mof_Co	Co	0.875	0.375	0.50219	1.122
Mof_Co	Co	0.875	0.875	0.00219	1.122
Mof_Co	Co	0.375	0.875	0.24781	1.122
Mof_Co	Co	0.375	0.375	0.74781	1.122
Mof_Co	Co	0.875	0.875	0.74781	1.122
Mof_Co	Co	0.875	0.375	0.24781	1.122
Mof_Co	Co	0.375	0.375	0.00219	1.122
Mof_Co	Co	0.375	0.875	0.50219	1.122
Mof_Co	Co	0.50219	0.875	0.875	1.122
Mof_Co	Co	0.50219	0.375	0.375	1.122
Mof_Co	Co	0.24781	0.375	0.375	1.122
Mof_Co	Co	0.24781	0.875	0.875	1.122
Mof_Co	Co	0.74781	0.375	0.875	1.122
Mof_Co	Co	0.74781	0.875	0.375	1.122
Mof_Co	Co	0.00219	0.875	0.375	1.122
Mof_Co	Co	0.00219	0.375	0.875	1.122
Mof_Co	Co	0.875	0.50219	0.875	1.122
Mof_Co	Co	0.875	0.00219	0.375	1.122
Mof_Co	Co	0.375	0.24781	0.375	1.122
Mof_Co	Co	0.375	0.74781	0.875	1.122
Mof_Co	Co	0.875	0.24781	0.875	1.122
Mof_Co	Co	0.875	0.74781	0.375	1.122
Mof_Co	Co	0.375	0.00219	0.875	1.122
Mof_Co	Co	0.375	0.50219	0.375	1.122
Mof_Co	Co	0.875	0.875	0.50219	1.122
Mof_Co	Co	0.375	0.875	0.00219	1.122
Mof_Co	Co	0.375	0.375	0.24781	1.122
Mof_Co	Co	0.875	0.375	0.74781	1.122
Mof_Co	Co	0.875	0.875	0.24781	1.122
Mof_Co	Co	0.375	0.875	0.74781	1.122
Mof_Co	Co	0.875	0.375	0.00219	1.122
Mof_Co	Co	0.375	0.375	0.50219	1.122
Mof_Co	Co	0.125	0.25219	0.125	1.122
Mof_Co	Co	0.625	0.25219	0.625	1.122
Mof_Co	Co	0.625	0.99781	0.625	1.122
Mof_Co	Co	0.125	0.99781	0.125	1.122
Mof_Co	Co	0.625	0.49781	0.125	1.122
Mof_Co	Co	0.125	0.49781	0.625	1.122
Mof_Co	Co	0.125	0.75219	0.625	1.122
Mof_Co	Co	0.625	0.75219	0.125	1.122
Mof_Co	Co	0.75219	0.625	0.125	1.122
Mof_Co	Co	0.75219	0.125	0.625	1.122
Mof_Co	Co	0.25219	0.625	0.625	1.122
Mof_Co	Co	0.49781	0.125	0.625	1.122
Mof_Co	Co	0.49781	0.625	0.125	1.122
Mof_Co	Co	0.99781	0.625	0.625	1.122
Mof_Co	Co	0.99781	0.125	0.125	1.122
Mof_Co	Co	0.25219	0.125	0.125	1.122
Mof_Co	Co	0.125	0.625	0.49781	1.122
Mof_Co	Co	0.125	0.125	0.99781	1.122
Mof_Co	Co	0.625	0.625	0.99781	1.122
Mof_Co	Co	0.625	0.125	0.75219	1.122
Mof_Co	Co	0.625	0.625	0.25219	1.122
Mof_Co	Co	0.125	0.125	0.25219	1.122
Mof_Co	Co	0.125	0.625	0.75219	1.122
Mof_Co	Co	0.625	0.125	0.49781	1.122
_end
