data_functionalizedCrystal
_audit_creation_method	'EQeq! by Chris Wilmer'
_symmetry_space_group_name_H-M	'P1'
_symmetry_Int_Tables_number	1
_symmetry_cell_setting	triclinic
loop_
_symmetry_equiv_pos_as_xyz
  x,y,z
_cell_length_a	14.7243
_cell_length_b	12.9861
_cell_length_c	12.7671
_cell_angle_alpha	90
_cell_angle_beta	105.008
_cell_angle_gamma	90
loop_
_atom_site_label
_atom_site_type_symbol
_atom_site_fract_x
_atom_site_fract_y
_atom_site_fract_z
_atom_site_charge
Mof_Er	Er	0.23514	0.06821	0.31083	2.482
Mof_O 	O 	0.1878	0.0191	0.9519	-0.415
Mof_O 	O 	0.1873	0.0581	0.1201	-0.519
Mof_O 	O 	0.0772	0.0875	0.2674	-0.635
Mof_O 	O 	0.3834	0.0473	0.2675	-0.464
Mof_O 	O 	0.2266	0.8944	0.2744	-0.627
Mof_O 	O 	0.2436	0.7287	0.2545	-0.605
Mof_O 	O 	0.3829	0.0238	0.4314	-0.449
Mof_O 	O 	0.2772	0.1806	0.4519	-0.488
Mof_C 	C 	0.2222	0.0179	0.0523	0.534
Mof_H 	H 	0.279	0.9836	0.078	-0.155
Mof_C 	C 	0.2706	0.819	0.2586	0.811
Mof_H 	H 	0.3302	0.8307	0.2488	-0.242
Mof_C 	C 	0.4243	0.0242	0.3596	0.457
Mof_H 	H 	0.4876	0.0066	0.376	-0.061
Mof_O 	O 	0.2077	0.1904	0.4335	-0.471
Mof_H 	H 	0.1851	0.2582	0.4821	-0.23
Mof_Er	Er	0.73514	0.56821	0.31083	2.496
Mof_O 	O 	0.6878	0.5191	0.9519	-0.429
Mof_O 	O 	0.6873	0.5581	0.1201	-0.517
Mof_O 	O 	0.5772	0.5875	0.2674	-0.655
Mof_O 	O 	0.8834	0.5473	0.2675	-0.447
Mof_O 	O 	0.7266	0.3944	0.2744	-0.619
Mof_O 	O 	0.7436	0.2287	0.2545	-0.596
Mof_O 	O 	0.8829	0.5238	0.4314	-0.436
Mof_O 	O 	0.7772	0.6806	0.4519	-0.483
Mof_C 	C 	0.7222	0.5179	0.0523	0.561
Mof_H 	H 	0.779	0.4836	0.078	-0.164
Mof_C 	C 	0.7706	0.319	0.2586	0.806
Mof_H 	H 	0.8302	0.3307	0.2488	-0.234
Mof_C 	C 	0.9243	0.5242	0.3596	0.448
Mof_H 	H 	0.9876	0.5066	0.376	-0.036
Mof_O 	O 	0.7077	0.6904	0.4335	-0.466
Mof_H 	H 	0.6851	0.7582	0.4821	-0.22
Mof_Er	Er	0.76486	0.06821	0.18917	2.453
Mof_O 	O 	0.8122	0.0191	0.5481	-0.49
Mof_O 	O 	0.8127	0.0581	0.3799	-0.522
Mof_O 	O 	0.9228	0.0875	0.2326	-0.586
Mof_O 	O 	0.6166	0.0473	0.2325	-0.461
Mof_O 	O 	0.7734	0.8944	0.2256	-0.611
Mof_O 	O 	0.7564	0.7287	0.2455	-0.598
Mof_O 	O 	0.6171	0.0238	0.0686	-0.485
Mof_O 	O 	0.7228	0.1806	0.0481	-0.483
Mof_C 	C 	0.7778	0.0179	0.4477	0.683
Mof_H 	H 	0.721	0.9836	0.422	-0.191
Mof_C 	C 	0.7294	0.819	0.2414	0.807
Mof_H 	H 	0.6698	0.8307	0.2512	-0.24
Mof_C 	C 	0.5757	0.0242	0.1404	0.467
Mof_H 	H 	0.5124	0.0066	0.124	-0.08
Mof_O 	O 	0.7923	0.1904	0.0665	-0.373
Mof_H 	H 	0.8149	0.2582	0.0179	-0.119
Mof_Er	Er	0.26486	0.56821	0.18917	2.473
Mof_O 	O 	0.3122	0.5191	0.5481	-0.504
Mof_O 	O 	0.3127	0.5581	0.3799	-0.533
Mof_O 	O 	0.4228	0.5875	0.2326	-0.654
Mof_O 	O 	0.1166	0.5473	0.2325	-0.479
Mof_O 	O 	0.2734	0.3944	0.2256	-0.621
Mof_O 	O 	0.2564	0.2287	0.2455	-0.605
Mof_O 	O 	0.1171	0.5238	0.0686	-0.5
Mof_O 	O 	0.2228	0.6806	0.0481	-0.489
Mof_C 	C 	0.2778	0.5179	0.4477	0.68
Mof_H 	H 	0.221	0.4836	0.422	-0.192
Mof_C 	C 	0.2294	0.319	0.2414	0.809
Mof_H 	H 	0.1698	0.3307	0.2512	-0.247
Mof_C 	C 	0.0757	0.5242	0.1404	0.478
Mof_H 	H 	0.0124	0.5066	0.124	-0.107
Mof_O 	O 	0.2923	0.6904	0.0665	-0.394
Mof_H 	H 	0.3149	0.7582	0.0179	-0.146
Mof_Er	Er	0.76486	0.93179	0.68917	2.495
Mof_O 	O 	0.8122	0.9809	0.0481	-0.543
Mof_O 	O 	0.8127	0.9419	0.8799	-0.532
Mof_O 	O 	0.9228	0.9125	0.7326	-0.579
Mof_O 	O 	0.6166	0.9527	0.7325	-0.456
Mof_O 	O 	0.7734	0.1056	0.7256	-0.603
Mof_O 	O 	0.7564	0.2713	0.7455	-0.589
Mof_O 	O 	0.6171	0.9762	0.5686	-0.455
Mof_O 	O 	0.7228	0.8194	0.5481	-0.489
Mof_C 	C 	0.7778	0.9821	0.9477	0.736
Mof_H 	H 	0.721	0.0164	0.922	-0.178
Mof_C 	C 	0.7294	0.181	0.7414	0.81
Mof_H 	H 	0.6698	0.1693	0.7512	-0.233
Mof_C 	C 	0.5757	0.9758	0.6404	0.455
Mof_H 	H 	0.5124	0.9934	0.624	-0.062
Mof_O 	O 	0.7923	0.8096	0.5665	-0.46
Mof_H 	H 	0.8149	0.7418	0.5179	-0.216
Mof_Er	Er	0.26486	0.43179	0.68917	2.519
Mof_O 	O 	0.3122	0.4809	0.0481	-0.578
Mof_O 	O 	0.3127	0.4419	0.8799	-0.554
Mof_O 	O 	0.4228	0.4125	0.7326	-0.647
Mof_O 	O 	0.1166	0.4527	0.7325	-0.47
Mof_O 	O 	0.2734	0.6056	0.7256	-0.618
Mof_O 	O 	0.2564	0.7713	0.7455	-0.594
Mof_O 	O 	0.1171	0.4762	0.5686	-0.471
Mof_O 	O 	0.2228	0.3194	0.5481	-0.495
Mof_C 	C 	0.2778	0.4821	0.9477	0.797
Mof_H 	H 	0.221	0.5164	0.922	-0.215
Mof_C 	C 	0.2294	0.681	0.7414	0.813
Mof_H 	H 	0.1698	0.6693	0.7512	-0.242
Mof_C 	C 	0.0757	0.4758	0.6404	0.465
Mof_H 	H 	0.0124	0.4934	0.624	-0.086
Mof_O 	O 	0.2923	0.3096	0.5665	-0.468
Mof_H 	H 	0.3149	0.2418	0.5179	-0.228
Mof_Er	Er	0.23514	0.93179	0.81083	2.43
Mof_O 	O 	0.1878	0.9809	0.4519	-0.504
Mof_O 	O 	0.1873	0.9419	0.6201	-0.532
Mof_O 	O 	0.0772	0.9125	0.7674	-0.627
Mof_O 	O 	0.3834	0.9527	0.7675	-0.451
Mof_O 	O 	0.2266	0.1056	0.7744	-0.607
Mof_O 	O 	0.2436	0.2713	0.7545	-0.597
Mof_O 	O 	0.3829	0.9762	0.9314	-0.432
Mof_O 	O 	0.2772	0.8194	0.9519	-0.384
Mof_C 	C 	0.2222	0.9821	0.5523	0.657
Mof_H 	H 	0.279	0.0164	0.578	-0.174
Mof_C 	C 	0.2706	0.181	0.7586	0.81
Mof_H 	H 	0.3302	0.1693	0.7488	-0.233
Mof_C 	C 	0.4243	0.9758	0.8596	0.447
Mof_H 	H 	0.4876	0.9934	0.876	-0.049
Mof_O 	O 	0.2077	0.8096	0.9335	-0.423
Mof_H 	H 	0.1851	0.7418	0.9821	-0.062
Mof_Er	Er	0.73514	0.43179	0.81083	2.461
Mof_O 	O 	0.6878	0.4809	0.4519	-0.5
Mof_O 	O 	0.6873	0.4419	0.6201	-0.529
Mof_O 	O 	0.5772	0.4125	0.7674	-0.647
Mof_O 	O 	0.8834	0.4527	0.7675	-0.433
Mof_O 	O 	0.7266	0.6056	0.7744	-0.609
Mof_O 	O 	0.7436	0.7713	0.7545	-0.589
Mof_O 	O 	0.8829	0.4762	0.9314	-0.412
Mof_O 	O 	0.7772	0.3194	0.9519	-0.362
Mof_C 	C 	0.7222	0.4821	0.5523	0.677
Mof_H 	H 	0.779	0.5164	0.578	-0.183
Mof_C 	C 	0.7706	0.681	0.7586	0.81
Mof_H 	H 	0.8302	0.6693	0.7488	-0.228
Mof_C 	C 	0.9243	0.4758	0.8596	0.435
Mof_H 	H 	0.9876	0.4934	0.876	-0.018
Mof_O 	O 	0.7077	0.3096	0.9335	-0.409
Mof_H 	H 	0.6851	0.2418	0.9821	-0.021
Mof_C 	C 	1.02322e-33	0.127	0.25	0.806
Mof_H 	H 	1.02322e-33	0.1986	0.25	-0.239
Mof_C 	C 	0.5	0.627	0.25	0.915
Mof_H 	H 	0.5	0.6986	0.25	-0.256
Mof_C 	C 	4.82144e-17	0.873	0.75	0.805
Mof_H 	H 	3.06966e-33	0.8014	0.75	-0.232
Mof_C 	C 	0.5	0.373	0.75	0.919
Mof_H 	H 	0.5	0.3014	0.75	-0.25
Mof_C 	C 	0.25	0.25	0.5	1.414
Mof_C 	C 	0.75	0.25	-0	0.91
Mof_C 	C 	0.75	0.75	0.5	1.39
Mof_C 	C 	0.25	0.75	-0	1.005
_end
