data_functionalizedCrystal
_audit_creation_method	'EQeq! by Chris Wilmer'
_symmetry_space_group_name_H-M	'P1'
_symmetry_Int_Tables_number	1
_symmetry_cell_setting	triclinic
loop_
_symmetry_equiv_pos_as_xyz
  x,y,z
_cell_length_a	19.936
_cell_length_b	10.251
_cell_length_c	17.91
_cell_angle_alpha	90
_cell_angle_beta	94.734
_cell_angle_gamma	90
loop_
_atom_site_label
_atom_site_type_symbol
_atom_site_fract_x
_atom_site_fract_y
_atom_site_fract_z
_atom_site_charge
Mof_Co	Co	0.85554	0.25313	0.93508	1.192
Mof_Co	Co	0.75209	0.45256	0.83525	1.197
Mof_O 	O 	0.77057	0.2561	0.98789	-0.431
Mof_O 	O 	0.69552	0.3653	0.91091	-0.414
Mof_O 	O 	0.70467	0.1128	0.23735	-0.388
Mof_O 	O 	0.59436	0.1166	0.25543	-0.291
Mof_O 	O 	0.48205	0.3556	0.03765	-0.255
Mof_O 	O 	0.41492	0.4558	0.14499	-0.489
Mof_O 	O 	0.31088	0.3837	0.15873	-0.415
Mof_O 	O 	0.90395	0.1206	0.00233	-0.378
Mof_O 	O 	0.83788	0.0327	0.91195	-0.324
Mof_O 	O 	0.81129	0.5505	0.9154	-0.419
Mof_O 	O 	0.89248	0.426	0.97355	-0.416
Mof_O 	O 	0.03797	0.7518	0.12392	-0.36
Mof_O 	O 	0.17173	0.6912	0.17075	-0.531
Mof_O 	O 	0.16099	0.5178	0.24049	-0.361
Mof_C 	C 	0.71398	0.3062	0.9703	0.345
Mof_C 	C 	0.66187	0.2916	0.0273	0.001
Mof_C 	C 	0.59636	0.3345	0.0079	-0.162
Mof_H 	H 	0.5855	0.3759	0.9623	0.141
Mof_C 	C 	0.54762	0.3142	0.0579	0.229
Mof_C 	C 	0.56315	0.2539	0.1263	-0.163
Mof_H 	H 	0.5299	0.2416	0.159	0.124
Mof_C 	C 	0.62873	0.2116	0.146	0.006
Mof_C 	C 	0.6784	0.23	0.0953	-0.058
Mof_H 	H 	0.7221	0.2009	0.1073	0.082
Mof_C 	C 	0.64421	0.1405	0.219	0.32
Mof_C 	C 	0.43423	0.2579	0.0359	0.298
Mof_C 	C 	0.4427	0.1471	0.9928	-0.284
Mof_H 	H 	0.4823	0.136	0.9695	0.145
Mof_C 	C 	0.3929	0.0538	0.9846	0.176
Mof_H 	H 	0.3998	0.9784	0.9573	-0.02
Mof_C 	C 	0.3328	0.0713	0.0165	-0.224
Mof_H 	H 	0.2985	0.0099	0.0093	0.126
Mof_C 	C 	0.32424	0.1811	0.0594	0.161
Mof_H 	H 	0.2835	0.1937	0.0802	0.002
Mof_C 	C 	0.37536	0.274	0.0722	-0.241
Mof_C 	C 	0.36532	0.3797	0.1282	0.478
Mof_C 	C 	0.87883	0.0203	0.9677	0.261
Mof_C 	C 	0.90295	0.8899	0.996	0.019
Mof_C 	C 	0.95606	0.8822	0.0507	-0.176
Mof_H 	H 	0.9756	0.9575	0.0717	0.118
Mof_C 	C 	0.97956	0.7602	0.0738	0.224
Mof_C 	C 	0.95113	0.6462	0.0449	-0.165
Mof_H 	H 	0.9678	0.5654	0.0612	0.117
Mof_C 	C 	0.89708	0.6547	0.9909	-0.003
Mof_C 	C 	0.87384	0.7762	0.9662	-0.069
Mof_H 	H 	0.8383	0.7815	0.9293	0.085
Mof_C 	C 	0.86415	0.5345	0.9571	0.338
Mof_C 	C 	0.02929	0.7504	0.2006	0.295
Mof_C 	C 	0.97593	0.8121	0.2305	-0.285
Mof_H 	H 	0.9443	0.8574	0.1994	0.153
Mof_C 	C 	0.96995	0.8059	0.3071	0.175
Mof_H 	H 	0.9338	0.8466	0.327	-0.015
Mof_C 	C 	0.0167	0.7403	0.3543	-0.219
Mof_H 	H 	0.0122	0.737	0.4055	0.127
Mof_C 	C 	0.07138	0.6784	0.3237	0.146
Mof_H 	H 	0.1031	0.6336	0.3549	0.005
Mof_C 	C 	0.07813	0.6842	0.2469	-0.235
Mof_C 	C 	0.13912	0.6245	0.2178	0.39
Mof_H 	H 	0.416	0.506	0.184	0.315
Mof_Co	Co	0.14446	0.75313	0.56492	1.191
Mof_Co	Co	0.24791	0.95256	0.66475	1.196
Mof_O 	O 	0.22943	0.7561	0.51211	-0.43
Mof_O 	O 	0.30448	0.8653	0.58909	-0.414
Mof_O 	O 	0.29533	0.6128	0.26265	-0.388
Mof_O 	O 	0.40564	0.6166	0.24457	-0.291
Mof_O 	O 	0.51795	0.8556	0.46235	-0.255
Mof_O 	O 	0.58508	0.9558	0.35501	-0.489
Mof_O 	O 	0.68912	0.8837	0.34127	-0.415
Mof_O 	O 	0.09605	0.6206	0.49767	-0.381
Mof_O 	O 	0.16212	0.5327	0.58805	-0.324
Mof_O 	O 	0.18871	0.0505	0.5846	-0.419
Mof_O 	O 	0.10752	0.926	0.52645	-0.415
Mof_O 	O 	0.96203	0.2518	0.37608	-0.359
Mof_O 	O 	0.82827	0.1912	0.32925	-0.531
Mof_O 	O 	0.83901	0.0178	0.25951	-0.361
Mof_C 	C 	0.28602	0.8062	0.5297	0.345
Mof_C 	C 	0.33813	0.7916	0.4727	0.001
Mof_C 	C 	0.40364	0.8345	0.4921	-0.163
Mof_H 	H 	0.4145	0.8759	0.5377	0.141
Mof_C 	C 	0.45238	0.8142	0.4421	0.229
Mof_C 	C 	0.43685	0.7539	0.3737	-0.163
Mof_H 	H 	0.4701	0.7416	0.341	0.124
Mof_C 	C 	0.37127	0.7116	0.354	0.006
Mof_C 	C 	0.3216	0.73	0.4047	-0.057
Mof_H 	H 	0.2779	0.7009	0.3927	0.082
Mof_C 	C 	0.35579	0.6405	0.281	0.32
Mof_C 	C 	0.56577	0.7579	0.4641	0.298
Mof_C 	C 	0.5573	0.6471	0.5072	-0.285
Mof_H 	H 	0.5177	0.636	0.5305	0.146
Mof_C 	C 	0.6071	0.5538	0.5154	0.178
Mof_H 	H 	0.6002	0.4784	0.5427	-0.021
Mof_C 	C 	0.6672	0.5713	0.4835	-0.226
Mof_H 	H 	0.7015	0.5099	0.4907	0.127
Mof_C 	C 	0.67576	0.6811	0.4406	0.162
Mof_H 	H 	0.7165	0.6937	0.4198	0.002
Mof_C 	C 	0.62464	0.774	0.4278	-0.241
Mof_C 	C 	0.63468	0.8797	0.3718	0.479
Mof_C 	C 	0.12117	0.5203	0.5323	0.263
Mof_C 	C 	0.09705	0.3899	0.504	0.02
Mof_C 	C 	0.04394	0.3822	0.4493	-0.177
Mof_H 	H 	0.0244	0.4575	0.4283	0.118
Mof_C 	C 	0.02044	0.2602	0.4262	0.223
Mof_C 	C 	0.04887	0.1462	0.4551	-0.167
Mof_H 	H 	0.0322	0.0654	0.4388	0.117
Mof_C 	C 	0.10292	0.1547	0.5091	-0.001
Mof_C 	C 	0.12616	0.2762	0.5338	-0.069
Mof_H 	H 	0.1617	0.2815	0.5707	0.085
Mof_C 	C 	0.13585	0.0345	0.5429	0.337
Mof_C 	C 	0.97071	0.2504	0.2994	0.296
Mof_C 	C 	0.02407	0.3121	0.2695	-0.286
Mof_H 	H 	0.0557	0.3574	0.3006	0.153
Mof_C 	C 	0.03005	0.3059	0.1929	0.172
Mof_H 	H 	0.0662	0.3466	0.173	-0.014
Mof_C 	C 	0.9833	0.2403	0.1457	-0.215
Mof_H 	H 	0.9878	0.237	0.0945	0.126
Mof_C 	C 	0.92862	0.1784	0.1763	0.145
Mof_H 	H 	0.8969	0.1336	0.1451	0.006
Mof_C 	C 	0.92187	0.1842	0.2531	-0.235
Mof_C 	C 	0.86088	0.1245	0.2822	0.39
Mof_H 	H 	0.584	0.006	0.316	0.315
Mof_Co	Co	0.14446	0.74687	0.06492	1.191
Mof_Co	Co	0.24791	0.54744	0.16475	1.196
Mof_O 	O 	0.22943	0.7439	0.01211	-0.431
Mof_O 	O 	0.30448	0.6347	0.08909	-0.414
Mof_O 	O 	0.29533	0.8872	0.76265	-0.388
Mof_O 	O 	0.40564	0.8834	0.74457	-0.291
Mof_O 	O 	0.51795	0.6444	0.96235	-0.255
Mof_O 	O 	0.58508	0.5442	0.85501	-0.489
Mof_O 	O 	0.68912	0.6163	0.84127	-0.415
Mof_O 	O 	0.09605	0.8794	0.99767	-0.378
Mof_O 	O 	0.16212	0.9673	0.08805	-0.324
Mof_O 	O 	0.18871	0.4495	0.0846	-0.419
Mof_O 	O 	0.10752	0.574	0.02645	-0.416
Mof_O 	O 	0.96203	0.2482	0.87608	-0.36
Mof_O 	O 	0.82827	0.3088	0.82925	-0.531
Mof_O 	O 	0.83901	0.4822	0.75951	-0.361
Mof_C 	C 	0.28602	0.6938	0.0297	0.345
Mof_C 	C 	0.33813	0.7084	0.9727	0.001
Mof_C 	C 	0.40364	0.6655	0.9921	-0.162
Mof_H 	H 	0.4145	0.6241	0.0377	0.141
Mof_C 	C 	0.45238	0.6858	0.9421	0.229
Mof_C 	C 	0.43685	0.7461	0.8737	-0.163
Mof_H 	H 	0.4701	0.7584	0.841	0.124
Mof_C 	C 	0.37127	0.7884	0.854	0.006
Mof_C 	C 	0.3216	0.77	0.9047	-0.058
Mof_H 	H 	0.2779	0.7991	0.8927	0.082
Mof_C 	C 	0.35579	0.8595	0.781	0.32
Mof_C 	C 	0.56577	0.7421	0.9641	0.298
Mof_C 	C 	0.5573	0.8529	0.0072	-0.284
Mof_H 	H 	0.5177	0.864	0.0305	0.145
Mof_C 	C 	0.6071	0.9462	0.0154	0.176
Mof_H 	H 	0.6002	0.0216	0.0427	-0.02
Mof_C 	C 	0.6672	0.9287	0.9835	-0.224
Mof_H 	H 	0.7015	0.9901	0.9907	0.126
Mof_C 	C 	0.67576	0.8189	0.9406	0.161
Mof_H 	H 	0.7165	0.8063	0.9198	0.002
Mof_C 	C 	0.62464	0.726	0.9278	-0.241
Mof_C 	C 	0.63468	0.6203	0.8718	0.478
Mof_C 	C 	0.12117	0.9797	0.0323	0.261
Mof_C 	C 	0.09705	0.1101	0.004	0.019
Mof_C 	C 	0.04394	0.1178	0.9493	-0.176
Mof_H 	H 	0.0244	0.0425	0.9283	0.118
Mof_C 	C 	0.02044	0.2398	0.9262	0.224
Mof_C 	C 	0.04887	0.3538	0.9551	-0.165
Mof_H 	H 	0.0322	0.4346	0.9388	0.117
Mof_C 	C 	0.10292	0.3453	0.0091	-0.003
Mof_C 	C 	0.12616	0.2238	0.0338	-0.069
Mof_H 	H 	0.1617	0.2185	0.0707	0.085
Mof_C 	C 	0.13585	0.4655	0.0429	0.338
Mof_C 	C 	0.97071	0.2496	0.7994	0.295
Mof_C 	C 	0.02407	0.1879	0.7695	-0.285
Mof_H 	H 	0.0557	0.1426	0.8006	0.153
Mof_C 	C 	0.03005	0.1941	0.6929	0.175
Mof_H 	H 	0.0662	0.1534	0.673	-0.015
Mof_C 	C 	0.9833	0.2597	0.6457	-0.219
Mof_H 	H 	0.9878	0.263	0.5945	0.127
Mof_C 	C 	0.92862	0.3216	0.6763	0.146
Mof_H 	H 	0.8969	0.3664	0.6451	0.005
Mof_C 	C 	0.92187	0.3158	0.7531	-0.235
Mof_C 	C 	0.86088	0.3755	0.7822	0.39
Mof_H 	H 	0.584	0.494	0.816	0.315
Mof_Co	Co	0.85554	0.24687	0.43508	1.191
Mof_Co	Co	0.75209	0.04744	0.33525	1.196
Mof_O 	O 	0.77057	0.2439	0.48789	-0.43
Mof_O 	O 	0.69552	0.1347	0.41091	-0.414
Mof_O 	O 	0.70467	0.3872	0.73735	-0.388
Mof_O 	O 	0.59436	0.3834	0.75543	-0.291
Mof_O 	O 	0.48205	0.1444	0.53765	-0.255
Mof_O 	O 	0.41492	0.0442	0.64499	-0.489
Mof_O 	O 	0.31088	0.1163	0.65873	-0.415
Mof_O 	O 	0.90395	0.3794	0.50233	-0.381
Mof_O 	O 	0.83788	0.4673	0.41195	-0.324
Mof_O 	O 	0.81129	0.9495	0.4154	-0.419
Mof_O 	O 	0.89248	0.074	0.47355	-0.415
Mof_O 	O 	0.03797	0.7482	0.62392	-0.359
Mof_O 	O 	0.17173	0.8088	0.67075	-0.531
Mof_O 	O 	0.16099	0.9822	0.74049	-0.361
Mof_C 	C 	0.71398	0.1938	0.4703	0.345
Mof_C 	C 	0.66187	0.2084	0.5273	0.001
Mof_C 	C 	0.59636	0.1655	0.5079	-0.163
Mof_H 	H 	0.5855	0.1241	0.4623	0.141
Mof_C 	C 	0.54762	0.1858	0.5579	0.229
Mof_C 	C 	0.56315	0.2461	0.6263	-0.163
Mof_H 	H 	0.5299	0.2584	0.659	0.124
Mof_C 	C 	0.62873	0.2884	0.646	0.006
Mof_C 	C 	0.6784	0.27	0.5953	-0.057
Mof_H 	H 	0.7221	0.2991	0.6073	0.082
Mof_C 	C 	0.64421	0.3595	0.719	0.32
Mof_C 	C 	0.43423	0.2421	0.5359	0.298
Mof_C 	C 	0.4427	0.3529	0.4928	-0.285
Mof_H 	H 	0.4823	0.364	0.4695	0.146
Mof_C 	C 	0.3929	0.4462	0.4846	0.178
Mof_H 	H 	0.3998	0.5216	0.4573	-0.021
Mof_C 	C 	0.3328	0.4287	0.5165	-0.226
Mof_H 	H 	0.2985	0.4901	0.5093	0.127
Mof_C 	C 	0.32424	0.3189	0.5594	0.162
Mof_H 	H 	0.2835	0.3063	0.5802	0.002
Mof_C 	C 	0.37536	0.226	0.5722	-0.241
Mof_C 	C 	0.36532	0.1203	0.6282	0.479
Mof_C 	C 	0.87883	0.4797	0.4677	0.263
Mof_C 	C 	0.90295	0.6101	0.496	0.02
Mof_C 	C 	0.95606	0.6178	0.5507	-0.177
Mof_H 	H 	0.9756	0.5425	0.5717	0.118
Mof_C 	C 	0.97956	0.7398	0.5738	0.223
Mof_C 	C 	0.95113	0.8538	0.5449	-0.167
Mof_H 	H 	0.9678	0.9346	0.5612	0.117
Mof_C 	C 	0.89708	0.8453	0.4909	-0.001
Mof_C 	C 	0.87384	0.7238	0.4662	-0.069
Mof_H 	H 	0.8383	0.7185	0.4293	0.085
Mof_C 	C 	0.86415	0.9655	0.4571	0.337
Mof_C 	C 	0.02929	0.7496	0.7006	0.296
Mof_C 	C 	0.97593	0.6879	0.7305	-0.286
Mof_H 	H 	0.9443	0.6426	0.6994	0.153
Mof_C 	C 	0.96995	0.6941	0.8071	0.172
Mof_H 	H 	0.9338	0.6534	0.827	-0.014
Mof_C 	C 	0.0167	0.7597	0.8543	-0.215
Mof_H 	H 	0.0122	0.763	0.9055	0.126
Mof_C 	C 	0.07138	0.8216	0.8237	0.145
Mof_H 	H 	0.1031	0.8664	0.8549	0.006
Mof_C 	C 	0.07813	0.8158	0.7469	-0.235
Mof_C 	C 	0.13912	0.8755	0.7178	0.39
Mof_H 	H 	0.416	0.994	0.684	0.315
_end
