data_functionalizedCrystal
_audit_creation_method	'EQeq! by Chris Wilmer'
_symmetry_space_group_name_H-M	'P1'
_symmetry_Int_Tables_number	1
_symmetry_cell_setting	triclinic
loop_
_symmetry_equiv_pos_as_xyz
  x,y,z
_cell_length_a	7.2864
_cell_length_b	7.2864
_cell_length_c	8.0525
_cell_angle_alpha	90
_cell_angle_beta	90
_cell_angle_gamma	120
loop_
_atom_site_label
_atom_site_type_symbol
_atom_site_fract_x
_atom_site_fract_y
_atom_site_fract_z
_atom_site_charge
Mof_O 	O 	0.6911	0.1116	0.10613	-0.326
Mof_O 	O 	0.8884	0.5795	0.10613	-0.266
Mof_O 	O 	0.4205	0.3089	0.10613	-0.359
Mof_O 	O 	0.3089	0.8884	0.60613	-0.321
Mof_O 	O 	0.1116	0.4205	0.60613	-0.355
Mof_O 	O 	0.5795	0.6911	0.60613	-0.346
Mof_O 	O 	0.1116	0.6911	0.89387	-0.247
Mof_O 	O 	0.5795	0.8884	0.89387	-0.213
Mof_O 	O 	0.3089	0.4205	0.89387	-0.284
Mof_O 	O 	0.8884	0.3089	0.39387	-0.303
Mof_O 	O 	0.4205	0.1116	0.39387	-0.368
Mof_O 	O 	0.6911	0.5795	0.39387	-0.352
Mof_Ni	Ni	0.66667	0.33333	0.25	1.142
Mof_Ni	Ni	0.33333	0.66667	0.75	1.145
Mof_C 	C 	0.558	0	-0	0.229
Mof_H 	H 	0.4303	0	-0	-0.062
Mof_C 	C 	-3.83825e-17	0.558	-0	0.19
Mof_H 	H 	-0	0.4303	-0	-0.055
Mof_C 	C 	0.442	0.442	-0	0.304
Mof_H 	H 	0.5697	0.5697	-0	-0.063
Mof_C 	C 	0.442	0	0.5	0.37
Mof_H 	H 	0.5697	0	0.5	-0.075
Mof_C 	C 	9.09455e-18	0.442	0.5	0.337
Mof_H 	H 	9.09455e-18	0.5697	0.5	-0.072
Mof_C 	C 	0.558	0.558	0.5	0.445
Mof_H 	H 	0.4303	0.4303	0.5	-0.095
_end
