data_functionalizedCrystal
_audit_creation_method	'EQeq! by Chris Wilmer'
_symmetry_space_group_name_H-M	'P1'
_symmetry_Int_Tables_number	1
_symmetry_cell_setting	triclinic
loop_
_symmetry_equiv_pos_as_xyz
  x,y,z
_cell_length_a	8.7185
_cell_length_b	20.7142
_cell_length_c	34.265
_cell_angle_alpha	90
_cell_angle_beta	90
_cell_angle_gamma	90
loop_
_atom_site_label
_atom_site_type_symbol
_atom_site_fract_x
_atom_site_fract_y
_atom_site_fract_z
_atom_site_charge
Mof_O 	O 	0.2448	0.335	0.59237	-0.598
Mof_O 	O 	0.0073	0.3339	0.57017	-0.562
Mof_O 	O 	0.2409	0.4582	0.63702	-0.58
Mof_C 	C 	0.1469	0.3206	0.56755	0.554
Mof_C 	C 	0.2016	0.2842	0.5323	-0.146
Mof_C 	C 	0.0958	0.2633	0.50502	-0.002
Mof_C 	C 	0.1434	0.2289	0.47251	0.013
Mof_C 	C 	0.2082	0.5911	0.6522	0.001
Mof_C 	C 	0.2073	0.6579	0.6523	0.011
Mof_H 	H 	0.99	0.2725	0.5086	0.044
Mof_H 	H 	0.0709	0.2146	0.4537	0.027
Mof_H 	H 	0.2617	0.5683	0.6721	0.037
Mof_H 	H 	0.2613	0.6804	0.6722	0.025
Mof_O 	O 	0.2448	0.835	0.09237	-0.598
Mof_O 	O 	0.0073	0.8339	0.07017	-0.56
Mof_O 	O 	0.2409	0.9582	0.13702	-0.58
Mof_C 	C 	0.1469	0.8206	0.06755	0.555
Mof_C 	C 	0.2016	0.7842	0.0323	-0.151
Mof_C 	C 	0.0958	0.7633	0.00502	0.006
Mof_C 	C 	0.1434	0.7289	0.97251	0.006
Mof_C 	C 	0.2082	0.0911	0.1522	0.001
Mof_C 	C 	0.2073	0.1579	0.1523	0.01
Mof_H 	H 	0.99	0.7725	0.0086	0.038
Mof_H 	H 	0.0709	0.7146	0.9537	0.028
Mof_H 	H 	0.2617	0.0683	0.1721	0.035
Mof_H 	H 	0.2613	0.1804	0.1722	0.024
Mof_O 	O 	0.7448	0.335	0.09237	-0.598
Mof_O 	O 	0.5073	0.3339	0.07017	-0.563
Mof_O 	O 	0.7409	0.4582	0.13702	-0.581
Mof_C 	C 	0.6469	0.3206	0.06755	0.553
Mof_C 	C 	0.7016	0.2842	0.0323	-0.146
Mof_C 	C 	0.5958	0.2633	0.00502	-0.003
Mof_C 	C 	0.6434	0.2289	0.97251	0.014
Mof_C 	C 	0.7082	0.5911	0.1522	-0
Mof_C 	C 	0.7073	0.6579	0.1523	0.01
Mof_H 	H 	0.49	0.2725	0.0086	0.043
Mof_H 	H 	0.5709	0.2146	0.9537	0.026
Mof_H 	H 	0.7617	0.5683	0.1721	0.036
Mof_H 	H 	0.7613	0.6804	0.1722	0.024
Mof_O 	O 	0.7448	0.835	0.59237	-0.598
Mof_O 	O 	0.5073	0.8339	0.57017	-0.563
Mof_O 	O 	0.7409	0.9582	0.63702	-0.581
Mof_C 	C 	0.6469	0.8206	0.56755	0.554
Mof_C 	C 	0.7016	0.7842	0.5323	-0.149
Mof_C 	C 	0.5958	0.7633	0.50502	0
Mof_C 	C 	0.6434	0.7289	0.47251	0.01
Mof_C 	C 	0.7082	0.0911	0.6522	-0.001
Mof_C 	C 	0.7073	0.1579	0.6523	0.011
Mof_H 	H 	0.49	0.7725	0.5086	0.042
Mof_H 	H 	0.5709	0.7146	0.4537	0.027
Mof_H 	H 	0.7617	0.0683	0.6721	0.037
Mof_H 	H 	0.7613	0.1804	0.6722	0.024
Mof_O 	O 	0.5052	0.415	0.59237	-0.599
Mof_O 	O 	0.7427	0.4161	0.57017	-0.563
Mof_O 	O 	0.5091	0.2918	0.63702	-0.581
Mof_C 	C 	0.6031	0.4294	0.56755	0.554
Mof_C 	C 	0.5484	0.4658	0.5323	-0.148
Mof_C 	C 	0.6542	0.4867	0.50502	-0.001
Mof_C 	C 	0.6066	0.5211	0.47251	0.011
Mof_C 	C 	0.5418	0.1589	0.6522	0
Mof_C 	C 	0.5427	0.0921	0.6523	0.01
Mof_H 	H 	0.76	0.4775	0.5086	0.042
Mof_H 	H 	0.6791	0.5354	0.4537	0.027
Mof_H 	H 	0.4883	0.1817	0.6721	0.036
Mof_H 	H 	0.4887	0.0696	0.6722	0.024
Mof_O 	O 	0.5052	0.915	0.09237	-0.598
Mof_O 	O 	0.7427	0.9161	0.07017	-0.563
Mof_O 	O 	0.5091	0.7918	0.13702	-0.581
Mof_C 	C 	0.6031	0.9294	0.06755	0.554
Mof_C 	C 	0.5484	0.9658	0.0323	-0.148
Mof_C 	C 	0.6542	0.9867	0.00502	-0.001
Mof_C 	C 	0.6066	0.0211	0.97251	0.012
Mof_C 	C 	0.5418	0.6589	0.1522	-0
Mof_C 	C 	0.5427	0.5921	0.1523	0.011
Mof_H 	H 	0.76	0.9775	0.0086	0.042
Mof_H 	H 	0.6791	0.0354	0.9537	0.027
Mof_H 	H 	0.4883	0.6817	0.1721	0.036
Mof_H 	H 	0.4887	0.5696	0.1722	0.024
Mof_O 	O 	0.0052	0.415	0.09237	-0.598
Mof_O 	O 	0.2427	0.4161	0.07017	-0.563
Mof_O 	O 	0.0091	0.2918	0.13702	-0.581
Mof_C 	C 	0.1031	0.4294	0.06755	0.554
Mof_C 	C 	0.0484	0.4658	0.0323	-0.147
Mof_C 	C 	0.1542	0.4867	0.00502	0
Mof_C 	C 	0.1066	0.5211	0.97251	0.009
Mof_C 	C 	0.0418	0.1589	0.1522	-0
Mof_C 	C 	0.0427	0.0921	0.1523	0.009
Mof_H 	H 	0.26	0.4775	0.0086	0.042
Mof_H 	H 	0.1791	0.5354	0.9537	0.027
Mof_H 	H 	0.9883	0.1817	0.1721	0.036
Mof_H 	H 	0.9887	0.0696	0.1722	0.025
Mof_O 	O 	0.0052	0.915	0.59237	-0.596
Mof_O 	O 	0.2427	0.9161	0.57017	-0.562
Mof_O 	O 	0.0091	0.7918	0.63702	-0.579
Mof_C 	C 	0.1031	0.9294	0.56755	0.553
Mof_C 	C 	0.0484	0.9658	0.5323	-0.145
Mof_C 	C 	0.1542	0.9867	0.50502	0.002
Mof_C 	C 	0.1066	0.0211	0.47251	0.005
Mof_C 	C 	0.0418	0.6589	0.6522	0.002
Mof_C 	C 	0.0427	0.5921	0.6523	0.011
Mof_H 	H 	0.26	0.9775	0.5086	0.041
Mof_H 	H 	0.1791	0.0354	0.4537	0.028
Mof_H 	H 	0.9883	0.6817	0.6721	0.034
Mof_H 	H 	0.9887	0.5696	0.6722	0.023
Mof_O 	O 	0.5052	0.335	0.15763	-0.599
Mof_O 	O 	0.7427	0.3339	0.17983	-0.563
Mof_O 	O 	0.5091	0.4582	0.11298	-0.581
Mof_C 	C 	0.6031	0.3206	0.18245	0.554
Mof_C 	C 	0.5484	0.2842	0.2177	-0.148
Mof_C 	C 	0.6542	0.2633	0.24498	-0.001
Mof_C 	C 	0.6066	0.2289	0.27749	0.011
Mof_C 	C 	0.5418	0.5911	0.0978	-0
Mof_C 	C 	0.5427	0.6579	0.0977	0.01
Mof_H 	H 	0.76	0.2725	0.2414	0.042
Mof_H 	H 	0.6791	0.2146	0.2963	0.027
Mof_H 	H 	0.4883	0.5683	0.0779	0.036
Mof_H 	H 	0.4887	0.6804	0.0778	0.024
Mof_O 	O 	0.5052	0.835	0.65763	-0.599
Mof_O 	O 	0.7427	0.8339	0.67983	-0.563
Mof_O 	O 	0.5091	0.9582	0.61298	-0.581
Mof_C 	C 	0.6031	0.8206	0.68245	0.554
Mof_C 	C 	0.5484	0.7842	0.7177	-0.148
Mof_C 	C 	0.6542	0.7633	0.74498	-0
Mof_C 	C 	0.6066	0.7289	0.77749	0.011
Mof_C 	C 	0.5418	0.0911	0.5978	-0.001
Mof_C 	C 	0.5427	0.1579	0.5977	0.011
Mof_H 	H 	0.76	0.7725	0.7414	0.042
Mof_H 	H 	0.6791	0.7146	0.7963	0.027
Mof_H 	H 	0.4883	0.0683	0.5779	0.036
Mof_H 	H 	0.4887	0.1804	0.5778	0.024
Mof_O 	O 	0.0052	0.335	0.65763	-0.599
Mof_O 	O 	0.2427	0.3339	0.67983	-0.563
Mof_O 	O 	0.0091	0.4582	0.61298	-0.581
Mof_C 	C 	0.1031	0.3206	0.68245	0.555
Mof_C 	C 	0.0484	0.2842	0.7177	-0.152
Mof_C 	C 	0.1542	0.2633	0.74498	0.003
Mof_C 	C 	0.1066	0.2289	0.77749	0.005
Mof_C 	C 	0.0418	0.5911	0.5978	0.001
Mof_C 	C 	0.0427	0.6579	0.5977	0.013
Mof_H 	H 	0.26	0.2725	0.7414	0.041
Mof_H 	H 	0.1791	0.2146	0.7963	0.029
Mof_H 	H 	0.9883	0.5683	0.5779	0.035
Mof_H 	H 	0.9887	0.6804	0.5778	0.022
Mof_O 	O 	0.0052	0.835	0.15763	-0.596
Mof_O 	O 	0.2427	0.8339	0.17983	-0.562
Mof_O 	O 	0.0091	0.9582	0.11298	-0.579
Mof_C 	C 	0.1031	0.8206	0.18245	0.552
Mof_C 	C 	0.0484	0.7842	0.2177	-0.143
Mof_C 	C 	0.1542	0.7633	0.24498	-0.004
Mof_C 	C 	0.1066	0.7289	0.27749	0.015
Mof_C 	C 	0.0418	0.0911	0.0978	-0.001
Mof_C 	C 	0.0427	0.1579	0.0977	0.01
Mof_H 	H 	0.26	0.7725	0.2414	0.043
Mof_H 	H 	0.1791	0.7146	0.2963	0.026
Mof_H 	H 	0.9883	0.0683	0.0779	0.037
Mof_H 	H 	0.9887	0.1804	0.0778	0.024
Mof_O 	O 	0.2448	0.415	0.15763	-0.599
Mof_O 	O 	0.0073	0.4161	0.17983	-0.562
Mof_O 	O 	0.2409	0.2918	0.11298	-0.581
Mof_C 	C 	0.1469	0.4294	0.18245	0.554
Mof_C 	C 	0.2016	0.4658	0.2177	-0.149
Mof_C 	C 	0.0958	0.4867	0.24498	0
Mof_C 	C 	0.1434	0.5211	0.27749	0.01
Mof_C 	C 	0.2082	0.1589	0.0978	-0.001
Mof_C 	C 	0.2073	0.0921	0.0977	0.011
Mof_H 	H 	0.99	0.4775	0.2414	0.041
Mof_H 	H 	0.0709	0.5354	0.2963	0.027
Mof_H 	H 	0.2617	0.1817	0.0779	0.036
Mof_H 	H 	0.2613	0.0696	0.0778	0.023
Mof_O 	O 	0.2448	0.915	0.65763	-0.599
Mof_O 	O 	0.0073	0.9161	0.67983	-0.561
Mof_O 	O 	0.2409	0.7918	0.61298	-0.581
Mof_C 	C 	0.1469	0.9294	0.68245	0.556
Mof_C 	C 	0.2016	0.9658	0.7177	-0.153
Mof_C 	C 	0.0958	0.9867	0.74498	0.01
Mof_C 	C 	0.1434	0.0211	0.77749	0.002
Mof_C 	C 	0.2082	0.6589	0.5978	-0
Mof_C 	C 	0.2073	0.5921	0.5977	0.01
Mof_H 	H 	0.99	0.9775	0.7414	0.037
Mof_H 	H 	0.0709	0.0354	0.7963	0.029
Mof_H 	H 	0.2617	0.6817	0.5779	0.036
Mof_H 	H 	0.2613	0.5696	0.5778	0.024
Mof_O 	O 	0.7448	0.415	0.65763	-0.599
Mof_O 	O 	0.5073	0.4161	0.67983	-0.563
Mof_O 	O 	0.7409	0.2918	0.61298	-0.581
Mof_C 	C 	0.6469	0.4294	0.68245	0.554
Mof_C 	C 	0.7016	0.4658	0.7177	-0.148
Mof_C 	C 	0.5958	0.4867	0.74498	-0.001
Mof_C 	C 	0.6434	0.5211	0.77749	0.011
Mof_C 	C 	0.7082	0.1589	0.5978	0
Mof_C 	C 	0.7073	0.0921	0.5977	0.01
Mof_H 	H 	0.49	0.4775	0.7414	0.042
Mof_H 	H 	0.5709	0.5354	0.7963	0.027
Mof_H 	H 	0.7617	0.1817	0.5779	0.036
Mof_H 	H 	0.7613	0.0696	0.5778	0.024
Mof_O 	O 	0.7448	0.915	0.15763	-0.598
Mof_O 	O 	0.5073	0.9161	0.17983	-0.562
Mof_O 	O 	0.7409	0.7918	0.11298	-0.581
Mof_C 	C 	0.6469	0.9294	0.18245	0.552
Mof_C 	C 	0.7016	0.9658	0.2177	-0.144
Mof_C 	C 	0.5958	0.9867	0.24498	-0.006
Mof_C 	C 	0.6434	0.0211	0.27749	0.016
Mof_C 	C 	0.7082	0.6589	0.0978	-0
Mof_C 	C 	0.7073	0.5921	0.0977	0.01
Mof_H 	H 	0.49	0.9775	0.2414	0.044
Mof_H 	H 	0.5709	0.0354	0.2963	0.025
Mof_H 	H 	0.7617	0.6817	0.0779	0.036
Mof_H 	H 	0.7613	0.5696	0.0778	0.024
Mof_O 	O 	0.7552	0.665	0.40763	-0.599
Mof_O 	O 	0.9927	0.6661	0.42983	-0.563
Mof_O 	O 	0.7591	0.5418	0.36298	-0.581
Mof_C 	C 	0.8531	0.6794	0.43245	0.553
Mof_C 	C 	0.7984	0.7158	0.4677	-0.147
Mof_C 	C 	0.9042	0.7367	0.49498	-0.003
Mof_C 	C 	0.8566	0.7711	0.52749	0.012
Mof_C 	C 	0.7918	0.4089	0.3478	-0
Mof_C 	C 	0.7927	0.3421	0.3477	0.01
Mof_H 	H 	0.01	0.7275	0.4914	0.043
Mof_H 	H 	0.9291	0.7854	0.5463	0.026
Mof_H 	H 	0.7383	0.4317	0.3279	0.036
Mof_H 	H 	0.7387	0.3196	0.3278	0.024
Mof_O 	O 	0.7552	0.165	0.90763	-0.599
Mof_O 	O 	0.9927	0.1661	0.92983	-0.561
Mof_O 	O 	0.7591	0.0418	0.86298	-0.581
Mof_C 	C 	0.8531	0.1794	0.93245	0.555
Mof_C 	C 	0.7984	0.2158	0.9677	-0.151
Mof_C 	C 	0.9042	0.2367	0.99498	0.006
Mof_C 	C 	0.8566	0.2711	0.02749	0.006
Mof_C 	C 	0.7918	0.9089	0.8478	0.001
Mof_C 	C 	0.7927	0.8421	0.8477	0.01
Mof_H 	H 	0.01	0.2275	0.9914	0.038
Mof_H 	H 	0.9291	0.2854	0.0463	0.028
Mof_H 	H 	0.7383	0.9317	0.8279	0.035
Mof_H 	H 	0.7387	0.8196	0.8278	0.024
Mof_O 	O 	0.2552	0.665	0.90763	-0.598
Mof_O 	O 	0.4927	0.6661	0.92983	-0.563
Mof_O 	O 	0.2591	0.5418	0.86298	-0.581
Mof_C 	C 	0.3531	0.6794	0.93245	0.553
Mof_C 	C 	0.2984	0.7158	0.9677	-0.146
Mof_C 	C 	0.4042	0.7367	0.99498	-0.003
Mof_C 	C 	0.3566	0.7711	0.02749	0.014
Mof_C 	C 	0.2918	0.4089	0.8478	-0
Mof_C 	C 	0.2927	0.3421	0.8477	0.01
Mof_H 	H 	0.51	0.7275	0.9914	0.043
Mof_H 	H 	0.4291	0.7854	0.0463	0.026
Mof_H 	H 	0.2383	0.4317	0.8279	0.036
Mof_H 	H 	0.2387	0.3196	0.8278	0.024
Mof_O 	O 	0.2552	0.165	0.40763	-0.598
Mof_O 	O 	0.4927	0.1661	0.42983	-0.563
Mof_O 	O 	0.2591	0.0418	0.36298	-0.581
Mof_C 	C 	0.3531	0.1794	0.43245	0.554
Mof_C 	C 	0.2984	0.2158	0.4677	-0.149
Mof_C 	C 	0.4042	0.2367	0.49498	0
Mof_C 	C 	0.3566	0.2711	0.52749	0.01
Mof_C 	C 	0.2918	0.9089	0.3478	-0.001
Mof_C 	C 	0.2927	0.8421	0.3477	0.011
Mof_H 	H 	0.51	0.2275	0.4914	0.042
Mof_H 	H 	0.4291	0.2854	0.5463	0.027
Mof_H 	H 	0.2383	0.9317	0.3279	0.037
Mof_H 	H 	0.2387	0.8196	0.3278	0.024
Mof_O 	O 	0.4948	0.585	0.40763	-0.599
Mof_O 	O 	0.2573	0.5839	0.42983	-0.563
Mof_O 	O 	0.4909	0.7082	0.36298	-0.581
Mof_C 	C 	0.3969	0.5706	0.43245	0.554
Mof_C 	C 	0.4516	0.5342	0.4677	-0.148
Mof_C 	C 	0.3458	0.5133	0.49498	-0.001
Mof_C 	C 	0.3934	0.4789	0.52749	0.011
Mof_C 	C 	0.4582	0.8411	0.3478	0
Mof_C 	C 	0.4573	0.9079	0.3477	0.01
Mof_H 	H 	0.24	0.5225	0.4914	0.042
Mof_H 	H 	0.3209	0.4646	0.5463	0.027
Mof_H 	H 	0.5117	0.8183	0.3279	0.036
Mof_H 	H 	0.5113	0.9304	0.3278	0.024
Mof_O 	O 	0.4948	0.085	0.90763	-0.598
Mof_O 	O 	0.2573	0.0839	0.92983	-0.563
Mof_O 	O 	0.4909	0.2082	0.86298	-0.581
Mof_C 	C 	0.3969	0.0706	0.93245	0.554
Mof_C 	C 	0.4516	0.0342	0.9677	-0.148
Mof_C 	C 	0.3458	0.0133	0.99498	-0.001
Mof_C 	C 	0.3934	0.9789	0.02749	0.012
Mof_C 	C 	0.4582	0.3411	0.8478	-0
Mof_C 	C 	0.4573	0.4079	0.8477	0.011
Mof_H 	H 	0.24	0.0225	0.9914	0.042
Mof_H 	H 	0.3209	0.9646	0.0463	0.027
Mof_H 	H 	0.5117	0.3183	0.8279	0.036
Mof_H 	H 	0.5113	0.4304	0.8278	0.024
Mof_O 	O 	0.9948	0.585	0.90763	-0.598
Mof_O 	O 	0.7573	0.5839	0.92983	-0.563
Mof_O 	O 	0.9909	0.7082	0.86298	-0.581
Mof_C 	C 	0.8969	0.5706	0.93245	0.554
Mof_C 	C 	0.9516	0.5342	0.9677	-0.147
Mof_C 	C 	0.8458	0.5133	0.99498	0
Mof_C 	C 	0.8934	0.4789	0.02749	0.009
Mof_C 	C 	0.9582	0.8411	0.8478	-0
Mof_C 	C 	0.9573	0.9079	0.8477	0.009
Mof_H 	H 	0.74	0.5225	0.9914	0.042
Mof_H 	H 	0.8209	0.4646	0.0463	0.027
Mof_H 	H 	0.0117	0.8183	0.8279	0.036
Mof_H 	H 	0.0113	0.9304	0.8278	0.025
Mof_O 	O 	0.9948	0.085	0.40763	-0.596
Mof_O 	O 	0.7573	0.0839	0.42983	-0.562
Mof_O 	O 	0.9909	0.2082	0.36298	-0.579
Mof_C 	C 	0.8969	0.0706	0.43245	0.553
Mof_C 	C 	0.9516	0.0342	0.4677	-0.145
Mof_C 	C 	0.8458	0.0133	0.49498	0.002
Mof_C 	C 	0.8934	0.9789	0.52749	0.005
Mof_C 	C 	0.9582	0.3411	0.3478	0.002
Mof_C 	C 	0.9573	0.4079	0.3477	0.011
Mof_H 	H 	0.74	0.0225	0.4914	0.041
Mof_H 	H 	0.8209	0.9646	0.5463	0.028
Mof_H 	H 	0.0117	0.3183	0.3279	0.034
Mof_H 	H 	0.0113	0.4304	0.3278	0.023
Mof_O 	O 	0.4948	0.665	0.84237	-0.599
Mof_O 	O 	0.2573	0.6661	0.82017	-0.563
Mof_O 	O 	0.4909	0.5418	0.88702	-0.581
Mof_C 	C 	0.3969	0.6794	0.81755	0.554
Mof_C 	C 	0.4516	0.7158	0.7823	-0.148
Mof_C 	C 	0.3458	0.7367	0.75502	-0.001
Mof_C 	C 	0.3934	0.7711	0.72251	0.011
Mof_C 	C 	0.4582	0.4089	0.9022	-0
Mof_C 	C 	0.4573	0.3421	0.9023	0.01
Mof_H 	H 	0.24	0.7275	0.7586	0.042
Mof_H 	H 	0.3209	0.7854	0.7037	0.027
Mof_H 	H 	0.5117	0.4317	0.9221	0.036
Mof_H 	H 	0.5113	0.3196	0.9222	0.024
Mof_O 	O 	0.4948	0.165	0.34237	-0.599
Mof_O 	O 	0.2573	0.1661	0.32017	-0.563
Mof_O 	O 	0.4909	0.0418	0.38702	-0.581
Mof_C 	C 	0.3969	0.1794	0.31755	0.554
Mof_C 	C 	0.4516	0.2158	0.2823	-0.148
Mof_C 	C 	0.3458	0.2367	0.25502	-0
Mof_C 	C 	0.3934	0.2711	0.22251	0.011
Mof_C 	C 	0.4582	0.9089	0.4022	-0.001
Mof_C 	C 	0.4573	0.8421	0.4023	0.011
Mof_H 	H 	0.24	0.2275	0.2586	0.042
Mof_H 	H 	0.3209	0.2854	0.2037	0.027
Mof_H 	H 	0.5117	0.9317	0.4221	0.036
Mof_H 	H 	0.5113	0.8196	0.4222	0.024
Mof_O 	O 	0.9948	0.665	0.34237	-0.599
Mof_O 	O 	0.7573	0.6661	0.32017	-0.563
Mof_O 	O 	0.9909	0.5418	0.38702	-0.581
Mof_C 	C 	0.8969	0.6794	0.31755	0.555
Mof_C 	C 	0.9516	0.7158	0.2823	-0.152
Mof_C 	C 	0.8458	0.7367	0.25502	0.003
Mof_C 	C 	0.8934	0.7711	0.22251	0.005
Mof_C 	C 	0.9582	0.4089	0.4022	0.001
Mof_C 	C 	0.9573	0.3421	0.4023	0.013
Mof_H 	H 	0.74	0.7275	0.2586	0.041
Mof_H 	H 	0.8209	0.7854	0.2037	0.029
Mof_H 	H 	0.0117	0.4317	0.4221	0.035
Mof_H 	H 	0.0113	0.3196	0.4222	0.022
Mof_O 	O 	0.9948	0.165	0.84237	-0.596
Mof_O 	O 	0.7573	0.1661	0.82017	-0.562
Mof_O 	O 	0.9909	0.0418	0.88702	-0.579
Mof_C 	C 	0.8969	0.1794	0.81755	0.552
Mof_C 	C 	0.9516	0.2158	0.7823	-0.143
Mof_C 	C 	0.8458	0.2367	0.75502	-0.004
Mof_C 	C 	0.8934	0.2711	0.72251	0.015
Mof_C 	C 	0.9582	0.9089	0.9022	-0.001
Mof_C 	C 	0.9573	0.8421	0.9023	0.01
Mof_H 	H 	0.74	0.2275	0.7586	0.043
Mof_H 	H 	0.8209	0.2854	0.7037	0.026
Mof_H 	H 	0.0117	0.9317	0.9221	0.037
Mof_H 	H 	0.0113	0.8196	0.9222	0.024
Mof_O 	O 	0.7552	0.585	0.84237	-0.599
Mof_O 	O 	0.9927	0.5839	0.82017	-0.562
Mof_O 	O 	0.7591	0.7082	0.88702	-0.581
Mof_C 	C 	0.8531	0.5706	0.81755	0.554
Mof_C 	C 	0.7984	0.5342	0.7823	-0.149
Mof_C 	C 	0.9042	0.5133	0.75502	0
Mof_C 	C 	0.8566	0.4789	0.72251	0.01
Mof_C 	C 	0.7918	0.8411	0.9022	-0.001
Mof_C 	C 	0.7927	0.9079	0.9023	0.011
Mof_H 	H 	0.01	0.5225	0.7586	0.041
Mof_H 	H 	0.9291	0.4646	0.7037	0.027
Mof_H 	H 	0.7383	0.8183	0.9221	0.036
Mof_H 	H 	0.7387	0.9304	0.9222	0.023
Mof_O 	O 	0.7552	0.085	0.34237	-0.599
Mof_O 	O 	0.9927	0.0839	0.32017	-0.561
Mof_O 	O 	0.7591	0.2082	0.38702	-0.581
Mof_C 	C 	0.8531	0.0706	0.31755	0.556
Mof_C 	C 	0.7984	0.0342	0.2823	-0.153
Mof_C 	C 	0.9042	0.0133	0.25502	0.01
Mof_C 	C 	0.8566	0.9789	0.22251	0.002
Mof_C 	C 	0.7918	0.3411	0.4022	-0
Mof_C 	C 	0.7927	0.4079	0.4023	0.01
Mof_H 	H 	0.01	0.0225	0.2586	0.037
Mof_H 	H 	0.9291	0.9646	0.2037	0.029
Mof_H 	H 	0.7383	0.3183	0.4221	0.036
Mof_H 	H 	0.7387	0.4304	0.4222	0.024
Mof_O 	O 	0.2552	0.585	0.34237	-0.599
Mof_O 	O 	0.4927	0.5839	0.32017	-0.563
Mof_O 	O 	0.2591	0.7082	0.38702	-0.581
Mof_C 	C 	0.3531	0.5706	0.31755	0.554
Mof_C 	C 	0.2984	0.5342	0.2823	-0.148
Mof_C 	C 	0.4042	0.5133	0.25502	-0.001
Mof_C 	C 	0.3566	0.4789	0.22251	0.011
Mof_C 	C 	0.2918	0.8411	0.4022	0
Mof_C 	C 	0.2927	0.9079	0.4023	0.01
Mof_H 	H 	0.51	0.5225	0.2586	0.042
Mof_H 	H 	0.4291	0.4646	0.2037	0.027
Mof_H 	H 	0.2383	0.8183	0.4221	0.036
Mof_H 	H 	0.2387	0.9304	0.4222	0.024
Mof_O 	O 	0.2552	0.085	0.84237	-0.598
Mof_O 	O 	0.4927	0.0839	0.82017	-0.562
Mof_O 	O 	0.2591	0.2082	0.88702	-0.581
Mof_C 	C 	0.3531	0.0706	0.81755	0.552
Mof_C 	C 	0.2984	0.0342	0.7823	-0.144
Mof_C 	C 	0.4042	0.0133	0.75502	-0.006
Mof_C 	C 	0.3566	0.9789	0.72251	0.016
Mof_C 	C 	0.2918	0.3411	0.9022	-0
Mof_C 	C 	0.2927	0.4079	0.9023	0.01
Mof_H 	H 	0.51	0.0225	0.7586	0.044
Mof_H 	H 	0.4291	0.9646	0.7037	0.025
Mof_H 	H 	0.2383	0.3183	0.9221	0.036
Mof_H 	H 	0.2387	0.4304	0.9222	0.024
Mof_Sc	Sc	0.375	0.375	0.63596	1.983
Mof_Sc	Sc	0.375	0.875	0.13596	1.983
Mof_Sc	Sc	0.875	0.375	0.13596	1.981
Mof_Sc	Sc	0.875	0.875	0.63596	1.977
Mof_Sc	Sc	0.375	0.375	0.11404	1.983
Mof_Sc	Sc	0.375	0.875	0.61404	1.983
Mof_Sc	Sc	0.875	0.375	0.61404	1.982
Mof_Sc	Sc	0.875	0.875	0.11404	1.975
Mof_Sc	Sc	0.625	0.625	0.36404	1.983
Mof_Sc	Sc	0.625	0.125	0.86404	1.983
Mof_Sc	Sc	0.125	0.625	0.86404	1.981
Mof_Sc	Sc	0.125	0.125	0.36404	1.977
Mof_Sc	Sc	0.625	0.625	0.88596	1.983
Mof_Sc	Sc	0.625	0.125	0.38596	1.983
Mof_Sc	Sc	0.125	0.625	0.38596	1.982
Mof_Sc	Sc	0.125	0.125	0.88596	1.975
Mof_C 	C 	0.125	0.4866	0.625	0.571
Mof_C 	C 	0.125	0.5578	0.625	-0.179
Mof_C 	C 	0.125	0.9866	0.125	0.572
Mof_C 	C 	0.125	0.0578	0.125	-0.18
Mof_C 	C 	0.625	0.9866	0.625	0.569
Mof_C 	C 	0.625	0.0578	0.625	-0.177
Mof_C 	C 	0.625	0.2634	0.625	0.571
Mof_C 	C 	0.625	0.1922	0.625	-0.179
Mof_C 	C 	0.625	0.7634	0.125	0.57
Mof_C 	C 	0.625	0.6922	0.125	-0.179
Mof_C 	C 	0.625	0.4866	0.125	0.571
Mof_C 	C 	0.625	0.5578	0.125	-0.179
Mof_C 	C 	0.125	0.2634	0.125	0.57
Mof_C 	C 	0.125	0.1922	0.125	-0.178
Mof_C 	C 	0.125	0.7634	0.625	0.571
Mof_C 	C 	0.125	0.6922	0.625	-0.18
Mof_C 	C 	0.875	0.5134	0.375	0.571
Mof_C 	C 	0.875	0.4422	0.375	-0.179
Mof_C 	C 	0.875	0.0134	0.875	0.572
Mof_C 	C 	0.875	0.9422	0.875	-0.18
Mof_C 	C 	0.375	0.7366	0.375	0.571
Mof_C 	C 	0.375	0.8078	0.375	-0.179
Mof_C 	C 	0.375	0.2366	0.875	0.57
Mof_C 	C 	0.375	0.3078	0.875	-0.179
Mof_C 	C 	0.375	0.5134	0.875	0.571
Mof_C 	C 	0.375	0.4422	0.875	-0.179
Mof_C 	C 	0.375	0.0134	0.375	0.569
Mof_C 	C 	0.375	0.9422	0.375	-0.177
Mof_C 	C 	0.875	0.7366	0.875	0.57
Mof_C 	C 	0.875	0.8078	0.875	-0.178
Mof_C 	C 	0.875	0.2366	0.375	0.571
Mof_C 	C 	0.875	0.3078	0.375	-0.18
_end
