data_functionalizedCrystal
_audit_creation_method	'EQeq! by Chris Wilmer'
_symmetry_space_group_name_H-M	'P1'
_symmetry_Int_Tables_number	1
_symmetry_cell_setting	triclinic
loop_
_symmetry_equiv_pos_as_xyz
  x,y,z
_cell_length_a	10.6597
_cell_length_b	18.8495
_cell_length_c	39.7552
_cell_angle_alpha	90
_cell_angle_beta	90
_cell_angle_gamma	90
loop_
_atom_site_label
_atom_site_type_symbol
_atom_site_fract_x
_atom_site_fract_y
_atom_site_fract_z
_atom_site_charge
Mof_Zn	Zn	0.49952	0.47402	0.52062	1.152
Mof_Zn	Zn	0.6994	0.72602	0.77147	1.175
Mof_Zn	Zn	0.50048	0.52598	0.02062	1.151
Mof_Zn	Zn	0.3006	0.27398	0.27147	1.175
Mof_Zn	Zn	0.00048	0.97402	0.52062	1.15
Mof_Zn	Zn	0.8006	0.22602	0.77147	1.175
Mof_Zn	Zn	0.99952	0.02598	0.02062	1.149
Mof_Zn	Zn	0.1994	0.77398	0.27147	1.175
Mof_H 	H 	0.5176	0.499	0.4433	-0.002
Mof_H 	H 	0.5651	0.5883	0.405	0.109
Mof_H 	H 	0.6079	0.7212	0.4826	0.116
Mof_H 	H 	0.5705	0.631	0.5191	-0.011
Mof_H 	H 	0.2644	0.676	0.3314	-0.025
Mof_H 	H 	0.416	0.6543	0.3689	0.107
Mof_H 	H 	0.6081	0.821	0.3328	0.109
Mof_H 	H 	0.4414	0.841	0.2965	0
Mof_H 	H 	0.9426	0.7026	0.2843	-0.019
Mof_H 	H 	0.7859	0.6956	0.3222	0.105
Mof_H 	H 	0.9741	0.8339	0.3812	0.11
Mof_H 	H 	0.1407	0.828	0.3426	0.017
Mof_H 	H 	0.0632	0.8323	0.4875	-0.03
Mof_H 	H 	0.9837	0.7481	0.4519	0.108
Mof_H 	H 	0.6709	0.8646	0.4436	0.113
Mof_H 	H 	0.7593	0.9449	0.4815	-0.028
Mof_H 	H 	0.5759	0.7664	0.4216	0.073
Mof_H 	H 	0.6758	0.6697	0.3729	0.067
Mof_H 	H 	0.7186	0.8194	0.3797	0.07
Mof_H 	H 	0.8238	0.7041	0.4175	0.062
Mof_H 	H 	0.2896	0.5883	0.5251	-0.031
Mof_H 	H 	0.2008	0.6662	0.563	0.104
Mof_H 	H 	0.4402	0.5942	0.6322	0.113
Mof_H 	H 	0.5203	0.5201	0.5925	-0.039
Mof_H 	H 	0.6255	0.7727	0.7009	-0.018
Mof_H 	H 	0.4592	0.763	0.6627	0.11
Mof_H 	H 	0.3066	0.6153	0.7217	0.116
Mof_H 	H 	0.4615	0.634	0.7597	0.005
Mof_H 	H 	0.8129	0.639	0.7119	-0.004
Mof_H 	H 	0.9658	0.6436	0.6724	0.103
Mof_H 	H 	0.0832	0.8287	0.7125	0.108
Mof_H 	H 	0.9152	0.8206	0.7502	-0.022
Mof_H 	H 	0.8759	0.8435	0.5545	-0.004
Mof_H 	H 	0.9204	0.7548	0.5937	0.098
Mof_H 	H 	0.2641	0.8386	0.6034	0.121
Mof_H 	H 	0.211	0.9229	0.5653	-0.026
Mof_H 	H 	0.3305	0.7399	0.6238	0.069
Mof_H 	H 	0.2152	0.6354	0.6667	0.074
Mof_H 	H 	0.1935	0.7887	0.6661	0.071
Mof_H 	H 	0.0759	0.6859	0.6223	0.054
Mof_H 	H 	0.4824	0.501	0.9433	-0.001
Mof_H 	H 	0.4349	0.4117	0.905	0.112
Mof_H 	H 	0.3921	0.2788	0.9826	0.122
Mof_H 	H 	0.4295	0.369	0.0191	-0.021
Mof_H 	H 	0.7356	0.324	0.8314	-0.025
Mof_H 	H 	0.584	0.3457	0.8689	0.107
Mof_H 	H 	0.3919	0.179	0.8328	0.109
Mof_H 	H 	0.5586	0.159	0.7965	0
Mof_H 	H 	0.0574	0.2974	0.7843	-0.019
Mof_H 	H 	0.2141	0.3044	0.8222	0.105
Mof_H 	H 	0.0259	0.1661	0.8812	0.11
Mof_H 	H 	0.8593	0.172	0.8426	0.017
Mof_H 	H 	0.9368	0.1677	0.9875	-0.028
Mof_H 	H 	0.0163	0.2519	0.9519	0.108
Mof_H 	H 	0.3291	0.1354	0.9436	0.113
Mof_H 	H 	0.2407	0.0551	0.9815	-0.026
Mof_H 	H 	0.4241	0.2336	0.9216	0.074
Mof_H 	H 	0.3242	0.3303	0.8729	0.067
Mof_H 	H 	0.2814	0.1806	0.8797	0.07
Mof_H 	H 	0.1762	0.2959	0.9175	0.062
Mof_H 	H 	0.7104	0.4117	0.0251	-0.033
Mof_H 	H 	0.7992	0.3338	0.063	0.103
Mof_H 	H 	0.5598	0.4058	0.1322	0.113
Mof_H 	H 	0.4797	0.4799	0.0925	-0.04
Mof_H 	H 	0.3745	0.2273	0.2009	-0.018
Mof_H 	H 	0.5408	0.237	0.1627	0.11
Mof_H 	H 	0.6934	0.3847	0.2217	0.116
Mof_H 	H 	0.5385	0.366	0.2597	0.005
Mof_H 	H 	0.1871	0.361	0.2119	-0.004
Mof_H 	H 	0.0342	0.3564	0.1724	0.103
Mof_H 	H 	0.9168	0.1713	0.2125	0.108
Mof_H 	H 	0.0848	0.1794	0.2502	-0.022
Mof_H 	H 	0.1241	0.1565	0.0545	-0.005
Mof_H 	H 	0.0796	0.2452	0.0937	0.098
Mof_H 	H 	0.7359	0.1614	0.1034	0.121
Mof_H 	H 	0.789	0.0771	0.0653	-0.027
Mof_H 	H 	0.6695	0.2601	0.1238	0.069
Mof_H 	H 	0.7848	0.3646	0.1667	0.074
Mof_H 	H 	0.8065	0.2113	0.1661	0.071
Mof_H 	H 	0.9241	0.3141	0.1223	0.054
Mof_H 	H 	0.9824	0.999	0.4433	0.001
Mof_H 	H 	0.9349	0.0883	0.405	0.11
Mof_H 	H 	0.8921	0.2212	0.4826	0.117
Mof_H 	H 	0.9295	0.131	0.5191	-0.01
Mof_H 	H 	0.2356	0.176	0.3314	-0.025
Mof_H 	H 	0.084	0.1543	0.3689	0.107
Mof_H 	H 	0.8919	0.321	0.3328	0.108
Mof_H 	H 	0.0586	0.341	0.2965	0.001
Mof_H 	H 	0.5574	0.2026	0.2843	-0.019
Mof_H 	H 	0.7141	0.1956	0.3222	0.105
Mof_H 	H 	0.5259	0.3339	0.3812	0.111
Mof_H 	H 	0.3593	0.328	0.3426	0.016
Mof_H 	H 	0.4368	0.3323	0.4875	-0.021
Mof_H 	H 	0.5163	0.2481	0.4519	0.104
Mof_H 	H 	0.8291	0.3646	0.4436	0.112
Mof_H 	H 	0.7407	0.4449	0.4815	-0.027
Mof_H 	H 	0.9241	0.2664	0.4216	0.074
Mof_H 	H 	0.8242	0.1697	0.3729	0.067
Mof_H 	H 	0.7814	0.3194	0.3797	0.07
Mof_H 	H 	0.6762	0.2041	0.4175	0.061
Mof_H 	H 	0.2104	0.0883	0.5251	-0.031
Mof_H 	H 	0.2992	0.1662	0.563	0.104
Mof_H 	H 	0.0598	0.0942	0.6322	0.111
Mof_H 	H 	0.9797	0.0201	0.5925	-0.035
Mof_H 	H 	0.8745	0.2727	0.7009	-0.019
Mof_H 	H 	0.0408	0.263	0.6627	0.11
Mof_H 	H 	0.1934	0.1153	0.7217	0.116
Mof_H 	H 	0.0385	0.134	0.7597	0.005
Mof_H 	H 	0.6871	0.139	0.7119	-0.004
Mof_H 	H 	0.5342	0.1436	0.6724	0.103
Mof_H 	H 	0.4168	0.3287	0.7125	0.108
Mof_H 	H 	0.5848	0.3206	0.7502	-0.021
Mof_H 	H 	0.6241	0.3435	0.5545	-0.004
Mof_H 	H 	0.5796	0.2548	0.5937	0.1
Mof_H 	H 	0.2359	0.3386	0.6034	0.122
Mof_H 	H 	0.289	0.4229	0.5653	-0.027
Mof_H 	H 	0.1695	0.2399	0.6238	0.068
Mof_H 	H 	0.2848	0.1354	0.6667	0.075
Mof_H 	H 	0.3065	0.2887	0.6661	0.07
Mof_H 	H 	0.4241	0.1859	0.6223	0.056
Mof_H 	H 	0.0176	0.001	0.9433	0.001
Mof_H 	H 	0.0651	0.9117	0.905	0.111
Mof_H 	H 	0.1079	0.7788	0.9826	0.122
Mof_H 	H 	0.0705	0.869	0.0191	-0.02
Mof_H 	H 	0.7644	0.824	0.8314	-0.025
Mof_H 	H 	0.916	0.8457	0.8689	0.107
Mof_H 	H 	0.1081	0.679	0.8328	0.108
Mof_H 	H 	0.9414	0.659	0.7965	0.001
Mof_H 	H 	0.4426	0.7974	0.7843	-0.019
Mof_H 	H 	0.2859	0.8044	0.8222	0.105
Mof_H 	H 	0.4741	0.6661	0.8812	0.111
Mof_H 	H 	0.6407	0.672	0.8426	0.016
Mof_H 	H 	0.5632	0.6677	0.9875	-0.02
Mof_H 	H 	0.4837	0.7519	0.9519	0.104
Mof_H 	H 	0.1709	0.6354	0.9436	0.112
Mof_H 	H 	0.2593	0.5551	0.9815	-0.025
Mof_H 	H 	0.0759	0.7336	0.9216	0.075
Mof_H 	H 	0.1758	0.8303	0.8729	0.067
Mof_H 	H 	0.2186	0.6806	0.8797	0.071
Mof_H 	H 	0.3238	0.7959	0.9175	0.061
Mof_H 	H 	0.7896	0.9117	0.0251	-0.033
Mof_H 	H 	0.7008	0.8338	0.063	0.103
Mof_H 	H 	0.9402	0.9058	0.1322	0.111
Mof_H 	H 	0.0203	0.9799	0.0925	-0.035
Mof_H 	H 	0.1255	0.7273	0.2009	-0.018
Mof_H 	H 	0.9592	0.737	0.1627	0.11
Mof_H 	H 	0.8066	0.8847	0.2217	0.116
Mof_H 	H 	0.9615	0.866	0.2597	0.005
Mof_H 	H 	0.3129	0.861	0.2119	-0.004
Mof_H 	H 	0.4658	0.8564	0.1724	0.103
Mof_H 	H 	0.5832	0.6713	0.2125	0.108
Mof_H 	H 	0.4152	0.6794	0.2502	-0.021
Mof_H 	H 	0.3759	0.6565	0.0545	-0.005
Mof_H 	H 	0.4204	0.7452	0.0937	0.099
Mof_H 	H 	0.7641	0.6614	0.1034	0.122
Mof_H 	H 	0.711	0.5771	0.0653	-0.027
Mof_H 	H 	0.8305	0.7601	0.1238	0.068
Mof_H 	H 	0.7152	0.8646	0.1667	0.075
Mof_H 	H 	0.6935	0.7113	0.1661	0.07
Mof_H 	H 	0.5759	0.8141	0.1223	0.056
Mof_C 	C 	0.5374	0.5446	0.4512	0.086
Mof_C 	C 	0.5654	0.5981	0.4282	-0.161
Mof_C 	C 	0.5935	0.6652	0.4396	0.123
Mof_C 	C 	0.5916	0.6757	0.4741	-0.174
Mof_C 	C 	0.5671	0.6221	0.49589	0.106
Mof_C 	C 	0.335	0.7059	0.3316	0.123
Mof_C 	C 	0.4255	0.692	0.3536	-0.167
Mof_C 	C 	0.5381	0.7342	0.35423	0.127
Mof_C 	C 	0.5392	0.7899	0.3329	-0.167
Mof_C 	C 	0.4383	0.8016	0.311	0.108
Mof_C 	C 	0.9498	0.7289	0.3043	0.106
Mof_C 	C 	0.855	0.7252	0.3265	-0.167
Mof_C 	C 	0.8592	0.7657	0.35602	0.113
Mof_C 	C 	0.967	0.8058	0.3617	-0.135
Mof_C 	C 	0.0657	0.8036	0.3379	0.09
Mof_C 	C 	0.9822	0.8388	0.4787	0.131
Mof_C 	C 	0.9361	0.7887	0.4569	-0.187
Mof_C 	C 	0.8204	0.798	0.44238	0.132
Mof_C 	C 	0.7519	0.8568	0.4521	-0.178
Mof_C 	C 	0.8058	0.9047	0.4751	0.119
Mof_C 	C 	0.6288	0.7246	0.41647	-0.069
Mof_C 	C 	0.6423	0.7174	0.3782	-0.069
Mof_C 	C 	0.7526	0.7706	0.38012	-0.065
Mof_C 	C 	0.7712	0.7474	0.41715	-0.075
Mof_C 	C 	0.321	0.59	0.5472	0.126
Mof_C 	C 	0.2686	0.6375	0.5697	-0.184
Mof_C 	C 	0.3155	0.6428	0.60153	0.15
Mof_C 	C 	0.4086	0.5954	0.6101	-0.191
Mof_C 	C 	0.4544	0.5506	0.5863	0.139
Mof_C 	C 	0.559	0.7415	0.7056	0.098
Mof_C 	C 	0.4592	0.7349	0.68228	-0.169
Mof_C 	C 	0.3643	0.689	0.68759	0.128
Mof_C 	C 	0.369	0.6492	0.71719	-0.176
Mof_C 	C 	0.4634	0.6595	0.7394	0.109
Mof_C 	C 	0.8665	0.6786	0.71154	0.107
Mof_C 	C 	0.9591	0.6803	0.6883	-0.163
Mof_C 	C 	0.0469	0.7377	0.6879	0.116
Mof_C 	C 	0.0285	0.7897	0.7115	-0.167
Mof_C 	C 	0.9267	0.7843	0.7343	0.097
Mof_C 	C 	0.9554	0.8419	0.5647	0.091
Mof_C 	C 	0.9821	0.7882	0.5879	-0.156
Mof_C 	C 	0.101	0.7848	0.6022	0.115
Mof_C 	C 	0.1839	0.8376	0.5935	-0.182
Mof_C 	C 	0.1511	0.8882	0.5709	0.131
Mof_C 	C 	0.2738	0.6985	0.62591	-0.076
Mof_C 	C 	0.2552	0.6824	0.66394	-0.072
Mof_C 	C 	0.152	0.742	0.6636	-0.07
Mof_C 	C 	0.1345	0.7261	0.62536	-0.064
Mof_C 	C 	0.4626	0.4554	0.9512	0.088
Mof_C 	C 	0.4346	0.4019	0.9282	-0.165
Mof_C 	C 	0.4065	0.3348	0.9396	0.129
Mof_C 	C 	0.4084	0.3243	0.9741	-0.184
Mof_C 	C 	0.4329	0.3779	0.99589	0.123
Mof_C 	C 	0.665	0.2941	0.8316	0.123
Mof_C 	C 	0.5745	0.308	0.8536	-0.167
Mof_C 	C 	0.4619	0.2658	0.85423	0.126
Mof_C 	C 	0.4608	0.2101	0.8329	-0.166
Mof_C 	C 	0.5617	0.1984	0.811	0.108
Mof_C 	C 	0.0502	0.2711	0.8043	0.106
Mof_C 	C 	0.145	0.2748	0.8265	-0.167
Mof_C 	C 	0.1408	0.2343	0.85602	0.114
Mof_C 	C 	0.033	0.1942	0.8617	-0.136
Mof_C 	C 	0.9343	0.1964	0.8379	0.09
Mof_C 	C 	0.0178	0.1612	0.9787	0.131
Mof_C 	C 	0.0639	0.2113	0.9569	-0.186
Mof_C 	C 	0.1796	0.202	0.94238	0.132
Mof_C 	C 	0.2481	0.1432	0.9521	-0.177
Mof_C 	C 	0.1942	0.0953	0.9751	0.119
Mof_C 	C 	0.3712	0.2754	0.91647	-0.071
Mof_C 	C 	0.3577	0.2826	0.8782	-0.068
Mof_C 	C 	0.2474	0.2294	0.88012	-0.066
Mof_C 	C 	0.2288	0.2526	0.91715	-0.074
Mof_C 	C 	0.679	0.41	0.0472	0.126
Mof_C 	C 	0.7314	0.3625	0.0697	-0.184
Mof_C 	C 	0.6845	0.3572	0.10153	0.15
Mof_C 	C 	0.5914	0.4046	0.1101	-0.191
Mof_C 	C 	0.5456	0.4494	0.0863	0.139
Mof_C 	C 	0.441	0.2585	0.2056	0.098
Mof_C 	C 	0.5408	0.2651	0.18228	-0.169
Mof_C 	C 	0.6357	0.311	0.18759	0.128
Mof_C 	C 	0.631	0.3508	0.21719	-0.176
Mof_C 	C 	0.5366	0.3405	0.2394	0.109
Mof_C 	C 	0.1335	0.3214	0.21154	0.107
Mof_C 	C 	0.0409	0.3197	0.1883	-0.164
Mof_C 	C 	0.9531	0.2623	0.1879	0.116
Mof_C 	C 	0.9715	0.2103	0.2115	-0.167
Mof_C 	C 	0.0733	0.2157	0.2343	0.097
Mof_C 	C 	0.0446	0.1581	0.0647	0.091
Mof_C 	C 	0.0179	0.2118	0.0879	-0.156
Mof_C 	C 	0.899	0.2152	0.1022	0.115
Mof_C 	C 	0.8161	0.1624	0.0935	-0.182
Mof_C 	C 	0.8489	0.1118	0.0709	0.131
Mof_C 	C 	0.7262	0.3015	0.12591	-0.076
Mof_C 	C 	0.7448	0.3176	0.16394	-0.072
Mof_C 	C 	0.848	0.258	0.1636	-0.07
Mof_C 	C 	0.8655	0.2739	0.12536	-0.064
Mof_C 	C 	0.9626	0.0446	0.4512	0.084
Mof_C 	C 	0.9346	0.0981	0.4282	-0.16
Mof_C 	C 	0.9065	0.1652	0.4396	0.124
Mof_C 	C 	0.9084	0.1757	0.4741	-0.174
Mof_C 	C 	0.9329	0.1221	0.49589	0.106
Mof_C 	C 	0.165	0.2059	0.3316	0.124
Mof_C 	C 	0.0745	0.192	0.3536	-0.17
Mof_C 	C 	0.9619	0.2342	0.35423	0.128
Mof_C 	C 	0.9608	0.2899	0.3329	-0.165
Mof_C 	C 	0.0617	0.3016	0.311	0.106
Mof_C 	C 	0.5502	0.2289	0.3043	0.104
Mof_C 	C 	0.645	0.2252	0.3265	-0.168
Mof_C 	C 	0.6408	0.2657	0.35602	0.116
Mof_C 	C 	0.533	0.3058	0.3617	-0.142
Mof_C 	C 	0.4343	0.3036	0.3379	0.097
Mof_C 	C 	0.5178	0.3388	0.4787	0.117
Mof_C 	C 	0.5639	0.2887	0.4569	-0.179
Mof_C 	C 	0.6796	0.298	0.44238	0.128
Mof_C 	C 	0.7481	0.3568	0.4521	-0.175
Mof_C 	C 	0.6942	0.4047	0.4751	0.117
Mof_C 	C 	0.8712	0.2246	0.41647	-0.07
Mof_C 	C 	0.8577	0.2174	0.3782	-0.068
Mof_C 	C 	0.7474	0.2706	0.38012	-0.067
Mof_C 	C 	0.7288	0.2474	0.41715	-0.072
Mof_C 	C 	0.179	0.09	0.5472	0.125
Mof_C 	C 	0.2314	0.1375	0.5697	-0.182
Mof_C 	C 	0.1845	0.1428	0.60153	0.147
Mof_C 	C 	0.0914	0.0954	0.6101	-0.187
Mof_C 	C 	0.0456	0.0506	0.5863	0.132
Mof_C 	C 	0.941	0.2415	0.7056	0.1
Mof_C 	C 	0.0408	0.2349	0.68228	-0.171
Mof_C 	C 	0.1357	0.189	0.68759	0.129
Mof_C 	C 	0.131	0.1492	0.71719	-0.177
Mof_C 	C 	0.0366	0.1595	0.7394	0.11
Mof_C 	C 	0.6335	0.1786	0.71154	0.108
Mof_C 	C 	0.5409	0.1803	0.6883	-0.166
Mof_C 	C 	0.4531	0.2377	0.6879	0.117
Mof_C 	C 	0.4715	0.2897	0.7115	-0.166
Mof_C 	C 	0.5733	0.2843	0.7343	0.095
Mof_C 	C 	0.5446	0.3419	0.5647	0.088
Mof_C 	C 	0.5179	0.2882	0.5879	-0.163
Mof_C 	C 	0.399	0.2848	0.6022	0.123
Mof_C 	C 	0.3161	0.3376	0.5935	-0.185
Mof_C 	C 	0.3489	0.3882	0.5709	0.134
Mof_C 	C 	0.2262	0.1985	0.62591	-0.073
Mof_C 	C 	0.2448	0.1824	0.66394	-0.074
Mof_C 	C 	0.348	0.242	0.6636	-0.069
Mof_C 	C 	0.3655	0.2261	0.62536	-0.068
Mof_C 	C 	0.0374	0.9554	0.9512	0.086
Mof_C 	C 	0.0654	0.9019	0.9282	-0.163
Mof_C 	C 	0.0935	0.8348	0.9396	0.129
Mof_C 	C 	0.0916	0.8243	0.9741	-0.183
Mof_C 	C 	0.0671	0.8779	0.99589	0.123
Mof_C 	C 	0.835	0.7941	0.8316	0.124
Mof_C 	C 	0.9255	0.808	0.8536	-0.17
Mof_C 	C 	0.0381	0.7658	0.85423	0.128
Mof_C 	C 	0.0392	0.7101	0.8329	-0.165
Mof_C 	C 	0.9383	0.6984	0.811	0.106
Mof_C 	C 	0.4498	0.7711	0.8043	0.104
Mof_C 	C 	0.355	0.7748	0.8265	-0.168
Mof_C 	C 	0.3592	0.7343	0.85602	0.116
Mof_C 	C 	0.467	0.6942	0.8617	-0.142
Mof_C 	C 	0.5657	0.6964	0.8379	0.097
Mof_C 	C 	0.4822	0.6612	0.9787	0.117
Mof_C 	C 	0.4361	0.7113	0.9569	-0.178
Mof_C 	C 	0.3204	0.702	0.94238	0.127
Mof_C 	C 	0.2519	0.6432	0.9521	-0.174
Mof_C 	C 	0.3058	0.5953	0.9751	0.117
Mof_C 	C 	0.1288	0.7754	0.91647	-0.072
Mof_C 	C 	0.1423	0.7826	0.8782	-0.067
Mof_C 	C 	0.2526	0.7294	0.88012	-0.068
Mof_C 	C 	0.2712	0.7526	0.91715	-0.071
Mof_C 	C 	0.821	0.91	0.0472	0.125
Mof_C 	C 	0.7686	0.8625	0.0697	-0.182
Mof_C 	C 	0.8155	0.8572	0.10153	0.148
Mof_C 	C 	0.9086	0.9046	0.1101	-0.187
Mof_C 	C 	0.9544	0.9494	0.0863	0.133
Mof_C 	C 	0.059	0.7585	0.2056	0.1
Mof_C 	C 	0.9592	0.7651	0.18228	-0.171
Mof_C 	C 	0.8643	0.811	0.18759	0.129
Mof_C 	C 	0.869	0.8508	0.21719	-0.177
Mof_C 	C 	0.9634	0.8405	0.2394	0.11
Mof_C 	C 	0.3665	0.8214	0.21154	0.108
Mof_C 	C 	0.4591	0.8197	0.1883	-0.166
Mof_C 	C 	0.5469	0.7623	0.1879	0.118
Mof_C 	C 	0.5285	0.7103	0.2115	-0.166
Mof_C 	C 	0.4267	0.7157	0.2343	0.095
Mof_C 	C 	0.4554	0.6581	0.0647	0.088
Mof_C 	C 	0.4821	0.7118	0.0879	-0.163
Mof_C 	C 	0.601	0.7152	0.1022	0.122
Mof_C 	C 	0.6839	0.6624	0.0935	-0.185
Mof_C 	C 	0.6511	0.6118	0.0709	0.133
Mof_C 	C 	0.7738	0.8015	0.12591	-0.074
Mof_C 	C 	0.7552	0.8176	0.16394	-0.073
Mof_C 	C 	0.652	0.758	0.1636	-0.069
Mof_C 	C 	0.6345	0.7739	0.12536	-0.067
Mof_N 	N 	0.5383	0.5572	0.48522	-0.273
Mof_N 	N 	0.9182	0.896	0.48807	-0.282
Mof_N 	N 	0.0554	0.7679	0.30888	-0.261
Mof_N 	N 	0.3378	0.7593	0.30987	-0.266
Mof_N 	N 	0.4133	0.5469	0.5555	-0.287
Mof_N 	N 	0.5603	0.7045	0.73402	-0.263
Mof_N 	N 	0.8469	0.7303	0.73412	-0.262
Mof_N 	N 	0.042	0.8915	0.55669	-0.28
Mof_N 	N 	0.4617	0.4428	0.98522	-0.275
Mof_N 	N 	0.0818	0.104	0.98807	-0.28
Mof_N 	N 	0.9446	0.2321	0.80888	-0.261
Mof_N 	N 	0.6622	0.2407	0.80987	-0.266
Mof_N 	N 	0.5867	0.4531	0.0555	-0.287
Mof_N 	N 	0.4397	0.2955	0.23402	-0.263
Mof_N 	N 	0.1531	0.2697	0.23412	-0.262
Mof_N 	N 	0.958	0.1085	0.05669	-0.281
Mof_N 	N 	0.9617	0.0572	0.48522	-0.272
Mof_N 	N 	0.5818	0.396	0.48807	-0.28
Mof_N 	N 	0.4446	0.2679	0.30888	-0.261
Mof_N 	N 	0.1622	0.2593	0.30987	-0.266
Mof_N 	N 	0.0867	0.0469	0.5555	-0.285
Mof_N 	N 	0.9397	0.2045	0.73402	-0.264
Mof_N 	N 	0.6531	0.2303	0.73412	-0.262
Mof_N 	N 	0.458	0.3915	0.55669	-0.277
Mof_N 	N 	0.0383	0.9428	0.98522	-0.273
Mof_N 	N 	0.4182	0.604	0.98807	-0.279
Mof_N 	N 	0.5554	0.7321	0.80888	-0.261
Mof_N 	N 	0.8378	0.7407	0.80987	-0.266
Mof_N 	N 	0.9133	0.9531	0.0555	-0.286
Mof_N 	N 	0.0603	0.7955	0.23402	-0.264
Mof_N 	N 	0.3469	0.7697	0.23412	-0.262
Mof_N 	N 	0.542	0.6085	0.05669	-0.278
Mof_O 	O 	0.7213	0.6131	0.7765	-0.291
Mof_O 	O 	0.2787	0.3869	0.2765	-0.291
Mof_O 	O 	0.7787	0.1131	0.7765	-0.292
Mof_O 	O 	0.2213	0.8869	0.2765	-0.292
Mof_Cl	Cl	0.5642	0.7915	0.56001	-0.215
Mof_O 	O 	0.636	0.7293	0.5607	-0.042
Mof_O 	O 	0.5388	0.8048	0.5945	-0.033
Mof_O 	O 	0.622	0.853	0.5484	-0.041
Mof_O 	O 	0.4404	0.7709	0.546	-0.044
Mof_Cl	Cl	0.1892	0.3752	0.41769	-0.222
Mof_O 	O 	0.273	0.314	0.4107	-0.041
Mof_O 	O 	0.1031	0.3684	0.4428	-0.03
Mof_O 	O 	0.295	0.4148	0.4286	-0.042
Mof_O 	O 	0.143	0.4045	0.3883	-0.016
Mof_Cl	Cl	0.3543	0.5104	0.8389	-0.222
Mof_O 	O 	0.319	0.4406	0.8313	-0.031
Mof_O 	O 	0.364	0.5499	0.8099	-0.018
Mof_O 	O 	0.462	0.5107	0.8595	-0.028
Mof_O 	O 	0.252	0.5367	0.8603	-0.034
Mof_Cl	Cl	0.3372	0.9571	0.6792	-0.227
Mof_O 	O 	0.425	0.0016	0.694	-0.025
Mof_O 	O 	0.316	0.9945	0.6454	-0.046
Mof_O 	O 	0.383	0.8944	0.6676	-0.027
Mof_O 	O 	0.2242	0.959	0.6945	-0.024
Mof_Cl	Cl	0.4358	0.2085	0.06001	-0.215
Mof_O 	O 	0.364	0.2707	0.0607	-0.043
Mof_O 	O 	0.4612	0.1952	0.0945	-0.034
Mof_O 	O 	0.378	0.147	0.0484	-0.043
Mof_O 	O 	0.5596	0.2291	0.046	-0.046
Mof_Cl	Cl	0.8108	0.6248	0.91769	-0.222
Mof_O 	O 	0.727	0.686	0.9107	-0.041
Mof_O 	O 	0.8969	0.6316	0.9428	-0.028
Mof_O 	O 	0.705	0.5852	0.9286	-0.041
Mof_O 	O 	0.857	0.5955	0.8883	-0.015
Mof_Cl	Cl	0.6457	0.4896	0.3389	-0.222
Mof_O 	O 	0.681	0.5594	0.3313	-0.031
Mof_O 	O 	0.636	0.4501	0.3099	-0.018
Mof_O 	O 	0.538	0.4893	0.3595	-0.028
Mof_O 	O 	0.748	0.4633	0.3603	-0.034
Mof_Cl	Cl	0.6628	0.0429	0.1792	-0.227
Mof_O 	O 	0.575	0.9984	0.194	-0.025
Mof_O 	O 	0.684	0.0055	0.1454	-0.046
Mof_O 	O 	0.617	0.1056	0.1676	-0.027
Mof_O 	O 	0.7758	0.041	0.1945	-0.024
Mof_Cl	Cl	0.9358	0.2915	0.56001	-0.212
Mof_O 	O 	0.864	0.2293	0.5607	-0.042
Mof_O 	O 	0.9612	0.3048	0.5945	-0.032
Mof_O 	O 	0.878	0.353	0.5484	-0.04
Mof_O 	O 	0.0596	0.2709	0.546	-0.047
Mof_Cl	Cl	0.3108	0.8752	0.41769	-0.221
Mof_O 	O 	0.227	0.814	0.4107	-0.042
Mof_O 	O 	0.3969	0.8684	0.4428	-0.028
Mof_O 	O 	0.205	0.9148	0.4286	-0.043
Mof_O 	O 	0.357	0.9045	0.3883	-0.015
Mof_Cl	Cl	0.1457	0.0104	0.8389	-0.221
Mof_O 	O 	0.181	0.9406	0.8313	-0.032
Mof_O 	O 	0.136	0.0499	0.8099	-0.018
Mof_O 	O 	0.038	0.0107	0.8595	-0.027
Mof_O 	O 	0.248	0.0367	0.8603	-0.034
Mof_Cl	Cl	0.1628	0.4571	0.6792	-0.226
Mof_O 	O 	0.075	0.5016	0.694	-0.026
Mof_O 	O 	0.184	0.4945	0.6454	-0.046
Mof_O 	O 	0.117	0.3944	0.6676	-0.027
Mof_O 	O 	0.2758	0.459	0.6945	-0.023
Mof_Cl	Cl	0.0642	0.7085	0.06001	-0.212
Mof_O 	O 	0.136	0.7707	0.0607	-0.043
Mof_O 	O 	0.0388	0.6952	0.0945	-0.033
Mof_O 	O 	0.122	0.647	0.0484	-0.042
Mof_O 	O 	0.9404	0.7291	0.046	-0.048
Mof_Cl	Cl	0.6892	0.1248	0.91769	-0.222
Mof_O 	O 	0.773	0.186	0.9107	-0.042
Mof_O 	O 	0.6031	0.1316	0.9428	-0.027
Mof_O 	O 	0.795	0.0852	0.9286	-0.042
Mof_O 	O 	0.643	0.0955	0.8883	-0.015
Mof_Cl	Cl	0.8543	0.9896	0.3389	-0.221
Mof_O 	O 	0.819	0.0594	0.3313	-0.032
Mof_O 	O 	0.864	0.9501	0.3099	-0.018
Mof_O 	O 	0.962	0.9893	0.3595	-0.027
Mof_O 	O 	0.752	0.9633	0.3603	-0.034
Mof_Cl	Cl	0.8372	0.5429	0.1792	-0.226
Mof_O 	O 	0.925	0.4984	0.194	-0.026
Mof_O 	O 	0.816	0.5055	0.1454	-0.046
Mof_O 	O 	0.883	0.6056	0.1676	-0.027
Mof_O 	O 	0.7242	0.541	0.1945	-0.023
_end
