data_functionalizedCrystal
_audit_creation_method	'EQeq! by Chris Wilmer'
_symmetry_space_group_name_H-M	'P1'
_symmetry_Int_Tables_number	1
_symmetry_cell_setting	triclinic
loop_
_symmetry_equiv_pos_as_xyz
  x,y,z
_cell_length_a	36.1327
_cell_length_b	36.1328
_cell_length_c	36.1328
_cell_angle_alpha	60.1428
_cell_angle_beta	89.7525
_cell_angle_gamma	119.857
loop_
_atom_site_label
_atom_site_type_symbol
_atom_site_fract_x
_atom_site_fract_y
_atom_site_fract_z
_atom_site_charge
Mof_Zn	Zn	0.22556	0.3352	0.1011	1.197
Mof_Zn	Zn	0.22086	0.32675	0.94291	1.179
Mof_Zn	Zn	0.0637	0.1648	0.10964	1.197
Mof_Zn	Zn	0.23034	0.17325	0.10589	1.179
Mof_Zn	Zn	0.39036	0.82666	0.27444	1.197
Mof_Zn	Zn	0.39411	0.66377	0.27914	1.179
Mof_Zn	Zn	0.3989	0.67334	0.4363	1.198
Mof_Zn	Zn	0.55709	0.83623	0.26966	1.18
Mof_Zn	Zn	0.18521	0.25	0.06479	1.137
Mof_Zn	Zn	0.43521	0.75	0.31479	1.137
Mof_H 	H 	0.2762	0.4588	0.8918	0.049
Mof_H 	H 	0.3081	0.5379	0.8826	0.027
Mof_H 	H 	0.3083	0.5406	0.9453	0.021
Mof_H 	H 	0.2764	0.4641	0.0173	0.068
Mof_H 	H 	0.1366	0.3035	0.8987	0.069
Mof_H 	H 	0.0645	0.2673	0.8932	0.019
Mof_H 	H 	0.0012	0.2029	0.9585	0.033
Mof_H 	H 	0.0099	0.1748	0.0291	0.05
Mof_H 	H 	0.2858	0.5191	0.2805	0.057
Mof_H 	H 	0.2612	0.4694	0.2528	-0.022
Mof_H 	H 	0.3762	0.5757	0.1493	-0.02
Mof_H 	H 	0.4008	0.6254	0.177	0.077
Mof_H 	H 	0.348	0.5434	0.1196	0.235
Mof_H 	H 	0.3244	0.4944	0.0912	-0.185
Mof_H 	H 	0.2267	0.3721	0.2086	-0.172
Mof_H 	H 	0.2502	0.4211	0.2371	0.237
Mof_H 	H 	0.2871	0.3117	0.8966	0.067
Mof_H 	H 	0.3289	0.2852	0.8825	0.031
Mof_H 	H 	0.0177	0.1879	0.1688	0.072
Mof_H 	H 	0.0062	0.2133	0.2125	0.03
Mof_H 	H 	0.1494	0.0412	0.1826	0.049
Mof_H 	H 	0.0795	0.9621	0.2298	0.027
Mof_H 	H 	0.0141	0.9594	0.2323	0.021
Mof_H 	H 	0.0186	0.0359	0.1877	0.069
Mof_H 	H 	0.2978	0.1965	0.1669	0.069
Mof_H 	H 	0.3395	0.2327	0.2028	0.019
Mof_H 	H 	0.3386	0.2971	0.2017	0.033
Mof_H 	H 	0.2961	0.3252	0.1649	0.05
Mof_H 	H 	0.7004	0.9809	0.2333	0.058
Mof_H 	H 	0.7778	0.0306	0.2082	-0.023
Mof_H 	H 	0.775	0.9243	0.1995	-0.02
Mof_H 	H 	0.6976	0.8746	0.2246	0.077
Mof_H 	H 	0.837	0.9566	0.1954	0.236
Mof_H 	H 	0.9144	0.0056	0.17	-0.186
Mof_H 	H 	0.9193	0.1279	0.1454	-0.173
Mof_H 	H 	0.8418	0.0789	0.1709	0.238
Mof_H 	H 	0.2917	0.1883	0.0246	0.067
Mof_H 	H 	0.3323	0.2148	0.9563	0.032
Mof_H 	H 	0.1433	0.3121	0.1702	0.073
Mof_H 	H 	0.0742	0.2867	0.2071	0.031
Mof_H 	H 	0.3174	0.668	0.2238	0.049
Mof_H 	H 	0.2702	0.6907	0.1919	0.027
Mof_H 	H 	0.2677	0.7536	0.1917	0.021
Mof_H 	H 	0.3123	0.7937	0.2236	0.069
Mof_H 	H 	0.3331	0.5353	0.3634	0.069
Mof_H 	H 	0.2972	0.4577	0.4355	0.019
Mof_H 	H 	0.2983	0.4597	0.4988	0.033
Mof_H 	H 	0.3351	0.539	0.4901	0.05
Mof_H 	H 	0.2667	0.0663	0.2142	0.058
Mof_H 	H 	0.2918	0.014	0.2388	-0.023
Mof_H 	H 	0.3005	0.0255	0.1238	-0.02
Mof_H 	H 	0.2754	0.0778	0.0992	0.077
Mof_H 	H 	0.3046	0.9676	0.152	0.235
Mof_H 	H 	0.33	0.9156	0.1756	-0.186
Mof_H 	H 	0.3546	0.9353	0.2733	-0.173
Mof_H 	H 	0.3291	0.9873	0.2498	0.237
Mof_H 	H 	0.4754	0.6837	0.2129	0.067
Mof_H 	H 	0.5437	0.7114	0.1711	0.031
Mof_H 	H 	0.3298	0.6865	0.4823	0.073
Mof_H 	H 	0.2929	0.7187	0.4938	0.031
Mof_H 	H 	0.6082	0.832	0.3506	0.049
Mof_H 	H 	0.6174	0.8093	0.4205	0.027
Mof_H 	H 	0.5547	0.7464	0.4859	0.021
Mof_H 	H 	0.4827	0.7063	0.4814	0.069
Mof_H 	H 	0.6013	0.9647	0.2022	0.069
Mof_H 	H 	0.6068	0.0423	0.1605	0.019
Mof_H 	H 	0.5415	0.0403	0.1614	0.033
Mof_H 	H 	0.4709	0.961	0.2039	0.05
Mof_H 	H 	0.2195	0.4337	0.7996	0.057
Mof_H 	H 	0.2472	0.486	0.7222	-0.022
Mof_H 	H 	0.3507	0.4745	0.725	-0.02
Mof_H 	H 	0.323	0.4222	0.8024	0.077
Mof_H 	H 	0.3804	0.5324	0.663	0.235
Mof_H 	H 	0.4088	0.5844	0.5856	-0.185
Mof_H 	H 	0.2914	0.5647	0.5807	-0.173
Mof_H 	H 	0.2629	0.5127	0.6582	0.237
Mof_H 	H 	0.6034	0.8163	0.2083	0.067
Mof_H 	H 	0.6175	0.7886	0.1677	0.031
Mof_H 	H 	0.3312	0.8135	0.3567	0.073
Mof_H 	H 	0.2875	0.7813	0.4258	0.031
Mof_C 	C 	0.25736	0.41574	0.9976	0.069
Mof_C 	C 	0.25729	0.41417	0.96004	0.057
Mof_C 	C 	0.2763	0.45989	0.91693	-0.109
Mof_C 	C 	0.29536	0.50723	0.91143	-0.039
Mof_C 	C 	0.29543	0.50879	0.94904	-0.016
Mof_C 	C 	0.27642	0.46305	0.99215	-0.127
Mof_C 	C 	0.11647	0.2609	0.96723	0.072
Mof_C 	C 	0.11122	0.2778	0.92478	-0.136
Mof_C 	C 	0.068	0.256	0.9216	-0.006
Mof_C 	C 	0.0301	0.2175	0.9606	-0.04
Mof_C 	C 	0.03524	0.2006	0.00296	-0.096
Mof_C 	C 	0.07842	0.2223	0.00628	0.039
Mof_C 	C 	0.3456	0.5768	0.2314	-0.022
Mof_C 	C 	0.30417	0.5306	0.25383	-0.112
Mof_C 	C 	0.28962	0.5012	0.23738	0.094
Mof_C 	C 	0.3164	0.5179	0.1985	-0.233
Mof_C 	C 	0.35782	0.5642	0.17598	0.099
Mof_C 	C 	0.37237	0.5936	0.19243	-0.112
Mof_C 	C 	0.30125	0.4867	0.18105	0.47
Mof_C 	C 	0.3233	0.5085	0.1378	-0.601
Mof_C 	C 	0.30936	0.4795	0.12094	0.585
Mof_C 	C 	0.27337	0.4287	0.14733	-0.73
Mof_C 	C 	0.2513	0.4069	0.1906	0.597
Mof_C 	C 	0.26526	0.4359	0.20744	-0.605
Mof_C 	C 	0.36144	0.6081	0.24866	0.301
Mof_C 	C 	0.2592	0.3989	0.1293	0.912
Mof_C 	C 	0.26594	0.26854	0.964	0.07
Mof_C 	C 	0.2889	0.2868	0.9213	-0.121
Mof_C 	C 	0.3143	0.2719	0.9118	-0.022
Mof_C 	C 	0.08513	0.23065	0.14582	0.077
Mof_C 	C 	0.04308	0.21279	0.16991	-0.123
Mof_C 	C 	0.03526	0.2286	0.19534	-0.015
Mof_C 	C 	0.08666	0.08426	0.15838	0.069
Mof_C 	C 	0.12579	0.08583	0.15688	0.057
Mof_C 	C 	0.12318	0.04011	0.18359	-0.109
Mof_C 	C 	0.08134	0.99277	0.21187	-0.038
Mof_C 	C 	0.04217	0.99121	0.21336	-0.015
Mof_C 	C 	0.0448	0.03695	0.18663	-0.128
Mof_C 	C 	0.27187	0.2391	0.14443	0.072
Mof_C 	C 	0.29742	0.2222	0.16658	-0.136
Mof_C 	C 	0.3224	0.244	0.188	-0.006
Mof_C 	C 	0.3219	0.2825	0.1874	-0.04
Mof_C 	C 	0.29644	0.2994	0.16536	-0.095
Mof_C 	C 	0.27142	0.2777	0.14388	0.039
Mof_C 	C 	0.6918	0.9232	0.2312	-0.021
Mof_C 	C 	0.71557	0.9694	0.22643	-0.113
Mof_C 	C 	0.76142	0.9988	0.21158	0.095
Mof_C 	C 	0.7836	0.9821	0.2015	-0.235
Mof_C 	C 	0.75982	0.9358	0.20638	0.101
Mof_C 	C 	0.71397	0.9064	0.22123	-0.114
Mof_C 	C 	0.83225	0.0133	0.18545	0.473
Mof_C 	C 	0.8537	0.9915	0.1852	-0.604
Mof_C 	C 	0.89956	0.0205	0.17014	0.588
Mof_C 	C 	0.92397	0.0713	0.15533	-0.732
Mof_C 	C 	0.9025	0.0931	0.1556	0.599
Mof_C 	C 	0.85666	0.0641	0.17064	-0.608
Mof_C 	C 	0.64324	0.8919	0.24666	0.3
Mof_C 	C 	0.9718	0.1011	0.1397	0.913
Mof_C 	C 	0.26746	0.23146	0.0026	0.069
Mof_C 	C 	0.2919	0.2132	0.9979	-0.12
Mof_C 	C 	0.3163	0.2281	0.9576	-0.023
Mof_C 	C 	0.12353	0.26935	0.14552	0.077
Mof_C 	C 	0.1173	0.28721	0.16971	-0.123
Mof_C 	C 	0.07606	0.2714	0.19334	-0.015
Mof_C 	C 	0.34162	0.75496	0.24264	0.069
Mof_C 	C 	0.34312	0.71733	0.24271	0.057
Mof_C 	C 	0.31641	0.69323	0.2237	-0.109
Mof_C 	C 	0.28813	0.70679	0.20464	-0.039
Mof_C 	C 	0.28664	0.74447	0.20457	-0.016
Mof_C 	C 	0.31337	0.76857	0.22358	-0.127
Mof_C 	C 	0.35557	0.5837	0.38353	0.072
Mof_C 	C 	0.33342	0.536	0.38878	-0.136
Mof_C 	C 	0.312	0.4896	0.432	-0.006
Mof_C 	C 	0.3126	0.4907	0.4699	-0.04
Mof_C 	C 	0.33464	0.5382	0.46476	-0.095
Mof_C 	C 	0.35612	0.5847	0.42158	0.039
Mof_C 	C 	0.2688	0.077	0.1544	-0.022
Mof_C 	C 	0.27357	0.058	0.19583	-0.113
Mof_C 	C 	0.28842	0.027	0.21038	0.095
Mof_C 	C 	0.2985	0.0149	0.1836	-0.234
Mof_C 	C 	0.29362	0.0338	0.14218	0.101
Mof_C 	C 	0.27877	0.0648	0.12763	-0.114
Mof_C 	C 	0.31455	0.9823	0.19875	0.471
Mof_C 	C 	0.3148	0.9611	0.1767	-0.602
Mof_C 	C 	0.32986	0.9303	0.19064	0.586
Mof_C 	C 	0.34467	0.9207	0.22663	-0.731
Mof_C 	C 	0.3444	0.9419	0.2487	0.598
Mof_C 	C 	0.32936	0.9727	0.23474	-0.607
Mof_C 	C 	0.25334	0.1101	0.13856	0.3
Mof_C 	C 	0.3603	0.8885	0.2408	0.913
Mof_C 	C 	0.4974	0.72994	0.23406	0.069
Mof_C 	C 	0.5021	0.7102	0.2111	-0.121
Mof_C 	C 	0.5424	0.7261	0.1857	-0.022
Mof_C 	C 	0.35448	0.73095	0.41487	0.077
Mof_C 	C 	0.33029	0.71299	0.45692	-0.123
Mof_C 	C 	0.30666	0.7306	0.46474	-0.015
Mof_C 	C 	0.5024	0.74504	0.41334	0.069
Mof_C 	C 	0.53996	0.78267	0.37421	0.057
Mof_C 	C 	0.58307	0.80677	0.37682	-0.109
Mof_C 	C 	0.58857	0.79321	0.41866	-0.039
Mof_C 	C 	0.55096	0.75553	0.45783	-0.016
Mof_C 	C 	0.50785	0.73143	0.4552	-0.127
Mof_C 	C 	0.53277	0.9163	0.22813	0.072
Mof_C 	C 	0.57522	0.964	0.20258	-0.136
Mof_C 	C 	0.5784	0.0104	0.1776	-0.006
Mof_C 	C 	0.5394	0.0093	0.1781	-0.04
Mof_C 	C 	0.49704	0.9618	0.20356	-0.095
Mof_C 	C 	0.49372	0.9153	0.22858	0.039
Mof_C 	C 	0.2686	0.423	0.8082	-0.022
Mof_C 	C 	0.24617	0.442	0.78443	-0.112
Mof_C 	C 	0.26262	0.473	0.73858	0.094
Mof_C 	C 	0.3015	0.4851	0.7164	-0.233
Mof_C 	C 	0.32402	0.4662	0.74018	0.099
Mof_C 	C 	0.30757	0.4352	0.78603	-0.112
Mof_C 	C 	0.31895	0.5177	0.66775	0.47
Mof_C 	C 	0.3622	0.5389	0.6463	-0.601
Mof_C 	C 	0.37906	0.5697	0.60044	0.585
Mof_C 	C 	0.35267	0.5793	0.57603	-0.73
Mof_C 	C 	0.3094	0.5581	0.5975	0.597
Mof_C 	C 	0.29256	0.5273	0.64334	-0.605
Mof_C 	C 	0.25134	0.3899	0.85676	0.301
Mof_C 	C 	0.3707	0.6115	0.5282	0.912
Mof_C 	C 	0.536	0.77006	0.23254	0.069
Mof_C 	C 	0.5787	0.7898	0.2081	-0.121
Mof_C 	C 	0.5882	0.7739	0.1837	-0.022
Mof_C 	C 	0.35418	0.76905	0.37647	0.077
Mof_C 	C 	0.33009	0.78701	0.3827	-0.123
Mof_C 	C 	0.30466	0.7694	0.42394	-0.015
Mof_N 	N 	0.23741	0.36621	0.03418	-0.242
Mof_N 	N 	0.2248	0.33562	0.0201	-0.205
Mof_N 	N 	0.23663	0.36346	0.97429	-0.243
Mof_N 	N 	0.15333	0.2747	0.97997	-0.245
Mof_N 	N 	0.13919	0.24604	0.02421	-0.195
Mof_N 	N 	0.09555	0.2135	0.04195	-0.242
Mof_N 	N 	0.24141	0.2797	0.97669	-0.251
Mof_N 	N 	0.0988	0.22128	0.12176	-0.237
Mof_N 	N 	0.09961	0.13379	0.1288	-0.242
Mof_N 	N 	0.14428	0.16438	0.11082	-0.205
Mof_N 	N 	0.16225	0.13654	0.12683	-0.243
Mof_N 	N 	0.24533	0.2253	0.12137	-0.245
Mof_N 	N 	0.22975	0.25396	0.10685	-0.195
Mof_N 	N 	0.24455	0.2865	0.11795	-0.241
Mof_N 	N 	0.24361	0.2203	0.03829	-0.251
Mof_N 	N 	0.15696	0.27872	0.12248	-0.237
Mof_N 	N 	0.3712	0.77159	0.26259	-0.242
Mof_N 	N 	0.38918	0.7449	0.2752	-0.205
Mof_N 	N 	0.37317	0.71092	0.26337	-0.243
Mof_N 	N 	0.37863	0.6333	0.34667	-0.245
Mof_N 	N 	0.39315	0.6634	0.36081	-0.195
Mof_N 	N 	0.38205	0.6375	0.40445	-0.241
Mof_N 	N 	0.46171	0.7181	0.25859	-0.251
Mof_N 	N 	0.37752	0.72056	0.4012	-0.237
Mof_N 	N 	0.46582	0.72841	0.40039	-0.242
Mof_N 	N 	0.4799	0.7551	0.35572	-0.205
Mof_N 	N 	0.52571	0.78908	0.33775	-0.243
Mof_N 	N 	0.52003	0.8667	0.25467	-0.245
Mof_N 	N 	0.47579	0.8366	0.27025	-0.195
Mof_N 	N 	0.45805	0.8625	0.25545	-0.241
Mof_N 	N 	0.52331	0.7819	0.25639	-0.251
Mof_N 	N 	0.37824	0.77944	0.34304	-0.237
Mof_N 	N 	0.22847	0.25	0.02153	-0.202
Mof_N 	N 	0.1425	0.25	0.1075	-0.199
Mof_N 	N 	0.47847	0.75	0.27153	-0.202
Mof_N 	N 	0.3925	0.75	0.3575	-0.199
Mof_O 	O 	0.34035	0.5922	0.28645	-0.423
Mof_O 	O 	0.2466	0.3916	0.1094	-0.848
Mof_O 	O 	0.2302	0.3367	0.1669	-0.341
Mof_O 	O 	0.3975	0.6529	0.226	-0.42
Mof_O 	O 	0.62135	0.9078	0.25185	-0.423
Mof_O 	O 	0.999	0.1084	0.145	-0.849
Mof_O 	O 	0.9964	0.1633	0.1065	-0.34
Mof_O 	O 	0.6211	0.8471	0.2554	-0.42
Mof_O 	O 	0.24815	0.1268	0.15965	-0.423
Mof_O 	O 	0.355	0.856	0.2534	-0.849
Mof_O 	O 	0.3935	0.8971	0.2698	-0.341
Mof_O 	O 	0.2446	0.1235	0.1025	-0.42
Mof_O 	O 	0.21355	0.3732	0.87865	-0.423
Mof_O 	O 	0.3906	0.644	0.501	-0.848
Mof_O 	O 	0.3331	0.6029	0.5036	-0.341
Mof_O 	O 	0.274	0.3765	0.8789	-0.42
Mof_Zn	Zn	0.77444	0.6648	0.8989	1.198
Mof_Zn	Zn	0.77914	0.67325	0.05709	1.18
Mof_Zn	Zn	0.9363	0.8352	0.89036	1.198
Mof_Zn	Zn	0.76966	0.82675	0.89411	1.18
Mof_Zn	Zn	0.60964	0.17334	0.72556	1.198
Mof_Zn	Zn	0.60589	0.33623	0.72086	1.18
Mof_Zn	Zn	0.6011	0.32666	0.5637	1.198
Mof_Zn	Zn	0.44291	0.16377	0.73034	1.18
Mof_Zn	Zn	0.81479	0.75	0.93521	1.137
Mof_Zn	Zn	0.56479	0.25	0.68521	1.137
Mof_H 	H 	0.7238	0.5412	0.1082	0.049
Mof_H 	H 	0.6919	0.4621	0.1174	0.027
Mof_H 	H 	0.6917	0.4594	0.0547	0.021
Mof_H 	H 	0.7236	0.5359	0.9827	0.068
Mof_H 	H 	0.8634	0.6965	0.1013	0.069
Mof_H 	H 	0.9355	0.7327	0.1068	0.019
Mof_H 	H 	0.9988	0.7971	0.0415	0.033
Mof_H 	H 	0.9901	0.8252	0.9709	0.05
Mof_H 	H 	0.7142	0.4809	0.7195	0.057
Mof_H 	H 	0.7388	0.5306	0.7472	-0.022
Mof_H 	H 	0.6238	0.4243	0.8507	-0.02
Mof_H 	H 	0.5992	0.3746	0.823	0.077
Mof_H 	H 	0.652	0.4566	0.8804	0.235
Mof_H 	H 	0.6756	0.5056	0.9088	-0.185
Mof_H 	H 	0.7733	0.6279	0.7914	-0.172
Mof_H 	H 	0.7498	0.5789	0.7629	0.237
Mof_H 	H 	0.7129	0.6883	0.1034	0.067
Mof_H 	H 	0.6711	0.7148	0.1175	0.031
Mof_H 	H 	0.9823	0.8121	0.8312	0.072
Mof_H 	H 	0.9938	0.7867	0.7875	0.03
Mof_H 	H 	0.8506	0.9588	0.8174	0.049
Mof_H 	H 	0.9205	0.0379	0.7702	0.027
Mof_H 	H 	0.9859	0.0406	0.7677	0.021
Mof_H 	H 	0.9814	0.9641	0.8123	0.069
Mof_H 	H 	0.7022	0.8035	0.8331	0.069
Mof_H 	H 	0.6605	0.7673	0.7972	0.019
Mof_H 	H 	0.6614	0.7029	0.7983	0.033
Mof_H 	H 	0.7039	0.6748	0.8351	0.05
Mof_H 	H 	0.2996	0.0191	0.7667	0.058
Mof_H 	H 	0.2222	0.9694	0.7918	-0.023
Mof_H 	H 	0.225	0.0757	0.8005	-0.02
Mof_H 	H 	0.3024	0.1254	0.7754	0.077
Mof_H 	H 	0.163	0.0434	0.8046	0.236
Mof_H 	H 	0.0856	0.9944	0.83	-0.186
Mof_H 	H 	0.0807	0.8721	0.8546	-0.173
Mof_H 	H 	0.1582	0.9211	0.8291	0.238
Mof_H 	H 	0.7083	0.8117	0.9754	0.067
Mof_H 	H 	0.6677	0.7852	0.0437	0.032
Mof_H 	H 	0.8567	0.6879	0.8298	0.073
Mof_H 	H 	0.9258	0.7133	0.7929	0.031
Mof_H 	H 	0.6826	0.332	0.7762	0.049
Mof_H 	H 	0.7298	0.3093	0.8081	0.027
Mof_H 	H 	0.7323	0.2464	0.8083	0.021
Mof_H 	H 	0.6877	0.2063	0.7764	0.069
Mof_H 	H 	0.6669	0.4647	0.6366	0.069
Mof_H 	H 	0.7028	0.5423	0.5645	0.019
Mof_H 	H 	0.7017	0.5403	0.5012	0.033
Mof_H 	H 	0.6649	0.461	0.5099	0.05
Mof_H 	H 	0.7333	0.9337	0.7858	0.058
Mof_H 	H 	0.7082	0.986	0.7612	-0.023
Mof_H 	H 	0.6995	0.9745	0.8762	-0.02
Mof_H 	H 	0.7246	0.9222	0.9008	0.077
Mof_H 	H 	0.6954	0.0324	0.848	0.235
Mof_H 	H 	0.67	0.0844	0.8244	-0.186
Mof_H 	H 	0.6454	0.0647	0.7267	-0.173
Mof_H 	H 	0.6709	0.0127	0.7502	0.237
Mof_H 	H 	0.5246	0.3163	0.7871	0.067
Mof_H 	H 	0.4563	0.2886	0.8289	0.031
Mof_H 	H 	0.6702	0.3135	0.5177	0.073
Mof_H 	H 	0.7071	0.2813	0.5062	0.031
Mof_H 	H 	0.3918	0.168	0.6494	0.049
Mof_H 	H 	0.3826	0.1907	0.5795	0.027
Mof_H 	H 	0.4453	0.2536	0.5141	0.021
Mof_H 	H 	0.5173	0.2937	0.5186	0.069
Mof_H 	H 	0.3987	0.0353	0.7978	0.069
Mof_H 	H 	0.3932	0.9577	0.8395	0.019
Mof_H 	H 	0.4585	0.9597	0.8386	0.033
Mof_H 	H 	0.5291	0.039	0.7961	0.05
Mof_H 	H 	0.7805	0.5663	0.2004	0.057
Mof_H 	H 	0.7528	0.514	0.2778	-0.022
Mof_H 	H 	0.6493	0.5255	0.275	-0.02
Mof_H 	H 	0.677	0.5778	0.1976	0.077
Mof_H 	H 	0.6196	0.4676	0.337	0.235
Mof_H 	H 	0.5912	0.4156	0.4144	-0.185
Mof_H 	H 	0.7086	0.4353	0.4193	-0.173
Mof_H 	H 	0.7371	0.4873	0.3418	0.237
Mof_H 	H 	0.3966	0.1837	0.7917	0.067
Mof_H 	H 	0.3825	0.2114	0.8323	0.031
Mof_H 	H 	0.6688	0.1865	0.6433	0.073
Mof_H 	H 	0.7125	0.2187	0.5742	0.031
Mof_C 	C 	0.74264	0.58426	0.0024	0.069
Mof_C 	C 	0.74271	0.58583	0.03996	0.057
Mof_C 	C 	0.7237	0.54011	0.08307	-0.109
Mof_C 	C 	0.70464	0.49277	0.08857	-0.039
Mof_C 	C 	0.70457	0.49121	0.05096	-0.016
Mof_C 	C 	0.72358	0.53695	0.00785	-0.127
Mof_C 	C 	0.88353	0.7391	0.03277	0.072
Mof_C 	C 	0.88878	0.7222	0.07522	-0.136
Mof_C 	C 	0.932	0.744	0.0784	-0.006
Mof_C 	C 	0.9699	0.7825	0.0394	-0.04
Mof_C 	C 	0.96476	0.7994	0.99704	-0.096
Mof_C 	C 	0.92158	0.7777	0.99372	0.039
Mof_C 	C 	0.6544	0.4232	0.7686	-0.022
Mof_C 	C 	0.69583	0.4694	0.74617	-0.112
Mof_C 	C 	0.71038	0.4988	0.76262	0.094
Mof_C 	C 	0.6836	0.4821	0.8015	-0.233
Mof_C 	C 	0.64218	0.4358	0.82402	0.099
Mof_C 	C 	0.62763	0.4064	0.80757	-0.112
Mof_C 	C 	0.69875	0.5133	0.81895	0.47
Mof_C 	C 	0.6767	0.4915	0.8622	-0.601
Mof_C 	C 	0.69064	0.5205	0.87906	0.585
Mof_C 	C 	0.72663	0.5713	0.85267	-0.73
Mof_C 	C 	0.7487	0.5931	0.8094	0.597
Mof_C 	C 	0.73474	0.5641	0.79256	-0.605
Mof_C 	C 	0.63856	0.3919	0.75134	0.301
Mof_C 	C 	0.7408	0.6011	0.8707	0.912
Mof_C 	C 	0.73406	0.73146	0.036	0.07
Mof_C 	C 	0.7111	0.7132	0.0787	-0.121
Mof_C 	C 	0.6857	0.7281	0.0882	-0.022
Mof_C 	C 	0.91487	0.76935	0.85418	0.077
Mof_C 	C 	0.95692	0.78721	0.83009	-0.123
Mof_C 	C 	0.96474	0.7714	0.80466	-0.015
Mof_C 	C 	0.91334	0.91574	0.84162	0.069
Mof_C 	C 	0.87421	0.91417	0.84312	0.057
Mof_C 	C 	0.87682	0.95989	0.81641	-0.109
Mof_C 	C 	0.91866	0.00723	0.78813	-0.038
Mof_C 	C 	0.95783	0.00879	0.78664	-0.015
Mof_C 	C 	0.9552	0.96305	0.81337	-0.128
Mof_C 	C 	0.72813	0.7609	0.85557	0.072
Mof_C 	C 	0.70258	0.7778	0.83342	-0.136
Mof_C 	C 	0.6776	0.756	0.812	-0.006
Mof_C 	C 	0.6781	0.7175	0.8126	-0.04
Mof_C 	C 	0.70356	0.7006	0.83464	-0.095
Mof_C 	C 	0.72858	0.7223	0.85612	0.039
Mof_C 	C 	0.3082	0.0768	0.7688	-0.021
Mof_C 	C 	0.28443	0.0306	0.77357	-0.113
Mof_C 	C 	0.23858	0.0012	0.78842	0.095
Mof_C 	C 	0.2164	0.0179	0.7985	-0.235
Mof_C 	C 	0.24018	0.0642	0.79362	0.101
Mof_C 	C 	0.28603	0.0936	0.77877	-0.114
Mof_C 	C 	0.16775	0.9867	0.81455	0.473
Mof_C 	C 	0.1463	0.0085	0.8148	-0.604
Mof_C 	C 	0.10044	0.9795	0.82986	0.588
Mof_C 	C 	0.07603	0.9287	0.84467	-0.732
Mof_C 	C 	0.0975	0.9069	0.8444	0.599
Mof_C 	C 	0.14334	0.9359	0.82936	-0.608
Mof_C 	C 	0.35676	0.1081	0.75334	0.3
Mof_C 	C 	0.0282	0.8989	0.8603	0.913
Mof_C 	C 	0.73254	0.76854	0.9974	0.069
Mof_C 	C 	0.7081	0.7868	0.0021	-0.12
Mof_C 	C 	0.6837	0.7719	0.0424	-0.023
Mof_C 	C 	0.87647	0.73065	0.85448	0.077
Mof_C 	C 	0.8827	0.71279	0.83029	-0.123
Mof_C 	C 	0.92394	0.7286	0.80666	-0.015
Mof_C 	C 	0.65838	0.24504	0.75736	0.069
Mof_C 	C 	0.65688	0.28267	0.75729	0.057
Mof_C 	C 	0.68359	0.30677	0.7763	-0.109
Mof_C 	C 	0.71187	0.29321	0.79536	-0.039
Mof_C 	C 	0.71336	0.25553	0.79543	-0.016
Mof_C 	C 	0.68663	0.23143	0.77642	-0.127
Mof_C 	C 	0.64443	0.4163	0.61647	0.072
Mof_C 	C 	0.66658	0.464	0.61122	-0.136
Mof_C 	C 	0.688	0.5104	0.568	-0.006
Mof_C 	C 	0.6874	0.5093	0.5301	-0.04
Mof_C 	C 	0.66536	0.4618	0.53524	-0.095
Mof_C 	C 	0.64388	0.4153	0.57842	0.039
Mof_C 	C 	0.7312	0.923	0.8456	-0.022
Mof_C 	C 	0.72643	0.942	0.80417	-0.113
Mof_C 	C 	0.71158	0.973	0.78962	0.095
Mof_C 	C 	0.7015	0.9851	0.8164	-0.234
Mof_C 	C 	0.70638	0.9662	0.85782	0.101
Mof_C 	C 	0.72123	0.9352	0.87237	-0.114
Mof_C 	C 	0.68545	0.0177	0.80125	0.471
Mof_C 	C 	0.6852	0.0389	0.8233	-0.602
Mof_C 	C 	0.67014	0.0697	0.80936	0.586
Mof_C 	C 	0.65533	0.0793	0.77337	-0.731
Mof_C 	C 	0.6556	0.0581	0.7513	0.598
Mof_C 	C 	0.67064	0.0273	0.76526	-0.607
Mof_C 	C 	0.74666	0.8899	0.86144	0.3
Mof_C 	C 	0.6397	0.1115	0.7592	0.913
Mof_C 	C 	0.5026	0.27006	0.76594	0.069
Mof_C 	C 	0.4979	0.2898	0.7889	-0.121
Mof_C 	C 	0.4576	0.2739	0.8143	-0.022
Mof_C 	C 	0.64552	0.26905	0.58513	0.077
Mof_C 	C 	0.66971	0.28701	0.54308	-0.123
Mof_C 	C 	0.69334	0.2694	0.53526	-0.015
Mof_C 	C 	0.4976	0.25496	0.58666	0.069
Mof_C 	C 	0.46004	0.21733	0.62579	0.057
Mof_C 	C 	0.41693	0.19323	0.62318	-0.109
Mof_C 	C 	0.41143	0.20679	0.58134	-0.039
Mof_C 	C 	0.44904	0.24447	0.54217	-0.016
Mof_C 	C 	0.49215	0.26857	0.5448	-0.127
Mof_C 	C 	0.46723	0.0837	0.77187	0.072
Mof_C 	C 	0.42478	0.036	0.79742	-0.136
Mof_C 	C 	0.4216	0.9896	0.8224	-0.006
Mof_C 	C 	0.4606	0.9907	0.8219	-0.04
Mof_C 	C 	0.50296	0.0382	0.79644	-0.095
Mof_C 	C 	0.50628	0.0847	0.77142	0.039
Mof_C 	C 	0.7314	0.577	0.1918	-0.022
Mof_C 	C 	0.75383	0.558	0.21557	-0.112
Mof_C 	C 	0.73738	0.527	0.26142	0.094
Mof_C 	C 	0.6985	0.5149	0.2836	-0.233
Mof_C 	C 	0.67598	0.5338	0.25982	0.099
Mof_C 	C 	0.69243	0.5648	0.21397	-0.112
Mof_C 	C 	0.68105	0.4823	0.33225	0.47
Mof_C 	C 	0.6378	0.4611	0.3537	-0.601
Mof_C 	C 	0.62094	0.4303	0.39956	0.585
Mof_C 	C 	0.64733	0.4207	0.42397	-0.73
Mof_C 	C 	0.6906	0.4419	0.4025	0.597
Mof_C 	C 	0.70744	0.4727	0.35666	-0.605
Mof_C 	C 	0.74866	0.6101	0.14324	0.301
Mof_C 	C 	0.6293	0.3885	0.4718	0.912
Mof_C 	C 	0.464	0.22994	0.76746	0.069
Mof_C 	C 	0.4213	0.2102	0.7919	-0.121
Mof_C 	C 	0.4118	0.2261	0.8163	-0.022
Mof_C 	C 	0.64582	0.23095	0.62353	0.077
Mof_C 	C 	0.66991	0.21299	0.6173	-0.123
Mof_C 	C 	0.69534	0.2306	0.57606	-0.015
Mof_N 	N 	0.76259	0.63379	0.96582	-0.242
Mof_N 	N 	0.7752	0.66438	0.9799	-0.205
Mof_N 	N 	0.76337	0.63654	0.02571	-0.243
Mof_N 	N 	0.84667	0.7253	0.02003	-0.245
Mof_N 	N 	0.86081	0.75396	0.97579	-0.195
Mof_N 	N 	0.90445	0.7865	0.95805	-0.242
Mof_N 	N 	0.75859	0.7203	0.02331	-0.251
Mof_N 	N 	0.9012	0.77872	0.87824	-0.237
Mof_N 	N 	0.90039	0.86621	0.8712	-0.242
Mof_N 	N 	0.85572	0.83562	0.88918	-0.205
Mof_N 	N 	0.83775	0.86346	0.87317	-0.243
Mof_N 	N 	0.75467	0.7747	0.87863	-0.245
Mof_N 	N 	0.77025	0.74604	0.89315	-0.195
Mof_N 	N 	0.75545	0.7135	0.88205	-0.241
Mof_N 	N 	0.75639	0.7797	0.96171	-0.251
Mof_N 	N 	0.84304	0.72128	0.87752	-0.237
Mof_N 	N 	0.6288	0.22841	0.73741	-0.242
Mof_N 	N 	0.61082	0.2551	0.7248	-0.205
Mof_N 	N 	0.62683	0.28908	0.73663	-0.243
Mof_N 	N 	0.62137	0.3667	0.65333	-0.245
Mof_N 	N 	0.60685	0.3366	0.63919	-0.195
Mof_N 	N 	0.61795	0.3625	0.59555	-0.241
Mof_N 	N 	0.53829	0.2819	0.74141	-0.251
Mof_N 	N 	0.62248	0.27944	0.5988	-0.237
Mof_N 	N 	0.53418	0.27159	0.59961	-0.242
Mof_N 	N 	0.5201	0.2449	0.64428	-0.205
Mof_N 	N 	0.47429	0.21092	0.66225	-0.243
Mof_N 	N 	0.47997	0.1333	0.74533	-0.245
Mof_N 	N 	0.52421	0.1634	0.72975	-0.195
Mof_N 	N 	0.54195	0.1375	0.74455	-0.241
Mof_N 	N 	0.47669	0.2181	0.74361	-0.251
Mof_N 	N 	0.62176	0.22056	0.65696	-0.237
Mof_N 	N 	0.77153	0.75	0.97847	-0.202
Mof_N 	N 	0.8575	0.75	0.8925	-0.199
Mof_N 	N 	0.52153	0.25	0.72847	-0.202
Mof_N 	N 	0.6075	0.25	0.6425	-0.199
Mof_O 	O 	0.65965	0.4078	0.71355	-0.423
Mof_O 	O 	0.7534	0.6084	0.8906	-0.848
Mof_O 	O 	0.7698	0.6633	0.8331	-0.341
Mof_O 	O 	0.6025	0.3471	0.774	-0.42
Mof_O 	O 	0.37865	0.0922	0.74815	-0.423
Mof_O 	O 	0.001	0.8916	0.855	-0.849
Mof_O 	O 	0.0036	0.8367	0.8935	-0.34
Mof_O 	O 	0.3789	0.1529	0.7446	-0.42
Mof_O 	O 	0.75185	0.8732	0.84035	-0.423
Mof_O 	O 	0.645	0.144	0.7466	-0.849
Mof_O 	O 	0.6065	0.1029	0.7302	-0.341
Mof_O 	O 	0.7554	0.8765	0.8975	-0.42
Mof_O 	O 	0.78645	0.6268	0.12135	-0.423
Mof_O 	O 	0.6094	0.356	0.499	-0.848
Mof_O 	O 	0.6669	0.3971	0.4964	-0.341
Mof_O 	O 	0.726	0.6235	0.1211	-0.42
Mof_Zn	Zn	0.24416	0.61641	0.87793	1.134
Mof_Zn	Zn	0.20163	0.53192	0.84101	1.125
Mof_Zn	Zn	0.36629	0.70164	0.83059	1.121
Mof_Zn	Zn	0.20947	0.54004	0.99895	1.18
Mof_Zn	Zn	0.19961	0.69357	0.83896	1.179
Mof_Zn	Zn	0.99434	0.11641	0.62775	1.134
Mof_Zn	Zn	0.87293	0.03192	0.66971	1.125
Mof_Zn	Zn	0.03223	0.20164	0.66465	1.121
Mof_Zn	Zn	0.03899	0.04004	0.66943	1.179
Mof_Zn	Zn	0.03253	0.19357	0.50604	1.179
Mof_H 	H 	0.1496	0.5624	0.0504	0.062
Mof_H 	H 	0.1113	0.5959	0.0578	0.025
Mof_H 	H 	0.1056	0.6546	0.9938	0.023
Mof_H 	H 	0.1385	0.68	0.9223	0.072
Mof_H 	H 	0.4105	0.8278	0.7551	0.01
Mof_H 	H 	0.4164	0.9054	0.709	0.035
Mof_H 	H 	0.3521	0.9055	0.714	0.006
Mof_H 	H 	0.2818	0.828	0.7654	0.06
Mof_H 	H 	0.122	0.5346	0.7902	0.016
Mof_H 	H 	0.0742	0.557	0.7612	0.057
Mof_H 	H 	0.0741	0.6206	0.7611	0.021
Mof_H 	H 	0.1217	0.6619	0.79	0.071
Mof_H 	H 	0.4197	0.6873	0.9086	0.009
Mof_H 	H 	0.4301	0.6574	0.9785	0.038
Mof_H 	H 	0.3679	0.596	0.0443	0.014
Mof_H 	H 	0.2956	0.5646	0.0404	0.074
Mof_H 	H 	0.2822	0.5484	0.7724	0.024
Mof_H 	H 	0.3527	0.5785	0.7336	0.044
Mof_H 	H 	0.4174	0.6439	0.7311	0.031
Mof_H 	H 	0.4115	0.6792	0.7675	0.023
Mof_H 	H 	0.1512	0.4031	0.9249	0.018
Mof_H 	H 	0.1197	0.3268	0.9967	0.042
Mof_H 	H 	0.1212	0.3297	0.0593	0.022
Mof_H 	H 	0.1542	0.4087	0.0501	0.08
Mof_H 	H 	0.1138	0.269	0.363	0.015
Mof_H 	H 	0.1442	0.3249	0.2849	0.073
Mof_H 	H 	0.0768	0.3857	0.2843	0.065
Mof_H 	H 	0.0464	0.3296	0.3624	0.019
Mof_H 	H 	0.1163	0.3409	0.218	0.083
Mof_H 	H 	0.1467	0.3969	0.1404	0.009
Mof_H 	H 	0.1847	0.5166	0.1475	0.009
Mof_H 	H 	0.1543	0.4606	0.2251	0.064
Mof_H 	H 	0.1128	0.0624	0.5872	0.062
Mof_H 	H 	0.1537	0.0959	0.5154	0.025
Mof_H 	H 	0.1484	0.1546	0.451	0.023
Mof_H 	H 	0.1023	0.18	0.4585	0.072
Mof_H 	H 	0.0829	0.3278	0.5827	0.01
Mof_H 	H 	0.1144	0.4054	0.511	0.035
Mof_H 	H 	0.1195	0.4055	0.4466	0.006
Mof_H 	H 	0.0934	0.328	0.4538	0.06
Mof_H 	H 	0.8248	0.0346	0.5874	0.016
Mof_H 	H 	0.8182	0.057	0.5172	0.057
Mof_H 	H 	0.8817	0.1206	0.4535	0.021
Mof_H 	H 	0.9519	0.1619	0.4598	0.072
Mof_H 	H 	0.0959	0.1873	0.7324	0.009
Mof_H 	H 	0.1359	0.1574	0.7727	0.038
Mof_H 	H 	0.1403	0.096	0.7719	0.013
Mof_H 	H 	0.105	0.0646	0.731	0.074
Mof_H 	H 	0.8208	0.0484	0.7338	0.024
Mof_H 	H 	0.8121	0.0785	0.7742	0.044
Mof_H 	H 	0.875	0.1439	0.7735	0.031
Mof_H 	H 	0.9467	0.1792	0.7323	0.024
Mof_H 	H 	0.828	0.9031	0.7481	0.017
Mof_H 	H 	0.8235	0.8268	0.7929	0.042
Mof_H 	H 	0.889	0.8297	0.7915	0.022
Mof_H 	H 	0.9588	0.9087	0.7455	0.08
Mof_H 	H 	0.132	0.769	0.8448	0.015
Mof_H 	H 	0.1098	0.8249	0.8193	0.072
Mof_H 	H 	0.17	0.8857	0.6911	0.065
Mof_H 	H 	0.192	0.8296	0.7168	0.019
Mof_H 	H 	0.0589	0.8409	0.7754	0.083
Mof_H 	H 	0.0373	0.8969	0.7498	0.008
Mof_H 	H 	0.1641	0.0166	0.6681	0.009
Mof_H 	H 	0.1857	0.9606	0.6937	0.065
Mof_C 	C 	0.16373	0.6364	0.94347	0.067
Mof_C 	C 	0.16712	0.6011	0.98198	0.05
Mof_C 	C 	0.1474	0.5859	0.0249	-0.111
Mof_C 	C 	0.1243	0.606	0.0293	-0.031
Mof_C 	C 	0.1209	0.6413	0.9908	-0.018
Mof_C 	C 	0.1406	0.6565	0.9479	-0.128
Mof_C 	C 	0.3039	0.7812	0.7911	0.067
Mof_C 	C 	0.3426	0.7812	0.788	0.027
Mof_C 	C 	0.38485	0.8278	0.75715	-0.094
Mof_C 	C 	0.3885	0.8745	0.7294	-0.05
Mof_C 	C 	0.3497	0.8746	0.7325	-0.004
Mof_C 	C 	0.30751	0.828	0.76329	-0.129
Mof_C 	C 	0.15024	0.6228	0.80736	0.089
Mof_C 	C 	0.1503	0.5849	0.8074	0.023
Mof_C 	C 	0.1219	0.5603	0.7902	-0.078
Mof_C 	C 	0.09346	0.5737	0.77284	-0.062
Mof_C 	C 	0.0934	0.6116	0.7728	0.02
Mof_C 	C 	0.12179	0.6362	0.79001	-0.15
Mof_C 	C 	0.3142	0.607	0.9722	0.092
Mof_C 	C 	0.3514	0.6438	0.9328	0.021
Mof_C 	C 	0.3948	0.6627	0.9351	-0.088
Mof_C 	C 	0.401	0.6447	0.9769	-0.058
Mof_C 	C 	0.3638	0.6081	0.0163	0.016
Mof_C 	C 	0.32044	0.5892	0.01396	-0.149
Mof_C 	C 	0.34334	0.6349	0.79176	0.056
Mof_C 	C 	0.3046	0.59573	0.79327	0.028
Mof_C 	C 	0.3082	0.5747	0.7715	-0.097
Mof_C 	C 	0.35032	0.5927	0.74818	-0.034
Mof_C 	C 	0.38904	0.6318	0.74676	-0.013
Mof_C 	C 	0.3855	0.6528	0.7685	-0.119
Mof_C 	C 	0.17244	0.45324	0.98194	0.093
Mof_C 	C 	0.17152	0.45152	0.94452	0.023
Mof_C 	C 	0.15179	0.40419	0.95006	-0.086
Mof_C 	C 	0.13297	0.35859	0.99302	-0.055
Mof_C 	C 	0.13389	0.36034	0.03043	0.006
Mof_C 	C 	0.15361	0.40762	0.02491	-0.149
Mof_C 	C 	0.07713	0.29384	0.37031	-0.157
Mof_C 	C 	0.1064	0.29246	0.34714	0.061
Mof_C 	C 	0.12461	0.3259	0.30049	-0.13
Mof_C 	C 	0.1135	0.3608	0.2769	0.039
Mof_C 	C 	0.08428	0.3622	0.30012	-0.128
Mof_C 	C 	0.06609	0.3287	0.34681	0.055
Mof_C 	C 	0.13238	0.39535	0.22899	0.068
Mof_C 	C 	0.1301	0.3764	0.2037	-0.153
Mof_C 	C 	0.1483	0.4098	0.1575	0.095
Mof_C 	C 	0.16872	0.4622	0.13648	-0.183
Mof_C 	C 	0.17096	0.4811	0.16174	0.088
Mof_C 	C 	0.15276	0.4477	0.20794	-0.147
Mof_C 	C 	0.05864	0.25975	0.41831	0.361
Mof_C 	C 	0.18702	0.4964	0.08858	0.386
Mof_C 	C 	0.07987	0.1364	0.52733	0.067
Mof_C 	C 	0.08308	0.1011	0.56602	0.05
Mof_C 	C 	0.1108	0.0859	0.5615	-0.111
Mof_C 	C 	0.1353	0.106	0.5183	-0.031
Mof_C 	C 	0.1321	0.1413	0.4796	-0.019
Mof_C 	C 	0.1044	0.1565	0.4841	-0.128
Mof_C 	C 	0.0723	0.2812	0.5227	0.067
Mof_C 	C 	0.0692	0.2812	0.5614	0.027
Mof_C 	C 	0.08495	0.3278	0.55705	-0.094
Mof_C 	C 	0.1039	0.3745	0.514	-0.05
Mof_C 	C 	0.1071	0.3746	0.4751	-0.004
Mof_C 	C 	0.09129	0.328	0.47951	-0.129
Mof_C 	C 	0.93016	0.1228	0.52744	0.089
Mof_C 	C 	0.8923	0.0849	0.5654	0.023
Mof_C 	C 	0.8505	0.0603	0.5616	-0.078
Mof_C 	C 	0.84654	0.0737	0.51976	-0.062
Mof_C 	C 	0.8844	0.1116	0.4818	0.02
Mof_C 	C 	0.92621	0.1362	0.48559	-0.151
Mof_C 	C 	0.0792	0.107	0.7072	0.092
Mof_C 	C 	0.0766	0.1438	0.7076	0.021
Mof_C 	C 	0.0978	0.1627	0.7321	-0.088
Mof_C 	C 	0.1216	0.1447	0.7563	-0.058
Mof_C 	C 	0.1244	0.1081	0.7557	0.016
Mof_C 	C 	0.10316	0.0892	0.73124	-0.149
Mof_C 	C 	0.92666	0.1349	0.70844	0.056
Mof_C 	C 	0.889	0.09573	0.70887	0.028
Mof_C 	C 	0.8462	0.0747	0.7335	-0.097
Mof_C 	C 	0.84088	0.0927	0.75762	-0.034
Mof_C 	C 	0.87856	0.1318	0.75724	-0.013
Mof_C 	C 	0.9213	0.1528	0.7327	-0.119
Mof_C 	C 	0.93518	0.95324	0.7192	0.093
Mof_C 	C 	0.89604	0.95152	0.72	0.023
Mof_C 	C 	0.85425	0.90419	0.7476	-0.086
Mof_C 	C 	0.85161	0.85859	0.77438	-0.055
Mof_C 	C 	0.89077	0.86034	0.77355	0.006
Mof_C 	C 	0.93253	0.90762	0.74599	-0.149
Mof_C 	C 	0.16415	0.79384	0.78329	-0.157
Mof_C 	C 	0.1396	0.79246	0.81394	0.061
Mof_C 	C 	0.12639	0.8259	0.79871	-0.13
Mof_C 	C 	0.1377	0.8608	0.7527	0.038
Mof_C 	C 	0.16232	0.8622	0.72208	-0.127
Mof_C 	C 	0.17551	0.8287	0.73739	0.054
Mof_C 	C 	0.12434	0.89535	0.73703	0.068
Mof_C 	C 	0.0801	0.8764	0.7537	-0.154
Mof_C 	C 	0.0673	0.9098	0.7385	0.096
Mof_C 	C 	0.09868	0.9622	0.70652	-0.184
Mof_C 	C 	0.14284	0.9811	0.68986	0.089
Mof_C 	C 	0.15564	0.9477	0.70506	-0.148
Mof_C 	C 	0.17806	0.75975	0.79889	0.361
Mof_C 	C 	0.08498	0.9964	0.69062	0.387
Mof_N 	N 	0.187	0.6461	0.9073	-0.241
Mof_N 	N 	0.20282	0.6167	0.92108	-0.216
Mof_N 	N 	0.19168	0.5903	0.96622	-0.244
Mof_N 	N 	0.26804	0.7299	0.81806	-0.246
Mof_N 	N 	0.28569	0.70315	0.83184	-0.196
Mof_N 	N 	0.32953	0.7314	0.81507	-0.264
Mof_N 	N 	0.18059	0.64	0.82521	-0.254
Mof_N 	N 	0.19661	0.61109	0.83884	-0.203
Mof_N 	N 	0.18105	0.57849	0.8263	-0.266
Mof_N 	N 	0.33484	0.6505	0.89966	-0.256
Mof_N 	N 	0.29082	0.62241	0.91683	-0.203
Mof_N 	N 	0.27705	0.5937	0.96165	-0.251
Mof_N 	N 	0.33078	0.64769	0.81593	-0.259
Mof_N 	N 	0.28571	0.61737	0.83212	-0.202
Mof_N 	N 	0.27026	0.58641	0.81993	-0.25
Mof_N 	N 	0.19345	0.50254	0.96671	-0.243
Mof_N 	N 	0.20534	0.5304	0.92246	-0.201
Mof_N 	N 	0.19196	0.50101	0.90821	-0.253
Mof_N 	N 	0.0534	0.1461	0.5409	-0.241
Mof_N 	N 	0.03778	0.1167	0.58612	-0.216
Mof_N 	N 	0.05652	0.0903	0.60138	-0.244
Mof_N 	N 	0.04796	0.2299	0.53814	-0.246
Mof_N 	N 	0.03499	0.20315	0.58254	-0.196
Mof_N 	N 	0.04647	0.2314	0.59813	-0.264
Mof_N 	N 	0.96521	0.14	0.54059	-0.254
Mof_N 	N 	0.94993	0.11109	0.58552	-0.203
Mof_N 	N 	0.90479	0.07849	0.60256	-0.266
Mof_N 	N 	0.05016	0.1505	0.68434	-0.256
Mof_N 	N 	0.03924	0.12241	0.66841	-0.203
Mof_N 	N 	0.05535	0.0937	0.68335	-0.251
Mof_N 	N 	0.96362	0.14769	0.68309	-0.259
Mof_N 	N 	0.94949	0.11737	0.66834	-0.202
Mof_N 	N 	0.90634	0.08641	0.68385	-0.25
Mof_N 	N 	0.96925	0.00254	0.69091	-0.243
Mof_N 	N 	0.95286	0.0304	0.67494	-0.201
Mof_N 	N 	0.90922	0.00101	0.69095	-0.253
Mof_O 	O 	0.02717	0.2549	0.43953	-0.386
Mof_O 	O 	0.07275	0.2335	0.44135	-0.468
Mof_O 	O 	0.1817	0.4812	0.0635	-0.489
Mof_O 	O 	0.2105	0.5454	0.0677	-0.365
Mof_O 	O 	0.19443	0.7549	0.77227	-0.385
Mof_O 	O 	0.17485	0.7335	0.83925	-0.468
Mof_O 	O 	0.0447	0.9812	0.7005	-0.489
Mof_O 	O 	0.1131	0.0454	0.6651	-0.365
Mof_Zn	Zn	0.00566	0.88359	0.37225	1.134
Mof_Zn	Zn	0.12707	0.96808	0.33029	1.125
Mof_Zn	Zn	0.96777	0.79836	0.33535	1.121
Mof_Zn	Zn	0.96101	0.95996	0.33057	1.179
Mof_Zn	Zn	0.96747	0.80643	0.49396	1.179
Mof_Zn	Zn	0.75584	0.38359	0.12207	1.134
Mof_Zn	Zn	0.79837	0.46808	0.15899	1.125
Mof_Zn	Zn	0.63371	0.29836	0.16941	1.121
Mof_Zn	Zn	0.79053	0.45996	0.00105	1.18
Mof_Zn	Zn	0.80039	0.30643	0.16104	1.179
Mof_H 	H 	0.8872	0.9376	0.4128	0.062
Mof_H 	H 	0.8463	0.9041	0.4846	0.025
Mof_H 	H 	0.8516	0.8454	0.549	0.023
Mof_H 	H 	0.8977	0.82	0.5415	0.072
Mof_H 	H 	0.9171	0.6722	0.4173	0.01
Mof_H 	H 	0.8856	0.5946	0.489	0.035
Mof_H 	H 	0.8805	0.5945	0.5534	0.006
Mof_H 	H 	0.9066	0.672	0.5462	0.06
Mof_H 	H 	0.1752	0.9654	0.4126	0.016
Mof_H 	H 	0.1818	0.943	0.4828	0.057
Mof_H 	H 	0.1183	0.8794	0.5465	0.021
Mof_H 	H 	0.0481	0.8381	0.5402	0.072
Mof_H 	H 	0.9041	0.8127	0.2676	0.009
Mof_H 	H 	0.8641	0.8426	0.2273	0.038
Mof_H 	H 	0.8597	0.904	0.2281	0.013
Mof_H 	H 	0.895	0.9354	0.269	0.074
Mof_H 	H 	0.1792	0.9516	0.2662	0.024
Mof_H 	H 	0.1879	0.9215	0.2258	0.044
Mof_H 	H 	0.125	0.8561	0.2265	0.031
Mof_H 	H 	0.0533	0.8208	0.2677	0.024
Mof_H 	H 	0.172	0.0969	0.2519	0.017
Mof_H 	H 	0.1765	0.1732	0.2071	0.042
Mof_H 	H 	0.111	0.1703	0.2085	0.022
Mof_H 	H 	0.0412	0.0913	0.2545	0.08
Mof_H 	H 	0.868	0.231	0.1552	0.015
Mof_H 	H 	0.8902	0.1751	0.1807	0.072
Mof_H 	H 	0.83	0.1143	0.3089	0.065
Mof_H 	H 	0.808	0.1704	0.2832	0.019
Mof_H 	H 	0.9411	0.1591	0.2246	0.083
Mof_H 	H 	0.9627	0.1031	0.2502	0.008
Mof_H 	H 	0.8359	0.9834	0.3319	0.009
Mof_H 	H 	0.8143	0.0394	0.3063	0.065
Mof_H 	H 	0.8504	0.4376	0.9496	0.062
Mof_H 	H 	0.8887	0.4041	0.9422	0.025
Mof_H 	H 	0.8944	0.3454	0.0062	0.023
Mof_H 	H 	0.8615	0.32	0.0777	0.072
Mof_H 	H 	0.5895	0.1722	0.2449	0.01
Mof_H 	H 	0.5836	0.0946	0.291	0.035
Mof_H 	H 	0.6479	0.0945	0.286	0.006
Mof_H 	H 	0.7182	0.172	0.2346	0.06
Mof_H 	H 	0.878	0.4654	0.2098	0.016
Mof_H 	H 	0.9258	0.443	0.2388	0.057
Mof_H 	H 	0.9259	0.3794	0.2389	0.021
Mof_H 	H 	0.8783	0.3381	0.21	0.071
Mof_H 	H 	0.5803	0.3127	0.0914	0.009
Mof_H 	H 	0.5699	0.3426	0.0215	0.038
Mof_H 	H 	0.6321	0.404	0.9557	0.014
Mof_H 	H 	0.7044	0.4354	0.9596	0.074
Mof_H 	H 	0.7178	0.4516	0.2276	0.024
Mof_H 	H 	0.6473	0.4215	0.2664	0.044
Mof_H 	H 	0.5826	0.3561	0.2689	0.031
Mof_H 	H 	0.5885	0.3208	0.2325	0.023
Mof_H 	H 	0.8488	0.5969	0.0751	0.018
Mof_H 	H 	0.8803	0.6732	0.0033	0.042
Mof_H 	H 	0.8788	0.6703	0.9407	0.022
Mof_H 	H 	0.8458	0.5913	0.9499	0.08
Mof_H 	H 	0.8862	0.731	0.637	0.015
Mof_H 	H 	0.8558	0.6751	0.7151	0.073
Mof_H 	H 	0.9232	0.6143	0.7157	0.065
Mof_H 	H 	0.9536	0.6704	0.6376	0.019
Mof_H 	H 	0.8837	0.6591	0.782	0.083
Mof_H 	H 	0.8533	0.6031	0.8596	0.009
Mof_H 	H 	0.8153	0.4834	0.8525	0.009
Mof_H 	H 	0.8457	0.5394	0.7749	0.064
Mof_C 	C 	0.92013	0.8636	0.47267	0.067
Mof_C 	C 	0.91692	0.8989	0.43398	0.05
Mof_C 	C 	0.8892	0.9141	0.4385	-0.111
Mof_C 	C 	0.8647	0.894	0.4817	-0.031
Mof_C 	C 	0.8679	0.8587	0.5204	-0.019
Mof_C 	C 	0.8956	0.8435	0.5159	-0.128
Mof_C 	C 	0.9277	0.7188	0.4773	0.067
Mof_C 	C 	0.9308	0.7188	0.4386	0.027
Mof_C 	C 	0.91505	0.6722	0.44295	-0.094
Mof_C 	C 	0.8961	0.6255	0.486	-0.05
Mof_C 	C 	0.8929	0.6254	0.5249	-0.004
Mof_C 	C 	0.90871	0.672	0.52049	-0.129
Mof_C 	C 	0.06984	0.8772	0.47256	0.089
Mof_C 	C 	0.1077	0.9151	0.4346	0.023
Mof_C 	C 	0.1495	0.9397	0.4384	-0.078
Mof_C 	C 	0.15346	0.9263	0.48024	-0.062
Mof_C 	C 	0.1156	0.8884	0.5182	0.02
Mof_C 	C 	0.07379	0.8638	0.51441	-0.151
Mof_C 	C 	0.9208	0.893	0.2928	0.092
Mof_C 	C 	0.9234	0.8562	0.2924	0.021
Mof_C 	C 	0.9022	0.8373	0.2679	-0.088
Mof_C 	C 	0.8784	0.8553	0.2437	-0.058
Mof_C 	C 	0.8756	0.8919	0.2443	0.016
Mof_C 	C 	0.89684	0.9108	0.26876	-0.149
Mof_C 	C 	0.07334	0.8651	0.29156	0.056
Mof_C 	C 	0.111	0.90427	0.29113	0.028
Mof_C 	C 	0.1538	0.9253	0.2665	-0.097
Mof_C 	C 	0.15912	0.9073	0.24238	-0.034
Mof_C 	C 	0.12144	0.8682	0.24276	-0.013
Mof_C 	C 	0.0787	0.8472	0.2673	-0.119
Mof_C 	C 	0.06482	0.04676	0.2808	0.093
Mof_C 	C 	0.10396	0.04848	0.28	0.023
Mof_C 	C 	0.14575	0.09581	0.2524	-0.086
Mof_C 	C 	0.14839	0.14141	0.22562	-0.055
Mof_C 	C 	0.10923	0.13966	0.22645	0.006
Mof_C 	C 	0.06747	0.09238	0.25401	-0.149
Mof_C 	C 	0.83585	0.20616	0.21671	-0.157
Mof_C 	C 	0.8604	0.20754	0.18606	0.061
Mof_C 	C 	0.87361	0.1741	0.20129	-0.13
Mof_C 	C 	0.8623	0.1392	0.2473	0.038
Mof_C 	C 	0.83768	0.1378	0.27792	-0.127
Mof_C 	C 	0.82449	0.1713	0.26261	0.054
Mof_C 	C 	0.87566	0.10465	0.26297	0.068
Mof_C 	C 	0.9199	0.1236	0.2463	-0.154
Mof_C 	C 	0.9327	0.0902	0.2615	0.096
Mof_C 	C 	0.90132	0.0378	0.29348	-0.184
Mof_C 	C 	0.85716	0.0189	0.31014	0.089
Mof_C 	C 	0.84436	0.0523	0.29494	-0.148
Mof_C 	C 	0.82194	0.24025	0.20111	0.361
Mof_C 	C 	0.91502	0.0036	0.30938	0.387
Mof_C 	C 	0.83627	0.3636	0.05653	0.067
Mof_C 	C 	0.83288	0.3989	0.01802	0.05
Mof_C 	C 	0.8526	0.4141	0.9751	-0.111
Mof_C 	C 	0.8757	0.394	0.9707	-0.031
Mof_C 	C 	0.8791	0.3587	0.0092	-0.018
Mof_C 	C 	0.8594	0.3435	0.0521	-0.128
Mof_C 	C 	0.6961	0.2188	0.2089	0.067
Mof_C 	C 	0.6574	0.2188	0.212	0.027
Mof_C 	C 	0.61515	0.1722	0.24285	-0.094
Mof_C 	C 	0.6115	0.1255	0.2706	-0.05
Mof_C 	C 	0.6503	0.1254	0.2675	-0.004
Mof_C 	C 	0.69249	0.172	0.23671	-0.129
Mof_C 	C 	0.84976	0.3772	0.19264	0.089
Mof_C 	C 	0.8497	0.4151	0.1926	0.023
Mof_C 	C 	0.8781	0.4397	0.2098	-0.078
Mof_C 	C 	0.90654	0.4263	0.22716	-0.062
Mof_C 	C 	0.9066	0.3884	0.2272	0.02
Mof_C 	C 	0.87821	0.3638	0.20999	-0.15
Mof_C 	C 	0.6858	0.393	0.0278	0.092
Mof_C 	C 	0.6486	0.3562	0.0672	0.021
Mof_C 	C 	0.6052	0.3373	0.0649	-0.088
Mof_C 	C 	0.599	0.3553	0.0231	-0.058
Mof_C 	C 	0.6362	0.3919	0.9837	0.016
Mof_C 	C 	0.67956	0.4108	0.98604	-0.149
Mof_C 	C 	0.65666	0.3651	0.20824	0.056
Mof_C 	C 	0.6954	0.40427	0.20673	0.028
Mof_C 	C 	0.6918	0.4253	0.2285	-0.097
Mof_C 	C 	0.64968	0.4073	0.25182	-0.034
Mof_C 	C 	0.61096	0.3682	0.25324	-0.013
Mof_C 	C 	0.6145	0.3472	0.2315	-0.119
Mof_C 	C 	0.82756	0.54676	0.01806	0.093
Mof_C 	C 	0.82848	0.54848	0.05548	0.023
Mof_C 	C 	0.84821	0.59581	0.04994	-0.086
Mof_C 	C 	0.86703	0.64141	0.00698	-0.055
Mof_C 	C 	0.86611	0.63966	0.96957	0.006
Mof_C 	C 	0.84639	0.59238	0.97509	-0.149
Mof_C 	C 	0.92287	0.70616	0.62969	-0.157
Mof_C 	C 	0.8936	0.70754	0.65286	0.061
Mof_C 	C 	0.87539	0.6741	0.69951	-0.13
Mof_C 	C 	0.8865	0.6392	0.7231	0.039
Mof_C 	C 	0.91572	0.6378	0.69988	-0.128
Mof_C 	C 	0.93391	0.6713	0.65319	0.055
Mof_C 	C 	0.86762	0.60465	0.77101	0.068
Mof_C 	C 	0.8699	0.6236	0.7963	-0.153
Mof_C 	C 	0.8517	0.5902	0.8425	0.095
Mof_C 	C 	0.83128	0.5378	0.86352	-0.183
Mof_C 	C 	0.82904	0.5189	0.83826	0.088
Mof_C 	C 	0.84724	0.5523	0.79206	-0.147
Mof_C 	C 	0.94136	0.74025	0.58169	0.361
Mof_C 	C 	0.81298	0.5036	0.91142	0.386
Mof_N 	N 	0.9466	0.8539	0.4591	-0.241
Mof_N 	N 	0.96222	0.8833	0.41388	-0.216
Mof_N 	N 	0.94348	0.9097	0.39862	-0.244
Mof_N 	N 	0.95204	0.7701	0.46186	-0.246
Mof_N 	N 	0.96501	0.79685	0.41746	-0.196
Mof_N 	N 	0.95353	0.7686	0.40187	-0.264
Mof_N 	N 	0.03479	0.86	0.45941	-0.254
Mof_N 	N 	0.05007	0.88891	0.41448	-0.203
Mof_N 	N 	0.09521	0.92151	0.39744	-0.266
Mof_N 	N 	0.94984	0.8495	0.31566	-0.256
Mof_N 	N 	0.96076	0.87759	0.33159	-0.203
Mof_N 	N 	0.94465	0.9063	0.31665	-0.251
Mof_N 	N 	0.03638	0.85231	0.31691	-0.259
Mof_N 	N 	0.05051	0.88263	0.33166	-0.202
Mof_N 	N 	0.09366	0.91359	0.31615	-0.25
Mof_N 	N 	0.03075	0.99746	0.30909	-0.243
Mof_N 	N 	0.04714	0.9696	0.32506	-0.201
Mof_N 	N 	0.09078	0.99899	0.30905	-0.253
Mof_N 	N 	0.813	0.3539	0.0927	-0.241
Mof_N 	N 	0.79718	0.3833	0.07892	-0.216
Mof_N 	N 	0.80832	0.4097	0.03378	-0.244
Mof_N 	N 	0.73196	0.2701	0.18194	-0.246
Mof_N 	N 	0.71431	0.29685	0.16816	-0.196
Mof_N 	N 	0.67047	0.2686	0.18493	-0.264
Mof_N 	N 	0.81941	0.36	0.17479	-0.254
Mof_N 	N 	0.80339	0.38891	0.16116	-0.203
Mof_N 	N 	0.81895	0.42151	0.1737	-0.266
Mof_N 	N 	0.66516	0.3495	0.10034	-0.256
Mof_N 	N 	0.70918	0.37759	0.08317	-0.203
Mof_N 	N 	0.72295	0.4063	0.03835	-0.251
Mof_N 	N 	0.66922	0.35231	0.18407	-0.259
Mof_N 	N 	0.71429	0.38263	0.16788	-0.202
Mof_N 	N 	0.72974	0.41359	0.18007	-0.25
Mof_N 	N 	0.80655	0.49746	0.03329	-0.243
Mof_N 	N 	0.79466	0.4696	0.07754	-0.201
Mof_N 	N 	0.80804	0.49899	0.09179	-0.253
Mof_O 	O 	0.80557	0.2451	0.22773	-0.385
Mof_O 	O 	0.82515	0.2665	0.16075	-0.468
Mof_O 	O 	0.9553	0.0188	0.2995	-0.489
Mof_O 	O 	0.8869	0.9546	0.3349	-0.365
Mof_O 	O 	0.97283	0.7451	0.56047	-0.386
Mof_O 	O 	0.92725	0.7665	0.55865	-0.468
Mof_O 	O 	0.8183	0.5188	0.9365	-0.489
Mof_O 	O 	0.7895	0.4546	0.9323	-0.365
Mof_Zn	Zn	0.12775	0.62209	0.25584	1.134
Mof_Zn	Zn	0.16971	0.54264	0.29837	1.125
Mof_Zn	Zn	0.16465	0.69688	0.13371	1.121
Mof_Zn	Zn	0.16943	0.70842	0.29053	1.18
Mof_Zn	Zn	0.00604	0.53857	0.30039	1.179
Mof_Zn	Zn	0.37793	0.12209	0.50566	1.134
Mof_Zn	Zn	0.34101	0.04264	0.62707	1.125
Mof_Zn	Zn	0.33059	0.19688	0.46777	1.121
Mof_Zn	Zn	0.49895	0.20842	0.46101	1.18
Mof_Zn	Zn	0.33896	0.03857	0.46747	1.179
Mof_H 	H 	0.0872	0.7	0.3504	0.062
Mof_H 	H 	0.0154	0.6691	0.3887	0.025
Mof_H 	H 	0.951	0.5994	0.3944	0.023
Mof_H 	H 	0.9585	0.5608	0.3615	0.072
Mof_H 	H 	0.0827	0.6656	0.0895	0.01
Mof_H 	H 	0.011	0.6254	0.0836	0.035
Mof_H 	H 	0.9466	0.5661	0.1479	0.006
Mof_H 	H 	0.9538	0.5472	0.2182	0.06
Mof_H 	H 	0.0874	0.4122	0.378	0.016
Mof_H 	H 	0.0172	0.3354	0.4258	0.057
Mof_H 	H 	0.9535	0.3352	0.4259	0.021
Mof_H 	H 	0.9598	0.4117	0.3783	0.071
Mof_H 	H 	0.2324	0.8283	0.0803	0.009
Mof_H 	H 	0.2727	0.9086	0.0699	0.038
Mof_H 	H 	0.2719	0.9122	0.1321	0.014
Mof_H 	H 	0.231	0.836	0.2044	0.074
Mof_H 	H 	0.2338	0.5546	0.2178	0.024
Mof_H 	H 	0.2742	0.5863	0.1473	0.044
Mof_H 	H 	0.2735	0.6485	0.0826	0.031
Mof_H 	H 	0.2323	0.679	0.0885	0.024
Mof_H 	H 	0.2481	0.5761	0.3488	0.018
Mof_H 	H 	0.2929	0.6164	0.3803	0.042
Mof_H 	H 	0.2915	0.6805	0.3788	0.022
Mof_H 	H 	0.2455	0.7043	0.3458	0.08
Mof_H 	H 	0.3448	0.9768	0.3862	0.015
Mof_H 	H 	0.3193	0.9291	0.3558	0.073
Mof_H 	H 	0.1911	0.8611	0.4232	0.065
Mof_H 	H 	0.2168	0.9088	0.4536	0.019
Mof_H 	H 	0.2754	0.8343	0.3837	0.083
Mof_H 	H 	0.2498	0.7871	0.3533	0.009
Mof_H 	H 	0.1681	0.8322	0.3153	0.009
Mof_H 	H 	0.1937	0.8794	0.3457	0.064
Mof_H 	H 	0.5504	0.2	0.3872	0.062
Mof_H 	H 	0.5578	0.1691	0.3463	0.025
Mof_H 	H 	0.4938	0.0994	0.3516	0.023
Mof_H 	H 	0.4223	0.0608	0.3977	0.072
Mof_H 	H 	0.2551	0.1656	0.4171	0.01
Mof_H 	H 	0.209	0.1254	0.3856	0.035
Mof_H 	H 	0.214	0.0661	0.3805	0.006
Mof_H 	H 	0.2654	0.0472	0.4066	0.06
Mof_H 	H 	0.2902	0.9122	0.6752	0.016
Mof_H 	H 	0.2612	0.8354	0.6818	0.057
Mof_H 	H 	0.2611	0.8352	0.6183	0.021
Mof_H 	H 	0.29	0.9117	0.5481	0.071
Mof_H 	H 	0.4086	0.3283	0.4041	0.009
Mof_H 	H 	0.4785	0.4086	0.3641	0.038
Mof_H 	H 	0.5443	0.4122	0.3597	0.014
Mof_H 	H 	0.5404	0.336	0.395	0.074
Mof_H 	H 	0.2724	0.0546	0.6792	0.024
Mof_H 	H 	0.2336	0.0863	0.6879	0.044
Mof_H 	H 	0.2311	0.1485	0.625	0.031
Mof_H 	H 	0.2675	0.179	0.5533	0.023
Mof_H 	H 	0.4249	0.0761	0.672	0.018
Mof_H 	H 	0.4967	0.1164	0.6765	0.042
Mof_H 	H 	0.5593	0.1805	0.611	0.022
Mof_H 	H 	0.5501	0.2043	0.5412	0.08
Mof_H 	H 	0.863	0.4768	0.368	0.015
Mof_H 	H 	0.7849	0.4291	0.3902	0.073
Mof_H 	H 	0.7843	0.3611	0.33	0.065
Mof_H 	H 	0.8624	0.4088	0.308	0.019
Mof_H 	H 	0.718	0.3343	0.4411	0.083
Mof_H 	H 	0.6404	0.2871	0.4627	0.009
Mof_H 	H 	0.6475	0.3322	0.3359	0.009
Mof_H 	H 	0.7251	0.3794	0.3143	0.064
Mof_C 	C 	0.02733	0.6072	0.33627	0.067
Mof_C 	C 	0.06602	0.6491	0.33288	0.05
Mof_C 	C 	0.0615	0.6723	0.3526	-0.111
Mof_C 	C 	0.0183	0.6536	0.3757	-0.031
Mof_C 	C 	0.9796	0.6117	0.3791	-0.019
Mof_C 	C 	0.9841	0.5885	0.3594	-0.128
Mof_C 	C 	0.0227	0.595	0.1961	0.067
Mof_C 	C 	0.0614	0.6306	0.1574	0.027
Mof_C 	C 	0.05705	0.642	0.11515	-0.094
Mof_C 	C 	0.014	0.6179	0.1115	-0.05
Mof_C 	C 	0.9751	0.5822	0.1503	-0.004
Mof_C 	C 	0.97951	0.5708	0.19249	-0.129
Mof_C 	C 	0.02744	0.4576	0.34976	0.089
Mof_C 	C 	0.0654	0.4577	0.3497	0.023
Mof_C 	C 	0.0616	0.4121	0.3781	-0.078
Mof_C 	C 	0.01976	0.3663	0.40654	-0.062
Mof_C 	C 	0.9818	0.3662	0.4066	0.02
Mof_C 	C 	0.98559	0.4118	0.37821	-0.151
Mof_C 	C 	0.2072	0.7864	0.1858	0.092
Mof_C 	C 	0.2076	0.7842	0.1486	0.021
Mof_C 	C 	0.2321	0.8299	0.1052	-0.088
Mof_C 	C 	0.2563	0.8779	0.099	-0.058
Mof_C 	C 	0.2557	0.8801	0.1362	0.016
Mof_C 	C 	0.23124	0.8344	0.17956	-0.149
Mof_C 	C 	0.20844	0.6351	0.15666	0.056
Mof_C 	C 	0.20887	0.59787	0.1954	0.028
Mof_C 	C 	0.2335	0.5797	0.1918	-0.097
Mof_C 	C 	0.25762	0.5985	0.14968	-0.034
Mof_C 	C 	0.25724	0.6358	0.11096	-0.013
Mof_C 	C 	0.2327	0.654	0.1145	-0.119
Mof_C 	C 	0.2192	0.65438	0.32756	0.093
Mof_C 	C 	0.22	0.61604	0.32848	0.023
Mof_C 	C 	0.2476	0.60185	0.34821	-0.086
Mof_C 	C 	0.27438	0.62599	0.36703	-0.055
Mof_C 	C 	0.27355	0.66432	0.36611	0.006
Mof_C 	C 	0.24599	0.67852	0.34639	-0.149
Mof_C 	C 	0.28329	0.94744	0.42287	-0.157
Mof_C 	C 	0.31394	0.95354	0.3936	0.061
Mof_C 	C 	0.29871	0.9251	0.37539	-0.13
Mof_C 	C 	0.2527	0.8904	0.3865	0.039
Mof_C 	C 	0.22208	0.8844	0.41572	-0.128
Mof_C 	C 	0.23739	0.9129	0.43391	0.055
Mof_C 	C 	0.23703	0.86137	0.36762	0.068
Mof_C 	C 	0.2537	0.8338	0.3699	-0.153
Mof_C 	C 	0.2385	0.8058	0.3517	0.095
Mof_C 	C 	0.20652	0.8052	0.33128	-0.183
Mof_C 	C 	0.18986	0.8327	0.32904	0.088
Mof_C 	C 	0.20506	0.8607	0.34724	-0.147
Mof_C 	C 	0.29889	0.97695	0.44136	0.361
Mof_C 	C 	0.19062	0.7756	0.31298	0.386
Mof_C 	C 	0.44347	0.1072	0.42013	0.067
Mof_C 	C 	0.48198	0.1491	0.41692	0.05
Mof_C 	C 	0.5249	0.1723	0.3892	-0.111
Mof_C 	C 	0.5293	0.1536	0.3647	-0.031
Mof_C 	C 	0.4908	0.1117	0.3679	-0.019
Mof_C 	C 	0.4479	0.0885	0.3956	-0.128
Mof_C 	C 	0.2911	0.095	0.4277	0.067
Mof_C 	C 	0.288	0.1306	0.4308	0.027
Mof_C 	C 	0.25715	0.142	0.41505	-0.094
Mof_C 	C 	0.2294	0.1179	0.3961	-0.05
Mof_C 	C 	0.2325	0.0822	0.3929	-0.004
Mof_C 	C 	0.26329	0.0708	0.40871	-0.129
Mof_C 	C 	0.30736	0.9576	0.56984	0.089
Mof_C 	C 	0.3074	0.9577	0.6077	0.023
Mof_C 	C 	0.2902	0.9121	0.6495	-0.078
Mof_C 	C 	0.27284	0.8663	0.65346	-0.062
Mof_C 	C 	0.2728	0.8662	0.6156	0.02
Mof_C 	C 	0.29001	0.9118	0.57379	-0.151
Mof_C 	C 	0.4722	0.2864	0.4208	0.092
Mof_C 	C 	0.4328	0.2842	0.4234	0.021
Mof_C 	C 	0.4351	0.3299	0.4022	-0.088
Mof_C 	C 	0.4769	0.3779	0.3784	-0.058
Mof_C 	C 	0.5163	0.3801	0.3756	0.016
Mof_C 	C 	0.51396	0.3344	0.39684	-0.149
Mof_C 	C 	0.29176	0.1351	0.57334	0.056
Mof_C 	C 	0.29327	0.09787	0.611	0.027
Mof_C 	C 	0.2715	0.0797	0.6538	-0.097
Mof_C 	C 	0.24818	0.0985	0.65912	-0.034
Mof_C 	C 	0.24676	0.1358	0.62144	-0.013
Mof_C 	C 	0.2685	0.154	0.5787	-0.119
Mof_C 	C 	0.48194	0.15438	0.56482	0.093
Mof_C 	C 	0.44452	0.11604	0.60396	0.023
Mof_C 	C 	0.45006	0.10185	0.64575	-0.086
Mof_C 	C 	0.49302	0.12599	0.64839	-0.055
Mof_C 	C 	0.53043	0.16432	0.60923	0.006
Mof_C 	C 	0.52491	0.17852	0.56747	-0.149
Mof_C 	C 	0.87031	0.44744	0.33585	-0.157
Mof_C 	C 	0.84714	0.45354	0.3604	0.061
Mof_C 	C 	0.80049	0.4251	0.37361	-0.13
Mof_C 	C 	0.7769	0.3904	0.3623	0.039
Mof_C 	C 	0.80012	0.3844	0.33768	-0.128
Mof_C 	C 	0.84681	0.4129	0.32449	0.054
Mof_C 	C 	0.72899	0.36137	0.37566	0.068
Mof_C 	C 	0.7037	0.3338	0.4199	-0.153
Mof_C 	C 	0.6575	0.3058	0.4327	0.095
Mof_C 	C 	0.63648	0.3052	0.40132	-0.183
Mof_C 	C 	0.66174	0.3327	0.35716	0.088
Mof_C 	C 	0.70794	0.3607	0.34436	-0.147
Mof_C 	C 	0.91831	0.47695	0.32194	0.361
Mof_C 	C 	0.58858	0.2756	0.41502	0.386
Mof_N 	N 	0.0409	0.5943	0.313	-0.241
Mof_N 	N 	0.08612	0.6239	0.29718	-0.216
Mof_N 	N 	0.10138	0.6579	0.30832	-0.244
Mof_N 	N 	0.03814	0.5861	0.23196	-0.245
Mof_N 	N 	0.08254	0.61753	0.21431	-0.196
Mof_N 	N 	0.09813	0.6446	0.17047	-0.264
Mof_N 	N 	0.04059	0.5058	0.31941	-0.254
Mof_N 	N 	0.08552	0.53545	0.30339	-0.203
Mof_N 	N 	0.10256	0.50735	0.31895	-0.266
Mof_N 	N 	0.18434	0.7345	0.16516	-0.256
Mof_N 	N 	0.16841	0.70765	0.20918	-0.203
Mof_N 	N 	0.18335	0.7387	0.22295	-0.251
Mof_N 	N 	0.18309	0.64671	0.16922	-0.259
Mof_N 	N 	0.16834	0.61783	0.21429	-0.202
Mof_N 	N 	0.18385	0.59019	0.22974	-0.25
Mof_N 	N 	0.19091	0.66016	0.30655	-0.243
Mof_N 	N 	0.17494	0.6278	0.29466	-0.201
Mof_N 	N 	0.19095	0.60017	0.30804	-0.253
Mof_N 	N 	0.4073	0.0943	0.4466	-0.241
Mof_N 	N 	0.42108	0.1239	0.46222	-0.216
Mof_N 	N 	0.46622	0.1579	0.44348	-0.244
Mof_N 	N 	0.31806	0.0861	0.45204	-0.246
Mof_N 	N 	0.33184	0.11753	0.46501	-0.196
Mof_N 	N 	0.31507	0.1446	0.45353	-0.264
Mof_N 	N 	0.32521	0.0058	0.53479	-0.255
Mof_N 	N 	0.33884	0.03545	0.55007	-0.203
Mof_N 	N 	0.3263	0.00735	0.59521	-0.266
Mof_N 	N 	0.39966	0.2345	0.44984	-0.256
Mof_N 	N 	0.41683	0.20765	0.46076	-0.203
Mof_N 	N 	0.46165	0.2387	0.44465	-0.251
Mof_N 	N 	0.31593	0.14671	0.53638	-0.259
Mof_N 	N 	0.33212	0.11783	0.55051	-0.202
Mof_N 	N 	0.31993	0.09019	0.59366	-0.25
Mof_N 	N 	0.46671	0.16016	0.53075	-0.243
Mof_N 	N 	0.42246	0.1278	0.54714	-0.201
Mof_N 	N 	0.40821	0.10017	0.59078	-0.253
Mof_O 	O 	0.27227	0.9667	0.47283	-0.386
Mof_O 	O 	0.33925	0.0141	0.42725	-0.468
Mof_O 	O 	0.2005	0.7452	0.3183	-0.489
Mof_O 	O 	0.1651	0.7782	0.2895	-0.365
Mof_O 	O 	0.93953	0.4667	0.30557	-0.385
Mof_O 	O 	0.94135	0.5141	0.32515	-0.468
Mof_O 	O 	0.5635	0.2452	0.4553	-0.489
Mof_O 	O 	0.5677	0.2782	0.3869	-0.365
Mof_Zn	Zn	0.62207	0.87791	0.49434	1.134
Mof_Zn	Zn	0.65899	0.95736	0.37293	1.125
Mof_Zn	Zn	0.66941	0.80312	0.53223	1.121
Mof_Zn	Zn	0.50105	0.79158	0.53899	1.18
Mof_Zn	Zn	0.66104	0.96143	0.53253	1.179
Mof_Zn	Zn	0.87225	0.37791	0.74416	1.134
Mof_Zn	Zn	0.83029	0.45736	0.70163	1.125
Mof_Zn	Zn	0.83535	0.30312	0.86629	1.121
Mof_Zn	Zn	0.83057	0.29158	0.70947	1.18
Mof_Zn	Zn	0.99396	0.46143	0.69961	1.179
Mof_H 	H 	0.4496	0.8	0.6128	0.062
Mof_H 	H 	0.4422	0.8309	0.6537	0.025
Mof_H 	H 	0.5062	0.9006	0.6484	0.023
Mof_H 	H 	0.5777	0.9392	0.6023	0.072
Mof_H 	H 	0.7449	0.8344	0.5829	0.01
Mof_H 	H 	0.791	0.8746	0.6144	0.035
Mof_H 	H 	0.786	0.9339	0.6195	0.006
Mof_H 	H 	0.7346	0.9528	0.5934	0.06
Mof_H 	H 	0.7098	0.0878	0.3248	0.016
Mof_H 	H 	0.7388	0.1646	0.3182	0.057
Mof_H 	H 	0.7389	0.1648	0.3817	0.021
Mof_H 	H 	0.71	0.0883	0.4519	0.071
Mof_H 	H 	0.5914	0.6717	0.5959	0.009
Mof_H 	H 	0.5215	0.5914	0.6359	0.038
Mof_H 	H 	0.4557	0.5878	0.6403	0.014
Mof_H 	H 	0.4596	0.664	0.605	0.074
Mof_H 	H 	0.7276	0.9454	0.3208	0.024
Mof_H 	H 	0.7664	0.9137	0.3121	0.044
Mof_H 	H 	0.7689	0.8515	0.375	0.031
Mof_H 	H 	0.7325	0.821	0.4467	0.023
Mof_H 	H 	0.5751	0.9239	0.328	0.018
Mof_H 	H 	0.5033	0.8836	0.3235	0.042
Mof_H 	H 	0.4407	0.8195	0.389	0.022
Mof_H 	H 	0.4499	0.7957	0.4588	0.08
Mof_H 	H 	0.137	0.5232	0.632	0.015
Mof_H 	H 	0.2151	0.5709	0.6098	0.073
Mof_H 	H 	0.2157	0.6389	0.67	0.065
Mof_H 	H 	0.1376	0.5912	0.692	0.019
Mof_H 	H 	0.282	0.6657	0.5589	0.083
Mof_H 	H 	0.3596	0.7129	0.5373	0.009
Mof_H 	H 	0.3525	0.6678	0.6641	0.009
Mof_H 	H 	0.2749	0.6206	0.6857	0.064
Mof_H 	H 	0.9128	0.3	0.6496	0.062
Mof_H 	H 	0.9846	0.3309	0.6113	0.025
Mof_H 	H 	0.049	0.4006	0.6056	0.023
Mof_H 	H 	0.0415	0.4392	0.6385	0.072
Mof_H 	H 	0.9173	0.3344	0.9105	0.01
Mof_H 	H 	0.989	0.3746	0.9164	0.035
Mof_H 	H 	0.0534	0.4339	0.8521	0.006
Mof_H 	H 	0.0462	0.4528	0.7818	0.06
Mof_H 	H 	0.9126	0.5878	0.622	0.016
Mof_H 	H 	0.9828	0.6646	0.5742	0.057
Mof_H 	H 	0.0465	0.6648	0.5741	0.021
Mof_H 	H 	0.0402	0.5883	0.6217	0.071
Mof_H 	H 	0.7676	0.1717	0.9197	0.009
Mof_H 	H 	0.7273	0.0914	0.9301	0.038
Mof_H 	H 	0.7281	0.0878	0.8679	0.014
Mof_H 	H 	0.769	0.164	0.7956	0.074
Mof_H 	H 	0.7662	0.4454	0.7822	0.024
Mof_H 	H 	0.7258	0.4137	0.8527	0.044
Mof_H 	H 	0.7265	0.3515	0.9174	0.031
Mof_H 	H 	0.7677	0.321	0.9115	0.024
Mof_H 	H 	0.7519	0.4239	0.6512	0.018
Mof_H 	H 	0.7071	0.3836	0.6197	0.042
Mof_H 	H 	0.7085	0.3195	0.6212	0.022
Mof_H 	H 	0.7545	0.2957	0.6542	0.08
Mof_H 	H 	0.6552	0.0232	0.6138	0.015
Mof_H 	H 	0.6807	0.0709	0.6442	0.073
Mof_H 	H 	0.8089	0.1389	0.5768	0.065
Mof_H 	H 	0.7832	0.0912	0.5464	0.019
Mof_H 	H 	0.7246	0.1657	0.6163	0.083
Mof_H 	H 	0.7502	0.2129	0.6467	0.009
Mof_H 	H 	0.8319	0.1678	0.6847	0.009
Mof_H 	H 	0.8063	0.1206	0.6543	0.064
Mof_C 	C 	0.55653	0.8928	0.57987	0.067
Mof_C 	C 	0.51802	0.8509	0.58308	0.05
Mof_C 	C 	0.4751	0.8277	0.6108	-0.111
Mof_C 	C 	0.4707	0.8464	0.6353	-0.031
Mof_C 	C 	0.5092	0.8883	0.6321	-0.019
Mof_C 	C 	0.5521	0.9115	0.6044	-0.128
Mof_C 	C 	0.7089	0.905	0.5723	0.067
Mof_C 	C 	0.712	0.8694	0.5692	0.027
Mof_C 	C 	0.74285	0.858	0.58495	-0.094
Mof_C 	C 	0.7706	0.8821	0.6039	-0.05
Mof_C 	C 	0.7675	0.9178	0.6071	-0.004
Mof_C 	C 	0.73671	0.9292	0.59129	-0.129
Mof_C 	C 	0.69264	0.0424	0.43016	0.089
Mof_C 	C 	0.6926	0.0423	0.3923	0.023
Mof_C 	C 	0.7098	0.0879	0.3505	-0.078
Mof_C 	C 	0.72716	0.1337	0.34654	-0.062
Mof_C 	C 	0.7272	0.1338	0.3844	0.02
Mof_C 	C 	0.70999	0.0882	0.42621	-0.151
Mof_C 	C 	0.5278	0.7136	0.5792	0.092
Mof_C 	C 	0.5672	0.7158	0.5766	0.021
Mof_C 	C 	0.5649	0.6701	0.5978	-0.088
Mof_C 	C 	0.5231	0.6221	0.6216	-0.058
Mof_C 	C 	0.4837	0.6199	0.6244	0.016
Mof_C 	C 	0.48604	0.6656	0.60316	-0.149
Mof_C 	C 	0.70824	0.8649	0.42666	0.056
Mof_C 	C 	0.70673	0.90213	0.389	0.027
Mof_C 	C 	0.7285	0.9203	0.3462	-0.097
Mof_C 	C 	0.75182	0.9015	0.34088	-0.034
Mof_C 	C 	0.75324	0.8642	0.37856	-0.013
Mof_C 	C 	0.7315	0.846	0.4213	-0.119
Mof_C 	C 	0.51806	0.84562	0.43518	0.093
Mof_C 	C 	0.55548	0.88396	0.39604	0.023
Mof_C 	C 	0.54994	0.89815	0.35425	-0.086
Mof_C 	C 	0.50698	0.87401	0.35161	-0.055
Mof_C 	C 	0.46957	0.83568	0.39077	0.006
Mof_C 	C 	0.47509	0.82148	0.43253	-0.149
Mof_C 	C 	0.12969	0.55256	0.66415	-0.157
Mof_C 	C 	0.15286	0.54646	0.6396	0.061
Mof_C 	C 	0.19951	0.5749	0.62639	-0.13
Mof_C 	C 	0.2231	0.6096	0.6377	0.039
Mof_C 	C 	0.19988	0.6156	0.66232	-0.128
Mof_C 	C 	0.15319	0.5871	0.67551	0.054
Mof_C 	C 	0.27101	0.63863	0.62434	0.068
Mof_C 	C 	0.2963	0.6662	0.5801	-0.153
Mof_C 	C 	0.3425	0.6942	0.5673	0.095
Mof_C 	C 	0.36352	0.6948	0.59868	-0.183
Mof_C 	C 	0.33826	0.6673	0.64284	0.088
Mof_C 	C 	0.29206	0.6393	0.65564	-0.147
Mof_C 	C 	0.08169	0.52305	0.67806	0.361
Mof_C 	C 	0.41142	0.7244	0.58498	0.386
Mof_C 	C 	0.97267	0.3928	0.66373	0.067
Mof_C 	C 	0.93398	0.3509	0.66712	0.05
Mof_C 	C 	0.9385	0.3277	0.6474	-0.111
Mof_C 	C 	0.9817	0.3464	0.6243	-0.031
Mof_C 	C 	0.0204	0.3883	0.6209	-0.019
Mof_C 	C 	0.0159	0.4115	0.6406	-0.128
Mof_C 	C 	0.9773	0.405	0.8039	0.067
Mof_C 	C 	0.9386	0.3694	0.8426	0.027
Mof_C 	C 	0.94295	0.358	0.88485	-0.094
Mof_C 	C 	0.986	0.3821	0.8885	-0.05
Mof_C 	C 	0.0249	0.4178	0.8497	-0.004
Mof_C 	C 	0.02049	0.4292	0.80751	-0.129
Mof_C 	C 	0.97256	0.5424	0.65024	0.089
Mof_C 	C 	0.9346	0.5423	0.6503	0.023
Mof_C 	C 	0.9384	0.5879	0.6219	-0.078
Mof_C 	C 	0.98024	0.6337	0.59346	-0.062
Mof_C 	C 	0.0182	0.6338	0.5934	0.02
Mof_C 	C 	0.01441	0.5882	0.62179	-0.151
Mof_C 	C 	0.7928	0.2136	0.8142	0.092
Mof_C 	C 	0.7924	0.2158	0.8514	0.021
Mof_C 	C 	0.7679	0.1701	0.8948	-0.088
Mof_C 	C 	0.7437	0.1221	0.901	-0.058
Mof_C 	C 	0.7443	0.1199	0.8638	0.016
Mof_C 	C 	0.76876	0.1656	0.82044	-0.149
Mof_C 	C 	0.79156	0.3649	0.84334	0.056
Mof_C 	C 	0.79113	0.40213	0.8046	0.028
Mof_C 	C 	0.7665	0.4203	0.8082	-0.097
Mof_C 	C 	0.74238	0.4015	0.85032	-0.034
Mof_C 	C 	0.74276	0.3642	0.88904	-0.013
Mof_C 	C 	0.7673	0.346	0.8855	-0.119
Mof_C 	C 	0.7808	0.34562	0.67244	0.093
Mof_C 	C 	0.78	0.38396	0.67152	0.023
Mof_C 	C 	0.7524	0.39815	0.65179	-0.086
Mof_C 	C 	0.72562	0.37401	0.63297	-0.055
Mof_C 	C 	0.72645	0.33568	0.63389	0.006
Mof_C 	C 	0.75401	0.32148	0.65361	-0.149
Mof_C 	C 	0.71671	0.05256	0.57713	-0.157
Mof_C 	C 	0.68606	0.04646	0.6064	0.061
Mof_C 	C 	0.70129	0.0749	0.62461	-0.13
Mof_C 	C 	0.7473	0.1096	0.6135	0.039
Mof_C 	C 	0.77792	0.1156	0.58428	-0.128
Mof_C 	C 	0.76261	0.0871	0.56609	0.055
Mof_C 	C 	0.76297	0.13863	0.63238	0.068
Mof_C 	C 	0.7463	0.1662	0.6301	-0.153
Mof_C 	C 	0.7615	0.1942	0.6483	0.095
Mof_C 	C 	0.79348	0.1948	0.66872	-0.183
Mof_C 	C 	0.81014	0.1673	0.67096	0.088
Mof_C 	C 	0.79494	0.1393	0.65276	-0.147
Mof_C 	C 	0.70111	0.02305	0.55864	0.361
Mof_C 	C 	0.80938	0.2244	0.68702	0.386
Mof_N 	N 	0.5927	0.9057	0.5534	-0.241
Mof_N 	N 	0.57892	0.8761	0.53778	-0.216
Mof_N 	N 	0.53378	0.8421	0.55652	-0.244
Mof_N 	N 	0.68194	0.9139	0.54796	-0.246
Mof_N 	N 	0.66816	0.88247	0.53499	-0.196
Mof_N 	N 	0.68493	0.8554	0.54647	-0.264
Mof_N 	N 	0.67479	0.9942	0.46521	-0.255
Mof_N 	N 	0.66116	0.96455	0.44993	-0.203
Mof_N 	N 	0.6737	0.99265	0.40479	-0.266
Mof_N 	N 	0.60034	0.7655	0.55016	-0.256
Mof_N 	N 	0.58317	0.79235	0.53924	-0.203
Mof_N 	N 	0.53835	0.7613	0.55535	-0.251
Mof_N 	N 	0.68407	0.85329	0.46362	-0.259
Mof_N 	N 	0.66788	0.88217	0.44949	-0.202
Mof_N 	N 	0.68007	0.90981	0.40634	-0.25
Mof_N 	N 	0.53329	0.83984	0.46925	-0.243
Mof_N 	N 	0.57754	0.8722	0.45286	-0.201
Mof_N 	N 	0.59179	0.89983	0.40922	-0.253
Mof_N 	N 	0.9591	0.4057	0.687	-0.241
Mof_N 	N 	0.91388	0.3761	0.70282	-0.216
Mof_N 	N 	0.89862	0.3421	0.69168	-0.244
Mof_N 	N 	0.96186	0.4139	0.76804	-0.245
Mof_N 	N 	0.91746	0.38247	0.78569	-0.196
Mof_N 	N 	0.90187	0.3554	0.82953	-0.264
Mof_N 	N 	0.95941	0.4942	0.68059	-0.254
Mof_N 	N 	0.91448	0.46455	0.69661	-0.203
Mof_N 	N 	0.89744	0.49265	0.68105	-0.266
Mof_N 	N 	0.81566	0.2655	0.83484	-0.256
Mof_N 	N 	0.83159	0.29235	0.79082	-0.203
Mof_N 	N 	0.81665	0.2613	0.77705	-0.251
Mof_N 	N 	0.81691	0.35329	0.83078	-0.259
Mof_N 	N 	0.83166	0.38217	0.78571	-0.202
Mof_N 	N 	0.81615	0.40981	0.77026	-0.25
Mof_N 	N 	0.80909	0.33984	0.69345	-0.243
Mof_N 	N 	0.82506	0.3722	0.70534	-0.201
Mof_N 	N 	0.80905	0.39983	0.69196	-0.253
Mof_O 	O 	0.06047	0.5333	0.69443	-0.385
Mof_O 	O 	0.05865	0.4859	0.67485	-0.468
Mof_O 	O 	0.4365	0.7548	0.5447	-0.489
Mof_O 	O 	0.4323	0.7218	0.6131	-0.365
Mof_O 	O 	0.72773	0.0333	0.52717	-0.386
Mof_O 	O 	0.66075	0.9859	0.57275	-0.468
Mof_O 	O 	0.7995	0.2548	0.6817	-0.489
Mof_O 	O 	0.8349	0.2218	0.7105	-0.365
_end
