data_functionalizedCrystal
_audit_creation_method	'EQeq! by Chris Wilmer'
_symmetry_space_group_name_H-M	'P1'
_symmetry_Int_Tables_number	1
_symmetry_cell_setting	triclinic
loop_
_symmetry_equiv_pos_as_xyz
  x,y,z
_cell_length_a	10.5
_cell_length_b	10.635
_cell_length_c	11.373
_cell_angle_alpha	82.98
_cell_angle_beta	74.42
_cell_angle_gamma	69.6
loop_
_atom_site_label
_atom_site_type_symbol
_atom_site_fract_x
_atom_site_fract_y
_atom_site_fract_z
_atom_site_charge
Mof_Eu	Eu	0.58804	0.59837	0.6298	2.201
Mof_O 	O 	0.397	0.62	0.4058	-0.598
Mof_O 	O 	0.4727	0.7457	0.4924	-0.571
Mof_O 	O 	0.2748	0.2516	0.4457	-0.531
Mof_O 	O 	0.046	0.3193	0.4546	-0.451
Mof_O 	O 	0.8778	0.0605	0.2577	-0.118
Mof_O 	O 	0.9526	0.8484	0.2742	-0.102
Mof_O 	O 	0.0048	0.4407	0.6687	-0.464
Mof_O 	O 	0.7746	0.4932	0.7191	-0.595
Mof_O 	O 	0.5327	0.4763	0.1631	-0.415
Mof_O 	O 	0.659	0.3885	0.2965	-0.454
Mof_O 	O 	0.1744	0.2508	0.1563	-0.143
Mof_O 	O 	0.2712	0.2329	0.9659	-0.116
Mof_N 	N 	0.9617	0.9564	0.2831	0.013
Mof_N 	N 	0.169	0.262	0.0507	-0.001
Mof_C 	C 	0.2819	0.8544	0.4042	-0.162
Mof_C 	C 	0.2791	0.9807	0.4314	0.081
Mof_H 	H 	0.3492	0.987	0.4635	0.026
Mof_C 	C 	0.1732	0.0956	0.4111	-0.103
Mof_C 	C 	0.0665	0.0878	0.3638	-0.066
Mof_H 	H 	0.9927	0.1641	0.3526	0.112
Mof_C 	C 	0.0748	0.9618	0.3341	0.04
Mof_C 	C 	0.1778	0.846	0.3544	0.013
Mof_H 	H 	0.1781	0.7633	0.3352	0.037
Mof_C 	C 	0.3918	0.7309	0.4359	0.538
Mof_C 	C 	0.1668	0.2328	0.439	0.445
Mof_C 	C 	0.8963	0.4159	0.8753	-0.084
Mof_C 	C 	0.775	0.4402	0.9675	0.042
Mof_H 	H 	0.6885	0.4797	0.9486	0.043
Mof_C 	C 	0.7812	0.4059	0.0888	-0.067
Mof_C 	C 	0.9101	0.3479	0.1169	0.002
Mof_H 	H 	0.916	0.3256	0.1973	0.073
Mof_C 	C 	0.0301	0.3238	0.0225	0.042
Mof_C 	C 	0.026	0.3557	0.9029	-0.047
Mof_H 	H 	0.1082	0.3375	0.8414	0.085
Mof_C 	C 	0.8902	0.4538	0.7451	0.513
Mof_C 	C 	0.6493	0.4266	0.188	0.315
Mof_Eu	Eu	0.41196	0.40163	0.3702	2.185
Mof_O 	O 	0.603	0.38	0.5942	-0.599
Mof_O 	O 	0.5273	0.2543	0.5076	-0.573
Mof_O 	O 	0.7252	0.7484	0.5543	-0.534
Mof_O 	O 	0.954	0.6807	0.5454	-0.42
Mof_O 	O 	0.1222	0.9395	0.7423	-0.13
Mof_O 	O 	0.0474	0.1516	0.7258	-0.125
Mof_O 	O 	0.9952	0.5593	0.3313	-0.393
Mof_O 	O 	0.2254	0.5068	0.2809	-0.581
Mof_O 	O 	0.4673	0.5237	0.8369	-0.413
Mof_O 	O 	0.341	0.6115	0.7035	-0.455
Mof_O 	O 	0.8256	0.7492	0.8437	-0.128
Mof_O 	O 	0.7288	0.7671	0.0341	-0.115
Mof_N 	N 	0.0383	0.0436	0.7169	-0.006
Mof_N 	N 	0.831	0.738	0.9493	-0.007
Mof_C 	C 	0.7181	0.1456	0.5958	-0.179
Mof_C 	C 	0.7209	0.0193	0.5686	0.115
Mof_H 	H 	0.6508	0.013	0.5365	0.015
Mof_C 	C 	0.8268	0.9044	0.5889	-0.154
Mof_C 	C 	0.9335	0.9122	0.6362	0.083
Mof_H 	H 	0.0073	0.8359	0.6474	0.013
Mof_C 	C 	0.9252	0.0382	0.6659	0.041
Mof_C 	C 	0.8222	0.154	0.6456	0.034
Mof_H 	H 	0.8219	0.2367	0.6648	0.044
Mof_C 	C 	0.6082	0.2691	0.5641	0.545
Mof_C 	C 	0.8332	0.7672	0.561	0.463
Mof_C 	C 	0.1037	0.5841	0.1247	-0.132
Mof_C 	C 	0.225	0.5598	0.0325	0.036
Mof_H 	H 	0.3115	0.5203	0.0514	0.046
Mof_C 	C 	0.2188	0.5941	0.9112	-0.041
Mof_C 	C 	0.0899	0.6521	0.8831	-0.099
Mof_H 	H 	0.084	0.6744	0.8027	0.092
Mof_C 	C 	0.9699	0.6762	0.9775	0.114
Mof_C 	C 	0.974	0.6443	0.0971	0.01
Mof_H 	H 	0.8918	0.6625	0.1586	0.072
Mof_C 	C 	0.1098	0.5462	0.2549	0.441
Mof_C 	C 	0.3507	0.5734	0.812	0.304
Mof_Cu	Cu	-4.41752e-17	0.5	0.5	0.898
_end
