data_functionalizedCrystal
_audit_creation_method	'EQeq! by Chris Wilmer'
_symmetry_space_group_name_H-M	'P1'
_symmetry_Int_Tables_number	1
_symmetry_cell_setting	triclinic
loop_
_symmetry_equiv_pos_as_xyz
  x,y,z
_cell_length_a	10.4926
_cell_length_b	11.2193
_cell_length_c	12.7812
_cell_angle_alpha	101.079
_cell_angle_beta	110.206
_cell_angle_gamma	99.87
loop_
_atom_site_label
_atom_site_type_symbol
_atom_site_fract_x
_atom_site_fract_y
_atom_site_fract_z
_atom_site_charge
Mof_Gd	Gd	0.39392	0.45096	0.32474	1.77
Mof_O 	O 	0.3177	0.2641	0.1594	-0.421
Mof_O 	O 	0.1657	0.2928	0.2362	-0.405
Mof_C 	C 	0.2005	0.2281	0.165	0.509
Mof_C 	C 	0.0963	0.1108	0.0787	-0.52
Mof_C 	C 	0.1375	0.0302	0.0081	0.419
Mof_H 	H 	0.2321	0.0485	0.0142	-0.971
Mof_N 	N 	0.276	0.0521	0.0129	1.002
Mof_H 	H 	0.3408	0.1195	0.0623	-0.142
Mof_H 	H 	0.2983	0.9984	0.9663	-0.185
Mof_C 	C 	0.9609	0.0791	0.0729	0.771
Mof_H 	H 	0.9335	0.1318	0.1242	-1.364
Mof_N 	N 	0.0915	0.8418	0.8574	1.395
Mof_H 	H 	0.0361	0.7698	0.8085	-0.245
Mof_H 	H 	0.1789	0.8656	0.8638	-0.321
Mof_O 	O 	0.5004	0.6719	0.4038	-0.485
Mof_O 	O 	0.5704	0.7221	0.5969	-0.456
Mof_C 	C 	0.5305	0.7467	0.5012	0.529
Mof_C 	C 	0.5169	0.8792	0.5026	-0.344
Mof_C 	C 	0.5128	0.9601	0.6001	1.124
Mof_H 	H 	0.4776	0.0665	0.332	-1.55
Mof_N 	N 	0.4827	0.0793	0.2976	1.383
Mof_H 	H 	0.477	0.1578	0.2946	-0.067
Mof_H 	H 	0.4855	0.0252	0.237	0.087
Mof_H 	H 	0.527	0.8438	0.6983	-0.133
Mof_C 	C 	0.51	0.975	0.8	-0.497
Mof_O 	O 	0.522	0.09	0.84	-0.036
Mof_C 	C 	0.459	0.89	0.848	0.176
Mof_C 	C 	0.5055	0.9206	0.4046	-0.447
Mof_H 	H 	0.5103	0.8667	0.3397	0.209
Mof_O 	O 	0.6208	0.437	0.3251	-0.44
Mof_O 	O 	0.6538	0.5029	0.508	-0.53
Mof_C 	C 	0.7016	0.4743	0.4321	0.447
Mof_C 	C 	0.8552	0.4867	0.4663	-0.197
Mof_C 	C 	0.9094	0.4411	0.3847	0.402
Mof_H 	H 	0.1516	0.5988	0.6938	-0.564
Mof_N 	N 	0.8289	0.3819	0.273	0.467
Mof_H 	H 	0.8679	0.3538	0.2256	-0.054
Mof_H 	H 	0.7372	0.3711	0.2471	-0.013
Mof_C 	C 	0.9456	0.5445	0.5792	-0.156
Mof_H 	H 	0.9088	0.5756	0.6341	0.11
Mof_O 	O 	0.2077	0.5598	0.261	-0.136
Mof_C 	C 	0.1918	0.6591	0.2625	0.218
Mof_H 	H 	0.26	0.7227	0.3279	-0.033
Mof_N 	N 	0.0989	0.7017	0.1926	-0.096
Mof_C 	C 	0.985	0.621	0.087	0.114
Mof_C 	C 	0.102	0.8338	0.2144	-0.034
Mof_O 	O 	0.199	0.5347	0.2384	-0.212
Mof_C 	C 	0.1969	0.6335	0.22	0.015
Mof_H 	H 	0.2842	0.6942	0.2458	-0.012
Mof_N 	N 	0.0805	0.6656	0.1654	-0.073
Mof_C 	C 	0.941	0.587	0.121	-0.067
Mof_C 	C 	0.103	0.794	0.152	0.057
Mof_Gd	Gd	0.60608	0.54904	0.67526	1.771
Mof_O 	O 	0.6823	0.7359	0.8406	-0.42
Mof_O 	O 	0.8343	0.7072	0.7638	-0.404
Mof_C 	C 	0.7995	0.7719	0.835	0.51
Mof_C 	C 	0.9037	0.8892	0.9213	-0.52
Mof_C 	C 	0.8625	0.9698	0.9919	0.419
Mof_H 	H 	0.7679	0.9515	0.9858	-0.971
Mof_N 	N 	0.724	0.9479	0.9871	1.002
Mof_H 	H 	0.6592	0.8805	0.9377	-0.142
Mof_H 	H 	0.7017	0.0016	0.0337	-0.185
Mof_C 	C 	0.0391	0.9209	0.9271	0.771
Mof_H 	H 	0.0665	0.8682	0.8758	-1.364
Mof_N 	N 	0.9085	0.1582	0.1426	1.395
Mof_H 	H 	0.9639	0.2302	0.1915	-0.245
Mof_H 	H 	0.8211	0.1344	0.1362	-0.321
Mof_O 	O 	0.4996	0.3281	0.5962	-0.485
Mof_O 	O 	0.4296	0.2779	0.4031	-0.456
Mof_C 	C 	0.4695	0.2533	0.4988	0.529
Mof_C 	C 	0.4831	0.1208	0.4974	-0.344
Mof_C 	C 	0.4872	0.0399	0.3999	1.124
Mof_H 	H 	0.5224	0.9335	0.668	-1.55
Mof_N 	N 	0.5173	0.9207	0.7024	1.383
Mof_H 	H 	0.523	0.8422	0.7054	-0.067
Mof_H 	H 	0.5145	0.9748	0.763	0.087
Mof_H 	H 	0.473	0.1562	0.3017	-0.133
Mof_C 	C 	0.49	0.025	0.2	-0.497
Mof_O 	O 	0.478	0.91	0.16	-0.036
Mof_C 	C 	0.541	0.11	0.152	0.176
Mof_C 	C 	0.4945	0.0794	0.5954	-0.447
Mof_H 	H 	0.4897	0.1333	0.6603	0.209
Mof_O 	O 	0.3792	0.563	0.6749	-0.44
Mof_O 	O 	0.3462	0.4971	0.492	-0.53
Mof_C 	C 	0.2984	0.5257	0.5679	0.447
Mof_C 	C 	0.1448	0.5133	0.5337	-0.197
Mof_C 	C 	0.0906	0.5589	0.6153	0.402
Mof_H 	H 	0.8484	0.4012	0.3062	-0.564
Mof_N 	N 	0.1711	0.6181	0.727	0.467
Mof_H 	H 	0.1321	0.6462	0.7744	-0.054
Mof_H 	H 	0.2628	0.6289	0.7529	-0.013
Mof_C 	C 	0.0544	0.4555	0.4208	-0.156
Mof_H 	H 	0.0912	0.4244	0.3659	0.11
Mof_O 	O 	0.7923	0.4402	0.739	-0.136
Mof_C 	C 	0.8082	0.3409	0.7375	0.218
Mof_H 	H 	0.74	0.2773	0.6721	-0.033
Mof_N 	N 	0.9011	0.2983	0.8074	-0.096
Mof_C 	C 	0.015	0.379	0.913	0.114
Mof_C 	C 	0.898	0.1662	0.7856	-0.034
Mof_O 	O 	0.801	0.4653	0.7616	-0.212
Mof_C 	C 	0.8031	0.3665	0.78	0.015
Mof_H 	H 	0.7158	0.3058	0.7542	-0.012
Mof_N 	N 	0.9195	0.3344	0.8346	-0.073
Mof_C 	C 	0.059	0.413	0.879	-0.067
Mof_C 	C 	0.897	0.206	0.848	0.057
_end
