data_functionalizedCrystal
_audit_creation_method	'EQeq! by Chris Wilmer'
_symmetry_space_group_name_H-M	'P1'
_symmetry_Int_Tables_number	1
_symmetry_cell_setting	triclinic
loop_
_symmetry_equiv_pos_as_xyz
  x,y,z
_cell_length_a	14.4939
_cell_length_b	10.2595
_cell_length_c	18.6782
_cell_angle_alpha	90
_cell_angle_beta	98.991
_cell_angle_gamma	90
loop_
_atom_site_label
_atom_site_type_symbol
_atom_site_fract_x
_atom_site_fract_y
_atom_site_fract_z
_atom_site_charge
Mof_V 	V 	0.1549	0.884	0.0872	1.791
Mof_V 	V 	0.737	0.5543	0.7806	1.682
Mof_P 	P 	0.2174	0.8764	0.924	0.491
Mof_P 	P 	0.8352	0.8334	0.8316	0.442
Mof_K 	K 	0.3438	0.3059	0.0425	1.69
Mof_O 	O 	0.2086	0.9239	0.0001	-0.683
Mof_O 	O 	0.7579	0.731	0.8253	-0.713
Mof_O 	O 	0.8205	0.929	0.892	-0.71
Mof_O 	O 	0.2148	0.9977	0.8766	-0.737
Mof_O 	O 	0.8383	0.9036	0.7599	-0.57
Mof_O 	O 	0.3078	0.8001	0.9235	-0.567
Mof_O 	O 	0.0445	0.8723	0.0674	-0.8
Mof_O 	O 	0.1899	0.851	0.1908	-0.752
Mof_C 	C 	0.1204	0.7717	0.8914	-0.217
Mof_C 	C 	0.9453	0.7527	0.8564	-0.26
Mof_C 	C 	0.0284	0.8455	0.8753	-0.018
Mof_V 	V 	0.6549	0.384	0.0872	1.792
Mof_V 	V 	0.237	0.0543	0.7806	1.681
Mof_P 	P 	0.7174	0.3764	0.924	0.488
Mof_P 	P 	0.3352	0.3334	0.8316	0.443
Mof_K 	K 	0.8438	0.8059	0.0425	1.59
Mof_O 	O 	0.7086	0.4239	0.0001	-0.682
Mof_O 	O 	0.2579	0.231	0.8253	-0.71
Mof_O 	O 	0.3205	0.429	0.892	-0.719
Mof_O 	O 	0.7148	0.4977	0.8766	-0.748
Mof_O 	O 	0.3383	0.4036	0.7599	-0.572
Mof_O 	O 	0.8078	0.3001	0.9235	-0.566
Mof_O 	O 	0.5445	0.3723	0.0674	-0.808
Mof_O 	O 	0.6899	0.351	0.1908	-0.75
Mof_C 	C 	0.6204	0.2717	0.8914	-0.22
Mof_C 	C 	0.4453	0.2527	0.8564	-0.268
Mof_C 	C 	0.5284	0.3455	0.8753	-0.021
Mof_V 	V 	0.8451	0.884	0.4128	1.792
Mof_V 	V 	0.263	0.5543	0.7194	1.683
Mof_P 	P 	0.7826	0.8764	0.576	0.488
Mof_P 	P 	0.1648	0.8334	0.6684	0.443
Mof_K 	K 	0.6562	0.3059	0.4575	1.647
Mof_O 	O 	0.7914	0.9239	0.4999	-0.681
Mof_O 	O 	0.2421	0.731	0.6747	-0.711
Mof_O 	O 	0.1795	0.929	0.608	-0.716
Mof_O 	O 	0.7852	0.9977	0.6234	-0.743
Mof_O 	O 	0.1617	0.9036	0.7401	-0.57
Mof_O 	O 	0.6922	0.8001	0.5765	-0.567
Mof_O 	O 	0.9555	0.8723	0.4326	-0.805
Mof_O 	O 	0.8101	0.851	0.3092	-0.751
Mof_C 	C 	0.8796	0.7717	0.6086	-0.218
Mof_C 	C 	0.0547	0.7527	0.6436	-0.266
Mof_C 	C 	0.9716	0.8455	0.6247	-0.018
Mof_V 	V 	0.3451	0.384	0.4128	1.792
Mof_V 	V 	0.763	0.0543	0.7194	1.681
Mof_P 	P 	0.2826	0.3764	0.576	0.488
Mof_P 	P 	0.6648	0.3334	0.6684	0.443
Mof_K 	K 	0.1562	0.8059	0.4575	1.641
Mof_O 	O 	0.2914	0.4239	0.4999	-0.681
Mof_O 	O 	0.7421	0.231	0.6747	-0.712
Mof_O 	O 	0.6795	0.429	0.608	-0.717
Mof_O 	O 	0.2852	0.4977	0.6234	-0.746
Mof_O 	O 	0.6617	0.4036	0.7401	-0.572
Mof_O 	O 	0.1922	0.3001	0.5765	-0.567
Mof_O 	O 	0.4555	0.3723	0.4326	-0.805
Mof_O 	O 	0.3101	0.351	0.3092	-0.75
Mof_C 	C 	0.3796	0.2717	0.6086	-0.219
Mof_C 	C 	0.5547	0.2527	0.6436	-0.266
Mof_C 	C 	0.4716	0.3455	0.6247	-0.019
Mof_V 	V 	0.8451	0.116	0.9128	1.792
Mof_V 	V 	0.263	0.4457	0.2194	1.683
Mof_P 	P 	0.7826	0.1236	0.076	0.492
Mof_P 	P 	0.1648	0.1666	0.1684	0.443
Mof_K 	K 	0.6562	0.6941	0.9575	1.691
Mof_O 	O 	0.7914	0.0761	0.9999	-0.682
Mof_O 	O 	0.2421	0.269	0.1747	-0.713
Mof_O 	O 	0.1795	0.071	0.108	-0.71
Mof_O 	O 	0.7852	0.0023	0.1234	-0.737
Mof_O 	O 	0.1617	0.0964	0.2401	-0.57
Mof_O 	O 	0.6922	0.1999	0.0765	-0.567
Mof_O 	O 	0.9555	0.1277	0.9326	-0.8
Mof_O 	O 	0.8101	0.149	0.8092	-0.752
Mof_C 	C 	0.8796	0.2283	0.1086	-0.217
Mof_C 	C 	0.0547	0.2473	0.1436	-0.26
Mof_C 	C 	0.9716	0.1545	0.1247	-0.018
Mof_V 	V 	0.3451	0.616	0.9128	1.792
Mof_V 	V 	0.763	0.9457	0.2194	1.681
Mof_P 	P 	0.2826	0.6236	0.076	0.488
Mof_P 	P 	0.6648	0.6666	0.1684	0.443
Mof_K 	K 	0.1562	0.1941	0.9575	1.59
Mof_O 	O 	0.2914	0.5761	0.9999	-0.682
Mof_O 	O 	0.7421	0.769	0.1747	-0.71
Mof_O 	O 	0.6795	0.571	0.108	-0.719
Mof_O 	O 	0.2852	0.5023	0.1234	-0.748
Mof_O 	O 	0.6617	0.5964	0.2401	-0.572
Mof_O 	O 	0.1922	0.6999	0.0765	-0.566
Mof_O 	O 	0.4555	0.6277	0.9326	-0.808
Mof_O 	O 	0.3101	0.649	0.8092	-0.75
Mof_C 	C 	0.3796	0.7283	0.1086	-0.22
Mof_C 	C 	0.5547	0.7473	0.1436	-0.268
Mof_C 	C 	0.4716	0.6545	0.1247	-0.021
Mof_V 	V 	0.1549	0.116	0.5872	1.792
Mof_V 	V 	0.737	0.4457	0.2806	1.683
Mof_P 	P 	0.2174	0.1236	0.424	0.488
Mof_P 	P 	0.8352	0.1666	0.3316	0.443
Mof_K 	K 	0.3438	0.6941	0.5425	1.647
Mof_O 	O 	0.2086	0.0761	0.5001	-0.681
Mof_O 	O 	0.7579	0.269	0.3253	-0.711
Mof_O 	O 	0.8205	0.071	0.392	-0.716
Mof_O 	O 	0.2148	0.0023	0.3766	-0.743
Mof_O 	O 	0.8383	0.0964	0.2599	-0.57
Mof_O 	O 	0.3078	0.1999	0.4235	-0.567
Mof_O 	O 	0.0445	0.1277	0.5674	-0.805
Mof_O 	O 	0.1899	0.149	0.6908	-0.751
Mof_C 	C 	0.1204	0.2283	0.3914	-0.218
Mof_C 	C 	0.9453	0.2473	0.3564	-0.266
Mof_C 	C 	0.0284	0.1545	0.3753	-0.018
Mof_V 	V 	0.6549	0.616	0.5872	1.792
Mof_V 	V 	0.237	0.9457	0.2806	1.681
Mof_P 	P 	0.7174	0.6236	0.424	0.488
Mof_P 	P 	0.3352	0.6666	0.3316	0.443
Mof_K 	K 	0.8438	0.1941	0.5425	1.641
Mof_O 	O 	0.7086	0.5761	0.5001	-0.681
Mof_O 	O 	0.2579	0.769	0.3253	-0.712
Mof_O 	O 	0.3205	0.571	0.392	-0.717
Mof_O 	O 	0.7148	0.5023	0.3766	-0.746
Mof_O 	O 	0.3383	0.5964	0.2599	-0.572
Mof_O 	O 	0.8078	0.6999	0.4235	-0.567
Mof_O 	O 	0.5445	0.6277	0.5674	-0.805
Mof_O 	O 	0.6899	0.649	0.6908	-0.75
Mof_C 	C 	0.6204	0.7283	0.3914	-0.219
Mof_C 	C 	0.4453	0.7473	0.3564	-0.266
Mof_C 	C 	0.5284	0.6545	0.3753	-0.019
_end
