data_functionalizedCrystal
_audit_creation_method	'EQeq! by Chris Wilmer'
_symmetry_space_group_name_H-M	'P1'
_symmetry_Int_Tables_number	1
_symmetry_cell_setting	triclinic
loop_
_symmetry_equiv_pos_as_xyz
  x,y,z
_cell_length_a	24.598
_cell_length_b	7.5305
_cell_length_c	6.5472
_cell_angle_alpha	90
_cell_angle_beta	106.863
_cell_angle_gamma	90
loop_
_atom_site_label
_atom_site_type_symbol
_atom_site_fract_x
_atom_site_fract_y
_atom_site_fract_z
_atom_site_charge
Mof_O 	O 	0.9535	0.175	0.846	-0.509
Mof_O 	O 	0.9322	0.1382	0.516	-0.789
Mof_C 	C 	0.8558	0.231	0.643	-0.213
Mof_C 	C 	0.8165	0.188	0.432	-0.073
Mof_C 	C 	0.7197	0.182	0.21	-0.232
Mof_C 	C 	0.913	0.176	0.672	0.587
Mof_C 	C 	0.758	0.203	0.42	0.023
Mof_C 	C 	0.839	0.294	0.807	0.137
Mof_O 	O 	0.4535	0.675	0.846	-1.203
Mof_O 	O 	0.4322	0.6382	0.516	-1.352
Mof_C 	C 	0.3558	0.731	0.643	-0.383
Mof_C 	C 	0.3165	0.688	0.432	0.096
Mof_C 	C 	0.2197	0.682	0.21	-0.083
Mof_C 	C 	0.413	0.676	0.672	1.103
Mof_C 	C 	0.258	0.703	0.42	0.01
Mof_C 	C 	0.339	0.794	0.807	0.292
Mof_O 	O 	0.0465	0.175	0.654	-0.943
Mof_O 	O 	0.0678	0.1382	0.984	-0.485
Mof_C 	C 	0.1442	0.231	0.857	0.036
Mof_C 	C 	0.1835	0.188	0.068	-0.252
Mof_C 	C 	0.2803	0.182	0.29	-0.143
Mof_C 	C 	0.087	0.176	0.828	0.545
Mof_C 	C 	0.242	0.203	0.08	-0.229
Mof_C 	C 	0.161	0.294	0.693	0.013
Mof_O 	O 	0.5465	0.675	0.654	-1.569
Mof_O 	O 	0.5678	0.6382	0.984	-0.933
Mof_C 	C 	0.6442	0.731	0.857	-0.108
Mof_C 	C 	0.6835	0.688	0.068	-0.098
Mof_C 	C 	0.7803	0.682	0.29	0.01
Mof_C 	C 	0.587	0.676	0.828	1.034
Mof_C 	C 	0.742	0.703	0.08	-0.233
Mof_C 	C 	0.661	0.794	0.693	0.164
Mof_O 	O 	0.0465	0.825	0.154	-0.657
Mof_O 	O 	0.0678	0.8618	0.484	-0.642
Mof_C 	C 	0.1442	0.769	0.357	-0.231
Mof_C 	C 	0.1835	0.812	0.568	0.211
Mof_C 	C 	0.2803	0.818	0.79	0.114
Mof_C 	C 	0.087	0.824	0.328	0.662
Mof_C 	C 	0.242	0.797	0.58	-0.005
Mof_C 	C 	0.161	0.706	0.193	0.064
Mof_O 	O 	0.5465	0.325	0.154	-1.486
Mof_O 	O 	0.5678	0.3618	0.484	-1.375
Mof_C 	C 	0.6442	0.269	0.357	-0.439
Mof_C 	C 	0.6835	0.312	0.568	0.123
Mof_C 	C 	0.7803	0.318	0.79	0.025
Mof_C 	C 	0.587	0.324	0.328	1.061
Mof_C 	C 	0.742	0.297	0.58	-0.072
Mof_C 	C 	0.661	0.206	0.193	0.012
Mof_O 	O 	0.9535	0.825	0.346	-0.735
Mof_O 	O 	0.9322	0.8618	0.016	-0.552
Mof_C 	C 	0.8558	0.769	0.143	-0.49
Mof_C 	C 	0.8165	0.812	0.932	0.372
Mof_C 	C 	0.7197	0.818	0.71	0.016
Mof_C 	C 	0.913	0.824	0.172	0.734
Mof_C 	C 	0.758	0.797	0.92	0.241
Mof_C 	C 	0.839	0.706	0.307	0.2
Mof_O 	O 	0.4535	0.325	0.346	-1.693
Mof_O 	O 	0.4322	0.3618	0.016	-1.35
Mof_C 	C 	0.3558	0.269	0.143	-0.742
Mof_C 	C 	0.3165	0.312	0.932	0.317
Mof_C 	C 	0.2197	0.318	0.71	-0.074
Mof_C 	C 	0.413	0.324	0.172	1.168
Mof_C 	C 	0.258	0.297	0.92	0.181
Mof_C 	C 	0.339	0.206	0.307	0.153
Mof_Al	Al	-0	0	-0	1.965
Mof_Al	Al	0.5	0.5	-0	5.271
Mof_Al	Al	6.43733e-34	0	0.5	3.348
Mof_Al	Al	0.5	0.5	0.5	6.822
Mof_O 	O 	1.22441e-17	0.901	0.75	-0.843
Mof_O 	O 	0.5	0.401	0.75	-2.226
Mof_O 	O 	-3.06104e-18	0.099	0.25	-1.324
Mof_O 	O 	0.5	0.599	0.25	-2.344
_end
