data_functionalizedCrystal
_audit_creation_method	'EQeq! by Chris Wilmer'
_symmetry_space_group_name_H-M	'P1'
_symmetry_Int_Tables_number	1
_symmetry_cell_setting	triclinic
loop_
_symmetry_equiv_pos_as_xyz
  x,y,z
_cell_length_a	7.0404
_cell_length_b	13.0015
_cell_length_c	13.7338
_cell_angle_alpha	90
_cell_angle_beta	100.881
_cell_angle_gamma	90
loop_
_atom_site_label
_atom_site_type_symbol
_atom_site_fract_x
_atom_site_fract_y
_atom_site_fract_z
_atom_site_charge
Mof_La	La	0.79235	0.03844	0.95774	2.114
Mof_La	La	0.58678	0.96409	0.44074	2.285
Mof_S 	S 	0.2581	0.05736	0.18774	0.08
Mof_S 	S 	0.6321	0.29124	0.79814	0.111
Mof_S 	S 	0.5953	0.30682	0.04923	0.134
Mof_O 	O 	0.6583	0.9954	0.1116	-0.479
Mof_O 	O 	0.6411	0.9933	0.2695	-0.533
Mof_O 	O 	0.9216	0.9091	0.4269	-0.494
Mof_O 	O 	0.2423	0.9124	0.4607	-0.445
Mof_O 	O 	0.7335	0.972	0.7834	-0.392
Mof_O 	O 	0.673	0.9794	0.6197	-0.455
Mof_O 	O 	0.413	0.1127	0.4933	-0.538
Mof_O 	O 	0.3825	0.2829	0.4941	-0.471
Mof_O 	O 	0.4211	0.0253	0.9028	-0.464
Mof_O 	O 	0.1143	0.059	0.9088	-0.482
Mof_O 	O 	0.9271	0.2171	0.9954	-0.496
Mof_O 	O 	0.0004	0.3825	0.9924	-0.474
Mof_N 	N 	0.0258	0.0498	0.1507	-0.174
Mof_N 	N 	0.269	0.01	0.2987	-0.24
Mof_N 	N 	0.6849	0.1691	0.8011	-0.206
Mof_N 	N 	0.5365	0.2979	0.6834	-0.194
Mof_N 	N 	0.548	0.192	0.0033	-0.197
Mof_N 	N 	0.3716	0.3401	0.044	-0.18
Mof_C 	C 	0.948	0.0096	0.2248	-0.181
Mof_C 	C 	0.0906	0.9861	0.311	0.043
Mof_C 	C 	0.7328	0.9971	0.2007	0.522
Mof_C 	C 	0.079	0.9311	0.4076	0.394
Mof_C 	C 	0.6276	0.1304	0.7114	-0.033
Mof_C 	C 	0.5407	0.2051	0.6418	-0.077
Mof_C 	C 	0.6786	0.017	0.7033	0.32
Mof_C 	C 	0.4413	0.1987	0.5342	0.414
Mof_C 	C 	0.3578	0.1791	0.9817	-0.041
Mof_C 	C 	0.2558	0.265	0.0075	-0.072
Mof_C 	C 	0.2904	0.0796	0.9278	0.409
Mof_C 	C 	0.0434	0.2879	0.9968	0.443
Mof_La	La	0.20765	0.53844	0.04226	2.217
Mof_La	La	0.41322	0.46409	0.55926	2.216
Mof_S 	S 	0.7419	0.55736	0.81226	0.112
Mof_S 	S 	0.3679	0.79124	0.20186	0.118
Mof_S 	S 	0.4047	0.80682	0.95077	0.16
Mof_O 	O 	0.3417	0.4954	0.8884	-0.495
Mof_O 	O 	0.3589	0.4933	0.7305	-0.53
Mof_O 	O 	0.0784	0.4091	0.5731	-0.514
Mof_O 	O 	0.7577	0.4124	0.5393	-0.46
Mof_O 	O 	0.2665	0.472	0.2166	-0.489
Mof_O 	O 	0.327	0.4794	0.3803	-0.526
Mof_O 	O 	0.587	0.6127	0.5067	-0.505
Mof_O 	O 	0.6175	0.7829	0.5059	-0.469
Mof_O 	O 	0.5789	0.5253	0.0972	-0.453
Mof_O 	O 	0.8857	0.559	0.0912	-0.476
Mof_O 	O 	0.0729	0.7171	0.0046	-0.51
Mof_O 	O 	0.9996	0.8825	0.0076	-0.447
Mof_N 	N 	0.9742	0.5498	0.8493	-0.182
Mof_N 	N 	0.731	0.51	0.7013	-0.198
Mof_N 	N 	0.3151	0.6691	0.1989	-0.204
Mof_N 	N 	0.4635	0.7979	0.3166	-0.199
Mof_N 	N 	0.452	0.692	0.9967	-0.193
Mof_N 	N 	0.6284	0.8401	0.956	-0.171
Mof_C 	C 	0.052	0.5096	0.7752	-0.084
Mof_C 	C 	0.9094	0.4861	0.689	-0.047
Mof_C 	C 	0.2672	0.4971	0.7993	0.459
Mof_C 	C 	0.921	0.4311	0.5924	0.427
Mof_C 	C 	0.3724	0.6304	0.2886	-0.063
Mof_C 	C 	0.4593	0.7051	0.3582	-0.057
Mof_C 	C 	0.3214	0.517	0.2967	0.459
Mof_C 	C 	0.5587	0.6987	0.4658	0.407
Mof_C 	C 	0.6422	0.6791	0.0183	-0.061
Mof_C 	C 	0.7442	0.765	0.9925	-0.046
Mof_C 	C 	0.7096	0.5796	0.0722	0.418
Mof_C 	C 	0.9566	0.7879	0.0032	0.435
_end
