data_functionalizedCrystal
_audit_creation_method	'EQeq! by Chris Wilmer'
_symmetry_space_group_name_H-M	'P1'
_symmetry_Int_Tables_number	1
_symmetry_cell_setting	triclinic
loop_
_symmetry_equiv_pos_as_xyz
  x,y,z
_cell_length_a	14.053
_cell_length_b	14.053
_cell_length_c	29.781
_cell_angle_alpha	90
_cell_angle_beta	90
_cell_angle_gamma	90
loop_
_atom_site_label
_atom_site_type_symbol
_atom_site_fract_x
_atom_site_fract_y
_atom_site_fract_z
_atom_site_charge
Mof_Co	Co	0.42915	0.16248	0.08823	1.105
Mof_O 	O 	0.4235	0.3092	0.09251	-0.618
Mof_N 	N 	0.4223	0.1544	0.01789	-0.291
Mof_C 	C 	0.3998	0.1454	0.98151	0.149
Mof_N 	N 	0.3832	0.1311	0.93912	-0.192
Mof_N 	N 	0.2789	0.141	0.09002	-0.291
Mof_C 	C 	0.2951	0.1386	0.9252	0.147
Mof_C 	C 	0.3587	0.3602	0.0634	-0.002
Mof_Co	Co	0.92915	0.66248	0.58823	1.105
Mof_O 	O 	0.9235	0.8092	0.59251	-0.618
Mof_N 	N 	0.9223	0.6544	0.51789	-0.291
Mof_C 	C 	0.8998	0.6454	0.48151	0.149
Mof_N 	N 	0.8832	0.6311	0.43912	-0.192
Mof_N 	N 	0.7789	0.641	0.59002	-0.291
Mof_C 	C 	0.7951	0.6386	0.4252	0.147
Mof_C 	C 	0.8587	0.8602	0.5634	-0.003
Mof_Co	Co	0.07085	0.83752	0.58823	1.104
Mof_O 	O 	0.0765	0.6908	0.59251	-0.619
Mof_N 	N 	0.0777	0.8456	0.51789	-0.292
Mof_C 	C 	0.1002	0.8546	0.48151	0.148
Mof_N 	N 	0.1168	0.8689	0.43912	-0.193
Mof_N 	N 	0.2211	0.859	0.59002	-0.292
Mof_C 	C 	0.2049	0.8614	0.4252	0.146
Mof_C 	C 	0.1413	0.6398	0.5634	-0.003
Mof_Co	Co	0.57085	0.33752	0.08823	1.104
Mof_O 	O 	0.5765	0.1908	0.09251	-0.619
Mof_N 	N 	0.5777	0.3456	0.01789	-0.292
Mof_C 	C 	0.6002	0.3546	0.98151	0.148
Mof_N 	N 	0.6168	0.3689	0.93912	-0.193
Mof_N 	N 	0.7211	0.359	0.09002	-0.292
Mof_C 	C 	0.7049	0.3614	0.9252	0.146
Mof_C 	C 	0.6413	0.1398	0.0634	-0.003
Mof_Co	Co	0.07085	0.16248	0.91177	1.104
Mof_O 	O 	0.0765	0.3092	0.90749	-0.619
Mof_N 	N 	0.0777	0.1544	0.98211	-0.292
Mof_C 	C 	0.1002	0.1454	0.01849	0.148
Mof_N 	N 	0.1168	0.1311	0.06088	-0.193
Mof_N 	N 	0.2211	0.141	0.90998	-0.292
Mof_C 	C 	0.2049	0.1386	0.0748	0.146
Mof_C 	C 	0.1413	0.3602	0.9366	-0.003
Mof_Co	Co	0.57085	0.66248	0.41177	1.104
Mof_O 	O 	0.5765	0.8092	0.40749	-0.619
Mof_N 	N 	0.5777	0.6544	0.48211	-0.292
Mof_C 	C 	0.6002	0.6454	0.51849	0.148
Mof_N 	N 	0.6168	0.6311	0.56088	-0.193
Mof_N 	N 	0.7211	0.641	0.40998	-0.292
Mof_C 	C 	0.7049	0.6386	0.5748	0.147
Mof_C 	C 	0.6413	0.8602	0.4366	-0.003
Mof_Co	Co	0.42915	0.83752	0.41177	1.104
Mof_O 	O 	0.4235	0.6908	0.40749	-0.619
Mof_N 	N 	0.4223	0.8456	0.48211	-0.292
Mof_C 	C 	0.3998	0.8546	0.51849	0.148
Mof_N 	N 	0.3832	0.8689	0.56088	-0.193
Mof_N 	N 	0.2789	0.859	0.40998	-0.292
Mof_C 	C 	0.2951	0.8614	0.5748	0.146
Mof_C 	C 	0.3587	0.6398	0.4366	-0.003
Mof_Co	Co	0.92915	0.33752	0.91177	1.104
Mof_O 	O 	0.9235	0.1908	0.90749	-0.619
Mof_N 	N 	0.9223	0.3456	0.98211	-0.292
Mof_C 	C 	0.8998	0.3546	0.01849	0.148
Mof_N 	N 	0.8832	0.3689	0.06088	-0.193
Mof_N 	N 	0.7789	0.359	0.90998	-0.292
Mof_C 	C 	0.7951	0.3614	0.0748	0.147
Mof_C 	C 	0.8587	0.1398	0.9366	-0.003
Mof_Co	Co	0.91248	0.82085	0.66177	1.104
Mof_O 	O 	0.0592	0.8265	0.65749	-0.619
Mof_N 	N 	0.9044	0.8277	0.73211	-0.292
Mof_C 	C 	0.8954	0.8502	0.76849	0.148
Mof_N 	N 	0.8811	0.8668	0.81088	-0.193
Mof_N 	N 	0.891	0.9711	0.65998	-0.292
Mof_C 	C 	0.8886	0.9549	0.8248	0.146
Mof_C 	C 	0.1102	0.8913	0.6866	-0.003
Mof_Co	Co	0.41248	0.32085	0.16177	1.104
Mof_O 	O 	0.5592	0.3265	0.15749	-0.619
Mof_N 	N 	0.4044	0.3277	0.23211	-0.292
Mof_C 	C 	0.3954	0.3502	0.26849	0.148
Mof_N 	N 	0.3811	0.3668	0.31088	-0.193
Mof_N 	N 	0.391	0.4711	0.15998	-0.292
Mof_C 	C 	0.3886	0.4549	0.3248	0.147
Mof_C 	C 	0.6102	0.3913	0.1866	-0.003
Mof_Co	Co	0.58752	0.17915	0.16177	1.104
Mof_O 	O 	0.4408	0.1735	0.15749	-0.619
Mof_N 	N 	0.5956	0.1723	0.23211	-0.292
Mof_C 	C 	0.6046	0.1498	0.26849	0.148
Mof_N 	N 	0.6189	0.1332	0.31088	-0.193
Mof_N 	N 	0.609	0.0289	0.15998	-0.292
Mof_C 	C 	0.6114	0.0451	0.3248	0.146
Mof_C 	C 	0.3898	0.1087	0.1866	-0.003
Mof_Co	Co	0.08752	0.67915	0.66177	1.104
Mof_O 	O 	0.9408	0.6735	0.65749	-0.619
Mof_N 	N 	0.0956	0.6723	0.73211	-0.292
Mof_C 	C 	0.1046	0.6498	0.76849	0.148
Mof_N 	N 	0.1189	0.6332	0.81088	-0.193
Mof_N 	N 	0.109	0.5289	0.65998	-0.291
Mof_C 	C 	0.1114	0.5451	0.8248	0.147
Mof_C 	C 	0.8898	0.6087	0.6866	-0.003
Mof_Co	Co	0.58752	0.82085	0.33823	1.104
Mof_O 	O 	0.4408	0.8265	0.34251	-0.619
Mof_N 	N 	0.5956	0.8277	0.26789	-0.292
Mof_C 	C 	0.6046	0.8502	0.23151	0.148
Mof_N 	N 	0.6189	0.8668	0.18912	-0.193
Mof_N 	N 	0.609	0.9711	0.34002	-0.292
Mof_C 	C 	0.6114	0.9549	0.1752	0.146
Mof_C 	C 	0.3898	0.8913	0.3134	-0.003
Mof_Co	Co	0.08752	0.32085	0.83823	1.104
Mof_O 	O 	0.9408	0.3265	0.84251	-0.619
Mof_N 	N 	0.0956	0.3277	0.76789	-0.292
Mof_C 	C 	0.1046	0.3502	0.73151	0.148
Mof_N 	N 	0.1189	0.3668	0.68912	-0.193
Mof_N 	N 	0.109	0.4711	0.84002	-0.291
Mof_C 	C 	0.1114	0.4549	0.6752	0.147
Mof_C 	C 	0.8898	0.3913	0.8134	-0.003
Mof_Co	Co	0.91248	0.17915	0.83823	1.104
Mof_O 	O 	0.0592	0.1735	0.84251	-0.619
Mof_N 	N 	0.9044	0.1723	0.76789	-0.292
Mof_C 	C 	0.8954	0.1498	0.73151	0.148
Mof_N 	N 	0.8811	0.1332	0.68912	-0.193
Mof_N 	N 	0.891	0.0289	0.84002	-0.292
Mof_C 	C 	0.8886	0.0451	0.6752	0.146
Mof_C 	C 	0.1102	0.1087	0.8134	-0.003
Mof_Co	Co	0.41248	0.67915	0.33823	1.104
Mof_O 	O 	0.5592	0.6735	0.34251	-0.619
Mof_N 	N 	0.4044	0.6723	0.26789	-0.292
Mof_C 	C 	0.3954	0.6498	0.23151	0.148
Mof_N 	N 	0.3811	0.6332	0.18912	-0.193
Mof_N 	N 	0.391	0.5289	0.34002	-0.292
Mof_C 	C 	0.3886	0.5451	0.1752	0.147
Mof_C 	C 	0.6102	0.6087	0.3134	-0.003
Mof_Co	Co	0.08752	0.17915	0.33823	1.104
Mof_O 	O 	0.9408	0.1735	0.34251	-0.619
Mof_N 	N 	0.0956	0.1723	0.26789	-0.292
Mof_C 	C 	0.1046	0.1498	0.23151	0.148
Mof_N 	N 	0.1189	0.1332	0.18912	-0.193
Mof_N 	N 	0.109	0.0289	0.34002	-0.292
Mof_C 	C 	0.1114	0.0451	0.1752	0.146
Mof_C 	C 	0.8898	0.1087	0.3134	-0.003
Mof_Co	Co	0.58752	0.67915	0.83823	1.104
Mof_O 	O 	0.4408	0.6735	0.84251	-0.619
Mof_N 	N 	0.5956	0.6723	0.76789	-0.292
Mof_C 	C 	0.6046	0.6498	0.73151	0.148
Mof_N 	N 	0.6189	0.6332	0.68912	-0.193
Mof_N 	N 	0.609	0.5289	0.84002	-0.292
Mof_C 	C 	0.6114	0.5451	0.6752	0.147
Mof_C 	C 	0.3898	0.6087	0.8134	-0.003
Mof_Co	Co	0.41248	0.82085	0.83823	1.104
Mof_O 	O 	0.5592	0.8265	0.84251	-0.619
Mof_N 	N 	0.4044	0.8277	0.76789	-0.292
Mof_C 	C 	0.3954	0.8502	0.73151	0.148
Mof_N 	N 	0.3811	0.8668	0.68912	-0.193
Mof_N 	N 	0.391	0.9711	0.84002	-0.292
Mof_C 	C 	0.3886	0.9549	0.6752	0.146
Mof_C 	C 	0.6102	0.8913	0.8134	-0.003
Mof_Co	Co	0.91248	0.32085	0.33823	1.104
Mof_O 	O 	0.0592	0.3265	0.34251	-0.619
Mof_N 	N 	0.9044	0.3277	0.26789	-0.292
Mof_C 	C 	0.8954	0.3502	0.23151	0.148
Mof_N 	N 	0.8811	0.3668	0.18912	-0.193
Mof_N 	N 	0.891	0.4711	0.34002	-0.291
Mof_C 	C 	0.8886	0.4549	0.1752	0.147
Mof_C 	C 	0.1102	0.3913	0.3134	-0.003
Mof_Co	Co	0.41248	0.17915	0.66177	1.104
Mof_O 	O 	0.5592	0.1735	0.65749	-0.619
Mof_N 	N 	0.4044	0.1723	0.73211	-0.292
Mof_C 	C 	0.3954	0.1498	0.76849	0.148
Mof_N 	N 	0.3811	0.1332	0.81088	-0.193
Mof_N 	N 	0.391	0.0289	0.65998	-0.292
Mof_C 	C 	0.3886	0.0451	0.8248	0.146
Mof_C 	C 	0.6102	0.1087	0.6866	-0.003
Mof_Co	Co	0.91248	0.67915	0.16177	1.104
Mof_O 	O 	0.0592	0.6735	0.15749	-0.619
Mof_N 	N 	0.9044	0.6723	0.23211	-0.292
Mof_C 	C 	0.8954	0.6498	0.26849	0.148
Mof_N 	N 	0.8811	0.6332	0.31088	-0.193
Mof_N 	N 	0.891	0.5289	0.15998	-0.291
Mof_C 	C 	0.8886	0.5451	0.3248	0.147
Mof_C 	C 	0.1102	0.6087	0.1866	-0.003
Mof_Co	Co	0.08752	0.82085	0.16177	1.104
Mof_O 	O 	0.9408	0.8265	0.15749	-0.619
Mof_N 	N 	0.0956	0.8277	0.23211	-0.292
Mof_C 	C 	0.1046	0.8502	0.26849	0.148
Mof_N 	N 	0.1189	0.8668	0.31088	-0.193
Mof_N 	N 	0.109	0.9711	0.15998	-0.292
Mof_C 	C 	0.1114	0.9549	0.3248	0.146
Mof_C 	C 	0.8898	0.8913	0.1866	-0.003
Mof_Co	Co	0.58752	0.32085	0.66177	1.104
Mof_O 	O 	0.4408	0.3265	0.65749	-0.619
Mof_N 	N 	0.5956	0.3277	0.73211	-0.292
Mof_C 	C 	0.6046	0.3502	0.76849	0.148
Mof_N 	N 	0.6189	0.3668	0.81088	-0.193
Mof_N 	N 	0.609	0.4711	0.65998	-0.292
Mof_C 	C 	0.6114	0.4549	0.8248	0.147
Mof_C 	C 	0.3898	0.3913	0.6866	-0.003
Mof_Co	Co	0.57085	0.83752	0.91177	1.104
Mof_O 	O 	0.5765	0.6908	0.90749	-0.619
Mof_N 	N 	0.5777	0.8456	0.98211	-0.292
Mof_C 	C 	0.6002	0.8546	0.01849	0.148
Mof_N 	N 	0.6168	0.8689	0.06088	-0.193
Mof_N 	N 	0.7211	0.859	0.90998	-0.292
Mof_C 	C 	0.7049	0.8614	0.0748	0.146
Mof_C 	C 	0.6413	0.6398	0.9366	-0.003
Mof_Co	Co	0.07085	0.33752	0.41177	1.104
Mof_O 	O 	0.0765	0.1908	0.40749	-0.619
Mof_N 	N 	0.0777	0.3456	0.48211	-0.292
Mof_C 	C 	0.1002	0.3546	0.51849	0.148
Mof_N 	N 	0.1168	0.3689	0.56088	-0.193
Mof_N 	N 	0.2211	0.359	0.40998	-0.292
Mof_C 	C 	0.2049	0.3614	0.5748	0.147
Mof_C 	C 	0.1413	0.1398	0.4366	-0.003
Mof_Co	Co	0.92915	0.16248	0.41177	1.104
Mof_O 	O 	0.9235	0.3092	0.40749	-0.619
Mof_N 	N 	0.9223	0.1544	0.48211	-0.292
Mof_C 	C 	0.8998	0.1454	0.51849	0.148
Mof_N 	N 	0.8832	0.1311	0.56088	-0.193
Mof_N 	N 	0.7789	0.141	0.40998	-0.292
Mof_C 	C 	0.7951	0.1386	0.5748	0.146
Mof_C 	C 	0.8587	0.3602	0.4366	-0.003
Mof_Co	Co	0.42915	0.66248	0.91177	1.104
Mof_O 	O 	0.4235	0.8092	0.90749	-0.619
Mof_N 	N 	0.4223	0.6544	0.98211	-0.292
Mof_C 	C 	0.3998	0.6454	0.01849	0.148
Mof_N 	N 	0.3832	0.6311	0.06088	-0.193
Mof_N 	N 	0.2789	0.641	0.90998	-0.292
Mof_C 	C 	0.2951	0.6386	0.0748	0.146
Mof_C 	C 	0.3587	0.8602	0.9366	-0.003
Mof_Co	Co	0.92915	0.83752	0.08823	1.104
Mof_O 	O 	0.9235	0.6908	0.09251	-0.619
Mof_N 	N 	0.9223	0.8456	0.01789	-0.292
Mof_C 	C 	0.8998	0.8546	0.98151	0.148
Mof_N 	N 	0.8832	0.8689	0.93912	-0.193
Mof_N 	N 	0.7789	0.859	0.09002	-0.292
Mof_C 	C 	0.7951	0.8614	0.9252	0.146
Mof_C 	C 	0.8587	0.6398	0.0634	-0.003
Mof_Co	Co	0.42915	0.33752	0.58823	1.104
Mof_O 	O 	0.4235	0.1908	0.59251	-0.619
Mof_N 	N 	0.4223	0.3456	0.51789	-0.292
Mof_C 	C 	0.3998	0.3546	0.48151	0.148
Mof_N 	N 	0.3832	0.3689	0.43912	-0.193
Mof_N 	N 	0.2789	0.359	0.59002	-0.292
Mof_C 	C 	0.2951	0.3614	0.4252	0.147
Mof_C 	C 	0.3587	0.1398	0.5634	-0.003
Mof_Co	Co	0.57085	0.16248	0.58823	1.104
Mof_O 	O 	0.5765	0.3092	0.59251	-0.619
Mof_N 	N 	0.5777	0.1544	0.51789	-0.292
Mof_C 	C 	0.6002	0.1454	0.48151	0.148
Mof_N 	N 	0.6168	0.1311	0.43912	-0.193
Mof_N 	N 	0.7211	0.141	0.59002	-0.292
Mof_C 	C 	0.7049	0.1386	0.4252	0.146
Mof_C 	C 	0.6413	0.3602	0.5634	-0.003
Mof_Co	Co	0.07085	0.66248	0.08823	1.104
Mof_O 	O 	0.0765	0.8092	0.09251	-0.619
Mof_N 	N 	0.0777	0.6544	0.01789	-0.292
Mof_C 	C 	0.1002	0.6454	0.98151	0.148
Mof_N 	N 	0.1168	0.6311	0.93912	-0.193
Mof_N 	N 	0.2211	0.641	0.09002	-0.292
Mof_C 	C 	0.2049	0.6386	0.9252	0.147
Mof_C 	C 	0.1413	0.8602	0.0634	-0.003
_end
