data_functionalizedCrystal
_audit_creation_method	'EQeq! by Chris Wilmer'
_symmetry_space_group_name_H-M	'P1'
_symmetry_Int_Tables_number	1
_symmetry_cell_setting	triclinic
loop_
_symmetry_equiv_pos_as_xyz
  x,y,z
_cell_length_a	9.5261
_cell_length_b	15.77
_cell_length_c	4.3128
_cell_angle_alpha	90
_cell_angle_beta	97.767
_cell_angle_gamma	90
loop_
_atom_site_label
_atom_site_type_symbol
_atom_site_fract_x
_atom_site_fract_y
_atom_site_fract_z
_atom_site_charge
Mof_O 	O 	0.4074	0.6	0.9671	-0.549
Mof_O 	O 	0.1605	0.8447	0.5485	-0.406
Mof_H 	H 	0.746	0.544	0.062	0.34
Mof_N 	N 	0.4722	0.7337	0.1171	-0.325
Mof_H 	H 	0.536	0.715	0.261	0.153
Mof_N 	N 	0.3558	0.8556	0.9086	-0.193
Mof_C 	C 	0.3828	0.6788	0.9346	0.424
Mof_C 	C 	0.274	0.7173	0.7354	-0.445
Mof_H 	H 	0.2099	0.6835	0.6089	0.145
Mof_C 	C 	0.2585	0.8058	0.7207	0.36
Mof_C 	C 	0.4547	0.8175	0.0945	0.107
Mof_H 	H 	0.5183	0.8514	0.2221	-0.031
Mof_O 	O 	0.9074	0.1	0.9671	-0.439
Mof_O 	O 	0.6605	0.3447	0.5485	-0.419
Mof_H 	H 	0.246	0.044	0.062	0.344
Mof_N 	N 	0.9722	0.2337	0.1171	-0.259
Mof_H 	H 	0.036	0.215	0.261	0.063
Mof_N 	N 	0.8558	0.3556	0.9086	-0.224
Mof_C 	C 	0.8828	0.1788	0.9346	0.424
Mof_C 	C 	0.774	0.2173	0.7354	-0.436
Mof_H 	H 	0.7099	0.1835	0.6089	0.163
Mof_C 	C 	0.7585	0.3058	0.7207	0.378
Mof_C 	C 	0.9547	0.3175	0.0945	0.318
Mof_H 	H 	0.0183	0.3514	0.2221	-0.194
Mof_O 	O 	0.4074	0.4	0.9671	-0.548
Mof_O 	O 	0.1605	0.1553	0.5485	-0.418
Mof_H 	H 	0.746	0.456	0.062	0.341
Mof_N 	N 	0.4722	0.2663	0.1171	-0.326
Mof_H 	H 	0.536	0.285	0.261	0.153
Mof_N 	N 	0.3558	0.1444	0.9086	-0.203
Mof_C 	C 	0.3828	0.3212	0.9346	0.424
Mof_C 	C 	0.274	0.2827	0.7354	-0.447
Mof_H 	H 	0.2099	0.3165	0.6089	0.146
Mof_C 	C 	0.2585	0.1942	0.7207	0.36
Mof_C 	C 	0.4547	0.1825	0.0945	0.109
Mof_H 	H 	0.5183	0.1486	0.2221	-0.043
Mof_O 	O 	0.9074	0.9	0.9671	-0.412
Mof_O 	O 	0.6605	0.6553	0.5485	-0.418
Mof_H 	H 	0.246	0.956	0.062	0.384
Mof_N 	N 	0.9722	0.7663	0.1171	-0.261
Mof_H 	H 	0.036	0.785	0.261	0.067
Mof_N 	N 	0.8558	0.6444	0.9086	-0.223
Mof_C 	C 	0.8828	0.8212	0.9346	0.423
Mof_C 	C 	0.774	0.7827	0.7354	-0.433
Mof_H 	H 	0.7099	0.8165	0.6089	0.168
Mof_C 	C 	0.7585	0.6942	0.7207	0.378
Mof_C 	C 	0.9547	0.6825	0.0945	0.315
Mof_H 	H 	0.0183	0.6486	0.2221	-0.192
Mof_Ba	Ba	0.5	0.5	0.5	1.796
Mof_O 	O 	0.6945	0.5	0.0703	-0.922
Mof_Ba	Ba	5.53422e-18	1.22884e-33	0.5	1.447
Mof_O 	O 	0.1945	1.53606e-34	0.0703	-0.964
_end
