data_functionalizedCrystal
_audit_creation_method	'EQeq! by Chris Wilmer'
_symmetry_space_group_name_H-M	'P1'
_symmetry_Int_Tables_number	1
_symmetry_cell_setting	triclinic
loop_
_symmetry_equiv_pos_as_xyz
  x,y,z
_cell_length_a	11.8401
_cell_length_b	6.824
_cell_length_c	17.4619
_cell_angle_alpha	90
_cell_angle_beta	93.816
_cell_angle_gamma	90
loop_
_atom_site_label
_atom_site_type_symbol
_atom_site_fract_x
_atom_site_fract_y
_atom_site_fract_z
_atom_site_charge
Mof_N 	N 	0.615	0.808	0.1088	0.06
Mof_N 	N 	0.5759	0.0764	0.1789	-0.238
Mof_O 	O 	0.601	0.462	0.2843	-0.386
Mof_O 	O 	0.688	0.232	0.3548	-0.174
Mof_C 	C 	0.677	0.403	0.333	0.273
Mof_C 	C 	0.75	0.56	0.37	-0.088
Mof_C 	C 	0.757	0.75	0.348	-0.104
Mof_H 	H 	0.7122	0.7997	0.3058	0.006
Mof_C 	C 	0.83	0.881	0.388	-0.182
Mof_H 	H 	0.835	0.0111	0.3735	0.109
Mof_C 	C 	0.9	0.81	0.451	0.092
Mof_C 	C 	0.89	0.619	0.473	-0.001
Mof_H 	H 	0.9348	0.5736	0.5147	-0.009
Mof_C 	C 	0.818	0.495	0.432	0.151
Mof_H 	H 	0.8141	0.3639	0.4471	-0.014
Mof_C 	C 	0.981	0.927	0.501	-0.057
Mof_H 	H 	0.0055	0.8576	0.5452	0.047
Mof_C 	C 	0.541	0.887	0.1585	-0.172
Mof_H 	H 	0.4771	0.8246	0.1755	0.083
Mof_C 	C 	0.674	0.116	0.142	-0.001
Mof_H 	H 	0.7158	0.2316	0.1453	0.018
Mof_C 	C 	0.7	0.95	0.1	0.067
Mof_H 	H 	0.7599	0.9351	0.0676	0.024
Mof_C 	C 	0.598	0.61	0.0771	-0.637
Mof_H 	H 	0.6669	0.5705	0.0539	0.193
Mof_H 	H 	0.5875	0.5201	0.1192	0.225
Mof_C 	C 	0.507	0.588	0.022	-0.047
Mof_H 	H 	0.5101	0.6959	0.9864	-0.351
Mof_H 	H 	0.4379	0.605	0.0487	-0.017
Mof_N 	N 	0.57	0.89	0.072	-0.233
Mof_O 	O 	0.618	0.335	0.323	-0.408
Mof_O 	O 	0.657	0.528	0.233	-0.22
Mof_C 	C 	0.673	0.473	0.301	0.397
Mof_C 	C 	0.503	0.971	0.127	0.247
Mof_H 	H 	0.4256	0.9563	0.1298	-0.055
Mof_C 	C 	0.69	0.06	0.156	-0.007
Mof_H 	H 	0.7505	0.1205	0.1802	0.023
Mof_C 	C 	0.68	0.95	0.09	-0.042
Mof_H 	H 	0.7435	0.9148	0.0602	-0.002
Mof_C 	C 	0.52	0.768	0.009	0.786
Mof_H 	H 	0.4403	0.8004	0.0006	-0.155
Mof_H 	H 	0.5559	0.8012	0.962	-0.117
Mof_C 	C 	0.53	0.61	0.019	-0.037
Mof_H 	H 	0.5153	0.5965	0.0728	0.224
Mof_H 	H 	0.609	0.5872	0.016	0.127
Mof_C 	C 	0.957	0.02	0.471	-0.028
Mof_H 	H 	0.945	0.1535	0.4574	0.006
Mof_C 	C 	0.862	0.69	0.468	-0.165
Mof_H 	H 	0.8929	0.6628	0.5174	0.081
Mof_C 	C 	0.75	0.6	0.35	-0.058
Mof_C 	C 	0.88	0.87	0.433	0.052
Mof_C 	C 	0.793	0.55	0.428	-0.073
Mof_H 	H 	0.7773	0.4358	0.4509	-0.007
Mof_C 	C 	0.84	0.91	0.36	0.021
Mof_H 	H 	0.8556	0.0289	0.3376	-0.028
Mof_C 	C 	0.772	0.77	0.321	0.187
Mof_H 	H 	0.7414	0.8019	0.2717	-0.016
Mof_N 	N 	0.385	0.808	0.3912	0.057
Mof_N 	N 	0.4241	0.0764	0.3211	-0.238
Mof_O 	O 	0.399	0.462	0.2157	-0.386
Mof_O 	O 	0.312	0.232	0.1452	-0.174
Mof_C 	C 	0.323	0.403	0.167	0.273
Mof_C 	C 	0.25	0.56	0.13	-0.088
Mof_C 	C 	0.243	0.75	0.152	-0.104
Mof_H 	H 	0.2878	0.7997	0.1942	0.005
Mof_C 	C 	0.17	0.881	0.112	-0.183
Mof_H 	H 	0.165	0.0111	0.1265	0.11
Mof_C 	C 	0.1	0.81	0.049	0.094
Mof_C 	C 	0.11	0.619	0.027	-0.002
Mof_H 	H 	0.0652	0.5736	0.9853	-0.009
Mof_C 	C 	0.182	0.495	0.068	0.152
Mof_H 	H 	0.1859	0.3639	0.0529	-0.014
Mof_C 	C 	0.019	0.927	0.999	-0.053
Mof_H 	H 	0.9945	0.8576	0.9548	0.046
Mof_C 	C 	0.459	0.887	0.3415	-0.162
Mof_H 	H 	0.5229	0.8246	0.3245	0.08
Mof_C 	C 	0.326	0.116	0.358	-0.002
Mof_H 	H 	0.2842	0.2316	0.3547	0.018
Mof_C 	C 	0.3	0.95	0.4	0.067
Mof_H 	H 	0.2401	0.9351	0.4324	0.024
Mof_C 	C 	0.402	0.61	0.4229	-0.632
Mof_H 	H 	0.3331	0.5705	0.4461	0.191
Mof_H 	H 	0.4125	0.5201	0.3808	0.223
Mof_C 	C 	0.493	0.588	0.478	-0.047
Mof_H 	H 	0.4899	0.6959	0.5136	-0.346
Mof_H 	H 	0.5621	0.605	0.4513	-0.017
Mof_N 	N 	0.43	0.89	0.428	-0.23
Mof_O 	O 	0.382	0.335	0.177	-0.408
Mof_O 	O 	0.343	0.528	0.267	-0.22
Mof_C 	C 	0.327	0.473	0.199	0.397
Mof_C 	C 	0.497	0.971	0.373	0.237
Mof_H 	H 	0.5744	0.9563	0.3702	-0.051
Mof_C 	C 	0.31	0.06	0.344	-0.007
Mof_H 	H 	0.2495	0.1205	0.3198	0.023
Mof_C 	C 	0.32	0.95	0.41	-0.041
Mof_H 	H 	0.2565	0.9148	0.4398	-0.001
Mof_C 	C 	0.48	0.768	0.491	0.776
Mof_H 	H 	0.5597	0.8004	0.4994	-0.152
Mof_H 	H 	0.4441	0.8012	0.538	-0.115
Mof_C 	C 	0.47	0.61	0.481	-0.038
Mof_H 	H 	0.4847	0.5965	0.4272	0.223
Mof_H 	H 	0.391	0.5872	0.484	0.127
Mof_C 	C 	0.043	0.02	0.029	-0.031
Mof_H 	H 	0.055	0.1535	0.0426	0.007
Mof_C 	C 	0.138	0.69	0.032	-0.164
Mof_H 	H 	0.1071	0.6628	0.9826	0.081
Mof_C 	C 	0.25	0.6	0.15	-0.058
Mof_C 	C 	0.12	0.87	0.067	0.05
Mof_C 	C 	0.207	0.55	0.072	-0.072
Mof_H 	H 	0.2227	0.4358	0.0491	-0.007
Mof_C 	C 	0.16	0.91	0.14	0.022
Mof_H 	H 	0.1444	0.0289	0.1624	-0.028
Mof_C 	C 	0.228	0.77	0.179	0.188
Mof_H 	H 	0.2586	0.8019	0.2283	-0.016
Mof_N 	N 	0.385	0.192	0.8912	0.06
Mof_N 	N 	0.4241	0.9236	0.8211	-0.238
Mof_O 	O 	0.399	0.538	0.7157	-0.386
Mof_O 	O 	0.312	0.768	0.6452	-0.174
Mof_C 	C 	0.323	0.597	0.667	0.273
Mof_C 	C 	0.25	0.44	0.63	-0.088
Mof_C 	C 	0.243	0.25	0.652	-0.104
Mof_H 	H 	0.2878	0.2003	0.6942	0.006
Mof_C 	C 	0.17	0.119	0.612	-0.182
Mof_H 	H 	0.165	0.9889	0.6265	0.109
Mof_C 	C 	0.1	0.19	0.549	0.092
Mof_C 	C 	0.11	0.381	0.527	-0.001
Mof_H 	H 	0.0652	0.4264	0.4853	-0.009
Mof_C 	C 	0.182	0.505	0.568	0.151
Mof_H 	H 	0.1859	0.6361	0.5529	-0.014
Mof_C 	C 	0.019	0.073	0.499	-0.057
Mof_H 	H 	0.9945	0.1424	0.4548	0.047
Mof_C 	C 	0.459	0.113	0.8415	-0.172
Mof_H 	H 	0.5229	0.1754	0.8245	0.083
Mof_C 	C 	0.326	0.884	0.858	-0.001
Mof_H 	H 	0.2842	0.7684	0.8547	0.018
Mof_C 	C 	0.3	0.05	0.9	0.067
Mof_H 	H 	0.2401	0.0649	0.9324	0.024
Mof_C 	C 	0.402	0.39	0.9229	-0.637
Mof_H 	H 	0.3331	0.4295	0.9461	0.193
Mof_H 	H 	0.4125	0.4799	0.8808	0.225
Mof_C 	C 	0.493	0.412	0.978	-0.047
Mof_H 	H 	0.4899	0.3041	0.0136	-0.351
Mof_H 	H 	0.5621	0.395	0.9513	-0.017
Mof_N 	N 	0.43	0.11	0.928	-0.233
Mof_O 	O 	0.382	0.665	0.677	-0.408
Mof_O 	O 	0.343	0.472	0.767	-0.22
Mof_C 	C 	0.327	0.527	0.699	0.397
Mof_C 	C 	0.497	0.029	0.873	0.247
Mof_H 	H 	0.5744	0.0437	0.8702	-0.055
Mof_C 	C 	0.31	0.94	0.844	-0.007
Mof_H 	H 	0.2495	0.8795	0.8198	0.023
Mof_C 	C 	0.32	0.05	0.91	-0.042
Mof_H 	H 	0.2565	0.0852	0.9398	-0.002
Mof_C 	C 	0.48	0.232	0.991	0.786
Mof_H 	H 	0.5597	0.1996	0.9994	-0.155
Mof_H 	H 	0.4441	0.1988	0.038	-0.117
Mof_C 	C 	0.47	0.39	0.981	-0.037
Mof_H 	H 	0.4847	0.4035	0.9272	0.224
Mof_H 	H 	0.391	0.4128	0.984	0.127
Mof_C 	C 	0.043	0.98	0.529	-0.028
Mof_H 	H 	0.055	0.8465	0.5426	0.006
Mof_C 	C 	0.138	0.31	0.532	-0.165
Mof_H 	H 	0.1071	0.3372	0.4826	0.081
Mof_C 	C 	0.25	0.4	0.65	-0.058
Mof_C 	C 	0.12	0.13	0.567	0.052
Mof_C 	C 	0.207	0.45	0.572	-0.073
Mof_H 	H 	0.2227	0.5642	0.5491	-0.007
Mof_C 	C 	0.16	0.09	0.64	0.021
Mof_H 	H 	0.1444	0.9711	0.6624	-0.028
Mof_C 	C 	0.228	0.23	0.679	0.187
Mof_H 	H 	0.2586	0.1981	0.7283	-0.016
Mof_N 	N 	0.615	0.192	0.6088	0.057
Mof_N 	N 	0.5759	0.9236	0.6789	-0.238
Mof_O 	O 	0.601	0.538	0.7843	-0.386
Mof_O 	O 	0.688	0.768	0.8548	-0.174
Mof_C 	C 	0.677	0.597	0.833	0.273
Mof_C 	C 	0.75	0.44	0.87	-0.088
Mof_C 	C 	0.757	0.25	0.848	-0.104
Mof_H 	H 	0.7122	0.2003	0.8058	0.005
Mof_C 	C 	0.83	0.119	0.888	-0.183
Mof_H 	H 	0.835	0.9889	0.8735	0.11
Mof_C 	C 	0.9	0.19	0.951	0.094
Mof_C 	C 	0.89	0.381	0.973	-0.002
Mof_H 	H 	0.9348	0.4264	0.0147	-0.009
Mof_C 	C 	0.818	0.505	0.932	0.152
Mof_H 	H 	0.8141	0.6361	0.9471	-0.014
Mof_C 	C 	0.981	0.073	0.001	-0.053
Mof_H 	H 	0.0055	0.1424	0.0452	0.046
Mof_C 	C 	0.541	0.113	0.6585	-0.162
Mof_H 	H 	0.4771	0.1754	0.6755	0.08
Mof_C 	C 	0.674	0.884	0.642	-0.002
Mof_H 	H 	0.7158	0.7684	0.6453	0.018
Mof_C 	C 	0.7	0.05	0.6	0.067
Mof_H 	H 	0.7599	0.0649	0.5676	0.024
Mof_C 	C 	0.598	0.39	0.5771	-0.632
Mof_H 	H 	0.6669	0.4295	0.5539	0.191
Mof_H 	H 	0.5875	0.4799	0.6192	0.223
Mof_C 	C 	0.507	0.412	0.522	-0.047
Mof_H 	H 	0.5101	0.3041	0.4864	-0.346
Mof_H 	H 	0.4379	0.395	0.5487	-0.017
Mof_N 	N 	0.57	0.11	0.572	-0.23
Mof_O 	O 	0.618	0.665	0.823	-0.408
Mof_O 	O 	0.657	0.472	0.733	-0.22
Mof_C 	C 	0.673	0.527	0.801	0.397
Mof_C 	C 	0.503	0.029	0.627	0.237
Mof_H 	H 	0.4256	0.0437	0.6298	-0.051
Mof_C 	C 	0.69	0.94	0.656	-0.007
Mof_H 	H 	0.7505	0.8795	0.6802	0.023
Mof_C 	C 	0.68	0.05	0.59	-0.041
Mof_H 	H 	0.7435	0.0852	0.5602	-0.001
Mof_C 	C 	0.52	0.232	0.509	0.776
Mof_H 	H 	0.4403	0.1996	0.5006	-0.152
Mof_H 	H 	0.5559	0.1988	0.462	-0.115
Mof_C 	C 	0.53	0.39	0.519	-0.038
Mof_H 	H 	0.5153	0.4035	0.5728	0.223
Mof_H 	H 	0.609	0.4128	0.516	0.127
Mof_C 	C 	0.957	0.98	0.971	-0.031
Mof_H 	H 	0.945	0.8465	0.9574	0.007
Mof_C 	C 	0.862	0.31	0.968	-0.164
Mof_H 	H 	0.8929	0.3372	0.0174	0.081
Mof_C 	C 	0.75	0.4	0.85	-0.058
Mof_C 	C 	0.88	0.13	0.933	0.05
Mof_C 	C 	0.793	0.45	0.928	-0.072
Mof_H 	H 	0.7773	0.5642	0.9509	-0.007
Mof_C 	C 	0.84	0.09	0.86	0.022
Mof_H 	H 	0.8556	0.9711	0.8376	-0.028
Mof_C 	C 	0.772	0.23	0.821	0.188
Mof_H 	H 	0.7414	0.1981	0.7717	-0.016
Mof_Zn	Zn	0.5	0.2499	0.25	1.255
Mof_Zn	Zn	0.5	0.7501	0.75	1.255
_end
