data_functionalizedCrystal
_audit_creation_method	'EQeq! by Chris Wilmer'
_symmetry_space_group_name_H-M	'P1'
_symmetry_Int_Tables_number	1
_symmetry_cell_setting	triclinic
loop_
_symmetry_equiv_pos_as_xyz
  x,y,z
_cell_length_a	8.688
_cell_length_b	18.2186
_cell_length_c	18.2186
_cell_angle_alpha	120
_cell_angle_beta	90
_cell_angle_gamma	90
loop_
_atom_site_label
_atom_site_type_symbol
_atom_site_fract_x
_atom_site_fract_y
_atom_site_fract_z
_atom_site_charge
Mof_Na	Na	0.82368	0.36165	0.72521	1.468
Mof_Na	Na	0.82161	0.25908	0.51105	1.886
Mof_Na	Na	0.15701	0.36356	0.63835	1.764
Mof_Na	Na	0.15494	0.25197	0.74092	2.148
Mof_Na	Na	0.49035	0.27479	0.63644	1.614
Mof_Na	Na	0.48828	0.48895	0.74803	2.042
Mof_Na	Na	0.32368	0.63835	0.27479	1.704
Mof_Na	Na	0.32161	0.74092	0.48895	2.066
Mof_Na	Na	0.65701	0.63644	0.36165	1.636
Mof_Na	Na	0.65494	0.74803	0.25908	2.035
Mof_Na	Na	0.99035	0.72521	0.36356	1.357
Mof_Na	Na	0.98828	0.51105	0.25197	1.792
Mof_H 	H 	0.8835	0.0564	0.4923	-0.059
Mof_H 	H 	0.5528	0.8753	0.6215	-0.007
Mof_H 	H 	0.6564	0.1631	0.7547	-0.022
Mof_H 	H 	0.4737	0.9644	0.7569	-0.026
Mof_H 	H 	0.5252	0.1077	0.8228	0.02
Mof_H 	H 	0.8347	0.9135	0.4252	-0.108
Mof_H 	H 	0.21683	0.4359	0.9436	-0.084
Mof_H 	H 	0.88613	0.7462	0.1247	-0.104
Mof_H 	H 	0.98973	0.5916	0.8369	0.07
Mof_H 	H 	0.80703	0.7925	0.0356	0.051
Mof_H 	H 	0.85853	0.7151	0.8923	-0.077
Mof_H 	H 	0.16803	0.5117	0.0865	-0.051
Mof_H 	H 	0.55017	0.5077	0.5641	-0.047
Mof_H 	H 	0.21947	0.3785	0.2538	-0.001
Mof_H 	H 	0.32307	0.2453	0.4084	-0.011
Mof_H 	H 	0.14037	0.2431	0.2075	-0.001
Mof_H 	H 	0.19187	0.1772	0.2849	0.019
Mof_H 	H 	0.50137	0.5748	0.4883	-0.094
Mof_H 	H 	0.3835	0.9436	0.5077	-0.04
Mof_H 	H 	0.0528	0.1247	0.3785	0.06
Mof_H 	H 	0.1564	0.8369	0.2453	-0.039
Mof_H 	H 	0.9737	0.0356	0.2431	-0.171
Mof_H 	H 	0.0252	0.8923	0.1772	0.102
Mof_H 	H 	0.3347	0.0865	0.5748	-0.102
Mof_H 	H 	0.71683	0.5641	0.0564	-0.072
Mof_H 	H 	0.38613	0.2538	0.8753	-0.044
Mof_H 	H 	0.48973	0.4084	0.1631	0.016
Mof_H 	H 	0.30703	0.2075	0.9644	0.017
Mof_H 	H 	0.35853	0.2849	0.1077	-0.018
Mof_H 	H 	0.66803	0.4883	0.9135	-0.079
Mof_H 	H 	0.05017	0.4923	0.4359	0.054
Mof_H 	H 	0.71947	0.6215	0.7462	-0.013
Mof_H 	H 	0.82307	0.7547	0.5916	-0.025
Mof_H 	H 	0.64037	0.7569	0.7925	-0.023
Mof_H 	H 	0.69187	0.8228	0.7151	0.015
Mof_H 	H 	0.00137	0.4252	0.5117	-0.021
Mof_C 	C 	0.806	0.18149	0.6409	0.575
Mof_C 	C 	0.7748	0.08731	0.60051	-0.236
Mof_C 	C 	0.6585	0.96417	0.60114	0.067
Mof_C 	C 	0.6923	0.05301	0.64342	-0.024
Mof_C 	C 	0.8268	0.03435	0.5201	-0.054
Mof_C 	C 	0.5751	0.93285	0.64708	-0.14
Mof_C 	C 	0.6376	0.10511	0.72718	-0.065
Mof_C 	C 	0.5278	0.9861	0.7279	-0.013
Mof_C 	C 	0.559	0.0723	0.7676	-0.127
Mof_C 	C 	0.796	0.94787	0.47946	0.044
Mof_C 	C 	0.7111	0.91117	0.51585	-0.288
Mof_C 	C 	0.6716	0.81838	0.46166	0.597
Mof_C 	C 	0.13933	0.45941	0.81851	0.624
Mof_C 	C 	0.10813	0.5132	0.91269	-0.353
Mof_C 	C 	0.99183	0.63697	0.03583	-0.228
Mof_C 	C 	0.02563	0.59041	0.94699	0.289
Mof_C 	C 	0.16013	0.48575	0.96565	0.076
Mof_C 	C 	0.90843	0.71423	0.06715	0.092
Mof_C 	C 	0.97093	0.62207	0.89489	-0.383
Mof_C 	C 	0.86113	0.7418	0.0139	-0.263
Mof_C 	C 	0.89233	0.6953	0.9277	0.135
Mof_C 	C 	0.12933	0.53159	0.05213	-0.066
Mof_C 	C 	0.04443	0.60468	0.08883	-0.109
Mof_C 	C 	0.00493	0.64328	0.18162	0.641
Mof_C 	C 	0.47267	0.3591	0.54059	0.578
Mof_C 	C 	0.44147	0.39949	0.4868	-0.239
Mof_C 	C 	0.32517	0.39886	0.36303	0.046
Mof_C 	C 	0.35897	0.35658	0.40959	0.006
Mof_C 	C 	0.49347	0.4799	0.51425	-0.023
Mof_C 	C 	0.24177	0.35292	0.28577	-0.111
Mof_C 	C 	0.30427	0.27282	0.37793	-0.086
Mof_C 	C 	0.19447	0.2721	0.2582	-0.043
Mof_C 	C 	0.22567	0.2324	0.3047	-0.081
Mof_C 	C 	0.46267	0.52054	0.46841	0.029
Mof_C 	C 	0.37777	0.48415	0.39532	-0.265
Mof_C 	C 	0.33827	0.53834	0.35672	0.587
Mof_C 	C 	0.306	0.81851	0.3591	0.559
Mof_C 	C 	0.2748	0.91269	0.39949	-0.198
Mof_C 	C 	0.1585	0.03583	0.39886	0.124
Mof_C 	C 	0.1923	0.94699	0.35658	-0.051
Mof_C 	C 	0.3268	0.96565	0.4799	-0.039
Mof_C 	C 	0.0751	0.06715	0.35292	-0.273
Mof_C 	C 	0.1376	0.89489	0.27282	0.044
Mof_C 	C 	0.0278	0.0139	0.2721	0.23
Mof_C 	C 	0.059	0.9277	0.2324	-0.255
Mof_C 	C 	0.296	0.05213	0.52054	0.047
Mof_C 	C 	0.2111	0.08883	0.48415	-0.296
Mof_C 	C 	0.1716	0.18162	0.53834	0.61
Mof_C 	C 	0.63933	0.54059	0.18149	0.583
Mof_C 	C 	0.60813	0.4868	0.08731	-0.281
Mof_C 	C 	0.49183	0.36303	0.96417	-0.022
Mof_C 	C 	0.52563	0.40959	0.05301	0.07
Mof_C 	C 	0.66013	0.51425	0.03435	0.03
Mof_C 	C 	0.40843	0.28577	0.93285	-0.04
Mof_C 	C 	0.47093	0.37793	0.10511	-0.162
Mof_C 	C 	0.36113	0.2582	0.9861	-0.147
Mof_C 	C 	0.39233	0.3047	0.0723	0.016
Mof_C 	C 	0.62933	0.46841	0.94787	-0.037
Mof_C 	C 	0.54443	0.39532	0.91117	-0.236
Mof_C 	C 	0.50493	0.35672	0.81838	0.588
Mof_C 	C 	0.97267	0.6409	0.45941	0.451
Mof_C 	C 	0.94147	0.60051	0.5132	-0.171
Mof_C 	C 	0.82517	0.60114	0.63697	0.056
Mof_C 	C 	0.85897	0.64342	0.59041	-0.035
Mof_C 	C 	0.99347	0.5201	0.48575	-0.165
Mof_C 	C 	0.74177	0.64708	0.71423	-0.129
Mof_C 	C 	0.80427	0.72718	0.62207	-0.067
Mof_C 	C 	0.69447	0.7279	0.7418	-0.035
Mof_C 	C 	0.72567	0.7676	0.6953	-0.108
Mof_C 	C 	0.96267	0.47946	0.53159	-0.037
Mof_C 	C 	0.87777	0.51585	0.60468	-0.272
Mof_C 	C 	0.83827	0.46166	0.64328	0.598
Mof_O 	O 	0.7334	0.2195	0.60997	-1.021
Mof_O 	O 	0.8978	0.21587	0.70085	-0.906
Mof_O 	O 	0.7475	0.77665	0.39429	-1.04
Mof_O 	O 	0.5656	0.7867	0.4825	-0.865
Mof_O 	O 	0.06673	0.39047	0.7805	-1.032
Mof_O 	O 	0.23113	0.48498	0.78413	-0.888
Mof_O 	O 	0.08083	0.61764	0.22335	-1.007
Mof_O 	O 	0.89893	0.6958	0.2133	-0.889
Mof_O 	O 	0.40007	0.39003	0.60953	-1.059
Mof_O 	O 	0.56447	0.29915	0.51502	-0.856
Mof_O 	O 	0.41417	0.60571	0.38236	-1.074
Mof_O 	O 	0.23227	0.5175	0.3042	-0.808
Mof_O 	O 	0.2334	0.7805	0.39003	-0.996
Mof_O 	O 	0.3978	0.78413	0.29915	-0.872
Mof_O 	O 	0.2475	0.22335	0.60571	-1.09
Mof_O 	O 	0.0656	0.2133	0.5175	-0.826
Mof_O 	O 	0.56673	0.60953	0.2195	-1.056
Mof_O 	O 	0.73113	0.51502	0.21587	-0.853
Mof_O 	O 	0.58083	0.38236	0.77665	-1.05
Mof_O 	O 	0.39893	0.3042	0.7867	-0.871
Mof_O 	O 	0.90007	0.60997	0.39047	-0.978
Mof_O 	O 	0.06447	0.70085	0.48498	-0.755
Mof_O 	O 	0.91417	0.39429	0.61764	-1.09
Mof_O 	O 	0.73227	0.4825	0.6958	-0.854
_end
