data_functionalizedCrystal
_audit_creation_method	'EQeq! by Chris Wilmer'
_symmetry_space_group_name_H-M	'P1'
_symmetry_Int_Tables_number	1
_symmetry_cell_setting	triclinic
loop_
_symmetry_equiv_pos_as_xyz
  x,y,z
_cell_length_a	14.693
_cell_length_b	14.693
_cell_length_c	15.125
_cell_angle_alpha	90
_cell_angle_beta	90
_cell_angle_gamma	120
loop_
_atom_site_label
_atom_site_type_symbol
_atom_site_fract_x
_atom_site_fract_y
_atom_site_fract_z
_atom_site_charge
Mof_Tb	Tb	0.33333	0.66666	0.75	2.302
Mof_Tb	Tb	0.66667	0.33334	0.75	2.302
Mof_Tb	Tb	0.66667	0.33334	0.25	2.286
Mof_Tb	Tb	0.33333	0.66666	0.25	2.286
Mof_Cu	Cu	1.73742e-17	0.5	0.5	0.915
Mof_Cu	Cu	0.5	0	0.5	0.915
Mof_Cu	Cu	0.5	0.5	0.5	0.95
Mof_Cu	Cu	0.5	0.5	-0	0.891
Mof_Cu	Cu	0.5	0	-0	0.858
Mof_Cu	Cu	-0	0.5	-0	0.858
Mof_H 	H 	0.1604	0.7947	0.6598	0.101
Mof_H 	H 	0.0872	0.716	0.733	0.079
Mof_H 	H 	0.6343	0.8396	0.6598	0.118
Mof_H 	H 	0.6288	0.9128	0.733	0.128
Mof_H 	H 	0.2053	0.3657	0.6598	0.08
Mof_H 	H 	0.284	0.3712	0.733	0.088
Mof_H 	H 	0.8396	0.2053	0.6598	0.098
Mof_H 	H 	0.9128	0.284	0.733	0.117
Mof_H 	H 	0.3657	0.1604	0.6598	0.081
Mof_H 	H 	0.3712	0.0872	0.733	0.068
Mof_H 	H 	0.7947	0.6343	0.6598	0.12
Mof_H 	H 	0.716	0.6288	0.733	0.11
Mof_H 	H 	0.3657	0.2053	0.8402	0.096
Mof_H 	H 	0.3712	0.284	0.767	0.086
Mof_H 	H 	0.7947	0.1604	0.8402	0.116
Mof_H 	H 	0.716	0.0872	0.767	0.077
Mof_H 	H 	0.8396	0.6343	0.8402	0.133
Mof_H 	H 	0.9128	0.6288	0.767	0.127
Mof_H 	H 	0.6343	0.7947	0.8402	0.135
Mof_H 	H 	0.6288	0.716	0.767	0.108
Mof_H 	H 	0.2053	0.8396	0.8402	0.113
Mof_H 	H 	0.284	0.9128	0.767	0.116
Mof_H 	H 	0.1604	0.3657	0.8402	0.097
Mof_H 	H 	0.0872	0.3712	0.767	0.067
Mof_H 	H 	0.8396	0.2053	0.3402	0.093
Mof_H 	H 	0.9128	0.284	0.267	0.108
Mof_H 	H 	0.3657	0.1604	0.3402	0.075
Mof_H 	H 	0.3712	0.0872	0.267	0.057
Mof_H 	H 	0.7947	0.6343	0.3402	0.115
Mof_H 	H 	0.716	0.6288	0.267	0.099
Mof_H 	H 	0.1604	0.7947	0.3402	0.096
Mof_H 	H 	0.0872	0.716	0.267	0.068
Mof_H 	H 	0.6343	0.8396	0.3402	0.113
Mof_H 	H 	0.6288	0.9128	0.267	0.119
Mof_H 	H 	0.2053	0.3657	0.3402	0.074
Mof_H 	H 	0.284	0.3712	0.267	0.077
Mof_H 	H 	0.6343	0.7947	0.1598	0.099
Mof_H 	H 	0.6288	0.716	0.233	0.099
Mof_H 	H 	0.2053	0.8396	0.1598	0.077
Mof_H 	H 	0.284	0.9128	0.233	0.108
Mof_H 	H 	0.1604	0.3657	0.1598	0.06
Mof_H 	H 	0.0872	0.3712	0.233	0.057
Mof_H 	H 	0.3657	0.2053	0.1598	0.058
Mof_H 	H 	0.3712	0.284	0.233	0.077
Mof_H 	H 	0.7947	0.1604	0.1598	0.081
Mof_H 	H 	0.716	0.0872	0.233	0.068
Mof_H 	H 	0.8396	0.6343	0.1598	0.097
Mof_H 	H 	0.9128	0.6288	0.233	0.119
Mof_C 	C 	0.1306	0.6446	0.63926	0.436
Mof_C 	C 	0.1486	0.7356	0.6965	-0.198
Mof_C 	C 	0.514	0.8694	0.63926	0.447
Mof_C 	C 	0.587	0.8514	0.6965	-0.222
Mof_C 	C 	0.3554	0.486	0.63926	0.432
Mof_C 	C 	0.2644	0.413	0.6965	-0.186
Mof_C 	C 	0.8694	0.3554	0.63926	0.439
Mof_C 	C 	0.8514	0.2644	0.6965	-0.205
Mof_C 	C 	0.486	0.1306	0.63926	0.428
Mof_C 	C 	0.413	0.1486	0.6965	-0.181
Mof_C 	C 	0.6446	0.514	0.63926	0.448
Mof_C 	C 	0.7356	0.587	0.6965	-0.22
Mof_C 	C 	0.486	0.3554	0.86074	0.429
Mof_C 	C 	0.413	0.2644	0.8035	-0.184
Mof_C 	C 	0.6446	0.1306	0.86074	0.433
Mof_C 	C 	0.7356	0.1486	0.8035	-0.195
Mof_C 	C 	0.8694	0.514	0.86074	0.445
Mof_C 	C 	0.8514	0.587	0.8035	-0.22
Mof_C 	C 	0.514	0.6446	0.86074	0.445
Mof_C 	C 	0.587	0.7356	0.8035	-0.217
Mof_C 	C 	0.3554	0.8694	0.86074	0.437
Mof_C 	C 	0.2644	0.8514	0.8035	-0.203
Mof_C 	C 	0.1306	0.486	0.86074	0.425
Mof_C 	C 	0.1486	0.413	0.8035	-0.179
Mof_C 	C 	0.8694	0.3554	0.36074	0.436
Mof_C 	C 	0.8514	0.2644	0.3035	-0.197
Mof_C 	C 	0.486	0.1306	0.36074	0.424
Mof_C 	C 	0.413	0.1486	0.3035	-0.172
Mof_C 	C 	0.6446	0.514	0.36074	0.444
Mof_C 	C 	0.7356	0.587	0.3035	-0.211
Mof_C 	C 	0.1306	0.6446	0.36074	0.432
Mof_C 	C 	0.1486	0.7356	0.3035	-0.189
Mof_C 	C 	0.514	0.8694	0.36074	0.444
Mof_C 	C 	0.587	0.8514	0.3035	-0.214
Mof_C 	C 	0.3554	0.486	0.36074	0.428
Mof_C 	C 	0.2644	0.413	0.3035	-0.177
Mof_C 	C 	0.514	0.6446	0.13926	0.441
Mof_C 	C 	0.587	0.7356	0.1965	-0.21
Mof_C 	C 	0.3554	0.8694	0.13926	0.433
Mof_C 	C 	0.2644	0.8514	0.1965	-0.196
Mof_C 	C 	0.1306	0.486	0.13926	0.421
Mof_C 	C 	0.1486	0.413	0.1965	-0.171
Mof_C 	C 	0.486	0.3554	0.13926	0.425
Mof_C 	C 	0.413	0.2644	0.1965	-0.176
Mof_C 	C 	0.6446	0.1306	0.13926	0.429
Mof_C 	C 	0.7356	0.1486	0.1965	-0.188
Mof_C 	C 	0.8694	0.514	0.13926	0.44
Mof_C 	C 	0.8514	0.587	0.1965	-0.212
Mof_O 	O 	0.19495	0.61268	0.64393	-0.505
Mof_O 	O 	0.05216	0.6097	0.59006	-0.442
Mof_O 	O 	0.41773	0.80505	0.64393	-0.49
Mof_O 	O 	0.55754	0.94784	0.59006	-0.378
Mof_O 	O 	0.38732	0.58227	0.64393	-0.497
Mof_O 	O 	0.3903	0.44246	0.59006	-0.421
Mof_O 	O 	0.80505	0.38732	0.64393	-0.489
Mof_O 	O 	0.94784	0.3903	0.59006	-0.381
Mof_O 	O 	0.58227	0.19495	0.64393	-0.503
Mof_O 	O 	0.44246	0.05216	0.59006	-0.444
Mof_O 	O 	0.61268	0.41773	0.64393	-0.5
Mof_O 	O 	0.6097	0.55754	0.59006	-0.415
Mof_O 	O 	0.58227	0.38732	0.85607	-0.471
Mof_O 	O 	0.44246	0.3903	0.90994	-0.363
Mof_O 	O 	0.61268	0.19495	0.85607	-0.479
Mof_O 	O 	0.6097	0.05216	0.90994	-0.384
Mof_O 	O 	0.80505	0.41773	0.85607	-0.465
Mof_O 	O 	0.94784	0.55754	0.90994	-0.323
Mof_O 	O 	0.41773	0.61268	0.85607	-0.474
Mof_O 	O 	0.55754	0.6097	0.90994	-0.358
Mof_O 	O 	0.38732	0.80505	0.85607	-0.463
Mof_O 	O 	0.3903	0.94784	0.90994	-0.325
Mof_O 	O 	0.19495	0.58227	0.85607	-0.477
Mof_O 	O 	0.05216	0.44246	0.90994	-0.386
Mof_O 	O 	0.80505	0.38732	0.35607	-0.486
Mof_O 	O 	0.94784	0.3903	0.40994	-0.38
Mof_O 	O 	0.58227	0.19495	0.35607	-0.5
Mof_O 	O 	0.44246	0.05216	0.40994	-0.443
Mof_O 	O 	0.61268	0.41773	0.35607	-0.497
Mof_O 	O 	0.6097	0.55754	0.40994	-0.415
Mof_O 	O 	0.19495	0.61268	0.35607	-0.502
Mof_O 	O 	0.05216	0.6097	0.40994	-0.441
Mof_O 	O 	0.41773	0.80505	0.35607	-0.487
Mof_O 	O 	0.55754	0.94784	0.40994	-0.377
Mof_O 	O 	0.38732	0.58227	0.35607	-0.494
Mof_O 	O 	0.3903	0.44246	0.40994	-0.42
Mof_O 	O 	0.41773	0.61268	0.14393	-0.516
Mof_O 	O 	0.55754	0.6097	0.09006	-0.447
Mof_O 	O 	0.38732	0.80505	0.14393	-0.504
Mof_O 	O 	0.3903	0.94784	0.09006	-0.412
Mof_O 	O 	0.19495	0.58227	0.14393	-0.519
Mof_O 	O 	0.05216	0.44246	0.09006	-0.476
Mof_O 	O 	0.58227	0.38732	0.14393	-0.512
Mof_O 	O 	0.44246	0.3903	0.09006	-0.453
Mof_O 	O 	0.61268	0.19495	0.14393	-0.521
Mof_O 	O 	0.6097	0.05216	0.09006	-0.473
Mof_O 	O 	0.80505	0.41773	0.14393	-0.506
Mof_O 	O 	0.94784	0.55754	0.09006	-0.409
Mof_O 	O 	0.23625	0.76375	0.75	-0.264
Mof_O 	O 	0.5275	0.76375	0.75	-0.252
Mof_O 	O 	0.23625	0.4725	0.75	-0.276
Mof_O 	O 	0.76375	0.23625	0.75	-0.264
Mof_O 	O 	0.4725	0.23625	0.75	-0.276
Mof_O 	O 	0.76375	0.5275	0.75	-0.252
Mof_O 	O 	0.76375	0.23625	0.25	-0.271
Mof_O 	O 	0.4725	0.23625	0.25	-0.283
Mof_O 	O 	0.76375	0.5275	0.25	-0.259
Mof_O 	O 	0.23625	0.76375	0.25	-0.271
Mof_O 	O 	0.5275	0.76375	0.25	-0.259
Mof_O 	O 	0.23625	0.4725	0.25	-0.284
_end
