data_functionalizedCrystal
_audit_creation_method	'EQeq! by Chris Wilmer'
_symmetry_space_group_name_H-M	'P1'
_symmetry_Int_Tables_number	1
_symmetry_cell_setting	triclinic
loop_
_symmetry_equiv_pos_as_xyz
  x,y,z
_cell_length_a	13.657
_cell_length_b	18.686
_cell_length_c	31.503
_cell_angle_alpha	90
_cell_angle_beta	101.532
_cell_angle_gamma	90
loop_
_atom_site_label
_atom_site_type_symbol
_atom_site_fract_x
_atom_site_fract_y
_atom_site_fract_z
_atom_site_charge
Mof_Cu	Cu	0.80976	0.28179	0.22732	0.921
Mof_O 	O 	0.9466	0.07294	0.44649	-0.416
Mof_O 	O 	0.1112	0.07172	0.47368	-0.408
Mof_O 	O 	0.9126	0.2488	0.27533	-0.393
Mof_O 	O 	0.8129	0.19547	0.31376	-0.398
Mof_O 	O 	0.7903	0.36838	0.25983	-0.387
Mof_O 	O 	0.6934	0.31378	0.29947	-0.389
Mof_N 	N 	0.5806	0.1827	0.30805	-0.194
Mof_N 	N 	0.2615	0.1914	0.3564	-0.11
Mof_C 	C 	0.5852	0.2054	0.3485	0.094
Mof_H 	H 	0.6457	0.2261	0.3616	0.009
Mof_C 	C 	0.5132	0.203	0.3742	-0.162
Mof_H 	H 	0.5243	0.2183	0.4028	0.091
Mof_C 	C 	0.4222	0.1749	0.352	0.105
Mof_C 	C 	0.4151	0.1478	0.3099	-0.15
Mof_H 	H 	0.3551	0.1278	0.2957	0.09
Mof_C 	C 	0.4966	0.15	0.2885	0.085
Mof_H 	H 	0.4918	0.1292	0.2614	0.007
Mof_C 	C 	0.345	0.1719	0.3787	-0.034
Mof_C 	C 	0.1639	0.1823	0.36616	0.088
Mof_C 	C 	0.148	0.1485	0.40326	-0.073
Mof_H 	H 	0.2022	0.1352	0.4247	0.073
Mof_C 	C 	0.0516	0.1345	0.40859	-0.054
Mof_C 	C 	0.9719	0.1567	0.3782	-0.002
Mof_H 	H 	0.9075	0.1476	0.3823	0.062
Mof_C 	C 	0.9853	0.1925	0.34136	-0.054
Mof_C 	C 	0.0804	0.2061	0.33518	-0.068
Mof_H 	H 	0.0898	0.2308	0.3107	0.08
Mof_C 	C 	0.035	0.0899	0.44624	0.348
Mof_C 	C 	0.8967	0.2147	0.30833	0.344
Mof_C 	C 	0.6853	0.4361	0.348	-0.067
Mof_H 	H 	0.672	0.3932	0.3607	0.081
Mof_C 	C 	0.725	0.4353	0.31075	-0.051
Mof_C 	C 	0.7382	0.3677	0.28863	0.341
Mof_H 	H 	0.3723	0.177	0.4075	0.045
Mof_Cu	Cu	0.30976	0.78179	0.72732	0.921
Mof_O 	O 	0.4466	0.57294	0.94649	-0.407
Mof_O 	O 	0.6112	0.57172	0.97368	-0.398
Mof_O 	O 	0.4126	0.7488	0.77533	-0.392
Mof_O 	O 	0.3129	0.69547	0.81376	-0.396
Mof_O 	O 	0.2903	0.86838	0.75983	-0.377
Mof_O 	O 	0.1934	0.81378	0.79947	-0.385
Mof_N 	N 	0.0806	0.6827	0.80805	-0.194
Mof_N 	N 	0.7615	0.6914	0.8564	-0.109
Mof_C 	C 	0.0852	0.7054	0.8485	0.098
Mof_H 	H 	0.1457	0.7261	0.8616	0.012
Mof_C 	C 	0.0132	0.703	0.8742	-0.16
Mof_H 	H 	0.0243	0.7183	0.9028	0.096
Mof_C 	C 	0.9222	0.6749	0.852	0.109
Mof_C 	C 	0.9151	0.6478	0.8099	-0.148
Mof_H 	H 	0.8551	0.6278	0.7957	0.096
Mof_C 	C 	0.9966	0.65	0.7885	0.088
Mof_H 	H 	0.9918	0.6292	0.7614	0.012
Mof_C 	C 	0.845	0.6719	0.8787	-0.03
Mof_C 	C 	0.6639	0.6823	0.86616	0.095
Mof_C 	C 	0.648	0.6485	0.90326	-0.074
Mof_H 	H 	0.7022	0.6352	0.9247	0.079
Mof_C 	C 	0.5516	0.6345	0.90859	-0.046
Mof_C 	C 	0.4719	0.6567	0.8782	-0.004
Mof_H 	H 	0.4075	0.6476	0.8823	0.067
Mof_C 	C 	0.4853	0.6925	0.84136	-0.048
Mof_C 	C 	0.5804	0.7061	0.83518	-0.069
Mof_H 	H 	0.5898	0.7308	0.8107	0.083
Mof_C 	C 	0.535	0.5899	0.94624	0.348
Mof_C 	C 	0.3967	0.7147	0.80833	0.344
Mof_C 	C 	0.1853	0.9361	0.848	-0.018
Mof_H 	H 	0.172	0.8932	0.8607	0.073
Mof_C 	C 	0.225	0.9353	0.81075	-0.015
Mof_C 	C 	0.2382	0.8677	0.78863	0.334
Mof_H 	H 	0.8723	0.677	0.9075	0.049
Mof_Cu	Cu	0.19024	0.28179	0.77268	0.92
Mof_O 	O 	0.0534	0.07294	0.55351	-0.417
Mof_O 	O 	0.8888	0.07172	0.52632	-0.409
Mof_O 	O 	0.0874	0.2488	0.72467	-0.394
Mof_O 	O 	0.1871	0.19547	0.68624	-0.399
Mof_O 	O 	0.2097	0.36838	0.74017	-0.388
Mof_O 	O 	0.3066	0.31378	0.70053	-0.39
Mof_N 	N 	0.4194	0.1827	0.69195	-0.195
Mof_N 	N 	0.7385	0.1914	0.6436	-0.11
Mof_C 	C 	0.4148	0.2054	0.6515	0.094
Mof_H 	H 	0.3543	0.2261	0.6384	0.009
Mof_C 	C 	0.4868	0.203	0.6258	-0.162
Mof_H 	H 	0.4757	0.2183	0.5972	0.091
Mof_C 	C 	0.5778	0.1749	0.648	0.105
Mof_C 	C 	0.5849	0.1478	0.6901	-0.15
Mof_H 	H 	0.6449	0.1278	0.7043	0.09
Mof_C 	C 	0.5034	0.15	0.7115	0.085
Mof_H 	H 	0.5082	0.1292	0.7386	0.007
Mof_C 	C 	0.655	0.1719	0.6213	-0.034
Mof_C 	C 	0.8361	0.1823	0.63384	0.088
Mof_C 	C 	0.852	0.1485	0.59674	-0.073
Mof_H 	H 	0.7978	0.1352	0.5753	0.073
Mof_C 	C 	0.9484	0.1345	0.59141	-0.054
Mof_C 	C 	0.0281	0.1567	0.6218	-0.002
Mof_H 	H 	0.0925	0.1476	0.6177	0.062
Mof_C 	C 	0.0147	0.1925	0.65864	-0.054
Mof_C 	C 	0.9196	0.2061	0.66482	-0.068
Mof_H 	H 	0.9102	0.2308	0.6893	0.08
Mof_C 	C 	0.965	0.0899	0.55376	0.348
Mof_C 	C 	0.1033	0.2147	0.69167	0.344
Mof_C 	C 	0.3147	0.4361	0.652	-0.067
Mof_H 	H 	0.328	0.3932	0.6393	0.081
Mof_C 	C 	0.275	0.4353	0.68925	-0.051
Mof_C 	C 	0.2618	0.3677	0.71137	0.341
Mof_H 	H 	0.6277	0.177	0.5925	0.045
Mof_Cu	Cu	0.69024	0.78179	0.27268	0.921
Mof_O 	O 	0.5534	0.57294	0.05351	-0.407
Mof_O 	O 	0.3888	0.57172	0.02632	-0.398
Mof_O 	O 	0.5874	0.7488	0.22467	-0.392
Mof_O 	O 	0.6871	0.69547	0.18624	-0.396
Mof_O 	O 	0.7097	0.86838	0.24017	-0.377
Mof_O 	O 	0.8066	0.81378	0.20053	-0.385
Mof_N 	N 	0.9194	0.6827	0.19195	-0.194
Mof_N 	N 	0.2385	0.6914	0.1436	-0.109
Mof_C 	C 	0.9148	0.7054	0.1515	0.098
Mof_H 	H 	0.8543	0.7261	0.1384	0.012
Mof_C 	C 	0.9868	0.703	0.1258	-0.16
Mof_H 	H 	0.9757	0.7183	0.0972	0.096
Mof_C 	C 	0.0778	0.6749	0.148	0.109
Mof_C 	C 	0.0849	0.6478	0.1901	-0.148
Mof_H 	H 	0.1449	0.6278	0.2043	0.096
Mof_C 	C 	0.0034	0.65	0.2115	0.088
Mof_H 	H 	0.0082	0.6292	0.2386	0.012
Mof_C 	C 	0.155	0.6719	0.1213	-0.03
Mof_C 	C 	0.3361	0.6823	0.13384	0.095
Mof_C 	C 	0.352	0.6485	0.09674	-0.074
Mof_H 	H 	0.2978	0.6352	0.0753	0.079
Mof_C 	C 	0.4484	0.6345	0.09141	-0.046
Mof_C 	C 	0.5281	0.6567	0.1218	-0.004
Mof_H 	H 	0.5925	0.6476	0.1177	0.067
Mof_C 	C 	0.5147	0.6925	0.15864	-0.048
Mof_C 	C 	0.4196	0.7061	0.16482	-0.069
Mof_H 	H 	0.4102	0.7308	0.1893	0.083
Mof_C 	C 	0.465	0.5899	0.05376	0.348
Mof_C 	C 	0.6033	0.7147	0.19167	0.344
Mof_C 	C 	0.8147	0.9361	0.152	-0.018
Mof_H 	H 	0.828	0.8932	0.1393	0.073
Mof_C 	C 	0.775	0.9353	0.18925	-0.015
Mof_C 	C 	0.7618	0.8677	0.21137	0.334
Mof_H 	H 	0.1277	0.677	0.0925	0.049
Mof_Cu	Cu	0.19024	0.71821	0.77268	0.92
Mof_O 	O 	0.0534	0.92706	0.55351	-0.39
Mof_O 	O 	0.8888	0.92828	0.52632	-0.381
Mof_O 	O 	0.0874	0.7512	0.72467	-0.392
Mof_O 	O 	0.1871	0.80453	0.68624	-0.393
Mof_O 	O 	0.2097	0.63162	0.74017	-0.389
Mof_O 	O 	0.3066	0.68622	0.70053	-0.39
Mof_N 	N 	0.4194	0.8173	0.69195	-0.193
Mof_N 	N 	0.7385	0.8086	0.6436	-0.11
Mof_C 	C 	0.4148	0.7946	0.6515	0.1
Mof_H 	H 	0.3543	0.7739	0.6384	0.01
Mof_C 	C 	0.4868	0.797	0.6258	-0.161
Mof_H 	H 	0.4757	0.7817	0.5972	0.095
Mof_C 	C 	0.5778	0.8251	0.648	0.111
Mof_C 	C 	0.5849	0.8522	0.6901	-0.146
Mof_H 	H 	0.6449	0.8722	0.7043	0.101
Mof_C 	C 	0.5034	0.85	0.7115	0.091
Mof_H 	H 	0.5082	0.8708	0.7386	0.017
Mof_C 	C 	0.655	0.8281	0.6213	-0.026
Mof_C 	C 	0.8361	0.8177	0.63384	0.098
Mof_C 	C 	0.852	0.8515	0.59674	-0.076
Mof_H 	H 	0.7978	0.8648	0.5753	0.083
Mof_C 	C 	0.9484	0.8655	0.59141	-0.04
Mof_C 	C 	0.0281	0.8433	0.6218	-0.007
Mof_H 	H 	0.0925	0.8524	0.6177	0.07
Mof_C 	C 	0.0147	0.8075	0.65864	-0.044
Mof_C 	C 	0.9196	0.7939	0.66482	-0.071
Mof_H 	H 	0.9102	0.7692	0.6893	0.084
Mof_C 	C 	0.965	0.9101	0.55376	0.344
Mof_C 	C 	0.1033	0.7853	0.69167	0.343
Mof_C 	C 	0.3147	0.5639	0.652	-0.067
Mof_H 	H 	0.328	0.6068	0.6393	0.081
Mof_C 	C 	0.275	0.5647	0.68925	-0.051
Mof_C 	C 	0.2618	0.6323	0.71137	0.341
Mof_H 	H 	0.6277	0.823	0.5925	0.049
Mof_Cu	Cu	0.69024	0.21821	0.27268	0.92
Mof_O 	O 	0.5534	0.42706	0.05351	-0.409
Mof_O 	O 	0.3888	0.42828	0.02632	-0.4
Mof_O 	O 	0.5874	0.2512	0.22467	-0.394
Mof_O 	O 	0.6871	0.30453	0.18624	-0.397
Mof_O 	O 	0.7097	0.13162	0.24017	-0.392
Mof_O 	O 	0.8066	0.18622	0.20053	-0.39
Mof_N 	N 	0.9194	0.3173	0.19195	-0.194
Mof_N 	N 	0.2385	0.3086	0.1436	-0.111
Mof_C 	C 	0.9148	0.2946	0.1515	0.096
Mof_H 	H 	0.8543	0.2739	0.1384	0.009
Mof_C 	C 	0.9868	0.297	0.1258	-0.161
Mof_H 	H 	0.9757	0.2817	0.0972	0.091
Mof_C 	C 	0.0778	0.3251	0.148	0.106
Mof_C 	C 	0.0849	0.3522	0.1901	-0.147
Mof_H 	H 	0.1449	0.3722	0.2043	0.095
Mof_C 	C 	0.0034	0.35	0.2115	0.086
Mof_H 	H 	0.0082	0.3708	0.2386	0.012
Mof_C 	C 	0.155	0.3281	0.1213	-0.03
Mof_C 	C 	0.3361	0.3177	0.13384	0.091
Mof_C 	C 	0.352	0.3515	0.09674	-0.074
Mof_H 	H 	0.2978	0.3648	0.0753	0.077
Mof_C 	C 	0.4484	0.3655	0.09141	-0.049
Mof_C 	C 	0.5281	0.3433	0.1218	-0.004
Mof_H 	H 	0.5925	0.3524	0.1177	0.065
Mof_C 	C 	0.5147	0.3075	0.15864	-0.051
Mof_C 	C 	0.4196	0.2939	0.16482	-0.069
Mof_H 	H 	0.4102	0.2692	0.1893	0.08
Mof_C 	C 	0.465	0.4101	0.05376	0.348
Mof_C 	C 	0.6033	0.2853	0.19167	0.344
Mof_C 	C 	0.8147	0.0639	0.152	-0.058
Mof_H 	H 	0.828	0.1068	0.1393	0.075
Mof_C 	C 	0.775	0.0647	0.18925	-0.047
Mof_C 	C 	0.7618	0.1323	0.21137	0.337
Mof_H 	H 	0.1277	0.323	0.0925	0.046
Mof_Cu	Cu	0.80976	0.71821	0.22732	0.92
Mof_O 	O 	0.9466	0.92706	0.44649	-0.39
Mof_O 	O 	0.1112	0.92828	0.47368	-0.381
Mof_O 	O 	0.9126	0.7512	0.27533	-0.392
Mof_O 	O 	0.8129	0.80453	0.31376	-0.393
Mof_O 	O 	0.7903	0.63162	0.25983	-0.389
Mof_O 	O 	0.6934	0.68622	0.29947	-0.39
Mof_N 	N 	0.5806	0.8173	0.30805	-0.193
Mof_N 	N 	0.2615	0.8086	0.3564	-0.11
Mof_C 	C 	0.5852	0.7946	0.3485	0.1
Mof_H 	H 	0.6457	0.7739	0.3616	0.01
Mof_C 	C 	0.5132	0.797	0.3742	-0.161
Mof_H 	H 	0.5243	0.7817	0.4028	0.095
Mof_C 	C 	0.4222	0.8251	0.352	0.111
Mof_C 	C 	0.4151	0.8522	0.3099	-0.146
Mof_H 	H 	0.3551	0.8722	0.2957	0.101
Mof_C 	C 	0.4966	0.85	0.2885	0.091
Mof_H 	H 	0.4918	0.8708	0.2614	0.017
Mof_C 	C 	0.345	0.8281	0.3787	-0.026
Mof_C 	C 	0.1639	0.8177	0.36616	0.098
Mof_C 	C 	0.148	0.8515	0.40326	-0.076
Mof_H 	H 	0.2022	0.8648	0.4247	0.083
Mof_C 	C 	0.0516	0.8655	0.40859	-0.04
Mof_C 	C 	0.9719	0.8433	0.3782	-0.007
Mof_H 	H 	0.9075	0.8524	0.3823	0.07
Mof_C 	C 	0.9853	0.8075	0.34136	-0.044
Mof_C 	C 	0.0804	0.7939	0.33518	-0.071
Mof_H 	H 	0.0898	0.7692	0.3107	0.084
Mof_C 	C 	0.035	0.9101	0.44624	0.344
Mof_C 	C 	0.8967	0.7853	0.30833	0.343
Mof_C 	C 	0.6853	0.5639	0.348	-0.067
Mof_H 	H 	0.672	0.6068	0.3607	0.081
Mof_C 	C 	0.725	0.5647	0.31075	-0.051
Mof_C 	C 	0.7382	0.6323	0.28863	0.341
Mof_H 	H 	0.3723	0.823	0.4075	0.049
Mof_Cu	Cu	0.30976	0.21821	0.72732	0.92
Mof_O 	O 	0.4466	0.42706	0.94649	-0.409
Mof_O 	O 	0.6112	0.42828	0.97368	-0.4
Mof_O 	O 	0.4126	0.2512	0.77533	-0.394
Mof_O 	O 	0.3129	0.30453	0.81376	-0.397
Mof_O 	O 	0.2903	0.13162	0.75983	-0.392
Mof_O 	O 	0.1934	0.18622	0.79947	-0.39
Mof_N 	N 	0.0806	0.3173	0.80805	-0.194
Mof_N 	N 	0.7615	0.3086	0.8564	-0.111
Mof_C 	C 	0.0852	0.2946	0.8485	0.096
Mof_H 	H 	0.1457	0.2739	0.8616	0.009
Mof_C 	C 	0.0132	0.297	0.8742	-0.161
Mof_H 	H 	0.0243	0.2817	0.9028	0.091
Mof_C 	C 	0.9222	0.3251	0.852	0.106
Mof_C 	C 	0.9151	0.3522	0.8099	-0.147
Mof_H 	H 	0.8551	0.3722	0.7957	0.095
Mof_C 	C 	0.9966	0.35	0.7885	0.086
Mof_H 	H 	0.9918	0.3708	0.7614	0.012
Mof_C 	C 	0.845	0.3281	0.8787	-0.03
Mof_C 	C 	0.6639	0.3177	0.86616	0.091
Mof_C 	C 	0.648	0.3515	0.90326	-0.074
Mof_H 	H 	0.7022	0.3648	0.9247	0.077
Mof_C 	C 	0.5516	0.3655	0.90859	-0.049
Mof_C 	C 	0.4719	0.3433	0.8782	-0.004
Mof_H 	H 	0.4075	0.3524	0.8823	0.065
Mof_C 	C 	0.4853	0.3075	0.84136	-0.051
Mof_C 	C 	0.5804	0.2939	0.83518	-0.069
Mof_H 	H 	0.5898	0.2692	0.8107	0.08
Mof_C 	C 	0.535	0.4101	0.94624	0.348
Mof_C 	C 	0.3967	0.2853	0.80833	0.344
Mof_C 	C 	0.1853	0.0639	0.848	-0.058
Mof_H 	H 	0.172	0.1068	0.8607	0.075
Mof_C 	C 	0.225	0.0647	0.81075	-0.047
Mof_C 	C 	0.2382	0.1323	0.78863	0.337
Mof_H 	H 	0.8723	0.323	0.9075	0.046
Mof_Cu	Cu	0.90308	0	0.48305	0.89
Mof_Cu	Cu	0.40308	0.5	0.98305	0.907
Mof_Cu	Cu	0.09692	-1.28187e-32	0.51695	0.89
Mof_Cu	Cu	0.59692	0.5	0.01695	0.907
Mof_N 	N 	0.6426	0.5	0.4118	-0.098
Mof_C 	C 	0.6656	0.5	0.3661	0.089
Mof_C 	C 	0.7447	0.5	0.292	-0.002
Mof_H 	H 	0.7709	0.5	0.2669	0.066
Mof_N 	N 	0.1426	1.28187e-32	0.9118	-0.105
Mof_C 	C 	0.1656	0	0.8661	0.041
Mof_C 	C 	0.2447	-1.28187e-32	0.792	-0.055
Mof_H 	H 	0.2709	0	0.7669	0.071
Mof_N 	N 	0.3574	0.5	0.5882	-0.098
Mof_C 	C 	0.3344	0.5	0.6339	0.089
Mof_C 	C 	0.2553	0.5	0.708	-0.002
Mof_H 	H 	0.2291	0.5	0.7331	0.066
Mof_N 	N 	0.8574	0	0.0882	-0.105
Mof_C 	C 	0.8344	-3.20467e-33	0.1339	0.041
Mof_C 	C 	0.7553	0	0.208	-0.055
Mof_H 	H 	0.7291	0	0.2331	0.071
_end
