data_functionalizedCrystal
_audit_creation_method	'EQeq! by Chris Wilmer'
_symmetry_space_group_name_H-M	'P1'
_symmetry_Int_Tables_number	1
_symmetry_cell_setting	triclinic
loop_
_symmetry_equiv_pos_as_xyz
  x,y,z
_cell_length_a	13.0785
_cell_length_b	13.0785
_cell_length_c	20.083
_cell_angle_alpha	90
_cell_angle_beta	90
_cell_angle_gamma	120
loop_
_atom_site_label
_atom_site_type_symbol
_atom_site_fract_x
_atom_site_fract_y
_atom_site_fract_z
_atom_site_charge
Mof_Cu	Cu	0.38463	0	-0	0.826
Mof_Cu	Cu	0.61537	0.61537	0.33333	0.844
Mof_Cu	Cu	2.74908e-17	0.38463	0.66667	0.836
Mof_H 	H 	0.4341	0.1719	0.8933	0.017
Mof_H 	H 	0.1534	0.0568	0.7735	0.078
Mof_H 	H 	0.0446	0.9159	0.853	0.005
Mof_H 	H 	0.135	0.8998	0.948	0.015
Mof_H 	H 	0.4563	0.26	0.7942	0.105
Mof_H 	H 	0.5263	0.3538	0.6921	-0.071
Mof_H 	H 	0.4335	0.4945	0.7412	0.292
Mof_H 	H 	0.5207	0.4681	0.7809	0.269
Mof_H 	H 	0.5888	0.5948	0.6604	-0.364
Mof_H 	H 	0.6278	0.7004	0.7869	0.524
Mof_H 	H 	0.5444	0.705	0.7324	0.579
Mof_H 	H 	0.6812	0.7705	0.7206	0.583
Mof_H 	H 	0.7803	0.6568	0.6933	0.574
Mof_H 	H 	0.7082	0.5185	0.6942	0.595
Mof_H 	H 	0.7358	0.5892	0.7611	0.543
Mof_H 	H 	0.361	0.3835	0.6236	0.137
Mof_H 	H 	0.6048	0.5095	0.4682	-0.006
Mof_H 	H 	0.3558	0.4963	0.355	-0.044
Mof_H 	H 	0.2147	0.3867	0.4332	0.075
Mof_H 	H 	0.2724	0.3429	0.5334	-0.009
Mof_H 	H 	0.7378	0.5659	0.22663	0.016
Mof_H 	H 	0.9034	0.8466	0.10683	0.079
Mof_H 	H 	0.8713	0.9554	0.18633	0.022
Mof_H 	H 	0.7648	0.865	0.28133	0.014
Mof_H 	H 	0.8037	0.5437	0.12753	0.107
Mof_H 	H 	0.8275	0.4737	0.02543	-0.067
Mof_H 	H 	0.061	0.5665	0.07453	0.264
Mof_H 	H 	0.9474	0.4793	0.11423	0.259
Mof_H 	H 	0.006	0.4112	0.99373	-0.348
Mof_H 	H 	0.0726	0.3722	0.12023	0.518
Mof_H 	H 	0.1606	0.4556	0.06573	0.566
Mof_H 	H 	0.0893	0.3188	0.05393	0.563
Mof_H 	H 	0.8765	0.2197	0.02663	0.548
Mof_H 	H 	0.8103	0.2918	0.02753	0.568
Mof_H 	H 	0.8534	0.2642	0.09443	0.528
Mof_H 	H 	0.0225	0.639	0.95693	0.123
Mof_H 	H 	0.9047	0.3952	0.80153	-0.006
Mof_H 	H 	0.1405	0.6442	0.68833	-0.045
Mof_H 	H 	0.172	0.7853	0.76653	0.07
Mof_H 	H 	0.0705	0.7276	0.86673	0.002
Mof_H 	H 	0.8281	0.2622	0.55997	0.014
Mof_H 	H 	0.9432	0.0966	0.44017	0.068
Mof_H 	H 	0.0841	0.1287	0.51967	0.019
Mof_H 	H 	0.1002	0.2352	0.61467	0.01
Mof_H 	H 	0.74	0.1963	0.46087	0.106
Mof_H 	H 	0.6462	0.1725	0.35877	-0.063
Mof_H 	H 	0.5055	0.939	0.40787	0.289
Mof_H 	H 	0.5319	0.0526	0.44757	0.256
Mof_H 	H 	0.4052	0.994	0.32707	-0.315
Mof_H 	H 	0.2996	0.9274	0.45357	0.486
Mof_H 	H 	0.295	0.8394	0.39907	0.537
Mof_H 	H 	0.2295	0.9107	0.38727	0.539
Mof_H 	H 	0.3432	0.1235	0.35997	0.528
Mof_H 	H 	0.4815	0.1897	0.36087	0.554
Mof_H 	H 	0.4108	0.1466	0.42777	0.503
Mof_H 	H 	0.6165	0.9775	0.29027	0.152
Mof_H 	H 	0.4905	0.0953	0.13487	-0.007
Mof_H 	H 	0.5037	0.8595	0.02167	-0.058
Mof_H 	H 	0.6133	0.828	0.09987	0.08
Mof_H 	H 	0.6571	0.9295	0.20007	-0.017
Mof_H 	H 	0.2622	0.8281	0.1067	0.013
Mof_H 	H 	0.0966	0.9432	0.2265	0.068
Mof_H 	H 	0.1287	0.0841	0.147	0.019
Mof_H 	H 	0.2352	0.1002	0.052	0.004
Mof_H 	H 	0.1963	0.74	0.2058	0.106
Mof_H 	H 	0.1725	0.6462	0.3079	-0.064
Mof_H 	H 	0.939	0.5055	0.2588	0.294
Mof_H 	H 	0.0526	0.5319	0.2191	0.26
Mof_H 	H 	0.994	0.4052	0.3396	-0.315
Mof_H 	H 	0.9274	0.2996	0.2131	0.493
Mof_H 	H 	0.8394	0.295	0.2676	0.539
Mof_H 	H 	0.9107	0.2295	0.2794	0.542
Mof_H 	H 	0.1235	0.3432	0.3067	0.53
Mof_H 	H 	0.1897	0.4815	0.3058	0.556
Mof_H 	H 	0.1466	0.4108	0.2389	0.506
Mof_H 	H 	0.9775	0.6165	0.3764	0.154
Mof_H 	H 	0.0953	0.4905	0.5318	-0.007
Mof_H 	H 	0.8595	0.5037	0.645	-0.048
Mof_H 	H 	0.828	0.6133	0.5668	0.084
Mof_H 	H 	0.9295	0.6571	0.4666	-0.017
Mof_H 	H 	0.1719	0.4341	0.77337	0.017
Mof_H 	H 	0.0568	0.1534	0.89317	0.087
Mof_H 	H 	0.9159	0.0446	0.81367	0.005
Mof_H 	H 	0.8998	0.135	0.71867	0.011
Mof_H 	H 	0.26	0.4563	0.87247	0.104
Mof_H 	H 	0.3538	0.5263	0.97457	-0.086
Mof_H 	H 	0.4945	0.4335	0.92547	0.334
Mof_H 	H 	0.4681	0.5207	0.88577	0.309
Mof_H 	H 	0.5948	0.5888	0.00627	-0.445
Mof_H 	H 	0.7004	0.6278	0.87977	0.6
Mof_H 	H 	0.705	0.5444	0.93427	0.657
Mof_H 	H 	0.7705	0.6812	0.94607	0.661
Mof_H 	H 	0.6568	0.7803	0.97337	0.65
Mof_H 	H 	0.5185	0.7082	0.97247	0.673
Mof_H 	H 	0.5892	0.7358	0.90557	0.615
Mof_H 	H 	0.3835	0.361	0.04307	0.136
Mof_H 	H 	0.5095	0.6048	0.19847	-0.007
Mof_H 	H 	0.4963	0.3558	0.31167	-0.044
Mof_H 	H 	0.3867	0.2147	0.23347	0.076
Mof_H 	H 	0.3429	0.2724	0.13327	-0.011
Mof_H 	H 	0.5659	0.7378	0.44003	0.016
Mof_H 	H 	0.8466	0.9034	0.55983	0.082
Mof_H 	H 	0.9554	0.8713	0.48033	0.021
Mof_H 	H 	0.865	0.7648	0.38533	0.015
Mof_H 	H 	0.5437	0.8037	0.53913	0.106
Mof_H 	H 	0.4737	0.8275	0.64123	-0.078
Mof_H 	H 	0.5665	0.061	0.59213	0.299
Mof_H 	H 	0.4793	0.9474	0.55243	0.288
Mof_H 	H 	0.4112	0.006	0.67293	-0.407
Mof_H 	H 	0.3722	0.0726	0.54643	0.568
Mof_H 	H 	0.4556	0.1606	0.60093	0.621
Mof_H 	H 	0.3188	0.0893	0.61273	0.62
Mof_H 	H 	0.2197	0.8765	0.64003	0.607
Mof_H 	H 	0.2918	0.8103	0.63913	0.629
Mof_H 	H 	0.2642	0.8534	0.57223	0.58
Mof_H 	H 	0.639	0.0225	0.70973	0.129
Mof_H 	H 	0.3952	0.9047	0.86513	-0.005
Mof_H 	H 	0.6442	0.1405	0.97833	-0.034
Mof_H 	H 	0.7853	0.172	0.90013	0.078
Mof_H 	H 	0.7276	0.0705	0.79993	-0.004
Mof_C 	C 	0.3554	0.1181	0.88403	-0.043
Mof_C 	C 	0.3064	0.1316	0.82493	0.117
Mof_C 	C 	0.1888	0.0526	0.81276	-0.132
Mof_C 	C 	0.1247	0.9673	0.85967	-0.004
Mof_C 	C 	0.1792	0.958	0.91682	0.007
Mof_C 	C 	0.3545	0.2645	0.72771	0.108
Mof_C 	C 	0.4609	0.37	0.69519	0.271
Mof_C 	C 	0.4998	0.4813	0.73668	-0.936
Mof_C 	C 	0.6038	0.5921	0.70805	1.325
Mof_C 	C 	0.6154	0.7021	0.7399	-1.87
Mof_C 	C 	0.7174	0.5888	0.7148	-1.862
Mof_C 	C 	0.493	0.4003	0.57472	0.246
Mof_C 	C 	0.4456	0.4225	0.51127	-0.136
Mof_C 	C 	0.5256	0.4855	0.46155	0.068
Mof_C 	C 	0.3788	0.477	0.39462	0.08
Mof_C 	C 	0.2938	0.4121	0.44151	-0.163
Mof_C 	C 	0.328	0.3854	0.50075	0.053
Mof_C 	C 	0.7627	0.6446	0.21736	-0.037
Mof_C 	C 	0.8252	0.6936	0.15826	0.113
Mof_C 	C 	0.8638	0.8112	0.14609	-0.11
Mof_C 	C 	0.8426	0.8753	0.193	-0.022
Mof_C 	C 	0.7788	0.8208	0.25015	0.008
Mof_C 	C 	0.91	0.6455	0.06104	0.116
Mof_C 	C 	0.9091	0.5391	0.02852	0.236
Mof_C 	C 	0.9815	0.5002	0.07001	-0.875
Mof_C 	C 	0.9883	0.3962	0.04138	1.282
Mof_C 	C 	0.0867	0.3846	0.07323	-1.84
Mof_C 	C 	0.8714	0.2826	0.04813	-1.802
Mof_C 	C 	0.9073	0.507	0.90805	0.239
Mof_C 	C 	0.9769	0.5544	0.8446	-0.109
Mof_C 	C 	0.9599	0.4744	0.79488	0.076
Mof_C 	C 	0.0982	0.6212	0.72795	0.069
Mof_C 	C 	0.1183	0.7062	0.77484	-0.149
Mof_C 	C 	0.0574	0.672	0.83408	0.019
Mof_C 	C 	0.8819	0.2373	0.5507	-0.031
Mof_C 	C 	0.8684	0.1748	0.4916	0.101
Mof_C 	C 	0.9474	0.1362	0.47943	-0.079
Mof_C 	C 	0.0327	0.1574	0.52634	-0.056
Mof_C 	C 	0.042	0.2212	0.58349	-0.002
Mof_C 	C 	0.7355	0.09	0.39438	0.111
Mof_C 	C 	0.63	0.0909	0.36186	0.255
Mof_C 	C 	0.5187	0.0185	0.40335	-0.895
Mof_C 	C 	0.4079	0.0117	0.37472	1.199
Mof_C 	C 	0.2979	0.9133	0.40657	-1.722
Mof_C 	C 	0.4112	0.1286	0.38147	-1.729
Mof_C 	C 	0.5997	0.0927	0.24139	0.252
Mof_C 	C 	0.5775	0.0231	0.17794	-0.16
Mof_C 	C 	0.5145	0.0401	0.12822	0.058
Mof_C 	C 	0.523	0.9018	0.06129	0.092
Mof_C 	C 	0.5879	0.8817	0.10818	-0.184
Mof_C 	C 	0.6146	0.9426	0.16742	0.088
Mof_C 	C 	0.2373	0.8819	0.11597	-0.032
Mof_C 	C 	0.1748	0.8684	0.17507	0.101
Mof_C 	C 	0.1362	0.9474	0.18724	-0.081
Mof_C 	C 	0.1574	0.0327	0.14033	-0.056
Mof_C 	C 	0.2212	0.042	0.08318	-0.002
Mof_C 	C 	0.09	0.7355	0.27229	0.11
Mof_C 	C 	0.0909	0.63	0.30481	0.258
Mof_C 	C 	0.0185	0.5187	0.26332	-0.904
Mof_C 	C 	0.0117	0.4079	0.29195	1.202
Mof_C 	C 	0.9133	0.2979	0.2601	-1.729
Mof_C 	C 	0.1286	0.4112	0.2852	-1.734
Mof_C 	C 	0.0927	0.5997	0.42528	0.253
Mof_C 	C 	0.0231	0.5775	0.48873	-0.162
Mof_C 	C 	0.0401	0.5145	0.53845	0.058
Mof_C 	C 	0.9018	0.523	0.60538	0.093
Mof_C 	C 	0.8817	0.5879	0.55849	-0.182
Mof_C 	C 	0.9426	0.6146	0.49925	0.089
Mof_C 	C 	0.1181	0.3554	0.78264	-0.048
Mof_C 	C 	0.1316	0.3064	0.84174	0.122
Mof_C 	C 	0.0526	0.1888	0.85391	-0.147
Mof_C 	C 	0.9673	0.1247	0.807	0.01
Mof_C 	C 	0.958	0.1792	0.74985	0.011
Mof_C 	C 	0.2645	0.3545	0.93896	0.092
Mof_C 	C 	0.37	0.4609	0.97148	0.338
Mof_C 	C 	0.4813	0.4998	0.92999	-1.069
Mof_C 	C 	0.5921	0.6038	0.95862	1.542
Mof_C 	C 	0.7021	0.6154	0.92677	-2.111
Mof_C 	C 	0.5888	0.7174	0.95187	-2.099
Mof_C 	C 	0.4003	0.493	0.09195	0.252
Mof_C 	C 	0.4225	0.4456	0.1554	-0.138
Mof_C 	C 	0.4855	0.5256	0.20512	0.069
Mof_C 	C 	0.477	0.3788	0.27205	0.081
Mof_C 	C 	0.4121	0.2938	0.22516	-0.165
Mof_C 	C 	0.3854	0.328	0.16592	0.055
Mof_C 	C 	0.6446	0.7627	0.4493	-0.038
Mof_C 	C 	0.6936	0.8252	0.5084	0.113
Mof_C 	C 	0.8112	0.8638	0.52057	-0.111
Mof_C 	C 	0.8753	0.8426	0.47366	-0.021
Mof_C 	C 	0.8208	0.7788	0.41651	0.008
Mof_C 	C 	0.6455	0.91	0.60562	0.103
Mof_C 	C 	0.5391	0.9091	0.63814	0.291
Mof_C 	C 	0.5002	0.9815	0.59665	-0.98
Mof_C 	C 	0.3962	0.9883	0.62528	1.44
Mof_C 	C 	0.3846	0.0867	0.59343	-2.008
Mof_C 	C 	0.2826	0.8714	0.61853	-1.978
Mof_C 	C 	0.507	0.9073	0.75861	0.246
Mof_C 	C 	0.5544	0.9769	0.82206	-0.123
Mof_C 	C 	0.4744	0.9599	0.87178	0.072
Mof_C 	C 	0.6212	0.0982	0.93871	0.075
Mof_C 	C 	0.7062	0.1183	0.89182	-0.155
Mof_C 	C 	0.672	0.0574	0.83258	0.036
Mof_N 	N 	0.29407	0.0313	0.92763	-0.201
Mof_N 	N 	0.3829	0.2243	0.78341	-0.216
Mof_N 	N 	0.4269	0.3848	0.62859	-0.273
Mof_N 	N 	0.4934	0.51344	0.40397	-0.241
Mof_N 	N 	0.73723	0.70593	0.26096	-0.203
Mof_N 	N 	0.8414	0.6171	0.11674	-0.216
Mof_N 	N 	0.9579	0.5731	0.96192	-0.243
Mof_N 	N 	0.02004	0.5066	0.7373	-0.249
Mof_N 	N 	0.9687	0.26277	0.5943	-0.194
Mof_N 	N 	0.7757	0.1586	0.45008	-0.214
Mof_N 	N 	0.6152	0.0421	0.29526	-0.284
Mof_N 	N 	0.48656	0.97996	0.07064	-0.236
Mof_N 	N 	0.26277	0.9687	0.07237	-0.197
Mof_N 	N 	0.1586	0.7757	0.21659	-0.214
Mof_N 	N 	0.0421	0.6152	0.37141	-0.286
Mof_N 	N 	0.97996	0.48656	0.59603	-0.232
Mof_N 	N 	0.0313	0.29407	0.73904	-0.211
Mof_N 	N 	0.2243	0.3829	0.88326	-0.213
Mof_N 	N 	0.3848	0.4269	0.03808	-0.29
Mof_N 	N 	0.51344	0.4934	0.2627	-0.241
Mof_N 	N 	0.70593	0.73723	0.4057	-0.203
Mof_N 	N 	0.6171	0.8414	0.54992	-0.213
Mof_N 	N 	0.5731	0.9579	0.70474	-0.266
Mof_N 	N 	0.5066	0.02004	0.92936	-0.239
Mof_O 	O 	0.25534	0.22294	0.70668	-0.24
Mof_O 	O 	0.5858	0.39902	0.57578	-0.294
Mof_O 	O 	0.9676	0.74466	0.04001	-0.239
Mof_O 	O 	0.81322	0.4142	0.90911	-0.286
Mof_O 	O 	0.77706	0.0324	0.37335	-0.24
Mof_O 	O 	0.60098	0.18678	0.24245	-0.293
Mof_O 	O 	0.0324	0.77706	0.29332	-0.241
Mof_O 	O 	0.18678	0.60098	0.42422	-0.293
Mof_O 	O 	0.22294	0.25534	0.95999	-0.223
Mof_O 	O 	0.39902	0.5858	0.09089	-0.299
Mof_O 	O 	0.74466	0.9676	0.62665	-0.227
Mof_O 	O 	0.4142	0.81322	0.75755	-0.293
_end
