data_functionalizedCrystal
_audit_creation_method	'EQeq! by Chris Wilmer'
_symmetry_space_group_name_H-M	'P1'
_symmetry_Int_Tables_number	1
_symmetry_cell_setting	triclinic
loop_
_symmetry_equiv_pos_as_xyz
  x,y,z
_cell_length_a	10.2565
_cell_length_b	8.2892
_cell_length_c	10.4595
_cell_angle_alpha	90
_cell_angle_beta	90
_cell_angle_gamma	90
loop_
_atom_site_label
_atom_site_type_symbol
_atom_site_fract_x
_atom_site_fract_y
_atom_site_fract_z
_atom_site_charge
Mof_P 	P 	0.6673	0.0669	0.3739	0.51
Mof_O 	O 	0.7709	0.0749	0.2701	-0.485
Mof_O 	O 	0.5292	0.0695	0.3177	-0.466
Mof_O 	O 	0.6885	0.9288	0.4635	-0.5
Mof_H 	H 	0.0066	0.1832	0.9829	0.063
Mof_H 	H 	0.8029	0.1522	0.6053	0.149
Mof_P 	P 	0.8327	0.9331	0.8739	0.504
Mof_O 	O 	0.7291	0.9251	0.7701	-0.486
Mof_O 	O 	0.9708	0.9305	0.8177	-0.455
Mof_O 	O 	0.8115	0.0712	0.9635	-0.489
Mof_H 	H 	0.4934	0.8168	0.4829	0.059
Mof_H 	H 	0.6971	0.8478	0.1053	0.156
Mof_P 	P 	0.3327	0.5669	0.6261	0.512
Mof_O 	O 	0.2291	0.5749	0.7299	-0.483
Mof_O 	O 	0.4708	0.5695	0.6823	-0.464
Mof_O 	O 	0.3115	0.4288	0.5365	-0.503
Mof_H 	H 	0.9934	0.6832	0.0171	0.06
Mof_H 	H 	0.1971	0.6522	0.3947	0.149
Mof_P 	P 	0.1673	0.4331	0.1261	0.509
Mof_O 	O 	0.2709	0.4251	0.2299	-0.485
Mof_O 	O 	0.0292	0.4305	0.1823	-0.455
Mof_O 	O 	0.1885	0.5712	0.0365	-0.492
Mof_H 	H 	0.5066	0.3168	0.5171	0.059
Mof_H 	H 	0.3029	0.3478	0.8947	0.154
Mof_P 	P 	0.3327	0.9331	0.6261	0.509
Mof_O 	O 	0.2291	0.9251	0.7299	-0.486
Mof_O 	O 	0.4708	0.9305	0.6823	-0.466
Mof_O 	O 	0.3115	0.0712	0.5365	-0.5
Mof_H 	H 	0.9934	0.8168	0.0171	0.063
Mof_H 	H 	0.1971	0.8478	0.3947	0.149
Mof_P 	P 	0.1673	0.0669	0.1261	0.504
Mof_O 	O 	0.2709	0.0749	0.2299	-0.486
Mof_O 	O 	0.0292	0.0695	0.1823	-0.455
Mof_O 	O 	0.1885	0.9288	0.0365	-0.489
Mof_H 	H 	0.5066	0.1832	0.5171	0.059
Mof_H 	H 	0.3029	0.1522	0.8947	0.156
Mof_P 	P 	0.6673	0.4331	0.3739	0.512
Mof_O 	O 	0.7709	0.4251	0.2701	-0.483
Mof_O 	O 	0.5292	0.4305	0.3177	-0.464
Mof_O 	O 	0.6885	0.5712	0.4635	-0.503
Mof_H 	H 	0.0066	0.3168	0.9829	0.06
Mof_H 	H 	0.8029	0.3478	0.6053	0.149
Mof_P 	P 	0.8327	0.5669	0.8739	0.509
Mof_O 	O 	0.7291	0.5749	0.7701	-0.485
Mof_O 	O 	0.9708	0.5695	0.8177	-0.455
Mof_O 	O 	0.8115	0.4288	0.9635	-0.492
Mof_H 	H 	0.4934	0.6832	0.4829	0.059
Mof_H 	H 	0.6971	0.6522	0.1053	0.154
Mof_Dy	Dy	0.86	0.25	0.12022	2.059
Mof_O 	O 	0.5576	0.25	0.5461	-0.367
Mof_C 	C 	0.6789	0.25	0.4685	-0.025
Mof_C 	C 	0.8	0.25	0.556	-0.359
Mof_H 	H 	0.8767	0.25	0.5036	0.113
Mof_Dy	Dy	0.64	0.75	0.62022	2.105
Mof_O 	O 	0.9424	0.75	0.0461	-0.376
Mof_C 	C 	0.8211	0.75	0.9685	-0.013
Mof_C 	C 	0.7	0.75	0.056	-0.378
Mof_H 	H 	0.6233	0.75	0.0036	0.121
Mof_Dy	Dy	0.14	0.75	0.87978	2.059
Mof_O 	O 	0.4424	0.75	0.4539	-0.367
Mof_C 	C 	0.3211	0.75	0.5315	-0.025
Mof_C 	C 	0.2	0.75	0.444	-0.359
Mof_H 	H 	0.1233	0.75	0.4964	0.113
Mof_Dy	Dy	0.36	0.25	0.37978	2.105
Mof_O 	O 	0.0576	0.25	0.9539	-0.376
Mof_C 	C 	0.1789	0.25	0.0315	-0.013
Mof_C 	C 	0.3	0.25	0.944	-0.378
Mof_H 	H 	0.3767	0.25	0.9964	0.121
_end
