data_functionalizedCrystal
_audit_creation_method	'EQeq! by Chris Wilmer'
_symmetry_space_group_name_H-M	'P1'
_symmetry_Int_Tables_number	1
_symmetry_cell_setting	triclinic
loop_
_symmetry_equiv_pos_as_xyz
  x,y,z
_cell_length_a	12.9228
_cell_length_b	14.2262
_cell_length_c	14.1978
_cell_angle_alpha	90
_cell_angle_beta	92.795
_cell_angle_gamma	90
loop_
_atom_site_label
_atom_site_type_symbol
_atom_site_fract_x
_atom_site_fract_y
_atom_site_fract_z
_atom_site_charge
Mof_Co	Co	0.0925	0.2376	0.8717	1.18
Mof_Co	Co	0.5052	0.3737	0.7715	1.185
Mof_Co	Co	0.5131	0.1256	0.7576	1.175
Mof_Ga	Ga	0.8059	0.2588	0.7263	2.601
Mof_Ga	Ga	0.1089	0.2665	0.6033	1.728
Mof_Co	Co	0.1207	0.2568	0.616	0.167
Mof_P 	P 	0.0983	0.2347	0.1035	0.624
Mof_P 	P 	0.9875	0.1067	0.7136	0.68
Mof_P 	P 	0.9901	0.3936	0.7446	0.65
Mof_P 	P 	0.1533	0.2528	0.3922	0.646
Mof_P 	P 	0.3061	0.2462	0.7753	0.583
Mof_O 	O 	0.0802	0.1456	0.1606	-0.511
Mof_O 	O 	0.0627	0.1268	0.7977	-0.502
Mof_O 	O 	0.0606	0.187	0.3825	-0.515
Mof_O 	O 	0.8879	0.3674	0.6917	-0.77
Mof_O 	O 	0.2363	0.2593	0.8587	-0.445
Mof_O 	O 	0.0812	0.3701	0.6855	-0.665
Mof_O 	O 	0.9983	0.337	0.8369	-0.515
Mof_O 	O 	0.0215	0.156	0.6247	-0.639
Mof_O 	O 	0.2121	0.2604	0.1161	-0.745
Mof_O 	O 	0.3835	0.1688	0.8045	-0.462
Mof_O 	O 	0.8781	0.1383	0.7332	-0.759
Mof_O 	O 	0.1254	0.348	0.3471	-0.534
Mof_O 	O 	0.2459	0.2114	0.3429	-0.766
Mof_O 	O 	0.0675	0.2155	0.0009	-0.439
Mof_O 	O 	0.3617	0.3395	0.7621	-0.454
Mof_O 	O 	0.2455	0.2183	0.686	-0.502
Mof_O 	O 	0.0298	0.3135	0.138	-0.478
Mof_O 	O 	0.1865	0.2649	0.4956	-0.623
Mof_O 	O 	0.9843	0.0023	0.6939	-0.438
Mof_O 	O 	0.9913	0.4959	0.7709	-0.454
Mof_Co	Co	0.4075	0.7376	0.6283	1.18
Mof_Co	Co	0.9948	0.8737	0.7285	1.183
Mof_Co	Co	0.9869	0.6256	0.7424	1.175
Mof_Ga	Ga	0.6941	0.7588	0.7737	2.598
Mof_Ga	Ga	0.3911	0.7665	0.8967	1.73
Mof_Co	Co	0.3793	0.7568	0.884	0.166
Mof_P 	P 	0.4017	0.7347	0.3965	0.624
Mof_P 	P 	0.5125	0.6067	0.7864	0.675
Mof_P 	P 	0.5099	0.8936	0.7554	0.649
Mof_P 	P 	0.3467	0.7528	0.1078	0.646
Mof_P 	P 	0.1939	0.7462	0.7247	0.583
Mof_O 	O 	0.4198	0.6456	0.3394	-0.51
Mof_O 	O 	0.4373	0.6268	0.7023	-0.499
Mof_O 	O 	0.4394	0.687	0.1175	-0.514
Mof_O 	O 	0.6121	0.8674	0.8083	-0.77
Mof_O 	O 	0.2637	0.7593	0.6413	-0.444
Mof_O 	O 	0.4188	0.8701	0.8145	-0.665
Mof_O 	O 	0.5017	0.837	0.6631	-0.517
Mof_O 	O 	0.4785	0.656	0.8753	-0.636
Mof_O 	O 	0.2879	0.7604	0.3839	-0.745
Mof_O 	O 	0.1165	0.6688	0.6955	-0.461
Mof_O 	O 	0.6219	0.6383	0.7668	-0.759
Mof_O 	O 	0.3746	0.848	0.1529	-0.534
Mof_O 	O 	0.2541	0.7114	0.1571	-0.766
Mof_O 	O 	0.4325	0.7155	0.4991	-0.438
Mof_O 	O 	0.1383	0.8395	0.7379	-0.453
Mof_O 	O 	0.2545	0.7183	0.814	-0.502
Mof_O 	O 	0.4702	0.8135	0.362	-0.479
Mof_O 	O 	0.3135	0.7649	0.0044	-0.623
Mof_O 	O 	0.5157	0.5023	0.8061	-0.441
Mof_O 	O 	0.5087	0.9959	0.7291	-0.455
Mof_Co	Co	0.9075	0.7624	0.1283	1.179
Mof_Co	Co	0.4948	0.6263	0.2285	1.184
Mof_Co	Co	0.4869	0.8744	0.2424	1.175
Mof_Ga	Ga	0.1941	0.7412	0.2737	2.601
Mof_Ga	Ga	0.8911	0.7335	0.3967	1.728
Mof_Co	Co	0.8793	0.7432	0.384	0.167
Mof_P 	P 	0.9017	0.7653	0.8965	0.624
Mof_P 	P 	0.0125	0.8933	0.2864	0.68
Mof_P 	P 	0.0099	0.6064	0.2554	0.65
Mof_P 	P 	0.8467	0.7472	0.6078	0.646
Mof_P 	P 	0.6939	0.7538	0.2247	0.583
Mof_O 	O 	0.9198	0.8544	0.8394	-0.511
Mof_O 	O 	0.9373	0.8732	0.2023	-0.502
Mof_O 	O 	0.9394	0.813	0.6175	-0.515
Mof_O 	O 	0.1121	0.6326	0.3083	-0.77
Mof_O 	O 	0.7637	0.7407	0.1413	-0.445
Mof_O 	O 	0.9188	0.6299	0.3145	-0.665
Mof_O 	O 	0.0017	0.663	0.1631	-0.515
Mof_O 	O 	0.9785	0.844	0.3753	-0.639
Mof_O 	O 	0.7879	0.7396	0.8839	-0.745
Mof_O 	O 	0.6165	0.8312	0.1955	-0.462
Mof_O 	O 	0.1219	0.8617	0.2668	-0.759
Mof_O 	O 	0.8746	0.652	0.6529	-0.534
Mof_O 	O 	0.7541	0.7886	0.6571	-0.766
Mof_O 	O 	0.9325	0.7845	0.9991	-0.439
Mof_O 	O 	0.6383	0.6605	0.2379	-0.454
Mof_O 	O 	0.7545	0.7817	0.314	-0.502
Mof_O 	O 	0.9702	0.6865	0.862	-0.478
Mof_O 	O 	0.8135	0.7351	0.5044	-0.623
Mof_O 	O 	0.0157	0.9977	0.3061	-0.438
Mof_O 	O 	0.0087	0.5041	0.2291	-0.454
Mof_Co	Co	0.5925	0.2624	0.3717	1.18
Mof_Co	Co	0.0052	0.1263	0.2715	1.183
Mof_Co	Co	0.0131	0.3744	0.2576	1.175
Mof_Ga	Ga	0.3059	0.2412	0.2263	2.598
Mof_Ga	Ga	0.6089	0.2335	0.1033	1.73
Mof_Co	Co	0.6207	0.2432	0.116	0.166
Mof_P 	P 	0.5983	0.2653	0.6035	0.624
Mof_P 	P 	0.4875	0.3933	0.2136	0.675
Mof_P 	P 	0.4901	0.1064	0.2446	0.649
Mof_P 	P 	0.6533	0.2472	0.8922	0.646
Mof_P 	P 	0.8061	0.2538	0.2753	0.583
Mof_O 	O 	0.5802	0.3544	0.6606	-0.51
Mof_O 	O 	0.5627	0.3732	0.2977	-0.499
Mof_O 	O 	0.5606	0.313	0.8825	-0.514
Mof_O 	O 	0.3879	0.1326	0.1917	-0.77
Mof_O 	O 	0.7363	0.2407	0.3587	-0.444
Mof_O 	O 	0.5812	0.1299	0.1855	-0.665
Mof_O 	O 	0.4983	0.163	0.3369	-0.517
Mof_O 	O 	0.5215	0.344	0.1247	-0.636
Mof_O 	O 	0.7121	0.2396	0.6161	-0.745
Mof_O 	O 	0.8835	0.3312	0.3045	-0.461
Mof_O 	O 	0.3781	0.3617	0.2332	-0.759
Mof_O 	O 	0.6254	0.152	0.8471	-0.534
Mof_O 	O 	0.7459	0.2886	0.8429	-0.766
Mof_O 	O 	0.5675	0.2845	0.5009	-0.438
Mof_O 	O 	0.8617	0.1605	0.2621	-0.453
Mof_O 	O 	0.7455	0.2817	0.186	-0.502
Mof_O 	O 	0.5298	0.1865	0.638	-0.479
Mof_O 	O 	0.6865	0.2351	0.9956	-0.623
Mof_O 	O 	0.4843	0.4977	0.1939	-0.441
Mof_O 	O 	0.4913	0.0041	0.2709	-0.455
_end
