data_functionalizedCrystal
_audit_creation_method	'EQeq! by Chris Wilmer'
_symmetry_space_group_name_H-M	'P1'
_symmetry_Int_Tables_number	1
_symmetry_cell_setting	triclinic
loop_
_symmetry_equiv_pos_as_xyz
  x,y,z
_cell_length_a	9.53
_cell_length_b	10.168
_cell_length_c	13.026
_cell_angle_alpha	111.005
_cell_angle_beta	105.569
_cell_angle_gamma	90.497
loop_
_atom_site_label
_atom_site_type_symbol
_atom_site_fract_x
_atom_site_fract_y
_atom_site_fract_z
_atom_site_charge
Mof_C 	C 	0.5937	0.225	0.8477	-0.04
Mof_C 	C 	0.5718	0.3087	0.7818	0.005
Mof_H 	H 	0.5375	0.2665	0.7021	0.066
Mof_C 	C 	0.6015	0.4567	0.8356	-0.076
Mof_C 	C 	0.6608	0.5153	0.9541	-0.032
Mof_H 	H 	0.6834	0.6132	0.9898	0.073
Mof_C 	C 	0.6485	0.2874	0.9654	-0.049
Mof_H 	H 	0.6592	0.2299	0.008	0.079
Mof_C 	C 	0.6885	0.4324	0.0232	0.034
Mof_C 	C 	0.7516	0.497	0.1422	-0.011
Mof_C 	C 	0.8102	0.546	0.244	-0.004
Mof_C 	C 	0.8782	0.6062	0.3627	0.021
Mof_C 	C 	0.7955	0.6569	0.4416	-0.032
Mof_H 	H 	0.6945	0.6547	0.4141	0.063
Mof_C 	C 	0.8617	0.709	0.5578	-0.078
Mof_C 	C 	0.0135	0.7174	0.6011	0.027
Mof_H 	H 	0.0584	0.7543	0.68	0.055
Mof_C 	C 	0.0979	0.6697	0.5245	-0.085
Mof_C 	C 	0.0284	0.6107	0.4091	-0.021
Mof_H 	H 	0.0843	0.5717	0.3594	0.064
Mof_C 	C 	0.5613	0.0661	0.7888	0.304
Mof_C 	C 	0.5723	0.5449	0.7663	0.372
Mof_C 	C 	0.7688	0.7562	0.6388	0.362
Mof_C 	C 	0.2607	0.6753	0.5686	0.396
Mof_O 	O 	0.5756	0.9918	0.85	-0.39
Mof_O 	O 	0.5275	0.0103	0.6829	-0.318
Mof_O 	O 	0.5996	0.68	0.8186	-0.435
Mof_O 	O 	0.5244	0.4843	0.6598	-0.444
Mof_O 	O 	0.8257	0.8413	0.7371	-0.303
Mof_O 	O 	0.6335	0.7123	0.5993	-0.538
Mof_O 	O 	0.3239	0.7564	0.6697	-0.454
Mof_O 	O 	0.3216	0.596	0.499	-0.468
Mof_Zn	Zn	0.54071	0.79745	0.72617	1.238
Mof_C 	C 	0.4063	0.775	0.1523	-0.041
Mof_C 	C 	0.4282	0.6913	0.2182	0.004
Mof_H 	H 	0.4625	0.7335	0.2979	0.065
Mof_C 	C 	0.3985	0.5433	0.1644	-0.077
Mof_C 	C 	0.3392	0.4847	0.0459	-0.033
Mof_H 	H 	0.3166	0.3868	0.0102	0.072
Mof_C 	C 	0.3515	0.7126	0.0346	-0.049
Mof_H 	H 	0.3408	0.7701	0.992	0.079
Mof_C 	C 	0.3115	0.5676	0.9768	0.034
Mof_C 	C 	0.2484	0.503	0.8578	-0.011
Mof_C 	C 	0.1898	0.454	0.756	-0.004
Mof_C 	C 	0.1218	0.3938	0.6373	0.021
Mof_C 	C 	0.2045	0.3431	0.5584	-0.032
Mof_H 	H 	0.3055	0.3453	0.5859	0.063
Mof_C 	C 	0.1383	0.291	0.4422	-0.078
Mof_C 	C 	0.9865	0.2826	0.3989	0.027
Mof_H 	H 	0.9416	0.2457	0.32	0.055
Mof_C 	C 	0.9021	0.3303	0.4755	-0.085
Mof_C 	C 	0.9716	0.3893	0.5909	-0.021
Mof_H 	H 	0.9157	0.4283	0.6406	0.064
Mof_C 	C 	0.4387	0.9339	0.2112	0.304
Mof_C 	C 	0.4277	0.4551	0.2337	0.372
Mof_C 	C 	0.2312	0.2438	0.3612	0.362
Mof_C 	C 	0.7393	0.3247	0.4314	0.396
Mof_O 	O 	0.4244	0.0082	0.15	-0.39
Mof_O 	O 	0.4725	0.9897	0.3171	-0.318
Mof_O 	O 	0.4004	0.32	0.1814	-0.435
Mof_O 	O 	0.4756	0.5157	0.3402	-0.444
Mof_O 	O 	0.1743	0.1587	0.2629	-0.303
Mof_O 	O 	0.3665	0.2877	0.4007	-0.538
Mof_O 	O 	0.6761	0.2436	0.3303	-0.454
Mof_O 	O 	0.6784	0.404	0.501	-0.468
Mof_Zn	Zn	0.45929	0.20255	0.27383	1.238
Mof_Zn	Zn	0.5	0.5	0.5	1.244
_end
