data_functionalizedCrystal
_audit_creation_method	'EQeq! by Chris Wilmer'
_symmetry_space_group_name_H-M	'P1'
_symmetry_Int_Tables_number	1
_symmetry_cell_setting	triclinic
loop_
_symmetry_equiv_pos_as_xyz
  x,y,z
_cell_length_a	21.165
_cell_length_b	21.165
_cell_length_c	21.165
_cell_angle_alpha	90
_cell_angle_beta	90
_cell_angle_gamma	90
loop_
_atom_site_label
_atom_site_type_symbol
_atom_site_fract_x
_atom_site_fract_y
_atom_site_fract_z
_atom_site_charge
Mof_N 	N 	0.5689	0.6992	0.0672	-0.206
Mof_C 	C 	0.5884	0.7584	0.0879	0.034
Mof_H 	H 	0.5725	0.7954	0.0681	-0.011
Mof_C 	C 	0.6311	0.7635	0.1376	-0.086
Mof_H 	H 	0.6444	0.8039	0.1517	0.058
Mof_C 	C 	0.6544	0.7093	0.1665	-0.004
Mof_C 	C 	0.6349	0.6501	0.1458	-0.07
Mof_H 	H 	0.6508	0.6131	0.1656	0.066
Mof_C 	C 	0.5922	0.645	0.0962	0.03
Mof_H 	H 	0.5789	0.6045	0.0821	0.048
Mof_C 	C 	0.695	0.7239	0.2172	0.136
Mof_C 	C 	0.6848	0.771	0.2567	-0.199
Mof_H 	H 	0.6487	0.7971	0.2508	0.102
Mof_N 	N 	0.4311	0.3008	0.0672	-0.207
Mof_C 	C 	0.4116	0.2416	0.0879	0.031
Mof_H 	H 	0.4275	0.2046	0.0681	-0.023
Mof_C 	C 	0.3689	0.2365	0.1376	-0.091
Mof_H 	H 	0.3556	0.1961	0.1517	0.042
Mof_C 	C 	0.3456	0.2907	0.1665	-0.003
Mof_C 	C 	0.3651	0.3499	0.1458	-0.074
Mof_H 	H 	0.3492	0.3869	0.1656	0.066
Mof_C 	C 	0.4078	0.355	0.0962	0.028
Mof_H 	H 	0.4211	0.3955	0.0821	0.047
Mof_C 	C 	0.305	0.2761	0.2172	0.12
Mof_C 	C 	0.3152	0.229	0.2567	-0.191
Mof_H 	H 	0.3513	0.2029	0.2508	0.089
Mof_N 	N 	0.4311	0.6992	0.9328	-0.177
Mof_C 	C 	0.4116	0.7584	0.9121	0.046
Mof_H 	H 	0.4275	0.7954	0.9319	0.019
Mof_C 	C 	0.3689	0.7635	0.8624	-0.078
Mof_H 	H 	0.3556	0.8039	0.8483	0.066
Mof_C 	C 	0.3456	0.7093	0.8335	0
Mof_C 	C 	0.3651	0.6501	0.8542	-0.065
Mof_H 	H 	0.3492	0.6131	0.8344	0.07
Mof_C 	C 	0.4078	0.645	0.9038	0.041
Mof_H 	H 	0.4211	0.6045	0.9179	0.067
Mof_C 	C 	0.305	0.7239	0.7828	0.139
Mof_C 	C 	0.3152	0.771	0.7433	-0.2
Mof_H 	H 	0.3513	0.7971	0.7492	0.104
Mof_N 	N 	0.5689	0.3008	0.9328	-0.178
Mof_C 	C 	0.5884	0.2416	0.9121	0.045
Mof_H 	H 	0.5725	0.2046	0.9319	0.009
Mof_C 	C 	0.6311	0.2365	0.8624	-0.079
Mof_H 	H 	0.6444	0.1961	0.8483	0.056
Mof_C 	C 	0.6544	0.2907	0.8335	0
Mof_C 	C 	0.6349	0.3499	0.8542	-0.065
Mof_H 	H 	0.6508	0.3869	0.8344	0.072
Mof_C 	C 	0.5922	0.355	0.9038	0.042
Mof_H 	H 	0.5789	0.3955	0.9179	0.067
Mof_C 	C 	0.695	0.2761	0.7828	0.138
Mof_C 	C 	0.6848	0.229	0.7433	-0.199
Mof_H 	H 	0.6487	0.2029	0.7492	0.097
Mof_N 	N 	0.0672	0.5689	0.6992	-0.205
Mof_C 	C 	0.0879	0.5884	0.7584	0.035
Mof_H 	H 	0.0681	0.5725	0.7954	-0.01
Mof_C 	C 	0.1376	0.6311	0.7635	-0.085
Mof_H 	H 	0.1517	0.6444	0.8039	0.059
Mof_C 	C 	0.1665	0.6544	0.7093	-0.003
Mof_C 	C 	0.1458	0.6349	0.6501	-0.07
Mof_H 	H 	0.1656	0.6508	0.6131	0.066
Mof_C 	C 	0.0962	0.5922	0.645	0.03
Mof_H 	H 	0.0821	0.5789	0.6045	0.048
Mof_C 	C 	0.2172	0.695	0.7239	0.136
Mof_C 	C 	0.2567	0.6848	0.771	-0.199
Mof_H 	H 	0.2508	0.6487	0.7971	0.102
Mof_N 	N 	0.0672	0.4311	0.3008	-0.207
Mof_C 	C 	0.0879	0.4116	0.2416	0.031
Mof_H 	H 	0.0681	0.4275	0.2046	-0.023
Mof_C 	C 	0.1376	0.3689	0.2365	-0.091
Mof_H 	H 	0.1517	0.3556	0.1961	0.042
Mof_C 	C 	0.1665	0.3456	0.2907	-0.003
Mof_C 	C 	0.1458	0.3651	0.3499	-0.074
Mof_H 	H 	0.1656	0.3492	0.3869	0.066
Mof_C 	C 	0.0962	0.4078	0.355	0.028
Mof_H 	H 	0.0821	0.4211	0.3955	0.047
Mof_C 	C 	0.2172	0.305	0.2761	0.12
Mof_C 	C 	0.2567	0.3152	0.229	-0.191
Mof_H 	H 	0.2508	0.3513	0.2029	0.089
Mof_N 	N 	0.9328	0.4311	0.6992	-0.177
Mof_C 	C 	0.9121	0.4116	0.7584	0.046
Mof_H 	H 	0.9319	0.4275	0.7954	0.019
Mof_C 	C 	0.8624	0.3689	0.7635	-0.078
Mof_H 	H 	0.8483	0.3556	0.8039	0.066
Mof_C 	C 	0.8335	0.3456	0.7093	0
Mof_C 	C 	0.8542	0.3651	0.6501	-0.065
Mof_H 	H 	0.8344	0.3492	0.6131	0.07
Mof_C 	C 	0.9038	0.4078	0.645	0.041
Mof_H 	H 	0.9179	0.4211	0.6045	0.067
Mof_C 	C 	0.7828	0.305	0.7239	0.139
Mof_C 	C 	0.7433	0.3152	0.771	-0.2
Mof_H 	H 	0.7492	0.3513	0.7971	0.104
Mof_N 	N 	0.9328	0.5689	0.3008	-0.178
Mof_C 	C 	0.9121	0.5884	0.2416	0.045
Mof_H 	H 	0.9319	0.5725	0.2046	0.009
Mof_C 	C 	0.8624	0.6311	0.2365	-0.079
Mof_H 	H 	0.8483	0.6444	0.1961	0.056
Mof_C 	C 	0.8335	0.6544	0.2907	0
Mof_C 	C 	0.8542	0.6349	0.3499	-0.065
Mof_H 	H 	0.8344	0.6508	0.3869	0.072
Mof_C 	C 	0.9038	0.5922	0.355	0.042
Mof_H 	H 	0.9179	0.5789	0.3955	0.067
Mof_C 	C 	0.7828	0.695	0.2761	0.138
Mof_C 	C 	0.7433	0.6848	0.229	-0.199
Mof_H 	H 	0.7492	0.6487	0.2029	0.097
Mof_N 	N 	0.6992	0.0672	0.5689	-0.205
Mof_C 	C 	0.7584	0.0879	0.5884	0.035
Mof_H 	H 	0.7954	0.0681	0.5725	-0.01
Mof_C 	C 	0.7635	0.1376	0.6311	-0.085
Mof_H 	H 	0.8039	0.1517	0.6444	0.059
Mof_C 	C 	0.7093	0.1665	0.6544	-0.003
Mof_C 	C 	0.6501	0.1458	0.6349	-0.07
Mof_H 	H 	0.6131	0.1656	0.6508	0.066
Mof_C 	C 	0.645	0.0962	0.5922	0.03
Mof_H 	H 	0.6045	0.0821	0.5789	0.048
Mof_C 	C 	0.7239	0.2172	0.695	0.136
Mof_C 	C 	0.771	0.2567	0.6848	-0.199
Mof_H 	H 	0.7971	0.2508	0.6487	0.102
Mof_N 	N 	0.3008	0.0672	0.4311	-0.207
Mof_C 	C 	0.2416	0.0879	0.4116	0.031
Mof_H 	H 	0.2046	0.0681	0.4275	-0.023
Mof_C 	C 	0.2365	0.1376	0.3689	-0.091
Mof_H 	H 	0.1961	0.1517	0.3556	0.042
Mof_C 	C 	0.2907	0.1665	0.3456	-0.003
Mof_C 	C 	0.3499	0.1458	0.3651	-0.074
Mof_H 	H 	0.3869	0.1656	0.3492	0.066
Mof_C 	C 	0.355	0.0962	0.4078	0.028
Mof_H 	H 	0.3955	0.0821	0.4211	0.047
Mof_C 	C 	0.2761	0.2172	0.305	0.12
Mof_C 	C 	0.229	0.2567	0.3152	-0.191
Mof_H 	H 	0.2029	0.2508	0.3513	0.089
Mof_N 	N 	0.6992	0.9328	0.4311	-0.177
Mof_C 	C 	0.7584	0.9121	0.4116	0.046
Mof_H 	H 	0.7954	0.9319	0.4275	0.019
Mof_C 	C 	0.7635	0.8624	0.3689	-0.078
Mof_H 	H 	0.8039	0.8483	0.3556	0.066
Mof_C 	C 	0.7093	0.8335	0.3456	0
Mof_C 	C 	0.6501	0.8542	0.3651	-0.065
Mof_H 	H 	0.6131	0.8344	0.3492	0.07
Mof_C 	C 	0.645	0.9038	0.4078	0.041
Mof_H 	H 	0.6045	0.9179	0.4211	0.067
Mof_C 	C 	0.7239	0.7828	0.305	0.139
Mof_C 	C 	0.771	0.7433	0.3152	-0.2
Mof_H 	H 	0.7971	0.7492	0.3513	0.104
Mof_N 	N 	0.3008	0.9328	0.5689	-0.178
Mof_C 	C 	0.2416	0.9121	0.5884	0.045
Mof_H 	H 	0.2046	0.9319	0.5725	0.009
Mof_C 	C 	0.2365	0.8624	0.6311	-0.079
Mof_H 	H 	0.1961	0.8483	0.6444	0.056
Mof_C 	C 	0.2907	0.8335	0.6544	0
Mof_C 	C 	0.3499	0.8542	0.6349	-0.065
Mof_H 	H 	0.3869	0.8344	0.6508	0.072
Mof_C 	C 	0.355	0.9038	0.5922	0.042
Mof_H 	H 	0.3955	0.9179	0.5789	0.067
Mof_C 	C 	0.2761	0.7828	0.695	0.138
Mof_C 	C 	0.229	0.7433	0.6848	-0.199
Mof_H 	H 	0.2029	0.7492	0.6487	0.097
Mof_N 	N 	0.4311	0.3008	0.9328	-0.179
Mof_C 	C 	0.4116	0.2416	0.9121	0.043
Mof_H 	H 	0.4275	0.2046	0.9319	0.008
Mof_C 	C 	0.3689	0.2365	0.8624	-0.082
Mof_H 	H 	0.3556	0.1961	0.8483	0.053
Mof_C 	C 	0.3456	0.2907	0.8335	0
Mof_C 	C 	0.3651	0.3499	0.8542	-0.067
Mof_H 	H 	0.3492	0.3869	0.8344	0.071
Mof_C 	C 	0.4078	0.355	0.9038	0.04
Mof_H 	H 	0.4211	0.3955	0.9179	0.067
Mof_C 	C 	0.305	0.2761	0.7828	0.13
Mof_C 	C 	0.3152	0.229	0.7433	-0.195
Mof_H 	H 	0.3513	0.2029	0.7492	0.094
Mof_N 	N 	0.5689	0.6992	0.9328	-0.177
Mof_C 	C 	0.5884	0.7584	0.9121	0.048
Mof_H 	H 	0.5725	0.7954	0.9319	0.021
Mof_C 	C 	0.6311	0.7635	0.8624	-0.076
Mof_H 	H 	0.6444	0.8039	0.8483	0.069
Mof_C 	C 	0.6544	0.7093	0.8335	-0
Mof_C 	C 	0.6349	0.6501	0.8542	-0.063
Mof_H 	H 	0.6508	0.6131	0.8344	0.071
Mof_C 	C 	0.5922	0.645	0.9038	0.042
Mof_H 	H 	0.5789	0.6045	0.9179	0.067
Mof_C 	C 	0.695	0.7239	0.7828	0.147
Mof_C 	C 	0.6848	0.771	0.7433	-0.204
Mof_H 	H 	0.6487	0.7971	0.7492	0.107
Mof_N 	N 	0.5689	0.3008	0.0672	-0.206
Mof_C 	C 	0.5884	0.2416	0.0879	0.032
Mof_H 	H 	0.5725	0.2046	0.0681	-0.021
Mof_C 	C 	0.6311	0.2365	0.1376	-0.089
Mof_H 	H 	0.6444	0.1961	0.1517	0.046
Mof_C 	C 	0.6544	0.2907	0.1665	-0.003
Mof_C 	C 	0.6349	0.3499	0.1458	-0.072
Mof_H 	H 	0.6508	0.3869	0.1656	0.067
Mof_C 	C 	0.5922	0.355	0.0962	0.029
Mof_H 	H 	0.5789	0.3955	0.0821	0.048
Mof_C 	C 	0.695	0.2761	0.2172	0.127
Mof_C 	C 	0.6848	0.229	0.2567	-0.195
Mof_H 	H 	0.6487	0.2029	0.2508	0.092
Mof_N 	N 	0.4311	0.6992	0.0672	-0.205
Mof_C 	C 	0.4116	0.7584	0.0879	0.034
Mof_H 	H 	0.4275	0.7954	0.0681	-0.011
Mof_C 	C 	0.3689	0.7635	0.1376	-0.088
Mof_H 	H 	0.3556	0.8039	0.1517	0.055
Mof_C 	C 	0.3456	0.7093	0.1665	-0.003
Mof_C 	C 	0.3651	0.6501	0.1458	-0.072
Mof_H 	H 	0.3492	0.6131	0.1656	0.065
Mof_C 	C 	0.4078	0.645	0.0962	0.029
Mof_H 	H 	0.4211	0.6045	0.0821	0.047
Mof_C 	C 	0.305	0.7239	0.2172	0.128
Mof_C 	C 	0.3152	0.771	0.2567	-0.195
Mof_H 	H 	0.3513	0.7971	0.2508	0.099
Mof_N 	N 	0.9328	0.4311	0.3008	-0.179
Mof_C 	C 	0.9121	0.4116	0.2416	0.043
Mof_H 	H 	0.9319	0.4275	0.2046	0.008
Mof_C 	C 	0.8624	0.3689	0.2365	-0.082
Mof_H 	H 	0.8483	0.3556	0.1961	0.053
Mof_C 	C 	0.8335	0.3456	0.2907	0
Mof_C 	C 	0.8542	0.3651	0.3499	-0.067
Mof_H 	H 	0.8344	0.3492	0.3869	0.071
Mof_C 	C 	0.9038	0.4078	0.355	0.04
Mof_H 	H 	0.9179	0.4211	0.3955	0.067
Mof_C 	C 	0.7828	0.305	0.2761	0.13
Mof_C 	C 	0.7433	0.3152	0.229	-0.195
Mof_H 	H 	0.7492	0.3513	0.2029	0.094
Mof_N 	N 	0.9328	0.5689	0.6992	-0.177
Mof_C 	C 	0.9121	0.5884	0.7584	0.048
Mof_H 	H 	0.9319	0.5725	0.7954	0.021
Mof_C 	C 	0.8624	0.6311	0.7635	-0.076
Mof_H 	H 	0.8483	0.6444	0.8039	0.069
Mof_C 	C 	0.8335	0.6544	0.7093	-0
Mof_C 	C 	0.8542	0.6349	0.6501	-0.063
Mof_H 	H 	0.8344	0.6508	0.6131	0.071
Mof_C 	C 	0.9038	0.5922	0.645	0.042
Mof_H 	H 	0.9179	0.5789	0.6045	0.067
Mof_C 	C 	0.7828	0.695	0.7239	0.147
Mof_C 	C 	0.7433	0.6848	0.771	-0.204
Mof_H 	H 	0.7492	0.6487	0.7971	0.107
Mof_N 	N 	0.0672	0.5689	0.3008	-0.206
Mof_C 	C 	0.0879	0.5884	0.2416	0.032
Mof_H 	H 	0.0681	0.5725	0.2046	-0.021
Mof_C 	C 	0.1376	0.6311	0.2365	-0.089
Mof_H 	H 	0.1517	0.6444	0.1961	0.046
Mof_C 	C 	0.1665	0.6544	0.2907	-0.003
Mof_C 	C 	0.1458	0.6349	0.3499	-0.072
Mof_H 	H 	0.1656	0.6508	0.3869	0.067
Mof_C 	C 	0.0962	0.5922	0.355	0.029
Mof_H 	H 	0.0821	0.5789	0.3955	0.048
Mof_C 	C 	0.2172	0.695	0.2761	0.127
Mof_C 	C 	0.2567	0.6848	0.229	-0.195
Mof_H 	H 	0.2508	0.6487	0.2029	0.092
Mof_N 	N 	0.0672	0.4311	0.6992	-0.205
Mof_C 	C 	0.0879	0.4116	0.7584	0.034
Mof_H 	H 	0.0681	0.4275	0.7954	-0.011
Mof_C 	C 	0.1376	0.3689	0.7635	-0.088
Mof_H 	H 	0.1517	0.3556	0.8039	0.055
Mof_C 	C 	0.1665	0.3456	0.7093	-0.003
Mof_C 	C 	0.1458	0.3651	0.6501	-0.072
Mof_H 	H 	0.1656	0.3492	0.6131	0.065
Mof_C 	C 	0.0962	0.4078	0.645	0.029
Mof_H 	H 	0.0821	0.4211	0.6045	0.047
Mof_C 	C 	0.2172	0.305	0.7239	0.128
Mof_C 	C 	0.2567	0.3152	0.771	-0.195
Mof_H 	H 	0.2508	0.3513	0.7971	0.099
Mof_N 	N 	0.3008	0.9328	0.4311	-0.179
Mof_C 	C 	0.2416	0.9121	0.4116	0.043
Mof_H 	H 	0.2046	0.9319	0.4275	0.008
Mof_C 	C 	0.2365	0.8624	0.3689	-0.082
Mof_H 	H 	0.1961	0.8483	0.3556	0.053
Mof_C 	C 	0.2907	0.8335	0.3456	0
Mof_C 	C 	0.3499	0.8542	0.3651	-0.067
Mof_H 	H 	0.3869	0.8344	0.3492	0.071
Mof_C 	C 	0.355	0.9038	0.4078	0.04
Mof_H 	H 	0.3955	0.9179	0.4211	0.067
Mof_C 	C 	0.2761	0.7828	0.305	0.13
Mof_C 	C 	0.229	0.7433	0.3152	-0.195
Mof_H 	H 	0.2029	0.7492	0.3513	0.094
Mof_N 	N 	0.6992	0.9328	0.5689	-0.177
Mof_C 	C 	0.7584	0.9121	0.5884	0.048
Mof_H 	H 	0.7954	0.9319	0.5725	0.021
Mof_C 	C 	0.7635	0.8624	0.6311	-0.076
Mof_H 	H 	0.8039	0.8483	0.6444	0.069
Mof_C 	C 	0.7093	0.8335	0.6544	-0
Mof_C 	C 	0.6501	0.8542	0.6349	-0.063
Mof_H 	H 	0.6131	0.8344	0.6508	0.071
Mof_C 	C 	0.645	0.9038	0.5922	0.042
Mof_H 	H 	0.6045	0.9179	0.5789	0.067
Mof_C 	C 	0.7239	0.7828	0.695	0.147
Mof_C 	C 	0.771	0.7433	0.6848	-0.204
Mof_H 	H 	0.7971	0.7492	0.6487	0.107
Mof_N 	N 	0.3008	0.0672	0.5689	-0.206
Mof_C 	C 	0.2416	0.0879	0.5884	0.032
Mof_H 	H 	0.2046	0.0681	0.5725	-0.021
Mof_C 	C 	0.2365	0.1376	0.6311	-0.089
Mof_H 	H 	0.1961	0.1517	0.6444	0.046
Mof_C 	C 	0.2907	0.1665	0.6544	-0.003
Mof_C 	C 	0.3499	0.1458	0.6349	-0.072
Mof_H 	H 	0.3869	0.1656	0.6508	0.067
Mof_C 	C 	0.355	0.0962	0.5922	0.029
Mof_H 	H 	0.3955	0.0821	0.5789	0.048
Mof_C 	C 	0.2761	0.2172	0.695	0.127
Mof_C 	C 	0.229	0.2567	0.6848	-0.195
Mof_H 	H 	0.2029	0.2508	0.6487	0.092
Mof_N 	N 	0.6992	0.0672	0.4311	-0.205
Mof_C 	C 	0.7584	0.0879	0.4116	0.034
Mof_H 	H 	0.7954	0.0681	0.4275	-0.011
Mof_C 	C 	0.7635	0.1376	0.3689	-0.088
Mof_H 	H 	0.8039	0.1517	0.3556	0.055
Mof_C 	C 	0.7093	0.1665	0.3456	-0.003
Mof_C 	C 	0.6501	0.1458	0.3651	-0.072
Mof_H 	H 	0.6131	0.1656	0.3492	0.065
Mof_C 	C 	0.645	0.0962	0.4078	0.029
Mof_H 	H 	0.6045	0.0821	0.4211	0.047
Mof_C 	C 	0.7239	0.2172	0.305	0.128
Mof_C 	C 	0.771	0.2567	0.3152	-0.195
Mof_H 	H 	0.7971	0.2508	0.3513	0.099
Mof_Cu	Cu	0.5	0.6864	-0	0.888
Mof_F 	F 	0.5	0.5902	-0	-0.893
Mof_Cu	Cu	0.5	0.3136	-0	0.887
Mof_F 	F 	0.5	0.4098	-0	-0.893
Mof_Cu	Cu	2.57359e-33	0.5	0.6864	0.888
Mof_F 	F 	7.53797e-33	0.5	0.5902	-0.893
Mof_Cu	Cu	-1.48672e-33	0.5	0.3136	0.887
Mof_F 	F 	6.86158e-33	0.5	0.4098	-0.893
Mof_Cu	Cu	0.6864	-5.32507e-33	0.5	0.888
Mof_F 	F 	0.5902	-5.32507e-33	0.5	-0.893
Mof_Cu	Cu	0.3136	-5.32507e-33	0.5	0.887
Mof_F 	F 	0.4098	-5.32507e-33	0.5	-0.893
Mof_Zr	Zr	0.5	0.5	-0	3.271
Mof_Zr	Zr	1.8747e-33	0.5	0.5	3.271
Mof_Zr	Zr	0.5	-5.32507e-33	0.5	3.271
Mof_F 	F 	0.5408	0.5	0.0777	-0.716
Mof_F 	F 	0.4592	0.5	0.0777	-0.717
Mof_F 	F 	0.4592	0.5	0.9223	-0.687
Mof_F 	F 	0.5408	0.5	0.9223	-0.686
Mof_F 	F 	0.0777	0.5408	0.5	-0.716
Mof_F 	F 	0.0777	0.4592	0.5	-0.717
Mof_F 	F 	0.9223	0.4592	0.5	-0.687
Mof_F 	F 	0.9223	0.5408	0.5	-0.686
Mof_F 	F 	0.5	0.0777	0.5408	-0.716
Mof_F 	F 	0.5	0.0777	0.4592	-0.717
Mof_F 	F 	0.5	0.9223	0.4592	-0.687
Mof_F 	F 	0.5	0.9223	0.5408	-0.686
_end
