data_functionalizedCrystal
_audit_creation_method	'EQeq! by Chris Wilmer'
_symmetry_space_group_name_H-M	'P1'
_symmetry_Int_Tables_number	1
_symmetry_cell_setting	triclinic
loop_
_symmetry_equiv_pos_as_xyz
  x,y,z
_cell_length_a	18.5617
_cell_length_b	18.7144
_cell_length_c	49.0783
_cell_angle_alpha	90
_cell_angle_beta	90
_cell_angle_gamma	90
loop_
_atom_site_label
_atom_site_type_symbol
_atom_site_fract_x
_atom_site_fract_y
_atom_site_fract_z
_atom_site_charge
Mof_Gd	Gd	0.69844	0.07956	0.62145	2.1
Mof_Gd	Gd	0.85831	0.90317	0.62246	2.003
Mof_Gd	Gd	0.8032	0.02016	0.87576	1.854
Mof_Gd	Gd	0.19844	0.92044	0.87855	2.099
Mof_Gd	Gd	0.35831	0.09683	0.87754	2.003
Mof_Gd	Gd	0.3032	0.97984	0.62423	1.855
Mof_Gd	Gd	0.80156	0.57956	0.37855	2.102
Mof_Gd	Gd	0.64169	0.40317	0.37754	2.003
Mof_Gd	Gd	0.6968	0.52016	0.12423	1.858
Mof_Gd	Gd	0.30156	0.42044	0.12145	2.103
Mof_Gd	Gd	0.14169	0.59683	0.12246	2.003
Mof_Gd	Gd	0.1968	0.47984	0.37576	1.858
Mof_Gd	Gd	0.30156	0.92044	0.37855	2.1
Mof_Gd	Gd	0.14169	0.09683	0.37754	2.003
Mof_Gd	Gd	0.1968	0.97984	0.12423	1.854
Mof_Gd	Gd	0.80156	0.07956	0.12145	2.099
Mof_Gd	Gd	0.64169	0.90317	0.12246	2.003
Mof_Gd	Gd	0.6968	0.02016	0.37576	1.855
Mof_Gd	Gd	0.19844	0.42044	0.62145	2.102
Mof_Gd	Gd	0.35831	0.59683	0.62246	2.003
Mof_Gd	Gd	0.3032	0.47984	0.87576	1.858
Mof_Gd	Gd	0.69844	0.57956	0.87855	2.103
Mof_Gd	Gd	0.85831	0.40317	0.87754	2.003
Mof_Gd	Gd	0.8032	0.52016	0.62423	1.858
Mof_Co	Co	0.53599	0.88284	0.75363	1.139
Mof_Co	Co	0.88782	0.75302	0.99812	1.162
Mof_Co	Co	0.03599	0.11716	0.74637	1.139
Mof_Co	Co	0.38782	0.24698	0.50188	1.162
Mof_Co	Co	0.96401	0.38284	0.24637	1.137
Mof_Co	Co	0.61218	0.25302	0.00188	1.161
Mof_Co	Co	0.46401	0.61716	0.25363	1.138
Mof_Co	Co	0.11218	0.74698	0.49812	1.161
Mof_Co	Co	0.46401	0.11716	0.24637	1.138
Mof_Co	Co	0.11218	0.24698	0.00188	1.161
Mof_Co	Co	0.96401	0.88284	0.25363	1.138
Mof_Co	Co	0.61218	0.75302	0.49812	1.161
Mof_Co	Co	0.03599	0.61716	0.75363	1.136
Mof_Co	Co	0.38782	0.74698	0.99812	1.161
Mof_Co	Co	0.53599	0.38284	0.74637	1.138
Mof_Co	Co	0.88782	0.25302	0.50188	1.161
Mof_H 	H 	0.8322	0.1683	0.5506	-0.001
Mof_H 	H 	0.9743	0.0095	0.5616	0.003
Mof_H 	H 	0.034	0.0485	0.5229	0.103
Mof_H 	H 	0.086	0.0903	0.4859	0.116
Mof_H 	H 	0.124	0.1307	0.444	-0
Mof_H 	H 	0.9642	0.272	0.4447	-0.001
Mof_H 	H 	0.706	0.8206	0.5435	-0.006
Mof_H 	H 	0.5843	0.9791	0.573	-0.001
Mof_H 	H 	0.5048	0.9602	0.5376	0.085
Mof_H 	H 	0.4362	0.9395	0.5019	0.088
Mof_H 	H 	0.3747	0.9154	0.4619	0.032
Mof_H 	H 	0.5121	0.7546	0.448	-0
Mof_H 	H 	0.609	0.949	0.7017	-0.014
Mof_H 	H 	0.7522	0.8035	0.6759	-0.002
Mof_H 	H 	0.7279	0.7367	0.7143	0.089
Mof_H 	H 	0.7124	0.6875	0.7534	0.085
Mof_H 	H 	0.6866	0.6392	0.7966	-0.004
Mof_H 	H 	0.5433	0.7942	0.8079	-0.002
Mof_H 	H 	0.5187	0.7958	0.698	0
Mof_H 	H 	0.3657	0.6498	0.7106	0.012
Mof_H 	H 	0.3491	0.6977	0.7543	0.079
Mof_H 	H 	0.3354	0.749	0.793	0.09
Mof_H 	H 	0.3084	0.8239	0.8294	-0.038
Mof_H 	H 	0.4627	0.957	0.8038	-0.012
Mof_H 	H 	0.4375	0.9183	0.7051	0.007
Mof_H 	H 	0.4467	0.1289	0.6936	0.024
Mof_H 	H 	0.5127	0.1389	0.7332	0.077
Mof_H 	H 	0.5624	0.1392	0.775	0.076
Mof_H 	H 	0.6303	0.1284	0.8137	0.033
Mof_H 	H 	0.6392	0.9185	0.8027	0.004
Mof_H 	H 	0.8689	0.8398	0.9453	0.01
Mof_H 	H 	0.6556	0.8638	0.9358	0.047
Mof_H 	H 	0.6396	0.7921	0.974	0.072
Mof_H 	H 	0.6328	0.722	0.0098	0.082
Mof_H 	H 	0.6366	0.6444	0.047	0.024
Mof_H 	H 	0.8508	0.6473	0.0438	0.013
Mof_H 	H 	0.5162	0.6747	0.851	0.305
Mof_H 	H 	0.5691	0.9899	0.616	0.299
Mof_H 	H 	0.5491	0.0416	0.6348	0.31
Mof_H 	H 	0.7157	0.2323	0.6226	0.312
Mof_H 	H 	0.7743	0.2065	0.6372	0.314
Mof_H 	H 	0.0012	0.9498	0.6147	0.345
Mof_H 	H 	0.0082	0.8856	0.6287	0.344
Mof_H 	H 	0.7746	0.1714	0.8738	0.304
Mof_H 	H 	0.8408	0.1663	0.8868	0.319
Mof_H 	H 	0.9317	0.0974	0.8896	0.34
Mof_H 	H 	0.9377	0.0339	0.904	0.325
Mof_H 	H 	0.3322	0.8317	0.9494	-0.001
Mof_H 	H 	0.4743	0.9905	0.9384	0.004
Mof_H 	H 	0.534	0.9515	0.9771	0.1
Mof_H 	H 	0.586	0.9097	0.0141	0.115
Mof_H 	H 	0.624	0.8693	0.056	-0.001
Mof_H 	H 	0.4642	0.728	0.0553	-0.002
Mof_H 	H 	0.206	0.1794	0.9565	-0.006
Mof_H 	H 	0.0843	0.0209	0.927	-0.001
Mof_H 	H 	0.0048	0.0398	0.9624	0.085
Mof_H 	H 	0.9362	0.0605	0.9981	0.089
Mof_H 	H 	0.8747	0.0846	0.0381	0.031
Mof_H 	H 	0.0121	0.2454	0.052	0.006
Mof_H 	H 	0.109	0.051	0.7983	-0.014
Mof_H 	H 	0.2522	0.1965	0.8241	-0.002
Mof_H 	H 	0.2279	0.2633	0.7857	0.089
Mof_H 	H 	0.2124	0.3125	0.7466	0.085
Mof_H 	H 	0.1866	0.3608	0.7034	-0.005
Mof_H 	H 	0.0433	0.2058	0.6921	-0.002
Mof_H 	H 	0.0187	0.2042	0.802	-0.003
Mof_H 	H 	0.8657	0.3502	0.7894	0.011
Mof_H 	H 	0.8491	0.3023	0.7457	0.079
Mof_H 	H 	0.8354	0.251	0.707	0.09
Mof_H 	H 	0.8084	0.1761	0.6706	-0.037
Mof_H 	H 	0.9627	0.043	0.6962	-0.011
Mof_H 	H 	0.9375	0.0817	0.7949	0.011
Mof_H 	H 	0.9467	0.8711	0.8064	0.035
Mof_H 	H 	0.0127	0.8611	0.7668	0.056
Mof_H 	H 	0.0624	0.8608	0.725	0.077
Mof_H 	H 	0.1303	0.8716	0.6863	0.032
Mof_H 	H 	0.1392	0.0815	0.6973	0.003
Mof_H 	H 	0.3689	0.1602	0.5547	0.01
Mof_H 	H 	0.1556	0.1362	0.5642	0.047
Mof_H 	H 	0.1396	0.2079	0.526	0.073
Mof_H 	H 	0.1328	0.278	0.4902	0.082
Mof_H 	H 	0.1366	0.3556	0.453	0.024
Mof_H 	H 	0.3508	0.3527	0.4562	0.013
Mof_H 	H 	0.0162	0.3253	0.649	0.304
Mof_H 	H 	0.0691	0.0101	0.884	0.301
Mof_H 	H 	0.0491	0.9584	0.8652	0.309
Mof_H 	H 	0.2157	0.7677	0.8774	0.312
Mof_H 	H 	0.2743	0.7935	0.8628	0.314
Mof_H 	H 	0.5012	0.0502	0.8853	0.357
Mof_H 	H 	0.5082	0.1144	0.8713	0.354
Mof_H 	H 	0.2746	0.8286	0.6262	0.304
Mof_H 	H 	0.3408	0.8337	0.6132	0.319
Mof_H 	H 	0.4317	0.9026	0.6104	0.34
Mof_H 	H 	0.4377	0.9661	0.596	0.326
Mof_H 	H 	0.6678	0.6683	0.4494	-0.001
Mof_H 	H 	0.5257	0.5095	0.4384	0.004
Mof_H 	H 	0.466	0.5485	0.4771	0.099
Mof_H 	H 	0.414	0.5903	0.5141	0.115
Mof_H 	H 	0.376	0.6307	0.556	-0.001
Mof_H 	H 	0.5358	0.772	0.5553	-0.002
Mof_H 	H 	0.794	0.3206	0.4565	-0.006
Mof_H 	H 	0.9157	0.4791	0.427	-0.002
Mof_H 	H 	0.9952	0.4602	0.4624	0.084
Mof_H 	H 	0.0638	0.4395	0.4981	0.088
Mof_H 	H 	0.1253	0.4154	0.5381	0.032
Mof_H 	H 	0.9879	0.2546	0.552	-0.001
Mof_H 	H 	0.891	0.449	0.2983	-0.015
Mof_H 	H 	0.7478	0.3035	0.3241	-0.002
Mof_H 	H 	0.7721	0.2367	0.2857	0.089
Mof_H 	H 	0.7876	0.1875	0.2466	0.085
Mof_H 	H 	0.8134	0.1392	0.2034	-0.005
Mof_H 	H 	0.9567	0.2942	0.1921	-0.004
Mof_H 	H 	0.9813	0.2958	0.302	-0.009
Mof_H 	H 	0.1343	0.1498	0.2894	0.01
Mof_H 	H 	0.1509	0.1977	0.2457	0.08
Mof_H 	H 	0.1646	0.249	0.207	0.09
Mof_H 	H 	0.1916	0.3239	0.1706	-0.037
Mof_H 	H 	0.0373	0.457	0.1962	-0.01
Mof_H 	H 	0.0625	0.4183	0.2949	0.009
Mof_H 	H 	0.0533	0.6289	0.3064	0.029
Mof_H 	H 	0.9873	0.6389	0.2668	0.066
Mof_H 	H 	0.9376	0.6392	0.225	0.077
Mof_H 	H 	0.8697	0.6284	0.1863	0.033
Mof_H 	H 	0.8608	0.4185	0.1973	0.004
Mof_H 	H 	0.6311	0.3398	0.0547	0.009
Mof_H 	H 	0.8444	0.3638	0.0642	0.046
Mof_H 	H 	0.8604	0.2921	0.026	0.072
Mof_H 	H 	0.8672	0.222	0.9902	0.081
Mof_H 	H 	0.8634	0.1444	0.953	0.024
Mof_H 	H 	0.6492	0.1473	0.9562	0.013
Mof_H 	H 	0.9838	0.1747	0.149	0.303
Mof_H 	H 	0.9309	0.4899	0.384	0.297
Mof_H 	H 	0.9509	0.5416	0.3652	0.309
Mof_H 	H 	0.7843	0.7323	0.3774	0.312
Mof_H 	H 	0.7257	0.7065	0.3628	0.314
Mof_H 	H 	0.4988	0.4498	0.3853	0.357
Mof_H 	H 	0.4918	0.3856	0.3713	0.354
Mof_H 	H 	0.7254	0.6714	0.1262	0.304
Mof_H 	H 	0.6592	0.6663	0.1132	0.319
Mof_H 	H 	0.5683	0.5974	0.1104	0.34
Mof_H 	H 	0.5623	0.5339	0.096	0.326
Mof_H 	H 	0.1678	0.3317	0.0506	-0.001
Mof_H 	H 	0.0257	0.4905	0.0616	0.005
Mof_H 	H 	0.966	0.4515	0.0229	0.098
Mof_H 	H 	0.914	0.4097	0.9859	0.115
Mof_H 	H 	0.876	0.3693	0.944	-0.001
Mof_H 	H 	0.0358	0.228	0.9447	-0.002
Mof_H 	H 	0.294	0.6794	0.0435	-0.006
Mof_H 	H 	0.4157	0.5209	0.073	-0.002
Mof_H 	H 	0.4952	0.5398	0.0376	0.085
Mof_H 	H 	0.5638	0.5605	0.0019	0.088
Mof_H 	H 	0.6253	0.5846	0.9619	0.032
Mof_H 	H 	0.4879	0.7454	0.948	-0
Mof_H 	H 	0.391	0.551	0.2017	-0.014
Mof_H 	H 	0.2478	0.6965	0.1759	-0.002
Mof_H 	H 	0.2721	0.7633	0.2143	0.089
Mof_H 	H 	0.2876	0.8125	0.2534	0.085
Mof_H 	H 	0.3134	0.8608	0.2966	-0.005
Mof_H 	H 	0.4567	0.7058	0.3079	-0.002
Mof_H 	H 	0.4813	0.7042	0.198	0
Mof_H 	H 	0.6343	0.8502	0.2106	0.012
Mof_H 	H 	0.6509	0.8023	0.2543	0.079
Mof_H 	H 	0.6646	0.751	0.293	0.09
Mof_H 	H 	0.6916	0.6761	0.3294	-0.038
Mof_H 	H 	0.5373	0.543	0.3038	-0.012
Mof_H 	H 	0.5625	0.5817	0.2051	0.007
Mof_H 	H 	0.5533	0.3711	0.1936	0.024
Mof_H 	H 	0.4873	0.3611	0.2332	0.077
Mof_H 	H 	0.4376	0.3608	0.275	0.076
Mof_H 	H 	0.3697	0.3716	0.3137	0.033
Mof_H 	H 	0.3608	0.5815	0.3027	0.005
Mof_H 	H 	0.1311	0.6602	0.4453	0.01
Mof_H 	H 	0.3444	0.6362	0.4358	0.047
Mof_H 	H 	0.3604	0.7079	0.474	0.072
Mof_H 	H 	0.3672	0.778	0.5098	0.082
Mof_H 	H 	0.3634	0.8556	0.547	0.024
Mof_H 	H 	0.1492	0.8527	0.5438	0.013
Mof_H 	H 	0.4838	0.8253	0.351	0.305
Mof_H 	H 	0.4309	0.5101	0.116	0.298
Mof_H 	H 	0.4509	0.4584	0.1348	0.31
Mof_H 	H 	0.2843	0.2677	0.1226	0.312
Mof_H 	H 	0.2257	0.2935	0.1372	0.314
Mof_H 	H 	0.9988	0.5502	0.1147	0.352
Mof_H 	H 	0.9918	0.6144	0.1287	0.35
Mof_H 	H 	0.2254	0.3286	0.3738	0.304
Mof_H 	H 	0.1592	0.3337	0.3868	0.319
Mof_H 	H 	0.0683	0.4026	0.3896	0.34
Mof_H 	H 	0.0623	0.4661	0.404	0.326
Mof_H 	H 	0.1678	0.8317	0.4494	-0.001
Mof_H 	H 	0.0257	0.9905	0.4384	0.003
Mof_H 	H 	0.966	0.9515	0.4771	0.103
Mof_H 	H 	0.914	0.9097	0.5141	0.116
Mof_H 	H 	0.876	0.8693	0.556	-0
Mof_H 	H 	0.0358	0.728	0.5553	-0.001
Mof_H 	H 	0.294	0.1794	0.4565	-0.006
Mof_H 	H 	0.4157	0.0209	0.427	-0.001
Mof_H 	H 	0.4952	0.0398	0.4624	0.085
Mof_H 	H 	0.5638	0.0605	0.4981	0.088
Mof_H 	H 	0.6253	0.0846	0.5381	0.032
Mof_H 	H 	0.4879	0.2454	0.552	-0
Mof_H 	H 	0.391	0.051	0.2983	-0.014
Mof_H 	H 	0.2478	0.1965	0.3241	-0.002
Mof_H 	H 	0.2721	0.2633	0.2857	0.089
Mof_H 	H 	0.2876	0.3125	0.2466	0.085
Mof_H 	H 	0.3134	0.3608	0.2034	-0.004
Mof_H 	H 	0.4567	0.2058	0.1921	-0.002
Mof_H 	H 	0.4813	0.2042	0.302	0
Mof_H 	H 	0.6343	0.3502	0.2894	0.012
Mof_H 	H 	0.6509	0.3023	0.2457	0.079
Mof_H 	H 	0.6646	0.251	0.207	0.09
Mof_H 	H 	0.6916	0.1761	0.1706	-0.038
Mof_H 	H 	0.5373	0.043	0.1962	-0.012
Mof_H 	H 	0.5625	0.0817	0.2949	0.007
Mof_H 	H 	0.5533	0.8711	0.3064	0.024
Mof_H 	H 	0.4873	0.8611	0.2668	0.077
Mof_H 	H 	0.4376	0.8608	0.225	0.076
Mof_H 	H 	0.3697	0.8716	0.1863	0.033
Mof_H 	H 	0.3608	0.0815	0.1973	0.004
Mof_H 	H 	0.1311	0.1602	0.0547	0.01
Mof_H 	H 	0.3444	0.1362	0.0642	0.047
Mof_H 	H 	0.3604	0.2079	0.026	0.072
Mof_H 	H 	0.3672	0.278	0.9902	0.082
Mof_H 	H 	0.3634	0.3556	0.953	0.024
Mof_H 	H 	0.1492	0.3527	0.9562	0.013
Mof_H 	H 	0.4838	0.3253	0.149	0.305
Mof_H 	H 	0.4309	0.0101	0.384	0.299
Mof_H 	H 	0.4509	0.9584	0.3652	0.31
Mof_H 	H 	0.2843	0.7677	0.3774	0.312
Mof_H 	H 	0.2257	0.7935	0.3628	0.314
Mof_H 	H 	0.9988	0.0502	0.3853	0.345
Mof_H 	H 	0.9918	0.1144	0.3713	0.344
Mof_H 	H 	0.2254	0.8286	0.1262	0.304
Mof_H 	H 	0.1592	0.8337	0.1132	0.319
Mof_H 	H 	0.0683	0.9026	0.1104	0.34
Mof_H 	H 	0.0623	0.9661	0.096	0.325
Mof_H 	H 	0.6678	0.1683	0.0506	-0.001
Mof_H 	H 	0.5257	0.0095	0.0616	0.004
Mof_H 	H 	0.466	0.0485	0.0229	0.1
Mof_H 	H 	0.414	0.0903	0.9859	0.115
Mof_H 	H 	0.376	0.1307	0.944	-0.001
Mof_H 	H 	0.5358	0.272	0.9447	-0.002
Mof_H 	H 	0.794	0.8206	0.0435	-0.006
Mof_H 	H 	0.9157	0.9791	0.073	-0.001
Mof_H 	H 	0.9952	0.9602	0.0376	0.085
Mof_H 	H 	0.0638	0.9395	0.0019	0.089
Mof_H 	H 	0.1253	0.9154	0.9619	0.031
Mof_H 	H 	0.9879	0.7546	0.948	0.006
Mof_H 	H 	0.891	0.949	0.2017	-0.014
Mof_H 	H 	0.7478	0.8035	0.1759	-0.002
Mof_H 	H 	0.7721	0.7367	0.2143	0.089
Mof_H 	H 	0.7876	0.6875	0.2534	0.085
Mof_H 	H 	0.8134	0.6392	0.2966	-0.005
Mof_H 	H 	0.9567	0.7942	0.3079	-0.002
Mof_H 	H 	0.9813	0.7958	0.198	-0.003
Mof_H 	H 	0.1343	0.6498	0.2106	0.011
Mof_H 	H 	0.1509	0.6977	0.2543	0.079
Mof_H 	H 	0.1646	0.749	0.293	0.09
Mof_H 	H 	0.1916	0.8239	0.3294	-0.037
Mof_H 	H 	0.0373	0.957	0.3038	-0.011
Mof_H 	H 	0.0625	0.9183	0.2051	0.011
Mof_H 	H 	0.0533	0.1289	0.1936	0.035
Mof_H 	H 	0.9873	0.1389	0.2332	0.056
Mof_H 	H 	0.9376	0.1392	0.275	0.077
Mof_H 	H 	0.8697	0.1284	0.3137	0.032
Mof_H 	H 	0.8608	0.9185	0.3027	0.003
Mof_H 	H 	0.6311	0.8398	0.4453	0.01
Mof_H 	H 	0.8444	0.8638	0.4358	0.047
Mof_H 	H 	0.8604	0.7921	0.474	0.073
Mof_H 	H 	0.8672	0.722	0.5098	0.082
Mof_H 	H 	0.8634	0.6444	0.547	0.024
Mof_H 	H 	0.6492	0.6473	0.5438	0.013
Mof_H 	H 	0.9838	0.6747	0.351	0.304
Mof_H 	H 	0.9309	0.9899	0.116	0.301
Mof_H 	H 	0.9509	0.0416	0.1348	0.309
Mof_H 	H 	0.7843	0.2323	0.1226	0.312
Mof_H 	H 	0.7257	0.2065	0.1372	0.314
Mof_H 	H 	0.4988	0.9498	0.1147	0.357
Mof_H 	H 	0.4918	0.8856	0.1287	0.354
Mof_H 	H 	0.7254	0.1714	0.3738	0.304
Mof_H 	H 	0.6592	0.1663	0.3868	0.319
Mof_H 	H 	0.5683	0.0974	0.3896	0.34
Mof_H 	H 	0.5623	0.0339	0.404	0.326
Mof_H 	H 	0.3322	0.3317	0.5506	-0.001
Mof_H 	H 	0.4743	0.4905	0.5616	0.004
Mof_H 	H 	0.534	0.4515	0.5229	0.099
Mof_H 	H 	0.586	0.4097	0.4859	0.115
Mof_H 	H 	0.624	0.3693	0.444	-0.001
Mof_H 	H 	0.4642	0.228	0.4447	-0.002
Mof_H 	H 	0.206	0.6794	0.5435	-0.006
Mof_H 	H 	0.0843	0.5209	0.573	-0.002
Mof_H 	H 	0.0048	0.5398	0.5376	0.084
Mof_H 	H 	0.9362	0.5605	0.5019	0.088
Mof_H 	H 	0.8747	0.5846	0.4619	0.032
Mof_H 	H 	0.0121	0.7454	0.448	-0.001
Mof_H 	H 	0.109	0.551	0.7017	-0.015
Mof_H 	H 	0.2522	0.6965	0.6759	-0.002
Mof_H 	H 	0.2279	0.7633	0.7143	0.089
Mof_H 	H 	0.2124	0.8125	0.7534	0.085
Mof_H 	H 	0.1866	0.8608	0.7966	-0.005
Mof_H 	H 	0.0433	0.7058	0.8079	-0.004
Mof_H 	H 	0.0187	0.7042	0.698	-0.009
Mof_H 	H 	0.8657	0.8502	0.7106	0.01
Mof_H 	H 	0.8491	0.8023	0.7543	0.08
Mof_H 	H 	0.8354	0.751	0.793	0.09
Mof_H 	H 	0.8084	0.6761	0.8294	-0.037
Mof_H 	H 	0.9627	0.543	0.8038	-0.01
Mof_H 	H 	0.9375	0.5817	0.7051	0.009
Mof_H 	H 	0.9467	0.3711	0.6936	0.029
Mof_H 	H 	0.0127	0.3611	0.7332	0.066
Mof_H 	H 	0.0624	0.3608	0.775	0.077
Mof_H 	H 	0.1303	0.3716	0.8137	0.033
Mof_H 	H 	0.1392	0.5815	0.8027	0.004
Mof_H 	H 	0.3689	0.6602	0.9453	0.009
Mof_H 	H 	0.1556	0.6362	0.9358	0.046
Mof_H 	H 	0.1396	0.7079	0.974	0.072
Mof_H 	H 	0.1328	0.778	0.0098	0.081
Mof_H 	H 	0.1366	0.8556	0.047	0.024
Mof_H 	H 	0.3508	0.8527	0.0438	0.013
Mof_H 	H 	0.0162	0.8253	0.851	0.303
Mof_H 	H 	0.0691	0.5101	0.616	0.297
Mof_H 	H 	0.0491	0.4584	0.6348	0.309
Mof_H 	H 	0.2157	0.2677	0.6226	0.312
Mof_H 	H 	0.2743	0.2935	0.6372	0.314
Mof_H 	H 	0.5012	0.5502	0.6147	0.357
Mof_H 	H 	0.5082	0.6144	0.6287	0.354
Mof_H 	H 	0.2746	0.3286	0.8738	0.304
Mof_H 	H 	0.3408	0.3337	0.8868	0.319
Mof_H 	H 	0.4317	0.4026	0.8896	0.34
Mof_H 	H 	0.4377	0.4661	0.904	0.326
Mof_H 	H 	0.8322	0.6683	0.9494	-0.001
Mof_H 	H 	0.9743	0.5095	0.9384	0.005
Mof_H 	H 	0.034	0.5485	0.9771	0.098
Mof_H 	H 	0.086	0.5903	0.0141	0.115
Mof_H 	H 	0.124	0.6307	0.056	-0.001
Mof_H 	H 	0.9642	0.772	0.0553	-0.002
Mof_H 	H 	0.706	0.3206	0.9565	-0.006
Mof_H 	H 	0.5843	0.4791	0.927	-0.002
Mof_H 	H 	0.5048	0.4602	0.9624	0.085
Mof_H 	H 	0.4362	0.4395	0.9981	0.088
Mof_H 	H 	0.3747	0.4154	0.0381	0.032
Mof_H 	H 	0.5121	0.2546	0.052	-0
Mof_H 	H 	0.609	0.449	0.7983	-0.014
Mof_H 	H 	0.7522	0.3035	0.8241	-0.002
Mof_H 	H 	0.7279	0.2367	0.7857	0.089
Mof_H 	H 	0.7124	0.1875	0.7466	0.085
Mof_H 	H 	0.6866	0.1392	0.7034	-0.005
Mof_H 	H 	0.5433	0.2942	0.6921	-0.002
Mof_H 	H 	0.5187	0.2958	0.802	0
Mof_H 	H 	0.3657	0.1498	0.7894	0.012
Mof_H 	H 	0.3491	0.1977	0.7457	0.079
Mof_H 	H 	0.3354	0.249	0.707	0.09
Mof_H 	H 	0.3084	0.3239	0.6706	-0.038
Mof_H 	H 	0.4627	0.457	0.6962	-0.012
Mof_H 	H 	0.4375	0.4183	0.7949	0.007
Mof_H 	H 	0.4467	0.6289	0.8064	0.024
Mof_H 	H 	0.5127	0.6389	0.7668	0.077
Mof_H 	H 	0.5624	0.6392	0.725	0.076
Mof_H 	H 	0.6303	0.6284	0.6863	0.033
Mof_H 	H 	0.6392	0.4185	0.6973	0.005
Mof_H 	H 	0.8689	0.3398	0.5547	0.01
Mof_H 	H 	0.6556	0.3638	0.5642	0.047
Mof_H 	H 	0.6396	0.2921	0.526	0.072
Mof_H 	H 	0.6328	0.222	0.4902	0.082
Mof_H 	H 	0.6366	0.1444	0.453	0.024
Mof_H 	H 	0.8508	0.1473	0.4562	0.013
Mof_H 	H 	0.5162	0.1747	0.649	0.305
Mof_H 	H 	0.5691	0.4899	0.884	0.298
Mof_H 	H 	0.5491	0.5416	0.8652	0.31
Mof_H 	H 	0.7157	0.7323	0.8774	0.312
Mof_H 	H 	0.7743	0.7065	0.8628	0.314
Mof_H 	H 	0.0012	0.4498	0.8853	0.352
Mof_H 	H 	0.0082	0.3856	0.8713	0.35
Mof_H 	H 	0.7746	0.6714	0.6262	0.304
Mof_H 	H 	0.8408	0.6663	0.6132	0.319
Mof_H 	H 	0.9317	0.5974	0.6104	0.341
Mof_H 	H 	0.9377	0.5339	0.596	0.326
Mof_C 	C 	0.8468	0.0544	0.58192	0.508
Mof_C 	C 	0.8723	0.1429	0.54466	0.136
Mof_C 	C 	0.8936	0.0816	0.55881	-0.184
Mof_C 	C 	0.9566	0.0476	0.55145	0.121
Mof_C 	C 	0.9925	0.0719	0.52864	-0.159
Mof_C 	C 	0.9683	0.129	0.51456	0.07
Mof_C 	C 	0.0002	0.155	0.48864	0.073
Mof_C 	C 	0.0609	0.1265	0.47706	-0.169
Mof_C 	C 	0.0842	0.1514	0.45244	0.121
Mof_C 	C 	0.0483	0.2074	0.44017	-0.18
Mof_C 	C 	0.9888	0.2347	0.45306	0.108
Mof_C 	C 	0.0734	0.2418	0.414	0.436
Mof_C 	C 	0.712	0.9194	0.58331	0.502
Mof_C 	C 	0.6654	0.8496	0.54235	0.139
Mof_C 	C 	0.6571	0.9037	0.56162	-0.193
Mof_C 	C 	0.594	0.9444	0.55998	0.11
Mof_C 	C 	0.5463	0.9325	0.53893	-0.147
Mof_C 	C 	0.5597	0.88	0.51988	0.065
Mof_C 	C 	0.5128	0.8646	0.49677	0.053
Mof_C 	C 	0.4521	0.9034	0.49036	-0.133
Mof_C 	C 	0.4149	0.8883	0.46663	0.079
Mof_C 	C 	0.4374	0.8329	0.4499	-0.158
Mof_C 	C 	0.4971	0.793	0.4586	0.102
Mof_C 	C 	0.3991	0.8151	0.42358	0.443
Mof_C 	C 	0.7047	0.9315	0.66099	0.513
Mof_C 	C 	0.6337	0.9063	0.7043	0.127
Mof_C 	C 	0.6851	0.8859	0.68472	-0.214
Mof_C 	C 	0.7194	0.8202	0.68878	0.12
Mof_C 	C 	0.705	0.7803	0.71149	-0.16
Mof_C 	C 	0.656	0.806	0.73012	0.063
Mof_C 	C 	0.6429	0.7695	0.7566	0.059
Mof_C 	C 	0.6787	0.7091	0.76475	-0.157
Mof_C 	C 	0.6634	0.6805	0.7907	0.115
Mof_C 	C 	0.6145	0.7136	0.807	-0.222
Mof_C 	C 	0.5783	0.7731	0.79703	0.126
Mof_C 	C 	0.5966	0.686	0.83484	0.54
Mof_C 	C 	0.4509	0.693	0.67068	0.439
Mof_C 	C 	0.4836	0.7762	0.70933	0.102
Mof_C 	C 	0.4421	0.7193	0.69939	-0.168
Mof_C 	C 	0.3926	0.6889	0.71636	0.085
Mof_C 	C 	0.3829	0.7174	0.74249	-0.139
Mof_C 	C 	0.4239	0.7745	0.75035	0.055
Mof_C 	C 	0.4104	0.814	0.7763	0.066
Mof_C 	C 	0.3591	0.7924	0.79502	-0.17
Mof_C 	C 	0.3436	0.8367	0.81687	0.139
Mof_C 	C 	0.3806	0.8996	0.81985	-0.211
Mof_C 	C 	0.4357	0.9157	0.80127	0.131
Mof_C 	C 	0.3593	0.9519	0.84233	0.501
Mof_C 	C 	0.3881	0.0115	0.67008	0.329
Mof_C 	C 	0.4534	0.9632	0.71064	0.081
Mof_C 	C 	0.4333	0.0216	0.69536	-0.119
Mof_C 	C 	0.4577	0.0884	0.70375	0.048
Mof_C 	C 	0.4977	0.0944	0.72696	-0.124
Mof_C 	C 	0.5156	0.0328	0.74106	0.057
Mof_C 	C 	0.5595	0.0326	0.76644	0.046
Mof_C 	C 	0.5779	0.0945	0.78088	-0.118
Mof_C 	C 	0.6188	0.0879	0.80356	0.055
Mof_C 	C 	0.6436	0.0223	0.81191	-0.125
Mof_C 	C 	0.6229	0.9631	0.79702	0.085
Mof_C 	C 	0.6921	0.0141	0.8365	0.349
Mof_C 	C 	0.777	0.9036	0.91135	0.335
Mof_C 	C 	0.8222	0.8302	0.95112	0.091
Mof_C 	C 	0.764	0.8583	0.93596	-0.1
Mof_C 	C 	0.6952	0.8449	0.9449	0.053
Mof_C 	C 	0.6859	0.8025	0.96787	-0.094
Mof_C 	C 	0.7441	0.7761	0.98161	0.053
Mof_C 	C 	0.7407	0.7279	0.0052	0.074
Mof_C 	C 	0.6766	0.7061	0.0167	-0.124
Mof_C 	C 	0.6791	0.6598	0.0388	0.071
Mof_C 	C 	0.7422	0.6378	0.0481	-0.117
Mof_C 	C 	0.8069	0.6622	0.0367	0.089
Mof_C 	C 	0.7407	0.5883	0.0735	0.384
Mof_C 	C 	0.3468	0.9456	0.91808	0.51
Mof_C 	C 	0.3723	0.8571	0.95534	0.136
Mof_C 	C 	0.3936	0.9184	0.94119	-0.183
Mof_C 	C 	0.4566	0.9524	0.94855	0.118
Mof_C 	C 	0.4925	0.9281	0.97136	-0.153
Mof_C 	C 	0.4683	0.871	0.98544	0.071
Mof_C 	C 	0.5002	0.845	0.01136	0.07
Mof_C 	C 	0.5609	0.8735	0.02294	-0.169
Mof_C 	C 	0.5842	0.8486	0.04756	0.123
Mof_C 	C 	0.5483	0.7926	0.05983	-0.185
Mof_C 	C 	0.4888	0.7653	0.04694	0.115
Mof_C 	C 	0.5734	0.7582	0.086	0.437
Mof_C 	C 	0.212	0.0806	0.91669	0.502
Mof_C 	C 	0.1654	0.1504	0.95765	0.139
Mof_C 	C 	0.1571	0.0963	0.93838	-0.192
Mof_C 	C 	0.094	0.0556	0.94002	0.109
Mof_C 	C 	0.0463	0.0675	0.96107	-0.146
Mof_C 	C 	0.0597	0.12	0.98012	0.064
Mof_C 	C 	0.0128	0.1354	0.00323	0.057
Mof_C 	C 	0.9521	0.0966	0.00964	-0.137
Mof_C 	C 	0.9149	0.1117	0.03337	0.079
Mof_C 	C 	0.9374	0.1671	0.0501	-0.156
Mof_C 	C 	0.9971	0.207	0.0414	0.092
Mof_C 	C 	0.8991	0.1849	0.07642	0.442
Mof_C 	C 	0.2047	0.0685	0.83901	0.512
Mof_C 	C 	0.1337	0.0937	0.7957	0.127
Mof_C 	C 	0.1851	0.1141	0.81528	-0.213
Mof_C 	C 	0.2194	0.1798	0.81122	0.12
Mof_C 	C 	0.205	0.2197	0.78851	-0.16
Mof_C 	C 	0.156	0.194	0.76988	0.062
Mof_C 	C 	0.1429	0.2305	0.7434	0.059
Mof_C 	C 	0.1787	0.2909	0.73525	-0.157
Mof_C 	C 	0.1634	0.3195	0.7093	0.115
Mof_C 	C 	0.1145	0.2864	0.693	-0.222
Mof_C 	C 	0.0783	0.2269	0.70297	0.126
Mof_C 	C 	0.0966	0.314	0.66516	0.54
Mof_C 	C 	0.9509	0.307	0.82932	0.444
Mof_C 	C 	0.9836	0.2238	0.79067	0.108
Mof_C 	C 	0.9421	0.2807	0.80061	-0.171
Mof_C 	C 	0.8926	0.3111	0.78364	0.087
Mof_C 	C 	0.8829	0.2826	0.75751	-0.14
Mof_C 	C 	0.9239	0.2255	0.74965	0.056
Mof_C 	C 	0.9104	0.186	0.7237	0.066
Mof_C 	C 	0.8591	0.2076	0.70498	-0.169
Mof_C 	C 	0.8436	0.1633	0.68313	0.139
Mof_C 	C 	0.8806	0.1004	0.68015	-0.21
Mof_C 	C 	0.9357	0.0843	0.69873	0.13
Mof_C 	C 	0.8593	0.0481	0.65767	0.499
Mof_C 	C 	0.8881	0.9885	0.82992	0.326
Mof_C 	C 	0.9534	0.0368	0.78936	0.069
Mof_C 	C 	0.9333	0.9784	0.80464	-0.102
Mof_C 	C 	0.9577	0.9116	0.79625	0.021
Mof_C 	C 	0.9977	0.9056	0.77304	-0.079
Mof_C 	C 	0.0156	0.9672	0.75894	0.031
Mof_C 	C 	0.0595	0.9674	0.73356	0.052
Mof_C 	C 	0.0779	0.9055	0.71912	-0.125
Mof_C 	C 	0.1188	0.9121	0.69644	0.059
Mof_C 	C 	0.1436	0.9777	0.68809	-0.129
Mof_C 	C 	0.1229	0.0369	0.70298	0.089
Mof_C 	C 	0.1921	0.9859	0.6635	0.35
Mof_C 	C 	0.277	0.0964	0.58865	0.335
Mof_C 	C 	0.3222	0.1698	0.54888	0.092
Mof_C 	C 	0.264	0.1417	0.56404	-0.1
Mof_C 	C 	0.1952	0.1551	0.5551	0.053
Mof_C 	C 	0.1859	0.1975	0.53213	-0.094
Mof_C 	C 	0.2441	0.2239	0.51839	0.053
Mof_C 	C 	0.2407	0.2721	0.4948	0.074
Mof_C 	C 	0.1766	0.2939	0.4833	-0.124
Mof_C 	C 	0.1791	0.3402	0.4612	0.07
Mof_C 	C 	0.2422	0.3622	0.4519	-0.116
Mof_C 	C 	0.3069	0.3378	0.4633	0.089
Mof_C 	C 	0.2407	0.4117	0.4265	0.384
Mof_C 	C 	0.6532	0.5544	0.41808	0.511
Mof_C 	C 	0.6277	0.6429	0.45534	0.136
Mof_C 	C 	0.6064	0.5816	0.44119	-0.183
Mof_C 	C 	0.5434	0.5476	0.44855	0.118
Mof_C 	C 	0.5075	0.5719	0.47136	-0.153
Mof_C 	C 	0.5317	0.629	0.48544	0.071
Mof_C 	C 	0.4998	0.655	0.51136	0.07
Mof_C 	C 	0.4391	0.6265	0.52294	-0.169
Mof_C 	C 	0.4158	0.6514	0.54756	0.123
Mof_C 	C 	0.4517	0.7074	0.55983	-0.185
Mof_C 	C 	0.5112	0.7347	0.54694	0.115
Mof_C 	C 	0.4266	0.7418	0.586	0.437
Mof_C 	C 	0.788	0.4194	0.41669	0.502
Mof_C 	C 	0.8346	0.3496	0.45765	0.139
Mof_C 	C 	0.8429	0.4037	0.43838	-0.193
Mof_C 	C 	0.906	0.4444	0.44002	0.109
Mof_C 	C 	0.9537	0.4325	0.46107	-0.148
Mof_C 	C 	0.9403	0.38	0.48012	0.065
Mof_C 	C 	0.9872	0.3646	0.50323	0.052
Mof_C 	C 	0.0479	0.4034	0.50964	-0.132
Mof_C 	C 	0.0851	0.3883	0.53337	0.078
Mof_C 	C 	0.0626	0.3329	0.5501	-0.159
Mof_C 	C 	0.0029	0.293	0.5414	0.103
Mof_C 	C 	0.1009	0.3151	0.57642	0.443
Mof_C 	C 	0.7953	0.4315	0.33901	0.513
Mof_C 	C 	0.8663	0.4063	0.2957	0.127
Mof_C 	C 	0.8149	0.3859	0.31528	-0.214
Mof_C 	C 	0.7806	0.3202	0.31122	0.121
Mof_C 	C 	0.795	0.2803	0.28851	-0.16
Mof_C 	C 	0.844	0.306	0.26988	0.062
Mof_C 	C 	0.8571	0.2695	0.2434	0.058
Mof_C 	C 	0.8213	0.2091	0.23525	-0.157
Mof_C 	C 	0.8366	0.1805	0.2093	0.115
Mof_C 	C 	0.8855	0.2136	0.193	-0.223
Mof_C 	C 	0.9217	0.2731	0.20297	0.126
Mof_C 	C 	0.9034	0.186	0.16516	0.54
Mof_C 	C 	0.0491	0.193	0.32932	0.451
Mof_C 	C 	0.0164	0.2762	0.29067	0.117
Mof_C 	C 	0.0579	0.2193	0.30061	-0.175
Mof_C 	C 	0.1074	0.1889	0.28364	0.091
Mof_C 	C 	0.1171	0.2174	0.25751	-0.142
Mof_C 	C 	0.0761	0.2745	0.24965	0.058
Mof_C 	C 	0.0896	0.314	0.2237	0.067
Mof_C 	C 	0.1409	0.2924	0.20498	-0.169
Mof_C 	C 	0.1564	0.3367	0.18313	0.14
Mof_C 	C 	0.1194	0.3996	0.18015	-0.211
Mof_C 	C 	0.0643	0.4157	0.19873	0.131
Mof_C 	C 	0.1407	0.4519	0.15767	0.503
Mof_C 	C 	0.1119	0.5115	0.32992	0.326
Mof_C 	C 	0.0466	0.4632	0.28936	0.078
Mof_C 	C 	0.0667	0.5216	0.30464	-0.112
Mof_C 	C 	0.0423	0.5884	0.29625	0.035
Mof_C 	C 	0.0023	0.5944	0.27304	-0.1
Mof_C 	C 	0.9844	0.5328	0.25894	0.042
Mof_C 	C 	0.9405	0.5326	0.23356	0.051
Mof_C 	C 	0.9221	0.5945	0.21912	-0.122
Mof_C 	C 	0.8812	0.5879	0.19644	0.057
Mof_C 	C 	0.8564	0.5223	0.18809	-0.125
Mof_C 	C 	0.8771	0.4631	0.20298	0.084
Mof_C 	C 	0.8079	0.5141	0.1635	0.351
Mof_C 	C 	0.723	0.4036	0.08865	0.335
Mof_C 	C 	0.6778	0.3302	0.04888	0.092
Mof_C 	C 	0.736	0.3583	0.06404	-0.101
Mof_C 	C 	0.8048	0.3449	0.0551	0.053
Mof_C 	C 	0.8141	0.3025	0.03213	-0.095
Mof_C 	C 	0.7559	0.2761	0.01839	0.053
Mof_C 	C 	0.7593	0.2279	0.9948	0.074
Mof_C 	C 	0.8234	0.2061	0.9833	-0.124
Mof_C 	C 	0.8209	0.1598	0.9612	0.071
Mof_C 	C 	0.7578	0.1378	0.9519	-0.117
Mof_C 	C 	0.6931	0.1622	0.9633	0.089
Mof_C 	C 	0.7593	0.0883	0.9265	0.384
Mof_C 	C 	0.1532	0.4456	0.08192	0.511
Mof_C 	C 	0.1277	0.3571	0.04466	0.136
Mof_C 	C 	0.1064	0.4184	0.05881	-0.182
Mof_C 	C 	0.0434	0.4524	0.05145	0.117
Mof_C 	C 	0.0075	0.4281	0.02864	-0.15
Mof_C 	C 	0.0317	0.371	0.01456	0.071
Mof_C 	C 	0.9998	0.345	0.98864	0.068
Mof_C 	C 	0.9391	0.3735	0.97706	-0.168
Mof_C 	C 	0.9158	0.3486	0.95244	0.122
Mof_C 	C 	0.9517	0.2926	0.94017	-0.185
Mof_C 	C 	0.0112	0.2653	0.95306	0.114
Mof_C 	C 	0.9266	0.2582	0.914	0.437
Mof_C 	C 	0.288	0.5806	0.08331	0.502
Mof_C 	C 	0.3346	0.6504	0.04235	0.139
Mof_C 	C 	0.3429	0.5963	0.06162	-0.193
Mof_C 	C 	0.406	0.5556	0.05998	0.11
Mof_C 	C 	0.4537	0.5675	0.03893	-0.147
Mof_C 	C 	0.4403	0.62	0.01988	0.065
Mof_C 	C 	0.4872	0.6354	0.99677	0.053
Mof_C 	C 	0.5479	0.5966	0.99036	-0.133
Mof_C 	C 	0.5851	0.6117	0.96663	0.079
Mof_C 	C 	0.5626	0.6671	0.9499	-0.158
Mof_C 	C 	0.5029	0.707	0.9586	0.102
Mof_C 	C 	0.6009	0.6849	0.92358	0.443
Mof_C 	C 	0.2953	0.5685	0.16099	0.513
Mof_C 	C 	0.3663	0.5937	0.2043	0.127
Mof_C 	C 	0.3149	0.6141	0.18472	-0.214
Mof_C 	C 	0.2806	0.6798	0.18878	0.12
Mof_C 	C 	0.295	0.7197	0.21149	-0.16
Mof_C 	C 	0.344	0.694	0.23012	0.063
Mof_C 	C 	0.3571	0.7305	0.2566	0.059
Mof_C 	C 	0.3213	0.7909	0.26475	-0.157
Mof_C 	C 	0.3366	0.8195	0.2907	0.115
Mof_C 	C 	0.3855	0.7864	0.307	-0.222
Mof_C 	C 	0.4217	0.7269	0.29703	0.126
Mof_C 	C 	0.4034	0.814	0.33484	0.54
Mof_C 	C 	0.5491	0.807	0.17068	0.439
Mof_C 	C 	0.5164	0.7238	0.20933	0.102
Mof_C 	C 	0.5579	0.7807	0.19939	-0.168
Mof_C 	C 	0.6074	0.8111	0.21636	0.085
Mof_C 	C 	0.6171	0.7826	0.24249	-0.139
Mof_C 	C 	0.5761	0.7255	0.25035	0.055
Mof_C 	C 	0.5896	0.686	0.2763	0.066
Mof_C 	C 	0.6409	0.7076	0.29502	-0.17
Mof_C 	C 	0.6564	0.6633	0.31687	0.14
Mof_C 	C 	0.6194	0.6004	0.31985	-0.212
Mof_C 	C 	0.5643	0.5843	0.30127	0.131
Mof_C 	C 	0.6407	0.5481	0.34233	0.503
Mof_C 	C 	0.6119	0.4885	0.17008	0.328
Mof_C 	C 	0.5466	0.5368	0.21064	0.081
Mof_C 	C 	0.5667	0.4784	0.19536	-0.119
Mof_C 	C 	0.5423	0.4116	0.20375	0.048
Mof_C 	C 	0.5023	0.4056	0.22696	-0.124
Mof_C 	C 	0.4844	0.4672	0.24106	0.057
Mof_C 	C 	0.4405	0.4674	0.26644	0.047
Mof_C 	C 	0.4221	0.4055	0.28088	-0.118
Mof_C 	C 	0.3812	0.4121	0.30356	0.055
Mof_C 	C 	0.3564	0.4777	0.31191	-0.124
Mof_C 	C 	0.3771	0.5369	0.29702	0.084
Mof_C 	C 	0.3079	0.4859	0.3365	0.351
Mof_C 	C 	0.223	0.5964	0.41135	0.335
Mof_C 	C 	0.1778	0.6698	0.45112	0.092
Mof_C 	C 	0.236	0.6417	0.43596	-0.1
Mof_C 	C 	0.3048	0.6551	0.4449	0.053
Mof_C 	C 	0.3141	0.6975	0.46787	-0.094
Mof_C 	C 	0.2559	0.7239	0.48161	0.053
Mof_C 	C 	0.2593	0.7721	0.5052	0.074
Mof_C 	C 	0.3234	0.7939	0.5167	-0.124
Mof_C 	C 	0.3209	0.8402	0.5388	0.071
Mof_C 	C 	0.2578	0.8622	0.5481	-0.117
Mof_C 	C 	0.1931	0.8378	0.5367	0.089
Mof_C 	C 	0.2593	0.9117	0.5735	0.384
Mof_C 	C 	0.1532	0.9456	0.41808	0.508
Mof_C 	C 	0.1277	0.8571	0.45534	0.136
Mof_C 	C 	0.1064	0.9184	0.44119	-0.184
Mof_C 	C 	0.0434	0.9524	0.44855	0.121
Mof_C 	C 	0.0075	0.9281	0.47136	-0.159
Mof_C 	C 	0.0317	0.871	0.48544	0.07
Mof_C 	C 	0.9998	0.845	0.51136	0.073
Mof_C 	C 	0.9391	0.8735	0.52294	-0.169
Mof_C 	C 	0.9158	0.8486	0.54756	0.121
Mof_C 	C 	0.9517	0.7926	0.55983	-0.18
Mof_C 	C 	0.0112	0.7653	0.54694	0.108
Mof_C 	C 	0.9266	0.7582	0.586	0.436
Mof_C 	C 	0.288	0.0806	0.41669	0.502
Mof_C 	C 	0.3346	0.1504	0.45765	0.139
Mof_C 	C 	0.3429	0.0963	0.43838	-0.193
Mof_C 	C 	0.406	0.0556	0.44002	0.11
Mof_C 	C 	0.4537	0.0675	0.46107	-0.147
Mof_C 	C 	0.4403	0.12	0.48012	0.065
Mof_C 	C 	0.4872	0.1354	0.50323	0.053
Mof_C 	C 	0.5479	0.0966	0.50964	-0.133
Mof_C 	C 	0.5851	0.1117	0.53337	0.079
Mof_C 	C 	0.5626	0.1671	0.5501	-0.158
Mof_C 	C 	0.5029	0.207	0.5414	0.102
Mof_C 	C 	0.6009	0.1849	0.57642	0.443
Mof_C 	C 	0.2953	0.0685	0.33901	0.513
Mof_C 	C 	0.3663	0.0937	0.2957	0.127
Mof_C 	C 	0.3149	0.1141	0.31528	-0.214
Mof_C 	C 	0.2806	0.1798	0.31122	0.12
Mof_C 	C 	0.295	0.2197	0.28851	-0.16
Mof_C 	C 	0.344	0.194	0.26988	0.063
Mof_C 	C 	0.3571	0.2305	0.2434	0.059
Mof_C 	C 	0.3213	0.2909	0.23525	-0.157
Mof_C 	C 	0.3366	0.3195	0.2093	0.115
Mof_C 	C 	0.3855	0.2864	0.193	-0.222
Mof_C 	C 	0.4217	0.2269	0.20297	0.126
Mof_C 	C 	0.4034	0.314	0.16516	0.54
Mof_C 	C 	0.5491	0.307	0.32932	0.439
Mof_C 	C 	0.5164	0.2238	0.29067	0.102
Mof_C 	C 	0.5579	0.2807	0.30061	-0.168
Mof_C 	C 	0.6074	0.3111	0.28364	0.085
Mof_C 	C 	0.6171	0.2826	0.25751	-0.139
Mof_C 	C 	0.5761	0.2255	0.24965	0.055
Mof_C 	C 	0.5896	0.186	0.2237	0.066
Mof_C 	C 	0.6409	0.2076	0.20498	-0.17
Mof_C 	C 	0.6564	0.1633	0.18313	0.139
Mof_C 	C 	0.6194	0.1004	0.18015	-0.211
Mof_C 	C 	0.5643	0.0843	0.19873	0.131
Mof_C 	C 	0.6407	0.0481	0.15767	0.501
Mof_C 	C 	0.6119	0.9885	0.32992	0.329
Mof_C 	C 	0.5466	0.0368	0.28936	0.081
Mof_C 	C 	0.5667	0.9784	0.30464	-0.119
Mof_C 	C 	0.5423	0.9116	0.29625	0.048
Mof_C 	C 	0.5023	0.9056	0.27304	-0.124
Mof_C 	C 	0.4844	0.9672	0.25894	0.057
Mof_C 	C 	0.4405	0.9674	0.23356	0.046
Mof_C 	C 	0.4221	0.9055	0.21912	-0.118
Mof_C 	C 	0.3812	0.9121	0.19644	0.055
Mof_C 	C 	0.3564	0.9777	0.18809	-0.125
Mof_C 	C 	0.3771	0.0369	0.20298	0.085
Mof_C 	C 	0.3079	0.9859	0.1635	0.349
Mof_C 	C 	0.223	0.0964	0.08865	0.335
Mof_C 	C 	0.1778	0.1698	0.04888	0.091
Mof_C 	C 	0.236	0.1417	0.06404	-0.1
Mof_C 	C 	0.3048	0.1551	0.0551	0.053
Mof_C 	C 	0.3141	0.1975	0.03213	-0.094
Mof_C 	C 	0.2559	0.2239	0.01839	0.053
Mof_C 	C 	0.2593	0.2721	0.9948	0.074
Mof_C 	C 	0.3234	0.2939	0.9833	-0.124
Mof_C 	C 	0.3209	0.3402	0.9612	0.071
Mof_C 	C 	0.2578	0.3622	0.9519	-0.117
Mof_C 	C 	0.1931	0.3378	0.9633	0.089
Mof_C 	C 	0.2593	0.4117	0.9265	0.384
Mof_C 	C 	0.6532	0.0544	0.08192	0.51
Mof_C 	C 	0.6277	0.1429	0.04466	0.136
Mof_C 	C 	0.6064	0.0816	0.05881	-0.183
Mof_C 	C 	0.5434	0.0476	0.05145	0.118
Mof_C 	C 	0.5075	0.0719	0.02864	-0.153
Mof_C 	C 	0.5317	0.129	0.01456	0.071
Mof_C 	C 	0.4998	0.155	0.98864	0.07
Mof_C 	C 	0.4391	0.1265	0.97706	-0.169
Mof_C 	C 	0.4158	0.1514	0.95244	0.123
Mof_C 	C 	0.4517	0.2074	0.94017	-0.185
Mof_C 	C 	0.5112	0.2347	0.95306	0.115
Mof_C 	C 	0.4266	0.2418	0.914	0.437
Mof_C 	C 	0.788	0.9194	0.08331	0.502
Mof_C 	C 	0.8346	0.8496	0.04235	0.139
Mof_C 	C 	0.8429	0.9037	0.06162	-0.192
Mof_C 	C 	0.906	0.9444	0.05998	0.109
Mof_C 	C 	0.9537	0.9325	0.03893	-0.146
Mof_C 	C 	0.9403	0.88	0.01988	0.064
Mof_C 	C 	0.9872	0.8646	0.99677	0.057
Mof_C 	C 	0.0479	0.9034	0.99036	-0.137
Mof_C 	C 	0.0851	0.8883	0.96663	0.079
Mof_C 	C 	0.0626	0.8329	0.9499	-0.156
Mof_C 	C 	0.0029	0.793	0.9586	0.092
Mof_C 	C 	0.1009	0.8151	0.92358	0.442
Mof_C 	C 	0.7953	0.9315	0.16099	0.512
Mof_C 	C 	0.8663	0.9063	0.2043	0.127
Mof_C 	C 	0.8149	0.8859	0.18472	-0.213
Mof_C 	C 	0.7806	0.8202	0.18878	0.12
Mof_C 	C 	0.795	0.7803	0.21149	-0.16
Mof_C 	C 	0.844	0.806	0.23012	0.062
Mof_C 	C 	0.8571	0.7695	0.2566	0.059
Mof_C 	C 	0.8213	0.7091	0.26475	-0.157
Mof_C 	C 	0.8366	0.6805	0.2907	0.115
Mof_C 	C 	0.8855	0.7136	0.307	-0.222
Mof_C 	C 	0.9217	0.7731	0.29703	0.126
Mof_C 	C 	0.9034	0.686	0.33484	0.54
Mof_C 	C 	0.0491	0.693	0.17068	0.444
Mof_C 	C 	0.0164	0.7762	0.20933	0.108
Mof_C 	C 	0.0579	0.7193	0.19939	-0.171
Mof_C 	C 	0.1074	0.6889	0.21636	0.087
Mof_C 	C 	0.1171	0.7174	0.24249	-0.14
Mof_C 	C 	0.0761	0.7745	0.25035	0.056
Mof_C 	C 	0.0896	0.814	0.2763	0.066
Mof_C 	C 	0.1409	0.7924	0.29502	-0.169
Mof_C 	C 	0.1564	0.8367	0.31687	0.139
Mof_C 	C 	0.1194	0.8996	0.31985	-0.21
Mof_C 	C 	0.0643	0.9157	0.30127	0.13
Mof_C 	C 	0.1407	0.9519	0.34233	0.499
Mof_C 	C 	0.1119	0.0115	0.17008	0.326
Mof_C 	C 	0.0466	0.9632	0.21064	0.069
Mof_C 	C 	0.0667	0.0216	0.19536	-0.102
Mof_C 	C 	0.0423	0.0884	0.20375	0.021
Mof_C 	C 	0.0023	0.0944	0.22696	-0.079
Mof_C 	C 	0.9844	0.0328	0.24106	0.031
Mof_C 	C 	0.9405	0.0326	0.26644	0.052
Mof_C 	C 	0.9221	0.0945	0.28088	-0.125
Mof_C 	C 	0.8812	0.0879	0.30356	0.059
Mof_C 	C 	0.8564	0.0223	0.31191	-0.129
Mof_C 	C 	0.8771	0.9631	0.29702	0.089
Mof_C 	C 	0.8079	0.0141	0.3365	0.35
Mof_C 	C 	0.723	0.9036	0.41135	0.335
Mof_C 	C 	0.6778	0.8302	0.45112	0.092
Mof_C 	C 	0.736	0.8583	0.43596	-0.1
Mof_C 	C 	0.8048	0.8449	0.4449	0.053
Mof_C 	C 	0.8141	0.8025	0.46787	-0.094
Mof_C 	C 	0.7559	0.7761	0.48161	0.053
Mof_C 	C 	0.7593	0.7279	0.5052	0.074
Mof_C 	C 	0.8234	0.7061	0.5167	-0.124
Mof_C 	C 	0.8209	0.6598	0.5388	0.07
Mof_C 	C 	0.7578	0.6378	0.5481	-0.116
Mof_C 	C 	0.6931	0.6622	0.5367	0.089
Mof_C 	C 	0.7593	0.5883	0.5735	0.384
Mof_C 	C 	0.3468	0.4456	0.58192	0.511
Mof_C 	C 	0.3723	0.3571	0.54466	0.136
Mof_C 	C 	0.3936	0.4184	0.55881	-0.183
Mof_C 	C 	0.4566	0.4524	0.55145	0.118
Mof_C 	C 	0.4925	0.4281	0.52864	-0.153
Mof_C 	C 	0.4683	0.371	0.51456	0.071
Mof_C 	C 	0.5002	0.345	0.48864	0.07
Mof_C 	C 	0.5609	0.3735	0.47706	-0.169
Mof_C 	C 	0.5842	0.3486	0.45244	0.123
Mof_C 	C 	0.5483	0.2926	0.44017	-0.185
Mof_C 	C 	0.4888	0.2653	0.45306	0.115
Mof_C 	C 	0.5734	0.2582	0.414	0.437
Mof_C 	C 	0.212	0.5806	0.58331	0.502
Mof_C 	C 	0.1654	0.6504	0.54235	0.139
Mof_C 	C 	0.1571	0.5963	0.56162	-0.193
Mof_C 	C 	0.094	0.5556	0.55998	0.109
Mof_C 	C 	0.0463	0.5675	0.53893	-0.148
Mof_C 	C 	0.0597	0.62	0.51988	0.065
Mof_C 	C 	0.0128	0.6354	0.49677	0.052
Mof_C 	C 	0.9521	0.5966	0.49036	-0.132
Mof_C 	C 	0.9149	0.6117	0.46663	0.078
Mof_C 	C 	0.9374	0.6671	0.4499	-0.159
Mof_C 	C 	0.9971	0.707	0.4586	0.103
Mof_C 	C 	0.8991	0.6849	0.42358	0.443
Mof_C 	C 	0.2047	0.5685	0.66099	0.513
Mof_C 	C 	0.1337	0.5937	0.7043	0.127
Mof_C 	C 	0.1851	0.6141	0.68472	-0.214
Mof_C 	C 	0.2194	0.6798	0.68878	0.121
Mof_C 	C 	0.205	0.7197	0.71149	-0.16
Mof_C 	C 	0.156	0.694	0.73012	0.062
Mof_C 	C 	0.1429	0.7305	0.7566	0.058
Mof_C 	C 	0.1787	0.7909	0.76475	-0.157
Mof_C 	C 	0.1634	0.8195	0.7907	0.115
Mof_C 	C 	0.1145	0.7864	0.807	-0.223
Mof_C 	C 	0.0783	0.7269	0.79703	0.126
Mof_C 	C 	0.0966	0.814	0.83484	0.54
Mof_C 	C 	0.9509	0.807	0.67068	0.451
Mof_C 	C 	0.9836	0.7238	0.70933	0.117
Mof_C 	C 	0.9421	0.7807	0.69939	-0.175
Mof_C 	C 	0.8926	0.8111	0.71636	0.091
Mof_C 	C 	0.8829	0.7826	0.74249	-0.142
Mof_C 	C 	0.9239	0.7255	0.75035	0.058
Mof_C 	C 	0.9104	0.686	0.7763	0.067
Mof_C 	C 	0.8591	0.7076	0.79502	-0.169
Mof_C 	C 	0.8436	0.6633	0.81687	0.14
Mof_C 	C 	0.8806	0.6004	0.81985	-0.211
Mof_C 	C 	0.9357	0.5843	0.80127	0.131
Mof_C 	C 	0.8593	0.5481	0.84233	0.503
Mof_C 	C 	0.8881	0.4885	0.67008	0.326
Mof_C 	C 	0.9534	0.5368	0.71064	0.078
Mof_C 	C 	0.9333	0.4784	0.69536	-0.112
Mof_C 	C 	0.9577	0.4116	0.70375	0.035
Mof_C 	C 	0.9977	0.4056	0.72696	-0.1
Mof_C 	C 	0.0156	0.4672	0.74106	0.042
Mof_C 	C 	0.0595	0.4674	0.76644	0.051
Mof_C 	C 	0.0779	0.4055	0.78088	-0.122
Mof_C 	C 	0.1188	0.4121	0.80356	0.057
Mof_C 	C 	0.1436	0.4777	0.81191	-0.125
Mof_C 	C 	0.1229	0.5369	0.79702	0.084
Mof_C 	C 	0.1921	0.4859	0.8365	0.351
Mof_C 	C 	0.277	0.5964	0.91135	0.335
Mof_C 	C 	0.3222	0.6698	0.95112	0.092
Mof_C 	C 	0.264	0.6417	0.93596	-0.101
Mof_C 	C 	0.1952	0.6551	0.9449	0.053
Mof_C 	C 	0.1859	0.6975	0.96787	-0.095
Mof_C 	C 	0.2441	0.7239	0.98161	0.053
Mof_C 	C 	0.2407	0.7721	0.0052	0.074
Mof_C 	C 	0.1766	0.7939	0.0167	-0.124
Mof_C 	C 	0.1791	0.8402	0.0388	0.071
Mof_C 	C 	0.2422	0.8622	0.0481	-0.117
Mof_C 	C 	0.3069	0.8378	0.0367	0.089
Mof_C 	C 	0.2407	0.9117	0.0735	0.384
Mof_C 	C 	0.8468	0.5544	0.91808	0.511
Mof_C 	C 	0.8723	0.6429	0.95534	0.136
Mof_C 	C 	0.8936	0.5816	0.94119	-0.182
Mof_C 	C 	0.9566	0.5476	0.94855	0.117
Mof_C 	C 	0.9925	0.5719	0.97136	-0.15
Mof_C 	C 	0.9683	0.629	0.98544	0.071
Mof_C 	C 	0.0002	0.655	0.01136	0.068
Mof_C 	C 	0.0609	0.6265	0.02294	-0.168
Mof_C 	C 	0.0842	0.6514	0.04756	0.122
Mof_C 	C 	0.0483	0.7074	0.05983	-0.185
Mof_C 	C 	0.9888	0.7347	0.04694	0.114
Mof_C 	C 	0.0734	0.7418	0.086	0.437
Mof_C 	C 	0.712	0.4194	0.91669	0.502
Mof_C 	C 	0.6654	0.3496	0.95765	0.139
Mof_C 	C 	0.6571	0.4037	0.93838	-0.193
Mof_C 	C 	0.594	0.4444	0.94002	0.11
Mof_C 	C 	0.5463	0.4325	0.96107	-0.147
Mof_C 	C 	0.5597	0.38	0.98012	0.065
Mof_C 	C 	0.5128	0.3646	0.00323	0.053
Mof_C 	C 	0.4521	0.4034	0.00964	-0.133
Mof_C 	C 	0.4149	0.3883	0.03337	0.079
Mof_C 	C 	0.4374	0.3329	0.0501	-0.158
Mof_C 	C 	0.4971	0.293	0.0414	0.102
Mof_C 	C 	0.3991	0.3151	0.07642	0.443
Mof_C 	C 	0.7047	0.4315	0.83901	0.513
Mof_C 	C 	0.6337	0.4063	0.7957	0.127
Mof_C 	C 	0.6851	0.3859	0.81528	-0.214
Mof_C 	C 	0.7194	0.3202	0.81122	0.12
Mof_C 	C 	0.705	0.2803	0.78851	-0.16
Mof_C 	C 	0.656	0.306	0.76988	0.063
Mof_C 	C 	0.6429	0.2695	0.7434	0.059
Mof_C 	C 	0.6787	0.2091	0.73525	-0.157
Mof_C 	C 	0.6634	0.1805	0.7093	0.115
Mof_C 	C 	0.6145	0.2136	0.693	-0.222
Mof_C 	C 	0.5783	0.2731	0.70297	0.126
Mof_C 	C 	0.5966	0.186	0.66516	0.54
Mof_C 	C 	0.4509	0.193	0.82932	0.439
Mof_C 	C 	0.4836	0.2762	0.79067	0.102
Mof_C 	C 	0.4421	0.2193	0.80061	-0.168
Mof_C 	C 	0.3926	0.1889	0.78364	0.085
Mof_C 	C 	0.3829	0.2174	0.75751	-0.139
Mof_C 	C 	0.4239	0.2745	0.74965	0.055
Mof_C 	C 	0.4104	0.314	0.7237	0.066
Mof_C 	C 	0.3591	0.2924	0.70498	-0.17
Mof_C 	C 	0.3436	0.3367	0.68313	0.14
Mof_C 	C 	0.3806	0.3996	0.68015	-0.212
Mof_C 	C 	0.4357	0.4157	0.69873	0.131
Mof_C 	C 	0.3593	0.4519	0.65767	0.503
Mof_C 	C 	0.3881	0.5115	0.82992	0.328
Mof_C 	C 	0.4534	0.4632	0.78936	0.081
Mof_C 	C 	0.4333	0.5216	0.80464	-0.119
Mof_C 	C 	0.4577	0.5884	0.79625	0.048
Mof_C 	C 	0.4977	0.5944	0.77304	-0.124
Mof_C 	C 	0.5156	0.5328	0.75894	0.057
Mof_C 	C 	0.5595	0.5326	0.73356	0.047
Mof_C 	C 	0.5779	0.5945	0.71912	-0.118
Mof_C 	C 	0.6188	0.5879	0.69644	0.055
Mof_C 	C 	0.6436	0.5223	0.68809	-0.124
Mof_C 	C 	0.6229	0.4631	0.70298	0.084
Mof_C 	C 	0.6921	0.5141	0.6635	0.351
Mof_C 	C 	0.777	0.4036	0.58865	0.335
Mof_C 	C 	0.8222	0.3302	0.54888	0.092
Mof_C 	C 	0.764	0.3583	0.56404	-0.1
Mof_C 	C 	0.6952	0.3449	0.5551	0.053
Mof_C 	C 	0.6859	0.3025	0.53213	-0.094
Mof_C 	C 	0.7441	0.2761	0.51839	0.053
Mof_C 	C 	0.7407	0.2279	0.4948	0.074
Mof_C 	C 	0.6766	0.2061	0.4833	-0.124
Mof_C 	C 	0.6791	0.1598	0.4612	0.071
Mof_C 	C 	0.7422	0.1378	0.4519	-0.117
Mof_C 	C 	0.8069	0.1622	0.4633	0.089
Mof_C 	C 	0.7407	0.0883	0.4265	0.384
Mof_N 	N 	0.9639	0.2105	0.47734	-0.253
Mof_N 	N 	0.9082	0.1659	0.52287	-0.26
Mof_N 	N 	0.533	0.808	0.48133	-0.257
Mof_N 	N 	0.6186	0.8372	0.5224	-0.259
Mof_N 	N 	0.6185	0.8678	0.7263	-0.257
Mof_N 	N 	0.5914	0.8015	0.77247	-0.255
Mof_N 	N 	0.4751	0.8037	0.73439	-0.245
Mof_N 	N 	0.4504	0.8742	0.78028	-0.257
Mof_N 	N 	0.4943	0.9673	0.73285	-0.252
Mof_N 	N 	0.5807	0.966	0.77493	-0.247
Mof_N 	N 	0.8128	0.7908	0.97333	-0.248
Mof_N 	N 	0.805	0.7083	0.01485	-0.256
Mof_N 	N 	0.4639	0.7895	0.02266	-0.252
Mof_N 	N 	0.4082	0.8341	0.97713	-0.26
Mof_N 	N 	0.033	0.192	0.01867	-0.254
Mof_N 	N 	0.1186	0.1628	0.9776	-0.258
Mof_N 	N 	0.1185	0.1322	0.7737	-0.257
Mof_N 	N 	0.0914	0.1985	0.72753	-0.255
Mof_N 	N 	0.9751	0.1963	0.76561	-0.245
Mof_N 	N 	0.9504	0.1258	0.71972	-0.256
Mof_N 	N 	0.9943	0.0327	0.76715	-0.243
Mof_N 	N 	0.0807	0.034	0.72507	-0.248
Mof_N 	N 	0.3128	0.2092	0.52667	-0.248
Mof_N 	N 	0.305	0.2917	0.48515	-0.256
Mof_N 	N 	0.5361	0.7105	0.52266	-0.252
Mof_N 	N 	0.5918	0.6659	0.47713	-0.26
Mof_N 	N 	0.967	0.308	0.51867	-0.257
Mof_N 	N 	0.8814	0.3372	0.4776	-0.259
Mof_N 	N 	0.8815	0.3678	0.2737	-0.258
Mof_N 	N 	0.9086	0.3015	0.22753	-0.256
Mof_N 	N 	0.0249	0.3037	0.26561	-0.246
Mof_N 	N 	0.0496	0.3742	0.21972	-0.255
Mof_N 	N 	0.0057	0.4673	0.26715	-0.245
Mof_N 	N 	0.9193	0.466	0.22507	-0.249
Mof_N 	N 	0.6872	0.2908	0.02667	-0.248
Mof_N 	N 	0.695	0.2083	0.98515	-0.256
Mof_N 	N 	0.0361	0.2895	0.97734	-0.252
Mof_N 	N 	0.0918	0.3341	0.02287	-0.26
Mof_N 	N 	0.467	0.692	0.98133	-0.257
Mof_N 	N 	0.3814	0.6628	0.0224	-0.259
Mof_N 	N 	0.3815	0.6322	0.2263	-0.257
Mof_N 	N 	0.4086	0.6985	0.27247	-0.255
Mof_N 	N 	0.5249	0.6963	0.23439	-0.245
Mof_N 	N 	0.5496	0.6258	0.28028	-0.257
Mof_N 	N 	0.5057	0.5327	0.23285	-0.252
Mof_N 	N 	0.4193	0.534	0.27493	-0.247
Mof_N 	N 	0.1872	0.7092	0.47333	-0.248
Mof_N 	N 	0.195	0.7917	0.51485	-0.256
Mof_N 	N 	0.0361	0.7895	0.52266	-0.253
Mof_N 	N 	0.0918	0.8341	0.47713	-0.26
Mof_N 	N 	0.467	0.192	0.51867	-0.257
Mof_N 	N 	0.3814	0.1628	0.4776	-0.259
Mof_N 	N 	0.3815	0.1322	0.2737	-0.257
Mof_N 	N 	0.4086	0.1985	0.22753	-0.255
Mof_N 	N 	0.5249	0.1963	0.26561	-0.245
Mof_N 	N 	0.5496	0.1258	0.21972	-0.257
Mof_N 	N 	0.5057	0.0327	0.26715	-0.252
Mof_N 	N 	0.4193	0.034	0.22507	-0.247
Mof_N 	N 	0.1872	0.2092	0.02667	-0.248
Mof_N 	N 	0.195	0.2917	0.98515	-0.256
Mof_N 	N 	0.5361	0.2105	0.97734	-0.252
Mof_N 	N 	0.5918	0.1659	0.02287	-0.26
Mof_N 	N 	0.967	0.808	0.98133	-0.254
Mof_N 	N 	0.8814	0.8372	0.0224	-0.258
Mof_N 	N 	0.8815	0.8678	0.2263	-0.257
Mof_N 	N 	0.9086	0.8015	0.27247	-0.255
Mof_N 	N 	0.0249	0.8037	0.23439	-0.245
Mof_N 	N 	0.0496	0.8742	0.28028	-0.256
Mof_N 	N 	0.0057	0.9673	0.23285	-0.243
Mof_N 	N 	0.9193	0.966	0.27493	-0.248
Mof_N 	N 	0.6872	0.7908	0.47333	-0.248
Mof_N 	N 	0.695	0.7083	0.51485	-0.256
Mof_N 	N 	0.4639	0.2895	0.47734	-0.252
Mof_N 	N 	0.4082	0.3341	0.52287	-0.26
Mof_N 	N 	0.033	0.692	0.48133	-0.257
Mof_N 	N 	0.1186	0.6628	0.5224	-0.259
Mof_N 	N 	0.1185	0.6322	0.7263	-0.258
Mof_N 	N 	0.0914	0.6985	0.77247	-0.256
Mof_N 	N 	0.9751	0.6963	0.73439	-0.246
Mof_N 	N 	0.9504	0.6258	0.78028	-0.255
Mof_N 	N 	0.9943	0.5327	0.73285	-0.245
Mof_N 	N 	0.0807	0.534	0.77493	-0.249
Mof_N 	N 	0.3128	0.7092	0.97333	-0.248
Mof_N 	N 	0.305	0.7917	0.01485	-0.256
Mof_N 	N 	0.9639	0.7105	0.02266	-0.252
Mof_N 	N 	0.9082	0.6659	0.97713	-0.26
Mof_N 	N 	0.533	0.308	0.01867	-0.257
Mof_N 	N 	0.6186	0.3372	0.9776	-0.259
Mof_N 	N 	0.6185	0.3678	0.7737	-0.257
Mof_N 	N 	0.5914	0.3015	0.72753	-0.255
Mof_N 	N 	0.4751	0.3037	0.76561	-0.245
Mof_N 	N 	0.4504	0.3742	0.71972	-0.257
Mof_N 	N 	0.4943	0.4673	0.76715	-0.252
Mof_N 	N 	0.5807	0.466	0.72507	-0.247
Mof_N 	N 	0.8128	0.2908	0.52667	-0.248
Mof_N 	N 	0.805	0.2083	0.48515	-0.256
Mof_O 	O 	0.7935	0.0906	0.58828	-0.461
Mof_O 	O 	0.8683	0.9969	0.5926	-0.526
Mof_O 	O 	0.0554	0.304	0.40967	-0.33
Mof_O 	O 	0.1151	0.2046	0.39926	-0.47
Mof_O 	O 	0.7009	0.9749	0.59649	-0.538
Mof_O 	O 	0.7631	0.8769	0.58688	-0.443
Mof_O 	O 	0.408	0.755	0.41384	-0.291
Mof_O 	O 	0.6706	0.9879	0.65701	-0.47
Mof_O 	O 	0.6403	0.6429	0.84505	-0.549
Mof_O 	O 	0.5401	0.7085	0.84542	-0.565
Mof_O 	O 	0.5106	0.7003	0.66001	-0.31
Mof_O 	O 	0.3989	0.6625	0.66006	-0.477
Mof_O 	O 	0.3034	0.9374	0.8549	-0.559
Mof_O 	O 	0.3981	0.0064	0.84576	-0.478
Mof_O 	O 	0.358	0.9513	0.66737	-0.378
Mof_O 	O 	0.3835	0.0596	0.65281	-0.367
Mof_O 	O 	0.7264	0.9574	0.83943	-0.367
Mof_O 	O 	0.6982	0.0652	0.85209	-0.41
Mof_O 	O 	0.7242	0.9297	0.89918	-0.369
Mof_O 	O 	0.8406	0.9167	0.90489	-0.367
Mof_O 	O 	0.6849	0.5565	0.07805	-0.444
Mof_O 	O 	0.7956	0.5855	0.08621	-0.341
Mof_O 	O 	0.57	0.0361	0.61927	-0.721
Mof_O 	O 	0.7504	0.2007	0.62237	-0.743
Mof_O 	O 	0.9864	0.9071	0.61534	-0.808
Mof_O 	O 	0.817	0.1514	0.87297	-0.735
Mof_O 	O 	0.9273	0.0517	0.88813	-0.761
Mof_O 	O 	0.3626	0.8642	0.41407	-0.469
Mof_O 	O 	0.7564	0.9095	0.64679	-0.559
Mof_O 	O 	0.2935	0.9094	0.91172	-0.462
Mof_O 	O 	0.3683	0.0031	0.9074	-0.528
Mof_O 	O 	0.5554	0.696	0.09033	-0.331
Mof_O 	O 	0.6151	0.7954	0.10074	-0.471
Mof_O 	O 	0.2009	0.0251	0.90351	-0.537
Mof_O 	O 	0.2631	0.1231	0.91312	-0.443
Mof_O 	O 	0.908	0.245	0.08616	-0.292
Mof_O 	O 	0.1706	0.0121	0.84299	-0.469
Mof_O 	O 	0.1403	0.3571	0.65495	-0.549
Mof_O 	O 	0.0401	0.2915	0.65458	-0.565
Mof_O 	O 	0.0106	0.2997	0.83999	-0.313
Mof_O 	O 	0.8989	0.3375	0.83994	-0.477
Mof_O 	O 	0.8034	0.0626	0.6451	-0.559
Mof_O 	O 	0.8981	0.9936	0.65424	-0.474
Mof_O 	O 	0.858	0.0487	0.83263	-0.378
Mof_O 	O 	0.8835	0.9404	0.84719	-0.365
Mof_O 	O 	0.2264	0.0426	0.66057	-0.367
Mof_O 	O 	0.1982	0.9348	0.64791	-0.411
Mof_O 	O 	0.2242	0.0703	0.60082	-0.369
Mof_O 	O 	0.3406	0.0833	0.59511	-0.369
Mof_O 	O 	0.1849	0.4435	0.42195	-0.444
Mof_O 	O 	0.2956	0.4145	0.41379	-0.34
Mof_O 	O 	0.07	0.9639	0.88073	-0.724
Mof_O 	O 	0.2504	0.7993	0.87763	-0.743
Mof_O 	O 	0.4864	0.0929	0.88466	-0.828
Mof_O 	O 	0.317	0.8486	0.62703	-0.735
Mof_O 	O 	0.4273	0.9483	0.61187	-0.761
Mof_O 	O 	0.8626	0.1358	0.08593	-0.469
Mof_O 	O 	0.2564	0.0905	0.85321	-0.559
Mof_O 	O 	0.7065	0.5906	0.41172	-0.462
Mof_O 	O 	0.6317	0.4969	0.4074	-0.529
Mof_O 	O 	0.4446	0.804	0.59033	-0.331
Mof_O 	O 	0.3849	0.7046	0.60074	-0.471
Mof_O 	O 	0.7991	0.4749	0.40351	-0.539
Mof_O 	O 	0.7369	0.3769	0.41312	-0.443
Mof_O 	O 	0.092	0.255	0.58616	-0.291
Mof_O 	O 	0.8294	0.4879	0.34299	-0.471
Mof_O 	O 	0.8597	0.1429	0.15495	-0.549
Mof_O 	O 	0.9599	0.2085	0.15458	-0.566
Mof_O 	O 	0.9894	0.2003	0.33999	-0.317
Mof_O 	O 	0.1011	0.1625	0.33994	-0.479
Mof_O 	O 	0.1966	0.4374	0.1451	-0.559
Mof_O 	O 	0.1019	0.5064	0.15424	-0.478
Mof_O 	O 	0.142	0.4513	0.33263	-0.377
Mof_O 	O 	0.1165	0.5596	0.34719	-0.366
Mof_O 	O 	0.7736	0.4574	0.16057	-0.369
Mof_O 	O 	0.8018	0.5652	0.14791	-0.411
Mof_O 	O 	0.7758	0.4297	0.10082	-0.37
Mof_O 	O 	0.6594	0.4167	0.09511	-0.369
Mof_O 	O 	0.8151	0.0565	0.92195	-0.444
Mof_O 	O 	0.7044	0.0855	0.91379	-0.34
Mof_O 	O 	0.93	0.5361	0.38073	-0.72
Mof_O 	O 	0.7496	0.7007	0.37763	-0.744
Mof_O 	O 	0.5136	0.4071	0.38466	-0.828
Mof_O 	O 	0.683	0.6514	0.12703	-0.736
Mof_O 	O 	0.5727	0.5517	0.11187	-0.761
Mof_O 	O 	0.1374	0.3642	0.58593	-0.469
Mof_O 	O 	0.7436	0.4095	0.35321	-0.56
Mof_O 	O 	0.2065	0.4094	0.08828	-0.462
Mof_O 	O 	0.1317	0.5031	0.0926	-0.528
Mof_O 	O 	0.9446	0.196	0.90967	-0.331
Mof_O 	O 	0.8849	0.2954	0.89926	-0.471
Mof_O 	O 	0.2991	0.5251	0.09649	-0.539
Mof_O 	O 	0.2369	0.6231	0.08688	-0.443
Mof_O 	O 	0.592	0.745	0.91384	-0.291
Mof_O 	O 	0.3294	0.5121	0.15701	-0.471
Mof_O 	O 	0.3597	0.8571	0.34505	-0.549
Mof_O 	O 	0.4599	0.7915	0.34542	-0.565
Mof_O 	O 	0.4894	0.7997	0.16001	-0.31
Mof_O 	O 	0.6011	0.8375	0.16006	-0.477
Mof_O 	O 	0.6966	0.5626	0.3549	-0.559
Mof_O 	O 	0.6019	0.4936	0.34576	-0.479
Mof_O 	O 	0.642	0.5487	0.16737	-0.378
Mof_O 	O 	0.6165	0.4404	0.15281	-0.367
Mof_O 	O 	0.2736	0.5426	0.33943	-0.369
Mof_O 	O 	0.3018	0.4348	0.35209	-0.411
Mof_O 	O 	0.2758	0.5703	0.39918	-0.37
Mof_O 	O 	0.1594	0.5833	0.40489	-0.369
Mof_O 	O 	0.3151	0.9435	0.57805	-0.444
Mof_O 	O 	0.2044	0.9145	0.58621	-0.341
Mof_O 	O 	0.43	0.4639	0.11927	-0.72
Mof_O 	O 	0.2496	0.2993	0.12237	-0.744
Mof_O 	O 	0.0136	0.5929	0.11534	-0.82
Mof_O 	O 	0.183	0.3486	0.37297	-0.735
Mof_O 	O 	0.0727	0.4483	0.38813	-0.76
Mof_O 	O 	0.6374	0.6358	0.91407	-0.469
Mof_O 	O 	0.2436	0.5905	0.14679	-0.559
Mof_O 	O 	0.2065	0.9094	0.41172	-0.461
Mof_O 	O 	0.1317	0.0031	0.4074	-0.526
Mof_O 	O 	0.9446	0.696	0.59033	-0.33
Mof_O 	O 	0.8849	0.7954	0.60074	-0.47
Mof_O 	O 	0.2991	0.0251	0.40351	-0.538
Mof_O 	O 	0.2369	0.1231	0.41312	-0.443
Mof_O 	O 	0.592	0.245	0.58616	-0.291
Mof_O 	O 	0.3294	0.0121	0.34299	-0.47
Mof_O 	O 	0.3597	0.3571	0.15495	-0.549
Mof_O 	O 	0.4599	0.2915	0.15458	-0.565
Mof_O 	O 	0.4894	0.2997	0.33999	-0.31
Mof_O 	O 	0.6011	0.3375	0.33994	-0.477
Mof_O 	O 	0.6966	0.0626	0.1451	-0.559
Mof_O 	O 	0.6019	0.9936	0.15424	-0.478
Mof_O 	O 	0.642	0.0487	0.33263	-0.378
Mof_O 	O 	0.6165	0.9404	0.34719	-0.367
Mof_O 	O 	0.2736	0.0426	0.16057	-0.367
Mof_O 	O 	0.3018	0.9348	0.14791	-0.41
Mof_O 	O 	0.2758	0.0703	0.10082	-0.369
Mof_O 	O 	0.1594	0.0833	0.09511	-0.367
Mof_O 	O 	0.3151	0.4435	0.92195	-0.444
Mof_O 	O 	0.2044	0.4145	0.91379	-0.341
Mof_O 	O 	0.43	0.9639	0.38073	-0.721
Mof_O 	O 	0.2496	0.7993	0.37763	-0.743
Mof_O 	O 	0.0136	0.0929	0.38466	-0.808
Mof_O 	O 	0.183	0.8486	0.12703	-0.735
Mof_O 	O 	0.0727	0.9483	0.11187	-0.761
Mof_O 	O 	0.6374	0.1358	0.58593	-0.469
Mof_O 	O 	0.2436	0.0905	0.35321	-0.559
Mof_O 	O 	0.7065	0.0906	0.08828	-0.462
Mof_O 	O 	0.6317	0.9969	0.0926	-0.528
Mof_O 	O 	0.4446	0.304	0.90967	-0.331
Mof_O 	O 	0.3849	0.2046	0.89926	-0.471
Mof_O 	O 	0.7991	0.9749	0.09649	-0.537
Mof_O 	O 	0.7369	0.8769	0.08688	-0.443
Mof_O 	O 	0.092	0.755	0.91384	-0.292
Mof_O 	O 	0.8294	0.9879	0.15701	-0.469
Mof_O 	O 	0.8597	0.6429	0.34505	-0.549
Mof_O 	O 	0.9599	0.7085	0.34542	-0.565
Mof_O 	O 	0.9894	0.7003	0.16001	-0.313
Mof_O 	O 	0.1011	0.6625	0.16006	-0.477
Mof_O 	O 	0.1966	0.9374	0.3549	-0.559
Mof_O 	O 	0.1019	0.0064	0.34576	-0.474
Mof_O 	O 	0.142	0.9513	0.16737	-0.378
Mof_O 	O 	0.1165	0.0596	0.15281	-0.365
Mof_O 	O 	0.7736	0.9574	0.33943	-0.367
Mof_O 	O 	0.8018	0.0652	0.35209	-0.411
Mof_O 	O 	0.7758	0.9297	0.39918	-0.369
Mof_O 	O 	0.6594	0.9167	0.40489	-0.369
Mof_O 	O 	0.8151	0.5565	0.57805	-0.444
Mof_O 	O 	0.7044	0.5855	0.58621	-0.34
Mof_O 	O 	0.93	0.0361	0.11927	-0.724
Mof_O 	O 	0.7496	0.2007	0.12237	-0.743
Mof_O 	O 	0.5136	0.9071	0.11534	-0.828
Mof_O 	O 	0.683	0.1514	0.37297	-0.735
Mof_O 	O 	0.5727	0.0517	0.38813	-0.761
Mof_O 	O 	0.1374	0.8642	0.91407	-0.469
Mof_O 	O 	0.7436	0.9095	0.14679	-0.559
Mof_O 	O 	0.2935	0.4094	0.58828	-0.462
Mof_O 	O 	0.3683	0.5031	0.5926	-0.529
Mof_O 	O 	0.5554	0.196	0.40967	-0.331
Mof_O 	O 	0.6151	0.2954	0.39926	-0.471
Mof_O 	O 	0.2009	0.5251	0.59649	-0.539
Mof_O 	O 	0.2631	0.6231	0.58688	-0.443
Mof_O 	O 	0.908	0.745	0.41384	-0.291
Mof_O 	O 	0.1706	0.5121	0.65701	-0.471
Mof_O 	O 	0.1403	0.8571	0.84505	-0.549
Mof_O 	O 	0.0401	0.7915	0.84542	-0.566
Mof_O 	O 	0.0106	0.7997	0.66001	-0.317
Mof_O 	O 	0.8989	0.8375	0.66006	-0.479
Mof_O 	O 	0.8034	0.5626	0.8549	-0.559
Mof_O 	O 	0.8981	0.4936	0.84576	-0.478
Mof_O 	O 	0.858	0.5487	0.66737	-0.377
Mof_O 	O 	0.8835	0.4404	0.65281	-0.366
Mof_O 	O 	0.2264	0.5426	0.83943	-0.369
Mof_O 	O 	0.1982	0.4348	0.85209	-0.411
Mof_O 	O 	0.2242	0.5703	0.89918	-0.37
Mof_O 	O 	0.3406	0.5833	0.90489	-0.369
Mof_O 	O 	0.1849	0.9435	0.07805	-0.444
Mof_O 	O 	0.2956	0.9145	0.08621	-0.34
Mof_O 	O 	0.07	0.4639	0.61927	-0.72
Mof_O 	O 	0.2504	0.2993	0.62237	-0.744
Mof_O 	O 	0.4864	0.5929	0.61534	-0.828
Mof_O 	O 	0.317	0.3486	0.87297	-0.736
Mof_O 	O 	0.4273	0.4483	0.88813	-0.761
Mof_O 	O 	0.8626	0.6358	0.41407	-0.469
Mof_O 	O 	0.2564	0.5905	0.64679	-0.56
Mof_O 	O 	0.7935	0.5906	0.91172	-0.462
Mof_O 	O 	0.8683	0.4969	0.9074	-0.528
Mof_O 	O 	0.0554	0.804	0.09033	-0.331
Mof_O 	O 	0.1151	0.7046	0.10074	-0.471
Mof_O 	O 	0.7009	0.4749	0.90351	-0.539
Mof_O 	O 	0.7631	0.3769	0.91312	-0.443
Mof_O 	O 	0.408	0.255	0.08616	-0.291
Mof_O 	O 	0.6706	0.4879	0.84299	-0.471
Mof_O 	O 	0.6403	0.1429	0.65495	-0.549
Mof_O 	O 	0.5401	0.2085	0.65458	-0.565
Mof_O 	O 	0.5106	0.2003	0.83999	-0.31
Mof_O 	O 	0.3989	0.1625	0.83994	-0.477
Mof_O 	O 	0.3034	0.4374	0.6451	-0.559
Mof_O 	O 	0.3981	0.5064	0.65424	-0.479
Mof_O 	O 	0.358	0.4513	0.83263	-0.378
Mof_O 	O 	0.3835	0.5596	0.84719	-0.367
Mof_O 	O 	0.7264	0.4574	0.66057	-0.369
Mof_O 	O 	0.6982	0.5652	0.64791	-0.411
Mof_O 	O 	0.7242	0.4297	0.60082	-0.37
Mof_O 	O 	0.8406	0.4167	0.59511	-0.369
Mof_O 	O 	0.6849	0.0565	0.42195	-0.444
Mof_O 	O 	0.7956	0.0855	0.41379	-0.341
Mof_O 	O 	0.57	0.5361	0.88073	-0.72
Mof_O 	O 	0.7504	0.7007	0.87763	-0.744
Mof_O 	O 	0.9864	0.4071	0.88466	-0.82
Mof_O 	O 	0.817	0.6514	0.62703	-0.735
Mof_O 	O 	0.9273	0.5517	0.61187	-0.76
Mof_O 	O 	0.3626	0.3642	0.08593	-0.469
Mof_O 	O 	0.7564	0.4095	0.85321	-0.559
Mof_Cl	Cl	0.77573	0.49647	0.99348	-0.226
Mof_O 	O 	0.7451	0.5615	0.98652	-0.03
Mof_O 	O 	0.8417	0.5115	0.00776	-0.044
Mof_O 	O 	0.7295	0.4593	0.0089	-0.019
Mof_O 	O 	0.7896	0.4457	0.9742	-0.036
Mof_Cl	Cl	0.27573	0.50353	0.50652	-0.227
Mof_O 	O 	0.2451	0.4385	0.51348	-0.03
Mof_O 	O 	0.3417	0.4885	0.49224	-0.044
Mof_O 	O 	0.2295	0.5407	0.4911	-0.019
Mof_O 	O 	0.2896	0.5543	0.5258	-0.036
Mof_Cl	Cl	0.72427	0.99647	0.00652	-0.223
Mof_O 	O 	0.7549	0.0615	0.01348	-0.031
Mof_O 	O 	0.6583	0.0115	0.99224	-0.045
Mof_O 	O 	0.7705	0.9593	0.9911	-0.019
Mof_O 	O 	0.7104	0.9457	0.0258	-0.037
Mof_Cl	Cl	0.22427	0.00353	0.49348	-0.222
Mof_O 	O 	0.2549	0.9385	0.48652	-0.032
Mof_O 	O 	0.1583	0.9885	0.50776	-0.047
Mof_O 	O 	0.2705	0.0407	0.5089	-0.019
Mof_O 	O 	0.2104	0.0543	0.4742	-0.037
Mof_Cl	Cl	0.22427	0.50353	0.00652	-0.226
Mof_O 	O 	0.2549	0.4385	0.01348	-0.03
Mof_O 	O 	0.1583	0.4885	0.99224	-0.044
Mof_O 	O 	0.2705	0.5407	0.9911	-0.019
Mof_O 	O 	0.2104	0.5543	0.0258	-0.036
Mof_Cl	Cl	0.72427	0.49647	0.49348	-0.227
Mof_O 	O 	0.7549	0.5615	0.48652	-0.03
Mof_O 	O 	0.6583	0.5115	0.50776	-0.044
Mof_O 	O 	0.7705	0.4593	0.5089	-0.019
Mof_O 	O 	0.7104	0.4457	0.4742	-0.036
Mof_Cl	Cl	0.27573	0.00353	0.99348	-0.223
Mof_O 	O 	0.2451	0.9385	0.98652	-0.031
Mof_O 	O 	0.3417	0.9885	0.00776	-0.045
Mof_O 	O 	0.2295	0.0407	0.0089	-0.019
Mof_O 	O 	0.2896	0.0543	0.9742	-0.037
Mof_Cl	Cl	0.77573	0.99647	0.50652	-0.222
Mof_O 	O 	0.7451	0.0615	0.51348	-0.032
Mof_O 	O 	0.8417	0.0115	0.49224	-0.047
Mof_O 	O 	0.7295	0.9593	0.4911	-0.019
Mof_O 	O 	0.7896	0.9457	0.5258	-0.037
_end
