data_functionalizedCrystal
_audit_creation_method	'EQeq! by Chris Wilmer'
_symmetry_space_group_name_H-M	'P1'
_symmetry_Int_Tables_number	1
_symmetry_cell_setting	triclinic
loop_
_symmetry_equiv_pos_as_xyz
  x,y,z
_cell_length_a	10.0239
_cell_length_b	10.0797
_cell_length_c	23.5726
_cell_angle_alpha	77.713
_cell_angle_beta	79.766
_cell_angle_gamma	88.768
loop_
_atom_site_label
_atom_site_type_symbol
_atom_site_fract_x
_atom_site_fract_y
_atom_site_fract_z
_atom_site_charge
Mof_C 	C 	0.648	0.538	0.371	0.074
Mof_H 	H 	0.7334	0.5342	0.3485	0.004
Mof_C 	C 	0.635	0.509	0.432	-0.124
Mof_H 	H 	0.7104	0.4841	0.4492	0.081
Mof_C 	C 	0.42	0.577	0.376	0.065
Mof_H 	H 	0.3454	0.5999	0.3579	-0.007
Mof_C 	C 	0.416	0.258	0.318	0.052
Mof_H 	H 	0.351	0.2757	0.2941	-0.01
Mof_C 	C 	0.375	0.243	0.378	-0.123
Mof_H 	H 	0.2837	0.2511	0.3934	0.076
Mof_C 	C 	0.47	0.216	0.415	0.045
Mof_C 	C 	0.427	0.193	0.48	0.087
Mof_C 	C 	0.943	0.856	0.131	0.075
Mof_H 	H 	0.9316	0.7697	0.1557	-0.005
Mof_C 	C 	0.97	0.865	0.071	-0.125
Mof_H 	H 	0.9761	0.7869	0.0562	0.076
Mof_C 	C 	0.987	0.992	0.033	0.052
Mof_C 	C 	0.274	0.093	0.172	0.07
Mof_H 	H 	0.2661	0.164	0.1924	-0.011
Mof_C 	C 	0.275	0.865	0.174	0.072
Mof_H 	H 	0.2639	0.776	0.1956	-0.01
Mof_C 	C 	0.521	0.15	0.517	-0.167
Mof_H 	H 	0.6112	0.1389	0.5016	0.089
Mof_C 	C 	0.295	0.21	0.506	-0.175
Mof_H 	H 	0.2305	0.2403	0.4829	0.089
Mof_C 	C 	0.952	0.087	0.12	0.063
Mof_H 	H 	0.9458	0.1644	0.1358	-0
Mof_C 	C 	0.979	0.103	0.059	-0.117
Mof_H 	H 	0.9918	0.19	0.0354	0.068
Mof_C 	C 	0.304	0.02	0.081	0.057
Mof_C 	C 	0.4	0.551	0.438	-0.124
Mof_H 	H 	0.3139	0.5567	0.459	0.072
Mof_C 	C 	0.605	0.207	0.389	-0.13
Mof_H 	H 	0.6719	0.189	0.412	0.089
Mof_C 	C 	0.329	0.051	0.016	0.072
Mof_C 	C 	0.636	0.224	0.329	0.085
Mof_H 	H 	0.7267	0.2169	0.3121	-0.008
Mof_C 	C 	0.293	0.124	0.112	-0.131
Mof_H 	H 	0.2982	0.2141	0.0919	0.079
Mof_C 	C 	0.48	0.124	0.577	0.125
Mof_H 	H 	0.5415	0.0956	0.6024	-0.004
Mof_C 	C 	0.259	0.184	0.567	0.136
Mof_H 	H 	0.1697	0.1954	0.5838	-0.007
Mof_C 	C 	0.38	0.207	0.922	0.108
Mof_H 	H 	0.3987	0.2952	0.901	0.016
Mof_C 	C 	0.356	0.182	0.983	-0.148
Mof_H 	H 	0.357	0.2531	0.0021	0.085
Mof_C 	C 	0.356	0.979	0.923	0.13
Mof_H 	H 	0.3566	0.9097	0.9027	-0.011
Mof_C 	C 	0.331	0.948	0.985	-0.151
Mof_H 	H 	0.3153	0.8586	0.0049	0.084
Mof_C 	C 	0.509	0.516	0.467	0.057
Mof_C 	C 	0.299	0.889	0.113	-0.128
Mof_H 	H 	0.312	0.8166	0.0935	0.088
Mof_H 	H 	0.3931	0.1348	0.8542	0.156
Mof_H 	H 	0.331	0.1215	0.6389	0.163
Mof_H 	H 	0.9528	0.0311	0.4008	0.204
Mof_H 	H 	0.0167	0.6232	0.4033	0.223
Mof_H 	H 	0.846	0.5477	0.0999	0.243
Mof_H 	H 	0.2887	0.534	0.1002	0.153
Mof_N 	N 	0.378	0.106	0.894	-0.219
Mof_N 	N 	0.933	0.964	0.157	-0.267
Mof_N 	N 	0.543	0.572	0.343	-0.258
Mof_N 	N 	0.547	0.249	0.293	-0.28
Mof_N 	N 	0.266	0.965	0.204	-0.28
Mof_N 	N 	0.35	0.141	0.6	-0.231
Mof_O 	O 	0.784	0.324	0.183	-0.482
Mof_O 	O 	0.977	0.475	0.184	-0.45
Mof_O 	O 	0.794	0.57	0.129	-0.454
Mof_O 	O 	0.744	0.518	0.237	-0.5
Mof_O 	O 	0.492	0.366	0.158	-0.458
Mof_O 	O 	0.443	0.559	0.212	-0.489
Mof_O 	O 	0.359	0.567	0.12	-0.342
Mof_O 	O 	0.26	0.394	0.209	-0.467
Mof_O 	O 	0.703	0.933	0.283	-0.472
Mof_O 	O 	0.586	0.811	0.221	-0.474
Mof_O 	O 	0.587	0.061	0.202	-0.478
Mof_O 	O 	0.453	0.926	0.298	-0.472
Mof_O 	O 	0.167	0.763	0.33	-0.498
Mof_O 	O 	0.111	0.581	0.284	-0.48
Mof_O 	O 	0.961	0.779	0.284	-0.518
Mof_O 	O 	0.968	0.614	0.377	-0.415
Mof_O 	O 	0.164	0.071	0.325	-0.467
Mof_O 	O 	0.988	0.098	0.259	-0.497
Mof_O 	O 	0.025	0.282	0.312	-0.429
Mof_O 	O 	0.916	0.062	0.368	-0.402
Mof_P 	P 	0.825	0.467	0.1851	0.556
Mof_P 	P 	0.053	0.687	0.3156	0.619
Mof_P 	P 	0.026	0.13	0.3138	0.542
Mof_P 	P 	0.58	0.934	0.2513	0.526
Mof_P 	P 	0.389	0.469	0.1772	0.569
Mof_Zn	Zn	0.6033	0.2489	0.2062	1.217
Mof_Zn	Zn	0.2621	0.929	0.2914	1.217
Mof_Zn	Zn	0.5782	0.6133	0.2511	1.218
Mof_Zn	Zn	0.8949	0.9449	0.2463	1.22
Mof_Zn	Zn	0.0815	0.4366	0.2469	1.243
Mof_C 	C 	0.352	0.462	0.629	0.075
Mof_H 	H 	0.2666	0.4658	0.6515	0.005
Mof_C 	C 	0.365	0.491	0.568	-0.123
Mof_H 	H 	0.2896	0.5159	0.5508	0.082
Mof_C 	C 	0.58	0.423	0.624	0.066
Mof_H 	H 	0.6546	0.4001	0.6421	-0.006
Mof_C 	C 	0.584	0.742	0.682	0.053
Mof_H 	H 	0.649	0.7243	0.7059	-0.009
Mof_C 	C 	0.625	0.757	0.622	-0.122
Mof_H 	H 	0.7163	0.7489	0.6066	0.077
Mof_C 	C 	0.53	0.784	0.585	0.045
Mof_C 	C 	0.573	0.807	0.52	0.087
Mof_C 	C 	0.057	0.144	0.869	0.075
Mof_H 	H 	0.0684	0.2303	0.8443	-0.005
Mof_C 	C 	0.03	0.135	0.929	-0.125
Mof_H 	H 	0.0239	0.2131	0.9438	0.076
Mof_C 	C 	0.013	0.008	0.967	0.052
Mof_C 	C 	0.726	0.907	0.828	0.07
Mof_H 	H 	0.7339	0.836	0.8076	-0.011
Mof_C 	C 	0.725	0.135	0.826	0.072
Mof_H 	H 	0.7361	0.224	0.8044	-0.01
Mof_C 	C 	0.479	0.85	0.483	-0.167
Mof_H 	H 	0.3888	0.8611	0.4984	0.089
Mof_C 	C 	0.705	0.79	0.494	-0.175
Mof_H 	H 	0.7695	0.7597	0.5171	0.089
Mof_C 	C 	0.048	0.913	0.88	0.063
Mof_H 	H 	0.0542	0.8356	0.8642	-0
Mof_C 	C 	0.021	0.897	0.941	-0.117
Mof_H 	H 	0.0082	0.81	0.9646	0.068
Mof_C 	C 	0.696	0.98	0.919	0.057
Mof_C 	C 	0.6	0.449	0.562	-0.124
Mof_H 	H 	0.6861	0.4433	0.541	0.072
Mof_C 	C 	0.395	0.793	0.611	-0.13
Mof_H 	H 	0.3281	0.811	0.588	0.089
Mof_C 	C 	0.671	0.949	0.984	0.072
Mof_C 	C 	0.364	0.776	0.671	0.085
Mof_H 	H 	0.2733	0.7831	0.6879	-0.008
Mof_C 	C 	0.707	0.876	0.888	-0.131
Mof_H 	H 	0.7018	0.7859	0.9081	0.079
Mof_C 	C 	0.52	0.876	0.423	0.125
Mof_H 	H 	0.4585	0.9044	0.3976	-0.004
Mof_C 	C 	0.741	0.816	0.433	0.136
Mof_H 	H 	0.8303	0.8046	0.4162	-0.007
Mof_C 	C 	0.62	0.793	0.078	0.108
Mof_H 	H 	0.6013	0.7048	0.099	0.016
Mof_C 	C 	0.644	0.818	0.017	-0.148
Mof_H 	H 	0.643	0.7469	0.9979	0.085
Mof_C 	C 	0.644	0.021	0.077	0.13
Mof_H 	H 	0.6434	0.0903	0.0973	-0.011
Mof_C 	C 	0.669	0.052	0.015	-0.151
Mof_H 	H 	0.6847	0.1414	0.9951	0.084
Mof_C 	C 	0.491	0.484	0.533	0.057
Mof_C 	C 	0.701	0.111	0.887	-0.128
Mof_H 	H 	0.688	0.1834	0.9065	0.088
Mof_H 	H 	0.6069	0.8652	0.1458	0.156
Mof_H 	H 	0.669	0.8785	0.3611	0.163
Mof_H 	H 	0.0472	0.9689	0.5992	0.204
Mof_H 	H 	0.9833	0.3768	0.5967	0.223
Mof_H 	H 	0.154	0.4523	0.9001	0.243
Mof_H 	H 	0.7113	0.466	0.8998	0.153
Mof_N 	N 	0.622	0.894	0.106	-0.219
Mof_N 	N 	0.067	0.036	0.843	-0.267
Mof_N 	N 	0.457	0.428	0.657	-0.258
Mof_N 	N 	0.453	0.751	0.707	-0.28
Mof_N 	N 	0.734	0.035	0.796	-0.28
Mof_N 	N 	0.65	0.859	0.4	-0.231
Mof_O 	O 	0.216	0.676	0.817	-0.482
Mof_O 	O 	0.023	0.525	0.816	-0.45
Mof_O 	O 	0.206	0.43	0.871	-0.454
Mof_O 	O 	0.256	0.482	0.763	-0.5
Mof_O 	O 	0.508	0.634	0.842	-0.458
Mof_O 	O 	0.557	0.441	0.788	-0.489
Mof_O 	O 	0.641	0.433	0.88	-0.342
Mof_O 	O 	0.74	0.606	0.791	-0.467
Mof_O 	O 	0.297	0.067	0.717	-0.472
Mof_O 	O 	0.414	0.189	0.779	-0.474
Mof_O 	O 	0.413	0.939	0.798	-0.478
Mof_O 	O 	0.547	0.074	0.702	-0.472
Mof_O 	O 	0.833	0.237	0.67	-0.498
Mof_O 	O 	0.889	0.419	0.716	-0.48
Mof_O 	O 	0.039	0.221	0.716	-0.518
Mof_O 	O 	0.032	0.386	0.623	-0.415
Mof_O 	O 	0.836	0.929	0.675	-0.467
Mof_O 	O 	0.012	0.902	0.741	-0.497
Mof_O 	O 	0.975	0.718	0.688	-0.429
Mof_O 	O 	0.084	0.938	0.632	-0.402
Mof_P 	P 	0.175	0.533	0.8149	0.556
Mof_P 	P 	0.947	0.313	0.6844	0.619
Mof_P 	P 	0.974	0.87	0.6862	0.542
Mof_P 	P 	0.42	0.066	0.7487	0.526
Mof_P 	P 	0.611	0.531	0.8228	0.569
Mof_Zn	Zn	0.3967	0.7511	0.7938	1.217
Mof_Zn	Zn	0.7379	0.071	0.7086	1.217
Mof_Zn	Zn	0.4218	0.3867	0.7489	1.218
Mof_Zn	Zn	0.1051	0.0551	0.7537	1.22
Mof_Zn	Zn	0.9185	0.5634	0.7531	1.243
_end
