data_functionalizedCrystal
_audit_creation_method	'EQeq! by Chris Wilmer'
_symmetry_space_group_name_H-M	'P1'
_symmetry_Int_Tables_number	1
_symmetry_cell_setting	triclinic
loop_
_symmetry_equiv_pos_as_xyz
  x,y,z
_cell_length_a	15.9224
_cell_length_b	19.6814
_cell_length_c	19.6814
_cell_angle_alpha	80.5827
_cell_angle_beta	66.14
_cell_angle_gamma	66.1399
loop_
_atom_site_label
_atom_site_type_symbol
_atom_site_fract_x
_atom_site_fract_y
_atom_site_fract_z
_atom_site_charge
Mof_Er	Er	0.20571	0.38278	0.20189	1.888
Mof_Er	Er	0.79038	0.61722	0.79811	1.887
Mof_Cu	Cu	0.36036	0.68624	0.0907	0.848
Mof_Cu	Cu	0.1373	0.31376	0.9093	0.848
Mof_H 	H 	0.0354	0.4257	0.4627	0.033
Mof_H 	H 	0.0157	0.4081	0.5859	0.075
Mof_H 	H 	0.3258	0.3307	0.4051	0.034
Mof_H 	H 	0.3063	0.3117	0.5275	0.071
Mof_H 	H 	0.2489	0.2432	0.6416	0.089
Mof_H 	H 	0.2346	0.2316	0.7614	-0.008
Mof_H 	H 	0.037	0.4468	0.6908	0.082
Mof_H 	H 	0.0323	0.4286	0.8088	-0.003
Mof_H 	H 	0.9843	0.5648	0.0808	0.034
Mof_H 	H 	0.8392	0.6169	0.0589	0.068
Mof_H 	H 	0.8812	0.4225	0.2251	0.04
Mof_H 	H 	0.7365	0.4736	0.2038	0.065
Mof_H 	H 	0.7284	0.6015	0.0063	0.074
Mof_H 	H 	0.5795	0.6435	0.9929	-0.005
Mof_H 	H 	0.5878	0.5805	0.2237	0.089
Mof_H 	H 	0.4439	0.6248	0.2046	-0.012
Mof_H 	H 	0.5551	0.2671	0.0827	0.036
Mof_H 	H 	0.7176	0.2532	0.0474	0.063
Mof_H 	H 	0.4673	0.4849	0.1133	0.014
Mof_H 	H 	0.631	0.4708	0.077	0.073
Mof_H 	H 	0.8481	0.255	0.079	0.076
Mof_H 	H 	0.0106	0.2438	0.0322	-0.013
Mof_H 	H 	0.7821	0.4512	0.9768	0.088
Mof_H 	H 	0.9455	0.4362	0.9348	-0.007
Mof_H 	H 	0.2264	0.187	0.0628	0.024
Mof_H 	H 	0.2552	0.0666	0.042	0.068
Mof_H 	H 	0.2495	0.1285	0.2605	0.04
Mof_H 	H 	0.2863	0.0062	0.2374	0.076
Mof_H 	H 	0.1808	0.9649	0.0919	0.079
Mof_H 	H 	0.2152	0.8436	0.0738	-0.021
Mof_H 	H 	0.414	0.8966	0.1522	0.091
Mof_H 	H 	0.4439	0.7786	0.1282	-0.007
Mof_H 	H 	0.9238	0.5743	0.5373	0.034
Mof_H 	H 	0.0097	0.5919	0.4141	0.074
Mof_H 	H 	0.0616	0.6693	0.5949	0.034
Mof_H 	H 	0.1455	0.6883	0.4725	0.073
Mof_H 	H 	0.1337	0.7568	0.3584	0.09
Mof_H 	H 	0.2276	0.7684	0.2386	-0.008
Mof_H 	H 	0.1746	0.5532	0.3092	0.082
Mof_H 	H 	0.2697	0.5714	0.1912	-0.004
Mof_H 	H 	0.6299	0.4352	0.9192	0.037
Mof_H 	H 	0.515	0.3831	0.9411	0.067
Mof_H 	H 	0.5288	0.5775	0.7749	0.043
Mof_H 	H 	0.4139	0.5264	0.7962	0.064
Mof_H 	H 	0.3362	0.3985	0.9937	0.074
Mof_H 	H 	0.2159	0.3565	0.0071	-0.004
Mof_H 	H 	0.392	0.4195	0.7763	0.09
Mof_H 	H 	0.2733	0.3752	0.7954	-0.012
Mof_H 	H 	0.9049	0.7329	0.9173	0.038
Mof_H 	H 	0.0182	0.7468	0.9526	0.062
Mof_H 	H 	0.0655	0.5151	0.8867	0.014
Mof_H 	H 	0.1788	0.5292	0.923	0.073
Mof_H 	H 	0.1821	0.745	0.921	0.079
Mof_H 	H 	0.2866	0.7562	0.9678	-0.018
Mof_H 	H 	0.2101	0.5488	0.0232	0.09
Mof_H 	H 	0.3165	0.5638	0.0652	-0.007
Mof_H 	H 	0.4762	0.813	0.9372	0.024
Mof_H 	H 	0.3638	0.9334	0.958	0.068
Mof_H 	H 	0.6385	0.8715	0.7395	0.039
Mof_H 	H 	0.5299	0.9938	0.7626	0.077
Mof_H 	H 	0.2376	0.0351	0.9081	0.078
Mof_H 	H 	0.1326	0.1564	0.9262	-0.021
Mof_H 	H 	0.4628	0.1034	0.8478	0.09
Mof_H 	H 	0.3507	0.2214	0.8718	-0.007
Mof_C 	C 	0.1961	0.3925	0.3411	0.333
Mof_C 	C 	0.1819	0.3825	0.4215	-0.106
Mof_C 	C 	0.0909	0.4036	0.4754	0.037
Mof_C 	C 	0.0793	0.3926	0.5496	-0.107
Mof_C 	C 	0.2625	0.3472	0.4416	0.032
Mof_C 	C 	0.2508	0.3359	0.5151	-0.105
Mof_C 	C 	0.1584	0.3597	0.5709	0.038
Mof_C 	C 	0.146	0.3473	0.6499	0.068
Mof_C 	C 	0.2038	0.2823	0.6745	-0.145
Mof_C 	C 	0.1945	0.2759	0.7467	0.091
Mof_C 	C 	0.0792	0.4024	0.7034	-0.144
Mof_C 	C 	0.0763	0.3905	0.7745	0.079
Mof_C 	C 	0.0386	0.4548	0.173	0.328
Mof_C 	C 	0.9479	0.4889	0.1549	-0.098
Mof_C 	C 	0.9343	0.5464	0.1056	0.024
Mof_C 	C 	0.8473	0.5776	0.0922	-0.094
Mof_C 	C 	0.8728	0.4615	0.1917	0.023
Mof_C 	C 	0.7864	0.4922	0.1786	-0.092
Mof_C 	C 	0.7721	0.5503	0.1283	0.027
Mof_C 	C 	0.6775	0.5821	0.1171	0.069
Mof_C 	C 	0.67138	0.60422	0.04762	-0.138
Mof_C 	C 	0.5814	0.63	0.04	0.073
Mof_C 	C 	0.5889	0.592	0.1756	-0.147
Mof_C 	C 	0.5022	0.6188	0.1636	0.089
Mof_C 	C 	0.3903	0.3839	0.1271	0.33
Mof_C 	C 	0.4945	0.3774	0.1026	-0.11
Mof_C 	C 	0.5703	0.3082	0.0818	0.026
Mof_C 	C 	0.6677	0.3	0.06	-0.103
Mof_C 	C 	0.5174	0.4383	0.1001	0.036
Mof_C 	C 	0.6158	0.4297	0.0779	-0.111
Mof_C 	C 	0.6916	0.3613	0.0569	0.033
Mof_C 	C 	0.79655	0.35348	0.03142	0.067
Mof_C 	C 	0.8665	0.2921	0.0487	-0.142
Mof_C 	C 	0.9644	0.2859	0.0203	0.07
Mof_C 	C 	0.8274	0.4082	0.9886	-0.14
Mof_C 	C 	0.9261	0.3985	0.9631	0.073
Mof_C 	C 	0.2177	0.2477	0.1779	0.317
Mof_C 	C 	0.235	0.1705	0.1639	-0.096
Mof_C 	C 	0.2373	0.1509	0.0985	0.031
Mof_C 	C 	0.2556	0.0786	0.0856	-0.104
Mof_C 	C 	0.2521	0.116	0.216	0.025
Mof_C 	C 	0.273	0.0428	0.2026	-0.102
Mof_C 	C 	0.2742	0.0241	0.1373	0.031
Mof_C 	C 	0.2948	0.9462	0.1236	0.073
Mof_C 	C 	0.235	0.9278	0.1	-0.156
Mof_C 	C 	0.2569	0.8545	0.0887	0.087
Mof_C 	C 	0.3729	0.8877	0.1349	-0.144
Mof_C 	C 	0.3899	0.8166	0.121	0.083
Mof_C 	C 	0.9297	0.6075	0.6589	0.333
Mof_C 	C 	0.9859	0.6175	0.5785	-0.11
Mof_C 	C 	0.9699	0.5964	0.5246	0.032
Mof_C 	C 	0.0215	0.6074	0.4504	-0.101
Mof_C 	C 	0.0513	0.6528	0.5584	0.038
Mof_C 	C 	0.1018	0.6641	0.4849	-0.106
Mof_C 	C 	0.089	0.6403	0.4291	0.036
Mof_C 	C 	0.1432	0.6527	0.3501	0.069
Mof_C 	C 	0.1606	0.7177	0.3255	-0.146
Mof_C 	C 	0.2171	0.7241	0.2533	0.091
Mof_C 	C 	0.185	0.5976	0.2966	-0.144
Mof_C 	C 	0.2413	0.6095	0.2255	0.079
Mof_C 	C 	0.6664	0.5452	0.827	0.323
Mof_C 	C 	0.5917	0.5111	0.8451	-0.09
Mof_C 	C 	0.5863	0.4536	0.8944	0.02
Mof_C 	C 	0.5171	0.4224	0.9078	-0.09
Mof_C 	C 	0.526	0.5385	0.8083	0.019
Mof_C 	C 	0.4572	0.5078	0.8214	-0.088
Mof_C 	C 	0.4507	0.4497	0.8717	0.024
Mof_C 	C 	0.3767	0.4179	0.8829	0.07
Mof_C 	C 	0.32322	0.39578	0.95238	-0.138
Mof_C 	C 	0.2514	0.37	0.96	0.072
Mof_C 	C 	0.3565	0.408	0.8244	-0.147
Mof_C 	C 	0.2846	0.3812	0.8364	0.089
Mof_C 	C 	0.9013	0.6161	0.8729	0.33
Mof_C 	C 	0.9745	0.6226	0.8974	-0.112
Mof_C 	C 	0.9603	0.6918	0.9182	0.02
Mof_C 	C 	0.0277	0.7	0.94	-0.096
Mof_C 	C 	0.0558	0.5617	0.8999	0.04
Mof_C 	C 	0.1234	0.5703	0.9221	-0.111
Mof_C 	C 	0.1098	0.6387	0.9431	0.03
Mof_C 	C 	0.18145	0.64652	0.96858	0.071
Mof_C 	C 	0.2073	0.7079	0.9513	-0.148
Mof_C 	C 	0.2706	0.7141	0.9797	0.08
Mof_C 	C 	0.2242	0.5918	0.0114	-0.141
Mof_C 	C 	0.2877	0.6015	0.0369	0.075
Mof_C 	C 	0.6433	0.7523	0.8221	0.317
Mof_C 	C 	0.5694	0.8295	0.8361	-0.097
Mof_C 	C 	0.4867	0.8491	0.9015	0.031
Mof_C 	C 	0.4198	0.9214	0.9144	-0.106
Mof_C 	C 	0.5841	0.884	0.784	0.026
Mof_C 	C 	0.5184	0.9572	0.7974	-0.104
Mof_C 	C 	0.4356	0.9759	0.8627	0.033
Mof_C 	C 	0.3646	0.0538	0.8764	0.071
Mof_C 	C 	0.2628	0.0722	0.9	-0.155
Mof_C 	C 	0.2001	0.1455	0.9113	0.086
Mof_C 	C 	0.3955	0.1123	0.8651	-0.143
Mof_C 	C 	0.3275	0.1834	0.879	0.083
Mof_N 	N 	0.13222	0.32812	0.79804	-0.226
Mof_N 	N 	0.49568	0.63684	0.0978	-0.245
Mof_N 	N 	0.9955	0.33743	0.97697	-0.246
Mof_N 	N 	0.33377	0.79802	0.09744	-0.239
Mof_N 	N 	0.25838	0.67188	0.20196	-0.226
Mof_N 	N 	0.23032	0.36316	0.9022	-0.245
Mof_N 	N 	0.3099	0.66257	0.02303	-0.247
Mof_N 	N 	0.22923	0.20198	0.90256	-0.239
Mof_O 	O 	0.2783	0.3597	0.2931	-0.416
Mof_O 	O 	0.12441	0.43219	0.32239	-0.434
Mof_O 	O 	0.0396	0.40966	0.22554	-0.42
Mof_O 	O 	0.1133	0.47228	0.13672	-0.432
Mof_O 	O 	0.31912	0.44527	0.14749	-0.43
Mof_O 	O 	0.37358	0.32712	0.12732	-0.432
Mof_O 	O 	0.21352	0.29599	0.12617	-0.41
Mof_O 	O 	0.21021	0.26448	0.2397	-0.427
Mof_O 	O 	0.9311	0.6403	0.7069	-0.417
Mof_O 	O 	0.87899	0.56781	0.67761	-0.435
Mof_O 	O 	0.6748	0.59034	0.77446	-0.42
Mof_O 	O 	0.7223	0.52772	0.86328	-0.431
Mof_O 	O 	0.91188	0.55473	0.85251	-0.431
Mof_O 	O 	0.82802	0.67288	0.87268	-0.432
Mof_O 	O 	0.63568	0.70401	0.87383	-0.41
Mof_O 	O 	0.71439	0.73552	0.7603	-0.427
Mof_Er	Er	0.5924	0.20189	0.61722	1.889
Mof_Er	Er	0.41151	0.79811	0.38278	1.889
Mof_Cu	Cu	0.54894	0.0907	0.31376	0.849
Mof_Cu	Cu	0.9534	0.9093	0.68624	0.847
Mof_H 	H 	0.5019	0.4627	0.5743	0.033
Mof_H 	H 	0.3984	0.5859	0.5919	0.075
Mof_H 	H 	0.2691	0.4051	0.6693	0.035
Mof_H 	H 	0.1662	0.5275	0.6883	0.073
Mof_H 	H 	0.1095	0.6416	0.7568	0.089
Mof_H 	H 	0.004	0.7614	0.7684	-0.007
Mof_H 	H 	0.2722	0.6908	0.5532	0.081
Mof_H 	H 	0.1589	0.8088	0.5714	-0.004
Mof_H 	H 	0.9349	0.0808	0.4352	0.041
Mof_H 	H 	0.1019	0.0589	0.3831	0.063
Mof_H 	H 	0.8937	0.2251	0.5775	0.046
Mof_H 	H 	0.0597	0.2038	0.5264	0.06
Mof_H 	H 	0.2653	0.0063	0.3985	0.076
Mof_H 	H 	0.4276	0.9929	0.3565	-0.005
Mof_H 	H 	0.1885	0.2237	0.4195	0.091
Mof_H 	H 	0.3515	0.2046	0.3752	-0.013
Mof_H 	H 	0.3622	0.0827	0.7329	0.037
Mof_H 	H 	0.235	0.0474	0.7468	0.063
Mof_H 	H 	0.4194	0.1133	0.5151	0.015
Mof_H 	H 	0.292	0.077	0.5292	0.073
Mof_H 	H 	0.0729	0.079	0.745	0.08
Mof_H 	H 	0.9572	0.0322	0.7562	-0.02
Mof_H 	H 	0.2411	0.9768	0.5488	0.089
Mof_H 	H 	0.1197	0.9348	0.5638	-0.006
Mof_H 	H 	0.7108	0.0628	0.813	0.024
Mof_H 	H 	0.7028	0.042	0.9334	0.068
Mof_H 	H 	0.49	0.2605	0.8715	0.039
Mof_H 	H 	0.4763	0.2374	0.9938	0.076
Mof_H 	H 	0.7273	0.0919	0.0351	0.078
Mof_H 	H 	0.711	0.0738	0.1564	-0.021
Mof_H 	H 	0.4338	0.1522	0.1034	0.09
Mof_H 	H 	0.4279	0.1282	0.2214	-0.007
Mof_H 	H 	0.5389	0.5373	0.4257	0.033
Mof_H 	H 	0.5762	0.4141	0.4081	0.075
Mof_H 	H 	0.3435	0.5949	0.3307	0.035
Mof_H 	H 	0.382	0.4725	0.3117	0.072
Mof_H 	H 	0.5079	0.3584	0.2432	0.089
Mof_H 	H 	0.5338	0.2386	0.2316	-0.008
Mof_H 	H 	0.5162	0.3092	0.4468	0.082
Mof_H 	H 	0.5391	0.1912	0.4286	-0.004
Mof_H 	H 	0.4509	0.9192	0.5648	0.037
Mof_H 	H 	0.5439	0.9411	0.6169	0.067
Mof_H 	H 	0.6963	0.7749	0.4225	0.043
Mof_H 	H 	0.7899	0.7962	0.4736	0.063
Mof_H 	H 	0.6701	0.9937	0.6015	0.074
Mof_H 	H 	0.777	0.0071	0.6435	-0.003
Mof_H 	H 	0.8317	0.7763	0.5805	0.089
Mof_H 	H 	0.9313	0.7954	0.6248	-0.013
Mof_H 	H 	0.1778	0.9173	0.2671	0.037
Mof_H 	H 	0.0292	0.9526	0.2532	0.063
Mof_H 	H 	0.0478	0.8867	0.4849	0.013
Mof_H 	H 	0.8982	0.923	0.4708	0.074
Mof_H 	H 	0.8969	0.921	0.255	0.077
Mof_H 	H 	0.7456	0.9678	0.2438	-0.019
Mof_H 	H 	0.7667	0.0232	0.4512	0.089
Mof_H 	H 	0.6183	0.0652	0.4362	-0.006
Mof_H 	H 	0.5866	0.9372	0.187	0.024
Mof_H 	H 	0.6782	0.958	0.0666	0.067
Mof_H 	H 	0.622	0.7395	0.1285	0.04
Mof_H 	H 	0.7075	0.7626	0.0062	0.076
Mof_H 	H 	0.8543	0.9081	0.9649	0.078
Mof_H 	H 	0.9412	0.9262	0.8436	-0.022
Mof_H 	H 	0.6894	0.8478	0.8966	0.09
Mof_H 	H 	0.7775	0.8718	0.7786	-0.007
Mof_C 	C 	0.4628	0.3411	0.6075	0.333
Mof_C 	C 	0.3966	0.4215	0.6175	-0.106
Mof_C 	C 	0.4337	0.4754	0.5964	0.038
Mof_C 	C 	0.3711	0.5496	0.6074	-0.108
Mof_C 	C 	0.2959	0.4416	0.6528	0.033
Mof_C 	C 	0.2341	0.5151	0.6641	-0.106
Mof_C 	C 	0.2707	0.5709	0.6403	0.038
Mof_C 	C 	0.2041	0.6499	0.6527	0.068
Mof_C 	C 	0.1217	0.6745	0.7177	-0.145
Mof_C 	C 	0.0588	0.7467	0.7241	0.091
Mof_C 	C 	0.2174	0.7034	0.5976	-0.144
Mof_C 	C 	0.1492	0.7745	0.6095	0.079
Mof_C 	C 	0.7884	0.173	0.5452	0.32
Mof_C 	C 	0.8972	0.1549	0.5111	-0.083
Mof_C 	C 	0.9601	0.1056	0.4536	0.009
Mof_C 	C 	0.0605	0.0922	0.4224	-0.08
Mof_C 	C 	0.9355	0.1917	0.5385	0.008
Mof_C 	C 	0.035	0.1786	0.5078	-0.077
Mof_C 	C 	0.0996	0.1283	0.4497	0.017
Mof_C 	C 	0.2054	0.1171	0.4179	0.074
Mof_C 	C 	0.281	0.04762	0.39578	-0.141
Mof_C 	C 	0.3786	0.04	0.37	0.075
Mof_C 	C 	0.2355	0.1756	0.408	-0.15
Mof_C 	C 	0.3342	0.1636	0.3812	0.091
Mof_C 	C 	0.4826	0.1271	0.6161	0.33
Mof_C 	C 	0.4029	0.1026	0.6226	-0.109
Mof_C 	C 	0.3479	0.0818	0.6918	0.026
Mof_C 	C 	0.2723	0.06	0.7	-0.102
Mof_C 	C 	0.3825	0.1001	0.5617	0.036
Mof_C 	C 	0.3063	0.0779	0.5703	-0.11
Mof_C 	C 	0.2515	0.0569	0.6387	0.031
Mof_C 	C 	0.17203	0.03142	0.64652	0.07
Mof_C 	C 	0.0848	0.0487	0.7079	-0.149
Mof_C 	C 	0.0153	0.0203	0.7141	0.082
Mof_C 	C 	0.184	0.9886	0.5918	-0.141
Mof_C 	C 	0.1108	0.9631	0.6015	0.075
Mof_C 	C 	0.6044	0.1779	0.7523	0.317
Mof_C 	C 	0.6011	0.1639	0.8295	-0.097
Mof_C 	C 	0.6642	0.0985	0.8491	0.031
Mof_C 	C 	0.6588	0.0856	0.9214	-0.106
Mof_C 	C 	0.5319	0.216	0.884	0.026
Mof_C 	C 	0.5244	0.2026	0.9572	-0.104
Mof_C 	C 	0.5885	0.1373	0.9759	0.032
Mof_C 	C 	0.5816	0.1236	0.0538	0.071
Mof_C 	C 	0.665	0.1	0.0722	-0.155
Mof_C 	C 	0.6544	0.0887	0.1455	0.086
Mof_C 	C 	0.4922	0.1349	0.1123	-0.143
Mof_C 	C 	0.4891	0.121	0.1834	0.083
Mof_C 	C 	0.4114	0.6589	0.3925	0.333
Mof_C 	C 	0.4356	0.5785	0.3825	-0.106
Mof_C 	C 	0.5055	0.5246	0.4036	0.037
Mof_C 	C 	0.5281	0.4504	0.3926	-0.107
Mof_C 	C 	0.3903	0.5584	0.3472	0.033
Mof_C 	C 	0.4133	0.4849	0.3359	-0.106
Mof_C 	C 	0.4819	0.4291	0.3597	0.038
Mof_C 	C 	0.5067	0.3501	0.3473	0.068
Mof_C 	C 	0.5139	0.3255	0.2823	-0.145
Mof_C 	C 	0.5296	0.2533	0.2759	0.091
Mof_C 	C 	0.5184	0.2966	0.4024	-0.144
Mof_C 	C 	0.5332	0.2255	0.3905	0.079
Mof_C 	C 	0.5066	0.827	0.4548	0.323
Mof_C 	C 	0.5632	0.8451	0.4889	-0.09
Mof_C 	C 	0.5193	0.8944	0.5464	0.02
Mof_C 	C 	0.5751	0.9078	0.5776	-0.09
Mof_C 	C 	0.6657	0.8083	0.4615	0.019
Mof_C 	C 	0.7214	0.8214	0.4922	-0.088
Mof_C 	C 	0.6776	0.8717	0.5503	0.024
Mof_C 	C 	0.7404	0.8829	0.5821	0.069
Mof_C 	C 	0.7244	0.95238	0.60422	-0.138
Mof_C 	C 	0.7886	0.96	0.63	0.071
Mof_C 	C 	0.8191	0.8244	0.592	-0.147
Mof_C 	C 	0.879	0.8364	0.6188	0.089
Mof_C 	C 	0.2258	0.8729	0.3839	0.33
Mof_C 	C 	0.1281	0.8974	0.3774	-0.111
Mof_C 	C 	0.1215	0.9182	0.3082	0.025
Mof_C 	C 	0.0323	0.94	0.3	-0.095
Mof_C 	C 	0.0443	0.8999	0.4383	0.044
Mof_C 	C 	0.9545	0.9221	0.4297	-0.118
Mof_C 	C 	0.9471	0.9431	0.3613	0.028
Mof_C 	C 	0.84997	0.96858	0.35348	0.07
Mof_C 	C 	0.8414	0.9513	0.2921	-0.148
Mof_C 	C 	0.7497	0.9797	0.2859	0.079
Mof_C 	C 	0.7644	0.0114	0.4082	-0.14
Mof_C 	C 	0.6754	0.0369	0.3985	0.074
Mof_C 	C 	0.5346	0.8221	0.2477	0.317
Mof_C 	C 	0.5945	0.8361	0.1705	-0.097
Mof_C 	C 	0.6118	0.9015	0.1509	0.031
Mof_C 	C 	0.6658	0.9144	0.0786	-0.105
Mof_C 	C 	0.6319	0.784	0.116	0.025
Mof_C 	C 	0.6842	0.7974	0.0428	-0.103
Mof_C 	C 	0.7017	0.8627	0.0241	0.031
Mof_C 	C 	0.759	0.8764	0.9462	0.071
Mof_C 	C 	0.8372	0.9	0.9278	-0.156
Mof_C 	C 	0.8886	0.9113	0.8545	0.086
Mof_C 	C 	0.7394	0.8651	0.8877	-0.143
Mof_C 	C 	0.7935	0.879	0.8166	0.083
Mof_N 	N 	0.06974	0.79804	0.67188	-0.225
Mof_N 	N 	0.40652	0.0978	0.36316	-0.246
Mof_N 	N 	0.02753	0.97697	0.66257	-0.245
Mof_N 	N 	0.56879	0.09744	0.20198	-0.239
Mof_N 	N 	0.53966	0.20196	0.32812	-0.226
Mof_N 	N 	0.86748	0.9022	0.63684	-0.246
Mof_N 	N 	0.66707	0.02303	0.33743	-0.246
Mof_N 	N 	0.86821	0.90256	0.79802	-0.239
Mof_O 	O 	0.4286	0.2931	0.6403	-0.416
Mof_O 	O 	0.5532	0.32239	0.56781	-0.435
Mof_O 	O 	0.73486	0.22554	0.59034	-0.419
Mof_O 	O 	0.74998	0.13672	0.52772	-0.431
Mof_O 	O 	0.53339	0.14749	0.55473	-0.43
Mof_O 	O 	0.4991	0.12732	0.67288	-0.432
Mof_O 	O 	0.66031	0.12617	0.70401	-0.41
Mof_O 	O 	0.55009	0.2397	0.73552	-0.427
Mof_O 	O 	0.362	0.7069	0.3597	-0.416
Mof_O 	O 	0.4434	0.67761	0.43219	-0.435
Mof_O 	O 	0.55074	0.77446	0.40966	-0.42
Mof_O 	O 	0.41442	0.86328	0.47228	-0.431
Mof_O 	O 	0.23561	0.85251	0.44527	-0.43
Mof_O 	O 	0.2993	0.87268	0.32712	-0.432
Mof_O 	O 	0.49049	0.87383	0.29599	-0.41
Mof_O 	O 	0.52531	0.7603	0.26448	-0.427
_end
