data_functionalizedCrystal
_audit_creation_method	'EQeq! by Chris Wilmer'
_symmetry_space_group_name_H-M	'P1'
_symmetry_Int_Tables_number	1
_symmetry_cell_setting	triclinic
loop_
_symmetry_equiv_pos_as_xyz
  x,y,z
_cell_length_a	18.3148
_cell_length_b	9.4506
_cell_length_c	19.0993
_cell_angle_alpha	90
_cell_angle_beta	106.091
_cell_angle_gamma	90
loop_
_atom_site_label
_atom_site_type_symbol
_atom_site_fract_x
_atom_site_fract_y
_atom_site_fract_z
_atom_site_charge
Mof_Cd	Cd	0.28466	0.55853	0.44455	0.505
Mof_C 	C 	0.38004	0.0863	0.09308	0.398
Mof_C 	C 	0.37959	0.1515	0.16475	-0.21
Mof_C 	C 	0.3113	0.1968	0.17503	0.206
Mof_C 	C 	0.30833	0.2588	0.23933	0.177
Mof_C 	C 	0.37517	0.2766	0.29588	-0.205
Mof_C 	C 	0.44361	0.2298	0.28643	0.198
Mof_C 	C 	0.446	0.1685	0.22102	0.186
Mof_C 	C 	0.37394	0.3454	0.36714	0.397
Mof_C 	C 	0.39483	0.7701	0.48272	0.323
Mof_C 	C 	0.44883	0.8888	0.49195	-0.137
Mof_C 	C 	0.44818	0.999	0.54148	0.276
Mof_C 	C 	0.49936	0.1096	0.54875	-0.133
Mof_H 	H 	0.4989	0.183	0.5811	0.122
Mof_C 	C 	0.0243	0.3932	0.46275	-0.099
Mof_H 	H 	0.0409	0.3213	0.4376	0.122
Mof_C 	C 	0.04346	0.623	0.51924	0.262
Mof_C 	C 	0.06726	0.5133	0.48135	-0.103
Mof_C 	C 	0.14167	0.5274	0.46053	0.325
Mof_O 	O 	0.44388	0.046	0.08779	-0.317
Mof_O 	O 	0.31834	0.0734	0.04595	-0.318
Mof_O 	O 	0.51618	0.1272	0.21771	-0.36
Mof_H 	H 	0.5129	0.0918	0.1778	0.272
Mof_O 	O 	0.23926	0.3053	0.2443	-0.353
Mof_H 	H 	0.2444	0.3433	0.284	0.28
Mof_O 	O 	0.31091	0.3941	0.36955	-0.305
Mof_O 	O 	0.43353	0.34829	0.41667	-0.319
Mof_O 	O 	0.40476	0.66037	0.44812	-0.291
Mof_O 	O 	0.33763	0.77862	0.50729	-0.264
Mof_O 	O 	0.39793	0.0023	0.58279	-0.425
Mof_H 	H 	0.3676	0.937	0.5708	0.309
Mof_O 	O 	0.17904	0.6382	0.47807	-0.279
Mof_O 	O 	0.16367	0.43	0.42796	-0.243
Mof_O 	O 	0.08233	0.7433	0.5367	-0.409
Mof_H 	H 	0.121	0.7397	0.5231	0.3
Mof_O 	O 	0.2449	0.1769	0.1269	-0.378
Mof_H 	H 	0.2513	0.1392	0.0904	0.285
Mof_O 	O 	0.511	0.2543	0.3318	-0.372
Mof_H 	H 	0.5059	0.2891	0.3695	0.273
Mof_Cd	Cd	0.71534	0.05853	0.05545	0.485
Mof_C 	C 	0.61996	0.5863	0.40692	0.397
Mof_C 	C 	0.62041	0.6515	0.33525	-0.208
Mof_C 	C 	0.6887	0.6968	0.32497	0.207
Mof_C 	C 	0.69167	0.7588	0.26067	0.177
Mof_C 	C 	0.62483	0.7766	0.20412	-0.204
Mof_C 	C 	0.55639	0.7298	0.21357	0.198
Mof_C 	C 	0.554	0.6685	0.27898	0.187
Mof_C 	C 	0.62606	0.8454	0.13286	0.397
Mof_C 	C 	0.60517	0.2701	0.01728	0.303
Mof_C 	C 	0.55117	0.3888	0.00805	-0.133
Mof_C 	C 	0.55182	0.499	0.95852	0.262
Mof_C 	C 	0.50064	0.6096	0.95125	-0.111
Mof_H 	H 	0.5011	0.683	0.9189	0.117
Mof_C 	C 	0.9757	0.8932	0.03725	-0.06
Mof_H 	H 	0.9591	0.8213	0.0624	0.109
Mof_C 	C 	0.95654	0.123	0.98076	0.293
Mof_C 	C 	0.93274	0.0133	0.01865	-0.148
Mof_C 	C 	0.85833	0.0274	0.03947	0.321
Mof_O 	O 	0.55612	0.546	0.41221	-0.312
Mof_O 	O 	0.68166	0.5734	0.45405	-0.308
Mof_O 	O 	0.48382	0.6272	0.28229	-0.357
Mof_H 	H 	0.4871	0.5918	0.3222	0.273
Mof_O 	O 	0.76074	0.8053	0.2557	-0.351
Mof_H 	H 	0.7556	0.8433	0.216	0.281
Mof_O 	O 	0.68909	0.8941	0.13045	-0.3
Mof_O 	O 	0.56647	0.84829	0.08333	-0.316
Mof_O 	O 	0.59524	0.16037	0.05188	-0.289
Mof_O 	O 	0.66237	0.27862	0.99271	-0.248
Mof_O 	O 	0.60207	0.5023	0.91721	-0.404
Mof_H 	H 	0.6324	0.437	0.9292	0.298
Mof_O 	O 	0.82096	0.1382	0.02193	-0.288
Mof_O 	O 	0.83633	0.93	0.07204	-0.234
Mof_O 	O 	0.91767	0.2433	0.9633	-0.421
Mof_H 	H 	0.879	0.2397	0.9769	0.309
Mof_O 	O 	0.7551	0.6769	0.3731	-0.375
Mof_H 	H 	0.7487	0.6392	0.4096	0.288
Mof_O 	O 	0.489	0.7543	0.1682	-0.37
Mof_H 	H 	0.4941	0.7891	0.1305	0.273
Mof_Cd	Cd	0.71534	0.44147	0.55545	0.503
Mof_C 	C 	0.61996	0.9137	0.90692	0.394
Mof_C 	C 	0.62041	0.8485	0.83525	-0.205
Mof_C 	C 	0.6887	0.8032	0.82497	0.206
Mof_C 	C 	0.69167	0.7412	0.76067	0.179
Mof_C 	C 	0.62483	0.7234	0.70412	-0.205
Mof_C 	C 	0.55639	0.7702	0.71357	0.2
Mof_C 	C 	0.554	0.8315	0.77898	0.186
Mof_C 	C 	0.62606	0.6546	0.63286	0.398
Mof_C 	C 	0.60517	0.2299	0.51728	0.305
Mof_C 	C 	0.55117	0.1112	0.50805	-0.089
Mof_C 	C 	0.55182	0.001	0.45852	0.2
Mof_C 	C 	0.50064	0.8904	0.45125	-0.059
Mof_H 	H 	0.5011	0.817	0.4189	0.098
Mof_C 	C 	0.9757	0.6068	0.53725	-0.111
Mof_H 	H 	0.9591	0.6787	0.5624	0.127
Mof_C 	C 	0.95654	0.377	0.48076	0.252
Mof_C 	C 	0.93274	0.4867	0.51865	-0.096
Mof_C 	C 	0.85833	0.4726	0.53947	0.323
Mof_O 	O 	0.55612	0.954	0.91221	-0.303
Mof_O 	O 	0.68166	0.9266	0.95405	-0.297
Mof_O 	O 	0.48382	0.8728	0.78229	-0.356
Mof_H 	H 	0.4871	0.9082	0.8222	0.274
Mof_O 	O 	0.76074	0.6947	0.7557	-0.351
Mof_H 	H 	0.7556	0.6567	0.716	0.28
Mof_O 	O 	0.68909	0.6059	0.63045	-0.304
Mof_O 	O 	0.56647	0.65171	0.58333	-0.319
Mof_O 	O 	0.59524	0.33963	0.55188	-0.287
Mof_O 	O 	0.66237	0.22138	0.49271	-0.259
Mof_O 	O 	0.60207	0.9977	0.41721	-0.368
Mof_H 	H 	0.6324	0.063	0.4292	0.277
Mof_O 	O 	0.82096	0.3618	0.52193	-0.28
Mof_O 	O 	0.83633	0.57	0.57204	-0.241
Mof_O 	O 	0.91767	0.2567	0.4633	-0.411
Mof_H 	H 	0.879	0.2603	0.4769	0.298
Mof_O 	O 	0.7551	0.8231	0.8731	-0.373
Mof_H 	H 	0.7487	0.8608	0.9096	0.29
Mof_O 	O 	0.489	0.7457	0.6682	-0.37
Mof_H 	H 	0.4941	0.7109	0.6305	0.273
Mof_Cd	Cd	0.28466	0.94147	0.94455	0.518
Mof_C 	C 	0.38004	0.4137	0.59308	0.397
Mof_C 	C 	0.37959	0.3485	0.66475	-0.208
Mof_C 	C 	0.3113	0.3032	0.67503	0.207
Mof_C 	C 	0.30833	0.2412	0.73933	0.177
Mof_C 	C 	0.37517	0.2234	0.79588	-0.205
Mof_C 	C 	0.44361	0.2702	0.78643	0.199
Mof_C 	C 	0.446	0.3315	0.72102	0.186
Mof_C 	C 	0.37394	0.1546	0.86714	0.396
Mof_C 	C 	0.39483	0.7299	0.98272	0.322
Mof_C 	C 	0.44883	0.6112	0.99195	-0.092
Mof_C 	C 	0.44818	0.501	0.04148	0.218
Mof_C 	C 	0.49936	0.3904	0.04875	-0.083
Mof_H 	H 	0.4989	0.317	0.0811	0.105
Mof_C 	C 	0.0243	0.1068	0.96275	-0.135
Mof_H 	H 	0.0409	0.1787	0.9376	0.137
Mof_C 	C 	0.04346	0.877	0.01924	0.222
Mof_C 	C 	0.06726	0.9867	0.98135	-0.063
Mof_C 	C 	0.14167	0.9726	0.96053	0.32
Mof_O 	O 	0.44388	0.454	0.58779	-0.313
Mof_O 	O 	0.31834	0.4266	0.54595	-0.308
Mof_O 	O 	0.51618	0.3728	0.71771	-0.358
Mof_H 	H 	0.5129	0.4082	0.6778	0.272
Mof_O 	O 	0.23926	0.1947	0.7443	-0.352
Mof_H 	H 	0.2444	0.1567	0.784	0.28
Mof_O 	O 	0.31091	0.1059	0.86955	-0.304
Mof_O 	O 	0.43353	0.15171	0.91667	-0.312
Mof_O 	O 	0.40476	0.83963	0.94812	-0.283
Mof_O 	O 	0.33763	0.72138	0.00729	-0.272
Mof_O 	O 	0.39793	0.4977	0.08279	-0.393
Mof_H 	H 	0.3676	0.563	0.0708	0.291
Mof_O 	O 	0.17904	0.8618	0.97807	-0.27
Mof_O 	O 	0.16367	0.07	0.92796	-0.242
Mof_O 	O 	0.08233	0.7567	0.0367	-0.398
Mof_H 	H 	0.121	0.7603	0.0231	0.291
Mof_O 	O 	0.2449	0.3231	0.6269	-0.375
Mof_H 	H 	0.2513	0.3608	0.5904	0.288
Mof_O 	O 	0.511	0.2457	0.8318	-0.372
Mof_H 	H 	0.5059	0.2109	0.8695	0.274
Mof_Cd	Cd	0.5	0.5	0.5	0.524
Mof_Cd	Cd	0.5	0	-0	0.501
_end
