data_functionalizedCrystal
_audit_creation_method	'EQeq! by Chris Wilmer'
_symmetry_space_group_name_H-M	'P1'
_symmetry_Int_Tables_number	1
_symmetry_cell_setting	triclinic
loop_
_symmetry_equiv_pos_as_xyz
  x,y,z
_cell_length_a	9.8438
_cell_length_b	13.2067
_cell_length_c	16.4919
_cell_angle_alpha	81.1208
_cell_angle_beta	72.6358
_cell_angle_gamma	68.1188
loop_
_atom_site_label
_atom_site_type_symbol
_atom_site_fract_x
_atom_site_fract_y
_atom_site_fract_z
_atom_site_charge
Mof_Eu	Eu	0.58145	0.61809	0.42715	2.252
Mof_Eu	Eu	0.62669	0.88191	0.07285	2.228
Mof_Eu	Eu	0.41855	0.38191	0.57285	2.251
Mof_Eu	Eu	0.37331	0.11809	0.92715	2.226
Mof_Zn	Zn	0.32462	0.1104	0.31778	1.199
Mof_Zn	Zn	0.11411	0.1605	0.54572	1.158
Mof_Zn	Zn	0.7528	0.3896	0.18222	1.199
Mof_Zn	Zn	0.82033	0.3395	0.95428	1.158
Mof_Zn	Zn	0.67538	0.8896	0.68222	1.199
Mof_Zn	Zn	0.88589	0.8395	0.45428	1.159
Mof_Zn	Zn	0.2472	0.6104	0.81778	1.199
Mof_Zn	Zn	0.17967	0.6605	0.04572	1.157
Mof_C 	C 	0.4273	0.8974	0.4086	0.373
Mof_C 	C 	0.2687	0.9172	0.4118	-0.082
Mof_C 	C 	0.1743	0.8567	0.4399	-0.074
Mof_C 	C 	0.1913	0.7457	0.4803	0.383
Mof_C 	C 	0.0515	0.0136	0.3874	0.064
Mof_C 	C 	0.5519	0.4242	0.3574	0.379
Mof_C 	C 	0.52985	0.3324	0.3281	-0.071
Mof_C 	C 	0.43324	0.27282	0.3583	-0.076
Mof_C 	C 	0.3145	0.2703	0.4377	0.416
Mof_C 	C 	0.5695	0.2213	0.2331	0.083
Mof_C 	C 	0.7333	0.6026	0.0914	0.372
Mof_C 	C 	0.5977	0.5828	0.0882	-0.083
Mof_C 	C 	0.4709	0.6433	0.0601	-0.071
Mof_C 	C 	0.4173	0.7543	0.0197	0.374
Mof_C 	C 	0.4525	0.4864	0.1126	0.072
Mof_C 	C 	0.3335	0.0758	0.1426	0.377
Mof_C 	C 	0.19035	0.1676	0.1719	-0.07
Mof_C 	C 	0.06436	0.22718	0.1417	-0.078
Mof_C 	C 	0.0225	0.2297	0.0623	0.41
Mof_C 	C 	0.0239	0.2787	0.2669	0.075
Mof_C 	C 	0.5727	0.1026	0.5914	0.373
Mof_C 	C 	0.7313	0.0828	0.5882	-0.082
Mof_C 	C 	0.8257	0.1433	0.5601	-0.073
Mof_C 	C 	0.8087	0.2543	0.5197	0.383
Mof_C 	C 	0.9485	0.9864	0.6126	0.048
Mof_C 	C 	0.4481	0.5758	0.6426	0.379
Mof_C 	C 	0.47015	0.6676	0.6719	-0.072
Mof_C 	C 	0.56676	0.72718	0.6417	-0.076
Mof_C 	C 	0.6855	0.7297	0.5623	0.416
Mof_C 	C 	0.4305	0.7787	0.7669	0.082
Mof_C 	C 	0.2667	0.3974	0.9086	0.372
Mof_C 	C 	0.4023	0.4172	0.9118	-0.083
Mof_C 	C 	0.5291	0.3567	0.9399	-0.071
Mof_C 	C 	0.5827	0.2457	0.9803	0.374
Mof_C 	C 	0.5475	0.5136	0.8874	0.072
Mof_C 	C 	0.6665	0.9242	0.8574	0.377
Mof_C 	C 	0.80965	0.8324	0.8281	-0.07
Mof_C 	C 	0.93564	0.77282	0.8583	-0.077
Mof_C 	C 	0.9775	0.7703	0.9377	0.412
Mof_C 	C 	0.9761	0.7213	0.7331	0.078
Mof_C 	C 	0.6853	0.75	0.25	0.277
Mof_C 	C 	0.5271	0.75	0.25	0.276
Mof_C 	C 	0.3147	0.25	0.75	0.278
Mof_C 	C 	0.4729	0.25	0.75	0.276
Mof_N 	N 	0.19043	0.01594	0.3788	-0.249
Mof_N 	N 	0.03654	0.91832	0.4242	-0.269
Mof_N 	N 	0.6173	0.2977	0.2485	-0.242
Mof_N 	N 	0.45964	0.20352	0.2974	-0.241
Mof_N 	N 	0.58517	0.48406	0.1212	-0.25
Mof_N 	N 	0.37906	0.58168	0.0758	-0.272
Mof_N 	N 	0.1635	0.2023	0.2515	-0.242
Mof_N 	N 	0.96056	0.29648	0.2026	-0.237
Mof_N 	N 	0.80957	0.98406	0.6212	-0.246
Mof_N 	N 	0.96346	0.08168	0.5758	-0.267
Mof_N 	N 	0.3827	0.7023	0.7515	-0.242
Mof_N 	N 	0.54036	0.79648	0.7026	-0.241
Mof_N 	N 	0.41483	0.51594	0.8788	-0.249
Mof_N 	N 	0.62094	0.41832	0.9242	-0.272
Mof_N 	N 	0.8365	0.7977	0.7485	-0.242
Mof_N 	N 	0.03944	0.70352	0.7974	-0.24
Mof_O 	O 	0.47806	0.97228	0.372	-0.458
Mof_O 	O 	0.50565	0.8104	0.4395	-0.509
Mof_O 	O 	0.31586	0.68178	0.4913	-0.524
Mof_O 	O 	0.07269	0.72112	0.5019	-0.46
Mof_O 	O 	0.64692	0.46344	0.30852	-0.539
Mof_O 	O 	0.47528	0.46482	0.42962	-0.634
Mof_O 	O 	0.27794	0.33388	0.49524	-0.552
Mof_O 	O 	0.25351	0.1991	0.44128	-0.615
Mof_O 	O 	0.74499	0.68894	0.30548	-0.488
Mof_O 	O 	0.46778	0.69593	0.30891	-0.457
Mof_O 	O 	0.82234	0.52772	0.128	-0.456
Mof_O 	O 	0.75555	0.6896	0.0605	-0.508
Mof_O 	O 	0.48894	0.81822	0.0087	-0.523
Mof_O 	O 	0.29571	0.77888	0.9981	-0.451
Mof_O 	O 	0.41888	0.03656	0.19148	-0.535
Mof_O 	O 	0.36972	0.03518	0.07038	-0.624
Mof_O 	O 	0.10706	0.16612	0.00476	-0.545
Mof_O 	O 	0.89389	0.3009	0.05872	-0.609
Mof_O 	O 	0.73941	0.81106	0.19452	-0.488
Mof_O 	O 	0.47262	0.80407	0.19109	-0.456
Mof_O 	O 	0.52194	0.02772	0.628	-0.459
Mof_O 	O 	0.49435	0.1896	0.5605	-0.509
Mof_O 	O 	0.68414	0.31822	0.5087	-0.524
Mof_O 	O 	0.92731	0.27888	0.4981	-0.459
Mof_O 	O 	0.35308	0.53656	0.69148	-0.54
Mof_O 	O 	0.52472	0.53518	0.57038	-0.634
Mof_O 	O 	0.72206	0.66612	0.50476	-0.551
Mof_O 	O 	0.74649	0.8009	0.55872	-0.615
Mof_O 	O 	0.25501	0.31106	0.69452	-0.488
Mof_O 	O 	0.53222	0.30407	0.69109	-0.457
Mof_O 	O 	0.17766	0.47228	0.872	-0.457
Mof_O 	O 	0.24445	0.3104	0.9395	-0.508
Mof_O 	O 	0.51106	0.18178	0.9913	-0.523
Mof_O 	O 	0.70429	0.22112	0.0019	-0.451
Mof_O 	O 	0.58112	0.96344	0.80852	-0.535
Mof_O 	O 	0.63028	0.96482	0.92962	-0.624
Mof_O 	O 	0.89294	0.83388	0.99524	-0.545
Mof_O 	O 	0.10611	0.6991	0.94128	-0.611
Mof_O 	O 	0.26059	0.18894	0.80548	-0.488
Mof_O 	O 	0.52738	0.19593	0.80891	-0.456
Mof_H 	H 	0.96276	0.08716	0.36456	-0.021
Mof_H 	H 	0.62273	0.17938	0.17002	-0.022
Mof_H 	H 	0.41448	0.41284	0.13544	-0.026
Mof_H 	H 	0.97212	0.32062	0.32998	-0.021
Mof_H 	H 	0.37727	0.82062	0.82998	-0.022
Mof_H 	H 	0.58552	0.58716	0.86456	-0.026
Mof_H 	H 	0.02788	0.67938	0.67002	-0.023
_end
