data_functionalizedCrystal
_audit_creation_method	'EQeq! by Chris Wilmer'
_symmetry_space_group_name_H-M	'P1'
_symmetry_Int_Tables_number	1
_symmetry_cell_setting	triclinic
loop_
_symmetry_equiv_pos_as_xyz
  x,y,z
_cell_length_a	16.842
_cell_length_b	16.835
_cell_length_c	20.258
_cell_angle_alpha	90
_cell_angle_beta	90
_cell_angle_gamma	90
loop_
_atom_site_label
_atom_site_type_symbol
_atom_site_fract_x
_atom_site_fract_y
_atom_site_fract_z
_atom_site_charge
Mof_Co	Co	0.14628	0.69805	0.5007	1.132
Mof_Co	Co	0.05003	0.61359	0.75985	1.134
Mof_Co	Co	0.13006	0.74491	0.00155	1.158
Mof_Co	Co	0.03779	0.63205	0.24236	1.157
Mof_N 	N 	0.0826	0.8038	0.5167	-0.24
Mof_N 	N 	0.015	0.9161	0.49	-0.223
Mof_H 	H 	0.9919	0.9515	0.4654	0.166
Mof_N 	N 	0.9955	0.9994	0.7259	-0.241
Mof_N 	N 	0.0526	0.8811	0.7545	-0.218
Mof_H 	H 	0.0708	0.8432	0.7794	0.163
Mof_N 	N 	0.9515	0.6818	0.7811	-0.245
Mof_N 	N 	0.8405	0.7476	0.7552	-0.231
Mof_H 	H 	0.8048	0.7714	0.7313	0.176
Mof_N 	N 	0.7402	0.7217	0.987	-0.276
Mof_N 	N 	0.856	0.6673	0.0149	-0.232
Mof_H 	H 	0.8923	0.6459	0.0397	0.169
Mof_N 	N 	0.9469	0.7066	0.2572	-0.27
Mof_N 	N 	0.8321	0.7614	0.2348	-0.23
Mof_H 	H 	0.7932	0.7811	0.2118	0.166
Mof_N 	N 	0.7625	0.7695	0.4756	-0.25
Mof_N 	N 	0.8809	0.7163	0.4979	-0.22
Mof_H 	H 	0.92	0.6964	0.5206	0.165
Mof_N 	N 	0.9985	0.5201	0.2539	-0.258
Mof_N 	N 	0.9311	0.4096	0.2347	-0.227
Mof_H 	H 	0.9058	0.3729	0.213	0.164
Mof_N 	N 	0.9423	0.3306	0.4735	-0.269
Mof_N 	N 	0.0113	0.4412	0.4914	-0.215
Mof_H 	H 	0.0377	0.477	0.5132	0.158
Mof_C 	C 	0.0512	0.8467	0.4692	0.116
Mof_H 	H 	0.0532	0.8315	0.4246	0.003
Mof_C 	C 	0.0213	0.9522	0.7755	0.101
Mof_H 	H 	0.0182	0.9667	0.8202	0.01
Mof_C 	C 	0.9089	0.7208	0.7339	0.13
Mof_H 	H 	0.9269	0.7277	0.6904	0.003
Mof_C 	C 	0.7847	0.6907	0.0337	0.143
Mof_H 	H 	0.767	0.6856	0.0775	-0.013
Mof_C 	C 	0.8981	0.7323	0.2107	0.136
Mof_H 	H 	0.9096	0.7299	0.1654	-0.014
Mof_C 	C 	0.8118	0.7443	0.5228	0.11
Mof_H 	H 	0.7999	0.7459	0.5681	0
Mof_C 	C 	0.9574	0.4769	0.209	0.124
Mof_H 	H 	0.9486	0.4928	0.1651	-0.009
Mof_C 	C 	0.9766	0.3739	0.5189	0.114
Mof_H 	H 	0.9777	0.3613	0.5641	0.001
Mof_C 	C 	0.0232	0.9178	0.5581	0.094
Mof_C 	C 	0.0621	0.8449	0.5754	0.066
Mof_C 	C 	0.0759	0.8262	0.6411	-0.157
Mof_H 	H 	0.1014	0.7791	0.654	0.094
Mof_C 	C 	0.0495	0.8817	0.6859	0.102
Mof_C 	C 	0.0133	0.9544	0.6684	0.055
Mof_C 	C 	0.9953	0.9731	0.6031	-0.144
Mof_H 	H 	0.9669	0.0189	0.5907	0.094
Mof_C 	C 	0.8348	0.732	0.8209	0.106
Mof_C 	C 	0.9068	0.6922	0.8373	0.069
Mof_C 	C 	0.9223	0.6718	0.9024	-0.159
Mof_H 	H 	0.9717	0.6509	0.9154	0.087
Mof_C 	C 	0.8618	0.6837	0.9471	0.095
Mof_C 	C 	0.7879	0.7202	0.9297	0.061
Mof_C 	C 	0.7734	0.7469	0.8662	-0.16
Mof_H 	H 	0.7262	0.7729	0.8543	0.092
Mof_C 	C 	0.8345	0.7556	0.3036	0.102
Mof_C 	C 	0.9084	0.719	0.3172	0.053
Mof_C 	C 	0.9324	0.7053	0.382	-0.151
Mof_H 	H 	0.9825	0.684	0.3924	0.072
Mof_C 	C 	0.8781	0.725	0.4297	0.092
Mof_C 	C 	0.8025	0.7608	0.4159	0.078
Mof_C 	C 	0.7801	0.7772	0.3525	-0.164
Mof_H 	H 	0.7313	0.8014	0.3424	0.096
Mof_C 	C 	0.9922	0.4774	0.3141	0.06
Mof_C 	C 	0.9495	0.406	0.3005	0.1
Mof_C 	C 	0.9293	0.3493	0.3479	-0.155
Mof_H 	H 	0.8999	0.3031	0.3387	0.077
Mof_C 	C 	0.9577	0.3691	0.411	0.049
Mof_C 	C 	0.9972	0.4425	0.4239	0.1
Mof_C 	C 	0.0181	0.4959	0.3763	-0.16
Mof_H 	H 	0.048	0.5417	0.3855	0.082
Mof_S 	S 	0.05316	0.60506	0.59898	0.672
Mof_S 	S 	0.14197	0.70217	0.85309	0.649
Mof_S 	S 	0.1641	0.70492	0.33603	0.696
Mof_S 	S 	0.06397	0.60658	0.09428	0.678
Mof_O 	O 	0.1263	0.6535	0.5928	-0.479
Mof_O 	O 	0.016	0.6233	0.6626	-0.454
Mof_O 	O 	0.0011	0.6262	0.5439	-0.362
Mof_O 	O 	0.0718	0.518	0.5973	-0.315
Mof_O 	O 	0.0989	0.6237	0.8564	-0.44
Mof_O 	O 	0.1114	0.7567	0.9054	-0.455
Mof_O 	O 	0.1265	0.7385	0.7888	-0.384
Mof_O 	O 	0.2259	0.6894	0.8632	-0.324
Mof_O 	O 	0.113	0.6424	0.0401	-0.474
Mof_O 	O 	0.0944	0.6395	0.1581	-0.478
Mof_O 	O 	0.0752	0.5198	0.0935	-0.303
Mof_O 	O 	0.9799	0.6291	0.0916	-0.357
Mof_O 	O 	0.1125	0.6365	0.3139	-0.486
Mof_O 	O 	0.1392	0.7292	0.4033	-0.472
Mof_O 	O 	0.2471	0.6805	0.3364	-0.322
Mof_O 	O 	0.1526	0.7717	0.2901	-0.334
Mof_Co	Co	0.35372	0.30195	0.0007	1.133
Mof_Co	Co	0.44997	0.38641	0.25985	1.134
Mof_Co	Co	0.36994	0.25509	0.50155	1.16
Mof_Co	Co	0.46221	0.36795	0.74236	1.157
Mof_N 	N 	0.4174	0.1962	0.0167	-0.24
Mof_N 	N 	0.485	0.0839	0.99	-0.221
Mof_H 	H 	0.5081	0.0485	0.9654	0.164
Mof_N 	N 	0.5045	0.0006	0.2259	-0.244
Mof_N 	N 	0.4474	0.1189	0.2545	-0.218
Mof_H 	H 	0.4292	0.1568	0.2794	0.163
Mof_N 	N 	0.5485	0.3182	0.2811	-0.245
Mof_N 	N 	0.6595	0.2524	0.2552	-0.231
Mof_H 	H 	0.6952	0.2286	0.2313	0.176
Mof_N 	N 	0.7598	0.2783	0.487	-0.275
Mof_N 	N 	0.644	0.3327	0.5149	-0.233
Mof_H 	H 	0.6077	0.3541	0.5397	0.169
Mof_N 	N 	0.5531	0.2934	0.7572	-0.27
Mof_N 	N 	0.6679	0.2386	0.7348	-0.23
Mof_H 	H 	0.7068	0.2189	0.7118	0.166
Mof_N 	N 	0.7375	0.2305	0.9756	-0.251
Mof_N 	N 	0.6191	0.2837	0.9979	-0.221
Mof_H 	H 	0.58	0.3036	0.0206	0.165
Mof_N 	N 	0.5015	0.4799	0.7539	-0.259
Mof_N 	N 	0.5689	0.5904	0.7347	-0.227
Mof_H 	H 	0.5942	0.6271	0.713	0.164
Mof_N 	N 	0.5577	0.6694	0.9735	-0.268
Mof_N 	N 	0.4887	0.5588	0.9914	-0.216
Mof_H 	H 	0.4623	0.523	0.0132	0.158
Mof_C 	C 	0.4488	0.1533	0.9692	0.116
Mof_H 	H 	0.4468	0.1685	0.9246	0.003
Mof_C 	C 	0.4787	0.0478	0.2755	0.103
Mof_H 	H 	0.4818	0.0333	0.3202	0.009
Mof_C 	C 	0.5911	0.2792	0.2339	0.129
Mof_H 	H 	0.5731	0.2723	0.1904	0.003
Mof_C 	C 	0.7153	0.3093	0.5337	0.141
Mof_H 	H 	0.733	0.3144	0.5775	-0.012
Mof_C 	C 	0.6019	0.2677	0.7107	0.135
Mof_H 	H 	0.5904	0.2701	0.6654	-0.014
Mof_C 	C 	0.6882	0.2557	0.0228	0.112
Mof_H 	H 	0.7001	0.2541	0.0681	-0
Mof_C 	C 	0.5426	0.5231	0.709	0.124
Mof_H 	H 	0.5514	0.5072	0.6651	-0.009
Mof_C 	C 	0.5234	0.6261	0.0189	0.115
Mof_H 	H 	0.5223	0.6387	0.0641	0.001
Mof_C 	C 	0.4768	0.0822	0.0581	0.101
Mof_C 	C 	0.4379	0.1551	0.0754	0.063
Mof_C 	C 	0.4241	0.1738	0.1411	-0.154
Mof_H 	H 	0.3986	0.2209	0.154	0.093
Mof_C 	C 	0.4505	0.1183	0.1859	0.098
Mof_C 	C 	0.4867	0.0456	0.1684	0.064
Mof_C 	C 	0.5047	0.0269	0.1031	-0.158
Mof_H 	H 	0.5331	0.9811	0.0907	0.101
Mof_C 	C 	0.6652	0.268	0.3209	0.105
Mof_C 	C 	0.5932	0.3078	0.3373	0.07
Mof_C 	C 	0.5777	0.3282	0.4024	-0.159
Mof_H 	H 	0.5283	0.3491	0.4154	0.088
Mof_C 	C 	0.6382	0.3163	0.4471	0.096
Mof_C 	C 	0.7121	0.2798	0.4297	0.06
Mof_C 	C 	0.7266	0.2531	0.3662	-0.159
Mof_H 	H 	0.7738	0.2271	0.3543	0.091
Mof_C 	C 	0.6655	0.2444	0.8036	0.101
Mof_C 	C 	0.5916	0.281	0.8172	0.053
Mof_C 	C 	0.5676	0.2947	0.882	-0.151
Mof_H 	H 	0.5175	0.316	0.8924	0.072
Mof_C 	C 	0.6219	0.275	0.9297	0.092
Mof_C 	C 	0.6975	0.2392	0.9159	0.078
Mof_C 	C 	0.7199	0.2228	0.8525	-0.164
Mof_H 	H 	0.7687	0.1986	0.8424	0.096
Mof_C 	C 	0.5078	0.5226	0.8141	0.061
Mof_C 	C 	0.5505	0.594	0.8005	0.1
Mof_C 	C 	0.5707	0.6507	0.8479	-0.154
Mof_H 	H 	0.6001	0.6969	0.8387	0.077
Mof_C 	C 	0.5423	0.6309	0.911	0.049
Mof_C 	C 	0.5028	0.5575	0.9239	0.103
Mof_C 	C 	0.4819	0.5041	0.8763	-0.163
Mof_H 	H 	0.452	0.4583	0.8855	0.083
Mof_S 	S 	0.44684	0.39494	0.09898	0.672
Mof_S 	S 	0.35803	0.29783	0.35309	0.649
Mof_S 	S 	0.3359	0.29508	0.83603	0.696
Mof_S 	S 	0.43603	0.39342	0.59428	0.681
Mof_O 	O 	0.3737	0.3465	0.0928	-0.479
Mof_O 	O 	0.484	0.3767	0.1626	-0.454
Mof_O 	O 	0.4989	0.3738	0.0439	-0.362
Mof_O 	O 	0.4282	0.482	0.0973	-0.316
Mof_O 	O 	0.4011	0.3763	0.3564	-0.441
Mof_O 	O 	0.3886	0.2433	0.4054	-0.456
Mof_O 	O 	0.3735	0.2615	0.2888	-0.384
Mof_O 	O 	0.2741	0.3106	0.3632	-0.325
Mof_O 	O 	0.387	0.3576	0.5401	-0.474
Mof_O 	O 	0.4056	0.3605	0.6581	-0.478
Mof_O 	O 	0.4248	0.4802	0.5935	-0.304
Mof_O 	O 	0.5201	0.3709	0.5916	-0.359
Mof_O 	O 	0.3875	0.3635	0.8139	-0.485
Mof_O 	O 	0.3608	0.2708	0.9033	-0.471
Mof_O 	O 	0.2529	0.3195	0.8364	-0.322
Mof_O 	O 	0.3474	0.2283	0.7901	-0.334
Mof_Co	Co	0.85372	0.19805	0.9993	1.133
Mof_Co	Co	0.94997	0.11359	0.74015	1.133
Mof_Co	Co	0.86994	0.24491	0.49845	1.159
Mof_Co	Co	0.96221	0.13205	0.25764	1.156
Mof_N 	N 	0.9174	0.3038	0.9833	-0.241
Mof_N 	N 	0.985	0.4161	0.01	-0.218
Mof_H 	H 	0.0081	0.4515	0.0346	0.162
Mof_N 	N 	0.0045	0.4994	0.7741	-0.241
Mof_N 	N 	0.9474	0.3811	0.7455	-0.218
Mof_H 	H 	0.9292	0.3432	0.7206	0.162
Mof_N 	N 	0.0485	0.1818	0.7189	-0.243
Mof_N 	N 	0.1595	0.2476	0.7448	-0.231
Mof_H 	H 	0.1952	0.2714	0.7687	0.176
Mof_N 	N 	0.2598	0.2217	0.513	-0.275
Mof_N 	N 	0.144	0.1673	0.4851	-0.233
Mof_H 	H 	0.1077	0.1459	0.4603	0.17
Mof_N 	N 	0.0531	0.2066	0.2428	-0.27
Mof_N 	N 	0.1679	0.2614	0.2652	-0.23
Mof_H 	H 	0.2068	0.2811	0.2882	0.166
Mof_N 	N 	0.2375	0.2695	0.0244	-0.251
Mof_N 	N 	0.1191	0.2163	0.0021	-0.224
Mof_H 	H 	0.08	0.1964	0.9794	0.169
Mof_N 	N 	0.0015	0.0201	0.2461	-0.251
Mof_N 	N 	0.0689	0.9096	0.2653	-0.228
Mof_H 	H 	0.0942	0.8729	0.287	0.163
Mof_N 	N 	0.0577	0.8306	0.0265	-0.271
Mof_N 	N 	0.9887	0.9412	0.0086	-0.21
Mof_H 	H 	0.9623	0.977	0.9868	0.157
Mof_C 	C 	0.9488	0.3467	0.0308	0.118
Mof_H 	H 	0.9468	0.3315	0.0754	0.003
Mof_C 	C 	0.9787	0.4522	0.7245	0.1
Mof_H 	H 	0.9818	0.4667	0.6798	0.009
Mof_C 	C 	0.0911	0.2208	0.7661	0.13
Mof_H 	H 	0.0731	0.2277	0.8096	0.004
Mof_C 	C 	0.2153	0.1907	0.4663	0.142
Mof_H 	H 	0.233	0.1856	0.4225	-0.012
Mof_C 	C 	0.1019	0.2323	0.2893	0.136
Mof_H 	H 	0.0904	0.2299	0.3346	-0.014
Mof_C 	C 	0.1882	0.2443	0.9772	0.115
Mof_H 	H 	0.2001	0.2459	0.9319	-0.001
Mof_C 	C 	0.0426	0.9769	0.291	0.118
Mof_H 	H 	0.0514	0.9928	0.3349	-0.009
Mof_C 	C 	0.0234	0.8739	0.9811	0.118
Mof_H 	H 	0.0223	0.8613	0.9359	0.001
Mof_C 	C 	0.9768	0.4178	0.9419	0.092
Mof_C 	C 	0.9379	0.3449	0.9246	0.066
Mof_C 	C 	0.9241	0.3262	0.8589	-0.158
Mof_H 	H 	0.8986	0.2791	0.846	0.094
Mof_C 	C 	0.9505	0.3817	0.8141	0.101
Mof_C 	C 	0.9867	0.4544	0.8316	0.055
Mof_C 	C 	0.0047	0.4731	0.8969	-0.145
Mof_H 	H 	0.0331	0.5189	0.9093	0.099
Mof_C 	C 	0.1652	0.232	0.6791	0.105
Mof_C 	C 	0.0932	0.1922	0.6627	0.071
Mof_C 	C 	0.0777	0.1718	0.5976	-0.16
Mof_H 	H 	0.0283	0.1509	0.5846	0.09
Mof_C 	C 	0.1382	0.1837	0.5529	0.097
Mof_C 	C 	0.2121	0.2202	0.5703	0.06
Mof_C 	C 	0.2266	0.2469	0.6338	-0.159
Mof_H 	H 	0.2738	0.2729	0.6457	0.091
Mof_C 	C 	0.1655	0.2556	0.1964	0.101
Mof_C 	C 	0.0916	0.219	0.1828	0.054
Mof_C 	C 	0.0676	0.2053	0.118	-0.152
Mof_H 	H 	0.0175	0.184	0.1076	0.073
Mof_C 	C 	0.1219	0.225	0.0703	0.093
Mof_C 	C 	0.1975	0.2608	0.0841	0.078
Mof_C 	C 	0.2199	0.2772	0.1475	-0.163
Mof_H 	H 	0.2687	0.3014	0.1576	0.096
Mof_C 	C 	0.0078	0.9774	0.1859	0.043
Mof_C 	C 	0.0505	0.906	0.1995	0.107
Mof_C 	C 	0.0707	0.8493	0.1521	-0.161
Mof_H 	H 	0.1001	0.8031	0.1613	0.079
Mof_C 	C 	0.0423	0.8691	0.089	0.056
Mof_C 	C 	0.0028	0.9425	0.0761	0.083
Mof_C 	C 	0.9819	0.9959	0.1237	-0.134
Mof_H 	H 	0.952	0.0417	0.1145	0.072
Mof_S 	S 	0.94684	0.10506	0.90102	0.673
Mof_S 	S 	0.85803	0.20217	0.64691	0.649
Mof_S 	S 	0.8359	0.20492	0.16397	0.696
Mof_S 	S 	0.93603	0.10658	0.40572	0.676
Mof_O 	O 	0.8737	0.1535	0.9072	-0.48
Mof_O 	O 	0.984	0.1233	0.8374	-0.457
Mof_O 	O 	0.9989	0.1262	0.9561	-0.365
Mof_O 	O 	0.9282	0.018	0.9027	-0.318
Mof_O 	O 	0.9011	0.1237	0.6436	-0.443
Mof_O 	O 	0.8886	0.2567	0.5946	-0.457
Mof_O 	O 	0.8735	0.2385	0.7112	-0.385
Mof_O 	O 	0.7741	0.1894	0.6368	-0.325
Mof_O 	O 	0.887	0.1424	0.4599	-0.473
Mof_O 	O 	0.9056	0.1395	0.3419	-0.477
Mof_O 	O 	0.9248	0.0198	0.4065	-0.304
Mof_O 	O 	0.0201	0.1291	0.4084	-0.355
Mof_O 	O 	0.8875	0.1365	0.1861	-0.486
Mof_O 	O 	0.8608	0.2292	0.0967	-0.471
Mof_O 	O 	0.7529	0.1805	0.1636	-0.322
Mof_O 	O 	0.8474	0.2717	0.2099	-0.334
Mof_Co	Co	0.64628	0.80195	0.4993	1.133
Mof_Co	Co	0.55003	0.88641	0.24015	1.134
Mof_Co	Co	0.63006	0.75509	0.99845	1.16
Mof_Co	Co	0.53779	0.86795	0.75764	1.157
Mof_N 	N 	0.5826	0.6962	0.4833	-0.24
Mof_N 	N 	0.515	0.5839	0.51	-0.221
Mof_H 	H 	0.4919	0.5485	0.5346	0.164
Mof_N 	N 	0.4955	0.5006	0.2741	-0.244
Mof_N 	N 	0.5526	0.6189	0.2455	-0.218
Mof_H 	H 	0.5708	0.6568	0.2206	0.163
Mof_N 	N 	0.4515	0.8182	0.2189	-0.245
Mof_N 	N 	0.3405	0.7524	0.2448	-0.231
Mof_H 	H 	0.3048	0.7286	0.2687	0.176
Mof_N 	N 	0.2402	0.7783	0.013	-0.277
Mof_N 	N 	0.356	0.8327	0.9851	-0.232
Mof_H 	H 	0.3923	0.8541	0.9603	0.169
Mof_N 	N 	0.4469	0.7934	0.7428	-0.27
Mof_N 	N 	0.3321	0.7386	0.7652	-0.23
Mof_H 	H 	0.2932	0.7189	0.7882	0.166
Mof_N 	N 	0.2625	0.7305	0.5244	-0.25
Mof_N 	N 	0.3809	0.7837	0.5021	-0.22
Mof_H 	H 	0.42	0.8036	0.4794	0.164
Mof_N 	N 	0.4985	0.9799	0.7461	-0.259
Mof_N 	N 	0.4311	0.0904	0.7653	-0.227
Mof_H 	H 	0.4058	0.1271	0.787	0.164
Mof_N 	N 	0.4423	0.1694	0.5265	-0.268
Mof_N 	N 	0.5113	0.0588	0.5086	-0.217
Mof_H 	H 	0.5377	0.023	0.4868	0.158
Mof_C 	C 	0.5512	0.6533	0.5308	0.116
Mof_H 	H 	0.5532	0.6685	0.5754	0.004
Mof_C 	C 	0.5213	0.5478	0.2245	0.103
Mof_H 	H 	0.5182	0.5333	0.1798	0.009
Mof_C 	C 	0.4089	0.7792	0.2661	0.129
Mof_H 	H 	0.4269	0.7723	0.3096	0.003
Mof_C 	C 	0.2847	0.8093	0.9663	0.144
Mof_H 	H 	0.267	0.8144	0.9225	-0.013
Mof_C 	C 	0.3981	0.7677	0.7893	0.135
Mof_H 	H 	0.4096	0.7701	0.8346	-0.014
Mof_C 	C 	0.3118	0.7557	0.4772	0.11
Mof_H 	H 	0.2999	0.7541	0.4319	0
Mof_C 	C 	0.4574	0.0231	0.791	0.124
Mof_H 	H 	0.4486	0.0072	0.8349	-0.009
Mof_C 	C 	0.4766	0.1261	0.4811	0.116
Mof_H 	H 	0.4777	0.1387	0.4359	0.001
Mof_C 	C 	0.5232	0.5822	0.4419	0.102
Mof_C 	C 	0.5621	0.6551	0.4246	0.062
Mof_C 	C 	0.5759	0.6738	0.3589	-0.154
Mof_H 	H 	0.6014	0.7209	0.346	0.093
Mof_C 	C 	0.5495	0.6183	0.3141	0.098
Mof_C 	C 	0.5133	0.5456	0.3316	0.065
Mof_C 	C 	0.4953	0.5269	0.3969	-0.16
Mof_H 	H 	0.4669	0.4811	0.4093	0.102
Mof_C 	C 	0.3348	0.768	0.1791	0.105
Mof_C 	C 	0.4068	0.8078	0.1627	0.069
Mof_C 	C 	0.4223	0.8282	0.0976	-0.159
Mof_H 	H 	0.4717	0.8491	0.0846	0.088
Mof_C 	C 	0.3618	0.8163	0.0529	0.094
Mof_C 	C 	0.2879	0.7798	0.0703	0.06
Mof_C 	C 	0.2734	0.7531	0.1338	-0.16
Mof_H 	H 	0.2262	0.7271	0.1457	0.092
Mof_C 	C 	0.3345	0.7444	0.6964	0.101
Mof_C 	C 	0.4084	0.781	0.6828	0.053
Mof_C 	C 	0.4324	0.7947	0.618	-0.151
Mof_H 	H 	0.4825	0.816	0.6076	0.072
Mof_C 	C 	0.3781	0.775	0.5703	0.092
Mof_C 	C 	0.3025	0.7392	0.5841	0.078
Mof_C 	C 	0.2801	0.7228	0.6475	-0.164
Mof_H 	H 	0.2313	0.6986	0.6576	0.096
Mof_C 	C 	0.4922	0.0226	0.6859	0.062
Mof_C 	C 	0.4495	0.094	0.6995	0.1
Mof_C 	C 	0.4293	0.1507	0.6521	-0.154
Mof_H 	H 	0.3999	0.1969	0.6613	0.077
Mof_C 	C 	0.4577	0.1309	0.589	0.049
Mof_C 	C 	0.4972	0.0575	0.5761	0.102
Mof_C 	C 	0.5181	0.0041	0.6237	-0.163
Mof_H 	H 	0.548	0.9583	0.6145	0.083
Mof_S 	S 	0.55316	0.89494	0.40102	0.672
Mof_S 	S 	0.64197	0.79783	0.14691	0.649
Mof_S 	S 	0.6641	0.79508	0.66397	0.696
Mof_S 	S 	0.56397	0.89342	0.90572	0.681
Mof_O 	O 	0.6263	0.8465	0.4072	-0.479
Mof_O 	O 	0.516	0.8767	0.3374	-0.455
Mof_O 	O 	0.5011	0.8738	0.4561	-0.362
Mof_O 	O 	0.5718	0.982	0.4027	-0.316
Mof_O 	O 	0.5989	0.8763	0.1436	-0.441
Mof_O 	O 	0.6114	0.7433	0.0946	-0.456
Mof_O 	O 	0.6265	0.7615	0.2112	-0.384
Mof_O 	O 	0.7259	0.8106	0.1368	-0.324
Mof_O 	O 	0.613	0.8576	0.9599	-0.473
Mof_O 	O 	0.5944	0.8605	0.8419	-0.478
Mof_O 	O 	0.5752	0.9802	0.9065	-0.304
Mof_O 	O 	0.4799	0.8709	0.9084	-0.359
Mof_O 	O 	0.6125	0.8635	0.6861	-0.485
Mof_O 	O 	0.6392	0.7708	0.5967	-0.471
Mof_O 	O 	0.7471	0.8195	0.6636	-0.322
Mof_O 	O 	0.6526	0.7283	0.7099	-0.334
_end
