data_functionalizedCrystal
_audit_creation_method	'EQeq! by Chris Wilmer'
_symmetry_space_group_name_H-M	'P1'
_symmetry_Int_Tables_number	1
_symmetry_cell_setting	triclinic
loop_
_symmetry_equiv_pos_as_xyz
  x,y,z
_cell_length_a	31.1342
_cell_length_b	31.1342
_cell_length_c	16.9089
_cell_angle_alpha	90
_cell_angle_beta	90
_cell_angle_gamma	120
loop_
_atom_site_label
_atom_site_type_symbol
_atom_site_fract_x
_atom_site_fract_y
_atom_site_fract_z
_atom_site_charge
Mof_O 	O 	0.2531	0.66285	0.42024	-0.435
Mof_C 	C 	0.1833	0.55225	0.29574	0.037
Mof_C 	C 	0.1475	0.53435	0.23504	-0.096
Mof_H 	H 	0.1964	0.52785	0.31844	0.026
Mof_H 	H 	0.1337	0.49685	0.21204	0.045
Mof_O 	O 	0.33715	0.59025	0.42024	-0.435
Mof_C 	C 	0.44775	0.63105	0.29574	0.037
Mof_C 	C 	0.46565	0.61315	0.23504	-0.095
Mof_H 	H 	0.47215	0.66855	0.31844	0.028
Mof_H 	H 	0.50315	0.63685	0.21204	0.047
Mof_O 	O 	0.40975	0.7469	0.42024	-0.434
Mof_C 	C 	0.36895	0.8167	0.29574	0.039
Mof_C 	C 	0.38685	0.8525	0.23504	-0.095
Mof_H 	H 	0.33145	0.8036	0.31844	0.028
Mof_H 	H 	0.36315	0.8663	0.21204	0.047
Mof_O 	O 	0.7469	0.33715	0.42024	-0.434
Mof_C 	C 	0.8167	0.44775	0.29574	0.039
Mof_C 	C 	0.8525	0.46565	0.23504	-0.095
Mof_H 	H 	0.8036	0.47215	0.31844	0.028
Mof_H 	H 	0.8663	0.50315	0.21204	0.048
Mof_O 	O 	0.66285	0.40975	0.42024	-0.434
Mof_C 	C 	0.55225	0.36895	0.29574	0.038
Mof_C 	C 	0.53435	0.38685	0.23504	-0.095
Mof_H 	H 	0.52785	0.33145	0.31844	0.028
Mof_H 	H 	0.49685	0.36315	0.21204	0.047
Mof_O 	O 	0.59025	0.2531	0.42024	-0.434
Mof_C 	C 	0.63105	0.1833	0.29574	0.038
Mof_C 	C 	0.61315	0.1475	0.23504	-0.095
Mof_H 	H 	0.66855	0.1964	0.31844	0.028
Mof_H 	H 	0.63685	0.1337	0.21204	0.047
Mof_O 	O 	0.66285	0.2531	0.57976	-0.433
Mof_C 	C 	0.55225	0.1833	0.70426	0.04
Mof_C 	C 	0.53435	0.1475	0.76496	-0.094
Mof_H 	H 	0.52785	0.1964	0.68156	0.029
Mof_H 	H 	0.49685	0.1337	0.78796	0.051
Mof_O 	O 	0.59025	0.33715	0.57976	-0.433
Mof_C 	C 	0.63105	0.44775	0.70426	0.04
Mof_C 	C 	0.61315	0.46565	0.76496	-0.094
Mof_H 	H 	0.66855	0.47215	0.68156	0.03
Mof_H 	H 	0.63685	0.50315	0.78796	0.051
Mof_O 	O 	0.7469	0.40975	0.57976	-0.433
Mof_C 	C 	0.8167	0.36895	0.70426	0.04
Mof_C 	C 	0.8525	0.38685	0.76496	-0.094
Mof_H 	H 	0.8036	0.33145	0.68156	0.03
Mof_H 	H 	0.8663	0.36315	0.78796	0.051
Mof_O 	O 	0.33715	0.7469	0.57976	-0.433
Mof_C 	C 	0.44775	0.8167	0.70426	0.04
Mof_C 	C 	0.46565	0.8525	0.76496	-0.094
Mof_H 	H 	0.47215	0.8036	0.68156	0.03
Mof_H 	H 	0.50315	0.8663	0.78796	0.052
Mof_O 	O 	0.40975	0.66285	0.57976	-0.433
Mof_C 	C 	0.36895	0.55225	0.70426	0.04
Mof_C 	C 	0.38685	0.53435	0.76496	-0.094
Mof_H 	H 	0.33145	0.52785	0.68156	0.029
Mof_H 	H 	0.36315	0.49685	0.78796	0.051
Mof_O 	O 	0.2531	0.59025	0.57976	-0.434
Mof_C 	C 	0.1833	0.63105	0.70426	0.04
Mof_C 	C 	0.1475	0.61315	0.76496	-0.094
Mof_H 	H 	0.1964	0.66855	0.68156	0.029
Mof_H 	H 	0.1337	0.63685	0.78796	0.051
Mof_O 	O 	0.7469	0.33715	0.57976	-0.433
Mof_C 	C 	0.8167	0.44775	0.70426	0.04
Mof_C 	C 	0.8525	0.46565	0.76496	-0.094
Mof_H 	H 	0.8036	0.47215	0.68156	0.03
Mof_H 	H 	0.8663	0.50315	0.78796	0.052
Mof_O 	O 	0.66285	0.40975	0.57976	-0.433
Mof_C 	C 	0.55225	0.36895	0.70426	0.04
Mof_C 	C 	0.53435	0.38685	0.76496	-0.094
Mof_H 	H 	0.52785	0.33145	0.68156	0.029
Mof_H 	H 	0.49685	0.36315	0.78796	0.051
Mof_O 	O 	0.59025	0.2531	0.57976	-0.434
Mof_C 	C 	0.63105	0.1833	0.70426	0.04
Mof_C 	C 	0.61315	0.1475	0.76496	-0.094
Mof_H 	H 	0.66855	0.1964	0.68156	0.029
Mof_H 	H 	0.63685	0.1337	0.78796	0.051
Mof_O 	O 	0.2531	0.66285	0.57976	-0.433
Mof_C 	C 	0.1833	0.55225	0.70426	0.04
Mof_C 	C 	0.1475	0.53435	0.76496	-0.094
Mof_H 	H 	0.1964	0.52785	0.68156	0.029
Mof_H 	H 	0.1337	0.49685	0.78796	0.051
Mof_O 	O 	0.33715	0.59025	0.57976	-0.433
Mof_C 	C 	0.44775	0.63105	0.70426	0.04
Mof_C 	C 	0.46565	0.61315	0.76496	-0.094
Mof_H 	H 	0.47215	0.66855	0.68156	0.03
Mof_H 	H 	0.50315	0.63685	0.78796	0.051
Mof_O 	O 	0.40975	0.7469	0.57976	-0.433
Mof_C 	C 	0.36895	0.8167	0.70426	0.04
Mof_C 	C 	0.38685	0.8525	0.76496	-0.094
Mof_H 	H 	0.33145	0.8036	0.68156	0.03
Mof_H 	H 	0.36315	0.8663	0.78796	0.051
Mof_O 	O 	0.33715	0.7469	0.42024	-0.434
Mof_C 	C 	0.44775	0.8167	0.29574	0.039
Mof_C 	C 	0.46565	0.8525	0.23504	-0.095
Mof_H 	H 	0.47215	0.8036	0.31844	0.028
Mof_H 	H 	0.50315	0.8663	0.21204	0.048
Mof_O 	O 	0.40975	0.66285	0.42024	-0.434
Mof_C 	C 	0.36895	0.55225	0.29574	0.038
Mof_C 	C 	0.38685	0.53435	0.23504	-0.095
Mof_H 	H 	0.33145	0.52785	0.31844	0.028
Mof_H 	H 	0.36315	0.49685	0.21204	0.047
Mof_O 	O 	0.2531	0.59025	0.42024	-0.434
Mof_C 	C 	0.1833	0.63105	0.29574	0.038
Mof_C 	C 	0.1475	0.61315	0.23504	-0.095
Mof_H 	H 	0.1964	0.66855	0.31844	0.028
Mof_H 	H 	0.1337	0.63685	0.21204	0.047
Mof_O 	O 	0.66285	0.2531	0.42024	-0.434
Mof_C 	C 	0.55225	0.1833	0.29574	0.038
Mof_C 	C 	0.53435	0.1475	0.23504	-0.095
Mof_H 	H 	0.52785	0.1964	0.31844	0.027
Mof_H 	H 	0.49685	0.1337	0.21204	0.046
Mof_O 	O 	0.59025	0.33715	0.42024	-0.434
Mof_C 	C 	0.63105	0.44775	0.29574	0.038
Mof_C 	C 	0.61315	0.46565	0.23504	-0.095
Mof_H 	H 	0.66855	0.47215	0.31844	0.028
Mof_H 	H 	0.63685	0.50315	0.21204	0.047
Mof_O 	O 	0.7469	0.40975	0.42024	-0.434
Mof_C 	C 	0.8167	0.36895	0.29574	0.039
Mof_C 	C 	0.8525	0.38685	0.23504	-0.095
Mof_H 	H 	0.8036	0.33145	0.31844	0.028
Mof_H 	H 	0.8663	0.36315	0.21204	0.047
Mof_Fe	Fe	0.29779	0.70221	0.5	1.109
Mof_Fe	Fe	0.29779	0.59559	0.5	1.109
Mof_Fe	Fe	0.40441	0.70221	0.5	1.109
Mof_Fe	Fe	0.70221	0.29779	0.5	1.109
Mof_Fe	Fe	0.70221	0.40441	0.5	1.109
Mof_Fe	Fe	0.59559	0.29779	0.5	1.109
Mof_O 	O 	0.33333	0.66667	0.5	-0.557
Mof_O 	O 	0.66667	0.33333	0.5	-0.557
Mof_Co	Co	-3.20368e-17	0.5	-0	1.105
Mof_Co	Co	0.5	0.5	-0	1.106
Mof_Co	Co	0.5	0	-0	1.105
Mof_C 	C 	0.2383	0.61915	0.39314	0.418
Mof_C 	C 	0.2015	0.60075	0.32724	-0.133
Mof_C 	C 	0.1293	0.56465	0.20474	0.074
Mof_C 	C 	0.0899	0.54495	0.14224	-0.131
Mof_C 	C 	0.1039	0.55195	0.06344	0.093
Mof_C 	C 	0.1539	0.57695	0.04024	-0.099
Mof_C 	C 	0.0401	0.52005	0.16424	0.089
Mof_C 	C 	0.0255	0.51275	0.24304	-0.075
Mof_H 	H 	0.1871	0.59355	0.07744	0.051
Mof_H 	H 	0.0489	0.52445	0.29554	0.048
Mof_C 	C 	0.38085	0.61915	0.39314	0.418
Mof_C 	C 	0.39925	0.60075	0.32724	-0.132
Mof_C 	C 	0.43535	0.56465	0.20474	0.074
Mof_C 	C 	0.45505	0.54495	0.14224	-0.13
Mof_C 	C 	0.44805	0.55195	0.06344	0.093
Mof_C 	C 	0.42305	0.57695	0.04024	-0.098
Mof_C 	C 	0.47995	0.52005	0.16424	0.087
Mof_C 	C 	0.48725	0.51275	0.24304	-0.067
Mof_H 	H 	0.40645	0.59355	0.07744	0.051
Mof_H 	H 	0.47555	0.52445	0.29554	0.048
Mof_C 	C 	0.38085	0.7617	0.39314	0.418
Mof_C 	C 	0.39925	0.7985	0.32724	-0.132
Mof_C 	C 	0.43535	0.8707	0.20474	0.074
Mof_C 	C 	0.45505	0.9101	0.14224	-0.13
Mof_C 	C 	0.44805	0.8961	0.06344	0.094
Mof_C 	C 	0.42305	0.8461	0.04024	-0.098
Mof_C 	C 	0.47995	0.9599	0.16424	0.09
Mof_C 	C 	0.48725	0.9745	0.24304	-0.06
Mof_H 	H 	0.40645	0.8129	0.07744	0.051
Mof_H 	H 	0.47555	0.9511	0.29554	0.047
Mof_C 	C 	0.7617	0.38085	0.39314	0.418
Mof_C 	C 	0.7985	0.39925	0.32724	-0.132
Mof_C 	C 	0.8707	0.43535	0.20474	0.074
Mof_C 	C 	0.9101	0.45505	0.14224	-0.13
Mof_C 	C 	0.8961	0.44805	0.06344	0.094
Mof_C 	C 	0.8461	0.42305	0.04024	-0.098
Mof_C 	C 	0.9599	0.47995	0.16424	0.09
Mof_C 	C 	0.9745	0.48725	0.24304	-0.06
Mof_H 	H 	0.8129	0.40645	0.07744	0.051
Mof_H 	H 	0.9511	0.47555	0.29554	0.047
Mof_C 	C 	0.61915	0.38085	0.39314	0.418
Mof_C 	C 	0.60075	0.39925	0.32724	-0.132
Mof_C 	C 	0.56465	0.43535	0.20474	0.074
Mof_C 	C 	0.54495	0.45505	0.14224	-0.13
Mof_C 	C 	0.55195	0.44805	0.06344	0.093
Mof_C 	C 	0.57695	0.42305	0.04024	-0.098
Mof_C 	C 	0.52005	0.47995	0.16424	0.087
Mof_C 	C 	0.51275	0.48725	0.24304	-0.067
Mof_H 	H 	0.59355	0.40645	0.07744	0.051
Mof_H 	H 	0.52445	0.47555	0.29554	0.048
Mof_C 	C 	0.61915	0.2383	0.39314	0.418
Mof_C 	C 	0.60075	0.2015	0.32724	-0.133
Mof_C 	C 	0.56465	0.1293	0.20474	0.074
Mof_C 	C 	0.54495	0.0899	0.14224	-0.131
Mof_C 	C 	0.55195	0.1039	0.06344	0.093
Mof_C 	C 	0.57695	0.1539	0.04024	-0.099
Mof_C 	C 	0.52005	0.0401	0.16424	0.089
Mof_C 	C 	0.51275	0.0255	0.24304	-0.075
Mof_H 	H 	0.59355	0.1871	0.07744	0.051
Mof_H 	H 	0.52445	0.0489	0.29554	0.048
Mof_C 	C 	0.61915	0.2383	0.60686	0.418
Mof_C 	C 	0.60075	0.2015	0.67276	-0.132
Mof_C 	C 	0.56465	0.1293	0.79526	0.075
Mof_C 	C 	0.54495	0.0899	0.85776	-0.128
Mof_C 	C 	0.55195	0.1039	0.93656	0.101
Mof_C 	C 	0.57695	0.1539	0.95976	-0.037
Mof_C 	C 	0.52005	0.0401	0.83576	0.093
Mof_C 	C 	0.51275	0.0255	0.75696	-0.074
Mof_H 	H 	0.59355	0.1871	0.92256	0.045
Mof_H 	H 	0.52445	0.0489	0.70446	0.049
Mof_C 	C 	0.61915	0.38085	0.60686	0.418
Mof_C 	C 	0.60075	0.39925	0.67276	-0.132
Mof_C 	C 	0.56465	0.43535	0.79526	0.075
Mof_C 	C 	0.54495	0.45505	0.85776	-0.127
Mof_C 	C 	0.55195	0.44805	0.93656	0.101
Mof_C 	C 	0.57695	0.42305	0.95976	-0.037
Mof_C 	C 	0.52005	0.47995	0.83576	0.091
Mof_C 	C 	0.51275	0.48725	0.75696	-0.067
Mof_H 	H 	0.59355	0.40645	0.92256	0.046
Mof_H 	H 	0.52445	0.47555	0.70446	0.048
Mof_C 	C 	0.7617	0.38085	0.60686	0.418
Mof_C 	C 	0.7985	0.39925	0.67276	-0.131
Mof_C 	C 	0.8707	0.43535	0.79526	0.075
Mof_C 	C 	0.9101	0.45505	0.85776	-0.127
Mof_C 	C 	0.8961	0.44805	0.93656	0.101
Mof_C 	C 	0.8461	0.42305	0.95976	-0.037
Mof_C 	C 	0.9599	0.47995	0.83576	0.094
Mof_C 	C 	0.9745	0.48725	0.75696	-0.06
Mof_H 	H 	0.8129	0.40645	0.92256	0.046
Mof_H 	H 	0.9511	0.47555	0.70446	0.048
Mof_C 	C 	0.38085	0.7617	0.60686	0.418
Mof_C 	C 	0.39925	0.7985	0.67276	-0.131
Mof_C 	C 	0.43535	0.8707	0.79526	0.075
Mof_C 	C 	0.45505	0.9101	0.85776	-0.127
Mof_C 	C 	0.44805	0.8961	0.93656	0.101
Mof_C 	C 	0.42305	0.8461	0.95976	-0.037
Mof_C 	C 	0.47995	0.9599	0.83576	0.094
Mof_C 	C 	0.48725	0.9745	0.75696	-0.06
Mof_H 	H 	0.40645	0.8129	0.92256	0.046
Mof_H 	H 	0.47555	0.9511	0.70446	0.048
Mof_C 	C 	0.38085	0.61915	0.60686	0.418
Mof_C 	C 	0.39925	0.60075	0.67276	-0.132
Mof_C 	C 	0.43535	0.56465	0.79526	0.075
Mof_C 	C 	0.45505	0.54495	0.85776	-0.127
Mof_C 	C 	0.44805	0.55195	0.93656	0.101
Mof_C 	C 	0.42305	0.57695	0.95976	-0.037
Mof_C 	C 	0.47995	0.52005	0.83576	0.091
Mof_C 	C 	0.48725	0.51275	0.75696	-0.067
Mof_H 	H 	0.40645	0.59355	0.92256	0.046
Mof_H 	H 	0.47555	0.52445	0.70446	0.048
Mof_C 	C 	0.2383	0.61915	0.60686	0.418
Mof_C 	C 	0.2015	0.60075	0.67276	-0.132
Mof_C 	C 	0.1293	0.56465	0.79526	0.075
Mof_C 	C 	0.0899	0.54495	0.85776	-0.128
Mof_C 	C 	0.1039	0.55195	0.93656	0.101
Mof_C 	C 	0.1539	0.57695	0.95976	-0.037
Mof_C 	C 	0.0401	0.52005	0.83576	0.093
Mof_C 	C 	0.0255	0.51275	0.75696	-0.074
Mof_H 	H 	0.1871	0.59355	0.92256	0.045
Mof_H 	H 	0.0489	0.52445	0.70446	0.049
Mof_N 	N 	0.0721	0.53605	-0	-0.302
Mof_N 	N 	0.46395	0.53605	-0	-0.302
Mof_N 	N 	0.46395	0.9279	-0	-0.3
Mof_N 	N 	0.9279	0.46395	-0	-0.3
Mof_N 	N 	0.53605	0.46395	-0	-0.302
Mof_N 	N 	0.53605	0.0721	-0	-0.302
Mof_N 	N 	-3.96149e-17	0.5	0.11394	-0.296
Mof_N 	N 	0.5	0.5	0.11394	-0.292
Mof_N 	N 	0.5	-8.89199e-34	0.11394	-0.296
Mof_N 	N 	0.5	0	0.88606	-0.288
Mof_N 	N 	0.5	0.5	0.88606	-0.285
Mof_N 	N 	-2.68953e-17	0.5	0.88606	-0.288
_end
