data_functionalizedCrystal
_audit_creation_method	'EQeq! by Chris Wilmer'
_symmetry_space_group_name_H-M	'P1'
_symmetry_Int_Tables_number	1
_symmetry_cell_setting	triclinic
loop_
_symmetry_equiv_pos_as_xyz
  x,y,z
_cell_length_a	9.097
_cell_length_b	10.923
_cell_length_c	17.877
_cell_angle_alpha	90
_cell_angle_beta	90
_cell_angle_gamma	111.264
loop_
_atom_site_label
_atom_site_type_symbol
_atom_site_fract_x
_atom_site_fract_y
_atom_site_fract_z
_atom_site_charge
Mof_Nd	Nd	0.4323	0.39299	0.69867	2.568
Mof_Nd	Nd	0.0677	0.60701	0.19867	2.559
Mof_Nd	Nd	0.5677	0.60701	0.30133	2.568
Mof_Nd	Nd	0.9323	0.39299	0.80133	2.559
Mof_H 	H 	0.2036	0.1775	0.4502	0.058
Mof_H 	H 	0.9627	0.9813	0.6279	0.039
Mof_H 	H 	0.449	0.8721	0.4721	-0.028
Mof_H 	H 	0.1276	0.7716	0.6335	-0.034
Mof_H 	H 	0.2453	0.9069	0.5333	0.124
Mof_H 	H 	0.793	0.5713	0.5225	0.048
Mof_H 	H 	0.0409	0.3466	0.5782	0.018
Mof_H 	H 	0.2964	0.8225	0.9502	0.058
Mof_H 	H 	0.5373	0.0187	0.1279	0.039
Mof_H 	H 	0.051	0.1279	0.9721	-0.022
Mof_H 	H 	0.3724	0.2284	0.1335	-0.033
Mof_H 	H 	0.2547	0.0931	0.0333	0.123
Mof_H 	H 	0.707	0.4287	0.0225	0.049
Mof_H 	H 	0.4591	0.6534	0.0782	0.018
Mof_H 	H 	0.7964	0.8225	0.5498	0.058
Mof_H 	H 	0.0373	0.0187	0.3721	0.039
Mof_H 	H 	0.551	0.1279	0.5279	-0.028
Mof_H 	H 	0.8724	0.2284	0.3665	-0.034
Mof_H 	H 	0.7547	0.0931	0.4667	0.124
Mof_H 	H 	0.207	0.4287	0.4775	0.048
Mof_H 	H 	0.9591	0.6534	0.4218	0.018
Mof_H 	H 	0.7036	0.1775	0.0498	0.058
Mof_H 	H 	0.4627	0.9813	0.8721	0.039
Mof_H 	H 	0.949	0.8721	0.0279	-0.022
Mof_H 	H 	0.6276	0.7716	0.8665	-0.033
Mof_H 	H 	0.7453	0.9069	0.9667	0.123
Mof_H 	H 	0.293	0.5713	0.9775	0.049
Mof_H 	H 	0.5409	0.3466	0.9218	0.018
Mof_C 	C 	0.8992	0.4495	0.56053	-0.142
Mof_C 	C 	0.2643	0.6646	0.63432	-0.336
Mof_C 	C 	0.3955	0.6468	0.59713	0.401
Mof_C 	C 	0.1002	0.0959	0.54731	-0.071
Mof_C 	C 	0.2093	0.1968	0.59872	0.323
Mof_C 	C 	0.122	0.1064	0.47039	-0.033
Mof_C 	C 	0.9778	0.989	0.57642	-0.026
Mof_C 	C 	0.4022	0.821	0.5133	0.162
Mof_C 	C 	0.177	0.5739	0.69543	0.5
Mof_C 	C 	0.2122	0.7603	0.6092	0.212
Mof_C 	C 	0.2811	0.8413	0.5488	-0.267
Mof_C 	C 	0.8758	0.5424	0.51353	-0.007
Mof_C 	C 	0.0242	0.4081	0.54674	0.016
Mof_C 	C 	0.791	0.3955	0.62604	0.52
Mof_C 	C 	0.6008	0.5505	0.06053	-0.14
Mof_C 	C 	0.2357	0.3354	0.13432	-0.335
Mof_C 	C 	0.1045	0.3532	0.09713	0.4
Mof_C 	C 	0.3998	0.9041	0.04731	-0.075
Mof_C 	C 	0.2907	0.8032	0.09872	0.324
Mof_C 	C 	0.378	0.8936	0.97039	-0.031
Mof_C 	C 	0.5222	0.011	0.07642	-0.025
Mof_C 	C 	0.0978	0.179	0.0133	0.153
Mof_C 	C 	0.323	0.4261	0.19543	0.5
Mof_C 	C 	0.2878	0.2397	0.1092	0.209
Mof_C 	C 	0.2189	0.1587	0.0488	-0.261
Mof_C 	C 	0.6242	0.4576	0.01353	-0.006
Mof_C 	C 	0.4758	0.5919	0.04674	0.013
Mof_C 	C 	0.709	0.6045	0.12604	0.519
Mof_C 	C 	0.1008	0.5505	0.43947	-0.142
Mof_C 	C 	0.7357	0.3354	0.36568	-0.336
Mof_C 	C 	0.6045	0.3532	0.40287	0.401
Mof_C 	C 	0.8998	0.9041	0.45269	-0.071
Mof_C 	C 	0.7907	0.8032	0.40128	0.323
Mof_C 	C 	0.878	0.8936	0.52961	-0.033
Mof_C 	C 	0.0222	0.011	0.42358	-0.026
Mof_C 	C 	0.5978	0.179	0.4867	0.162
Mof_C 	C 	0.823	0.4261	0.30457	0.5
Mof_C 	C 	0.7878	0.2397	0.3908	0.212
Mof_C 	C 	0.7189	0.1587	0.4512	-0.267
Mof_C 	C 	0.1242	0.4576	0.48647	-0.007
Mof_C 	C 	0.9758	0.5919	0.45326	0.016
Mof_C 	C 	0.209	0.6045	0.37396	0.52
Mof_C 	C 	0.3992	0.4495	0.93947	-0.14
Mof_C 	C 	0.7643	0.6646	0.86568	-0.335
Mof_C 	C 	0.8955	0.6468	0.90287	0.4
Mof_C 	C 	0.6002	0.0959	0.95269	-0.075
Mof_C 	C 	0.7093	0.1968	0.90128	0.324
Mof_C 	C 	0.622	0.1064	0.02961	-0.031
Mof_C 	C 	0.4778	0.989	0.92358	-0.025
Mof_C 	C 	0.9022	0.821	0.9867	0.153
Mof_C 	C 	0.677	0.5739	0.80457	0.5
Mof_C 	C 	0.7122	0.7603	0.8908	0.209
Mof_C 	C 	0.7811	0.8413	0.9512	-0.261
Mof_C 	C 	0.3758	0.5424	0.98647	-0.006
Mof_C 	C 	0.5242	0.4081	0.95326	0.013
Mof_C 	C 	0.291	0.3955	0.87396	0.519
Mof_N 	N 	0.4555	0.7272	0.53729	-0.183
Mof_N 	N 	0.0445	0.2728	0.03729	-0.182
Mof_N 	N 	0.5445	0.2728	0.46271	-0.183
Mof_N 	N 	0.9555	0.7272	0.96271	-0.182
Mof_O 	O 	0.6624	0.4116	0.62657	-0.591
Mof_O 	O 	0.2073	0.4731	0.71224	-0.653
Mof_O 	O 	0.1722	0.2013	0.66562	-0.494
Mof_O 	O 	0.4584	0.5657	0.61286	-0.527
Mof_O 	O 	0.3376	0.2761	0.57401	-0.446
Mof_O 	O 	0.8368	0.3352	0.67592	-0.621
Mof_O 	O 	0.0678	0.5979	0.72809	-0.525
Mof_O 	O 	0.8376	0.5884	0.12657	-0.588
Mof_O 	O 	0.2927	0.5269	0.21224	-0.654
Mof_O 	O 	0.3278	0.7987	0.16562	-0.495
Mof_O 	O 	0.0416	0.4343	0.11286	-0.527
Mof_O 	O 	0.1624	0.7239	0.07401	-0.448
Mof_O 	O 	0.6632	0.6648	0.17592	-0.62
Mof_O 	O 	0.4322	0.4021	0.22809	-0.527
Mof_O 	O 	0.3376	0.5884	0.37343	-0.591
Mof_O 	O 	0.7927	0.5269	0.28776	-0.653
Mof_O 	O 	0.8278	0.7987	0.33438	-0.494
Mof_O 	O 	0.5416	0.4343	0.38714	-0.527
Mof_O 	O 	0.6624	0.7239	0.42599	-0.446
Mof_O 	O 	0.1632	0.6648	0.32408	-0.621
Mof_O 	O 	0.9322	0.4021	0.27191	-0.525
Mof_O 	O 	0.1624	0.4116	0.87343	-0.588
Mof_O 	O 	0.7073	0.4731	0.78776	-0.654
Mof_O 	O 	0.6722	0.2013	0.83438	-0.495
Mof_O 	O 	0.9584	0.5657	0.88714	-0.527
Mof_O 	O 	0.8376	0.2761	0.92599	-0.448
Mof_O 	O 	0.3368	0.3352	0.82408	-0.62
Mof_O 	O 	0.5678	0.5979	0.77191	-0.527
_end
