data_functionalizedCrystal
_audit_creation_method	'EQeq! by Chris Wilmer'
_symmetry_space_group_name_H-M	'P1'
_symmetry_Int_Tables_number	1
_symmetry_cell_setting	triclinic
loop_
_symmetry_equiv_pos_as_xyz
  x,y,z
_cell_length_a	19.6993
_cell_length_b	19.6993
_cell_length_c	29.2983
_cell_angle_alpha	90
_cell_angle_beta	90
_cell_angle_gamma	120
loop_
_atom_site_label
_atom_site_type_symbol
_atom_site_fract_x
_atom_site_fract_y
_atom_site_fract_z
_atom_site_charge
Mof_Cu	Cu	0.3631	0.67135	0.66933	0.917
Mof_O 	O 	0.3097	0.7032	0.6233	-0.342
Mof_O 	O 	0.2575	0.6657	0.5527	-0.311
Mof_O 	O 	0.2905	0.5443	0.5553	-0.318
Mof_N 	N 	0.3406	0.5898	0.6264	-0.202
Mof_C 	C 	0.3078	0.5917	0.59	0.102
Mof_C 	C 	0.285	0.6567	0.587	0.228
Mof_C 	C 	0.4214	0.568	0.6783	0.339
Mof_C 	C 	0.3731	0.5378	0.6359	-0.198
Mof_H 	H 	0.4069	0.5398	0.6099	0.102
Mof_O 	O 	0.4271	0.6296	0.6982	-0.394
Mof_O 	O 	0.4541	0.5318	0.6944	-0.397
Mof_Cu	Cu	0.24382	0.5653	0.50181	0.914
Mof_O 	O 	0.3447	0.6159	0.4666	-0.347
Mof_O 	O 	0.2382	0.6351	0.3745	-0.327
Mof_O 	O 	0.3851	0.6592	0.3956	-0.317
Mof_N 	N 	0.2024	0.5858	0.448	-0.208
Mof_O 	O 	0.133	0.5116	0.5202	-0.416
Mof_O 	O 	0.0167	0.5081	0.5054	-0.392
Mof_C 	C 	0.3109	0.4541	0.6448	0.191
Mof_C 	C 	0.308	0.395	0.6229	-0.227
Mof_H 	H 	0.3438	0.4039	0.5985	0.107
Mof_C 	C 	0.255	0.32	0.6351	0.122
Mof_H 	H 	0.2587	0.2787	0.62	-0.015
Mof_C 	C 	0.197	0.2974	0.6673	-0.198
Mof_H 	H 	0.1601	0.2441	0.6735	0.091
Mof_C 	C 	0.1965	0.3557	0.6885	0.109
Mof_H 	H 	0.1579	0.3446	0.7112	-0.012
Mof_C 	C 	0.2528	0.4358	0.6786	-0.205
Mof_H 	H 	0.2511	0.4768	0.6947	0.099
Mof_C 	C 	0.3357	0.6337	0.4253	0.23
Mof_C 	C 	0.251	0.6171	0.4136	0.109
Mof_C 	C 	0.1201	0.562	0.4479	-0.138
Mof_H 	H 	0.0932	0.5213	0.4238	0.082
Mof_C 	C 	0.086	0.5231	0.4965	0.323
Mof_C 	C 	0.1032	0.6288	0.4394	0.134
Mof_C 	C 	0.1393	0.6961	0.4646	-0.153
Mof_H 	H 	0.1803	0.7045	0.4849	0.087
Mof_C 	C 	0.1167	0.7527	0.4608	0.043
Mof_H 	H 	0.14	0.7969	0.4805	0.009
Mof_C 	C 	0.06	0.747	0.4288	-0.116
Mof_H 	H 	0.0456	0.7856	0.4257	0.064
Mof_C 	C 	0.027	0.676	0.4012	0.043
Mof_H 	H 	0.9911	0.6699	0.3776	0.012
Mof_C 	C 	0.0458	0.619	0.408	-0.146
Mof_H 	H 	0.0192	0.5719	0.391	0.082
Mof_Ni	Ni	0.48805	0.51648	0.76037	1.1
Mof_N 	N 	0.5966	0.5979	0.7488	-0.25
Mof_H 	H 	0.6286	0.5869	0.7709	0.084
Mof_N 	N 	0.5104	0.4395	0.7299	-0.246
Mof_H 	H 	0.5381	0.4247	0.753	0.088
Mof_C 	C 	0.631	0.531	0.6987	-0.216
Mof_H 	H 	0.6641	0.5402	0.6714	0.092
Mof_H 	H 	0.6571	0.5208	0.7245	0.096
Mof_N 	N 	0.4642	0.5983	0.7905	-0.23
Mof_H 	H 	0.4447	0.6189	0.7657	0.096
Mof_C 	C 	0.553	0.456	0.6903	0.028
Mof_H 	H 	0.5248	0.4627	0.6646	0.028
Mof_H 	H 	0.5628	0.4121	0.6828	0.026
Mof_C 	C 	0.536	0.6585	0.8031	-0.06
Mof_H 	H 	0.551	0.6488	0.8338	0.046
Mof_H 	H 	0.5363	0.7087	0.8038	0.048
Mof_C 	C 	0.632	0.608	0.7093	0.046
Mof_H 	H 	0.6869	0.6523	0.7111	0.013
Mof_H 	H 	0.6045	0.6201	0.6851	0.016
Mof_C 	C 	0.409	0.574	0.8267	-0.008
Mof_H 	H 	0.3981	0.6172	0.834	0.04
Mof_H 	H 	0.4307	0.5635	0.8543	0.04
Mof_C 	C 	0.323	0.42	0.8004	0.022
Mof_H 	H 	0.3341	0.3982	0.8277	0.028
Mof_H 	H 	0.2676	0.3843	0.7915	0.019
Mof_C 	C 	0.331	0.5	0.813	-0.198
Mof_H 	H 	0.2949	0.4896	0.8389	0.086
Mof_H 	H 	0.3103	0.5155	0.7871	0.094
Mof_C 	C 	0.438	0.374	0.7238	-0.062
Mof_H 	H 	0.4465	0.3292	0.7193	0.055
Mof_H 	H 	0.4167	0.3815	0.6947	0.048
Mof_N 	N 	0.3693	0.4242	0.7666	-0.225
Mof_H 	H 	0.343	0.4283	0.7384	0.081
Mof_C 	C 	0.594	0.661	0.7669	-0.107
Mof_H 	H 	0.5883	0.6891	0.7405	0.059
Mof_H 	H 	0.6469	0.6959	0.7795	0.056
Mof_C 	C 	0.375	0.35	0.7596	-0.109
Mof_H 	H 	0.3894	0.3345	0.7883	0.061
Mof_H 	H 	0.3241	0.3065	0.7486	0.059
Mof_Cu	Cu	0.32865	0.69175	0.336	0.916
Mof_O 	O 	0.2968	0.6065	0.28997	-0.343
Mof_O 	O 	0.3343	0.5918	0.21937	-0.312
Mof_O 	O 	0.4557	0.7462	0.22197	-0.319
Mof_N 	N 	0.4102	0.7508	0.29307	-0.203
Mof_C 	C 	0.4083	0.7161	0.25667	0.101
Mof_C 	C 	0.3433	0.6283	0.25367	0.228
Mof_C 	C 	0.432	0.8534	0.34497	0.339
Mof_C 	C 	0.4622	0.8353	0.30257	-0.198
Mof_H 	H 	0.4602	0.8671	0.27657	0.102
Mof_O 	O 	0.3704	0.7975	0.36487	-0.394
Mof_O 	O 	0.4682	0.9223	0.36107	-0.397
Mof_Cu	Cu	0.4347	0.67852	0.16848	0.914
Mof_O 	O 	0.3841	0.7288	0.13327	-0.347
Mof_O 	O 	0.3649	0.6031	0.04117	-0.327
Mof_O 	O 	0.3408	0.7259	0.06227	-0.317
Mof_N 	N 	0.4142	0.6166	0.11467	-0.208
Mof_O 	O 	0.4884	0.6214	0.18687	-0.416
Mof_O 	O 	0.4919	0.5086	0.17207	-0.392
Mof_C 	C 	0.5459	0.8568	0.31147	0.191
Mof_C 	C 	0.605	0.913	0.28957	-0.227
Mof_H 	H 	0.5961	0.9399	0.26517	0.107
Mof_C 	C 	0.68	0.935	0.30177	0.122
Mof_H 	H 	0.7213	0.98	0.28667	-0.015
Mof_C 	C 	0.7026	0.8996	0.33397	-0.198
Mof_H 	H 	0.7559	0.916	0.34017	0.091
Mof_C 	C 	0.6443	0.8408	0.35517	0.109
Mof_H 	H 	0.6554	0.8133	0.37787	-0.012
Mof_C 	C 	0.5642	0.817	0.34527	-0.205
Mof_H 	H 	0.5232	0.7743	0.36137	0.099
Mof_C 	C 	0.3663	0.702	0.09197	0.231
Mof_C 	C 	0.3829	0.6339	0.08027	0.109
Mof_C 	C 	0.438	0.5581	0.11457	-0.138
Mof_H 	H 	0.4787	0.5719	0.09047	0.082
Mof_C 	C 	0.4769	0.5629	0.16317	0.323
Mof_C 	C 	0.3712	0.4744	0.10607	0.134
Mof_C 	C 	0.3039	0.4432	0.13127	-0.153
Mof_H 	H 	0.2955	0.4758	0.15157	0.087
Mof_C 	C 	0.2473	0.364	0.12747	0.043
Mof_H 	H 	0.2031	0.3431	0.14717	0.009
Mof_C 	C 	0.253	0.313	0.09547	-0.116
Mof_H 	H 	0.2144	0.26	0.09237	0.064
Mof_C 	C 	0.324	0.351	0.06787	0.043
Mof_H 	H 	0.3301	0.3212	0.04427	0.012
Mof_C 	C 	0.381	0.4268	0.07467	-0.146
Mof_H 	H 	0.4281	0.4473	0.05767	0.082
Mof_Ni	Ni	0.48352	0.97157	0.42704	1.1
Mof_N 	N 	0.4021	0.9987	0.41547	-0.25
Mof_H 	H 	0.4131	0.0417	0.43757	0.084
Mof_N 	N 	0.5605	0.0709	0.39657	-0.246
Mof_H 	H 	0.5753	0.1134	0.41967	0.088
Mof_C 	C 	0.469	0.1	0.36537	-0.217
Mof_H 	H 	0.4598	0.1239	0.33807	0.092
Mof_H 	H 	0.4792	0.1363	0.39117	0.096
Mof_N 	N 	0.4017	0.8659	0.45717	-0.23
Mof_H 	H 	0.3811	0.8258	0.43237	0.096
Mof_C 	C 	0.544	0.097	0.35697	0.029
Mof_H 	H 	0.5373	0.0621	0.33127	0.028
Mof_H 	H 	0.5879	0.1507	0.34947	0.026
Mof_C 	C 	0.3415	0.8775	0.46977	-0.06
Mof_H 	H 	0.3512	0.9022	0.50047	0.046
Mof_H 	H 	0.2913	0.8276	0.47047	0.048
Mof_C 	C 	0.392	0.024	0.37597	0.047
Mof_H 	H 	0.3477	0.0346	0.37777	0.013
Mof_H 	H 	0.3799	0.9844	0.35177	0.016
Mof_C 	C 	0.426	0.835	0.49337	-0.008
Mof_H 	H 	0.3828	0.7809	0.50067	0.04
Mof_H 	H 	0.4365	0.8672	0.52097	0.04
Mof_C 	C 	0.58	0.903	0.46707	0.022
Mof_H 	H 	0.6018	0.9359	0.49437	0.028
Mof_H 	H 	0.6157	0.8833	0.45817	0.019
Mof_C 	C 	0.5	0.831	0.47967	-0.198
Mof_H 	H 	0.5104	0.8053	0.50557	0.086
Mof_H 	H 	0.4845	0.7948	0.45377	0.094
Mof_C 	C 	0.626	0.064	0.39047	-0.062
Mof_H 	H 	0.6708	0.1173	0.38597	0.055
Mof_H 	H 	0.6185	0.0352	0.36137	0.048
Mof_N 	N 	0.5758	0.9451	0.43327	-0.225
Mof_H 	H 	0.5717	0.9147	0.40507	0.081
Mof_C 	C 	0.339	0.933	0.43357	-0.107
Mof_H 	H 	0.3109	0.8992	0.40717	0.059
Mof_H 	H 	0.3041	0.951	0.44617	0.056
Mof_C 	C 	0.65	0.025	0.42627	-0.108
Mof_H 	H 	0.6655	0.0549	0.45497	0.061
Mof_H 	H 	0.6935	0.0176	0.41527	0.059
Mof_Cu	Cu	0.30825	0.6369	0.00266	0.916
Mof_O 	O 	0.3935	0.6903	0.95663	-0.343
Mof_O 	O 	0.4082	0.7425	0.88603	-0.312
Mof_O 	O 	0.2538	0.7095	0.88863	-0.319
Mof_N 	N 	0.2492	0.6594	0.95973	-0.203
Mof_C 	C 	0.2839	0.6922	0.92333	0.101
Mof_C 	C 	0.3717	0.715	0.92033	0.228
Mof_C 	C 	0.1466	0.5786	0.01163	0.338
Mof_C 	C 	0.1647	0.6269	0.96923	-0.199
Mof_H 	H 	0.1329	0.5931	0.94323	0.102
Mof_O 	O 	0.2025	0.5729	0.03153	-0.394
Mof_O 	O 	0.0777	0.5459	0.02773	-0.397
Mof_Cu	Cu	0.32148	0.75618	0.83514	0.914
Mof_O 	O 	0.2712	0.6553	0.79993	-0.347
Mof_O 	O 	0.3969	0.7618	0.70783	-0.327
Mof_O 	O 	0.2741	0.6149	0.72893	-0.317
Mof_N 	N 	0.3834	0.7976	0.78133	-0.208
Mof_O 	O 	0.3786	0.867	0.85353	-0.416
Mof_O 	O 	0.4914	0.9833	0.83873	-0.392
Mof_C 	C 	0.1432	0.6891	0.97813	0.193
Mof_C 	C 	0.087	0.692	0.95623	-0.23
Mof_H 	H 	0.0601	0.6562	0.93183	0.108
Mof_C 	C 	0.065	0.745	0.96843	0.126
Mof_H 	H 	0.02	0.7413	0.95333	-0.016
Mof_C 	C 	0.1004	0.803	0.00063	-0.202
Mof_H 	H 	0.084	0.8399	0.00683	0.092
Mof_C 	C 	0.1592	0.8035	0.02183	0.112
Mof_H 	H 	0.1867	0.8421	0.04453	-0.013
Mof_C 	C 	0.183	0.7472	0.01193	-0.208
Mof_H 	H 	0.2257	0.7489	0.02803	0.1
Mof_C 	C 	0.298	0.6643	0.75863	0.23
Mof_C 	C 	0.3661	0.749	0.74693	0.109
Mof_C 	C 	0.4419	0.8799	0.78123	-0.139
Mof_H 	H 	0.4281	0.9068	0.75713	0.082
Mof_C 	C 	0.4371	0.914	0.82983	0.323
Mof_C 	C 	0.5256	0.8968	0.77273	0.134
Mof_C 	C 	0.5568	0.8607	0.79793	-0.153
Mof_H 	H 	0.5242	0.8197	0.81823	0.087
Mof_C 	C 	0.636	0.8833	0.79413	0.043
Mof_H 	H 	0.6569	0.86	0.81383	0.009
Mof_C 	C 	0.687	0.94	0.76213	-0.116
Mof_H 	H 	0.74	0.9544	0.75903	0.064
Mof_C 	C 	0.649	0.973	0.73453	0.044
Mof_H 	H 	0.6788	0.0089	0.71093	0.012
Mof_C 	C 	0.5732	0.9542	0.74133	-0.146
Mof_H 	H 	0.5527	0.9808	0.72433	0.082
Mof_Ni	Ni	0.02843	0.51195	0.0937	1.1
Mof_N 	N 	0.0013	0.4034	0.08213	-0.251
Mof_H 	H 	0.9583	0.3714	0.10423	0.084
Mof_N 	N 	0.9291	0.4896	0.06323	-0.246
Mof_H 	H 	0.8866	0.4619	0.08633	0.088
Mof_C 	C 	0.9	0.369	0.03203	-0.218
Mof_H 	H 	0.8761	0.3359	0.00473	0.093
Mof_H 	H 	0.8637	0.3429	0.05783	0.097
Mof_N 	N 	0.1341	0.5358	0.12383	-0.23
Mof_H 	H 	0.1742	0.5553	0.09903	0.096
Mof_C 	C 	0.903	0.447	0.02363	0.03
Mof_H 	H 	0.9379	0.4752	0.99793	0.027
Mof_H 	H 	0.8493	0.4372	0.01613	0.025
Mof_C 	C 	0.1225	0.464	0.13643	-0.061
Mof_H 	H 	0.0978	0.449	0.16713	0.046
Mof_H 	H 	0.1724	0.4637	0.13713	0.048
Mof_C 	C 	0.976	0.368	0.04263	0.048
Mof_H 	H 	0.9654	0.3131	0.04443	0.013
Mof_H 	H 	0.0156	0.3955	0.01843	0.016
Mof_C 	C 	0.165	0.591	0.16003	-0.008
Mof_H 	H 	0.2191	0.6019	0.16733	0.04
Mof_H 	H 	0.1328	0.5693	0.18763	0.04
Mof_C 	C 	0.097	0.677	0.13373	0.022
Mof_H 	H 	0.0641	0.6659	0.16103	0.028
Mof_H 	H 	0.1167	0.7324	0.12483	0.019
Mof_C 	C 	0.169	0.669	0.14633	-0.198
Mof_H 	H 	0.1947	0.7051	0.17223	0.086
Mof_H 	H 	0.2052	0.6897	0.12043	0.094
Mof_C 	C 	0.936	0.562	0.05713	-0.062
Mof_H 	H 	0.8827	0.5535	0.05263	0.055
Mof_H 	H 	0.9648	0.5833	0.02803	0.048
Mof_N 	N 	0.0549	0.6307	0.09993	-0.225
Mof_H 	H 	0.0853	0.657	0.07173	0.081
Mof_C 	C 	0.067	0.406	0.10023	-0.106
Mof_H 	H 	0.1008	0.4117	0.07383	0.059
Mof_H 	H 	0.049	0.3531	0.11283	0.056
Mof_C 	C 	0.975	0.625	0.09293	-0.108
Mof_H 	H 	0.9451	0.6106	0.12163	0.061
Mof_H 	H 	0.9824	0.6759	0.08193	0.059
Mof_Cu	Cu	0.67135	0.3631	0.33067	0.916
Mof_O 	O 	0.7032	0.3097	0.3767	-0.343
Mof_O 	O 	0.6657	0.2575	0.4473	-0.312
Mof_O 	O 	0.5443	0.2905	0.4447	-0.319
Mof_N 	N 	0.5898	0.3406	0.3736	-0.203
Mof_C 	C 	0.5917	0.3078	0.41	0.101
Mof_C 	C 	0.6567	0.285	0.413	0.228
Mof_C 	C 	0.568	0.4214	0.3217	0.339
Mof_C 	C 	0.5378	0.3731	0.3641	-0.198
Mof_H 	H 	0.5398	0.4069	0.3901	0.102
Mof_O 	O 	0.6296	0.4271	0.3018	-0.394
Mof_O 	O 	0.5318	0.4541	0.3056	-0.397
Mof_Cu	Cu	0.5653	0.24382	0.49819	0.914
Mof_O 	O 	0.6159	0.3447	0.5334	-0.347
Mof_O 	O 	0.6351	0.2382	0.6255	-0.327
Mof_O 	O 	0.6592	0.3851	0.6044	-0.317
Mof_N 	N 	0.5858	0.2024	0.552	-0.208
Mof_O 	O 	0.5116	0.133	0.4798	-0.416
Mof_O 	O 	0.5081	0.0167	0.4946	-0.392
Mof_C 	C 	0.4541	0.3109	0.3552	0.191
Mof_C 	C 	0.395	0.308	0.3771	-0.227
Mof_H 	H 	0.4039	0.3438	0.4015	0.107
Mof_C 	C 	0.32	0.255	0.3649	0.122
Mof_H 	H 	0.2787	0.2587	0.38	-0.015
Mof_C 	C 	0.2974	0.197	0.3327	-0.198
Mof_H 	H 	0.2441	0.1601	0.3265	0.091
Mof_C 	C 	0.3557	0.1965	0.3115	0.109
Mof_H 	H 	0.3446	0.1579	0.2888	-0.012
Mof_C 	C 	0.4358	0.2528	0.3214	-0.205
Mof_H 	H 	0.4768	0.2511	0.3053	0.099
Mof_C 	C 	0.6337	0.3357	0.5747	0.23
Mof_C 	C 	0.6171	0.251	0.5864	0.109
Mof_C 	C 	0.562	0.1201	0.5521	-0.138
Mof_H 	H 	0.5213	0.0932	0.5762	0.082
Mof_C 	C 	0.5231	0.086	0.5035	0.323
Mof_C 	C 	0.6288	0.1032	0.5606	0.134
Mof_C 	C 	0.6961	0.1393	0.5354	-0.153
Mof_H 	H 	0.7045	0.1803	0.5151	0.087
Mof_C 	C 	0.7527	0.1167	0.5392	0.043
Mof_H 	H 	0.7969	0.14	0.5195	0.009
Mof_C 	C 	0.747	0.06	0.5712	-0.116
Mof_H 	H 	0.7856	0.0456	0.5743	0.064
Mof_C 	C 	0.676	0.027	0.5988	0.043
Mof_H 	H 	0.6699	0.9911	0.6224	0.012
Mof_C 	C 	0.619	0.0458	0.592	-0.146
Mof_H 	H 	0.5719	0.0192	0.609	0.082
Mof_Ni	Ni	0.51648	0.48805	0.23963	1.1
Mof_N 	N 	0.5979	0.5966	0.2512	-0.25
Mof_H 	H 	0.5869	0.6286	0.2291	0.084
Mof_N 	N 	0.4395	0.5104	0.2701	-0.246
Mof_H 	H 	0.4247	0.5381	0.247	0.088
Mof_C 	C 	0.531	0.631	0.3013	-0.216
Mof_H 	H 	0.5402	0.6641	0.3286	0.092
Mof_H 	H 	0.5208	0.6571	0.2755	0.096
Mof_N 	N 	0.5983	0.4642	0.2095	-0.23
Mof_H 	H 	0.6189	0.4447	0.2343	0.096
Mof_C 	C 	0.456	0.553	0.3097	0.028
Mof_H 	H 	0.4627	0.5248	0.3354	0.028
Mof_H 	H 	0.4121	0.5628	0.3172	0.026
Mof_C 	C 	0.6585	0.536	0.1969	-0.06
Mof_H 	H 	0.6488	0.551	0.1662	0.046
Mof_H 	H 	0.7087	0.5363	0.1962	0.048
Mof_C 	C 	0.608	0.632	0.2907	0.046
Mof_H 	H 	0.6523	0.6869	0.2889	0.013
Mof_H 	H 	0.6201	0.6045	0.3149	0.016
Mof_C 	C 	0.574	0.409	0.1733	-0.008
Mof_H 	H 	0.6172	0.3981	0.166	0.04
Mof_H 	H 	0.5635	0.4307	0.1457	0.04
Mof_C 	C 	0.42	0.323	0.1996	0.022
Mof_H 	H 	0.3982	0.3341	0.1723	0.028
Mof_H 	H 	0.3843	0.2676	0.2085	0.019
Mof_C 	C 	0.5	0.331	0.187	-0.198
Mof_H 	H 	0.4896	0.2949	0.1611	0.086
Mof_H 	H 	0.5155	0.3103	0.2129	0.094
Mof_C 	C 	0.374	0.438	0.2762	-0.062
Mof_H 	H 	0.3292	0.4465	0.2807	0.055
Mof_H 	H 	0.3815	0.4167	0.3053	0.048
Mof_N 	N 	0.4242	0.3693	0.2334	-0.225
Mof_H 	H 	0.4283	0.343	0.2616	0.081
Mof_C 	C 	0.661	0.594	0.2331	-0.107
Mof_H 	H 	0.6891	0.5883	0.2595	0.059
Mof_H 	H 	0.6959	0.6469	0.2205	0.056
Mof_C 	C 	0.35	0.375	0.2404	-0.109
Mof_H 	H 	0.3345	0.3894	0.2117	0.061
Mof_H 	H 	0.3065	0.3241	0.2514	0.059
Mof_Cu	Cu	0.69175	0.32865	0.664	0.916
Mof_O 	O 	0.6065	0.2968	0.71003	-0.343
Mof_O 	O 	0.5918	0.3343	0.78063	-0.312
Mof_O 	O 	0.7462	0.4557	0.77803	-0.319
Mof_N 	N 	0.7508	0.4102	0.70693	-0.203
Mof_C 	C 	0.7161	0.4083	0.74333	0.101
Mof_C 	C 	0.6283	0.3433	0.74633	0.228
Mof_C 	C 	0.8534	0.432	0.65503	0.339
Mof_C 	C 	0.8353	0.4622	0.69743	-0.198
Mof_H 	H 	0.8671	0.4602	0.72343	0.102
Mof_O 	O 	0.7975	0.3704	0.63513	-0.394
Mof_O 	O 	0.9223	0.4682	0.63893	-0.397
Mof_Cu	Cu	0.67852	0.4347	0.83152	0.914
Mof_O 	O 	0.7288	0.3841	0.86673	-0.347
Mof_O 	O 	0.6031	0.3649	0.95883	-0.327
Mof_O 	O 	0.7259	0.3408	0.93773	-0.317
Mof_N 	N 	0.6166	0.4142	0.88533	-0.208
Mof_O 	O 	0.6214	0.4884	0.81313	-0.416
Mof_O 	O 	0.5086	0.4919	0.82793	-0.392
Mof_C 	C 	0.8568	0.5459	0.68853	0.191
Mof_C 	C 	0.913	0.605	0.71043	-0.227
Mof_H 	H 	0.9399	0.5961	0.73483	0.107
Mof_C 	C 	0.935	0.68	0.69823	0.122
Mof_H 	H 	0.98	0.7213	0.71333	-0.015
Mof_C 	C 	0.8996	0.7026	0.66603	-0.198
Mof_H 	H 	0.916	0.7559	0.65983	0.091
Mof_C 	C 	0.8408	0.6443	0.64483	0.109
Mof_H 	H 	0.8133	0.6554	0.62213	-0.012
Mof_C 	C 	0.817	0.5642	0.65473	-0.205
Mof_H 	H 	0.7743	0.5232	0.63863	0.099
Mof_C 	C 	0.702	0.3663	0.90803	0.231
Mof_C 	C 	0.6339	0.3829	0.91973	0.109
Mof_C 	C 	0.5581	0.438	0.88543	-0.138
Mof_H 	H 	0.5719	0.4787	0.90953	0.082
Mof_C 	C 	0.5629	0.4769	0.83683	0.323
Mof_C 	C 	0.4744	0.3712	0.89393	0.134
Mof_C 	C 	0.4432	0.3039	0.86873	-0.153
Mof_H 	H 	0.4758	0.2955	0.84843	0.087
Mof_C 	C 	0.364	0.2473	0.87253	0.043
Mof_H 	H 	0.3431	0.2031	0.85283	0.009
Mof_C 	C 	0.313	0.253	0.90453	-0.116
Mof_H 	H 	0.26	0.2144	0.90763	0.064
Mof_C 	C 	0.351	0.324	0.93213	0.043
Mof_H 	H 	0.3212	0.3301	0.95573	0.012
Mof_C 	C 	0.4268	0.381	0.92533	-0.146
Mof_H 	H 	0.4473	0.4281	0.94233	0.082
Mof_Ni	Ni	0.97157	0.48352	0.57296	1.1
Mof_N 	N 	0.9987	0.4021	0.58453	-0.25
Mof_H 	H 	0.0417	0.4131	0.56243	0.084
Mof_N 	N 	0.0709	0.5605	0.60343	-0.246
Mof_H 	H 	0.1134	0.5753	0.58033	0.088
Mof_C 	C 	0.1	0.469	0.63463	-0.217
Mof_H 	H 	0.1239	0.4598	0.66193	0.092
Mof_H 	H 	0.1363	0.4792	0.60883	0.096
Mof_N 	N 	0.8659	0.4017	0.54283	-0.23
Mof_H 	H 	0.8258	0.3811	0.56763	0.096
Mof_C 	C 	0.097	0.544	0.64303	0.029
Mof_H 	H 	0.0621	0.5373	0.66873	0.028
Mof_H 	H 	0.1507	0.5879	0.65053	0.026
Mof_C 	C 	0.8775	0.3415	0.53023	-0.06
Mof_H 	H 	0.9022	0.3512	0.49953	0.046
Mof_H 	H 	0.8276	0.2913	0.52953	0.048
Mof_C 	C 	0.024	0.392	0.62403	0.047
Mof_H 	H 	0.0346	0.3477	0.62223	0.013
Mof_H 	H 	0.9844	0.3799	0.64823	0.016
Mof_C 	C 	0.835	0.426	0.50663	-0.008
Mof_H 	H 	0.7809	0.3828	0.49933	0.04
Mof_H 	H 	0.8672	0.4365	0.47903	0.04
Mof_C 	C 	0.903	0.58	0.53293	0.022
Mof_H 	H 	0.9359	0.6018	0.50563	0.028
Mof_H 	H 	0.8833	0.6157	0.54183	0.019
Mof_C 	C 	0.831	0.5	0.52033	-0.198
Mof_H 	H 	0.8053	0.5104	0.49443	0.086
Mof_H 	H 	0.7948	0.4845	0.54623	0.094
Mof_C 	C 	0.064	0.626	0.60953	-0.062
Mof_H 	H 	0.1173	0.6708	0.61403	0.055
Mof_H 	H 	0.0352	0.6185	0.63863	0.048
Mof_N 	N 	0.9451	0.5758	0.56673	-0.225
Mof_H 	H 	0.9147	0.5717	0.59493	0.081
Mof_C 	C 	0.933	0.339	0.56643	-0.107
Mof_H 	H 	0.8992	0.3109	0.59283	0.059
Mof_H 	H 	0.951	0.3041	0.55383	0.056
Mof_C 	C 	0.025	0.65	0.57373	-0.108
Mof_H 	H 	0.0549	0.6655	0.54503	0.061
Mof_H 	H 	0.0176	0.6935	0.58473	0.059
Mof_Cu	Cu	0.6369	0.30825	0.99734	0.916
Mof_O 	O 	0.6903	0.3935	0.04337	-0.343
Mof_O 	O 	0.7425	0.4082	0.11397	-0.312
Mof_O 	O 	0.7095	0.2538	0.11137	-0.319
Mof_N 	N 	0.6594	0.2492	0.04027	-0.203
Mof_C 	C 	0.6922	0.2839	0.07667	0.101
Mof_C 	C 	0.715	0.3717	0.07967	0.228
Mof_C 	C 	0.5786	0.1466	0.98837	0.338
Mof_C 	C 	0.6269	0.1647	0.03077	-0.199
Mof_H 	H 	0.5931	0.1329	0.05677	0.102
Mof_O 	O 	0.5729	0.2025	0.96847	-0.394
Mof_O 	O 	0.5459	0.0777	0.97227	-0.397
Mof_Cu	Cu	0.75618	0.32148	0.16486	0.914
Mof_O 	O 	0.6553	0.2712	0.20007	-0.347
Mof_O 	O 	0.7618	0.3969	0.29217	-0.327
Mof_O 	O 	0.6149	0.2741	0.27107	-0.317
Mof_N 	N 	0.7976	0.3834	0.21867	-0.208
Mof_O 	O 	0.867	0.3786	0.14647	-0.416
Mof_O 	O 	0.9833	0.4914	0.16127	-0.392
Mof_C 	C 	0.6891	0.1432	0.02187	0.193
Mof_C 	C 	0.692	0.087	0.04377	-0.23
Mof_H 	H 	0.6562	0.0601	0.06817	0.108
Mof_C 	C 	0.745	0.065	0.03157	0.126
Mof_H 	H 	0.7413	0.02	0.04667	-0.016
Mof_C 	C 	0.803	0.1004	0.99937	-0.202
Mof_H 	H 	0.8399	0.084	0.99317	0.092
Mof_C 	C 	0.8035	0.1592	0.97817	0.112
Mof_H 	H 	0.8421	0.1867	0.95547	-0.013
Mof_C 	C 	0.7472	0.183	0.98807	-0.208
Mof_H 	H 	0.7489	0.2257	0.97197	0.1
Mof_C 	C 	0.6643	0.298	0.24137	0.23
Mof_C 	C 	0.749	0.3661	0.25307	0.109
Mof_C 	C 	0.8799	0.4419	0.21877	-0.139
Mof_H 	H 	0.9068	0.4281	0.24287	0.082
Mof_C 	C 	0.914	0.4371	0.17017	0.323
Mof_C 	C 	0.8968	0.5256	0.22727	0.134
Mof_C 	C 	0.8607	0.5568	0.20207	-0.153
Mof_H 	H 	0.8197	0.5242	0.18177	0.087
Mof_C 	C 	0.8833	0.636	0.20587	0.043
Mof_H 	H 	0.86	0.6569	0.18617	0.009
Mof_C 	C 	0.94	0.687	0.23787	-0.116
Mof_H 	H 	0.9544	0.74	0.24097	0.064
Mof_C 	C 	0.973	0.649	0.26547	0.044
Mof_H 	H 	0.0089	0.6788	0.28907	0.012
Mof_C 	C 	0.9542	0.5732	0.25867	-0.146
Mof_H 	H 	0.9808	0.5527	0.27567	0.082
Mof_Ni	Ni	0.51195	0.02843	0.9063	1.1
Mof_N 	N 	0.4034	0.0013	0.91787	-0.251
Mof_H 	H 	0.3714	0.9583	0.89577	0.084
Mof_N 	N 	0.4896	0.9291	0.93677	-0.246
Mof_H 	H 	0.4619	0.8866	0.91367	0.088
Mof_C 	C 	0.369	0.9	0.96797	-0.218
Mof_H 	H 	0.3359	0.8761	0.99527	0.093
Mof_H 	H 	0.3429	0.8637	0.94217	0.097
Mof_N 	N 	0.5358	0.1341	0.87617	-0.23
Mof_H 	H 	0.5553	0.1742	0.90097	0.096
Mof_C 	C 	0.447	0.903	0.97637	0.03
Mof_H 	H 	0.4752	0.9379	0.00207	0.027
Mof_H 	H 	0.4372	0.8493	0.98387	0.025
Mof_C 	C 	0.464	0.1225	0.86357	-0.061
Mof_H 	H 	0.449	0.0978	0.83287	0.046
Mof_H 	H 	0.4637	0.1724	0.86287	0.048
Mof_C 	C 	0.368	0.976	0.95737	0.048
Mof_H 	H 	0.3131	0.9654	0.95557	0.013
Mof_H 	H 	0.3955	0.0156	0.98157	0.016
Mof_C 	C 	0.591	0.165	0.83997	-0.008
Mof_H 	H 	0.6019	0.2191	0.83267	0.04
Mof_H 	H 	0.5693	0.1328	0.81237	0.04
Mof_C 	C 	0.677	0.097	0.86627	0.022
Mof_H 	H 	0.6659	0.0641	0.83897	0.028
Mof_H 	H 	0.7324	0.1167	0.87517	0.019
Mof_C 	C 	0.669	0.169	0.85367	-0.198
Mof_H 	H 	0.7051	0.1947	0.82777	0.086
Mof_H 	H 	0.6897	0.2052	0.87957	0.094
Mof_C 	C 	0.562	0.936	0.94287	-0.062
Mof_H 	H 	0.5535	0.8827	0.94737	0.055
Mof_H 	H 	0.5833	0.9648	0.97197	0.048
Mof_N 	N 	0.6307	0.0549	0.90007	-0.225
Mof_H 	H 	0.657	0.0853	0.92827	0.081
Mof_C 	C 	0.406	0.067	0.89977	-0.106
Mof_H 	H 	0.4117	0.1008	0.92617	0.059
Mof_H 	H 	0.3531	0.049	0.88717	0.056
Mof_C 	C 	0.625	0.975	0.90707	-0.108
Mof_H 	H 	0.6106	0.9451	0.87837	0.061
Mof_H 	H 	0.6759	0.9824	0.91807	0.059
_end
