data_functionalizedCrystal
_audit_creation_method	'EQeq! by Chris Wilmer'
_symmetry_space_group_name_H-M	'P1'
_symmetry_Int_Tables_number	1
_symmetry_cell_setting	triclinic
loop_
_symmetry_equiv_pos_as_xyz
  x,y,z
_cell_length_a	18.1712
_cell_length_b	18.1712
_cell_length_c	19.7581
_cell_angle_alpha	90
_cell_angle_beta	90
_cell_angle_gamma	120
loop_
_atom_site_label
_atom_site_type_symbol
_atom_site_fract_x
_atom_site_fract_y
_atom_site_fract_z
_atom_site_charge
Mof_Tb	Tb	0.58274	0.49181	0.55565	2.38
Mof_O 	O 	0.67016	0.42537	0.7024	-0.578
Mof_O 	O 	0.68356	0.63493	0.51999	-0.55
Mof_C 	C 	0.6458	0.4689	0.84601	-0.413
Mof_H 	H 	0.6452	0.415	0.8409	0.145
Mof_C 	C 	0.6528	0.516	0.78056	-0.429
Mof_H 	H 	0.6246	0.55	0.7829	0.168
Mof_C 	C 	0.7286	0.5479	0.82787	0.798
Mof_C 	C 	0.6485	0.4798	0.71213	0.593
Mof_C 	C 	0.6336	0.6454	0.48285	0.469
Mof_C 	C 	0.5901	0.4711	0.90066	0.568
Mof_C 	C 	0.6629	0.7319	0.4521	-0.119
Mof_H 	H 	0.7181	0.7761	0.4692	0.001
Mof_C 	C 	0.6079	0.7669	0.4242	-0.118
Mof_H 	H 	0.6364	0.829	0.427	0.019
Mof_C 	C 	0.8013	0.5341	0.8115	-1.38
Mof_H 	H 	0.8272	0.5303	0.8527	0.422
Mof_H 	H 	0.8426	0.581	0.785	0.407
Mof_H 	H 	0.7809	0.4824	0.7862	0.447
Mof_C 	C 	0.6528	0.7364	0.3744	0.088
Mof_C 	C 	0.756	0.631	0.8635	-1.344
Mof_H 	H 	0.707	0.636	0.8734	0.422
Mof_H 	H 	0.7941	0.6772	0.8349	0.391
Mof_H 	H 	0.7844	0.6327	0.9049	0.41
Mof_C 	C 	0.6058	0.6562	0.3323	-0.21
Mof_H 	H 	0.5691	0.6624	0.3007	-0.113
Mof_H 	H 	0.5725	0.6087	0.3615	0
Mof_H 	H 	0.646	0.6467	0.308	0.047
Mof_C 	C 	0.7294	0.8081	0.3396	-0.988
Mof_H 	H 	0.7572	0.7851	0.3128	0.28
Mof_H 	H 	0.7682	0.8459	0.3731	0.39
Mof_H 	H 	0.7113	0.8387	0.3109	0.353
Mof_O 	O 	0.62191	0.50929	0.66659	-0.621
Mof_O 	O 	0.48166	0.77365	0.43867	-0.689
Mof_C 	C 	0.5123	0.726	0.42735	0.553
Mof_O 	O 	0.46221	0.64998	0.40949	-0.702
Mof_O 	O 	0.57266	0.42032	0.95052	-0.596
Mof_O 	O 	0.56433	0.52293	0.89473	-0.614
Mof_O 	O 	0.56107	0.58299	0.46871	-0.705
Mof_C 	C 	0.6608	0.7313	0.4615	-0.157
Mof_H 	H 	0.7084	0.773	0.4889	0.074
Mof_C 	C 	0.6041	0.7663	0.4367	-0.206
Mof_H 	H 	0.627	0.825	0.4521	0.081
Mof_C 	C 	0.6669	0.7604	0.3894	0.416
Mof_C 	C 	0.6351	0.6915	0.3362	-0.621
Mof_H 	H 	0.6541	0.6522	0.3468	0.209
Mof_H 	H 	0.6567	0.7165	0.2927	0.2
Mof_H 	H 	0.5741	0.6619	0.3352	0.38
Mof_C 	C 	0.7435	0.8427	0.3678	-0.024
Mof_H 	H 	0.7599	0.8835	0.4037	-0.097
Mof_H 	H 	0.7297	0.864	0.3282	-0.08
Mof_H 	H 	0.7896	0.833	0.3577	-0.048
Mof_Tb	Tb	0.50819	0.09093	0.55565	2.379
Mof_O 	O 	0.57463	0.24479	0.7024	-0.579
Mof_O 	O 	0.36507	0.04863	0.51999	-0.551
Mof_C 	C 	0.5311	0.1769	0.84601	-0.414
Mof_H 	H 	0.585	0.2302	0.8409	0.145
Mof_C 	C 	0.484	0.1368	0.78056	-0.43
Mof_H 	H 	0.45	0.0746	0.7829	0.168
Mof_C 	C 	0.4521	0.1807	0.82787	0.798
Mof_C 	C 	0.5202	0.1687	0.71213	0.593
Mof_C 	C 	0.3546	0.9882	0.48285	0.469
Mof_C 	C 	0.5289	0.119	0.90066	0.567
Mof_C 	C 	0.2681	0.931	0.4521	-0.12
Mof_H 	H 	0.2239	0.942	0.4692	-0.004
Mof_C 	C 	0.2331	0.841	0.4242	-0.118
Mof_H 	H 	0.171	0.8074	0.427	0.02
Mof_C 	C 	0.4659	0.2672	0.8115	-1.38
Mof_H 	H 	0.4697	0.2969	0.8527	0.422
Mof_H 	H 	0.419	0.2616	0.785	0.407
Mof_H 	H 	0.5176	0.2985	0.7862	0.447
Mof_C 	C 	0.2636	0.9164	0.3744	0.089
Mof_C 	C 	0.369	0.125	0.8635	-1.346
Mof_H 	H 	0.364	0.071	0.8734	0.424
Mof_H 	H 	0.3228	0.1169	0.8349	0.392
Mof_H 	H 	0.3673	0.1517	0.9049	0.411
Mof_C 	C 	0.3438	0.9496	0.3323	-0.21
Mof_H 	H 	0.3376	0.9067	0.3007	-0.112
Mof_H 	H 	0.3913	0.9638	0.3615	0.001
Mof_H 	H 	0.3533	0.9993	0.308	0.048
Mof_C 	C 	0.1919	0.9213	0.3396	-0.989
Mof_H 	H 	0.2149	0.9721	0.3128	0.28
Mof_H 	H 	0.1541	0.9223	0.3731	0.391
Mof_H 	H 	0.1613	0.8726	0.3109	0.353
Mof_O 	O 	0.49071	0.11262	0.66659	-0.621
Mof_O 	O 	0.22635	0.70801	0.43867	-0.689
Mof_C 	C 	0.274	0.7863	0.42735	0.553
Mof_O 	O 	0.35002	0.81223	0.40949	-0.702
Mof_O 	O 	0.57968	0.15234	0.95052	-0.594
Mof_O 	O 	0.47707	0.0414	0.89473	-0.612
Mof_O 	O 	0.41701	0.97808	0.46871	-0.705
Mof_C 	C 	0.2687	0.9295	0.4615	-0.156
Mof_H 	H 	0.227	0.9354	0.4889	0.079
Mof_C 	C 	0.2337	0.8378	0.4367	-0.206
Mof_H 	H 	0.175	0.802	0.4521	0.081
Mof_C 	C 	0.2396	0.9065	0.3894	0.415
Mof_C 	C 	0.3085	0.9436	0.3362	-0.62
Mof_H 	H 	0.3478	0.0019	0.3468	0.208
Mof_H 	H 	0.2835	0.9402	0.2927	0.2
Mof_H 	H 	0.3381	0.9122	0.3352	0.379
Mof_C 	C 	0.1573	0.9008	0.3678	-0.025
Mof_H 	H 	0.1165	0.8764	0.4037	-0.097
Mof_H 	H 	0.136	0.8657	0.3282	-0.08
Mof_H 	H 	0.167	0.9566	0.3577	-0.048
Mof_Tb	Tb	0.90907	0.41726	0.55565	2.379
Mof_O 	O 	0.75521	0.32984	0.7024	-0.579
Mof_O 	O 	0.95137	0.31644	0.51999	-0.551
Mof_C 	C 	0.8231	0.3542	0.84601	-0.414
Mof_H 	H 	0.7698	0.3548	0.8409	0.145
Mof_C 	C 	0.8632	0.3472	0.78056	-0.43
Mof_H 	H 	0.9254	0.3754	0.7829	0.168
Mof_C 	C 	0.8193	0.2714	0.82787	0.799
Mof_C 	C 	0.8313	0.3515	0.71213	0.593
Mof_C 	C 	0.0118	0.3664	0.48285	0.469
Mof_C 	C 	0.881	0.4099	0.90066	0.567
Mof_C 	C 	0.069	0.3371	0.4521	-0.12
Mof_H 	H 	0.058	0.2819	0.4692	-0.004
Mof_C 	C 	0.159	0.3921	0.4242	-0.118
Mof_H 	H 	0.1926	0.3636	0.427	0.02
Mof_C 	C 	0.7328	0.1987	0.8115	-1.382
Mof_H 	H 	0.7031	0.1728	0.8527	0.423
Mof_H 	H 	0.7384	0.1574	0.785	0.408
Mof_H 	H 	0.7015	0.2191	0.7862	0.448
Mof_C 	C 	0.0836	0.3472	0.3744	0.089
Mof_C 	C 	0.875	0.244	0.8635	-1.347
Mof_H 	H 	0.929	0.293	0.8734	0.424
Mof_H 	H 	0.8831	0.2059	0.8349	0.392
Mof_H 	H 	0.8483	0.2156	0.9049	0.411
Mof_C 	C 	0.0504	0.3942	0.3323	-0.21
Mof_H 	H 	0.0933	0.4309	0.3007	-0.112
Mof_H 	H 	0.0362	0.4275	0.3615	0.001
Mof_H 	H 	0.0007	0.354	0.308	0.048
Mof_C 	C 	0.0787	0.2706	0.3396	-0.988
Mof_H 	H 	0.0279	0.2428	0.3128	0.28
Mof_H 	H 	0.0777	0.2318	0.3731	0.391
Mof_H 	H 	0.1274	0.2887	0.3109	0.353
Mof_O 	O 	0.88738	0.37809	0.66659	-0.621
Mof_O 	O 	0.29199	0.51834	0.43867	-0.689
Mof_C 	C 	0.2137	0.4877	0.42735	0.553
Mof_O 	O 	0.18777	0.53779	0.40949	-0.702
Mof_O 	O 	0.84766	0.42734	0.95052	-0.594
Mof_O 	O 	0.9586	0.43567	0.89473	-0.612
Mof_O 	O 	0.02192	0.43893	0.46871	-0.705
Mof_C 	C 	0.0705	0.3392	0.4615	-0.156
Mof_H 	H 	0.0646	0.2916	0.4889	0.079
Mof_C 	C 	0.1622	0.3959	0.4367	-0.206
Mof_H 	H 	0.198	0.373	0.4521	0.081
Mof_C 	C 	0.0935	0.3331	0.3894	0.415
Mof_C 	C 	0.0564	0.3649	0.3362	-0.62
Mof_H 	H 	0.9981	0.3459	0.3468	0.207
Mof_H 	H 	0.0598	0.3433	0.2927	0.2
Mof_H 	H 	0.0878	0.4259	0.3352	0.379
Mof_C 	C 	0.0992	0.2565	0.3678	-0.025
Mof_H 	H 	0.1236	0.2401	0.4037	-0.097
Mof_H 	H 	0.1343	0.2703	0.3282	-0.08
Mof_H 	H 	0.0434	0.2104	0.3577	-0.048
Mof_Tb	Tb	0.49181	0.58274	0.94435	2.378
Mof_O 	O 	0.42537	0.67016	0.7976	-0.579
Mof_O 	O 	0.63493	0.68356	0.98001	-0.551
Mof_C 	C 	0.4689	0.6458	0.65399	-0.414
Mof_H 	H 	0.415	0.6452	0.6591	0.145
Mof_C 	C 	0.516	0.6528	0.71944	-0.429
Mof_H 	H 	0.55	0.6246	0.7171	0.168
Mof_C 	C 	0.5479	0.7286	0.67213	0.797
Mof_C 	C 	0.4798	0.6485	0.78787	0.593
Mof_C 	C 	0.6454	0.6336	0.01715	0.469
Mof_C 	C 	0.4711	0.5901	0.59934	0.568
Mof_C 	C 	0.7319	0.6629	0.0479	-0.12
Mof_H 	H 	0.7761	0.7181	0.0308	-0.001
Mof_C 	C 	0.7669	0.6079	0.0758	-0.118
Mof_H 	H 	0.829	0.6364	0.073	0.019
Mof_C 	C 	0.5341	0.8013	0.6885	-1.378
Mof_H 	H 	0.5303	0.8272	0.6473	0.421
Mof_H 	H 	0.581	0.8426	0.715	0.407
Mof_H 	H 	0.4824	0.7809	0.7138	0.447
Mof_C 	C 	0.7364	0.6528	0.1256	0.088
Mof_C 	C 	0.631	0.756	0.6365	-1.342
Mof_H 	H 	0.636	0.707	0.6266	0.422
Mof_H 	H 	0.6772	0.7941	0.6651	0.39
Mof_H 	H 	0.6327	0.7844	0.5951	0.409
Mof_C 	C 	0.6562	0.6058	0.1677	-0.211
Mof_H 	H 	0.6624	0.5691	0.1993	-0.113
Mof_H 	H 	0.6087	0.5725	0.1385	0
Mof_H 	H 	0.6467	0.646	0.192	0.047
Mof_C 	C 	0.8081	0.7294	0.1604	-0.988
Mof_H 	H 	0.7851	0.7572	0.1872	0.28
Mof_H 	H 	0.8459	0.7682	0.1269	0.39
Mof_H 	H 	0.8387	0.7113	0.1891	0.353
Mof_O 	O 	0.50929	0.62191	0.83341	-0.621
Mof_O 	O 	0.77365	0.48166	0.06133	-0.689
Mof_C 	C 	0.726	0.5123	0.07265	0.552
Mof_O 	O 	0.64998	0.46221	0.09051	-0.702
Mof_O 	O 	0.42032	0.57266	0.54948	-0.596
Mof_O 	O 	0.52293	0.56433	0.60527	-0.614
Mof_O 	O 	0.58299	0.56107	0.03129	-0.705
Mof_C 	C 	0.7313	0.6608	0.0385	-0.157
Mof_H 	H 	0.773	0.7084	0.0111	0.077
Mof_C 	C 	0.7663	0.6041	0.0633	-0.206
Mof_H 	H 	0.825	0.627	0.0479	0.081
Mof_C 	C 	0.7604	0.6669	0.1106	0.416
Mof_C 	C 	0.6915	0.6351	0.1638	-0.622
Mof_H 	H 	0.6522	0.6541	0.1532	0.21
Mof_H 	H 	0.7165	0.6567	0.2073	0.2
Mof_H 	H 	0.6619	0.5741	0.1648	0.38
Mof_C 	C 	0.8427	0.7435	0.1322	-0.024
Mof_H 	H 	0.8835	0.7599	0.0963	-0.098
Mof_H 	H 	0.864	0.7297	0.1718	-0.08
Mof_H 	H 	0.833	0.7896	0.1423	-0.048
Mof_Tb	Tb	0.09093	0.50819	0.94435	2.375
Mof_O 	O 	0.24479	0.57463	0.7976	-0.579
Mof_O 	O 	0.04863	0.36507	0.98001	-0.551
Mof_C 	C 	0.1769	0.5311	0.65399	-0.414
Mof_H 	H 	0.2302	0.585	0.6591	0.145
Mof_C 	C 	0.1368	0.484	0.71944	-0.429
Mof_H 	H 	0.0746	0.45	0.7171	0.167
Mof_C 	C 	0.1807	0.4521	0.67213	0.796
Mof_C 	C 	0.1687	0.5202	0.78787	0.592
Mof_C 	C 	0.9882	0.3546	0.01715	0.467
Mof_C 	C 	0.119	0.5289	0.59934	0.568
Mof_C 	C 	0.931	0.2681	0.0479	-0.12
Mof_H 	H 	0.942	0.2239	0.0308	-0.011
Mof_C 	C 	0.841	0.2331	0.0758	-0.118
Mof_H 	H 	0.8074	0.171	0.073	0.02
Mof_C 	C 	0.2672	0.4659	0.6885	-1.378
Mof_H 	H 	0.2969	0.4697	0.6473	0.421
Mof_H 	H 	0.2616	0.419	0.715	0.407
Mof_H 	H 	0.2985	0.5176	0.7138	0.447
Mof_C 	C 	0.9164	0.2636	0.1256	0.088
Mof_C 	C 	0.125	0.369	0.6365	-1.341
Mof_H 	H 	0.071	0.364	0.6266	0.421
Mof_H 	H 	0.1169	0.3228	0.6651	0.39
Mof_H 	H 	0.1517	0.3673	0.5951	0.409
Mof_C 	C 	0.9496	0.3438	0.1677	-0.214
Mof_H 	H 	0.9067	0.3376	0.1993	-0.114
Mof_H 	H 	0.9638	0.3913	0.1385	-0
Mof_H 	H 	0.9993	0.3533	0.192	0.045
Mof_C 	C 	0.9213	0.1919	0.1604	-0.991
Mof_H 	H 	0.9721	0.2149	0.1872	0.28
Mof_H 	H 	0.9223	0.1541	0.1269	0.391
Mof_H 	H 	0.8726	0.1613	0.1891	0.354
Mof_O 	O 	0.11262	0.49071	0.83341	-0.621
Mof_O 	O 	0.70801	0.22635	0.06133	-0.689
Mof_C 	C 	0.7863	0.274	0.07265	0.553
Mof_O 	O 	0.81223	0.35002	0.09051	-0.702
Mof_O 	O 	0.15234	0.57968	0.54948	-0.596
Mof_O 	O 	0.0414	0.47707	0.60527	-0.615
Mof_O 	O 	0.97808	0.41701	0.03129	-0.705
Mof_C 	C 	0.9295	0.2687	0.0385	-0.156
Mof_H 	H 	0.9354	0.227	0.0111	0.085
Mof_C 	C 	0.8378	0.2337	0.0633	-0.207
Mof_H 	H 	0.802	0.175	0.0479	0.08
Mof_C 	C 	0.9065	0.2396	0.1106	0.42
Mof_C 	C 	0.9436	0.3085	0.1638	-0.628
Mof_H 	H 	0.0019	0.3478	0.1532	0.215
Mof_H 	H 	0.9402	0.2835	0.2073	0.203
Mof_H 	H 	0.9122	0.3381	0.1648	0.385
Mof_C 	C 	0.9008	0.1573	0.1322	-0.024
Mof_H 	H 	0.8764	0.1165	0.0963	-0.098
Mof_H 	H 	0.8657	0.136	0.1718	-0.08
Mof_H 	H 	0.9566	0.167	0.1423	-0.049
Mof_Tb	Tb	0.41726	0.90907	0.94435	2.375
Mof_O 	O 	0.32984	0.75521	0.7976	-0.579
Mof_O 	O 	0.31644	0.95137	0.98001	-0.553
Mof_C 	C 	0.3542	0.8231	0.65399	-0.414
Mof_H 	H 	0.3548	0.7698	0.6591	0.145
Mof_C 	C 	0.3472	0.8632	0.71944	-0.429
Mof_H 	H 	0.3754	0.9254	0.7171	0.167
Mof_C 	C 	0.2714	0.8193	0.67213	0.796
Mof_C 	C 	0.3515	0.8313	0.78787	0.592
Mof_C 	C 	0.3664	0.0118	0.01715	0.47
Mof_C 	C 	0.4099	0.881	0.59934	0.568
Mof_C 	C 	0.3371	0.069	0.0479	-0.119
Mof_H 	H 	0.2819	0.058	0.0308	0.007
Mof_C 	C 	0.3921	0.159	0.0758	-0.118
Mof_H 	H 	0.3636	0.1926	0.073	0.019
Mof_C 	C 	0.1987	0.7328	0.6885	-1.378
Mof_H 	H 	0.1728	0.7031	0.6473	0.421
Mof_H 	H 	0.1574	0.7384	0.715	0.406
Mof_H 	H 	0.2191	0.7015	0.7138	0.447
Mof_C 	C 	0.3472	0.0836	0.1256	0.086
Mof_C 	C 	0.244	0.875	0.6365	-1.341
Mof_H 	H 	0.293	0.929	0.6266	0.421
Mof_H 	H 	0.2059	0.8831	0.6651	0.389
Mof_H 	H 	0.2156	0.8483	0.5951	0.408
Mof_C 	C 	0.3942	0.0504	0.1677	-0.212
Mof_H 	H 	0.4309	0.0933	0.1993	-0.113
Mof_H 	H 	0.4275	0.0362	0.1385	-0
Mof_H 	H 	0.354	0.0007	0.192	0.045
Mof_C 	C 	0.2706	0.0787	0.1604	-0.989
Mof_H 	H 	0.2428	0.0279	0.1872	0.28
Mof_H 	H 	0.2318	0.0777	0.1269	0.39
Mof_H 	H 	0.2887	0.1274	0.1891	0.353
Mof_O 	O 	0.37809	0.88738	0.83341	-0.621
Mof_O 	O 	0.51834	0.29199	0.06133	-0.689
Mof_C 	C 	0.4877	0.2137	0.07265	0.552
Mof_O 	O 	0.53779	0.18777	0.09051	-0.702
Mof_O 	O 	0.42734	0.84766	0.54948	-0.596
Mof_O 	O 	0.43567	0.9586	0.60527	-0.615
Mof_O 	O 	0.43893	0.02192	0.03129	-0.705
Mof_C 	C 	0.3392	0.0705	0.0385	-0.159
Mof_H 	H 	0.2916	0.0646	0.0111	0.069
Mof_C 	C 	0.3959	0.1622	0.0633	-0.206
Mof_H 	H 	0.373	0.198	0.0479	0.082
Mof_C 	C 	0.3331	0.0935	0.1106	0.419
Mof_C 	C 	0.3649	0.0564	0.1638	-0.626
Mof_H 	H 	0.3459	0.9981	0.1532	0.214
Mof_H 	H 	0.3433	0.0598	0.2073	0.202
Mof_H 	H 	0.4259	0.0878	0.1648	0.383
Mof_C 	C 	0.2565	0.0992	0.1322	-0.024
Mof_H 	H 	0.2401	0.1236	0.0963	-0.098
Mof_H 	H 	0.2703	0.1343	0.1718	-0.08
Mof_H 	H 	0.2104	0.0434	0.1423	-0.048
Mof_Tb	Tb	0.41726	0.50819	0.44435	2.379
Mof_O 	O 	0.32984	0.57463	0.2976	-0.579
Mof_O 	O 	0.31644	0.36507	0.48001	-0.551
Mof_C 	C 	0.3542	0.5311	0.15399	-0.414
Mof_H 	H 	0.3548	0.585	0.1591	0.145
Mof_C 	C 	0.3472	0.484	0.21944	-0.429
Mof_H 	H 	0.3754	0.45	0.2171	0.168
Mof_C 	C 	0.2714	0.4521	0.17213	0.798
Mof_C 	C 	0.3515	0.5202	0.28787	0.593
Mof_C 	C 	0.3664	0.3546	0.51715	0.469
Mof_C 	C 	0.4099	0.5289	0.09934	0.568
Mof_C 	C 	0.3371	0.2681	0.5479	-0.119
Mof_H 	H 	0.2819	0.2239	0.5308	0.001
Mof_C 	C 	0.3921	0.2331	0.5758	-0.118
Mof_H 	H 	0.3636	0.171	0.573	0.019
Mof_C 	C 	0.1987	0.4659	0.1885	-1.38
Mof_H 	H 	0.1728	0.4697	0.1473	0.422
Mof_H 	H 	0.1574	0.419	0.215	0.407
Mof_H 	H 	0.2191	0.5176	0.2138	0.447
Mof_C 	C 	0.3472	0.2636	0.6256	0.088
Mof_C 	C 	0.244	0.369	0.1365	-1.344
Mof_H 	H 	0.293	0.364	0.1266	0.422
Mof_H 	H 	0.2059	0.3228	0.1651	0.391
Mof_H 	H 	0.2156	0.3673	0.0951	0.41
Mof_C 	C 	0.3942	0.3438	0.6677	-0.21
Mof_H 	H 	0.4309	0.3376	0.6993	-0.113
Mof_H 	H 	0.4275	0.3913	0.6385	0
Mof_H 	H 	0.354	0.3533	0.692	0.047
Mof_C 	C 	0.2706	0.1919	0.6604	-0.988
Mof_H 	H 	0.2428	0.2149	0.6872	0.28
Mof_H 	H 	0.2318	0.1541	0.6269	0.39
Mof_H 	H 	0.2887	0.1613	0.6891	0.353
Mof_O 	O 	0.37809	0.49071	0.33341	-0.621
Mof_O 	O 	0.51834	0.22635	0.56133	-0.689
Mof_C 	C 	0.4877	0.274	0.57265	0.553
Mof_O 	O 	0.53779	0.35002	0.59051	-0.702
Mof_O 	O 	0.42734	0.57968	0.04948	-0.596
Mof_O 	O 	0.43567	0.47707	0.10527	-0.614
Mof_O 	O 	0.43893	0.41701	0.53129	-0.705
Mof_C 	C 	0.3392	0.2687	0.5385	-0.157
Mof_H 	H 	0.2916	0.227	0.5111	0.074
Mof_C 	C 	0.3959	0.2337	0.5633	-0.206
Mof_H 	H 	0.373	0.175	0.5479	0.081
Mof_C 	C 	0.3331	0.2396	0.6106	0.416
Mof_C 	C 	0.3649	0.3085	0.6638	-0.621
Mof_H 	H 	0.3459	0.3478	0.6532	0.209
Mof_H 	H 	0.3433	0.2835	0.7073	0.2
Mof_H 	H 	0.4259	0.3381	0.6648	0.38
Mof_C 	C 	0.2565	0.1573	0.6322	-0.024
Mof_H 	H 	0.2401	0.1165	0.5963	-0.097
Mof_H 	H 	0.2703	0.136	0.6718	-0.08
Mof_H 	H 	0.2104	0.167	0.6423	-0.048
Mof_Tb	Tb	0.49181	0.90907	0.44435	2.379
Mof_O 	O 	0.42537	0.75521	0.2976	-0.579
Mof_O 	O 	0.63493	0.95137	0.48001	-0.551
Mof_C 	C 	0.4689	0.8231	0.15399	-0.414
Mof_H 	H 	0.415	0.7698	0.1591	0.145
Mof_C 	C 	0.516	0.8632	0.21944	-0.43
Mof_H 	H 	0.55	0.9254	0.2171	0.168
Mof_C 	C 	0.5479	0.8193	0.17213	0.798
Mof_C 	C 	0.4798	0.8313	0.28787	0.593
Mof_C 	C 	0.6454	0.0118	0.51715	0.469
Mof_C 	C 	0.4711	0.881	0.09934	0.567
Mof_C 	C 	0.7319	0.069	0.5479	-0.12
Mof_H 	H 	0.7761	0.058	0.5308	-0.004
Mof_C 	C 	0.7669	0.159	0.5758	-0.118
Mof_H 	H 	0.829	0.1926	0.573	0.02
Mof_C 	C 	0.5341	0.7328	0.1885	-1.38
Mof_H 	H 	0.5303	0.7031	0.1473	0.422
Mof_H 	H 	0.581	0.7384	0.215	0.407
Mof_H 	H 	0.4824	0.7015	0.2138	0.447
Mof_C 	C 	0.7364	0.0836	0.6256	0.089
Mof_C 	C 	0.631	0.875	0.1365	-1.346
Mof_H 	H 	0.636	0.929	0.1266	0.424
Mof_H 	H 	0.6772	0.8831	0.1651	0.392
Mof_H 	H 	0.6327	0.8483	0.0951	0.411
Mof_C 	C 	0.6562	0.0504	0.6677	-0.21
Mof_H 	H 	0.6624	0.0933	0.6993	-0.112
Mof_H 	H 	0.6087	0.0362	0.6385	0.001
Mof_H 	H 	0.6467	0.0007	0.692	0.048
Mof_C 	C 	0.8081	0.0787	0.6604	-0.989
Mof_H 	H 	0.7851	0.0279	0.6872	0.28
Mof_H 	H 	0.8459	0.0777	0.6269	0.391
Mof_H 	H 	0.8387	0.1274	0.6891	0.353
Mof_O 	O 	0.50929	0.88738	0.33341	-0.621
Mof_O 	O 	0.77365	0.29199	0.56133	-0.689
Mof_C 	C 	0.726	0.2137	0.57265	0.553
Mof_O 	O 	0.64998	0.18777	0.59051	-0.702
Mof_O 	O 	0.42032	0.84766	0.04948	-0.594
Mof_O 	O 	0.52293	0.9586	0.10527	-0.612
Mof_O 	O 	0.58299	0.02192	0.53129	-0.705
Mof_C 	C 	0.7313	0.0705	0.5385	-0.156
Mof_H 	H 	0.773	0.0646	0.5111	0.079
Mof_C 	C 	0.7663	0.1622	0.5633	-0.206
Mof_H 	H 	0.825	0.198	0.5479	0.081
Mof_C 	C 	0.7604	0.0935	0.6106	0.415
Mof_C 	C 	0.6915	0.0564	0.6638	-0.62
Mof_H 	H 	0.6522	0.9981	0.6532	0.208
Mof_H 	H 	0.7165	0.0598	0.7073	0.2
Mof_H 	H 	0.6619	0.0878	0.6648	0.379
Mof_C 	C 	0.8427	0.0992	0.6322	-0.025
Mof_H 	H 	0.8835	0.1236	0.5963	-0.097
Mof_H 	H 	0.864	0.1343	0.6718	-0.08
Mof_H 	H 	0.833	0.0434	0.6423	-0.048
Mof_Tb	Tb	0.09093	0.58274	0.44435	2.379
Mof_O 	O 	0.24479	0.67016	0.2976	-0.579
Mof_O 	O 	0.04863	0.68356	0.48001	-0.551
Mof_C 	C 	0.1769	0.6458	0.15399	-0.414
Mof_H 	H 	0.2302	0.6452	0.1591	0.145
Mof_C 	C 	0.1368	0.6528	0.21944	-0.43
Mof_H 	H 	0.0746	0.6246	0.2171	0.168
Mof_C 	C 	0.1807	0.7286	0.17213	0.799
Mof_C 	C 	0.1687	0.6485	0.28787	0.593
Mof_C 	C 	0.9882	0.6336	0.51715	0.469
Mof_C 	C 	0.119	0.5901	0.09934	0.567
Mof_C 	C 	0.931	0.6629	0.5479	-0.12
Mof_H 	H 	0.942	0.7181	0.5308	-0.004
Mof_C 	C 	0.841	0.6079	0.5758	-0.118
Mof_H 	H 	0.8074	0.6364	0.573	0.02
Mof_C 	C 	0.2672	0.8013	0.1885	-1.382
Mof_H 	H 	0.2969	0.8272	0.1473	0.423
Mof_H 	H 	0.2616	0.8426	0.215	0.408
Mof_H 	H 	0.2985	0.7809	0.2138	0.448
Mof_C 	C 	0.9164	0.6528	0.6256	0.089
Mof_C 	C 	0.125	0.756	0.1365	-1.347
Mof_H 	H 	0.071	0.707	0.1266	0.424
Mof_H 	H 	0.1169	0.7941	0.1651	0.392
Mof_H 	H 	0.1517	0.7844	0.0951	0.411
Mof_C 	C 	0.9496	0.6058	0.6677	-0.21
Mof_H 	H 	0.9067	0.5691	0.6993	-0.112
Mof_H 	H 	0.9638	0.5725	0.6385	0.001
Mof_H 	H 	0.9993	0.646	0.692	0.048
Mof_C 	C 	0.9213	0.7294	0.6604	-0.988
Mof_H 	H 	0.9721	0.7572	0.6872	0.28
Mof_H 	H 	0.9223	0.7682	0.6269	0.391
Mof_H 	H 	0.8726	0.7113	0.6891	0.353
Mof_O 	O 	0.11262	0.62191	0.33341	-0.621
Mof_O 	O 	0.70801	0.48166	0.56133	-0.689
Mof_C 	C 	0.7863	0.5123	0.57265	0.553
Mof_O 	O 	0.81223	0.46221	0.59051	-0.702
Mof_O 	O 	0.15234	0.57266	0.04948	-0.594
Mof_O 	O 	0.0414	0.56433	0.10527	-0.612
Mof_O 	O 	0.97808	0.56107	0.53129	-0.705
Mof_C 	C 	0.9295	0.6608	0.5385	-0.156
Mof_H 	H 	0.9354	0.7084	0.5111	0.079
Mof_C 	C 	0.8378	0.6041	0.5633	-0.206
Mof_H 	H 	0.802	0.627	0.5479	0.081
Mof_C 	C 	0.9065	0.6669	0.6106	0.415
Mof_C 	C 	0.9436	0.6351	0.6638	-0.62
Mof_H 	H 	0.0019	0.6541	0.6532	0.207
Mof_H 	H 	0.9402	0.6567	0.7073	0.2
Mof_H 	H 	0.9122	0.5741	0.6648	0.379
Mof_C 	C 	0.9008	0.7435	0.6322	-0.025
Mof_H 	H 	0.8764	0.7599	0.5963	-0.097
Mof_H 	H 	0.8657	0.7297	0.6718	-0.08
Mof_H 	H 	0.9566	0.7896	0.6423	-0.048
Mof_Tb	Tb	0.50819	0.41726	0.05565	2.378
Mof_O 	O 	0.57463	0.32984	0.2024	-0.579
Mof_O 	O 	0.36507	0.31644	0.01999	-0.551
Mof_C 	C 	0.5311	0.3542	0.34601	-0.414
Mof_H 	H 	0.585	0.3548	0.3409	0.145
Mof_C 	C 	0.484	0.3472	0.28056	-0.429
Mof_H 	H 	0.45	0.3754	0.2829	0.168
Mof_C 	C 	0.4521	0.2714	0.32787	0.797
Mof_C 	C 	0.5202	0.3515	0.21213	0.593
Mof_C 	C 	0.3546	0.3664	0.98285	0.469
Mof_C 	C 	0.5289	0.4099	0.40066	0.568
Mof_C 	C 	0.2681	0.3371	0.9521	-0.12
Mof_H 	H 	0.2239	0.2819	0.9692	-0.001
Mof_C 	C 	0.2331	0.3921	0.9242	-0.118
Mof_H 	H 	0.171	0.3636	0.927	0.019
Mof_C 	C 	0.4659	0.1987	0.3115	-1.378
Mof_H 	H 	0.4697	0.1728	0.3527	0.421
Mof_H 	H 	0.419	0.1574	0.285	0.407
Mof_H 	H 	0.5176	0.2191	0.2862	0.447
Mof_C 	C 	0.2636	0.3472	0.8744	0.088
Mof_C 	C 	0.369	0.244	0.3635	-1.342
Mof_H 	H 	0.364	0.293	0.3734	0.422
Mof_H 	H 	0.3228	0.2059	0.3349	0.39
Mof_H 	H 	0.3673	0.2156	0.4049	0.409
Mof_C 	C 	0.3438	0.3942	0.8323	-0.211
Mof_H 	H 	0.3376	0.4309	0.8007	-0.113
Mof_H 	H 	0.3913	0.4275	0.8615	0
Mof_H 	H 	0.3533	0.354	0.808	0.047
Mof_C 	C 	0.1919	0.2706	0.8396	-0.988
Mof_H 	H 	0.2149	0.2428	0.8128	0.28
Mof_H 	H 	0.1541	0.2318	0.8731	0.39
Mof_H 	H 	0.1613	0.2887	0.8109	0.353
Mof_O 	O 	0.49071	0.37809	0.16659	-0.621
Mof_O 	O 	0.22635	0.51834	0.93867	-0.689
Mof_C 	C 	0.274	0.4877	0.92735	0.552
Mof_O 	O 	0.35002	0.53779	0.90949	-0.702
Mof_O 	O 	0.57968	0.42734	0.45052	-0.596
Mof_O 	O 	0.47707	0.43567	0.39473	-0.614
Mof_O 	O 	0.41701	0.43893	0.96871	-0.705
Mof_C 	C 	0.2687	0.3392	0.9615	-0.157
Mof_H 	H 	0.227	0.2916	0.9889	0.077
Mof_C 	C 	0.2337	0.3959	0.9367	-0.206
Mof_H 	H 	0.175	0.373	0.9521	0.081
Mof_C 	C 	0.2396	0.3331	0.8894	0.416
Mof_C 	C 	0.3085	0.3649	0.8362	-0.622
Mof_H 	H 	0.3478	0.3459	0.8468	0.21
Mof_H 	H 	0.2835	0.3433	0.7927	0.2
Mof_H 	H 	0.3381	0.4259	0.8352	0.38
Mof_C 	C 	0.1573	0.2565	0.8678	-0.024
Mof_H 	H 	0.1165	0.2401	0.9037	-0.098
Mof_H 	H 	0.136	0.2703	0.8282	-0.08
Mof_H 	H 	0.167	0.2104	0.8577	-0.048
Mof_Tb	Tb	0.90907	0.49181	0.05565	2.375
Mof_O 	O 	0.75521	0.42537	0.2024	-0.579
Mof_O 	O 	0.95137	0.63493	0.01999	-0.551
Mof_C 	C 	0.8231	0.4689	0.34601	-0.414
Mof_H 	H 	0.7698	0.415	0.3409	0.145
Mof_C 	C 	0.8632	0.516	0.28056	-0.429
Mof_H 	H 	0.9254	0.55	0.2829	0.167
Mof_C 	C 	0.8193	0.5479	0.32787	0.796
Mof_C 	C 	0.8313	0.4798	0.21213	0.592
Mof_C 	C 	0.0118	0.6454	0.98285	0.467
Mof_C 	C 	0.881	0.4711	0.40066	0.568
Mof_C 	C 	0.069	0.7319	0.9521	-0.12
Mof_H 	H 	0.058	0.7761	0.9692	-0.011
Mof_C 	C 	0.159	0.7669	0.9242	-0.118
Mof_H 	H 	0.1926	0.829	0.927	0.02
Mof_C 	C 	0.7328	0.5341	0.3115	-1.378
Mof_H 	H 	0.7031	0.5303	0.3527	0.421
Mof_H 	H 	0.7384	0.581	0.285	0.407
Mof_H 	H 	0.7015	0.4824	0.2862	0.447
Mof_C 	C 	0.0836	0.7364	0.8744	0.088
Mof_C 	C 	0.875	0.631	0.3635	-1.341
Mof_H 	H 	0.929	0.636	0.3734	0.421
Mof_H 	H 	0.8831	0.6772	0.3349	0.39
Mof_H 	H 	0.8483	0.6327	0.4049	0.409
Mof_C 	C 	0.0504	0.6562	0.8323	-0.214
Mof_H 	H 	0.0933	0.6624	0.8007	-0.114
Mof_H 	H 	0.0362	0.6087	0.8615	-0
Mof_H 	H 	0.0007	0.6467	0.808	0.045
Mof_C 	C 	0.0787	0.8081	0.8396	-0.991
Mof_H 	H 	0.0279	0.7851	0.8128	0.28
Mof_H 	H 	0.0777	0.8459	0.8731	0.391
Mof_H 	H 	0.1274	0.8387	0.8109	0.354
Mof_O 	O 	0.88738	0.50929	0.16659	-0.621
Mof_O 	O 	0.29199	0.77365	0.93867	-0.689
Mof_C 	C 	0.2137	0.726	0.92735	0.553
Mof_O 	O 	0.18777	0.64998	0.90949	-0.702
Mof_O 	O 	0.84766	0.42032	0.45052	-0.596
Mof_O 	O 	0.9586	0.52293	0.39473	-0.615
Mof_O 	O 	0.02192	0.58299	0.96871	-0.705
Mof_C 	C 	0.0705	0.7313	0.9615	-0.156
Mof_H 	H 	0.0646	0.773	0.9889	0.085
Mof_C 	C 	0.1622	0.7663	0.9367	-0.207
Mof_H 	H 	0.198	0.825	0.9521	0.08
Mof_C 	C 	0.0935	0.7604	0.8894	0.42
Mof_C 	C 	0.0564	0.6915	0.8362	-0.628
Mof_H 	H 	0.9981	0.6522	0.8468	0.215
Mof_H 	H 	0.0598	0.7165	0.7927	0.203
Mof_H 	H 	0.0878	0.6619	0.8352	0.385
Mof_C 	C 	0.0992	0.8427	0.8678	-0.024
Mof_H 	H 	0.1236	0.8835	0.9037	-0.098
Mof_H 	H 	0.1343	0.864	0.8282	-0.08
Mof_H 	H 	0.0434	0.833	0.8577	-0.049
Mof_Tb	Tb	0.58274	0.09093	0.05565	2.375
Mof_O 	O 	0.67016	0.24479	0.2024	-0.579
Mof_O 	O 	0.68356	0.04863	0.01999	-0.553
Mof_C 	C 	0.6458	0.1769	0.34601	-0.414
Mof_H 	H 	0.6452	0.2302	0.3409	0.145
Mof_C 	C 	0.6528	0.1368	0.28056	-0.429
Mof_H 	H 	0.6246	0.0746	0.2829	0.167
Mof_C 	C 	0.7286	0.1807	0.32787	0.796
Mof_C 	C 	0.6485	0.1687	0.21213	0.592
Mof_C 	C 	0.6336	0.9882	0.98285	0.47
Mof_C 	C 	0.5901	0.119	0.40066	0.568
Mof_C 	C 	0.6629	0.931	0.9521	-0.119
Mof_H 	H 	0.7181	0.942	0.9692	0.007
Mof_C 	C 	0.6079	0.841	0.9242	-0.118
Mof_H 	H 	0.6364	0.8074	0.927	0.019
Mof_C 	C 	0.8013	0.2672	0.3115	-1.378
Mof_H 	H 	0.8272	0.2969	0.3527	0.421
Mof_H 	H 	0.8426	0.2616	0.285	0.406
Mof_H 	H 	0.7809	0.2985	0.2862	0.447
Mof_C 	C 	0.6528	0.9164	0.8744	0.086
Mof_C 	C 	0.756	0.125	0.3635	-1.341
Mof_H 	H 	0.707	0.071	0.3734	0.421
Mof_H 	H 	0.7941	0.1169	0.3349	0.389
Mof_H 	H 	0.7844	0.1517	0.4049	0.408
Mof_C 	C 	0.6058	0.9496	0.8323	-0.212
Mof_H 	H 	0.5691	0.9067	0.8007	-0.113
Mof_H 	H 	0.5725	0.9638	0.8615	-0
Mof_H 	H 	0.646	0.9993	0.808	0.045
Mof_C 	C 	0.7294	0.9213	0.8396	-0.989
Mof_H 	H 	0.7572	0.9721	0.8128	0.28
Mof_H 	H 	0.7682	0.9223	0.8731	0.39
Mof_H 	H 	0.7113	0.8726	0.8109	0.353
Mof_O 	O 	0.62191	0.11262	0.16659	-0.621
Mof_O 	O 	0.48166	0.70801	0.93867	-0.689
Mof_C 	C 	0.5123	0.7863	0.92735	0.552
Mof_O 	O 	0.46221	0.81223	0.90949	-0.702
Mof_O 	O 	0.57266	0.15234	0.45052	-0.596
Mof_O 	O 	0.56433	0.0414	0.39473	-0.615
Mof_O 	O 	0.56107	0.97808	0.96871	-0.705
Mof_C 	C 	0.6608	0.9295	0.9615	-0.159
Mof_H 	H 	0.7084	0.9354	0.9889	0.069
Mof_C 	C 	0.6041	0.8378	0.9367	-0.206
Mof_H 	H 	0.627	0.802	0.9521	0.082
Mof_C 	C 	0.6669	0.9065	0.8894	0.419
Mof_C 	C 	0.6351	0.9436	0.8362	-0.626
Mof_H 	H 	0.6541	0.0019	0.8468	0.214
Mof_H 	H 	0.6567	0.9402	0.7927	0.202
Mof_H 	H 	0.5741	0.9122	0.8352	0.383
Mof_C 	C 	0.7435	0.9008	0.8678	-0.024
Mof_H 	H 	0.7599	0.8764	0.9037	-0.098
Mof_H 	H 	0.7297	0.8657	0.8282	-0.08
Mof_H 	H 	0.7896	0.9566	0.8577	-0.048
Mof_Tb	Tb	0.66667	0.33333	0.61768	2.092
Mof_Tb	Tb	0.33333	0.66667	0.88232	2.091
Mof_Tb	Tb	0.33333	0.66667	0.38232	2.092
Mof_Tb	Tb	0.66667	0.33333	0.11768	2.091
_end
