data_functionalizedCrystal
_audit_creation_method	'EQeq! by Chris Wilmer'
_symmetry_space_group_name_H-M	'P1'
_symmetry_Int_Tables_number	1
_symmetry_cell_setting	triclinic
loop_
_symmetry_equiv_pos_as_xyz
  x,y,z
_cell_length_a	15.8026
_cell_length_b	16.7756
_cell_length_c	12.8597
_cell_angle_alpha	90
_cell_angle_beta	90
_cell_angle_gamma	90
loop_
_atom_site_label
_atom_site_type_symbol
_atom_site_fract_x
_atom_site_fract_y
_atom_site_fract_z
_atom_site_charge
Mof_O 	O 	0.0902	0.08852	0.7476	-0.409
Mof_O 	O 	0.3988	0.40781	0.7424	-0.386
Mof_O 	O 	0.3087	0.4355	0.6121	-0.38
Mof_O 	O 	0.1331	0.10613	0.91	-0.441
Mof_C 	C 	0.3321	0.3963	0.6901	0.317
Mof_C 	C 	0.2764	0.3293	0.7256	0.028
Mof_C 	C 	0.1309	0.1249	0.8164	0.454
Mof_C 	C 	0.1802	0.1982	0.7851	-0.284
Mof_C 	C 	0.2428	0.2262	0.8482	0.129
Mof_H 	H 	0.253	0.2016	0.9118	-0.021
Mof_C 	C 	0.2915	0.2912	0.8182	-0.167
Mof_H 	H 	0.3347	0.309	0.8613	0.061
Mof_C 	C 	0.2092	0.3028	0.6635	-0.259
Mof_H 	H 	0.1955	0.3309	0.6035	0.128
Mof_C 	C 	0.1628	0.236	0.6891	0.348
Mof_O 	O 	0.1061	0.2114	0.6253	-0.432
Mof_H 	H 	0.0651	0.1935	0.579	0.182
Mof_O 	O 	0.99325	0.01908	0.07985	-0.639
Mof_H 	H 	0.8371	0.0365	0.9482	0.443
Mof_H 	H 	0.8371	0.9473	0.9846	0.408
Mof_H 	H 	0.8371	0.0161	0.0672	0.467
Mof_O 	O 	0.5902	0.58852	0.7476	-0.436
Mof_O 	O 	0.8988	0.90781	0.7424	-0.343
Mof_O 	O 	0.8087	0.9355	0.6121	-0.395
Mof_O 	O 	0.6331	0.60613	0.91	-0.439
Mof_C 	C 	0.8321	0.8963	0.6901	0.314
Mof_C 	C 	0.7764	0.8293	0.7256	0.042
Mof_C 	C 	0.6309	0.6249	0.8164	0.467
Mof_C 	C 	0.6802	0.6982	0.7851	-0.291
Mof_C 	C 	0.7428	0.7262	0.8482	0.143
Mof_H 	H 	0.753	0.7016	0.9118	-0.022
Mof_C 	C 	0.7915	0.7912	0.8182	-0.173
Mof_H 	H 	0.8347	0.809	0.8613	0.076
Mof_C 	C 	0.7092	0.8028	0.6635	-0.265
Mof_H 	H 	0.6955	0.8309	0.6035	0.135
Mof_C 	C 	0.6628	0.736	0.6891	0.36
Mof_O 	O 	0.6061	0.7114	0.6253	-0.435
Mof_H 	H 	0.5651	0.6935	0.579	0.195
Mof_O 	O 	0.49325	0.51908	0.07985	-0.779
Mof_H 	H 	0.3371	0.5365	0.9482	0.554
Mof_H 	H 	0.3371	0.4473	0.9846	0.544
Mof_H 	H 	0.3371	0.5161	0.0672	0.58
Mof_O 	O 	0.9098	0.91148	0.2476	-0.397
Mof_O 	O 	0.6012	0.59219	0.2424	-0.391
Mof_O 	O 	0.6913	0.5645	0.1121	-0.37
Mof_O 	O 	0.8669	0.89387	0.41	-0.418
Mof_C 	C 	0.6679	0.6037	0.1901	0.314
Mof_C 	C 	0.7236	0.6707	0.2256	0.038
Mof_C 	C 	0.8691	0.8751	0.3164	0.465
Mof_C 	C 	0.8198	0.8018	0.2851	-0.275
Mof_C 	C 	0.7572	0.7738	0.3482	0.135
Mof_H 	H 	0.747	0.7984	0.4118	-0.013
Mof_C 	C 	0.7085	0.7088	0.3182	-0.166
Mof_H 	H 	0.6653	0.691	0.3613	0.06
Mof_C 	C 	0.7908	0.6972	0.1635	-0.26
Mof_H 	H 	0.8045	0.6691	0.1035	0.153
Mof_C 	C 	0.8372	0.764	0.1891	0.375
Mof_O 	O 	0.8939	0.7886	0.1253	-0.416
Mof_H 	H 	0.9349	0.8065	0.079	0.228
Mof_O 	O 	0.00675	0.98092	0.57985	-0.855
Mof_H 	H 	0.1629	0.9635	0.4482	0.577
Mof_H 	H 	0.1629	0.0527	0.4846	0.592
Mof_H 	H 	0.1629	0.9839	0.5672	0.581
Mof_O 	O 	0.4098	0.41148	0.2476	-0.422
Mof_O 	O 	0.1012	0.09219	0.2424	-0.392
Mof_O 	O 	0.1913	0.0645	0.1121	-0.364
Mof_O 	O 	0.3669	0.39387	0.41	-0.413
Mof_C 	C 	0.1679	0.1037	0.1901	0.312
Mof_C 	C 	0.2236	0.1707	0.2256	0.039
Mof_C 	C 	0.3691	0.3751	0.3164	0.459
Mof_C 	C 	0.3198	0.3018	0.2851	-0.282
Mof_C 	C 	0.2572	0.2738	0.3482	0.134
Mof_H 	H 	0.247	0.2984	0.4118	-0.014
Mof_C 	C 	0.2085	0.2088	0.3182	-0.169
Mof_H 	H 	0.1653	0.191	0.3613	0.063
Mof_C 	C 	0.2908	0.1972	0.1635	-0.263
Mof_H 	H 	0.3045	0.1691	0.1035	0.151
Mof_C 	C 	0.3372	0.264	0.1891	0.367
Mof_O 	O 	0.3939	0.2886	0.1253	-0.424
Mof_H 	H 	0.4349	0.3065	0.079	0.21
Mof_O 	O 	0.50675	0.48092	0.57985	-0.863
Mof_H 	H 	0.6629	0.4635	0.4482	0.776
Mof_H 	H 	0.6629	0.5527	0.4846	0.766
Mof_H 	H 	0.6629	0.4839	0.5672	0.778
Mof_O 	O 	0.9098	0.08852	0.7524	-0.356
Mof_O 	O 	0.6012	0.40781	0.7576	-0.397
Mof_O 	O 	0.6913	0.4355	0.8879	-0.399
Mof_O 	O 	0.8669	0.10613	0.59	-0.393
Mof_C 	C 	0.6679	0.3963	0.8099	0.319
Mof_C 	C 	0.7236	0.3293	0.7744	0.021
Mof_C 	C 	0.8691	0.1249	0.6836	0.454
Mof_C 	C 	0.8198	0.1982	0.7149	-0.261
Mof_C 	C 	0.7572	0.2262	0.6518	0.122
Mof_H 	H 	0.747	0.2016	0.5882	-0.005
Mof_C 	C 	0.7085	0.2912	0.6818	-0.154
Mof_H 	H 	0.6653	0.309	0.6387	0.056
Mof_C 	C 	0.7908	0.3028	0.8365	-0.25
Mof_H 	H 	0.8045	0.3309	0.8965	0.13
Mof_C 	C 	0.8372	0.236	0.8109	0.356
Mof_O 	O 	0.8939	0.2114	0.8747	-0.418
Mof_H 	H 	0.9349	0.1935	0.921	0.209
Mof_O 	O 	0.00675	0.01908	0.42015	-0.818
Mof_H 	H 	0.1629	0.0365	0.5518	0.654
Mof_H 	H 	0.1629	0.9473	0.5154	0.62
Mof_H 	H 	0.1629	0.0161	0.4328	0.657
Mof_O 	O 	0.4098	0.58852	0.7524	-0.425
Mof_O 	O 	0.1012	0.90781	0.7576	-0.399
Mof_O 	O 	0.1913	0.9355	0.8879	-0.42
Mof_O 	O 	0.3669	0.60613	0.59	-0.413
Mof_C 	C 	0.1679	0.8963	0.8099	0.314
Mof_C 	C 	0.2236	0.8293	0.7744	0.016
Mof_C 	C 	0.3691	0.6249	0.6836	0.455
Mof_C 	C 	0.3198	0.6982	0.7149	-0.277
Mof_C 	C 	0.2572	0.7262	0.6518	0.12
Mof_H 	H 	0.247	0.7016	0.5882	-0.012
Mof_C 	C 	0.2085	0.7912	0.6818	-0.161
Mof_H 	H 	0.1653	0.809	0.6387	0.057
Mof_C 	C 	0.2908	0.8028	0.8365	-0.255
Mof_H 	H 	0.3045	0.8309	0.8965	0.121
Mof_C 	C 	0.3372	0.736	0.8109	0.345
Mof_O 	O 	0.3939	0.7114	0.8747	-0.43
Mof_H 	H 	0.4349	0.6935	0.921	0.186
Mof_O 	O 	0.50675	0.51908	0.42015	-0.864
Mof_H 	H 	0.6629	0.5365	0.5518	0.775
Mof_H 	H 	0.6629	0.4473	0.5154	0.766
Mof_H 	H 	0.6629	0.5161	0.4328	0.778
Mof_O 	O 	0.0902	0.91148	0.2524	-0.451
Mof_O 	O 	0.3988	0.59219	0.2576	-0.385
Mof_O 	O 	0.3087	0.5645	0.3879	-0.38
Mof_O 	O 	0.1331	0.89387	0.09	-0.437
Mof_C 	C 	0.3321	0.6037	0.3099	0.317
Mof_C 	C 	0.2764	0.6707	0.2744	0.028
Mof_C 	C 	0.1309	0.8751	0.1836	0.455
Mof_C 	C 	0.1802	0.8018	0.2149	-0.281
Mof_C 	C 	0.2428	0.7738	0.1518	0.127
Mof_H 	H 	0.253	0.7984	0.0882	-0.003
Mof_C 	C 	0.2915	0.7088	0.1818	-0.162
Mof_H 	H 	0.3347	0.691	0.1387	0.071
Mof_C 	C 	0.2092	0.6972	0.3365	-0.257
Mof_H 	H 	0.1955	0.6691	0.3965	0.128
Mof_C 	C 	0.1628	0.764	0.3109	0.346
Mof_O 	O 	0.1061	0.7886	0.3747	-0.432
Mof_H 	H 	0.0651	0.8065	0.421	0.178
Mof_O 	O 	0.99325	0.98092	0.92015	-0.71
Mof_H 	H 	0.8371	0.9635	0.0518	0.444
Mof_H 	H 	0.8371	0.0527	0.0154	0.462
Mof_H 	H 	0.8371	0.9839	0.9328	0.424
Mof_O 	O 	0.5902	0.41148	0.2524	-0.432
Mof_O 	O 	0.8988	0.09219	0.2576	-0.339
Mof_O 	O 	0.8087	0.0645	0.3879	-0.368
Mof_O 	O 	0.6331	0.39387	0.09	-0.406
Mof_C 	C 	0.8321	0.1037	0.3099	0.318
Mof_C 	C 	0.7764	0.1707	0.2744	0.049
Mof_C 	C 	0.6309	0.3751	0.1836	0.461
Mof_C 	C 	0.6802	0.3018	0.2149	-0.278
Mof_C 	C 	0.7428	0.2738	0.1518	0.142
Mof_H 	H 	0.753	0.2984	0.0882	0.002
Mof_C 	C 	0.7915	0.2088	0.1818	-0.163
Mof_H 	H 	0.8347	0.191	0.1387	0.089
Mof_C 	C 	0.7092	0.1972	0.3365	-0.261
Mof_H 	H 	0.6955	0.1691	0.3965	0.142
Mof_C 	C 	0.6628	0.264	0.3109	0.361
Mof_O 	O 	0.6061	0.2886	0.3747	-0.431
Mof_H 	H 	0.5651	0.3065	0.421	0.197
Mof_O 	O 	0.49325	0.48092	0.92015	-0.815
Mof_H 	H 	0.3371	0.4635	0.0518	0.629
Mof_H 	H 	0.3371	0.5527	0.0154	0.624
Mof_H 	H 	0.3371	0.4839	0.9328	0.609
Mof_Mn	Mn	7.62788e-34	0.00796	0.25	1.011
Mof_Mn	Mn	0.5	0.50796	0.25	1.098
Mof_Mn	Mn	9.69316e-33	0.99204	0.75	0.921
Mof_Mn	Mn	0.5	0.49204	0.75	1.096
Mof_Mn	Mn	0.12119	0	-0	1.079
Mof_C 	C 	0.9527	0	-0	1.231
Mof_C 	C 	0.8573	0	-0	-2.586
Mof_Mn	Mn	0.62119	0.5	-0	1.085
Mof_C 	C 	0.4527	0.5	-0	1.467
Mof_C 	C 	0.3573	0.5	-0	-3.48
Mof_Mn	Mn	0.87881	-3.7024e-33	0.5	1.146
Mof_C 	C 	0.0473	-3.7024e-33	0.5	1.504
Mof_C 	C 	0.1427	-3.7024e-33	0.5	-3.606
Mof_Mn	Mn	0.37881	0.5	0.5	1.024
Mof_C 	C 	0.5473	0.5	0.5	1.725
Mof_C 	C 	0.6427	0.5	0.5	-4.536
_end
