data_functionalizedCrystal
_audit_creation_method	'EQeq! by Chris Wilmer'
_symmetry_space_group_name_H-M	'P1'
_symmetry_Int_Tables_number	1
_symmetry_cell_setting	triclinic
loop_
_symmetry_equiv_pos_as_xyz
  x,y,z
_cell_length_a	12.7819
_cell_length_b	12.7819
_cell_length_c	85.294
_cell_angle_alpha	90
_cell_angle_beta	90
_cell_angle_gamma	120
loop_
_atom_site_label
_atom_site_type_symbol
_atom_site_fract_x
_atom_site_fract_y
_atom_site_fract_z
_atom_site_charge
Mof_Nd	Nd	0.52852	0.98684	0.00472	2.731
Mof_Nd	Nd	0.38676	0.79548	0.04633	2.709
Mof_Nd	Nd	0.69387	0.03489	0.95943	2.796
Mof_Nd	Nd	0.45832	0.47148	0.67139	2.836
Mof_Nd	Nd	0.40872	0.61324	0.71299	2.735
Mof_Nd	Nd	0.34102	0.30613	0.6261	2.738
Mof_Nd	Nd	0.01316	0.54168	0.33806	2.717
Mof_Nd	Nd	0.20452	0.59128	0.37966	2.708
Mof_Nd	Nd	0.96511	0.65898	0.29276	2.805
Mof_Nd	Nd	0.47148	0.01316	0.50472	2.73
Mof_Nd	Nd	0.61324	0.20452	0.54633	2.708
Mof_Nd	Nd	0.30613	0.96511	0.45943	2.795
Mof_Nd	Nd	0.54168	0.52852	0.17139	2.835
Mof_Nd	Nd	0.59128	0.38676	0.21299	2.735
Mof_Nd	Nd	0.65898	0.69387	0.1261	2.738
Mof_Nd	Nd	0.98684	0.45832	0.83806	2.717
Mof_Nd	Nd	0.79548	0.40872	0.87966	2.708
Mof_Nd	Nd	0.03489	0.34102	0.79276	2.805
Mof_Nd	Nd	0.54168	0.01316	0.66194	2.717
Mof_Nd	Nd	0.59128	0.20452	0.62034	2.708
Mof_Nd	Nd	0.65898	0.96511	0.70724	2.805
Mof_Nd	Nd	0.98684	0.52852	0.99528	2.73
Mof_Nd	Nd	0.79548	0.38676	0.95367	2.708
Mof_Nd	Nd	0.03489	0.69387	0.04057	2.795
Mof_Nd	Nd	0.47148	0.45832	0.32861	2.835
Mof_Nd	Nd	0.61324	0.40872	0.28701	2.735
Mof_Nd	Nd	0.30613	0.34102	0.3739	2.738
Mof_Nd	Nd	0.45832	0.98684	0.16194	2.717
Mof_Nd	Nd	0.40872	0.79548	0.12034	2.708
Mof_Nd	Nd	0.34102	0.03489	0.20724	2.805
Mof_Nd	Nd	0.01316	0.47148	0.49528	2.73
Mof_Nd	Nd	0.20452	0.61324	0.45367	2.708
Mof_Nd	Nd	0.96511	0.30613	0.54057	2.795
Mof_Nd	Nd	0.52852	0.54168	0.82861	2.835
Mof_Nd	Nd	0.38676	0.59128	0.78701	2.735
Mof_Nd	Nd	0.69387	0.65898	0.8739	2.738
Mof_Nd	Nd	0.52484	0.04968	0.08333	2.926
Mof_Nd	Nd	0.52484	0.47516	0.75	2.83
Mof_Nd	Nd	0.95032	0.47516	0.41667	2.926
Mof_Nd	Nd	0.47516	0.95032	0.58333	2.926
Mof_Nd	Nd	0.47516	0.52484	0.25	2.83
Mof_Nd	Nd	0.04968	0.52484	0.91667	2.926
Mof_H 	H 	0.8215	0.2372	0.0385	0.221
Mof_H 	H 	0.794	0.3262	0.0479	0.23
Mof_H 	H 	0.6328	0.3674	0.031	0.249
Mof_H 	H 	0.5777	0.2949	0.0466	0.246
Mof_H 	H 	0.5097	0.2452	0.0306	0.221
Mof_H 	H 	0.095	0.8236	0.0922	0.227
Mof_H 	H 	0.151	0.9423	0.1022	0.216
Mof_H 	H 	0.1357	0.0657	0.0803	0.226
Mof_H 	H 	0.0646	0.9429	0.0712	0.182
Mof_H 	H 	0.1777	0.0523	0.0635	0.201
Mof_H 	H 	0.9317	0.0392	0.9972	0.192
Mof_H 	H 	0.959	0.1646	0.0037	0.184
Mof_H 	H 	0.11	0.1403	0.9783	0.237
Mof_H 	H 	0.1378	0.2607	0.9867	0.21
Mof_H 	H 	0.125	0.2503	0.9684	0.219
Mof_H 	H 	0.4574	0.577	0.0115	0.206
Mof_H 	H 	0.3477	0.5581	0.0012	0.195
Mof_H 	H 	0.3234	0.3905	0.0273	0.242
Mof_H 	H 	0.2242	0.3733	0.0151	0.228
Mof_H 	H 	0.1976	0.3683	0.0331	0.267
Mof_H 	H 	0.4157	0.1785	0.70517	0.218
Mof_H 	H 	0.5322	0.206	0.71457	0.228
Mof_H 	H 	0.7346	0.3672	0.69767	0.245
Mof_H 	H 	0.7172	0.4223	0.71327	0.241
Mof_H 	H 	0.7355	0.4903	0.69727	0.212
Mof_H 	H 	0.7286	0.905	0.75887	0.257
Mof_H 	H 	0.7913	0.849	0.76887	0.256
Mof_H 	H 	0.93	0.8643	0.74697	0.319
Mof_H 	H 	0.8783	0.9354	0.73787	0.31
Mof_H 	H 	0.8746	0.8223	0.73017	0.297
Mof_H 	H 	0.1075	0.0683	0.66387	0.18
Mof_H 	H 	0.2056	0.041	0.67037	0.178
Mof_H 	H 	0.0303	0.89	0.64497	0.226
Mof_H 	H 	0.1229	0.8622	0.65337	0.204
Mof_H 	H 	0.1253	0.875	0.63507	0.212
Mof_H 	H 	0.1196	0.5426	0.67817	0.209
Mof_H 	H 	0.2104	0.6523	0.66787	0.195
Mof_H 	H 	0.0671	0.6766	0.69397	0.246
Mof_H 	H 	0.1491	0.7758	0.68177	0.231
Mof_H 	H 	0.1707	0.8024	0.69977	0.269
Mof_H 	H 	0.7628	0.5843	0.37183	0.224
Mof_H 	H 	0.6738	0.4678	0.38123	0.231
Mof_H 	H 	0.6326	0.2654	0.36433	0.249
Mof_H 	H 	0.7051	0.2828	0.37993	0.246
Mof_H 	H 	0.7548	0.2645	0.36393	0.221
Mof_H 	H 	0.1764	0.2714	0.42553	0.22
Mof_H 	H 	0.0577	0.2087	0.43553	0.21
Mof_H 	H 	0.9343	0.07	0.41363	0.211
Mof_H 	H 	0.0571	0.1217	0.40453	0.166
Mof_H 	H 	0.9477	0.1254	0.39683	0.19
Mof_H 	H 	0.9608	0.8925	0.33053	0.211
Mof_H 	H 	0.8354	0.7944	0.33703	0.201
Mof_H 	H 	0.8597	0.9697	0.31163	0.252
Mof_H 	H 	0.7393	0.8771	0.32003	0.228
Mof_H 	H 	0.7497	0.8747	0.30173	0.232
Mof_H 	H 	0.423	0.8804	0.34483	0.204
Mof_H 	H 	0.4419	0.7896	0.33453	0.191
Mof_H 	H 	0.6095	0.9329	0.36063	0.238
Mof_H 	H 	0.6267	0.8509	0.34843	0.219
Mof_H 	H 	0.6317	0.8293	0.36643	0.261
Mof_H 	H 	0.1785	0.7628	0.5385	0.221
Mof_H 	H 	0.206	0.6738	0.5479	0.23
Mof_H 	H 	0.3672	0.6326	0.531	0.249
Mof_H 	H 	0.4223	0.7051	0.5466	0.246
Mof_H 	H 	0.4903	0.7548	0.5306	0.221
Mof_H 	H 	0.905	0.1764	0.5922	0.227
Mof_H 	H 	0.849	0.0577	0.6022	0.216
Mof_H 	H 	0.8643	0.9343	0.5803	0.226
Mof_H 	H 	0.9354	0.0571	0.5712	0.182
Mof_H 	H 	0.8223	0.9477	0.5635	0.201
Mof_H 	H 	0.0683	0.9608	0.4972	0.192
Mof_H 	H 	0.041	0.8354	0.5037	0.184
Mof_H 	H 	0.89	0.8597	0.4783	0.237
Mof_H 	H 	0.8622	0.7393	0.4867	0.21
Mof_H 	H 	0.875	0.7497	0.4684	0.219
Mof_H 	H 	0.5426	0.423	0.5115	0.206
Mof_H 	H 	0.6523	0.4419	0.5012	0.195
Mof_H 	H 	0.6766	0.6095	0.5273	0.242
Mof_H 	H 	0.7758	0.6267	0.5151	0.228
Mof_H 	H 	0.8024	0.6317	0.5331	0.267
Mof_H 	H 	0.5843	0.8215	0.20517	0.218
Mof_H 	H 	0.4678	0.794	0.21457	0.228
Mof_H 	H 	0.2654	0.6328	0.19767	0.245
Mof_H 	H 	0.2828	0.5777	0.21327	0.241
Mof_H 	H 	0.2645	0.5097	0.19727	0.212
Mof_H 	H 	0.2714	0.095	0.25887	0.257
Mof_H 	H 	0.2087	0.151	0.26887	0.256
Mof_H 	H 	0.07	0.1357	0.24697	0.319
Mof_H 	H 	0.1217	0.0646	0.23787	0.31
Mof_H 	H 	0.1254	0.1777	0.23017	0.297
Mof_H 	H 	0.8925	0.9317	0.16387	0.18
Mof_H 	H 	0.7944	0.959	0.17037	0.178
Mof_H 	H 	0.9697	0.11	0.14497	0.226
Mof_H 	H 	0.8771	0.1378	0.15337	0.204
Mof_H 	H 	0.8747	0.125	0.13507	0.212
Mof_H 	H 	0.8804	0.4574	0.17817	0.209
Mof_H 	H 	0.7896	0.3477	0.16787	0.195
Mof_H 	H 	0.9329	0.3234	0.19397	0.246
Mof_H 	H 	0.8509	0.2242	0.18177	0.231
Mof_H 	H 	0.8293	0.1976	0.19977	0.269
Mof_H 	H 	0.2372	0.4157	0.87183	0.224
Mof_H 	H 	0.3262	0.5322	0.88123	0.231
Mof_H 	H 	0.3674	0.7346	0.86433	0.249
Mof_H 	H 	0.2949	0.7172	0.87993	0.246
Mof_H 	H 	0.2452	0.7355	0.86393	0.221
Mof_H 	H 	0.8236	0.7286	0.92553	0.22
Mof_H 	H 	0.9423	0.7913	0.93553	0.21
Mof_H 	H 	0.0657	0.93	0.91363	0.211
Mof_H 	H 	0.9429	0.8783	0.90453	0.166
Mof_H 	H 	0.0523	0.8746	0.89683	0.19
Mof_H 	H 	0.0392	0.1075	0.83053	0.211
Mof_H 	H 	0.1646	0.2056	0.83703	0.201
Mof_H 	H 	0.1403	0.0303	0.81163	0.252
Mof_H 	H 	0.2607	0.1229	0.82003	0.228
Mof_H 	H 	0.2503	0.1253	0.80173	0.232
Mof_H 	H 	0.577	0.1196	0.84483	0.204
Mof_H 	H 	0.5581	0.2104	0.83453	0.191
Mof_H 	H 	0.3905	0.0671	0.86063	0.238
Mof_H 	H 	0.3733	0.1491	0.84843	0.219
Mof_H 	H 	0.3683	0.1707	0.86643	0.261
Mof_H 	H 	0.5843	0.7628	0.62817	0.224
Mof_H 	H 	0.4678	0.6738	0.61877	0.231
Mof_H 	H 	0.2654	0.6326	0.63567	0.249
Mof_H 	H 	0.2828	0.7051	0.62007	0.246
Mof_H 	H 	0.2645	0.7548	0.63607	0.221
Mof_H 	H 	0.2714	0.1764	0.57447	0.22
Mof_H 	H 	0.2087	0.0577	0.56447	0.21
Mof_H 	H 	0.07	0.9343	0.58637	0.211
Mof_H 	H 	0.1217	0.0571	0.59547	0.166
Mof_H 	H 	0.1254	0.9477	0.60317	0.19
Mof_H 	H 	0.8925	0.9608	0.66947	0.211
Mof_H 	H 	0.7944	0.8354	0.66297	0.201
Mof_H 	H 	0.9697	0.8597	0.68837	0.252
Mof_H 	H 	0.8771	0.7393	0.67997	0.228
Mof_H 	H 	0.8747	0.7497	0.69827	0.232
Mof_H 	H 	0.8804	0.423	0.65517	0.204
Mof_H 	H 	0.7896	0.4419	0.66547	0.191
Mof_H 	H 	0.9329	0.6095	0.63937	0.238
Mof_H 	H 	0.8509	0.6267	0.65157	0.219
Mof_H 	H 	0.8293	0.6317	0.63357	0.261
Mof_H 	H 	0.2372	0.8215	0.9615	0.221
Mof_H 	H 	0.3262	0.794	0.9521	0.23
Mof_H 	H 	0.3674	0.6328	0.969	0.249
Mof_H 	H 	0.2949	0.5777	0.9534	0.246
Mof_H 	H 	0.2452	0.5097	0.9694	0.221
Mof_H 	H 	0.8236	0.095	0.9078	0.227
Mof_H 	H 	0.9423	0.151	0.8978	0.216
Mof_H 	H 	0.0657	0.1357	0.9197	0.226
Mof_H 	H 	0.9429	0.0646	0.9288	0.182
Mof_H 	H 	0.0523	0.1777	0.9365	0.201
Mof_H 	H 	0.0392	0.9317	0.0028	0.192
Mof_H 	H 	0.1646	0.959	0.9963	0.184
Mof_H 	H 	0.1403	0.11	0.0217	0.237
Mof_H 	H 	0.2607	0.1378	0.0133	0.21
Mof_H 	H 	0.2503	0.125	0.0316	0.219
Mof_H 	H 	0.577	0.4574	0.9885	0.206
Mof_H 	H 	0.5581	0.3477	0.9988	0.195
Mof_H 	H 	0.3905	0.3234	0.9727	0.242
Mof_H 	H 	0.3733	0.2242	0.9849	0.228
Mof_H 	H 	0.3683	0.1976	0.9669	0.267
Mof_H 	H 	0.1785	0.4157	0.29483	0.218
Mof_H 	H 	0.206	0.5322	0.28543	0.228
Mof_H 	H 	0.3672	0.7346	0.30233	0.245
Mof_H 	H 	0.4223	0.7172	0.28673	0.241
Mof_H 	H 	0.4903	0.7355	0.30273	0.212
Mof_H 	H 	0.905	0.7286	0.24113	0.257
Mof_H 	H 	0.849	0.7913	0.23113	0.256
Mof_H 	H 	0.8643	0.93	0.25303	0.319
Mof_H 	H 	0.9354	0.8783	0.26213	0.31
Mof_H 	H 	0.8223	0.8746	0.26983	0.297
Mof_H 	H 	0.0683	0.1075	0.33613	0.18
Mof_H 	H 	0.041	0.2056	0.32963	0.178
Mof_H 	H 	0.89	0.0303	0.35503	0.226
Mof_H 	H 	0.8622	0.1229	0.34663	0.204
Mof_H 	H 	0.875	0.1253	0.36493	0.212
Mof_H 	H 	0.5426	0.1196	0.32183	0.209
Mof_H 	H 	0.6523	0.2104	0.33213	0.195
Mof_H 	H 	0.6766	0.0671	0.30603	0.246
Mof_H 	H 	0.7758	0.1491	0.31823	0.231
Mof_H 	H 	0.8024	0.1707	0.30023	0.269
Mof_H 	H 	0.4157	0.2372	0.12817	0.224
Mof_H 	H 	0.5322	0.3262	0.11877	0.231
Mof_H 	H 	0.7346	0.3674	0.13567	0.249
Mof_H 	H 	0.7172	0.2949	0.12007	0.246
Mof_H 	H 	0.7355	0.2452	0.13607	0.221
Mof_H 	H 	0.7286	0.8236	0.07447	0.22
Mof_H 	H 	0.7913	0.9423	0.06447	0.21
Mof_H 	H 	0.93	0.0657	0.08637	0.211
Mof_H 	H 	0.8783	0.9429	0.09547	0.166
Mof_H 	H 	0.8746	0.0523	0.10317	0.19
Mof_H 	H 	0.1075	0.0392	0.16947	0.211
Mof_H 	H 	0.2056	0.1646	0.16297	0.201
Mof_H 	H 	0.0303	0.1403	0.18837	0.252
Mof_H 	H 	0.1229	0.2607	0.17997	0.228
Mof_H 	H 	0.1253	0.2503	0.19827	0.232
Mof_H 	H 	0.1196	0.577	0.15517	0.204
Mof_H 	H 	0.2104	0.5581	0.16547	0.191
Mof_H 	H 	0.0671	0.3905	0.13937	0.238
Mof_H 	H 	0.1491	0.3733	0.15157	0.219
Mof_H 	H 	0.1707	0.3683	0.13357	0.261
Mof_H 	H 	0.7628	0.1785	0.4615	0.221
Mof_H 	H 	0.6738	0.206	0.4521	0.23
Mof_H 	H 	0.6326	0.3672	0.469	0.249
Mof_H 	H 	0.7051	0.4223	0.4534	0.246
Mof_H 	H 	0.7548	0.4903	0.4694	0.221
Mof_H 	H 	0.1764	0.905	0.4078	0.227
Mof_H 	H 	0.0577	0.849	0.3978	0.216
Mof_H 	H 	0.9343	0.8643	0.4197	0.226
Mof_H 	H 	0.0571	0.9354	0.4288	0.182
Mof_H 	H 	0.9477	0.8223	0.4365	0.201
Mof_H 	H 	0.9608	0.0683	0.5028	0.192
Mof_H 	H 	0.8354	0.041	0.4963	0.184
Mof_H 	H 	0.8597	0.89	0.5217	0.237
Mof_H 	H 	0.7393	0.8622	0.5133	0.21
Mof_H 	H 	0.7497	0.875	0.5316	0.219
Mof_H 	H 	0.423	0.5426	0.4885	0.206
Mof_H 	H 	0.4419	0.6523	0.4988	0.195
Mof_H 	H 	0.6095	0.6766	0.4727	0.242
Mof_H 	H 	0.6267	0.7758	0.4849	0.228
Mof_H 	H 	0.6317	0.8024	0.4669	0.267
Mof_H 	H 	0.8215	0.5843	0.79483	0.218
Mof_H 	H 	0.794	0.4678	0.78543	0.228
Mof_H 	H 	0.6328	0.2654	0.80233	0.245
Mof_H 	H 	0.5777	0.2828	0.78673	0.241
Mof_H 	H 	0.5097	0.2645	0.80273	0.212
Mof_H 	H 	0.095	0.2714	0.74113	0.257
Mof_H 	H 	0.151	0.2087	0.73113	0.256
Mof_H 	H 	0.1357	0.07	0.75303	0.319
Mof_H 	H 	0.0646	0.1217	0.76213	0.31
Mof_H 	H 	0.1777	0.1254	0.76983	0.297
Mof_H 	H 	0.9317	0.8925	0.83613	0.18
Mof_H 	H 	0.959	0.7944	0.82963	0.178
Mof_H 	H 	0.11	0.9697	0.85503	0.226
Mof_H 	H 	0.1378	0.8771	0.84663	0.204
Mof_H 	H 	0.125	0.8747	0.86493	0.212
Mof_H 	H 	0.4574	0.8804	0.82183	0.209
Mof_H 	H 	0.3477	0.7896	0.83213	0.195
Mof_H 	H 	0.3234	0.9329	0.80603	0.246
Mof_H 	H 	0.2242	0.8509	0.81823	0.231
Mof_H 	H 	0.1976	0.8293	0.80023	0.269
Mof_C 	C 	0.6568	0.2181	0.03287	0.315
Mof_C 	C 	0.5943	0.0996	0.04262	0.427
Mof_C 	C 	0.788	0.2904	0.03767	-0.59
Mof_C 	C 	0.3899	0.8605	0.97427	0.627
Mof_C 	C 	0.5876	0.2881	0.03553	-0.706
Mof_C 	C 	0.2228	0.9697	0.08028	0.225
Mof_C 	C 	0.2521	0.8974	0.06805	0.416
Mof_C 	C 	0.1701	0.896	0.09491	-0.556
Mof_C 	C 	0.2515	0.8593	0.10298	0.538
Mof_C 	C 	0.1431	0.0114	0.07318	-0.529
Mof_C 	C 	0.9632	0.1619	0.9796	0.272
Mof_C 	C 	0.2709	0.9393	0.02291	0.438
Mof_C 	C 	0.9144	0.1044	0.99577	-0.56
Mof_C 	C 	0.7831	0.0553	0.99863	0.573
Mof_C 	C 	0.0959	0.2074	0.97814	-0.666
Mof_C 	C 	0.3075	0.5437	0.02519	0.287
Mof_C 	C 	0.2008	0.5664	0.02435	0.418
Mof_C 	C 	0.3932	0.5962	0.0106	-0.59
Mof_C 	C 	0.4467	0.7278	0.00924	0.616
Mof_C 	C 	0.2586	0.406	0.02516	-0.72
Mof_C 	C 	0.5613	0.3432	0.69954	0.312
Mof_C 	C 	0.5053	0.4057	0.70929	0.427
Mof_C 	C 	0.5024	0.212	0.70434	-0.588
Mof_C 	C 	0.4706	0.6101	0.64094	0.625
Mof_C 	C 	0.7005	0.4124	0.7022	-0.696
Mof_C 	C 	0.7469	0.7772	0.74695	0.4
Mof_C 	C 	0.6453	0.7479	0.73472	0.367
Mof_C 	C 	0.7259	0.8299	0.76158	-0.658
Mof_C 	C 	0.6078	0.7485	0.76965	0.574
Mof_C 	C 	0.8683	0.8569	0.73985	-0.9
Mof_C 	C 	0.1987	0.0368	0.64627	0.261
Mof_C 	C 	0.6684	0.7291	0.68958	0.433
Mof_C 	C 	0.19	0.0856	0.66244	-0.55
Mof_C 	C 	0.2722	0.2169	0.6653	0.569
Mof_C 	C 	0.1115	0.9041	0.64481	-0.645
Mof_C 	C 	0.2362	0.6925	0.69186	0.289
Mof_C 	C 	0.3656	0.7992	0.69102	0.417
Mof_C 	C 	0.203	0.6068	0.67727	-0.593
Mof_C 	C 	0.2811	0.5533	0.67591	0.619
Mof_C 	C 	0.1474	0.7414	0.69183	-0.725
Mof_C 	C 	0.7819	0.4387	0.3662	0.315
Mof_C 	C 	0.9004	0.4947	0.37595	0.427
Mof_C 	C 	0.7096	0.4976	0.371	-0.589
Mof_C 	C 	0.1395	0.5294	0.3076	0.626
Mof_C 	C 	0.7119	0.2995	0.36886	-0.706
Mof_C 	C 	0.0303	0.2531	0.41361	0.214
Mof_C 	C 	0.1026	0.3547	0.40138	0.418
Mof_C 	C 	0.104	0.2741	0.42824	-0.546
Mof_C 	C 	0.1407	0.3922	0.43631	0.535
Mof_C 	C 	0.9886	0.1317	0.40651	-0.499
Mof_C 	C 	0.8381	0.8013	0.31293	0.322
Mof_C 	C 	0.0607	0.3316	0.35624	0.44
Mof_C 	C 	0.8956	0.81	0.3291	-0.594
Mof_C 	C 	0.9447	0.7278	0.33196	0.585
Mof_C 	C 	0.7926	0.8885	0.31147	-0.753
Mof_C 	C 	0.4563	0.7638	0.35852	0.279
Mof_C 	C 	0.4336	0.6344	0.35768	0.424
Mof_C 	C 	0.4038	0.797	0.34393	-0.585
Mof_C 	C 	0.2722	0.7189	0.34257	0.614
Mof_C 	C 	0.594	0.8526	0.35849	-0.706
Mof_C 	C 	0.3432	0.7819	0.53287	0.315
Mof_C 	C 	0.4057	0.9004	0.54262	0.427
Mof_C 	C 	0.212	0.7096	0.53767	-0.59
Mof_C 	C 	0.6101	0.1395	0.47427	0.627
Mof_C 	C 	0.4124	0.7119	0.53553	-0.706
Mof_C 	C 	0.7772	0.0303	0.58028	0.225
Mof_C 	C 	0.7479	0.1026	0.56805	0.416
Mof_C 	C 	0.8299	0.104	0.59491	-0.556
Mof_C 	C 	0.7485	0.1407	0.60298	0.538
Mof_C 	C 	0.8569	0.9886	0.57318	-0.529
Mof_C 	C 	0.0368	0.8381	0.4796	0.272
Mof_C 	C 	0.7291	0.0607	0.52291	0.438
Mof_C 	C 	0.0856	0.8956	0.49577	-0.56
Mof_C 	C 	0.2169	0.9447	0.49863	0.573
Mof_C 	C 	0.9041	0.7926	0.47814	-0.666
Mof_C 	C 	0.6925	0.4563	0.52519	0.287
Mof_C 	C 	0.7992	0.4336	0.52435	0.418
Mof_C 	C 	0.6068	0.4038	0.5106	-0.59
Mof_C 	C 	0.5533	0.2722	0.50924	0.616
Mof_C 	C 	0.7414	0.594	0.52516	-0.72
Mof_C 	C 	0.4387	0.6568	0.19954	0.312
Mof_C 	C 	0.4947	0.5943	0.20929	0.427
Mof_C 	C 	0.4976	0.788	0.20434	-0.588
Mof_C 	C 	0.5294	0.3899	0.14094	0.625
Mof_C 	C 	0.2995	0.5876	0.2022	-0.696
Mof_C 	C 	0.2531	0.2228	0.24695	0.4
Mof_C 	C 	0.3547	0.2521	0.23472	0.367
Mof_C 	C 	0.2741	0.1701	0.26158	-0.658
Mof_C 	C 	0.3922	0.2515	0.26965	0.574
Mof_C 	C 	0.1317	0.1431	0.23985	-0.9
Mof_C 	C 	0.8013	0.9632	0.14627	0.261
Mof_C 	C 	0.3316	0.2709	0.18958	0.433
Mof_C 	C 	0.81	0.9144	0.16244	-0.55
Mof_C 	C 	0.7278	0.7831	0.1653	0.569
Mof_C 	C 	0.8885	0.0959	0.14481	-0.645
Mof_C 	C 	0.7638	0.3075	0.19186	0.289
Mof_C 	C 	0.6344	0.2008	0.19102	0.417
Mof_C 	C 	0.797	0.3932	0.17727	-0.593
Mof_C 	C 	0.7189	0.4467	0.17591	0.619
Mof_C 	C 	0.8526	0.2586	0.19183	-0.725
Mof_C 	C 	0.2181	0.5613	0.8662	0.315
Mof_C 	C 	0.0996	0.5053	0.87595	0.427
Mof_C 	C 	0.2904	0.5024	0.871	-0.589
Mof_C 	C 	0.8605	0.4706	0.8076	0.626
Mof_C 	C 	0.2881	0.7005	0.86886	-0.706
Mof_C 	C 	0.9697	0.7469	0.91361	0.214
Mof_C 	C 	0.8974	0.6453	0.90138	0.418
Mof_C 	C 	0.896	0.7259	0.92824	-0.546
Mof_C 	C 	0.8593	0.6078	0.93631	0.535
Mof_C 	C 	0.0114	0.8683	0.90651	-0.499
Mof_C 	C 	0.1619	0.1987	0.81293	0.322
Mof_C 	C 	0.9393	0.6684	0.85624	0.44
Mof_C 	C 	0.1044	0.19	0.8291	-0.594
Mof_C 	C 	0.0553	0.2722	0.83196	0.585
Mof_C 	C 	0.2074	0.1115	0.81147	-0.753
Mof_C 	C 	0.5437	0.2362	0.85852	0.279
Mof_C 	C 	0.5664	0.3656	0.85768	0.424
Mof_C 	C 	0.5962	0.203	0.84393	-0.585
Mof_C 	C 	0.7278	0.2811	0.84257	0.614
Mof_C 	C 	0.406	0.1474	0.85849	-0.706
Mof_C 	C 	0.4387	0.7819	0.6338	0.315
Mof_C 	C 	0.4947	0.9004	0.62405	0.427
Mof_C 	C 	0.4976	0.7096	0.629	-0.589
Mof_C 	C 	0.5294	0.1395	0.6924	0.626
Mof_C 	C 	0.2995	0.7119	0.63114	-0.706
Mof_C 	C 	0.2531	0.0303	0.58639	0.214
Mof_C 	C 	0.3547	0.1026	0.59862	0.418
Mof_C 	C 	0.2741	0.104	0.57176	-0.546
Mof_C 	C 	0.3922	0.1407	0.56369	0.535
Mof_C 	C 	0.1317	0.9886	0.59349	-0.499
Mof_C 	C 	0.8013	0.8381	0.68707	0.322
Mof_C 	C 	0.3316	0.0607	0.64376	0.44
Mof_C 	C 	0.81	0.8956	0.6709	-0.594
Mof_C 	C 	0.7278	0.9447	0.66804	0.585
Mof_C 	C 	0.8885	0.7926	0.68853	-0.753
Mof_C 	C 	0.7638	0.4563	0.64148	0.279
Mof_C 	C 	0.6344	0.4336	0.64232	0.424
Mof_C 	C 	0.797	0.4038	0.65607	-0.585
Mof_C 	C 	0.7189	0.2722	0.65743	0.614
Mof_C 	C 	0.8526	0.594	0.64151	-0.706
Mof_C 	C 	0.2181	0.6568	0.96713	0.315
Mof_C 	C 	0.0996	0.5943	0.95738	0.427
Mof_C 	C 	0.2904	0.788	0.96233	-0.59
Mof_C 	C 	0.8605	0.3899	0.02573	0.627
Mof_C 	C 	0.2881	0.5876	0.96447	-0.706
Mof_C 	C 	0.9697	0.2228	0.91972	0.225
Mof_C 	C 	0.8974	0.2521	0.93195	0.416
Mof_C 	C 	0.896	0.1701	0.90509	-0.556
Mof_C 	C 	0.8593	0.2515	0.89702	0.538
Mof_C 	C 	0.0114	0.1431	0.92682	-0.529
Mof_C 	C 	0.1619	0.9632	0.0204	0.272
Mof_C 	C 	0.9393	0.2709	0.97709	0.438
Mof_C 	C 	0.1044	0.9144	0.00423	-0.56
Mof_C 	C 	0.0553	0.7831	0.00137	0.573
Mof_C 	C 	0.2074	0.0959	0.02186	-0.666
Mof_C 	C 	0.5437	0.3075	0.97481	0.287
Mof_C 	C 	0.5664	0.2008	0.97565	0.418
Mof_C 	C 	0.5962	0.3932	0.9894	-0.59
Mof_C 	C 	0.7278	0.4467	0.99076	0.616
Mof_C 	C 	0.406	0.2586	0.97484	-0.72
Mof_C 	C 	0.3432	0.5613	0.30046	0.312
Mof_C 	C 	0.4057	0.5053	0.29071	0.427
Mof_C 	C 	0.212	0.5024	0.29566	-0.588
Mof_C 	C 	0.6101	0.4706	0.35906	0.625
Mof_C 	C 	0.4124	0.7005	0.2978	-0.696
Mof_C 	C 	0.7772	0.7469	0.25305	0.4
Mof_C 	C 	0.7479	0.6453	0.26528	0.367
Mof_C 	C 	0.8299	0.7259	0.23842	-0.658
Mof_C 	C 	0.7485	0.6078	0.23035	0.574
Mof_C 	C 	0.8569	0.8683	0.26015	-0.9
Mof_C 	C 	0.0368	0.1987	0.35373	0.261
Mof_C 	C 	0.7291	0.6684	0.31042	0.433
Mof_C 	C 	0.0856	0.19	0.33756	-0.55
Mof_C 	C 	0.2169	0.2722	0.3347	0.569
Mof_C 	C 	0.9041	0.1115	0.35519	-0.645
Mof_C 	C 	0.6925	0.2362	0.30814	0.289
Mof_C 	C 	0.7992	0.3656	0.30898	0.417
Mof_C 	C 	0.6068	0.203	0.32273	-0.593
Mof_C 	C 	0.5533	0.2811	0.32409	0.619
Mof_C 	C 	0.7414	0.1474	0.30817	-0.725
Mof_C 	C 	0.5613	0.2181	0.1338	0.315
Mof_C 	C 	0.5053	0.0996	0.12405	0.427
Mof_C 	C 	0.5024	0.2904	0.129	-0.589
Mof_C 	C 	0.4706	0.8605	0.1924	0.626
Mof_C 	C 	0.7005	0.2881	0.13114	-0.706
Mof_C 	C 	0.7469	0.9697	0.08639	0.214
Mof_C 	C 	0.6453	0.8974	0.09862	0.418
Mof_C 	C 	0.7259	0.896	0.07176	-0.546
Mof_C 	C 	0.6078	0.8593	0.06369	0.535
Mof_C 	C 	0.8683	0.0114	0.09349	-0.499
Mof_C 	C 	0.1987	0.1619	0.18707	0.322
Mof_C 	C 	0.6684	0.9393	0.14376	0.44
Mof_C 	C 	0.19	0.1044	0.1709	-0.594
Mof_C 	C 	0.2722	0.0553	0.16804	0.585
Mof_C 	C 	0.1115	0.2074	0.18853	-0.753
Mof_C 	C 	0.2362	0.5437	0.14148	0.279
Mof_C 	C 	0.3656	0.5664	0.14232	0.424
Mof_C 	C 	0.203	0.5962	0.15607	-0.585
Mof_C 	C 	0.2811	0.7278	0.15743	0.614
Mof_C 	C 	0.1474	0.406	0.14151	-0.706
Mof_C 	C 	0.7819	0.3432	0.46713	0.315
Mof_C 	C 	0.9004	0.4057	0.45738	0.427
Mof_C 	C 	0.7096	0.212	0.46233	-0.59
Mof_C 	C 	0.1395	0.6101	0.52573	0.627
Mof_C 	C 	0.7119	0.4124	0.46447	-0.706
Mof_C 	C 	0.0303	0.7772	0.41972	0.225
Mof_C 	C 	0.1026	0.7479	0.43195	0.416
Mof_C 	C 	0.104	0.8299	0.40509	-0.556
Mof_C 	C 	0.1407	0.7485	0.39702	0.538
Mof_C 	C 	0.9886	0.8569	0.42682	-0.529
Mof_C 	C 	0.8381	0.0368	0.5204	0.272
Mof_C 	C 	0.0607	0.7291	0.47709	0.438
Mof_C 	C 	0.8956	0.0856	0.50423	-0.56
Mof_C 	C 	0.9447	0.2169	0.50137	0.573
Mof_C 	C 	0.7926	0.9041	0.52186	-0.666
Mof_C 	C 	0.4563	0.6925	0.47481	0.287
Mof_C 	C 	0.4336	0.7992	0.47565	0.418
Mof_C 	C 	0.4038	0.6068	0.4894	-0.59
Mof_C 	C 	0.2722	0.5533	0.49076	0.616
Mof_C 	C 	0.594	0.7414	0.47484	-0.72
Mof_C 	C 	0.6568	0.4387	0.80046	0.312
Mof_C 	C 	0.5943	0.4947	0.79071	0.427
Mof_C 	C 	0.788	0.4976	0.79566	-0.588
Mof_C 	C 	0.3899	0.5294	0.85906	0.625
Mof_C 	C 	0.5876	0.2995	0.7978	-0.696
Mof_C 	C 	0.2228	0.2531	0.75305	0.4
Mof_C 	C 	0.2521	0.3547	0.76528	0.367
Mof_C 	C 	0.1701	0.2741	0.73842	-0.658
Mof_C 	C 	0.2515	0.3922	0.73035	0.574
Mof_C 	C 	0.1431	0.1317	0.76015	-0.9
Mof_C 	C 	0.9632	0.8013	0.85373	0.261
Mof_C 	C 	0.2709	0.3316	0.81042	0.433
Mof_C 	C 	0.9144	0.81	0.83756	-0.55
Mof_C 	C 	0.7831	0.7278	0.8347	0.569
Mof_C 	C 	0.0959	0.8885	0.85519	-0.645
Mof_C 	C 	0.3075	0.7638	0.80814	0.289
Mof_C 	C 	0.2008	0.6344	0.80898	0.417
Mof_C 	C 	0.3932	0.797	0.82273	-0.593
Mof_C 	C 	0.4467	0.7189	0.82409	0.619
Mof_C 	C 	0.2586	0.8526	0.80817	-0.725
Mof_N 	N 	0.6624	0.8302	0.9386	0.086
Mof_N 	N 	0.1678	0.3376	0.60527	0.085
Mof_N 	N 	0.1698	0.8322	0.27193	0.088
Mof_N 	N 	0.3376	0.1698	0.4386	0.086
Mof_N 	N 	0.8322	0.6624	0.10527	0.085
Mof_N 	N 	0.8302	0.1678	0.77193	0.088
Mof_N 	N 	0.8322	0.1698	0.72807	0.088
Mof_N 	N 	0.8302	0.6624	0.0614	0.086
Mof_N 	N 	0.3376	0.1678	0.39473	0.085
Mof_N 	N 	0.1678	0.8302	0.22807	0.088
Mof_N 	N 	0.1698	0.3376	0.5614	0.086
Mof_N 	N 	0.6624	0.8322	0.89473	0.085
Mof_O 	O 	0.6455	0.1857	0.01654	-0.46
Mof_O 	O 	0.54	0.0015	0.03514	-0.67
Mof_O 	O 	0.5997	0.1149	0.05684	-0.592
Mof_O 	O 	0.3503	0.8599	0.98847	-0.549
Mof_O 	O 	0.4968	0.9261	0.97099	-0.727
Mof_O 	O 	0.3414	0.0733	0.08396	-0.392
Mof_O 	O 	0.3562	0.9331	0.06384	-0.77
Mof_O 	O 	0.7995	0.159	0.93709	-0.595
Mof_O 	O 	0.3474	0.872	0.09662	-0.746
Mof_O 	O 	0.5877	0.811	0.05007	-0.53
Mof_O 	O 	0.8994	0.0763	0.9673	-0.448
Mof_O 	O 	0.3609	0.9985	0.01461	-0.622
Mof_O 	O 	0.2557	0.8622	0.03327	-0.713
Mof_O 	O 	0.7171	0.0708	0.9884	-0.744
Mof_O 	O 	0.7381	0.0099	0.01131	-0.514
Mof_O 	O 	0.3761	0.6009	0.03914	-0.416
Mof_O 	O 	0.19	0.629	0.03526	-0.689
Mof_O 	O 	0.5237	0.1343	0.98728	-0.551
Mof_O 	O 	0.4232	0.7875	0.01871	-0.825
Mof_O 	O 	0.5176	0.7828	0.99784	-0.526
Mof_O 	O 	0.7101	0.2702	0.08694	-0.276
Mof_O 	O 	0.2855	0.6541	0.06836	-0.345
Mof_O 	O 	0.5483	0.0416	0.93849	-0.275
Mof_O 	O 	0.6757	0.8487	0.9731	-0.349
Mof_O 	O 	0.5735	0.8406	0.94189	-0.294
Mof_O 	O 	0.7615	0.9153	0.94178	-0.345
Mof_O 	O 	0.6529	0.7469	0.93	-0.106
Mof_O 	O 	0.5402	0.3545	0.68321	-0.475
Mof_O 	O 	0.4615	0.46	0.70181	-0.704
Mof_O 	O 	0.5152	0.4003	0.72351	-0.592
Mof_O 	O 	0.5096	0.6497	0.65514	-0.555
Mof_O 	O 	0.4293	0.5032	0.63766	-0.713
Mof_O 	O 	0.7319	0.6586	0.75063	-0.439
Mof_O 	O 	0.5769	0.6438	0.73051	-0.733
Mof_O 	O 	0.3595	0.2005	0.60376	-0.592
Mof_O 	O 	0.5246	0.6526	0.76329	-0.74
Mof_O 	O 	0.2233	0.4123	0.71674	-0.535
Mof_O 	O 	0.1769	0.1006	0.63397	-0.449
Mof_O 	O 	0.6376	0.6391	0.68128	-0.616
Mof_O 	O 	0.6065	0.7443	0.69994	-0.711
Mof_O 	O 	0.3537	0.2829	0.65507	-0.756
Mof_O 	O 	0.2718	0.2619	0.67798	-0.536
Mof_O 	O 	0.2248	0.6239	0.70581	-0.416
Mof_O 	O 	0.439	0.81	0.70193	-0.691
Mof_O 	O 	0.6106	0.4763	0.65395	-0.575
Mof_O 	O 	0.3643	0.5768	0.68538	-0.832
Mof_O 	O 	0.2652	0.4824	0.66451	-0.529
Mof_O 	O 	0.5601	0.2899	0.75361	-0.271
Mof_O 	O 	0.3686	0.7145	0.73503	-0.347
Mof_O 	O 	0.4933	0.4517	0.60516	-0.279
Mof_O 	O 	0.173	0.3243	0.63977	-0.335
Mof_O 	O 	0.2671	0.4265	0.60856	-0.285
Mof_O 	O 	0.1538	0.2385	0.60845	-0.332
Mof_O 	O 	0.094	0.3471	0.59667	-0.11
Mof_O 	O 	0.8143	0.4598	0.34987	-0.458
Mof_O 	O 	0.9985	0.5385	0.36847	-0.668
Mof_O 	O 	0.8851	0.4848	0.39017	-0.591
Mof_O 	O 	0.1401	0.4904	0.3218	-0.549
Mof_O 	O 	0.0739	0.5707	0.30432	-0.73
Mof_O 	O 	0.9267	0.2681	0.41729	-0.39
Mof_O 	O 	0.0669	0.4231	0.39717	-0.771
Mof_O 	O 	0.841	0.6405	0.27042	-0.583
Mof_O 	O 	0.128	0.4754	0.42995	-0.745
Mof_O 	O 	0.189	0.7767	0.3834	-0.53
Mof_O 	O 	0.9237	0.8231	0.30063	-0.451
Mof_O 	O 	0.0015	0.3624	0.34794	-0.624
Mof_O 	O 	0.1378	0.3935	0.3666	-0.71
Mof_O 	O 	0.9292	0.6463	0.32173	-0.746
Mof_O 	O 	0.9901	0.7282	0.34464	-0.513
Mof_O 	O 	0.3991	0.7752	0.37247	-0.414
Mof_O 	O 	0.371	0.561	0.36859	-0.689
Mof_O 	O 	0.8657	0.3894	0.32061	-0.548
Mof_O 	O 	0.2125	0.6357	0.35204	-0.824
Mof_O 	O 	0.2172	0.7348	0.33117	-0.525
Mof_O 	O 	0.7298	0.4399	0.42027	-0.275
Mof_O 	O 	0.3459	0.6314	0.40169	-0.345
Mof_O 	O 	0.9584	0.5067	0.27182	-0.273
Mof_O 	O 	0.1513	0.827	0.30643	-0.351
Mof_O 	O 	0.1594	0.7329	0.27522	-0.298
Mof_O 	O 	0.0847	0.8462	0.27511	-0.357
Mof_O 	O 	0.2531	0.906	0.26333	-0.118
Mof_O 	O 	0.3545	0.8143	0.51654	-0.46
Mof_O 	O 	0.46	0.9985	0.53514	-0.67
Mof_O 	O 	0.4003	0.8851	0.55684	-0.592
Mof_O 	O 	0.6497	0.1401	0.48847	-0.549
Mof_O 	O 	0.5032	0.0739	0.47099	-0.727
Mof_O 	O 	0.6586	0.9267	0.58396	-0.392
Mof_O 	O 	0.6438	0.0669	0.56384	-0.77
Mof_O 	O 	0.2005	0.841	0.43709	-0.595
Mof_O 	O 	0.6526	0.128	0.59662	-0.746
Mof_O 	O 	0.4123	0.189	0.55007	-0.53
Mof_O 	O 	0.1006	0.9237	0.4673	-0.448
Mof_O 	O 	0.6391	0.0015	0.51461	-0.622
Mof_O 	O 	0.7443	0.1378	0.53327	-0.713
Mof_O 	O 	0.2829	0.9292	0.4884	-0.744
Mof_O 	O 	0.2619	0.9901	0.51131	-0.514
Mof_O 	O 	0.6239	0.3991	0.53914	-0.416
Mof_O 	O 	0.81	0.371	0.53526	-0.689
Mof_O 	O 	0.4763	0.8657	0.48728	-0.551
Mof_O 	O 	0.5768	0.2125	0.51871	-0.825
Mof_O 	O 	0.4824	0.2172	0.49784	-0.526
Mof_O 	O 	0.2899	0.7298	0.58694	-0.276
Mof_O 	O 	0.7145	0.3459	0.56836	-0.345
Mof_O 	O 	0.4517	0.9584	0.43849	-0.275
Mof_O 	O 	0.3243	0.1513	0.4731	-0.349
Mof_O 	O 	0.4265	0.1594	0.44189	-0.294
Mof_O 	O 	0.2385	0.0847	0.44178	-0.345
Mof_O 	O 	0.3471	0.2531	0.43	-0.106
Mof_O 	O 	0.4598	0.6455	0.18321	-0.475
Mof_O 	O 	0.5385	0.54	0.20181	-0.704
Mof_O 	O 	0.4848	0.5997	0.22351	-0.592
Mof_O 	O 	0.4904	0.3503	0.15514	-0.555
Mof_O 	O 	0.5707	0.4968	0.13766	-0.713
Mof_O 	O 	0.2681	0.3414	0.25063	-0.439
Mof_O 	O 	0.4231	0.3562	0.23051	-0.733
Mof_O 	O 	0.6405	0.7995	0.10376	-0.592
Mof_O 	O 	0.4754	0.3474	0.26329	-0.74
Mof_O 	O 	0.7767	0.5877	0.21674	-0.535
Mof_O 	O 	0.8231	0.8994	0.13397	-0.449
Mof_O 	O 	0.3624	0.3609	0.18128	-0.616
Mof_O 	O 	0.3935	0.2557	0.19994	-0.711
Mof_O 	O 	0.6463	0.7171	0.15507	-0.756
Mof_O 	O 	0.7282	0.7381	0.17798	-0.536
Mof_O 	O 	0.7752	0.3761	0.20581	-0.416
Mof_O 	O 	0.561	0.19	0.20193	-0.691
Mof_O 	O 	0.3894	0.5237	0.15395	-0.575
Mof_O 	O 	0.6357	0.4232	0.18538	-0.832
Mof_O 	O 	0.7348	0.5176	0.16451	-0.529
Mof_O 	O 	0.4399	0.7101	0.25361	-0.271
Mof_O 	O 	0.6314	0.2855	0.23503	-0.347
Mof_O 	O 	0.5067	0.5483	0.10516	-0.279
Mof_O 	O 	0.827	0.6757	0.13977	-0.335
Mof_O 	O 	0.7329	0.5735	0.10856	-0.285
Mof_O 	O 	0.8462	0.7615	0.10845	-0.332
Mof_O 	O 	0.906	0.6529	0.09667	-0.11
Mof_O 	O 	0.1857	0.5402	0.84987	-0.458
Mof_O 	O 	0.0015	0.4615	0.86847	-0.668
Mof_O 	O 	0.1149	0.5152	0.89017	-0.591
Mof_O 	O 	0.8599	0.5096	0.8218	-0.549
Mof_O 	O 	0.9261	0.4293	0.80432	-0.73
Mof_O 	O 	0.0733	0.7319	0.91729	-0.39
Mof_O 	O 	0.9331	0.5769	0.89717	-0.771
Mof_O 	O 	0.159	0.3595	0.77042	-0.583
Mof_O 	O 	0.872	0.5246	0.92995	-0.745
Mof_O 	O 	0.811	0.2233	0.8834	-0.53
Mof_O 	O 	0.0763	0.1769	0.80063	-0.451
Mof_O 	O 	0.9985	0.6376	0.84794	-0.624
Mof_O 	O 	0.8622	0.6065	0.8666	-0.71
Mof_O 	O 	0.0708	0.3537	0.82173	-0.746
Mof_O 	O 	0.0099	0.2718	0.84464	-0.513
Mof_O 	O 	0.6009	0.2248	0.87247	-0.414
Mof_O 	O 	0.629	0.439	0.86859	-0.689
Mof_O 	O 	0.1343	0.6106	0.82061	-0.548
Mof_O 	O 	0.7875	0.3643	0.85204	-0.824
Mof_O 	O 	0.7828	0.2652	0.83117	-0.525
Mof_O 	O 	0.2702	0.5601	0.92027	-0.275
Mof_O 	O 	0.6541	0.3686	0.90169	-0.345
Mof_O 	O 	0.0416	0.4933	0.77182	-0.273
Mof_O 	O 	0.8487	0.173	0.80643	-0.351
Mof_O 	O 	0.8406	0.2671	0.77522	-0.298
Mof_O 	O 	0.9153	0.1538	0.77511	-0.357
Mof_O 	O 	0.7469	0.094	0.76333	-0.118
Mof_O 	O 	0.4598	0.8143	0.65013	-0.458
Mof_O 	O 	0.5385	0.9985	0.63153	-0.668
Mof_O 	O 	0.4848	0.8851	0.60983	-0.591
Mof_O 	O 	0.4904	0.1401	0.6782	-0.549
Mof_O 	O 	0.5707	0.0739	0.69568	-0.73
Mof_O 	O 	0.2681	0.9267	0.58271	-0.39
Mof_O 	O 	0.4231	0.0669	0.60283	-0.771
Mof_O 	O 	0.6405	0.841	0.72958	-0.583
Mof_O 	O 	0.4754	0.128	0.57005	-0.745
Mof_O 	O 	0.7767	0.189	0.6166	-0.53
Mof_O 	O 	0.8231	0.9237	0.69937	-0.451
Mof_O 	O 	0.3624	0.0015	0.65206	-0.624
Mof_O 	O 	0.3935	0.1378	0.6334	-0.71
Mof_O 	O 	0.6463	0.9292	0.67827	-0.746
Mof_O 	O 	0.7282	0.9901	0.65536	-0.513
Mof_O 	O 	0.7752	0.3991	0.62753	-0.414
Mof_O 	O 	0.561	0.371	0.63141	-0.689
Mof_O 	O 	0.3894	0.8657	0.67939	-0.548
Mof_O 	O 	0.6357	0.2125	0.64796	-0.824
Mof_O 	O 	0.7348	0.2172	0.66883	-0.525
Mof_O 	O 	0.4399	0.7298	0.57973	-0.275
Mof_O 	O 	0.6314	0.3459	0.59831	-0.345
Mof_O 	O 	0.5067	0.9584	0.72818	-0.273
Mof_O 	O 	0.827	0.1513	0.69357	-0.351
Mof_O 	O 	0.7329	0.1594	0.72478	-0.298
Mof_O 	O 	0.8462	0.0847	0.72489	-0.357
Mof_O 	O 	0.906	0.2531	0.73667	-0.118
Mof_O 	O 	0.1857	0.6455	0.98346	-0.46
Mof_O 	O 	0.0015	0.54	0.96486	-0.67
Mof_O 	O 	0.1149	0.5997	0.94316	-0.592
Mof_O 	O 	0.8599	0.3503	0.01153	-0.549
Mof_O 	O 	0.9261	0.4968	0.02901	-0.727
Mof_O 	O 	0.0733	0.3414	0.91604	-0.392
Mof_O 	O 	0.9331	0.3562	0.93616	-0.77
Mof_O 	O 	0.159	0.7995	0.06291	-0.595
Mof_O 	O 	0.872	0.3474	0.90338	-0.746
Mof_O 	O 	0.811	0.5877	0.94993	-0.53
Mof_O 	O 	0.0763	0.8994	0.0327	-0.448
Mof_O 	O 	0.9985	0.3609	0.98539	-0.622
Mof_O 	O 	0.8622	0.2557	0.96673	-0.713
Mof_O 	O 	0.0708	0.7171	0.0116	-0.744
Mof_O 	O 	0.0099	0.7381	0.98869	-0.514
Mof_O 	O 	0.6009	0.3761	0.96086	-0.416
Mof_O 	O 	0.629	0.19	0.96474	-0.689
Mof_O 	O 	0.1343	0.5237	0.01272	-0.551
Mof_O 	O 	0.7875	0.4232	0.98129	-0.825
Mof_O 	O 	0.7828	0.5176	0.00216	-0.526
Mof_O 	O 	0.2702	0.7101	0.91306	-0.276
Mof_O 	O 	0.6541	0.2855	0.93164	-0.345
Mof_O 	O 	0.0416	0.5483	0.06151	-0.275
Mof_O 	O 	0.8487	0.6757	0.0269	-0.349
Mof_O 	O 	0.8406	0.5735	0.05811	-0.294
Mof_O 	O 	0.9153	0.7615	0.05822	-0.345
Mof_O 	O 	0.7469	0.6529	0.07	-0.106
Mof_O 	O 	0.3545	0.5402	0.31679	-0.475
Mof_O 	O 	0.46	0.4615	0.29819	-0.704
Mof_O 	O 	0.4003	0.5152	0.27649	-0.592
Mof_O 	O 	0.6497	0.5096	0.34486	-0.555
Mof_O 	O 	0.5032	0.4293	0.36234	-0.713
Mof_O 	O 	0.6586	0.7319	0.24937	-0.439
Mof_O 	O 	0.6438	0.5769	0.26949	-0.733
Mof_O 	O 	0.2005	0.3595	0.39624	-0.592
Mof_O 	O 	0.6526	0.5246	0.23671	-0.74
Mof_O 	O 	0.4123	0.2233	0.28326	-0.535
Mof_O 	O 	0.1006	0.1769	0.36603	-0.449
Mof_O 	O 	0.6391	0.6376	0.31872	-0.616
Mof_O 	O 	0.7443	0.6065	0.30006	-0.711
Mof_O 	O 	0.2829	0.3537	0.34493	-0.756
Mof_O 	O 	0.2619	0.2718	0.32202	-0.536
Mof_O 	O 	0.6239	0.2248	0.29419	-0.416
Mof_O 	O 	0.81	0.439	0.29807	-0.691
Mof_O 	O 	0.4763	0.6106	0.34605	-0.575
Mof_O 	O 	0.5768	0.3643	0.31462	-0.832
Mof_O 	O 	0.4824	0.2652	0.33549	-0.529
Mof_O 	O 	0.2899	0.5601	0.24639	-0.271
Mof_O 	O 	0.7145	0.3686	0.26497	-0.347
Mof_O 	O 	0.4517	0.4933	0.39484	-0.279
Mof_O 	O 	0.3243	0.173	0.36023	-0.335
Mof_O 	O 	0.4265	0.2671	0.39144	-0.285
Mof_O 	O 	0.2385	0.1538	0.39155	-0.332
Mof_O 	O 	0.3471	0.094	0.40333	-0.11
Mof_O 	O 	0.5402	0.1857	0.15013	-0.458
Mof_O 	O 	0.4615	0.0015	0.13153	-0.668
Mof_O 	O 	0.5152	0.1149	0.10983	-0.591
Mof_O 	O 	0.5096	0.8599	0.1782	-0.549
Mof_O 	O 	0.4293	0.9261	0.19568	-0.73
Mof_O 	O 	0.7319	0.0733	0.08271	-0.39
Mof_O 	O 	0.5769	0.9331	0.10283	-0.771
Mof_O 	O 	0.3595	0.159	0.22958	-0.583
Mof_O 	O 	0.5246	0.872	0.07005	-0.745
Mof_O 	O 	0.2233	0.811	0.1166	-0.53
Mof_O 	O 	0.1769	0.0763	0.19937	-0.451
Mof_O 	O 	0.6376	0.9985	0.15206	-0.624
Mof_O 	O 	0.6065	0.8622	0.1334	-0.71
Mof_O 	O 	0.3537	0.0708	0.17827	-0.746
Mof_O 	O 	0.2718	0.0099	0.15536	-0.513
Mof_O 	O 	0.2248	0.6009	0.12753	-0.414
Mof_O 	O 	0.439	0.629	0.13141	-0.689
Mof_O 	O 	0.6106	0.1343	0.17939	-0.548
Mof_O 	O 	0.3643	0.7875	0.14796	-0.824
Mof_O 	O 	0.2652	0.7828	0.16883	-0.525
Mof_O 	O 	0.5601	0.2702	0.07973	-0.275
Mof_O 	O 	0.3686	0.6541	0.09831	-0.345
Mof_O 	O 	0.4933	0.0416	0.22818	-0.273
Mof_O 	O 	0.173	0.8487	0.19357	-0.351
Mof_O 	O 	0.2671	0.8406	0.22478	-0.298
Mof_O 	O 	0.1538	0.9153	0.22489	-0.357
Mof_O 	O 	0.094	0.7469	0.23667	-0.118
Mof_O 	O 	0.8143	0.3545	0.48346	-0.46
Mof_O 	O 	0.9985	0.46	0.46486	-0.67
Mof_O 	O 	0.8851	0.4003	0.44316	-0.592
Mof_O 	O 	0.1401	0.6497	0.51153	-0.549
Mof_O 	O 	0.0739	0.5032	0.52901	-0.727
Mof_O 	O 	0.9267	0.6586	0.41604	-0.392
Mof_O 	O 	0.0669	0.6438	0.43616	-0.77
Mof_O 	O 	0.841	0.2005	0.56291	-0.595
Mof_O 	O 	0.128	0.6526	0.40338	-0.746
Mof_O 	O 	0.189	0.4123	0.44993	-0.53
Mof_O 	O 	0.9237	0.1006	0.5327	-0.448
Mof_O 	O 	0.0015	0.6391	0.48539	-0.622
Mof_O 	O 	0.1378	0.7443	0.46673	-0.713
Mof_O 	O 	0.9292	0.2829	0.5116	-0.744
Mof_O 	O 	0.9901	0.2619	0.48869	-0.514
Mof_O 	O 	0.3991	0.6239	0.46086	-0.416
Mof_O 	O 	0.371	0.81	0.46474	-0.689
Mof_O 	O 	0.8657	0.4763	0.51272	-0.551
Mof_O 	O 	0.2125	0.5768	0.48129	-0.825
Mof_O 	O 	0.2172	0.4824	0.50216	-0.526
Mof_O 	O 	0.7298	0.2899	0.41306	-0.276
Mof_O 	O 	0.3459	0.7145	0.43164	-0.345
Mof_O 	O 	0.9584	0.4517	0.56151	-0.275
Mof_O 	O 	0.1513	0.3243	0.5269	-0.349
Mof_O 	O 	0.1594	0.4265	0.55811	-0.294
Mof_O 	O 	0.0847	0.2385	0.55822	-0.345
Mof_O 	O 	0.2531	0.3471	0.57	-0.106
Mof_O 	O 	0.6455	0.4598	0.81679	-0.475
Mof_O 	O 	0.54	0.5385	0.79819	-0.704
Mof_O 	O 	0.5997	0.4848	0.77649	-0.592
Mof_O 	O 	0.3503	0.4904	0.84486	-0.555
Mof_O 	O 	0.4968	0.5707	0.86234	-0.713
Mof_O 	O 	0.3414	0.2681	0.74937	-0.439
Mof_O 	O 	0.3562	0.4231	0.76949	-0.733
Mof_O 	O 	0.7995	0.6405	0.89624	-0.592
Mof_O 	O 	0.3474	0.4754	0.73671	-0.74
Mof_O 	O 	0.5877	0.7767	0.78326	-0.535
Mof_O 	O 	0.8994	0.8231	0.86603	-0.449
Mof_O 	O 	0.3609	0.3624	0.81872	-0.616
Mof_O 	O 	0.2557	0.3935	0.80006	-0.711
Mof_O 	O 	0.7171	0.6463	0.84493	-0.756
Mof_O 	O 	0.7381	0.7282	0.82202	-0.536
Mof_O 	O 	0.3761	0.7752	0.79419	-0.416
Mof_O 	O 	0.19	0.561	0.79807	-0.691
Mof_O 	O 	0.5237	0.3894	0.84605	-0.575
Mof_O 	O 	0.4232	0.6357	0.81462	-0.832
Mof_O 	O 	0.5176	0.7348	0.83549	-0.529
Mof_O 	O 	0.7101	0.4399	0.74639	-0.271
Mof_O 	O 	0.2855	0.6314	0.76497	-0.347
Mof_O 	O 	0.5483	0.5067	0.89484	-0.279
Mof_O 	O 	0.6757	0.827	0.86023	-0.335
Mof_O 	O 	0.5735	0.7329	0.89144	-0.285
Mof_O 	O 	0.7615	0.8462	0.89155	-0.332
Mof_O 	O 	0.6529	0.906	0.90333	-0.11
Mof_C 	C 	0.2704	0.2569	0.1056	0.442
Mof_O 	O 	0.3473	0.2733	0.09491	-0.225
Mof_O 	O 	0.2949	0.3443	0.11453	-0.269
Mof_O 	O 	0.1922	0.1498	0.10934	-0.273
Mof_C 	C 	0.9865	0.7296	0.77227	0.41
Mof_O 	O 	0.926	0.6527	0.76158	-0.228
Mof_O 	O 	0.0494	0.7051	0.7812	-0.243
Mof_O 	O 	0.9576	0.8078	0.77601	-0.292
Mof_C 	C 	0.7431	0.0135	0.43893	0.417
Mof_O 	O 	0.7267	0.074	0.42824	-0.224
Mof_O 	O 	0.6557	0.9506	0.44786	-0.249
Mof_O 	O 	0.8502	0.0424	0.44267	-0.276
Mof_C 	C 	0.7296	0.7431	0.6056	0.442
Mof_O 	O 	0.6527	0.7267	0.59491	-0.225
Mof_O 	O 	0.7051	0.6557	0.61453	-0.269
Mof_O 	O 	0.8078	0.8502	0.60934	-0.273
Mof_C 	C 	0.0135	0.2704	0.27227	0.41
Mof_O 	O 	0.074	0.3473	0.26158	-0.228
Mof_O 	O 	0.9506	0.2949	0.2812	-0.243
Mof_O 	O 	0.0424	0.1922	0.27601	-0.292
Mof_C 	C 	0.2569	0.9865	0.93893	0.417
Mof_O 	O 	0.2733	0.926	0.92824	-0.224
Mof_O 	O 	0.3443	0.0494	0.94786	-0.249
Mof_O 	O 	0.1498	0.9576	0.94267	-0.276
Mof_C 	C 	0.0135	0.7431	0.56107	0.417
Mof_O 	O 	0.074	0.7267	0.57176	-0.224
Mof_O 	O 	0.9506	0.6557	0.55214	-0.249
Mof_O 	O 	0.0424	0.8502	0.55733	-0.276
Mof_C 	C 	0.2569	0.2704	0.8944	0.442
Mof_O 	O 	0.2733	0.3473	0.90509	-0.225
Mof_O 	O 	0.3443	0.2949	0.88547	-0.269
Mof_O 	O 	0.1498	0.1922	0.89066	-0.273
Mof_C 	C 	0.7296	0.9865	0.22773	0.41
Mof_O 	O 	0.6527	0.926	0.23842	-0.228
Mof_O 	O 	0.7051	0.0494	0.2188	-0.243
Mof_O 	O 	0.8078	0.9576	0.22399	-0.292
Mof_C 	C 	0.9865	0.2569	0.06107	0.417
Mof_O 	O 	0.926	0.2733	0.07176	-0.224
Mof_O 	O 	0.0494	0.3443	0.05214	-0.249
Mof_O 	O 	0.9576	0.1498	0.05733	-0.276
Mof_C 	C 	0.7431	0.7296	0.3944	0.442
Mof_O 	O 	0.7267	0.6527	0.40509	-0.225
Mof_O 	O 	0.6557	0.7051	0.38547	-0.269
Mof_O 	O 	0.8502	0.8078	0.39066	-0.273
Mof_C 	C 	0.2704	0.0135	0.72773	0.41
Mof_O 	O 	0.3473	0.074	0.73842	-0.228
Mof_O 	O 	0.2949	0.9506	0.7188	-0.243
Mof_O 	O 	0.1922	0.0424	0.72399	-0.292
_end
