data_functionalizedCrystal
_audit_creation_method	'EQeq! by Chris Wilmer'
_symmetry_space_group_name_H-M	'P1'
_symmetry_Int_Tables_number	1
_symmetry_cell_setting	triclinic
loop_
_symmetry_equiv_pos_as_xyz
  x,y,z
_cell_length_a	28.552
_cell_length_b	27.8454
_cell_length_c	27.887
_cell_angle_alpha	90
_cell_angle_beta	120.61
_cell_angle_gamma	90
loop_
_atom_site_label
_atom_site_type_symbol
_atom_site_fract_x
_atom_site_fract_y
_atom_site_fract_z
_atom_site_charge
Mof_W 	W 	0.14493	0.62793	0.19992	1
Mof_W 	W 	0.22764	0.62804	0.14688	0.971
Mof_W 	W 	0.19343	0.57842	0.3385	1.023
Mof_W 	W 	0.26763	0.41135	0.35364	1
Mof_W 	W 	0.36485	0.57968	0.22854	1.005
Mof_W 	W 	0.35895	0.41194	0.29547	1.028
Mof_W 	W 	0.41043	0.53648	0.35685	0.977
Mof_W 	W 	0.14141	0.4545	0.277	1.333
Mof_W 	W 	0.32045	0.5357	0.41408	1.264
Mof_W 	W 	0.31551	0.45545	0.16746	1.343
Mof_W 	W 	0.09327	0.50417	0.1362	1.037
Mof_W 	W 	0.1123	0.37155	0.16	0.996
Mof_W 	W 	0.1979	0.37127	0.10803	1.005
Mof_W 	W 	0.17564	0.50341	0.0842	1.041
Mof_W 	W 	0.24136	0.32862	0.23843	1.286
Mof_Ni	Ni	0.42111	0.6261	0.45475	1.046
Mof_Ni	Ni	0.19318	0.70465	0.32315	1.087
Mof_Ni	Ni	0.34977	0.53122	0.55584	1.033
Mof_Ni	Ni	0.26293	0.70084	0.26481	1.106
Mof_Ni	Ni	0.38018	0.6617	0.33446	1.108
Mof_Ni	Ni	0.30331	0.66168	0.38333	1.105
Mof_Ni	Ni	0.3462	0.70489	0.22319	1.088
Mof_P 	P 	0.27889	0.58552	0.28321	0.535
Mof_P 	P 	0.22292	0.45127	0.21584	0.573
Mof_O 	O 	0.3398	0.5981	0.4229	-0.638
Mof_O 	O 	0.3472	0.5109	0.2033	-0.466
Mof_O 	O 	0.1698	0.5101	0.315	-0.47
Mof_O 	O 	0.1686	0.432	0.0795	-0.449
Mof_O 	O 	0.3797	0.68	0.404	-0.59
Mof_O 	O 	0.2631	0.6762	0.1947	-0.584
Mof_O 	O 	0.3	0.6362	0.3095	-0.599
Mof_O 	O 	0.1632	0.3212	0.2034	-0.445
Mof_O 	O 	0.1241	0.3982	0.2274	-0.471
Mof_O 	O 	0.2628	0.2706	0.2644	-0.533
Mof_O 	O 	0.2193	0.4557	0.2681	-0.349
Mof_O 	O 	0.1511	0.5912	0.26	-0.458
Mof_O 	O 	0.1853	0.489	0.1707	-0.332
Mof_O 	O 	0.3404	0.7195	0.2902	-0.563
Mof_O 	O 	0.2021	0.4006	0.1913	-0.402
Mof_O 	O 	0.2287	0.3212	0.1633	-0.446
Mof_O 	O 	0.2632	0.5576	0.3213	-0.355
Mof_O 	O 	0.2254	0.6359	0.3519	-0.606
Mof_O 	O 	0.1593	0.643	0.1412	-0.449
Mof_O 	O 	0.3246	0.5585	0.28	-0.338
Mof_O 	O 	0.3687	0.5172	0.3913	-0.489
Mof_O 	O 	0.3261	0.4133	0.3397	-0.482
Mof_O 	O 	0.3638	0.417	0.229	-0.475
Mof_O 	O 	0.3032	0.6916	0.4498	-0.464
Mof_O 	O 	0.2923	0.5905	0.1712	-0.456
Mof_O 	O 	0.2853	0.4701	0.3848	-0.455
Mof_O 	O 	0.355	0.5171	0.4836	-0.578
Mof_O 	O 	0.1853	0.6761	0.243	-0.582
Mof_O 	O 	0.2293	0.5921	0.2245	-0.338
Mof_O 	O 	0.1085	0.4889	0.2089	-0.491
Mof_O 	O 	0.2811	0.4557	0.2289	-0.35
Mof_O 	O 	0.267	0.3993	0.1385	-0.469
Mof_O 	O 	0.3068	0.3588	0.2574	-0.475
Mof_O 	O 	0.2424	0.3582	0.2978	-0.478
Mof_O 	O 	0.0916	0.4325	0.1285	-0.451
Mof_O 	O 	0.1889	0.5648	0.1098	-0.43
Mof_O 	O 	0.116	0.5654	0.1558	-0.434
Mof_O 	O 	0.3874	0.4706	0.3186	-0.444
Mof_O 	O 	0.4229	0.5524	0.2972	-0.446
Mof_O 	O 	0.2507	0.5513	0.4058	-0.491
Mof_O 	O 	0.3699	0.6375	0.2602	-0.602
Mof_O 	O 	0.0853	0.448	0.2847	-0.58
Mof_O 	O 	0.267	0.7191	0.3357	-0.569
Mof_O 	O 	0.1289	0.3541	0.1029	-0.431
Mof_O 	O 	0.1041	0.5051	0.0738	-0.461
Mof_O 	O 	0.3425	0.4498	0.1246	-0.581
Mof_O 	O 	0.219	0.7224	0.4052	-0.442
Mof_O 	O 	0.4271	0.722	0.2657	-0.496
Mof_O 	O 	0.4518	0.6912	0.3538	-0.49
Mof_O 	O 	0.2497	0.4894	0.1186	-0.487
Mof_O 	O 	0.4133	0.5983	0.3787	-0.575
Mof_O 	O 	0.1928	0.4152	0.3357	-0.482
Mof_N 	N 	0.3449	0.6882	0.1515	-0.353
Mof_H 	H 	0.3782	0.6785	0.1596	0.079
Mof_H 	H 	0.3215	0.6638	0.1343	0.07
Mof_N 	N 	0.0064	0.5062	0.3024	-0.36
Mof_H 	H 	0.9832	0.502	0.3148	0.092
Mof_H 	H 	0.0405	0.5081	0.3319	0.083
Mof_N 	N 	0.3214	0.7706	0.1835	-0.306
Mof_H 	H 	0.291	0.7797	0.1832	0.102
Mof_H 	H 	0.3474	0.7925	0.2032	0.11
Mof_N 	N 	0.3749	0.4615	0.582	-0.254
Mof_H 	H 	0.3985	0.4518	0.5715	0.041
Mof_H 	H 	0.3914	0.4595	0.6193	0.059
Mof_N 	N 	0.4657	0.5688	0.5034	-0.192
Mof_H 	H 	0.4537	0.5602	0.5264	0.026
Mof_H 	H 	0.4622	0.5435	0.4818	0.053
Mof_N 	N 	0.4961	0.6559	0.4792	-0.56
Mof_H 	H 	0.4959	0.67	0.45	0.144
Mof_H 	H 	0.5047	0.6781	0.5058	0.1
Mof_N 	N 	0.1165	0.6864	0.3044	-0.32
Mof_H 	H 	0.1012	0.6665	0.2749	0.075
Mof_H 	H 	0.1176	0.6714	0.3335	0.079
Mof_N 	N 	0.1587	0.7696	0.2948	-0.339
Mof_H 	H 	0.1747	0.7909	0.3229	0.121
Mof_H 	H 	0.1654	0.7791	0.268	0.109
Mof_N 	N 	0.2729	0.5006	0.5144	-0.435
Mof_H 	H 	0.2529	0.5114	0.5287	0.113
Mof_H 	H 	0.2557	0.5083	0.478	0.121
Mof_C 	C 	0.2647	0.7146	0.4487	0.386
Mof_C 	C 	0.274	0.7379	0.5011	-0.239
Mof_H 	H 	0.3026	0.7616	0.5123	0.091
Mof_H 	H 	0.2873	0.7136	0.53	0.092
Mof_C 	C 	0.3104	0.7701	0.1264	-0.211
Mof_H 	H 	0.2715	0.773	0.1012	0.055
Mof_H 	H 	0.3275	0.7981	0.121	0.068
Mof_C 	C 	0.5212	0.5834	0.5349	-0.848
Mof_H 	H 	0.5445	0.5553	0.5467	0.261
Mof_H 	H 	0.5274	0.6004	0.568	0.207
Mof_C 	C 	0.4606	0.7123	0.3168	0.535
Mof_C 	C 	0.0983	0.7712	0.2716	-0.043
Mof_H 	H 	0.0884	0.8003	0.2834	0.022
Mof_H 	H 	0.0791	0.7706	0.2312	0.008
Mof_C 	C 	0.0846	0.7313	0.2915	-0.08
Mof_H 	H 	0.0471	0.7233	0.2644	0.029
Mof_H 	H 	0.0853	0.741	0.3253	0.03
Mof_C 	C 	0.315	0.7235	0.0507	-0.558
Mof_H 	H 	0.2789	0.7103	0.0286	0.15
Mof_H 	H 	0.3409	0.7017	0.0507	0.146
Mof_H 	H 	0.3167	0.7537	0.0352	0.156
Mof_C 	C 	0.993	0.5496	0.268	0.128
Mof_H 	H 	0.953	0.547	0.245	-0.02
Mof_C 	C 	0.001	0.5999	0.279	-0.265
Mof_H 	H 	0.036	0.6087	0.3108	0.075
Mof_H 	H 	0.9713	0.6168	0.2789	0.082
Mof_C 	C 	0.279	0.4522	0.521	0.45
Mof_H 	H 	0.27	0.454	0.55	-0.102
Mof_C 	C 	0.2345	0.4169	0.49	-0.908
Mof_H 	H 	0.2496	0.3852	0.4956	0.258
Mof_H 	H 	0.2155	0.4244	0.4509	0.272
Mof_H 	H 	0.2096	0.4182	0.5035	0.261
Mof_C 	C 	0.3277	0.4328	0.5566	-0.405
Mof_H 	H 	0.3341	0.4072	0.5371	0.096
Mof_H 	H 	0.3245	0.418	0.5863	0.125
Mof_C 	C 	0.3277	0.7312	0.1123	0.172
Mof_H 	H 	0.365	0.743	0.126	-0.037
Mof_C 	C 	0.5362	0.6158	0.5011	1.384
Mof_H 	H 	0.52	0.596	0.467	-0.374
Mof_C 	C 	0.5847	0.6185	0.509	-2.643
Mof_H 	H 	0.5868	0.6453	0.4883	0.76
Mof_H 	H 	0.5929	0.5894	0.4958	0.791
Mof_H 	H 	0.6105	0.6227	0.5477	0.766
Mof_C 	C 	0.519	0.7259	0.333	-0.973
Mof_H 	H 	0.5189	0.7576	0.3193	0.302
Mof_H 	H 	0.5322	0.7033	0.3167	0.305
Mof_H 	H 	0.5417	0.7254	0.3727	0.293
Mof_W 	W 	0.64493	0.12793	0.19992	1
Mof_W 	W 	0.72764	0.12804	0.14688	0.972
Mof_W 	W 	0.69343	0.07842	0.3385	1.026
Mof_W 	W 	0.76763	0.91135	0.35364	1.001
Mof_W 	W 	0.86485	0.07968	0.22854	1.007
Mof_W 	W 	0.85895	0.91194	0.29547	1.029
Mof_W 	W 	0.91043	0.03648	0.35685	0.979
Mof_W 	W 	0.64141	0.9545	0.277	1.335
Mof_W 	W 	0.82045	0.0357	0.41408	1.264
Mof_W 	W 	0.81551	0.95545	0.16746	1.344
Mof_W 	W 	0.59327	0.00417	0.1362	1.036
Mof_W 	W 	0.6123	0.87155	0.16	0.998
Mof_W 	W 	0.6979	0.87127	0.10803	1.006
Mof_W 	W 	0.67564	0.00341	0.0842	1.039
Mof_W 	W 	0.74136	0.82862	0.23843	1.286
Mof_Ni	Ni	0.92111	0.1261	0.45475	1.047
Mof_Ni	Ni	0.69318	0.20465	0.32315	1.087
Mof_Ni	Ni	0.84977	0.03122	0.55584	1.034
Mof_Ni	Ni	0.76293	0.20084	0.26481	1.106
Mof_Ni	Ni	0.88018	0.1617	0.33446	1.108
Mof_Ni	Ni	0.80331	0.16168	0.38333	1.105
Mof_Ni	Ni	0.8462	0.20489	0.22319	1.088
Mof_P 	P 	0.77889	0.08552	0.28321	0.535
Mof_P 	P 	0.72292	0.95127	0.21584	0.573
Mof_O 	O 	0.8398	0.0981	0.4229	-0.638
Mof_O 	O 	0.8472	0.0109	0.2033	-0.467
Mof_O 	O 	0.6698	0.0101	0.315	-0.469
Mof_O 	O 	0.6686	0.932	0.0795	-0.448
Mof_O 	O 	0.8797	0.18	0.404	-0.589
Mof_O 	O 	0.7631	0.1762	0.1947	-0.584
Mof_O 	O 	0.8	0.1362	0.3095	-0.599
Mof_O 	O 	0.6632	0.8212	0.2034	-0.445
Mof_O 	O 	0.6241	0.8982	0.2274	-0.471
Mof_O 	O 	0.7628	0.7706	0.2644	-0.533
Mof_O 	O 	0.7193	0.9557	0.2681	-0.349
Mof_O 	O 	0.6511	0.0912	0.26	-0.459
Mof_O 	O 	0.6853	0.989	0.1707	-0.331
Mof_O 	O 	0.8404	0.2195	0.2902	-0.563
Mof_O 	O 	0.7021	0.9006	0.1913	-0.403
Mof_O 	O 	0.7287	0.8212	0.1633	-0.446
Mof_O 	O 	0.7632	0.0576	0.3213	-0.355
Mof_O 	O 	0.7254	0.1359	0.3519	-0.606
Mof_O 	O 	0.6593	0.143	0.1412	-0.449
Mof_O 	O 	0.8246	0.0585	0.28	-0.339
Mof_O 	O 	0.8687	0.0172	0.3913	-0.489
Mof_O 	O 	0.8261	0.9133	0.3397	-0.483
Mof_O 	O 	0.8638	0.917	0.229	-0.474
Mof_O 	O 	0.8032	0.1916	0.4498	-0.464
Mof_O 	O 	0.7923	0.0905	0.1712	-0.456
Mof_O 	O 	0.7853	0.9701	0.3848	-0.455
Mof_O 	O 	0.855	0.0171	0.4836	-0.578
Mof_O 	O 	0.6853	0.1761	0.243	-0.582
Mof_O 	O 	0.7293	0.0921	0.2245	-0.338
Mof_O 	O 	0.6085	0.9889	0.2089	-0.49
Mof_O 	O 	0.7811	0.9557	0.2289	-0.35
Mof_O 	O 	0.767	0.8993	0.1385	-0.469
Mof_O 	O 	0.8068	0.8588	0.2574	-0.475
Mof_O 	O 	0.7424	0.8582	0.2978	-0.478
Mof_O 	O 	0.5916	0.9325	0.1285	-0.449
Mof_O 	O 	0.6889	0.0648	0.1098	-0.43
Mof_O 	O 	0.616	0.0654	0.1558	-0.434
Mof_O 	O 	0.8874	0.9706	0.3186	-0.443
Mof_O 	O 	0.9229	0.0524	0.2972	-0.445
Mof_O 	O 	0.7507	0.0513	0.4058	-0.491
Mof_O 	O 	0.8699	0.1375	0.2602	-0.602
Mof_O 	O 	0.5853	0.948	0.2847	-0.578
Mof_O 	O 	0.767	0.2191	0.3357	-0.568
Mof_O 	O 	0.6289	0.8541	0.1029	-0.43
Mof_O 	O 	0.6041	0.0051	0.0738	-0.46
Mof_O 	O 	0.8425	0.9498	0.1246	-0.58
Mof_O 	O 	0.719	0.2224	0.4052	-0.441
Mof_O 	O 	0.9271	0.222	0.2657	-0.496
Mof_O 	O 	0.9518	0.1912	0.3538	-0.49
Mof_O 	O 	0.7497	0.9894	0.1186	-0.486
Mof_O 	O 	0.9133	0.0983	0.3787	-0.574
Mof_O 	O 	0.6928	0.9152	0.3357	-0.482
Mof_N 	N 	0.8449	0.1882	0.1515	-0.353
Mof_H 	H 	0.8782	0.1785	0.1596	0.08
Mof_H 	H 	0.8215	0.1638	0.1343	0.071
Mof_N 	N 	0.5064	0.0062	0.3024	-0.334
Mof_H 	H 	0.4832	0.002	0.3148	0.082
Mof_H 	H 	0.5405	0.0081	0.3319	0.081
Mof_N 	N 	0.8214	0.2706	0.1835	-0.306
Mof_H 	H 	0.791	0.2797	0.1832	0.102
Mof_H 	H 	0.8474	0.2925	0.2032	0.11
Mof_N 	N 	0.8749	0.9615	0.582	-0.254
Mof_H 	H 	0.8985	0.9518	0.5715	0.042
Mof_H 	H 	0.8914	0.9595	0.6193	0.06
Mof_N 	N 	0.9657	0.0688	0.5034	-0.191
Mof_H 	H 	0.9537	0.0602	0.5264	0.027
Mof_H 	H 	0.9622	0.0435	0.4818	0.055
Mof_N 	N 	0.9961	0.1559	0.4792	-0.55
Mof_H 	H 	0.9959	0.17	0.45	0.145
Mof_H 	H 	0.0047	0.1781	0.5058	0.093
Mof_N 	N 	0.6165	0.1864	0.3044	-0.32
Mof_H 	H 	0.6012	0.1665	0.2749	0.075
Mof_H 	H 	0.6176	0.1714	0.3335	0.08
Mof_N 	N 	0.6587	0.2696	0.2948	-0.339
Mof_H 	H 	0.6747	0.2909	0.3229	0.121
Mof_H 	H 	0.6654	0.2791	0.268	0.109
Mof_N 	N 	0.7729	0.0006	0.5144	-0.435
Mof_H 	H 	0.7529	0.0114	0.5287	0.113
Mof_H 	H 	0.7557	0.0083	0.478	0.121
Mof_C 	C 	0.7647	0.2146	0.4487	0.386
Mof_C 	C 	0.774	0.2379	0.5011	-0.24
Mof_H 	H 	0.8026	0.2616	0.5123	0.092
Mof_H 	H 	0.7873	0.2136	0.53	0.093
Mof_C 	C 	0.8104	0.2701	0.1264	-0.209
Mof_H 	H 	0.7715	0.273	0.1012	0.054
Mof_H 	H 	0.8275	0.2981	0.121	0.068
Mof_C 	C 	0.0212	0.0834	0.5349	-0.845
Mof_H 	H 	0.0445	0.0553	0.5467	0.259
Mof_H 	H 	0.0274	0.1004	0.568	0.205
Mof_C 	C 	0.9606	0.2123	0.3168	0.543
Mof_C 	C 	0.5983	0.2712	0.2716	-0.043
Mof_H 	H 	0.5884	0.3003	0.2834	0.022
Mof_H 	H 	0.5791	0.2706	0.2312	0.009
Mof_C 	C 	0.5846	0.2313	0.2915	-0.082
Mof_H 	H 	0.5471	0.2233	0.2644	0.031
Mof_H 	H 	0.5853	0.241	0.3253	0.031
Mof_C 	C 	0.815	0.2235	0.0507	-0.557
Mof_H 	H 	0.7789	0.2103	0.0286	0.149
Mof_H 	H 	0.8409	0.2017	0.0507	0.146
Mof_H 	H 	0.8167	0.2537	0.0352	0.155
Mof_C 	C 	0.493	0.0496	0.268	0.013
Mof_H 	H 	0.453	0.047	0.245	0.009
Mof_C 	C 	0.501	0.0999	0.279	-0.127
Mof_H 	H 	0.536	0.1087	0.3108	0.036
Mof_H 	H 	0.4713	0.1168	0.2789	0.036
Mof_C 	C 	0.779	0.9522	0.521	0.451
Mof_H 	H 	0.77	0.954	0.55	-0.102
Mof_C 	C 	0.7345	0.9169	0.49	-0.91
Mof_H 	H 	0.7496	0.8852	0.4956	0.259
Mof_H 	H 	0.7155	0.9244	0.4509	0.273
Mof_H 	H 	0.7096	0.9182	0.5035	0.262
Mof_C 	C 	0.8277	0.9328	0.5566	-0.406
Mof_H 	H 	0.8341	0.9072	0.5371	0.096
Mof_H 	H 	0.8245	0.918	0.5863	0.125
Mof_C 	C 	0.8277	0.2312	0.1123	0.171
Mof_H 	H 	0.865	0.243	0.126	-0.036
Mof_C 	C 	0.0362	0.1158	0.5011	1.366
Mof_H 	H 	0.02	0.096	0.467	-0.372
Mof_C 	C 	0.0847	0.1185	0.509	-2.613
Mof_H 	H 	0.0868	0.1453	0.4883	0.751
Mof_H 	H 	0.0929	0.0894	0.4958	0.782
Mof_H 	H 	0.1105	0.1227	0.5477	0.758
Mof_C 	C 	0.019	0.2259	0.333	-0.989
Mof_H 	H 	0.0189	0.2576	0.3193	0.304
Mof_H 	H 	0.0322	0.2033	0.3167	0.308
Mof_H 	H 	0.0417	0.2254	0.3727	0.296
Mof_W 	W 	0.85507	0.62793	0.30008	0.999
Mof_W 	W 	0.77236	0.62804	0.35312	0.972
Mof_W 	W 	0.80657	0.57842	0.1615	1.029
Mof_W 	W 	0.73237	0.41135	0.14636	1.001
Mof_W 	W 	0.63515	0.57968	0.27146	1.006
Mof_W 	W 	0.64105	0.41194	0.20453	1.028
Mof_W 	W 	0.58957	0.53648	0.14315	0.977
Mof_W 	W 	0.85859	0.4545	0.223	1.335
Mof_W 	W 	0.67955	0.5357	0.08592	1.264
Mof_W 	W 	0.68449	0.45545	0.33254	1.343
Mof_W 	W 	0.90673	0.50417	0.3638	1.039
Mof_W 	W 	0.8877	0.37155	0.34	1
Mof_W 	W 	0.8021	0.37127	0.39197	1.007
Mof_W 	W 	0.82436	0.50341	0.4158	1.042
Mof_W 	W 	0.75864	0.32862	0.26157	1.286
Mof_Ni	Ni	0.57889	0.6261	0.04525	1.046
Mof_Ni	Ni	0.80682	0.70465	0.17685	1.087
Mof_Ni	Ni	0.65023	0.53122	0.94416	1.033
Mof_Ni	Ni	0.73707	0.70084	0.23519	1.106
Mof_Ni	Ni	0.61982	0.6617	0.16554	1.108
Mof_Ni	Ni	0.69669	0.66168	0.11667	1.105
Mof_Ni	Ni	0.6538	0.70489	0.27681	1.088
Mof_P 	P 	0.72111	0.58552	0.21679	0.536
Mof_P 	P 	0.77708	0.45127	0.28416	0.573
Mof_O 	O 	0.6602	0.5981	0.0771	-0.638
Mof_O 	O 	0.6528	0.5109	0.2967	-0.466
Mof_O 	O 	0.8302	0.5101	0.185	-0.468
Mof_O 	O 	0.8314	0.432	0.4205	-0.448
Mof_O 	O 	0.6203	0.68	0.096	-0.59
Mof_O 	O 	0.7369	0.6762	0.3053	-0.584
Mof_O 	O 	0.7	0.6362	0.1905	-0.599
Mof_O 	O 	0.8368	0.3212	0.2966	-0.445
Mof_O 	O 	0.8759	0.3982	0.2726	-0.47
Mof_O 	O 	0.7372	0.2706	0.2356	-0.533
Mof_O 	O 	0.7807	0.4557	0.2319	-0.35
Mof_O 	O 	0.8489	0.5912	0.24	-0.459
Mof_O 	O 	0.8147	0.489	0.3293	-0.332
Mof_O 	O 	0.6596	0.7195	0.2098	-0.563
Mof_O 	O 	0.7979	0.4006	0.3087	-0.403
Mof_O 	O 	0.7713	0.3212	0.3367	-0.446
Mof_O 	O 	0.7368	0.5576	0.1787	-0.355
Mof_O 	O 	0.7746	0.6359	0.1481	-0.607
Mof_O 	O 	0.8407	0.643	0.3588	-0.449
Mof_O 	O 	0.6754	0.5585	0.22	-0.338
Mof_O 	O 	0.6313	0.5172	0.1087	-0.489
Mof_O 	O 	0.6739	0.4133	0.1603	-0.482
Mof_O 	O 	0.6362	0.417	0.271	-0.475
Mof_O 	O 	0.6968	0.6916	0.0502	-0.464
Mof_O 	O 	0.7077	0.5905	0.3288	-0.456
Mof_O 	O 	0.7147	0.4701	0.1152	-0.455
Mof_O 	O 	0.645	0.5171	0.0164	-0.578
Mof_O 	O 	0.8147	0.6761	0.257	-0.582
Mof_O 	O 	0.7707	0.5921	0.2755	-0.338
Mof_O 	O 	0.8915	0.4889	0.2911	-0.491
Mof_O 	O 	0.7189	0.4557	0.2711	-0.35
Mof_O 	O 	0.733	0.3993	0.3615	-0.469
Mof_O 	O 	0.6932	0.3588	0.2426	-0.475
Mof_O 	O 	0.7576	0.3582	0.2022	-0.478
Mof_O 	O 	0.9084	0.4325	0.3715	-0.45
Mof_O 	O 	0.8111	0.5648	0.3902	-0.43
Mof_O 	O 	0.884	0.5654	0.3442	-0.434
Mof_O 	O 	0.6126	0.4706	0.1814	-0.444
Mof_O 	O 	0.5771	0.5524	0.2028	-0.446
Mof_O 	O 	0.7493	0.5513	0.0942	-0.491
Mof_O 	O 	0.6301	0.6375	0.2398	-0.602
Mof_O 	O 	0.9147	0.448	0.2153	-0.576
Mof_O 	O 	0.733	0.7191	0.1643	-0.569
Mof_O 	O 	0.8711	0.3541	0.3971	-0.429
Mof_O 	O 	0.8959	0.5051	0.4262	-0.459
Mof_O 	O 	0.6575	0.4498	0.3754	-0.581
Mof_O 	O 	0.781	0.7224	0.0948	-0.441
Mof_O 	O 	0.5729	0.722	0.2343	-0.496
Mof_O 	O 	0.5482	0.6912	0.1462	-0.49
Mof_O 	O 	0.7503	0.4894	0.3814	-0.487
Mof_O 	O 	0.5867	0.5983	0.1213	-0.575
Mof_O 	O 	0.8072	0.4152	0.1643	-0.482
Mof_N 	N 	0.6551	0.6882	0.3485	-0.353
Mof_H 	H 	0.6218	0.6785	0.3404	0.079
Mof_H 	H 	0.6785	0.6638	0.3657	0.07
Mof_N 	N 	0.9936	0.5062	0.1976	-0.307
Mof_H 	H 	0.0168	0.502	0.1852	0.073
Mof_H 	H 	0.9595	0.5081	0.1681	0.08
Mof_N 	N 	0.6786	0.7706	0.3165	-0.306
Mof_H 	H 	0.709	0.7797	0.3168	0.102
Mof_H 	H 	0.6526	0.7925	0.2968	0.11
Mof_N 	N 	0.6251	0.4615	0.918	-0.253
Mof_H 	H 	0.6015	0.4518	0.9285	0.041
Mof_H 	H 	0.6086	0.4595	0.8807	0.059
Mof_N 	N 	0.5343	0.5688	0.9966	-0.192
Mof_H 	H 	0.5463	0.5602	0.9736	0.025
Mof_H 	H 	0.5378	0.5435	0.0182	0.053
Mof_N 	N 	0.5039	0.6559	0.0208	-0.561
Mof_H 	H 	0.5041	0.67	0.05	0.144
Mof_H 	H 	0.4953	0.6781	0.9942	0.099
Mof_N 	N 	0.8835	0.6864	0.1956	-0.32
Mof_H 	H 	0.8988	0.6665	0.2251	0.074
Mof_H 	H 	0.8824	0.6714	0.1665	0.082
Mof_N 	N 	0.8413	0.7696	0.2052	-0.339
Mof_H 	H 	0.8253	0.7909	0.1771	0.122
Mof_H 	H 	0.8346	0.7791	0.232	0.109
Mof_N 	N 	0.7271	0.5006	0.9856	-0.436
Mof_H 	H 	0.7471	0.5114	0.9713	0.114
Mof_H 	H 	0.7443	0.5083	0.022	0.122
Mof_C 	C 	0.7353	0.7146	0.0513	0.387
Mof_C 	C 	0.726	0.7379	0.9989	-0.241
Mof_H 	H 	0.6974	0.7616	0.9877	0.091
Mof_H 	H 	0.7127	0.7136	0.97	0.093
Mof_C 	C 	0.6896	0.7701	0.3736	-0.209
Mof_H 	H 	0.7285	0.773	0.3988	0.054
Mof_H 	H 	0.6725	0.7981	0.379	0.068
Mof_C 	C 	0.4788	0.5834	0.9651	-0.855
Mof_H 	H 	0.4555	0.5553	0.9533	0.263
Mof_H 	H 	0.4726	0.6004	0.932	0.209
Mof_C 	C 	0.5394	0.7123	0.1832	0.535
Mof_C 	C 	0.9017	0.7712	0.2284	-0.042
Mof_H 	H 	0.9116	0.8003	0.2166	0.023
Mof_H 	H 	0.9209	0.7706	0.2688	0.009
Mof_C 	C 	0.9154	0.7313	0.2085	-0.083
Mof_H 	H 	0.9529	0.7233	0.2356	0.033
Mof_H 	H 	0.9147	0.741	0.1747	0.033
Mof_C 	C 	0.685	0.7235	0.4493	-0.557
Mof_H 	H 	0.7211	0.7103	0.4714	0.149
Mof_H 	H 	0.6591	0.7017	0.4493	0.146
Mof_H 	H 	0.6833	0.7537	0.4648	0.155
Mof_C 	C 	0.007	0.5496	0.232	-0.102
Mof_H 	H 	0.047	0.547	0.255	0.039
Mof_C 	C 	0.999	0.5999	0.221	0.01
Mof_H 	H 	0.964	0.6087	0.1892	-0.002
Mof_H 	H 	0.0287	0.6168	0.2211	-0.01
Mof_C 	C 	0.721	0.4522	0.979	0.456
Mof_H 	H 	0.73	0.454	0.95	-0.103
Mof_C 	C 	0.7655	0.4169	0.01	-0.919
Mof_H 	H 	0.7504	0.3852	0.0044	0.261
Mof_H 	H 	0.7845	0.4244	0.0491	0.276
Mof_H 	H 	0.7904	0.4182	0.9965	0.266
Mof_C 	C 	0.6723	0.4328	0.9434	-0.409
Mof_H 	H 	0.6659	0.4072	0.9629	0.097
Mof_H 	H 	0.6755	0.418	0.9137	0.126
Mof_C 	C 	0.6723	0.7312	0.3877	0.171
Mof_H 	H 	0.635	0.743	0.374	-0.037
Mof_C 	C 	0.4638	0.6158	0.9989	1.397
Mof_H 	H 	0.48	0.596	0.033	-0.377
Mof_C 	C 	0.4153	0.6185	0.991	-2.67
Mof_H 	H 	0.4132	0.6453	0.0117	0.769
Mof_H 	H 	0.4071	0.5894	0.0042	0.8
Mof_H 	H 	0.3895	0.6227	0.9523	0.774
Mof_C 	C 	0.481	0.7259	0.167	-0.973
Mof_H 	H 	0.4811	0.7576	0.1807	0.302
Mof_H 	H 	0.4678	0.7033	0.1833	0.305
Mof_H 	H 	0.4583	0.7254	0.1273	0.293
Mof_W 	W 	0.35507	0.12793	0.30008	1
Mof_W 	W 	0.27236	0.12804	0.35312	0.972
Mof_W 	W 	0.30657	0.07842	0.1615	1.027
Mof_W 	W 	0.23237	0.91135	0.14636	1.004
Mof_W 	W 	0.13515	0.07968	0.27146	1.005
Mof_W 	W 	0.14105	0.91194	0.20453	1.029
Mof_W 	W 	0.08957	0.03648	0.14315	0.975
Mof_W 	W 	0.35859	0.9545	0.223	1.335
Mof_W 	W 	0.17955	0.0357	0.08592	1.264
Mof_W 	W 	0.18449	0.95545	0.33254	1.343
Mof_W 	W 	0.40673	0.00417	0.3638	1.037
Mof_W 	W 	0.3877	0.87155	0.34	0.998
Mof_W 	W 	0.3021	0.87127	0.39197	1.006
Mof_W 	W 	0.32436	0.00341	0.4158	1.041
Mof_W 	W 	0.25864	0.82862	0.26157	1.286
Mof_Ni	Ni	0.07889	0.1261	0.04525	1.045
Mof_Ni	Ni	0.30682	0.20465	0.17685	1.087
Mof_Ni	Ni	0.15023	0.03122	0.94416	1.033
Mof_Ni	Ni	0.23707	0.20084	0.23519	1.106
Mof_Ni	Ni	0.11982	0.1617	0.16554	1.108
Mof_Ni	Ni	0.19669	0.16168	0.11667	1.104
Mof_Ni	Ni	0.1538	0.20489	0.27681	1.088
Mof_P 	P 	0.22111	0.08552	0.21679	0.535
Mof_P 	P 	0.27708	0.95127	0.28416	0.573
Mof_O 	O 	0.1602	0.0981	0.0771	-0.638
Mof_O 	O 	0.1528	0.0109	0.2967	-0.467
Mof_O 	O 	0.3302	0.0101	0.185	-0.47
Mof_O 	O 	0.3314	0.932	0.4205	-0.448
Mof_O 	O 	0.1203	0.18	0.096	-0.591
Mof_O 	O 	0.2369	0.1762	0.3053	-0.584
Mof_O 	O 	0.2	0.1362	0.1905	-0.599
Mof_O 	O 	0.3368	0.8212	0.2966	-0.445
Mof_O 	O 	0.3759	0.8982	0.2726	-0.471
Mof_O 	O 	0.2372	0.7706	0.2356	-0.533
Mof_O 	O 	0.2807	0.9557	0.2319	-0.349
Mof_O 	O 	0.3489	0.0912	0.24	-0.459
Mof_O 	O 	0.3147	0.989	0.3293	-0.331
Mof_O 	O 	0.1596	0.2195	0.2098	-0.564
Mof_O 	O 	0.2979	0.9006	0.3087	-0.403
Mof_O 	O 	0.2713	0.8212	0.3367	-0.446
Mof_O 	O 	0.2368	0.0576	0.1787	-0.355
Mof_O 	O 	0.2746	0.1359	0.1481	-0.606
Mof_O 	O 	0.3407	0.143	0.3588	-0.449
Mof_O 	O 	0.1754	0.0585	0.22	-0.338
Mof_O 	O 	0.1313	0.0172	0.1087	-0.489
Mof_O 	O 	0.1739	0.9133	0.1603	-0.481
Mof_O 	O 	0.1362	0.917	0.271	-0.475
Mof_O 	O 	0.1968	0.1916	0.0502	-0.465
Mof_O 	O 	0.2077	0.0905	0.3288	-0.456
Mof_O 	O 	0.2147	0.9701	0.1152	-0.454
Mof_O 	O 	0.145	0.0171	0.0164	-0.578
Mof_O 	O 	0.3147	0.1761	0.257	-0.582
Mof_O 	O 	0.2707	0.0921	0.2755	-0.338
Mof_O 	O 	0.3915	0.9889	0.2911	-0.491
Mof_O 	O 	0.2189	0.9557	0.2711	-0.35
Mof_O 	O 	0.233	0.8993	0.3615	-0.469
Mof_O 	O 	0.1932	0.8588	0.2426	-0.475
Mof_O 	O 	0.2576	0.8582	0.2022	-0.478
Mof_O 	O 	0.4084	0.9325	0.3715	-0.45
Mof_O 	O 	0.3111	0.0648	0.3902	-0.43
Mof_O 	O 	0.384	0.0654	0.3442	-0.434
Mof_O 	O 	0.1126	0.9706	0.1814	-0.443
Mof_O 	O 	0.0771	0.0524	0.2028	-0.447
Mof_O 	O 	0.2493	0.0513	0.0942	-0.491
Mof_O 	O 	0.1301	0.1375	0.2398	-0.602
Mof_O 	O 	0.4147	0.948	0.2153	-0.578
Mof_O 	O 	0.233	0.2191	0.1643	-0.569
Mof_O 	O 	0.3711	0.8541	0.3971	-0.43
Mof_O 	O 	0.3959	0.0051	0.4262	-0.46
Mof_O 	O 	0.1575	0.9498	0.3754	-0.582
Mof_O 	O 	0.281	0.2224	0.0948	-0.441
Mof_O 	O 	0.0729	0.222	0.2343	-0.495
Mof_O 	O 	0.0482	0.1912	0.1462	-0.49
Mof_O 	O 	0.2503	0.9894	0.3814	-0.487
Mof_O 	O 	0.0867	0.0983	0.1213	-0.576
Mof_O 	O 	0.3072	0.9152	0.1643	-0.482
Mof_N 	N 	0.1551	0.1882	0.3485	-0.353
Mof_H 	H 	0.1218	0.1785	0.3404	0.079
Mof_H 	H 	0.1785	0.1638	0.3657	0.07
Mof_N 	N 	0.4936	0.0062	0.1976	-0.334
Mof_H 	H 	0.5168	0.002	0.1852	0.082
Mof_H 	H 	0.4595	0.0081	0.1681	0.081
Mof_N 	N 	0.1786	0.2706	0.3165	-0.306
Mof_H 	H 	0.209	0.2797	0.3168	0.102
Mof_H 	H 	0.1526	0.2925	0.2968	0.109
Mof_N 	N 	0.1251	0.9615	0.918	-0.256
Mof_H 	H 	0.1015	0.9518	0.9285	0.041
Mof_H 	H 	0.1086	0.9595	0.8807	0.058
Mof_N 	N 	0.0343	0.0688	0.9966	-0.197
Mof_H 	H 	0.0463	0.0602	0.9736	0.025
Mof_H 	H 	0.0378	0.0435	0.0182	0.052
Mof_N 	N 	0.0039	0.1559	0.0208	-0.566
Mof_H 	H 	0.0041	0.17	0.05	0.143
Mof_H 	H 	0.9953	0.1781	0.9942	0.107
Mof_N 	N 	0.3835	0.1864	0.1956	-0.32
Mof_H 	H 	0.3988	0.1665	0.2251	0.075
Mof_H 	H 	0.3824	0.1714	0.1665	0.08
Mof_N 	N 	0.3413	0.2696	0.2052	-0.339
Mof_H 	H 	0.3253	0.2909	0.1771	0.121
Mof_H 	H 	0.3346	0.2791	0.232	0.109
Mof_N 	N 	0.2271	0.0006	0.9856	-0.43
Mof_H 	H 	0.2471	0.0114	0.9713	0.112
Mof_H 	H 	0.2443	0.0083	0.022	0.12
Mof_C 	C 	0.2353	0.2146	0.0513	0.386
Mof_C 	C 	0.226	0.2379	0.9989	-0.238
Mof_H 	H 	0.1974	0.2616	0.9877	0.09
Mof_H 	H 	0.2127	0.2136	0.97	0.092
Mof_C 	C 	0.1896	0.2701	0.3736	-0.209
Mof_H 	H 	0.2285	0.273	0.3988	0.054
Mof_H 	H 	0.1725	0.2981	0.379	0.067
Mof_C 	C 	0.9788	0.0834	0.9651	-0.833
Mof_H 	H 	0.9555	0.0553	0.9533	0.258
Mof_H 	H 	0.9726	0.1004	0.932	0.205
Mof_C 	C 	0.0394	0.2123	0.1832	0.527
Mof_C 	C 	0.4017	0.2712	0.2284	-0.043
Mof_H 	H 	0.4116	0.3003	0.2166	0.022
Mof_H 	H 	0.4209	0.2706	0.2688	0.009
Mof_C 	C 	0.4154	0.2313	0.2085	-0.082
Mof_H 	H 	0.4529	0.2233	0.2356	0.031
Mof_H 	H 	0.4147	0.241	0.1747	0.031
Mof_C 	C 	0.185	0.2235	0.4493	-0.556
Mof_H 	H 	0.2211	0.2103	0.4714	0.149
Mof_H 	H 	0.1591	0.2017	0.4493	0.145
Mof_H 	H 	0.1833	0.2537	0.4648	0.155
Mof_C 	C 	0.507	0.0496	0.232	0.012
Mof_H 	H 	0.547	0.047	0.255	0.009
Mof_C 	C 	0.499	0.0999	0.221	-0.127
Mof_H 	H 	0.464	0.1087	0.1892	0.036
Mof_H 	H 	0.5287	0.1168	0.2211	0.036
Mof_C 	C 	0.221	0.9522	0.979	0.433
Mof_H 	H 	0.23	0.954	0.95	-0.098
Mof_C 	C 	0.2655	0.9169	0.01	-0.88
Mof_H 	H 	0.2504	0.8852	0.0044	0.251
Mof_H 	H 	0.2845	0.9244	0.0491	0.265
Mof_H 	H 	0.2904	0.9182	0.9965	0.252
Mof_C 	C 	0.1723	0.9328	0.9434	-0.394
Mof_H 	H 	0.1659	0.9072	0.9629	0.093
Mof_H 	H 	0.1755	0.918	0.9137	0.121
Mof_C 	C 	0.1723	0.2312	0.3877	0.171
Mof_H 	H 	0.135	0.243	0.374	-0.037
Mof_C 	C 	0.9638	0.1158	0.9989	1.373
Mof_H 	H 	0.98	0.096	0.033	-0.37
Mof_C 	C 	0.9153	0.1185	0.991	-2.609
Mof_H 	H 	0.9132	0.1453	0.0117	0.75
Mof_H 	H 	0.9071	0.0894	0.0042	0.78
Mof_H 	H 	0.8895	0.1227	0.9523	0.757
Mof_C 	C 	0.981	0.2259	0.167	-0.959
Mof_H 	H 	0.9811	0.2576	0.1807	0.3
Mof_H 	H 	0.9678	0.2033	0.1833	0.302
Mof_H 	H 	0.9583	0.2254	0.1273	0.29
Mof_W 	W 	0.85507	0.37207	0.80008	0.999
Mof_W 	W 	0.77236	0.37196	0.85312	0.972
Mof_W 	W 	0.80657	0.42158	0.6615	1.029
Mof_W 	W 	0.73237	0.58865	0.64636	1.001
Mof_W 	W 	0.63515	0.42032	0.77146	1.006
Mof_W 	W 	0.64105	0.58806	0.70453	1.028
Mof_W 	W 	0.58957	0.46352	0.64315	0.977
Mof_W 	W 	0.85859	0.5455	0.723	1.335
Mof_W 	W 	0.67955	0.4643	0.58592	1.264
Mof_W 	W 	0.68449	0.54455	0.83254	1.343
Mof_W 	W 	0.90673	0.49583	0.8638	1.039
Mof_W 	W 	0.8877	0.62845	0.84	1
Mof_W 	W 	0.8021	0.62873	0.89197	1.007
Mof_W 	W 	0.82436	0.49659	0.9158	1.042
Mof_W 	W 	0.75864	0.67138	0.76157	1.286
Mof_Ni	Ni	0.57889	0.3739	0.54525	1.046
Mof_Ni	Ni	0.80682	0.29535	0.67685	1.087
Mof_Ni	Ni	0.65023	0.46878	0.44416	1.033
Mof_Ni	Ni	0.73707	0.29916	0.73519	1.106
Mof_Ni	Ni	0.61982	0.3383	0.66554	1.108
Mof_Ni	Ni	0.69669	0.33832	0.61667	1.105
Mof_Ni	Ni	0.6538	0.29511	0.77681	1.088
Mof_P 	P 	0.72111	0.41448	0.71679	0.536
Mof_P 	P 	0.77708	0.54873	0.78416	0.573
Mof_O 	O 	0.6602	0.4019	0.5771	-0.638
Mof_O 	O 	0.6528	0.4891	0.7967	-0.466
Mof_O 	O 	0.8302	0.4899	0.685	-0.468
Mof_O 	O 	0.8314	0.568	0.9205	-0.448
Mof_O 	O 	0.6203	0.32	0.596	-0.59
Mof_O 	O 	0.7369	0.3238	0.8053	-0.584
Mof_O 	O 	0.7	0.3638	0.6905	-0.599
Mof_O 	O 	0.8368	0.6788	0.7966	-0.445
Mof_O 	O 	0.8759	0.6018	0.7726	-0.47
Mof_O 	O 	0.7372	0.7294	0.7356	-0.533
Mof_O 	O 	0.7807	0.5443	0.7319	-0.35
Mof_O 	O 	0.8489	0.4088	0.74	-0.459
Mof_O 	O 	0.8147	0.511	0.8293	-0.332
Mof_O 	O 	0.6596	0.2805	0.7098	-0.563
Mof_O 	O 	0.7979	0.5994	0.8087	-0.403
Mof_O 	O 	0.7713	0.6788	0.8367	-0.446
Mof_O 	O 	0.7368	0.4424	0.6787	-0.355
Mof_O 	O 	0.7746	0.3641	0.6481	-0.607
Mof_O 	O 	0.8407	0.357	0.8588	-0.448
Mof_O 	O 	0.6754	0.4415	0.72	-0.338
Mof_O 	O 	0.6313	0.4828	0.6087	-0.489
Mof_O 	O 	0.6739	0.5867	0.6603	-0.482
Mof_O 	O 	0.6362	0.583	0.771	-0.475
Mof_O 	O 	0.6968	0.3084	0.5502	-0.464
Mof_O 	O 	0.7077	0.4095	0.8288	-0.456
Mof_O 	O 	0.7147	0.5299	0.6152	-0.455
Mof_O 	O 	0.645	0.4829	0.5164	-0.578
Mof_O 	O 	0.8147	0.3239	0.757	-0.582
Mof_O 	O 	0.7707	0.4079	0.7755	-0.338
Mof_O 	O 	0.8915	0.5111	0.7911	-0.491
Mof_O 	O 	0.7189	0.5443	0.7711	-0.35
Mof_O 	O 	0.733	0.6007	0.8615	-0.469
Mof_O 	O 	0.6932	0.6412	0.7426	-0.475
Mof_O 	O 	0.7576	0.6418	0.7022	-0.478
Mof_O 	O 	0.9084	0.5675	0.8715	-0.45
Mof_O 	O 	0.8111	0.4352	0.8902	-0.43
Mof_O 	O 	0.884	0.4346	0.8442	-0.434
Mof_O 	O 	0.6126	0.5294	0.6814	-0.444
Mof_O 	O 	0.5771	0.4476	0.7028	-0.446
Mof_O 	O 	0.7493	0.4487	0.5942	-0.491
Mof_O 	O 	0.6301	0.3625	0.7398	-0.602
Mof_O 	O 	0.9147	0.552	0.7153	-0.576
Mof_O 	O 	0.733	0.2809	0.6643	-0.569
Mof_O 	O 	0.8711	0.6459	0.8971	-0.429
Mof_O 	O 	0.8959	0.4949	0.9262	-0.459
Mof_O 	O 	0.6575	0.5502	0.8754	-0.581
Mof_O 	O 	0.781	0.2776	0.5948	-0.441
Mof_O 	O 	0.5729	0.278	0.7343	-0.496
Mof_O 	O 	0.5482	0.3088	0.6462	-0.49
Mof_O 	O 	0.7503	0.5106	0.8814	-0.487
Mof_O 	O 	0.5867	0.4017	0.6213	-0.575
Mof_O 	O 	0.8072	0.5848	0.6643	-0.482
Mof_N 	N 	0.6551	0.3118	0.8485	-0.353
Mof_H 	H 	0.6218	0.3215	0.8404	0.079
Mof_H 	H 	0.6785	0.3362	0.8657	0.07
Mof_N 	N 	0.9936	0.4938	0.6976	-0.303
Mof_H 	H 	0.0168	0.498	0.6852	0.071
Mof_H 	H 	0.9595	0.4919	0.6681	0.08
Mof_N 	N 	0.6786	0.2294	0.8165	-0.306
Mof_H 	H 	0.709	0.2203	0.8168	0.102
Mof_H 	H 	0.6526	0.2075	0.7968	0.11
Mof_N 	N 	0.6251	0.5385	0.418	-0.254
Mof_H 	H 	0.6015	0.5482	0.4285	0.041
Mof_H 	H 	0.6086	0.5405	0.3807	0.059
Mof_N 	N 	0.5343	0.4312	0.4966	-0.192
Mof_H 	H 	0.5463	0.4398	0.4736	0.026
Mof_H 	H 	0.5378	0.4565	0.5182	0.053
Mof_N 	N 	0.5039	0.3441	0.5208	-0.56
Mof_H 	H 	0.5041	0.33	0.55	0.144
Mof_H 	H 	0.4953	0.3219	0.4942	0.1
Mof_N 	N 	0.8835	0.3136	0.6956	-0.32
Mof_H 	H 	0.8988	0.3335	0.7251	0.074
Mof_H 	H 	0.8824	0.3286	0.6665	0.082
Mof_N 	N 	0.8413	0.2304	0.7052	-0.339
Mof_H 	H 	0.8253	0.2091	0.6771	0.122
Mof_H 	H 	0.8346	0.2209	0.732	0.109
Mof_N 	N 	0.7271	0.4994	0.4856	-0.435
Mof_H 	H 	0.7471	0.4886	0.4713	0.114
Mof_H 	H 	0.7443	0.4917	0.522	0.122
Mof_C 	C 	0.7353	0.2854	0.5513	0.386
Mof_C 	C 	0.726	0.2621	0.4989	-0.238
Mof_H 	H 	0.6974	0.2384	0.4877	0.091
Mof_H 	H 	0.7127	0.2864	0.47	0.092
Mof_C 	C 	0.6896	0.2299	0.8736	-0.21
Mof_H 	H 	0.7285	0.227	0.8988	0.055
Mof_H 	H 	0.6725	0.2019	0.879	0.068
Mof_C 	C 	0.4788	0.4166	0.4651	-0.848
Mof_H 	H 	0.4555	0.4447	0.4533	0.261
Mof_H 	H 	0.4726	0.3996	0.432	0.207
Mof_C 	C 	0.5394	0.2877	0.6832	0.535
Mof_C 	C 	0.9017	0.2288	0.7284	-0.043
Mof_H 	H 	0.9116	0.1997	0.7166	0.023
Mof_H 	H 	0.9209	0.2294	0.7688	0.01
Mof_C 	C 	0.9154	0.2687	0.7085	-0.083
Mof_H 	H 	0.9529	0.2767	0.7356	0.033
Mof_H 	H 	0.9147	0.259	0.6747	0.033
Mof_C 	C 	0.685	0.2765	0.9493	-0.558
Mof_H 	H 	0.7211	0.2897	0.9714	0.15
Mof_H 	H 	0.6591	0.2983	0.9493	0.146
Mof_H 	H 	0.6833	0.2463	0.9648	0.156
Mof_C 	C 	0.007	0.4504	0.732	-0.121
Mof_H 	H 	0.047	0.453	0.755	0.044
Mof_C 	C 	0.999	0.4001	0.721	0.033
Mof_H 	H 	0.964	0.3913	0.6892	-0.009
Mof_H 	H 	0.0287	0.3832	0.7211	-0.018
Mof_C 	C 	0.721	0.5478	0.479	0.452
Mof_H 	H 	0.73	0.546	0.45	-0.102
Mof_C 	C 	0.7655	0.5831	0.51	-0.912
Mof_H 	H 	0.7504	0.6148	0.5044	0.26
Mof_H 	H 	0.7845	0.5756	0.5491	0.274
Mof_H 	H 	0.7904	0.5818	0.4965	0.264
Mof_C 	C 	0.6723	0.5672	0.4434	-0.407
Mof_H 	H 	0.6659	0.5928	0.4629	0.097
Mof_H 	H 	0.6755	0.582	0.4137	0.126
Mof_C 	C 	0.6723	0.2688	0.8877	0.172
Mof_H 	H 	0.635	0.257	0.874	-0.037
Mof_C 	C 	0.4638	0.3842	0.4989	1.384
Mof_H 	H 	0.48	0.404	0.533	-0.374
Mof_C 	C 	0.4153	0.3815	0.491	-2.643
Mof_H 	H 	0.4132	0.3547	0.5117	0.76
Mof_H 	H 	0.4071	0.4106	0.5042	0.791
Mof_H 	H 	0.3895	0.3773	0.4523	0.766
Mof_C 	C 	0.481	0.2741	0.667	-0.973
Mof_H 	H 	0.4811	0.2424	0.6807	0.302
Mof_H 	H 	0.4678	0.2967	0.6833	0.305
Mof_H 	H 	0.4583	0.2746	0.6273	0.293
Mof_W 	W 	0.35507	0.87207	0.80008	1
Mof_W 	W 	0.27236	0.87196	0.85312	0.972
Mof_W 	W 	0.30657	0.92158	0.6615	1.027
Mof_W 	W 	0.23237	0.08865	0.64636	1.002
Mof_W 	W 	0.13515	0.92032	0.77146	1.005
Mof_W 	W 	0.14105	0.08806	0.70453	1.028
Mof_W 	W 	0.08957	0.96352	0.64315	0.975
Mof_W 	W 	0.35859	0.0455	0.723	1.335
Mof_W 	W 	0.17955	0.9643	0.58592	1.264
Mof_W 	W 	0.18449	0.04455	0.83254	1.343
Mof_W 	W 	0.40673	0.99583	0.8638	1.036
Mof_W 	W 	0.3877	0.12845	0.84	0.998
Mof_W 	W 	0.3021	0.12873	0.89197	1.006
Mof_W 	W 	0.32436	0.99659	0.9158	1.039
Mof_W 	W 	0.25864	0.17138	0.76157	1.286
Mof_Ni	Ni	0.07889	0.8739	0.54525	1.045
Mof_Ni	Ni	0.30682	0.79535	0.67685	1.087
Mof_Ni	Ni	0.15023	0.96878	0.44416	1.033
Mof_Ni	Ni	0.23707	0.79916	0.73519	1.106
Mof_Ni	Ni	0.11982	0.8383	0.66554	1.108
Mof_Ni	Ni	0.19669	0.83832	0.61667	1.104
Mof_Ni	Ni	0.1538	0.79511	0.77681	1.087
Mof_P 	P 	0.22111	0.91448	0.71679	0.535
Mof_P 	P 	0.27708	0.04873	0.78416	0.573
Mof_O 	O 	0.1602	0.9019	0.5771	-0.639
Mof_O 	O 	0.1528	0.9891	0.7967	-0.467
Mof_O 	O 	0.3302	0.9899	0.685	-0.469
Mof_O 	O 	0.3314	0.068	0.9205	-0.448
Mof_O 	O 	0.1203	0.82	0.596	-0.591
Mof_O 	O 	0.2369	0.8238	0.8053	-0.584
Mof_O 	O 	0.2	0.8638	0.6905	-0.599
Mof_O 	O 	0.3368	0.1788	0.7966	-0.445
Mof_O 	O 	0.3759	0.1018	0.7726	-0.471
Mof_O 	O 	0.2372	0.2294	0.7356	-0.533
Mof_O 	O 	0.2807	0.0443	0.7319	-0.349
Mof_O 	O 	0.3489	0.9088	0.74	-0.459
Mof_O 	O 	0.3147	0.011	0.8293	-0.331
Mof_O 	O 	0.1596	0.7805	0.7098	-0.564
Mof_O 	O 	0.2979	0.0994	0.8087	-0.403
Mof_O 	O 	0.2713	0.1788	0.8367	-0.446
Mof_O 	O 	0.2368	0.9424	0.6787	-0.355
Mof_O 	O 	0.2746	0.8641	0.6481	-0.606
Mof_O 	O 	0.3407	0.857	0.8588	-0.449
Mof_O 	O 	0.1754	0.9415	0.72	-0.338
Mof_O 	O 	0.1313	0.9828	0.6087	-0.489
Mof_O 	O 	0.1739	0.0867	0.6603	-0.482
Mof_O 	O 	0.1362	0.083	0.771	-0.475
Mof_O 	O 	0.1968	0.8084	0.5502	-0.465
Mof_O 	O 	0.2077	0.9095	0.8288	-0.456
Mof_O 	O 	0.2147	0.0299	0.6152	-0.455
Mof_O 	O 	0.145	0.9829	0.5164	-0.578
Mof_O 	O 	0.3147	0.8239	0.757	-0.582
Mof_O 	O 	0.2707	0.9079	0.7755	-0.338
Mof_O 	O 	0.3915	0.0111	0.7911	-0.49
Mof_O 	O 	0.2189	0.0443	0.7711	-0.35
Mof_O 	O 	0.233	0.1007	0.8615	-0.469
Mof_O 	O 	0.1932	0.1412	0.7426	-0.475
Mof_O 	O 	0.2576	0.1418	0.7022	-0.478
Mof_O 	O 	0.4084	0.0675	0.8715	-0.449
Mof_O 	O 	0.3111	0.9352	0.8902	-0.43
Mof_O 	O 	0.384	0.9346	0.8442	-0.434
Mof_O 	O 	0.1126	0.0294	0.6814	-0.444
Mof_O 	O 	0.0771	0.9476	0.7028	-0.448
Mof_O 	O 	0.2493	0.9487	0.5942	-0.491
Mof_O 	O 	0.1301	0.8625	0.7398	-0.602
Mof_O 	O 	0.4147	0.052	0.7153	-0.578
Mof_O 	O 	0.233	0.7809	0.6643	-0.569
Mof_O 	O 	0.3711	0.1459	0.8971	-0.43
Mof_O 	O 	0.3959	0.9949	0.9262	-0.46
Mof_O 	O 	0.1575	0.0502	0.8754	-0.581
Mof_O 	O 	0.281	0.7776	0.5948	-0.441
Mof_O 	O 	0.0729	0.778	0.7343	-0.495
Mof_O 	O 	0.0482	0.8088	0.6462	-0.49
Mof_O 	O 	0.2503	0.0106	0.8814	-0.486
Mof_O 	O 	0.0867	0.9017	0.6213	-0.576
Mof_O 	O 	0.3072	0.0848	0.6643	-0.482
Mof_N 	N 	0.1551	0.8118	0.8485	-0.353
Mof_H 	H 	0.1218	0.8215	0.8404	0.079
Mof_H 	H 	0.1785	0.8362	0.8657	0.07
Mof_N 	N 	0.4936	0.9938	0.6976	-0.334
Mof_H 	H 	0.5168	0.998	0.6852	0.082
Mof_H 	H 	0.4595	0.9919	0.6681	0.081
Mof_N 	N 	0.1786	0.7294	0.8165	-0.306
Mof_H 	H 	0.209	0.7203	0.8168	0.102
Mof_H 	H 	0.1526	0.7075	0.7968	0.109
Mof_N 	N 	0.1251	0.0385	0.418	-0.254
Mof_H 	H 	0.1015	0.0482	0.4285	0.04
Mof_H 	H 	0.1086	0.0405	0.3807	0.058
Mof_N 	N 	0.0343	0.9312	0.4966	-0.194
Mof_H 	H 	0.0463	0.9398	0.4736	0.024
Mof_H 	H 	0.0378	0.9565	0.5182	0.051
Mof_N 	N 	0.0039	0.8441	0.5208	-0.571
Mof_H 	H 	0.0041	0.83	0.55	0.143
Mof_H 	H 	0.9953	0.8219	0.4942	0.107
Mof_N 	N 	0.3835	0.8136	0.6956	-0.32
Mof_H 	H 	0.3988	0.8335	0.7251	0.075
Mof_H 	H 	0.3824	0.8286	0.6665	0.08
Mof_N 	N 	0.3413	0.7304	0.7052	-0.339
Mof_H 	H 	0.3253	0.7091	0.6771	0.121
Mof_H 	H 	0.3346	0.7209	0.732	0.109
Mof_N 	N 	0.2271	0.9994	0.4856	-0.435
Mof_H 	H 	0.2471	0.9886	0.4713	0.113
Mof_H 	H 	0.2443	0.9917	0.522	0.121
Mof_C 	C 	0.2353	0.7854	0.5513	0.386
Mof_C 	C 	0.226	0.7621	0.4989	-0.238
Mof_H 	H 	0.1974	0.7384	0.4877	0.09
Mof_H 	H 	0.2127	0.7864	0.47	0.092
Mof_C 	C 	0.1896	0.7299	0.8736	-0.209
Mof_H 	H 	0.2285	0.727	0.8988	0.054
Mof_H 	H 	0.1725	0.7019	0.879	0.067
Mof_C 	C 	0.9788	0.9166	0.4651	-0.851
Mof_H 	H 	0.9555	0.9447	0.4533	0.263
Mof_H 	H 	0.9726	0.8996	0.432	0.21
Mof_C 	C 	0.0394	0.7877	0.6832	0.525
Mof_C 	C 	0.4017	0.7288	0.7284	-0.043
Mof_H 	H 	0.4116	0.6997	0.7166	0.022
Mof_H 	H 	0.4209	0.7294	0.7688	0.009
Mof_C 	C 	0.4154	0.7687	0.7085	-0.082
Mof_H 	H 	0.4529	0.7767	0.7356	0.031
Mof_H 	H 	0.4147	0.759	0.6747	0.031
Mof_C 	C 	0.185	0.7765	0.9493	-0.556
Mof_H 	H 	0.2211	0.7897	0.9714	0.149
Mof_H 	H 	0.1591	0.7983	0.9493	0.145
Mof_H 	H 	0.1833	0.7463	0.9648	0.154
Mof_C 	C 	0.507	0.9504	0.732	0.013
Mof_H 	H 	0.547	0.953	0.755	0.009
Mof_C 	C 	0.499	0.9001	0.721	-0.127
Mof_H 	H 	0.464	0.8913	0.6892	0.036
Mof_H 	H 	0.5287	0.8832	0.7211	0.036
Mof_C 	C 	0.221	0.0478	0.479	0.451
Mof_H 	H 	0.23	0.046	0.45	-0.102
Mof_C 	C 	0.2655	0.0831	0.51	-0.91
Mof_H 	H 	0.2504	0.1148	0.5044	0.259
Mof_H 	H 	0.2845	0.0756	0.5491	0.273
Mof_H 	H 	0.2904	0.0818	0.4965	0.263
Mof_C 	C 	0.1723	0.0672	0.4434	-0.406
Mof_H 	H 	0.1659	0.0928	0.4629	0.097
Mof_H 	H 	0.1755	0.082	0.4137	0.125
Mof_C 	C 	0.1723	0.7688	0.8877	0.17
Mof_H 	H 	0.135	0.757	0.874	-0.037
Mof_C 	C 	0.9638	0.8842	0.4989	1.404
Mof_H 	H 	0.98	0.904	0.533	-0.376
Mof_C 	C 	0.9153	0.8815	0.491	-2.675
Mof_H 	H 	0.9132	0.8547	0.5117	0.771
Mof_H 	H 	0.9071	0.9106	0.5042	0.801
Mof_H 	H 	0.8895	0.8773	0.4523	0.776
Mof_C 	C 	0.981	0.7741	0.667	-0.956
Mof_H 	H 	0.9811	0.7424	0.6807	0.299
Mof_H 	H 	0.9678	0.7967	0.6833	0.302
Mof_H 	H 	0.9583	0.7746	0.6273	0.289
Mof_W 	W 	0.14493	0.37207	0.69992	1.001
Mof_W 	W 	0.22764	0.37196	0.64688	0.971
Mof_W 	W 	0.19343	0.42158	0.8385	1.024
Mof_W 	W 	0.26763	0.58865	0.85364	1
Mof_W 	W 	0.36485	0.42032	0.72854	1.006
Mof_W 	W 	0.35895	0.58806	0.79547	1.028
Mof_W 	W 	0.41043	0.46352	0.85685	0.977
Mof_W 	W 	0.14141	0.5455	0.777	1.333
Mof_W 	W 	0.32045	0.4643	0.91408	1.264
Mof_W 	W 	0.31551	0.54455	0.66746	1.343
Mof_W 	W 	0.09327	0.49583	0.6362	1.037
Mof_W 	W 	0.1123	0.62845	0.66	0.996
Mof_W 	W 	0.1979	0.62873	0.60803	1.005
Mof_W 	W 	0.17564	0.49659	0.5842	1.04
Mof_W 	W 	0.24136	0.67138	0.73843	1.286
Mof_Ni	Ni	0.42111	0.3739	0.95475	1.046
Mof_Ni	Ni	0.19318	0.29535	0.82315	1.087
Mof_Ni	Ni	0.34977	0.46878	0.05584	1.033
Mof_Ni	Ni	0.26293	0.29916	0.76481	1.106
Mof_Ni	Ni	0.38018	0.3383	0.83446	1.108
Mof_Ni	Ni	0.30331	0.33832	0.88333	1.105
Mof_Ni	Ni	0.3462	0.29511	0.72319	1.088
Mof_P 	P 	0.27889	0.41448	0.78321	0.535
Mof_P 	P 	0.22292	0.54873	0.71584	0.573
Mof_O 	O 	0.3398	0.4019	0.9229	-0.638
Mof_O 	O 	0.3472	0.4891	0.7033	-0.466
Mof_O 	O 	0.1698	0.4899	0.815	-0.47
Mof_O 	O 	0.1686	0.568	0.5795	-0.449
Mof_O 	O 	0.3797	0.32	0.904	-0.59
Mof_O 	O 	0.2631	0.3238	0.6947	-0.584
Mof_O 	O 	0.3	0.3638	0.8095	-0.599
Mof_O 	O 	0.1632	0.6788	0.7034	-0.445
Mof_O 	O 	0.1241	0.6018	0.7274	-0.471
Mof_O 	O 	0.2628	0.7294	0.7644	-0.533
Mof_O 	O 	0.2193	0.5443	0.7681	-0.349
Mof_O 	O 	0.1511	0.4088	0.76	-0.458
Mof_O 	O 	0.1853	0.511	0.6707	-0.332
Mof_O 	O 	0.3404	0.2805	0.7902	-0.563
Mof_O 	O 	0.2021	0.5994	0.6913	-0.402
Mof_O 	O 	0.2287	0.6788	0.6633	-0.446
Mof_O 	O 	0.2632	0.4424	0.8213	-0.355
Mof_O 	O 	0.2254	0.3641	0.8519	-0.606
Mof_O 	O 	0.1593	0.357	0.6412	-0.45
Mof_O 	O 	0.3246	0.4415	0.78	-0.338
Mof_O 	O 	0.3687	0.4828	0.8913	-0.489
Mof_O 	O 	0.3261	0.5867	0.8397	-0.483
Mof_O 	O 	0.3638	0.583	0.729	-0.475
Mof_O 	O 	0.3032	0.3084	0.9498	-0.464
Mof_O 	O 	0.2923	0.4095	0.6712	-0.456
Mof_O 	O 	0.2853	0.5299	0.8848	-0.455
Mof_O 	O 	0.355	0.4829	0.9836	-0.578
Mof_O 	O 	0.1853	0.3239	0.743	-0.582
Mof_O 	O 	0.2293	0.4079	0.7245	-0.338
Mof_O 	O 	0.1085	0.5111	0.7089	-0.491
Mof_O 	O 	0.2811	0.5443	0.7289	-0.35
Mof_O 	O 	0.267	0.6007	0.6385	-0.469
Mof_O 	O 	0.3068	0.6412	0.7574	-0.475
Mof_O 	O 	0.2424	0.6418	0.7978	-0.478
Mof_O 	O 	0.0916	0.5675	0.6285	-0.451
Mof_O 	O 	0.1889	0.4352	0.6098	-0.43
Mof_O 	O 	0.116	0.4346	0.6558	-0.434
Mof_O 	O 	0.3874	0.5294	0.8186	-0.444
Mof_O 	O 	0.4229	0.4476	0.7972	-0.446
Mof_O 	O 	0.2507	0.4487	0.9058	-0.491
Mof_O 	O 	0.3699	0.3625	0.7602	-0.602
Mof_O 	O 	0.0853	0.552	0.7847	-0.581
Mof_O 	O 	0.267	0.2809	0.8357	-0.569
Mof_O 	O 	0.1289	0.6459	0.6029	-0.431
Mof_O 	O 	0.1041	0.4949	0.5738	-0.461
Mof_O 	O 	0.3425	0.5502	0.6246	-0.581
Mof_O 	O 	0.219	0.2776	0.9052	-0.442
Mof_O 	O 	0.4271	0.278	0.7657	-0.496
Mof_O 	O 	0.4518	0.3088	0.8538	-0.49
Mof_O 	O 	0.2497	0.5106	0.6186	-0.487
Mof_O 	O 	0.4133	0.4017	0.8787	-0.575
Mof_O 	O 	0.1928	0.5848	0.8357	-0.482
Mof_N 	N 	0.3449	0.3118	0.6515	-0.353
Mof_H 	H 	0.3782	0.3215	0.6596	0.079
Mof_H 	H 	0.3215	0.3362	0.6343	0.07
Mof_N 	N 	0.0064	0.4938	0.8024	-0.364
Mof_H 	H 	0.9832	0.498	0.8148	0.093
Mof_H 	H 	0.0405	0.4919	0.8319	0.083
Mof_N 	N 	0.3214	0.2294	0.6835	-0.306
Mof_H 	H 	0.291	0.2203	0.6832	0.102
Mof_H 	H 	0.3474	0.2075	0.7032	0.11
Mof_N 	N 	0.3749	0.5385	0.082	-0.253
Mof_H 	H 	0.3985	0.5482	0.0715	0.04
Mof_H 	H 	0.3914	0.5405	0.1193	0.059
Mof_N 	N 	0.4657	0.4312	0.0034	-0.192
Mof_H 	H 	0.4537	0.4398	0.0264	0.026
Mof_H 	H 	0.4622	0.4565	0.9818	0.053
Mof_N 	N 	0.4961	0.3441	0.9792	-0.561
Mof_H 	H 	0.4959	0.33	0.95	0.144
Mof_H 	H 	0.5047	0.3219	0.0058	0.1
Mof_N 	N 	0.1165	0.3136	0.8044	-0.32
Mof_H 	H 	0.1012	0.3335	0.7749	0.076
Mof_H 	H 	0.1176	0.3286	0.8335	0.078
Mof_N 	N 	0.1587	0.2304	0.7948	-0.339
Mof_H 	H 	0.1747	0.2091	0.8229	0.121
Mof_H 	H 	0.1654	0.2209	0.768	0.109
Mof_N 	N 	0.2729	0.4994	0.0144	-0.436
Mof_H 	H 	0.2529	0.4886	0.0287	0.113
Mof_H 	H 	0.2557	0.4917	0.978	0.121
Mof_C 	C 	0.2647	0.2854	0.9487	0.386
Mof_C 	C 	0.274	0.2621	0.0011	-0.239
Mof_H 	H 	0.3026	0.2384	0.0123	0.091
Mof_H 	H 	0.2873	0.2864	0.03	0.092
Mof_C 	C 	0.3104	0.2299	0.6264	-0.209
Mof_H 	H 	0.2715	0.227	0.6012	0.054
Mof_H 	H 	0.3275	0.2019	0.621	0.068
Mof_C 	C 	0.5212	0.4166	0.0349	-0.851
Mof_H 	H 	0.5445	0.4447	0.0467	0.262
Mof_H 	H 	0.5274	0.3996	0.068	0.208
Mof_C 	C 	0.4606	0.2877	0.8168	0.535
Mof_C 	C 	0.0983	0.2288	0.7716	-0.043
Mof_H 	H 	0.0884	0.1997	0.7834	0.021
Mof_H 	H 	0.0791	0.2294	0.7312	0.008
Mof_C 	C 	0.0846	0.2687	0.7915	-0.08
Mof_H 	H 	0.0471	0.2767	0.7644	0.029
Mof_H 	H 	0.0853	0.259	0.8253	0.029
Mof_C 	C 	0.315	0.2765	0.5507	-0.557
Mof_H 	H 	0.2789	0.2897	0.5286	0.149
Mof_H 	H 	0.3409	0.2983	0.5507	0.145
Mof_H 	H 	0.3167	0.2463	0.5352	0.155
Mof_C 	C 	0.993	0.4504	0.768	0.147
Mof_H 	H 	0.953	0.453	0.745	-0.025
Mof_C 	C 	0.001	0.4001	0.779	-0.288
Mof_H 	H 	0.036	0.3913	0.8108	0.081
Mof_H 	H 	0.9713	0.3832	0.7789	0.09
Mof_C 	C 	0.279	0.5478	0.021	0.457
Mof_H 	H 	0.27	0.546	0.05	-0.104
Mof_C 	C 	0.2345	0.5831	0.99	-0.921
Mof_H 	H 	0.2496	0.6148	0.9956	0.261
Mof_H 	H 	0.2155	0.5756	0.9509	0.275
Mof_H 	H 	0.2096	0.5818	0.0035	0.266
Mof_C 	C 	0.3277	0.5672	0.0566	-0.41
Mof_H 	H 	0.3341	0.5928	0.0371	0.098
Mof_H 	H 	0.3245	0.582	0.0863	0.127
Mof_C 	C 	0.3277	0.2688	0.6123	0.171
Mof_H 	H 	0.365	0.257	0.626	-0.037
Mof_C 	C 	0.5362	0.3842	0.0011	1.39
Mof_H 	H 	0.52	0.404	0.967	-0.375
Mof_C 	C 	0.5847	0.3815	0.009	-2.655
Mof_H 	H 	0.5868	0.3547	0.9883	0.764
Mof_H 	H 	0.5929	0.4106	0.9958	0.795
Mof_H 	H 	0.6105	0.3773	0.0477	0.77
Mof_C 	C 	0.519	0.2741	0.833	-0.973
Mof_H 	H 	0.5189	0.2424	0.8193	0.302
Mof_H 	H 	0.5322	0.2967	0.8167	0.305
Mof_H 	H 	0.5417	0.2746	0.8727	0.293
Mof_W 	W 	0.64493	0.87207	0.69992	1
Mof_W 	W 	0.72764	0.87196	0.64688	0.972
Mof_W 	W 	0.69343	0.92158	0.8385	1.026
Mof_W 	W 	0.76763	0.08865	0.85364	1.003
Mof_W 	W 	0.86485	0.92032	0.72854	1.007
Mof_W 	W 	0.85895	0.08806	0.79547	1.03
Mof_W 	W 	0.91043	0.96352	0.85685	0.979
Mof_W 	W 	0.64141	0.0455	0.777	1.335
Mof_W 	W 	0.82045	0.9643	0.91408	1.264
Mof_W 	W 	0.81551	0.04455	0.66746	1.343
Mof_W 	W 	0.59327	0.99583	0.6362	1.037
Mof_W 	W 	0.6123	0.12845	0.66	0.998
Mof_W 	W 	0.6979	0.12873	0.60803	1.006
Mof_W 	W 	0.67564	0.99659	0.5842	1.041
Mof_W 	W 	0.74136	0.17138	0.73843	1.286
Mof_Ni	Ni	0.92111	0.8739	0.95475	1.047
Mof_Ni	Ni	0.69318	0.79535	0.82315	1.087
Mof_Ni	Ni	0.84977	0.96878	0.05584	1.034
Mof_Ni	Ni	0.76293	0.79916	0.76481	1.106
Mof_Ni	Ni	0.88018	0.8383	0.83446	1.108
Mof_Ni	Ni	0.80331	0.83832	0.88333	1.105
Mof_Ni	Ni	0.8462	0.79511	0.72319	1.088
Mof_P 	P 	0.77889	0.91448	0.78321	0.535
Mof_P 	P 	0.72292	0.04873	0.71584	0.573
Mof_O 	O 	0.8398	0.9019	0.9229	-0.638
Mof_O 	O 	0.8472	0.9891	0.7033	-0.466
Mof_O 	O 	0.6698	0.9899	0.815	-0.47
Mof_O 	O 	0.6686	0.068	0.5795	-0.448
Mof_O 	O 	0.8797	0.82	0.904	-0.589
Mof_O 	O 	0.7631	0.8238	0.6947	-0.584
Mof_O 	O 	0.8	0.8638	0.8095	-0.599
Mof_O 	O 	0.6632	0.1788	0.7034	-0.445
Mof_O 	O 	0.6241	0.1018	0.7274	-0.471
Mof_O 	O 	0.7628	0.2294	0.7644	-0.533
Mof_O 	O 	0.7193	0.0443	0.7681	-0.349
Mof_O 	O 	0.6511	0.9088	0.76	-0.459
Mof_O 	O 	0.6853	0.011	0.6707	-0.331
Mof_O 	O 	0.8404	0.7805	0.7902	-0.563
Mof_O 	O 	0.7021	0.0994	0.6913	-0.403
Mof_O 	O 	0.7287	0.1788	0.6633	-0.446
Mof_O 	O 	0.7632	0.9424	0.8213	-0.355
Mof_O 	O 	0.7254	0.8641	0.8519	-0.606
Mof_O 	O 	0.6593	0.857	0.6412	-0.449
Mof_O 	O 	0.8246	0.9415	0.78	-0.339
Mof_O 	O 	0.8687	0.9828	0.8913	-0.489
Mof_O 	O 	0.8261	0.0867	0.8397	-0.482
Mof_O 	O 	0.8638	0.083	0.729	-0.474
Mof_O 	O 	0.8032	0.8084	0.9498	-0.464
Mof_O 	O 	0.7923	0.9095	0.6712	-0.456
Mof_O 	O 	0.7853	0.0299	0.8848	-0.454
Mof_O 	O 	0.855	0.9829	0.9836	-0.578
Mof_O 	O 	0.6853	0.8239	0.743	-0.582
Mof_O 	O 	0.7293	0.9079	0.7245	-0.338
Mof_O 	O 	0.6085	0.0111	0.7089	-0.491
Mof_O 	O 	0.7811	0.0443	0.7289	-0.35
Mof_O 	O 	0.767	0.1007	0.6385	-0.469
Mof_O 	O 	0.8068	0.1412	0.7574	-0.475
Mof_O 	O 	0.7424	0.1418	0.7978	-0.478
Mof_O 	O 	0.5916	0.0675	0.6285	-0.45
Mof_O 	O 	0.6889	0.9352	0.6098	-0.43
Mof_O 	O 	0.616	0.9346	0.6558	-0.434
Mof_O 	O 	0.8874	0.0294	0.8186	-0.443
Mof_O 	O 	0.9229	0.9476	0.7972	-0.445
Mof_O 	O 	0.7507	0.9487	0.9058	-0.491
Mof_O 	O 	0.8699	0.8625	0.7602	-0.602
Mof_O 	O 	0.5853	0.052	0.7847	-0.578
Mof_O 	O 	0.767	0.7809	0.8357	-0.568
Mof_O 	O 	0.6289	0.1459	0.6029	-0.43
Mof_O 	O 	0.6041	0.9949	0.5738	-0.46
Mof_O 	O 	0.8425	0.0502	0.6246	-0.58
Mof_O 	O 	0.719	0.7776	0.9052	-0.441
Mof_O 	O 	0.9271	0.778	0.7657	-0.496
Mof_O 	O 	0.9518	0.8088	0.8538	-0.49
Mof_O 	O 	0.7497	0.0106	0.6186	-0.487
Mof_O 	O 	0.9133	0.9017	0.8787	-0.574
Mof_O 	O 	0.6928	0.0848	0.8357	-0.482
Mof_N 	N 	0.8449	0.8118	0.6515	-0.353
Mof_H 	H 	0.8782	0.8215	0.6596	0.08
Mof_H 	H 	0.8215	0.8362	0.6343	0.071
Mof_N 	N 	0.5064	0.9938	0.8024	-0.334
Mof_H 	H 	0.4832	0.998	0.8148	0.082
Mof_H 	H 	0.5405	0.9919	0.8319	0.081
Mof_N 	N 	0.8214	0.7294	0.6835	-0.306
Mof_H 	H 	0.791	0.7203	0.6832	0.102
Mof_H 	H 	0.8474	0.7075	0.7032	0.11
Mof_N 	N 	0.8749	0.0385	0.082	-0.256
Mof_H 	H 	0.8985	0.0482	0.0715	0.042
Mof_H 	H 	0.8914	0.0405	0.1193	0.06
Mof_N 	N 	0.9657	0.9312	0.0034	-0.194
Mof_H 	H 	0.9537	0.9398	0.0264	0.028
Mof_H 	H 	0.9622	0.9565	0.9818	0.055
Mof_N 	N 	0.9961	0.8441	0.9792	-0.545
Mof_H 	H 	0.9959	0.83	0.95	0.144
Mof_H 	H 	0.0047	0.8219	0.0058	0.094
Mof_N 	N 	0.6165	0.8136	0.8044	-0.32
Mof_H 	H 	0.6012	0.8335	0.7749	0.075
Mof_H 	H 	0.6176	0.8286	0.8335	0.08
Mof_N 	N 	0.6587	0.7304	0.7948	-0.339
Mof_H 	H 	0.6747	0.7091	0.8229	0.121
Mof_H 	H 	0.6654	0.7209	0.768	0.109
Mof_N 	N 	0.7729	0.9994	0.0144	-0.43
Mof_H 	H 	0.7529	0.9886	0.0287	0.113
Mof_H 	H 	0.7557	0.9917	0.978	0.12
Mof_C 	C 	0.7647	0.7854	0.9487	0.385
Mof_C 	C 	0.774	0.7621	0.0011	-0.237
Mof_H 	H 	0.8026	0.7384	0.0123	0.091
Mof_H 	H 	0.7873	0.7864	0.03	0.092
Mof_C 	C 	0.8104	0.7299	0.6264	-0.21
Mof_H 	H 	0.7715	0.727	0.6012	0.054
Mof_H 	H 	0.8275	0.7019	0.621	0.068
Mof_C 	C 	0.0212	0.9166	0.0349	-0.823
Mof_H 	H 	0.0445	0.9447	0.0467	0.253
Mof_H 	H 	0.0274	0.8996	0.068	0.2
Mof_C 	C 	0.9606	0.7877	0.8168	0.545
Mof_C 	C 	0.5983	0.7288	0.7716	-0.043
Mof_H 	H 	0.5884	0.6997	0.7834	0.022
Mof_H 	H 	0.5791	0.7294	0.7312	0.009
Mof_C 	C 	0.5846	0.7687	0.7915	-0.082
Mof_H 	H 	0.5471	0.7767	0.7644	0.031
Mof_H 	H 	0.5853	0.759	0.8253	0.031
Mof_C 	C 	0.815	0.7765	0.5507	-0.557
Mof_H 	H 	0.7789	0.7897	0.5286	0.149
Mof_H 	H 	0.8409	0.7983	0.5507	0.146
Mof_H 	H 	0.8167	0.7463	0.5352	0.156
Mof_C 	C 	0.493	0.9504	0.768	0.012
Mof_H 	H 	0.453	0.953	0.745	0.009
Mof_C 	C 	0.501	0.9001	0.779	-0.127
Mof_H 	H 	0.536	0.8913	0.8108	0.036
Mof_H 	H 	0.4713	0.8832	0.7789	0.036
Mof_C 	C 	0.779	0.0478	0.021	0.436
Mof_H 	H 	0.77	0.046	0.05	-0.098
Mof_C 	C 	0.7345	0.0831	0.99	-0.886
Mof_H 	H 	0.7496	0.1148	0.9956	0.253
Mof_H 	H 	0.7155	0.0756	0.9509	0.266
Mof_H 	H 	0.7096	0.0818	0.0035	0.254
Mof_C 	C 	0.8277	0.0672	0.0566	-0.395
Mof_H 	H 	0.8341	0.0928	0.0371	0.094
Mof_H 	H 	0.8245	0.082	0.0863	0.122
Mof_C 	C 	0.8277	0.7688	0.6123	0.171
Mof_H 	H 	0.865	0.757	0.626	-0.036
Mof_C 	C 	0.0362	0.8842	0.0011	1.328
Mof_H 	H 	0.02	0.904	0.967	-0.363
Mof_C 	C 	0.0847	0.8815	0.009	-2.532
Mof_H 	H 	0.0868	0.8547	0.9883	0.726
Mof_H 	H 	0.0929	0.9106	0.9958	0.756
Mof_H 	H 	0.1105	0.8773	0.0477	0.735
Mof_C 	C 	0.019	0.7741	0.833	-0.992
Mof_H 	H 	0.0189	0.7424	0.8193	0.305
Mof_H 	H 	0.0322	0.7967	0.8167	0.308
Mof_H 	H 	0.0417	0.7746	0.8727	0.297
Mof_Ni	Ni	1.38169e-33	0.4498	0.25	1.029
Mof_Ni	Ni	0.5	0.9498	0.25	1.032
Mof_Ni	Ni	4.76629e-17	0.5502	0.75	1.028
Mof_Ni	Ni	0.5	0.0502	0.75	1.032
_end
