data_functionalizedCrystal
_audit_creation_method	'EQeq! by Chris Wilmer'
_symmetry_space_group_name_H-M	'P1'
_symmetry_Int_Tables_number	1
_symmetry_cell_setting	triclinic
loop_
_symmetry_equiv_pos_as_xyz
  x,y,z
_cell_length_a	18.0802
_cell_length_b	18.0802
_cell_length_c	18.0802
_cell_angle_alpha	134.594
_cell_angle_beta	98.557
_cell_angle_gamma	98.5763
loop_
_atom_site_label
_atom_site_type_symbol
_atom_site_fract_x
_atom_site_fract_y
_atom_site_fract_z
_atom_site_charge
Mof_Zn	Zn	0.73328	0.88601	0.60425	1.189
Mof_O 	O 	0.795	0.0279	0.6631	-0.543
Mof_O 	O 	0.8246	0.8444	0.6122	-0.516
Mof_N 	N 	0.1983	0.3906	0.7107	-0.314
Mof_N 	N 	0.153	0.7953	0.9557	-0.3
Mof_C 	C 	0.9193	0.1281	0.6524	0.155
Mof_H 	H 	0.8782	0.0625	0.5831	-0.025
Mof_C 	C 	0.9859	0.189	0.6567	-0.291
Mof_H 	H 	0.9925	0.1565	0.5894	0.114
Mof_C 	C 	0.1481	0.3067	0.6824	0.262
Mof_C 	C 	0.146	0.1923	0.5993	-0.636
Mof_H 	H 	0.1857	0.1872	0.5659	0.153
Mof_H 	H 	0.0925	0.1425	0.5412	0.201
Mof_H 	H 	0.1584	0.1706	0.635	0.199
Mof_C 	C 	0.945	0.8472	0.7296	0.093
Mof_H 	H 	0.9461	0.9147	0.755	-0.002
Mof_C 	C 	0.005	0.8492	0.7898	-0.196
Mof_H 	H 	0.0467	0.9176	0.8553	0.082
Mof_C 	C 	0.0959	0.8208	0.9305	0.26
Mof_C 	C 	0.0738	0.9155	0.0203	-0.623
Mof_H 	H 	0.1071	0.9502	0.0925	0.163
Mof_H 	H 	0.0172	0.8881	0.0069	0.2
Mof_H 	H 	0.0829	0.9706	0.0207	0.191
Mof_Zn	Zn	0.78176	0.12903	0.89575	1.19
Mof_O 	O 	0.8648	0.1319	0.8369	-0.542
Mof_O 	O 	0.7322	0.2124	0.8878	-0.515
Mof_N 	N 	0.1799	0.4876	0.7893	-0.313
Mof_N 	N 	0.3396	0.1973	0.5443	-0.3
Mof_C 	C 	0.9757	0.2669	0.8476	0.155
Mof_H 	H 	0.9794	0.2951	0.9169	-0.025
Mof_C 	C 	0.0323	0.3292	0.8433	-0.291
Mof_H 	H 	0.0671	0.4031	0.9106	0.114
Mof_C 	C 	0.1243	0.4657	0.8176	0.263
Mof_C 	C 	0.093	0.5467	0.9007	-0.637
Mof_H 	H 	0.1213	0.6198	0.9341	0.154
Mof_H 	H 	0.1013	0.5513	0.9588	0.201
Mof_H 	H 	0.0356	0.5234	0.865	0.2
Mof_C 	C 	0.6176	0.2154	0.7704	0.093
Mof_H 	H 	0.6597	0.1911	0.745	-0.002
Mof_C 	C 	0.5594	0.2152	0.7102	-0.196
Mof_H 	H 	0.5623	0.1914	0.6447	0.081
Mof_C 	C 	0.3903	0.1654	0.5695	0.257
Mof_C 	C 	0.3952	0.0535	0.4797	-0.619
Mof_H 	H 	0.3577	0.0146	0.4075	0.163
Mof_H 	H 	0.3812	0.0103	0.4931	0.2
Mof_H 	H 	0.4499	0.0622	0.4793	0.191
Mof_Zn	Zn	0.71824	0.61399	0.34727	1.19
Mof_O 	O 	0.6352	0.4721	0.2671	-0.542
Mof_O 	O 	0.7678	0.6556	0.4802	-0.515
Mof_N 	N 	0.3201	0.1094	0.3077	-0.312
Mof_N 	N 	0.1604	0.7047	0.8577	-0.3
Mof_C 	C 	0.5243	0.3719	0.2912	0.156
Mof_H 	H 	0.5206	0.4375	0.3157	-0.025
Mof_C 	C 	0.4677	0.311	0.2969	-0.291
Mof_H 	H 	0.4329	0.3435	0.336	0.114
Mof_C 	C 	0.3757	0.1933	0.3414	0.263
Mof_C 	C 	0.407	0.3077	0.4537	-0.637
Mof_H 	H 	0.3787	0.3128	0.4985	0.154
Mof_H 	H 	0.3987	0.3575	0.45	0.201
Mof_H 	H 	0.4644	0.3294	0.4878	0.2
Mof_C 	C 	0.8824	0.6528	0.5978	0.094
Mof_H 	H 	0.8403	0.5853	0.5314	-0.002
Mof_C 	C 	0.9406	0.6508	0.6558	-0.197
Mof_H 	H 	0.9377	0.5824	0.6291	0.081
Mof_C 	C 	0.1097	0.6792	0.7751	0.257
Mof_C 	C 	0.1048	0.5845	0.6583	-0.619
Mof_H 	H 	0.1423	0.5498	0.6569	0.163
Mof_H 	H 	0.1188	0.6119	0.6291	0.2
Mof_H 	H 	0.0501	0.5294	0.6123	0.191
Mof_Zn	Zn	0.76672	0.37097	0.15273	1.19
Mof_O 	O 	0.705	0.3681	0.2329	-0.542
Mof_O 	O 	0.6754	0.2876	0.0198	-0.513
Mof_N 	N 	0.3017	0.0124	0.1923	-0.312
Mof_N 	N 	0.347	0.3027	0.6423	-0.3
Mof_C 	C 	0.5807	0.2331	0.2088	0.156
Mof_H 	H 	0.6218	0.2049	0.1843	-0.024
Mof_C 	C 	0.5141	0.1708	0.2031	-0.291
Mof_H 	H 	0.5075	0.0969	0.164	0.115
Mof_C 	C 	0.3519	0.0343	0.1586	0.265
Mof_C 	C 	0.354	0.9533	0.0463	-0.639
Mof_H 	H 	0.3143	0.8802	0.0015	0.154
Mof_H 	H 	0.4075	0.9487	0.05	0.201
Mof_H 	H 	0.3416	0.9766	0.0122	0.199
Mof_C 	C 	0.555	0.2846	0.9022	0.093
Mof_H 	H 	0.5539	0.3089	0.9686	-0.003
Mof_C 	C 	0.495	0.2848	0.8442	-0.196
Mof_H 	H 	0.4533	0.3086	0.8709	0.081
Mof_C 	C 	0.4041	0.3346	0.7249	0.257
Mof_C 	C 	0.4262	0.4465	0.8417	-0.619
Mof_H 	H 	0.3929	0.4854	0.8431	0.163
Mof_H 	H 	0.4828	0.4897	0.8709	0.2
Mof_H 	H 	0.4171	0.4378	0.8877	0.191
Mof_Zn	Zn	0.26672	0.11399	0.39575	1.19
Mof_O 	O 	0.205	0.9721	0.3369	-0.542
Mof_O 	O 	0.1754	0.1556	0.3878	-0.515
Mof_N 	N 	0.8017	0.6094	0.2893	-0.313
Mof_N 	N 	0.847	0.2047	0.0443	-0.3
Mof_C 	C 	0.0807	0.8719	0.3476	0.155
Mof_H 	H 	0.1218	0.9375	0.4169	-0.025
Mof_C 	C 	0.0141	0.811	0.3433	-0.291
Mof_H 	H 	0.0075	0.8435	0.4106	0.114
Mof_C 	C 	0.8519	0.6933	0.3176	0.262
Mof_C 	C 	0.854	0.8077	0.4007	-0.636
Mof_H 	H 	0.8143	0.8128	0.4341	0.153
Mof_H 	H 	0.9075	0.8575	0.4588	0.201
Mof_H 	H 	0.8416	0.8294	0.365	0.199
Mof_C 	C 	0.055	0.1528	0.2704	0.093
Mof_H 	H 	0.0539	0.0853	0.245	-0.002
Mof_C 	C 	0.995	0.1508	0.2102	-0.196
Mof_H 	H 	0.9533	0.0824	0.1447	0.082
Mof_C 	C 	0.9041	0.1792	0.0695	0.26
Mof_C 	C 	0.9262	0.0845	0.9797	-0.623
Mof_H 	H 	0.8929	0.0498	0.9075	0.163
Mof_H 	H 	0.9828	0.1119	0.9931	0.2
Mof_H 	H 	0.9171	0.0294	0.9793	0.191
Mof_Zn	Zn	0.21824	0.87097	0.10425	1.19
Mof_O 	O 	0.1352	0.8681	0.1631	-0.542
Mof_O 	O 	0.2678	0.7876	0.1122	-0.515
Mof_N 	N 	0.8201	0.5124	0.2107	-0.313
Mof_N 	N 	0.6604	0.8027	0.4557	-0.3
Mof_C 	C 	0.0243	0.7331	0.1524	0.155
Mof_H 	H 	0.0206	0.7049	0.0831	-0.025
Mof_C 	C 	0.9677	0.6708	0.1567	-0.291
Mof_H 	H 	0.9329	0.5969	0.0894	0.114
Mof_C 	C 	0.8757	0.5343	0.1824	0.263
Mof_C 	C 	0.907	0.4533	0.0993	-0.637
Mof_H 	H 	0.8787	0.3802	0.0659	0.154
Mof_H 	H 	0.8987	0.4487	0.0412	0.201
Mof_H 	H 	0.9644	0.4766	0.135	0.2
Mof_C 	C 	0.3824	0.7846	0.2296	0.093
Mof_H 	H 	0.3403	0.8089	0.255	-0.002
Mof_C 	C 	0.4406	0.7848	0.2898	-0.196
Mof_H 	H 	0.4377	0.8086	0.3553	0.081
Mof_C 	C 	0.6097	0.8346	0.4305	0.257
Mof_C 	C 	0.6048	0.9465	0.5203	-0.619
Mof_H 	H 	0.6423	0.9854	0.5925	0.163
Mof_H 	H 	0.6188	0.9897	0.5069	0.2
Mof_H 	H 	0.5501	0.9378	0.5207	0.191
Mof_Zn	Zn	0.28176	0.38601	0.65273	1.19
Mof_O 	O 	0.3648	0.5279	0.7329	-0.542
Mof_O 	O 	0.2322	0.3444	0.5198	-0.515
Mof_N 	N 	0.6799	0.8906	0.6923	-0.312
Mof_N 	N 	0.8396	0.2953	0.1423	-0.3
Mof_C 	C 	0.4757	0.6281	0.7088	0.156
Mof_H 	H 	0.4794	0.5625	0.6843	-0.025
Mof_C 	C 	0.5323	0.689	0.7031	-0.291
Mof_H 	H 	0.5671	0.6565	0.664	0.114
Mof_C 	C 	0.6243	0.8067	0.6586	0.263
Mof_C 	C 	0.593	0.6923	0.5463	-0.637
Mof_H 	H 	0.6213	0.6872	0.5015	0.154
Mof_H 	H 	0.6013	0.6425	0.55	0.201
Mof_H 	H 	0.5356	0.6706	0.5122	0.2
Mof_C 	C 	0.1176	0.3472	0.4022	0.094
Mof_H 	H 	0.1597	0.4147	0.4686	-0.002
Mof_C 	C 	0.0594	0.3492	0.3442	-0.197
Mof_H 	H 	0.0623	0.4176	0.3709	0.081
Mof_C 	C 	0.8903	0.3208	0.2249	0.257
Mof_C 	C 	0.8952	0.4155	0.3417	-0.619
Mof_H 	H 	0.8577	0.4502	0.3431	0.163
Mof_H 	H 	0.8812	0.3881	0.3709	0.2
Mof_H 	H 	0.9499	0.4706	0.3877	0.191
Mof_Zn	Zn	0.23328	0.62903	0.84727	1.19
Mof_O 	O 	0.295	0.6319	0.7671	-0.542
Mof_O 	O 	0.3246	0.7124	0.9802	-0.513
Mof_N 	N 	0.6983	0.9876	0.8077	-0.312
Mof_N 	N 	0.653	0.6973	0.3577	-0.3
Mof_C 	C 	0.4193	0.7669	0.7912	0.156
Mof_H 	H 	0.3782	0.7951	0.8157	-0.024
Mof_C 	C 	0.4859	0.8292	0.7969	-0.291
Mof_H 	H 	0.4925	0.9031	0.836	0.115
Mof_C 	C 	0.6481	0.9657	0.8414	0.265
Mof_C 	C 	0.646	0.0467	0.9537	-0.639
Mof_H 	H 	0.6857	0.1198	0.9985	0.154
Mof_H 	H 	0.5925	0.0513	0.95	0.201
Mof_H 	H 	0.6584	0.0234	0.9878	0.199
Mof_C 	C 	0.445	0.7154	0.0978	0.093
Mof_H 	H 	0.4461	0.6911	0.0314	-0.003
Mof_C 	C 	0.505	0.7152	0.1558	-0.196
Mof_H 	H 	0.5467	0.6914	0.1291	0.081
Mof_C 	C 	0.5959	0.6654	0.2751	0.257
Mof_C 	C 	0.5738	0.5535	0.1583	-0.619
Mof_H 	H 	0.6071	0.5146	0.1569	0.163
Mof_H 	H 	0.5172	0.5103	0.1291	0.2
Mof_H 	H 	0.5829	0.5622	0.1123	0.191
Mof_C 	C 	0.8539	0.1039	0.75	0.485
Mof_C 	C 	0.9167	0.1667	0.75	-0.24
Mof_C 	C 	0.036	0.286	0.75	0.282
Mof_C 	C 	0.0984	0.3484	0.75	-0.268
Mof_C 	C 	0.6461	0.3961	0.25	0.485
Mof_C 	C 	0.5833	0.3333	0.25	-0.24
Mof_C 	C 	0.464	0.214	0.25	0.284
Mof_C 	C 	0.4016	0.1516	0.25	-0.269
Mof_C 	C 	0.1461	0.8961	0.25	0.485
Mof_C 	C 	0.0833	0.8333	0.25	-0.24
Mof_C 	C 	0.964	0.714	0.25	0.282
Mof_C 	C 	0.9016	0.6516	0.25	-0.268
Mof_C 	C 	0.3539	0.6039	0.75	0.485
Mof_C 	C 	0.4167	0.6667	0.75	-0.24
Mof_C 	C 	0.536	0.786	0.75	0.284
Mof_C 	C 	0.5984	0.8484	0.75	-0.269
Mof_C 	C 	0.822	0.75	0.572	0.361
Mof_C 	C 	0.8851	0.75	0.6351	-0.18
Mof_C 	C 	0.0041	0.75	0.7541	0.168
Mof_C 	C 	0.0667	0.75	0.8167	-0.253
Mof_C 	C 	0.678	0.25	0.928	0.359
Mof_C 	C 	0.6149	0.25	0.8649	-0.179
Mof_C 	C 	0.4959	0.25	0.7459	0.167
Mof_C 	C 	0.4333	0.25	0.6833	-0.252
Mof_C 	C 	0.178	0.25	0.428	0.361
Mof_C 	C 	0.1149	0.25	0.3649	-0.18
Mof_C 	C 	0.9959	0.25	0.2459	0.168
Mof_C 	C 	0.9333	0.25	0.1833	-0.253
Mof_C 	C 	0.322	0.75	0.072	0.359
Mof_C 	C 	0.3851	0.75	0.1351	-0.179
Mof_C 	C 	0.5041	0.75	0.2541	0.167
Mof_C 	C 	0.5667	0.75	0.3167	-0.252
_end
