data_functionalizedCrystal
_audit_creation_method	'EQeq! by Chris Wilmer'
_symmetry_space_group_name_H-M	'P1'
_symmetry_Int_Tables_number	1
_symmetry_cell_setting	triclinic
loop_
_symmetry_equiv_pos_as_xyz
  x,y,z
_cell_length_a	7.203
_cell_length_b	13.43
_cell_length_c	17.54
_cell_angle_alpha	90
_cell_angle_beta	100.76
_cell_angle_gamma	90
loop_
_atom_site_label
_atom_site_type_symbol
_atom_site_fract_x
_atom_site_fract_y
_atom_site_fract_z
_atom_site_charge
Mof_In	In	0.46828	0.39817	0.94818	2.796
Mof_O 	O 	0.5771	0.3385	0.0631	-0.734
Mof_O 	O 	0.6807	0.4814	0.1243	-0.643
Mof_O 	O 	0.9869	0.3786	0.0737	-0.564
Mof_O 	O 	0.2566	0.3897	0.1622	-0.253
Mof_O 	O 	0.2328	0.1987	0.4156	-0.589
Mof_O 	O 	0.9775	0.0982	0.4014	-0.568
Mof_O 	O 	0.666	0.2239	0.4241	-0.477
Mof_O 	O 	0.5341	0.128	0.3279	-0.511
Mof_O 	O 	0.6906	0.5128	0.971	-0.889
Mof_C 	C 	0.7813	0.3308	0.1848	-0.207
Mof_C 	C 	0.9773	0.3252	0.1998	0.183
Mof_C 	C 	0.0707	0.2781	0.2674	-0.288
Mof_H 	H 	0.2048	0.2756	0.2787	0.131
Mof_C 	C 	0.9672	0.2352	0.318	0.141
Mof_C 	C 	0.7693	0.2404	0.3025	-0.14
Mof_C 	C 	0.6777	0.2885	0.2364	0.125
Mof_H 	H 	0.5437	0.2928	0.226	0.007
Mof_C 	C 	0.6732	0.3888	0.1176	0.579
Mof_C 	C 	0.086	0.3685	0.142	0.212
Mof_C 	C 	0.0648	0.1729	0.3842	0.316
Mof_C 	C 	0.6519	0.1958	0.3546	0.349
Mof_In	In	0.53172	0.89817	0.55182	2.854
Mof_O 	O 	0.4229	0.8385	0.4369	-0.639
Mof_O 	O 	0.3193	0.9814	0.3757	-0.534
Mof_O 	O 	0.0131	0.8786	0.4263	-0.645
Mof_O 	O 	0.7434	0.8897	0.3378	-0.296
Mof_O 	O 	0.7672	0.6987	0.0844	-0.684
Mof_O 	O 	0.0225	0.5982	0.0986	-0.74
Mof_O 	O 	0.334	0.7239	0.0759	-0.486
Mof_O 	O 	0.4659	0.628	0.1721	-0.439
Mof_O 	O 	0.3094	0.0128	0.529	-1.041
Mof_C 	C 	0.2187	0.8308	0.3152	0.046
Mof_C 	C 	0.0227	0.8252	0.3002	-0.271
Mof_C 	C 	0.9293	0.7781	0.2326	0.323
Mof_H 	H 	0.7952	0.7756	0.2213	-0.047
Mof_C 	C 	0.0328	0.7352	0.182	-0.344
Mof_C 	C 	0.2307	0.7404	0.1975	0.111
Mof_C 	C 	0.3223	0.7885	0.2636	-0.104
Mof_H 	H 	0.4563	0.7928	0.274	0.103
Mof_C 	C 	0.3268	0.8888	0.3824	0.478
Mof_C 	C 	0.914	0.8685	0.358	0.547
Mof_C 	C 	0.9352	0.6729	0.1158	0.699
Mof_C 	C 	0.3481	0.6958	0.1454	0.263
Mof_In	In	0.53172	0.60183	0.05182	2.329
Mof_O 	O 	0.4229	0.6615	0.9369	-0.524
Mof_O 	O 	0.3193	0.5186	0.8757	-0.652
Mof_O 	O 	0.0131	0.6214	0.9263	-0.626
Mof_O 	O 	0.7434	0.6103	0.8378	-0.311
Mof_O 	O 	0.7672	0.8013	0.5844	-0.724
Mof_O 	O 	0.0225	0.9018	0.5986	-0.66
Mof_O 	O 	0.334	0.7761	0.5759	-0.506
Mof_O 	O 	0.4659	0.872	0.6721	-0.439
Mof_O 	O 	0.3094	0.4872	0.029	-1.025
Mof_C 	C 	0.2187	0.6692	0.8152	0.049
Mof_C 	C 	0.0227	0.6748	0.8002	-0.271
Mof_C 	C 	0.9293	0.7219	0.7326	0.327
Mof_H 	H 	0.7952	0.7244	0.7213	-0.047
Mof_C 	C 	0.0328	0.7648	0.682	-0.335
Mof_C 	C 	0.2307	0.7596	0.6975	0.126
Mof_C 	C 	0.3223	0.7115	0.7636	-0.105
Mof_H 	H 	0.4563	0.7072	0.774	0.108
Mof_C 	C 	0.3268	0.6112	0.8824	0.483
Mof_C 	C 	0.914	0.6315	0.858	0.549
Mof_C 	C 	0.9352	0.8271	0.6158	0.703
Mof_C 	C 	0.3481	0.8042	0.6454	0.254
Mof_In	In	0.46828	0.10183	0.44818	2.262
Mof_O 	O 	0.5771	0.1615	0.5631	-0.619
Mof_O 	O 	0.6807	0.0186	0.6243	-0.755
Mof_O 	O 	0.9869	0.1214	0.5737	-0.519
Mof_O 	O 	0.2566	0.1103	0.6622	-0.265
Mof_O 	O 	0.2328	0.3013	0.9156	-0.64
Mof_O 	O 	0.9775	0.4018	0.9014	-0.534
Mof_O 	O 	0.666	0.2761	0.9241	-0.498
Mof_O 	O 	0.5341	0.372	0.8279	-0.511
Mof_O 	O 	0.6906	0.9872	0.471	-0.86
Mof_C 	C 	0.7813	0.1692	0.6848	-0.2
Mof_C 	C 	0.9773	0.1748	0.6998	0.182
Mof_C 	C 	0.0707	0.2219	0.7674	-0.266
Mof_H 	H 	0.2048	0.2244	0.7787	0.126
Mof_C 	C 	0.9672	0.2648	0.818	0.122
Mof_C 	C 	0.7693	0.2596	0.8025	-0.113
Mof_C 	C 	0.6777	0.2115	0.7364	0.116
Mof_H 	H 	0.5437	0.2072	0.726	0.015
Mof_C 	C 	0.6732	0.1112	0.6176	0.582
Mof_C 	C 	0.086	0.1315	0.642	0.2
Mof_C 	C 	0.0648	0.3271	0.8842	0.363
Mof_C 	C 	0.6519	0.3042	0.8546	0.335
Mof_In	In	-7.57191e-33	0.5	-0	2.355
Mof_In	In	5.41735e-33	-7.57191e-33	0.5	2.289
_end
