data_functionalizedCrystal
_audit_creation_method	'EQeq! by Chris Wilmer'
_symmetry_space_group_name_H-M	'P1'
_symmetry_Int_Tables_number	1
_symmetry_cell_setting	triclinic
loop_
_symmetry_equiv_pos_as_xyz
  x,y,z
_cell_length_a	9.724
_cell_length_b	10.764
_cell_length_c	26.969
_cell_angle_alpha	90
_cell_angle_beta	90
_cell_angle_gamma	90
loop_
_atom_site_label
_atom_site_type_symbol
_atom_site_fract_x
_atom_site_fract_y
_atom_site_fract_z
_atom_site_charge
Mof_Cu	Cu	0.8132	0.11	0.83391	0.906
Mof_Cu	Cu	0.68646	0.88519	0.66774	0.902
Mof_Cu	Cu	0.8132	0.89	0.16609	0.906
Mof_Cu	Cu	0.68646	0.11481	0.33226	0.902
Mof_Cu	Cu	0.1868	0.39	0.33391	0.906
Mof_Cu	Cu	0.31354	0.61481	0.16774	0.902
Mof_Cu	Cu	0.1868	0.61	0.66609	0.906
Mof_Cu	Cu	0.31354	0.38519	0.83226	0.902
Mof_H 	H 	0.0344	0.1809	0.7369	0.006
Mof_H 	H 	0.4183	0.9241	0.7562	0.008
Mof_H 	H 	0.9129	0.7883	0.6015	0.143
Mof_H 	H 	0.9432	0.9594	0.9013	0.21
Mof_H 	H 	0.9613	0.9544	0.959	0.222
Mof_H 	H 	0.8674	0.8568	0.9322	0.223
Mof_H 	H 	0.5429	0.0314	0.5999	0.191
Mof_H 	H 	0.6022	0.1327	0.5641	0.199
Mof_H 	H 	0.5202	0.0195	0.5426	0.199
Mof_H 	H 	0.0796	0.7791	0.5369	0.25
Mof_H 	H 	0.0101	0.7944	0.4848	0.238
Mof_H 	H 	0.092	0.9053	0.5082	0.236
Mof_H 	H 	0.5861	0.2227	0.9006	0.149
Mof_H 	H 	0.5174	0.7749	0.8088	0.182
Mof_H 	H 	0.3906	0.7159	0.7817	0.172
Mof_H 	H 	0.5402	0.6852	0.7638	0.18
Mof_H 	H 	0.4512	0.1327	0.0169	0.254
Mof_H 	H 	0.4737	0.2596	0.9896	0.254
Mof_H 	H 	0.3853	0.1552	0.9646	0.26
Mof_H 	H 	0.096	0.9779	0.7162	0.212
Mof_H 	H 	0.2206	0.0409	0.7431	0.196
Mof_H 	H 	0.1264	0.9474	0.7719	0.191
Mof_H 	H 	0.0344	0.8191	0.2631	0.006
Mof_H 	H 	0.4183	0.0759	0.2438	0.008
Mof_H 	H 	0.9129	0.2117	0.3985	0.143
Mof_H 	H 	0.9432	0.0406	0.0987	0.21
Mof_H 	H 	0.9613	0.0456	0.041	0.222
Mof_H 	H 	0.8674	0.1432	0.0678	0.223
Mof_H 	H 	0.5429	0.9686	0.4001	0.191
Mof_H 	H 	0.6022	0.8673	0.4359	0.199
Mof_H 	H 	0.5202	0.9805	0.4574	0.199
Mof_H 	H 	0.0796	0.2209	0.4631	0.25
Mof_H 	H 	0.0101	0.2056	0.5152	0.238
Mof_H 	H 	0.092	0.0947	0.4918	0.236
Mof_H 	H 	0.5861	0.7773	0.0994	0.149
Mof_H 	H 	0.5174	0.2251	0.1912	0.182
Mof_H 	H 	0.3906	0.2841	0.2183	0.172
Mof_H 	H 	0.5402	0.3148	0.2362	0.18
Mof_H 	H 	0.4512	0.8673	0.9831	0.254
Mof_H 	H 	0.4737	0.7404	0.0104	0.254
Mof_H 	H 	0.3853	0.8448	0.0354	0.26
Mof_H 	H 	0.096	0.0221	0.2838	0.212
Mof_H 	H 	0.2206	0.9591	0.2569	0.196
Mof_H 	H 	0.1264	0.0526	0.2281	0.191
Mof_H 	H 	0.9656	0.3191	0.2369	0.005
Mof_H 	H 	0.5817	0.5759	0.2562	0.008
Mof_H 	H 	0.0871	0.7117	0.1015	0.143
Mof_H 	H 	0.0568	0.5406	0.4013	0.209
Mof_H 	H 	0.0387	0.5456	0.459	0.221
Mof_H 	H 	0.1326	0.6432	0.4322	0.222
Mof_H 	H 	0.4571	0.4686	0.0999	0.191
Mof_H 	H 	0.3978	0.3673	0.0641	0.2
Mof_H 	H 	0.4798	0.4805	0.0426	0.199
Mof_H 	H 	0.9204	0.7209	0.0369	0.25
Mof_H 	H 	0.9899	0.7056	0.9848	0.237
Mof_H 	H 	0.908	0.5947	0.0082	0.235
Mof_H 	H 	0.4139	0.2773	0.4006	0.149
Mof_H 	H 	0.4826	0.7251	0.3088	0.183
Mof_H 	H 	0.6094	0.7841	0.2817	0.173
Mof_H 	H 	0.4598	0.8148	0.2638	0.181
Mof_H 	H 	0.5488	0.3673	0.5169	0.256
Mof_H 	H 	0.5263	0.2404	0.4896	0.255
Mof_H 	H 	0.6147	0.3448	0.4646	0.261
Mof_H 	H 	0.904	0.5221	0.2162	0.218
Mof_H 	H 	0.7794	0.4591	0.2431	0.2
Mof_H 	H 	0.8736	0.5526	0.2719	0.197
Mof_H 	H 	0.9656	0.6809	0.7631	0.005
Mof_H 	H 	0.5817	0.4241	0.7438	0.008
Mof_H 	H 	0.0871	0.2883	0.8985	0.143
Mof_H 	H 	0.0568	0.4594	0.5987	0.209
Mof_H 	H 	0.0387	0.4544	0.541	0.221
Mof_H 	H 	0.1326	0.3568	0.5678	0.222
Mof_H 	H 	0.4571	0.5314	0.9001	0.191
Mof_H 	H 	0.3978	0.6327	0.9359	0.2
Mof_H 	H 	0.4798	0.5195	0.9574	0.199
Mof_H 	H 	0.9204	0.2791	0.9631	0.25
Mof_H 	H 	0.9899	0.2944	0.0152	0.237
Mof_H 	H 	0.908	0.4053	0.9918	0.235
Mof_H 	H 	0.4139	0.7227	0.5994	0.149
Mof_H 	H 	0.4826	0.2749	0.6912	0.183
Mof_H 	H 	0.6094	0.2159	0.7183	0.173
Mof_H 	H 	0.4598	0.1852	0.7362	0.181
Mof_H 	H 	0.5488	0.6327	0.4831	0.256
Mof_H 	H 	0.5263	0.7596	0.5104	0.255
Mof_H 	H 	0.6147	0.6552	0.5354	0.261
Mof_H 	H 	0.904	0.4779	0.7838	0.218
Mof_H 	H 	0.7794	0.5409	0.7569	0.2
Mof_H 	H 	0.8736	0.4474	0.7281	0.197
Mof_C 	C 	0.8204	0.012	0.7397	0.134
Mof_C 	C 	0.6855	0.9735	0.76234	0.1
Mof_C 	C 	0.8084	0.9645	0.52336	-0.157
Mof_C 	C 	0.9059	0.8805	0.5393	0.28
Mof_C 	C 	0.4163	0.8181	0.6913	0.262
Mof_C 	C 	0.0365	0.1169	0.7628	0.073
Mof_C 	C 	0.0839	0.1732	0.8117	0.263
Mof_C 	C 	0.7177	0.9715	0.5635	0.216
Mof_C 	C 	0.4769	0.8592	0.7419	0.064
Mof_C 	C 	0.8981	0.9416	0.9321	-0.733
Mof_C 	C 	0.5831	0.0457	0.5679	-0.66
Mof_C 	C 	0.033	0.836	0.5152	-0.775
Mof_C 	C 	0.6843	0.0352	0.97646	-0.175
Mof_C 	C 	0.4817	0.7485	0.7774	-0.525
Mof_C 	C 	0.7783	0.0253	0.9381	0.248
Mof_C 	C 	0.5878	0.1216	0.9615	0.298
Mof_C 	C 	0.4638	0.1716	0.9852	-0.82
Mof_C 	C 	0.1282	0.0112	0.7471	-0.556
Mof_C 	C 	0.8204	0.988	0.2603	0.134
Mof_C 	C 	0.6855	0.0265	0.23766	0.1
Mof_C 	C 	0.8084	0.0355	0.47664	-0.157
Mof_C 	C 	0.9059	0.1195	0.4607	0.28
Mof_C 	C 	0.4163	0.1819	0.3087	0.262
Mof_C 	C 	0.0365	0.8831	0.2372	0.073
Mof_C 	C 	0.0839	0.8268	0.1883	0.263
Mof_C 	C 	0.7177	0.0285	0.4365	0.216
Mof_C 	C 	0.4769	0.1408	0.2581	0.064
Mof_C 	C 	0.8981	0.0584	0.0679	-0.733
Mof_C 	C 	0.5831	0.9543	0.4321	-0.66
Mof_C 	C 	0.033	0.164	0.4848	-0.775
Mof_C 	C 	0.6843	0.9648	0.02354	-0.175
Mof_C 	C 	0.4817	0.2515	0.2226	-0.525
Mof_C 	C 	0.7783	0.9747	0.0619	0.248
Mof_C 	C 	0.5878	0.8784	0.0385	0.298
Mof_C 	C 	0.4638	0.8284	0.0148	-0.82
Mof_C 	C 	0.1282	0.9888	0.2529	-0.556
Mof_C 	C 	0.1796	0.488	0.2397	0.13
Mof_C 	C 	0.3145	0.5265	0.26234	0.104
Mof_C 	C 	0.1916	0.5355	0.02336	-0.157
Mof_C 	C 	0.0941	0.6195	0.0393	0.28
Mof_C 	C 	0.5837	0.6819	0.1913	0.262
Mof_C 	C 	0.9635	0.3831	0.2628	0.079
Mof_C 	C 	0.9161	0.3268	0.3117	0.26
Mof_C 	C 	0.2823	0.5285	0.0635	0.217
Mof_C 	C 	0.5231	0.6408	0.2419	0.065
Mof_C 	C 	0.1019	0.5584	0.4321	-0.73
Mof_C 	C 	0.4169	0.4543	0.0679	-0.661
Mof_C 	C 	0.967	0.664	0.0152	-0.773
Mof_C 	C 	0.3157	0.4648	0.47646	-0.175
Mof_C 	C 	0.5183	0.7515	0.2774	-0.527
Mof_C 	C 	0.2217	0.4747	0.4381	0.247
Mof_C 	C 	0.4122	0.3784	0.4615	0.299
Mof_C 	C 	0.5362	0.3284	0.4852	-0.824
Mof_C 	C 	0.8718	0.4888	0.2471	-0.574
Mof_C 	C 	0.1796	0.512	0.7603	0.13
Mof_C 	C 	0.3145	0.4735	0.73766	0.104
Mof_C 	C 	0.1916	0.4645	0.97664	-0.157
Mof_C 	C 	0.0941	0.3805	0.9607	0.28
Mof_C 	C 	0.5837	0.3181	0.8087	0.262
Mof_C 	C 	0.9635	0.6169	0.7372	0.079
Mof_C 	C 	0.9161	0.6732	0.6883	0.26
Mof_C 	C 	0.2823	0.4715	0.9365	0.217
Mof_C 	C 	0.5231	0.3592	0.7581	0.065
Mof_C 	C 	0.1019	0.4416	0.5679	-0.73
Mof_C 	C 	0.4169	0.5457	0.9321	-0.661
Mof_C 	C 	0.967	0.336	0.9848	-0.773
Mof_C 	C 	0.3157	0.5352	0.52354	-0.175
Mof_C 	C 	0.5183	0.2485	0.7226	-0.527
Mof_C 	C 	0.2217	0.5253	0.5619	0.247
Mof_C 	C 	0.4122	0.6216	0.5385	0.299
Mof_C 	C 	0.5362	0.6716	0.5148	-0.824
Mof_C 	C 	0.8718	0.5112	0.7529	-0.574
Mof_N 	N 	0.7522	0.8962	0.59911	-0.217
Mof_N 	N 	0.747	0.1072	0.90131	-0.224
Mof_N 	N 	0.6091	0.9095	0.73205	-0.24
Mof_N 	N 	0.8966	0.0699	0.77203	-0.247
Mof_N 	N 	0.868	0.8419	0.58422	-0.225
Mof_N 	N 	0.6284	0.1657	0.91699	-0.229
Mof_N 	N 	0.7522	0.1038	0.40089	-0.217
Mof_N 	N 	0.747	0.8928	0.09869	-0.224
Mof_N 	N 	0.6091	0.0905	0.26795	-0.24
Mof_N 	N 	0.8966	0.9301	0.22797	-0.247
Mof_N 	N 	0.868	0.1581	0.41578	-0.225
Mof_N 	N 	0.6284	0.8343	0.08301	-0.229
Mof_N 	N 	0.2478	0.6038	0.09911	-0.217
Mof_N 	N 	0.253	0.3928	0.40131	-0.224
Mof_N 	N 	0.3909	0.5905	0.23205	-0.241
Mof_N 	N 	0.1034	0.4301	0.27203	-0.247
Mof_N 	N 	0.132	0.6581	0.08422	-0.225
Mof_N 	N 	0.3716	0.3343	0.41699	-0.229
Mof_N 	N 	0.2478	0.3962	0.90089	-0.217
Mof_N 	N 	0.253	0.6072	0.59869	-0.224
Mof_N 	N 	0.3909	0.4095	0.76795	-0.241
Mof_N 	N 	0.1034	0.5699	0.72797	-0.247
Mof_N 	N 	0.132	0.3419	0.91578	-0.225
Mof_N 	N 	0.3716	0.6657	0.58301	-0.229
Mof_O 	O 	0.8444	0.9864	0.69519	-0.344
Mof_O 	O 	0.6588	0.0018	0.8078	-0.324
Mof_O 	O 	0.995	0.184	0.8468	-0.394
Mof_O 	O 	0.4975	0.8201	0.65393	-0.39
Mof_O 	O 	0.2938	0.7847	0.68789	-0.346
Mof_O 	O 	0.2063	0.2034	0.81409	-0.342
Mof_O 	O 	0.8444	0.0136	0.30481	-0.344
Mof_O 	O 	0.6588	0.9982	0.1922	-0.324
Mof_O 	O 	0.995	0.816	0.1532	-0.394
Mof_O 	O 	0.4975	0.1799	0.34607	-0.39
Mof_O 	O 	0.2938	0.2153	0.31211	-0.346
Mof_O 	O 	0.2063	0.7966	0.18591	-0.342
Mof_O 	O 	0.1556	0.5136	0.19519	-0.342
Mof_O 	O 	0.3412	0.4982	0.3078	-0.326
Mof_O 	O 	0.005	0.316	0.3468	-0.393
Mof_O 	O 	0.5025	0.6799	0.15393	-0.389
Mof_O 	O 	0.7062	0.7153	0.18789	-0.346
Mof_O 	O 	0.7937	0.2966	0.31409	-0.342
Mof_O 	O 	0.1556	0.4864	0.80481	-0.342
Mof_O 	O 	0.3412	0.5018	0.6922	-0.326
Mof_O 	O 	0.005	0.684	0.6532	-0.393
Mof_O 	O 	0.5025	0.3201	0.84607	-0.389
Mof_O 	O 	0.7062	0.2847	0.81211	-0.346
Mof_O 	O 	0.7937	0.7034	0.68591	-0.342
_end
