data_functionalizedCrystal
_audit_creation_method	'EQeq! by Chris Wilmer'
_symmetry_space_group_name_H-M	'P1'
_symmetry_Int_Tables_number	1
_symmetry_cell_setting	triclinic
loop_
_symmetry_equiv_pos_as_xyz
  x,y,z
_cell_length_a	15.3804
_cell_length_b	15.3804
_cell_length_c	22.9843
_cell_angle_alpha	90
_cell_angle_beta	90
_cell_angle_gamma	90
loop_
_atom_site_label
_atom_site_type_symbol
_atom_site_fract_x
_atom_site_fract_y
_atom_site_fract_z
_atom_site_charge
Mof_O 	O 	0.59191	0.21965	0.29303	-0.395
Mof_O 	O 	0.53338	0.39686	0.34324	-0.379
Mof_N 	N 	0.66963	0.23449	0.27293	-0.025
Mof_N 	N 	0.52833	0.44642	0.29745	-0.028
Mof_C 	C 	0.70832	0.17377	0.23897	-0.001
Mof_H 	H 	0.6797	0.1202	0.2315	0.047
Mof_C 	C 	0.71114	0.31041	0.2846	-0.005
Mof_H 	H 	0.6845	0.3525	0.309	0.051
Mof_C 	C 	0.52715	0.41238	0.24314	-0.005
Mof_H 	H 	0.5264	0.3511	0.238	0.044
Mof_C 	C 	0.52702	0.53383	0.30453	0.002
Mof_H 	H 	0.526	0.558	0.3426	0.047
Mof_O 	O 	0.09191	0.71965	0.79303	-0.395
Mof_O 	O 	0.03338	0.89686	0.84324	-0.372
Mof_N 	N 	0.16963	0.73449	0.77293	-0.03
Mof_N 	N 	0.02833	0.94642	0.79745	-0.04
Mof_C 	C 	0.20832	0.67377	0.73897	-0.006
Mof_H 	H 	0.1797	0.6202	0.7315	0.019
Mof_C 	C 	0.21114	0.81041	0.7846	-0.012
Mof_H 	H 	0.1845	0.8525	0.809	0.053
Mof_C 	C 	0.02715	0.91238	0.74314	-0.026
Mof_H 	H 	0.0264	0.8511	0.738	0.015
Mof_C 	C 	0.02702	0.03383	0.80453	-0.022
Mof_H 	H 	0.026	0.058	0.8426	0.023
Mof_O 	O 	0.90809	0.78035	0.79303	-0.258
Mof_O 	O 	0.96662	0.60314	0.84324	-0.257
Mof_N 	N 	0.83037	0.76551	0.77293	-0.035
Mof_N 	N 	0.97167	0.55358	0.79745	-0.028
Mof_C 	C 	0.79168	0.82623	0.73897	0.012
Mof_H 	H 	0.8203	0.8798	0.7315	0.074
Mof_C 	C 	0.78886	0.68959	0.7846	0.002
Mof_H 	H 	0.8155	0.6475	0.809	0.05
Mof_C 	C 	0.97285	0.58762	0.74314	0.02
Mof_H 	H 	0.9736	0.6489	0.738	0.084
Mof_C 	C 	0.97298	0.46617	0.80453	0.027
Mof_H 	H 	0.974	0.442	0.8426	0.072
Mof_O 	O 	0.40809	0.28035	0.29303	-0.395
Mof_O 	O 	0.46662	0.10314	0.34324	-0.381
Mof_N 	N 	0.33037	0.26551	0.27293	-0.026
Mof_N 	N 	0.47167	0.05358	0.29745	-0.028
Mof_C 	C 	0.29168	0.32623	0.23897	0.001
Mof_H 	H 	0.3203	0.3798	0.2315	0.045
Mof_C 	C 	0.28886	0.18959	0.2846	-0.01
Mof_H 	H 	0.3155	0.1475	0.309	0.044
Mof_C 	C 	0.47285	0.08762	0.24314	-0.007
Mof_H 	H 	0.4736	0.1489	0.238	0.044
Mof_C 	C 	0.47298	0.96617	0.30453	-0.001
Mof_H 	H 	0.474	0.942	0.3426	0.046
Mof_O 	O 	0.03035	0.34191	0.54303	-0.396
Mof_O 	O 	0.85314	0.28338	0.59324	-0.29
Mof_N 	N 	0.01551	0.41963	0.52293	-0.151
Mof_N 	N 	0.80358	0.27833	0.54745	-0.032
Mof_C 	C 	0.07623	0.45832	0.48897	0.064
Mof_H 	H 	0.1298	0.4297	0.4815	0.017
Mof_C 	C 	0.93959	0.46114	0.5346	0.21
Mof_H 	H 	0.8975	0.4345	0.559	-0.002
Mof_C 	C 	0.83762	0.27715	0.49314	-0.005
Mof_H 	H 	0.8989	0.2764	0.488	0.087
Mof_C 	C 	0.71617	0.27702	0.55453	0.005
Mof_H 	H 	0.692	0.276	0.5926	0.047
Mof_O 	O 	0.53035	0.84191	0.04303	-0.394
Mof_O 	O 	0.35314	0.78338	0.09324	-0.382
Mof_N 	N 	0.51551	0.91963	0.02293	-0.026
Mof_N 	N 	0.30358	0.77833	0.04745	-0.027
Mof_C 	C 	0.57623	0.95832	0.98897	0
Mof_H 	H 	0.6298	0.9297	0.9815	0.048
Mof_C 	C 	0.43959	0.96114	0.0346	-0.008
Mof_H 	H 	0.3975	0.9345	0.059	0.045
Mof_C 	C 	0.33762	0.77715	0.99314	-0.007
Mof_H 	H 	0.3989	0.7764	0.988	0.044
Mof_C 	C 	0.21617	0.77702	0.05453	-0.008
Mof_H 	H 	0.192	0.776	0.0926	0.034
Mof_O 	O 	0.46965	0.65809	0.04303	-0.395
Mof_O 	O 	0.64686	0.71662	0.09324	-0.378
Mof_N 	N 	0.48449	0.58037	0.02293	-0.026
Mof_N 	N 	0.69642	0.72167	0.04745	-0.028
Mof_C 	C 	0.42377	0.54168	0.98897	-0
Mof_H 	H 	0.3702	0.5703	0.9815	0.044
Mof_C 	C 	0.56041	0.53886	0.0346	-0.008
Mof_H 	H 	0.6025	0.5655	0.059	0.049
Mof_C 	C 	0.66238	0.72285	0.99314	-0.005
Mof_H 	H 	0.6011	0.7236	0.988	0.044
Mof_C 	C 	0.78383	0.72298	0.05453	0.009
Mof_H 	H 	0.808	0.724	0.0926	0.06
Mof_O 	O 	0.96965	0.15809	0.54303	-0.256
Mof_O 	O 	0.14686	0.21662	0.59324	-0.34
Mof_N 	N 	0.98449	0.08037	0.52293	0.085
Mof_N 	N 	0.19642	0.22167	0.54745	-0.037
Mof_C 	C 	0.92377	0.04168	0.48897	-0.059
Mof_H 	H 	0.8702	0.0703	0.4815	0.075
Mof_C 	C 	0.06041	0.03886	0.5346	-0.217
Mof_H 	H 	0.1025	0.0655	0.559	0.104
Mof_C 	C 	0.16238	0.22285	0.49314	-0.002
Mof_H 	H 	0.1011	0.2236	0.488	0.012
Mof_C 	C 	0.28383	0.22298	0.55453	0
Mof_H 	H 	0.308	0.224	0.5926	0.046
Mof_O 	O 	0.90809	0.21965	0.70697	-0.258
Mof_O 	O 	0.96662	0.39686	0.65676	-0.256
Mof_N 	N 	0.83037	0.23449	0.72707	-0.035
Mof_N 	N 	0.97167	0.44642	0.70255	-0.028
Mof_C 	C 	0.79168	0.17377	0.76103	0.012
Mof_H 	H 	0.8203	0.1202	0.7685	0.074
Mof_C 	C 	0.78886	0.31041	0.7154	0.002
Mof_H 	H 	0.8155	0.3525	0.691	0.05
Mof_C 	C 	0.97285	0.41238	0.75686	0.02
Mof_H 	H 	0.9736	0.3511	0.762	0.084
Mof_C 	C 	0.97298	0.53383	0.69547	0.027
Mof_H 	H 	0.974	0.558	0.6574	0.072
Mof_O 	O 	0.40809	0.71965	0.20697	-0.395
Mof_O 	O 	0.46662	0.89686	0.15676	-0.381
Mof_N 	N 	0.33037	0.73449	0.22707	-0.026
Mof_N 	N 	0.47167	0.94642	0.20255	-0.028
Mof_C 	C 	0.29168	0.67377	0.26103	0.001
Mof_H 	H 	0.3203	0.6202	0.2685	0.045
Mof_C 	C 	0.28886	0.81041	0.2154	-0.01
Mof_H 	H 	0.3155	0.8525	0.191	0.044
Mof_C 	C 	0.47285	0.91238	0.25686	-0.007
Mof_H 	H 	0.4736	0.8511	0.262	0.044
Mof_C 	C 	0.47298	0.03383	0.19547	-0.001
Mof_H 	H 	0.474	0.058	0.1574	0.046
Mof_O 	O 	0.59191	0.78035	0.20697	-0.394
Mof_O 	O 	0.53338	0.60314	0.15676	-0.379
Mof_N 	N 	0.66963	0.76551	0.22707	-0.025
Mof_N 	N 	0.52833	0.55358	0.20255	-0.028
Mof_C 	C 	0.70832	0.82623	0.26103	-0.001
Mof_H 	H 	0.6797	0.8798	0.2685	0.047
Mof_C 	C 	0.71114	0.68959	0.2154	-0.005
Mof_H 	H 	0.6845	0.6475	0.191	0.051
Mof_C 	C 	0.52715	0.58762	0.25686	-0.005
Mof_H 	H 	0.5264	0.6489	0.262	0.044
Mof_C 	C 	0.52702	0.46617	0.19547	0.002
Mof_H 	H 	0.526	0.442	0.1574	0.047
Mof_O 	O 	0.09191	0.28035	0.70697	-0.394
Mof_O 	O 	0.03338	0.10314	0.65676	-0.372
Mof_N 	N 	0.16963	0.26551	0.72707	-0.03
Mof_N 	N 	0.02833	0.05358	0.70255	-0.04
Mof_C 	C 	0.20832	0.32623	0.76103	-0.006
Mof_H 	H 	0.1797	0.3798	0.7685	0.019
Mof_C 	C 	0.21114	0.18959	0.7154	-0.012
Mof_H 	H 	0.1845	0.1475	0.691	0.053
Mof_C 	C 	0.02715	0.08762	0.75686	-0.026
Mof_H 	H 	0.0264	0.1489	0.762	0.015
Mof_C 	C 	0.02702	0.96617	0.69547	-0.022
Mof_H 	H 	0.026	0.942	0.6574	0.022
Mof_O 	O 	0.46965	0.34191	0.45697	-0.395
Mof_O 	O 	0.64686	0.28338	0.40676	-0.378
Mof_N 	N 	0.48449	0.41963	0.47707	-0.026
Mof_N 	N 	0.69642	0.27833	0.45255	-0.028
Mof_C 	C 	0.42377	0.45832	0.51103	-0
Mof_H 	H 	0.3702	0.4297	0.5185	0.044
Mof_C 	C 	0.56041	0.46114	0.4654	-0.008
Mof_H 	H 	0.6025	0.4345	0.441	0.049
Mof_C 	C 	0.66238	0.27715	0.50686	-0.005
Mof_H 	H 	0.6011	0.2764	0.512	0.044
Mof_C 	C 	0.78383	0.27702	0.44547	0.009
Mof_H 	H 	0.808	0.276	0.4074	0.061
Mof_O 	O 	0.96965	0.84191	0.95697	-0.257
Mof_O 	O 	0.14686	0.78338	0.90676	-0.34
Mof_N 	N 	0.98449	0.91963	0.97707	0.084
Mof_N 	N 	0.19642	0.77833	0.95255	-0.037
Mof_C 	C 	0.92377	0.95832	0.01103	-0.059
Mof_H 	H 	0.8702	0.9297	0.0185	0.075
Mof_C 	C 	0.06041	0.96114	0.9654	-0.215
Mof_H 	H 	0.1025	0.9345	0.941	0.103
Mof_C 	C 	0.16238	0.77715	0.00686	-0.002
Mof_H 	H 	0.1011	0.7764	0.012	0.012
Mof_C 	C 	0.28383	0.77702	0.94547	0
Mof_H 	H 	0.308	0.776	0.9074	0.046
Mof_O 	O 	0.03035	0.65809	0.95697	-0.396
Mof_O 	O 	0.85314	0.71662	0.90676	-0.29
Mof_N 	N 	0.01551	0.58037	0.97707	-0.15
Mof_N 	N 	0.80358	0.72167	0.95255	-0.032
Mof_C 	C 	0.07623	0.54168	0.01103	0.064
Mof_H 	H 	0.1298	0.5703	0.0185	0.018
Mof_C 	C 	0.93959	0.53886	0.9654	0.208
Mof_H 	H 	0.8975	0.5655	0.941	-0.001
Mof_C 	C 	0.83762	0.72285	0.00686	-0.006
Mof_H 	H 	0.8989	0.7236	0.012	0.087
Mof_C 	C 	0.71617	0.72298	0.94547	0.005
Mof_H 	H 	0.692	0.724	0.9074	0.047
Mof_O 	O 	0.53035	0.15809	0.45697	-0.394
Mof_O 	O 	0.35314	0.21662	0.40676	-0.382
Mof_N 	N 	0.51551	0.08037	0.47707	-0.026
Mof_N 	N 	0.30358	0.22167	0.45255	-0.027
Mof_C 	C 	0.57623	0.04168	0.51103	0.001
Mof_H 	H 	0.6298	0.0703	0.5185	0.048
Mof_C 	C 	0.43959	0.03886	0.4654	-0.008
Mof_H 	H 	0.3975	0.0655	0.441	0.045
Mof_C 	C 	0.33762	0.22285	0.50686	-0.007
Mof_H 	H 	0.3989	0.2236	0.512	0.044
Mof_C 	C 	0.21617	0.22298	0.44547	-0.008
Mof_H 	H 	0.192	0.224	0.4074	0.034
Mof_O 	O 	0.40809	0.78035	0.70697	-0.395
Mof_O 	O 	0.46662	0.60314	0.65676	-0.381
Mof_N 	N 	0.33037	0.76551	0.72707	-0.026
Mof_N 	N 	0.47167	0.55358	0.70255	-0.028
Mof_C 	C 	0.29168	0.82623	0.76103	0.001
Mof_H 	H 	0.3203	0.8798	0.7685	0.045
Mof_C 	C 	0.28886	0.68959	0.7154	-0.01
Mof_H 	H 	0.3155	0.6475	0.691	0.044
Mof_C 	C 	0.47285	0.58762	0.75686	-0.007
Mof_H 	H 	0.4736	0.6489	0.762	0.044
Mof_C 	C 	0.47298	0.46617	0.69547	-0.001
Mof_H 	H 	0.474	0.442	0.6574	0.046
Mof_O 	O 	0.90809	0.28035	0.20697	-0.258
Mof_O 	O 	0.96662	0.10314	0.15676	-0.257
Mof_N 	N 	0.83037	0.26551	0.22707	-0.035
Mof_N 	N 	0.97167	0.05358	0.20255	-0.028
Mof_C 	C 	0.79168	0.32623	0.26103	0.012
Mof_H 	H 	0.8203	0.3798	0.2685	0.074
Mof_C 	C 	0.78886	0.18959	0.2154	0.002
Mof_H 	H 	0.8155	0.1475	0.191	0.049
Mof_C 	C 	0.97285	0.08762	0.25686	0.019
Mof_H 	H 	0.9736	0.1489	0.262	0.084
Mof_C 	C 	0.97298	0.96617	0.19547	0.025
Mof_H 	H 	0.974	0.942	0.1574	0.072
Mof_O 	O 	0.09191	0.21965	0.20697	-0.394
Mof_O 	O 	0.03338	0.39686	0.15676	-0.373
Mof_N 	N 	0.16963	0.23449	0.22707	-0.03
Mof_N 	N 	0.02833	0.44642	0.20255	-0.04
Mof_C 	C 	0.20832	0.17377	0.26103	-0.006
Mof_H 	H 	0.1797	0.1202	0.2685	0.02
Mof_C 	C 	0.21114	0.31041	0.2154	-0.012
Mof_H 	H 	0.1845	0.3525	0.191	0.053
Mof_C 	C 	0.02715	0.41238	0.25686	-0.026
Mof_H 	H 	0.0264	0.3511	0.262	0.015
Mof_C 	C 	0.02702	0.53383	0.19547	-0.022
Mof_H 	H 	0.026	0.558	0.1574	0.022
Mof_O 	O 	0.59191	0.71965	0.70697	-0.394
Mof_O 	O 	0.53338	0.89686	0.65676	-0.379
Mof_N 	N 	0.66963	0.73449	0.72707	-0.024
Mof_N 	N 	0.52833	0.94642	0.70255	-0.028
Mof_C 	C 	0.70832	0.67377	0.76103	-0.001
Mof_H 	H 	0.6797	0.6202	0.7685	0.047
Mof_C 	C 	0.71114	0.81041	0.7154	-0.005
Mof_H 	H 	0.6845	0.8525	0.691	0.05
Mof_C 	C 	0.52715	0.91238	0.75686	-0.005
Mof_H 	H 	0.5264	0.8511	0.762	0.044
Mof_C 	C 	0.52702	0.03383	0.69547	0.002
Mof_H 	H 	0.526	0.058	0.6574	0.047
Mof_O 	O 	0.96965	0.65809	0.45697	-0.256
Mof_O 	O 	0.14686	0.71662	0.40676	-0.34
Mof_N 	N 	0.98449	0.58037	0.47707	0.087
Mof_N 	N 	0.19642	0.72167	0.45255	-0.037
Mof_C 	C 	0.92377	0.54168	0.51103	-0.059
Mof_H 	H 	0.8702	0.5703	0.5185	0.075
Mof_C 	C 	0.06041	0.53886	0.4654	-0.22
Mof_H 	H 	0.1025	0.5655	0.441	0.105
Mof_C 	C 	0.16238	0.72285	0.50686	-0.002
Mof_H 	H 	0.1011	0.7236	0.512	0.011
Mof_C 	C 	0.28383	0.72298	0.44547	0
Mof_H 	H 	0.308	0.724	0.4074	0.046
Mof_O 	O 	0.46965	0.15809	0.95697	-0.395
Mof_O 	O 	0.64686	0.21662	0.90676	-0.378
Mof_N 	N 	0.48449	0.08037	0.97707	-0.026
Mof_N 	N 	0.69642	0.22167	0.95255	-0.028
Mof_C 	C 	0.42377	0.04168	0.01103	0
Mof_H 	H 	0.3702	0.0703	0.0185	0.044
Mof_C 	C 	0.56041	0.03886	0.9654	-0.008
Mof_H 	H 	0.6025	0.0655	0.941	0.049
Mof_C 	C 	0.66238	0.22285	0.00686	-0.005
Mof_H 	H 	0.6011	0.2236	0.012	0.044
Mof_C 	C 	0.78383	0.22298	0.94547	0.008
Mof_H 	H 	0.808	0.224	0.9074	0.06
Mof_O 	O 	0.53035	0.34191	0.95697	-0.394
Mof_O 	O 	0.35314	0.28338	0.90676	-0.382
Mof_N 	N 	0.51551	0.41963	0.97707	-0.026
Mof_N 	N 	0.30358	0.27833	0.95255	-0.028
Mof_C 	C 	0.57623	0.45832	0.01103	0.001
Mof_H 	H 	0.6298	0.4297	0.0185	0.048
Mof_C 	C 	0.43959	0.46114	0.9654	-0.008
Mof_H 	H 	0.3975	0.4345	0.941	0.045
Mof_C 	C 	0.33762	0.27715	0.00686	-0.007
Mof_H 	H 	0.3989	0.2764	0.012	0.044
Mof_C 	C 	0.21617	0.27702	0.94547	-0.008
Mof_H 	H 	0.192	0.276	0.9074	0.034
Mof_O 	O 	0.03035	0.84191	0.45697	-0.396
Mof_O 	O 	0.85314	0.78338	0.40676	-0.29
Mof_N 	N 	0.01551	0.91963	0.47707	-0.149
Mof_N 	N 	0.80358	0.77833	0.45255	-0.032
Mof_C 	C 	0.07623	0.95832	0.51103	0.064
Mof_H 	H 	0.1298	0.9297	0.5185	0.018
Mof_C 	C 	0.93959	0.96114	0.4654	0.207
Mof_H 	H 	0.8975	0.9345	0.441	-0.001
Mof_C 	C 	0.83762	0.77715	0.50686	-0.005
Mof_H 	H 	0.8989	0.7764	0.512	0.087
Mof_C 	C 	0.71617	0.77702	0.44547	0.005
Mof_H 	H 	0.692	0.776	0.4074	0.047
Mof_O 	O 	0.09191	0.78035	0.29303	-0.394
Mof_O 	O 	0.03338	0.60314	0.34324	-0.373
Mof_N 	N 	0.16963	0.76551	0.27293	-0.03
Mof_N 	N 	0.02833	0.55358	0.29745	-0.04
Mof_C 	C 	0.20832	0.82623	0.23897	-0.006
Mof_H 	H 	0.1797	0.8798	0.2315	0.02
Mof_C 	C 	0.21114	0.68959	0.2846	-0.012
Mof_H 	H 	0.1845	0.6475	0.309	0.053
Mof_C 	C 	0.02715	0.58762	0.24314	-0.026
Mof_H 	H 	0.0264	0.6489	0.238	0.015
Mof_C 	C 	0.02702	0.46617	0.30453	-0.022
Mof_H 	H 	0.026	0.442	0.3426	0.022
Mof_O 	O 	0.59191	0.28035	0.79303	-0.394
Mof_O 	O 	0.53338	0.10314	0.84324	-0.379
Mof_N 	N 	0.66963	0.26551	0.77293	-0.024
Mof_N 	N 	0.52833	0.05358	0.79745	-0.028
Mof_C 	C 	0.70832	0.32623	0.73897	-0.001
Mof_H 	H 	0.6797	0.3798	0.7315	0.047
Mof_C 	C 	0.71114	0.18959	0.7846	-0.005
Mof_H 	H 	0.6845	0.1475	0.809	0.05
Mof_C 	C 	0.52715	0.08762	0.74314	-0.005
Mof_H 	H 	0.5264	0.1489	0.738	0.044
Mof_C 	C 	0.52702	0.96617	0.80453	0.002
Mof_H 	H 	0.526	0.942	0.8426	0.047
Mof_O 	O 	0.40809	0.21965	0.79303	-0.395
Mof_O 	O 	0.46662	0.39686	0.84324	-0.381
Mof_N 	N 	0.33037	0.23449	0.77293	-0.026
Mof_N 	N 	0.47167	0.44642	0.79745	-0.028
Mof_C 	C 	0.29168	0.17377	0.73897	0.001
Mof_H 	H 	0.3203	0.1202	0.7315	0.045
Mof_C 	C 	0.28886	0.31041	0.7846	-0.01
Mof_H 	H 	0.3155	0.3525	0.809	0.044
Mof_C 	C 	0.47285	0.41238	0.74314	-0.007
Mof_H 	H 	0.4736	0.3511	0.738	0.044
Mof_C 	C 	0.47298	0.53383	0.80453	-0.001
Mof_H 	H 	0.474	0.558	0.8426	0.046
Mof_O 	O 	0.90809	0.71965	0.29303	-0.257
Mof_O 	O 	0.96662	0.89686	0.34324	-0.257
Mof_N 	N 	0.83037	0.73449	0.27293	-0.035
Mof_N 	N 	0.97167	0.94642	0.29745	-0.028
Mof_C 	C 	0.79168	0.67377	0.23897	0.012
Mof_H 	H 	0.8203	0.6202	0.2315	0.074
Mof_C 	C 	0.78886	0.81041	0.2846	0.002
Mof_H 	H 	0.8155	0.8525	0.309	0.049
Mof_C 	C 	0.97285	0.91238	0.24314	0.02
Mof_H 	H 	0.9736	0.8511	0.238	0.084
Mof_C 	C 	0.97298	0.03383	0.30453	0.026
Mof_H 	H 	0.974	0.058	0.3426	0.072
Mof_O 	O 	0.53035	0.65809	0.54303	-0.394
Mof_O 	O 	0.35314	0.71662	0.59324	-0.382
Mof_N 	N 	0.51551	0.58037	0.52293	-0.026
Mof_N 	N 	0.30358	0.72167	0.54745	-0.027
Mof_C 	C 	0.57623	0.54168	0.48897	0.001
Mof_H 	H 	0.6298	0.5703	0.4815	0.049
Mof_C 	C 	0.43959	0.53886	0.5346	-0.008
Mof_H 	H 	0.3975	0.5655	0.559	0.045
Mof_C 	C 	0.33762	0.72285	0.49314	-0.007
Mof_H 	H 	0.3989	0.7236	0.488	0.044
Mof_C 	C 	0.21617	0.72298	0.55453	-0.008
Mof_H 	H 	0.192	0.724	0.5926	0.034
Mof_O 	O 	0.03035	0.15809	0.04303	-0.396
Mof_O 	O 	0.85314	0.21662	0.09324	-0.29
Mof_N 	N 	0.01551	0.08037	0.02293	-0.148
Mof_N 	N 	0.80358	0.22167	0.04745	-0.032
Mof_C 	C 	0.07623	0.04168	0.98897	0.063
Mof_H 	H 	0.1298	0.0703	0.9815	0.018
Mof_C 	C 	0.93959	0.03886	0.0346	0.205
Mof_H 	H 	0.8975	0.0655	0.059	-0.001
Mof_C 	C 	0.83762	0.22285	0.99314	-0.006
Mof_H 	H 	0.8989	0.2236	0.988	0.087
Mof_C 	C 	0.71617	0.22298	0.05453	0.005
Mof_H 	H 	0.692	0.224	0.0926	0.047
Mof_O 	O 	0.96965	0.34191	0.04303	-0.257
Mof_O 	O 	0.14686	0.28338	0.09324	-0.34
Mof_N 	N 	0.98449	0.41963	0.02293	0.086
Mof_N 	N 	0.19642	0.27833	0.04745	-0.037
Mof_C 	C 	0.92377	0.45832	0.98897	-0.059
Mof_H 	H 	0.8702	0.4297	0.9815	0.075
Mof_C 	C 	0.06041	0.46114	0.0346	-0.218
Mof_H 	H 	0.1025	0.4345	0.059	0.104
Mof_C 	C 	0.16238	0.27715	0.99314	-0.002
Mof_H 	H 	0.1011	0.2764	0.988	0.012
Mof_C 	C 	0.28383	0.27702	0.05453	0
Mof_H 	H 	0.308	0.276	0.0926	0.046
Mof_O 	O 	0.46965	0.84191	0.54303	-0.395
Mof_O 	O 	0.64686	0.78338	0.59324	-0.378
Mof_N 	N 	0.48449	0.91963	0.52293	-0.026
Mof_N 	N 	0.69642	0.77833	0.54745	-0.028
Mof_C 	C 	0.42377	0.95832	0.48897	-0
Mof_H 	H 	0.3702	0.9297	0.4815	0.044
Mof_C 	C 	0.56041	0.96114	0.5346	-0.008
Mof_H 	H 	0.6025	0.9345	0.559	0.049
Mof_C 	C 	0.66238	0.77715	0.49314	-0.005
Mof_H 	H 	0.6011	0.7764	0.488	0.044
Mof_C 	C 	0.78383	0.77702	0.55453	0.008
Mof_H 	H 	0.808	0.776	0.5926	0.06
Mof_Nd	Nd	0.5	0.25	0.375	2.638
Mof_Nd	Nd	-4.383e-33	0.75	0.875	2.059
Mof_Nd	Nd	-5.78377e-33	0.25	0.625	2.056
Mof_Nd	Nd	0.5	0.75	0.125	2.638
Mof_Nd	Nd	0.5	0.75	0.625	2.638
Mof_Nd	Nd	-3.94246e-33	0.25	0.125	2.06
Mof_Nd	Nd	1.13868e-32	0.75	0.375	2.056
Mof_Nd	Nd	0.5	0.25	0.875	2.638
_end
