data_functionalizedCrystal
_audit_creation_method	'EQeq! by Chris Wilmer'
_symmetry_space_group_name_H-M	'P1'
_symmetry_Int_Tables_number	1
_symmetry_cell_setting	triclinic
loop_
_symmetry_equiv_pos_as_xyz
  x,y,z
_cell_length_a	16.2107
_cell_length_b	14.9781
_cell_length_c	7.9573
_cell_angle_alpha	90
_cell_angle_beta	92.069
_cell_angle_gamma	90
loop_
_atom_site_label
_atom_site_type_symbol
_atom_site_fract_x
_atom_site_fract_y
_atom_site_fract_z
_atom_site_charge
Mof_Ag	Ag	0.02698	0.25929	0.39979	0.442
Mof_Ho	Ho	0.54522	0.38374	0.94987	2.048
Mof_C 	C 	0.867	0.3281	0.5406	0.005
Mof_H 	H 	0.8939	0.3821	0.5245	-0.011
Mof_C 	C 	0.7887	0.329	0.6053	-0.023
Mof_H 	H 	0.764	0.3828	0.6335	0.03
Mof_C 	C 	0.7473	0.2486	0.6278	-0.133
Mof_C 	C 	0.7871	0.1702	0.5855	-0.007
Mof_H 	H 	0.7612	0.1154	0.5991	0.008
Mof_C 	C 	0.8656	0.1742	0.5228	0.002
Mof_H 	H 	0.8918	0.1212	0.4952	-0.007
Mof_C 	C 	0.6624	0.2491	0.6977	0.466
Mof_C 	C 	0.2119	0.2528	0.294	0.009
Mof_H 	H 	0.2093	0.1929	0.3238	-0.003
Mof_C 	C 	0.2858	0.2869	0.243	-0.034
Mof_H 	H 	0.3323	0.2506	0.2387	0.034
Mof_C 	C 	0.29	0.3765	0.198	-0.117
Mof_C 	C 	0.2196	0.4274	0.2061	-0.045
Mof_H 	H 	0.2207	0.4875	0.1772	0.038
Mof_C 	C 	0.1476	0.3887	0.2572	0.006
Mof_H 	H 	0.1002	0.4236	0.2605	-0.017
Mof_C 	C 	0.3683	0.4187	0.1396	0.453
Mof_C 	C 	0.4309	0.4583	0.7136	0.774
Mof_C 	C 	0.3647	0.4932	0.5961	-1.298
Mof_H 	H 	0.3273	0.4457	0.5653	0.409
Mof_H 	H 	0.3351	0.5399	0.6505	0.413
Mof_H 	H 	0.3891	0.5164	0.4971	0.413
Mof_N 	N 	0.90521	0.2517	0.5003	-0.187
Mof_N 	N 	0.1433	0.3029	0.3023	-0.193
Mof_O 	O 	0.64109	0.31544	0.7811	-0.533
Mof_O 	O 	0.61712	0.1811	0.6685	-0.56
Mof_O 	O 	0.42521	0.36697	0.0958	-0.532
Mof_O 	O 	0.37096	0.50296	0.1413	-0.524
Mof_O 	O 	0.45136	0.50266	0.843	-0.718
Mof_O 	O 	0.46593	0.38475	0.6875	-0.602
Mof_Ag	Ag	0.97302	0.75929	0.10021	0.437
Mof_Ho	Ho	0.45478	0.88374	0.55013	2.049
Mof_C 	C 	0.133	0.8281	0.9594	0.005
Mof_H 	H 	0.1061	0.8821	0.9755	-0.011
Mof_C 	C 	0.2113	0.829	0.8947	-0.024
Mof_H 	H 	0.236	0.8828	0.8665	0.03
Mof_C 	C 	0.2527	0.7486	0.8722	-0.132
Mof_C 	C 	0.2129	0.6702	0.9145	-0.009
Mof_H 	H 	0.2388	0.6154	0.9009	0.009
Mof_C 	C 	0.1344	0.6742	0.9772	0.005
Mof_H 	H 	0.1082	0.6212	0.0048	-0.008
Mof_C 	C 	0.3376	0.7491	0.8023	0.466
Mof_C 	C 	0.7881	0.7528	0.206	0.009
Mof_H 	H 	0.7907	0.6929	0.1762	-0.003
Mof_C 	C 	0.7142	0.7869	0.257	-0.035
Mof_H 	H 	0.6677	0.7506	0.2613	0.033
Mof_C 	C 	0.71	0.8765	0.302	-0.118
Mof_C 	C 	0.7804	0.9274	0.2939	-0.046
Mof_H 	H 	0.7793	0.9875	0.3228	0.037
Mof_C 	C 	0.8524	0.8887	0.2428	0.005
Mof_H 	H 	0.8998	0.9236	0.2395	-0.018
Mof_C 	C 	0.6317	0.9187	0.3604	0.451
Mof_C 	C 	0.5691	0.9583	0.7864	0.775
Mof_C 	C 	0.6353	0.9932	0.9039	-1.294
Mof_H 	H 	0.6727	0.9457	0.9347	0.409
Mof_H 	H 	0.6649	0.0399	0.8495	0.41
Mof_H 	H 	0.6109	0.0164	0.0029	0.413
Mof_N 	N 	0.09479	0.7517	0.9997	-0.187
Mof_N 	N 	0.8567	0.8029	0.1977	-0.193
Mof_O 	O 	0.35891	0.81544	0.7189	-0.532
Mof_O 	O 	0.38288	0.6811	0.8315	-0.559
Mof_O 	O 	0.57479	0.86697	0.4042	-0.533
Mof_O 	O 	0.62904	0.00296	0.3587	-0.523
Mof_O 	O 	0.54864	0.00266	0.657	-0.72
Mof_O 	O 	0.53407	0.88475	0.8125	-0.601
Mof_Ag	Ag	0.97302	0.74071	0.60021	0.441
Mof_Ho	Ho	0.45478	0.61626	0.05013	2.047
Mof_C 	C 	0.133	0.6719	0.4594	0.004
Mof_H 	H 	0.1061	0.6179	0.4755	-0.012
Mof_C 	C 	0.2113	0.671	0.3947	-0.024
Mof_H 	H 	0.236	0.6172	0.3665	0.029
Mof_C 	C 	0.2527	0.7514	0.3722	-0.133
Mof_C 	C 	0.2129	0.8298	0.4145	-0.007
Mof_H 	H 	0.2388	0.8846	0.4009	0.008
Mof_C 	C 	0.1344	0.8258	0.4772	0.002
Mof_H 	H 	0.1082	0.8788	0.5048	-0.007
Mof_C 	C 	0.3376	0.7509	0.3023	0.466
Mof_C 	C 	0.7881	0.7472	0.706	0.009
Mof_H 	H 	0.7907	0.8071	0.6762	-0.003
Mof_C 	C 	0.7142	0.7131	0.757	-0.034
Mof_H 	H 	0.6677	0.7494	0.7613	0.034
Mof_C 	C 	0.71	0.6235	0.802	-0.117
Mof_C 	C 	0.7804	0.5726	0.7939	-0.045
Mof_H 	H 	0.7793	0.5125	0.8228	0.038
Mof_C 	C 	0.8524	0.6113	0.7428	0.006
Mof_H 	H 	0.8998	0.5764	0.7395	-0.017
Mof_C 	C 	0.6317	0.5813	0.8604	0.453
Mof_C 	C 	0.5691	0.5417	0.2864	0.774
Mof_C 	C 	0.6353	0.5068	0.4039	-1.298
Mof_H 	H 	0.6727	0.5543	0.4347	0.409
Mof_H 	H 	0.6649	0.4601	0.3495	0.413
Mof_H 	H 	0.6109	0.4836	0.5029	0.413
Mof_N 	N 	0.09479	0.7483	0.4997	-0.187
Mof_N 	N 	0.8567	0.6971	0.6977	-0.193
Mof_O 	O 	0.35891	0.68456	0.2189	-0.533
Mof_O 	O 	0.38288	0.8189	0.3315	-0.56
Mof_O 	O 	0.57479	0.63303	0.9042	-0.532
Mof_O 	O 	0.62904	0.49704	0.8587	-0.524
Mof_O 	O 	0.54864	0.49734	0.157	-0.718
Mof_O 	O 	0.53407	0.61525	0.3125	-0.602
Mof_Ag	Ag	0.02698	0.24071	0.89979	0.437
Mof_Ho	Ho	0.54522	0.11626	0.44987	2.049
Mof_C 	C 	0.867	0.1719	0.0406	0.005
Mof_H 	H 	0.8939	0.1179	0.0245	-0.011
Mof_C 	C 	0.7887	0.171	0.1053	-0.024
Mof_H 	H 	0.764	0.1172	0.1335	0.03
Mof_C 	C 	0.7473	0.2514	0.1278	-0.132
Mof_C 	C 	0.7871	0.3298	0.0855	-0.009
Mof_H 	H 	0.7612	0.3846	0.0991	0.009
Mof_C 	C 	0.8656	0.3258	0.0228	0.005
Mof_H 	H 	0.8918	0.3788	0.9952	-0.008
Mof_C 	C 	0.6624	0.2509	0.1977	0.466
Mof_C 	C 	0.2119	0.2472	0.794	0.009
Mof_H 	H 	0.2093	0.3071	0.8238	-0.003
Mof_C 	C 	0.2858	0.2131	0.743	-0.035
Mof_H 	H 	0.3323	0.2494	0.7387	0.033
Mof_C 	C 	0.29	0.1235	0.698	-0.118
Mof_C 	C 	0.2196	0.0726	0.7061	-0.046
Mof_H 	H 	0.2207	0.0125	0.6772	0.037
Mof_C 	C 	0.1476	0.1113	0.7572	0.005
Mof_H 	H 	0.1002	0.0764	0.7605	-0.018
Mof_C 	C 	0.3683	0.0813	0.6396	0.451
Mof_C 	C 	0.4309	0.0417	0.2136	0.775
Mof_C 	C 	0.3647	0.0068	0.0961	-1.294
Mof_H 	H 	0.3273	0.0543	0.0653	0.409
Mof_H 	H 	0.3351	0.9601	0.1505	0.41
Mof_H 	H 	0.3891	0.9836	0.9971	0.413
Mof_N 	N 	0.90521	0.2483	0.0003	-0.187
Mof_N 	N 	0.1433	0.1971	0.8023	-0.193
Mof_O 	O 	0.64109	0.18456	0.2811	-0.532
Mof_O 	O 	0.61712	0.3189	0.1685	-0.559
Mof_O 	O 	0.42521	0.13303	0.5958	-0.533
Mof_O 	O 	0.37096	0.99704	0.6413	-0.523
Mof_O 	O 	0.45136	0.99734	0.343	-0.72
Mof_O 	O 	0.46593	0.11525	0.1875	-0.601
_end
