data_functionalizedCrystal
_audit_creation_method	'EQeq! by Chris Wilmer'
_symmetry_space_group_name_H-M	'P1'
_symmetry_Int_Tables_number	1
_symmetry_cell_setting	triclinic
loop_
_symmetry_equiv_pos_as_xyz
  x,y,z
_cell_length_a	21.917
_cell_length_b	21.917
_cell_length_c	16.5868
_cell_angle_alpha	90
_cell_angle_beta	90
_cell_angle_gamma	90
loop_
_atom_site_label
_atom_site_type_symbol
_atom_site_fract_x
_atom_site_fract_y
_atom_site_fract_z
_atom_site_charge
Mof_Nd	Nd	0.88894	0.42493	0.11504	1.807
Mof_N 	N 	0.8315	0.3854	0.9883	-0.191
Mof_O 	O 	0.8626	0.3169	0.1119	-0.538
Mof_O 	O 	0.8245	0.2326	0.0515	-0.563
Mof_O 	O 	0.8593	0.5009	0.0113	-0.549
Mof_O 	O 	0.8171	0.5286	0.8938	-0.517
Mof_C 	C 	0.832	0.2882	0.0533	0.383
Mof_C 	C 	0.8142	0.3267	0.9846	-0.102
Mof_C 	C 	0.7795	0.3036	0.9173	0.002
Mof_H 	H 	0.7687	0.2626	0.9139	-0.001
Mof_C 	C 	0.7634	0.3439	0.8591	-0.093
Mof_H 	H 	0.7397	0.3307	0.816	0.033
Mof_C 	C 	0.782	0.4055	0.8631	-0.008
Mof_H 	H 	0.7728	0.4329	0.8221	0.014
Mof_C 	C 	0.8141	0.423	0.9301	-0.079
Mof_C 	C 	0.8312	0.4906	0.9449	0.401
Mof_Nd	Nd	0.38894	0.92493	0.61504	1.808
Mof_N 	N 	0.3315	0.8854	0.4883	-0.19
Mof_O 	O 	0.3626	0.8169	0.6119	-0.539
Mof_O 	O 	0.3245	0.7326	0.5515	-0.563
Mof_O 	O 	0.3593	0.0009	0.5113	-0.55
Mof_O 	O 	0.3171	0.0286	0.3938	-0.518
Mof_C 	C 	0.332	0.7882	0.5533	0.384
Mof_C 	C 	0.3142	0.8267	0.4846	-0.103
Mof_C 	C 	0.2795	0.8036	0.4173	0.003
Mof_H 	H 	0.2687	0.7626	0.4139	-0.002
Mof_C 	C 	0.2634	0.8439	0.3591	-0.094
Mof_H 	H 	0.2397	0.8307	0.316	0.033
Mof_C 	C 	0.282	0.9055	0.3631	-0.007
Mof_H 	H 	0.2728	0.9329	0.3221	0.014
Mof_C 	C 	0.3141	0.923	0.4301	-0.079
Mof_C 	C 	0.3312	0.9906	0.4449	0.403
Mof_Nd	Nd	0.61106	0.57507	0.61504	1.808
Mof_N 	N 	0.6685	0.6146	0.4883	-0.19
Mof_O 	O 	0.6374	0.6831	0.6119	-0.539
Mof_O 	O 	0.6755	0.7674	0.5515	-0.563
Mof_O 	O 	0.6407	0.4991	0.5113	-0.549
Mof_O 	O 	0.6829	0.4714	0.3938	-0.517
Mof_C 	C 	0.668	0.7118	0.5533	0.384
Mof_C 	C 	0.6858	0.6733	0.4846	-0.103
Mof_C 	C 	0.7205	0.6964	0.4173	0.003
Mof_H 	H 	0.7313	0.7374	0.4139	-0.002
Mof_C 	C 	0.7366	0.6561	0.3591	-0.094
Mof_H 	H 	0.7603	0.6693	0.316	0.033
Mof_C 	C 	0.718	0.5945	0.3631	-0.007
Mof_H 	H 	0.7272	0.5671	0.3221	0.014
Mof_C 	C 	0.6859	0.577	0.4301	-0.079
Mof_C 	C 	0.6688	0.5094	0.4449	0.402
Mof_Nd	Nd	0.11106	0.07507	0.11504	1.803
Mof_N 	N 	0.1685	0.1146	0.9883	-0.19
Mof_O 	O 	0.1374	0.1831	0.1119	-0.538
Mof_O 	O 	0.1755	0.2674	0.0515	-0.563
Mof_O 	O 	0.1407	0.9991	0.0113	-0.547
Mof_O 	O 	0.1829	0.9714	0.8938	-0.518
Mof_C 	C 	0.168	0.2118	0.0533	0.383
Mof_C 	C 	0.1858	0.1733	0.9846	-0.101
Mof_C 	C 	0.2205	0.1964	0.9173	0.002
Mof_H 	H 	0.2313	0.2374	0.9139	-0.001
Mof_C 	C 	0.2366	0.1561	0.8591	-0.093
Mof_H 	H 	0.2603	0.1693	0.816	0.033
Mof_C 	C 	0.218	0.0945	0.8631	-0.008
Mof_H 	H 	0.2272	0.0671	0.8221	0.014
Mof_C 	C 	0.1859	0.077	0.9301	-0.078
Mof_C 	C 	0.1688	0.0094	0.9449	0.402
Mof_Nd	Nd	0.32507	0.13894	0.36504	1.808
Mof_N 	N 	0.3646	0.0815	0.2383	-0.19
Mof_O 	O 	0.4331	0.1126	0.3619	-0.539
Mof_O 	O 	0.5174	0.0745	0.3015	-0.564
Mof_O 	O 	0.2491	0.1093	0.2613	-0.549
Mof_O 	O 	0.2214	0.0671	0.1438	-0.517
Mof_C 	C 	0.4618	0.082	0.3033	0.385
Mof_C 	C 	0.4233	0.0642	0.2346	-0.105
Mof_C 	C 	0.4464	0.0295	0.1673	0.007
Mof_H 	H 	0.4874	0.0187	0.1639	-0.004
Mof_C 	C 	0.4061	0.0134	0.1091	-0.102
Mof_H 	H 	0.4193	0.9897	0.066	0.038
Mof_C 	C 	0.3445	0.032	0.1131	-0.003
Mof_H 	H 	0.3171	0.0228	0.0721	0.012
Mof_C 	C 	0.327	0.0641	0.1801	-0.081
Mof_C 	C 	0.2594	0.0812	0.1949	0.402
Mof_Nd	Nd	0.82507	0.63894	0.86504	1.807
Mof_N 	N 	0.8646	0.5815	0.7383	-0.19
Mof_O 	O 	0.9331	0.6126	0.8619	-0.539
Mof_O 	O 	0.0174	0.5745	0.8015	-0.563
Mof_O 	O 	0.7491	0.6093	0.7613	-0.549
Mof_O 	O 	0.7214	0.5671	0.6438	-0.517
Mof_C 	C 	0.9618	0.582	0.8033	0.384
Mof_C 	C 	0.9233	0.5642	0.7346	-0.103
Mof_C 	C 	0.9464	0.5295	0.6673	0.003
Mof_H 	H 	0.9874	0.5187	0.6639	-0.002
Mof_C 	C 	0.9061	0.5134	0.6091	-0.094
Mof_H 	H 	0.9193	0.4897	0.566	0.033
Mof_C 	C 	0.8445	0.532	0.6131	-0.007
Mof_H 	H 	0.8171	0.5228	0.5721	0.014
Mof_C 	C 	0.827	0.5641	0.6801	-0.079
Mof_C 	C 	0.7594	0.5812	0.6949	0.402
Mof_Nd	Nd	0.17493	0.86106	0.86504	1.807
Mof_N 	N 	0.1354	0.9185	0.7383	-0.191
Mof_O 	O 	0.0669	0.8874	0.8619	-0.539
Mof_O 	O 	0.9826	0.9255	0.8015	-0.564
Mof_O 	O 	0.2509	0.8907	0.7613	-0.549
Mof_O 	O 	0.2786	0.9329	0.6438	-0.517
Mof_C 	C 	0.0382	0.918	0.8033	0.385
Mof_C 	C 	0.0767	0.9358	0.7346	-0.103
Mof_C 	C 	0.0536	0.9705	0.6673	0.002
Mof_H 	H 	0.0126	0.9813	0.6639	-0.001
Mof_C 	C 	0.0939	0.9866	0.6091	-0.091
Mof_H 	H 	0.0807	0.0103	0.566	0.032
Mof_C 	C 	0.1555	0.968	0.6131	-0.009
Mof_H 	H 	0.1829	0.9772	0.5721	0.015
Mof_C 	C 	0.173	0.9359	0.6801	-0.078
Mof_C 	C 	0.2406	0.9188	0.6949	0.401
Mof_Nd	Nd	0.67493	0.36106	0.36504	1.808
Mof_N 	N 	0.6354	0.4185	0.2383	-0.19
Mof_O 	O 	0.5669	0.3874	0.3619	-0.538
Mof_O 	O 	0.4826	0.4255	0.3015	-0.563
Mof_O 	O 	0.7509	0.3907	0.2613	-0.549
Mof_O 	O 	0.7786	0.4329	0.1438	-0.517
Mof_C 	C 	0.5382	0.418	0.3033	0.384
Mof_C 	C 	0.5767	0.4358	0.2346	-0.103
Mof_C 	C 	0.5536	0.4705	0.1673	0.003
Mof_H 	H 	0.5126	0.4813	0.1639	-0.002
Mof_C 	C 	0.5939	0.4866	0.1091	-0.094
Mof_H 	H 	0.5807	0.5103	0.066	0.033
Mof_C 	C 	0.6555	0.468	0.1131	-0.007
Mof_H 	H 	0.6829	0.4772	0.0721	0.014
Mof_C 	C 	0.673	0.4359	0.1801	-0.079
Mof_C 	C 	0.7406	0.4188	0.1949	0.402
Mof_Nd	Nd	0.11106	0.57507	0.88496	1.807
Mof_N 	N 	0.1685	0.6146	0.0117	-0.191
Mof_O 	O 	0.1374	0.6831	0.8881	-0.538
Mof_O 	O 	0.1755	0.7674	0.9485	-0.563
Mof_O 	O 	0.1407	0.4991	0.9887	-0.549
Mof_O 	O 	0.1829	0.4714	0.1062	-0.517
Mof_C 	C 	0.168	0.7118	0.9467	0.383
Mof_C 	C 	0.1858	0.6733	0.0154	-0.102
Mof_C 	C 	0.2205	0.6964	0.0827	0.002
Mof_H 	H 	0.2313	0.7374	0.0861	-0.001
Mof_C 	C 	0.2366	0.6561	0.1409	-0.093
Mof_H 	H 	0.2603	0.6693	0.184	0.033
Mof_C 	C 	0.218	0.5945	0.1369	-0.008
Mof_H 	H 	0.2272	0.5671	0.1779	0.014
Mof_C 	C 	0.1859	0.577	0.0699	-0.079
Mof_C 	C 	0.1688	0.5094	0.0551	0.401
Mof_Nd	Nd	0.61106	0.07507	0.38496	1.808
Mof_N 	N 	0.6685	0.1146	0.5117	-0.19
Mof_O 	O 	0.6374	0.1831	0.3881	-0.539
Mof_O 	O 	0.6755	0.2674	0.4485	-0.563
Mof_O 	O 	0.6407	0.9991	0.4887	-0.55
Mof_O 	O 	0.6829	0.9714	0.6062	-0.518
Mof_C 	C 	0.668	0.2118	0.4467	0.384
Mof_C 	C 	0.6858	0.1733	0.5154	-0.103
Mof_C 	C 	0.7205	0.1964	0.5827	0.003
Mof_H 	H 	0.7313	0.2374	0.5861	-0.002
Mof_C 	C 	0.7366	0.1561	0.6409	-0.094
Mof_H 	H 	0.7603	0.1693	0.684	0.033
Mof_C 	C 	0.718	0.0945	0.6369	-0.007
Mof_H 	H 	0.7272	0.0671	0.6779	0.014
Mof_C 	C 	0.6859	0.077	0.5699	-0.079
Mof_C 	C 	0.6688	0.0094	0.5551	0.403
Mof_Nd	Nd	0.38894	0.42493	0.38496	1.808
Mof_N 	N 	0.3315	0.3854	0.5117	-0.19
Mof_O 	O 	0.3626	0.3169	0.3881	-0.539
Mof_O 	O 	0.3245	0.2326	0.4485	-0.563
Mof_O 	O 	0.3593	0.5009	0.4887	-0.549
Mof_O 	O 	0.3171	0.5286	0.6062	-0.517
Mof_C 	C 	0.332	0.2882	0.4467	0.384
Mof_C 	C 	0.3142	0.3267	0.5154	-0.103
Mof_C 	C 	0.2795	0.3036	0.5827	0.003
Mof_H 	H 	0.2687	0.2626	0.5861	-0.002
Mof_C 	C 	0.2634	0.3439	0.6409	-0.094
Mof_H 	H 	0.2397	0.3307	0.684	0.033
Mof_C 	C 	0.282	0.4055	0.6369	-0.007
Mof_H 	H 	0.2728	0.4329	0.6779	0.014
Mof_C 	C 	0.3141	0.423	0.5699	-0.079
Mof_C 	C 	0.3312	0.4906	0.5551	0.402
Mof_Nd	Nd	0.88894	0.92493	0.88496	1.803
Mof_N 	N 	0.8315	0.8854	0.0117	-0.19
Mof_O 	O 	0.8626	0.8169	0.8881	-0.538
Mof_O 	O 	0.8245	0.7326	0.9485	-0.563
Mof_O 	O 	0.8593	0.0009	0.9887	-0.547
Mof_O 	O 	0.8171	0.0286	0.1062	-0.518
Mof_C 	C 	0.832	0.7882	0.9467	0.383
Mof_C 	C 	0.8142	0.8267	0.0154	-0.101
Mof_C 	C 	0.7795	0.8036	0.0827	0.002
Mof_H 	H 	0.7687	0.7626	0.0861	-0.001
Mof_C 	C 	0.7634	0.8439	0.1409	-0.093
Mof_H 	H 	0.7397	0.8307	0.184	0.033
Mof_C 	C 	0.782	0.9055	0.1369	-0.008
Mof_H 	H 	0.7728	0.9329	0.1779	0.014
Mof_C 	C 	0.8141	0.923	0.0699	-0.078
Mof_C 	C 	0.8312	0.9906	0.0551	0.402
Mof_Nd	Nd	0.67493	0.86106	0.63496	1.808
Mof_N 	N 	0.6354	0.9185	0.7617	-0.19
Mof_O 	O 	0.5669	0.8874	0.6381	-0.539
Mof_O 	O 	0.4826	0.9255	0.6985	-0.564
Mof_O 	O 	0.7509	0.8907	0.7387	-0.549
Mof_O 	O 	0.7786	0.9329	0.8562	-0.517
Mof_C 	C 	0.5382	0.918	0.6967	0.385
Mof_C 	C 	0.5767	0.9358	0.7654	-0.105
Mof_C 	C 	0.5536	0.9705	0.8327	0.007
Mof_H 	H 	0.5126	0.9813	0.8361	-0.004
Mof_C 	C 	0.5939	0.9866	0.8909	-0.102
Mof_H 	H 	0.5807	0.0103	0.934	0.038
Mof_C 	C 	0.6555	0.968	0.8869	-0.003
Mof_H 	H 	0.6829	0.9772	0.9279	0.012
Mof_C 	C 	0.673	0.9359	0.8199	-0.081
Mof_C 	C 	0.7406	0.9188	0.8051	0.402
Mof_Nd	Nd	0.17493	0.36106	0.13496	1.807
Mof_N 	N 	0.1354	0.4185	0.2617	-0.19
Mof_O 	O 	0.0669	0.3874	0.1381	-0.539
Mof_O 	O 	0.9826	0.4255	0.1985	-0.563
Mof_O 	O 	0.2509	0.3907	0.2387	-0.549
Mof_O 	O 	0.2786	0.4329	0.3562	-0.517
Mof_C 	C 	0.0382	0.418	0.1967	0.384
Mof_C 	C 	0.0767	0.4358	0.2654	-0.103
Mof_C 	C 	0.0536	0.4705	0.3327	0.003
Mof_H 	H 	0.0126	0.4813	0.3361	-0.002
Mof_C 	C 	0.0939	0.4866	0.3909	-0.094
Mof_H 	H 	0.0807	0.5103	0.434	0.033
Mof_C 	C 	0.1555	0.468	0.3869	-0.007
Mof_H 	H 	0.1829	0.4772	0.4279	0.014
Mof_C 	C 	0.173	0.4359	0.3199	-0.079
Mof_C 	C 	0.2406	0.4188	0.3051	0.402
Mof_Nd	Nd	0.82507	0.13894	0.13496	1.807
Mof_N 	N 	0.8646	0.0815	0.2617	-0.191
Mof_O 	O 	0.9331	0.1126	0.1381	-0.539
Mof_O 	O 	0.0174	0.0745	0.1985	-0.564
Mof_O 	O 	0.7491	0.1093	0.2387	-0.549
Mof_O 	O 	0.7214	0.0671	0.3562	-0.517
Mof_C 	C 	0.9618	0.082	0.1967	0.385
Mof_C 	C 	0.9233	0.0642	0.2654	-0.103
Mof_C 	C 	0.9464	0.0295	0.3327	0.002
Mof_H 	H 	0.9874	0.0187	0.3361	-0.001
Mof_C 	C 	0.9061	0.0134	0.3909	-0.091
Mof_H 	H 	0.9193	0.9897	0.434	0.032
Mof_C 	C 	0.8445	0.032	0.3869	-0.009
Mof_H 	H 	0.8171	0.0228	0.4279	0.015
Mof_C 	C 	0.827	0.0641	0.3199	-0.078
Mof_C 	C 	0.7594	0.0812	0.3051	0.401
Mof_Nd	Nd	0.32507	0.63894	0.63496	1.808
Mof_N 	N 	0.3646	0.5815	0.7617	-0.19
Mof_O 	O 	0.4331	0.6126	0.6381	-0.538
Mof_O 	O 	0.5174	0.5745	0.6985	-0.563
Mof_O 	O 	0.2491	0.6093	0.7387	-0.549
Mof_O 	O 	0.2214	0.5671	0.8562	-0.517
Mof_C 	C 	0.4618	0.582	0.6967	0.384
Mof_C 	C 	0.4233	0.5642	0.7654	-0.103
Mof_C 	C 	0.4464	0.5295	0.8327	0.003
Mof_H 	H 	0.4874	0.5187	0.8361	-0.002
Mof_C 	C 	0.4061	0.5134	0.8909	-0.094
Mof_H 	H 	0.4193	0.4897	0.934	0.033
Mof_C 	C 	0.3445	0.532	0.8869	-0.007
Mof_H 	H 	0.3171	0.5228	0.9279	0.014
Mof_C 	C 	0.327	0.5641	0.8199	-0.079
Mof_C 	C 	0.2594	0.5812	0.8051	0.402
_end
