data_functionalizedCrystal
_audit_creation_method	'EQeq! by Chris Wilmer'
_symmetry_space_group_name_H-M	'P1'
_symmetry_Int_Tables_number	1
_symmetry_cell_setting	triclinic
loop_
_symmetry_equiv_pos_as_xyz
  x,y,z
_cell_length_a	6.5528
_cell_length_b	16.4391
_cell_length_c	13.1381
_cell_angle_alpha	90
_cell_angle_beta	90
_cell_angle_gamma	90.5749
loop_
_atom_site_label
_atom_site_type_symbol
_atom_site_fract_x
_atom_site_fract_y
_atom_site_fract_z
_atom_site_charge
Mof_O 	O 	0.1577	0.17412	0.8532	-1.32
Mof_O 	O 	0.8188	0.6584	0.1663	-1.312
Mof_C 	C 	0.7983	0.0239	0.9499	-0.099
Mof_C 	C 	0.0006	0.0615	0.945	-0.042
Mof_C 	C 	0.0011	0.1371	0.8662	1.042
Mof_C 	C 	0.1957	0.5416	0.025	0.001
Mof_O 	O 	0.6577	0.67412	0.3532	-1.291
Mof_O 	O 	0.3188	0.1584	0.6663	-1.228
Mof_C 	C 	0.2983	0.5239	0.4499	0.072
Mof_C 	C 	0.5006	0.5615	0.445	-0.195
Mof_C 	C 	0.5011	0.6371	0.3662	0.91
Mof_C 	C 	0.6957	0.0416	0.525	0.021
Mof_O 	O 	0.8423	0.32588	0.8532	-1.256
Mof_O 	O 	0.1812	0.8416	0.1663	-1.138
Mof_C 	C 	0.2017	0.4761	0.9499	0.184
Mof_C 	C 	0.9994	0.4385	0.945	-0.352
Mof_C 	C 	0.9989	0.3629	0.8662	0.77
Mof_C 	C 	0.8043	0.9584	0.025	0.1
Mof_O 	O 	0.3423	0.82588	0.3532	-1.294
Mof_O 	O 	0.6812	0.3416	0.6663	-1.23
Mof_C 	C 	0.7017	0.9761	0.4499	0.003
Mof_C 	C 	0.4994	0.9385	0.445	-0.199
Mof_C 	C 	0.4989	0.8629	0.3662	0.913
Mof_C 	C 	0.3043	0.4584	0.525	0.085
Mof_O 	O 	0.8423	0.82588	0.1468	-1.256
Mof_O 	O 	0.1812	0.3416	0.8337	-1.139
Mof_C 	C 	0.2017	0.9761	0.0501	0.182
Mof_C 	C 	0.9994	0.9385	0.055	-0.351
Mof_C 	C 	0.9989	0.8629	0.1338	0.77
Mof_C 	C 	0.8043	0.4584	0.975	0.102
Mof_O 	O 	0.3423	0.32588	0.6468	-1.294
Mof_O 	O 	0.6812	0.8416	0.3337	-1.23
Mof_C 	C 	0.7017	0.4761	0.5501	0.007
Mof_C 	C 	0.4994	0.4385	0.555	-0.2
Mof_C 	C 	0.4989	0.3629	0.6338	0.913
Mof_C 	C 	0.3043	0.9584	0.475	0.081
Mof_O 	O 	0.1577	0.67412	0.1468	-1.32
Mof_O 	O 	0.8188	0.1584	0.8337	-1.311
Mof_C 	C 	0.7983	0.5239	0.0501	-0.103
Mof_C 	C 	0.0006	0.5615	0.055	-0.04
Mof_C 	C 	0.0011	0.6371	0.1338	1.043
Mof_C 	C 	0.1957	0.0416	0.975	0.003
Mof_O 	O 	0.6577	0.17412	0.6468	-1.291
Mof_O 	O 	0.3188	0.6584	0.3337	-1.227
Mof_C 	C 	0.2983	0.0239	0.5501	0.075
Mof_C 	C 	0.5006	0.0615	0.555	-0.197
Mof_C 	C 	0.5011	0.1371	0.6338	0.91
Mof_C 	C 	0.6957	0.5416	0.475	0.016
Mof_Al	Al	0.25	0.25	0.75	5.425
Mof_Al	Al	0.75	0.25	0.75	5.125
Mof_Al	Al	0.75	0.75	0.25	5.123
Mof_Al	Al	0.25	0.75	0.25	5.425
Mof_F 	F 	1.08998e-18	0.25	0.6896	-1.81
Mof_F 	F 	0.5	0.75	0.1896	-1.883
Mof_F 	F 	-8.37396e-19	0.75	0.3104	-1.809
Mof_F 	F 	0.5	0.25	0.8104	-1.884
_end
