data_functionalizedCrystal
_audit_creation_method	'EQeq! by Chris Wilmer'
_symmetry_space_group_name_H-M	'P1'
_symmetry_Int_Tables_number	1
_symmetry_cell_setting	triclinic
loop_
_symmetry_equiv_pos_as_xyz
  x,y,z
_cell_length_a	17.066
_cell_length_b	17.066
_cell_length_c	14.625
_cell_angle_alpha	90
_cell_angle_beta	90
_cell_angle_gamma	90
loop_
_atom_site_label
_atom_site_type_symbol
_atom_site_fract_x
_atom_site_fract_y
_atom_site_fract_z
_atom_site_charge
Mof_V 	V 	0.38949	0.37923	0.62762	1.807
Mof_V 	V 	0.46786	0.31311	0.41377	1.684
Mof_V 	V 	0.57029	0.43535	0.73354	1.735
Mof_V 	V 	0.55121	0.3181	0.58822	1.679
Mof_C 	C 	0.3052	0.1629	0.5705	0.037
Mof_H 	H 	0.3177	0.2134	0.5513	-0.04
Mof_C 	C 	0.3058	0.1053	0.5083	-0.127
Mof_H 	H 	0.3157	0.1177	0.4475	0.014
Mof_C 	C 	0.2924	0.0292	0.5311	0
Mof_C 	C 	0.2767	0.0134	0.6265	-0.002
Mof_H 	H 	0.2696	0.9624	0.6475	-0.09
Mof_C 	C 	0.2725	0.0774	0.6862	-0.028
Mof_H 	H 	0.2588	0.0686	0.7469	-0.029
Mof_C 	C 	0.3049	0.8284	0.4258	0.049
Mof_H 	H 	0.3196	0.7781	0.4432	-0.051
Mof_C 	C 	0.3108	0.8875	0.49	-0.176
Mof_H 	H 	0.3281	0.8768	0.549	0.009
Mof_C 	C 	0.2905	0.9632	0.4646	0.044
Mof_C 	C 	0.2637	0.9747	0.378	-0.309
Mof_H 	H 	0.2477	0.0241	0.3586	0.087
Mof_C 	C 	0.261	0.912	0.3203	0.126
Mof_H 	H 	0.2444	0.9217	0.2608	-0.106
Mof_N 	N 	0.2878	0.1521	0.6587	-0.219
Mof_N 	N 	0.161	0.2795	0.6596	-0.224
Mof_O 	O 	0.3323	0.3194	0.6824	-0.724
Mof_O 	O 	0.4429	0.3145	0.5382	-1.011
Mof_O 	O 	0.4943	0.3753	0.6776	-1.012
Mof_O 	O 	0.3222	0.4246	0.5376	-1.018
Mof_O 	O 	0.3749	0.4813	0.6791	-0.99
Mof_O 	O 	0.3792	0.3645	0.3771	-1.051
Mof_V 	V 	0.61051	0.62077	0.62762	1.807
Mof_V 	V 	0.53214	0.68689	0.41377	1.682
Mof_V 	V 	0.42971	0.56465	0.73354	1.735
Mof_V 	V 	0.44879	0.6819	0.58822	1.678
Mof_C 	C 	0.6948	0.8371	0.5705	0.049
Mof_H 	H 	0.6823	0.7866	0.5513	-0.047
Mof_C 	C 	0.6942	0.8947	0.5083	-0.157
Mof_H 	H 	0.6843	0.8823	0.4475	0.008
Mof_C 	C 	0.7076	0.9708	0.5311	0.008
Mof_C 	C 	0.7233	0.9866	0.6265	-0.257
Mof_H 	H 	0.7304	0.0376	0.6475	0.068
Mof_C 	C 	0.7275	0.9226	0.6862	0.072
Mof_H 	H 	0.7412	0.9314	0.7469	-0.085
Mof_C 	C 	0.6951	0.1716	0.4258	0.027
Mof_H 	H 	0.6804	0.2219	0.4432	-0.042
Mof_C 	C 	0.6892	0.1125	0.49	-0.134
Mof_H 	H 	0.6719	0.1232	0.549	0.009
Mof_C 	C 	0.7095	0.0368	0.4646	0.013
Mof_C 	C 	0.7363	0.0253	0.378	-0.026
Mof_H 	H 	0.7523	0.9759	0.3586	-0.089
Mof_C 	C 	0.739	0.088	0.3203	-0.008
Mof_H 	H 	0.7556	0.0783	0.2608	-0.041
Mof_N 	N 	0.7122	0.8479	0.6587	-0.242
Mof_N 	N 	0.839	0.7205	0.6596	-0.256
Mof_O 	O 	0.6677	0.6806	0.6824	-0.724
Mof_O 	O 	0.5571	0.6855	0.5382	-1.014
Mof_O 	O 	0.5057	0.6247	0.6776	-1.013
Mof_O 	O 	0.6778	0.5754	0.5376	-1.02
Mof_O 	O 	0.6251	0.5187	0.6791	-0.99
Mof_O 	O 	0.6208	0.6355	0.3771	-1.054
Mof_V 	V 	0.37923	0.61051	0.37238	1.807
Mof_V 	V 	0.31311	0.53214	0.58623	1.684
Mof_V 	V 	0.43535	0.42971	0.26646	1.735
Mof_V 	V 	0.3181	0.44879	0.41178	1.68
Mof_C 	C 	0.1629	0.6948	0.4295	0.036
Mof_H 	H 	0.2134	0.6823	0.4487	-0.04
Mof_C 	C 	0.1053	0.6942	0.4917	-0.129
Mof_H 	H 	0.1177	0.6843	0.5525	0.013
Mof_C 	C 	0.0292	0.7076	0.4689	-0.001
Mof_C 	C 	0.0134	0.7233	0.3735	-0.013
Mof_H 	H 	0.9624	0.7304	0.3525	-0.086
Mof_C 	C 	0.0774	0.7275	0.3138	-0.027
Mof_H 	H 	0.0686	0.7412	0.2531	-0.031
Mof_C 	C 	0.8284	0.6951	0.5742	0.046
Mof_H 	H 	0.7781	0.6804	0.5568	-0.05
Mof_C 	C 	0.8875	0.6892	0.51	-0.174
Mof_H 	H 	0.8768	0.6719	0.451	0.008
Mof_C 	C 	0.9632	0.7095	0.5354	0.038
Mof_C 	C 	0.9747	0.7363	0.622	-0.297
Mof_H 	H 	0.0241	0.7523	0.6414	0.075
Mof_C 	C 	0.912	0.739	0.6797	0.117
Mof_H 	H 	0.9217	0.7556	0.7392	-0.103
Mof_N 	N 	0.1521	0.7122	0.3413	-0.22
Mof_N 	N 	0.2795	0.839	0.3404	-0.257
Mof_O 	O 	0.3194	0.6677	0.3176	-0.724
Mof_O 	O 	0.3145	0.5571	0.4618	-1.011
Mof_O 	O 	0.3753	0.5057	0.3224	-1.012
Mof_O 	O 	0.4246	0.6778	0.4624	-1.02
Mof_O 	O 	0.4813	0.6251	0.3209	-0.99
Mof_O 	O 	0.3645	0.6208	0.6229	-1.052
Mof_V 	V 	0.62077	0.38949	0.37238	1.807
Mof_V 	V 	0.68689	0.46786	0.58623	1.682
Mof_V 	V 	0.56465	0.57029	0.26646	1.735
Mof_V 	V 	0.6819	0.55121	0.41178	1.678
Mof_C 	C 	0.8371	0.3052	0.4295	0.052
Mof_H 	H 	0.7866	0.3177	0.4487	-0.048
Mof_C 	C 	0.8947	0.3058	0.4917	-0.158
Mof_H 	H 	0.8823	0.3157	0.5525	0.009
Mof_C 	C 	0.9708	0.2924	0.4689	0.012
Mof_C 	C 	0.9866	0.2767	0.3735	-0.266
Mof_H 	H 	0.0376	0.2696	0.3525	0.077
Mof_C 	C 	0.9226	0.2725	0.3138	0.08
Mof_H 	H 	0.9314	0.2588	0.2531	-0.087
Mof_C 	C 	0.1716	0.3049	0.5742	0.027
Mof_H 	H 	0.2219	0.3196	0.5568	-0.041
Mof_C 	C 	0.1125	0.3108	0.51	-0.131
Mof_H 	H 	0.1232	0.3281	0.451	0.01
Mof_C 	C 	0.0368	0.2905	0.5354	0.013
Mof_C 	C 	0.0253	0.2637	0.622	-0.014
Mof_H 	H 	0.9759	0.2477	0.6414	-0.092
Mof_C 	C 	0.088	0.261	0.6797	-0.01
Mof_H 	H 	0.0783	0.2444	0.7392	-0.038
Mof_N 	N 	0.8479	0.2878	0.3413	-0.243
Mof_N 	N 	0.7205	0.161	0.3404	-0.226
Mof_O 	O 	0.6806	0.3323	0.3176	-0.724
Mof_O 	O 	0.6855	0.4429	0.4618	-1.014
Mof_O 	O 	0.6247	0.4943	0.3224	-1.013
Mof_O 	O 	0.5754	0.3222	0.4624	-1.018
Mof_O 	O 	0.5187	0.3749	0.3209	-0.989
Mof_O 	O 	0.6355	0.3792	0.6229	-1.053
Mof_V 	V 	0.88949	0.12077	0.12762	1.806
Mof_V 	V 	0.96786	0.18689	0.91377	1.663
Mof_V 	V 	0.07029	0.06465	0.23354	1.754
Mof_V 	V 	0.05121	0.1819	0.08822	1.698
Mof_C 	C 	0.8052	0.3371	0.0705	0.04
Mof_H 	H 	0.8177	0.2866	0.0513	-0.044
Mof_C 	C 	0.8058	0.3947	0.0083	-0.143
Mof_H 	H 	0.8157	0.3823	0.9475	0.007
Mof_C 	C 	0.7924	0.4708	0.0311	0.002
Mof_C 	C 	0.7767	0.4866	0.1265	-0.135
Mof_H 	H 	0.7696	0.5376	0.1475	-0.009
Mof_C 	C 	0.7725	0.4226	0.1862	0.022
Mof_H 	H 	0.7588	0.4314	0.2469	-0.059
Mof_C 	C 	0.8049	0.6716	0.9258	0.033
Mof_H 	H 	0.8196	0.7219	0.9432	-0.047
Mof_C 	C 	0.8108	0.6125	0.99	-0.154
Mof_H 	H 	0.8281	0.6232	0.049	0.003
Mof_C 	C 	0.7905	0.5368	0.9646	0.023
Mof_C 	C 	0.7637	0.5253	0.878	-0.162
Mof_H 	H 	0.7477	0.4759	0.8586	-0.005
Mof_C 	C 	0.761	0.588	0.8203	0.054
Mof_H 	H 	0.7444	0.5783	0.7608	-0.073
Mof_N 	N 	0.7878	0.3479	0.1587	-0.232
Mof_N 	N 	0.661	0.2205	0.1596	-0.24
Mof_O 	O 	0.8323	0.1806	0.1824	-0.725
Mof_O 	O 	0.9429	0.1855	0.0382	-1.031
Mof_O 	O 	0.9943	0.1247	0.1776	-1.051
Mof_O 	O 	0.8222	0.0754	0.0376	-1.004
Mof_O 	O 	0.8749	0.0187	0.1791	-0.976
Mof_O 	O 	0.8792	0.1355	0.8771	-1.056
Mof_V 	V 	0.11051	0.87923	0.12762	1.806
Mof_V 	V 	0.03214	0.81311	0.91377	1.7
Mof_V 	V 	0.92971	0.93535	0.23354	1.694
Mof_V 	V 	0.94879	0.8181	0.08822	1.66
Mof_C 	C 	0.1948	0.6629	0.0705	0.048
Mof_H 	H 	0.1823	0.7134	0.0513	-0.043
Mof_C 	C 	0.1942	0.6053	0.0083	-0.142
Mof_H 	H 	0.1843	0.6177	0.9475	0.015
Mof_C 	C 	0.2076	0.5292	0.0311	0.009
Mof_C 	C 	0.2233	0.5134	0.1265	-0.133
Mof_H 	H 	0.2304	0.4624	0.1475	-0.005
Mof_C 	C 	0.2275	0.5774	0.1862	0.028
Mof_H 	H 	0.2412	0.5686	0.2469	-0.057
Mof_C 	C 	0.1951	0.3284	0.9258	0.042
Mof_H 	H 	0.1804	0.2781	0.9432	-0.046
Mof_C 	C 	0.1892	0.3875	0.99	-0.154
Mof_H 	H 	0.1719	0.3768	0.049	0.015
Mof_C 	C 	0.2095	0.4632	0.9646	0.031
Mof_C 	C 	0.2363	0.4747	0.878	-0.161
Mof_H 	H 	0.2523	0.5241	0.8586	-0.002
Mof_C 	C 	0.239	0.412	0.8203	0.061
Mof_H 	H 	0.2556	0.4217	0.7608	-0.071
Mof_N 	N 	0.2122	0.6521	0.1587	-0.231
Mof_N 	N 	0.339	0.7795	0.1596	-0.241
Mof_O 	O 	0.1677	0.8194	0.1824	-0.724
Mof_O 	O 	0.0571	0.8145	0.0382	-0.997
Mof_O 	O 	0.0057	0.8753	0.1776	-0.998
Mof_O 	O 	0.1778	0.9246	0.0376	-1.037
Mof_O 	O 	0.1251	0.9813	0.1791	-1.027
Mof_O 	O 	0.1208	0.8645	0.8771	-1.054
Mof_V 	V 	0.87923	0.88949	0.87238	1.804
Mof_V 	V 	0.81311	0.96786	0.08623	1.664
Mof_V 	V 	0.93535	0.07029	0.76646	1.721
Mof_V 	V 	0.8181	0.05121	0.91178	1.695
Mof_C 	C 	0.6629	0.8052	0.9295	0.04
Mof_H 	H 	0.7134	0.8177	0.9487	-0.044
Mof_C 	C 	0.6053	0.8058	0.9917	-0.143
Mof_H 	H 	0.6177	0.8157	0.0525	0.006
Mof_C 	C 	0.5292	0.7924	0.9689	0.002
Mof_C 	C 	0.5134	0.7767	0.8735	-0.135
Mof_H 	H 	0.4624	0.7696	0.8525	-0.009
Mof_C 	C 	0.5774	0.7725	0.8138	0.022
Mof_H 	H 	0.5686	0.7588	0.7531	-0.059
Mof_C 	C 	0.3284	0.8049	0.0742	0.033
Mof_H 	H 	0.2781	0.8196	0.0568	-0.047
Mof_C 	C 	0.3875	0.8108	0.01	-0.154
Mof_H 	H 	0.3768	0.8281	0.951	0.004
Mof_C 	C 	0.4632	0.7905	0.0354	0.023
Mof_C 	C 	0.4747	0.7637	0.122	-0.162
Mof_H 	H 	0.5241	0.7477	0.1414	-0.006
Mof_C 	C 	0.412	0.761	0.1797	0.054
Mof_H 	H 	0.4217	0.7444	0.2392	-0.073
Mof_N 	N 	0.6521	0.7878	0.8413	-0.232
Mof_N 	N 	0.7795	0.661	0.8404	-0.241
Mof_O 	O 	0.8194	0.8323	0.8176	-0.727
Mof_O 	O 	0.8145	0.9429	0.9618	-1.033
Mof_O 	O 	0.8753	0.9943	0.8224	-1.062
Mof_O 	O 	0.9246	0.8222	0.9624	-1.039
Mof_O 	O 	0.9813	0.8749	0.8209	-1.037
Mof_O 	O 	0.8645	0.8792	0.1229	-1.072
Mof_V 	V 	0.12077	0.11051	0.87238	1.808
Mof_V 	V 	0.18689	0.03214	0.08623	1.703
Mof_V 	V 	0.06465	0.92971	0.76646	1.72
Mof_V 	V 	0.1819	0.94879	0.91178	1.66
Mof_C 	C 	0.3371	0.1948	0.9295	0.049
Mof_H 	H 	0.2866	0.1823	0.9487	-0.043
Mof_C 	C 	0.3947	0.1942	0.9917	-0.144
Mof_H 	H 	0.3823	0.1843	0.0525	0.016
Mof_C 	C 	0.4708	0.2076	0.9689	0.009
Mof_C 	C 	0.4866	0.2233	0.8735	-0.133
Mof_H 	H 	0.5376	0.2304	0.8525	-0.005
Mof_C 	C 	0.4226	0.2275	0.8138	0.028
Mof_H 	H 	0.4314	0.2412	0.7531	-0.057
Mof_C 	C 	0.6716	0.1951	0.0742	0.042
Mof_H 	H 	0.7219	0.1804	0.0568	-0.045
Mof_C 	C 	0.6125	0.1892	0.01	-0.153
Mof_H 	H 	0.6232	0.1719	0.951	0.014
Mof_C 	C 	0.5368	0.2095	0.0354	0.031
Mof_C 	C 	0.5253	0.2363	0.122	-0.161
Mof_H 	H 	0.4759	0.2523	0.1414	-0.002
Mof_C 	C 	0.588	0.239	0.1797	0.061
Mof_H 	H 	0.5783	0.2556	0.2392	-0.071
Mof_N 	N 	0.3479	0.2122	0.8413	-0.231
Mof_N 	N 	0.2205	0.339	0.8404	-0.241
Mof_O 	O 	0.1806	0.1677	0.8176	-0.722
Mof_O 	O 	0.1855	0.0571	0.9618	-0.992
Mof_O 	O 	0.1247	0.0057	0.8224	-0.979
Mof_O 	O 	0.0754	0.1778	0.9624	-0.999
Mof_O 	O 	0.0187	0.1251	0.8209	-0.958
Mof_O 	O 	0.1355	0.1208	0.1229	-1.034
Mof_Co	Co	0.2548	0.2452	0.75	1.16
Mof_Co	Co	0.7452	0.7548	0.75	1.159
Mof_Co	Co	0.2452	0.7452	0.25	1.16
Mof_Co	Co	0.7548	0.2548	0.25	1.16
Mof_O 	O 	0.5	0.5	0.798	-0.051
Mof_O 	O 	0.5	0.5	0.7046	-0.63
Mof_O 	O 	0.5	0.5	0.772	-0.51
Mof_O 	O 	0.5	0.5	0.202	-0.051
Mof_O 	O 	0.5	0.5	0.2954	-0.63
Mof_O 	O 	0.5	0.5	0.228	-0.51
Mof_O 	O 	9.57507e-34	0	0.298	-0.063
Mof_O 	O 	6.57403e-34	0	0.2046	-0.588
Mof_O 	O 	3.83717e-33	2.9632e-33	0.272	-0.452
Mof_O 	O 	2.2556e-33	-5.9264e-33	0.702	-0.062
Mof_O 	O 	-3.37069e-33	0	0.7954	-0.589
Mof_O 	O 	2.33915e-33	-5.9264e-33	0.728	-0.452
_end
