data_functionalizedCrystal
_audit_creation_method	'EQeq! by Chris Wilmer'
_symmetry_space_group_name_H-M	'P1'
_symmetry_Int_Tables_number	1
_symmetry_cell_setting	triclinic
loop_
_symmetry_equiv_pos_as_xyz
  x,y,z
_cell_length_a	8.2508
_cell_length_b	8.2508
_cell_length_c	18.745
_cell_angle_alpha	90
_cell_angle_beta	90
_cell_angle_gamma	120
loop_
_atom_site_label
_atom_site_type_symbol
_atom_site_fract_x
_atom_site_fract_y
_atom_site_fract_z
_atom_site_charge
Mof_S 	S 	0.3454	0.163	0.4285	-0.182
Mof_C 	C 	0.3302	0.3236	0.3805	0.086
Mof_N 	N 	0.3257	0.4331	0.3452	-0.27
Mof_S 	S 	0.837	0.1824	0.4285	-0.123
Mof_C 	C 	0.6764	0.0066	0.3805	0.041
Mof_N 	N 	0.5669	0.8926	0.3452	-0.23
Mof_S 	S 	0.8176	0.6546	0.4285	-0.135
Mof_C 	C 	0.9934	0.6698	0.3805	0.148
Mof_N 	N 	0.1074	0.6743	0.3452	-0.298
Mof_S 	S 	0.6546	0.837	0.9285	-0.09
Mof_C 	C 	0.6698	0.6764	0.8805	0.095
Mof_N 	N 	0.6743	0.5669	0.8452	-0.259
Mof_S 	S 	0.163	0.8176	0.9285	-0.146
Mof_C 	C 	0.3236	0.9934	0.8805	0.141
Mof_N 	N 	0.4331	0.1074	0.8452	-0.299
Mof_S 	S 	0.1824	0.3454	0.9285	-0.136
Mof_C 	C 	0.0066	0.3302	0.8805	0.033
Mof_N 	N 	0.8926	0.3257	0.8452	-0.23
Mof_S 	S 	0.6546	0.837	0.5715	-0.114
Mof_C 	C 	0.6698	0.6764	0.6195	0.094
Mof_N 	N 	0.6743	0.5669	0.6548	-0.261
Mof_S 	S 	0.163	0.8176	0.5715	-0.171
Mof_C 	C 	0.3236	0.9934	0.6195	0.142
Mof_N 	N 	0.4331	0.1074	0.6548	-0.302
Mof_S 	S 	0.1824	0.3454	0.5715	-0.161
Mof_C 	C 	0.0066	0.3302	0.6195	0.032
Mof_N 	N 	0.8926	0.3257	0.6548	-0.232
Mof_S 	S 	0.3454	0.163	0.0715	-0.193
Mof_C 	C 	0.3302	0.3236	0.1195	0.085
Mof_N 	N 	0.3257	0.4331	0.1548	-0.272
Mof_S 	S 	0.837	0.1824	0.0715	-0.133
Mof_C 	C 	0.6764	0.0066	0.1195	0.04
Mof_N 	N 	0.5669	0.8926	0.1548	-0.232
Mof_S 	S 	0.8176	0.6546	0.0715	-0.145
Mof_C 	C 	0.9934	0.6698	0.1195	0.147
Mof_N 	N 	0.1074	0.6743	0.1548	-0.3
Mof_Bi	Bi	-1.14212e-32	2.28424e-32	0.5	0.488
Mof_Bi	Bi	-0	0	-0	0.44
Mof_La	La	0.33333	0.66667	0.25	1.448
Mof_La	La	0.66667	0.33333	0.75	1.454
_end
