data_functionalizedCrystal
_audit_creation_method	'EQeq! by Chris Wilmer'
_symmetry_space_group_name_H-M	'P1'
_symmetry_Int_Tables_number	1
_symmetry_cell_setting	triclinic
loop_
_symmetry_equiv_pos_as_xyz
  x,y,z
_cell_length_a	9.555
_cell_length_b	15.6644
_cell_length_c	10.0249
_cell_angle_alpha	100.696
_cell_angle_beta	90
_cell_angle_gamma	90
loop_
_atom_site_label
_atom_site_type_symbol
_atom_site_fract_x
_atom_site_fract_y
_atom_site_fract_z
_atom_site_charge
Mof_Co	Co	0.58117	0.08551	0.64298	1.117
Mof_Co	Co	0.91883	0.08551	0.14298	1.115
Mof_Co	Co	0.08117	0.91449	0.85702	1.115
Mof_Co	Co	0.41883	0.91449	0.35702	1.117
Mof_H 	H 	0.1261	0.4192	0.6176	0.051
Mof_H 	H 	0.8739	0.5808	0.3824	0.051
Mof_H 	H 	0.2331	0.0775	0.442	0.123
Mof_H 	H 	0.698	0.1241	0.9439	-0.016
Mof_H 	H 	0.2784	0.6417	0.3702	0.057
Mof_H 	H 	0.3866	0.1214	0.8877	0.155
Mof_H 	H 	0.7784	0.3583	0.1298	0.057
Mof_H 	H 	0.198	0.8759	0.5561	-0.016
Mof_H 	H 	0.6134	0.8786	0.1123	0.155
Mof_H 	H 	0.2216	0.6417	0.8702	0.057
Mof_H 	H 	0.5205	0.6448	0.0465	0.056
Mof_H 	H 	0.1134	0.1214	0.3877	0.155
Mof_H 	H 	0.4795	0.3552	0.9535	0.056
Mof_H 	H 	0.9795	0.6448	0.5465	0.058
Mof_H 	H 	0.3739	0.4192	0.1176	0.051
Mof_H 	H 	0.7331	0.9225	0.058	0.124
Mof_H 	H 	0.2669	0.0775	0.942	0.124
Mof_H 	H 	0.302	0.8759	0.0561	-0.015
Mof_H 	H 	0.7216	0.3583	0.6298	0.057
Mof_H 	H 	0.2468	0.4923	0.8047	0.043
Mof_H 	H 	0.7532	0.5077	0.1953	0.043
Mof_H 	H 	0.7468	0.5077	0.6953	0.044
Mof_H 	H 	0.7669	0.9225	0.558	0.124
Mof_H 	H 	0.802	0.1241	0.4439	-0.016
Mof_H 	H 	0.8866	0.8786	0.6123	0.155
Mof_H 	H 	0.2532	0.4923	0.3047	0.044
Mof_H 	H 	0.0205	0.3552	0.4535	0.058
Mof_H 	H 	0.6261	0.5808	0.8824	0.051
Mof_C 	C 	0.0394	0.5238	0.5589	0.015
Mof_C 	C 	0.5864	0.2461	0.7492	0.3
Mof_C 	C 	0.1869	0.026	0.2578	0.179
Mof_C 	C 	0.0864	0.7539	0.7508	0.3
Mof_C 	C 	0.6197	0.5206	0.86	-0.064
Mof_C 	C 	0.1778	0.6125	0.7921	-0.03
Mof_C 	C 	0.8131	0.974	0.7422	0.179
Mof_C 	C 	0.5319	0.3868	0.9014	-0.048
Mof_C 	C 	0.4136	0.7539	0.2508	0.3
Mof_C 	C 	0.0319	0.6132	0.5986	-0.05
Mof_C 	C 	0.4681	0.6132	0.0986	-0.048
Mof_C 	C 	0.9681	0.3868	0.4014	-0.05
Mof_C 	C 	0.1197	0.4794	0.64	-0.065
Mof_C 	C 	0.3803	0.4794	0.14	-0.064
Mof_C 	C 	0.8092	0.4769	0.2458	-0.029
Mof_C 	C 	0.247	0.9234	0.6032	0.089
Mof_C 	C 	0.3222	0.6125	0.2921	-0.029
Mof_C 	C 	0.6869	0.974	0.2422	0.181
Mof_C 	C 	0.6778	0.3875	0.7079	-0.029
Mof_C 	C 	0.8803	0.5206	0.36	-0.065
Mof_C 	C 	0.8222	0.3875	0.2079	-0.03
Mof_C 	C 	0.9606	0.4762	0.4411	0.015
Mof_C 	C 	0.0995	0.6573	0.7132	-0.054
Mof_C 	C 	0.4005	0.6573	0.2132	-0.054
Mof_C 	C 	0.4606	0.5238	0.0589	0.014
Mof_C 	C 	0.753	0.0766	0.3968	0.089
Mof_C 	C 	0.3092	0.5231	0.2542	-0.029
Mof_C 	C 	0.747	0.0766	0.8968	0.09
Mof_C 	C 	0.5394	0.4762	0.9411	0.014
Mof_C 	C 	0.3131	0.026	0.7578	0.181
Mof_C 	C 	0.9136	0.2461	0.2492	0.3
Mof_C 	C 	0.1908	0.5231	0.7542	-0.029
Mof_C 	C 	0.5995	0.3427	0.7868	-0.054
Mof_C 	C 	0.253	0.9234	0.1032	0.09
Mof_C 	C 	0.6908	0.4769	0.7458	-0.029
Mof_C 	C 	0.9005	0.3427	0.2868	-0.054
Mof_N 	N 	0.1039	0.0276	0.1514	-0.269
Mof_N 	N 	0.3503	0.9596	0.5505	-0.249
Mof_N 	N 	0.2829	0.961	0.2329	-0.287
Mof_N 	N 	0.6039	0.9724	0.3486	-0.269
Mof_N 	N 	0.7171	0.039	0.7671	-0.287
Mof_N 	N 	0.1766	0.0817	0.3768	-0.342
Mof_N 	N 	0.7829	0.039	0.2671	-0.289
Mof_N 	N 	0.8503	0.0404	0.9495	-0.247
Mof_N 	N 	0.3961	0.0276	0.6514	-0.269
Mof_N 	N 	0.8234	0.9183	0.6232	-0.342
Mof_N 	N 	0.8961	0.9724	0.8486	-0.269
Mof_N 	N 	0.3234	0.0817	0.8768	-0.342
Mof_N 	N 	0.2171	0.961	0.7329	-0.289
Mof_N 	N 	0.6766	0.9183	0.1232	-0.342
Mof_N 	N 	0.6497	0.0404	0.4495	-0.249
Mof_N 	N 	0.1497	0.9596	0.0505	-0.247
Mof_O 	O 	0.0291	0.79565	0.6723	-0.37
Mof_O 	O 	0.3648	0.7921	0.3646	-0.428
Mof_O 	O 	0.9709	0.20435	0.3277	-0.37
Mof_O 	O 	0.6352	0.2079	0.6354	-0.428
Mof_O 	O 	0.1352	0.7921	0.8646	-0.43
Mof_O 	O 	0.8648	0.2079	0.1354	-0.43
Mof_O 	O 	0.4709	0.79565	0.1723	-0.369
Mof_O 	O 	0.5291	0.20435	0.8277	-0.369
_end
