data_functionalizedCrystal
_audit_creation_method	'EQeq! by Chris Wilmer'
_symmetry_space_group_name_H-M	'P1'
_symmetry_Int_Tables_number	1
_symmetry_cell_setting	triclinic
loop_
_symmetry_equiv_pos_as_xyz
  x,y,z
_cell_length_a	11.3346
_cell_length_b	15.368
_cell_length_c	11.167
_cell_angle_alpha	90
_cell_angle_beta	90.949
_cell_angle_gamma	90
loop_
_atom_site_label
_atom_site_type_symbol
_atom_site_fract_x
_atom_site_fract_y
_atom_site_fract_z
_atom_site_charge
Mof_K 	K 	0.28584	0.07458	0.01047	1.99
Mof_O 	O 	0.472	0.85193	0.3997	-0.685
Mof_O 	O 	0.62	0.93693	0.3455	-0.768
Mof_O 	O 	0.6477	0.8565	0.7734	-0.727
Mof_O 	O 	0.5887	0.93739	0.6208	-0.743
Mof_C 	C 	0.7221	0.7514	0.3797	0.017
Mof_H 	H 	0.7034	0.7524	0.2983	-0.12
Mof_C 	C 	0.6673	0.81	0.4554	-0.208
Mof_C 	C 	0.6956	0.8091	0.5774	-0.247
Mof_C 	C 	0.5777	0.8706	0.3993	0.441
Mof_C 	C 	0.6411	0.8713	0.6645	0.415
Mof_K 	K 	0.78584	0.57458	0.01047	2.153
Mof_O 	O 	0.972	0.35193	0.3997	-0.596
Mof_O 	O 	0.12	0.43693	0.3455	-0.749
Mof_O 	O 	0.1477	0.3565	0.7734	-0.736
Mof_O 	O 	0.0887	0.43739	0.6208	-0.764
Mof_C 	C 	0.2221	0.2514	0.3797	-0.003
Mof_H 	H 	0.2034	0.2524	0.2983	-0.12
Mof_C 	C 	0.1673	0.31	0.4554	-0.188
Mof_C 	C 	0.1956	0.3091	0.5774	-0.264
Mof_C 	C 	0.0777	0.3706	0.3993	0.324
Mof_C 	C 	0.1411	0.3713	0.6645	0.408
Mof_K 	K 	0.71416	0.07458	0.48953	2.166
Mof_O 	O 	0.528	0.85193	0.1003	-0.692
Mof_O 	O 	0.38	0.93693	0.1545	-0.76
Mof_O 	O 	0.3523	0.8565	0.7266	-0.716
Mof_O 	O 	0.4113	0.93739	0.8792	-0.74
Mof_C 	C 	0.2779	0.7514	0.1203	0.021
Mof_H 	H 	0.2966	0.7524	0.2017	-0.124
Mof_C 	C 	0.3327	0.81	0.0446	-0.205
Mof_C 	C 	0.3044	0.8091	0.9226	-0.25
Mof_C 	C 	0.4223	0.8706	0.1007	0.445
Mof_C 	C 	0.3589	0.8713	0.8355	0.402
Mof_K 	K 	0.21416	0.57458	0.48953	2.033
Mof_O 	O 	0.028	0.35193	0.1003	-0.784
Mof_O 	O 	0.88	0.43693	0.1545	-0.78
Mof_O 	O 	0.8523	0.3565	0.7266	-0.7
Mof_O 	O 	0.9113	0.43739	0.8792	-0.701
Mof_C 	C 	0.7779	0.2514	0.1203	0.066
Mof_H 	H 	0.7966	0.2524	0.2017	-0.134
Mof_C 	C 	0.8327	0.31	0.0446	-0.261
Mof_C 	C 	0.8044	0.3091	0.9226	-0.2
Mof_C 	C 	0.9223	0.3706	0.1007	0.565
Mof_C 	C 	0.8589	0.3713	0.8355	0.398
Mof_K 	K 	0.71416	0.92542	0.98953	2.133
Mof_O 	O 	0.528	0.14807	0.6003	-0.703
Mof_O 	O 	0.38	0.06307	0.6545	-0.768
Mof_O 	O 	0.3523	0.1435	0.2266	-0.713
Mof_O 	O 	0.4113	0.06261	0.3792	-0.735
Mof_C 	C 	0.2779	0.2486	0.6203	0.041
Mof_H 	H 	0.2966	0.2476	0.7017	-0.131
Mof_C 	C 	0.3327	0.19	0.5446	-0.235
Mof_C 	C 	0.3044	0.1909	0.4226	-0.223
Mof_C 	C 	0.4223	0.1294	0.6007	0.453
Mof_C 	C 	0.3589	0.1287	0.3355	0.394
Mof_K 	K 	0.21416	0.42542	0.98953	2.019
Mof_O 	O 	0.028	0.64807	0.6003	-0.794
Mof_O 	O 	0.88	0.56307	0.6545	-0.779
Mof_O 	O 	0.8523	0.6435	0.2266	-0.703
Mof_O 	O 	0.9113	0.56261	0.3792	-0.702
Mof_C 	C 	0.7779	0.7486	0.6203	0.063
Mof_H 	H 	0.7966	0.7476	0.7017	-0.133
Mof_C 	C 	0.8327	0.69	0.5446	-0.258
Mof_C 	C 	0.8044	0.6909	0.4226	-0.205
Mof_C 	C 	0.9223	0.6294	0.6007	0.572
Mof_C 	C 	0.8589	0.6287	0.3355	0.4
Mof_K 	K 	0.28584	0.92542	0.51047	1.991
Mof_O 	O 	0.472	0.14807	0.8997	-0.683
Mof_O 	O 	0.62	0.06307	0.8455	-0.765
Mof_O 	O 	0.6477	0.1435	0.2734	-0.73
Mof_O 	O 	0.5887	0.06261	0.1208	-0.744
Mof_C 	C 	0.7221	0.2486	0.8797	0.013
Mof_H 	H 	0.7034	0.2476	0.7983	-0.119
Mof_C 	C 	0.6673	0.19	0.9554	-0.199
Mof_C 	C 	0.6956	0.1909	0.0774	-0.254
Mof_C 	C 	0.5777	0.1294	0.8993	0.44
Mof_C 	C 	0.6411	0.1287	0.1645	0.418
Mof_K 	K 	0.78584	0.42542	0.51047	2.13
Mof_O 	O 	0.972	0.64807	0.8997	-0.597
Mof_O 	O 	0.12	0.56307	0.8455	-0.751
Mof_O 	O 	0.1477	0.6435	0.2734	-0.734
Mof_O 	O 	0.0887	0.56261	0.1208	-0.757
Mof_C 	C 	0.2221	0.7486	0.8797	0.016
Mof_H 	H 	0.2034	0.7476	0.7983	-0.127
Mof_C 	C 	0.1673	0.69	0.9554	-0.212
Mof_C 	C 	0.1956	0.6909	0.0774	-0.237
Mof_C 	C 	0.0777	0.6294	0.8993	0.325
Mof_C 	C 	0.1411	0.6287	0.1645	0.401
Mof_Co	Co	0.5	0.00282	0.25	1.096
Mof_Co	Co	4.56667e-19	0.50282	0.25	1.056
Mof_Co	Co	0.5	0.99718	0.75	1.097
Mof_Co	Co	1.82667e-18	0.49718	0.75	1.054
_end
