data_functionalizedCrystal
_audit_creation_method	'EQeq! by Chris Wilmer'
_symmetry_space_group_name_H-M	'P1'
_symmetry_Int_Tables_number	1
_symmetry_cell_setting	triclinic
loop_
_symmetry_equiv_pos_as_xyz
  x,y,z
_cell_length_a	22.773
_cell_length_b	22.773
_cell_length_c	12.668
_cell_angle_alpha	90
_cell_angle_beta	90
_cell_angle_gamma	90
loop_
_atom_site_label
_atom_site_type_symbol
_atom_site_fract_x
_atom_site_fract_y
_atom_site_fract_z
_atom_site_charge
Mof_Cu	Cu	0.7109	0.58873	0.41497	0.853
Mof_Cu	Cu	0.54563	0.63252	0.25894	0.834
Mof_Cu	Cu	0.55784	0.18421	0.16905	0.826
Mof_Cu	Cu	0.62092	0.37015	0.01178	0.823
Mof_N 	N 	0.71406	0.58872	0.5725	-0.234
Mof_N 	N 	0.62873	0.61195	0.4516	-0.206
Mof_N 	N 	0.57898	0.62803	0.4023	-0.218
Mof_N 	N 	0.56147	0.62989	0.578	-0.146
Mof_N 	N 	0.47006	0.65777	0.3457	-0.213
Mof_N 	N 	0.3825	0.6822	0.4937	-0.124
Mof_N 	N 	0.79542	0.57176	0.4414	-0.204
Mof_N 	N 	0.86999	0.56782	0.5575	-0.134
Mof_N 	N 	0.84509	0.56634	0.3848	-0.218
Mof_N 	N 	0.9529	0.53878	0.3176	-0.193
Mof_N 	N 	0.05235	0.56107	0.4394	-0.2
Mof_N 	N 	0.7261	0.66112	0.2172	-0.199
Mof_N 	N 	0.71531	0.60916	0.2636	-0.22
Mof_N 	N 	0.71578	0.59371	0.0887	-0.216
Mof_H 	H 	0.7137	0.5774	0.0275	0.117
Mof_N 	N 	0.69368	0.49554	0.3138	-0.176
Mof_N 	N 	0.67912	0.41022	0.1575	-0.178
Mof_C 	C 	0.5731	0.2583	0.1045	-0.203
Mof_N 	N 	0.5211	0.0724	0.0535	-0.234
Mof_N 	N 	0.6587	0.4069	0.8933	-0.206
Mof_C 	C 	0.76454	0.5762	0.6208	0.04
Mof_C 	C 	0.7671	0.5682	0.7289	-0.14
Mof_H 	H 	0.8023	0.5594	0.7625	0.08
Mof_C 	C 	0.7153	0.5738	0.7853	0.015
Mof_H 	H 	0.7155	0.5666	0.8575	0.014
Mof_C 	C 	0.6626	0.59	0.7362	-0.14
Mof_H 	H 	0.6282	0.5955	0.7745	0.078
Mof_C 	C 	0.6645	0.5975	0.6266	0.04
Mof_C 	C 	0.61629	0.6132	0.5562	0.053
Mof_C 	C 	0.53997	0.63831	0.4795	0.041
Mof_C 	C 	0.48056	0.65611	0.4507	-0.017
Mof_C 	C 	0.4364	0.6691	0.5231	-0.002
Mof_H 	H 	0.4453	0.6684	0.5948	0.02
Mof_C 	C 	0.3719	0.6819	0.3907	-0.039
Mof_H 	H 	0.3339	0.6892	0.3673	0.001
Mof_C 	C 	0.4152	0.6711	0.3171	0.003
Mof_H 	H 	0.4059	0.6731	0.2457	-0.023
Mof_C 	C 	0.81212	0.572	0.5434	0.061
Mof_C 	C 	0.88885	0.56406	0.4558	0.074
Mof_C 	C 	0.94862	0.55727	0.4185	-0.012
Mof_C 	C 	0.0075	0.5302	0.281	-0.01
Mof_H 	H 	0.0124	0.517	0.212	-0.039
Mof_C 	C 	0.0563	0.5401	0.3414	-0.005
Mof_H 	H 	0.0932	0.5319	0.3135	0.011
Mof_C 	C 	0.99864	0.5692	0.4779	0.048
Mof_H 	H 	0.9944	0.5833	0.5464	0.01
Mof_C 	C 	0.7379	0.6998	0.0443	-0.027
Mof_C 	C 	0.7383	0.6983	0.9369	-0.022
Mof_H 	H 	0.73	0.6613	0.9003	0.042
Mof_C 	C 	0.7747	0.7445	0.8834	-0.035
Mof_H 	H 	0.7995	0.7389	0.821	0.044
Mof_C 	C 	0.7261	0.65003	0.1139	0.087
Mof_C 	C 	0.70948	0.56965	0.1853	0.079
Mof_C 	C 	0.69803	0.50885	0.2107	-0.022
Mof_C 	C 	0.69201	0.4659	0.1345	0.012
Mof_H 	H 	0.6972	0.4762	0.064	0.007
Mof_C 	C 	0.675	0.3978	0.2596	-0.003
Mof_H 	H 	0.6662	0.3595	0.2796	0.008
Mof_C 	C 	0.6834	0.4393	0.3367	-0.006
Mof_H 	H 	0.6818	0.4279	0.4071	-0.001
Mof_N 	N 	0.589	0.2999	0.069	-0.218
Mof_C 	C 	0.5331	0.1159	0.0931	-0.199
Mof_C 	C 	0.673	0.4256	0.8178	-0.181
Mof_Cu	Cu	0.7891	0.91127	0.41497	0.857
Mof_Cu	Cu	0.95437	0.86748	0.25894	0.842
Mof_Cu	Cu	0.94216	0.31579	0.16905	0.83
Mof_Cu	Cu	0.87908	0.12985	0.01178	0.825
Mof_N 	N 	0.78594	0.91128	0.5725	-0.232
Mof_N 	N 	0.87127	0.88805	0.4516	-0.203
Mof_N 	N 	0.92102	0.87197	0.4023	-0.217
Mof_N 	N 	0.93853	0.87011	0.578	-0.143
Mof_N 	N 	0.02994	0.84223	0.3457	-0.214
Mof_N 	N 	0.1175	0.8178	0.4937	-0.127
Mof_N 	N 	0.70458	0.92824	0.4414	-0.202
Mof_N 	N 	0.63001	0.93218	0.5575	-0.131
Mof_N 	N 	0.65491	0.93366	0.3848	-0.216
Mof_N 	N 	0.5471	0.96122	0.3176	-0.208
Mof_N 	N 	0.44765	0.93893	0.4394	-0.179
Mof_N 	N 	0.7739	0.83888	0.2172	-0.199
Mof_N 	N 	0.78469	0.89084	0.2636	-0.217
Mof_N 	N 	0.78422	0.90629	0.0887	-0.214
Mof_H 	H 	0.7863	0.9226	0.0275	0.119
Mof_N 	N 	0.80632	0.00446	0.3138	-0.199
Mof_N 	N 	0.82088	0.08978	0.1575	-0.17
Mof_C 	C 	0.9269	0.2417	0.1045	-0.195
Mof_N 	N 	0.9789	0.4276	0.0535	-0.223
Mof_N 	N 	0.8413	0.0931	0.8933	-0.206
Mof_C 	C 	0.73546	0.9238	0.6208	0.045
Mof_C 	C 	0.7329	0.9318	0.7289	-0.139
Mof_H 	H 	0.6977	0.9406	0.7625	0.084
Mof_C 	C 	0.7847	0.9262	0.7853	0.019
Mof_H 	H 	0.7845	0.9334	0.8575	0.017
Mof_C 	C 	0.8374	0.91	0.7362	-0.139
Mof_H 	H 	0.8718	0.9045	0.7745	0.082
Mof_C 	C 	0.8355	0.9025	0.6266	0.044
Mof_C 	C 	0.88371	0.8868	0.5562	0.056
Mof_C 	C 	0.96003	0.86169	0.4795	0.071
Mof_C 	C 	0.01944	0.84389	0.4507	-0.046
Mof_C 	C 	0.0636	0.8309	0.5231	0.01
Mof_H 	H 	0.0547	0.8316	0.5948	0.011
Mof_C 	C 	0.1281	0.8181	0.3907	-0.037
Mof_H 	H 	0.1661	0.8108	0.3673	0
Mof_C 	C 	0.0848	0.8289	0.3171	0.001
Mof_H 	H 	0.0941	0.8269	0.2457	-0.025
Mof_C 	C 	0.68788	0.928	0.5434	0.064
Mof_C 	C 	0.61115	0.93594	0.4558	0.073
Mof_C 	C 	0.55138	0.94273	0.4185	-0.001
Mof_C 	C 	0.4925	0.9698	0.281	0.03
Mof_H 	H 	0.4876	0.983	0.212	-0.038
Mof_C 	C 	0.4437	0.9599	0.3414	-0.015
Mof_H 	H 	0.4068	0.9681	0.3135	0.021
Mof_C 	C 	0.50136	0.9308	0.4779	0.015
Mof_H 	H 	0.5056	0.9167	0.5464	0.017
Mof_C 	C 	0.7621	0.8002	0.0443	-0.028
Mof_C 	C 	0.7617	0.8017	0.9369	-0.022
Mof_H 	H 	0.77	0.8387	0.9003	0.042
Mof_C 	C 	0.7253	0.7555	0.8834	-0.034
Mof_H 	H 	0.7005	0.7611	0.821	0.044
Mof_C 	C 	0.7739	0.84997	0.1139	0.087
Mof_C 	C 	0.79052	0.93035	0.1853	0.068
Mof_C 	C 	0.80197	0.99115	0.2107	0.032
Mof_C 	C 	0.80799	0.0341	0.1345	-0.034
Mof_H 	H 	0.8028	0.0238	0.064	0.014
Mof_C 	C 	0.825	0.1022	0.2596	-0.01
Mof_H 	H 	0.8338	0.1405	0.2796	0.011
Mof_C 	C 	0.8166	0.0607	0.3367	-0.001
Mof_H 	H 	0.8182	0.0721	0.4071	-0.004
Mof_N 	N 	0.911	0.2001	0.069	-0.217
Mof_C 	C 	0.9669	0.3841	0.0931	-0.188
Mof_C 	C 	0.827	0.0744	0.8178	-0.187
Mof_Cu	Cu	0.41127	0.2109	0.91497	0.858
Mof_Cu	Cu	0.36748	0.04563	0.75894	0.83
Mof_Cu	Cu	0.81579	0.05784	0.66905	0.826
Mof_Cu	Cu	0.62985	0.12092	0.51178	0.828
Mof_N 	N 	0.41128	0.21406	0.0725	-0.239
Mof_N 	N 	0.38805	0.12873	0.9516	-0.195
Mof_N 	N 	0.37197	0.07898	0.9023	-0.215
Mof_N 	N 	0.37011	0.06147	0.078	-0.151
Mof_N 	N 	0.34223	0.97006	0.8457	-0.213
Mof_N 	N 	0.3178	0.8825	0.9937	-0.103
Mof_N 	N 	0.42824	0.29542	0.9414	-0.194
Mof_N 	N 	0.43218	0.36999	0.0575	-0.142
Mof_N 	N 	0.43366	0.34509	0.8848	-0.22
Mof_N 	N 	0.46122	0.4529	0.8176	-0.208
Mof_N 	N 	0.43893	0.55235	0.9394	-0.185
Mof_N 	N 	0.33888	0.2261	0.7172	-0.198
Mof_N 	N 	0.39084	0.21531	0.7636	-0.22
Mof_N 	N 	0.40629	0.21578	0.5887	-0.215
Mof_H 	H 	0.4226	0.2137	0.5275	0.122
Mof_N 	N 	0.50446	0.19368	0.8138	-0.174
Mof_N 	N 	0.58978	0.17912	0.6575	-0.177
Mof_C 	C 	0.7417	0.0731	0.6045	-0.205
Mof_N 	N 	0.9276	0.0211	0.5535	-0.224
Mof_N 	N 	0.5931	0.1587	0.3933	-0.214
Mof_C 	C 	0.4238	0.26454	0.1208	0.045
Mof_C 	C 	0.4318	0.2671	0.2289	-0.146
Mof_H 	H 	0.4406	0.3023	0.2625	0.081
Mof_C 	C 	0.4262	0.2153	0.2853	0.019
Mof_H 	H 	0.4334	0.2155	0.3575	0.008
Mof_C 	C 	0.41	0.1626	0.2362	-0.145
Mof_H 	H 	0.4045	0.1282	0.2745	0.077
Mof_C 	C 	0.4025	0.1645	0.1266	0.043
Mof_C 	C 	0.3868	0.11629	0.0562	0.038
Mof_C 	C 	0.36169	0.03997	0.9795	0.021
Mof_C 	C 	0.34389	0.98056	0.9507	0.041
Mof_C 	C 	0.3309	0.9364	0.0231	-0.061
Mof_H 	H 	0.3316	0.9453	0.0948	0.041
Mof_C 	C 	0.3181	0.8719	0.8907	-0.043
Mof_H 	H 	0.3108	0.8339	0.8673	0.005
Mof_C 	C 	0.3289	0.9152	0.8171	0.011
Mof_H 	H 	0.3269	0.9059	0.7457	-0.021
Mof_C 	C 	0.428	0.31212	0.0434	0.044
Mof_C 	C 	0.43594	0.38885	0.9558	0.091
Mof_C 	C 	0.44273	0.44862	0.9185	-0.018
Mof_C 	C 	0.4698	0.5075	0.781	0.025
Mof_H 	H 	0.483	0.5124	0.712	-0.043
Mof_C 	C 	0.4599	0.5563	0.8414	-0.015
Mof_H 	H 	0.4681	0.5932	0.8135	0.016
Mof_C 	C 	0.4308	0.49864	0.9779	0.052
Mof_H 	H 	0.4167	0.4944	0.0464	-0.01
Mof_C 	C 	0.3002	0.2379	0.5443	0.004
Mof_C 	C 	0.3017	0.2383	0.4369	-0.06
Mof_H 	H 	0.3387	0.23	0.4003	0.05
Mof_C 	C 	0.2555	0.2747	0.3834	-0.023
Mof_H 	H 	0.2611	0.2995	0.321	0.04
Mof_C 	C 	0.34997	0.2261	0.6139	0.081
Mof_C 	C 	0.43035	0.20948	0.6853	0.08
Mof_C 	C 	0.49115	0.19803	0.7107	-0.021
Mof_C 	C 	0.5341	0.19201	0.6345	0.011
Mof_H 	H 	0.5238	0.1972	0.564	0.011
Mof_C 	C 	0.6022	0.175	0.7596	-0.002
Mof_H 	H 	0.6405	0.1662	0.7796	0.01
Mof_C 	C 	0.5607	0.1834	0.8367	-0.005
Mof_H 	H 	0.5721	0.1818	0.9071	0.005
Mof_N 	N 	0.7001	0.089	0.569	-0.217
Mof_C 	C 	0.8841	0.0331	0.5931	-0.2
Mof_C 	C 	0.5744	0.173	0.3178	-0.185
Mof_Cu	Cu	0.08873	0.2891	0.91497	0.854
Mof_Cu	Cu	0.13252	0.45437	0.75894	0.835
Mof_Cu	Cu	0.68421	0.44216	0.66905	0.828
Mof_Cu	Cu	0.87015	0.37908	0.51178	0.831
Mof_N 	N 	0.08872	0.28594	0.0725	-0.241
Mof_N 	N 	0.11195	0.37127	0.9516	-0.197
Mof_N 	N 	0.12803	0.42102	0.9023	-0.219
Mof_N 	N 	0.12989	0.43853	0.078	-0.151
Mof_N 	N 	0.15777	0.52994	0.8457	-0.216
Mof_N 	N 	0.1822	0.6175	0.9937	-0.107
Mof_N 	N 	0.07176	0.20458	0.9414	-0.198
Mof_N 	N 	0.06782	0.13001	0.0575	-0.144
Mof_N 	N 	0.06634	0.15491	0.8848	-0.221
Mof_N 	N 	0.03878	0.0471	0.8176	-0.231
Mof_N 	N 	0.06107	0.94765	0.9394	-0.169
Mof_N 	N 	0.16112	0.2739	0.7172	-0.197
Mof_N 	N 	0.10916	0.28469	0.7636	-0.224
Mof_N 	N 	0.09371	0.28422	0.5887	-0.219
Mof_H 	H 	0.0774	0.2863	0.5275	0.12
Mof_N 	N 	0.99554	0.30632	0.8138	-0.147
Mof_N 	N 	0.91022	0.32088	0.6575	-0.185
Mof_C 	C 	0.7583	0.4269	0.6045	-0.197
Mof_N 	N 	0.5724	0.4789	0.5535	-0.228
Mof_N 	N 	0.9069	0.3413	0.3933	-0.212
Mof_C 	C 	0.0762	0.23546	0.1208	0.04
Mof_C 	C 	0.0682	0.2329	0.2289	-0.148
Mof_H 	H 	0.0594	0.1977	0.2625	0.076
Mof_C 	C 	0.0738	0.2847	0.2853	0.017
Mof_H 	H 	0.0666	0.2845	0.3575	0.005
Mof_C 	C 	0.09	0.3374	0.2362	-0.147
Mof_H 	H 	0.0955	0.3718	0.2745	0.078
Mof_C 	C 	0.0975	0.3355	0.1266	0.041
Mof_C 	C 	0.1132	0.38371	0.0562	0.035
Mof_C 	C 	0.13831	0.46003	0.9795	0.049
Mof_C 	C 	0.15611	0.51944	0.9507	0.007
Mof_C 	C 	0.1691	0.5636	0.0231	-0.047
Mof_H 	H 	0.1684	0.5547	0.0948	0.031
Mof_C 	C 	0.1819	0.6281	0.8907	-0.042
Mof_H 	H 	0.1892	0.6661	0.8673	0.004
Mof_C 	C 	0.1711	0.5848	0.8171	0.008
Mof_H 	H 	0.1731	0.5941	0.7457	-0.023
Mof_C 	C 	0.072	0.18788	0.0434	0.042
Mof_C 	C 	0.06406	0.11115	0.9558	0.081
Mof_C 	C 	0.05727	0.05138	0.9185	-0.013
Mof_C 	C 	0.0302	0.9925	0.781	0.061
Mof_H 	H 	0.017	0.9876	0.712	-0.052
Mof_C 	C 	0.0401	0.9437	0.8414	-0.033
Mof_H 	H 	0.0319	0.9068	0.8135	0.017
Mof_C 	C 	0.0692	0.00136	0.9779	0.007
Mof_H 	H 	0.0833	0.0056	0.0464	-0.006
Mof_C 	C 	0.1998	0.2621	0.5443	0.004
Mof_C 	C 	0.1983	0.2617	0.4369	-0.06
Mof_H 	H 	0.1613	0.27	0.4003	0.05
Mof_C 	C 	0.2445	0.2253	0.3834	-0.022
Mof_H 	H 	0.2389	0.2005	0.321	0.04
Mof_C 	C 	0.15003	0.2739	0.6139	0.08
Mof_C 	C 	0.06965	0.29052	0.6853	0.092
Mof_C 	C 	0.00885	0.30197	0.7107	-0.082
Mof_C 	C 	0.9659	0.30799	0.6345	0.062
Mof_H 	H 	0.9762	0.3028	0.564	0.003
Mof_C 	C 	0.8978	0.325	0.7596	0.007
Mof_H 	H 	0.8595	0.3338	0.7796	0.008
Mof_C 	C 	0.9393	0.3166	0.8367	-0.01
Mof_H 	H 	0.9279	0.3182	0.9071	0.009
Mof_N 	N 	0.7999	0.411	0.569	-0.215
Mof_C 	C 	0.6159	0.4669	0.5931	-0.192
Mof_C 	C 	0.9256	0.327	0.3178	-0.175
Mof_Cu	Cu	0.2891	0.41127	0.58503	0.854
Mof_Cu	Cu	0.45437	0.36748	0.74106	0.836
Mof_Cu	Cu	0.44216	0.81579	0.83095	0.829
Mof_Cu	Cu	0.37908	0.62985	0.98822	0.836
Mof_N 	N 	0.28594	0.41128	0.4275	-0.234
Mof_N 	N 	0.37127	0.38805	0.5484	-0.205
Mof_N 	N 	0.42102	0.37197	0.5977	-0.217
Mof_N 	N 	0.43853	0.37011	0.422	-0.145
Mof_N 	N 	0.52994	0.34223	0.6543	-0.211
Mof_N 	N 	0.6175	0.3178	0.5063	-0.124
Mof_N 	N 	0.20458	0.42824	0.5586	-0.204
Mof_N 	N 	0.13001	0.43218	0.4425	-0.134
Mof_N 	N 	0.15491	0.43366	0.6152	-0.217
Mof_N 	N 	0.0471	0.46122	0.6824	-0.23
Mof_N 	N 	0.94765	0.43893	0.5606	-0.163
Mof_N 	N 	0.2739	0.33888	0.7828	-0.197
Mof_N 	N 	0.28469	0.39084	0.7364	-0.221
Mof_N 	N 	0.28422	0.40629	0.9113	-0.214
Mof_H 	H 	0.2863	0.4226	0.9725	0.127
Mof_N 	N 	0.30632	0.50446	0.6862	-0.176
Mof_N 	N 	0.32088	0.58978	0.8425	-0.175
Mof_C 	C 	0.4269	0.7417	0.8955	-0.194
Mof_N 	N 	0.4789	0.9276	0.9465	-0.215
Mof_N 	N 	0.3413	0.5931	0.1067	-0.219
Mof_C 	C 	0.23546	0.4238	0.3792	0.041
Mof_C 	C 	0.2329	0.4318	0.2711	-0.144
Mof_H 	H 	0.1977	0.4406	0.2375	0.079
Mof_C 	C 	0.2847	0.4262	0.2147	0.019
Mof_H 	H 	0.2845	0.4334	0.1425	0.004
Mof_C 	C 	0.3374	0.41	0.2638	-0.144
Mof_H 	H 	0.3718	0.4045	0.2255	0.078
Mof_C 	C 	0.3355	0.4025	0.3734	0.041
Mof_C 	C 	0.38371	0.3868	0.4438	0.052
Mof_C 	C 	0.46003	0.36169	0.5205	0.041
Mof_C 	C 	0.51944	0.34389	0.5493	-0.017
Mof_C 	C 	0.5636	0.3309	0.4769	-0.002
Mof_H 	H 	0.5547	0.3316	0.4052	0.019
Mof_C 	C 	0.6281	0.3181	0.6093	-0.038
Mof_H 	H 	0.6661	0.3108	0.6327	0.002
Mof_C 	C 	0.5848	0.3289	0.6829	0.002
Mof_H 	H 	0.5941	0.3269	0.7543	-0.019
Mof_C 	C 	0.18788	0.428	0.4566	0.06
Mof_C 	C 	0.11115	0.43594	0.5442	0.065
Mof_C 	C 	0.05138	0.44273	0.5815	0.004
Mof_C 	C 	0.9925	0.4698	0.719	0.065
Mof_H 	H 	0.9876	0.483	0.788	-0.045
Mof_C 	C 	0.9437	0.4599	0.6586	-0.032
Mof_H 	H 	0.9068	0.4681	0.6865	0.023
Mof_C 	C 	0.00136	0.4308	0.5221	-0.026
Mof_H 	H 	0.0056	0.4167	0.4536	0.019
Mof_C 	C 	0.2621	0.3002	0.9557	0.032
Mof_C 	C 	0.2617	0.3017	0.0631	-0.095
Mof_H 	H 	0.27	0.3387	0.0997	0.058
Mof_C 	C 	0.2253	0.2555	0.1166	-0.011
Mof_H 	H 	0.2005	0.2611	0.179	0.036
Mof_C 	C 	0.2739	0.34997	0.8861	0.076
Mof_C 	C 	0.29052	0.43035	0.8147	0.081
Mof_C 	C 	0.30197	0.49115	0.7893	-0.021
Mof_C 	C 	0.30799	0.5341	0.8655	0.01
Mof_H 	H 	0.3028	0.5238	0.936	0.015
Mof_C 	C 	0.325	0.6022	0.7404	-0.003
Mof_H 	H 	0.3338	0.6405	0.7204	0.009
Mof_C 	C 	0.3166	0.5607	0.6633	-0.005
Mof_H 	H 	0.3182	0.5721	0.5929	-0.001
Mof_N 	N 	0.411	0.7001	0.931	-0.213
Mof_C 	C 	0.4669	0.8841	0.9069	-0.186
Mof_C 	C 	0.327	0.5744	0.1822	-0.185
Mof_Cu	Cu	0.2109	0.08873	0.58503	0.85
Mof_Cu	Cu	0.04563	0.13252	0.74106	0.829
Mof_Cu	Cu	0.05784	0.68421	0.83095	0.825
Mof_Cu	Cu	0.12092	0.87015	0.98822	0.835
Mof_N 	N 	0.21406	0.08872	0.4275	-0.235
Mof_N 	N 	0.12873	0.11195	0.5484	-0.207
Mof_N 	N 	0.07898	0.12803	0.5977	-0.216
Mof_N 	N 	0.06147	0.12989	0.422	-0.147
Mof_N 	N 	0.97006	0.15777	0.6543	-0.208
Mof_N 	N 	0.8825	0.1822	0.5063	-0.121
Mof_N 	N 	0.29542	0.07176	0.5586	-0.207
Mof_N 	N 	0.36999	0.06782	0.4425	-0.138
Mof_N 	N 	0.34509	0.06634	0.6152	-0.22
Mof_N 	N 	0.4529	0.03878	0.6824	-0.214
Mof_N 	N 	0.55235	0.06107	0.5606	-0.185
Mof_N 	N 	0.2261	0.16112	0.7828	-0.197
Mof_N 	N 	0.21531	0.10916	0.7364	-0.224
Mof_N 	N 	0.21578	0.09371	0.9113	-0.218
Mof_H 	H 	0.2137	0.0774	0.9725	0.125
Mof_N 	N 	0.19368	0.99554	0.6862	-0.149
Mof_N 	N 	0.17912	0.91022	0.8425	-0.184
Mof_C 	C 	0.0731	0.7583	0.8955	-0.202
Mof_N 	N 	0.0211	0.5724	0.9465	-0.227
Mof_N 	N 	0.1587	0.9069	0.1067	-0.219
Mof_C 	C 	0.26454	0.0762	0.3792	0.037
Mof_C 	C 	0.2671	0.0682	0.2711	-0.145
Mof_H 	H 	0.3023	0.0594	0.2375	0.074
Mof_C 	C 	0.2153	0.0738	0.2147	0.014
Mof_H 	H 	0.2155	0.0666	0.1425	0.002
Mof_C 	C 	0.1626	0.09	0.2638	-0.145
Mof_H 	H 	0.1282	0.0955	0.2255	0.074
Mof_C 	C 	0.1645	0.0975	0.3734	0.036
Mof_C 	C 	0.11629	0.1132	0.4438	0.05
Mof_C 	C 	0.03997	0.13831	0.5205	0.011
Mof_C 	C 	0.98056	0.15611	0.5493	0.016
Mof_C 	C 	0.9364	0.1691	0.4769	-0.015
Mof_H 	H 	0.9453	0.1684	0.4052	0.029
Mof_C 	C 	0.8719	0.1819	0.6093	-0.039
Mof_H 	H 	0.8339	0.1892	0.6327	0.003
Mof_C 	C 	0.9152	0.1711	0.6829	0.004
Mof_H 	H 	0.9059	0.1731	0.7543	-0.017
Mof_C 	C 	0.31212	0.072	0.4566	0.057
Mof_C 	C 	0.38885	0.06406	0.5442	0.066
Mof_C 	C 	0.44862	0.05727	0.5815	-0.007
Mof_C 	C 	0.5075	0.0302	0.719	0.023
Mof_H 	H 	0.5124	0.017	0.788	-0.047
Mof_C 	C 	0.5563	0.0401	0.6586	-0.021
Mof_H 	H 	0.5932	0.0319	0.6865	0.012
Mof_C 	C 	0.49864	0.0692	0.5221	0.008
Mof_H 	H 	0.4944	0.0833	0.4536	0.012
Mof_C 	C 	0.2379	0.1998	0.9557	0.032
Mof_C 	C 	0.2383	0.1983	0.0631	-0.095
Mof_H 	H 	0.23	0.1613	0.0997	0.058
Mof_C 	C 	0.2747	0.2445	0.1166	-0.012
Mof_H 	H 	0.2995	0.2389	0.179	0.036
Mof_C 	C 	0.2261	0.15003	0.8861	0.075
Mof_C 	C 	0.20948	0.06965	0.8147	0.093
Mof_C 	C 	0.19803	0.00885	0.7893	-0.081
Mof_C 	C 	0.19201	0.9659	0.8655	0.06
Mof_H 	H 	0.1972	0.9762	0.936	0.007
Mof_C 	C 	0.175	0.8978	0.7404	0.005
Mof_H 	H 	0.1662	0.8595	0.7204	0.006
Mof_C 	C 	0.1834	0.9393	0.6633	-0.01
Mof_H 	H 	0.1818	0.9279	0.5929	0.003
Mof_N 	N 	0.089	0.7999	0.931	-0.214
Mof_C 	C 	0.0331	0.6159	0.9069	-0.198
Mof_C 	C 	0.173	0.9256	0.1822	-0.178
Mof_Cu	Cu	0.58873	0.7891	0.08503	0.849
Mof_Cu	Cu	0.63252	0.95437	0.24106	0.841
Mof_Cu	Cu	0.18421	0.94216	0.33095	0.83
Mof_Cu	Cu	0.37015	0.87908	0.48822	0.832
Mof_N 	N 	0.58872	0.78594	0.9275	-0.227
Mof_N 	N 	0.61195	0.87127	0.0484	-0.215
Mof_N 	N 	0.62803	0.92102	0.0977	-0.219
Mof_N 	N 	0.62989	0.93853	0.922	-0.138
Mof_N 	N 	0.65777	0.02994	0.1543	-0.21
Mof_N 	N 	0.6822	0.1175	0.0063	-0.146
Mof_N 	N 	0.57176	0.70458	0.0586	-0.215
Mof_N 	N 	0.56782	0.63001	0.9425	-0.126
Mof_N 	N 	0.56634	0.65491	0.1152	-0.216
Mof_N 	N 	0.53878	0.5471	0.1824	-0.215
Mof_N 	N 	0.56107	0.44765	0.0606	-0.178
Mof_N 	N 	0.66112	0.7739	0.2828	-0.198
Mof_N 	N 	0.60916	0.78469	0.2364	-0.221
Mof_N 	N 	0.59371	0.78422	0.4113	-0.215
Mof_H 	H 	0.5774	0.7863	0.4725	0.122
Mof_N 	N 	0.49554	0.80632	0.1862	-0.177
Mof_N 	N 	0.41022	0.82088	0.3425	-0.176
Mof_C 	C 	0.2583	0.9269	0.3955	-0.191
Mof_N 	N 	0.0724	0.9789	0.4465	-0.222
Mof_N 	N 	0.4069	0.8413	0.6067	-0.212
Mof_C 	C 	0.5762	0.73546	0.8792	0.037
Mof_C 	C 	0.5682	0.7329	0.7711	-0.138
Mof_H 	H 	0.5594	0.6977	0.7375	0.078
Mof_C 	C 	0.5738	0.7847	0.7147	0.014
Mof_H 	H 	0.5666	0.7845	0.6425	0.01
Mof_C 	C 	0.59	0.8374	0.7638	-0.138
Mof_H 	H 	0.5955	0.8718	0.7255	0.079
Mof_C 	C 	0.5975	0.8355	0.8734	0.038
Mof_C 	C 	0.6132	0.88371	0.9438	0.07
Mof_C 	C 	0.63831	0.96003	0.0205	0.06
Mof_C 	C 	0.65611	0.01944	0.0493	-0.073
Mof_C 	C 	0.6691	0.0636	0.9769	0.058
Mof_H 	H 	0.6684	0.0547	0.9052	-0.002
Mof_C 	C 	0.6819	0.1281	0.1093	-0.033
Mof_H 	H 	0.6892	0.1661	0.1327	-0.002
Mof_C 	C 	0.6711	0.0848	0.1829	-0.006
Mof_H 	H 	0.6731	0.0941	0.2543	-0.021
Mof_C 	C 	0.572	0.68788	0.9566	0.078
Mof_C 	C 	0.56406	0.61115	0.0442	0.048
Mof_C 	C 	0.55727	0.55138	0.0815	0.011
Mof_C 	C 	0.5302	0.4925	0.219	0.029
Mof_H 	H 	0.517	0.4876	0.288	-0.045
Mof_C 	C 	0.5401	0.4437	0.1586	-0.022
Mof_H 	H 	0.5319	0.4068	0.1865	0.017
Mof_C 	C 	0.5692	0.50136	0.0221	-0.03
Mof_H 	H 	0.5833	0.5056	0.9536	0.04
Mof_C 	C 	0.6998	0.7621	0.4557	0.004
Mof_C 	C 	0.6983	0.7617	0.5631	-0.06
Mof_H 	H 	0.6613	0.77	0.5997	0.05
Mof_C 	C 	0.7445	0.7253	0.6166	-0.023
Mof_H 	H 	0.7389	0.7005	0.679	0.04
Mof_C 	C 	0.65003	0.7739	0.3861	0.081
Mof_C 	C 	0.56965	0.79052	0.3147	0.079
Mof_C 	C 	0.50885	0.80197	0.2893	-0.022
Mof_C 	C 	0.4659	0.80799	0.3655	0.01
Mof_H 	H 	0.4762	0.8028	0.436	0.011
Mof_C 	C 	0.3978	0.825	0.2404	-0.004
Mof_H 	H 	0.3595	0.8338	0.2204	0.007
Mof_C 	C 	0.4393	0.8166	0.1633	-0.005
Mof_H 	H 	0.4279	0.8182	0.0929	-0.007
Mof_N 	N 	0.2999	0.911	0.431	-0.214
Mof_C 	C 	0.1159	0.9669	0.4069	-0.185
Mof_C 	C 	0.4256	0.827	0.6822	-0.181
Mof_Cu	Cu	0.91127	0.7109	0.08503	0.852
Mof_Cu	Cu	0.86748	0.54563	0.24106	0.837
Mof_Cu	Cu	0.31579	0.55784	0.33095	0.827
Mof_Cu	Cu	0.12985	0.62092	0.48822	0.829
Mof_N 	N 	0.91128	0.71406	0.9275	-0.225
Mof_N 	N 	0.88805	0.62873	0.0484	-0.214
Mof_N 	N 	0.87197	0.57898	0.0977	-0.215
Mof_N 	N 	0.87011	0.56147	0.922	-0.138
Mof_N 	N 	0.84223	0.47006	0.1543	-0.206
Mof_N 	N 	0.8178	0.3825	0.0063	-0.144
Mof_N 	N 	0.92824	0.79542	0.0586	-0.213
Mof_N 	N 	0.93218	0.86999	0.9425	-0.123
Mof_N 	N 	0.93366	0.84509	0.1152	-0.214
Mof_N 	N 	0.96122	0.9529	0.1824	-0.195
Mof_N 	N 	0.93893	0.05235	0.0606	-0.191
Mof_N 	N 	0.83888	0.7261	0.2828	-0.198
Mof_N 	N 	0.89084	0.71531	0.2364	-0.217
Mof_N 	N 	0.90629	0.71578	0.4113	-0.212
Mof_H 	H 	0.9226	0.7137	0.4725	0.125
Mof_N 	N 	0.00446	0.69368	0.1862	-0.201
Mof_N 	N 	0.08978	0.67912	0.3425	-0.169
Mof_C 	C 	0.2417	0.5731	0.3955	-0.199
Mof_N 	N 	0.4276	0.5211	0.4465	-0.228
Mof_N 	N 	0.0931	0.6587	0.6067	-0.214
Mof_C 	C 	0.9238	0.76454	0.8792	0.041
Mof_C 	C 	0.9318	0.7671	0.7711	-0.136
Mof_H 	H 	0.9406	0.8023	0.7375	0.082
Mof_C 	C 	0.9262	0.7153	0.7147	0.017
Mof_H 	H 	0.9334	0.7155	0.6425	0.013
Mof_C 	C 	0.91	0.6626	0.7638	-0.135
Mof_H 	H 	0.9045	0.6282	0.7255	0.078
Mof_C 	C 	0.9025	0.6645	0.8734	0.039
Mof_C 	C 	0.8868	0.61629	0.9438	0.073
Mof_C 	C 	0.86169	0.53997	0.0205	0.035
Mof_C 	C 	0.84389	0.48056	0.0493	-0.043
Mof_C 	C 	0.8309	0.4364	0.9769	0.049
Mof_H 	H 	0.8316	0.4453	0.9052	0.007
Mof_C 	C 	0.8181	0.3719	0.1093	-0.034
Mof_H 	H 	0.8108	0.3339	0.1327	-0.002
Mof_C 	C 	0.8289	0.4152	0.1829	-0.004
Mof_H 	H 	0.8269	0.4059	0.2543	-0.019
Mof_C 	C 	0.928	0.81212	0.9566	0.082
Mof_C 	C 	0.93594	0.88885	0.0442	0.054
Mof_C 	C 	0.94273	0.94862	0.0815	0.008
Mof_C 	C 	0.9698	0.0075	0.219	-0.002
Mof_H 	H 	0.983	0.0124	0.288	-0.033
Mof_C 	C 	0.9599	0.0563	0.1586	-0.006
Mof_H 	H 	0.9681	0.0932	0.1865	0.017
Mof_C 	C 	0.9308	0.99864	0.0221	0.005
Mof_H 	H 	0.9167	0.9944	0.9536	0.041
Mof_C 	C 	0.8002	0.7379	0.4557	0.004
Mof_C 	C 	0.8017	0.7383	0.5631	-0.06
Mof_H 	H 	0.8387	0.73	0.5997	0.05
Mof_C 	C 	0.7555	0.7747	0.6166	-0.023
Mof_H 	H 	0.7611	0.7995	0.679	0.039
Mof_C 	C 	0.84997	0.7261	0.3861	0.082
Mof_C 	C 	0.93035	0.70948	0.3147	0.069
Mof_C 	C 	0.99115	0.69803	0.2893	0.033
Mof_C 	C 	0.0341	0.69201	0.3655	-0.036
Mof_H 	H 	0.0238	0.6972	0.436	0.018
Mof_C 	C 	0.1022	0.675	0.2404	-0.012
Mof_H 	H 	0.1405	0.6662	0.2204	0.009
Mof_C 	C 	0.0607	0.6834	0.1633	-0.001
Mof_H 	H 	0.0721	0.6818	0.0929	-0.01
Mof_N 	N 	0.2001	0.589	0.431	-0.216
Mof_C 	C 	0.3841	0.5331	0.4069	-0.193
Mof_C 	C 	0.0744	0.673	0.6822	-0.191
Mof_Cu	Cu	0.75	0.75	0.25	0.864
Mof_Cu	Cu	0.25	0.25	0.75	0.864
Mof_Cu	Cu	0.5	0	-0	0.798
Mof_Cu	Cu	-0	0.5	-0	0.798
Mof_Cu	Cu	-8.78352e-34	0	0.5	0.793
Mof_Cu	Cu	0.5	0.5	0.5	0.816
Mof_N 	N 	0.75	0.75	0.0943	-0.22
Mof_N 	N 	0.25	0.25	0.5943	-0.229
Mof_N 	N 	0.25	0.25	0.9057	-0.237
Mof_N 	N 	0.75	0.75	0.4057	-0.229
_end
