data_functionalizedCrystal
_audit_creation_method	'EQeq! by Chris Wilmer'
_symmetry_space_group_name_H-M	'P1'
_symmetry_Int_Tables_number	1
_symmetry_cell_setting	triclinic
loop_
_symmetry_equiv_pos_as_xyz
  x,y,z
_cell_length_a	20.656
_cell_length_b	7.259
_cell_length_c	15.55
_cell_angle_alpha	90
_cell_angle_beta	90
_cell_angle_gamma	90
loop_
_atom_site_label
_atom_site_type_symbol
_atom_site_fract_x
_atom_site_fract_y
_atom_site_fract_z
_atom_site_charge
Mof_N 	N 	0.4312	0.3461	0.4446	-0.192
Mof_C 	C 	0.3859	0.5936	0.608	0.1
Mof_H 	H 	0.3754	0.4716	0.6193	-0.002
Mof_C 	C 	0.255	0.615	0.689	0.01
Mof_C 	C 	0.296	0.622	0.757	-0.153
Mof_H 	H 	0.2689	0.5033	0.6617	0.028
Mof_H 	H 	0.3313	0.541	0.7717	0.091
Mof_N 	N 	0.9312	0.8461	0.9446	-0.159
Mof_C 	C 	0.8859	0.0936	0.108	0.023
Mof_H 	H 	0.8754	0.9716	0.1193	0.048
Mof_C 	C 	0.755	0.115	0.189	-0.008
Mof_C 	C 	0.796	0.122	0.257	-0.136
Mof_H 	H 	0.7689	0.0033	0.1617	0.016
Mof_H 	H 	0.8313	0.041	0.2717	0.076
Mof_N 	N 	0.5688	0.1539	0.4446	-0.185
Mof_C 	C 	0.6141	0.9064	0.608	0.165
Mof_H 	H 	0.6246	0.0284	0.6193	-0.047
Mof_C 	C 	0.745	0.885	0.689	0.007
Mof_C 	C 	0.704	0.878	0.757	-0.141
Mof_H 	H 	0.7311	0.9967	0.6617	0.044
Mof_H 	H 	0.6687	0.959	0.7717	0.098
Mof_N 	N 	0.0688	0.6539	0.9446	-0.168
Mof_C 	C 	0.1141	0.4064	0.108	0.082
Mof_H 	H 	0.1246	0.5284	0.1193	-0.004
Mof_C 	C 	0.245	0.385	0.189	-0.016
Mof_C 	C 	0.204	0.378	0.257	-0.117
Mof_H 	H 	0.2311	0.4967	0.1617	0.032
Mof_H 	H 	0.1687	0.459	0.2717	0.073
Mof_N 	N 	0.5688	0.8461	0.5554	-0.193
Mof_C 	C 	0.6141	0.0936	0.392	0.026
Mof_H 	H 	0.6246	0.9716	0.3807	0.05
Mof_C 	C 	0.745	0.115	0.311	0.008
Mof_C 	C 	0.704	0.122	0.243	-0.128
Mof_H 	H 	0.7311	0.0033	0.3383	0.02
Mof_H 	H 	0.6687	0.041	0.2283	0.062
Mof_N 	N 	0.0688	0.3461	0.0554	-0.208
Mof_C 	C 	0.1141	0.5936	0.892	0.106
Mof_H 	H 	0.1246	0.4716	0.8807	0.007
Mof_C 	C 	0.245	0.615	0.811	0.023
Mof_C 	C 	0.204	0.622	0.743	-0.149
Mof_H 	H 	0.2311	0.5033	0.8383	0.034
Mof_H 	H 	0.1687	0.541	0.7283	0.081
Mof_N 	N 	0.4312	0.6539	0.5554	-0.191
Mof_C 	C 	0.3859	0.4064	0.392	0.092
Mof_H 	H 	0.3754	0.5284	0.3807	0.002
Mof_C 	C 	0.255	0.385	0.311	-0.009
Mof_C 	C 	0.296	0.378	0.243	-0.12
Mof_H 	H 	0.2689	0.4967	0.3383	0.038
Mof_H 	H 	0.3313	0.459	0.2283	0.069
Mof_N 	N 	0.9312	0.1539	0.0554	-0.186
Mof_C 	C 	0.8859	0.9064	0.892	0.173
Mof_H 	H 	0.8754	0.0284	0.8807	-0.033
Mof_C 	C 	0.755	0.885	0.811	0.011
Mof_C 	C 	0.796	0.878	0.743	-0.147
Mof_H 	H 	0.7689	0.9967	0.8383	0.051
Mof_H 	H 	0.8313	0.959	0.7283	0.097
Mof_N 	N 	0.5688	0.6539	0.5554	-0.191
Mof_C 	C 	0.6141	0.4064	0.392	0.092
Mof_H 	H 	0.6246	0.5284	0.3807	0.003
Mof_C 	C 	0.745	0.385	0.311	-0.001
Mof_C 	C 	0.704	0.378	0.243	-0.118
Mof_H 	H 	0.7311	0.4967	0.3383	0.037
Mof_H 	H 	0.6687	0.459	0.2283	0.069
Mof_N 	N 	0.0688	0.1539	0.0554	-0.201
Mof_C 	C 	0.1141	0.9064	0.892	0.17
Mof_H 	H 	0.1246	0.0284	0.8807	-0.038
Mof_C 	C 	0.245	0.885	0.811	0.013
Mof_C 	C 	0.204	0.878	0.743	-0.139
Mof_H 	H 	0.2311	0.9967	0.8383	0.05
Mof_H 	H 	0.1687	0.959	0.7283	0.088
Mof_N 	N 	0.4312	0.8461	0.5554	-0.193
Mof_C 	C 	0.3859	0.0936	0.392	0.025
Mof_H 	H 	0.3754	0.9716	0.3807	0.05
Mof_C 	C 	0.255	0.115	0.311	0
Mof_C 	C 	0.296	0.122	0.243	-0.13
Mof_H 	H 	0.2689	0.0033	0.3383	0.021
Mof_H 	H 	0.3313	0.041	0.2283	0.062
Mof_N 	N 	0.9312	0.3461	0.0554	-0.192
Mof_C 	C 	0.8859	0.5936	0.892	0.111
Mof_H 	H 	0.8754	0.4716	0.8807	0.011
Mof_C 	C 	0.755	0.615	0.811	0.02
Mof_C 	C 	0.796	0.622	0.743	-0.156
Mof_H 	H 	0.7689	0.5033	0.8383	0.035
Mof_H 	H 	0.8313	0.541	0.7283	0.09
Mof_N 	N 	0.4312	0.1539	0.4446	-0.185
Mof_C 	C 	0.3859	0.9064	0.608	0.166
Mof_H 	H 	0.3754	0.0284	0.6193	-0.048
Mof_C 	C 	0.255	0.885	0.689	0
Mof_C 	C 	0.296	0.878	0.757	-0.143
Mof_H 	H 	0.2689	0.9967	0.6617	0.045
Mof_H 	H 	0.3313	0.959	0.7717	0.098
Mof_N 	N 	0.9312	0.6539	0.9446	-0.156
Mof_C 	C 	0.8859	0.4064	0.108	0.089
Mof_H 	H 	0.8754	0.5284	0.1193	0.001
Mof_C 	C 	0.755	0.385	0.189	-0.018
Mof_C 	C 	0.796	0.378	0.257	-0.126
Mof_H 	H 	0.7689	0.4967	0.1617	0.033
Mof_H 	H 	0.8313	0.459	0.2717	0.083
Mof_N 	N 	0.5688	0.3461	0.4446	-0.192
Mof_C 	C 	0.6141	0.5936	0.608	0.1
Mof_H 	H 	0.6246	0.4716	0.6193	-0.001
Mof_C 	C 	0.745	0.615	0.689	0.017
Mof_C 	C 	0.704	0.622	0.757	-0.151
Mof_H 	H 	0.7311	0.5033	0.6617	0.028
Mof_H 	H 	0.6687	0.541	0.7717	0.091
Mof_N 	N 	0.0688	0.8461	0.9446	-0.171
Mof_C 	C 	0.1141	0.0936	0.108	0.014
Mof_H 	H 	0.1246	0.9716	0.1193	0.045
Mof_C 	C 	0.245	0.115	0.189	-0.006
Mof_C 	C 	0.204	0.122	0.257	-0.127
Mof_H 	H 	0.2311	0.0033	0.1617	0.014
Mof_H 	H 	0.1687	0.041	0.2717	0.066
Mof_Br	Br	0.5	0.25	0.6383	-0.425
Mof_Br	Br	1.7437e-33	0.75	0.1383	-0.449
Mof_Br	Br	0.5	0.75	0.3617	-0.408
Mof_Br	Br	2.43222e-33	0.25	0.8617	-0.422
Mof_Cu	Cu	0.5	0.5	0.5	0.882
Mof_Cu	Cu	-0	0	-0	0.819
Mof_Cu	Cu	0.5	1.08267e-32	0.5	0.867
Mof_Cu	Cu	1.35334e-33	0.5	-0	0.835
Mof_N 	N 	0.3571	0.75	0.642	-0.163
Mof_C 	C 	0.3046	0.75	0.707	0.166
Mof_N 	N 	0.8571	0.25	0.142	-0.143
Mof_C 	C 	0.8046	0.25	0.207	0.149
Mof_N 	N 	0.6429	0.75	0.642	-0.162
Mof_C 	C 	0.6954	0.75	0.707	0.162
Mof_N 	N 	0.1429	0.25	0.142	-0.142
Mof_C 	C 	0.1954	0.25	0.207	0.137
Mof_N 	N 	0.6429	0.25	0.358	-0.14
Mof_C 	C 	0.6954	0.25	0.293	0.133
Mof_N 	N 	0.1429	0.75	0.858	-0.161
Mof_C 	C 	0.1954	0.75	0.793	0.157
Mof_N 	N 	0.3571	0.25	0.358	-0.141
Mof_C 	C 	0.3046	0.25	0.293	0.138
Mof_N 	N 	0.8571	0.75	0.858	-0.161
Mof_C 	C 	0.8046	0.75	0.793	0.167
_end
