data_functionalizedCrystal
_audit_creation_method	'EQeq! by Chris Wilmer'
_symmetry_space_group_name_H-M	'P1'
_symmetry_Int_Tables_number	1
_symmetry_cell_setting	triclinic
loop_
_symmetry_equiv_pos_as_xyz
  x,y,z
_cell_length_a	9.997
_cell_length_b	13.1442
_cell_length_c	16.458
_cell_angle_alpha	101.096
_cell_angle_beta	92.796
_cell_angle_gamma	96.03
loop_
_atom_site_label
_atom_site_type_symbol
_atom_site_fract_x
_atom_site_fract_y
_atom_site_fract_z
_atom_site_charge
Mof_Mn	Mn	0.11703	0.25982	0.73811	0.846
Mof_Mn	Mn	0.0836	0.86758	0.76176	0.86
Mof_Mn	Mn	0.46014	0.22298	0.25879	0.848
Mof_Mn	Mn	0.62323	0.36986	0.75757	0.87
Mof_Mn	Mn	0.88297	0.74018	0.26189	0.846
Mof_Mn	Mn	0.9164	0.13242	0.23824	0.86
Mof_Mn	Mn	0.53986	0.77702	0.74121	0.849
Mof_Mn	Mn	0.37677	0.63014	0.24243	0.871
Mof_H 	H 	0.4054	0.399	0.0066	0.045
Mof_H 	H 	0.1375	0.0935	0.9955	0.052
Mof_H 	H 	0.9447	0.6644	0.4928	0.035
Mof_H 	H 	0.4546	0.8488	0.5463	0.029
Mof_H 	H 	0.6874	0.3827	0.9544	0.112
Mof_H 	H 	0.6691	0.4433	0.0986	0.006
Mof_H 	H 	0.8519	0.4578	0.1826	0.16
Mof_H 	H 	0.0444	0.4077	0.1374	0.006
Mof_H 	H 	0.0645	0.35	0.9987	0.114
Mof_H 	H 	0.1138	0.8673	0.9612	0.076
Mof_H 	H 	0.1109	0.9279	0.1074	0.016
Mof_H 	H 	0.2999	0.9391	0.192	0.16
Mof_H 	H 	0.497	0.92	0.1475	0.025
Mof_H 	H 	0.5165	0.8684	0.9999	0.084
Mof_H 	H 	0.5946	0.601	0.9934	0.045
Mof_H 	H 	0.8625	0.9065	0.0045	0.052
Mof_H 	H 	0.0553	0.3356	0.5072	0.035
Mof_H 	H 	0.5454	0.1512	0.4537	0.029
Mof_H 	H 	0.3126	0.6173	0.0456	0.112
Mof_H 	H 	0.3309	0.5567	0.9014	0.006
Mof_H 	H 	0.1481	0.5422	0.8174	0.16
Mof_H 	H 	0.9556	0.5923	0.8626	0.006
Mof_H 	H 	0.9355	0.65	0.0013	0.114
Mof_H 	H 	0.8862	0.1327	0.0388	0.076
Mof_H 	H 	0.8891	0.0721	0.8926	0.016
Mof_H 	H 	0.7001	0.0609	0.808	0.16
Mof_H 	H 	0.503	0.08	0.8525	0.025
Mof_H 	H 	0.4835	0.1316	0.0001	0.084
Mof_C 	C 	0.235	0.1805	0.9254	-0.067
Mof_C 	C 	0.317	0.2739	0.9278	-0.055
Mof_C 	C 	0.3556	0.3381	0.0052	-0.004
Mof_C 	C 	0.3177	0.3111	0.0795	-0.068
Mof_C 	C 	0.2366	0.217	0.0762	-0.063
Mof_C 	C 	0.1952	0.1547	0.9993	0.003
Mof_C 	C 	0.1888	0.1046	0.846	0.339
Mof_C 	C 	0.371	0.3145	0.8537	0.346
Mof_C 	C 	0.3607	0.3912	0.1579	0.373
Mof_C 	C 	0.1808	0.1786	0.1502	0.361
Mof_C 	C 	0.0018	0.575	0.5732	-0.056
Mof_C 	C 	0.036	0.4752	0.5761	-0.057
Mof_C 	C 	0.9665	0.599	0.4969	-0
Mof_C 	C 	0.9888	0.6534	0.6519	0.338
Mof_C 	C 	0.0792	0.4495	0.6585	0.337
Mof_C 	C 	0.44	0.9105	0.4433	-0.048
Mof_C 	C 	0.4666	0.006	0.4183	-0.06
Mof_C 	C 	0.4746	0.9062	0.5255	-0.01
Mof_C 	C 	0.3777	0.8125	0.385	0.32
Mof_C 	C 	0.4244	0.0164	0.3313	0.323
Mof_C 	C 	0.8789	0.3627	0.9606	0.025
Mof_C 	C 	0.7575	0.3893	0.9898	-0.146
Mof_C 	C 	0.7497	0.4235	0.0741	0.121
Mof_C 	C 	0.9753	0.4045	0.1008	0.13
Mof_C 	C 	0.9886	0.3705	0.0175	-0.15
Mof_C 	C 	0.8937	0.3241	0.8672	0.349
Mof_C 	C 	0.3232	0.8664	0.9686	-0.029
Mof_C 	C 	0.1983	0.8817	0.9992	-0.069
Mof_C 	C 	0.1904	0.9109	0.0838	0.082
Mof_C 	C 	0.4219	0.9089	0.1076	0.092
Mof_C 	C 	0.436	0.8811	0.0234	-0.081
Mof_C 	C 	0.3386	0.832	0.8762	0.36
Mof_C 	C 	0.765	0.8195	0.0746	-0.067
Mof_C 	C 	0.683	0.7261	0.0722	-0.055
Mof_C 	C 	0.6444	0.6619	0.9948	-0.004
Mof_C 	C 	0.6823	0.6889	0.9205	-0.068
Mof_C 	C 	0.7634	0.783	0.9238	-0.063
Mof_C 	C 	0.8048	0.8453	0.0007	0.003
Mof_C 	C 	0.8112	0.8954	0.154	0.339
Mof_C 	C 	0.629	0.6855	0.1463	0.346
Mof_C 	C 	0.6393	0.6088	0.8421	0.373
Mof_C 	C 	0.8192	0.8214	0.8498	0.361
Mof_C 	C 	0.9982	0.425	0.4268	-0.056
Mof_C 	C 	0.964	0.5248	0.4239	-0.057
Mof_C 	C 	0.0335	0.401	0.5031	-0
Mof_C 	C 	0.0112	0.3466	0.3481	0.338
Mof_C 	C 	0.9208	0.5505	0.3415	0.337
Mof_C 	C 	0.56	0.0895	0.5567	-0.048
Mof_C 	C 	0.5334	0.994	0.5817	-0.06
Mof_C 	C 	0.5254	0.0938	0.4745	-0.01
Mof_C 	C 	0.6223	0.1875	0.615	0.32
Mof_C 	C 	0.5756	0.9836	0.6687	0.323
Mof_C 	C 	0.1211	0.6373	0.0394	0.025
Mof_C 	C 	0.2425	0.6107	0.0102	-0.146
Mof_C 	C 	0.2503	0.5765	0.9259	0.121
Mof_C 	C 	0.0247	0.5955	0.8992	0.13
Mof_C 	C 	0.0114	0.6295	0.9825	-0.15
Mof_C 	C 	0.1063	0.6759	0.1328	0.349
Mof_C 	C 	0.6768	0.1336	0.0314	-0.029
Mof_C 	C 	0.8017	0.1183	0.0008	-0.069
Mof_C 	C 	0.8096	0.0891	0.9162	0.082
Mof_C 	C 	0.5781	0.0911	0.8924	0.092
Mof_C 	C 	0.564	0.1189	0.9766	-0.081
Mof_C 	C 	0.6614	0.168	0.1238	0.36
Mof_N 	N 	0.8571	0.4303	0.1268	-0.212
Mof_N 	N 	0.3008	0.9234	0.1351	-0.199
Mof_N 	N 	0.1429	0.5697	0.8732	-0.212
Mof_N 	N 	0.6992	0.0766	0.8649	-0.199
Mof_O 	O 	0.2138	0.1318	0.77808	-0.368
Mof_O 	O 	0.1305	0.0173	0.85144	-0.355
Mof_O 	O 	0.2919	0.353	0.80861	-0.355
Mof_O 	O 	0.4942	0.3135	0.84647	-0.345
Mof_O 	O 	0.3393	0.482	0.15476	-0.367
Mof_O 	O 	0.4165	0.3654	0.21916	-0.382
Mof_O 	O 	0.0551	0.1647	0.14853	-0.354
Mof_O 	O 	0.259	0.1575	0.20498	-0.36
Mof_O 	O 	0.0727	0.7342	0.6659	-0.369
Mof_O 	O 	0.8942	0.6349	0.69538	-0.273
Mof_O 	O 	0.1508	0.518	0.70976	-0.281
Mof_O 	O 	0.0382	0.3597	0.66877	-0.373
Mof_O 	O 	0.4516	0.7696	0.3316	-0.351
Mof_O 	O 	0.2599	0.778	0.39486	-0.269
Mof_O 	O 	0.321	0.9611	0.29672	-0.277
Mof_O 	O 	0.4977	0.0807	0.29883	-0.359
Mof_O 	O 	0.793	0.3183	0.81923	-0.354
Mof_O 	O 	0.0077	0.3009	0.84944	-0.355
Mof_O 	O 	0.2347	0.8051	0.82881	-0.36
Mof_O 	O 	0.4566	0.8301	0.85595	-0.363
Mof_O 	O 	0.7862	0.8682	0.22192	-0.368
Mof_O 	O 	0.8695	0.9827	0.14856	-0.355
Mof_O 	O 	0.7081	0.647	0.19139	-0.355
Mof_O 	O 	0.5058	0.6865	0.15353	-0.345
Mof_O 	O 	0.6607	0.518	0.84524	-0.367
Mof_O 	O 	0.5835	0.6346	0.78084	-0.382
Mof_O 	O 	0.9449	0.8353	0.85147	-0.354
Mof_O 	O 	0.741	0.8425	0.79502	-0.36
Mof_O 	O 	0.9273	0.2658	0.3341	-0.369
Mof_O 	O 	0.1058	0.3651	0.30462	-0.273
Mof_O 	O 	0.8492	0.482	0.29024	-0.281
Mof_O 	O 	0.9618	0.6403	0.33123	-0.373
Mof_O 	O 	0.5484	0.2304	0.6684	-0.351
Mof_O 	O 	0.7401	0.222	0.60514	-0.269
Mof_O 	O 	0.679	0.0389	0.70328	-0.277
Mof_O 	O 	0.5023	0.9193	0.70117	-0.359
Mof_O 	O 	0.207	0.6817	0.18077	-0.354
Mof_O 	O 	0.9923	0.6991	0.15056	-0.355
Mof_O 	O 	0.7653	0.1949	0.17119	-0.36
Mof_O 	O 	0.5434	0.1699	0.14405	-0.363
_end
