data_functionalizedCrystal
_audit_creation_method	'EQeq! by Chris Wilmer'
_symmetry_space_group_name_H-M	'P1'
_symmetry_Int_Tables_number	1
_symmetry_cell_setting	triclinic
loop_
_symmetry_equiv_pos_as_xyz
  x,y,z
_cell_length_a	30.926
_cell_length_b	30.926
_cell_length_c	31.413
_cell_angle_alpha	60.5115
_cell_angle_beta	60.5115
_cell_angle_gamma	89.9999
loop_
_atom_site_label
_atom_site_type_symbol
_atom_site_fract_x
_atom_site_fract_y
_atom_site_fract_z
_atom_site_charge
Mof_Cu	Cu	0.53001	0.19324	0.33784	0.905
Mof_Cu	Cu	0.51968	0.27	0.25608	0.903
Mof_Cu	Cu	0.13215	0.46891	0.33785	0.905
Mof_Cu	Cu	0.22425	0.47392	0.25607	0.903
Mof_Cu	Cu	0.19324	0.13216	0.33784	0.905
Mof_Cu	Cu	0.27001	0.22425	0.25607	0.903
Mof_Cu	Cu	0.46891	0.53	0.33785	0.905
Mof_Cu	Cu	0.47391	0.51968	0.25608	0.903
Mof_Cu	Cu	0.46999	0.80676	0.66216	0.906
Mof_Cu	Cu	0.48032	0.73	0.74392	0.907
Mof_Cu	Cu	0.86785	0.53109	0.66215	0.906
Mof_Cu	Cu	0.77575	0.52608	0.74393	0.908
Mof_Cu	Cu	0.80676	0.86784	0.66216	0.907
Mof_Cu	Cu	0.72999	0.77575	0.74393	0.908
Mof_Cu	Cu	0.53109	0.47	0.66215	0.906
Mof_Cu	Cu	0.52608	0.48032	0.74393	0.908
Mof_Cu	Cu	0.45694	0.74942	-0	0.877
Mof_Cu	Cu	0.44246	0.83459	-0	0.877
Mof_Cu	Cu	0.54306	0.25058	-0	0.877
Mof_Cu	Cu	0.55754	0.16541	-0	0.877
Mof_Cu	Cu	0.74942	0.54306	-0	0.877
Mof_Cu	Cu	0.83459	0.55754	-0	0.877
Mof_Cu	Cu	0.25058	0.45694	-0	0.877
Mof_Cu	Cu	0.16541	0.44246	-0	0.877
Mof_H 	H 	0.4801	0.2422	0.4592	0.072
Mof_H 	H 	0.4564	0.3726	0.4566	0.083
Mof_H 	H 	0.4833	0.364	0.322	0.059
Mof_H 	H 	0.4078	0.124	0.6626	0.085
Mof_H 	H 	0.4259	0.0737	0.7988	0.087
Mof_H 	H 	0.4479	0.2281	0.6898	0.085
Mof_H 	H 	0.4788	0.244	0.738	0.038
Mof_H 	H 	0.4409	0.1989	0.565	0.039
Mof_H 	H 	0.4334	0.9964	0.8008	0.04
Mof_H 	H 	0.5022	0.3029	0.7528	0.075
Mof_H 	H 	0.5335	0.3296	0.8508	0.068
Mof_H 	H 	0.5083	0.184	0.8844	0.093
Mof_H 	H 	0.442	0.781	0.859	0.069
Mof_H 	H 	0.4279	0.8992	0.7332	0.085
Mof_H 	H 	0.4158	0.9076	0.8642	0.084
Mof_H 	H 	0.0607	0.2986	0.4592	0.071
Mof_H 	H 	0.087	0.1708	0.4566	0.082
Mof_H 	H 	0.1947	0.314	0.322	0.059
Mof_H 	H 	0.9296	0.2134	0.6626	0.086
Mof_H 	H 	0.7753	0.1275	0.7988	0.087
Mof_H 	H 	0.8623	0.0821	0.6898	0.085
Mof_H 	H 	0.7832	0.018	0.738	0.038
Mof_H 	H 	0.9941	0.2361	0.565	0.039
Mof_H 	H 	0.7658	0.2028	0.8008	0.041
Mof_H 	H 	0.745	0.9443	0.7528	0.077
Mof_H 	H 	0.6157	0.8196	0.8508	0.068
Mof_H 	H 	0.6073	0.9316	0.8844	0.095
Mof_H 	H 	0.699	0.36	0.859	0.069
Mof_H 	H 	0.8389	0.3676	0.7332	0.085
Mof_H 	H 	0.72	0.2282	0.8642	0.083
Mof_H 	H 	0.2422	0.0607	0.4592	0.071
Mof_H 	H 	0.3726	0.087	0.4566	0.083
Mof_H 	H 	0.364	0.1947	0.322	0.059
Mof_H 	H 	0.124	0.9296	0.6626	0.086
Mof_H 	H 	0.0737	0.7753	0.7988	0.087
Mof_H 	H 	0.2281	0.8623	0.6898	0.086
Mof_H 	H 	0.244	0.7832	0.738	0.038
Mof_H 	H 	0.1989	0.9941	0.565	0.039
Mof_H 	H 	0.9964	0.7658	0.8008	0.04
Mof_H 	H 	0.3029	0.745	0.7528	0.075
Mof_H 	H 	0.3296	0.6157	0.8508	0.068
Mof_H 	H 	0.184	0.6073	0.8844	0.094
Mof_H 	H 	0.781	0.699	0.859	0.069
Mof_H 	H 	0.8992	0.8389	0.7332	0.086
Mof_H 	H 	0.9076	0.72	0.8642	0.084
Mof_H 	H 	0.2986	0.4801	0.4592	0.073
Mof_H 	H 	0.1708	0.4564	0.4566	0.083
Mof_H 	H 	0.314	0.4833	0.322	0.059
Mof_H 	H 	0.2134	0.4078	0.6626	0.085
Mof_H 	H 	0.1275	0.4259	0.7988	0.087
Mof_H 	H 	0.0821	0.4479	0.6898	0.084
Mof_H 	H 	0.018	0.4788	0.738	0.038
Mof_H 	H 	0.2361	0.4409	0.565	0.039
Mof_H 	H 	0.2028	0.4334	0.8008	0.041
Mof_H 	H 	0.9443	0.5022	0.7528	0.077
Mof_H 	H 	0.8196	0.5335	0.8508	0.068
Mof_H 	H 	0.9316	0.5083	0.8844	0.095
Mof_H 	H 	0.36	0.442	0.859	0.069
Mof_H 	H 	0.3676	0.4279	0.7332	0.085
Mof_H 	H 	0.2282	0.4158	0.8642	0.083
Mof_H 	H 	0.5199	0.7578	0.5408	0.073
Mof_H 	H 	0.5436	0.6274	0.5434	0.083
Mof_H 	H 	0.5167	0.636	0.678	0.063
Mof_H 	H 	0.5922	0.876	0.3374	0.082
Mof_H 	H 	0.5741	0.9263	0.2012	0.078
Mof_H 	H 	0.5521	0.7719	0.3102	0.082
Mof_H 	H 	0.5212	0.756	0.262	0.037
Mof_H 	H 	0.5591	0.8011	0.435	0.039
Mof_H 	H 	0.5666	0.0036	0.1992	0.037
Mof_H 	H 	0.4978	0.6971	0.2472	0.071
Mof_H 	H 	0.4665	0.6704	0.1492	0.056
Mof_H 	H 	0.4917	0.816	0.1156	0.075
Mof_H 	H 	0.558	0.219	0.141	0.054
Mof_H 	H 	0.5721	0.1008	0.2668	0.08
Mof_H 	H 	0.5842	0.0924	0.1358	0.067
Mof_H 	H 	0.9393	0.7014	0.5408	0.074
Mof_H 	H 	0.913	0.8292	0.5434	0.084
Mof_H 	H 	0.8053	0.686	0.678	0.063
Mof_H 	H 	0.0704	0.7866	0.3374	0.081
Mof_H 	H 	0.2247	0.8725	0.2012	0.078
Mof_H 	H 	0.1377	0.9179	0.3102	0.083
Mof_H 	H 	0.2168	0.982	0.262	0.036
Mof_H 	H 	0.0059	0.7639	0.435	0.039
Mof_H 	H 	0.2342	0.7972	0.1992	0.036
Mof_H 	H 	0.255	0.0557	0.2472	0.069
Mof_H 	H 	0.3843	0.1804	0.1492	0.056
Mof_H 	H 	0.3927	0.0684	0.1156	0.074
Mof_H 	H 	0.301	0.64	0.141	0.054
Mof_H 	H 	0.1611	0.6324	0.2668	0.08
Mof_H 	H 	0.28	0.7718	0.1358	0.068
Mof_H 	H 	0.7578	0.9393	0.5408	0.074
Mof_H 	H 	0.6274	0.913	0.5434	0.084
Mof_H 	H 	0.636	0.8053	0.678	0.063
Mof_H 	H 	0.876	0.0704	0.3374	0.081
Mof_H 	H 	0.9263	0.2247	0.2012	0.078
Mof_H 	H 	0.7719	0.1377	0.3102	0.082
Mof_H 	H 	0.756	0.2168	0.262	0.037
Mof_H 	H 	0.8011	0.0059	0.435	0.039
Mof_H 	H 	0.0036	0.2342	0.1992	0.037
Mof_H 	H 	0.6971	0.255	0.2472	0.071
Mof_H 	H 	0.6704	0.3843	0.1492	0.056
Mof_H 	H 	0.816	0.3927	0.1156	0.075
Mof_H 	H 	0.219	0.301	0.141	0.054
Mof_H 	H 	0.1008	0.1611	0.2668	0.079
Mof_H 	H 	0.0924	0.28	0.1358	0.067
Mof_H 	H 	0.7014	0.5199	0.5408	0.073
Mof_H 	H 	0.8292	0.5436	0.5434	0.084
Mof_H 	H 	0.686	0.5167	0.678	0.063
Mof_H 	H 	0.7866	0.5922	0.3374	0.082
Mof_H 	H 	0.8725	0.5741	0.2012	0.078
Mof_H 	H 	0.9179	0.5521	0.3102	0.083
Mof_H 	H 	0.982	0.5212	0.262	0.036
Mof_H 	H 	0.7639	0.5591	0.435	0.039
Mof_H 	H 	0.7972	0.5666	0.1992	0.036
Mof_H 	H 	0.0557	0.4978	0.2472	0.069
Mof_H 	H 	0.1804	0.4665	0.1492	0.056
Mof_H 	H 	0.0684	0.4917	0.1156	0.074
Mof_H 	H 	0.64	0.558	0.141	0.054
Mof_H 	H 	0.6324	0.5721	0.2668	0.081
Mof_H 	H 	0.7718	0.5842	0.1358	0.068
Mof_C 	C 	0.49795	0.27188	0.3546	0.36
Mof_C 	C 	0.48404	0.29957	0.3857	-0.057
Mof_C 	C 	0.47745	0.27631	0.44018	-0.058
Mof_C 	C 	0.46708	0.30374	0.46606	0.083
Mof_C 	C 	0.46354	0.35414	0.43836	-0.054
Mof_C 	C 	0.47055	0.37667	0.38418	-0.055
Mof_C 	C 	0.47984	0.3489	0.35862	0.007
Mof_C 	C 	0.42829	0.18239	0.66942	0.07
Mof_C 	C 	0.41561	0.13101	0.68478	-0.112
Mof_C 	C 	0.41458	0.09008	0.73324	0.066
Mof_C 	C 	0.42645	0.10125	0.7661	-0.11
Mof_C 	C 	0.43885	0.15235	0.7503	0.067
Mof_C 	C 	0.43956	0.19306	0.70088	-0.114
Mof_C 	C 	0.4475	0.1644	0.785	0.036
Mof_C 	C 	0.4688	0.2104	0.7722	0.009
Mof_C 	C 	0.43935	0.22675	0.5701	0.005
Mof_C 	C 	0.43225	0.22475	0.6171	0.035
Mof_C 	C 	0.41768	0.99618	0.78144	0.014
Mof_C 	C 	0.40477	0.03677	0.74886	0.033
Mof_C 	C 	0.5034	0.23842	0.8178	0.093
Mof_C 	C 	0.50766	0.29083	0.78352	-0.06
Mof_C 	C 	0.5201	0.32516	0.79542	-0.05
Mof_C 	C 	0.52675	0.30663	0.84142	-0.001
Mof_C 	C 	0.52357	0.254	0.87384	-0.036
Mof_C 	C 	0.51125	0.21996	0.86192	-0.064
Mof_C 	C 	0.52432	0.38103	0.76022	0.347
Mof_C 	C 	0.43685	0.81416	0.84254	0.001
Mof_C 	C 	0.4364	0.83582	0.79192	-0.049
Mof_C 	C 	0.42799	0.88434	0.76774	-0.062
Mof_C 	C 	0.41974	0.91021	0.79558	0.096
Mof_C 	C 	0.42094	0.88925	0.846	-0.064
Mof_C 	C 	0.42973	0.84136	0.86886	-0.041
Mof_C 	C 	0.44816	0.80916	0.7606	0.353
Mof_C 	C 	0.43459	0.8209	0.91982	0.339
Mof_C 	C 	0.53341	0.23554	0.92204	0.349
Mof_C 	C 	0.46956	0.43189	0.35202	0.351
Mof_C 	C 	0.14745	0.37352	0.3546	0.36
Mof_C 	C 	0.13026	0.31473	0.3857	-0.058
Mof_C 	C 	0.08237	0.28351	0.44018	-0.057
Mof_C 	C 	0.06686	0.2302	0.46606	0.081
Mof_C 	C 	0.0981	0.2075	0.43836	-0.054
Mof_C 	C 	0.14527	0.23915	0.38418	-0.056
Mof_C 	C 	0.16154	0.29248	0.35862	0.007
Mof_C 	C 	0.90229	0.14819	0.66942	0.07
Mof_C 	C 	0.89961	0.18421	0.68478	-0.111
Mof_C 	C 	0.85218	0.17668	0.73324	0.064
Mof_C 	C 	0.80745	0.13265	0.7661	-0.108
Mof_C 	C 	0.81085	0.09735	0.7503	0.066
Mof_C 	C 	0.85956	0.10606	0.70088	-0.113
Mof_C 	C 	0.7675	0.0506	0.785	0.038
Mof_C 	C 	0.759	0.0174	0.7722	0.002
Mof_C 	C 	0.99055	0.20315	0.5701	0.011
Mof_C 	C 	0.95065	0.15815	0.6171	0.034
Mof_C 	C 	0.80088	0.22238	0.78144	0.006
Mof_C 	C 	0.84637	0.21437	0.74886	0.041
Mof_C 	C 	0.6788	0.94378	0.8178	0.094
Mof_C 	C 	0.70882	0.92565	0.78352	-0.06
Mof_C 	C 	0.68448	0.87942	0.79542	-0.049
Mof_C 	C 	0.63183	0.85195	0.84142	-0.002
Mof_C 	C 	0.60259	0.87216	0.87384	-0.035
Mof_C 	C 	0.62683	0.91812	0.86192	-0.065
Mof_C 	C 	0.71546	0.85875	0.76022	0.347
Mof_C 	C 	0.72061	0.3433	0.84254	0.001
Mof_C 	C 	0.77168	0.37226	0.79192	-0.049
Mof_C 	C 	0.80427	0.34792	0.76774	-0.061
Mof_C 	C 	0.78468	0.29421	0.79558	0.095
Mof_C 	C 	0.73306	0.26475	0.846	-0.063
Mof_C 	C 	0.70141	0.28978	0.86886	-0.042
Mof_C 	C 	0.79124	0.43024	0.7606	0.353
Mof_C 	C 	0.64559	0.25928	0.91982	0.339
Mof_C 	C 	0.54455	0.84242	0.92204	0.349
Mof_C 	C 	0.17842	0.21609	0.35202	0.351
Mof_C 	C 	0.27188	0.14745	0.3546	0.36
Mof_C 	C 	0.29957	0.13026	0.3857	-0.058
Mof_C 	C 	0.27631	0.08237	0.44018	-0.057
Mof_C 	C 	0.30374	0.06686	0.46606	0.082
Mof_C 	C 	0.35414	0.0981	0.43836	-0.054
Mof_C 	C 	0.37667	0.14527	0.38418	-0.056
Mof_C 	C 	0.3489	0.16154	0.35862	0.007
Mof_C 	C 	0.18239	0.90229	0.66942	0.071
Mof_C 	C 	0.13101	0.89961	0.68478	-0.113
Mof_C 	C 	0.09008	0.85218	0.73324	0.067
Mof_C 	C 	0.10125	0.80745	0.7661	-0.11
Mof_C 	C 	0.15235	0.81085	0.7503	0.068
Mof_C 	C 	0.19306	0.85956	0.70088	-0.115
Mof_C 	C 	0.1644	0.7675	0.785	0.036
Mof_C 	C 	0.2104	0.759	0.7722	0.009
Mof_C 	C 	0.22675	0.99055	0.5701	0.012
Mof_C 	C 	0.22475	0.95065	0.6171	0.034
Mof_C 	C 	0.99618	0.80088	0.78144	0.014
Mof_C 	C 	0.03677	0.84637	0.74886	0.033
Mof_C 	C 	0.23842	0.6788	0.8178	0.093
Mof_C 	C 	0.29083	0.70882	0.78352	-0.06
Mof_C 	C 	0.32516	0.68448	0.79542	-0.05
Mof_C 	C 	0.30663	0.63183	0.84142	-0.001
Mof_C 	C 	0.254	0.60259	0.87384	-0.036
Mof_C 	C 	0.21996	0.62683	0.86192	-0.064
Mof_C 	C 	0.38103	0.71546	0.76022	0.347
Mof_C 	C 	0.81416	0.72061	0.84254	0.001
Mof_C 	C 	0.83582	0.77168	0.79192	-0.049
Mof_C 	C 	0.88434	0.80427	0.76774	-0.062
Mof_C 	C 	0.91021	0.78468	0.79558	0.097
Mof_C 	C 	0.88925	0.73306	0.846	-0.064
Mof_C 	C 	0.84136	0.70141	0.86886	-0.041
Mof_C 	C 	0.80916	0.79124	0.7606	0.353
Mof_C 	C 	0.8209	0.64559	0.91982	0.339
Mof_C 	C 	0.23554	0.54455	0.92204	0.349
Mof_C 	C 	0.43189	0.17842	0.35202	0.351
Mof_C 	C 	0.37352	0.49795	0.3546	0.36
Mof_C 	C 	0.31473	0.48404	0.3857	-0.057
Mof_C 	C 	0.28351	0.47745	0.44018	-0.057
Mof_C 	C 	0.2302	0.46708	0.46606	0.082
Mof_C 	C 	0.2075	0.46354	0.43836	-0.054
Mof_C 	C 	0.23915	0.47055	0.38418	-0.056
Mof_C 	C 	0.29248	0.47984	0.35862	0.007
Mof_C 	C 	0.14819	0.42829	0.66942	0.068
Mof_C 	C 	0.18421	0.41561	0.68478	-0.111
Mof_C 	C 	0.17668	0.41458	0.73324	0.063
Mof_C 	C 	0.13265	0.42645	0.7661	-0.108
Mof_C 	C 	0.09735	0.43885	0.7503	0.065
Mof_C 	C 	0.10606	0.43956	0.70088	-0.113
Mof_C 	C 	0.0506	0.4475	0.785	0.038
Mof_C 	C 	0.0174	0.4688	0.7722	0.002
Mof_C 	C 	0.20315	0.43935	0.5701	0.005
Mof_C 	C 	0.15815	0.43225	0.6171	0.036
Mof_C 	C 	0.22238	0.41768	0.78144	0.006
Mof_C 	C 	0.21437	0.40477	0.74886	0.04
Mof_C 	C 	0.94378	0.5034	0.8178	0.094
Mof_C 	C 	0.92565	0.50766	0.78352	-0.06
Mof_C 	C 	0.87942	0.5201	0.79542	-0.049
Mof_C 	C 	0.85195	0.52675	0.84142	-0.002
Mof_C 	C 	0.87216	0.52357	0.87384	-0.035
Mof_C 	C 	0.91812	0.51125	0.86192	-0.065
Mof_C 	C 	0.85875	0.52432	0.76022	0.347
Mof_C 	C 	0.3433	0.43685	0.84254	0.001
Mof_C 	C 	0.37226	0.4364	0.79192	-0.05
Mof_C 	C 	0.34792	0.42799	0.76774	-0.061
Mof_C 	C 	0.29421	0.41974	0.79558	0.095
Mof_C 	C 	0.26475	0.42094	0.846	-0.063
Mof_C 	C 	0.28978	0.42973	0.86886	-0.042
Mof_C 	C 	0.43024	0.44816	0.7606	0.353
Mof_C 	C 	0.25928	0.43459	0.91982	0.339
Mof_C 	C 	0.84242	0.53341	0.92204	0.349
Mof_C 	C 	0.21609	0.46956	0.35202	0.351
Mof_C 	C 	0.50205	0.72812	0.6454	0.358
Mof_C 	C 	0.51596	0.70043	0.6143	-0.055
Mof_C 	C 	0.52255	0.72369	0.55982	-0.059
Mof_C 	C 	0.53292	0.69626	0.53394	0.083
Mof_C 	C 	0.53646	0.64586	0.56164	-0.056
Mof_C 	C 	0.52945	0.62333	0.61582	-0.053
Mof_C 	C 	0.52016	0.6511	0.64138	0.005
Mof_C 	C 	0.57171	0.81761	0.33058	0.064
Mof_C 	C 	0.58439	0.86899	0.31522	-0.109
Mof_C 	C 	0.58542	0.90992	0.26676	0.056
Mof_C 	C 	0.57355	0.89875	0.2339	-0.107
Mof_C 	C 	0.56115	0.84765	0.2497	0.059
Mof_C 	C 	0.56044	0.80694	0.29912	-0.112
Mof_C 	C 	0.5525	0.8356	0.215	0.033
Mof_C 	C 	0.5312	0.7896	0.2278	0.004
Mof_C 	C 	0.56065	0.77325	0.4299	0.004
Mof_C 	C 	0.56775	0.77525	0.3829	0.035
Mof_C 	C 	0.58232	0.00382	0.21856	-0.007
Mof_C 	C 	0.59523	0.96323	0.25114	0.043
Mof_C 	C 	0.4966	0.76158	0.1822	0.079
Mof_C 	C 	0.49234	0.70917	0.21648	-0.055
Mof_C 	C 	0.4799	0.67484	0.20458	-0.062
Mof_C 	C 	0.47325	0.69337	0.15858	0.006
Mof_C 	C 	0.47643	0.746	0.12616	-0.059
Mof_C 	C 	0.48875	0.78004	0.13808	-0.057
Mof_C 	C 	0.47568	0.61897	0.23978	0.349
Mof_C 	C 	0.56315	0.18584	0.15746	0.009
Mof_C 	C 	0.5636	0.16418	0.20808	-0.063
Mof_C 	C 	0.57201	0.11566	0.23226	-0.056
Mof_C 	C 	0.58026	0.08979	0.20442	0.082
Mof_C 	C 	0.57906	0.11075	0.154	-0.056
Mof_C 	C 	0.57027	0.15864	0.13114	-0.066
Mof_C 	C 	0.55184	0.19084	0.2394	0.356
Mof_C 	C 	0.56541	0.1791	0.08018	0.347
Mof_C 	C 	0.46659	0.76446	0.07796	0.356
Mof_C 	C 	0.53044	0.56811	0.64798	0.349
Mof_C 	C 	0.85255	0.62648	0.6454	0.358
Mof_C 	C 	0.86974	0.68527	0.6143	-0.054
Mof_C 	C 	0.91763	0.71649	0.55982	-0.059
Mof_C 	C 	0.93314	0.7698	0.53394	0.084
Mof_C 	C 	0.9019	0.7925	0.56164	-0.056
Mof_C 	C 	0.85473	0.76085	0.61582	-0.053
Mof_C 	C 	0.83846	0.70752	0.64138	0.004
Mof_C 	C 	0.09771	0.85181	0.33058	0.064
Mof_C 	C 	0.10039	0.81579	0.31522	-0.111
Mof_C 	C 	0.14782	0.82332	0.26676	0.057
Mof_C 	C 	0.19255	0.86735	0.2339	-0.109
Mof_C 	C 	0.18915	0.90265	0.2497	0.061
Mof_C 	C 	0.14044	0.89394	0.29912	-0.113
Mof_C 	C 	0.2325	0.9494	0.215	0.031
Mof_C 	C 	0.241	0.9826	0.2278	0.01
Mof_C 	C 	0.00945	0.79685	0.4299	-0.002
Mof_C 	C 	0.04935	0.84185	0.3829	0.036
Mof_C 	C 	0.19912	0.77762	0.21856	0.001
Mof_C 	C 	0.15363	0.78563	0.25114	0.036
Mof_C 	C 	0.3212	0.05622	0.1822	0.078
Mof_C 	C 	0.29118	0.07435	0.21648	-0.055
Mof_C 	C 	0.31552	0.12058	0.20458	-0.063
Mof_C 	C 	0.36817	0.14805	0.15858	0.006
Mof_C 	C 	0.39741	0.12784	0.12616	-0.06
Mof_C 	C 	0.37317	0.08188	0.13808	-0.057
Mof_C 	C 	0.28454	0.14125	0.23978	0.349
Mof_C 	C 	0.27939	0.6567	0.15746	0.009
Mof_C 	C 	0.22832	0.62774	0.20808	-0.063
Mof_C 	C 	0.19573	0.65208	0.23226	-0.056
Mof_C 	C 	0.21532	0.70579	0.20442	0.083
Mof_C 	C 	0.26694	0.73525	0.154	-0.056
Mof_C 	C 	0.29859	0.71022	0.13114	-0.065
Mof_C 	C 	0.20876	0.56976	0.2394	0.356
Mof_C 	C 	0.35441	0.74072	0.08018	0.347
Mof_C 	C 	0.45545	0.15758	0.07796	0.356
Mof_C 	C 	0.82158	0.78391	0.64798	0.349
Mof_C 	C 	0.72812	0.85255	0.6454	0.358
Mof_C 	C 	0.70043	0.86974	0.6143	-0.054
Mof_C 	C 	0.72369	0.91763	0.55982	-0.059
Mof_C 	C 	0.69626	0.93314	0.53394	0.084
Mof_C 	C 	0.64586	0.9019	0.56164	-0.056
Mof_C 	C 	0.62333	0.85473	0.61582	-0.053
Mof_C 	C 	0.6511	0.83846	0.64138	0.004
Mof_C 	C 	0.81761	0.09771	0.33058	0.063
Mof_C 	C 	0.86899	0.10039	0.31522	-0.109
Mof_C 	C 	0.90992	0.14782	0.26676	0.055
Mof_C 	C 	0.89875	0.19255	0.2339	-0.107
Mof_C 	C 	0.84765	0.18915	0.2497	0.059
Mof_C 	C 	0.80694	0.14044	0.29912	-0.112
Mof_C 	C 	0.8356	0.2325	0.215	0.033
Mof_C 	C 	0.7896	0.241	0.2278	0.004
Mof_C 	C 	0.77325	0.00945	0.4299	-0.003
Mof_C 	C 	0.77525	0.04935	0.3829	0.037
Mof_C 	C 	0.00382	0.19912	0.21856	-0.007
Mof_C 	C 	0.96323	0.15363	0.25114	0.043
Mof_C 	C 	0.76158	0.3212	0.1822	0.079
Mof_C 	C 	0.70917	0.29118	0.21648	-0.055
Mof_C 	C 	0.67484	0.31552	0.20458	-0.062
Mof_C 	C 	0.69337	0.36817	0.15858	0.006
Mof_C 	C 	0.746	0.39741	0.12616	-0.059
Mof_C 	C 	0.78004	0.37317	0.13808	-0.057
Mof_C 	C 	0.61897	0.28454	0.23978	0.349
Mof_C 	C 	0.18584	0.27939	0.15746	0.009
Mof_C 	C 	0.16418	0.22832	0.20808	-0.064
Mof_C 	C 	0.11566	0.19573	0.23226	-0.056
Mof_C 	C 	0.08979	0.21532	0.20442	0.082
Mof_C 	C 	0.11075	0.26694	0.154	-0.056
Mof_C 	C 	0.15864	0.29859	0.13114	-0.066
Mof_C 	C 	0.19084	0.20876	0.2394	0.356
Mof_C 	C 	0.1791	0.35441	0.08018	0.347
Mof_C 	C 	0.76446	0.45545	0.07796	0.356
Mof_C 	C 	0.56811	0.82158	0.64798	0.349
Mof_C 	C 	0.62648	0.50205	0.6454	0.358
Mof_C 	C 	0.68527	0.51596	0.6143	-0.055
Mof_C 	C 	0.71649	0.52255	0.55982	-0.059
Mof_C 	C 	0.7698	0.53292	0.53394	0.083
Mof_C 	C 	0.7925	0.53646	0.56164	-0.056
Mof_C 	C 	0.76085	0.52945	0.61582	-0.053
Mof_C 	C 	0.70752	0.52016	0.64138	0.005
Mof_C 	C 	0.85181	0.57171	0.33058	0.066
Mof_C 	C 	0.81579	0.58439	0.31522	-0.111
Mof_C 	C 	0.82332	0.58542	0.26676	0.058
Mof_C 	C 	0.86735	0.57355	0.2339	-0.109
Mof_C 	C 	0.90265	0.56115	0.2497	0.061
Mof_C 	C 	0.89394	0.56044	0.29912	-0.114
Mof_C 	C 	0.9494	0.5525	0.215	0.031
Mof_C 	C 	0.9826	0.5312	0.2278	0.01
Mof_C 	C 	0.79685	0.56065	0.4299	0.004
Mof_C 	C 	0.84185	0.56775	0.3829	0.035
Mof_C 	C 	0.77762	0.58232	0.21856	0.001
Mof_C 	C 	0.78563	0.59523	0.25114	0.036
Mof_C 	C 	0.05622	0.4966	0.1822	0.078
Mof_C 	C 	0.07435	0.49234	0.21648	-0.055
Mof_C 	C 	0.12058	0.4799	0.20458	-0.063
Mof_C 	C 	0.14805	0.47325	0.15858	0.006
Mof_C 	C 	0.12784	0.47643	0.12616	-0.06
Mof_C 	C 	0.08188	0.48875	0.13808	-0.057
Mof_C 	C 	0.14125	0.47568	0.23978	0.349
Mof_C 	C 	0.6567	0.56315	0.15746	0.009
Mof_C 	C 	0.62774	0.5636	0.20808	-0.063
Mof_C 	C 	0.65208	0.57201	0.23226	-0.056
Mof_C 	C 	0.70579	0.58026	0.20442	0.083
Mof_C 	C 	0.73525	0.57906	0.154	-0.056
Mof_C 	C 	0.71022	0.57027	0.13114	-0.065
Mof_C 	C 	0.56976	0.55184	0.2394	0.356
Mof_C 	C 	0.74072	0.56541	0.08018	0.347
Mof_C 	C 	0.15758	0.46659	0.07796	0.356
Mof_C 	C 	0.78391	0.53044	0.64798	0.349
Mof_N 	N 	0.4391	0.1266	0.838	-0.065
Mof_N 	N 	0.4546	0.1487	0.8578	-0.032
Mof_N 	N 	0.4737	0.2008	0.8164	-0.085
Mof_N 	N 	0.4323	0.2726	0.6068	-0.072
Mof_N 	N 	0.43916	0.30496	0.55368	-0.042
Mof_N 	N 	0.44365	0.27605	0.5317	-0.085
Mof_N 	N 	0.403	0.9564	0.7794	-0.088
Mof_N 	N 	0.3822	0.9713	0.7474	-0.033
Mof_N 	N 	0.38333	0.01953	0.72934	-0.071
Mof_N 	N 	0.7229	0.0354	0.838	-0.068
Mof_N 	N 	0.6876	0.9935	0.8578	-0.029
Mof_N 	N 	0.7099	0.9828	0.8164	-0.081
Mof_N 	N 	0.9609	0.1206	0.6068	-0.07
Mof_N 	N 	0.00716	0.14136	0.55368	-0.045
Mof_N 	N 	0.02465	0.19225	0.5317	-0.088
Mof_N 	N 	0.8176	0.2642	0.7794	-0.087
Mof_N 	N 	0.8704	0.2813	0.7474	-0.035
Mof_N 	N 	0.88733	0.25113	0.72934	-0.069
Mof_N 	N 	0.1266	0.7229	0.838	-0.065
Mof_N 	N 	0.1487	0.6876	0.8578	-0.032
Mof_N 	N 	0.2008	0.7099	0.8164	-0.084
Mof_N 	N 	0.2726	0.9609	0.6068	-0.069
Mof_N 	N 	0.30496	0.00716	0.55368	-0.045
Mof_N 	N 	0.27605	0.02465	0.5317	-0.088
Mof_N 	N 	0.9564	0.8176	0.7794	-0.088
Mof_N 	N 	0.9713	0.8704	0.7474	-0.033
Mof_N 	N 	0.01953	0.88733	0.72934	-0.07
Mof_N 	N 	0.0354	0.4391	0.838	-0.068
Mof_N 	N 	0.9935	0.4546	0.8578	-0.029
Mof_N 	N 	0.9828	0.4737	0.8164	-0.081
Mof_N 	N 	0.1206	0.4323	0.6068	-0.072
Mof_N 	N 	0.14136	0.43916	0.55368	-0.043
Mof_N 	N 	0.19225	0.44365	0.5317	-0.085
Mof_N 	N 	0.2642	0.403	0.7794	-0.087
Mof_N 	N 	0.2813	0.3822	0.7474	-0.036
Mof_N 	N 	0.25113	0.38333	0.72934	-0.069
Mof_N 	N 	0.5609	0.8734	0.162	-0.077
Mof_N 	N 	0.5454	0.8513	0.1422	-0.048
Mof_N 	N 	0.5263	0.7992	0.1836	-0.087
Mof_N 	N 	0.5677	0.7274	0.3932	-0.074
Mof_N 	N 	0.56084	0.69504	0.44632	-0.043
Mof_N 	N 	0.55635	0.72395	0.4683	-0.085
Mof_N 	N 	0.597	0.0436	0.2206	-0.089
Mof_N 	N 	0.6178	0.0287	0.2526	-0.044
Mof_N 	N 	0.61667	0.98047	0.27066	-0.071
Mof_N 	N 	0.2771	0.9646	0.162	-0.075
Mof_N 	N 	0.3124	0.0065	0.1422	-0.051
Mof_N 	N 	0.2901	0.0172	0.1836	-0.09
Mof_N 	N 	0.0391	0.8794	0.3932	-0.076
Mof_N 	N 	0.99284	0.85864	0.44632	-0.04
Mof_N 	N 	0.97535	0.80775	0.4683	-0.082
Mof_N 	N 	0.1824	0.7358	0.2206	-0.089
Mof_N 	N 	0.1296	0.7187	0.2526	-0.042
Mof_N 	N 	0.11267	0.74887	0.27066	-0.074
Mof_N 	N 	0.8734	0.2771	0.162	-0.077
Mof_N 	N 	0.8513	0.3124	0.1422	-0.048
Mof_N 	N 	0.7992	0.2901	0.1836	-0.087
Mof_N 	N 	0.7274	0.0391	0.3932	-0.077
Mof_N 	N 	0.69504	0.99284	0.44632	-0.041
Mof_N 	N 	0.72395	0.97535	0.4683	-0.082
Mof_N 	N 	0.0436	0.1824	0.2206	-0.089
Mof_N 	N 	0.0287	0.1296	0.2526	-0.045
Mof_N 	N 	0.98047	0.11267	0.27066	-0.072
Mof_N 	N 	0.9646	0.5609	0.162	-0.075
Mof_N 	N 	0.0065	0.5454	0.1422	-0.051
Mof_N 	N 	0.0172	0.5263	0.1836	-0.09
Mof_N 	N 	0.8794	0.5677	0.3932	-0.073
Mof_N 	N 	0.85864	0.56084	0.44632	-0.043
Mof_N 	N 	0.80775	0.55635	0.4683	-0.085
Mof_N 	N 	0.7358	0.597	0.2206	-0.089
Mof_N 	N 	0.7187	0.6178	0.2526	-0.042
Mof_N 	N 	0.74887	0.61667	0.27066	-0.073
Mof_O 	O 	0.51068	0.23207	0.37498	-0.403
Mof_O 	O 	0.49527	0.29165	0.31074	-0.411
Mof_O 	O 	0.47515	0.44945	0.30396	-0.409
Mof_O 	O 	0.4632	0.4558	0.37696	-0.397
Mof_O 	O 	0.4526	0.83325	0.71238	-0.401
Mof_O 	O 	0.45401	0.76503	0.78492	-0.396
Mof_O 	O 	0.43162	0.84958	0.93844	-0.369
Mof_O 	O 	0.44255	0.77734	0.93922	-0.366
Mof_O 	O 	0.54213	0.19267	0.93952	-0.367
Mof_O 	O 	0.53195	0.26491	0.93868	-0.378
Mof_O 	O 	0.52388	0.397	0.71494	-0.397
Mof_O 	O 	0.52763	0.40794	0.77876	-0.397
Mof_O 	O 	0.11434	0.39295	0.37498	-0.404
Mof_O 	O 	0.19399	0.39761	0.31074	-0.411
Mof_O 	O 	0.22089	0.24659	0.30396	-0.409
Mof_O 	O 	0.15984	0.16724	0.37696	-0.398
Mof_O 	O 	0.83502	0.45437	0.71238	-0.401
Mof_O 	O 	0.76107	0.45005	0.78492	-0.396
Mof_O 	O 	0.62994	0.21198	0.93844	-0.37
Mof_O 	O 	0.61823	0.28344	0.93922	-0.366
Mof_O 	O 	0.51835	0.86781	0.93952	-0.366
Mof_O 	O 	0.52937	0.79641	0.93868	-0.378
Mof_O 	O 	0.76118	0.88806	0.71494	-0.396
Mof_O 	O 	0.69361	0.8133	0.77876	-0.396
Mof_O 	O 	0.23207	0.11434	0.37498	-0.404
Mof_O 	O 	0.29165	0.19399	0.31074	-0.411
Mof_O 	O 	0.44945	0.22089	0.30396	-0.409
Mof_O 	O 	0.4558	0.15984	0.37696	-0.397
Mof_O 	O 	0.83325	0.83502	0.71238	-0.401
Mof_O 	O 	0.76503	0.76107	0.78492	-0.395
Mof_O 	O 	0.84958	0.62994	0.93844	-0.369
Mof_O 	O 	0.77734	0.61823	0.93922	-0.366
Mof_O 	O 	0.19267	0.51835	0.93952	-0.367
Mof_O 	O 	0.26491	0.52937	0.93868	-0.378
Mof_O 	O 	0.397	0.76118	0.71494	-0.397
Mof_O 	O 	0.40794	0.69361	0.77876	-0.396
Mof_O 	O 	0.39295	0.51068	0.37498	-0.403
Mof_O 	O 	0.39761	0.49527	0.31074	-0.411
Mof_O 	O 	0.24659	0.47515	0.30396	-0.409
Mof_O 	O 	0.16724	0.4632	0.37696	-0.397
Mof_O 	O 	0.45437	0.4526	0.71238	-0.401
Mof_O 	O 	0.45005	0.45401	0.78492	-0.396
Mof_O 	O 	0.21198	0.43162	0.93844	-0.37
Mof_O 	O 	0.28344	0.44255	0.93922	-0.366
Mof_O 	O 	0.86781	0.54213	0.93952	-0.366
Mof_O 	O 	0.79641	0.53195	0.93868	-0.378
Mof_O 	O 	0.88806	0.52388	0.71494	-0.396
Mof_O 	O 	0.8133	0.52763	0.77876	-0.396
Mof_O 	O 	0.48932	0.76793	0.62502	-0.403
Mof_O 	O 	0.50473	0.70835	0.68926	-0.407
Mof_O 	O 	0.52485	0.55055	0.69604	-0.404
Mof_O 	O 	0.5368	0.5442	0.62304	-0.397
Mof_O 	O 	0.5474	0.16675	0.28762	-0.405
Mof_O 	O 	0.54599	0.23497	0.21508	-0.407
Mof_O 	O 	0.56838	0.15042	0.06156	-0.418
Mof_O 	O 	0.55745	0.22266	0.06078	-0.417
Mof_O 	O 	0.45787	0.80733	0.06048	-0.415
Mof_O 	O 	0.46805	0.73509	0.06132	-0.427
Mof_O 	O 	0.47612	0.603	0.28506	-0.4
Mof_O 	O 	0.47237	0.59206	0.22124	-0.406
Mof_O 	O 	0.88566	0.60705	0.62502	-0.402
Mof_O 	O 	0.80601	0.60239	0.68926	-0.407
Mof_O 	O 	0.77911	0.75341	0.69604	-0.404
Mof_O 	O 	0.84016	0.83276	0.62304	-0.396
Mof_O 	O 	0.16498	0.54563	0.28762	-0.405
Mof_O 	O 	0.23893	0.54995	0.21508	-0.406
Mof_O 	O 	0.37006	0.78802	0.06156	-0.418
Mof_O 	O 	0.38177	0.71656	0.06078	-0.417
Mof_O 	O 	0.48165	0.13219	0.06048	-0.416
Mof_O 	O 	0.47063	0.20359	0.06132	-0.427
Mof_O 	O 	0.23882	0.11194	0.28506	-0.401
Mof_O 	O 	0.30639	0.1867	0.22124	-0.406
Mof_O 	O 	0.76793	0.88566	0.62502	-0.402
Mof_O 	O 	0.70835	0.80601	0.68926	-0.407
Mof_O 	O 	0.55055	0.77911	0.69604	-0.404
Mof_O 	O 	0.5442	0.84016	0.62304	-0.396
Mof_O 	O 	0.16675	0.16498	0.28762	-0.405
Mof_O 	O 	0.23497	0.23893	0.21508	-0.407
Mof_O 	O 	0.15042	0.37006	0.06156	-0.419
Mof_O 	O 	0.22266	0.38177	0.06078	-0.417
Mof_O 	O 	0.80733	0.48165	0.06048	-0.415
Mof_O 	O 	0.73509	0.47063	0.06132	-0.427
Mof_O 	O 	0.603	0.23882	0.28506	-0.4
Mof_O 	O 	0.59206	0.30639	0.22124	-0.406
Mof_O 	O 	0.60705	0.48932	0.62502	-0.403
Mof_O 	O 	0.60239	0.50473	0.68926	-0.407
Mof_O 	O 	0.75341	0.52485	0.69604	-0.404
Mof_O 	O 	0.83276	0.5368	0.62304	-0.396
Mof_O 	O 	0.54563	0.5474	0.28762	-0.404
Mof_O 	O 	0.54995	0.54599	0.21508	-0.406
Mof_O 	O 	0.78802	0.56838	0.06156	-0.418
Mof_O 	O 	0.71656	0.55745	0.06078	-0.417
Mof_O 	O 	0.13219	0.45787	0.06048	-0.416
Mof_O 	O 	0.20359	0.46805	0.06132	-0.427
Mof_O 	O 	0.11194	0.47612	0.28506	-0.4
Mof_O 	O 	0.1867	0.47237	0.22124	-0.406
_end
