data_functionalizedCrystal
_audit_creation_method	'EQeq! by Chris Wilmer'
_symmetry_space_group_name_H-M	'P1'
_symmetry_Int_Tables_number	1
_symmetry_cell_setting	triclinic
loop_
_symmetry_equiv_pos_as_xyz
  x,y,z
_cell_length_a	13.4779
_cell_length_b	13.4779
_cell_length_c	11.1085
_cell_angle_alpha	93.0476
_cell_angle_beta	93.0476
_cell_angle_gamma	69.2325
loop_
_atom_site_label
_atom_site_type_symbol
_atom_site_fract_x
_atom_site_fract_y
_atom_site_fract_z
_atom_site_charge
Mof_F 	F 	0.731	0.5244	0.6629	-0.38
Mof_N 	N 	0.2708	0.7254	0.8174	-0.197
Mof_N 	N 	0.3609	0.8213	0.0067	-0.203
Mof_C 	C 	0.3115	0.6369	0.7514	0.112
Mof_C 	C 	0.3137	0.6359	0.6253	-0.09
Mof_C 	C 	0.2679	0.7299	0.5669	0.09
Mof_C 	C 	0.225	0.8196	0.6368	-0.085
Mof_C 	C 	0.2271	0.8165	0.7598	0.089
Mof_C 	C 	0.4478	0.7978	0.9441	0.079
Mof_C 	C 	0.503	0.8674	0.939	0.027
Mof_C 	C 	0.4704	0.9618	0.001	-0.072
Mof_C 	C 	0.3821	0.9843	0.0689	0.099
Mof_C 	C 	0.3292	0.914	0.0689	0.003
Mof_H 	H 	0.3408	0.5706	0.7923	0.047
Mof_H 	H 	0.3476	0.5696	0.579	0.162
Mof_H 	H 	0.19	0.887	0.5975	0.109
Mof_H 	H 	0.1953	0.8819	0.8076	0.097
Mof_H 	H 	0.472	0.7308	0.8989	0.093
Mof_H 	H 	0.5659	0.8473	0.8911	0.108
Mof_H 	H 	0.3549	0.0517	0.1146	0.005
Mof_H 	H 	0.2667	0.9309	0.1153	0.106
Mof_F 	F 	0.4756	0.269	0.3371	-0.389
Mof_N 	N 	0.2746	0.7292	0.1826	-0.21
Mof_N 	N 	0.1787	0.6391	0.9933	-0.201
Mof_C 	C 	0.3631	0.6885	0.2486	0.121
Mof_C 	C 	0.3641	0.6863	0.3747	-0.095
Mof_C 	C 	0.2701	0.7321	0.4331	0.098
Mof_C 	C 	0.1804	0.775	0.3632	-0.095
Mof_C 	C 	0.1835	0.7729	0.2402	0.096
Mof_C 	C 	0.2022	0.5522	0.0559	0.103
Mof_C 	C 	0.1326	0.497	0.061	-0.222
Mof_C 	C 	0.0382	0.5296	0.999	0.233
Mof_C 	C 	0.0157	0.6179	0.9311	-0.281
Mof_C 	C 	0.086	0.6708	0.9311	0.191
Mof_H 	H 	0.4294	0.6592	0.2077	0.033
Mof_H 	H 	0.4304	0.6524	0.421	0.166
Mof_H 	H 	0.113	0.81	0.4025	0.101
Mof_H 	H 	0.1181	0.8047	0.1924	0.066
Mof_H 	H 	0.2692	0.528	0.1011	0.072
Mof_H 	H 	0.1527	0.4341	0.1089	0.167
Mof_H 	H 	0.9483	0.6451	0.8854	0.215
Mof_H 	H 	0.0691	0.7333	0.8847	0.03
Mof_F 	F 	0.269	0.4756	0.3371	-0.389
Mof_N 	N 	0.7292	0.2746	0.1826	-0.21
Mof_N 	N 	0.6391	0.1787	0.9933	-0.201
Mof_C 	C 	0.6885	0.3631	0.2486	0.121
Mof_C 	C 	0.6863	0.3641	0.3747	-0.095
Mof_C 	C 	0.7321	0.2701	0.4331	0.098
Mof_C 	C 	0.775	0.1804	0.3632	-0.095
Mof_C 	C 	0.7729	0.1835	0.2402	0.096
Mof_C 	C 	0.5522	0.2022	0.0559	0.103
Mof_C 	C 	0.497	0.1326	0.061	-0.222
Mof_C 	C 	0.5296	0.0382	0.999	0.233
Mof_C 	C 	0.6179	0.0157	0.9311	-0.281
Mof_C 	C 	0.6708	0.086	0.9311	0.191
Mof_H 	H 	0.6592	0.4294	0.2077	0.033
Mof_H 	H 	0.6524	0.4304	0.421	0.166
Mof_H 	H 	0.81	0.113	0.4025	0.101
Mof_H 	H 	0.8047	0.1181	0.1924	0.066
Mof_H 	H 	0.528	0.2692	0.1011	0.072
Mof_H 	H 	0.4341	0.1527	0.1089	0.167
Mof_H 	H 	0.6451	0.9483	0.8854	0.215
Mof_H 	H 	0.7333	0.0691	0.8847	0.03
Mof_F 	F 	0.5244	0.731	0.6629	-0.379
Mof_N 	N 	0.7254	0.2708	0.8174	-0.196
Mof_N 	N 	0.8213	0.3609	0.0067	-0.202
Mof_C 	C 	0.6369	0.3115	0.7514	0.113
Mof_C 	C 	0.6359	0.3137	0.6253	-0.09
Mof_C 	C 	0.7299	0.2679	0.5669	0.09
Mof_C 	C 	0.8196	0.225	0.6368	-0.085
Mof_C 	C 	0.8165	0.2271	0.7598	0.089
Mof_C 	C 	0.7978	0.4478	0.9441	0.079
Mof_C 	C 	0.8674	0.503	0.939	0.027
Mof_C 	C 	0.9618	0.4704	0.001	-0.072
Mof_C 	C 	0.9843	0.3821	0.0689	0.099
Mof_C 	C 	0.914	0.3292	0.0689	0.003
Mof_H 	H 	0.5706	0.3408	0.7923	0.047
Mof_H 	H 	0.5696	0.3476	0.579	0.162
Mof_H 	H 	0.887	0.19	0.5975	0.109
Mof_H 	H 	0.8819	0.1953	0.8076	0.097
Mof_H 	H 	0.7308	0.472	0.8989	0.093
Mof_H 	H 	0.8473	0.5659	0.8911	0.108
Mof_H 	H 	0.0517	0.3549	0.1146	0.005
Mof_H 	H 	0.9309	0.2667	0.1153	0.106
Mof_Cu	Cu	0.27775	0.72225	-0	0.898
Mof_F 	F 	0.1027	0.8973	-0	-0.456
Mof_O 	O 	0.4284	0.5716	-0	-0.244
Mof_Cu	Cu	0.72225	0.27775	-0	0.898
Mof_F 	F 	0.8973	0.1027	-0	-0.456
Mof_O 	O 	0.5716	0.4284	-0	-0.244
Mof_P 	P 	-0	0	-0	1.093
Mof_P 	P 	0.6316	0.6316	0.66	1.178
Mof_F 	F 	0.5821	0.5821	0.7575	-0.384
Mof_F 	F 	0.5839	0.5839	0.5561	-0.412
Mof_F 	F 	0.682	0.682	0.5709	-0.366
Mof_F 	F 	0.6759	0.6759	0.7729	-0.4
Mof_P 	P 	0.3684	0.3684	0.34	1.18
Mof_F 	F 	0.4179	0.4179	0.2425	-0.389
Mof_F 	F 	0.4161	0.4161	0.4439	-0.415
Mof_F 	F 	0.318	0.318	0.4291	-0.386
Mof_F 	F 	0.3241	0.3241	0.2271	-0.415
Mof_O 	O 	0.4341	0.4341	0.9275	-0.083
Mof_N 	N 	0.4862	0.4862	0.981	0.162
Mof_F 	F 	0.9729	0.9729	0.1175	-0.349
Mof_F 	F 	0.0631	0.0631	0.057	-0.453
Mof_F 	F 	0.0271	0.0271	0.8825	-0.435
Mof_F 	F 	0.9369	0.9369	0.943	-0.322
_end
