data_functionalizedCrystal
_audit_creation_method	'EQeq! by Chris Wilmer'
_symmetry_space_group_name_H-M	'P1'
_symmetry_Int_Tables_number	1
_symmetry_cell_setting	triclinic
loop_
_symmetry_equiv_pos_as_xyz
  x,y,z
_cell_length_a	11.234
_cell_length_b	11.5767
_cell_length_c	11.5767
_cell_angle_alpha	109.098
_cell_angle_beta	100.1
_cell_angle_gamma	100.1
loop_
_atom_site_label
_atom_site_type_symbol
_atom_site_fract_x
_atom_site_fract_y
_atom_site_fract_z
_atom_site_charge
Mof_Na	Na	0.75	0.1418	0.8582	3.206
Mof_Na	Na	0.75	0.9507	0.0493	2.233
Mof_Na	Na	0.25	0.8582	0.1418	3.205
Mof_Na	Na	0.25	0.0493	0.9507	2.232
Mof_Cu	Cu	0.0193	0.1653	0.7757	0.848
Mof_Cu	Cu	0.4807	0.2243	0.8347	0.853
Mof_Cu	Cu	0.9807	0.8347	0.2243	0.848
Mof_Cu	Cu	0.5193	0.7757	0.1653	0.853
Mof_H 	H 	0.8581	0.9776	0.6606	0.458
Mof_H 	H 	0.9003	0.9641	0.7785	0.27
Mof_H 	H 	0.8615	0.353	0.1256	-0.174
Mof_H 	H 	0.2513	0.6025	0.1809	0.129
Mof_H 	H 	0.2239	0.3904	0.1392	-0.167
Mof_H 	H 	0.6419	0.3394	0.0224	0.479
Mof_H 	H 	0.5997	0.2215	0.0359	0.287
Mof_H 	H 	0.6385	0.8744	0.647	-0.173
Mof_H 	H 	0.2487	0.8191	0.3975	0.13
Mof_H 	H 	0.2761	0.8608	0.6096	-0.164
Mof_H 	H 	0.1419	0.0224	0.3394	0.458
Mof_H 	H 	0.0997	0.0359	0.2215	0.27
Mof_H 	H 	0.1385	0.647	0.8744	-0.174
Mof_H 	H 	0.7487	0.3975	0.8191	0.129
Mof_H 	H 	0.7761	0.6096	0.8608	-0.167
Mof_H 	H 	0.3581	0.6606	0.9776	0.479
Mof_H 	H 	0.4003	0.7785	0.9641	0.287
Mof_H 	H 	0.3615	0.1256	0.353	-0.173
Mof_H 	H 	0.7513	0.1809	0.6025	0.13
Mof_H 	H 	0.7239	0.1392	0.3904	-0.164
Mof_C 	C 	0.0361	0.3505	0.1225	-0.492
Mof_C 	C 	0.9388	0.4037	0.1333	0.358
Mof_C 	C 	0.9496	0.533	0.156	-0.445
Mof_C 	C 	0.0693	0.6112	0.1716	0.487
Mof_C 	C 	0.1716	0.5529	0.1669	-0.51
Mof_C 	C 	0.1559	0.4259	0.1425	0.394
Mof_C 	C 	0.8341	0.5798	0.152	0.479
Mof_C 	C 	0.4639	0.8775	0.6495	-0.487
Mof_C 	C 	0.5612	0.8667	0.5963	0.349
Mof_C 	C 	0.5504	0.844	0.467	-0.441
Mof_C 	C 	0.4307	0.8284	0.3888	0.486
Mof_C 	C 	0.3284	0.8331	0.4471	-0.506
Mof_C 	C 	0.3441	0.8575	0.5741	0.392
Mof_C 	C 	0.6659	0.848	0.4202	0.477
Mof_C 	C 	0.9639	0.6495	0.8775	-0.492
Mof_C 	C 	0.0612	0.5963	0.8667	0.358
Mof_C 	C 	0.0504	0.467	0.844	-0.445
Mof_C 	C 	0.9307	0.3888	0.8284	0.487
Mof_C 	C 	0.8284	0.4471	0.8331	-0.51
Mof_C 	C 	0.8441	0.5741	0.8575	0.394
Mof_C 	C 	0.1659	0.4202	0.848	0.479
Mof_C 	C 	0.5361	0.1225	0.3505	-0.487
Mof_C 	C 	0.4388	0.1333	0.4037	0.349
Mof_C 	C 	0.4496	0.156	0.533	-0.441
Mof_C 	C 	0.5693	0.1716	0.6112	0.486
Mof_C 	C 	0.6716	0.1669	0.5529	-0.506
Mof_C 	C 	0.6559	0.1425	0.4259	0.392
Mof_C 	C 	0.3341	0.152	0.5798	0.477
Mof_S 	S 	0.0163	0.1875	0.0851	0.891
Mof_S 	S 	0.4837	0.9149	0.8125	0.914
Mof_S 	S 	0.9837	0.8125	0.9149	0.891
Mof_S 	S 	0.5163	0.0851	0.1875	0.914
Mof_O 	O 	0.8824	0.1314	0.0398	-1.012
Mof_O 	O 	0.0817	0.1455	0.9869	-0.801
Mof_O 	O 	0.0715	0.1699	0.1997	-0.504
Mof_O 	O 	0.7304	0.5027	0.1265	-0.407
Mof_O 	O 	0.839	0.6953	0.1751	-0.522
Mof_O 	O 	0.0918	0.731	0.1886	-0.835
Mof_O 	O 	0.8773	0.0195	0.7365	-1.169
Mof_O 	O 	0.6176	0.9602	0.8686	-1.029
Mof_O 	O 	0.4183	0.0131	0.8545	-0.806
Mof_O 	O 	0.4285	0.8003	0.8301	-0.506
Mof_O 	O 	0.7696	0.8735	0.4973	-0.408
Mof_O 	O 	0.661	0.8249	0.3047	-0.521
Mof_O 	O 	0.4082	0.8114	0.269	-0.836
Mof_O 	O 	0.6227	0.2635	0.9805	-1.204
Mof_O 	O 	0.1176	0.8686	0.9602	-1.012
Mof_O 	O 	0.9183	0.8545	0.0131	-0.801
Mof_O 	O 	0.9285	0.8301	0.8003	-0.504
Mof_O 	O 	0.2696	0.4973	0.8735	-0.407
Mof_O 	O 	0.161	0.3047	0.8249	-0.522
Mof_O 	O 	0.9082	0.269	0.8114	-0.835
Mof_O 	O 	0.1227	0.9805	0.2635	-1.169
Mof_O 	O 	0.3824	0.0398	0.1314	-1.029
Mof_O 	O 	0.5817	0.9869	0.1455	-0.806
Mof_O 	O 	0.5715	0.1997	0.1699	-0.506
Mof_O 	O 	0.2304	0.1265	0.5027	-0.408
Mof_O 	O 	0.339	0.1751	0.6953	-0.521
Mof_O 	O 	0.5918	0.1886	0.731	-0.836
Mof_O 	O 	0.3773	0.7365	0.0195	-1.204
_end
