data_functionalizedCrystal
_audit_creation_method	'EQeq! by Chris Wilmer'
_symmetry_space_group_name_H-M	'P1'
_symmetry_Int_Tables_number	1
_symmetry_cell_setting	triclinic
loop_
_symmetry_equiv_pos_as_xyz
  x,y,z
_cell_length_a	41.275
_cell_length_b	13.1665
_cell_length_c	24.798
_cell_angle_alpha	90
_cell_angle_beta	90
_cell_angle_gamma	90
loop_
_atom_site_label
_atom_site_type_symbol
_atom_site_fract_x
_atom_site_fract_y
_atom_site_fract_z
_atom_site_charge
Mof_Ni	Ni	0.07975	0.61824	0.95193	1.079
Mof_Ni	Ni	0.13109	0.67477	0.86253	1.093
Mof_Ni	Ni	0.09512	0.21769	0.97422	0.999
Mof_Ni	Ni	0.21963	0.3125	0.07145	1.096
Mof_Ni	Ni	0.11025	0.82631	0.95433	1.102
Mof_Ni	Ni	0.06494	0.76882	0.85563	1.102
Mof_Ni	Ni	0.23112	0.15459	0.16707	1.077
Mof_Ni	Ni	0.09743	0.75696	0.15458	1.082
Mof_K 	K 	0.10184	0.22628	0.81105	2.966
Mof_K 	K 	0.18214	0.40411	0.79596	3.649
Mof_K 	K 	0.03739	0.46654	0.04725	2.701
Mof_K 	K 	0.31883	0.813	0.13506	3.406
Mof_K 	K 	0.09326	0.4781	0.18099	3.467
Mof_K 	K 	0.12552	0.4587	0.68729	2.68
Mof_K 	K 	0.23878	0.813	0.8313	0.947
Mof_O 	O 	0.1124	0.6832	0.37	-0.595
Mof_O 	O 	0.0826	0.6267	0.8688	-0.597
Mof_O 	O 	0.06417	0.769	0.9396	-0.595
Mof_O 	O 	0.12495	0.6767	0.9459	-0.603
Mof_O 	O 	0.06675	0.7403	0.7733	-0.512
Mof_O 	O 	0.01682	0.7408	0.8513	-0.468
Mof_O 	O 	0.06255	0.5819	0.3318	-0.491
Mof_O 	O 	0.06449	0.6516	0.184	-1.318
Mof_H 	H 	0.0475	0.6506	0.1645	0.341
Mof_H 	H 	0.0591	0.6663	0.2161	0.435
Mof_O 	O 	0.11845	0.6527	0.1039	-0.951
Mof_O 	O 	0.06335	0.8088	0.101	-0.504
Mof_O 	O 	0.13078	0.8622	0.1264	-0.319
Mof_H 	H 	0.1499	0.839	0.1302	-0.185
Mof_H 	H 	0.1292	0.9167	0.1445	-0.331
Mof_O 	O 	0.07827	0.6358	0.7059	-0.631
Mof_O 	O 	0.1295	0.6963	0.2101	-0.877
Mof_O 	O 	0.11358	0.3717	0.4141	-0.717
Mof_O 	O 	0.08066	0.3153	0.9135	-0.741
Mof_O 	O 	0.07929	0.3033	0.0389	-0.643
Mof_O 	O 	0.22326	0.3258	0.316	-0.597
Mof_O 	O 	0.27973	0.3285	0.9233	-0.427
Mof_O 	O 	0.21874	0.3774	0.8846	-1.263
Mof_H 	H 	0.23	0.4304	0.8905	0.396
Mof_H 	H 	0.2067	0.3666	0.9118	0.4
Mof_O 	O 	0.22149	0.3102	0.1549	-0.588
Mof_O 	O 	0.28328	0.2168	0.9899	-0.47
Mof_O 	O 	0.22324	0.462	0.0514	-0.6
Mof_O 	O 	0.16998	0.3126	0.0714	-0.479
Mof_O 	O 	0.26946	0.3383	0.0837	-0.593
Mof_O 	O 	0.18312	0.1628	0.1875	-0.912
Mof_O 	O 	0.26675	0.4987	0.1638	-0.619
Mof_O 	O 	0.08801	0.4655	0.9518	-0.627
Mof_O 	O 	0.13384	0.8016	0.2796	-0.533
Mof_O 	O 	0.17884	0.703	0.8683	-0.681
Mof_O 	O 	0.08477	0.6187	0.0362	-0.753
Mof_O 	O 	0.03081	0.6056	0.9681	-0.823
Mof_O 	O 	0.10238	0.5226	0.4499	-0.513
Mof_O 	O 	0.15652	0.8359	0.9833	-0.504
Mof_O 	O 	0.09795	0.8369	0.0342	-0.491
Mof_O 	O 	0.14568	0.2674	0.2204	-0.87
Mof_O 	O 	0.25907	0.3528	0.2496	-0.804
Mof_O 	O 	0.11097	0.4198	0.7887	-1.173
Mof_O 	O 	0.13617	0.5259	0.8444	-0.791
Mof_O 	O 	0.12477	0.3812	0.1022	-0.745
Mof_O 	O 	0.25717	0.5697	0.0107	-1.251
Mof_O 	O 	0.22228	0.7023	0.9204	-1.37
Mof_O 	O 	0.19197	0.7429	0.0299	-1.427
Mof_O 	O 	0.96962	0.7329	0.8912	-0.515
Mof_O 	O 	0.99474	0.6914	0.0158	-0.595
Mof_O 	O 	0.09307	0.47	0.2883	-1.002
Mof_O 	O 	0.2978	0.6294	0.1494	-0.861
Mof_O 	O 	0.2336	0.9754	0.8962	-0.468
Mof_O 	O 	0.2701	0.8405	0.2115	-1.035
Mof_H 	H 	0.2785	0.8562	0.2417	0.09
Mof_H 	H 	0.2574	0.8876	0.2012	0.277
Mof_O 	O 	0.1618	0.2367	0.852	-1.098
Mof_H 	H 	0.1748	0.1757	0.8432	0.222
Mof_H 	H 	0.1618	0.248	0.8914	0.198
Mof_O 	O 	0.024	0.3976	0.2089	-0.289
Mof_O 	O 	0.2028	0.6039	0.7704	-0.402
Mof_C 	C 	0.1351	0.7141	0.2585	0.444
Mof_C 	C 	0.1444	0.6243	0.2938	-0.301
Mof_H 	H 	0.1659	0.6385	0.3098	-0.038
Mof_H 	H 	0.1468	0.5639	0.2704	-0.076
Mof_C 	C 	0.1211	0.5977	0.3394	0.123
Mof_C 	C 	0.1387	0.517	0.3745	-0.379
Mof_H 	H 	0.1478	0.464	0.3506	0.027
Mof_H 	H 	0.157	0.55	0.3935	0.079
Mof_C 	C 	0.1167	0.4672	0.4157	0.435
Mof_C 	C 	0.0899	0.5463	0.3174	0.367
Mof_C 	C 	0.1678	0.752	-0	0.433
Mof_C 	C 	0.1515	0.6521	0.9795	0.135
Mof_C 	C 	0.1409	0.5809	0.0252	-0.367
Mof_H 	H 	0.1351	0.5142	0.0096	0.067
Mof_H 	H 	0.1595	0.5703	0.0499	-0.118
Mof_C 	C 	0.1125	0.6204	0.0574	0.482
Mof_C 	C 	0.0103	0.8413	0.931	-0.48
Mof_H 	H 	0.9918	0.865	0.9531	0.119
Mof_H 	H 	0.0202	0.9015	0.9137	0.123
Mof_C 	C 	0.03538	0.7904	0.9678	0.271
Mof_C 	C 	0.0414	0.8628	0.016	-0.48
Mof_H 	H 	0.0455	0.9319	0.0019	0.121
Mof_H 	H 	0.0214	0.8659	0.0381	0.124
Mof_C 	C 	0.0696	0.8326	0.0526	0.442
Mof_C 	C 	0.2869	0.3045	0.9715	0.419
Mof_C 	C 	0.3017	0.3886	0.006	-0.383
Mof_H 	H 	0.3059	0.4482	0.9827	0.129
Mof_H 	H 	0.3228	0.3647	0.02	0.08
Mof_C 	C 	0.2516	0.4902	0.037	0.503
Mof_C 	C 	0.1725	0.2512	0.1987	0.28
Mof_C 	C 	0.2312	0.3554	0.2691	0.431
Mof_C 	C 	0.077	0.4102	0.9147	0.405
Mof_C 	C 	0.0583	0.4573	0.8688	-0.346
Mof_H 	H 	0.0382	0.4883	0.8833	0.007
Mof_H 	H 	0.0518	0.4031	0.8433	-0.034
Mof_C 	C 	0.0776	0.5399	0.8373	0.167
Mof_C 	C 	0.0578	0.5633	0.7866	-0.438
Mof_H 	H 	0.0579	0.5021	0.7634	0.034
Mof_H 	H 	0.0351	0.5754	0.7976	0.14
Mof_C 	C 	0.1109	0.4913	0.8219	0.346
Mof_C 	C 	0.0193	0.6889	0.9864	0.211
Mof_C 	C 	0.9978	0.7693	0.8873	0.439
Mof_C 	C 	0.1782	0.5949	0.947	-0.446
Mof_H 	H 	0.1944	0.5654	0.972	0.034
Mof_H 	H 	0.1684	0.539	0.9259	0.044
Mof_C 	C 	0.1946	0.6705	0.9093	0.598
Mof_C 	C 	0.2806	0.4227	0.054	0.119
Mof_C 	C 	0.3033	0.4921	0.0879	-0.364
Mof_H 	H 	0.3218	0.4507	0.1006	-0.026
Mof_H 	H 	0.3121	0.5455	0.064	0.031
Mof_C 	C 	0.2881	0.5433	0.1365	0.465
Mof_C 	C 	0.1941	0.3429	0.1845	0.073
Mof_C 	C 	0.2039	0.4018	0.2361	-0.268
Mof_H 	H 	0.2103	0.4714	0.2255	-0.035
Mof_H 	H 	0.1845	0.4078	0.2595	-0.036
Mof_C 	C 	0.1548	0.3663	0.1049	0.362
Mof_C 	C 	0.0687	0.6518	0.7533	0.466
Mof_C 	C 	0.1739	0.4192	0.1498	-0.157
Mof_H 	H 	0.1587	0.4561	0.1736	-0.278
Mof_H 	H 	0.1888	0.4696	0.1335	-0.177
Mof_O 	O 	0.0811	0.2196	0.6979	-0.856
Mof_K 	K 	0.2301	0.8244	0.8256	0.599
Mof_O 	O 	0.028	0.4563	0.1564	-0.708
Mof_O 	O 	0.1819	0.5703	0.748	-0.669
Mof_Ni	Ni	0.42025	0.88176	0.95193	1.082
Mof_Ni	Ni	0.36891	0.82523	0.86253	1.095
Mof_Ni	Ni	0.40488	0.28231	0.97422	1
Mof_Ni	Ni	0.28037	0.1875	0.07145	1.096
Mof_Ni	Ni	0.38975	0.67369	0.95433	1.103
Mof_Ni	Ni	0.43506	0.73118	0.85563	1.102
Mof_Ni	Ni	0.26888	0.34541	0.16707	1.077
Mof_Ni	Ni	0.40257	0.74304	0.15458	1.081
Mof_K 	K 	0.39816	0.27372	0.81105	2.97
Mof_K 	K 	0.31786	0.09589	0.79596	3.607
Mof_K 	K 	0.46261	0.03346	0.04725	2.7
Mof_K 	K 	0.18117	0.687	0.13506	3.383
Mof_K 	K 	0.40674	0.0219	0.18099	3.439
Mof_K 	K 	0.37448	0.0413	0.68729	2.632
Mof_K 	K 	0.26122	0.687	0.8313	0.928
Mof_O 	O 	0.3876	0.8168	0.37	-0.593
Mof_O 	O 	0.4174	0.8733	0.8688	-0.599
Mof_O 	O 	0.43583	0.731	0.9396	-0.595
Mof_O 	O 	0.37505	0.8233	0.9459	-0.603
Mof_O 	O 	0.43325	0.7597	0.7733	-0.513
Mof_O 	O 	0.48318	0.7592	0.8513	-0.469
Mof_O 	O 	0.43745	0.9181	0.3318	-0.493
Mof_O 	O 	0.43551	0.8484	0.184	-1.312
Mof_H 	H 	0.4525	0.8494	0.1645	0.341
Mof_H 	H 	0.4409	0.8337	0.2161	0.434
Mof_O 	O 	0.38155	0.8473	0.1039	-0.95
Mof_O 	O 	0.43665	0.6912	0.101	-0.505
Mof_O 	O 	0.36922	0.6378	0.1264	-0.312
Mof_H 	H 	0.3501	0.661	0.1302	-0.192
Mof_H 	H 	0.3708	0.5833	0.1445	-0.345
Mof_O 	O 	0.42173	0.8642	0.7059	-0.628
Mof_O 	O 	0.3705	0.8037	0.2101	-0.876
Mof_O 	O 	0.38642	0.1283	0.4141	-0.709
Mof_O 	O 	0.41934	0.1847	0.9135	-0.743
Mof_O 	O 	0.42071	0.1967	0.0389	-0.643
Mof_O 	O 	0.27674	0.1742	0.316	-0.599
Mof_O 	O 	0.22027	0.1715	0.9233	-0.43
Mof_O 	O 	0.28126	0.1226	0.8846	-1.255
Mof_H 	H 	0.27	0.0696	0.8905	0.388
Mof_H 	H 	0.2933	0.1334	0.9118	0.396
Mof_O 	O 	0.27851	0.1898	0.1549	-0.588
Mof_O 	O 	0.21672	0.2832	0.9899	-0.47
Mof_O 	O 	0.27676	0.038	0.0514	-0.599
Mof_O 	O 	0.33002	0.1874	0.0714	-0.479
Mof_O 	O 	0.23054	0.1617	0.0837	-0.597
Mof_O 	O 	0.31688	0.3372	0.1875	-0.916
Mof_O 	O 	0.23325	0.0013	0.1638	-0.643
Mof_O 	O 	0.41199	0.0345	0.9518	-0.634
Mof_O 	O 	0.36616	0.6984	0.2796	-0.535
Mof_O 	O 	0.32116	0.797	0.8683	-0.679
Mof_O 	O 	0.41523	0.8813	0.0362	-0.752
Mof_O 	O 	0.46919	0.8944	0.9681	-0.822
Mof_O 	O 	0.39762	0.9774	0.4499	-0.498
Mof_O 	O 	0.34348	0.6641	0.9833	-0.506
Mof_O 	O 	0.40205	0.6631	0.0342	-0.492
Mof_O 	O 	0.35432	0.2326	0.2204	-0.873
Mof_O 	O 	0.24093	0.1472	0.2496	-0.801
Mof_O 	O 	0.38903	0.0802	0.7887	-1.162
Mof_O 	O 	0.36383	0.9741	0.8444	-0.772
Mof_O 	O 	0.37523	0.1188	0.1022	-0.744
Mof_O 	O 	0.24283	0.9303	0.0107	-1.235
Mof_O 	O 	0.27772	0.7977	0.9204	-1.37
Mof_O 	O 	0.30803	0.7571	0.0299	-1.429
Mof_O 	O 	0.53038	0.7671	0.8912	-0.515
Mof_O 	O 	0.50526	0.8086	0.0158	-0.594
Mof_O 	O 	0.40693	0.03	0.2883	-1.008
Mof_O 	O 	0.2022	0.8706	0.1494	-0.87
Mof_O 	O 	0.2664	0.5246	0.8962	-0.474
Mof_O 	O 	0.2299	0.6595	0.2115	-1.031
Mof_H 	H 	0.2215	0.6438	0.2417	0.09
Mof_H 	H 	0.2426	0.6124	0.2012	0.271
Mof_O 	O 	0.3382	0.2633	0.852	-1.095
Mof_H 	H 	0.3252	0.3243	0.8432	0.222
Mof_H 	H 	0.3382	0.252	0.8914	0.198
Mof_O 	O 	0.476	0.1024	0.2089	-0.288
Mof_O 	O 	0.2972	0.8961	0.7704	-0.399
Mof_C 	C 	0.3649	0.7859	0.2585	0.443
Mof_C 	C 	0.3556	0.8757	0.2938	-0.294
Mof_H 	H 	0.3341	0.8615	0.3098	-0.04
Mof_H 	H 	0.3532	0.9361	0.2704	-0.073
Mof_C 	C 	0.3789	0.9023	0.3394	0.109
Mof_C 	C 	0.3613	0.983	0.3745	-0.33
Mof_H 	H 	0.3522	0.036	0.3506	0.006
Mof_H 	H 	0.343	0.95	0.3935	0.068
Mof_C 	C 	0.3833	0.0328	0.4157	0.402
Mof_C 	C 	0.4101	0.9537	0.3174	0.381
Mof_C 	C 	0.3322	0.748	-0	0.433
Mof_C 	C 	0.3485	0.8479	0.9795	0.138
Mof_C 	C 	0.3591	0.9191	0.0252	-0.372
Mof_H 	H 	0.3649	0.9858	0.0096	0.073
Mof_H 	H 	0.3405	0.9297	0.0499	-0.114
Mof_C 	C 	0.3875	0.8796	0.0574	0.486
Mof_C 	C 	0.4897	0.6587	0.931	-0.484
Mof_H 	H 	0.5082	0.635	0.9531	0.121
Mof_H 	H 	0.4798	0.5985	0.9137	0.123
Mof_C 	C 	0.46462	0.7096	0.9678	0.272
Mof_C 	C 	0.4586	0.6372	0.016	-0.48
Mof_H 	H 	0.4545	0.5681	0.0019	0.12
Mof_H 	H 	0.4786	0.6341	0.0381	0.124
Mof_C 	C 	0.4304	0.6674	0.0526	0.442
Mof_C 	C 	0.2131	0.1955	0.9715	0.422
Mof_C 	C 	0.1983	0.1114	0.006	-0.393
Mof_H 	H 	0.1941	0.0518	0.9827	0.127
Mof_H 	H 	0.1772	0.1353	0.02	0.082
Mof_C 	C 	0.2484	0.0098	0.037	0.478
Mof_C 	C 	0.3275	0.2488	0.1987	0.279
Mof_C 	C 	0.2688	0.1446	0.2691	0.427
Mof_C 	C 	0.423	0.0898	0.9147	0.41
Mof_C 	C 	0.4417	0.0427	0.8688	-0.362
Mof_H 	H 	0.4618	0.0117	0.8833	0.011
Mof_H 	H 	0.4482	0.0969	0.8433	-0.03
Mof_C 	C 	0.4224	0.9601	0.8373	0.187
Mof_C 	C 	0.4422	0.9367	0.7866	-0.447
Mof_H 	H 	0.4421	0.9979	0.7634	0.04
Mof_H 	H 	0.4649	0.9246	0.7976	0.143
Mof_C 	C 	0.3891	0.0087	0.8219	0.321
Mof_C 	C 	0.4807	0.8111	0.9864	0.21
Mof_C 	C 	0.5022	0.7307	0.8873	0.442
Mof_C 	C 	0.3218	0.9051	0.947	-0.451
Mof_H 	H 	0.3056	0.9346	0.972	0.039
Mof_H 	H 	0.3316	0.961	0.9259	0.049
Mof_C 	C 	0.3054	0.8295	0.9093	0.6
Mof_C 	C 	0.2194	0.0773	0.054	0.14
Mof_C 	C 	0.1967	0.0079	0.0879	-0.43
Mof_H 	H 	0.1782	0.0493	0.1006	-0.008
Mof_H 	H 	0.1879	0.9545	0.064	0.06
Mof_C 	C 	0.2119	0.9567	0.1365	0.514
Mof_C 	C 	0.3059	0.1571	0.1845	0.071
Mof_C 	C 	0.2961	0.0982	0.2361	-0.263
Mof_H 	H 	0.2897	0.0286	0.2255	-0.041
Mof_H 	H 	0.3155	0.0922	0.2595	-0.04
Mof_C 	C 	0.3452	0.1337	0.1049	0.359
Mof_C 	C 	0.4313	0.8482	0.7533	0.469
Mof_C 	C 	0.3261	0.0808	0.1498	-0.153
Mof_H 	H 	0.3413	0.0439	0.1736	-0.281
Mof_H 	H 	0.3112	0.0304	0.1335	-0.183
Mof_O 	O 	0.4189	0.2804	0.6979	-0.857
Mof_K 	K 	0.2699	0.6756	0.8256	0.575
Mof_O 	O 	0.472	0.0437	0.1564	-0.707
Mof_O 	O 	0.3181	0.9297	0.748	-0.656
Mof_Ni	Ni	0.92025	0.11824	0.54807	1.08
Mof_Ni	Ni	0.86891	0.17477	0.63747	1.095
Mof_Ni	Ni	0.90488	0.71769	0.52578	0.997
Mof_Ni	Ni	0.78037	0.8125	0.42855	1.097
Mof_Ni	Ni	0.88975	0.32631	0.54567	1.101
Mof_Ni	Ni	0.93506	0.26882	0.64437	1.102
Mof_Ni	Ni	0.76888	0.65459	0.33293	1.077
Mof_Ni	Ni	0.90257	0.25696	0.34542	1.081
Mof_K 	K 	0.89816	0.72628	0.68895	2.97
Mof_K 	K 	0.81786	0.90411	0.70404	3.605
Mof_K 	K 	0.96261	0.96654	0.45275	2.739
Mof_K 	K 	0.68117	0.313	0.36494	3.38
Mof_K 	K 	0.90674	0.9781	0.31901	3.427
Mof_K 	K 	0.87448	0.9587	0.81271	2.633
Mof_K 	K 	0.76122	0.313	0.6687	0.927
Mof_O 	O 	0.8876	0.1832	0.13	-0.593
Mof_O 	O 	0.9174	0.1267	0.6312	-0.6
Mof_O 	O 	0.93583	0.269	0.5604	-0.596
Mof_O 	O 	0.87505	0.1767	0.5541	-0.601
Mof_O 	O 	0.93325	0.2403	0.7267	-0.513
Mof_O 	O 	0.98318	0.2408	0.6487	-0.468
Mof_O 	O 	0.93745	0.0819	0.1682	-0.493
Mof_O 	O 	0.93551	0.1516	0.316	-1.31
Mof_H 	H 	0.9525	0.1506	0.3355	0.34
Mof_H 	H 	0.9409	0.1663	0.2839	0.434
Mof_O 	O 	0.88155	0.1527	0.3961	-0.948
Mof_O 	O 	0.93665	0.3088	0.399	-0.504
Mof_O 	O 	0.86922	0.3622	0.3736	-0.311
Mof_H 	H 	0.8501	0.339	0.3698	-0.192
Mof_H 	H 	0.8708	0.4167	0.3555	-0.346
Mof_O 	O 	0.92173	0.1358	0.7941	-0.628
Mof_O 	O 	0.8705	0.1963	0.2899	-0.875
Mof_O 	O 	0.88642	0.8717	0.0859	-0.71
Mof_O 	O 	0.91934	0.8153	0.5865	-0.745
Mof_O 	O 	0.92071	0.8033	0.4611	-0.641
Mof_O 	O 	0.77674	0.8258	0.184	-0.599
Mof_O 	O 	0.72027	0.8285	0.5767	-0.426
Mof_O 	O 	0.78126	0.8774	0.6154	-1.254
Mof_H 	H 	0.77	0.9304	0.6095	0.386
Mof_H 	H 	0.7933	0.8666	0.5882	0.395
Mof_O 	O 	0.77851	0.8102	0.3451	-0.588
Mof_O 	O 	0.71672	0.7168	0.5101	-0.471
Mof_O 	O 	0.77676	0.962	0.4486	-0.599
Mof_O 	O 	0.83002	0.8126	0.4286	-0.477
Mof_O 	O 	0.73054	0.8383	0.4163	-0.594
Mof_O 	O 	0.81688	0.6628	0.3125	-0.916
Mof_O 	O 	0.73325	0.9987	0.3362	-0.644
Mof_O 	O 	0.91199	0.9655	0.5482	-0.641
Mof_O 	O 	0.86616	0.3016	0.2204	-0.535
Mof_O 	O 	0.82116	0.203	0.6317	-0.679
Mof_O 	O 	0.91523	0.1187	0.4638	-0.748
Mof_O 	O 	0.96919	0.1056	0.5319	-0.823
Mof_O 	O 	0.89762	0.0226	0.0501	-0.5
Mof_O 	O 	0.84348	0.3359	0.5167	-0.522
Mof_O 	O 	0.90205	0.3369	0.4658	-0.486
Mof_O 	O 	0.85432	0.7674	0.2796	-0.873
Mof_O 	O 	0.74093	0.8528	0.2504	-0.801
Mof_O 	O 	0.88903	0.9198	0.7113	-1.162
Mof_O 	O 	0.86383	0.0259	0.6556	-0.771
Mof_O 	O 	0.87523	0.8812	0.3978	-0.743
Mof_O 	O 	0.74283	0.0697	0.4893	-1.241
Mof_O 	O 	0.77772	0.2023	0.5796	-1.382
Mof_O 	O 	0.80803	0.2429	0.4701	-1.443
Mof_O 	O 	0.03038	0.2329	0.6088	-0.513
Mof_O 	O 	0.00526	0.1914	0.4842	-0.581
Mof_O 	O 	0.90693	0.97	0.2117	-1.009
Mof_O 	O 	0.7022	0.1294	0.3506	-0.871
Mof_O 	O 	0.7664	0.4754	0.6038	-0.476
Mof_O 	O 	0.7299	0.3405	0.2885	-1.032
Mof_H 	H 	0.7215	0.3562	0.2583	0.091
Mof_H 	H 	0.7426	0.3876	0.2988	0.271
Mof_O 	O 	0.8382	0.7367	0.648	-1.095
Mof_H 	H 	0.8252	0.6757	0.6568	0.222
Mof_H 	H 	0.8382	0.748	0.6086	0.197
Mof_O 	O 	0.976	0.8976	0.2911	-0.288
Mof_O 	O 	0.7972	0.1039	0.7296	-0.399
Mof_C 	C 	0.8649	0.2141	0.2415	0.443
Mof_C 	C 	0.8556	0.1243	0.2062	-0.293
Mof_H 	H 	0.8341	0.1385	0.1902	-0.04
Mof_H 	H 	0.8532	0.0639	0.2296	-0.073
Mof_C 	C 	0.8789	0.0977	0.1606	0.107
Mof_C 	C 	0.8613	0.017	0.1255	-0.326
Mof_H 	H 	0.8522	0.964	0.1494	0.004
Mof_H 	H 	0.843	0.05	0.1065	0.067
Mof_C 	C 	0.8833	0.9672	0.0843	0.399
Mof_C 	C 	0.9101	0.0463	0.1826	0.383
Mof_C 	C 	0.8322	0.252	0.5	0.463
Mof_C 	C 	0.8485	0.1521	0.5205	0.111
Mof_C 	C 	0.8591	0.0809	0.4748	-0.35
Mof_H 	H 	0.8649	0.0142	0.4904	0.071
Mof_H 	H 	0.8405	0.0703	0.4501	-0.119
Mof_C 	C 	0.8875	0.1204	0.4426	0.48
Mof_C 	C 	0.9897	0.3413	0.569	-0.479
Mof_H 	H 	0.0082	0.365	0.5469	0.117
Mof_H 	H 	0.9798	0.4015	0.5863	0.121
Mof_C 	C 	0.96462	0.2904	0.5322	0.263
Mof_C 	C 	0.9586	0.3628	0.484	-0.467
Mof_H 	H 	0.9545	0.4319	0.4981	0.121
Mof_H 	H 	0.9786	0.3659	0.4619	0.123
Mof_C 	C 	0.9304	0.3326	0.4474	0.439
Mof_C 	C 	0.7131	0.8045	0.5285	0.403
Mof_C 	C 	0.6983	0.8886	0.494	-0.353
Mof_H 	H 	0.6941	0.9482	0.5173	0.108
Mof_H 	H 	0.6772	0.8647	0.48	0.074
Mof_C 	C 	0.7484	0.9902	0.463	0.485
Mof_C 	C 	0.8275	0.7512	0.3013	0.279
Mof_C 	C 	0.7688	0.8554	0.2309	0.427
Mof_C 	C 	0.923	0.9102	0.5853	0.411
Mof_C 	C 	0.9417	0.9573	0.6312	-0.365
Mof_H 	H 	0.9618	0.9883	0.6167	0.011
Mof_H 	H 	0.9482	0.9031	0.6567	-0.029
Mof_C 	C 	0.9224	0.0399	0.6627	0.19
Mof_C 	C 	0.9422	0.0633	0.7134	-0.449
Mof_H 	H 	0.9421	0.0021	0.7366	0.041
Mof_H 	H 	0.9649	0.0754	0.7024	0.144
Mof_C 	C 	0.8891	0.9913	0.6781	0.319
Mof_C 	C 	0.9807	0.1889	0.5136	0.199
Mof_C 	C 	0.0022	0.2693	0.6127	0.44
Mof_C 	C 	0.8218	0.0949	0.553	-0.441
Mof_H 	H 	0.8056	0.0654	0.528	0.031
Mof_H 	H 	0.8316	0.039	0.5741	0.046
Mof_C 	C 	0.8054	0.1705	0.5907	0.599
Mof_C 	C 	0.7194	0.9227	0.446	0.13
Mof_C 	C 	0.6967	0.9921	0.4121	-0.428
Mof_H 	H 	0.6782	0.9507	0.3994	-0.009
Mof_H 	H 	0.6879	0.0455	0.436	0.061
Mof_C 	C 	0.7119	0.0433	0.3635	0.513
Mof_C 	C 	0.8059	0.8429	0.3155	0.071
Mof_C 	C 	0.7961	0.9018	0.2639	-0.263
Mof_H 	H 	0.7897	0.9714	0.2745	-0.041
Mof_H 	H 	0.8155	0.9078	0.2405	-0.04
Mof_C 	C 	0.8452	0.8663	0.3951	0.359
Mof_C 	C 	0.9313	0.1518	0.7467	0.47
Mof_C 	C 	0.8261	0.9192	0.3502	-0.152
Mof_H 	H 	0.8413	0.9561	0.3264	-0.28
Mof_H 	H 	0.8112	0.9696	0.3665	-0.184
Mof_O 	O 	0.9189	0.7196	0.8021	-0.857
Mof_K 	K 	0.7699	0.3244	0.6744	0.574
Mof_O 	O 	0.972	0.9563	0.3436	-0.71
Mof_O 	O 	0.8181	0.0703	0.752	-0.656
Mof_Ni	Ni	0.57975	0.38176	0.54807	1.078
Mof_Ni	Ni	0.63109	0.32523	0.63747	1.094
Mof_Ni	Ni	0.59512	0.78231	0.52578	0.996
Mof_Ni	Ni	0.71963	0.6875	0.42855	1.098
Mof_Ni	Ni	0.61025	0.17369	0.54567	1.1
Mof_Ni	Ni	0.56494	0.23118	0.64437	1.102
Mof_Ni	Ni	0.73112	0.84541	0.33293	1.077
Mof_Ni	Ni	0.59743	0.24304	0.34542	1.081
Mof_K 	K 	0.60184	0.77372	0.68895	2.967
Mof_K 	K 	0.68214	0.59589	0.70404	3.648
Mof_K 	K 	0.53739	0.53346	0.45275	2.747
Mof_K 	K 	0.81883	0.187	0.36494	3.405
Mof_K 	K 	0.59326	0.5219	0.31901	3.457
Mof_K 	K 	0.62552	0.5413	0.81271	2.686
Mof_K 	K 	0.73878	0.187	0.6687	0.947
Mof_O 	O 	0.6124	0.3168	0.13	-0.596
Mof_O 	O 	0.5826	0.3733	0.6312	-0.597
Mof_O 	O 	0.56417	0.231	0.5604	-0.596
Mof_O 	O 	0.62495	0.3233	0.5541	-0.601
Mof_O 	O 	0.56675	0.2597	0.7267	-0.512
Mof_O 	O 	0.51682	0.2592	0.6487	-0.468
Mof_O 	O 	0.56255	0.4181	0.1682	-0.491
Mof_O 	O 	0.56449	0.3484	0.316	-1.316
Mof_H 	H 	0.5475	0.3494	0.3355	0.341
Mof_H 	H 	0.5591	0.3337	0.2839	0.435
Mof_O 	O 	0.61845	0.3473	0.3961	-0.949
Mof_O 	O 	0.56335	0.1912	0.399	-0.503
Mof_O 	O 	0.63078	0.1378	0.3736	-0.318
Mof_H 	H 	0.6499	0.161	0.3698	-0.186
Mof_H 	H 	0.6292	0.0833	0.3555	-0.332
Mof_O 	O 	0.57827	0.3642	0.7941	-0.631
Mof_O 	O 	0.6295	0.3037	0.2899	-0.876
Mof_O 	O 	0.61358	0.6283	0.0859	-0.718
Mof_O 	O 	0.58066	0.6847	0.5865	-0.743
Mof_O 	O 	0.57929	0.6967	0.4611	-0.641
Mof_O 	O 	0.72326	0.6742	0.184	-0.598
Mof_O 	O 	0.77973	0.6715	0.5767	-0.423
Mof_O 	O 	0.71874	0.6226	0.6154	-1.262
Mof_H 	H 	0.73	0.5696	0.6095	0.394
Mof_H 	H 	0.7067	0.6334	0.5882	0.399
Mof_O 	O 	0.72149	0.6898	0.3451	-0.588
Mof_O 	O 	0.78328	0.7832	0.5101	-0.472
Mof_O 	O 	0.72324	0.538	0.4486	-0.6
Mof_O 	O 	0.66998	0.6874	0.4286	-0.476
Mof_O 	O 	0.76946	0.6617	0.4163	-0.59
Mof_O 	O 	0.68312	0.8372	0.3125	-0.912
Mof_O 	O 	0.76675	0.5013	0.3362	-0.618
Mof_O 	O 	0.58801	0.5345	0.5482	-0.634
Mof_O 	O 	0.63384	0.1984	0.2204	-0.533
Mof_O 	O 	0.67884	0.297	0.6317	-0.681
Mof_O 	O 	0.58477	0.3813	0.4638	-0.75
Mof_O 	O 	0.53081	0.3944	0.5319	-0.826
Mof_O 	O 	0.60238	0.4774	0.0501	-0.517
Mof_O 	O 	0.65652	0.1641	0.5167	-0.521
Mof_O 	O 	0.59795	0.1631	0.4658	-0.485
Mof_O 	O 	0.64568	0.7326	0.2796	-0.87
Mof_O 	O 	0.75907	0.6472	0.2504	-0.804
Mof_O 	O 	0.61097	0.5802	0.7113	-1.174
Mof_O 	O 	0.63617	0.4741	0.6556	-0.791
Mof_O 	O 	0.62477	0.6188	0.3978	-0.744
Mof_O 	O 	0.75717	0.4303	0.4893	-1.258
Mof_O 	O 	0.72228	0.2977	0.5796	-1.383
Mof_O 	O 	0.69197	0.2571	0.4701	-1.441
Mof_O 	O 	0.46962	0.2671	0.6088	-0.514
Mof_O 	O 	0.49474	0.3086	0.4842	-0.581
Mof_O 	O 	0.59307	0.53	0.2117	-1.001
Mof_O 	O 	0.7978	0.3706	0.3506	-0.861
Mof_O 	O 	0.7336	0.0246	0.6038	-0.47
Mof_O 	O 	0.7701	0.1595	0.2885	-1.036
Mof_H 	H 	0.7785	0.1438	0.2583	0.091
Mof_H 	H 	0.7574	0.1124	0.2988	0.277
Mof_O 	O 	0.6618	0.7633	0.648	-1.098
Mof_H 	H 	0.6748	0.8243	0.6568	0.222
Mof_H 	H 	0.6618	0.752	0.6086	0.197
Mof_O 	O 	0.524	0.6024	0.2911	-0.288
Mof_O 	O 	0.7028	0.3961	0.7296	-0.401
Mof_C 	C 	0.6351	0.2859	0.2415	0.444
Mof_C 	C 	0.6444	0.3757	0.2062	-0.301
Mof_H 	H 	0.6659	0.3615	0.1902	-0.037
Mof_H 	H 	0.6468	0.4361	0.2296	-0.076
Mof_C 	C 	0.6211	0.4023	0.1606	0.123
Mof_C 	C 	0.6387	0.483	0.1255	-0.38
Mof_H 	H 	0.6478	0.536	0.1494	0.027
Mof_H 	H 	0.657	0.45	0.1065	0.079
Mof_C 	C 	0.6167	0.5328	0.0843	0.436
Mof_C 	C 	0.5899	0.4537	0.1826	0.366
Mof_C 	C 	0.6678	0.248	0.5	0.463
Mof_C 	C 	0.6515	0.3479	0.5205	0.108
Mof_C 	C 	0.6409	0.4191	0.4748	-0.345
Mof_H 	H 	0.6351	0.4858	0.4904	0.065
Mof_H 	H 	0.6595	0.4297	0.4501	-0.123
Mof_C 	C 	0.6125	0.3796	0.4426	0.477
Mof_C 	C 	0.5103	0.1587	0.569	-0.48
Mof_H 	H 	0.4918	0.135	0.5469	0.117
Mof_H 	H 	0.5202	0.0985	0.5863	0.121
Mof_C 	C 	0.53538	0.2096	0.5322	0.263
Mof_C 	C 	0.5414	0.1372	0.484	-0.468
Mof_H 	H 	0.5455	0.0681	0.4981	0.122
Mof_H 	H 	0.5214	0.1341	0.4619	0.123
Mof_C 	C 	0.5696	0.1674	0.4474	0.44
Mof_C 	C 	0.7869	0.6955	0.5285	0.4
Mof_C 	C 	0.8017	0.6114	0.494	-0.343
Mof_H 	H 	0.8059	0.5518	0.5173	0.11
Mof_H 	H 	0.8228	0.6353	0.48	0.072
Mof_C 	C 	0.7516	0.5098	0.463	0.511
Mof_C 	C 	0.6725	0.7488	0.3013	0.28
Mof_C 	C 	0.7312	0.6446	0.2309	0.431
Mof_C 	C 	0.577	0.5898	0.5853	0.406
Mof_C 	C 	0.5583	0.5427	0.6312	-0.347
Mof_H 	H 	0.5382	0.5117	0.6167	0.008
Mof_H 	H 	0.5518	0.5969	0.6567	-0.034
Mof_C 	C 	0.5776	0.4601	0.6627	0.168
Mof_C 	C 	0.5578	0.4367	0.7134	-0.438
Mof_H 	H 	0.5579	0.4979	0.7366	0.034
Mof_H 	H 	0.5351	0.4246	0.7024	0.14
Mof_C 	C 	0.6109	0.5087	0.6781	0.346
Mof_C 	C 	0.5193	0.3111	0.5136	0.199
Mof_C 	C 	0.4978	0.2307	0.6127	0.441
Mof_C 	C 	0.6782	0.4051	0.553	-0.436
Mof_H 	H 	0.6944	0.4346	0.528	0.025
Mof_H 	H 	0.6684	0.461	0.5741	0.04
Mof_C 	C 	0.6946	0.3295	0.5907	0.596
Mof_C 	C 	0.7806	0.5773	0.446	0.109
Mof_C 	C 	0.8033	0.5079	0.4121	-0.359
Mof_H 	H 	0.8218	0.5493	0.3994	-0.027
Mof_H 	H 	0.8121	0.4545	0.436	0.031
Mof_C 	C 	0.7881	0.4567	0.3635	0.463
Mof_C 	C 	0.6941	0.6571	0.3155	0.074
Mof_C 	C 	0.7039	0.5982	0.2639	-0.268
Mof_H 	H 	0.7103	0.5286	0.2745	-0.035
Mof_H 	H 	0.6845	0.5922	0.2405	-0.036
Mof_C 	C 	0.6548	0.6337	0.3951	0.362
Mof_C 	C 	0.5687	0.3482	0.7467	0.466
Mof_C 	C 	0.6739	0.5808	0.3502	-0.157
Mof_H 	H 	0.6587	0.5439	0.3264	-0.277
Mof_H 	H 	0.6888	0.5304	0.3665	-0.177
Mof_O 	O 	0.5811	0.7804	0.8021	-0.855
Mof_K 	K 	0.7301	0.1756	0.6744	0.599
Mof_O 	O 	0.528	0.5437	0.3436	-0.712
Mof_O 	O 	0.6819	0.4297	0.752	-0.669
Mof_Ni	Ni	0.92025	0.38176	0.04807	1.076
Mof_Ni	Ni	0.86891	0.32523	0.13747	1.094
Mof_Ni	Ni	0.90488	0.78231	0.02578	0.992
Mof_Ni	Ni	0.78037	0.6875	0.92855	1.099
Mof_Ni	Ni	0.88975	0.17369	0.04567	1.099
Mof_Ni	Ni	0.93506	0.23118	0.14437	1.102
Mof_Ni	Ni	0.76888	0.84541	0.83293	1.077
Mof_Ni	Ni	0.90257	0.24304	0.84542	1.081
Mof_K 	K 	0.89816	0.77372	0.18895	2.965
Mof_K 	K 	0.81786	0.59589	0.20404	3.651
Mof_K 	K 	0.96261	0.53346	0.95275	2.788
Mof_K 	K 	0.68117	0.187	0.86494	3.401
Mof_K 	K 	0.90674	0.5219	0.81901	3.449
Mof_K 	K 	0.87448	0.5413	0.31271	2.68
Mof_K 	K 	0.76122	0.187	0.1687	0.946
Mof_O 	O 	0.8876	0.3168	0.63	-0.595
Mof_O 	O 	0.9174	0.3733	0.1312	-0.597
Mof_O 	O 	0.93583	0.231	0.0604	-0.596
Mof_O 	O 	0.87505	0.3233	0.0541	-0.601
Mof_O 	O 	0.93325	0.2597	0.2267	-0.512
Mof_O 	O 	0.98318	0.2592	0.1487	-0.466
Mof_O 	O 	0.93745	0.4181	0.6682	-0.491
Mof_O 	O 	0.93551	0.3484	0.816	-1.315
Mof_H 	H 	0.9525	0.3494	0.8355	0.34
Mof_H 	H 	0.9409	0.3337	0.7839	0.434
Mof_O 	O 	0.88155	0.3473	0.8961	-0.947
Mof_O 	O 	0.93665	0.1912	0.899	-0.502
Mof_O 	O 	0.86922	0.1378	0.8736	-0.317
Mof_H 	H 	0.8501	0.161	0.8698	-0.185
Mof_H 	H 	0.8708	0.0833	0.8555	-0.333
Mof_O 	O 	0.92173	0.3642	0.2941	-0.631
Mof_O 	O 	0.8705	0.3037	0.7899	-0.876
Mof_O 	O 	0.88642	0.6283	0.5859	-0.717
Mof_O 	O 	0.91934	0.6847	0.0865	-0.745
Mof_O 	O 	0.92071	0.6967	0.9611	-0.639
Mof_O 	O 	0.77674	0.6742	0.684	-0.597
Mof_O 	O 	0.72027	0.6715	0.0767	-0.42
Mof_O 	O 	0.78126	0.6226	0.1154	-1.262
Mof_H 	H 	0.77	0.5696	0.1095	0.394
Mof_H 	H 	0.7933	0.6334	0.0882	0.398
Mof_O 	O 	0.77851	0.6898	0.8451	-0.589
Mof_O 	O 	0.71672	0.7832	0.0101	-0.473
Mof_O 	O 	0.77676	0.538	0.9486	-0.599
Mof_O 	O 	0.83002	0.6874	0.9286	-0.474
Mof_O 	O 	0.73054	0.6617	0.9163	-0.587
Mof_O 	O 	0.81688	0.8372	0.8125	-0.912
Mof_O 	O 	0.73325	0.5013	0.8362	-0.618
Mof_O 	O 	0.91199	0.5345	0.0482	-0.64
Mof_O 	O 	0.86616	0.1984	0.7204	-0.533
Mof_O 	O 	0.82116	0.297	0.1317	-0.681
Mof_O 	O 	0.91523	0.3813	0.9638	-0.748
Mof_O 	O 	0.96919	0.3944	0.0319	-0.827
Mof_O 	O 	0.89762	0.4774	0.5501	-0.513
Mof_O 	O 	0.84348	0.1641	0.0167	-0.523
Mof_O 	O 	0.90205	0.1631	0.9658	-0.479
Mof_O 	O 	0.85432	0.7326	0.7796	-0.87
Mof_O 	O 	0.74093	0.6472	0.7504	-0.804
Mof_O 	O 	0.88903	0.5802	0.2113	-1.173
Mof_O 	O 	0.86383	0.4741	0.1556	-0.791
Mof_O 	O 	0.87523	0.6188	0.8978	-0.743
Mof_O 	O 	0.74283	0.4303	0.9893	-1.263
Mof_O 	O 	0.77772	0.2977	0.0796	-1.392
Mof_O 	O 	0.80803	0.2571	0.9701	-1.439
Mof_O 	O 	0.03038	0.2671	0.1088	-0.511
Mof_O 	O 	0.00526	0.3086	0.9842	-0.568
Mof_O 	O 	0.90693	0.53	0.7117	-1
Mof_O 	O 	0.7022	0.3706	0.8506	-0.861
Mof_O 	O 	0.7664	0.0246	0.1038	-0.471
Mof_O 	O 	0.7299	0.1595	0.7885	-1.036
Mof_H 	H 	0.7215	0.1438	0.7583	0.09
Mof_H 	H 	0.7426	0.1124	0.7988	0.277
Mof_O 	O 	0.8382	0.7633	0.148	-1.098
Mof_H 	H 	0.8252	0.8243	0.1568	0.222
Mof_H 	H 	0.8382	0.752	0.1086	0.197
Mof_O 	O 	0.976	0.6024	0.7911	-0.288
Mof_O 	O 	0.7972	0.3961	0.2296	-0.401
Mof_C 	C 	0.8649	0.2859	0.7415	0.444
Mof_C 	C 	0.8556	0.3757	0.7062	-0.301
Mof_H 	H 	0.8341	0.3615	0.6902	-0.037
Mof_H 	H 	0.8532	0.4361	0.7296	-0.076
Mof_C 	C 	0.8789	0.4023	0.6606	0.123
Mof_C 	C 	0.8613	0.483	0.6255	-0.379
Mof_H 	H 	0.8522	0.536	0.6494	0.027
Mof_H 	H 	0.843	0.45	0.6065	0.079
Mof_C 	C 	0.8833	0.5328	0.5843	0.435
Mof_C 	C 	0.9101	0.4537	0.6826	0.366
Mof_C 	C 	0.8322	0.248	-0	0.454
Mof_C 	C 	0.8485	0.3479	0.0205	0.1
Mof_C 	C 	0.8591	0.4191	0.9748	-0.332
Mof_H 	H 	0.8649	0.4858	0.9904	0.065
Mof_H 	H 	0.8405	0.4297	0.9501	-0.125
Mof_C 	C 	0.8875	0.3796	0.9426	0.475
Mof_C 	C 	0.9897	0.1587	0.069	-0.472
Mof_H 	H 	0.0082	0.135	0.0469	0.111
Mof_H 	H 	0.9798	0.0985	0.0863	0.118
Mof_C 	C 	0.96462	0.2096	0.0322	0.255
Mof_C 	C 	0.9586	0.1372	0.984	-0.456
Mof_H 	H 	0.9545	0.0681	0.9981	0.123
Mof_H 	H 	0.9786	0.1341	0.9619	0.122
Mof_C 	C 	0.9304	0.1674	0.9474	0.438
Mof_C 	C 	0.7131	0.6955	0.0285	0.383
Mof_C 	C 	0.6983	0.6114	0.994	-0.306
Mof_H 	H 	0.6941	0.5518	0.0173	0.093
Mof_H 	H 	0.6772	0.6353	0.98	0.065
Mof_C 	C 	0.7484	0.5098	0.963	0.518
Mof_C 	C 	0.8275	0.7488	0.8013	0.28
Mof_C 	C 	0.7688	0.6446	0.7309	0.431
Mof_C 	C 	0.923	0.5898	0.0853	0.407
Mof_C 	C 	0.9417	0.5427	0.1312	-0.349
Mof_H 	H 	0.9618	0.5117	0.1167	0.008
Mof_H 	H 	0.9482	0.5969	0.1567	-0.033
Mof_C 	C 	0.9224	0.4601	0.1627	0.168
Mof_C 	C 	0.9422	0.4367	0.2134	-0.438
Mof_H 	H 	0.9421	0.4979	0.2366	0.034
Mof_H 	H 	0.9649	0.4246	0.2024	0.141
Mof_C 	C 	0.8891	0.5087	0.1781	0.346
Mof_C 	C 	0.9807	0.3111	0.0136	0.188
Mof_C 	C 	0.0022	0.2307	0.1127	0.437
Mof_C 	C 	0.8218	0.4051	0.053	-0.433
Mof_H 	H 	0.8056	0.4346	0.028	0.02
Mof_H 	H 	0.8316	0.461	0.0741	0.038
Mof_C 	C 	0.8054	0.3295	0.0907	0.597
Mof_C 	C 	0.7194	0.5773	0.946	0.1
Mof_C 	C 	0.6967	0.5079	0.9121	-0.354
Mof_H 	H 	0.6782	0.5493	0.8994	-0.028
Mof_H 	H 	0.6879	0.4545	0.936	0.031
Mof_C 	C 	0.7119	0.4567	0.8635	0.461
Mof_C 	C 	0.8059	0.6571	0.8155	0.074
Mof_C 	C 	0.7961	0.5982	0.7639	-0.268
Mof_H 	H 	0.7897	0.5286	0.7745	-0.035
Mof_H 	H 	0.8155	0.5922	0.7405	-0.036
Mof_C 	C 	0.8452	0.6337	0.8951	0.362
Mof_C 	C 	0.9313	0.3482	0.2467	0.466
Mof_C 	C 	0.8261	0.5808	0.8502	-0.157
Mof_H 	H 	0.8413	0.5439	0.8264	-0.277
Mof_H 	H 	0.8112	0.5304	0.8665	-0.177
Mof_O 	O 	0.9189	0.7804	0.3021	-0.856
Mof_K 	K 	0.7699	0.1756	0.1744	0.598
Mof_O 	O 	0.972	0.5437	0.8436	-0.715
Mof_O 	O 	0.8181	0.4297	0.252	-0.669
Mof_Ni	Ni	0.57975	0.11824	0.04807	1.077
Mof_Ni	Ni	0.63109	0.17477	0.13747	1.095
Mof_Ni	Ni	0.59512	0.71769	0.02578	0.993
Mof_Ni	Ni	0.71963	0.8125	0.92855	1.099
Mof_Ni	Ni	0.61025	0.32631	0.04567	1.099
Mof_Ni	Ni	0.56494	0.26882	0.14437	1.102
Mof_Ni	Ni	0.73112	0.65459	0.83293	1.076
Mof_Ni	Ni	0.59743	0.25696	0.84542	1.081
Mof_K 	K 	0.60184	0.72628	0.18895	2.969
Mof_K 	K 	0.68214	0.90411	0.20404	3.608
Mof_K 	K 	0.53739	0.96654	0.95275	2.784
Mof_K 	K 	0.81883	0.313	0.86494	3.377
Mof_K 	K 	0.59326	0.9781	0.81901	3.419
Mof_K 	K 	0.62552	0.9587	0.31271	2.629
Mof_K 	K 	0.73878	0.313	0.1687	0.927
Mof_O 	O 	0.6124	0.1832	0.63	-0.593
Mof_O 	O 	0.5826	0.1267	0.1312	-0.599
Mof_O 	O 	0.56417	0.269	0.0604	-0.596
Mof_O 	O 	0.62495	0.1767	0.0541	-0.601
Mof_O 	O 	0.56675	0.2403	0.2267	-0.513
Mof_O 	O 	0.51682	0.2408	0.1487	-0.467
Mof_O 	O 	0.56255	0.0819	0.6682	-0.493
Mof_O 	O 	0.56449	0.1516	0.816	-1.308
Mof_H 	H 	0.5475	0.1506	0.8355	0.339
Mof_H 	H 	0.5591	0.1663	0.7839	0.433
Mof_O 	O 	0.61845	0.1527	0.8961	-0.947
Mof_O 	O 	0.56335	0.3088	0.899	-0.503
Mof_O 	O 	0.63078	0.3622	0.8736	-0.31
Mof_H 	H 	0.6499	0.339	0.8698	-0.192
Mof_H 	H 	0.6292	0.4167	0.8555	-0.347
Mof_O 	O 	0.57827	0.1358	0.2941	-0.627
Mof_O 	O 	0.6295	0.1963	0.7899	-0.875
Mof_O 	O 	0.61358	0.8717	0.5859	-0.709
Mof_O 	O 	0.58066	0.8153	0.0865	-0.747
Mof_O 	O 	0.57929	0.8033	0.9611	-0.639
Mof_O 	O 	0.72326	0.8258	0.684	-0.599
Mof_O 	O 	0.77973	0.8285	0.0767	-0.423
Mof_O 	O 	0.71874	0.8774	0.1154	-1.254
Mof_H 	H 	0.73	0.9304	0.1095	0.385
Mof_H 	H 	0.7067	0.8666	0.0882	0.394
Mof_O 	O 	0.72149	0.8102	0.8451	-0.588
Mof_O 	O 	0.78328	0.7168	0.0101	-0.473
Mof_O 	O 	0.72324	0.962	0.9486	-0.599
Mof_O 	O 	0.66998	0.8126	0.9286	-0.474
Mof_O 	O 	0.76946	0.8383	0.9163	-0.591
Mof_O 	O 	0.68312	0.6628	0.8125	-0.917
Mof_O 	O 	0.76675	0.9987	0.8362	-0.644
Mof_O 	O 	0.58801	0.9655	0.0482	-0.647
Mof_O 	O 	0.63384	0.3016	0.7204	-0.535
Mof_O 	O 	0.67884	0.203	0.1317	-0.679
Mof_O 	O 	0.58477	0.1187	0.9638	-0.746
Mof_O 	O 	0.53081	0.1056	0.0319	-0.825
Mof_O 	O 	0.60238	0.0226	0.5501	-0.497
Mof_O 	O 	0.65652	0.3359	0.0167	-0.524
Mof_O 	O 	0.59795	0.3369	0.9658	-0.481
Mof_O 	O 	0.64568	0.7674	0.7796	-0.873
Mof_O 	O 	0.75907	0.8528	0.7504	-0.801
Mof_O 	O 	0.61097	0.9198	0.2113	-1.161
Mof_O 	O 	0.63617	0.0259	0.1556	-0.772
Mof_O 	O 	0.62477	0.8812	0.8978	-0.742
Mof_O 	O 	0.75717	0.0697	0.9893	-1.246
Mof_O 	O 	0.72228	0.2023	0.0796	-1.392
Mof_O 	O 	0.69197	0.2429	0.9701	-1.44
Mof_O 	O 	0.46962	0.2329	0.1088	-0.511
Mof_O 	O 	0.49474	0.1914	0.9842	-0.567
Mof_O 	O 	0.59307	0.97	0.7117	-1.008
Mof_O 	O 	0.7978	0.1294	0.8506	-0.871
Mof_O 	O 	0.7336	0.4754	0.1038	-0.478
Mof_O 	O 	0.7701	0.3405	0.7885	-1.032
Mof_H 	H 	0.7785	0.3562	0.7583	0.09
Mof_H 	H 	0.7574	0.3876	0.7988	0.27
Mof_O 	O 	0.6618	0.7367	0.148	-1.095
Mof_H 	H 	0.6748	0.6757	0.1568	0.222
Mof_H 	H 	0.6618	0.748	0.1086	0.196
Mof_O 	O 	0.524	0.8976	0.7911	-0.287
Mof_O 	O 	0.7028	0.1039	0.2296	-0.399
Mof_C 	C 	0.6351	0.2141	0.7415	0.443
Mof_C 	C 	0.6444	0.1243	0.7062	-0.294
Mof_H 	H 	0.6659	0.1385	0.6902	-0.04
Mof_H 	H 	0.6468	0.0639	0.7296	-0.073
Mof_C 	C 	0.6211	0.0977	0.6606	0.108
Mof_C 	C 	0.6387	0.017	0.6255	-0.328
Mof_H 	H 	0.6478	0.964	0.6494	0.005
Mof_H 	H 	0.657	0.05	0.6065	0.067
Mof_C 	C 	0.6167	0.9672	0.5843	0.4
Mof_C 	C 	0.5899	0.0463	0.6826	0.382
Mof_C 	C 	0.6678	0.252	-0	0.453
Mof_C 	C 	0.6515	0.1521	0.0205	0.103
Mof_C 	C 	0.6409	0.0809	0.9748	-0.337
Mof_H 	H 	0.6351	0.0142	0.9904	0.071
Mof_H 	H 	0.6595	0.0703	0.9501	-0.121
Mof_C 	C 	0.6125	0.1204	0.9426	0.478
Mof_C 	C 	0.5103	0.3413	0.069	-0.476
Mof_H 	H 	0.4918	0.365	0.0469	0.114
Mof_H 	H 	0.5202	0.4015	0.0863	0.119
Mof_C 	C 	0.53538	0.2904	0.0322	0.256
Mof_C 	C 	0.5414	0.3628	0.984	-0.456
Mof_H 	H 	0.5455	0.4319	0.9981	0.122
Mof_H 	H 	0.5214	0.3659	0.9619	0.121
Mof_C 	C 	0.5696	0.3326	0.9474	0.437
Mof_C 	C 	0.7869	0.8045	0.0285	0.386
Mof_C 	C 	0.8017	0.8886	0.994	-0.316
Mof_H 	H 	0.8059	0.9482	0.0173	0.091
Mof_H 	H 	0.8228	0.8647	0.98	0.067
Mof_C 	C 	0.7516	0.9902	0.963	0.492
Mof_C 	C 	0.6725	0.7512	0.8013	0.279
Mof_C 	C 	0.7312	0.8554	0.7309	0.427
Mof_C 	C 	0.577	0.9102	0.0853	0.412
Mof_C 	C 	0.5583	0.9573	0.1312	-0.365
Mof_H 	H 	0.5382	0.9883	0.1167	0.012
Mof_H 	H 	0.5518	0.9031	0.1567	-0.029
Mof_C 	C 	0.5776	0.0399	0.1627	0.189
Mof_C 	C 	0.5578	0.0633	0.2134	-0.448
Mof_H 	H 	0.5579	0.0021	0.2366	0.041
Mof_H 	H 	0.5351	0.0754	0.2024	0.144
Mof_C 	C 	0.6109	0.9913	0.1781	0.32
Mof_C 	C 	0.5193	0.1889	0.0136	0.187
Mof_C 	C 	0.4978	0.2693	0.1127	0.44
Mof_C 	C 	0.6782	0.0949	0.053	-0.439
Mof_H 	H 	0.6944	0.0654	0.028	0.025
Mof_H 	H 	0.6684	0.039	0.0741	0.044
Mof_C 	C 	0.6946	0.1705	0.0907	0.6
Mof_C 	C 	0.7806	0.9227	0.946	0.121
Mof_C 	C 	0.8033	0.9921	0.9121	-0.424
Mof_H 	H 	0.8218	0.9507	0.8994	-0.009
Mof_H 	H 	0.8121	0.0455	0.936	0.061
Mof_C 	C 	0.7881	0.0433	0.8635	0.512
Mof_C 	C 	0.6941	0.8429	0.8155	0.071
Mof_C 	C 	0.7039	0.9018	0.7639	-0.263
Mof_H 	H 	0.7103	0.9714	0.7745	-0.041
Mof_H 	H 	0.6845	0.9078	0.7405	-0.04
Mof_C 	C 	0.6548	0.8663	0.8951	0.359
Mof_C 	C 	0.5687	0.1518	0.2467	0.47
Mof_C 	C 	0.6739	0.9192	0.8502	-0.153
Mof_H 	H 	0.6587	0.9561	0.8264	-0.28
Mof_H 	H 	0.6888	0.9696	0.8665	-0.183
Mof_O 	O 	0.5811	0.7196	0.3021	-0.857
Mof_K 	K 	0.7301	0.3244	0.1744	0.573
Mof_O 	O 	0.528	0.9563	0.8436	-0.713
Mof_O 	O 	0.6819	0.0703	0.252	-0.656
Mof_Ni	Ni	0.07975	0.88176	0.45193	1.079
Mof_Ni	Ni	0.13109	0.82523	0.36253	1.095
Mof_Ni	Ni	0.09512	0.28231	0.47422	0.997
Mof_Ni	Ni	0.21963	0.1875	0.57145	1.097
Mof_Ni	Ni	0.11025	0.67369	0.45433	1.101
Mof_Ni	Ni	0.06494	0.73118	0.35563	1.102
Mof_Ni	Ni	0.23112	0.34541	0.66707	1.077
Mof_Ni	Ni	0.09743	0.74304	0.65458	1.081
Mof_K 	K 	0.10184	0.27372	0.31105	2.968
Mof_K 	K 	0.18214	0.09589	0.29596	3.611
Mof_K 	K 	0.03739	0.03346	0.54725	2.741
Mof_K 	K 	0.31883	0.687	0.63506	3.379
Mof_K 	K 	0.09326	0.0219	0.68099	3.428
Mof_K 	K 	0.12552	0.0413	0.18729	2.623
Mof_K 	K 	0.23878	0.687	0.3313	0.927
Mof_O 	O 	0.1124	0.8168	0.87	-0.593
Mof_O 	O 	0.0826	0.8733	0.3688	-0.599
Mof_O 	O 	0.06417	0.731	0.4396	-0.596
Mof_O 	O 	0.12495	0.8233	0.4459	-0.601
Mof_O 	O 	0.06675	0.7597	0.2733	-0.513
Mof_O 	O 	0.01682	0.7592	0.3513	-0.468
Mof_O 	O 	0.06255	0.9181	0.8318	-0.493
Mof_O 	O 	0.06449	0.8484	0.684	-1.31
Mof_H 	H 	0.0475	0.8494	0.6645	0.34
Mof_H 	H 	0.0591	0.8337	0.7161	0.434
Mof_O 	O 	0.11845	0.8473	0.6039	-0.948
Mof_O 	O 	0.06335	0.6912	0.601	-0.504
Mof_O 	O 	0.13078	0.6378	0.6264	-0.311
Mof_H 	H 	0.1499	0.661	0.6302	-0.192
Mof_H 	H 	0.1292	0.5833	0.6445	-0.346
Mof_O 	O 	0.07827	0.8642	0.2059	-0.627
Mof_O 	O 	0.1295	0.8037	0.7101	-0.875
Mof_O 	O 	0.11358	0.1283	0.9141	-0.708
Mof_O 	O 	0.08066	0.1847	0.4135	-0.745
Mof_O 	O 	0.07929	0.1967	0.5389	-0.641
Mof_O 	O 	0.22326	0.1742	0.816	-0.598
Mof_O 	O 	0.27973	0.1715	0.4233	-0.426
Mof_O 	O 	0.21874	0.1226	0.3846	-1.255
Mof_H 	H 	0.23	0.0696	0.3905	0.387
Mof_H 	H 	0.2067	0.1334	0.4118	0.395
Mof_O 	O 	0.22149	0.1898	0.6549	-0.588
Mof_O 	O 	0.28328	0.2832	0.4899	-0.471
Mof_O 	O 	0.22324	0.038	0.5514	-0.599
Mof_O 	O 	0.16998	0.1874	0.5714	-0.477
Mof_O 	O 	0.26946	0.1617	0.5837	-0.594
Mof_O 	O 	0.18312	0.3372	0.6875	-0.916
Mof_O 	O 	0.26675	0.0013	0.6638	-0.643
Mof_O 	O 	0.08801	0.0345	0.4518	-0.64
Mof_O 	O 	0.13384	0.6984	0.7796	-0.535
Mof_O 	O 	0.17884	0.797	0.3683	-0.679
Mof_O 	O 	0.08477	0.8813	0.5362	-0.748
Mof_O 	O 	0.03081	0.8944	0.4681	-0.823
Mof_O 	O 	0.10238	0.9774	0.9499	-0.493
Mof_O 	O 	0.15652	0.6641	0.4833	-0.522
Mof_O 	O 	0.09795	0.6631	0.5342	-0.486
Mof_O 	O 	0.14568	0.2326	0.7204	-0.873
Mof_O 	O 	0.25907	0.1472	0.7496	-0.801
Mof_O 	O 	0.11097	0.0802	0.2887	-1.161
Mof_O 	O 	0.13617	0.9741	0.3444	-0.772
Mof_O 	O 	0.12477	0.1188	0.6022	-0.743
Mof_O 	O 	0.25717	0.9303	0.5107	-1.242
Mof_O 	O 	0.22228	0.7977	0.4204	-1.382
Mof_O 	O 	0.19197	0.7571	0.5299	-1.443
Mof_O 	O 	0.96962	0.7671	0.3912	-0.513
Mof_O 	O 	0.99474	0.8086	0.5158	-0.581
Mof_O 	O 	0.09307	0.03	0.7883	-1.008
Mof_O 	O 	0.2978	0.8706	0.6494	-0.87
Mof_O 	O 	0.2336	0.5246	0.3962	-0.476
Mof_O 	O 	0.2701	0.6595	0.7115	-1.031
Mof_H 	H 	0.2785	0.6438	0.7417	0.09
Mof_H 	H 	0.2574	0.6124	0.7012	0.271
Mof_O 	O 	0.1618	0.2633	0.352	-1.095
Mof_H 	H 	0.1748	0.3243	0.3432	0.222
Mof_H 	H 	0.1618	0.252	0.3914	0.197
Mof_O 	O 	0.024	0.1024	0.7089	-0.288
Mof_O 	O 	0.2028	0.8961	0.2704	-0.399
Mof_C 	C 	0.1351	0.7859	0.7585	0.443
Mof_C 	C 	0.1444	0.8757	0.7938	-0.294
Mof_H 	H 	0.1659	0.8615	0.8098	-0.04
Mof_H 	H 	0.1468	0.9361	0.7704	-0.073
Mof_C 	C 	0.1211	0.9023	0.8394	0.108
Mof_C 	C 	0.1387	0.983	0.8745	-0.328
Mof_H 	H 	0.1478	0.036	0.8506	0.005
Mof_H 	H 	0.157	0.95	0.8935	0.068
Mof_C 	C 	0.1167	0.0328	0.9157	0.4
Mof_C 	C 	0.0899	0.9537	0.8174	0.382
Mof_C 	C 	0.1678	0.748	0.5	0.463
Mof_C 	C 	0.1515	0.8479	0.4795	0.111
Mof_C 	C 	0.1409	0.9191	0.5252	-0.35
Mof_H 	H 	0.1351	0.9858	0.5096	0.071
Mof_H 	H 	0.1595	0.9297	0.5499	-0.119
Mof_C 	C 	0.1125	0.8796	0.5574	0.48
Mof_C 	C 	0.0103	0.6587	0.431	-0.479
Mof_H 	H 	0.9918	0.635	0.4531	0.117
Mof_H 	H 	0.0202	0.5985	0.4137	0.121
Mof_C 	C 	0.03538	0.7096	0.4678	0.263
Mof_C 	C 	0.0414	0.6372	0.516	-0.467
Mof_H 	H 	0.0455	0.5681	0.5019	0.121
Mof_H 	H 	0.0214	0.6341	0.5381	0.123
Mof_C 	C 	0.0696	0.6674	0.5526	0.439
Mof_C 	C 	0.2869	0.1955	0.4715	0.403
Mof_C 	C 	0.3017	0.1114	0.506	-0.352
Mof_H 	H 	0.3059	0.0518	0.4827	0.108
Mof_H 	H 	0.3228	0.1353	0.52	0.074
Mof_C 	C 	0.2516	0.0098	0.537	0.486
Mof_C 	C 	0.1725	0.2488	0.6987	0.279
Mof_C 	C 	0.2312	0.1446	0.7691	0.427
Mof_C 	C 	0.077	0.0898	0.4147	0.411
Mof_C 	C 	0.0583	0.0427	0.3688	-0.364
Mof_H 	H 	0.0382	0.0117	0.3833	0.011
Mof_H 	H 	0.0518	0.0969	0.3433	-0.029
Mof_C 	C 	0.0776	0.9601	0.3373	0.189
Mof_C 	C 	0.0578	0.9367	0.2866	-0.448
Mof_H 	H 	0.0579	0.9979	0.2634	0.041
Mof_H 	H 	0.0351	0.9246	0.2976	0.144
Mof_C 	C 	0.1109	0.0087	0.3219	0.32
Mof_C 	C 	0.0193	0.8111	0.4864	0.199
Mof_C 	C 	0.9978	0.7307	0.3873	0.44
Mof_C 	C 	0.1782	0.9051	0.447	-0.441
Mof_H 	H 	0.1944	0.9346	0.472	0.03
Mof_H 	H 	0.1684	0.961	0.4259	0.045
Mof_C 	C 	0.1946	0.8295	0.4093	0.599
Mof_C 	C 	0.2806	0.0773	0.554	0.129
Mof_C 	C 	0.3033	0.0079	0.5879	-0.425
Mof_H 	H 	0.3218	0.0493	0.6006	-0.009
Mof_H 	H 	0.3121	0.9545	0.564	0.059
Mof_C 	C 	0.2881	0.9567	0.6365	0.511
Mof_C 	C 	0.1941	0.1571	0.6845	0.071
Mof_C 	C 	0.2039	0.0982	0.7361	-0.263
Mof_H 	H 	0.2103	0.0286	0.7255	-0.041
Mof_H 	H 	0.1845	0.0922	0.7595	-0.04
Mof_C 	C 	0.1548	0.1337	0.6049	0.359
Mof_C 	C 	0.0687	0.8482	0.2533	0.47
Mof_C 	C 	0.1739	0.0808	0.6498	-0.153
Mof_H 	H 	0.1587	0.0439	0.6736	-0.28
Mof_H 	H 	0.1888	0.0304	0.6335	-0.183
Mof_O 	O 	0.0811	0.2804	0.1979	-0.858
Mof_K 	K 	0.2301	0.6756	0.3256	0.574
Mof_O 	O 	0.028	0.0437	0.6564	-0.71
Mof_O 	O 	0.1819	0.9297	0.248	-0.656
Mof_Ni	Ni	0.42025	0.61824	0.45193	1.078
Mof_Ni	Ni	0.36891	0.67477	0.36253	1.094
Mof_Ni	Ni	0.40488	0.21769	0.47422	0.996
Mof_Ni	Ni	0.28037	0.3125	0.57145	1.098
Mof_Ni	Ni	0.38975	0.82631	0.45433	1.1
Mof_Ni	Ni	0.43506	0.76882	0.35563	1.102
Mof_Ni	Ni	0.26888	0.15459	0.66707	1.077
Mof_Ni	Ni	0.40257	0.75696	0.65458	1.081
Mof_K 	K 	0.39816	0.22628	0.31105	2.965
Mof_K 	K 	0.31786	0.40411	0.29596	3.652
Mof_K 	K 	0.46261	0.46654	0.54725	2.748
Mof_K 	K 	0.18117	0.813	0.63506	3.403
Mof_K 	K 	0.40674	0.4781	0.68099	3.457
Mof_K 	K 	0.37448	0.4587	0.18729	2.674
Mof_K 	K 	0.26122	0.813	0.3313	0.946
Mof_O 	O 	0.3876	0.6832	0.87	-0.595
Mof_O 	O 	0.4174	0.6267	0.3688	-0.597
Mof_O 	O 	0.43583	0.769	0.4396	-0.596
Mof_O 	O 	0.37505	0.6767	0.4459	-0.601
Mof_O 	O 	0.43325	0.7403	0.2733	-0.512
Mof_O 	O 	0.48318	0.7408	0.3513	-0.468
Mof_O 	O 	0.43745	0.5819	0.8318	-0.491
Mof_O 	O 	0.43551	0.6516	0.684	-1.316
Mof_H 	H 	0.4525	0.6506	0.6645	0.34
Mof_H 	H 	0.4409	0.6663	0.7161	0.434
Mof_O 	O 	0.38155	0.6527	0.6039	-0.949
Mof_O 	O 	0.43665	0.8088	0.601	-0.503
Mof_O 	O 	0.36922	0.8622	0.6264	-0.318
Mof_H 	H 	0.3501	0.839	0.6302	-0.186
Mof_H 	H 	0.3708	0.9167	0.6445	-0.333
Mof_O 	O 	0.42173	0.6358	0.2059	-0.631
Mof_O 	O 	0.3705	0.6963	0.7101	-0.876
Mof_O 	O 	0.38642	0.3717	0.9141	-0.716
Mof_O 	O 	0.41934	0.3153	0.4135	-0.743
Mof_O 	O 	0.42071	0.3033	0.5389	-0.641
Mof_O 	O 	0.27674	0.3258	0.816	-0.597
Mof_O 	O 	0.22027	0.3285	0.4233	-0.423
Mof_O 	O 	0.28126	0.3774	0.3846	-1.263
Mof_H 	H 	0.27	0.4304	0.3905	0.395
Mof_H 	H 	0.2933	0.3666	0.4118	0.399
Mof_O 	O 	0.27851	0.3102	0.6549	-0.589
Mof_O 	O 	0.21672	0.2168	0.4899	-0.471
Mof_O 	O 	0.27676	0.462	0.5514	-0.6
Mof_O 	O 	0.33002	0.3126	0.5714	-0.476
Mof_O 	O 	0.23054	0.3383	0.5837	-0.59
Mof_O 	O 	0.31688	0.1628	0.6875	-0.912
Mof_O 	O 	0.23325	0.4987	0.6638	-0.618
Mof_O 	O 	0.41199	0.4655	0.4518	-0.634
Mof_O 	O 	0.36616	0.8016	0.7796	-0.533
Mof_O 	O 	0.32116	0.703	0.3683	-0.681
Mof_O 	O 	0.41523	0.6187	0.5362	-0.75
Mof_O 	O 	0.46919	0.6056	0.4681	-0.826
Mof_O 	O 	0.39762	0.5226	0.9499	-0.509
Mof_O 	O 	0.34348	0.8359	0.4833	-0.521
Mof_O 	O 	0.40205	0.8369	0.5342	-0.485
Mof_O 	O 	0.35432	0.2674	0.7204	-0.87
Mof_O 	O 	0.24093	0.3528	0.7496	-0.804
Mof_O 	O 	0.38903	0.4198	0.2887	-1.172
Mof_O 	O 	0.36383	0.5259	0.3444	-0.791
Mof_O 	O 	0.37523	0.3812	0.6022	-0.744
Mof_O 	O 	0.24283	0.5697	0.5107	-1.258
Mof_O 	O 	0.27772	0.7023	0.4204	-1.383
Mof_O 	O 	0.30803	0.7429	0.5299	-1.442
Mof_O 	O 	0.53038	0.7329	0.3912	-0.514
Mof_O 	O 	0.50526	0.6914	0.5158	-0.581
Mof_O 	O 	0.40693	0.47	0.7883	-1.001
Mof_O 	O 	0.2022	0.6294	0.6494	-0.861
Mof_O 	O 	0.2664	0.9754	0.3962	-0.47
Mof_O 	O 	0.2299	0.8405	0.7115	-1.035
Mof_H 	H 	0.2215	0.8562	0.7417	0.09
Mof_H 	H 	0.2426	0.8876	0.7012	0.277
Mof_O 	O 	0.3382	0.2367	0.352	-1.098
Mof_H 	H 	0.3252	0.1757	0.3432	0.222
Mof_H 	H 	0.3382	0.248	0.3914	0.197
Mof_O 	O 	0.476	0.3976	0.7089	-0.288
Mof_O 	O 	0.2972	0.6039	0.2704	-0.402
Mof_C 	C 	0.3649	0.7141	0.7585	0.444
Mof_C 	C 	0.3556	0.6243	0.7938	-0.301
Mof_H 	H 	0.3341	0.6385	0.8098	-0.038
Mof_H 	H 	0.3532	0.5639	0.7704	-0.076
Mof_C 	C 	0.3789	0.5977	0.8394	0.123
Mof_C 	C 	0.3613	0.517	0.8745	-0.379
Mof_H 	H 	0.3522	0.464	0.8506	0.027
Mof_H 	H 	0.343	0.55	0.8935	0.079
Mof_C 	C 	0.3833	0.4672	0.9157	0.435
Mof_C 	C 	0.4101	0.5463	0.8174	0.367
Mof_C 	C 	0.3322	0.752	0.5	0.463
Mof_C 	C 	0.3485	0.6521	0.4795	0.108
Mof_C 	C 	0.3591	0.5809	0.5252	-0.345
Mof_H 	H 	0.3649	0.5142	0.5096	0.065
Mof_H 	H 	0.3405	0.5703	0.5499	-0.123
Mof_C 	C 	0.3875	0.6204	0.5574	0.477
Mof_C 	C 	0.4897	0.8413	0.431	-0.48
Mof_H 	H 	0.5082	0.865	0.4531	0.117
Mof_H 	H 	0.4798	0.9015	0.4137	0.121
Mof_C 	C 	0.46462	0.7904	0.4678	0.263
Mof_C 	C 	0.4586	0.8628	0.516	-0.468
Mof_H 	H 	0.4545	0.9319	0.5019	0.122
Mof_H 	H 	0.4786	0.8659	0.5381	0.123
Mof_C 	C 	0.4304	0.8326	0.5526	0.44
Mof_C 	C 	0.2131	0.3045	0.4715	0.4
Mof_C 	C 	0.1983	0.3886	0.506	-0.343
Mof_H 	H 	0.1941	0.4482	0.4827	0.11
Mof_H 	H 	0.1772	0.3647	0.52	0.072
Mof_C 	C 	0.2484	0.4902	0.537	0.511
Mof_C 	C 	0.3275	0.2512	0.6987	0.28
Mof_C 	C 	0.2688	0.3554	0.7691	0.431
Mof_C 	C 	0.423	0.4102	0.4147	0.406
Mof_C 	C 	0.4417	0.4573	0.3688	-0.347
Mof_H 	H 	0.4618	0.4883	0.3833	0.008
Mof_H 	H 	0.4482	0.4031	0.3433	-0.033
Mof_C 	C 	0.4224	0.5399	0.3373	0.168
Mof_C 	C 	0.4422	0.5633	0.2866	-0.438
Mof_H 	H 	0.4421	0.5021	0.2634	0.034
Mof_H 	H 	0.4649	0.5754	0.2976	0.14
Mof_C 	C 	0.3891	0.4913	0.3219	0.346
Mof_C 	C 	0.4807	0.6889	0.4864	0.199
Mof_C 	C 	0.5022	0.7693	0.3873	0.441
Mof_C 	C 	0.3218	0.5949	0.447	-0.436
Mof_H 	H 	0.3056	0.5654	0.472	0.025
Mof_H 	H 	0.3316	0.539	0.4259	0.04
Mof_C 	C 	0.3054	0.6705	0.4093	0.596
Mof_C 	C 	0.2194	0.4227	0.554	0.109
Mof_C 	C 	0.1967	0.4921	0.5879	-0.359
Mof_H 	H 	0.1782	0.4507	0.6006	-0.027
Mof_H 	H 	0.1879	0.5455	0.564	0.031
Mof_C 	C 	0.2119	0.5433	0.6365	0.462
Mof_C 	C 	0.3059	0.3429	0.6845	0.073
Mof_C 	C 	0.2961	0.4018	0.7361	-0.268
Mof_H 	H 	0.2897	0.4714	0.7255	-0.035
Mof_H 	H 	0.3155	0.4078	0.7595	-0.036
Mof_C 	C 	0.3452	0.3663	0.6049	0.362
Mof_C 	C 	0.4313	0.6518	0.2533	0.466
Mof_C 	C 	0.3261	0.4192	0.6498	-0.157
Mof_H 	H 	0.3413	0.4561	0.6736	-0.277
Mof_H 	H 	0.3112	0.4696	0.6335	-0.177
Mof_O 	O 	0.4189	0.2196	0.1979	-0.856
Mof_K 	K 	0.2699	0.8244	0.3256	0.598
Mof_O 	O 	0.472	0.4563	0.6564	-0.712
Mof_O 	O 	0.3181	0.5703	0.248	-0.669
Mof_Ni	Ni	0.25	0.25	0.8713	1.117
Mof_Ni	Ni	0.75	0.75	0.6287	1.117
Mof_Ni	Ni	0.75	0.75	0.1287	1.116
Mof_Ni	Ni	0.25	0.25	0.3713	1.117
Mof_K 	K 	0.25	0.75	0.00269	6.445
Mof_K 	K 	0.75	0.25	0.49731	6.525
Mof_K 	K 	0.75	0.25	0.99731	6.585
Mof_K 	K 	0.25	0.75	0.50269	6.526
_end
