data_functionalizedCrystal
_audit_creation_method	'EQeq! by Chris Wilmer'
_symmetry_space_group_name_H-M	'P1'
_symmetry_Int_Tables_number	1
_symmetry_cell_setting	triclinic
loop_
_symmetry_equiv_pos_as_xyz
  x,y,z
_cell_length_a	10.4883
_cell_length_b	11.2214
_cell_length_c	12.741
_cell_angle_alpha	100.986
_cell_angle_beta	110.352
_cell_angle_gamma	99.772
loop_
_atom_site_label
_atom_site_type_symbol
_atom_site_fract_x
_atom_site_fract_y
_atom_site_fract_z
_atom_site_charge
Mof_Gd	Gd	0.39343	0.45117	0.32424	1.605
Mof_O 	O 	0.6204	0.4366	0.3251	-0.451
Mof_O 	O 	0.4293	0.2786	0.4036	-0.445
Mof_O 	O 	0.6534	0.5026	0.5083	-0.514
Mof_O 	O 	0.5005	0.3287	0.5965	-0.477
Mof_O 	O 	0.3166	0.2643	0.158	-0.408
Mof_O 	O 	0.1649	0.294	0.2348	-0.409
Mof_C 	C 	0.7002	0.4736	0.431	0.423
Mof_C 	C 	0.0974	0.1099	0.0803	-0.094
Mof_C 	C 	0.47	0.2536	0.4994	0.441
Mof_C 	C 	0.4833	0.1208	0.4975	-0.136
Mof_C 	C 	0.9449	0.5437	0.579	-0.062
Mof_H 	H 	0.9075	0.5742	0.6338	0.043
Mof_C 	C 	0.486	0.0399	0.3996	0.122
Mof_C 	C 	0.8553	0.486	0.4659	-0.153
Mof_C 	C 	0.4985	0.0791	0.5962	-0.06
Mof_H 	H 	0.4982	0.1341	0.6628	0.048
Mof_C 	C 	0.9087	0.441	0.3841	0.151
Mof_C 	C 	0.1364	0.0294	0.005	0.083
Mof_C 	C 	0.1988	0.2282	0.1634	0.331
Mof_C 	C 	0.958	0.0798	0.0727	-0.062
Mof_H 	H 	0.9289	0.1347	0.1211	0.055
Mof_N 	N 	0.4808	0.0807	0.297	-0.29
Mof_H 	H 	0.4875	0.0298	0.2385	0.13
Mof_H 	H 	0.471	0.1563	0.2933	0.163
Mof_N 	N 	0.8306	0.3824	0.2746	-0.31
Mof_H 	H 	0.7385	0.3694	0.2486	0.159
Mof_H 	H 	0.8703	0.3562	0.2271	0.133
Mof_N 	N 	0.298	0.019	0.021	-0.265
Mof_H 	H 	0.3112	0.9514	0.9831	0.118
Mof_H 	H 	0.3714	0.0817	0.0685	0.133
Mof_Gd	Gd	0.60657	0.54883	0.67576	1.604
Mof_O 	O 	0.3796	0.5634	0.6749	-0.452
Mof_O 	O 	0.5707	0.7214	0.5964	-0.446
Mof_O 	O 	0.3466	0.4974	0.4917	-0.515
Mof_O 	O 	0.4995	0.6713	0.4035	-0.477
Mof_O 	O 	0.6834	0.7357	0.842	-0.408
Mof_O 	O 	0.8351	0.706	0.7652	-0.409
Mof_C 	C 	0.2998	0.5264	0.569	0.423
Mof_C 	C 	0.9026	0.8901	0.9197	-0.094
Mof_C 	C 	0.53	0.7464	0.5006	0.441
Mof_C 	C 	0.5167	0.8792	0.5025	-0.136
Mof_C 	C 	0.0551	0.4563	0.421	-0.062
Mof_H 	H 	0.0925	0.4258	0.3662	0.043
Mof_C 	C 	0.514	0.9601	0.6004	0.122
Mof_C 	C 	0.1447	0.514	0.5341	-0.153
Mof_C 	C 	0.5015	0.9209	0.4038	-0.06
Mof_H 	H 	0.5018	0.8659	0.3372	0.048
Mof_C 	C 	0.0913	0.559	0.6159	0.151
Mof_C 	C 	0.8636	0.9706	0.995	0.083
Mof_C 	C 	0.8012	0.7718	0.8366	0.331
Mof_C 	C 	0.042	0.9202	0.9273	-0.062
Mof_H 	H 	0.0711	0.8653	0.8789	0.055
Mof_N 	N 	0.5192	0.9193	0.703	-0.29
Mof_H 	H 	0.5125	0.9702	0.7615	0.13
Mof_H 	H 	0.529	0.8437	0.7067	0.163
Mof_N 	N 	0.1694	0.6176	0.7254	-0.31
Mof_H 	H 	0.2615	0.6306	0.7514	0.159
Mof_H 	H 	0.1297	0.6438	0.7729	0.133
Mof_N 	N 	0.702	0.981	0.979	-0.265
Mof_H 	H 	0.6888	0.0486	0.0169	0.118
Mof_H 	H 	0.6286	0.9183	0.9315	0.133
_end
