data_functionalizedCrystal
_audit_creation_method	'EQeq! by Chris Wilmer'
_symmetry_space_group_name_H-M	'P1'
_symmetry_Int_Tables_number	1
_symmetry_cell_setting	triclinic
loop_
_symmetry_equiv_pos_as_xyz
  x,y,z
_cell_length_a	13.4873
_cell_length_b	13.4873
_cell_length_c	8.0256
_cell_angle_alpha	90
_cell_angle_beta	90
_cell_angle_gamma	120
loop_
_atom_site_label
_atom_site_type_symbol
_atom_site_fract_x
_atom_site_fract_y
_atom_site_fract_z
_atom_site_charge
Mof_Mn	Mn	0.30158	0.33859	0.54474	0.788
Mof_O 	O 	0.22616	0.18084	0.4037	-0.34
Mof_C 	C 	0.53366	0.32224	0.5486	-0.144
Mof_C 	C 	0.3534	0.5597	0.7786	-0.137
Mof_O 	O 	0.24023	0.05707	0.2422	-0.343
Mof_C 	C 	0.2644	0.1578	0.2773	0.354
Mof_N 	N 	0.3482	0.2099	0.9982	-0.238
Mof_H 	H 	0.4135	0.2582	0.9447	0.113
Mof_H 	H 	0.2885	0.2002	0.936	0.151
Mof_C 	C 	0.345	0.2551	0.1631	-0.164
Mof_H 	H 	0.4219	0.2866	0.2104	0.059
Mof_N 	N 	0.36661	0.42887	0.3012	-0.298
Mof_H 	H 	0.3491	0.4849	0.2937	0.101
Mof_H 	H 	0.4434	0.462	0.3001	0.105
Mof_C 	C 	0.3204	0.3543	0.1535	0.014
Mof_H 	H 	0.3549	0.3987	0.0536	-0.002
Mof_H 	H 	0.2384	0.324	0.1471	0.021
Mof_N 	N 	0.4544	0.3206	0.6039	-0.147
Mof_N 	N 	0.3667	0.4992	0.6929	-0.149
Mof_Mn	Mn	0.66141	0.96299	0.54474	0.783
Mof_O 	O 	0.81916	0.04532	0.4037	-0.335
Mof_C 	C 	0.67776	0.21142	0.5486	-0.143
Mof_C 	C 	0.4403	0.7937	0.7786	-0.138
Mof_O 	O 	0.94293	0.18316	0.2422	-0.342
Mof_C 	C 	0.8422	0.1066	0.2773	0.353
Mof_N 	N 	0.7901	0.1383	0.9982	-0.237
Mof_H 	H 	0.7418	0.1553	0.9447	0.114
Mof_H 	H 	0.7998	0.0883	0.936	0.153
Mof_C 	C 	0.7449	0.0899	0.1631	-0.161
Mof_H 	H 	0.7134	0.1353	0.2104	0.059
Mof_N 	N 	0.57113	0.93774	0.3012	-0.297
Mof_H 	H 	0.5151	0.8642	0.2937	0.101
Mof_H 	H 	0.538	0.9814	0.3001	0.103
Mof_C 	C 	0.6457	0.9661	0.1535	0.009
Mof_H 	H 	0.6013	0.9562	0.0536	-0.002
Mof_H 	H 	0.676	0.9144	0.1471	0.022
Mof_N 	N 	0.6794	0.1338	0.6039	-0.145
Mof_N 	N 	0.5008	0.8675	0.6929	-0.15
Mof_Mn	Mn	0.03701	0.69842	0.54474	0.782
Mof_O 	O 	0.95468	0.77384	0.4037	-0.336
Mof_C 	C 	0.78858	0.46634	0.5486	-0.144
Mof_C 	C 	0.2063	0.6466	0.7786	-0.139
Mof_O 	O 	0.81684	0.75977	0.2422	-0.343
Mof_C 	C 	0.8934	0.7356	0.2773	0.353
Mof_N 	N 	0.8617	0.6518	0.9982	-0.238
Mof_H 	H 	0.8447	0.5865	0.9447	0.114
Mof_H 	H 	0.9117	0.7115	0.936	0.152
Mof_C 	C 	0.9101	0.655	0.1631	-0.159
Mof_H 	H 	0.8647	0.5781	0.2104	0.058
Mof_N 	N 	0.06226	0.63339	0.3012	-0.297
Mof_H 	H 	0.1358	0.6509	0.2937	0.101
Mof_H 	H 	0.0186	0.5566	0.3001	0.103
Mof_C 	C 	0.0339	0.6796	0.1535	0.008
Mof_H 	H 	0.0438	0.6451	0.0536	-0.001
Mof_H 	H 	0.0856	0.7616	0.1471	0.023
Mof_N 	N 	0.8662	0.5456	0.6039	-0.145
Mof_N 	N 	0.1325	0.6333	0.6929	-0.15
Mof_Mn	Mn	0.69842	0.66141	0.04474	0.708
Mof_O 	O 	0.77384	0.81916	0.9037	-0.298
Mof_C 	C 	0.46634	0.67776	0.0486	-0.205
Mof_C 	C 	0.6466	0.4403	0.2786	-0.147
Mof_O 	O 	0.75977	0.94293	0.7422	-0.329
Mof_C 	C 	0.7356	0.8422	0.7773	0.342
Mof_N 	N 	0.6518	0.7901	0.4982	-0.274
Mof_H 	H 	0.5865	0.7418	0.4447	0.101
Mof_H 	H 	0.7115	0.7998	0.436	0.141
Mof_C 	C 	0.655	0.7449	0.6631	-0.107
Mof_H 	H 	0.5781	0.7134	0.7104	0.055
Mof_N 	N 	0.63339	0.57113	0.8012	-0.284
Mof_H 	H 	0.6509	0.5151	0.7937	0.109
Mof_H 	H 	0.5566	0.538	0.8001	0.116
Mof_C 	C 	0.6796	0.6457	0.6535	-0.014
Mof_H 	H 	0.6451	0.6013	0.5536	0.025
Mof_H 	H 	0.7616	0.676	0.6471	0.042
Mof_N 	N 	0.5456	0.6794	0.1039	-0.139
Mof_N 	N 	0.6333	0.5008	0.1929	-0.157
Mof_Mn	Mn	0.33859	0.03701	0.04474	0.712
Mof_O 	O 	0.18084	0.95468	0.9037	-0.305
Mof_C 	C 	0.32224	0.78858	0.0486	-0.205
Mof_C 	C 	0.5597	0.2063	0.2786	-0.147
Mof_O 	O 	0.05707	0.81684	0.7422	-0.331
Mof_C 	C 	0.1578	0.8934	0.7773	0.344
Mof_N 	N 	0.2099	0.8617	0.4982	-0.273
Mof_H 	H 	0.2582	0.8447	0.4447	0.1
Mof_H 	H 	0.2002	0.9117	0.436	0.139
Mof_C 	C 	0.2551	0.9101	0.6631	-0.115
Mof_H 	H 	0.2866	0.8647	0.7104	0.056
Mof_N 	N 	0.42887	0.06226	0.8012	-0.285
Mof_H 	H 	0.4849	0.1358	0.7937	0.11
Mof_H 	H 	0.462	0.0186	0.8001	0.118
Mof_C 	C 	0.3543	0.0339	0.6535	-0.005
Mof_H 	H 	0.3987	0.0438	0.5536	0.023
Mof_H 	H 	0.324	0.0856	0.6471	0.04
Mof_N 	N 	0.3206	0.8662	0.1039	-0.139
Mof_N 	N 	0.4992	0.1325	0.1929	-0.157
Mof_Mn	Mn	0.96299	0.30158	0.04474	0.71
Mof_O 	O 	0.04532	0.22616	0.9037	-0.301
Mof_C 	C 	0.21142	0.53366	0.0486	-0.205
Mof_C 	C 	0.7937	0.3534	0.2786	-0.147
Mof_O 	O 	0.18316	0.24023	0.7422	-0.328
Mof_C 	C 	0.1066	0.2644	0.7773	0.344
Mof_N 	N 	0.1383	0.3482	0.4982	-0.273
Mof_H 	H 	0.1553	0.4135	0.4447	0.1
Mof_H 	H 	0.0883	0.2885	0.436	0.14
Mof_C 	C 	0.0899	0.345	0.6631	-0.114
Mof_H 	H 	0.1353	0.4219	0.7104	0.056
Mof_N 	N 	0.93774	0.36661	0.8012	-0.285
Mof_H 	H 	0.8642	0.3491	0.7937	0.11
Mof_H 	H 	0.9814	0.4434	0.8001	0.118
Mof_C 	C 	0.9661	0.3204	0.6535	-0.006
Mof_H 	H 	0.9562	0.3549	0.5536	0.024
Mof_H 	H 	0.9144	0.2384	0.6471	0.041
Mof_N 	N 	0.1338	0.4544	0.1039	-0.139
Mof_N 	N 	0.8675	0.3667	0.1929	-0.157
Mof_Mn	Mn	0.33333	0.66667	0.92447	0.919
Mof_Mn	Mn	0.66667	0.33333	0.42447	0.795
_end
