data_functionalizedCrystal
_audit_creation_method	'EQeq! by Chris Wilmer'
_symmetry_space_group_name_H-M	'P1'
_symmetry_Int_Tables_number	1
_symmetry_cell_setting	triclinic
loop_
_symmetry_equiv_pos_as_xyz
  x,y,z
_cell_length_a	10.2726
_cell_length_b	13.3346
_cell_length_c	15.2745
_cell_angle_alpha	100.554
_cell_angle_beta	107.524
_cell_angle_gamma	99.341
loop_
_atom_site_label
_atom_site_type_symbol
_atom_site_fract_x
_atom_site_fract_y
_atom_site_fract_z
_atom_site_charge
Mof_Ba	Ba	0.52788	0.8202	0.49016	1.823
Mof_Ba	Ba	0.08845	0.92503	0.39152	1.76
Mof_C 	C 	0.7827	0.6179	0.923	0.175
Mof_C 	C 	0.1533	0.7599	0.98	0.032
Mof_C 	C 	0.7596	0.6957	0.8759	-0.1
Mof_H 	H 	0.7682	0.7637	0.909	0.109
Mof_C 	C 	0.0948	0.7363	0.8812	-0.096
Mof_C 	C 	0.7234	0.6706	0.778	-0.085
Mof_C 	C 	0.7732	0.5176	0.8756	-0.081
Mof_H 	H 	0.793	0.467	0.909	0.118
Mof_C 	C 	0.1367	0.9396	0.9864	-0.09
Mof_H 	H 	0.1509	0.0075	0.022	0.115
Mof_C 	C 	0.734	0.492	0.7778	-0.103
Mof_C 	C 	0.0569	0.8146	0.8365	0.029
Mof_H 	H 	0.0184	0.799	0.7708	0.03
Mof_C 	C 	0.0761	0.9153	0.889	-0.079
Mof_C 	C 	0.1757	0.8625	0.0302	0.134
Mof_C 	C 	0.9146	0.7025	0.2103	0.371
Mof_C 	C 	0.7096	0.5693	0.7296	0.037
Mof_H 	H 	0.6837	0.5527	0.6639	0.022
Mof_C 	C 	0.4588	0.9506	0.2541	-0.187
Mof_C 	C 	0.0748	0.6297	0.8207	0.361
Mof_C 	C 	0.5762	0.633	0.0039	-0.205
Mof_H 	H 	0.5479	0.6084	0.9385	0.113
Mof_C 	C 	0.3696	0.9502	0.3167	0.409
Mof_C 	C 	0.7156	0.6551	0.0581	0.228
Mof_C 	C 	0.7155	0.3828	0.7239	0.525
Mof_C 	C 	0.6621	0.7066	0.2	-0.032
Mof_C 	C 	0.761	0.6898	0.1566	-0.143
Mof_C 	C 	0.7038	0.7513	0.3052	0.395
Mof_C 	C 	0.3893	0.9208	0.1568	0.23
Mof_C 	C 	0.6993	0.7509	0.7225	0.415
Mof_C 	C 	0.4621	0.9224	0.0938	-0.204
Mof_H 	H 	0.4141	0.9029	0.0289	0.11
Mof_C 	C 	0.0369	0.9973	0.8373	0.425
Mof_C 	C 	0.6908	0.0103	0.3927	0.326
Mof_C 	C 	0.6058	0.9804	0.2888	-0.04
Mof_C 	C 	0.6773	0.9807	0.2248	-0.077
Mof_H 	H 	0.7748	0.9998	0.2472	0.046
Mof_C 	C 	0.5211	0.6848	0.1443	-0.087
Mof_H 	H 	0.4546	0.6955	0.1728	0.089
Mof_C 	C 	0.6061	0.9532	0.1287	0.056
Mof_H 	H 	0.6558	0.9554	0.087	0.023
Mof_C 	C 	0.4786	0.6476	0.0472	0.068
Mof_H 	H 	0.3839	0.6324	0.011	0.03
Mof_O 	O 	0.0729	0.0919	0.891	-0.567
Mof_H 	H 	0.051	0.128	0.858	0.371
Mof_O 	O 	0.9782	0.974	0.7519	-0.433
Mof_O 	O 	0.8267	0.8595	0.531	-0.878
Mof_H 	H 	0.8436	0.8417	0.4799	0.302
Mof_H 	H 	0.8688	0.8226	0.5649	0.315
Mof_O 	O 	0.6692	0.7312	0.6373	-0.457
Mof_O 	O 	0.7129	0.8442	0.7749	-0.518
Mof_H 	H 	0.687	0.88	0.739	0.306
Mof_O 	O 	0.751	0.3199	0.7787	-0.759
Mof_H 	H 	0.738	0.269	0.751	0.501
Mof_O 	O 	0.6704	0.3567	0.6379	-0.502
Mof_O 	O 	0.8213	0.6414	0.0214	-0.236
Mof_O 	O 	0.8311	0.7919	0.3511	-0.476
Mof_O 	O 	0.6087	0.7468	0.3405	-0.438
Mof_O 	O 	0.9507	0.6284	0.2427	-0.299
Mof_O 	O 	0.9978	0.7864	0.2171	-0.407
Mof_O 	O 	0.2445	0.8894	0.12827	-0.244
Mof_O 	O 	0.113	0.5612	0.8694	-0.402
Mof_H 	H 	0.093	0.501	0.826	0.266
Mof_O 	O 	0.0299	0.6091	0.7353	-0.289
Mof_O 	O 	0.3324	0.8679	0.3407	-0.543
Mof_O 	O 	0.6257	0.0139	0.452	-0.574
Mof_O 	O 	0.8217	0.0279	0.4157	-0.519
Mof_O 	O 	0.3287	0.0319	0.3391	-0.513
Mof_Ba	Ba	0.47212	0.1798	0.50984	1.822
Mof_Ba	Ba	0.91155	0.07497	0.60848	1.759
Mof_C 	C 	0.2173	0.3821	0.077	0.174
Mof_C 	C 	0.8467	0.2401	0.02	0.031
Mof_C 	C 	0.2404	0.3043	0.1241	-0.1
Mof_H 	H 	0.2318	0.2363	0.091	0.109
Mof_C 	C 	0.9052	0.2637	0.1188	-0.096
Mof_C 	C 	0.2766	0.3294	0.222	-0.085
Mof_C 	C 	0.2268	0.4824	0.1244	-0.081
Mof_H 	H 	0.207	0.533	0.091	0.118
Mof_C 	C 	0.8633	0.0604	0.0136	-0.09
Mof_H 	H 	0.8491	0.9925	0.978	0.115
Mof_C 	C 	0.266	0.508	0.2222	-0.103
Mof_C 	C 	0.9431	0.1854	0.1635	0.029
Mof_H 	H 	0.9816	0.201	0.2292	0.03
Mof_C 	C 	0.9239	0.0847	0.111	-0.079
Mof_C 	C 	0.8243	0.1375	0.9698	0.134
Mof_C 	C 	0.0854	0.2975	0.7897	0.371
Mof_C 	C 	0.2904	0.4307	0.2704	0.037
Mof_H 	H 	0.3163	0.4473	0.3361	0.022
Mof_C 	C 	0.5412	0.0494	0.7459	-0.187
Mof_C 	C 	0.9252	0.3703	0.1793	0.361
Mof_C 	C 	0.4238	0.367	0.9961	-0.205
Mof_H 	H 	0.4521	0.3916	0.0615	0.113
Mof_C 	C 	0.6304	0.0498	0.6833	0.409
Mof_C 	C 	0.2844	0.3449	0.9419	0.228
Mof_C 	C 	0.2845	0.6172	0.2761	0.525
Mof_C 	C 	0.3379	0.2934	0.8	-0.032
Mof_C 	C 	0.239	0.3102	0.8434	-0.143
Mof_C 	C 	0.2962	0.2487	0.6948	0.395
Mof_C 	C 	0.6107	0.0792	0.8432	0.23
Mof_C 	C 	0.3007	0.2491	0.2775	0.415
Mof_C 	C 	0.5379	0.0776	0.9062	-0.204
Mof_H 	H 	0.5859	0.0971	0.9711	0.11
Mof_C 	C 	0.9631	0.0027	0.1627	0.425
Mof_C 	C 	0.3092	0.9897	0.6073	0.326
Mof_C 	C 	0.3942	0.0196	0.7112	-0.04
Mof_C 	C 	0.3227	0.0193	0.7752	-0.077
Mof_H 	H 	0.2252	0.0002	0.7528	0.046
Mof_C 	C 	0.4789	0.3152	0.8557	-0.087
Mof_H 	H 	0.5454	0.3045	0.8272	0.089
Mof_C 	C 	0.3939	0.0468	0.8713	0.056
Mof_H 	H 	0.3442	0.0446	0.913	0.023
Mof_C 	C 	0.5214	0.3524	0.9528	0.068
Mof_H 	H 	0.6161	0.3676	0.989	0.03
Mof_O 	O 	0.9271	0.9081	0.109	-0.567
Mof_H 	H 	0.949	0.872	0.142	0.371
Mof_O 	O 	0.0218	0.026	0.2481	-0.433
Mof_O 	O 	0.1733	0.1405	0.469	-0.878
Mof_H 	H 	0.1564	0.1583	0.5201	0.302
Mof_H 	H 	0.1312	0.1774	0.4351	0.315
Mof_O 	O 	0.3308	0.2688	0.3627	-0.457
Mof_O 	O 	0.2871	0.1558	0.2251	-0.518
Mof_H 	H 	0.313	0.12	0.261	0.306
Mof_O 	O 	0.249	0.6801	0.2213	-0.759
Mof_H 	H 	0.262	0.731	0.249	0.501
Mof_O 	O 	0.3296	0.6433	0.3621	-0.502
Mof_O 	O 	0.1787	0.3586	0.9786	-0.236
Mof_O 	O 	0.1689	0.2081	0.6489	-0.476
Mof_O 	O 	0.3913	0.2532	0.6595	-0.438
Mof_O 	O 	0.0493	0.3716	0.7573	-0.299
Mof_O 	O 	0.0022	0.2136	0.7829	-0.407
Mof_O 	O 	0.7555	0.1106	0.87173	-0.244
Mof_O 	O 	0.887	0.4388	0.1306	-0.402
Mof_H 	H 	0.907	0.499	0.174	0.266
Mof_O 	O 	0.9701	0.3909	0.2647	-0.289
Mof_O 	O 	0.6676	0.1321	0.6593	-0.543
Mof_O 	O 	0.3743	0.9861	0.548	-0.574
Mof_O 	O 	0.1783	0.9721	0.5843	-0.519
Mof_O 	O 	0.6713	0.9681	0.6609	-0.513
_end
