data_functionalizedCrystal
_audit_creation_method	'EQeq! by Chris Wilmer'
_symmetry_space_group_name_H-M	'P1'
_symmetry_Int_Tables_number	1
_symmetry_cell_setting	triclinic
loop_
_symmetry_equiv_pos_as_xyz
  x,y,z
_cell_length_a	19.905
_cell_length_b	20.55
_cell_length_c	20.55
_cell_angle_alpha	90
_cell_angle_beta	90
_cell_angle_gamma	90
loop_
_atom_site_label
_atom_site_type_symbol
_atom_site_fract_x
_atom_site_fract_y
_atom_site_fract_z
_atom_site_charge
Mof_Mn	Mn	0.5	0.40588	0.59412	0.634
Mof_Mn	Mn	0.5	0.59412	0.59412	0.607
Mof_Mn	Mn	-0	0.5	-0	-14.907
Mof_Mn	Mn	0.5	0.59412	0.40588	0.633
Mof_Mn	Mn	1.93545e-33	6.00613e-33	0.5	-14.907
Mof_Mn	Mn	0.5	0.40588	0.40588	0.66
Mof_H 	H 	0.7252	0.7491	0.5986	-0.016
Mof_H 	H 	0.8134	0.1755	0.4014	0.14
Mof_H 	H 	0.7495	0.0612	0.5	0.04
Mof_H 	H 	0.0626	0.7565	0.5	-0.04
Mof_H 	H 	0.7252	0.5986	0.2509	0.007
Mof_H 	H 	9.71407e-34	0.5	0.057	4.775
Mof_H 	H 	0.2748	0.7491	0.5986	0.009
Mof_H 	H 	3.65025e-33	0.5	0.943	4.628
Mof_H 	H 	0.8134	0.4014	0.1755	0.14
Mof_H 	H 	0.1866	0.5986	0.1755	0.182
Mof_H 	H 	0.1866	0.8245	0.4014	0.165
Mof_H 	H 	0.8134	0.5986	0.8245	0.086
Mof_H 	H 	0.1866	0.8245	0.5986	0.143
Mof_H 	H 	0.8134	0.4014	0.8245	0.105
Mof_H 	H 	0.7495	0.5	0.0612	0.04
Mof_H 	H 	1.93545e-33	0.057	0.5	4.775
Mof_H 	H 	0.1866	0.1755	0.5986	0.182
Mof_H 	H 	0.2748	0.7491	0.4014	0.025
Mof_H 	H 	0.2505	0.0612	0.5	0.043
Mof_H 	H 	0.7252	0.7491	0.4014	-0.001
Mof_H 	H 	0.7252	0.2509	0.4014	0.023
Mof_H 	H 	0.2748	0.4014	0.2509	0.05
Mof_H 	H 	0.9374	0.2435	0.5	0.295
Mof_H 	H 	0.0626	0.5	0.7565	-0.04
Mof_H 	H 	0.7495	0.9388	0.5	0.217
Mof_H 	H 	0.9416	0.5	-0	4.612
Mof_H 	H 	0.2505	0.5	0.9388	0.236
Mof_H 	H 	0.0626	0.5	0.2435	-0.041
Mof_H 	H 	0.2748	0.5986	0.7491	0.009
Mof_H 	H 	0.8134	0.8245	0.5986	0.086
Mof_H 	H 	0.0584	6.00613e-33	0.5	4.859
Mof_H 	H 	0.8134	0.8245	0.4014	0.105
Mof_H 	H 	0.8134	0.5986	0.1755	0.12
Mof_H 	H 	0.2505	0.5	0.0612	0.043
Mof_H 	H 	0.1866	0.1755	0.4014	0.204
Mof_H 	H 	7.94158e-33	0.943	0.5	4.628
Mof_H 	H 	0.2748	0.2509	0.4014	0.05
Mof_H 	H 	0.9374	0.5	0.2435	0.295
Mof_H 	H 	0.2748	0.4014	0.7491	0.025
Mof_H 	H 	0.0584	0.5	-0	4.859
Mof_H 	H 	0.2748	0.2509	0.5986	0.034
Mof_H 	H 	0.7252	0.4014	0.7491	-0.001
Mof_H 	H 	0.7252	0.5986	0.7491	-0.016
Mof_H 	H 	0.9374	0.5	0.7565	0.279
Mof_H 	H 	0.0626	0.2435	0.5	-0.041
Mof_H 	H 	0.7495	0.5	0.9388	0.217
Mof_H 	H 	0.9416	6.00613e-33	0.5	4.612
Mof_H 	H 	0.7252	0.4014	0.2509	0.023
Mof_H 	H 	0.8134	0.1755	0.5986	0.12
Mof_H 	H 	0.2748	0.5986	0.2509	0.034
Mof_H 	H 	0.1866	0.5986	0.8245	0.143
Mof_H 	H 	0.1866	0.4014	0.8245	0.165
Mof_H 	H 	0.7252	0.2509	0.5986	0.007
Mof_H 	H 	0.9374	0.7565	0.5	0.279
Mof_H 	H 	0.1866	0.4014	0.1755	0.204
Mof_H 	H 	0.2505	0.9388	0.5	0.236
Mof_C 	C 	0.1221	0.5	0.1173	-0.383
Mof_C 	C 	0.7154	0.5	0.25618	-0.1
Mof_C 	C 	0.2052	0.44137	0.1901	-0.214
Mof_C 	C 	0.7876	0.5	0.9668	-0.646
Mof_C 	C 	0.7424	0.5586	0.7651	0.074
Mof_C 	C 	0.7154	0.74382	0.5	-0.118
Mof_C 	C 	0.7876	0.0332	0.5	0.177
Mof_C 	C 	0.82001	0.5	0.16675	0.283
Mof_C 	C 	0.7154	0.25618	0.5	-0.1
Mof_C 	C 	0.2846	0.5	0.25618	-0.086
Mof_C 	C 	0.2052	0.1901	0.55863	-0.217
Mof_C 	C 	0.854	0.5	0.9488	0.674
Mof_C 	C 	0.17999	0.5	0.83325	0.281
Mof_C 	C 	0.2052	0.8099	0.55863	-0.238
Mof_C 	C 	0.82001	0.5	0.83325	0.286
Mof_C 	C 	0.9657	0.2063	0.5	-0.951
Mof_C 	C 	0.146	0.5	0.9488	0.728
Mof_C 	C 	0.7948	0.1901	0.55863	-0.242
Mof_C 	C 	0.854	0.9488	0.5	0.674
Mof_C 	C 	0.7948	0.44137	0.1901	-0.239
Mof_C 	C 	0.7876	0.5	0.0332	0.177
Mof_C 	C 	0.2124	0.5	0.0332	0.223
Mof_C 	C 	0.9657	0.5	0.7937	-0.927
Mof_C 	C 	0.7948	0.8099	0.55863	-0.262
Mof_C 	C 	0.2576	0.7651	0.4414	0.102
Mof_C 	C 	0.6615	0.5	0.6978	0.128
Mof_C 	C 	0.2124	0.0332	0.5	0.223
Mof_C 	C 	0.2576	0.2349	0.4414	0.115
Mof_C 	C 	0.2846	0.74382	0.5	-0.105
Mof_C 	C 	0.3385	0.6978	0.5	0.148
Mof_C 	C 	0.2052	0.55863	0.1901	-0.217
Mof_C 	C 	0.9453	0.5	0.8574	0.62
Mof_C 	C 	0.2124	0.5	0.9668	-0.664
Mof_C 	C 	0.854	0.0512	0.5	0.646
Mof_C 	C 	0.9453	0.8574	0.5	0.62
Mof_C 	C 	0.146	0.9488	0.5	0.728
Mof_C 	C 	0.7424	0.4414	0.7651	0.078
Mof_C 	C 	0.7424	0.5586	0.2349	0.086
Mof_C 	C 	0.8779	0.5	0.8827	-0.591
Mof_C 	C 	0.9657	0.5	0.2063	-0.951
Mof_C 	C 	0.3385	0.5	0.6978	0.148
Mof_C 	C 	0.146	0.0512	0.5	0.707
Mof_C 	C 	0.7424	0.7651	0.5586	0.074
Mof_C 	C 	0.6615	0.6978	0.5	0.128
Mof_C 	C 	0.7948	0.55863	0.1901	-0.242
Mof_C 	C 	0.3385	0.5	0.3022	0.161
Mof_C 	C 	0.2124	0.9668	0.5	-0.664
Mof_C 	C 	0.0547	0.1426	0.5	0.578
Mof_C 	C 	0.2052	0.8099	0.44137	-0.235
Mof_C 	C 	0.2846	0.5	0.74382	-0.105
Mof_C 	C 	0.0547	0.5	0.1426	0.578
Mof_C 	C 	0.2052	0.1901	0.44137	-0.214
Mof_C 	C 	0.6615	0.3022	0.5	0.14
Mof_C 	C 	0.0343	0.5	0.2063	0.571
Mof_C 	C 	0.0547	0.5	0.8574	0.541
Mof_C 	C 	0.1221	0.5	0.8827	-0.459
Mof_C 	C 	0.6615	0.5	0.3022	0.14
Mof_C 	C 	0.1221	0.8827	0.5	-0.459
Mof_C 	C 	0.82001	0.16675	0.5	0.283
Mof_C 	C 	0.2052	0.44137	0.8099	-0.235
Mof_C 	C 	0.2576	0.4414	0.2349	0.115
Mof_C 	C 	0.82001	0.83325	0.5	0.286
Mof_C 	C 	0.7424	0.2349	0.4414	0.09
Mof_C 	C 	0.3385	0.3022	0.5	0.161
Mof_C 	C 	0.8779	0.8827	0.5	-0.591
Mof_C 	C 	0.7424	0.2349	0.5586	0.086
Mof_C 	C 	0.0343	0.2063	0.5	0.571
Mof_C 	C 	0.9657	0.7937	0.5	-0.927
Mof_C 	C 	0.8779	0.5	0.1173	-0.525
Mof_C 	C 	0.9453	0.1426	0.5	0.651
Mof_C 	C 	0.8779	0.1173	0.5	-0.525
Mof_C 	C 	0.2576	0.5586	0.7651	0.098
Mof_C 	C 	0.9453	0.5	0.1426	0.651
Mof_C 	C 	0.2576	0.4414	0.7651	0.102
Mof_C 	C 	0.17999	0.5	0.16675	0.277
Mof_C 	C 	0.7154	0.5	0.74382	-0.118
Mof_C 	C 	0.0343	0.7937	0.5	0.528
Mof_C 	C 	0.7948	0.8099	0.44137	-0.259
Mof_C 	C 	0.7948	0.44137	0.8099	-0.259
Mof_C 	C 	0.7424	0.7651	0.4414	0.078
Mof_C 	C 	0.2576	0.5586	0.2349	0.111
Mof_C 	C 	0.7948	0.1901	0.44137	-0.239
Mof_C 	C 	0.17999	0.83325	0.5	0.281
Mof_C 	C 	0.7876	0.9668	0.5	-0.646
Mof_C 	C 	0.2052	0.55863	0.8099	-0.238
Mof_C 	C 	0.7424	0.4414	0.2349	0.09
Mof_C 	C 	0.854	0.5	0.0512	0.646
Mof_C 	C 	0.2846	0.25618	0.5	-0.086
Mof_C 	C 	0.0547	0.8574	0.5	0.541
Mof_C 	C 	0.7948	0.55863	0.8099	-0.262
Mof_C 	C 	0.17999	0.16675	0.5	0.277
Mof_C 	C 	0.1221	0.1173	0.5	-0.383
Mof_C 	C 	0.2576	0.2349	0.5586	0.111
Mof_C 	C 	0.146	0.5	0.0512	0.707
Mof_C 	C 	0.2576	0.7651	0.5586	0.098
Mof_C 	C 	0.0343	0.5	0.7937	0.528
Mof_N 	N 	0.42304	0.46732	0.64193	-0.119
Mof_N 	N 	0.37158	0.32229	0.5543	-0.091
Mof_N 	N 	0.57696	0.64193	0.46732	-0.124
Mof_N 	N 	0.37158	0.4457	0.32229	-0.083
Mof_N 	N 	0.57696	0.35807	0.46732	-0.118
Mof_N 	N 	0.37158	0.67771	0.5543	-0.105
Mof_N 	N 	0.42304	0.35807	0.53268	-0.115
Mof_N 	N 	0.62842	0.32229	0.4457	-0.093
Mof_N 	N 	0.37158	0.67771	0.4457	-0.097
Mof_N 	N 	0.62842	0.4457	0.67771	-0.107
Mof_N 	N 	0.62842	0.4457	0.32229	-0.093
Mof_N 	N 	0.37158	0.32229	0.4457	-0.083
Mof_N 	N 	-8.52768e-33	0.5	0.9002	-1.786
Mof_N 	N 	0.42304	0.64193	0.46732	-0.119
Mof_N 	N 	0.8974	6.00613e-33	0.5	-1.932
Mof_N 	N 	-4.86905e-33	0.5	0.0998	-1.782
Mof_N 	N 	0.42304	0.53268	0.35807	-0.115
Mof_N 	N 	0.37158	0.5543	0.67771	-0.105
Mof_N 	N 	0.62842	0.32229	0.5543	-0.1
Mof_N 	N 	0.62842	0.5543	0.67771	-0.114
Mof_N 	N 	0.42304	0.35807	0.46732	-0.114
Mof_N 	N 	0.62842	0.67771	0.4457	-0.107
Mof_N 	N 	0.57696	0.53268	0.64193	-0.125
Mof_N 	N 	0.42304	0.46732	0.35807	-0.114
Mof_N 	N 	0.1026	6.00613e-33	0.5	-1.934
Mof_N 	N 	0.62842	0.5543	0.32229	-0.1
Mof_N 	N 	0.62842	0.67771	0.5543	-0.114
Mof_N 	N 	0.57696	0.53268	0.35807	-0.12
Mof_N 	N 	0.57696	0.64193	0.53268	-0.125
Mof_N 	N 	0.37158	0.5543	0.32229	-0.091
Mof_N 	N 	0.57696	0.46732	0.35807	-0.118
Mof_N 	N 	0.37158	0.4457	0.67771	-0.097
Mof_N 	N 	-4.07068e-33	0.0998	0.5	-1.782
Mof_N 	N 	0.42304	0.53268	0.64193	-0.121
Mof_N 	N 	0.57696	0.46732	0.64193	-0.124
Mof_N 	N 	0.42304	0.64193	0.53268	-0.121
Mof_N 	N 	0.8974	0.5	-0	-1.932
Mof_N 	N 	-4.07068e-33	0.9002	0.5	-1.786
Mof_N 	N 	0.57696	0.35807	0.53268	-0.12
Mof_N 	N 	0.1026	0.5	-0	-1.934
_end
