data_functionalizedCrystal
_audit_creation_method	'EQeq! by Chris Wilmer'
_symmetry_space_group_name_H-M	'P1'
_symmetry_Int_Tables_number	1
_symmetry_cell_setting	triclinic
loop_
_symmetry_equiv_pos_as_xyz
  x,y,z
_cell_length_a	11.9474
_cell_length_b	11.9474
_cell_length_c	16.246
_cell_angle_alpha	72.2653
_cell_angle_beta	72.2653
_cell_angle_gamma	77.7997
loop_
_atom_site_label
_atom_site_type_symbol
_atom_site_fract_x
_atom_site_fract_y
_atom_site_fract_z
_atom_site_charge
Mof_Mn	Mn	0.83314	0.61304	0.04752	0.85
Mof_Mn	Mn	0.38696	0.16686	0.45248	0.85
Mof_Mn	Mn	0.16686	0.38696	0.95248	0.851
Mof_Mn	Mn	0.61304	0.83314	0.54752	0.851
Mof_H 	H 	0.1921	0.3479	0.2241	0.049
Mof_H 	H 	0.8232	0.5302	0.4747	0.127
Mof_H 	H 	0.7109	0.3531	0.4889	0.134
Mof_H 	H 	0.8568	0.51	0.2598	0.07
Mof_H 	H 	0.0191	0.4259	0.4581	0.071
Mof_H 	H 	0.5435	0.5769	0.3214	0.133
Mof_H 	H 	0.7355	0.6211	0.3312	0.107
Mof_H 	H 	0.6675	0.6323	0.428	0.103
Mof_H 	H 	0.5928	0.2184	0.5062	-0.038
Mof_H 	H 	0.434	0.4322	0.3395	-0.03
Mof_H 	H 	0.6521	0.8079	0.2759	0.049
Mof_H 	H 	0.4698	0.1768	0.0253	0.127
Mof_H 	H 	0.6469	0.2891	0.0111	0.133
Mof_H 	H 	0.49	0.1432	0.2402	0.07
Mof_H 	H 	0.5741	0.9809	0.0419	0.071
Mof_H 	H 	0.4231	0.4565	0.1786	0.133
Mof_H 	H 	0.3789	0.2645	0.1688	0.107
Mof_H 	H 	0.3677	0.3325	0.072	0.103
Mof_H 	H 	0.7816	0.4072	0.9938	-0.037
Mof_H 	H 	0.5678	0.566	0.1605	-0.03
Mof_H 	H 	0.8079	0.6521	0.7759	0.049
Mof_H 	H 	0.1768	0.4698	0.5253	0.127
Mof_H 	H 	0.2891	0.6469	0.5111	0.134
Mof_H 	H 	0.1432	0.49	0.7402	0.07
Mof_H 	H 	0.9809	0.5741	0.5419	0.071
Mof_H 	H 	0.4565	0.4231	0.6786	0.133
Mof_H 	H 	0.2645	0.3789	0.6688	0.107
Mof_H 	H 	0.3325	0.3677	0.572	0.103
Mof_H 	H 	0.4072	0.7816	0.4938	-0.038
Mof_H 	H 	0.566	0.5678	0.6605	-0.03
Mof_H 	H 	0.3479	0.1921	0.7241	0.049
Mof_H 	H 	0.5302	0.8232	0.9747	0.127
Mof_H 	H 	0.3531	0.7109	0.9889	0.133
Mof_H 	H 	0.51	0.8568	0.7598	0.07
Mof_H 	H 	0.4259	0.0191	0.9581	0.071
Mof_H 	H 	0.5769	0.5435	0.8214	0.133
Mof_H 	H 	0.6211	0.7355	0.8312	0.107
Mof_H 	H 	0.6323	0.6675	0.928	0.103
Mof_H 	H 	0.2184	0.5928	0.0062	-0.037
Mof_H 	H 	0.4322	0.434	0.8395	-0.03
Mof_C 	C 	0.1244	0.38	0.2603	-0.008
Mof_C 	C 	0.0255	0.4311	0.2273	-0.073
Mof_C 	C 	0.9205	0.4803	0.3684	0.103
Mof_C 	C 	0.653	0.374	0.4575	-0.281
Mof_C 	C 	0.1223	0.3767	0.3473	-0.046
Mof_C 	C 	0.9236	0.4788	0.2814	-0.076
Mof_C 	C 	0.2239	0.3139	0.3854	0.28
Mof_C 	C 	0.6409	0.4837	0.4035	0.238
Mof_C 	C 	0.0202	0.4274	0.4003	-0.094
Mof_C 	C 	0.0271	0.4287	0.135	0.367
Mof_C 	C 	0.5571	0.5031	0.3602	-0.283
Mof_C 	C 	0.7145	0.5771	0.3935	-0.206
Mof_C 	C 	0.5815	0.2925	0.4671	0.182
Mof_C 	C 	0.4899	0.4149	0.3724	0.178
Mof_C 	C 	0.62	0.8756	0.2397	-0.008
Mof_C 	C 	0.5689	0.9745	0.2727	-0.073
Mof_C 	C 	0.5197	0.0795	0.1316	0.103
Mof_C 	C 	0.626	0.347	0.0425	-0.28
Mof_C 	C 	0.6233	0.8777	0.1527	-0.045
Mof_C 	C 	0.5212	0.0764	0.2186	-0.076
Mof_C 	C 	0.6861	0.7761	0.1146	0.28
Mof_C 	C 	0.5163	0.3591	0.0965	0.238
Mof_C 	C 	0.5726	0.9798	0.0997	-0.095
Mof_C 	C 	0.5713	0.9729	0.365	0.366
Mof_C 	C 	0.4969	0.4429	0.1398	-0.283
Mof_C 	C 	0.4229	0.2855	0.1065	-0.206
Mof_C 	C 	0.7075	0.4185	0.0329	0.181
Mof_C 	C 	0.5851	0.5101	0.1276	0.178
Mof_C 	C 	0.8756	0.62	0.7397	-0.008
Mof_C 	C 	0.9745	0.5689	0.7727	-0.073
Mof_C 	C 	0.0795	0.5197	0.6316	0.103
Mof_C 	C 	0.347	0.626	0.5425	-0.281
Mof_C 	C 	0.8777	0.6233	0.6527	-0.046
Mof_C 	C 	0.0764	0.5212	0.7186	-0.076
Mof_C 	C 	0.7761	0.6861	0.6146	0.28
Mof_C 	C 	0.3591	0.5163	0.5965	0.238
Mof_C 	C 	0.9798	0.5726	0.5997	-0.094
Mof_C 	C 	0.9729	0.5713	0.865	0.367
Mof_C 	C 	0.4429	0.4969	0.6398	-0.283
Mof_C 	C 	0.2855	0.4229	0.6065	-0.206
Mof_C 	C 	0.4185	0.7075	0.5329	0.182
Mof_C 	C 	0.5101	0.5851	0.6276	0.178
Mof_C 	C 	0.38	0.1244	0.7603	-0.008
Mof_C 	C 	0.4311	0.0255	0.7273	-0.073
Mof_C 	C 	0.4803	0.9205	0.8684	0.103
Mof_C 	C 	0.374	0.653	0.9575	-0.28
Mof_C 	C 	0.3767	0.1223	0.8473	-0.045
Mof_C 	C 	0.4788	0.9236	0.7814	-0.076
Mof_C 	C 	0.3139	0.2239	0.8854	0.28
Mof_C 	C 	0.4837	0.6409	0.9035	0.238
Mof_C 	C 	0.4274	0.0202	0.9003	-0.095
Mof_C 	C 	0.4287	0.0271	0.635	0.366
Mof_C 	C 	0.5031	0.5571	0.8602	-0.283
Mof_C 	C 	0.5771	0.7145	0.8935	-0.206
Mof_C 	C 	0.2925	0.5815	0.9671	0.181
Mof_C 	C 	0.4149	0.4899	0.8724	0.178
Mof_N 	N 	0.8212	0.5288	0.4226	-0.171
Mof_N 	N 	0.4997	0.3105	0.4261	-0.23
Mof_N 	N 	0.4712	0.1788	0.0774	-0.171
Mof_N 	N 	0.6895	0.5003	0.0739	-0.23
Mof_N 	N 	0.1788	0.4712	0.5774	-0.171
Mof_N 	N 	0.5003	0.6895	0.5739	-0.23
Mof_N 	N 	0.5288	0.8212	0.9226	-0.171
Mof_N 	N 	0.3105	0.4997	0.9261	-0.23
Mof_O 	O 	0.2192	0.3056	0.4653	-0.326
Mof_O 	O 	0.3127	0.2653	0.3363	-0.342
Mof_O 	O 	0.1229	0.3893	0.0881	-0.388
Mof_O 	O 	0.9326	0.464	0.1109	-0.4
Mof_O 	O 	0.6944	0.7808	0.0347	-0.326
Mof_O 	O 	0.7347	0.6873	0.1637	-0.342
Mof_O 	O 	0.6107	0.8771	0.4119	-0.388
Mof_O 	O 	0.536	0.0674	0.3891	-0.4
Mof_O 	O 	0.7808	0.6944	0.5347	-0.326
Mof_O 	O 	0.6873	0.7347	0.6637	-0.342
Mof_O 	O 	0.8771	0.6107	0.9119	-0.388
Mof_O 	O 	0.0674	0.536	0.8891	-0.4
Mof_O 	O 	0.3056	0.2192	0.9653	-0.326
Mof_O 	O 	0.2653	0.3127	0.8363	-0.342
Mof_O 	O 	0.3893	0.1229	0.5881	-0.388
Mof_O 	O 	0.464	0.9326	0.6109	-0.4
_end
