data_functionalizedCrystal
_audit_creation_method	'EQeq! by Chris Wilmer'
_symmetry_space_group_name_H-M	'P1'
_symmetry_Int_Tables_number	1
_symmetry_cell_setting	triclinic
loop_
_symmetry_equiv_pos_as_xyz
  x,y,z
_cell_length_a	12.3331
_cell_length_b	14.7388
_cell_length_c	14.9946
_cell_angle_alpha	111.546
_cell_angle_beta	105.075
_cell_angle_gamma	106.267
loop_
_atom_site_label
_atom_site_type_symbol
_atom_site_fract_x
_atom_site_fract_y
_atom_site_fract_z
_atom_site_charge
Mof_U 	U 	0.44523	0.03342	0.45241	0.001
Mof_U 	U 	0.65923	0.79601	0.8678	0.004
Mof_U 	U 	0.69015	0.45513	0.20302	-0.009
Mof_U 	U 	0.13737	0.6846	0.80829	-0.001
Mof_O 	O 	0.6035	0.1699	0.4315	-0.18
Mof_O 	O 	0.5912	0.006	0.3763	-0.173
Mof_O 	O 	0.6587	0.8732	0.0446	-0.168
Mof_O 	O 	0.7558	0.9905	0.0039	-0.194
Mof_O 	O 	0.4334	0.8465	0.4	-0.198
Mof_O 	O 	0.305	0.8898	0.4658	-0.195
Mof_O 	O 	0.1413	0.5685	0.6429	-0.186
Mof_O 	O 	0.2359	0.7418	0.7041	-0.173
Mof_O 	O 	0.3045	0.0892	0.525	-0.177
Mof_O 	O 	0.4492	0.216	0.5261	-0.174
Mof_O 	O 	0.5581	0.6005	0.7549	-0.173
Mof_O 	O 	0.5316	0.6547	0.9017	-0.161
Mof_O 	O 	0.7728	0.911	0.8104	-0.187
Mof_O 	O 	0.6844	0.7382	0.7027	-0.175
Mof_O 	O 	0.8311	0.6544	0.3143	-0.174
Mof_O 	O 	0.6948	0.5787	0.3642	-0.175
Mof_O 	O 	0.5305	0.3739	0.2554	-0.178
Mof_O 	O 	0.5405	0.2676	0.1135	-0.181
Mof_O 	O 	0.2349	0.8814	0.8887	-0.182
Mof_O 	O 	0.1499	0.816	0.9736	-0.168
Mof_O 	O 	0.0302	0.6122	0.8983	-0.164
Mof_O 	O 	0.0189	0.4925	0.7537	-0.187
Mof_O 	O 	0.7023	0.3372	0.0439	-0.186
Mof_O 	O 	0.8367	0.5057	0.1241	-0.177
Mof_C 	C 	0.7398	0.1226	0.3477	0.141
Mof_C 	C 	0.6845	0.0416	0.2313	-0.227
Mof_H 	H 	0.6143	0.0518	0.1929	0.113
Mof_H 	H 	0.6527	0.9678	0.2223	0.102
Mof_C 	C 	0.7814	0.0557	0.1858	0.149
Mof_C 	C 	0.8302	0.1695	0.1994	-0.299
Mof_H 	H 	0.762	0.1813	0.1605	0.138
Mof_H 	H 	0.894	0.1793	0.1708	0.122
Mof_C 	C 	0.8861	0.2505	0.3165	0.2
Mof_H 	H 	0.9165	0.3249	0.325	-0.027
Mof_C 	C 	0.7899	0.2363	0.3612	-0.307
Mof_H 	H 	0.7213	0.2493	0.3247	0.139
Mof_H 	H 	0.827	0.2892	0.4366	0.137
Mof_C 	C 	0.8462	0.1042	0.407	-0.279
Mof_H 	H 	0.8152	0.0301	0.3974	0.123
Mof_H 	H 	0.8815	0.155	0.483	0.112
Mof_C 	C 	0.948	0.122	0.363	0.187
Mof_H 	H 	0.0181	0.1108	0.4018	-0.038
Mof_C 	C 	0.89	0.0378	0.2455	-0.241
Mof_H 	H 	0.8593	0.9645	0.2378	0.095
Mof_H 	H 	0.953	0.0454	0.216	0.114
Mof_C 	C 	0.9965	0.2349	0.3759	-0.259
Mof_H 	H 	0.0597	0.2445	0.3467	0.084
Mof_H 	H 	0.035	0.2885	0.4512	0.09
Mof_C 	C 	0.6388	0.0987	0.3871	0.191
Mof_C 	C 	0.7292	0.9708	0.0723	0.167
Mof_C 	C 	0.2987	0.7153	0.4301	0.142
Mof_C 	C 	0.2809	0.7345	0.5335	-0.264
Mof_H 	H 	0.3621	0.7792	0.594	0.125
Mof_H 	H 	0.228	0.774	0.5417	0.122
Mof_C 	C 	0.2206	0.6273	0.5325	0.148
Mof_C 	C 	0.0942	0.5589	0.4395	-0.292
Mof_H 	H 	0.0398	0.597	0.4469	0.124
Mof_H 	H 	0.0549	0.49	0.4387	0.121
Mof_C 	C 	0.1097	0.5371	0.3358	0.198
Mof_H 	H 	0.0272	0.4909	0.2752	-0.027
Mof_C 	C 	0.1672	0.6458	0.3369	-0.284
Mof_H 	H 	0.1135	0.6843	0.3459	0.128
Mof_H 	H 	0.1744	0.633	0.2696	0.115
Mof_C 	C 	0.3779	0.6548	0.4176	-0.307
Mof_H 	H 	0.4612	0.699	0.4756	0.122
Mof_H 	H 	0.3872	0.6403	0.3507	0.126
Mof_C 	C 	0.3207	0.5493	0.418	0.225
Mof_H 	H 	0.376	0.5114	0.4103	-0.034
Mof_C 	C 	0.3048	0.5671	0.5203	-0.309
Mof_H 	H 	0.3863	0.61	0.5807	0.141
Mof_H 	H 	0.2669	0.4972	0.5182	0.12
Mof_C 	C 	0.1968	0.48	0.3253	-0.324
Mof_H 	H 	0.1601	0.4097	0.3228	0.11
Mof_H 	H 	0.2079	0.4672	0.2593	0.113
Mof_C 	C 	0.3504	0.823	0.4318	0.195
Mof_C 	C 	0.2007	0.6474	0.6314	0.183
Mof_C 	C 	0.3654	0.268	0.6558	0.152
Mof_C 	C 	0.4407	0.3849	0.6859	-0.277
Mof_H 	H 	0.4066	0.3994	0.6277	0.122
Mof_H 	H 	0.5275	0.3969	0.6976	0.129
Mof_C 	C 	0.4372	0.4624	0.7861	0.164
Mof_C 	C 	0.4922	0.4395	0.8768	-0.31
Mof_H 	H 	0.58	0.4542	0.8912	0.132
Mof_H 	H 	0.4884	0.4878	0.9413	0.139
Mof_C 	C 	0.4201	0.3226	0.8476	0.222
Mof_H 	H 	0.4572	0.3085	0.9061	-0.02
Mof_C 	C 	0.4212	0.2469	0.748	-0.305
Mof_H 	H 	0.3726	0.1718	0.73	0.134
Mof_H 	H 	0.5072	0.2565	0.759	0.122
Mof_C 	C 	0.2325	0.2507	0.6429	-0.306
Mof_H 	H 	0.193	0.2624	0.5841	0.113
Mof_H 	H 	0.1848	0.1755	0.625	0.12
Mof_C 	C 	0.2285	0.3265	0.7424	0.233
Mof_H 	H 	0.141	0.3146	0.7308	-0.054
Mof_C 	C 	0.3042	0.4428	0.7694	-0.325
Mof_H 	H 	0.2666	0.4566	0.7117	0.141
Mof_H 	H 	0.3025	0.4932	0.834	0.142
Mof_C 	C 	0.2845	0.3056	0.831	-0.338
Mof_H 	H 	0.2354	0.2311	0.8141	0.119
Mof_H 	H 	0.2832	0.3552	0.8963	0.122
Mof_C 	C 	0.3674	0.187	0.5619	0.178
Mof_C 	C 	0.5133	0.5781	0.8149	0.181
Mof_C 	C 	0.7977	0.8528	0.6462	0.146
Mof_C 	C 	0.767	0.7461	0.5529	-0.272
Mof_H 	H 	0.8047	0.7045	0.5784	0.135
Mof_H 	H 	0.6763	0.7035	0.5174	0.127
Mof_C 	C 	0.8154	0.7657	0.475	0.139
Mof_C 	C 	0.7528	0.831	0.4354	-0.275
Mof_H 	H 	0.7829	0.8447	0.3845	0.113
Mof_H 	H 	0.6621	0.7886	0.3994	0.123
Mof_C 	C 	0.7837	0.9378	0.5283	0.165
Mof_H 	H 	0.7436	0.9791	0.5029	-0.018
Mof_C 	C 	0.7369	0.9163	0.6079	-0.278
Mof_H 	H 	0.7572	0.9853	0.6682	0.111
Mof_H 	H 	0.646	0.8751	0.5741	0.119
Mof_C 	C 	0.9376	0.9194	0.7015	-0.3
Mof_H 	H 	0.9784	0.8799	0.7281	0.131
Mof_H 	H 	0.9576	0.9883	0.7619	0.11
Mof_C 	C 	0.9841	0.9406	0.6222	0.209
Mof_H 	H 	0.0756	0.9843	0.6586	-0.055
Mof_C 	C 	0.9581	0.8345	0.531	-0.299
Mof_H 	H 	0.9998	0.7955	0.5576	0.13
Mof_H 	H 	0.99	0.8484	0.481	0.129
Mof_C 	C 	0.9253	0.0036	0.5837	-0.271
Mof_H 	H 	0.9572	0.0184	0.534	0.113
Mof_H 	H 	0.946	0.0731	0.6436	0.106
Mof_C 	C 	0.7483	0.8327	0.7228	0.187
Mof_C 	C 	0.7796	0.6627	0.3811	0.179
Mof_C 	C 	0.3539	0.2013	0.139	0.141
Mof_C 	C 	0.342	0.0876	0.072	-0.261
Mof_H 	H 	0.3632	0.085	0.0121	0.13
Mof_H 	H 	0.4005	0.0704	0.115	0.121
Mof_C 	C 	0.2124	0.0065	0.0321	0.117
Mof_C 	C 	0.1224	0.0332	0.9678	-0.216
Mof_H 	H 	0.0369	0.9802	0.9428	0.092
Mof_H 	H 	0.1391	0.0294	0.9057	0.102
Mof_C 	C 	0.1356	0.1471	0.0353	0.163
Mof_H 	H 	0.0759	0.1643	0.9923	-0.024
Mof_C 	C 	0.2647	0.2285	0.0739	-0.284
Mof_H 	H 	0.2725	0.3013	0.117	0.111
Mof_H 	H 	0.2842	0.2274	0.0135	0.11
Mof_C 	C 	0.3266	0.2042	0.2344	-0.284
Mof_H 	H 	0.386	0.1871	0.2766	0.135
Mof_H 	H 	0.3353	0.2768	0.2794	0.122
Mof_C 	C 	0.1936	0.1208	0.1945	0.168
Mof_H 	H 	0.1736	0.1231	0.2556	-0.021
Mof_C 	C 	0.178	0.0071	0.1253	-0.182
Mof_H 	H 	0.0915	0.955	0.0982	0.078
Mof_H 	H 	0.2327	0.9862	0.1671	0.082
Mof_C 	C 	0.1049	0.1481	0.1287	-0.289
Mof_H 	H 	0.111	0.2201	0.1726	0.096
Mof_H 	H 	0.019	0.0952	0.1025	0.115
Mof_C 	C 	0.4824	0.2841	0.173	0.184
Mof_C 	C 	0.1996	0.8965	0.9629	0.191
Mof_C 	C 	0.9543	0.4281	0.8663	0.182
Mof_C 	C 	0.8903	0.4612	0.9411	-0.277
Mof_H 	H 	0.9473	0.5318	0.003	0.133
Mof_H 	H 	0.8158	0.4677	0.9045	0.122
Mof_C 	C 	0.8537	0.3756	0.9765	0.166
Mof_C 	C 	0.9688	0.3688	0.0357	-0.271
Mof_H 	H 	0.9462	0.3156	0.0607	0.111
Mof_H 	H 	0.026	0.4395	0.0975	0.095
Mof_C 	C 	0.033	0.3342	0.9598	0.201
Mof_H 	H 	0.1082	0.3281	0.9977	-0.042
Mof_C 	C 	0.0719	0.4192	0.9258	-0.321
Mof_H 	H 	0.1146	0.399	0.8792	0.12
Mof_H 	H 	0.1297	0.4893	0.988	0.129
Mof_C 	C 	0.8669	0.3198	0.7712	-0.338
Mof_H 	H 	0.7921	0.3246	0.7326	0.141
Mof_H 	H 	0.9079	0.299	0.7233	0.139
Mof_C 	C 	0.8305	0.2358	0.8057	0.244
Mof_H 	H 	0.7721	0.1649	0.743	-0.039
Mof_C 	C 	0.7686	0.2682	0.8799	-0.324
Mof_H 	H 	0.6927	0.2726	0.8428	0.128
Mof_H 	H 	0.7441	0.2125	0.9017	0.145
Mof_C 	C 	0.9446	0.2258	0.8658	-0.335
Mof_H 	H 	0.919	0.1719	0.8894	0.138
Mof_H 	H 	0.986	0.2017	0.8191	0.122
Mof_C 	C 	0.0014	0.5131	0.8352	0.171
Mof_C 	C 	0.7934	0.408	0.0515	0.176
_end
