data_functionalizedCrystal
_audit_creation_method	'EQeq! by Chris Wilmer'
_symmetry_space_group_name_H-M	'P1'
_symmetry_Int_Tables_number	1
_symmetry_cell_setting	triclinic
loop_
_symmetry_equiv_pos_as_xyz
  x,y,z
_cell_length_a	8.6276
_cell_length_b	9.4066
_cell_length_c	13.0569
_cell_angle_alpha	90
_cell_angle_beta	105.504
_cell_angle_gamma	90
loop_
_atom_site_label
_atom_site_type_symbol
_atom_site_fract_x
_atom_site_fract_y
_atom_site_fract_z
_atom_site_charge
Mof_N 	N 	0.0626	0.9445	0.1817	-0.047
Mof_N 	N 	0.2276	0.8717	0.9931	-0.006
Mof_N 	N 	0.8388	0.7985	0.9573	0.004
Mof_N 	N 	0.5626	0.4445	0.1817	-0.066
Mof_N 	N 	0.7276	0.3717	0.9931	-0.023
Mof_N 	N 	0.3388	0.2985	0.9573	-0.037
Mof_N 	N 	0.9374	0.9445	0.3183	-0.007
Mof_N 	N 	0.7724	0.8717	0.5069	-0.026
Mof_N 	N 	0.1612	0.7985	0.5427	-0.05
Mof_N 	N 	0.4374	0.4445	0.3183	-0.07
Mof_N 	N 	0.2724	0.3717	0.5069	-0.072
Mof_N 	N 	0.6612	0.2985	0.5427	-0.063
Mof_N 	N 	0.9374	0.0555	0.8183	-0.022
Mof_N 	N 	0.7724	0.1283	0.0069	-0.068
Mof_N 	N 	0.1612	0.2015	0.0427	-0.081
Mof_N 	N 	0.4374	0.5555	0.8183	-0.049
Mof_N 	N 	0.2724	0.6283	0.0069	-0.073
Mof_N 	N 	0.6612	0.7015	0.0427	-0.057
Mof_N 	N 	0.0626	0.0555	0.6817	-0.075
Mof_N 	N 	0.2276	0.1283	0.4931	-0.079
Mof_N 	N 	0.8388	0.2015	0.4573	-0.054
Mof_N 	N 	0.5626	0.5555	0.6817	-0.055
Mof_N 	N 	0.7276	0.6283	0.4931	-0.054
Mof_N 	N 	0.3388	0.7015	0.4573	-0.061
Mof_Cd	Cd	-0	0	-0	0.309
Mof_Cd	Cd	0.5	0.5	-0	0.408
Mof_Cd	Cd	2.78346e-17	6.18053e-33	0.5	0.345
Mof_Cd	Cd	0.5	0.5	0.5	0.444
Mof_N 	N 	1.79777e-33	0.9472	0.25	-0.032
Mof_N 	N 	0.5	0.4472	0.25	-0.015
Mof_N 	N 	5.3933e-33	0.0528	0.75	-0.048
Mof_N 	N 	0.5	0.5528	0.75	-0.008
Mof_N 	N 	0.25	0.75	-0	-0.04
Mof_N 	N 	0.75	0.75	0.5	-0.007
Mof_N 	N 	0.75	0.25	-0	-0.039
Mof_N 	N 	0.25	0.25	0.5	-0.022
Mof_N 	N 	0.75	0.75	-0	-0.03
Mof_N 	N 	0.25	0.75	0.5	-0.013
Mof_N 	N 	0.25	0.25	-0	-0.047
Mof_N 	N 	0.75	0.25	0.5	-0.014
_end
