data_functionalizedCrystal
_audit_creation_method	'EQeq! by Chris Wilmer'
_symmetry_space_group_name_H-M	'P1'
_symmetry_Int_Tables_number	1
_symmetry_cell_setting	triclinic
loop_
_symmetry_equiv_pos_as_xyz
  x,y,z
_cell_length_a	26.084
_cell_length_b	26.084
_cell_length_c	19.4082
_cell_angle_alpha	90
_cell_angle_beta	90
_cell_angle_gamma	120
loop_
_atom_site_label
_atom_site_type_symbol
_atom_site_fract_x
_atom_site_fract_y
_atom_site_fract_z
_atom_site_charge
Mof_Zn	Zn	0.4352	0.33202	0.40427	1.193
Mof_N 	N 	0.3793	0.3348	0.4748	-0.138
Mof_N 	N 	0.3722	0.3411	0.4498	-0.152
Mof_C 	C 	0.3182	0.2957	0.4744	0.048
Mof_C 	C 	0.2286	0.2057	0.4759	-0.155
Mof_H 	H 	0.2048	0.166	0.4605	0.602
Mof_C 	C 	0.2848	0.2393	0.4505	0.023
Mof_H 	H 	0.3001	0.2238	0.4171	0.037
Mof_Cl	Cl	0.1778	0.136	0.453	-0.609
Mof_N 	N 	0.5158	0.3993	0.4288	-0.302
Mof_O 	O 	0.4666	0.4525	0.3774	-0.12
Mof_O 	O 	0.4756	0.4428	0.322	-0.065
Mof_C 	C 	0.5437	0.4012	0.4811	0.17
Mof_H 	H 	0.531	0.3713	0.5154	-0.026
Mof_C 	C 	0.5619	0.3871	0.4609	-0.157
Mof_H 	H 	0.5555	0.3501	0.4777	0.083
Mof_N 	N 	0.4054	0.3223	0.3083	-0.271
Mof_O 	O 	0.5102	0.3249	0.3047	-0.156
Mof_C 	C 	0.3564	0.3211	0.2863	0.035
Mof_H 	H 	0.3265	0.3204	0.3148	0.061
Mof_N 	N 	0.4314	0.2587	0.4394	-0.282
Mof_C 	C 	0.4255	0.239	0.5058	0.049
Mof_C 	C 	0.4153	0.2339	0.6251	-0.082
Mof_H 	H 	0.4123	0.2495	0.6681	0.298
Mof_C 	C 	0.4195	0.2654	0.5665	-0.028
Mof_H 	H 	0.4184	0.3012	0.5668	0.058
Mof_Cl	Cl	0.4074	0.28	0.6975	-0.386
Mof_Zn	Zn	0.66798	0.10318	0.40427	1.194
Mof_N 	N 	0.6652	0.0445	0.4748	-0.135
Mof_N 	N 	0.6589	0.0311	0.4498	-0.151
Mof_C 	C 	0.7043	0.0225	0.4744	0.033
Mof_C 	C 	0.7943	0.0229	0.4759	-0.196
Mof_H 	H 	0.834	0.0388	0.4605	0.633
Mof_C 	C 	0.7607	0.0455	0.4505	0.049
Mof_H 	H 	0.7762	0.0763	0.4171	0.028
Mof_Cl	Cl	0.864	0.0418	0.453	-0.639
Mof_N 	N 	0.6007	0.1165	0.4288	-0.302
Mof_O 	O 	0.5475	0.0141	0.3774	-0.121
Mof_O 	O 	0.5572	0.0328	0.322	-0.065
Mof_C 	C 	0.5988	0.1425	0.4811	0.17
Mof_H 	H 	0.6287	0.1597	0.5154	-0.026
Mof_C 	C 	0.6129	0.1748	0.4609	-0.156
Mof_H 	H 	0.6499	0.2054	0.4777	0.083
Mof_N 	N 	0.6777	0.0831	0.3083	-0.271
Mof_O 	O 	0.6751	0.1853	0.3047	-0.156
Mof_C 	C 	0.6789	0.0353	0.2863	0.034
Mof_H 	H 	0.6796	0.0061	0.3148	0.06
Mof_N 	N 	0.7413	0.1727	0.4394	-0.282
Mof_C 	C 	0.761	0.1865	0.5058	0.049
Mof_C 	C 	0.7661	0.1814	0.6251	-0.083
Mof_H 	H 	0.7505	0.1628	0.6681	0.299
Mof_C 	C 	0.7346	0.1541	0.5665	-0.027
Mof_H 	H 	0.6988	0.1172	0.5668	0.058
Mof_Cl	Cl	0.72	0.1274	0.6975	-0.387
Mof_Zn	Zn	0.89682	0.5648	0.40427	1.194
Mof_N 	N 	0.9555	0.6207	0.4748	-0.137
Mof_N 	N 	0.9689	0.6278	0.4498	-0.155
Mof_C 	C 	0.9775	0.6818	0.4744	0.075
Mof_C 	C 	0.9771	0.7714	0.4759	-0.079
Mof_H 	H 	0.9612	0.7952	0.4605	0.551
Mof_C 	C 	0.9545	0.7152	0.4505	-0.024
Mof_H 	H 	0.9237	0.6999	0.4171	0.053
Mof_Cl	Cl	0.9582	0.8222	0.453	-0.567
Mof_N 	N 	0.8835	0.4842	0.4288	-0.302
Mof_O 	O 	0.9859	0.5334	0.3774	-0.119
Mof_O 	O 	0.9672	0.5244	0.322	-0.065
Mof_C 	C 	0.8575	0.4563	0.4811	0.171
Mof_H 	H 	0.8403	0.469	0.5154	-0.026
Mof_C 	C 	0.8252	0.4381	0.4609	-0.157
Mof_H 	H 	0.7946	0.4445	0.4777	0.083
Mof_N 	N 	0.9169	0.5946	0.3083	-0.271
Mof_O 	O 	0.8147	0.4898	0.3047	-0.156
Mof_C 	C 	0.9647	0.6436	0.2863	0.034
Mof_H 	H 	0.9939	0.6735	0.3148	0.061
Mof_N 	N 	0.8273	0.5686	0.4394	-0.282
Mof_C 	C 	0.8135	0.5745	0.5058	0.049
Mof_C 	C 	0.8186	0.5847	0.6251	-0.081
Mof_H 	H 	0.8372	0.5877	0.6681	0.298
Mof_C 	C 	0.8459	0.5805	0.5665	-0.028
Mof_H 	H 	0.8828	0.5816	0.5668	0.059
Mof_Cl	Cl	0.8726	0.5926	0.6975	-0.385
Mof_Zn	Zn	0.5648	0.66798	0.90427	1.194
Mof_N 	N 	0.6207	0.6652	0.9748	-0.135
Mof_N 	N 	0.6278	0.6589	0.9498	-0.155
Mof_C 	C 	0.6818	0.7043	0.9744	0.066
Mof_C 	C 	0.7714	0.7943	0.9759	-0.11
Mof_H 	H 	0.7952	0.834	0.9605	0.575
Mof_C 	C 	0.7152	0.7607	0.9505	-0.005
Mof_H 	H 	0.6999	0.7762	0.9171	0.046
Mof_Cl	Cl	0.8222	0.864	0.953	-0.591
Mof_N 	N 	0.4842	0.6007	0.9288	-0.303
Mof_O 	O 	0.5334	0.5475	0.8774	-0.119
Mof_O 	O 	0.5244	0.5572	0.822	-0.065
Mof_C 	C 	0.4563	0.5988	0.9811	0.18
Mof_H 	H 	0.469	0.6287	0.0154	-0.03
Mof_C 	C 	0.4381	0.6129	0.9609	-0.163
Mof_H 	H 	0.4445	0.6499	0.9777	0.086
Mof_N 	N 	0.5946	0.6777	0.8083	-0.271
Mof_O 	O 	0.4898	0.6751	0.8047	-0.156
Mof_C 	C 	0.6436	0.6789	0.7863	0.034
Mof_H 	H 	0.6735	0.6796	0.8148	0.061
Mof_N 	N 	0.5686	0.7413	0.9394	-0.281
Mof_C 	C 	0.5745	0.761	0.0058	0.047
Mof_C 	C 	0.5847	0.7661	0.1251	-0.083
Mof_H 	H 	0.5877	0.7505	0.1681	0.299
Mof_C 	C 	0.5805	0.7346	0.0665	-0.027
Mof_H 	H 	0.5816	0.6988	0.0668	0.058
Mof_Cl	Cl	0.5926	0.72	0.1975	-0.386
Mof_Zn	Zn	0.33202	0.89682	0.90427	1.194
Mof_N 	N 	0.3348	0.9555	0.9748	-0.135
Mof_N 	N 	0.3411	0.9689	0.9498	-0.155
Mof_C 	C 	0.2957	0.9775	0.9744	0.072
Mof_C 	C 	0.2057	0.9771	0.9759	-0.091
Mof_H 	H 	0.166	0.9612	0.9605	0.559
Mof_C 	C 	0.2393	0.9545	0.9505	-0.017
Mof_H 	H 	0.2238	0.9237	0.9171	0.05
Mof_Cl	Cl	0.136	0.9582	0.953	-0.572
Mof_N 	N 	0.3993	0.8835	0.9288	-0.303
Mof_O 	O 	0.4525	0.9859	0.8774	-0.119
Mof_O 	O 	0.4428	0.9672	0.822	-0.065
Mof_C 	C 	0.4012	0.8575	0.9811	0.179
Mof_H 	H 	0.3713	0.8403	0.0154	-0.03
Mof_C 	C 	0.3871	0.8252	0.9609	-0.163
Mof_H 	H 	0.3501	0.7946	0.9777	0.086
Mof_N 	N 	0.3223	0.9169	0.8083	-0.271
Mof_O 	O 	0.3249	0.8147	0.8047	-0.156
Mof_C 	C 	0.3211	0.9647	0.7863	0.034
Mof_H 	H 	0.3204	0.9939	0.8148	0.061
Mof_N 	N 	0.2587	0.8273	0.9394	-0.281
Mof_C 	C 	0.239	0.8135	0.0058	0.048
Mof_C 	C 	0.2339	0.8186	0.1251	-0.081
Mof_H 	H 	0.2495	0.8372	0.1681	0.298
Mof_C 	C 	0.2654	0.8459	0.0665	-0.028
Mof_H 	H 	0.3012	0.8828	0.0668	0.058
Mof_Cl	Cl	0.28	0.8726	0.1975	-0.386
Mof_Zn	Zn	0.10318	0.4352	0.90427	1.194
Mof_N 	N 	0.0445	0.3793	0.9748	-0.134
Mof_N 	N 	0.0311	0.3722	0.9498	-0.154
Mof_C 	C 	0.0225	0.3182	0.9744	0.048
Mof_C 	C 	0.0229	0.2286	0.9759	-0.157
Mof_H 	H 	0.0388	0.2048	0.9605	0.607
Mof_C 	C 	0.0455	0.2848	0.9505	0.025
Mof_H 	H 	0.0763	0.3001	0.9171	0.036
Mof_Cl	Cl	0.0418	0.1778	0.953	-0.617
Mof_N 	N 	0.1165	0.5158	0.9288	-0.303
Mof_O 	O 	0.0141	0.4666	0.8774	-0.12
Mof_O 	O 	0.0328	0.4756	0.822	-0.065
Mof_C 	C 	0.1425	0.5437	0.9811	0.178
Mof_H 	H 	0.1597	0.531	0.0154	-0.03
Mof_C 	C 	0.1748	0.5619	0.9609	-0.162
Mof_H 	H 	0.2054	0.5555	0.9777	0.086
Mof_N 	N 	0.0831	0.4054	0.8083	-0.271
Mof_O 	O 	0.1853	0.5102	0.8047	-0.156
Mof_C 	C 	0.0353	0.3564	0.7863	0.034
Mof_H 	H 	0.0061	0.3265	0.8148	0.06
Mof_N 	N 	0.1727	0.4314	0.9394	-0.281
Mof_C 	C 	0.1865	0.4255	0.0058	0.047
Mof_C 	C 	0.1814	0.4153	0.1251	-0.083
Mof_H 	H 	0.1628	0.4123	0.1681	0.299
Mof_C 	C 	0.1541	0.4195	0.0665	-0.027
Mof_H 	H 	0.1172	0.4184	0.0668	0.057
Mof_Cl	Cl	0.1274	0.4074	0.1975	-0.387
Mof_Zn	Zn	0.33202	0.4352	0.59573	1.194
Mof_N 	N 	0.3348	0.3793	0.5252	-0.137
Mof_N 	N 	0.3411	0.3722	0.5502	-0.153
Mof_C 	C 	0.2957	0.3182	0.5256	0.051
Mof_C 	C 	0.2057	0.2286	0.5241	-0.144
Mof_H 	H 	0.166	0.2048	0.5395	0.594
Mof_C 	C 	0.2393	0.2848	0.5495	0.017
Mof_H 	H 	0.2238	0.3001	0.5829	0.039
Mof_Cl	Cl	0.136	0.1778	0.547	-0.601
Mof_N 	N 	0.3993	0.5158	0.5712	-0.302
Mof_O 	O 	0.4525	0.4666	0.6226	-0.12
Mof_O 	O 	0.4428	0.4756	0.678	-0.065
Mof_C 	C 	0.4012	0.5437	0.5189	0.17
Mof_H 	H 	0.3713	0.531	0.4846	-0.026
Mof_C 	C 	0.3871	0.5619	0.5391	-0.156
Mof_H 	H 	0.3501	0.5555	0.5223	0.083
Mof_N 	N 	0.3223	0.4054	0.6917	-0.271
Mof_O 	O 	0.3249	0.5102	0.6953	-0.156
Mof_C 	C 	0.3211	0.3564	0.7137	0.035
Mof_H 	H 	0.3204	0.3265	0.6852	0.061
Mof_N 	N 	0.2587	0.4314	0.5606	-0.282
Mof_C 	C 	0.239	0.4255	0.4942	0.049
Mof_C 	C 	0.2339	0.4153	0.3749	-0.082
Mof_H 	H 	0.2495	0.4123	0.3319	0.298
Mof_C 	C 	0.2654	0.4195	0.4335	-0.028
Mof_H 	H 	0.3012	0.4184	0.4332	0.059
Mof_Cl	Cl	0.28	0.4074	0.3025	-0.386
Mof_Zn	Zn	0.10318	0.66798	0.59573	1.194
Mof_N 	N 	0.0445	0.6652	0.5252	-0.134
Mof_N 	N 	0.0311	0.6589	0.5502	-0.151
Mof_C 	C 	0.0225	0.7043	0.5256	0.023
Mof_C 	C 	0.0229	0.7943	0.5241	-0.222
Mof_H 	H 	0.0388	0.834	0.5395	0.65
Mof_C 	C 	0.0455	0.7607	0.5495	0.066
Mof_H 	H 	0.0763	0.7762	0.5829	0.023
Mof_Cl	Cl	0.0418	0.864	0.547	-0.653
Mof_N 	N 	0.1165	0.6007	0.5712	-0.302
Mof_O 	O 	0.0141	0.5475	0.6226	-0.121
Mof_O 	O 	0.0328	0.5572	0.678	-0.065
Mof_C 	C 	0.1425	0.5988	0.5189	0.169
Mof_H 	H 	0.1597	0.6287	0.4846	-0.026
Mof_C 	C 	0.1748	0.6129	0.5391	-0.156
Mof_H 	H 	0.2054	0.6499	0.5223	0.083
Mof_N 	N 	0.0831	0.6777	0.6917	-0.271
Mof_O 	O 	0.1853	0.6751	0.6953	-0.156
Mof_C 	C 	0.0353	0.6789	0.7137	0.034
Mof_H 	H 	0.0061	0.6796	0.6852	0.06
Mof_N 	N 	0.1727	0.7413	0.5606	-0.282
Mof_C 	C 	0.1865	0.761	0.4942	0.049
Mof_C 	C 	0.1814	0.7661	0.3749	-0.083
Mof_H 	H 	0.1628	0.7505	0.3319	0.299
Mof_C 	C 	0.1541	0.7346	0.4335	-0.027
Mof_H 	H 	0.1172	0.6988	0.4332	0.058
Mof_Cl	Cl	0.1274	0.72	0.3025	-0.387
Mof_Zn	Zn	0.5648	0.89682	0.59573	1.194
Mof_N 	N 	0.6207	0.9555	0.5252	-0.137
Mof_N 	N 	0.6278	0.9689	0.5502	-0.154
Mof_C 	C 	0.6818	0.9775	0.5256	0.065
Mof_C 	C 	0.7714	0.9771	0.5241	-0.106
Mof_H 	H 	0.7952	0.9612	0.5395	0.57
Mof_C 	C 	0.7152	0.9545	0.5495	-0.007
Mof_H 	H 	0.6999	0.9237	0.5829	0.047
Mof_Cl	Cl	0.8222	0.9582	0.547	-0.583
Mof_N 	N 	0.4842	0.8835	0.5712	-0.302
Mof_O 	O 	0.5334	0.9859	0.6226	-0.12
Mof_O 	O 	0.5244	0.9672	0.678	-0.065
Mof_C 	C 	0.4563	0.8575	0.5189	0.17
Mof_H 	H 	0.469	0.8403	0.4846	-0.026
Mof_C 	C 	0.4381	0.8252	0.5391	-0.157
Mof_H 	H 	0.4445	0.7946	0.5223	0.083
Mof_N 	N 	0.5946	0.9169	0.6917	-0.271
Mof_O 	O 	0.4898	0.8147	0.6953	-0.156
Mof_C 	C 	0.6436	0.9647	0.7137	0.034
Mof_H 	H 	0.6735	0.9939	0.6852	0.061
Mof_N 	N 	0.5686	0.8273	0.5606	-0.282
Mof_C 	C 	0.5745	0.8135	0.4942	0.049
Mof_C 	C 	0.5847	0.8186	0.3749	-0.081
Mof_H 	H 	0.5877	0.8372	0.3319	0.298
Mof_C 	C 	0.5805	0.8459	0.4335	-0.028
Mof_H 	H 	0.5816	0.8828	0.4332	0.059
Mof_Cl	Cl	0.5926	0.8726	0.3025	-0.385
Mof_Zn	Zn	0.66798	0.5648	0.09573	1.194
Mof_N 	N 	0.6652	0.6207	0.0252	-0.136
Mof_N 	N 	0.6589	0.6278	0.0502	-0.151
Mof_C 	C 	0.7043	0.6818	0.0256	0.033
Mof_C 	C 	0.7943	0.7714	0.0241	-0.192
Mof_H 	H 	0.834	0.7952	0.0395	0.629
Mof_C 	C 	0.7607	0.7152	0.0495	0.047
Mof_H 	H 	0.7762	0.6999	0.0829	0.029
Mof_Cl	Cl	0.864	0.8222	0.047	-0.634
Mof_N 	N 	0.6007	0.4842	0.0712	-0.301
Mof_O 	O 	0.5475	0.5334	0.1226	-0.121
Mof_O 	O 	0.5572	0.5244	0.178	-0.065
Mof_C 	C 	0.5988	0.4563	0.0189	0.16
Mof_H 	H 	0.6287	0.469	0.9846	-0.021
Mof_C 	C 	0.6129	0.4381	0.0391	-0.15
Mof_H 	H 	0.6499	0.4445	0.0223	0.079
Mof_N 	N 	0.6777	0.5946	0.1917	-0.271
Mof_O 	O 	0.6751	0.4898	0.1953	-0.156
Mof_C 	C 	0.6789	0.6436	0.2137	0.035
Mof_H 	H 	0.6796	0.6735	0.1852	0.061
Mof_N 	N 	0.7413	0.5686	0.0606	-0.283
Mof_C 	C 	0.761	0.5745	0.9942	0.051
Mof_C 	C 	0.7661	0.5847	0.8749	-0.082
Mof_H 	H 	0.7505	0.5877	0.8319	0.299
Mof_C 	C 	0.7346	0.5805	0.9335	-0.028
Mof_H 	H 	0.6988	0.5816	0.9332	0.059
Mof_Cl	Cl	0.72	0.5926	0.8025	-0.386
Mof_Zn	Zn	0.89682	0.33202	0.09573	1.194
Mof_N 	N 	0.9555	0.3348	0.0252	-0.136
Mof_N 	N 	0.9689	0.3411	0.0502	-0.152
Mof_C 	C 	0.9775	0.2957	0.0256	0.051
Mof_C 	C 	0.9771	0.2057	0.0241	-0.143
Mof_H 	H 	0.9612	0.166	0.0395	0.592
Mof_C 	C 	0.9545	0.2393	0.0495	0.016
Mof_H 	H 	0.9237	0.2238	0.0829	0.039
Mof_Cl	Cl	0.9582	0.136	0.047	-0.597
Mof_N 	N 	0.8835	0.3993	0.0712	-0.301
Mof_O 	O 	0.9859	0.4525	0.1226	-0.12
Mof_O 	O 	0.9672	0.4428	0.178	-0.065
Mof_C 	C 	0.8575	0.4012	0.0189	0.16
Mof_H 	H 	0.8403	0.3713	0.9846	-0.02
Mof_C 	C 	0.8252	0.3871	0.0391	-0.15
Mof_H 	H 	0.7946	0.3501	0.0223	0.079
Mof_N 	N 	0.9169	0.3223	0.1917	-0.271
Mof_O 	O 	0.8147	0.3249	0.1953	-0.156
Mof_C 	C 	0.9647	0.3211	0.2137	0.035
Mof_H 	H 	0.9939	0.3204	0.1852	0.061
Mof_N 	N 	0.8273	0.2587	0.0606	-0.283
Mof_C 	C 	0.8135	0.239	0.9942	0.052
Mof_C 	C 	0.8186	0.2339	0.8749	-0.08
Mof_H 	H 	0.8372	0.2495	0.8319	0.298
Mof_C 	C 	0.8459	0.2654	0.9335	-0.029
Mof_H 	H 	0.8828	0.3012	0.9332	0.06
Mof_Cl	Cl	0.8726	0.28	0.8025	-0.384
Mof_Zn	Zn	0.4352	0.10318	0.09573	1.194
Mof_N 	N 	0.3793	0.0445	0.0252	-0.135
Mof_N 	N 	0.3722	0.0311	0.0502	-0.15
Mof_C 	C 	0.3182	0.0225	0.0256	0.027
Mof_C 	C 	0.2286	0.0229	0.0241	-0.208
Mof_H 	H 	0.2048	0.0388	0.0395	0.638
Mof_C 	C 	0.2848	0.0455	0.0495	0.057
Mof_H 	H 	0.3001	0.0763	0.0829	0.026
Mof_Cl	Cl	0.1778	0.0418	0.047	-0.638
Mof_N 	N 	0.5158	0.1165	0.0712	-0.3
Mof_O 	O 	0.4666	0.0141	0.1226	-0.121
Mof_O 	O 	0.4756	0.0328	0.178	-0.065
Mof_C 	C 	0.5437	0.1425	0.0189	0.159
Mof_H 	H 	0.531	0.1597	0.9846	-0.02
Mof_C 	C 	0.5619	0.1748	0.0391	-0.149
Mof_H 	H 	0.5555	0.2054	0.0223	0.079
Mof_N 	N 	0.4054	0.0831	0.1917	-0.271
Mof_O 	O 	0.5102	0.1853	0.1953	-0.156
Mof_C 	C 	0.3564	0.0353	0.2137	0.035
Mof_H 	H 	0.3265	0.0061	0.1852	0.06
Mof_N 	N 	0.4314	0.1727	0.0606	-0.283
Mof_C 	C 	0.4255	0.1865	0.9942	0.052
Mof_C 	C 	0.4153	0.1814	0.8749	-0.082
Mof_H 	H 	0.4123	0.1628	0.8319	0.298
Mof_C 	C 	0.4195	0.1541	0.9335	-0.028
Mof_H 	H 	0.4184	0.1172	0.9332	0.06
Mof_Cl	Cl	0.4074	0.1274	0.8025	-0.386
Mof_Zn	Zn	0.5648	0.66798	0.59573	1.194
Mof_N 	N 	0.6207	0.6652	0.5252	-0.137
Mof_N 	N 	0.6278	0.6589	0.5502	-0.153
Mof_C 	C 	0.6818	0.7043	0.5256	0.051
Mof_C 	C 	0.7714	0.7943	0.5241	-0.146
Mof_H 	H 	0.7952	0.834	0.5395	0.598
Mof_C 	C 	0.7152	0.7607	0.5495	0.018
Mof_H 	H 	0.6999	0.7762	0.5829	0.038
Mof_Cl	Cl	0.8222	0.864	0.547	-0.609
Mof_N 	N 	0.4842	0.6007	0.5712	-0.302
Mof_O 	O 	0.5334	0.5475	0.6226	-0.12
Mof_O 	O 	0.5244	0.5572	0.678	-0.065
Mof_C 	C 	0.4563	0.5988	0.5189	0.17
Mof_H 	H 	0.469	0.6287	0.4846	-0.026
Mof_C 	C 	0.4381	0.6129	0.5391	-0.156
Mof_H 	H 	0.4445	0.6499	0.5223	0.083
Mof_N 	N 	0.5946	0.6777	0.6917	-0.271
Mof_O 	O 	0.4898	0.6751	0.6953	-0.156
Mof_C 	C 	0.6436	0.6789	0.7137	0.035
Mof_H 	H 	0.6735	0.6796	0.6852	0.061
Mof_N 	N 	0.5686	0.7413	0.5606	-0.282
Mof_C 	C 	0.5745	0.761	0.4942	0.049
Mof_C 	C 	0.5847	0.7661	0.3749	-0.082
Mof_H 	H 	0.5877	0.7505	0.3319	0.299
Mof_C 	C 	0.5805	0.7346	0.4335	-0.027
Mof_H 	H 	0.5816	0.6988	0.4332	0.058
Mof_Cl	Cl	0.5926	0.72	0.3025	-0.386
Mof_Zn	Zn	0.33202	0.89682	0.59573	1.194
Mof_N 	N 	0.3348	0.9555	0.5252	-0.137
Mof_N 	N 	0.3411	0.9689	0.5502	-0.154
Mof_C 	C 	0.2957	0.9775	0.5256	0.058
Mof_C 	C 	0.2057	0.9771	0.5241	-0.124
Mof_H 	H 	0.166	0.9612	0.5395	0.58
Mof_C 	C 	0.2393	0.9545	0.5495	0.004
Mof_H 	H 	0.2238	0.9237	0.5829	0.043
Mof_Cl	Cl	0.136	0.9582	0.547	-0.588
Mof_N 	N 	0.3993	0.8835	0.5712	-0.302
Mof_O 	O 	0.4525	0.9859	0.6226	-0.12
Mof_O 	O 	0.4428	0.9672	0.678	-0.065
Mof_C 	C 	0.4012	0.8575	0.5189	0.17
Mof_H 	H 	0.3713	0.8403	0.4846	-0.026
Mof_C 	C 	0.3871	0.8252	0.5391	-0.157
Mof_H 	H 	0.3501	0.7946	0.5223	0.083
Mof_N 	N 	0.3223	0.9169	0.6917	-0.271
Mof_O 	O 	0.3249	0.8147	0.6953	-0.156
Mof_C 	C 	0.3211	0.9647	0.7137	0.034
Mof_H 	H 	0.3204	0.9939	0.6852	0.061
Mof_N 	N 	0.2587	0.8273	0.5606	-0.282
Mof_C 	C 	0.239	0.8135	0.4942	0.049
Mof_C 	C 	0.2339	0.8186	0.3749	-0.081
Mof_H 	H 	0.2495	0.8372	0.3319	0.298
Mof_C 	C 	0.2654	0.8459	0.4335	-0.028
Mof_H 	H 	0.3012	0.8828	0.4332	0.059
Mof_Cl	Cl	0.28	0.8726	0.3025	-0.386
Mof_Zn	Zn	0.10318	0.4352	0.59573	1.194
Mof_N 	N 	0.0445	0.3793	0.5252	-0.135
Mof_N 	N 	0.0311	0.3722	0.5502	-0.151
Mof_C 	C 	0.0225	0.3182	0.5256	0.03
Mof_C 	C 	0.0229	0.2286	0.5241	-0.202
Mof_H 	H 	0.0388	0.2048	0.5395	0.636
Mof_C 	C 	0.0455	0.2848	0.5495	0.054
Mof_H 	H 	0.0763	0.3001	0.5829	0.027
Mof_Cl	Cl	0.0418	0.1778	0.547	-0.64
Mof_N 	N 	0.1165	0.5158	0.5712	-0.302
Mof_O 	O 	0.0141	0.4666	0.6226	-0.121
Mof_O 	O 	0.0328	0.4756	0.678	-0.065
Mof_C 	C 	0.1425	0.5437	0.5189	0.169
Mof_H 	H 	0.1597	0.531	0.4846	-0.026
Mof_C 	C 	0.1748	0.5619	0.5391	-0.156
Mof_H 	H 	0.2054	0.5555	0.5223	0.082
Mof_N 	N 	0.0831	0.4054	0.6917	-0.271
Mof_O 	O 	0.1853	0.5102	0.6953	-0.156
Mof_C 	C 	0.0353	0.3564	0.7137	0.034
Mof_H 	H 	0.0061	0.3265	0.6852	0.06
Mof_N 	N 	0.1727	0.4314	0.5606	-0.282
Mof_C 	C 	0.1865	0.4255	0.4942	0.049
Mof_C 	C 	0.1814	0.4153	0.3749	-0.083
Mof_H 	H 	0.1628	0.4123	0.3319	0.299
Mof_C 	C 	0.1541	0.4195	0.4335	-0.027
Mof_H 	H 	0.1172	0.4184	0.4332	0.058
Mof_Cl	Cl	0.1274	0.4074	0.3025	-0.387
Mof_Zn	Zn	0.4352	0.33202	0.09573	1.194
Mof_N 	N 	0.3793	0.3348	0.0252	-0.136
Mof_N 	N 	0.3722	0.3411	0.0502	-0.15
Mof_C 	C 	0.3182	0.2957	0.0256	0.032
Mof_C 	C 	0.2286	0.2057	0.0241	-0.195
Mof_H 	H 	0.2048	0.166	0.0395	0.628
Mof_C 	C 	0.2848	0.2393	0.0495	0.049
Mof_H 	H 	0.3001	0.2238	0.0829	0.028
Mof_Cl	Cl	0.1778	0.136	0.047	-0.629
Mof_N 	N 	0.5158	0.3993	0.0712	-0.301
Mof_O 	O 	0.4666	0.4525	0.1226	-0.121
Mof_O 	O 	0.4756	0.4428	0.178	-0.065
Mof_C 	C 	0.5437	0.4012	0.0189	0.16
Mof_H 	H 	0.531	0.3713	0.9846	-0.02
Mof_C 	C 	0.5619	0.3871	0.0391	-0.15
Mof_H 	H 	0.5555	0.3501	0.0223	0.079
Mof_N 	N 	0.4054	0.3223	0.1917	-0.271
Mof_O 	O 	0.5102	0.3249	0.1953	-0.156
Mof_C 	C 	0.3564	0.3211	0.2137	0.035
Mof_H 	H 	0.3265	0.3204	0.1852	0.061
Mof_N 	N 	0.4314	0.2587	0.0606	-0.283
Mof_C 	C 	0.4255	0.239	0.9942	0.052
Mof_C 	C 	0.4153	0.2339	0.8749	-0.081
Mof_H 	H 	0.4123	0.2495	0.8319	0.298
Mof_C 	C 	0.4195	0.2654	0.9335	-0.028
Mof_H 	H 	0.4184	0.3012	0.9332	0.06
Mof_Cl	Cl	0.4074	0.28	0.8025	-0.386
Mof_Zn	Zn	0.66798	0.10318	0.09573	1.194
Mof_N 	N 	0.6652	0.0445	0.0252	-0.135
Mof_N 	N 	0.6589	0.0311	0.0502	-0.149
Mof_C 	C 	0.7043	0.0225	0.0256	0.017
Mof_C 	C 	0.7943	0.0229	0.0241	-0.237
Mof_H 	H 	0.834	0.0388	0.0395	0.659
Mof_C 	C 	0.7607	0.0455	0.0495	0.075
Mof_H 	H 	0.7762	0.0763	0.0829	0.02
Mof_Cl	Cl	0.864	0.0418	0.047	-0.659
Mof_N 	N 	0.6007	0.1165	0.0712	-0.3
Mof_O 	O 	0.5475	0.0141	0.1226	-0.121
Mof_O 	O 	0.5572	0.0328	0.178	-0.065
Mof_C 	C 	0.5988	0.1425	0.0189	0.159
Mof_H 	H 	0.6287	0.1597	0.9846	-0.02
Mof_C 	C 	0.6129	0.1748	0.0391	-0.149
Mof_H 	H 	0.6499	0.2054	0.0223	0.079
Mof_N 	N 	0.6777	0.0831	0.1917	-0.271
Mof_O 	O 	0.6751	0.1853	0.1953	-0.156
Mof_C 	C 	0.6789	0.0353	0.2137	0.035
Mof_H 	H 	0.6796	0.0061	0.1852	0.06
Mof_N 	N 	0.7413	0.1727	0.0606	-0.283
Mof_C 	C 	0.761	0.1865	0.9942	0.052
Mof_C 	C 	0.7661	0.1814	0.8749	-0.082
Mof_H 	H 	0.7505	0.1628	0.8319	0.299
Mof_C 	C 	0.7346	0.1541	0.9335	-0.028
Mof_H 	H 	0.6988	0.1172	0.9332	0.059
Mof_Cl	Cl	0.72	0.1274	0.8025	-0.386
Mof_Zn	Zn	0.89682	0.5648	0.09573	1.194
Mof_N 	N 	0.9555	0.6207	0.0252	-0.137
Mof_N 	N 	0.9689	0.6278	0.0502	-0.153
Mof_C 	C 	0.9775	0.6818	0.0256	0.062
Mof_C 	C 	0.9771	0.7714	0.0241	-0.111
Mof_H 	H 	0.9612	0.7952	0.0395	0.572
Mof_C 	C 	0.9545	0.7152	0.0495	-0.004
Mof_H 	H 	0.9237	0.6999	0.0829	0.046
Mof_Cl	Cl	0.9582	0.8222	0.047	-0.582
Mof_N 	N 	0.8835	0.4842	0.0712	-0.3
Mof_O 	O 	0.9859	0.5334	0.1226	-0.12
Mof_O 	O 	0.9672	0.5244	0.178	-0.065
Mof_C 	C 	0.8575	0.4563	0.0189	0.16
Mof_H 	H 	0.8403	0.469	0.9846	-0.02
Mof_C 	C 	0.8252	0.4381	0.0391	-0.15
Mof_H 	H 	0.7946	0.4445	0.0223	0.079
Mof_N 	N 	0.9169	0.5946	0.1917	-0.271
Mof_O 	O 	0.8147	0.4898	0.1953	-0.156
Mof_C 	C 	0.9647	0.6436	0.2137	0.035
Mof_H 	H 	0.9939	0.6735	0.1852	0.061
Mof_N 	N 	0.8273	0.5686	0.0606	-0.283
Mof_C 	C 	0.8135	0.5745	0.9942	0.052
Mof_C 	C 	0.8186	0.5847	0.8749	-0.08
Mof_H 	H 	0.8372	0.5877	0.8319	0.298
Mof_C 	C 	0.8459	0.5805	0.9335	-0.029
Mof_H 	H 	0.8828	0.5816	0.9332	0.06
Mof_Cl	Cl	0.8726	0.5926	0.8025	-0.384
Mof_Zn	Zn	0.66798	0.5648	0.40427	1.194
Mof_N 	N 	0.6652	0.6207	0.4748	-0.137
Mof_N 	N 	0.6589	0.6278	0.4498	-0.152
Mof_C 	C 	0.7043	0.6818	0.4744	0.048
Mof_C 	C 	0.7943	0.7714	0.4759	-0.156
Mof_H 	H 	0.834	0.7952	0.4605	0.606
Mof_C 	C 	0.7607	0.7152	0.4505	0.024
Mof_H 	H 	0.7762	0.6999	0.4171	0.036
Mof_Cl	Cl	0.864	0.8222	0.453	-0.617
Mof_N 	N 	0.6007	0.4842	0.4288	-0.302
Mof_O 	O 	0.5475	0.5334	0.3774	-0.12
Mof_O 	O 	0.5572	0.5244	0.322	-0.065
Mof_C 	C 	0.5988	0.4563	0.4811	0.17
Mof_H 	H 	0.6287	0.469	0.5154	-0.026
Mof_C 	C 	0.6129	0.4381	0.4609	-0.157
Mof_H 	H 	0.6499	0.4445	0.4777	0.083
Mof_N 	N 	0.6777	0.5946	0.3083	-0.271
Mof_O 	O 	0.6751	0.4898	0.3047	-0.156
Mof_C 	C 	0.6789	0.6436	0.2863	0.035
Mof_H 	H 	0.6796	0.6735	0.3148	0.061
Mof_N 	N 	0.7413	0.5686	0.4394	-0.282
Mof_C 	C 	0.761	0.5745	0.5058	0.049
Mof_C 	C 	0.7661	0.5847	0.6251	-0.083
Mof_H 	H 	0.7505	0.5877	0.6681	0.299
Mof_C 	C 	0.7346	0.5805	0.5665	-0.027
Mof_H 	H 	0.6988	0.5816	0.5668	0.058
Mof_Cl	Cl	0.72	0.5926	0.6975	-0.386
Mof_Zn	Zn	0.89682	0.33202	0.40427	1.194
Mof_N 	N 	0.9555	0.3348	0.4748	-0.137
Mof_N 	N 	0.9689	0.3411	0.4498	-0.154
Mof_C 	C 	0.9775	0.2957	0.4744	0.068
Mof_C 	C 	0.9771	0.2057	0.4759	-0.098
Mof_H 	H 	0.9612	0.166	0.4605	0.563
Mof_C 	C 	0.9545	0.2393	0.4505	-0.013
Mof_H 	H 	0.9237	0.2238	0.4171	0.049
Mof_Cl	Cl	0.9582	0.136	0.453	-0.575
Mof_N 	N 	0.8835	0.3993	0.4288	-0.302
Mof_O 	O 	0.9859	0.4525	0.3774	-0.12
Mof_O 	O 	0.9672	0.4428	0.322	-0.065
Mof_C 	C 	0.8575	0.4012	0.4811	0.171
Mof_H 	H 	0.8403	0.3713	0.5154	-0.026
Mof_C 	C 	0.8252	0.3871	0.4609	-0.157
Mof_H 	H 	0.7946	0.3501	0.4777	0.083
Mof_N 	N 	0.9169	0.3223	0.3083	-0.271
Mof_O 	O 	0.8147	0.3249	0.3047	-0.156
Mof_C 	C 	0.9647	0.3211	0.2863	0.034
Mof_H 	H 	0.9939	0.3204	0.3148	0.061
Mof_N 	N 	0.8273	0.2587	0.4394	-0.282
Mof_C 	C 	0.8135	0.239	0.5058	0.049
Mof_C 	C 	0.8186	0.2339	0.6251	-0.081
Mof_H 	H 	0.8372	0.2495	0.6681	0.298
Mof_C 	C 	0.8459	0.2654	0.5665	-0.028
Mof_H 	H 	0.8828	0.3012	0.5668	0.059
Mof_Cl	Cl	0.8726	0.28	0.6975	-0.385
Mof_Zn	Zn	0.4352	0.10318	0.40427	1.194
Mof_N 	N 	0.3793	0.0445	0.4748	-0.136
Mof_N 	N 	0.3722	0.0311	0.4498	-0.152
Mof_C 	C 	0.3182	0.0225	0.4744	0.04
Mof_C 	C 	0.2286	0.0229	0.4759	-0.175
Mof_H 	H 	0.2048	0.0388	0.4605	0.617
Mof_C 	C 	0.2848	0.0455	0.4505	0.036
Mof_H 	H 	0.3001	0.0763	0.4171	0.033
Mof_Cl	Cl	0.1778	0.0418	0.453	-0.623
Mof_N 	N 	0.5158	0.1165	0.4288	-0.302
Mof_O 	O 	0.4666	0.0141	0.3774	-0.121
Mof_O 	O 	0.4756	0.0328	0.322	-0.065
Mof_C 	C 	0.5437	0.1425	0.4811	0.17
Mof_H 	H 	0.531	0.1597	0.5154	-0.026
Mof_C 	C 	0.5619	0.1748	0.4609	-0.156
Mof_H 	H 	0.5555	0.2054	0.4777	0.083
Mof_N 	N 	0.4054	0.0831	0.3083	-0.271
Mof_O 	O 	0.5102	0.1853	0.3047	-0.156
Mof_C 	C 	0.3564	0.0353	0.2863	0.034
Mof_H 	H 	0.3265	0.0061	0.3148	0.06
Mof_N 	N 	0.4314	0.1727	0.4394	-0.282
Mof_C 	C 	0.4255	0.1865	0.5058	0.049
Mof_C 	C 	0.4153	0.1814	0.6251	-0.082
Mof_H 	H 	0.4123	0.1628	0.6681	0.299
Mof_C 	C 	0.4195	0.1541	0.5665	-0.027
Mof_H 	H 	0.4184	0.1172	0.5668	0.058
Mof_Cl	Cl	0.4074	0.1274	0.6975	-0.386
Mof_Zn	Zn	0.33202	0.4352	0.90427	1.194
Mof_N 	N 	0.3348	0.3793	0.9748	-0.135
Mof_N 	N 	0.3411	0.3722	0.9498	-0.155
Mof_C 	C 	0.2957	0.3182	0.9744	0.068
Mof_C 	C 	0.2057	0.2286	0.9759	-0.104
Mof_H 	H 	0.166	0.2048	0.9605	0.568
Mof_C 	C 	0.2393	0.2848	0.9505	-0.009
Mof_H 	H 	0.2238	0.3001	0.9171	0.048
Mof_Cl	Cl	0.136	0.1778	0.953	-0.581
Mof_N 	N 	0.3993	0.5158	0.9288	-0.303
Mof_O 	O 	0.4525	0.4666	0.8774	-0.119
Mof_O 	O 	0.4428	0.4756	0.822	-0.065
Mof_C 	C 	0.4012	0.5437	0.9811	0.18
Mof_H 	H 	0.3713	0.531	0.0154	-0.03
Mof_C 	C 	0.3871	0.5619	0.9609	-0.163
Mof_H 	H 	0.3501	0.5555	0.9777	0.086
Mof_N 	N 	0.3223	0.4054	0.8083	-0.271
Mof_O 	O 	0.3249	0.5102	0.8047	-0.156
Mof_C 	C 	0.3211	0.3564	0.7863	0.034
Mof_H 	H 	0.3204	0.3265	0.8148	0.061
Mof_N 	N 	0.2587	0.4314	0.9394	-0.281
Mof_C 	C 	0.239	0.4255	0.0058	0.047
Mof_C 	C 	0.2339	0.4153	0.1251	-0.082
Mof_H 	H 	0.2495	0.4123	0.1681	0.299
Mof_C 	C 	0.2654	0.4195	0.0665	-0.027
Mof_H 	H 	0.3012	0.4184	0.0668	0.058
Mof_Cl	Cl	0.28	0.4074	0.1975	-0.386
Mof_Zn	Zn	0.10318	0.66798	0.90427	1.194
Mof_N 	N 	0.0445	0.6652	0.9748	-0.133
Mof_N 	N 	0.0311	0.6589	0.9498	-0.152
Mof_C 	C 	0.0225	0.7043	0.9744	0.036
Mof_C 	C 	0.0229	0.7943	0.9759	-0.19
Mof_H 	H 	0.0388	0.834	0.9605	0.63
Mof_C 	C 	0.0455	0.7607	0.9505	0.045
Mof_H 	H 	0.0763	0.7762	0.9171	0.029
Mof_Cl	Cl	0.0418	0.864	0.953	-0.637
Mof_N 	N 	0.1165	0.6007	0.9288	-0.303
Mof_O 	O 	0.0141	0.5475	0.8774	-0.12
Mof_O 	O 	0.0328	0.5572	0.822	-0.065
Mof_C 	C 	0.1425	0.5988	0.9811	0.178
Mof_H 	H 	0.1597	0.6287	0.0154	-0.03
Mof_C 	C 	0.1748	0.6129	0.9609	-0.162
Mof_H 	H 	0.2054	0.6499	0.9777	0.086
Mof_N 	N 	0.0831	0.6777	0.8083	-0.271
Mof_O 	O 	0.1853	0.6751	0.8047	-0.156
Mof_C 	C 	0.0353	0.6789	0.7863	0.034
Mof_H 	H 	0.0061	0.6796	0.8148	0.06
Mof_N 	N 	0.1727	0.7413	0.9394	-0.281
Mof_C 	C 	0.1865	0.761	0.0058	0.047
Mof_C 	C 	0.1814	0.7661	0.1251	-0.084
Mof_H 	H 	0.1628	0.7505	0.1681	0.299
Mof_C 	C 	0.1541	0.7346	0.0665	-0.026
Mof_H 	H 	0.1172	0.6988	0.0668	0.057
Mof_Cl	Cl	0.1274	0.72	0.1975	-0.388
Mof_Zn	Zn	0.5648	0.89682	0.90427	1.194
Mof_N 	N 	0.6207	0.9555	0.9748	-0.135
Mof_N 	N 	0.6278	0.9689	0.9498	-0.156
Mof_C 	C 	0.6818	0.9775	0.9744	0.082
Mof_C 	C 	0.7714	0.9771	0.9759	-0.065
Mof_H 	H 	0.7952	0.9612	0.9605	0.544
Mof_C 	C 	0.7152	0.9545	0.9505	-0.034
Mof_H 	H 	0.6999	0.9237	0.9171	0.055
Mof_Cl	Cl	0.8222	0.9582	0.953	-0.562
Mof_N 	N 	0.4842	0.8835	0.9288	-0.303
Mof_O 	O 	0.5334	0.9859	0.8774	-0.119
Mof_O 	O 	0.5244	0.9672	0.822	-0.065
Mof_C 	C 	0.4563	0.8575	0.9811	0.179
Mof_H 	H 	0.469	0.8403	0.0154	-0.03
Mof_C 	C 	0.4381	0.8252	0.9609	-0.162
Mof_H 	H 	0.4445	0.7946	0.9777	0.086
Mof_N 	N 	0.5946	0.9169	0.8083	-0.271
Mof_O 	O 	0.4898	0.8147	0.8047	-0.156
Mof_C 	C 	0.6436	0.9647	0.7863	0.034
Mof_H 	H 	0.6735	0.9939	0.8148	0.061
Mof_N 	N 	0.5686	0.8273	0.9394	-0.281
Mof_C 	C 	0.5745	0.8135	0.0058	0.047
Mof_C 	C 	0.5847	0.8186	0.1251	-0.081
Mof_H 	H 	0.5877	0.8372	0.1681	0.298
Mof_C 	C 	0.5805	0.8459	0.0665	-0.028
Mof_H 	H 	0.5816	0.8828	0.0668	0.058
Mof_Cl	Cl	0.5926	0.8726	0.1975	-0.385
Mof_C 	C 	0.3835	0.3835	0.5	0.118
Mof_H 	H 	0.4199	0.4199	0.5	-0.02
Mof_C 	C 	0.6165	0	0.5	0.116
Mof_H 	H 	0.5801	0	0.5	-0.02
Mof_C 	C 	3.397e-17	0.6165	0.5	0.114
Mof_H 	H 	3.397e-17	0.5801	0.5	-0.02
Mof_C 	C 	0.6165	0.6165	-0	0.115
Mof_H 	H 	0.5801	0.5801	-0	-0.02
Mof_C 	C 	0.3835	0	-0	0.114
Mof_H 	H 	0.4199	0	-0	-0.02
Mof_C 	C 	-0	0.3835	-0	0.113
Mof_H 	H 	-0	0.4199	-0	-0.02
Mof_C 	C 	0.6165	0.6165	0.5	0.118
Mof_H 	H 	0.5801	0.5801	0.5	-0.02
Mof_C 	C 	0.3835	0	0.5	0.117
Mof_H 	H 	0.4199	0	0.5	-0.02
Mof_C 	C 	3.397e-17	0.3835	0.5	0.115
Mof_H 	H 	3.397e-17	0.4199	0.5	-0.02
Mof_C 	C 	0.3835	0.3835	-0	0.115
Mof_H 	H 	0.4199	0.4199	-0	-0.02
Mof_C 	C 	0.6165	0	-0	0.113
Mof_H 	H 	0.5801	0	-0	-0.02
Mof_C 	C 	3.97655e-17	0.6165	-0	0.113
Mof_H 	H 	-0	0.5801	-0	-0.02
Mof_C 	C 	0.5478	0.4522	0.4083	0.216
Mof_N 	N 	0.5288	0.4712	0.333	-0.01
Mof_N 	N 	0.5189	0.4811	0.381	-0.016
Mof_C 	C 	0.5478	0.0956	0.4083	0.216
Mof_N 	N 	0.5288	0.0576	0.333	-0.01
Mof_N 	N 	0.5189	0.0378	0.381	-0.015
Mof_C 	C 	0.9044	0.4522	0.4083	0.217
Mof_N 	N 	0.9424	0.4712	0.333	-0.01
Mof_N 	N 	0.9622	0.4811	0.381	-0.016
Mof_C 	C 	0.4522	0.5478	0.9083	0.217
Mof_N 	N 	0.4712	0.5288	0.833	-0.01
Mof_N 	N 	0.4811	0.5189	0.881	-0.016
Mof_C 	C 	0.4522	0.9044	0.9083	0.217
Mof_N 	N 	0.4712	0.9424	0.833	-0.01
Mof_N 	N 	0.4811	0.9622	0.881	-0.016
Mof_C 	C 	0.0956	0.5478	0.9083	0.216
Mof_N 	N 	0.0576	0.5288	0.833	-0.01
Mof_N 	N 	0.0378	0.5189	0.881	-0.015
Mof_C 	C 	0.4522	0.5478	0.5917	0.217
Mof_N 	N 	0.4712	0.5288	0.667	-0.01
Mof_N 	N 	0.4811	0.5189	0.619	-0.016
Mof_C 	C 	0.0956	0.5478	0.5917	0.216
Mof_N 	N 	0.0576	0.5288	0.667	-0.01
Mof_N 	N 	0.0378	0.5189	0.619	-0.015
Mof_C 	C 	0.4522	0.9044	0.5917	0.217
Mof_N 	N 	0.4712	0.9424	0.667	-0.01
Mof_N 	N 	0.4811	0.9622	0.619	-0.016
Mof_C 	C 	0.5478	0.4522	0.0917	0.217
Mof_N 	N 	0.5288	0.4712	0.167	-0.011
Mof_N 	N 	0.5189	0.4811	0.119	-0.016
Mof_C 	C 	0.9044	0.4522	0.0917	0.217
Mof_N 	N 	0.9424	0.4712	0.167	-0.011
Mof_N 	N 	0.9622	0.4811	0.119	-0.016
Mof_C 	C 	0.5478	0.0956	0.0917	0.217
Mof_N 	N 	0.5288	0.0576	0.167	-0.011
Mof_N 	N 	0.5189	0.0378	0.119	-0.015
Mof_C 	C 	0.4321	0.3229	0.25	0.169
Mof_N 	N 	0.4874	0.324	0.25	-0.024
Mof_C 	C 	0.6771	0.1092	0.25	0.169
Mof_N 	N 	0.676	0.1634	0.25	-0.024
Mof_C 	C 	0.8908	0.5679	0.25	0.169
Mof_N 	N 	0.8366	0.5126	0.25	-0.024
Mof_C 	C 	0.5679	0.6771	0.75	0.169
Mof_N 	N 	0.5126	0.676	0.75	-0.024
Mof_C 	C 	0.3229	0.8908	0.75	0.169
Mof_N 	N 	0.324	0.8366	0.75	-0.024
Mof_C 	C 	0.1092	0.4321	0.75	0.169
Mof_N 	N 	0.1634	0.4874	0.75	-0.024
Mof_C 	C 	0.3229	0.4321	0.75	0.169
Mof_N 	N 	0.324	0.4874	0.75	-0.024
Mof_C 	C 	0.1092	0.6771	0.75	0.169
Mof_N 	N 	0.1634	0.676	0.75	-0.024
Mof_C 	C 	0.5679	0.8908	0.75	0.169
Mof_N 	N 	0.5126	0.8366	0.75	-0.024
Mof_C 	C 	0.6771	0.5679	0.25	0.169
Mof_N 	N 	0.676	0.5126	0.25	-0.024
Mof_C 	C 	0.8908	0.3229	0.25	0.169
Mof_N 	N 	0.8366	0.324	0.25	-0.024
Mof_C 	C 	0.4321	0.1092	0.25	0.169
Mof_N 	N 	0.4874	0.1634	0.25	-0.024
Mof_C 	C 	0.435	0.2175	0.4038	0.117
Mof_H 	H 	0.4398	0.2199	0.3552	-0.017
Mof_C 	C 	0.7825	0.2175	0.4038	0.116
Mof_H 	H 	0.7801	0.2199	0.3552	-0.017
Mof_C 	C 	0.7825	0.565	0.4038	0.116
Mof_H 	H 	0.7801	0.5602	0.3552	-0.017
Mof_C 	C 	0.565	0.7825	0.9038	0.116
Mof_H 	H 	0.5602	0.7801	0.8552	-0.017
Mof_C 	C 	0.2175	0.7825	0.9038	0.117
Mof_H 	H 	0.2199	0.7801	0.8552	-0.017
Mof_C 	C 	0.2175	0.435	0.9038	0.117
Mof_H 	H 	0.2199	0.4398	0.8552	-0.017
Mof_C 	C 	0.2175	0.435	0.5962	0.117
Mof_H 	H 	0.2199	0.4398	0.6448	-0.017
Mof_C 	C 	0.2175	0.7825	0.5962	0.117
Mof_H 	H 	0.2199	0.7801	0.6448	-0.017
Mof_C 	C 	0.565	0.7825	0.5962	0.116
Mof_H 	H 	0.5602	0.7801	0.6448	-0.017
Mof_C 	C 	0.7825	0.565	0.0962	0.116
Mof_H 	H 	0.7801	0.5602	0.1448	-0.017
Mof_C 	C 	0.7825	0.2175	0.0962	0.116
Mof_H 	H 	0.7801	0.2199	0.1448	-0.017
Mof_C 	C 	0.435	0.2175	0.0962	0.116
Mof_H 	H 	0.4398	0.2199	0.1448	-0.017
_end
