data_functionalizedCrystal
_audit_creation_method	'EQeq! by Chris Wilmer'
_symmetry_space_group_name_H-M	'P1'
_symmetry_Int_Tables_number	1
_symmetry_cell_setting	triclinic
loop_
_symmetry_equiv_pos_as_xyz
  x,y,z
_cell_length_a	9.032
_cell_length_b	9.032
_cell_length_c	31.322
_cell_angle_alpha	90
_cell_angle_beta	90
_cell_angle_gamma	90
loop_
_atom_site_label
_atom_site_type_symbol
_atom_site_fract_x
_atom_site_fract_y
_atom_site_fract_z
_atom_site_charge
Mof_N 	N 	0.6265	0.6184	0.04515	-0.194
Mof_N 	N 	0.607	0.471	0.04427	-0.165
Mof_N 	N 	0.3265	0.6406	0.2051	-0.192
Mof_N 	N 	0.3146	0.4921	0.20437	-0.178
Mof_C 	C 	0.5623	0.6638	0.08129	0.013
Mof_C 	C 	0.5012	0.5442	0.10354	-0.015
Mof_C 	C 	0.5332	0.4238	0.0787	0.01
Mof_C 	C 	0.3949	0.6753	0.16866	0.022
Mof_C 	C 	0.4258	0.5496	0.14464	-0.029
Mof_C 	C 	0.3723	0.4354	0.16901	0.035
Mof_H 	H 	0.56	0.778	0.0903	0.009
Mof_H 	H 	0.634	0.421	0.0234	0.094
Mof_H 	H 	0.523	0.337	0.0829	0.024
Mof_H 	H 	0.372	0.341	0.1635	0.013
Mof_H 	H 	0.289	0.448	0.2256	0.105
Mof_H 	H 	0.407	0.78	0.1619	0.005
Mof_N 	N 	0.3735	0.3816	0.54515	-0.191
Mof_N 	N 	0.393	0.529	0.54427	-0.164
Mof_N 	N 	0.6735	0.3594	0.7051	-0.191
Mof_N 	N 	0.6854	0.5079	0.70437	-0.177
Mof_C 	C 	0.4377	0.3362	0.58129	0.016
Mof_C 	C 	0.4988	0.4558	0.60354	-0.015
Mof_C 	C 	0.4668	0.5762	0.5787	0.013
Mof_C 	C 	0.6051	0.3247	0.66866	0.022
Mof_C 	C 	0.5742	0.4504	0.64464	-0.028
Mof_C 	C 	0.6277	0.5646	0.66901	0.034
Mof_H 	H 	0.44	0.222	0.5903	0.01
Mof_H 	H 	0.366	0.579	0.5234	0.098
Mof_H 	H 	0.477	0.663	0.5829	0.024
Mof_H 	H 	0.628	0.659	0.6635	0.013
Mof_H 	H 	0.711	0.552	0.7256	0.105
Mof_H 	H 	0.593	0.22	0.6619	0.006
Mof_N 	N 	0.8816	0.1265	0.79515	-0.191
Mof_N 	N 	0.029	0.107	0.79427	-0.164
Mof_N 	N 	0.8594	0.8265	0.9551	-0.187
Mof_N 	N 	0.0079	0.8146	0.95437	-0.177
Mof_C 	C 	0.8362	0.0623	0.83129	0.016
Mof_C 	C 	0.9558	0.0012	0.85354	-0.015
Mof_C 	C 	0.0762	0.0332	0.8287	0.014
Mof_C 	C 	0.8247	0.8949	0.91866	0.023
Mof_C 	C 	0.9504	0.9258	0.89464	-0.029
Mof_C 	C 	0.0646	0.8723	0.91901	0.037
Mof_H 	H 	0.722	0.06	0.8403	0.011
Mof_H 	H 	0.079	0.134	0.7734	0.099
Mof_H 	H 	0.163	0.023	0.8329	0.024
Mof_H 	H 	0.159	0.872	0.9135	0.013
Mof_H 	H 	0.052	0.789	0.9756	0.109
Mof_H 	H 	0.72	0.907	0.9119	0.007
Mof_N 	N 	0.1184	0.8735	0.29515	-0.191
Mof_N 	N 	0.971	0.893	0.29427	-0.164
Mof_N 	N 	0.1406	0.1735	0.4551	-0.191
Mof_N 	N 	0.9921	0.1854	0.45437	-0.177
Mof_C 	C 	0.1638	0.9377	0.33129	0.016
Mof_C 	C 	0.0442	0.9988	0.35354	-0.017
Mof_C 	C 	0.9238	0.9668	0.3287	0.016
Mof_C 	C 	0.1753	0.1051	0.41866	0.022
Mof_C 	C 	0.0496	0.0742	0.39464	-0.029
Mof_C 	C 	0.9354	0.1277	0.41901	0.035
Mof_H 	H 	0.278	0.94	0.3403	0.01
Mof_H 	H 	0.921	0.866	0.2734	0.099
Mof_H 	H 	0.837	0.977	0.3329	0.022
Mof_H 	H 	0.841	0.128	0.4135	0.013
Mof_H 	H 	0.948	0.211	0.4756	0.105
Mof_H 	H 	0.28	0.093	0.4119	0.006
Mof_N 	N 	0.8735	0.1184	0.70485	-0.191
Mof_N 	N 	0.893	0.971	0.70573	-0.164
Mof_N 	N 	0.1735	0.1406	0.5449	-0.191
Mof_N 	N 	0.1854	0.9921	0.54563	-0.177
Mof_C 	C 	0.9377	0.1638	0.66871	0.016
Mof_C 	C 	0.9988	0.0442	0.64646	-0.016
Mof_C 	C 	0.9668	0.9238	0.6713	0.014
Mof_C 	C 	0.1051	0.1753	0.58134	0.022
Mof_C 	C 	0.0742	0.0496	0.60536	-0.029
Mof_C 	C 	0.1277	0.9354	0.58099	0.035
Mof_H 	H 	0.94	0.278	0.6597	0.01
Mof_H 	H 	0.866	0.921	0.7266	0.099
Mof_H 	H 	0.977	0.837	0.6671	0.023
Mof_H 	H 	0.128	0.841	0.5865	0.013
Mof_H 	H 	0.211	0.948	0.5244	0.105
Mof_H 	H 	0.093	0.28	0.5881	0.006
Mof_N 	N 	0.1265	0.8816	0.20485	-0.192
Mof_N 	N 	0.107	0.029	0.20573	-0.164
Mof_N 	N 	0.8265	0.8594	0.0449	-0.193
Mof_N 	N 	0.8146	0.0079	0.04563	-0.176
Mof_C 	C 	0.0623	0.8362	0.16871	0.016
Mof_C 	C 	0.0012	0.9558	0.14646	-0.018
Mof_C 	C 	0.0332	0.0762	0.1713	0.016
Mof_C 	C 	0.8949	0.8247	0.08134	0.021
Mof_C 	C 	0.9258	0.9504	0.10536	-0.028
Mof_C 	C 	0.8723	0.0646	0.08099	0.033
Mof_H 	H 	0.06	0.722	0.1597	0.01
Mof_H 	H 	0.134	0.079	0.2266	0.099
Mof_H 	H 	0.023	0.163	0.1671	0.022
Mof_H 	H 	0.872	0.159	0.0865	0.012
Mof_H 	H 	0.789	0.052	0.0244	0.101
Mof_H 	H 	0.907	0.72	0.0881	0.005
Mof_N 	N 	0.6184	0.6265	0.95485	-0.187
Mof_N 	N 	0.471	0.607	0.95573	-0.164
Mof_N 	N 	0.6406	0.3265	0.7949	-0.191
Mof_N 	N 	0.4921	0.3146	0.79563	-0.177
Mof_C 	C 	0.6638	0.5623	0.91871	0.017
Mof_C 	C 	0.5442	0.5012	0.89646	-0.015
Mof_C 	C 	0.4238	0.5332	0.9213	0.016
Mof_C 	C 	0.6753	0.3949	0.83134	0.022
Mof_C 	C 	0.5496	0.4258	0.85536	-0.027
Mof_C 	C 	0.4354	0.3723	0.83099	0.034
Mof_H 	H 	0.778	0.56	0.9097	0.011
Mof_H 	H 	0.421	0.634	0.9766	0.103
Mof_H 	H 	0.337	0.523	0.9171	0.024
Mof_H 	H 	0.341	0.372	0.8365	0.013
Mof_H 	H 	0.448	0.289	0.7744	0.105
Mof_H 	H 	0.78	0.407	0.8381	0.006
Mof_N 	N 	0.3816	0.3735	0.45485	-0.191
Mof_N 	N 	0.529	0.393	0.45573	-0.164
Mof_N 	N 	0.3594	0.6735	0.2949	-0.191
Mof_N 	N 	0.5079	0.6854	0.29563	-0.177
Mof_C 	C 	0.3362	0.4377	0.41871	0.016
Mof_C 	C 	0.4558	0.4988	0.39646	-0.015
Mof_C 	C 	0.5762	0.4668	0.4213	0.013
Mof_C 	C 	0.3247	0.6051	0.33134	0.022
Mof_C 	C 	0.4504	0.5742	0.35536	-0.028
Mof_C 	C 	0.5646	0.6277	0.33099	0.034
Mof_H 	H 	0.222	0.44	0.4097	0.01
Mof_H 	H 	0.579	0.366	0.4766	0.099
Mof_H 	H 	0.663	0.477	0.4171	0.024
Mof_H 	H 	0.659	0.628	0.3365	0.013
Mof_H 	H 	0.552	0.711	0.2744	0.105
Mof_H 	H 	0.22	0.593	0.3381	0.006
Mof_Cu	Cu	0.73262	0.73262	-0	0.845
Mof_Cu	Cu	0.26738	0.26738	0.5	0.851
Mof_Cu	Cu	0.76738	0.23262	0.75	0.851
Mof_Cu	Cu	0.23262	0.76738	0.25	0.851
_end
