data_functionalizedCrystal
_audit_creation_method	'EQeq! by Chris Wilmer'
_symmetry_space_group_name_H-M	'P1'
_symmetry_Int_Tables_number	1
_symmetry_cell_setting	triclinic
loop_
_symmetry_equiv_pos_as_xyz
  x,y,z
_cell_length_a	18.4335
_cell_length_b	18.4335
_cell_length_c	52.364
_cell_angle_alpha	90
_cell_angle_beta	90
_cell_angle_gamma	120
loop_
_atom_site_label
_atom_site_type_symbol
_atom_site_fract_x
_atom_site_fract_y
_atom_site_fract_z
_atom_site_charge
Mof_O 	O 	0.10685	0.74533	0.86641	-0.411
Mof_O 	O 	0.1478	0.70401	0.8317	-0.41
Mof_C 	C 	0.0408	0.5793	0.97382	-0.013
Mof_H 	H 	0.0494	0.6278	0.9832	0.025
Mof_C 	C 	0.0662	0.59	0.94927	-0.066
Mof_H 	H 	0.1014	0.6449	0.9428	0.048
Mof_C 	C 	0.9953	0.447	0.94369	-0.042
Mof_H 	H 	0.9768	0.398	0.9337	0.041
Mof_C 	C 	0.973	0.5333	0.97	-0.037
Mof_H 	H 	0.9319	0.5455	0.9763	0.037
Mof_C 	C 	0.07398	0.60176	0.89246	0.011
Mof_H 	H 	0.065	0.6419	0.9012	0.038
Mof_C 	C 	0.0982	0.61474	0.86693	-0.108
Mof_C 	C 	0.11849	0.69334	0.85402	0.367
Mof_O 	O 	0.77352	0.07866	0.19974	-0.41
Mof_O 	O 	0.81447	0.03734	0.16503	-0.409
Mof_C 	C 	0.70747	0.91263	0.30715	-0.012
Mof_H 	H 	0.71607	0.96113	0.31653	0.026
Mof_C 	C 	0.73287	0.92333	0.2826	-0.065
Mof_H 	H 	0.76807	0.97823	0.27613	0.049
Mof_C 	C 	0.66197	0.78033	0.27702	-0.041
Mof_H 	H 	0.64347	0.73133	0.26703	0.042
Mof_C 	C 	0.63967	0.86663	0.30333	-0.037
Mof_H 	H 	0.59857	0.87883	0.30963	0.037
Mof_C 	C 	0.74065	0.93509	0.22579	0.011
Mof_H 	H 	0.73167	0.97523	0.23453	0.038
Mof_C 	C 	0.76487	0.94807	0.20026	-0.108
Mof_C 	C 	0.78516	0.02667	0.18735	0.366
Mof_O 	O 	0.44018	0.412	0.53308	-0.41
Mof_O 	O 	0.48113	0.37068	0.49837	-0.409
Mof_C 	C 	0.37413	0.24597	0.64049	-0.012
Mof_H 	H 	0.38273	0.29447	0.64987	0.026
Mof_C 	C 	0.39953	0.25667	0.61594	-0.065
Mof_H 	H 	0.43473	0.31157	0.60947	0.049
Mof_C 	C 	0.32863	0.11367	0.61036	-0.042
Mof_H 	H 	0.31013	0.06467	0.60037	0.042
Mof_C 	C 	0.30633	0.19997	0.63667	-0.037
Mof_H 	H 	0.26523	0.21217	0.64297	0.037
Mof_C 	C 	0.40731	0.26843	0.55913	0.011
Mof_H 	H 	0.39833	0.30857	0.56787	0.038
Mof_C 	C 	0.43153	0.28141	0.5336	-0.108
Mof_C 	C 	0.45182	0.36001	0.52069	0.367
Mof_O 	O 	0.25467	0.36152	0.86641	-0.41
Mof_O 	O 	0.29599	0.44379	0.8317	-0.409
Mof_C 	C 	0.4207	0.4615	0.97382	-0.012
Mof_H 	H 	0.3722	0.4216	0.9832	0.026
Mof_C 	C 	0.41	0.4762	0.94927	-0.065
Mof_H 	H 	0.3551	0.4565	0.9428	0.049
Mof_C 	C 	0.553	0.5483	0.94369	-0.041
Mof_H 	H 	0.602	0.5788	0.9337	0.042
Mof_C 	C 	0.4667	0.4397	0.97	-0.037
Mof_H 	H 	0.4545	0.3864	0.9763	0.037
Mof_C 	C 	0.39824	0.47222	0.89246	0.011
Mof_H 	H 	0.3581	0.4231	0.9012	0.038
Mof_C 	C 	0.38526	0.48346	0.86693	-0.108
Mof_C 	C 	0.30666	0.42515	0.85402	0.367
Mof_O 	O 	0.92134	0.69485	0.19974	-0.41
Mof_O 	O 	0.96266	0.77712	0.16503	-0.409
Mof_C 	C 	0.08737	0.79483	0.30715	-0.012
Mof_H 	H 	0.03887	0.75493	0.31653	0.026
Mof_C 	C 	0.07667	0.80953	0.2826	-0.065
Mof_H 	H 	0.02177	0.78983	0.27613	0.049
Mof_C 	C 	0.21967	0.88163	0.27702	-0.041
Mof_H 	H 	0.26867	0.91213	0.26703	0.042
Mof_C 	C 	0.13337	0.77303	0.30333	-0.037
Mof_H 	H 	0.12117	0.71973	0.30963	0.037
Mof_C 	C 	0.06491	0.80555	0.22579	0.011
Mof_H 	H 	0.02477	0.75643	0.23453	0.038
Mof_C 	C 	0.05193	0.81679	0.20026	-0.108
Mof_C 	C 	0.97333	0.75848	0.18735	0.366
Mof_O 	O 	0.588	0.02819	0.53308	-0.41
Mof_O 	O 	0.62932	0.11046	0.49837	-0.409
Mof_C 	C 	0.75403	0.12817	0.64049	-0.012
Mof_H 	H 	0.70553	0.08827	0.64987	0.026
Mof_C 	C 	0.74333	0.14287	0.61594	-0.065
Mof_H 	H 	0.68843	0.12317	0.60947	0.049
Mof_C 	C 	0.88633	0.21497	0.61036	-0.041
Mof_H 	H 	0.93533	0.24547	0.60037	0.042
Mof_C 	C 	0.80003	0.10637	0.63667	-0.037
Mof_H 	H 	0.78783	0.05307	0.64297	0.037
Mof_C 	C 	0.73157	0.13889	0.55913	0.011
Mof_H 	H 	0.69143	0.08977	0.56787	0.038
Mof_C 	C 	0.71859	0.15013	0.5336	-0.108
Mof_C 	C 	0.63999	0.09182	0.52069	0.367
Mof_O 	O 	0.63848	0.89315	0.86641	-0.41
Mof_O 	O 	0.55621	0.8522	0.8317	-0.409
Mof_C 	C 	0.5385	0.9592	0.97382	-0.012
Mof_H 	H 	0.5784	0.9506	0.9832	0.026
Mof_C 	C 	0.5238	0.9338	0.94927	-0.065
Mof_H 	H 	0.5435	0.8986	0.9428	0.049
Mof_C 	C 	0.4517	0.0047	0.94369	-0.041
Mof_H 	H 	0.4212	0.0232	0.9337	0.042
Mof_C 	C 	0.5603	0.027	0.97	-0.037
Mof_H 	H 	0.6136	0.0681	0.9763	0.037
Mof_C 	C 	0.52778	0.92602	0.89246	0.011
Mof_H 	H 	0.5769	0.935	0.9012	0.038
Mof_C 	C 	0.51654	0.9018	0.86693	-0.108
Mof_C 	C 	0.57485	0.88151	0.85402	0.367
Mof_O 	O 	0.30515	0.22648	0.19974	-0.41
Mof_O 	O 	0.22288	0.18553	0.16503	-0.409
Mof_C 	C 	0.20517	0.29253	0.30715	-0.012
Mof_H 	H 	0.24507	0.28393	0.31653	0.026
Mof_C 	C 	0.19047	0.26713	0.2826	-0.065
Mof_H 	H 	0.21017	0.23193	0.27613	0.049
Mof_C 	C 	0.11837	0.33803	0.27702	-0.041
Mof_H 	H 	0.08787	0.35653	0.26703	0.042
Mof_C 	C 	0.22697	0.36033	0.30333	-0.037
Mof_H 	H 	0.28027	0.40143	0.30963	0.037
Mof_C 	C 	0.19445	0.25935	0.22579	0.011
Mof_H 	H 	0.24357	0.26833	0.23453	0.038
Mof_C 	C 	0.18321	0.23513	0.20026	-0.108
Mof_C 	C 	0.24152	0.21484	0.18735	0.367
Mof_O 	O 	0.97181	0.55982	0.53308	-0.41
Mof_O 	O 	0.88954	0.51887	0.49837	-0.409
Mof_C 	C 	0.87183	0.62587	0.64049	-0.012
Mof_H 	H 	0.91173	0.61727	0.64987	0.026
Mof_C 	C 	0.85713	0.60047	0.61594	-0.065
Mof_H 	H 	0.87683	0.56527	0.60947	0.049
Mof_C 	C 	0.78503	0.67137	0.61036	-0.041
Mof_H 	H 	0.75453	0.68987	0.60037	0.042
Mof_C 	C 	0.89363	0.69367	0.63667	-0.037
Mof_H 	H 	0.94693	0.73477	0.64297	0.037
Mof_C 	C 	0.86111	0.59269	0.55913	0.011
Mof_H 	H 	0.91023	0.60167	0.56787	0.038
Mof_C 	C 	0.84987	0.56847	0.5336	-0.108
Mof_C 	C 	0.90818	0.54818	0.52069	0.367
Mof_O 	O 	0.74533	0.10685	0.13359	-0.41
Mof_O 	O 	0.70401	0.1478	0.1683	-0.409
Mof_C 	C 	0.5793	0.0408	0.02618	-0.012
Mof_H 	H 	0.6278	0.0494	0.0168	0.026
Mof_C 	C 	0.59	0.0662	0.05073	-0.065
Mof_H 	H 	0.6449	0.1014	0.0572	0.049
Mof_C 	C 	0.447	0.9953	0.05631	-0.041
Mof_H 	H 	0.398	0.9768	0.0663	0.042
Mof_C 	C 	0.5333	0.973	0.03	-0.037
Mof_H 	H 	0.5455	0.9319	0.0237	0.037
Mof_C 	C 	0.60176	0.07398	0.10754	0.011
Mof_H 	H 	0.6419	0.065	0.0988	0.038
Mof_C 	C 	0.61474	0.0982	0.13307	-0.108
Mof_C 	C 	0.69334	0.11849	0.14598	0.367
Mof_O 	O 	0.412	0.44018	0.46692	-0.41
Mof_O 	O 	0.37068	0.48113	0.50163	-0.409
Mof_C 	C 	0.24597	0.37413	0.35951	-0.012
Mof_H 	H 	0.29447	0.38273	0.35013	0.026
Mof_C 	C 	0.25667	0.39953	0.38406	-0.065
Mof_H 	H 	0.31157	0.43473	0.39053	0.049
Mof_C 	C 	0.11367	0.32863	0.38964	-0.042
Mof_H 	H 	0.06467	0.31013	0.39963	0.042
Mof_C 	C 	0.19997	0.30633	0.36333	-0.037
Mof_H 	H 	0.21217	0.26523	0.35703	0.037
Mof_C 	C 	0.26843	0.40731	0.44087	0.011
Mof_H 	H 	0.30857	0.39833	0.43213	0.038
Mof_C 	C 	0.28141	0.43153	0.4664	-0.108
Mof_C 	C 	0.36001	0.45182	0.47931	0.367
Mof_O 	O 	0.07866	0.77352	0.80026	-0.41
Mof_O 	O 	0.03734	0.81447	0.83497	-0.409
Mof_C 	C 	0.91263	0.70747	0.69285	-0.012
Mof_H 	H 	0.96113	0.71607	0.68347	0.026
Mof_C 	C 	0.92333	0.73287	0.7174	-0.065
Mof_H 	H 	0.97823	0.76807	0.72387	0.049
Mof_C 	C 	0.78033	0.66197	0.72298	-0.041
Mof_H 	H 	0.73133	0.64347	0.73297	0.042
Mof_C 	C 	0.86663	0.63967	0.69667	-0.037
Mof_H 	H 	0.87883	0.59857	0.69037	0.037
Mof_C 	C 	0.93509	0.74065	0.77421	0.011
Mof_H 	H 	0.97523	0.73167	0.76547	0.038
Mof_C 	C 	0.94807	0.76487	0.79974	-0.108
Mof_C 	C 	0.02667	0.78516	0.81265	0.366
Mof_O 	O 	0.36152	0.25467	0.13359	-0.41
Mof_O 	O 	0.44379	0.29599	0.1683	-0.409
Mof_C 	C 	0.4615	0.4207	0.02618	-0.012
Mof_H 	H 	0.4216	0.3722	0.0168	0.026
Mof_C 	C 	0.4762	0.41	0.05073	-0.065
Mof_H 	H 	0.4565	0.3551	0.0572	0.049
Mof_C 	C 	0.5483	0.553	0.05631	-0.041
Mof_H 	H 	0.5788	0.602	0.0663	0.042
Mof_C 	C 	0.4397	0.4667	0.03	-0.037
Mof_H 	H 	0.3864	0.4545	0.0237	0.037
Mof_C 	C 	0.47222	0.39824	0.10754	0.011
Mof_H 	H 	0.4231	0.3581	0.0988	0.038
Mof_C 	C 	0.48346	0.38526	0.13307	-0.108
Mof_C 	C 	0.42515	0.30666	0.14598	0.367
Mof_O 	O 	0.02819	0.588	0.46692	-0.41
Mof_O 	O 	0.11046	0.62932	0.50163	-0.409
Mof_C 	C 	0.12817	0.75403	0.35951	-0.012
Mof_H 	H 	0.08827	0.70553	0.35013	0.026
Mof_C 	C 	0.14287	0.74333	0.38406	-0.065
Mof_H 	H 	0.12317	0.68843	0.39053	0.049
Mof_C 	C 	0.21497	0.88633	0.38964	-0.041
Mof_H 	H 	0.24547	0.93533	0.39963	0.042
Mof_C 	C 	0.10637	0.80003	0.36333	-0.037
Mof_H 	H 	0.05307	0.78783	0.35703	0.037
Mof_C 	C 	0.13889	0.73157	0.44087	0.011
Mof_H 	H 	0.08977	0.69143	0.43213	0.038
Mof_C 	C 	0.15013	0.71859	0.4664	-0.108
Mof_C 	C 	0.09182	0.63999	0.47931	0.367
Mof_O 	O 	0.69485	0.92134	0.80026	-0.41
Mof_O 	O 	0.77712	0.96266	0.83497	-0.409
Mof_C 	C 	0.79483	0.08737	0.69285	-0.012
Mof_H 	H 	0.75493	0.03887	0.68347	0.026
Mof_C 	C 	0.80953	0.07667	0.7174	-0.065
Mof_H 	H 	0.78983	0.02177	0.72387	0.049
Mof_C 	C 	0.88163	0.21967	0.72298	-0.041
Mof_H 	H 	0.91213	0.26867	0.73297	0.042
Mof_C 	C 	0.77303	0.13337	0.69667	-0.037
Mof_H 	H 	0.71973	0.12117	0.69037	0.037
Mof_C 	C 	0.80555	0.06491	0.77421	0.011
Mof_H 	H 	0.75643	0.02477	0.76547	0.038
Mof_C 	C 	0.81679	0.05193	0.79974	-0.108
Mof_C 	C 	0.75848	0.97333	0.81265	0.366
Mof_O 	O 	0.89315	0.63848	0.13359	-0.41
Mof_O 	O 	0.8522	0.55621	0.1683	-0.409
Mof_C 	C 	0.9592	0.5385	0.02618	-0.012
Mof_H 	H 	0.9506	0.5784	0.0168	0.026
Mof_C 	C 	0.9338	0.5238	0.05073	-0.065
Mof_H 	H 	0.8986	0.5435	0.0572	0.049
Mof_C 	C 	0.0047	0.4517	0.05631	-0.041
Mof_H 	H 	0.0232	0.4212	0.0663	0.042
Mof_C 	C 	0.027	0.5603	0.03	-0.037
Mof_H 	H 	0.0681	0.6136	0.0237	0.037
Mof_C 	C 	0.92602	0.52778	0.10754	0.011
Mof_H 	H 	0.935	0.5769	0.0988	0.038
Mof_C 	C 	0.9018	0.51654	0.13307	-0.108
Mof_C 	C 	0.88151	0.57485	0.14598	0.367
Mof_O 	O 	0.55982	0.97181	0.46692	-0.41
Mof_O 	O 	0.51887	0.88954	0.50163	-0.409
Mof_C 	C 	0.62587	0.87183	0.35951	-0.012
Mof_H 	H 	0.61727	0.91173	0.35013	0.026
Mof_C 	C 	0.60047	0.85713	0.38406	-0.065
Mof_H 	H 	0.56527	0.87683	0.39053	0.049
Mof_C 	C 	0.67137	0.78503	0.38964	-0.041
Mof_H 	H 	0.68987	0.75453	0.39963	0.042
Mof_C 	C 	0.69367	0.89363	0.36333	-0.037
Mof_H 	H 	0.73477	0.94693	0.35703	0.037
Mof_C 	C 	0.59269	0.86111	0.44087	0.011
Mof_H 	H 	0.60167	0.91023	0.43213	0.038
Mof_C 	C 	0.56847	0.84987	0.4664	-0.108
Mof_C 	C 	0.54818	0.90818	0.47931	0.367
Mof_O 	O 	0.22648	0.30515	0.80026	-0.41
Mof_O 	O 	0.18553	0.22288	0.83497	-0.409
Mof_C 	C 	0.29253	0.20517	0.69285	-0.012
Mof_H 	H 	0.28393	0.24507	0.68347	0.026
Mof_C 	C 	0.26713	0.19047	0.7174	-0.065
Mof_H 	H 	0.23193	0.21017	0.72387	0.049
Mof_C 	C 	0.33803	0.11837	0.72298	-0.041
Mof_H 	H 	0.35653	0.08787	0.73297	0.042
Mof_C 	C 	0.36033	0.22697	0.69667	-0.037
Mof_H 	H 	0.40143	0.28027	0.69037	0.037
Mof_C 	C 	0.25935	0.19445	0.77421	0.011
Mof_H 	H 	0.26833	0.24357	0.76547	0.038
Mof_C 	C 	0.23513	0.18321	0.79974	-0.108
Mof_C 	C 	0.21484	0.24152	0.81265	0.367
Mof_O 	O 	0.89315	0.25467	0.13359	-0.41
Mof_O 	O 	0.8522	0.29599	0.1683	-0.409
Mof_C 	C 	0.9592	0.4207	0.02618	-0.012
Mof_H 	H 	0.9506	0.3722	0.0168	0.026
Mof_C 	C 	0.9338	0.41	0.05073	-0.065
Mof_H 	H 	0.8986	0.3551	0.0572	0.049
Mof_C 	C 	0.0047	0.553	0.05631	-0.041
Mof_H 	H 	0.0232	0.602	0.0663	0.042
Mof_C 	C 	0.027	0.4667	0.03	-0.037
Mof_H 	H 	0.0681	0.4545	0.0237	0.037
Mof_C 	C 	0.92602	0.39824	0.10754	0.011
Mof_H 	H 	0.935	0.3581	0.0988	0.038
Mof_C 	C 	0.9018	0.38526	0.13307	-0.108
Mof_C 	C 	0.88151	0.30666	0.14598	0.367
Mof_O 	O 	0.55982	0.588	0.46692	-0.41
Mof_O 	O 	0.51887	0.62932	0.50163	-0.409
Mof_C 	C 	0.62587	0.75403	0.35951	-0.012
Mof_H 	H 	0.61727	0.70553	0.35013	0.026
Mof_C 	C 	0.60047	0.74333	0.38406	-0.065
Mof_H 	H 	0.56527	0.68843	0.39053	0.049
Mof_C 	C 	0.67137	0.88633	0.38964	-0.042
Mof_H 	H 	0.68987	0.93533	0.39963	0.042
Mof_C 	C 	0.69367	0.80003	0.36333	-0.037
Mof_H 	H 	0.73477	0.78783	0.35703	0.037
Mof_C 	C 	0.59269	0.73157	0.44087	0.011
Mof_H 	H 	0.60167	0.69143	0.43213	0.038
Mof_C 	C 	0.56847	0.71859	0.4664	-0.108
Mof_C 	C 	0.54818	0.63999	0.47931	0.367
Mof_O 	O 	0.22648	0.92134	0.80026	-0.41
Mof_O 	O 	0.18553	0.96266	0.83497	-0.409
Mof_C 	C 	0.29253	0.08737	0.69285	-0.012
Mof_H 	H 	0.28393	0.03887	0.68347	0.026
Mof_C 	C 	0.26713	0.07667	0.7174	-0.065
Mof_H 	H 	0.23193	0.02177	0.72387	0.049
Mof_C 	C 	0.33803	0.21967	0.72298	-0.041
Mof_H 	H 	0.35653	0.26867	0.73297	0.042
Mof_C 	C 	0.36033	0.13337	0.69667	-0.037
Mof_H 	H 	0.40143	0.12117	0.69037	0.037
Mof_C 	C 	0.25935	0.06491	0.77421	0.011
Mof_H 	H 	0.26833	0.02477	0.76547	0.038
Mof_C 	C 	0.23513	0.05193	0.79974	-0.108
Mof_C 	C 	0.21484	0.97333	0.81265	0.366
Mof_O 	O 	0.74533	0.63848	0.13359	-0.41
Mof_O 	O 	0.70401	0.55621	0.1683	-0.409
Mof_C 	C 	0.5793	0.5385	0.02618	-0.012
Mof_H 	H 	0.6278	0.5784	0.0168	0.026
Mof_C 	C 	0.59	0.5238	0.05073	-0.065
Mof_H 	H 	0.6449	0.5435	0.0572	0.049
Mof_C 	C 	0.447	0.4517	0.05631	-0.041
Mof_H 	H 	0.398	0.4212	0.0663	0.042
Mof_C 	C 	0.5333	0.5603	0.03	-0.037
Mof_H 	H 	0.5455	0.6136	0.0237	0.037
Mof_C 	C 	0.60176	0.52778	0.10754	0.011
Mof_H 	H 	0.6419	0.5769	0.0988	0.038
Mof_C 	C 	0.61474	0.51654	0.13307	-0.108
Mof_C 	C 	0.69334	0.57485	0.14598	0.367
Mof_O 	O 	0.412	0.97181	0.46692	-0.41
Mof_O 	O 	0.37068	0.88954	0.50163	-0.409
Mof_C 	C 	0.24597	0.87183	0.35951	-0.012
Mof_H 	H 	0.29447	0.91173	0.35013	0.026
Mof_C 	C 	0.25667	0.85713	0.38406	-0.065
Mof_H 	H 	0.31157	0.87683	0.39053	0.049
Mof_C 	C 	0.11367	0.78503	0.38964	-0.041
Mof_H 	H 	0.06467	0.75453	0.39963	0.042
Mof_C 	C 	0.19997	0.89363	0.36333	-0.037
Mof_H 	H 	0.21217	0.94693	0.35703	0.037
Mof_C 	C 	0.26843	0.86111	0.44087	0.011
Mof_H 	H 	0.30857	0.91023	0.43213	0.038
Mof_C 	C 	0.28141	0.84987	0.4664	-0.108
Mof_C 	C 	0.36001	0.90818	0.47931	0.367
Mof_O 	O 	0.07866	0.30515	0.80026	-0.41
Mof_O 	O 	0.03734	0.22288	0.83497	-0.409
Mof_C 	C 	0.91263	0.20517	0.69285	-0.012
Mof_H 	H 	0.96113	0.24507	0.68347	0.026
Mof_C 	C 	0.92333	0.19047	0.7174	-0.065
Mof_H 	H 	0.97823	0.21017	0.72387	0.049
Mof_C 	C 	0.78033	0.11837	0.72298	-0.041
Mof_H 	H 	0.73133	0.08787	0.73297	0.042
Mof_C 	C 	0.86663	0.22697	0.69667	-0.037
Mof_H 	H 	0.87883	0.28027	0.69037	0.037
Mof_C 	C 	0.93509	0.19445	0.77421	0.011
Mof_H 	H 	0.97523	0.24357	0.76547	0.038
Mof_C 	C 	0.94807	0.18321	0.79974	-0.108
Mof_C 	C 	0.02667	0.24152	0.81265	0.366
Mof_O 	O 	0.36152	0.10685	0.13359	-0.41
Mof_O 	O 	0.44379	0.1478	0.1683	-0.409
Mof_C 	C 	0.4615	0.0408	0.02618	-0.012
Mof_H 	H 	0.4216	0.0494	0.0168	0.026
Mof_C 	C 	0.4762	0.0662	0.05073	-0.065
Mof_H 	H 	0.4565	0.1014	0.0572	0.049
Mof_C 	C 	0.5483	0.9953	0.05631	-0.041
Mof_H 	H 	0.5788	0.9768	0.0663	0.042
Mof_C 	C 	0.4397	0.973	0.03	-0.037
Mof_H 	H 	0.3864	0.9319	0.0237	0.037
Mof_C 	C 	0.47222	0.07398	0.10754	0.011
Mof_H 	H 	0.4231	0.065	0.0988	0.038
Mof_C 	C 	0.48346	0.0982	0.13307	-0.108
Mof_C 	C 	0.42515	0.11849	0.14598	0.367
Mof_O 	O 	0.02819	0.44018	0.46692	-0.41
Mof_O 	O 	0.11046	0.48113	0.50163	-0.409
Mof_C 	C 	0.12817	0.37413	0.35951	-0.012
Mof_H 	H 	0.08827	0.38273	0.35013	0.026
Mof_C 	C 	0.14287	0.39953	0.38406	-0.065
Mof_H 	H 	0.12317	0.43473	0.39053	0.049
Mof_C 	C 	0.21497	0.32863	0.38964	-0.041
Mof_H 	H 	0.24547	0.31013	0.39963	0.042
Mof_C 	C 	0.10637	0.30633	0.36333	-0.037
Mof_H 	H 	0.05307	0.26523	0.35703	0.037
Mof_C 	C 	0.13889	0.40731	0.44087	0.011
Mof_H 	H 	0.08977	0.39833	0.43213	0.038
Mof_C 	C 	0.15013	0.43153	0.4664	-0.108
Mof_C 	C 	0.09182	0.45182	0.47931	0.367
Mof_O 	O 	0.69485	0.77352	0.80026	-0.41
Mof_O 	O 	0.77712	0.81447	0.83497	-0.409
Mof_C 	C 	0.79483	0.70747	0.69285	-0.012
Mof_H 	H 	0.75493	0.71607	0.68347	0.026
Mof_C 	C 	0.80953	0.73287	0.7174	-0.065
Mof_H 	H 	0.78983	0.76807	0.72387	0.049
Mof_C 	C 	0.88163	0.66197	0.72298	-0.041
Mof_H 	H 	0.91213	0.64347	0.73297	0.042
Mof_C 	C 	0.77303	0.63967	0.69667	-0.037
Mof_H 	H 	0.71973	0.59857	0.69037	0.037
Mof_C 	C 	0.80555	0.74065	0.77421	0.011
Mof_H 	H 	0.75643	0.73167	0.76547	0.038
Mof_C 	C 	0.81679	0.76487	0.79974	-0.108
Mof_C 	C 	0.75848	0.78516	0.81265	0.367
Mof_O 	O 	0.25467	0.89315	0.86641	-0.41
Mof_O 	O 	0.29599	0.8522	0.8317	-0.409
Mof_C 	C 	0.4207	0.9592	0.97382	-0.012
Mof_H 	H 	0.3722	0.9506	0.9832	0.026
Mof_C 	C 	0.41	0.9338	0.94927	-0.065
Mof_H 	H 	0.3551	0.8986	0.9428	0.049
Mof_C 	C 	0.553	0.0047	0.94369	-0.041
Mof_H 	H 	0.602	0.0232	0.9337	0.042
Mof_C 	C 	0.4667	0.027	0.97	-0.037
Mof_H 	H 	0.4545	0.0681	0.9763	0.037
Mof_C 	C 	0.39824	0.92602	0.89246	0.011
Mof_H 	H 	0.3581	0.935	0.9012	0.038
Mof_C 	C 	0.38526	0.9018	0.86693	-0.108
Mof_C 	C 	0.30666	0.88151	0.85402	0.367
Mof_O 	O 	0.92134	0.22648	0.19974	-0.41
Mof_O 	O 	0.96266	0.18553	0.16503	-0.409
Mof_C 	C 	0.08737	0.29253	0.30715	-0.012
Mof_H 	H 	0.03887	0.28393	0.31653	0.026
Mof_C 	C 	0.07667	0.26713	0.2826	-0.065
Mof_H 	H 	0.02177	0.23193	0.27613	0.049
Mof_C 	C 	0.21967	0.33803	0.27702	-0.041
Mof_H 	H 	0.26867	0.35653	0.26703	0.042
Mof_C 	C 	0.13337	0.36033	0.30333	-0.037
Mof_H 	H 	0.12117	0.40143	0.30963	0.037
Mof_C 	C 	0.06491	0.25935	0.22579	0.011
Mof_H 	H 	0.02477	0.26833	0.23453	0.038
Mof_C 	C 	0.05193	0.23513	0.20026	-0.108
Mof_C 	C 	0.97333	0.21484	0.18735	0.366
Mof_O 	O 	0.588	0.55982	0.53308	-0.41
Mof_O 	O 	0.62932	0.51887	0.49837	-0.409
Mof_C 	C 	0.75403	0.62587	0.64049	-0.012
Mof_H 	H 	0.70553	0.61727	0.64987	0.026
Mof_C 	C 	0.74333	0.60047	0.61594	-0.065
Mof_H 	H 	0.68843	0.56527	0.60947	0.049
Mof_C 	C 	0.88633	0.67137	0.61036	-0.042
Mof_H 	H 	0.93533	0.68987	0.60037	0.042
Mof_C 	C 	0.80003	0.69367	0.63667	-0.037
Mof_H 	H 	0.78783	0.73477	0.64297	0.037
Mof_C 	C 	0.73157	0.59269	0.55913	0.011
Mof_H 	H 	0.69143	0.60167	0.56787	0.038
Mof_C 	C 	0.71859	0.56847	0.5336	-0.108
Mof_C 	C 	0.63999	0.54818	0.52069	0.367
Mof_O 	O 	0.63848	0.74533	0.86641	-0.41
Mof_O 	O 	0.55621	0.70401	0.8317	-0.409
Mof_C 	C 	0.5385	0.5793	0.97382	-0.012
Mof_H 	H 	0.5784	0.6278	0.9832	0.026
Mof_C 	C 	0.5238	0.59	0.94927	-0.065
Mof_H 	H 	0.5435	0.6449	0.9428	0.049
Mof_C 	C 	0.4517	0.447	0.94369	-0.041
Mof_H 	H 	0.4212	0.398	0.9337	0.042
Mof_C 	C 	0.5603	0.5333	0.97	-0.037
Mof_H 	H 	0.6136	0.5455	0.9763	0.037
Mof_C 	C 	0.52778	0.60176	0.89246	0.011
Mof_H 	H 	0.5769	0.6419	0.9012	0.038
Mof_C 	C 	0.51654	0.61474	0.86693	-0.108
Mof_C 	C 	0.57485	0.69334	0.85402	0.367
Mof_O 	O 	0.30515	0.07866	0.19974	-0.41
Mof_O 	O 	0.22288	0.03734	0.16503	-0.409
Mof_C 	C 	0.20517	0.91263	0.30715	-0.012
Mof_H 	H 	0.24507	0.96113	0.31653	0.026
Mof_C 	C 	0.19047	0.92333	0.2826	-0.065
Mof_H 	H 	0.21017	0.97823	0.27613	0.049
Mof_C 	C 	0.11837	0.78033	0.27702	-0.041
Mof_H 	H 	0.08787	0.73133	0.26703	0.042
Mof_C 	C 	0.22697	0.86663	0.30333	-0.037
Mof_H 	H 	0.28027	0.87883	0.30963	0.037
Mof_C 	C 	0.19445	0.93509	0.22579	0.011
Mof_H 	H 	0.24357	0.97523	0.23453	0.038
Mof_C 	C 	0.18321	0.94807	0.20026	-0.108
Mof_C 	C 	0.24152	0.02667	0.18735	0.366
Mof_O 	O 	0.97181	0.412	0.53308	-0.41
Mof_O 	O 	0.88954	0.37068	0.49837	-0.409
Mof_C 	C 	0.87183	0.24597	0.64049	-0.012
Mof_H 	H 	0.91173	0.29447	0.64987	0.026
Mof_C 	C 	0.85713	0.25667	0.61594	-0.065
Mof_H 	H 	0.87683	0.31157	0.60947	0.049
Mof_C 	C 	0.78503	0.11367	0.61036	-0.041
Mof_H 	H 	0.75453	0.06467	0.60037	0.042
Mof_C 	C 	0.89363	0.19997	0.63667	-0.037
Mof_H 	H 	0.94693	0.21217	0.64297	0.037
Mof_C 	C 	0.86111	0.26843	0.55913	0.011
Mof_H 	H 	0.91023	0.30857	0.56787	0.038
Mof_C 	C 	0.84987	0.28141	0.5336	-0.108
Mof_C 	C 	0.90818	0.36001	0.52069	0.367
Mof_O 	O 	0.10685	0.36152	0.86641	-0.41
Mof_O 	O 	0.1478	0.44379	0.8317	-0.409
Mof_C 	C 	0.0408	0.4615	0.97382	-0.012
Mof_H 	H 	0.0494	0.4216	0.9832	0.026
Mof_C 	C 	0.0662	0.4762	0.94927	-0.065
Mof_H 	H 	0.1014	0.4565	0.9428	0.049
Mof_C 	C 	0.9953	0.5483	0.94369	-0.041
Mof_H 	H 	0.9768	0.5788	0.9337	0.042
Mof_C 	C 	0.973	0.4397	0.97	-0.037
Mof_H 	H 	0.9319	0.3864	0.9763	0.037
Mof_C 	C 	0.07398	0.47222	0.89246	0.011
Mof_H 	H 	0.065	0.4231	0.9012	0.038
Mof_C 	C 	0.0982	0.48346	0.86693	-0.108
Mof_C 	C 	0.11849	0.42515	0.85402	0.367
Mof_O 	O 	0.77352	0.69485	0.19974	-0.41
Mof_O 	O 	0.81447	0.77712	0.16503	-0.409
Mof_C 	C 	0.70747	0.79483	0.30715	-0.012
Mof_H 	H 	0.71607	0.75493	0.31653	0.026
Mof_C 	C 	0.73287	0.80953	0.2826	-0.065
Mof_H 	H 	0.76807	0.78983	0.27613	0.049
Mof_C 	C 	0.66197	0.88163	0.27702	-0.041
Mof_H 	H 	0.64347	0.91213	0.26703	0.042
Mof_C 	C 	0.63967	0.77303	0.30333	-0.037
Mof_H 	H 	0.59857	0.71973	0.30963	0.037
Mof_C 	C 	0.74065	0.80555	0.22579	0.011
Mof_H 	H 	0.73167	0.75643	0.23453	0.038
Mof_C 	C 	0.76487	0.81679	0.20026	-0.108
Mof_C 	C 	0.78516	0.75848	0.18735	0.367
Mof_O 	O 	0.44018	0.02819	0.53308	-0.41
Mof_O 	O 	0.48113	0.11046	0.49837	-0.409
Mof_C 	C 	0.37413	0.12817	0.64049	-0.012
Mof_H 	H 	0.38273	0.08827	0.64987	0.026
Mof_C 	C 	0.39953	0.14287	0.61594	-0.065
Mof_H 	H 	0.43473	0.12317	0.60947	0.049
Mof_C 	C 	0.32863	0.21497	0.61036	-0.041
Mof_H 	H 	0.31013	0.24547	0.60037	0.042
Mof_C 	C 	0.30633	0.10637	0.63667	-0.037
Mof_H 	H 	0.26523	0.05307	0.64297	0.037
Mof_C 	C 	0.40731	0.13889	0.55913	0.011
Mof_H 	H 	0.39833	0.08977	0.56787	0.038
Mof_C 	C 	0.43153	0.15013	0.5336	-0.108
Mof_C 	C 	0.45182	0.09182	0.52069	0.367
Mof_Cu	Cu	0.14214	0.85786	0.85387	0.906
Mof_Cu	Cu	0.80881	0.19119	0.18721	0.906
Mof_Cu	Cu	0.47547	0.52453	0.52054	0.906
Mof_Cu	Cu	0.14214	0.28428	0.85387	0.907
Mof_Cu	Cu	0.80881	0.61761	0.18721	0.906
Mof_Cu	Cu	0.47547	0.95094	0.52054	0.906
Mof_Cu	Cu	0.71572	0.85786	0.85387	0.907
Mof_Cu	Cu	0.38239	0.19119	0.18721	0.906
Mof_Cu	Cu	0.04906	0.52453	0.52054	0.906
Mof_Cu	Cu	0.85786	0.14214	0.14613	0.906
Mof_Cu	Cu	0.52453	0.47547	0.47946	0.906
Mof_Cu	Cu	0.19119	0.80881	0.81279	0.906
Mof_Cu	Cu	0.28428	0.14214	0.14613	0.907
Mof_Cu	Cu	0.95094	0.47547	0.47946	0.906
Mof_Cu	Cu	0.61761	0.80881	0.81279	0.906
Mof_Cu	Cu	0.85786	0.71572	0.14613	0.907
Mof_Cu	Cu	0.52453	0.04906	0.47946	0.906
Mof_Cu	Cu	0.19119	0.38239	0.81279	0.906
Mof_C 	C 	0.0065	0.50325	0.986	0.004
Mof_C 	C 	0.04103	0.52051	0.93333	0.06
Mof_C 	C 	0.06263	0.53132	0.90549	-0.04
Mof_C 	C 	0.11083	0.55542	0.85455	0.05
Mof_H 	H 	0.1286	0.5643	0.8373	0.045
Mof_C 	C 	0.67317	0.83658	0.31933	0.004
Mof_C 	C 	0.7077	0.85385	0.26666	0.06
Mof_C 	C 	0.7293	0.86465	0.23882	-0.04
Mof_C 	C 	0.7775	0.88875	0.18788	0.05
Mof_H 	H 	0.79527	0.89763	0.17063	0.045
Mof_C 	C 	0.33983	0.16992	0.65267	0.004
Mof_C 	C 	0.37436	0.18718	0.6	0.06
Mof_C 	C 	0.39596	0.19798	0.57216	-0.04
Mof_C 	C 	0.44416	0.22208	0.52122	0.05
Mof_H 	H 	0.46193	0.23097	0.50397	0.045
Mof_C 	C 	0.49675	0.50325	0.986	0.004
Mof_C 	C 	0.47949	0.52052	0.93333	0.06
Mof_C 	C 	0.46868	0.53132	0.90549	-0.04
Mof_C 	C 	0.44458	0.55542	0.85455	0.05
Mof_H 	H 	0.4357	0.5643	0.8373	0.045
Mof_C 	C 	0.16342	0.83658	0.31933	0.004
Mof_C 	C 	0.14615	0.85385	0.26666	0.06
Mof_C 	C 	0.13535	0.86465	0.23882	-0.04
Mof_C 	C 	0.11125	0.88875	0.18788	0.049
Mof_H 	H 	0.10237	0.89763	0.17063	0.045
Mof_C 	C 	0.83008	0.16992	0.65267	0.004
Mof_C 	C 	0.81282	0.18718	0.6	0.06
Mof_C 	C 	0.80202	0.19798	0.57216	-0.04
Mof_C 	C 	0.77792	0.22208	0.52122	0.05
Mof_H 	H 	0.76903	0.23097	0.50397	0.045
Mof_C 	C 	0.49675	0.9935	0.986	0.004
Mof_C 	C 	0.47948	0.95897	0.93333	0.06
Mof_C 	C 	0.46868	0.93737	0.90549	-0.04
Mof_C 	C 	0.44458	0.88917	0.85455	0.05
Mof_H 	H 	0.4357	0.8714	0.8373	0.045
Mof_C 	C 	0.16342	0.32683	0.31933	0.004
Mof_C 	C 	0.14615	0.2923	0.26666	0.06
Mof_C 	C 	0.13535	0.2707	0.23882	-0.04
Mof_C 	C 	0.11125	0.2225	0.18788	0.05
Mof_H 	H 	0.10237	0.20473	0.17063	0.045
Mof_C 	C 	0.83008	0.66017	0.65267	0.004
Mof_C 	C 	0.81282	0.62564	0.6	0.06
Mof_C 	C 	0.80202	0.60404	0.57216	-0.04
Mof_C 	C 	0.77792	0.55584	0.52122	0.05
Mof_H 	H 	0.76903	0.53807	0.50397	0.045
Mof_C 	C 	0.50325	0.0065	0.014	0.004
Mof_C 	C 	0.52052	0.04103	0.06667	0.06
Mof_C 	C 	0.53132	0.06263	0.09451	-0.04
Mof_C 	C 	0.55542	0.11083	0.14545	0.05
Mof_H 	H 	0.5643	0.1286	0.1627	0.045
Mof_C 	C 	0.16992	0.33983	0.34733	0.004
Mof_C 	C 	0.18718	0.37436	0.4	0.06
Mof_C 	C 	0.19798	0.39596	0.42784	-0.04
Mof_C 	C 	0.22208	0.44416	0.47878	0.05
Mof_H 	H 	0.23097	0.46193	0.49603	0.045
Mof_C 	C 	0.83658	0.67317	0.68067	0.004
Mof_C 	C 	0.85385	0.7077	0.73334	0.06
Mof_C 	C 	0.86465	0.7293	0.76118	-0.04
Mof_C 	C 	0.88875	0.7775	0.81212	0.05
Mof_H 	H 	0.89763	0.79527	0.82937	0.045
Mof_C 	C 	0.50325	0.49675	0.014	0.004
Mof_C 	C 	0.52052	0.47948	0.06667	0.06
Mof_C 	C 	0.53132	0.46868	0.09451	-0.04
Mof_C 	C 	0.55542	0.44458	0.14545	0.05
Mof_H 	H 	0.5643	0.4357	0.1627	0.045
Mof_C 	C 	0.16992	0.83008	0.34733	0.004
Mof_C 	C 	0.18718	0.81282	0.4	0.06
Mof_C 	C 	0.19798	0.80202	0.42784	-0.04
Mof_C 	C 	0.22208	0.77792	0.47878	0.05
Mof_H 	H 	0.23097	0.76903	0.49603	0.045
Mof_C 	C 	0.83658	0.16342	0.68067	0.004
Mof_C 	C 	0.85385	0.14615	0.73334	0.06
Mof_C 	C 	0.86465	0.13535	0.76118	-0.04
Mof_C 	C 	0.88875	0.11125	0.81212	0.049
Mof_H 	H 	0.89763	0.10237	0.82937	0.045
Mof_C 	C 	0.9935	0.49675	0.014	0.004
Mof_C 	C 	0.95897	0.47948	0.06667	0.06
Mof_C 	C 	0.93737	0.46868	0.09451	-0.04
Mof_C 	C 	0.88917	0.44458	0.14545	0.05
Mof_H 	H 	0.8714	0.4357	0.1627	0.045
Mof_C 	C 	0.66017	0.83008	0.34733	0.004
Mof_C 	C 	0.62564	0.81282	0.4	0.06
Mof_C 	C 	0.60404	0.80202	0.42784	-0.04
Mof_C 	C 	0.55584	0.77792	0.47878	0.05
Mof_H 	H 	0.53807	0.76903	0.49603	0.045
Mof_C 	C 	0.32683	0.16342	0.68067	0.004
Mof_C 	C 	0.2923	0.14615	0.73334	0.06
Mof_C 	C 	0.2707	0.13535	0.76118	-0.04
Mof_C 	C 	0.2225	0.11125	0.81212	0.05
Mof_H 	H 	0.20473	0.10237	0.82937	0.045
_end
