data_functionalizedCrystal
_audit_creation_method	'EQeq! by Chris Wilmer'
_symmetry_space_group_name_H-M	'P1'
_symmetry_Int_Tables_number	1
_symmetry_cell_setting	triclinic
loop_
_symmetry_equiv_pos_as_xyz
  x,y,z
_cell_length_a	13.0133
_cell_length_b	13.0133
_cell_length_c	13.922
_cell_angle_alpha	106.373
_cell_angle_beta	106.373
_cell_angle_gamma	91.2734
loop_
_atom_site_label
_atom_site_type_symbol
_atom_site_fract_x
_atom_site_fract_y
_atom_site_fract_z
_atom_site_charge
Mof_Zn	Zn	0.1875	0.86678	0.86662	1.214
Mof_Zn	Zn	0.13322	0.8125	0.63338	1.215
Mof_H 	H 	0.5371	0.8993	0.9387	0.024
Mof_H 	H 	0.7154	0.8992	0.9512	0.066
Mof_H 	H 	0.4557	0.8077	0.6225	0.045
Mof_H 	H 	0.8589	0.8609	0.8615	0.056
Mof_H 	H 	0.047	0.924	0.9967	-0.015
Mof_H 	H 	0.0196	0.9106	0.1484	0.096
Mof_H 	H 	0.3093	0.7987	0.2208	0.111
Mof_H 	H 	0.4067	0.8727	0.0505	0.228
Mof_H 	H 	0.4167	0.7795	0.106	0.226
Mof_H 	H 	0.3499	0.7533	0.9846	0.223
Mof_H 	H 	0.78	0.7858	0.5464	0.037
Mof_H 	H 	0.5983	0.7865	0.5355	0.054
Mof_H 	H 	0.1007	0.4629	0.5613	0.025
Mof_H 	H 	0.1008	0.2846	0.5488	0.068
Mof_H 	H 	0.1923	0.5443	0.8775	0.046
Mof_H 	H 	0.1391	0.1411	0.6385	0.058
Mof_H 	H 	0.076	0.953	0.5033	-0.008
Mof_H 	H 	0.0894	0.9804	0.3516	0.095
Mof_H 	H 	0.2013	0.6907	0.2792	0.11
Mof_H 	H 	0.1273	0.5933	0.4495	0.228
Mof_H 	H 	0.2205	0.5833	0.394	0.227
Mof_H 	H 	0.2467	0.6501	0.5154	0.227
Mof_H 	H 	0.2142	0.22	0.9536	0.038
Mof_H 	H 	0.2135	0.4017	0.9645	0.054
Mof_C 	C 	0.3612	0.8498	0.7707	0.381
Mof_C 	C 	0.4779	0.8517	0.7778	-0.104
Mof_C 	C 	0.5581	0.8799	0.8764	0.026
Mof_C 	C 	0.6632	0.8796	0.8839	-0.108
Mof_C 	C 	0.5091	0.8253	0.689	-0.02
Mof_C 	C 	0.6971	0.8505	0.7925	0.034
Mof_C 	C 	0.8054	0.848	0.7955	-0.04
Mof_C 	C 	0.1012	0.8982	0.043	0.104
Mof_C 	C 	0.0842	0.8906	0.1328	-0.164
Mof_C 	C 	0.1626	0.853	0.2014	0.097
Mof_C 	C 	0.2549	0.8253	0.1755	-0.253
Mof_C 	C 	0.2689	0.8361	0.0833	0.29
Mof_C 	C 	0.3693	0.8079	0.0535	-0.691
Mof_C 	C 	0.8369	0.8275	0.7067	-0.082
Mof_C 	C 	0.9545	0.8307	0.7142	0.367
Mof_C 	C 	0.7589	0.8025	0.6086	0.007
Mof_C 	C 	0.6508	0.802	0.6023	-0.078
Mof_C 	C 	0.6173	0.8239	0.6933	0.011
Mof_C 	C 	0.1502	0.6388	0.7293	0.381
Mof_C 	C 	0.1483	0.5221	0.7222	-0.104
Mof_C 	C 	0.1201	0.4419	0.6236	0.027
Mof_C 	C 	0.1204	0.3368	0.6161	-0.108
Mof_C 	C 	0.1747	0.4909	0.811	-0.02
Mof_C 	C 	0.1495	0.3029	0.7075	0.035
Mof_C 	C 	0.152	0.1946	0.7045	-0.04
Mof_C 	C 	0.1018	0.8988	0.457	0.094
Mof_C 	C 	0.1094	0.9158	0.3672	-0.159
Mof_C 	C 	0.147	0.8374	0.2986	0.094
Mof_C 	C 	0.1747	0.7451	0.3245	-0.252
Mof_C 	C 	0.1639	0.7311	0.4167	0.291
Mof_C 	C 	0.1921	0.6307	0.4465	-0.698
Mof_C 	C 	0.1725	0.1631	0.7933	-0.082
Mof_C 	C 	0.1693	0.0455	0.7858	0.368
Mof_C 	C 	0.1975	0.2411	0.8914	0.007
Mof_C 	C 	0.198	0.3492	0.8977	-0.078
Mof_C 	C 	0.1761	0.3827	0.8067	0.01
Mof_N 	N 	0.1911	0.8709	0.0159	-0.291
Mof_N 	N 	0.1291	0.8089	0.4841	-0.291
Mof_O 	O 	0.33651	0.88889	0.8546	-0.472
Mof_O 	O 	0.2948	0.808	0.6811	-0.472
Mof_O 	O 	0.97768	0.83032	0.6319	-0.453
Mof_O 	O 	0.0212	0.8356	0.8012	-0.46
Mof_O 	O 	0.11111	0.66349	0.6454	-0.471
Mof_O 	O 	0.192	0.7052	0.8189	-0.473
Mof_O 	O 	0.16968	0.02232	0.8681	-0.451
Mof_O 	O 	0.1644	0.9788	0.6988	-0.461
Mof_Zn	Zn	0.8125	0.13322	0.13338	1.215
Mof_Zn	Zn	0.86678	0.1875	0.36662	1.216
Mof_H 	H 	0.4629	0.1007	0.0613	0.025
Mof_H 	H 	0.2846	0.1008	0.0488	0.067
Mof_H 	H 	0.5443	0.1923	0.3775	0.046
Mof_H 	H 	0.1411	0.1391	0.1385	0.057
Mof_H 	H 	0.953	0.076	0.0033	-0.014
Mof_H 	H 	0.9804	0.0894	0.8516	0.097
Mof_H 	H 	0.6907	0.2013	0.7792	0.111
Mof_H 	H 	0.5933	0.1273	0.9495	0.228
Mof_H 	H 	0.5833	0.2205	0.894	0.226
Mof_H 	H 	0.6501	0.2467	0.0154	0.223
Mof_H 	H 	0.22	0.2142	0.4536	0.037
Mof_H 	H 	0.4017	0.2135	0.4645	0.054
Mof_H 	H 	0.8993	0.5371	0.4387	0.025
Mof_H 	H 	0.8992	0.7154	0.4512	0.068
Mof_H 	H 	0.8077	0.4557	0.1225	0.046
Mof_H 	H 	0.8609	0.8589	0.3615	0.058
Mof_H 	H 	0.924	0.047	0.4967	-0.008
Mof_H 	H 	0.9106	0.0196	0.6484	0.095
Mof_H 	H 	0.7987	0.3093	0.7208	0.11
Mof_H 	H 	0.8727	0.4067	0.5505	0.228
Mof_H 	H 	0.7795	0.4167	0.606	0.227
Mof_H 	H 	0.7533	0.3499	0.4846	0.227
Mof_H 	H 	0.7858	0.78	0.0464	0.038
Mof_H 	H 	0.7865	0.5983	0.0355	0.054
Mof_C 	C 	0.6388	0.1502	0.2293	0.381
Mof_C 	C 	0.5221	0.1483	0.2222	-0.104
Mof_C 	C 	0.4419	0.1201	0.1236	0.026
Mof_C 	C 	0.3368	0.1204	0.1161	-0.108
Mof_C 	C 	0.4909	0.1747	0.311	-0.02
Mof_C 	C 	0.3029	0.1495	0.2075	0.034
Mof_C 	C 	0.1946	0.152	0.2045	-0.04
Mof_C 	C 	0.8988	0.1018	0.957	0.104
Mof_C 	C 	0.9158	0.1094	0.8672	-0.164
Mof_C 	C 	0.8374	0.147	0.7986	0.097
Mof_C 	C 	0.7451	0.1747	0.8245	-0.253
Mof_C 	C 	0.7311	0.1639	0.9167	0.29
Mof_C 	C 	0.6307	0.1921	0.9465	-0.691
Mof_C 	C 	0.1631	0.1725	0.2933	-0.082
Mof_C 	C 	0.0455	0.1693	0.2858	0.367
Mof_C 	C 	0.2411	0.1975	0.3914	0.007
Mof_C 	C 	0.3492	0.198	0.3977	-0.078
Mof_C 	C 	0.3827	0.1761	0.3067	0.011
Mof_C 	C 	0.8498	0.3612	0.2707	0.381
Mof_C 	C 	0.8517	0.4779	0.2778	-0.104
Mof_C 	C 	0.8799	0.5581	0.3764	0.027
Mof_C 	C 	0.8796	0.6632	0.3839	-0.108
Mof_C 	C 	0.8253	0.5091	0.189	-0.02
Mof_C 	C 	0.8505	0.6971	0.2925	0.035
Mof_C 	C 	0.848	0.8054	0.2955	-0.04
Mof_C 	C 	0.8982	0.1012	0.543	0.094
Mof_C 	C 	0.8906	0.0842	0.6328	-0.159
Mof_C 	C 	0.853	0.1626	0.7014	0.094
Mof_C 	C 	0.8253	0.2549	0.6755	-0.252
Mof_C 	C 	0.8361	0.2689	0.5833	0.291
Mof_C 	C 	0.8079	0.3693	0.5535	-0.698
Mof_C 	C 	0.8275	0.8369	0.2067	-0.082
Mof_C 	C 	0.8307	0.9545	0.2142	0.368
Mof_C 	C 	0.8025	0.7589	0.1086	0.007
Mof_C 	C 	0.802	0.6508	0.1023	-0.078
Mof_C 	C 	0.8239	0.6173	0.1933	0.01
Mof_N 	N 	0.8089	0.1291	0.9841	-0.291
Mof_N 	N 	0.8709	0.1911	0.5159	-0.291
Mof_O 	O 	0.66349	0.11111	0.1454	-0.472
Mof_O 	O 	0.7052	0.192	0.3189	-0.472
Mof_O 	O 	0.02232	0.16968	0.3681	-0.453
Mof_O 	O 	0.9788	0.1644	0.1988	-0.46
Mof_O 	O 	0.88889	0.33651	0.3546	-0.471
Mof_O 	O 	0.808	0.2948	0.1811	-0.473
Mof_O 	O 	0.83032	0.97768	0.1319	-0.451
Mof_O 	O 	0.8356	0.0212	0.3012	-0.461
_end
