data_functionalizedCrystal
_audit_creation_method	'EQeq! by Chris Wilmer'
_symmetry_space_group_name_H-M	'P1'
_symmetry_Int_Tables_number	1
_symmetry_cell_setting	triclinic
loop_
_symmetry_equiv_pos_as_xyz
  x,y,z
_cell_length_a	6.6673
_cell_length_b	13.0771
_cell_length_c	21.2751
_cell_angle_alpha	90
_cell_angle_beta	90
_cell_angle_gamma	102.492
loop_
_atom_site_label
_atom_site_type_symbol
_atom_site_fract_x
_atom_site_fract_y
_atom_site_fract_z
_atom_site_charge
Mof_Co	Co	0.51751	0.54656	0.06695	1.094
Mof_Co	Co	0.98249	0.95344	0.56695	1.119
Mof_Co	Co	0.48249	0.45344	0.93305	1.11
Mof_Co	Co	-0	0.5	-0	1.095
Mof_Co	Co	0.01751	0.04656	0.43305	1.08
Mof_Co	Co	0.5	0	0.5	1.112
Mof_H 	H 	0.4646	0.8893	0.6757	0.068
Mof_H 	H 	0.766	0.8913	0.4751	0.317
Mof_H 	H 	0.598	0.7449	0.3048	0.017
Mof_H 	H 	0.36	0.2415	0.5897	0.108
Mof_H 	H 	0.5177	0.2429	0.2521	0.016
Mof_H 	H 	0.266	0.3913	0.0249	0.315
Mof_H 	H 	0.0677	0.4703	0.4217	-0.002
Mof_H 	H 	0.903	0.9714	0.3261	0.164
Mof_H 	H 	0.5677	0.9703	0.0783	-0.009
Mof_H 	H 	0.403	0.4714	0.1739	0.126
Mof_H 	H 	0.447	0.4055	0.4317	0.015
Mof_H 	H 	0.216	0.4792	0.1462	0.117
Mof_H 	H 	0.716	0.9792	0.3538	0.154
Mof_H 	H 	0.284	0.0208	0.6462	0.087
Mof_H 	H 	0.234	0.1087	0.5249	0.325
Mof_H 	H 	0.0354	0.6107	0.1757	0.055
Mof_H 	H 	0.097	0.0286	0.6739	0.084
Mof_H 	H 	0.0177	0.7429	0.2479	0.014
Mof_H 	H 	0.885	0.8886	0.7339	0.086
Mof_H 	H 	0.098	0.2449	0.1952	-0.014
Mof_H 	H 	0.127	0.2196	0.6013	0.103
Mof_H 	H 	0.64	0.7585	0.4103	0.11
Mof_H 	H 	0.571	0.148	0.0859	0.114
Mof_H 	H 	0.5354	0.1107	0.3243	0.056
Mof_H 	H 	0.115	0.1114	0.2661	0.035
Mof_H 	H 	0.784	0.5208	0.8538	0.129
Mof_H 	H 	0.86	0.7415	0.9103	0.118
Mof_H 	H 	0.0499	0.9169	0.923	0.054
Mof_H 	H 	0.385	0.3886	0.7661	0.065
Mof_H 	H 	0.873	0.7804	0.3987	0.118
Mof_H 	H 	0.4323	0.0297	0.9217	0.045
Mof_H 	H 	0.929	0.352	0.5859	0.107
Mof_H 	H 	0.4823	0.7571	0.7479	0.022
Mof_H 	H 	0.902	0.7551	0.8048	0.034
Mof_H 	H 	0.071	0.648	0.4141	0.069
Mof_H 	H 	0.553	0.5945	0.5683	0.021
Mof_H 	H 	0.5499	0.4169	0.577	0.085
Mof_H 	H 	0.4501	0.5831	0.423	0.084
Mof_H 	H 	0.053	0.0945	0.9317	0.019
Mof_H 	H 	0.947	0.9055	0.0683	0.002
Mof_H 	H 	0.9501	0.0831	0.077	0.14
Mof_H 	H 	0.597	0.5286	0.8261	0.129
Mof_H 	H 	0.627	0.7196	0.8987	0.112
Mof_H 	H 	0.14	0.2585	0.0897	0.098
Mof_H 	H 	0.734	0.6087	0.9751	0.325
Mof_H 	H 	0.9823	0.2571	0.7521	0.024
Mof_H 	H 	0.615	0.6114	0.2339	0.072
Mof_H 	H 	0.402	0.2551	0.6952	0.013
Mof_H 	H 	0.429	0.852	0.9141	0.068
Mof_H 	H 	0.9646	0.3893	0.8243	0.07
Mof_H 	H 	0.373	0.2804	0.1013	0.11
Mof_H 	H 	0.9323	0.5297	0.5783	0.04
Mof_C 	C 	0.5582	0.00691	0.92285	-0.046
Mof_C 	C 	0.6386	0.21576	0.25462	0.027
Mof_C 	C 	0.2563	0.80869	0.06099	0.14
Mof_C 	C 	0.2574	0.9194	0.07091	-0.137
Mof_C 	C 	0.2604	0.13417	0.08029	0.22
Mof_C 	C 	0.7437	0.19131	0.93901	0.12
Mof_C 	C 	0.0582	0.50691	0.57715	0.015
Mof_C 	C 	0.4931	0.63757	0.23694	-0.158
Mof_C 	C 	0.0561	0.40109	0.58174	-0.182
Mof_C 	C 	0.5176	0.28335	0.72077	0.029
Mof_C 	C 	0.5763	0.56054	0.42368	-0.161
Mof_C 	C 	0.0069	0.86243	0.73694	-0.168
Mof_C 	C 	0.8251	0.09645	0.30112	0.115
Mof_C 	C 	0.8614	0.28424	0.75462	0.025
Mof_C 	C 	0.0763	0.06054	0.07632	-0.315
Mof_C 	C 	0.1961	0.74459	0.78478	-0.058
Mof_C 	C 	0.2083	0.66696	0.83395	0.117
Mof_C 	C 	0.4439	0.09891	0.08174	-0.269
Mof_C 	C 	0.5744	0.4546	0.42859	0.041
Mof_C 	C 	0.9418	0.49309	0.42285	0.069
Mof_C 	C 	0.0176	0.78335	0.77923	0.006
Mof_C 	C 	0.5561	0.90109	0.91826	-0.066
Mof_C 	C 	0.4237	0.43946	0.57632	-0.16
Mof_C 	C 	0.2396	0.36583	0.58029	0.16
Mof_C 	C 	0.4824	0.71665	0.27923	0.032
Mof_C 	C 	0.4418	0.99309	0.07715	0.14
Mof_C 	C 	0.9439	0.59891	0.41826	-0.136
Mof_C 	C 	0.3512	0.86306	0.70251	-0.135
Mof_C 	C 	0.8512	0.36306	0.79749	-0.141
Mof_C 	C 	0.9824	0.21665	0.22077	0.065
Mof_C 	C 	0.7396	0.86583	0.91971	0.113
Mof_C 	C 	0.4256	0.5454	0.57141	0.034
Mof_C 	C 	0.1488	0.63694	0.20251	-0.141
Mof_C 	C 	0.5069	0.36243	0.76306	-0.16
Mof_C 	C 	0.7574	0.4194	0.42909	-0.081
Mof_C 	C 	0.6488	0.13694	0.29749	-0.144
Mof_C 	C 	0.1386	0.71576	0.24538	0.023
Mof_C 	C 	0.3614	0.78424	0.74538	0.02
Mof_C 	C 	0.3251	0.59645	0.19888	0.121
Mof_C 	C 	0.6749	0.40355	0.80112	0.125
Mof_C 	C 	0.7604	0.63417	0.41971	0.154
Mof_C 	C 	0.0744	0.9546	0.07141	0.123
Mof_C 	C 	0.2437	0.69131	0.56099	0.122
Mof_C 	C 	0.9256	0.0454	0.92859	-0.007
Mof_C 	C 	0.7426	0.0806	0.92909	-0.025
Mof_C 	C 	0.7917	0.33304	0.16605	0.126
Mof_C 	C 	0.7083	0.16696	0.66605	0.119
Mof_C 	C 	0.2917	0.83304	0.33395	0.122
Mof_C 	C 	0.6961	0.24459	0.71522	-0.067
Mof_C 	C 	0.3039	0.75541	0.28478	-0.068
Mof_C 	C 	0.9931	0.13757	0.26306	-0.128
Mof_C 	C 	0.8039	0.25541	0.21522	-0.079
Mof_C 	C 	0.1749	0.90355	0.69888	0.125
Mof_C 	C 	0.7563	0.30869	0.43901	0.132
Mof_C 	C 	0.9237	0.93946	0.92368	-0.056
Mof_C 	C 	0.2426	0.5806	0.57091	-0.064
Mof_N 	N 	0.1414	0.8334	0.54858	-0.184
Mof_N 	N 	0.4398	0.86454	0.37719	-0.127
Mof_N 	N 	0.1601	0.98558	0.6557	-0.326
Mof_N 	N 	0.5602	0.13546	0.62281	-0.127
Mof_N 	N 	0.6414	0.3334	0.95142	-0.176
Mof_N 	N 	0.1316	0.878	0.34361	-0.128
Mof_N 	N 	0.7636	0.74153	0.41936	-0.279
Mof_N 	N 	0.3675	0.93142	0.41409	-0.167
Mof_N 	N 	0.9103	0.26477	0.95538	-0.103
Mof_N 	N 	0.1842	0.93897	0.39461	-0.18
Mof_N 	N 	0.1325	0.56858	0.91409	-0.168
Mof_N 	N 	0.6316	0.378	0.15639	-0.125
Mof_N 	N 	0.6601	0.48558	0.8443	-0.384
Mof_N 	N 	0.5897	0.23523	0.45538	-0.123
Mof_N 	N 	0.6547	0.14637	0.46153	-0.179
Mof_N 	N 	0.7364	0.75847	0.91936	-0.267
Mof_N 	N 	0.4242	0.76698	0.06393	-0.12
Mof_N 	N 	0.0602	0.63546	0.87719	-0.131
Mof_N 	N 	0.9242	0.26698	0.43607	-0.108
Mof_N 	N 	0.3158	0.56103	0.89461	-0.182
Mof_N 	N 	0.8684	0.122	0.65639	-0.12
Mof_N 	N 	0.6325	0.06858	0.58591	-0.179
Mof_N 	N 	0.0758	0.73302	0.56393	-0.118
Mof_N 	N 	0.3684	0.622	0.84361	-0.123
Mof_N 	N 	0.0897	0.73523	0.04462	-0.137
Mof_N 	N 	0.5758	0.23302	0.93607	-0.109
Mof_N 	N 	0.2636	0.24153	0.08064	-0.298
Mof_N 	N 	0.2364	0.25847	0.58064	-0.282
Mof_N 	N 	0.9398	0.36454	0.12281	-0.121
Mof_N 	N 	0.3399	0.51442	0.1557	-0.379
Mof_N 	N 	0.8158	0.06103	0.60539	-0.19
Mof_N 	N 	0.1547	0.64637	0.03847	-0.186
Mof_N 	N 	0.8586	0.1666	0.45142	-0.18
Mof_N 	N 	0.8399	0.01442	0.3443	-0.425
Mof_N 	N 	0.4103	0.76477	0.54462	-0.119
Mof_N 	N 	0.8453	0.35363	0.96153	-0.158
Mof_N 	N 	0.3586	0.6666	0.04858	-0.19
Mof_N 	N 	0.3453	0.85363	0.53847	-0.169
Mof_N 	N 	0.8675	0.43142	0.08591	-0.174
Mof_N 	N 	0.6842	0.43897	0.10539	-0.189
Mof_O 	O 	0.78658	0.94987	0.4878	-0.837
Mof_O 	O 	0.71342	0.55013	0.9878	-0.828
Mof_O 	O 	0.21342	0.05013	0.5122	-0.888
Mof_O 	O 	0.28658	0.44987	0.0122	-0.889
_end
